BOSCEV

From CSD data. Using bond type 'Any'. No disordered atoms. Largest molecule.
 60 78  0  0  0  0  0  0  0  0999 V2000
    5.9295    1.9813    4.8377 P   0  0  0  0  0  0  0  0  0  0  0  0
    5.8353    4.8339    3.3739 P   0  0  0  0  0  0  0  0  0  0  0  0
    6.4911    0.7850    5.8224 O   0  0  0  0  0  0  0  0  0  0  0  0
    7.0737    4.8284    2.3152 O   0  0  0  0  0  0  0  0  0  0  0  0
    6.7019    3.4252    5.8107 C   0  0  0  0  0  0  0  0  0  0  0  0
    6.7901    4.9248    4.9952 C   0  0  0  0  0  0  0  0  0  0  0  0
    4.1226    1.8151    5.2737 C   0  0  0  0  0  0  0  0  0  0  0  0
    3.8081    1.8428    6.7682 C   0  0  0  0  0  0  0  0  0  0  0  0
    3.8142    0.3799    4.7276 C   0  0  0  0  0  0  0  0  0  0  0  0
    3.2531    2.7904    4.5014 C   0  0  0  0  0  0  0  0  0  0  0  0
    5.1562    6.5356    3.0330 C   0  0  0  0  0  0  0  0  0  0  0  0
    4.0820    6.8985    4.0643 C   0  0  0  0  0  0  0  0  0  0  0  0
    4.4635    6.3415    1.6698 C   0  0  0  0  0  0  0  0  0  0  0  0
    6.2084    7.6401    2.9031 C   0  0  0  0  0  0  0  0  0  0  0  0
    7.4382   -0.1430    5.2611 C   0  0  0  0  0  0  0  0  0  0  0  0
    7.2464    3.6557    1.4948 C   0  0  0  0  0  0  0  0  0  0  0  0
    6.7472    3.6718    7.5059 B   0  0  0  0  0  0  0  0  0  0  0  0
    5.8479    4.7796    6.4342 B   0  0  0  0  0  0  0  0  0  0  0  0
    6.8655    5.4292    7.7301 B   0  0  0  0  0  0  0  0  0  0  0  0
    8.3253    4.4176    7.8412 B   0  0  0  0  0  0  0  0  0  0  0  0
    8.1891    3.1457    6.6247 B   0  0  0  0  0  0  0  0  0  0  0  0
    6.8770    6.1951    6.1460 B   0  0  0  0  0  0  0  0  0  0  0  0
    8.3970    5.9670    7.0103 B   0  0  0  0  0  0  0  0  0  0  0  0
    9.2104    4.5521    6.3044 B   0  0  0  0  0  0  0  0  0  0  0  0
    8.1809    3.9086    5.0314 B   0  0  0  0  0  0  0  0  0  0  0  0
    8.3175    5.6656    5.2587 B   0  0  0  0  0  0  0  0  0  0  0  0
    6.1865    2.9600    8.0803 H   0  0  0  0  0  0  0  0  0  0  0  0
    4.8549    4.8039    6.3208 H   0  0  0  0  0  0  0  0  0  0  0  0
    6.3848    5.8870    8.5701 H   0  0  0  0  0  0  0  0  0  0  0  0
    8.8789    4.2256    8.7348 H   0  0  0  0  0  0  0  0  0  0  0  0
    8.5179    2.1501    6.6896 H   0  0  0  0  0  0  0  0  0  0  0  0
    6.4184    7.1152    5.9286 H   0  0  0  0  0  0  0  0  0  0  0  0
    8.9206    6.7790    7.3951 H   0  0  0  0  0  0  0  0  0  0  0  0
   10.2754    4.4528    6.1998 H   0  0  0  0  0  0  0  0  0  0  0  0
    8.4939    3.4114    4.0933 H   0  0  0  0  0  0  0  0  0  0  0  0
    8.7487    6.2850    4.4461 H   0  0  0  0  0  0  0  0  0  0  0  0
    4.4952    1.1738    7.2960 H   0  0  0  0  0  0  0  0  0  0  0  0
    3.8415    2.8384    7.0905 H   0  0  0  0  0  0  0  0  0  0  0  0
    2.8565    1.4245    6.9301 H   0  0  0  0  0  0  0  0  0  0  0  0
    3.9661    0.2774    3.7799 H   0  0  0  0  0  0  0  0  0  0  0  0
    4.5640   -0.3447    5.1298 H   0  0  0  0  0  0  0  0  0  0  0  0
    2.8229    0.2038    4.8295 H   0  0  0  0  0  0  0  0  0  0  0  0
    3.4188    2.7210    3.4811 H   0  0  0  0  0  0  0  0  0  0  0  0
    3.3470    3.6846    4.7552 H   0  0  0  0  0  0  0  0  0  0  0  0
    2.3478    2.5417    4.6575 H   0  0  0  0  0  0  0  0  0  0  0  0
    3.6816    7.7629    3.7974 H   0  0  0  0  0  0  0  0  0  0  0  0
    4.4434    7.1056    4.9024 H   0  0  0  0  0  0  0  0  0  0  0  0
    3.3361    6.1975    4.1444 H   0  0  0  0  0  0  0  0  0  0  0  0
    3.7100    5.5711    1.6575 H   0  0  0  0  0  0  0  0  0  0  0  0
    5.1045    6.0822    0.9811 H   0  0  0  0  0  0  0  0  0  0  0  0
    4.0438    7.1781    1.4213 H   0  0  0  0  0  0  0  0  0  0  0  0
    6.8191    7.4182    2.3236 H   0  0  0  0  0  0  0  0  0  0  0  0
    5.8239    8.4725    2.5817 H   0  0  0  0  0  0  0  0  0  0  0  0
    6.6841    7.8269    3.7683 H   0  0  0  0  0  0  0  0  0  0  0  0
    7.2733   -0.2134    4.3266 H   0  0  0  0  0  0  0  0  0  0  0  0
    8.3282    0.1707    5.3353 H   0  0  0  0  0  0  0  0  0  0  0  0
    7.2916   -0.9604    5.6283 H   0  0  0  0  0  0  0  0  0  0  0  0
    6.6774    2.9984    1.8032 H   0  0  0  0  0  0  0  0  0  0  0  0
    6.9755    3.9161    0.5991 H   0  0  0  0  0  0  0  0  0  0  0  0
    8.0718    3.4893    1.4067 H   0  0  0  0  0  0  0  0  0  0  0  0
  1  3  1  0  0  0  0
  2  4  1  0  0  0  0
  3 15  1  0  0  0  0
  4 16  1  0  0  0  0
  5  1  1  0  0  0  0
  6  2  1  0  0  0  0
  7  1  1  0  0  0  0
  8  7  1  0  0  0  0
  9  7  1  0  0  0  0
 10  7  1  0  0  0  0
 11  2  1  0  0  0  0
 12 11  1  0  0  0  0
 13 11  1  0  0  0  0
 14 11  1  0  0  0  0
 15 55  1  0  0  0  0
 16 58  1  0  0  0  0
 17  5  1  0  0  0  0
 18  5  1  0  0  0  0
 19 17  1  0  0  0  0
 20 17  1  0  0  0  0
 21  5  1  0  0  0  0
 22  6  1  0  0  0  0
 23 19  1  0  0  0  0
 24 20  1  0  0  0  0
 25  5  1  0  0  0  0
 26  6  1  0  0  0  0
 27 17  1  0  0  0  0
 28 18  1  0  0  0  0
 29 19  1  0  0  0  0
 30 20  1  0  0  0  0
 31 21  1  0  0  0  0
 32 22  1  0  0  0  0
 33 23  1  0  0  0  0
 34 24  1  0  0  0  0
 35 25  1  0  0  0  0
 36 26  1  0  0  0  0
 37  8  1  0  0  0  0
 38  8  1  0  0  0  0
 39  8  1  0  0  0  0
 40  9  1  0  0  0  0
 41  9  1  0  0  0  0
 42  9  1  0  0  0  0
 43 10  1  0  0  0  0
 44 10  1  0  0  0  0
 45 10  1  0  0  0  0
 46 12  1  0  0  0  0
 47 12  1  0  0  0  0
 48 12  1  0  0  0  0
 49 13  1  0  0  0  0
 50 13  1  0  0  0  0
 51 13  1  0  0  0  0
 52 14  1  0  0  0  0
 53 14  1  0  0  0  0
 54 14  1  0  0  0  0
 56 15  1  0  0  0  0
 57 15  1  0  0  0  0
 59 16  1  0  0  0  0
 60 16  1  0  0  0  0
  5  6  1  0  0  0  0
  6 18  1  0  0  0  0
  6 25  1  0  0  0  0
 17 18  1  0  0  0  0
 17 21  1  0  0  0  0
 18 19  1  0  0  0  0
 18 22  1  0  0  0  0
 19 20  1  0  0  0  0
 19 22  1  0  0  0  0
 20 21  1  0  0  0  0
 20 23  1  0  0  0  0
 21 24  1  0  0  0  0
 21 25  1  0  0  0  0
 22 23  1  0  0  0  0
 22 26  1  0  0  0  0
 23 24  1  0  0  0  0
 23 26  1  0  0  0  0
 24 25  1  0  0  0  0
 24 26  1  0  0  0  0
 25 26  1  0  0  0  0
M  END
$$$$
BOSCIZ

From CSD data. Using bond type 'Any'. No disordered atoms. Largest molecule.
 63 82  0  0  0  0  0  0  0  0999 V2000
    4.6367   10.3268   10.2929 Pt  0  0  0  0  0  0  0  0  0  0  0  0
    4.1465   11.4784    8.3050 Cl  0  0  0  0  0  0  0  0  0  0  0  0
    2.3313    9.8822   10.4349 Cl  0  0  0  0  0  0  0  0  0  0  0  0
    6.7770   10.9118   10.1178 P   0  0  0  0  0  0  0  0  0  0  0  0
    4.9593    9.3089   12.2379 P   0  0  0  0  0  0  0  0  0  0  0  0
    7.0414   12.4237    9.7653 O   0  0  0  0  0  0  0  0  0  0  0  0
    3.9486    9.6364   13.4034 O   0  0  0  0  0  0  0  0  0  0  0  0
    7.5167   10.7915   11.8489 C   0  0  0  0  0  0  0  0  0  0  0  0
    6.5526    9.9918   12.9764 C   0  0  0  0  0  0  0  0  0  0  0  0
    7.8823   10.1261    8.8345 C   0  0  0  0  0  0  0  0  0  0  0  0
    8.1973    8.6816    9.1126 C   0  0  0  0  0  0  0  0  0  0  0  0
    8.6549    8.2970    8.3495 H   0  0  0  0  0  0  0  0  0  0  0  0
    7.3735    8.1961    9.2752 H   0  0  0  0  0  0  0  0  0  0  0  0
    8.7676    8.6206    9.8960 H   0  0  0  0  0  0  0  0  0  0  0  0
    7.1121   10.2111    7.5226 C   0  0  0  0  0  0  0  0  0  0  0  0
    7.6739    9.8998    6.7975 H   0  0  0  0  0  0  0  0  0  0  0  0
    6.8540   11.1327    7.3604 H   0  0  0  0  0  0  0  0  0  0  0  0
    6.3173    9.6585    7.5788 H   0  0  0  0  0  0  0  0  0  0  0  0
    9.1785   10.9182    8.6664 C   0  0  0  0  0  0  0  0  0  0  0  0
    9.6934   10.8732    9.4869 H   0  0  0  0  0  0  0  0  0  0  0  0
    8.9676   11.8440    8.4672 H   0  0  0  0  0  0  0  0  0  0  0  0
    9.6959   10.5405    7.9382 H   0  0  0  0  0  0  0  0  0  0  0  0
    6.1822   13.5726   10.0239 C   0  0  0  0  0  0  0  0  0  0  0  0
    5.2680   13.2711   10.1458 H   0  0  0  0  0  0  0  0  0  0  0  0
    6.2224   14.1818    9.2690 H   0  0  0  0  0  0  0  0  0  0  0  0
    6.4828   14.0283   10.8240 H   0  0  0  0  0  0  0  0  0  0  0  0
    4.8696    7.4414   12.2298 C   0  0  0  0  0  0  0  0  0  0  0  0
    5.4435    6.7721   13.4867 C   0  0  0  0  0  0  0  0  0  0  0  0
    5.1961    5.8334   13.4930 H   0  0  0  0  0  0  0  0  0  0  0  0
    5.0871    7.2060   14.2760 H   0  0  0  0  0  0  0  0  0  0  0  0
    6.4103    6.8506   13.4810 H   0  0  0  0  0  0  0  0  0  0  0  0
    3.3622    7.1219   12.1732 C   0  0  0  0  0  0  0  0  0  0  0  0
    2.9512    7.6298   11.4552 H   0  0  0  0  0  0  0  0  0  0  0  0
    2.9484    7.3595   13.0160 H   0  0  0  0  0  0  0  0  0  0  0  0
    3.2396    6.1734   12.0073 H   0  0  0  0  0  0  0  0  0  0  0  0
    5.5706    6.8761   11.0058 C   0  0  0  0  0  0  0  0  0  0  0  0
    5.4082    5.9211   10.9526 H   0  0  0  0  0  0  0  0  0  0  0  0
    6.5246    7.0380   11.0759 H   0  0  0  0  0  0  0  0  0  0  0  0
    5.2273    7.3073   10.2079 H   0  0  0  0  0  0  0  0  0  0  0  0
    3.1526   10.8407   13.5495 C   0  0  0  0  0  0  0  0  0  0  0  0
    3.5665   11.4240   14.2043 H   0  0  0  0  0  0  0  0  0  0  0  0
    2.2599   10.6035   13.8457 H   0  0  0  0  0  0  0  0  0  0  0  0
    3.0993   11.2982   12.6960 H   0  0  0  0  0  0  0  0  0  0  0  0
    8.2345   12.1887   12.5597 B   0  0  0  0  0  0  0  0  0  0  0  0
    8.4757   13.1176   12.0012 H   0  0  0  0  0  0  0  0  0  0  0  0
    6.5486   11.7255   12.9493 B   0  0  0  0  0  0  0  0  0  0  0  0
    5.6789   12.3425   12.6379 H   0  0  0  0  0  0  0  0  0  0  0  0
    7.6430   12.2171   14.2502 B   0  0  0  0  0  0  0  0  0  0  0  0
    7.4991   13.1672   14.8067 H   0  0  0  0  0  0  0  0  0  0  0  0
    9.2621   11.5705   13.8449 B   0  0  0  0  0  0  0  0  0  0  0  0
   10.1886   12.1031   14.1450 H   0  0  0  0  0  0  0  0  0  0  0  0
    9.1563   10.6951   12.3240 B   0  0  0  0  0  0  0  0  0  0  0  0
   10.0026   10.6442   11.6060 H   0  0  0  0  0  0  0  0  0  0  0  0
    6.5648   10.8237   14.4859 B   0  0  0  0  0  0  0  0  0  0  0  0
    5.7043   10.8539   15.1861 H   0  0  0  0  0  0  0  0  0  0  0  0
    8.2371   10.7329   15.0421 B   0  0  0  0  0  0  0  0  0  0  0  0
    8.4853   10.7132   16.1230 H   0  0  0  0  0  0  0  0  0  0  0  0
    9.1716    9.8273   13.8417 B   0  0  0  0  0  0  0  0  0  0  0  0
   10.0442    9.2090   14.1367 H   0  0  0  0  0  0  0  0  0  0  0  0
    8.0771    9.3169   12.5440 B   0  0  0  0  0  0  0  0  0  0  0  0
    8.1953    8.3716   11.9724 H   0  0  0  0  0  0  0  0  0  0  0  0
    7.5196    9.3452   14.2408 B   0  0  0  0  0  0  0  0  0  0  0  0
    7.2894    8.4080   14.7912 H   0  0  0  0  0  0  0  0  0  0  0  0
  1  2  1  0  0  0  0
  3  1  1  0  0  0  0
  4  1  1  0  0  0  0
  5  1  1  0  0  0  0
  6  4  1  0  0  0  0
  7  5  1  0  0  0  0
  8  4  1  0  0  0  0
  9  5  1  0  0  0  0
 10  4  1  0  0  0  0
 11 10  1  0  0  0  0
 12 11  1  0  0  0  0
 13 11  1  0  0  0  0
 14 11  1  0  0  0  0
 15 10  1  0  0  0  0
 16 15  1  0  0  0  0
 17 15  1  0  0  0  0
 18 15  1  0  0  0  0
 19 10  1  0  0  0  0
 20 19  1  0  0  0  0
 21 19  1  0  0  0  0
 22 19  1  0  0  0  0
 23  6  1  0  0  0  0
 24 23  1  0  0  0  0
 25 23  1  0  0  0  0
 26 23  1  0  0  0  0
 27  5  1  0  0  0  0
 28 27  1  0  0  0  0
 29 28  1  0  0  0  0
 30 28  1  0  0  0  0
 31 28  1  0  0  0  0
 32 27  1  0  0  0  0
 33 32  1  0  0  0  0
 34 32  1  0  0  0  0
 35 32  1  0  0  0  0
 36 27  1  0  0  0  0
 37 36  1  0  0  0  0
 38 36  1  0  0  0  0
 39 36  1  0  0  0  0
 40  7  1  0  0  0  0
 41 40  1  0  0  0  0
 42 40  1  0  0  0  0
 43 40  1  0  0  0  0
 44  8  1  0  0  0  0
 45 44  1  0  0  0  0
 46  8  1  0  0  0  0
 47 46  1  0  0  0  0
 48 44  1  0  0  0  0
 49 48  1  0  0  0  0
 50 44  1  0  0  0  0
 51 50  1  0  0  0  0
 52  8  1  0  0  0  0
 53 52  1  0  0  0  0
 54  9  1  0  0  0  0
 55 54  1  0  0  0  0
 56 48  1  0  0  0  0
 57 56  1  0  0  0  0
 58 50  1  0  0  0  0
 59 58  1  0  0  0  0
 60  8  1  0  0  0  0
 61 60  1  0  0  0  0
 62  9  1  0  0  0  0
 63 62  1  0  0  0  0
  8  9  1  0  0  0  0
  9 46  1  0  0  0  0
  9 60  1  0  0  0  0
 44 46  1  0  0  0  0
 44 52  1  0  0  0  0
 46 48  1  0  0  0  0
 46 54  1  0  0  0  0
 48 50  1  0  0  0  0
 48 54  1  0  0  0  0
 50 52  1  0  0  0  0
 50 56  1  0  0  0  0
 52 58  1  0  0  0  0
 52 60  1  0  0  0  0
 54 56  1  0  0  0  0
 54 62  1  0  0  0  0
 56 58  1  0  0  0  0
 56 62  1  0  0  0  0
 58 60  1  0  0  0  0
 58 62  1  0  0  0  0
 60 62  1  0  0  0  0
M  END
$$$$
BOSCOF

From CSD data. Using bond type 'Any'. No disordered atoms. Largest molecule.
 67 86  0  0  0  0  0  0  0  0999 V2000
   -0.7917    3.6108    5.4461 Pt  0  0  0  0  0  0  0  0  0  0  0  0
   -3.1392    3.6477    5.5393 Cl  0  0  0  0  0  0  0  0  0  0  0  0
   -0.6762    4.2568    7.7057 Cl  0  0  0  0  0  0  0  0  0  0  0  0
   -0.9527    3.0825    3.3157 P   0  0  0  0  0  0  0  0  0  0  0  0
    1.4059    3.6142    5.3822 P   0  0  0  0  0  0  0  0  0  0  0  0
   -1.3696    4.2495    2.3211 O   0  0  0  0  0  0  0  0  0  0  0  0
    2.1808    2.5111    6.2037 O   0  0  0  0  0  0  0  0  0  0  0  0
   -1.8901    1.8086    2.9270 N   0  0  0  0  0  0  0  0  0  0  0  0
    2.1181    5.0318    5.7218 N   0  0  0  0  0  0  0  0  0  0  0  0
    0.7426    2.7581    2.6144 C   0  0  0  0  0  0  0  0  0  0  0  0
    1.9808    3.0348    3.6930 C   0  0  0  0  0  0  0  0  0  0  0  0
   -2.5822    1.7365    1.6195 C   0  0  0  0  0  0  0  0  0  0  0  0
   -2.4447    0.8468    1.2327 H   0  0  0  0  0  0  0  0  0  0  0  0
   -2.1846    2.3933    1.0102 H   0  0  0  0  0  0  0  0  0  0  0  0
   -4.0539    2.0008    1.7314 C   0  0  0  0  0  0  0  0  0  0  0  0
   -4.4611    1.9424    0.8526 H   0  0  0  0  0  0  0  0  0  0  0  0
   -4.4574    1.3415    2.3182 H   0  0  0  0  0  0  0  0  0  0  0  0
   -4.1973    2.8880    2.0956 H   0  0  0  0  0  0  0  0  0  0  0  0
   -2.2336    0.7765    3.9321 C   0  0  0  0  0  0  0  0  0  0  0  0
   -3.1843    0.8595    4.1535 H   0  0  0  0  0  0  0  0  0  0  0  0
   -1.7226    0.9539    4.7495 H   0  0  0  0  0  0  0  0  0  0  0  0
   -1.9666   -0.6237    3.5006 C   0  0  0  0  0  0  0  0  0  0  0  0
   -2.5244   -0.8376    2.7362 H   0  0  0  0  0  0  0  0  0  0  0  0
   -2.1695   -1.2305    4.2292 H   0  0  0  0  0  0  0  0  0  0  0  0
   -1.0328   -0.7135    3.2547 H   0  0  0  0  0  0  0  0  0  0  0  0
   -2.0951    5.4114    2.6926 C   0  0  0  0  0  0  0  0  0  0  0  0
   -3.0453    5.2182    2.6747 H   0  0  0  0  0  0  0  0  0  0  0  0
   -1.8986    6.1280    2.0695 H   0  0  0  0  0  0  0  0  0  0  0  0
   -1.8365    5.6810    3.5878 H   0  0  0  0  0  0  0  0  0  0  0  0
    1.3837    6.3186    5.7314 C   0  0  0  0  0  0  0  0  0  0  0  0
    1.4270    6.6995    6.6332 H   0  0  0  0  0  0  0  0  0  0  0  0
    0.4412    6.1453    5.5266 H   0  0  0  0  0  0  0  0  0  0  0  0
    1.9168    7.3353    4.7480 C   0  0  0  0  0  0  0  0  0  0  0  0
    2.8549    7.4993    4.9285 H   0  0  0  0  0  0  0  0  0  0  0  0
    1.4198    8.1639    4.8389 H   0  0  0  0  0  0  0  0  0  0  0  0
    1.8151    6.9956    3.8449 H   0  0  0  0  0  0  0  0  0  0  0  0
    3.5171    5.0875    6.1929 C   0  0  0  0  0  0  0  0  0  0  0  0
    3.9871    5.7943    5.7030 H   0  0  0  0  0  0  0  0  0  0  0  0
    3.9557    4.2370    5.9815 H   0  0  0  0  0  0  0  0  0  0  0  0
    3.6523    5.3499    7.6744 C   0  0  0  0  0  0  0  0  0  0  0  0
    3.2204    6.1898    7.8946 H   0  0  0  0  0  0  0  0  0  0  0  0
    4.5921    5.3977    7.9096 H   0  0  0  0  0  0  0  0  0  0  0  0
    3.2312    4.6299    8.1697 H   0  0  0  0  0  0  0  0  0  0  0  0
    1.8514    1.9691    7.4555 C   0  0  0  0  0  0  0  0  0  0  0  0
    1.7460    2.6859    8.1007 H   0  0  0  0  0  0  0  0  0  0  0  0
    2.5579    1.3727    7.7465 H   0  0  0  0  0  0  0  0  0  0  0  0
    1.0192    1.4743    7.3844 H   0  0  0  0  0  0  0  0  0  0  0  0
    1.1052    1.4540    1.5852 B   0  0  0  0  0  0  0  0  0  0  0  0
    0.3558    0.7531    1.1634 H   0  0  0  0  0  0  0  0  0  0  0  0
    1.5582    1.4290    3.3254 B   0  0  0  0  0  0  0  0  0  0  0  0
    1.0970    0.7270    4.0513 H   0  0  0  0  0  0  0  0  0  0  0  0
    2.7340    0.9178    2.0859 B   0  0  0  0  0  0  0  0  0  0  0  0
    3.0522   -0.1409    1.9882 H   0  0  0  0  0  0  0  0  0  0  0  0
    2.5467    1.9883    0.6729 B   0  0  0  0  0  0  0  0  0  0  0  0
    2.7580    1.6252   -0.3543 H   0  0  0  0  0  0  0  0  0  0  0  0
    1.2137    3.1367    1.0107 B   0  0  0  0  0  0  0  0  0  0  0  0
    0.5368    3.5254    0.2207 H   0  0  0  0  0  0  0  0  0  0  0  0
    3.2644    1.9355    3.4519 B   0  0  0  0  0  0  0  0  0  0  0  0
    3.9309    1.5488    4.2506 H   0  0  0  0  0  0  0  0  0  0  0  0
    3.8415    2.2949    1.8090 B   0  0  0  0  0  0  0  0  0  0  0  0
    4.9016    2.1350    1.5186 H   0  0  0  0  0  0  0  0  0  0  0  0
    2.9173    3.6672    1.1651 B   0  0  0  0  0  0  0  0  0  0  0  0
    3.3570    4.4102    0.4681 H   0  0  0  0  0  0  0  0  0  0  0  0
    1.7324    4.1409    2.3952 B   0  0  0  0  0  0  0  0  0  0  0  0
    1.3831    5.1872    2.5223 H   0  0  0  0  0  0  0  0  0  0  0  0
    3.3719    3.6105    2.8874 B   0  0  0  0  0  0  0  0  0  0  0  0
    4.1081    4.3155    3.3267 H   0  0  0  0  0  0  0  0  0  0  0  0
  1  2  1  0  0  0  0
  3  1  1  0  0  0  0
  4  1  1  0  0  0  0
  5  1  1  0  0  0  0
  6  4  1  0  0  0  0
  7  5  1  0  0  0  0
  8  4  1  0  0  0  0
  9  5  1  0  0  0  0
 10  4  1  0  0  0  0
 11  5  1  0  0  0  0
 12  8  1  0  0  0  0
 13 12  1  0  0  0  0
 14 12  1  0  0  0  0
 15 12  1  0  0  0  0
 16 15  1  0  0  0  0
 17 15  1  0  0  0  0
 18 15  1  0  0  0  0
 19  8  1  0  0  0  0
 20 19  1  0  0  0  0
 21 19  1  0  0  0  0
 22 19  1  0  0  0  0
 23 22  1  0  0  0  0
 24 22  1  0  0  0  0
 25 22  1  0  0  0  0
 26  6  1  0  0  0  0
 27 26  1  0  0  0  0
 28 26  1  0  0  0  0
 29 26  1  0  0  0  0
 30  9  1  0  0  0  0
 31 30  1  0  0  0  0
 32 30  1  0  0  0  0
 33 30  1  0  0  0  0
 34 33  1  0  0  0  0
 35 33  1  0  0  0  0
 36 33  1  0  0  0  0
 37  9  1  0  0  0  0
 38 37  1  0  0  0  0
 39 37  1  0  0  0  0
 40 37  1  0  0  0  0
 41 40  1  0  0  0  0
 42 40  1  0  0  0  0
 43 40  1  0  0  0  0
 44  7  1  0  0  0  0
 45 44  1  0  0  0  0
 46 44  1  0  0  0  0
 47 44  1  0  0  0  0
 48 10  1  0  0  0  0
 49 48  1  0  0  0  0
 50 10  1  0  0  0  0
 51 50  1  0  0  0  0
 52 48  1  0  0  0  0
 53 52  1  0  0  0  0
 54 48  1  0  0  0  0
 55 54  1  0  0  0  0
 56 10  1  0  0  0  0
 57 56  1  0  0  0  0
 58 11  1  0  0  0  0
 59 58  1  0  0  0  0
 60 52  1  0  0  0  0
 61 60  1  0  0  0  0
 62 54  1  0  0  0  0
 63 62  1  0  0  0  0
 64 10  1  0  0  0  0
 65 64  1  0  0  0  0
 66 11  1  0  0  0  0
 67 66  1  0  0  0  0
 10 11  1  0  0  0  0
 11 50  1  0  0  0  0
 11 64  1  0  0  0  0
 48 50  1  0  0  0  0
 48 56  1  0  0  0  0
 50 52  1  0  0  0  0
 50 58  1  0  0  0  0
 52 54  1  0  0  0  0
 52 58  1  0  0  0  0
 54 56  1  0  0  0  0
 54 60  1  0  0  0  0
 56 62  1  0  0  0  0
 56 64  1  0  0  0  0
 58 60  1  0  0  0  0
 58 66  1  0  0  0  0
 60 62  1  0  0  0  0
 60 66  1  0  0  0  0
 62 64  1  0  0  0  0
 62 66  1  0  0  0  0
 64 66  1  0  0  0  0
M  END
$$$$
BOXMUA

From CSD data. Using bond type 'Any'. No disordered atoms. Largest molecule.
104106  0  0  0  0  0  0  0  0999 V2000
    4.1297    3.0462    7.6427 Cl  0  0  0  0  0  0  0  0  0  0  0  0
    2.1015    1.0234    8.7205 Cl  0  0  0  0  0  0  0  0  0  0  0  0
    1.5300    2.7175    6.2820 Cl  0  0  0  0  0  0  0  0  0  0  0  0
    3.4192   -2.5189    3.8430 P   0  0  0  0  0  0  0  0  0  0  0  0
    2.0362   -3.0062    3.8697 O   0  0  0  0  0  0  0  0  0  0  0  0
    3.0177   -0.1780    5.3460 N   0  3  0  0  0  0  0  0  0  0  0  0
    4.5772   -0.1654    6.8471 N   0  0  0  0  0  0  0  0  0  0  0  0
    3.8503   -1.8220    2.4254 N   0  0  0  0  0  0  0  0  0  0  0  0
    3.4990    0.5211    6.3921 C   0  0  0  0  0  0  0  0  0  0  0  0
    3.7834   -1.3194    5.1356 C   0  0  0  0  0  0  0  0  0  0  0  0
    4.7650   -1.3146    6.0878 C   0  0  0  0  0  0  0  0  0  0  0  0
    1.7982    0.1055    4.5506 C   0  0  0  0  0  0  0  0  0  0  0  0
    1.8807   -0.3258    3.6634 H   0  0  0  0  0  0  0  0  0  0  0  0
    1.7213    1.0824    4.4093 H   0  0  0  0  0  0  0  0  0  0  0  0
    0.5313   -0.4029    5.2387 C   0  0  0  0  0  0  0  0  0  0  0  0
    0.5532   -1.3923    5.2851 H   0  0  0  0  0  0  0  0  0  0  0  0
    0.4920   -0.0524    6.1631 H   0  0  0  0  0  0  0  0  0  0  0  0
   -0.7072    0.0461    4.4681 C   0  0  0  0  0  0  0  0  0  0  0  0
   -1.5134   -0.2245    4.9767 H   0  0  0  0  0  0  0  0  0  0  0  0
   -0.7062    1.0349    4.4124 H   0  0  0  0  0  0  0  0  0  0  0  0
   -0.8008   -0.5160    3.0784 C   0  0  0  0  0  0  0  0  0  0  0  0
   -0.0723   -0.1566    2.5306 H   0  0  0  0  0  0  0  0  0  0  0  0
   -1.6618   -0.2652    2.6823 H   0  0  0  0  0  0  0  0  0  0  0  0
   -0.7319   -1.4926    3.1156 H   0  0  0  0  0  0  0  0  0  0  0  0
    2.9466   -1.9226    1.2596 C   0  0  0  0  0  0  0  0  0  0  0  0
    2.0829   -2.3068    1.5537 H   0  0  0  0  0  0  0  0  0  0  0  0
    3.3429   -2.5415    0.5973 H   0  0  0  0  0  0  0  0  0  0  0  0
    2.6895   -0.5805    0.5922 C   0  0  0  0  0  0  0  0  0  0  0  0
    2.1160   -0.7103   -0.1919 H   0  0  0  0  0  0  0  0  0  0  0  0
    3.5413   -0.1860    0.3126 H   0  0  0  0  0  0  0  0  0  0  0  0
    2.2444    0.0195    1.2266 H   0  0  0  0  0  0  0  0  0  0  0  0
    5.2275   -1.3574    2.2129 C   0  0  0  0  0  0  0  0  0  0  0  0
    5.6684   -1.2531    3.0939 H   0  0  0  0  0  0  0  0  0  0  0  0
    5.2009   -0.4661    1.7837 H   0  0  0  0  0  0  0  0  0  0  0  0
    6.0688   -2.2938    1.3515 C   0  0  0  0  0  0  0  0  0  0  0  0
    5.6507   -2.3899    0.4704 H   0  0  0  0  0  0  0  0  0  0  0  0
    6.1260   -3.1713    1.7837 H   0  0  0  0  0  0  0  0  0  0  0  0
    6.9690   -1.9216    1.2473 H   0  0  0  0  0  0  0  0  0  0  0  0
    6.8747    0.9212    7.3649 C   0  0  0  0  0  0  0  0  0  0  0  0
    6.6299    1.8249    7.0431 H   0  0  0  0  0  0  0  0  0  0  0  0
    7.2411    0.4176    6.5953 H   0  0  0  0  0  0  0  0  0  0  0  0
    7.9649    1.0575    8.4275 C   0  0  0  0  0  0  0  0  0  0  0  0
    8.2236    0.1522    8.7339 H   0  0  0  0  0  0  0  0  0  0  0  0
    8.7629    1.4727    8.0128 H   0  0  0  0  0  0  0  0  0  0  0  0
    7.5612    1.8819    9.6356 C   0  0  0  0  0  0  0  0  0  0  0  0
    7.2724    2.7714    9.3426 H   0  0  0  0  0  0  0  0  0  0  0  0
    8.3252    1.9695   10.2422 H   0  0  0  0  0  0  0  0  0  0  0  0
    6.8227    1.4366   10.1029 H   0  0  0  0  0  0  0  0  0  0  0  0
    2.8375    1.7986    7.1813 B   0  5  0  0  0  0  0  0  0  0  0  0
    5.6222    0.2211    7.8560 C   0  0  0  0  0  0  0  0  0  0  0  0
    5.9036   -0.6028    8.3285 H   0  0  0  0  0  0  0  0  0  0  0  0
    5.1915    0.8083    8.5266 H   0  0  0  0  0  0  0  0  0  0  0  0
    5.2915   -8.1410    2.6738 Cl  0  0  0  0  0  0  0  0  0  0  0  0
    7.3197   -6.1182    1.5960 Cl  0  0  0  0  0  0  0  0  0  0  0  0
    7.8912   -7.8123    4.0345 Cl  0  0  0  0  0  0  0  0  0  0  0  0
    6.0020   -2.5759    6.4735 P   0  0  0  0  0  0  0  0  0  0  0  0
    7.3850   -2.0886    6.4468 O   0  0  0  0  0  0  0  0  0  0  0  0
    6.4035   -4.9167    4.9705 N   0  3  0  0  0  0  0  0  0  0  0  0
    4.8440   -4.9294    3.4694 N   0  0  0  0  0  0  0  0  0  0  0  0
    5.5708   -3.2728    7.8911 N   0  0  0  0  0  0  0  0  0  0  0  0
    5.9222   -5.6158    3.9244 C   0  0  0  0  0  0  0  0  0  0  0  0
    5.6378   -3.7753    5.1809 C   0  0  0  0  0  0  0  0  0  0  0  0
    4.6562   -3.7801    4.2287 C   0  0  0  0  0  0  0  0  0  0  0  0
    7.6230   -5.2002    5.7659 C   0  0  0  0  0  0  0  0  0  0  0  0
    7.5405   -4.7690    6.6531 H   0  0  0  0  0  0  0  0  0  0  0  0
    7.6998   -6.1772    5.9072 H   0  0  0  0  0  0  0  0  0  0  0  0
    8.8899   -4.6918    5.0778 C   0  0  0  0  0  0  0  0  0  0  0  0
    8.8680   -3.7025    5.0314 H   0  0  0  0  0  0  0  0  0  0  0  0
    8.9292   -5.0424    4.1534 H   0  0  0  0  0  0  0  0  0  0  0  0
   10.1284   -5.1409    5.8484 C   0  0  0  0  0  0  0  0  0  0  0  0
   10.9346   -4.8703    5.3398 H   0  0  0  0  0  0  0  0  0  0  0  0
   10.1273   -6.1297    5.9041 H   0  0  0  0  0  0  0  0  0  0  0  0
   10.2219   -4.5787    7.2381 C   0  0  0  0  0  0  0  0  0  0  0  0
    9.4935   -4.9381    7.7859 H   0  0  0  0  0  0  0  0  0  0  0  0
   11.0829   -4.8295    7.6342 H   0  0  0  0  0  0  0  0  0  0  0  0
   10.1531   -3.6021    7.2009 H   0  0  0  0  0  0  0  0  0  0  0  0
    6.4746   -3.1722    9.0569 C   0  0  0  0  0  0  0  0  0  0  0  0
    7.3383   -2.7879    8.7628 H   0  0  0  0  0  0  0  0  0  0  0  0
    6.0783   -2.5533    9.7192 H   0  0  0  0  0  0  0  0  0  0  0  0
    6.7316   -4.5142    9.7243 C   0  0  0  0  0  0  0  0  0  0  0  0
    7.3051   -4.3845   10.5084 H   0  0  0  0  0  0  0  0  0  0  0  0
    5.8799   -4.9087   10.0039 H   0  0  0  0  0  0  0  0  0  0  0  0
    7.1768   -5.1142    9.0899 H   0  0  0  0  0  0  0  0  0  0  0  0
    4.1937   -3.7373    8.1036 C   0  0  0  0  0  0  0  0  0  0  0  0
    3.7528   -3.8417    7.2226 H   0  0  0  0  0  0  0  0  0  0  0  0
    4.2203   -4.6286    8.5328 H   0  0  0  0  0  0  0  0  0  0  0  0
    3.3524   -2.8010    8.9650 C   0  0  0  0  0  0  0  0  0  0  0  0
    3.7705   -2.7048    9.8461 H   0  0  0  0  0  0  0  0  0  0  0  0
    3.2952   -1.9234    8.5328 H   0  0  0  0  0  0  0  0  0  0  0  0
    2.4522   -3.1732    9.0692 H   0  0  0  0  0  0  0  0  0  0  0  0
    2.5465   -6.0160    2.9515 C   0  0  0  0  0  0  0  0  0  0  0  0
    2.7913   -6.9197    3.2734 H   0  0  0  0  0  0  0  0  0  0  0  0
    2.1801   -5.5124    3.7212 H   0  0  0  0  0  0  0  0  0  0  0  0
    1.4562   -6.1522    1.8890 C   0  0  0  0  0  0  0  0  0  0  0  0
    1.1976   -5.2470    1.5826 H   0  0  0  0  0  0  0  0  0  0  0  0
    0.6583   -6.5675    2.3037 H   0  0  0  0  0  0  0  0  0  0  0  0
    1.8600   -6.9767    0.6809 C   0  0  0  0  0  0  0  0  0  0  0  0
    2.1488   -7.8661    0.9739 H   0  0  0  0  0  0  0  0  0  0  0  0
    1.0960   -7.0643    0.0743 H   0  0  0  0  0  0  0  0  0  0  0  0
    2.5985   -6.5313    0.2136 H   0  0  0  0  0  0  0  0  0  0  0  0
    6.5837   -6.8933    3.1352 B   0  5  0  0  0  0  0  0  0  0  0  0
    3.7990   -5.3158    2.4605 C   0  0  0  0  0  0  0  0  0  0  0  0
    3.5176   -4.4920    1.9880 H   0  0  0  0  0  0  0  0  0  0  0  0
    4.2297   -5.9031    1.7899 H   0  0  0  0  0  0  0  0  0  0  0  0
  1 49  1  0  0  0  0
  2 49  1  0  0  0  0
  3 49  1  0  0  0  0
  4  5  2  0  0  0  0
  6  9  2  0  0  0  0
  7  9  1  0  0  0  0
  8  4  1  0  0  0  0
  9 49  1  0  0  0  0
 10  4  1  0  0  0  0
 11  7  1  0  0  0  0
 12  6  1  0  0  0  0
 13 12  1  0  0  0  0
 14 12  1  0  0  0  0
 15 12  1  0  0  0  0
 16 15  1  0  0  0  0
 17 15  1  0  0  0  0
 18 15  1  0  0  0  0
 19 18  1  0  0  0  0
 20 18  1  0  0  0  0
 21 18  1  0  0  0  0
 22 21  1  0  0  0  0
 23 21  1  0  0  0  0
 24 21  1  0  0  0  0
 25  8  1  0  0  0  0
 26 25  1  0  0  0  0
 27 25  1  0  0  0  0
 28 25  1  0  0  0  0
 29 28  1  0  0  0  0
 30 28  1  0  0  0  0
 31 28  1  0  0  0  0
 32  8  1  0  0  0  0
 33 32  1  0  0  0  0
 34 32  1  0  0  0  0
 35 32  1  0  0  0  0
 36 35  1  0  0  0  0
 37 35  1  0  0  0  0
 38 35  1  0  0  0  0
 39 40  1  0  0  0  0
 41 39  1  0  0  0  0
 42 39  1  0  0  0  0
 43 42  1  0  0  0  0
 44 42  1  0  0  0  0
 45 42  1  0  0  0  0
 46 45  1  0  0  0  0
 47 45  1  0  0  0  0
 48 45  1  0  0  0  0
 50  7  1  0  0  0  0
 51 50  1  0  0  0  0
 52 50  1  0  0  0  0
 53101  1  0  0  0  0
 54101  1  0  0  0  0
 55101  1  0  0  0  0
 56 11  1  0  0  0  0
 57 56  2  0  0  0  0
 58 61  2  0  0  0  0
 59 61  1  0  0  0  0
 60 56  1  0  0  0  0
 61101  1  0  0  0  0
 62 56  1  0  0  0  0
 63  4  1  0  0  0  0
 64 58  1  0  0  0  0
 65 64  1  0  0  0  0
 66 64  1  0  0  0  0
 67 64  1  0  0  0  0
 68 67  1  0  0  0  0
 69 67  1  0  0  0  0
 70 67  1  0  0  0  0
 71 70  1  0  0  0  0
 72 70  1  0  0  0  0
 73 70  1  0  0  0  0
 74 73  1  0  0  0  0
 75 73  1  0  0  0  0
 76 73  1  0  0  0  0
 77 60  1  0  0  0  0
 78 77  1  0  0  0  0
 79 77  1  0  0  0  0
 80 77  1  0  0  0  0
 81 80  1  0  0  0  0
 82 80  1  0  0  0  0
 83 80  1  0  0  0  0
 84 60  1  0  0  0  0
 85 84  1  0  0  0  0
 86 84  1  0  0  0  0
 87 84  1  0  0  0  0
 88 87  1  0  0  0  0
 89 87  1  0  0  0  0
 90 87  1  0  0  0  0
 91 92  1  0  0  0  0
 93 91  1  0  0  0  0
 94 91  1  0  0  0  0
 95 94  1  0  0  0  0
 96 94  1  0  0  0  0
 97 94  1  0  0  0  0
 98 97  1  0  0  0  0
 99 97  1  0  0  0  0
100 97  1  0  0  0  0
102 59  1  0  0  0  0
103102  1  0  0  0  0
104102  1  0  0  0  0
  6 10  1  0  0  0  0
 10 11  2  0  0  0  0
 39 50  1  0  0  0  0
 58 62  1  0  0  0  0
 59 63  1  0  0  0  0
 62 63  2  0  0  0  0
 91102  1  0  0  0  0
M  CHG  4   6   1  49  -1  58   1 101  -1
M  END
$$$$
BOYMEL

From CSD data. Using bond type 'Any'. No disordered atoms. Largest molecule.
 93116  0  0  0  0  0  0  0  0999 V2000
    4.8452    4.9241   11.4134 Rh  0  0  0  0  0  0  0  0  0  0  0  0
    4.6333    7.1379   12.2680 S   0  0  0  0  0  0  0  0  0  0  0  0
    5.1947    4.6413    9.3583 B   0  0  0  0  0  0  0  0  0  0  0  0
    6.2170    6.9605   11.1679 B   0  0  0  0  0  0  0  0  0  0  0  0
    7.1483    7.1855   11.7490 H   0  0  0  0  0  0  0  0  0  0  0  0
    3.4827    6.8278   10.7389 B   0  0  0  0  0  0  0  0  0  0  0  0
    2.4039    6.9565   11.0100 H   0  0  0  0  0  0  0  0  0  0  0  0
    3.8086    5.6161    9.4051 B   0  0  0  0  0  0  0  0  0  0  0  0
    6.4171    5.7232    9.8361 B   0  0  0  0  0  0  0  0  0  0  0  0
    7.4642    5.3331    9.7600 H   0  0  0  0  0  0  0  0  0  0  0  0
    4.8535    8.1594   10.5849 B   0  0  0  0  0  0  0  0  0  0  0  0
    4.7912    9.2747   10.6687 H   0  0  0  0  0  0  0  0  0  0  0  0
    5.2733    6.1379    8.5022 B   0  0  0  0  0  0  0  0  0  0  0  0
    5.4578    6.1242    7.3965 H   0  0  0  0  0  0  0  0  0  0  0  0
    4.1784    7.3565    9.1945 B   0  0  0  0  0  0  0  0  0  0  0  0
    3.5628    7.9952    8.5100 H   0  0  0  0  0  0  0  0  0  0  0  0
    5.9842    7.4430    9.4733 B   0  0  0  0  0  0  0  0  0  0  0  0
    6.7160    8.1417    8.9917 H   0  0  0  0  0  0  0  0  0  0  0  0
    5.3866    3.3628    8.5352 N   0  0  0  0  0  0  0  0  0  0  0  0
    4.3940    2.4381    8.4749 C   0  0  0  0  0  0  0  0  0  0  0  0
    3.5832    2.5963    8.9449 H   0  0  0  0  0  0  0  0  0  0  0  0
    4.5365    1.2755    7.7495 C   0  0  0  0  0  0  0  0  0  0  0  0
    3.8377    0.6329    7.7300 H   0  0  0  0  0  0  0  0  0  0  0  0
    5.6920    1.0574    7.0553 C   0  0  0  0  0  0  0  0  0  0  0  0
    5.8005    0.2663    6.5424 H   0  0  0  0  0  0  0  0  0  0  0  0
    6.6977    1.9890    7.1099 C   0  0  0  0  0  0  0  0  0  0  0  0
    7.5053    1.8494    6.6302 H   0  0  0  0  0  0  0  0  0  0  0  0
    6.5237    3.1289    7.8646 C   0  0  0  0  0  0  0  0  0  0  0  0
    7.2268    3.7667    7.9094 H   0  0  0  0  0  0  0  0  0  0  0  0
    3.2738    3.5759   12.3699 P   0  0  0  0  0  0  0  0  0  0  0  0
    6.3386    3.6212   12.4485 P   0  0  0  0  0  0  0  0  0  0  0  0
    4.1131    2.2366   13.2925 C   0  0  0  0  0  0  0  0  0  0  0  0
    5.5103    2.2032   13.2547 C   0  0  0  0  0  0  0  0  0  0  0  0
    6.2040    1.1547   13.8668 C   0  0  0  0  0  0  0  0  0  0  0  0
    7.1534    1.1301   13.8376 H   0  0  0  0  0  0  0  0  0  0  0  0
    5.5061    0.1572   14.5123 C   0  0  0  0  0  0  0  0  0  0  0  0
    5.9811   -0.5660   14.9062 H   0  0  0  0  0  0  0  0  0  0  0  0
    4.0971    0.1936   14.5981 C   0  0  0  0  0  0  0  0  0  0  0  0
    3.6204   -0.4884   15.0583 H   0  0  0  0  0  0  0  0  0  0  0  0
    3.4264    1.2402   13.9975 C   0  0  0  0  0  0  0  0  0  0  0  0
    2.4803    1.2844   14.0618 H   0  0  0  0  0  0  0  0  0  0  0  0
    2.1211    4.2531   13.6211 C   0  0  0  0  0  0  0  0  0  0  0  0
    0.9320    3.5918   13.9546 C   0  0  0  0  0  0  0  0  0  0  0  0
    0.6722    2.8194   13.4690 H   0  0  0  0  0  0  0  0  0  0  0  0
    0.1242    4.0576   14.9978 C   0  0  0  0  0  0  0  0  0  0  0  0
   -0.6698    3.5908   15.2318 H   0  0  0  0  0  0  0  0  0  0  0  0
    0.4886    5.2024   15.6843 C   0  0  0  0  0  0  0  0  0  0  0  0
   -0.0648    5.5346   16.3824 H   0  0  0  0  0  0  0  0  0  0  0  0
    1.6603    5.8598   15.3527 C   0  0  0  0  0  0  0  0  0  0  0  0
    1.9067    6.6470   15.8247 H   0  0  0  0  0  0  0  0  0  0  0  0
    2.4729    5.3852   14.3446 C   0  0  0  0  0  0  0  0  0  0  0  0
    3.2833    5.8392   14.1418 H   0  0  0  0  0  0  0  0  0  0  0  0
    2.1622    2.6159   11.2732 C   0  0  0  0  0  0  0  0  0  0  0  0
    2.4642    1.3070   10.9125 C   0  0  0  0  0  0  0  0  0  0  0  0
    3.2374    0.8874   11.2713 H   0  0  0  0  0  0  0  0  0  0  0  0
    1.6384    0.5985   10.0272 C   0  0  0  0  0  0  0  0  0  0  0  0
    1.8507   -0.2958    9.7873 H   0  0  0  0  0  0  0  0  0  0  0  0
    0.5261    1.2028    9.5123 C   0  0  0  0  0  0  0  0  0  0  0  0
   -0.0380    0.7242    8.9156 H   0  0  0  0  0  0  0  0  0  0  0  0
    0.2154    2.5167    9.8556 C   0  0  0  0  0  0  0  0  0  0  0  0
   -0.5548    2.9324    9.4850 H   0  0  0  0  0  0  0  0  0  0  0  0
    1.0270    3.2242   10.7389 C   0  0  0  0  0  0  0  0  0  0  0  0
    0.8060    4.1175   10.9788 H   0  0  0  0  0  0  0  0  0  0  0  0
    7.3168    4.3121   13.8596 C   0  0  0  0  0  0  0  0  0  0  0  0
    6.8078    5.4137   14.5454 C   0  0  0  0  0  0  0  0  0  0  0  0
    6.0230    5.8490   14.2315 H   0  0  0  0  0  0  0  0  0  0  0  0
    7.4468    5.8746   15.6882 C   0  0  0  0  0  0  0  0  0  0  0  0
    7.0957    6.6244   16.1542 H   0  0  0  0  0  0  0  0  0  0  0  0
    8.5816    5.2525   16.1503 C   0  0  0  0  0  0  0  0  0  0  0  0
    9.0099    5.5778   16.9323 H   0  0  0  0  0  0  0  0  0  0  0  0
    9.1081    4.1608   15.4873 C   0  0  0  0  0  0  0  0  0  0  0  0
    9.8957    3.7372   15.8091 H   0  0  0  0  0  0  0  0  0  0  0  0
    8.4681    3.6812   14.3348 C   0  0  0  0  0  0  0  0  0  0  0  0
    8.8195    2.9265   13.8785 H   0  0  0  0  0  0  0  0  0  0  0  0
    7.6030    2.8380   11.4078 C   0  0  0  0  0  0  0  0  0  0  0  0
    7.3322    1.6224   10.7545 C   0  0  0  0  0  0  0  0  0  0  0  0
    6.5146    1.1714   10.9261 H   0  0  0  0  0  0  0  0  0  0  0  0
    8.2415    1.0731    9.8634 C   0  0  0  0  0  0  0  0  0  0  0  0
    8.0482    0.2467    9.4343 H   0  0  0  0  0  0  0  0  0  0  0  0
    9.4341    1.7325    9.5981 C   0  0  0  0  0  0  0  0  0  0  0  0
   10.0554    1.3620    8.9819 H   0  0  0  0  0  0  0  0  0  0  0  0
    9.7210    2.9304   10.2319 C   0  0  0  0  0  0  0  0  0  0  0  0
   10.5425    3.3756   10.0564 H   0  0  0  0  0  0  0  0  0  0  0  0
    8.8119    3.4827   11.1250 C   0  0  0  0  0  0  0  0  0  0  0  0
    9.0132    4.3082   11.5501 H   0  0  0  0  0  0  0  0  0  0  0  0
    2.5099    5.0707    8.8478 O   0  0  0  0  0  0  0  0  0  0  0  0
    2.7406    5.7812    6.5143 O   0  0  0  0  0  0  0  0  0  0  0  0
    1.4688    3.7765    7.0906 O   0  0  0  0  0  0  0  0  0  0  0  0
    1.9406    5.0523    7.4387 S   0  0  0  0  0  0  0  0  0  0  0  0
    0.4142    6.0672    7.7144 C   0  0  0  0  0  0  0  0  0  0  0  0
   -0.1487    6.3099    6.5756 F   0  0  0  0  0  0  0  0  0  0  0  0
   -0.4040    5.4216    8.5100 F   0  0  0  0  0  0  0  0  0  0  0  0
    0.7495    7.2209    8.2867 F   0  0  0  0  0  0  0  0  0  0  0  0
  1  2  1  0  0  0  0
  2  4  1  0  0  0  0
  3  1  1  0  0  0  0
  4  1  1  0  0  0  0
  5  4  1  0  0  0  0
  6  1  1  0  0  0  0
  7  6  1  0  0  0  0
  8  1  1  0  0  0  0
  9  1  1  0  0  0  0
 10  9  1  0  0  0  0
 11  2  1  0  0  0  0
 12 11  1  0  0  0  0
 13  3  1  0  0  0  0
 14 13  1  0  0  0  0
 15  6  1  0  0  0  0
 16 15  1  0  0  0  0
 17  4  1  0  0  0  0
 18 17  1  0  0  0  0
 19  3  1  0  0  0  0
 20 19  4  0  0  0  0
 21 20  1  0  0  0  0
 22 20  4  0  0  0  0
 23 22  1  0  0  0  0
 24 22  4  0  0  0  0
 25 24  1  0  0  0  0
 26 24  4  0  0  0  0
 27 26  1  0  0  0  0
 28 19  4  0  0  0  0
 29 28  1  0  0  0  0
 30  1  1  0  0  0  0
 31  1  1  0  0  0  0
 32 30  1  0  0  0  0
 33 31  1  0  0  0  0
 34 33  4  0  0  0  0
 35 34  1  0  0  0  0
 36 34  4  0  0  0  0
 37 36  1  0  0  0  0
 38 36  4  0  0  0  0
 39 38  1  0  0  0  0
 40 32  4  0  0  0  0
 41 40  1  0  0  0  0
 42 30  1  0  0  0  0
 43 42  4  0  0  0  0
 44 43  1  0  0  0  0
 45 43  4  0  0  0  0
 46 45  1  0  0  0  0
 47 45  4  0  0  0  0
 48 47  1  0  0  0  0
 49 47  4  0  0  0  0
 50 49  1  0  0  0  0
 51 42  4  0  0  0  0
 52 51  1  0  0  0  0
 53 30  1  0  0  0  0
 54 53  4  0  0  0  0
 55 54  1  0  0  0  0
 56 54  4  0  0  0  0
 57 56  1  0  0  0  0
 58 56  4  0  0  0  0
 59 58  1  0  0  0  0
 60 58  4  0  0  0  0
 61 60  1  0  0  0  0
 62 53  4  0  0  0  0
 63 62  1  0  0  0  0
 64 31  1  0  0  0  0
 65 64  4  0  0  0  0
 66 65  1  0  0  0  0
 67 65  4  0  0  0  0
 68 67  1  0  0  0  0
 69 67  4  0  0  0  0
 70 69  1  0  0  0  0
 71 69  4  0  0  0  0
 72 71  1  0  0  0  0
 73 64  4  0  0  0  0
 74 73  1  0  0  0  0
 75 31  1  0  0  0  0
 76 75  4  0  0  0  0
 77 76  1  0  0  0  0
 78 76  4  0  0  0  0
 79 78  1  0  0  0  0
 80 78  4  0  0  0  0
 81 80  1  0  0  0  0
 82 80  4  0  0  0  0
 83 82  1  0  0  0  0
 84 75  4  0  0  0  0
 85 84  1  0  0  0  0
 86  8  1  0  0  0  0
 87 89  2  0  0  0  0
 88 89  2  0  0  0  0
 89 86  1  0  0  0  0
 90 89  1  0  0  0  0
 91 90  1  0  0  0  0
 92 90  1  0  0  0  0
 93 90  1  0  0  0  0
  2  6  1  0  0  0  0
  3  8  1  0  0  0  0
  3  9  1  0  0  0  0
  4  9  1  0  0  0  0
  4 11  1  0  0  0  0
  6  8  1  0  0  0  0
  6 11  1  0  0  0  0
  8 13  1  0  0  0  0
  8 15  1  0  0  0  0
  9 13  1  0  0  0  0
  9 17  1  0  0  0  0
 11 15  1  0  0  0  0
 11 17  1  0  0  0  0
 13 15  1  0  0  0  0
 13 17  1  0  0  0  0
 15 17  1  0  0  0  0
 26 28  4  0  0  0  0
 32 33  4  0  0  0  0
 38 40  4  0  0  0  0
 49 51  4  0  0  0  0
 60 62  4  0  0  0  0
 71 73  4  0  0  0  0
 82 84  4  0  0  0  0
M  END
$$$$
CUFWAF

From CSD data. Using bond type 'Any'. No disordered atoms. Largest molecule.
128140  0  0  0  0  0  0  0  0999 V2000
   11.7972    6.5497    5.1264 P   0  0  0  0  0  0  0  0  0  0  0  0
    8.6731    9.9200    6.4432 F   0  0  0  0  0  0  0  0  0  0  0  0
    7.9263    8.3445   10.8628 F   0  0  0  0  0  0  0  0  0  0  0  0
    9.0355   12.3613    7.3961 F   0  0  0  0  0  0  0  0  0  0  0  0
    8.8654   12.8424   10.0840 F   0  0  0  0  0  0  0  0  0  0  0  0
   10.5390    5.6641    7.6683 O   0  0  0  0  0  0  0  0  0  0  0  0
    8.2714   10.8022   11.7662 F   0  0  0  0  0  0  0  0  0  0  0  0
    8.5358    6.1594    8.8531 C   0  0  0  0  0  0  0  0  0  0  0  0
    9.6427    5.3022    8.6793 C   0  0  0  0  0  0  0  0  0  0  0  0
   11.5978    4.8424    7.3708 C   0  0  0  0  0  0  0  0  0  0  0  0
   13.1219    6.6695    3.8750 C   0  0  0  0  0  0  0  0  0  0  0  0
    7.6402    5.7723    9.8661 C   0  0  0  0  0  0  0  0  0  0  0  0
    6.8814    6.3192   10.0326 H   0  0  0  0  0  0  0  0  0  0  0  0
   12.3361    5.2008    6.2222 C   0  0  0  0  0  0  0  0  0  0  0  0
    9.8733    4.1608    9.4559 C   0  0  0  0  0  0  0  0  0  0  0  0
   11.9547    3.7466    8.1487 C   0  0  0  0  0  0  0  0  0  0  0  0
    8.5794   10.0684    7.7826 C   0  0  0  0  0  0  0  0  0  0  0  0
   13.4928    4.4813    5.9271 C   0  0  0  0  0  0  0  0  0  0  0  0
   14.0195    4.7278    5.1760 H   0  0  0  0  0  0  0  0  0  0  0  0
   11.9829    8.0692    6.1073 C   0  0  0  0  0  0  0  0  0  0  0  0
   13.2380    5.6687    2.9032 C   0  0  0  0  0  0  0  0  0  0  0  0
   12.6787    4.9019    2.9448 H   0  0  0  0  0  0  0  0  0  0  0  0
   13.9529    7.7805    3.8003 C   0  0  0  0  0  0  0  0  0  0  0  0
   13.8896    8.4636    4.4575 H   0  0  0  0  0  0  0  0  0  0  0  0
   13.1104    3.0422    7.7959 C   0  0  0  0  0  0  0  0  0  0  0  0
   13.3683    2.2896    8.3151 H   0  0  0  0  0  0  0  0  0  0  0  0
    8.3083    8.9581    8.5886 C   0  0  0  0  0  0  0  0  0  0  0  0
    7.8122    4.6300   10.6333 C   0  0  0  0  0  0  0  0  0  0  0  0
    7.1705    4.3934   11.2927 H   0  0  0  0  0  0  0  0  0  0  0  0
   11.1256    3.3054    9.3375 C   0  0  0  0  0  0  0  0  0  0  0  0
    8.9233    3.8423   10.4292 C   0  0  0  0  0  0  0  0  0  0  0  0
    9.0464    3.0655   10.9620 H   0  0  0  0  0  0  0  0  0  0  0  0
   14.1660    5.7918    1.8799 C   0  0  0  0  0  0  0  0  0  0  0  0
   14.2415    5.1078    1.2251 H   0  0  0  0  0  0  0  0  0  0  0  0
   11.4627    9.2807    5.6581 C   0  0  0  0  0  0  0  0  0  0  0  0
   10.9391    9.3065    4.8658 H   0  0  0  0  0  0  0  0  0  0  0  0
   12.7469    8.0542    7.2730 C   0  0  0  0  0  0  0  0  0  0  0  0
   13.1056    7.2343    7.5916 H   0  0  0  0  0  0  0  0  0  0  0  0
    8.7696   11.3479    8.2516 C   0  0  0  0  0  0  0  0  0  0  0  0
    8.2056    9.2884    9.9369 C   0  0  0  0  0  0  0  0  0  0  0  0
    8.6795   11.6016    9.5997 C   0  0  0  0  0  0  0  0  0  0  0  0
   13.8851    3.4081    6.7175 C   0  0  0  0  0  0  0  0  0  0  0  0
   14.6812    2.9307    6.5158 H   0  0  0  0  0  0  0  0  0  0  0  0
   14.9841    6.9090    1.8087 C   0  0  0  0  0  0  0  0  0  0  0  0
   15.6153    6.9951    1.1039 H   0  0  0  0  0  0  0  0  0  0  0  0
   11.7073   10.4527    6.3658 C   0  0  0  0  0  0  0  0  0  0  0  0
   11.3458   11.2756    6.0583 H   0  0  0  0  0  0  0  0  0  0  0  0
   14.8752    7.8970    2.7699 C   0  0  0  0  0  0  0  0  0  0  0  0
   15.4365    8.6621    2.7245 H   0  0  0  0  0  0  0  0  0  0  0  0
    8.3841   10.5645   10.4459 C   0  0  0  0  0  0  0  0  0  0  0  0
   12.9866    9.2285    7.9710 C   0  0  0  0  0  0  0  0  0  0  0  0
   13.5063    9.2098    8.7663 H   0  0  0  0  0  0  0  0  0  0  0  0
   11.9646    3.4454   10.6263 C   0  0  0  0  0  0  0  0  0  0  0  0
   12.2207    4.3834   10.7494 H   0  0  0  0  0  0  0  0  0  0  0  0
   12.7716    2.8939   10.5524 H   0  0  0  0  0  0  0  0  0  0  0  0
   11.4350    3.1477   11.3951 H   0  0  0  0  0  0  0  0  0  0  0  0
   12.4726   10.4241    7.5120 C   0  0  0  0  0  0  0  0  0  0  0  0
   12.6461   11.2286    7.9866 H   0  0  0  0  0  0  0  0  0  0  0  0
    8.2560    7.4608    7.9082 B   0  0  0  0  0  0  0  0  0  0  0  0
    8.9345    7.4452    7.1738 H   0  0  0  0  0  0  0  0  0  0  0  0
   10.7402    1.8246    9.1481 C   0  0  0  0  0  0  0  0  0  0  0  0
   10.2170    1.5223    9.9200 H   0  0  0  0  0  0  0  0  0  0  0  0
   11.5536    1.2828    9.0731 H   0  0  0  0  0  0  0  0  0  0  0  0
   10.2062    1.7275    8.3329 H   0  0  0  0  0  0  0  0  0  0  0  0
    6.4503    7.1988    7.0581 P   0  0  0  0  0  0  0  0  0  0  0  0
    9.5744    3.8285    5.7413 F   0  0  0  0  0  0  0  0  0  0  0  0
   10.3213    5.4041    1.3217 F   0  0  0  0  0  0  0  0  0  0  0  0
    9.2121    1.3872    4.7884 F   0  0  0  0  0  0  0  0  0  0  0  0
    9.3822    0.9061    2.1005 F   0  0  0  0  0  0  0  0  0  0  0  0
    7.7086    8.0845    4.5162 O   0  0  0  0  0  0  0  0  0  0  0  0
    9.9762    2.9463    0.4183 F   0  0  0  0  0  0  0  0  0  0  0  0
    9.7118    7.5892    3.3314 C   0  0  0  0  0  0  0  0  0  0  0  0
    8.6049    8.4464    3.5052 C   0  0  0  0  0  0  0  0  0  0  0  0
    6.6498    8.9061    4.8137 C   0  0  0  0  0  0  0  0  0  0  0  0
    5.1256    7.0790    8.3095 C   0  0  0  0  0  0  0  0  0  0  0  0
   10.6074    7.9762    2.3183 C   0  0  0  0  0  0  0  0  0  0  0  0
   11.3661    7.4293    2.1519 H   0  0  0  0  0  0  0  0  0  0  0  0
    5.9114    8.5477    5.9622 C   0  0  0  0  0  0  0  0  0  0  0  0
    8.3743    9.5877    2.7286 C   0  0  0  0  0  0  0  0  0  0  0  0
    6.2929   10.0019    4.0357 C   0  0  0  0  0  0  0  0  0  0  0  0
    9.6682    3.6801    4.4019 C   0  0  0  0  0  0  0  0  0  0  0  0
    4.7548    9.2673    6.2573 C   0  0  0  0  0  0  0  0  0  0  0  0
    4.2280    9.0208    7.0085 H   0  0  0  0  0  0  0  0  0  0  0  0
    6.2646    5.6793    6.0771 C   0  0  0  0  0  0  0  0  0  0  0  0
    5.0096    8.0798    9.2813 C   0  0  0  0  0  0  0  0  0  0  0  0
    5.5689    8.8466    9.2397 H   0  0  0  0  0  0  0  0  0  0  0  0
    4.2946    5.9680    8.3841 C   0  0  0  0  0  0  0  0  0  0  0  0
    4.3580    5.2849    7.7270 H   0  0  0  0  0  0  0  0  0  0  0  0
    5.1372   10.7063    4.3886 C   0  0  0  0  0  0  0  0  0  0  0  0
    4.8792   11.4590    3.8694 H   0  0  0  0  0  0  0  0  0  0  0  0
    9.9393    4.7905    3.5959 C   0  0  0  0  0  0  0  0  0  0  0  0
   10.4354    9.1185    1.5512 C   0  0  0  0  0  0  0  0  0  0  0  0
   11.0771    9.3551    0.8918 H   0  0  0  0  0  0  0  0  0  0  0  0
    7.1220   10.4431    2.8470 C   0  0  0  0  0  0  0  0  0  0  0  0
    9.3243    9.9062    1.7553 C   0  0  0  0  0  0  0  0  0  0  0  0
    9.2011   10.6830    1.2224 H   0  0  0  0  0  0  0  0  0  0  0  0
    4.0816    7.9567   10.3045 C   0  0  0  0  0  0  0  0  0  0  0  0
    4.0060    8.6407   10.9593 H   0  0  0  0  0  0  0  0  0  0  0  0
    6.7849    4.4678    6.5264 C   0  0  0  0  0  0  0  0  0  0  0  0
    7.3085    4.4421    7.3187 H   0  0  0  0  0  0  0  0  0  0  0  0
    5.5007    5.6943    4.9114 C   0  0  0  0  0  0  0  0  0  0  0  0
    5.1420    6.5142    4.5929 H   0  0  0  0  0  0  0  0  0  0  0  0
    9.4779    2.4006    3.9329 C   0  0  0  0  0  0  0  0  0  0  0  0
   10.0419    4.4601    2.2475 C   0  0  0  0  0  0  0  0  0  0  0  0
    9.5681    2.1469    2.5848 C   0  0  0  0  0  0  0  0  0  0  0  0
    4.3625   10.3404    5.4669 C   0  0  0  0  0  0  0  0  0  0  0  0
    3.5664   10.8179    5.6686 H   0  0  0  0  0  0  0  0  0  0  0  0
    3.2635    6.8396   10.3758 C   0  0  0  0  0  0  0  0  0  0  0  0
    2.6323    6.7535   11.0806 H   0  0  0  0  0  0  0  0  0  0  0  0
    6.5403    3.2959    5.8187 C   0  0  0  0  0  0  0  0  0  0  0  0
    6.9018    2.4729    6.1262 H   0  0  0  0  0  0  0  0  0  0  0  0
    3.3724    5.8515    9.4146 C   0  0  0  0  0  0  0  0  0  0  0  0
    2.8110    5.0864    9.4600 H   0  0  0  0  0  0  0  0  0  0  0  0
    9.8635    3.1841    1.7386 C   0  0  0  0  0  0  0  0  0  0  0  0
    5.2610    4.5200    4.2135 C   0  0  0  0  0  0  0  0  0  0  0  0
    4.7412    4.5388    3.4182 H   0  0  0  0  0  0  0  0  0  0  0  0
    6.2829   10.3031    1.5582 C   0  0  0  0  0  0  0  0  0  0  0  0
    6.0269    9.3651    1.4351 H   0  0  0  0  0  0  0  0  0  0  0  0
    5.4760   10.8546    1.6321 H   0  0  0  0  0  0  0  0  0  0  0  0
    6.8125   10.6008    0.7893 H   0  0  0  0  0  0  0  0  0  0  0  0
    5.7750    3.3244    4.6725 C   0  0  0  0  0  0  0  0  0  0  0  0
    5.6014    2.5200    4.1978 H   0  0  0  0  0  0  0  0  0  0  0  0
    9.9915    6.2877    4.2763 B   0  0  0  0  0  0  0  0  0  0  0  0
    9.3130    6.3033    5.0107 H   0  0  0  0  0  0  0  0  0  0  0  0
    7.5074   11.9239    3.0364 C   0  0  0  0  0  0  0  0  0  0  0  0
    8.0305   12.2262    2.2645 H   0  0  0  0  0  0  0  0  0  0  0  0
    6.6940   12.4658    3.1114 H   0  0  0  0  0  0  0  0  0  0  0  0
    8.0413   12.0211    3.8516 H   0  0  0  0  0  0  0  0  0  0  0  0
  1 11  1  0  0  0  0
  2 17  1  0  0  0  0
  3 40  1  0  0  0  0
  4 39  1  0  0  0  0
  5 41  1  0  0  0  0
  6  9  1  0  0  0  0
  7 50  1  0  0  0  0
  8  9  4  0  0  0  0
  9 15  4  0  0  0  0
 10  6  1  0  0  0  0
 11 21  4  0  0  0  0
 12  8  4  0  0  0  0
 13 12  1  0  0  0  0
 14  1  1  0  0  0  0
 15 30  1  0  0  0  0
 16 10  4  0  0  0  0
 17 27  4  0  0  0  0
 18 14  4  0  0  0  0
 19 18  1  0  0  0  0
 20  1  1  0  0  0  0
 21 22  1  0  0  0  0
 23 11  4  0  0  0  0
 24 23  1  0  0  0  0
 25 16  4  0  0  0  0
 26 25  1  0  0  0  0
 27 40  4  0  0  0  0
 28 12  4  0  0  0  0
 29 28  1  0  0  0  0
 30 16  1  0  0  0  0
 31 15  4  0  0  0  0
 32 31  1  0  0  0  0
 33 21  4  0  0  0  0
 34 33  1  0  0  0  0
 35 20  4  0  0  0  0
 36 35  1  0  0  0  0
 37 20  4  0  0  0  0
 38 37  1  0  0  0  0
 39 17  4  0  0  0  0
 40 50  4  0  0  0  0
 41 39  4  0  0  0  0
 42 18  4  0  0  0  0
 43 42  1  0  0  0  0
 44 33  4  0  0  0  0
 45 44  1  0  0  0  0
 46 35  4  0  0  0  0
 47 46  1  0  0  0  0
 48 23  4  0  0  0  0
 49 48  1  0  0  0  0
 50 41  4  0  0  0  0
 51 37  4  0  0  0  0
 52 51  1  0  0  0  0
 53 30  1  0  0  0  0
 54 53  1  0  0  0  0
 55 53  1  0  0  0  0
 56 53  1  0  0  0  0
 57 46  4  0  0  0  0
 58 57  1  0  0  0  0
 59  8  1  0  0  0  0
 60 59  1  0  0  0  0
 61 30  1  0  0  0  0
 62 61  1  0  0  0  0
 63 61  1  0  0  0  0
 64 61  1  0  0  0  0
 65 59  1  0  0  0  0
 66 81  1  0  0  0  0
 67104  1  0  0  0  0
 68103  1  0  0  0  0
 69105  1  0  0  0  0
 70 73  1  0  0  0  0
 71114  1  0  0  0  0
 72 73  4  0  0  0  0
 73 79  4  0  0  0  0
 74 70  1  0  0  0  0
 75 65  1  0  0  0  0
 76 72  4  0  0  0  0
 77 76  1  0  0  0  0
 78 65  1  0  0  0  0
 79 94  1  0  0  0  0
 80 74  4  0  0  0  0
 81 91  4  0  0  0  0
 82 78  4  0  0  0  0
 83 82  1  0  0  0  0
 84 65  1  0  0  0  0
 85 75  4  0  0  0  0
 86 85  1  0  0  0  0
 87 75  4  0  0  0  0
 88 87  1  0  0  0  0
 89 80  4  0  0  0  0
 90 89  1  0  0  0  0
 91104  4  0  0  0  0
 92 76  4  0  0  0  0
 93 92  1  0  0  0  0
 94 80  1  0  0  0  0
 95 79  4  0  0  0  0
 96 95  1  0  0  0  0
 97 85  4  0  0  0  0
 98 97  1  0  0  0  0
 99 84  4  0  0  0  0
100 99  1  0  0  0  0
101 84  4  0  0  0  0
102101  1  0  0  0  0
103 81  4  0  0  0  0
104114  4  0  0  0  0
105103  4  0  0  0  0
106 82  4  0  0  0  0
107106  1  0  0  0  0
108 97  4  0  0  0  0
109108  1  0  0  0  0
110 99  4  0  0  0  0
111110  1  0  0  0  0
112 87  4  0  0  0  0
113112  1  0  0  0  0
114105  4  0  0  0  0
115101  4  0  0  0  0
116115  1  0  0  0  0
117 94  1  0  0  0  0
118117  1  0  0  0  0
119117  1  0  0  0  0
120117  1  0  0  0  0
121110  4  0  0  0  0
122121  1  0  0  0  0
123  1  1  0  0  0  0
124123  1  0  0  0  0
125 94  1  0  0  0  0
126125  1  0  0  0  0
127125  1  0  0  0  0
128125  1  0  0  0  0
 10 14  4  0  0  0  0
 25 42  4  0  0  0  0
 27 59  1  0  0  0  0
 28 31  4  0  0  0  0
 44 48  4  0  0  0  0
 51 57  4  0  0  0  0
 72123  1  0  0  0  0
 74 78  4  0  0  0  0
 89106  4  0  0  0  0
 91123  1  0  0  0  0
 92 95  4  0  0  0  0
108112  4  0  0  0  0
115121  4  0  0  0  0
M  END
$$$$
CUGGIY

From CSD data. Using bond type 'Any'. No disordered atoms. Largest molecule.
132151  0  0  0  0  0  0  0  0999 V2000
    8.4661   18.9388   11.9911 P   0  0  0  0  0  0  0  0  0  0  0  0
    5.7630   14.5090   18.2030 P   0  0  0  0  0  0  0  0  0  0  0  0
    6.5361   16.9022   11.1019 O   0  0  0  0  0  0  0  0  0  0  0  0
    6.4899   17.0234   16.9105 O   0  0  0  0  0  0  0  0  0  0  0  0
    4.0014   15.4680   15.7042 F   0  0  0  0  0  0  0  0  0  0  0  0
    9.0109   15.6276   12.4010 F   0  0  0  0  0  0  0  0  0  0  0  0
    3.2823   19.5346   13.4250 F   0  0  0  0  0  0  0  0  0  0  0  0
    1.9852   16.0394   17.3573 F   0  0  0  0  0  0  0  0  0  0  0  0
    1.2681   20.1210   15.1056 F   0  0  0  0  0  0  0  0  0  0  0  0
   11.2734   14.8238   11.2510 F   0  0  0  0  0  0  0  0  0  0  0  0
    7.6506   20.5717   12.0983 C   0  0  0  0  0  0  0  0  0  0  0  0
    8.1549   18.4365   10.2613 C   0  0  0  0  0  0  0  0  0  0  0  0
    8.5372   17.4395   15.8030 C   0  0  0  0  0  0  0  0  0  0  0  0
   11.0312   15.2174   16.6475 F   0  0  0  0  0  0  0  0  0  0  0  0
    5.7116   17.2899   18.0307 C   0  0  0  0  0  0  0  0  0  0  0  0
   13.4229   14.1209   12.7637 F   0  0  0  0  0  0  0  0  0  0  0  0
    0.5668   18.3622   17.0607 F   0  0  0  0  0  0  0  0  0  0  0  0
    7.1845   17.4718   10.0077 C   0  0  0  0  0  0  0  0  0  0  0  0
    7.4961   17.9508   16.5710 C   0  0  0  0  0  0  0  0  0  0  0  0
    7.4623   21.4161   11.0070 C   0  0  0  0  0  0  0  0  0  0  0  0
    7.7941   21.1648   10.1529 H   0  0  0  0  0  0  0  0  0  0  0  0
    5.1715   16.1717   18.6946 C   0  0  0  0  0  0  0  0  0  0  0  0
   10.2490   19.3319   11.9233 C   0  0  0  0  0  0  0  0  0  0  0  0
    5.1833   16.5243   10.8983 C   0  0  0  0  0  0  0  0  0  0  0  0
    7.1791   14.2811   19.3326 C   0  0  0  0  0  0  0  0  0  0  0  0
    5.4822   18.5986   18.4401 C   0  0  0  0  0  0  0  0  0  0  0  0
    4.3548   16.6382   12.0108 C   0  0  0  0  0  0  0  0  0  0  0  0
    4.7920   16.0853    9.6367 C   0  0  0  0  0  0  0  0  0  0  0  0
    8.8230   19.0102    9.1754 C   0  0  0  0  0  0  0  0  0  0  0  0
    9.5123   19.6459    9.3265 H   0  0  0  0  0  0  0  0  0  0  0  0
    9.5568   18.3468   15.4958 C   0  0  0  0  0  0  0  0  0  0  0  0
   10.2935   18.0530   14.9722 H   0  0  0  0  0  0  0  0  0  0  0  0
    6.7947   22.6202   11.1589 C   0  0  0  0  0  0  0  0  0  0  0  0
    6.6600   23.1835   10.4058 H   0  0  0  0  0  0  0  0  0  0  0  0
    8.4516   20.1228   16.6681 C   0  0  0  0  0  0  0  0  0  0  0  0
    8.4345   21.0289   16.9535 H   0  0  0  0  0  0  0  0  0  0  0  0
    7.3913   19.2774   16.9982 C   0  0  0  0  0  0  0  0  0  0  0  0
    3.7196   17.4782   14.4806 C   0  0  0  0  0  0  0  0  0  0  0  0
   13.2912   14.3663   15.4578 F   0  0  0  0  0  0  0  0  0  0  0  0
    7.1646   20.9681   13.3375 C   0  0  0  0  0  0  0  0  0  0  0  0
    7.2705   20.3980   14.0900 H   0  0  0  0  0  0  0  0  0  0  0  0
   11.1271   18.3389   11.4796 C   0  0  0  0  0  0  0  0  0  0  0  0
   10.7861   17.4995   11.1934 H   0  0  0  0  0  0  0  0  0  0  0  0
    3.3293   16.6459   15.5080 C   0  0  0  0  0  0  0  0  0  0  0  0
    6.8402   17.0821    8.7091 C   0  0  0  0  0  0  0  0  0  0  0  0
    4.4848   13.3962   18.9028 C   0  0  0  0  0  0  0  0  0  0  0  0
   10.7634   20.5439   12.3481 C   0  0  0  0  0  0  0  0  0  0  0  0
   10.1787   21.2244   12.6600 H   0  0  0  0  0  0  0  0  0  0  0  0
    9.5252   19.6612   15.9333 C   0  0  0  0  0  0  0  0  0  0  0  0
   10.2439   20.2466   15.7265 H   0  0  0  0  0  0  0  0  0  0  0  0
    6.3243   23.0061   12.3928 C   0  0  0  0  0  0  0  0  0  0  0  0
    5.8619   23.8305   12.4888 H   0  0  0  0  0  0  0  0  0  0  0  0
    9.9104   15.4438   14.5900 C   0  0  0  0  0  0  0  0  0  0  0  0
    3.0234   16.2499   11.7964 C   0  0  0  0  0  0  0  0  0  0  0  0
    2.4066   16.2971   12.5173 H   0  0  0  0  0  0  0  0  0  0  0  0
    4.2805   16.4072   19.7442 C   0  0  0  0  0  0  0  0  0  0  0  0
    3.8772   15.6755   20.1959 H   0  0  0  0  0  0  0  0  0  0  0  0
    7.5099   17.7085    7.6576 C   0  0  0  0  0  0  0  0  0  0  0  0
    7.2873   17.4754    6.7639 H   0  0  0  0  0  0  0  0  0  0  0  0
    8.4836   18.6560    7.8812 C   0  0  0  0  0  0  0  0  0  0  0  0
    8.9238   19.0667    7.1462 H   0  0  0  0  0  0  0  0  0  0  0  0
    3.4478   15.7268    9.4937 C   0  0  0  0  0  0  0  0  0  0  0  0
    3.1281   15.4303    8.6499 H   0  0  0  0  0  0  0  0  0  0  0  0
    6.1353   19.7706   17.7150 C   0  0  0  0  0  0  0  0  0  0  0  0
   12.4941   18.5735   11.4548 C   0  0  0  0  0  0  0  0  0  0  0  0
   13.0852   17.8947   11.1502 H   0  0  0  0  0  0  0  0  0  0  0  0
    2.9749   18.6336   14.3885 C   0  0  0  0  0  0  0  0  0  0  0  0
    8.1978   13.4360   18.9177 C   0  0  0  0  0  0  0  0  0  0  0  0
    8.1588   13.0226   18.0632 H   0  0  0  0  0  0  0  0  0  0  0  0
   10.0541   15.3236   13.2157 C   0  0  0  0  0  0  0  0  0  0  0  0
    7.2583   14.8788   20.5851 C   0  0  0  0  0  0  0  0  0  0  0  0
    6.5658   15.4597   20.8765 H   0  0  0  0  0  0  0  0  0  0  0  0
    4.6014   18.7709   19.5168 C   0  0  0  0  0  0  0  0  0  0  0  0
    4.4253   19.6491   19.8333 H   0  0  0  0  0  0  0  0  0  0  0  0
    6.5229   22.2000   13.4844 C   0  0  0  0  0  0  0  0  0  0  0  0
    6.2237   22.4797   14.3416 H   0  0  0  0  0  0  0  0  0  0  0  0
   12.9999   19.7857   11.8702 C   0  0  0  0  0  0  0  0  0  0  0  0
   13.9356   19.9456   11.8478 H   0  0  0  0  0  0  0  0  0  0  0  0
    4.5453   12.8422   20.1716 C   0  0  0  0  0  0  0  0  0  0  0  0
    5.2767   13.0425   20.7442 H   0  0  0  0  0  0  0  0  0  0  0  0
   12.1386   20.7685   12.3193 C   0  0  0  0  0  0  0  0  0  0  0  0
   12.4867   21.6032   12.6106 H   0  0  0  0  0  0  0  0  0  0  0  0
    3.9852   17.7035   20.1283 C   0  0  0  0  0  0  0  0  0  0  0  0
    3.3514   17.8575   20.8193 H   0  0  0  0  0  0  0  0  0  0  0  0
    2.5847   15.7992   10.5618 C   0  0  0  0  0  0  0  0  0  0  0  0
    1.6776   15.5376   10.4519 H   0  0  0  0  0  0  0  0  0  0  0  0
    4.9111   17.1427   13.4467 B   0  5  0  0  0  0  0  0  0  0  0  0
    5.8135   15.9836    8.5120 C   0  0  0  0  0  0  0  0  0  0  0  0
    2.2924   16.9092   16.3732 C   0  0  0  0  0  0  0  0  0  0  0  0
    3.5277   11.9880   20.6062 C   0  0  0  0  0  0  0  0  0  0  0  0
    3.5741   11.6154   21.4790 H   0  0  0  0  0  0  0  0  0  0  0  0
    8.3450   14.6310   21.4118 C   0  0  0  0  0  0  0  0  0  0  0  0
    8.3901   15.0398   22.2681 H   0  0  0  0  0  0  0  0  0  0  0  0
    3.4129   13.0702   18.0973 C   0  0  0  0  0  0  0  0  0  0  0  0
    3.3629   13.4336   17.2209 H   0  0  0  0  0  0  0  0  0  0  0  0
    8.5371   15.8964   15.3037 B   0  5  0  0  0  0  0  0  0  0  0  0
    6.4526   20.9082   18.6879 C   0  0  0  0  0  0  0  0  0  0  0  0
    6.8750   21.6463   18.2007 H   0  0  0  0  0  0  0  0  0  0  0  0
    7.0632   20.5833   19.3822 H   0  0  0  0  0  0  0  0  0  0  0  0
    5.6231   21.2234   19.1036 H   0  0  0  0  0  0  0  0  0  0  0  0
    9.3491   13.8040   21.0019 C   0  0  0  0  0  0  0  0  0  0  0  0
   10.0955   13.6444   21.5677 H   0  0  0  0  0  0  0  0  0  0  0  0
    9.2783   13.1984   19.7622 C   0  0  0  0  0  0  0  0  0  0  0  0
    9.9739   12.6143   19.4835 H   0  0  0  0  0  0  0  0  0  0  0  0
    5.1566   20.2900   16.6429 C   0  0  0  0  0  0  0  0  0  0  0  0
    4.3008   20.5168   17.0639 H   0  0  0  0  0  0  0  0  0  0  0  0
    5.0134   19.5953   15.9667 H   0  0  0  0  0  0  0  0  0  0  0  0
    5.5321   21.0884   16.2165 H   0  0  0  0  0  0  0  0  0  0  0  0
    2.4788   11.6815   19.8091 C   0  0  0  0  0  0  0  0  0  0  0  0
    1.7968   11.0976   20.1192 H   0  0  0  0  0  0  0  0  0  0  0  0
    1.9316   18.9657   15.2268 C   0  0  0  0  0  0  0  0  0  0  0  0
    1.5832   18.0738   16.2347 C   0  0  0  0  0  0  0  0  0  0  0  0
   12.2893   14.5677   13.3344 C   0  0  0  0  0  0  0  0  0  0  0  0
   11.0575   15.1358   15.2989 C   0  0  0  0  0  0  0  0  0  0  0  0
    2.4071   12.2244   18.5389 C   0  0  0  0  0  0  0  0  0  0  0  0
    1.6729   12.0187   17.9720 H   0  0  0  0  0  0  0  0  0  0  0  0
   11.2081   14.9014   12.5885 C   0  0  0  0  0  0  0  0  0  0  0  0
   12.2427   14.6968   14.7022 C   0  0  0  0  0  0  0  0  0  0  0  0
    5.1494   16.1095    7.1288 C   0  0  0  0  0  0  0  0  0  0  0  0
    4.5116   15.3767    7.0041 H   0  0  0  0  0  0  0  0  0  0  0  0
    5.8366   16.0679    6.4315 H   0  0  0  0  0  0  0  0  0  0  0  0
    4.6771   16.9671    7.0703 H   0  0  0  0  0  0  0  0  0  0  0  0
    6.5445   14.6477    8.6396 C   0  0  0  0  0  0  0  0  0  0  0  0
    6.9702   14.5907    9.5196 H   0  0  0  0  0  0  0  0  0  0  0  0
    7.2284   14.5820    7.9402 H   0  0  0  0  0  0  0  0  0  0  0  0
    5.9030   13.9135    8.5381 H   0  0  0  0  0  0  0  0  0  0  0  0
    7.2225   16.9956   13.0512 Li  0  3  0  0  0  0  0  0  0  0  0  0
    6.2420   15.2867   15.7744 Li  0  3  0  0  0  0  0  0  0  0  0  0
    5.6166   18.0873   13.3609 H   0  0  0  0  0  0  0  0  0  0  0  0
    7.6555   15.7614   14.5700 H   0  0  0  0  0  0  0  0  0  0  0  0
    5.6087   16.3062   13.8849 H   0  0  0  0  0  0  0  0  0  0  0  0
    8.2502   15.1986   16.1566 H   0  0  0  0  0  0  0  0  0  0  0  0
  1 11  1  0  0  0  0
  2 22  1  0  0  0  0
  3 18  1  0  0  0  0
  4 15  1  0  0  0  0
  5 44  1  0  0  0  0
  6 70  1  0  0  0  0
  7 67  1  0  0  0  0
  8 89  1  0  0  0  0
  9111  1  0  0  0  0
 10117  1  0  0  0  0
 11 20  4  0  0  0  0
 12  1  1  0  0  0  0
 13 19  4  0  0  0  0
 14114  1  0  0  0  0
 15 22  4  0  0  0  0
 16113  1  0  0  0  0
 17112  1  0  0  0  0
 18 12  4  0  0  0  0
 19  4  1  0  0  0  0
 20 21  1  0  0  0  0
 22 56  4  0  0  0  0
 23  1  1  0  0  0  0
 24  3  1  0  0  0  0
 25  2  1  0  0  0  0
 26 15  4  0  0  0  0
 27 24  4  0  0  0  0
 28 24  4  0  0  0  0
 29 12  4  0  0  0  0
 30 29  1  0  0  0  0
 31 13  4  0  0  0  0
 32 31  1  0  0  0  0
 33 20  4  0  0  0  0
 34 33  1  0  0  0  0
 35 36  1  0  0  0  0
 37 19  4  0  0  0  0
 38 44  4  0  0  0  0
 39118  1  0  0  0  0
 40 11  4  0  0  0  0
 41 40  1  0  0  0  0
 42 23  4  0  0  0  0
 43 42  1  0  0  0  0
 44 89  4  0  0  0  0
 45 18  4  0  0  0  0
 46  2  1  0  0  0  0
 47 23  4  0  0  0  0
 48 47  1  0  0  0  0
 49 31  4  0  0  0  0
 50 49  1  0  0  0  0
 51 33  4  0  0  0  0
 52 51  1  0  0  0  0
 53 70  4  0  0  0  0
 54 27  4  0  0  0  0
 55 54  1  0  0  0  0
 56 57  1  0  0  0  0
 58 45  4  0  0  0  0
 59 58  1  0  0  0  0
 60 29  4  0  0  0  0
 61 60  1  0  0  0  0
 62 28  4  0  0  0  0
 63 62  1  0  0  0  0
 64 26  1  0  0  0  0
 65 42  4  0  0  0  0
 66 65  1  0  0  0  0
 67 38  4  0  0  0  0
 68 25  4  0  0  0  0
 69 68  1  0  0  0  0
 70117  4  0  0  0  0
 71 25  4  0  0  0  0
 72 71  1  0  0  0  0
 73 26  4  0  0  0  0
 74 73  1  0  0  0  0
 75 40  4  0  0  0  0
 76 75  1  0  0  0  0
 77 65  4  0  0  0  0
 78 77  1  0  0  0  0
 79 46  4  0  0  0  0
 80 79  1  0  0  0  0
 81 47  4  0  0  0  0
 82 81  1  0  0  0  0
 83 56  4  0  0  0  0
 84 83  1  0  0  0  0
 85 54  4  0  0  0  0
 86 85  1  0  0  0  0
 87 27  1  0  0  0  0
 88 28  1  0  0  0  0
 89112  4  0  0  0  0
 90 79  4  0  0  0  0
 91 90  1  0  0  0  0
 92 71  4  0  0  0  0
 93 92  1  0  0  0  0
 94 46  4  0  0  0  0
 95 94  1  0  0  0  0
 96 13  1  0  0  0  0
 97 64  1  0  0  0  0
 98 97  1  0  0  0  0
 99 97  1  0  0  0  0
100 97  1  0  0  0  0
101 92  4  0  0  0  0
102101  1  0  0  0  0
103 68  4  0  0  0  0
104103  1  0  0  0  0
105 64  1  0  0  0  0
106105  1  0  0  0  0
107105  1  0  0  0  0
108105  1  0  0  0  0
109 90  4  0  0  0  0
110109  1  0  0  0  0
111 67  4  0  0  0  0
112111  4  0  0  0  0
113117  4  0  0  0  0
114 53  4  0  0  0  0
115 94  4  0  0  0  0
116115  1  0  0  0  0
118113  4  0  0  0  0
119 88  1  0  0  0  0
120119  1  0  0  0  0
121119  1  0  0  0  0
122119  1  0  0  0  0
123 88  1  0  0  0  0
124123  1  0  0  0  0
125123  1  0  0  0  0
126123  1  0  0  0  0
127  1  1  0  0  0  0
128  2  1  0  0  0  0
129 87  1  0  0  0  0
130 96  1  0  0  0  0
131 87  1  0  0  0  0
132 96  1  0  0  0  0
  3127  1  0  0  0  0
  4128  1  0  0  0  0
  5128  1  0  0  0  0
  6127  1  0  0  0  0
 35 37  4  0  0  0  0
 35 49  4  0  0  0  0
 37 64  1  0  0  0  0
 38 87  1  0  0  0  0
 45 88  1  0  0  0  0
 51 75  4  0  0  0  0
 53 96  1  0  0  0  0
 58 60  4  0  0  0  0
 62 85  4  0  0  0  0
 73 83  4  0  0  0  0
 77 81  4  0  0  0  0
101103  4  0  0  0  0
109115  4  0  0  0  0
114118  4  0  0  0  0
127129  1  0  0  0  0
127130  1  0  0  0  0
127131  1  0  0  0  0
128130  1  0  0  0  0
128132  1  0  0  0  0
M  CHG  4  87  -1  96  -1 127   1 128   1
M  END
$$$$
CUGGUK

From CSD data. Using bond type 'Any'. Matching problem. No disordered atoms. Largest molecule.
132150  0  0  0  0  0  0  0  0999 V2000
   15.3947    3.3844   15.7397 P   0  0  0  0  0  0  0  0  0  0  0  0
   12.3969   10.9330   13.9605 P   0  0  0  0  0  0  0  0  0  0  0  0
   12.2443    8.7337   18.2454 Cl  0  0  0  0  0  0  0  0  0  0  0  0
   11.8803    4.0954   15.4742 Cl  0  0  0  0  0  0  0  0  0  0  0  0
   15.5039    3.8422   10.5199 Cl  0  0  0  0  0  0  0  0  0  0  0  0
   13.7915    8.9152   11.3601 Cl  0  0  0  0  0  0  0  0  0  0  0  0
   10.5366    7.5193   20.4869 Cl  0  0  0  0  0  0  0  0  0  0  0  0
   10.2553    2.8801   17.7753 Cl  0  0  0  0  0  0  0  0  0  0  0  0
    9.4907    4.6058   20.2546 Cl  0  0  0  0  0  0  0  0  0  0  0  0
   12.9561    6.5399    6.6351 Cl  0  0  0  0  0  0  0  0  0  0  0  0
   12.6798    8.9922    8.5024 Cl  0  0  0  0  0  0  0  0  0  0  0  0
   14.4564    3.9968    7.6308 Cl  0  0  0  0  0  0  0  0  0  0  0  0
   14.6493    9.3105   14.7769 O   0  0  0  0  0  0  0  0  0  0  0  0
   17.1533    5.1116   14.2284 O   0  0  0  0  0  0  0  0  0  0  0  0
   17.9332    4.2839   15.0263 C   0  0  0  0  0  0  0  0  0  0  0  0
   14.5899    6.3613   10.9004 C   0  0  0  0  0  0  0  0  0  0  0  0
   15.2668    8.5062   15.7582 C   0  0  0  0  0  0  0  0  0  0  0  0
   15.0359   10.6441   14.7322 C   0  0  0  0  0  0  0  0  0  0  0  0
   12.0688    6.3894   16.9190 C   0  0  0  0  0  0  0  0  0  0  0  0
   17.2298    3.3865   15.8346 C   0  0  0  0  0  0  0  0  0  0  0  0
   14.0672   11.5699   14.3295 C   0  0  0  0  0  0  0  0  0  0  0  0
   16.3345   11.0099   15.0709 C   0  0  0  0  0  0  0  0  0  0  0  0
   14.4860    7.4768   16.2977 C   0  0  0  0  0  0  0  0  0  0  0  0
   11.6723   12.2028   12.8601 C   0  0  0  0  0  0  0  0  0  0  0  0
   14.9681    2.6053   17.3462 C   0  0  0  0  0  0  0  0  0  0  0  0
   16.5836    8.7933   16.1147 C   0  0  0  0  0  0  0  0  0  0  0  0
   17.7639    5.8205   13.1723 C   0  0  0  0  0  0  0  0  0  0  0  0
   14.7133    5.2922   10.0029 C   0  0  0  0  0  0  0  0  0  0  0  0
   16.8695    6.4015   12.2656 C   0  0  0  0  0  0  0  0  0  0  0  0
   17.3378    9.9002   15.3712 C   0  0  0  0  0  0  0  0  0  0  0  0
   15.0252    2.0754   14.5040 C   0  0  0  0  0  0  0  0  0  0  0  0
   19.1493    5.9307   13.0935 C   0  0  0  0  0  0  0  0  0  0  0  0
   19.3252    4.3438   15.0063 C   0  0  0  0  0  0  0  0  0  0  0  0
   15.1251    6.7176   17.2915 C   0  0  0  0  0  0  0  0  0  0  0  0
   14.6502    6.0016   17.6971 H   0  0  0  0  0  0  0  0  0  0  0  0
   13.9603    7.4894   10.3785 C   0  0  0  0  0  0  0  0  0  0  0  0
   11.5687    5.0861   16.8652 C   0  0  0  0  0  0  0  0  0  0  0  0
   11.5519   11.2049   15.5604 C   0  0  0  0  0  0  0  0  0  0  0  0
   17.9555    2.5655   16.7014 C   0  0  0  0  0  0  0  0  0  0  0  0
   17.5009    1.9516   17.2657 H   0  0  0  0  0  0  0  0  0  0  0  0
   15.3539    3.2544   18.5160 C   0  0  0  0  0  0  0  0  0  0  0  0
   15.8109    4.0858   18.4613 H   0  0  0  0  0  0  0  0  0  0  0  0
   11.7061    7.1016   18.0686 C   0  0  0  0  0  0  0  0  0  0  0  0
   14.0768    2.3388   13.5223 C   0  0  0  0  0  0  0  0  0  0  0  0
   13.6481    3.1861   13.4976 H   0  0  0  0  0  0  0  0  0  0  0  0
   17.4494    7.1640   11.2489 C   0  0  0  0  0  0  0  0  0  0  0  0
   16.8863    7.5780   10.6059 H   0  0  0  0  0  0  0  0  0  0  0  0
   20.0059    3.5102   15.8966 C   0  0  0  0  0  0  0  0  0  0  0  0
   20.9548    3.5408   15.9209 H   0  0  0  0  0  0  0  0  0  0  0  0
   16.6589   12.3593   15.0156 C   0  0  0  0  0  0  0  0  0  0  0  0
   17.5363   12.6395   15.2499 H   0  0  0  0  0  0  0  0  0  0  0  0
   11.1919   13.4404   13.2911 C   0  0  0  0  0  0  0  0  0  0  0  0
   11.2523   13.6775   14.2090 H   0  0  0  0  0  0  0  0  0  0  0  0
   10.9187    6.5816   19.1013 C   0  0  0  0  0  0  0  0  0  0  0  0
   17.1541    7.9991   17.1102 C   0  0  0  0  0  0  0  0  0  0  0  0
   18.0497    8.1601   17.3848 H   0  0  0  0  0  0  0  0  0  0  0  0
   19.3449    2.6454   16.7401 C   0  0  0  0  0  0  0  0  0  0  0  0
   19.8366    2.1044   17.3470 H   0  0  0  0  0  0  0  0  0  0  0  0
   19.6579    6.7152   12.0513 C   0  0  0  0  0  0  0  0  0  0  0  0
   20.5976    6.8206   11.9647 H   0  0  0  0  0  0  0  0  0  0  0  0
   20.0971    5.2566   14.0731 C   0  0  0  0  0  0  0  0  0  0  0  0
   12.1635   11.7277   16.6950 C   0  0  0  0  0  0  0  0  0  0  0  0
   13.0738   11.9942   16.6529 H   0  0  0  0  0  0  0  0  0  0  0  0
   14.4374   12.9133   14.2742 C   0  0  0  0  0  0  0  0  0  0  0  0
   13.8045   13.5650   13.9953 H   0  0  0  0  0  0  0  0  0  0  0  0
   14.2341    5.3340    8.6916 C   0  0  0  0  0  0  0  0  0  0  0  0
   13.7498    1.3764   12.5792 C   0  0  0  0  0  0  0  0  0  0  0  0
   13.0951    1.5657   11.9180 H   0  0  0  0  0  0  0  0  0  0  0  0
   13.4532    7.5658    9.0732 C   0  0  0  0  0  0  0  0  0  0  0  0
   17.8350    9.3510   14.0242 C   0  0  0  0  0  0  0  0  0  0  0  0
   17.0723    9.0220   13.5043 H   0  0  0  0  0  0  0  0  0  0  0  0
   18.4640    8.6171   14.1827 H   0  0  0  0  0  0  0  0  0  0  0  0
   18.2851   10.0658   13.5267 H   0  0  0  0  0  0  0  0  0  0  0  0
   14.2978    1.3907   17.4559 C   0  0  0  0  0  0  0  0  0  0  0  0
   14.0147    0.9389   16.6699 H   0  0  0  0  0  0  0  0  0  0  0  0
   15.7199   13.3055   14.6228 C   0  0  0  0  0  0  0  0  0  0  0  0
   15.9584   14.2246   14.5931 H   0  0  0  0  0  0  0  0  0  0  0  0
   11.5605   11.8727   11.5166 C   0  0  0  0  0  0  0  0  0  0  0  0
   11.8839   11.0340   11.2075 H   0  0  0  0  0  0  0  0  0  0  0  0
   10.4640    5.2791   18.9913 C   0  0  0  0  0  0  0  0  0  0  0  0
   10.7884    4.5222   17.8865 C   0  0  0  0  0  0  0  0  0  0  0  0
   16.4277    6.9766   17.7029 C   0  0  0  0  0  0  0  0  0  0  0  0
   16.8200    6.4525   18.3911 H   0  0  0  0  0  0  0  0  0  0  0  0
   10.6259   14.3268   12.3826 C   0  0  0  0  0  0  0  0  0  0  0  0
   10.3128   15.1730   12.6803 H   0  0  0  0  0  0  0  0  0  0  0  0
   14.3737    0.1453   12.5967 C   0  0  0  0  0  0  0  0  0  0  0  0
   14.1512   -0.5113   11.9468 H   0  0  0  0  0  0  0  0  0  0  0  0
   15.0819    2.7042   19.7616 C   0  0  0  0  0  0  0  0  0  0  0  0
   15.3439    3.1624   20.5513 H   0  0  0  0  0  0  0  0  0  0  0  0
   20.8350    6.3401   14.8898 C   0  0  0  0  0  0  0  0  0  0  0  0
   21.4785    5.9120   15.4930 H   0  0  0  0  0  0  0  0  0  0  0  0
   20.1858    6.8521   15.4149 H   0  0  0  0  0  0  0  0  0  0  0  0
   21.3101    6.9417   14.2796 H   0  0  0  0  0  0  0  0  0  0  0  0
   15.6459    0.8266   14.5119 C   0  0  0  0  0  0  0  0  0  0  0  0
   16.2980    0.6289   15.1739 H   0  0  0  0  0  0  0  0  0  0  0  0
   18.8219    7.3357   11.1486 C   0  0  0  0  0  0  0  0  0  0  0  0
   19.1857    7.8800   10.4598 H   0  0  0  0  0  0  0  0  0  0  0  0
   13.5818    6.4744    8.2402 C   0  0  0  0  0  0  0  0  0  0  0  0
   15.3196   -0.1269   13.5630 C   0  0  0  0  0  0  0  0  0  0  0  0
   15.7493   -0.9744   13.5773 H   0  0  0  0  0  0  0  0  0  0  0  0
   18.5330   10.4102   16.1733 C   0  0  0  0  0  0  0  0  0  0  0  0
   18.9806   11.1255   15.6739 H   0  0  0  0  0  0  0  0  0  0  0  0
   19.1629    9.6752   16.3255 H   0  0  0  0  0  0  0  0  0  0  0  0
   18.2236   10.7591   17.0354 H   0  0  0  0  0  0  0  0  0  0  0  0
   21.1265    4.4013   13.2882 C   0  0  0  0  0  0  0  0  0  0  0  0
   21.5913    4.9665   12.6359 H   0  0  0  0  0  0  0  0  0  0  0  0
   20.6613    3.6772   12.8201 H   0  0  0  0  0  0  0  0  0  0  0  0
   21.7789    4.0204   13.9129 H   0  0  0  0  0  0  0  0  0  0  0  0
   10.5192   13.9865   11.0591 C   0  0  0  0  0  0  0  0  0  0  0  0
   10.1294   14.5948   10.4422 H   0  0  0  0  0  0  0  0  0  0  0  0
   11.4644   11.8681   17.8918 C   0  0  0  0  0  0  0  0  0  0  0  0
   11.9053   12.2016   18.6643 H   0  0  0  0  0  0  0  0  0  0  0  0
   14.4297    1.4883   19.8526 C   0  0  0  0  0  0  0  0  0  0  0  0
   14.2517    1.1051   20.7037 H   0  0  0  0  0  0  0  0  0  0  0  0
   10.2214   10.8099   15.6549 C   0  0  0  0  0  0  0  0  0  0  0  0
    9.7920   10.4036   14.9107 H   0  0  0  0  0  0  0  0  0  0  0  0
   12.9857    7.1063   15.7811 B   0  0  0  0  0  0  0  0  0  0  0  0
   15.2552    6.2535   12.3832 B   0  5  0  0  0  0  0  0  0  0  0  0
   14.0389    0.8316   18.7019 C   0  0  0  0  0  0  0  0  0  0  0  0
   13.5904   -0.0042   18.7621 H   0  0  0  0  0  0  0  0  0  0  0  0
   10.1314   11.5208   17.9518 C   0  0  0  0  0  0  0  0  0  0  0  0
    9.6445   11.6369   18.7596 H   0  0  0  0  0  0  0  0  0  0  0  0
    9.5129   11.0108   16.8507 C   0  0  0  0  0  0  0  0  0  0  0  0
    8.5899   10.7878   16.8932 H   0  0  0  0  0  0  0  0  0  0  0  0
   10.9800   12.7600   10.6232 C   0  0  0  0  0  0  0  0  0  0  0  0
   10.8978   12.5225    9.7069 H   0  0  0  0  0  0  0  0  0  0  0  0
   13.1636    8.3850   13.7336 Li  0  3  0  0  0  0  0  0  0  0  0  0
   15.1320    5.7339   14.6808 Li  0  0  0  0  0  0  0  0  0  0  0  0
   14.9474    5.2952   12.8389 H   0  0  0  0  0  0  0  0  0  0  0  0
   12.4654    8.0076   15.4416 H   0  0  0  0  0  0  0  0  0  0  0  0
   13.1039    6.4750   14.8399 H   0  0  0  0  0  0  0  0  0  0  0  0
   14.8924    7.0854   13.0776 H   0  0  0  0  0  0  0  0  0  0  0  0
  1 20  1  0  0  0  0
  2 21  1  0  0  0  0
  3 43  1  0  0  0  0
  4 37  1  0  0  0  0
  5 28  1  0  0  0  0
  6 36  1  0  0  0  0
  7 54  1  0  0  0  0
  8 81  1  0  0  0  0
  9 80  1  0  0  0  0
 10 98  1  0  0  0  0
 11 69  1  0  0  0  0
 12 66  1  0  0  0  0
 13 17  1  0  0  0  0
 14 15  1  0  0  0  0
 15 20  4  0  0  0  0
 16 28  4  0  0  0  0
 17 23  4  0  0  0  0
 18 13  1  0  0  0  0
 19 37  4  0  0  0  0
 20 39  4  0  0  0  0
 21 18  4  0  0  0  0
 22 18  4  0  0  0  0
 23 34  4  0  0  0  0
 24  2  1  0  0  0  0
 25  1  1  0  0  0  0
 26 17  4  0  0  0  0
 27 14  1  0  0  0  0
 28 66  4  0  0  0  0
 29 27  4  0  0  0  0
 30 22  1  0  0  0  0
 31  1  1  0  0  0  0
 32 27  4  0  0  0  0
 33 15  4  0  0  0  0
 34 35  1  0  0  0  0
 36 16  4  0  0  0  0
 37 81  4  0  0  0  0
 38  2  1  0  0  0  0
 39 40  1  0  0  0  0
 41 25  4  0  0  0  0
 42 41  1  0  0  0  0
 43 19  4  0  0  0  0
 44 31  4  0  0  0  0
 45 44  1  0  0  0  0
 46 29  4  0  0  0  0
 47 46  1  0  0  0  0
 48 33  4  0  0  0  0
 49 48  1  0  0  0  0
 50 22  4  0  0  0  0
 51 50  1  0  0  0  0
 52 24  4  0  0  0  0
 53 52  1  0  0  0  0
 54 43  4  0  0  0  0
 55 26  4  0  0  0  0
 56 55  1  0  0  0  0
 57 39  4  0  0  0  0
 58 57  1  0  0  0  0
 59 32  4  0  0  0  0
 60 59  1  0  0  0  0
 61 32  1  0  0  0  0
 62 38  4  0  0  0  0
 63 62  1  0  0  0  0
 64 21  4  0  0  0  0
 65 64  1  0  0  0  0
 66 98  4  0  0  0  0
 67 44  4  0  0  0  0
 68 67  1  0  0  0  0
 69 36  4  0  0  0  0
 70 30  1  0  0  0  0
 71 70  1  0  0  0  0
 72 70  1  0  0  0  0
 73 70  1  0  0  0  0
 74 25  4  0  0  0  0
 75 74  1  0  0  0  0
 76 50  4  0  0  0  0
 77 76  1  0  0  0  0
 78 24  4  0  0  0  0
 79 78  1  0  0  0  0
 80 54  4  0  0  0  0
 81 80  4  0  0  0  0
 82 34  4  0  0  0  0
 83 82  1  0  0  0  0
 84 52  4  0  0  0  0
 85 84  1  0  0  0  0
 86 67  4  0  0  0  0
 87 86  1  0  0  0  0
 88 41  4  0  0  0  0
 89 88  1  0  0  0  0
 90 61  1  0  0  0  0
 91 90  1  0  0  0  0
 92 90  1  0  0  0  0
 93 90  1  0  0  0  0
 94 31  4  0  0  0  0
 95 94  1  0  0  0  0
 96 46  4  0  0  0  0
 97 96  1  0  0  0  0
 98 69  4  0  0  0  0
 99 86  4  0  0  0  0
100 99  1  0  0  0  0
101 30  1  0  0  0  0
102101  1  0  0  0  0
103101  1  0  0  0  0
104101  1  0  0  0  0
105 61  1  0  0  0  0
106105  1  0  0  0  0
107105  1  0  0  0  0
108105  1  0  0  0  0
109 84  4  0  0  0  0
110109  1  0  0  0  0
111 62  4  0  0  0  0
112111  1  0  0  0  0
113 88  4  0  0  0  0
114113  1  0  0  0  0
115 38  4  0  0  0  0
116115  1  0  0  0  0
117 19  1  0  0  0  0
118 16  1  0  0  0  0
119 74  4  0  0  0  0
120119  1  0  0  0  0
121111  4  0  0  0  0
122121  1  0  0  0  0
123115  4  0  0  0  0
124123  1  0  0  0  0
125 78  4  0  0  0  0
126125  1  0  0  0  0
127  2  1  0  0  0  0
128  1  1  0  0  0  0
129118  1  0  0  0  0
130117  1  0  0  0  0
131117  1  0  0  0  0
132118  1  0  0  0  0
  6127  1  0  0  0  0
 13127  1  0  0  0  0
 14128  1  0  0  0  0
 23117  1  0  0  0  0
 23128  1  0  0  0  0
 26 30  1  0  0  0  0
 29118  1  0  0  0  0
 33 61  1  0  0  0  0
 48 57  4  0  0  0  0
 55 82  4  0  0  0  0
 59 96  4  0  0  0  0
 64 76  4  0  0  0  0
 94 99  4  0  0  0  0
109125  4  0  0  0  0
113119  4  0  0  0  0
121123  4  0  0  0  0
127130  1  0  0  0  0
128129  1  0  0  0  0
128131  1  0  0  0  0
128132  1  0  0  0  0
M  CHG  2 118  -1 127   1
M  END
$$$$
CUGHOF

From CSD data. Using bond type 'Any'. No disordered atoms. Largest molecule.
124132  0  0  0  0  0  0  0  0999 V2000
    4.2249    1.6205    4.3210 P   0  0  0  0  0  0  0  0  0  0  0  0
    2.4782    5.6874    2.8593 F   0  0  0  0  0  0  0  0  0  0  0  0
    2.9334    8.6070    6.5927 F   0  0  0  0  0  0  0  0  0  0  0  0
    3.9392    3.5710    6.6906 O   0  0  0  0  0  0  0  0  0  0  0  0
    3.3708    7.6108    1.2912 F   0  0  0  0  0  0  0  0  0  0  0  0
    3.7534   10.5003    4.9885 F   0  0  0  0  0  0  0  0  0  0  0  0
    4.0255   10.0584    2.3121 F   0  0  0  0  0  0  0  0  0  0  0  0
    2.7418    5.5618    7.2517 C   0  0  0  0  0  0  0  0  0  0  0  0
    4.8883    1.5069    6.0136 C   0  0  0  0  0  0  0  0  0  0  0  0
    4.6653    2.4561    7.0365 C   0  0  0  0  0  0  0  0  0  0  0  0
    3.5790    4.5053    7.6729 C   0  0  0  0  0  0  0  0  0  0  0  0
    2.3641    6.4617    8.2581 C   0  0  0  0  0  0  0  0  0  0  0  0
    1.7806    7.1751    8.0280 H   0  0  0  0  0  0  0  0  0  0  0  0
    2.7789    6.8607    3.4597 C   0  0  0  0  0  0  0  0  0  0  0  0
    5.1698    2.2567    8.3227 C   0  0  0  0  0  0  0  0  0  0  0  0
    4.0314    4.3718    8.9875 C   0  0  0  0  0  0  0  0  0  0  0  0
    2.6425    7.0013    4.8414 C   0  0  0  0  0  0  0  0  0  0  0  0
    5.5979    0.3487    6.3408 C   0  0  0  0  0  0  0  0  0  0  0  0
    5.7311   -0.3157    5.6749 H   0  0  0  0  0  0  0  0  0  0  0  0
    5.1877    0.4653    3.2404 C   0  0  0  0  0  0  0  0  0  0  0  0
    4.9064    0.7003    2.3101 H   0  0  0  0  0  0  0  0  0  0  0  0
    4.9291    3.2356    9.4583 C   0  0  0  0  0  0  0  0  0  0  0  0
    2.7967    6.3655    9.5693 C   0  0  0  0  0  0  0  0  0  0  0  0
    2.5193    7.0033   10.2164 H   0  0  0  0  0  0  0  0  0  0  0  0
    4.5636    3.3127    3.6668 C   0  0  0  0  0  0  0  0  0  0  0  0
    3.8040    3.8816    3.9817 H   0  0  0  0  0  0  0  0  0  0  0  0
    2.9997    8.2766    5.2836 C   0  0  0  0  0  0  0  0  0  0  0  0
    3.6360    5.3306    9.9223 C   0  0  0  0  0  0  0  0  0  0  0  0
    3.9504    5.2686   10.8166 H   0  0  0  0  0  0  0  0  0  0  0  0
    6.1117    0.1438    7.6088 C   0  0  0  0  0  0  0  0  0  0  0  0
    6.6051   -0.6437    7.8063 H   0  0  0  0  0  0  0  0  0  0  0  0
    5.8993    1.0951    8.5811 C   0  0  0  0  0  0  0  0  0  0  0  0
    6.2584    0.9575    9.4497 H   0  0  0  0  0  0  0  0  0  0  0  0
    4.5282    3.3839    2.1299 C   0  0  0  0  0  0  0  0  0  0  0  0
    5.3016    2.9069    1.7630 H   0  0  0  0  0  0  0  0  0  0  0  0
    4.5573    4.3212    1.8457 H   0  0  0  0  0  0  0  0  0  0  0  0
    3.7029    2.9687    1.8028 H   0  0  0  0  0  0  0  0  0  0  0  0
    4.8340   -1.0287    3.3846 C   0  0  0  0  0  0  0  0  0  0  0  0
    5.4605   -1.4542    4.0065 H   0  0  0  0  0  0  0  0  0  0  0  0
    4.8955   -1.4648    2.5093 H   0  0  0  0  0  0  0  0  0  0  0  0
    3.9209   -1.1162    3.7299 H   0  0  0  0  0  0  0  0  0  0  0  0
    3.2395    7.8492    2.6062 C   0  0  0  0  0  0  0  0  0  0  0  0
    3.4434    9.2971    4.4644 C   0  0  0  0  0  0  0  0  0  0  0  0
    6.7092    0.6774    3.2468 C   0  0  0  0  0  0  0  0  0  0  0  0
    6.9096    1.6119    3.0297 H   0  0  0  0  0  0  0  0  0  0  0  0
    7.1236    0.0910    2.5801 H   0  0  0  0  0  0  0  0  0  0  0  0
    7.0648    0.4650    4.1350 H   0  0  0  0  0  0  0  0  0  0  0  0
    5.8317    3.9772    4.2096 C   0  0  0  0  0  0  0  0  0  0  0  0
    5.9401    3.7493    5.1566 H   0  0  0  0  0  0  0  0  0  0  0  0
    5.7574    4.9497    4.1142 H   0  0  0  0  0  0  0  0  0  0  0  0
    6.6092    3.6579    3.7057 H   0  0  0  0  0  0  0  0  0  0  0  0
    3.5755    9.0831    3.1147 C   0  0  0  0  0  0  0  0  0  0  0  0
    6.2760    3.8051    9.9410 C   0  0  0  0  0  0  0  0  0  0  0  0
    6.8609    3.0695   10.2189 H   0  0  0  0  0  0  0  0  0  0  0  0
    6.1235    4.4059   10.7000 H   0  0  0  0  0  0  0  0  0  0  0  0
    6.7009    4.3023    9.2111 H   0  0  0  0  0  0  0  0  0  0  0  0
    2.1765    5.7084    5.7413 B   0  0  0  0  0  0  0  0  0  0  0  0
    4.2361    2.4872   10.6154 C   0  0  0  0  0  0  0  0  0  0  0  0
    3.3796    2.1263   10.3045 H   0  0  0  0  0  0  0  0  0  0  0  0
    4.0790    3.1073   11.3579 H   0  0  0  0  0  0  0  0  0  0  0  0
    4.8092    1.7525   10.9190 H   0  0  0  0  0  0  0  0  0  0  0  0
    2.3565    4.7864    5.1478 H   0  0  0  0  0  0  0  0  0  0  0  0
    0.1992    5.4895    5.7649 P   0  0  0  0  0  0  0  0  0  0  0  0
    1.9458    1.4226    7.2265 F   0  0  0  0  0  0  0  0  0  0  0  0
    1.4907   -1.4971    3.4931 F   0  0  0  0  0  0  0  0  0  0  0  0
    0.4848    3.5389    3.3953 O   0  0  0  0  0  0  0  0  0  0  0  0
    1.0532   -0.5008    8.7947 F   0  0  0  0  0  0  0  0  0  0  0  0
    0.6707   -3.3903    5.0974 F   0  0  0  0  0  0  0  0  0  0  0  0
    0.3986   -2.9485    7.7738 F   0  0  0  0  0  0  0  0  0  0  0  0
    1.6822    1.5481    2.8341 C   0  0  0  0  0  0  0  0  0  0  0  0
   -0.4643    5.6031    4.0723 C   0  0  0  0  0  0  0  0  0  0  0  0
   -0.2412    4.6539    3.0494 C   0  0  0  0  0  0  0  0  0  0  0  0
    0.8451    2.6047    2.4129 C   0  0  0  0  0  0  0  0  0  0  0  0
    2.0600    0.6483    1.8278 C   0  0  0  0  0  0  0  0  0  0  0  0
    2.6435   -0.0651    2.0579 H   0  0  0  0  0  0  0  0  0  0  0  0
    1.6451    0.2493    6.6262 C   0  0  0  0  0  0  0  0  0  0  0  0
   -0.7457    4.8533    1.7632 C   0  0  0  0  0  0  0  0  0  0  0  0
    0.3926    2.7382    1.0984 C   0  0  0  0  0  0  0  0  0  0  0  0
    1.7816    0.1086    5.2445 C   0  0  0  0  0  0  0  0  0  0  0  0
   -1.1739    6.7613    3.7451 C   0  0  0  0  0  0  0  0  0  0  0  0
   -1.3070    7.4257    4.4110 H   0  0  0  0  0  0  0  0  0  0  0  0
   -0.7637    6.6447    6.8455 C   0  0  0  0  0  0  0  0  0  0  0  0
   -0.4824    6.4097    7.7758 H   0  0  0  0  0  0  0  0  0  0  0  0
   -0.5050    3.8744    0.6275 C   0  0  0  0  0  0  0  0  0  0  0  0
    1.6274    0.7444    0.5166 C   0  0  0  0  0  0  0  0  0  0  0  0
    1.9048    0.1066   -0.1306 H   0  0  0  0  0  0  0  0  0  0  0  0
   -0.1395    3.7973    6.4191 C   0  0  0  0  0  0  0  0  0  0  0  0
    0.6201    3.2283    6.1041 H   0  0  0  0  0  0  0  0  0  0  0  0
    1.4244   -1.1666    4.8023 C   0  0  0  0  0  0  0  0  0  0  0  0
    0.7881    1.7793    0.1636 C   0  0  0  0  0  0  0  0  0  0  0  0
    0.4737    1.8413   -0.7307 H   0  0  0  0  0  0  0  0  0  0  0  0
   -1.6877    6.9662    2.4771 C   0  0  0  0  0  0  0  0  0  0  0  0
   -2.1811    7.7536    2.2796 H   0  0  0  0  0  0  0  0  0  0  0  0
   -1.4753    6.0149    1.5048 C   0  0  0  0  0  0  0  0  0  0  0  0
   -1.8343    6.1525    0.6362 H   0  0  0  0  0  0  0  0  0  0  0  0
   -0.1041    3.7260    7.9559 C   0  0  0  0  0  0  0  0  0  0  0  0
   -0.8775    4.2030    8.3229 H   0  0  0  0  0  0  0  0  0  0  0  0
   -0.1332    2.7887    8.2402 H   0  0  0  0  0  0  0  0  0  0  0  0
    0.7211    4.1413    8.2831 H   0  0  0  0  0  0  0  0  0  0  0  0
   -0.4099    8.1386    6.7013 C   0  0  0  0  0  0  0  0  0  0  0  0
   -1.0365    8.5641    6.0794 H   0  0  0  0  0  0  0  0  0  0  0  0
   -0.4714    8.5748    7.5766 H   0  0  0  0  0  0  0  0  0  0  0  0
    0.5031    8.2262    6.3560 H   0  0  0  0  0  0  0  0  0  0  0  0
    1.1846   -0.7393    7.4797 C   0  0  0  0  0  0  0  0  0  0  0  0
    0.9807   -2.1872    5.6215 C   0  0  0  0  0  0  0  0  0  0  0  0
   -2.2852    6.4325    6.8390 C   0  0  0  0  0  0  0  0  0  0  0  0
   -2.4855    5.4981    7.0562 H   0  0  0  0  0  0  0  0  0  0  0  0
   -2.6995    7.0190    7.5058 H   0  0  0  0  0  0  0  0  0  0  0  0
   -2.6408    6.6450    5.9509 H   0  0  0  0  0  0  0  0  0  0  0  0
   -1.4077    3.1328    5.8762 C   0  0  0  0  0  0  0  0  0  0  0  0
   -1.5161    3.3607    4.9292 H   0  0  0  0  0  0  0  0  0  0  0  0
   -1.3333    2.1603    5.9717 H   0  0  0  0  0  0  0  0  0  0  0  0
   -2.1851    3.4521    6.3801 H   0  0  0  0  0  0  0  0  0  0  0  0
    0.8485   -1.9732    6.9712 C   0  0  0  0  0  0  0  0  0  0  0  0
   -1.8520    3.3048    0.1448 C   0  0  0  0  0  0  0  0  0  0  0  0
   -2.4368    4.0404   -0.1331 H   0  0  0  0  0  0  0  0  0  0  0  0
   -1.6994    2.7040   -0.6141 H   0  0  0  0  0  0  0  0  0  0  0  0
   -2.2768    2.8077    0.8748 H   0  0  0  0  0  0  0  0  0  0  0  0
    2.2476    1.4015    4.3446 B   0  0  0  0  0  0  0  0  0  0  0  0
    0.1879    4.6227   -0.5295 C   0  0  0  0  0  0  0  0  0  0  0  0
    1.0444    4.9837   -0.2187 H   0  0  0  0  0  0  0  0  0  0  0  0
    0.3450    4.0027   -1.2720 H   0  0  0  0  0  0  0  0  0  0  0  0
   -0.3852    5.3574   -0.8332 H   0  0  0  0  0  0  0  0  0  0  0  0
    2.0675    2.3235    4.9380 H   0  0  0  0  0  0  0  0  0  0  0  0
  1  9  1  0  0  0  0
  2 14  1  0  0  0  0
  3 27  1  0  0  0  0
  4 10  1  0  0  0  0
  5 42  1  0  0  0  0
  6 43  1  0  0  0  0
  7 52  1  0  0  0  0
  8 11  4  0  0  0  0
  9 10  4  0  0  0  0
 10 15  4  0  0  0  0
 11  4  1  0  0  0  0
 12  8  4  0  0  0  0
 13 12  1  0  0  0  0
 14 17  4  0  0  0  0
 15 22  1  0  0  0  0
 16 11  4  0  0  0  0
 17 27  4  0  0  0  0
 18  9  4  0  0  0  0
 19 18  1  0  0  0  0
 20  1  1  0  0  0  0
 21 20  1  0  0  0  0
 22 16  1  0  0  0  0
 23 12  4  0  0  0  0
 24 23  1  0  0  0  0
 25  1  1  0  0  0  0
 26 25  1  0  0  0  0
 27 43  4  0  0  0  0
 28 16  4  0  0  0  0
 29 28  1  0  0  0  0
 30 18  4  0  0  0  0
 31 30  1  0  0  0  0
 32 15  4  0  0  0  0
 33 32  1  0  0  0  0
 34 25  1  0  0  0  0
 35 34  1  0  0  0  0
 36 34  1  0  0  0  0
 37 34  1  0  0  0  0
 38 20  1  0  0  0  0
 39 38  1  0  0  0  0
 40 38  1  0  0  0  0
 41 38  1  0  0  0  0
 42 14  4  0  0  0  0
 43 52  4  0  0  0  0
 44 20  1  0  0  0  0
 45 44  1  0  0  0  0
 46 44  1  0  0  0  0
 47 44  1  0  0  0  0
 48 25  1  0  0  0  0
 49 48  1  0  0  0  0
 50 48  1  0  0  0  0
 51 48  1  0  0  0  0
 52 42  4  0  0  0  0
 53 22  1  0  0  0  0
 54 53  1  0  0  0  0
 55 53  1  0  0  0  0
 56 53  1  0  0  0  0
 57  8  1  0  0  0  0
 58 22  1  0  0  0  0
 59 58  1  0  0  0  0
 60 58  1  0  0  0  0
 61 58  1  0  0  0  0
 62 57  1  0  0  0  0
 63 57  1  0  0  0  0
 64 76  1  0  0  0  0
 65 89  1  0  0  0  0
 66 72  1  0  0  0  0
 67104  1  0  0  0  0
 68105  1  0  0  0  0
 69114  1  0  0  0  0
 70 73  4  0  0  0  0
 71 63  1  0  0  0  0
 72 71  4  0  0  0  0
 73 66  1  0  0  0  0
 74 70  4  0  0  0  0
 75 74  1  0  0  0  0
 76 79  4  0  0  0  0
 77 72  4  0  0  0  0
 78 73  4  0  0  0  0
 79 89  4  0  0  0  0
 80 71  4  0  0  0  0
 81 80  1  0  0  0  0
 82 63  1  0  0  0  0
 83 82  1  0  0  0  0
 84 77  1  0  0  0  0
 85 74  4  0  0  0  0
 86 85  1  0  0  0  0
 87 63  1  0  0  0  0
 88 87  1  0  0  0  0
 89105  4  0  0  0  0
 90 78  4  0  0  0  0
 91 90  1  0  0  0  0
 92 80  4  0  0  0  0
 93 92  1  0  0  0  0
 94 77  4  0  0  0  0
 95 94  1  0  0  0  0
 96 87  1  0  0  0  0
 97 96  1  0  0  0  0
 98 96  1  0  0  0  0
 99 96  1  0  0  0  0
100 82  1  0  0  0  0
101100  1  0  0  0  0
102100  1  0  0  0  0
103100  1  0  0  0  0
104 76  4  0  0  0  0
105114  4  0  0  0  0
106 82  1  0  0  0  0
107106  1  0  0  0  0
108106  1  0  0  0  0
109106  1  0  0  0  0
110 87  1  0  0  0  0
111110  1  0  0  0  0
112110  1  0  0  0  0
113110  1  0  0  0  0
114104  4  0  0  0  0
115 84  1  0  0  0  0
116115  1  0  0  0  0
117115  1  0  0  0  0
118115  1  0  0  0  0
119  1  1  0  0  0  0
120 84  1  0  0  0  0
121120  1  0  0  0  0
122120  1  0  0  0  0
123120  1  0  0  0  0
124119  1  0  0  0  0
 17 57  1  0  0  0  0
 23 28  4  0  0  0  0
 30 32  4  0  0  0  0
 70119  1  0  0  0  0
 78 84  1  0  0  0  0
 79119  1  0  0  0  0
 85 90  4  0  0  0  0
 92 94  4  0  0  0  0
M  END
$$$$
CUGHUL

From CSD data. Using bond type 'Any'. No disordered atoms. Largest molecule.
128141  0  0  0  0  0  0  0  0999 V2000
    2.8927   16.6403    6.6933 Cl  0  0  0  0  0  0  0  0  0  0  0  0
   -1.7523   19.3665    7.1550 Cl  0  0  0  0  0  0  0  0  0  0  0  0
   -0.8008   17.9376   12.6115 P   0  0  0  0  0  0  0  0  0  0  0  0
    2.0042   19.7768   10.2302 Cl  0  0  0  0  0  0  0  0  0  0  0  0
    3.5998   18.2987    4.1855 Cl  0  0  0  0  0  0  0  0  0  0  0  0
    7.0249   15.7907    7.3316 P   0  0  0  0  0  0  0  0  0  0  0  0
    1.7058   20.5534    3.2134 Cl  0  0  0  0  0  0  0  0  0  0  0  0
   -1.0302   20.9978    4.6287 Cl  0  0  0  0  0  0  0  0  0  0  0  0
    6.6439   17.9868   12.3948 Cl  0  0  0  0  0  0  0  0  0  0  0  0
    4.1423   22.2554   14.4941 Cl  0  0  0  0  0  0  0  0  0  0  0  0
    1.9591   22.0761   12.2803 Cl  0  0  0  0  0  0  0  0  0  0  0  0
    6.5460   20.2854   14.4566 Cl  0  0  0  0  0  0  0  0  0  0  0  0
   -0.8940   15.9149   10.4655 O   0  0  0  0  0  0  0  0  0  0  0  0
    4.5063   15.2699    8.8104 O   0  0  0  0  0  0  0  0  0  0  0  0
   -1.1166   15.3155    9.2110 C   0  0  0  0  0  0  0  0  0  0  0  0
   -1.7962   14.1031    9.1084 C   0  0  0  0  0  0  0  0  0  0  0  0
   -0.5776   16.0204    8.1267 C   0  0  0  0  0  0  0  0  0  0  0  0
    3.6605   15.2513    9.9377 C   0  0  0  0  0  0  0  0  0  0  0  0
    5.1321   14.0690    8.4691 C   0  0  0  0  0  0  0  0  0  0  0  0
    3.5890   16.4493   10.6598 C   0  0  0  0  0  0  0  0  0  0  0  0
   -1.5716   15.4358   11.5760 C   0  0  0  0  0  0  0  0  0  0  0  0
    0.0848   19.8366    5.2570 C   0  0  0  0  0  0  0  0  0  0  0  0
   -0.7922   15.4521    6.8704 C   0  0  0  0  0  0  0  0  0  0  0  0
   -0.4544   15.8957    6.1013 H   0  0  0  0  0  0  0  0  0  0  0  0
   -0.2112   19.1010    6.4057 C   0  0  0  0  0  0  0  0  0  0  0  0
    1.8159   17.9158    6.2051 C   0  0  0  0  0  0  0  0  0  0  0  0
    2.9629   14.0826   10.2459 C   0  0  0  0  0  0  0  0  0  0  0  0
    4.5060   12.8587    8.7808 C   0  0  0  0  0  0  0  0  0  0  0  0
   -1.9740   13.5889    7.8185 C   0  0  0  0  0  0  0  0  0  0  0  0
   -2.4381   12.7679    7.7044 H   0  0  0  0  0  0  0  0  0  0  0  0
    2.7369   16.4154   11.7715 C   0  0  0  0  0  0  0  0  0  0  0  0
    2.6481   17.1965   12.3049 H   0  0  0  0  0  0  0  0  0  0  0  0
    2.1495   18.6278    5.0553 C   0  0  0  0  0  0  0  0  0  0  0  0
    0.6505   18.1378    6.9511 C   0  0  0  0  0  0  0  0  0  0  0  0
    4.3503   18.9605   11.3270 C   0  0  0  0  0  0  0  0  0  0  0  0
   -2.2192   13.2970   10.3328 C   0  0  0  0  0  0  0  0  0  0  0  0
   -2.1790   14.1774   11.5741 C   0  0  0  0  0  0  0  0  0  0  0  0
   -1.5851   16.2794   12.7027 C   0  0  0  0  0  0  0  0  0  0  0  0
    3.2447   20.9342   12.3083 C   0  0  0  0  0  0  0  0  0  0  0  0
    1.2876   19.6174    4.5975 C   0  0  0  0  0  0  0  0  0  0  0  0
    2.1335   14.1184   11.3666 C   0  0  0  0  0  0  0  0  0  0  0  0
    1.6452   13.3422   11.6146 H   0  0  0  0  0  0  0  0  0  0  0  0
    6.3718   14.1494    7.8288 C   0  0  0  0  0  0  0  0  0  0  0  0
    3.0888   12.8696    9.3296 C   0  0  0  0  0  0  0  0  0  0  0  0
    3.3106   19.8994   11.3704 C   0  0  0  0  0  0  0  0  0  0  0  0
   -0.3410   18.2962   14.3772 C   0  0  0  0  0  0  0  0  0  0  0  0
   -1.1616   18.2363   14.9455 H   0  0  0  0  0  0  0  0  0  0  0  0
   -1.4876   14.2525    6.7081 C   0  0  0  0  0  0  0  0  0  0  0  0
   -1.6258   13.8943    5.8392 H   0  0  0  0  0  0  0  0  0  0  0  0
    8.6355   15.8436    8.2350 C   0  0  0  0  0  0  0  0  0  0  0  0
    9.1234   14.9862    8.0708 H   0  0  0  0  0  0  0  0  0  0  0  0
    5.3303   19.1172   12.3203 C   0  0  0  0  0  0  0  0  0  0  0  0
   -2.2430   19.0826   12.3122 C   0  0  0  0  0  0  0  0  0  0  0  0
   -1.8908   20.0149   12.3944 H   0  0  0  0  0  0  0  0  0  0  0  0
   -3.6307   12.7077   10.1538 C   0  0  0  0  0  0  0  0  0  0  0  0
   -3.8599   12.1648   10.9368 H   0  0  0  0  0  0  0  0  0  0  0  0
   -3.6512   12.1469    9.3502 H   0  0  0  0  0  0  0  0  0  0  0  0
   -4.2795   13.4362   10.0602 H   0  0  0  0  0  0  0  0  0  0  0  0
    2.0138   15.2745   12.1229 C   0  0  0  0  0  0  0  0  0  0  0  0
    1.4400   15.2901   12.8798 H   0  0  0  0  0  0  0  0  0  0  0  0
    2.1037   13.0483    8.1515 C   0  0  0  0  0  0  0  0  0  0  0  0
    1.1857   13.0709    8.4937 H   0  0  0  0  0  0  0  0  0  0  0  0
    2.2014   12.2990    7.5274 H   0  0  0  0  0  0  0  0  0  0  0  0
    2.2997   13.8884    7.6864 H   0  0  0  0  0  0  0  0  0  0  0  0
    5.2978   20.1308   13.2794 C   0  0  0  0  0  0  0  0  0  0  0  0
   -1.2200   12.1353   10.5030 C   0  0  0  0  0  0  0  0  0  0  0  0
   -0.3207   12.4964   10.6486 H   0  0  0  0  0  0  0  0  0  0  0  0
   -1.2226   11.5810    9.6948 H   0  0  0  0  0  0  0  0  0  0  0  0
   -1.4816   11.5897   11.2740 H   0  0  0  0  0  0  0  0  0  0  0  0
    7.4744   15.6329    5.5392 C   0  0  0  0  0  0  0  0  0  0  0  0
    7.7280   16.5529    5.2402 H   0  0  0  0  0  0  0  0  0  0  0  0
    4.2400   21.0375   13.2740 C   0  0  0  0  0  0  0  0  0  0  0  0
    8.3625   15.9733    9.7369 C   0  0  0  0  0  0  0  0  0  0  0  0
    9.2075   15.9094   10.2290 H   0  0  0  0  0  0  0  0  0  0  0  0
    7.7625   15.2533   10.0231 H   0  0  0  0  0  0  0  0  0  0  0  0
    7.9431   16.8400    9.9189 H   0  0  0  0  0  0  0  0  0  0  0  0
    9.4978   17.0020    7.7340 C   0  0  0  0  0  0  0  0  0  0  0  0
    9.0146   17.8457    7.8565 H   0  0  0  0  0  0  0  0  0  0  0  0
    9.6960   16.8742    6.7828 H   0  0  0  0  0  0  0  0  0  0  0  0
   10.3357   17.0288    8.2415 H   0  0  0  0  0  0  0  0  0  0  0  0
   -2.7332   13.7339   12.7736 C   0  0  0  0  0  0  0  0  0  0  0  0
   -3.1279   12.8704   12.8082 H   0  0  0  0  0  0  0  0  0  0  0  0
   -2.1787   15.7944   13.8652 C   0  0  0  0  0  0  0  0  0  0  0  0
   -2.2110   16.3465   14.6376 H   0  0  0  0  0  0  0  0  0  0  0  0
    0.6928   17.3016   14.8926 C   0  0  0  0  0  0  0  0  0  0  0  0
    0.3318   16.3927   14.8289 H   0  0  0  0  0  0  0  0  0  0  0  0
    0.9035   17.5045   15.8279 H   0  0  0  0  0  0  0  0  0  0  0  0
    1.5078   17.3680   14.3524 H   0  0  0  0  0  0  0  0  0  0  0  0
    2.7577   11.5593   10.0589 C   0  0  0  0  0  0  0  0  0  0  0  0
    3.3931   11.4243   10.7928 H   0  0  0  0  0  0  0  0  0  0  0  0
    2.8211   10.8103    9.4301 H   0  0  0  0  0  0  0  0  0  0  0  0
    1.8476   11.6070   10.4194 H   0  0  0  0  0  0  0  0  0  0  0  0
    5.2112   11.6882    8.4969 C   0  0  0  0  0  0  0  0  0  0  0  0
    4.8217   10.8469    8.7045 H   0  0  0  0  0  0  0  0  0  0  0  0
   -2.7254   14.5155   13.9164 C   0  0  0  0  0  0  0  0  0  0  0  0
   -3.0897   14.1821   14.7278 H   0  0  0  0  0  0  0  0  0  0  0  0
    7.0394   12.9412    7.5774 C   0  0  0  0  0  0  0  0  0  0  0  0
    7.8962   12.9559    7.1673 H   0  0  0  0  0  0  0  0  0  0  0  0
    0.2240   19.7140   14.4675 C   0  0  0  0  0  0  0  0  0  0  0  0
    0.9905   19.7994   13.8629 H   0  0  0  0  0  0  0  0  0  0  0  0
    0.5119   19.8929   15.3871 H   0  0  0  0  0  0  0  0  0  0  0  0
   -0.4681   20.3585   14.2107 H   0  0  0  0  0  0  0  0  0  0  0  0
    4.4032   17.7769   10.2184 B   0  5  0  0  0  0  0  0  0  0  0  0
    8.6556   14.7308    5.1610 C   0  0  0  0  0  0  0  0  0  0  0  0
    8.3808   13.7917    5.2180 H   0  0  0  0  0  0  0  0  0  0  0  0
    9.3999   14.8912    5.7782 H   0  0  0  0  0  0  0  0  0  0  0  0
    8.9411   14.9326    4.2456 H   0  0  0  0  0  0  0  0  0  0  0  0
    0.3090   17.3543    8.3331 B   0  5  0  0  0  0  0  0  0  0  0  0
    6.4687   11.7315    7.9181 C   0  0  0  0  0  0  0  0  0  0  0  0
    6.9411   10.9237    7.7543 H   0  0  0  0  0  0  0  0  0  0  0  0
   -3.3967   18.9630   13.2991 C   0  0  0  0  0  0  0  0  0  0  0  0
   -4.0671   19.6502   13.1025 H   0  0  0  0  0  0  0  0  0  0  0  0
   -3.0603   19.0861   14.2112 H   0  0  0  0  0  0  0  0  0  0  0  0
   -3.8049   18.0758   13.2183 H   0  0  0  0  0  0  0  0  0  0  0  0
   -2.7444   18.9287   10.8773 C   0  0  0  0  0  0  0  0  0  0  0  0
   -3.0971   18.0233   10.7499 H   0  0  0  0  0  0  0  0  0  0  0  0
   -2.0036   19.0815   10.2543 H   0  0  0  0  0  0  0  0  0  0  0  0
   -3.4542   19.5827   10.7076 H   0  0  0  0  0  0  0  0  0  0  0  0
    6.2231   15.2628    4.7345 C   0  0  0  0  0  0  0  0  0  0  0  0
    6.4170   15.3365    3.7768 H   0  0  0  0  0  0  0  0  0  0  0  0
    5.4925   15.8728    4.9679 H   0  0  0  0  0  0  0  0  0  0  0  0
    5.9601   14.3424    4.9447 H   0  0  0  0  0  0  0  0  0  0  0  0
    5.0826   17.1403    8.1783 Li  0  3  0  0  0  0  0  0  0  0  0  0
    0.6673   17.3344   10.5825 Li  0  3  0  0  0  0  0  0  0  0  0  0
    1.2921   17.0802    8.8605 H   0  0  0  0  0  0  0  0  0  0  0  0
   -0.1919   18.0949    9.0125 H   0  0  0  0  0  0  0  0  0  0  0  0
    3.9489   18.1410    9.2352 H   0  0  0  0  0  0  0  0  0  0  0  0
    5.4616   17.5154   10.0018 H   0  0  0  0  0  0  0  0  0  0  0  0
  1 26  1  0  0  0  0
  2 25  1  0  0  0  0
  3 38  1  0  0  0  0
  4 45  1  0  0  0  0
  5 33  1  0  0  0  0
  6 43  1  0  0  0  0
  7 40  1  0  0  0  0
  8 22  1  0  0  0  0
  9 52  1  0  0  0  0
 10 72  1  0  0  0  0
 11 39  1  0  0  0  0
 12 65  1  0  0  0  0
 13 15  1  0  0  0  0
 14 18  1  0  0  0  0
 15 16  4  0  0  0  0
 16 29  4  0  0  0  0
 17 15  4  0  0  0  0
 18 20  4  0  0  0  0
 19 14  1  0  0  0  0
 20 31  4  0  0  0  0
 21 13  1  0  0  0  0
 22 25  4  0  0  0  0
 23 17  4  0  0  0  0
 24 23  1  0  0  0  0
 25 34  4  0  0  0  0
 26 33  4  0  0  0  0
 27 18  4  0  0  0  0
 28 19  4  0  0  0  0
 29 30  1  0  0  0  0
 31 32  1  0  0  0  0
 33 40  4  0  0  0  0
 34 26  4  0  0  0  0
 35 45  4  0  0  0  0
 36 16  1  0  0  0  0
 37 21  4  0  0  0  0
 38 21  4  0  0  0  0
 39 45  4  0  0  0  0
 40 22  4  0  0  0  0
 41 27  4  0  0  0  0
 42 41  1  0  0  0  0
 43 19  4  0  0  0  0
 44 27  1  0  0  0  0
 46  3  1  0  0  0  0
 47 46  1  0  0  0  0
 48 23  4  0  0  0  0
 49 48  1  0  0  0  0
 50  6  1  0  0  0  0
 51 50  1  0  0  0  0
 52 35  4  0  0  0  0
 53  3  1  0  0  0  0
 54 53  1  0  0  0  0
 55 36  1  0  0  0  0
 56 55  1  0  0  0  0
 57 55  1  0  0  0  0
 58 55  1  0  0  0  0
 59 31  4  0  0  0  0
 60 59  1  0  0  0  0
 61 44  1  0  0  0  0
 62 61  1  0  0  0  0
 63 61  1  0  0  0  0
 64 61  1  0  0  0  0
 65 52  4  0  0  0  0
 66 36  1  0  0  0  0
 67 66  1  0  0  0  0
 68 66  1  0  0  0  0
 69 66  1  0  0  0  0
 70  6  1  0  0  0  0
 71 70  1  0  0  0  0
 72 39  4  0  0  0  0
 73 50  1  0  0  0  0
 74 73  1  0  0  0  0
 75 73  1  0  0  0  0
 76 73  1  0  0  0  0
 77 50  1  0  0  0  0
 78 77  1  0  0  0  0
 79 77  1  0  0  0  0
 80 77  1  0  0  0  0
 81 37  4  0  0  0  0
 82 81  1  0  0  0  0
 83 38  4  0  0  0  0
 84 83  1  0  0  0  0
 85 46  1  0  0  0  0
 86 85  1  0  0  0  0
 87 85  1  0  0  0  0
 88 85  1  0  0  0  0
 89 44  1  0  0  0  0
 90 89  1  0  0  0  0
 91 89  1  0  0  0  0
 92 89  1  0  0  0  0
 93 28  4  0  0  0  0
 94 93  1  0  0  0  0
 95 81  4  0  0  0  0
 96 95  1  0  0  0  0
 97 43  4  0  0  0  0
 98 97  1  0  0  0  0
 99 46  1  0  0  0  0
100 99  1  0  0  0  0
101 99  1  0  0  0  0
102 99  1  0  0  0  0
103 20  1  0  0  0  0
104 70  1  0  0  0  0
105104  1  0  0  0  0
106104  1  0  0  0  0
107104  1  0  0  0  0
108 17  1  0  0  0  0
109 93  4  0  0  0  0
110109  1  0  0  0  0
111 53  1  0  0  0  0
112111  1  0  0  0  0
113111  1  0  0  0  0
114111  1  0  0  0  0
115 53  1  0  0  0  0
116115  1  0  0  0  0
117115  1  0  0  0  0
118115  1  0  0  0  0
119 70  1  0  0  0  0
120119  1  0  0  0  0
121119  1  0  0  0  0
122119  1  0  0  0  0
123  1  1  0  0  0  0
124  3  1  0  0  0  0
125108  1  0  0  0  0
126108  1  0  0  0  0
127103  1  0  0  0  0
128103  1  0  0  0  0
  6123  1  0  0  0  0
 13124  1  0  0  0  0
 14123  1  0  0  0  0
 28 44  1  0  0  0  0
 29 48  4  0  0  0  0
 34108  1  0  0  0  0
 35103  1  0  0  0  0
 36 37  1  0  0  0  0
 41 59  4  0  0  0  0
 65 72  4  0  0  0  0
 83 95  4  0  0  0  0
 97109  4  0  0  0  0
123127  1  0  0  0  0
123128  1  0  0  0  0
124125  1  0  0  0  0
124126  1  0  0  0  0
M  CHG  4 103  -1 108  -1 123   1 124   1
M  END
$$$$
CUGJOH

From CSD data. Using bond type 'Any'. No disordered atoms. Largest molecule.
256284  0  0  0  0  0  0  0  0999 V2000
    4.2219   11.4542   13.7863 P   0  0  0  0  0  0  0  0  0  0  0  0
    5.6547   14.0735    4.7874 P   0  0  0  0  0  0  0  0  0  0  0  0
    2.9325   13.0682    7.3217 F   0  0  0  0  0  0  0  0  0  0  0  0
    1.9650   11.7338    5.2634 F   0  0  0  0  0  0  0  0  0  0  0  0
    8.8799   11.3050    8.6747 F   0  0  0  0  0  0  0  0  0  0  0  0
    5.1777   14.4979    7.6335 O   0  0  0  0  0  0  0  0  0  0  0  0
    8.4269    7.2729   11.0302 F   0  0  0  0  0  0  0  0  0  0  0  0
    4.6393    9.8980   10.2035 F   0  0  0  0  0  0  0  0  0  0  0  0
   -0.0875    9.9600    5.5794 F   0  0  0  0  0  0  0  0  0  0  0  0
   -0.1295   10.8576   10.1738 F   0  0  0  0  0  0  0  0  0  0  0  0
    5.7513    7.6985   11.2465 F   0  0  0  0  0  0  0  0  0  0  0  0
    2.7710   13.7918   12.7585 O   0  0  0  0  0  0  0  0  0  0  0  0
   -1.1091    9.5521    8.0545 F   0  0  0  0  0  0  0  0  0  0  0  0
    9.9849    9.1196    9.7685 F   0  0  0  0  0  0  0  0  0  0  0  0
    1.9201   12.1907    7.5883 C   0  0  0  0  0  0  0  0  0  0  0  0
    1.4599   12.0184    8.8827 C   0  0  0  0  0  0  0  0  0  0  0  0
    5.9434   13.3065    9.5254 C   0  0  0  0  0  0  0  0  0  0  0  0
    1.1550   13.7086   11.0156 C   0  0  0  0  0  0  0  0  0  0  0  0
    5.4426   14.5107    9.0073 C   0  0  0  0  0  0  0  0  0  0  0  0
    1.5601   14.2852   12.2199 C   0  0  0  0  0  0  0  0  0  0  0  0
    0.3935   10.6397    6.6340 C   0  0  0  0  0  0  0  0  0  0  0  0
    1.4293   11.5295    6.4804 C   0  0  0  0  0  0  0  0  0  0  0  0
    4.3431   16.7781    9.1332 C   0  0  0  0  0  0  0  0  0  0  0  0
    5.1391   15.6393    9.7610 C   0  0  0  0  0  0  0  0  0  0  0  0
    0.4083   11.1202    8.9682 C   0  0  0  0  0  0  0  0  0  0  0  0
    6.2342   13.3234   10.8910 C   0  0  0  0  0  0  0  0  0  0  0  0
    6.5997   12.5445   11.2941 H   0  0  0  0  0  0  0  0  0  0  0  0
    5.4553   15.5898   11.1220 C   0  0  0  0  0  0  0  0  0  0  0  0
    5.2904   16.3494   11.6682 H   0  0  0  0  0  0  0  0  0  0  0  0
    2.8403   16.4135    9.2386 C   0  0  0  0  0  0  0  0  0  0  0  0
    2.6829   15.5481    8.8065 H   0  0  0  0  0  0  0  0  0  0  0  0
    2.3048   17.1031    8.7933 H   0  0  0  0  0  0  0  0  0  0  0  0
    2.5827   16.3589   10.1826 H   0  0  0  0  0  0  0  0  0  0  0  0
    2.9460   13.9063   14.1330 C   0  0  0  0  0  0  0  0  0  0  0  0
    5.0384   15.7063    6.9632 C   0  0  0  0  0  0  0  0  0  0  0  0
   -0.0631   14.1812   10.5198 C   0  0  0  0  0  0  0  0  0  0  0  0
   -0.3902   13.8353    9.6976 H   0  0  0  0  0  0  0  0  0  0  0  0
    6.0031   14.4545   11.6841 C   0  0  0  0  0  0  0  0  0  0  0  0
    6.2232   14.4402   12.6082 H   0  0  0  0  0  0  0  0  0  0  0  0
   -0.1166   10.4383    7.8936 C   0  0  0  0  0  0  0  0  0  0  0  0
    3.7086   12.9153   14.7601 C   0  0  0  0  0  0  0  0  0  0  0  0
    6.7052   10.6938    9.3629 C   0  0  0  0  0  0  0  0  0  0  0  0
    5.9686    9.7435   10.0526 C   0  0  0  0  0  0  0  0  0  0  0  0
    0.8958   15.3175   12.8868 C   0  0  0  0  0  0  0  0  0  0  0  0
    8.0642   10.4392    9.3040 C   0  0  0  0  0  0  0  0  0  0  0  0
    5.2416   15.6725    5.5789 C   0  0  0  0  0  0  0  0  0  0  0  0
    7.8678    8.3942   10.5039 C   0  0  0  0  0  0  0  0  0  0  0  0
    2.3851   14.9762   14.8236 C   0  0  0  0  0  0  0  0  0  0  0  0
    4.6866   16.8631    7.6571 C   0  0  0  0  0  0  0  0  0  0  0  0
    1.5968   16.0191   14.0501 C   0  0  0  0  0  0  0  0  0  0  0  0
    8.6589    9.3135    9.8607 C   0  0  0  0  0  0  0  0  0  0  0  0
   -0.3315   15.7163   12.3547 C   0  0  0  0  0  0  0  0  0  0  0  0
   -0.8397   16.3873   12.7953 H   0  0  0  0  0  0  0  0  0  0  0  0
    6.5192    8.5994   10.6086 C   0  0  0  0  0  0  0  0  0  0  0  0
    5.7241   10.8404   14.6858 C   0  0  0  0  0  0  0  0  0  0  0  0
    5.4937   10.7140   15.6506 H   0  0  0  0  0  0  0  0  0  0  0  0
   -0.8140   15.1442   11.1936 C   0  0  0  0  0  0  0  0  0  0  0  0
   -1.6605   15.4081   10.8525 H   0  0  0  0  0  0  0  0  0  0  0  0
    2.6231   17.0124   13.4665 C   0  0  0  0  0  0  0  0  0  0  0  0
    3.1395   17.4148   14.1956 H   0  0  0  0  0  0  0  0  0  0  0  0
    2.1523   17.7160   12.9726 H   0  0  0  0  0  0  0  0  0  0  0  0
    3.2291   16.5375   12.8601 H   0  0  0  0  0  0  0  0  0  0  0  0
    4.5720   18.1116    9.8587 C   0  0  0  0  0  0  0  0  0  0  0  0
    4.3341   18.0140   10.8043 H   0  0  0  0  0  0  0  0  0  0  0  0
    4.0127   18.8054    9.4510 H   0  0  0  0  0  0  0  0  0  0  0  0
    5.5153   18.3666    9.7837 H   0  0  0  0  0  0  0  0  0  0  0  0
    3.9674   13.0621   16.1218 C   0  0  0  0  0  0  0  0  0  0  0  0
    4.4959   12.4133   16.5713 H   0  0  0  0  0  0  0  0  0  0  0  0
    2.6613   15.0675   16.1891 C   0  0  0  0  0  0  0  0  0  0  0  0
    2.2895   15.7827   16.6918 H   0  0  0  0  0  0  0  0  0  0  0  0
    4.5590   18.0376    6.9144 C   0  0  0  0  0  0  0  0  0  0  0  0
    4.3413   18.8489    7.3582 H   0  0  0  0  0  0  0  0  0  0  0  0
    5.0748   16.8729    4.8857 C   0  0  0  0  0  0  0  0  0  0  0  0
    5.1912   16.8859    3.9429 H   0  0  0  0  0  0  0  0  0  0  0  0
    7.4577   14.2462    4.3922 C   0  0  0  0  0  0  0  0  0  0  0  0
    7.6910   13.4856    3.7862 H   0  0  0  0  0  0  0  0  0  0  0  0
    2.1063   12.6719   10.2201 B   0  5  0  0  0  0  0  0  0  0  0  0
    0.6077   16.7817   14.9335 C   0  0  0  0  0  0  0  0  0  0  0  0
   -0.0632   16.1597   15.2849 H   0  0  0  0  0  0  0  0  0  0  0  0
    0.1636   17.4757   14.4029 H   0  0  0  0  0  0  0  0  0  0  0  0
    1.0891   17.1981   15.6787 H   0  0  0  0  0  0  0  0  0  0  0  0
    2.8687   10.2458   14.2372 C   0  0  0  0  0  0  0  0  0  0  0  0
    3.0023    9.4345   13.6681 H   0  0  0  0  0  0  0  0  0  0  0  0
    4.8022   14.1379    3.1420 C   0  0  0  0  0  0  0  0  0  0  0  0
    5.1679   14.9025    2.6114 H   0  0  0  0  0  0  0  0  0  0  0  0
    4.7438   18.0417    5.5427 C   0  0  0  0  0  0  0  0  0  0  0  0
    4.6429   18.8493    5.0526 H   0  0  0  0  0  0  0  0  0  0  0  0
    6.8507   11.8635   14.5782 C   0  0  0  0  0  0  0  0  0  0  0  0
    7.0675   12.0126   13.6341 H   0  0  0  0  0  0  0  0  0  0  0  0
    7.6434   11.5270   15.0460 H   0  0  0  0  0  0  0  0  0  0  0  0
    6.5652   12.7080   14.9851 H   0  0  0  0  0  0  0  0  0  0  0  0
    3.4654   14.1386   16.8257 C   0  0  0  0  0  0  0  0  0  0  0  0
    3.6719   14.2415   17.7473 H   0  0  0  0  0  0  0  0  0  0  0  0
    6.0226   11.9646    8.6204 B   0  5  0  0  0  0  0  0  0  0  0  0
    1.5025   10.8260   13.8697 C   0  0  0  0  0  0  0  0  0  0  0  0
    1.3161   11.6054   14.4336 H   0  0  0  0  0  0  0  0  0  0  0  0
    0.8103   10.1469   14.0117 H   0  0  0  0  0  0  0  0  0  0  0  0
    1.5055   11.0973   12.9280 H   0  0  0  0  0  0  0  0  0  0  0  0
    8.2793   14.0604    5.6568 C   0  0  0  0  0  0  0  0  0  0  0  0
    8.0571   14.7678    6.2977 H   0  0  0  0  0  0  0  0  0  0  0  0
    9.2331   14.1070    5.4366 H   0  0  0  0  0  0  0  0  0  0  0  0
    8.0776   13.1866    6.0520 H   0  0  0  0  0  0  0  0  0  0  0  0
    7.8611   15.5259    3.6603 C   0  0  0  0  0  0  0  0  0  0  0  0
    7.2987   15.6390    2.8659 H   0  0  0  0  0  0  0  0  0  0  0  0
    8.8009   15.4648    3.3893 H   0  0  0  0  0  0  0  0  0  0  0  0
    7.7424   16.2944    4.2567 H   0  0  0  0  0  0  0  0  0  0  0  0
    6.1488    9.4942   14.0988 C   0  0  0  0  0  0  0  0  0  0  0  0
    5.4043    8.8602   14.1636 H   0  0  0  0  0  0  0  0  0  0  0  0
    6.9173    9.1478   14.5986 H   0  0  0  0  0  0  0  0  0  0  0  0
    6.3969    9.6117   13.1581 H   0  0  0  0  0  0  0  0  0  0  0  0
    3.3059   14.3328    3.3363 C   0  0  0  0  0  0  0  0  0  0  0  0
    2.9586   13.6305    3.9250 H   0  0  0  0  0  0  0  0  0  0  0  0
    2.8545   14.2838    2.4678 H   0  0  0  0  0  0  0  0  0  0  0  0
    3.1406   15.2098    3.7412 H   0  0  0  0  0  0  0  0  0  0  0  0
    2.8661    9.7747   15.6851 C   0  0  0  0  0  0  0  0  0  0  0  0
    3.7249    9.3501   15.8919 H   0  0  0  0  0  0  0  0  0  0  0  0
    2.1418    9.1279   15.8169 H   0  0  0  0  0  0  0  0  0  0  0  0
    2.7303   10.5428   16.2784 H   0  0  0  0  0  0  0  0  0  0  0  0
    5.0944   12.8251    2.4037 C   0  0  0  0  0  0  0  0  0  0  0  0
    6.0643   12.7063    2.3204 H   0  0  0  0  0  0  0  0  0  0  0  0
    4.6918   12.8553    1.5111 H   0  0  0  0  0  0  0  0  0  0  0  0
    4.7162   12.0751    2.9081 H   0  0  0  0  0  0  0  0  0  0  0  0
    4.9200   12.6859    6.7576 Li  0  3  0  0  0  0  0  0  0  0  0  0
    3.9629   12.6724   11.5328 Li  0  3  0  0  0  0  0  0  0  0  0  0
    3.0950   13.2226    9.9312 H   0  0  0  0  0  0  0  0  0  0  0  0
    2.3971   11.8157   10.9045 H   0  0  0  0  0  0  0  0  0  0  0  0
    4.9564   11.6719    8.3671 H   0  0  0  0  0  0  0  0  0  0  0  0
    6.5669   12.1427    7.6590 H   0  0  0  0  0  0  0  0  0  0  0  0
    8.7835    6.5137    2.9950 P   0  0  0  0  0  0  0  0  0  0  0  0
    7.3508    3.8944   11.9939 P   0  0  0  0  0  0  0  0  0  0  0  0
   10.0730    4.8997    9.4596 F   0  0  0  0  0  0  0  0  0  0  0  0
   11.0405    6.2341   11.5178 F   0  0  0  0  0  0  0  0  0  0  0  0
    4.1256    6.6629    8.1065 F   0  0  0  0  0  0  0  0  0  0  0  0
    7.8277    3.4700    9.1478 O   0  0  0  0  0  0  0  0  0  0  0  0
    4.5785   10.6950    5.7511 F   0  0  0  0  0  0  0  0  0  0  0  0
    8.3661    8.0699    6.5778 F   0  0  0  0  0  0  0  0  0  0  0  0
   13.0929    8.0079   11.2018 F   0  0  0  0  0  0  0  0  0  0  0  0
   13.1349    7.1103    6.6075 F   0  0  0  0  0  0  0  0  0  0  0  0
    7.2541   10.2694    5.5348 F   0  0  0  0  0  0  0  0  0  0  0  0
   10.2345    4.1761    4.0228 O   0  0  0  0  0  0  0  0  0  0  0  0
   14.1146    8.4158    8.7268 F   0  0  0  0  0  0  0  0  0  0  0  0
    3.0206    8.8483    7.0127 F   0  0  0  0  0  0  0  0  0  0  0  0
   11.0854    5.7772    9.1929 C   0  0  0  0  0  0  0  0  0  0  0  0
   11.5455    5.9495    7.8986 C   0  0  0  0  0  0  0  0  0  0  0  0
    7.0621    4.6614    7.2559 C   0  0  0  0  0  0  0  0  0  0  0  0
   11.8505    4.2593    5.7657 C   0  0  0  0  0  0  0  0  0  0  0  0
    7.5629    3.4572    7.7739 C   0  0  0  0  0  0  0  0  0  0  0  0
   11.4454    3.6827    4.5613 C   0  0  0  0  0  0  0  0  0  0  0  0
   12.6120    7.3282   10.1473 C   0  0  0  0  0  0  0  0  0  0  0  0
   11.5761    6.4384   10.3008 C   0  0  0  0  0  0  0  0  0  0  0  0
    8.6623    1.1898    7.6481 C   0  0  0  0  0  0  0  0  0  0  0  0
    7.8664    2.3286    7.0203 C   0  0  0  0  0  0  0  0  0  0  0  0
   12.5972    6.8477    7.8130 C   0  0  0  0  0  0  0  0  0  0  0  0
    6.7712    4.6445    5.8902 C   0  0  0  0  0  0  0  0  0  0  0  0
    6.4058    5.4234    5.4872 H   0  0  0  0  0  0  0  0  0  0  0  0
    7.5502    2.3781    5.6593 C   0  0  0  0  0  0  0  0  0  0  0  0
    7.7150    1.6185    5.1131 H   0  0  0  0  0  0  0  0  0  0  0  0
   10.1652    1.5544    7.5427 C   0  0  0  0  0  0  0  0  0  0  0  0
   10.3225    2.4198    7.9748 H   0  0  0  0  0  0  0  0  0  0  0  0
   10.7006    0.8648    7.9880 H   0  0  0  0  0  0  0  0  0  0  0  0
   10.4227    1.6090    6.5987 H   0  0  0  0  0  0  0  0  0  0  0  0
   10.0595    4.0616    2.6483 C   0  0  0  0  0  0  0  0  0  0  0  0
    7.9670    2.2616    9.8180 C   0  0  0  0  0  0  0  0  0  0  0  0
   13.0686    3.7867    6.2614 C   0  0  0  0  0  0  0  0  0  0  0  0
   13.3956    4.1326    7.0837 H   0  0  0  0  0  0  0  0  0  0  0  0
    7.0024    3.5134    5.0971 C   0  0  0  0  0  0  0  0  0  0  0  0
    6.7822    3.5277    4.1730 H   0  0  0  0  0  0  0  0  0  0  0  0
   13.1220    7.5296    8.8877 C   0  0  0  0  0  0  0  0  0  0  0  0
    9.2968    5.0526    2.0211 C   0  0  0  0  0  0  0  0  0  0  0  0
    6.3002    7.2741    7.4183 C   0  0  0  0  0  0  0  0  0  0  0  0
    7.0369    8.2244    6.7286 C   0  0  0  0  0  0  0  0  0  0  0  0
   12.1096    2.6504    3.8944 C   0  0  0  0  0  0  0  0  0  0  0  0
    4.9413    7.5287    7.4772 C   0  0  0  0  0  0  0  0  0  0  0  0
    7.7639    2.2954   11.2023 C   0  0  0  0  0  0  0  0  0  0  0  0
    5.1376    9.5737    6.2774 C   0  0  0  0  0  0  0  0  0  0  0  0
   10.6204    2.9917    1.9577 C   0  0  0  0  0  0  0  0  0  0  0  0
    8.3189    1.1048    9.1241 C   0  0  0  0  0  0  0  0  0  0  0  0
   11.4087    1.9488    2.7312 C   0  0  0  0  0  0  0  0  0  0  0  0
    4.3465    8.6544    6.9206 C   0  0  0  0  0  0  0  0  0  0  0  0
   13.3370    2.2516    4.4266 C   0  0  0  0  0  0  0  0  0  0  0  0
   13.8451    1.5806    3.9860 H   0  0  0  0  0  0  0  0  0  0  0  0
    6.4863    9.3685    6.1727 C   0  0  0  0  0  0  0  0  0  0  0  0
    7.2813    7.1275    2.0955 C   0  0  0  0  0  0  0  0  0  0  0  0
    7.5118    7.2539    1.1306 H   0  0  0  0  0  0  0  0  0  0  0  0
   13.8194    2.8237    5.5877 C   0  0  0  0  0  0  0  0  0  0  0  0
   14.6660    2.5598    5.9287 H   0  0  0  0  0  0  0  0  0  0  0  0
   10.3824    0.9555    3.3148 C   0  0  0  0  0  0  0  0  0  0  0  0
    9.8659    0.5531    2.5857 H   0  0  0  0  0  0  0  0  0  0  0  0
   10.8532    0.2519    3.8086 H   0  0  0  0  0  0  0  0  0  0  0  0
    9.7764    1.4304    3.9211 H   0  0  0  0  0  0  0  0  0  0  0  0
    8.4335   -0.1437    6.9226 C   0  0  0  0  0  0  0  0  0  0  0  0
    8.6713   -0.0461    5.9769 H   0  0  0  0  0  0  0  0  0  0  0  0
    8.9928   -0.8375    7.3303 H   0  0  0  0  0  0  0  0  0  0  0  0
    7.4902   -0.3987    6.9976 H   0  0  0  0  0  0  0  0  0  0  0  0
    9.0381    4.9058    0.6595 C   0  0  0  0  0  0  0  0  0  0  0  0
    8.5095    5.5546    0.2100 H   0  0  0  0  0  0  0  0  0  0  0  0
   10.3441    2.9004    0.5922 C   0  0  0  0  0  0  0  0  0  0  0  0
   10.7159    2.1852    0.0895 H   0  0  0  0  0  0  0  0  0  0  0  0
    8.4464   -0.0697    9.8669 C   0  0  0  0  0  0  0  0  0  0  0  0
    8.6642   -0.8810    9.4230 H   0  0  0  0  0  0  0  0  0  0  0  0
    7.9307    1.0950   11.8956 C   0  0  0  0  0  0  0  0  0  0  0  0
    7.8143    1.0820   12.8383 H   0  0  0  0  0  0  0  0  0  0  0  0
    5.5477    3.7217   12.3891 C   0  0  0  0  0  0  0  0  0  0  0  0
    5.3144    4.4823   12.9950 H   0  0  0  0  0  0  0  0  0  0  0  0
   10.8991    5.2960    6.5611 B   0  5  0  0  0  0  0  0  0  0  0  0
   12.3978    1.1862    1.8478 C   0  0  0  0  0  0  0  0  0  0  0  0
   13.0687    1.8082    1.4964 H   0  0  0  0  0  0  0  0  0  0  0  0
   12.8418    0.4922    2.3784 H   0  0  0  0  0  0  0  0  0  0  0  0
   11.9164    0.7698    1.1026 H   0  0  0  0  0  0  0  0  0  0  0  0
   10.1367    7.7221    2.5440 C   0  0  0  0  0  0  0  0  0  0  0  0
   10.0031    8.5334    3.1131 H   0  0  0  0  0  0  0  0  0  0  0  0
    8.2032    3.8300   13.6393 C   0  0  0  0  0  0  0  0  0  0  0  0
    7.8376    3.0654   14.1699 H   0  0  0  0  0  0  0  0  0  0  0  0
    8.2616   -0.0738   11.2386 C   0  0  0  0  0  0  0  0  0  0  0  0
    8.3625   -0.8814   11.7286 H   0  0  0  0  0  0  0  0  0  0  0  0
    6.1548    6.1044    2.2030 C   0  0  0  0  0  0  0  0  0  0  0  0
    5.9380    5.9553    3.1472 H   0  0  0  0  0  0  0  0  0  0  0  0
    5.3621    6.4409    1.7352 H   0  0  0  0  0  0  0  0  0  0  0  0
    6.4403    5.2599    1.7962 H   0  0  0  0  0  0  0  0  0  0  0  0
    9.5401    3.8293   -0.0445 C   0  0  0  0  0  0  0  0  0  0  0  0
    9.3336    3.7264   -0.9660 H   0  0  0  0  0  0  0  0  0  0  0  0
    6.9828    6.0033    8.1609 B   0  5  0  0  0  0  0  0  0  0  0  0
   11.5029    7.1419    2.9115 C   0  0  0  0  0  0  0  0  0  0  0  0
   11.6894    6.3625    2.3476 H   0  0  0  0  0  0  0  0  0  0  0  0
   12.1952    7.8210    2.7695 H   0  0  0  0  0  0  0  0  0  0  0  0
   11.5000    6.8706    3.8533 H   0  0  0  0  0  0  0  0  0  0  0  0
    4.7261    3.9075   11.1245 C   0  0  0  0  0  0  0  0  0  0  0  0
    4.9483    3.2001   10.4836 H   0  0  0  0  0  0  0  0  0  0  0  0
    3.7723    3.8609   11.3447 H   0  0  0  0  0  0  0  0  0  0  0  0
    4.9278    4.7813   10.7293 H   0  0  0  0  0  0  0  0  0  0  0  0
    5.1444    2.4420   13.1209 C   0  0  0  0  0  0  0  0  0  0  0  0
    5.7068    2.3289   13.9154 H   0  0  0  0  0  0  0  0  0  0  0  0
    4.2045    2.5031   13.3919 H   0  0  0  0  0  0  0  0  0  0  0  0
    5.2630    1.6735   12.5245 H   0  0  0  0  0  0  0  0  0  0  0  0
    6.8566    8.4737    2.6825 C   0  0  0  0  0  0  0  0  0  0  0  0
    7.6012    9.1077    2.6177 H   0  0  0  0  0  0  0  0  0  0  0  0
    6.0882    8.8201    2.1827 H   0  0  0  0  0  0  0  0  0  0  0  0
    6.6086    8.3562    3.6232 H   0  0  0  0  0  0  0  0  0  0  0  0
    9.6996    3.6351   13.4450 C   0  0  0  0  0  0  0  0  0  0  0  0
   10.0469    4.3374   12.8563 H   0  0  0  0  0  0  0  0  0  0  0  0
   10.1509    3.6841   14.3135 H   0  0  0  0  0  0  0  0  0  0  0  0
    9.8649    2.7581   13.0400 H   0  0  0  0  0  0  0  0  0  0  0  0
   10.1393    8.1932    1.0962 C   0  0  0  0  0  0  0  0  0  0  0  0
    9.2806    8.6178    0.8893 H   0  0  0  0  0  0  0  0  0  0  0  0
   10.8636    8.8400    0.9644 H   0  0  0  0  0  0  0  0  0  0  0  0
   10.2751    7.4251    0.5029 H   0  0  0  0  0  0  0  0  0  0  0  0
    7.9111    5.1428   14.3775 C   0  0  0  0  0  0  0  0  0  0  0  0
    6.9412    5.2616   14.4608 H   0  0  0  0  0  0  0  0  0  0  0  0
    8.3137    5.1126   15.2702 H   0  0  0  0  0  0  0  0  0  0  0  0
    8.2893    5.8928   13.8732 H   0  0  0  0  0  0  0  0  0  0  0  0
    8.0855    5.2820   10.0236 Li  0  3  0  0  0  0  0  0  0  0  0  0
    9.0426    5.2955    5.2485 Li  0  3  0  0  0  0  0  0  0  0  0  0
    9.9104    4.7453    6.8501 H   0  0  0  0  0  0  0  0  0  0  0  0
   10.6083    6.1522    5.8768 H   0  0  0  0  0  0  0  0  0  0  0  0
    8.0491    6.2960    8.4141 H   0  0  0  0  0  0  0  0  0  0  0  0
    6.4385    5.8252    9.1223 H   0  0  0  0  0  0  0  0  0  0  0  0
  1 41  1  0  0  0  0
  2 46  1  0  0  0  0
  3 15  1  0  0  0  0
  4 22  1  0  0  0  0
  5 45  1  0  0  0  0
  6 19  1  0  0  0  0
  7 47  1  0  0  0  0
  8 43  1  0  0  0  0
  9 21  1  0  0  0  0
 10 25  1  0  0  0  0
 11 54  1  0  0  0  0
 12 20  1  0  0  0  0
 13 40  1  0  0  0  0
 14 51  1  0  0  0  0
 15 16  4  0  0  0  0
 16 25  4  0  0  0  0
 17 19  4  0  0  0  0
 18 20  4  0  0  0  0
 19 24  4  0  0  0  0
 20 44  4  0  0  0  0
 21 22  4  0  0  0  0
 22 15  4  0  0  0  0
 23 24  1  0  0  0  0
 24 28  4  0  0  0  0
 25 40  4  0  0  0  0
 26 17  4  0  0  0  0
 27 26  1  0  0  0  0
 28 29  1  0  0  0  0
 30 23  1  0  0  0  0
 31 30  1  0  0  0  0
 32 30  1  0  0  0  0
 33 30  1  0  0  0  0
 34 12  1  0  0  0  0
 35  6  1  0  0  0  0
 36 18  4  0  0  0  0
 37 36  1  0  0  0  0
 38 26  4  0  0  0  0
 39 38  1  0  0  0  0
 40 21  4  0  0  0  0
 41 34  4  0  0  0  0
 42 43  4  0  0  0  0
 43 54  4  0  0  0  0
 44 50  1  0  0  0  0
 45 42  4  0  0  0  0
 46 35  4  0  0  0  0
 47 51  4  0  0  0  0
 48 34  4  0  0  0  0
 49 23  1  0  0  0  0
 50 48  1  0  0  0  0
 51 45  4  0  0  0  0
 52 44  4  0  0  0  0
 53 52  1  0  0  0  0
 54 47  4  0  0  0  0
 55  1  1  0  0  0  0
 56 55  1  0  0  0  0
 57 36  4  0  0  0  0
 58 57  1  0  0  0  0
 59 50  1  0  0  0  0
 60 59  1  0  0  0  0
 61 59  1  0  0  0  0
 62 59  1  0  0  0  0
 63 23  1  0  0  0  0
 64 63  1  0  0  0  0
 65 63  1  0  0  0  0
 66 63  1  0  0  0  0
 67 41  4  0  0  0  0
 68 67  1  0  0  0  0
 69 48  4  0  0  0  0
 70 69  1  0  0  0  0
 71 49  4  0  0  0  0
 72 71  1  0  0  0  0
 73 46  4  0  0  0  0
 74 73  1  0  0  0  0
 75  2  1  0  0  0  0
 76 75  1  0  0  0  0
 77 16  1  0  0  0  0
 78 50  1  0  0  0  0
 79 78  1  0  0  0  0
 80 78  1  0  0  0  0
 81 78  1  0  0  0  0
 82  1  1  0  0  0  0
 83 82  1  0  0  0  0
 84  2  1  0  0  0  0
 85 84  1  0  0  0  0
 86 71  4  0  0  0  0
 87 86  1  0  0  0  0
 88 55  1  0  0  0  0
 89 88  1  0  0  0  0
 90 88  1  0  0  0  0
 91 88  1  0  0  0  0
 92 67  4  0  0  0  0
 93 92  1  0  0  0  0
 94 17  1  0  0  0  0
 95 82  1  0  0  0  0
 96 95  1  0  0  0  0
 97 95  1  0  0  0  0
 98 95  1  0  0  0  0
 99 75  1  0  0  0  0
100 99  1  0  0  0  0
101 99  1  0  0  0  0
102 99  1  0  0  0  0
103 75  1  0  0  0  0
104103  1  0  0  0  0
105103  1  0  0  0  0
106103  1  0  0  0  0
107 55  1  0  0  0  0
108107  1  0  0  0  0
109107  1  0  0  0  0
110107  1  0  0  0  0
111 84  1  0  0  0  0
112111  1  0  0  0  0
113111  1  0  0  0  0
114111  1  0  0  0  0
115 82  1  0  0  0  0
116115  1  0  0  0  0
117115  1  0  0  0  0
118115  1  0  0  0  0
119 84  1  0  0  0  0
120119  1  0  0  0  0
121119  1  0  0  0  0
122119  1  0  0  0  0
123  2  1  0  0  0  0
124  1  1  0  0  0  0
125 77  1  0  0  0  0
126 77  1  0  0  0  0
127 94  1  0  0  0  0
128 94  1  0  0  0  0
129169  1  0  0  0  0
130174  1  0  0  0  0
131143  1  0  0  0  0
132150  1  0  0  0  0
133173  1  0  0  0  0
134147  1  0  0  0  0
135123  1  0  0  0  0
136171  1  0  0  0  0
137149  1  0  0  0  0
138153  1  0  0  0  0
139182  1  0  0  0  0
140148  1  0  0  0  0
141168  1  0  0  0  0
142179  1  0  0  0  0
143144  4  0  0  0  0
144153  4  0  0  0  0
145147  4  0  0  0  0
146148  4  0  0  0  0
147152  4  0  0  0  0
148172  4  0  0  0  0
149150  4  0  0  0  0
150143  4  0  0  0  0
151152  1  0  0  0  0
152156  4  0  0  0  0
153168  4  0  0  0  0
154145  4  0  0  0  0
155154  1  0  0  0  0
156157  1  0  0  0  0
158151  1  0  0  0  0
159158  1  0  0  0  0
160158  1  0  0  0  0
161158  1  0  0  0  0
162140  1  0  0  0  0
163134  1  0  0  0  0
164146  4  0  0  0  0
165164  1  0  0  0  0
166154  4  0  0  0  0
167166  1  0  0  0  0
168149  4  0  0  0  0
169162  4  0  0  0  0
170171  4  0  0  0  0
171182  4  0  0  0  0
172178  1  0  0  0  0
173170  4  0  0  0  0
174163  4  0  0  0  0
175135  1  0  0  0  0
176162  4  0  0  0  0
177151  1  0  0  0  0
178176  1  0  0  0  0
179173  4  0  0  0  0
180172  4  0  0  0  0
181180  1  0  0  0  0
182175  4  0  0  0  0
183129  1  0  0  0  0
184183  1  0  0  0  0
185164  4  0  0  0  0
186185  1  0  0  0  0
187178  1  0  0  0  0
188187  1  0  0  0  0
189187  1  0  0  0  0
190187  1  0  0  0  0
191151  1  0  0  0  0
192191  1  0  0  0  0
193191  1  0  0  0  0
194191  1  0  0  0  0
195169  4  0  0  0  0
196195  1  0  0  0  0
197176  4  0  0  0  0
198197  1  0  0  0  0
199177  4  0  0  0  0
200199  1  0  0  0  0
201174  4  0  0  0  0
202201  1  0  0  0  0
203130  1  0  0  0  0
204203  1  0  0  0  0
205144  1  0  0  0  0
206178  1  0  0  0  0
207206  1  0  0  0  0
208206  1  0  0  0  0
209206  1  0  0  0  0
210129  1  0  0  0  0
211210  1  0  0  0  0
212130  1  0  0  0  0
213212  1  0  0  0  0
214199  4  0  0  0  0
215214  1  0  0  0  0
216183  1  0  0  0  0
217216  1  0  0  0  0
218216  1  0  0  0  0
219216  1  0  0  0  0
220195  4  0  0  0  0
221220  1  0  0  0  0
222145  1  0  0  0  0
223210  1  0  0  0  0
224223  1  0  0  0  0
225223  1  0  0  0  0
226223  1  0  0  0  0
227203  1  0  0  0  0
228227  1  0  0  0  0
229227  1  0  0  0  0
230227  1  0  0  0  0
231203  1  0  0  0  0
232231  1  0  0  0  0
233231  1  0  0  0  0
234231  1  0  0  0  0
235183  1  0  0  0  0
236235  1  0  0  0  0
237235  1  0  0  0  0
238235  1  0  0  0  0
239212  1  0  0  0  0
240239  1  0  0  0  0
241239  1  0  0  0  0
242239  1  0  0  0  0
243210  1  0  0  0  0
244243  1  0  0  0  0
245243  1  0  0  0  0
246243  1  0  0  0  0
247212  1  0  0  0  0
248247  1  0  0  0  0
249247  1  0  0  0  0
250247  1  0  0  0  0
251  7  1  0  0  0  0
252129  1  0  0  0  0
253205  1  0  0  0  0
254205  1  0  0  0  0
255222  1  0  0  0  0
256222  1  0  0  0  0
  3123  1  0  0  0  0
  6123  1  0  0  0  0
 12124  1  0  0  0  0
 18 77  1  0  0  0  0
 28 38  4  0  0  0  0
 35 49  4  0  0  0  0
 42 94  1  0  0  0  0
 52 57  4  0  0  0  0
 69 92  4  0  0  0  0
 73 86  4  0  0  0  0
123127  1  0  0  0  0
123128  1  0  0  0  0
124125  1  0  0  0  0
124126  1  0  0  0  0
130251  1  0  0  0  0
131251  1  0  0  0  0
134251  1  0  0  0  0
140252  1  0  0  0  0
146205  1  0  0  0  0
156166  4  0  0  0  0
163177  4  0  0  0  0
170222  1  0  0  0  0
175179  4  0  0  0  0
180185  4  0  0  0  0
197220  4  0  0  0  0
201214  4  0  0  0  0
251255  1  0  0  0  0
251256  1  0  0  0  0
252253  1  0  0  0  0
252254  1  0  0  0  0
M  CHG  8  77  -1  94  -1 123   1 124   1 205  -1 222  -1 251   1 252   1
M  END
$$$$
DOZGUY

From CSD data. Using bond type 'Any'. Matching problem. No disordered atoms. Largest molecule.
154169  0  0  0  0  0  0  0  0999 V2000
    8.8824    5.4844    8.7580 Si  0  0  0  0  0  0  0  0  0  0  0  0
    7.4462    5.5209    6.0934 N   0  0  0  0  0  0  0  0  0  0  0  0
    8.1954    3.4222    6.4792 N   0  0  0  0  0  0  0  0  0  0  0  0
    7.0579    4.7001    5.0255 C   0  0  0  0  0  0  0  0  0  0  0  0
    7.5009    3.4503    5.2493 C   0  0  0  0  0  0  0  0  0  0  0  0
    6.3189    5.2309    3.8387 C   0  0  0  0  0  0  0  0  0  0  0  0
    5.5738    5.7582    4.1354 H   0  0  0  0  0  0  0  0  0  0  0  0
    6.0008    4.4978    3.3075 H   0  0  0  0  0  0  0  0  0  0  0  0
    6.9068    5.7757    3.3128 H   0  0  0  0  0  0  0  0  0  0  0  0
    7.3236    2.2203    4.4122 C   0  0  0  0  0  0  0  0  0  0  0  0
    8.1834    1.9151    4.1062 H   0  0  0  0  0  0  0  0  0  0  0  0
    6.7685    2.4260    3.6559 H   0  0  0  0  0  0  0  0  0  0  0  0
    6.9075    1.5328    4.9367 H   0  0  0  0  0  0  0  0  0  0  0  0
    7.0913    6.9122    6.1434 C   0  0  0  0  0  0  0  0  0  0  0  0
    7.9140    7.8382    5.4917 C   0  0  0  0  0  0  0  0  0  0  0  0
    6.5163    9.5990    6.3196 C   0  0  0  0  0  0  0  0  0  0  0  0
    6.3297   10.5074    6.3925 H   0  0  0  0  0  0  0  0  0  0  0  0
    5.6855    8.6823    6.9144 C   0  0  0  0  0  0  0  0  0  0  0  0
    4.9325    8.9805    7.3700 H   0  0  0  0  0  0  0  0  0  0  0  0
    5.9447    7.3132    6.8534 C   0  0  0  0  0  0  0  0  0  0  0  0
    7.6156    9.1862    5.6202 C   0  0  0  0  0  0  0  0  0  0  0  0
    8.1734    9.8176    5.2242 H   0  0  0  0  0  0  0  0  0  0  0  0
    9.1182    7.4056    4.6679 C   0  0  0  0  0  0  0  0  0  0  0  0
    8.9984    6.4597    4.4413 H   0  0  0  0  0  0  0  0  0  0  0  0
   10.4174    7.5354    5.4772 C   0  0  0  0  0  0  0  0  0  0  0  0
   10.5360    8.4485    5.7461 H   0  0  0  0  0  0  0  0  0  0  0  0
   11.1596    7.2606    4.9354 H   0  0  0  0  0  0  0  0  0  0  0  0
   10.3675    6.9765    6.2560 H   0  0  0  0  0  0  0  0  0  0  0  0
    9.2290    8.1936    3.3512 C   0  0  0  0  0  0  0  0  0  0  0  0
    8.4344    8.0650    2.8320 H   0  0  0  0  0  0  0  0  0  0  0  0
    9.9882    7.8791    2.8532 H   0  0  0  0  0  0  0  0  0  0  0  0
    9.3405    9.1266    3.5446 H   0  0  0  0  0  0  0  0  0  0  0  0
    5.0232    6.3182    7.5157 C   0  0  0  0  0  0  0  0  0  0  0  0
    5.4903    5.4823    7.7263 H   0  0  0  0  0  0  0  0  0  0  0  0
    4.4402    6.9882    8.8085 C   0  0  0  0  0  0  0  0  0  0  0  0
    5.1501    7.3997    9.3052 H   0  0  0  0  0  0  0  0  0  0  0  0
    4.0143    6.3194    9.3516 H   0  0  0  0  0  0  0  0  0  0  0  0
    3.7949    7.6546    8.5608 H   0  0  0  0  0  0  0  0  0  0  0  0
    3.7787    6.0657    6.7117 C   0  0  0  0  0  0  0  0  0  0  0  0
    3.2600    6.8713    6.6653 H   0  0  0  0  0  0  0  0  0  0  0  0
    3.2614    5.3736    7.1303 H   0  0  0  0  0  0  0  0  0  0  0  0
    4.0240    5.7898    5.8242 H   0  0  0  0  0  0  0  0  0  0  0  0
    8.7214    2.1758    6.9753 C   0  0  0  0  0  0  0  0  0  0  0  0
    8.0014    1.4849    7.9674 C   0  0  0  0  0  0  0  0  0  0  0  0
    8.4890    0.2257    8.3476 C   0  0  0  0  0  0  0  0  0  0  0  0
    8.0338   -0.2619    8.9966 H   0  0  0  0  0  0  0  0  0  0  0  0
    9.6219   -0.3005    7.7806 C   0  0  0  0  0  0  0  0  0  0  0  0
    9.9248   -1.1388    8.0482 H   0  0  0  0  0  0  0  0  0  0  0  0
   10.3138    0.3975    6.8230 C   0  0  0  0  0  0  0  0  0  0  0  0
   11.0812    0.0234    6.4534 H   0  0  0  0  0  0  0  0  0  0  0  0
    9.8916    1.6556    6.3898 C   0  0  0  0  0  0  0  0  0  0  0  0
    6.7278    2.0262    8.5767 C   0  0  0  0  0  0  0  0  0  0  0  0
    6.6602    2.9756    8.3409 H   0  0  0  0  0  0  0  0  0  0  0  0
    6.7245    1.9186   10.0920 C   0  0  0  0  0  0  0  0  0  0  0  0
    6.7213    0.9926   10.3464 H   0  0  0  0  0  0  0  0  0  0  0  0
    5.9415    2.3512   10.4417 H   0  0  0  0  0  0  0  0  0  0  0  0
    7.5097    2.3430   10.4444 H   0  0  0  0  0  0  0  0  0  0  0  0
    5.5001    1.3083    8.0032 C   0  0  0  0  0  0  0  0  0  0  0  0
    5.4552    1.4580    7.0548 H   0  0  0  0  0  0  0  0  0  0  0  0
    4.7040    1.6497    8.4191 H   0  0  0  0  0  0  0  0  0  0  0  0
    5.5735    0.3660    8.1740 H   0  0  0  0  0  0  0  0  0  0  0  0
   10.6964    2.4506    5.3898 C   0  0  0  0  0  0  0  0  0  0  0  0
   10.0880    3.0773    4.9473 H   0  0  0  0  0  0  0  0  0  0  0  0
   11.7655    3.2737    6.1196 C   0  0  0  0  0  0  0  0  0  0  0  0
   11.3519    3.7998    6.8071 H   0  0  0  0  0  0  0  0  0  0  0  0
   12.2049    3.8548    5.4944 H   0  0  0  0  0  0  0  0  0  0  0  0
   12.4092    2.6821    6.5143 H   0  0  0  0  0  0  0  0  0  0  0  0
   11.3407    1.5936    4.3115 C   0  0  0  0  0  0  0  0  0  0  0  0
   11.9662    0.9880    4.7155 H   0  0  0  0  0  0  0  0  0  0  0  0
   11.8015    2.1583    3.6863 H   0  0  0  0  0  0  0  0  0  0  0  0
   10.6631    1.0932    3.8519 H   0  0  0  0  0  0  0  0  0  0  0  0
    8.1724    4.7317    7.0375 B   0  0  0  0  0  0  0  0  0  0  0  0
   11.1617    5.7639    9.2483 P   0  0  0  0  0  0  0  0  0  0  0  0
   10.5883    7.9507    9.5495 P   0  0  0  0  0  0  0  0  0  0  0  0
    8.4201    7.7035    9.1473 P   0  0  0  0  0  0  0  0  0  0  0  0
    8.6733    4.6896   10.2099 O   0  0  0  0  0  0  0  0  0  0  0  0
    9.1902    7.6625   11.2303 P   0  0  0  0  0  0  0  0  0  0  0  0
    9.7527    5.4844   11.1108 Si  0  0  0  0  0  0  0  0  0  0  0  0
   11.1888    5.5209   13.7755 N   0  0  0  0  0  0  0  0  0  0  0  0
   10.4396    3.4222   13.3896 N   0  0  0  0  0  0  0  0  0  0  0  0
   11.5771    4.7001   14.8433 C   0  0  0  0  0  0  0  0  0  0  0  0
   11.1341    3.4503   14.6195 C   0  0  0  0  0  0  0  0  0  0  0  0
   12.3161    5.2309   16.0302 C   0  0  0  0  0  0  0  0  0  0  0  0
   13.0612    5.7582   15.7335 H   0  0  0  0  0  0  0  0  0  0  0  0
   12.6342    4.4978   16.5613 H   0  0  0  0  0  0  0  0  0  0  0  0
   11.7283    5.7757   16.5560 H   0  0  0  0  0  0  0  0  0  0  0  0
   11.3114    2.2203   15.4566 C   0  0  0  0  0  0  0  0  0  0  0  0
   10.4516    1.9151   15.7626 H   0  0  0  0  0  0  0  0  0  0  0  0
   11.8665    2.4260   16.2130 H   0  0  0  0  0  0  0  0  0  0  0  0
   11.7276    1.5328   14.9321 H   0  0  0  0  0  0  0  0  0  0  0  0
   11.5437    6.9122   13.7254 C   0  0  0  0  0  0  0  0  0  0  0  0
   10.7211    7.8382   14.3771 C   0  0  0  0  0  0  0  0  0  0  0  0
   12.1187    9.5990   13.5492 C   0  0  0  0  0  0  0  0  0  0  0  0
   12.3053   10.5074   13.4764 H   0  0  0  0  0  0  0  0  0  0  0  0
   12.9495    8.6823   12.9545 C   0  0  0  0  0  0  0  0  0  0  0  0
   13.7026    8.9805   12.4988 H   0  0  0  0  0  0  0  0  0  0  0  0
   12.6904    7.3132   13.0154 C   0  0  0  0  0  0  0  0  0  0  0  0
   11.0194    9.1862   14.2486 C   0  0  0  0  0  0  0  0  0  0  0  0
   10.4617    9.8176   14.6447 H   0  0  0  0  0  0  0  0  0  0  0  0
    9.5168    7.4056   15.2010 C   0  0  0  0  0  0  0  0  0  0  0  0
    9.6366    6.4597   15.4275 H   0  0  0  0  0  0  0  0  0  0  0  0
    8.2177    7.5354   14.3917 C   0  0  0  0  0  0  0  0  0  0  0  0
    8.0991    8.4485   14.1228 H   0  0  0  0  0  0  0  0  0  0  0  0
    7.4755    7.2606   14.9334 H   0  0  0  0  0  0  0  0  0  0  0  0
    8.2676    6.9765   13.6128 H   0  0  0  0  0  0  0  0  0  0  0  0
    9.4061    8.1936   16.5176 C   0  0  0  0  0  0  0  0  0  0  0  0
   10.2006    8.0650   17.0369 H   0  0  0  0  0  0  0  0  0  0  0  0
    8.6469    7.8791   17.0157 H   0  0  0  0  0  0  0  0  0  0  0  0
    9.2946    9.1266   16.3242 H   0  0  0  0  0  0  0  0  0  0  0  0
   13.6118    6.3182   12.3531 C   0  0  0  0  0  0  0  0  0  0  0  0
   13.1447    5.4823   12.1425 H   0  0  0  0  0  0  0  0  0  0  0  0
   14.1948    6.9882   11.0603 C   0  0  0  0  0  0  0  0  0  0  0  0
   13.4849    7.3997   10.5636 H   0  0  0  0  0  0  0  0  0  0  0  0
   14.6208    6.3194   10.5172 H   0  0  0  0  0  0  0  0  0  0  0  0
   14.8401    7.6546   11.3080 H   0  0  0  0  0  0  0  0  0  0  0  0
   14.8563    6.0657   13.1571 C   0  0  0  0  0  0  0  0  0  0  0  0
   15.3751    6.8713   13.2035 H   0  0  0  0  0  0  0  0  0  0  0  0
   15.3736    5.3736   12.7386 H   0  0  0  0  0  0  0  0  0  0  0  0
   14.6110    5.7898   14.0446 H   0  0  0  0  0  0  0  0  0  0  0  0
    9.9136    2.1758   12.8935 C   0  0  0  0  0  0  0  0  0  0  0  0
   10.6336    1.4849   11.9014 C   0  0  0  0  0  0  0  0  0  0  0  0
   10.1460    0.2257   11.5213 C   0  0  0  0  0  0  0  0  0  0  0  0
   10.6012   -0.2619   10.8722 H   0  0  0  0  0  0  0  0  0  0  0  0
    9.0131   -0.3005   12.0882 C   0  0  0  0  0  0  0  0  0  0  0  0
    8.7102   -1.1388   11.8206 H   0  0  0  0  0  0  0  0  0  0  0  0
    8.3212    0.3975   13.0459 C   0  0  0  0  0  0  0  0  0  0  0  0
    7.5538    0.0234   13.4154 H   0  0  0  0  0  0  0  0  0  0  0  0
    8.7435    1.6556   13.4790 C   0  0  0  0  0  0  0  0  0  0  0  0
   11.9072    2.0262   11.2921 C   0  0  0  0  0  0  0  0  0  0  0  0
   11.9748    2.9756   11.5279 H   0  0  0  0  0  0  0  0  0  0  0  0
   11.9105    1.9186    9.7768 C   0  0  0  0  0  0  0  0  0  0  0  0
   11.9137    0.9926    9.5225 H   0  0  0  0  0  0  0  0  0  0  0  0
   12.6935    2.3512    9.4271 H   0  0  0  0  0  0  0  0  0  0  0  0
   11.1254    2.3430    9.4244 H   0  0  0  0  0  0  0  0  0  0  0  0
   13.1349    1.3083   11.8657 C   0  0  0  0  0  0  0  0  0  0  0  0
   13.1799    1.4580   12.8141 H   0  0  0  0  0  0  0  0  0  0  0  0
   13.9310    1.6497   11.4497 H   0  0  0  0  0  0  0  0  0  0  0  0
   13.0616    0.3660   11.6948 H   0  0  0  0  0  0  0  0  0  0  0  0
    7.9386    2.4506   14.4791 C   0  0  0  0  0  0  0  0  0  0  0  0
    8.5470    3.0773   14.9215 H   0  0  0  0  0  0  0  0  0  0  0  0
    6.8696    3.2737   13.7492 C   0  0  0  0  0  0  0  0  0  0  0  0
    7.2831    3.7998   13.0618 H   0  0  0  0  0  0  0  0  0  0  0  0
    6.4302    3.8548   14.3744 H   0  0  0  0  0  0  0  0  0  0  0  0
    6.2259    2.6821   13.3545 H   0  0  0  0  0  0  0  0  0  0  0  0
    7.2943    1.5936   15.5573 C   0  0  0  0  0  0  0  0  0  0  0  0
    6.6689    0.9880   15.1533 H   0  0  0  0  0  0  0  0  0  0  0  0
    6.8336    2.1583   16.1825 H   0  0  0  0  0  0  0  0  0  0  0  0
    7.9719    1.0932   16.0169 H   0  0  0  0  0  0  0  0  0  0  0  0
   10.4627    4.7317   12.8313 B   0  0  0  0  0  0  0  0  0  0  0  0
    7.4733    5.7639   10.6206 P   0  0  0  0  0  0  0  0  0  0  0  0
    8.0467    7.9507   10.3193 P   0  0  0  0  0  0  0  0  0  0  0  0
   10.2150    7.7035   10.7215 P   0  0  0  0  0  0  0  0  0  0  0  0
    9.9618    4.6896    9.6589 O   0  0  0  0  0  0  0  0  0  0  0  0
    9.4449    7.6625    8.6386 P   0  0  0  0  0  0  0  0  0  0  0  0
  1 72  1  0  0  0  0
  2  4  1  0  0  0  0
  3  5  1  0  0  0  0
  4  5  1  0  0  0  0
  5 10  1  0  0  0  0
  6  4  1  0  0  0  0
  7  6  1  0  0  0  0
  8  6  1  0  0  0  0
  9  6  1  0  0  0  0
 10 11  1  0  0  0  0
 12 10  1  0  0  0  0
 13 10  1  0  0  0  0
 14  2  1  0  0  0  0
 15 14  1  0  0  0  0
 16 17  1  0  0  0  0
 18 16  1  0  0  0  0
 19 18  1  0  0  0  0
 20 14  1  0  0  0  0
 21 15  1  0  0  0  0
 22 21  1  0  0  0  0
 23 15  1  0  0  0  0
 24 23  1  0  0  0  0
 25 23  1  0  0  0  0
 26 25  1  0  0  0  0
 27 25  1  0  0  0  0
 28 25  1  0  0  0  0
 29 23  1  0  0  0  0
 30 29  1  0  0  0  0
 31 29  1  0  0  0  0
 32 29  1  0  0  0  0
 33 20  1  0  0  0  0
 34 33  1  0  0  0  0
 35 33  1  0  0  0  0
 36 35  1  0  0  0  0
 37 35  1  0  0  0  0
 38 35  1  0  0  0  0
 39 33  1  0  0  0  0
 40 39  1  0  0  0  0
 41 39  1  0  0  0  0
 42 39  1  0  0  0  0
 43  3  1  0  0  0  0
 44 43  1  0  0  0  0
 45 44  1  0  0  0  0
 46 45  1  0  0  0  0
 47 45  1  0  0  0  0
 48 47  1  0  0  0  0
 49 47  1  0  0  0  0
 50 49  1  0  0  0  0
 51 43  1  0  0  0  0
 52 44  1  0  0  0  0
 53 52  1  0  0  0  0
 54 52  1  0  0  0  0
 55 54  1  0  0  0  0
 56 54  1  0  0  0  0
 57 54  1  0  0  0  0
 58 52  1  0  0  0  0
 59 58  1  0  0  0  0
 60 58  1  0  0  0  0
 61 58  1  0  0  0  0
 62 51  1  0  0  0  0
 63 62  1  0  0  0  0
 64 62  1  0  0  0  0
 65 64  1  0  0  0  0
 66 64  1  0  0  0  0
 67 64  1  0  0  0  0
 68 62  1  0  0  0  0
 69 68  1  0  0  0  0
 70 68  1  0  0  0  0
 71 68  1  0  0  0  0
 72  2  1  0  0  0  0
 73  1  1  0  0  0  0
 74 73  1  0  0  0  0
 75  1  1  0  0  0  0
 76  1  1  0  0  0  0
 77 74  1  0  0  0  0
 78 73  1  0  0  0  0
 79 81  1  0  0  0  0
 80 82  1  0  0  0  0
 81 82  1  0  0  0  0
 82 87  1  0  0  0  0
 83 81  1  0  0  0  0
 84 83  1  0  0  0  0
 85 83  1  0  0  0  0
 86 83  1  0  0  0  0
 87 88  1  0  0  0  0
 89 87  1  0  0  0  0
 90 87  1  0  0  0  0
 91 79  1  0  0  0  0
 92 91  1  0  0  0  0
 93 94  1  0  0  0  0
 95 93  1  0  0  0  0
 96 95  1  0  0  0  0
 97 91  1  0  0  0  0
 98 92  1  0  0  0  0
 99 98  1  0  0  0  0
100 92  1  0  0  0  0
101100  1  0  0  0  0
102100  1  0  0  0  0
103102  1  0  0  0  0
104102  1  0  0  0  0
105102  1  0  0  0  0
106100  1  0  0  0  0
107106  1  0  0  0  0
108106  1  0  0  0  0
109106  1  0  0  0  0
110 97  1  0  0  0  0
111110  1  0  0  0  0
112110  1  0  0  0  0
113112  1  0  0  0  0
114112  1  0  0  0  0
115112  1  0  0  0  0
116110  1  0  0  0  0
117116  1  0  0  0  0
118116  1  0  0  0  0
119116  1  0  0  0  0
120 80  1  0  0  0  0
121120  1  0  0  0  0
122121  1  0  0  0  0
123122  1  0  0  0  0
124122  1  0  0  0  0
125124  1  0  0  0  0
126124  1  0  0  0  0
127126  1  0  0  0  0
128120  1  0  0  0  0
129121  1  0  0  0  0
130129  1  0  0  0  0
131129  1  0  0  0  0
132131  1  0  0  0  0
133131  1  0  0  0  0
134131  1  0  0  0  0
135129  1  0  0  0  0
136135  1  0  0  0  0
137135  1  0  0  0  0
138135  1  0  0  0  0
139128  1  0  0  0  0
140139  1  0  0  0  0
141139  1  0  0  0  0
142141  1  0  0  0  0
143141  1  0  0  0  0
144141  1  0  0  0  0
145139  1  0  0  0  0
146145  1  0  0  0  0
147145  1  0  0  0  0
148145  1  0  0  0  0
149 78  1  0  0  0  0
150  1  1  0  0  0  0
151 77  1  0  0  0  0
152 78  1  0  0  0  0
153  1  1  0  0  0  0
154  1  1  0  0  0  0
  3 72  1  0  0  0  0
 16 21  1  0  0  0  0
 18 20  1  0  0  0  0
 49 51  1  0  0  0  0
 73153  1  0  0  0  0
 74154  1  0  0  0  0
 76 78  1  0  0  0  0
 76150  1  0  0  0  0
 76153  1  0  0  0  0
 77 78  1  0  0  0  0
 78150  1  0  0  0  0
 78153  1  0  0  0  0
 79149  1  0  0  0  0
 80149  1  0  0  0  0
 93 98  1  0  0  0  0
 95 97  1  0  0  0  0
126128  1  0  0  0  0
150151  1  0  0  0  0
151154  1  0  0  0  0
M  END
$$$$
DUGNOM

From CSD data. Using bond type 'Any'. Matching problem. No disordered atoms. Largest molecule.
171188  0  0  0  0  0  0  0  0999 V2000
    3.7175   19.0852    6.8014 Ag  0  0  0  0  0  0  0  0  0  0  0  0
    5.4115   12.8437    4.6121 Ag  0  0  0  0  0  0  0  0  0  0  0  0
    7.4049   16.6765    6.0961 Co  0  0  0  0  0  0  0  0  0  0  0  0
    1.7211   22.7994    7.9616 Co  0  0  0  0  0  0  0  0  0  0  0  0
    6.0943   14.9413    5.6336 P   0  0  0  0  0  0  0  0  0  0  0  0
    2.0191   23.6493    5.9090 P   0  0  0  0  0  0  0  0  0  0  0  0
    2.7767   21.2730    6.7319 P   0  0  0  0  0  0  0  0  0  0  0  0
    5.2985   17.3222    6.4145 P   0  0  0  0  0  0  0  0  0  0  0  0
    2.1201   15.5119    6.0158 F   0  0  0  0  0  0  0  0  0  0  0  0
    4.3361    9.3018    7.5396 F   0  0  0  0  0  0  0  0  0  0  0  0
    5.2043   11.0888    6.4555 F   0  0  0  0  0  0  0  0  0  0  0  0
    1.8043   17.7260    5.7325 F   0  0  0  0  0  0  0  0  0  0  0  0
    2.1965   16.9004    7.7756 F   0  0  0  0  0  0  0  0  0  0  0  0
    0.2106   16.4633    6.7328 F   0  0  0  0  0  0  0  0  0  0  0  0
    3.0283   11.0657    7.1120 F   0  0  0  0  0  0  0  0  0  0  0  0
    8.8411   17.8850    7.0593 C   0  0  0  0  0  0  0  0  0  0  0  0
    9.1446   16.8575    5.0088 C   0  0  0  0  0  0  0  0  0  0  0  0
    9.1916   16.7124    4.0914 H   0  0  0  0  0  0  0  0  0  0  0  0
    9.1146   16.4956    7.2410 C   0  0  0  0  0  0  0  0  0  0  0  0
    9.1534   16.0700    8.0670 H   0  0  0  0  0  0  0  0  0  0  0  0
    0.1946   23.6577    9.1414 C   0  0  0  0  0  0  0  0  0  0  0  0
    0.2055   22.2371    9.2524 C   0  0  0  0  0  0  0  0  0  0  0  0
   -0.5054   21.6849    9.0181 H   0  0  0  0  0  0  0  0  0  0  0  0
    9.3211   15.8473    5.9886 C   0  0  0  0  0  0  0  0  0  0  0  0
    2.2374   22.9433    9.9631 C   0  0  0  0  0  0  0  0  0  0  0  0
    3.1120   22.9401   10.2790 H   0  0  0  0  0  0  0  0  0  0  0  0
    1.4513   21.7745    9.7708 C   0  0  0  0  0  0  0  0  0  0  0  0
    8.8867   18.1204    5.6095 C   0  0  0  0  0  0  0  0  0  0  0  0
   -1.0925   24.4161    8.7499 C   0  0  0  0  0  0  0  0  0  0  0  0
    1.5147   24.1224    9.6100 C   0  0  0  0  0  0  0  0  0  0  0  0
    1.7667   20.3883   10.2925 C   0  0  0  0  0  0  0  0  0  0  0  0
    9.8645   14.4527    5.7538 C   0  0  0  0  0  0  0  0  0  0  0  0
    3.2789   20.1199   10.3231 C   0  0  0  0  0  0  0  0  0  0  0  0
    3.7056   20.7579   10.8998 H   0  0  0  0  0  0  0  0  0  0  0  0
    3.6364   20.2013    9.4359 H   0  0  0  0  0  0  0  0  0  0  0  0
    3.4400   19.2328   10.6528 H   0  0  0  0  0  0  0  0  0  0  0  0
    8.6825   18.8452    8.2566 C   0  0  0  0  0  0  0  0  0  0  0  0
    5.7840   15.7936    7.1767 C   0  0  0  0  0  0  0  0  0  0  0  0
    3.7393    9.7356    5.4439 F   0  0  0  0  0  0  0  0  0  0  0  0
    7.2893   19.5046    8.3312 C   0  0  0  0  0  0  0  0  0  0  0  0
    6.6305   18.8380    8.5396 H   0  0  0  0  0  0  0  0  0  0  0  0
    7.0802   19.9077    7.4854 H   0  0  0  0  0  0  0  0  0  0  0  0
    7.2903   20.1783    9.0152 H   0  0  0  0  0  0  0  0  0  0  0  0
    5.6652   16.5018    4.8979 C   0  0  0  0  0  0  0  0  0  0  0  0
    0.1591   21.3461    5.2955 C   0  0  0  0  0  0  0  0  0  0  0  0
   -0.9552   25.2459    7.4689 C   0  0  0  0  0  0  0  0  0  0  0  0
   -0.7576   24.6643    6.7302 H   0  0  0  0  0  0  0  0  0  0  0  0
   -0.2430   25.8815    7.5736 H   0  0  0  0  0  0  0  0  0  0  0  0
   -1.7769   25.7112    7.2984 H   0  0  0  0  0  0  0  0  0  0  0  0
    1.3260   22.0025    6.0099 C   0  0  0  0  0  0  0  0  0  0  0  0
    1.2234   20.3589   11.7395 C   0  0  0  0  0  0  0  0  0  0  0  0
    1.4285   19.5116   12.1412 H   0  0  0  0  0  0  0  0  0  0  0  0
    0.2718   20.4851   11.7266 H   0  0  0  0  0  0  0  0  0  0  0  0
    1.6325   21.0621   12.2492 H   0  0  0  0  0  0  0  0  0  0  0  0
    3.4309   22.9240    6.7127 C   0  0  0  0  0  0  0  0  0  0  0  0
    4.3352   14.3088    8.5007 C   0  0  0  0  0  0  0  0  0  0  0  0
    4.5232   13.5815    7.9031 H   0  0  0  0  0  0  0  0  0  0  0  0
    3.5770   14.8010    8.1773 H   0  0  0  0  0  0  0  0  0  0  0  0
    4.1426   13.9629    9.3753 H   0  0  0  0  0  0  0  0  0  0  0  0
    5.2436   16.3802    9.5585 C   0  0  0  0  0  0  0  0  0  0  0  0
    5.0406   16.0102   10.4207 H   0  0  0  0  0  0  0  0  0  0  0  0
    4.4884   16.8785    9.2380 H   0  0  0  0  0  0  0  0  0  0  0  0
    6.0037   16.9624    9.6311 H   0  0  0  0  0  0  0  0  0  0  0  0
    1.0640   19.2916    9.4949 C   0  0  0  0  0  0  0  0  0  0  0  0
    1.3828   19.3002    8.5893 H   0  0  0  0  0  0  0  0  0  0  0  0
    0.1167   19.4476    9.5020 H   0  0  0  0  0  0  0  0  0  0  0  0
    1.2506   18.4376    9.8916 H   0  0  0  0  0  0  0  0  0  0  0  0
    5.5617   15.2438    8.5757 C   0  0  0  0  0  0  0  0  0  0  0  0
    9.0414   19.3987    4.7785 C   0  0  0  0  0  0  0  0  0  0  0  0
    9.6291   14.0068    4.3015 C   0  0  0  0  0  0  0  0  0  0  0  0
   10.0752   14.6124    3.7042 H   0  0  0  0  0  0  0  0  0  0  0  0
    8.6879   14.0083    4.1141 H   0  0  0  0  0  0  0  0  0  0  0  0
    9.9788   13.1211    4.1776 H   0  0  0  0  0  0  0  0  0  0  0  0
    3.5853   25.4417   10.2570 C   0  0  0  0  0  0  0  0  0  0  0  0
    3.7783   24.8741   11.0070 H   0  0  0  0  0  0  0  0  0  0  0  0
    3.9151   26.3262   10.4322 H   0  0  0  0  0  0  0  0  0  0  0  0
    4.0108   25.0907    9.4719 H   0  0  0  0  0  0  0  0  0  0  0  0
   -2.2277   23.4145    8.5189 C   0  0  0  0  0  0  0  0  0  0  0  0
   -3.0215   23.8857    8.2563 H   0  0  0  0  0  0  0  0  0  0  0  0
   -2.3961   22.9293    9.3295 H   0  0  0  0  0  0  0  0  0  0  0  0
   -1.9757   22.8005    7.8247 H   0  0  0  0  0  0  0  0  0  0  0  0
    5.0231   18.3287    3.3132 C   0  0  0  0  0  0  0  0  0  0  0  0
    5.7963   18.8270    3.5888 H   0  0  0  0  0  0  0  0  0  0  0  0
    4.2737   18.5717    3.8614 H   0  0  0  0  0  0  0  0  0  0  0  0
    4.8257   18.5271    2.3948 H   0  0  0  0  0  0  0  0  0  0  0  0
    4.8575   23.4057    6.8771 C   0  0  0  0  0  0  0  0  0  0  0  0
   -0.5371   20.3089    6.1717 C   0  0  0  0  0  0  0  0  0  0  0  0
    0.1038   19.6600    6.4710 H   0  0  0  0  0  0  0  0  0  0  0  0
   -1.2240   19.8700    5.6644 H   0  0  0  0  0  0  0  0  0  0  0  0
   -0.9303   20.7442    6.9321 H   0  0  0  0  0  0  0  0  0  0  0  0
   11.3753   14.5437    6.0173 C   0  0  0  0  0  0  0  0  0  0  0  0
   11.7850   13.6956    5.8296 H   0  0  0  0  0  0  0  0  0  0  0  0
   11.5276   14.7764    6.9355 H   0  0  0  0  0  0  0  0  0  0  0  0
   11.7597   15.2160    5.4488 H   0  0  0  0  0  0  0  0  0  0  0  0
    9.2788   13.4126    6.6985 C   0  0  0  0  0  0  0  0  0  0  0  0
    8.3413   13.3094    6.5193 H   0  0  0  0  0  0  0  0  0  0  0  0
    9.4013   13.6997    7.6063 H   0  0  0  0  0  0  0  0  0  0  0  0
    9.7242   12.5726    6.5656 H   0  0  0  0  0  0  0  0  0  0  0  0
    8.8877   18.0819    9.5750 C   0  0  0  0  0  0  0  0  0  0  0  0
    8.7629   18.6812   10.3145 H   0  0  0  0  0  0  0  0  0  0  0  0
    9.7775   17.7222    9.6014 H   0  0  0  0  0  0  0  0  0  0  0  0
    8.2512   17.3656    9.6325 H   0  0  0  0  0  0  0  0  0  0  0  0
    0.7390   20.6396    4.0647 C   0  0  0  0  0  0  0  0  0  0  0  0
    1.1527   21.2872    3.4893 H   0  0  0  0  0  0  0  0  0  0  0  0
    0.0341   20.1935    3.5899 H   0  0  0  0  0  0  0  0  0  0  0  0
    1.3939   19.9956    4.3444 H   0  0  0  0  0  0  0  0  0  0  0  0
   -1.5397   25.3461    9.8881 C   0  0  0  0  0  0  0  0  0  0  0  0
   -0.9394   26.0930    9.9457 H   0  0  0  0  0  0  0  0  0  0  0  0
   -1.5307   24.8635   10.7179 H   0  0  0  0  0  0  0  0  0  0  0  0
   -2.4287   25.6629    9.7118 H   0  0  0  0  0  0  0  0  0  0  0  0
    9.7367   19.9594    8.2564 C   0  0  0  0  0  0  0  0  0  0  0  0
    9.5680   20.5602    7.5263 H   0  0  0  0  0  0  0  0  0  0  0  0
   10.6109   19.5732    8.1554 H   0  0  0  0  0  0  0  0  0  0  0  0
    9.6944   20.4418    9.0844 H   0  0  0  0  0  0  0  0  0  0  0  0
    8.8320   19.1406    3.2806 C   0  0  0  0  0  0  0  0  0  0  0  0
    9.4804   18.5029    2.9715 H   0  0  0  0  0  0  0  0  0  0  0  0
    8.9372   19.9630    2.7960 H   0  0  0  0  0  0  0  0  0  0  0  0
    7.9489   18.7945    3.1359 H   0  0  0  0  0  0  0  0  0  0  0  0
    6.7535   14.4419    9.0905 C   0  0  0  0  0  0  0  0  0  0  0  0
    6.8984   13.6827    8.5211 H   0  0  0  0  0  0  0  0  0  0  0  0
    6.5750   14.1418    9.9848 H   0  0  0  0  0  0  0  0  0  0  0  0
    7.5370   14.9967    9.0895 H   0  0  0  0  0  0  0  0  0  0  0  0
    5.4847   22.8688    8.1655 C   0  0  0  0  0  0  0  0  0  0  0  0
    6.4176   23.0954    8.1856 H   0  0  0  0  0  0  0  0  0  0  0  0
    5.3868   21.9143    8.1953 H   0  0  0  0  0  0  0  0  0  0  0  0
    5.0440   23.2598    8.9231 H   0  0  0  0  0  0  0  0  0  0  0  0
    2.0660   25.4969   10.0352 C   0  0  0  0  0  0  0  0  0  0  0  0
    5.3017   16.8293    3.4635 C   0  0  0  0  0  0  0  0  0  0  0  0
    4.9199   24.9397    6.8169 C   0  0  0  0  0  0  0  0  0  0  0  0
    4.3109   25.3105    7.4587 H   0  0  0  0  0  0  0  0  0  0  0  0
    4.6766   25.2352    5.9361 H   0  0  0  0  0  0  0  0  0  0  0  0
    5.8128   25.2315    7.0162 H   0  0  0  0  0  0  0  0  0  0  0  0
    8.1266   20.5543    5.1457 C   0  0  0  0  0  0  0  0  0  0  0  0
    7.2109   20.2698    5.0831 H   0  0  0  0  0  0  0  0  0  0  0  0
    8.2755   21.2865    4.5440 H   0  0  0  0  0  0  0  0  0  0  0  0
    8.3116   20.8360    6.0451 H   0  0  0  0  0  0  0  0  0  0  0  0
    5.6488   22.8502    5.6810 C   0  0  0  0  0  0  0  0  0  0  0  0
    6.5555   23.1614    5.7253 H   0  0  0  0  0  0  0  0  0  0  0  0
    5.2460   23.1519    4.8636 H   0  0  0  0  0  0  0  0  0  0  0  0
    5.6375   21.8907    5.7084 H   0  0  0  0  0  0  0  0  0  0  0  0
    6.3847   16.3446    2.5039 C   0  0  0  0  0  0  0  0  0  0  0  0
    6.5177   15.4013    2.6214 H   0  0  0  0  0  0  0  0  0  0  0  0
    7.2050   16.8087    2.6864 H   0  0  0  0  0  0  0  0  0  0  0  0
    6.1126   16.5193    1.5999 H   0  0  0  0  0  0  0  0  0  0  0  0
    1.7842   26.6304    9.0457 C   0  0  0  0  0  0  0  0  0  0  0  0
    2.0951   26.3789    8.1738 H   0  0  0  0  0  0  0  0  0  0  0  0
    2.2395   27.4253    9.3321 H   0  0  0  0  0  0  0  0  0  0  0  0
    0.8388   26.7978    9.0128 H   0  0  0  0  0  0  0  0  0  0  0  0
    4.0008   16.0757    3.1588 C   0  0  0  0  0  0  0  0  0  0  0  0
    3.7377   16.2471    2.2513 H   0  0  0  0  0  0  0  0  0  0  0  0
    3.3109   16.3747    3.7543 H   0  0  0  0  0  0  0  0  0  0  0  0
    4.1419   15.1336    3.2782 H   0  0  0  0  0  0  0  0  0  0  0  0
    1.4875   25.8219   11.4238 C   0  0  0  0  0  0  0  0  0  0  0  0
    0.5437   25.9769   11.3483 H   0  0  0  0  0  0  0  0  0  0  0  0
    1.9149   26.6081   11.7714 H   0  0  0  0  0  0  0  0  0  0  0  0
    1.6451   25.0833   12.0160 H   0  0  0  0  0  0  0  0  0  0  0  0
   -0.8388   22.4048    4.8214 C   0  0  0  0  0  0  0  0  0  0  0  0
   -1.2336   22.8359    5.5829 H   0  0  0  0  0  0  0  0  0  0  0  0
   -1.5262   21.9852    4.2990 H   0  0  0  0  0  0  0  0  0  0  0  0
   -0.3824   23.0572    4.2851 H   0  0  0  0  0  0  0  0  0  0  0  0
   10.5327   19.7939    4.9089 C   0  0  0  0  0  0  0  0  0  0  0  0
   10.7229   20.0327    5.8185 H   0  0  0  0  0  0  0  0  0  0  0  0
   10.7176   20.5424    4.3360 H   0  0  0  0  0  0  0  0  0  0  0  0
   11.0851   19.0513    4.6509 H   0  0  0  0  0  0  0  0  0  0  0  0
    1.5553   16.6383    6.5715 B   0  0  0  0  0  0  0  0  0  0  0  0
    4.0692   10.2833    6.6247 B   0  0  0  0  0  0  0  0  0  0  0  0
    3.0569   13.0903    5.2496 O   0  0  0  0  0  0  0  0  0  0  0  0
    2.9250   13.8737    5.5555 H   0  0  0  0  0  0  0  0  0  0  0  0
    2.8841   12.5750    5.9049 H   0  0  0  0  0  0  0  0  0  0  0  0
    2.1096   25.1003    3.9669 Ag  0  0  0  0  0  0  0  0  0  0  0  0
    5.5020   11.3927    2.6700 P   0  0  0  0  0  0  0  0  0  0  0  0
  1  7  1  0  0  0  0
  2  5  1  0  0  0  0
  3  5  8  0  0  0  0
  4  6  8  0  0  0  0
  5 38  4  0  0  0  0
  6 50  4  0  0  0  0
  7  4  8  0  0  0  0
  8  1  1  0  0  0  0
  9165  1  0  0  0  0
 10166  1  0  0  0  0
 11  2  1  0  0  0  0
 12  1  1  0  0  0  0
 13165  1  0  0  0  0
 14165  1  0  0  0  0
 15166  1  0  0  0  0
 16  3  8  0  0  0  0
 17  3  8  0  0  0  0
 18 17  1  0  0  0  0
 19  3  8  0  0  0  0
 20 19  1  0  0  0  0
 21  4  8  0  0  0  0
 22  4  8  0  0  0  0
 23 22  1  0  0  0  0
 24  3  8  0  0  0  0
 25  4  8  0  0  0  0
 26 25  1  0  0  0  0
 27  4  8  0  0  0  0
 28  3  8  0  0  0  0
 29 21  1  0  0  0  0
 30  4  8  0  0  0  0
 31 27  1  0  0  0  0
 32 24  1  0  0  0  0
 33 31  1  0  0  0  0
 34 33  1  0  0  0  0
 35 33  1  0  0  0  0
 36 33  1  0  0  0  0
 37 16  1  0  0  0  0
 38  3  8  0  0  0  0
 39166  1  0  0  0  0
 40 37  1  0  0  0  0
 41 40  1  0  0  0  0
 42 40  1  0  0  0  0
 43 40  1  0  0  0  0
 44  3  8  0  0  0  0
 45 50  1  0  0  0  0
 46 29  1  0  0  0  0
 47 46  1  0  0  0  0
 48 46  1  0  0  0  0
 49 46  1  0  0  0  0
 50  4  8  0  0  0  0
 51 31  1  0  0  0  0
 52 51  1  0  0  0  0
 53 51  1  0  0  0  0
 54 51  1  0  0  0  0
 55  4  8  0  0  0  0
 56 57  1  0  0  0  0
 58 56  1  0  0  0  0
 59 56  1  0  0  0  0
 60 61  1  0  0  0  0
 62 60  1  0  0  0  0
 63 60  1  0  0  0  0
 64 31  1  0  0  0  0
 65 64  1  0  0  0  0
 66 64  1  0  0  0  0
 67 64  1  0  0  0  0
 68 38  1  0  0  0  0
 69 28  1  0  0  0  0
 70 32  1  0  0  0  0
 71 70  1  0  0  0  0
 72 70  1  0  0  0  0
 73 70  1  0  0  0  0
 74 75  1  0  0  0  0
 76 74  1  0  0  0  0
 77 74  1  0  0  0  0
 78 29  1  0  0  0  0
 79 78  1  0  0  0  0
 80 78  1  0  0  0  0
 81 78  1  0  0  0  0
 82 83  1  0  0  0  0
 84 82  1  0  0  0  0
 85 82  1  0  0  0  0
 86 55  1  0  0  0  0
 87 45  1  0  0  0  0
 88 87  1  0  0  0  0
 89 87  1  0  0  0  0
 90 87  1  0  0  0  0
 91 32  1  0  0  0  0
 92 91  1  0  0  0  0
 93 91  1  0  0  0  0
 94 91  1  0  0  0  0
 95 32  1  0  0  0  0
 96 95  1  0  0  0  0
 97 95  1  0  0  0  0
 98 95  1  0  0  0  0
 99 37  1  0  0  0  0
100 99  1  0  0  0  0
101 99  1  0  0  0  0
102 99  1  0  0  0  0
103 45  1  0  0  0  0
104103  1  0  0  0  0
105103  1  0  0  0  0
106103  1  0  0  0  0
107 29  1  0  0  0  0
108107  1  0  0  0  0
109107  1  0  0  0  0
110107  1  0  0  0  0
111 37  1  0  0  0  0
112111  1  0  0  0  0
113111  1  0  0  0  0
114111  1  0  0  0  0
115 69  1  0  0  0  0
116115  1  0  0  0  0
117115  1  0  0  0  0
118115  1  0  0  0  0
119 68  1  0  0  0  0
120119  1  0  0  0  0
121119  1  0  0  0  0
122119  1  0  0  0  0
123 86  1  0  0  0  0
124123  1  0  0  0  0
125123  1  0  0  0  0
126123  1  0  0  0  0
127 30  1  0  0  0  0
128 44  1  0  0  0  0
129 86  1  0  0  0  0
130129  1  0  0  0  0
131129  1  0  0  0  0
132129  1  0  0  0  0
133 69  1  0  0  0  0
134133  1  0  0  0  0
135133  1  0  0  0  0
136133  1  0  0  0  0
137 86  1  0  0  0  0
138137  1  0  0  0  0
139137  1  0  0  0  0
140137  1  0  0  0  0
141128  1  0  0  0  0
142141  1  0  0  0  0
143141  1  0  0  0  0
144141  1  0  0  0  0
145127  1  0  0  0  0
146145  1  0  0  0  0
147145  1  0  0  0  0
148145  1  0  0  0  0
149128  1  0  0  0  0
150149  1  0  0  0  0
151149  1  0  0  0  0
152149  1  0  0  0  0
153127  1  0  0  0  0
154153  1  0  0  0  0
155153  1  0  0  0  0
156153  1  0  0  0  0
157 45  1  0  0  0  0
158157  1  0  0  0  0
159157  1  0  0  0  0
160157  1  0  0  0  0
161 69  1  0  0  0  0
162161  1  0  0  0  0
163161  1  0  0  0  0
164161  1  0  0  0  0
165 12  1  0  0  0  0
166 11  1  0  0  0  0
167  2  1  0  0  0  0
168167  1  0  0  0  0
169167  1  0  0  0  0
170  6  8  0  0  0  0
171  2  8  0  0  0  0
  3  8  8  0  0  0  0
  5 44  4  0  0  0  0
  6 55  4  0  0  0  0
  7 50  4  0  0  0  0
  7 55  4  0  0  0  0
  8 38  4  0  0  0  0
  8 44  4  0  0  0  0
 16 19  4  0  0  0  0
 16 28  4  0  0  0  0
 17 24  4  0  0  0  0
 17 28  4  0  0  0  0
 19 24  4  0  0  0  0
 21 22  4  0  0  0  0
 21 30  4  0  0  0  0
 22 27  4  0  0  0  0
 25 27  4  0  0  0  0
 25 30  4  0  0  0  0
 56 68  1  0  0  0  0
 60 68  1  0  0  0  0
 74127  1  0  0  0  0
 82128  1  0  0  0  0
M  END
$$$$
JUDJIF

From CSD data. Using bond type 'Any'. Matching problem. No disordered atoms. Largest molecule.
137145  0  0  0  0  0  0  0  0999 V2000
    6.9221   14.8501    3.7368 Ga  0  0  0  0  0  0  0  0  0  0  0  0
    8.6840   15.9922    2.5903 P   0  0  0  0  0  0  0  0  0  0  0  0
    5.8157   14.9938    1.6535 P   0  0  0  0  0  0  0  0  0  0  0  0
    7.0808   16.7867    1.2705 P   0  0  0  0  0  0  0  0  0  0  0  0
    7.9022   14.8547    0.8323 P   0  0  0  0  0  0  0  0  0  0  0  0
    7.4272   13.1777    4.2941 O   0  5  0  0  0  0  0  0  0  0  0  0
    6.1291   15.5494    5.2129 O   0  0  0  0  0  0  0  0  0  0  0  0
    8.6734   11.0379    4.1180 N   0  0  0  0  0  0  0  0  0  0  0  0
    6.9821   17.6420    6.3761 N   0  0  0  0  0  0  0  0  0  0  0  0
    6.6309   11.0828    3.0903 N   0  0  0  0  0  0  0  0  0  0  0  0
    4.8682   16.9076    6.8322 N   0  0  0  0  0  0  0  0  0  0  0  0
    8.2925   17.8831    5.8773 C   0  0  0  0  0  0  0  0  0  0  0  0
    9.9090   10.7386    6.1995 C   0  0  0  0  0  0  0  0  0  0  0  0
    3.5723   15.3216    8.1573 C   0  0  0  0  0  0  0  0  0  0  0  0
    8.6750   10.1228    6.8388 C   0  0  0  0  0  0  0  0  0  0  0  0
    8.1819    9.6141    6.1328 H   0  0  0  0  0  0  0  0  0  0  0  0
    8.3866    9.7746    3.5705 C   0  0  0  0  0  0  0  0  0  0  0  0
    8.9530    9.0135    3.6253 H   0  0  0  0  0  0  0  0  0  0  0  0
    7.1993    9.8070    2.9647 C   0  0  0  0  0  0  0  0  0  0  0  0
    6.7973    9.0735    2.5141 H   0  0  0  0  0  0  0  0  0  0  0  0
    6.3883   18.4633    7.3523 C   0  0  0  0  0  0  0  0  0  0  0  0
    6.8033   19.2176    7.7532 H   0  0  0  0  0  0  0  0  0  0  0  0
    9.8400   11.2639    4.8971 C   0  0  0  0  0  0  0  0  0  0  0  0
    4.7638   15.1292    9.0934 C   0  0  0  0  0  0  0  0  0  0  0  0
    5.3463   15.9356    8.9936 H   0  0  0  0  0  0  0  0  0  0  0  0
   11.0978   10.8853    6.9056 C   0  0  0  0  0  0  0  0  0  0  0  0
   11.1749   10.5065    7.7738 H   0  0  0  0  0  0  0  0  0  0  0  0
    3.6914   16.1175    7.0113 C   0  0  0  0  0  0  0  0  0  0  0  0
    4.5433   11.5347    5.0094 C   0  0  0  0  0  0  0  0  0  0  0  0
    5.4247   11.9630    5.2104 H   0  0  0  0  0  0  0  0  0  0  0  0
    8.5450   19.0508    5.1271 C   0  0  0  0  0  0  0  0  0  0  0  0
    2.6973   16.1338    6.0217 C   0  0  0  0  0  0  0  0  0  0  0  0
    5.1592   18.0315    7.6318 C   0  0  0  0  0  0  0  0  0  0  0  0
    4.5725   18.4200    8.2691 H   0  0  0  0  0  0  0  0  0  0  0  0
    9.2960   16.9432    6.1380 C   0  0  0  0  0  0  0  0  0  0  0  0
   10.9006   12.0139    4.3621 C   0  0  0  0  0  0  0  0  0  0  0  0
   12.1647   11.5691    6.3707 C   0  0  0  0  0  0  0  0  0  0  0  0
   12.9755   11.6420    6.8613 H   0  0  0  0  0  0  0  0  0  0  0  0
   12.0595   12.1493    5.1231 C   0  0  0  0  0  0  0  0  0  0  0  0
   12.7901   12.6493    4.7770 H   0  0  0  0  0  0  0  0  0  0  0  0
    4.2995   11.6760    3.5130 C   0  0  0  0  0  0  0  0  0  0  0  0
    5.3274   11.3890    2.5889 C   0  0  0  0  0  0  0  0  0  0  0  0
    2.3746   14.6166    8.3525 C   0  0  0  0  0  0  0  0  0  0  0  0
    2.2617   14.0916    9.1363 H   0  0  0  0  0  0  0  0  0  0  0  0
    7.7565   11.2457    7.3416 C   0  0  0  0  0  0  0  0  0  0  0  0
    8.1878   11.7095    8.0898 H   0  0  0  0  0  0  0  0  0  0  0  0
    6.9059   10.8630    7.6412 H   0  0  0  0  0  0  0  0  0  0  0  0
    7.5910   11.8821    6.6150 H   0  0  0  0  0  0  0  0  0  0  0  0
    8.9828    9.1598    7.9875 C   0  0  0  0  0  0  0  0  0  0  0  0
    9.5713    8.4453    7.6649 H   0  0  0  0  0  0  0  0  0  0  0  0
    8.1478    8.7700    8.3200 H   0  0  0  0  0  0  0  0  0  0  0  0
    9.4276    9.6473    8.7117 H   0  0  0  0  0  0  0  0  0  0  0  0
    1.5254   15.4098    6.2651 C   0  0  0  0  0  0  0  0  0  0  0  0
    0.8263   15.4221    5.6227 H   0  0  0  0  0  0  0  0  0  0  0  0
    9.8427   19.2405    4.6483 C   0  0  0  0  0  0  0  0  0  0  0  0
   10.0434   20.0282    4.1566 H   0  0  0  0  0  0  0  0  0  0  0  0
    3.0456   12.0249    3.0075 C   0  0  0  0  0  0  0  0  0  0  0  0
    2.3449   12.2478    3.6094 H   0  0  0  0  0  0  0  0  0  0  0  0
   10.8303   18.3289    4.8676 C   0  0  0  0  0  0  0  0  0  0  0  0
   11.7005   18.4771    4.5176 H   0  0  0  0  0  0  0  0  0  0  0  0
    1.3686   14.6768    7.4272 C   0  0  0  0  0  0  0  0  0  0  0  0
    0.5561   14.2110    7.5835 H   0  0  0  0  0  0  0  0  0  0  0  0
    9.0139   15.7241    6.9979 C   0  0  0  0  0  0  0  0  0  0  0  0
    8.1056   15.3895    6.7472 H   0  0  0  0  0  0  0  0  0  0  0  0
    7.4447   20.0202    4.7807 C   0  0  0  0  0  0  0  0  0  0  0  0
    6.8406   20.0230    5.5787 H   0  0  0  0  0  0  0  0  0  0  0  0
    4.6502   10.0608    5.4106 C   0  0  0  0  0  0  0  0  0  0  0  0
    3.8080    9.6045    5.2047 H   0  0  0  0  0  0  0  0  0  0  0  0
    4.8310    9.9959    6.3715 H   0  0  0  0  0  0  0  0  0  0  0  0
    5.3809    9.6388    4.9116 H   0  0  0  0  0  0  0  0  0  0  0  0
    6.0315   16.5957    6.0230 B   0  0  0  0  0  0  0  0  0  0  0  0
    3.4887   12.2409    5.8612 C   0  0  0  0  0  0  0  0  0  0  0  0
    3.4243   13.1801    5.5879 H   0  0  0  0  0  0  0  0  0  0  0  0
    3.7450   12.1921    6.8054 H   0  0  0  0  0  0  0  0  0  0  0  0
    2.6209   11.8038    5.7344 H   0  0  0  0  0  0  0  0  0  0  0  0
   10.5643   17.1904    5.5991 C   0  0  0  0  0  0  0  0  0  0  0  0
   11.2599   16.5583    5.7400 H   0  0  0  0  0  0  0  0  0  0  0  0
    2.8046   12.0515    1.6395 C   0  0  0  0  0  0  0  0  0  0  0  0
    1.9454   12.2916    1.3127 H   0  0  0  0  0  0  0  0  0  0  0  0
    5.0863   11.4119    1.2102 C   0  0  0  0  0  0  0  0  0  0  0  0
    6.1709   11.0750    0.1966 C   0  0  0  0  0  0  0  0  0  0  0  0
    7.0619   11.1090    0.6499 H   0  0  0  0  0  0  0  0  0  0  0  0
    3.8110   11.7301    0.7609 C   0  0  0  0  0  0  0  0  0  0  0  0
    3.6301   11.7254   -0.1716 H   0  0  0  0  0  0  0  0  0  0  0  0
   11.6789   13.8910    2.8350 C   0  0  0  0  0  0  0  0  0  0  0  0
   12.6201   13.6171    2.8424 H   0  0  0  0  0  0  0  0  0  0  0  0
   11.5126   14.5088    3.5769 H   0  0  0  0  0  0  0  0  0  0  0  0
   11.4758   14.3373    1.9862 H   0  0  0  0  0  0  0  0  0  0  0  0
   10.7844   12.6520    2.9888 C   0  0  0  0  0  0  0  0  0  0  0  0
    9.8383   12.9619    2.8911 H   0  0  0  0  0  0  0  0  0  0  0  0
    7.5500   11.9257    3.8540 B   0  0  0  0  0  0  0  0  0  0  0  0
    2.9130   16.9240    4.7433 C   0  0  0  0  0  0  0  0  0  0  0  0
    3.8884   16.8754    4.5263 H   0  0  0  0  0  0  0  0  0  0  0  0
    5.5742   13.9379    8.6227 C   0  0  0  0  0  0  0  0  0  0  0  0
    5.0953   13.1108    8.8401 H   0  0  0  0  0  0  0  0  0  0  0  0
    6.4457   13.9383    9.0695 H   0  0  0  0  0  0  0  0  0  0  0  0
    5.7036   13.9945    7.6527 H   0  0  0  0  0  0  0  0  0  0  0  0
    2.1520   16.3763    3.5344 C   0  0  0  0  0  0  0  0  0  0  0  0
    2.3391   15.4194    3.4359 H   0  0  0  0  0  0  0  0  0  0  0  0
    2.4382   16.8500    2.7255 H   0  0  0  0  0  0  0  0  0  0  0  0
    1.1897   16.5087    3.6667 H   0  0  0  0  0  0  0  0  0  0  0  0
    8.9670   16.0937    8.4689 C   0  0  0  0  0  0  0  0  0  0  0  0
    9.8608   16.3623    8.7670 H   0  0  0  0  0  0  0  0  0  0  0  0
    8.6672   15.3200    8.9904 H   0  0  0  0  0  0  0  0  0  0  0  0
    8.3419   16.8372    8.5990 H   0  0  0  0  0  0  0  0  0  0  0  0
    2.5701   18.4063    4.9679 C   0  0  0  0  0  0  0  0  0  0  0  0
    1.6106   18.4951    5.1501 H   0  0  0  0  0  0  0  0  0  0  0  0
    2.7985   18.9200    4.1656 H   0  0  0  0  0  0  0  0  0  0  0  0
    3.0800   18.7480    5.7315 H   0  0  0  0  0  0  0  0  0  0  0  0
    4.3869   15.0386   10.5510 C   0  0  0  0  0  0  0  0  0  0  0  0
    3.8977   15.8464   10.8128 H   0  0  0  0  0  0  0  0  0  0  0  0
    5.1984   14.9575   11.0940 H   0  0  0  0  0  0  0  0  0  0  0  0
    3.8188   14.2525   10.6931 H   0  0  0  0  0  0  0  0  0  0  0  0
    9.9899   14.5869    6.7679 C   0  0  0  0  0  0  0  0  0  0  0  0
    9.9808   14.3341    5.8216 H   0  0  0  0  0  0  0  0  0  0  0  0
    9.7284   13.8166    7.3148 H   0  0  0  0  0  0  0  0  0  0  0  0
   10.8923   14.8749    7.0207 H   0  0  0  0  0  0  0  0  0  0  0  0
    5.9684    9.6817   -0.3972 C   0  0  0  0  0  0  0  0  0  0  0  0
    5.8876    9.0263    0.3282 H   0  0  0  0  0  0  0  0  0  0  0  0
    6.7349    9.4510   -0.9613 H   0  0  0  0  0  0  0  0  0  0  0  0
    5.1501    9.6720   -0.9368 H   0  0  0  0  0  0  0  0  0  0  0  0
   11.0322   11.6426    1.8936 C   0  0  0  0  0  0  0  0  0  0  0  0
   11.9410   11.2869    1.9782 H   0  0  0  0  0  0  0  0  0  0  0  0
   10.9309   12.0774    1.0212 H   0  0  0  0  0  0  0  0  0  0  0  0
   10.3854   10.9113    1.9718 H   0  0  0  0  0  0  0  0  0  0  0  0
    6.1649   12.0824   -0.9762 C   0  0  0  0  0  0  0  0  0  0  0  0
    5.3349   11.9827   -1.4874 H   0  0  0  0  0  0  0  0  0  0  0  0
    6.9318   11.9068   -1.5610 H   0  0  0  0  0  0  0  0  0  0  0  0
    6.2247   12.9943   -0.6237 H   0  0  0  0  0  0  0  0  0  0  0  0
    7.8115   21.4840    4.5561 C   0  0  0  0  0  0  0  0  0  0  0  0
    8.3538   21.8032    5.3079 H   0  0  0  0  0  0  0  0  0  0  0  0
    6.9939   22.0196    4.4923 H   0  0  0  0  0  0  0  0  0  0  0  0
    8.3238   21.5677    3.7253 H   0  0  0  0  0  0  0  0  0  0  0  0
    6.5552   19.5452    3.6053 C   0  0  0  0  0  0  0  0  0  0  0  0
    7.0996   19.4732    2.7930 H   0  0  0  0  0  0  0  0  0  0  0  0
    5.8341   20.1920    3.4585 H   0  0  0  0  0  0  0  0  0  0  0  0
    6.1708   18.6696    3.8190 H   0  0  0  0  0  0  0  0  0  0  0  0
  1  2  1  0  0  0  0
  2  4  1  0  0  0  0
  3  1  1  0  0  0  0
  4  3  1  0  0  0  0
  5  2  1  0  0  0  0
  6  1  1  0  0  0  0
  7  1  1  0  0  0  0
  8 17  1  0  0  0  0
  9 12  1  0  0  0  0
 10 19  1  0  0  0  0
 11 28  1  0  0  0  0
 12 31  4  0  0  0  0
 13 15  1  0  0  0  0
 14 24  1  0  0  0  0
 15 16  1  0  0  0  0
 17 18  1  0  0  0  0
 19 17  2  0  0  0  0
 20 19  1  0  0  0  0
 21  9  1  0  0  0  0
 22 21  1  0  0  0  0
 23  8  1  0  0  0  0
 24 25  1  0  0  0  0
 26 13  4  0  0  0  0
 27 26  1  0  0  0  0
 28 14  4  0  0  0  0
 29 30  1  0  0  0  0
 31 55  4  0  0  0  0
 32 28  4  0  0  0  0
 33 11  1  0  0  0  0
 34 33  1  0  0  0  0
 35 12  4  0  0  0  0
 36 23  4  0  0  0  0
 37 26  4  0  0  0  0
 38 37  1  0  0  0  0
 39 36  4  0  0  0  0
 40 39  1  0  0  0  0
 41 29  1  0  0  0  0
 42 10  1  0  0  0  0
 43 14  4  0  0  0  0
 44 43  1  0  0  0  0
 45 15  1  0  0  0  0
 46 45  1  0  0  0  0
 47 45  1  0  0  0  0
 48 45  1  0  0  0  0
 49 15  1  0  0  0  0
 50 49  1  0  0  0  0
 51 49  1  0  0  0  0
 52 49  1  0  0  0  0
 53 32  4  0  0  0  0
 54 53  1  0  0  0  0
 55 56  1  0  0  0  0
 57 41  4  0  0  0  0
 58 57  1  0  0  0  0
 59 55  4  0  0  0  0
 60 59  1  0  0  0  0
 61 43  4  0  0  0  0
 62 61  1  0  0  0  0
 63 35  1  0  0  0  0
 64 63  1  0  0  0  0
 65 31  1  0  0  0  0
 66 65  1  0  0  0  0
 67 29  1  0  0  0  0
 68 67  1  0  0  0  0
 69 67  1  0  0  0  0
 70 67  1  0  0  0  0
 71  7  1  0  0  0  0
 72 29  1  0  0  0  0
 73 72  1  0  0  0  0
 74 72  1  0  0  0  0
 75 72  1  0  0  0  0
 76 35  4  0  0  0  0
 77 76  1  0  0  0  0
 78 57  4  0  0  0  0
 79 78  1  0  0  0  0
 80 42  4  0  0  0  0
 81 80  1  0  0  0  0
 82 81  1  0  0  0  0
 83 78  4  0  0  0  0
 84 83  1  0  0  0  0
 85 86  1  0  0  0  0
 87 85  1  0  0  0  0
 88 85  1  0  0  0  0
 89 36  1  0  0  0  0
 90 89  1  0  0  0  0
 91  6  1  0  0  0  0
 92 32  1  0  0  0  0
 93 92  1  0  0  0  0
 94 24  1  0  0  0  0
 95 94  1  0  0  0  0
 96 94  1  0  0  0  0
 97 94  1  0  0  0  0
 98 92  1  0  0  0  0
 99 98  1  0  0  0  0
100 98  1  0  0  0  0
101 98  1  0  0  0  0
102 63  1  0  0  0  0
103102  1  0  0  0  0
104102  1  0  0  0  0
105102  1  0  0  0  0
106 92  1  0  0  0  0
107106  1  0  0  0  0
108106  1  0  0  0  0
109106  1  0  0  0  0
110 24  1  0  0  0  0
111110  1  0  0  0  0
112110  1  0  0  0  0
113110  1  0  0  0  0
114 63  1  0  0  0  0
115114  1  0  0  0  0
116114  1  0  0  0  0
117114  1  0  0  0  0
118 81  1  0  0  0  0
119118  1  0  0  0  0
120118  1  0  0  0  0
121118  1  0  0  0  0
122 89  1  0  0  0  0
123122  1  0  0  0  0
124122  1  0  0  0  0
125122  1  0  0  0  0
126 81  1  0  0  0  0
127126  1  0  0  0  0
128126  1  0  0  0  0
129126  1  0  0  0  0
130 65  1  0  0  0  0
131130  1  0  0  0  0
132130  1  0  0  0  0
133130  1  0  0  0  0
134 65  1  0  0  0  0
135134  1  0  0  0  0
136134  1  0  0  0  0
137134  1  0  0  0  0
  3  5  1  0  0  0  0
  4  5  1  0  0  0  0
  8 91  1  0  0  0  0
  9 71  1  0  0  0  0
 10 91  1  0  0  0  0
 11 71  1  0  0  0  0
 13 23  4  0  0  0  0
 21 33  2  0  0  0  0
 37 39  4  0  0  0  0
 41 42  4  0  0  0  0
 53 61  4  0  0  0  0
 59 76  4  0  0  0  0
 80 83  4  0  0  0  0
 85 89  1  0  0  0  0
M  CHG  1   6  -1
M  END
$$$$
KUHXEU

From CSD data. Using bond type 'Any'. Matching problem. No disordered atoms. Largest molecule.
135143  0  0  0  0  0  0  0  0999 V2000
    2.9777   13.5453   11.6120 P   0  0  0  0  0  0  0  0  0  0  0  0
    1.3174   14.8932   14.3072 B   0  0  0  0  0  0  0  0  0  0  0  0
    0.0000   14.7443   15.1342 O   0  0  0  0  0  0  0  0  0  0  0  0
    1.2320   13.9393   11.7859 C   0  0  0  0  0  0  0  0  0  0  0  0
    0.6546   13.7003   11.0849 H   0  0  0  0  0  0  0  0  0  0  0  0
    0.7029   14.5526   12.8508 C   0  0  0  0  0  0  0  0  0  0  0  0
    3.4176   14.0012    9.9059 C   0  0  0  0  0  0  0  0  0  0  0  0
    4.1741   15.1630    9.7293 C   0  0  0  0  0  0  0  0  0  0  0  0
    4.4432   15.5774    8.4227 C   0  0  0  0  0  0  0  0  0  0  0  0
    4.9441   16.3634    8.2981 H   0  0  0  0  0  0  0  0  0  0  0  0
    4.0158   14.8991    7.3121 C   0  0  0  0  0  0  0  0  0  0  0  0
    3.2669   13.7314    7.5395 C   0  0  0  0  0  0  0  0  0  0  0  0
    2.9476   13.2494    6.7989 H   0  0  0  0  0  0  0  0  0  0  0  0
    2.9841   13.2669    8.7929 C   0  0  0  0  0  0  0  0  0  0  0  0
    4.6976   16.0153   10.8520 C   0  0  0  0  0  0  0  0  0  0  0  0
    5.2331   16.7371   10.4856 H   0  0  0  0  0  0  0  0  0  0  0  0
    5.2451   15.4732   11.4403 H   0  0  0  0  0  0  0  0  0  0  0  0
    3.9533   16.3854   11.3503 H   0  0  0  0  0  0  0  0  0  0  0  0
    4.3127   15.4048    5.9280 C   0  0  0  0  0  0  0  0  0  0  0  0
    4.2001   16.3679    5.9046 H   0  0  0  0  0  0  0  0  0  0  0  0
    3.7072   14.9915    5.2948 H   0  0  0  0  0  0  0  0  0  0  0  0
    5.2285   15.1819    5.6928 H   0  0  0  0  0  0  0  0  0  0  0  0
    2.1435   11.9974    8.9187 C   0  0  0  0  0  0  0  0  0  0  0  0
    1.8425   11.7202    8.0398 H   0  0  0  0  0  0  0  0  0  0  0  0
    1.3747   12.1726    9.4840 H   0  0  0  0  0  0  0  0  0  0  0  0
    2.6801   11.2916    9.3141 H   0  0  0  0  0  0  0  0  0  0  0  0
    3.3922   11.7940   11.9771 C   0  0  0  0  0  0  0  0  0  0  0  0
    4.7976   11.5684   12.1803 C   0  0  0  0  0  0  0  0  0  0  0  0
    5.2006   10.3299   12.6279 C   0  0  0  0  0  0  0  0  0  0  0  0
    6.1215   10.1614   12.7141 H   0  0  0  0  0  0  0  0  0  0  0  0
    4.3063    9.3169   12.9570 C   0  0  0  0  0  0  0  0  0  0  0  0
    2.9970    9.5528   12.7610 C   0  0  0  0  0  0  0  0  0  0  0  0
    2.3894    8.8635   12.9604 H   0  0  0  0  0  0  0  0  0  0  0  0
    2.4791   10.7751   12.2698 C   0  0  0  0  0  0  0  0  0  0  0  0
    5.8395   12.5916   11.8658 C   0  0  0  0  0  0  0  0  0  0  0  0
    6.7203   12.2091   12.0046 H   0  0  0  0  0  0  0  0  0  0  0  0
    5.7254   13.3585   12.4496 H   0  0  0  0  0  0  0  0  0  0  0  0
    5.7502   12.8719   10.9424 H   0  0  0  0  0  0  0  0  0  0  0  0
    4.8019    7.9840   13.4651 C   0  0  0  0  0  0  0  0  0  0  0  0
    5.7360    7.8747   13.2270 H   0  0  0  0  0  0  0  0  0  0  0  0
    4.2807    7.2710   13.0638 H   0  0  0  0  0  0  0  0  0  0  0  0
    4.7080    7.9498   14.4298 H   0  0  0  0  0  0  0  0  0  0  0  0
    0.9909   10.8695   12.1319 C   0  0  0  0  0  0  0  0  0  0  0  0
    0.6719   11.6570   12.5994 H   0  0  0  0  0  0  0  0  0  0  0  0
    0.5798   10.0779   12.5149 H   0  0  0  0  0  0  0  0  0  0  0  0
    0.7567   10.9328   11.1932 H   0  0  0  0  0  0  0  0  0  0  0  0
    1.7976   16.4561   14.5322 C   0  0  0  0  0  0  0  0  0  0  0  0
    1.8907   17.0665   12.2507 F   0  0  0  0  0  0  0  0  0  0  0  0
    2.0379   17.3924   13.5619 C   0  0  0  0  0  0  0  0  0  0  0  0
    2.6765   19.5406   12.8022 F   0  0  0  0  0  0  0  0  0  0  0  0
    2.4228   18.6958   13.8353 C   0  0  0  0  0  0  0  0  0  0  0  0
    2.9743   20.3619   15.3742 F   0  0  0  0  0  0  0  0  0  0  0  0
    2.5756   19.1057   15.1226 C   0  0  0  0  0  0  0  0  0  0  0  0
    2.5061   18.5999   17.4091 F   0  0  0  0  0  0  0  0  0  0  0  0
    2.3705   18.2033   16.1267 C   0  0  0  0  0  0  0  0  0  0  0  0
    1.7813   16.1067   16.8642 F   0  0  0  0  0  0  0  0  0  0  0  0
    1.9903   16.9486   15.8146 C   0  0  0  0  0  0  0  0  0  0  0  0
    2.4649   13.8537   14.8903 C   0  0  0  0  0  0  0  0  0  0  0  0
    0.9072   12.1183   15.2653 F   0  0  0  0  0  0  0  0  0  0  0  0
    2.1838   12.5739   15.2919 C   0  0  0  0  0  0  0  0  0  0  0  0
    2.7481   10.4110   16.0735 F   0  0  0  0  0  0  0  0  0  0  0  0
    3.1172   11.6229   15.7129 C   0  0  0  0  0  0  0  0  0  0  0  0
    5.3671   11.0995   16.1122 F   0  0  0  0  0  0  0  0  0  0  0  0
    4.4307   12.0033   15.7275 C   0  0  0  0  0  0  0  0  0  0  0  0
    6.0987   13.5883   15.2944 F   0  0  0  0  0  0  0  0  0  0  0  0
    4.7856   13.2595   15.3403 C   0  0  0  0  0  0  0  0  0  0  0  0
    4.2900   15.3385   14.4869 F   0  0  0  0  0  0  0  0  0  0  0  0
    3.8321   14.1398   14.9314 C   0  0  0  0  0  0  0  0  0  0  0  0
   -2.9777   15.9433   11.6120 P   0  0  0  0  0  0  0  0  0  0  0  0
   -1.3174   14.5954   14.3072 B   0  0  0  0  0  0  0  0  0  0  0  0
   -1.2320   15.5493   11.7859 C   0  0  0  0  0  0  0  0  0  0  0  0
   -0.6546   15.7883   11.0849 H   0  0  0  0  0  0  0  0  0  0  0  0
   -0.7029   14.9360   12.8508 C   0  0  0  0  0  0  0  0  0  0  0  0
   -3.4176   15.4874    9.9059 C   0  0  0  0  0  0  0  0  0  0  0  0
   -4.1741   14.3256    9.7293 C   0  0  0  0  0  0  0  0  0  0  0  0
   -4.4432   13.9112    8.4227 C   0  0  0  0  0  0  0  0  0  0  0  0
   -4.9441   13.1252    8.2981 H   0  0  0  0  0  0  0  0  0  0  0  0
   -4.0158   14.5895    7.3121 C   0  0  0  0  0  0  0  0  0  0  0  0
   -3.2669   15.7572    7.5395 C   0  0  0  0  0  0  0  0  0  0  0  0
   -2.9476   16.2392    6.7989 H   0  0  0  0  0  0  0  0  0  0  0  0
   -2.9841   16.2217    8.7929 C   0  0  0  0  0  0  0  0  0  0  0  0
   -4.6976   13.4733   10.8520 C   0  0  0  0  0  0  0  0  0  0  0  0
   -5.2331   12.7515   10.4856 H   0  0  0  0  0  0  0  0  0  0  0  0
   -5.2451   14.0154   11.4403 H   0  0  0  0  0  0  0  0  0  0  0  0
   -3.9533   13.1032   11.3503 H   0  0  0  0  0  0  0  0  0  0  0  0
   -4.3127   14.0838    5.9280 C   0  0  0  0  0  0  0  0  0  0  0  0
   -4.2001   13.1207    5.9046 H   0  0  0  0  0  0  0  0  0  0  0  0
   -3.7072   14.4971    5.2948 H   0  0  0  0  0  0  0  0  0  0  0  0
   -5.2285   14.3067    5.6928 H   0  0  0  0  0  0  0  0  0  0  0  0
   -2.1435   17.4912    8.9187 C   0  0  0  0  0  0  0  0  0  0  0  0
   -1.8425   17.7684    8.0398 H   0  0  0  0  0  0  0  0  0  0  0  0
   -1.3747   17.3160    9.4840 H   0  0  0  0  0  0  0  0  0  0  0  0
   -2.6801   18.1970    9.3141 H   0  0  0  0  0  0  0  0  0  0  0  0
   -3.3922   17.6946   11.9771 C   0  0  0  0  0  0  0  0  0  0  0  0
   -4.7976   17.9202   12.1803 C   0  0  0  0  0  0  0  0  0  0  0  0
   -5.2006   19.1587   12.6279 C   0  0  0  0  0  0  0  0  0  0  0  0
   -6.1215   19.3272   12.7141 H   0  0  0  0  0  0  0  0  0  0  0  0
   -4.3063   20.1717   12.9570 C   0  0  0  0  0  0  0  0  0  0  0  0
   -2.9970   19.9358   12.7610 C   0  0  0  0  0  0  0  0  0  0  0  0
   -2.3894   20.6251   12.9604 H   0  0  0  0  0  0  0  0  0  0  0  0
   -2.4791   18.7135   12.2698 C   0  0  0  0  0  0  0  0  0  0  0  0
   -5.8395   16.8970   11.8658 C   0  0  0  0  0  0  0  0  0  0  0  0
   -6.7203   17.2795   12.0046 H   0  0  0  0  0  0  0  0  0  0  0  0
   -5.7254   16.1301   12.4496 H   0  0  0  0  0  0  0  0  0  0  0  0
   -5.7502   16.6167   10.9424 H   0  0  0  0  0  0  0  0  0  0  0  0
   -4.8019   21.5046   13.4651 C   0  0  0  0  0  0  0  0  0  0  0  0
   -5.7360   21.6139   13.2270 H   0  0  0  0  0  0  0  0  0  0  0  0
   -4.2807   22.2176   13.0638 H   0  0  0  0  0  0  0  0  0  0  0  0
   -4.7080   21.5388   14.4298 H   0  0  0  0  0  0  0  0  0  0  0  0
   -0.9909   18.6191   12.1319 C   0  0  0  0  0  0  0  0  0  0  0  0
   -0.6719   17.8316   12.5994 H   0  0  0  0  0  0  0  0  0  0  0  0
   -0.5798   19.4107   12.5149 H   0  0  0  0  0  0  0  0  0  0  0  0
   -0.7567   18.5558   11.1932 H   0  0  0  0  0  0  0  0  0  0  0  0
   -1.7976   13.0325   14.5322 C   0  0  0  0  0  0  0  0  0  0  0  0
   -1.8907   12.4221   12.2507 F   0  0  0  0  0  0  0  0  0  0  0  0
   -2.0379   12.0962   13.5619 C   0  0  0  0  0  0  0  0  0  0  0  0
   -2.6765    9.9480   12.8022 F   0  0  0  0  0  0  0  0  0  0  0  0
   -2.4228   10.7928   13.8353 C   0  0  0  0  0  0  0  0  0  0  0  0
   -2.9743    9.1267   15.3742 F   0  0  0  0  0  0  0  0  0  0  0  0
   -2.5756   10.3829   15.1226 C   0  0  0  0  0  0  0  0  0  0  0  0
   -2.5061   10.8887   17.4091 F   0  0  0  0  0  0  0  0  0  0  0  0
   -2.3705   11.2853   16.1267 C   0  0  0  0  0  0  0  0  0  0  0  0
   -1.7813   13.3819   16.8642 F   0  0  0  0  0  0  0  0  0  0  0  0
   -1.9903   12.5400   15.8146 C   0  0  0  0  0  0  0  0  0  0  0  0
   -2.4649   15.6349   14.8903 C   0  0  0  0  0  0  0  0  0  0  0  0
   -0.9072   17.3703   15.2653 F   0  0  0  0  0  0  0  0  0  0  0  0
   -2.1838   16.9147   15.2919 C   0  0  0  0  0  0  0  0  0  0  0  0
   -2.7481   19.0776   16.0735 F   0  0  0  0  0  0  0  0  0  0  0  0
   -3.1172   17.8657   15.7129 C   0  0  0  0  0  0  0  0  0  0  0  0
   -5.3671   18.3891   16.1122 F   0  0  0  0  0  0  0  0  0  0  0  0
   -4.4307   17.4853   15.7275 C   0  0  0  0  0  0  0  0  0  0  0  0
   -6.0987   15.9003   15.2944 F   0  0  0  0  0  0  0  0  0  0  0  0
   -4.7856   16.2291   15.3403 C   0  0  0  0  0  0  0  0  0  0  0  0
   -4.2900   14.1501   14.4869 F   0  0  0  0  0  0  0  0  0  0  0  0
   -3.8321   15.3488   14.9314 C   0  0  0  0  0  0  0  0  0  0  0  0
  1  4  2  0  0  0  0
  2  3  1  0  0  0  0
  3 70  1  0  0  0  0
  4  5  1  0  0  0  0
  6  2  1  0  0  0  0
  7  1  1  0  0  0  0
  8  7  4  0  0  0  0
  9  8  4  0  0  0  0
 10  9  1  0  0  0  0
 11  9  4  0  0  0  0
 12 11  4  0  0  0  0
 13 12  1  0  0  0  0
 14  7  4  0  0  0  0
 15  8  1  0  0  0  0
 16 15  1  0  0  0  0
 17 15  1  0  0  0  0
 18 15  1  0  0  0  0
 19 11  1  0  0  0  0
 20 19  1  0  0  0  0
 21 19  1  0  0  0  0
 22 19  1  0  0  0  0
 23 14  1  0  0  0  0
 24 23  1  0  0  0  0
 25 23  1  0  0  0  0
 26 23  1  0  0  0  0
 27  1  1  0  0  0  0
 28 27  4  0  0  0  0
 29 28  4  0  0  0  0
 30 29  1  0  0  0  0
 31 29  4  0  0  0  0
 32 31  4  0  0  0  0
 33 32  1  0  0  0  0
 34 27  4  0  0  0  0
 35 28  1  0  0  0  0
 36 35  1  0  0  0  0
 37 35  1  0  0  0  0
 38 35  1  0  0  0  0
 39 31  1  0  0  0  0
 40 39  1  0  0  0  0
 41 39  1  0  0  0  0
 42 39  1  0  0  0  0
 43 34  1  0  0  0  0
 44 43  1  0  0  0  0
 45 43  1  0  0  0  0
 46 43  1  0  0  0  0
 47  2  1  0  0  0  0
 48 49  1  0  0  0  0
 49 47  4  0  0  0  0
 50 51  1  0  0  0  0
 51 49  4  0  0  0  0
 52 53  1  0  0  0  0
 53 51  4  0  0  0  0
 54 55  1  0  0  0  0
 55 53  4  0  0  0  0
 56 57  1  0  0  0  0
 57 47  4  0  0  0  0
 58  2  1  0  0  0  0
 59 60  1  0  0  0  0
 60 58  4  0  0  0  0
 61 62  1  0  0  0  0
 62 60  4  0  0  0  0
 63 64  1  0  0  0  0
 64 62  4  0  0  0  0
 65 66  1  0  0  0  0
 66 64  4  0  0  0  0
 67 68  1  0  0  0  0
 68 58  4  0  0  0  0
 69 71  2  0  0  0  0
 70 73  1  0  0  0  0
 71 72  1  0  0  0  0
 73  6  2  0  0  0  0
 74 69  1  0  0  0  0
 75 74  4  0  0  0  0
 76 75  4  0  0  0  0
 77 76  1  0  0  0  0
 78 76  4  0  0  0  0
 79 78  4  0  0  0  0
 80 79  1  0  0  0  0
 81 74  4  0  0  0  0
 82 75  1  0  0  0  0
 83 82  1  0  0  0  0
 84 82  1  0  0  0  0
 85 82  1  0  0  0  0
 86 78  1  0  0  0  0
 87 86  1  0  0  0  0
 88 86  1  0  0  0  0
 89 86  1  0  0  0  0
 90 81  1  0  0  0  0
 91 90  1  0  0  0  0
 92 90  1  0  0  0  0
 93 90  1  0  0  0  0
 94 69  1  0  0  0  0
 95 94  4  0  0  0  0
 96 95  4  0  0  0  0
 97 96  1  0  0  0  0
 98 96  4  0  0  0  0
 99 98  4  0  0  0  0
100 99  1  0  0  0  0
101 94  4  0  0  0  0
102 95  1  0  0  0  0
103102  1  0  0  0  0
104102  1  0  0  0  0
105102  1  0  0  0  0
106 98  1  0  0  0  0
107106  1  0  0  0  0
108106  1  0  0  0  0
109106  1  0  0  0  0
110101  1  0  0  0  0
111110  1  0  0  0  0
112110  1  0  0  0  0
113110  1  0  0  0  0
114 70  1  0  0  0  0
115116  1  0  0  0  0
116114  4  0  0  0  0
117118  1  0  0  0  0
118116  4  0  0  0  0
119120  1  0  0  0  0
120118  4  0  0  0  0
121122  1  0  0  0  0
122120  4  0  0  0  0
123124  1  0  0  0  0
124114  4  0  0  0  0
125 70  1  0  0  0  0
126127  1  0  0  0  0
127125  4  0  0  0  0
128129  1  0  0  0  0
129127  4  0  0  0  0
130131  1  0  0  0  0
131129  4  0  0  0  0
132133  1  0  0  0  0
133131  4  0  0  0  0
134135  1  0  0  0  0
135125  4  0  0  0  0
  4  6  1  0  0  0  0
 12 14  4  0  0  0  0
 32 34  4  0  0  0  0
 55 57  4  0  0  0  0
 66 68  4  0  0  0  0
 71 73  1  0  0  0  0
 79 81  4  0  0  0  0
 99101  4  0  0  0  0
122124  4  0  0  0  0
133135  4  0  0  0  0
M  END
$$$$
LULJUB

From CSD data. Using bond type 'Any'. No disordered atoms. Largest molecule.
144166  0  0  0  0  0  0  0  0999 V2000
    6.1171    7.8368   12.7693 B   0  5  0  0  0  0  0  0  0  0  0  0
    6.7527    6.8778   13.1855 H   0  0  0  0  0  0  0  0  0  0  0  0
    5.0728    7.9249   13.1443 H   0  0  0  0  0  0  0  0  0  0  0  0
    6.7493    8.8702   13.1855 H   0  0  0  0  0  0  0  0  0  0  0  0
    6.1378    7.7764   11.5510 H   0  0  0  0  0  0  0  0  0  0  0  0
   10.0879    9.3126    9.7861 C   0  0  0  0  0  0  0  0  0  0  0  0
    8.8086    7.8782   11.8605 Eu  0  3  0  0  0  0  0  0  0  0  0  0
   10.8006    8.9396    7.2066 N   0  0  0  0  0  0  0  0  0  0  0  0
   10.8445    6.3194   12.0202 O   0  0  0  0  0  0  0  0  0  0  0  0
   11.2154    8.3529    8.7582 P   0  0  0  0  0  0  0  0  0  0  0  0
   10.3095   10.0870   10.9824 C   0  0  0  0  0  0  0  0  0  0  0  0
   12.7344    8.9979    9.2037 N   0  0  0  0  0  0  0  0  0  0  0  0
    8.2138    5.7849   10.4516 O   0  0  0  0  0  0  0  0  0  0  0  0
    9.0587   10.6330   11.3629 C   0  0  0  0  0  0  0  0  0  0  0  0
    8.0622   10.2163   10.4454 C   0  0  0  0  0  0  0  0  0  0  0  0
    8.6795    9.3833    9.4922 C   0  0  0  0  0  0  0  0  0  0  0  0
   11.5597   10.3346   11.7722 C   0  0  0  0  0  0  0  0  0  0  0  0
   11.9528   11.3481   11.6609 H   0  0  0  0  0  0  0  0  0  0  0  0
   11.3105   10.2758   12.8449 H   0  0  0  0  0  0  0  0  0  0  0  0
   12.3546    9.6644   11.4274 H   0  0  0  0  0  0  0  0  0  0  0  0
    8.8150   11.5694   12.5015 C   0  0  0  0  0  0  0  0  0  0  0  0
    9.5238   11.5521   13.2130 H   0  0  0  0  0  0  0  0  0  0  0  0
    8.8141   12.5660   12.2927 H   0  0  0  0  0  0  0  0  0  0  0  0
    7.9245   11.4036   13.0619 H   0  0  0  0  0  0  0  0  0  0  0  0
    6.6354   10.6807   10.4509 C   0  0  0  0  0  0  0  0  0  0  0  0
    6.0818   10.2363    9.6007 H   0  0  0  0  0  0  0  0  0  0  0  0
    6.1303   10.4711   11.3587 H   0  0  0  0  0  0  0  0  0  0  0  0
    6.6188   11.6479   10.2600 H   0  0  0  0  0  0  0  0  0  0  0  0
    7.9661    8.6940    8.3700 C   0  0  0  0  0  0  0  0  0  0  0  0
    8.3624    7.7410    8.0898 H   0  0  0  0  0  0  0  0  0  0  0  0
    6.9144    8.5617    8.6255 H   0  0  0  0  0  0  0  0  0  0  0  0
    7.9091    9.2016    7.4718 H   0  0  0  0  0  0  0  0  0  0  0  0
   10.4815   10.3130    6.8839 C   0  0  0  0  0  0  0  0  0  0  0  0
   10.1537   10.8971    7.7547 H   0  0  0  0  0  0  0  0  0  0  0  0
   11.3773   10.8450    6.5241 H   0  0  0  0  0  0  0  0  0  0  0  0
    9.7336   10.3246    6.0708 H   0  0  0  0  0  0  0  0  0  0  0  0
   11.2675    8.1897    6.0736 C   0  0  0  0  0  0  0  0  0  0  0  0
   10.4980    8.1289    5.3017 H   0  0  0  0  0  0  0  0  0  0  0  0
   12.2336    8.6245    5.7687 H   0  0  0  0  0  0  0  0  0  0  0  0
   11.4244    7.1320    6.3318 H   0  0  0  0  0  0  0  0  0  0  0  0
   13.0306   10.4055    8.9922 C   0  0  0  0  0  0  0  0  0  0  0  0
   13.3821   10.5343    7.9580 H   0  0  0  0  0  0  0  0  0  0  0  0
   12.1463   11.0293    9.2024 H   0  0  0  0  0  0  0  0  0  0  0  0
   13.8428   10.7265    9.6556 H   0  0  0  0  0  0  0  0  0  0  0  0
   13.8895    8.1389    8.9840 C   0  0  0  0  0  0  0  0  0  0  0  0
   13.5777    7.0957    9.0650 H   0  0  0  0  0  0  0  0  0  0  0  0
   14.3617    8.3545    8.0349 H   0  0  0  0  0  0  0  0  0  0  0  0
   14.6335    8.3208    9.7655 H   0  0  0  0  0  0  0  0  0  0  0  0
   12.2438    6.6633   11.9837 C   0  0  0  0  0  0  0  0  0  0  0  0
   12.3527    7.4195   11.1939 H   0  0  0  0  0  0  0  0  0  0  0  0
   12.4792    7.0435   12.9795 H   0  0  0  0  0  0  0  0  0  0  0  0
   12.9453    5.3435   11.7268 C   0  0  0  0  0  0  0  0  0  0  0  0
   13.0019    5.1549   10.6445 H   0  0  0  0  0  0  0  0  0  0  0  0
   13.9990    5.3073   12.0592 H   0  0  0  0  0  0  0  0  0  0  0  0
   12.0325    4.3200   12.4163 C   0  0  0  0  0  0  0  0  0  0  0  0
   11.7592    3.5378   11.7021 H   0  0  0  0  0  0  0  0  0  0  0  0
   12.4833    3.8541   13.2542 H   0  0  0  0  0  0  0  0  0  0  0  0
   10.7782    5.1125   12.7913 C   0  0  0  0  0  0  0  0  0  0  0  0
   10.8104    5.3478   13.8654 H   0  0  0  0  0  0  0  0  0  0  0  0
    9.8448    4.5873   12.5674 H   0  0  0  0  0  0  0  0  0  0  0  0
    9.1347    5.1146    9.5609 C   0  0  0  0  0  0  0  0  0  0  0  0
    9.9168    5.8196    9.2436 H   0  0  0  0  0  0  0  0  0  0  0  0
    9.6208    4.3220   10.1363 H   0  0  0  0  0  0  0  0  0  0  0  0
    8.2649    4.5496    8.4538 C   0  0  0  0  0  0  0  0  0  0  0  0
    8.0587    5.3040    7.7190 H   0  0  0  0  0  0  0  0  0  0  0  0
    8.6936    3.6554    8.0212 H   0  0  0  0  0  0  0  0  0  0  0  0
    6.9982    4.1849    9.2024 C   0  0  0  0  0  0  0  0  0  0  0  0
    6.1131    4.0954    8.5294 H   0  0  0  0  0  0  0  0  0  0  0  0
    7.0682    3.2409    9.7243 H   0  0  0  0  0  0  0  0  0  0  0  0
    6.8695    5.3255   10.1666 C   0  0  0  0  0  0  0  0  0  0  0  0
    6.4632    5.0963   11.1802 H   0  0  0  0  0  0  0  0  0  0  0  0
    6.3813    6.1677    9.6419 H   0  0  0  0  0  0  0  0  0  0  0  0
    9.4905    8.1094   14.7004 B   0  5  0  0  0  0  0  0  0  0  0  0
    8.8549    9.0684   14.2843 H   0  0  0  0  0  0  0  0  0  0  0  0
   10.5348    8.0213   14.3255 H   0  0  0  0  0  0  0  0  0  0  0  0
    8.8583    7.0760   14.2843 H   0  0  0  0  0  0  0  0  0  0  0  0
    9.4698    8.1698   15.9187 H   0  0  0  0  0  0  0  0  0  0  0  0
    5.5197    6.6336   17.6837 C   0  0  0  0  0  0  0  0  0  0  0  0
    6.7990    8.0680   15.6093 Eu  0  3  0  0  0  0  0  0  0  0  0  0
    4.8070    7.0066   20.2632 N   0  0  0  0  0  0  0  0  0  0  0  0
    4.7631    9.6268   15.4495 O   0  0  0  0  0  0  0  0  0  0  0  0
    4.3922    7.5933   18.7116 P   0  0  0  0  0  0  0  0  0  0  0  0
    5.2981    5.8591   16.4874 C   0  0  0  0  0  0  0  0  0  0  0  0
    2.8732    6.9482   18.2660 N   0  0  0  0  0  0  0  0  0  0  0  0
    7.3938   10.1613   17.0182 O   0  0  0  0  0  0  0  0  0  0  0  0
    6.5489    5.3132   16.1069 C   0  0  0  0  0  0  0  0  0  0  0  0
    7.5454    5.7298   17.0244 C   0  0  0  0  0  0  0  0  0  0  0  0
    6.9281    6.5629   17.9776 C   0  0  0  0  0  0  0  0  0  0  0  0
    4.0479    5.6116   15.6976 C   0  0  0  0  0  0  0  0  0  0  0  0
    3.6548    4.5981   15.8089 H   0  0  0  0  0  0  0  0  0  0  0  0
    4.2971    5.6704   14.6249 H   0  0  0  0  0  0  0  0  0  0  0  0
    3.2530    6.2818   16.0423 H   0  0  0  0  0  0  0  0  0  0  0  0
    6.7926    4.3768   14.9683 C   0  0  0  0  0  0  0  0  0  0  0  0
    6.0838    4.3941   14.2568 H   0  0  0  0  0  0  0  0  0  0  0  0
    6.7935    3.3801   15.1770 H   0  0  0  0  0  0  0  0  0  0  0  0
    7.6831    4.5426   14.4079 H   0  0  0  0  0  0  0  0  0  0  0  0
    8.9722    5.2655   17.0189 C   0  0  0  0  0  0  0  0  0  0  0  0
    9.5258    5.7099   17.8691 H   0  0  0  0  0  0  0  0  0  0  0  0
    9.4773    5.4751   16.1110 H   0  0  0  0  0  0  0  0  0  0  0  0
    8.9888    4.2982   17.2098 H   0  0  0  0  0  0  0  0  0  0  0  0
    7.6415    7.2521   19.0997 C   0  0  0  0  0  0  0  0  0  0  0  0
    7.2452    8.2052   19.3799 H   0  0  0  0  0  0  0  0  0  0  0  0
    8.6932    7.3845   18.8443 H   0  0  0  0  0  0  0  0  0  0  0  0
    7.6985    6.7446   19.9980 H   0  0  0  0  0  0  0  0  0  0  0  0
    5.1261    5.6332   20.5858 C   0  0  0  0  0  0  0  0  0  0  0  0
    5.4539    5.0491   19.7151 H   0  0  0  0  0  0  0  0  0  0  0  0
    4.2304    5.1012   20.9457 H   0  0  0  0  0  0  0  0  0  0  0  0
    5.8740    5.6216   21.3989 H   0  0  0  0  0  0  0  0  0  0  0  0
    4.3401    7.7565   21.3962 C   0  0  0  0  0  0  0  0  0  0  0  0
    5.1096    7.8173   22.1681 H   0  0  0  0  0  0  0  0  0  0  0  0
    3.3740    7.3217   21.7011 H   0  0  0  0  0  0  0  0  0  0  0  0
    4.1832    8.8142   21.1380 H   0  0  0  0  0  0  0  0  0  0  0  0
    2.5770    5.5407   18.4775 C   0  0  0  0  0  0  0  0  0  0  0  0
    2.2255    5.4119   19.5118 H   0  0  0  0  0  0  0  0  0  0  0  0
    3.4613    4.9168   18.2674 H   0  0  0  0  0  0  0  0  0  0  0  0
    1.7648    5.2197   17.8141 H   0  0  0  0  0  0  0  0  0  0  0  0
    1.7181    7.8073   18.4858 C   0  0  0  0  0  0  0  0  0  0  0  0
    2.0299    8.8505   18.4047 H   0  0  0  0  0  0  0  0  0  0  0  0
    1.2459    7.5917   19.4349 H   0  0  0  0  0  0  0  0  0  0  0  0
    0.9741    7.6254   17.7043 H   0  0  0  0  0  0  0  0  0  0  0  0
    3.3638    9.2829   15.4861 C   0  0  0  0  0  0  0  0  0  0  0  0
    3.2549    8.5267   16.2758 H   0  0  0  0  0  0  0  0  0  0  0  0
    3.1284    8.9027   14.4903 H   0  0  0  0  0  0  0  0  0  0  0  0
    2.6623   10.6027   15.7429 C   0  0  0  0  0  0  0  0  0  0  0  0
    2.6057   10.7913   16.8252 H   0  0  0  0  0  0  0  0  0  0  0  0
    1.6086   10.6389   15.4105 H   0  0  0  0  0  0  0  0  0  0  0  0
    3.5751   11.6262   15.0534 C   0  0  0  0  0  0  0  0  0  0  0  0
    3.8484   12.4084   15.7676 H   0  0  0  0  0  0  0  0  0  0  0  0
    3.1243   12.0921   14.2156 H   0  0  0  0  0  0  0  0  0  0  0  0
    4.8294   10.8337   14.6785 C   0  0  0  0  0  0  0  0  0  0  0  0
    4.7972   10.5984   13.6044 H   0  0  0  0  0  0  0  0  0  0  0  0
    5.7628   11.3589   14.9023 H   0  0  0  0  0  0  0  0  0  0  0  0
    6.4729   10.8316   17.9089 C   0  0  0  0  0  0  0  0  0  0  0  0
    5.6908   10.1266   18.2262 H   0  0  0  0  0  0  0  0  0  0  0  0
    5.9868   11.6242   17.3334 H   0  0  0  0  0  0  0  0  0  0  0  0
    7.3427   11.3965   19.0159 C   0  0  0  0  0  0  0  0  0  0  0  0
    7.5489   10.6421   19.7508 H   0  0  0  0  0  0  0  0  0  0  0  0
    6.9141   12.2908   19.4486 H   0  0  0  0  0  0  0  0  0  0  0  0
    8.6094   11.7613   18.2674 C   0  0  0  0  0  0  0  0  0  0  0  0
    9.4945   11.8508   18.9404 H   0  0  0  0  0  0  0  0  0  0  0  0
    8.5394   12.7053   17.7455 H   0  0  0  0  0  0  0  0  0  0  0  0
    8.7381   10.6207   17.3032 C   0  0  0  0  0  0  0  0  0  0  0  0
    9.1444   10.8499   16.2896 H   0  0  0  0  0  0  0  0  0  0  0  0
    9.2263    9.7785   17.8279 H   0  0  0  0  0  0  0  0  0  0  0  0
  1  2  1  0  0  0  0
  2  7  1  0  0  0  0
  3  1  1  0  0  0  0
  4  1  1  0  0  0  0
  5  1  1  0  0  0  0
  6  7  8  0  0  0  0
  7  4  1  0  0  0  0
  8 10  1  0  0  0  0
  9  7  1  0  0  0  0
 10  6  1  0  0  0  0
 11  6  4  0  0  0  0
 12 10  1  0  0  0  0
 13  7  1  0  0  0  0
 14  7  8  0  0  0  0
 15  7  8  0  0  0  0
 16  6  4  0  0  0  0
 17 11  1  0  0  0  0
 18 17  1  0  0  0  0
 19 17  1  0  0  0  0
 20 17  1  0  0  0  0
 21 14  1  0  0  0  0
 22 21  1  0  0  0  0
 23 21  1  0  0  0  0
 24 21  1  0  0  0  0
 25 15  1  0  0  0  0
 26 25  1  0  0  0  0
 27 25  1  0  0  0  0
 28 25  1  0  0  0  0
 29 16  1  0  0  0  0
 30 29  1  0  0  0  0
 31 29  1  0  0  0  0
 32 29  1  0  0  0  0
 33  8  1  0  0  0  0
 34 33  1  0  0  0  0
 35 33  1  0  0  0  0
 36 33  1  0  0  0  0
 37  8  1  0  0  0  0
 38 37  1  0  0  0  0
 39 37  1  0  0  0  0
 40 37  1  0  0  0  0
 41 12  1  0  0  0  0
 42 41  1  0  0  0  0
 43 41  1  0  0  0  0
 44 41  1  0  0  0  0
 45 12  1  0  0  0  0
 46 45  1  0  0  0  0
 47 45  1  0  0  0  0
 48 45  1  0  0  0  0
 49  9  1  0  0  0  0
 50 49  1  0  0  0  0
 51 49  1  0  0  0  0
 52 49  1  0  0  0  0
 53 52  1  0  0  0  0
 54 52  1  0  0  0  0
 55 52  1  0  0  0  0
 56 55  1  0  0  0  0
 57 55  1  0  0  0  0
 58  9  1  0  0  0  0
 59 58  1  0  0  0  0
 60 58  1  0  0  0  0
 61 13  1  0  0  0  0
 62 61  1  0  0  0  0
 63 61  1  0  0  0  0
 64 61  1  0  0  0  0
 65 64  1  0  0  0  0
 66 64  1  0  0  0  0
 67 64  1  0  0  0  0
 68 67  1  0  0  0  0
 69 67  1  0  0  0  0
 70 13  1  0  0  0  0
 71 70  1  0  0  0  0
 72 70  1  0  0  0  0
 73 74  1  0  0  0  0
 74  7  1  0  0  0  0
 75  7  1  0  0  0  0
 76  7  1  0  0  0  0
 77 73  1  0  0  0  0
 78 79  8  0  0  0  0
 79  2  1  0  0  0  0
 80 82  1  0  0  0  0
 81 79  1  0  0  0  0
 82 78  1  0  0  0  0
 83 78  4  0  0  0  0
 84 82  1  0  0  0  0
 85 79  1  0  0  0  0
 86 79  8  0  0  0  0
 87 79  8  0  0  0  0
 88 78  4  0  0  0  0
 89 83  1  0  0  0  0
 90 89  1  0  0  0  0
 91 89  1  0  0  0  0
 92 89  1  0  0  0  0
 93 86  1  0  0  0  0
 94 93  1  0  0  0  0
 95 93  1  0  0  0  0
 96 93  1  0  0  0  0
 97 87  1  0  0  0  0
 98 97  1  0  0  0  0
 99 97  1  0  0  0  0
100 97  1  0  0  0  0
101 88  1  0  0  0  0
102101  1  0  0  0  0
103101  1  0  0  0  0
104101  1  0  0  0  0
105 80  1  0  0  0  0
106105  1  0  0  0  0
107105  1  0  0  0  0
108105  1  0  0  0  0
109 80  1  0  0  0  0
110109  1  0  0  0  0
111109  1  0  0  0  0
112109  1  0  0  0  0
113 84  1  0  0  0  0
114113  1  0  0  0  0
115113  1  0  0  0  0
116113  1  0  0  0  0
117 84  1  0  0  0  0
118117  1  0  0  0  0
119117  1  0  0  0  0
120117  1  0  0  0  0
121 81  1  0  0  0  0
122121  1  0  0  0  0
123121  1  0  0  0  0
124121  1  0  0  0  0
125124  1  0  0  0  0
126124  1  0  0  0  0
127124  1  0  0  0  0
128127  1  0  0  0  0
129127  1  0  0  0  0
130 81  1  0  0  0  0
131130  1  0  0  0  0
132130  1  0  0  0  0
133 85  1  0  0  0  0
134133  1  0  0  0  0
135133  1  0  0  0  0
136133  1  0  0  0  0
137136  1  0  0  0  0
138136  1  0  0  0  0
139136  1  0  0  0  0
140139  1  0  0  0  0
141139  1  0  0  0  0
142 85  1  0  0  0  0
143142  1  0  0  0  0
144142  1  0  0  0  0
  3 79  1  0  0  0  0
  4 79  1  0  0  0  0
  5  7  1  0  0  0  0
  7 11  8  0  0  0  0
  7 16  8  0  0  0  0
 11 14  4  0  0  0  0
 14 15  4  0  0  0  0
 15 16  4  0  0  0  0
 55 58  1  0  0  0  0
 67 70  1  0  0  0  0
 73 75  1  0  0  0  0
 73 76  1  0  0  0  0
 74 79  1  0  0  0  0
 76 79  1  0  0  0  0
 77 79  1  0  0  0  0
 79 83  8  0  0  0  0
 79 88  8  0  0  0  0
 83 86  4  0  0  0  0
 86 87  4  0  0  0  0
 87 88  4  0  0  0  0
127130  1  0  0  0  0
139142  1  0  0  0  0
M  CHG  4   1  -1   7   1  73  -1  79   1
M  END
$$$$
LULJUB01

From CSD data. Using bond type 'Any'. No disordered atoms. Largest molecule.
144166  0  0  0  0  0  0  0  0999 V2000
    6.2444    7.8433   12.8318 B   0  5  0  0  0  0  0  0  0  0  0  0
    6.5712    7.0260   13.3242 H   0  0  0  0  0  0  0  0  0  0  0  0
    5.2880    7.8253   13.2000 H   0  0  0  0  0  0  0  0  0  0  0  0
    6.7705    8.7487   13.2414 H   0  0  0  0  0  0  0  0  0  0  0  0
   10.1955    9.3497    9.8276 C   0  0  0  0  0  0  0  0  0  0  0  0
    8.9436    7.8950   11.9042 Eu  0  3  0  0  0  0  0  0  0  0  0  0
   10.9092    8.9721    7.2428 N   0  0  0  0  0  0  0  0  0  0  0  0
   10.9636    6.3245   12.0635 O   0  0  0  0  0  0  0  0  0  0  0  0
   11.3220    8.3795    8.7880 P   0  0  0  0  0  0  0  0  0  0  0  0
   10.4228   10.1150   11.0276 C   0  0  0  0  0  0  0  0  0  0  0  0
   12.8343    9.0229    9.2290 N   0  0  0  0  0  0  0  0  0  0  0  0
    8.3338    5.8047   10.4938 O   0  0  0  0  0  0  0  0  0  0  0  0
    9.1947   10.6563   11.4193 C   0  0  0  0  0  0  0  0  0  0  0  0
    8.1945   10.2512   10.5104 C   0  0  0  0  0  0  0  0  0  0  0  0
    8.7917    9.4194    9.5504 C   0  0  0  0  0  0  0  0  0  0  0  0
   11.7001   10.3478   11.8014 C   0  0  0  0  0  0  0  0  0  0  0  0
   12.0004   11.2714   11.6670 H   0  0  0  0  0  0  0  0  0  0  0  0
   12.3919    9.7303   11.4857 H   0  0  0  0  0  0  0  0  0  0  0  0
   11.5363   10.1945   12.7559 H   0  0  0  0  0  0  0  0  0  0  0  0
    8.9481   11.5930   12.5793 C   0  0  0  0  0  0  0  0  0  0  0  0
    9.7313   11.5980   13.1670 H   0  0  0  0  0  0  0  0  0  0  0  0
    8.1634   11.2890   13.0821 H   0  0  0  0  0  0  0  0  0  0  0  0
    8.7875   12.4977   12.2391 H   0  0  0  0  0  0  0  0  0  0  0  0
    6.7541   10.7135   10.5297 C   0  0  0  0  0  0  0  0  0  0  0  0
    6.2534   10.2534    9.8239 H   0  0  0  0  0  0  0  0  0  0  0  0
    6.7190   11.6810   10.3771 H   0  0  0  0  0  0  0  0  0  0  0  0
    6.3559   10.5058   11.4008 H   0  0  0  0  0  0  0  0  0  0  0  0
    8.0685    8.7336    8.4235 C   0  0  0  0  0  0  0  0  0  0  0  0
    8.5153    7.8859    8.2178 H   0  0  0  0  0  0  0  0  0  0  0  0
    8.0788    9.3093    7.6308 H   0  0  0  0  0  0  0  0  0  0  0  0
    7.1418    8.5587    8.6890 H   0  0  0  0  0  0  0  0  0  0  0  0
   10.5851   10.3471    6.9173 C   0  0  0  0  0  0  0  0  0  0  0  0
   10.2749   10.8093    7.7244 H   0  0  0  0  0  0  0  0  0  0  0  0
    9.8775   10.3639    6.2396 H   0  0  0  0  0  0  0  0  0  0  0  0
   11.3823   10.7973    6.5692 H   0  0  0  0  0  0  0  0  0  0  0  0
   11.3385    8.2143    6.0979 C   0  0  0  0  0  0  0  0  0  0  0  0
   10.6468    8.2501    5.4051 H   0  0  0  0  0  0  0  0  0  0  0  0
   11.4905    7.2830    6.3611 H   0  0  0  0  0  0  0  0  0  0  0  0
   12.1713    8.5953    5.7484 H   0  0  0  0  0  0  0  0  0  0  0  0
   13.1510   10.4378    9.0083 C   0  0  0  0  0  0  0  0  0  0  0  0
   13.4389   10.5666    8.0802 H   0  0  0  0  0  0  0  0  0  0  0  0
   13.8714   10.7100    9.6143 H   0  0  0  0  0  0  0  0  0  0  0  0
   12.3547   10.9817    9.1817 H   0  0  0  0  0  0  0  0  0  0  0  0
   13.9910    8.1573    8.9945 C   0  0  0  0  0  0  0  0  0  0  0  0
   13.7324    7.2224    9.1313 H   0  0  0  0  0  0  0  0  0  0  0  0
   14.7083    8.3933    9.6186 H   0  0  0  0  0  0  0  0  0  0  0  0
   14.3067    8.2773    8.0738 H   0  0  0  0  0  0  0  0  0  0  0  0
   12.3603    6.6637   12.0166 C   0  0  0  0  0  0  0  0  0  0  0  0
   12.6531    7.0721   12.8696 H   0  0  0  0  0  0  0  0  0  0  0  0
   12.5463    7.2948   11.2774 H   0  0  0  0  0  0  0  0  0  0  0  0
   13.0586    5.3362   11.7849 C   0  0  0  0  0  0  0  0  0  0  0  0
   13.9610    5.3343   12.1919 H   0  0  0  0  0  0  0  0  0  0  0  0
   13.1425    5.1444   10.8166 H   0  0  0  0  0  0  0  0  0  0  0  0
   12.1527    4.3202   12.4635 C   0  0  0  0  0  0  0  0  0  0  0  0
   12.5847    3.9503   13.2740 H   0  0  0  0  0  0  0  0  0  0  0  0
   11.9351    3.5761   11.8483 H   0  0  0  0  0  0  0  0  0  0  0  0
   10.9008    5.1055   12.8276 C   0  0  0  0  0  0  0  0  0  0  0  0
   10.0878    4.5911   12.5958 H   0  0  0  0  0  0  0  0  0  0  0  0
   10.8850    5.3043   13.7978 H   0  0  0  0  0  0  0  0  0  0  0  0
    9.2240    5.1309    9.5683 C   0  0  0  0  0  0  0  0  0  0  0  0
    9.7199    4.4051   10.0237 H   0  0  0  0  0  0  0  0  0  0  0  0
    9.8757    5.7685    9.1816 H   0  0  0  0  0  0  0  0  0  0  0  0
    8.3281    4.5725    8.4980 C   0  0  0  0  0  0  0  0  0  0  0  0
    8.7295    3.7738    8.0723 H   0  0  0  0  0  0  0  0  0  0  0  0
    8.1324    5.2490    7.8023 H   0  0  0  0  0  0  0  0  0  0  0  0
    7.0843    4.2127    9.2828 C   0  0  0  0  0  0  0  0  0  0  0  0
    6.2834    4.2186    8.7012 H   0  0  0  0  0  0  0  0  0  0  0  0
    7.1737    3.3191    9.6997 H   0  0  0  0  0  0  0  0  0  0  0  0
    7.0024    5.2568   10.2966 C   0  0  0  0  0  0  0  0  0  0  0  0
    6.3825    5.9690    9.9997 H   0  0  0  0  0  0  0  0  0  0  0  0
    6.6612    4.8787   11.1453 H   0  0  0  0  0  0  0  0  0  0  0  0
    6.2945    7.7275   11.8759 H   0  0  0  0  0  0  0  0  0  0  0  0
    9.6365    8.1267   14.7545 B   0  5  0  0  0  0  0  0  0  0  0  0
    9.3097    8.9441   14.2621 H   0  0  0  0  0  0  0  0  0  0  0  0
   10.5928    8.1447   14.3862 H   0  0  0  0  0  0  0  0  0  0  0  0
    9.1103    7.2214   14.3449 H   0  0  0  0  0  0  0  0  0  0  0  0
    5.6853    6.6204   17.7587 C   0  0  0  0  0  0  0  0  0  0  0  0
    6.9372    8.0750   15.6821 Eu  0  3  0  0  0  0  0  0  0  0  0  0
    4.9716    6.9979   20.3435 N   0  0  0  0  0  0  0  0  0  0  0  0
    4.9172    9.6456   15.5228 O   0  0  0  0  0  0  0  0  0  0  0  0
    4.5588    7.5906   18.7982 P   0  0  0  0  0  0  0  0  0  0  0  0
    5.4580    5.8551   16.5587 C   0  0  0  0  0  0  0  0  0  0  0  0
    3.0465    6.9472   18.3573 N   0  0  0  0  0  0  0  0  0  0  0  0
    7.5470   10.1654   17.0925 O   0  0  0  0  0  0  0  0  0  0  0  0
    6.6861    5.3137   16.1669 C   0  0  0  0  0  0  0  0  0  0  0  0
    7.6864    5.7189   17.0759 C   0  0  0  0  0  0  0  0  0  0  0  0
    7.0891    6.5506   18.0359 C   0  0  0  0  0  0  0  0  0  0  0  0
    4.1808    5.6223   15.7849 C   0  0  0  0  0  0  0  0  0  0  0  0
    3.8804    4.6987   15.9193 H   0  0  0  0  0  0  0  0  0  0  0  0
    3.4890    6.2398   16.1006 H   0  0  0  0  0  0  0  0  0  0  0  0
    4.3446    5.7756   14.8303 H   0  0  0  0  0  0  0  0  0  0  0  0
    6.9328    4.3771   15.0069 C   0  0  0  0  0  0  0  0  0  0  0  0
    6.1495    4.3720   14.4192 H   0  0  0  0  0  0  0  0  0  0  0  0
    7.7174    4.6811   14.5042 H   0  0  0  0  0  0  0  0  0  0  0  0
    7.0933    3.4724   15.3471 H   0  0  0  0  0  0  0  0  0  0  0  0
    9.1268    5.2566   17.0566 C   0  0  0  0  0  0  0  0  0  0  0  0
    9.6274    5.7167   17.7624 H   0  0  0  0  0  0  0  0  0  0  0  0
    9.1619    4.2890   17.2091 H   0  0  0  0  0  0  0  0  0  0  0  0
    9.5249    5.4643   16.1854 H   0  0  0  0  0  0  0  0  0  0  0  0
    7.8124    7.2364   19.1628 C   0  0  0  0  0  0  0  0  0  0  0  0
    7.3656    8.0842   19.3685 H   0  0  0  0  0  0  0  0  0  0  0  0
    7.8020    6.6608   19.9555 H   0  0  0  0  0  0  0  0  0  0  0  0
    8.7390    7.4113   18.8973 H   0  0  0  0  0  0  0  0  0  0  0  0
    5.2957    5.6230   20.6690 C   0  0  0  0  0  0  0  0  0  0  0  0
    5.6059    5.1607   19.8618 H   0  0  0  0  0  0  0  0  0  0  0  0
    6.0034    5.6061   21.3467 H   0  0  0  0  0  0  0  0  0  0  0  0
    4.4985    5.1728   21.0171 H   0  0  0  0  0  0  0  0  0  0  0  0
    4.5423    7.7558   21.4883 C   0  0  0  0  0  0  0  0  0  0  0  0
    5.2341    7.7199   22.1811 H   0  0  0  0  0  0  0  0  0  0  0  0
    4.3904    8.6871   21.2252 H   0  0  0  0  0  0  0  0  0  0  0  0
    3.7096    7.3748   21.8379 H   0  0  0  0  0  0  0  0  0  0  0  0
    2.7298    5.5323   18.5780 C   0  0  0  0  0  0  0  0  0  0  0  0
    2.4420    5.4035   19.5061 H   0  0  0  0  0  0  0  0  0  0  0  0
    2.0095    5.2601   17.9720 H   0  0  0  0  0  0  0  0  0  0  0  0
    3.5261    4.9884   18.4046 H   0  0  0  0  0  0  0  0  0  0  0  0
    1.8898    7.8128   18.5918 C   0  0  0  0  0  0  0  0  0  0  0  0
    2.1485    8.7477   18.4549 H   0  0  0  0  0  0  0  0  0  0  0  0
    1.1725    7.5767   17.9677 H   0  0  0  0  0  0  0  0  0  0  0  0
    1.5742    7.6928   19.5125 H   0  0  0  0  0  0  0  0  0  0  0  0
    3.5205    9.3064   15.5697 C   0  0  0  0  0  0  0  0  0  0  0  0
    3.2277    8.8980   14.7166 H   0  0  0  0  0  0  0  0  0  0  0  0
    3.3346    8.6753   16.3089 H   0  0  0  0  0  0  0  0  0  0  0  0
    2.8223   10.6338   15.8014 C   0  0  0  0  0  0  0  0  0  0  0  0
    1.9198   10.6358   15.3944 H   0  0  0  0  0  0  0  0  0  0  0  0
    2.7384   10.8257   16.7697 H   0  0  0  0  0  0  0  0  0  0  0  0
    3.7282   11.6499   15.1228 C   0  0  0  0  0  0  0  0  0  0  0  0
    3.2961   12.0197   14.3123 H   0  0  0  0  0  0  0  0  0  0  0  0
    3.9458   12.3939   15.7379 H   0  0  0  0  0  0  0  0  0  0  0  0
    4.9801   10.8646   14.7587 C   0  0  0  0  0  0  0  0  0  0  0  0
    5.7931   11.3790   14.9905 H   0  0  0  0  0  0  0  0  0  0  0  0
    4.9959   10.6658   13.7884 H   0  0  0  0  0  0  0  0  0  0  0  0
    6.6568   10.8391   18.0180 C   0  0  0  0  0  0  0  0  0  0  0  0
    6.1610   11.5649   17.5625 H   0  0  0  0  0  0  0  0  0  0  0  0
    6.0051   10.2016   18.4047 H   0  0  0  0  0  0  0  0  0  0  0  0
    7.5527   11.3976   19.0883 C   0  0  0  0  0  0  0  0  0  0  0  0
    7.1513   12.1963   19.5140 H   0  0  0  0  0  0  0  0  0  0  0  0
    7.7485   10.7210   19.7840 H   0  0  0  0  0  0  0  0  0  0  0  0
    8.7965   11.7574   18.3035 C   0  0  0  0  0  0  0  0  0  0  0  0
    9.5975   11.7515   18.8851 H   0  0  0  0  0  0  0  0  0  0  0  0
    8.7072   12.6510   17.8866 H   0  0  0  0  0  0  0  0  0  0  0  0
    8.8785   10.7132   17.2897 C   0  0  0  0  0  0  0  0  0  0  0  0
    9.4984   10.0011   17.5865 H   0  0  0  0  0  0  0  0  0  0  0  0
    9.2197   11.0914   16.4410 H   0  0  0  0  0  0  0  0  0  0  0  0
    9.5864    8.2426   15.7104 H   0  0  0  0  0  0  0  0  0  0  0  0
  1  2  1  0  0  0  0
  2  6  1  0  0  0  0
  3  1  1  0  0  0  0
  4  1  1  0  0  0  0
  5  6  8  0  0  0  0
  6  4  1  0  0  0  0
  7  9  1  0  0  0  0
  8  6  1  0  0  0  0
  9  5  1  0  0  0  0
 10  5  4  0  0  0  0
 11  9  1  0  0  0  0
 12  6  1  0  0  0  0
 13  6  8  0  0  0  0
 14  6  8  0  0  0  0
 15  5  4  0  0  0  0
 16 10  1  0  0  0  0
 17 16  1  0  0  0  0
 18 16  1  0  0  0  0
 19 16  1  0  0  0  0
 20 13  1  0  0  0  0
 21 20  1  0  0  0  0
 22 20  1  0  0  0  0
 23 20  1  0  0  0  0
 24 14  1  0  0  0  0
 25 24  1  0  0  0  0
 26 24  1  0  0  0  0
 27 24  1  0  0  0  0
 28 15  1  0  0  0  0
 29 28  1  0  0  0  0
 30 28  1  0  0  0  0
 31 28  1  0  0  0  0
 32  7  1  0  0  0  0
 33 32  1  0  0  0  0
 34 32  1  0  0  0  0
 35 32  1  0  0  0  0
 36  7  1  0  0  0  0
 37 36  1  0  0  0  0
 38 36  1  0  0  0  0
 39 36  1  0  0  0  0
 40 11  1  0  0  0  0
 41 40  1  0  0  0  0
 42 40  1  0  0  0  0
 43 40  1  0  0  0  0
 44 11  1  0  0  0  0
 45 44  1  0  0  0  0
 46 44  1  0  0  0  0
 47 44  1  0  0  0  0
 48  8  1  0  0  0  0
 49 48  1  0  0  0  0
 50 48  1  0  0  0  0
 51 48  1  0  0  0  0
 52 51  1  0  0  0  0
 53 51  1  0  0  0  0
 54 51  1  0  0  0  0
 55 54  1  0  0  0  0
 56 54  1  0  0  0  0
 57  8  1  0  0  0  0
 58 57  1  0  0  0  0
 59 57  1  0  0  0  0
 60 12  1  0  0  0  0
 61 60  1  0  0  0  0
 62 60  1  0  0  0  0
 63 60  1  0  0  0  0
 64 63  1  0  0  0  0
 65 63  1  0  0  0  0
 66 63  1  0  0  0  0
 67 66  1  0  0  0  0
 68 66  1  0  0  0  0
 69 12  1  0  0  0  0
 70 69  1  0  0  0  0
 71 69  1  0  0  0  0
 72  1  1  0  0  0  0
 73 74  1  0  0  0  0
 74  6  1  0  0  0  0
 75  6  1  0  0  0  0
 76  6  1  0  0  0  0
 77 78  8  0  0  0  0
 78  2  1  0  0  0  0
 79 81  1  0  0  0  0
 80 78  1  0  0  0  0
 81 77  1  0  0  0  0
 82 77  4  0  0  0  0
 83 81  1  0  0  0  0
 84 78  1  0  0  0  0
 85 78  8  0  0  0  0
 86 78  8  0  0  0  0
 87 77  4  0  0  0  0
 88 82  1  0  0  0  0
 89 88  1  0  0  0  0
 90 88  1  0  0  0  0
 91 88  1  0  0  0  0
 92 85  1  0  0  0  0
 93 92  1  0  0  0  0
 94 92  1  0  0  0  0
 95 92  1  0  0  0  0
 96 86  1  0  0  0  0
 97 96  1  0  0  0  0
 98 96  1  0  0  0  0
 99 96  1  0  0  0  0
100 87  1  0  0  0  0
101100  1  0  0  0  0
102100  1  0  0  0  0
103100  1  0  0  0  0
104 79  1  0  0  0  0
105104  1  0  0  0  0
106104  1  0  0  0  0
107104  1  0  0  0  0
108 79  1  0  0  0  0
109108  1  0  0  0  0
110108  1  0  0  0  0
111108  1  0  0  0  0
112 83  1  0  0  0  0
113112  1  0  0  0  0
114112  1  0  0  0  0
115112  1  0  0  0  0
116 83  1  0  0  0  0
117116  1  0  0  0  0
118116  1  0  0  0  0
119116  1  0  0  0  0
120 80  1  0  0  0  0
121120  1  0  0  0  0
122120  1  0  0  0  0
123120  1  0  0  0  0
124123  1  0  0  0  0
125123  1  0  0  0  0
126123  1  0  0  0  0
127126  1  0  0  0  0
128126  1  0  0  0  0
129 80  1  0  0  0  0
130129  1  0  0  0  0
131129  1  0  0  0  0
132 84  1  0  0  0  0
133132  1  0  0  0  0
134132  1  0  0  0  0
135132  1  0  0  0  0
136135  1  0  0  0  0
137135  1  0  0  0  0
138135  1  0  0  0  0
139138  1  0  0  0  0
140138  1  0  0  0  0
141 84  1  0  0  0  0
142141  1  0  0  0  0
143141  1  0  0  0  0
144 73  1  0  0  0  0
  3 78  1  0  0  0  0
  4 78  1  0  0  0  0
  6 10  8  0  0  0  0
  6 15  8  0  0  0  0
  6 72  1  0  0  0  0
 10 13  4  0  0  0  0
 13 14  4  0  0  0  0
 14 15  4  0  0  0  0
 54 57  1  0  0  0  0
 66 69  1  0  0  0  0
 73 75  1  0  0  0  0
 73 76  1  0  0  0  0
 74 78  1  0  0  0  0
 76 78  1  0  0  0  0
 78 82  8  0  0  0  0
 78 87  8  0  0  0  0
 78144  1  0  0  0  0
 82 85  4  0  0  0  0
 85 86  4  0  0  0  0
 86 87  4  0  0  0  0
126129  1  0  0  0  0
138141  1  0  0  0  0
M  CHG  4   1  -1   6   1  73  -1  78   1
M  END
$$$$
LULJUB02

From CSD data. Using bond type 'Any'. No disordered atoms. Largest molecule.
144166  0  0  0  0  0  0  0  0999 V2000
    6.2922    7.7686   12.9033 B   0  5  0  0  0  0  0  0  0  0  0  0
    6.8362    8.5922   13.1373 H   0  0  0  0  0  0  0  0  0  0  0  0
    6.8163    6.9601   13.2203 H   0  0  0  0  0  0  0  0  0  0  0  0
    6.1792    7.7195   11.9052 H   0  0  0  0  0  0  0  0  0  0  0  0
    5.3971    7.7860   13.3449 H   0  0  0  0  0  0  0  0  0  0  0  0
   10.1943    9.3297    9.8647 C   0  0  0  0  0  0  0  0  0  0  0  0
    8.9748    7.8621   11.9395 Eu  0  3  0  0  0  0  0  0  0  0  0  0
   10.8654    8.9545    7.2760 N   0  0  0  0  0  0  0  0  0  0  0  0
   10.9894    6.2585   12.0796 O   0  0  0  0  0  0  0  0  0  0  0  0
   11.2885    8.3695    8.8137 P   0  0  0  0  0  0  0  0  0  0  0  0
   10.4411   10.0815   11.0580 C   0  0  0  0  0  0  0  0  0  0  0  0
   12.8103    9.0022    9.2099 N   0  0  0  0  0  0  0  0  0  0  0  0
    8.3330    5.7926   10.5126 O   0  0  0  0  0  0  0  0  0  0  0  0
    9.1938   10.6297   11.4885 C   0  0  0  0  0  0  0  0  0  0  0  0
    8.1994   10.2493   10.5887 C   0  0  0  0  0  0  0  0  0  0  0  0
    8.7833    9.4307    9.6114 C   0  0  0  0  0  0  0  0  0  0  0  0
   11.7464   10.2926   11.8208 C   0  0  0  0  0  0  0  0  0  0  0  0
   11.6252   10.0277   12.7562 H   0  0  0  0  0  0  0  0  0  0  0  0
   11.9998   11.2385   11.7791 H   0  0  0  0  0  0  0  0  0  0  0  0
   12.4535    9.7474   11.4159 H   0  0  0  0  0  0  0  0  0  0  0  0
    8.9541   11.5525   12.6749 C   0  0  0  0  0  0  0  0  0  0  0  0
    8.0502   11.4067   13.0241 H   0  0  0  0  0  0  0  0  0  0  0  0
    9.0466   12.4846   12.3867 H   0  0  0  0  0  0  0  0  0  0  0  0
    9.6106   11.3602   13.3759 H   0  0  0  0  0  0  0  0  0  0  0  0
    6.7950   10.7144   10.6344 C   0  0  0  0  0  0  0  0  0  0  0  0
    6.2288   10.0925   10.1308 H   0  0  0  0  0  0  0  0  0  0  0  0
    6.7338   11.6075   10.2351 H   0  0  0  0  0  0  0  0  0  0  0  0
    6.4928   10.7510   11.5653 H   0  0  0  0  0  0  0  0  0  0  0  0
    8.0340    8.7697    8.4984 C   0  0  0  0  0  0  0  0  0  0  0  0
    8.4275    7.8912    8.3167 H   0  0  0  0  0  0  0  0  0  0  0  0
    8.0882    9.3255    7.6932 H   0  0  0  0  0  0  0  0  0  0  0  0
    7.0950    8.6602    8.7571 H   0  0  0  0  0  0  0  0  0  0  0  0
   10.5237   10.3278    6.9438 C   0  0  0  0  0  0  0  0  0  0  0  0
   10.2444   10.8008    7.7558 H   0  0  0  0  0  0  0  0  0  0  0  0
    9.7913   10.3343    6.2935 H   0  0  0  0  0  0  0  0  0  0  0  0
   11.3066   10.7753    6.5591 H   0  0  0  0  0  0  0  0  0  0  0  0
   11.2841    8.2073    6.1229 C   0  0  0  0  0  0  0  0  0  0  0  0
   12.0922    8.6140    5.7457 H   0  0  0  0  0  0  0  0  0  0  0  0
   10.5706    8.2151    5.4516 H   0  0  0  0  0  0  0  0  0  0  0  0
   11.4762    7.2825    6.3849 H   0  0  0  0  0  0  0  0  0  0  0  0
   13.1170   10.4156    9.0023 C   0  0  0  0  0  0  0  0  0  0  0  0
   13.5496   10.5317    8.1305 H   0  0  0  0  0  0  0  0  0  0  0  0
   13.7190   10.7269    9.7099 H   0  0  0  0  0  0  0  0  0  0  0  0
   12.2871   10.9366    9.0267 H   0  0  0  0  0  0  0  0  0  0  0  0
   13.9598    8.1476    8.9857 C   0  0  0  0  0  0  0  0  0  0  0  0
   13.6632    7.2186    8.8928 H   0  0  0  0  0  0  0  0  0  0  0  0
   14.5737    8.2203    9.7465 H   0  0  0  0  0  0  0  0  0  0  0  0
   14.4201    8.4276    8.1671 H   0  0  0  0  0  0  0  0  0  0  0  0
   12.3696    6.5956   12.0063 C   0  0  0  0  0  0  0  0  0  0  0  0
   12.6672    7.0431   12.8377 H   0  0  0  0  0  0  0  0  0  0  0  0
   12.5447    7.1967   11.2391 H   0  0  0  0  0  0  0  0  0  0  0  0
   13.0865    5.2587   11.8222 C   0  0  0  0  0  0  0  0  0  0  0  0
   13.1891    5.0394   10.8630 H   0  0  0  0  0  0  0  0  0  0  0  0
   13.9813    5.2746   12.2473 H   0  0  0  0  0  0  0  0  0  0  0  0
   12.1801    4.2746   12.5088 C   0  0  0  0  0  0  0  0  0  0  0  0
   12.5962    3.9372   13.3419 H   0  0  0  0  0  0  0  0  0  0  0  0
   11.9858    3.5057   11.9162 H   0  0  0  0  0  0  0  0  0  0  0  0
   10.8960    5.0550   12.8230 C   0  0  0  0  0  0  0  0  0  0  0  0
   10.0979    4.5372   12.5487 H   0  0  0  0  0  0  0  0  0  0  0  0
   10.8332    5.2475   13.7917 H   0  0  0  0  0  0  0  0  0  0  0  0
    9.2113    5.0996    9.5865 C   0  0  0  0  0  0  0  0  0  0  0  0
    9.6903    4.3609   10.0386 H   0  0  0  0  0  0  0  0  0  0  0  0
    9.8755    5.7221    9.1967 H   0  0  0  0  0  0  0  0  0  0  0  0
    8.3017    4.5763    8.5399 C   0  0  0  0  0  0  0  0  0  0  0  0
    8.0987    5.2724    7.8656 H   0  0  0  0  0  0  0  0  0  0  0  0
    8.6982    3.7923    8.0843 H   0  0  0  0  0  0  0  0  0  0  0  0
    7.0869    4.1946    9.2875 C   0  0  0  0  0  0  0  0  0  0  0  0
    6.2901    4.1886    8.7000 H   0  0  0  0  0  0  0  0  0  0  0  0
    7.1883    3.3045    9.7079 H   0  0  0  0  0  0  0  0  0  0  0  0
    6.9943    5.2534   10.2980 C   0  0  0  0  0  0  0  0  0  0  0  0
    6.3859    5.9697    9.9866 H   0  0  0  0  0  0  0  0  0  0  0  0
    6.6367    4.8856   11.1449 H   0  0  0  0  0  0  0  0  0  0  0  0
    9.6891    8.1094   14.7832 B   0  5  0  0  0  0  0  0  0  0  0  0
    9.1450    7.2858   14.5493 H   0  0  0  0  0  0  0  0  0  0  0  0
    9.1649    8.9178   14.4662 H   0  0  0  0  0  0  0  0  0  0  0  0
    9.8021    8.1584   15.7813 H   0  0  0  0  0  0  0  0  0  0  0  0
   10.5841    8.0919   14.3416 H   0  0  0  0  0  0  0  0  0  0  0  0
    5.7869    6.5482   17.8218 C   0  0  0  0  0  0  0  0  0  0  0  0
    7.0064    8.0158   15.7470 Eu  0  3  0  0  0  0  0  0  0  0  0  0
    5.1158    6.9234   20.4105 N   0  0  0  0  0  0  0  0  0  0  0  0
    4.9919    9.6194   15.6069 O   0  0  0  0  0  0  0  0  0  0  0  0
    4.6927    7.5085   18.8728 P   0  0  0  0  0  0  0  0  0  0  0  0
    5.5402    5.7965   16.6285 C   0  0  0  0  0  0  0  0  0  0  0  0
    3.1710    6.8758   18.4766 N   0  0  0  0  0  0  0  0  0  0  0  0
    7.6482   10.0854   17.1740 O   0  0  0  0  0  0  0  0  0  0  0  0
    6.7874    5.2483   16.1980 C   0  0  0  0  0  0  0  0  0  0  0  0
    7.7818    5.6286   17.0978 C   0  0  0  0  0  0  0  0  0  0  0  0
    7.1980    6.4472   18.0752 C   0  0  0  0  0  0  0  0  0  0  0  0
    4.2349    5.5854   15.8658 C   0  0  0  0  0  0  0  0  0  0  0  0
    4.3561    5.8502   14.9303 H   0  0  0  0  0  0  0  0  0  0  0  0
    3.9815    4.6394   15.9074 H   0  0  0  0  0  0  0  0  0  0  0  0
    3.5278    6.1305   16.2707 H   0  0  0  0  0  0  0  0  0  0  0  0
    7.0271    4.3254   15.0116 C   0  0  0  0  0  0  0  0  0  0  0  0
    7.9311    4.4713   14.6625 H   0  0  0  0  0  0  0  0  0  0  0  0
    6.9346    3.3933   15.2998 H   0  0  0  0  0  0  0  0  0  0  0  0
    6.3706    4.5178   14.3106 H   0  0  0  0  0  0  0  0  0  0  0  0
    9.1862    5.1635   17.0521 C   0  0  0  0  0  0  0  0  0  0  0  0
    9.7525    5.7855   17.5557 H   0  0  0  0  0  0  0  0  0  0  0  0
    9.2475    4.2705   17.4514 H   0  0  0  0  0  0  0  0  0  0  0  0
    9.4885    5.1269   16.1212 H   0  0  0  0  0  0  0  0  0  0  0  0
    7.9472    7.1083   19.1882 C   0  0  0  0  0  0  0  0  0  0  0  0
    7.5537    7.9868   19.3699 H   0  0  0  0  0  0  0  0  0  0  0  0
    7.8930    6.5525   19.9934 H   0  0  0  0  0  0  0  0  0  0  0  0
    8.8863    7.2177   18.9295 H   0  0  0  0  0  0  0  0  0  0  0  0
    5.4575    5.5501   20.7428 C   0  0  0  0  0  0  0  0  0  0  0  0
    5.7369    5.0771   19.9308 H   0  0  0  0  0  0  0  0  0  0  0  0
    6.1899    5.5436   21.3930 H   0  0  0  0  0  0  0  0  0  0  0  0
    4.6747    5.1027   21.1275 H   0  0  0  0  0  0  0  0  0  0  0  0
    4.6972    7.6706   21.5637 C   0  0  0  0  0  0  0  0  0  0  0  0
    3.8890    7.2639   21.9409 H   0  0  0  0  0  0  0  0  0  0  0  0
    5.4107    7.6628   22.2349 H   0  0  0  0  0  0  0  0  0  0  0  0
    4.5050    8.5955   21.3016 H   0  0  0  0  0  0  0  0  0  0  0  0
    2.8642    5.4623   18.6843 C   0  0  0  0  0  0  0  0  0  0  0  0
    2.4317    5.3463   19.5560 H   0  0  0  0  0  0  0  0  0  0  0  0
    2.2623    5.1510   17.9767 H   0  0  0  0  0  0  0  0  0  0  0  0
    3.6942    4.9413   18.6598 H   0  0  0  0  0  0  0  0  0  0  0  0
    2.0215    7.7303   18.7009 C   0  0  0  0  0  0  0  0  0  0  0  0
    2.3180    8.6593   18.7937 H   0  0  0  0  0  0  0  0  0  0  0  0
    1.4076    7.6576   17.9401 H   0  0  0  0  0  0  0  0  0  0  0  0
    1.5612    7.4504   19.5195 H   0  0  0  0  0  0  0  0  0  0  0  0
    3.6117    9.2824   15.6803 C   0  0  0  0  0  0  0  0  0  0  0  0
    3.3141    8.8348   14.8488 H   0  0  0  0  0  0  0  0  0  0  0  0
    3.4365    8.6812   16.4474 H   0  0  0  0  0  0  0  0  0  0  0  0
    2.8948   10.6192   15.8644 C   0  0  0  0  0  0  0  0  0  0  0  0
    2.7921   10.8385   16.8236 H   0  0  0  0  0  0  0  0  0  0  0  0
    2.0000   10.6033   15.4393 H   0  0  0  0  0  0  0  0  0  0  0  0
    3.8011   11.6033   15.1778 C   0  0  0  0  0  0  0  0  0  0  0  0
    3.3851   11.9407   14.3446 H   0  0  0  0  0  0  0  0  0  0  0  0
    3.9954   12.3722   15.7704 H   0  0  0  0  0  0  0  0  0  0  0  0
    5.0853   10.8229   14.8635 C   0  0  0  0  0  0  0  0  0  0  0  0
    5.8833   11.3408   15.1378 H   0  0  0  0  0  0  0  0  0  0  0  0
    5.1481   10.6304   13.8949 H   0  0  0  0  0  0  0  0  0  0  0  0
    6.7699   10.7783   18.1001 C   0  0  0  0  0  0  0  0  0  0  0  0
    6.2910   11.5170   17.6479 H   0  0  0  0  0  0  0  0  0  0  0  0
    6.1058   10.1558   18.4899 H   0  0  0  0  0  0  0  0  0  0  0  0
    7.6796   11.3016   19.1466 C   0  0  0  0  0  0  0  0  0  0  0  0
    7.8825   10.6055   19.8210 H   0  0  0  0  0  0  0  0  0  0  0  0
    7.2830   12.0857   19.6023 H   0  0  0  0  0  0  0  0  0  0  0  0
    8.8944   11.6833   18.3991 C   0  0  0  0  0  0  0  0  0  0  0  0
    9.6911   11.6894   18.9866 H   0  0  0  0  0  0  0  0  0  0  0  0
    8.7929   12.5734   17.9786 H   0  0  0  0  0  0  0  0  0  0  0  0
    8.9869   10.6245   17.3885 C   0  0  0  0  0  0  0  0  0  0  0  0
    9.5953    9.9083   17.7000 H   0  0  0  0  0  0  0  0  0  0  0  0
    9.3446   10.9923   16.5417 H   0  0  0  0  0  0  0  0  0  0  0  0
  1  2  1  0  0  0  0
  2  7  1  0  0  0  0
  3  1  1  0  0  0  0
  4  1  1  0  0  0  0
  5  1  1  0  0  0  0
  6  7  8  0  0  0  0
  7  3  1  0  0  0  0
  8 10  1  0  0  0  0
  9  7  1  0  0  0  0
 10  6  1  0  0  0  0
 11  6  4  0  0  0  0
 12 10  1  0  0  0  0
 13  7  1  0  0  0  0
 14  7  8  0  0  0  0
 15  7  8  0  0  0  0
 16  6  4  0  0  0  0
 17 11  1  0  0  0  0
 18 17  1  0  0  0  0
 19 17  1  0  0  0  0
 20 17  1  0  0  0  0
 21 14  1  0  0  0  0
 22 21  1  0  0  0  0
 23 21  1  0  0  0  0
 24 21  1  0  0  0  0
 25 15  1  0  0  0  0
 26 25  1  0  0  0  0
 27 25  1  0  0  0  0
 28 25  1  0  0  0  0
 29 16  1  0  0  0  0
 30 29  1  0  0  0  0
 31 29  1  0  0  0  0
 32 29  1  0  0  0  0
 33  8  1  0  0  0  0
 34 33  1  0  0  0  0
 35 33  1  0  0  0  0
 36 33  1  0  0  0  0
 37  8  1  0  0  0  0
 38 37  1  0  0  0  0
 39 37  1  0  0  0  0
 40 37  1  0  0  0  0
 41 12  1  0  0  0  0
 42 41  1  0  0  0  0
 43 41  1  0  0  0  0
 44 41  1  0  0  0  0
 45 12  1  0  0  0  0
 46 45  1  0  0  0  0
 47 45  1  0  0  0  0
 48 45  1  0  0  0  0
 49  9  1  0  0  0  0
 50 49  1  0  0  0  0
 51 49  1  0  0  0  0
 52 49  1  0  0  0  0
 53 52  1  0  0  0  0
 54 52  1  0  0  0  0
 55 52  1  0  0  0  0
 56 55  1  0  0  0  0
 57 55  1  0  0  0  0
 58  9  1  0  0  0  0
 59 58  1  0  0  0  0
 60 58  1  0  0  0  0
 61 13  1  0  0  0  0
 62 61  1  0  0  0  0
 63 61  1  0  0  0  0
 64 61  1  0  0  0  0
 65 64  1  0  0  0  0
 66 64  1  0  0  0  0
 67 64  1  0  0  0  0
 68 67  1  0  0  0  0
 69 67  1  0  0  0  0
 70 13  1  0  0  0  0
 71 70  1  0  0  0  0
 72 70  1  0  0  0  0
 73 74  1  0  0  0  0
 74  7  1  0  0  0  0
 75  7  1  0  0  0  0
 76 73  1  0  0  0  0
 77  7  1  0  0  0  0
 78 79  8  0  0  0  0
 79  2  1  0  0  0  0
 80 82  1  0  0  0  0
 81 79  1  0  0  0  0
 82 78  1  0  0  0  0
 83 78  4  0  0  0  0
 84 82  1  0  0  0  0
 85 79  1  0  0  0  0
 86 79  8  0  0  0  0
 87 79  8  0  0  0  0
 88 78  4  0  0  0  0
 89 83  1  0  0  0  0
 90 89  1  0  0  0  0
 91 89  1  0  0  0  0
 92 89  1  0  0  0  0
 93 86  1  0  0  0  0
 94 93  1  0  0  0  0
 95 93  1  0  0  0  0
 96 93  1  0  0  0  0
 97 87  1  0  0  0  0
 98 97  1  0  0  0  0
 99 97  1  0  0  0  0
100 97  1  0  0  0  0
101 88  1  0  0  0  0
102101  1  0  0  0  0
103101  1  0  0  0  0
104101  1  0  0  0  0
105 80  1  0  0  0  0
106105  1  0  0  0  0
107105  1  0  0  0  0
108105  1  0  0  0  0
109 80  1  0  0  0  0
110109  1  0  0  0  0
111109  1  0  0  0  0
112109  1  0  0  0  0
113 84  1  0  0  0  0
114113  1  0  0  0  0
115113  1  0  0  0  0
116113  1  0  0  0  0
117 84  1  0  0  0  0
118117  1  0  0  0  0
119117  1  0  0  0  0
120117  1  0  0  0  0
121 81  1  0  0  0  0
122121  1  0  0  0  0
123121  1  0  0  0  0
124121  1  0  0  0  0
125124  1  0  0  0  0
126124  1  0  0  0  0
127124  1  0  0  0  0
128127  1  0  0  0  0
129127  1  0  0  0  0
130 81  1  0  0  0  0
131130  1  0  0  0  0
132130  1  0  0  0  0
133 85  1  0  0  0  0
134133  1  0  0  0  0
135133  1  0  0  0  0
136133  1  0  0  0  0
137136  1  0  0  0  0
138136  1  0  0  0  0
139136  1  0  0  0  0
140139  1  0  0  0  0
141139  1  0  0  0  0
142 85  1  0  0  0  0
143142  1  0  0  0  0
144142  1  0  0  0  0
  3 79  1  0  0  0  0
  4  7  1  0  0  0  0
  5 79  1  0  0  0  0
  7 11  8  0  0  0  0
  7 16  8  0  0  0  0
 11 14  4  0  0  0  0
 14 15  4  0  0  0  0
 15 16  4  0  0  0  0
 55 58  1  0  0  0  0
 67 70  1  0  0  0  0
 73 75  1  0  0  0  0
 73 77  1  0  0  0  0
 74 79  1  0  0  0  0
 75 79  1  0  0  0  0
 76 79  1  0  0  0  0
 79 83  8  0  0  0  0
 79 88  8  0  0  0  0
 83 86  4  0  0  0  0
 86 87  4  0  0  0  0
 87 88  4  0  0  0  0
127130  1  0  0  0  0
139142  1  0  0  0  0
M  CHG  4   1  -1   7   1  73  -1  79   1
M  END
$$$$
LULJUB03

From CSD data. Using bond type 'Any'. No disordered atoms. Largest molecule.
144166  0  0  0  0  0  0  0  0999 V2000
    9.0747    7.9155   11.9389 Eu  0  3  0  0  0  0  0  0  0  0  0  0
    6.9122    8.7489   13.2051 H   0  0  0  0  0  0  0  0  0  0  0  0
    6.8948    6.9844   13.2716 H   0  0  0  0  0  0  0  0  0  0  0  0
    6.4176    7.7698   11.8258 H   0  0  0  0  0  0  0  0  0  0  0  0
   11.4217    8.4219    8.8090 P   0  0  0  0  0  0  0  0  0  0  0  0
   11.0898    6.3112   12.0965 O   0  0  0  0  0  0  0  0  0  0  0  0
    8.4296    5.8330   10.5160 O   0  0  0  0  0  0  0  0  0  0  0  0
   10.9870    9.0128    7.2745 N   0  0  0  0  0  0  0  0  0  0  0  0
   12.9502    9.0572    9.2162 N   0  0  0  0  0  0  0  0  0  0  0  0
   10.3143    9.3848    9.8650 C   0  0  0  0  0  0  0  0  0  0  0  0
   10.5582   10.1314   11.0721 C   0  0  0  0  0  0  0  0  0  0  0  0
    9.3296   10.6825   11.4874 C   0  0  0  0  0  0  0  0  0  0  0  0
    8.3227   10.2925   10.5883 C   0  0  0  0  0  0  0  0  0  0  0  0
    8.9084    9.4745    9.6049 C   0  0  0  0  0  0  0  0  0  0  0  0
   11.8527   10.3449   11.8273 C   0  0  0  0  0  0  0  0  0  0  0  0
   11.7133   10.1530   12.7679 H   0  0  0  0  0  0  0  0  0  0  0  0
   12.1393   11.2654   11.7239 H   0  0  0  0  0  0  0  0  0  0  0  0
   12.5341    9.7519   11.4739 H   0  0  0  0  0  0  0  0  0  0  0  0
    9.1137   11.6011   12.6650 C   0  0  0  0  0  0  0  0  0  0  0  0
    8.4059   11.2473   13.2258 H   0  0  0  0  0  0  0  0  0  0  0  0
    8.8630   12.4824   12.3458 H   0  0  0  0  0  0  0  0  0  0  0  0
    9.9331   11.6652   13.1800 H   0  0  0  0  0  0  0  0  0  0  0  0
    6.8894   10.7606   10.6243 C   0  0  0  0  0  0  0  0  0  0  0  0
    6.3654   10.2455    9.9912 H   0  0  0  0  0  0  0  0  0  0  0  0
    6.8504   11.7003   10.3878 H   0  0  0  0  0  0  0  0  0  0  0  0
    6.5314   10.6365   11.5172 H   0  0  0  0  0  0  0  0  0  0  0  0
    8.1399    8.8181    8.4862 C   0  0  0  0  0  0  0  0  0  0  0  0
    8.5798    7.9909    8.2342 H   0  0  0  0  0  0  0  0  0  0  0  0
    8.1105    9.4144    7.7216 H   0  0  0  0  0  0  0  0  0  0  0  0
    7.2368    8.6271    8.7826 H   0  0  0  0  0  0  0  0  0  0  0  0
   10.6506   10.3854    6.9487 C   0  0  0  0  0  0  0  0  0  0  0  0
   10.3614   10.8467    7.7513 H   0  0  0  0  0  0  0  0  0  0  0  0
    9.9360   10.3967    6.2934 H   0  0  0  0  0  0  0  0  0  0  0  0
   11.4314   10.8310    6.5835 H   0  0  0  0  0  0  0  0  0  0  0  0
   11.4014    8.2563    6.1227 C   0  0  0  0  0  0  0  0  0  0  0  0
   12.2188    8.6361    5.7639 H   0  0  0  0  0  0  0  0  0  0  0  0
   10.7062    8.2887    5.4471 H   0  0  0  0  0  0  0  0  0  0  0  0
   11.5592    7.3347    6.3806 H   0  0  0  0  0  0  0  0  0  0  0  0
   13.2548   10.4656    8.9992 C   0  0  0  0  0  0  0  0  0  0  0  0
   13.5761   10.5912    8.0925 H   0  0  0  0  0  0  0  0  0  0  0  0
   13.9377   10.7497    9.6265 H   0  0  0  0  0  0  0  0  0  0  0  0
   12.4524   10.9943    9.1335 H   0  0  0  0  0  0  0  0  0  0  0  0
   14.0933    8.1850    9.0033 C   0  0  0  0  0  0  0  0  0  0  0  0
   13.8134    7.2595    9.0834 H   0  0  0  0  0  0  0  0  0  0  0  0
   14.7744    8.3754    9.6668 H   0  0  0  0  0  0  0  0  0  0  0  0
   14.4554    8.3368    8.1157 H   0  0  0  0  0  0  0  0  0  0  0  0
   12.4820    6.6333   12.0293 C   0  0  0  0  0  0  0  0  0  0  0  0
   12.7787    7.0693   12.8546 H   0  0  0  0  0  0  0  0  0  0  0  0
   12.6646    7.2293   11.2725 H   0  0  0  0  0  0  0  0  0  0  0  0
   13.1742    5.3090   11.8451 C   0  0  0  0  0  0  0  0  0  0  0  0
   13.2763    5.0963   10.8935 H   0  0  0  0  0  0  0  0  0  0  0  0
   14.0591    5.3150   12.2661 H   0  0  0  0  0  0  0  0  0  0  0  0
   12.2672    4.3244   12.5196 C   0  0  0  0  0  0  0  0  0  0  0  0
   12.6816    3.9741   13.3351 H   0  0  0  0  0  0  0  0  0  0  0  0
   12.0647    3.5743   11.9213 H   0  0  0  0  0  0  0  0  0  0  0  0
   11.0175    5.0927   12.8464 C   0  0  0  0  0  0  0  0  0  0  0  0
   10.2225    4.5801   12.5924 H   0  0  0  0  0  0  0  0  0  0  0  0
   10.9743    5.2837   13.8071 H   0  0  0  0  0  0  0  0  0  0  0  0
    9.2778    5.1929    9.5476 C   0  0  0  0  0  0  0  0  0  0  0  0
    9.8332    4.5096    9.9767 H   0  0  0  0  0  0  0  0  0  0  0  0
    9.8646    5.8505    9.1187 H   0  0  0  0  0  0  0  0  0  0  0  0
    8.3823    4.5796    8.5560 C   0  0  0  0  0  0  0  0  0  0  0  0
    8.7891    3.7806    8.1605 H   0  0  0  0  0  0  0  0  0  0  0  0
    8.1610    5.2128    7.8414 H   0  0  0  0  0  0  0  0  0  0  0  0
    7.1677    4.2259    9.3565 C   0  0  0  0  0  0  0  0  0  0  0  0
    6.3576    4.2819    8.8076 H   0  0  0  0  0  0  0  0  0  0  0  0
    7.2416    3.3198    9.7233 H   0  0  0  0  0  0  0  0  0  0  0  0
    7.1474    5.2099   10.4104 C   0  0  0  0  0  0  0  0  0  0  0  0
    6.4665    5.8875   10.2166 H   0  0  0  0  0  0  0  0  0  0  0  0
    6.9184    4.7797   11.2601 H   0  0  0  0  0  0  0  0  0  0  0  0
    6.3594    7.8558   12.9027 B   0  5  0  0  0  0  0  0  0  0  0  0
    5.3481    7.9258   13.2674 H   0  0  0  0  0  0  0  0  0  0  0  0
    7.0629    8.0746   15.7593 Eu  0  3  0  0  0  0  0  0  0  0  0  0
    9.2255    7.2413   14.4931 H   0  0  0  0  0  0  0  0  0  0  0  0
    9.2428    9.0057   14.4266 H   0  0  0  0  0  0  0  0  0  0  0  0
    9.7201    8.2203   15.8725 H   0  0  0  0  0  0  0  0  0  0  0  0
    4.7159    7.5682   18.8892 P   0  0  0  0  0  0  0  0  0  0  0  0
    5.0478    9.6789   15.6017 O   0  0  0  0  0  0  0  0  0  0  0  0
    7.7080   10.1572   17.1822 O   0  0  0  0  0  0  0  0  0  0  0  0
    5.1506    6.9774   20.4237 N   0  0  0  0  0  0  0  0  0  0  0  0
    3.1875    6.9330   18.4821 N   0  0  0  0  0  0  0  0  0  0  0  0
    5.8233    6.6053   17.8332 C   0  0  0  0  0  0  0  0  0  0  0  0
    5.5795    5.8588   16.6261 C   0  0  0  0  0  0  0  0  0  0  0  0
    6.8080    5.3077   16.2108 C   0  0  0  0  0  0  0  0  0  0  0  0
    7.8150    5.6977   17.1099 C   0  0  0  0  0  0  0  0  0  0  0  0
    7.2293    6.5157   18.0933 C   0  0  0  0  0  0  0  0  0  0  0  0
    4.2849    5.6452   15.8709 C   0  0  0  0  0  0  0  0  0  0  0  0
    4.4243    5.8372   14.9303 H   0  0  0  0  0  0  0  0  0  0  0  0
    3.9983    4.7247   15.9743 H   0  0  0  0  0  0  0  0  0  0  0  0
    3.6035    6.2382   16.2243 H   0  0  0  0  0  0  0  0  0  0  0  0
    7.0239    4.3891   15.0332 C   0  0  0  0  0  0  0  0  0  0  0  0
    7.7317    4.7429   14.4724 H   0  0  0  0  0  0  0  0  0  0  0  0
    7.2746    3.5077   15.3524 H   0  0  0  0  0  0  0  0  0  0  0  0
    6.2045    4.3250   14.5182 H   0  0  0  0  0  0  0  0  0  0  0  0
    9.2483    5.2295   17.0739 C   0  0  0  0  0  0  0  0  0  0  0  0
    9.7722    5.7446   17.7070 H   0  0  0  0  0  0  0  0  0  0  0  0
    9.2872    4.2898   17.3104 H   0  0  0  0  0  0  0  0  0  0  0  0
    9.6062    5.3536   16.1810 H   0  0  0  0  0  0  0  0  0  0  0  0
    7.9977    7.1721   19.2120 C   0  0  0  0  0  0  0  0  0  0  0  0
    7.5578    7.9992   19.4641 H   0  0  0  0  0  0  0  0  0  0  0  0
    8.0271    6.5758   19.9766 H   0  0  0  0  0  0  0  0  0  0  0  0
    8.9008    7.3631   18.9156 H   0  0  0  0  0  0  0  0  0  0  0  0
    5.4870    5.6048   20.7496 C   0  0  0  0  0  0  0  0  0  0  0  0
    5.7762    5.1435   19.9469 H   0  0  0  0  0  0  0  0  0  0  0  0
    6.2016    5.5935   21.4048 H   0  0  0  0  0  0  0  0  0  0  0  0
    4.7062    5.1591   21.1147 H   0  0  0  0  0  0  0  0  0  0  0  0
    4.7363    7.7338   21.5755 C   0  0  0  0  0  0  0  0  0  0  0  0
    3.9188    7.3540   21.9343 H   0  0  0  0  0  0  0  0  0  0  0  0
    5.4315    7.7014   22.2511 H   0  0  0  0  0  0  0  0  0  0  0  0
    4.5785    8.6555   21.3177 H   0  0  0  0  0  0  0  0  0  0  0  0
    2.8828    5.5245   18.6991 C   0  0  0  0  0  0  0  0  0  0  0  0
    2.5615    5.3990   19.6058 H   0  0  0  0  0  0  0  0  0  0  0  0
    2.1999    5.2405   18.0717 H   0  0  0  0  0  0  0  0  0  0  0  0
    3.6852    4.9958   18.5647 H   0  0  0  0  0  0  0  0  0  0  0  0
    2.0444    7.8051   18.6949 C   0  0  0  0  0  0  0  0  0  0  0  0
    2.3242    8.7307   18.6148 H   0  0  0  0  0  0  0  0  0  0  0  0
    1.3632    7.6148   18.0314 H   0  0  0  0  0  0  0  0  0  0  0  0
    1.6822    7.6534   19.5825 H   0  0  0  0  0  0  0  0  0  0  0  0
    3.6556    9.3569   15.6689 C   0  0  0  0  0  0  0  0  0  0  0  0
    3.3590    8.9209   14.8436 H   0  0  0  0  0  0  0  0  0  0  0  0
    3.4730    8.7609   16.4257 H   0  0  0  0  0  0  0  0  0  0  0  0
    2.9634   10.6811   15.8531 C   0  0  0  0  0  0  0  0  0  0  0  0
    2.8613   10.8939   16.8047 H   0  0  0  0  0  0  0  0  0  0  0  0
    2.0785   10.6752   15.4321 H   0  0  0  0  0  0  0  0  0  0  0  0
    3.8704   11.6658   15.1786 C   0  0  0  0  0  0  0  0  0  0  0  0
    3.4560   12.0161   14.3631 H   0  0  0  0  0  0  0  0  0  0  0  0
    4.0729   12.4158   15.7769 H   0  0  0  0  0  0  0  0  0  0  0  0
    5.1201   10.8974   14.8518 C   0  0  0  0  0  0  0  0  0  0  0  0
    5.9151   11.4101   15.1058 H   0  0  0  0  0  0  0  0  0  0  0  0
    5.1633   10.7064   13.8912 H   0  0  0  0  0  0  0  0  0  0  0  0
    6.8599   10.7972   18.1506 C   0  0  0  0  0  0  0  0  0  0  0  0
    6.3044   11.4806   17.7215 H   0  0  0  0  0  0  0  0  0  0  0  0
    6.2730   10.1397   18.5796 H   0  0  0  0  0  0  0  0  0  0  0  0
    7.7554   11.4106   19.1422 C   0  0  0  0  0  0  0  0  0  0  0  0
    7.3486   12.2096   19.5377 H   0  0  0  0  0  0  0  0  0  0  0  0
    7.9766   10.7774   19.8568 H   0  0  0  0  0  0  0  0  0  0  0  0
    8.9699   11.7642   18.3418 C   0  0  0  0  0  0  0  0  0  0  0  0
    9.7800   11.7082   18.8906 H   0  0  0  0  0  0  0  0  0  0  0  0
    8.8960   12.6703   17.9749 H   0  0  0  0  0  0  0  0  0  0  0  0
    8.9902   10.7803   17.2878 C   0  0  0  0  0  0  0  0  0  0  0  0
    9.6712   10.1026   17.4817 H   0  0  0  0  0  0  0  0  0  0  0  0
    9.2193   11.2104   16.4381 H   0  0  0  0  0  0  0  0  0  0  0  0
    9.7782    8.1344   14.7956 B   0  5  0  0  0  0  0  0  0  0  0  0
   10.7896    8.0644   14.4308 H   0  0  0  0  0  0  0  0  0  0  0  0
  1  2  1  0  0  0  0
  2 71  1  0  0  0  0
  3  1  1  0  0  0  0
  4  1  1  0  0  0  0
  5  8  1  0  0  0  0
  6  1  1  0  0  0  0
  7  1  1  0  0  0  0
  8 31  1  0  0  0  0
  9  5  1  0  0  0  0
 10  1  8  0  0  0  0
 11  1  8  0  0  0  0
 12  1  8  0  0  0  0
 13  1  8  0  0  0  0
 14  1  8  0  0  0  0
 15 11  1  0  0  0  0
 16 15  1  0  0  0  0
 17 15  1  0  0  0  0
 18 15  1  0  0  0  0
 19 12  1  0  0  0  0
 20 19  1  0  0  0  0
 21 19  1  0  0  0  0
 22 19  1  0  0  0  0
 23 13  1  0  0  0  0
 24 23  1  0  0  0  0
 25 23  1  0  0  0  0
 26 23  1  0  0  0  0
 27 14  1  0  0  0  0
 28 27  1  0  0  0  0
 29 27  1  0  0  0  0
 30 27  1  0  0  0  0
 31 32  1  0  0  0  0
 33 31  1  0  0  0  0
 34 31  1  0  0  0  0
 35  8  1  0  0  0  0
 36 35  1  0  0  0  0
 37 35  1  0  0  0  0
 38 35  1  0  0  0  0
 39  9  1  0  0  0  0
 40 39  1  0  0  0  0
 41 39  1  0  0  0  0
 42 39  1  0  0  0  0
 43  9  1  0  0  0  0
 44 43  1  0  0  0  0
 45 43  1  0  0  0  0
 46 43  1  0  0  0  0
 47  6  1  0  0  0  0
 48 47  1  0  0  0  0
 49 47  1  0  0  0  0
 50 47  1  0  0  0  0
 51 50  1  0  0  0  0
 52 50  1  0  0  0  0
 53 50  1  0  0  0  0
 54 53  1  0  0  0  0
 55 53  1  0  0  0  0
 56  6  1  0  0  0  0
 57 56  1  0  0  0  0
 58 56  1  0  0  0  0
 59  7  1  0  0  0  0
 60 59  1  0  0  0  0
 61 59  1  0  0  0  0
 62 59  1  0  0  0  0
 63 62  1  0  0  0  0
 64 62  1  0  0  0  0
 65 62  1  0  0  0  0
 66 65  1  0  0  0  0
 67 65  1  0  0  0  0
 68  7  1  0  0  0  0
 69 68  1  0  0  0  0
 70 68  1  0  0  0  0
 71  3  1  0  0  0  0
 72 71  1  0  0  0  0
 73  2  1  0  0  0  0
 74  1  1  0  0  0  0
 75  1  1  0  0  0  0
 76 73  1  0  0  0  0
 77 80  1  0  0  0  0
 78 73  1  0  0  0  0
 79 73  1  0  0  0  0
 80103  1  0  0  0  0
 81 77  1  0  0  0  0
 82 73  8  0  0  0  0
 83 73  8  0  0  0  0
 84 73  8  0  0  0  0
 85 73  8  0  0  0  0
 86 73  8  0  0  0  0
 87 83  1  0  0  0  0
 88 87  1  0  0  0  0
 89 87  1  0  0  0  0
 90 87  1  0  0  0  0
 91 84  1  0  0  0  0
 92 91  1  0  0  0  0
 93 91  1  0  0  0  0
 94 91  1  0  0  0  0
 95 85  1  0  0  0  0
 96 95  1  0  0  0  0
 97 95  1  0  0  0  0
 98 95  1  0  0  0  0
 99 86  1  0  0  0  0
100 99  1  0  0  0  0
101 99  1  0  0  0  0
102 99  1  0  0  0  0
103104  1  0  0  0  0
105103  1  0  0  0  0
106103  1  0  0  0  0
107 80  1  0  0  0  0
108107  1  0  0  0  0
109107  1  0  0  0  0
110107  1  0  0  0  0
111 81  1  0  0  0  0
112111  1  0  0  0  0
113111  1  0  0  0  0
114111  1  0  0  0  0
115 81  1  0  0  0  0
116115  1  0  0  0  0
117115  1  0  0  0  0
118115  1  0  0  0  0
119 78  1  0  0  0  0
120119  1  0  0  0  0
121119  1  0  0  0  0
122119  1  0  0  0  0
123122  1  0  0  0  0
124122  1  0  0  0  0
125122  1  0  0  0  0
126125  1  0  0  0  0
127125  1  0  0  0  0
128 78  1  0  0  0  0
129128  1  0  0  0  0
130128  1  0  0  0  0
131 79  1  0  0  0  0
132131  1  0  0  0  0
133131  1  0  0  0  0
134131  1  0  0  0  0
135134  1  0  0  0  0
136134  1  0  0  0  0
137134  1  0  0  0  0
138137  1  0  0  0  0
139137  1  0  0  0  0
140 79  1  0  0  0  0
141140  1  0  0  0  0
142140  1  0  0  0  0
143 74  1  0  0  0  0
144  1  1  0  0  0  0
  3 73  1  0  0  0  0
  4 71  1  0  0  0  0
  5 10  1  0  0  0  0
 10 11  4  0  0  0  0
 10 14  4  0  0  0  0
 11 12  4  0  0  0  0
 12 13  4  0  0  0  0
 13 14  4  0  0  0  0
 53 56  1  0  0  0  0
 65 68  1  0  0  0  0
 72 73  1  0  0  0  0
 73 74  1  0  0  0  0
 73 75  1  0  0  0  0
 75143  1  0  0  0  0
 76143  1  0  0  0  0
 77 82  1  0  0  0  0
 82 83  4  0  0  0  0
 82 86  4  0  0  0  0
 83 84  4  0  0  0  0
 84 85  4  0  0  0  0
 85 86  4  0  0  0  0
125128  1  0  0  0  0
137140  1  0  0  0  0
143144  1  0  0  0  0
M  CHG  4   1   1  71  -1  73   1 143  -1
M  END
$$$$
LULJUB04

From CSD data. Using bond type 'Any'. No disordered atoms. Largest molecule.
144166  0  0  0  0  0  0  0  0999 V2000
    6.3897    7.8479   12.9784 B   0  5  0  0  0  0  0  0  0  0  0  0
    7.0197    8.6493   13.2370 H   0  0  0  0  0  0  0  0  0  0  0  0
    6.7990    6.9561   13.3483 H   0  0  0  0  0  0  0  0  0  0  0  0
    6.3371    7.7930   11.9300 H   0  0  0  0  0  0  0  0  0  0  0  0
    5.4372    7.9995   13.3761 H   0  0  0  0  0  0  0  0  0  0  0  0
   10.2909    9.4089    9.9097 C   0  0  0  0  0  0  0  0  0  0  0  0
    9.0811    7.9174   11.9748 Eu  0  3  0  0  0  0  0  0  0  0  0  0
   10.9549    9.0222    7.3165 N   0  0  0  0  0  0  0  0  0  0  0  0
   11.0787    6.2726   12.1122 O   0  0  0  0  0  0  0  0  0  0  0  0
   11.3810    8.4416    8.8406 P   0  0  0  0  0  0  0  0  0  0  0  0
   10.5629   10.1386   11.1166 C   0  0  0  0  0  0  0  0  0  0  0  0
   12.9164    9.0726    9.2131 N   0  0  0  0  0  0  0  0  0  0  0  0
    8.4019    5.8675   10.5159 O   0  0  0  0  0  0  0  0  0  0  0  0
    9.3346   10.6796   11.5588 C   0  0  0  0  0  0  0  0  0  0  0  0
    8.3256   10.3256   10.6800 C   0  0  0  0  0  0  0  0  0  0  0  0
    8.8874    9.5243    9.6803 C   0  0  0  0  0  0  0  0  0  0  0  0
   11.8861   10.3080   11.8605 C   0  0  0  0  0  0  0  0  0  0  0  0
   11.7903    9.9869   12.7607 H   0  0  0  0  0  0  0  0  0  0  0  0
   12.1275   11.2369   11.8768 H   0  0  0  0  0  0  0  0  0  0  0  0
   12.5710    9.8065   11.4133 H   0  0  0  0  0  0  0  0  0  0  0  0
    9.1114   11.6035   12.7587 C   0  0  0  0  0  0  0  0  0  0  0  0
    8.2321   11.4570   13.1158 H   0  0  0  0  0  0  0  0  0  0  0  0
    9.1948   12.5175   12.4785 H   0  0  0  0  0  0  0  0  0  0  0  0
    9.7665   11.4142   13.4342 H   0  0  0  0  0  0  0  0  0  0  0  0
    6.9234   10.8184   10.7398 C   0  0  0  0  0  0  0  0  0  0  0  0
    6.3965   10.3673   10.0767 H   0  0  0  0  0  0  0  0  0  0  0  0
    6.9086   11.7635   10.5725 H   0  0  0  0  0  0  0  0  0  0  0  0
    6.5597   10.6425   11.6114 H   0  0  0  0  0  0  0  0  0  0  0  0
    8.1003    8.8970    8.5679 C   0  0  0  0  0  0  0  0  0  0  0  0
    8.5522    8.1068    8.2631 H   0  0  0  0  0  0  0  0  0  0  0  0
    8.0200    9.5200    7.8425 H   0  0  0  0  0  0  0  0  0  0  0  0
    7.2263    8.6628    8.8878 H   0  0  0  0  0  0  0  0  0  0  0  0
   10.5997   10.3943    6.9898 C   0  0  0  0  0  0  0  0  0  0  0  0
   10.3315   10.8544    7.7877 H   0  0  0  0  0  0  0  0  0  0  0  0
    9.8741   10.3951    6.3603 H   0  0  0  0  0  0  0  0  0  0  0  0
   11.3583   10.8374    6.6032 H   0  0  0  0  0  0  0  0  0  0  0  0
   11.3087    8.2659    6.1611 C   0  0  0  0  0  0  0  0  0  0  0  0
   12.1941    8.5073    5.8798 H   0  0  0  0  0  0  0  0  0  0  0  0
   10.6863    8.4508    5.4546 H   0  0  0  0  0  0  0  0  0  0  0  0
   11.2844    7.3293    6.3721 H   0  0  0  0  0  0  0  0  0  0  0  0
   13.2201   10.4721    8.9934 C   0  0  0  0  0  0  0  0  0  0  0  0
   13.5800   10.5876    8.1113 H   0  0  0  0  0  0  0  0  0  0  0  0
   13.8648   10.7660    9.6426 H   0  0  0  0  0  0  0  0  0  0  0  0
   12.4180   10.9919    9.0829 H   0  0  0  0  0  0  0  0  0  0  0  0
   14.0315    8.1905    8.9920 C   0  0  0  0  0  0  0  0  0  0  0  0
   13.7458    7.2807    9.1027 H   0  0  0  0  0  0  0  0  0  0  0  0
   14.7259    8.3872    9.6249 H   0  0  0  0  0  0  0  0  0  0  0  0
   14.3656    8.3150    8.1009 H   0  0  0  0  0  0  0  0  0  0  0  0
   12.4607    6.6020   12.0246 C   0  0  0  0  0  0  0  0  0  0  0  0
   12.7589    7.0642   12.8233 H   0  0  0  0  0  0  0  0  0  0  0  0
   12.6353    7.1627   11.2523 H   0  0  0  0  0  0  0  0  0  0  0  0
   13.1538    5.2557   11.8855 C   0  0  0  0  0  0  0  0  0  0  0  0
   13.2793    5.0272   10.9511 H   0  0  0  0  0  0  0  0  0  0  0  0
   14.0184    5.2659   12.3251 H   0  0  0  0  0  0  0  0  0  0  0  0
   12.2388    4.2977   12.5446 C   0  0  0  0  0  0  0  0  0  0  0  0
   12.6361    3.9530   13.3593 H   0  0  0  0  0  0  0  0  0  0  0  0
   12.0443    3.5523   11.9542 H   0  0  0  0  0  0  0  0  0  0  0  0
   11.0008    5.0578   12.8491 C   0  0  0  0  0  0  0  0  0  0  0  0
   10.2178    4.5510   12.5822 H   0  0  0  0  0  0  0  0  0  0  0  0
   10.9417    5.2419   13.7993 H   0  0  0  0  0  0  0  0  0  0  0  0
    9.2567    5.1766    9.5621 C   0  0  0  0  0  0  0  0  0  0  0  0
    9.7452    4.4551    9.9886 H   0  0  0  0  0  0  0  0  0  0  0  0
    9.8888    5.7880    9.1525 H   0  0  0  0  0  0  0  0  0  0  0  0
    8.3021    4.6509    8.5665 C   0  0  0  0  0  0  0  0  0  0  0  0
    8.0611    5.3423    7.9261 H   0  0  0  0  0  0  0  0  0  0  0  0
    8.6805    3.8996    8.0885 H   0  0  0  0  0  0  0  0  0  0  0  0
    7.1505    4.2436    9.3452 C   0  0  0  0  0  0  0  0  0  0  0  0
    7.2847    3.3706    9.7376 H   0  0  0  0  0  0  0  0  0  0  0  0
    6.3473    4.2322    8.8015 H   0  0  0  0  0  0  0  0  0  0  0  0
    7.0686    5.2775   10.3755 C   0  0  0  0  0  0  0  0  0  0  0  0
    6.7838    4.8880   11.2173 H   0  0  0  0  0  0  0  0  0  0  0  0
    6.4263    5.9580   10.1191 H   0  0  0  0  0  0  0  0  0  0  0  0
    9.7840    8.1243   14.8305 B   0  5  0  0  0  0  0  0  0  0  0  0
    9.1540    7.3229   14.5719 H   0  0  0  0  0  0  0  0  0  0  0  0
    9.3746    9.0160   14.4606 H   0  0  0  0  0  0  0  0  0  0  0  0
    9.8366    8.1792   15.8789 H   0  0  0  0  0  0  0  0  0  0  0  0
   10.7365    7.9727   14.4328 H   0  0  0  0  0  0  0  0  0  0  0  0
    5.8828    6.5633   17.8992 C   0  0  0  0  0  0  0  0  0  0  0  0
    7.0926    8.0548   15.8341 Eu  0  3  0  0  0  0  0  0  0  0  0  0
    5.2188    6.9500   20.4924 N   0  0  0  0  0  0  0  0  0  0  0  0
    5.0950    9.6996   15.6967 O   0  0  0  0  0  0  0  0  0  0  0  0
    4.7927    7.5305   18.9683 P   0  0  0  0  0  0  0  0  0  0  0  0
    5.6107    5.8336   16.6923 C   0  0  0  0  0  0  0  0  0  0  0  0
    3.2572    6.8995   18.5958 N   0  0  0  0  0  0  0  0  0  0  0  0
    7.7718   10.1046   17.2930 O   0  0  0  0  0  0  0  0  0  0  0  0
    6.8391    5.2926   16.2501 C   0  0  0  0  0  0  0  0  0  0  0  0
    7.8481    5.6466   17.1289 C   0  0  0  0  0  0  0  0  0  0  0  0
    7.2862    6.4478   18.1286 C   0  0  0  0  0  0  0  0  0  0  0  0
    4.2876    5.6642   15.9484 C   0  0  0  0  0  0  0  0  0  0  0  0
    4.3834    5.9853   15.0482 H   0  0  0  0  0  0  0  0  0  0  0  0
    4.0461    4.7352   15.9322 H   0  0  0  0  0  0  0  0  0  0  0  0
    3.6026    6.1657   16.3957 H   0  0  0  0  0  0  0  0  0  0  0  0
    7.0623    4.3686   15.0502 C   0  0  0  0  0  0  0  0  0  0  0  0
    7.9416    4.5152   14.6931 H   0  0  0  0  0  0  0  0  0  0  0  0
    6.9789    3.4547   15.3305 H   0  0  0  0  0  0  0  0  0  0  0  0
    6.4072    4.5580   14.3747 H   0  0  0  0  0  0  0  0  0  0  0  0
    9.2503    5.1537   17.0691 C   0  0  0  0  0  0  0  0  0  0  0  0
    9.7772    5.6049   17.7322 H   0  0  0  0  0  0  0  0  0  0  0  0
    9.2651    4.2087   17.2365 H   0  0  0  0  0  0  0  0  0  0  0  0
    9.6140    5.3296   16.1976 H   0  0  0  0  0  0  0  0  0  0  0  0
    8.0734    7.0752   19.2410 C   0  0  0  0  0  0  0  0  0  0  0  0
    7.6214    7.8654   19.5458 H   0  0  0  0  0  0  0  0  0  0  0  0
    8.1537    6.4521   19.9664 H   0  0  0  0  0  0  0  0  0  0  0  0
    8.9474    7.3094   18.9211 H   0  0  0  0  0  0  0  0  0  0  0  0
    5.5740    5.5779   20.8192 C   0  0  0  0  0  0  0  0  0  0  0  0
    5.8422    5.1177   20.0212 H   0  0  0  0  0  0  0  0  0  0  0  0
    6.2996    5.5770   21.4486 H   0  0  0  0  0  0  0  0  0  0  0  0
    4.8153    5.1347   21.2057 H   0  0  0  0  0  0  0  0  0  0  0  0
    4.8650    7.7063   21.6479 C   0  0  0  0  0  0  0  0  0  0  0  0
    3.9796    7.4649   21.9291 H   0  0  0  0  0  0  0  0  0  0  0  0
    5.4874    7.5214   22.3544 H   0  0  0  0  0  0  0  0  0  0  0  0
    4.8893    8.6429   21.4368 H   0  0  0  0  0  0  0  0  0  0  0  0
    2.9536    5.5001   18.8155 C   0  0  0  0  0  0  0  0  0  0  0  0
    2.5937    5.3846   19.6976 H   0  0  0  0  0  0  0  0  0  0  0  0
    2.3089    5.2062   18.1664 H   0  0  0  0  0  0  0  0  0  0  0  0
    3.7557    4.9802   18.7261 H   0  0  0  0  0  0  0  0  0  0  0  0
    2.1422    7.7817   18.8169 C   0  0  0  0  0  0  0  0  0  0  0  0
    2.4278    8.6915   18.7062 H   0  0  0  0  0  0  0  0  0  0  0  0
    1.4478    7.5849   18.1840 H   0  0  0  0  0  0  0  0  0  0  0  0
    1.8080    7.6571   19.7080 H   0  0  0  0  0  0  0  0  0  0  0  0
    3.7130    9.3702   15.7843 C   0  0  0  0  0  0  0  0  0  0  0  0
    3.4147    8.9080   14.9857 H   0  0  0  0  0  0  0  0  0  0  0  0
    3.5384    8.8095   16.5566 H   0  0  0  0  0  0  0  0  0  0  0  0
    3.0199   10.7165   15.9234 C   0  0  0  0  0  0  0  0  0  0  0  0
    2.8944   10.9450   16.8578 H   0  0  0  0  0  0  0  0  0  0  0  0
    2.1553   10.7063   15.4838 H   0  0  0  0  0  0  0  0  0  0  0  0
    3.9349   11.6744   15.2643 C   0  0  0  0  0  0  0  0  0  0  0  0
    3.5376   12.0192   14.4496 H   0  0  0  0  0  0  0  0  0  0  0  0
    4.1294   12.4199   15.8547 H   0  0  0  0  0  0  0  0  0  0  0  0
    5.1728   10.9143   14.9598 C   0  0  0  0  0  0  0  0  0  0  0  0
    5.9558   11.4211   15.2268 H   0  0  0  0  0  0  0  0  0  0  0  0
    5.2320   10.7302   14.0097 H   0  0  0  0  0  0  0  0  0  0  0  0
    6.9170   10.7955   18.2468 C   0  0  0  0  0  0  0  0  0  0  0  0
    6.4284   11.5170   17.8203 H   0  0  0  0  0  0  0  0  0  0  0  0
    6.2848   10.1842   18.6564 H   0  0  0  0  0  0  0  0  0  0  0  0
    7.8716   11.3213   19.2424 C   0  0  0  0  0  0  0  0  0  0  0  0
    8.1125   10.6299   19.8828 H   0  0  0  0  0  0  0  0  0  0  0  0
    7.4932   12.0725   19.7204 H   0  0  0  0  0  0  0  0  0  0  0  0
    9.0232   11.7286   18.4637 C   0  0  0  0  0  0  0  0  0  0  0  0
    8.8890   12.6016   18.0713 H   0  0  0  0  0  0  0  0  0  0  0  0
    9.8263   11.7400   19.0074 H   0  0  0  0  0  0  0  0  0  0  0  0
    9.1051   10.6947   17.4334 C   0  0  0  0  0  0  0  0  0  0  0  0
    9.3898   11.0842   16.5916 H   0  0  0  0  0  0  0  0  0  0  0  0
    9.7473   10.0142   17.6899 H   0  0  0  0  0  0  0  0  0  0  0  0
  1  2  1  0  0  0  0
  2  7  1  0  0  0  0
  3  1  1  0  0  0  0
  4  1  1  0  0  0  0
  5  1  1  0  0  0  0
  6  7  8  0  0  0  0
  7  3  1  0  0  0  0
  8 10  1  0  0  0  0
  9  7  1  0  0  0  0
 10  6  1  0  0  0  0
 11  6  4  0  0  0  0
 12 10  1  0  0  0  0
 13  7  1  0  0  0  0
 14  7  8  0  0  0  0
 15  7  8  0  0  0  0
 16  6  4  0  0  0  0
 17 11  1  0  0  0  0
 18 17  1  0  0  0  0
 19 17  1  0  0  0  0
 20 17  1  0  0  0  0
 21 14  1  0  0  0  0
 22 21  1  0  0  0  0
 23 21  1  0  0  0  0
 24 21  1  0  0  0  0
 25 15  1  0  0  0  0
 26 25  1  0  0  0  0
 27 25  1  0  0  0  0
 28 25  1  0  0  0  0
 29 16  1  0  0  0  0
 30 29  1  0  0  0  0
 31 29  1  0  0  0  0
 32 29  1  0  0  0  0
 33  8  1  0  0  0  0
 34 33  1  0  0  0  0
 35 33  1  0  0  0  0
 36 33  1  0  0  0  0
 37  8  1  0  0  0  0
 38 37  1  0  0  0  0
 39 37  1  0  0  0  0
 40 37  1  0  0  0  0
 41 12  1  0  0  0  0
 42 41  1  0  0  0  0
 43 41  1  0  0  0  0
 44 41  1  0  0  0  0
 45 12  1  0  0  0  0
 46 45  1  0  0  0  0
 47 45  1  0  0  0  0
 48 45  1  0  0  0  0
 49  9  1  0  0  0  0
 50 49  1  0  0  0  0
 51 49  1  0  0  0  0
 52 49  1  0  0  0  0
 53 52  1  0  0  0  0
 54 52  1  0  0  0  0
 55 52  1  0  0  0  0
 56 55  1  0  0  0  0
 57 55  1  0  0  0  0
 58  9  1  0  0  0  0
 59 58  1  0  0  0  0
 60 58  1  0  0  0  0
 61 13  1  0  0  0  0
 62 61  1  0  0  0  0
 63 61  1  0  0  0  0
 64 61  1  0  0  0  0
 65 64  1  0  0  0  0
 66 64  1  0  0  0  0
 67 64  1  0  0  0  0
 68 67  1  0  0  0  0
 69 67  1  0  0  0  0
 70 13  1  0  0  0  0
 71 70  1  0  0  0  0
 72 70  1  0  0  0  0
 73 74  1  0  0  0  0
 74  7  1  0  0  0  0
 75  7  1  0  0  0  0
 76 73  1  0  0  0  0
 77  7  1  0  0  0  0
 78 79  8  0  0  0  0
 79  2  1  0  0  0  0
 80 82  1  0  0  0  0
 81 79  1  0  0  0  0
 82 78  1  0  0  0  0
 83 78  4  0  0  0  0
 84 82  1  0  0  0  0
 85 79  1  0  0  0  0
 86 79  8  0  0  0  0
 87 79  8  0  0  0  0
 88 78  4  0  0  0  0
 89 83  1  0  0  0  0
 90 89  1  0  0  0  0
 91 89  1  0  0  0  0
 92 89  1  0  0  0  0
 93 86  1  0  0  0  0
 94 93  1  0  0  0  0
 95 93  1  0  0  0  0
 96 93  1  0  0  0  0
 97 87  1  0  0  0  0
 98 97  1  0  0  0  0
 99 97  1  0  0  0  0
100 97  1  0  0  0  0
101 88  1  0  0  0  0
102101  1  0  0  0  0
103101  1  0  0  0  0
104101  1  0  0  0  0
105 80  1  0  0  0  0
106105  1  0  0  0  0
107105  1  0  0  0  0
108105  1  0  0  0  0
109 80  1  0  0  0  0
110109  1  0  0  0  0
111109  1  0  0  0  0
112109  1  0  0  0  0
113 84  1  0  0  0  0
114113  1  0  0  0  0
115113  1  0  0  0  0
116113  1  0  0  0  0
117 84  1  0  0  0  0
118117  1  0  0  0  0
119117  1  0  0  0  0
120117  1  0  0  0  0
121 81  1  0  0  0  0
122121  1  0  0  0  0
123121  1  0  0  0  0
124121  1  0  0  0  0
125124  1  0  0  0  0
126124  1  0  0  0  0
127124  1  0  0  0  0
128127  1  0  0  0  0
129127  1  0  0  0  0
130 81  1  0  0  0  0
131130  1  0  0  0  0
132130  1  0  0  0  0
133 85  1  0  0  0  0
134133  1  0  0  0  0
135133  1  0  0  0  0
136133  1  0  0  0  0
137136  1  0  0  0  0
138136  1  0  0  0  0
139136  1  0  0  0  0
140139  1  0  0  0  0
141139  1  0  0  0  0
142 85  1  0  0  0  0
143142  1  0  0  0  0
144142  1  0  0  0  0
  3 79  1  0  0  0  0
  4  7  1  0  0  0  0
  5 79  1  0  0  0  0
  7 11  8  0  0  0  0
  7 16  8  0  0  0  0
 11 14  4  0  0  0  0
 14 15  4  0  0  0  0
 15 16  4  0  0  0  0
 55 58  1  0  0  0  0
 67 70  1  0  0  0  0
 73 75  1  0  0  0  0
 73 77  1  0  0  0  0
 74 79  1  0  0  0  0
 75 79  1  0  0  0  0
 76 79  1  0  0  0  0
 79 83  8  0  0  0  0
 79 88  8  0  0  0  0
 83 86  4  0  0  0  0
 86 87  4  0  0  0  0
 87 88  4  0  0  0  0
127130  1  0  0  0  0
139142  1  0  0  0  0
M  CHG  4   1  -1   7   1  73  -1  79   1
M  END
$$$$
LULJUB05

From CSD data. Using bond type 'Any'. No disordered atoms. Largest molecule.
144166  0  0  0  0  0  0  0  0999 V2000
    6.1157    7.8353   12.7707 B   0  5  0  0  0  0  0  0  0  0  0  0
    6.6880    6.9273   13.1580 H   0  0  0  0  0  0  0  0  0  0  0  0
    5.2006    7.9244   13.1031 H   0  0  0  0  0  0  0  0  0  0  0  0
    6.6786    8.7393   13.1855 H   0  0  0  0  0  0  0  0  0  0  0  0
   10.0858    9.3123    9.7847 C   0  0  0  0  0  0  0  0  0  0  0  0
    8.8086    7.8782   11.8605 Eu  0  3  0  0  0  0  0  0  0  0  0  0
   10.8012    8.9383    7.2088 N   0  0  0  0  0  0  0  0  0  0  0  0
   10.8422    6.3217   12.0180 O   0  0  0  0  0  0  0  0  0  0  0  0
   11.2154    8.3517    8.7582 P   0  0  0  0  0  0  0  0  0  0  0  0
   10.3043   10.0892   10.9838 C   0  0  0  0  0  0  0  0  0  0  0  0
   12.7304    8.9977    9.2065 N   0  0  0  0  0  0  0  0  0  0  0  0
    8.2145    5.7868   10.4558 O   0  0  0  0  0  0  0  0  0  0  0  0
    9.0625   10.6295   11.3601 C   0  0  0  0  0  0  0  0  0  0  0  0
    8.0661   10.2157   10.4468 C   0  0  0  0  0  0  0  0  0  0  0  0
    8.6791    9.3849    9.4949 C   0  0  0  0  0  0  0  0  0  0  0  0
   11.5635   10.3370   11.7708 C   0  0  0  0  0  0  0  0  0  0  0  0
   11.8709   11.2539   11.6140 H   0  0  0  0  0  0  0  0  0  0  0  0
   12.2564    9.7061   11.4846 H   0  0  0  0  0  0  0  0  0  0  0  0
   11.3810   10.2116   12.7252 H   0  0  0  0  0  0  0  0  0  0  0  0
    8.8202   11.5729   12.5042 C   0  0  0  0  0  0  0  0  0  0  0  0
    9.5037   11.4340   13.1924 H   0  0  0  0  0  0  0  0  0  0  0  0
    7.9333   11.4021   12.8862 H   0  0  0  0  0  0  0  0  0  0  0  0
    8.8639   12.4969   12.1815 H   0  0  0  0  0  0  0  0  0  0  0  0
    6.6362   10.6832   10.4495 C   0  0  0  0  0  0  0  0  0  0  0  0
    6.1457   10.2378    9.7266 H   0  0  0  0  0  0  0  0  0  0  0  0
    6.6085   11.6529   10.3134 H   0  0  0  0  0  0  0  0  0  0  0  0
    6.2213   10.4617   11.3094 H   0  0  0  0  0  0  0  0  0  0  0  0
    7.9641    8.6940    8.3700 C   0  0  0  0  0  0  0  0  0  0  0  0
    8.3803    7.8225    8.2055 H   0  0  0  0  0  0  0  0  0  0  0  0
    8.0221    9.2426    7.5604 H   0  0  0  0  0  0  0  0  0  0  0  0
    7.0231    8.5666    8.6121 H   0  0  0  0  0  0  0  0  0  0  0  0
   10.4831   10.3152    6.8812 C   0  0  0  0  0  0  0  0  0  0  0  0
   10.1464   10.7714    7.6803 H   0  0  0  0  0  0  0  0  0  0  0  0
    9.7975   10.3338    6.1810 H   0  0  0  0  0  0  0  0  0  0  0  0
   11.2899   10.7692    6.5607 H   0  0  0  0  0  0  0  0  0  0  0  0
   11.2672    8.1825    6.0708 C   0  0  0  0  0  0  0  0  0  0  0  0
   10.5840    8.1947    5.3680 H   0  0  0  0  0  0  0  0  0  0  0  0
   11.4405    7.2569    6.3417 H   0  0  0  0  0  0  0  0  0  0  0  0
   12.0941    8.5829    5.7287 H   0  0  0  0  0  0  0  0  0  0  0  0
   13.0311   10.4042    8.9909 C   0  0  0  0  0  0  0  0  0  0  0  0
   13.3239   10.5372    8.0647 H   0  0  0  0  0  0  0  0  0  0  0  0
   13.7445   10.6825    9.6019 H   0  0  0  0  0  0  0  0  0  0  0  0
   12.2282   10.9394    9.1596 H   0  0  0  0  0  0  0  0  0  0  0  0
   13.8932    8.1382    8.9812 C   0  0  0  0  0  0  0  0  0  0  0  0
   13.6211    7.1983    9.0363 H   0  0  0  0  0  0  0  0  0  0  0  0
   14.5717    8.3218    9.6650 H   0  0  0  0  0  0  0  0  0  0  0  0
   14.2670    8.3189    8.0939 H   0  0  0  0  0  0  0  0  0  0  0  0
   12.2431    6.6608   11.9851 C   0  0  0  0  0  0  0  0  0  0  0  0
   12.5332    7.0503   12.8480 H   0  0  0  0  0  0  0  0  0  0  0  0
   12.4328    7.3095   11.2610 H   0  0  0  0  0  0  0  0  0  0  0  0
   12.9429    5.3422   11.7255 C   0  0  0  0  0  0  0  0  0  0  0  0
   13.8513    5.3356   12.1193 H   0  0  0  0  0  0  0  0  0  0  0  0
   13.0105    5.1585   10.7546 H   0  0  0  0  0  0  0  0  0  0  0  0
   12.0325    4.3197   12.4191 C   0  0  0  0  0  0  0  0  0  0  0  0
   11.8095    3.5741   11.8070 H   0  0  0  0  0  0  0  0  0  0  0  0
   12.4687    3.9510   13.2275 H   0  0  0  0  0  0  0  0  0  0  0  0
   10.7790    5.1088   12.7913 C   0  0  0  0  0  0  0  0  0  0  0  0
    9.9635    4.5944   12.5667 H   0  0  0  0  0  0  0  0  0  0  0  0
   10.7703    5.3130   13.7598 H   0  0  0  0  0  0  0  0  0  0  0  0
    9.1337    5.1118    9.5567 C   0  0  0  0  0  0  0  0  0  0  0  0
    9.6148    4.3858   10.0275 H   0  0  0  0  0  0  0  0  0  0  0  0
    9.7961    5.7487    9.1892 H   0  0  0  0  0  0  0  0  0  0  0  0
    8.2615    4.5512    8.4566 C   0  0  0  0  0  0  0  0  0  0  0  0
    8.6753    3.7542    8.0395 H   0  0  0  0  0  0  0  0  0  0  0  0
    8.0828    5.2290    7.7576 H   0  0  0  0  0  0  0  0  0  0  0  0
    6.9956    4.1858    9.2065 C   0  0  0  0  0  0  0  0  0  0  0  0
    6.2165    4.1376    8.5983 H   0  0  0  0  0  0  0  0  0  0  0  0
    7.0937    3.3229    9.6817 H   0  0  0  0  0  0  0  0  0  0  0  0
    6.8685    5.3255   10.1666 C   0  0  0  0  0  0  0  0  0  0  0  0
    6.3339    6.0557    9.7655 H   0  0  0  0  0  0  0  0  0  0  0  0
    6.4215    5.0272   10.9980 H   0  0  0  0  0  0  0  0  0  0  0  0
    6.1825    7.7813   11.6884 H   0  0  0  0  0  0  0  0  0  0  0  0
    9.4919    8.1109   14.6991 B   0  5  0  0  0  0  0  0  0  0  0  0
    8.9196    9.0189   14.3117 H   0  0  0  0  0  0  0  0  0  0  0  0
   10.4070    8.0218   14.3667 H   0  0  0  0  0  0  0  0  0  0  0  0
    8.9290    7.2069   14.2843 H   0  0  0  0  0  0  0  0  0  0  0  0
    5.5218    6.6339   17.6850 C   0  0  0  0  0  0  0  0  0  0  0  0
    6.7990    8.0680   15.6093 Eu  0  3  0  0  0  0  0  0  0  0  0  0
    4.8064    7.0079   20.2610 N   0  0  0  0  0  0  0  0  0  0  0  0
    4.7654    9.6245   15.4517 O   0  0  0  0  0  0  0  0  0  0  0  0
    4.3922    7.5944   18.7116 P   0  0  0  0  0  0  0  0  0  0  0  0
    5.3033    5.8569   16.4860 C   0  0  0  0  0  0  0  0  0  0  0  0
    2.8772    6.9485   18.2633 N   0  0  0  0  0  0  0  0  0  0  0  0
    7.3931   10.1594   17.0140 O   0  0  0  0  0  0  0  0  0  0  0  0
    6.5451    5.3167   16.1096 C   0  0  0  0  0  0  0  0  0  0  0  0
    7.5415    5.7304   17.0230 C   0  0  0  0  0  0  0  0  0  0  0  0
    6.9285    6.5613   17.9748 C   0  0  0  0  0  0  0  0  0  0  0  0
    4.0441    5.6091   15.6990 C   0  0  0  0  0  0  0  0  0  0  0  0
    3.7367    4.6923   15.8557 H   0  0  0  0  0  0  0  0  0  0  0  0
    3.3512    6.2401   15.9852 H   0  0  0  0  0  0  0  0  0  0  0  0
    4.2266    5.7345   14.7445 H   0  0  0  0  0  0  0  0  0  0  0  0
    6.7874    4.3733   14.9655 C   0  0  0  0  0  0  0  0  0  0  0  0
    6.1039    4.5122   14.2773 H   0  0  0  0  0  0  0  0  0  0  0  0
    7.6743    4.5441   14.5836 H   0  0  0  0  0  0  0  0  0  0  0  0
    6.7437    3.4493   15.2883 H   0  0  0  0  0  0  0  0  0  0  0  0
    8.9714    5.2630   17.0203 C   0  0  0  0  0  0  0  0  0  0  0  0
    9.4619    5.7084   17.7431 H   0  0  0  0  0  0  0  0  0  0  0  0
    8.9991    4.2932   17.1564 H   0  0  0  0  0  0  0  0  0  0  0  0
    9.3863    5.4845   16.1603 H   0  0  0  0  0  0  0  0  0  0  0  0
    7.6435    7.2521   19.0997 C   0  0  0  0  0  0  0  0  0  0  0  0
    7.2273    8.1236   19.2643 H   0  0  0  0  0  0  0  0  0  0  0  0
    7.5855    6.7036   19.9094 H   0  0  0  0  0  0  0  0  0  0  0  0
    8.5845    7.3796   18.8577 H   0  0  0  0  0  0  0  0  0  0  0  0
    5.1245    5.6310   20.5886 C   0  0  0  0  0  0  0  0  0  0  0  0
    5.4612    5.1748   19.7895 H   0  0  0  0  0  0  0  0  0  0  0  0
    5.8101    5.6124   21.2887 H   0  0  0  0  0  0  0  0  0  0  0  0
    4.3177    5.1769   20.9090 H   0  0  0  0  0  0  0  0  0  0  0  0
    4.3404    7.7637   21.3989 C   0  0  0  0  0  0  0  0  0  0  0  0
    5.0236    7.7515   22.1017 H   0  0  0  0  0  0  0  0  0  0  0  0
    4.1671    8.6893   21.1281 H   0  0  0  0  0  0  0  0  0  0  0  0
    3.5135    7.3633   21.7411 H   0  0  0  0  0  0  0  0  0  0  0  0
    2.5765    5.5419   18.4789 C   0  0  0  0  0  0  0  0  0  0  0  0
    2.2837    5.4090   19.4050 H   0  0  0  0  0  0  0  0  0  0  0  0
    1.8631    5.2637   17.8678 H   0  0  0  0  0  0  0  0  0  0  0  0
    3.3794    5.0068   18.3102 H   0  0  0  0  0  0  0  0  0  0  0  0
    1.7144    7.8080   18.4885 C   0  0  0  0  0  0  0  0  0  0  0  0
    1.9865    8.7479   18.4334 H   0  0  0  0  0  0  0  0  0  0  0  0
    1.0359    7.6244   17.8048 H   0  0  0  0  0  0  0  0  0  0  0  0
    1.3406    7.6273   19.3759 H   0  0  0  0  0  0  0  0  0  0  0  0
    3.3645    9.2854   15.4847 C   0  0  0  0  0  0  0  0  0  0  0  0
    3.0744    8.8959   14.6218 H   0  0  0  0  0  0  0  0  0  0  0  0
    3.1748    8.6367   16.2088 H   0  0  0  0  0  0  0  0  0  0  0  0
    2.6647   10.6040   15.7443 C   0  0  0  0  0  0  0  0  0  0  0  0
    1.7563   10.6106   15.3505 H   0  0  0  0  0  0  0  0  0  0  0  0
    2.5971   10.7876   16.7152 H   0  0  0  0  0  0  0  0  0  0  0  0
    3.5751   11.6264   15.0507 C   0  0  0  0  0  0  0  0  0  0  0  0
    3.7981   12.3721   15.6628 H   0  0  0  0  0  0  0  0  0  0  0  0
    3.1389   11.9952   14.2422 H   0  0  0  0  0  0  0  0  0  0  0  0
    4.8286   10.8374   14.6785 C   0  0  0  0  0  0  0  0  0  0  0  0
    5.6441   11.3517   14.9030 H   0  0  0  0  0  0  0  0  0  0  0  0
    4.8373   10.6332   13.7100 H   0  0  0  0  0  0  0  0  0  0  0  0
    6.4739   10.8344   17.9130 C   0  0  0  0  0  0  0  0  0  0  0  0
    5.9928   11.5604   17.4423 H   0  0  0  0  0  0  0  0  0  0  0  0
    5.8115   10.1974   18.2806 H   0  0  0  0  0  0  0  0  0  0  0  0
    7.3462   11.3949   19.0132 C   0  0  0  0  0  0  0  0  0  0  0  0
    6.9323   12.1919   19.4302 H   0  0  0  0  0  0  0  0  0  0  0  0
    7.5248   10.7172   19.7122 H   0  0  0  0  0  0  0  0  0  0  0  0
    8.6120   11.7603   18.2633 C   0  0  0  0  0  0  0  0  0  0  0  0
    9.3911   11.8086   18.8714 H   0  0  0  0  0  0  0  0  0  0  0  0
    8.5139   12.6233   17.7881 H   0  0  0  0  0  0  0  0  0  0  0  0
    8.7391   10.6207   17.3032 C   0  0  0  0  0  0  0  0  0  0  0  0
    9.2737    9.8905   17.7043 H   0  0  0  0  0  0  0  0  0  0  0  0
    9.1861   10.9190   16.4718 H   0  0  0  0  0  0  0  0  0  0  0  0
    9.4251    8.1649   15.7814 H   0  0  0  0  0  0  0  0  0  0  0  0
  1  2  1  0  0  0  0
  2  6  1  0  0  0  0
  3  1  1  0  0  0  0
  4  1  1  0  0  0  0
  5  6  8  0  0  0  0
  6  4  1  0  0  0  0
  7  9  1  0  0  0  0
  8  6  1  0  0  0  0
  9  5  1  0  0  0  0
 10  5  4  0  0  0  0
 11  9  1  0  0  0  0
 12  6  1  0  0  0  0
 13  6  8  0  0  0  0
 14  6  8  0  0  0  0
 15  5  4  0  0  0  0
 16 10  1  0  0  0  0
 17 16  1  0  0  0  0
 18 16  1  0  0  0  0
 19 16  1  0  0  0  0
 20 13  1  0  0  0  0
 21 20  1  0  0  0  0
 22 20  1  0  0  0  0
 23 20  1  0  0  0  0
 24 14  1  0  0  0  0
 25 24  1  0  0  0  0
 26 24  1  0  0  0  0
 27 24  1  0  0  0  0
 28 15  1  0  0  0  0
 29 28  1  0  0  0  0
 30 28  1  0  0  0  0
 31 28  1  0  0  0  0
 32  7  1  0  0  0  0
 33 32  1  0  0  0  0
 34 32  1  0  0  0  0
 35 32  1  0  0  0  0
 36  7  1  0  0  0  0
 37 36  1  0  0  0  0
 38 36  1  0  0  0  0
 39 36  1  0  0  0  0
 40 11  1  0  0  0  0
 41 40  1  0  0  0  0
 42 40  1  0  0  0  0
 43 40  1  0  0  0  0
 44 11  1  0  0  0  0
 45 44  1  0  0  0  0
 46 44  1  0  0  0  0
 47 44  1  0  0  0  0
 48  8  1  0  0  0  0
 49 48  1  0  0  0  0
 50 48  1  0  0  0  0
 51 48  1  0  0  0  0
 52 51  1  0  0  0  0
 53 51  1  0  0  0  0
 54 51  1  0  0  0  0
 55 54  1  0  0  0  0
 56 54  1  0  0  0  0
 57  8  1  0  0  0  0
 58 57  1  0  0  0  0
 59 57  1  0  0  0  0
 60 12  1  0  0  0  0
 61 60  1  0  0  0  0
 62 60  1  0  0  0  0
 63 60  1  0  0  0  0
 64 63  1  0  0  0  0
 65 63  1  0  0  0  0
 66 63  1  0  0  0  0
 67 66  1  0  0  0  0
 68 66  1  0  0  0  0
 69 12  1  0  0  0  0
 70 69  1  0  0  0  0
 71 69  1  0  0  0  0
 72  1  1  0  0  0  0
 73 74  1  0  0  0  0
 74  6  1  0  0  0  0
 75  6  1  0  0  0  0
 76  6  1  0  0  0  0
 77 78  8  0  0  0  0
 78  2  1  0  0  0  0
 79 81  1  0  0  0  0
 80 78  1  0  0  0  0
 81 77  1  0  0  0  0
 82 77  4  0  0  0  0
 83 81  1  0  0  0  0
 84 78  1  0  0  0  0
 85 78  8  0  0  0  0
 86 78  8  0  0  0  0
 87 77  4  0  0  0  0
 88 82  1  0  0  0  0
 89 88  1  0  0  0  0
 90 88  1  0  0  0  0
 91 88  1  0  0  0  0
 92 85  1  0  0  0  0
 93 92  1  0  0  0  0
 94 92  1  0  0  0  0
 95 92  1  0  0  0  0
 96 86  1  0  0  0  0
 97 96  1  0  0  0  0
 98 96  1  0  0  0  0
 99 96  1  0  0  0  0
100 87  1  0  0  0  0
101100  1  0  0  0  0
102100  1  0  0  0  0
103100  1  0  0  0  0
104 79  1  0  0  0  0
105104  1  0  0  0  0
106104  1  0  0  0  0
107104  1  0  0  0  0
108 79  1  0  0  0  0
109108  1  0  0  0  0
110108  1  0  0  0  0
111108  1  0  0  0  0
112 83  1  0  0  0  0
113112  1  0  0  0  0
114112  1  0  0  0  0
115112  1  0  0  0  0
116 83  1  0  0  0  0
117116  1  0  0  0  0
118116  1  0  0  0  0
119116  1  0  0  0  0
120 80  1  0  0  0  0
121120  1  0  0  0  0
122120  1  0  0  0  0
123120  1  0  0  0  0
124123  1  0  0  0  0
125123  1  0  0  0  0
126123  1  0  0  0  0
127126  1  0  0  0  0
128126  1  0  0  0  0
129 80  1  0  0  0  0
130129  1  0  0  0  0
131129  1  0  0  0  0
132 84  1  0  0  0  0
133132  1  0  0  0  0
134132  1  0  0  0  0
135132  1  0  0  0  0
136135  1  0  0  0  0
137135  1  0  0  0  0
138135  1  0  0  0  0
139138  1  0  0  0  0
140138  1  0  0  0  0
141 84  1  0  0  0  0
142141  1  0  0  0  0
143141  1  0  0  0  0
144 73  1  0  0  0  0
  3 78  1  0  0  0  0
  4 78  1  0  0  0  0
  6 10  8  0  0  0  0
  6 15  8  0  0  0  0
  6 72  1  0  0  0  0
 10 13  4  0  0  0  0
 13 14  4  0  0  0  0
 14 15  4  0  0  0  0
 54 57  1  0  0  0  0
 66 69  1  0  0  0  0
 73 75  1  0  0  0  0
 73 76  1  0  0  0  0
 74 78  1  0  0  0  0
 76 78  1  0  0  0  0
 78 82  8  0  0  0  0
 78 87  8  0  0  0  0
 78144  1  0  0  0  0
 82 85  4  0  0  0  0
 85 86  4  0  0  0  0
 86 87  4  0  0  0  0
126129  1  0  0  0  0
138141  1  0  0  0  0
M  CHG  4   1  -1   6   1  73  -1  78   1
M  END
$$$$
MULREU

From CSD data. Using bond type 'Any'. No disordered atoms. Largest molecule.
118126  0  0  0  0  0  0  0  0999 V2000
   10.5427    5.4924   16.0222 P   0  0  0  0  0  0  0  0  0  0  0  0
    7.5169    5.3706   22.2922 P   0  0  0  0  0  0  0  0  0  0  0  0
    7.7169    4.7617   17.2126 O   0  0  0  0  0  0  0  0  0  0  0  0
    6.7753    5.1375   19.2350 O   0  0  0  0  0  0  0  0  0  0  0  0
    8.7301    3.9173   17.6402 C   0  0  0  0  0  0  0  0  0  0  0  0
   10.0323    4.2375   17.2498 C   0  0  0  0  0  0  0  0  0  0  0  0
   11.0556    3.4565   17.7642 C   0  0  0  0  0  0  0  0  0  0  0  0
   11.9382    3.6586   17.5481 H   0  0  0  0  0  0  0  0  0  0  0  0
   10.7872    2.3761   18.5950 C   0  0  0  0  0  0  0  0  0  0  0  0
   11.4881    1.8773   18.9487 H   0  0  0  0  0  0  0  0  0  0  0  0
    9.4908    2.0445   18.8958 C   0  0  0  0  0  0  0  0  0  0  0  0
    9.3209    1.3015   19.4287 H   0  0  0  0  0  0  0  0  0  0  0  0
    8.4324    2.7966   18.4205 C   0  0  0  0  0  0  0  0  0  0  0  0
    7.0153    2.4031   18.7301 C   0  0  0  0  0  0  0  0  0  0  0  0
    6.8535    2.5186   19.6798 H   0  0  0  0  0  0  0  0  0  0  0  0
    6.8934    1.4643   18.5204 H   0  0  0  0  0  0  0  0  0  0  0  0
    6.0037    3.2248   17.9474 C   0  0  0  0  0  0  0  0  0  0  0  0
    5.1527    3.2020   18.4318 H   0  0  0  0  0  0  0  0  0  0  0  0
    5.7599    2.7076   16.5391 C   0  0  0  0  0  0  0  0  0  0  0  0
    5.4211    1.8002   16.5857 H   0  0  0  0  0  0  0  0  0  0  0  0
    6.6003    2.6873   16.0564 H   0  0  0  0  0  0  0  0  0  0  0  0
    4.7647    3.5772   15.7810 C   0  0  0  0  0  0  0  0  0  0  0  0
    4.6804    3.2529   14.8700 H   0  0  0  0  0  0  0  0  0  0  0  0
    3.8938    3.5132   16.2041 H   0  0  0  0  0  0  0  0  0  0  0  0
    5.2090    5.0357   15.7586 C   0  0  0  0  0  0  0  0  0  0  0  0
    4.5092    5.5723   15.3549 H   0  0  0  0  0  0  0  0  0  0  0  0
    6.0002    5.1157   15.2047 H   0  0  0  0  0  0  0  0  0  0  0  0
    5.5208    5.5888   17.1602 C   0  0  0  0  0  0  0  0  0  0  0  0
    5.9474    6.4651   17.0607 H   0  0  0  0  0  0  0  0  0  0  0  0
    6.4749    4.6692   17.8898 C   0  0  0  0  0  0  0  0  0  0  0  0
    4.2467    5.7613   17.9826 C   0  0  0  0  0  0  0  0  0  0  0  0
    3.7426    6.5131   17.6318 H   0  0  0  0  0  0  0  0  0  0  0  0
    3.6981    4.9673   17.8903 H   0  0  0  0  0  0  0  0  0  0  0  0
    4.5291    5.9957   19.4393 C   0  0  0  0  0  0  0  0  0  0  0  0
    3.5352    6.5320   20.2595 C   0  0  0  0  0  0  0  0  0  0  0  0
    2.7112    6.7632   19.8964 H   0  0  0  0  0  0  0  0  0  0  0  0
    3.7637    6.7196   21.5956 C   0  0  0  0  0  0  0  0  0  0  0  0
    3.0909    7.0700   22.1339 H   0  0  0  0  0  0  0  0  0  0  0  0
    4.9793    6.3939   22.1472 C   0  0  0  0  0  0  0  0  0  0  0  0
    5.1234    6.5422   23.0545 H   0  0  0  0  0  0  0  0  0  0  0  0
    6.0060    5.8413   21.3713 C   0  0  0  0  0  0  0  0  0  0  0  0
    5.7493    5.6597   19.9990 C   0  0  0  0  0  0  0  0  0  0  0  0
   10.1683    4.8147   14.3513 C   0  0  0  0  0  0  0  0  0  0  0  0
   10.6254    5.4021   13.7131 H   0  0  0  0  0  0  0  0  0  0  0  0
   10.7931    3.4478   14.1849 C   0  0  0  0  0  0  0  0  0  0  0  0
   10.3957    2.8312   14.8208 H   0  0  0  0  0  0  0  0  0  0  0  0
   11.7437    3.5016   14.3728 H   0  0  0  0  0  0  0  0  0  0  0  0
   10.5833    2.9185   12.7563 C   0  0  0  0  0  0  0  0  0  0  0  0
   11.0533    3.4914   12.1303 H   0  0  0  0  0  0  0  0  0  0  0  0
   10.9595    2.0271   12.6866 H   0  0  0  0  0  0  0  0  0  0  0  0
    9.1415    2.8748   12.3962 C   0  0  0  0  0  0  0  0  0  0  0  0
    8.6738    2.2626   12.9869 H   0  0  0  0  0  0  0  0  0  0  0  0
    9.0395    2.5549   11.4854 H   0  0  0  0  0  0  0  0  0  0  0  0
    8.5543    4.2548   12.5212 C   0  0  0  0  0  0  0  0  0  0  0  0
    7.6095    4.2228   12.3026 H   0  0  0  0  0  0  0  0  0  0  0  0
    8.9891    4.8481   11.8891 H   0  0  0  0  0  0  0  0  0  0  0  0
    8.7301    4.8103   13.9531 C   0  0  0  0  0  0  0  0  0  0  0  0
    8.3808    5.7133   13.9937 H   0  0  0  0  0  0  0  0  0  0  0  0
    8.2249    4.2635   14.5746 H   0  0  0  0  0  0  0  0  0  0  0  0
    9.5166    7.0015   16.1802 C   0  0  0  0  0  0  0  0  0  0  0  0
    8.6199    6.7952   15.8447 H   0  0  0  0  0  0  0  0  0  0  0  0
   10.1027    8.1272   15.3145 C   0  0  0  0  0  0  0  0  0  0  0  0
   10.9994    8.3351   15.6207 H   0  0  0  0  0  0  0  0  0  0  0  0
   10.1636    7.8276   14.3949 H   0  0  0  0  0  0  0  0  0  0  0  0
    9.2470    9.3807   15.3788 C   0  0  0  0  0  0  0  0  0  0  0  0
    9.6737   10.0874   14.8700 H   0  0  0  0  0  0  0  0  0  0  0  0
    8.3843    9.2003   14.9758 H   0  0  0  0  0  0  0  0  0  0  0  0
    9.0454    9.8460   16.8079 C   0  0  0  0  0  0  0  0  0  0  0  0
    9.8905   10.1644   17.1641 H   0  0  0  0  0  0  0  0  0  0  0  0
    8.4183   10.5847   16.8195 H   0  0  0  0  0  0  0  0  0  0  0  0
    8.5215    8.7307   17.6879 C   0  0  0  0  0  0  0  0  0  0  0  0
    7.6166    8.5096   17.4152 H   0  0  0  0  0  0  0  0  0  0  0  0
    8.4863    9.0404   18.6066 H   0  0  0  0  0  0  0  0  0  0  0  0
    9.3853    7.4699   17.6175 C   0  0  0  0  0  0  0  0  0  0  0  0
   10.2644    7.6590   17.9813 H   0  0  0  0  0  0  0  0  0  0  0  0
    8.9821    6.7690   18.1536 H   0  0  0  0  0  0  0  0  0  0  0  0
    7.6107    3.5248   22.2961 C   0  0  0  0  0  0  0  0  0  0  0  0
    7.9823    3.2340   21.4373 H   0  0  0  0  0  0  0  0  0  0  0  0
    6.2276    2.8952   22.4559 C   0  0  0  0  0  0  0  0  0  0  0  0
    5.6720    3.1540   21.7031 H   0  0  0  0  0  0  0  0  0  0  0  0
    5.8138    3.2398   23.2637 H   0  0  0  0  0  0  0  0  0  0  0  0
    6.2838    1.3698   22.5351 C   0  0  0  0  0  0  0  0  0  0  0  0
    5.3942    1.0252   22.7025 H   0  0  0  0  0  0  0  0  0  0  0  0
    6.5839    1.0164   21.6810 H   0  0  0  0  0  0  0  0  0  0  0  0
    7.2180    0.8987   23.6256 C   0  0  0  0  0  0  0  0  0  0  0  0
    6.8676    1.1633   24.4896 H   0  0  0  0  0  0  0  0  0  0  0  0
    7.2778   -0.0698   23.6083 H   0  0  0  0  0  0  0  0  0  0  0  0
    8.5836    1.4876   23.4385 C   0  0  0  0  0  0  0  0  0  0  0  0
    8.9598    1.1677   22.6016 H   0  0  0  0  0  0  0  0  0  0  0  0
    9.1638    1.1953   24.1573 H   0  0  0  0  0  0  0  0  0  0  0  0
    8.5297    3.0130   23.4181 C   0  0  0  0  0  0  0  0  0  0  0  0
    9.4240    3.3649   23.2859 H   0  0  0  0  0  0  0  0  0  0  0  0
    8.2038    3.3343   24.2730 H   0  0  0  0  0  0  0  0  0  0  0  0
    8.9575    6.0536   21.3841 C   0  0  0  0  0  0  0  0  0  0  0  0
    8.7653    5.9954   20.4256 H   0  0  0  0  0  0  0  0  0  0  0  0
   10.2679    5.3207   21.6465 C   0  0  0  0  0  0  0  0  0  0  0  0
   10.4297    5.2887   22.6016 H   0  0  0  0  0  0  0  0  0  0  0  0
   10.1929    4.4075   21.3265 H   0  0  0  0  0  0  0  0  0  0  0  0
   11.4366    5.9925   20.9647 C   0  0  0  0  0  0  0  0  0  0  0  0
   11.3123    5.9547   20.0047 H   0  0  0  0  0  0  0  0  0  0  0  0
   12.2524    5.5126   21.1813 H   0  0  0  0  0  0  0  0  0  0  0  0
   11.5784    7.4408   21.3979 C   0  0  0  0  0  0  0  0  0  0  0  0
   11.7730    7.4801   22.3480 H   0  0  0  0  0  0  0  0  0  0  0  0
   12.3157    7.8524   20.9204 H   0  0  0  0  0  0  0  0  0  0  0  0
   10.3031    8.1984   21.1106 C   0  0  0  0  0  0  0  0  0  0  0  0
   10.3863    9.1044   21.4471 H   0  0  0  0  0  0  0  0  0  0  0  0
   10.1683    8.2450   20.1524 H   0  0  0  0  0  0  0  0  0  0  0  0
    9.1064    7.5383   21.7494 C   0  0  0  0  0  0  0  0  0  0  0  0
    8.3046    8.0109   21.4742 H   0  0  0  0  0  0  0  0  0  0  0  0
    9.1802    7.6182   22.7124 H   0  0  0  0  0  0  0  0  0  0  0  0
   12.4434    5.8776   16.1992 B   0  0  0  0  0  0  0  0  0  0  0  0
    7.4525    6.0216   24.1080 B   0  0  0  0  0  0  0  0  0  0  0  0
    7.1618    7.0380   24.0563 H   0  0  0  0  0  0  0  0  0  0  0  0
    8.4160    5.8602   24.4773 H   0  0  0  0  0  0  0  0  0  0  0  0
    6.6695    5.4094   24.6299 H   0  0  0  0  0  0  0  0  0  0  0  0
   12.5653    6.5436   15.4361 H   0  0  0  0  0  0  0  0  0  0  0  0
   12.9756    4.9586   16.0712 H   0  0  0  0  0  0  0  0  0  0  0  0
   12.4950    6.2383   17.3118 H   0  0  0  0  0  0  0  0  0  0  0  0
  1  6  1  0  0  0  0
  2 41  1  0  0  0  0
  3  5  1  0  0  0  0
  4 30  1  0  0  0  0
  5  6  4  0  0  0  0
  6  7  4  0  0  0  0
  7  8  1  0  0  0  0
  9  7  4  0  0  0  0
 10  9  1  0  0  0  0
 11  9  4  0  0  0  0
 12 11  1  0  0  0  0
 13  5  4  0  0  0  0
 14 13  1  0  0  0  0
 15 14  1  0  0  0  0
 16 14  1  0  0  0  0
 17 14  1  0  0  0  0
 18 17  1  0  0  0  0
 19 17  1  0  0  0  0
 20 19  1  0  0  0  0
 21 19  1  0  0  0  0
 22 19  1  0  0  0  0
 23 22  1  0  0  0  0
 24 22  1  0  0  0  0
 25 22  1  0  0  0  0
 26 25  1  0  0  0  0
 27 25  1  0  0  0  0
 28 25  1  0  0  0  0
 29 28  1  0  0  0  0
 30  3  1  0  0  0  0
 31 28  1  0  0  0  0
 32 31  1  0  0  0  0
 33 31  1  0  0  0  0
 34 31  1  0  0  0  0
 35 34  4  0  0  0  0
 36 35  1  0  0  0  0
 37 35  4  0  0  0  0
 38 37  1  0  0  0  0
 39 37  4  0  0  0  0
 40 39  1  0  0  0  0
 41 39  4  0  0  0  0
 42  4  1  0  0  0  0
 43  1  1  0  0  0  0
 44 43  1  0  0  0  0
 45 43  1  0  0  0  0
 46 45  1  0  0  0  0
 47 45  1  0  0  0  0
 48 45  1  0  0  0  0
 49 48  1  0  0  0  0
 50 48  1  0  0  0  0
 51 48  1  0  0  0  0
 52 51  1  0  0  0  0
 53 51  1  0  0  0  0
 54 51  1  0  0  0  0
 55 54  1  0  0  0  0
 56 54  1  0  0  0  0
 57 43  1  0  0  0  0
 58 57  1  0  0  0  0
 59 57  1  0  0  0  0
 60  1  1  0  0  0  0
 61 60  1  0  0  0  0
 62 60  1  0  0  0  0
 63 62  1  0  0  0  0
 64 62  1  0  0  0  0
 65 62  1  0  0  0  0
 66 65  1  0  0  0  0
 67 65  1  0  0  0  0
 68 65  1  0  0  0  0
 69 68  1  0  0  0  0
 70 68  1  0  0  0  0
 71 68  1  0  0  0  0
 72 71  1  0  0  0  0
 73 71  1  0  0  0  0
 74 60  1  0  0  0  0
 75 74  1  0  0  0  0
 76 74  1  0  0  0  0
 77  2  1  0  0  0  0
 78 77  1  0  0  0  0
 79 77  1  0  0  0  0
 80 79  1  0  0  0  0
 81 79  1  0  0  0  0
 82 79  1  0  0  0  0
 83 82  1  0  0  0  0
 84 82  1  0  0  0  0
 85 82  1  0  0  0  0
 86 85  1  0  0  0  0
 87 85  1  0  0  0  0
 88 85  1  0  0  0  0
 89 88  1  0  0  0  0
 90 88  1  0  0  0  0
 91 77  1  0  0  0  0
 92 91  1  0  0  0  0
 93 91  1  0  0  0  0
 94  2  1  0  0  0  0
 95 94  1  0  0  0  0
 96 94  1  0  0  0  0
 97 96  1  0  0  0  0
 98 96  1  0  0  0  0
 99 96  1  0  0  0  0
100 99  1  0  0  0  0
101 99  1  0  0  0  0
102 99  1  0  0  0  0
103102  1  0  0  0  0
104102  1  0  0  0  0
105102  1  0  0  0  0
106105  1  0  0  0  0
107105  1  0  0  0  0
108 94  1  0  0  0  0
109108  1  0  0  0  0
110108  1  0  0  0  0
111  1  1  0  0  0  0
112  2  1  0  0  0  0
113112  1  0  0  0  0
114112  1  0  0  0  0
115112  1  0  0  0  0
116111  1  0  0  0  0
117111  1  0  0  0  0
118111  1  0  0  0  0
 11 13  4  0  0  0  0
 17 30  1  0  0  0  0
 28 30  1  0  0  0  0
 34 42  4  0  0  0  0
 41 42  4  0  0  0  0
 54 57  1  0  0  0  0
 71 74  1  0  0  0  0
 88 91  1  0  0  0  0
105108  1  0  0  0  0
M  END
$$$$
MUMFAF

From CSD data. Using bond type 'Any'. No disordered atoms. Largest molecule.
 76 82  0  0  0  0  0  0  0  0999 V2000
    1.8343    6.1409   11.6554 Li  0  3  0  0  0  0  0  0  0  0  0  0
    0.6601    5.3483   13.5601 B   0  0  0  0  0  0  0  0  0  0  0  0
    0.4882    4.8586   12.6131 H   0  0  0  0  0  0  0  0  0  0  0  0
    1.7866    5.7221   13.6496 H   0  0  0  0  0  0  0  0  0  0  0  0
    0.3776    4.7297   14.4243 H   0  0  0  0  0  0  0  0  0  0  0  0
    2.7600    8.4993   12.9802 B   0  0  0  0  0  0  0  0  0  0  0  0
    2.9957    7.7841   12.1924 H   0  0  0  0  0  0  0  0  0  0  0  0
    2.6710    7.9516   13.8582 H   0  0  0  0  0  0  0  0  0  0  0  0
    3.4661    9.3434   13.0441 H   0  0  0  0  0  0  0  0  0  0  0  0
   -0.1168    7.4219   10.8471 B   0  5  0  0  0  0  0  0  0  0  0  0
   -0.3485    6.3664   10.8995 H   0  0  0  0  0  0  0  0  0  0  0  0
    1.0127    7.4490   10.5814 H   0  0  0  0  0  0  0  0  0  0  0  0
   -0.7483    8.0160   10.0597 H   0  0  0  0  0  0  0  0  0  0  0  0
   -0.5350    6.8726   13.6366 P   0  0  0  0  0  0  0  0  0  0  0  0
    1.0450    9.3122   12.6306 P   0  0  0  0  0  0  0  0  0  0  0  0
    2.9557    5.0915   10.5295 O   0  0  0  0  0  0  0  0  0  0  0  0
   -0.3377    8.1578   12.3593 C   0  0  0  0  0  0  0  0  0  0  0  0
   -1.1504    8.7120   12.3994 H   0  0  0  0  0  0  0  0  0  0  0  0
   -0.4946    7.6116   15.2940 C   0  0  0  0  0  0  0  0  0  0  0  0
   -1.4268    8.5818   15.6774 C   0  0  0  0  0  0  0  0  0  0  0  0
   -2.1087    8.8486   15.0725 H   0  0  0  0  0  0  0  0  0  0  0  0
   -1.3558    9.1540   16.9368 C   0  0  0  0  0  0  0  0  0  0  0  0
   -1.9831    9.8203   17.1898 H   0  0  0  0  0  0  0  0  0  0  0  0
   -0.3723    8.7558   17.8286 C   0  0  0  0  0  0  0  0  0  0  0  0
   -0.3336    9.1424   18.6948 H   0  0  0  0  0  0  0  0  0  0  0  0
    0.5521    7.7969   17.4605 C   0  0  0  0  0  0  0  0  0  0  0  0
    1.2252    7.5289   18.0757 H   0  0  0  0  0  0  0  0  0  0  0  0
    0.5038    7.2219   16.1931 C   0  0  0  0  0  0  0  0  0  0  0  0
    1.1458    6.5688   15.9413 H   0  0  0  0  0  0  0  0  0  0  0  0
   -2.2404    6.2609   13.4510 C   0  0  0  0  0  0  0  0  0  0  0  0
   -2.7160    5.3908   14.4303 C   0  0  0  0  0  0  0  0  0  0  0  0
   -2.1828    5.2066   15.1939 H   0  0  0  0  0  0  0  0  0  0  0  0
   -3.9594    4.7903   14.3015 C   0  0  0  0  0  0  0  0  0  0  0  0
   -4.2723    4.1936   14.9716 H   0  0  0  0  0  0  0  0  0  0  0  0
   -4.7425    5.0622   13.1934 C   0  0  0  0  0  0  0  0  0  0  0  0
   -5.5876    4.6395   13.0920 H   0  0  0  0  0  0  0  0  0  0  0  0
   -4.2937    5.9540   12.2306 C   0  0  0  0  0  0  0  0  0  0  0  0
   -4.8435    6.1564   11.4827 H   0  0  0  0  0  0  0  0  0  0  0  0
   -3.0467    6.5526   12.3493 C   0  0  0  0  0  0  0  0  0  0  0  0
   -2.7431    7.1590   11.6828 H   0  0  0  0  0  0  0  0  0  0  0  0
    0.6578   10.4903   13.9687 C   0  0  0  0  0  0  0  0  0  0  0  0
   -0.4831   11.2985   13.9073 C   0  0  0  0  0  0  0  0  0  0  0  0
   -1.0906   11.2057   13.1827 H   0  0  0  0  0  0  0  0  0  0  0  0
   -0.7292   12.2315   14.8965 C   0  0  0  0  0  0  0  0  0  0  0  0
   -1.5050   12.7780   14.8450 H   0  0  0  0  0  0  0  0  0  0  0  0
    0.1397   12.3797   15.9577 C   0  0  0  0  0  0  0  0  0  0  0  0
   -0.0318   13.0254   16.6322 H   0  0  0  0  0  0  0  0  0  0  0  0
    1.2674   11.5743   16.0318 C   0  0  0  0  0  0  0  0  0  0  0  0
    1.8674   11.6696   16.7622 H   0  0  0  0  0  0  0  0  0  0  0  0
    1.5258   10.6317   15.0455 C   0  0  0  0  0  0  0  0  0  0  0  0
    2.2972   10.0819   15.1067 H   0  0  0  0  0  0  0  0  0  0  0  0
    1.0603   10.3661   11.1380 C   0  0  0  0  0  0  0  0  0  0  0  0
   -0.1112   10.9125   10.6086 C   0  0  0  0  0  0  0  0  0  0  0  0
   -0.9539   10.6696   10.9747 H   0  0  0  0  0  0  0  0  0  0  0  0
   -0.0515   11.8114    9.5472 C   0  0  0  0  0  0  0  0  0  0  0  0
   -0.8494   12.1851    9.1926 H   0  0  0  0  0  0  0  0  0  0  0  0
    1.1768   12.1606    9.0083 C   0  0  0  0  0  0  0  0  0  0  0  0
    1.2189   12.7857    8.2947 H   0  0  0  0  0  0  0  0  0  0  0  0
    2.3376   11.6065    9.5015 C   0  0  0  0  0  0  0  0  0  0  0  0
    3.1754   11.8372    9.1191 H   0  0  0  0  0  0  0  0  0  0  0  0
    2.2784   10.7058   10.5651 C   0  0  0  0  0  0  0  0  0  0  0  0
    3.0789   10.3216   10.9012 H   0  0  0  0  0  0  0  0  0  0  0  0
    4.6969    4.6820   12.1403 C   0  0  0  0  0  0  0  0  0  0  0  0
    5.3675    4.0286   12.4284 H   0  0  0  0  0  0  0  0  0  0  0  0
    4.0504    4.8277   12.8628 H   0  0  0  0  0  0  0  0  0  0  0  0
    5.1385    5.5287   11.9205 H   0  0  0  0  0  0  0  0  0  0  0  0
    3.9811    4.1614   10.9277 C   0  0  0  0  0  0  0  0  0  0  0  0
    4.6264    4.0389   10.1863 H   0  0  0  0  0  0  0  0  0  0  0  0
    3.5738    3.2824   11.1321 H   0  0  0  0  0  0  0  0  0  0  0  0
    2.3319    4.7336    9.2787 C   0  0  0  0  0  0  0  0  0  0  0  0
    3.0324    4.4694    8.6300 H   0  0  0  0  0  0  0  0  0  0  0  0
    1.8619    5.5249    8.9121 H   0  0  0  0  0  0  0  0  0  0  0  0
    1.3430    3.5956    9.4362 C   0  0  0  0  0  0  0  0  0  0  0  0
    0.9456    3.3855    8.5650 H   0  0  0  0  0  0  0  0  0  0  0  0
    0.6376    3.8598   10.0632 H   0  0  0  0  0  0  0  0  0  0  0  0
    1.8079    2.8056    9.7827 H   0  0  0  0  0  0  0  0  0  0  0  0
  1  3  1  0  0  0  0
  2  3  1  0  0  0  0
  4  1  1  0  0  0  0
  5  2  1  0  0  0  0
  6  7  1  0  0  0  0
  7  1  1  0  0  0  0
  8  6  1  0  0  0  0
  9  6  1  0  0  0  0
 10 11  1  0  0  0  0
 12  1  1  0  0  0  0
 13 10  1  0  0  0  0
 14  2  1  0  0  0  0
 15  6  1  0  0  0  0
 16  1  1  0  0  0  0
 17 10  1  0  0  0  0
 18 17  1  0  0  0  0
 19 14  1  0  0  0  0
 20 19  4  0  0  0  0
 21 20  1  0  0  0  0
 22 20  4  0  0  0  0
 23 22  1  0  0  0  0
 24 22  4  0  0  0  0
 25 24  1  0  0  0  0
 26 24  4  0  0  0  0
 27 26  1  0  0  0  0
 28 19  4  0  0  0  0
 29 28  1  0  0  0  0
 30 14  1  0  0  0  0
 31 30  4  0  0  0  0
 32 31  1  0  0  0  0
 33 31  4  0  0  0  0
 34 33  1  0  0  0  0
 35 33  4  0  0  0  0
 36 35  1  0  0  0  0
 37 35  4  0  0  0  0
 38 37  1  0  0  0  0
 39 30  4  0  0  0  0
 40 39  1  0  0  0  0
 41 15  1  0  0  0  0
 42 41  4  0  0  0  0
 43 42  1  0  0  0  0
 44 42  4  0  0  0  0
 45 44  1  0  0  0  0
 46 44  4  0  0  0  0
 47 46  1  0  0  0  0
 48 46  4  0  0  0  0
 49 48  1  0  0  0  0
 50 41  4  0  0  0  0
 51 50  1  0  0  0  0
 52 15  1  0  0  0  0
 53 52  4  0  0  0  0
 54 53  1  0  0  0  0
 55 53  4  0  0  0  0
 56 55  1  0  0  0  0
 57 55  4  0  0  0  0
 58 57  1  0  0  0  0
 59 57  4  0  0  0  0
 60 59  1  0  0  0  0
 61 52  4  0  0  0  0
 62 61  1  0  0  0  0
 63 64  1  0  0  0  0
 65 63  1  0  0  0  0
 66 63  1  0  0  0  0
 67 16  1  0  0  0  0
 68 67  1  0  0  0  0
 69 67  1  0  0  0  0
 70 16  1  0  0  0  0
 71 70  1  0  0  0  0
 72 70  1  0  0  0  0
 73 70  1  0  0  0  0
 74 73  1  0  0  0  0
 75 73  1  0  0  0  0
 76 73  1  0  0  0  0
  2  4  1  0  0  0  0
 10 12  1  0  0  0  0
 14 17  1  0  0  0  0
 15 17  1  0  0  0  0
 26 28  4  0  0  0  0
 37 39  4  0  0  0  0
 48 50  4  0  0  0  0
 59 61  4  0  0  0  0
 63 67  1  0  0  0  0
M  CHG  2   1   1  10  -1
M  END
$$$$
NOZGOC

From CSD data. Using bond type 'Any'. No disordered atoms. Largest molecule.
121126  0  0  0  0  0  0  0  0999 V2000
    6.5605   -0.4740    3.1604 S   0  0  0  0  0  0  0  0  0  0  0  0
    6.5484    0.9171    5.9104 S   0  0  0  0  0  0  0  0  0  0  0  0
    2.9234   -0.0583    0.4079 P   0  0  0  0  0  0  0  0  0  0  0  0
    9.3609    4.8880    5.8340 P   0  0  0  0  0  0  0  0  0  0  0  0
    7.3168   -1.4768    3.8884 O   0  0  0  0  0  0  0  0  0  0  0  0
    6.5901   -0.3391    6.6014 O   0  0  0  0  0  0  0  0  0  0  0  0
    5.3639   -0.8059    2.3972 N   0  0  0  0  0  0  0  0  0  0  0  0
    7.7878    1.7138    5.5657 N   0  0  0  0  0  0  0  0  0  0  0  0
    7.6703    0.5670    2.3041 C   0  0  0  0  0  0  0  0  0  0  0  0
    7.2213    1.4203    1.3027 C   0  0  0  0  0  0  0  0  0  0  0  0
    6.3277    1.4075    1.0431 H   0  0  0  0  0  0  0  0  0  0  0  0
    8.1007    2.2754    0.7003 C   0  0  0  0  0  0  0  0  0  0  0  0
    7.7856    2.8168    0.0122 H   0  0  0  0  0  0  0  0  0  0  0  0
    9.4081    2.3793    1.0504 C   0  0  0  0  0  0  0  0  0  0  0  0
    9.8429    1.5169    2.0617 C   0  0  0  0  0  0  0  0  0  0  0  0
   10.7354    1.5515    2.3188 H   0  0  0  0  0  0  0  0  0  0  0  0
    9.0228    0.6327    2.6861 C   0  0  0  0  0  0  0  0  0  0  0  0
    9.3511    0.0766    3.3570 H   0  0  0  0  0  0  0  0  0  0  0  0
   10.3654    3.3875    0.4285 C   0  0  0  0  0  0  0  0  0  0  0  0
   10.3468    4.2007    0.9378 H   0  0  0  0  0  0  0  0  0  0  0  0
   10.0976    3.5680   -0.4750 H   0  0  0  0  0  0  0  0  0  0  0  0
   11.2557    3.0283    0.4334 H   0  0  0  0  0  0  0  0  0  0  0  0
    5.3079   -1.5333    1.0774 C   0  0  0  0  0  0  0  0  0  0  0  0
    5.7613   -0.9882    0.3991 H   0  0  0  0  0  0  0  0  0  0  0  0
    3.8017   -1.6445    0.6979 C   0  0  0  0  0  0  0  0  0  0  0  0
    3.3439   -2.1204    1.4104 H   0  0  0  0  0  0  0  0  0  0  0  0
    3.7292   -2.1842   -0.1028 H   0  0  0  0  0  0  0  0  0  0  0  0
    1.2131   -0.6108   -0.0563 C   0  0  0  0  0  0  0  0  0  0  0  0
    0.6894    0.0219   -1.1313 C   0  0  0  0  0  0  0  0  0  0  0  0
    1.1637    0.6819   -1.5867 H   0  0  0  0  0  0  0  0  0  0  0  0
   -0.6367   -0.3665   -1.5451 C   0  0  0  0  0  0  0  0  0  0  0  0
   -1.0352   -0.0091   -2.3041 H   0  0  0  0  0  0  0  0  0  0  0  0
   -1.2493   -1.2617   -0.7836 C   0  0  0  0  0  0  0  0  0  0  0  0
   -2.1067   -1.4987   -1.0553 H   0  0  0  0  0  0  0  0  0  0  0  0
   -0.7959   -1.8815    0.3428 C   0  0  0  0  0  0  0  0  0  0  0  0
   -1.2987   -2.4978    0.8227 H   0  0  0  0  0  0  0  0  0  0  0  0
    0.4995   -1.4987    0.7003 C   0  0  0  0  0  0  0  0  0  0  0  0
    0.8837   -1.8542    1.4692 H   0  0  0  0  0  0  0  0  0  0  0  0
    2.7291    0.8059    2.0127 C   0  0  0  0  0  0  0  0  0  0  0  0
    2.3899    0.1404    3.1269 C   0  0  0  0  0  0  0  0  0  0  0  0
    2.2966   -0.7840    3.1097 H   0  0  0  0  0  0  0  0  0  0  0  0
    2.1714    0.8642    4.3438 C   0  0  0  0  0  0  0  0  0  0  0  0
    1.8948    0.4430    5.1274 H   0  0  0  0  0  0  0  0  0  0  0  0
    2.3954    2.1951    4.2851 C   0  0  0  0  0  0  0  0  0  0  0  0
    2.3438    2.6765    5.0784 H   0  0  0  0  0  0  0  0  0  0  0  0
    2.6841    2.8697    3.1660 C   0  0  0  0  0  0  0  0  0  0  0  0
    2.7632    3.7959    3.2003 H   0  0  0  0  0  0  0  0  0  0  0  0
    2.8718    2.2042    1.9393 C   0  0  0  0  0  0  0  0  0  0  0  0
    3.0738    2.6509    1.1484 H   0  0  0  0  0  0  0  0  0  0  0  0
    5.9435   -2.9135    1.0970 C   0  0  0  0  0  0  0  0  0  0  0  0
    6.8503   -2.7968    1.4496 H   0  0  0  0  0  0  0  0  0  0  0  0
    5.2233   -3.8962    2.0519 C   0  0  0  0  0  0  0  0  0  0  0  0
    4.3363   -4.0657    1.7287 H   0  0  0  0  0  0  0  0  0  0  0  0
    5.1750   -3.5115    2.9310 H   0  0  0  0  0  0  0  0  0  0  0  0
    5.7130   -4.7221    2.0911 H   0  0  0  0  0  0  0  0  0  0  0  0
    6.0961   -3.5042   -0.3036 C   0  0  0  0  0  0  0  0  0  0  0  0
    6.5143   -2.8588   -0.8790 H   0  0  0  0  0  0  0  0  0  0  0  0
    5.2299   -3.7284   -0.6513 H   0  0  0  0  0  0  0  0  0  0  0  0
    6.6384   -4.2955   -0.2596 H   0  0  0  0  0  0  0  0  0  0  0  0
    5.7239    0.6363    4.3708 C   0  0  0  0  0  0  0  0  0  0  0  0
    5.5856    1.4968    3.9447 H   0  0  0  0  0  0  0  0  0  0  0  0
    4.8479    0.2662    4.5617 H   0  0  0  0  0  0  0  0  0  0  0  0
    5.2607    1.8524    6.7728 C   0  0  0  0  0  0  0  0  0  0  0  0
    5.2519    3.2398    6.5157 C   0  0  0  0  0  0  0  0  0  0  0  0
    5.8491    3.6263    5.9183 H   0  0  0  0  0  0  0  0  0  0  0  0
    4.3100    3.9965    7.1964 C   0  0  0  0  0  0  0  0  0  0  0  0
    4.2836    4.9135    7.0495 H   0  0  0  0  0  0  0  0  0  0  0  0
    3.3933    3.4258    8.1000 C   0  0  0  0  0  0  0  0  0  0  0  0
    3.4207    2.0712    8.2444 C   0  0  0  0  0  0  0  0  0  0  0  0
    2.7752    1.6755    8.7831 H   0  0  0  0  0  0  0  0  0  0  0  0
    4.3473    1.2489    7.6347 C   0  0  0  0  0  0  0  0  0  0  0  0
    4.3627    0.3336    7.7939 H   0  0  0  0  0  0  0  0  0  0  0  0
    2.4075    4.2882    8.8737 C   0  0  0  0  0  0  0  0  0  0  0  0
    1.5106    4.0165    8.6656 H   0  0  0  0  0  0  0  0  0  0  0  0
    2.5271    5.2089    8.6313 H   0  0  0  0  0  0  0  0  0  0  0  0
    2.5623    4.1842    9.8164 H   0  0  0  0  0  0  0  0  0  0  0  0
    8.7187    2.1988    6.5794 C   0  0  0  0  0  0  0  0  0  0  0  0
    8.2083    2.7457    7.2111 H   0  0  0  0  0  0  0  0  0  0  0  0
    9.7035    3.0921    5.9060 C   0  0  0  0  0  0  0  0  0  0  0  0
    9.8099    2.7786    4.9927 H   0  0  0  0  0  0  0  0  0  0  0  0
   10.5575    2.9736    6.3492 H   0  0  0  0  0  0  0  0  0  0  0  0
   10.7804    5.5990    4.8850 C   0  0  0  0  0  0  0  0  0  0  0  0
   11.9594    5.7887    5.6269 C   0  0  0  0  0  0  0  0  0  0  0  0
   11.9858    5.5681    6.5304 H   0  0  0  0  0  0  0  0  0  0  0  0
   13.0803    6.3064    5.0025 C   0  0  0  0  0  0  0  0  0  0  0  0
   13.8817    6.3994    5.4653 H   0  0  0  0  0  0  0  0  0  0  0  0
   12.9848    6.6839    3.6680 C   0  0  0  0  0  0  0  0  0  0  0  0
   13.7203    7.0594    3.2370 H   0  0  0  0  0  0  0  0  0  0  0  0
   11.7915    6.5034    2.9677 C   0  0  0  0  0  0  0  0  0  0  0  0
   11.7454    6.7185    2.0642 H   0  0  0  0  0  0  0  0  0  0  0  0
   10.6772    6.0056    3.6141 C   0  0  0  0  0  0  0  0  0  0  0  0
    9.8626    5.9527    3.1685 H   0  0  0  0  0  0  0  0  0  0  0  0
    7.9140    5.1669    4.7895 C   0  0  0  0  0  0  0  0  0  0  0  0
    7.6813    4.3192    3.6876 C   0  0  0  0  0  0  0  0  0  0  0  0
    8.2620    3.6227    3.4819 H   0  0  0  0  0  0  0  0  0  0  0  0
    6.5670    4.5635    2.9285 C   0  0  0  0  0  0  0  0  0  0  0  0
    6.4068    4.0274    2.1842 H   0  0  0  0  0  0  0  0  0  0  0  0
    5.6416    5.6082    3.2370 C   0  0  0  0  0  0  0  0  0  0  0  0
    4.9138    5.7923    2.6861 H   0  0  0  0  0  0  0  0  0  0  0  0
    5.8787    6.3247    4.3781 C   0  0  0  0  0  0  0  0  0  0  0  0
    5.2420    6.9409    4.6597 H   0  0  0  0  0  0  0  0  0  0  0  0
    7.0490    6.1642    5.1396 C   0  0  0  0  0  0  0  0  0  0  0  0
    7.2290    6.7221    5.8619 H   0  0  0  0  0  0  0  0  0  0  0  0
    9.4191    1.0848    7.3899 C   0  0  0  0  0  0  0  0  0  0  0  0
    8.7088    0.4941    7.7180 H   0  0  0  0  0  0  0  0  0  0  0  0
   10.2996    0.2480    6.5378 C   0  0  0  0  0  0  0  0  0  0  0  0
   10.9132    0.8113    6.0603 H   0  0  0  0  0  0  0  0  0  0  0  0
    9.7638   -0.2443    5.9085 H   0  0  0  0  0  0  0  0  0  0  0  0
   10.7903   -0.3665    7.0887 H   0  0  0  0  0  0  0  0  0  0  0  0
   10.0965    1.6846    8.6411 C   0  0  0  0  0  0  0  0  0  0  0  0
    9.9724    2.6382    8.6460 H   0  0  0  0  0  0  0  0  0  0  0  0
   11.0351    1.4841    8.6240 H   0  0  0  0  0  0  0  0  0  0  0  0
    9.7024    1.3072    9.4296 H   0  0  0  0  0  0  0  0  0  0  0  0
    3.7698    0.9991   -0.9403 B   0  0  0  0  0  0  0  0  0  0  0  0
    3.6656    0.5579   -1.7875 H   0  0  0  0  0  0  0  0  0  0  0  0
    4.7052    1.0994   -0.7468 H   0  0  0  0  0  0  0  0  0  0  0  0
    3.3560    1.8651   -0.9770 H   0  0  0  0  0  0  0  0  0  0  0  0
    9.1952    5.6027    7.5907 B   0  0  0  0  0  0  0  0  0  0  0  0
    9.9011    5.2490    8.1367 H   0  0  0  0  0  0  0  0  0  0  0  0
    8.3466    5.3456    7.9580 H   0  0  0  0  0  0  0  0  0  0  0  0
    9.2577    6.5599    7.5662 H   0  0  0  0  0  0  0  0  0  0  0  0
  1  5  2  0  0  0  0
  2  6  2  0  0  0  0
  3 25  1  0  0  0  0
  4 79  1  0  0  0  0
  7  1  2  0  0  0  0
  8  2  2  0  0  0  0
  9  1  1  0  0  0  0
 10  9  4  0  0  0  0
 11 10  1  0  0  0  0
 12 10  4  0  0  0  0
 13 12  1  0  0  0  0
 14 12  4  0  0  0  0
 15 14  4  0  0  0  0
 16 15  1  0  0  0  0
 17  9  4  0  0  0  0
 18 17  1  0  0  0  0
 19 14  1  0  0  0  0
 20 19  1  0  0  0  0
 21 19  1  0  0  0  0
 22 19  1  0  0  0  0
 23  7  1  0  0  0  0
 24 23  1  0  0  0  0
 25 23  1  0  0  0  0
 26 25  1  0  0  0  0
 27 25  1  0  0  0  0
 28  3  1  0  0  0  0
 29 28  4  0  0  0  0
 30 29  1  0  0  0  0
 31 29  4  0  0  0  0
 32 31  1  0  0  0  0
 33 31  4  0  0  0  0
 34 33  1  0  0  0  0
 35 33  4  0  0  0  0
 36 35  1  0  0  0  0
 37 28  4  0  0  0  0
 38 37  1  0  0  0  0
 39  3  1  0  0  0  0
 40 39  4  0  0  0  0
 41 40  1  0  0  0  0
 42 40  4  0  0  0  0
 43 42  1  0  0  0  0
 44 42  4  0  0  0  0
 45 44  1  0  0  0  0
 46 44  4  0  0  0  0
 47 46  1  0  0  0  0
 48 39  4  0  0  0  0
 49 48  1  0  0  0  0
 50 23  1  0  0  0  0
 51 50  1  0  0  0  0
 52 50  1  0  0  0  0
 53 52  1  0  0  0  0
 54 52  1  0  0  0  0
 55 52  1  0  0  0  0
 56 50  1  0  0  0  0
 57 56  1  0  0  0  0
 58 56  1  0  0  0  0
 59 56  1  0  0  0  0
 60  1  1  0  0  0  0
 61 60  1  0  0  0  0
 62 60  1  0  0  0  0
 63  2  1  0  0  0  0
 64 63  4  0  0  0  0
 65 64  1  0  0  0  0
 66 64  4  0  0  0  0
 67 66  1  0  0  0  0
 68 66  4  0  0  0  0
 69 68  4  0  0  0  0
 70 69  1  0  0  0  0
 71 63  4  0  0  0  0
 72 71  1  0  0  0  0
 73 68  1  0  0  0  0
 74 73  1  0  0  0  0
 75 73  1  0  0  0  0
 76 73  1  0  0  0  0
 77  8  1  0  0  0  0
 78 77  1  0  0  0  0
 79 77  1  0  0  0  0
 80 79  1  0  0  0  0
 81 79  1  0  0  0  0
 82  4  1  0  0  0  0
 83 82  4  0  0  0  0
 84 83  1  0  0  0  0
 85 83  4  0  0  0  0
 86 85  1  0  0  0  0
 87 85  4  0  0  0  0
 88 87  1  0  0  0  0
 89 87  4  0  0  0  0
 90 89  1  0  0  0  0
 91 82  4  0  0  0  0
 92 91  1  0  0  0  0
 93  4  1  0  0  0  0
 94 93  4  0  0  0  0
 95 94  1  0  0  0  0
 96 94  4  0  0  0  0
 97 96  1  0  0  0  0
 98 96  4  0  0  0  0
 99 98  1  0  0  0  0
100 98  4  0  0  0  0
101100  1  0  0  0  0
102 93  4  0  0  0  0
103102  1  0  0  0  0
104 77  1  0  0  0  0
105104  1  0  0  0  0
106104  1  0  0  0  0
107106  1  0  0  0  0
108106  1  0  0  0  0
109106  1  0  0  0  0
110104  1  0  0  0  0
111110  1  0  0  0  0
112110  1  0  0  0  0
113110  1  0  0  0  0
114  3  1  0  0  0  0
115114  1  0  0  0  0
116114  1  0  0  0  0
117114  1  0  0  0  0
118  4  1  0  0  0  0
119118  1  0  0  0  0
120118  1  0  0  0  0
121118  1  0  0  0  0
  2 60  1  0  0  0  0
 15 17  4  0  0  0  0
 35 37  4  0  0  0  0
 46 48  4  0  0  0  0
 69 71  4  0  0  0  0
 89 91  4  0  0  0  0
100102  4  0  0  0  0
M  END
$$$$
NOZGUI

From CSD data. Using bond type 'Any'. No disordered atoms. Largest molecule.
127132  0  0  0  0  0  0  0  0999 V2000
    7.2910    7.2054    2.5499 S   0  0  0  0  0  0  0  0  0  0  0  0
    5.7799    9.7546    3.1583 S   0  0  0  0  0  0  0  0  0  0  0  0
    5.9118    2.9220    1.3339 P   0  0  0  0  0  0  0  0  0  0  0  0
    6.0440   12.4353   -1.1022 P   0  0  0  0  0  0  0  0  0  0  0  0
    8.2458    7.8294    3.4273 O   0  0  0  0  0  0  0  0  0  0  0  0
    6.3537   10.0409    4.4517 O   0  0  0  0  0  0  0  0  0  0  0  0
    6.9825    5.7167    2.6183 N   0  0  0  0  0  0  0  0  0  0  0  0
    6.4009   10.1972    1.8582 N   0  0  0  0  0  0  0  0  0  0  0  0
    7.7760    7.6742    0.9035 C   0  0  0  0  0  0  0  0  0  0  0  0
    8.9189    8.4214    0.7359 C   0  0  0  0  0  0  0  0  0  0  0  0
    9.4102    8.6933    1.4757 H   0  0  0  0  0  0  0  0  0  0  0  0
    9.3329    8.7650   -0.5300 C   0  0  0  0  0  0  0  0  0  0  0  0
   10.1063    9.2711   -0.6387 H   0  0  0  0  0  0  0  0  0  0  0  0
    8.6153    8.3704   -1.6435 C   0  0  0  0  0  0  0  0  0  0  0  0
    7.5095    7.5792   -1.4509 C   0  0  0  0  0  0  0  0  0  0  0  0
    7.0326    7.2847   -2.1926 H   0  0  0  0  0  0  0  0  0  0  0  0
    7.0842    7.2099   -0.1907 C   0  0  0  0  0  0  0  0  0  0  0  0
    6.3422    6.6578   -0.0839 H   0  0  0  0  0  0  0  0  0  0  0  0
    9.0865    8.7650   -3.0086 C   0  0  0  0  0  0  0  0  0  0  0  0
    9.8900    9.2862   -2.9324 H   0  0  0  0  0  0  0  0  0  0  0  0
    8.4076    9.2862   -3.4433 H   0  0  0  0  0  0  0  0  0  0  0  0
    9.2655    7.9758   -3.5272 H   0  0  0  0  0  0  0  0  0  0  0  0
    7.9822    4.7367    2.1657 C   0  0  0  0  0  0  0  0  0  0  0  0
    8.1484    4.8885    1.2126 H   0  0  0  0  0  0  0  0  0  0  0  0
    7.3835    3.3370    2.3261 C   0  0  0  0  0  0  0  0  0  0  0  0
    7.1543    3.2175    3.2622 H   0  0  0  0  0  0  0  0  0  0  0  0
    8.0753    2.6907    2.1163 H   0  0  0  0  0  0  0  0  0  0  0  0
    4.4688    3.6074    2.1621 C   0  0  0  0  0  0  0  0  0  0  0  0
    4.3843    3.7198    3.5482 C   0  0  0  0  0  0  0  0  0  0  0  0
    5.1019    3.4516    4.0744 H   0  0  0  0  0  0  0  0  0  0  0  0
    3.2585    4.2220    4.1469 C   0  0  0  0  0  0  0  0  0  0  0  0
    3.2112    4.2900    5.0735 H   0  0  0  0  0  0  0  0  0  0  0  0
    2.2014    4.6261    3.3651 C   0  0  0  0  0  0  0  0  0  0  0  0
    1.4366    4.9679    3.7693 H   0  0  0  0  0  0  0  0  0  0  0  0
    2.2587    4.5298    2.0057 C   0  0  0  0  0  0  0  0  0  0  0  0
    1.5397    4.8074    1.4833 H   0  0  0  0  0  0  0  0  0  0  0  0
    3.3874    4.0219    1.4166 C   0  0  0  0  0  0  0  0  0  0  0  0
    3.4232    3.9539    0.4900 H   0  0  0  0  0  0  0  0  0  0  0  0
    5.7808    1.1201    1.5268 C   0  0  0  0  0  0  0  0  0  0  0  0
    5.7306    0.5276    2.7646 C   0  0  0  0  0  0  0  0  0  0  0  0
    5.7894    1.0517    3.5310 H   0  0  0  0  0  0  0  0  0  0  0  0
    5.5946   -0.8497    2.8771 C   0  0  0  0  0  0  0  0  0  0  0  0
    5.5487   -1.2443    3.7198 H   0  0  0  0  0  0  0  0  0  0  0  0
    5.5272   -1.6257    1.7579 C   0  0  0  0  0  0  0  0  0  0  0  0
    5.4256   -2.5472    1.8380 H   0  0  0  0  0  0  0  0  0  0  0  0
    5.6075   -1.0612    0.5338 C   0  0  0  0  0  0  0  0  0  0  0  0
    5.5802   -1.5993   -0.2250 H   0  0  0  0  0  0  0  0  0  0  0  0
    5.7321    0.3134    0.3966 C   0  0  0  0  0  0  0  0  0  0  0  0
    5.7822    0.6949   -0.4500 H   0  0  0  0  0  0  0  0  0  0  0  0
    9.3214    4.8410    2.9076 C   0  0  0  0  0  0  0  0  0  0  0  0
    9.6680    5.7439    2.7512 H   0  0  0  0  0  0  0  0  0  0  0  0
    9.1610    4.6790    4.4081 C   0  0  0  0  0  0  0  0  0  0  0  0
    8.8187    3.8028    4.6006 H   0  0  0  0  0  0  0  0  0  0  0  0
    8.5508    5.3417    4.7379 H   0  0  0  0  0  0  0  0  0  0  0  0
   10.0146    4.7904    4.8332 H   0  0  0  0  0  0  0  0  0  0  0  0
   10.3555    3.8670    2.3718 C   0  0  0  0  0  0  0  0  0  0  0  0
   10.3068    3.8463    1.4128 H   0  0  0  0  0  0  0  0  0  0  0  0
   10.1808    2.9909    2.7207 H   0  0  0  0  0  0  0  0  0  0  0  0
   11.2321    4.1522    2.6406 H   0  0  0  0  0  0  0  0  0  0  0  0
    5.6246    7.9219    2.9691 C   0  0  0  0  0  0  0  0  0  0  0  0
    5.2795    7.3602    4.3490 C   0  0  0  0  0  0  0  0  0  0  0  0
    5.1792    6.4067    4.2898 H   0  0  0  0  0  0  0  0  0  0  0  0
    4.4587    7.7511    4.6578 H   0  0  0  0  0  0  0  0  0  0  0  0
    5.9856    7.5698    4.9648 H   0  0  0  0  0  0  0  0  0  0  0  0
    4.5819    7.5666    1.9352 C   0  0  0  0  0  0  0  0  0  0  0  0
    3.7125    7.8153    2.2593 H   0  0  0  0  0  0  0  0  0  0  0  0
    4.6034    6.6200    1.7712 H   0  0  0  0  0  0  0  0  0  0  0  0
    4.7667    8.0362    1.1192 H   0  0  0  0  0  0  0  0  0  0  0  0
    4.0849   10.2982    3.2984 C   0  0  0  0  0  0  0  0  0  0  0  0
    3.4962   10.4248    4.5453 C   0  0  0  0  0  0  0  0  0  0  0  0
    3.9718   10.2001    5.3118 H   0  0  0  0  0  0  0  0  0  0  0  0
    2.2215   10.8798    4.6445 C   0  0  0  0  0  0  0  0  0  0  0  0
    1.8348   10.9440    5.4872 H   0  0  0  0  0  0  0  0  0  0  0  0
    1.4724   11.2499    3.5425 C   0  0  0  0  0  0  0  0  0  0  0  0
    2.0797   11.1234    2.2936 C   0  0  0  0  0  0  0  0  0  0  0  0
    1.6070   11.3575    1.5272 H   0  0  0  0  0  0  0  0  0  0  0  0
    3.3645   10.6570    2.1812 C   0  0  0  0  0  0  0  0  0  0  0  0
    3.7555   10.5834    1.3403 H   0  0  0  0  0  0  0  0  0  0  0  0
    0.0645   11.7635    3.6416 C   0  0  0  0  0  0  0  0  0  0  0  0
   -0.0902   12.1071    4.5244 H   0  0  0  0  0  0  0  0  0  0  0  0
   -0.5500   11.0460    3.4662 H   0  0  0  0  0  0  0  0  0  0  0  0
   -0.0688   12.4640    2.9991 H   0  0  0  0  0  0  0  0  0  0  0  0
    6.6745   11.6194    1.5659 C   0  0  0  0  0  0  0  0  0  0  0  0
    5.8366   12.1222    1.6359 H   0  0  0  0  0  0  0  0  0  0  0  0
    7.1601   11.6683    0.1127 C   0  0  0  0  0  0  0  0  0  0  0  0
    7.3391   10.7590   -0.1754 H   0  0  0  0  0  0  0  0  0  0  0  0
    8.0023   12.1487    0.0934 H   0  0  0  0  0  0  0  0  0  0  0  0
    4.5791   11.4010   -1.2237 C   0  0  0  0  0  0  0  0  0  0  0  0
    4.6664   10.0090   -1.2336 C   0  0  0  0  0  0  0  0  0  0  0  0
    5.4929    9.5883   -1.1726 H   0  0  0  0  0  0  0  0  0  0  0  0
    3.5134    9.2692   -1.3365 C   0  0  0  0  0  0  0  0  0  0  0  0
    3.5636    8.3402   -1.3194 H   0  0  0  0  0  0  0  0  0  0  0  0
    2.2917    9.8772   -1.4605 C   0  0  0  0  0  0  0  0  0  0  0  0
    1.5240    9.3598   -1.5463 H   0  0  0  0  0  0  0  0  0  0  0  0
    2.1986   11.2367   -1.4585 C   0  0  0  0  0  0  0  0  0  0  0  0
    1.3693   11.6502   -1.5386 H   0  0  0  0  0  0  0  0  0  0  0  0
    3.3244   11.9769   -1.3403 C   0  0  0  0  0  0  0  0  0  0  0  0
    3.2542   12.9040   -1.3365 H   0  0  0  0  0  0  0  0  0  0  0  0
    6.9066   12.2336   -2.6883 C   0  0  0  0  0  0  0  0  0  0  0  0
    6.3823   11.5803   -3.7598 C   0  0  0  0  0  0  0  0  0  0  0  0
    5.5444   11.1819   -3.6874 H   0  0  0  0  0  0  0  0  0  0  0  0
    7.0727   11.4991   -4.9553 C   0  0  0  0  0  0  0  0  0  0  0  0
    6.6860   11.0667   -5.6836 H   0  0  0  0  0  0  0  0  0  0  0  0
    8.2586   12.0222   -5.0696 C   0  0  0  0  0  0  0  0  0  0  0  0
    8.7198   11.9410   -5.8723 H   0  0  0  0  0  0  0  0  0  0  0  0
    8.8086   12.6604   -4.0687 C   0  0  0  0  0  0  0  0  0  0  0  0
    9.6465   13.0494   -4.1735 H   0  0  0  0  0  0  0  0  0  0  0  0
    8.1484   12.7605   -2.8408 C   0  0  0  0  0  0  0  0  0  0  0  0
    8.5609   13.1891   -2.1259 H   0  0  0  0  0  0  0  0  0  0  0  0
    7.7058   12.2301    2.5491 C   0  0  0  0  0  0  0  0  0  0  0  0
    7.3233   12.1506    3.4490 H   0  0  0  0  0  0  0  0  0  0  0  0
    7.8891   13.7253    2.2784 C   0  0  0  0  0  0  0  0  0  0  0  0
    7.0297   14.1502    2.2307 H   0  0  0  0  0  0  0  0  0  0  0  0
    8.3517   13.8443    1.4452 H   0  0  0  0  0  0  0  0  0  0  0  0
    8.4019   14.1181    2.9876 H   0  0  0  0  0  0  0  0  0  0  0  0
    9.0307   11.4916    2.5701 C   0  0  0  0  0  0  0  0  0  0  0  0
    9.4503   11.5614    1.7083 H   0  0  0  0  0  0  0  0  0  0  0  0
    8.8788   10.5664    2.7760 H   0  0  0  0  0  0  0  0  0  0  0  0
    9.6036   11.8787    3.2374 H   0  0  0  0  0  0  0  0  0  0  0  0
    6.0572    3.3931   -0.5148 B   0  0  0  0  0  0  0  0  0  0  0  0
    5.1892    2.9626   -1.0143 H   0  0  0  0  0  0  0  0  0  0  0  0
    6.9595    2.8965   -0.7741 H   0  0  0  0  0  0  0  0  0  0  0  0
    6.1832    4.3429   -0.6196 H   0  0  0  0  0  0  0  0  0  0  0  0
    5.6418   14.2729   -0.7245 B   0  0  0  0  0  0  0  0  0  0  0  0
    6.6301   14.6109   -0.7321 H   0  0  0  0  0  0  0  0  0  0  0  0
    5.0116   14.3409    0.1716 H   0  0  0  0  0  0  0  0  0  0  0  0
    4.8369   14.4296   -1.6378 H   0  0  0  0  0  0  0  0  0  0  0  0
  1  5  2  0  0  0  0
  2  6  2  0  0  0  0
  3 25  1  0  0  0  0
  4 85  1  0  0  0  0
  7  1  2  0  0  0  0
  8  2  2  0  0  0  0
  9  1  1  0  0  0  0
 10  9  4  0  0  0  0
 11 10  1  0  0  0  0
 12 10  4  0  0  0  0
 13 12  1  0  0  0  0
 14 12  4  0  0  0  0
 15 14  4  0  0  0  0
 16 15  1  0  0  0  0
 17  9  4  0  0  0  0
 18 17  1  0  0  0  0
 19 14  1  0  0  0  0
 20 19  1  0  0  0  0
 21 19  1  0  0  0  0
 22 19  1  0  0  0  0
 23  7  1  0  0  0  0
 24 23  1  0  0  0  0
 25 23  1  0  0  0  0
 26 25  1  0  0  0  0
 27 25  1  0  0  0  0
 28  3  1  0  0  0  0
 29 28  4  0  0  0  0
 30 29  1  0  0  0  0
 31 29  4  0  0  0  0
 32 31  1  0  0  0  0
 33 31  4  0  0  0  0
 34 33  1  0  0  0  0
 35 33  4  0  0  0  0
 36 35  1  0  0  0  0
 37 28  4  0  0  0  0
 38 37  1  0  0  0  0
 39  3  1  0  0  0  0
 40 39  4  0  0  0  0
 41 40  1  0  0  0  0
 42 40  4  0  0  0  0
 43 42  1  0  0  0  0
 44 42  4  0  0  0  0
 45 44  1  0  0  0  0
 46 44  4  0  0  0  0
 47 46  1  0  0  0  0
 48 39  4  0  0  0  0
 49 48  1  0  0  0  0
 50 23  1  0  0  0  0
 51 50  1  0  0  0  0
 52 50  1  0  0  0  0
 53 52  1  0  0  0  0
 54 52  1  0  0  0  0
 55 52  1  0  0  0  0
 56 50  1  0  0  0  0
 57 56  1  0  0  0  0
 58 56  1  0  0  0  0
 59 56  1  0  0  0  0
 60  1  1  0  0  0  0
 61 60  1  0  0  0  0
 62 61  1  0  0  0  0
 63 61  1  0  0  0  0
 64 61  1  0  0  0  0
 65 60  1  0  0  0  0
 66 65  1  0  0  0  0
 67 65  1  0  0  0  0
 68 65  1  0  0  0  0
 69  2  1  0  0  0  0
 70 69  4  0  0  0  0
 71 70  1  0  0  0  0
 72 70  4  0  0  0  0
 73 72  1  0  0  0  0
 74 72  4  0  0  0  0
 75 74  4  0  0  0  0
 76 75  1  0  0  0  0
 77 69  4  0  0  0  0
 78 77  1  0  0  0  0
 79 74  1  0  0  0  0
 80 79  1  0  0  0  0
 81 79  1  0  0  0  0
 82 79  1  0  0  0  0
 83  8  1  0  0  0  0
 84 83  1  0  0  0  0
 85 83  1  0  0  0  0
 86 85  1  0  0  0  0
 87 85  1  0  0  0  0
 88  4  1  0  0  0  0
 89 88  4  0  0  0  0
 90 89  1  0  0  0  0
 91 89  4  0  0  0  0
 92 91  1  0  0  0  0
 93 91  4  0  0  0  0
 94 93  1  0  0  0  0
 95 93  4  0  0  0  0
 96 95  1  0  0  0  0
 97 88  4  0  0  0  0
 98 97  1  0  0  0  0
 99  4  1  0  0  0  0
100 99  4  0  0  0  0
101100  1  0  0  0  0
102100  4  0  0  0  0
103102  1  0  0  0  0
104102  4  0  0  0  0
105104  1  0  0  0  0
106104  4  0  0  0  0
107106  1  0  0  0  0
108 99  4  0  0  0  0
109108  1  0  0  0  0
110 83  1  0  0  0  0
111110  1  0  0  0  0
112110  1  0  0  0  0
113112  1  0  0  0  0
114112  1  0  0  0  0
115112  1  0  0  0  0
116110  1  0  0  0  0
117116  1  0  0  0  0
118116  1  0  0  0  0
119116  1  0  0  0  0
120  3  1  0  0  0  0
121120  1  0  0  0  0
122120  1  0  0  0  0
123120  1  0  0  0  0
124  4  1  0  0  0  0
125124  1  0  0  0  0
126124  1  0  0  0  0
127124  1  0  0  0  0
  2 60  1  0  0  0  0
 15 17  4  0  0  0  0
 35 37  4  0  0  0  0
 46 48  4  0  0  0  0
 75 77  4  0  0  0  0
 95 97  4  0  0  0  0
106108  4  0  0  0  0
M  END
$$$$
PUHYUQ

From CSD data. Using bond type 'Any'. No disordered atoms. Largest molecule.
114133  0  0  0  0  0  0  0  0999 V2000
    5.3500    9.0114   11.2815 Au  0  0  0  0  0  0  0  0  0  0  0  0
    3.8942   11.9590   11.7116 C   0  0  0  0  0  0  0  0  0  0  0  0
    3.0412   11.2763   10.5645 C   0  0  0  0  0  0  0  0  0  0  0  0
    4.1352   12.5482   10.0754 B   0  0  0  0  0  0  0  0  0  0  0  0
    5.0566   12.4261    9.4521 H   0  0  0  0  0  0  0  0  0  0  0  0
    2.9752   12.9226   12.7017 B   0  0  0  0  0  0  0  0  0  0  0  0
    3.2127   13.0143   13.7921 H   0  0  0  0  0  0  0  0  0  0  0  0
    1.2684   12.8992   12.0288 B   0  0  0  0  0  0  0  0  0  0  0  0
    0.3518   13.0556   12.6540 H   0  0  0  0  0  0  0  0  0  0  0  0
    1.4238   11.7071   10.6356 B   0  0  0  0  0  0  0  0  0  0  0  0
    0.6201   10.9843   10.3421 H   0  0  0  0  0  0  0  0  0  0  0  0
    4.0712   13.6508   11.4537 B   0  0  0  0  0  0  0  0  0  0  0  0
    4.9642   14.2692   11.7253 H   0  0  0  0  0  0  0  0  0  0  0  0
    2.3900   14.2261   11.6346 B   0  0  0  0  0  0  0  0  0  0  0  0
    2.1777   15.2532   12.0274 H   0  0  0  0  0  0  0  0  0  0  0  0
    1.4046   13.4250   10.3333 B   0  0  0  0  0  0  0  0  0  0  0  0
    0.5165   13.9036    9.8472 H   0  0  0  0  0  0  0  0  0  0  0  0
    2.4891   12.4270    9.3906 B   0  0  0  0  0  0  0  0  0  0  0  0
    2.3365   12.2394    8.2979 H   0  0  0  0  0  0  0  0  0  0  0  0
    3.0993   14.0018    9.9805 B   0  0  0  0  0  0  0  0  0  0  0  0
    3.3240   14.8620    9.3007 H   0  0  0  0  0  0  0  0  0  0  0  0
    7.2764   12.1600   13.5880 C   0  0  0  0  0  0  0  0  0  0  0  0
    8.2539   12.0149   13.6453 H   0  0  0  0  0  0  0  0  0  0  0  0
    7.0893   13.1124   13.7846 H   0  0  0  0  0  0  0  0  0  0  0  0
    6.5838   11.3024   14.5543 C   0  0  0  0  0  0  0  0  0  0  0  0
    6.9193   11.0105   15.3923 H   0  0  0  0  0  0  0  0  0  0  0  0
    7.6318   11.8998   11.0388 C   0  0  0  0  0  0  0  0  0  0  0  0
    7.0931   11.5736   10.2617 H   0  0  0  0  0  0  0  0  0  0  0  0
    8.8722   11.0051   11.1425 C   0  0  0  0  0  0  0  0  0  0  0  0
    8.6460   10.1911   11.6409 H   0  0  0  0  0  0  0  0  0  0  0  0
    9.5843   11.4873   11.6131 H   0  0  0  0  0  0  0  0  0  0  0  0
    9.1783   10.7638   10.2446 H   0  0  0  0  0  0  0  0  0  0  0  0
    8.0566   13.3245   10.7275 C   0  0  0  0  0  0  0  0  0  0  0  0
    8.5577   13.6883   11.4877 H   0  0  0  0  0  0  0  0  0  0  0  0
    7.2612   13.8745   10.5682 H   0  0  0  0  0  0  0  0  0  0  0  0
    8.6237   13.3297    9.9295 H   0  0  0  0  0  0  0  0  0  0  0  0
    4.2437   10.2398   14.7381 C   0  0  0  0  0  0  0  0  0  0  0  0
    3.4410   10.1569   14.1464 H   0  0  0  0  0  0  0  0  0  0  0  0
    3.8073   11.0271   15.9742 C   0  0  0  0  0  0  0  0  0  0  0  0
    4.5648   11.1130   16.5909 H   0  0  0  0  0  0  0  0  0  0  0  0
    3.0746   10.5546   16.4216 H   0  0  0  0  0  0  0  0  0  0  0  0
    3.5042   11.9190   15.7041 H   0  0  0  0  0  0  0  0  0  0  0  0
    4.6764    8.8234   15.1027 C   0  0  0  0  0  0  0  0  0  0  0  0
    4.9646    8.3519   14.2929 H   0  0  0  0  0  0  0  0  0  0  0  0
    3.9227    8.3458   15.5075 H   0  0  0  0  0  0  0  0  0  0  0  0
    5.4192    8.8630   15.7397 H   0  0  0  0  0  0  0  0  0  0  0  0
    7.1587    6.9871   12.0673 C   0  0  0  0  0  0  0  0  0  0  0  0
    8.1482    6.2768   12.7254 C   0  0  0  0  0  0  0  0  0  0  0  0
    8.6582    6.7053   13.4032 H   0  0  0  0  0  0  0  0  0  0  0  0
    7.6405    4.3608   11.3885 C   0  0  0  0  0  0  0  0  0  0  0  0
    7.8268    3.4594   11.1555 H   0  0  0  0  0  0  0  0  0  0  0  0
    6.6075    5.0394   10.6949 C   0  0  0  0  0  0  0  0  0  0  0  0
    6.3719    6.3883   11.0536 C   0  0  0  0  0  0  0  0  0  0  0  0
    8.4061    4.9595   12.4142 C   0  0  0  0  0  0  0  0  0  0  0  0
    9.5163    4.1543   13.1433 C   0  0  0  0  0  0  0  0  0  0  0  0
   10.3291    5.0504   14.1571 C   0  0  0  0  0  0  0  0  0  0  0  0
   11.1145    4.5570   14.4734 H   0  0  0  0  0  0  0  0  0  0  0  0
    9.7589    5.2797   14.9217 H   0  0  0  0  0  0  0  0  0  0  0  0
   10.6181    5.8722   13.7086 H   0  0  0  0  0  0  0  0  0  0  0  0
    8.8753    2.9884   13.9259 C   0  0  0  0  0  0  0  0  0  0  0  0
    8.5047    2.3368   13.2928 H   0  0  0  0  0  0  0  0  0  0  0  0
    8.1586    3.3323   14.4971 H   0  0  0  0  0  0  0  0  0  0  0  0
    9.5564    2.5532   14.4794 H   0  0  0  0  0  0  0  0  0  0  0  0
   10.5660    3.6422   12.1978 C   0  0  0  0  0  0  0  0  0  0  0  0
   10.1593    3.0099   11.5693 H   0  0  0  0  0  0  0  0  0  0  0  0
   11.2710    3.1890   12.7064 H   0  0  0  0  0  0  0  0  0  0  0  0
   10.9531    4.3932   11.7015 H   0  0  0  0  0  0  0  0  0  0  0  0
    5.7615    4.3318    9.6011 C   0  0  0  0  0  0  0  0  0  0  0  0
    4.2737    4.3759    9.9776 C   0  0  0  0  0  0  0  0  0  0  0  0
    3.7500    3.9178    9.2866 H   0  0  0  0  0  0  0  0  0  0  0  0
    3.9816    5.3083   10.0441 H   0  0  0  0  0  0  0  0  0  0  0  0
    4.1408    3.9282   10.8385 H   0  0  0  0  0  0  0  0  0  0  0  0
    6.0055    5.0270    8.2583 C   0  0  0  0  0  0  0  0  0  0  0  0
    6.9616    5.0003    8.0439 H   0  0  0  0  0  0  0  0  0  0  0  0
    5.7099    5.9603    8.3132 H   0  0  0  0  0  0  0  0  0  0  0  0
    5.5010    4.5669    7.5544 H   0  0  0  0  0  0  0  0  0  0  0  0
    6.1355    2.8562    9.4351 C   0  0  0  0  0  0  0  0  0  0  0  0
    7.1103    2.7698    9.3920 H   0  0  0  0  0  0  0  0  0  0  0  0
    5.7389    2.5106    8.6090 H   0  0  0  0  0  0  0  0  0  0  0  0
    5.7956    2.3452   10.1997 H   0  0  0  0  0  0  0  0  0  0  0  0
    6.7830   11.8090   12.2274 N   0  0  0  0  0  0  0  0  0  0  0  0
    5.2668   10.9790   13.9733 N   0  0  0  0  0  0  0  0  0  0  0  0
    6.9398    8.3030   12.3993 O   0  0  0  0  0  0  0  0  0  0  0  0
    5.4283    7.1303   10.4281 O   0  0  0  0  0  0  0  0  0  0  0  0
    5.3311   11.0309   12.3312 P   0  0  0  0  0  0  0  0  0  0  0  0
    3.4987    9.6037   10.0795 P   0  0  0  0  0  0  0  0  0  0  0  0
    3.5539    9.3368    8.4540 N   0  0  0  0  0  0  0  0  0  0  0  0
    2.2676    8.5646   10.3599 N   0  0  0  0  0  0  0  0  0  0  0  0
    2.9049    8.0470    8.1427 C   0  0  0  0  0  0  0  0  0  0  0  0
    2.4395    8.1028    7.2698 H   0  0  0  0  0  0  0  0  0  0  0  0
    3.5864    7.3302    8.0855 H   0  0  0  0  0  0  0  0  0  0  0  0
    1.9454    7.7414    9.2039 C   0  0  0  0  0  0  0  0  0  0  0  0
    1.0247    7.9365    8.8945 H   0  0  0  0  0  0  0  0  0  0  0  0
    1.9974    6.7829    9.4436 H   0  0  0  0  0  0  0  0  0  0  0  0
    4.5469    9.8943    7.5410 C   0  0  0  0  0  0  0  0  0  0  0  0
    4.9405   10.7087    7.9670 H   0  0  0  0  0  0  0  0  0  0  0  0
    3.8726   10.3155    6.2278 C   0  0  0  0  0  0  0  0  0  0  0  0
    3.5856    9.5179    5.7354 H   0  0  0  0  0  0  0  0  0  0  0  0
    4.5085   10.8242    5.6812 H   0  0  0  0  0  0  0  0  0  0  0  0
    3.0923   10.8753    6.4248 H   0  0  0  0  0  0  0  0  0  0  0  0
    5.6633    8.9445    7.2268 C   0  0  0  0  0  0  0  0  0  0  0  0
    5.9456    8.4887    8.0471 H   0  0  0  0  0  0  0  0  0  0  0  0
    6.4202    9.4427    6.8530 H   0  0  0  0  0  0  0  0  0  0  0  0
    5.3545    8.2818    6.5743 H   0  0  0  0  0  0  0  0  0  0  0  0
    1.6630    8.3044   11.6998 C   0  0  0  0  0  0  0  0  0  0  0  0
    1.8310    9.0346   12.3606 H   0  0  0  0  0  0  0  0  0  0  0  0
    2.1668    6.8894   12.1800 C   0  0  0  0  0  0  0  0  0  0  0  0
    1.6891    6.1875   11.6916 H   0  0  0  0  0  0  0  0  0  0  0  0
    1.9967    6.7916   13.1413 H   0  0  0  0  0  0  0  0  0  0  0  0
    3.1289    6.8091   12.0104 H   0  0  0  0  0  0  0  0  0  0  0  0
    0.0893    8.0388   11.4152 C   0  0  0  0  0  0  0  0  0  0  0  0
   -0.3237    8.8586   11.0719 H   0  0  0  0  0  0  0  0  0  0  0  0
   -0.3526    7.7733   12.2476 H   0  0  0  0  0  0  0  0  0  0  0  0
   -0.0065    7.3231   10.7514 H   0  0  0  0  0  0  0  0  0  0  0  0
  1 83  1  0  0  0  0
  2  3  1  0  0  0  0
  3  4  1  0  0  0  0
  4  2  1  0  0  0  0
  5  4  1  0  0  0  0
  6  2  1  0  0  0  0
  7  6  1  0  0  0  0
  8  6  1  0  0  0  0
  9  8  1  0  0  0  0
 10  3  1  0  0  0  0
 11 10  1  0  0  0  0
 12  2  1  0  0  0  0
 13 12  1  0  0  0  0
 14  6  1  0  0  0  0
 15 14  1  0  0  0  0
 16  8  1  0  0  0  0
 17 16  1  0  0  0  0
 18  3  1  0  0  0  0
 19 18  1  0  0  0  0
 20  4  1  0  0  0  0
 21 20  1  0  0  0  0
 22 23  1  0  0  0  0
 24 22  1  0  0  0  0
 25 22  1  0  0  0  0
 26 25  1  0  0  0  0
 27 28  1  0  0  0  0
 29 27  1  0  0  0  0
 30 29  1  0  0  0  0
 31 29  1  0  0  0  0
 32 29  1  0  0  0  0
 33 27  1  0  0  0  0
 34 33  1  0  0  0  0
 35 33  1  0  0  0  0
 36 33  1  0  0  0  0
 37 38  1  0  0  0  0
 39 37  1  0  0  0  0
 40 39  1  0  0  0  0
 41 39  1  0  0  0  0
 42 39  1  0  0  0  0
 43 37  1  0  0  0  0
 44 43  1  0  0  0  0
 45 43  1  0  0  0  0
 46 43  1  0  0  0  0
 47 48  4  0  0  0  0
 48 49  1  0  0  0  0
 50 51  1  0  0  0  0
 52 50  4  0  0  0  0
 53 47  4  0  0  0  0
 54 48  4  0  0  0  0
 55 54  1  0  0  0  0
 56 55  1  0  0  0  0
 57 56  1  0  0  0  0
 58 56  1  0  0  0  0
 59 56  1  0  0  0  0
 60 55  1  0  0  0  0
 61 60  1  0  0  0  0
 62 60  1  0  0  0  0
 63 60  1  0  0  0  0
 64 55  1  0  0  0  0
 65 64  1  0  0  0  0
 66 64  1  0  0  0  0
 67 64  1  0  0  0  0
 68 52  1  0  0  0  0
 69 68  1  0  0  0  0
 70 69  1  0  0  0  0
 71 69  1  0  0  0  0
 72 69  1  0  0  0  0
 73 68  1  0  0  0  0
 74 73  1  0  0  0  0
 75 73  1  0  0  0  0
 76 73  1  0  0  0  0
 77 68  1  0  0  0  0
 78 77  1  0  0  0  0
 79 77  1  0  0  0  0
 80 77  1  0  0  0  0
 81 22  1  0  0  0  0
 82 25  1  0  0  0  0
 83 47  1  0  0  0  0
 84  1  1  0  0  0  0
 85  1  1  0  0  0  0
 86  1  1  0  0  0  0
 87 86  1  0  0  0  0
 88 86  1  0  0  0  0
 89 87  1  0  0  0  0
 90 89  1  0  0  0  0
 91 89  1  0  0  0  0
 92 88  1  0  0  0  0
 93 92  1  0  0  0  0
 94 92  1  0  0  0  0
 95 87  1  0  0  0  0
 96 95  1  0  0  0  0
 97 95  1  0  0  0  0
 98 97  1  0  0  0  0
 99 97  1  0  0  0  0
100 97  1  0  0  0  0
101 95  1  0  0  0  0
102101  1  0  0  0  0
103101  1  0  0  0  0
104101  1  0  0  0  0
105 88  1  0  0  0  0
106105  1  0  0  0  0
107105  1  0  0  0  0
108107  1  0  0  0  0
109107  1  0  0  0  0
110107  1  0  0  0  0
111105  1  0  0  0  0
112111  1  0  0  0  0
113111  1  0  0  0  0
114111  1  0  0  0  0
  2 85  1  0  0  0  0
  3 86  1  0  0  0  0
  4 12  1  0  0  0  0
  4 18  1  0  0  0  0
  6 12  1  0  0  0  0
  8 10  1  0  0  0  0
  8 14  1  0  0  0  0
 10 16  1  0  0  0  0
 10 18  1  0  0  0  0
 12 14  1  0  0  0  0
 12 20  1  0  0  0  0
 14 16  1  0  0  0  0
 14 20  1  0  0  0  0
 16 18  1  0  0  0  0
 16 20  1  0  0  0  0
 18 20  1  0  0  0  0
 27 81  1  0  0  0  0
 37 82  1  0  0  0  0
 50 54  4  0  0  0  0
 52 53  4  0  0  0  0
 53 84  1  0  0  0  0
 81 85  1  0  0  0  0
 82 85  1  0  0  0  0
 89 92  1  0  0  0  0
M  END
$$$$
PUHZAX

From CSD data. Using bond type 'Any'. No disordered atoms. Largest molecule.
 91110  0  0  0  0  0  0  0  0999 V2000
    6.4204    8.4767    0.9997 C   0  0  0  0  0  0  0  0  0  0  0  0
    6.4440    7.6179    2.3101 C   0  0  0  0  0  0  0  0  0  0  0  0
    4.6137   11.0937   -1.2038 C   0  0  0  0  0  0  0  0  0  0  0  0
    3.7841   11.5641   -1.4691 H   0  0  0  0  0  0  0  0  0  0  0  0
    5.0696   10.7782   -2.0245 H   0  0  0  0  0  0  0  0  0  0  0  0
    5.5038   12.0161   -0.4491 C   0  0  0  0  0  0  0  0  0  0  0  0
    6.1912   12.3994   -1.0494 H   0  0  0  0  0  0  0  0  0  0  0  0
    4.9783   12.7570   -0.0565 H   0  0  0  0  0  0  0  0  0  0  0  0
    2.9964    9.2489   -0.4594 C   0  0  0  0  0  0  0  0  0  0  0  0
    2.8974    8.6422    0.3292 H   0  0  0  0  0  0  0  0  0  0  0  0
    1.8260   10.1925   -0.4542 C   0  0  0  0  0  0  0  0  0  0  0  0
    1.9095   10.8118    0.3013 H   0  0  0  0  0  0  0  0  0  0  0  0
    0.9944    9.6822   -0.3677 H   0  0  0  0  0  0  0  0  0  0  0  0
    1.8121   10.7009   -1.2922 H   0  0  0  0  0  0  0  0  0  0  0  0
    2.9978    8.3671   -1.7246 C   0  0  0  0  0  0  0  0  0  0  0  0
    3.0724    8.9357   -2.5189 H   0  0  0  0  0  0  0  0  0  0  0  0
    2.1634    7.8548   -1.7663 H   0  0  0  0  0  0  0  0  0  0  0  0
    3.7585    7.7500   -1.6915 H   0  0  0  0  0  0  0  0  0  0  0  0
    7.1315   11.8642    1.5011 C   0  0  0  0  0  0  0  0  0  0  0  0
    7.4978   11.1541    2.1011 H   0  0  0  0  0  0  0  0  0  0  0  0
    8.2937   12.4208    0.6552 C   0  0  0  0  0  0  0  0  0  0  0  0
    8.6276   11.7186    0.0578 H   0  0  0  0  0  0  0  0  0  0  0  0
    9.0162   12.7166    1.2469 H   0  0  0  0  0  0  0  0  0  0  0  0
    7.9763   13.1790    0.1219 H   0  0  0  0  0  0  0  0  0  0  0  0
    6.4995   12.9297    2.3665 C   0  0  0  0  0  0  0  0  0  0  0  0
    6.2095   13.6785    1.8050 H   0  0  0  0  0  0  0  0  0  0  0  0
    7.1540   13.2483    3.0231 H   0  0  0  0  0  0  0  0  0  0  0  0
    5.7249   12.5532    2.8345 H   0  0  0  0  0  0  0  0  0  0  0  0
    4.7566    6.5488    5.6179 C   0  0  0  0  0  0  0  0  0  0  0  0
    5.3022    5.7250    5.5580 H   0  0  0  0  0  0  0  0  0  0  0  0
    3.9703    6.3690    6.1914 H   0  0  0  0  0  0  0  0  0  0  0  0
    5.5628    7.6709    6.1706 C   0  0  0  0  0  0  0  0  0  0  0  0
    4.9766    8.3283    6.6238 H   0  0  0  0  0  0  0  0  0  0  0  0
    6.2246    7.3333    6.8247 H   0  0  0  0  0  0  0  0  0  0  0  0
    3.0470    6.5576    3.7046 C   0  0  0  0  0  0  0  0  0  0  0  0
    2.9673    6.9608    2.7934 H   0  0  0  0  0  0  0  0  0  0  0  0
    1.8670    7.0365    4.5290 C   0  0  0  0  0  0  0  0  0  0  0  0
    1.8611    6.5732    5.3926 H   0  0  0  0  0  0  0  0  0  0  0  0
    1.0338    6.8460    4.0502 H   0  0  0  0  0  0  0  0  0  0  0  0
    1.9438    8.0028    4.6783 H   0  0  0  0  0  0  0  0  0  0  0  0
    3.0218    5.0415    3.5457 C   0  0  0  0  0  0  0  0  0  0  0  0
    3.7962    4.7560    3.0176 H   0  0  0  0  0  0  0  0  0  0  0  0
    2.1976    4.7748    3.0886 H   0  0  0  0  0  0  0  0  0  0  0  0
    3.0564    4.6203    4.4301 H   0  0  0  0  0  0  0  0  0  0  0  0
    7.2650    9.3390    5.2047 C   0  0  0  0  0  0  0  0  0  0  0  0
    7.6372    9.5472    4.3000 H   0  0  0  0  0  0  0  0  0  0  0  0
    8.4179    8.8071    6.0588 C   0  0  0  0  0  0  0  0  0  0  0  0
    8.1654    8.8405    7.0053 H   0  0  0  0  0  0  0  0  0  0  0  0
    9.2139    9.3599    5.9136 H   0  0  0  0  0  0  0  0  0  0  0  0
    8.6123    7.8809    5.8051 H   0  0  0  0  0  0  0  0  0  0  0  0
    6.7062   10.6219    5.7635 C   0  0  0  0  0  0  0  0  0  0  0  0
    5.9747   10.9358    5.1914 H   0  0  0  0  0  0  0  0  0  0  0  0
    7.4123   11.3002    5.7926 H   0  0  0  0  0  0  0  0  0  0  0  0
    6.3673   10.4630    6.6691 H   0  0  0  0  0  0  0  0  0  0  0  0
    2.3118   11.9596    3.3888 C   0  0  0  0  0  0  0  0  0  0  0  0
    1.4370   13.0269    3.2401 C   0  0  0  0  0  0  0  0  0  0  0  0
    1.4191   13.5195    2.4284 H   0  0  0  0  0  0  0  0  0  0  0  0
    0.5824   13.3733    4.2921 C   0  0  0  0  0  0  0  0  0  0  0  0
   -0.0249   14.0967    4.1884 H   0  0  0  0  0  0  0  0  0  0  0  0
    0.6187   12.6735    5.4744 C   0  0  0  0  0  0  0  0  0  0  0  0
    0.0467   12.9250    6.1904 H   0  0  0  0  0  0  0  0  0  0  0  0
    1.4853   11.6009    5.6292 C   0  0  0  0  0  0  0  0  0  0  0  0
    1.4976   11.1145    6.4453 H   0  0  0  0  0  0  0  0  0  0  0  0
    2.3430   11.2351    4.5844 C   0  0  0  0  0  0  0  0  0  0  0  0
    4.1958    9.9425    2.9446 Au  0  0  0  0  0  0  0  0  0  0  0  0
    6.6059    7.4960   -0.4101 B   0  0  0  0  0  0  0  0  0  0  0  0
    6.1485    7.6652   -1.4182 H   0  0  0  0  0  0  0  0  0  0  0  0
    5.6119    6.9446    0.9618 B   0  0  0  0  0  0  0  0  0  0  0  0
    4.5066    6.7824    0.8848 H   0  0  0  0  0  0  0  0  0  0  0  0
    6.8212    5.8667    0.2266 B   0  0  0  0  0  0  0  0  0  0  0  0
    6.5342    4.9565   -0.3594 H   0  0  0  0  0  0  0  0  0  0  0  0
    8.2288    6.9093   -0.2297 B   0  0  0  0  0  0  0  0  0  0  0  0
    8.8576    6.6976   -1.1320 H   0  0  0  0  0  0  0  0  0  0  0  0
    7.8604    8.5615    0.2553 B   0  0  0  0  0  0  0  0  0  0  0  0
    8.2286    9.6053    0.0867 H   0  0  0  0  0  0  0  0  0  0  0  0
    9.0247    7.5154    1.2540 B   0  0  0  0  0  0  0  0  0  0  0  0
   10.0108    7.9705    1.5290 H   0  0  0  0  0  0  0  0  0  0  0  0
    8.2693    5.9056    1.3053 B   0  0  0  0  0  0  0  0  0  0  0  0
    8.9285    5.0108    1.4415 H   0  0  0  0  0  0  0  0  0  0  0  0
    7.9292    6.9941    2.6495 B   0  0  0  0  0  0  0  0  0  0  0  0
    8.3293    7.2623    3.6607 H   0  0  0  0  0  0  0  0  0  0  0  0
    6.6521    5.9233    1.9810 B   0  0  0  0  0  0  0  0  0  0  0  0
    6.2313    5.0572    2.5533 H   0  0  0  0  0  0  0  0  0  0  0  0
    4.2866    9.9381   -0.3271 N   0  0  0  0  0  0  0  0  0  0  0  0
    6.1287   11.2333    0.5957 N   0  0  0  0  0  0  0  0  0  0  0  0
    4.3308    6.9870    4.2768 N   0  0  0  0  0  0  0  0  0  0  0  0
    6.2407    8.2911    5.0253 N   0  0  0  0  0  0  0  0  0  0  0  0
    3.1434   11.6009    2.3768 O   0  0  0  0  0  0  0  0  0  0  0  0
    3.1939   10.1695    4.7043 O   0  0  0  0  0  0  0  0  0  0  0  0
    5.2893    9.8686    0.9531 P   0  0  0  0  0  0  0  0  0  0  0  0
    5.3395    8.1166    3.6617 P   0  0  0  0  0  0  0  0  0  0  0  0
  1  2  1  0  0  0  0
  2 68  1  0  0  0  0
  3  4  1  0  0  0  0
  5  3  1  0  0  0  0
  6  3  1  0  0  0  0
  7  6  1  0  0  0  0
  8  6  1  0  0  0  0
  9 10  1  0  0  0  0
 11  9  1  0  0  0  0
 12 11  1  0  0  0  0
 13 11  1  0  0  0  0
 14 11  1  0  0  0  0
 15  9  1  0  0  0  0
 16 15  1  0  0  0  0
 17 15  1  0  0  0  0
 18 15  1  0  0  0  0
 19 20  1  0  0  0  0
 21 19  1  0  0  0  0
 22 21  1  0  0  0  0
 23 21  1  0  0  0  0
 24 21  1  0  0  0  0
 25 19  1  0  0  0  0
 26 25  1  0  0  0  0
 27 25  1  0  0  0  0
 28 25  1  0  0  0  0
 29 30  1  0  0  0  0
 31 29  1  0  0  0  0
 32 29  1  0  0  0  0
 33 32  1  0  0  0  0
 34 32  1  0  0  0  0
 35 36  1  0  0  0  0
 37 35  1  0  0  0  0
 38 37  1  0  0  0  0
 39 37  1  0  0  0  0
 40 37  1  0  0  0  0
 41 35  1  0  0  0  0
 42 41  1  0  0  0  0
 43 41  1  0  0  0  0
 44 41  1  0  0  0  0
 45 46  1  0  0  0  0
 47 45  1  0  0  0  0
 48 47  1  0  0  0  0
 49 47  1  0  0  0  0
 50 47  1  0  0  0  0
 51 45  1  0  0  0  0
 52 51  1  0  0  0  0
 53 51  1  0  0  0  0
 54 51  1  0  0  0  0
 55 56  4  0  0  0  0
 56 57  1  0  0  0  0
 58 56  4  0  0  0  0
 59 58  1  0  0  0  0
 60 58  4  0  0  0  0
 61 60  1  0  0  0  0
 62 60  4  0  0  0  0
 63 62  1  0  0  0  0
 64 55  4  0  0  0  0
 65 88  1  0  0  0  0
 66  1  1  0  0  0  0
 67 66  1  0  0  0  0
 68  1  1  0  0  0  0
 69 68  1  0  0  0  0
 70 66  1  0  0  0  0
 71 70  1  0  0  0  0
 72 66  1  0  0  0  0
 73 72  1  0  0  0  0
 74  1  1  0  0  0  0
 75 74  1  0  0  0  0
 76 72  1  0  0  0  0
 77 76  1  0  0  0  0
 78 70  1  0  0  0  0
 79 78  1  0  0  0  0
 80  2  1  0  0  0  0
 81 80  1  0  0  0  0
 82  2  1  0  0  0  0
 83 82  1  0  0  0  0
 84  3  1  0  0  0  0
 85  6  1  0  0  0  0
 86 29  1  0  0  0  0
 87 32  1  0  0  0  0
 88 55  1  0  0  0  0
 89 64  1  0  0  0  0
 90  1  1  0  0  0  0
 91  2  1  0  0  0  0
  9 84  1  0  0  0  0
 19 85  1  0  0  0  0
 35 86  1  0  0  0  0
 45 87  1  0  0  0  0
 62 64  4  0  0  0  0
 65 89  1  0  0  0  0
 65 90  1  0  0  0  0
 65 91  1  0  0  0  0
 66 68  1  0  0  0  0
 66 74  1  0  0  0  0
 68 70  1  0  0  0  0
 68 82  1  0  0  0  0
 70 72  1  0  0  0  0
 70 82  1  0  0  0  0
 72 74  1  0  0  0  0
 72 78  1  0  0  0  0
 74 76  1  0  0  0  0
 76 78  1  0  0  0  0
 76 80  1  0  0  0  0
 78 80  1  0  0  0  0
 78 82  1  0  0  0  0
 80 82  1  0  0  0  0
 84 90  1  0  0  0  0
 85 90  1  0  0  0  0
 86 91  1  0  0  0  0
 87 91  1  0  0  0  0
M  END
$$$$
QUKMES

From CSD data. Using bond type 'Any'. No disordered atoms. Largest molecule.
150162  0  0  0  0  0  0  0  0999 V2000
    8.3232    3.8283    8.2806 P   0  3  0  0  0  0  0  0  0  0  0  0
    4.8989    2.4526    3.8246 B   0  5  0  0  0  0  0  0  0  0  0  0
    9.6793    3.4738    7.7340 O   0  0  0  0  0  0  0  0  0  0  0  0
    5.4269    2.7276    5.1246 O   0  0  0  0  0  0  0  0  0  0  0  0
    7.0140    3.4954    7.1534 C   0  0  0  0  0  0  0  0  0  0  0  0
    7.1380    2.7549    6.5877 H   0  0  0  0  0  0  0  0  0  0  0  0
    5.8665    4.1615    6.9991 C   0  0  0  0  0  0  0  0  0  0  0  0
    4.8723    3.7484    5.9250 C   0  0  0  0  0  0  0  0  0  0  0  0
    4.6775    4.5323    5.3524 H   0  0  0  0  0  0  0  0  0  0  0  0
    8.0985    2.9305    9.8385 C   0  0  0  0  0  0  0  0  0  0  0  0
   10.1837    3.7441   10.5652 F   0  0  0  0  0  0  0  0  0  0  0  0
    9.1175    2.9706   10.7832 C   0  0  0  0  0  0  0  0  0  0  0  0
   10.0954    2.2554   12.8000 F   0  0  0  0  0  0  0  0  0  0  0  0
    9.0659    2.2585   11.9484 C   0  0  0  0  0  0  0  0  0  0  0  0
    7.8580    0.8947   13.4064 F   0  0  0  0  0  0  0  0  0  0  0  0
    7.9442    1.5379   12.2524 C   0  0  0  0  0  0  0  0  0  0  0  0
    5.8106    0.7805   11.6467 F   0  0  0  0  0  0  0  0  0  0  0  0
    6.9039    1.4929   11.3675 C   0  0  0  0  0  0  0  0  0  0  0  0
    5.9754    1.9949    9.3132 F   0  0  0  0  0  0  0  0  0  0  0  0
    6.9956    2.1582   10.1621 C   0  0  0  0  0  0  0  0  0  0  0  0
    8.3497    5.5981    8.6390 C   0  0  0  0  0  0  0  0  0  0  0  0
    7.6887    5.4757   10.9162 F   0  0  0  0  0  0  0  0  0  0  0  0
    8.0323    6.1994    9.8473 C   0  0  0  0  0  0  0  0  0  0  0  0
    7.6713    8.1177   11.1661 F   0  0  0  0  0  0  0  0  0  0  0  0
    8.0153    7.5671    9.9940 C   0  0  0  0  0  0  0  0  0  0  0  0
    8.2884    9.6995    9.0720 F   0  0  0  0  0  0  0  0  0  0  0  0
    8.3147    8.3725    8.9399 C   0  0  0  0  0  0  0  0  0  0  0  0
    8.9317    8.5936    6.6757 F   0  0  0  0  0  0  0  0  0  0  0  0
    8.6418    7.8245    7.7237 C   0  0  0  0  0  0  0  0  0  0  0  0
    8.9145    5.9393    6.3845 F   0  0  0  0  0  0  0  0  0  0  0  0
    8.6554    6.4499    7.5912 C   0  0  0  0  0  0  0  0  0  0  0  0
    5.4053    5.2951    7.8476 C   0  0  0  0  0  0  0  0  0  0  0  0
    4.9411    5.0748    9.1347 C   0  0  0  0  0  0  0  0  0  0  0  0
    4.9486    4.2036    9.4897 H   0  0  0  0  0  0  0  0  0  0  0  0
    4.4656    6.1285    9.9051 C   0  0  0  0  0  0  0  0  0  0  0  0
    4.1557    5.9716   10.7789 H   0  0  0  0  0  0  0  0  0  0  0  0
    4.4480    7.3938    9.3865 C   0  0  0  0  0  0  0  0  0  0  0  0
    4.1343    8.1069    9.9113 H   0  0  0  0  0  0  0  0  0  0  0  0
    4.8808    7.6308    8.1139 C   0  0  0  0  0  0  0  0  0  0  0  0
    4.8626    8.5033    7.7645 H   0  0  0  0  0  0  0  0  0  0  0  0
    5.3466    6.5812    7.3362 C   0  0  0  0  0  0  0  0  0  0  0  0
    5.6257    6.7440    6.4536 H   0  0  0  0  0  0  0  0  0  0  0  0
    3.5864    3.3126    6.6144 C   0  0  0  0  0  0  0  0  0  0  0  0
    3.4744    2.0293    7.0973 C   0  0  0  0  0  0  0  0  0  0  0  0
    4.1966    1.4331    7.0158 H   0  0  0  0  0  0  0  0  0  0  0  0
    2.3031    1.6159    7.7014 C   0  0  0  0  0  0  0  0  0  0  0  0
    2.2301    0.7345    8.0223 H   0  0  0  0  0  0  0  0  0  0  0  0
    1.2479    2.4796    7.8360 C   0  0  0  0  0  0  0  0  0  0  0  0
    0.4516    2.1922    8.2437 H   0  0  0  0  0  0  0  0  0  0  0  0
    1.3571    3.7625    7.3759 C   0  0  0  0  0  0  0  0  0  0  0  0
    0.6379    4.3589    7.4794 H   0  0  0  0  0  0  0  0  0  0  0  0
    2.5230    4.1889    6.7568 C   0  0  0  0  0  0  0  0  0  0  0  0
    2.5912    5.0696    6.4352 H   0  0  0  0  0  0  0  0  0  0  0  0
    3.2878    2.7385    3.6743 C   0  0  0  0  0  0  0  0  0  0  0  0
    2.7812    0.5208    4.3658 F   0  0  0  0  0  0  0  0  0  0  0  0
    2.3671    1.7432    3.9929 C   0  0  0  0  0  0  0  0  0  0  0  0
    0.1778    0.9392    4.3144 F   0  0  0  0  0  0  0  0  0  0  0  0
    1.0073    1.9430    4.0058 C   0  0  0  0  0  0  0  0  0  0  0  0
   -0.8181    3.3868    3.6752 F   0  0  0  0  0  0  0  0  0  0  0  0
    0.5062    3.1534    3.6756 C   0  0  0  0  0  0  0  0  0  0  0  0
    0.8831    5.3950    3.0450 F   0  0  0  0  0  0  0  0  0  0  0  0
    1.3584    4.1797    3.3562 C   0  0  0  0  0  0  0  0  0  0  0  0
    3.4869    5.0162    3.0654 F   0  0  0  0  0  0  0  0  0  0  0  0
    2.7149    3.9452    3.3534 C   0  0  0  0  0  0  0  0  0  0  0  0
    5.2999    0.9544    3.3159 C   0  0  0  0  0  0  0  0  0  0  0  0
    4.3439    1.4133    1.1976 F   0  0  0  0  0  0  0  0  0  0  0  0
    4.9594    0.5447    2.0343 C   0  0  0  0  0  0  0  0  0  0  0  0
    4.8663   -1.0042    0.2632 F   0  0  0  0  0  0  0  0  0  0  0  0
    5.1801   -0.7149    1.5389 C   0  0  0  0  0  0  0  0  0  0  0  0
    5.7252   -1.6590    2.3429 C   0  0  0  0  0  0  0  0  0  0  0  0
    5.9675   -2.8907    1.8672 F   0  0  0  0  0  0  0  0  0  0  0  0
    6.5450   -2.2779    4.4324 F   0  0  0  0  0  0  0  0  0  0  0  0
    6.0449   -1.3319    3.6261 C   0  0  0  0  0  0  0  0  0  0  0  0
    6.1920    0.1796    5.3656 F   0  0  0  0  0  0  0  0  0  0  0  0
    5.8504   -0.0503    4.0871 C   0  0  0  0  0  0  0  0  0  0  0  0
    6.9473    3.8283    2.2542 P   0  3  0  0  0  0  0  0  0  0  0  0
   10.3716    2.4526    6.7103 B   0  5  0  0  0  0  0  0  0  0  0  0
    5.5912    3.4738    2.8008 O   0  0  0  0  0  0  0  0  0  0  0  0
    9.8436    2.7276    5.4103 O   0  0  0  0  0  0  0  0  0  0  0  0
    8.2565    3.4954    3.3815 C   0  0  0  0  0  0  0  0  0  0  0  0
    8.1325    2.7549    3.9472 H   0  0  0  0  0  0  0  0  0  0  0  0
    9.4040    4.1615    3.5357 C   0  0  0  0  0  0  0  0  0  0  0  0
   10.3982    3.7484    4.6098 C   0  0  0  0  0  0  0  0  0  0  0  0
   10.5930    4.5323    5.1824 H   0  0  0  0  0  0  0  0  0  0  0  0
    7.1720    2.9305    0.6964 C   0  0  0  0  0  0  0  0  0  0  0  0
    5.0868    3.7441   -0.0303 F   0  0  0  0  0  0  0  0  0  0  0  0
    6.1530    2.9706   -0.2484 C   0  0  0  0  0  0  0  0  0  0  0  0
    5.1751    2.2554   -2.2652 F   0  0  0  0  0  0  0  0  0  0  0  0
    6.2046    2.2585   -1.4136 C   0  0  0  0  0  0  0  0  0  0  0  0
    7.4125    0.8947   -2.8716 F   0  0  0  0  0  0  0  0  0  0  0  0
    7.3263    1.5379   -1.7176 C   0  0  0  0  0  0  0  0  0  0  0  0
    9.4599    0.7805   -1.1118 F   0  0  0  0  0  0  0  0  0  0  0  0
    8.3666    1.4929   -0.8327 C   0  0  0  0  0  0  0  0  0  0  0  0
    9.2951    1.9949    1.2216 F   0  0  0  0  0  0  0  0  0  0  0  0
    8.2749    2.1582    0.3727 C   0  0  0  0  0  0  0  0  0  0  0  0
    6.9208    5.5981    1.8958 C   0  0  0  0  0  0  0  0  0  0  0  0
    7.5818    5.4757   -0.3814 F   0  0  0  0  0  0  0  0  0  0  0  0
    7.2382    6.1994    0.6875 C   0  0  0  0  0  0  0  0  0  0  0  0
    7.5992    8.1177   -0.6312 F   0  0  0  0  0  0  0  0  0  0  0  0
    7.2552    7.5671    0.5409 C   0  0  0  0  0  0  0  0  0  0  0  0
    6.9821    9.6995    1.4629 F   0  0  0  0  0  0  0  0  0  0  0  0
    6.9558    8.3725    1.5950 C   0  0  0  0  0  0  0  0  0  0  0  0
    6.3388    8.5936    3.8591 F   0  0  0  0  0  0  0  0  0  0  0  0
    6.6287    7.8245    2.8111 C   0  0  0  0  0  0  0  0  0  0  0  0
    6.3560    5.9393    4.1503 F   0  0  0  0  0  0  0  0  0  0  0  0
    6.6151    6.4499    2.9436 C   0  0  0  0  0  0  0  0  0  0  0  0
    9.8652    5.2951    2.6872 C   0  0  0  0  0  0  0  0  0  0  0  0
   10.3294    5.0748    1.4001 C   0  0  0  0  0  0  0  0  0  0  0  0
   10.3219    4.2036    1.0451 H   0  0  0  0  0  0  0  0  0  0  0  0
   10.8049    6.1285    0.6298 C   0  0  0  0  0  0  0  0  0  0  0  0
   11.1148    5.9716   -0.2441 H   0  0  0  0  0  0  0  0  0  0  0  0
   10.8225    7.3938    1.1483 C   0  0  0  0  0  0  0  0  0  0  0  0
   11.1362    8.1069    0.6236 H   0  0  0  0  0  0  0  0  0  0  0  0
   10.3897    7.6308    2.4209 C   0  0  0  0  0  0  0  0  0  0  0  0
   10.4080    8.5033    2.7704 H   0  0  0  0  0  0  0  0  0  0  0  0
    9.9239    6.5812    3.1986 C   0  0  0  0  0  0  0  0  0  0  0  0
    9.6448    6.7440    4.0813 H   0  0  0  0  0  0  0  0  0  0  0  0
   11.6841    3.3126    3.9204 C   0  0  0  0  0  0  0  0  0  0  0  0
   11.7961    2.0293    3.4375 C   0  0  0  0  0  0  0  0  0  0  0  0
   11.0739    1.4331    3.5191 H   0  0  0  0  0  0  0  0  0  0  0  0
   12.9674    1.6159    2.8334 C   0  0  0  0  0  0  0  0  0  0  0  0
   13.0404    0.7345    2.5126 H   0  0  0  0  0  0  0  0  0  0  0  0
   14.0226    2.4796    2.6988 C   0  0  0  0  0  0  0  0  0  0  0  0
   14.8189    2.1922    2.2911 H   0  0  0  0  0  0  0  0  0  0  0  0
   13.9134    3.7625    3.1590 C   0  0  0  0  0  0  0  0  0  0  0  0
   14.6326    4.3589    3.0554 H   0  0  0  0  0  0  0  0  0  0  0  0
   12.7475    4.1889    3.7780 C   0  0  0  0  0  0  0  0  0  0  0  0
   12.6793    5.0696    4.0997 H   0  0  0  0  0  0  0  0  0  0  0  0
   11.9827    2.7385    6.8605 C   0  0  0  0  0  0  0  0  0  0  0  0
   12.4893    0.5208    6.1690 F   0  0  0  0  0  0  0  0  0  0  0  0
   12.9034    1.7432    6.5419 C   0  0  0  0  0  0  0  0  0  0  0  0
   15.0927    0.9392    6.2204 F   0  0  0  0  0  0  0  0  0  0  0  0
   14.2632    1.9430    6.5291 C   0  0  0  0  0  0  0  0  0  0  0  0
   16.0886    3.3868    6.8596 F   0  0  0  0  0  0  0  0  0  0  0  0
   14.7643    3.1534    6.8592 C   0  0  0  0  0  0  0  0  0  0  0  0
   14.3874    5.3950    7.4898 F   0  0  0  0  0  0  0  0  0  0  0  0
   13.9121    4.1797    7.1786 C   0  0  0  0  0  0  0  0  0  0  0  0
   11.7836    5.0162    7.4694 F   0  0  0  0  0  0  0  0  0  0  0  0
   12.5556    3.9452    7.1814 C   0  0  0  0  0  0  0  0  0  0  0  0
    9.9706    0.9544    7.2189 C   0  0  0  0  0  0  0  0  0  0  0  0
   10.9266    1.4133    9.3372 F   0  0  0  0  0  0  0  0  0  0  0  0
   10.3111    0.5447    8.5006 C   0  0  0  0  0  0  0  0  0  0  0  0
   10.4042   -1.0042   10.2717 F   0  0  0  0  0  0  0  0  0  0  0  0
   10.0904   -0.7149    8.9959 C   0  0  0  0  0  0  0  0  0  0  0  0
    9.5453   -1.6590    8.1919 C   0  0  0  0  0  0  0  0  0  0  0  0
    9.3030   -2.8907    8.6676 F   0  0  0  0  0  0  0  0  0  0  0  0
    8.7255   -2.2779    6.1024 F   0  0  0  0  0  0  0  0  0  0  0  0
    9.2256   -1.3319    6.9087 C   0  0  0  0  0  0  0  0  0  0  0  0
    9.0785    0.1796    5.1692 F   0  0  0  0  0  0  0  0  0  0  0  0
    9.4201   -0.0503    6.4477 C   0  0  0  0  0  0  0  0  0  0  0  0
  1  3  1  0  0  0  0
  2  4  1  0  0  0  0
  3 77  1  0  0  0  0
  4  8  1  0  0  0  0
  5  1  1  0  0  0  0
  6  5  1  0  0  0  0
  7  5  2  0  0  0  0
  8  7  1  0  0  0  0
  9  8  1  0  0  0  0
 10  1  1  0  0  0  0
 11 12  1  0  0  0  0
 12 10  4  0  0  0  0
 13 14  1  0  0  0  0
 14 12  4  0  0  0  0
 15 16  1  0  0  0  0
 16 14  4  0  0  0  0
 17 18  1  0  0  0  0
 18 16  4  0  0  0  0
 19 20  1  0  0  0  0
 20 10  4  0  0  0  0
 21  1  1  0  0  0  0
 22 23  1  0  0  0  0
 23 21  4  0  0  0  0
 24 25  1  0  0  0  0
 25 23  4  0  0  0  0
 26 27  1  0  0  0  0
 27 25  4  0  0  0  0
 28 29  1  0  0  0  0
 29 27  4  0  0  0  0
 30 31  1  0  0  0  0
 31 21  4  0  0  0  0
 32  7  1  0  0  0  0
 33 32  4  0  0  0  0
 34 33  1  0  0  0  0
 35 33  4  0  0  0  0
 36 35  1  0  0  0  0
 37 35  4  0  0  0  0
 38 37  1  0  0  0  0
 39 37  4  0  0  0  0
 40 39  1  0  0  0  0
 41 32  4  0  0  0  0
 42 41  1  0  0  0  0
 43  8  1  0  0  0  0
 44 43  4  0  0  0  0
 45 44  1  0  0  0  0
 46 44  4  0  0  0  0
 47 46  1  0  0  0  0
 48 46  4  0  0  0  0
 49 48  1  0  0  0  0
 50 48  4  0  0  0  0
 51 50  1  0  0  0  0
 52 43  4  0  0  0  0
 53 52  1  0  0  0  0
 54  2  1  0  0  0  0
 55 56  1  0  0  0  0
 56 54  4  0  0  0  0
 57 58  1  0  0  0  0
 58 56  4  0  0  0  0
 59 60  1  0  0  0  0
 60 58  4  0  0  0  0
 61 62  1  0  0  0  0
 62 60  4  0  0  0  0
 63 64  1  0  0  0  0
 64 54  4  0  0  0  0
 65  2  1  0  0  0  0
 66 67  1  0  0  0  0
 67 65  4  0  0  0  0
 68 69  1  0  0  0  0
 69 67  4  0  0  0  0
 70 69  4  0  0  0  0
 71 70  1  0  0  0  0
 72 73  1  0  0  0  0
 73 70  4  0  0  0  0
 74 75  1  0  0  0  0
 75 65  4  0  0  0  0
 76 78  1  0  0  0  0
 77 79  1  0  0  0  0
 78  2  1  0  0  0  0
 79 83  1  0  0  0  0
 80 76  1  0  0  0  0
 81 80  1  0  0  0  0
 82 80  2  0  0  0  0
 83 82  1  0  0  0  0
 84 83  1  0  0  0  0
 85 76  1  0  0  0  0
 86 87  1  0  0  0  0
 87 85  4  0  0  0  0
 88 89  1  0  0  0  0
 89 87  4  0  0  0  0
 90 91  1  0  0  0  0
 91 89  4  0  0  0  0
 92 93  1  0  0  0  0
 93 91  4  0  0  0  0
 94 95  1  0  0  0  0
 95 85  4  0  0  0  0
 96 76  1  0  0  0  0
 97 98  1  0  0  0  0
 98 96  4  0  0  0  0
 99100  1  0  0  0  0
100 98  4  0  0  0  0
101102  1  0  0  0  0
102100  4  0  0  0  0
103104  1  0  0  0  0
104102  4  0  0  0  0
105106  1  0  0  0  0
106 96  4  0  0  0  0
107 82  1  0  0  0  0
108107  4  0  0  0  0
109108  1  0  0  0  0
110108  4  0  0  0  0
111110  1  0  0  0  0
112110  4  0  0  0  0
113112  1  0  0  0  0
114112  4  0  0  0  0
115114  1  0  0  0  0
116107  4  0  0  0  0
117116  1  0  0  0  0
118 83  1  0  0  0  0
119118  4  0  0  0  0
120119  1  0  0  0  0
121119  4  0  0  0  0
122121  1  0  0  0  0
123121  4  0  0  0  0
124123  1  0  0  0  0
125123  4  0  0  0  0
126125  1  0  0  0  0
127118  4  0  0  0  0
128127  1  0  0  0  0
129 77  1  0  0  0  0
130131  1  0  0  0  0
131129  4  0  0  0  0
132133  1  0  0  0  0
133131  4  0  0  0  0
134135  1  0  0  0  0
135133  4  0  0  0  0
136137  1  0  0  0  0
137135  4  0  0  0  0
138139  1  0  0  0  0
139129  4  0  0  0  0
140 77  1  0  0  0  0
141142  1  0  0  0  0
142140  4  0  0  0  0
143144  1  0  0  0  0
144142  4  0  0  0  0
145144  4  0  0  0  0
146145  1  0  0  0  0
147148  1  0  0  0  0
148145  4  0  0  0  0
149150  1  0  0  0  0
150140  4  0  0  0  0
 18 20  4  0  0  0  0
 29 31  4  0  0  0  0
 39 41  4  0  0  0  0
 50 52  4  0  0  0  0
 62 64  4  0  0  0  0
 73 75  4  0  0  0  0
 93 95  4  0  0  0  0
104106  4  0  0  0  0
114116  4  0  0  0  0
125127  4  0  0  0  0
137139  4  0  0  0  0
148150  4  0  0  0  0
M  CHG  4   1   1   2  -1  76   1  77  -1
M  END
$$$$
UGOCEC

From CSD data. Using bond type 'Any'. Matching problem. No disordered atoms. Largest molecule.
128138  0  0  0  0  0  0  0  0999 V2000
    0.1304    2.7391    0.1479 P   0  3  0  0  0  0  0  0  0  0  0  0
   -2.7271    0.3069    1.3544 B   0  5  0  0  0  0  0  0  0  0  0  0
   -2.1008    1.4536    0.6220 O   0  0  0  0  0  0  0  0  0  0  0  0
    1.0542    1.2633   -0.1799 C   0  0  0  0  0  0  0  0  0  0  0  0
    1.0624    0.6108    0.4967 H   0  0  0  0  0  0  0  0  0  0  0  0
    1.7344    0.9866   -1.2821 C   0  0  0  0  0  0  0  0  0  0  0  0
    1.6441    1.5435   -2.0338 H   0  0  0  0  0  0  0  0  0  0  0  0
   -1.1923    2.2279    1.3490 C   0  0  0  0  0  0  0  0  0  0  0  0
   -0.7717    1.6400    2.0255 H   0  0  0  0  0  0  0  0  0  0  0  0
   -0.5245    3.4174   -1.3860 C   0  0  0  0  0  0  0  0  0  0  0  0
   -0.2574    4.7274   -1.7778 C   0  0  0  0  0  0  0  0  0  0  0  0
    0.2479    5.2927   -1.2223 H   0  0  0  0  0  0  0  0  0  0  0  0
   -0.7406    5.1935   -2.9922 C   0  0  0  0  0  0  0  0  0  0  0  0
   -0.5722    6.0806   -3.2536 H   0  0  0  0  0  0  0  0  0  0  0  0
   -1.4618    4.3660   -3.8116 C   0  0  0  0  0  0  0  0  0  0  0  0
   -1.7814    4.6864   -4.6354 H   0  0  0  0  0  0  0  0  0  0  0  0
   -1.7214    3.0675   -3.4345 C   0  0  0  0  0  0  0  0  0  0  0  0
   -2.2139    2.5043   -4.0035 H   0  0  0  0  0  0  0  0  0  0  0  0
   -1.2600    2.5888   -2.2219 C   0  0  0  0  0  0  0  0  0  0  0  0
   -1.4443    1.7037   -1.9643 H   0  0  0  0  0  0  0  0  0  0  0  0
    1.2090    3.9598    0.9102 C   0  0  0  0  0  0  0  0  0  0  0  0
    2.5602    3.6869    1.0460 C   0  0  0  0  0  0  0  0  0  0  0  0
    2.9038    2.8546    0.7761 H   0  0  0  0  0  0  0  0  0  0  0  0
    3.4040    4.6496    1.5826 C   0  0  0  0  0  0  0  0  0  0  0  0
    4.3212    4.4663    1.6769 H   0  0  0  0  0  0  0  0  0  0  0  0
    2.9091    5.8655    1.9758 C   0  0  0  0  0  0  0  0  0  0  0  0
    3.4882    6.5132    2.3348 H   0  0  0  0  0  0  0  0  0  0  0  0
    1.5720    6.1409    1.8477 C   0  0  0  0  0  0  0  0  0  0  0  0
    1.2393    6.9785    2.1147 H   0  0  0  0  0  0  0  0  0  0  0  0
    0.7144    5.1963    1.3294 C   0  0  0  0  0  0  0  0  0  0  0  0
   -0.2040    5.3840    1.2579 H   0  0  0  0  0  0  0  0  0  0  0  0
   -4.0810   -0.1652    0.5425 C   0  0  0  0  0  0  0  0  0  0  0  0
   -4.1705    1.6053   -1.0343 F   0  0  0  0  0  0  0  0  0  0  0  0
   -4.6771    0.4699   -0.5237 C   0  0  0  0  0  0  0  0  0  0  0  0
   -6.3746    0.7085   -2.1442 F   0  0  0  0  0  0  0  0  0  0  0  0
   -5.8392    0.0249   -1.1178 C   0  0  0  0  0  0  0  0  0  0  0  0
   -7.5462   -1.5821   -1.2909 F   0  0  0  0  0  0  0  0  0  0  0  0
   -6.4366   -1.1168   -0.6836 C   0  0  0  0  0  0  0  0  0  0  0  0
   -6.4630   -2.9198    0.8194 F   0  0  0  0  0  0  0  0  0  0  0  0
   -5.8862   -1.7950    0.3659 C   0  0  0  0  0  0  0  0  0  0  0  0
   -4.2557   -2.0038    2.0052 F   0  0  0  0  0  0  0  0  0  0  0  0
   -4.7439   -1.3058    0.9608 C   0  0  0  0  0  0  0  0  0  0  0  0
   -3.1743    0.7556    2.8831 C   0  0  0  0  0  0  0  0  0  0  0  0
   -5.0508    1.9464    2.0510 F   0  0  0  0  0  0  0  0  0  0  0  0
   -4.3085    1.5345    3.0959 C   0  0  0  0  0  0  0  0  0  0  0  0
   -5.8393    2.7211    4.4584 F   0  0  0  0  0  0  0  0  0  0  0  0
   -4.7309    1.9634    4.3326 C   0  0  0  0  0  0  0  0  0  0  0  0
   -4.4187    2.0183    6.6570 F   0  0  0  0  0  0  0  0  0  0  0  0
   -4.0116    1.6286    5.4397 C   0  0  0  0  0  0  0  0  0  0  0  0
   -2.1235    0.5796    6.3794 F   0  0  0  0  0  0  0  0  0  0  0  0
   -2.8746    0.8902    5.3030 C   0  0  0  0  0  0  0  0  0  0  0  0
   -1.3172   -0.2205    3.9724 F   0  0  0  0  0  0  0  0  0  0  0  0
   -2.4773    0.4720    4.0392 C   0  0  0  0  0  0  0  0  0  0  0  0
   -1.8207    3.3866    2.0797 C   0  0  0  0  0  0  0  0  0  0  0  0
   -2.8391    4.1143    1.4966 C   0  0  0  0  0  0  0  0  0  0  0  0
   -3.1494    3.8893    0.6384 H   0  0  0  0  0  0  0  0  0  0  0  0
   -3.4023    5.1805    2.1857 C   0  0  0  0  0  0  0  0  0  0  0  0
   -4.0953    5.6791    1.7921 H   0  0  0  0  0  0  0  0  0  0  0  0
   -2.9497    5.5096    3.4428 C   0  0  0  0  0  0  0  0  0  0  0  0
   -3.3312    6.2357    3.9019 H   0  0  0  0  0  0  0  0  0  0  0  0
   -1.9476    4.7873    4.0276 C   0  0  0  0  0  0  0  0  0  0  0  0
   -1.6459    5.0127    4.8887 H   0  0  0  0  0  0  0  0  0  0  0  0
   -1.3815    3.7278    3.3525 C   0  0  0  0  0  0  0  0  0  0  0  0
   -0.6925    3.2323    3.7565 H   0  0  0  0  0  0  0  0  0  0  0  0
   -0.1304   -2.7391   -0.1479 P   0  3  0  0  0  0  0  0  0  0  0  0
    2.7271   -0.3069   -1.3544 B   0  5  0  0  0  0  0  0  0  0  0  0
    2.1008   -1.4536   -0.6220 O   0  0  0  0  0  0  0  0  0  0  0  0
   -1.0542   -1.2633    0.1799 C   0  0  0  0  0  0  0  0  0  0  0  0
   -1.0624   -0.6108   -0.4967 H   0  0  0  0  0  0  0  0  0  0  0  0
   -1.7344   -0.9866    1.2821 C   0  0  0  0  0  0  0  0  0  0  0  0
   -1.6441   -1.5435    2.0338 H   0  0  0  0  0  0  0  0  0  0  0  0
    1.1923   -2.2279   -1.3490 C   0  0  0  0  0  0  0  0  0  0  0  0
    0.7717   -1.6400   -2.0255 H   0  0  0  0  0  0  0  0  0  0  0  0
    0.5245   -3.4174    1.3860 C   0  0  0  0  0  0  0  0  0  0  0  0
    0.2574   -4.7274    1.7778 C   0  0  0  0  0  0  0  0  0  0  0  0
   -0.2479   -5.2927    1.2223 H   0  0  0  0  0  0  0  0  0  0  0  0
    0.7406   -5.1935    2.9922 C   0  0  0  0  0  0  0  0  0  0  0  0
    0.5722   -6.0806    3.2536 H   0  0  0  0  0  0  0  0  0  0  0  0
    1.4618   -4.3660    3.8116 C   0  0  0  0  0  0  0  0  0  0  0  0
    1.7814   -4.6864    4.6354 H   0  0  0  0  0  0  0  0  0  0  0  0
    1.7214   -3.0675    3.4345 C   0  0  0  0  0  0  0  0  0  0  0  0
    2.2139   -2.5043    4.0035 H   0  0  0  0  0  0  0  0  0  0  0  0
    1.2600   -2.5888    2.2219 C   0  0  0  0  0  0  0  0  0  0  0  0
    1.4443   -1.7037    1.9643 H   0  0  0  0  0  0  0  0  0  0  0  0
   -1.2090   -3.9598   -0.9102 C   0  0  0  0  0  0  0  0  0  0  0  0
   -2.5602   -3.6869   -1.0460 C   0  0  0  0  0  0  0  0  0  0  0  0
   -2.9038   -2.8546   -0.7761 H   0  0  0  0  0  0  0  0  0  0  0  0
   -3.4040   -4.6496   -1.5826 C   0  0  0  0  0  0  0  0  0  0  0  0
   -4.3212   -4.4663   -1.6769 H   0  0  0  0  0  0  0  0  0  0  0  0
   -2.9091   -5.8655   -1.9758 C   0  0  0  0  0  0  0  0  0  0  0  0
   -3.4882   -6.5132   -2.3348 H   0  0  0  0  0  0  0  0  0  0  0  0
   -1.5720   -6.1409   -1.8477 C   0  0  0  0  0  0  0  0  0  0  0  0
   -1.2393   -6.9785   -2.1147 H   0  0  0  0  0  0  0  0  0  0  0  0
   -0.7144   -5.1963   -1.3294 C   0  0  0  0  0  0  0  0  0  0  0  0
    0.2040   -5.3840   -1.2579 H   0  0  0  0  0  0  0  0  0  0  0  0
    4.0810    0.1652   -0.5425 C   0  0  0  0  0  0  0  0  0  0  0  0
    4.1705   -1.6053    1.0343 F   0  0  0  0  0  0  0  0  0  0  0  0
    4.6771   -0.4699    0.5237 C   0  0  0  0  0  0  0  0  0  0  0  0
    6.3746   -0.7085    2.1442 F   0  0  0  0  0  0  0  0  0  0  0  0
    5.8392   -0.0249    1.1178 C   0  0  0  0  0  0  0  0  0  0  0  0
    7.5462    1.5821    1.2909 F   0  0  0  0  0  0  0  0  0  0  0  0
    6.4366    1.1168    0.6836 C   0  0  0  0  0  0  0  0  0  0  0  0
    6.4630    2.9198   -0.8194 F   0  0  0  0  0  0  0  0  0  0  0  0
    5.8862    1.7950   -0.3659 C   0  0  0  0  0  0  0  0  0  0  0  0
    4.2557    2.0038   -2.0052 F   0  0  0  0  0  0  0  0  0  0  0  0
    4.7439    1.3058   -0.9608 C   0  0  0  0  0  0  0  0  0  0  0  0
    3.1743   -0.7556   -2.8831 C   0  0  0  0  0  0  0  0  0  0  0  0
    5.0508   -1.9464   -2.0510 F   0  0  0  0  0  0  0  0  0  0  0  0
    4.3085   -1.5345   -3.0959 C   0  0  0  0  0  0  0  0  0  0  0  0
    5.8393   -2.7211   -4.4584 F   0  0  0  0  0  0  0  0  0  0  0  0
    4.7309   -1.9634   -4.3326 C   0  0  0  0  0  0  0  0  0  0  0  0
    4.4187   -2.0183   -6.6570 F   0  0  0  0  0  0  0  0  0  0  0  0
    4.0116   -1.6286   -5.4397 C   0  0  0  0  0  0  0  0  0  0  0  0
    2.1235   -0.5796   -6.3794 F   0  0  0  0  0  0  0  0  0  0  0  0
    2.8746   -0.8902   -5.3030 C   0  0  0  0  0  0  0  0  0  0  0  0
    1.3172    0.2205   -3.9724 F   0  0  0  0  0  0  0  0  0  0  0  0
    2.4773   -0.4720   -4.0392 C   0  0  0  0  0  0  0  0  0  0  0  0
    1.8207   -3.3866   -2.0797 C   0  0  0  0  0  0  0  0  0  0  0  0
    2.8391   -4.1143   -1.4966 C   0  0  0  0  0  0  0  0  0  0  0  0
    3.1494   -3.8893   -0.6384 H   0  0  0  0  0  0  0  0  0  0  0  0
    3.4023   -5.1805   -2.1857 C   0  0  0  0  0  0  0  0  0  0  0  0
    4.0953   -5.6791   -1.7921 H   0  0  0  0  0  0  0  0  0  0  0  0
    2.9497   -5.5096   -3.4428 C   0  0  0  0  0  0  0  0  0  0  0  0
    3.3312   -6.2357   -3.9019 H   0  0  0  0  0  0  0  0  0  0  0  0
    1.9476   -4.7873   -4.0276 C   0  0  0  0  0  0  0  0  0  0  0  0
    1.6459   -5.0127   -4.8887 H   0  0  0  0  0  0  0  0  0  0  0  0
    1.3815   -3.7278   -3.3525 C   0  0  0  0  0  0  0  0  0  0  0  0
    0.6925   -3.2323   -3.7565 H   0  0  0  0  0  0  0  0  0  0  0  0
  1  4  1  0  0  0  0
  2  3  1  0  0  0  0
  3  8  1  0  0  0  0
  4  5  1  0  0  0  0
  6  4  2  0  0  0  0
  7  6  1  0  0  0  0
  8  1  1  0  0  0  0
  9  8  1  0  0  0  0
 10  1  1  0  0  0  0
 11 10  4  0  0  0  0
 12 11  1  0  0  0  0
 13 11  4  0  0  0  0
 14 13  1  0  0  0  0
 15 13  4  0  0  0  0
 16 15  1  0  0  0  0
 17 15  4  0  0  0  0
 18 17  1  0  0  0  0
 19 10  4  0  0  0  0
 20 19  1  0  0  0  0
 21  1  1  0  0  0  0
 22 21  4  0  0  0  0
 23 22  1  0  0  0  0
 24 22  4  0  0  0  0
 25 24  1  0  0  0  0
 26 24  4  0  0  0  0
 27 26  1  0  0  0  0
 28 26  4  0  0  0  0
 29 28  1  0  0  0  0
 30 21  4  0  0  0  0
 31 30  1  0  0  0  0
 32  2  1  0  0  0  0
 33 34  1  0  0  0  0
 34 32  4  0  0  0  0
 35 36  1  0  0  0  0
 36 34  4  0  0  0  0
 37 38  1  0  0  0  0
 38 36  4  0  0  0  0
 39 40  1  0  0  0  0
 40 38  4  0  0  0  0
 41 42  1  0  0  0  0
 42 32  4  0  0  0  0
 43  2  1  0  0  0  0
 44 45  1  0  0  0  0
 45 43  4  0  0  0  0
 46 47  1  0  0  0  0
 47 45  4  0  0  0  0
 48 49  1  0  0  0  0
 49 47  4  0  0  0  0
 50 51  1  0  0  0  0
 51 49  4  0  0  0  0
 52 53  1  0  0  0  0
 53 43  4  0  0  0  0
 54  8  1  0  0  0  0
 55 54  4  0  0  0  0
 56 55  1  0  0  0  0
 57 55  4  0  0  0  0
 58 57  1  0  0  0  0
 59 57  4  0  0  0  0
 60 59  1  0  0  0  0
 61 59  4  0  0  0  0
 62 61  1  0  0  0  0
 63 54  4  0  0  0  0
 64 63  1  0  0  0  0
 65 68  1  0  0  0  0
 66  6  1  0  0  0  0
 67 66  1  0  0  0  0
 68 69  1  0  0  0  0
 70  2  1  0  0  0  0
 71 70  1  0  0  0  0
 72 65  1  0  0  0  0
 73 72  1  0  0  0  0
 74 65  1  0  0  0  0
 75 74  4  0  0  0  0
 76 75  1  0  0  0  0
 77 75  4  0  0  0  0
 78 77  1  0  0  0  0
 79 77  4  0  0  0  0
 80 79  1  0  0  0  0
 81 79  4  0  0  0  0
 82 81  1  0  0  0  0
 83 74  4  0  0  0  0
 84 83  1  0  0  0  0
 85 65  1  0  0  0  0
 86 85  4  0  0  0  0
 87 86  1  0  0  0  0
 88 86  4  0  0  0  0
 89 88  1  0  0  0  0
 90 88  4  0  0  0  0
 91 90  1  0  0  0  0
 92 90  4  0  0  0  0
 93 92  1  0  0  0  0
 94 85  4  0  0  0  0
 95 94  1  0  0  0  0
 96 66  1  0  0  0  0
 97 98  1  0  0  0  0
 98 96  4  0  0  0  0
 99100  1  0  0  0  0
100 98  4  0  0  0  0
101102  1  0  0  0  0
102100  4  0  0  0  0
103104  1  0  0  0  0
104102  4  0  0  0  0
105106  1  0  0  0  0
106 96  4  0  0  0  0
107 66  1  0  0  0  0
108109  1  0  0  0  0
109107  4  0  0  0  0
110111  1  0  0  0  0
111109  4  0  0  0  0
112113  1  0  0  0  0
113111  4  0  0  0  0
114115  1  0  0  0  0
115113  4  0  0  0  0
116117  1  0  0  0  0
117107  4  0  0  0  0
118 72  1  0  0  0  0
119118  4  0  0  0  0
120119  1  0  0  0  0
121119  4  0  0  0  0
122121  1  0  0  0  0
123121  4  0  0  0  0
124123  1  0  0  0  0
125123  4  0  0  0  0
126125  1  0  0  0  0
127118  4  0  0  0  0
128127  1  0  0  0  0
 17 19  4  0  0  0  0
 28 30  4  0  0  0  0
 40 42  4  0  0  0  0
 51 53  4  0  0  0  0
 61 63  4  0  0  0  0
 67 72  1  0  0  0  0
 68 70  2  0  0  0  0
 81 83  4  0  0  0  0
 92 94  4  0  0  0  0
104106  4  0  0  0  0
115117  4  0  0  0  0
125127  4  0  0  0  0
M  CHG  4   1   1   2  -1  65   1  66  -1
M  END
$$$$
UGUVAX

From CSD data. Using bond type 'Any'. Matching problem. No disordered atoms. Largest molecule.
114121  0  0  0  0  0  0  0  0999 V2000
    9.7213    8.6288   10.2073 P   0  3  0  0  0  0  0  0  0  0  0  0
    9.8032    6.7840    9.3043 B   0  5  0  0  0  0  0  0  0  0  0  0
    9.6300    6.1038   10.1411 H   0  0  0  0  0  0  0  0  0  0  0  0
    8.5915    9.6391    9.2458 C   0  0  0  0  0  0  0  0  0  0  0  0
    8.8626    9.8849    8.3800 H   0  0  0  0  0  0  0  0  0  0  0  0
    7.4017   10.0692    9.6583 C   0  0  0  0  0  0  0  0  0  0  0  0
    7.1585    9.9155   10.5532 H   0  0  0  0  0  0  0  0  0  0  0  0
    9.1567    8.5964   11.9394 C   0  0  0  0  0  0  0  0  0  0  0  0
    9.0983    9.7484   12.7523 C   0  0  0  0  0  0  0  0  0  0  0  0
    8.7830    9.5724   14.0980 C   0  0  0  0  0  0  0  0  0  0  0  0
    8.7587   10.3276   14.6577 H   0  0  0  0  0  0  0  0  0  0  0  0
    8.5057    8.3402   14.6412 C   0  0  0  0  0  0  0  0  0  0  0  0
    8.3108    8.2599   15.5571 H   0  0  0  0  0  0  0  0  0  0  0  0
    8.5173    7.2298   13.8395 C   0  0  0  0  0  0  0  0  0  0  0  0
    8.2990    6.3878   14.1952 H   0  0  0  0  0  0  0  0  0  0  0  0
    8.8510    7.3548   12.5072 C   0  0  0  0  0  0  0  0  0  0  0  0
    8.8737    6.5866   11.9667 H   0  0  0  0  0  0  0  0  0  0  0  0
    9.3385   11.1494   12.2632 C   0  0  0  0  0  0  0  0  0  0  0  0
   10.2455   11.2242   11.9284 H   0  0  0  0  0  0  0  0  0  0  0  0
    9.2111   11.7736   12.9948 H   0  0  0  0  0  0  0  0  0  0  0  0
    8.7128   11.3548   11.5508 H   0  0  0  0  0  0  0  0  0  0  0  0
   11.3072    9.5276   10.2155 C   0  0  0  0  0  0  0  0  0  0  0  0
   12.4109    9.0318   10.9282 C   0  0  0  0  0  0  0  0  0  0  0  0
   13.5740    9.7984   10.9264 C   0  0  0  0  0  0  0  0  0  0  0  0
   14.3244    9.4856   11.3994 H   0  0  0  0  0  0  0  0  0  0  0  0
   13.6628   10.9859   10.2610 C   0  0  0  0  0  0  0  0  0  0  0  0
   14.4607   11.4819   10.2934 H   0  0  0  0  0  0  0  0  0  0  0  0
   12.5884   11.4619    9.5450 C   0  0  0  0  0  0  0  0  0  0  0  0
   12.6533   12.2755    9.0771 H   0  0  0  0  0  0  0  0  0  0  0  0
   11.4196   10.7359    9.5169 C   0  0  0  0  0  0  0  0  0  0  0  0
   10.6858   11.0553    9.0229 H   0  0  0  0  0  0  0  0  0  0  0  0
   12.3667    7.7496   11.7124 C   0  0  0  0  0  0  0  0  0  0  0  0
   12.0466    7.9304   12.6103 H   0  0  0  0  0  0  0  0  0  0  0  0
   13.2560    7.3663   11.7569 H   0  0  0  0  0  0  0  0  0  0  0  0
   11.7663    7.1244   11.2758 H   0  0  0  0  0  0  0  0  0  0  0  0
    8.5057    6.6684    8.3185 C   0  0  0  0  0  0  0  0  0  0  0  0
    7.0678    7.0547   10.1566 F   0  0  0  0  0  0  0  0  0  0  0  0
    7.2228    6.8236    8.8302 C   0  0  0  0  0  0  0  0  0  0  0  0
    4.8763    7.0151    8.6512 F   0  0  0  0  0  0  0  0  0  0  0  0
    6.0721    6.7788    8.0824 C   0  0  0  0  0  0  0  0  0  0  0  0
    5.0516    6.4418    5.9822 F   0  0  0  0  0  0  0  0  0  0  0  0
    6.1547    6.5049    6.7453 C   0  0  0  0  0  0  0  0  0  0  0  0
    7.4942    6.0361    4.8666 F   0  0  0  0  0  0  0  0  0  0  0  0
    7.3914    6.2976    6.1815 C   0  0  0  0  0  0  0  0  0  0  0  0
    9.6914    6.1733    6.3177 F   0  0  0  0  0  0  0  0  0  0  0  0
    8.5296    6.3892    6.9668 C   0  0  0  0  0  0  0  0  0  0  0  0
   11.2503    6.6257    8.6016 C   0  0  0  0  0  0  0  0  0  0  0  0
   11.0006    8.6027    7.3590 F   0  0  0  0  0  0  0  0  0  0  0  0
   11.7650    7.5454    7.7056 C   0  0  0  0  0  0  0  0  0  0  0  0
   13.4585    8.3943    6.2941 F   0  0  0  0  0  0  0  0  0  0  0  0
   13.0115    7.4402    7.1287 C   0  0  0  0  0  0  0  0  0  0  0  0
   15.0075    6.2184    6.8815 F   0  0  0  0  0  0  0  0  0  0  0  0
   13.7836    6.3434    7.4153 C   0  0  0  0  0  0  0  0  0  0  0  0
   14.0442    4.2769    8.5080 F   0  0  0  0  0  0  0  0  0  0  0  0
   13.3033    5.3757    8.2568 C   0  0  0  0  0  0  0  0  0  0  0  0
   11.6885    4.5651    9.7017 F   0  0  0  0  0  0  0  0  0  0  0  0
   12.0724    5.5382    8.8509 C   0  0  0  0  0  0  0  0  0  0  0  0
    4.1380   12.2034    8.2478 P   0  3  0  0  0  0  0  0  0  0  0  0
    4.0561   14.0482    9.1508 B   0  5  0  0  0  0  0  0  0  0  0  0
    4.2293   14.7284    8.3140 H   0  0  0  0  0  0  0  0  0  0  0  0
    5.2678   11.1931    9.2093 C   0  0  0  0  0  0  0  0  0  0  0  0
    4.9967   10.9473   10.0751 H   0  0  0  0  0  0  0  0  0  0  0  0
    6.4576   10.7630    8.7968 C   0  0  0  0  0  0  0  0  0  0  0  0
    6.7008   10.9167    7.9020 H   0  0  0  0  0  0  0  0  0  0  0  0
    4.7026   12.2358    6.5158 C   0  0  0  0  0  0  0  0  0  0  0  0
    4.7610   11.0838    5.7028 C   0  0  0  0  0  0  0  0  0  0  0  0
    5.0763   11.2598    4.3571 C   0  0  0  0  0  0  0  0  0  0  0  0
    5.1006   10.5046    3.7974 H   0  0  0  0  0  0  0  0  0  0  0  0
    5.3536   12.4920    3.8139 C   0  0  0  0  0  0  0  0  0  0  0  0
    5.5485   12.5723    2.8980 H   0  0  0  0  0  0  0  0  0  0  0  0
    5.3420   13.6024    4.6156 C   0  0  0  0  0  0  0  0  0  0  0  0
    5.5603   14.4444    4.2600 H   0  0  0  0  0  0  0  0  0  0  0  0
    5.0083   13.4774    5.9479 C   0  0  0  0  0  0  0  0  0  0  0  0
    4.9856   14.2456    6.4884 H   0  0  0  0  0  0  0  0  0  0  0  0
    4.5208    9.6828    6.1919 C   0  0  0  0  0  0  0  0  0  0  0  0
    3.6138    9.6080    6.5267 H   0  0  0  0  0  0  0  0  0  0  0  0
    4.6482    9.0586    5.4603 H   0  0  0  0  0  0  0  0  0  0  0  0
    5.1465    9.4774    6.9044 H   0  0  0  0  0  0  0  0  0  0  0  0
    2.5521   11.3046    8.2397 C   0  0  0  0  0  0  0  0  0  0  0  0
    1.4484   11.8004    7.5269 C   0  0  0  0  0  0  0  0  0  0  0  0
    0.2853   11.0338    7.5288 C   0  0  0  0  0  0  0  0  0  0  0  0
   -0.4651   11.3466    7.0557 H   0  0  0  0  0  0  0  0  0  0  0  0
    0.1965    9.8463    8.1941 C   0  0  0  0  0  0  0  0  0  0  0  0
   -0.6014    9.3503    8.1617 H   0  0  0  0  0  0  0  0  0  0  0  0
    1.2709    9.3703    8.9101 C   0  0  0  0  0  0  0  0  0  0  0  0
    1.2060    8.5567    9.3780 H   0  0  0  0  0  0  0  0  0  0  0  0
    2.4397   10.0963    8.9382 C   0  0  0  0  0  0  0  0  0  0  0  0
    3.1735    9.7769    9.4322 H   0  0  0  0  0  0  0  0  0  0  0  0
    1.4926   13.0826    6.7428 C   0  0  0  0  0  0  0  0  0  0  0  0
    1.8127   12.9018    5.8448 H   0  0  0  0  0  0  0  0  0  0  0  0
    0.6033   13.4659    6.6982 H   0  0  0  0  0  0  0  0  0  0  0  0
    2.0930   13.7078    7.1793 H   0  0  0  0  0  0  0  0  0  0  0  0
    5.3536   14.1638   10.1367 C   0  0  0  0  0  0  0  0  0  0  0  0
    6.7915   13.7775    8.2985 F   0  0  0  0  0  0  0  0  0  0  0  0
    6.6365   14.0086    9.6249 C   0  0  0  0  0  0  0  0  0  0  0  0
    8.9830   13.8171    9.8039 F   0  0  0  0  0  0  0  0  0  0  0  0
    7.7872   14.0534   10.3727 C   0  0  0  0  0  0  0  0  0  0  0  0
    8.8077   14.3904   12.4729 F   0  0  0  0  0  0  0  0  0  0  0  0
    7.7046   14.3273   11.7098 C   0  0  0  0  0  0  0  0  0  0  0  0
    6.3651   14.7961   13.5885 F   0  0  0  0  0  0  0  0  0  0  0  0
    6.4679   14.5346   12.2736 C   0  0  0  0  0  0  0  0  0  0  0  0
    4.1679   14.6589   12.1374 F   0  0  0  0  0  0  0  0  0  0  0  0
    5.3297   14.4430   11.4883 C   0  0  0  0  0  0  0  0  0  0  0  0
    2.6090   14.2065    9.8536 C   0  0  0  0  0  0  0  0  0  0  0  0
    2.8587   12.2295   11.0961 F   0  0  0  0  0  0  0  0  0  0  0  0
    2.0943   13.2868   10.7496 C   0  0  0  0  0  0  0  0  0  0  0  0
    0.4008   12.4379   12.1610 F   0  0  0  0  0  0  0  0  0  0  0  0
    0.8478   13.3920   11.3265 C   0  0  0  0  0  0  0  0  0  0  0  0
   -1.1482   14.6138   11.5736 F   0  0  0  0  0  0  0  0  0  0  0  0
    0.0757   14.4888   11.0399 C   0  0  0  0  0  0  0  0  0  0  0  0
   -0.1849   16.5553    9.9471 F   0  0  0  0  0  0  0  0  0  0  0  0
    0.5560   15.4565   10.1983 C   0  0  0  0  0  0  0  0  0  0  0  0
    2.1708   16.2671    8.7534 F   0  0  0  0  0  0  0  0  0  0  0  0
    1.7869   15.2940    9.6042 C   0  0  0  0  0  0  0  0  0  0  0  0
  1  2  1  0  0  0  0
  2  3  1  0  0  0  0
  4  1  1  0  0  0  0
  5  4  1  0  0  0  0
  6  4  2  0  0  0  0
  7  6  1  0  0  0  0
  8  1  1  0  0  0  0
  9  8  4  0  0  0  0
 10  9  4  0  0  0  0
 11 10  1  0  0  0  0
 12 10  4  0  0  0  0
 13 12  1  0  0  0  0
 14 12  4  0  0  0  0
 15 14  1  0  0  0  0
 16  8  4  0  0  0  0
 17 16  1  0  0  0  0
 18  9  1  0  0  0  0
 19 18  1  0  0  0  0
 20 18  1  0  0  0  0
 21 18  1  0  0  0  0
 22  1  1  0  0  0  0
 23 22  4  0  0  0  0
 24 23  4  0  0  0  0
 25 24  1  0  0  0  0
 26 24  4  0  0  0  0
 27 26  1  0  0  0  0
 28 26  4  0  0  0  0
 29 28  1  0  0  0  0
 30 22  4  0  0  0  0
 31 30  1  0  0  0  0
 32 23  1  0  0  0  0
 33 32  1  0  0  0  0
 34 32  1  0  0  0  0
 35 32  1  0  0  0  0
 36  2  1  0  0  0  0
 37 38  1  0  0  0  0
 38 36  4  0  0  0  0
 39 40  1  0  0  0  0
 40 38  4  0  0  0  0
 41 42  1  0  0  0  0
 42 40  4  0  0  0  0
 43 44  1  0  0  0  0
 44 42  4  0  0  0  0
 45 46  1  0  0  0  0
 46 36  4  0  0  0  0
 47  2  1  0  0  0  0
 48 49  1  0  0  0  0
 49 47  4  0  0  0  0
 50 51  1  0  0  0  0
 51 49  4  0  0  0  0
 52 53  1  0  0  0  0
 53 51  4  0  0  0  0
 54 55  1  0  0  0  0
 55 53  4  0  0  0  0
 56 57  1  0  0  0  0
 57 47  4  0  0  0  0
 58 59  1  0  0  0  0
 59 60  1  0  0  0  0
 61 58  1  0  0  0  0
 62 61  1  0  0  0  0
 63  6  1  0  0  0  0
 64 63  1  0  0  0  0
 65 58  1  0  0  0  0
 66 65  4  0  0  0  0
 67 66  4  0  0  0  0
 68 67  1  0  0  0  0
 69 67  4  0  0  0  0
 70 69  1  0  0  0  0
 71 69  4  0  0  0  0
 72 71  1  0  0  0  0
 73 65  4  0  0  0  0
 74 73  1  0  0  0  0
 75 66  1  0  0  0  0
 76 75  1  0  0  0  0
 77 75  1  0  0  0  0
 78 75  1  0  0  0  0
 79 58  1  0  0  0  0
 80 79  4  0  0  0  0
 81 80  4  0  0  0  0
 82 81  1  0  0  0  0
 83 81  4  0  0  0  0
 84 83  1  0  0  0  0
 85 83  4  0  0  0  0
 86 85  1  0  0  0  0
 87 79  4  0  0  0  0
 88 87  1  0  0  0  0
 89 80  1  0  0  0  0
 90 89  1  0  0  0  0
 91 89  1  0  0  0  0
 92 89  1  0  0  0  0
 93 59  1  0  0  0  0
 94 95  1  0  0  0  0
 95 93  4  0  0  0  0
 96 97  1  0  0  0  0
 97 95  4  0  0  0  0
 98 99  1  0  0  0  0
 99 97  4  0  0  0  0
100101  1  0  0  0  0
101 99  4  0  0  0  0
102103  1  0  0  0  0
103 93  4  0  0  0  0
104 59  1  0  0  0  0
105106  1  0  0  0  0
106104  4  0  0  0  0
107108  1  0  0  0  0
108106  4  0  0  0  0
109110  1  0  0  0  0
110108  4  0  0  0  0
111112  1  0  0  0  0
112110  4  0  0  0  0
113114  1  0  0  0  0
114104  4  0  0  0  0
 14 16  4  0  0  0  0
 28 30  4  0  0  0  0
 44 46  4  0  0  0  0
 55 57  4  0  0  0  0
 61 63  2  0  0  0  0
 71 73  4  0  0  0  0
 85 87  4  0  0  0  0
101103  4  0  0  0  0
112114  4  0  0  0  0
M  CHG  4   1   1   2  -1  58   1  59  -1
M  END
$$$$
UGUVUR

From CSD data. Using bond type 'Any'. No disordered atoms. Largest molecule.
162173  0  0  0  0  0  0  0  0999 V2000
    5.7401   16.9591   -0.0550 P   0  3  0  0  0  0  0  0  0  0  0  0
    1.8183   16.6433    5.6854 P   0  3  0  0  0  0  0  0  0  0  0  0
    2.7516   17.6603    1.0622 B   0  5  0  0  0  0  0  0  0  0  0  0
    4.8384   17.3401    4.6740 B   0  5  0  0  0  0  0  0  0  0  0  0
    4.2676   17.5177    6.0317 O   0  0  0  0  0  0  0  0  0  0  0  0
    3.3258   17.9716   -0.2825 O   0  0  0  0  0  0  0  0  0  0  0  0
    5.1748   16.8761    1.6620 C   0  0  0  0  0  0  0  0  0  0  0  0
    5.8121   16.6469    2.3134 H   0  0  0  0  0  0  0  0  0  0  0  0
    2.3890   16.7756    3.9696 C   0  0  0  0  0  0  0  0  0  0  0  0
    1.7430   16.6694    3.2948 H   0  0  0  0  0  0  0  0  0  0  0  0
    3.6537   17.0121    3.5755 C   0  0  0  0  0  0  0  0  0  0  0  0
    3.9156   17.1152    2.0884 C   0  0  0  0  0  0  0  0  0  0  0  0
    3.4935   16.4589    6.5014 C   0  0  0  0  0  0  0  0  0  0  0  0
    3.8881   15.6556    6.0778 H   0  0  0  0  0  0  0  0  0  0  0  0
    4.0545   16.9434   -0.8726 C   0  0  0  0  0  0  0  0  0  0  0  0
    3.6267   16.1156   -0.5387 H   0  0  0  0  0  0  0  0  0  0  0  0
    6.9412   18.3381   -0.1187 C   0  0  0  0  0  0  0  0  0  0  0  0
    0.6672   18.0450    5.9127 C   0  0  0  0  0  0  0  0  0  0  0  0
    6.7027   19.5745   -0.7525 C   0  0  0  0  0  0  0  0  0  0  0  0
   -0.5855   17.9407    5.2613 C   0  0  0  0  0  0  0  0  0  0  0  0
    7.6957   20.5444   -0.7154 C   0  0  0  0  0  0  0  0  0  0  0  0
    7.5353   21.3721   -1.1316 H   0  0  0  0  0  0  0  0  0  0  0  0
   -1.4929   18.9761    5.4115 C   0  0  0  0  0  0  0  0  0  0  0  0
   -2.3232   18.9128    4.9744 H   0  0  0  0  0  0  0  0  0  0  0  0
   -1.2359   20.0980    6.1733 C   0  0  0  0  0  0  0  0  0  0  0  0
    8.9074   20.3411   -0.0924 C   0  0  0  0  0  0  0  0  0  0  0  0
    9.1310   19.1140    0.4969 C   0  0  0  0  0  0  0  0  0  0  0  0
    9.9605   18.9560    0.9109 H   0  0  0  0  0  0  0  0  0  0  0  0
   -0.0255   20.1681    6.8031 C   0  0  0  0  0  0  0  0  0  0  0  0
    0.1622   20.9285    7.3228 H   0  0  0  0  0  0  0  0  0  0  0  0
    0.9539   19.1631    6.7162 C   0  0  0  0  0  0  0  0  0  0  0  0
    8.1774   18.0973    0.5029 C   0  0  0  0  0  0  0  0  0  0  0  0
   -1.0514   16.7511    4.4439 C   0  0  0  0  0  0  0  0  0  0  0  0
   -1.2988   16.0267    5.0394 H   0  0  0  0  0  0  0  0  0  0  0  0
   -0.3340   16.4592    3.8599 H   0  0  0  0  0  0  0  0  0  0  0  0
   -1.8193   17.0074    3.9097 H   0  0  0  0  0  0  0  0  0  0  0  0
    5.4763   19.8853   -1.5733 C   0  0  0  0  0  0  0  0  0  0  0  0
    5.3712   20.8466   -1.6461 H   0  0  0  0  0  0  0  0  0  0  0  0
    4.6941   19.5061   -1.1426 H   0  0  0  0  0  0  0  0  0  0  0  0
    5.5747   19.5026   -2.4592 H   0  0  0  0  0  0  0  0  0  0  0  0
    9.9640   21.4115   -0.0567 C   0  0  0  0  0  0  0  0  0  0  0  0
    9.8832   21.9716   -0.8454 H   0  0  0  0  0  0  0  0  0  0  0  0
   10.8418   20.9981   -0.0439 H   0  0  0  0  0  0  0  0  0  0  0  0
    9.8496   21.9536    0.7381 H   0  0  0  0  0  0  0  0  0  0  0  0
   -2.2696   21.1918    6.2869 C   0  0  0  0  0  0  0  0  0  0  0  0
   -2.2968   21.6982    5.4593 H   0  0  0  0  0  0  0  0  0  0  0  0
   -2.0360   21.7832    7.0194 H   0  0  0  0  0  0  0  0  0  0  0  0
   -3.1400   20.7984    6.4535 H   0  0  0  0  0  0  0  0  0  0  0  0
    8.5939   16.7931    1.1551 C   0  0  0  0  0  0  0  0  0  0  0  0
    8.8290   16.1488    0.4690 H   0  0  0  0  0  0  0  0  0  0  0  0
    7.8590   16.4473    1.6852 H   0  0  0  0  0  0  0  0  0  0  0  0
    9.3610   16.9487    1.7284 H   0  0  0  0  0  0  0  0  0  0  0  0
    2.1988   19.3337    7.5276 C   0  0  0  0  0  0  0  0  0  0  0  0
    2.1359   18.7958    8.3327 H   0  0  0  0  0  0  0  0  0  0  0  0
    2.3019   20.2670    7.7694 H   0  0  0  0  0  0  0  0  0  0  0  0
    2.9658   19.0474    7.0071 H   0  0  0  0  0  0  0  0  0  0  0  0
    6.6168   15.5128   -0.7296 C   0  0  0  0  0  0  0  0  0  0  0  0
    0.8737   15.1596    6.1705 C   0  0  0  0  0  0  0  0  0  0  0  0
    0.8246   13.9828    5.3908 C   0  0  0  0  0  0  0  0  0  0  0  0
    6.6216   14.2374   -0.1323 C   0  0  0  0  0  0  0  0  0  0  0  0
    7.2936   13.1914   -0.7553 C   0  0  0  0  0  0  0  0  0  0  0  0
    7.2950   12.3492   -0.3402 H   0  0  0  0  0  0  0  0  0  0  0  0
    0.0833   12.8969    5.8656 C   0  0  0  0  0  0  0  0  0  0  0  0
    0.0373   12.1173    5.3414 H   0  0  0  0  0  0  0  0  0  0  0  0
   -0.5860   12.9227    7.0763 C   0  0  0  0  0  0  0  0  0  0  0  0
    7.9503   13.3363   -1.9408 C   0  0  0  0  0  0  0  0  0  0  0  0
   -0.5158   14.0796    7.8344 C   0  0  0  0  0  0  0  0  0  0  0  0
   -0.9629   14.1128    8.6604 H   0  0  0  0  0  0  0  0  0  0  0  0
    7.9428   14.5961   -2.5272 C   0  0  0  0  0  0  0  0  0  0  0  0
    8.3953   14.7171   -3.3422 H   0  0  0  0  0  0  0  0  0  0  0  0
    7.2951   15.6876   -1.9603 C   0  0  0  0  0  0  0  0  0  0  0  0
    0.1977   15.1973    7.4083 C   0  0  0  0  0  0  0  0  0  0  0  0
    5.9771   13.9510    1.1877 C   0  0  0  0  0  0  0  0  0  0  0  0
    6.0261   12.9990    1.3712 H   0  0  0  0  0  0  0  0  0  0  0  0
    5.0481   14.2272    1.1614 H   0  0  0  0  0  0  0  0  0  0  0  0
    6.4405   14.4383    1.8865 H   0  0  0  0  0  0  0  0  0  0  0  0
    1.4585   13.8318    4.0509 C   0  0  0  0  0  0  0  0  0  0  0  0
    1.4689   12.8952    3.8011 H   0  0  0  0  0  0  0  0  0  0  0  0
    2.3684   14.1680    4.0843 H   0  0  0  0  0  0  0  0  0  0  0  0
    0.9523   14.3364    3.3948 H   0  0  0  0  0  0  0  0  0  0  0  0
    8.6764   12.1864   -2.5867 C   0  0  0  0  0  0  0  0  0  0  0  0
    9.0815   11.6338   -1.8989 H   0  0  0  0  0  0  0  0  0  0  0  0
    9.3674   12.5298   -3.1734 H   0  0  0  0  0  0  0  0  0  0  0  0
    8.0490   11.6548   -3.1000 H   0  0  0  0  0  0  0  0  0  0  0  0
   -1.3567   11.7260    7.5590 C   0  0  0  0  0  0  0  0  0  0  0  0
   -0.7397   11.0600    7.8987 H   0  0  0  0  0  0  0  0  0  0  0  0
   -1.8643   11.3509    6.8218 H   0  0  0  0  0  0  0  0  0  0  0  0
   -1.9637   11.9964    8.2649 H   0  0  0  0  0  0  0  0  0  0  0  0
    7.3814   16.9731   -2.7332 C   0  0  0  0  0  0  0  0  0  0  0  0
    8.0798   17.5306   -2.3553 H   0  0  0  0  0  0  0  0  0  0  0  0
    6.5326   17.4387   -2.6825 H   0  0  0  0  0  0  0  0  0  0  0  0
    7.5896   16.7791   -3.6607 H   0  0  0  0  0  0  0  0  0  0  0  0
    0.1814   16.3794    8.3549 C   0  0  0  0  0  0  0  0  0  0  0  0
   -0.4941   17.0143    8.0686 H   0  0  0  0  0  0  0  0  0  0  0  0
    1.0513   16.8104    8.3500 H   0  0  0  0  0  0  0  0  0  0  0  0
   -0.0220   16.0737    9.2524 H   0  0  0  0  0  0  0  0  0  0  0  0
    1.5413   16.5734    0.6896 C   0  0  0  0  0  0  0  0  0  0  0  0
    5.4668   18.8312    4.2912 C   0  0  0  0  0  0  0  0  0  0  0  0
    2.6894   14.6665    1.5223 F   0  0  0  0  0  0  0  0  0  0  0  0
    3.3889   19.8526    4.8275 F   0  0  0  0  0  0  0  0  0  0  0  0
    1.6305   15.1945    0.8837 C   0  0  0  0  0  0  0  0  0  0  0  0
    4.6754   19.9601    4.4419 C   0  0  0  0  0  0  0  0  0  0  0  0
    0.8288   12.9811    0.6678 F   0  0  0  0  0  0  0  0  0  0  0  0
    4.2804   22.2955    4.4128 F   0  0  0  0  0  0  0  0  0  0  0  0
    5.1048   21.2526    4.1969 C   0  0  0  0  0  0  0  0  0  0  0  0
    0.6807   14.3086    0.4236 C   0  0  0  0  0  0  0  0  0  0  0  0
   -1.3159   13.8968   -0.7349 F   0  0  0  0  0  0  0  0  0  0  0  0
    6.7892   22.7071    3.4203 F   0  0  0  0  0  0  0  0  0  0  0  0
   -0.3890   14.7504   -0.2898 C   0  0  0  0  0  0  0  0  0  0  0  0
    6.3724   21.4489    3.7124 C   0  0  0  0  0  0  0  0  0  0  0  0
   -1.5188   16.5358   -1.3138 F   0  0  0  0  0  0  0  0  0  0  0  0
    8.4577   20.5793    3.1063 F   0  0  0  0  0  0  0  0  0  0  0  0
   -0.4839   16.1013   -0.5709 C   0  0  0  0  0  0  0  0  0  0  0  0
    7.1862   20.3878    3.5404 C   0  0  0  0  0  0  0  0  0  0  0  0
    0.3072   18.2558   -0.4380 F   0  0  0  0  0  0  0  0  0  0  0  0
    7.6258   18.1153    3.5979 F   0  0  0  0  0  0  0  0  0  0  0  0
    6.7296   19.1187    3.8064 C   0  0  0  0  0  0  0  0  0  0  0  0
    0.4584   16.9544   -0.0966 C   0  0  0  0  0  0  0  0  0  0  0  0
    2.2383   19.1187    1.6226 C   0  0  0  0  0  0  0  0  0  0  0  0
    5.9601   16.1364    4.8833 C   0  0  0  0  0  0  0  0  0  0  0  0
    4.7023   14.4496    3.7804 F   0  0  0  0  0  0  0  0  0  0  0  0
    0.0530   18.4977    2.2878 F   0  0  0  0  0  0  0  0  0  0  0  0
    5.7777   14.8088    4.5122 C   0  0  0  0  0  0  0  0  0  0  0  0
    0.9996   19.4506    2.1303 C   0  0  0  0  0  0  0  0  0  0  0  0
   -0.5974   20.9735    2.9981 F   0  0  0  0  0  0  0  0  0  0  0  0
    6.3908   12.5218    4.4312 F   0  0  0  0  0  0  0  0  0  0  0  0
    0.6264   20.7408    2.5034 C   0  0  0  0  0  0  0  0  0  0  0  0
    6.6185   13.7758    4.8598 C   0  0  0  0  0  0  0  0  0  0  0  0
    8.5395   13.0507    6.0132 F   0  0  0  0  0  0  0  0  0  0  0  0
    7.6932   14.0328    5.6353 C   0  0  0  0  0  0  0  0  0  0  0  0
    1.1769   23.0198    2.7097 F   0  0  0  0  0  0  0  0  0  0  0  0
    1.5264   21.7645    2.3584 C   0  0  0  0  0  0  0  0  0  0  0  0
    8.9688   15.5853    6.8972 F   0  0  0  0  0  0  0  0  0  0  0  0
    7.9263   15.3277    6.0997 C   0  0  0  0  0  0  0  0  0  0  0  0
    2.7782   21.5050    1.8708 C   0  0  0  0  0  0  0  0  0  0  0  0
    3.6612   22.5021    1.7155 F   0  0  0  0  0  0  0  0  0  0  0  0
    4.3892   20.0349    1.1656 F   0  0  0  0  0  0  0  0  0  0  0  0
    7.3037   17.5380    6.2328 F   0  0  0  0  0  0  0  0  0  0  0  0
    3.1162   20.2055    1.5464 C   0  0  0  0  0  0  0  0  0  0  0  0
    7.0533   16.3093    5.7124 C   0  0  0  0  0  0  0  0  0  0  0  0
    3.8795   16.8785   -2.3714 C   0  0  0  0  0  0  0  0  0  0  0  0
    3.6808   16.2322    7.9945 C   0  0  0  0  0  0  0  0  0  0  0  0
    3.1975   17.8870   -3.0514 C   0  0  0  0  0  0  0  0  0  0  0  0
    2.8761   18.6325   -2.5787 H   0  0  0  0  0  0  0  0  0  0  0  0
    3.1848   15.0729    8.6099 C   0  0  0  0  0  0  0  0  0  0  0  0
    2.7029   14.4400    8.1091 H   0  0  0  0  0  0  0  0  0  0  0  0
    2.9930   17.7982   -4.4088 C   0  0  0  0  0  0  0  0  0  0  0  0
    2.5376   18.4880   -4.8565 H   0  0  0  0  0  0  0  0  0  0  0  0
    3.4115   14.8672    9.9503 C   0  0  0  0  0  0  0  0  0  0  0  0
    3.0442   14.1092   10.3674 H   0  0  0  0  0  0  0  0  0  0  0  0
    3.4431   16.7183   -5.1117 C   0  0  0  0  0  0  0  0  0  0  0  0
    3.3062   16.6681   -6.0405 H   0  0  0  0  0  0  0  0  0  0  0  0
    4.1403   15.7227   10.6790 C   0  0  0  0  0  0  0  0  0  0  0  0
    4.2833   15.5602   11.5939 H   0  0  0  0  0  0  0  0  0  0  0  0
    4.6824   16.8422   10.0798 C   0  0  0  0  0  0  0  0  0  0  0  0
    5.2129   17.4364   10.5803 H   0  0  0  0  0  0  0  0  0  0  0  0
    4.0974   15.7063   -4.4524 C   0  0  0  0  0  0  0  0  0  0  0  0
    4.4159   14.9645   -4.9355 H   0  0  0  0  0  0  0  0  0  0  0  0
    4.2908   15.7671   -3.0891 C   0  0  0  0  0  0  0  0  0  0  0  0
    4.7035   15.0492   -2.6433 H   0  0  0  0  0  0  0  0  0  0  0  0
    4.4422   17.0876    8.7428 C   0  0  0  0  0  0  0  0  0  0  0  0
    4.8090   17.8536    8.3399 H   0  0  0  0  0  0  0  0  0  0  0  0
  1  7  1  0  0  0  0
  2  9  1  0  0  0  0
  3  6  1  0  0  0  0
  4  5  1  0  0  0  0
  5 13  1  0  0  0  0
  6 15  1  0  0  0  0
  7  8  1  0  0  0  0
  9 10  1  0  0  0  0
 11  4  1  0  0  0  0
 12  3  1  0  0  0  0
 13  2  1  0  0  0  0
 14 13  1  0  0  0  0
 15  1  1  0  0  0  0
 16 15  1  0  0  0  0
 17  1  1  0  0  0  0
 18  2  1  0  0  0  0
 19 17  4  0  0  0  0
 20 18  4  0  0  0  0
 21 19  4  0  0  0  0
 22 21  1  0  0  0  0
 23 20  4  0  0  0  0
 24 23  1  0  0  0  0
 25 23  4  0  0  0  0
 26 21  4  0  0  0  0
 27 26  4  0  0  0  0
 28 27  1  0  0  0  0
 29 25  4  0  0  0  0
 30 29  1  0  0  0  0
 31 18  4  0  0  0  0
 32 17  4  0  0  0  0
 33 20  1  0  0  0  0
 34 33  1  0  0  0  0
 35 33  1  0  0  0  0
 36 33  1  0  0  0  0
 37 19  1  0  0  0  0
 38 37  1  0  0  0  0
 39 37  1  0  0  0  0
 40 37  1  0  0  0  0
 41 26  1  0  0  0  0
 42 41  1  0  0  0  0
 43 41  1  0  0  0  0
 44 41  1  0  0  0  0
 45 25  1  0  0  0  0
 46 45  1  0  0  0  0
 47 45  1  0  0  0  0
 48 45  1  0  0  0  0
 49 32  1  0  0  0  0
 50 49  1  0  0  0  0
 51 49  1  0  0  0  0
 52 49  1  0  0  0  0
 53 31  1  0  0  0  0
 54 53  1  0  0  0  0
 55 53  1  0  0  0  0
 56 53  1  0  0  0  0
 57  1  1  0  0  0  0
 58  2  1  0  0  0  0
 59 58  4  0  0  0  0
 60 57  4  0  0  0  0
 61 60  4  0  0  0  0
 62 61  1  0  0  0  0
 63 59  4  0  0  0  0
 64 63  1  0  0  0  0
 65 63  4  0  0  0  0
 66 61  4  0  0  0  0
 67 65  4  0  0  0  0
 68 67  1  0  0  0  0
 69 66  4  0  0  0  0
 70 69  1  0  0  0  0
 71 57  4  0  0  0  0
 72 58  4  0  0  0  0
 73 60  1  0  0  0  0
 74 73  1  0  0  0  0
 75 73  1  0  0  0  0
 76 73  1  0  0  0  0
 77 59  1  0  0  0  0
 78 77  1  0  0  0  0
 79 77  1  0  0  0  0
 80 77  1  0  0  0  0
 81 66  1  0  0  0  0
 82 81  1  0  0  0  0
 83 81  1  0  0  0  0
 84 81  1  0  0  0  0
 85 65  1  0  0  0  0
 86 85  1  0  0  0  0
 87 85  1  0  0  0  0
 88 85  1  0  0  0  0
 89 71  1  0  0  0  0
 90 89  1  0  0  0  0
 91 89  1  0  0  0  0
 92 89  1  0  0  0  0
 93 72  1  0  0  0  0
 94 93  1  0  0  0  0
 95 93  1  0  0  0  0
 96 93  1  0  0  0  0
 97  3  1  0  0  0  0
 98  4  1  0  0  0  0
 99101  1  0  0  0  0
100102  1  0  0  0  0
101 97  4  0  0  0  0
102 98  4  0  0  0  0
103106  1  0  0  0  0
104105  1  0  0  0  0
105102  4  0  0  0  0
106101  4  0  0  0  0
107109  1  0  0  0  0
108110  1  0  0  0  0
109106  4  0  0  0  0
110105  4  0  0  0  0
111113  1  0  0  0  0
112114  1  0  0  0  0
113109  4  0  0  0  0
114110  4  0  0  0  0
115118  1  0  0  0  0
116117  1  0  0  0  0
117 98  4  0  0  0  0
118 97  4  0  0  0  0
119  3  1  0  0  0  0
120  4  1  0  0  0  0
121123  1  0  0  0  0
122124  1  0  0  0  0
123120  4  0  0  0  0
124119  4  0  0  0  0
125127  1  0  0  0  0
126128  1  0  0  0  0
127124  4  0  0  0  0
128123  4  0  0  0  0
129130  1  0  0  0  0
130128  4  0  0  0  0
131132  1  0  0  0  0
132127  4  0  0  0  0
133134  1  0  0  0  0
134130  4  0  0  0  0
135132  4  0  0  0  0
136135  1  0  0  0  0
137139  1  0  0  0  0
138140  1  0  0  0  0
139119  4  0  0  0  0
140120  4  0  0  0  0
141 15  1  0  0  0  0
142 13  1  0  0  0  0
143141  4  0  0  0  0
144143  1  0  0  0  0
145142  4  0  0  0  0
146145  1  0  0  0  0
147143  4  0  0  0  0
148147  1  0  0  0  0
149145  4  0  0  0  0
150149  1  0  0  0  0
151147  4  0  0  0  0
152151  1  0  0  0  0
153149  4  0  0  0  0
154153  1  0  0  0  0
155153  4  0  0  0  0
156155  1  0  0  0  0
157151  4  0  0  0  0
158157  1  0  0  0  0
159141  4  0  0  0  0
160159  1  0  0  0  0
161142  4  0  0  0  0
162161  1  0  0  0  0
  7 12  2  0  0  0  0
  9 11  2  0  0  0  0
 11 12  1  0  0  0  0
 27 32  4  0  0  0  0
 29 31  4  0  0  0  0
 67 72  4  0  0  0  0
 69 71  4  0  0  0  0
113118  4  0  0  0  0
114117  4  0  0  0  0
134140  4  0  0  0  0
135139  4  0  0  0  0
155161  4  0  0  0  0
157159  4  0  0  0  0
M  CHG  4   1   1   2   1   3  -1   4  -1
M  END
$$$$
ACOYEA

From CSD data. Using bond type 'Any'. No disordered atoms. Largest molecule.
134138  0  0  0  0  0  0  0  0999 V2000
    3.6353    9.1036    8.1384 P   0  3  0  0  0  0  0  0  0  0  0  0
    4.0750   10.9917    5.8353 B   0  5  0  0  0  0  0  0  0  0  0  0
    3.9313   10.0533    6.9998 O   0  0  0  0  0  0  0  0  0  0  0  0
    5.0012   11.9962    6.3722 O   0  0  0  0  0  0  0  0  0  0  0  0
    4.6267   10.1600    4.5419 C   0  0  0  0  0  0  0  0  0  0  0  0
    4.9796   10.8354    3.9093 H   0  0  0  0  0  0  0  0  0  0  0  0
    3.8304    9.7612    4.1096 H   0  0  0  0  0  0  0  0  0  0  0  0
    3.8242   10.0809    9.6923 C   0  0  0  0  0  0  0  0  0  0  0  0
    3.0309   11.3923    9.6221 C   0  0  0  0  0  0  0  0  0  0  0  0
    2.0762   11.1929    9.5278 H   0  0  0  0  0  0  0  0  0  0  0  0
    3.3333   11.9168    8.8518 H   0  0  0  0  0  0  0  0  0  0  0  0
    3.1776   11.9078   10.4435 H   0  0  0  0  0  0  0  0  0  0  0  0
    5.3036   10.4690    9.8351 C   0  0  0  0  0  0  0  0  0  0  0  0
    5.8510    9.6570    9.8785 H   0  0  0  0  0  0  0  0  0  0  0  0
    5.4277   10.9899   10.6553 H   0  0  0  0  0  0  0  0  0  0  0  0
    5.5765   11.0061    9.0609 H   0  0  0  0  0  0  0  0  0  0  0  0
    3.4005    9.2816   10.9308 C   0  0  0  0  0  0  0  0  0  0  0  0
    3.9096    8.4445   10.9703 H   0  0  0  0  0  0  0  0  0  0  0  0
    2.4431    9.0786   10.8772 H   0  0  0  0  0  0  0  0  0  0  0  0
    3.5777    9.8097   11.7369 H   0  0  0  0  0  0  0  0  0  0  0  0
    1.9624    8.3834    7.8875 C   0  0  0  0  0  0  0  0  0  0  0  0
    1.7635    7.1404    8.7663 C   0  0  0  0  0  0  0  0  0  0  0  0
    1.8042    7.3972    9.7114 H   0  0  0  0  0  0  0  0  0  0  0  0
    2.4688    6.4883    8.5750 H   0  0  0  0  0  0  0  0  0  0  0  0
    0.8889    6.7416    8.5750 H   0  0  0  0  0  0  0  0  0  0  0  0
    0.8454    9.3930    8.1515 C   0  0  0  0  0  0  0  0  0  0  0  0
    0.8725    9.6714    9.0903 H   0  0  0  0  0  0  0  0  0  0  0  0
   -0.0209    8.9780    7.9577 H   0  0  0  0  0  0  0  0  0  0  0  0
    0.9701   10.1744    7.5737 H   0  0  0  0  0  0  0  0  0  0  0  0
    1.8892    7.9649    6.4092 C   0  0  0  0  0  0  0  0  0  0  0  0
    2.6094    7.3308    6.2141 H   0  0  0  0  0  0  0  0  0  0  0  0
    1.9884    8.7571    5.8417 H   0  0  0  0  0  0  0  0  0  0  0  0
    1.0238    7.5427    6.2319 H   0  0  0  0  0  0  0  0  0  0  0  0
    2.5913   11.6384    5.5330 C   0  0  0  0  0  0  0  0  0  0  0  0
    1.7184   11.2054    4.5509 C   0  0  0  0  0  0  0  0  0  0  0  0
    2.0107   10.5408    3.9374 H   0  0  0  0  0  0  0  0  0  0  0  0
    0.4329   11.7084    4.4297 C   0  0  0  0  0  0  0  0  0  0  0  0
   -0.0354   12.6802    5.3200 C   0  0  0  0  0  0  0  0  0  0  0  0
   -0.9246   13.0089    5.2626 H   0  0  0  0  0  0  0  0  0  0  0  0
    0.8305   13.1455    6.2842 C   0  0  0  0  0  0  0  0  0  0  0  0
    2.1243   12.6515    6.3825 C   0  0  0  0  0  0  0  0  0  0  0  0
    2.7076   13.0107    7.0419 H   0  0  0  0  0  0  0  0  0  0  0  0
   -0.4619   11.2288    3.3430 C   0  0  0  0  0  0  0  0  0  0  0  0
    0.3819   14.1748    7.2574 C   0  0  0  0  0  0  0  0  0  0  0  0
    5.3994   13.1239    5.7715 C   0  0  0  0  0  0  0  0  0  0  0  0
    4.9167   13.5766    4.5496 C   0  0  0  0  0  0  0  0  0  0  0  0
    4.2613   13.0772    4.0764 H   0  0  0  0  0  0  0  0  0  0  0  0
    5.4073   14.7729    4.0254 C   0  0  0  0  0  0  0  0  0  0  0  0
    6.3522   15.5202    4.6848 C   0  0  0  0  0  0  0  0  0  0  0  0
    6.6700   16.3375    4.3187 H   0  0  0  0  0  0  0  0  0  0  0  0
    6.8277   15.0514    5.8952 C   0  0  0  0  0  0  0  0  0  0  0  0
    6.3652   13.8712    6.4284 C   0  0  0  0  0  0  0  0  0  0  0  0
    6.7118   13.5622    7.2574 H   0  0  0  0  0  0  0  0  0  0  0  0
    4.8515   15.2687    2.7359 C   0  0  0  0  0  0  0  0  0  0  0  0
    7.8835   15.8130    6.6184 C   0  0  0  0  0  0  0  0  0  0  0  0
   -1.6470   10.9378    3.6810 F   0  0  0  0  0  0  0  0  0  0  0  0
   -0.5819   12.2060    2.3494 F   0  0  0  0  0  0  0  0  0  0  0  0
    0.0135   10.1546    2.6670 F   0  0  0  0  0  0  0  0  0  0  0  0
   -0.8216   14.6292    7.0470 F   0  0  0  0  0  0  0  0  0  0  0  0
    1.1494   15.2490    7.2485 F   0  0  0  0  0  0  0  0  0  0  0  0
    0.4249   13.7257    8.4870 F   0  0  0  0  0  0  0  0  0  0  0  0
    3.9035   16.3232    3.0292 F   0  0  0  0  0  0  0  0  0  0  0  0
    4.2061   14.3849    2.0408 F   0  0  0  0  0  0  0  0  0  0  0  0
    5.8097   15.7986    1.9362 F   0  0  0  0  0  0  0  0  0  0  0  0
    9.1650   15.2867    6.2753 F   0  0  0  0  0  0  0  0  0  0  0  0
    8.1102   17.0219    6.1146 F   0  0  0  0  0  0  0  0  0  0  0  0
    7.7279   15.8723    7.8658 F   0  0  0  0  0  0  0  0  0  0  0  0
    5.8543    8.8596    4.6163 P   0  3  0  0  0  0  0  0  0  0  0  0
    5.4146    6.9715    6.9194 B   0  5  0  0  0  0  0  0  0  0  0  0
    5.5584    7.9099    5.7549 O   0  0  0  0  0  0  0  0  0  0  0  0
    4.4885    5.9670    6.3825 O   0  0  0  0  0  0  0  0  0  0  0  0
    4.8630    7.8032    8.2127 C   0  0  0  0  0  0  0  0  0  0  0  0
    4.5101    7.1278    8.8454 H   0  0  0  0  0  0  0  0  0  0  0  0
    5.6593    8.2020    8.6451 H   0  0  0  0  0  0  0  0  0  0  0  0
    5.6655    7.8823    3.0624 C   0  0  0  0  0  0  0  0  0  0  0  0
    6.4587    6.5709    3.1326 C   0  0  0  0  0  0  0  0  0  0  0  0
    7.4135    6.7703    3.2269 H   0  0  0  0  0  0  0  0  0  0  0  0
    6.1563    6.0464    3.9029 H   0  0  0  0  0  0  0  0  0  0  0  0
    6.3121    6.0554    2.3112 H   0  0  0  0  0  0  0  0  0  0  0  0
    4.1861    7.4942    2.9196 C   0  0  0  0  0  0  0  0  0  0  0  0
    3.6386    8.3062    2.8762 H   0  0  0  0  0  0  0  0  0  0  0  0
    4.0619    6.9733    2.0994 H   0  0  0  0  0  0  0  0  0  0  0  0
    3.9132    6.9571    3.6938 H   0  0  0  0  0  0  0  0  0  0  0  0
    6.0892    8.6816    1.8239 C   0  0  0  0  0  0  0  0  0  0  0  0
    5.5801    9.5187    1.7844 H   0  0  0  0  0  0  0  0  0  0  0  0
    7.0465    8.8846    1.8775 H   0  0  0  0  0  0  0  0  0  0  0  0
    5.9120    8.1535    1.0178 H   0  0  0  0  0  0  0  0  0  0  0  0
    7.5273    9.5798    4.8672 C   0  0  0  0  0  0  0  0  0  0  0  0
    7.7262   10.8228    3.9884 C   0  0  0  0  0  0  0  0  0  0  0  0
    7.6854   10.5660    3.0433 H   0  0  0  0  0  0  0  0  0  0  0  0
    7.0208   11.4749    4.1797 H   0  0  0  0  0  0  0  0  0  0  0  0
    8.6008   11.2216    4.1797 H   0  0  0  0  0  0  0  0  0  0  0  0
    8.6443    8.5702    4.6032 C   0  0  0  0  0  0  0  0  0  0  0  0
    8.6171    8.2918    3.6644 H   0  0  0  0  0  0  0  0  0  0  0  0
    9.5106    8.9852    4.7970 H   0  0  0  0  0  0  0  0  0  0  0  0
    8.5196    7.7888    5.1810 H   0  0  0  0  0  0  0  0  0  0  0  0
    7.6005    9.9983    6.3455 C   0  0  0  0  0  0  0  0  0  0  0  0
    6.8802   10.6324    6.5406 H   0  0  0  0  0  0  0  0  0  0  0  0
    7.5012    9.2061    6.9130 H   0  0  0  0  0  0  0  0  0  0  0  0
    8.4659   10.4205    6.5228 H   0  0  0  0  0  0  0  0  0  0  0  0
    6.8984    6.3248    7.2217 C   0  0  0  0  0  0  0  0  0  0  0  0
    7.7712    6.7578    8.2038 C   0  0  0  0  0  0  0  0  0  0  0  0
    7.4790    7.4224    8.8173 H   0  0  0  0  0  0  0  0  0  0  0  0
    9.0568    6.2548    8.3250 C   0  0  0  0  0  0  0  0  0  0  0  0
    9.5251    5.2830    7.4347 C   0  0  0  0  0  0  0  0  0  0  0  0
   10.4142    4.9543    7.4921 H   0  0  0  0  0  0  0  0  0  0  0  0
    8.6592    4.8177    6.4705 C   0  0  0  0  0  0  0  0  0  0  0  0
    7.3653    5.3117    6.3722 C   0  0  0  0  0  0  0  0  0  0  0  0
    6.7821    4.9525    5.7128 H   0  0  0  0  0  0  0  0  0  0  0  0
    9.9516    6.7344    9.4117 C   0  0  0  0  0  0  0  0  0  0  0  0
    9.1077    3.7884    5.4973 C   0  0  0  0  0  0  0  0  0  0  0  0
    4.0903    4.8393    6.9832 C   0  0  0  0  0  0  0  0  0  0  0  0
    4.5730    4.3866    8.2051 C   0  0  0  0  0  0  0  0  0  0  0  0
    5.2284    4.8860    8.6783 H   0  0  0  0  0  0  0  0  0  0  0  0
    4.0823    3.1903    8.7293 C   0  0  0  0  0  0  0  0  0  0  0  0
    3.1374    2.4430    8.0699 C   0  0  0  0  0  0  0  0  0  0  0  0
    2.8197    1.6257    8.4360 H   0  0  0  0  0  0  0  0  0  0  0  0
    2.6620    2.9118    6.8595 C   0  0  0  0  0  0  0  0  0  0  0  0
    3.1244    4.0920    6.3263 C   0  0  0  0  0  0  0  0  0  0  0  0
    2.7779    4.4010    5.4973 H   0  0  0  0  0  0  0  0  0  0  0  0
    4.6382    2.6945   10.0188 C   0  0  0  0  0  0  0  0  0  0  0  0
    1.6061    2.1502    6.1363 C   0  0  0  0  0  0  0  0  0  0  0  0
   11.1366    7.0254    9.0737 F   0  0  0  0  0  0  0  0  0  0  0  0
   10.0716    5.7572   10.4053 F   0  0  0  0  0  0  0  0  0  0  0  0
    9.4761    7.8086   10.0877 F   0  0  0  0  0  0  0  0  0  0  0  0
   10.3112    3.3340    5.7077 F   0  0  0  0  0  0  0  0  0  0  0  0
    8.3403    2.7142    5.5062 F   0  0  0  0  0  0  0  0  0  0  0  0
    9.0647    4.2375    4.2677 F   0  0  0  0  0  0  0  0  0  0  0  0
    5.5861    1.6400    9.7255 F   0  0  0  0  0  0  0  0  0  0  0  0
    5.2835    3.5783   10.7139 F   0  0  0  0  0  0  0  0  0  0  0  0
    3.6799    2.1646   10.8185 F   0  0  0  0  0  0  0  0  0  0  0  0
    0.3246    2.6765    6.4794 F   0  0  0  0  0  0  0  0  0  0  0  0
    1.3795    0.9413    6.6401 F   0  0  0  0  0  0  0  0  0  0  0  0
    1.7618    2.0909    4.8889 F   0  0  0  0  0  0  0  0  0  0  0  0
  1  3  1  0  0  0  0
  2  3  1  0  0  0  0
  4  2  1  0  0  0  0
  5  2  1  0  0  0  0
  6  5  1  0  0  0  0
  7  5  1  0  0  0  0
  8  1  1  0  0  0  0
  9  8  1  0  0  0  0
 10  9  1  0  0  0  0
 11  9  1  0  0  0  0
 12  9  1  0  0  0  0
 13  8  1  0  0  0  0
 14 13  1  0  0  0  0
 15 13  1  0  0  0  0
 16 13  1  0  0  0  0
 17  8  1  0  0  0  0
 18 17  1  0  0  0  0
 19 17  1  0  0  0  0
 20 17  1  0  0  0  0
 21  1  1  0  0  0  0
 22 21  1  0  0  0  0
 23 22  1  0  0  0  0
 24 22  1  0  0  0  0
 25 22  1  0  0  0  0
 26 21  1  0  0  0  0
 27 26  1  0  0  0  0
 28 26  1  0  0  0  0
 29 26  1  0  0  0  0
 30 21  1  0  0  0  0
 31 30  1  0  0  0  0
 32 30  1  0  0  0  0
 33 30  1  0  0  0  0
 34  2  1  0  0  0  0
 35 34  4  0  0  0  0
 36 35  1  0  0  0  0
 37 35  4  0  0  0  0
 38 37  4  0  0  0  0
 39 38  1  0  0  0  0
 40 38  4  0  0  0  0
 41 34  4  0  0  0  0
 42 41  1  0  0  0  0
 43 37  1  0  0  0  0
 44 40  1  0  0  0  0
 45  4  1  0  0  0  0
 46 45  4  0  0  0  0
 47 46  1  0  0  0  0
 48 46  4  0  0  0  0
 49 48  4  0  0  0  0
 50 49  1  0  0  0  0
 51 49  4  0  0  0  0
 52 45  4  0  0  0  0
 53 52  1  0  0  0  0
 54 48  1  0  0  0  0
 55 51  1  0  0  0  0
 56 43  1  0  0  0  0
 57 43  1  0  0  0  0
 58 43  1  0  0  0  0
 59 44  1  0  0  0  0
 60 44  1  0  0  0  0
 61 44  1  0  0  0  0
 62 54  1  0  0  0  0
 63 54  1  0  0  0  0
 64 54  1  0  0  0  0
 65 55  1  0  0  0  0
 66 55  1  0  0  0  0
 67 55  1  0  0  0  0
 68  5  1  0  0  0  0
 69 70  1  0  0  0  0
 70 68  1  0  0  0  0
 71 69  1  0  0  0  0
 72  1  1  0  0  0  0
 73 72  1  0  0  0  0
 74 72  1  0  0  0  0
 75 68  1  0  0  0  0
 76 75  1  0  0  0  0
 77 76  1  0  0  0  0
 78 76  1  0  0  0  0
 79 76  1  0  0  0  0
 80 75  1  0  0  0  0
 81 80  1  0  0  0  0
 82 80  1  0  0  0  0
 83 80  1  0  0  0  0
 84 75  1  0  0  0  0
 85 84  1  0  0  0  0
 86 84  1  0  0  0  0
 87 84  1  0  0  0  0
 88 68  1  0  0  0  0
 89 88  1  0  0  0  0
 90 89  1  0  0  0  0
 91 89  1  0  0  0  0
 92 89  1  0  0  0  0
 93 88  1  0  0  0  0
 94 93  1  0  0  0  0
 95 93  1  0  0  0  0
 96 93  1  0  0  0  0
 97 88  1  0  0  0  0
 98 97  1  0  0  0  0
 99 97  1  0  0  0  0
100 97  1  0  0  0  0
101 69  1  0  0  0  0
102101  4  0  0  0  0
103102  1  0  0  0  0
104102  4  0  0  0  0
105104  4  0  0  0  0
106105  1  0  0  0  0
107105  4  0  0  0  0
108101  4  0  0  0  0
109108  1  0  0  0  0
110104  1  0  0  0  0
111107  1  0  0  0  0
112 71  1  0  0  0  0
113112  4  0  0  0  0
114113  1  0  0  0  0
115113  4  0  0  0  0
116115  4  0  0  0  0
117116  1  0  0  0  0
118116  4  0  0  0  0
119112  4  0  0  0  0
120119  1  0  0  0  0
121115  1  0  0  0  0
122118  1  0  0  0  0
123110  1  0  0  0  0
124110  1  0  0  0  0
125110  1  0  0  0  0
126111  1  0  0  0  0
127111  1  0  0  0  0
128111  1  0  0  0  0
129121  1  0  0  0  0
130121  1  0  0  0  0
131121  1  0  0  0  0
132122  1  0  0  0  0
133122  1  0  0  0  0
134122  1  0  0  0  0
 40 41  4  0  0  0  0
 51 52  4  0  0  0  0
 69 72  1  0  0  0  0
107108  4  0  0  0  0
118119  4  0  0  0  0
M  CHG  4   1   1   2  -1  68   1  69  -1
M  END
$$$$
ACOZIF

From CSD data. Using bond type 'Any'. No disordered atoms. Largest molecule.
110114  0  0  0  0  0  0  0  0999 V2000
    6.2642    8.6903    8.5573 P   0  3  0  0  0  0  0  0  0  0  0  0
    3.5122    8.1297    8.0400 B   0  5  0  0  0  0  0  0  0  0  0  0
    7.0815    7.3950    8.5564 O   0  0  0  0  0  0  0  0  0  0  0  0
    4.9632    8.5173    7.7742 O   0  0  0  0  0  0  0  0  0  0  0  0
    5.9221    9.1875   10.2267 C   0  0  0  0  0  0  0  0  0  0  0  0
    6.7642    9.2944   10.7153 H   0  0  0  0  0  0  0  0  0  0  0  0
    5.4373   10.0399   10.2210 H   0  0  0  0  0  0  0  0  0  0  0  0
    5.3745    8.5032   10.6666 H   0  0  0  0  0  0  0  0  0  0  0  0
    7.2604    9.9145    7.6570 C   0  0  0  0  0  0  0  0  0  0  0  0
    6.5683   11.2687    7.7075 C   0  0  0  0  0  0  0  0  0  0  0  0
    5.6834   11.1989    7.2898 H   0  0  0  0  0  0  0  0  0  0  0  0
    6.4652   11.5481    8.6422 H   0  0  0  0  0  0  0  0  0  0  0  0
    7.1072   11.9302    7.2271 H   0  0  0  0  0  0  0  0  0  0  0  0
    8.6469    9.9929    8.3080 C   0  0  0  0  0  0  0  0  0  0  0  0
    9.0766    9.1133    8.2663 H   0  0  0  0  0  0  0  0  0  0  0  0
    9.1955   10.6486    7.8276 H   0  0  0  0  0  0  0  0  0  0  0  0
    8.5526   10.2666    9.2445 H   0  0  0  0  0  0  0  0  0  0  0  0
    7.4056    9.4469    6.1932 C   0  0  0  0  0  0  0  0  0  0  0  0
    7.8512    8.5759    6.1705 H   0  0  0  0  0  0  0  0  0  0  0  0
    6.5171    9.3699    5.7859 H   0  0  0  0  0  0  0  0  0  0  0  0
    7.9369   10.1012    5.6936 H   0  0  0  0  0  0  0  0  0  0  0  0
    2.7915    9.2787    8.9006 C   0  0  0  0  0  0  0  0  0  0  0  0
    2.1266    9.0364   10.0870 C   0  0  0  0  0  0  0  0  0  0  0  0
    2.0616    8.1454   10.4107 H   0  0  0  0  0  0  0  0  0  0  0  0
    1.5482   10.0699   10.8180 C   0  0  0  0  0  0  0  0  0  0  0  0
    1.6169   11.3671   10.3690 C   0  0  0  0  0  0  0  0  0  0  0  0
    1.2193   12.0713   10.8650 H   0  0  0  0  0  0  0  0  0  0  0  0
    2.2681   11.6251    9.1958 C   0  0  0  0  0  0  0  0  0  0  0  0
    2.8324   10.6002    8.4647 C   0  0  0  0  0  0  0  0  0  0  0  0
    3.2619   10.8012    7.6431 H   0  0  0  0  0  0  0  0  0  0  0  0
    0.8377    9.7962   12.0974 C   0  0  0  0  0  0  0  0  0  0  0  0
    2.4050   13.0364    8.6979 C   0  0  0  0  0  0  0  0  0  0  0  0
    2.8437    7.9059    6.5853 C   0  0  0  0  0  0  0  0  0  0  0  0
    3.3319    8.5260    5.4492 C   0  0  0  0  0  0  0  0  0  0  0  0
    4.1015    9.0791    5.5178 H   0  0  0  0  0  0  0  0  0  0  0  0
    2.7283    8.3635    4.2139 C   0  0  0  0  0  0  0  0  0  0  0  0
    1.6360    7.5681    4.0557 C   0  0  0  0  0  0  0  0  0  0  0  0
    1.2379    7.4526    3.2010 H   0  0  0  0  0  0  0  0  0  0  0  0
    1.1224    6.9352    5.1697 C   0  0  0  0  0  0  0  0  0  0  0  0
    1.7099    7.1190    6.4181 C   0  0  0  0  0  0  0  0  0  0  0  0
    1.3249    6.6957    7.1766 H   0  0  0  0  0  0  0  0  0  0  0  0
    3.3103    9.0806    3.0357 C   0  0  0  0  0  0  0  0  0  0  0  0
   -0.0911    6.0998    5.0270 C   0  0  0  0  0  0  0  0  0  0  0  0
   -0.3468   10.2866   12.1200 F   0  0  0  0  0  0  0  0  0  0  0  0
    1.5166   10.4476   13.1226 F   0  0  0  0  0  0  0  0  0  0  0  0
    0.7687    8.5446   12.4473 F   0  0  0  0  0  0  0  0  0  0  0  0
    3.1613   13.7121    9.6536 F   0  0  0  0  0  0  0  0  0  0  0  0
    1.2489   13.6636    8.6457 F   0  0  0  0  0  0  0  0  0  0  0  0
    3.0733   13.1846    7.6483 F   0  0  0  0  0  0  0  0  0  0  0  0
    3.0533   10.4248    3.1714 F   0  0  0  0  0  0  0  0  0  0  0  0
    2.8761    8.7299    1.8642 F   0  0  0  0  0  0  0  0  0  0  0  0
    4.6267    9.0635    2.9869 F   0  0  0  0  0  0  0  0  0  0  0  0
   -0.4246    5.4270    6.0887 F   0  0  0  0  0  0  0  0  0  0  0  0
   -1.0604    6.7342    4.5361 F   0  0  0  0  0  0  0  0  0  0  0  0
    0.1703    5.0991    4.0800 F   0  0  0  0  0  0  0  0  0  0  0  0
    4.3117    5.5649    8.8490 P   0  3  0  0  0  0  0  0  0  0  0  0
    7.0637    6.1255    9.3664 B   0  5  0  0  0  0  0  0  0  0  0  0
    3.4944    6.8602    8.8499 O   0  0  0  0  0  0  0  0  0  0  0  0
    5.6127    5.7379    9.6321 O   0  0  0  0  0  0  0  0  0  0  0  0
    4.6538    5.0677    7.1796 C   0  0  0  0  0  0  0  0  0  0  0  0
    3.8117    4.9608    6.6910 H   0  0  0  0  0  0  0  0  0  0  0  0
    5.1386    4.2153    7.1853 H   0  0  0  0  0  0  0  0  0  0  0  0
    5.2014    5.7520    6.7397 H   0  0  0  0  0  0  0  0  0  0  0  0
    3.3156    4.3407    9.7493 C   0  0  0  0  0  0  0  0  0  0  0  0
    4.0076    2.9865    9.6988 C   0  0  0  0  0  0  0  0  0  0  0  0
    4.8925    3.0563   10.1166 H   0  0  0  0  0  0  0  0  0  0  0  0
    4.1107    2.7071    8.7641 H   0  0  0  0  0  0  0  0  0  0  0  0
    3.4687    2.3250   10.1792 H   0  0  0  0  0  0  0  0  0  0  0  0
    1.9291    4.2623    9.0983 C   0  0  0  0  0  0  0  0  0  0  0  0
    1.4993    5.1419    9.1401 H   0  0  0  0  0  0  0  0  0  0  0  0
    1.3804    3.6066    9.5787 H   0  0  0  0  0  0  0  0  0  0  0  0
    2.0233    3.9886    8.1618 H   0  0  0  0  0  0  0  0  0  0  0  0
    3.1703    4.8083   11.2132 C   0  0  0  0  0  0  0  0  0  0  0  0
    2.7247    5.6793   11.2358 H   0  0  0  0  0  0  0  0  0  0  0  0
    4.0588    4.8853   11.6205 H   0  0  0  0  0  0  0  0  0  0  0  0
    2.6390    4.1540   11.7127 H   0  0  0  0  0  0  0  0  0  0  0  0
    7.7844    4.9765    8.5058 C   0  0  0  0  0  0  0  0  0  0  0  0
    8.4494    5.2188    7.3194 C   0  0  0  0  0  0  0  0  0  0  0  0
    8.5143    6.1098    6.9956 H   0  0  0  0  0  0  0  0  0  0  0  0
    9.0277    4.1853    6.5883 C   0  0  0  0  0  0  0  0  0  0  0  0
    8.9590    2.8881    7.0374 C   0  0  0  0  0  0  0  0  0  0  0  0
    9.3566    2.1839    6.5413 H   0  0  0  0  0  0  0  0  0  0  0  0
    8.3078    2.6301    8.2106 C   0  0  0  0  0  0  0  0  0  0  0  0
    7.7435    3.6550    8.9416 C   0  0  0  0  0  0  0  0  0  0  0  0
    7.3140    3.4540    9.7632 H   0  0  0  0  0  0  0  0  0  0  0  0
    9.7382    4.4590    5.3089 C   0  0  0  0  0  0  0  0  0  0  0  0
    8.1709    1.2188    8.7084 C   0  0  0  0  0  0  0  0  0  0  0  0
    7.7322    6.3493   10.8210 C   0  0  0  0  0  0  0  0  0  0  0  0
    7.2440    5.7292   11.9571 C   0  0  0  0  0  0  0  0  0  0  0  0
    6.4744    5.1761   11.8885 H   0  0  0  0  0  0  0  0  0  0  0  0
    7.8476    5.8917   13.1924 C   0  0  0  0  0  0  0  0  0  0  0  0
    8.9399    6.6871   13.3507 C   0  0  0  0  0  0  0  0  0  0  0  0
    9.3380    6.8026   14.2053 H   0  0  0  0  0  0  0  0  0  0  0  0
    9.4535    7.3200   12.2367 C   0  0  0  0  0  0  0  0  0  0  0  0
    8.8660    7.1362   10.9883 C   0  0  0  0  0  0  0  0  0  0  0  0
    9.2511    7.5595   10.2297 H   0  0  0  0  0  0  0  0  0  0  0  0
    7.2656    5.1746   14.3707 C   0  0  0  0  0  0  0  0  0  0  0  0
   10.6670    8.1554   12.3794 C   0  0  0  0  0  0  0  0  0  0  0  0
   10.9227    3.9686    5.2863 F   0  0  0  0  0  0  0  0  0  0  0  0
    9.0594    3.8076    4.2837 F   0  0  0  0  0  0  0  0  0  0  0  0
    9.8072    5.7106    4.9591 F   0  0  0  0  0  0  0  0  0  0  0  0
    7.4146    0.5431    7.7528 F   0  0  0  0  0  0  0  0  0  0  0  0
    9.3270    0.5916    8.7606 F   0  0  0  0  0  0  0  0  0  0  0  0
    7.5026    1.0706    9.7580 F   0  0  0  0  0  0  0  0  0  0  0  0
    7.5226    3.8304   14.2349 F   0  0  0  0  0  0  0  0  0  0  0  0
    7.6998    5.5253   15.5421 F   0  0  0  0  0  0  0  0  0  0  0  0
    5.9492    5.1917   14.4194 F   0  0  0  0  0  0  0  0  0  0  0  0
   11.0005    8.8282   11.3176 F   0  0  0  0  0  0  0  0  0  0  0  0
   11.6363    7.5210   12.8702 F   0  0  0  0  0  0  0  0  0  0  0  0
   10.4056    9.1561   13.3263 F   0  0  0  0  0  0  0  0  0  0  0  0
  1  3  1  0  0  0  0
  2  4  1  0  0  0  0
  3 57  1  0  0  0  0
  4  1  1  0  0  0  0
  5  1  1  0  0  0  0
  6  5  1  0  0  0  0
  7  5  1  0  0  0  0
  8  5  1  0  0  0  0
  9  1  1  0  0  0  0
 10  9  1  0  0  0  0
 11 10  1  0  0  0  0
 12 10  1  0  0  0  0
 13 10  1  0  0  0  0
 14  9  1  0  0  0  0
 15 14  1  0  0  0  0
 16 14  1  0  0  0  0
 17 14  1  0  0  0  0
 18  9  1  0  0  0  0
 19 18  1  0  0  0  0
 20 18  1  0  0  0  0
 21 18  1  0  0  0  0
 22  2  1  0  0  0  0
 23 22  4  0  0  0  0
 24 23  1  0  0  0  0
 25 23  4  0  0  0  0
 26 25  4  0  0  0  0
 27 26  1  0  0  0  0
 28 26  4  0  0  0  0
 29 22  4  0  0  0  0
 30 29  1  0  0  0  0
 31 25  1  0  0  0  0
 32 28  1  0  0  0  0
 33  2  1  0  0  0  0
 34 33  4  0  0  0  0
 35 34  1  0  0  0  0
 36 34  4  0  0  0  0
 37 36  4  0  0  0  0
 38 37  1  0  0  0  0
 39 37  4  0  0  0  0
 40 33  4  0  0  0  0
 41 40  1  0  0  0  0
 42 36  1  0  0  0  0
 43 39  1  0  0  0  0
 44 31  1  0  0  0  0
 45 31  1  0  0  0  0
 46 31  1  0  0  0  0
 47 32  1  0  0  0  0
 48 32  1  0  0  0  0
 49 32  1  0  0  0  0
 50 42  1  0  0  0  0
 51 42  1  0  0  0  0
 52 42  1  0  0  0  0
 53 43  1  0  0  0  0
 54 43  1  0  0  0  0
 55 43  1  0  0  0  0
 56 58  1  0  0  0  0
 57 59  1  0  0  0  0
 58  2  1  0  0  0  0
 59 56  1  0  0  0  0
 60 56  1  0  0  0  0
 61 60  1  0  0  0  0
 62 60  1  0  0  0  0
 63 60  1  0  0  0  0
 64 56  1  0  0  0  0
 65 64  1  0  0  0  0
 66 65  1  0  0  0  0
 67 65  1  0  0  0  0
 68 65  1  0  0  0  0
 69 64  1  0  0  0  0
 70 69  1  0  0  0  0
 71 69  1  0  0  0  0
 72 69  1  0  0  0  0
 73 64  1  0  0  0  0
 74 73  1  0  0  0  0
 75 73  1  0  0  0  0
 76 73  1  0  0  0  0
 77 57  1  0  0  0  0
 78 77  4  0  0  0  0
 79 78  1  0  0  0  0
 80 78  4  0  0  0  0
 81 80  4  0  0  0  0
 82 81  1  0  0  0  0
 83 81  4  0  0  0  0
 84 77  4  0  0  0  0
 85 84  1  0  0  0  0
 86 80  1  0  0  0  0
 87 83  1  0  0  0  0
 88 57  1  0  0  0  0
 89 88  4  0  0  0  0
 90 89  1  0  0  0  0
 91 89  4  0  0  0  0
 92 91  4  0  0  0  0
 93 92  1  0  0  0  0
 94 92  4  0  0  0  0
 95 88  4  0  0  0  0
 96 95  1  0  0  0  0
 97 91  1  0  0  0  0
 98 94  1  0  0  0  0
 99 86  1  0  0  0  0
100 86  1  0  0  0  0
101 86  1  0  0  0  0
102 87  1  0  0  0  0
103 87  1  0  0  0  0
104 87  1  0  0  0  0
105 97  1  0  0  0  0
106 97  1  0  0  0  0
107 97  1  0  0  0  0
108 98  1  0  0  0  0
109 98  1  0  0  0  0
110 98  1  0  0  0  0
 28 29  4  0  0  0  0
 39 40  4  0  0  0  0
 83 84  4  0  0  0  0
 94 95  4  0  0  0  0
M  CHG  4   1   1   2  -1  56   1  57  -1
M  END
$$$$
AJAYOB

From CSD data. Using bond type 'Any'. No disordered atoms. Largest molecule.
124130  0  0  0  0  0  0  0  0999 V2000
    2.3565    5.8706    8.9488 Ca  0  0  0  0  0  0  0  0  0  0  0  0
    1.9493    9.1654    8.4208 P   0  3  0  0  0  0  0  0  0  0  0  0
    0.6959    7.0386    6.3784 Si  0  0  0  0  0  0  0  0  0  0  0  0
    3.7513   11.2792    9.8028 Si  0  0  0  0  0  0  0  0  0  0  0  0
    1.4567    8.2827   10.0728 B   0  5  0  0  0  0  0  0  0  0  0  0
    1.1969    8.9752   10.8415 H   0  0  0  0  0  0  0  0  0  0  0  0
    0.6565    7.4932    9.8337 H   0  0  0  0  0  0  0  0  0  0  0  0
    2.4230    7.7577   10.4231 H   0  0  0  0  0  0  0  0  0  0  0  0
    1.3863    4.7125   10.7751 O   0  0  0  0  0  0  0  0  0  0  0  0
    0.6343   10.3589    7.9545 C   0  0  0  0  0  0  0  0  0  0  0  0
   -0.4719   10.5860    8.7547 C   0  0  0  0  0  0  0  0  0  0  0  0
   -0.5921   10.0708    9.5432 H   0  0  0  0  0  0  0  0  0  0  0  0
   -1.4058   11.5514    8.4258 C   0  0  0  0  0  0  0  0  0  0  0  0
   -2.1431   11.7121    9.0019 H   0  0  0  0  0  0  0  0  0  0  0  0
   -1.2675   12.2799    7.2620 C   0  0  0  0  0  0  0  0  0  0  0  0
   -1.9158   12.9337    7.0279 H   0  0  0  0  0  0  0  0  0  0  0  0
   -0.1828   12.0514    6.4435 C   0  0  0  0  0  0  0  0  0  0  0  0
   -0.0801   12.5514    5.6432 H   0  0  0  0  0  0  0  0  0  0  0  0
    0.7520   11.0999    6.7838 C   0  0  0  0  0  0  0  0  0  0  0  0
    1.4924   10.9461    6.2077 H   0  0  0  0  0  0  0  0  0  0  0  0
    2.1299    7.8810    7.1863 C   0  0  0  0  0  0  0  0  0  0  0  0
    2.6330    8.2757    6.5248 H   0  0  0  0  0  0  0  0  0  0  0  0
    0.2233    5.4156    7.2238 C   0  0  0  0  0  0  0  0  0  0  0  0
   -0.1364    5.5402    8.0523 H   0  0  0  0  0  0  0  0  0  0  0  0
    0.8999    4.7646    7.1723 H   0  0  0  0  0  0  0  0  0  0  0  0
   -0.5330    4.9862    6.8502 H   0  0  0  0  0  0  0  0  0  0  0  0
   -0.9182    7.9724    6.2675 C   0  0  0  0  0  0  0  0  0  0  0  0
   -0.7836    8.7993    5.7611 H   0  0  0  0  0  0  0  0  0  0  0  0
   -1.2313    8.1899    7.1707 H   0  0  0  0  0  0  0  0  0  0  0  0
   -1.5865    7.4156    5.8159 H   0  0  0  0  0  0  0  0  0  0  0  0
    1.2290    6.5776    4.6466 C   0  0  0  0  0  0  0  0  0  0  0  0
    1.3560    7.3921    4.1158 H   0  0  0  0  0  0  0  0  0  0  0  0
    0.5400    6.0209    4.2303 H   0  0  0  0  0  0  0  0  0  0  0  0
    2.0728    6.0804    4.6853 H   0  0  0  0  0  0  0  0  0  0  0  0
    3.4768   10.0084    8.5007 C   0  0  0  0  0  0  0  0  0  0  0  0
    3.5824   10.4018    7.7899 H   0  0  0  0  0  0  0  0  0  0  0  0
    5.1369   12.3797    9.2593 C   0  0  0  0  0  0  0  0  0  0  0  0
    5.9605   11.8533    9.1846 H   0  0  0  0  0  0  0  0  0  0  0  0
    4.9195   12.7716    8.3893 H   0  0  0  0  0  0  0  0  0  0  0  0
    5.2637   13.0944    9.9184 H   0  0  0  0  0  0  0  0  0  0  0  0
    2.2945   12.3755   10.1824 C   0  0  0  0  0  0  0  0  0  0  0  0
    1.9794   12.7966    9.3556 H   0  0  0  0  0  0  0  0  0  0  0  0
    1.5734   11.8367   10.5692 H   0  0  0  0  0  0  0  0  0  0  0  0
    2.5639   13.0680   10.8199 H   0  0  0  0  0  0  0  0  0  0  0  0
    4.2140   10.5154   11.4415 C   0  0  0  0  0  0  0  0  0  0  0  0
    5.0971   10.0957   11.3678 H   0  0  0  0  0  0  0  0  0  0  0  0
    4.2393   11.2107   12.1315 H   0  0  0  0  0  0  0  0  0  0  0  0
    3.5500    9.8381   11.6849 H   0  0  0  0  0  0  0  0  0  0  0  0
    1.1470    5.2494   12.0917 C   0  0  0  0  0  0  0  0  0  0  0  0
    0.5329    4.6510   12.5864 H   0  0  0  0  0  0  0  0  0  0  0  0
    0.7144    6.1372   12.0136 H   0  0  0  0  0  0  0  0  0  0  0  0
    2.3952    5.3796   12.8255 C   0  0  0  0  0  0  0  0  0  0  0  0
    2.2113    5.7161   13.7270 H   0  0  0  0  0  0  0  0  0  0  0  0
    2.9861    6.0042   12.3573 H   0  0  0  0  0  0  0  0  0  0  0  0
    2.8311    4.5028   12.8869 H   0  0  0  0  0  0  0  0  0  0  0  0
    0.7570    3.4405   10.5764 C   0  0  0  0  0  0  0  0  0  0  0  0
    0.7687    3.2272    9.6096 H   0  0  0  0  0  0  0  0  0  0  0  0
   -0.1890    3.5056   10.8581 H   0  0  0  0  0  0  0  0  0  0  0  0
    1.4032    2.3269   11.3197 C   0  0  0  0  0  0  0  0  0  0  0  0
    0.9416    1.4876   11.1154 H   0  0  0  0  0  0  0  0  0  0  0  0
    1.3494    2.5028   12.2826 H   0  0  0  0  0  0  0  0  0  0  0  0
    2.3432    2.2576   11.0523 H   0  0  0  0  0  0  0  0  0  0  0  0
    4.7696    7.9800    7.6538 Ca  0  0  0  0  0  0  0  0  0  0  0  0
    5.1768    4.6852    8.1818 P   0  3  0  0  0  0  0  0  0  0  0  0
    6.4302    6.8120   10.2242 Si  0  0  0  0  0  0  0  0  0  0  0  0
    3.3748    2.5714    6.7998 Si  0  0  0  0  0  0  0  0  0  0  0  0
    5.6695    5.5679    6.5298 B   0  5  0  0  0  0  0  0  0  0  0  0
    5.9292    4.8754    5.7611 H   0  0  0  0  0  0  0  0  0  0  0  0
    6.4697    6.3574    6.7689 H   0  0  0  0  0  0  0  0  0  0  0  0
    4.7032    6.0929    6.1795 H   0  0  0  0  0  0  0  0  0  0  0  0
    5.7399    9.1381    5.8275 O   0  0  0  0  0  0  0  0  0  0  0  0
    6.4919    3.4917    8.6481 C   0  0  0  0  0  0  0  0  0  0  0  0
    7.5980    3.2646    7.8479 C   0  0  0  0  0  0  0  0  0  0  0  0
    7.7182    3.7798    7.0594 H   0  0  0  0  0  0  0  0  0  0  0  0
    8.5319    2.2992    8.1768 C   0  0  0  0  0  0  0  0  0  0  0  0
    9.2692    2.1385    7.6007 H   0  0  0  0  0  0  0  0  0  0  0  0
    8.3936    1.5707    9.3406 C   0  0  0  0  0  0  0  0  0  0  0  0
    9.0419    0.9169    9.5747 H   0  0  0  0  0  0  0  0  0  0  0  0
    7.3089    1.7992   10.1591 C   0  0  0  0  0  0  0  0  0  0  0  0
    7.2062    1.2992   10.9594 H   0  0  0  0  0  0  0  0  0  0  0  0
    6.3742    2.7507    9.8188 C   0  0  0  0  0  0  0  0  0  0  0  0
    5.6337    2.9045   10.3949 H   0  0  0  0  0  0  0  0  0  0  0  0
    4.9963    5.9696    9.4163 C   0  0  0  0  0  0  0  0  0  0  0  0
    4.4931    5.5749   10.0778 H   0  0  0  0  0  0  0  0  0  0  0  0
    6.9028    8.4350    9.3788 C   0  0  0  0  0  0  0  0  0  0  0  0
    7.2626    8.3104    8.5503 H   0  0  0  0  0  0  0  0  0  0  0  0
    6.2263    9.0860    9.4303 H   0  0  0  0  0  0  0  0  0  0  0  0
    7.6591    8.8644    9.7524 H   0  0  0  0  0  0  0  0  0  0  0  0
    8.0443    5.8782   10.3351 C   0  0  0  0  0  0  0  0  0  0  0  0
    7.9098    5.0513   10.8415 H   0  0  0  0  0  0  0  0  0  0  0  0
    8.3574    5.6607    9.4319 H   0  0  0  0  0  0  0  0  0  0  0  0
    8.7126    6.4350   10.7867 H   0  0  0  0  0  0  0  0  0  0  0  0
    5.8971    7.2730   11.9560 C   0  0  0  0  0  0  0  0  0  0  0  0
    5.7701    6.4585   12.4868 H   0  0  0  0  0  0  0  0  0  0  0  0
    6.5861    7.8297   12.3723 H   0  0  0  0  0  0  0  0  0  0  0  0
    5.0533    7.7702   11.9173 H   0  0  0  0  0  0  0  0  0  0  0  0
    3.6494    3.8422    8.1019 C   0  0  0  0  0  0  0  0  0  0  0  0
    3.5437    3.4488    8.8127 H   0  0  0  0  0  0  0  0  0  0  0  0
    1.9893    1.4709    7.3433 C   0  0  0  0  0  0  0  0  0  0  0  0
    1.1656    1.9973    7.4180 H   0  0  0  0  0  0  0  0  0  0  0  0
    2.2066    1.0790    8.2133 H   0  0  0  0  0  0  0  0  0  0  0  0
    1.8624    0.7562    6.6842 H   0  0  0  0  0  0  0  0  0  0  0  0
    4.8316    1.4751    6.4202 C   0  0  0  0  0  0  0  0  0  0  0  0
    5.1467    1.0540    7.2470 H   0  0  0  0  0  0  0  0  0  0  0  0
    5.5528    2.0139    6.0334 H   0  0  0  0  0  0  0  0  0  0  0  0
    4.5622    0.7826    5.7827 H   0  0  0  0  0  0  0  0  0  0  0  0
    2.9122    3.3352    5.1611 C   0  0  0  0  0  0  0  0  0  0  0  0
    2.0290    3.7549    5.2348 H   0  0  0  0  0  0  0  0  0  0  0  0
    2.8869    2.6399    4.4711 H   0  0  0  0  0  0  0  0  0  0  0  0
    3.5761    4.0125    4.9177 H   0  0  0  0  0  0  0  0  0  0  0  0
    5.9792    8.6012    4.5109 C   0  0  0  0  0  0  0  0  0  0  0  0
    6.5932    9.1996    4.0162 H   0  0  0  0  0  0  0  0  0  0  0  0
    6.4117    7.7134    4.5890 H   0  0  0  0  0  0  0  0  0  0  0  0
    4.7310    8.4710    3.7771 C   0  0  0  0  0  0  0  0  0  0  0  0
    4.9148    8.1345    2.8756 H   0  0  0  0  0  0  0  0  0  0  0  0
    4.1401    7.8464    4.2453 H   0  0  0  0  0  0  0  0  0  0  0  0
    4.2951    9.3478    3.7157 H   0  0  0  0  0  0  0  0  0  0  0  0
    6.3691   10.4101    6.0262 C   0  0  0  0  0  0  0  0  0  0  0  0
    6.3574   10.6234    6.9930 H   0  0  0  0  0  0  0  0  0  0  0  0
    7.3151   10.3450    5.7445 H   0  0  0  0  0  0  0  0  0  0  0  0
    5.7229   11.5237    5.2829 C   0  0  0  0  0  0  0  0  0  0  0  0
    6.1845   12.3630    5.4872 H   0  0  0  0  0  0  0  0  0  0  0  0
    5.7768   11.3478    4.3200 H   0  0  0  0  0  0  0  0  0  0  0  0
    4.7829   11.5930    5.5502 H   0  0  0  0  0  0  0  0  0  0  0  0
  1  8  1  0  0  0  0
  2  5  1  0  0  0  0
  3 21  1  0  0  0  0
  4 35  1  0  0  0  0
  5  6  1  0  0  0  0
  7  5  1  0  0  0  0
  8  5  1  0  0  0  0
  9  1  1  0  0  0  0
 10  2  1  0  0  0  0
 11 10  4  0  0  0  0
 12 11  1  0  0  0  0
 13 11  4  0  0  0  0
 14 13  1  0  0  0  0
 15 13  4  0  0  0  0
 16 15  1  0  0  0  0
 17 15  4  0  0  0  0
 18 17  1  0  0  0  0
 19 10  4  0  0  0  0
 20 19  1  0  0  0  0
 21  1  1  0  0  0  0
 22 21  1  0  0  0  0
 23  3  1  0  0  0  0
 24 23  1  0  0  0  0
 25 23  1  0  0  0  0
 26 23  1  0  0  0  0
 27  3  1  0  0  0  0
 28 27  1  0  0  0  0
 29 27  1  0  0  0  0
 30 27  1  0  0  0  0
 31  3  1  0  0  0  0
 32 31  1  0  0  0  0
 33 31  1  0  0  0  0
 34 31  1  0  0  0  0
 35  2  1  0  0  0  0
 36 35  1  0  0  0  0
 37  4  1  0  0  0  0
 38 37  1  0  0  0  0
 39 37  1  0  0  0  0
 40 37  1  0  0  0  0
 41  4  1  0  0  0  0
 42 41  1  0  0  0  0
 43 41  1  0  0  0  0
 44 41  1  0  0  0  0
 45  4  1  0  0  0  0
 46 45  1  0  0  0  0
 47 45  1  0  0  0  0
 48 45  1  0  0  0  0
 49  9  1  0  0  0  0
 50 49  1  0  0  0  0
 51 49  1  0  0  0  0
 52 49  1  0  0  0  0
 53 52  1  0  0  0  0
 54 52  1  0  0  0  0
 55 52  1  0  0  0  0
 56  9  1  0  0  0  0
 57 56  1  0  0  0  0
 58 56  1  0  0  0  0
 59 56  1  0  0  0  0
 60 59  1  0  0  0  0
 61 59  1  0  0  0  0
 62 59  1  0  0  0  0
 63 21  1  0  0  0  0
 64 67  1  0  0  0  0
 65 83  1  0  0  0  0
 66 97  1  0  0  0  0
 67 68  1  0  0  0  0
 69 67  1  0  0  0  0
 70 63  1  0  0  0  0
 71 63  1  0  0  0  0
 72 64  1  0  0  0  0
 73 72  4  0  0  0  0
 74 73  1  0  0  0  0
 75 73  4  0  0  0  0
 76 75  1  0  0  0  0
 77 75  4  0  0  0  0
 78 77  1  0  0  0  0
 79 77  4  0  0  0  0
 80 79  1  0  0  0  0
 81 72  4  0  0  0  0
 82 81  1  0  0  0  0
 83  1  1  0  0  0  0
 84 83  1  0  0  0  0
 85 65  1  0  0  0  0
 86 85  1  0  0  0  0
 87 85  1  0  0  0  0
 88 85  1  0  0  0  0
 89 65  1  0  0  0  0
 90 89  1  0  0  0  0
 91 89  1  0  0  0  0
 92 89  1  0  0  0  0
 93 65  1  0  0  0  0
 94 93  1  0  0  0  0
 95 93  1  0  0  0  0
 96 93  1  0  0  0  0
 97  1  1  0  0  0  0
 98 97  1  0  0  0  0
 99 66  1  0  0  0  0
100 99  1  0  0  0  0
101 99  1  0  0  0  0
102 99  1  0  0  0  0
103 66  1  0  0  0  0
104103  1  0  0  0  0
105103  1  0  0  0  0
106103  1  0  0  0  0
107 66  1  0  0  0  0
108107  1  0  0  0  0
109107  1  0  0  0  0
110107  1  0  0  0  0
111 71  1  0  0  0  0
112111  1  0  0  0  0
113111  1  0  0  0  0
114111  1  0  0  0  0
115114  1  0  0  0  0
116114  1  0  0  0  0
117114  1  0  0  0  0
118 71  1  0  0  0  0
119118  1  0  0  0  0
120118  1  0  0  0  0
121118  1  0  0  0  0
122121  1  0  0  0  0
123121  1  0  0  0  0
124121  1  0  0  0  0
  2 21  1  0  0  0  0
 17 19  4  0  0  0  0
 35 63  1  0  0  0  0
 63 83  1  0  0  0  0
 64 83  1  0  0  0  0
 64 97  1  0  0  0  0
 67 70  1  0  0  0  0
 79 81  4  0  0  0  0
M  CHG  4   2   1   5  -1  64   1  67  -1
M  END
$$$$
AJAYUH

From CSD data. Using bond type 'Any'. No disordered atoms. Largest molecule.
146156  0  0  0  0  0  0  0  0999 V2000
    4.0831    7.8498    7.2848 Sr  0  0  0  0  0  0  0  0  0  0  0  0
    3.0713   10.4893    8.9338 P   0  0  0  0  0  0  0  0  0  0  0  0
    5.4043    9.2576   10.6956 Si  0  0  0  0  0  0  0  0  0  0  0  0
    0.4255    8.9331    8.1463 Si  0  0  0  0  0  0  0  0  0  0  0  0
    2.0639   11.4702   10.1350 C   0  0  0  0  0  0  0  0  0  0  0  0
    1.7003   10.9642   11.3774 C   0  0  0  0  0  0  0  0  0  0  0  0
    2.0241   10.1345   11.6451 H   0  0  0  0  0  0  0  0  0  0  0  0
    0.8646   11.6782   12.2221 C   0  0  0  0  0  0  0  0  0  0  0  0
    0.6157   11.3152   13.0428 H   0  0  0  0  0  0  0  0  0  0  0  0
    0.3997   12.9201   11.8547 C   0  0  0  0  0  0  0  0  0  0  0  0
   -0.1530   13.4035   12.4254 H   0  0  0  0  0  0  0  0  0  0  0  0
    0.7636   13.4438   10.6249 C   0  0  0  0  0  0  0  0  0  0  0  0
    0.4494   14.2810   10.3673 H   0  0  0  0  0  0  0  0  0  0  0  0
    1.5922   12.7303    9.7802 C   0  0  0  0  0  0  0  0  0  0  0  0
    1.8390   13.0984    8.9620 H   0  0  0  0  0  0  0  0  0  0  0  0
    3.9008    9.1469    9.6830 C   0  0  0  0  0  0  0  0  0  0  0  0
    3.2353    8.6639   10.2158 H   0  0  0  0  0  0  0  0  0  0  0  0
    5.2673   10.3831   12.2044 C   0  0  0  0  0  0  0  0  0  0  0  0
    5.1077   11.2851   11.9166 H   0  0  0  0  0  0  0  0  0  0  0  0
    6.0851   10.3473   12.7057 H   0  0  0  0  0  0  0  0  0  0  0  0
    4.5399   10.0912   12.7575 H   0  0  0  0  0  0  0  0  0  0  0  0
    5.7889    7.5378   11.3901 C   0  0  0  0  0  0  0  0  0  0  0  0
    5.0250    7.2064   11.8673 H   0  0  0  0  0  0  0  0  0  0  0  0
    6.5401    7.5943   11.9860 H   0  0  0  0  0  0  0  0  0  0  0  0
    5.9984    6.9409   10.6678 H   0  0  0  0  0  0  0  0  0  0  0  0
    6.9376    9.7428    9.7184 C   0  0  0  0  0  0  0  0  0  0  0  0
    7.1359    9.0593    9.0757 H   0  0  0  0  0  0  0  0  0  0  0  0
    7.6804    9.8445   10.3181 H   0  0  0  0  0  0  0  0  0  0  0  0
    6.7770   10.5733    9.2638 H   0  0  0  0  0  0  0  0  0  0  0  0
    1.9846    9.8310    7.6729 C   0  0  0  0  0  0  0  0  0  0  0  0
   -0.9621   10.0667    8.6994 C   0  0  0  0  0  0  0  0  0  0  0  0
   -0.6612   10.6053    9.4355 H   0  0  0  0  0  0  0  0  0  0  0  0
   -1.7150    9.5376    8.9759 H   0  0  0  0  0  0  0  0  0  0  0  0
   -1.2205   10.6354    7.9709 H   0  0  0  0  0  0  0  0  0  0  0  0
    0.6075    7.6960    9.5441 C   0  0  0  0  0  0  0  0  0  0  0  0
    1.3231    7.0896    9.3434 H   0  0  0  0  0  0  0  0  0  0  0  0
   -0.2099    7.2045    9.6451 H   0  0  0  0  0  0  0  0  0  0  0  0
    0.8039    8.1611   10.3610 H   0  0  0  0  0  0  0  0  0  0  0  0
   -0.2571    7.9666    6.6780 C   0  0  0  0  0  0  0  0  0  0  0  0
   -0.4262    8.5678    5.9494 H   0  0  0  0  0  0  0  0  0  0  0  0
   -1.0758    7.5340    6.9318 H   0  0  0  0  0  0  0  0  0  0  0  0
    0.3826    7.3043    6.4052 H   0  0  0  0  0  0  0  0  0  0  0  0
    4.2780   11.7457    8.0934 B   0  0  0  0  0  0  0  0  0  0  0  0
    3.2094    5.6804    8.2448 O   0  0  0  0  0  0  0  0  0  0  0  0
    2.3286    4.7281    7.5946 C   0  0  0  0  0  0  0  0  0  0  0  0
    2.6306    4.5475    6.6906 H   0  0  0  0  0  0  0  0  0  0  0  0
    1.4231    5.0710    7.5568 H   0  0  0  0  0  0  0  0  0  0  0  0
    2.3874    3.4955    8.4204 C   0  0  0  0  0  0  0  0  0  0  0  0
    3.1208    2.9225    8.1451 H   0  0  0  0  0  0  0  0  0  0  0  0
    1.5572    2.9978    8.3648 H   0  0  0  0  0  0  0  0  0  0  0  0
    2.6093    4.0350    9.8156 C   0  0  0  0  0  0  0  0  0  0  0  0
    1.7761    4.3310   10.2158 H   0  0  0  0  0  0  0  0  0  0  0  0
    3.0194    3.3688   10.3901 H   0  0  0  0  0  0  0  0  0  0  0  0
    3.5405    5.1925    9.5668 C   0  0  0  0  0  0  0  0  0  0  0  0
    3.4061    5.8864   10.2310 H   0  0  0  0  0  0  0  0  0  0  0  0
    4.4647    4.9016    9.6022 H   0  0  0  0  0  0  0  0  0  0  0  0
    6.1566    6.2912    7.3497 O   0  0  0  0  0  0  0  0  0  0  0  0
    7.5473    6.6754    7.2802 C   0  0  0  0  0  0  0  0  0  0  0  0
    8.0186    6.4494    8.0972 H   0  0  0  0  0  0  0  0  0  0  0  0
    7.6454    7.6244    7.1060 H   0  0  0  0  0  0  0  0  0  0  0  0
    8.0405    5.8412    6.1060 C   0  0  0  0  0  0  0  0  0  0  0  0
    7.8308    6.2724    5.2626 H   0  0  0  0  0  0  0  0  0  0  0  0
    8.9978    5.7000    6.1590 H   0  0  0  0  0  0  0  0  0  0  0  0
    7.3002    4.5513    6.2449 C   0  0  0  0  0  0  0  0  0  0  0  0
    7.0677    4.1935    5.3750 H   0  0  0  0  0  0  0  0  0  0  0  0
    7.8386    3.8979    6.7184 H   0  0  0  0  0  0  0  0  0  0  0  0
    6.0775    4.8827    7.0189 C   0  0  0  0  0  0  0  0  0  0  0  0
    5.2854    4.7057    6.4886 H   0  0  0  0  0  0  0  0  0  0  0  0
    6.0354    4.3479    7.8270 H   0  0  0  0  0  0  0  0  0  0  0  0
    1.6224   10.5770    7.2095 H   0  0  0  0  0  0  0  0  0  0  0  0
    4.8486   12.2661    8.8004 H   0  0  0  0  0  0  0  0  0  0  0  0
    4.9166   11.1137    7.3863 H   0  0  0  0  0  0  0  0  0  0  0  0
    3.7015   12.4149    7.5252 H   0  0  0  0  0  0  0  0  0  0  0  0
    3.3856   10.9806    5.3414 Sr  0  0  0  0  0  0  0  0  0  0  0  0
    4.3974    8.3411    3.6924 P   0  0  0  0  0  0  0  0  0  0  0  0
    2.0643    9.5728    1.9305 Si  0  0  0  0  0  0  0  0  0  0  0  0
    7.0431    9.8973    4.4799 Si  0  0  0  0  0  0  0  0  0  0  0  0
    5.4047    7.3602    2.4911 C   0  0  0  0  0  0  0  0  0  0  0  0
    5.7684    7.8662    1.2487 C   0  0  0  0  0  0  0  0  0  0  0  0
    5.4446    8.6959    0.9811 H   0  0  0  0  0  0  0  0  0  0  0  0
    6.6041    7.1522    0.4040 C   0  0  0  0  0  0  0  0  0  0  0  0
    6.8530    7.5152   -0.4167 H   0  0  0  0  0  0  0  0  0  0  0  0
    7.0690    5.9103    0.7715 C   0  0  0  0  0  0  0  0  0  0  0  0
    7.6216    5.4269    0.2008 H   0  0  0  0  0  0  0  0  0  0  0  0
    6.7050    5.3866    2.0012 C   0  0  0  0  0  0  0  0  0  0  0  0
    7.0193    4.5494    2.2588 H   0  0  0  0  0  0  0  0  0  0  0  0
    5.8764    6.1001    2.8459 C   0  0  0  0  0  0  0  0  0  0  0  0
    5.6296    5.7320    3.6641 H   0  0  0  0  0  0  0  0  0  0  0  0
    3.5679    9.6835    2.9432 C   0  0  0  0  0  0  0  0  0  0  0  0
    4.2334   10.1665    2.4103 H   0  0  0  0  0  0  0  0  0  0  0  0
    2.2013    8.4473    0.4217 C   0  0  0  0  0  0  0  0  0  0  0  0
    2.3609    7.5453    0.7096 H   0  0  0  0  0  0  0  0  0  0  0  0
    1.3835    8.4831   -0.0795 H   0  0  0  0  0  0  0  0  0  0  0  0
    2.9287    8.7392   -0.1313 H   0  0  0  0  0  0  0  0  0  0  0  0
    1.6798   11.2926    1.2361 C   0  0  0  0  0  0  0  0  0  0  0  0
    2.4436   11.6240    0.7588 H   0  0  0  0  0  0  0  0  0  0  0  0
    0.9285   11.2361    0.6401 H   0  0  0  0  0  0  0  0  0  0  0  0
    1.4702   11.8895    1.9583 H   0  0  0  0  0  0  0  0  0  0  0  0
    0.5310    9.0876    2.9078 C   0  0  0  0  0  0  0  0  0  0  0  0
    0.3328    9.7711    3.5505 H   0  0  0  0  0  0  0  0  0  0  0  0
   -0.2117    8.9859    2.3081 H   0  0  0  0  0  0  0  0  0  0  0  0
    0.6916    8.2571    3.3623 H   0  0  0  0  0  0  0  0  0  0  0  0
    5.4841    8.9994    4.9532 C   0  0  0  0  0  0  0  0  0  0  0  0
    8.4308    8.7637    3.9267 C   0  0  0  0  0  0  0  0  0  0  0  0
    8.1298    8.2251    3.1906 H   0  0  0  0  0  0  0  0  0  0  0  0
    9.1836    9.2928    3.6502 H   0  0  0  0  0  0  0  0  0  0  0  0
    8.6891    8.1950    4.6553 H   0  0  0  0  0  0  0  0  0  0  0  0
    6.8611   11.1344    3.0820 C   0  0  0  0  0  0  0  0  0  0  0  0
    6.1456   11.7408    3.2828 H   0  0  0  0  0  0  0  0  0  0  0  0
    7.6785   11.6259    2.9810 H   0  0  0  0  0  0  0  0  0  0  0  0
    6.6647   10.6693    2.2651 H   0  0  0  0  0  0  0  0  0  0  0  0
    7.7258   10.8638    5.9482 C   0  0  0  0  0  0  0  0  0  0  0  0
    7.8949   10.2626    6.6767 H   0  0  0  0  0  0  0  0  0  0  0  0
    8.5445   11.2964    5.6944 H   0  0  0  0  0  0  0  0  0  0  0  0
    7.0861   11.5261    6.2209 H   0  0  0  0  0  0  0  0  0  0  0  0
    3.1906    7.0847    4.5328 B   0  0  0  0  0  0  0  0  0  0  0  0
    4.2593   13.1500    4.3814 O   0  0  0  0  0  0  0  0  0  0  0  0
    5.1400   14.1023    5.0315 C   0  0  0  0  0  0  0  0  0  0  0  0
    4.8381   14.2829    5.9356 H   0  0  0  0  0  0  0  0  0  0  0  0
    6.0455   13.7594    5.0694 H   0  0  0  0  0  0  0  0  0  0  0  0
    5.0812   15.3349    4.2058 C   0  0  0  0  0  0  0  0  0  0  0  0
    4.3478   15.9079    4.4810 H   0  0  0  0  0  0  0  0  0  0  0  0
    5.9115   15.8326    4.2613 H   0  0  0  0  0  0  0  0  0  0  0  0
    4.8593   14.7954    2.8106 C   0  0  0  0  0  0  0  0  0  0  0  0
    5.6926   14.4994    2.4103 H   0  0  0  0  0  0  0  0  0  0  0  0
    4.4493   15.4616    2.2361 H   0  0  0  0  0  0  0  0  0  0  0  0
    3.9282   13.6379    3.0593 C   0  0  0  0  0  0  0  0  0  0  0  0
    4.0626   12.9440    2.3952 H   0  0  0  0  0  0  0  0  0  0  0  0
    3.0039   13.9288    3.0240 H   0  0  0  0  0  0  0  0  0  0  0  0
    1.3121   12.5392    5.2765 O   0  0  0  0  0  0  0  0  0  0  0  0
   -0.0786   12.1550    5.3459 C   0  0  0  0  0  0  0  0  0  0  0  0
   -0.5500   12.3810    4.5290 H   0  0  0  0  0  0  0  0  0  0  0  0
   -0.1767   11.2060    5.5202 H   0  0  0  0  0  0  0  0  0  0  0  0
   -0.5718   12.9892    6.5201 C   0  0  0  0  0  0  0  0  0  0  0  0
   -0.3622   12.5580    7.3636 H   0  0  0  0  0  0  0  0  0  0  0  0
   -1.5292   13.1304    6.4671 H   0  0  0  0  0  0  0  0  0  0  0  0
    0.1684   14.2791    6.3813 C   0  0  0  0  0  0  0  0  0  0  0  0
    0.4009   14.6369    7.2512 H   0  0  0  0  0  0  0  0  0  0  0  0
   -0.3699   14.9325    5.9078 H   0  0  0  0  0  0  0  0  0  0  0  0
    1.3911   13.9477    5.6073 C   0  0  0  0  0  0  0  0  0  0  0  0
    2.1833   14.1247    6.1376 H   0  0  0  0  0  0  0  0  0  0  0  0
    1.4332   14.4825    4.7992 H   0  0  0  0  0  0  0  0  0  0  0  0
    5.8463    8.2534    5.4166 H   0  0  0  0  0  0  0  0  0  0  0  0
    2.6201    6.5643    3.8257 H   0  0  0  0  0  0  0  0  0  0  0  0
    2.5520    7.7167    5.2399 H   0  0  0  0  0  0  0  0  0  0  0  0
    3.7671    6.4155    5.1010 H   0  0  0  0  0  0  0  0  0  0  0  0
  1 16  1  0  0  0  0
  2  5  1  0  0  0  0
  3 16  1  0  0  0  0
  4 30  1  0  0  0  0
  5  6  4  0  0  0  0
  6  7  1  0  0  0  0
  8  6  4  0  0  0  0
  9  8  1  0  0  0  0
 10  8  4  0  0  0  0
 11 10  1  0  0  0  0
 12 10  4  0  0  0  0
 13 12  1  0  0  0  0
 14  5  4  0  0  0  0
 15 14  1  0  0  0  0
 16  2  1  0  0  0  0
 17 16  1  0  0  0  0
 18  3  1  0  0  0  0
 19 18  1  0  0  0  0
 20 18  1  0  0  0  0
 21 18  1  0  0  0  0
 22  3  1  0  0  0  0
 23 22  1  0  0  0  0
 24 22  1  0  0  0  0
 25 22  1  0  0  0  0
 26  3  1  0  0  0  0
 27 26  1  0  0  0  0
 28 26  1  0  0  0  0
 29 26  1  0  0  0  0
 30  1  1  0  0  0  0
 31  4  1  0  0  0  0
 32 31  1  0  0  0  0
 33 31  1  0  0  0  0
 34 31  1  0  0  0  0
 35  4  1  0  0  0  0
 36 35  1  0  0  0  0
 37 35  1  0  0  0  0
 38 35  1  0  0  0  0
 39  4  1  0  0  0  0
 40 39  1  0  0  0  0
 41 39  1  0  0  0  0
 42 39  1  0  0  0  0
 43  2  1  0  0  0  0
 44  1  1  0  0  0  0
 45 44  1  0  0  0  0
 46 45  1  0  0  0  0
 47 45  1  0  0  0  0
 48 45  1  0  0  0  0
 49 48  1  0  0  0  0
 50 48  1  0  0  0  0
 51 48  1  0  0  0  0
 52 51  1  0  0  0  0
 53 51  1  0  0  0  0
 54 44  1  0  0  0  0
 55 54  1  0  0  0  0
 56 54  1  0  0  0  0
 57  1  1  0  0  0  0
 58 57  1  0  0  0  0
 59 58  1  0  0  0  0
 60 58  1  0  0  0  0
 61 58  1  0  0  0  0
 62 61  1  0  0  0  0
 63 61  1  0  0  0  0
 64 61  1  0  0  0  0
 65 64  1  0  0  0  0
 66 64  1  0  0  0  0
 67 57  1  0  0  0  0
 68 67  1  0  0  0  0
 69 67  1  0  0  0  0
 70 30  1  0  0  0  0
 71 43  1  0  0  0  0
 72 43  1  0  0  0  0
 73 43  1  0  0  0  0
 74 30  1  0  0  0  0
 75 78  1  0  0  0  0
 76 89  1  0  0  0  0
 77103  1  0  0  0  0
 78 79  4  0  0  0  0
 79 80  1  0  0  0  0
 81 79  4  0  0  0  0
 82 81  1  0  0  0  0
 83 81  4  0  0  0  0
 84 83  1  0  0  0  0
 85 83  4  0  0  0  0
 86 85  1  0  0  0  0
 87 78  4  0  0  0  0
 88 87  1  0  0  0  0
 89 74  1  0  0  0  0
 90 89  1  0  0  0  0
 91 76  1  0  0  0  0
 92 91  1  0  0  0  0
 93 91  1  0  0  0  0
 94 91  1  0  0  0  0
 95 76  1  0  0  0  0
 96 95  1  0  0  0  0
 97 95  1  0  0  0  0
 98 95  1  0  0  0  0
 99 76  1  0  0  0  0
100 99  1  0  0  0  0
101 99  1  0  0  0  0
102 99  1  0  0  0  0
103  1  1  0  0  0  0
104 77  1  0  0  0  0
105104  1  0  0  0  0
106104  1  0  0  0  0
107104  1  0  0  0  0
108 77  1  0  0  0  0
109108  1  0  0  0  0
110108  1  0  0  0  0
111108  1  0  0  0  0
112 77  1  0  0  0  0
113112  1  0  0  0  0
114112  1  0  0  0  0
115112  1  0  0  0  0
116 75  1  0  0  0  0
117 74  1  0  0  0  0
118117  1  0  0  0  0
119118  1  0  0  0  0
120118  1  0  0  0  0
121118  1  0  0  0  0
122121  1  0  0  0  0
123121  1  0  0  0  0
124121  1  0  0  0  0
125124  1  0  0  0  0
126124  1  0  0  0  0
127117  1  0  0  0  0
128127  1  0  0  0  0
129127  1  0  0  0  0
130 74  1  0  0  0  0
131130  1  0  0  0  0
132131  1  0  0  0  0
133131  1  0  0  0  0
134131  1  0  0  0  0
135134  1  0  0  0  0
136134  1  0  0  0  0
137134  1  0  0  0  0
138137  1  0  0  0  0
139137  1  0  0  0  0
140130  1  0  0  0  0
141140  1  0  0  0  0
142140  1  0  0  0  0
143103  1  0  0  0  0
144116  1  0  0  0  0
145  1  1  0  0  0  0
146116  1  0  0  0  0
  2 30  1  0  0  0  0
 12 14  4  0  0  0  0
 51 54  1  0  0  0  0
 64 67  1  0  0  0  0
 72 74  1  0  0  0  0
 74103  1  0  0  0  0
 75 89  1  0  0  0  0
 75103  1  0  0  0  0
 85 87  4  0  0  0  0
116145  1  0  0  0  0
124127  1  0  0  0  0
137140  1  0  0  0  0
M  END
$$$$
AJAZAO

From CSD data. Using bond type 'Any'. No disordered atoms. Largest molecule.
150158  0  0  0  0  0  0  0  0999 V2000
   -1.5564   -0.3829   10.9850 Ba  0  0  0  0  0  0  0  0  0  0  0  0
    0.8946    2.0237   12.0726 B   0  5  0  0  0  0  0  0  0  0  0  0
   -0.1018    1.7090   12.4309 H   0  0  0  0  0  0  0  0  0  0  0  0
    1.6508    1.4787   12.5743 H   0  0  0  0  0  0  0  0  0  0  0  0
    1.0022    3.1171   12.2876 H   0  0  0  0  0  0  0  0  0  0  0  0
    0.8808    1.5939   10.1863 P   0  3  0  0  0  0  0  0  0  0  0  0
   -4.1751   -0.8422   10.2288 O   0  0  0  0  0  0  0  0  0  0  0  0
    1.3574   -0.9841    8.4367 Si  0  0  0  0  0  0  0  0  0  0  0  0
   -1.6712    3.4303    9.8436 Si  0  0  0  0  0  0  0  0  0  0  0  0
    2.2234    2.5765    9.3880 C   0  0  0  0  0  0  0  0  0  0  0  0
    1.9917    3.3569    8.2743 C   0  0  0  0  0  0  0  0  0  0  0  0
    1.1070    3.4503    7.9420 H   0  0  0  0  0  0  0  0  0  0  0  0
    3.0391    4.0047    7.6358 C   0  0  0  0  0  0  0  0  0  0  0  0
    2.8653    4.5278    6.8618 H   0  0  0  0  0  0  0  0  0  0  0  0
    4.3297    3.8985    8.1114 C   0  0  0  0  0  0  0  0  0  0  0  0
    5.0481    4.3361    7.6683 H   0  0  0  0  0  0  0  0  0  0  0  0
    4.5575    3.1459    9.2398 C   0  0  0  0  0  0  0  0  0  0  0  0
    5.4389    3.0751    9.5864 H   0  0  0  0  0  0  0  0  0  0  0  0
    3.5205    2.4926    9.8757 C   0  0  0  0  0  0  0  0  0  0  0  0
    3.6969    1.9794   10.6549 H   0  0  0  0  0  0  0  0  0  0  0  0
    1.1925   -0.1200   10.0321 C   0  0  0  0  0  0  0  0  0  0  0  0
    1.8568   -0.4437   10.7057 H   0  0  0  0  0  0  0  0  0  0  0  0
    2.2662   -2.6067    8.6899 C   0  0  0  0  0  0  0  0  0  0  0  0
    3.1288   -2.4343    9.1212 H   0  0  0  0  0  0  0  0  0  0  0  0
    2.4153   -3.0367    7.8221 H   0  0  0  0  0  0  0  0  0  0  0  0
    1.7282   -3.1971    9.2580 H   0  0  0  0  0  0  0  0  0  0  0  0
   -0.3261   -1.4159    7.7048 C   0  0  0  0  0  0  0  0  0  0  0  0
   -0.8823   -0.6091    7.6670 H   0  0  0  0  0  0  0  0  0  0  0  0
   -0.7653   -2.0873    8.2677 H   0  0  0  0  0  0  0  0  0  0  0  0
   -0.2082   -1.7737    6.8005 H   0  0  0  0  0  0  0  0  0  0  0  0
    2.2725   -0.0783    7.0690 C   0  0  0  0  0  0  0  0  0  0  0  0
    3.1655    0.1733    7.3856 H   0  0  0  0  0  0  0  0  0  0  0  0
    1.7745    0.7295    6.8214 H   0  0  0  0  0  0  0  0  0  0  0  0
    2.3554   -0.6638    6.2884 H   0  0  0  0  0  0  0  0  0  0  0  0
   -0.6789    1.9586    9.4835 C   0  0  0  0  0  0  0  0  0  0  0  0
   -0.6770    1.7676    8.5023 H   0  0  0  0  0  0  0  0  0  0  0  0
   -2.7032    3.8875    8.3472 C   0  0  0  0  0  0  0  0  0  0  0  0
   -2.1130    4.1653    7.6162 H   0  0  0  0  0  0  0  0  0  0  0  0
   -3.3054    4.6258    8.5792 H   0  0  0  0  0  0  0  0  0  0  0  0
   -3.2308    3.1116    8.0645 H   0  0  0  0  0  0  0  0  0  0  0  0
   -2.8834    3.0925   11.2673 C   0  0  0  0  0  0  0  0  0  0  0  0
   -3.4935    2.3697   11.0119 H   0  0  0  0  0  0  0  0  0  0  0  0
   -3.4008    3.9042   11.4563 H   0  0  0  0  0  0  0  0  0  0  0  0
   -2.3822    2.8308   12.0674 H   0  0  0  0  0  0  0  0  0  0  0  0
   -0.7335    4.9919   10.3070 C   0  0  0  0  0  0  0  0  0  0  0  0
   -0.2594    5.3338    9.5200 H   0  0  0  0  0  0  0  0  0  0  0  0
   -0.0865    4.7869   11.0145 H   0  0  0  0  0  0  0  0  0  0  0  0
   -1.3656    5.6693   10.6288 H   0  0  0  0  0  0  0  0  0  0  0  0
   -4.9899   -0.6034    9.0860 C   0  0  0  0  0  0  0  0  0  0  0  0
   -5.7488   -0.0195    9.3349 H   0  0  0  0  0  0  0  0  0  0  0  0
   -5.3576   -1.4612    8.7551 H   0  0  0  0  0  0  0  0  0  0  0  0
   -4.2005    0.0381    8.0267 C   0  0  0  0  0  0  0  0  0  0  0  0
   -4.7886    0.2933    7.2879 H   0  0  0  0  0  0  0  0  0  0  0  0
   -3.5199   -0.5907    7.6996 H   0  0  0  0  0  0  0  0  0  0  0  0
   -3.7587    0.8365    8.3850 H   0  0  0  0  0  0  0  0  0  0  0  0
   -4.9187   -1.5841   11.3051 C   0  0  0  0  0  0  0  0  0  0  0  0
   -5.4368   -2.3256   10.9025 H   0  0  0  0  0  0  0  0  0  0  0  0
   -4.2731   -1.9727   11.9488 H   0  0  0  0  0  0  0  0  0  0  0  0
   -5.8154   -0.6831   11.9996 C   0  0  0  0  0  0  0  0  0  0  0  0
   -6.5625   -0.4479   11.4094 H   0  0  0  0  0  0  0  0  0  0  0  0
   -5.3312    0.1297   12.2524 H   0  0  0  0  0  0  0  0  0  0  0  0
   -6.1606   -1.1216   12.8049 H   0  0  0  0  0  0  0  0  0  0  0  0
   -0.4382   -3.6022   11.7104 C   0  0  0  0  0  0  0  0  0  0  0  0
   -0.3466   -3.0184   12.5052 H   0  0  0  0  0  0  0  0  0  0  0  0
    0.4377   -3.6745   11.2569 H   0  0  0  0  0  0  0  0  0  0  0  0
   -0.9434   -4.8882   12.0700 C   0  0  0  0  0  0  0  0  0  0  0  0
   -0.7880   -5.0617   13.0316 H   0  0  0  0  0  0  0  0  0  0  0  0
   -0.4895   -5.5934   11.5449 H   0  0  0  0  0  0  0  0  0  0  0  0
   -2.5792   -4.0022   10.6927 C   0  0  0  0  0  0  0  0  0  0  0  0
   -3.4295   -3.5004   10.7631 H   0  0  0  0  0  0  0  0  0  0  0  0
   -2.5569   -4.4855    9.8288 H   0  0  0  0  0  0  0  0  0  0  0  0
   -2.4185   -4.8840   11.7716 C   0  0  0  0  0  0  0  0  0  0  0  0
   -2.7284   -5.7928   11.5292 H   0  0  0  0  0  0  0  0  0  0  0  0
   -2.9332   -4.5709   12.5573 H   0  0  0  0  0  0  0  0  0  0  0  0
   -1.4328   -3.1192   10.8321 O   0  0  0  0  0  0  0  0  0  0  0  0
    0.4319    1.9192   15.0757 Ba  0  0  0  0  0  0  0  0  0  0  0  0
   -2.0192   -0.4874   13.9881 B   0  5  0  0  0  0  0  0  0  0  0  0
   -1.0227   -0.1727   13.6297 H   0  0  0  0  0  0  0  0  0  0  0  0
   -2.7754    0.0576   13.4864 H   0  0  0  0  0  0  0  0  0  0  0  0
   -2.1267   -1.5807   13.7731 H   0  0  0  0  0  0  0  0  0  0  0  0
   -2.0054   -0.0576   15.8743 P   0  3  0  0  0  0  0  0  0  0  0  0
    3.0505    2.3785   15.8319 O   0  0  0  0  0  0  0  0  0  0  0  0
   -2.4820    2.5205   17.6239 Si  0  0  0  0  0  0  0  0  0  0  0  0
    0.5466   -1.8940   16.2170 Si  0  0  0  0  0  0  0  0  0  0  0  0
   -3.3480   -1.0402   16.6727 C   0  0  0  0  0  0  0  0  0  0  0  0
   -3.1163   -1.8206   17.7864 C   0  0  0  0  0  0  0  0  0  0  0  0
   -2.2316   -1.9140   18.1187 H   0  0  0  0  0  0  0  0  0  0  0  0
   -4.1636   -2.4684   18.4249 C   0  0  0  0  0  0  0  0  0  0  0  0
   -3.9899   -2.9915   19.1989 H   0  0  0  0  0  0  0  0  0  0  0  0
   -5.4543   -2.3622   17.9493 C   0  0  0  0  0  0  0  0  0  0  0  0
   -6.1727   -2.7998   18.3923 H   0  0  0  0  0  0  0  0  0  0  0  0
   -5.6821   -1.6096   16.8209 C   0  0  0  0  0  0  0  0  0  0  0  0
   -6.5635   -1.5388   16.4742 H   0  0  0  0  0  0  0  0  0  0  0  0
   -4.6451   -0.9563   16.1850 C   0  0  0  0  0  0  0  0  0  0  0  0
   -4.8214   -0.4431   15.4058 H   0  0  0  0  0  0  0  0  0  0  0  0
   -2.3171    1.6563   16.0286 C   0  0  0  0  0  0  0  0  0  0  0  0
   -2.9814    1.9800   15.3549 H   0  0  0  0  0  0  0  0  0  0  0  0
   -3.3908    4.1430   17.3707 C   0  0  0  0  0  0  0  0  0  0  0  0
   -4.2534    3.9706   16.9394 H   0  0  0  0  0  0  0  0  0  0  0  0
   -3.5398    4.5730   18.2386 H   0  0  0  0  0  0  0  0  0  0  0  0
   -2.8528    4.7334   16.8026 H   0  0  0  0  0  0  0  0  0  0  0  0
   -0.7984    2.9522   18.3558 C   0  0  0  0  0  0  0  0  0  0  0  0
   -0.2422    2.1454   18.3936 H   0  0  0  0  0  0  0  0  0  0  0  0
   -0.3593    3.6236   17.7929 H   0  0  0  0  0  0  0  0  0  0  0  0
   -0.9164    3.3100   19.2601 H   0  0  0  0  0  0  0  0  0  0  0  0
   -3.3971    1.6146   18.9917 C   0  0  0  0  0  0  0  0  0  0  0  0
   -4.2901    1.3630   18.6751 H   0  0  0  0  0  0  0  0  0  0  0  0
   -2.8991    0.8068   19.2393 H   0  0  0  0  0  0  0  0  0  0  0  0
   -3.4800    2.2001   19.7722 H   0  0  0  0  0  0  0  0  0  0  0  0
   -0.4457   -0.4223   16.5772 C   0  0  0  0  0  0  0  0  0  0  0  0
   -0.4476   -0.2313   17.5584 H   0  0  0  0  0  0  0  0  0  0  0  0
    1.5786   -2.3512   17.7134 C   0  0  0  0  0  0  0  0  0  0  0  0
    0.9884   -2.6290   18.4444 H   0  0  0  0  0  0  0  0  0  0  0  0
    2.1808   -3.0895   17.4815 H   0  0  0  0  0  0  0  0  0  0  0  0
    2.1062   -1.5753   17.9962 H   0  0  0  0  0  0  0  0  0  0  0  0
    1.7588   -1.5561   14.7933 C   0  0  0  0  0  0  0  0  0  0  0  0
    2.3690   -0.8334   15.0487 H   0  0  0  0  0  0  0  0  0  0  0  0
    2.2762   -2.3679   14.6044 H   0  0  0  0  0  0  0  0  0  0  0  0
    1.2576   -1.2945   13.9933 H   0  0  0  0  0  0  0  0  0  0  0  0
   -0.3911   -3.4556   15.7537 C   0  0  0  0  0  0  0  0  0  0  0  0
   -0.8652   -3.7975   16.5407 H   0  0  0  0  0  0  0  0  0  0  0  0
   -1.0381   -3.2506   15.0461 H   0  0  0  0  0  0  0  0  0  0  0  0
    0.2410   -4.1329   15.4318 H   0  0  0  0  0  0  0  0  0  0  0  0
    3.8653    2.1397   16.9746 C   0  0  0  0  0  0  0  0  0  0  0  0
    4.6242    1.5558   16.7257 H   0  0  0  0  0  0  0  0  0  0  0  0
    4.2330    2.9975   17.3056 H   0  0  0  0  0  0  0  0  0  0  0  0
    3.0759    1.4982   18.0340 C   0  0  0  0  0  0  0  0  0  0  0  0
    3.6640    1.2430   18.7728 H   0  0  0  0  0  0  0  0  0  0  0  0
    2.3953    2.1270   18.3610 H   0  0  0  0  0  0  0  0  0  0  0  0
    2.6341    0.6998   17.6756 H   0  0  0  0  0  0  0  0  0  0  0  0
    3.7941    3.1204   14.7555 C   0  0  0  0  0  0  0  0  0  0  0  0
    4.3122    3.8619   15.1582 H   0  0  0  0  0  0  0  0  0  0  0  0
    3.1485    3.5090   14.1118 H   0  0  0  0  0  0  0  0  0  0  0  0
    4.6909    2.2194   14.0610 C   0  0  0  0  0  0  0  0  0  0  0  0
    5.4379    1.9842   14.6513 H   0  0  0  0  0  0  0  0  0  0  0  0
    4.2067    1.4066   13.8082 H   0  0  0  0  0  0  0  0  0  0  0  0
    5.0360    2.6579   13.2558 H   0  0  0  0  0  0  0  0  0  0  0  0
   -0.6864    5.1385   14.3503 C   0  0  0  0  0  0  0  0  0  0  0  0
   -0.7780    4.5547   13.5555 H   0  0  0  0  0  0  0  0  0  0  0  0
   -1.5622    5.2108   14.8038 H   0  0  0  0  0  0  0  0  0  0  0  0
   -0.1812    6.4245   13.9907 C   0  0  0  0  0  0  0  0  0  0  0  0
   -0.3365    6.5981   13.0290 H   0  0  0  0  0  0  0  0  0  0  0  0
   -0.6351    7.1298   14.5158 H   0  0  0  0  0  0  0  0  0  0  0  0
    1.4546    5.5385   15.3680 C   0  0  0  0  0  0  0  0  0  0  0  0
    2.3050    5.0368   15.2976 H   0  0  0  0  0  0  0  0  0  0  0  0
    1.4323    6.0218   16.2319 H   0  0  0  0  0  0  0  0  0  0  0  0
    1.2939    6.4203   14.2891 C   0  0  0  0  0  0  0  0  0  0  0  0
    1.6039    7.3291   14.5314 H   0  0  0  0  0  0  0  0  0  0  0  0
    1.8086    6.1072   13.5033 H   0  0  0  0  0  0  0  0  0  0  0  0
    0.3082    4.6555   15.2285 O   0  0  0  0  0  0  0  0  0  0  0  0
  1  7  1  0  0  0  0
  2  3  1  0  0  0  0
  3 76  1  0  0  0  0
  4  2  1  0  0  0  0
  5  2  1  0  0  0  0
  6  2  1  0  0  0  0
  7 49  1  0  0  0  0
  8 21  1  0  0  0  0
  9 35  1  0  0  0  0
 10  6  1  0  0  0  0
 11 10  4  0  0  0  0
 12 11  1  0  0  0  0
 13 11  4  0  0  0  0
 14 13  1  0  0  0  0
 15 13  4  0  0  0  0
 16 15  1  0  0  0  0
 17 15  4  0  0  0  0
 18 17  1  0  0  0  0
 19 10  4  0  0  0  0
 20 19  1  0  0  0  0
 21  1  1  0  0  0  0
 22 21  1  0  0  0  0
 23  8  1  0  0  0  0
 24 23  1  0  0  0  0
 25 23  1  0  0  0  0
 26 23  1  0  0  0  0
 27  8  1  0  0  0  0
 28 27  1  0  0  0  0
 29 27  1  0  0  0  0
 30 27  1  0  0  0  0
 31  8  1  0  0  0  0
 32 31  1  0  0  0  0
 33 31  1  0  0  0  0
 34 31  1  0  0  0  0
 35  1  1  0  0  0  0
 36 35  1  0  0  0  0
 37  9  1  0  0  0  0
 38 37  1  0  0  0  0
 39 37  1  0  0  0  0
 40 37  1  0  0  0  0
 41  9  1  0  0  0  0
 42 41  1  0  0  0  0
 43 41  1  0  0  0  0
 44 41  1  0  0  0  0
 45  9  1  0  0  0  0
 46 45  1  0  0  0  0
 47 45  1  0  0  0  0
 48 45  1  0  0  0  0
 49 50  1  0  0  0  0
 51 49  1  0  0  0  0
 52 49  1  0  0  0  0
 53 52  1  0  0  0  0
 54 52  1  0  0  0  0
 55 52  1  0  0  0  0
 56  7  1  0  0  0  0
 57 56  1  0  0  0  0
 58 56  1  0  0  0  0
 59 56  1  0  0  0  0
 60 59  1  0  0  0  0
 61 59  1  0  0  0  0
 62 59  1  0  0  0  0
 63 64  1  0  0  0  0
 65 63  1  0  0  0  0
 66 63  1  0  0  0  0
 67 66  1  0  0  0  0
 68 66  1  0  0  0  0
 69 70  1  0  0  0  0
 71 69  1  0  0  0  0
 72 66  1  0  0  0  0
 73 72  1  0  0  0  0
 74 72  1  0  0  0  0
 75  1  1  0  0  0  0
 76  4  1  0  0  0  0
 77 78  1  0  0  0  0
 78  1  1  0  0  0  0
 79  1  1  0  0  0  0
 80 77  1  0  0  0  0
 81 77  1  0  0  0  0
 82 76  1  0  0  0  0
 83 96  1  0  0  0  0
 84110  1  0  0  0  0
 85 81  1  0  0  0  0
 86 85  4  0  0  0  0
 87 86  1  0  0  0  0
 88 86  4  0  0  0  0
 89 88  1  0  0  0  0
 90 88  4  0  0  0  0
 91 90  1  0  0  0  0
 92 90  4  0  0  0  0
 93 92  1  0  0  0  0
 94 85  4  0  0  0  0
 95 94  1  0  0  0  0
 96 76  1  0  0  0  0
 97 96  1  0  0  0  0
 98 83  1  0  0  0  0
 99 98  1  0  0  0  0
100 98  1  0  0  0  0
101 98  1  0  0  0  0
102 83  1  0  0  0  0
103102  1  0  0  0  0
104102  1  0  0  0  0
105102  1  0  0  0  0
106 83  1  0  0  0  0
107106  1  0  0  0  0
108106  1  0  0  0  0
109106  1  0  0  0  0
110 76  1  0  0  0  0
111110  1  0  0  0  0
112 84  1  0  0  0  0
113112  1  0  0  0  0
114112  1  0  0  0  0
115112  1  0  0  0  0
116 84  1  0  0  0  0
117116  1  0  0  0  0
118116  1  0  0  0  0
119116  1  0  0  0  0
120 84  1  0  0  0  0
121120  1  0  0  0  0
122120  1  0  0  0  0
123120  1  0  0  0  0
124 82  1  0  0  0  0
125124  1  0  0  0  0
126124  1  0  0  0  0
127124  1  0  0  0  0
128127  1  0  0  0  0
129127  1  0  0  0  0
130127  1  0  0  0  0
131 82  1  0  0  0  0
132131  1  0  0  0  0
133131  1  0  0  0  0
134131  1  0  0  0  0
135134  1  0  0  0  0
136134  1  0  0  0  0
137134  1  0  0  0  0
138139  1  0  0  0  0
140138  1  0  0  0  0
141138  1  0  0  0  0
142141  1  0  0  0  0
143141  1  0  0  0  0
144145  1  0  0  0  0
146144  1  0  0  0  0
147141  1  0  0  0  0
148147  1  0  0  0  0
149147  1  0  0  0  0
150 76  1  0  0  0  0
  6 21  1  0  0  0  0
  6 35  1  0  0  0  0
 17 19  4  0  0  0  0
 63 75  1  0  0  0  0
 69 72  1  0  0  0  0
 69 75  1  0  0  0  0
 77 79  1  0  0  0  0
 81 96  1  0  0  0  0
 81110  1  0  0  0  0
 92 94  4  0  0  0  0
138150  1  0  0  0  0
144147  1  0  0  0  0
144150  1  0  0  0  0
M  CHG  4   2  -1   6   1  77  -1  81   1
M  END
$$$$
AJOGIS

From CSD data. Using bond type 'Any'. No disordered atoms. Largest molecule.
113136  0  0  0  0  0  0  0  0999 V2000
    4.3767    9.5489    1.3355 Ce  0  3  0  0  0  0  0  0  0  0  0  0
    4.4251    6.5210    0.4729 P   0  0  0  0  0  0  0  0  0  0  0  0
    4.3877   12.6288    2.0782 P   0  0  0  0  0  0  0  0  0  0  0  0
    3.8082    7.5965   -0.7884 C   0  0  0  0  0  0  0  0  0  0  0  0
    4.8176    8.4858   -1.2092 C   0  0  0  0  0  0  0  0  0  0  0  0
    6.0546    8.2892   -0.5491 C   0  0  0  0  0  0  0  0  0  0  0  0
    6.0256    7.2477    0.3603 C   0  0  0  0  0  0  0  0  0  0  0  0
    5.8637   12.1239    1.2289 C   0  0  0  0  0  0  0  0  0  0  0  0
    5.5776   11.7308   -0.0753 C   0  0  0  0  0  0  0  0  0  0  0  0
    4.1941   11.8417   -0.4109 C   0  0  0  0  0  0  0  0  0  0  0  0
    3.4037   12.3443    0.6206 C   0  0  0  0  0  0  0  0  0  0  0  0
    3.7852   14.2513   -4.6985 H   0  0  0  0  0  0  0  0  0  0  0  0
    4.4258   13.7916   -3.0846 H   0  0  0  0  0  0  0  0  0  0  0  0
    4.4660   15.5496   -3.6522 H   0  0  0  0  0  0  0  0  0  0  0  0
    6.8771   15.5988   -2.8132 H   0  0  0  0  0  0  0  0  0  0  0  0
    8.1359   14.5525   -3.5041 H   0  0  0  0  0  0  0  0  0  0  0  0
    6.9454   13.7678   -2.4430 H   0  0  0  0  0  0  0  0  0  0  0  0
    5.2654   14.9965   -0.5339 K   0  3  0  0  0  0  0  0  0  0  0  0
    2.4432    7.4268   -1.4522 C   0  0  0  0  0  0  0  0  0  0  0  0
    4.7348    9.0351   -2.0410 H   0  0  0  0  0  0  0  0  0  0  0  0
    6.9084    8.6990   -0.8696 H   0  0  0  0  0  0  0  0  0  0  0  0
    7.2572    6.5645    0.9920 C   0  0  0  0  0  0  0  0  0  0  0  0
    7.2760   12.3141    1.8076 C   0  0  0  0  0  0  0  0  0  0  0  0
    6.2381   11.4203   -0.6825 H   0  0  0  0  0  0  0  0  0  0  0  0
    3.8441   11.5934   -1.2592 H   0  0  0  0  0  0  0  0  0  0  0  0
    1.9593   12.8420    0.4824 C   0  0  0  0  0  0  0  0  0  0  0  0
    6.3612   16.7988    1.2857 O   0  0  0  0  0  0  0  0  0  0  0  0
    2.8363   14.7586   -3.1093 H   0  0  0  0  0  0  0  0  0  0  0  0
    3.9850   17.2902   -0.9747 O   0  0  0  0  0  0  0  0  0  0  0  0
    8.2186   15.0122   -1.6780 H   0  0  0  0  0  0  0  0  0  0  0  0
    2.6646    6.8324   -2.8465 C   0  0  0  0  0  0  0  0  0  0  0  0
    1.5676    6.4805   -0.6342 C   0  0  0  0  0  0  0  0  0  0  0  0
    1.7077    8.7426   -1.5966 C   0  0  0  0  0  0  0  0  0  0  0  0
    6.8901    5.8305    2.2888 C   0  0  0  0  0  0  0  0  0  0  0  0
    7.7546    5.5293   -0.0296 C   0  0  0  0  0  0  0  0  0  0  0  0
    8.4116    7.5220    1.2832 C   0  0  0  0  0  0  0  0  0  0  0  0
    7.2646   12.2840    3.3301 C   0  0  0  0  0  0  0  0  0  0  0  0
    7.7652   13.7092    1.3794 C   0  0  0  0  0  0  0  0  0  0  0  0
    8.2559   11.2822    1.2659 C   0  0  0  0  0  0  0  0  0  0  0  0
    2.0067   14.3337    0.1505 C   0  0  0  0  0  0  0  0  0  0  0  0
    1.2043   12.6819    1.8014 C   0  0  0  0  0  0  0  0  0  0  0  0
    1.1951   12.1572   -0.6305 C   0  0  0  0  0  0  0  0  0  0  0  0
    7.5593   14.7285   -2.5504 B   0  5  0  0  0  0  0  0  0  0  0  0
    5.4685   16.6862    2.4405 C   0  0  0  0  0  0  0  0  0  0  0  0
    7.5514   17.5137    1.5769 C   0  0  0  0  0  0  0  0  0  0  0  0
    3.8283   14.6143   -3.6250 B   0  5  0  0  0  0  0  0  0  0  0  0
    4.8921   18.2112   -1.4855 C   0  0  0  0  0  0  0  0  0  0  0  0
    2.6750   17.7040   -1.3437 C   0  0  0  0  0  0  0  0  0  0  0  0
    3.1531    7.4747   -3.4014 H   0  0  0  0  0  0  0  0  0  0  0  0
    1.7977    6.6358   -3.2590 H   0  0  0  0  0  0  0  0  0  0  0  0
    3.1844    6.0050   -2.7690 H   0  0  0  0  0  0  0  0  0  0  0  0
    2.0229    5.6187   -0.5328 H   0  0  0  0  0  0  0  0  0  0  0  0
    0.7124    6.3455   -1.0946 H   0  0  0  0  0  0  0  0  0  0  0  0
    1.4032    6.8690    0.2507 H   0  0  0  0  0  0  0  0  0  0  0  0
    1.5004    9.0994   -0.7075 H   0  0  0  0  0  0  0  0  0  0  0  0
    0.8756    8.5985   -2.0931 H   0  0  0  0  0  0  0  0  0  0  0  0
    2.2721    9.3800   -2.0811 H   0  0  0  0  0  0  0  0  0  0  0  0
    6.6284    6.4838    2.9707 H   0  0  0  0  0  0  0  0  0  0  0  0
    7.6651    5.3204    2.6062 H   0  0  0  0  0  0  0  0  0  0  0  0
    6.1443    5.2186    2.1186 H   0  0  0  0  0  0  0  0  0  0  0  0
    7.0292    4.9038   -0.2388 H   0  0  0  0  0  0  0  0  0  0  0  0
    8.5122    5.0365    0.3478 H   0  0  0  0  0  0  0  0  0  0  0  0
    8.0365    5.9881   -0.8477 H   0  0  0  0  0  0  0  0  0  0  0  0
    8.6166    8.0405    0.4773 H   0  0  0  0  0  0  0  0  0  0  0  0
    9.2024    7.0081    1.5506 H   0  0  0  0  0  0  0  0  0  0  0  0
    8.1565    8.1299    2.0074 H   0  0  0  0  0  0  0  0  0  0  0  0
    6.6563   12.9762    3.6661 H   0  0  0  0  0  0  0  0  0  0  0  0
    8.1690   12.4538    3.6673 H   0  0  0  0  0  0  0  0  0  0  0  0
    6.9604   11.4052    3.6376 H   0  0  0  0  0  0  0  0  0  0  0  0
    7.7906   13.7608    0.4007 H   0  0  0  0  0  0  0  0  0  0  0  0
    8.6644   13.8641    1.7374 H   0  0  0  0  0  0  0  0  0  0  0  0
    7.1535   14.3913    1.7264 H   0  0  0  0  0  0  0  0  0  0  0  0
    7.9518   10.3830    1.5114 H   0  0  0  0  0  0  0  0  0  0  0  0
    9.1438   11.4418    1.6496 H   0  0  0  0  0  0  0  0  0  0  0  0
    8.3035   11.3558    0.2904 H   0  0  0  0  0  0  0  0  0  0  0  0
    2.5429   14.8018    0.8235 H   0  0  0  0  0  0  0  0  0  0  0  0
    1.0961   14.6972    0.1475 H   0  0  0  0  0  0  0  0  0  0  0  0
    2.4104   14.4588   -0.7340 H   0  0  0  0  0  0  0  0  0  0  0  0
    1.1011   11.7296    2.0047 H   0  0  0  0  0  0  0  0  0  0  0  0
    0.3211   13.0985    1.7239 H   0  0  0  0  0  0  0  0  0  0  0  0
    1.7092   13.1173    2.5200 H   0  0  0  0  0  0  0  0  0  0  0  0
    1.6576   12.3026   -1.4814 H   0  0  0  0  0  0  0  0  0  0  0  0
    0.2900   12.5308   -0.6824 H   0  0  0  0  0  0  0  0  0  0  0  0
    1.1412   11.1964   -0.4467 H   0  0  0  0  0  0  0  0  0  0  0  0
    4.8811   15.8981    2.3181 H   0  0  0  0  0  0  0  0  0  0  0  0
    4.6251   17.8894    2.6380 C   0  0  0  0  0  0  0  0  0  0  0  0
    6.0106   16.5357    3.2544 H   0  0  0  0  0  0  0  0  0  0  0  0
    8.4634   17.4567    0.4306 C   0  0  0  0  0  0  0  0  0  0  0  0
    7.3316   18.4570    1.7812 H   0  0  0  0  0  0  0  0  0  0  0  0
    7.9899   17.1193    2.3715 H   0  0  0  0  0  0  0  0  0  0  0  0
    4.3239   19.1893   -2.3838 C   0  0  0  0  0  0  0  0  0  0  0  0
    5.3170   18.6874   -0.7288 H   0  0  0  0  0  0  0  0  0  0  0  0
    5.6039   17.7178   -1.9651 H   0  0  0  0  0  0  0  0  0  0  0  0
    2.2606   18.2704   -0.6450 H   0  0  0  0  0  0  0  0  0  0  0  0
    2.9701   18.4998   -2.6059 C   0  0  0  0  0  0  0  0  0  0  0  0
    2.0867   16.9301   -1.5307 H   0  0  0  0  0  0  0  0  0  0  0  0
    3.9052   17.6831    3.2716 H   0  0  0  0  0  0  0  0  0  0  0  0
    5.1740   18.6183    2.9943 H   0  0  0  0  0  0  0  0  0  0  0  0
    4.2365   18.1609    1.7806 H   0  0  0  0  0  0  0  0  0  0  0  0
    9.2640   17.9864    0.6239 H   0  0  0  0  0  0  0  0  0  0  0  0
    8.7191   16.5255    0.2632 H   0  0  0  0  0  0  0  0  0  0  0  0
    8.0144   17.8193   -0.3619 H   0  0  0  0  0  0  0  0  0  0  0  0
    4.8443   19.2727   -3.2226 H   0  0  0  0  0  0  0  0  0  0  0  0
    4.2283   20.0773   -1.9582 H   0  0  0  0  0  0  0  0  0  0  0  0
    3.0138   17.8979   -3.3903 H   0  0  0  0  0  0  0  0  0  0  0  0
    2.2623   19.1734   -2.7625 H   0  0  0  0  0  0  0  0  0  0  0  0
    6.2174   14.2297   -4.8337 Ce  0  3  0  0  0  0  0  0  0  0  0  0
    1.9445    9.5273    1.4707 H   0  0  0  0  0  0  0  0  0  0  0  0
    2.5851    9.9870    3.0846 H   0  0  0  0  0  0  0  0  0  0  0  0
    2.6254    8.2290    2.5170 H   0  0  0  0  0  0  0  0  0  0  0  0
    5.0364    8.1798    3.3561 H   0  0  0  0  0  0  0  0  0  0  0  0
    6.2952    9.2261    2.6651 H   0  0  0  0  0  0  0  0  0  0  0  0
    5.1047   10.0108    3.7262 H   0  0  0  0  0  0  0  0  0  0  0  0
  1  2  8  0  0  0  0
  2  4  4  0  0  0  0
  3  1  8  0  0  0  0
  4  1  8  0  0  0  0
  5  1  8  0  0  0  0
  6  1  8  0  0  0  0
  7  1  8  0  0  0  0
  8  1  8  0  0  0  0
  9  1  8  0  0  0  0
 10  1  8  0  0  0  0
 11  1  8  0  0  0  0
 12 46  1  0  0  0  0
 13 18  1  0  0  0  0
 14 18  1  0  0  0  0
 15 18  1  0  0  0  0
 16 43  1  0  0  0  0
 17 18  1  0  0  0  0
 18  3  8  0  0  0  0
 19  4  1  0  0  0  0
 20  5  1  0  0  0  0
 21  6  1  0  0  0  0
 22  7  1  0  0  0  0
 23  8  1  0  0  0  0
 24  9  1  0  0  0  0
 25 10  1  0  0  0  0
 26 11  1  0  0  0  0
 27 18  1  0  0  0  0
 28 18  1  0  0  0  0
 29 18  1  0  0  0  0
 30 18  1  0  0  0  0
 31 19  1  0  0  0  0
 32 19  1  0  0  0  0
 33 19  1  0  0  0  0
 34 22  1  0  0  0  0
 35 22  1  0  0  0  0
 36 22  1  0  0  0  0
 37 23  1  0  0  0  0
 38 23  1  0  0  0  0
 39 23  1  0  0  0  0
 40 26  1  0  0  0  0
 41 26  1  0  0  0  0
 42 26  1  0  0  0  0
 43 15  1  0  0  0  0
 44 27  1  0  0  0  0
 45 27  1  0  0  0  0
 46 13  1  0  0  0  0
 47 29  1  0  0  0  0
 48 29  1  0  0  0  0
 49 31  1  0  0  0  0
 50 31  1  0  0  0  0
 51 31  1  0  0  0  0
 52 32  1  0  0  0  0
 53 32  1  0  0  0  0
 54 32  1  0  0  0  0
 55 33  1  0  0  0  0
 56 33  1  0  0  0  0
 57 33  1  0  0  0  0
 58 34  1  0  0  0  0
 59 34  1  0  0  0  0
 60 34  1  0  0  0  0
 61 35  1  0  0  0  0
 62 35  1  0  0  0  0
 63 35  1  0  0  0  0
 64 36  1  0  0  0  0
 65 36  1  0  0  0  0
 66 36  1  0  0  0  0
 67 37  1  0  0  0  0
 68 37  1  0  0  0  0
 69 37  1  0  0  0  0
 70 38  1  0  0  0  0
 71 38  1  0  0  0  0
 72 38  1  0  0  0  0
 73 39  1  0  0  0  0
 74 39  1  0  0  0  0
 75 39  1  0  0  0  0
 76 40  1  0  0  0  0
 77 40  1  0  0  0  0
 78 40  1  0  0  0  0
 79 41  1  0  0  0  0
 80 41  1  0  0  0  0
 81 41  1  0  0  0  0
 82 42  1  0  0  0  0
 83 42  1  0  0  0  0
 84 42  1  0  0  0  0
 85 44  1  0  0  0  0
 86 44  1  0  0  0  0
 87 44  1  0  0  0  0
 88 45  1  0  0  0  0
 89 45  1  0  0  0  0
 90 45  1  0  0  0  0
 91 47  1  0  0  0  0
 92 47  1  0  0  0  0
 93 47  1  0  0  0  0
 94 48  1  0  0  0  0
 95 48  1  0  0  0  0
 96 48  1  0  0  0  0
 97 86  1  0  0  0  0
 98 86  1  0  0  0  0
 99 86  1  0  0  0  0
100 88  1  0  0  0  0
101 88  1  0  0  0  0
102 88  1  0  0  0  0
103 91  1  0  0  0  0
104 91  1  0  0  0  0
105 95  1  0  0  0  0
106 95  1  0  0  0  0
107 12  8  0  0  0  0
108  1  8  0  0  0  0
109  1  8  0  0  0  0
110  1  8  0  0  0  0
111  1  8  0  0  0  0
112  1  8  0  0  0  0
113  1  8  0  0  0  0
  2  7  4  0  0  0  0
  3  8  4  0  0  0  0
  3 11  4  0  0  0  0
  4  5  4  0  0  0  0
  5  6  4  0  0  0  0
  6  7  4  0  0  0  0
  8  9  4  0  0  0  0
  8 18  8  0  0  0  0
  9 10  4  0  0  0  0
  9 18  8  0  0  0  0
 10 11  4  0  0  0  0
 10 18  8  0  0  0  0
 11 18  8  0  0  0  0
 13107  8  0  0  0  0
 14 46  1  0  0  0  0
 14107  8  0  0  0  0
 15107  8  0  0  0  0
 16107  8  0  0  0  0
 17 43  1  0  0  0  0
 17107  8  0  0  0  0
 28 46  1  0  0  0  0
 30 43  1  0  0  0  0
 91 95  1  0  0  0  0
M  CHG  5   1   1  18   1  43  -1  46  -1 107   1
M  END
$$$$
AKAQEL

From CSD data. Using bond type 'Any'. No disordered atoms. Largest molecule.
138150  0  0  0  0  0  0  0  0999 V2000
   -0.7128    7.1916   -0.0226 Li  0  0  0  0  0  0  0  0  0  0  0  0
    0.5857    6.0752    3.5863 P   0  0  0  0  0  0  0  0  0  0  0  0
    0.6755    6.0301    1.6270 B   0  0  0  0  0  0  0  0  0  0  0  0
    1.5099    5.3558    1.2842 H   0  0  0  0  0  0  0  0  0  0  0  0
   -0.3509    5.6048    1.2735 H   0  0  0  0  0  0  0  0  0  0  0  0
    0.7904    7.0730    1.2150 H   0  0  0  0  0  0  0  0  0  0  0  0
    1.3270    7.3829    4.4070 C   0  0  0  0  0  0  0  0  0  0  0  0
    2.6730    8.3023    3.5566 Si  0  0  0  0  0  0  0  0  0  0  0  0
    3.7771    7.2396    2.4690 C   0  0  0  0  0  0  0  0  0  0  0  0
    4.1493    6.5047    3.0004 H   0  0  0  0  0  0  0  0  0  0  0  0
    4.5072    7.7861    2.1111 H   0  0  0  0  0  0  0  0  0  0  0  0
    3.2504    6.8723    1.7285 H   0  0  0  0  0  0  0  0  0  0  0  0
    2.0235    9.7373    2.5165 C   0  0  0  0  0  0  0  0  0  0  0  0
    1.4988    9.3867    1.7672 H   0  0  0  0  0  0  0  0  0  0  0  0
    2.7789   10.2581    2.1708 H   0  0  0  0  0  0  0  0  0  0  0  0
    1.4572   10.3131    3.0714 H   0  0  0  0  0  0  0  0  0  0  0  0
    3.9229    9.0730    4.7483 C   0  0  0  0  0  0  0  0  0  0  0  0
    3.4496    9.6243    5.4062 H   0  0  0  0  0  0  0  0  0  0  0  0
    4.5513    9.6323    4.2456 H   0  0  0  0  0  0  0  0  0  0  0  0
    4.4147    8.3629    5.2104 H   0  0  0  0  0  0  0  0  0  0  0  0
    0.9140    7.9308    6.1179 Si  0  0  0  0  0  0  0  0  0  0  0  0
   -0.6295    7.2187    6.9318 C   0  0  0  0  0  0  0  0  0  0  0  0
   -1.4163    7.4454    6.3944 H   0  0  0  0  0  0  0  0  0  0  0  0
   -0.7275    7.5948    7.8312 H   0  0  0  0  0  0  0  0  0  0  0  0
   -0.5455    6.2436    6.9931 H   0  0  0  0  0  0  0  0  0  0  0  0
    0.6400    9.7964    6.1761 C   0  0  0  0  0  0  0  0  0  0  0  0
    1.4283   10.2538    5.8162 H   0  0  0  0  0  0  0  0  0  0  0  0
    0.4950   10.0765    7.1040 H   0  0  0  0  0  0  0  0  0  0  0  0
   -0.1460   10.0280    5.6385 H   0  0  0  0  0  0  0  0  0  0  0  0
    2.2628    7.5188    7.3799 C   0  0  0  0  0  0  0  0  0  0  0  0
    2.2872    6.5503    7.5281 H   0  0  0  0  0  0  0  0  0  0  0  0
    2.0693    7.9739    8.2258 H   0  0  0  0  0  0  0  0  0  0  0  0
    3.1317    7.8186    7.0392 H   0  0  0  0  0  0  0  0  0  0  0  0
   -1.2086    5.9861    4.0228 C   0  0  0  0  0  0  0  0  0  0  0  0
   -1.7019    4.9655    4.8462 C   0  0  0  0  0  0  0  0  0  0  0  0
   -1.1129    4.2799    5.1389 H   0  0  0  0  0  0  0  0  0  0  0  0
   -3.0333    4.9329    5.2449 C   0  0  0  0  0  0  0  0  0  0  0  0
   -3.3468    4.2205    5.7898 H   0  0  0  0  0  0  0  0  0  0  0  0
   -3.9025    5.9326    4.8517 C   0  0  0  0  0  0  0  0  0  0  0  0
   -4.8114    5.9170    5.1278 H   0  0  0  0  0  0  0  0  0  0  0  0
   -3.4282    6.9595    4.0473 C   0  0  0  0  0  0  0  0  0  0  0  0
   -4.0214    7.6565    3.7922 H   0  0  0  0  0  0  0  0  0  0  0  0
   -2.1055    6.9993    3.6019 C   0  0  0  0  0  0  0  0  0  0  0  0
   -1.6950    8.1450    2.7099 C   0  0  0  0  0  0  0  0  0  0  0  0
   -2.1957    8.9553    2.9799 H   0  0  0  0  0  0  0  0  0  0  0  0
   -0.7316    8.3273    2.8471 H   0  0  0  0  0  0  0  0  0  0  0  0
   -1.9287    7.8989    1.2987 O   0  0  0  0  0  0  0  0  0  0  0  0
   -3.3126    7.8549    0.9233 C   0  0  0  0  0  0  0  0  0  0  0  0
   -3.7355    7.0680    1.3256 H   0  0  0  0  0  0  0  0  0  0  0  0
   -3.3847    7.8017   -0.0526 H   0  0  0  0  0  0  0  0  0  0  0  0
   -3.7628    8.6658    1.2402 H   0  0  0  0  0  0  0  0  0  0  0  0
    1.2653    4.4170    4.1140 C   0  0  0  0  0  0  0  0  0  0  0  0
    2.3720    4.4656    4.9663 C   0  0  0  0  0  0  0  0  0  0  0  0
    2.6974    5.3096    5.2565 H   0  0  0  0  0  0  0  0  0  0  0  0
    3.0090    3.3043    5.4001 C   0  0  0  0  0  0  0  0  0  0  0  0
    3.7841    3.3620    5.9464 H   0  0  0  0  0  0  0  0  0  0  0  0
    2.5102    2.0682    5.0333 C   0  0  0  0  0  0  0  0  0  0  0  0
    2.9179    1.2721    5.3537 H   0  0  0  0  0  0  0  0  0  0  0  0
    1.4095    2.0017    4.1936 C   0  0  0  0  0  0  0  0  0  0  0  0
    1.0553    1.1511    3.9624 H   0  0  0  0  0  0  0  0  0  0  0  0
    0.8085    3.1488    3.6793 C   0  0  0  0  0  0  0  0  0  0  0  0
   -0.3046    2.9629    2.6667 C   0  0  0  0  0  0  0  0  0  0  0  0
   -0.8546    2.1837    2.9318 H   0  0  0  0  0  0  0  0  0  0  0  0
   -0.8878    3.7628    2.6786 H   0  0  0  0  0  0  0  0  0  0  0  0
    0.1871    2.7571    1.3177 O   0  0  0  0  0  0  0  0  0  0  0  0
    0.7065    1.4465    1.0780 C   0  0  0  0  0  0  0  0  0  0  0  0
    1.5484    1.3344    1.5672 H   0  0  0  0  0  0  0  0  0  0  0  0
    0.8685    1.3298    0.1185 H   0  0  0  0  0  0  0  0  0  0  0  0
    0.0594    0.7774    1.3839 H   0  0  0  0  0  0  0  0  0  0  0  0
    0.4129    4.1778    0.0226 Li  0  0  0  0  0  0  0  0  0  0  0  0
   -0.8856    5.2943   -3.5863 P   0  0  0  0  0  0  0  0  0  0  0  0
   -0.9754    5.3393   -1.6270 B   0  0  0  0  0  0  0  0  0  0  0  0
   -1.8098    6.0137   -1.2842 H   0  0  0  0  0  0  0  0  0  0  0  0
    0.0510    5.7646   -1.2735 H   0  0  0  0  0  0  0  0  0  0  0  0
   -1.0903    4.2964   -1.2150 H   0  0  0  0  0  0  0  0  0  0  0  0
   -1.6269    3.9865   -4.4070 C   0  0  0  0  0  0  0  0  0  0  0  0
   -2.9729    3.0672   -3.5566 Si  0  0  0  0  0  0  0  0  0  0  0  0
   -4.0770    4.1298   -2.4690 C   0  0  0  0  0  0  0  0  0  0  0  0
   -4.4492    4.8648   -3.0004 H   0  0  0  0  0  0  0  0  0  0  0  0
   -4.8071    3.5833   -2.1111 H   0  0  0  0  0  0  0  0  0  0  0  0
   -3.5503    4.4971   -1.7285 H   0  0  0  0  0  0  0  0  0  0  0  0
   -2.3234    1.6322   -2.5165 C   0  0  0  0  0  0  0  0  0  0  0  0
   -1.7987    1.9828   -1.7672 H   0  0  0  0  0  0  0  0  0  0  0  0
   -3.0788    1.1114   -2.1708 H   0  0  0  0  0  0  0  0  0  0  0  0
   -1.7571    1.0564   -3.0714 H   0  0  0  0  0  0  0  0  0  0  0  0
   -4.2228    2.2965   -4.7483 C   0  0  0  0  0  0  0  0  0  0  0  0
   -3.7495    1.7451   -5.4062 H   0  0  0  0  0  0  0  0  0  0  0  0
   -4.8512    1.7371   -4.2456 H   0  0  0  0  0  0  0  0  0  0  0  0
   -4.7146    3.0066   -5.2104 H   0  0  0  0  0  0  0  0  0  0  0  0
   -1.2139    3.4387   -6.1179 Si  0  0  0  0  0  0  0  0  0  0  0  0
    0.3296    4.1508   -6.9318 C   0  0  0  0  0  0  0  0  0  0  0  0
    1.1164    3.9241   -6.3944 H   0  0  0  0  0  0  0  0  0  0  0  0
    0.4276    3.7746   -7.8312 H   0  0  0  0  0  0  0  0  0  0  0  0
    0.2456    5.1258   -6.9931 H   0  0  0  0  0  0  0  0  0  0  0  0
   -0.9399    1.5731   -6.1761 C   0  0  0  0  0  0  0  0  0  0  0  0
   -1.7282    1.1157   -5.8162 H   0  0  0  0  0  0  0  0  0  0  0  0
   -0.7949    1.2930   -7.1040 H   0  0  0  0  0  0  0  0  0  0  0  0
   -0.1539    1.3414   -5.6385 H   0  0  0  0  0  0  0  0  0  0  0  0
   -2.5627    3.8506   -7.3799 C   0  0  0  0  0  0  0  0  0  0  0  0
   -2.5871    4.8192   -7.5281 H   0  0  0  0  0  0  0  0  0  0  0  0
   -2.3692    3.3955   -8.2258 H   0  0  0  0  0  0  0  0  0  0  0  0
   -3.4316    3.5508   -7.0392 H   0  0  0  0  0  0  0  0  0  0  0  0
    0.9087    5.3834   -4.0228 C   0  0  0  0  0  0  0  0  0  0  0  0
    1.4020    6.4040   -4.8462 C   0  0  0  0  0  0  0  0  0  0  0  0
    0.8129    7.0895   -5.1389 H   0  0  0  0  0  0  0  0  0  0  0  0
    2.7334    6.4366   -5.2449 C   0  0  0  0  0  0  0  0  0  0  0  0
    3.0468    7.1490   -5.7898 H   0  0  0  0  0  0  0  0  0  0  0  0
    3.6026    5.4368   -4.8517 C   0  0  0  0  0  0  0  0  0  0  0  0
    4.5115    5.4525   -5.1278 H   0  0  0  0  0  0  0  0  0  0  0  0
    3.1283    4.4100   -4.0473 C   0  0  0  0  0  0  0  0  0  0  0  0
    3.7215    3.7130   -3.7922 H   0  0  0  0  0  0  0  0  0  0  0  0
    1.8056    4.3701   -3.6019 C   0  0  0  0  0  0  0  0  0  0  0  0
    1.3951    3.2244   -2.7099 C   0  0  0  0  0  0  0  0  0  0  0  0
    1.8958    2.4142   -2.9799 H   0  0  0  0  0  0  0  0  0  0  0  0
    0.4317    3.0422   -2.8471 H   0  0  0  0  0  0  0  0  0  0  0  0
    1.6288    3.4706   -1.2987 O   0  0  0  0  0  0  0  0  0  0  0  0
    3.0126    3.5146   -0.9233 C   0  0  0  0  0  0  0  0  0  0  0  0
    3.4356    4.3014   -1.3256 H   0  0  0  0  0  0  0  0  0  0  0  0
    3.0848    3.5677    0.0526 H   0  0  0  0  0  0  0  0  0  0  0  0
    3.4629    2.7036   -1.2402 H   0  0  0  0  0  0  0  0  0  0  0  0
   -1.5652    6.9525   -4.1140 C   0  0  0  0  0  0  0  0  0  0  0  0
   -2.6719    6.9039   -4.9663 C   0  0  0  0  0  0  0  0  0  0  0  0
   -2.9973    6.0599   -5.2565 H   0  0  0  0  0  0  0  0  0  0  0  0
   -3.3089    8.0652   -5.4001 C   0  0  0  0  0  0  0  0  0  0  0  0
   -4.0840    8.0074   -5.9464 H   0  0  0  0  0  0  0  0  0  0  0  0
   -2.8101    9.3013   -5.0333 C   0  0  0  0  0  0  0  0  0  0  0  0
   -3.2178   10.0973   -5.3537 H   0  0  0  0  0  0  0  0  0  0  0  0
   -1.7094    9.3677   -4.1936 C   0  0  0  0  0  0  0  0  0  0  0  0
   -1.3552   10.2184   -3.9624 H   0  0  0  0  0  0  0  0  0  0  0  0
   -1.1084    8.2206   -3.6793 C   0  0  0  0  0  0  0  0  0  0  0  0
    0.0047    8.4065   -2.6667 C   0  0  0  0  0  0  0  0  0  0  0  0
    0.5547    9.1858   -2.9318 H   0  0  0  0  0  0  0  0  0  0  0  0
    0.5879    7.6066   -2.6786 H   0  0  0  0  0  0  0  0  0  0  0  0
   -0.4870    8.6124   -1.3177 O   0  0  0  0  0  0  0  0  0  0  0  0
   -1.0064    9.9229   -1.0780 C   0  0  0  0  0  0  0  0  0  0  0  0
   -1.8483   10.0350   -1.5672 H   0  0  0  0  0  0  0  0  0  0  0  0
   -1.1684   10.0397   -0.1185 H   0  0  0  0  0  0  0  0  0  0  0  0
   -0.3593   10.5920   -1.3839 H   0  0  0  0  0  0  0  0  0  0  0  0
  1  5  1  0  0  0  0
  2  3  1  0  0  0  0
  3  4  1  0  0  0  0
  4 70  1  0  0  0  0
  5  3  1  0  0  0  0
  6  1  1  0  0  0  0
  7  2  2  0  0  0  0
  8  7  1  0  0  0  0
  9  8  1  0  0  0  0
 10  9  1  0  0  0  0
 11  9  1  0  0  0  0
 12  9  1  0  0  0  0
 13  8  1  0  0  0  0
 14 13  1  0  0  0  0
 15 13  1  0  0  0  0
 16 13  1  0  0  0  0
 17  8  1  0  0  0  0
 18 17  1  0  0  0  0
 19 17  1  0  0  0  0
 20 17  1  0  0  0  0
 21  7  1  0  0  0  0
 22 21  1  0  0  0  0
 23 22  1  0  0  0  0
 24 22  1  0  0  0  0
 25 22  1  0  0  0  0
 26 21  1  0  0  0  0
 27 26  1  0  0  0  0
 28 26  1  0  0  0  0
 29 26  1  0  0  0  0
 30 21  1  0  0  0  0
 31 30  1  0  0  0  0
 32 30  1  0  0  0  0
 33 30  1  0  0  0  0
 34  2  1  0  0  0  0
 35 34  4  0  0  0  0
 36 35  1  0  0  0  0
 37 35  4  0  0  0  0
 38 37  1  0  0  0  0
 39 37  4  0  0  0  0
 40 39  1  0  0  0  0
 41 39  4  0  0  0  0
 42 41  1  0  0  0  0
 43 34  4  0  0  0  0
 44 43  1  0  0  0  0
 45 44  1  0  0  0  0
 46 44  1  0  0  0  0
 47  1  1  0  0  0  0
 48 47  1  0  0  0  0
 49 48  1  0  0  0  0
 50 48  1  0  0  0  0
 51 48  1  0  0  0  0
 52  2  1  0  0  0  0
 53 52  4  0  0  0  0
 54 53  1  0  0  0  0
 55 53  4  0  0  0  0
 56 55  1  0  0  0  0
 57 55  4  0  0  0  0
 58 57  1  0  0  0  0
 59 57  4  0  0  0  0
 60 59  1  0  0  0  0
 61 52  4  0  0  0  0
 62 61  1  0  0  0  0
 63 62  1  0  0  0  0
 64 62  1  0  0  0  0
 65 62  1  0  0  0  0
 66 65  1  0  0  0  0
 67 66  1  0  0  0  0
 68 66  1  0  0  0  0
 69 66  1  0  0  0  0
 70  5  1  0  0  0  0
 71 72  1  0  0  0  0
 72 73  1  0  0  0  0
 73  1  1  0  0  0  0
 74  1  1  0  0  0  0
 75 70  1  0  0  0  0
 76 71  2  0  0  0  0
 77 76  1  0  0  0  0
 78 77  1  0  0  0  0
 79 78  1  0  0  0  0
 80 78  1  0  0  0  0
 81 78  1  0  0  0  0
 82 77  1  0  0  0  0
 83 82  1  0  0  0  0
 84 82  1  0  0  0  0
 85 82  1  0  0  0  0
 86 77  1  0  0  0  0
 87 86  1  0  0  0  0
 88 86  1  0  0  0  0
 89 86  1  0  0  0  0
 90 76  1  0  0  0  0
 91 90  1  0  0  0  0
 92 91  1  0  0  0  0
 93 91  1  0  0  0  0
 94 91  1  0  0  0  0
 95 90  1  0  0  0  0
 96 95  1  0  0  0  0
 97 95  1  0  0  0  0
 98 95  1  0  0  0  0
 99 90  1  0  0  0  0
100 99  1  0  0  0  0
101 99  1  0  0  0  0
102 99  1  0  0  0  0
103 71  1  0  0  0  0
104103  4  0  0  0  0
105104  1  0  0  0  0
106104  4  0  0  0  0
107106  1  0  0  0  0
108106  4  0  0  0  0
109108  1  0  0  0  0
110108  4  0  0  0  0
111110  1  0  0  0  0
112103  4  0  0  0  0
113112  1  0  0  0  0
114113  1  0  0  0  0
115113  1  0  0  0  0
116 70  1  0  0  0  0
117116  1  0  0  0  0
118117  1  0  0  0  0
119117  1  0  0  0  0
120117  1  0  0  0  0
121 71  1  0  0  0  0
122121  4  0  0  0  0
123122  1  0  0  0  0
124122  4  0  0  0  0
125124  1  0  0  0  0
126124  4  0  0  0  0
127126  1  0  0  0  0
128126  4  0  0  0  0
129128  1  0  0  0  0
130121  4  0  0  0  0
131130  1  0  0  0  0
132131  1  0  0  0  0
133131  1  0  0  0  0
134  1  1  0  0  0  0
135134  1  0  0  0  0
136135  1  0  0  0  0
137135  1  0  0  0  0
138135  1  0  0  0  0
  3  6  1  0  0  0  0
 41 43  4  0  0  0  0
 44 47  1  0  0  0  0
 59 61  4  0  0  0  0
 65 70  1  0  0  0  0
 70 74  1  0  0  0  0
 72 74  1  0  0  0  0
 72 75  1  0  0  0  0
110112  4  0  0  0  0
113116  1  0  0  0  0
128130  4  0  0  0  0
131134  1  0  0  0  0
M  END
$$$$
ALEVOF

From CSD data. Using bond type 'Any'. No disordered atoms. Largest molecule.
124132  0  0  0  0  0  0  0  0999 V2000
    7.9556    8.5791   15.0822 Li  0  3  0  0  0  0  0  0  0  0  0  0
    6.1165    8.4977   13.6071 B   0  5  0  0  0  0  0  0  0  0  0  0
    6.3169    7.6964   14.3530 H   0  0  0  0  0  0  0  0  0  0  0  0
    5.7411    9.4481   14.0743 H   0  0  0  0  0  0  0  0  0  0  0  0
    7.0620    8.6067   13.0749 H   0  0  0  0  0  0  0  0  0  0  0  0
    4.8678    7.7607   12.3402 P   0  0  0  0  0  0  0  0  0  0  0  0
    3.3006    7.3391   13.2100 C   0  0  0  0  0  0  0  0  0  0  0  0
    3.3049    7.0150   14.5584 C   0  0  0  0  0  0  0  0  0  0  0  0
    4.1279    6.9881   15.0320 H   0  0  0  0  0  0  0  0  0  0  0  0
    2.1168    6.7295   15.2310 C   0  0  0  0  0  0  0  0  0  0  0  0
    2.1336    6.5106   16.1545 H   0  0  0  0  0  0  0  0  0  0  0  0
    0.9409    6.7626   14.5667 C   0  0  0  0  0  0  0  0  0  0  0  0
    0.1349    6.5529   15.0246 H   0  0  0  0  0  0  0  0  0  0  0  0
    0.8987    7.1019   13.2257 C   0  0  0  0  0  0  0  0  0  0  0  0
    0.0680    7.1299   12.7642 H   0  0  0  0  0  0  0  0  0  0  0  0
    2.0900    7.4026   12.5531 C   0  0  0  0  0  0  0  0  0  0  0  0
    2.0638    7.6514   11.6366 H   0  0  0  0  0  0  0  0  0  0  0  0
    5.6107    6.1337   11.9247 C   0  0  0  0  0  0  0  0  0  0  0  0
    6.5626    6.1006   10.9062 C   0  0  0  0  0  0  0  0  0  0  0  0
    6.7223    6.8786   10.3855 H   0  0  0  0  0  0  0  0  0  0  0  0
    7.2733    4.9489   10.6527 C   0  0  0  0  0  0  0  0  0  0  0  0
    7.9215    4.9402    9.9586 H   0  0  0  0  0  0  0  0  0  0  0  0
    7.0537    3.8137   11.3881 C   0  0  0  0  0  0  0  0  0  0  0  0
    7.5536    3.0256   11.2110 H   0  0  0  0  0  0  0  0  0  0  0  0
    6.1052    3.8234   12.3855 C   0  0  0  0  0  0  0  0  0  0  0  0
    5.9417    3.0354   12.8889 H   0  0  0  0  0  0  0  0  0  0  0  0
    5.3895    4.9737   12.6579 C   0  0  0  0  0  0  0  0  0  0  0  0
    4.7420    4.9722   13.3520 H   0  0  0  0  0  0  0  0  0  0  0  0
    4.6253    8.6991   10.9028 C   0  0  0  0  0  0  0  0  0  0  0  0
    4.0390    8.1695    9.7085 C   0  0  0  0  0  0  0  0  0  0  0  0
    3.5122    6.8467    9.5840 C   0  0  0  0  0  0  0  0  0  0  0  0
    3.5449    6.2656   10.3340 H   0  0  0  0  0  0  0  0  0  0  0  0
    2.9555    6.3861    8.4065 C   0  0  0  0  0  0  0  0  0  0  0  0
    2.6238    5.4966    8.3724 H   0  0  0  0  0  0  0  0  0  0  0  0
    2.8682    7.1736    7.2855 C   0  0  0  0  0  0  0  0  0  0  0  0
    2.4749    6.8511    6.4828 H   0  0  0  0  0  0  0  0  0  0  0  0
    3.3786    8.4577    7.3693 C   0  0  0  0  0  0  0  0  0  0  0  0
    3.3353    9.0240    6.6084 H   0  0  0  0  0  0  0  0  0  0  0  0
    3.9453    8.9364    8.5265 C   0  0  0  0  0  0  0  0  0  0  0  0
    4.2887    9.8226    8.5312 H   0  0  0  0  0  0  0  0  0  0  0  0
    5.1507   10.1170   10.9127 C   0  0  0  0  0  0  0  0  0  0  0  0
    5.7194   10.2479   10.1134 H   0  0  0  0  0  0  0  0  0  0  0  0
    5.7246   10.2348   11.7104 H   0  0  0  0  0  0  0  0  0  0  0  0
    4.0486   11.2273   10.9255 C   0  0  0  0  0  0  0  0  0  0  0  0
    3.4144   11.0235   10.1800 H   0  0  0  0  0  0  0  0  0  0  0  0
    3.2492   11.2163   12.2114 C   0  0  0  0  0  0  0  0  0  0  0  0
    1.9115   10.8591   12.2074 C   0  0  0  0  0  0  0  0  0  0  0  0
    1.4740   10.6891   11.3823 H   0  0  0  0  0  0  0  0  0  0  0  0
    1.2029   10.7446   13.3975 C   0  0  0  0  0  0  0  0  0  0  0  0
    0.2846   10.5000   13.3782 H   0  0  0  0  0  0  0  0  0  0  0  0
    1.8123   10.9791   14.5877 C   0  0  0  0  0  0  0  0  0  0  0  0
    1.3246   10.8874   15.3992 H   0  0  0  0  0  0  0  0  0  0  0  0
    3.1350   11.3487   14.6170 C   0  0  0  0  0  0  0  0  0  0  0  0
    3.5591   11.5241   15.4485 H   0  0  0  0  0  0  0  0  0  0  0  0
    3.8485   11.4646   13.4415 C   0  0  0  0  0  0  0  0  0  0  0  0
    4.7634   11.7184   13.4720 H   0  0  0  0  0  0  0  0  0  0  0  0
    4.8164   12.8583   10.5582 P   0  3  0  0  0  0  0  0  0  0  0  0
    6.1845   13.4838   11.7674 B   0  5  0  0  0  0  0  0  0  0  0  0
    6.6887   14.3169   11.1681 H   0  0  0  0  0  0  0  0  0  0  0  0
    5.6958   13.7376   12.6977 H   0  0  0  0  0  0  0  0  0  0  0  0
    6.8841   12.5790   11.9434 H   0  0  0  0  0  0  0  0  0  0  0  0
    3.4951   14.1004   10.3490 C   0  0  0  0  0  0  0  0  0  0  0  0
    2.2097   13.7983    9.9423 C   0  0  0  0  0  0  0  0  0  0  0  0
    1.9482   12.8916    9.8349 H   0  0  0  0  0  0  0  0  0  0  0  0
    1.2978   14.8148    9.6930 C   0  0  0  0  0  0  0  0  0  0  0  0
    0.4254   14.6009    9.3861 H   0  0  0  0  0  0  0  0  0  0  0  0
    1.6497   16.1155    9.8879 C   0  0  0  0  0  0  0  0  0  0  0  0
    1.0190   16.8064    9.7170 H   0  0  0  0  0  0  0  0  0  0  0  0
    2.9153   16.4341   10.3300 C   0  0  0  0  0  0  0  0  0  0  0  0
    3.1530   17.3408   10.4858 H   0  0  0  0  0  0  0  0  0  0  0  0
    3.8372   15.4300   10.5437 C   0  0  0  0  0  0  0  0  0  0  0  0
    4.7155   15.6518   10.8267 H   0  0  0  0  0  0  0  0  0  0  0  0
    5.4780   12.6535    8.8718 C   0  0  0  0  0  0  0  0  0  0  0  0
    6.8459   12.6949    8.6726 C   0  0  0  0  0  0  0  0  0  0  0  0
    7.4226   12.8361    9.4137 H   0  0  0  0  0  0  0  0  0  0  0  0
    7.3800   12.5363    7.4217 C   0  0  0  0  0  0  0  0  0  0  0  0
    8.3217   12.5602    7.3010 H   0  0  0  0  0  0  0  0  0  0  0  0
    6.5578   12.3418    6.3426 C   0  0  0  0  0  0  0  0  0  0  0  0
    6.9296   12.2289    5.4753 H   0  0  0  0  0  0  0  0  0  0  0  0
    5.1900   12.3087    6.5144 C   0  0  0  0  0  0  0  0  0  0  0  0
    4.6204   12.1747    5.7657 H   0  0  0  0  0  0  0  0  0  0  0  0
    4.6460   12.4687    7.7674 C   0  0  0  0  0  0  0  0  0  0  0  0
    3.7036   12.4524    7.8803 H   0  0  0  0  0  0  0  0  0  0  0  0
    7.4099    8.9736   16.8970 O   0  0  0  0  0  0  0  0  0  0  0  0
    7.7670   10.1543   17.5924 C   0  0  0  0  0  0  0  0  0  0  0  0
    6.9613   10.5195   18.0370 H   0  0  0  0  0  0  0  0  0  0  0  0
    8.0805   10.8286   16.9379 H   0  0  0  0  0  0  0  0  0  0  0  0
    8.7954    9.9529   18.5835 C   0  0  0  0  0  0  0  0  0  0  0  0
    8.4941    9.2876   19.2356 H   0  0  0  0  0  0  0  0  0  0  0  0
    8.9788   10.8002   19.0403 H   0  0  0  0  0  0  0  0  0  0  0  0
    9.6126    9.6349   18.1450 H   0  0  0  0  0  0  0  0  0  0  0  0
    6.3192    8.2191   17.5065 C   0  0  0  0  0  0  0  0  0  0  0  0
    6.5144    8.0834   18.4672 H   0  0  0  0  0  0  0  0  0  0  0  0
    6.2632    7.3271   17.0791 H   0  0  0  0  0  0  0  0  0  0  0  0
    5.0100    8.9101   17.3661 C   0  0  0  0  0  0  0  0  0  0  0  0
    5.0609    9.7952   17.7838 H   0  0  0  0  0  0  0  0  0  0  0  0
    4.3119    8.3812   17.8075 H   0  0  0  0  0  0  0  0  0  0  0  0
    4.7918    9.0093   16.4160 H   0  0  0  0  0  0  0  0  0  0  0  0
    9.0213    6.9819   15.1140 O   0  0  0  0  0  0  0  0  0  0  0  0
    9.5073    6.3006   16.2493 C   0  0  0  0  0  0  0  0  0  0  0  0
    8.7870    6.1650   16.9146 H   0  0  0  0  0  0  0  0  0  0  0  0
   10.2456    6.8054   16.6748 H   0  0  0  0  0  0  0  0  0  0  0  0
    9.9998    4.9806   15.7150 C   0  0  0  0  0  0  0  0  0  0  0  0
    9.7121    4.2338   16.2988 H   0  0  0  0  0  0  0  0  0  0  0  0
   10.9872    4.9726   15.6469 H   0  0  0  0  0  0  0  0  0  0  0  0
    9.3302    4.8689   14.2797 C   0  0  0  0  0  0  0  0  0  0  0  0
    9.8808    4.3223   13.6653 H   0  0  0  0  0  0  0  0  0  0  0  0
    8.4198    4.4837   14.3340 H   0  0  0  0  0  0  0  0  0  0  0  0
    9.2952    6.2509   13.8690 C   0  0  0  0  0  0  0  0  0  0  0  0
    8.5774    6.4051   13.2031 H   0  0  0  0  0  0  0  0  0  0  0  0
   10.1610    6.5278   13.4774 H   0  0  0  0  0  0  0  0  0  0  0  0
    9.2461    9.9170   14.5433 O   0  0  0  0  0  0  0  0  0  0  0  0
    8.9527   11.1184   13.8040 C   0  0  0  0  0  0  0  0  0  0  0  0
    8.6324   11.8315   14.4106 H   0  0  0  0  0  0  0  0  0  0  0  0
    8.2558   10.9452   13.1211 H   0  0  0  0  0  0  0  0  0  0  0  0
   10.2066   11.5060   13.1692 C   0  0  0  0  0  0  0  0  0  0  0  0
   10.0834   11.5836   12.1907 H   0  0  0  0  0  0  0  0  0  0  0  0
   10.5060   12.3834   13.5180 H   0  0  0  0  0  0  0  0  0  0  0  0
   11.1859   10.4963   13.4667 C   0  0  0  0  0  0  0  0  0  0  0  0
   11.3860    9.9612   12.6582 H   0  0  0  0  0  0  0  0  0  0  0  0
   12.0255   10.9127   13.7860 H   0  0  0  0  0  0  0  0  0  0  0  0
   10.6377    9.6922   14.4557 C   0  0  0  0  0  0  0  0  0  0  0  0
   11.0641    9.8971   15.3256 H   0  0  0  0  0  0  0  0  0  0  0  0
   10.8097    8.7404   14.2444 H   0  0  0  0  0  0  0  0  0  0  0  0
  1  3  1  0  0  0  0
  2  3  1  0  0  0  0
  4  2  1  0  0  0  0
  5  1  1  0  0  0  0
  6  2  1  0  0  0  0
  7  6  1  0  0  0  0
  8  7  4  0  0  0  0
  9  8  1  0  0  0  0
 10  8  4  0  0  0  0
 11 10  1  0  0  0  0
 12 10  4  0  0  0  0
 13 12  1  0  0  0  0
 14 12  4  0  0  0  0
 15 14  1  0  0  0  0
 16  7  4  0  0  0  0
 17 16  1  0  0  0  0
 18  6  1  0  0  0  0
 19 18  4  0  0  0  0
 20 19  1  0  0  0  0
 21 19  4  0  0  0  0
 22 21  1  0  0  0  0
 23 21  4  0  0  0  0
 24 23  1  0  0  0  0
 25 23  4  0  0  0  0
 26 25  1  0  0  0  0
 27 18  4  0  0  0  0
 28 27  1  0  0  0  0
 29  6  2  0  0  0  0
 30 29  1  0  0  0  0
 31 30  4  0  0  0  0
 32 31  1  0  0  0  0
 33 31  4  0  0  0  0
 34 33  1  0  0  0  0
 35 33  4  0  0  0  0
 36 35  1  0  0  0  0
 37 35  4  0  0  0  0
 38 37  1  0  0  0  0
 39 30  4  0  0  0  0
 40 39  1  0  0  0  0
 41 29  1  0  0  0  0
 42 41  1  0  0  0  0
 43 41  1  0  0  0  0
 44 41  1  0  0  0  0
 45 44  1  0  0  0  0
 46 44  1  0  0  0  0
 47 46  4  0  0  0  0
 48 47  1  0  0  0  0
 49 47  4  0  0  0  0
 50 49  1  0  0  0  0
 51 49  4  0  0  0  0
 52 51  1  0  0  0  0
 53 51  4  0  0  0  0
 54 53  1  0  0  0  0
 55 46  4  0  0  0  0
 56 55  1  0  0  0  0
 57 44  1  0  0  0  0
 58 57  1  0  0  0  0
 59 58  1  0  0  0  0
 60 58  1  0  0  0  0
 61 58  1  0  0  0  0
 62 57  1  0  0  0  0
 63 62  4  0  0  0  0
 64 63  1  0  0  0  0
 65 63  4  0  0  0  0
 66 65  1  0  0  0  0
 67 65  4  0  0  0  0
 68 67  1  0  0  0  0
 69 67  4  0  0  0  0
 70 69  1  0  0  0  0
 71 62  4  0  0  0  0
 72 71  1  0  0  0  0
 73 57  1  0  0  0  0
 74 73  4  0  0  0  0
 75 74  1  0  0  0  0
 76 74  4  0  0  0  0
 77 76  1  0  0  0  0
 78 76  4  0  0  0  0
 79 78  1  0  0  0  0
 80 78  4  0  0  0  0
 81 80  1  0  0  0  0
 82 73  4  0  0  0  0
 83 82  1  0  0  0  0
 84  1  1  0  0  0  0
 85 84  1  0  0  0  0
 86 85  1  0  0  0  0
 87 85  1  0  0  0  0
 88 85  1  0  0  0  0
 89 88  1  0  0  0  0
 90 88  1  0  0  0  0
 91 88  1  0  0  0  0
 92 84  1  0  0  0  0
 93 92  1  0  0  0  0
 94 92  1  0  0  0  0
 95 92  1  0  0  0  0
 96 95  1  0  0  0  0
 97 95  1  0  0  0  0
 98 95  1  0  0  0  0
 99  1  1  0  0  0  0
100 99  1  0  0  0  0
101100  1  0  0  0  0
102100  1  0  0  0  0
103100  1  0  0  0  0
104103  1  0  0  0  0
105103  1  0  0  0  0
106103  1  0  0  0  0
107106  1  0  0  0  0
108106  1  0  0  0  0
109 99  1  0  0  0  0
110109  1  0  0  0  0
111109  1  0  0  0  0
112  1  1  0  0  0  0
113112  1  0  0  0  0
114113  1  0  0  0  0
115113  1  0  0  0  0
116113  1  0  0  0  0
117116  1  0  0  0  0
118116  1  0  0  0  0
119116  1  0  0  0  0
120119  1  0  0  0  0
121119  1  0  0  0  0
122112  1  0  0  0  0
123122  1  0  0  0  0
124122  1  0  0  0  0
  2  5  1  0  0  0  0
 14 16  4  0  0  0  0
 25 27  4  0  0  0  0
 37 39  4  0  0  0  0
 53 55  4  0  0  0  0
 69 71  4  0  0  0  0
 80 82  4  0  0  0  0
106109  1  0  0  0  0
119122  1  0  0  0  0
M  CHG  4   1   1   2  -1  57   1  58  -1
M  END
$$$$
AMAPOW

From CSD data. Using bond type 'Any'. Matching problem. No disordered atoms. Largest molecule.
159165  0  0  0  0  0  0  0  0999 V2000
   -0.3451    3.6284   12.2124 B   0  5  0  0  0  0  0  0  0  0  0  0
    2.1252   -0.0144   11.5739 B   0  5  0  0  0  0  0  0  0  0  0  0
    0.6387    2.3783   12.1254 O   0  0  0  0  0  0  0  0  0  0  0  0
    2.1401    0.9012   12.8227 O   0  0  0  0  0  0  0  0  0  0  0  0
    1.4059    2.5312   14.7730 P   0  3  0  0  0  0  0  0  0  0  0  0
    3.5524    1.0776    7.7416 P   0  3  0  0  0  0  0  0  0  0  0  0
    4.7092    1.5573    8.2585 H   0  0  0  0  0  0  0  0  0  0  0  0
    2.8366    2.1471    7.6589 H   0  0  0  0  0  0  0  0  0  0  0  0
    0.7814    4.2309   14.5052 C   0  0  0  0  0  0  0  0  0  0  0  0
    0.6343    4.6860   15.3720 H   0  0  0  0  0  0  0  0  0  0  0  0
    1.4311    4.7588   13.9768 H   0  0  0  0  0  0  0  0  0  0  0  0
   -0.5469    4.0899   13.7393 C   0  0  0  0  0  0  0  0  0  0  0  0
   -1.0206    4.9590   13.7531 H   0  0  0  0  0  0  0  0  0  0  0  0
   -1.1175    3.4271   14.2033 H   0  0  0  0  0  0  0  0  0  0  0  0
    1.4244    1.9366   13.0368 C   0  0  0  0  0  0  0  0  0  0  0  0
    2.8433    0.0169    9.0174 C   0  0  0  0  0  0  0  0  0  0  0  0
    1.9882   -0.3675    8.6995 H   0  0  0  0  0  0  0  0  0  0  0  0
    3.4632   -0.7284    9.2191 H   0  0  0  0  0  0  0  0  0  0  0  0
    2.6020    0.8543   10.2843 C   0  0  0  0  0  0  0  0  0  0  0  0
    1.9117    1.5362   10.0879 H   0  0  0  0  0  0  0  0  0  0  0  0
    3.4383    1.3316   10.5140 H   0  0  0  0  0  0  0  0  0  0  0  0
    3.0510    2.7701   15.5716 C   0  0  0  0  0  0  0  0  0  0  0  0
    3.0856    2.1715   16.8756 C   0  0  0  0  0  0  0  0  0  0  0  0
    3.7366    2.8579   17.8935 C   0  0  0  0  0  0  0  0  0  0  0  0
    3.7208    2.4857   18.7673 H   0  0  0  0  0  0  0  0  0  0  0  0
    4.4087    4.0580   17.7037 C   0  0  0  0  0  0  0  0  0  0  0  0
    4.5674    4.4744   16.3858 C   0  0  0  0  0  0  0  0  0  0  0  0
    5.1346    5.2170   16.2142 H   0  0  0  0  0  0  0  0  0  0  0  0
    3.9369    3.8582   15.2997 C   0  0  0  0  0  0  0  0  0  0  0  0
    2.5007    0.7595   17.2017 C   0  0  0  0  0  0  0  0  0  0  0  0
    3.2315    0.1439   18.4141 C   0  0  0  0  0  0  0  0  0  0  0  0
    3.0126   -0.8092   18.4782 H   0  0  0  0  0  0  0  0  0  0  0  0
    2.9468    0.6002   19.2334 H   0  0  0  0  0  0  0  0  0  0  0  0
    4.1990    0.2501   18.3005 H   0  0  0  0  0  0  0  0  0  0  0  0
    1.0031    0.7856   17.5700 C   0  0  0  0  0  0  0  0  0  0  0  0
    0.4760    1.0260   16.7795 H   0  0  0  0  0  0  0  0  0  0  0  0
    0.8518    1.4475   18.2769 H   0  0  0  0  0  0  0  0  0  0  0  0
    0.7291   -0.1000   17.8881 H   0  0  0  0  0  0  0  0  0  0  0  0
    2.7366   -0.1960   16.0268 C   0  0  0  0  0  0  0  0  0  0  0  0
    3.6956   -0.2437   15.8322 H   0  0  0  0  0  0  0  0  0  0  0  0
    2.2588    0.1335   15.2369 H   0  0  0  0  0  0  0  0  0  0  0  0
    2.4054   -1.0884   16.2599 H   0  0  0  0  0  0  0  0  0  0  0  0
    4.9733    4.8367   18.9053 C   0  0  0  0  0  0  0  0  0  0  0  0
    3.7966    5.2815   19.7927 C   0  0  0  0  0  0  0  0  0  0  0  0
    3.2863    4.4947   20.0774 H   0  0  0  0  0  0  0  0  0  0  0  0
    3.2129    5.8828   19.2843 H   0  0  0  0  0  0  0  0  0  0  0  0
    4.1410    5.7504   20.5813 H   0  0  0  0  0  0  0  0  0  0  0  0
    5.9112    3.9251   19.7175 C   0  0  0  0  0  0  0  0  0  0  0  0
    6.2736    4.4246   20.4789 H   0  0  0  0  0  0  0  0  0  0  0  0
    6.6472    3.6214   19.1461 H   0  0  0  0  0  0  0  0  0  0  0  0
    5.4101    3.1491   20.0447 H   0  0  0  0  0  0  0  0  0  0  0  0
    5.7535    6.0872   18.4813 C   0  0  0  0  0  0  0  0  0  0  0  0
    6.0831    6.5522   19.2784 H   0  0  0  0  0  0  0  0  0  0  0  0
    5.1633    6.6843   17.9755 H   0  0  0  0  0  0  0  0  0  0  0  0
    6.5117    5.8242   17.9192 H   0  0  0  0  0  0  0  0  0  0  0  0
    4.4040    4.3751   13.9097 C   0  0  0  0  0  0  0  0  0  0  0  0
    5.9295    4.1182   13.8347 C   0  0  0  0  0  0  0  0  0  0  0  0
    6.1021    3.1565   13.9091 H   0  0  0  0  0  0  0  0  0  0  0  0
    6.3759    4.5884   14.5692 H   0  0  0  0  0  0  0  0  0  0  0  0
    6.2739    4.4470   12.9784 H   0  0  0  0  0  0  0  0  0  0  0  0
    4.1572    5.8943   13.7544 C   0  0  0  0  0  0  0  0  0  0  0  0
    4.4824    6.1905   12.8788 H   0  0  0  0  0  0  0  0  0  0  0  0
    4.6346    6.3770   14.4609 H   0  0  0  0  0  0  0  0  0  0  0  0
    3.1967    6.0779   13.8251 H   0  0  0  0  0  0  0  0  0  0  0  0
    3.8091    3.6653   12.6935 C   0  0  0  0  0  0  0  0  0  0  0  0
    2.8602    3.8983   12.6111 H   0  0  0  0  0  0  0  0  0  0  0  0
    3.8983    2.6958   12.8046 H   0  0  0  0  0  0  0  0  0  0  0  0
    4.2855    3.9469   11.8849 H   0  0  0  0  0  0  0  0  0  0  0  0
    3.8089    0.4171    6.0913 C   0  0  0  0  0  0  0  0  0  0  0  0
    5.0396   -0.2460    5.7729 C   0  0  0  0  0  0  0  0  0  0  0  0
    5.1292   -0.8765    4.5266 C   0  0  0  0  0  0  0  0  0  0  0  0
    5.9419   -1.3122    4.2973 H   0  0  0  0  0  0  0  0  0  0  0  0
    4.0864   -0.8944    3.6093 C   0  0  0  0  0  0  0  0  0  0  0  0
    2.9241   -0.2176    3.9388 C   0  0  0  0  0  0  0  0  0  0  0  0
    2.2162   -0.2117    3.3058 H   0  0  0  0  0  0  0  0  0  0  0  0
    2.7315    0.4546    5.1418 C   0  0  0  0  0  0  0  0  0  0  0  0
    6.3042   -0.3105    6.6872 C   0  0  0  0  0  0  0  0  0  0  0  0
    6.9504    1.0822    6.8391 C   0  0  0  0  0  0  0  0  0  0  0  0
    7.7078    1.0251    7.4590 H   0  0  0  0  0  0  0  0  0  0  0  0
    6.2883    1.7134    7.1900 H   0  0  0  0  0  0  0  0  0  0  0  0
    7.2670    1.3927    5.9651 H   0  0  0  0  0  0  0  0  0  0  0  0
    5.9899   -0.9552    8.0575 C   0  0  0  0  0  0  0  0  0  0  0  0
    5.4117   -1.7358    7.9263 H   0  0  0  0  0  0  0  0  0  0  0  0
    5.5322   -0.3026    8.6281 H   0  0  0  0  0  0  0  0  0  0  0  0
    6.8248   -1.2354    8.4864 H   0  0  0  0  0  0  0  0  0  0  0  0
    7.3998   -1.2181    6.0745 C   0  0  0  0  0  0  0  0  0  0  0  0
    8.1798   -1.2338    6.6671 H   0  0  0  0  0  0  0  0  0  0  0  0
    7.6618   -0.8670    5.1980 H   0  0  0  0  0  0  0  0  0  0  0  0
    7.0496   -2.1276    5.9708 H   0  0  0  0  0  0  0  0  0  0  0  0
    4.1776   -1.6371    2.2578 C   0  0  0  0  0  0  0  0  0  0  0  0
    5.5515   -2.2604    2.0349 C   0  0  0  0  0  0  0  0  0  0  0  0
    6.2285   -1.5529    1.9938 H   0  0  0  0  0  0  0  0  0  0  0  0
    5.5505   -2.7609    1.1924 H   0  0  0  0  0  0  0  0  0  0  0  0
    5.7586   -2.8679    2.7756 H   0  0  0  0  0  0  0  0  0  0  0  0
    3.1176   -2.7481    2.2316 C   0  0  0  0  0  0  0  0  0  0  0  0
    3.2974   -3.3888    2.9510 H   0  0  0  0  0  0  0  0  0  0  0  0
    3.1487   -3.2097    1.3677 H   0  0  0  0  0  0  0  0  0  0  0  0
    2.2286   -2.3549    2.3596 H   0  0  0  0  0  0  0  0  0  0  0  0
    3.9106   -0.6393    1.1133 C   0  0  0  0  0  0  0  0  0  0  0  0
    3.0168   -0.2521    1.2190 H   0  0  0  0  0  0  0  0  0  0  0  0
    3.9651   -1.1063    0.2534 H   0  0  0  0  0  0  0  0  0  0  0  0
    4.5813    0.0751    1.1399 H   0  0  0  0  0  0  0  0  0  0  0  0
    1.3978    1.2446    5.3075 C   0  0  0  0  0  0  0  0  0  0  0  0
    0.4190    0.9604    4.1370 C   0  0  0  0  0  0  0  0  0  0  0  0
   -0.4130    1.4587    4.2786 H   0  0  0  0  0  0  0  0  0  0  0  0
    0.2229    0.0009    4.1007 H   0  0  0  0  0  0  0  0  0  0  0  0
    0.8289    1.2423    3.2927 H   0  0  0  0  0  0  0  0  0  0  0  0
    1.6756    2.7588    5.2553 C   0  0  0  0  0  0  0  0  0  0  0  0
    0.8421    3.2497    5.4118 H   0  0  0  0  0  0  0  0  0  0  0  0
    2.0333    2.9951    4.3739 H   0  0  0  0  0  0  0  0  0  0  0  0
    2.3288    2.9952    5.9467 H   0  0  0  0  0  0  0  0  0  0  0  0
    0.6030    0.8603    6.5762 C   0  0  0  0  0  0  0  0  0  0  0  0
    1.0403    1.2453    7.3644 H   0  0  0  0  0  0  0  0  0  0  0  0
    0.5764   -0.1157    6.6618 H   0  0  0  0  0  0  0  0  0  0  0  0
   -0.3105    1.2074    6.5072 H   0  0  0  0  0  0  0  0  0  0  0  0
    0.3591    4.7531   11.2347 C   0  0  0  0  0  0  0  0  0  0  0  0
    0.6641    6.0644   11.5793 C   0  0  0  0  0  0  0  0  0  0  0  0
    1.2451    6.9744   10.7295 C   0  0  0  0  0  0  0  0  0  0  0  0
    1.5563    6.6184    9.4432 C   0  0  0  0  0  0  0  0  0  0  0  0
    1.2602    5.3400    9.0266 C   0  0  0  0  0  0  0  0  0  0  0  0
    0.6805    4.4524    9.9088 C   0  0  0  0  0  0  0  0  0  0  0  0
   -1.7573    3.0690   11.6060 C   0  0  0  0  0  0  0  0  0  0  0  0
   -2.3247    1.9003   12.1180 C   0  0  0  0  0  0  0  0  0  0  0  0
   -3.5396    1.3816   11.7398 C   0  0  0  0  0  0  0  0  0  0  0  0
   -4.2705    2.0449   10.7753 C   0  0  0  0  0  0  0  0  0  0  0  0
   -3.7720    3.1976   10.2329 C   0  0  0  0  0  0  0  0  0  0  0  0
   -2.5546    3.6902   10.6570 C   0  0  0  0  0  0  0  0  0  0  0  0
    3.2622   -1.1658   11.8943 C   0  0  0  0  0  0  0  0  0  0  0  0
    4.3663   -0.9874   12.7298 C   0  0  0  0  0  0  0  0  0  0  0  0
    5.2857   -1.9866   13.0200 C   0  0  0  0  0  0  0  0  0  0  0  0
    5.1696   -3.2147   12.4114 C   0  0  0  0  0  0  0  0  0  0  0  0
    4.1363   -3.4254   11.5281 C   0  0  0  0  0  0  0  0  0  0  0  0
    3.2195   -2.4180   11.3036 C   0  0  0  0  0  0  0  0  0  0  0  0
    0.6210   -0.6791   11.5458 C   0  0  0  0  0  0  0  0  0  0  0  0
   -0.3426   -0.5074   10.5676 C   0  0  0  0  0  0  0  0  0  0  0  0
   -1.5864   -1.1191   10.5925 C   0  0  0  0  0  0  0  0  0  0  0  0
   -1.9424   -1.9103   11.6461 C   0  0  0  0  0  0  0  0  0  0  0  0
   -1.0393   -2.0819   12.6724 C   0  0  0  0  0  0  0  0  0  0  0  0
    0.1965   -1.4847   12.5992 C   0  0  0  0  0  0  0  0  0  0  0  0
    0.3743    6.5591   12.8045 F   0  0  0  0  0  0  0  0  0  0  0  0
    1.5097    8.2333   11.1533 F   0  0  0  0  0  0  0  0  0  0  0  0
    2.1080    7.5116    8.5990 F   0  0  0  0  0  0  0  0  0  0  0  0
    1.5388    4.9634    7.7552 F   0  0  0  0  0  0  0  0  0  0  0  0
    0.3775    3.2292    9.4110 F   0  0  0  0  0  0  0  0  0  0  0  0
   -1.6586    1.2023   13.0772 F   0  0  0  0  0  0  0  0  0  0  0  0
   -4.0152    0.2460   12.2773 F   0  0  0  0  0  0  0  0  0  0  0  0
   -5.4656    1.5648   10.3817 F   0  0  0  0  0  0  0  0  0  0  0  0
   -4.4813    3.8424    9.2796 F   0  0  0  0  0  0  0  0  0  0  0  0
   -2.1686    4.8554   10.0864 F   0  0  0  0  0  0  0  0  0  0  0  0
    4.6054    0.2040   13.3203 F   0  0  0  0  0  0  0  0  0  0  0  0
    6.2811   -1.7693   13.8961 F   0  0  0  0  0  0  0  0  0  0  0  0
    6.0513   -4.1986   12.6779 F   0  0  0  0  0  0  0  0  0  0  0  0
    4.0330   -4.6121   10.8850 F   0  0  0  0  0  0  0  0  0  0  0  0
    2.2211   -2.7236   10.4180 F   0  0  0  0  0  0  0  0  0  0  0  0
   -0.1136    0.2901    9.4918 F   0  0  0  0  0  0  0  0  0  0  0  0
   -2.4649   -0.9017    9.5804 F   0  0  0  0  0  0  0  0  0  0  0  0
   -3.1407   -2.5235   11.6733 F   0  0  0  0  0  0  0  0  0  0  0  0
   -1.3736   -2.8546   13.7325 F   0  0  0  0  0  0  0  0  0  0  0  0
    1.0339   -1.7186   13.6378 F   0  0  0  0  0  0  0  0  0  0  0  0
  1  3  1  0  0  0  0
  2  4  1  0  0  0  0
  3 15  1  0  0  0  0
  4 15  1  0  0  0  0
  5  9  1  0  0  0  0
  6  7  1  0  0  0  0
  8  6  1  0  0  0  0
  9 10  1  0  0  0  0
 11  9  1  0  0  0  0
 12  1  1  0  0  0  0
 13 12  1  0  0  0  0
 14 12  1  0  0  0  0
 15  5  2  0  0  0  0
 16  6  1  0  0  0  0
 17 16  1  0  0  0  0
 18 16  1  0  0  0  0
 19  2  1  0  0  0  0
 20 19  1  0  0  0  0
 21 19  1  0  0  0  0
 22  5  1  0  0  0  0
 23 22  4  0  0  0  0
 24 23  4  0  0  0  0
 25 24  1  0  0  0  0
 26 24  4  0  0  0  0
 27 26  4  0  0  0  0
 28 27  1  0  0  0  0
 29 22  4  0  0  0  0
 30 23  1  0  0  0  0
 31 30  1  0  0  0  0
 32 31  1  0  0  0  0
 33 31  1  0  0  0  0
 34 31  1  0  0  0  0
 35 30  1  0  0  0  0
 36 35  1  0  0  0  0
 37 35  1  0  0  0  0
 38 35  1  0  0  0  0
 39 30  1  0  0  0  0
 40 39  1  0  0  0  0
 41 39  1  0  0  0  0
 42 39  1  0  0  0  0
 43 26  1  0  0  0  0
 44 43  1  0  0  0  0
 45 44  1  0  0  0  0
 46 44  1  0  0  0  0
 47 44  1  0  0  0  0
 48 43  1  0  0  0  0
 49 48  1  0  0  0  0
 50 48  1  0  0  0  0
 51 48  1  0  0  0  0
 52 43  1  0  0  0  0
 53 52  1  0  0  0  0
 54 52  1  0  0  0  0
 55 52  1  0  0  0  0
 56 29  1  0  0  0  0
 57 56  1  0  0  0  0
 58 57  1  0  0  0  0
 59 57  1  0  0  0  0
 60 57  1  0  0  0  0
 61 56  1  0  0  0  0
 62 61  1  0  0  0  0
 63 61  1  0  0  0  0
 64 61  1  0  0  0  0
 65 56  1  0  0  0  0
 66 65  1  0  0  0  0
 67 65  1  0  0  0  0
 68 65  1  0  0  0  0
 69  6  1  0  0  0  0
 70 69  4  0  0  0  0
 71 70  4  0  0  0  0
 72 71  1  0  0  0  0
 73 71  4  0  0  0  0
 74 73  4  0  0  0  0
 75 74  1  0  0  0  0
 76 69  4  0  0  0  0
 77 70  1  0  0  0  0
 78 77  1  0  0  0  0
 79 78  1  0  0  0  0
 80 78  1  0  0  0  0
 81 78  1  0  0  0  0
 82 77  1  0  0  0  0
 83 82  1  0  0  0  0
 84 82  1  0  0  0  0
 85 82  1  0  0  0  0
 86 77  1  0  0  0  0
 87 86  1  0  0  0  0
 88 86  1  0  0  0  0
 89 86  1  0  0  0  0
 90 73  1  0  0  0  0
 91 90  1  0  0  0  0
 92 91  1  0  0  0  0
 93 91  1  0  0  0  0
 94 91  1  0  0  0  0
 95 90  1  0  0  0  0
 96 95  1  0  0  0  0
 97 95  1  0  0  0  0
 98 95  1  0  0  0  0
 99 90  1  0  0  0  0
100 99  1  0  0  0  0
101 99  1  0  0  0  0
102 99  1  0  0  0  0
103 76  1  0  0  0  0
104103  1  0  0  0  0
105104  1  0  0  0  0
106104  1  0  0  0  0
107104  1  0  0  0  0
108103  1  0  0  0  0
109108  1  0  0  0  0
110108  1  0  0  0  0
111108  1  0  0  0  0
112103  1  0  0  0  0
113112  1  0  0  0  0
114112  1  0  0  0  0
115112  1  0  0  0  0
116  1  1  0  0  0  0
117116  4  0  0  0  0
118117  4  0  0  0  0
119118  4  0  0  0  0
120119  4  0  0  0  0
121116  4  0  0  0  0
122  1  1  0  0  0  0
123122  4  0  0  0  0
124123  4  0  0  0  0
125124  4  0  0  0  0
126125  4  0  0  0  0
127122  4  0  0  0  0
128  2  1  0  0  0  0
129128  4  0  0  0  0
130129  4  0  0  0  0
131130  4  0  0  0  0
132131  4  0  0  0  0
133128  4  0  0  0  0
134  2  1  0  0  0  0
135134  4  0  0  0  0
136135  4  0  0  0  0
137136  4  0  0  0  0
138137  4  0  0  0  0
139134  4  0  0  0  0
140117  1  0  0  0  0
141118  1  0  0  0  0
142119  1  0  0  0  0
143120  1  0  0  0  0
144121  1  0  0  0  0
145123  1  0  0  0  0
146124  1  0  0  0  0
147125  1  0  0  0  0
148126  1  0  0  0  0
149127  1  0  0  0  0
150129  1  0  0  0  0
151130  1  0  0  0  0
152131  1  0  0  0  0
153132  1  0  0  0  0
154133  1  0  0  0  0
155135  1  0  0  0  0
156136  1  0  0  0  0
157137  1  0  0  0  0
158138  1  0  0  0  0
159139  1  0  0  0  0
  9 12  1  0  0  0  0
 16 19  1  0  0  0  0
 27 29  4  0  0  0  0
 74 76  4  0  0  0  0
120121  4  0  0  0  0
126127  4  0  0  0  0
132133  4  0  0  0  0
138139  4  0  0  0  0
M  CHG  4   1  -1   2  -1   5   1   6   1
M  END
$$$$
AMOQUR

From CSD data. Using bond type 'Any'. Matching problem. No disordered atoms. Largest molecule.
154160  0  0  0  0  0  0  0  0999 V2000
    9.5164    6.5887    8.3876 Na  0  3  0  0  0  0  0  0  0  0  0  0
    9.3495    4.9284    4.0983 P   0  0  0  0  0  0  0  0  0  0  0  0
    9.2536    5.8555    5.8067 B   0  5  0  0  0  0  0  0  0  0  0  0
    8.5376    5.3203    6.4500 H   0  0  0  0  0  0  0  0  0  0  0  0
    8.8541    6.9128    5.5866 H   0  0  0  0  0  0  0  0  0  0  0  0
   10.2774    5.9226    6.2690 H   0  0  0  0  0  0  0  0  0  0  0  0
    9.7420    3.2615    4.0343 C   0  0  0  0  0  0  0  0  0  0  0  0
   10.8139    2.6313    5.3720 Si  0  0  0  0  0  0  0  0  0  0  0  0
   12.4312    3.5769    5.5139 C   0  0  0  0  0  0  0  0  0  0  0  0
   12.9542    3.4547    4.6942 H   0  0  0  0  0  0  0  0  0  0  0  0
   12.9411    3.2391    6.2799 H   0  0  0  0  0  0  0  0  0  0  0  0
   12.2425    4.5300    5.6420 H   0  0  0  0  0  0  0  0  0  0  0  0
   11.3245    0.8441    5.1132 C   0  0  0  0  0  0  0  0  0  0  0  0
   10.5307    0.3019    4.9230 H   0  0  0  0  0  0  0  0  0  0  0  0
   11.7626    0.5090    5.9232 H   0  0  0  0  0  0  0  0  0  0  0  0
   11.9469    0.7883    4.3583 H   0  0  0  0  0  0  0  0  0  0  0  0
   10.0125    2.6312    7.0714 C   0  0  0  0  0  0  0  0  0  0  0  0
    9.1137    2.2458    7.0087 H   0  0  0  0  0  0  0  0  0  0  0  0
    9.9510    3.5511    7.4037 H   0  0  0  0  0  0  0  0  0  0  0  0
   10.5548    2.0967    7.6883 H   0  0  0  0  0  0  0  0  0  0  0  0
    9.2282    2.1550    2.6747 Si  0  0  0  0  0  0  0  0  0  0  0  0
    8.0312    0.8347    3.2776 C   0  0  0  0  0  0  0  0  0  0  0  0
    7.2030    1.2599    3.5838 H   0  0  0  0  0  0  0  0  0  0  0  0
    8.4376    0.3394    4.0192 H   0  0  0  0  0  0  0  0  0  0  0  0
    7.8295    0.2171    2.5440 H   0  0  0  0  0  0  0  0  0  0  0  0
   10.6392    1.2446    1.8100 C   0  0  0  0  0  0  0  0  0  0  0  0
   11.3083    1.8928    1.5059 H   0  0  0  0  0  0  0  0  0  0  0  0
   10.2867    0.7528    1.0392 H   0  0  0  0  0  0  0  0  0  0  0  0
   11.0547    0.6158    2.4365 H   0  0  0  0  0  0  0  0  0  0  0  0
    8.3353    2.9725    1.2379 C   0  0  0  0  0  0  0  0  0  0  0  0
    7.4493    3.2714    1.5313 H   0  0  0  0  0  0  0  0  0  0  0  0
    8.2368    2.3285    0.5056 H   0  0  0  0  0  0  0  0  0  0  0  0
    8.8539    3.7437    0.9271 H   0  0  0  0  0  0  0  0  0  0  0  0
   10.5022    5.9613    3.0941 C   0  0  0  0  0  0  0  0  0  0  0  0
   11.3733    5.3418    2.2134 C   0  0  0  0  0  0  0  0  0  0  0  0
   11.3686    4.3948    2.1378 H   0  0  0  0  0  0  0  0  0  0  0  0
   12.2507    6.0841    1.4421 C   0  0  0  0  0  0  0  0  0  0  0  0
   12.8330    5.6439    0.8341 H   0  0  0  0  0  0  0  0  0  0  0  0
   12.2850    7.4545    1.5500 C   0  0  0  0  0  0  0  0  0  0  0  0
   12.8848    7.9615    1.0154 H   0  0  0  0  0  0  0  0  0  0  0  0
   11.4449    8.0864    2.4376 C   0  0  0  0  0  0  0  0  0  0  0  0
   11.4716    9.0323    2.5223 H   0  0  0  0  0  0  0  0  0  0  0  0
   10.5623    7.3517    3.2065 C   0  0  0  0  0  0  0  0  0  0  0  0
    9.9895    7.7980    3.8189 H   0  0  0  0  0  0  0  0  0  0  0  0
    7.7190    5.2695    3.3053 C   0  0  0  0  0  0  0  0  0  0  0  0
    7.6450    6.0720    2.1611 C   0  0  0  0  0  0  0  0  0  0  0  0
    8.4382    6.4678    1.8195 H   0  0  0  0  0  0  0  0  0  0  0  0
    6.4429    6.3017    1.5167 C   0  0  0  0  0  0  0  0  0  0  0  0
    6.4194    6.8490    0.7406 H   0  0  0  0  0  0  0  0  0  0  0  0
    5.2898    5.7454    1.9910 C   0  0  0  0  0  0  0  0  0  0  0  0
    4.4657    5.9004    1.5445 H   0  0  0  0  0  0  0  0  0  0  0  0
    5.3280    4.9566    3.1227 C   0  0  0  0  0  0  0  0  0  0  0  0
    4.5230    4.5731    3.4505 H   0  0  0  0  0  0  0  0  0  0  0  0
    6.5276    4.7108    3.7962 C   0  0  0  0  0  0  0  0  0  0  0  0
    6.4418    3.8662    5.0428 C   0  0  0  0  0  0  0  0  0  0  0  0
    5.8808    3.0673    4.8773 H   0  0  0  0  0  0  0  0  0  0  0  0
    7.3447    3.5652    5.3155 H   0  0  0  0  0  0  0  0  0  0  0  0
    5.8569    4.6795    6.0720 O   0  0  0  0  0  0  0  0  0  0  0  0
    5.6509    3.9428    7.2704 C   0  0  0  0  0  0  0  0  0  0  0  0
    5.2764    4.5336    7.9568 H   0  0  0  0  0  0  0  0  0  0  0  0
    6.5066    3.5809    7.5825 H   0  0  0  0  0  0  0  0  0  0  0  0
    5.0281    3.2062    7.0981 H   0  0  0  0  0  0  0  0  0  0  0  0
   10.8390    5.2426    9.7260 O   0  0  0  0  0  0  0  0  0  0  0  0
   12.2403    5.4257    9.9031 C   0  0  0  0  0  0  0  0  0  0  0  0
   12.6949    4.5463    9.8949 H   0  0  0  0  0  0  0  0  0  0  0  0
   12.4122    5.8539   10.7791 H   0  0  0  0  0  0  0  0  0  0  0  0
   12.7808    6.2753    8.8195 C   0  0  0  0  0  0  0  0  0  0  0  0
   13.7424    6.4050    8.9548 H   0  0  0  0  0  0  0  0  0  0  0  0
   12.3289    7.1450    8.8305 H   0  0  0  0  0  0  0  0  0  0  0  0
   12.6280    5.8388    7.9555 H   0  0  0  0  0  0  0  0  0  0  0  0
   10.3183    4.2801   10.6423 C   0  0  0  0  0  0  0  0  0  0  0  0
   10.5160    4.5601   11.5711 H   0  0  0  0  0  0  0  0  0  0  0  0
   10.7467    3.4015   10.4855 H   0  0  0  0  0  0  0  0  0  0  0  0
    8.8518    4.1648   10.4539 C   0  0  0  0  0  0  0  0  0  0  0  0
    8.4940    3.4974   11.0758 H   0  0  0  0  0  0  0  0  0  0  0  0
    8.6616    3.8885    9.5331 H   0  0  0  0  0  0  0  0  0  0  0  0
    8.4309    5.0325   10.6281 H   0  0  0  0  0  0  0  0  0  0  0  0
    6.4928    6.8962    5.9777 Na  0  3  0  0  0  0  0  0  0  0  0  0
    6.6598    8.5565   10.2670 P   0  0  0  0  0  0  0  0  0  0  0  0
    6.7556    7.6293    8.5585 B   0  5  0  0  0  0  0  0  0  0  0  0
    7.4716    8.1645    7.9152 H   0  0  0  0  0  0  0  0  0  0  0  0
    7.1551    6.5720    8.7786 H   0  0  0  0  0  0  0  0  0  0  0  0
    5.7318    7.5623    8.0962 H   0  0  0  0  0  0  0  0  0  0  0  0
    6.2672   10.2234   10.3309 C   0  0  0  0  0  0  0  0  0  0  0  0
    5.1953   10.8535    8.9932 Si  0  0  0  0  0  0  0  0  0  0  0  0
    3.5780    9.9079    8.8513 C   0  0  0  0  0  0  0  0  0  0  0  0
    3.0550   10.0301    9.6710 H   0  0  0  0  0  0  0  0  0  0  0  0
    3.0681   10.2457    8.0853 H   0  0  0  0  0  0  0  0  0  0  0  0
    3.7667    8.9549    8.7232 H   0  0  0  0  0  0  0  0  0  0  0  0
    4.6848   12.6407    9.2521 C   0  0  0  0  0  0  0  0  0  0  0  0
    5.4785   13.1830    9.4422 H   0  0  0  0  0  0  0  0  0  0  0  0
    4.2466   12.9758    8.4420 H   0  0  0  0  0  0  0  0  0  0  0  0
    4.0624   12.6965   10.0069 H   0  0  0  0  0  0  0  0  0  0  0  0
    5.9967   10.8536    7.2938 C   0  0  0  0  0  0  0  0  0  0  0  0
    6.8955   11.2390    7.3565 H   0  0  0  0  0  0  0  0  0  0  0  0
    6.0582    9.9337    6.9615 H   0  0  0  0  0  0  0  0  0  0  0  0
    5.4544   11.3881    6.6769 H   0  0  0  0  0  0  0  0  0  0  0  0
    6.7810   11.3298   11.6906 Si  0  0  0  0  0  0  0  0  0  0  0  0
    7.9780   12.6502   11.0876 C   0  0  0  0  0  0  0  0  0  0  0  0
    8.8062   12.2250   10.7814 H   0  0  0  0  0  0  0  0  0  0  0  0
    7.5716   13.1454   10.3460 H   0  0  0  0  0  0  0  0  0  0  0  0
    8.1797   13.2678   11.8212 H   0  0  0  0  0  0  0  0  0  0  0  0
    5.3700   12.2402   12.5552 C   0  0  0  0  0  0  0  0  0  0  0  0
    4.7009   11.5920   12.8594 H   0  0  0  0  0  0  0  0  0  0  0  0
    5.7225   12.7320   13.3261 H   0  0  0  0  0  0  0  0  0  0  0  0
    4.9546   12.8690   11.9287 H   0  0  0  0  0  0  0  0  0  0  0  0
    7.6739   10.5124   13.1274 C   0  0  0  0  0  0  0  0  0  0  0  0
    8.5599   10.2135   12.8339 H   0  0  0  0  0  0  0  0  0  0  0  0
    7.7724   11.1563   13.8596 H   0  0  0  0  0  0  0  0  0  0  0  0
    7.1553    9.7412   13.4381 H   0  0  0  0  0  0  0  0  0  0  0  0
    5.5070    7.5236   11.2711 C   0  0  0  0  0  0  0  0  0  0  0  0
    4.6359    8.1431   12.1518 C   0  0  0  0  0  0  0  0  0  0  0  0
    4.6407    9.0901   12.2274 H   0  0  0  0  0  0  0  0  0  0  0  0
    3.7585    7.4008   12.9231 C   0  0  0  0  0  0  0  0  0  0  0  0
    3.1762    7.8410   13.5312 H   0  0  0  0  0  0  0  0  0  0  0  0
    3.7242    6.0303   12.8152 C   0  0  0  0  0  0  0  0  0  0  0  0
    3.1245    5.5234   13.3498 H   0  0  0  0  0  0  0  0  0  0  0  0
    4.5643    5.3984   11.9276 C   0  0  0  0  0  0  0  0  0  0  0  0
    4.5376    4.4525   11.8429 H   0  0  0  0  0  0  0  0  0  0  0  0
    5.4469    6.1331   11.1588 C   0  0  0  0  0  0  0  0  0  0  0  0
    6.0197    5.6868   10.5463 H   0  0  0  0  0  0  0  0  0  0  0  0
    8.2902    8.2153   11.0599 C   0  0  0  0  0  0  0  0  0  0  0  0
    8.3642    7.4128   12.2041 C   0  0  0  0  0  0  0  0  0  0  0  0
    7.5711    7.0170   12.5457 H   0  0  0  0  0  0  0  0  0  0  0  0
    9.5663    7.1832   12.8485 C   0  0  0  0  0  0  0  0  0  0  0  0
    9.5898    6.6358   13.6246 H   0  0  0  0  0  0  0  0  0  0  0  0
   10.7194    7.7395   12.3742 C   0  0  0  0  0  0  0  0  0  0  0  0
   11.5435    7.5844   12.8207 H   0  0  0  0  0  0  0  0  0  0  0  0
   10.6812    8.5282   11.2425 C   0  0  0  0  0  0  0  0  0  0  0  0
   11.4862    8.9117   10.9147 H   0  0  0  0  0  0  0  0  0  0  0  0
    9.4816    8.7741   10.5691 C   0  0  0  0  0  0  0  0  0  0  0  0
    9.5675    9.6187    9.3224 C   0  0  0  0  0  0  0  0  0  0  0  0
   10.1284   10.4175    9.4880 H   0  0  0  0  0  0  0  0  0  0  0  0
    8.6646    9.9196    9.0497 H   0  0  0  0  0  0  0  0  0  0  0  0
   10.1523    8.8053    8.2932 O   0  0  0  0  0  0  0  0  0  0  0  0
   10.3583    9.5421    7.0948 C   0  0  0  0  0  0  0  0  0  0  0  0
   10.7328    8.9512    6.4085 H   0  0  0  0  0  0  0  0  0  0  0  0
    9.5026    9.9039    6.7827 H   0  0  0  0  0  0  0  0  0  0  0  0
   10.9811   10.2787    7.2671 H   0  0  0  0  0  0  0  0  0  0  0  0
    5.1702    8.2422    4.6392 O   0  0  0  0  0  0  0  0  0  0  0  0
    3.7689    8.0591    4.4621 C   0  0  0  0  0  0  0  0  0  0  0  0
    3.3143    8.9385    4.4703 H   0  0  0  0  0  0  0  0  0  0  0  0
    3.5970    7.6310    3.5861 H   0  0  0  0  0  0  0  0  0  0  0  0
    3.2284    7.2095    5.5457 C   0  0  0  0  0  0  0  0  0  0  0  0
    2.2669    7.0799    5.4104 H   0  0  0  0  0  0  0  0  0  0  0  0
    3.6803    6.3398    5.5347 H   0  0  0  0  0  0  0  0  0  0  0  0
    3.3813    7.6460    6.4097 H   0  0  0  0  0  0  0  0  0  0  0  0
    5.6910    9.2047    3.7229 C   0  0  0  0  0  0  0  0  0  0  0  0
    5.4932    8.9248    2.7941 H   0  0  0  0  0  0  0  0  0  0  0  0
    5.2626   10.0833    3.8797 H   0  0  0  0  0  0  0  0  0  0  0  0
    7.1574    9.3201    3.9114 C   0  0  0  0  0  0  0  0  0  0  0  0
    7.5152    9.9875    3.2894 H   0  0  0  0  0  0  0  0  0  0  0  0
    7.3476    9.5964    4.8321 H   0  0  0  0  0  0  0  0  0  0  0  0
    7.5784    8.4523    3.7371 H   0  0  0  0  0  0  0  0  0  0  0  0
  1  6  1  0  0  0  0
  2  3  1  0  0  0  0
  3  4  1  0  0  0  0
  5  3  1  0  0  0  0
  6  3  1  0  0  0  0
  7  2  2  0  0  0  0
  8  7  1  0  0  0  0
  9  8  1  0  0  0  0
 10  9  1  0  0  0  0
 11  9  1  0  0  0  0
 12  9  1  0  0  0  0
 13  8  1  0  0  0  0
 14 13  1  0  0  0  0
 15 13  1  0  0  0  0
 16 13  1  0  0  0  0
 17  8  1  0  0  0  0
 18 17  1  0  0  0  0
 19 17  1  0  0  0  0
 20 17  1  0  0  0  0
 21  7  1  0  0  0  0
 22 21  1  0  0  0  0
 23 22  1  0  0  0  0
 24 22  1  0  0  0  0
 25 22  1  0  0  0  0
 26 21  1  0  0  0  0
 27 26  1  0  0  0  0
 28 26  1  0  0  0  0
 29 26  1  0  0  0  0
 30 21  1  0  0  0  0
 31 30  1  0  0  0  0
 32 30  1  0  0  0  0
 33 30  1  0  0  0  0
 34  2  1  0  0  0  0
 35 34  4  0  0  0  0
 36 35  1  0  0  0  0
 37 35  4  0  0  0  0
 38 37  1  0  0  0  0
 39 37  4  0  0  0  0
 40 39  1  0  0  0  0
 41 39  4  0  0  0  0
 42 41  1  0  0  0  0
 43 34  4  0  0  0  0
 44 43  1  0  0  0  0
 45  2  1  0  0  0  0
 46 45  4  0  0  0  0
 47 46  1  0  0  0  0
 48 46  4  0  0  0  0
 49 48  1  0  0  0  0
 50 48  4  0  0  0  0
 51 50  1  0  0  0  0
 52 50  4  0  0  0  0
 53 52  1  0  0  0  0
 54 45  4  0  0  0  0
 55 54  1  0  0  0  0
 56 55  1  0  0  0  0
 57 55  1  0  0  0  0
 58 55  1  0  0  0  0
 59 58  1  0  0  0  0
 60 59  1  0  0  0  0
 61 59  1  0  0  0  0
 62 59  1  0  0  0  0
 63  1  1  0  0  0  0
 64 63  1  0  0  0  0
 65 64  1  0  0  0  0
 66 64  1  0  0  0  0
 67 64  1  0  0  0  0
 68 67  1  0  0  0  0
 69 67  1  0  0  0  0
 70 67  1  0  0  0  0
 71 63  1  0  0  0  0
 72 71  1  0  0  0  0
 73 71  1  0  0  0  0
 74 71  1  0  0  0  0
 75 74  1  0  0  0  0
 76 74  1  0  0  0  0
 77 74  1  0  0  0  0
 78  5  1  0  0  0  0
 79 80  1  0  0  0  0
 80 81  1  0  0  0  0
 82  1  1  0  0  0  0
 83 78  1  0  0  0  0
 84 79  2  0  0  0  0
 85 84  1  0  0  0  0
 86 85  1  0  0  0  0
 87 86  1  0  0  0  0
 88 86  1  0  0  0  0
 89 86  1  0  0  0  0
 90 85  1  0  0  0  0
 91 90  1  0  0  0  0
 92 90  1  0  0  0  0
 93 90  1  0  0  0  0
 94 85  1  0  0  0  0
 95 94  1  0  0  0  0
 96 94  1  0  0  0  0
 97 94  1  0  0  0  0
 98 84  1  0  0  0  0
 99 98  1  0  0  0  0
100 99  1  0  0  0  0
101 99  1  0  0  0  0
102 99  1  0  0  0  0
103 98  1  0  0  0  0
104103  1  0  0  0  0
105103  1  0  0  0  0
106103  1  0  0  0  0
107 98  1  0  0  0  0
108107  1  0  0  0  0
109107  1  0  0  0  0
110107  1  0  0  0  0
111 79  1  0  0  0  0
112111  4  0  0  0  0
113112  1  0  0  0  0
114112  4  0  0  0  0
115114  1  0  0  0  0
116114  4  0  0  0  0
117116  1  0  0  0  0
118116  4  0  0  0  0
119118  1  0  0  0  0
120111  4  0  0  0  0
121120  1  0  0  0  0
122 79  1  0  0  0  0
123122  4  0  0  0  0
124123  1  0  0  0  0
125123  4  0  0  0  0
126125  1  0  0  0  0
127125  4  0  0  0  0
128127  1  0  0  0  0
129127  4  0  0  0  0
130129  1  0  0  0  0
131122  4  0  0  0  0
132131  1  0  0  0  0
133132  1  0  0  0  0
134132  1  0  0  0  0
135  1  1  0  0  0  0
136135  1  0  0  0  0
137136  1  0  0  0  0
138136  1  0  0  0  0
139136  1  0  0  0  0
140 78  1  0  0  0  0
141140  1  0  0  0  0
142141  1  0  0  0  0
143141  1  0  0  0  0
144141  1  0  0  0  0
145144  1  0  0  0  0
146144  1  0  0  0  0
147144  1  0  0  0  0
148140  1  0  0  0  0
149148  1  0  0  0  0
150148  1  0  0  0  0
151148  1  0  0  0  0
152151  1  0  0  0  0
153151  1  0  0  0  0
154151  1  0  0  0  0
 41 43  4  0  0  0  0
 52 54  4  0  0  0  0
 58 78  1  0  0  0  0
 80 82  1  0  0  0  0
 80 83  1  0  0  0  0
118120  4  0  0  0  0
129131  4  0  0  0  0
132135  1  0  0  0  0
M  CHG  4   1   1   3  -1  78   1  80  -1
M  END
$$$$
AMOREC

From CSD data. Using bond type 'Any'. No disordered atoms. Largest molecule.
154165  0  0  0  0  0  0  0  0999 V2000
    8.4793    7.7097    5.5578 K   0  3  0  0  0  0  0  0  0  0  0  0
    5.2964    8.0856    8.5039 K   0  3  0  0  0  0  0  0  0  0  0  0
    4.8365    7.4194    3.5375 P   0  0  0  0  0  0  0  0  0  0  0  0
    5.2442    7.6939    5.4245 B   0  5  0  0  0  0  0  0  0  0  0  0
    5.8102    8.6441    5.5288 H   0  0  0  0  0  0  0  0  0  0  0  0
    5.8479    6.8477    5.7713 H   0  0  0  0  0  0  0  0  0  0  0  0
    4.3222    7.7352    6.0167 H   0  0  0  0  0  0  0  0  0  0  0  0
    3.9157    8.5950    2.6950 C   0  0  0  0  0  0  0  0  0  0  0  0
    3.9534    8.8361    0.8830 Si  0  0  0  0  0  0  0  0  0  0  0  0
    4.2961   10.6221    0.3945 C   0  0  0  0  0  0  0  0  0  0  0  0
    5.1645   10.8984    0.7551 H   0  0  0  0  0  0  0  0  0  0  0  0
    3.5930   11.2005    0.7568 H   0  0  0  0  0  0  0  0  0  0  0  0
    4.3095   10.6967   -0.5825 H   0  0  0  0  0  0  0  0  0  0  0  0
    5.2500    7.8497   -0.0560 C   0  0  0  0  0  0  0  0  0  0  0  0
    6.1429    8.1792    0.1768 H   0  0  0  0  0  0  0  0  0  0  0  0
    5.1044    7.9533   -1.0197 H   0  0  0  0  0  0  0  0  0  0  0  0
    5.1778    6.9027    0.1852 H   0  0  0  0  0  0  0  0  0  0  0  0
    2.3246    8.3919    0.0190 C   0  0  0  0  0  0  0  0  0  0  0  0
    2.1153    7.4489    0.1821 H   0  0  0  0  0  0  0  0  0  0  0  0
    2.4145    8.5450   -0.9449 H   0  0  0  0  0  0  0  0  0  0  0  0
    1.6038    8.9533    0.3732 H   0  0  0  0  0  0  0  0  0  0  0  0
    2.7255    9.5318    3.7084 Si  0  0  0  0  0  0  0  0  0  0  0  0
    1.6145   10.6773    2.7217 C   0  0  0  0  0  0  0  0  0  0  0  0
    2.1409   11.4313    2.3824 H   0  0  0  0  0  0  0  0  0  0  0  0
    0.8971   11.0141    3.2989 H   0  0  0  0  0  0  0  0  0  0  0  0
    1.2242   10.1863    1.9689 H   0  0  0  0  0  0  0  0  0  0  0  0
    3.5259   10.6864    4.9647 C   0  0  0  0  0  0  0  0  0  0  0  0
    4.2266   11.2117    4.5253 H   0  0  0  0  0  0  0  0  0  0  0  0
    3.9195   10.1577    5.6897 H   0  0  0  0  0  0  0  0  0  0  0  0
    2.8468   11.2901    5.3321 H   0  0  0  0  0  0  0  0  0  0  0  0
    1.5332    8.4281    4.6664 C   0  0  0  0  0  0  0  0  0  0  0  0
    0.9552    7.9490    4.0375 H   0  0  0  0  0  0  0  0  0  0  0  0
    0.9836    8.9806    5.2606 H   0  0  0  0  0  0  0  0  0  0  0  0
    2.0431    7.7827    5.1993 H   0  0  0  0  0  0  0  0  0  0  0  0
    4.1076    5.7264    3.4132 C   0  0  0  0  0  0  0  0  0  0  0  0
    4.3211    4.7462    4.3603 C   0  0  0  0  0  0  0  0  0  0  0  0
    4.8532    4.9417    5.1228 H   0  0  0  0  0  0  0  0  0  0  0  0
    3.7741    3.4791    4.2195 C   0  0  0  0  0  0  0  0  0  0  0  0
    3.9275    2.8196    4.8860 H   0  0  0  0  0  0  0  0  0  0  0  0
    3.0166    3.1789    3.1285 C   0  0  0  0  0  0  0  0  0  0  0  0
    2.6488    2.3084    3.0283 H   0  0  0  0  0  0  0  0  0  0  0  0
    2.7900    4.1289    2.1822 C   0  0  0  0  0  0  0  0  0  0  0  0
    2.2676    3.9224    1.4158 H   0  0  0  0  0  0  0  0  0  0  0  0
    3.3239    5.4073    2.3386 C   0  0  0  0  0  0  0  0  0  0  0  0
    3.1388    6.0713    1.6845 H   0  0  0  0  0  0  0  0  0  0  0  0
    6.5007    7.1631    2.7780 C   0  0  0  0  0  0  0  0  0  0  0  0
    6.9101    5.8965    2.3590 C   0  0  0  0  0  0  0  0  0  0  0  0
    6.3138    5.1625    2.4449 H   0  0  0  0  0  0  0  0  0  0  0  0
    8.1670    5.6899    1.8212 C   0  0  0  0  0  0  0  0  0  0  0  0
    8.4168    4.8207    1.5293 H   0  0  0  0  0  0  0  0  0  0  0  0
    9.0572    6.7308    1.7058 C   0  0  0  0  0  0  0  0  0  0  0  0
    9.9278    6.5822    1.3558 H   0  0  0  0  0  0  0  0  0  0  0  0
    8.6714    7.9865    2.1022 C   0  0  0  0  0  0  0  0  0  0  0  0
    9.2777    8.7109    2.0018 H   0  0  0  0  0  0  0  0  0  0  0  0
    7.4118    8.2253    2.6490 C   0  0  0  0  0  0  0  0  0  0  0  0
    7.1074    9.6444    3.0479 C   0  0  0  0  0  0  0  0  0  0  0  0
    7.1693   10.2420    2.2608 H   0  0  0  0  0  0  0  0  0  0  0  0
    6.1918    9.7072    3.4186 H   0  0  0  0  0  0  0  0  0  0  0  0
    8.0712   10.0307    4.0397 O   0  0  0  0  0  0  0  0  0  0  0  0
    7.9539   11.4105    4.3344 C   0  0  0  0  0  0  0  0  0  0  0  0
    8.6098   11.6552    5.0199 H   0  0  0  0  0  0  0  0  0  0  0  0
    7.0503   11.5979    4.6653 H   0  0  0  0  0  0  0  0  0  0  0  0
    8.1190   11.9333    3.5223 H   0  0  0  0  0  0  0  0  0  0  0  0
    9.1515    9.0089   10.3502 P   0  0  0  0  0  0  0  0  0  0  0  0
    8.5897    8.2675    8.6347 B   0  5  0  0  0  0  0  0  0  0  0  0
    8.0037    7.3414    8.9051 H   0  0  0  0  0  0  0  0  0  0  0  0
    7.9495    9.0121    8.1022 H   0  0  0  0  0  0  0  0  0  0  0  0
    9.5256    7.9430    8.0408 H   0  0  0  0  0  0  0  0  0  0  0  0
   10.0727   10.4533   10.4174 C   0  0  0  0  0  0  0  0  0  0  0  0
   10.1383   11.5043   11.9115 Si  0  0  0  0  0  0  0  0  0  0  0  0
    9.3998   10.7521   13.4600 C   0  0  0  0  0  0  0  0  0  0  0  0
    8.4260   10.6937   13.3626 H   0  0  0  0  0  0  0  0  0  0  0  0
    9.6173   11.3143   14.2325 H   0  0  0  0  0  0  0  0  0  0  0  0
    9.7685    9.8542   13.5952 H   0  0  0  0  0  0  0  0  0  0  0  0
    9.2442   13.1421   11.6606 C   0  0  0  0  0  0  0  0  0  0  0  0
    8.2797   12.9811   11.5961 H   0  0  0  0  0  0  0  0  0  0  0  0
    9.5610   13.5641   10.8349 H   0  0  0  0  0  0  0  0  0  0  0  0
    9.4266   13.7334   12.4206 H   0  0  0  0  0  0  0  0  0  0  0  0
   11.8813   11.9522   12.4650 C   0  0  0  0  0  0  0  0  0  0  0  0
   12.3000   12.5286   11.7918 H   0  0  0  0  0  0  0  0  0  0  0  0
   12.4112   11.1348   12.5702 H   0  0  0  0  0  0  0  0  0  0  0  0
   11.8402   12.4274   13.3213 H   0  0  0  0  0  0  0  0  0  0  0  0
   11.1111   10.8326    8.9645 Si  0  0  0  0  0  0  0  0  0  0  0  0
   12.1727   12.3714    9.1444 C   0  0  0  0  0  0  0  0  0  0  0  0
   11.6238   13.1092    9.4833 H   0  0  0  0  0  0  0  0  0  0  0  0
   12.5447   12.6156    8.2711 H   0  0  0  0  0  0  0  0  0  0  0  0
   12.9035   12.1927    9.7723 H   0  0  0  0  0  0  0  0  0  0  0  0
   12.3534    9.4710    8.5909 C   0  0  0  0  0  0  0  0  0  0  0  0
   11.8776    8.6298    8.4287 H   0  0  0  0  0  0  0  0  0  0  0  0
   12.9584    9.3620    9.3543 H   0  0  0  0  0  0  0  0  0  0  0  0
   12.8724    9.7114    7.7950 H   0  0  0  0  0  0  0  0  0  0  0  0
   10.1492   11.1589    7.3826 C   0  0  0  0  0  0  0  0  0  0  0  0
    9.5457   11.9191    7.5180 H   0  0  0  0  0  0  0  0  0  0  0  0
    9.6258   10.3640    7.1486 H   0  0  0  0  0  0  0  0  0  0  0  0
   10.7745   11.3636    6.6562 H   0  0  0  0  0  0  0  0  0  0  0  0
   10.0328    7.6049   11.1546 C   0  0  0  0  0  0  0  0  0  0  0  0
   11.2751    7.8318   11.7337 C   0  0  0  0  0  0  0  0  0  0  0  0
   11.6150    8.7174   11.7726 H   0  0  0  0  0  0  0  0  0  0  0  0
   12.0252    6.7953   12.2536 C   0  0  0  0  0  0  0  0  0  0  0  0
   12.8738    6.9734   12.6411 H   0  0  0  0  0  0  0  0  0  0  0  0
   11.5478    5.5121   12.2124 C   0  0  0  0  0  0  0  0  0  0  0  0
   12.0603    4.8035   12.5845 H   0  0  0  0  0  0  0  0  0  0  0  0
   10.3322    5.2475   11.6338 C   0  0  0  0  0  0  0  0  0  0  0  0
   10.0046    4.3560   11.5975 H   0  0  0  0  0  0  0  0  0  0  0  0
    9.5823    6.2850   11.1030 C   0  0  0  0  0  0  0  0  0  0  0  0
    8.7460    6.0948   10.6956 H   0  0  0  0  0  0  0  0  0  0  0  0
    7.5884    9.1629   11.3088 C   0  0  0  0  0  0  0  0  0  0  0  0
    7.3248    8.3518   12.4145 C   0  0  0  0  0  0  0  0  0  0  0  0
    7.9795    7.7165   12.6790 H   0  0  0  0  0  0  0  0  0  0  0  0
    6.1519    8.4344   13.1400 C   0  0  0  0  0  0  0  0  0  0  0  0
    6.0059    7.8624   13.8839 H   0  0  0  0  0  0  0  0  0  0  0  0
    5.1976    9.3573   12.7714 C   0  0  0  0  0  0  0  0  0  0  0  0
    4.3845    9.4255   13.2573 H   0  0  0  0  0  0  0  0  0  0  0  0
    5.4320   10.1767   11.6957 C   0  0  0  0  0  0  0  0  0  0  0  0
    4.7705   10.8115   11.4467 H   0  0  0  0  0  0  0  0  0  0  0  0
    6.6116   10.1060   10.9591 C   0  0  0  0  0  0  0  0  0  0  0  0
    6.7556   11.0797    9.8258 C   0  0  0  0  0  0  0  0  0  0  0  0
    6.6050   12.0019   10.1514 H   0  0  0  0  0  0  0  0  0  0  0  0
    7.6704   11.0270    9.4504 H   0  0  0  0  0  0  0  0  0  0  0  0
    5.7950   10.7543    8.8176 O   0  0  0  0  0  0  0  0  0  0  0  0
    5.8569   11.6808    7.7445 C   0  0  0  0  0  0  0  0  0  0  0  0
    5.1615   11.4663    7.0878 H   0  0  0  0  0  0  0  0  0  0  0  0
    6.7370   11.6279    7.3176 H   0  0  0  0  0  0  0  0  0  0  0  0
    5.7135   12.5875    8.0874 H   0  0  0  0  0  0  0  0  0  0  0  0
    4.2173    5.6452    9.1669 O   0  0  0  0  0  0  0  0  0  0  0  0
    3.2780    4.9760    8.2890 C   0  0  0  0  0  0  0  0  0  0  0  0
    3.7177    4.8691    7.4089 H   0  0  0  0  0  0  0  0  0  0  0  0
    3.1284    4.0671    8.6510 H   0  0  0  0  0  0  0  0  0  0  0  0
    2.1819    5.4810    8.0966 C   0  0  0  0  0  0  0  0  0  0  0  0
    1.5886    4.8224    7.6779 H   0  0  0  0  0  0  0  0  0  0  0  0
    2.2792    6.2553    7.5024 H   0  0  0  0  0  0  0  0  0  0  0  0
    1.7994    5.7702    8.9500 H   0  0  0  0  0  0  0  0  0  0  0  0
    4.6233    4.7685   10.1668 C   0  0  0  0  0  0  0  0  0  0  0  0
    5.0669    3.9809    9.7641 H   0  0  0  0  0  0  0  0  0  0  0  0
    3.8362    4.4547   10.6784 H   0  0  0  0  0  0  0  0  0  0  0  0
    5.5593    5.4647   11.0665 C   0  0  0  0  0  0  0  0  0  0  0  0
    5.7777    4.8834   11.8245 H   0  0  0  0  0  0  0  0  0  0  0  0
    5.1444    6.2893   11.3960 H   0  0  0  0  0  0  0  0  0  0  0  0
    6.3798    5.6854   10.5774 H   0  0  0  0  0  0  0  0  0  0  0  0
    8.9087    5.1082    5.9754 O   0  0  0  0  0  0  0  0  0  0  0  0
    9.8288    4.4415    4.9279 C   0  0  0  0  0  0  0  0  0  0  0  0
   10.0538    5.0825    4.2075 H   0  0  0  0  0  0  0  0  0  0  0  0
   10.6686    4.1331    5.3511 H   0  0  0  0  0  0  0  0  0  0  0  0
    9.1439    3.4019    4.4331 C   0  0  0  0  0  0  0  0  0  0  0  0
    9.6247    3.0311    3.6633 H   0  0  0  0  0  0  0  0  0  0  0  0
    8.2551    3.7016    4.1489 H   0  0  0  0  0  0  0  0  0  0  0  0
    9.0515    2.7131    5.1233 H   0  0  0  0  0  0  0  0  0  0  0  0
    8.6912    4.4419    7.2250 C   0  0  0  0  0  0  0  0  0  0  0  0
    9.0214    5.0151    7.9611 H   0  0  0  0  0  0  0  0  0  0  0  0
    9.2109    3.5994    7.2390 H   0  0  0  0  0  0  0  0  0  0  0  0
    7.2909    4.1400    7.4492 C   0  0  0  0  0  0  0  0  0  0  0  0
    7.1932    3.6500    8.2925 H   0  0  0  0  0  0  0  0  0  0  0  0
    6.9527    3.5905    6.7115 H   0  0  0  0  0  0  0  0  0  0  0  0
    6.7799    4.9748    7.4955 H   0  0  0  0  0  0  0  0  0  0  0  0
  1  5  1  0  0  0  0
  2  5  1  0  0  0  0
  3  4  1  0  0  0  0
  4  5  1  0  0  0  0
  6  1  1  0  0  0  0
  7  2  1  0  0  0  0
  8  3  2  0  0  0  0
  9  8  1  0  0  0  0
 10  9  1  0  0  0  0
 11 10  1  0  0  0  0
 12 10  1  0  0  0  0
 13 10  1  0  0  0  0
 14  9  1  0  0  0  0
 15 14  1  0  0  0  0
 16 14  1  0  0  0  0
 17 14  1  0  0  0  0
 18  9  1  0  0  0  0
 19 18  1  0  0  0  0
 20 18  1  0  0  0  0
 21 18  1  0  0  0  0
 22  8  1  0  0  0  0
 23 22  1  0  0  0  0
 24 23  1  0  0  0  0
 25 23  1  0  0  0  0
 26 23  1  0  0  0  0
 27 22  1  0  0  0  0
 28 27  1  0  0  0  0
 29 27  1  0  0  0  0
 30 27  1  0  0  0  0
 31 22  1  0  0  0  0
 32 31  1  0  0  0  0
 33 31  1  0  0  0  0
 34 31  1  0  0  0  0
 35  3  1  0  0  0  0
 36 35  4  0  0  0  0
 37 36  1  0  0  0  0
 38 36  4  0  0  0  0
 39 38  1  0  0  0  0
 40 38  4  0  0  0  0
 41 40  1  0  0  0  0
 42 40  4  0  0  0  0
 43 42  1  0  0  0  0
 44 35  4  0  0  0  0
 45 44  1  0  0  0  0
 46  3  1  0  0  0  0
 47 46  4  0  0  0  0
 48 47  1  0  0  0  0
 49 47  4  0  0  0  0
 50 49  1  0  0  0  0
 51 49  4  0  0  0  0
 52 51  1  0  0  0  0
 53 51  4  0  0  0  0
 54 53  1  0  0  0  0
 55 46  4  0  0  0  0
 56 55  1  0  0  0  0
 57 56  1  0  0  0  0
 58 56  1  0  0  0  0
 59  1  1  0  0  0  0
 60 59  1  0  0  0  0
 61 60  1  0  0  0  0
 62 60  1  0  0  0  0
 63 60  1  0  0  0  0
 64 65  1  0  0  0  0
 65 66  1  0  0  0  0
 66  2  1  0  0  0  0
 67  1  1  0  0  0  0
 68  1  1  0  0  0  0
 69 64  2  0  0  0  0
 70 69  1  0  0  0  0
 71 70  1  0  0  0  0
 72 71  1  0  0  0  0
 73 71  1  0  0  0  0
 74 71  1  0  0  0  0
 75 70  1  0  0  0  0
 76 75  1  0  0  0  0
 77 75  1  0  0  0  0
 78 75  1  0  0  0  0
 79 70  1  0  0  0  0
 80 79  1  0  0  0  0
 81 79  1  0  0  0  0
 82 79  1  0  0  0  0
 83 69  1  0  0  0  0
 84 83  1  0  0  0  0
 85 84  1  0  0  0  0
 86 84  1  0  0  0  0
 87 84  1  0  0  0  0
 88 83  1  0  0  0  0
 89 88  1  0  0  0  0
 90 88  1  0  0  0  0
 91 88  1  0  0  0  0
 92 83  1  0  0  0  0
 93 92  1  0  0  0  0
 94 92  1  0  0  0  0
 95 92  1  0  0  0  0
 96 64  1  0  0  0  0
 97 96  4  0  0  0  0
 98 97  1  0  0  0  0
 99 97  4  0  0  0  0
100 99  1  0  0  0  0
101 99  4  0  0  0  0
102101  1  0  0  0  0
103101  4  0  0  0  0
104103  1  0  0  0  0
105 96  4  0  0  0  0
106105  1  0  0  0  0
107 64  1  0  0  0  0
108107  4  0  0  0  0
109108  1  0  0  0  0
110108  4  0  0  0  0
111110  1  0  0  0  0
112110  4  0  0  0  0
113112  1  0  0  0  0
114112  4  0  0  0  0
115114  1  0  0  0  0
116107  4  0  0  0  0
117116  1  0  0  0  0
118117  1  0  0  0  0
119117  1  0  0  0  0
120  2  1  0  0  0  0
121120  1  0  0  0  0
122121  1  0  0  0  0
123121  1  0  0  0  0
124121  1  0  0  0  0
125  2  1  0  0  0  0
126125  1  0  0  0  0
127126  1  0  0  0  0
128126  1  0  0  0  0
129126  1  0  0  0  0
130129  1  0  0  0  0
131129  1  0  0  0  0
132129  1  0  0  0  0
133125  1  0  0  0  0
134133  1  0  0  0  0
135133  1  0  0  0  0
136133  1  0  0  0  0
137136  1  0  0  0  0
138136  1  0  0  0  0
139136  1  0  0  0  0
140  1  1  0  0  0  0
141140  1  0  0  0  0
142141  1  0  0  0  0
143141  1  0  0  0  0
144141  1  0  0  0  0
145144  1  0  0  0  0
146144  1  0  0  0  0
147144  1  0  0  0  0
148140  1  0  0  0  0
149148  1  0  0  0  0
150148  1  0  0  0  0
151148  1  0  0  0  0
152151  1  0  0  0  0
153151  1  0  0  0  0
154151  1  0  0  0  0
  2  6  1  0  0  0  0
  2 67  1  0  0  0  0
  4  6  1  0  0  0  0
  4  7  1  0  0  0  0
 42 44  4  0  0  0  0
 53 55  4  0  0  0  0
 56 59  1  0  0  0  0
 65 67  1  0  0  0  0
 65 68  1  0  0  0  0
103105  4  0  0  0  0
114116  4  0  0  0  0
117120  1  0  0  0  0
M  CHG  4   1   1   2   1   4  -1  65  -1
M  END
$$$$
ANOPAX

From CSD data. Using bond type 'Any'. No disordered atoms. Largest molecule.
135150  0  0  0  0  0  0  0  0999 V2000
   13.9697    7.5948   18.3133 C   0  0  0  0  0  0  0  0  0  0  0  0
   13.7038    8.5068   18.5923 H   0  0  0  0  0  0  0  0  0  0  0  0
   14.8985    7.6233   17.9720 H   0  0  0  0  0  0  0  0  0  0  0  0
   13.8504    6.5973   19.5042 C   0  0  0  0  0  0  0  0  0  0  0  0
   14.7246    6.1748   19.6972 H   0  0  0  0  0  0  0  0  0  0  0  0
   13.5320    7.0601   20.3193 H   0  0  0  0  0  0  0  0  0  0  0  0
   11.9918   -2.6296   11.2056 C   0  0  0  0  0  0  0  0  0  0  0  0
   11.1758   -3.0468   10.8313 H   0  0  0  0  0  0  0  0  0  0  0  0
   12.4250   -3.2733   11.8206 H   0  0  0  0  0  0  0  0  0  0  0  0
   12.9601   -2.2203   10.0770 C   0  0  0  0  0  0  0  0  0  0  0  0
   13.8778   -2.5400   10.2655 H   0  0  0  0  0  0  0  0  0  0  0  0
   12.6640   -2.5883    9.2069 H   0  0  0  0  0  0  0  0  0  0  0  0
    5.9171    7.4021    8.6399 C   0  0  0  0  0  0  0  0  0  0  0  0
    6.3771    7.6563    7.8009 H   0  0  0  0  0  0  0  0  0  0  0  0
    5.5031    8.2097    9.0353 H   0  0  0  0  0  0  0  0  0  0  0  0
    4.8494    6.3105    8.3732 C   0  0  0  0  0  0  0  0  0  0  0  0
    3.9360    6.6807    8.4669 H   0  0  0  0  0  0  0  0  0  0  0  0
    4.9506    5.9334    7.4633 H   0  0  0  0  0  0  0  0  0  0  0  0
   11.1932    5.5345   15.6822 C   0  0  0  0  0  0  0  0  0  0  0  0
   11.8191    6.6792   15.2087 C   0  0  0  0  0  0  0  0  0  0  0  0
   11.6306    6.9572   14.3201 H   0  0  0  0  0  0  0  0  0  0  0  0
   12.7284    7.4613   15.9781 C   0  0  0  0  0  0  0  0  0  0  0  0
   13.1213    8.2456   15.6133 H   0  0  0  0  0  0  0  0  0  0  0  0
   13.0250    7.0604   17.2551 C   0  0  0  0  0  0  0  0  0  0  0  0
   12.3918    5.9081   17.7610 C   0  0  0  0  0  0  0  0  0  0  0  0
   12.8439    5.5630   19.0465 C   0  0  0  0  0  0  0  0  0  0  0  0
   12.3582    4.4193   19.6322 C   0  0  0  0  0  0  0  0  0  0  0  0
   12.6939    4.1251   20.4707 H   0  0  0  0  0  0  0  0  0  0  0  0
   11.3452    3.6847   18.9614 C   0  0  0  0  0  0  0  0  0  0  0  0
   10.9915    2.9092   19.3807 H   0  0  0  0  0  0  0  0  0  0  0  0
   10.8506    4.0525   17.7181 C   0  0  0  0  0  0  0  0  0  0  0  0
   11.4478    5.1573   17.0331 C   0  0  0  0  0  0  0  0  0  0  0  0
    7.9534    3.6467   17.8933 C   0  0  0  0  0  0  0  0  0  0  0  0
    7.9452    3.8220   19.2780 C   0  0  0  0  0  0  0  0  0  0  0  0
    8.7587    3.7754   19.7662 H   0  0  0  0  0  0  0  0  0  0  0  0
    6.7464    4.0654   19.9464 C   0  0  0  0  0  0  0  0  0  0  0  0
    6.7497    4.1889   20.8882 H   0  0  0  0  0  0  0  0  0  0  0  0
    5.5476    4.1290   19.2491 C   0  0  0  0  0  0  0  0  0  0  0  0
    4.7335    4.2877   19.7121 H   0  0  0  0  0  0  0  0  0  0  0  0
    5.5457    3.9597   17.8722 C   0  0  0  0  0  0  0  0  0  0  0  0
    4.7279    4.0015   17.3904 H   0  0  0  0  0  0  0  0  0  0  0  0
    6.7418    3.7283   17.1936 C   0  0  0  0  0  0  0  0  0  0  0  0
    6.7353    3.6251   16.2493 H   0  0  0  0  0  0  0  0  0  0  0  0
    9.6868    1.5030   17.1267 C   0  0  0  0  0  0  0  0  0  0  0  0
   10.9424    0.9485   16.8576 C   0  0  0  0  0  0  0  0  0  0  0  0
   11.6805    1.5170   16.6719 H   0  0  0  0  0  0  0  0  0  0  0  0
   11.1148   -0.4308   16.8608 C   0  0  0  0  0  0  0  0  0  0  0  0
   11.9739   -0.7972   16.6869 H   0  0  0  0  0  0  0  0  0  0  0  0
   10.0501   -1.2749   17.1137 C   0  0  0  0  0  0  0  0  0  0  0  0
   10.1677   -2.2171   17.0855 H   0  0  0  0  0  0  0  0  0  0  0  0
    8.8091   -0.7329   17.4089 C   0  0  0  0  0  0  0  0  0  0  0  0
    8.0789   -1.3076   17.6067 H   0  0  0  0  0  0  0  0  0  0  0  0
    8.6242    0.6471   17.4180 C   0  0  0  0  0  0  0  0  0  0  0  0
    7.7697    1.0079   17.6232 H   0  0  0  0  0  0  0  0  0  0  0  0
   11.1878    1.3688   12.6884 C   0  0  0  0  0  0  0  0  0  0  0  0
   10.6895    0.2893   13.4008 C   0  0  0  0  0  0  0  0  0  0  0  0
   10.1692    0.4702   14.1749 H   0  0  0  0  0  0  0  0  0  0  0  0
   10.9069   -1.0723   13.0486 C   0  0  0  0  0  0  0  0  0  0  0  0
   10.5453   -1.7751   13.5757 H   0  0  0  0  0  0  0  0  0  0  0  0
   11.6494   -1.3440   11.9324 C   0  0  0  0  0  0  0  0  0  0  0  0
   12.1931   -0.2676   11.2056 C   0  0  0  0  0  0  0  0  0  0  0  0
   12.9057   -0.7064   10.0703 C   0  0  0  0  0  0  0  0  0  0  0  0
   13.4101    0.2251    9.2066 C   0  0  0  0  0  0  0  0  0  0  0  0
   13.8374   -0.0412    8.4012 H   0  0  0  0  0  0  0  0  0  0  0  0
   13.2820    1.5933    9.5377 C   0  0  0  0  0  0  0  0  0  0  0  0
   13.6536    2.2386    8.9477 H   0  0  0  0  0  0  0  0  0  0  0  0
   12.6379    2.0390   10.6863 C   0  0  0  0  0  0  0  0  0  0  0  0
   12.0079    1.0881   11.5457 C   0  0  0  0  0  0  0  0  0  0  0  0
   12.3262    4.6366    9.5725 C   0  0  0  0  0  0  0  0  0  0  0  0
   13.3381    4.9872    8.6807 C   0  0  0  0  0  0  0  0  0  0  0  0
   14.2428    4.7947    8.8974 H   0  0  0  0  0  0  0  0  0  0  0  0
   13.0389    5.6151    7.4779 C   0  0  0  0  0  0  0  0  0  0  0  0
   13.7374    5.8506    6.8788 H   0  0  0  0  0  0  0  0  0  0  0  0
   11.7238    5.8975    7.1525 C   0  0  0  0  0  0  0  0  0  0  0  0
   11.5165    6.3215    6.3279 H   0  0  0  0  0  0  0  0  0  0  0  0
   10.7150    5.5595    8.0316 C   0  0  0  0  0  0  0  0  0  0  0  0
    9.8132    5.7649    7.8144 H   0  0  0  0  0  0  0  0  0  0  0  0
   11.0058    4.9247    9.2274 C   0  0  0  0  0  0  0  0  0  0  0  0
   10.3010    4.6834    9.8170 H   0  0  0  0  0  0  0  0  0  0  0  0
   14.3627    4.1710   11.4979 C   0  0  0  0  0  0  0  0  0  0  0  0
   15.3582    3.2104   11.6172 C   0  0  0  0  0  0  0  0  0  0  0  0
   15.1462    2.2934   11.4882 H   0  0  0  0  0  0  0  0  0  0  0  0
   16.6667    3.5812   11.9243 C   0  0  0  0  0  0  0  0  0  0  0  0
   17.3338    2.9113   12.0167 H   0  0  0  0  0  0  0  0  0  0  0  0
   17.0055    4.9049   12.0953 C   0  0  0  0  0  0  0  0  0  0  0  0
   17.9034    5.1497   12.2867 H   0  0  0  0  0  0  0  0  0  0  0  0
   16.0277    5.8726   11.9862 C   0  0  0  0  0  0  0  0  0  0  0  0
   16.2516    6.7884   12.1028 H   0  0  0  0  0  0  0  0  0  0  0  0
   14.7141    5.5085   11.7058 C   0  0  0  0  0  0  0  0  0  0  0  0
   14.0445    6.1804   11.6543 H   0  0  0  0  0  0  0  0  0  0  0  0
    8.0842    5.2587   11.7157 C   0  0  0  0  0  0  0  0  0  0  0  0
    8.6309    6.4324   11.2154 C   0  0  0  0  0  0  0  0  0  0  0  0
    9.4420    6.7435   11.6002 H   0  0  0  0  0  0  0  0  0  0  0  0
    8.0572    7.1989   10.1663 C   0  0  0  0  0  0  0  0  0  0  0  0
    8.4765    7.9936    9.8577 H   0  0  0  0  0  0  0  0  0  0  0  0
    6.8871    6.7635    9.6130 C   0  0  0  0  0  0  0  0  0  0  0  0
    6.3254    5.5547   10.0816 C   0  0  0  0  0  0  0  0  0  0  0  0
    5.1133    5.2552    9.4258 C   0  0  0  0  0  0  0  0  0  0  0  0
    4.3966    4.1656    9.8378 C   0  0  0  0  0  0  0  0  0  0  0  0
    3.5975    3.9146    9.3896 H   0  0  0  0  0  0  0  0  0  0  0  0
    4.8666    3.4202   10.9424 C   0  0  0  0  0  0  0  0  0  0  0  0
    4.3426    2.6888   11.2470 H   0  0  0  0  0  0  0  0  0  0  0  0
    6.0537    3.6999   11.6059 C   0  0  0  0  0  0  0  0  0  0  0  0
    6.8562    4.7958   11.1465 C   0  0  0  0  0  0  0  0  0  0  0  0
    6.8379    1.1901   12.9160 C   0  0  0  0  0  0  0  0  0  0  0  0
    6.7311    0.5486   11.6858 C   0  0  0  0  0  0  0  0  0  0  0  0
    6.4727    1.0417   10.9160 H   0  0  0  0  0  0  0  0  0  0  0  0
    7.0015   -0.8144   11.5781 C   0  0  0  0  0  0  0  0  0  0  0  0
    6.9464   -1.2420   10.7315 H   0  0  0  0  0  0  0  0  0  0  0  0
    7.3513   -1.5503   12.7028 C   0  0  0  0  0  0  0  0  0  0  0  0
    7.5213   -2.4820   12.6296 H   0  0  0  0  0  0  0  0  0  0  0  0
    7.4511   -0.9178   13.9348 C   0  0  0  0  0  0  0  0  0  0  0  0
    7.6808   -1.4188   14.7086 H   0  0  0  0  0  0  0  0  0  0  0  0
    7.2155    0.4466   14.0358 C   0  0  0  0  0  0  0  0  0  0  0  0
    7.3121    0.8790   14.8763 H   0  0  0  0  0  0  0  0  0  0  0  0
    4.7732    2.7782   13.9383 C   0  0  0  0  0  0  0  0  0  0  0  0
    4.1997    3.9383   14.4618 C   0  0  0  0  0  0  0  0  0  0  0  0
    4.6823    4.7557   14.4245 H   0  0  0  0  0  0  0  0  0  0  0  0
    2.9352    3.9171   15.0360 C   0  0  0  0  0  0  0  0  0  0  0  0
    2.5562    4.7162   15.3828 H   0  0  0  0  0  0  0  0  0  0  0  0
    2.2298    2.7302   15.1014 C   0  0  0  0  0  0  0  0  0  0  0  0
    1.3665    2.7128   15.4972 H   0  0  0  0  0  0  0  0  0  0  0  0
    2.7783    1.5691   14.5916 C   0  0  0  0  0  0  0  0  0  0  0  0
    2.2918    0.7544   14.6365 H   0  0  0  0  0  0  0  0  0  0  0  0
    4.0458    1.5931   14.0119 C   0  0  0  0  0  0  0  0  0  0  0  0
    4.4176    0.7916   13.6628 H   0  0  0  0  0  0  0  0  0  0  0  0
   10.4580    4.6172   14.6416 B   0  0  0  0  0  0  0  0  0  0  0  0
   10.6326    2.7845   13.0986 B   0  0  0  0  0  0  0  0  0  0  0  0
    8.9902    4.4976   12.7426 B   0  0  0  0  0  0  0  0  0  0  0  0
   11.0585    3.4224   14.2370 O   0  0  0  0  0  0  0  0  0  0  0  0
    9.5306    3.2704   12.4052 O   0  0  0  0  0  0  0  0  0  0  0  0
    9.4656    5.1692   13.8430 O   0  0  0  0  0  0  0  0  0  0  0  0
    9.4306    3.2906   16.8710 P   0  0  0  0  0  0  0  0  0  0  0  0
   12.6003    3.7993   11.1742 P   0  0  0  0  0  0  0  0  0  0  0  0
    6.4562    2.9454   13.2267 P   0  0  0  0  0  0  0  0  0  0  0  0
  1  2  1  0  0  0  0
  3  1  1  0  0  0  0
  4  1  1  0  0  0  0
  5  4  1  0  0  0  0
  6  4  1  0  0  0  0
  7  8  1  0  0  0  0
  9  7  1  0  0  0  0
 10  7  1  0  0  0  0
 11 10  1  0  0  0  0
 12 10  1  0  0  0  0
 13 14  1  0  0  0  0
 15 13  1  0  0  0  0
 16 13  1  0  0  0  0
 17 16  1  0  0  0  0
 18 16  1  0  0  0  0
 19 20  4  0  0  0  0
 20 21  1  0  0  0  0
 22 20  4  0  0  0  0
 23 22  1  0  0  0  0
 24  1  1  0  0  0  0
 25 24  4  0  0  0  0
 26  4  1  0  0  0  0
 27 26  4  0  0  0  0
 28 27  1  0  0  0  0
 29 27  4  0  0  0  0
 30 29  1  0  0  0  0
 31 29  4  0  0  0  0
 32 19  4  0  0  0  0
 33 34  4  0  0  0  0
 34 35  1  0  0  0  0
 36 34  4  0  0  0  0
 37 36  1  0  0  0  0
 38 36  4  0  0  0  0
 39 38  1  0  0  0  0
 40 38  4  0  0  0  0
 41 40  1  0  0  0  0
 42 33  4  0  0  0  0
 43 42  1  0  0  0  0
 44 45  4  0  0  0  0
 45 46  1  0  0  0  0
 47 45  4  0  0  0  0
 48 47  1  0  0  0  0
 49 47  4  0  0  0  0
 50 49  1  0  0  0  0
 51 49  4  0  0  0  0
 52 51  1  0  0  0  0
 53 44  4  0  0  0  0
 54 53  1  0  0  0  0
 55 56  4  0  0  0  0
 56 57  1  0  0  0  0
 58 56  4  0  0  0  0
 59 58  1  0  0  0  0
 60  7  1  0  0  0  0
 61 60  4  0  0  0  0
 62 10  1  0  0  0  0
 63 62  4  0  0  0  0
 64 63  1  0  0  0  0
 65 63  4  0  0  0  0
 66 65  1  0  0  0  0
 67 65  4  0  0  0  0
 68 55  4  0  0  0  0
 69 70  4  0  0  0  0
 70 71  1  0  0  0  0
 72 70  4  0  0  0  0
 73 72  1  0  0  0  0
 74 72  4  0  0  0  0
 75 74  1  0  0  0  0
 76 74  4  0  0  0  0
 77 76  1  0  0  0  0
 78 69  4  0  0  0  0
 79 78  1  0  0  0  0
 80 81  4  0  0  0  0
 81 82  1  0  0  0  0
 83 81  4  0  0  0  0
 84 83  1  0  0  0  0
 85 83  4  0  0  0  0
 86 85  1  0  0  0  0
 87 85  4  0  0  0  0
 88 87  1  0  0  0  0
 89 80  4  0  0  0  0
 90 89  1  0  0  0  0
 91 92  4  0  0  0  0
 92 93  1  0  0  0  0
 94 92  4  0  0  0  0
 95 94  1  0  0  0  0
 96 13  1  0  0  0  0
 97 96  4  0  0  0  0
 98 16  1  0  0  0  0
 99 98  4  0  0  0  0
100 99  1  0  0  0  0
101 99  4  0  0  0  0
102101  1  0  0  0  0
103101  4  0  0  0  0
104 91  4  0  0  0  0
105106  4  0  0  0  0
106107  1  0  0  0  0
108106  4  0  0  0  0
109108  1  0  0  0  0
110108  4  0  0  0  0
111110  1  0  0  0  0
112110  4  0  0  0  0
113112  1  0  0  0  0
114105  4  0  0  0  0
115114  1  0  0  0  0
116117  4  0  0  0  0
117118  1  0  0  0  0
119117  4  0  0  0  0
120119  1  0  0  0  0
121119  4  0  0  0  0
122121  1  0  0  0  0
123121  4  0  0  0  0
124123  1  0  0  0  0
125116  4  0  0  0  0
126125  1  0  0  0  0
127 19  1  0  0  0  0
128 55  1  0  0  0  0
129 91  1  0  0  0  0
130127  1  0  0  0  0
131128  1  0  0  0  0
132127  1  0  0  0  0
133 31  1  0  0  0  0
134 67  1  0  0  0  0
135103  1  0  0  0  0
 22 24  4  0  0  0  0
 25 26  4  0  0  0  0
 25 32  4  0  0  0  0
 31 32  4  0  0  0  0
 33133  1  0  0  0  0
 40 42  4  0  0  0  0
 44133  1  0  0  0  0
 51 53  4  0  0  0  0
 58 60  4  0  0  0  0
 61 62  4  0  0  0  0
 61 68  4  0  0  0  0
 67 68  4  0  0  0  0
 69134  1  0  0  0  0
 76 78  4  0  0  0  0
 80134  1  0  0  0  0
 87 89  4  0  0  0  0
 94 96  4  0  0  0  0
 97 98  4  0  0  0  0
 97104  4  0  0  0  0
103104  4  0  0  0  0
105135  1  0  0  0  0
112114  4  0  0  0  0
116135  1  0  0  0  0
123125  4  0  0  0  0
128130  1  0  0  0  0
129131  1  0  0  0  0
129132  1  0  0  0  0
M  END
$$$$
ANOPEB

From CSD data. Using bond type 'Any'. No disordered atoms. Largest molecule.
136152  0  0  0  0  0  0  0  0999 V2000
    9.4817    8.4761    1.8754 P   0  0  0  0  0  0  0  0  0  0  0  0
   10.8595   13.1084    2.7430 P   0  3  0  0  0  0  0  0  0  0  0  0
   13.8379    8.7850    6.8702 P   0  0  0  0  0  0  0  0  0  0  0  0
   12.7339    9.7930    2.9033 O   0  0  0  0  0  0  0  0  0  0  0  0
   11.5539    8.3835    4.4139 O   0  0  0  0  0  0  0  0  0  0  0  0
   11.6367   10.7200    4.8625 O   0  0  0  0  0  0  0  0  0  0  0  0
   11.3335   11.7012    2.6220 O   0  0  0  0  0  0  0  0  0  0  0  0
   11.4954   13.5185    0.1275 C   0  0  0  0  0  0  0  0  0  0  0  0
   12.2977   13.0625    0.3532 H   0  0  0  0  0  0  0  0  0  0  0  0
   12.4246    7.3549    2.2583 C   0  0  0  0  0  0  0  0  0  0  0  0
   11.8486    5.2560    1.1964 C   0  0  0  0  0  0  0  0  0  0  0  0
   11.4224    6.4804    1.7336 C   0  0  0  0  0  0  0  0  0  0  0  0
   10.1442   14.6611   -1.4779 C   0  0  0  0  0  0  0  0  0  0  0  0
   10.0229   15.0018   -2.3565 H   0  0  0  0  0  0  0  0  0  0  0  0
    9.1231    8.9860    0.1445 C   0  0  0  0  0  0  0  0  0  0  0  0
   14.1578    5.7383    1.5373 C   0  0  0  0  0  0  0  0  0  0  0  0
   15.0800    5.5237    1.4600 H   0  0  0  0  0  0  0  0  0  0  0  0
   13.3821   13.4177    3.7724 C   0  0  0  0  0  0  0  0  0  0  0  0
   13.1981    4.8706    1.0981 C   0  0  0  0  0  0  0  0  0  0  0  0
    9.4765   10.2921   -0.1958 C   0  0  0  0  0  0  0  0  0  0  0  0
    9.8824   10.8534    0.4543 H   0  0  0  0  0  0  0  0  0  0  0  0
   10.9778    4.2556    0.7162 C   0  0  0  0  0  0  0  0  0  0  0  0
   11.3107   14.0024   -1.1535 C   0  0  0  0  0  0  0  0  0  0  0  0
   11.9866   13.8812   -1.8099 H   0  0  0  0  0  0  0  0  0  0  0  0
   13.5788   12.0046    3.8572 C   0  0  0  0  0  0  0  0  0  0  0  0
    8.5360    8.1755   -0.8361 C   0  0  0  0  0  0  0  0  0  0  0  0
    8.2941    7.2815   -0.6241 H   0  0  0  0  0  0  0  0  0  0  0  0
   10.4983   13.7017    1.0918 C   0  0  0  0  0  0  0  0  0  0  0  0
    7.8102    8.3731    2.6129 C   0  0  0  0  0  0  0  0  0  0  0  0
    6.6470    8.7905    1.9758 C   0  0  0  0  0  0  0  0  0  0  0  0
    6.6826    9.0658    1.0672 H   0  0  0  0  0  0  0  0  0  0  0  0
    5.4294    8.8101    2.6539 C   0  0  0  0  0  0  0  0  0  0  0  0
    4.6420    9.0952    2.2060 H   0  0  0  0  0  0  0  0  0  0  0  0
   13.7475    6.9560    2.1062 C   0  0  0  0  0  0  0  0  0  0  0  0
   14.4238    7.5503    2.4090 H   0  0  0  0  0  0  0  0  0  0  0  0
    9.6221    4.4628    0.8246 C   0  0  0  0  0  0  0  0  0  0  0  0
    9.0073    3.7765    0.5932 H   0  0  0  0  0  0  0  0  0  0  0  0
   10.0121    6.7393    1.6770 C   0  0  0  0  0  0  0  0  0  0  0  0
    8.3046    8.6633   -2.1102 C   0  0  0  0  0  0  0  0  0  0  0  0
    7.9080    8.1040   -2.7679 H   0  0  0  0  0  0  0  0  0  0  0  0
    9.3268   14.3600    0.7601 C   0  0  0  0  0  0  0  0  0  0  0  0
    8.6501   14.4895    1.4140 H   0  0  0  0  0  0  0  0  0  0  0  0
   14.4166   15.6581    4.0240 C   0  0  0  0  0  0  0  0  0  0  0  0
   11.1949    8.3593    7.7296 C   0  0  0  0  0  0  0  0  0  0  0  0
   12.2005   14.0978    3.3654 C   0  0  0  0  0  0  0  0  0  0  0  0
    9.1604    5.7158    1.2867 C   0  0  0  0  0  0  0  0  0  0  0  0
    8.2238    5.8644    1.3323 H   0  0  0  0  0  0  0  0  0  0  0  0
    8.6539    9.9778   -2.4304 C   0  0  0  0  0  0  0  0  0  0  0  0
    8.4883   10.3183   -3.3017 H   0  0  0  0  0  0  0  0  0  0  0  0
   13.2779    3.4902    0.4693 C   0  0  0  0  0  0  0  0  0  0  0  0
   13.6961    2.8437    1.0915 H   0  0  0  0  0  0  0  0  0  0  0  0
   13.8047    3.5151   -0.3686 H   0  0  0  0  0  0  0  0  0  0  0  0
    9.2421   10.7792   -1.4703 C   0  0  0  0  0  0  0  0  0  0  0  0
    9.4875   11.6711   -1.6865 H   0  0  0  0  0  0  0  0  0  0  0  0
    5.3663    8.4170    3.9684 C   0  0  0  0  0  0  0  0  0  0  0  0
    4.5367    8.4251    4.4303 H   0  0  0  0  0  0  0  0  0  0  0  0
    9.1467   14.8294   -0.5321 C   0  0  0  0  0  0  0  0  0  0  0  0
    8.3382   15.2675   -0.7689 H   0  0  0  0  0  0  0  0  0  0  0  0
   10.6508    9.1280    6.6422 C   0  0  0  0  0  0  0  0  0  0  0  0
   14.8266   11.5638    4.2320 C   0  0  0  0  0  0  0  0  0  0  0  0
   14.9723   10.6260    4.2749 H   0  0  0  0  0  0  0  0  0  0  0  0
    9.3853   13.1982    3.7503 C   0  0  0  0  0  0  0  0  0  0  0  0
   11.7958    3.1017    0.1802 C   0  0  0  0  0  0  0  0  0  0  0  0
   11.6461    2.9873   -0.7916 H   0  0  0  0  0  0  0  0  0  0  0  0
   11.5576    2.2589    0.6418 H   0  0  0  0  0  0  0  0  0  0  0  0
   10.2741    7.8740    8.6857 C   0  0  0  0  0  0  0  0  0  0  0  0
   14.7840    9.8916    7.9735 C   0  0  0  0  0  0  0  0  0  0  0  0
    9.3019    9.4096    6.6765 C   0  0  0  0  0  0  0  0  0  0  0  0
    8.9477    9.9575    5.9863 H   0  0  0  0  0  0  0  0  0  0  0  0
   14.4716   14.2544    4.0906 C   0  0  0  0  0  0  0  0  0  0  0  0
   12.1581   15.4857    3.3056 C   0  0  0  0  0  0  0  0  0  0  0  0
   11.3569   15.9115    3.0237 H   0  0  0  0  0  0  0  0  0  0  0  0
   15.9950   10.4043    7.4888 C   0  0  0  0  0  0  0  0  0  0  0  0
   16.3338   10.0990    6.6551 H   0  0  0  0  0  0  0  0  0  0  0  0
    7.7190    7.9889    3.9469 C   0  0  0  0  0  0  0  0  0  0  0  0
    8.5013    7.7053    4.4051 H   0  0  0  0  0  0  0  0  0  0  0  0
    8.6189   12.0355    3.8558 C   0  0  0  0  0  0  0  0  0  0  0  0
    8.8588   11.2589    3.3638 H   0  0  0  0  0  0  0  0  0  0  0  0
   15.7315   13.7663    4.4877 C   0  0  0  0  0  0  0  0  0  0  0  0
   15.9147   12.4246    4.5599 C   0  0  0  0  0  0  0  0  0  0  0  0
   16.7529   12.0638    4.8246 H   0  0  0  0  0  0  0  0  0  0  0  0
    9.0310   14.3318    4.4665 C   0  0  0  0  0  0  0  0  0  0  0  0
    9.5508   15.1230    4.3928 H   0  0  0  0  0  0  0  0  0  0  0  0
    7.9185   14.3077    5.2883 C   0  0  0  0  0  0  0  0  0  0  0  0
    7.6694   15.0839    5.7755 H   0  0  0  0  0  0  0  0  0  0  0  0
   12.3713   10.9712    3.6228 B   0  5  0  0  0  0  0  0  0  0  0  0
   13.2675   16.2767    3.6505 C   0  0  0  0  0  0  0  0  0  0  0  0
   13.2137   17.2245    3.6226 H   0  0  0  0  0  0  0  0  0  0  0  0
    7.5048   12.0204    4.6820 C   0  0  0  0  0  0  0  0  0  0  0  0
    6.9765   11.2337    4.7527 H   0  0  0  0  0  0  0  0  0  0  0  0
   14.3040   10.3680    9.1840 C   0  0  0  0  0  0  0  0  0  0  0  0
   13.4862   10.0303    9.5310 H   0  0  0  0  0  0  0  0  0  0  0  0
    8.9009    8.1322    8.6575 C   0  0  0  0  0  0  0  0  0  0  0  0
   12.1644    8.6058    3.1732 B   0  0  0  0  0  0  0  0  0  0  0  0
   16.0987    7.1237    7.4729 C   0  0  0  0  0  0  0  0  0  0  0  0
   16.2392    7.6462    8.2533 H   0  0  0  0  0  0  0  0  0  0  0  0
    6.5170    8.0104    4.6146 C   0  0  0  0  0  0  0  0  0  0  0  0
    6.4788    7.7454    5.5259 H   0  0  0  0  0  0  0  0  0  0  0  0
   15.0095    7.4104    6.6380 C   0  0  0  0  0  0  0  0  0  0  0  0
   16.7066   11.3507    8.2109 C   0  0  0  0  0  0  0  0  0  0  0  0
   17.5360   11.6760    7.8806 H   0  0  0  0  0  0  0  0  0  0  0  0
    8.3989    8.9338    7.6790 C   0  0  0  0  0  0  0  0  0  0  0  0
    7.4796    9.1709    7.6622 H   0  0  0  0  0  0  0  0  0  0  0  0
    7.1662   13.1432    5.3994 C   0  0  0  0  0  0  0  0  0  0  0  0
    6.4114   13.1246    5.9759 H   0  0  0  0  0  0  0  0  0  0  0  0
   16.6441   14.9722    4.7116 C   0  0  0  0  0  0  0  0  0  0  0  0
   17.4398   14.9218    4.1244 H   0  0  0  0  0  0  0  0  0  0  0  0
   16.9461   15.0114    5.6537 H   0  0  0  0  0  0  0  0  0  0  0  0
   10.6508    7.0658    9.7839 C   0  0  0  0  0  0  0  0  0  0  0  0
   15.7933   16.2008    4.3648 C   0  0  0  0  0  0  0  0  0  0  0  0
   15.7432   16.8203    5.1360 H   0  0  0  0  0  0  0  0  0  0  0  0
   16.1781   16.6859    3.5920 H   0  0  0  0  0  0  0  0  0  0  0  0
   11.3947    9.4508    5.2763 B   0  0  0  0  0  0  0  0  0  0  0  0
   16.2095   11.8193    9.4096 C   0  0  0  0  0  0  0  0  0  0  0  0
   16.6914   12.4748    9.9005 H   0  0  0  0  0  0  0  0  0  0  0  0
   12.5750    8.0627    7.9737 C   0  0  0  0  0  0  0  0  0  0  0  0
    9.3972    6.6946   10.5570 C   0  0  0  0  0  0  0  0  0  0  0  0
    9.4661    6.9893   11.4995 H   0  0  0  0  0  0  0  0  0  0  0  0
    9.2514    5.7151   10.5391 H   0  0  0  0  0  0  0  0  0  0  0  0
   14.8476    6.6334    5.4933 C   0  0  0  0  0  0  0  0  0  0  0  0
   14.1108    6.8034    4.9177 H   0  0  0  0  0  0  0  0  0  0  0  0
   16.9625    6.1050    7.1849 C   0  0  0  0  0  0  0  0  0  0  0  0
   17.6832    5.9108    7.7729 H   0  0  0  0  0  0  0  0  0  0  0  0
    8.2476    7.4291    9.8396 C   0  0  0  0  0  0  0  0  0  0  0  0
    7.5610    6.7862    9.5290 H   0  0  0  0  0  0  0  0  0  0  0  0
    7.8194    8.0851   10.4447 H   0  0  0  0  0  0  0  0  0  0  0  0
   15.0074   11.3355    9.8965 C   0  0  0  0  0  0  0  0  0  0  0  0
   14.6615   11.6649   10.7180 H   0  0  0  0  0  0  0  0  0  0  0  0
   11.9493    6.7729    9.9804 C   0  0  0  0  0  0  0  0  0  0  0  0
   12.2194    6.2337   10.7141 H   0  0  0  0  0  0  0  0  0  0  0  0
   12.9085    7.2879    9.0699 C   0  0  0  0  0  0  0  0  0  0  0  0
   13.8254    7.0906    9.2208 H   0  0  0  0  0  0  0  0  0  0  0  0
   15.7258    5.6310    5.1788 C   0  0  0  0  0  0  0  0  0  0  0  0
   15.6044    5.1315    4.3796 H   0  0  0  0  0  0  0  0  0  0  0  0
   16.7822    5.3398    6.0122 C   0  0  0  0  0  0  0  0  0  0  0  0
   17.3824    4.6345    5.8007 H   0  0  0  0  0  0  0  0  0  0  0  0
  1 15  1  0  0  0  0
  2  7  1  0  0  0  0
  3 67  1  0  0  0  0
  4 86  1  0  0  0  0
  5 94  1  0  0  0  0
  6 86  1  0  0  0  0
  7 86  1  0  0  0  0
  8  9  1  0  0  0  0
 10 12  4  0  0  0  0
 11 12  4  0  0  0  0
 12 38  4  0  0  0  0
 13 14  1  0  0  0  0
 15 20  4  0  0  0  0
 16 17  1  0  0  0  0
 18 25  4  0  0  0  0
 19 11  4  0  0  0  0
 20 21  1  0  0  0  0
 22 11  4  0  0  0  0
 23  8  4  0  0  0  0
 24 23  1  0  0  0  0
 25 60  4  0  0  0  0
 26 15  4  0  0  0  0
 27 26  1  0  0  0  0
 28  2  1  0  0  0  0
 29  1  1  0  0  0  0
 30 29  4  0  0  0  0
 31 30  1  0  0  0  0
 32 30  4  0  0  0  0
 33 32  1  0  0  0  0
 34 10  4  0  0  0  0
 35 34  1  0  0  0  0
 36 22  4  0  0  0  0
 37 36  1  0  0  0  0
 38  1  1  0  0  0  0
 39 26  4  0  0  0  0
 40 39  1  0  0  0  0
 41 28  4  0  0  0  0
 42 41  1  0  0  0  0
 43 70  4  0  0  0  0
 44 59  4  0  0  0  0
 45  2  1  0  0  0  0
 46 36  4  0  0  0  0
 47 46  1  0  0  0  0
 48 39  4  0  0  0  0
 49 48  1  0  0  0  0
 50 19  1  0  0  0  0
 51 50  1  0  0  0  0
 52 50  1  0  0  0  0
 53 20  4  0  0  0  0
 54 53  1  0  0  0  0
 55 32  4  0  0  0  0
 56 55  1  0  0  0  0
 57 13  4  0  0  0  0
 58 57  1  0  0  0  0
 59 68  4  0  0  0  0
 60 61  1  0  0  0  0
 62  2  1  0  0  0  0
 63 22  1  0  0  0  0
 64 63  1  0  0  0  0
 65 63  1  0  0  0  0
 66 44  4  0  0  0  0
 67 73  4  0  0  0  0
 68 69  1  0  0  0  0
 70 18  4  0  0  0  0
 71 45  4  0  0  0  0
 72 71  1  0  0  0  0
 73 74  1  0  0  0  0
 75 29  4  0  0  0  0
 76 75  1  0  0  0  0
 77 62  4  0  0  0  0
 78 77  1  0  0  0  0
 79 70  4  0  0  0  0
 80 60  4  0  0  0  0
 81 80  1  0  0  0  0
 82 62  4  0  0  0  0
 83 82  1  0  0  0  0
 84 82  4  0  0  0  0
 85 84  1  0  0  0  0
 86 25  1  0  0  0  0
 87 43  4  0  0  0  0
 88 87  1  0  0  0  0
 89 77  4  0  0  0  0
 90 89  1  0  0  0  0
 91 67  4  0  0  0  0
 92 91  1  0  0  0  0
 93 66  4  0  0  0  0
 94  4  1  0  0  0  0
 95 96  1  0  0  0  0
 97 55  4  0  0  0  0
 98 97  1  0  0  0  0
 99  3  1  0  0  0  0
100 73  4  0  0  0  0
101100  1  0  0  0  0
102 68  4  0  0  0  0
103102  1  0  0  0  0
104 84  4  0  0  0  0
105104  1  0  0  0  0
106 79  1  0  0  0  0
107106  1  0  0  0  0
108106  1  0  0  0  0
109 66  4  0  0  0  0
110 43  1  0  0  0  0
111110  1  0  0  0  0
112110  1  0  0  0  0
113  5  1  0  0  0  0
114100  4  0  0  0  0
115114  1  0  0  0  0
116  3  1  0  0  0  0
117109  1  0  0  0  0
118117  1  0  0  0  0
119117  1  0  0  0  0
120 99  4  0  0  0  0
121120  1  0  0  0  0
122 95  4  0  0  0  0
123122  1  0  0  0  0
124 93  1  0  0  0  0
125124  1  0  0  0  0
126124  1  0  0  0  0
127 91  4  0  0  0  0
128127  1  0  0  0  0
129109  4  0  0  0  0
130129  1  0  0  0  0
131116  4  0  0  0  0
132131  1  0  0  0  0
133120  4  0  0  0  0
134133  1  0  0  0  0
135122  4  0  0  0  0
136135  1  0  0  0  0
  6113  1  0  0  0  0
  8 28  4  0  0  0  0
 10 94  1  0  0  0  0
 13 23  4  0  0  0  0
 16 19  4  0  0  0  0
 16 34  4  0  0  0  0
 18 45  4  0  0  0  0
 38 46  4  0  0  0  0
 41 57  4  0  0  0  0
 44116  4  0  0  0  0
 48 53  4  0  0  0  0
 50 63  1  0  0  0  0
 59113  1  0  0  0  0
 71 87  4  0  0  0  0
 75 97  4  0  0  0  0
 79 80  4  0  0  0  0
 89104  4  0  0  0  0
 93102  4  0  0  0  0
 95 99  4  0  0  0  0
106110  1  0  0  0  0
114127  4  0  0  0  0
117124  1  0  0  0  0
129131  4  0  0  0  0
133135  4  0  0  0  0
M  CHG  2   2   1  86  -1
M  END
$$$$
APEZEC

From CSD data. Using bond type 'Any'. Matching problem. No disordered atoms. Largest molecule.
177199  0  0  0  0  0  0  0  0999 V2000
    3.1659    5.5912    6.3229 P   0  0  0  0  0  0  0  0  0  0  0  0
    3.3846    4.8528    3.3851 P   0  0  0  0  0  0  0  0  0  0  0  0
   -0.6695    7.2324    9.6377 P   0  0  0  0  0  0  0  0  0  0  0  0
    0.6893    4.9764   11.2059 P   0  0  0  0  0  0  0  0  0  0  0  0
   -0.7685    8.5107    4.4963 P   0  0  0  0  0  0  0  0  0  0  0  0
   -3.7317    8.8754    5.1206 P   0  0  0  0  0  0  0  0  0  0  0  0
   -1.9145    3.2295    5.9388 Si  0  0  0  0  0  0  0  0  0  0  0  0
    1.6388    5.6183    6.5317 O   0  0  0  0  0  0  0  0  0  0  0  0
   -0.5376    6.6039    8.2357 O   0  0  0  0  0  0  0  0  0  0  0  0
   -0.4045    7.2873    5.3688 O   0  0  0  0  0  0  0  0  0  0  0  0
   -1.0330    4.5619    6.2049 O   0  0  0  0  0  0  0  0  0  0  0  0
    3.7276    5.8752    4.7445 C   0  0  0  0  0  0  0  0  0  0  0  0
    4.2653    6.6442    4.5953 H   0  0  0  0  0  0  0  0  0  0  0  0
    3.5621    5.9310    1.9256 C   0  0  0  0  0  0  0  0  0  0  0  0
    4.3922    5.6496    0.8507 C   0  0  0  0  0  0  0  0  0  0  0  0
    4.9203    4.8589    0.8571 H   0  0  0  0  0  0  0  0  0  0  0  0
    4.4597    6.5126   -0.2344 C   0  0  0  0  0  0  0  0  0  0  0  0
    5.0260    6.3004   -0.9672 H   0  0  0  0  0  0  0  0  0  0  0  0
    3.7181    7.6675   -0.2600 C   0  0  0  0  0  0  0  0  0  0  0  0
    3.7872    8.2622   -0.9953 H   0  0  0  0  0  0  0  0  0  0  0  0
    2.8662    7.9588    0.8009 C   0  0  0  0  0  0  0  0  0  0  0  0
    2.3388    8.7492    0.7829 H   0  0  0  0  0  0  0  0  0  0  0  0
    2.7861    7.0936    1.8844 C   0  0  0  0  0  0  0  0  0  0  0  0
    2.1980    7.2940    2.6047 H   0  0  0  0  0  0  0  0  0  0  0  0
    4.6509    3.5538    3.1666 C   0  0  0  0  0  0  0  0  0  0  0  0
    5.8471    3.6104    3.8538 C   0  0  0  0  0  0  0  0  0  0  0  0
    6.0245    4.3415    4.4341 H   0  0  0  0  0  0  0  0  0  0  0  0
    6.7979    2.5984    3.7008 C   0  0  0  0  0  0  0  0  0  0  0  0
    7.6218    2.6480    4.1706 H   0  0  0  0  0  0  0  0  0  0  0  0
    6.5493    1.5314    2.8741 C   0  0  0  0  0  0  0  0  0  0  0  0
    7.1994    0.8452    2.7736 H   0  0  0  0  0  0  0  0  0  0  0  0
    5.3699    1.4566    2.2007 C   0  0  0  0  0  0  0  0  0  0  0  0
    5.1980    0.7181    1.6273 H   0  0  0  0  0  0  0  0  0  0  0  0
    4.4154    2.4547    2.3483 C   0  0  0  0  0  0  0  0  0  0  0  0
    3.5902    2.3851    1.8832 H   0  0  0  0  0  0  0  0  0  0  0  0
    3.7309    4.0132    7.0148 C   0  0  0  0  0  0  0  0  0  0  0  0
    2.9143    2.8944    7.0017 C   0  0  0  0  0  0  0  0  0  0  0  0
    2.0351    2.9562    6.6448 H   0  0  0  0  0  0  0  0  0  0  0  0
    3.3722    1.6773    7.5073 C   0  0  0  0  0  0  0  0  0  0  0  0
    2.8129    0.9109    7.4891 H   0  0  0  0  0  0  0  0  0  0  0  0
    4.6514    1.5960    8.0374 C   0  0  0  0  0  0  0  0  0  0  0  0
    4.9629    0.7745    8.4000 H   0  0  0  0  0  0  0  0  0  0  0  0
    5.4709    2.7053    8.0415 C   0  0  0  0  0  0  0  0  0  0  0  0
    6.3486    2.6424    8.4000 H   0  0  0  0  0  0  0  0  0  0  0  0
    5.0216    3.9070    7.5270 C   0  0  0  0  0  0  0  0  0  0  0  0
    5.5957    4.6636    7.5224 H   0  0  0  0  0  0  0  0  0  0  0  0
    3.8632    6.8666    7.3957 C   0  0  0  0  0  0  0  0  0  0  0  0
    5.0601    7.5322    7.1365 C   0  0  0  0  0  0  0  0  0  0  0  0
    5.5630    7.3116    6.3608 H   0  0  0  0  0  0  0  0  0  0  0  0
    5.5214    8.5120    7.9970 C   0  0  0  0  0  0  0  0  0  0  0  0
    6.3388    8.9590    7.8090 H   0  0  0  0  0  0  0  0  0  0  0  0
    4.8015    8.8435    9.1274 C   0  0  0  0  0  0  0  0  0  0  0  0
    5.1147    9.5262    9.7100 H   0  0  0  0  0  0  0  0  0  0  0  0
    3.6234    8.1817    9.4104 C   0  0  0  0  0  0  0  0  0  0  0  0
    3.1331    8.4015   10.1936 H   0  0  0  0  0  0  0  0  0  0  0  0
    3.1524    7.1969    8.5566 C   0  0  0  0  0  0  0  0  0  0  0  0
    2.3421    6.7426    8.7608 H   0  0  0  0  0  0  0  0  0  0  0  0
    0.3587    6.6372   10.8478 C   0  0  0  0  0  0  0  0  0  0  0  0
    0.8002    7.2831   11.3859 H   0  0  0  0  0  0  0  0  0  0  0  0
   -2.4370    7.1356   10.0421 C   0  0  0  0  0  0  0  0  0  0  0  0
   -3.2151    6.0836    9.5703 C   0  0  0  0  0  0  0  0  0  0  0  0
   -2.8221    5.4153    9.0217 H   0  0  0  0  0  0  0  0  0  0  0  0
   -4.5683    6.0060    9.8976 C   0  0  0  0  0  0  0  0  0  0  0  0
   -5.0936    5.2839    9.5744 H   0  0  0  0  0  0  0  0  0  0  0  0
   -5.1484    6.9841   10.6928 C   0  0  0  0  0  0  0  0  0  0  0  0
   -6.0758    6.9434   10.8947 H   0  0  0  0  0  0  0  0  0  0  0  0
   -4.3790    8.0104   11.1889 C   0  0  0  0  0  0  0  0  0  0  0  0
   -4.7717    8.6654   11.7544 H   0  0  0  0  0  0  0  0  0  0  0  0
   -3.0315    8.0917   10.8652 C   0  0  0  0  0  0  0  0  0  0  0  0
   -2.5084    8.8065   11.2094 H   0  0  0  0  0  0  0  0  0  0  0  0
   -0.3146    8.9967    9.4751 C   0  0  0  0  0  0  0  0  0  0  0  0
    0.1506    9.8204   10.4891 C   0  0  0  0  0  0  0  0  0  0  0  0
    0.2857    9.4639   11.3603 H   0  0  0  0  0  0  0  0  0  0  0  0
    0.4218   11.1624   10.2422 C   0  0  0  0  0  0  0  0  0  0  0  0
    0.7298   11.7174   10.9484 H   0  0  0  0  0  0  0  0  0  0  0  0
    0.2461   11.6914    8.9854 C   0  0  0  0  0  0  0  0  0  0  0  0
    0.4300   12.6108    8.8222 H   0  0  0  0  0  0  0  0  0  0  0  0
   -0.1935   10.8868    7.9689 C   0  0  0  0  0  0  0  0  0  0  0  0
   -0.2945   11.2423    7.0951 H   0  0  0  0  0  0  0  0  0  0  0  0
   -0.4935    9.5533    8.2086 C   0  0  0  0  0  0  0  0  0  0  0  0
   -0.8239    9.0118    7.5019 H   0  0  0  0  0  0  0  0  0  0  0  0
   -0.2579    4.3732   12.6420 C   0  0  0  0  0  0  0  0  0  0  0  0
    0.0814    3.1598   13.2338 C   0  0  0  0  0  0  0  0  0  0  0  0
    0.8512    2.6853   12.9416 H   0  0  0  0  0  0  0  0  0  0  0  0
   -0.7128    2.6409   14.2572 C   0  0  0  0  0  0  0  0  0  0  0  0
   -0.4750    1.8197   14.6712 H   0  0  0  0  0  0  0  0  0  0  0  0
   -1.8394    3.3153   14.6684 C   0  0  0  0  0  0  0  0  0  0  0  0
   -2.3822    2.9521   15.3595 H   0  0  0  0  0  0  0  0  0  0  0  0
   -2.1831    4.5112   14.0835 C   0  0  0  0  0  0  0  0  0  0  0  0
   -2.9575    4.9772   14.3744 H   0  0  0  0  0  0  0  0  0  0  0  0
   -1.3964    5.0422   13.0654 C   0  0  0  0  0  0  0  0  0  0  0  0
   -1.6413    5.8647   12.6601 H   0  0  0  0  0  0  0  0  0  0  0  0
    2.4159    4.9510   11.7600 C   0  0  0  0  0  0  0  0  0  0  0  0
    3.4184    4.4976   10.9003 C   0  0  0  0  0  0  0  0  0  0  0  0
    3.1844    4.1148   10.0631 H   0  0  0  0  0  0  0  0  0  0  0  0
    4.7567    4.6019   11.2639 C   0  0  0  0  0  0  0  0  0  0  0  0
    5.4349    4.3028   10.6695 H   0  0  0  0  0  0  0  0  0  0  0  0
    5.0997    5.1353   12.4787 C   0  0  0  0  0  0  0  0  0  0  0  0
    6.0161    5.2081   12.7190 H   0  0  0  0  0  0  0  0  0  0  0  0
    4.1251    5.5665   13.3553 C   0  0  0  0  0  0  0  0  0  0  0  0
    4.3687    5.9297   14.1979 H   0  0  0  0  0  0  0  0  0  0  0  0
    2.7796    5.4668   12.9994 C   0  0  0  0  0  0  0  0  0  0  0  0
    2.1086    5.7541   13.6068 H   0  0  0  0  0  0  0  0  0  0  0  0
   -2.0985    9.4449    4.9860 C   0  0  0  0  0  0  0  0  0  0  0  0
   -1.9346   10.3546    5.2043 H   0  0  0  0  0  0  0  0  0  0  0  0
   -0.9632    7.8551    2.8293 C   0  0  0  0  0  0  0  0  0  0  0  0
   -1.4044    6.5520    2.6341 C   0  0  0  0  0  0  0  0  0  0  0  0
   -1.5315    5.9857    3.3851 H   0  0  0  0  0  0  0  0  0  0  0  0
   -1.6616    6.0667    1.3625 C   0  0  0  0  0  0  0  0  0  0  0  0
   -1.9502    5.1683    1.2435 H   0  0  0  0  0  0  0  0  0  0  0  0
   -1.4936    6.8993    0.2630 C   0  0  0  0  0  0  0  0  0  0  0  0
   -1.6846    6.5772   -0.6090 H   0  0  0  0  0  0  0  0  0  0  0  0
   -1.0546    8.1897    0.4373 C   0  0  0  0  0  0  0  0  0  0  0  0
   -0.9292    8.7525   -0.3173 H   0  0  0  0  0  0  0  0  0  0  0  0
   -0.7904    8.6756    1.7066 C   0  0  0  0  0  0  0  0  0  0  0  0
   -0.4911    9.5696    1.8166 H   0  0  0  0  0  0  0  0  0  0  0  0
    0.6566    9.6320    4.5114 C   0  0  0  0  0  0  0  0  0  0  0  0
    0.5417   11.0069    4.2747 C   0  0  0  0  0  0  0  0  0  0  0  0
   -0.3039   11.3769    4.0478 H   0  0  0  0  0  0  0  0  0  0  0  0
    1.6531   11.8352    4.3701 C   0  0  0  0  0  0  0  0  0  0  0  0
    1.5629   12.7681    4.2141 H   0  0  0  0  0  0  0  0  0  0  0  0
    2.8835   11.3099    4.6902 C   0  0  0  0  0  0  0  0  0  0  0  0
    3.6390   11.8817    4.7591 H   0  0  0  0  0  0  0  0  0  0  0  0
    3.0213    9.9512    4.9131 C   0  0  0  0  0  0  0  0  0  0  0  0
    3.8722    9.5920    5.1301 H   0  0  0  0  0  0  0  0  0  0  0  0
    1.9148    9.1113    4.8192 C   0  0  0  0  0  0  0  0  0  0  0  0
    2.0162    8.1785    4.9663 H   0  0  0  0  0  0  0  0  0  0  0  0
   -4.6864    9.1102    3.5821 C   0  0  0  0  0  0  0  0  0  0  0  0
   -4.1514    9.7871    2.5098 C   0  0  0  0  0  0  0  0  0  0  0  0
   -3.2716   10.1424    2.5663 H   0  0  0  0  0  0  0  0  0  0  0  0
   -4.8890    9.9575    1.3420 C   0  0  0  0  0  0  0  0  0  0  0  0
   -4.5069   10.4189    0.6038 H   0  0  0  0  0  0  0  0  0  0  0  0
   -6.1687    9.4614    1.2494 C   0  0  0  0  0  0  0  0  0  0  0  0
   -6.6751    9.5912    0.4554 H   0  0  0  0  0  0  0  0  0  0  0  0
   -6.7069    8.7815    2.3058 C   0  0  0  0  0  0  0  0  0  0  0  0
   -7.5886    8.4344    2.2439 H   0  0  0  0  0  0  0  0  0  0  0  0
   -5.9701    8.5947    3.4675 C   0  0  0  0  0  0  0  0  0  0  0  0
   -6.3487    8.1097    4.1910 H   0  0  0  0  0  0  0  0  0  0  0  0
   -4.4835   10.0370    6.3019 C   0  0  0  0  0  0  0  0  0  0  0  0
   -5.3855   11.0215    5.9286 C   0  0  0  0  0  0  0  0  0  0  0  0
   -5.6737   11.0808    5.0252 H   0  0  0  0  0  0  0  0  0  0  0  0
   -5.8714   11.9211    6.8725 C   0  0  0  0  0  0  0  0  0  0  0  0
   -6.4881   12.5963    6.6115 H   0  0  0  0  0  0  0  0  0  0  0  0
   -5.4588   11.8360    8.1884 C   0  0  0  0  0  0  0  0  0  0  0  0
   -5.7903   12.4526    8.8324 H   0  0  0  0  0  0  0  0  0  0  0  0
   -4.5695   10.8602    8.5661 C   0  0  0  0  0  0  0  0  0  0  0  0
   -4.2907   10.7968    9.4721 H   0  0  0  0  0  0  0  0  0  0  0  0
   -4.0784    9.9684    7.6270 C   0  0  0  0  0  0  0  0  0  0  0  0
   -3.4564    9.3007    7.8934 H   0  0  0  0  0  0  0  0  0  0  0  0
   -1.0083    1.6997    6.5253 C   0  0  0  0  0  0  0  0  0  0  0  0
   -0.1954    1.5750    5.9923 H   0  0  0  0  0  0  0  0  0  0  0  0
   -1.5881    0.9168    6.4222 H   0  0  0  0  0  0  0  0  0  0  0  0
   -0.7659    1.8052    7.4687 H   0  0  0  0  0  0  0  0  0  0  0  0
   -2.2657    3.0242    4.1125 C   0  0  0  0  0  0  0  0  0  0  0  0
   -2.8630    3.7398    3.8124 H   0  0  0  0  0  0  0  0  0  0  0  0
   -2.6938    2.1558    3.9582 H   0  0  0  0  0  0  0  0  0  0  0  0
   -1.4249    3.0681    3.6102 H   0  0  0  0  0  0  0  0  0  0  0  0
   -3.5407    3.3158    6.8597 C   0  0  0  0  0  0  0  0  0  0  0  0
   -3.3725    3.2770    7.8243 H   0  0  0  0  0  0  0  0  0  0  0  0
   -4.1061    2.5591    6.5962 H   0  0  0  0  0  0  0  0  0  0  0  0
   -3.9967    4.1544    6.6397 H   0  0  0  0  0  0  0  0  0  0  0  0
    1.6166    4.0764    3.4007 B   0  0  0  0  0  0  0  0  0  0  0  0
    0.9221    4.9666    3.2546 H   0  0  0  0  0  0  0  0  0  0  0  0
    1.5038    3.6446    4.3471 H   0  0  0  0  0  0  0  0  0  0  0  0
    1.4466    3.3675    2.6124 H   0  0  0  0  0  0  0  0  0  0  0  0
    0.4335    3.7375    9.7668 B   0  0  0  0  0  0  0  0  0  0  0  0
    1.1433    3.9743    8.9475 H   0  0  0  0  0  0  0  0  0  0  0  0
   -0.6209    3.8681    9.3851 H   0  0  0  0  0  0  0  0  0  0  0  0
    0.6096    2.7234   10.1271 H   0  0  0  0  0  0  0  0  0  0  0  0
   -3.9132    7.0585    5.7498 B   0  0  0  0  0  0  0  0  0  0  0  0
   -3.3014    6.3873    4.9996 H   0  0  0  0  0  0  0  0  0  0  0  0
   -3.4595    7.0683    6.7676 H   0  0  0  0  0  0  0  0  0  0  0  0
   -5.0273    6.6665    5.6469 H   0  0  0  0  0  0  0  0  0  0  0  0
   -1.7311    6.2891    6.4879 Li  0  0  0  0  0  0  0  0  0  0  0  0
    0.7226    7.2692    6.9155 Li  0  0  0  0  0  0  0  0  0  0  0  0
    0.1224    4.8262    7.6611 Li  0  0  0  0  0  0  0  0  0  0  0  0
    0.3039    5.3297    5.0889 Li  0  0  0  0  0  0  0  0  0  0  0  0
  1  8  2  0  0  0  0
  2 12  2  0  0  0  0
  3  9  2  0  0  0  0
  4 58  2  0  0  0  0
  5 10  2  0  0  0  0
  6104  2  0  0  0  0
  7 11  1  0  0  0  0
  8175  1  0  0  0  0
  9174  1  0  0  0  0
 10174  1  0  0  0  0
 11174  1  0  0  0  0
 12  1  1  0  0  0  0
 13 12  1  0  0  0  0
 14  2  1  0  0  0  0
 15 14  4  0  0  0  0
 16 15  1  0  0  0  0
 17 15  4  0  0  0  0
 18 17  1  0  0  0  0
 19 17  4  0  0  0  0
 20 19  1  0  0  0  0
 21 19  4  0  0  0  0
 22 21  1  0  0  0  0
 23 14  4  0  0  0  0
 24 23  1  0  0  0  0
 25  2  1  0  0  0  0
 26 25  4  0  0  0  0
 27 26  1  0  0  0  0
 28 26  4  0  0  0  0
 29 28  1  0  0  0  0
 30 28  4  0  0  0  0
 31 30  1  0  0  0  0
 32 30  4  0  0  0  0
 33 32  1  0  0  0  0
 34 25  4  0  0  0  0
 35 34  1  0  0  0  0
 36  1  1  0  0  0  0
 37 36  4  0  0  0  0
 38 37  1  0  0  0  0
 39 37  4  0  0  0  0
 40 39  1  0  0  0  0
 41 39  4  0  0  0  0
 42 41  1  0  0  0  0
 43 41  4  0  0  0  0
 44 43  1  0  0  0  0
 45 36  4  0  0  0  0
 46 45  1  0  0  0  0
 47  1  1  0  0  0  0
 48 47  4  0  0  0  0
 49 48  1  0  0  0  0
 50 48  4  0  0  0  0
 51 50  1  0  0  0  0
 52 50  4  0  0  0  0
 53 52  1  0  0  0  0
 54 52  4  0  0  0  0
 55 54  1  0  0  0  0
 56 47  4  0  0  0  0
 57 56  1  0  0  0  0
 58  3  1  0  0  0  0
 59 58  1  0  0  0  0
 60  3  1  0  0  0  0
 61 60  4  0  0  0  0
 62 61  1  0  0  0  0
 63 61  4  0  0  0  0
 64 63  1  0  0  0  0
 65 63  4  0  0  0  0
 66 65  1  0  0  0  0
 67 65  4  0  0  0  0
 68 67  1  0  0  0  0
 69 60  4  0  0  0  0
 70 69  1  0  0  0  0
 71  3  1  0  0  0  0
 72 71  4  0  0  0  0
 73 72  1  0  0  0  0
 74 72  4  0  0  0  0
 75 74  1  0  0  0  0
 76 74  4  0  0  0  0
 77 76  1  0  0  0  0
 78 76  4  0  0  0  0
 79 78  1  0  0  0  0
 80 71  4  0  0  0  0
 81 80  1  0  0  0  0
 82  4  1  0  0  0  0
 83 82  4  0  0  0  0
 84 83  1  0  0  0  0
 85 83  4  0  0  0  0
 86 85  1  0  0  0  0
 87 85  4  0  0  0  0
 88 87  1  0  0  0  0
 89 87  4  0  0  0  0
 90 89  1  0  0  0  0
 91 82  4  0  0  0  0
 92 91  1  0  0  0  0
 93  4  1  0  0  0  0
 94 93  4  0  0  0  0
 95 94  1  0  0  0  0
 96 94  4  0  0  0  0
 97 96  1  0  0  0  0
 98 96  4  0  0  0  0
 99 98  1  0  0  0  0
100 98  4  0  0  0  0
101100  1  0  0  0  0
102 93  4  0  0  0  0
103102  1  0  0  0  0
104  5  1  0  0  0  0
105104  1  0  0  0  0
106  5  1  0  0  0  0
107106  4  0  0  0  0
108107  1  0  0  0  0
109107  4  0  0  0  0
110109  1  0  0  0  0
111109  4  0  0  0  0
112111  1  0  0  0  0
113111  4  0  0  0  0
114113  1  0  0  0  0
115106  4  0  0  0  0
116115  1  0  0  0  0
117  5  1  0  0  0  0
118117  4  0  0  0  0
119118  1  0  0  0  0
120118  4  0  0  0  0
121120  1  0  0  0  0
122120  4  0  0  0  0
123122  1  0  0  0  0
124122  4  0  0  0  0
125124  1  0  0  0  0
126117  4  0  0  0  0
127126  1  0  0  0  0
128  6  1  0  0  0  0
129128  4  0  0  0  0
130129  1  0  0  0  0
131129  4  0  0  0  0
132131  1  0  0  0  0
133131  4  0  0  0  0
134133  1  0  0  0  0
135133  4  0  0  0  0
136135  1  0  0  0  0
137128  4  0  0  0  0
138137  1  0  0  0  0
139  6  1  0  0  0  0
140139  4  0  0  0  0
141140  1  0  0  0  0
142140  4  0  0  0  0
143142  1  0  0  0  0
144142  4  0  0  0  0
145144  1  0  0  0  0
146144  4  0  0  0  0
147146  1  0  0  0  0
148139  4  0  0  0  0
149148  1  0  0  0  0
150  7  1  0  0  0  0
151150  1  0  0  0  0
152150  1  0  0  0  0
153150  1  0  0  0  0
154  7  1  0  0  0  0
155154  1  0  0  0  0
156154  1  0  0  0  0
157154  1  0  0  0  0
158  7  1  0  0  0  0
159158  1  0  0  0  0
160158  1  0  0  0  0
161158  1  0  0  0  0
162  2  1  0  0  0  0
163162  1  0  0  0  0
164162  1  0  0  0  0
165162  1  0  0  0  0
166  4  1  0  0  0  0
167166  1  0  0  0  0
168166  1  0  0  0  0
169166  1  0  0  0  0
170  6  1  0  0  0  0
171170  1  0  0  0  0
172170  1  0  0  0  0
173170  1  0  0  0  0
174171  1  0  0  0  0
175  9  1  0  0  0  0
176  8  1  0  0  0  0
177  8  1  0  0  0  0
  9176  1  0  0  0  0
 10175  1  0  0  0  0
 10177  1  0  0  0  0
 11176  1  0  0  0  0
 11177  1  0  0  0  0
 21 23  4  0  0  0  0
 32 34  4  0  0  0  0
 43 45  4  0  0  0  0
 54 56  4  0  0  0  0
 67 69  4  0  0  0  0
 78 80  4  0  0  0  0
 89 91  4  0  0  0  0
100102  4  0  0  0  0
113115  4  0  0  0  0
124126  4  0  0  0  0
135137  4  0  0  0  0
146148  4  0  0  0  0
163177  1  0  0  0  0
164177  1  0  0  0  0
167176  1  0  0  0  0
168176  1  0  0  0  0
172174  1  0  0  0  0
M  END
$$$$
AROROO

From CSD data. Using bond type 'Any'. No disordered atoms. Largest molecule.
 83102  0  0  0  0  0  0  0  0999 V2000
    1.9548    9.2564    5.4068 Pt  0  0  0  0  0  0  0  0  0  0  0  0
    1.9986    7.1388    4.3590 P   0  0  0  0  0  0  0  0  0  0  0  0
    3.0893    8.7003    7.3573 P   0  0  0  0  0  0  0  0  0  0  0  0
    0.7037   10.5510    3.8509 Si  0  0  0  0  0  0  0  0  0  0  0  0
    1.8867   10.9665    7.0183 Si  0  0  0  0  0  0  0  0  0  0  0  0
    2.8297   10.0631    8.1641 O   0  0  0  0  0  0  0  0  0  0  0  0
    3.4542   11.6330    2.5182 C   0  0  0  0  0  0  0  0  0  0  0  0
    1.7946   11.4372    2.4301 C   0  0  0  0  0  0  0  0  0  0  0  0
    4.2412   11.1179    3.6969 C   0  0  0  0  0  0  0  0  0  0  0  0
    4.6343   11.8572    4.1664 H   0  0  0  0  0  0  0  0  0  0  0  0
    4.9348   10.5307    3.3864 H   0  0  0  0  0  0  0  0  0  0  0  0
    3.6552   10.6390    4.2871 H   0  0  0  0  0  0  0  0  0  0  0  0
   -0.2697   11.9960    4.5669 C   0  0  0  0  0  0  0  0  0  0  0  0
   -0.7353   12.4502    3.8617 H   0  0  0  0  0  0  0  0  0  0  0  0
    0.3343   12.6079    4.9962 H   0  0  0  0  0  0  0  0  0  0  0  0
   -0.9031   11.6691    5.2090 H   0  0  0  0  0  0  0  0  0  0  0  0
   -0.6488    9.6925    2.8804 C   0  0  0  0  0  0  0  0  0  0  0  0
   -1.2456    9.2478    3.4880 H   0  0  0  0  0  0  0  0  0  0  0  0
   -0.2564    9.0464    2.2863 H   0  0  0  0  0  0  0  0  0  0  0  0
   -1.1375   10.3406    2.3688 H   0  0  0  0  0  0  0  0  0  0  0  0
    2.8075   12.5775    6.8820 C   0  0  0  0  0  0  0  0  0  0  0  0
    2.9436   12.9443    7.7579 H   0  0  0  0  0  0  0  0  0  0  0  0
    2.2966   13.1933    6.3512 H   0  0  0  0  0  0  0  0  0  0  0  0
    3.6585   12.4255    6.4623 H   0  0  0  0  0  0  0  0  0  0  0  0
    0.2917   11.3270    7.9457 C   0  0  0  0  0  0  0  0  0  0  0  0
   -0.2284   10.5231    8.0108 H   0  0  0  0  0  0  0  0  0  0  0  0
   -0.2095   11.9941    7.4723 H   0  0  0  0  0  0  0  0  0  0  0  0
    0.4989   11.6463    8.8272 H   0  0  0  0  0  0  0  0  0  0  0  0
    3.5788    6.2602    4.5535 C   0  0  0  0  0  0  0  0  0  0  0  0
    3.7875    6.2051    5.4983 H   0  0  0  0  0  0  0  0  0  0  0  0
    3.4714    5.3556    4.2220 H   0  0  0  0  0  0  0  0  0  0  0  0
    4.7476    6.8988    3.8387 C   0  0  0  0  0  0  0  0  0  0  0  0
    4.5371    7.0014    2.9073 H   0  0  0  0  0  0  0  0  0  0  0  0
    5.5231    6.3401    3.9326 H   0  0  0  0  0  0  0  0  0  0  0  0
    4.9262    7.7597    4.2220 H   0  0  0  0  0  0  0  0  0  0  0  0
    0.8915    6.0189    5.2779 C   0  0  0  0  0  0  0  0  0  0  0  0
    0.9570    5.1275    4.9004 H   0  0  0  0  0  0  0  0  0  0  0  0
    1.1839    5.9714    6.2017 H   0  0  0  0  0  0  0  0  0  0  0  0
   -0.5489    6.4674    5.2377 C   0  0  0  0  0  0  0  0  0  0  0  0
   -0.6161    7.3587    5.5903 H   0  0  0  0  0  0  0  0  0  0  0  0
   -1.0842    5.8725    5.7686 H   0  0  0  0  0  0  0  0  0  0  0  0
   -0.8626    6.4579    4.3312 H   0  0  0  0  0  0  0  0  0  0  0  0
    1.6174    6.8380    2.5949 C   0  0  0  0  0  0  0  0  0  0  0  0
    0.7422    7.2124    2.4090 H   0  0  0  0  0  0  0  0  0  0  0  0
    2.2604    7.3302    2.0602 H   0  0  0  0  0  0  0  0  0  0  0  0
    1.6214    5.4050    2.1273 C   0  0  0  0  0  0  0  0  0  0  0  0
    2.4765    5.0097    2.3132 H   0  0  0  0  0  0  0  0  0  0  0  0
    1.4538    5.3746    1.1825 H   0  0  0  0  0  0  0  0  0  0  0  0
    0.9358    4.9147    2.5891 H   0  0  0  0  0  0  0  0  0  0  0  0
    4.8806    8.5009    7.3899 C   0  0  0  0  0  0  0  0  0  0  0  0
    5.1746    8.4762    8.3136 H   0  0  0  0  0  0  0  0  0  0  0  0
    5.1058    7.6476    6.9893 H   0  0  0  0  0  0  0  0  0  0  0  0
    5.6367    9.5880    6.6712 C   0  0  0  0  0  0  0  0  0  0  0  0
    5.4751    9.5196    5.7264 H   0  0  0  0  0  0  0  0  0  0  0  0
    6.5767    9.4930    6.8418 H   0  0  0  0  0  0  0  0  0  0  0  0
    5.3410   10.4451    6.9855 H   0  0  0  0  0  0  0  0  0  0  0  0
    2.5630    7.3967    8.4995 C   0  0  0  0  0  0  0  0  0  0  0  0
    2.7388    6.5320    8.0951 H   0  0  0  0  0  0  0  0  0  0  0  0
    3.0889    7.4557    9.3121 H   0  0  0  0  0  0  0  0  0  0  0  0
    1.0846    7.4880    8.8541 C   0  0  0  0  0  0  0  0  0  0  0  0
    0.9361    8.2558    9.4098 H   0  0  0  0  0  0  0  0  0  0  0  0
    0.8199    6.6936    9.3274 H   0  0  0  0  0  0  0  0  0  0  0  0
    0.5668    7.5697    8.0511 H   0  0  0  0  0  0  0  0  0  0  0  0
    2.4228   12.9994    2.7329 B   0  0  0  0  0  0  0  0  0  0  0  0
    2.2607   13.5221    3.6854 H   0  0  0  0  0  0  0  0  0  0  0  0
    3.9310   13.0982    1.8226 B   0  0  0  0  0  0  0  0  0  0  0  0
    4.7774   13.6931    2.1963 H   0  0  0  0  0  0  0  0  0  0  0  0
    4.2013   11.5797    0.9889 B   0  0  0  0  0  0  0  0  0  0  0  0
    5.2121   11.1996    0.7819 H   0  0  0  0  0  0  0  0  0  0  0  0
    2.8396   10.5098    1.4546 B   0  0  0  0  0  0  0  0  0  0  0  0
    2.9557    9.4227    1.5849 H   0  0  0  0  0  0  0  0  0  0  0  0
    1.1395   12.7885    1.5945 B   0  0  0  0  0  0  0  0  0  0  0  0
    0.1363   13.1895    1.7823 H   0  0  0  0  0  0  0  0  0  0  0  0
    2.5235   13.8432    1.1825 B   0  0  0  0  0  0  0  0  0  0  0  0
    2.4458   14.9379    1.1115 H   0  0  0  0  0  0  0  0  0  0  0  0
    3.5336   12.9747    0.1112 B   0  0  0  0  0  0  0  0  0  0  0  0
    4.0947   13.5012   -0.6746 H   0  0  0  0  0  0  0  0  0  0  0  0
    2.8724   11.3270   -0.1112 B   0  0  0  0  0  0  0  0  0  0  0  0
    3.0163   10.7549   -1.0406 H   0  0  0  0  0  0  0  0  0  0  0  0
    1.4091   11.2358    0.7838 B   0  0  0  0  0  0  0  0  0  0  0  0
    0.5721   10.6124    0.4350 H   0  0  0  0  0  0  0  0  0  0  0  0
    1.8423   12.7467   -0.0326 B   0  0  0  0  0  0  0  0  0  0  0  0
    1.2916   13.1173   -0.9103 H   0  0  0  0  0  0  0  0  0  0  0  0
  1  2  1  0  0  0  0
  2 29  1  0  0  0  0
  3  1  1  0  0  0  0
  4  1  1  0  0  0  0
  5  1  1  0  0  0  0
  6  3  1  0  0  0  0
  7  8  1  0  0  0  0
  8  4  1  0  0  0  0
  9  7  1  0  0  0  0
 10  9  1  0  0  0  0
 11  9  1  0  0  0  0
 12  9  1  0  0  0  0
 13  4  1  0  0  0  0
 14 13  1  0  0  0  0
 15 13  1  0  0  0  0
 16 13  1  0  0  0  0
 17  4  1  0  0  0  0
 18 17  1  0  0  0  0
 19 17  1  0  0  0  0
 20 17  1  0  0  0  0
 21  5  1  0  0  0  0
 22 21  1  0  0  0  0
 23 21  1  0  0  0  0
 24 21  1  0  0  0  0
 25  5  1  0  0  0  0
 26 25  1  0  0  0  0
 27 25  1  0  0  0  0
 28 25  1  0  0  0  0
 29 30  1  0  0  0  0
 31 29  1  0  0  0  0
 32 29  1  0  0  0  0
 33 32  1  0  0  0  0
 34 32  1  0  0  0  0
 35 32  1  0  0  0  0
 36  2  1  0  0  0  0
 37 36  1  0  0  0  0
 38 36  1  0  0  0  0
 39 36  1  0  0  0  0
 40 39  1  0  0  0  0
 41 39  1  0  0  0  0
 42 39  1  0  0  0  0
 43  2  1  0  0  0  0
 44 43  1  0  0  0  0
 45 43  1  0  0  0  0
 46 43  1  0  0  0  0
 47 46  1  0  0  0  0
 48 46  1  0  0  0  0
 49 46  1  0  0  0  0
 50  3  1  0  0  0  0
 51 50  1  0  0  0  0
 52 50  1  0  0  0  0
 53 50  1  0  0  0  0
 54 53  1  0  0  0  0
 55 53  1  0  0  0  0
 56 53  1  0  0  0  0
 57  3  1  0  0  0  0
 58 57  1  0  0  0  0
 59 57  1  0  0  0  0
 60 57  1  0  0  0  0
 61 60  1  0  0  0  0
 62 60  1  0  0  0  0
 63 60  1  0  0  0  0
 64  7  1  0  0  0  0
 65 64  1  0  0  0  0
 66  7  1  0  0  0  0
 67 66  1  0  0  0  0
 68  7  1  0  0  0  0
 69 68  1  0  0  0  0
 70  7  1  0  0  0  0
 71 70  1  0  0  0  0
 72  8  1  0  0  0  0
 73 72  1  0  0  0  0
 74 64  1  0  0  0  0
 75 74  1  0  0  0  0
 76 66  1  0  0  0  0
 77 76  1  0  0  0  0
 78 68  1  0  0  0  0
 79 78  1  0  0  0  0
 80  8  1  0  0  0  0
 81 80  1  0  0  0  0
 82 72  1  0  0  0  0
 83 82  1  0  0  0  0
  5  6  1  0  0  0  0
  8 64  1  0  0  0  0
  8 70  1  0  0  0  0
 64 66  1  0  0  0  0
 64 72  1  0  0  0  0
 66 68  1  0  0  0  0
 66 74  1  0  0  0  0
 68 70  1  0  0  0  0
 68 76  1  0  0  0  0
 70 78  1  0  0  0  0
 70 80  1  0  0  0  0
 72 74  1  0  0  0  0
 72 80  1  0  0  0  0
 74 76  1  0  0  0  0
 74 82  1  0  0  0  0
 76 78  1  0  0  0  0
 76 82  1  0  0  0  0
 78 80  1  0  0  0  0
 78 82  1  0  0  0  0
 80 82  1  0  0  0  0
M  END
$$$$
AROTAE

From CSD data. Using bond type 'Any'. No disordered atoms. Largest molecule.
181191  0  0  0  0  0  0  0  0999 V2000
    4.1984   13.4176    4.5456 Fe  0  3  0  0  0  0  0  0  0  0  0  0
    4.4890   15.5453    4.1315 P   0  0  0  0  0  0  0  0  0  0  0  0
   -1.7505   12.1318    3.0060 P   0  3  0  0  0  0  0  0  0  0  0  0
    4.6477   11.2823    4.8165 P   0  0  0  0  0  0  0  0  0  0  0  0
    2.4198    9.2054   -0.8671 P   0  3  0  0  0  0  0  0  0  0  0  0
    4.5542   13.1015    2.5923 N   0  0  0  0  0  0  0  0  0  0  0  0
    3.1601   13.9373    7.2009 O   0  0  0  0  0  0  0  0  0  0  0  0
   -0.0558   12.5325    2.4569 C   0  0  0  0  0  0  0  0  0  0  0  0
   -0.0297   12.5122    1.4678 H   0  0  0  0  0  0  0  0  0  0  0  0
    0.1608   13.4548    2.7431 H   0  0  0  0  0  0  0  0  0  0  0  0
    2.3355   11.7197    2.3827 N   0  0  0  0  0  0  0  0  0  0  0  0
    3.6044   13.7060    6.1472 C   0  0  0  0  0  0  0  0  0  0  0  0
    3.3296   10.0483    5.2133 C   0  0  0  0  0  0  0  0  0  0  0  0
    2.6928   10.0945    4.4435 H   0  0  0  0  0  0  0  0  0  0  0  0
    5.0998   14.2558    1.8109 C   0  0  0  0  0  0  0  0  0  0  0  0
    4.8439   14.1477    0.8619 H   0  0  0  0  0  0  0  0  0  0  0  0
    6.0881   14.2350    1.8594 H   0  0  0  0  0  0  0  0  0  0  0  0
   -1.9751   12.8494    4.6811 C   0  0  0  0  0  0  0  0  0  0  0  0
   -2.9337   12.7082    4.9288 H   0  0  0  0  0  0  0  0  0  0  0  0
    6.1028   10.8496    5.8861 C   0  0  0  0  0  0  0  0  0  0  0  0
    6.1233    9.8559    5.9916 H   0  0  0  0  0  0  0  0  0  0  0  0
    1.0201   11.5838    2.9958 C   0  0  0  0  0  0  0  0  0  0  0  0
    1.1114   11.7359    3.9698 H   0  0  0  0  0  0  0  0  0  0  0  0
    0.7104   10.6525    2.8686 H   0  0  0  0  0  0  0  0  0  0  0  0
    1.9444    9.8907    0.7665 C   0  0  0  0  0  0  0  0  0  0  0  0
    0.9633    9.8178    0.8686 H   0  0  0  0  0  0  0  0  0  0  0  0
    2.3636    9.3426    1.4761 H   0  0  0  0  0  0  0  0  0  0  0  0
    5.1006   10.7164    3.1263 C   0  0  0  0  0  0  0  0  0  0  0  0
    5.8907   10.1209    3.1698 H   0  0  0  0  0  0  0  0  0  0  0  0
    4.3502   10.2073    2.7280 H   0  0  0  0  0  0  0  0  0  0  0  0
    8.5581   16.4796    4.6694 C   0  0  0  0  0  0  0  0  0  0  0  0
    9.3593   16.0903    4.2393 H   0  0  0  0  0  0  0  0  0  0  0  0
    8.5384   17.4478    4.4602 H   0  0  0  0  0  0  0  0  0  0  0  0
   -2.8312   13.1338    1.8996 C   0  0  0  0  0  0  0  0  0  0  0  0
   -2.4729   14.0673    1.8828 H   0  0  0  0  0  0  0  0  0  0  0  0
   -1.1334   12.0987    5.7204 C   0  0  0  0  0  0  0  0  0  0  0  0
   -1.3562   11.1346    5.6903 H   0  0  0  0  0  0  0  0  0  0  0  0
   -0.1738   12.1985    5.5012 H   0  0  0  0  0  0  0  0  0  0  0  0
    0.6942   17.2451    4.7029 C   0  0  0  0  0  0  0  0  0  0  0  0
   -0.1979   16.8857    4.4652 H   0  0  0  0  0  0  0  0  0  0  0  0
    0.7196   17.3716    5.6853 H   0  0  0  0  0  0  0  0  0  0  0  0
    1.7723   16.2426    4.2928 C   0  0  0  0  0  0  0  0  0  0  0  0
    1.6702   16.0294    3.3305 H   0  0  0  0  0  0  0  0  0  0  0  0
    1.6503   15.4045    4.8050 H   0  0  0  0  0  0  0  0  0  0  0  0
   -0.1395    8.0909   -1.3607 C   0  0  0  0  0  0  0  0  0  0  0  0
    0.2751    7.1931   -1.3941 H   0  0  0  0  0  0  0  0  0  0  0  0
   -0.3832    8.2805   -0.4201 H   0  0  0  0  0  0  0  0  0  0  0  0
   -1.9550   14.8720    6.1941 C   0  0  0  0  0  0  0  0  0  0  0  0
   -1.7281   15.8360    6.2275 H   0  0  0  0  0  0  0  0  0  0  0  0
   -2.9128   14.7745    6.4250 H   0  0  0  0  0  0  0  0  0  0  0  0
    5.4131   11.9284    2.2728 C   0  0  0  0  0  0  0  0  0  0  0  0
    6.3613   12.1785    2.4050 H   0  0  0  0  0  0  0  0  0  0  0  0
    5.2923   11.6912    1.3188 H   0  0  0  0  0  0  0  0  0  0  0  0
    0.2202   10.5252   -1.8828 C   0  0  0  0  0  0  0  0  0  0  0  0
    0.0013   10.8132   -0.9623 H   0  0  0  0  0  0  0  0  0  0  0  0
    0.8612   11.1768   -2.2644 H   0  0  0  0  0  0  0  0  0  0  0  0
    0.8682    9.1329   -1.8427 C   0  0  0  0  0  0  0  0  0  0  0  0
    1.1187    8.8946   -2.7816 H   0  0  0  0  0  0  0  0  0  0  0  0
   -1.1217   14.1281    7.1966 C   0  0  0  0  0  0  0  0  0  0  0  0
   -1.3274   14.4594    8.1070 H   0  0  0  0  0  0  0  0  0  0  0  0
   -0.1634   14.2972    7.0192 H   0  0  0  0  0  0  0  0  0  0  0  0
    3.1881   16.7937    4.5439 C   0  0  0  0  0  0  0  0  0  0  0  0
    3.2586   16.9659    5.5263 H   0  0  0  0  0  0  0  0  0  0  0  0
    7.4322   11.2880    5.2585 C   0  0  0  0  0  0  0  0  0  0  0  0
    7.5427   10.8411    4.3832 H   0  0  0  0  0  0  0  0  0  0  0  0
    7.4162   12.2643    5.1045 H   0  0  0  0  0  0  0  0  0  0  0  0
   -2.7898   12.5799    0.4619 C   0  0  0  0  0  0  0  0  0  0  0  0
   -1.8593   12.6094    0.1238 H   0  0  0  0  0  0  0  0  0  0  0  0
   -3.0836   11.6341    0.4653 H   0  0  0  0  0  0  0  0  0  0  0  0
    7.2988   15.8107    4.1071 C   0  0  0  0  0  0  0  0  0  0  0  0
    7.3609   14.8327    4.2426 H   0  0  0  0  0  0  0  0  0  0  0  0
    7.2482   15.9793    3.1313 H   0  0  0  0  0  0  0  0  0  0  0  0
    6.0243   16.3371    4.7799 C   0  0  0  0  0  0  0  0  0  0  0  0
    5.9633   17.3161    4.5841 H   0  0  0  0  0  0  0  0  0  0  0  0
    4.1460    7.4340    0.4218 C   0  0  0  0  0  0  0  0  0  0  0  0
    4.9113    7.8586   -0.0418 H   0  0  0  0  0  0  0  0  0  0  0  0
    3.9679    7.9441    1.2519 H   0  0  0  0  0  0  0  0  0  0  0  0
    7.1625   11.1604    8.1823 C   0  0  0  0  0  0  0  0  0  0  0  0
    7.0596   11.6299    9.0476 H   0  0  0  0  0  0  0  0  0  0  0  0
    7.1933   10.1881    8.3648 H   0  0  0  0  0  0  0  0  0  0  0  0
    2.3514   11.3539    0.9690 C   0  0  0  0  0  0  0  0  0  0  0  0
    3.2624   11.4941    0.6025 H   0  0  0  0  0  0  0  0  0  0  0  0
    1.7296   11.9396    0.4703 H   0  0  0  0  0  0  0  0  0  0  0  0
   -5.1172   13.4399    0.0402 C   0  0  0  0  0  0  0  0  0  0  0  0
   -5.5013   12.5272    0.0335 H   0  0  0  0  0  0  0  0  0  0  0  0
   -5.6684   14.0099   -0.5540 H   0  0  0  0  0  0  0  0  0  0  0  0
    1.6631    7.9939    6.5104 C   0  0  0  0  0  0  0  0  0  0  0  0
    0.8518    7.4281    6.4819 H   0  0  0  0  0  0  0  0  0  0  0  0
    2.1515    7.7859    7.3472 H   0  0  0  0  0  0  0  0  0  0  0  0
    2.4807   10.3860    6.4518 C   0  0  0  0  0  0  0  0  0  0  0  0
    2.1817   11.3287    6.4050 H   0  0  0  0  0  0  0  0  0  0  0  0
    3.0256   10.2748    7.2702 H   0  0  0  0  0  0  0  0  0  0  0  0
    3.3779   18.1455    3.8460 C   0  0  0  0  0  0  0  0  0  0  0  0
    3.3333   18.0218    2.8652 H   0  0  0  0  0  0  0  0  0  0  0  0
    4.2698   18.5131    4.0702 H   0  0  0  0  0  0  0  0  0  0  0  0
    2.2815   19.1366    4.2945 C   0  0  0  0  0  0  0  0  0  0  0  0
    2.3752   19.3141    5.2635 H   0  0  0  0  0  0  0  0  0  0  0  0
    2.3973   19.9933    3.8125 H   0  0  0  0  0  0  0  0  0  0  0  0
    3.5466    5.2215   -1.4008 C   0  0  0  0  0  0  0  0  0  0  0  0
    2.7717    4.7800   -0.9707 H   0  0  0  0  0  0  0  0  0  0  0  0
    3.7587    4.7246   -2.2309 H   0  0  0  0  0  0  0  0  0  0  0  0
    6.1201   16.1747    6.3096 C   0  0  0  0  0  0  0  0  0  0  0  0
    5.3292   16.5970    6.7313 H   0  0  0  0  0  0  0  0  0  0  0  0
    6.1091   15.2112    6.5372 H   0  0  0  0  0  0  0  0  0  0  0  0
   -1.0597   10.5149   -2.7314 C   0  0  0  0  0  0  0  0  0  0  0  0
   -1.4884   11.4062   -2.6895 H   0  0  0  0  0  0  0  0  0  0  0  0
   -0.8255   10.3328   -3.6753 H   0  0  0  0  0  0  0  0  0  0  0  0
    1.2563    9.4568    6.5154 C   0  0  0  0  0  0  0  0  0  0  0  0
    0.7402    9.6498    7.3372 H   0  0  0  0  0  0  0  0  0  0  0  0
    0.6702    9.6359    5.7372 H   0  0  0  0  0  0  0  0  0  0  0  0
    4.6141   15.6120    2.2979 C   0  0  0  0  0  0  0  0  0  0  0  0
    3.7300   15.8189    1.9029 H   0  0  0  0  0  0  0  0  0  0  0  0
    5.2510   16.3197    2.0251 H   0  0  0  0  0  0  0  0  0  0  0  0
   -4.2774   13.1901    2.4083 C   0  0  0  0  0  0  0  0  0  0  0  0
   -4.6348   12.2702    2.4870 H   0  0  0  0  0  0  0  0  0  0  0  0
   -4.2958   13.6061    3.3054 H   0  0  0  0  0  0  0  0  0  0  0  0
    5.9549   11.4721    7.2886 C   0  0  0  0  0  0  0  0  0  0  0  0
    5.8586   12.4543    7.2016 H   0  0  0  0  0  0  0  0  0  0  0  0
    5.1340   11.1234    7.7154 H   0  0  0  0  0  0  0  0  0  0  0  0
   -1.4035    8.0960   -2.2209 C   0  0  0  0  0  0  0  0  0  0  0  0
   -1.1726    7.8259   -3.1447 H   0  0  0  0  0  0  0  0  0  0  0  0
   -2.0491    7.4371   -1.8611 H   0  0  0  0  0  0  0  0  0  0  0  0
    4.5049    5.9884    0.7799 C   0  0  0  0  0  0  0  0  0  0  0  0
    5.3216    5.9824    1.3406 H   0  0  0  0  0  0  0  0  0  0  0  0
    3.7693    5.5877    1.3054 H   0  0  0  0  0  0  0  0  0  0  0  0
    3.1700    6.6613   -1.7607 C   0  0  0  0  0  0  0  0  0  0  0  0
    2.3579    6.6589   -2.3280 H   0  0  0  0  0  0  0  0  0  0  0  0
    3.9055    7.0776   -2.2761 H   0  0  0  0  0  0  0  0  0  0  0  0
    0.8977   18.5858    4.0167 C   0  0  0  0  0  0  0  0  0  0  0  0
    0.7760   18.4780    3.0393 H   0  0  0  0  0  0  0  0  0  0  0  0
    0.2162   19.2278    4.3397 H   0  0  0  0  0  0  0  0  0  0  0  0
    2.9053    7.4804   -0.4854 C   0  0  0  0  0  0  0  0  0  0  0  0
    2.1479    7.0482    0.0050 H   0  0  0  0  0  0  0  0  0  0  0  0
    3.7791    8.5904    5.2669 C   0  0  0  0  0  0  0  0  0  0  0  0
    4.3402    8.4435    6.0686 H   0  0  0  0  0  0  0  0  0  0  0  0
    4.3205    8.3797    4.4669 H   0  0  0  0  0  0  0  0  0  0  0  0
   -1.7178   14.3425    4.7648 C   0  0  0  0  0  0  0  0  0  0  0  0
   -2.3173   14.8147    4.1355 H   0  0  0  0  0  0  0  0  0  0  0  0
   -0.7829   14.5293    4.4953 H   0  0  0  0  0  0  0  0  0  0  0  0
    7.3911   16.8111    6.8736 C   0  0  0  0  0  0  0  0  0  0  0  0
    7.3440   17.7936    6.7598 H   0  0  0  0  0  0  0  0  0  0  0  0
    7.4497   16.6195    7.8426 H   0  0  0  0  0  0  0  0  0  0  0  0
    8.6177   10.9377    6.1573 C   0  0  0  0  0  0  0  0  0  0  0  0
    8.6752    9.9556    6.2644 H   0  0  0  0  0  0  0  0  0  0  0  0
    9.4577   11.2507    5.7355 H   0  0  0  0  0  0  0  0  0  0  0  0
   -1.3905   12.6353    7.1330 C   0  0  0  0  0  0  0  0  0  0  0  0
   -2.3301   12.4582    7.3874 H   0  0  0  0  0  0  0  0  0  0  0  0
   -0.8027   12.1664    7.7773 H   0  0  0  0  0  0  0  0  0  0  0  0
    2.5479    7.6634    5.3188 C   0  0  0  0  0  0  0  0  0  0  0  0
    2.0244    7.7639    4.4836 H   0  0  0  0  0  0  0  0  0  0  0  0
    2.8470    6.7225    5.3824 H   0  0  0  0  0  0  0  0  0  0  0  0
    4.7432    5.1568   -0.4619 C   0  0  0  0  0  0  0  0  0  0  0  0
    4.9077    4.2161   -0.2008 H   0  0  0  0  0  0  0  0  0  0  0  0
    5.5492    5.4891   -0.9305 H   0  0  0  0  0  0  0  0  0  0  0  0
   -5.1530   13.9955    1.4544 C   0  0  0  0  0  0  0  0  0  0  0  0
   -6.0861   13.9885    1.7841 H   0  0  0  0  0  0  0  0  0  0  0  0
   -4.8419   14.9360    1.4410 H   0  0  0  0  0  0  0  0  0  0  0  0
    3.0142   13.0388    2.6510 B   0  5  0  0  0  0  0  0  0  0  0  0
    2.5441   13.8398    2.2778 H   0  0  0  0  0  0  0  0  0  0  0  0
    3.8070   10.1868   -1.7908 B   0  5  0  0  0  0  0  0  0  0  0  0
   -3.6981   13.3944   -0.4753 C   0  0  0  0  0  0  0  0  0  0  0  0
   -3.3469   14.3171   -0.5523 H   0  0  0  0  0  0  0  0  0  0  0  0
   -3.6891   12.9876   -1.3774 H   0  0  0  0  0  0  0  0  0  0  0  0
    8.6452   16.2861    6.1807 C   0  0  0  0  0  0  0  0  0  0  0  0
    8.7549   15.3242    6.3849 H   0  0  0  0  0  0  0  0  0  0  0  0
    9.4394   16.7647    6.5288 H   0  0  0  0  0  0  0  0  0  0  0  0
    8.4649   11.5902    7.5280 C   0  0  0  0  0  0  0  0  0  0  0  0
    9.2258   11.3316    8.1054 H   0  0  0  0  0  0  0  0  0  0  0  0
    8.4753   12.5762    7.4275 H   0  0  0  0  0  0  0  0  0  0  0  0
   -2.1364   10.2414    2.9255 B   0  5  0  0  0  0  0  0  0  0  0  0
   -2.0402    9.4591   -2.2410 C   0  0  0  0  0  0  0  0  0  0  0  0
   -2.3470    9.6933   -1.3305 H   0  0  0  0  0  0  0  0  0  0  0  0
   -2.8312    9.4439   -2.8368 H   0  0  0  0  0  0  0  0  0  0  0  0
   -1.9217    9.8800    1.8242 H   0  0  0  0  0  0  0  0  0  0  0  0
    3.4130   11.2181   -1.9749 H   0  0  0  0  0  0  0  0  0  0  0  0
    5.6092   13.4999    4.9204 H   0  0  0  0  0  0  0  0  0  0  0  0
    2.8645   13.3203    3.8493 H   0  0  0  0  0  0  0  0  0  0  0  0
   -3.1255   10.0827    3.2134 H   0  0  0  0  0  0  0  0  0  0  0  0
   -1.5053    9.6163    3.5983 H   0  0  0  0  0  0  0  0  0  0  0  0
    3.9423    9.6783   -2.7113 H   0  0  0  0  0  0  0  0  0  0  0  0
    4.7464   10.2219   -1.1381 H   0  0  0  0  0  0  0  0  0  0  0  0
  1  2  1  0  0  0  0
  2 62  1  0  0  0  0
  3  8  1  0  0  0  0
  4  1  1  0  0  0  0
  5 25  1  0  0  0  0
  6  1  1  0  0  0  0
  7 12  3  0  0  0  0
  8  9  1  0  0  0  0
 10  8  1  0  0  0  0
 11 22  1  0  0  0  0
 12  1  1  0  0  0  0
 13  4  1  0  0  0  0
 14 13  1  0  0  0  0
 15  6  1  0  0  0  0
 16 15  1  0  0  0  0
 17 15  1  0  0  0  0
 18  3  1  0  0  0  0
 19 18  1  0  0  0  0
 20  4  1  0  0  0  0
 21 20  1  0  0  0  0
 22  8  1  0  0  0  0
 23 22  1  0  0  0  0
 24 22  1  0  0  0  0
 25 26  1  0  0  0  0
 27 25  1  0  0  0  0
 28  4  1  0  0  0  0
 29 28  1  0  0  0  0
 30 28  1  0  0  0  0
 31 32  1  0  0  0  0
 33 31  1  0  0  0  0
 34  3  1  0  0  0  0
 35 34  1  0  0  0  0
 36 18  1  0  0  0  0
 37 36  1  0  0  0  0
 38 36  1  0  0  0  0
 39 40  1  0  0  0  0
 41 39  1  0  0  0  0
 42 39  1  0  0  0  0
 43 42  1  0  0  0  0
 44 42  1  0  0  0  0
 45 46  1  0  0  0  0
 47 45  1  0  0  0  0
 48 49  1  0  0  0  0
 50 48  1  0  0  0  0
 51  6  1  0  0  0  0
 52 51  1  0  0  0  0
 53 51  1  0  0  0  0
 54 55  1  0  0  0  0
 56 54  1  0  0  0  0
 57  5  1  0  0  0  0
 58 57  1  0  0  0  0
 59 48  1  0  0  0  0
 60 59  1  0  0  0  0
 61 59  1  0  0  0  0
 62 42  1  0  0  0  0
 63 62  1  0  0  0  0
 64 20  1  0  0  0  0
 65 64  1  0  0  0  0
 66 64  1  0  0  0  0
 67 34  1  0  0  0  0
 68 67  1  0  0  0  0
 69 67  1  0  0  0  0
 70 31  1  0  0  0  0
 71 70  1  0  0  0  0
 72 70  1  0  0  0  0
 73  2  1  0  0  0  0
 74 73  1  0  0  0  0
 75 76  1  0  0  0  0
 77 75  1  0  0  0  0
 78 79  1  0  0  0  0
 80 78  1  0  0  0  0
 81 11  1  0  0  0  0
 82 81  1  0  0  0  0
 83 81  1  0  0  0  0
 84 85  1  0  0  0  0
 86 84  1  0  0  0  0
 87 88  1  0  0  0  0
 89 87  1  0  0  0  0
 90 13  1  0  0  0  0
 91 90  1  0  0  0  0
 92 90  1  0  0  0  0
 93 62  1  0  0  0  0
 94 93  1  0  0  0  0
 95 93  1  0  0  0  0
 96 93  1  0  0  0  0
 97 96  1  0  0  0  0
 98 96  1  0  0  0  0
 99100  1  0  0  0  0
101 99  1  0  0  0  0
102 73  1  0  0  0  0
103102  1  0  0  0  0
104102  1  0  0  0  0
105 54  1  0  0  0  0
106105  1  0  0  0  0
107105  1  0  0  0  0
108 87  1  0  0  0  0
109108  1  0  0  0  0
110108  1  0  0  0  0
111  2  1  0  0  0  0
112111  1  0  0  0  0
113111  1  0  0  0  0
114 34  1  0  0  0  0
115114  1  0  0  0  0
116114  1  0  0  0  0
117 20  1  0  0  0  0
118117  1  0  0  0  0
119117  1  0  0  0  0
120 45  1  0  0  0  0
121120  1  0  0  0  0
122120  1  0  0  0  0
123 75  1  0  0  0  0
124123  1  0  0  0  0
125123  1  0  0  0  0
126 99  1  0  0  0  0
127126  1  0  0  0  0
128126  1  0  0  0  0
129 39  1  0  0  0  0
130129  1  0  0  0  0
131129  1  0  0  0  0
132  5  1  0  0  0  0
133132  1  0  0  0  0
134 13  1  0  0  0  0
135134  1  0  0  0  0
136134  1  0  0  0  0
137 18  1  0  0  0  0
138137  1  0  0  0  0
139137  1  0  0  0  0
140102  1  0  0  0  0
141140  1  0  0  0  0
142140  1  0  0  0  0
143 64  1  0  0  0  0
144143  1  0  0  0  0
145143  1  0  0  0  0
146 36  1  0  0  0  0
147146  1  0  0  0  0
148146  1  0  0  0  0
149 87  1  0  0  0  0
150149  1  0  0  0  0
151149  1  0  0  0  0
152 99  1  0  0  0  0
153152  1  0  0  0  0
154152  1  0  0  0  0
155 84  1  0  0  0  0
156155  1  0  0  0  0
157155  1  0  0  0  0
158  6  1  0  0  0  0
159158  1  0  0  0  0
160  5  1  0  0  0  0
161 67  1  0  0  0  0
162161  1  0  0  0  0
163161  1  0  0  0  0
164 31  1  0  0  0  0
165164  1  0  0  0  0
166164  1  0  0  0  0
167 78  1  0  0  0  0
168167  1  0  0  0  0
169167  1  0  0  0  0
170  3  1  0  0  0  0
171105  1  0  0  0  0
172171  1  0  0  0  0
173171  1  0  0  0  0
174170  1  0  0  0  0
175160  1  0  0  0  0
176  1  1  0  0  0  0
177  1  1  0  0  0  0
178170  1  0  0  0  0
179170  1  0  0  0  0
180160  1  0  0  0  0
181160  1  0  0  0  0
 11158  1  0  0  0  0
 15111  1  0  0  0  0
 25 81  1  0  0  0  0
 28 51  1  0  0  0  0
 45 57  1  0  0  0  0
 48137  1  0  0  0  0
 54 57  1  0  0  0  0
 59146  1  0  0  0  0
 70 73  1  0  0  0  0
 75132  1  0  0  0  0
 78117  1  0  0  0  0
 84161  1  0  0  0  0
 90108  1  0  0  0  0
 96129  1  0  0  0  0
114155  1  0  0  0  0
120171  1  0  0  0  0
123152  1  0  0  0  0
126132  1  0  0  0  0
134149  1  0  0  0  0
140164  1  0  0  0  0
143167  1  0  0  0  0
158177  1  0  0  0  0
M  CHG  6   1   1   3   1   5   1 158  -1 160  -1 170  -1
M  END
$$$$
AWAMIX

From CSD data. Using bond type 'Any'. No disordered atoms. Largest molecule.
 96119  0  0  0  0  0  0  0  0999 V2000
    2.5332   14.6638    6.5535 Os  0  0  0  0  0  0  0  0  0  0  0  0
    2.7968   15.0561    4.2322 P   0  0  0  0  0  0  0  0  0  0  0  0
    2.0856   12.2736    6.6460 P   0  0  0  0  0  0  0  0  0  0  0  0
    0.5800   17.0458    5.9542 O   0  0  0  0  0  0  0  0  0  0  0  0
    5.9071   15.6199    6.4864 O   0  0  0  0  0  0  0  0  0  0  0  0
    4.0780   14.3300    7.9238 C   0  0  0  0  0  0  0  0  0  0  0  0
    1.6525   16.5590    6.6786 B   0  0  0  0  0  0  0  0  0  0  0  0
    2.8161   14.6976    8.9214 B   0  0  0  0  0  0  0  0  0  0  0  0
    4.6814   15.5899    7.1525 B   0  0  0  0  0  0  0  0  0  0  0  0
    3.4105   16.7484    6.5635 B   0  0  0  0  0  0  0  0  0  0  0  0
    1.6340   15.8104    8.3535 B   0  0  0  0  0  0  0  0  0  0  0  0
    4.4486   15.4885    8.9886 B   0  0  0  0  0  0  0  0  0  0  0  0
    2.4527   17.4190    7.9890 B   0  0  0  0  0  0  0  0  0  0  0  0
    3.0324   16.4287    9.3320 B   0  0  0  0  0  0  0  0  0  0  0  0
    4.1738   17.0291    8.1406 B   0  0  0  0  0  0  0  0  0  0  0  0
   -0.0789   18.2533    6.3294 C   0  0  0  0  0  0  0  0  0  0  0  0
   -0.9140   18.3391    5.8268 H   0  0  0  0  0  0  0  0  0  0  0  0
    0.5025   19.0175    6.1299 H   0  0  0  0  0  0  0  0  0  0  0  0
   -0.2736   18.2333    7.2887 H   0  0  0  0  0  0  0  0  0  0  0  0
    6.8021   14.5427    6.6901 C   0  0  0  0  0  0  0  0  0  0  0  0
    7.6166   14.6909    6.1663 H   0  0  0  0  0  0  0  0  0  0  0  0
    7.0309   14.4837    7.6417 H   0  0  0  0  0  0  0  0  0  0  0  0
    6.3781   13.7062    6.4043 H   0  0  0  0  0  0  0  0  0  0  0  0
    3.5084   16.7350    4.0290 C   0  0  0  0  0  0  0  0  0  0  0  0
    3.7666   17.4491    5.2032 C   0  0  0  0  0  0  0  0  0  0  0  0
    4.2678   18.7357    5.1034 C   0  0  0  0  0  0  0  0  0  0  0  0
    4.4304   19.2359    5.8958 H   0  0  0  0  0  0  0  0  0  0  0  0
    4.5371   19.3072    3.8717 C   0  0  0  0  0  0  0  0  0  0  0  0
    4.8939   20.1861    3.8180 H   0  0  0  0  0  0  0  0  0  0  0  0
    4.2826   18.5842    2.7148 C   0  0  0  0  0  0  0  0  0  0  0  0
    4.4557   18.9774    1.8687 H   0  0  0  0  0  0  0  0  0  0  0  0
    3.7826   17.3065    2.7800 C   0  0  0  0  0  0  0  0  0  0  0  0
    3.6227   16.8130    1.9838 H   0  0  0  0  0  0  0  0  0  0  0  0
    1.4171   15.0396    3.0199 C   0  0  0  0  0  0  0  0  0  0  0  0
    0.1150   15.2702    3.4362 C   0  0  0  0  0  0  0  0  0  0  0  0
   -0.0812   15.3459    4.3629 H   0  0  0  0  0  0  0  0  0  0  0  0
   -0.9035   15.3894    2.4980 C   0  0  0  0  0  0  0  0  0  0  0  0
   -1.7982   15.5364    2.7858 H   0  0  0  0  0  0  0  0  0  0  0  0
   -0.6241   15.2958    1.1531 C   0  0  0  0  0  0  0  0  0  0  0  0
   -1.3173   15.3972    0.5123 H   0  0  0  0  0  0  0  0  0  0  0  0
    0.6613   15.0585    0.7387 C   0  0  0  0  0  0  0  0  0  0  0  0
    0.8502   14.9828   -0.1899 H   0  0  0  0  0  0  0  0  0  0  0  0
    1.6878   14.9271    1.6577 C   0  0  0  0  0  0  0  0  0  0  0  0
    2.5754   14.7600    1.3622 H   0  0  0  0  0  0  0  0  0  0  0  0
    4.0475   13.9401    3.5072 C   0  0  0  0  0  0  0  0  0  0  0  0
    5.4022   14.2019    3.6626 C   0  0  0  0  0  0  0  0  0  0  0  0
    5.6831   15.0140    4.0674 H   0  0  0  0  0  0  0  0  0  0  0  0
    6.3504   13.2817    3.2309 C   0  0  0  0  0  0  0  0  0  0  0  0
    7.2726   13.4555    3.3690 H   0  0  0  0  0  0  0  0  0  0  0  0
    5.9624   12.1210    2.6054 C   0  0  0  0  0  0  0  0  0  0  0  0
    6.6178   11.5028    2.3023 H   0  0  0  0  0  0  0  0  0  0  0  0
    4.6234   11.8570    2.4193 C   0  0  0  0  0  0  0  0  0  0  0  0
    4.3599   11.0650    1.9646 H   0  0  0  0  0  0  0  0  0  0  0  0
    3.6605   12.7359    2.8875 C   0  0  0  0  0  0  0  0  0  0  0  0
    2.7392   12.5265    2.7915 H   0  0  0  0  0  0  0  0  0  0  0  0
    1.4096   11.4693    5.1591 C   0  0  0  0  0  0  0  0  0  0  0  0
    1.8867   10.2406    4.7140 C   0  0  0  0  0  0  0  0  0  0  0  0
    2.6242    9.8352    5.1514 H   0  0  0  0  0  0  0  0  0  0  0  0
    1.2949    9.6034    3.6376 C   0  0  0  0  0  0  0  0  0  0  0  0
    1.6327    8.7680    3.3383 H   0  0  0  0  0  0  0  0  0  0  0  0
    0.2177   10.1738    2.9988 C   0  0  0  0  0  0  0  0  0  0  0  0
   -0.1924    9.7271    2.2678 H   0  0  0  0  0  0  0  0  0  0  0  0
   -0.2671   11.3902    3.4170 C   0  0  0  0  0  0  0  0  0  0  0  0
   -1.0002   11.7868    2.9642 H   0  0  0  0  0  0  0  0  0  0  0  0
    0.3142   12.0452    4.5048 C   0  0  0  0  0  0  0  0  0  0  0  0
   -0.0342   12.8785    4.8003 H   0  0  0  0  0  0  0  0  0  0  0  0
    3.5452   11.2878    7.0815 C   0  0  0  0  0  0  0  0  0  0  0  0
    3.6529   10.6094    8.2941 C   0  0  0  0  0  0  0  0  0  0  0  0
    2.9196   10.5949    8.8984 H   0  0  0  0  0  0  0  0  0  0  0  0
    4.8343    9.9555    8.6183 C   0  0  0  0  0  0  0  0  0  0  0  0
    4.9062    9.4865    9.4414 H   0  0  0  0  0  0  0  0  0  0  0  0
    5.9091    9.9844    7.7473 C   0  0  0  0  0  0  0  0  0  0  0  0
    6.7111    9.5299    7.9737 H   0  0  0  0  0  0  0  0  0  0  0  0
    5.8215   10.6706    6.5520 C   0  0  0  0  0  0  0  0  0  0  0  0
    6.5688   10.7063    5.9630 H   0  0  0  0  0  0  0  0  0  0  0  0
    4.6342   11.3056    6.2162 C   0  0  0  0  0  0  0  0  0  0  0  0
    4.5654   11.7601    5.3836 H   0  0  0  0  0  0  0  0  0  0  0  0
    0.7888   11.7367    7.8336 C   0  0  0  0  0  0  0  0  0  0  0  0
    0.0293   12.6412    8.5665 C   0  0  0  0  0  0  0  0  0  0  0  0
    0.1841   13.5736    8.4763 H   0  0  0  0  0  0  0  0  0  0  0  0
   -0.9572   12.1812    9.4337 C   0  0  0  0  0  0  0  0  0  0  0  0
   -1.4708   12.8016    9.9345 H   0  0  0  0  0  0  0  0  0  0  0  0
   -1.1935   10.8255    9.5680 C   0  0  0  0  0  0  0  0  0  0  0  0
   -1.8760   10.5191   10.1551 H   0  0  0  0  0  0  0  0  0  0  0  0
   -0.4438    9.9220    8.8543 C   0  0  0  0  0  0  0  0  0  0  0  0
   -0.5900    8.9885    8.9598 H   0  0  0  0  0  0  0  0  0  0  0  0
    0.5314   10.3821    7.9756 C   0  0  0  0  0  0  0  0  0  0  0  0
    1.0308    9.7572    7.4633 H   0  0  0  0  0  0  0  0  0  0  0  0
    1.2186   14.5149    6.2738 H   0  0  0  0  0  0  0  0  0  0  0  0
    4.5026   13.4678    8.0005 H   0  0  0  0  0  0  0  0  0  0  0  0
    2.5683   13.9691    9.5354 H   0  0  0  0  0  0  0  0  0  0  0  0
    0.7158   15.8294    8.6145 H   0  0  0  0  0  0  0  0  0  0  0  0
    5.1532   15.2613    9.7273 H   0  0  0  0  0  0  0  0  0  0  0  0
    2.1058   18.4026    8.1540 H   0  0  0  0  0  0  0  0  0  0  0  0
    2.8076   16.7874   10.3604 H   0  0  0  0  0  0  0  0  0  0  0  0
    4.8171   17.8345    8.3651 H   0  0  0  0  0  0  0  0  0  0  0  0
  1  2  1  0  0  0  0
  2 24  1  0  0  0  0
  3  1  1  0  0  0  0
  4  7  1  0  0  0  0
  5  9  1  0  0  0  0
  6  1  1  0  0  0  0
  7  1  1  0  0  0  0
  8  1  1  0  0  0  0
  9  1  1  0  0  0  0
 10  1  1  0  0  0  0
 11  1  1  0  0  0  0
 12  6  1  0  0  0  0
 13  7  1  0  0  0  0
 14  8  1  0  0  0  0
 15  9  1  0  0  0  0
 16  4  1  0  0  0  0
 17 16  1  0  0  0  0
 18 16  1  0  0  0  0
 19 16  1  0  0  0  0
 20  5  1  0  0  0  0
 21 20  1  0  0  0  0
 22 20  1  0  0  0  0
 23 20  1  0  0  0  0
 24 25  4  0  0  0  0
 25 10  1  0  0  0  0
 26 25  4  0  0  0  0
 27 26  1  0  0  0  0
 28 26  4  0  0  0  0
 29 28  1  0  0  0  0
 30 28  4  0  0  0  0
 31 30  1  0  0  0  0
 32 24  4  0  0  0  0
 33 32  1  0  0  0  0
 34  2  1  0  0  0  0
 35 34  4  0  0  0  0
 36 35  1  0  0  0  0
 37 35  4  0  0  0  0
 38 37  1  0  0  0  0
 39 37  4  0  0  0  0
 40 39  1  0  0  0  0
 41 39  4  0  0  0  0
 42 41  1  0  0  0  0
 43 34  4  0  0  0  0
 44 43  1  0  0  0  0
 45  2  1  0  0  0  0
 46 45  4  0  0  0  0
 47 46  1  0  0  0  0
 48 46  4  0  0  0  0
 49 48  1  0  0  0  0
 50 48  4  0  0  0  0
 51 50  1  0  0  0  0
 52 50  4  0  0  0  0
 53 52  1  0  0  0  0
 54 45  4  0  0  0  0
 55 54  1  0  0  0  0
 56  3  1  0  0  0  0
 57 56  4  0  0  0  0
 58 57  1  0  0  0  0
 59 57  4  0  0  0  0
 60 59  1  0  0  0  0
 61 59  4  0  0  0  0
 62 61  1  0  0  0  0
 63 61  4  0  0  0  0
 64 63  1  0  0  0  0
 65 56  4  0  0  0  0
 66 65  1  0  0  0  0
 67  3  1  0  0  0  0
 68 67  4  0  0  0  0
 69 68  1  0  0  0  0
 70 68  4  0  0  0  0
 71 70  1  0  0  0  0
 72 70  4  0  0  0  0
 73 72  1  0  0  0  0
 74 72  4  0  0  0  0
 75 74  1  0  0  0  0
 76 67  4  0  0  0  0
 77 76  1  0  0  0  0
 78  3  1  0  0  0  0
 79 78  4  0  0  0  0
 80 79  1  0  0  0  0
 81 79  4  0  0  0  0
 82 81  1  0  0  0  0
 83 81  4  0  0  0  0
 84 83  1  0  0  0  0
 85 83  4  0  0  0  0
 86 85  1  0  0  0  0
 87 78  4  0  0  0  0
 88 87  1  0  0  0  0
 89  1  1  0  0  0  0
 90  6  1  0  0  0  0
 91  8  1  0  0  0  0
 92 11  1  0  0  0  0
 93 12  1  0  0  0  0
 94 13  1  0  0  0  0
 95 14  1  0  0  0  0
 96 15  1  0  0  0  0
  6  8  1  0  0  0  0
  6  9  1  0  0  0  0
  7 10  1  0  0  0  0
  7 11  1  0  0  0  0
  8 11  1  0  0  0  0
  8 12  1  0  0  0  0
  9 10  1  0  0  0  0
  9 12  1  0  0  0  0
 10 13  1  0  0  0  0
 10 15  1  0  0  0  0
 11 13  1  0  0  0  0
 11 14  1  0  0  0  0
 12 14  1  0  0  0  0
 12 15  1  0  0  0  0
 13 14  1  0  0  0  0
 13 15  1  0  0  0  0
 14 15  1  0  0  0  0
 30 32  4  0  0  0  0
 41 43  4  0  0  0  0
 52 54  4  0  0  0  0
 63 65  4  0  0  0  0
 74 76  4  0  0  0  0
 85 87  4  0  0  0  0
M  END
$$$$
AWAMOD

From CSD data. Using bond type 'Any'. No disordered atoms. Largest molecule.
 90111  0  0  0  0  0  0  0  0999 V2000
    6.1412   12.5279    3.3911 Os  0  0  0  0  0  0  0  0  0  0  0  0
    5.3634   12.7274    2.1007 H   0  0  0  0  0  0  0  0  0  0  0  0
    4.2562   11.0569    3.4898 P   0  0  0  0  0  0  0  0  0  0  0  0
    7.4731   11.1647    1.9116 P   0  0  0  0  0  0  0  0  0  0  0  0
    7.8629   11.7157    6.4690 O   0  0  0  0  0  0  0  0  0  0  0  0
    7.9782   13.0632    4.3141 C   0  0  0  0  0  0  0  0  0  0  0  0
    8.7157   12.6145    4.0818 H   0  0  0  0  0  0  0  0  0  0  0  0
    5.8887   14.5857    3.1561 B   0  0  0  0  0  0  0  0  0  0  0  0
    5.5330   15.1544    2.4081 H   0  0  0  0  0  0  0  0  0  0  0  0
    5.4384   12.7387    5.4071 B   0  0  0  0  0  0  0  0  0  0  0  0
    7.6253   14.4065    3.5404 B   0  0  0  0  0  0  0  0  0  0  0  0
    8.3683   14.7452    2.8350 H   0  0  0  0  0  0  0  0  0  0  0  0
    5.0897   14.2767    4.6812 B   0  0  0  0  0  0  0  0  0  0  0  0
    4.0307   14.5617    4.7478 H   0  0  0  0  0  0  0  0  0  0  0  0
    7.2029   12.6315    5.6462 B   0  0  0  0  0  0  0  0  0  0  0  0
    7.8536   14.3543    5.3354 B   0  0  0  0  0  0  0  0  0  0  0  0
    8.7926   14.7734    5.8750 H   0  0  0  0  0  0  0  0  0  0  0  0
    6.5155   15.3194    4.6573 B   0  0  0  0  0  0  0  0  0  0  0  0
    6.4698   16.3396    4.8162 H   0  0  0  0  0  0  0  0  0  0  0  0
    6.2415   14.1751    6.0561 B   0  0  0  0  0  0  0  0  0  0  0  0
    6.0314   14.5194    7.0535 H   0  0  0  0  0  0  0  0  0  0  0  0
    7.1756   11.1033    7.5334 C   0  0  0  0  0  0  0  0  0  0  0  0
    7.7887   10.5192    8.0269 H   0  0  0  0  0  0  0  0  0  0  0  0
    6.4317   10.5714    7.1798 H   0  0  0  0  0  0  0  0  0  0  0  0
    6.8258   11.7933    8.1362 H   0  0  0  0  0  0  0  0  0  0  0  0
    3.6789   10.9537    5.2192 C   0  0  0  0  0  0  0  0  0  0  0  0
    4.3119   11.8794    6.0509 C   0  0  0  0  0  0  0  0  0  0  0  0
    3.8697   11.9894    7.3762 C   0  0  0  0  0  0  0  0  0  0  0  0
    4.2593   12.6357    7.9518 H   0  0  0  0  0  0  0  0  0  0  0  0
    2.8656   11.1569    7.8510 C   0  0  0  0  0  0  0  0  0  0  0  0
    2.5813   11.2303    8.7545 H   0  0  0  0  0  0  0  0  0  0  0  0
    2.2761   10.2186    7.0176 C   0  0  0  0  0  0  0  0  0  0  0  0
    1.6111    9.6330    7.3592 H   0  0  0  0  0  0  0  0  0  0  0  0
    2.6558   10.1297    5.6855 C   0  0  0  0  0  0  0  0  0  0  0  0
    2.2254    9.5187    5.0997 H   0  0  0  0  0  0  0  0  0  0  0  0
    4.4195    9.3127    2.9939 C   0  0  0  0  0  0  0  0  0  0  0  0
    4.9301    8.3927    3.9076 C   0  0  0  0  0  0  0  0  0  0  0  0
    5.1882    8.6848    4.7735 H   0  0  0  0  0  0  0  0  0  0  0  0
    5.0638    7.0579    3.5677 C   0  0  0  0  0  0  0  0  0  0  0  0
    5.4054    6.4427    4.2047 H   0  0  0  0  0  0  0  0  0  0  0  0
    4.7046    6.6163    2.3141 C   0  0  0  0  0  0  0  0  0  0  0  0
    4.7901    5.6977    2.0904 H   0  0  0  0  0  0  0  0  0  0  0  0
    4.2178    7.5179    1.3799 C   0  0  0  0  0  0  0  0  0  0  0  0
    3.9832    7.2188    0.5089 H   0  0  0  0  0  0  0  0  0  0  0  0
    4.0760    8.8527    1.7164 C   0  0  0  0  0  0  0  0  0  0  0  0
    3.7407    9.4651    1.0708 H   0  0  0  0  0  0  0  0  0  0  0  0
    2.7609   11.6522    2.6062 C   0  0  0  0  0  0  0  0  0  0  0  0
    2.6660   12.9715    2.1639 C   0  0  0  0  0  0  0  0  0  0  0  0
    3.3998   13.5627    2.2885 H   0  0  0  0  0  0  0  0  0  0  0  0
    1.5150   13.4273    1.5473 C   0  0  0  0  0  0  0  0  0  0  0  0
    1.4577   14.3289    1.2570 H   0  0  0  0  0  0  0  0  0  0  0  0
    0.4461   12.5680    1.3509 C   0  0  0  0  0  0  0  0  0  0  0  0
   -0.3282   12.8713    0.8932 H   0  0  0  0  0  0  0  0  0  0  0  0
    0.5022   11.2670    1.8206 C   0  0  0  0  0  0  0  0  0  0  0  0
   -0.2428   10.6885    1.7130 H   0  0  0  0  0  0  0  0  0  0  0  0
    1.6546   10.8084    2.4508 C   0  0  0  0  0  0  0  0  0  0  0  0
    1.6917    9.9166    2.7787 H   0  0  0  0  0  0  0  0  0  0  0  0
    7.8789    9.4976    2.5276 C   0  0  0  0  0  0  0  0  0  0  0  0
    8.1975    9.3678    3.8837 C   0  0  0  0  0  0  0  0  0  0  0  0
    8.0969   10.1085    4.4695 H   0  0  0  0  0  0  0  0  0  0  0  0
    8.6600    8.1515    4.3721 C   0  0  0  0  0  0  0  0  0  0  0  0
    8.8966    8.0682    5.2875 H   0  0  0  0  0  0  0  0  0  0  0  0
    8.7741    7.0664    3.5319 C   0  0  0  0  0  0  0  0  0  0  0  0
    9.0915    6.2367    3.8700 H   0  0  0  0  0  0  0  0  0  0  0  0
    8.4320    7.1764    2.2014 C   0  0  0  0  0  0  0  0  0  0  0  0
    8.5054    6.4201    1.6310 H   0  0  0  0  0  0  0  0  0  0  0  0
    7.9808    8.3899    1.6891 C   0  0  0  0  0  0  0  0  0  0  0  0
    7.7416    8.4605    0.7720 H   0  0  0  0  0  0  0  0  0  0  0  0
    9.1333   11.8935    1.6366 C   0  0  0  0  0  0  0  0  0  0  0  0
   10.2968   11.3869    2.2168 C   0  0  0  0  0  0  0  0  0  0  0  0
   10.2591   10.5812    2.7206 H   0  0  0  0  0  0  0  0  0  0  0  0
   11.5072   12.0501    2.0648 C   0  0  0  0  0  0  0  0  0  0  0  0
   12.2929   11.7115    2.4781 H   0  0  0  0  0  0  0  0  0  0  0  0
   11.5655   13.2086    1.3082 C   0  0  0  0  0  0  0  0  0  0  0  0
   12.3949   13.6587    1.1972 H   0  0  0  0  0  0  0  0  0  0  0  0
   10.4267   13.7123    0.7105 C   0  0  0  0  0  0  0  0  0  0  0  0
   10.4746   14.5039    0.1879 H   0  0  0  0  0  0  0  0  0  0  0  0
    9.2122   13.0618    0.8744 C   0  0  0  0  0  0  0  0  0  0  0  0
    8.4299   13.4132    0.4662 H   0  0  0  0  0  0  0  0  0  0  0  0
    6.9274   10.9298    0.1725 C   0  0  0  0  0  0  0  0  0  0  0  0
    7.8710   10.5544   -0.7856 C   0  0  0  0  0  0  0  0  0  0  0  0
    8.7775   10.4317   -0.5277 H   0  0  0  0  0  0  0  0  0  0  0  0
    7.5003   10.3569   -2.1143 C   0  0  0  0  0  0  0  0  0  0  0  0
    8.1456   10.0987   -2.7616 H   0  0  0  0  0  0  0  0  0  0  0  0
    6.1822   10.5431   -2.4747 C   0  0  0  0  0  0  0  0  0  0  0  0
    5.9229   10.4246   -3.3816 H   0  0  0  0  0  0  0  0  0  0  0  0
    5.2313   10.9015   -1.5371 C   0  0  0  0  0  0  0  0  0  0  0  0
    4.3237   11.0102   -1.7967 H   0  0  0  0  0  0  0  0  0  0  0  0
    5.6050   11.1033   -0.2084 C   0  0  0  0  0  0  0  0  0  0  0  0
    4.9549   11.3615    0.4338 H   0  0  0  0  0  0  0  0  0  0  0  0
  1  2  1  0  0  0  0
  3  1  1  0  0  0  0
  4  1  1  0  0  0  0
  5 15  1  0  0  0  0
  6  1  1  0  0  0  0
  7  6  1  0  0  0  0
  8  1  1  0  0  0  0
  9  8  1  0  0  0  0
 10  1  1  0  0  0  0
 11  1  1  0  0  0  0
 12 11  1  0  0  0  0
 13  1  1  0  0  0  0
 14 13  1  0  0  0  0
 15  1  1  0  0  0  0
 16  6  1  0  0  0  0
 17 16  1  0  0  0  0
 18  8  1  0  0  0  0
 19 18  1  0  0  0  0
 20 10  1  0  0  0  0
 21 20  1  0  0  0  0
 22  5  1  0  0  0  0
 23 22  1  0  0  0  0
 24 22  1  0  0  0  0
 25 22  1  0  0  0  0
 26  3  1  0  0  0  0
 27 10  1  0  0  0  0
 28 27  4  0  0  0  0
 29 28  1  0  0  0  0
 30 28  4  0  0  0  0
 31 30  1  0  0  0  0
 32 30  4  0  0  0  0
 33 32  1  0  0  0  0
 34 26  4  0  0  0  0
 35 34  1  0  0  0  0
 36  3  1  0  0  0  0
 37 36  4  0  0  0  0
 38 37  1  0  0  0  0
 39 37  4  0  0  0  0
 40 39  1  0  0  0  0
 41 39  4  0  0  0  0
 42 41  1  0  0  0  0
 43 41  4  0  0  0  0
 44 43  1  0  0  0  0
 45 36  4  0  0  0  0
 46 45  1  0  0  0  0
 47  3  1  0  0  0  0
 48 47  4  0  0  0  0
 49 48  1  0  0  0  0
 50 48  4  0  0  0  0
 51 50  1  0  0  0  0
 52 50  4  0  0  0  0
 53 52  1  0  0  0  0
 54 52  4  0  0  0  0
 55 54  1  0  0  0  0
 56 47  4  0  0  0  0
 57 56  1  0  0  0  0
 58  4  1  0  0  0  0
 59 58  4  0  0  0  0
 60 59  1  0  0  0  0
 61 59  4  0  0  0  0
 62 61  1  0  0  0  0
 63 61  4  0  0  0  0
 64 63  1  0  0  0  0
 65 63  4  0  0  0  0
 66 65  1  0  0  0  0
 67 58  4  0  0  0  0
 68 67  1  0  0  0  0
 69  4  1  0  0  0  0
 70 69  4  0  0  0  0
 71 70  1  0  0  0  0
 72 70  4  0  0  0  0
 73 72  1  0  0  0  0
 74 72  4  0  0  0  0
 75 74  1  0  0  0  0
 76 74  4  0  0  0  0
 77 76  1  0  0  0  0
 78 69  4  0  0  0  0
 79 78  1  0  0  0  0
 80  4  1  0  0  0  0
 81 80  4  0  0  0  0
 82 81  1  0  0  0  0
 83 81  4  0  0  0  0
 84 83  1  0  0  0  0
 85 83  4  0  0  0  0
 86 85  1  0  0  0  0
 87 85  4  0  0  0  0
 88 87  1  0  0  0  0
 89 80  4  0  0  0  0
 90 89  1  0  0  0  0
  6 11  1  0  0  0  0
  6 15  1  0  0  0  0
  8 11  1  0  0  0  0
  8 13  1  0  0  0  0
 10 13  1  0  0  0  0
 10 15  1  0  0  0  0
 11 16  1  0  0  0  0
 11 18  1  0  0  0  0
 13 18  1  0  0  0  0
 13 20  1  0  0  0  0
 15 16  1  0  0  0  0
 15 20  1  0  0  0  0
 16 18  1  0  0  0  0
 16 20  1  0  0  0  0
 18 20  1  0  0  0  0
 26 27  4  0  0  0  0
 32 34  4  0  0  0  0
 43 45  4  0  0  0  0
 54 56  4  0  0  0  0
 65 67  4  0  0  0  0
 76 78  4  0  0  0  0
 87 89  4  0  0  0  0
M  END
$$$$
AWILAV

From CSD data. Using bond type 'Any'. No disordered atoms. Largest molecule.
133166  0  0  0  0  0  0  0  0999 V2000
    4.6988    8.1647    4.9815 P   0  0  0  0  0  0  0  0  0  0  0  0
    0.1712    2.8181    3.5927 P   0  0  0  0  0  0  0  0  0  0  0  0
   -0.5880    2.7794    4.6366 H   0  0  0  0  0  0  0  0  0  0  0  0
    2.2374    4.0278    1.4920 O   0  0  0  0  0  0  0  0  0  0  0  0
    2.8939    4.1579    1.0639 H   0  0  0  0  0  0  0  0  0  0  0  0
    6.0013    7.1711    5.2464 N   0  0  0  0  0  0  0  0  0  0  0  0
    4.8211    9.4922    5.9610 N   0  0  0  0  0  0  0  0  0  0  0  0
    0.9365    1.3577    3.7580 N   0  0  0  0  0  0  0  0  0  0  0  0
   -0.7399    2.8684    2.2258 N   0  0  0  0  0  0  0  0  0  0  0  0
    4.6056    8.7172    3.1493 C   0  0  0  0  0  0  0  0  0  0  0  0
    3.1126    8.1161    2.5662 C   0  0  0  0  0  0  0  0  0  0  0  0
    2.3204    7.3772    3.6011 C   0  0  0  0  0  0  0  0  0  0  0  0
    1.1688    4.2685    3.7731 C   0  0  0  0  0  0  0  0  0  0  0  0
    7.2814    7.7536    5.7598 C   0  0  0  0  0  0  0  0  0  0  0  0
    7.0163    8.5557    6.2946 H   0  0  0  0  0  0  0  0  0  0  0  0
    8.2172    8.2754    4.6730 C   0  0  0  0  0  0  0  0  0  0  0  0
    8.5072    7.5298    4.1063 H   0  0  0  0  0  0  0  0  0  0  0  0
    9.0004    8.6939    5.0897 H   0  0  0  0  0  0  0  0  0  0  0  0
    7.7456    8.9372    4.1265 H   0  0  0  0  0  0  0  0  0  0  0  0
    8.0284    6.8388    6.7306 C   0  0  0  0  0  0  0  0  0  0  0  0
    7.4107    6.5212    7.4223 H   0  0  0  0  0  0  0  0  0  0  0  0
    8.7605    7.3368    7.1504 H   0  0  0  0  0  0  0  0  0  0  0  0
    8.3933    6.0716    6.2409 H   0  0  0  0  0  0  0  0  0  0  0  0
    5.9119    5.7393    4.8239 C   0  0  0  0  0  0  0  0  0  0  0  0
    5.0250    5.6423    4.3732 H   0  0  0  0  0  0  0  0  0  0  0  0
    6.9597    5.3381    3.7804 C   0  0  0  0  0  0  0  0  0  0  0  0
    6.9696    5.9995    3.0575 H   0  0  0  0  0  0  0  0  0  0  0  0
    6.7356    4.4575    3.4150 H   0  0  0  0  0  0  0  0  0  0  0  0
    7.8438    5.3017    4.2020 H   0  0  0  0  0  0  0  0  0  0  0  0
    5.9038    4.7404    5.9803 C   0  0  0  0  0  0  0  0  0  0  0  0
    6.8249    4.5631    6.2661 H   0  0  0  0  0  0  0  0  0  0  0  0
    5.4860    3.9038    5.6871 H   0  0  0  0  0  0  0  0  0  0  0  0
    5.3956    5.1128    6.7309 H   0  0  0  0  0  0  0  0  0  0  0  0
    5.5853   10.7374    5.6425 C   0  0  0  0  0  0  0  0  0  0  0  0
    6.0765   10.5535    4.7910 H   0  0  0  0  0  0  0  0  0  0  0  0
    4.6860   11.9478    5.3656 C   0  0  0  0  0  0  0  0  0  0  0  0
    3.9574   11.6829    4.7658 H   0  0  0  0  0  0  0  0  0  0  0  0
    5.2138   12.6576    4.9454 H   0  0  0  0  0  0  0  0  0  0  0  0
    4.3116   12.2759    6.2090 H   0  0  0  0  0  0  0  0  0  0  0  0
    6.6459   11.1636    6.6680 C   0  0  0  0  0  0  0  0  0  0  0  0
    6.2034   11.5104    7.4709 H   0  0  0  0  0  0  0  0  0  0  0  0
    7.2133   11.8619    6.2795 H   0  0  0  0  0  0  0  0  0  0  0  0
    7.1979   10.3907    6.9071 H   0  0  0  0  0  0  0  0  0  0  0  0
    4.1575    9.2698    7.2879 C   0  0  0  0  0  0  0  0  0  0  0  0
    3.7390    8.3639    7.2259 H   0  0  0  0  0  0  0  0  0  0  0  0
    5.0974    9.1997    8.4870 C   0  0  0  0  0  0  0  0  0  0  0  0
    5.8388    8.5918    8.2848 H   0  0  0  0  0  0  0  0  0  0  0  0
    4.6068    8.8684    9.2682 H   0  0  0  0  0  0  0  0  0  0  0  0
    5.4509   10.0934    8.6775 H   0  0  0  0  0  0  0  0  0  0  0  0
    2.9986   10.2355    7.5287 C   0  0  0  0  0  0  0  0  0  0  0  0
    3.3508   11.1363    7.6857 H   0  0  0  0  0  0  0  0  0  0  0  0
    2.4871    9.9439    8.3117 H   0  0  0  0  0  0  0  0  0  0  0  0
    2.4138   10.2466    6.7426 H   0  0  0  0  0  0  0  0  0  0  0  0
    2.0373    1.0781    2.7912 C   0  0  0  0  0  0  0  0  0  0  0  0
    1.8330    1.6164    1.9735 H   0  0  0  0  0  0  0  0  0  0  0  0
    2.1055   -0.3752    2.3356 C   0  0  0  0  0  0  0  0  0  0  0  0
    2.3961   -0.9380    3.0827 H   0  0  0  0  0  0  0  0  0  0  0  0
    2.7446   -0.4569    1.5976 H   0  0  0  0  0  0  0  0  0  0  0  0
    1.2197   -0.6651    2.0339 H   0  0  0  0  0  0  0  0  0  0  0  0
    3.4224    1.5374    3.2711 C   0  0  0  0  0  0  0  0  0  0  0  0
    3.3372    2.3912    3.7439 H   0  0  0  0  0  0  0  0  0  0  0  0
    4.0148    1.6498    2.4987 H   0  0  0  0  0  0  0  0  0  0  0  0
    3.7977    0.8643    3.8764 H   0  0  0  0  0  0  0  0  0  0  0  0
    0.7505    0.5823    5.0191 C   0  0  0  0  0  0  0  0  0  0  0  0
    0.1360    1.1284    5.5881 H   0  0  0  0  0  0  0  0  0  0  0  0
    0.0471   -0.7579    4.8105 C   0  0  0  0  0  0  0  0  0  0  0  0
   -0.7720   -0.6190    4.2892 H   0  0  0  0  0  0  0  0  0  0  0  0
   -0.1813   -1.1460    5.6804 H   0  0  0  0  0  0  0  0  0  0  0  0
    0.6428   -1.3677    4.3262 H   0  0  0  0  0  0  0  0  0  0  0  0
    2.0227    0.3903    5.8418 C   0  0  0  0  0  0  0  0  0  0  0  0
    2.6183   -0.2375    5.3817 H   0  0  0  0  0  0  0  0  0  0  0  0
    1.7907    0.0325    6.7242 H   0  0  0  0  0  0  0  0  0  0  0  0
    2.4764    1.2525    5.9489 H   0  0  0  0  0  0  0  0  0  0  0  0
   -1.8380    1.8853    1.9771 C   0  0  0  0  0  0  0  0  0  0  0  0
   -2.4023    2.2825    1.2535 H   0  0  0  0  0  0  0  0  0  0  0  0
   -1.3458    0.5491    1.4368 C   0  0  0  0  0  0  0  0  0  0  0  0
   -0.7381    0.7047    0.6830 H   0  0  0  0  0  0  0  0  0  0  0  0
   -2.1113    0.0166    1.1344 H   0  0  0  0  0  0  0  0  0  0  0  0
   -0.8708    0.0658    2.1446 H   0  0  0  0  0  0  0  0  0  0  0  0
   -2.7608    1.7137    3.1773 C   0  0  0  0  0  0  0  0  0  0  0  0
   -2.2805    1.2510    3.8949 H   0  0  0  0  0  0  0  0  0  0  0  0
   -3.5434    1.1858    2.9149 H   0  0  0  0  0  0  0  0  0  0  0  0
   -3.0526    2.5945    3.4938 H   0  0  0  0  0  0  0  0  0  0  0  0
   -0.7278    4.0233    1.2802 C   0  0  0  0  0  0  0  0  0  0  0  0
    0.0200    4.6268    1.5573 H   0  0  0  0  0  0  0  0  0  0  0  0
   -0.4182    3.5381   -0.1356 C   0  0  0  0  0  0  0  0  0  0  0  0
    0.4213    3.0328   -0.1309 H   0  0  0  0  0  0  0  0  0  0  0  0
   -0.3326    4.3097   -0.7333 H   0  0  0  0  0  0  0  0  0  0  0  0
   -1.1455    2.9606   -0.4497 H   0  0  0  0  0  0  0  0  0  0  0  0
   -2.0171    4.8365    1.3559 C   0  0  0  0  0  0  0  0  0  0  0  0
   -2.7795    4.2610    1.1361 H   0  0  0  0  0  0  0  0  0  0  0  0
   -1.9732    5.5783    0.7182 H   0  0  0  0  0  0  0  0  0  0  0  0
   -2.1258    5.1911    2.2621 H   0  0  0  0  0  0  0  0  0  0  0  0
    3.3470    9.8327    2.8009 B   0  0  0  0  0  0  0  0  0  0  0  0
    2.8473   10.2593    3.6046 H   0  0  0  0  0  0  0  0  0  0  0  0
    5.0265   10.1803    2.3260 B   0  0  0  0  0  0  0  0  0  0  0  0
    5.5662   10.9365    2.8561 H   0  0  0  0  0  0  0  0  0  0  0  0
    5.7877    8.6409    1.8884 B   0  0  0  0  0  0  0  0  0  0  0  0
    6.8102    8.4207    2.1597 H   0  0  0  0  0  0  0  0  0  0  0  0
    4.5762    7.3611    2.0710 B   0  0  0  0  0  0  0  0  0  0  0  0
    4.7999    6.4053    2.4433 H   0  0  0  0  0  0  0  0  0  0  0  0
    2.4823    9.1862    1.3928 B   0  0  0  0  0  0  0  0  0  0  0  0
    1.4330    9.2934    1.3609 H   0  0  0  0  0  0  0  0  0  0  0  0
    3.6842   10.4918    1.2004 B   0  0  0  0  0  0  0  0  0  0  0  0
    3.3782   11.5240    0.9683 H   0  0  0  0  0  0  0  0  0  0  0  0
    5.2033    9.7482    0.6194 B   0  0  0  0  0  0  0  0  0  0  0  0
    5.9052   10.2735    0.0034 H   0  0  0  0  0  0  0  0  0  0  0  0
    4.9282    7.9976    0.4707 B   0  0  0  0  0  0  0  0  0  0  0  0
    5.4396    7.3640   -0.2635 H   0  0  0  0  0  0  0  0  0  0  0  0
    3.2459    7.6536    0.9319 B   0  0  0  0  0  0  0  0  0  0  0  0
    2.6764    6.8239    0.6142 H   0  0  0  0  0  0  0  0  0  0  0  0
    3.6303    9.1410    0.0337 B   0  0  0  0  0  0  0  0  0  0  0  0
    3.2855    9.2814   -0.9968 H   0  0  0  0  0  0  0  0  0  0  0  0
    2.3312    4.4807    2.7670 B   0  0  0  0  0  0  0  0  0  0  0  0
    3.2983    4.8696    3.0928 H   0  0  0  0  0  0  0  0  0  0  0  0
    2.9686    7.2516    5.0234 B   0  0  0  0  0  0  0  0  0  0  0  0
    1.4618    8.2338    4.7423 B   0  0  0  0  0  0  0  0  0  0  0  0
    1.3072    9.3006    4.7608 H   0  0  0  0  0  0  0  0  0  0  0  0
    0.8225    7.0599    3.4965 B   0  0  0  0  0  0  0  0  0  0  0  0
    0.2114    7.2852    2.6111 H   0  0  0  0  0  0  0  0  0  0  0  0
    1.5442    4.3885    5.3597 B   0  0  0  0  0  0  0  0  0  0  0  0
    1.4979    3.4966    5.9825 H   0  0  0  0  0  0  0  0  0  0  0  0
    2.8007    4.9512    5.2374 H   0  0  0  0  0  0  0  0  0  0  0  0
    2.5712    5.7826    6.0880 B   0  0  0  0  0  0  0  0  0  0  0  0
    3.1548    5.5421    6.9658 H   0  0  0  0  0  0  0  0  0  0  0  0
    1.6262    7.2888    6.2010 B   0  0  0  0  0  0  0  0  0  0  0  0
    1.6510    7.8012    7.1806 H   0  0  0  0  0  0  0  0  0  0  0  0
    0.1913    7.0661    5.1446 B   0  0  0  0  0  0  0  0  0  0  0  0
   -0.8055    7.4443    5.3884 H   0  0  0  0  0  0  0  0  0  0  0  0
    0.1906    5.4050    4.4735 B   0  0  0  0  0  0  0  0  0  0  0  0
   -0.8554    5.0823    4.4554 H   0  0  0  0  0  0  0  0  0  0  0  0
    0.7858    5.7514    6.1964 B   0  0  0  0  0  0  0  0  0  0  0  0
    0.2395    5.5154    7.1219 H   0  0  0  0  0  0  0  0  0  0  0  0
  1  6  1  0  0  0  0
  2  3  1  0  0  0  0
  4  5  1  0  0  0  0
  6 14  1  0  0  0  0
  7  1  1  0  0  0  0
  8  2  1  0  0  0  0
  9  2  1  0  0  0  0
 10  1  1  0  0  0  0
 11 10  1  0  0  0  0
 12 11  1  0  0  0  0
 13  2  1  0  0  0  0
 14 15  1  0  0  0  0
 16 14  1  0  0  0  0
 17 16  1  0  0  0  0
 18 16  1  0  0  0  0
 19 16  1  0  0  0  0
 20 14  1  0  0  0  0
 21 20  1  0  0  0  0
 22 20  1  0  0  0  0
 23 20  1  0  0  0  0
 24  6  1  0  0  0  0
 25 24  1  0  0  0  0
 26 24  1  0  0  0  0
 27 26  1  0  0  0  0
 28 26  1  0  0  0  0
 29 26  1  0  0  0  0
 30 24  1  0  0  0  0
 31 30  1  0  0  0  0
 32 30  1  0  0  0  0
 33 30  1  0  0  0  0
 34  7  1  0  0  0  0
 35 34  1  0  0  0  0
 36 34  1  0  0  0  0
 37 36  1  0  0  0  0
 38 36  1  0  0  0  0
 39 36  1  0  0  0  0
 40 34  1  0  0  0  0
 41 40  1  0  0  0  0
 42 40  1  0  0  0  0
 43 40  1  0  0  0  0
 44  7  1  0  0  0  0
 45 44  1  0  0  0  0
 46 44  1  0  0  0  0
 47 46  1  0  0  0  0
 48 46  1  0  0  0  0
 49 46  1  0  0  0  0
 50 44  1  0  0  0  0
 51 50  1  0  0  0  0
 52 50  1  0  0  0  0
 53 50  1  0  0  0  0
 54  8  1  0  0  0  0
 55 54  1  0  0  0  0
 56 54  1  0  0  0  0
 57 56  1  0  0  0  0
 58 56  1  0  0  0  0
 59 56  1  0  0  0  0
 60 54  1  0  0  0  0
 61 60  1  0  0  0  0
 62 60  1  0  0  0  0
 63 60  1  0  0  0  0
 64  8  1  0  0  0  0
 65 64  1  0  0  0  0
 66 64  1  0  0  0  0
 67 66  1  0  0  0  0
 68 66  1  0  0  0  0
 69 66  1  0  0  0  0
 70 64  1  0  0  0  0
 71 70  1  0  0  0  0
 72 70  1  0  0  0  0
 73 70  1  0  0  0  0
 74  9  1  0  0  0  0
 75 74  1  0  0  0  0
 76 74  1  0  0  0  0
 77 76  1  0  0  0  0
 78 76  1  0  0  0  0
 79 76  1  0  0  0  0
 80 74  1  0  0  0  0
 81 80  1  0  0  0  0
 82 80  1  0  0  0  0
 83 80  1  0  0  0  0
 84  9  1  0  0  0  0
 85 84  1  0  0  0  0
 86 84  1  0  0  0  0
 87 86  1  0  0  0  0
 88 86  1  0  0  0  0
 89 86  1  0  0  0  0
 90 84  1  0  0  0  0
 91 90  1  0  0  0  0
 92 90  1  0  0  0  0
 93 90  1  0  0  0  0
 94 10  1  0  0  0  0
 95 94  1  0  0  0  0
 96 10  1  0  0  0  0
 97 96  1  0  0  0  0
 98 10  1  0  0  0  0
 99 98  1  0  0  0  0
100 10  1  0  0  0  0
101100  1  0  0  0  0
102 11  1  0  0  0  0
103102  1  0  0  0  0
104 94  1  0  0  0  0
105104  1  0  0  0  0
106 96  1  0  0  0  0
107106  1  0  0  0  0
108 98  1  0  0  0  0
109108  1  0  0  0  0
110 11  1  0  0  0  0
111110  1  0  0  0  0
112102  1  0  0  0  0
113112  1  0  0  0  0
114  4  1  0  0  0  0
115114  1  0  0  0  0
116  1  1  0  0  0  0
117 12  1  0  0  0  0
118117  1  0  0  0  0
119 12  1  0  0  0  0
120119  1  0  0  0  0
121 13  1  0  0  0  0
122121  1  0  0  0  0
123121  1  0  0  0  0
124116  1  0  0  0  0
125124  1  0  0  0  0
126116  1  0  0  0  0
127126  1  0  0  0  0
128117  1  0  0  0  0
129128  1  0  0  0  0
130 13  1  0  0  0  0
131130  1  0  0  0  0
132121  1  0  0  0  0
133132  1  0  0  0  0
 11 94  1  0  0  0  0
 11100  1  0  0  0  0
 12116  1  0  0  0  0
 13114  1  0  0  0  0
 94 96  1  0  0  0  0
 94102  1  0  0  0  0
 96 98  1  0  0  0  0
 96104  1  0  0  0  0
 98100  1  0  0  0  0
 98106  1  0  0  0  0
100108  1  0  0  0  0
100110  1  0  0  0  0
102104  1  0  0  0  0
102110  1  0  0  0  0
104106  1  0  0  0  0
104112  1  0  0  0  0
106108  1  0  0  0  0
106112  1  0  0  0  0
108110  1  0  0  0  0
108112  1  0  0  0  0
110112  1  0  0  0  0
116117  1  0  0  0  0
117119  1  0  0  0  0
117126  1  0  0  0  0
119128  1  0  0  0  0
119130  1  0  0  0  0
121124  1  0  0  0  0
121130  1  0  0  0  0
123124  1  0  0  0  0
124126  1  0  0  0  0
124132  1  0  0  0  0
126128  1  0  0  0  0
126132  1  0  0  0  0
128130  1  0  0  0  0
128132  1  0  0  0  0
130132  1  0  0  0  0
M  END
$$$$
AWILEZ

From CSD data. Using bond type 'Any'. No disordered atoms. Largest molecule.
133166  0  0  0  0  0  0  0  0999 V2000
   15.7308    1.9581   15.5641 P   0  0  0  0  0  0  0  0  0  0  0  0
    9.6562    0.0828   18.5059 P   0  0  0  0  0  0  0  0  0  0  0  0
    9.8133   -0.0396   19.8292 H   0  0  0  0  0  0  0  0  0  0  0  0
   10.2186    0.4263   15.5630 O   0  0  0  0  0  0  0  0  0  0  0  0
   10.3018    0.0297   14.8264 H   0  0  0  0  0  0  0  0  0  0  0  0
   14.7350    2.6921   14.1096 C   0  0  0  0  0  0  0  0  0  0  0  0
   13.2044    3.0788   14.7609 C   0  0  0  0  0  0  0  0  0  0  0  0
   13.0812    2.7702   16.2291 C   0  0  0  0  0  0  0  0  0  0  0  0
   11.1282    0.7734   17.8618 C   0  0  0  0  0  0  0  0  0  0  0  0
   17.0972    2.8691   15.7781 N   0  0  0  0  0  0  0  0  0  0  0  0
   17.9333    3.4309   14.6850 C   0  0  0  0  0  0  0  0  0  0  0  0
   17.5496    3.0818   13.8294 H   0  0  0  0  0  0  0  0  0  0  0  0
   17.8669    4.9589   14.5923 C   0  0  0  0  0  0  0  0  0  0  0  0
   16.9379    5.2527   14.7048 H   0  0  0  0  0  0  0  0  0  0  0  0
   18.1965    5.2487   13.7169 H   0  0  0  0  0  0  0  0  0  0  0  0
   18.4209    5.3536   15.2990 H   0  0  0  0  0  0  0  0  0  0  0  0
   19.4018    3.0175   14.6936 C   0  0  0  0  0  0  0  0  0  0  0  0
   19.8599    3.4616   15.4362 H   0  0  0  0  0  0  0  0  0  0  0  0
   19.8203    3.2796   13.8474 H   0  0  0  0  0  0  0  0  0  0  0  0
   19.4683    2.0463   14.8039 H   0  0  0  0  0  0  0  0  0  0  0  0
   17.5197    2.9710   17.2295 C   0  0  0  0  0  0  0  0  0  0  0  0
   16.7311    2.6377   17.7498 H   0  0  0  0  0  0  0  0  0  0  0  0
   18.6687    2.0740   17.6440 C   0  0  0  0  0  0  0  0  0  0  0  0
   18.4825    1.1542   17.3627 H   0  0  0  0  0  0  0  0  0  0  0  0
   18.7686    2.1036   18.6185 H   0  0  0  0  0  0  0  0  0  0  0  0
   19.4947    2.3845   17.2209 H   0  0  0  0  0  0  0  0  0  0  0  0
   17.7283    4.3912   17.7093 C   0  0  0  0  0  0  0  0  0  0  0  0
   18.5485    4.7513   17.3154 H   0  0  0  0  0  0  0  0  0  0  0  0
   17.8048    4.3972   18.6860 H   0  0  0  0  0  0  0  0  0  0  0  0
   16.9643    4.9431   17.4370 H   0  0  0  0  0  0  0  0  0  0  0  0
    8.3312    1.0236   18.2775 N   0  0  0  0  0  0  0  0  0  0  0  0
    7.2113    0.7566   19.2311 C   0  0  0  0  0  0  0  0  0  0  0  0
    7.3270   -0.1889   19.5322 H   0  0  0  0  0  0  0  0  0  0  0  0
    7.2865    1.6101   20.4925 C   0  0  0  0  0  0  0  0  0  0  0  0
    8.2027    1.6062   20.8352 H   0  0  0  0  0  0  0  0  0  0  0  0
    6.6801    1.2442   21.1705 H   0  0  0  0  0  0  0  0  0  0  0  0
    7.0234    2.5299   20.2816 H   0  0  0  0  0  0  0  0  0  0  0  0
    5.8343    0.8239   18.5813 C   0  0  0  0  0  0  0  0  0  0  0  0
    5.6240    1.7545   18.3597 H   0  0  0  0  0  0  0  0  0  0  0  0
    5.1619    0.4747   19.2036 H   0  0  0  0  0  0  0  0  0  0  0  0
    5.8308    0.2848   17.7633 H   0  0  0  0  0  0  0  0  0  0  0  0
    8.3633    2.1828   17.3496 C   0  0  0  0  0  0  0  0  0  0  0  0
    9.3073    2.2461   17.0274 H   0  0  0  0  0  0  0  0  0  0  0  0
    7.5092    1.9909   16.0995 C   0  0  0  0  0  0  0  0  0  0  0  0
    7.6614    1.0939   15.7356 H   0  0  0  0  0  0  0  0  0  0  0  0
    7.7539    2.6615   15.4295 H   0  0  0  0  0  0  0  0  0  0  0  0
    6.5613    2.0938   16.3320 H   0  0  0  0  0  0  0  0  0  0  0  0
    8.0593    3.5219   18.0014 C   0  0  0  0  0  0  0  0  0  0  0  0
    7.1114    3.5535   18.2561 H   0  0  0  0  0  0  0  0  0  0  0  0
    8.2511    4.2449   17.3672 H   0  0  0  0  0  0  0  0  0  0  0  0
    8.6164    3.6307   18.8008 H   0  0  0  0  0  0  0  0  0  0  0  0
    9.2958   -1.4420   17.9568 N   0  0  0  0  0  0  0  0  0  0  0  0
    8.2159   -1.7209   16.9643 C   0  0  0  0  0  0  0  0  0  0  0  0
    7.8463   -0.8357   16.6785 H   0  0  0  0  0  0  0  0  0  0  0  0
    7.0542   -2.5022   17.6057 C   0  0  0  0  0  0  0  0  0  0  0  0
    7.3534   -3.4012   17.8398 H   0  0  0  0  0  0  0  0  0  0  0  0
    6.3105   -2.5566   16.9711 H   0  0  0  0  0  0  0  0  0  0  0  0
    6.7593   -2.0324   18.4159 H   0  0  0  0  0  0  0  0  0  0  0  0
    8.7026   -2.4221   15.7063 C   0  0  0  0  0  0  0  0  0  0  0  0
    9.4481   -1.9177   15.3192 H   0  0  0  0  0  0  0  0  0  0  0  0
    7.9695   -2.4735   15.0559 H   0  0  0  0  0  0  0  0  0  0  0  0
    9.0036   -3.3281   15.9314 H   0  0  0  0  0  0  0  0  0  0  0  0
   10.1099   -2.6624   18.3439 C   0  0  0  0  0  0  0  0  0  0  0  0
    9.5933   -3.4556   18.0221 H   0  0  0  0  0  0  0  0  0  0  0  0
   11.4644   -2.7317   17.6598 C   0  0  0  0  0  0  0  0  0  0  0  0
   11.3491   -2.6239   16.6943 H   0  0  0  0  0  0  0  0  0  0  0  0
   11.8816   -3.6000   17.8443 H   0  0  0  0  0  0  0  0  0  0  0  0
   12.0400   -2.0156   18.0018 H   0  0  0  0  0  0  0  0  0  0  0  0
   10.2314   -2.8227   19.8517 C   0  0  0  0  0  0  0  0  0  0  0  0
   10.7639   -2.0849   20.2163 H   0  0  0  0  0  0  0  0  0  0  0  0
   10.6715   -3.6742   20.0543 H   0  0  0  0  0  0  0  0  0  0  0  0
    9.3381   -2.8128   20.2523 H   0  0  0  0  0  0  0  0  0  0  0  0
   16.0138    0.3748   15.1459 N   0  0  0  0  0  0  0  0  0  0  0  0
   17.0158    0.0682   14.0747 C   0  0  0  0  0  0  0  0  0  0  0  0
   17.2327    0.9445   13.6426 H   0  0  0  0  0  0  0  0  0  0  0  0
   16.5229   -0.8209   12.9697 C   0  0  0  0  0  0  0  0  0  0  0  0
   16.6255   -1.7585   13.2330 H   0  0  0  0  0  0  0  0  0  0  0  0
   17.0435   -0.6528   12.1573 H   0  0  0  0  0  0  0  0  0  0  0  0
   15.5781   -0.6310   12.7941 H   0  0  0  0  0  0  0  0  0  0  0  0
   18.3514   -0.4737   14.6103 C   0  0  0  0  0  0  0  0  0  0  0  0
   18.6321    0.0584   15.3822 H   0  0  0  0  0  0  0  0  0  0  0  0
   19.0326   -0.4164   13.9059 H   0  0  0  0  0  0  0  0  0  0  0  0
   18.2405   -1.4094   14.8804 H   0  0  0  0  0  0  0  0  0  0  0  0
   15.4109   -0.7250   15.9786 C   0  0  0  0  0  0  0  0  0  0  0  0
   14.7068   -0.2868   16.5412 H   0  0  0  0  0  0  0  0  0  0  0  0
   14.6822   -1.8060   15.1729 C   0  0  0  0  0  0  0  0  0  0  0  0
   14.1347   -1.3836   14.4798 H   0  0  0  0  0  0  0  0  0  0  0  0
   14.1083   -2.3282   15.7716 H   0  0  0  0  0  0  0  0  0  0  0  0
   15.3405   -2.3984   14.7521 H   0  0  0  0  0  0  0  0  0  0  0  0
   16.3870   -1.3540   16.9508 C   0  0  0  0  0  0  0  0  0  0  0  0
   17.0963   -1.8139   16.4535 H   0  0  0  0  0  0  0  0  0  0  0  0
   15.9126   -1.9998   17.5180 H   0  0  0  0  0  0  0  0  0  0  0  0
   16.7839   -0.6557   17.5135 H   0  0  0  0  0  0  0  0  0  0  0  0
   14.3090    4.3517   14.3022 B   0  0  0  0  0  0  0  0  0  0  0  0
   14.8168    5.0331   15.0312 H   0  0  0  0  0  0  0  0  0  0  0  0
   15.1262    3.7850   12.8225 B   0  0  0  0  0  0  0  0  0  0  0  0
   16.1678    4.1015   12.5623 H   0  0  0  0  0  0  0  0  0  0  0  0
   14.5581    2.1541   12.4858 B   0  0  0  0  0  0  0  0  0  0  0  0
   15.2261    1.3965   12.0020 H   0  0  0  0  0  0  0  0  0  0  0  0
   13.3681    1.7051   13.7337 B   0  0  0  0  0  0  0  0  0  0  0  0
   13.2590    0.6488   14.0882 H   0  0  0  0  0  0  0  0  0  0  0  0
   12.5615    4.4516   13.9734 B   0  0  0  0  0  0  0  0  0  0  0  0
   11.9124    5.2131   14.4753 H   0  0  0  0  0  0  0  0  0  0  0  0
   13.7484    4.8927   12.7154 B   0  0  0  0  0  0  0  0  0  0  0  0
   13.8751    5.9539   12.3801 H   0  0  0  0  0  0  0  0  0  0  0  0
   13.8931    3.5328   11.5991 B   0  0  0  0  0  0  0  0  0  0  0  0
   14.1127    3.6930   10.5121 H   0  0  0  0  0  0  0  0  0  0  0  0
   12.8022    2.2302   12.1550 B   0  0  0  0  0  0  0  0  0  0  0  0
   12.3041    1.5191   11.4461 H   0  0  0  0  0  0  0  0  0  0  0  0
   11.9868    2.8157   13.6156 B   0  0  0  0  0  0  0  0  0  0  0  0
   10.9487    2.4963   13.8834 H   0  0  0  0  0  0  0  0  0  0  0  0
   12.3094    3.9294   12.2833 B   0  0  0  0  0  0  0  0  0  0  0  0
   11.4856    4.3477   11.6531 H   0  0  0  0  0  0  0  0  0  0  0  0
   11.2937    0.4342   16.3612 B   0  0  0  0  0  0  0  0  0  0  0  0
   12.1941    0.0593   16.0169 H   0  0  0  0  0  0  0  0  0  0  0  0
   14.3248    2.1640   16.9468 B   0  0  0  0  0  0  0  0  0  0  0  0
   13.7233    3.8275   17.3494 B   0  0  0  0  0  0  0  0  0  0  0  0
   14.1963    4.8244   17.1601 H   0  0  0  0  0  0  0  0  0  0  0  0
   11.9824    3.3172   17.1316 B   0  0  0  0  0  0  0  0  0  0  0  0
   11.1511    3.9956   16.7415 H   0  0  0  0  0  0  0  0  0  0  0  0
   12.3815    0.5113   18.8654 B   0  0  0  0  0  0  0  0  0  0  0  0
   12.2997   -0.2670   19.6987 H   0  0  0  0  0  0  0  0  0  0  0  0
   13.2810    0.2868   17.9006 H   0  0  0  0  0  0  0  0  0  0  0  0
   14.1237    1.0365   18.4220 B   0  0  0  0  0  0  0  0  0  0  0  0
   15.0060    0.3956   18.7828 H   0  0  0  0  0  0  0  0  0  0  0  0
   14.3341    2.7920   18.6095 B   0  0  0  0  0  0  0  0  0  0  0  0
   15.2613    3.1619   19.1181 H   0  0  0  0  0  0  0  0  0  0  0  0
   12.6777    3.4863   18.7481 B   0  0  0  0  0  0  0  0  0  0  0  0
   12.3569    4.3586   19.3746 H   0  0  0  0  0  0  0  0  0  0  0  0
   11.4763    2.1531   18.6930 B   0  0  0  0  0  0  0  0  0  0  0  0
   10.7067    2.4231   19.4039 H   0  0  0  0  0  0  0  0  0  0  0  0
   13.1155    1.9642   19.5524 B   0  0  0  0  0  0  0  0  0  0  0  0
   13.2414    1.9246   20.6642 H   0  0  0  0  0  0  0  0  0  0  0  0
  1  6  1  0  0  0  0
  2  3  1  0  0  0  0
  4  5  1  0  0  0  0
  6  7  1  0  0  0  0
  7  8  1  0  0  0  0
  8116  1  0  0  0  0
  9  2  1  0  0  0  0
 10  1  1  0  0  0  0
 11 10  1  0  0  0  0
 12 11  1  0  0  0  0
 13 11  1  0  0  0  0
 14 13  1  0  0  0  0
 15 13  1  0  0  0  0
 16 13  1  0  0  0  0
 17 11  1  0  0  0  0
 18 17  1  0  0  0  0
 19 17  1  0  0  0  0
 20 17  1  0  0  0  0
 21 10  1  0  0  0  0
 22 21  1  0  0  0  0
 23 21  1  0  0  0  0
 24 23  1  0  0  0  0
 25 23  1  0  0  0  0
 26 23  1  0  0  0  0
 27 21  1  0  0  0  0
 28 27  1  0  0  0  0
 29 27  1  0  0  0  0
 30 27  1  0  0  0  0
 31  2  1  0  0  0  0
 32 31  1  0  0  0  0
 33 32  1  0  0  0  0
 34 32  1  0  0  0  0
 35 34  1  0  0  0  0
 36 34  1  0  0  0  0
 37 34  1  0  0  0  0
 38 32  1  0  0  0  0
 39 38  1  0  0  0  0
 40 38  1  0  0  0  0
 41 38  1  0  0  0  0
 42 31  1  0  0  0  0
 43 42  1  0  0  0  0
 44 42  1  0  0  0  0
 45 44  1  0  0  0  0
 46 44  1  0  0  0  0
 47 44  1  0  0  0  0
 48 42  1  0  0  0  0
 49 48  1  0  0  0  0
 50 48  1  0  0  0  0
 51 48  1  0  0  0  0
 52  2  1  0  0  0  0
 53 52  1  0  0  0  0
 54 53  1  0  0  0  0
 55 53  1  0  0  0  0
 56 55  1  0  0  0  0
 57 55  1  0  0  0  0
 58 55  1  0  0  0  0
 59 53  1  0  0  0  0
 60 59  1  0  0  0  0
 61 59  1  0  0  0  0
 62 59  1  0  0  0  0
 63 52  1  0  0  0  0
 64 63  1  0  0  0  0
 65 63  1  0  0  0  0
 66 65  1  0  0  0  0
 67 65  1  0  0  0  0
 68 65  1  0  0  0  0
 69 63  1  0  0  0  0
 70 69  1  0  0  0  0
 71 69  1  0  0  0  0
 72 69  1  0  0  0  0
 73  1  1  0  0  0  0
 74 73  1  0  0  0  0
 75 74  1  0  0  0  0
 76 74  1  0  0  0  0
 77 76  1  0  0  0  0
 78 76  1  0  0  0  0
 79 76  1  0  0  0  0
 80 74  1  0  0  0  0
 81 80  1  0  0  0  0
 82 80  1  0  0  0  0
 83 80  1  0  0  0  0
 84 73  1  0  0  0  0
 85 84  1  0  0  0  0
 86 84  1  0  0  0  0
 87 86  1  0  0  0  0
 88 86  1  0  0  0  0
 89 86  1  0  0  0  0
 90 84  1  0  0  0  0
 91 90  1  0  0  0  0
 92 90  1  0  0  0  0
 93 90  1  0  0  0  0
 94  6  1  0  0  0  0
 95 94  1  0  0  0  0
 96  6  1  0  0  0  0
 97 96  1  0  0  0  0
 98  6  1  0  0  0  0
 99 98  1  0  0  0  0
100  6  1  0  0  0  0
101100  1  0  0  0  0
102  7  1  0  0  0  0
103102  1  0  0  0  0
104 94  1  0  0  0  0
105104  1  0  0  0  0
106 96  1  0  0  0  0
107106  1  0  0  0  0
108 98  1  0  0  0  0
109108  1  0  0  0  0
110  7  1  0  0  0  0
111110  1  0  0  0  0
112102  1  0  0  0  0
113112  1  0  0  0  0
114  4  1  0  0  0  0
115114  1  0  0  0  0
116  1  1  0  0  0  0
117  8  1  0  0  0  0
118117  1  0  0  0  0
119  8  1  0  0  0  0
120119  1  0  0  0  0
121  9  1  0  0  0  0
122121  1  0  0  0  0
123121  1  0  0  0  0
124116  1  0  0  0  0
125124  1  0  0  0  0
126116  1  0  0  0  0
127126  1  0  0  0  0
128117  1  0  0  0  0
129128  1  0  0  0  0
130  9  1  0  0  0  0
131130  1  0  0  0  0
132121  1  0  0  0  0
133132  1  0  0  0  0
  7 94  1  0  0  0  0
  7100  1  0  0  0  0
  9114  1  0  0  0  0
 94 96  1  0  0  0  0
 94102  1  0  0  0  0
 96 98  1  0  0  0  0
 96104  1  0  0  0  0
 98100  1  0  0  0  0
 98106  1  0  0  0  0
100108  1  0  0  0  0
100110  1  0  0  0  0
102104  1  0  0  0  0
102110  1  0  0  0  0
104106  1  0  0  0  0
104112  1  0  0  0  0
106108  1  0  0  0  0
106112  1  0  0  0  0
108110  1  0  0  0  0
108112  1  0  0  0  0
110112  1  0  0  0  0
116117  1  0  0  0  0
117119  1  0  0  0  0
117126  1  0  0  0  0
119128  1  0  0  0  0
119130  1  0  0  0  0
121124  1  0  0  0  0
121130  1  0  0  0  0
123124  1  0  0  0  0
124126  1  0  0  0  0
124132  1  0  0  0  0
126128  1  0  0  0  0
126132  1  0  0  0  0
128130  1  0  0  0  0
128132  1  0  0  0  0
130132  1  0  0  0  0
M  END
$$$$
AXISUY

From CSD data. Using bond type 'Any'. No disordered atoms. Largest molecule.
 76 91  0  0  0  0  0  0  0  0999 V2000
    4.1928    3.4135   10.6408 P   0  3  0  0  0  0  0  0  0  0  0  0
   -0.0895    3.4868    7.6571 P   0  3  0  0  0  0  0  0  0  0  0  0
    1.0806    3.4058    7.0820 H   0  0  0  0  0  0  0  0  0  0  0  0
    4.8027    4.8730   10.8384 O   0  0  0  0  0  0  0  0  0  0  0  0
    2.4934    3.3669   11.0496 C   0  0  0  0  0  0  0  0  0  0  0  0
    0.1024    3.1719    9.3661 C   0  0  0  0  0  0  0  0  0  0  0  0
    5.2592    2.2503   11.6226 C   0  0  0  0  0  0  0  0  0  0  0  0
    6.7298    2.7146   11.5756 C   0  0  0  0  0  0  0  0  0  0  0  0
    7.0451    2.7075   10.6477 H   0  0  0  0  0  0  0  0  0  0  0  0
    7.2812    2.1081   12.1127 H   0  0  0  0  0  0  0  0  0  0  0  0
    6.7972    3.6232   11.9365 H   0  0  0  0  0  0  0  0  0  0  0  0
    5.1478    0.8193   11.0665 C   0  0  0  0  0  0  0  0  0  0  0  0
    4.2030    0.5695   10.9943 H   0  0  0  0  0  0  0  0  0  0  0  0
    5.6049    0.1976   11.6706 H   0  0  0  0  0  0  0  0  0  0  0  0
    5.5648    0.7799   10.1805 H   0  0  0  0  0  0  0  0  0  0  0  0
    4.8350    2.2332   13.1059 C   0  0  0  0  0  0  0  0  0  0  0  0
    4.9013    3.1385   13.4752 H   0  0  0  0  0  0  0  0  0  0  0  0
    5.4246    1.6319   13.6073 H   0  0  0  0  0  0  0  0  0  0  0  0
    3.9098    1.9181   13.1776 H   0  0  0  0  0  0  0  0  0  0  0  0
    4.4256    3.2375    8.8106 C   0  0  0  0  0  0  0  0  0  0  0  0
    3.6825    2.0033    8.2807 C   0  0  0  0  0  0  0  0  0  0  0  0
    4.1001    1.1921    8.6384 H   0  0  0  0  0  0  0  0  0  0  0  0
    3.7283    1.9898    7.3019 H   0  0  0  0  0  0  0  0  0  0  0  0
    2.7450    2.0401    8.5635 H   0  0  0  0  0  0  0  0  0  0  0  0
    3.8038    4.4840    8.1609 C   0  0  0  0  0  0  0  0  0  0  0  0
    2.9039    4.6262    8.5220 H   0  0  0  0  0  0  0  0  0  0  0  0
    3.7498    4.3544    7.1910 H   0  0  0  0  0  0  0  0  0  0  0  0
    4.3612    5.2662    8.3554 H   0  0  0  0  0  0  0  0  0  0  0  0
    5.8971    3.1696    8.3787 C   0  0  0  0  0  0  0  0  0  0  0  0
    6.3870    3.9237    8.7682 H   0  0  0  0  0  0  0  0  0  0  0  0
    5.9531    3.2135    7.4013 H   0  0  0  0  0  0  0  0  0  0  0  0
    6.2908    2.3281    8.6909 H   0  0  0  0  0  0  0  0  0  0  0  0
    4.6958    5.6651   12.0476 C   0  0  0  0  0  0  0  0  0  0  0  0
    5.0989    6.5457   11.8979 H   0  0  0  0  0  0  0  0  0  0  0  0
    5.1655    5.2109   12.7781 H   0  0  0  0  0  0  0  0  0  0  0  0
    3.7512    5.7740   12.2844 H   0  0  0  0  0  0  0  0  0  0  0  0
   -0.6747    5.1739    7.2735 C   0  0  0  0  0  0  0  0  0  0  0  0
   -1.5206    5.3332    7.7823 H   0  0  0  0  0  0  0  0  0  0  0  0
    0.3515    6.2266    7.7112 C   0  0  0  0  0  0  0  0  0  0  0  0
    0.5518    6.1114    8.6636 H   0  0  0  0  0  0  0  0  0  0  0  0
   -0.0154    7.1228    7.5607 H   0  0  0  0  0  0  0  0  0  0  0  0
    1.1737    6.1182    7.1891 H   0  0  0  0  0  0  0  0  0  0  0  0
   -0.9786    5.3364    5.7776 C   0  0  0  0  0  0  0  0  0  0  0  0
   -0.1866    5.0916    5.2548 H   0  0  0  0  0  0  0  0  0  0  0  0
   -1.2169    6.2688    5.5921 H   0  0  0  0  0  0  0  0  0  0  0  0
   -1.7262    4.7529    5.5308 H   0  0  0  0  0  0  0  0  0  0  0  0
   -1.0774    2.2962    6.6854 C   0  0  0  0  0  0  0  0  0  0  0  0
   -0.9740    2.5605    5.7265 H   0  0  0  0  0  0  0  0  0  0  0  0
   -0.5249    0.8768    6.8030 C   0  0  0  0  0  0  0  0  0  0  0  0
    0.4390    0.8858    6.6270 H   0  0  0  0  0  0  0  0  0  0  0  0
   -0.9708    0.2976    6.1501 H   0  0  0  0  0  0  0  0  0  0  0  0
   -0.6888    0.5364    7.7072 H   0  0  0  0  0  0  0  0  0  0  0  0
   -2.5757    2.3588    6.9910 C   0  0  0  0  0  0  0  0  0  0  0  0
   -2.7398    2.0136    7.8935 H   0  0  0  0  0  0  0  0  0  0  0  0
   -3.0651    1.8147    6.3392 H   0  0  0  0  0  0  0  0  0  0  0  0
   -2.8818    3.2881    6.9362 H   0  0  0  0  0  0  0  0  0  0  0  0
    1.6939    2.0884   11.6479 B   0  0  0  0  0  0  0  0  0  0  0  0
    2.2771    1.1944   11.9716 H   0  0  0  0  0  0  0  0  0  0  0  0
    1.9230    3.7302   12.5243 B   0  0  0  0  0  0  0  0  0  0  0  0
    2.5391    3.9992   13.3814 H   0  0  0  0  0  0  0  0  0  0  0  0
    1.5864    4.6169   10.9390 B   0  5  0  0  0  0  0  0  0  0  0  0
    1.9615    5.5821   10.6177 H   0  0  0  0  0  0  0  0  0  0  0  0
    0.5991    1.8472    9.9761 B   0  5  0  0  0  0  0  0  0  0  0  0
    0.8875    0.9618    9.4071 H   0  0  0  0  0  0  0  0  0  0  0  0
   -0.0965    1.7079   11.5649 B   0  0  0  0  0  0  0  0  0  0  0  0
   -0.4088    0.7053   11.9629 H   0  0  0  0  0  0  0  0  0  0  0  0
    0.4605    2.8138   12.8356 B   0  0  0  0  0  0  0  0  0  0  0  0
    0.3344    2.5295   13.8915 H   0  0  0  0  0  0  0  0  0  0  0  0
    0.3349    4.4774   12.1561 B   0  0  0  0  0  0  0  0  0  0  0  0
   -0.0162    5.3860   12.6931 H   0  0  0  0  0  0  0  0  0  0  0  0
   -0.3405    4.2600   10.4771 B   0  0  0  0  0  0  0  0  0  0  0  0
   -0.9178    5.1094   10.1339 H   0  0  0  0  0  0  0  0  0  0  0  0
   -1.0666    2.5575   10.3134 B   0  0  0  0  0  0  0  0  0  0  0  0
   -2.0533    2.2819    9.9854 H   0  0  0  0  0  0  0  0  0  0  0  0
   -0.9416    3.2650   11.9134 B   0  0  0  0  0  0  0  0  0  0  0  0
   -1.8721    3.3920   12.3961 H   0  0  0  0  0  0  0  0  0  0  0  0
  1  4  1  0  0  0  0
  2  3  1  0  0  0  0
  4 33  1  0  0  0  0
  5  1  1  0  0  0  0
  6  2  1  0  0  0  0
  7  1  1  0  0  0  0
  8  7  1  0  0  0  0
  9  8  1  0  0  0  0
 10  8  1  0  0  0  0
 11  8  1  0  0  0  0
 12  7  1  0  0  0  0
 13 12  1  0  0  0  0
 14 12  1  0  0  0  0
 15 12  1  0  0  0  0
 16  7  1  0  0  0  0
 17 16  1  0  0  0  0
 18 16  1  0  0  0  0
 19 16  1  0  0  0  0
 20  1  1  0  0  0  0
 21 20  1  0  0  0  0
 22 21  1  0  0  0  0
 23 21  1  0  0  0  0
 24 21  1  0  0  0  0
 25 20  1  0  0  0  0
 26 25  1  0  0  0  0
 27 25  1  0  0  0  0
 28 25  1  0  0  0  0
 29 20  1  0  0  0  0
 30 29  1  0  0  0  0
 31 29  1  0  0  0  0
 32 29  1  0  0  0  0
 33 34  1  0  0  0  0
 35 33  1  0  0  0  0
 36 33  1  0  0  0  0
 37  2  1  0  0  0  0
 38 37  1  0  0  0  0
 39 37  1  0  0  0  0
 40 39  1  0  0  0  0
 41 39  1  0  0  0  0
 42 39  1  0  0  0  0
 43 37  1  0  0  0  0
 44 43  1  0  0  0  0
 45 43  1  0  0  0  0
 46 43  1  0  0  0  0
 47  2  1  0  0  0  0
 48 47  1  0  0  0  0
 49 47  1  0  0  0  0
 50 49  1  0  0  0  0
 51 49  1  0  0  0  0
 52 49  1  0  0  0  0
 53 47  1  0  0  0  0
 54 53  1  0  0  0  0
 55 53  1  0  0  0  0
 56 53  1  0  0  0  0
 57  5  1  0  0  0  0
 58 57  1  0  0  0  0
 59  5  1  0  0  0  0
 60 59  1  0  0  0  0
 61  5  1  0  0  0  0
 62 61  1  0  0  0  0
 63  6  1  0  0  0  0
 64 63  1  0  0  0  0
 65 57  1  0  0  0  0
 66 65  1  0  0  0  0
 67 57  1  0  0  0  0
 68 67  1  0  0  0  0
 69 59  1  0  0  0  0
 70 69  1  0  0  0  0
 71  6  1  0  0  0  0
 72 71  1  0  0  0  0
 73  6  1  0  0  0  0
 74 73  1  0  0  0  0
 75 65  1  0  0  0  0
 76 75  1  0  0  0  0
 57 59  1  0  0  0  0
 57 63  1  0  0  0  0
 59 61  1  0  0  0  0
 59 67  1  0  0  0  0
 61 69  1  0  0  0  0
 61 71  1  0  0  0  0
 63 65  1  0  0  0  0
 63 73  1  0  0  0  0
 65 67  1  0  0  0  0
 65 73  1  0  0  0  0
 67 69  1  0  0  0  0
 67 75  1  0  0  0  0
 69 71  1  0  0  0  0
 69 75  1  0  0  0  0
 71 73  1  0  0  0  0
 71 75  1  0  0  0  0
 73 75  1  0  0  0  0
M  CHG  4   1   1   2   1  61  -1  63  -1
M  END
$$$$
AYIXAK

From CSD data. Using bond type 'Any'. No disordered atoms. Largest molecule.
110116  0  0  0  0  0  0  0  0999 V2000
    3.1651    3.5664    0.7773 Fe  0  0  0  0  0  0  0  0  0  0  0  0
    3.1012    5.3700   -0.4307 P   0  0  0  0  0  0  0  0  0  0  0  0
   -1.9368    1.7290   -3.1398 O   0  0  0  0  0  0  0  0  0  0  0  0
   -1.1143    2.5901   -5.0940 O   0  0  0  0  0  0  0  0  0  0  0  0
    0.0733    3.3753    0.5213 N   0  0  0  0  0  0  0  0  0  0  0  0
    0.9514    3.4985    2.4884 N   0  0  0  0  0  0  0  0  0  0  0  0
    3.1651    3.5664    2.6636 N   0  0  0  0  0  0  0  0  0  0  0  0
    1.3104    3.4783    1.1349 C   0  0  0  0  0  0  0  0  0  0  0  0
   -0.9533    3.2982    1.4482 C   0  0  0  0  0  0  0  0  0  0  0  0
   -1.8763    3.2041    1.2477 H   0  0  0  0  0  0  0  0  0  0  0  0
   -0.4254    3.3807    2.6762 C   0  0  0  0  0  0  0  0  0  0  0  0
   -0.8926    3.3624    3.5034 H   0  0  0  0  0  0  0  0  0  0  0  0
    2.0004    3.5462    3.3865 C   0  0  0  0  0  0  0  0  0  0  0  0
    1.9548    3.5619    4.7621 C   0  0  0  0  0  0  0  0  0  0  0  0
    1.1230    3.5693    5.2220 H   0  0  0  0  0  0  0  0  0  0  0  0
    3.1651    3.5664    5.4621 C   0  0  0  0  0  0  0  0  0  0  0  0
    3.1651    3.5664    6.4126 H   0  0  0  0  0  0  0  0  0  0  0  0
   -0.0848    3.2440   -0.9170 C   0  0  0  0  0  0  0  0  0  0  0  0
   -0.2836    2.2968   -1.1289 H   0  0  0  0  0  0  0  0  0  0  0  0
    0.7736    3.4751   -1.3534 H   0  0  0  0  0  0  0  0  0  0  0  0
   -1.1749    4.1114   -1.5048 C   0  0  0  0  0  0  0  0  0  0  0  0
   -1.0850    5.0315   -1.1531 H   0  0  0  0  0  0  0  0  0  0  0  0
   -2.0573    3.7604   -1.2235 H   0  0  0  0  0  0  0  0  0  0  0  0
   -1.1078    4.1470   -3.0384 C   0  0  0  0  0  0  0  0  0  0  0  0
   -0.2102    4.4666   -3.3031 H   0  0  0  0  0  0  0  0  0  0  0  0
   -1.7661    4.8118   -3.3625 H   0  0  0  0  0  0  0  0  0  0  0  0
   -1.8453    0.6641   -4.0780 C   0  0  0  0  0  0  0  0  0  0  0  0
   -3.0575   -0.2910   -3.8993 C   0  0  0  0  0  0  0  0  0  0  0  0
   -3.0449   -0.9715   -4.6037 H   0  0  0  0  0  0  0  0  0  0  0  0
   -3.8906    0.2240   -3.9589 H   0  0  0  0  0  0  0  0  0  0  0  0
   -3.0043   -0.7261   -3.0236 H   0  0  0  0  0  0  0  0  0  0  0  0
   -0.5507   -0.1669   -3.6898 C   0  0  0  0  0  0  0  0  0  0  0  0
   -0.4760   -0.9487   -4.2758 H   0  0  0  0  0  0  0  0  0  0  0  0
   -0.6204   -0.4651   -2.7574 H   0  0  0  0  0  0  0  0  0  0  0  0
    0.2443    0.3966   -3.7939 H   0  0  0  0  0  0  0  0  0  0  0  0
   -1.6952    1.2886   -5.4461 C   0  0  0  0  0  0  0  0  0  0  0  0
   -3.0233    1.5778   -6.1311 C   0  0  0  0  0  0  0  0  0  0  0  0
   -2.8663    2.1227   -6.9297 H   0  0  0  0  0  0  0  0  0  0  0  0
   -3.6108    2.0614   -5.5147 H   0  0  0  0  0  0  0  0  0  0  0  0
   -3.4475    0.7333   -6.3906 H   0  0  0  0  0  0  0  0  0  0  0  0
   -0.7546    0.6034   -6.4350 C   0  0  0  0  0  0  0  0  0  0  0  0
   -1.0799   -0.3010   -6.6216 H   0  0  0  0  0  0  0  0  0  0  0  0
    0.1443    0.5549   -6.0495 H   0  0  0  0  0  0  0  0  0  0  0  0
   -0.7254    1.1199   -7.2686 H   0  0  0  0  0  0  0  0  0  0  0  0
    1.6294    6.4454   -0.2027 C   0  0  0  0  0  0  0  0  0  0  0  0
    1.7471    7.2727   -0.7152 H   0  0  0  0  0  0  0  0  0  0  0  0
    1.5269    6.6607    0.7482 H   0  0  0  0  0  0  0  0  0  0  0  0
    0.8305    5.9759   -0.5193 H   0  0  0  0  0  0  0  0  0  0  0  0
    3.1626    5.3981   -2.2750 C   0  0  0  0  0  0  0  0  0  0  0  0
    2.4080    4.8889   -2.6341 H   0  0  0  0  0  0  0  0  0  0  0  0
    4.0033    4.9973   -2.5791 H   0  0  0  0  0  0  0  0  0  0  0  0
    3.1107    6.3254   -2.5901 H   0  0  0  0  0  0  0  0  0  0  0  0
    4.3717    6.6694   -0.1072 C   0  0  0  0  0  0  0  0  0  0  0  0
    5.2668    6.2840   -0.2113 H   0  0  0  0  0  0  0  0  0  0  0  0
    4.2653    7.0087    0.8054 H   0  0  0  0  0  0  0  0  0  0  0  0
    4.2565    7.4053   -0.7438 H   0  0  0  0  0  0  0  0  0  0  0  0
   -1.3813    2.7932   -3.7672 B   0  0  0  0  0  0  0  0  0  0  0  0
    8.2671    5.4038   -3.1398 O   0  0  0  0  0  0  0  0  0  0  0  0
    7.4445    4.5428   -5.0940 O   0  0  0  0  0  0  0  0  0  0  0  0
    6.2569    3.7576    0.5213 N   0  0  0  0  0  0  0  0  0  0  0  0
    5.3788    3.6343    2.4884 N   0  0  0  0  0  0  0  0  0  0  0  0
    5.0199    3.6546    1.1349 C   0  0  0  0  0  0  0  0  0  0  0  0
    7.2836    3.8346    1.4482 C   0  0  0  0  0  0  0  0  0  0  0  0
    8.2065    3.9288    1.2477 H   0  0  0  0  0  0  0  0  0  0  0  0
    6.7556    3.7522    2.6762 C   0  0  0  0  0  0  0  0  0  0  0  0
    7.2228    3.7704    3.5034 H   0  0  0  0  0  0  0  0  0  0  0  0
    4.3299    3.5867    3.3865 C   0  0  0  0  0  0  0  0  0  0  0  0
    4.3755    3.5710    4.7621 C   0  0  0  0  0  0  0  0  0  0  0  0
    5.2073    3.5636    5.2220 H   0  0  0  0  0  0  0  0  0  0  0  0
    6.4151    3.8888   -0.9170 C   0  0  0  0  0  0  0  0  0  0  0  0
    6.6138    4.8361   -1.1289 H   0  0  0  0  0  0  0  0  0  0  0  0
    5.5567    3.6577   -1.3534 H   0  0  0  0  0  0  0  0  0  0  0  0
    7.5051    3.0215   -1.5048 C   0  0  0  0  0  0  0  0  0  0  0  0
    7.4153    2.1013   -1.1531 H   0  0  0  0  0  0  0  0  0  0  0  0
    8.3876    3.3724   -1.2235 H   0  0  0  0  0  0  0  0  0  0  0  0
    7.4380    2.9858   -3.0384 C   0  0  0  0  0  0  0  0  0  0  0  0
    6.5404    2.6663   -3.3031 H   0  0  0  0  0  0  0  0  0  0  0  0
    8.0964    2.3210   -3.3625 H   0  0  0  0  0  0  0  0  0  0  0  0
    8.1755    6.4688   -4.0780 C   0  0  0  0  0  0  0  0  0  0  0  0
    9.3878    7.4239   -3.8993 C   0  0  0  0  0  0  0  0  0  0  0  0
    9.3751    8.1043   -4.6037 H   0  0  0  0  0  0  0  0  0  0  0  0
   10.2208    6.9089   -3.9589 H   0  0  0  0  0  0  0  0  0  0  0  0
    9.3346    7.8590   -3.0236 H   0  0  0  0  0  0  0  0  0  0  0  0
    6.8810    7.2998   -3.6898 C   0  0  0  0  0  0  0  0  0  0  0  0
    6.8063    8.0815   -4.2758 H   0  0  0  0  0  0  0  0  0  0  0  0
    6.9506    7.5979   -2.7574 H   0  0  0  0  0  0  0  0  0  0  0  0
    6.0859    6.7363   -3.7939 H   0  0  0  0  0  0  0  0  0  0  0  0
    8.0255    5.8442   -5.4461 C   0  0  0  0  0  0  0  0  0  0  0  0
    9.3536    5.5551   -6.1311 C   0  0  0  0  0  0  0  0  0  0  0  0
    9.1966    5.0101   -6.9297 H   0  0  0  0  0  0  0  0  0  0  0  0
    9.9410    5.0715   -5.5147 H   0  0  0  0  0  0  0  0  0  0  0  0
    9.7777    6.3996   -6.3906 H   0  0  0  0  0  0  0  0  0  0  0  0
    7.0848    6.5294   -6.4350 C   0  0  0  0  0  0  0  0  0  0  0  0
    7.4102    7.4339   -6.6216 H   0  0  0  0  0  0  0  0  0  0  0  0
    6.1859    6.5779   -6.0495 H   0  0  0  0  0  0  0  0  0  0  0  0
    7.0557    6.0130   -7.2686 H   0  0  0  0  0  0  0  0  0  0  0  0
    7.7115    4.3396   -3.7672 B   0  0  0  0  0  0  0  0  0  0  0  0
    3.2291    1.7628   -0.4307 P   0  0  0  0  0  0  0  0  0  0  0  0
    4.7008    0.6875   -0.2027 C   0  0  0  0  0  0  0  0  0  0  0  0
    4.5831   -0.1398   -0.7152 H   0  0  0  0  0  0  0  0  0  0  0  0
    4.8034    0.4722    0.7482 H   0  0  0  0  0  0  0  0  0  0  0  0
    5.4997    1.1569   -0.5193 H   0  0  0  0  0  0  0  0  0  0  0  0
    3.1677    1.7347   -2.2750 C   0  0  0  0  0  0  0  0  0  0  0  0
    3.9222    2.2440   -2.6341 H   0  0  0  0  0  0  0  0  0  0  0  0
    2.3270    2.1356   -2.5791 H   0  0  0  0  0  0  0  0  0  0  0  0
    3.2196    0.8074   -2.5901 H   0  0  0  0  0  0  0  0  0  0  0  0
    1.9586    0.4635   -0.1072 C   0  0  0  0  0  0  0  0  0  0  0  0
    1.0635    0.8488   -0.2113 H   0  0  0  0  0  0  0  0  0  0  0  0
    2.0649    0.1241    0.8054 H   0  0  0  0  0  0  0  0  0  0  0  0
    2.0738   -0.2725   -0.7438 H   0  0  0  0  0  0  0  0  0  0  0  0
  1  2  1  0  0  0  0
  2 45  1  0  0  0  0
  3 27  1  0  0  0  0
  4 36  1  0  0  0  0
  5  8  1  0  0  0  0
  6  8  1  0  0  0  0
  7  1  1  0  0  0  0
  8  1  1  0  0  0  0
  9  5  1  0  0  0  0
 10  9  1  0  0  0  0
 11  6  1  0  0  0  0
 12 11  1  0  0  0  0
 13  6  1  0  0  0  0
 14 13  4  0  0  0  0
 15 14  1  0  0  0  0
 16 14  4  0  0  0  0
 17 16  1  0  0  0  0
 18  5  1  0  0  0  0
 19 18  1  0  0  0  0
 20 18  1  0  0  0  0
 21 18  1  0  0  0  0
 22 21  1  0  0  0  0
 23 21  1  0  0  0  0
 24 21  1  0  0  0  0
 25 24  1  0  0  0  0
 26 24  1  0  0  0  0
 27 28  1  0  0  0  0
 28 29  1  0  0  0  0
 30 28  1  0  0  0  0
 31 28  1  0  0  0  0
 32 27  1  0  0  0  0
 33 32  1  0  0  0  0
 34 32  1  0  0  0  0
 35 32  1  0  0  0  0
 36 27  1  0  0  0  0
 37 36  1  0  0  0  0
 38 37  1  0  0  0  0
 39 37  1  0  0  0  0
 40 37  1  0  0  0  0
 41 36  1  0  0  0  0
 42 41  1  0  0  0  0
 43 41  1  0  0  0  0
 44 41  1  0  0  0  0
 45 46  1  0  0  0  0
 47 45  1  0  0  0  0
 48 45  1  0  0  0  0
 49  2  1  0  0  0  0
 50 49  1  0  0  0  0
 51 49  1  0  0  0  0
 52 49  1  0  0  0  0
 53  2  1  0  0  0  0
 54 53  1  0  0  0  0
 55 53  1  0  0  0  0
 56 53  1  0  0  0  0
 57  3  1  0  0  0  0
 58 79  1  0  0  0  0
 59 88  1  0  0  0  0
 60 62  1  0  0  0  0
 61 62  1  0  0  0  0
 62  1  1  0  0  0  0
 63 60  1  0  0  0  0
 64 63  1  0  0  0  0
 65 61  1  0  0  0  0
 66 65  1  0  0  0  0
 67  7  4  0  0  0  0
 68 16  4  0  0  0  0
 69 68  1  0  0  0  0
 70 60  1  0  0  0  0
 71 70  1  0  0  0  0
 72 70  1  0  0  0  0
 73 70  1  0  0  0  0
 74 73  1  0  0  0  0
 75 73  1  0  0  0  0
 76 73  1  0  0  0  0
 77 76  1  0  0  0  0
 78 76  1  0  0  0  0
 79 80  1  0  0  0  0
 80 81  1  0  0  0  0
 82 80  1  0  0  0  0
 83 80  1  0  0  0  0
 84 79  1  0  0  0  0
 85 84  1  0  0  0  0
 86 84  1  0  0  0  0
 87 84  1  0  0  0  0
 88 79  1  0  0  0  0
 89 88  1  0  0  0  0
 90 89  1  0  0  0  0
 91 89  1  0  0  0  0
 92 89  1  0  0  0  0
 93 88  1  0  0  0  0
 94 93  1  0  0  0  0
 95 93  1  0  0  0  0
 96 93  1  0  0  0  0
 97 58  1  0  0  0  0
 98  1  1  0  0  0  0
 99 98  1  0  0  0  0
100 99  1  0  0  0  0
101 99  1  0  0  0  0
102 99  1  0  0  0  0
103 98  1  0  0  0  0
104103  1  0  0  0  0
105103  1  0  0  0  0
106103  1  0  0  0  0
107 98  1  0  0  0  0
108107  1  0  0  0  0
109107  1  0  0  0  0
110107  1  0  0  0  0
  4 57  1  0  0  0  0
  7 13  4  0  0  0  0
  9 11  2  0  0  0  0
 24 57  1  0  0  0  0
 59 97  1  0  0  0  0
 61 67  1  0  0  0  0
 63 65  2  0  0  0  0
 67 68  4  0  0  0  0
 76 97  1  0  0  0  0
M  END
$$$$
AYIYIT

From CSD data. Using bond type 'Any'. No disordered atoms. Largest molecule.
262284  0  0  0  0  0  0  0  0999 V2000
    5.5385    3.5239    2.4359 Fe  0  2  0  0  0  0  0  0  0  0  0  0
    6.4899    3.7769    1.5167 H   0  0  0  0  0  0  0  0  0  0  0  0
    6.2321    1.4654    2.1567 P   0  0  0  0  0  0  0  0  0  0  0  0
    5.4308    5.6968    2.2335 P   0  0  0  0  0  0  0  0  0  0  0  0
   13.3309    4.2207    4.4953 O   0  0  0  0  0  0  0  0  0  0  0  0
   13.9740    3.9652    4.9819 H   0  0  0  0  0  0  0  0  0  0  0  0
    7.8915    3.9157    4.4603 N   0  0  0  0  0  0  0  0  0  0  0  0
    2.8155    2.9922    2.0941 N   0  0  0  0  0  0  0  0  0  0  0  0
    3.5340    3.2004    0.0735 N   0  0  0  0  0  0  0  0  0  0  0  0
    5.9145    3.5135    5.2108 N   0  0  0  0  0  0  0  0  0  0  0  0
    4.2178    3.2317    3.7992 N   0  0  0  0  0  0  0  0  0  0  0  0
    4.5677    3.2161    5.1026 C   0  0  0  0  0  0  0  0  0  0  0  0
    3.6747    2.9127    6.1075 C   0  0  0  0  0  0  0  0  0  0  0  0
    3.9471    2.8874    7.0172 H   0  0  0  0  0  0  0  0  0  0  0  0
    2.3660    2.6459    5.7426 C   0  0  0  0  0  0  0  0  0  0  0  0
    1.7279    2.4381    6.4151 H   0  0  0  0  0  0  0  0  0  0  0  0
    1.9691    2.6773    4.4137 C   0  0  0  0  0  0  0  0  0  0  0  0
    1.0691    2.5058    4.1618 H   0  0  0  0  0  0  0  0  0  0  0  0
    2.9353    2.9661    3.4744 C   0  0  0  0  0  0  0  0  0  0  0  0
    6.6317    3.6922    4.0216 C   0  0  0  0  0  0  0  0  0  0  0  0
    6.7411    3.6294    6.3248 C   0  0  0  0  0  0  0  0  0  0  0  0
    6.4874    3.5477    7.2365 H   0  0  0  0  0  0  0  0  0  0  0  0
    7.9595    3.8795    5.8511 C   0  0  0  0  0  0  0  0  0  0  0  0
    8.7423    4.0115    6.3730 H   0  0  0  0  0  0  0  0  0  0  0  0
    9.0513    4.1431    3.5829 C   0  0  0  0  0  0  0  0  0  0  0  0
    9.2572    5.1110    3.5589 H   0  0  0  0  0  0  0  0  0  0  0  0
    8.8249    3.8569    2.6625 H   0  0  0  0  0  0  0  0  0  0  0  0
   10.2759    3.3835    4.0546 C   0  0  0  0  0  0  0  0  0  0  0  0
   10.0104    2.4575    4.2823 H   0  0  0  0  0  0  0  0  0  0  0  0
   10.6190    3.8101    4.8795 H   0  0  0  0  0  0  0  0  0  0  0  0
   11.3972    3.3354    3.0211 C   0  0  0  0  0  0  0  0  0  0  0  0
   11.4623    4.2180    2.5773 H   0  0  0  0  0  0  0  0  0  0  0  0
   11.1667    2.6662    2.3290 H   0  0  0  0  0  0  0  0  0  0  0  0
   12.8019    1.6980    4.6891 C   0  0  0  0  0  0  0  0  0  0  0  0
   12.1285    1.9028    5.3997 H   0  0  0  0  0  0  0  0  0  0  0  0
   14.1652    1.4825    5.3723 C   0  0  0  0  0  0  0  0  0  0  0  0
   14.3110    2.2210    6.0157 H   0  0  0  0  0  0  0  0  0  0  0  0
   14.1227    0.6411    5.8923 H   0  0  0  0  0  0  0  0  0  0  0  0
   15.3826    1.4103    4.4358 C   0  0  0  0  0  0  0  0  0  0  0  0
   15.4408    0.4955    4.0628 H   0  0  0  0  0  0  0  0  0  0  0  0
   16.2016    1.5688    4.9690 H   0  0  0  0  0  0  0  0  0  0  0  0
   15.3541    2.4147    3.2704 C   0  0  0  0  0  0  0  0  0  0  0  0
   15.6298    3.3017    3.6134 H   0  0  0  0  0  0  0  0  0  0  0  0
   16.0242    2.1343    2.5978 H   0  0  0  0  0  0  0  0  0  0  0  0
   13.9982    2.5643    2.5726 C   0  0  0  0  0  0  0  0  0  0  0  0
   14.0700    3.3085    1.9086 H   0  0  0  0  0  0  0  0  0  0  0  0
   13.5649    1.2879    1.8193 C   0  0  0  0  0  0  0  0  0  0  0  0
   12.7977    1.5158    1.2363 H   0  0  0  0  0  0  0  0  0  0  0  0
   14.3097    1.0046    1.2321 H   0  0  0  0  0  0  0  0  0  0  0  0
   13.1643    0.0952    2.7052 C   0  0  0  0  0  0  0  0  0  0  0  0
   12.6569   -0.5505    2.1522 H   0  0  0  0  0  0  0  0  0  0  0  0
   13.9881   -0.3584    3.0132 H   0  0  0  0  0  0  0  0  0  0  0  0
   12.3237    0.4530    3.9243 C   0  0  0  0  0  0  0  0  0  0  0  0
   12.3235   -0.3180    4.5451 H   0  0  0  0  0  0  0  0  0  0  0  0
   11.3897    0.6015    3.6317 H   0  0  0  0  0  0  0  0  0  0  0  0
    3.9718    3.2622    1.3606 C   0  0  0  0  0  0  0  0  0  0  0  0
    1.7260    2.7600    1.2644 C   0  0  0  0  0  0  0  0  0  0  0  0
    0.8388    2.5540    1.5344 H   0  0  0  0  0  0  0  0  0  0  0  0
    2.1697    2.8834    0.0170 C   0  0  0  0  0  0  0  0  0  0  0  0
    1.6532    2.7761   -0.7730 H   0  0  0  0  0  0  0  0  0  0  0  0
    4.4093    3.3406   -1.0977 C   0  0  0  0  0  0  0  0  0  0  0  0
    4.7416    2.4426   -1.3506 H   0  0  0  0  0  0  0  0  0  0  0  0
    5.1936    3.8867   -0.8402 H   0  0  0  0  0  0  0  0  0  0  0  0
    3.7596    3.9736   -2.3138 C   0  0  0  0  0  0  0  0  0  0  0  0
    3.5277    4.9142   -2.1103 H   0  0  0  0  0  0  0  0  0  0  0  0
    2.9218    3.4912   -2.5276 H   0  0  0  0  0  0  0  0  0  0  0  0
    4.6962    3.9307   -3.5288 C   0  0  0  0  0  0  0  0  0  0  0  0
    4.8650    2.9827   -3.7580 H   0  0  0  0  0  0  0  0  0  0  0  0
    5.5631    4.3311   -3.2671 H   0  0  0  0  0  0  0  0  0  0  0  0
    2.7179    4.1912   -5.4080 C   0  0  0  0  0  0  0  0  0  0  0  0
    2.0583    4.2792   -4.6616 H   0  0  0  0  0  0  0  0  0  0  0  0
    2.8144    2.6972   -5.7845 C   0  0  0  0  0  0  0  0  0  0  0  0
    3.0097    2.1738   -4.9674 H   0  0  0  0  0  0  0  0  0  0  0  0
    1.9370    2.3979   -6.1316 H   0  0  0  0  0  0  0  0  0  0  0  0
    3.8917    2.3980   -6.8346 C   0  0  0  0  0  0  0  0  0  0  0  0
    4.0311    1.4186   -6.8727 H   0  0  0  0  0  0  0  0  0  0  0  0
    3.5571    2.6865   -7.7206 H   0  0  0  0  0  0  0  0  0  0  0  0
    5.2364    3.0707   -6.5809 C   0  0  0  0  0  0  0  0  0  0  0  0
    5.7750    3.0158   -7.4097 H   0  0  0  0  0  0  0  0  0  0  0  0
    5.7149    2.5589   -5.8812 H   0  0  0  0  0  0  0  0  0  0  0  0
    5.1654    4.5501   -6.1412 C   0  0  0  0  0  0  0  0  0  0  0  0
    6.0803    4.8348   -5.8550 H   0  0  0  0  0  0  0  0  0  0  0  0
    4.7022    5.4886   -7.2716 C   0  0  0  0  0  0  0  0  0  0  0  0
    4.8249    6.4244   -6.9732 H   0  0  0  0  0  0  0  0  0  0  0  0
    5.2877    5.3469   -8.0572 H   0  0  0  0  0  0  0  0  0  0  0  0
    3.2481    5.3055   -7.7102 C   0  0  0  0  0  0  0  0  0  0  0  0
    3.2072    4.5390   -8.3358 H   0  0  0  0  0  0  0  0  0  0  0  0
    2.9718    6.1122   -8.2128 H   0  0  0  0  0  0  0  0  0  0  0  0
    2.2260    5.0648   -6.5867 C   0  0  0  0  0  0  0  0  0  0  0  0
    1.4255    4.6349   -6.9803 H   0  0  0  0  0  0  0  0  0  0  0  0
    1.9448    5.9430   -6.2276 H   0  0  0  0  0  0  0  0  0  0  0  0
    8.0175    1.0986    2.1941 C   0  0  0  0  0  0  0  0  0  0  0  0
    8.1540    0.1313    2.1215 H   0  0  0  0  0  0  0  0  0  0  0  0
    8.3992    1.4203    3.0377 H   0  0  0  0  0  0  0  0  0  0  0  0
    8.4591    1.5485    1.4436 H   0  0  0  0  0  0  0  0  0  0  0  0
    5.7681    0.5263    0.6601 C   0  0  0  0  0  0  0  0  0  0  0  0
    6.1941    0.9307   -0.1244 H   0  0  0  0  0  0  0  0  0  0  0  0
    4.7945    0.5473    0.5503 H   0  0  0  0  0  0  0  0  0  0  0  0
    6.0666   -0.4025    0.7517 H   0  0  0  0  0  0  0  0  0  0  0  0
    5.5521    0.4352    3.4979 C   0  0  0  0  0  0  0  0  0  0  0  0
    6.2099    0.3139    4.7167 C   0  0  0  0  0  0  0  0  0  0  0  0
    7.0968    0.6423    4.8085 H   0  0  0  0  0  0  0  0  0  0  0  0
    5.5801   -0.2825    5.8001 C   0  0  0  0  0  0  0  0  0  0  0  0
    6.0479   -0.3737    6.6219 H   0  0  0  0  0  0  0  0  0  0  0  0
    4.2919   -0.7407    5.6991 C   0  0  0  0  0  0  0  0  0  0  0  0
    3.8622   -1.1343    6.4498 H   0  0  0  0  0  0  0  0  0  0  0  0
    3.6254   -0.6257    4.4990 C   0  0  0  0  0  0  0  0  0  0  0  0
    2.7358   -0.9476    4.4200 H   0  0  0  0  0  0  0  0  0  0  0  0
    4.2506   -0.0398    3.4003 C   0  0  0  0  0  0  0  0  0  0  0  0
    3.7824    0.0356    2.5771 H   0  0  0  0  0  0  0  0  0  0  0  0
    4.7551    6.4093    0.6907 C   0  0  0  0  0  0  0  0  0  0  0  0
    5.3519    6.1952   -0.0567 H   0  0  0  0  0  0  0  0  0  0  0  0
    4.6840    7.3821    0.7837 H   0  0  0  0  0  0  0  0  0  0  0  0
    3.8673    6.0317    0.5179 H   0  0  0  0  0  0  0  0  0  0  0  0
    4.3350    6.4637    3.4710 C   0  0  0  0  0  0  0  0  0  0  0  0
    4.3773    7.4393    3.3850 H   0  0  0  0  0  0  0  0  0  0  0  0
    4.6243    6.2027    4.3703 H   0  0  0  0  0  0  0  0  0  0  0  0
    3.4143    6.1626    3.3238 H   0  0  0  0  0  0  0  0  0  0  0  0
    6.9815    6.6489    2.4015 C   0  0  0  0  0  0  0  0  0  0  0  0
    7.3199    7.3258    3.5611 C   0  0  0  0  0  0  0  0  0  0  0  0
    6.7228    7.3250    4.3000 H   0  0  0  0  0  0  0  0  0  0  0  0
    8.5265    8.0037    3.6492 C   0  0  0  0  0  0  0  0  0  0  0  0
    8.7499    8.4658    4.4484 H   0  0  0  0  0  0  0  0  0  0  0  0
    9.4019    8.0121    2.5889 C   0  0  0  0  0  0  0  0  0  0  0  0
   10.2265    8.4789    2.6559 H   0  0  0  0  0  0  0  0  0  0  0  0
    9.0811    7.3425    1.4327 C   0  0  0  0  0  0  0  0  0  0  0  0
    9.6841    7.3485    0.6987 H   0  0  0  0  0  0  0  0  0  0  0  0
    7.8840    6.6625    1.3358 C   0  0  0  0  0  0  0  0  0  0  0  0
    7.6715    6.1979    0.5349 H   0  0  0  0  0  0  0  0  0  0  0  0
    4.1656    4.6903   -4.8609 B   0  5  0  0  0  0  0  0  0  0  0  0
   12.8429    2.9588    3.6557 B   0  5  0  0  0  0  0  0  0  0  0  0
    3.9726    6.2417   -4.4953 O   0  0  0  0  0  0  0  0  0  0  0  0
    3.3295    6.4972   -4.9819 H   0  0  0  0  0  0  0  0  0  0  0  0
    9.4120    6.5467   -4.4603 N   0  0  0  0  0  0  0  0  0  0  0  0
   14.4880    7.4702   -2.0941 N   0  0  0  0  0  0  0  0  0  0  0  0
   13.7695    7.2620   -0.0735 N   0  0  0  0  0  0  0  0  0  0  0  0
   11.3890    6.9489   -5.2108 N   0  0  0  0  0  0  0  0  0  0  0  0
   13.0857    7.2307   -3.7992 N   0  0  0  0  0  0  0  0  0  0  0  0
   12.7358    7.2463   -5.1026 C   0  0  0  0  0  0  0  0  0  0  0  0
   13.6288    7.5497   -6.1075 C   0  0  0  0  0  0  0  0  0  0  0  0
   13.3564    7.5750   -7.0172 H   0  0  0  0  0  0  0  0  0  0  0  0
   14.9375    7.8165   -5.7426 C   0  0  0  0  0  0  0  0  0  0  0  0
   15.5756    8.0243   -6.4151 H   0  0  0  0  0  0  0  0  0  0  0  0
   15.3344    7.7851   -4.4137 C   0  0  0  0  0  0  0  0  0  0  0  0
   16.2344    7.9566   -4.1618 H   0  0  0  0  0  0  0  0  0  0  0  0
   14.3682    7.4963   -3.4744 C   0  0  0  0  0  0  0  0  0  0  0  0
   10.6718    6.7702   -4.0216 C   0  0  0  0  0  0  0  0  0  0  0  0
   10.5624    6.8330   -6.3248 C   0  0  0  0  0  0  0  0  0  0  0  0
   10.8161    6.9147   -7.2365 H   0  0  0  0  0  0  0  0  0  0  0  0
    9.3440    6.5829   -5.8511 C   0  0  0  0  0  0  0  0  0  0  0  0
    8.5612    6.4509   -6.3730 H   0  0  0  0  0  0  0  0  0  0  0  0
    8.2522    6.3193   -3.5829 C   0  0  0  0  0  0  0  0  0  0  0  0
    8.0463    5.3514   -3.5589 H   0  0  0  0  0  0  0  0  0  0  0  0
    8.4786    6.6055   -2.6625 H   0  0  0  0  0  0  0  0  0  0  0  0
    7.0276    7.0789   -4.0546 C   0  0  0  0  0  0  0  0  0  0  0  0
    7.2931    8.0049   -4.2823 H   0  0  0  0  0  0  0  0  0  0  0  0
    6.6845    6.6523   -4.8795 H   0  0  0  0  0  0  0  0  0  0  0  0
    5.9063    7.1270   -3.0211 C   0  0  0  0  0  0  0  0  0  0  0  0
    5.8412    6.2444   -2.5773 H   0  0  0  0  0  0  0  0  0  0  0  0
    6.1368    7.7962   -2.3290 H   0  0  0  0  0  0  0  0  0  0  0  0
    4.5016    8.7644   -4.6891 C   0  0  0  0  0  0  0  0  0  0  0  0
    5.1750    8.5596   -5.3997 H   0  0  0  0  0  0  0  0  0  0  0  0
    3.1383    8.9799   -5.3723 C   0  0  0  0  0  0  0  0  0  0  0  0
    2.9925    8.2414   -6.0157 H   0  0  0  0  0  0  0  0  0  0  0  0
    3.1808    9.8213   -5.8923 H   0  0  0  0  0  0  0  0  0  0  0  0
    1.9209    9.0521   -4.4358 C   0  0  0  0  0  0  0  0  0  0  0  0
    1.8627    9.9669   -4.0628 H   0  0  0  0  0  0  0  0  0  0  0  0
    1.1019    8.8936   -4.9690 H   0  0  0  0  0  0  0  0  0  0  0  0
    1.9494    8.0477   -3.2704 C   0  0  0  0  0  0  0  0  0  0  0  0
    1.6737    7.1607   -3.6134 H   0  0  0  0  0  0  0  0  0  0  0  0
    1.2793    8.3281   -2.5978 H   0  0  0  0  0  0  0  0  0  0  0  0
    3.3053    7.8981   -2.5726 C   0  0  0  0  0  0  0  0  0  0  0  0
    3.2335    7.1539   -1.9086 H   0  0  0  0  0  0  0  0  0  0  0  0
    3.7386    9.1745   -1.8193 C   0  0  0  0  0  0  0  0  0  0  0  0
    4.5058    8.9466   -1.2363 H   0  0  0  0  0  0  0  0  0  0  0  0
    2.9938    9.4578   -1.2321 H   0  0  0  0  0  0  0  0  0  0  0  0
    4.1392   10.3672   -2.7052 C   0  0  0  0  0  0  0  0  0  0  0  0
    4.6466   11.0129   -2.1522 H   0  0  0  0  0  0  0  0  0  0  0  0
    3.3154   10.8208   -3.0132 H   0  0  0  0  0  0  0  0  0  0  0  0
    4.9798   10.0094   -3.9243 C   0  0  0  0  0  0  0  0  0  0  0  0
    4.9800   10.7804   -4.5451 H   0  0  0  0  0  0  0  0  0  0  0  0
    5.9138    9.8609   -3.6317 H   0  0  0  0  0  0  0  0  0  0  0  0
   13.3317    7.2002   -1.3606 C   0  0  0  0  0  0  0  0  0  0  0  0
   15.5775    7.7024   -1.2644 C   0  0  0  0  0  0  0  0  0  0  0  0
   16.4647    7.9084   -1.5344 H   0  0  0  0  0  0  0  0  0  0  0  0
   15.1338    7.5790   -0.0170 C   0  0  0  0  0  0  0  0  0  0  0  0
   15.6503    7.6863    0.7730 H   0  0  0  0  0  0  0  0  0  0  0  0
   12.8942    7.1218    1.0977 C   0  0  0  0  0  0  0  0  0  0  0  0
   12.5619    8.0198    1.3506 H   0  0  0  0  0  0  0  0  0  0  0  0
   12.1099    6.5757    0.8402 H   0  0  0  0  0  0  0  0  0  0  0  0
   13.5439    6.4888    2.3138 C   0  0  0  0  0  0  0  0  0  0  0  0
   13.7758    5.5482    2.1103 H   0  0  0  0  0  0  0  0  0  0  0  0
   14.3817    6.9712    2.5276 H   0  0  0  0  0  0  0  0  0  0  0  0
   12.6073    6.5317    3.5288 C   0  0  0  0  0  0  0  0  0  0  0  0
   12.4385    7.4797    3.7580 H   0  0  0  0  0  0  0  0  0  0  0  0
   11.7404    6.1313    3.2671 H   0  0  0  0  0  0  0  0  0  0  0  0
   14.5856    6.2712    5.4080 C   0  0  0  0  0  0  0  0  0  0  0  0
   15.2452    6.1832    4.6616 H   0  0  0  0  0  0  0  0  0  0  0  0
   14.4891    7.7652    5.7845 C   0  0  0  0  0  0  0  0  0  0  0  0
   14.2938    8.2886    4.9674 H   0  0  0  0  0  0  0  0  0  0  0  0
   15.3665    8.0645    6.1316 H   0  0  0  0  0  0  0  0  0  0  0  0
   13.4118    8.0644    6.8346 C   0  0  0  0  0  0  0  0  0  0  0  0
   13.2724    9.0438    6.8727 H   0  0  0  0  0  0  0  0  0  0  0  0
   13.7464    7.7759    7.7206 H   0  0  0  0  0  0  0  0  0  0  0  0
   12.0671    7.3917    6.5809 C   0  0  0  0  0  0  0  0  0  0  0  0
   11.5285    7.4466    7.4097 H   0  0  0  0  0  0  0  0  0  0  0  0
   11.5886    7.9035    5.8812 H   0  0  0  0  0  0  0  0  0  0  0  0
   12.1381    5.9123    6.1412 C   0  0  0  0  0  0  0  0  0  0  0  0
   11.2232    5.6276    5.8550 H   0  0  0  0  0  0  0  0  0  0  0  0
   12.6013    4.9738    7.2716 C   0  0  0  0  0  0  0  0  0  0  0  0
   12.4786    4.0380    6.9732 H   0  0  0  0  0  0  0  0  0  0  0  0
   12.0158    5.1155    8.0572 H   0  0  0  0  0  0  0  0  0  0  0  0
   14.0554    5.1569    7.7102 C   0  0  0  0  0  0  0  0  0  0  0  0
   14.0963    5.9234    8.3358 H   0  0  0  0  0  0  0  0  0  0  0  0
   14.3317    4.3502    8.2128 H   0  0  0  0  0  0  0  0  0  0  0  0
   15.0775    5.3976    6.5867 C   0  0  0  0  0  0  0  0  0  0  0  0
   15.8780    5.8275    6.9803 H   0  0  0  0  0  0  0  0  0  0  0  0
   15.3587    4.5194    6.2276 H   0  0  0  0  0  0  0  0  0  0  0  0
   13.1379    5.7721    4.8609 B   0  5  0  0  0  0  0  0  0  0  0  0
    4.4606    7.5036   -3.6557 B   0  5  0  0  0  0  0  0  0  0  0  0
   11.7650    6.9385   -2.4359 Fe  0  2  0  0  0  0  0  0  0  0  0  0
   10.8136    6.6855   -1.5167 H   0  0  0  0  0  0  0  0  0  0  0  0
   11.0714    8.9970   -2.1567 P   0  0  0  0  0  0  0  0  0  0  0  0
   11.8727    4.7656   -2.2335 P   0  0  0  0  0  0  0  0  0  0  0  0
    9.2860    9.3638   -2.1941 C   0  0  0  0  0  0  0  0  0  0  0  0
    9.1495   10.3311   -2.1215 H   0  0  0  0  0  0  0  0  0  0  0  0
    8.9043    9.0421   -3.0377 H   0  0  0  0  0  0  0  0  0  0  0  0
    8.8444    8.9139   -1.4436 H   0  0  0  0  0  0  0  0  0  0  0  0
   11.5354    9.9361   -0.6601 C   0  0  0  0  0  0  0  0  0  0  0  0
   11.1094    9.5317    0.1244 H   0  0  0  0  0  0  0  0  0  0  0  0
   12.5090    9.9151   -0.5503 H   0  0  0  0  0  0  0  0  0  0  0  0
   11.2369   10.8649   -0.7517 H   0  0  0  0  0  0  0  0  0  0  0  0
   11.7514   10.0272   -3.4979 C   0  0  0  0  0  0  0  0  0  0  0  0
   11.0936   10.1485   -4.7167 C   0  0  0  0  0  0  0  0  0  0  0  0
   10.2067    9.8201   -4.8085 H   0  0  0  0  0  0  0  0  0  0  0  0
   11.7234   10.7449   -5.8001 C   0  0  0  0  0  0  0  0  0  0  0  0
   11.2556   10.8361   -6.6219 H   0  0  0  0  0  0  0  0  0  0  0  0
   13.0116   11.2031   -5.6991 C   0  0  0  0  0  0  0  0  0  0  0  0
   13.4413   11.5967   -6.4498 H   0  0  0  0  0  0  0  0  0  0  0  0
   13.6781   11.0881   -4.4990 C   0  0  0  0  0  0  0  0  0  0  0  0
   14.5677   11.4100   -4.4200 H   0  0  0  0  0  0  0  0  0  0  0  0
   13.0529   10.5022   -3.4003 C   0  0  0  0  0  0  0  0  0  0  0  0
   13.5211   10.4268   -2.5771 H   0  0  0  0  0  0  0  0  0  0  0  0
   12.5484    4.0531   -0.6907 C   0  0  0  0  0  0  0  0  0  0  0  0
   11.9516    4.2672    0.0567 H   0  0  0  0  0  0  0  0  0  0  0  0
   12.6195    3.0803   -0.7837 H   0  0  0  0  0  0  0  0  0  0  0  0
   13.4362    4.4307   -0.5179 H   0  0  0  0  0  0  0  0  0  0  0  0
   12.9685    3.9987   -3.4710 C   0  0  0  0  0  0  0  0  0  0  0  0
   12.9262    3.0231   -3.3850 H   0  0  0  0  0  0  0  0  0  0  0  0
   12.6792    4.2597   -4.3703 H   0  0  0  0  0  0  0  0  0  0  0  0
   13.8892    4.2998   -3.3238 H   0  0  0  0  0  0  0  0  0  0  0  0
   10.3220    3.8135   -2.4015 C   0  0  0  0  0  0  0  0  0  0  0  0
    9.9836    3.1366   -3.5611 C   0  0  0  0  0  0  0  0  0  0  0  0
   10.5807    3.1374   -4.3000 H   0  0  0  0  0  0  0  0  0  0  0  0
    8.7770    2.4587   -3.6492 C   0  0  0  0  0  0  0  0  0  0  0  0
    8.5536    1.9966   -4.4484 H   0  0  0  0  0  0  0  0  0  0  0  0
    7.9016    2.4503   -2.5889 C   0  0  0  0  0  0  0  0  0  0  0  0
    7.0770    1.9835   -2.6559 H   0  0  0  0  0  0  0  0  0  0  0  0
    8.2224    3.1199   -1.4327 C   0  0  0  0  0  0  0  0  0  0  0  0
    7.6194    3.1139   -0.6987 H   0  0  0  0  0  0  0  0  0  0  0  0
    9.4195    3.7999   -1.3358 C   0  0  0  0  0  0  0  0  0  0  0  0
    9.6320    4.2645   -0.5349 H   0  0  0  0  0  0  0  0  0  0  0  0
  1  2  1  0  0  0  0
  3  1  1  0  0  0  0
  4  1  1  0  0  0  0
  5  6  1  0  0  0  0
  7 20  1  0  0  0  0
  8 19  1  0  0  0  0
  9 56  1  0  0  0  0
 10 12  1  0  0  0  0
 11  1  1  0  0  0  0
 12 11  4  0  0  0  0
 13 12  4  0  0  0  0
 14 13  1  0  0  0  0
 15 13  4  0  0  0  0
 16 15  1  0  0  0  0
 17 15  4  0  0  0  0
 18 17  1  0  0  0  0
 19 11  4  0  0  0  0
 20  1  1  0  0  0  0
 21 10  1  0  0  0  0
 22 21  1  0  0  0  0
 23  7  1  0  0  0  0
 24 23  1  0  0  0  0
 25  7  1  0  0  0  0
 26 25  1  0  0  0  0
 27 25  1  0  0  0  0
 28 25  1  0  0  0  0
 29 28  1  0  0  0  0
 30 28  1  0  0  0  0
 31 28  1  0  0  0  0
 32 31  1  0  0  0  0
 33 31  1  0  0  0  0
 34 35  1  0  0  0  0
 36 34  1  0  0  0  0
 37 36  1  0  0  0  0
 38 36  1  0  0  0  0
 39 36  1  0  0  0  0
 40 39  1  0  0  0  0
 41 39  1  0  0  0  0
 42 39  1  0  0  0  0
 43 42  1  0  0  0  0
 44 42  1  0  0  0  0
 45 42  1  0  0  0  0
 46 45  1  0  0  0  0
 47 45  1  0  0  0  0
 48 47  1  0  0  0  0
 49 47  1  0  0  0  0
 50 47  1  0  0  0  0
 51 50  1  0  0  0  0
 52 50  1  0  0  0  0
 53 34  1  0  0  0  0
 54 53  1  0  0  0  0
 55 53  1  0  0  0  0
 56  1  1  0  0  0  0
 57  8  1  0  0  0  0
 58 57  1  0  0  0  0
 59  9  1  0  0  0  0
 60 59  1  0  0  0  0
 61  9  1  0  0  0  0
 62 61  1  0  0  0  0
 63 61  1  0  0  0  0
 64 61  1  0  0  0  0
 65 64  1  0  0  0  0
 66 64  1  0  0  0  0
 67 64  1  0  0  0  0
 68 67  1  0  0  0  0
 69 67  1  0  0  0  0
 70 71  1  0  0  0  0
 72 70  1  0  0  0  0
 73 72  1  0  0  0  0
 74 72  1  0  0  0  0
 75 72  1  0  0  0  0
 76 75  1  0  0  0  0
 77 75  1  0  0  0  0
 78 75  1  0  0  0  0
 79 78  1  0  0  0  0
 80 78  1  0  0  0  0
 81 78  1  0  0  0  0
 82 81  1  0  0  0  0
 83 81  1  0  0  0  0
 84 83  1  0  0  0  0
 85 83  1  0  0  0  0
 86 83  1  0  0  0  0
 87 86  1  0  0  0  0
 88 86  1  0  0  0  0
 89 70  1  0  0  0  0
 90 89  1  0  0  0  0
 91 89  1  0  0  0  0
 92  3  1  0  0  0  0
 93 92  1  0  0  0  0
 94 92  1  0  0  0  0
 95 92  1  0  0  0  0
 96  3  1  0  0  0  0
 97 96  1  0  0  0  0
 98 96  1  0  0  0  0
 99 96  1  0  0  0  0
100  3  1  0  0  0  0
101100  4  0  0  0  0
102101  1  0  0  0  0
103101  4  0  0  0  0
104103  1  0  0  0  0
105103  4  0  0  0  0
106105  1  0  0  0  0
107105  4  0  0  0  0
108107  1  0  0  0  0
109100  4  0  0  0  0
110109  1  0  0  0  0
111  4  1  0  0  0  0
112111  1  0  0  0  0
113111  1  0  0  0  0
114111  1  0  0  0  0
115  4  1  0  0  0  0
116115  1  0  0  0  0
117115  1  0  0  0  0
118115  1  0  0  0  0
119  4  1  0  0  0  0
120119  4  0  0  0  0
121120  1  0  0  0  0
122120  4  0  0  0  0
123122  1  0  0  0  0
124122  4  0  0  0  0
125124  1  0  0  0  0
126124  4  0  0  0  0
127126  1  0  0  0  0
128119  4  0  0  0  0
129128  1  0  0  0  0
130 67  1  0  0  0  0
131  5  1  0  0  0  0
132130  1  0  0  0  0
133132  1  0  0  0  0
134147  1  0  0  0  0
135146  1  0  0  0  0
136183  1  0  0  0  0
137139  1  0  0  0  0
138139  4  0  0  0  0
139140  4  0  0  0  0
140141  1  0  0  0  0
142140  4  0  0  0  0
143142  1  0  0  0  0
144142  4  0  0  0  0
145144  1  0  0  0  0
146138  4  0  0  0  0
147137  1  0  0  0  0
148137  1  0  0  0  0
149148  1  0  0  0  0
150134  1  0  0  0  0
151150  1  0  0  0  0
152134  1  0  0  0  0
153152  1  0  0  0  0
154152  1  0  0  0  0
155152  1  0  0  0  0
156155  1  0  0  0  0
157155  1  0  0  0  0
158155  1  0  0  0  0
159158  1  0  0  0  0
160158  1  0  0  0  0
161162  1  0  0  0  0
163161  1  0  0  0  0
164163  1  0  0  0  0
165163  1  0  0  0  0
166163  1  0  0  0  0
167166  1  0  0  0  0
168166  1  0  0  0  0
169166  1  0  0  0  0
170169  1  0  0  0  0
171169  1  0  0  0  0
172169  1  0  0  0  0
173172  1  0  0  0  0
174172  1  0  0  0  0
175174  1  0  0  0  0
176174  1  0  0  0  0
177174  1  0  0  0  0
178177  1  0  0  0  0
179177  1  0  0  0  0
180161  1  0  0  0  0
181180  1  0  0  0  0
182180  1  0  0  0  0
183135  1  0  0  0  0
184135  1  0  0  0  0
185184  1  0  0  0  0
186136  1  0  0  0  0
187186  1  0  0  0  0
188136  1  0  0  0  0
189188  1  0  0  0  0
190188  1  0  0  0  0
191188  1  0  0  0  0
192191  1  0  0  0  0
193191  1  0  0  0  0
194191  1  0  0  0  0
195194  1  0  0  0  0
196194  1  0  0  0  0
197198  1  0  0  0  0
199197  1  0  0  0  0
200199  1  0  0  0  0
201199  1  0  0  0  0
202199  1  0  0  0  0
203202  1  0  0  0  0
204202  1  0  0  0  0
205202  1  0  0  0  0
206205  1  0  0  0  0
207205  1  0  0  0  0
208205  1  0  0  0  0
209208  1  0  0  0  0
210208  1  0  0  0  0
211210  1  0  0  0  0
212210  1  0  0  0  0
213210  1  0  0  0  0
214213  1  0  0  0  0
215213  1  0  0  0  0
216197  1  0  0  0  0
217216  1  0  0  0  0
218216  1  0  0  0  0
219  5  1  0  0  0  0
220132  1  0  0  0  0
221138  1  0  0  0  0
222221  1  0  0  0  0
223221  1  0  0  0  0
224221  1  0  0  0  0
225223  1  0  0  0  0
226225  1  0  0  0  0
227225  1  0  0  0  0
228225  1  0  0  0  0
229223  1  0  0  0  0
230229  1  0  0  0  0
231229  1  0  0  0  0
232229  1  0  0  0  0
233223  1  0  0  0  0
234233  4  0  0  0  0
235234  1  0  0  0  0
236234  4  0  0  0  0
237236  1  0  0  0  0
238236  4  0  0  0  0
239238  1  0  0  0  0
240238  4  0  0  0  0
241240  1  0  0  0  0
242233  4  0  0  0  0
243242  1  0  0  0  0
244224  1  0  0  0  0
245244  1  0  0  0  0
246244  1  0  0  0  0
247244  1  0  0  0  0
248224  1  0  0  0  0
249248  1  0  0  0  0
250248  1  0  0  0  0
251248  1  0  0  0  0
252224  1  0  0  0  0
253252  4  0  0  0  0
254253  1  0  0  0  0
255253  4  0  0  0  0
256255  1  0  0  0  0
257255  4  0  0  0  0
258257  1  0  0  0  0
259257  4  0  0  0  0
260259  1  0  0  0  0
261252  4  0  0  0  0
262261  1  0  0  0  0
  8 56  1  0  0  0  0
 10 20  1  0  0  0  0
 17 19  4  0  0  0  0
 21 23  2  0  0  0  0
 31131  1  0  0  0  0
 34131  1  0  0  0  0
 45131  1  0  0  0  0
 50 53  1  0  0  0  0
 57 59  2  0  0  0  0
 70130  1  0  0  0  0
 81130  1  0  0  0  0
 86 89  1  0  0  0  0
107109  4  0  0  0  0
126128  4  0  0  0  0
144146  4  0  0  0  0
147221  1  0  0  0  0
148150  2  0  0  0  0
158220  1  0  0  0  0
161220  1  0  0  0  0
172220  1  0  0  0  0
177180  1  0  0  0  0
183221  1  0  0  0  0
184186  2  0  0  0  0
194219  1  0  0  0  0
197219  1  0  0  0  0
208219  1  0  0  0  0
213216  1  0  0  0  0
240242  4  0  0  0  0
259261  4  0  0  0  0
M  CHG  6   1   2 130  -1 131  -1 219  -1 220  -1 221   2
M  END
$$$$
BACGER

From CSD data. Using bond type 'Any'. No disordered atoms. Largest molecule.
 51 71  0  0  0  0  0  0  0  0999 V2000
    2.1928   -4.2594    0.0000 Ir  0  0  0  0  0  0  0  0  0  0  0  0
    4.1175   -3.9775    0.9246 C   0  0  0  0  0  0  0  0  0  0  0  0
    4.5043   -4.1571   -0.6909 B   0  0  0  0  0  0  0  0  0  0  0  0
    4.6213   -5.9311   -0.8779 B   0  0  0  0  0  0  0  0  0  0  0  0
    4.1381   -6.6173    0.8051 B   0  0  0  0  0  0  0  0  0  0  0  0
    2.9562   -6.3538   -0.5974 B   0  0  0  0  0  0  0  0  0  0  0  0
    2.5110   -6.0845    1.0856 B   0  0  0  0  0  0  0  0  0  0  0  0
    2.9969   -4.8221   -2.9400 O   0  0  0  0  0  0  0  0  0  0  0  0
    4.4864   -2.8309    1.6362 O   0  0  0  0  0  0  0  0  0  0  0  0
    3.1981   -4.9813   -1.7297 B   0  0  0  0  0  0  0  0  0  0  0  0
    3.9030   -5.2757    1.9895 B   0  0  0  0  0  0  0  0  0  0  0  0
    5.1891   -5.2796    0.6389 B   0  0  0  0  0  0  0  0  0  0  0  0
    3.4616   -5.8664   -3.9945 C   0  0  0  0  0  0  0  0  0  0  0  0
   -0.0251   -5.0334    0.1195 P   0  0  0  0  0  0  0  0  0  0  0  0
    1.7787   -1.9555   -0.3272 P   0  0  0  0  0  0  0  0  0  0  0  0
   -0.0117   -6.4079    1.3505 C   0  0  0  0  0  0  0  0  0  0  0  0
   -1.1479   -7.0362    1.8648 C   0  0  0  0  0  0  0  0  0  0  0  0
   -1.0153   -8.0902    2.7686 C   0  0  0  0  0  0  0  0  0  0  0  0
    0.2535   -8.5158    3.1634 C   0  0  0  0  0  0  0  0  0  0  0  0
    1.3892   -7.8865    2.6543 C   0  0  0  0  0  0  0  0  0  0  0  0
    1.2566   -6.8325    1.7453 C   0  0  0  0  0  0  0  0  0  0  0  0
   -1.2967   -3.9003    0.8675 C   0  0  0  0  0  0  0  0  0  0  0  0
   -1.3864   -3.7372    2.2492 C   0  0  0  0  0  0  0  0  0  0  0  0
   -2.3432   -2.8772    2.7894 C   0  0  0  0  0  0  0  0  0  0  0  0
   -3.2103   -2.1804    1.9479 C   0  0  0  0  0  0  0  0  0  0  0  0
   -3.1195   -2.3435    0.5662 C   0  0  0  0  0  0  0  0  0  0  0  0
   -2.1638   -3.2035    0.0260 C   0  0  0  0  0  0  0  0  0  0  0  0
   -0.8158   -5.6888   -1.4440 C   0  0  0  0  0  0  0  0  0  0  0  0
   -2.1382   -6.1338   -1.4129 C   0  0  0  0  0  0  0  0  0  0  0  0
   -2.7144   -6.6916   -2.5505 C   0  0  0  0  0  0  0  0  0  0  0  0
   -1.9693   -6.8046   -3.7244 C   0  0  0  0  0  0  0  0  0  0  0  0
   -0.6470   -6.3596   -3.7607 C   0  0  0  0  0  0  0  0  0  0  0  0
   -0.0708   -5.8017   -2.6180 C   0  0  0  0  0  0  0  0  0  0  0  0
    0.3288   -1.5443   -1.4337 C   0  0  0  0  0  0  0  0  0  0  0  0
   -0.5673   -0.5058   -1.1791 C   0  0  0  0  0  0  0  0  0  0  0  0
   -1.6495   -0.2973   -2.0362 C   0  0  0  0  0  0  0  0  0  0  0  0
   -1.8350   -1.1283   -3.1426 C   0  0  0  0  0  0  0  0  0  0  0  0
   -0.9390   -2.1668   -3.3919 C   0  0  0  0  0  0  0  0  0  0  0  0
    0.1432   -2.3753   -2.5349 C   0  0  0  0  0  0  0  0  0  0  0  0
    1.5191   -0.9922    1.2467 C   0  0  0  0  0  0  0  0  0  0  0  0
    1.4149    0.3986    1.2570 C   0  0  0  0  0  0  0  0  0  0  0  0
    1.1429    1.0704    2.4466 C   0  0  0  0  0  0  0  0  0  0  0  0
    0.9752    0.3513    3.6309 C   0  0  0  0  0  0  0  0  0  0  0  0
    1.0794   -1.0395    3.6257 C   0  0  0  0  0  0  0  0  0  0  0  0
    1.3513   -1.7113    2.4310 C   0  0  0  0  0  0  0  0  0  0  0  0
    3.2181   -1.1032   -1.1843 C   0  0  0  0  0  0  0  0  0  0  0  0
    3.4549   -1.4014   -2.5245 C   0  0  0  0  0  0  0  0  0  0  0  0
    4.5878   -0.8947   -3.1634 C   0  0  0  0  0  0  0  0  0  0  0  0
    5.4845   -0.0907   -2.4570 C   0  0  0  0  0  0  0  0  0  0  0  0
    5.2465    0.2075   -1.1168 C   0  0  0  0  0  0  0  0  0  0  0  0
    4.1131   -0.2982   -0.4779 C   0  0  0  0  0  0  0  0  0  0  0  0
  1  2  1  0  0  0  0
  2  3  1  0  0  0  0
  3  1  1  0  0  0  0
  4  3  1  0  0  0  0
  5  4  1  0  0  0  0
  6  1  1  0  0  0  0
  7  1  1  0  0  0  0
  8 10  1  0  0  0  0
  9  2  1  0  0  0  0
 10  1  1  0  0  0  0
 11  2  1  0  0  0  0
 12  2  1  0  0  0  0
 13  8  1  0  0  0  0
 14  1  1  0  0  0  0
 15  1  1  0  0  0  0
 16 14  1  0  0  0  0
 17 16  4  0  0  0  0
 18 17  4  0  0  0  0
 19 18  4  0  0  0  0
 20 19  4  0  0  0  0
 21  7  1  0  0  0  0
 22 14  1  0  0  0  0
 23 22  4  0  0  0  0
 24 23  4  0  0  0  0
 25 24  4  0  0  0  0
 26 25  4  0  0  0  0
 27 22  4  0  0  0  0
 28 14  1  0  0  0  0
 29 28  4  0  0  0  0
 30 29  4  0  0  0  0
 31 30  4  0  0  0  0
 32 31  4  0  0  0  0
 33 28  4  0  0  0  0
 34 15  1  0  0  0  0
 35 34  4  0  0  0  0
 36 35  4  0  0  0  0
 37 36  4  0  0  0  0
 38 37  4  0  0  0  0
 39 34  4  0  0  0  0
 40 15  1  0  0  0  0
 41 40  4  0  0  0  0
 42 41  4  0  0  0  0
 43 42  4  0  0  0  0
 44 43  4  0  0  0  0
 45 40  4  0  0  0  0
 46 15  1  0  0  0  0
 47 46  4  0  0  0  0
 48 47  4  0  0  0  0
 49 48  4  0  0  0  0
 50 49  4  0  0  0  0
 51 46  4  0  0  0  0
  3 10  1  0  0  0  0
  3 12  1  0  0  0  0
  4  6  1  0  0  0  0
  4 10  1  0  0  0  0
  4 12  1  0  0  0  0
  5  6  1  0  0  0  0
  5  7  1  0  0  0  0
  5 11  1  0  0  0  0
  5 12  1  0  0  0  0
  6  7  1  0  0  0  0
  6 10  1  0  0  0  0
  7 11  1  0  0  0  0
 11 12  1  0  0  0  0
 16 21  4  0  0  0  0
 20 21  4  0  0  0  0
 26 27  4  0  0  0  0
 32 33  4  0  0  0  0
 38 39  4  0  0  0  0
 44 45  4  0  0  0  0
 50 51  4  0  0  0  0
M  END
$$$$
BAFVEM

From CSD data. Using bond type 'Any'. No disordered atoms. Largest molecule.
 77 94  0  0  0  0  0  0  0  0999 V2000
    2.4337    4.7754    1.9205 Ni  0  0  0  0  0  0  0  0  0  0  0  0
    1.1844    4.6230    3.6501 P   0  0  0  0  0  0  0  0  0  0  0  0
    1.3285    3.2137    0.9554 P   0  0  0  0  0  0  0  0  0  0  0  0
    3.7095    5.2141    0.5183 O   0  0  0  0  0  0  0  0  0  0  0  0
    3.6695    6.1549    2.4740 O   0  0  0  0  0  0  0  0  0  0  0  0
   -1.8089    3.7715    3.8228 B   0  0  0  0  0  0  0  0  0  0  0  0
   -2.1773    4.6221    4.4159 H   0  0  0  0  0  0  0  0  0  0  0  0
   -0.1231    2.7542    1.9271 C   0  0  0  0  0  0  0  0  0  0  0  0
   -0.1791    3.4653    3.3646 C   0  0  0  0  0  0  0  0  0  0  0  0
    2.3280    1.6995    0.7206 C   0  0  0  0  0  0  0  0  0  0  0  0
    1.7833    1.0700    0.2032 H   0  0  0  0  0  0  0  0  0  0  0  0
    5.3525    6.8966    0.9682 C   0  0  0  0  0  0  0  0  0  0  0  0
   -0.7151    1.2419    1.9382 B   0  0  0  0  0  0  0  0  0  0  0  0
   -0.0126    0.4916    1.5446 H   0  0  0  0  0  0  0  0  0  0  0  0
    4.2196    6.0698    1.3451 C   0  0  0  0  0  0  0  0  0  0  0  0
   -1.7278    2.5467    1.2620 B   0  0  0  0  0  0  0  0  0  0  0  0
   -2.0301    2.5943    0.2051 H   0  0  0  0  0  0  0  0  0  0  0  0
    0.9170    3.7426   -0.7391 C   0  0  0  0  0  0  0  0  0  0  0  0
    1.8123    3.9349   -1.0901 H   0  0  0  0  0  0  0  0  0  0  0  0
   -0.7961    2.4701    4.5286 B   0  0  0  0  0  0  0  0  0  0  0  0
   -0.1473    2.3272    5.4063 H   0  0  0  0  0  0  0  0  0  0  0  0
   -2.7692    3.1183    2.5368 B   0  0  0  0  0  0  0  0  0  0  0  0
   -3.7693    3.5164    2.3114 H   0  0  0  0  0  0  0  0  0  0  0  0
    0.4670    6.2553    4.1480 C   0  0  0  0  0  0  0  0  0  0  0  0
   -0.3937    6.2315    3.6806 H   0  0  0  0  0  0  0  0  0  0  0  0
    3.5964    1.9802   -0.0998 C   0  0  0  0  0  0  0  0  0  0  0  0
    4.1132    2.6624    0.3344 H   0  0  0  0  0  0  0  0  0  0  0  0
    3.3500    2.2762   -0.9793 H   0  0  0  0  0  0  0  0  0  0  0  0
    4.1182    1.1772   -0.1663 H   0  0  0  0  0  0  0  0  0  0  0  0
    2.1345    3.9961    5.0792 C   0  0  0  0  0  0  0  0  0  0  0  0
    1.5385    3.9791    5.8571 H   0  0  0  0  0  0  0  0  0  0  0  0
    0.4801    2.6317   -1.6851 C   0  0  0  0  0  0  0  0  0  0  0  0
   -0.3467    2.2541   -1.3728 H   0  0  0  0  0  0  0  0  0  0  0  0
    1.1551    1.9496   -1.7109 H   0  0  0  0  0  0  0  0  0  0  0  0
    0.3557    2.9924   -2.5646 H   0  0  0  0  0  0  0  0  0  0  0  0
   -2.3921    1.3831    2.4020 B   0  0  0  0  0  0  0  0  0  0  0  0
   -3.1438    0.6533    2.0694 H   0  0  0  0  0  0  0  0  0  0  0  0
   -1.2922    4.0063    2.1470 B   0  0  0  0  0  0  0  0  0  0  0  0
   -1.2692    4.9913    1.6574 H   0  0  0  0  0  0  0  0  0  0  0  0
    0.2982    4.9760   -0.9238 C   0  0  0  0  0  0  0  0  0  0  0  0
    0.3102    5.2039   -1.8569 H   0  0  0  0  0  0  0  0  0  0  0  0
    0.7688    5.6480   -0.4250 H   0  0  0  0  0  0  0  0  0  0  0  0
   -0.6109    4.9283   -0.6171 H   0  0  0  0  0  0  0  0  0  0  0  0
    5.8900    7.7915    1.8495 C   0  0  0  0  0  0  0  0  0  0  0  0
    5.5119    7.8680    2.6957 H   0  0  0  0  0  0  0  0  0  0  0  0
    5.9234    6.7792   -0.2827 C   0  0  0  0  0  0  0  0  0  0  0  0
    5.5834    6.1668   -0.8943 H   0  0  0  0  0  0  0  0  0  0  0  0
    0.0378    6.3590    5.5134 C   0  0  0  0  0  0  0  0  0  0  0  0
    0.8018    6.3131    6.0936 H   0  0  0  0  0  0  0  0  0  0  0  0
   -0.5624    5.6377    5.7167 H   0  0  0  0  0  0  0  0  0  0  0  0
   -0.4128    7.1977    5.6446 H   0  0  0  0  0  0  0  0  0  0  0  0
    2.7137    1.0037    2.0121 C   0  0  0  0  0  0  0  0  0  0  0  0
    3.1526    0.1752    1.8107 H   0  0  0  0  0  0  0  0  0  0  0  0
    1.9239    0.8319    2.5295 H   0  0  0  0  0  0  0  0  0  0  0  0
    3.3066    1.5668    2.5147 H   0  0  0  0  0  0  0  0  0  0  0  0
    6.9915    7.5669   -0.6227 C   0  0  0  0  0  0  0  0  0  0  0  0
    7.3766    7.4903   -1.4652 H   0  0  0  0  0  0  0  0  0  0  0  0
    2.7137    2.6896    4.9296 C   0  0  0  0  0  0  0  0  0  0  0  0
    3.4605    2.7389    4.3291 H   0  0  0  0  0  0  0  0  0  0  0  0
    2.0556    2.0874    4.5748 H   0  0  0  0  0  0  0  0  0  0  0  0
    3.0103    2.3715    5.7850 H   0  0  0  0  0  0  0  0  0  0  0  0
   -2.4141    2.1571    4.0224 B   0  0  0  0  0  0  0  0  0  0  0  0
   -3.1779    1.9428    4.7836 H   0  0  0  0  0  0  0  0  0  0  0  0
    7.4886    8.4668    0.2771 C   0  0  0  0  0  0  0  0  0  0  0  0
    8.1995    9.0180    0.0351 H   0  0  0  0  0  0  0  0  0  0  0  0
    6.9434    8.5655    1.5410 C   0  0  0  0  0  0  0  0  0  0  0  0
    7.2990    9.1541    2.1673 H   0  0  0  0  0  0  0  0  0  0  0  0
    3.2963    4.8348    5.4118 C   0  0  0  0  0  0  0  0  0  0  0  0
    3.0118    5.7432    5.5338 H   0  0  0  0  0  0  0  0  0  0  0  0
    3.7018    4.5150    6.2211 H   0  0  0  0  0  0  0  0  0  0  0  0
    3.9360    4.7940    4.6968 H   0  0  0  0  0  0  0  0  0  0  0  0
    1.0590    7.4053    3.5678 C   0  0  0  0  0  0  0  0  0  0  0  0
    1.3033    7.2147    2.6588 H   0  0  0  0  0  0  0  0  0  0  0  0
    0.4319    8.1317    3.5845 H   0  0  0  0  0  0  0  0  0  0  0  0
    1.8429    7.6486    4.0649 H   0  0  0  0  0  0  0  0  0  0  0  0
   -1.2591    0.9050    3.6510 B   0  0  0  0  0  0  0  0  0  0  0  0
   -0.9060   -0.0340    4.1000 H   0  0  0  0  0  0  0  0  0  0  0  0
  1  2  1  0  0  0  0
  2  9  1  0  0  0  0
  3  1  1  0  0  0  0
  4  1  1  0  0  0  0
  5  1  1  0  0  0  0
  6  7  1  0  0  0  0
  8  3  1  0  0  0  0
  9  6  1  0  0  0  0
 10  3  1  0  0  0  0
 11 10  1  0  0  0  0
 12 15  1  0  0  0  0
 13  8  1  0  0  0  0
 14 13  1  0  0  0  0
 15  4  8  0  0  0  0
 16  8  1  0  0  0  0
 17 16  1  0  0  0  0
 18  3  1  0  0  0  0
 19 18  1  0  0  0  0
 20  6  1  0  0  0  0
 21 20  1  0  0  0  0
 22  6  1  0  0  0  0
 23 22  1  0  0  0  0
 24  2  1  0  0  0  0
 25 24  1  0  0  0  0
 26 10  1  0  0  0  0
 27 26  1  0  0  0  0
 28 26  1  0  0  0  0
 29 26  1  0  0  0  0
 30  2  1  0  0  0  0
 31 30  1  0  0  0  0
 32 18  1  0  0  0  0
 33 32  1  0  0  0  0
 34 32  1  0  0  0  0
 35 32  1  0  0  0  0
 36 13  1  0  0  0  0
 37 36  1  0  0  0  0
 38  6  1  0  0  0  0
 39 38  1  0  0  0  0
 40 18  1  0  0  0  0
 41 40  1  0  0  0  0
 42 40  1  0  0  0  0
 43 40  1  0  0  0  0
 44 12  4  0  0  0  0
 45 44  1  0  0  0  0
 46 12  4  0  0  0  0
 47 46  1  0  0  0  0
 48 24  1  0  0  0  0
 49 48  1  0  0  0  0
 50 48  1  0  0  0  0
 51 48  1  0  0  0  0
 52 10  1  0  0  0  0
 53 52  1  0  0  0  0
 54 52  1  0  0  0  0
 55 52  1  0  0  0  0
 56 46  4  0  0  0  0
 57 56  1  0  0  0  0
 58 30  1  0  0  0  0
 59 58  1  0  0  0  0
 60 58  1  0  0  0  0
 61 58  1  0  0  0  0
 62  6  1  0  0  0  0
 63 62  1  0  0  0  0
 64 56  4  0  0  0  0
 65 64  1  0  0  0  0
 66 44  4  0  0  0  0
 67 66  1  0  0  0  0
 68 30  1  0  0  0  0
 69 68  1  0  0  0  0
 70 68  1  0  0  0  0
 71 68  1  0  0  0  0
 72 24  1  0  0  0  0
 73 72  1  0  0  0  0
 74 72  1  0  0  0  0
 75 72  1  0  0  0  0
 76 13  1  0  0  0  0
 77 76  1  0  0  0  0
  5 15  8  0  0  0  0
  8  9  1  0  0  0  0
  8 38  1  0  0  0  0
  9 20  1  0  0  0  0
  9 38  1  0  0  0  0
 13 16  1  0  0  0  0
 16 22  1  0  0  0  0
 16 36  1  0  0  0  0
 16 38  1  0  0  0  0
 20 62  1  0  0  0  0
 20 76  1  0  0  0  0
 22 36  1  0  0  0  0
 22 38  1  0  0  0  0
 22 62  1  0  0  0  0
 36 62  1  0  0  0  0
 36 76  1  0  0  0  0
 62 76  1  0  0  0  0
 64 66  4  0  0  0  0
M  END
$$$$
BAHWOA

From CSD data. Using bond type 'Any'. No disordered atoms. Largest molecule.
138154  0  0  0  0  0  0  0  0999 V2000
    3.7492    9.0418    6.4256 Rh  0  0  0  0  0  0  0  0  0  0  0  0
    1.6529    8.9355    7.7144 Cl  0  0  0  0  0  0  0  0  0  0  0  0
    2.9647   10.4873    4.9384 P   0  0  0  0  0  0  0  0  0  0  0  0
    5.7604    9.3865    5.5330 P   0  0  0  0  0  0  0  0  0  0  0  0
    5.6202   11.4822    2.6641 F   0  0  0  0  0  0  0  0  0  0  0  0
    5.8474    9.5924    3.9879 O   0  0  0  0  0  0  0  0  0  0  0  0
    4.8518    9.4988    1.9043 F   0  0  0  0  0  0  0  0  0  0  0  0
    3.6615   10.6086    3.5479 O   0  0  0  0  0  0  0  0  0  0  0  0
    3.1661   12.1040    5.7538 C   0  0  0  0  0  0  0  0  0  0  0  0
    7.5389    7.8835    7.0565 C   0  0  0  0  0  0  0  0  0  0  0  0
    7.3140    8.4487    7.7597 H   0  0  0  0  0  0  0  0  0  0  0  0
    2.7066   12.3265    7.0484 C   0  0  0  0  0  0  0  0  0  0  0  0
    2.2288   11.6593    7.4867 H   0  0  0  0  0  0  0  0  0  0  0  0
    6.9908    8.0937    5.7990 C   0  0  0  0  0  0  0  0  0  0  0  0
    3.8990   13.1023    5.1154 C   0  0  0  0  0  0  0  0  0  0  0  0
    4.2208   12.9686    4.2530 H   0  0  0  0  0  0  0  0  0  0  0  0
    7.3485    7.2555    4.7414 C   0  0  0  0  0  0  0  0  0  0  0  0
    6.9984    7.3969    3.8918 H   0  0  0  0  0  0  0  0  0  0  0  0
    6.1341   11.2065    7.6175 C   0  0  0  0  0  0  0  0  0  0  0  0
    5.5784   10.6438    8.1086 H   0  0  0  0  0  0  0  0  0  0  0  0
    6.4548   10.8720    6.3100 C   0  0  0  0  0  0  0  0  0  0  0  0
    0.9153    9.7944    3.2082 C   0  0  0  0  0  0  0  0  0  0  0  0
    1.5995    9.5736    2.6174 H   0  0  0  0  0  0  0  0  0  0  0  0
    8.4251    6.8324    7.2677 C   0  0  0  0  0  0  0  0  0  0  0  0
    8.7946    6.6962    8.1104 H   0  0  0  0  0  0  0  0  0  0  0  0
    1.2201   10.3166    4.4641 C   0  0  0  0  0  0  0  0  0  0  0  0
    4.1461   14.3012    5.7780 C   0  0  0  0  0  0  0  0  0  0  0  0
    4.6302   14.9709    5.3520 H   0  0  0  0  0  0  0  0  0  0  0  0
    8.7561    5.9928    6.2214 C   0  0  0  0  0  0  0  0  0  0  0  0
    9.3345    5.2789    6.3643 H   0  0  0  0  0  0  0  0  0  0  0  0
   -0.4033    9.6063    2.8406 C   0  0  0  0  0  0  0  0  0  0  0  0
   -0.6036    9.2524    2.0047 H   0  0  0  0  0  0  0  0  0  0  0  0
    2.9509   13.5237    7.6885 C   0  0  0  0  0  0  0  0  0  0  0  0
    2.6235   13.6692    8.5464 H   0  0  0  0  0  0  0  0  0  0  0  0
    7.3023   11.7019    5.5910 C   0  0  0  0  0  0  0  0  0  0  0  0
    7.5269   11.4972    4.7121 H   0  0  0  0  0  0  0  0  0  0  0  0
    0.1861   10.6524    5.3218 C   0  0  0  0  0  0  0  0  0  0  0  0
    0.3781   11.0063    6.1599 H   0  0  0  0  0  0  0  0  0  0  0  0
    8.2303    6.2111    4.9719 C   0  0  0  0  0  0  0  0  0  0  0  0
    8.4694    5.6494    4.2704 H   0  0  0  0  0  0  0  0  0  0  0  0
    6.6190   12.3466    8.2027 C   0  0  0  0  0  0  0  0  0  0  0  0
    6.3808   12.5645    9.0751 H   0  0  0  0  0  0  0  0  0  0  0  0
   -1.4206    9.9371    3.6983 C   0  0  0  0  0  0  0  0  0  0  0  0
   -2.3048    9.8069    3.4426 H   0  0  0  0  0  0  0  0  0  0  0  0
    3.6809   14.5010    7.0549 C   0  0  0  0  0  0  0  0  0  0  0  0
    3.8606   15.3025    7.4917 H   0  0  0  0  0  0  0  0  0  0  0  0
   -1.1321   10.4627    4.9429 C   0  0  0  0  0  0  0  0  0  0  0  0
   -1.8221   10.6905    5.5249 H   0  0  0  0  0  0  0  0  0  0  0  0
    7.4641   13.1728    7.4869 C   0  0  0  0  0  0  0  0  0  0  0  0
    7.7970   13.9482    7.8765 H   0  0  0  0  0  0  0  0  0  0  0  0
    4.9997   10.3015    3.0260 B   0  0  0  0  0  0  0  0  0  0  0  0
    7.8115   12.8453    6.2020 C   0  0  0  0  0  0  0  0  0  0  0  0
    8.3963   13.3952    5.7320 H   0  0  0  0  0  0  0  0  0  0  0  0
    3.8495    7.2287    5.3395 C   0  0  0  0  0  0  0  0  0  0  0  0
    4.7158    6.8196    5.5444 H   0  0  0  0  0  0  0  0  0  0  0  0
    2.7555    6.2027    5.7555 C   0  0  0  0  0  0  0  0  0  0  0  0
    2.6245    6.0745    6.7178 H   0  0  0  0  0  0  0  0  0  0  0  0
    3.6596    7.1262    3.8773 C   0  0  0  0  0  0  0  0  0  0  0  0
    4.1827    7.6552    3.2400 H   0  0  0  0  0  0  0  0  0  0  0  0
    3.2957    5.6553    3.6322 C   0  0  0  0  0  0  0  0  0  0  0  0
    3.5733    5.1734    2.8251 H   0  0  0  0  0  0  0  0  0  0  0  0
    2.2059    6.7199    3.6145 C   0  0  0  0  0  0  0  0  0  0  0  0
    1.7279    6.9706    2.7973 H   0  0  0  0  0  0  0  0  0  0  0  0
    1.5375    6.6779    4.9655 C   0  0  0  0  0  0  0  0  0  0  0  0
    0.8063    6.0408    4.9955 H   0  0  0  0  0  0  0  0  0  0  0  0
    1.2282    7.5510    5.2512 H   0  0  0  0  0  0  0  0  0  0  0  0
    3.2393    5.0021    4.9800 C   0  0  0  0  0  0  0  0  0  0  0  0
    4.1101    4.6985    5.2786 H   0  0  0  0  0  0  0  0  0  0  0  0
    2.6060    4.2683    5.0063 H   0  0  0  0  0  0  0  0  0  0  0  0
    2.4961    7.7495    9.6961 Rh  0  0  0  0  0  0  0  0  0  0  0  0
    4.5924    7.8558    8.4073 Cl  0  0  0  0  0  0  0  0  0  0  0  0
    3.2806    6.3040   11.1833 P   0  0  0  0  0  0  0  0  0  0  0  0
    0.4850    7.4048   10.5888 P   0  0  0  0  0  0  0  0  0  0  0  0
    0.6251    5.3091   13.4576 F   0  0  0  0  0  0  0  0  0  0  0  0
    0.3980    7.1989   12.1339 O   0  0  0  0  0  0  0  0  0  0  0  0
    1.3935    7.2925   14.2174 F   0  0  0  0  0  0  0  0  0  0  0  0
    2.5839    6.1827   12.5738 O   0  0  0  0  0  0  0  0  0  0  0  0
    3.0792    4.6873   10.3679 C   0  0  0  0  0  0  0  0  0  0  0  0
   -1.2935    8.9078    9.0652 C   0  0  0  0  0  0  0  0  0  0  0  0
   -1.0686    8.3426    8.3621 H   0  0  0  0  0  0  0  0  0  0  0  0
    3.5388    4.4648    9.0733 C   0  0  0  0  0  0  0  0  0  0  0  0
    4.0166    5.1320    8.6350 H   0  0  0  0  0  0  0  0  0  0  0  0
   -0.7454    8.6976   10.3227 C   0  0  0  0  0  0  0  0  0  0  0  0
    2.3464    3.6890   11.0063 C   0  0  0  0  0  0  0  0  0  0  0  0
    2.0246    3.8227   11.8688 H   0  0  0  0  0  0  0  0  0  0  0  0
   -1.1031    9.5358   11.3803 C   0  0  0  0  0  0  0  0  0  0  0  0
   -0.7530    9.3944   12.2299 H   0  0  0  0  0  0  0  0  0  0  0  0
    0.1112    5.5848    8.5042 C   0  0  0  0  0  0  0  0  0  0  0  0
    0.6669    6.1475    8.0132 H   0  0  0  0  0  0  0  0  0  0  0  0
   -0.2094    5.9193    9.8117 C   0  0  0  0  0  0  0  0  0  0  0  0
    5.3300    6.9969   12.9135 C   0  0  0  0  0  0  0  0  0  0  0  0
    4.6459    7.2177   13.5044 H   0  0  0  0  0  0  0  0  0  0  0  0
   -2.1798    9.9589    8.8541 C   0  0  0  0  0  0  0  0  0  0  0  0
   -2.5492   10.0951    8.0113 H   0  0  0  0  0  0  0  0  0  0  0  0
    5.0252    6.4747   11.6576 C   0  0  0  0  0  0  0  0  0  0  0  0
    2.0993    2.4901   10.3437 C   0  0  0  0  0  0  0  0  0  0  0  0
    1.6151    1.8204   10.7697 H   0  0  0  0  0  0  0  0  0  0  0  0
   -2.5108   10.7985    9.9004 C   0  0  0  0  0  0  0  0  0  0  0  0
   -3.0891   11.5124    9.7574 H   0  0  0  0  0  0  0  0  0  0  0  0
    6.6487    7.1850   13.2811 C   0  0  0  0  0  0  0  0  0  0  0  0
    6.8490    7.5389   14.1171 H   0  0  0  0  0  0  0  0  0  0  0  0
    3.2944    3.2676    8.4333 C   0  0  0  0  0  0  0  0  0  0  0  0
    3.6218    3.1221    7.5754 H   0  0  0  0  0  0  0  0  0  0  0  0
   -1.0569    5.0894   10.5307 C   0  0  0  0  0  0  0  0  0  0  0  0
   -1.2815    5.2941   11.4096 H   0  0  0  0  0  0  0  0  0  0  0  0
    6.0592    6.1389   10.7999 C   0  0  0  0  0  0  0  0  0  0  0  0
    5.8673    5.7850    9.9618 H   0  0  0  0  0  0  0  0  0  0  0  0
   -1.9849   10.5802   11.1498 C   0  0  0  0  0  0  0  0  0  0  0  0
   -2.2240   11.1419   11.8513 H   0  0  0  0  0  0  0  0  0  0  0  0
   -0.3737    4.4447    7.9190 C   0  0  0  0  0  0  0  0  0  0  0  0
   -0.1354    4.2268    7.0466 H   0  0  0  0  0  0  0  0  0  0  0  0
    7.6659    6.8542   12.4234 C   0  0  0  0  0  0  0  0  0  0  0  0
    8.5501    6.9844   12.6791 H   0  0  0  0  0  0  0  0  0  0  0  0
    2.5645    2.2903    9.0669 C   0  0  0  0  0  0  0  0  0  0  0  0
    2.3848    1.4888    8.6301 H   0  0  0  0  0  0  0  0  0  0  0  0
    7.3774    6.3286   11.1788 C   0  0  0  0  0  0  0  0  0  0  0  0
    8.0675    6.1008   10.5968 H   0  0  0  0  0  0  0  0  0  0  0  0
   -1.2188    3.6185    8.6348 C   0  0  0  0  0  0  0  0  0  0  0  0
   -1.5516    2.8431    8.2452 H   0  0  0  0  0  0  0  0  0  0  0  0
    1.2456    6.4898   13.0957 B   0  0  0  0  0  0  0  0  0  0  0  0
   -1.5662    3.9460    9.9197 C   0  0  0  0  0  0  0  0  0  0  0  0
   -2.1510    3.3961   10.3897 H   0  0  0  0  0  0  0  0  0  0  0  0
    2.3958    9.5626   10.7822 C   0  0  0  0  0  0  0  0  0  0  0  0
    1.5295    9.9717   10.5773 H   0  0  0  0  0  0  0  0  0  0  0  0
    3.4898   10.5886   10.3663 C   0  0  0  0  0  0  0  0  0  0  0  0
    3.6208   10.7168    9.4039 H   0  0  0  0  0  0  0  0  0  0  0  0
    2.5858    9.6651   12.2445 C   0  0  0  0  0  0  0  0  0  0  0  0
    2.0627    9.1361   12.8817 H   0  0  0  0  0  0  0  0  0  0  0  0
    2.9496   11.1360   12.4895 C   0  0  0  0  0  0  0  0  0  0  0  0
    2.6720   11.6179   13.2966 H   0  0  0  0  0  0  0  0  0  0  0  0
    4.0395   10.0714   12.5072 C   0  0  0  0  0  0  0  0  0  0  0  0
    4.5174    9.8207   13.3244 H   0  0  0  0  0  0  0  0  0  0  0  0
    4.7079   10.1134   11.1562 C   0  0  0  0  0  0  0  0  0  0  0  0
    5.4390   10.7505   11.1262 H   0  0  0  0  0  0  0  0  0  0  0  0
    5.0172    9.2403   10.8706 H   0  0  0  0  0  0  0  0  0  0  0  0
    3.0061   11.7892   11.1417 C   0  0  0  0  0  0  0  0  0  0  0  0
    2.1352   12.0928   10.8431 H   0  0  0  0  0  0  0  0  0  0  0  0
    3.6394   12.5230   11.1154 H   0  0  0  0  0  0  0  0  0  0  0  0
  1  2  1  0  0  0  0
  2 70  1  0  0  0  0
  3  1  1  0  0  0  0
  4  1  1  0  0  0  0
  5 51  1  0  0  0  0
  6  4  1  0  0  0  0
  7 51  1  0  0  0  0
  8  3  1  0  0  0  0
  9  3  1  0  0  0  0
 10 11  1  0  0  0  0
 12  9  4  0  0  0  0
 13 12  1  0  0  0  0
 14  4  1  0  0  0  0
 15  9  4  0  0  0  0
 16 15  1  0  0  0  0
 17 14  4  0  0  0  0
 18 17  1  0  0  0  0
 19 20  1  0  0  0  0
 21  4  1  0  0  0  0
 22 23  1  0  0  0  0
 24 10  4  0  0  0  0
 25 24  1  0  0  0  0
 26  3  1  0  0  0  0
 27 15  4  0  0  0  0
 28 27  1  0  0  0  0
 29 24  4  0  0  0  0
 30 29  1  0  0  0  0
 31 22  4  0  0  0  0
 32 31  1  0  0  0  0
 33 12  4  0  0  0  0
 34 33  1  0  0  0  0
 35 21  4  0  0  0  0
 36 35  1  0  0  0  0
 37 26  4  0  0  0  0
 38 37  1  0  0  0  0
 39 17  4  0  0  0  0
 40 39  1  0  0  0  0
 41 19  4  0  0  0  0
 42 41  1  0  0  0  0
 43 31  4  0  0  0  0
 44 43  1  0  0  0  0
 45 27  4  0  0  0  0
 46 45  1  0  0  0  0
 47 37  4  0  0  0  0
 48 47  1  0  0  0  0
 49 41  4  0  0  0  0
 50 49  1  0  0  0  0
 51  6  1  0  0  0  0
 52 35  4  0  0  0  0
 53 52  1  0  0  0  0
 54  1  1  0  0  0  0
 55 54  1  0  0  0  0
 56 54  1  0  0  0  0
 57 56  1  0  0  0  0
 58 54  1  0  0  0  0
 59 58  1  0  0  0  0
 60 58  1  0  0  0  0
 61 60  1  0  0  0  0
 62 58  1  0  0  0  0
 63 62  1  0  0  0  0
 64 56  1  0  0  0  0
 65 64  1  0  0  0  0
 66 64  1  0  0  0  0
 67 56  1  0  0  0  0
 68 67  1  0  0  0  0
 69 67  1  0  0  0  0
 70 71  1  0  0  0  0
 71  1  1  0  0  0  0
 72 70  1  0  0  0  0
 73 70  1  0  0  0  0
 74120  1  0  0  0  0
 75 73  1  0  0  0  0
 76120  1  0  0  0  0
 77 72  1  0  0  0  0
 78 72  1  0  0  0  0
 79 80  1  0  0  0  0
 81 78  4  0  0  0  0
 82 81  1  0  0  0  0
 83 73  1  0  0  0  0
 84 78  4  0  0  0  0
 85 84  1  0  0  0  0
 86 83  4  0  0  0  0
 87 86  1  0  0  0  0
 88 89  1  0  0  0  0
 90 73  1  0  0  0  0
 91 92  1  0  0  0  0
 93 79  4  0  0  0  0
 94 93  1  0  0  0  0
 95 72  1  0  0  0  0
 96 84  4  0  0  0  0
 97 96  1  0  0  0  0
 98 93  4  0  0  0  0
 99 98  1  0  0  0  0
100 91  4  0  0  0  0
101100  1  0  0  0  0
102 81  4  0  0  0  0
103102  1  0  0  0  0
104 90  4  0  0  0  0
105104  1  0  0  0  0
106 95  4  0  0  0  0
107106  1  0  0  0  0
108 86  4  0  0  0  0
109108  1  0  0  0  0
110 88  4  0  0  0  0
111110  1  0  0  0  0
112100  4  0  0  0  0
113112  1  0  0  0  0
114 96  4  0  0  0  0
115114  1  0  0  0  0
116106  4  0  0  0  0
117116  1  0  0  0  0
118110  4  0  0  0  0
119118  1  0  0  0  0
120 75  1  0  0  0  0
121104  4  0  0  0  0
122121  1  0  0  0  0
123 70  1  0  0  0  0
124123  1  0  0  0  0
125123  1  0  0  0  0
126125  1  0  0  0  0
127123  1  0  0  0  0
128127  1  0  0  0  0
129127  1  0  0  0  0
130129  1  0  0  0  0
131127  1  0  0  0  0
132131  1  0  0  0  0
133125  1  0  0  0  0
134133  1  0  0  0  0
135133  1  0  0  0  0
136125  1  0  0  0  0
137136  1  0  0  0  0
138136  1  0  0  0  0
  8 51  1  0  0  0  0
 10 14  4  0  0  0  0
 19 21  4  0  0  0  0
 22 26  4  0  0  0  0
 29 39  4  0  0  0  0
 33 45  4  0  0  0  0
 43 47  4  0  0  0  0
 49 52  4  0  0  0  0
 60 62  1  0  0  0  0
 60 67  1  0  0  0  0
 62 64  1  0  0  0  0
 77120  1  0  0  0  0
 79 83  4  0  0  0  0
 88 90  4  0  0  0  0
 91 95  4  0  0  0  0
 98108  4  0  0  0  0
102114  4  0  0  0  0
112116  4  0  0  0  0
118121  4  0  0  0  0
129131  1  0  0  0  0
129136  1  0  0  0  0
131133  1  0  0  0  0
M  END
$$$$
BAYGER

From CSD data. Using bond type 'Any'. No disordered atoms. Largest molecule.
118122  0  0  0  0  0  0  0  0999 V2000
   11.2741    6.4301    4.1703 Mg  0  2  0  0  0  0  0  0  0  0  0  0
    8.0438    7.0392    3.5501 P   0  0  0  0  0  0  0  0  0  0  0  0
    9.4842    6.6556    3.3839 O   0  0  0  0  0  0  0  0  0  0  0  0
   10.1128    7.1938    6.2441 B   0  5  0  0  0  0  0  0  0  0  0  0
   10.5548    7.9423    5.4380 H   0  0  0  0  0  0  0  0  0  0  0  0
   10.3345    6.0964    5.8451 H   0  0  0  0  0  0  0  0  0  0  0  0
    7.0640    5.6872    2.7224 C   0  0  0  0  0  0  0  0  0  0  0  0
    5.6110    6.0075    2.3467 C   0  0  0  0  0  0  0  0  0  0  0  0
    5.5927    6.7740    1.7365 H   0  0  0  0  0  0  0  0  0  0  0  0
    5.1036    6.2223    3.1577 H   0  0  0  0  0  0  0  0  0  0  0  0
    5.2076    5.2299    1.9066 H   0  0  0  0  0  0  0  0  0  0  0  0
    7.8092    5.2849    1.4372 C   0  0  0  0  0  0  0  0  0  0  0  0
    7.8042    6.0364    0.8074 H   0  0  0  0  0  0  0  0  0  0  0  0
    7.3622    4.5143    1.0276 H   0  0  0  0  0  0  0  0  0  0  0  0
    8.7334    5.0480    1.6564 H   0  0  0  0  0  0  0  0  0  0  0  0
    7.0926    4.4893    3.6777 C   0  0  0  0  0  0  0  0  0  0  0  0
    8.0207    4.2845    3.9167 H   0  0  0  0  0  0  0  0  0  0  0  0
    6.6888    3.7108    3.2378 H   0  0  0  0  0  0  0  0  0  0  0  0
    6.5847    4.7052    4.4889 H   0  0  0  0  0  0  0  0  0  0  0  0
    7.7741    8.6996    2.7852 C   0  0  0  0  0  0  0  0  0  0  0  0
    7.9536    8.6329    1.2678 C   0  0  0  0  0  0  0  0  0  0  0  0
    7.2563    8.0632    0.8808 H   0  0  0  0  0  0  0  0  0  0  0  0
    8.8343    8.2571    1.0592 H   0  0  0  0  0  0  0  0  0  0  0  0
    7.8855    9.5344    0.8908 H   0  0  0  0  0  0  0  0  0  0  0  0
    8.8780    9.5933    3.3702 C   0  0  0  0  0  0  0  0  0  0  0  0
    8.7729    9.6473    4.3438 H   0  0  0  0  0  0  0  0  0  0  0  0
    8.8090   10.4918    2.9842 H   0  0  0  0  0  0  0  0  0  0  0  0
    9.7542    9.2116    3.1561 H   0  0  0  0  0  0  0  0  0  0  0  0
    6.4124    9.3245    3.1177 C   0  0  0  0  0  0  0  0  0  0  0  0
    6.3013    9.3665    4.0902 H   0  0  0  0  0  0  0  0  0  0  0  0
    5.6973    8.7758    2.7307 H   0  0  0  0  0  0  0  0  0  0  0  0
    6.3684   10.2290    2.7440 H   0  0  0  0  0  0  0  0  0  0  0  0
    8.4873    7.3009    6.3593 C   0  0  0  0  0  0  0  0  0  0  0  0
    7.5475    7.1893    5.2976 C   0  0  0  0  0  0  0  0  0  0  0  0
    6.1687    7.2307    5.5636 C   0  0  0  0  0  0  0  0  0  0  0  0
    5.5578    7.1568    4.8408 H   0  0  0  0  0  0  0  0  0  0  0  0
    5.6791    7.3766    6.8454 C   0  0  0  0  0  0  0  0  0  0  0  0
    4.7424    7.3916    7.0061 H   0  0  0  0  0  0  0  0  0  0  0  0
    6.5751    7.5008    7.8896 C   0  0  0  0  0  0  0  0  0  0  0  0
    6.2573    7.6125    8.7793 H   0  0  0  0  0  0  0  0  0  0  0  0
    7.9327    7.4617    7.6371 C   0  0  0  0  0  0  0  0  0  0  0  0
    8.5263    7.5495    8.3739 H   0  0  0  0  0  0  0  0  0  0  0  0
   10.8971    7.3933    7.6369 C   0  0  0  0  0  0  0  0  0  0  0  0
   11.1313    8.6444    8.2063 C   0  0  0  0  0  0  0  0  0  0  0  0
   10.8361    9.4204    7.7450 H   0  0  0  0  0  0  0  0  0  0  0  0
   11.7834    8.7978    9.4268 C   0  0  0  0  0  0  0  0  0  0  0  0
   11.9179    9.6653    9.7885 H   0  0  0  0  0  0  0  0  0  0  0  0
   12.2338    7.6865   10.1092 C   0  0  0  0  0  0  0  0  0  0  0  0
   12.6750    7.7844   10.9445 H   0  0  0  0  0  0  0  0  0  0  0  0
   12.0391    6.4342    9.5696 C   0  0  0  0  0  0  0  0  0  0  0  0
   12.3578    5.6647   10.0270 H   0  0  0  0  0  0  0  0  0  0  0  0
   11.3755    6.2974    8.3564 C   0  0  0  0  0  0  0  0  0  0  0  0
   11.2417    5.4258    8.0036 H   0  0  0  0  0  0  0  0  0  0  0  0
   11.2741    4.3233    4.1703 O   0  0  0  0  0  0  0  0  0  0  0  0
   11.2035    3.4879    5.3515 C   0  0  0  0  0  0  0  0  0  0  0  0
   10.4730    3.7868    5.9468 H   0  0  0  0  0  0  0  0  0  0  0  0
   12.0572    3.5199    5.8534 H   0  0  0  0  0  0  0  0  0  0  0  0
   10.9412    2.1088    4.8497 C   0  0  0  0  0  0  0  0  0  0  0  0
    9.9698    1.9359    4.7725 H   0  0  0  0  0  0  0  0  0  0  0  0
   11.3439    1.4292    5.4464 H   0  0  0  0  0  0  0  0  0  0  0  0
   11.3447    3.4879    2.9891 C   0  0  0  0  0  0  0  0  0  0  0  0
   12.0751    3.7868    2.3937 H   0  0  0  0  0  0  0  0  0  0  0  0
   10.4909    3.5199    2.4871 H   0  0  0  0  0  0  0  0  0  0  0  0
   11.6070    2.1088    3.4908 C   0  0  0  0  0  0  0  0  0  0  0  0
   12.5783    1.9359    3.5681 H   0  0  0  0  0  0  0  0  0  0  0  0
   11.2042    1.4292    2.8942 H   0  0  0  0  0  0  0  0  0  0  0  0
   14.5044    7.0392    4.7905 P   0  0  0  0  0  0  0  0  0  0  0  0
   13.0639    6.6556    4.9566 O   0  0  0  0  0  0  0  0  0  0  0  0
   12.4353    7.1938    2.0965 B   0  5  0  0  0  0  0  0  0  0  0  0
   11.9933    7.9423    2.9025 H   0  0  0  0  0  0  0  0  0  0  0  0
   12.2136    6.0964    2.4955 H   0  0  0  0  0  0  0  0  0  0  0  0
   15.4842    5.6872    5.6182 C   0  0  0  0  0  0  0  0  0  0  0  0
   16.9372    6.0075    5.9938 C   0  0  0  0  0  0  0  0  0  0  0  0
   16.9555    6.7740    6.6040 H   0  0  0  0  0  0  0  0  0  0  0  0
   17.4445    6.2223    5.1828 H   0  0  0  0  0  0  0  0  0  0  0  0
   17.3405    5.2299    6.4339 H   0  0  0  0  0  0  0  0  0  0  0  0
   14.7390    5.2849    6.9033 C   0  0  0  0  0  0  0  0  0  0  0  0
   14.7439    6.0364    7.5332 H   0  0  0  0  0  0  0  0  0  0  0  0
   15.1860    4.5143    7.3130 H   0  0  0  0  0  0  0  0  0  0  0  0
   13.8147    5.0480    6.6841 H   0  0  0  0  0  0  0  0  0  0  0  0
   15.4555    4.4893    4.6629 C   0  0  0  0  0  0  0  0  0  0  0  0
   14.5274    4.2845    4.4238 H   0  0  0  0  0  0  0  0  0  0  0  0
   15.8594    3.7108    5.1027 H   0  0  0  0  0  0  0  0  0  0  0  0
   15.9634    4.7052    3.8517 H   0  0  0  0  0  0  0  0  0  0  0  0
   14.7740    8.6996    5.5553 C   0  0  0  0  0  0  0  0  0  0  0  0
   14.5945    8.6329    7.0728 C   0  0  0  0  0  0  0  0  0  0  0  0
   15.2919    8.0632    7.4598 H   0  0  0  0  0  0  0  0  0  0  0  0
   13.7139    8.2571    7.2813 H   0  0  0  0  0  0  0  0  0  0  0  0
   14.6627    9.5344    7.4498 H   0  0  0  0  0  0  0  0  0  0  0  0
   13.6701    9.5933    4.9703 C   0  0  0  0  0  0  0  0  0  0  0  0
   13.7752    9.6473    3.9968 H   0  0  0  0  0  0  0  0  0  0  0  0
   13.7391   10.4918    5.3563 H   0  0  0  0  0  0  0  0  0  0  0  0
   12.7940    9.2116    5.1845 H   0  0  0  0  0  0  0  0  0  0  0  0
   16.1358    9.3245    5.2228 C   0  0  0  0  0  0  0  0  0  0  0  0
   16.2468    9.3665    4.2503 H   0  0  0  0  0  0  0  0  0  0  0  0
   16.8508    8.7758    5.6098 H   0  0  0  0  0  0  0  0  0  0  0  0
   16.1797   10.2290    5.5965 H   0  0  0  0  0  0  0  0  0  0  0  0
   14.0608    7.3009    1.9812 C   0  0  0  0  0  0  0  0  0  0  0  0
   15.0006    7.1893    3.0430 C   0  0  0  0  0  0  0  0  0  0  0  0
   16.3794    7.2307    2.7769 C   0  0  0  0  0  0  0  0  0  0  0  0
   16.9903    7.1568    3.4997 H   0  0  0  0  0  0  0  0  0  0  0  0
   16.8690    7.3766    1.4951 C   0  0  0  0  0  0  0  0  0  0  0  0
   17.8057    7.3916    1.3345 H   0  0  0  0  0  0  0  0  0  0  0  0
   15.9731    7.5008    0.4509 C   0  0  0  0  0  0  0  0  0  0  0  0
   16.2908    7.6125   -0.4387 H   0  0  0  0  0  0  0  0  0  0  0  0
   14.6154    7.4617    0.7034 C   0  0  0  0  0  0  0  0  0  0  0  0
   14.0218    7.5495   -0.0334 H   0  0  0  0  0  0  0  0  0  0  0  0
   11.6510    7.3933    0.7036 C   0  0  0  0  0  0  0  0  0  0  0  0
   11.4168    8.6444    0.1343 C   0  0  0  0  0  0  0  0  0  0  0  0
   11.7120    9.4204    0.5955 H   0  0  0  0  0  0  0  0  0  0  0  0
   10.7647    8.7978   -1.0863 C   0  0  0  0  0  0  0  0  0  0  0  0
   10.6303    9.6653   -1.4479 H   0  0  0  0  0  0  0  0  0  0  0  0
   10.3143    7.6865   -1.7687 C   0  0  0  0  0  0  0  0  0  0  0  0
    9.8731    7.7844   -2.6039 H   0  0  0  0  0  0  0  0  0  0  0  0
   10.5090    6.4342   -1.2291 C   0  0  0  0  0  0  0  0  0  0  0  0
   10.1903    5.6647   -1.6865 H   0  0  0  0  0  0  0  0  0  0  0  0
   11.1726    6.2974   -0.0158 C   0  0  0  0  0  0  0  0  0  0  0  0
   11.3065    5.4258    0.3370 H   0  0  0  0  0  0  0  0  0  0  0  0
  1  3  1  0  0  0  0
  2  3  2  0  0  0  0
  4  5  1  0  0  0  0
  6  4  1  0  0  0  0
  7  2  1  0  0  0  0
  8  7  1  0  0  0  0
  9  8  1  0  0  0  0
 10  8  1  0  0  0  0
 11  8  1  0  0  0  0
 12  7  1  0  0  0  0
 13 12  1  0  0  0  0
 14 12  1  0  0  0  0
 15 12  1  0  0  0  0
 16  7  1  0  0  0  0
 17 16  1  0  0  0  0
 18 16  1  0  0  0  0
 19 16  1  0  0  0  0
 20  2  1  0  0  0  0
 21 20  1  0  0  0  0
 22 21  1  0  0  0  0
 23 21  1  0  0  0  0
 24 21  1  0  0  0  0
 25 20  1  0  0  0  0
 26 25  1  0  0  0  0
 27 25  1  0  0  0  0
 28 25  1  0  0  0  0
 29 20  1  0  0  0  0
 30 29  1  0  0  0  0
 31 29  1  0  0  0  0
 32 29  1  0  0  0  0
 33  4  1  0  0  0  0
 34  2  1  0  0  0  0
 35 34  4  0  0  0  0
 36 35  1  0  0  0  0
 37 35  4  0  0  0  0
 38 37  1  0  0  0  0
 39 37  4  0  0  0  0
 40 39  1  0  0  0  0
 41 33  4  0  0  0  0
 42 41  1  0  0  0  0
 43  4  1  0  0  0  0
 44 43  4  0  0  0  0
 45 44  1  0  0  0  0
 46 44  4  0  0  0  0
 47 46  1  0  0  0  0
 48 46  4  0  0  0  0
 49 48  1  0  0  0  0
 50 48  4  0  0  0  0
 51 50  1  0  0  0  0
 52 43  4  0  0  0  0
 53 52  1  0  0  0  0
 54  1  1  0  0  0  0
 55 54  1  0  0  0  0
 56 55  1  0  0  0  0
 57 55  1  0  0  0  0
 58 55  1  0  0  0  0
 59 58  1  0  0  0  0
 60 58  1  0  0  0  0
 61 54  1  0  0  0  0
 62 61  1  0  0  0  0
 63 61  1  0  0  0  0
 64 58  1  0  0  0  0
 65 64  1  0  0  0  0
 66 64  1  0  0  0  0
 67 68  2  0  0  0  0
 68  1  1  0  0  0  0
 69 70  1  0  0  0  0
 71 69  1  0  0  0  0
 72 67  1  0  0  0  0
 73 72  1  0  0  0  0
 74 73  1  0  0  0  0
 75 73  1  0  0  0  0
 76 73  1  0  0  0  0
 77 72  1  0  0  0  0
 78 77  1  0  0  0  0
 79 77  1  0  0  0  0
 80 77  1  0  0  0  0
 81 72  1  0  0  0  0
 82 81  1  0  0  0  0
 83 81  1  0  0  0  0
 84 81  1  0  0  0  0
 85 67  1  0  0  0  0
 86 85  1  0  0  0  0
 87 86  1  0  0  0  0
 88 86  1  0  0  0  0
 89 86  1  0  0  0  0
 90 85  1  0  0  0  0
 91 90  1  0  0  0  0
 92 90  1  0  0  0  0
 93 90  1  0  0  0  0
 94 85  1  0  0  0  0
 95 94  1  0  0  0  0
 96 94  1  0  0  0  0
 97 94  1  0  0  0  0
 98 69  1  0  0  0  0
 99 67  1  0  0  0  0
100 99  4  0  0  0  0
101100  1  0  0  0  0
102100  4  0  0  0  0
103102  1  0  0  0  0
104102  4  0  0  0  0
105104  1  0  0  0  0
106 98  4  0  0  0  0
107106  1  0  0  0  0
108 69  1  0  0  0  0
109108  4  0  0  0  0
110109  1  0  0  0  0
111109  4  0  0  0  0
112111  1  0  0  0  0
113111  4  0  0  0  0
114113  1  0  0  0  0
115113  4  0  0  0  0
116115  1  0  0  0  0
117108  4  0  0  0  0
118117  1  0  0  0  0
 33 34  4  0  0  0  0
 39 41  4  0  0  0  0
 50 52  4  0  0  0  0
 61 64  1  0  0  0  0
 98 99  4  0  0  0  0
104106  4  0  0  0  0
115117  4  0  0  0  0
M  CHG  3   1   2   4  -1  69  -1
M  END
$$$$
BEKFUS

From CSD data. Using bond type 'Any'. No disordered atoms. Largest molecule.
 38 47  0  0  0  0  0  0  0  0999 V2000
    2.3546    2.7102    0.4902 Ir  0  0  0  0  0  0  0  0  0  0  0  0
    4.3619    3.2747    1.5392 P   0  0  0  0  0  0  0  0  0  0  0  0
    1.1691    2.1524    2.4372 P   0  0  0  0  0  0  0  0  0  0  0  0
    2.1862    1.1998   -2.6737 Cl  0  0  0  0  0  0  0  0  0  0  0  0
    2.9246    0.8823    0.2154 C   0  0  0  0  0  0  0  0  0  0  0  0
    3.2769   -0.1697    0.1537 O   0  0  0  0  0  0  0  0  0  0  0  0
    1.7807    2.7123   -1.6963 B   0  0  0  0  0  0  0  0  0  0  0  0
    3.1293    3.8176   -1.3601 B   0  0  0  0  0  0  0  0  0  0  0  0
    0.3447    2.6978   -0.5947 B   0  0  0  0  0  0  0  0  0  0  0  0
   -0.4777    4.3921   -0.9115 B   0  0  0  0  0  0  0  0  0  0  0  0
    0.3389    3.5437   -2.2023 B   0  0  0  0  0  0  0  0  0  0  0  0
    0.6590    5.2768   -1.9835 B   0  0  0  0  0  0  0  0  0  0  0  0
    1.9139    4.2127   -2.6475 B   0  0  0  0  0  0  0  0  0  0  0  0
    2.4895    5.5750   -1.6819 B   0  0  0  0  0  0  0  0  0  0  0  0
    5.0300    1.9828    2.6610 C   0  0  0  0  0  0  0  0  0  0  0  0
    4.2708    1.6992    3.3766 H   0  0  0  0  0  0  0  0  0  0  0  0
    5.8919    2.3682    3.1848 H   0  0  0  0  0  0  0  0  0  0  0  0
    5.3191    1.1174    2.0832 H   0  0  0  0  0  0  0  0  0  0  0  0
    4.3537    4.7751    2.5318 C   0  0  0  0  0  0  0  0  0  0  0  0
    3.5166    4.7557    3.2144 H   0  0  0  0  0  0  0  0  0  0  0  0
    4.2661    5.6331    1.8813 H   0  0  0  0  0  0  0  0  0  0  0  0
    5.2738    4.8430    3.0927 H   0  0  0  0  0  0  0  0  0  0  0  0
    5.8321    3.5316    0.4798 C   0  0  0  0  0  0  0  0  0  0  0  0
    5.6156    4.2855   -0.2636 H   0  0  0  0  0  0  0  0  0  0  0  0
    6.0894    2.6057   -0.0118 H   0  0  0  0  0  0  0  0  0  0  0  0
    6.6618    3.8564    1.0906 H   0  0  0  0  0  0  0  0  0  0  0  0
   -0.6194    2.4724    2.4228 C   0  0  0  0  0  0  0  0  0  0  0  0
   -1.0614    2.0409    1.5375 H   0  0  0  0  0  0  0  0  0  0  0  0
   -0.7893    3.5389    2.4262 H   0  0  0  0  0  0  0  0  0  0  0  0
   -1.0710    2.0337    3.3014 H   0  0  0  0  0  0  0  0  0  0  0  0
    1.2375    0.4242    2.8917 C   0  0  0  0  0  0  0  0  0  0  0  0
    1.0033   -0.1842    2.0308 H   0  0  0  0  0  0  0  0  0  0  0  0
    0.5200    0.2303    3.6756 H   0  0  0  0  0  0  0  0  0  0  0  0
    2.2297    0.1818    3.2439 H   0  0  0  0  0  0  0  0  0  0  0  0
    1.5884    2.9741    3.9848 C   0  0  0  0  0  0  0  0  0  0  0  0
    2.6478    2.8820    4.1690 H   0  0  0  0  0  0  0  0  0  0  0  0
    1.0407    2.5136    4.7949 H   0  0  0  0  0  0  0  0  0  0  0  0
    1.3224    4.0188    3.9198 H   0  0  0  0  0  0  0  0  0  0  0  0
  1  2  1  0  0  0  0
  2 15  1  0  0  0  0
  3  1  1  0  0  0  0
  4  7  1  0  0  0  0
  5  1  1  0  0  0  0
  6  5  3  0  0  0  0
  7  1  1  0  0  0  0
  8  1  1  0  0  0  0
  9  1  1  0  0  0  0
 10  9  1  0  0  0  0
 11  7  1  0  0  0  0
 12 10  1  0  0  0  0
 13  7  1  0  0  0  0
 14  8  1  0  0  0  0
 15 16  1  0  0  0  0
 17 15  1  0  0  0  0
 18 15  1  0  0  0  0
 19  2  1  0  0  0  0
 20 19  1  0  0  0  0
 21 19  1  0  0  0  0
 22 19  1  0  0  0  0
 23  2  1  0  0  0  0
 24 23  1  0  0  0  0
 25 23  1  0  0  0  0
 26 23  1  0  0  0  0
 27  3  1  0  0  0  0
 28 27  1  0  0  0  0
 29 27  1  0  0  0  0
 30 27  1  0  0  0  0
 31  3  1  0  0  0  0
 32 31  1  0  0  0  0
 33 31  1  0  0  0  0
 34 31  1  0  0  0  0
 35  3  1  0  0  0  0
 36 35  1  0  0  0  0
 37 35  1  0  0  0  0
 38 35  1  0  0  0  0
  7  8  1  0  0  0  0
  7  9  1  0  0  0  0
  8 13  1  0  0  0  0
  9 11  1  0  0  0  0
 10 11  1  0  0  0  0
 11 12  1  0  0  0  0
 11 13  1  0  0  0  0
 12 13  1  0  0  0  0
 12 14  1  0  0  0  0
 13 14  1  0  0  0  0
M  END
$$$$
BEKFUS10

From CSD data. Using bond type 'Any'. No disordered atoms. Largest molecule.
 37 46  0  0  0  0  0  0  0  0999 V2000
    2.3546    2.7102    0.4902 Ir  0  0  0  0  0  0  0  0  0  0  0  0
    4.3619    3.2723    1.5392 P   0  0  0  0  0  0  0  0  0  0  0  0
    1.1691    2.1524    2.4372 P   0  0  0  0  0  0  0  0  0  0  0  0
    2.1862    1.1998   -2.6737 Cl  0  0  0  0  0  0  0  0  0  0  0  0
    2.9246    0.8823    0.2154 C   0  0  0  0  0  0  0  0  0  0  0  0
    3.2769   -0.1697    0.1537 O   0  0  0  0  0  0  0  0  0  0  0  0
    1.7807    2.7123   -1.6963 B   0  0  0  0  0  0  0  0  0  0  0  0
    3.1293    3.8176   -1.3601 B   0  0  0  0  0  0  0  0  0  0  0  0
    0.3447    2.6978   -0.5947 B   0  0  0  0  0  0  0  0  0  0  0  0
   -0.4777    4.3921   -0.9115 B   0  0  0  0  0  0  0  0  0  0  0  0
    0.3389    3.5437   -2.2023 B   0  0  0  0  0  0  0  0  0  0  0  0
    0.6590    5.2768   -1.9835 B   0  0  0  0  0  0  0  0  0  0  0  0
    1.9139    4.2127   -2.6475 B   0  0  0  0  0  0  0  0  0  0  0  0
    2.4895    5.5750   -1.6819 B   0  0  0  0  0  0  0  0  0  0  0  0
    5.0300    1.9828    2.6610 C   0  0  0  0  0  0  0  0  0  0  0  0
    4.2708    1.6992    3.3766 H   0  0  0  0  0  0  0  0  0  0  0  0
    5.8919    2.3682    3.1848 H   0  0  0  0  0  0  0  0  0  0  0  0
    5.3191    1.1174    2.0832 H   0  0  0  0  0  0  0  0  0  0  0  0
    4.3537    4.7751    2.5318 C   0  0  0  0  0  0  0  0  0  0  0  0
    3.5166    4.7557    3.2144 H   0  0  0  0  0  0  0  0  0  0  0  0
    4.2661    5.6719    1.8813 H   0  0  0  0  0  0  0  0  0  0  0  0
    5.2738    4.8430    3.0927 H   0  0  0  0  0  0  0  0  0  0  0  0
    5.8321    3.5316    0.4798 C   0  0  0  0  0  0  0  0  0  0  0  0
    5.6156    4.2855   -0.2636 H   0  0  0  0  0  0  0  0  0  0  0  0
    6.0894    2.6057   -0.0118 H   0  0  0  0  0  0  0  0  0  0  0  0
    6.6618    3.8564    1.0906 H   0  0  0  0  0  0  0  0  0  0  0  0
   -0.6194    2.4724    2.4228 C   0  0  0  0  0  0  0  0  0  0  0  0
   -1.0614    2.0409    1.5375 H   0  0  0  0  0  0  0  0  0  0  0  0
   -0.7893    3.5389    2.4262 H   0  0  0  0  0  0  0  0  0  0  0  0
   -1.0710    2.0337    3.3014 H   0  0  0  0  0  0  0  0  0  0  0  0
    1.2375    0.4242    2.8917 C   0  0  0  0  0  0  0  0  0  0  0  0
    1.0033   -0.1842    2.0308 H   0  0  0  0  0  0  0  0  0  0  0  0
    0.5200    0.2303    3.6756 H   0  0  0  0  0  0  0  0  0  0  0  0
    2.2297    0.1818    3.2439 H   0  0  0  0  0  0  0  0  0  0  0  0
    1.5884    2.9741    3.9848 C   0  0  0  0  0  0  0  0  0  0  0  0
    2.6478    2.8820    4.1690 H   0  0  0  0  0  0  0  0  0  0  0  0
    1.3224    4.0188    3.9198 H   0  0  0  0  0  0  0  0  0  0  0  0
  1  2  1  0  0  0  0
  2 15  1  0  0  0  0
  3  1  1  0  0  0  0
  4  7  1  0  0  0  0
  5  1  1  0  0  0  0
  6  5  3  0  0  0  0
  7  1  1  0  0  0  0
  8  1  1  0  0  0  0
  9  1  1  0  0  0  0
 10  9  1  0  0  0  0
 11  7  1  0  0  0  0
 12 10  1  0  0  0  0
 13  7  1  0  0  0  0
 14  8  1  0  0  0  0
 15 16  1  0  0  0  0
 17 15  1  0  0  0  0
 18 15  1  0  0  0  0
 19  2  1  0  0  0  0
 20 19  1  0  0  0  0
 21 19  1  0  0  0  0
 22 19  1  0  0  0  0
 23  2  1  0  0  0  0
 24 23  1  0  0  0  0
 25 23  1  0  0  0  0
 26 23  1  0  0  0  0
 27  3  1  0  0  0  0
 28 27  1  0  0  0  0
 29 27  1  0  0  0  0
 30 27  1  0  0  0  0
 31  3  1  0  0  0  0
 32 31  1  0  0  0  0
 33 31  1  0  0  0  0
 34 31  1  0  0  0  0
 35  3  1  0  0  0  0
 36 35  1  0  0  0  0
 37 35  1  0  0  0  0
  7  8  1  0  0  0  0
  7  9  1  0  0  0  0
  8 13  1  0  0  0  0
  9 11  1  0  0  0  0
 10 11  1  0  0  0  0
 11 12  1  0  0  0  0
 11 13  1  0  0  0  0
 12 13  1  0  0  0  0
 12 14  1  0  0  0  0
 13 14  1  0  0  0  0
M  END
$$$$
BEKGED

From CSD data. Using bond type 'Any'. No disordered atoms. Largest molecule.
 37 47  0  0  0  0  0  0  0  0999 V2000
   -0.7804    0.9575    3.5764 B   0  0  0  0  0  0  0  0  0  0  0  0
   -0.2535    3.0469    3.2197 Ir  0  0  0  0  0  0  0  0  0  0  0  0
    0.2431    1.5412    4.8909 B   0  0  0  0  0  0  0  0  0  0  0  0
   -1.3434    0.7688    5.1531 B   0  0  0  0  0  0  0  0  0  0  0  0
   -2.2827    1.8042    3.9892 B   0  0  0  0  0  0  0  0  0  0  0  0
    0.0779    3.2687    5.5151 B   0  0  0  0  0  0  0  0  0  0  0  0
   -0.6820    1.9304    6.3898 B   0  0  0  0  0  0  0  0  0  0  0  0
   -2.4252    2.0884    5.8399 B   0  0  0  0  0  0  0  0  0  0  0  0
   -1.4280    3.5164    6.4371 B   0  0  0  0  0  0  0  0  0  0  0  0
    1.9995    2.9091    2.6848 P   0  0  0  0  0  0  0  0  0  0  0  0
   -1.0556    2.8478    1.0100 P   0  0  0  0  0  0  0  0  0  0  0  0
    2.5488    4.0517    1.4092 C   0  0  0  0  0  0  0  0  0  0  0  0
    1.9492    3.9102    0.5228 H   0  0  0  0  0  0  0  0  0  0  0  0
    3.5866    3.8607    1.1758 H   0  0  0  0  0  0  0  0  0  0  0  0
    2.4404    5.0682    1.7577 H   0  0  0  0  0  0  0  0  0  0  0  0
    2.5581    1.2806    2.1502 C   0  0  0  0  0  0  0  0  0  0  0  0
    1.9349    0.9280    1.3433 H   0  0  0  0  0  0  0  0  0  0  0  0
    2.4935    0.5931    2.9826 H   0  0  0  0  0  0  0  0  0  0  0  0
    3.5825    1.3431    1.8153 H   0  0  0  0  0  0  0  0  0  0  0  0
    3.1411    3.3383    4.0145 C   0  0  0  0  0  0  0  0  0  0  0  0
    2.9316    2.7240    4.8773 H   0  0  0  0  0  0  0  0  0  0  0  0
    3.0121    4.3795    4.2734 H   0  0  0  0  0  0  0  0  0  0  0  0
    4.1583    3.1720    3.6914 H   0  0  0  0  0  0  0  0  0  0  0  0
   -2.6743    2.1320    0.8323 C   0  0  0  0  0  0  0  0  0  0  0  0
   -3.3687    2.6096    1.5074 H   0  0  0  0  0  0  0  0  0  0  0  0
   -2.6267    1.0754    1.0540 H   0  0  0  0  0  0  0  0  0  0  0  0
   -3.0077    2.2711   -0.1861 H   0  0  0  0  0  0  0  0  0  0  0  0
   -1.2560    4.4090    0.1675 C   0  0  0  0  0  0  0  0  0  0  0  0
   -1.8184    5.0906    0.7867 H   0  0  0  0  0  0  0  0  0  0  0  0
   -1.7811    4.2522   -0.7647 H   0  0  0  0  0  0  0  0  0  0  0  0
   -0.2816    4.8265   -0.0355 H   0  0  0  0  0  0  0  0  0  0  0  0
   -0.1194    1.8973   -0.1743 C   0  0  0  0  0  0  0  0  0  0  0  0
    0.9070    2.2322   -0.1675 H   0  0  0  0  0  0  0  0  0  0  0  0
   -0.5393    2.0436   -1.1589 H   0  0  0  0  0  0  0  0  0  0  0  0
   -0.1575    0.8478    0.0812 H   0  0  0  0  0  0  0  0  0  0  0  0
   -0.1011    4.9526    3.1822 C   0  0  0  0  0  0  0  0  0  0  0  0
    0.0440    6.1012    3.2177 O   0  0  0  0  0  0  0  0  0  0  0  0
  1  2  1  0  0  0  0
  2  3  1  0  0  0  0
  3  1  1  0  0  0  0
  4  1  1  0  0  0  0
  5  1  1  0  0  0  0
  6  2  1  0  0  0  0
  7  3  1  0  0  0  0
  8  4  1  0  0  0  0
  9  6  1  0  0  0  0
 10  2  1  0  0  0  0
 11  2  1  0  0  0  0
 12 10  1  0  0  0  0
 13 12  1  0  0  0  0
 14 12  1  0  0  0  0
 15 12  1  0  0  0  0
 16 10  1  0  0  0  0
 17 16  1  0  0  0  0
 18 16  1  0  0  0  0
 19 16  1  0  0  0  0
 20 10  1  0  0  0  0
 21 20  1  0  0  0  0
 22 20  1  0  0  0  0
 23 20  1  0  0  0  0
 24 11  1  0  0  0  0
 25 24  1  0  0  0  0
 26 24  1  0  0  0  0
 27 24  1  0  0  0  0
 28 11  1  0  0  0  0
 29 28  1  0  0  0  0
 30 28  1  0  0  0  0
 31 28  1  0  0  0  0
 32 11  1  0  0  0  0
 33 32  1  0  0  0  0
 34 32  1  0  0  0  0
 35 32  1  0  0  0  0
 36  2  1  0  0  0  0
 37 36  3  0  0  0  0
  2  5  1  0  0  0  0
  3  4  1  0  0  0  0
  3  6  1  0  0  0  0
  4  5  1  0  0  0  0
  4  7  1  0  0  0  0
  5  8  1  0  0  0  0
  6  7  1  0  0  0  0
  7  8  1  0  0  0  0
  7  9  1  0  0  0  0
  8  9  1  0  0  0  0
M  END
$$$$
BEKGED10

From CSD data. Using bond type 'Any'. No disordered atoms. Largest molecule.
 37 47  0  0  0  0  0  0  0  0999 V2000
   -0.7804    0.9575    3.5764 B   0  0  0  0  0  0  0  0  0  0  0  0
   -0.2535    3.0469    3.2197 Ir  0  0  0  0  0  0  0  0  0  0  0  0
    0.2431    1.5412    4.8909 B   0  0  0  0  0  0  0  0  0  0  0  0
   -1.3434    0.7688    5.1531 B   0  0  0  0  0  0  0  0  0  0  0  0
   -2.2827    1.8042    3.9892 B   0  0  0  0  0  0  0  0  0  0  0  0
    0.0779    3.2687    5.5151 B   0  0  0  0  0  0  0  0  0  0  0  0
   -0.6820    1.9304    6.3898 B   0  0  0  0  0  0  0  0  0  0  0  0
   -2.4252    2.0884    5.8399 B   0  0  0  0  0  0  0  0  0  0  0  0
   -1.4280    3.5164    6.4371 B   0  0  0  0  0  0  0  0  0  0  0  0
    1.9995    2.9091    2.6848 P   0  0  0  0  0  0  0  0  0  0  0  0
   -1.0556    2.8478    1.0100 P   0  0  0  0  0  0  0  0  0  0  0  0
    2.5488    4.0517    1.4092 C   0  0  0  0  0  0  0  0  0  0  0  0
    1.9492    3.9102    0.5228 H   0  0  0  0  0  0  0  0  0  0  0  0
    3.5866    3.8607    1.1758 H   0  0  0  0  0  0  0  0  0  0  0  0
    2.4404    5.0682    1.7577 H   0  0  0  0  0  0  0  0  0  0  0  0
    2.5581    1.2806    2.1502 C   0  0  0  0  0  0  0  0  0  0  0  0
    1.9349    0.9280    1.3433 H   0  0  0  0  0  0  0  0  0  0  0  0
    2.4935    0.5931    2.9826 H   0  0  0  0  0  0  0  0  0  0  0  0
    3.5825    1.3431    1.8153 H   0  0  0  0  0  0  0  0  0  0  0  0
    3.1411    3.3383    4.0145 C   0  0  0  0  0  0  0  0  0  0  0  0
    2.9316    2.7240    4.8773 H   0  0  0  0  0  0  0  0  0  0  0  0
    3.0121    4.3795    4.2734 H   0  0  0  0  0  0  0  0  0  0  0  0
    4.1583    3.1720    3.6914 H   0  0  0  0  0  0  0  0  0  0  0  0
   -2.6743    2.1320    0.8323 C   0  0  0  0  0  0  0  0  0  0  0  0
   -3.3687    2.6096    1.5074 H   0  0  0  0  0  0  0  0  0  0  0  0
   -2.6267    1.0754    1.0540 H   0  0  0  0  0  0  0  0  0  0  0  0
   -3.0077    2.2711   -0.1861 H   0  0  0  0  0  0  0  0  0  0  0  0
   -1.2549    4.4090    0.1506 C   0  0  0  0  0  0  0  0  0  0  0  0
   -1.8184    5.0906    0.7867 H   0  0  0  0  0  0  0  0  0  0  0  0
   -1.7811    4.2522   -0.7647 H   0  0  0  0  0  0  0  0  0  0  0  0
   -0.2816    4.8265   -0.0355 H   0  0  0  0  0  0  0  0  0  0  0  0
   -0.1194    1.8973   -0.1743 C   0  0  0  0  0  0  0  0  0  0  0  0
    0.9070    2.2322   -0.1675 H   0  0  0  0  0  0  0  0  0  0  0  0
   -0.5393    2.0436   -1.1589 H   0  0  0  0  0  0  0  0  0  0  0  0
   -0.1575    0.8478    0.0812 H   0  0  0  0  0  0  0  0  0  0  0  0
   -0.1011    4.9526    3.1822 C   0  0  0  0  0  0  0  0  0  0  0  0
    0.0440    6.1012    3.2177 O   0  0  0  0  0  0  0  0  0  0  0  0
  1  2  1  0  0  0  0
  2  3  1  0  0  0  0
  3  1  1  0  0  0  0
  4  1  1  0  0  0  0
  5  1  1  0  0  0  0
  6  2  1  0  0  0  0
  7  3  1  0  0  0  0
  8  4  1  0  0  0  0
  9  6  1  0  0  0  0
 10  2  1  0  0  0  0
 11  2  1  0  0  0  0
 12 10  1  0  0  0  0
 13 12  1  0  0  0  0
 14 12  1  0  0  0  0
 15 12  1  0  0  0  0
 16 10  1  0  0  0  0
 17 16  1  0  0  0  0
 18 16  1  0  0  0  0
 19 16  1  0  0  0  0
 20 10  1  0  0  0  0
 21 20  1  0  0  0  0
 22 20  1  0  0  0  0
 23 20  1  0  0  0  0
 24 11  1  0  0  0  0
 25 24  1  0  0  0  0
 26 24  1  0  0  0  0
 27 24  1  0  0  0  0
 28 11  1  0  0  0  0
 29 28  1  0  0  0  0
 30 28  1  0  0  0  0
 31 28  1  0  0  0  0
 32 11  1  0  0  0  0
 33 32  1  0  0  0  0
 34 32  1  0  0  0  0
 35 32  1  0  0  0  0
 36  2  1  0  0  0  0
 37 36  3  0  0  0  0
  2  5  1  0  0  0  0
  3  4  1  0  0  0  0
  3  6  1  0  0  0  0
  4  5  1  0  0  0  0
  4  7  1  0  0  0  0
  5  8  1  0  0  0  0
  6  7  1  0  0  0  0
  7  8  1  0  0  0  0
  7  9  1  0  0  0  0
  8  9  1  0  0  0  0
M  END
$$$$
BEKSUF

From CSD data. Using bond type 'Any'. No disordered atoms. Largest molecule.
112129  0  0  0  0  0  0  0  0999 V2000
    3.1466    9.0927    3.3049 Ir  0  0  0  0  0  0  0  0  0  0  0  0
    1.2208    7.9748    5.0011 Ir  0  0  0  0  0  0  0  0  0  0  0  0
    5.1234    9.3942    2.0876 P   0  0  0  0  0  0  0  0  0  0  0  0
    1.6190    9.1920    6.9827 P   0  0  0  0  0  0  0  0  0  0  0  0
   -0.6735    8.4034    3.6924 P   0  0  0  0  0  0  0  0  0  0  0  0
    0.3143    6.7070    5.9530 C   0  0  0  0  0  0  0  0  0  0  0  0
   -0.2172    5.8416    6.5165 O   0  0  0  0  0  0  0  0  0  0  0  0
    2.0782    9.7663    1.8437 C   0  0  0  0  0  0  0  0  0  0  0  0
    1.4796   10.1100    0.9408 O   0  0  0  0  0  0  0  0  0  0  0  0
    3.4733   10.6418    4.3992 C   0  0  0  0  0  0  0  0  0  0  0  0
    3.6803   11.5173    5.0599 O   0  0  0  0  0  0  0  0  0  0  0  0
    3.3841    7.7119    5.1341 B   0  0  0  0  0  0  0  0  0  0  0  0
    3.6666    6.9698    3.5359 B   0  0  0  0  0  0  0  0  0  0  0  0
    2.5531    6.3066    4.5113 B   0  0  0  0  0  0  0  0  0  0  0  0
    1.9513    7.2145    3.0860 B   0  0  0  0  0  0  0  0  0  0  0  0
    5.6076    8.0516    0.9589 C   0  0  0  0  0  0  0  0  0  0  0  0
    6.9528    7.8049    0.6821 C   0  0  0  0  0  0  0  0  0  0  0  0
    7.3056    6.7959   -0.2158 C   0  0  0  0  0  0  0  0  0  0  0  0
    6.3148    6.0377   -0.8370 C   0  0  0  0  0  0  0  0  0  0  0  0
    4.9696    6.2844   -0.5602 C   0  0  0  0  0  0  0  0  0  0  0  0
    4.6168    7.2913    0.3378 C   0  0  0  0  0  0  0  0  0  0  0  0
    7.7193    8.3933    1.1632 H   0  0  0  0  0  0  0  0  0  0  0  0
    8.3465    6.6059   -0.4300 H   0  0  0  0  0  0  0  0  0  0  0  0
    6.5876    5.2572   -1.5323 H   0  0  0  0  0  0  0  0  0  0  0  0
    4.2027    5.6960   -1.0397 H   0  0  0  0  0  0  0  0  0  0  0  0
    3.5755    7.4834    0.5536 H   0  0  0  0  0  0  0  0  0  0  0  0
    6.6400    9.6813    3.0795 C   0  0  0  0  0  0  0  0  0  0  0  0
    6.9599    8.7209    4.0400 C   0  0  0  0  0  0  0  0  0  0  0  0
    8.1491    8.8260    4.7617 C   0  0  0  0  0  0  0  0  0  0  0  0
    9.0184    9.8896    4.5228 C   0  0  0  0  0  0  0  0  0  0  0  0
    8.7001   10.8501    3.5622 C   0  0  0  0  0  0  0  0  0  0  0  0
    7.5109   10.7449    2.8405 C   0  0  0  0  0  0  0  0  0  0  0  0
    6.2864    7.8959    4.2246 H   0  0  0  0  0  0  0  0  0  0  0  0
    8.3972    8.0819    5.5048 H   0  0  0  0  0  0  0  0  0  0  0  0
    9.9400    9.9705    5.0814 H   0  0  0  0  0  0  0  0  0  0  0  0
    9.3716   11.6750    3.3793 H   0  0  0  0  0  0  0  0  0  0  0  0
    7.2629   11.4890    2.0975 H   0  0  0  0  0  0  0  0  0  0  0  0
    5.0847   10.8703    0.9754 C   0  0  0  0  0  0  0  0  0  0  0  0
    4.7071   12.1017    1.5125 C   0  0  0  0  0  0  0  0  0  0  0  0
    4.6865   13.2380    0.7052 C   0  0  0  0  0  0  0  0  0  0  0  0
    5.0440   13.1450   -0.6409 C   0  0  0  0  0  0  0  0  0  0  0  0
    5.4217   11.9136   -1.1781 C   0  0  0  0  0  0  0  0  0  0  0  0
    5.4422   10.7773   -0.3707 C   0  0  0  0  0  0  0  0  0  0  0  0
    4.4311   12.1724    2.5539 H   0  0  0  0  0  0  0  0  0  0  0  0
    4.3949   14.1904    1.1204 H   0  0  0  0  0  0  0  0  0  0  0  0
    5.0296   14.0246   -1.2654 H   0  0  0  0  0  0  0  0  0  0  0  0
    5.6976   11.8429   -2.2194 H   0  0  0  0  0  0  0  0  0  0  0  0
    5.7342    9.8249   -0.7876 H   0  0  0  0  0  0  0  0  0  0  0  0
    1.2784   10.9896    7.1903 C   0  0  0  0  0  0  0  0  0  0  0  0
    2.1885   11.8752    7.7670 C   0  0  0  0  0  0  0  0  0  0  0  0
    1.8788   13.2340    7.8543 C   0  0  0  0  0  0  0  0  0  0  0  0
    0.6596   13.7031    7.3633 C   0  0  0  0  0  0  0  0  0  0  0  0
   -0.2483   12.8175    6.7850 C   0  0  0  0  0  0  0  0  0  0  0  0
    0.0609   11.4587    6.6993 C   0  0  0  0  0  0  0  0  0  0  0  0
    3.1300   11.5112    8.1476 H   0  0  0  0  0  0  0  0  0  0  0  0
    2.5827   13.9194    8.3009 H   0  0  0  0  0  0  0  0  0  0  0  0
    0.4204   14.7545    7.4293 H   0  0  0  0  0  0  0  0  0  0  0  0
   -1.1919   13.1814    6.4061 H   0  0  0  0  0  0  0  0  0  0  0  0
   -0.6430   10.7732    6.2528 H   0  0  0  0  0  0  0  0  0  0  0  0
    0.8248    8.4681    8.4838 C   0  0  0  0  0  0  0  0  0  0  0  0
    1.3815    7.2934    8.9896 C   0  0  0  0  0  0  0  0  0  0  0  0
    0.8316    6.6928   10.1232 C   0  0  0  0  0  0  0  0  0  0  0  0
   -0.2763    7.2671   10.7493 C   0  0  0  0  0  0  0  0  0  0  0  0
   -0.8325    8.4419   10.2418 C   0  0  0  0  0  0  0  0  0  0  0  0
   -0.2814    9.0424    9.1099 C   0  0  0  0  0  0  0  0  0  0  0  0
    2.2383    6.8485    8.5052 H   0  0  0  0  0  0  0  0  0  0  0  0
    1.2612    5.7829   10.5153 H   0  0  0  0  0  0  0  0  0  0  0  0
   -0.7018    6.8020   11.6258 H   0  0  0  0  0  0  0  0  0  0  0  0
   -1.6882    8.8867   10.7279 H   0  0  0  0  0  0  0  0  0  0  0  0
   -0.7126    9.9523    8.7177 H   0  0  0  0  0  0  0  0  0  0  0  0
    3.3729    8.8867    7.3930 C   0  0  0  0  0  0  0  0  0  0  0  0
    4.0758    8.0738    6.5033 C   0  0  0  0  0  0  0  0  0  0  0  0
    5.2994    7.5218    6.8822 C   0  0  0  0  0  0  0  0  0  0  0  0
    5.8206    7.7827    8.1493 C   0  0  0  0  0  0  0  0  0  0  0  0
    5.1176    8.5955    9.0390 C   0  0  0  0  0  0  0  0  0  0  0  0
    3.8940    9.1475    8.6600 C   0  0  0  0  0  0  0  0  0  0  0  0
    5.8440    6.8930    6.1935 H   0  0  0  0  0  0  0  0  0  0  0  0
    6.7691    7.3560    8.4426 H   0  0  0  0  0  0  0  0  0  0  0  0
    5.5221    8.7977   10.0194 H   0  0  0  0  0  0  0  0  0  0  0  0
    3.3495    9.7764    9.3488 H   0  0  0  0  0  0  0  0  0  0  0  0
   -1.3273   10.0635    3.3019 C   0  0  0  0  0  0  0  0  0  0  0  0
   -2.6322   10.2394    2.8405 C   0  0  0  0  0  0  0  0  0  0  0  0
   -3.1030   11.5214    2.5539 C   0  0  0  0  0  0  0  0  0  0  0  0
   -2.2689   12.6254    2.7285 C   0  0  0  0  0  0  0  0  0  0  0  0
   -0.9640   12.4495    3.1899 C   0  0  0  0  0  0  0  0  0  0  0  0
   -0.4932   11.1675    3.4765 C   0  0  0  0  0  0  0  0  0  0  0  0
   -3.2779    9.3841    2.7054 H   0  0  0  0  0  0  0  0  0  0  0  0
   -4.1121   11.6589    2.1963 H   0  0  0  0  0  0  0  0  0  0  0  0
   -2.6323   13.6182    2.5061 H   0  0  0  0  0  0  0  0  0  0  0  0
   -0.3183   13.3027    3.3250 H   0  0  0  0  0  0  0  0  0  0  0  0
    0.5160   11.0300    3.8341 H   0  0  0  0  0  0  0  0  0  0  0  0
   -2.1713    7.5380    4.3201 C   0  0  0  0  0  0  0  0  0  0  0  0
   -2.5741    6.3086    3.7995 C   0  0  0  0  0  0  0  0  0  0  0  0
   -3.6893    5.6596    4.3267 C   0  0  0  0  0  0  0  0  0  0  0  0
   -4.4038    6.2419    5.3763 C   0  0  0  0  0  0  0  0  0  0  0  0
   -4.0005    7.4713    5.8953 C   0  0  0  0  0  0  0  0  0  0  0  0
   -2.8837    8.1204    5.3680 C   0  0  0  0  0  0  0  0  0  0  0  0
   -2.0208    5.8577    2.9888 H   0  0  0  0  0  0  0  0  0  0  0  0
   -4.0019    4.7072    3.9247 H   0  0  0  0  0  0  0  0  0  0  0  0
   -5.2680    5.7384    5.7849 H   0  0  0  0  0  0  0  0  0  0  0  0
   -4.5527    7.9222    6.7076 H   0  0  0  0  0  0  0  0  0  0  0  0
   -2.5728    9.0727    5.7701 H   0  0  0  0  0  0  0  0  0  0  0  0
   -0.3429    7.6169    2.0892 C   0  0  0  0  0  0  0  0  0  0  0  0
    0.8644    6.9334    1.9409 C   0  0  0  0  0  0  0  0  0  0  0  0
    1.1015    6.1792    0.7925 C   0  0  0  0  0  0  0  0  0  0  0  0
    0.1338    6.1105   -0.2109 C   0  0  0  0  0  0  0  0  0  0  0  0
   -1.0719    6.7959   -0.0626 C   0  0  0  0  0  0  0  0  0  0  0  0
   -1.3111    7.5501    1.0874 C   0  0  0  0  0  0  0  0  0  0  0  0
    2.0355    5.6495    0.6772 H   0  0  0  0  0  0  0  0  0  0  0  0
    0.3185    5.5281   -1.1006 H   0  0  0  0  0  0  0  0  0  0  0  0
   -1.8224    6.7434   -0.8387 H   0  0  0  0  0  0  0  0  0  0  0  0
   -2.2451    8.0799    1.2028 H   0  0  0  0  0  0  0  0  0  0  0  0
  1  2  1  0  0  0  0
  2  4  1  0  0  0  0
  3  1  1  0  0  0  0
  4 49  1  0  0  0  0
  5  2  1  0  0  0  0
  6  2  1  0  0  0  0
  7  6  3  0  0  0  0
  8  1  1  0  0  0  0
  9  8  3  0  0  0  0
 10  1  1  0  0  0  0
 11 10  3  0  0  0  0
 12  1  1  0  0  0  0
 13  1  1  0  0  0  0
 14  2  1  0  0  0  0
 15  1  1  0  0  0  0
 16  3  1  0  0  0  0
 17 16  4  0  0  0  0
 18 17  4  0  0  0  0
 19 18  4  0  0  0  0
 20 19  4  0  0  0  0
 21 16  4  0  0  0  0
 22 17  1  0  0  0  0
 23 18  1  0  0  0  0
 24 19  1  0  0  0  0
 25 20  1  0  0  0  0
 26 21  1  0  0  0  0
 27  3  1  0  0  0  0
 28 27  4  0  0  0  0
 29 28  4  0  0  0  0
 30 29  4  0  0  0  0
 31 30  4  0  0  0  0
 32 27  4  0  0  0  0
 33 28  1  0  0  0  0
 34 29  1  0  0  0  0
 35 30  1  0  0  0  0
 36 31  1  0  0  0  0
 37 32  1  0  0  0  0
 38  3  1  0  0  0  0
 39 38  4  0  0  0  0
 40 39  4  0  0  0  0
 41 40  4  0  0  0  0
 42 41  4  0  0  0  0
 43 38  4  0  0  0  0
 44 39  1  0  0  0  0
 45 40  1  0  0  0  0
 46 41  1  0  0  0  0
 47 42  1  0  0  0  0
 48 43  1  0  0  0  0
 49 50  4  0  0  0  0
 50 51  4  0  0  0  0
 51 52  4  0  0  0  0
 52 53  4  0  0  0  0
 53 54  4  0  0  0  0
 54 49  4  0  0  0  0
 55 50  1  0  0  0  0
 56 51  1  0  0  0  0
 57 52  1  0  0  0  0
 58 53  1  0  0  0  0
 59 54  1  0  0  0  0
 60  4  1  0  0  0  0
 61 60  4  0  0  0  0
 62 61  4  0  0  0  0
 63 62  4  0  0  0  0
 64 63  4  0  0  0  0
 65 60  4  0  0  0  0
 66 61  1  0  0  0  0
 67 62  1  0  0  0  0
 68 63  1  0  0  0  0
 69 64  1  0  0  0  0
 70 65  1  0  0  0  0
 71  4  1  0  0  0  0
 72 12  1  0  0  0  0
 73 72  4  0  0  0  0
 74 73  4  0  0  0  0
 75 74  4  0  0  0  0
 76 71  4  0  0  0  0
 77 73  1  0  0  0  0
 78 74  1  0  0  0  0
 79 75  1  0  0  0  0
 80 76  1  0  0  0  0
 81  5  1  0  0  0  0
 82 81  4  0  0  0  0
 83 82  4  0  0  0  0
 84 83  4  0  0  0  0
 85 84  4  0  0  0  0
 86 81  4  0  0  0  0
 87 82  1  0  0  0  0
 88 83  1  0  0  0  0
 89 84  1  0  0  0  0
 90 85  1  0  0  0  0
 91 86  1  0  0  0  0
 92  5  1  0  0  0  0
 93 92  4  0  0  0  0
 94 93  4  0  0  0  0
 95 94  4  0  0  0  0
 96 95  4  0  0  0  0
 97 92  4  0  0  0  0
 98 93  1  0  0  0  0
 99 94  1  0  0  0  0
100 95  1  0  0  0  0
101 96  1  0  0  0  0
102 97  1  0  0  0  0
103  5  1  0  0  0  0
104 15  1  0  0  0  0
105104  4  0  0  0  0
106105  4  0  0  0  0
107106  4  0  0  0  0
108103  4  0  0  0  0
109105  1  0  0  0  0
110106  1  0  0  0  0
111107  1  0  0  0  0
112108  1  0  0  0  0
  2 12  1  0  0  0  0
  2 15  1  0  0  0  0
 12 13  1  0  0  0  0
 12 14  1  0  0  0  0
 13 14  1  0  0  0  0
 13 15  1  0  0  0  0
 14 15  1  0  0  0  0
 20 21  4  0  0  0  0
 31 32  4  0  0  0  0
 42 43  4  0  0  0  0
 64 65  4  0  0  0  0
 71 72  4  0  0  0  0
 75 76  4  0  0  0  0
 85 86  4  0  0  0  0
 96 97  4  0  0  0  0
103104  4  0  0  0  0
107108  4  0  0  0  0
M  END
$$$$
BERPIB

From CSD data. Using bond type 'Any'. No disordered atoms. Largest molecule.
 63 66  0  0  0  0  0  0  0  0999 V2000
    3.9674    5.6789    6.2840 Cu  0  2  0  0  0  0  0  0  0  0  0  0
    1.8032    7.5417    5.5605 P   0  0  0  0  0  0  0  0  0  0  0  0
    6.0506    3.7159    6.9705 P   0  0  0  0  0  0  0  0  0  0  0  0
    0.6546    2.5843    5.1448 F   0  0  0  0  0  0  0  0  0  0  0  0
    2.3016    1.8007    6.4837 F   0  0  0  0  0  0  0  0  0  0  0  0
    2.6291    3.7104    5.3047 F   0  0  0  0  0  0  0  0  0  0  0  0
    1.1878    3.7023    7.0461 F   0  0  0  0  0  0  0  0  0  0  0  0
    5.2545    7.8315    6.9859 F   0  0  0  0  0  0  0  0  0  0  0  0
    7.2349    7.0404    6.2644 F   0  0  0  0  0  0  0  0  0  0  0  0
    6.9817    7.3163    8.4591 F   0  0  0  0  0  0  0  0  0  0  0  0
    7.2843    9.0494    7.0352 F   0  0  0  0  0  0  0  0  0  0  0  0
    3.0527    6.8545    5.0666 O   0  0  0  0  0  0  0  0  0  0  0  0
    4.9360    4.5784    7.5235 O   0  0  0  0  0  0  0  0  0  0  0  0
    2.6547    6.2306    7.6883 N   0  0  0  0  0  0  0  0  0  0  0  0
    5.1880    5.0169    4.8489 N   0  0  0  0  0  0  0  0  0  0  0  0
    1.6876    2.9384    5.9950 B   0  5  0  0  0  0  0  0  0  0  0  0
    6.6049    7.9042    7.2794 B   0  5  0  0  0  0  0  0  0  0  0  0
    1.6765    7.0821    7.3010 C   0  0  0  0  0  0  0  0  0  0  0  0
    2.6766    5.7724    8.9414 C   0  0  0  0  0  0  0  0  0  0  0  0
    3.3551    5.1629    9.2060 H   0  0  0  0  0  0  0  0  0  0  0  0
    1.7133    6.1779    9.8674 C   0  0  0  0  0  0  0  0  0  0  0  0
    1.7409    5.8532   10.7592 H   0  0  0  0  0  0  0  0  0  0  0  0
    0.7237    7.0537    9.4753 C   0  0  0  0  0  0  0  0  0  0  0  0
    0.0683    7.3444   10.0988 H   0  0  0  0  0  0  0  0  0  0  0  0
    0.6911    7.5009    8.1849 C   0  0  0  0  0  0  0  0  0  0  0  0
    0.0035    8.0897    7.8957 H   0  0  0  0  0  0  0  0  0  0  0  0
    6.1298    4.1120    5.1989 C   0  0  0  0  0  0  0  0  0  0  0  0
    5.0955    5.3956    3.5741 C   0  0  0  0  0  0  0  0  0  0  0  0
    4.4463    6.0450    3.3301 H   0  0  0  0  0  0  0  0  0  0  0  0
    5.9245    4.8633    2.5928 C   0  0  0  0  0  0  0  0  0  0  0  0
    5.8229    5.1243    1.6853 H   0  0  0  0  0  0  0  0  0  0  0  0
    6.8920    3.9555    2.9524 C   0  0  0  0  0  0  0  0  0  0  0  0
    7.4702    3.5875    2.2941 H   0  0  0  0  0  0  0  0  0  0  0  0
    7.0185    3.5804    4.2813 C   0  0  0  0  0  0  0  0  0  0  0  0
    7.6970    2.9744    4.5538 H   0  0  0  0  0  0  0  0  0  0  0  0
    5.6848    1.9769    7.1603 C   0  0  0  0  0  0  0  0  0  0  0  0
    5.6480    1.7708    8.1278 H   0  0  0  0  0  0  0  0  0  0  0  0
    4.7839    1.8064    6.7868 H   0  0  0  0  0  0  0  0  0  0  0  0
    6.6613    1.0161    6.5049 C   0  0  0  0  0  0  0  0  0  0  0  0
    6.3717    0.0943    6.6676 H   0  0  0  0  0  0  0  0  0  0  0  0
    6.6885    1.1850    5.5403 H   0  0  0  0  0  0  0  0  0  0  0  0
    7.5551    1.1494    6.8852 H   0  0  0  0  0  0  0  0  0  0  0  0
    7.6378    4.0933    7.6774 C   0  0  0  0  0  0  0  0  0  0  0  0
    8.3101    3.4606    7.3193 H   0  0  0  0  0  0  0  0  0  0  0  0
    7.9052    5.0064    7.4029 H   0  0  0  0  0  0  0  0  0  0  0  0
    7.6355    4.0105    9.1987 C   0  0  0  0  0  0  0  0  0  0  0  0
    8.5292    4.2261    9.5390 H   0  0  0  0  0  0  0  0  0  0  0  0
    6.9859    4.6490    9.5599 H   0  0  0  0  0  0  0  0  0  0  0  0
    7.3908    3.1030    9.4762 H   0  0  0  0  0  0  0  0  0  0  0  0
    0.4677    7.3476    4.4977 C   0  0  0  0  0  0  0  0  0  0  0  0
   -0.3275    7.8211    4.8518 H   0  0  0  0  0  0  0  0  0  0  0  0
    0.6812    7.7170    3.6034 H   0  0  0  0  0  0  0  0  0  0  0  0
    0.2003    5.8503    4.4064 C   0  0  0  0  0  0  0  0  0  0  0  0
   -0.5578    5.6884    3.8075 H   0  0  0  0  0  0  0  0  0  0  0  0
    0.9960    5.3970    4.0563 H   0  0  0  0  0  0  0  0  0  0  0  0
   -0.0076    5.5005    5.2985 H   0  0  0  0  0  0  0  0  0  0  0  0
    2.0800    9.5177    5.3781 C   0  0  0  0  0  0  0  0  0  0  0  0
    2.2393    9.7308    4.4245 H   0  0  0  0  0  0  0  0  0  0  0  0
    1.2518    9.9829    5.6561 H   0  0  0  0  0  0  0  0  0  0  0  0
    3.2390   10.0513    6.1982 C   0  0  0  0  0  0  0  0  0  0  0  0
    3.3179   11.0175    6.0633 H   0  0  0  0  0  0  0  0  0  0  0  0
    3.0804    9.8646    7.1475 H   0  0  0  0  0  0  0  0  0  0  0  0
    4.0689    9.6122    5.9145 H   0  0  0  0  0  0  0  0  0  0  0  0
  1  6  1  0  0  0  0
  2 12  2  0  0  0  0
  3 13  2  0  0  0  0
  4 16  1  0  0  0  0
  5 16  1  0  0  0  0
  6 16  1  0  0  0  0
  7 16  1  0  0  0  0
  8  1  1  0  0  0  0
  9 17  1  0  0  0  0
 10 17  1  0  0  0  0
 11 17  1  0  0  0  0
 12  1  1  0  0  0  0
 13  1  1  0  0  0  0
 14  1  1  0  0  0  0
 15  1  1  0  0  0  0
 17  8  1  0  0  0  0
 18  2  1  0  0  0  0
 19 14  4  0  0  0  0
 20 19  1  0  0  0  0
 21 19  4  0  0  0  0
 22 21  1  0  0  0  0
 23 21  4  0  0  0  0
 24 23  1  0  0  0  0
 25 18  4  0  0  0  0
 26 25  1  0  0  0  0
 27  3  1  0  0  0  0
 28 15  4  0  0  0  0
 29 28  1  0  0  0  0
 30 28  4  0  0  0  0
 31 30  1  0  0  0  0
 32 30  4  0  0  0  0
 33 32  1  0  0  0  0
 34 27  4  0  0  0  0
 35 34  1  0  0  0  0
 36  3  1  0  0  0  0
 37 36  1  0  0  0  0
 38 36  1  0  0  0  0
 39 36  1  0  0  0  0
 40 39  1  0  0  0  0
 41 39  1  0  0  0  0
 42 39  1  0  0  0  0
 43  3  1  0  0  0  0
 44 43  1  0  0  0  0
 45 43  1  0  0  0  0
 46 43  1  0  0  0  0
 47 46  1  0  0  0  0
 48 46  1  0  0  0  0
 49 46  1  0  0  0  0
 50  2  1  0  0  0  0
 51 50  1  0  0  0  0
 52 50  1  0  0  0  0
 53 50  1  0  0  0  0
 54 53  1  0  0  0  0
 55 53  1  0  0  0  0
 56 53  1  0  0  0  0
 57  2  1  0  0  0  0
 58 57  1  0  0  0  0
 59 57  1  0  0  0  0
 60 57  1  0  0  0  0
 61 60  1  0  0  0  0
 62 60  1  0  0  0  0
 63 60  1  0  0  0  0
 14 18  4  0  0  0  0
 15 27  4  0  0  0  0
 23 25  4  0  0  0  0
 32 34  4  0  0  0  0
M  CHG  3   1   2  16  -1  17  -1
M  END
$$$$
BERPOH

From CSD data. Using bond type 'Any'. No disordered atoms. Largest molecule.
 75 78  0  0  0  0  0  0  0  0999 V2000
    6.1815    4.6376    9.2463 C   0  0  0  0  0  0  0  0  0  0  0  0
    7.3590    4.3773    9.9264 C   0  0  0  0  0  0  0  0  0  0  0  0
    7.4148    3.6470   10.5317 H   0  0  0  0  0  0  0  0  0  0  0  0
    8.4556    5.2006    9.7101 C   0  0  0  0  0  0  0  0  0  0  0  0
    9.2773    5.0353   10.1561 H   0  0  0  0  0  0  0  0  0  0  0  0
    8.3336    6.2679    8.8317 C   0  0  0  0  0  0  0  0  0  0  0  0
    9.0691    6.8467    8.6713 H   0  0  0  0  0  0  0  0  0  0  0  0
    7.1214    6.4752    8.1945 C   0  0  0  0  0  0  0  0  0  0  0  0
    7.0346    7.2148    7.6041 H   0  0  0  0  0  0  0  0  0  0  0  0
    4.7272    2.1038    8.7631 C   0  0  0  0  0  0  0  0  0  0  0  0
    5.1899    2.2035    7.8826 H   0  0  0  0  0  0  0  0  0  0  0  0
    3.3380    1.5243    8.4693 C   0  0  0  0  0  0  0  0  0  0  0  0
    3.4337    0.6695    7.9988 H   0  0  0  0  0  0  0  0  0  0  0  0
    2.8335    2.1503    7.9093 H   0  0  0  0  0  0  0  0  0  0  0  0
    2.8585    1.3805    9.3121 H   0  0  0  0  0  0  0  0  0  0  0  0
    5.5860    1.1709    9.6102 C   0  0  0  0  0  0  0  0  0  0  0  0
    5.1683    1.0490   10.4888 H   0  0  0  0  0  0  0  0  0  0  0  0
    6.4778    1.5606    9.7243 H   0  0  0  0  0  0  0  0  0  0  0  0
    5.6640    0.3021    9.1631 H   0  0  0  0  0  0  0  0  0  0  0  0
    4.3211    3.7129   11.2662 C   0  0  0  0  0  0  0  0  0  0  0  0
    5.0417    3.1579   11.6823 H   0  0  0  0  0  0  0  0  0  0  0  0
    2.9694    3.0686   11.5892 C   0  0  0  0  0  0  0  0  0  0  0  0
    2.7756    3.1781   12.5437 H   0  0  0  0  0  0  0  0  0  0  0  0
    3.0019    2.1145   11.3696 H   0  0  0  0  0  0  0  0  0  0  0  0
    2.2668    3.5023   11.0615 H   0  0  0  0  0  0  0  0  0  0  0  0
    4.4077    5.1229   11.8472 C   0  0  0  0  0  0  0  0  0  0  0  0
    3.7605    5.7027   11.3944 H   0  0  0  0  0  0  0  0  0  0  0  0
    5.3124    5.4764   11.7126 H   0  0  0  0  0  0  0  0  0  0  0  0
    4.2075    5.0942   12.8054 H   0  0  0  0  0  0  0  0  0  0  0  0
    4.6237    3.1557    5.1019 B   0  5  0  0  0  0  0  0  0  0  0  0
    4.3252    5.8898    7.4567 Cu  0  2  0  0  0  0  0  0  0  0  0  0
    5.2070    3.3979    3.8669 F   0  0  0  0  0  0  0  0  0  0  0  0
    4.8415    1.8343    5.4470 F   0  0  0  0  0  0  0  0  0  0  0  0
    5.2142    3.9914    6.0714 F   0  0  0  0  0  0  0  0  0  0  0  0
    3.2745    3.4149    5.0485 F   0  0  0  0  0  0  0  0  0  0  0  0
    6.0718    5.6742    8.3801 N   0  0  0  0  0  0  0  0  0  0  0  0
    3.5864    4.6191    8.7406 O   0  0  0  0  0  0  0  0  0  0  0  0
    4.6044    3.7640    9.4797 P   0  0  0  0  0  0  0  0  0  0  0  0
    2.4689    7.1419    5.6671 C   0  0  0  0  0  0  0  0  0  0  0  0
    1.2915    7.4022    4.9870 C   0  0  0  0  0  0  0  0  0  0  0  0
    1.2356    8.1325    4.3817 H   0  0  0  0  0  0  0  0  0  0  0  0
    0.1948    6.5789    5.2033 C   0  0  0  0  0  0  0  0  0  0  0  0
   -0.6269    6.7442    4.7573 H   0  0  0  0  0  0  0  0  0  0  0  0
    0.3169    5.5116    6.0817 C   0  0  0  0  0  0  0  0  0  0  0  0
   -0.4186    4.9328    6.2421 H   0  0  0  0  0  0  0  0  0  0  0  0
    1.5290    5.3043    6.7189 C   0  0  0  0  0  0  0  0  0  0  0  0
    1.6158    4.5647    7.3093 H   0  0  0  0  0  0  0  0  0  0  0  0
    3.9233    9.6757    6.1503 C   0  0  0  0  0  0  0  0  0  0  0  0
    3.4606    9.5760    7.0308 H   0  0  0  0  0  0  0  0  0  0  0  0
    5.3125   10.2552    6.4441 C   0  0  0  0  0  0  0  0  0  0  0  0
    5.2168   11.1100    6.9146 H   0  0  0  0  0  0  0  0  0  0  0  0
    5.8170    9.6292    7.0041 H   0  0  0  0  0  0  0  0  0  0  0  0
    5.7919   10.3990    5.6013 H   0  0  0  0  0  0  0  0  0  0  0  0
    3.0645   10.6086    5.3032 C   0  0  0  0  0  0  0  0  0  0  0  0
    3.4821   10.7305    4.4245 H   0  0  0  0  0  0  0  0  0  0  0  0
    2.1726   10.2189    5.1891 H   0  0  0  0  0  0  0  0  0  0  0  0
    2.9865   11.4774    5.7503 H   0  0  0  0  0  0  0  0  0  0  0  0
    4.3293    8.0666    3.6472 C   0  0  0  0  0  0  0  0  0  0  0  0
    3.6087    8.6216    3.2311 H   0  0  0  0  0  0  0  0  0  0  0  0
    5.6810    8.7109    3.3242 C   0  0  0  0  0  0  0  0  0  0  0  0
    5.8748    8.6014    2.3696 H   0  0  0  0  0  0  0  0  0  0  0  0
    5.6486    9.6650    3.5438 H   0  0  0  0  0  0  0  0  0  0  0  0
    6.3836    8.2772    3.8519 H   0  0  0  0  0  0  0  0  0  0  0  0
    4.2427    6.6566    3.0662 C   0  0  0  0  0  0  0  0  0  0  0  0
    4.8900    6.0768    3.5190 H   0  0  0  0  0  0  0  0  0  0  0  0
    3.3380    6.3031    3.2008 H   0  0  0  0  0  0  0  0  0  0  0  0
    4.4429    6.6853    2.1080 H   0  0  0  0  0  0  0  0  0  0  0  0
    4.0267    8.6238    9.8115 B   0  5  0  0  0  0  0  0  0  0  0  0
    3.4434    8.3816   11.0465 F   0  0  0  0  0  0  0  0  0  0  0  0
    3.8089    9.9452    9.4664 F   0  0  0  0  0  0  0  0  0  0  0  0
    3.4362    7.7881    8.8420 F   0  0  0  0  0  0  0  0  0  0  0  0
    5.3759    8.3646    9.8649 F   0  0  0  0  0  0  0  0  0  0  0  0
    2.5786    6.1053    6.5333 N   0  0  0  0  0  0  0  0  0  0  0  0
    5.0640    7.1604    6.1728 O   0  0  0  0  0  0  0  0  0  0  0  0
    4.0460    8.0155    5.4337 P   0  0  0  0  0  0  0  0  0  0  0  0
  1  2  4  0  0  0  0
  2  3  1  0  0  0  0
  4  2  4  0  0  0  0
  5  4  1  0  0  0  0
  6  4  4  0  0  0  0
  7  6  1  0  0  0  0
  8  6  4  0  0  0  0
  9  8  1  0  0  0  0
 10 11  1  0  0  0  0
 12 10  1  0  0  0  0
 13 12  1  0  0  0  0
 14 12  1  0  0  0  0
 15 12  1  0  0  0  0
 16 10  1  0  0  0  0
 17 16  1  0  0  0  0
 18 16  1  0  0  0  0
 19 16  1  0  0  0  0
 20 21  1  0  0  0  0
 22 20  1  0  0  0  0
 23 22  1  0  0  0  0
 24 22  1  0  0  0  0
 25 22  1  0  0  0  0
 26 20  1  0  0  0  0
 27 26  1  0  0  0  0
 28 26  1  0  0  0  0
 29 26  1  0  0  0  0
 30 32  1  0  0  0  0
 31 34  1  0  0  0  0
 33 30  1  0  0  0  0
 34 30  1  0  0  0  0
 35 30  1  0  0  0  0
 36  1  4  0  0  0  0
 37 31  1  0  0  0  0
 38  1  1  0  0  0  0
 39 40  4  0  0  0  0
 40 41  1  0  0  0  0
 42 40  4  0  0  0  0
 43 42  1  0  0  0  0
 44 42  4  0  0  0  0
 45 44  1  0  0  0  0
 46 44  4  0  0  0  0
 47 46  1  0  0  0  0
 48 49  1  0  0  0  0
 50 48  1  0  0  0  0
 51 50  1  0  0  0  0
 52 50  1  0  0  0  0
 53 50  1  0  0  0  0
 54 48  1  0  0  0  0
 55 54  1  0  0  0  0
 56 54  1  0  0  0  0
 57 54  1  0  0  0  0
 58 59  1  0  0  0  0
 60 58  1  0  0  0  0
 61 60  1  0  0  0  0
 62 60  1  0  0  0  0
 63 60  1  0  0  0  0
 64 58  1  0  0  0  0
 65 64  1  0  0  0  0
 66 64  1  0  0  0  0
 67 64  1  0  0  0  0
 68 69  1  0  0  0  0
 70 68  1  0  0  0  0
 71 31  1  0  0  0  0
 72 68  1  0  0  0  0
 73 31  1  0  0  0  0
 74 31  1  0  0  0  0
 75 39  1  0  0  0  0
  8 36  4  0  0  0  0
 10 38  1  0  0  0  0
 20 38  1  0  0  0  0
 31 36  1  0  0  0  0
 37 38  2  0  0  0  0
 39 73  4  0  0  0  0
 46 73  4  0  0  0  0
 48 75  1  0  0  0  0
 58 75  1  0  0  0  0
 68 71  1  0  0  0  0
 74 75  2  0  0  0  0
M  CHG  3  30  -1  31   2  68  -1
M  END
$$$$
BERXEE

From CSD data. Using bond type 'Any'. No disordered atoms. Largest molecule.
 95 96  0  0  0  0  0  0  0  0999 V2000
    1.0679   10.7359    9.9441 B   0  0  0  0  0  0  0  0  0  0  0  0
    1.4553   13.0789    6.9255 B   0  5  0  0  0  0  0  0  0  0  0  0
    0.7579   13.9580    7.3188 H   0  0  0  0  0  0  0  0  0  0  0  0
    1.8999   13.1855    5.4150 B   0  3  0  0  0  0  0  0  0  0  0  0
   -0.7252   11.8623    8.4219 C   0  0  0  0  0  0  0  0  0  0  0  0
   -1.3333   11.1027    7.4122 C   0  0  0  0  0  0  0  0  0  0  0  0
   -2.6304   11.4279    7.0294 C   0  0  0  0  0  0  0  0  0  0  0  0
   -3.0571   10.9116    6.3557 H   0  0  0  0  0  0  0  0  0  0  0  0
   -3.3132   12.4812    7.6025 C   0  0  0  0  0  0  0  0  0  0  0  0
   -4.2048   12.6757    7.3380 H   0  0  0  0  0  0  0  0  0  0  0  0
   -2.6824   13.2537    8.5690 C   0  0  0  0  0  0  0  0  0  0  0  0
   -3.1461   13.9890    8.9527 H   0  0  0  0  0  0  0  0  0  0  0  0
   -1.3902   12.9733    8.9846 C   0  0  0  0  0  0  0  0  0  0  0  0
   -0.6839   13.8704    9.9931 C   0  0  0  0  0  0  0  0  0  0  0  0
    0.2920   13.6614    9.9387 H   0  0  0  0  0  0  0  0  0  0  0  0
   -0.8480   15.3535    9.6406 C   0  0  0  0  0  0  0  0  0  0  0  0
   -0.5761   15.4999    8.7103 H   0  0  0  0  0  0  0  0  0  0  0  0
   -0.2859   15.8943   10.2339 H   0  0  0  0  0  0  0  0  0  0  0  0
   -1.7860   15.6143    9.7516 H   0  0  0  0  0  0  0  0  0  0  0  0
   -1.1206   13.5798   11.4078 C   0  0  0  0  0  0  0  0  0  0  0  0
   -2.0787   13.7669   11.4995 H   0  0  0  0  0  0  0  0  0  0  0  0
   -0.6169   14.1467   12.0286 H   0  0  0  0  0  0  0  0  0  0  0  0
   -0.9512   12.6372   11.6156 H   0  0  0  0  0  0  0  0  0  0  0  0
   -0.6221    9.9220    6.7644 C   0  0  0  0  0  0  0  0  0  0  0  0
    0.3483    9.9862    6.9970 H   0  0  0  0  0  0  0  0  0  0  0  0
   -1.1492    8.6026    7.3282 C   0  0  0  0  0  0  0  0  0  0  0  0
   -0.9907    8.5740    8.2952 H   0  0  0  0  0  0  0  0  0  0  0  0
   -0.6852    7.8544    6.8988 H   0  0  0  0  0  0  0  0  0  0  0  0
   -2.1115    8.5339    7.1536 H   0  0  0  0  0  0  0  0  0  0  0  0
   -0.7382    9.9548    5.2353 C   0  0  0  0  0  0  0  0  0  0  0  0
   -1.6757    9.8315    4.9762 H   0  0  0  0  0  0  0  0  0  0  0  0
   -0.1959    9.2352    4.8506 H   0  0  0  0  0  0  0  0  0  0  0  0
   -0.4186   10.8191    4.9018 H   0  0  0  0  0  0  0  0  0  0  0  0
    1.7262   12.0358    8.0846 C   0  0  0  0  0  0  0  0  0  0  0  0
    2.8650   11.5954    8.6624 C   0  0  0  0  0  0  0  0  0  0  0  0
    3.7281   11.7919    8.3185 H   0  0  0  0  0  0  0  0  0  0  0  0
    2.6424   10.7557    9.9137 C   0  0  0  0  0  0  0  0  0  0  0  0
   -1.0553    9.8672   10.9211 C   0  0  0  0  0  0  0  0  0  0  0  0
   -1.4760   10.5316   10.3365 H   0  0  0  0  0  0  0  0  0  0  0  0
   -1.3728    9.9923   11.8396 H   0  0  0  0  0  0  0  0  0  0  0  0
   -1.2894    8.9666   10.6141 H   0  0  0  0  0  0  0  0  0  0  0  0
    2.2849    8.0663    8.4336 C   0  0  0  0  0  0  0  0  0  0  0  0
    2.6679    7.1734    8.3056 H   0  0  0  0  0  0  0  0  0  0  0  0
    2.2810    8.5459    7.5792 H   0  0  0  0  0  0  0  0  0  0  0  0
    1.3662    7.9829    8.7655 H   0  0  0  0  0  0  0  0  0  0  0  0
    5.0730    9.0123    9.0371 C   0  0  0  0  0  0  0  0  0  0  0  0
    5.6680    9.3970    9.7140 H   0  0  0  0  0  0  0  0  0  0  0  0
    5.1227    9.5470    8.2169 H   0  0  0  0  0  0  0  0  0  0  0  0
    5.3493    8.0922    8.8440 H   0  0  0  0  0  0  0  0  0  0  0  0
    3.2521    8.0726   11.2899 C   0  0  0  0  0  0  0  0  0  0  0  0
    2.3367    8.0853   11.6403 H   0  0  0  0  0  0  0  0  0  0  0  0
    3.8555    8.4930   11.9372 H   0  0  0  0  0  0  0  0  0  0  0  0
    3.5304    7.1456   11.1371 H   0  0  0  0  0  0  0  0  0  0  0  0
    5.2036   11.5074   11.5152 C   0  0  0  0  0  0  0  0  0  0  0  0
    5.5949   11.7096   10.6397 H   0  0  0  0  0  0  0  0  0  0  0  0
    5.4435   10.5939   11.7770 H   0  0  0  0  0  0  0  0  0  0  0  0
    5.5474   12.1390   12.1806 H   0  0  0  0  0  0  0  0  0  0  0  0
    2.9374   13.4679   11.3039 C   0  0  0  0  0  0  0  0  0  0  0  0
    1.9716   13.5939   11.4146 H   0  0  0  0  0  0  0  0  0  0  0  0
    3.2133   13.8110   10.4286 H   0  0  0  0  0  0  0  0  0  0  0  0
    3.4130   13.9532   12.0101 H   0  0  0  0  0  0  0  0  0  0  0  0
    2.6396   11.0516   13.0374 C   0  0  0  0  0  0  0  0  0  0  0  0
    2.8908   11.6705   13.7541 H   0  0  0  0  0  0  0  0  0  0  0  0
    2.9968   10.1605   13.2347 H   0  0  0  0  0  0  0  0  0  0  0  0
    1.6628   11.0050   12.9730 H   0  0  0  0  0  0  0  0  0  0  0  0
   -0.4106   13.8946    3.4913 C   0  0  0  0  0  0  0  0  0  0  0  0
   -1.0938   13.5711    4.1155 H   0  0  0  0  0  0  0  0  0  0  0  0
   -0.1339   13.1625    2.9019 H   0  0  0  0  0  0  0  0  0  0  0  0
   -0.7800   14.6257    2.9534 H   0  0  0  0  0  0  0  0  0  0  0  0
    0.3446   15.8302    5.4138 C   0  0  0  0  0  0  0  0  0  0  0  0
   -0.1901   16.4217    4.8447 H   0  0  0  0  0  0  0  0  0  0  0  0
    1.0778   16.3404    5.8178 H   0  0  0  0  0  0  0  0  0  0  0  0
   -0.2219   15.4574    6.1216 H   0  0  0  0  0  0  0  0  0  0  0  0
    1.9709   15.3848    3.1587 C   0  0  0  0  0  0  0  0  0  0  0  0
    1.3755   15.9896    2.6686 H   0  0  0  0  0  0  0  0  0  0  0  0
    2.3685   14.7417    2.5355 H   0  0  0  0  0  0  0  0  0  0  0  0
    2.6810   15.9041    3.5902 H   0  0  0  0  0  0  0  0  0  0  0  0
    2.3144   11.4194    2.8540 C   0  0  0  0  0  0  0  0  0  0  0  0
    2.9377   10.7668    2.4725 H   0  0  0  0  0  0  0  0  0  0  0  0
    2.2311   12.1850    2.2480 H   0  0  0  0  0  0  0  0  0  0  0  0
    1.4361   11.0010    2.9740 H   0  0  0  0  0  0  0  0  0  0  0  0
    3.2144   10.4472    5.3450 C   0  0  0  0  0  0  0  0  0  0  0  0
    2.3538   10.0114    5.5154 H   0  0  0  0  0  0  0  0  0  0  0  0
    3.6622   10.6318    6.1968 H   0  0  0  0  0  0  0  0  0  0  0  0
    3.7776    9.8572    4.8012 H   0  0  0  0  0  0  0  0  0  0  0  0
    4.6198   12.5269    4.0318 C   0  0  0  0  0  0  0  0  0  0  0  0
    5.1180   12.7366    4.8488 H   0  0  0  0  0  0  0  0  0  0  0  0
    4.5694   13.3257    3.4657 H   0  0  0  0  0  0  0  0  0  0  0  0
    5.0772   11.8101    3.5446 H   0  0  0  0  0  0  0  0  0  0  0  0
    0.5989   11.5412    8.8544 N   0  0  0  0  0  0  0  0  0  0  0  0
    0.3546   10.0283   10.8822 O   0  0  0  0  0  0  0  0  0  0  0  0
    1.0206   14.4940    4.4220 P   0  0  0  0  0  0  0  0  0  0  0  0
    2.9414   11.9872    4.4672 P   0  0  0  0  0  0  0  0  0  0  0  0
    3.3139    9.0148    9.6779 Si  0  0  0  0  0  0  0  0  0  0  0  0
    3.3420   11.6585   11.4155 Si  0  0  0  0  0  0  0  0  0  0  0  0
  1 37  1  0  0  0  0
  2  3  1  0  0  0  0
  4  2  2  0  0  0  0
  5  6  4  0  0  0  0
  6  7  4  0  0  0  0
  7  8  1  0  0  0  0
  9  7  4  0  0  0  0
 10  9  1  0  0  0  0
 11  9  4  0  0  0  0
 12 11  1  0  0  0  0
 13  5  4  0  0  0  0
 14 13  1  0  0  0  0
 15 14  1  0  0  0  0
 16 14  1  0  0  0  0
 17 16  1  0  0  0  0
 18 16  1  0  0  0  0
 19 16  1  0  0  0  0
 20 14  1  0  0  0  0
 21 20  1  0  0  0  0
 22 20  1  0  0  0  0
 23 20  1  0  0  0  0
 24  6  1  0  0  0  0
 25 24  1  0  0  0  0
 26 24  1  0  0  0  0
 27 26  1  0  0  0  0
 28 26  1  0  0  0  0
 29 26  1  0  0  0  0
 30 24  1  0  0  0  0
 31 30  1  0  0  0  0
 32 30  1  0  0  0  0
 33 30  1  0  0  0  0
 34  2  1  0  0  0  0
 35 34  2  0  0  0  0
 36 35  1  0  0  0  0
 37 35  1  0  0  0  0
 38 39  1  0  0  0  0
 40 38  1  0  0  0  0
 41 38  1  0  0  0  0
 42 43  1  0  0  0  0
 44 42  1  0  0  0  0
 45 42  1  0  0  0  0
 46 47  1  0  0  0  0
 48 46  1  0  0  0  0
 49 46  1  0  0  0  0
 50 51  1  0  0  0  0
 52 50  1  0  0  0  0
 53 50  1  0  0  0  0
 54 55  1  0  0  0  0
 56 54  1  0  0  0  0
 57 54  1  0  0  0  0
 58 59  1  0  0  0  0
 60 58  1  0  0  0  0
 61 58  1  0  0  0  0
 62 63  1  0  0  0  0
 64 62  1  0  0  0  0
 65 62  1  0  0  0  0
 66 67  1  0  0  0  0
 68 66  1  0  0  0  0
 69 66  1  0  0  0  0
 70 71  1  0  0  0  0
 72 70  1  0  0  0  0
 73 70  1  0  0  0  0
 74 75  1  0  0  0  0
 76 74  1  0  0  0  0
 77 74  1  0  0  0  0
 78 79  1  0  0  0  0
 80 78  1  0  0  0  0
 81 78  1  0  0  0  0
 82 83  1  0  0  0  0
 84 82  1  0  0  0  0
 85 82  1  0  0  0  0
 86 87  1  0  0  0  0
 88 86  1  0  0  0  0
 89 86  1  0  0  0  0
 90  1  1  0  0  0  0
 91  1  1  0  0  0  0
 92  4  1  0  0  0  0
 93  4  1  0  0  0  0
 94 37  1  0  0  0  0
 95 37  1  0  0  0  0
  5 90  1  0  0  0  0
 11 13  4  0  0  0  0
 34 90  1  0  0  0  0
 38 91  1  0  0  0  0
 42 94  1  0  0  0  0
 46 94  1  0  0  0  0
 50 94  1  0  0  0  0
 54 95  1  0  0  0  0
 58 95  1  0  0  0  0
 62 95  1  0  0  0  0
 66 92  1  0  0  0  0
 70 92  1  0  0  0  0
 74 92  1  0  0  0  0
 78 93  1  0  0  0  0
 82 93  1  0  0  0  0
 86 93  1  0  0  0  0
M  CHG  2   2  -1   4   1
M  END
$$$$
BERXII

From CSD data. Using bond type 'Any'. Matching problem. No disordered atoms. Largest molecule.
196200  0  0  0  0  0  0  0  0999 V2000
    6.2352    6.2074   15.2578 B   0  0  0  0  0  0  0  0  0  0  0  0
    5.1457    6.1075   15.0161 H   0  0  0  0  0  0  0  0  0  0  0  0
    6.7250    5.4986   16.6675 B   0  0  0  0  0  0  0  0  0  0  0  0
    8.2232    8.9117   18.2214 Br  0  0  0  0  0  0  0  0  0  0  0  0
    4.3583    8.5468   17.3823 Br  0  0  0  0  0  0  0  0  0  0  0  0
    5.4590    6.3790   12.3506 C   0  0  0  0  0  0  0  0  0  0  0  0
    4.0842    6.6547   12.4019 C   0  0  0  0  0  0  0  0  0  0  0  0
    3.2135    5.7711   11.7573 C   0  0  0  0  0  0  0  0  0  0  0  0
    2.2836    5.9613   11.7466 H   0  0  0  0  0  0  0  0  0  0  0  0
    3.6718    4.6339   11.1385 C   0  0  0  0  0  0  0  0  0  0  0  0
    3.0612    4.0515   10.7009 H   0  0  0  0  0  0  0  0  0  0  0  0
    5.0165    4.3377   11.1532 C   0  0  0  0  0  0  0  0  0  0  0  0
    5.3237    3.5366   10.7447 H   0  0  0  0  0  0  0  0  0  0  0  0
    5.9345    5.1977   11.7612 C   0  0  0  0  0  0  0  0  0  0  0  0
    7.3952    4.8071   11.8283 C   0  0  0  0  0  0  0  0  0  0  0  0
    7.9045    5.5897   12.1843 H   0  0  0  0  0  0  0  0  0  0  0  0
    7.9794    4.4511   10.4592 C   0  0  0  0  0  0  0  0  0  0  0  0
    7.5351    3.6497   10.1123 H   0  0  0  0  0  0  0  0  0  0  0  0
    8.9399    4.2800   10.5486 H   0  0  0  0  0  0  0  0  0  0  0  0
    7.8369    5.1975    9.8396 H   0  0  0  0  0  0  0  0  0  0  0  0
    7.5956    3.6400   12.7935 C   0  0  0  0  0  0  0  0  0  0  0  0
    7.2312    3.8755   13.6720 H   0  0  0  0  0  0  0  0  0  0  0  0
    8.5536    3.4476   12.8786 H   0  0  0  0  0  0  0  0  0  0  0  0
    7.1335    2.8473   12.4496 H   0  0  0  0  0  0  0  0  0  0  0  0
    3.5386    7.8564   13.1480 C   0  0  0  0  0  0  0  0  0  0  0  0
    4.2479    8.1571   13.7862 H   0  0  0  0  0  0  0  0  0  0  0  0
    3.2536    9.0236   12.2033 C   0  0  0  0  0  0  0  0  0  0  0  0
    4.0905    9.3187   11.7871 H   0  0  0  0  0  0  0  0  0  0  0  0
    2.8610    9.7649   12.7093 H   0  0  0  0  0  0  0  0  0  0  0  0
    2.6271    8.7344   11.5074 H   0  0  0  0  0  0  0  0  0  0  0  0
    2.2985    7.4989   13.9790 C   0  0  0  0  0  0  0  0  0  0  0  0
    1.5357    7.3527   13.3812 H   0  0  0  0  0  0  0  0  0  0  0  0
    2.0947    8.2331   14.5951 H   0  0  0  0  0  0  0  0  0  0  0  0
    2.4730    6.6815   14.4913 H   0  0  0  0  0  0  0  0  0  0  0  0
    6.9097    7.1700   14.2417 C   0  0  0  0  0  0  0  0  0  0  0  0
    7.8663    8.1022   14.4512 C   0  0  0  0  0  0  0  0  0  0  0  0
    8.3522    8.1690   15.2645 H   0  0  0  0  0  0  0  0  0  0  0  0
    8.0926    9.0252   13.2888 C   0  0  0  0  0  0  0  0  0  0  0  0
    6.2509    8.1998    9.9144 C   0  0  0  0  0  0  0  0  0  0  0  0
    6.6036    7.2931    9.7919 H   0  0  0  0  0  0  0  0  0  0  0  0
    6.3495    8.7036    9.0799 H   0  0  0  0  0  0  0  0  0  0  0  0
    5.3029    8.1510   10.1571 H   0  0  0  0  0  0  0  0  0  0  0  0
   10.1247    7.1996   11.7720 C   0  0  0  0  0  0  0  0  0  0  0  0
    9.4901    7.1157   11.0302 H   0  0  0  0  0  0  0  0  0  0  0  0
    9.9823    6.4685   12.4086 H   0  0  0  0  0  0  0  0  0  0  0  0
   11.0404    7.1569   11.4249 H   0  0  0  0  0  0  0  0  0  0  0  0
   10.2994   10.1529   11.3931 C   0  0  0  0  0  0  0  0  0  0  0  0
   11.1573    9.9326   10.9723 H   0  0  0  0  0  0  0  0  0  0  0  0
   10.3716   11.0187   11.8464 H   0  0  0  0  0  0  0  0  0  0  0  0
    9.6019   10.2001   10.7069 H   0  0  0  0  0  0  0  0  0  0  0  0
   11.1028    8.8298   14.0407 C   0  0  0  0  0  0  0  0  0  0  0  0
   12.0084    8.9164   13.6775 H   0  0  0  0  0  0  0  0  0  0  0  0
   11.0285    7.9882   14.5372 H   0  0  0  0  0  0  0  0  0  0  0  0
   10.9184    9.5812   14.6423 H   0  0  0  0  0  0  0  0  0  0  0  0
    7.4997   11.9642   12.3498 C   0  0  0  0  0  0  0  0  0  0  0  0
    6.8806   11.6114   11.6774 H   0  0  0  0  0  0  0  0  0  0  0  0
    8.3912   12.0619   11.9533 H   0  0  0  0  0  0  0  0  0  0  0  0
    7.1831   12.8373   12.6607 H   0  0  0  0  0  0  0  0  0  0  0  0
    8.8272   11.4933   15.0125 C   0  0  0  0  0  0  0  0  0  0  0  0
    8.5452   12.3924   15.2812 H   0  0  0  0  0  0  0  0  0  0  0  0
    9.7113   11.5411   14.5908 H   0  0  0  0  0  0  0  0  0  0  0  0
    8.8738   10.9154   15.8025 H   0  0  0  0  0  0  0  0  0  0  0  0
    5.9216   10.7530   14.5846 C   0  0  0  0  0  0  0  0  0  0  0  0
    5.7234   11.6339   14.9645 H   0  0  0  0  0  0  0  0  0  0  0  0
    5.9132   10.0801   15.2972 H   0  0  0  0  0  0  0  0  0  0  0  0
    5.2448   10.5262   13.9132 H   0  0  0  0  0  0  0  0  0  0  0  0
    5.6137    3.2368   18.6102 C   0  0  0  0  0  0  0  0  0  0  0  0
    5.7879    3.8386   19.3632 H   0  0  0  0  0  0  0  0  0  0  0  0
    6.3737    2.6295   18.4938 H   0  0  0  0  0  0  0  0  0  0  0  0
    4.8034    2.7144   18.7906 H   0  0  0  0  0  0  0  0  0  0  0  0
    3.7420    4.9300   17.3044 C   0  0  0  0  0  0  0  0  0  0  0  0
    3.0703    4.2175   17.3174 H   0  0  0  0  0  0  0  0  0  0  0  0
    3.5587    5.5391   16.5585 H   0  0  0  0  0  0  0  0  0  0  0  0
    3.7069    5.4281   18.1481 H   0  0  0  0  0  0  0  0  0  0  0  0
    5.1568    2.9816   15.7879 C   0  0  0  0  0  0  0  0  0  0  0  0
    5.9872    2.4744   15.6700 H   0  0  0  0  0  0  0  0  0  0  0  0
    4.9310    3.4373   14.9502 H   0  0  0  0  0  0  0  0  0  0  0  0
    4.4321    2.3693   16.0326 H   0  0  0  0  0  0  0  0  0  0  0  0
    8.8272    3.2210   16.4136 C   0  0  0  0  0  0  0  0  0  0  0  0
    8.7331    3.2049   15.4384 H   0  0  0  0  0  0  0  0  0  0  0  0
    8.2017    2.5811   16.8129 H   0  0  0  0  0  0  0  0  0  0  0  0
    9.7445    2.9769   16.6575 H   0  0  0  0  0  0  0  0  0  0  0  0
    8.9103    4.7504   18.7653 C   0  0  0  0  0  0  0  0  0  0  0  0
    9.8045    4.3577   18.8431 H   0  0  0  0  0  0  0  0  0  0  0  0
    8.2612    4.1772   19.2262 H   0  0  0  0  0  0  0  0  0  0  0  0
    8.9067    5.6406   19.1736 H   0  0  0  0  0  0  0  0  0  0  0  0
    9.7452    5.9034   16.3091 C   0  0  0  0  0  0  0  0  0  0  0  0
    9.7491    6.7803   16.7468 H   0  0  0  0  0  0  0  0  0  0  0  0
    9.5730    6.0176   15.3509 H   0  0  0  0  0  0  0  0  0  0  0  0
   10.6151    5.4709   16.4354 H   0  0  0  0  0  0  0  0  0  0  0  0
    6.4030    7.3225   12.8949 N   0  0  0  0  0  0  0  0  0  0  0  0
    6.9736    8.8528   10.9514 O   0  0  0  0  0  0  0  0  0  0  0  0
    5.3804    4.2086   17.1015 P   0  0  0  0  0  0  0  0  0  0  0  0
    8.4623    4.8844   17.0274 P   0  0  0  0  0  0  0  0  0  0  0  0
    9.8619    8.8368   12.6345 Si  0  0  0  0  0  0  0  0  0  0  0  0
    7.5883   10.7862   13.7907 Si  0  0  0  0  0  0  0  0  0  0  0  0
    6.3231    7.2839   17.7920 Zn  0  0  0  0  0  0  0  0  0  0  0  0
    7.0744    8.3983   12.2441 B   0  0  0  0  0  0  0  0  0  0  0  0
    8.0854    9.5433   23.3198 B   0  0  0  0  0  0  0  0  0  0  0  0
    9.1749    9.6432   23.5615 H   0  0  0  0  0  0  0  0  0  0  0  0
    7.5956   10.2521   21.9101 B   0  0  0  0  0  0  0  0  0  0  0  0
    6.0974    6.8390   20.3562 Br  0  0  0  0  0  0  0  0  0  0  0  0
    9.9623    7.2039   21.1953 Br  0  0  0  0  0  0  0  0  0  0  0  0
    8.8616    9.3717   26.2270 C   0  0  0  0  0  0  0  0  0  0  0  0
   10.2364    9.0960   26.1757 C   0  0  0  0  0  0  0  0  0  0  0  0
   11.1071    9.9796   26.8203 C   0  0  0  0  0  0  0  0  0  0  0  0
   12.0370    9.7894   26.8310 H   0  0  0  0  0  0  0  0  0  0  0  0
   10.6488   11.1168   27.4391 C   0  0  0  0  0  0  0  0  0  0  0  0
   11.2594   11.6992   27.8767 H   0  0  0  0  0  0  0  0  0  0  0  0
    9.3041   11.4130   27.4244 C   0  0  0  0  0  0  0  0  0  0  0  0
    8.9969   12.2141   27.8329 H   0  0  0  0  0  0  0  0  0  0  0  0
    8.3861   10.5530   26.8164 C   0  0  0  0  0  0  0  0  0  0  0  0
    6.9254   10.9436   26.7493 C   0  0  0  0  0  0  0  0  0  0  0  0
    6.4161   10.1610   26.3933 H   0  0  0  0  0  0  0  0  0  0  0  0
    6.3412   11.2996   28.1184 C   0  0  0  0  0  0  0  0  0  0  0  0
    6.7855   12.1010   28.4653 H   0  0  0  0  0  0  0  0  0  0  0  0
    5.3807   11.4707   28.0290 H   0  0  0  0  0  0  0  0  0  0  0  0
    6.4837   10.5532   28.7380 H   0  0  0  0  0  0  0  0  0  0  0  0
    6.7250   12.1107   25.7841 C   0  0  0  0  0  0  0  0  0  0  0  0
    7.0894   11.8752   24.9056 H   0  0  0  0  0  0  0  0  0  0  0  0
    5.7670   12.3031   25.6990 H   0  0  0  0  0  0  0  0  0  0  0  0
    7.1871   12.9034   26.1280 H   0  0  0  0  0  0  0  0  0  0  0  0
   10.7820    7.8943   25.4296 C   0  0  0  0  0  0  0  0  0  0  0  0
   10.0727    7.5936   24.7914 H   0  0  0  0  0  0  0  0  0  0  0  0
   11.0670    6.7271   26.3743 C   0  0  0  0  0  0  0  0  0  0  0  0
   10.2301    6.4320   26.7905 H   0  0  0  0  0  0  0  0  0  0  0  0
   11.4596    5.9858   25.8683 H   0  0  0  0  0  0  0  0  0  0  0  0
   11.6935    7.0163   27.0702 H   0  0  0  0  0  0  0  0  0  0  0  0
   12.0221    8.2518   24.5986 C   0  0  0  0  0  0  0  0  0  0  0  0
   12.7849    8.3980   25.1964 H   0  0  0  0  0  0  0  0  0  0  0  0
   12.2259    7.5176   23.9825 H   0  0  0  0  0  0  0  0  0  0  0  0
   11.8476    9.0692   24.0863 H   0  0  0  0  0  0  0  0  0  0  0  0
    7.4109    8.5807   24.3359 C   0  0  0  0  0  0  0  0  0  0  0  0
    6.4543    7.6485   24.1264 C   0  0  0  0  0  0  0  0  0  0  0  0
    5.9684    7.5817   23.3131 H   0  0  0  0  0  0  0  0  0  0  0  0
    6.2280    6.7255   25.2888 C   0  0  0  0  0  0  0  0  0  0  0  0
    8.0697    7.5509   28.6632 C   0  0  0  0  0  0  0  0  0  0  0  0
    7.7170    8.4576   28.7857 H   0  0  0  0  0  0  0  0  0  0  0  0
    7.9711    7.0471   29.4977 H   0  0  0  0  0  0  0  0  0  0  0  0
    9.0177    7.5997   28.4205 H   0  0  0  0  0  0  0  0  0  0  0  0
    4.1959    8.5511   26.8056 C   0  0  0  0  0  0  0  0  0  0  0  0
    4.8305    8.6350   27.5474 H   0  0  0  0  0  0  0  0  0  0  0  0
    4.3383    9.2822   26.1690 H   0  0  0  0  0  0  0  0  0  0  0  0
    3.2802    8.5938   27.1527 H   0  0  0  0  0  0  0  0  0  0  0  0
    4.0212    5.5978   27.1845 C   0  0  0  0  0  0  0  0  0  0  0  0
    3.1633    5.8181   27.6053 H   0  0  0  0  0  0  0  0  0  0  0  0
    3.9490    4.7320   26.7312 H   0  0  0  0  0  0  0  0  0  0  0  0
    4.7187    5.5506   27.8707 H   0  0  0  0  0  0  0  0  0  0  0  0
    3.2178    6.9209   24.5369 C   0  0  0  0  0  0  0  0  0  0  0  0
    2.3122    6.8343   24.9001 H   0  0  0  0  0  0  0  0  0  0  0  0
    3.2921    7.7625   24.0404 H   0  0  0  0  0  0  0  0  0  0  0  0
    3.4022    6.1695   23.9353 H   0  0  0  0  0  0  0  0  0  0  0  0
    6.8209    3.7865   26.2278 C   0  0  0  0  0  0  0  0  0  0  0  0
    7.4400    4.1393   26.9002 H   0  0  0  0  0  0  0  0  0  0  0  0
    5.9294    3.6888   26.6243 H   0  0  0  0  0  0  0  0  0  0  0  0
    7.1375    2.9134   25.9169 H   0  0  0  0  0  0  0  0  0  0  0  0
    5.4934    4.2574   23.5651 C   0  0  0  0  0  0  0  0  0  0  0  0
    5.7754    3.3583   23.2964 H   0  0  0  0  0  0  0  0  0  0  0  0
    4.6093    4.2096   23.9868 H   0  0  0  0  0  0  0  0  0  0  0  0
    5.4468    4.8353   22.7751 H   0  0  0  0  0  0  0  0  0  0  0  0
    8.3990    4.9977   23.9930 C   0  0  0  0  0  0  0  0  0  0  0  0
    8.5972    4.1168   23.6131 H   0  0  0  0  0  0  0  0  0  0  0  0
    8.4074    5.6706   23.2804 H   0  0  0  0  0  0  0  0  0  0  0  0
    9.0758    5.2245   24.6644 H   0  0  0  0  0  0  0  0  0  0  0  0
    8.7069   12.5139   19.9674 C   0  0  0  0  0  0  0  0  0  0  0  0
    8.5327   11.9121   19.2144 H   0  0  0  0  0  0  0  0  0  0  0  0
    7.9469   13.1212   20.0838 H   0  0  0  0  0  0  0  0  0  0  0  0
    9.5172   13.0363   19.7870 H   0  0  0  0  0  0  0  0  0  0  0  0
   10.5786   10.8207   21.2732 C   0  0  0  0  0  0  0  0  0  0  0  0
   11.2503   11.5332   21.2602 H   0  0  0  0  0  0  0  0  0  0  0  0
   10.7619   10.2116   22.0191 H   0  0  0  0  0  0  0  0  0  0  0  0
   10.6137   10.3226   20.4295 H   0  0  0  0  0  0  0  0  0  0  0  0
    9.1638   12.7691   22.7897 C   0  0  0  0  0  0  0  0  0  0  0  0
    8.3334   13.2763   22.9076 H   0  0  0  0  0  0  0  0  0  0  0  0
    9.3896   12.3134   23.6274 H   0  0  0  0  0  0  0  0  0  0  0  0
    9.8885   13.3814   22.5450 H   0  0  0  0  0  0  0  0  0  0  0  0
    5.4934   12.5297   22.1640 C   0  0  0  0  0  0  0  0  0  0  0  0
    5.5875   12.5458   23.1392 H   0  0  0  0  0  0  0  0  0  0  0  0
    6.1189   13.1696   21.7647 H   0  0  0  0  0  0  0  0  0  0  0  0
    4.5761   12.7738   21.9201 H   0  0  0  0  0  0  0  0  0  0  0  0
    5.4103   11.0003   19.8123 C   0  0  0  0  0  0  0  0  0  0  0  0
    4.5161   11.3930   19.7345 H   0  0  0  0  0  0  0  0  0  0  0  0
    6.0594   11.5735   19.3514 H   0  0  0  0  0  0  0  0  0  0  0  0
    5.4139   10.1101   19.4040 H   0  0  0  0  0  0  0  0  0  0  0  0
    4.5754    9.8473   22.2685 C   0  0  0  0  0  0  0  0  0  0  0  0
    4.5715    8.9704   21.8308 H   0  0  0  0  0  0  0  0  0  0  0  0
    4.7476    9.7331   23.2267 H   0  0  0  0  0  0  0  0  0  0  0  0
    3.7055   10.2798   22.1422 H   0  0  0  0  0  0  0  0  0  0  0  0
    7.9176    8.4282   25.6827 N   0  0  0  0  0  0  0  0  0  0  0  0
    7.3470    6.8979   27.6262 O   0  0  0  0  0  0  0  0  0  0  0  0
    8.9402   11.5421   21.4761 P   0  0  0  0  0  0  0  0  0  0  0  0
    5.8583   10.8663   21.5502 P   0  0  0  0  0  0  0  0  0  0  0  0
    4.4587    6.9139   25.9431 Si  0  0  0  0  0  0  0  0  0  0  0  0
    6.7323    4.9645   24.7869 Si  0  0  0  0  0  0  0  0  0  0  0  0
    7.9975    8.4668   20.7856 Zn  0  0  0  0  0  0  0  0  0  0  0  0
    7.2462    7.3524   26.3335 B   0  0  0  0  0  0  0  0  0  0  0  0
  1  2  1  0  0  0  0
  3  1  1  0  0  0  0
  4 97  1  0  0  0  0
  5 97  1  0  0  0  0
  6  7  4  0  0  0  0
  7  8  4  0  0  0  0
  8  9  1  0  0  0  0
 10  8  4  0  0  0  0
 11 10  1  0  0  0  0
 12 10  4  0  0  0  0
 13 12  1  0  0  0  0
 14  6  4  0  0  0  0
 15 14  1  0  0  0  0
 16 15  1  0  0  0  0
 17 15  1  0  0  0  0
 18 17  1  0  0  0  0
 19 17  1  0  0  0  0
 20 17  1  0  0  0  0
 21 15  1  0  0  0  0
 22 21  1  0  0  0  0
 23 21  1  0  0  0  0
 24 21  1  0  0  0  0
 25  7  1  0  0  0  0
 26 25  1  0  0  0  0
 27 25  1  0  0  0  0
 28 27  1  0  0  0  0
 29 27  1  0  0  0  0
 30 27  1  0  0  0  0
 31 25  1  0  0  0  0
 32 31  1  0  0  0  0
 33 31  1  0  0  0  0
 34 31  1  0  0  0  0
 35  1  1  0  0  0  0
 36 35  2  0  0  0  0
 37 36  1  0  0  0  0
 38 36  1  0  0  0  0
 39 40  1  0  0  0  0
 41 39  1  0  0  0  0
 42 39  1  0  0  0  0
 43 44  1  0  0  0  0
 45 43  1  0  0  0  0
 46 43  1  0  0  0  0
 47 48  1  0  0  0  0
 49 47  1  0  0  0  0
 50 47  1  0  0  0  0
 51 52  1  0  0  0  0
 53 51  1  0  0  0  0
 54 51  1  0  0  0  0
 55 56  1  0  0  0  0
 57 55  1  0  0  0  0
 58 55  1  0  0  0  0
 59 60  1  0  0  0  0
 61 59  1  0  0  0  0
 62 59  1  0  0  0  0
 63 64  1  0  0  0  0
 65 63  1  0  0  0  0
 66 63  1  0  0  0  0
 67 68  1  0  0  0  0
 69 67  1  0  0  0  0
 70 67  1  0  0  0  0
 71 72  1  0  0  0  0
 73 71  1  0  0  0  0
 74 71  1  0  0  0  0
 75 76  1  0  0  0  0
 77 75  1  0  0  0  0
 78 75  1  0  0  0  0
 79 80  1  0  0  0  0
 81 79  1  0  0  0  0
 82 79  1  0  0  0  0
 83 84  1  0  0  0  0
 85 83  1  0  0  0  0
 86 83  1  0  0  0  0
 87 88  1  0  0  0  0
 89 87  1  0  0  0  0
 90 87  1  0  0  0  0
 91  6  1  0  0  0  0
 92 39  1  0  0  0  0
 93  3  1  0  0  0  0
 94  3  1  0  0  0  0
 95 38  1  0  0  0  0
 96 38  1  0  0  0  0
 97  3  1  0  0  0  0
 98 38  1  0  0  0  0
 99100  1  0  0  0  0
101 99  1  0  0  0  0
102 97  1  0  0  0  0
103195  1  0  0  0  0
104105  4  0  0  0  0
105106  4  0  0  0  0
106107  1  0  0  0  0
108106  4  0  0  0  0
109108  1  0  0  0  0
110108  4  0  0  0  0
111110  1  0  0  0  0
112104  4  0  0  0  0
113112  1  0  0  0  0
114113  1  0  0  0  0
115113  1  0  0  0  0
116115  1  0  0  0  0
117115  1  0  0  0  0
118115  1  0  0  0  0
119113  1  0  0  0  0
120119  1  0  0  0  0
121119  1  0  0  0  0
122119  1  0  0  0  0
123105  1  0  0  0  0
124123  1  0  0  0  0
125123  1  0  0  0  0
126125  1  0  0  0  0
127125  1  0  0  0  0
128125  1  0  0  0  0
129123  1  0  0  0  0
130129  1  0  0  0  0
131129  1  0  0  0  0
132129  1  0  0  0  0
133 99  1  0  0  0  0
134133  2  0  0  0  0
135134  1  0  0  0  0
136134  1  0  0  0  0
137138  1  0  0  0  0
139137  1  0  0  0  0
140137  1  0  0  0  0
141142  1  0  0  0  0
143141  1  0  0  0  0
144141  1  0  0  0  0
145146  1  0  0  0  0
147145  1  0  0  0  0
148145  1  0  0  0  0
149150  1  0  0  0  0
151149  1  0  0  0  0
152149  1  0  0  0  0
153154  1  0  0  0  0
155153  1  0  0  0  0
156153  1  0  0  0  0
157158  1  0  0  0  0
159157  1  0  0  0  0
160157  1  0  0  0  0
161162  1  0  0  0  0
163161  1  0  0  0  0
164161  1  0  0  0  0
165166  1  0  0  0  0
167165  1  0  0  0  0
168165  1  0  0  0  0
169170  1  0  0  0  0
171169  1  0  0  0  0
172169  1  0  0  0  0
173174  1  0  0  0  0
175173  1  0  0  0  0
176173  1  0  0  0  0
177178  1  0  0  0  0
179177  1  0  0  0  0
180177  1  0  0  0  0
181182  1  0  0  0  0
183181  1  0  0  0  0
184181  1  0  0  0  0
185186  1  0  0  0  0
187185  1  0  0  0  0
188185  1  0  0  0  0
189104  1  0  0  0  0
190137  1  0  0  0  0
191101  1  0  0  0  0
192101  1  0  0  0  0
193136  1  0  0  0  0
194136  1  0  0  0  0
195  4  1  0  0  0  0
196136  1  0  0  0  0
 12 14  4  0  0  0  0
 35 91  1  0  0  0  0
 43 95  1  0  0  0  0
 47 95  1  0  0  0  0
 51 95  1  0  0  0  0
 55 96  1  0  0  0  0
 59 96  1  0  0  0  0
 63 96  1  0  0  0  0
 67 93  1  0  0  0  0
 71 93  1  0  0  0  0
 75 93  1  0  0  0  0
 79 94  1  0  0  0  0
 83 94  1  0  0  0  0
 87 94  1  0  0  0  0
 91 98  1  0  0  0  0
 92 98  1  0  0  0  0
101195  1  0  0  0  0
102195  1  0  0  0  0
110112  4  0  0  0  0
133189  1  0  0  0  0
141193  1  0  0  0  0
145193  1  0  0  0  0
149193  1  0  0  0  0
153194  1  0  0  0  0
157194  1  0  0  0  0
161194  1  0  0  0  0
165191  1  0  0  0  0
169191  1  0  0  0  0
173191  1  0  0  0  0
177192  1  0  0  0  0
181192  1  0  0  0  0
185192  1  0  0  0  0
189196  1  0  0  0  0
190196  1  0  0  0  0
M  END
$$$$
BERXOO

From CSD data. Using bond type 'Any'. No disordered atoms. Largest molecule.
 98 99  0  0  0  0  0  0  0  0999 V2000
    8.3581   11.1558   15.5721 B   0  0  0  0  0  0  0  0  0  0  0  0
    6.0967   12.3253   12.7469 B   0  0  0  0  0  0  0  0  0  0  0  0
    5.7475   13.1525   13.2165 H   0  0  0  0  0  0  0  0  0  0  0  0
    5.4938   12.0842   11.2122 B   0  0  0  0  0  0  0  0  0  0  0  0
    6.2674   12.6690   15.7115 C   0  0  0  0  0  0  0  0  0  0  0  0
    6.4757   14.0407   15.8772 C   0  0  0  0  0  0  0  0  0  0  0  0
    5.5408   14.7802   16.6038 C   0  0  0  0  0  0  0  0  0  0  0  0
    5.6859   15.7082   16.7413 H   0  0  0  0  0  0  0  0  0  0  0  0
    4.4132   14.1910   17.1216 C   0  0  0  0  0  0  0  0  0  0  0  0
    3.7960   14.7080   17.6260 H   0  0  0  0  0  0  0  0  0  0  0  0
    4.1767   12.8445   16.9060 C   0  0  0  0  0  0  0  0  0  0  0  0
    3.3866   12.4420   17.2472 H   0  0  0  0  0  0  0  0  0  0  0  0
    5.0960   12.0723   16.1897 C   0  0  0  0  0  0  0  0  0  0  0  0
    4.7859   10.6038   15.9293 C   0  0  0  0  0  0  0  0  0  0  0  0
    5.6220   10.1587   15.6108 H   0  0  0  0  0  0  0  0  0  0  0  0
    4.3380    9.9150   17.2436 C   0  0  0  0  0  0  0  0  0  0  0  0
    3.5037   10.3222   17.5587 H   0  0  0  0  0  0  0  0  0  0  0  0
    5.0335   10.0275   17.9251 H   0  0  0  0  0  0  0  0  0  0  0  0
    4.1933    8.9599   17.0793 H   0  0  0  0  0  0  0  0  0  0  0  0
    3.7413   10.4342   14.8880 C   0  0  0  0  0  0  0  0  0  0  0  0
    3.5499    9.4798   14.7708 H   0  0  0  0  0  0  0  0  0  0  0  0
    4.0613   10.8089   14.0406 H   0  0  0  0  0  0  0  0  0  0  0  0
    2.9252   10.8997   15.1640 H   0  0  0  0  0  0  0  0  0  0  0  0
    7.6816   14.7683   15.2726 C   0  0  0  0  0  0  0  0  0  0  0  0
    8.1182   14.1482   14.6181 H   0  0  0  0  0  0  0  0  0  0  0  0
    8.7027   15.1165   16.3376 C   0  0  0  0  0  0  0  0  0  0  0  0
    8.2769   15.6600   17.0318 H   0  0  0  0  0  0  0  0  0  0  0  0
    9.4388   15.6208   15.9321 H   0  0  0  0  0  0  0  0  0  0  0  0
    9.0528   14.2920   16.7359 H   0  0  0  0  0  0  0  0  0  0  0  0
    7.2666   16.0449   14.5108 C   0  0  0  0  0  0  0  0  0  0  0  0
    6.8804   16.6885   15.1390 H   0  0  0  0  0  0  0  0  0  0  0  0
    6.6025   15.8157   13.8267 H   0  0  0  0  0  0  0  0  0  0  0  0
    8.0544   16.4392   14.0804 H   0  0  0  0  0  0  0  0  0  0  0  0
    7.1225   11.5918   13.6344 C   0  0  0  0  0  0  0  0  0  0  0  0
    8.1263   10.7526   13.2546 C   0  0  0  0  0  0  0  0  0  0  0  0
    8.2359   10.4427   12.3634 H   0  0  0  0  0  0  0  0  0  0  0  0
    9.0519   10.3598   14.3895 C   0  0  0  0  0  0  0  0  0  0  0  0
    8.1138   11.5813   18.0239 C   0  0  0  0  0  0  0  0  0  0  0  0
    7.8393   12.5053   17.8468 H   0  0  0  0  0  0  0  0  0  0  0  0
    8.7107   11.5618   18.8016 H   0  0  0  0  0  0  0  0  0  0  0  0
    7.3222   11.0340   18.2060 H   0  0  0  0  0  0  0  0  0  0  0  0
    7.1726    7.9540   14.8732 C   0  0  0  0  0  0  0  0  0  0  0  0
    7.1114    6.9834   14.7502 H   0  0  0  0  0  0  0  0  0  0  0  0
    6.6070    8.4029   14.2101 H   0  0  0  0  0  0  0  0  0  0  0  0
    6.8677    8.1887   15.7744 H   0  0  0  0  0  0  0  0  0  0  0  0
    9.8020    7.9302   16.2156 C   0  0  0  0  0  0  0  0  0  0  0  0
    9.4959    8.4705   16.9740 H   0  0  0  0  0  0  0  0  0  0  0  0
   10.7697    8.0373   16.1074 H   0  0  0  0  0  0  0  0  0  0  0  0
    9.5940    6.9869   16.3821 H   0  0  0  0  0  0  0  0  0  0  0  0
    9.6517    7.5954   13.1980 C   0  0  0  0  0  0  0  0  0  0  0  0
    9.3876    6.6522   13.2336 H   0  0  0  0  0  0  0  0  0  0  0  0
   10.6292    7.6618   13.2237 H   0  0  0  0  0  0  0  0  0  0  0  0
    9.3188    7.9966   12.3682 H   0  0  0  0  0  0  0  0  0  0  0  0
   12.0744   10.3688   15.2097 C   0  0  0  0  0  0  0  0  0  0  0  0
   12.2881    9.4433   14.9673 H   0  0  0  0  0  0  0  0  0  0  0  0
   11.7253   10.3923   16.1265 H   0  0  0  0  0  0  0  0  0  0  0  0
   12.8854   10.9159   15.1564 H   0  0  0  0  0  0  0  0  0  0  0  0
   11.3399   10.7244   12.3142 C   0  0  0  0  0  0  0  0  0  0  0  0
   12.2503   11.0671   12.1910 H   0  0  0  0  0  0  0  0  0  0  0  0
   10.7335   11.1793   11.6933 H   0  0  0  0  0  0  0  0  0  0  0  0
   11.3274    9.7608   12.1363 H   0  0  0  0  0  0  0  0  0  0  0  0
   10.7887   12.9040   14.2556 C   0  0  0  0  0  0  0  0  0  0  0  0
   10.5888   13.1258   15.1895 H   0  0  0  0  0  0  0  0  0  0  0  0
   10.1060   13.2969   13.6734 H   0  0  0  0  0  0  0  0  0  0  0  0
   11.6688   13.2636   14.0166 H   0  0  0  0  0  0  0  0  0  0  0  0
    6.1641    9.0937   10.9497 C   0  0  0  0  0  0  0  0  0  0  0  0
    6.2515    9.0293   11.9251 H   0  0  0  0  0  0  0  0  0  0  0  0
    7.0366    9.3043   10.5579 H   0  0  0  0  0  0  0  0  0  0  0  0
    5.8428    8.2392   10.5948 H   0  0  0  0  0  0  0  0  0  0  0  0
    3.4234    9.7483   11.1383 C   0  0  0  0  0  0  0  0  0  0  0  0
    3.2372    8.8845   10.7123 H   0  0  0  0  0  0  0  0  0  0  0  0
    2.7114   10.3829   10.9109 H   0  0  0  0  0  0  0  0  0  0  0  0
    3.4618    9.6329   12.1089 H   0  0  0  0  0  0  0  0  0  0  0  0
    4.8392   10.2973    8.7464 C   0  0  0  0  0  0  0  0  0  0  0  0
    5.6732   10.5999    8.3283 H   0  0  0  0  0  0  0  0  0  0  0  0
    4.1021   10.8752    8.4581 H   0  0  0  0  0  0  0  0  0  0  0  0
    4.6557    9.3738    8.4774 H   0  0  0  0  0  0  0  0  0  0  0  0
    3.0789   13.3385    9.5333 C   0  0  0  0  0  0  0  0  0  0  0  0
    2.4144   14.0585    9.5688 H   0  0  0  0  0  0  0  0  0  0  0  0
    2.6205   12.4755    9.4566 H   0  0  0  0  0  0  0  0  0  0  0  0
    3.6631   13.4694    8.7595 H   0  0  0  0  0  0  0  0  0  0  0  0
    2.8502   13.2090   12.3697 C   0  0  0  0  0  0  0  0  0  0  0  0
    2.1535   13.8872   12.2515 H   0  0  0  0  0  0  0  0  0  0  0  0
    3.2909   13.3396   13.2351 H   0  0  0  0  0  0  0  0  0  0  0  0
    2.4460   12.3163   12.3406 H   0  0  0  0  0  0  0  0  0  0  0  0
    4.6512   15.0659   11.1752 C   0  0  0  0  0  0  0  0  0  0  0  0
    5.2077   15.2818   10.3994 H   0  0  0  0  0  0  0  0  0  0  0  0
    5.1804   15.1687   11.9954 H   0  0  0  0  0  0  0  0  0  0  0  0
    3.8824   15.6730   11.2067 H   0  0  0  0  0  0  0  0  0  0  0  0
    8.0604   14.4149   11.2252 Cl  0  0  0  0  0  0  0  0  0  0  0  0
    6.4196   13.7234    8.2616 Cl  0  0  0  0  0  0  0  0  0  0  0  0
    7.3554   12.5298   10.0817 Ge  0  0  0  0  0  0  0  0  0  0  0  0
    7.2493   11.8625   15.0452 N   0  0  0  0  0  0  0  0  0  0  0  0
    8.8013   11.0606   16.8827 O   0  0  0  0  0  0  0  0  0  0  0  0
    5.0028   10.3811   10.5433 P   0  0  0  0  0  0  0  0  0  0  0  0
    4.0680   13.3602   11.0462 P   0  0  0  0  0  0  0  0  0  0  0  0
    8.9313    8.4956   14.6539 Si  0  0  0  0  0  0  0  0  0  0  0  0
   10.7960   11.0368   14.0434 Si  0  0  0  0  0  0  0  0  0  0  0  0
  1 37  1  0  0  0  0
  2  3  1  0  0  0  0
  4  2  1  0  0  0  0
  5  6  4  0  0  0  0
  6  7  4  0  0  0  0
  7  8  1  0  0  0  0
  9  7  4  0  0  0  0
 10  9  1  0  0  0  0
 11  9  4  0  0  0  0
 12 11  1  0  0  0  0
 13  5  4  0  0  0  0
 14 13  1  0  0  0  0
 15 14  1  0  0  0  0
 16 14  1  0  0  0  0
 17 16  1  0  0  0  0
 18 16  1  0  0  0  0
 19 16  1  0  0  0  0
 20 14  1  0  0  0  0
 21 20  1  0  0  0  0
 22 20  1  0  0  0  0
 23 20  1  0  0  0  0
 24  6  1  0  0  0  0
 25 24  1  0  0  0  0
 26 24  1  0  0  0  0
 27 26  1  0  0  0  0
 28 26  1  0  0  0  0
 29 26  1  0  0  0  0
 30 24  1  0  0  0  0
 31 30  1  0  0  0  0
 32 30  1  0  0  0  0
 33 30  1  0  0  0  0
 34  2  1  0  0  0  0
 35 34  2  0  0  0  0
 36 35  1  0  0  0  0
 37 35  1  0  0  0  0
 38 39  1  0  0  0  0
 40 38  1  0  0  0  0
 41 38  1  0  0  0  0
 42 43  1  0  0  0  0
 44 42  1  0  0  0  0
 45 42  1  0  0  0  0
 46 47  1  0  0  0  0
 48 46  1  0  0  0  0
 49 46  1  0  0  0  0
 50 51  1  0  0  0  0
 52 50  1  0  0  0  0
 53 50  1  0  0  0  0
 54 55  1  0  0  0  0
 56 54  1  0  0  0  0
 57 54  1  0  0  0  0
 58 59  1  0  0  0  0
 60 58  1  0  0  0  0
 61 58  1  0  0  0  0
 62 63  1  0  0  0  0
 64 62  1  0  0  0  0
 65 62  1  0  0  0  0
 66 67  1  0  0  0  0
 68 66  1  0  0  0  0
 69 66  1  0  0  0  0
 70 71  1  0  0  0  0
 72 70  1  0  0  0  0
 73 70  1  0  0  0  0
 74 75  1  0  0  0  0
 76 74  1  0  0  0  0
 77 74  1  0  0  0  0
 78 79  1  0  0  0  0
 80 78  1  0  0  0  0
 81 78  1  0  0  0  0
 82 83  1  0  0  0  0
 84 82  1  0  0  0  0
 85 82  1  0  0  0  0
 86 87  1  0  0  0  0
 88 86  1  0  0  0  0
 89 86  1  0  0  0  0
 90 92  1  0  0  0  0
 91 92  1  0  0  0  0
 92  4  1  0  0  0  0
 93  1  1  0  0  0  0
 94  1  1  0  0  0  0
 95  4  1  0  0  0  0
 96  4  1  0  0  0  0
 97 37  1  0  0  0  0
 98 37  1  0  0  0  0
  5 93  1  0  0  0  0
 11 13  4  0  0  0  0
 34 93  1  0  0  0  0
 38 94  1  0  0  0  0
 42 97  1  0  0  0  0
 46 97  1  0  0  0  0
 50 97  1  0  0  0  0
 54 98  1  0  0  0  0
 58 98  1  0  0  0  0
 62 98  1  0  0  0  0
 66 95  1  0  0  0  0
 70 95  1  0  0  0  0
 74 95  1  0  0  0  0
 78 96  1  0  0  0  0
 82 96  1  0  0  0  0
 86 96  1  0  0  0  0
M  END
$$$$
BESMAP

From CSD data. Using bond type 'Any'. No disordered atoms. Largest molecule.
112119  0  0  0  0  0  0  0  0999 V2000
    6.2924    7.6671   10.4799 C   0  0  0  0  0  0  0  0  0  0  0  0
    2.6787    8.0484    8.5899 C   0  0  0  0  0  0  0  0  0  0  0  0
    6.3185    4.8504    9.1765 C   0  0  0  0  0  0  0  0  0  0  0  0
    6.8379    4.0597   10.1611 C   0  0  0  0  0  0  0  0  0  0  0  0
    6.2813    3.7743   10.8496 H   0  0  0  0  0  0  0  0  0  0  0  0
    8.1697    3.6694   10.1668 C   0  0  0  0  0  0  0  0  0  0  0  0
    8.4943    3.1336   10.8552 H   0  0  0  0  0  0  0  0  0  0  0  0
    8.9965    4.0687    9.1708 C   0  0  0  0  0  0  0  0  0  0  0  0
    9.8800    3.7800    9.1614 H   0  0  0  0  0  0  0  0  0  0  0  0
    8.5381    4.8967    8.1730 C   0  0  0  0  0  0  0  0  0  0  0  0
    9.1144    5.1888    7.5034 H   0  0  0  0  0  0  0  0  0  0  0  0
    7.2062    5.2960    8.1730 C   0  0  0  0  0  0  0  0  0  0  0  0
    6.8952    5.8623    7.5034 H   0  0  0  0  0  0  0  0  0  0  0  0
    3.9595    4.7140    7.6279 C   0  0  0  0  0  0  0  0  0  0  0  0
    2.9260    3.4833    5.3588 C   0  0  0  0  0  0  0  0  0  0  0  0
    2.5789    3.0727    4.6005 H   0  0  0  0  0  0  0  0  0  0  0  0
    4.5338    3.4934    7.0413 C   0  0  0  0  0  0  0  0  0  0  0  0
    5.2775    3.1189    7.4563 H   0  0  0  0  0  0  0  0  0  0  0  0
    4.0438    2.8764    5.9284 C   0  0  0  0  0  0  0  0  0  0  0  0
    4.4264    2.1071    5.5738 H   0  0  0  0  0  0  0  0  0  0  0  0
    2.3701    4.5233    5.7756 C   0  0  0  0  0  0  0  0  0  0  0  0
    1.6310    4.8809    5.3399 H   0  0  0  0  0  0  0  0  0  0  0  0
    2.8804    5.1133    6.8847 C   0  0  0  0  0  0  0  0  0  0  0  0
    2.4468    5.8837    7.1733 H   0  0  0  0  0  0  0  0  0  0  0  0
    3.7601    4.5391   10.4742 C   0  0  0  0  0  0  0  0  0  0  0  0
    2.8196    4.4477   10.2573 H   0  0  0  0  0  0  0  0  0  0  0  0
    4.1384    3.6480   10.5440 H   0  0  0  0  0  0  0  0  0  0  0  0
    3.9028    5.2588   11.8229 C   0  0  0  0  0  0  0  0  0  0  0  0
    4.8430    5.4483   11.9700 H   0  0  0  0  0  0  0  0  0  0  0  0
    3.6167    4.6519   12.5246 H   0  0  0  0  0  0  0  0  0  0  0  0
    1.5106    6.5583   11.6248 C   0  0  0  0  0  0  0  0  0  0  0  0
    1.4257    6.1860   10.7232 H   0  0  0  0  0  0  0  0  0  0  0  0
    0.8877    5.5374   12.6264 C   0  0  0  0  0  0  0  0  0  0  0  0
   -0.0685    5.5058   12.4736 H   0  0  0  0  0  0  0  0  0  0  0  0
    1.2444    4.6576   12.4246 H   0  0  0  0  0  0  0  0  0  0  0  0
    1.1267    5.8217   14.0864 C   0  0  0  0  0  0  0  0  0  0  0  0
    0.9729    5.0039   14.5862 H   0  0  0  0  0  0  0  0  0  0  0  0
    0.4686    6.4703   14.3825 H   0  0  0  0  0  0  0  0  0  0  0  0
    2.5346    6.3563   14.4466 C   0  0  0  0  0  0  0  0  0  0  0  0
    3.1282    5.5983   14.5541 H   0  0  0  0  0  0  0  0  0  0  0  0
    2.4791    6.8064   15.3049 H   0  0  0  0  0  0  0  0  0  0  0  0
    3.1721    7.3332   13.4262 C   0  0  0  0  0  0  0  0  0  0  0  0
    4.1164    7.4607   13.6544 H   0  0  0  0  0  0  0  0  0  0  0  0
    2.4748    8.6924   13.4262 C   0  0  0  0  0  0  0  0  0  0  0  0
    2.4970    9.0421   14.3297 H   0  0  0  0  0  0  0  0  0  0  0  0
    2.9897    9.2971   12.8697 H   0  0  0  0  0  0  0  0  0  0  0  0
    1.0375    8.7161   12.9452 C   0  0  0  0  0  0  0  0  0  0  0  0
    0.7704    9.6366   12.7943 H   0  0  0  0  0  0  0  0  0  0  0  0
    0.4647    8.3507   13.6374 H   0  0  0  0  0  0  0  0  0  0  0  0
    0.8291    7.9096   11.6399 C   0  0  0  0  0  0  0  0  0  0  0  0
   -0.1215    7.7788   11.5041 H   0  0  0  0  0  0  0  0  0  0  0  0
    1.1628    8.4330   10.8949 H   0  0  0  0  0  0  0  0  0  0  0  0
    5.3375   10.9236   11.5871 C   0  0  0  0  0  0  0  0  0  0  0  0
    5.6883   10.0641   12.6057 C   0  0  0  0  0  0  0  0  0  0  0  0
    5.5146    9.1549   12.5189 H   0  0  0  0  0  0  0  0  0  0  0  0
    6.2988   10.5367   13.7506 C   0  0  0  0  0  0  0  0  0  0  0  0
    6.5144    9.9479   14.4372 H   0  0  0  0  0  0  0  0  0  0  0  0
    6.5827   11.8599   13.8770 C   0  0  0  0  0  0  0  0  0  0  0  0
    7.0168   12.1757   14.6352 H   0  0  0  0  0  0  0  0  0  0  0  0
    6.2271   12.7138   12.8886 C   0  0  0  0  0  0  0  0  0  0  0  0
    6.4066   13.6207   12.9848 H   0  0  0  0  0  0  0  0  0  0  0  0
    5.6084   12.2750   11.7474 C   0  0  0  0  0  0  0  0  0  0  0  0
    5.3701   12.8807   11.0835 H   0  0  0  0  0  0  0  0  0  0  0  0
    2.9913   11.3049   10.0140 C   0  0  0  0  0  0  0  0  0  0  0  0
    2.3860   11.5734    8.8219 C   0  0  0  0  0  0  0  0  0  0  0  0
    2.7448   11.2169    8.0429 H   0  0  0  0  0  0  0  0  0  0  0  0
    1.2563   12.3540    8.7389 C   0  0  0  0  0  0  0  0  0  0  0  0
    0.8744   12.5401    7.9108 H   0  0  0  0  0  0  0  0  0  0  0  0
    0.6923   12.8593    9.8895 C   0  0  0  0  0  0  0  0  0  0  0  0
   -0.0645   13.3985    9.8480 H   0  0  0  0  0  0  0  0  0  0  0  0
    1.2532   12.5638   11.0797 C   0  0  0  0  0  0  0  0  0  0  0  0
    0.8520   12.8717   11.8606 H   0  0  0  0  0  0  0  0  0  0  0  0
    2.4011   11.8204   11.1665 C   0  0  0  0  0  0  0  0  0  0  0  0
    2.7849   11.6580   11.9964 H   0  0  0  0  0  0  0  0  0  0  0  0
    5.5127   11.2034    8.7389 C   0  0  0  0  0  0  0  0  0  0  0  0
    5.1379   10.9846    7.8712 H   0  0  0  0  0  0  0  0  0  0  0  0
    5.4308   12.1622    8.8634 H   0  0  0  0  0  0  0  0  0  0  0  0
    7.0061   10.8289    8.7464 C   0  0  0  0  0  0  0  0  0  0  0  0
    7.0887    9.9254    9.0878 H   0  0  0  0  0  0  0  0  0  0  0  0
    7.4617   11.4155    9.3708 H   0  0  0  0  0  0  0  0  0  0  0  0
    7.2993   11.6930    6.1114 C   0  0  0  0  0  0  0  0  0  0  0  0
    6.3514   11.9253    6.1963 H   0  0  0  0  0  0  0  0  0  0  0  0
    7.5079   10.9079    4.8627 C   0  0  0  0  0  0  0  0  0  0  0  0
    7.4032   11.5068    4.1082 H   0  0  0  0  0  0  0  0  0  0  0  0
    6.8081   10.2401    4.8042 H   0  0  0  0  0  0  0  0  0  0  0  0
    8.8573   10.2006    4.7269 C   0  0  0  0  0  0  0  0  0  0  0  0
    8.7771    9.5159    4.0441 H   0  0  0  0  0  0  0  0  0  0  0  0
    9.5137   10.8458    4.4194 H   0  0  0  0  0  0  0  0  0  0  0  0
    9.3700    9.5621    5.9869 C   0  0  0  0  0  0  0  0  0  0  0  0
   10.3127    9.3636    5.8681 H   0  0  0  0  0  0  0  0  0  0  0  0
    8.9101    8.7173    6.1133 H   0  0  0  0  0  0  0  0  0  0  0  0
    9.2073   10.4003    7.2601 C   0  0  0  0  0  0  0  0  0  0  0  0
    9.4286    9.8487    8.0410 H   0  0  0  0  0  0  0  0  0  0  0  0
   10.0434   11.6512    7.2865 C   0  0  0  0  0  0  0  0  0  0  0  0
   10.9614   11.4031    7.1054 H   0  0  0  0  0  0  0  0  0  0  0  0
   10.0131   12.0144    8.1862 H   0  0  0  0  0  0  0  0  0  0  0  0
    9.6527   12.7499    6.3245 C   0  0  0  0  0  0  0  0  0  0  0  0
   10.0158   12.5401    5.4493 H   0  0  0  0  0  0  0  0  0  0  0  0
   10.0618   13.5801    6.6188 H   0  0  0  0  0  0  0  0  0  0  0  0
    8.1463   12.9676    6.1887 C   0  0  0  0  0  0  0  0  0  0  0  0
    7.9841   13.4921    5.3890 H   0  0  0  0  0  0  0  0  0  0  0  0
    7.8427   13.4910    6.9470 H   0  0  0  0  0  0  0  0  0  0  0  0
    3.0743    6.6417   11.9794 B   0  0  0  0  0  0  0  0  0  0  0  0
    7.7570   10.8977    7.3884 B   0  0  0  0  0  0  0  0  0  0  0  0
    5.3809    8.2435    7.9354 N   0  0  0  0  0  0  0  0  0  0  0  0
    7.2971    7.5013   10.9665 O   0  0  0  0  0  0  0  0  0  0  0  0
    1.6916    8.1589    8.0485 O   0  0  0  0  0  0  0  0  0  0  0  0
    5.9880    8.4826    6.9187 O   0  0  0  0  0  0  0  0  0  0  0  0
    4.5955    5.4385    9.1431 P   0  0  0  0  0  0  0  0  0  0  0  0
    4.5371   10.3499   10.0387 P   0  0  0  0  0  0  0  0  0  0  0  0
    4.5191    7.9026    9.4841 W   0  0  0  0  0  0  0  0  0  0  0  0
    3.7527    7.6592   10.9401 H   0  0  0  0  0  0  0  0  0  0  0  0
  1106  3  0  0  0  0
  2107  3  0  0  0  0
  3  4  4  0  0  0  0
  4  5  1  0  0  0  0
  6  4  4  0  0  0  0
  7  6  1  0  0  0  0
  8  6  4  0  0  0  0
  9  8  1  0  0  0  0
 10  8  4  0  0  0  0
 11 10  1  0  0  0  0
 12  3  4  0  0  0  0
 13 12  1  0  0  0  0
 14 17  4  0  0  0  0
 15 16  1  0  0  0  0
 17 18  1  0  0  0  0
 19 15  4  0  0  0  0
 20 19  1  0  0  0  0
 21 15  4  0  0  0  0
 22 21  1  0  0  0  0
 23 14  4  0  0  0  0
 24 23  1  0  0  0  0
 25 26  1  0  0  0  0
 27 25  1  0  0  0  0
 28 25  1  0  0  0  0
 29 28  1  0  0  0  0
 30 28  1  0  0  0  0
 31 32  1  0  0  0  0
 33 31  1  0  0  0  0
 34 33  1  0  0  0  0
 35 33  1  0  0  0  0
 36 33  1  0  0  0  0
 37 36  1  0  0  0  0
 38 36  1  0  0  0  0
 39 36  1  0  0  0  0
 40 39  1  0  0  0  0
 41 39  1  0  0  0  0
 42 39  1  0  0  0  0
 43 42  1  0  0  0  0
 44 42  1  0  0  0  0
 45 44  1  0  0  0  0
 46 44  1  0  0  0  0
 47 44  1  0  0  0  0
 48 47  1  0  0  0  0
 49 47  1  0  0  0  0
 50 31  1  0  0  0  0
 51 50  1  0  0  0  0
 52 50  1  0  0  0  0
 53 54  4  0  0  0  0
 54 55  1  0  0  0  0
 56 54  4  0  0  0  0
 57 56  1  0  0  0  0
 58 56  4  0  0  0  0
 59 58  1  0  0  0  0
 60 58  4  0  0  0  0
 61 60  1  0  0  0  0
 62 53  4  0  0  0  0
 63 62  1  0  0  0  0
 64 65  4  0  0  0  0
 65 66  1  0  0  0  0
 67 65  4  0  0  0  0
 68 67  1  0  0  0  0
 69 67  4  0  0  0  0
 70 69  1  0  0  0  0
 71 69  4  0  0  0  0
 72 71  1  0  0  0  0
 73 64  4  0  0  0  0
 74 73  1  0  0  0  0
 75 76  1  0  0  0  0
 77 75  1  0  0  0  0
 78 75  1  0  0  0  0
 79 78  1  0  0  0  0
 80 78  1  0  0  0  0
 81 82  1  0  0  0  0
 83 81  1  0  0  0  0
 84 83  1  0  0  0  0
 85 83  1  0  0  0  0
 86 83  1  0  0  0  0
 87 86  1  0  0  0  0
 88 86  1  0  0  0  0
 89 86  1  0  0  0  0
 90 89  1  0  0  0  0
 91 89  1  0  0  0  0
 92 89  1  0  0  0  0
 93 92  1  0  0  0  0
 94 92  1  0  0  0  0
 95 94  1  0  0  0  0
 96 94  1  0  0  0  0
 97 94  1  0  0  0  0
 98 97  1  0  0  0  0
 99 97  1  0  0  0  0
100 81  1  0  0  0  0
101100  1  0  0  0  0
102100  1  0  0  0  0
103 28  1  0  0  0  0
104 78  1  0  0  0  0
105108  2  0  0  0  0
109  3  1  0  0  0  0
110 53  1  0  0  0  0
111  1  1  0  0  0  0
112111  1  0  0  0  0
  2111  1  0  0  0  0
 10 12  4  0  0  0  0
 14109  1  0  0  0  0
 17 19  4  0  0  0  0
 21 23  4  0  0  0  0
 25109  1  0  0  0  0
 31103  1  0  0  0  0
 42103  1  0  0  0  0
 47 50  1  0  0  0  0
 60 62  4  0  0  0  0
 64110  1  0  0  0  0
 71 73  4  0  0  0  0
 75110  1  0  0  0  0
 81104  1  0  0  0  0
 92104  1  0  0  0  0
 97100  1  0  0  0  0
105111  1  0  0  0  0
109111  1  0  0  0  0
110111  1  0  0  0  0
M  END
$$$$
BESMET

From CSD data. Using bond type 'Any'. Matching problem. No disordered atoms. Largest molecule.
111118  0  0  0  0  0  0  0  0999 V2000
   -4.0588    3.6218    3.3979 C   0  0  0  0  0  0  0  0  0  0  0  0
   -3.4688    3.0104    8.1344 C   0  0  0  0  0  0  0  0  0  0  0  0
   -2.9072    1.7750    8.2550 C   0  0  0  0  0  0  0  0  0  0  0  0
   -2.5688    1.3458    7.5029 H   0  0  0  0  0  0  0  0  0  0  0  0
   -2.8394    1.1556    9.4884 C   0  0  0  0  0  0  0  0  0  0  0  0
   -2.4390    0.3178    9.5522 H   0  0  0  0  0  0  0  0  0  0  0  0
   -3.3381    1.7334   10.6039 C   0  0  0  0  0  0  0  0  0  0  0  0
   -3.2907    1.3046   11.4280 H   0  0  0  0  0  0  0  0  0  0  0  0
   -3.9028    2.9461   10.4842 C   0  0  0  0  0  0  0  0  0  0  0  0
   -4.2469    3.3627   11.2408 H   0  0  0  0  0  0  0  0  0  0  0  0
   -3.9846    3.5846    9.2715 C   0  0  0  0  0  0  0  0  0  0  0  0
   -4.3947    4.4168    9.2194 H   0  0  0  0  0  0  0  0  0  0  0  0
   -5.4648    3.9475    6.3370 C   0  0  0  0  0  0  0  0  0  0  0  0
   -6.1258    5.1523    6.4098 C   0  0  0  0  0  0  0  0  0  0  0  0
   -5.6726    5.9542    6.5349 H   0  0  0  0  0  0  0  0  0  0  0  0
   -7.5006    5.1030    6.2857 C   0  0  0  0  0  0  0  0  0  0  0  0
   -7.9820    5.8975    6.2371 H   0  0  0  0  0  0  0  0  0  0  0  0
   -8.1756    3.8984    6.2317 C   0  0  0  0  0  0  0  0  0  0  0  0
   -9.1057    3.8888    6.2560 H   0  0  0  0  0  0  0  0  0  0  0  0
   -7.4739    2.7012    6.1417 C   0  0  0  0  0  0  0  0  0  0  0  0
   -7.9199    1.8982    5.9915 H   0  0  0  0  0  0  0  0  0  0  0  0
   -6.1162    2.7294    6.2794 C   0  0  0  0  0  0  0  0  0  0  0  0
   -5.6337    1.9357    6.3343 H   0  0  0  0  0  0  0  0  0  0  0  0
   -3.1253    5.5838    6.8866 C   0  0  0  0  0  0  0  0  0  0  0  0
   -3.2538    6.1150    6.0851 H   0  0  0  0  0  0  0  0  0  0  0  0
   -3.7141    5.9404    7.5704 H   0  0  0  0  0  0  0  0  0  0  0  0
   -1.6933    5.7509    7.3508 C   0  0  0  0  0  0  0  0  0  0  0  0
   -1.1546    5.0740    6.9127 H   0  0  0  0  0  0  0  0  0  0  0  0
   -1.6629    5.5707    8.3035 H   0  0  0  0  0  0  0  0  0  0  0  0
    0.4734    7.4167    7.3841 C   0  0  0  0  0  0  0  0  0  0  0  0
    0.9131    6.5832    7.6540 H   0  0  0  0  0  0  0  0  0  0  0  0
    0.5231    8.4094    8.5419 C   0  0  0  0  0  0  0  0  0  0  0  0
    0.2312    7.9566    9.3480 H   0  0  0  0  0  0  0  0  0  0  0  0
    1.4453    8.6776    8.6769 H   0  0  0  0  0  0  0  0  0  0  0  0
   -0.3203    9.6584    8.3593 C   0  0  0  0  0  0  0  0  0  0  0  0
    0.1479   10.2632    7.7629 H   0  0  0  0  0  0  0  0  0  0  0  0
   -0.4065   10.1018    9.2176 H   0  0  0  0  0  0  0  0  0  0  0  0
   -1.7127    9.4066    7.7998 C   0  0  0  0  0  0  0  0  0  0  0  0
   -2.0969   10.2544    7.5281 H   0  0  0  0  0  0  0  0  0  0  0  0
   -2.2706    9.0453    8.5069 H   0  0  0  0  0  0  0  0  0  0  0  0
   -1.7537    8.4434    6.6024 C   0  0  0  0  0  0  0  0  0  0  0  0
   -2.6872    8.2294    6.3963 H   0  0  0  0  0  0  0  0  0  0  0  0
   -1.0817    8.9674    5.3537 C   0  0  0  0  0  0  0  0  0  0  0  0
   -1.3091    8.3806    4.6151 H   0  0  0  0  0  0  0  0  0  0  0  0
   -1.4468    9.8424    5.1540 H   0  0  0  0  0  0  0  0  0  0  0  0
    0.4129    9.0827    5.4229 C   0  0  0  0  0  0  0  0  0  0  0  0
    0.6370    9.8949    5.9033 H   0  0  0  0  0  0  0  0  0  0  0  0
    0.7571    9.1744    4.5197 H   0  0  0  0  0  0  0  0  0  0  0  0
    1.1123    7.9276    6.0851 C   0  0  0  0  0  0  0  0  0  0  0  0
    2.0248    8.1926    6.2776 H   0  0  0  0  0  0  0  0  0  0  0  0
    1.1498    7.1910    5.4544 H   0  0  0  0  0  0  0  0  0  0  0  0
   -1.0265    7.1359    7.0998 B   0  0  0  0  0  0  0  0  0  0  0  0
   -4.9322    4.0203    2.8185 O   0  0  0  0  0  0  0  0  0  0  0  0
   -3.6228    3.8608    6.5300 P   0  0  0  0  0  0  0  0  0  0  0  0
   -2.4587    2.9516    4.4981 W   0  0  0  0  0  0  0  0  0  0  0  0
   -1.3205    5.0560    4.1500 Cl  0  0  0  0  0  0  0  0  0  0  0  0
   -0.8586    2.2814    5.5984 C   0  0  0  0  0  0  0  0  0  0  0  0
   -1.4486    2.8928    0.8618 C   0  0  0  0  0  0  0  0  0  0  0  0
   -2.0102    4.1282    0.7413 C   0  0  0  0  0  0  0  0  0  0  0  0
   -2.3487    4.5574    1.4934 H   0  0  0  0  0  0  0  0  0  0  0  0
   -2.0781    4.7476   -0.4921 C   0  0  0  0  0  0  0  0  0  0  0  0
   -2.4785    5.5854   -0.5560 H   0  0  0  0  0  0  0  0  0  0  0  0
   -1.5793    4.1698   -1.6076 C   0  0  0  0  0  0  0  0  0  0  0  0
   -1.6267    4.5986   -2.4317 H   0  0  0  0  0  0  0  0  0  0  0  0
   -1.0147    2.9571   -1.4880 C   0  0  0  0  0  0  0  0  0  0  0  0
   -0.6705    2.5405   -2.2446 H   0  0  0  0  0  0  0  0  0  0  0  0
   -0.9329    2.3186   -0.2753 C   0  0  0  0  0  0  0  0  0  0  0  0
   -0.5227    1.4865   -0.2231 H   0  0  0  0  0  0  0  0  0  0  0  0
    0.5473    1.9558    2.6593 C   0  0  0  0  0  0  0  0  0  0  0  0
    1.2083    0.7510    2.5864 C   0  0  0  0  0  0  0  0  0  0  0  0
    0.7552   -0.0510    2.4614 H   0  0  0  0  0  0  0  0  0  0  0  0
    2.5832    0.8003    2.7106 C   0  0  0  0  0  0  0  0  0  0  0  0
    3.0645    0.0057    2.7592 H   0  0  0  0  0  0  0  0  0  0  0  0
    3.2582    2.0049    2.7646 C   0  0  0  0  0  0  0  0  0  0  0  0
    4.1882    2.0144    2.7403 H   0  0  0  0  0  0  0  0  0  0  0  0
    2.5565    3.2020    2.8545 C   0  0  0  0  0  0  0  0  0  0  0  0
    3.0025    4.0050    3.0048 H   0  0  0  0  0  0  0  0  0  0  0  0
    1.1988    3.1738    2.7169 C   0  0  0  0  0  0  0  0  0  0  0  0
    0.7163    3.9675    2.6620 H   0  0  0  0  0  0  0  0  0  0  0  0
   -1.7922    0.3194    2.1096 C   0  0  0  0  0  0  0  0  0  0  0  0
   -1.6636   -0.2118    2.9112 H   0  0  0  0  0  0  0  0  0  0  0  0
   -1.2033   -0.0372    1.4259 H   0  0  0  0  0  0  0  0  0  0  0  0
   -3.2242    0.1523    1.6454 C   0  0  0  0  0  0  0  0  0  0  0  0
   -3.7628    0.8292    2.0835 H   0  0  0  0  0  0  0  0  0  0  0  0
   -3.2546    0.3325    0.6927 H   0  0  0  0  0  0  0  0  0  0  0  0
   -5.3908   -1.5135    1.6121 C   0  0  0  0  0  0  0  0  0  0  0  0
   -5.8306   -0.6800    1.3422 H   0  0  0  0  0  0  0  0  0  0  0  0
   -5.4405   -2.5062    0.4543 C   0  0  0  0  0  0  0  0  0  0  0  0
   -5.1486   -2.0534   -0.3518 H   0  0  0  0  0  0  0  0  0  0  0  0
   -6.3627   -2.7744    0.3194 H   0  0  0  0  0  0  0  0  0  0  0  0
   -4.5971   -3.7552    0.6369 C   0  0  0  0  0  0  0  0  0  0  0  0
   -5.0653   -4.3599    1.2334 H   0  0  0  0  0  0  0  0  0  0  0  0
   -4.5110   -4.1985   -0.2213 H   0  0  0  0  0  0  0  0  0  0  0  0
   -3.2047   -3.5034    1.1965 C   0  0  0  0  0  0  0  0  0  0  0  0
   -2.8206   -4.3512    1.4682 H   0  0  0  0  0  0  0  0  0  0  0  0
   -2.6469   -3.1420    0.4894 H   0  0  0  0  0  0  0  0  0  0  0  0
   -3.1638   -2.5402    2.3939 C   0  0  0  0  0  0  0  0  0  0  0  0
   -2.2302   -2.3262    2.5999 H   0  0  0  0  0  0  0  0  0  0  0  0
   -3.8357   -3.0641    3.6426 C   0  0  0  0  0  0  0  0  0  0  0  0
   -3.6084   -2.4774    4.3812 H   0  0  0  0  0  0  0  0  0  0  0  0
   -3.4706   -3.9392    3.8423 H   0  0  0  0  0  0  0  0  0  0  0  0
   -5.3303   -3.1795    3.5733 C   0  0  0  0  0  0  0  0  0  0  0  0
   -5.5545   -3.9917    3.0929 H   0  0  0  0  0  0  0  0  0  0  0  0
   -5.6745   -3.2712    4.4765 H   0  0  0  0  0  0  0  0  0  0  0  0
   -6.0298   -2.0243    2.9112 C   0  0  0  0  0  0  0  0  0  0  0  0
   -6.9422   -2.2893    2.7187 H   0  0  0  0  0  0  0  0  0  0  0  0
   -6.0672   -1.2877    3.5418 H   0  0  0  0  0  0  0  0  0  0  0  0
   -3.8909   -1.2326    1.8964 B   0  0  0  0  0  0  0  0  0  0  0  0
    0.0148    1.8829    6.1777 O   0  0  0  0  0  0  0  0  0  0  0  0
   -1.2946    2.0424    2.4662 P   0  0  0  0  0  0  0  0  0  0  0  0
   -3.5970    0.8472    4.8463 Cl  0  0  0  0  0  0  0  0  0  0  0  0
  1 53  1  0  0  0  0
  2  3  1  0  0  0  0
  3  4  1  0  0  0  0
  5  3  1  0  0  0  0
  6  5  1  0  0  0  0
  7  5  1  0  0  0  0
  8  7  1  0  0  0  0
  9  7  1  0  0  0  0
 10  9  1  0  0  0  0
 11  2  1  0  0  0  0
 12 11  1  0  0  0  0
 13 14  1  0  0  0  0
 14 15  1  0  0  0  0
 16 14  1  0  0  0  0
 17 16  1  0  0  0  0
 18 16  1  0  0  0  0
 19 18  1  0  0  0  0
 20 18  1  0  0  0  0
 21 20  1  0  0  0  0
 22 13  1  0  0  0  0
 23 22  1  0  0  0  0
 24 25  1  0  0  0  0
 26 24  1  0  0  0  0
 27 24  1  0  0  0  0
 28 27  1  0  0  0  0
 29 27  1  0  0  0  0
 30 31  1  0  0  0  0
 32 30  1  0  0  0  0
 33 32  1  0  0  0  0
 34 32  1  0  0  0  0
 35 32  1  0  0  0  0
 36 35  1  0  0  0  0
 37 35  1  0  0  0  0
 38 35  1  0  0  0  0
 39 38  1  0  0  0  0
 40 38  1  0  0  0  0
 41 38  1  0  0  0  0
 42 41  1  0  0  0  0
 43 41  1  0  0  0  0
 44 43  1  0  0  0  0
 45 43  1  0  0  0  0
 46 43  1  0  0  0  0
 47 46  1  0  0  0  0
 48 46  1  0  0  0  0
 49 30  1  0  0  0  0
 50 49  1  0  0  0  0
 51 49  1  0  0  0  0
 52 27  1  0  0  0  0
 54  2  1  0  0  0  0
 55  1  1  0  0  0  0
 56 55  1  0  0  0  0
 57 55  1  0  0  0  0
 58 59  1  0  0  0  0
 59 60  1  0  0  0  0
 61 59  1  0  0  0  0
 62 61  1  0  0  0  0
 63 61  1  0  0  0  0
 64 63  1  0  0  0  0
 65 63  1  0  0  0  0
 66 65  1  0  0  0  0
 67 58  1  0  0  0  0
 68 67  1  0  0  0  0
 69 70  1  0  0  0  0
 70 71  1  0  0  0  0
 72 70  1  0  0  0  0
 73 72  1  0  0  0  0
 74 72  1  0  0  0  0
 75 74  1  0  0  0  0
 76 74  1  0  0  0  0
 77 76  1  0  0  0  0
 78 69  1  0  0  0  0
 79 78  1  0  0  0  0
 80 81  1  0  0  0  0
 82 80  1  0  0  0  0
 83 80  1  0  0  0  0
 84 83  1  0  0  0  0
 85 83  1  0  0  0  0
 86 87  1  0  0  0  0
 88 86  1  0  0  0  0
 89 88  1  0  0  0  0
 90 88  1  0  0  0  0
 91 88  1  0  0  0  0
 92 91  1  0  0  0  0
 93 91  1  0  0  0  0
 94 91  1  0  0  0  0
 95 94  1  0  0  0  0
 96 94  1  0  0  0  0
 97 94  1  0  0  0  0
 98 97  1  0  0  0  0
 99 97  1  0  0  0  0
100 99  1  0  0  0  0
101 99  1  0  0  0  0
102 99  1  0  0  0  0
103102  1  0  0  0  0
104102  1  0  0  0  0
105 86  1  0  0  0  0
106105  1  0  0  0  0
107105  1  0  0  0  0
108 83  1  0  0  0  0
109 57  1  0  0  0  0
110 55  1  0  0  0  0
111 55  1  0  0  0  0
  9 11  1  0  0  0  0
 13 54  1  0  0  0  0
 20 22  1  0  0  0  0
 24 54  1  0  0  0  0
 30 52  1  0  0  0  0
 41 52  1  0  0  0  0
 46 49  1  0  0  0  0
 54 55  1  0  0  0  0
 58110  1  0  0  0  0
 65 67  1  0  0  0  0
 69110  1  0  0  0  0
 76 78  1  0  0  0  0
 80110  1  0  0  0  0
 86108  1  0  0  0  0
 97108  1  0  0  0  0
102105  1  0  0  0  0
M  END
$$$$
BESNAQ

From CSD data. Using bond type 'Any'. Matching problem. No disordered atoms. Largest molecule.
111118  0  0  0  0  0  0  0  0999 V2000
    8.7506    0.3893    3.7504 C   0  0  0  0  0  0  0  0  0  0  0  0
    9.0635    2.9872    1.5990 C   0  0  0  0  0  0  0  0  0  0  0  0
    8.0966    2.1534    1.0427 C   0  0  0  0  0  0  0  0  0  0  0  0
    7.3553    1.9054    1.5466 H   0  0  0  0  0  0  0  0  0  0  0  0
    8.2350    1.6899   -0.2561 C   0  0  0  0  0  0  0  0  0  0  0  0
    7.5729    1.1519   -0.6258 H   0  0  0  0  0  0  0  0  0  0  0  0
    9.3481    2.0232   -1.0061 C   0  0  0  0  0  0  0  0  0  0  0  0
    9.4433    1.6992   -1.8714 H   0  0  0  0  0  0  0  0  0  0  0  0
   10.3102    2.8356   -0.4650 C   0  0  0  0  0  0  0  0  0  0  0  0
   11.0621    3.0557   -0.9646 H   0  0  0  0  0  0  0  0  0  0  0  0
   10.1710    3.3313    0.8247 C   0  0  0  0  0  0  0  0  0  0  0  0
   10.8204    3.8975    1.1739 H   0  0  0  0  0  0  0  0  0  0  0  0
   10.2745    4.5970    3.6249 C   0  0  0  0  0  0  0  0  0  0  0  0
   11.4537    3.8975    3.8441 C   0  0  0  0  0  0  0  0  0  0  0  0
   11.4493    2.9673    3.8325 H   0  0  0  0  0  0  0  0  0  0  0  0
   12.6436    4.5828    4.0817 C   0  0  0  0  0  0  0  0  0  0  0  0
   13.4308    4.1053    4.2172 H   0  0  0  0  0  0  0  0  0  0  0  0
   12.6693    5.9471    4.1195 C   0  0  0  0  0  0  0  0  0  0  0  0
   13.4677    6.3967    4.2830 H   0  0  0  0  0  0  0  0  0  0  0  0
   11.5122    6.6540    3.9117 C   0  0  0  0  0  0  0  0  0  0  0  0
   11.5283    7.5827    3.9322 H   0  0  0  0  0  0  0  0  0  0  0  0
   10.3082    5.9883    3.6689 C   0  0  0  0  0  0  0  0  0  0  0  0
    9.5275    6.4757    3.5356 H   0  0  0  0  0  0  0  0  0  0  0  0
    7.4151    4.8465    2.9821 C   0  0  0  0  0  0  0  0  0  0  0  0
    6.5753    4.3626    3.0174 H   0  0  0  0  0  0  0  0  0  0  0  0
    7.4139    5.4773    3.7189 H   0  0  0  0  0  0  0  0  0  0  0  0
    7.4347    5.6525    1.6771 C   0  0  0  0  0  0  0  0  0  0  0  0
    7.5803    5.0355    0.9427 H   0  0  0  0  0  0  0  0  0  0  0  0
    8.1959    6.2525    1.7040 H   0  0  0  0  0  0  0  0  0  0  0  0
    5.9261    7.1656   -0.0239 C   0  0  0  0  0  0  0  0  0  0  0  0
    6.7518    7.1703   -0.5521 H   0  0  0  0  0  0  0  0  0  0  0  0
    5.3149    8.5206    0.0080 C   0  0  0  0  0  0  0  0  0  0  0  0
    4.4436    8.4912   -0.4145 H   0  0  0  0  0  0  0  0  0  0  0  0
    5.8707    9.1361   -0.4943 H   0  0  0  0  0  0  0  0  0  0  0  0
    5.1605    9.0415    1.4828 C   0  0  0  0  0  0  0  0  0  0  0  0
    6.0418    9.1656    1.8694 H   0  0  0  0  0  0  0  0  0  0  0  0
    4.7202    9.9066    1.4688 H   0  0  0  0  0  0  0  0  0  0  0  0
    4.3617    8.0912    2.3637 C   0  0  0  0  0  0  0  0  0  0  0  0
    3.4341    8.0974    2.0807 H   0  0  0  0  0  0  0  0  0  0  0  0
    4.3962    8.4012    3.2825 H   0  0  0  0  0  0  0  0  0  0  0  0
    4.9049    6.6525    2.2920 C   0  0  0  0  0  0  0  0  0  0  0  0
    5.1296    6.3408    3.1948 H   0  0  0  0  0  0  0  0  0  0  0  0
    3.9309    5.6944    1.6562 C   0  0  0  0  0  0  0  0  0  0  0  0
    3.0877    5.7378    2.1345 H   0  0  0  0  0  0  0  0  0  0  0  0
    4.2732    4.7905    1.7439 H   0  0  0  0  0  0  0  0  0  0  0  0
    3.6761    5.9982    0.1455 C   0  0  0  0  0  0  0  0  0  0  0  0
    3.1408    5.2804   -0.2292 H   0  0  0  0  0  0  0  0  0  0  0  0
    3.1599    6.8168    0.0757 H   0  0  0  0  0  0  0  0  0  0  0  0
    4.8659    6.1393   -0.6378 C   0  0  0  0  0  0  0  0  0  0  0  0
    4.6200    6.4385   -1.5286 H   0  0  0  0  0  0  0  0  0  0  0  0
    5.2857    5.2696   -0.7255 H   0  0  0  0  0  0  0  0  0  0  0  0
    9.1091   -0.4792    3.1149 O   0  0  0  0  0  0  0  0  0  0  0  0
    8.7678    3.6413    3.2787 P   0  0  0  0  0  0  0  0  0  0  0  0
    8.0912    1.8552    4.9825 W   0  0  0  0  0  0  0  0  0  0  0  0
    5.9199    1.7539    3.8963 Cl  0  0  0  0  0  0  0  0  0  0  0  0
    6.1590    6.5005    1.3556 B   0  0  0  0  0  0  0  0  0  0  0  0
    7.4317    0.3893    6.2146 C   0  0  0  0  0  0  0  0  0  0  0  0
    7.1189    2.9872    8.3660 C   0  0  0  0  0  0  0  0  0  0  0  0
    8.0857    2.1534    8.9223 C   0  0  0  0  0  0  0  0  0  0  0  0
    8.8271    1.9054    8.4185 H   0  0  0  0  0  0  0  0  0  0  0  0
    7.9474    1.6899   10.2211 C   0  0  0  0  0  0  0  0  0  0  0  0
    8.6095    1.1519   10.5908 H   0  0  0  0  0  0  0  0  0  0  0  0
    6.8342    2.0232   10.9711 C   0  0  0  0  0  0  0  0  0  0  0  0
    6.7391    1.6992   11.8365 H   0  0  0  0  0  0  0  0  0  0  0  0
    5.8722    2.8356   10.4300 C   0  0  0  0  0  0  0  0  0  0  0  0
    5.1202    3.0557   10.9296 H   0  0  0  0  0  0  0  0  0  0  0  0
    6.0114    3.3313    9.1403 C   0  0  0  0  0  0  0  0  0  0  0  0
    5.3620    3.8975    8.7911 H   0  0  0  0  0  0  0  0  0  0  0  0
    5.9079    4.5970    6.3401 C   0  0  0  0  0  0  0  0  0  0  0  0
    4.7287    3.8975    6.1209 C   0  0  0  0  0  0  0  0  0  0  0  0
    4.7330    2.9673    6.1325 H   0  0  0  0  0  0  0  0  0  0  0  0
    3.5388    4.5828    5.8834 C   0  0  0  0  0  0  0  0  0  0  0  0
    2.7516    4.1053    5.7478 H   0  0  0  0  0  0  0  0  0  0  0  0
    3.5130    5.9471    5.8455 C   0  0  0  0  0  0  0  0  0  0  0  0
    2.7147    6.3967    5.6821 H   0  0  0  0  0  0  0  0  0  0  0  0
    4.6702    6.6540    6.0534 C   0  0  0  0  0  0  0  0  0  0  0  0
    4.6541    7.5827    6.0328 H   0  0  0  0  0  0  0  0  0  0  0  0
    5.8742    5.9883    6.2961 C   0  0  0  0  0  0  0  0  0  0  0  0
    6.6549    6.4757    6.4294 H   0  0  0  0  0  0  0  0  0  0  0  0
    8.7673    4.8465    6.9829 C   0  0  0  0  0  0  0  0  0  0  0  0
    9.6071    4.3626    6.9476 H   0  0  0  0  0  0  0  0  0  0  0  0
    8.7685    5.4773    6.2461 H   0  0  0  0  0  0  0  0  0  0  0  0
    8.7477    5.6525    8.2879 C   0  0  0  0  0  0  0  0  0  0  0  0
    8.6021    5.0355    9.0223 H   0  0  0  0  0  0  0  0  0  0  0  0
    7.9865    6.2525    8.2610 H   0  0  0  0  0  0  0  0  0  0  0  0
   10.2563    7.1656    9.9889 C   0  0  0  0  0  0  0  0  0  0  0  0
    9.4306    7.1703   10.5171 H   0  0  0  0  0  0  0  0  0  0  0  0
   10.8674    8.5206    9.9571 C   0  0  0  0  0  0  0  0  0  0  0  0
   11.7388    8.4912   10.3796 H   0  0  0  0  0  0  0  0  0  0  0  0
   10.3116    9.1361   10.4593 H   0  0  0  0  0  0  0  0  0  0  0  0
   11.0219    9.0415    8.4822 C   0  0  0  0  0  0  0  0  0  0  0  0
   10.1405    9.1656    8.0956 H   0  0  0  0  0  0  0  0  0  0  0  0
   11.4621    9.9066    8.4962 H   0  0  0  0  0  0  0  0  0  0  0  0
   11.8207    8.0912    7.6013 C   0  0  0  0  0  0  0  0  0  0  0  0
   12.7482    8.0974    7.8843 H   0  0  0  0  0  0  0  0  0  0  0  0
   11.7862    8.4012    6.6825 H   0  0  0  0  0  0  0  0  0  0  0  0
   11.2775    6.6525    7.6731 C   0  0  0  0  0  0  0  0  0  0  0  0
   11.0528    6.3408    6.7702 H   0  0  0  0  0  0  0  0  0  0  0  0
   12.2514    5.6944    8.3088 C   0  0  0  0  0  0  0  0  0  0  0  0
   13.0947    5.7378    7.8305 H   0  0  0  0  0  0  0  0  0  0  0  0
   11.9092    4.7905    8.2211 H   0  0  0  0  0  0  0  0  0  0  0  0
   12.5062    5.9982    9.8195 C   0  0  0  0  0  0  0  0  0  0  0  0
   13.0416    5.2804   10.1942 H   0  0  0  0  0  0  0  0  0  0  0  0
   13.0225    6.8168    9.8893 H   0  0  0  0  0  0  0  0  0  0  0  0
   11.3165    6.1393   10.6028 C   0  0  0  0  0  0  0  0  0  0  0  0
   11.5624    6.4385   11.4937 H   0  0  0  0  0  0  0  0  0  0  0  0
   10.8967    5.2696   10.6905 H   0  0  0  0  0  0  0  0  0  0  0  0
    7.0733   -0.4792    6.8502 O   0  0  0  0  0  0  0  0  0  0  0  0
    7.4146    3.6413    6.6863 P   0  0  0  0  0  0  0  0  0  0  0  0
   10.2624    1.7539    6.0687 Cl  0  0  0  0  0  0  0  0  0  0  0  0
   10.0234    6.5005    8.6094 B   0  0  0  0  0  0  0  0  0  0  0  0
  1 52  1  0  0  0  0
  2  3  1  0  0  0  0
  3  4  1  0  0  0  0
  5  3  1  0  0  0  0
  6  5  1  0  0  0  0
  7  5  1  0  0  0  0
  8  7  1  0  0  0  0
  9  7  1  0  0  0  0
 10  9  1  0  0  0  0
 11  2  1  0  0  0  0
 12 11  1  0  0  0  0
 13 14  1  0  0  0  0
 14 15  1  0  0  0  0
 16 14  1  0  0  0  0
 17 16  1  0  0  0  0
 18 16  1  0  0  0  0
 19 18  1  0  0  0  0
 20 18  1  0  0  0  0
 21 20  1  0  0  0  0
 22 13  1  0  0  0  0
 23 22  1  0  0  0  0
 24 25  1  0  0  0  0
 26 24  1  0  0  0  0
 27 24  1  0  0  0  0
 28 27  1  0  0  0  0
 29 27  1  0  0  0  0
 30 31  1  0  0  0  0
 32 30  1  0  0  0  0
 33 32  1  0  0  0  0
 34 32  1  0  0  0  0
 35 32  1  0  0  0  0
 36 35  1  0  0  0  0
 37 35  1  0  0  0  0
 38 35  1  0  0  0  0
 39 38  1  0  0  0  0
 40 38  1  0  0  0  0
 41 38  1  0  0  0  0
 42 41  1  0  0  0  0
 43 41  1  0  0  0  0
 44 43  1  0  0  0  0
 45 43  1  0  0  0  0
 46 43  1  0  0  0  0
 47 46  1  0  0  0  0
 48 46  1  0  0  0  0
 49 30  1  0  0  0  0
 50 49  1  0  0  0  0
 51 49  1  0  0  0  0
 53  2  1  0  0  0  0
 54  1  1  0  0  0  0
 55 54  1  0  0  0  0
 56 27  1  0  0  0  0
 57 54  1  0  0  0  0
 58 59  1  0  0  0  0
 59 60  1  0  0  0  0
 61 59  1  0  0  0  0
 62 61  1  0  0  0  0
 63 61  1  0  0  0  0
 64 63  1  0  0  0  0
 65 63  1  0  0  0  0
 66 65  1  0  0  0  0
 67 58  1  0  0  0  0
 68 67  1  0  0  0  0
 69 70  1  0  0  0  0
 70 71  1  0  0  0  0
 72 70  1  0  0  0  0
 73 72  1  0  0  0  0
 74 72  1  0  0  0  0
 75 74  1  0  0  0  0
 76 74  1  0  0  0  0
 77 76  1  0  0  0  0
 78 69  1  0  0  0  0
 79 78  1  0  0  0  0
 80 81  1  0  0  0  0
 82 80  1  0  0  0  0
 83 80  1  0  0  0  0
 84 83  1  0  0  0  0
 85 83  1  0  0  0  0
 86 87  1  0  0  0  0
 88 86  1  0  0  0  0
 89 88  1  0  0  0  0
 90 88  1  0  0  0  0
 91 88  1  0  0  0  0
 92 91  1  0  0  0  0
 93 91  1  0  0  0  0
 94 91  1  0  0  0  0
 95 94  1  0  0  0  0
 96 94  1  0  0  0  0
 97 94  1  0  0  0  0
 98 97  1  0  0  0  0
 99 97  1  0  0  0  0
100 99  1  0  0  0  0
101 99  1  0  0  0  0
102 99  1  0  0  0  0
103102  1  0  0  0  0
104102  1  0  0  0  0
105 86  1  0  0  0  0
106105  1  0  0  0  0
107105  1  0  0  0  0
108 57  1  0  0  0  0
109 54  1  0  0  0  0
110 54  1  0  0  0  0
111 83  1  0  0  0  0
  9 11  1  0  0  0  0
 13 53  1  0  0  0  0
 20 22  1  0  0  0  0
 24 53  1  0  0  0  0
 30 56  1  0  0  0  0
 41 56  1  0  0  0  0
 46 49  1  0  0  0  0
 53 54  1  0  0  0  0
 58109  1  0  0  0  0
 65 67  1  0  0  0  0
 69109  1  0  0  0  0
 76 78  1  0  0  0  0
 80109  1  0  0  0  0
 86111  1  0  0  0  0
 97111  1  0  0  0  0
102105  1  0  0  0  0
M  END
$$$$
BIHQUE

From CSD data. Using bond type 'Any'. No disordered atoms. Largest molecule.
 93117  0  0  0  0  0  0  0  0999 V2000
    3.8678   11.5106    2.9511 Ru  0  0  0  0  0  0  0  0  0  0  0  0
    5.6467   13.0943    3.2639 P   0  0  0  0  0  0  0  0  0  0  0  0
    4.9161    9.5130    3.7321 P   0  0  0  0  0  0  0  0  0  0  0  0
    2.6596   11.9047    5.6645 O   0  0  0  0  0  0  0  0  0  0  0  0
    3.2023   11.7565    4.6634 C   0  0  0  0  0  0  0  0  0  0  0  0
    3.1586   12.9549    1.3856 C   0  0  0  0  0  0  0  0  0  0  0  0
    3.7199   13.8927    1.6275 H   0  0  0  0  0  0  0  0  0  0  0  0
    3.8954   11.6665    0.6797 C   0  0  0  0  0  0  0  0  0  0  0  0
    4.9842   11.6918    0.4170 H   0  0  0  0  0  0  0  0  0  0  0  0
    3.2006   10.2234    1.1876 B   0  0  0  0  0  0  0  0  0  0  0  0
    3.7590    9.2571    1.2742 H   0  0  0  0  0  0  0  0  0  0  0  0
    1.8512   10.6323    2.2857 B   0  0  0  0  0  0  0  0  0  0  0  0
    1.4668    9.9550    3.0905 H   0  0  0  0  0  0  0  0  0  0  0  0
    1.8593   12.4496    2.4031 B   0  0  0  0  0  0  0  0  0  0  0  0
    1.4827   13.0117    3.2963 H   0  0  0  0  0  0  0  0  0  0  0  0
    1.5497   13.1033    0.7651 B   0  0  0  0  0  0  0  0  0  0  0  0
    1.0179   14.0775    0.6212 H   0  0  0  0  0  0  0  0  0  0  0  0
    2.8591   12.6280   -0.3152 B   0  0  0  0  0  0  0  0  0  0  0  0
    3.1979   13.2817   -1.1602 H   0  0  0  0  0  0  0  0  0  0  0  0
    2.8667   10.8818   -0.4364 B   0  0  0  0  0  0  0  0  0  0  0  0
    3.2113   10.3750   -1.3747 H   0  0  0  0  0  0  0  0  0  0  0  0
    1.5575   10.2313    0.5637 B   0  0  0  0  0  0  0  0  0  0  0  0
    1.0244    9.2871    0.2818 H   0  0  0  0  0  0  0  0  0  0  0  0
    0.7310   11.6223    1.3196 B   0  0  0  0  0  0  0  0  0  0  0  0
   -0.3660   11.6081    1.5439 H   0  0  0  0  0  0  0  0  0  0  0  0
    1.3363   11.7407   -0.3492 B   0  0  0  0  0  0  0  0  0  0  0  0
    0.6373   11.7975   -1.2226 H   0  0  0  0  0  0  0  0  0  0  0  0
    7.0034   12.9012    4.4965 C   0  0  0  0  0  0  0  0  0  0  0  0
    6.7888   13.3717    5.7928 C   0  0  0  0  0  0  0  0  0  0  0  0
    5.9620   13.7854    6.0109 H   0  0  0  0  0  0  0  0  0  0  0  0
    7.7706   13.2422    6.7685 C   0  0  0  0  0  0  0  0  0  0  0  0
    7.6157   13.5675    7.6478 H   0  0  0  0  0  0  0  0  0  0  0  0
    8.9699   12.6407    6.4540 C   0  0  0  0  0  0  0  0  0  0  0  0
    9.6416   12.5459    7.1195 H   0  0  0  0  0  0  0  0  0  0  0  0
    9.1971   12.1781    5.1864 C   0  0  0  0  0  0  0  0  0  0  0  0
   10.0289   11.7707    4.9754 H   0  0  0  0  0  0  0  0  0  0  0  0
    8.2157   12.2981    4.2003 C   0  0  0  0  0  0  0  0  0  0  0  0
    8.3788   11.9665    3.3251 H   0  0  0  0  0  0  0  0  0  0  0  0
    6.5241   13.4064    1.6720 C   0  0  0  0  0  0  0  0  0  0  0  0
    7.2458   12.3565    1.0956 C   0  0  0  0  0  0  0  0  0  0  0  0
    7.2687   11.5118    1.5302 H   0  0  0  0  0  0  0  0  0  0  0  0
    7.9248   12.5270   -0.0964 C   0  0  0  0  0  0  0  0  0  0  0  0
    8.4347   11.8118   -0.4575 H   0  0  0  0  0  0  0  0  0  0  0  0
    7.8647   13.7285   -0.7601 C   0  0  0  0  0  0  0  0  0  0  0  0
    8.3306   13.8470   -1.5800 H   0  0  0  0  0  0  0  0  0  0  0  0
    7.1256   14.7564   -0.2270 C   0  0  0  0  0  0  0  0  0  0  0  0
    7.0683   15.5822   -0.6943 H   0  0  0  0  0  0  0  0  0  0  0  0
    6.4606   14.6096    0.9837 C   0  0  0  0  0  0  0  0  0  0  0  0
    5.9601   15.3343    1.3411 H   0  0  0  0  0  0  0  0  0  0  0  0
    5.0790   14.7911    3.7209 C   0  0  0  0  0  0  0  0  0  0  0  0
    6.0403   15.8001    3.8502 C   0  0  0  0  0  0  0  0  0  0  0  0
    6.9611   15.5837    3.7565 H   0  0  0  0  0  0  0  0  0  0  0  0
    5.6724   17.0979    4.1107 C   0  0  0  0  0  0  0  0  0  0  0  0
    6.3369   17.7721    4.1941 H   0  0  0  0  0  0  0  0  0  0  0  0
    4.3295   17.4279    4.2523 C   0  0  0  0  0  0  0  0  0  0  0  0
    4.0723   18.3279    4.4197 H   0  0  0  0  0  0  0  0  0  0  0  0
    3.3727   16.4395    4.1480 C   0  0  0  0  0  0  0  0  0  0  0  0
    2.4546   16.6590    4.2544 H   0  0  0  0  0  0  0  0  0  0  0  0
    3.7479   15.1211    3.8865 C   0  0  0  0  0  0  0  0  0  0  0  0
    3.0829   14.4469    3.8218 H   0  0  0  0  0  0  0  0  0  0  0  0
    3.9782    7.9829    3.3484 C   0  0  0  0  0  0  0  0  0  0  0  0
    4.4613    6.9551    2.5445 C   0  0  0  0  0  0  0  0  0  0  0  0
    5.3163    7.0403    2.1395 H   0  0  0  0  0  0  0  0  0  0  0  0
    3.7134    5.8088    2.3261 C   0  0  0  0  0  0  0  0  0  0  0  0
    4.0544    5.1188    1.7700 H   0  0  0  0  0  0  0  0  0  0  0  0
    2.4731    5.6683    2.9147 C   0  0  0  0  0  0  0  0  0  0  0  0
    1.9582    4.8851    2.7578 H   0  0  0  0  0  0  0  0  0  0  0  0
    1.9792    6.6693    3.7346 C   0  0  0  0  0  0  0  0  0  0  0  0
    1.1322    6.5698    4.1530 H   0  0  0  0  0  0  0  0  0  0  0  0
    2.7274    7.8203    3.9426 C   0  0  0  0  0  0  0  0  0  0  0  0
    2.3802    8.5087    4.4988 H   0  0  0  0  0  0  0  0  0  0  0  0
    5.1257    9.2839    5.5462 C   0  0  0  0  0  0  0  0  0  0  0  0
    5.0902    8.0098    6.1338 C   0  0  0  0  0  0  0  0  0  0  0  0
    4.9041    7.2503    5.5950 H   0  0  0  0  0  0  0  0  0  0  0  0
    5.3227    7.8471    7.4881 C   0  0  0  0  0  0  0  0  0  0  0  0
    5.2950    6.9803    7.8750 H   0  0  0  0  0  0  0  0  0  0  0  0
    5.5962    8.9508    8.2781 C   0  0  0  0  0  0  0  0  0  0  0  0
    5.7431    8.8450    9.2109 H   0  0  0  0  0  0  0  0  0  0  0  0
    5.6542   10.2092    7.7021 C   0  0  0  0  0  0  0  0  0  0  0  0
    5.8675   10.9670    8.2354 H   0  0  0  0  0  0  0  0  0  0  0  0
    5.4047   10.3639    6.3594 C   0  0  0  0  0  0  0  0  0  0  0  0
    5.4238   11.2355    5.9819 H   0  0  0  0  0  0  0  0  0  0  0  0
    6.5975    9.1292    3.1031 C   0  0  0  0  0  0  0  0  0  0  0  0
    7.6612    8.9176    3.9753 C   0  0  0  0  0  0  0  0  0  0  0  0
    7.5285    8.9871    4.9133 H   0  0  0  0  0  0  0  0  0  0  0  0
    8.9146    8.6034    3.4763 C   0  0  0  0  0  0  0  0  0  0  0  0
    9.6391    8.4692    4.0763 H   0  0  0  0  0  0  0  0  0  0  0  0
    9.1236    8.4834    2.1185 C   0  0  0  0  0  0  0  0  0  0  0  0
    9.9817    8.2466    1.7864 H   0  0  0  0  0  0  0  0  0  0  0  0
    8.0737    8.7092    1.2388 C   0  0  0  0  0  0  0  0  0  0  0  0
    8.2105    8.6382    0.3015 H   0  0  0  0  0  0  0  0  0  0  0  0
    6.8277    9.0408    1.7344 C   0  0  0  0  0  0  0  0  0  0  0  0
    6.1157    9.2097    1.1294 H   0  0  0  0  0  0  0  0  0  0  0  0
  1  2  1  0  0  0  0
  2 28  1  0  0  0  0
  3  1  1  0  0  0  0
  4  5  3  0  0  0  0
  5  1  1  0  0  0  0
  6  1  1  0  0  0  0
  7  6  1  0  0  0  0
  8  1  1  0  0  0  0
  9  8  1  0  0  0  0
 10  1  1  0  0  0  0
 11 10  1  0  0  0  0
 12  1  1  0  0  0  0
 13 12  1  0  0  0  0
 14  1  1  0  0  0  0
 15 14  1  0  0  0  0
 16  6  1  0  0  0  0
 17 16  1  0  0  0  0
 18  6  1  0  0  0  0
 19 18  1  0  0  0  0
 20  8  1  0  0  0  0
 21 20  1  0  0  0  0
 22 10  1  0  0  0  0
 23 22  1  0  0  0  0
 24 12  1  0  0  0  0
 25 24  1  0  0  0  0
 26 16  1  0  0  0  0
 27 26  1  0  0  0  0
 28 29  4  0  0  0  0
 29 30  1  0  0  0  0
 31 29  4  0  0  0  0
 32 31  1  0  0  0  0
 33 31  4  0  0  0  0
 34 33  1  0  0  0  0
 35 33  4  0  0  0  0
 36 35  1  0  0  0  0
 37 28  4  0  0  0  0
 38 37  1  0  0  0  0
 39  2  1  0  0  0  0
 40 39  4  0  0  0  0
 41 40  1  0  0  0  0
 42 40  4  0  0  0  0
 43 42  1  0  0  0  0
 44 42  4  0  0  0  0
 45 44  1  0  0  0  0
 46 44  4  0  0  0  0
 47 46  1  0  0  0  0
 48 39  4  0  0  0  0
 49 48  1  0  0  0  0
 50  2  1  0  0  0  0
 51 50  4  0  0  0  0
 52 51  1  0  0  0  0
 53 51  4  0  0  0  0
 54 53  1  0  0  0  0
 55 53  4  0  0  0  0
 56 55  1  0  0  0  0
 57 55  4  0  0  0  0
 58 57  1  0  0  0  0
 59 50  4  0  0  0  0
 60 59  1  0  0  0  0
 61  3  1  0  0  0  0
 62 61  4  0  0  0  0
 63 62  1  0  0  0  0
 64 62  4  0  0  0  0
 65 64  1  0  0  0  0
 66 64  4  0  0  0  0
 67 66  1  0  0  0  0
 68 66  4  0  0  0  0
 69 68  1  0  0  0  0
 70 61  4  0  0  0  0
 71 70  1  0  0  0  0
 72  3  1  0  0  0  0
 73 72  4  0  0  0  0
 74 73  1  0  0  0  0
 75 73  4  0  0  0  0
 76 75  1  0  0  0  0
 77 75  4  0  0  0  0
 78 77  1  0  0  0  0
 79 77  4  0  0  0  0
 80 79  1  0  0  0  0
 81 72  4  0  0  0  0
 82 81  1  0  0  0  0
 83  3  1  0  0  0  0
 84 83  4  0  0  0  0
 85 84  1  0  0  0  0
 86 84  4  0  0  0  0
 87 86  1  0  0  0  0
 88 86  4  0  0  0  0
 89 88  1  0  0  0  0
 90 88  4  0  0  0  0
 91 90  1  0  0  0  0
 92 83  4  0  0  0  0
 93 92  1  0  0  0  0
  6  8  1  0  0  0  0
  6 14  1  0  0  0  0
  8 10  1  0  0  0  0
  8 18  1  0  0  0  0
 10 12  1  0  0  0  0
 10 20  1  0  0  0  0
 12 14  1  0  0  0  0
 12 22  1  0  0  0  0
 14 16  1  0  0  0  0
 14 24  1  0  0  0  0
 16 18  1  0  0  0  0
 16 24  1  0  0  0  0
 18 20  1  0  0  0  0
 18 26  1  0  0  0  0
 20 22  1  0  0  0  0
 20 26  1  0  0  0  0
 22 24  1  0  0  0  0
 22 26  1  0  0  0  0
 24 26  1  0  0  0  0
 35 37  4  0  0  0  0
 46 48  4  0  0  0  0
 57 59  4  0  0  0  0
 68 70  4  0  0  0  0
 79 81  4  0  0  0  0
 90 92  4  0  0  0  0
M  END
$$$$
BIHTER

From CSD data. Using bond type 'Any'. No disordered atoms. Largest molecule.
100126  0  0  0  0  0  0  0  0999 V2000
    4.0103    3.2636    8.5634 Ru  0  0  0  0  0  0  0  0  0  0  0  0
    2.7453    5.8446    7.8836 Ru  0  0  0  0  0  0  0  0  0  0  0  0
    2.9819    4.5469    9.2049 H   0  0  0  0  0  0  0  0  0  0  0  0
    4.3448    1.7158    6.9612 C   0  0  0  0  0  0  0  0  0  0  0  0
    4.0150    0.7499    7.4220 H   0  0  0  0  0  0  0  0  0  0  0  0
    3.2772    2.8257    6.5034 C   0  0  0  0  0  0  0  0  0  0  0  0
    2.1804    2.6203    6.6049 H   0  0  0  0  0  0  0  0  0  0  0  0
    3.9491    4.4434    6.7561 B   0  0  0  0  0  0  0  0  0  0  0  0
    5.6626    4.1878    7.2903 B   0  0  0  0  0  0  0  0  0  0  0  0
    6.2712    4.9221    7.8772 H   0  0  0  0  0  0  0  0  0  0  0  0
    5.8253    2.3944    7.4885 B   0  0  0  0  0  0  0  0  0  0  0  0
    6.5050    1.9267    8.2463 H   0  0  0  0  0  0  0  0  0  0  0  0
    5.6592    1.6487    5.8571 B   0  0  0  0  0  0  0  0  0  0  0  0
    6.2175    0.7160    5.5853 H   0  0  0  0  0  0  0  0  0  0  0  0
    4.0221    1.9208    5.2533 B   0  0  0  0  0  0  0  0  0  0  0  0
    3.5086    1.1815    4.5874 H   0  0  0  0  0  0  0  0  0  0  0  0
    3.7666    3.6727    5.1252 B   0  0  0  0  0  0  0  0  0  0  0  0
    3.0529    4.0952    4.3721 H   0  0  0  0  0  0  0  0  0  0  0  0
    5.2766    4.4967    5.5629 B   0  0  0  0  0  0  0  0  0  0  0  0
    5.5741    5.4580    5.0704 H   0  0  0  0  0  0  0  0  0  0  0  0
    6.4513    3.2276    6.0374 B   0  0  0  0  0  0  0  0  0  0  0  0
    7.5523    3.3385    5.8661 H   0  0  0  0  0  0  0  0  0  0  0  0
    5.3329    2.9590    4.6763 B   0  0  0  0  0  0  0  0  0  0  0  0
    5.6913    2.9161    3.6160 H   0  0  0  0  0  0  0  0  0  0  0  0
    2.6205    1.8178    9.8177 P   0  0  0  0  0  0  0  0  0  0  0  0
    3.2926    0.1085    9.9001 C   0  0  0  0  0  0  0  0  0  0  0  0
    4.6668   -0.0564   10.0106 C   0  0  0  0  0  0  0  0  0  0  0  0
    5.2311    0.7078   10.0404 H   0  0  0  0  0  0  0  0  0  0  0  0
    5.2273   -1.3247   10.0782 C   0  0  0  0  0  0  0  0  0  0  0  0
    6.1673   -1.4231   10.1678 H   0  0  0  0  0  0  0  0  0  0  0  0
    4.4216   -2.4453   10.0154 C   0  0  0  0  0  0  0  0  0  0  0  0
    4.8054   -3.3135   10.0351 H   0  0  0  0  0  0  0  0  0  0  0  0
    3.0526   -2.2895    9.9239 C   0  0  0  0  0  0  0  0  0  0  0  0
    2.4937   -3.0575    9.9006 H   0  0  0  0  0  0  0  0  0  0  0  0
    2.4843   -1.0281    9.8656 C   0  0  0  0  0  0  0  0  0  0  0  0
    1.5406   -0.9362    9.8017 H   0  0  0  0  0  0  0  0  0  0  0  0
    2.2619    2.1922   11.5794 C   0  0  0  0  0  0  0  0  0  0  0  0
    1.6854    1.2414   12.4167 C   0  0  0  0  0  0  0  0  0  0  0  0
    1.4666    0.3838   12.0721 H   0  0  0  0  0  0  0  0  0  0  0  0
    1.4286    1.5305   13.7435 C   0  0  0  0  0  0  0  0  0  0  0  0
    1.0220    0.8771   14.3010 H   0  0  0  0  0  0  0  0  0  0  0  0
    1.7624    2.7657   14.2594 C   0  0  0  0  0  0  0  0  0  0  0  0
    1.6061    2.9590   15.1763 H   0  0  0  0  0  0  0  0  0  0  0  0
    2.3245    3.7168   13.4361 C   0  0  0  0  0  0  0  0  0  0  0  0
    2.5466    4.5723   13.7842 H   0  0  0  0  0  0  0  0  0  0  0  0
    2.5649    3.4313   12.1035 C   0  0  0  0  0  0  0  0  0  0  0  0
    2.9453    4.0974   11.5424 H   0  0  0  0  0  0  0  0  0  0  0  0
    0.9666    1.6027    9.0801 C   0  0  0  0  0  0  0  0  0  0  0  0
    0.8630    0.9124    7.8650 C   0  0  0  0  0  0  0  0  0  0  0  0
    1.6294    0.4901    7.4968 H   0  0  0  0  0  0  0  0  0  0  0  0
   -0.3486    0.8396    7.1953 C   0  0  0  0  0  0  0  0  0  0  0  0
   -0.4047    0.3790    6.3665 H   0  0  0  0  0  0  0  0  0  0  0  0
   -1.4740    1.4340    7.7288 C   0  0  0  0  0  0  0  0  0  0  0  0
   -2.3041    1.3823    7.2701 H   0  0  0  0  0  0  0  0  0  0  0  0
   -1.3866    2.1082    8.9386 C   0  0  0  0  0  0  0  0  0  0  0  0
   -2.1630    2.5092    9.3111 H   0  0  0  0  0  0  0  0  0  0  0  0
   -0.1729    2.2016    9.6100 C   0  0  0  0  0  0  0  0  0  0  0  0
   -0.1211    2.6749   10.4321 H   0  0  0  0  0  0  0  0  0  0  0  0
    5.0966    3.5585   10.0306 C   0  0  0  0  0  0  0  0  0  0  0  0
    5.8629    3.7809   10.8639 O   0  0  0  0  0  0  0  0  0  0  0  0
    1.6293    7.1565    9.6160 P   0  0  0  0  0  0  0  0  0  0  0  0
    0.9921    8.7817    9.0558 C   0  0  0  0  0  0  0  0  0  0  0  0
    1.8797    9.6724    8.4585 C   0  0  0  0  0  0  0  0  0  0  0  0
    2.7905    9.4260    8.3451 H   0  0  0  0  0  0  0  0  0  0  0  0
    1.4453   10.9160    8.0284 C   0  0  0  0  0  0  0  0  0  0  0  0
    2.0642   11.5247    7.6418 H   0  0  0  0  0  0  0  0  0  0  0  0
    0.1249   11.2740    8.1570 C   0  0  0  0  0  0  0  0  0  0  0  0
   -0.1709   12.1190    7.8395 H   0  0  0  0  0  0  0  0  0  0  0  0
   -0.7680   10.4125    8.7433 C   0  0  0  0  0  0  0  0  0  0  0  0
   -1.6797   10.6631    8.8369 H   0  0  0  0  0  0  0  0  0  0  0  0
   -0.3361    9.1721    9.2006 C   0  0  0  0  0  0  0  0  0  0  0  0
   -0.9554    8.5839    9.6167 H   0  0  0  0  0  0  0  0  0  0  0  0
    0.1795    6.3559   10.3766 C   0  0  0  0  0  0  0  0  0  0  0  0
    0.1140    6.0453   11.7258 C   0  0  0  0  0  0  0  0  0  0  0  0
    0.8399    6.2696   12.2965 H   0  0  0  0  0  0  0  0  0  0  0  0
   -1.0046    5.4079   12.2512 C   0  0  0  0  0  0  0  0  0  0  0  0
   -1.0296    5.1805   13.1731 H   0  0  0  0  0  0  0  0  0  0  0  0
   -2.0776    5.1036   11.4410 C   0  0  0  0  0  0  0  0  0  0  0  0
   -2.8462    4.6847   11.8075 H   0  0  0  0  0  0  0  0  0  0  0  0
   -2.0330    5.4115   10.0980 C   0  0  0  0  0  0  0  0  0  0  0  0
   -2.7722    5.2042    9.5390 H   0  0  0  0  0  0  0  0  0  0  0  0
   -0.9143    6.0197    9.5643 C   0  0  0  0  0  0  0  0  0  0  0  0
   -0.8837    6.2133    8.6345 H   0  0  0  0  0  0  0  0  0  0  0  0
    2.6935    7.6076   11.0378 C   0  0  0  0  0  0  0  0  0  0  0  0
    2.4659    8.7468   11.8051 C   0  0  0  0  0  0  0  0  0  0  0  0
    1.7619    9.3411   11.5736 H   0  0  0  0  0  0  0  0  0  0  0  0
    3.2670    9.0180   12.9104 C   0  0  0  0  0  0  0  0  0  0  0  0
    3.1181    9.8051   13.4210 H   0  0  0  0  0  0  0  0  0  0  0  0
    4.2768    8.1501   13.2681 C   0  0  0  0  0  0  0  0  0  0  0  0
    4.8065    8.3297   14.0362 H   0  0  0  0  0  0  0  0  0  0  0  0
    4.5196    7.0220   12.5137 C   0  0  0  0  0  0  0  0  0  0  0  0
    5.2169    6.4254   12.7590 H   0  0  0  0  0  0  0  0  0  0  0  0
    3.7417    6.7605   11.3943 C   0  0  0  0  0  0  0  0  0  0  0  0
    3.9258    5.9941   10.8642 H   0  0  0  0  0  0  0  0  0  0  0  0
    1.1770    4.8311    7.3601 C   0  0  0  0  0  0  0  0  0  0  0  0
    0.2852    4.2227    7.0072 O   0  0  0  0  0  0  0  0  0  0  0  0
    4.4266    6.7736    8.2644 C   0  0  0  0  0  0  0  0  0  0  0  0
    5.3697    7.3691    8.4518 O   0  0  0  0  0  0  0  0  0  0  0  0
    2.5402    6.9638    6.3696 C   0  0  0  0  0  0  0  0  0  0  0  0
    2.4615    7.5895    5.4262 O   0  0  0  0  0  0  0  0  0  0  0  0
  1  2  1  0  0  0  0
  2  3  1  0  0  0  0
  3  1  1  0  0  0  0
  4  1  1  0  0  0  0
  5  4  1  0  0  0  0
  6  1  1  0  0  0  0
  7  6  1  0  0  0  0
  8  1  1  0  0  0  0
  9  1  1  0  0  0  0
 10  9  1  0  0  0  0
 11  1  1  0  0  0  0
 12 11  1  0  0  0  0
 13  4  1  0  0  0  0
 14 13  1  0  0  0  0
 15  4  1  0  0  0  0
 16 15  1  0  0  0  0
 17  6  1  0  0  0  0
 18 17  1  0  0  0  0
 19  8  1  0  0  0  0
 20 19  1  0  0  0  0
 21  9  1  0  0  0  0
 22 21  1  0  0  0  0
 23 13  1  0  0  0  0
 24 23  1  0  0  0  0
 25  1  1  0  0  0  0
 26 25  1  0  0  0  0
 27 26  4  0  0  0  0
 28 27  1  0  0  0  0
 29 27  4  0  0  0  0
 30 29  1  0  0  0  0
 31 29  4  0  0  0  0
 32 31  1  0  0  0  0
 33 31  4  0  0  0  0
 34 33  1  0  0  0  0
 35 26  4  0  0  0  0
 36 35  1  0  0  0  0
 37 25  1  0  0  0  0
 38 37  4  0  0  0  0
 39 38  1  0  0  0  0
 40 38  4  0  0  0  0
 41 40  1  0  0  0  0
 42 40  4  0  0  0  0
 43 42  1  0  0  0  0
 44 42  4  0  0  0  0
 45 44  1  0  0  0  0
 46 37  4  0  0  0  0
 47 46  1  0  0  0  0
 48 25  1  0  0  0  0
 49 48  4  0  0  0  0
 50 49  1  0  0  0  0
 51 49  4  0  0  0  0
 52 51  1  0  0  0  0
 53 51  4  0  0  0  0
 54 53  1  0  0  0  0
 55 53  4  0  0  0  0
 56 55  1  0  0  0  0
 57 48  4  0  0  0  0
 58 57  1  0  0  0  0
 59  1  1  0  0  0  0
 60 59  3  0  0  0  0
 61  2  1  0  0  0  0
 62 61  1  0  0  0  0
 63 62  4  0  0  0  0
 64 63  1  0  0  0  0
 65 63  4  0  0  0  0
 66 65  1  0  0  0  0
 67 65  4  0  0  0  0
 68 67  1  0  0  0  0
 69 67  4  0  0  0  0
 70 69  1  0  0  0  0
 71 62  4  0  0  0  0
 72 71  1  0  0  0  0
 73 61  1  0  0  0  0
 74 73  4  0  0  0  0
 75 74  1  0  0  0  0
 76 74  4  0  0  0  0
 77 76  1  0  0  0  0
 78 76  4  0  0  0  0
 79 78  1  0  0  0  0
 80 78  4  0  0  0  0
 81 80  1  0  0  0  0
 82 73  4  0  0  0  0
 83 82  1  0  0  0  0
 84 61  1  0  0  0  0
 85 84  4  0  0  0  0
 86 85  1  0  0  0  0
 87 85  4  0  0  0  0
 88 87  1  0  0  0  0
 89 87  4  0  0  0  0
 90 89  1  0  0  0  0
 91 89  4  0  0  0  0
 92 91  1  0  0  0  0
 93 84  4  0  0  0  0
 94 93  1  0  0  0  0
 95  2  1  0  0  0  0
 96 95  3  0  0  0  0
 97  2  1  0  0  0  0
 98 97  3  0  0  0  0
 99  2  1  0  0  0  0
100 99  3  0  0  0  0
  2  8  1  0  0  0  0
  4  6  1  0  0  0  0
  4 11  1  0  0  0  0
  6  8  1  0  0  0  0
  6 15  1  0  0  0  0
  8  9  1  0  0  0  0
  8 17  1  0  0  0  0
  9 11  1  0  0  0  0
  9 19  1  0  0  0  0
 11 13  1  0  0  0  0
 11 21  1  0  0  0  0
 13 15  1  0  0  0  0
 13 21  1  0  0  0  0
 15 17  1  0  0  0  0
 15 23  1  0  0  0  0
 17 19  1  0  0  0  0
 17 23  1  0  0  0  0
 19 21  1  0  0  0  0
 19 23  1  0  0  0  0
 21 23  1  0  0  0  0
 33 35  4  0  0  0  0
 44 46  4  0  0  0  0
 55 57  4  0  0  0  0
 69 71  4  0  0  0  0
 80 82  4  0  0  0  0
 91 93  4  0  0  0  0
M  END
$$$$
BIHTUJ

From CSD data. Using bond type 'Any'. No disordered atoms. Largest molecule.
 95122  0  0  0  0  0  0  0  0999 V2000
    3.7066    2.1823    0.2801 Ru  0  0  0  0  0  0  0  0  0  0  0  0
    4.2356    2.3466   -1.1736 H   0  0  0  0  0  0  0  0  0  0  0  0
    5.7595    1.3928   -1.0304 Cu  0  0  0  0  0  0  0  0  0  0  0  0
    7.4656    1.8776   -2.2900 P   0  0  0  0  0  0  0  0  0  0  0  0
    2.3547    4.0172   -0.1716 P   0  0  0  0  0  0  0  0  0  0  0  0
    4.8615    3.3587    1.1053 C   0  0  0  0  0  0  0  0  0  0  0  0
    5.5771    4.0548    1.7069 O   0  0  0  0  0  0  0  0  0  0  0  0
    2.4426    1.0510    1.7493 C   0  0  0  0  0  0  0  0  0  0  0  0
    1.9373    1.8359    2.3288 H   0  0  0  0  0  0  0  0  0  0  0  0
    2.0118    0.7217    0.2325 C   0  0  0  0  0  0  0  0  0  0  0  0
    1.2214    1.2996   -0.2694 H   0  0  0  0  0  0  0  0  0  0  0  0
    3.2360    0.1586   -0.7215 B   0  0  0  0  0  0  0  0  0  0  0  0
    3.2999    0.2796   -1.8121 H   0  0  0  0  0  0  0  0  0  0  0  0
    4.6820    0.1277    0.4078 B   0  0  0  0  0  0  0  0  0  0  0  0
    5.7282    0.0255    0.1015 H   0  0  0  0  0  0  0  0  0  0  0  0
    4.1055    0.7526    1.9763 B   0  0  0  0  0  0  0  0  0  0  0  0
    4.7590    1.2795    2.6867 H   0  0  0  0  0  0  0  0  0  0  0  0
    2.8852   -0.3494    2.5816 B   0  0  0  0  0  0  0  0  0  0  0  0
    2.7538   -0.4932    3.6648 H   0  0  0  0  0  0  0  0  0  0  0  0
    1.5053   -0.3414    1.4873 B   0  0  0  0  0  0  0  0  0  0  0  0
    0.4704   -0.4731    1.8361 H   0  0  0  0  0  0  0  0  0  0  0  0
    2.0330   -0.9448   -0.0517 B   0  0  0  0  0  0  0  0  0  0  0  0
    1.3355   -1.4892   -0.7067 H   0  0  0  0  0  0  0  0  0  0  0  0
    3.7423   -1.3534    0.0701 B   0  0  0  0  0  0  0  0  0  0  0  0
    4.1849   -2.1732   -0.5148 H   0  0  0  0  0  0  0  0  0  0  0  0
    4.2689   -0.9999    1.7309 B   0  0  0  0  0  0  0  0  0  0  0  0
    5.0432   -1.5913    2.2420 H   0  0  0  0  0  0  0  0  0  0  0  0
    2.6622   -1.6612    1.4301 B   0  0  0  0  0  0  0  0  0  0  0  0
    2.3979   -2.6813    1.7438 H   0  0  0  0  0  0  0  0  0  0  0  0
    8.5136    0.4932   -2.7993 C   0  0  0  0  0  0  0  0  0  0  0  0
    9.0837    0.3535   -4.0172 C   0  0  0  0  0  0  0  0  0  0  0  0
    8.8983    0.9798   -4.6797 H   0  0  0  0  0  0  0  0  0  0  0  0
    9.9180   -0.6747   -4.2958 C   0  0  0  0  0  0  0  0  0  0  0  0
   10.2980   -0.7365   -5.1428 H   0  0  0  0  0  0  0  0  0  0  0  0
   10.2111   -1.6088   -3.3714 C   0  0  0  0  0  0  0  0  0  0  0  0
   10.8003   -2.3009   -3.5670 H   0  0  0  0  0  0  0  0  0  0  0  0
    9.6114   -1.5214   -2.1129 C   0  0  0  0  0  0  0  0  0  0  0  0
    9.7836   -2.1638   -1.4633 H   0  0  0  0  0  0  0  0  0  0  0  0
    8.7693   -0.4771   -1.8471 C   0  0  0  0  0  0  0  0  0  0  0  0
    8.3618   -0.4193   -1.0131 H   0  0  0  0  0  0  0  0  0  0  0  0
    7.0846    2.7807   -3.7810 C   0  0  0  0  0  0  0  0  0  0  0  0
    5.8376    2.6127   -4.3955 C   0  0  0  0  0  0  0  0  0  0  0  0
    5.2192    2.0173   -4.0394 H   0  0  0  0  0  0  0  0  0  0  0  0
    5.5306    3.3358   -5.5340 C   0  0  0  0  0  0  0  0  0  0  0  0
    4.6963    3.2323   -5.9326 H   0  0  0  0  0  0  0  0  0  0  0  0
    6.4030    4.1677   -6.0599 C   0  0  0  0  0  0  0  0  0  0  0  0
    6.1783    4.6153   -6.8442 H   0  0  0  0  0  0  0  0  0  0  0  0
    7.6061    4.3949   -5.5064 C   0  0  0  0  0  0  0  0  0  0  0  0
    8.1939    5.0212   -5.8625 H   0  0  0  0  0  0  0  0  0  0  0  0
    7.9353    3.6476   -4.3697 C   0  0  0  0  0  0  0  0  0  0  0  0
    8.7824    3.7551   -4.0006 H   0  0  0  0  0  0  0  0  0  0  0  0
    8.5771    2.9702   -1.4080 C   0  0  0  0  0  0  0  0  0  0  0  0
    8.0280    4.0562   -0.7400 C   0  0  0  0  0  0  0  0  0  0  0  0
    7.1125    4.2081   -0.8138 H   0  0  0  0  0  0  0  0  0  0  0  0
    8.7673    4.9083    0.0203 C   0  0  0  0  0  0  0  0  0  0  0  0
    8.3583    5.6233    0.4521 H   0  0  0  0  0  0  0  0  0  0  0  0
   10.1164    4.7134    0.1476 C   0  0  0  0  0  0  0  0  0  0  0  0
   10.6274    5.2967    0.6606 H   0  0  0  0  0  0  0  0  0  0  0  0
   10.7110    3.6355   -0.4927 C   0  0  0  0  0  0  0  0  0  0  0  0
   11.6283    3.5038   -0.4189 H   0  0  0  0  0  0  0  0  0  0  0  0
    9.9415    2.7485   -1.2493 C   0  0  0  0  0  0  0  0  0  0  0  0
   10.3411    2.0093   -1.6460 H   0  0  0  0  0  0  0  0  0  0  0  0
    1.2197    3.9594   -1.6239 C   0  0  0  0  0  0  0  0  0  0  0  0
    1.2182    2.8735   -2.4469 C   0  0  0  0  0  0  0  0  0  0  0  0
    1.7959    2.1638   -2.2826 H   0  0  0  0  0  0  0  0  0  0  0  0
    0.3581    2.8305   -3.5208 C   0  0  0  0  0  0  0  0  0  0  0  0
    0.3542    2.0845   -4.0763 H   0  0  0  0  0  0  0  0  0  0  0  0
   -0.4847    3.8680   -3.7755 C   0  0  0  0  0  0  0  0  0  0  0  0
   -1.0661    3.8250   -4.5007 H   0  0  0  0  0  0  0  0  0  0  0  0
   -0.4784    4.9822   -2.9654 C   0  0  0  0  0  0  0  0  0  0  0  0
   -1.0396    5.7012   -3.1499 H   0  0  0  0  0  0  0  0  0  0  0  0
    0.3683    5.0212   -1.8748 C   0  0  0  0  0  0  0  0  0  0  0  0
    0.3662    5.7604   -1.3083 H   0  0  0  0  0  0  0  0  0  0  0  0
    3.2150    5.5870   -0.4669 C   0  0  0  0  0  0  0  0  0  0  0  0
    2.8956    6.7455    0.1642 C   0  0  0  0  0  0  0  0  0  0  0  0
    2.2516    6.7321    0.8359 H   0  0  0  0  0  0  0  0  0  0  0  0
    3.5098    7.9619   -0.1661 C   0  0  0  0  0  0  0  0  0  0  0  0
    3.2807    8.7454    0.2805 H   0  0  0  0  0  0  0  0  0  0  0  0
    4.4395    7.9753   -1.1459 C   0  0  0  0  0  0  0  0  0  0  0  0
    4.8658    8.7763   -1.3581 H   0  0  0  0  0  0  0  0  0  0  0  0
    4.7709    6.8490   -1.8287 C   0  0  0  0  0  0  0  0  0  0  0  0
    5.4058    6.8813   -2.5096 H   0  0  0  0  0  0  0  0  0  0  0  0
    4.1441    5.6354   -1.4984 C   0  0  0  0  0  0  0  0  0  0  0  0
    4.3512    4.8626   -1.9726 H   0  0  0  0  0  0  0  0  0  0  0  0
    1.2754    4.2954    1.2493 C   0  0  0  0  0  0  0  0  0  0  0  0
   -0.1052    4.1288    1.2160 C   0  0  0  0  0  0  0  0  0  0  0  0
   -0.5294    3.9769    0.4023 H   0  0  0  0  0  0  0  0  0  0  0  0
   -0.8483    4.1852    2.3620 C   0  0  0  0  0  0  0  0  0  0  0  0
   -1.7595    4.0132    2.3103 H   0  0  0  0  0  0  0  0  0  0  0  0
   -0.3124    4.4796    3.5577 C   0  0  0  0  0  0  0  0  0  0  0  0
   -0.8419    4.5535    4.3180 H   0  0  0  0  0  0  0  0  0  0  0  0
    1.8362    4.5736    2.4745 C   0  0  0  0  0  0  0  0  0  0  0  0
    2.7552    4.6986    2.5391 H   0  0  0  0  0  0  0  0  0  0  0  0
    1.0551    4.6704    3.6112 C   0  0  0  0  0  0  0  0  0  0  0  0
    1.4571    4.8680    4.4269 H   0  0  0  0  0  0  0  0  0  0  0  0
  1  2  1  0  0  0  0
  2  3  1  0  0  0  0
  3  1  1  0  0  0  0
  4  3  1  0  0  0  0
  5  1  1  0  0  0  0
  6  1  1  0  0  0  0
  7  6  3  0  0  0  0
  8  1  1  0  0  0  0
  9  8  1  0  0  0  0
 10  1  1  0  0  0  0
 11 10  1  0  0  0  0
 12  1  1  0  0  0  0
 13 12  1  0  0  0  0
 14  1  1  0  0  0  0
 15  3  1  0  0  0  0
 16  1  1  0  0  0  0
 17 16  1  0  0  0  0
 18  8  1  0  0  0  0
 19 18  1  0  0  0  0
 20  8  1  0  0  0  0
 21 20  1  0  0  0  0
 22 10  1  0  0  0  0
 23 22  1  0  0  0  0
 24 12  1  0  0  0  0
 25 24  1  0  0  0  0
 26 14  1  0  0  0  0
 27 26  1  0  0  0  0
 28 18  1  0  0  0  0
 29 28  1  0  0  0  0
 30  4  1  0  0  0  0
 31 30  4  0  0  0  0
 32 31  1  0  0  0  0
 33 31  4  0  0  0  0
 34 33  1  0  0  0  0
 35 33  4  0  0  0  0
 36 35  1  0  0  0  0
 37 35  4  0  0  0  0
 38 37  1  0  0  0  0
 39 30  4  0  0  0  0
 40 39  1  0  0  0  0
 41  4  1  0  0  0  0
 42 41  4  0  0  0  0
 43 42  1  0  0  0  0
 44 42  4  0  0  0  0
 45 44  1  0  0  0  0
 46 44  4  0  0  0  0
 47 46  1  0  0  0  0
 48 46  4  0  0  0  0
 49 48  1  0  0  0  0
 50 41  4  0  0  0  0
 51 50  1  0  0  0  0
 52  4  1  0  0  0  0
 53 52  4  0  0  0  0
 54 53  1  0  0  0  0
 55 53  4  0  0  0  0
 56 55  1  0  0  0  0
 57 55  4  0  0  0  0
 58 57  1  0  0  0  0
 59 57  4  0  0  0  0
 60 59  1  0  0  0  0
 61 52  4  0  0  0  0
 62 61  1  0  0  0  0
 63  5  1  0  0  0  0
 64 63  4  0  0  0  0
 65 64  1  0  0  0  0
 66 64  4  0  0  0  0
 67 66  1  0  0  0  0
 68 66  4  0  0  0  0
 69 68  1  0  0  0  0
 70 68  4  0  0  0  0
 71 70  1  0  0  0  0
 72 63  4  0  0  0  0
 73 72  1  0  0  0  0
 74  5  1  0  0  0  0
 75 74  4  0  0  0  0
 76 75  1  0  0  0  0
 77 75  4  0  0  0  0
 78 77  1  0  0  0  0
 79 77  4  0  0  0  0
 80 79  1  0  0  0  0
 81 79  4  0  0  0  0
 82 81  1  0  0  0  0
 83 74  4  0  0  0  0
 84 83  1  0  0  0  0
 85  5  1  0  0  0  0
 86 85  4  0  0  0  0
 87 86  1  0  0  0  0
 88 86  4  0  0  0  0
 89 88  1  0  0  0  0
 90 88  4  0  0  0  0
 91 90  1  0  0  0  0
 92 85  4  0  0  0  0
 93 92  1  0  0  0  0
 94 90  4  0  0  0  0
 95 94  1  0  0  0  0
  3 14  1  0  0  0  0
  8 10  1  0  0  0  0
  8 16  1  0  0  0  0
 10 12  1  0  0  0  0
 10 20  1  0  0  0  0
 12 14  1  0  0  0  0
 12 22  1  0  0  0  0
 14 15  1  0  0  0  0
 14 16  1  0  0  0  0
 14 24  1  0  0  0  0
 16 18  1  0  0  0  0
 16 26  1  0  0  0  0
 18 20  1  0  0  0  0
 18 26  1  0  0  0  0
 20 22  1  0  0  0  0
 20 28  1  0  0  0  0
 22 24  1  0  0  0  0
 22 28  1  0  0  0  0
 24 26  1  0  0  0  0
 24 28  1  0  0  0  0
 26 28  1  0  0  0  0
 37 39  4  0  0  0  0
 48 50  4  0  0  0  0
 59 61  4  0  0  0  0
 70 72  4  0  0  0  0
 81 83  4  0  0  0  0
 92 94  4  0  0  0  0
M  END
$$$$
BIMGAG

From CSD data. Using bond type 'Any'. Matching problem. No disordered atoms. Largest molecule.
104127  0  0  0  0  0  0  0  0999 V2000
    1.8671    3.2105    3.5300 Pt  0  0  0  0  0  0  0  0  0  0  0  0
   -0.1023    5.0782    3.5563 Pt  0  0  0  0  0  0  0  0  0  0  0  0
    3.5625    2.7978    1.9520 P   0  0  0  0  0  0  0  0  0  0  0  0
    1.2380    0.9650    4.0119 P   0  0  0  0  0  0  0  0  0  0  0  0
   -0.2410    6.2283    1.4661 P   0  0  0  0  0  0  0  0  0  0  0  0
   -2.3757    5.1862    4.1353 P   0  0  0  0  0  0  0  0  0  0  0  0
    0.4840    2.7281    1.9693 O   0  0  0  0  0  0  0  0  0  0  0  0
   -0.7037    3.4826    2.2455 O   0  0  0  0  0  0  0  0  0  0  0  0
    4.4153    4.1847    1.1926 C   0  0  0  0  0  0  0  0  0  0  0  0
    4.7458    4.7873    1.8913 H   0  0  0  0  0  0  0  0  0  0  0  0
    3.7947    4.6696    0.6093 H   0  0  0  0  0  0  0  0  0  0  0  0
    5.1704    3.8540    0.6629 H   0  0  0  0  0  0  0  0  0  0  0  0
    2.9732    1.9116    0.4761 C   0  0  0  0  0  0  0  0  0  0  0  0
    3.5834    2.0825   -0.2713 H   0  0  0  0  0  0  0  0  0  0  0  0
    2.0746    2.2255    0.2437 H   0  0  0  0  0  0  0  0  0  0  0  0
    2.9448    0.9502    0.6629 H   0  0  0  0  0  0  0  0  0  0  0  0
    4.9399    1.8135    2.5915 C   0  0  0  0  0  0  0  0  0  0  0  0
    5.1108    1.6257    3.9743 C   0  0  0  0  0  0  0  0  0  0  0  0
    4.4954    2.0265    4.5770 H   0  0  0  0  0  0  0  0  0  0  0  0
    6.1612    0.8661    4.4812 C   0  0  0  0  0  0  0  0  0  0  0  0
    6.2401    0.7288    5.4171 H   0  0  0  0  0  0  0  0  0  0  0  0
    7.0942    0.3111    3.6152 C   0  0  0  0  0  0  0  0  0  0  0  0
    7.8298   -0.1850    3.9564 H   0  0  0  0  0  0  0  0  0  0  0  0
    6.9401    0.4877    2.2081 C   0  0  0  0  0  0  0  0  0  0  0  0
    7.5581    0.0981    1.6020 H   0  0  0  0  0  0  0  0  0  0  0  0
    5.8909    1.2249    1.7499 C   0  0  0  0  0  0  0  0  0  0  0  0
    5.8013    1.3482    0.8108 H   0  0  0  0  0  0  0  0  0  0  0  0
   -0.5424    0.7568    4.1822 C   0  0  0  0  0  0  0  0  0  0  0  0
   -0.9990    1.2809    3.4917 H   0  0  0  0  0  0  0  0  0  0  0  0
   -0.8240    1.0679    5.0677 H   0  0  0  0  0  0  0  0  0  0  0  0
   -0.7718   -0.1906    4.0782 H   0  0  0  0  0  0  0  0  0  0  0  0
    1.8716    0.1570    5.4918 C   0  0  0  0  0  0  0  0  0  0  0  0
    1.7087   -0.8072    5.4333 H   0  0  0  0  0  0  0  0  0  0  0  0
    1.4153    0.5185    6.2815 H   0  0  0  0  0  0  0  0  0  0  0  0
    2.8346    0.3223    5.5682 H   0  0  0  0  0  0  0  0  0  0  0  0
    1.6536   -0.2158    2.7118 C   0  0  0  0  0  0  0  0  0  0  0  0
    0.7030   -0.5382    1.7093 C   0  0  0  0  0  0  0  0  0  0  0  0
   -0.1713   -0.1654    1.7450 H   0  0  0  0  0  0  0  0  0  0  0  0
    1.0648   -1.4211    0.6499 C   0  0  0  0  0  0  0  0  0  0  0  0
    0.4306   -1.6649   -0.0146 H   0  0  0  0  0  0  0  0  0  0  0  0
    2.3752   -1.9256    0.6077 C   0  0  0  0  0  0  0  0  0  0  0  0
    2.6472   -2.4469   -0.1397 H   0  0  0  0  0  0  0  0  0  0  0  0
    3.2805   -1.6817    1.6232 C   0  0  0  0  0  0  0  0  0  0  0  0
    4.1430   -2.0797    1.6085 H   0  0  0  0  0  0  0  0  0  0  0  0
    2.9026   -0.8437    2.6695 C   0  0  0  0  0  0  0  0  0  0  0  0
    3.5151   -0.6895    3.3796 H   0  0  0  0  0  0  0  0  0  0  0  0
    0.7076    5.3563    0.1917 C   0  0  0  0  0  0  0  0  0  0  0  0
    0.4816    4.4033    0.2128 H   0  0  0  0  0  0  0  0  0  0  0  0
    1.6656    5.4684    0.3640 H   0  0  0  0  0  0  0  0  0  0  0  0
    0.4885    5.7235   -0.6889 H   0  0  0  0  0  0  0  0  0  0  0  0
    0.3660    7.9266    1.4087 C   0  0  0  0  0  0  0  0  0  0  0  0
    0.2473    8.2853    0.5037 H   0  0  0  0  0  0  0  0  0  0  0  0
    1.3178    7.9406    1.6443 H   0  0  0  0  0  0  0  0  0  0  0  0
   -0.1367    8.4759    2.0456 H   0  0  0  0  0  0  0  0  0  0  0  0
   -1.8778    6.3766    0.7035 C   0  0  0  0  0  0  0  0  0  0  0  0
   -2.3119    5.3675   -0.1722 C   0  0  0  0  0  0  0  0  0  0  0  0
   -1.7427    4.6332   -0.3721 H   0  0  0  0  0  0  0  0  0  0  0  0
   -3.5818    5.4432   -0.7490 C   0  0  0  0  0  0  0  0  0  0  0  0
   -3.8797    4.7397   -1.3161 H   0  0  0  0  0  0  0  0  0  0  0  0
   -4.4049    6.5111   -0.5118 C   0  0  0  0  0  0  0  0  0  0  0  0
   -5.2519    6.5672   -0.9375 H   0  0  0  0  0  0  0  0  0  0  0  0
   -3.9844    7.5202    0.3656 C   0  0  0  0  0  0  0  0  0  0  0  0
   -4.5546    8.2545    0.5557 H   0  0  0  0  0  0  0  0  0  0  0  0
   -2.7169    7.4333    0.9603 C   0  0  0  0  0  0  0  0  0  0  0  0
   -2.4325    8.1200    1.5533 H   0  0  0  0  0  0  0  0  0  0  0  0
   -2.9470    4.4454    5.7355 C   0  0  0  0  0  0  0  0  0  0  0  0
   -2.4436    4.8406    6.4764 H   0  0  0  0  0  0  0  0  0  0  0  0
   -2.7951    3.4756    5.7177 H   0  0  0  0  0  0  0  0  0  0  0  0
   -3.9029    4.6248    5.8558 H   0  0  0  0  0  0  0  0  0  0  0  0
   -3.4213    4.2688    2.9685 C   0  0  0  0  0  0  0  0  0  0  0  0
   -4.3301    4.1987    3.3292 H   0  0  0  0  0  0  0  0  0  0  0  0
   -3.0532    3.3691    2.8369 H   0  0  0  0  0  0  0  0  0  0  0  0
   -3.4459    4.7397    2.1106 H   0  0  0  0  0  0  0  0  0  0  0  0
   -3.0170    6.8951    4.1920 C   0  0  0  0  0  0  0  0  0  0  0  0
   -4.4004    7.1390    3.9125 C   0  0  0  0  0  0  0  0  0  0  0  0
   -4.9933    6.4074    3.7971 H   0  0  0  0  0  0  0  0  0  0  0  0
   -4.8682    8.3975    3.8134 C   0  0  0  0  0  0  0  0  0  0  0  0
   -5.7861    8.5432    3.6168 H   0  0  0  0  0  0  0  0  0  0  0  0
   -3.9979    9.5186    3.9986 C   0  0  0  0  0  0  0  0  0  0  0  0
   -4.3259   10.4071    3.9223 H   0  0  0  0  0  0  0  0  0  0  0  0
   -2.6318    9.2720    4.2992 C   0  0  0  0  0  0  0  0  0  0  0  0
   -2.0367    9.9979    4.4471 H   0  0  0  0  0  0  0  0  0  0  0  0
   -2.1650    7.9462    4.3804 C   0  0  0  0  0  0  0  0  0  0  0  0
   -1.2478    7.7808    4.5657 H   0  0  0  0  0  0  0  0  0  0  0  0
    0.5741    3.8231    5.3456 B   0  0  0  0  0  0  0  0  0  0  0  0
   -0.1839    3.0411    5.6055 H   0  0  0  0  0  0  0  0  0  0  0  0
    2.4042    3.5821    5.6234 B   0  0  0  0  0  0  0  0  0  0  0  0
    2.8009    2.6347    6.0702 H   0  0  0  0  0  0  0  0  0  0  0  0
    3.3627    4.5435    4.4422 B   0  0  0  0  0  0  0  0  0  0  0  0
    4.3902    4.2408    4.1124 H   0  0  0  0  0  0  0  0  0  0  0  0
    2.1693    5.4712    3.3276 B   0  0  0  0  0  0  0  0  0  0  0  0
    2.4405    5.7543    2.2780 H   0  0  0  0  0  0  0  0  0  0  0  0
    0.2658    5.6674    5.6559 B   0  0  0  0  0  0  0  0  0  0  0  0
   -0.6766    6.0570    6.1174 H   0  0  0  0  0  0  0  0  0  0  0  0
    1.4401    4.7032    6.6048 B   0  0  0  0  0  0  0  0  0  0  0  0
    1.1953    4.4398    7.6658 H   0  0  0  0  0  0  0  0  0  0  0  0
    3.0993    5.1349    6.0751 B   0  0  0  0  0  0  0  0  0  0  0  0
    3.9599    5.1853    6.7916 H   0  0  0  0  0  0  0  0  0  0  0  0
    2.9428    6.2757    4.6940 B   0  0  0  0  0  0  0  0  0  0  0  0
    3.6974    7.0745    4.4763 H   0  0  0  0  0  0  0  0  0  0  0  0
    1.2123    6.6232    4.4227 B   0  0  0  0  0  0  0  0  0  0  0  0
    0.8809    7.6323    4.0636 H   0  0  0  0  0  0  0  0  0  0  0  0
    1.8391    6.3906    6.1174 B   0  0  0  0  0  0  0  0  0  0  0  0
    1.8923    7.2343    6.8534 H   0  0  0  0  0  0  0  0  0  0  0  0
  1  2  1  0  0  0  0
  2  5  1  0  0  0  0
  3  1  1  0  0  0  0
  4  1  1  0  0  0  0
  5 47  1  0  0  0  0
  6  2  1  0  0  0  0
  7  1  1  0  0  0  0
  8  2  1  0  0  0  0
  9  3  1  0  0  0  0
 10  9  1  0  0  0  0
 11  9  1  0  0  0  0
 12  9  1  0  0  0  0
 13  3  1  0  0  0  0
 14 13  1  0  0  0  0
 15 13  1  0  0  0  0
 16 13  1  0  0  0  0
 17  3  1  0  0  0  0
 18 17  4  0  0  0  0
 19 18  1  0  0  0  0
 20 18  4  0  0  0  0
 21 20  1  0  0  0  0
 22 20  4  0  0  0  0
 23 22  1  0  0  0  0
 24 22  4  0  0  0  0
 25 24  1  0  0  0  0
 26 17  4  0  0  0  0
 27 26  1  0  0  0  0
 28  4  1  0  0  0  0
 29 28  1  0  0  0  0
 30 28  1  0  0  0  0
 31 28  1  0  0  0  0
 32  4  1  0  0  0  0
 33 32  1  0  0  0  0
 34 32  1  0  0  0  0
 35 32  1  0  0  0  0
 36  4  1  0  0  0  0
 37 36  4  0  0  0  0
 38 37  1  0  0  0  0
 39 37  4  0  0  0  0
 40 39  1  0  0  0  0
 41 39  4  0  0  0  0
 42 41  1  0  0  0  0
 43 41  4  0  0  0  0
 44 43  1  0  0  0  0
 45 36  4  0  0  0  0
 46 45  1  0  0  0  0
 47 48  1  0  0  0  0
 49 47  1  0  0  0  0
 50 47  1  0  0  0  0
 51  5  1  0  0  0  0
 52 51  1  0  0  0  0
 53 51  1  0  0  0  0
 54 51  1  0  0  0  0
 55  5  1  0  0  0  0
 56 55  4  0  0  0  0
 57 56  1  0  0  0  0
 58 56  4  0  0  0  0
 59 58  1  0  0  0  0
 60 58  4  0  0  0  0
 61 60  1  0  0  0  0
 62 60  4  0  0  0  0
 63 62  1  0  0  0  0
 64 55  4  0  0  0  0
 65 64  1  0  0  0  0
 66  6  1  0  0  0  0
 67 66  1  0  0  0  0
 68 66  1  0  0  0  0
 69 66  1  0  0  0  0
 70  6  1  0  0  0  0
 71 70  1  0  0  0  0
 72 70  1  0  0  0  0
 73 70  1  0  0  0  0
 74  6  1  0  0  0  0
 75 74  4  0  0  0  0
 76 75  1  0  0  0  0
 77 75  4  0  0  0  0
 78 77  1  0  0  0  0
 79 77  4  0  0  0  0
 80 79  1  0  0  0  0
 81 79  4  0  0  0  0
 82 81  1  0  0  0  0
 83 74  4  0  0  0  0
 84 83  1  0  0  0  0
 85  1  1  0  0  0  0
 86 85  1  0  0  0  0
 87  1  1  0  0  0  0
 88 87  1  0  0  0  0
 89  1  1  0  0  0  0
 90 89  1  0  0  0  0
 91  1  1  0  0  0  0
 92 91  1  0  0  0  0
 93  2  1  0  0  0  0
 94 93  1  0  0  0  0
 95 85  1  0  0  0  0
 96 95  1  0  0  0  0
 97 87  1  0  0  0  0
 98 97  1  0  0  0  0
 99 89  1  0  0  0  0
100 99  1  0  0  0  0
101  2  1  0  0  0  0
102101  1  0  0  0  0
103 93  1  0  0  0  0
104103  1  0  0  0  0
  2 85  1  0  0  0  0
  2 91  1  0  0  0  0
  7  8  1  0  0  0  0
 24 26  4  0  0  0  0
 43 45  4  0  0  0  0
 62 64  4  0  0  0  0
 81 83  4  0  0  0  0
 85 87  1  0  0  0  0
 85 93  1  0  0  0  0
 87 89  1  0  0  0  0
 87 95  1  0  0  0  0
 89 91  1  0  0  0  0
 89 97  1  0  0  0  0
 91 99  1  0  0  0  0
 91101  1  0  0  0  0
 93 95  1  0  0  0  0
 93101  1  0  0  0  0
 95 97  1  0  0  0  0
 95103  1  0  0  0  0
 97 99  1  0  0  0  0
 97103  1  0  0  0  0
 99101  1  0  0  0  0
 99103  1  0  0  0  0
101103  1  0  0  0  0
M  END
$$$$
BIMGAG01

From CSD data. Using bond type 'Any'. Matching problem. Disorder unknown. Sizes unknown.
  0  0  0  0  0  0  0  0  0  0999 V2000
M  END
$$$$
BITQED

From CSD data. Using bond type 'Any'. No disordered atoms. Largest molecule.
103107  0  0  0  0  0  0  0  0999 V2000
    3.0010    1.7394   11.4645 Cu  0  0  0  0  0  0  0  0  0  0  0  0
    3.0010    4.0128   11.4645 Cu  0  0  0  0  0  0  0  0  0  0  0  0
    2.7744    0.5624    9.6101 P   0  0  0  0  0  0  0  0  0  0  0  0
    5.5625    2.6634   10.0095 O   0  0  0  0  0  0  0  0  0  0  0  0
    5.8151    2.8272   12.2688 O   0  0  0  0  0  0  0  0  0  0  0  0
    3.0412    6.7807   12.5345 N   0  0  0  0  0  0  0  0  0  0  0  0
    6.9931    2.6902   10.2518 C   0  0  0  0  0  0  0  0  0  0  0  0
    7.0711    3.2690   11.6893 C   0  0  0  0  0  0  0  0  0  0  0  0
    3.0010    5.9398   11.4645 C   0  0  0  0  0  0  0  0  0  0  0  0
    3.0285    8.1203   12.1429 C   0  0  0  0  0  0  0  0  0  0  0  0
    7.4963    1.2538   10.1665 C   0  0  0  0  0  0  0  0  0  0  0  0
    7.0514    0.7107   10.8500 H   0  0  0  0  0  0  0  0  0  0  0  0
    8.4647    1.2381   10.3150 H   0  0  0  0  0  0  0  0  0  0  0  0
    7.2956    0.8897    9.2786 H   0  0  0  0  0  0  0  0  0  0  0  0
    4.8756    2.6300   11.2401 B   0  0  0  0  0  0  0  0  0  0  0  0
    7.6502    3.5340    9.1696 C   0  0  0  0  0  0  0  0  0  0  0  0
    7.5447    3.0924    8.3018 H   0  0  0  0  0  0  0  0  0  0  0  0
    8.6041    3.6365    9.3688 H   0  0  0  0  0  0  0  0  0  0  0  0
    7.2246    4.4166    9.1410 H   0  0  0  0  0  0  0  0  0  0  0  0
    2.7917    1.6403    8.1382 C   0  0  0  0  0  0  0  0  0  0  0  0
    2.7192    1.0910    7.3296 H   0  0  0  0  0  0  0  0  0  0  0  0
    3.6301    2.1472    8.1138 H   0  0  0  0  0  0  0  0  0  0  0  0
    2.0358    2.2624    8.1795 H   0  0  0  0  0  0  0  0  0  0  0  0
    3.0366    6.3238   13.9425 C   0  0  0  0  0  0  0  0  0  0  0  0
    3.0821    7.1357   14.5232 H   0  0  0  0  0  0  0  0  0  0  0  0
    3.1044    9.2603   13.1025 C   0  0  0  0  0  0  0  0  0  0  0  0
    3.1148   10.1046   12.6063 H   0  0  0  0  0  0  0  0  0  0  0  0
    3.9219    9.1843   13.6366 H   0  0  0  0  0  0  0  0  0  0  0  0
    2.3253    9.2398   13.6962 H   0  0  0  0  0  0  0  0  0  0  0  0
    7.0695    4.7933   11.7205 C   0  0  0  0  0  0  0  0  0  0  0  0
    6.3375    5.1314   11.1633 H   0  0  0  0  0  0  0  0  0  0  0  0
    7.9238    5.1286   11.3758 H   0  0  0  0  0  0  0  0  0  0  0  0
    6.9461    5.1009   12.6430 H   0  0  0  0  0  0  0  0  0  0  0  0
    4.0467   -0.6866    9.1904 C   0  0  0  0  0  0  0  0  0  0  0  0
    3.8346   -1.0896    8.3232 H   0  0  0  0  0  0  0  0  0  0  0  0
    4.0608   -1.3838    9.8793 H   0  0  0  0  0  0  0  0  0  0  0  0
    4.9263   -0.2554    9.1441 H   0  0  0  0  0  0  0  0  0  0  0  0
    4.2629    5.4767   14.2422 C   0  0  0  0  0  0  0  0  0  0  0  0
    4.2538    4.6775   13.6748 H   0  0  0  0  0  0  0  0  0  0  0  0
    4.2515    5.2077   15.1851 H   0  0  0  0  0  0  0  0  0  0  0  0
    5.0725    5.9975   14.0600 H   0  0  0  0  0  0  0  0  0  0  0  0
    1.2468   -0.4114    9.3455 C   0  0  0  0  0  0  0  0  0  0  0  0
    0.4652    0.1721    9.4482 H   0  0  0  0  0  0  0  0  0  0  0  0
    1.2035   -1.1354   10.0047 H   0  0  0  0  0  0  0  0  0  0  0  0
    1.2545   -0.7912    8.4424 H   0  0  0  0  0  0  0  0  0  0  0  0
    1.7374    5.5985   14.2635 C   0  0  0  0  0  0  0  0  0  0  0  0
    0.9774    6.1724   14.0340 H   0  0  0  0  0  0  0  0  0  0  0  0
    1.7100    5.3854   15.2202 H   0  0  0  0  0  0  0  0  0  0  0  0
    1.6885    4.7691   13.7436 H   0  0  0  0  0  0  0  0  0  0  0  0
    8.2207    2.7411   12.5339 C   0  0  0  0  0  0  0  0  0  0  0  0
    8.1944    3.1577   13.4195 H   0  0  0  0  0  0  0  0  0  0  0  0
    9.0721    2.9564   12.0973 H   0  0  0  0  0  0  0  0  0  0  0  0
    8.1379    1.7697   12.6277 H   0  0  0  0  0  0  0  0  0  0  0  0
    2.9609    6.7807   10.3944 N   0  0  0  0  0  0  0  0  0  0  0  0
    2.9736    8.1203   10.7861 C   0  0  0  0  0  0  0  0  0  0  0  0
    2.9655    6.3238    8.9865 C   0  0  0  0  0  0  0  0  0  0  0  0
    2.9200    7.1357    8.4057 H   0  0  0  0  0  0  0  0  0  0  0  0
    2.8976    9.2603    9.8264 C   0  0  0  0  0  0  0  0  0  0  0  0
    2.8873   10.1046   10.3226 H   0  0  0  0  0  0  0  0  0  0  0  0
    2.0802    9.1843    9.2923 H   0  0  0  0  0  0  0  0  0  0  0  0
    3.6767    9.2398    9.2327 H   0  0  0  0  0  0  0  0  0  0  0  0
    1.7392    5.4767    8.6867 C   0  0  0  0  0  0  0  0  0  0  0  0
    1.7482    4.6775    9.2541 H   0  0  0  0  0  0  0  0  0  0  0  0
    1.7505    5.2077    7.7439 H   0  0  0  0  0  0  0  0  0  0  0  0
    0.9295    5.9975    8.8689 H   0  0  0  0  0  0  0  0  0  0  0  0
    4.2646    5.5985    8.6655 C   0  0  0  0  0  0  0  0  0  0  0  0
    5.0246    6.1724    8.8949 H   0  0  0  0  0  0  0  0  0  0  0  0
    4.2920    5.3854    7.7087 H   0  0  0  0  0  0  0  0  0  0  0  0
    4.3135    4.7691    9.1853 H   0  0  0  0  0  0  0  0  0  0  0  0
    3.2277    0.5624   13.3188 P   0  0  0  0  0  0  0  0  0  0  0  0
    0.4396    2.6634   12.9194 O   0  0  0  0  0  0  0  0  0  0  0  0
    0.1869    2.8272   10.6601 O   0  0  0  0  0  0  0  0  0  0  0  0
   -0.9910    2.6902   12.6771 C   0  0  0  0  0  0  0  0  0  0  0  0
   -1.0691    3.2690   11.2396 C   0  0  0  0  0  0  0  0  0  0  0  0
   -1.4942    1.2538   12.7624 C   0  0  0  0  0  0  0  0  0  0  0  0
   -1.0493    0.7107   12.0790 H   0  0  0  0  0  0  0  0  0  0  0  0
   -2.4626    1.2381   12.6140 H   0  0  0  0  0  0  0  0  0  0  0  0
   -1.2935    0.8897   13.6504 H   0  0  0  0  0  0  0  0  0  0  0  0
    1.1265    2.6300   11.6889 B   0  0  0  0  0  0  0  0  0  0  0  0
   -1.6481    3.5340   13.7593 C   0  0  0  0  0  0  0  0  0  0  0  0
   -1.5426    3.0924   14.6271 H   0  0  0  0  0  0  0  0  0  0  0  0
   -2.6021    3.6365   13.5602 H   0  0  0  0  0  0  0  0  0  0  0  0
   -1.2226    4.4166   13.7879 H   0  0  0  0  0  0  0  0  0  0  0  0
    3.2103    1.6403   14.7907 C   0  0  0  0  0  0  0  0  0  0  0  0
    3.2829    1.0910   15.5993 H   0  0  0  0  0  0  0  0  0  0  0  0
    2.3719    2.1472   14.8151 H   0  0  0  0  0  0  0  0  0  0  0  0
    3.9663    2.2624   14.7494 H   0  0  0  0  0  0  0  0  0  0  0  0
   -1.0674    4.7933   11.2084 C   0  0  0  0  0  0  0  0  0  0  0  0
   -0.3354    5.1314   11.7656 H   0  0  0  0  0  0  0  0  0  0  0  0
   -1.9217    5.1286   11.5531 H   0  0  0  0  0  0  0  0  0  0  0  0
   -0.9440    5.1009   10.2859 H   0  0  0  0  0  0  0  0  0  0  0  0
    1.9553   -0.6866   13.7386 C   0  0  0  0  0  0  0  0  0  0  0  0
    2.1675   -1.0896   14.6057 H   0  0  0  0  0  0  0  0  0  0  0  0
    1.9412   -1.3838   13.0496 H   0  0  0  0  0  0  0  0  0  0  0  0
    1.0758   -0.2554   13.7849 H   0  0  0  0  0  0  0  0  0  0  0  0
    4.7552   -0.4114   13.5834 C   0  0  0  0  0  0  0  0  0  0  0  0
    5.5369    0.1721   13.4807 H   0  0  0  0  0  0  0  0  0  0  0  0
    4.7985   -1.1354   12.9243 H   0  0  0  0  0  0  0  0  0  0  0  0
    4.7475   -0.7912   14.4865 H   0  0  0  0  0  0  0  0  0  0  0  0
   -2.2186    2.7411   10.3951 C   0  0  0  0  0  0  0  0  0  0  0  0
   -2.1923    3.1577    9.5094 H   0  0  0  0  0  0  0  0  0  0  0  0
   -3.0700    2.9564   10.8316 H   0  0  0  0  0  0  0  0  0  0  0  0
   -2.1359    1.7697   10.3012 H   0  0  0  0  0  0  0  0  0  0  0  0
  1  2  1  0  0  0  0
  2  9  1  0  0  0  0
  3  1  1  0  0  0  0
  4  7  1  0  0  0  0
  5  8  1  0  0  0  0
  6  9  1  0  0  0  0
  7  8  1  0  0  0  0
  8 30  1  0  0  0  0
  9 54  1  0  0  0  0
 10  6  1  0  0  0  0
 11  7  1  0  0  0  0
 12 11  1  0  0  0  0
 13 11  1  0  0  0  0
 14 11  1  0  0  0  0
 15  1  1  0  0  0  0
 16  7  1  0  0  0  0
 17 16  1  0  0  0  0
 18 16  1  0  0  0  0
 19 16  1  0  0  0  0
 20  3  1  0  0  0  0
 21 20  1  0  0  0  0
 22 20  1  0  0  0  0
 23 20  1  0  0  0  0
 24  6  1  0  0  0  0
 25 24  1  0  0  0  0
 26 10  1  0  0  0  0
 27 26  1  0  0  0  0
 28 26  1  0  0  0  0
 29 26  1  0  0  0  0
 30 31  1  0  0  0  0
 32 30  1  0  0  0  0
 33 30  1  0  0  0  0
 34  3  1  0  0  0  0
 35 34  1  0  0  0  0
 36 34  1  0  0  0  0
 37 34  1  0  0  0  0
 38 24  1  0  0  0  0
 39 38  1  0  0  0  0
 40 38  1  0  0  0  0
 41 38  1  0  0  0  0
 42  3  1  0  0  0  0
 43 42  1  0  0  0  0
 44 42  1  0  0  0  0
 45 42  1  0  0  0  0
 46 24  1  0  0  0  0
 47 46  1  0  0  0  0
 48 46  1  0  0  0  0
 49 46  1  0  0  0  0
 50  8  1  0  0  0  0
 51 50  1  0  0  0  0
 52 50  1  0  0  0  0
 53 50  1  0  0  0  0
 54 55  1  0  0  0  0
 55 10  2  0  0  0  0
 56 54  1  0  0  0  0
 57 56  1  0  0  0  0
 58 55  1  0  0  0  0
 59 58  1  0  0  0  0
 60 58  1  0  0  0  0
 61 58  1  0  0  0  0
 62 56  1  0  0  0  0
 63 62  1  0  0  0  0
 64 62  1  0  0  0  0
 65 62  1  0  0  0  0
 66 56  1  0  0  0  0
 67 66  1  0  0  0  0
 68 66  1  0  0  0  0
 69 66  1  0  0  0  0
 70  1  1  0  0  0  0
 71 73  1  0  0  0  0
 72 74  1  0  0  0  0
 73 74  1  0  0  0  0
 74 88  1  0  0  0  0
 75 73  1  0  0  0  0
 76 75  1  0  0  0  0
 77 75  1  0  0  0  0
 78 75  1  0  0  0  0
 79  1  1  0  0  0  0
 80 73  1  0  0  0  0
 81 80  1  0  0  0  0
 82 80  1  0  0  0  0
 83 80  1  0  0  0  0
 84 70  1  0  0  0  0
 85 84  1  0  0  0  0
 86 84  1  0  0  0  0
 87 84  1  0  0  0  0
 88 89  1  0  0  0  0
 90 88  1  0  0  0  0
 91 88  1  0  0  0  0
 92 70  1  0  0  0  0
 93 92  1  0  0  0  0
 94 92  1  0  0  0  0
 95 92  1  0  0  0  0
 96 70  1  0  0  0  0
 97 96  1  0  0  0  0
 98 96  1  0  0  0  0
 99 96  1  0  0  0  0
100 74  1  0  0  0  0
101100  1  0  0  0  0
102100  1  0  0  0  0
103100  1  0  0  0  0
  2 15  1  0  0  0  0
  2 79  1  0  0  0  0
  4 15  1  0  0  0  0
  5 15  1  0  0  0  0
 71 79  1  0  0  0  0
 72 79  1  0  0  0  0
M  END
$$$$
BIVRUX

From CSD data. Using bond type 'Any'. No disordered atoms. Largest molecule.
 82104  0  0  0  0  0  0  0  0999 V2000
   13.5903   10.1722    4.7560 P   0  0  0  0  0  0  0  0  0  0  0  0
   12.5210    6.7907    5.0387 P   0  0  0  0  0  0  0  0  0  0  0  0
   14.1091    9.1777    3.7992 O   0  0  0  0  0  0  0  0  0  0  0  0
   13.5783    7.0423    6.0319 O   0  0  0  0  0  0  0  0  0  0  0  0
   14.4834   10.1787    6.3195 C   0  0  0  0  0  0  0  0  0  0  0  0
   15.5120    9.2221    6.4322 C   0  0  0  0  0  0  0  0  0  0  0  0
   15.6552    8.6000    5.7289 H   0  0  0  0  0  0  0  0  0  0  0  0
   13.1283    6.4449    3.3830 C   0  0  0  0  0  0  0  0  0  0  0  0
   13.6491   11.8458    4.0983 C   0  0  0  0  0  0  0  0  0  0  0  0
   13.2354   13.0043    4.7775 C   0  0  0  0  0  0  0  0  0  0  0  0
   12.8445   12.9414    5.6417 H   0  0  0  0  0  0  0  0  0  0  0  0
   14.2359   11.9723    2.8454 C   0  0  0  0  0  0  0  0  0  0  0  0
   14.5194   11.1922    2.3817 H   0  0  0  0  0  0  0  0  0  0  0  0
   15.1217   11.0425    8.4814 C   0  0  0  0  0  0  0  0  0  0  0  0
   15.0007   11.6725    9.1822 H   0  0  0  0  0  0  0  0  0  0  0  0
   12.3604    6.3938    2.2125 C   0  0  0  0  0  0  0  0  0  0  0  0
   11.4423    6.6358    2.2379 H   0  0  0  0  0  0  0  0  0  0  0  0
   16.3049    9.1817    7.5464 C   0  0  0  0  0  0  0  0  0  0  0  0
   16.9948    8.5328    7.6129 H   0  0  0  0  0  0  0  0  0  0  0  0
   16.1068   10.0778    8.5681 C   0  0  0  0  0  0  0  0  0  0  0  0
   16.6526   10.0324    9.3437 H   0  0  0  0  0  0  0  0  0  0  0  0
   14.3143   11.0802    7.3628 C   0  0  0  0  0  0  0  0  0  0  0  0
   13.6304   11.7355    7.3043 H   0  0  0  0  0  0  0  0  0  0  0  0
   13.4038   14.2394    4.1735 C   0  0  0  0  0  0  0  0  0  0  0  0
   13.0908   15.0206    4.6157 H   0  0  0  0  0  0  0  0  0  0  0  0
   10.8396    4.5343    4.6142 C   0  0  0  0  0  0  0  0  0  0  0  0
   10.8340    4.7412    3.6863 H   0  0  0  0  0  0  0  0  0  0  0  0
   12.9308    5.9982    1.0275 C   0  0  0  0  0  0  0  0  0  0  0  0
   12.4101    5.9890    0.2329 H   0  0  0  0  0  0  0  0  0  0  0  0
   11.5707    4.9878    6.8498 C   0  0  0  0  0  0  0  0  0  0  0  0
   12.0703    5.5104    7.4655 H   0  0  0  0  0  0  0  0  0  0  0  0
   14.0148   14.3592    2.9408 C   0  0  0  0  0  0  0  0  0  0  0  0
   14.1594   15.2196    2.5659 H   0  0  0  0  0  0  0  0  0  0  0  0
   15.0249    5.6672    2.1315 C   0  0  0  0  0  0  0  0  0  0  0  0
   15.9428    5.4218    2.0970 H   0  0  0  0  0  0  0  0  0  0  0  0
   11.2869    8.1874    5.0521 C   0  0  0  0  0  0  0  0  0  0  0  0
   14.4766    6.0763    3.3266 C   0  0  0  0  0  0  0  0  0  0  0  0
   15.0120    6.1074    4.1115 H   0  0  0  0  0  0  0  0  0  0  0  0
   14.4197   13.2330    2.2515 C   0  0  0  0  0  0  0  0  0  0  0  0
   14.8137   13.3095    1.3911 H   0  0  0  0  0  0  0  0  0  0  0  0
   14.2642    5.6094    0.9841 C   0  0  0  0  0  0  0  0  0  0  0  0
   14.6478    5.3064    0.1699 H   0  0  0  0  0  0  0  0  0  0  0  0
   11.7937    9.8154    5.0593 C   0  0  0  0  0  0  0  0  0  0  0  0
   11.5513    5.3511    5.5015 C   0  0  0  0  0  0  0  0  0  0  0  0
   10.1473    3.4310    5.0752 C   0  0  0  0  0  0  0  0  0  0  0  0
    9.6624    2.8872    4.4667 H   0  0  0  0  0  0  0  0  0  0  0  0
   10.1609    3.1216    6.4018 C   0  0  0  0  0  0  0  0  0  0  0  0
    9.6688    2.3719    6.7148 H   0  0  0  0  0  0  0  0  0  0  0  0
   10.8829    3.8925    7.3007 C   0  0  0  0  0  0  0  0  0  0  0  0
   10.9019    3.6614    8.2216 H   0  0  0  0  0  0  0  0  0  0  0  0
    8.1273   11.8942    5.5030 C   0  0  0  0  0  0  0  0  0  0  0  0
    7.7240   12.0615    4.6143 H   0  0  0  0  0  0  0  0  0  0  0  0
    7.3962   11.6235    6.1140 H   0  0  0  0  0  0  0  0  0  0  0  0
   10.9758    9.1898    3.6648 B   0  0  0  0  0  0  0  0  0  0  0  0
   11.4645    9.0510    2.6658 H   0  0  0  0  0  0  0  0  0  0  0  0
    7.0923    8.5587    5.5984 C   0  0  0  0  0  0  0  0  0  0  0  0
    6.9050    8.5560    6.5700 H   0  0  0  0  0  0  0  0  0  0  0  0
    6.5243    9.2594    5.1895 H   0  0  0  0  0  0  0  0  0  0  0  0
   11.2723    9.0821    6.5594 B   0  0  0  0  0  0  0  0  0  0  0  0
   11.9478    8.8682    7.4269 H   0  0  0  0  0  0  0  0  0  0  0  0
    8.7207   13.1940    6.0131 C   0  0  0  0  0  0  0  0  0  0  0  0
    9.0545   13.0653    6.9247 H   0  0  0  0  0  0  0  0  0  0  0  0
    8.0309   13.8905    6.0125 H   0  0  0  0  0  0  0  0  0  0  0  0
    9.4596   13.4663    5.4294 H   0  0  0  0  0  0  0  0  0  0  0  0
   10.5900   10.7990    4.3194 B   0  0  0  0  0  0  0  0  0  0  0  0
   10.8067   11.7276    3.7316 H   0  0  0  0  0  0  0  0  0  0  0  0
    9.7491    8.0636    4.3368 B   0  0  0  0  0  0  0  0  0  0  0  0
    9.4142    7.1669    3.7550 H   0  0  0  0  0  0  0  0  0  0  0  0
    9.5827    9.6109    6.7429 B   0  0  0  0  0  0  0  0  0  0  0  0
    9.1321    9.7554    7.7576 H   0  0  0  0  0  0  0  0  0  0  0  0
    9.1481   10.6819    5.3729 B   0  0  0  0  0  0  0  0  0  0  0  0
    9.9275    8.0111    6.0969 B   0  0  0  0  0  0  0  0  0  0  0  0
    9.7133    7.0820    6.6838 H   0  0  0  0  0  0  0  0  0  0  0  0
    9.2709    9.6903    3.8787 B   0  0  0  0  0  0  0  0  0  0  0  0
    8.6119    9.8781    2.9920 H   0  0  0  0  0  0  0  0  0  0  0  0
   10.7954   10.7331    6.0911 B   0  0  0  0  0  0  0  0  0  0  0  0
   11.1612   11.6195    6.6703 H   0  0  0  0  0  0  0  0  0  0  0  0
    6.6719    7.2200    5.0319 C   0  0  0  0  0  0  0  0  0  0  0  0
    6.8316    7.2102    4.0642 H   0  0  0  0  0  0  0  0  0  0  0  0
    5.7198    7.0745    5.2072 H   0  0  0  0  0  0  0  0  0  0  0  0
    7.1956    6.5076    5.4552 H   0  0  0  0  0  0  0  0  0  0  0  0
    8.6157    8.9637    5.3845 B   0  0  0  0  0  0  0  0  0  0  0  0
  1  3  2  0  0  0  0
  2  4  2  0  0  0  0
  5  1  1  0  0  0  0
  6  5  4  0  0  0  0
  7  6  1  0  0  0  0
  8  2  1  0  0  0  0
  9  1  1  0  0  0  0
 10  9  4  0  0  0  0
 11 10  1  0  0  0  0
 12  9  4  0  0  0  0
 13 12  1  0  0  0  0
 14 15  1  0  0  0  0
 16  8  4  0  0  0  0
 17 16  1  0  0  0  0
 18  6  4  0  0  0  0
 19 18  1  0  0  0  0
 20 14  4  0  0  0  0
 21 20  1  0  0  0  0
 22  5  4  0  0  0  0
 23 22  1  0  0  0  0
 24 10  4  0  0  0  0
 25 24  1  0  0  0  0
 26 27  1  0  0  0  0
 28 16  4  0  0  0  0
 29 28  1  0  0  0  0
 30 31  1  0  0  0  0
 32 24  4  0  0  0  0
 33 32  1  0  0  0  0
 34 35  1  0  0  0  0
 36  2  1  0  0  0  0
 37  8  4  0  0  0  0
 38 37  1  0  0  0  0
 39 12  4  0  0  0  0
 40 39  1  0  0  0  0
 41 28  4  0  0  0  0
 42 41  1  0  0  0  0
 43  1  1  0  0  0  0
 44  2  1  0  0  0  0
 45 26  4  0  0  0  0
 46 45  1  0  0  0  0
 47 45  4  0  0  0  0
 48 47  1  0  0  0  0
 49 30  4  0  0  0  0
 50 49  1  0  0  0  0
 51 52  1  0  0  0  0
 53 51  1  0  0  0  0
 54 36  1  0  0  0  0
 55 54  1  0  0  0  0
 56 57  1  0  0  0  0
 58 56  1  0  0  0  0
 59 36  1  0  0  0  0
 60 59  1  0  0  0  0
 61 51  1  0  0  0  0
 62 61  1  0  0  0  0
 63 61  1  0  0  0  0
 64 61  1  0  0  0  0
 65 43  1  0  0  0  0
 66 65  1  0  0  0  0
 67 36  1  0  0  0  0
 68 67  1  0  0  0  0
 69 59  1  0  0  0  0
 70 69  1  0  0  0  0
 71 51  1  0  0  0  0
 72 36  1  0  0  0  0
 73 72  1  0  0  0  0
 74 54  1  0  0  0  0
 75 74  1  0  0  0  0
 76 43  1  0  0  0  0
 77 76  1  0  0  0  0
 78 56  1  0  0  0  0
 79 78  1  0  0  0  0
 80 78  1  0  0  0  0
 81 78  1  0  0  0  0
 82 56  1  0  0  0  0
 14 22  4  0  0  0  0
 18 20  4  0  0  0  0
 26 44  4  0  0  0  0
 30 44  4  0  0  0  0
 32 39  4  0  0  0  0
 34 37  4  0  0  0  0
 34 41  4  0  0  0  0
 36 43  1  0  0  0  0
 43 54  1  0  0  0  0
 43 59  1  0  0  0  0
 47 49  4  0  0  0  0
 54 65  1  0  0  0  0
 54 67  1  0  0  0  0
 59 72  1  0  0  0  0
 59 76  1  0  0  0  0
 65 71  1  0  0  0  0
 65 74  1  0  0  0  0
 65 76  1  0  0  0  0
 67 72  1  0  0  0  0
 67 74  1  0  0  0  0
 67 82  1  0  0  0  0
 69 71  1  0  0  0  0
 69 72  1  0  0  0  0
 69 76  1  0  0  0  0
 69 82  1  0  0  0  0
 71 74  1  0  0  0  0
 71 76  1  0  0  0  0
 71 82  1  0  0  0  0
 72 82  1  0  0  0  0
 74 82  1  0  0  0  0
M  END
$$$$
BIVSAE

From CSD data. Using bond type 'Any'. No disordered atoms. Largest molecule.
 70 92  0  0  0  0  0  0  0  0999 V2000
    3.2095   10.9887    4.8013 B   0  0  0  0  0  0  0  0  0  0  0  0
    2.3111   11.4538    4.3193 H   0  0  0  0  0  0  0  0  0  0  0  0
    4.4057   10.0196    3.8827 B   0  0  0  0  0  0  0  0  0  0  0  0
    4.3025    9.8407    2.7813 H   0  0  0  0  0  0  0  0  0  0  0  0
    4.8537   11.5941    4.5134 B   0  0  0  0  0  0  0  0  0  0  0  0
    5.0486   12.4566    3.8255 H   0  0  0  0  0  0  0  0  0  0  0  0
    5.9930   10.2395    4.6381 B   0  0  0  0  0  0  0  0  0  0  0  0
    6.9434   10.1984    4.0470 H   0  0  0  0  0  0  0  0  0  0  0  0
    3.1302   10.3345    6.4388 B   0  0  0  0  0  0  0  0  0  0  0  0
    2.1967   10.3404    7.0583 H   0  0  0  0  0  0  0  0  0  0  0  0
    3.3352    9.2269    5.0593 B   0  0  0  0  0  0  0  0  0  0  0  0
    2.5253    8.5179    4.7492 H   0  0  0  0  0  0  0  0  0  0  0  0
    5.0442    8.7790    4.9788 B   0  0  0  0  0  0  0  0  0  0  0  0
    5.3587    7.7661    4.6206 H   0  0  0  0  0  0  0  0  0  0  0  0
    5.9160    9.6178    6.2932 B   0  0  0  0  0  0  0  0  0  0  0  0
    6.7961    9.1666    6.8185 H   0  0  0  0  0  0  0  0  0  0  0  0
    4.0717   11.8031    6.0848 B   0  0  0  0  0  0  0  0  0  0  0  0
    3.7476   12.8086    6.4602 H   0  0  0  0  0  0  0  0  0  0  0  0
    5.7796   11.3687    5.9955 B   0  0  0  0  0  0  0  0  0  0  0  0
    6.5860   12.0806    6.3102 H   0  0  0  0  0  0  0  0  0  0  0  0
    6.0246    6.8669    9.1736 C   0  0  0  0  0  0  0  0  0  0  0  0
    5.5711    7.3556    9.8504 H   0  0  0  0  0  0  0  0  0  0  0  0
    5.4628    6.7789    7.9065 C   0  0  0  0  0  0  0  0  0  0  0  0
    7.2564   12.3270    9.2695 C   0  0  0  0  0  0  0  0  0  0  0  0
    7.6574   11.4695    9.3544 H   0  0  0  0  0  0  0  0  0  0  0  0
    6.0979   14.8271    9.0445 C   0  0  0  0  0  0  0  0  0  0  0  0
    5.7126   15.6917    8.9761 H   0  0  0  0  0  0  0  0  0  0  0  0
    8.0322   13.4671    9.4162 C   0  0  0  0  0  0  0  0  0  0  0  0
    8.9609   13.4104    9.6053 H   0  0  0  0  0  0  0  0  0  0  0  0
    7.4088   14.6806    9.2794 C   0  0  0  0  0  0  0  0  0  0  0  0
    1.1746   11.7244   11.1993 C   0  0  0  0  0  0  0  0  0  0  0  0
    4.2906    9.0575    6.4708 C   0  0  0  0  0  0  0  0  0  0  0  0
    4.7085   10.5986    7.0839 C   0  0  0  0  0  0  0  0  0  0  0  0
    7.8577    5.5649    8.4689 C   0  0  0  0  0  0  0  0  0  0  0  0
    2.7645    6.6130    6.7862 C   0  0  0  0  0  0  0  0  0  0  0  0
    7.3422    5.4392    7.2173 C   0  0  0  0  0  0  0  0  0  0  0  0
    7.8010    4.9382    6.5536 H   0  0  0  0  0  0  0  0  0  0  0  0
    7.2234    6.2604    9.4691 C   0  0  0  0  0  0  0  0  0  0  0  0
    7.6012    6.3212   10.3382 H   0  0  0  0  0  0  0  0  0  0  0  0
    6.1479    6.0489    6.9306 C   0  0  0  0  0  0  0  0  0  0  0  0
    5.7815    5.9741    6.0576 H   0  0  0  0  0  0  0  0  0  0  0  0
    3.4063   11.2203    9.7062 C   0  0  0  0  0  0  0  0  0  0  0  0
    1.4717    6.5585    7.3353 C   0  0  0  0  0  0  0  0  0  0  0  0
    1.2673    7.0727    8.1085 H   0  0  0  0  0  0  0  0  0  0  0  0
    3.0153    5.8432    5.6504 C   0  0  0  0  0  0  0  0  0  0  0  0
    3.8795    5.8666    5.2561 H   0  0  0  0  0  0  0  0  0  0  0  0
    2.0489    5.0546    5.0924 C   0  0  0  0  0  0  0  0  0  0  0  0
    2.2359    4.5246    4.3270 H   0  0  0  0  0  0  0  0  0  0  0  0
    5.9035   12.4269    9.0015 C   0  0  0  0  0  0  0  0  0  0  0  0
    0.8078    5.0492    5.6603 C   0  0  0  0  0  0  0  0  0  0  0  0
    0.5017    5.7712    6.7663 C   0  0  0  0  0  0  0  0  0  0  0  0
   -0.3701    5.7348    7.1408 H   0  0  0  0  0  0  0  0  0  0  0  0
    3.2609   10.7251   10.9908 C   0  0  0  0  0  0  0  0  0  0  0  0
    3.9568   10.1910   11.3558 H   0  0  0  0  0  0  0  0  0  0  0  0
    2.3704   11.9850    9.1923 C   0  0  0  0  0  0  0  0  0  0  0  0
    2.4456   12.3402    8.3143 H   0  0  0  0  0  0  0  0  0  0  0  0
    5.3208   13.7033    8.9045 C   0  0  0  0  0  0  0  0  0  0  0  0
    4.3888   13.7901    8.7412 H   0  0  0  0  0  0  0  0  0  0  0  0
    2.1600   10.9751   11.7506 C   0  0  0  0  0  0  0  0  0  0  0  0
    2.0841   10.6344   12.6348 H   0  0  0  0  0  0  0  0  0  0  0  0
    1.2407   12.2428    9.9223 C   0  0  0  0  0  0  0  0  0  0  0  0
    0.5298   12.7611    9.5630 H   0  0  0  0  0  0  0  0  0  0  0  0
    0.0315   11.9369   11.9028 F   0  0  0  0  0  0  0  0  0  0  0  0
    8.1628   15.8071    9.3864 F   0  0  0  0  0  0  0  0  0  0  0  0
    9.0334    4.9655    8.7578 F   0  0  0  0  0  0  0  0  0  0  0  0
   -0.1473    4.2519    5.1255 F   0  0  0  0  0  0  0  0  0  0  0  0
    3.3355    8.1905    8.9001 O   0  0  0  0  0  0  0  0  0  0  0  0
    5.7397    9.7880    9.5209 O   0  0  0  0  0  0  0  0  0  0  0  0
    3.9261    7.6568    7.6549 P   0  0  0  0  0  0  0  0  0  0  0  0
    4.9735   10.8918    8.9231 P   0  0  0  0  0  0  0  0  0  0  0  0
  1  2  1  0  0  0  0
  3  1  1  0  0  0  0
  4  3  1  0  0  0  0
  5  1  1  0  0  0  0
  6  5  1  0  0  0  0
  7  3  1  0  0  0  0
  8  7  1  0  0  0  0
  9  1  1  0  0  0  0
 10  9  1  0  0  0  0
 11  1  1  0  0  0  0
 12 11  1  0  0  0  0
 13  3  1  0  0  0  0
 14 13  1  0  0  0  0
 15  7  1  0  0  0  0
 16 15  1  0  0  0  0
 17  1  1  0  0  0  0
 18 17  1  0  0  0  0
 19  5  1  0  0  0  0
 20 19  1  0  0  0  0
 21 22  1  0  0  0  0
 23 21  4  0  0  0  0
 24 25  1  0  0  0  0
 26 27  1  0  0  0  0
 28 24  4  0  0  0  0
 29 28  1  0  0  0  0
 30 26  4  0  0  0  0
 31 59  4  0  0  0  0
 32  9  1  0  0  0  0
 33  9  1  0  0  0  0
 34 36  4  0  0  0  0
 35 43  4  0  0  0  0
 36 37  1  0  0  0  0
 38 21  4  0  0  0  0
 39 38  1  0  0  0  0
 40 23  4  0  0  0  0
 41 40  1  0  0  0  0
 42 53  4  0  0  0  0
 43 44  1  0  0  0  0
 45 35  4  0  0  0  0
 46 45  1  0  0  0  0
 47 45  4  0  0  0  0
 48 47  1  0  0  0  0
 49 24  4  0  0  0  0
 50 47  4  0  0  0  0
 51 43  4  0  0  0  0
 52 51  1  0  0  0  0
 53 54  1  0  0  0  0
 55 42  4  0  0  0  0
 56 55  1  0  0  0  0
 57 26  4  0  0  0  0
 58 57  1  0  0  0  0
 59 53  4  0  0  0  0
 60 59  1  0  0  0  0
 61 31  4  0  0  0  0
 62 61  1  0  0  0  0
 63 31  1  0  0  0  0
 64 30  1  0  0  0  0
 65 34  1  0  0  0  0
 66 50  1  0  0  0  0
 67 69  2  0  0  0  0
 68 70  2  0  0  0  0
 69 23  1  0  0  0  0
 70 33  1  0  0  0  0
  3  5  1  0  0  0  0
  3 11  1  0  0  0  0
  5  7  1  0  0  0  0
  5 17  1  0  0  0  0
  7 13  1  0  0  0  0
  7 19  1  0  0  0  0
  9 11  1  0  0  0  0
  9 17  1  0  0  0  0
 11 13  1  0  0  0  0
 11 32  1  0  0  0  0
 13 15  1  0  0  0  0
 13 32  1  0  0  0  0
 15 19  1  0  0  0  0
 15 32  1  0  0  0  0
 15 33  1  0  0  0  0
 17 19  1  0  0  0  0
 17 33  1  0  0  0  0
 19 33  1  0  0  0  0
 28 30  4  0  0  0  0
 32 33  1  0  0  0  0
 32 69  1  0  0  0  0
 34 38  4  0  0  0  0
 35 69  1  0  0  0  0
 36 40  4  0  0  0  0
 42 70  1  0  0  0  0
 49 57  4  0  0  0  0
 49 70  1  0  0  0  0
 50 51  4  0  0  0  0
 55 61  4  0  0  0  0
M  END
$$$$
BIVSEI

From CSD data. Using bond type 'Any'. No disordered atoms. Largest molecule.
 69 91  0  0  0  0  0  0  0  0999 V2000
    5.4928    2.4849    9.2594 B   0  0  0  0  0  0  0  0  0  0  0  0
    6.5130    2.2744    9.6725 H   0  0  0  0  0  0  0  0  0  0  0  0
    2.8249    3.4954    9.7783 B   0  0  0  0  0  0  0  0  0  0  0  0
    2.1247    3.9325   10.5361 H   0  0  0  0  0  0  0  0  0  0  0  0
    4.3065    1.2032    8.8838 B   0  0  0  0  0  0  0  0  0  0  0  0
    4.5586    0.1228    9.0393 H   0  0  0  0  0  0  0  0  0  0  0  0
    2.6699    1.8166    9.1937 B   0  0  0  0  0  0  0  0  0  0  0  0
    1.8487    1.1437    9.5487 H   0  0  0  0  0  0  0  0  0  0  0  0
    3.5336    4.4470    8.4351 B   0  0  0  0  0  0  0  0  0  0  0  0
    3.2845    5.5293    8.2902 H   0  0  0  0  0  0  0  0  0  0  0  0
    5.1679    3.8280    8.1194 B   0  0  0  0  0  0  0  0  0  0  0  0
    5.9947    4.4980    7.7706 H   0  0  0  0  0  0  0  0  0  0  0  0
    5.0205    2.1529    7.5742 B   0  0  0  0  0  0  0  0  0  0  0  0
    5.7487    1.7002    6.8527 H   0  0  0  0  0  0  0  0  0  0  0  0
    2.3554    3.1808    8.0901 B   0  0  0  0  0  0  0  0  0  0  0  0
    1.3251    3.4171    7.7193 H   0  0  0  0  0  0  0  0  0  0  0  0
    3.2856    1.7607    7.5376 B   0  0  0  0  0  0  0  0  0  0  0  0
    3.8194    3.3755    7.0524 B   0  0  0  0  0  0  0  0  0  0  0  0
    4.0217    2.2978   10.1481 C   0  0  0  0  0  0  0  0  0  0  0  0
    4.5107    3.8549    9.7067 C   0  0  0  0  0  0  0  0  0  0  0  0
    2.8387    0.5261   12.1067 C   0  0  0  0  0  0  0  0  0  0  0  0
    1.6016    0.8938   12.6095 C   0  0  0  0  0  0  0  0  0  0  0  0
    1.4395    1.7972   12.8530 H   0  0  0  0  0  0  0  0  0  0  0  0
    0.5991   -0.0539   12.7600 C   0  0  0  0  0  0  0  0  0  0  0  0
   -0.2562    0.1998   13.0874 H   0  0  0  0  0  0  0  0  0  0  0  0
    0.8578   -1.3725   12.4282 C   0  0  0  0  0  0  0  0  0  0  0  0
    0.1789   -2.0263   12.5411 H   0  0  0  0  0  0  0  0  0  0  0  0
    2.0843   -1.7467   11.9386 C   0  0  0  0  0  0  0  0  0  0  0  0
    2.2458   -2.6556   11.7138 H   0  0  0  0  0  0  0  0  0  0  0  0
    3.0831   -0.8101   11.7705 C   0  0  0  0  0  0  0  0  0  0  0  0
    3.9310   -1.0697   11.4290 H   0  0  0  0  0  0  0  0  0  0  0  0
    5.6639    1.2008   12.4107 C   0  0  0  0  0  0  0  0  0  0  0  0
    6.1829    1.7221   13.5829 C   0  0  0  0  0  0  0  0  0  0  0  0
    5.7281    2.4188   14.0412 H   0  0  0  0  0  0  0  0  0  0  0  0
    7.3784    1.2164   14.0828 C   0  0  0  0  0  0  0  0  0  0  0  0
    7.7294    1.5615   14.8952 H   0  0  0  0  0  0  0  0  0  0  0  0
    8.0553    0.2255   13.4207 C   0  0  0  0  0  0  0  0  0  0  0  0
    8.8592   -0.1284   13.7837 H   0  0  0  0  0  0  0  0  0  0  0  0
    7.5684   -0.2522   12.2338 C   0  0  0  0  0  0  0  0  0  0  0  0
    8.0569   -0.9150   11.7605 H   0  0  0  0  0  0  0  0  0  0  0  0
    6.3659    0.2184   11.7106 C   0  0  0  0  0  0  0  0  0  0  0  0
    6.0299   -0.1236   10.8908 H   0  0  0  0  0  0  0  0  0  0  0  0
    4.0904    5.8684   11.9225 C   0  0  0  0  0  0  0  0  0  0  0  0
    2.9447    6.4702   11.3861 C   0  0  0  0  0  0  0  0  0  0  0  0
    2.7369    6.3685   10.4652 H   0  0  0  0  0  0  0  0  0  0  0  0
    2.1151    7.2173   12.2148 C   0  0  0  0  0  0  0  0  0  0  0  0
    1.3424    7.6360   11.8540 H   0  0  0  0  0  0  0  0  0  0  0  0
    2.3983    7.3535   13.5288 C   0  0  0  0  0  0  0  0  0  0  0  0
    1.8043    7.8480   14.0818 H   0  0  0  0  0  0  0  0  0  0  0  0
    3.5027    6.8076   14.0784 C   0  0  0  0  0  0  0  0  0  0  0  0
    3.6962    6.9476   14.9973 H   0  0  0  0  0  0  0  0  0  0  0  0
    4.3909    6.0070   13.2658 C   0  0  0  0  0  0  0  0  0  0  0  0
    5.1569    5.5890   13.6416 H   0  0  0  0  0  0  0  0  0  0  0  0
    6.1479    6.2222    9.9245 C   0  0  0  0  0  0  0  0  0  0  0  0
    5.4830    7.2863    9.3033 C   0  0  0  0  0  0  0  0  0  0  0  0
    4.5433    7.3873    9.3958 H   0  0  0  0  0  0  0  0  0  0  0  0
    6.2185    8.1905    8.5520 C   0  0  0  0  0  0  0  0  0  0  0  0
    5.7754    8.9062    8.1120 H   0  0  0  0  0  0  0  0  0  0  0  0
    7.5878    8.0593    8.4395 C   0  0  0  0  0  0  0  0  0  0  0  0
    8.0770    8.6826    7.9139 H   0  0  0  0  0  0  0  0  0  0  0  0
    8.2551    7.0381    9.0767 C   0  0  0  0  0  0  0  0  0  0  0  0
    9.2001    6.9670    9.0133 H   0  0  0  0  0  0  0  0  0  0  0  0
    7.5250    6.1064    9.8192 C   0  0  0  0  0  0  0  0  0  0  0  0
    7.9745    5.3910   10.2549 H   0  0  0  0  0  0  0  0  0  0  0  0
    2.3703    0.4296    6.0903 I   0  0  0  0  0  0  0  0  0  0  0  0
    3.6399    3.0296   12.7536 O   0  0  0  0  0  0  0  0  0  0  0  0
    6.3019    4.2086   11.7486 O   0  0  0  0  0  0  0  0  0  0  0  0
    4.0523    1.8535   11.9668 P   0  0  0  0  0  0  0  0  0  0  0  0
    5.3378    4.9811   10.9562 P   0  0  0  0  0  0  0  0  0  0  0  0
  1  2  1  0  0  0  0
  3  4  1  0  0  0  0
  5  1  1  0  0  0  0
  6  5  1  0  0  0  0
  7  3  1  0  0  0  0
  8  7  1  0  0  0  0
  9  3  1  0  0  0  0
 10  9  1  0  0  0  0
 11  1  1  0  0  0  0
 12 11  1  0  0  0  0
 13  1  1  0  0  0  0
 14 13  1  0  0  0  0
 15  3  1  0  0  0  0
 16 15  1  0  0  0  0
 17  5  1  0  0  0  0
 18  9  1  0  0  0  0
 19  1  1  0  0  0  0
 20  1  1  0  0  0  0
 21 22  4  0  0  0  0
 22 23  1  0  0  0  0
 24 22  4  0  0  0  0
 25 24  1  0  0  0  0
 26 24  4  0  0  0  0
 27 26  1  0  0  0  0
 28 26  4  0  0  0  0
 29 28  1  0  0  0  0
 30 21  4  0  0  0  0
 31 30  1  0  0  0  0
 32 33  4  0  0  0  0
 33 34  1  0  0  0  0
 35 33  4  0  0  0  0
 36 35  1  0  0  0  0
 37 35  4  0  0  0  0
 38 37  1  0  0  0  0
 39 37  4  0  0  0  0
 40 39  1  0  0  0  0
 41 32  4  0  0  0  0
 42 41  1  0  0  0  0
 43 44  4  0  0  0  0
 44 45  1  0  0  0  0
 46 44  4  0  0  0  0
 47 46  1  0  0  0  0
 48 46  4  0  0  0  0
 49 48  1  0  0  0  0
 50 48  4  0  0  0  0
 51 50  1  0  0  0  0
 52 43  4  0  0  0  0
 53 52  1  0  0  0  0
 54 55  4  0  0  0  0
 55 56  1  0  0  0  0
 57 55  4  0  0  0  0
 58 57  1  0  0  0  0
 59 57  4  0  0  0  0
 60 59  1  0  0  0  0
 61 59  4  0  0  0  0
 62 61  1  0  0  0  0
 63 54  4  0  0  0  0
 64 63  1  0  0  0  0
 65 17  1  0  0  0  0
 66 68  2  0  0  0  0
 67 69  2  0  0  0  0
 68 19  1  0  0  0  0
 69 20  1  0  0  0  0
  3 19  1  0  0  0  0
  3 20  1  0  0  0  0
  5  7  1  0  0  0  0
  5 13  1  0  0  0  0
  5 19  1  0  0  0  0
  7 15  1  0  0  0  0
  7 17  1  0  0  0  0
  7 19  1  0  0  0  0
  9 11  1  0  0  0  0
  9 15  1  0  0  0  0
  9 20  1  0  0  0  0
 11 13  1  0  0  0  0
 11 18  1  0  0  0  0
 11 20  1  0  0  0  0
 13 17  1  0  0  0  0
 13 18  1  0  0  0  0
 15 17  1  0  0  0  0
 15 18  1  0  0  0  0
 17 18  1  0  0  0  0
 19 20  1  0  0  0  0
 21 68  1  0  0  0  0
 28 30  4  0  0  0  0
 32 68  1  0  0  0  0
 39 41  4  0  0  0  0
 43 69  1  0  0  0  0
 50 52  4  0  0  0  0
 54 69  1  0  0  0  0
 61 63  4  0  0  0  0
M  END
$$$$
BIVSOS

From CSD data. Using bond type 'Any'. No disordered atoms. Largest molecule.
 84106  0  0  0  0  0  0  0  0999 V2000
    1.7123   23.8635    4.3516 P   0  0  0  0  0  0  0  0  0  0  0  0
   -1.1376   24.2611    6.1206 P   0  0  0  0  0  0  0  0  0  0  0  0
   -3.5125   20.3671    9.9967 O   0  0  0  0  0  0  0  0  0  0  0  0
    6.6255   20.7735    2.9318 O   0  0  0  0  0  0  0  0  0  0  0  0
   -4.7034   29.0033    5.3404 O   0  0  0  0  0  0  0  0  0  0  0  0
    0.9274   29.1013    1.5764 O   0  0  0  0  0  0  0  0  0  0  0  0
   -2.9533   21.2174    9.0807 C   0  0  0  0  0  0  0  0  0  0  0  0
   -3.8720   27.9719    5.6545 C   0  0  0  0  0  0  0  0  0  0  0  0
    5.7266   22.8431    3.8478 C   0  0  0  0  0  0  0  0  0  0  0  0
    6.5928   23.2098    3.9740 H   0  0  0  0  0  0  0  0  0  0  0  0
   -2.5910   26.5852    7.1445 C   0  0  0  0  0  0  0  0  0  0  0  0
   -2.3032   26.3850    8.0275 H   0  0  0  0  0  0  0  0  0  0  0  0
   -1.9186   23.1349    7.3163 C   0  0  0  0  0  0  0  0  0  0  0  0
   -2.1563   25.7777    6.0896 C   0  0  0  0  0  0  0  0  0  0  0  0
    0.4330   25.7920    2.9098 C   0  0  0  0  0  0  0  0  0  0  0  0
   -0.2915   25.1839    2.9978 H   0  0  0  0  0  0  0  0  0  0  0  0
   -2.6227   26.1111    4.8070 C   0  0  0  0  0  0  0  0  0  0  0  0
   -2.3522   25.5803    4.0662 H   0  0  0  0  0  0  0  0  0  0  0  0
   -3.3374   22.5462    9.1882 C   0  0  0  0  0  0  0  0  0  0  0  0
   -3.9504   22.8055    9.8638 H   0  0  0  0  0  0  0  0  0  0  0  0
    4.6056   23.5824    4.1898 C   0  0  0  0  0  0  0  0  0  0  0  0
    4.7138   24.4585    4.5454 H   0  0  0  0  0  0  0  0  0  0  0  0
   -2.0729   20.8286    8.0842 C   0  0  0  0  0  0  0  0  0  0  0  0
   -1.8097   19.9196    8.0004 H   0  0  0  0  0  0  0  0  0  0  0  0
    1.6940   25.4257    3.3974 C   0  0  0  0  0  0  0  0  0  0  0  0
    3.3162   23.0639    4.0205 C   0  0  0  0  0  0  0  0  0  0  0  0
    1.2574   27.9045    2.1597 C   0  0  0  0  0  0  0  0  0  0  0  0
   -3.4296   27.6710    6.9438 C   0  0  0  0  0  0  0  0  0  0  0  0
   -3.7015   28.2085    7.6795 H   0  0  0  0  0  0  0  0  0  0  0  0
   -3.4628   27.1834    4.5920 C   0  0  0  0  0  0  0  0  0  0  0  0
   -3.7611   27.3800    3.7124 H   0  0  0  0  0  0  0  0  0  0  0  0
    1.9233   24.5410    6.1091 C   0  0  0  0  0  0  0  0  0  0  0  0
    2.7401   26.3169    3.1824 C   0  0  0  0  0  0  0  0  0  0  0  0
    3.6163   26.0798    3.4626 H   0  0  0  0  0  0  0  0  0  0  0  0
    5.5863   21.5707    3.3221 C   0  0  0  0  0  0  0  0  0  0  0  0
    3.2052   21.7696    3.5007 C   0  0  0  0  0  0  0  0  0  0  0  0
    2.3441   21.3863    3.3915 H   0  0  0  0  0  0  0  0  0  0  0  0
    0.4359   24.7166    7.0522 C   0  0  0  0  0  0  0  0  0  0  0  0
    4.3183   21.0391    3.1417 C   0  0  0  0  0  0  0  0  0  0  0  0
    4.2164   20.1693    2.7701 H   0  0  0  0  0  0  0  0  0  0  0  0
   -1.5848   21.7891    7.2114 C   0  0  0  0  0  0  0  0  0  0  0  0
   -0.9982   21.5171    6.5146 H   0  0  0  0  0  0  0  0  0  0  0  0
    0.2152   27.0082    2.3061 C   0  0  0  0  0  0  0  0  0  0  0  0
   -0.6516   27.2334    1.9887 H   0  0  0  0  0  0  0  0  0  0  0  0
   -2.8333   23.4913    8.3204 C   0  0  0  0  0  0  0  0  0  0  0  0
   -3.1084   24.3951    8.4025 H   0  0  0  0  0  0  0  0  0  0  0  0
   -3.0930   19.0023    9.9840 C   0  0  0  0  0  0  0  0  0  0  0  0
   -3.2816   18.6114    9.1061 H   0  0  0  0  0  0  0  0  0  0  0  0
   -3.5787   18.5044   10.6748 H   0  0  0  0  0  0  0  0  0  0  0  0
   -2.1309   18.9563   10.1635 H   0  0  0  0  0  0  0  0  0  0  0  0
    2.5388   27.5442    2.5677 C   0  0  0  0  0  0  0  0  0  0  0  0
    3.2687   28.1332    2.4272 H   0  0  0  0  0  0  0  0  0  0  0  0
    7.9502   21.2194    3.2611 C   0  0  0  0  0  0  0  0  0  0  0  0
    8.1303   22.0721    2.8090 H   0  0  0  0  0  0  0  0  0  0  0  0
    8.6036   20.5499    2.9682 H   0  0  0  0  0  0  0  0  0  0  0  0
    8.0224   21.3427    4.2305 H   0  0  0  0  0  0  0  0  0  0  0  0
   -5.1268   29.8485    6.4096 C   0  0  0  0  0  0  0  0  0  0  0  0
   -5.6382   29.3224    7.0590 H   0  0  0  0  0  0  0  0  0  0  0  0
   -5.6902   30.5672    6.0541 H   0  0  0  0  0  0  0  0  0  0  0  0
   -4.3416   30.2382    6.8499 H   0  0  0  0  0  0  0  0  0  0  0  0
    3.1675   24.0173    7.1445 B   0  0  0  0  0  0  0  0  0  0  0  0
    4.0064   23.3485    6.8219 H   0  0  0  0  0  0  0  0  0  0  0  0
    1.5039   23.4048    7.3324 B   0  0  0  0  0  0  0  0  0  0  0  0
    1.2247   22.3456    7.0945 H   0  0  0  0  0  0  0  0  0  0  0  0
    1.3140   26.1004    6.4951 B   0  0  0  0  0  0  0  0  0  0  0  0
    0.9084   26.7973    5.7196 H   0  0  0  0  0  0  0  0  0  0  0  0
    0.6385   25.9978    8.1528 B   0  0  0  0  0  0  0  0  0  0  0  0
   -0.1986   26.6586    8.4889 H   0  0  0  0  0  0  0  0  0  0  0  0
    0.7478   24.3126    8.6836 B   0  0  0  0  0  0  0  0  0  0  0  0
   -0.0074   23.8480    9.3694 H   0  0  0  0  0  0  0  0  0  0  0  0
    3.0475   25.7076    6.6077 B   0  0  0  0  0  0  0  0  0  0  0  0
    3.8028   26.1750    5.9237 H   0  0  0  0  0  0  0  0  0  0  0  0
    2.4671   23.8865    8.7589 B   0  0  0  0  0  0  0  0  0  0  0  0
    2.8416   23.1345    9.4997 H   0  0  0  0  0  0  0  0  0  0  0  0
    1.9488   30.0772    1.4172 C   0  0  0  0  0  0  0  0  0  0  0  0
    2.3242   30.3016    2.2934 H   0  0  0  0  0  0  0  0  0  0  0  0
    1.5702   30.8843    1.0066 H   0  0  0  0  0  0  0  0  0  0  0  0
    2.6563   29.7189    0.8415 H   0  0  0  0  0  0  0  0  0  0  0  0
    2.2669   26.6328    7.9056 B   0  0  0  0  0  0  0  0  0  0  0  0
    2.5052   27.7130    8.0783 H   0  0  0  0  0  0  0  0  0  0  0  0
    1.9375   25.5114    9.2415 B   0  0  0  0  0  0  0  0  0  0  0  0
    1.9740   25.8499   10.3091 H   0  0  0  0  0  0  0  0  0  0  0  0
    3.4148   25.3266    8.3009 B   0  0  0  0  0  0  0  0  0  0  0  0
    4.4210   25.5367    8.7454 H   0  0  0  0  0  0  0  0  0  0  0  0
  1 25  1  0  0  0  0
  2 13  1  0  0  0  0
  3  7  1  0  0  0  0
  4 35  1  0  0  0  0
  5  8  1  0  0  0  0
  6 27  1  0  0  0  0
  7 19  4  0  0  0  0
  8 28  4  0  0  0  0
  9 10  1  0  0  0  0
 11 12  1  0  0  0  0
 13 41  4  0  0  0  0
 14  2  1  0  0  0  0
 15 16  1  0  0  0  0
 17 14  4  0  0  0  0
 18 17  1  0  0  0  0
 19 20  1  0  0  0  0
 21  9  4  0  0  0  0
 22 21  1  0  0  0  0
 23  7  4  0  0  0  0
 24 23  1  0  0  0  0
 25 15  4  0  0  0  0
 26  1  1  0  0  0  0
 27 43  4  0  0  0  0
 28 11  4  0  0  0  0
 29 28  1  0  0  0  0
 30  8  4  0  0  0  0
 31 30  1  0  0  0  0
 32  1  1  0  0  0  0
 33 25  4  0  0  0  0
 34 33  1  0  0  0  0
 35  9  4  0  0  0  0
 36 26  4  0  0  0  0
 37 36  1  0  0  0  0
 38  2  1  0  0  0  0
 39 35  4  0  0  0  0
 40 39  1  0  0  0  0
 41 23  4  0  0  0  0
 42 41  1  0  0  0  0
 43 15  4  0  0  0  0
 44 43  1  0  0  0  0
 45 13  4  0  0  0  0
 46 45  1  0  0  0  0
 47  3  1  0  0  0  0
 48 47  1  0  0  0  0
 49 47  1  0  0  0  0
 50 47  1  0  0  0  0
 51 27  4  0  0  0  0
 52 51  1  0  0  0  0
 53  4  1  0  0  0  0
 54 53  1  0  0  0  0
 55 53  1  0  0  0  0
 56 53  1  0  0  0  0
 57  5  1  0  0  0  0
 58 57  1  0  0  0  0
 59 57  1  0  0  0  0
 60 57  1  0  0  0  0
 61 32  1  0  0  0  0
 62 61  1  0  0  0  0
 63 32  1  0  0  0  0
 64 63  1  0  0  0  0
 65 32  1  0  0  0  0
 66 65  1  0  0  0  0
 67 38  1  0  0  0  0
 68 67  1  0  0  0  0
 69 38  1  0  0  0  0
 70 69  1  0  0  0  0
 71 32  1  0  0  0  0
 72 71  1  0  0  0  0
 73 61  1  0  0  0  0
 74 73  1  0  0  0  0
 75  6  1  0  0  0  0
 76 75  1  0  0  0  0
 77 75  1  0  0  0  0
 78 75  1  0  0  0  0
 79 65  1  0  0  0  0
 80 79  1  0  0  0  0
 81 67  1  0  0  0  0
 82 81  1  0  0  0  0
 83 61  1  0  0  0  0
 84 83  1  0  0  0  0
 11 14  4  0  0  0  0
 17 30  4  0  0  0  0
 19 45  4  0  0  0  0
 21 26  4  0  0  0  0
 32 38  1  0  0  0  0
 33 51  4  0  0  0  0
 36 39  4  0  0  0  0
 38 63  1  0  0  0  0
 38 65  1  0  0  0  0
 61 63  1  0  0  0  0
 61 71  1  0  0  0  0
 63 69  1  0  0  0  0
 63 73  1  0  0  0  0
 65 67  1  0  0  0  0
 65 71  1  0  0  0  0
 67 69  1  0  0  0  0
 67 79  1  0  0  0  0
 69 73  1  0  0  0  0
 69 81  1  0  0  0  0
 71 79  1  0  0  0  0
 71 83  1  0  0  0  0
 73 81  1  0  0  0  0
 73 83  1  0  0  0  0
 79 81  1  0  0  0  0
 79 83  1  0  0  0  0
 81 83  1  0  0  0  0
M  END
$$$$
BIVTAF

From CSD data. Using bond type 'Any'. No disordered atoms. Largest molecule.
 76 98  0  0  0  0  0  0  0  0999 V2000
    9.1290   11.8585    9.3741 B   0  0  0  0  0  0  0  0  0  0  0  0
    8.8978   12.7908    8.7996 H   0  0  0  0  0  0  0  0  0  0  0  0
   10.8000   11.3387    9.7810 B   0  0  0  0  0  0  0  0  0  0  0  0
   11.6918   11.9481    9.4859 H   0  0  0  0  0  0  0  0  0  0  0  0
    9.2306    8.9739    9.3450 B   0  0  0  0  0  0  0  0  0  0  0  0
    9.0767    8.0381    8.7508 H   0  0  0  0  0  0  0  0  0  0  0  0
    8.0897   11.2530   10.6984 B   0  0  0  0  0  0  0  0  0  0  0  0
    7.1700   11.8105   11.0138 H   0  0  0  0  0  0  0  0  0  0  0  0
   10.8467    9.5851    9.7447 B   0  0  0  0  0  0  0  0  0  0  0  0
   11.7657    9.0314    9.4209 H   0  0  0  0  0  0  0  0  0  0  0  0
    9.7130   11.8585   11.0581 B   0  0  0  0  0  0  0  0  0  0  0  0
    9.8740   12.8219   11.6072 H   0  0  0  0  0  0  0  0  0  0  0  0
    8.1326    9.4937   10.6694 B   0  0  0  0  0  0  0  0  0  0  0  0
    7.2399    8.8830   10.9620 H   0  0  0  0  0  0  0  0  0  0  0  0
   10.7841   10.4419   11.2961 B   0  0  0  0  0  0  0  0  0  0  0  0
    9.7788    8.9624   11.0254 B   0  0  0  0  0  0  0  0  0  0  0  0
    9.9786    7.9981   11.5570 H   0  0  0  0  0  0  0  0  0  0  0  0
    9.0910   10.3962   11.8884 B   0  0  0  0  0  0  0  0  0  0  0  0
    9.8359   10.4579    8.6674 C   0  0  0  0  0  0  0  0  0  0  0  0
    8.2196   10.3822    9.2160 C   0  0  0  0  0  0  0  0  0  0  0  0
   11.9948   10.4590   12.3062 C   0  0  0  0  0  0  0  0  0  0  0  0
   12.7508   10.9357   11.9037 H   0  0  0  0  0  0  0  0  0  0  0  0
   12.2619    9.5384   12.5118 H   0  0  0  0  0  0  0  0  0  0  0  0
   11.7256   10.9126   13.1323 H   0  0  0  0  0  0  0  0  0  0  0  0
    8.7235   10.3419   13.4162 C   0  0  0  0  0  0  0  0  0  0  0  0
    7.8490   10.7586   13.5568 H   0  0  0  0  0  0  0  0  0  0  0  0
    9.4034   10.8220   13.9323 H   0  0  0  0  0  0  0  0  0  0  0  0
    8.6912    9.4063   13.7092 H   0  0  0  0  0  0  0  0  0  0  0  0
   11.9267    9.8792    6.7653 C   0  0  0  0  0  0  0  0  0  0  0  0
   12.1524    8.4940    6.5655 C   0  0  0  0  0  0  0  0  0  0  0  0
   11.4226    7.8935    6.4636 H   0  0  0  0  0  0  0  0  0  0  0  0
   13.4506    8.0342    6.5201 C   0  0  0  0  0  0  0  0  0  0  0  0
   13.6033    7.1069    6.3913 H   0  0  0  0  0  0  0  0  0  0  0  0
   14.5225    8.8653    6.6563 C   0  0  0  0  0  0  0  0  0  0  0  0
   15.4061    8.5178    6.6293 H   0  0  0  0  0  0  0  0  0  0  0  0
   14.3010   10.2363    6.8362 C   0  0  0  0  0  0  0  0  0  0  0  0
   15.0360   10.8300    6.9321 H   0  0  0  0  0  0  0  0  0  0  0  0
   13.0271   10.7132    6.8725 C   0  0  0  0  0  0  0  0  0  0  0  0
   12.8879   11.6462    6.9760 H   0  0  0  0  0  0  0  0  0  0  0  0
   10.0911   12.0345    6.1458 C   0  0  0  0  0  0  0  0  0  0  0  0
    9.2880   12.1670    5.0195 C   0  0  0  0  0  0  0  0  0  0  0  0
    8.8218   11.4099    4.6837 H   0  0  0  0  0  0  0  0  0  0  0  0
    9.1596   13.3837    4.3855 C   0  0  0  0  0  0  0  0  0  0  0  0
    8.5970   13.4671    3.6247 H   0  0  0  0  0  0  0  0  0  0  0  0
    9.8598   14.4861    4.8651 C   0  0  0  0  0  0  0  0  0  0  0  0
    9.7860   15.3241    4.4214 H   0  0  0  0  0  0  0  0  0  0  0  0
   10.6504   14.3690    5.9696 C   0  0  0  0  0  0  0  0  0  0  0  0
   11.1272   15.1236    6.2921 H   0  0  0  0  0  0  0  0  0  0  0  0
   10.7639   13.1523    6.6218 C   0  0  0  0  0  0  0  0  0  0  0  0
   11.3042   13.0843    7.4002 H   0  0  0  0  0  0  0  0  0  0  0  0
    6.4003    8.8293    7.4448 C   0  0  0  0  0  0  0  0  0  0  0  0
    6.1897    8.6928    6.0804 C   0  0  0  0  0  0  0  0  0  0  0  0
    6.3736    9.4225    5.5010 H   0  0  0  0  0  0  0  0  0  0  0  0
    5.7103    7.4998    5.5536 C   0  0  0  0  0  0  0  0  0  0  0  0
    5.5541    7.4190    4.6201 H   0  0  0  0  0  0  0  0  0  0  0  0
    5.4617    6.4271    6.3983 C   0  0  0  0  0  0  0  0  0  0  0  0
    5.1399    5.6055    6.0461 H   0  0  0  0  0  0  0  0  0  0  0  0
    5.6856    6.5627    7.7590 C   0  0  0  0  0  0  0  0  0  0  0  0
    5.5160    5.8263    8.3341 H   0  0  0  0  0  0  0  0  0  0  0  0
    6.1481    7.7380    8.2895 C   0  0  0  0  0  0  0  0  0  0  0  0
    6.2967    7.8136    9.2254 H   0  0  0  0  0  0  0  0  0  0  0  0
    5.4533   11.1388    8.9217 C   0  0  0  0  0  0  0  0  0  0  0  0
    4.6628   10.4448    9.8083 C   0  0  0  0  0  0  0  0  0  0  0  0
    4.8492    9.5311    9.9886 H   0  0  0  0  0  0  0  0  0  0  0  0
    3.5939   11.0645   10.4441 C   0  0  0  0  0  0  0  0  0  0  0  0
    3.0641   10.5778   11.0630 H   0  0  0  0  0  0  0  0  0  0  0  0
    3.3003   12.3812   10.1789 C   0  0  0  0  0  0  0  0  0  0  0  0
    2.5730   12.8104   10.6134 H   0  0  0  0  0  0  0  0  0  0  0  0
    4.0671   13.0667    9.2832 C   0  0  0  0  0  0  0  0  0  0  0  0
    3.8536   13.9691    9.0836 H   0  0  0  0  0  0  0  0  0  0  0  0
    5.1476   12.4754    8.6601 C   0  0  0  0  0  0  0  0  0  0  0  0
    5.6806   12.9769    8.0559 H   0  0  0  0  0  0  0  0  0  0  0  0
    9.3093    9.3763    6.1949 O   0  0  0  0  0  0  0  0  0  0  0  0
    7.2019   11.4087    6.8889 O   0  0  0  0  0  0  0  0  0  0  0  0
   10.1973   10.3754    6.8276 P   0  0  0  0  0  0  0  0  0  0  0  0
    6.8407   10.4873    7.9838 P   0  0  0  0  0  0  0  0  0  0  0  0
  1  2  1  0  0  0  0
  3  1  1  0  0  0  0
  4  3  1  0  0  0  0
  5  6  1  0  0  0  0
  7  1  1  0  0  0  0
  8  7  1  0  0  0  0
  9  3  1  0  0  0  0
 10  9  1  0  0  0  0
 11  1  1  0  0  0  0
 12 11  1  0  0  0  0
 13  5  1  0  0  0  0
 14 13  1  0  0  0  0
 15  3  1  0  0  0  0
 16  5  1  0  0  0  0
 17 16  1  0  0  0  0
 18  7  1  0  0  0  0
 19  1  1  0  0  0  0
 20  1  1  0  0  0  0
 21 15  1  0  0  0  0
 22 21  1  0  0  0  0
 23 21  1  0  0  0  0
 24 21  1  0  0  0  0
 25 18  1  0  0  0  0
 26 25  1  0  0  0  0
 27 25  1  0  0  0  0
 28 25  1  0  0  0  0
 29 30  4  0  0  0  0
 30 31  1  0  0  0  0
 32 30  4  0  0  0  0
 33 32  1  0  0  0  0
 34 32  4  0  0  0  0
 35 34  1  0  0  0  0
 36 34  4  0  0  0  0
 37 36  1  0  0  0  0
 38 29  4  0  0  0  0
 39 38  1  0  0  0  0
 40 41  4  0  0  0  0
 41 42  1  0  0  0  0
 43 41  4  0  0  0  0
 44 43  1  0  0  0  0
 45 43  4  0  0  0  0
 46 45  1  0  0  0  0
 47 45  4  0  0  0  0
 48 47  1  0  0  0  0
 49 40  4  0  0  0  0
 50 49  1  0  0  0  0
 51 52  4  0  0  0  0
 52 53  1  0  0  0  0
 54 52  4  0  0  0  0
 55 54  1  0  0  0  0
 56 54  4  0  0  0  0
 57 56  1  0  0  0  0
 58 56  4  0  0  0  0
 59 58  1  0  0  0  0
 60 51  4  0  0  0  0
 61 60  1  0  0  0  0
 62 63  4  0  0  0  0
 63 64  1  0  0  0  0
 65 63  4  0  0  0  0
 66 65  1  0  0  0  0
 67 65  4  0  0  0  0
 68 67  1  0  0  0  0
 69 67  4  0  0  0  0
 70 69  1  0  0  0  0
 71 62  4  0  0  0  0
 72 71  1  0  0  0  0
 73 75  2  0  0  0  0
 74 76  2  0  0  0  0
 75 19  1  0  0  0  0
 76 20  1  0  0  0  0
  3 11  1  0  0  0  0
  3 19  1  0  0  0  0
  5  9  1  0  0  0  0
  5 19  1  0  0  0  0
  5 20  1  0  0  0  0
  7 11  1  0  0  0  0
  7 13  1  0  0  0  0
  7 20  1  0  0  0  0
  9 15  1  0  0  0  0
  9 16  1  0  0  0  0
  9 19  1  0  0  0  0
 11 15  1  0  0  0  0
 11 18  1  0  0  0  0
 13 16  1  0  0  0  0
 13 18  1  0  0  0  0
 13 20  1  0  0  0  0
 15 16  1  0  0  0  0
 15 18  1  0  0  0  0
 16 18  1  0  0  0  0
 19 20  1  0  0  0  0
 29 75  1  0  0  0  0
 36 38  4  0  0  0  0
 40 75  1  0  0  0  0
 47 49  4  0  0  0  0
 51 76  1  0  0  0  0
 58 60  4  0  0  0  0
 62 76  1  0  0  0  0
 69 71  4  0  0  0  0
M  END
$$$$
BIVTIN

From CSD data. Using bond type 'Any'. No disordered atoms. Largest molecule.
 94116  0  0  0  0  0  0  0  0999 V2000
    8.1113    5.0942   25.4581 B   0  0  0  0  0  0  0  0  0  0  0  0
    8.2099    5.2695   26.5408 H   0  0  0  0  0  0  0  0  0  0  0  0
    7.9970    3.1500   23.4131 B   0  0  0  0  0  0  0  0  0  0  0  0
    8.0086    2.0744   23.1821 H   0  0  0  0  0  0  0  0  0  0  0  0
    6.5438    5.3241   24.5992 B   0  0  0  0  0  0  0  0  0  0  0  0
    6.4858    4.1016   23.2726 B   0  0  0  0  0  0  0  0  0  0  0  0
    6.9549    5.7855   22.9165 B   0  0  0  0  0  0  0  0  0  0  0  0
    7.8562    4.4149   22.1677 B   0  0  0  0  0  0  0  0  0  0  0  0
    8.7209    5.8672   22.7571 B   0  0  0  0  0  0  0  0  0  0  0  0
    9.4055    4.2307   23.0393 B   0  0  0  0  0  0  0  0  0  0  0  0
    9.4587    5.4798   24.3342 B   0  0  0  0  0  0  0  0  0  0  0  0
    7.9334    6.4060   24.2827 B   0  0  0  0  0  0  0  0  0  0  0  0
    8.9843    3.8315   24.6591 C   0  0  0  0  0  0  0  0  0  0  0  0
    7.2103    3.7584   24.8333 C   0  0  0  0  0  0  0  0  0  0  0  0
    5.1710    3.4489   22.6925 C   0  0  0  0  0  0  0  0  0  0  0  0
    5.2211    2.4948   22.7830 H   0  0  0  0  0  0  0  0  0  0  0  0
    5.0822    3.6789   21.7655 H   0  0  0  0  0  0  0  0  0  0  0  0
    4.4100    3.7764   23.1765 H   0  0  0  0  0  0  0  0  0  0  0  0
    5.2617    5.8066   25.3848 C   0  0  0  0  0  0  0  0  0  0  0  0
    4.5565    5.1656   25.2704 H   0  0  0  0  0  0  0  0  0  0  0  0
    4.9786    6.6575   25.0427 H   0  0  0  0  0  0  0  0  0  0  0  0
    5.4704    5.8900   26.3188 H   0  0  0  0  0  0  0  0  0  0  0  0
    5.9793    6.7289   22.0826 C   0  0  0  0  0  0  0  0  0  0  0  0
    5.8266    7.5414   22.5694 H   0  0  0  0  0  0  0  0  0  0  0  0
    5.1427    6.2788   21.9398 H   0  0  0  0  0  0  0  0  0  0  0  0
    6.3798    6.9335   21.2343 H   0  0  0  0  0  0  0  0  0  0  0  0
    9.4271    6.8793   21.7537 C   0  0  0  0  0  0  0  0  0  0  0  0
    8.8391    7.0614   21.0179 H   0  0  0  0  0  0  0  0  0  0  0  0
   10.2410    6.4890   21.4254 H   0  0  0  0  0  0  0  0  0  0  0  0
    9.6274    7.6984   22.2124 H   0  0  0  0  0  0  0  0  0  0  0  0
    7.9127    7.9215   24.7577 C   0  0  0  0  0  0  0  0  0  0  0  0
    7.0086    8.1873   24.9387 H   0  0  0  0  0  0  0  0  0  0  0  0
    8.2768    8.4785   24.0674 H   0  0  0  0  0  0  0  0  0  0  0  0
    8.4401    8.0138   25.5543 H   0  0  0  0  0  0  0  0  0  0  0  0
   10.7742    6.1992   24.8336 C   0  0  0  0  0  0  0  0  0  0  0  0
   10.7157    6.3523   25.7791 H   0  0  0  0  0  0  0  0  0  0  0  0
   10.8717    7.0387   24.3794 H   0  0  0  0  0  0  0  0  0  0  0  0
   11.5340    5.6431   24.6464 H   0  0  0  0  0  0  0  0  0  0  0  0
    7.7632    4.0763   20.6101 C   0  0  0  0  0  0  0  0  0  0  0  0
    7.0971    4.6338   20.2000 H   0  0  0  0  0  0  0  0  0  0  0  0
    7.5221    3.1546   20.4979 H   0  0  0  0  0  0  0  0  0  0  0  0
    8.6139    4.2374   20.1972 H   0  0  0  0  0  0  0  0  0  0  0  0
    6.8630    0.9753   26.1996 C   0  0  0  0  0  0  0  0  0  0  0  0
    6.8829    0.1030   25.1079 C   0  0  0  0  0  0  0  0  0  0  0  0
    6.7266    0.4293   24.2501 H   0  0  0  0  0  0  0  0  0  0  0  0
    7.1360   -1.2482   25.2968 C   0  0  0  0  0  0  0  0  0  0  0  0
    7.1761   -1.8223   24.5649 H   0  0  0  0  0  0  0  0  0  0  0  0
    7.3305   -1.7431   26.5832 C   0  0  0  0  0  0  0  0  0  0  0  0
    7.4871   -2.6506   26.7122 H   0  0  0  0  0  0  0  0  0  0  0  0
    7.2917   -0.8894   27.6743 C   0  0  0  0  0  0  0  0  0  0  0  0
    7.4121   -1.2271   28.5335 H   0  0  0  0  0  0  0  0  0  0  0  0
    7.0716    0.4727   27.4871 C   0  0  0  0  0  0  0  0  0  0  0  0
    7.0634    1.0473   28.2187 H   0  0  0  0  0  0  0  0  0  0  0  0
    6.8790    3.8640   28.5265 C   0  0  0  0  0  0  0  0  0  0  0  0
    7.7682    3.9436   28.2665 H   0  0  0  0  0  0  0  0  0  0  0  0
    5.9353    3.3405   27.6310 C   0  0  0  0  0  0  0  0  0  0  0  0
    4.6078    3.2102   28.0574 C   0  0  0  0  0  0  0  0  0  0  0  0
    3.9712    2.8595   27.4767 H   0  0  0  0  0  0  0  0  0  0  0  0
    4.2319    3.5999   29.3393 C   0  0  0  0  0  0  0  0  0  0  0  0
    3.3482    3.5067   29.6128 H   0  0  0  0  0  0  0  0  0  0  0  0
    5.1722    4.1262   30.2095 C   0  0  0  0  0  0  0  0  0  0  0  0
    4.9212    4.3855   31.0659 H   0  0  0  0  0  0  0  0  0  0  0  0
    6.4905    4.2655   29.7989 C   0  0  0  0  0  0  0  0  0  0  0  0
    7.1187    4.6300   30.3801 H   0  0  0  0  0  0  0  0  0  0  0  0
   10.1953    1.0502   25.1740 C   0  0  0  0  0  0  0  0  0  0  0  0
   10.3396    0.6475   23.8465 C   0  0  0  0  0  0  0  0  0  0  0  0
   10.2304    1.2639   23.1596 H   0  0  0  0  0  0  0  0  0  0  0  0
   10.6487   -0.6804   23.5517 C   0  0  0  0  0  0  0  0  0  0  0  0
   10.7380   -0.9498   22.6649 H   0  0  0  0  0  0  0  0  0  0  0  0
   10.8250   -1.6049   24.5767 C   0  0  0  0  0  0  0  0  0  0  0  0
   11.0345   -2.4885   24.3738 H   0  0  0  0  0  0  0  0  0  0  0  0
   10.6903   -1.2137   25.8991 C   0  0  0  0  0  0  0  0  0  0  0  0
   10.8103   -1.8312   26.5858 H   0  0  0  0  0  0  0  0  0  0  0  0
   10.3755    0.1063   26.1945 C   0  0  0  0  0  0  0  0  0  0  0  0
   10.2829    0.3673   27.0832 H   0  0  0  0  0  0  0  0  0  0  0  0
   11.5259    3.4205   26.1321 C   0  0  0  0  0  0  0  0  0  0  0  0
   12.6528    3.0804   25.3856 C   0  0  0  0  0  0  0  0  0  0  0  0
   12.5846    2.4669   24.6914 H   0  0  0  0  0  0  0  0  0  0  0  0
   13.8838    3.6641   25.6852 C   0  0  0  0  0  0  0  0  0  0  0  0
   14.6387    3.4383   25.1917 H   0  0  0  0  0  0  0  0  0  0  0  0
   12.8748    4.8848   27.4961 C   0  0  0  0  0  0  0  0  0  0  0  0
   12.9549    5.4822   28.2047 H   0  0  0  0  0  0  0  0  0  0  0  0
   11.6485    4.2998   27.2170 C   0  0  0  0  0  0  0  0  0  0  0  0
   10.9098    4.4907   27.7494 H   0  0  0  0  0  0  0  0  0  0  0  0
   13.9808    4.5801   26.7198 C   0  0  0  0  0  0  0  0  0  0  0  0
   14.7953    4.9934   26.8949 H   0  0  0  0  0  0  0  0  0  0  0  0
   10.7209    3.7193   22.3291 C   0  0  0  0  0  0  0  0  0  0  0  0
   11.3151    3.3484   22.9853 H   0  0  0  0  0  0  0  0  0  0  0  0
   11.1517    4.4539   21.8864 H   0  0  0  0  0  0  0  0  0  0  0  0
   10.4943    3.0457   21.6840 H   0  0  0  0  0  0  0  0  0  0  0  0
    9.1247    2.6698   27.1057 O   0  0  0  0  0  0  0  0  0  0  0  0
    4.8755    2.5082   25.2912 O   0  0  0  0  0  0  0  0  0  0  0  0
    9.8970    2.7105   25.8429 P   0  0  0  0  0  0  0  0  0  0  0  0
    6.1894    2.6292   25.9728 P   0  0  0  0  0  0  0  0  0  0  0  0
  1  2  1  0  0  0  0
  3  4  1  0  0  0  0
  5  1  1  0  0  0  0
  6  3  1  0  0  0  0
  7  5  1  0  0  0  0
  8  3  1  0  0  0  0
  9  7  1  0  0  0  0
 10  3  1  0  0  0  0
 11  1  1  0  0  0  0
 12  1  1  0  0  0  0
 13  1  1  0  0  0  0
 14  1  1  0  0  0  0
 15  6  1  0  0  0  0
 16 15  1  0  0  0  0
 17 15  1  0  0  0  0
 18 15  1  0  0  0  0
 19  5  1  0  0  0  0
 20 19  1  0  0  0  0
 21 19  1  0  0  0  0
 22 19  1  0  0  0  0
 23  7  1  0  0  0  0
 24 23  1  0  0  0  0
 25 23  1  0  0  0  0
 26 23  1  0  0  0  0
 27  9  1  0  0  0  0
 28 27  1  0  0  0  0
 29 27  1  0  0  0  0
 30 27  1  0  0  0  0
 31 12  1  0  0  0  0
 32 31  1  0  0  0  0
 33 31  1  0  0  0  0
 34 31  1  0  0  0  0
 35 11  1  0  0  0  0
 36 35  1  0  0  0  0
 37 35  1  0  0  0  0
 38 35  1  0  0  0  0
 39  8  1  0  0  0  0
 40 39  1  0  0  0  0
 41 39  1  0  0  0  0
 42 39  1  0  0  0  0
 43 44  4  0  0  0  0
 44 45  1  0  0  0  0
 46 44  4  0  0  0  0
 47 46  1  0  0  0  0
 48 46  4  0  0  0  0
 49 48  1  0  0  0  0
 50 48  4  0  0  0  0
 51 50  1  0  0  0  0
 52 43  4  0  0  0  0
 53 52  1  0  0  0  0
 54 55  1  0  0  0  0
 56 54  4  0  0  0  0
 57 56  4  0  0  0  0
 58 57  1  0  0  0  0
 59 57  4  0  0  0  0
 60 59  1  0  0  0  0
 61 59  4  0  0  0  0
 62 61  1  0  0  0  0
 63 54  4  0  0  0  0
 64 63  1  0  0  0  0
 65 66  4  0  0  0  0
 66 67  1  0  0  0  0
 68 66  4  0  0  0  0
 69 68  1  0  0  0  0
 70 68  4  0  0  0  0
 71 70  1  0  0  0  0
 72 70  4  0  0  0  0
 73 72  1  0  0  0  0
 74 65  4  0  0  0  0
 75 74  1  0  0  0  0
 76 77  4  0  0  0  0
 77 78  1  0  0  0  0
 79 77  4  0  0  0  0
 80 79  1  0  0  0  0
 81 82  1  0  0  0  0
 83 76  4  0  0  0  0
 84 83  1  0  0  0  0
 85 79  4  0  0  0  0
 86 85  1  0  0  0  0
 87 10  1  0  0  0  0
 88 87  1  0  0  0  0
 89 87  1  0  0  0  0
 90 87  1  0  0  0  0
 91 93  2  0  0  0  0
 92 94  2  0  0  0  0
 93 13  1  0  0  0  0
 94 14  1  0  0  0  0
  3 13  1  0  0  0  0
  3 14  1  0  0  0  0
  5  6  1  0  0  0  0
  5 12  1  0  0  0  0
  5 14  1  0  0  0  0
  6  7  1  0  0  0  0
  6  8  1  0  0  0  0
  6 14  1  0  0  0  0
  7  8  1  0  0  0  0
  7 12  1  0  0  0  0
  8  9  1  0  0  0  0
  8 10  1  0  0  0  0
  9 10  1  0  0  0  0
  9 11  1  0  0  0  0
  9 12  1  0  0  0  0
 10 11  1  0  0  0  0
 10 13  1  0  0  0  0
 11 12  1  0  0  0  0
 11 13  1  0  0  0  0
 13 14  1  0  0  0  0
 43 94  1  0  0  0  0
 50 52  4  0  0  0  0
 56 94  1  0  0  0  0
 61 63  4  0  0  0  0
 65 93  1  0  0  0  0
 72 74  4  0  0  0  0
 76 93  1  0  0  0  0
 81 83  4  0  0  0  0
 81 85  4  0  0  0  0
M  END
$$$$
BIVTOT

From CSD data. Using bond type 'Any'. No disordered atoms. Largest molecule.
 70 92  0  0  0  0  0  0  0  0999 V2000
    2.9563    5.8542   12.5122 B   0  0  0  0  0  0  0  0  0  0  0  0
    1.3049    5.1971   10.2702 B   0  0  0  0  0  0  0  0  0  0  0  0
    1.0462    4.4982    9.4343 H   0  0  0  0  0  0  0  0  0  0  0  0
    0.2656    5.4012   11.6836 B   0  0  0  0  0  0  0  0  0  0  0  0
   -0.6862    4.8232   11.7994 H   0  0  0  0  0  0  0  0  0  0  0  0
    3.1130    7.1641   11.3425 B   0  0  0  0  0  0  0  0  0  0  0  0
    4.0604    7.7495   11.2260 H   0  0  0  0  0  0  0  0  0  0  0  0
    2.9864    5.4844   10.7808 B   0  0  0  0  0  0  0  0  0  0  0  0
    3.8491    4.9643   10.2909 H   0  0  0  0  0  0  0  0  0  0  0  0
    2.0580    7.3655   12.7466 B   0  0  0  0  0  0  0  0  0  0  0  0
    2.3029    8.0827   13.5721 H   0  0  0  0  0  0  0  0  0  0  0  0
    1.5164    7.9479   11.1545 B   0  0  0  0  0  0  0  0  0  0  0  0
    1.3999    9.0311   10.8962 H   0  0  0  0  0  0  0  0  0  0  0  0
    1.8509    4.6330   11.8415 B   0  0  0  0  0  0  0  0  0  0  0  0
    1.9592    3.5400   12.0626 H   0  0  0  0  0  0  0  0  0  0  0  0
    0.3945    7.0756   12.2314 B   0  0  0  0  0  0  0  0  0  0  0  0
   -0.4708    7.6041   12.7071 H   0  0  0  0  0  0  0  0  0  0  0  0
    1.2946    5.8033   13.0553 B   0  0  0  0  0  0  0  0  0  0  0  0
    2.6292    3.8129    6.3176 C   0  0  0  0  0  0  0  0  0  0  0  0
    2.9552    2.9296    6.4432 H   0  0  0  0  0  0  0  0  0  0  0  0
    2.3012    6.0426    7.1485 C   0  0  0  0  0  0  0  0  0  0  0  0
    4.4853    9.1858    8.6478 C   0  0  0  0  0  0  0  0  0  0  0  0
    3.7747    9.8102    8.7307 H   0  0  0  0  0  0  0  0  0  0  0  0
    5.2549    6.9432    8.2951 C   0  0  0  0  0  0  0  0  0  0  0  0
    5.0791    6.0229    8.1355 H   0  0  0  0  0  0  0  0  0  0  0  0
   -4.1180    5.7729   11.5745 C   0  0  0  0  0  0  0  0  0  0  0  0
   -4.6331    6.0670   12.3174 H   0  0  0  0  0  0  0  0  0  0  0  0
    5.7879    9.6182    8.7430 C   0  0  0  0  0  0  0  0  0  0  0  0
    5.9748   10.5369    8.8927 H   0  0  0  0  0  0  0  0  0  0  0  0
   -3.0757    6.5555   11.1080 C   0  0  0  0  0  0  0  0  0  0  0  0
   -2.8916    7.3934   11.5169 H   0  0  0  0  0  0  0  0  0  0  0  0
   -3.6622    4.1317    9.9197 C   0  0  0  0  0  0  0  0  0  0  0  0
   -3.8738    3.3062    9.4998 H   0  0  0  0  0  0  0  0  0  0  0  0
    0.4672    6.6724   10.5765 C   0  0  0  0  0  0  0  0  0  0  0  0
    2.0792    6.7312   10.0427 C   0  0  0  0  0  0  0  0  0  0  0  0
   -1.4723    9.3241    8.1071 C   0  0  0  0  0  0  0  0  0  0  0  0
   -1.2931    8.8159    7.3254 H   0  0  0  0  0  0  0  0  0  0  0  0
   -1.9061   10.6380    7.9910 C   0  0  0  0  0  0  0  0  0  0  0  0
   -2.0445   11.0199    7.1335 H   0  0  0  0  0  0  0  0  0  0  0  0
   -2.3010    6.1182   10.0474 C   0  0  0  0  0  0  0  0  0  0  0  0
    1.6507    6.3612    5.9579 C   0  0  0  0  0  0  0  0  0  0  0  0
    1.3005    7.2357    5.8297 H   0  0  0  0  0  0  0  0  0  0  0  0
   -4.4142    4.5770   10.9757 C   0  0  0  0  0  0  0  0  0  0  0  0
   -5.1421    4.0548   11.2925 H   0  0  0  0  0  0  0  0  0  0  0  0
   -1.3006    8.7472    9.3673 C   0  0  0  0  0  0  0  0  0  0  0  0
    1.5128    5.4210    4.9668 C   0  0  0  0  0  0  0  0  0  0  0  0
    1.0871    5.6544    4.1500 H   0  0  0  0  0  0  0  0  0  0  0  0
    4.1998    7.8345    8.4320 C   0  0  0  0  0  0  0  0  0  0  0  0
   -2.1339   11.3844    9.1259 C   0  0  0  0  0  0  0  0  0  0  0  0
   -2.4368   12.2811    9.0481 H   0  0  0  0  0  0  0  0  0  0  0  0
    6.8219    8.7153    8.6223 C   0  0  0  0  0  0  0  0  0  0  0  0
    7.7203    9.0141    8.6987 H   0  0  0  0  0  0  0  0  0  0  0  0
   -2.5906    4.8888    9.4671 C   0  0  0  0  0  0  0  0  0  0  0  0
   -2.0520    4.5653    8.7543 H   0  0  0  0  0  0  0  0  0  0  0  0
    1.9869    4.1432    5.1502 C   0  0  0  0  0  0  0  0  0  0  0  0
    1.8700    3.4898    4.4705 H   0  0  0  0  0  0  0  0  0  0  0  0
    6.5611    7.3895    8.3925 C   0  0  0  0  0  0  0  0  0  0  0  0
    7.2791    6.7754    8.2997 H   0  0  0  0  0  0  0  0  0  0  0  0
   -1.5224    9.5364   10.4930 C   0  0  0  0  0  0  0  0  0  0  0  0
   -1.3937    9.1641   11.3587 H   0  0  0  0  0  0  0  0  0  0  0  0
   -1.9250   10.8383   10.3723 C   0  0  0  0  0  0  0  0  0  0  0  0
   -2.0597   11.3680   11.1491 H   0  0  0  0  0  0  0  0  0  0  0  0
    2.8044    4.7577    7.3110 C   0  0  0  0  0  0  0  0  0  0  0  0
    3.2716    4.5280    8.1055 H   0  0  0  0  0  0  0  0  0  0  0  0
    4.6147    5.2498   13.7627 I   0  0  0  0  0  0  0  0  0  0  0  0
    0.6944    5.1699   15.0402 I   0  0  0  0  0  0  0  0  0  0  0  0
   -0.5323    6.4671    8.0370 O   0  0  0  0  0  0  0  0  0  0  0  0
    1.6249    8.5655    8.0493 O   0  0  0  0  0  0  0  0  0  0  0  0
   -0.9043    7.0089    9.3550 P   0  0  0  0  0  0  0  0  0  0  0  0
    2.4654    7.3864    8.3176 P   0  0  0  0  0  0  0  0  0  0  0  0
  1  6  1  0  0  0  0
  2  3  1  0  0  0  0
  4  2  1  0  0  0  0
  5  4  1  0  0  0  0
  6  7  1  0  0  0  0
  8  1  1  0  0  0  0
  9  8  1  0  0  0  0
 10  1  1  0  0  0  0
 11 10  1  0  0  0  0
 12  6  1  0  0  0  0
 13 12  1  0  0  0  0
 14  1  1  0  0  0  0
 15 14  1  0  0  0  0
 16  4  1  0  0  0  0
 17 16  1  0  0  0  0
 18  1  1  0  0  0  0
 19 20  1  0  0  0  0
 21 41  4  0  0  0  0
 22 23  1  0  0  0  0
 24 25  1  0  0  0  0
 26 27  1  0  0  0  0
 28 22  4  0  0  0  0
 29 28  1  0  0  0  0
 30 26  4  0  0  0  0
 31 30  1  0  0  0  0
 32 33  1  0  0  0  0
 34  2  1  0  0  0  0
 35  2  1  0  0  0  0
 36 37  1  0  0  0  0
 38 36  4  0  0  0  0
 39 38  1  0  0  0  0
 40 30  4  0  0  0  0
 41 42  1  0  0  0  0
 43 26  4  0  0  0  0
 44 43  1  0  0  0  0
 45 36  4  0  0  0  0
 46 41  4  0  0  0  0
 47 46  1  0  0  0  0
 48 22  4  0  0  0  0
 49 38  4  0  0  0  0
 50 49  1  0  0  0  0
 51 28  4  0  0  0  0
 52 51  1  0  0  0  0
 53 32  4  0  0  0  0
 54 53  1  0  0  0  0
 55 19  4  0  0  0  0
 56 55  1  0  0  0  0
 57 24  4  0  0  0  0
 58 57  1  0  0  0  0
 59 45  4  0  0  0  0
 60 59  1  0  0  0  0
 61 49  4  0  0  0  0
 62 61  1  0  0  0  0
 63 19  4  0  0  0  0
 64 63  1  0  0  0  0
 65  1  1  0  0  0  0
 66 18  1  0  0  0  0
 67 69  2  0  0  0  0
 68 70  2  0  0  0  0
 69 34  1  0  0  0  0
 70 21  1  0  0  0  0
  2  8  1  0  0  0  0
  2 14  1  0  0  0  0
  4 14  1  0  0  0  0
  4 18  1  0  0  0  0
  4 34  1  0  0  0  0
  6  8  1  0  0  0  0
  6 10  1  0  0  0  0
  6 35  1  0  0  0  0
  8 14  1  0  0  0  0
  8 35  1  0  0  0  0
 10 12  1  0  0  0  0
 10 16  1  0  0  0  0
 10 18  1  0  0  0  0
 12 16  1  0  0  0  0
 12 34  1  0  0  0  0
 12 35  1  0  0  0  0
 14 18  1  0  0  0  0
 16 18  1  0  0  0  0
 16 34  1  0  0  0  0
 21 63  4  0  0  0  0
 24 48  4  0  0  0  0
 32 43  4  0  0  0  0
 34 35  1  0  0  0  0
 35 70  1  0  0  0  0
 40 53  4  0  0  0  0
 40 69  1  0  0  0  0
 45 69  1  0  0  0  0
 46 55  4  0  0  0  0
 48 70  1  0  0  0  0
 51 57  4  0  0  0  0
 59 61  4  0  0  0  0
M  END
$$$$
BIYWUE

From CSD data. Using bond type 'Any'. Matching problem. No disordered atoms. Largest molecule.
148164  0  0  0  0  0  0  0  0999 V2000
    6.2469    1.0928    6.2760 Rh  0  3  0  0  0  0  0  0  0  0  0  0
    8.3797    0.1812    7.5414 Rh  0  0  0  0  0  0  0  0  0  0  0  0
    8.8192    2.1272    8.6427 P   0  0  0  0  0  0  0  0  0  0  0  0
    7.3456    1.2386    4.2770 P   0  0  0  0  0  0  0  0  0  0  0  0
    9.9383   -1.2373    8.5326 P   0  0  0  0  0  0  0  0  0  0  0  0
    4.0874    1.6016    5.5282 P   0  0  0  0  0  0  0  0  0  0  0  0
    5.7473    3.7786    4.5462 O   0  0  0  0  0  0  0  0  0  0  0  0
   11.5283    1.0499    7.7523 O   0  0  0  0  0  0  0  0  0  0  0  0
   11.3909    2.4071    7.5014 C   0  0  0  0  0  0  0  0  0  0  0  0
   10.1805    3.0579    7.8232 C   0  0  0  0  0  0  0  0  0  0  0  0
   10.8472   -2.2762    7.3280 C   0  0  0  0  0  0  0  0  0  0  0  0
    8.9042    0.2942    4.1261 C   0  0  0  0  0  0  0  0  0  0  0  0
    5.7914   -0.4424    2.7034 C   0  0  0  0  0  0  0  0  0  0  0  0
    5.7777   -0.9876    3.4818 H   0  0  0  0  0  0  0  0  0  0  0  0
   10.3290    2.9332   10.9083 C   0  0  0  0  0  0  0  0  0  0  0  0
   10.8314    3.4820   10.3172 H   0  0  0  0  0  0  0  0  0  0  0  0
   10.0618    4.3998    7.4384 C   0  0  0  0  0  0  0  0  0  0  0  0
    9.2735    4.8777    7.6650 H   0  0  0  0  0  0  0  0  0  0  0  0
    6.4854    0.7625    2.7294 C   0  0  0  0  0  0  0  0  0  0  0  0
    9.3167    2.1261   10.4157 C   0  0  0  0  0  0  0  0  0  0  0  0
    7.9085    2.9508    3.9054 C   0  0  0  0  0  0  0  0  0  0  0  0
    7.0414    4.0206    4.1005 C   0  0  0  0  0  0  0  0  0  0  0  0
    9.1140   -0.6527    3.1212 C   0  0  0  0  0  0  0  0  0  0  0  0
    8.4102   -0.8686    2.5202 H   0  0  0  0  0  0  0  0  0  0  0  0
   11.3857   -0.9692    3.8443 C   0  0  0  0  0  0  0  0  0  0  0  0
   12.2368   -1.3760    3.7300 H   0  0  0  0  0  0  0  0  0  0  0  0
    5.1238   -0.8607    1.5724 C   0  0  0  0  0  0  0  0  0  0  0  0
    4.6541   -1.6867    1.5704 H   0  0  0  0  0  0  0  0  0  0  0  0
    7.4605    3.3678    8.6896 C   0  0  0  0  0  0  0  0  0  0  0  0
    6.1710   -1.3951    7.8955 N   0  0  0  0  0  0  0  0  0  0  0  0
    6.7879   -2.0511    8.3270 H   0  0  0  0  0  0  0  0  0  0  0  0
    9.2856   -2.5490    9.6334 C   0  0  0  0  0  0  0  0  0  0  0  0
   10.1253   -2.9877    6.3625 C   0  0  0  0  0  0  0  0  0  0  0  0
    9.1880   -2.8524    6.2817 H   0  0  0  0  0  0  0  0  0  0  0  0
    9.2013    3.2464    3.4522 C   0  0  0  0  0  0  0  0  0  0  0  0
    9.8086    2.5363    3.2808 H   0  0  0  0  0  0  0  0  0  0  0  0
   11.0644    5.0414    6.7369 C   0  0  0  0  0  0  0  0  0  0  0  0
   10.9506    5.9459    6.4709 H   0  0  0  0  0  0  0  0  0  0  0  0
   12.3944    3.0486    6.8098 C   0  0  0  0  0  0  0  0  0  0  0  0
   13.1983    2.5887    6.5970 H   0  0  0  0  0  0  0  0  0  0  0  0
    4.7972    3.4613    3.5783 C   0  0  0  0  0  0  0  0  0  0  0  0
   11.1794   -0.0623    4.8670 C   0  0  0  0  0  0  0  0  0  0  0  0
   11.8836    0.1320    5.4739 H   0  0  0  0  0  0  0  0  0  0  0  0
   10.6066    2.9416   12.2738 C   0  0  0  0  0  0  0  0  0  0  0  0
   11.3021    3.4963   12.6068 H   0  0  0  0  0  0  0  0  0  0  0  0
   13.3106    0.8109   10.9576 C   0  0  0  0  0  0  0  0  0  0  0  0
   13.9911    1.2534   11.4502 H   0  0  0  0  0  0  0  0  0  0  0  0
   11.9255    0.6323    9.0167 C   0  0  0  0  0  0  0  0  0  0  0  0
   10.3491   -1.2786    2.9911 C   0  0  0  0  0  0  0  0  0  0  0  0
   10.4782   -1.9250    2.3074 H   0  0  0  0  0  0  0  0  0  0  0  0
    6.5319    1.5374    1.5783 C   0  0  0  0  0  0  0  0  0  0  0  0
    7.0280    2.3477    1.5645 H   0  0  0  0  0  0  0  0  0  0  0  0
    9.6435   -3.8886    9.5192 C   0  0  0  0  0  0  0  0  0  0  0  0
   10.2771   -4.1416    8.8591 H   0  0  0  0  0  0  0  0  0  0  0  0
    9.9496    0.5618    5.0167 C   0  0  0  0  0  0  0  0  0  0  0  0
    9.8162    1.1770    5.7280 H   0  0  0  0  0  0  0  0  0  0  0  0
    4.7182    4.1652    2.3980 C   0  0  0  0  0  0  0  0  0  0  0  0
    5.3238    4.8732    2.2108 H   0  0  0  0  0  0  0  0  0  0  0  0
    5.8220    4.6710    7.4719 C   0  0  0  0  0  0  0  0  0  0  0  0
    5.4232    4.9281    6.6482 H   0  0  0  0  0  0  0  0  0  0  0  0
    8.5640    1.3511   11.3063 C   0  0  0  0  0  0  0  0  0  0  0  0
    7.8538    0.8088   10.9832 H   0  0  0  0  0  0  0  0  0  0  0  0
   12.9339    1.2843    9.7044 C   0  0  0  0  0  0  0  0  0  0  0  0
   13.3615    2.0433    9.3261 H   0  0  0  0  0  0  0  0  0  0  0  0
    2.8911    0.2134    5.3753 C   0  0  0  0  0  0  0  0  0  0  0  0
    3.8992    2.4339    3.9054 C   0  0  0  0  0  0  0  0  0  0  0  0
   12.2191   -2.4713    7.4029 C   0  0  0  0  0  0  0  0  0  0  0  0
   12.7311   -1.9867    8.0394 H   0  0  0  0  0  0  0  0  0  0  0  0
    2.9262    2.1047    2.9596 C   0  0  0  0  0  0  0  0  0  0  0  0
    2.3136    1.4027    3.1448 H   0  0  0  0  0  0  0  0  0  0  0  0
   12.1199   -4.0815    5.6138 C   0  0  0  0  0  0  0  0  0  0  0  0
   12.5546   -4.6996    5.0384 H   0  0  0  0  0  0  0  0  0  0  0  0
   12.2303    4.3748    6.4197 C   0  0  0  0  0  0  0  0  0  0  0  0
   12.9186    4.8184    5.9389 H   0  0  0  0  0  0  0  0  0  0  0  0
    6.8412    3.7346    7.4916 C   0  0  0  0  0  0  0  0  0  0  0  0
    7.1249    3.3368    6.6778 H   0  0  0  0  0  0  0  0  0  0  0  0
    6.9994    3.9341    9.8719 C   0  0  0  0  0  0  0  0  0  0  0  0
    7.3930    3.6845   10.6994 H   0  0  0  0  0  0  0  0  0  0  0  0
    5.3867    5.2317    8.6600 C   0  0  0  0  0  0  0  0  0  0  0  0
    4.6858    5.8735    8.6522 H   0  0  0  0  0  0  0  0  0  0  0  0
   11.2899   -0.4932    9.5231 C   0  0  0  0  0  0  0  0  0  0  0  0
   12.6791   -0.3241   11.4856 C   0  0  0  0  0  0  0  0  0  0  0  0
   12.9407   -0.6577   12.3349 H   0  0  0  0  0  0  0  0  0  0  0  0
    3.1524    2.7357    6.6364 C   0  0  0  0  0  0  0  0  0  0  0  0
    8.8561    1.3726   12.6600 C   0  0  0  0  0  0  0  0  0  0  0  0
    8.3430    0.8468   13.2610 H   0  0  0  0  0  0  0  0  0  0  0  0
    2.8391    2.7853    1.7655 C   0  0  0  0  0  0  0  0  0  0  0  0
    2.1724    2.5471    1.1330 H   0  0  0  0  0  0  0  0  0  0  0  0
    3.7273    3.8158    1.4837 C   0  0  0  0  0  0  0  0  0  0  0  0
    3.6570    4.2871    0.6601 H   0  0  0  0  0  0  0  0  0  0  0  0
    5.1461   -0.0553    0.4296 C   0  0  0  0  0  0  0  0  0  0  0  0
    4.6760   -0.3235   -0.3507 H   0  0  0  0  0  0  0  0  0  0  0  0
    9.8897    2.1577   13.1448 C   0  0  0  0  0  0  0  0  0  0  0  0
   10.0991    2.1559   14.0709 H   0  0  0  0  0  0  0  0  0  0  0  0
   10.7631   -3.8872    5.5212 C   0  0  0  0  0  0  0  0  0  0  0  0
   10.2590   -4.3714    4.8788 H   0  0  0  0  0  0  0  0  0  0  0  0
    6.6730   -0.9627    6.4512 B   0  0  0  0  0  0  0  0  0  0  0  0
    5.9675    4.8623    9.8502 C   0  0  0  0  0  0  0  0  0  0  0  0
    5.6598    5.2443   10.6640 H   0  0  0  0  0  0  0  0  0  0  0  0
    7.4552    5.3407    3.9290 C   0  0  0  0  0  0  0  0  0  0  0  0
    6.8545    6.0555    4.1024 H   0  0  0  0  0  0  0  0  0  0  0  0
    9.1055   -4.8622   10.3369 C   0  0  0  0  0  0  0  0  0  0  0  0
    9.3540   -5.7709   10.2206 H   0  0  0  0  0  0  0  0  0  0  0  0
    3.3512   -1.0451    5.0305 C   0  0  0  0  0  0  0  0  0  0  0  0
    4.2873   -1.2019    4.9694 H   0  0  0  0  0  0  0  0  0  0  0  0
   11.6868   -0.9546   10.7822 C   0  0  0  0  0  0  0  0  0  0  0  0
   11.2619   -1.7175   11.1566 H   0  0  0  0  0  0  0  0  0  0  0  0
    3.0221    2.3992    7.9862 C   0  0  0  0  0  0  0  0  0  0  0  0
    3.4515    1.6221    8.3211 H   0  0  0  0  0  0  0  0  0  0  0  0
   12.8496   -3.3686    6.5556 C   0  0  0  0  0  0  0  0  0  0  0  0
   13.7878   -3.4982    6.6207 H   0  0  0  0  0  0  0  0  0  0  0  0
    2.5184    3.8898    6.1734 C   0  0  0  0  0  0  0  0  0  0  0  0
    2.5926    4.1334    5.2591 H   0  0  0  0  0  0  0  0  0  0  0  0
    8.3502   -2.2209   10.6167 C   0  0  0  0  0  0  0  0  0  0  0  0
    8.0588   -1.3220   10.7113 H   0  0  0  0  0  0  0  0  0  0  0  0
    6.4523    0.0723    8.3586 B   0  0  0  0  0  0  0  0  0  0  0  0
    1.5221    0.4053    5.5212 C   0  0  0  0  0  0  0  0  0  0  0  0
    1.1811    1.2517    5.7911 H   0  0  0  0  0  0  0  0  0  0  0  0
    8.7351    5.6031    3.5093 C   0  0  0  0  0  0  0  0  0  0  0  0
    9.0237    6.5002    3.3970 H   0  0  0  0  0  0  0  0  0  0  0  0
    9.6083    4.5524    3.2512 C   0  0  0  0  0  0  0  0  0  0  0  0
   10.4868    4.7330    2.9359 H   0  0  0  0  0  0  0  0  0  0  0  0
    5.8410    1.1119    0.4374 C   0  0  0  0  0  0  0  0  0  0  0  0
    5.8570    1.6497   -0.3448 H   0  0  0  0  0  0  0  0  0  0  0  0
    8.2162   -4.5125   11.3142 C   0  0  0  0  0  0  0  0  0  0  0  0
    7.8547   -5.1749   11.8916 H   0  0  0  0  0  0  0  0  0  0  0  0
    1.6408    4.3197    8.3704 C   0  0  0  0  0  0  0  0  0  0  0  0
    1.1126    4.8486    8.9576 H   0  0  0  0  0  0  0  0  0  0  0  0
    2.4656   -2.0831    4.7763 C   0  0  0  0  0  0  0  0  0  0  0  0
    2.7986   -2.9373    4.5281 H   0  0  0  0  0  0  0  0  0  0  0  0
    2.2689    3.1893    8.8413 C   0  0  0  0  0  0  0  0  0  0  0  0
    2.1867    2.9503    9.7576 H   0  0  0  0  0  0  0  0  0  0  0  0
    0.6428   -0.6638    5.2650 C   0  0  0  0  0  0  0  0  0  0  0  0
   -0.2926   -0.5329    5.3635 H   0  0  0  0  0  0  0  0  0  0  0  0
    7.8476   -3.1998   11.4541 C   0  0  0  0  0  0  0  0  0  0  0  0
    7.2364   -2.9570   12.1379 H   0  0  0  0  0  0  0  0  0  0  0  0
    1.7759    4.6859    7.0463 C   0  0  0  0  0  0  0  0  0  0  0  0
    1.3620    5.4814    6.7290 H   0  0  0  0  0  0  0  0  0  0  0  0
    1.1057   -1.8781    4.8808 C   0  0  0  0  0  0  0  0  0  0  0  0
    0.4985   -2.5840    4.6877 H   0  0  0  0  0  0  0  0  0  0  0  0
    4.7409   -1.7959    8.0256 C   0  0  0  0  0  0  0  0  0  0  0  0
    4.6065   -2.6678    7.6000 H   0  0  0  0  0  0  0  0  0  0  0  0
    4.1740   -1.1281    7.5862 H   0  0  0  0  0  0  0  0  0  0  0  0
    4.5031   -1.8533    8.9733 H   0  0  0  0  0  0  0  0  0  0  0  0
    6.2894    0.1692    9.3793 H   0  0  0  0  0  0  0  0  0  0  0  0
    6.5057   -1.7103    5.5960 H   0  0  0  0  0  0  0  0  0  0  0  0
    5.5593    1.0118    8.0197 H   0  0  0  0  0  0  0  0  0  0  0  0
    7.8821   -1.1936    6.6207 H   0  0  0  0  0  0  0  0  0  0  0  0
  1  2  1  0  0  0  0
  2  3  1  0  0  0  0
  3 10  1  0  0  0  0
  4  1  1  0  0  0  0
  5  2  1  0  0  0  0
  6  1  1  0  0  0  0
  7 22  1  0  0  0  0
  8  9  1  0  0  0  0
  9 10  4  0  0  0  0
 10 17  4  0  0  0  0
 11  5  1  0  0  0  0
 12  4  1  0  0  0  0
 13 14  1  0  0  0  0
 15 16  1  0  0  0  0
 17 18  1  0  0  0  0
 19  4  1  0  0  0  0
 20  3  1  0  0  0  0
 21  4  1  0  0  0  0
 22 21  4  0  0  0  0
 23 12  4  0  0  0  0
 24 23  1  0  0  0  0
 25 26  1  0  0  0  0
 27 13  4  0  0  0  0
 28 27  1  0  0  0  0
 29  3  1  0  0  0  0
 30 31  1  0  0  0  0
 32  5  1  0  0  0  0
 33 11  4  0  0  0  0
 34 33  1  0  0  0  0
 35 21  4  0  0  0  0
 36 35  1  0  0  0  0
 37 17  4  0  0  0  0
 38 37  1  0  0  0  0
 39  9  4  0  0  0  0
 40 39  1  0  0  0  0
 41  7  1  0  0  0  0
 42 25  4  0  0  0  0
 43 42  1  0  0  0  0
 44 15  4  0  0  0  0
 45 44  1  0  0  0  0
 46 47  1  0  0  0  0
 48  8  1  0  0  0  0
 49 23  4  0  0  0  0
 50 49  1  0  0  0  0
 51 19  4  0  0  0  0
 52 51  1  0  0  0  0
 53 32  4  0  0  0  0
 54 53  1  0  0  0  0
 55 12  4  0  0  0  0
 56 55  1  0  0  0  0
 57 41  4  0  0  0  0
 58 57  1  0  0  0  0
 59 60  1  0  0  0  0
 61 20  4  0  0  0  0
 62 61  1  0  0  0  0
 63 46  4  0  0  0  0
 64 63  1  0  0  0  0
 65  6  1  0  0  0  0
 66  6  1  0  0  0  0
 67 11  4  0  0  0  0
 68 67  1  0  0  0  0
 69 66  4  0  0  0  0
 70 69  1  0  0  0  0
 71 72  1  0  0  0  0
 73 37  4  0  0  0  0
 74 73  1  0  0  0  0
 75 29  4  0  0  0  0
 76 75  1  0  0  0  0
 77 29  4  0  0  0  0
 78 77  1  0  0  0  0
 79 59  4  0  0  0  0
 80 79  1  0  0  0  0
 81  5  1  0  0  0  0
 82 46  4  0  0  0  0
 83 82  1  0  0  0  0
 84  6  1  0  0  0  0
 85 61  4  0  0  0  0
 86 85  1  0  0  0  0
 87 69  4  0  0  0  0
 88 87  1  0  0  0  0
 89 57  4  0  0  0  0
 90 89  1  0  0  0  0
 91 27  4  0  0  0  0
 92 91  1  0  0  0  0
 93 44  4  0  0  0  0
 94 93  1  0  0  0  0
 95 33  4  0  0  0  0
 96 95  1  0  0  0  0
 97  1  1  0  0  0  0
 98 77  4  0  0  0  0
 99 98  1  0  0  0  0
100 22  4  0  0  0  0
101100  1  0  0  0  0
102 53  4  0  0  0  0
103102  1  0  0  0  0
104 65  4  0  0  0  0
105104  1  0  0  0  0
106 81  4  0  0  0  0
107106  1  0  0  0  0
108 84  4  0  0  0  0
109108  1  0  0  0  0
110 67  4  0  0  0  0
111110  1  0  0  0  0
112 84  4  0  0  0  0
113112  1  0  0  0  0
114 32  4  0  0  0  0
115114  1  0  0  0  0
116  2  1  0  0  0  0
117 65  4  0  0  0  0
118117  1  0  0  0  0
119100  4  0  0  0  0
120119  1  0  0  0  0
121 35  4  0  0  0  0
122121  1  0  0  0  0
123 51  4  0  0  0  0
124123  1  0  0  0  0
125102  4  0  0  0  0
126125  1  0  0  0  0
127128  1  0  0  0  0
129104  4  0  0  0  0
130129  1  0  0  0  0
131108  4  0  0  0  0
132131  1  0  0  0  0
133117  4  0  0  0  0
134133  1  0  0  0  0
135114  4  0  0  0  0
136135  1  0  0  0  0
137112  4  0  0  0  0
138137  1  0  0  0  0
139129  4  0  0  0  0
140139  1  0  0  0  0
141 30  1  0  0  0  0
142141  1  0  0  0  0
143141  1  0  0  0  0
144141  1  0  0  0  0
145116  1  0  0  0  0
146 97  1  0  0  0  0
147  1  1  0  0  0  0
148  2  1  0  0  0  0
 13 19  4  0  0  0  0
 15 20  4  0  0  0  0
 25 49  4  0  0  0  0
 30 97  1  0  0  0  0
 30116  1  0  0  0  0
 39 73  4  0  0  0  0
 41 66  4  0  0  0  0
 42 55  4  0  0  0  0
 48 63  4  0  0  0  0
 48 81  4  0  0  0  0
 59 75  4  0  0  0  0
 71 95  4  0  0  0  0
 71110  4  0  0  0  0
 79 98  4  0  0  0  0
 82106  4  0  0  0  0
 85 93  4  0  0  0  0
 87 89  4  0  0  0  0
 91123  4  0  0  0  0
 97148  1  0  0  0  0
116147  1  0  0  0  0
119121  4  0  0  0  0
125135  4  0  0  0  0
127131  4  0  0  0  0
127137  4  0  0  0  0
133139  4  0  0  0  0
M  CHG  1   1   1
M  END
$$$$
BOBHAF

From CSD data. Using bond type 'Any'. No disordered atoms. Largest molecule.
127136  0  0  0  0  0  0  0  0999 V2000
    7.4261    9.0852    5.9444 Ni  0  2  0  0  0  0  0  0  0  0  0  0
    8.3399    7.1960    3.3452 P   0  0  0  0  0  0  0  0  0  0  0  0
    5.0051    6.9703    5.1765 P   0  0  0  0  0  0  0  0  0  0  0  0
    6.3075   12.6891    2.9858 B   0  5  0  0  0  0  0  0  0  0  0  0
    5.6357    8.2870    5.5086 O   0  0  0  0  0  0  0  0  0  0  0  0
    8.1874    8.4336    4.1674 O   0  0  0  0  0  0  0  0  0  0  0  0
    6.9048   10.7770    4.8529 N   0  0  0  0  0  0  0  0  0  0  0  0
    7.2445   15.0913    3.9111 N   0  0  0  0  0  0  0  0  0  0  0  0
    8.9374    7.6294    1.7039 C   0  0  0  0  0  0  0  0  0  0  0  0
    2.9436    6.3074    3.3648 C   0  0  0  0  0  0  0  0  0  0  0  0
    3.1777    5.3941    3.4820 H   0  0  0  0  0  0  0  0  0  0  0  0
    3.6030   12.5407    2.6185 N   0  0  0  0  0  0  0  0  0  0  0  0
    3.6314    7.3043    4.0611 C   0  0  0  0  0  0  0  0  0  0  0  0
    7.4864   12.1786    0.5736 N   0  0  0  0  0  0  0  0  0  0  0  0
    4.4606    6.1219    6.6660 C   0  0  0  0  0  0  0  0  0  0  0  0
   10.3826    6.5996    5.0575 C   0  0  0  0  0  0  0  0  0  0  0  0
   10.2983    7.5079    5.3229 H   0  0  0  0  0  0  0  0  0  0  0  0
    9.6627    4.7331    3.6946 C   0  0  0  0  0  0  0  0  0  0  0  0
    9.0800    4.3682    3.0390 H   0  0  0  0  0  0  0  0  0  0  0  0
    6.1022    5.7769    4.3592 C   0  0  0  0  0  0  0  0  0  0  0  0
    6.8016    5.4996    5.0026 H   0  0  0  0  0  0  0  0  0  0  0  0
    5.5748    4.9721    4.1262 H   0  0  0  0  0  0  0  0  0  0  0  0
    9.5274    6.0705    4.0866 C   0  0  0  0  0  0  0  0  0  0  0  0
    6.7907    6.3009    3.0799 C   0  0  0  0  0  0  0  0  0  0  0  0
    6.1598    6.9001    2.6078 H   0  0  0  0  0  0  0  0  0  0  0  0
    6.9719    5.5312    2.4842 H   0  0  0  0  0  0  0  0  0  0  0  0
    8.8675    8.9637    1.3055 C   0  0  0  0  0  0  0  0  0  0  0  0
    8.4764    9.6123    1.8791 H   0  0  0  0  0  0  0  0  0  0  0  0
    4.5465    6.8067    7.8795 C   0  0  0  0  0  0  0  0  0  0  0  0
    4.8520    7.7059    7.8982 H   0  0  0  0  0  0  0  0  0  0  0  0
    6.6825   11.5685    4.0626 C   0  0  0  0  0  0  0  0  0  0  0  0
    1.9137    6.6601    2.4988 C   0  0  0  0  0  0  0  0  0  0  0  0
    1.4526    5.9857    2.0139 H   0  0  0  0  0  0  0  0  0  0  0  0
    6.8209   14.0982    3.5317 C   0  0  0  0  0  0  0  0  0  0  0  0
    9.5047    6.6758    0.8534 C   0  0  0  0  0  0  0  0  0  0  0  0
    9.5425    5.7641    1.1177 H   0  0  0  0  0  0  0  0  0  0  0  0
    3.2660    8.6403    3.8940 C   0  0  0  0  0  0  0  0  0  0  0  0
    3.7327    9.3204    4.3653 H   0  0  0  0  0  0  0  0  0  0  0  0
    4.0091    4.7968    6.6426 C   0  0  0  0  0  0  0  0  0  0  0  0
    3.9491    4.3261    5.8196 H   0  0  0  0  0  0  0  0  0  0  0  0
   10.0121    7.0645   -0.3769 C   0  0  0  0  0  0  0  0  0  0  0  0
   10.4037    6.4190   -0.9535 H   0  0  0  0  0  0  0  0  0  0  0  0
   11.3570    5.7921    5.6337 C   0  0  0  0  0  0  0  0  0  0  0  0
   11.9306    6.1453    6.3036 H   0  0  0  0  0  0  0  0  0  0  0  0
    9.9490    8.3943   -0.7677 C   0  0  0  0  0  0  0  0  0  0  0  0
   10.3027    8.6561   -1.6096 H   0  0  0  0  0  0  0  0  0  0  0  0
    1.5562    7.9891    2.3391 C   0  0  0  0  0  0  0  0  0  0  0  0
    0.8515    8.2224    1.7462 H   0  0  0  0  0  0  0  0  0  0  0  0
    7.0071   12.3831    1.5884 C   0  0  0  0  0  0  0  0  0  0  0  0
   11.4925    4.4740    5.2323 C   0  0  0  0  0  0  0  0  0  0  0  0
   12.1674    3.9301    5.6212 H   0  0  0  0  0  0  0  0  0  0  0  0
    4.7303   12.6504    2.7934 C   0  0  0  0  0  0  0  0  0  0  0  0
    3.7335    4.8593    9.0354 C   0  0  0  0  0  0  0  0  0  0  0  0
    3.4818    4.4275    9.8433 H   0  0  0  0  0  0  0  0  0  0  0  0
   10.6506    3.9404    4.2664 C   0  0  0  0  0  0  0  0  0  0  0  0
   10.7496    3.0348    3.9967 H   0  0  0  0  0  0  0  0  0  0  0  0
    2.2251    8.9805    3.0433 C   0  0  0  0  0  0  0  0  0  0  0  0
    1.9705    9.8901    2.9428 H   0  0  0  0  0  0  0  0  0  0  0  0
    3.6508    4.1780    7.8280 C   0  0  0  0  0  0  0  0  0  0  0  0
    3.3453    3.2785    7.8154 H   0  0  0  0  0  0  0  0  0  0  0  0
    9.3732    9.3433    0.0624 C   0  0  0  0  0  0  0  0  0  0  0  0
    9.3233   10.2506   -0.2149 H   0  0  0  0  0  0  0  0  0  0  0  0
    4.1836    6.1692    9.0603 C   0  0  0  0  0  0  0  0  0  0  0  0
    4.2446    6.6333    9.8870 H   0  0  0  0  0  0  0  0  0  0  0  0
    6.5123   10.9743    8.5437 P   0  0  0  0  0  0  0  0  0  0  0  0
    9.8472   11.2000    6.7123 P   0  0  0  0  0  0  0  0  0  0  0  0
    8.5447    5.4813    8.9031 B   0  5  0  0  0  0  0  0  0  0  0  0
    9.2165    9.8834    6.3803 O   0  0  0  0  0  0  0  0  0  0  0  0
    6.6648    9.7367    7.7215 O   0  0  0  0  0  0  0  0  0  0  0  0
    7.9474    7.3934    7.0360 N   0  0  0  0  0  0  0  0  0  0  0  0
    7.6077    3.0791    7.9778 N   0  0  0  0  0  0  0  0  0  0  0  0
    5.9148   10.5410   10.1850 C   0  0  0  0  0  0  0  0  0  0  0  0
   11.9086   11.8630    8.5241 C   0  0  0  0  0  0  0  0  0  0  0  0
   11.6745   12.7762    8.4069 H   0  0  0  0  0  0  0  0  0  0  0  0
   11.2493    5.6296    9.2704 N   0  0  0  0  0  0  0  0  0  0  0  0
   11.2208   10.8661    7.8278 C   0  0  0  0  0  0  0  0  0  0  0  0
    7.3658    5.9918   11.3153 N   0  0  0  0  0  0  0  0  0  0  0  0
   10.3917   12.0485    5.2229 C   0  0  0  0  0  0  0  0  0  0  0  0
    4.4696   11.5707    6.8314 C   0  0  0  0  0  0  0  0  0  0  0  0
    4.5539   10.6625    6.5660 H   0  0  0  0  0  0  0  0  0  0  0  0
    5.1896   13.4373    8.1943 C   0  0  0  0  0  0  0  0  0  0  0  0
    5.7722   13.8022    8.8499 H   0  0  0  0  0  0  0  0  0  0  0  0
    8.7500   12.3934    7.5297 C   0  0  0  0  0  0  0  0  0  0  0  0
    8.0506   12.6708    6.8863 H   0  0  0  0  0  0  0  0  0  0  0  0
    9.2774   13.1983    7.7626 H   0  0  0  0  0  0  0  0  0  0  0  0
    5.3248   12.0998    7.8023 C   0  0  0  0  0  0  0  0  0  0  0  0
    8.0616   11.8694    8.8090 C   0  0  0  0  0  0  0  0  0  0  0  0
    8.6925   11.2702    9.2811 H   0  0  0  0  0  0  0  0  0  0  0  0
    7.8803   12.6392    9.4047 H   0  0  0  0  0  0  0  0  0  0  0  0
    5.9848    9.2066   10.5834 C   0  0  0  0  0  0  0  0  0  0  0  0
    6.3758    8.5581   10.0098 H   0  0  0  0  0  0  0  0  0  0  0  0
   10.3058   11.3637    4.0094 C   0  0  0  0  0  0  0  0  0  0  0  0
   10.0002   10.4644    3.9907 H   0  0  0  0  0  0  0  0  0  0  0  0
    8.1697    6.6018    7.8263 C   0  0  0  0  0  0  0  0  0  0  0  0
   12.9386   11.5102    9.3901 C   0  0  0  0  0  0  0  0  0  0  0  0
   13.3996   12.1847    9.8750 H   0  0  0  0  0  0  0  0  0  0  0  0
    8.0313    4.0722    8.3572 C   0  0  0  0  0  0  0  0  0  0  0  0
    5.3475   11.4945   11.0355 C   0  0  0  0  0  0  0  0  0  0  0  0
    5.3097   12.4063   10.7712 H   0  0  0  0  0  0  0  0  0  0  0  0
   11.5862    9.5300    7.9949 C   0  0  0  0  0  0  0  0  0  0  0  0
   11.1196    8.8499    7.5236 H   0  0  0  0  0  0  0  0  0  0  0  0
   10.8432   13.3735    5.2463 C   0  0  0  0  0  0  0  0  0  0  0  0
   10.9031   13.8443    6.0693 H   0  0  0  0  0  0  0  0  0  0  0  0
    4.8401   11.1059   12.2658 C   0  0  0  0  0  0  0  0  0  0  0  0
    4.4485   11.7514   12.8424 H   0  0  0  0  0  0  0  0  0  0  0  0
    3.4952   12.3782    6.2552 C   0  0  0  0  0  0  0  0  0  0  0  0
    2.9216   12.0250    5.5853 H   0  0  0  0  0  0  0  0  0  0  0  0
    4.9032    9.7760   12.6566 C   0  0  0  0  0  0  0  0  0  0  0  0
    4.5495    9.5143   13.4985 H   0  0  0  0  0  0  0  0  0  0  0  0
   13.2960   10.1812    9.5498 C   0  0  0  0  0  0  0  0  0  0  0  0
   14.0007    9.9480   10.1427 H   0  0  0  0  0  0  0  0  0  0  0  0
    7.8451    5.7872   10.3005 C   0  0  0  0  0  0  0  0  0  0  0  0
    3.3597   13.6964    6.6566 C   0  0  0  0  0  0  0  0  0  0  0  0
    2.6848   14.2402    6.2677 H   0  0  0  0  0  0  0  0  0  0  0  0
   10.1220    5.5200    9.0955 C   0  0  0  0  0  0  0  0  0  0  0  0
   11.1187   13.3111    2.8535 C   0  0  0  0  0  0  0  0  0  0  0  0
   11.3705   13.7428    2.0456 H   0  0  0  0  0  0  0  0  0  0  0  0
    4.2016   14.2300    7.6224 C   0  0  0  0  0  0  0  0  0  0  0  0
    4.1026   15.1355    7.8922 H   0  0  0  0  0  0  0  0  0  0  0  0
   12.6271    9.1899    8.8456 C   0  0  0  0  0  0  0  0  0  0  0  0
   12.8817    8.2802    8.9461 H   0  0  0  0  0  0  0  0  0  0  0  0
   11.2015   13.9924    4.0609 C   0  0  0  0  0  0  0  0  0  0  0  0
   11.5070   14.8919    4.0735 H   0  0  0  0  0  0  0  0  0  0  0  0
    5.4790    8.8270   11.8265 C   0  0  0  0  0  0  0  0  0  0  0  0
    5.5290    7.9197   12.1038 H   0  0  0  0  0  0  0  0  0  0  0  0
   10.6686   12.0012    2.8286 C   0  0  0  0  0  0  0  0  0  0  0  0
   10.6076   11.5370    2.0019 H   0  0  0  0  0  0  0  0  0  0  0  0
  1  5  1  0  0  0  0
  2  6  2  0  0  0  0
  3  5  2  0  0  0  0
  4 31  1  0  0  0  0
  6  1  1  0  0  0  0
  7  1  1  0  0  0  0
  8 34  3  0  0  0  0
  9  2  1  0  0  0  0
 10 11  1  0  0  0  0
 12 52  3  0  0  0  0
 13  3  1  0  0  0  0
 14 49  3  0  0  0  0
 15  3  1  0  0  0  0
 16 17  1  0  0  0  0
 18 19  1  0  0  0  0
 20  3  1  0  0  0  0
 21 20  1  0  0  0  0
 22 20  1  0  0  0  0
 23  2  1  0  0  0  0
 24  2  1  0  0  0  0
 25 24  1  0  0  0  0
 26 24  1  0  0  0  0
 27  9  4  0  0  0  0
 28 27  1  0  0  0  0
 29 15  4  0  0  0  0
 30 29  1  0  0  0  0
 31  7  3  0  0  0  0
 32 10  4  0  0  0  0
 33 32  1  0  0  0  0
 34  4  1  0  0  0  0
 35  9  4  0  0  0  0
 36 35  1  0  0  0  0
 37 13  4  0  0  0  0
 38 37  1  0  0  0  0
 39 15  4  0  0  0  0
 40 39  1  0  0  0  0
 41 35  4  0  0  0  0
 42 41  1  0  0  0  0
 43 16  4  0  0  0  0
 44 43  1  0  0  0  0
 45 41  4  0  0  0  0
 46 45  1  0  0  0  0
 47 32  4  0  0  0  0
 48 47  1  0  0  0  0
 49  4  1  0  0  0  0
 50 43  4  0  0  0  0
 51 50  1  0  0  0  0
 52  4  1  0  0  0  0
 53 54  1  0  0  0  0
 55 18  4  0  0  0  0
 56 55  1  0  0  0  0
 57 37  4  0  0  0  0
 58 57  1  0  0  0  0
 59 39  4  0  0  0  0
 60 59  1  0  0  0  0
 61 27  4  0  0  0  0
 62 61  1  0  0  0  0
 63 29  4  0  0  0  0
 64 63  1  0  0  0  0
 65 69  2  0  0  0  0
 66 68  2  0  0  0  0
 67 94  1  0  0  0  0
 68  1  1  0  0  0  0
 69  1  1  0  0  0  0
 70  1  1  0  0  0  0
 71 97  3  0  0  0  0
 72 65  1  0  0  0  0
 73 74  1  0  0  0  0
 75115  3  0  0  0  0
 76 66  1  0  0  0  0
 77112  3  0  0  0  0
 78 66  1  0  0  0  0
 79 80  1  0  0  0  0
 81 82  1  0  0  0  0
 83 66  1  0  0  0  0
 84 83  1  0  0  0  0
 85 83  1  0  0  0  0
 86 65  1  0  0  0  0
 87 65  1  0  0  0  0
 88 87  1  0  0  0  0
 89 87  1  0  0  0  0
 90 72  4  0  0  0  0
 91 90  1  0  0  0  0
 92 78  4  0  0  0  0
 93 92  1  0  0  0  0
 94 70  3  0  0  0  0
 95 73  4  0  0  0  0
 96 95  1  0  0  0  0
 97 67  1  0  0  0  0
 98 72  4  0  0  0  0
 99 98  1  0  0  0  0
100 76  4  0  0  0  0
101100  1  0  0  0  0
102 78  4  0  0  0  0
103102  1  0  0  0  0
104 98  4  0  0  0  0
105104  1  0  0  0  0
106 79  4  0  0  0  0
107106  1  0  0  0  0
108104  4  0  0  0  0
109108  1  0  0  0  0
110 95  4  0  0  0  0
111110  1  0  0  0  0
112 67  1  0  0  0  0
113106  4  0  0  0  0
114113  1  0  0  0  0
115 67  1  0  0  0  0
116117  1  0  0  0  0
118 81  4  0  0  0  0
119118  1  0  0  0  0
120100  4  0  0  0  0
121120  1  0  0  0  0
122102  4  0  0  0  0
123122  1  0  0  0  0
124 90  4  0  0  0  0
125124  1  0  0  0  0
126 92  4  0  0  0  0
127126  1  0  0  0  0
 10 13  4  0  0  0  0
 16 23  4  0  0  0  0
 18 23  4  0  0  0  0
 20 24  1  0  0  0  0
 45 61  4  0  0  0  0
 47 57  4  0  0  0  0
 50 55  4  0  0  0  0
 53 59  4  0  0  0  0
 53 63  4  0  0  0  0
 73 76  4  0  0  0  0
 79 86  4  0  0  0  0
 81 86  4  0  0  0  0
 83 87  1  0  0  0  0
108124  4  0  0  0  0
110120  4  0  0  0  0
113118  4  0  0  0  0
116122  4  0  0  0  0
116126  4  0  0  0  0
M  CHG  3   1   2   4  -1  67  -1
M  END
$$$$
BOGQOD

From CSD data. Using bond type 'Any'. No disordered atoms. Largest molecule.
 99110  0  0  0  0  0  0  0  0999 V2000
   -1.2620    1.2258    4.5661 Pt  0  0  0  0  0  0  0  0  0  0  0  0
    1.3576    4.9303    6.7212 Fe  0  0  0  0  0  0  0  0  0  0  0  0
   -2.0556   -0.2680    3.0684 P   0  0  0  0  0  0  0  0  0  0  0  0
    1.2209    4.0197    9.4737 O   0  0  0  0  0  0  0  0  0  0  0  0
    3.7922    3.5541    6.0345 O   0  0  0  0  0  0  0  0  0  0  0  0
   -0.3666    2.7252    5.5925 N   0  0  0  0  0  0  0  0  0  0  0  0
    1.2857    4.3603    8.3961 C   0  0  0  0  0  0  0  0  0  0  0  0
    2.8504    4.0878    6.2829 C   0  0  0  0  0  0  0  0  0  0  0  0
    0.2943    3.5201    6.0309 C   0  0  0  0  0  0  0  0  0  0  0  0
   -0.9659   -1.7032    2.7323 C   0  0  0  0  0  0  0  0  0  0  0  0
    0.3833   -1.2945    2.0876 C   0  0  0  0  0  0  0  0  0  0  0  0
   -3.6937   -0.9992    3.4611 C   0  0  0  0  0  0  0  0  0  0  0  0
   -4.7789    0.0795    3.6711 C   0  0  0  0  0  0  0  0  0  0  0  0
   -2.2723    0.5450    1.4630 C   0  0  0  0  0  0  0  0  0  0  0  0
   -2.7338   -0.3974    0.3105 C   0  0  0  0  0  0  0  0  0  0  0  0
    1.9668    6.9266    7.1267 C   0  0  0  0  0  0  0  0  0  0  0  0
    2.0253    6.6427    5.7277 C   0  0  0  0  0  0  0  0  0  0  0  0
    0.7252    6.2566    5.2784 C   0  0  0  0  0  0  0  0  0  0  0  0
   -0.2119    6.2907    6.3304 C   0  0  0  0  0  0  0  0  0  0  0  0
   -0.1208    7.1877    8.9696 C   0  0  0  0  0  0  0  0  0  0  0  0
   -1.5140    7.1537    9.1212 C   0  0  0  0  0  0  0  0  0  0  0  0
   -2.0994    7.5397   10.3741 C   0  0  0  0  0  0  0  0  0  0  0  0
   -1.2769    7.8804   11.4152 C   0  0  0  0  0  0  0  0  0  0  0  0
    0.0612    7.9031   11.3238 C   0  0  0  0  0  0  0  0  0  0  0  0
    0.6669    7.4829   10.1001 C   0  0  0  0  0  0  0  0  0  0  0  0
    0.4923    6.7789    7.5797 B   0  0  0  0  0  0  0  0  0  0  0  0
   -1.4365   -2.3164    2.1333 H   0  0  0  0  0  0  0  0  0  0  0  0
   -0.7767   -2.1552    3.5798 H   0  0  0  0  0  0  0  0  0  0  0  0
    0.8742   -0.7131    2.7086 H   0  0  0  0  0  0  0  0  0  0  0  0
    0.1886   -0.8550    1.2310 H   0  0  0  0  0  0  0  0  0  0  0  0
    0.8907   -2.1109    1.9159 H   0  0  0  0  0  0  0  0  0  0  0  0
   -3.5886   -1.4761    4.3122 H   0  0  0  0  0  0  0  0  0  0  0  0
   -3.9309   -1.6317    2.7506 H   0  0  0  0  0  0  0  0  0  0  0  0
   -4.4735    0.8766    3.1816 H   0  0  0  0  0  0  0  0  0  0  0  0
   -4.8839    0.2884    4.6154 H   0  0  0  0  0  0  0  0  0  0  0  0
   -5.6151   -0.2157    3.2510 H   0  0  0  0  0  0  0  0  0  0  0  0
   -1.4145    0.9470    1.2036 H   0  0  0  0  0  0  0  0  0  0  0  0
   -2.9307    1.2684    1.5506 H   0  0  0  0  0  0  0  0  0  0  0  0
   -2.9022    0.1045   -0.5096 H   0  0  0  0  0  0  0  0  0  0  0  0
   -3.5338   -0.9095    0.5662 H   0  0  0  0  0  0  0  0  0  0  0  0
   -1.9960   -1.0185    0.1260 H   0  0  0  0  0  0  0  0  0  0  0  0
    2.7215    7.1650    7.7020 H   0  0  0  0  0  0  0  0  0  0  0  0
    2.8210    6.7085    5.1578 H   0  0  0  0  0  0  0  0  0  0  0  0
    0.5420    5.9841    4.3505 H   0  0  0  0  0  0  0  0  0  0  0  0
   -1.1576    6.0534    6.2555 H   0  0  0  0  0  0  0  0  0  0  0  0
   -2.0891    6.7869    8.4162 H   0  0  0  0  0  0  0  0  0  0  0  0
   -3.0672    7.6476   10.4672 H   0  0  0  0  0  0  0  0  0  0  0  0
   -1.6428    8.1586   12.2918 H   0  0  0  0  0  0  0  0  0  0  0  0
    0.6844    8.1518   12.0380 H   0  0  0  0  0  0  0  0  0  0  0  0
    1.6403    7.3717   10.0673 H   0  0  0  0  0  0  0  0  0  0  0  0
   -0.4684   -0.2680    6.0637 P   0  0  0  0  0  0  0  0  0  0  0  0
   -1.5581   -1.7032    6.3998 C   0  0  0  0  0  0  0  0  0  0  0  0
   -2.9073   -1.2945    7.0445 C   0  0  0  0  0  0  0  0  0  0  0  0
   -3.3982   -0.7131    6.4235 H   0  0  0  0  0  0  0  0  0  0  0  0
   -2.7125   -0.8550    7.9011 H   0  0  0  0  0  0  0  0  0  0  0  0
   -3.4147   -2.1109    7.2162 H   0  0  0  0  0  0  0  0  0  0  0  0
   -1.0875   -2.3164    6.9989 H   0  0  0  0  0  0  0  0  0  0  0  0
   -1.7473   -2.1552    5.5523 H   0  0  0  0  0  0  0  0  0  0  0  0
    1.1697   -0.9992    5.6710 C   0  0  0  0  0  0  0  0  0  0  0  0
    2.2550    0.0795    5.4610 C   0  0  0  0  0  0  0  0  0  0  0  0
    1.9495    0.8766    5.9505 H   0  0  0  0  0  0  0  0  0  0  0  0
    2.3599    0.2884    4.5167 H   0  0  0  0  0  0  0  0  0  0  0  0
    3.0911   -0.2157    5.8811 H   0  0  0  0  0  0  0  0  0  0  0  0
    1.0646   -1.4761    4.8199 H   0  0  0  0  0  0  0  0  0  0  0  0
    1.4069   -1.6317    6.3815 H   0  0  0  0  0  0  0  0  0  0  0  0
   -0.2517    0.5450    7.6692 C   0  0  0  0  0  0  0  0  0  0  0  0
    0.2098   -0.3974    8.8216 C   0  0  0  0  0  0  0  0  0  0  0  0
    0.3782    0.1045    9.6417 H   0  0  0  0  0  0  0  0  0  0  0  0
    1.0098   -0.9095    8.5659 H   0  0  0  0  0  0  0  0  0  0  0  0
   -0.5280   -1.0185    9.0061 H   0  0  0  0  0  0  0  0  0  0  0  0
   -1.1094    0.9470    7.9285 H   0  0  0  0  0  0  0  0  0  0  0  0
    0.4067    1.2684    7.5815 H   0  0  0  0  0  0  0  0  0  0  0  0
   -2.1574    2.7252    3.5396 N   0  0  0  0  0  0  0  0  0  0  0  0
   -2.8183    3.5201    3.1013 C   0  0  0  0  0  0  0  0  0  0  0  0
   -3.8816    4.9303    2.4109 Fe  0  0  0  0  0  0  0  0  0  0  0  0
   -3.8097    4.3603    0.7360 C   0  0  0  0  0  0  0  0  0  0  0  0
   -3.7449    4.0197   -0.3415 O   0  0  0  0  0  0  0  0  0  0  0  0
   -5.3743    4.0878    2.8492 C   0  0  0  0  0  0  0  0  0  0  0  0
   -6.3162    3.5541    3.0976 O   0  0  0  0  0  0  0  0  0  0  0  0
   -4.4908    6.9265    2.0054 C   0  0  0  0  0  0  0  0  0  0  0  0
   -4.5492    6.6427    3.4045 C   0  0  0  0  0  0  0  0  0  0  0  0
   -3.2491    6.2566    3.8538 C   0  0  0  0  0  0  0  0  0  0  0  0
   -5.3449    6.7085    3.9743 H   0  0  0  0  0  0  0  0  0  0  0  0
   -2.3121    6.2907    2.8017 C   0  0  0  0  0  0  0  0  0  0  0  0
   -3.0163    6.7789    1.5525 B   0  0  0  0  0  0  0  0  0  0  0  0
   -5.2455    7.1650    1.4301 H   0  0  0  0  0  0  0  0  0  0  0  0
   -1.3664    6.0534    2.8766 H   0  0  0  0  0  0  0  0  0  0  0  0
   -2.4032    7.1877    0.1626 C   0  0  0  0  0  0  0  0  0  0  0  0
   -1.0100    7.1537    0.0110 C   0  0  0  0  0  0  0  0  0  0  0  0
   -0.4246    7.5397   -1.2420 C   0  0  0  0  0  0  0  0  0  0  0  0
   -1.2471    7.8804   -2.2830 C   0  0  0  0  0  0  0  0  0  0  0  0
   -2.5852    7.9031   -2.1917 C   0  0  0  0  0  0  0  0  0  0  0  0
   -3.1908    7.4829   -0.9680 C   0  0  0  0  0  0  0  0  0  0  0  0
   -4.1643    7.3717   -0.9351 H   0  0  0  0  0  0  0  0  0  0  0  0
   -3.2083    8.1518   -2.9058 H   0  0  0  0  0  0  0  0  0  0  0  0
   -0.8812    8.1586   -3.1597 H   0  0  0  0  0  0  0  0  0  0  0  0
    0.5432    7.6476   -1.3351 H   0  0  0  0  0  0  0  0  0  0  0  0
   -0.4349    6.7869    0.7160 H   0  0  0  0  0  0  0  0  0  0  0  0
   -3.0659    5.9841    4.7816 H   0  0  0  0  0  0  0  0  0  0  0  0
  1  3  1  0  0  0  0
  2  7  1  0  0  0  0
  3 10  1  0  0  0  0
  4  7  3  0  0  0  0
  5  8  3  0  0  0  0
  6  1  1  0  0  0  0
  8  2  1  0  0  0  0
  9  2  1  0  0  0  0
 10 11  1  0  0  0  0
 11 29  1  0  0  0  0
 12  3  1  0  0  0  0
 13 12  1  0  0  0  0
 14  3  1  0  0  0  0
 15 14  1  0  0  0  0
 16  2  8  0  0  0  0
 17  2  8  0  0  0  0
 18  2  8  0  0  0  0
 19  2  8  0  0  0  0
 20 21  4  0  0  0  0
 21 22  4  0  0  0  0
 22 23  4  0  0  0  0
 23 24  4  0  0  0  0
 24 25  4  0  0  0  0
 25 20  4  0  0  0  0
 26  2  8  0  0  0  0
 27 10  1  0  0  0  0
 28 10  1  0  0  0  0
 30 11  1  0  0  0  0
 31 11  1  0  0  0  0
 32 12  1  0  0  0  0
 33 12  1  0  0  0  0
 34 13  1  0  0  0  0
 35 13  1  0  0  0  0
 36 13  1  0  0  0  0
 37 14  1  0  0  0  0
 38 14  1  0  0  0  0
 39 15  1  0  0  0  0
 40 15  1  0  0  0  0
 41 15  1  0  0  0  0
 42 16  1  0  0  0  0
 43 17  1  0  0  0  0
 44 18  1  0  0  0  0
 45 19  1  0  0  0  0
 46 21  1  0  0  0  0
 47 22  1  0  0  0  0
 48 23  1  0  0  0  0
 49 24  1  0  0  0  0
 50 25  1  0  0  0  0
 51  1  1  0  0  0  0
 52 51  1  0  0  0  0
 53 52  1  0  0  0  0
 54 53  1  0  0  0  0
 55 53  1  0  0  0  0
 56 53  1  0  0  0  0
 57 52  1  0  0  0  0
 58 52  1  0  0  0  0
 59 51  1  0  0  0  0
 60 59  1  0  0  0  0
 61 60  1  0  0  0  0
 62 60  1  0  0  0  0
 63 60  1  0  0  0  0
 64 59  1  0  0  0  0
 65 59  1  0  0  0  0
 66 51  1  0  0  0  0
 67 66  1  0  0  0  0
 68 67  1  0  0  0  0
 69 67  1  0  0  0  0
 70 67  1  0  0  0  0
 71 66  1  0  0  0  0
 72 66  1  0  0  0  0
 73  1  1  0  0  0  0
 74 73  3  0  0  0  0
 75 74  1  0  0  0  0
 76 75  1  0  0  0  0
 77 76  3  0  0  0  0
 78 75  1  0  0  0  0
 79 78  3  0  0  0  0
 80 75  8  0  0  0  0
 81 75  8  0  0  0  0
 82 75  8  0  0  0  0
 83 81  1  0  0  0  0
 84 75  8  0  0  0  0
 85 75  8  0  0  0  0
 86 80  1  0  0  0  0
 87 84  1  0  0  0  0
 88 85  1  0  0  0  0
 89 88  4  0  0  0  0
 90 89  4  0  0  0  0
 91 90  4  0  0  0  0
 92 91  4  0  0  0  0
 93 88  4  0  0  0  0
 94 93  1  0  0  0  0
 95 92  1  0  0  0  0
 96 91  1  0  0  0  0
 97 90  1  0  0  0  0
 98 89  1  0  0  0  0
 99 82  1  0  0  0  0
  6  9  3  0  0  0  0
 16 17  4  0  0  0  0
 16 26  4  0  0  0  0
 17 18  4  0  0  0  0
 18 19  4  0  0  0  0
 19 26  4  0  0  0  0
 20 26  1  0  0  0  0
 80 81  4  0  0  0  0
 80 85  4  0  0  0  0
 81 82  4  0  0  0  0
 82 84  4  0  0  0  0
 84 85  4  0  0  0  0
 92 93  4  0  0  0  0
M  END
$$$$
BOJPEV

From CSD data. Using bond type 'Any'. No disordered atoms. Largest molecule.
 52 73  0  0  0  0  0  0  0  0999 V2000
    2.3266    5.3135    0.6049 Ir  0  0  0  0  0  0  0  0  0  0  0  0
    1.4445    6.3647    2.4420 P   0  0  0  0  0  0  0  0  0  0  0  0
    5.4283    1.9380    2.8769 P   0  0  0  0  0  0  0  0  0  0  0  0
    3.6944    5.3901   -0.9062 C   0  0  0  0  0  0  0  0  0  0  0  0
    3.2870    3.7431   -0.8257 B   0  0  0  0  0  0  0  0  0  0  0  0
    5.0282    4.5285   -0.8448 B   0  0  0  0  0  0  0  0  0  0  0  0
    4.6701    5.8280    0.4524 B   0  0  0  0  0  0  0  0  0  0  0  0
    3.1291    3.2855    1.0117 B   0  0  0  0  0  0  0  0  0  0  0  0
    4.6920    2.8872    0.0293 B   0  0  0  0  0  0  0  0  0  0  0  0
    5.5965    4.3731    0.8462 B   0  0  0  0  0  0  0  0  0  0  0  0
    4.0056    4.7121    1.8857 B   0  0  0  0  0  0  0  0  0  0  0  0
    4.6698    3.1697    1.6661 B   0  0  0  0  0  0  0  0  0  0  0  0
    3.4137    6.2574   -2.0233 O   0  0  0  0  0  0  0  0  0  0  0  0
    2.2116    6.8958   -1.8652 C   0  0  0  0  0  0  0  0  0  0  0  0
    1.9441    7.8055   -3.0247 C   0  0  0  0  0  0  0  0  0  0  0  0
    1.5020    6.7207   -0.8052 O   0  0  0  0  0  0  0  0  0  0  0  0
   -0.1024    7.3337    2.0848 C   0  0  0  0  0  0  0  0  0  0  0  0
   -0.2959    8.6106    2.6119 C   0  0  0  0  0  0  0  0  0  0  0  0
   -1.4799    9.2999    2.3542 C   0  0  0  0  0  0  0  0  0  0  0  0
   -2.4724    8.7123    1.5680 C   0  0  0  0  0  0  0  0  0  0  0  0
   -2.2789    7.4354    1.0409 C   0  0  0  0  0  0  0  0  0  0  0  0
   -1.0939    6.7461    1.2986 C   0  0  0  0  0  0  0  0  0  0  0  0
    0.8776    5.2884    3.8417 C   0  0  0  0  0  0  0  0  0  0  0  0
    0.0765    5.7913    4.8680 C   0  0  0  0  0  0  0  0  0  0  0  0
   -0.3544    4.9522    5.8928 C   0  0  0  0  0  0  0  0  0  0  0  0
    0.0143    3.6047    5.8943 C   0  0  0  0  0  0  0  0  0  0  0  0
    0.8153    3.1019    4.8680 C   0  0  0  0  0  0  0  0  0  0  0  0
    1.2463    3.9437    3.8431 C   0  0  0  0  0  0  0  0  0  0  0  0
    2.5185    7.6106    3.1887 C   0  0  0  0  0  0  0  0  0  0  0  0
    2.6615    7.8083    4.5634 C   0  0  0  0  0  0  0  0  0  0  0  0
    3.5221    8.7971    5.0407 C   0  0  0  0  0  0  0  0  0  0  0  0
    4.2397    9.5881    4.1433 C   0  0  0  0  0  0  0  0  0  0  0  0
    4.0965    9.3903    2.7700 C   0  0  0  0  0  0  0  0  0  0  0  0
    3.2360    8.4044    2.2927 C   0  0  0  0  0  0  0  0  0  0  0  0
    4.4325    0.3842    3.0628 C   0  0  0  0  0  0  0  0  0  0  0  0
    3.7174   -0.1045    1.9691 C   0  0  0  0  0  0  0  0  0  0  0  0
    2.9683   -1.2769    2.0936 C   0  0  0  0  0  0  0  0  0  0  0  0
    2.9333   -1.9549    3.3117 C   0  0  0  0  0  0  0  0  0  0  0  0
    3.6485   -1.4633    4.4053 C   0  0  0  0  0  0  0  0  0  0  0  0
    4.3975   -0.2938    4.2809 C   0  0  0  0  0  0  0  0  0  0  0  0
    7.0716    1.4210    2.3117 C   0  0  0  0  0  0  0  0  0  0  0  0
    7.3379    0.0932    1.9779 C   0  0  0  0  0  0  0  0  0  0  0  0
    8.6164   -0.2797    1.5621 C   0  0  0  0  0  0  0  0  0  0  0  0
    9.6287    0.6752    1.4802 C   0  0  0  0  0  0  0  0  0  0  0  0
    9.3636    2.0029    1.8125 C   0  0  0  0  0  0  0  0  0  0  0  0
    8.0851    2.3758    2.2283 C   0  0  0  0  0  0  0  0  0  0  0  0
    5.6029    2.6329    4.5547 C   0  0  0  0  0  0  0  0  0  0  0  0
    6.7633    2.5425    5.3233 C   0  0  0  0  0  0  0  0  0  0  0  0
    6.7871    3.0680    6.6146 C   0  0  0  0  0  0  0  0  0  0  0  0
    5.6505    3.6866    7.1372 C   0  0  0  0  0  0  0  0  0  0  0  0
    4.4903    3.7770    6.3672 C   0  0  0  0  0  0  0  0  0  0  0  0
    4.4665    3.2516    5.0759 C   0  0  0  0  0  0  0  0  0  0  0  0
  1  2  1  0  0  0  0
  2 17  1  0  0  0  0
  3 12  1  0  0  0  0
  4  1  1  0  0  0  0
  5  1  1  0  0  0  0
  6  4  1  0  0  0  0
  7  1  1  0  0  0  0
  8  1  1  0  0  0  0
  9  5  1  0  0  0  0
 10  6  1  0  0  0  0
 11  1  1  0  0  0  0
 12  8  1  0  0  0  0
 13  4  1  0  0  0  0
 14 13  2  0  0  0  0
 15 14  1  0  0  0  0
 16  1  1  0  0  0  0
 17 18  4  0  0  0  0
 18 19  4  0  0  0  0
 19 20  4  0  0  0  0
 20 21  4  0  0  0  0
 21 22  4  0  0  0  0
 22 17  4  0  0  0  0
 23  2  1  0  0  0  0
 24 23  4  0  0  0  0
 25 24  4  0  0  0  0
 26 25  4  0  0  0  0
 27 26  4  0  0  0  0
 28 23  4  0  0  0  0
 29  2  1  0  0  0  0
 30 29  4  0  0  0  0
 31 30  4  0  0  0  0
 32 31  4  0  0  0  0
 33 32  4  0  0  0  0
 34 29  4  0  0  0  0
 35  3  1  0  0  0  0
 36 35  4  0  0  0  0
 37 36  4  0  0  0  0
 38 37  4  0  0  0  0
 39 38  4  0  0  0  0
 40 35  4  0  0  0  0
 41  3  1  0  0  0  0
 42 41  4  0  0  0  0
 43 42  4  0  0  0  0
 44 43  4  0  0  0  0
 45 44  4  0  0  0  0
 46 41  4  0  0  0  0
 47  3  1  0  0  0  0
 48 47  4  0  0  0  0
 49 48  4  0  0  0  0
 50 49  4  0  0  0  0
 51 50  4  0  0  0  0
 52 47  4  0  0  0  0
  4  5  1  0  0  0  0
  4  7  1  0  0  0  0
  5  6  1  0  0  0  0
  5  8  1  0  0  0  0
  6  7  1  0  0  0  0
  6  9  1  0  0  0  0
  7 10  1  0  0  0  0
  7 11  1  0  0  0  0
  8  9  1  0  0  0  0
  8 11  1  0  0  0  0
  9 10  1  0  0  0  0
  9 12  1  0  0  0  0
 10 11  1  0  0  0  0
 10 12  1  0  0  0  0
 11 12  1  0  0  0  0
 14 16  1  0  0  0  0
 27 28  4  0  0  0  0
 33 34  4  0  0  0  0
 39 40  4  0  0  0  0
 45 46  4  0  0  0  0
 51 52  4  0  0  0  0
M  END
$$$$
BOSREJ

From CSD data. Using bond type 'Any'. No disordered atoms. Largest molecule.
 86 86  0  0  0  0  0  0  0  0999 V2000
    0.8865    8.5404    2.3448 P   0  3  0  0  0  0  0  0  0  0  0  0
    6.7473   11.9260    2.1700 P   0  3  0  0  0  0  0  0  0  0  0  0
    2.9651   10.3942    1.6921 O   0  0  0  0  0  0  0  0  0  0  0  0
    2.4914    8.5488    2.9717 C   0  0  0  0  0  0  0  0  0  0  0  0
    2.7570    7.8668    3.5763 H   0  0  0  0  0  0  0  0  0  0  0  0
    3.4134    9.5359    2.6087 C   0  0  0  0  0  0  0  0  0  0  0  0
    5.4083   10.8402    1.9189 C   0  0  0  0  0  0  0  0  0  0  0  0
    5.7294   10.2268    1.1976 H   0  0  0  0  0  0  0  0  0  0  0  0
    0.0135    7.1187    3.0066 C   0  0  0  0  0  0  0  0  0  0  0  0
    0.4505    6.2956    2.7034 H   0  0  0  0  0  0  0  0  0  0  0  0
   -0.9153    7.1296    2.6928 H   0  0  0  0  0  0  0  0  0  0  0  0
    0.0267    7.1533    3.9863 H   0  0  0  0  0  0  0  0  0  0  0  0
   -0.0779    9.9697    2.7939 C   0  0  0  0  0  0  0  0  0  0  0  0
   -0.1513   10.0212    3.7698 H   0  0  0  0  0  0  0  0  0  0  0  0
   -0.9744    9.8948    2.4032 H   0  0  0  0  0  0  0  0  0  0  0  0
    0.3588   10.7787    2.4556 H   0  0  0  0  0  0  0  0  0  0  0  0
    0.8050    8.4005    0.5665 C   0  0  0  0  0  0  0  0  0  0  0  0
    1.2398    9.1771    0.1579 H   0  0  0  0  0  0  0  0  0  0  0  0
   -0.1329    8.3643    0.2851 H   0  0  0  0  0  0  0  0  0  0  0  0
    1.2630    7.5818    0.2827 H   0  0  0  0  0  0  0  0  0  0  0  0
    4.8702   10.5098    4.6459 C   0  0  0  0  0  0  0  0  0  0  0  0
    5.8035   10.6550    4.9450 H   0  0  0  0  0  0  0  0  0  0  0  0
    4.4560   11.4021    4.5397 H   0  0  0  0  0  0  0  0  0  0  0  0
    4.1265    9.7774    5.7688 C   0  0  0  0  0  0  0  0  0  0  0  0
    4.0150    8.8227    5.4921 H   0  0  0  0  0  0  0  0  0  0  0  0
    2.7333   10.3686    5.9985 C   0  0  0  0  0  0  0  0  0  0  0  0
    2.8174   11.2969    6.3008 H   0  0  0  0  0  0  0  0  0  0  0  0
    2.2644    9.8443    6.6821 H   0  0  0  0  0  0  0  0  0  0  0  0
    2.2243   10.3421    5.1617 H   0  0  0  0  0  0  0  0  0  0  0  0
    4.9104    9.7978    7.0801 C   0  0  0  0  0  0  0  0  0  0  0  0
    5.7746    9.3545    6.9510 H   0  0  0  0  0  0  0  0  0  0  0  0
    4.4011    9.3257    7.7716 H   0  0  0  0  0  0  0  0  0  0  0  0
    5.0569   10.7257    7.3581 H   0  0  0  0  0  0  0  0  0  0  0  0
    5.8432    8.4434    3.3076 C   0  0  0  0  0  0  0  0  0  0  0  0
    6.6981    8.7269    3.7179 H   0  0  0  0  0  0  0  0  0  0  0  0
    5.3892    7.8658    3.9718 H   0  0  0  0  0  0  0  0  0  0  0  0
    6.2030    7.5453    2.1211 C   0  0  0  0  0  0  0  0  0  0  0  0
    6.3774    8.1358    1.3326 H   0  0  0  0  0  0  0  0  0  0  0  0
    7.4714    6.7320    2.3814 C   0  0  0  0  0  0  0  0  0  0  0  0
    8.2262    7.3399    2.5218 H   0  0  0  0  0  0  0  0  0  0  0  0
    7.6539    6.1553    1.6105 H   0  0  0  0  0  0  0  0  0  0  0  0
    7.3447    6.1780    3.1805 H   0  0  0  0  0  0  0  0  0  0  0  0
    5.0855    6.5919    1.7453 C   0  0  0  0  0  0  0  0  0  0  0  0
    4.8560    6.0379    2.5207 H   0  0  0  0  0  0  0  0  0  0  0  0
    5.3803    6.0171    1.0088 H   0  0  0  0  0  0  0  0  0  0  0  0
    4.2995    7.1052    1.4660 H   0  0  0  0  0  0  0  0  0  0  0  0
    3.5170   12.8677    2.0276 C   0  0  0  0  0  0  0  0  0  0  0  0
    3.6345   12.7558    3.0045 H   0  0  0  0  0  0  0  0  0  0  0  0
    4.1220   13.5970    1.7402 H   0  0  0  0  0  0  0  0  0  0  0  0
    2.0664   13.3178    1.7673 C   0  0  0  0  0  0  0  0  0  0  0  0
    1.5726   12.5339    1.3890 H   0  0  0  0  0  0  0  0  0  0  0  0
    1.3634   13.7219    3.0451 C   0  0  0  0  0  0  0  0  0  0  0  0
    1.4246   12.9930    3.6972 H   0  0  0  0  0  0  0  0  0  0  0  0
    0.4202   13.9104    2.8542 H   0  0  0  0  0  0  0  0  0  0  0  0
    1.7884   14.5251    3.4120 H   0  0  0  0  0  0  0  0  0  0  0  0
    1.9748   14.4492    0.7516 C   0  0  0  0  0  0  0  0  0  0  0  0
    2.4317   15.2417    1.1021 H   0  0  0  0  0  0  0  0  0  0  0  0
    1.0324   14.6633    0.5839 H   0  0  0  0  0  0  0  0  0  0  0  0
    2.3993   14.1714   -0.0872 H   0  0  0  0  0  0  0  0  0  0  0  0
    3.9319   11.6514   -0.3360 C   0  0  0  0  0  0  0  0  0  0  0  0
    2.9750   11.6645   -0.5868 H   0  0  0  0  0  0  0  0  0  0  0  0
    4.2961   12.5466   -0.5523 H   0  0  0  0  0  0  0  0  0  0  0  0
    4.6232   10.6540   -1.2650 C   0  0  0  0  0  0  0  0  0  0  0  0
    5.5782   10.5885   -0.9755 H   0  0  0  0  0  0  0  0  0  0  0  0
    4.6183   11.1450   -2.7261 C   0  0  0  0  0  0  0  0  0  0  0  0
    3.6934   11.2573   -3.0306 H   0  0  0  0  0  0  0  0  0  0  0  0
    5.0706   10.4859   -3.2943 H   0  0  0  0  0  0  0  0  0  0  0  0
    5.0879   12.0029   -2.7848 H   0  0  0  0  0  0  0  0  0  0  0  0
    4.0373    9.2628   -1.1990 C   0  0  0  0  0  0  0  0  0  0  0  0
    4.0264    8.9563   -0.2689 H   0  0  0  0  0  0  0  0  0  0  0  0
    4.5830    8.6527   -1.7383 H   0  0  0  0  0  0  0  0  0  0  0  0
    3.1218    9.2774   -1.5494 H   0  0  0  0  0  0  0  0  0  0  0  0
    6.5816   13.1848    3.4355 C   0  0  0  0  0  0  0  0  0  0  0  0
    5.8355   13.7782    3.2102 H   0  0  0  0  0  0  0  0  0  0  0  0
    7.4098   13.7058    3.4884 H   0  0  0  0  0  0  0  0  0  0  0  0
    6.4092   12.7570    4.3007 H   0  0  0  0  0  0  0  0  0  0  0  0
    7.1615   12.8534    0.6875 C   0  0  0  0  0  0  0  0  0  0  0  0
    7.3767   12.2300   -0.0380 H   0  0  0  0  0  0  0  0  0  0  0  0
    7.9367   13.4257    0.8662 H   0  0  0  0  0  0  0  0  0  0  0  0
    6.3984   13.4087    0.4254 H   0  0  0  0  0  0  0  0  0  0  0  0
    8.2599   11.0499    2.6106 C   0  0  0  0  0  0  0  0  0  0  0  0
    8.1460   10.6185    3.4823 H   0  0  0  0  0  0  0  0  0  0  0  0
    9.0045   11.6864    2.6554 H   0  0  0  0  0  0  0  0  0  0  0  0
    8.4531   10.3699    1.9315 H   0  0  0  0  0  0  0  0  0  0  0  0
    3.9978   11.4888    1.2961 B   0  5  0  0  0  0  0  0  0  0  0  0
    4.9238    9.7958    3.1551 B   0  5  0  0  0  0  0  0  0  0  0  0
  1  4  1  0  0  0  0
  2  7  1  0  0  0  0
  3  6  1  0  0  0  0
  4  5  1  0  0  0  0
  6  4  2  0  0  0  0
  7  8  1  0  0  0  0
  9  1  1  0  0  0  0
 10  9  1  0  0  0  0
 11  9  1  0  0  0  0
 12  9  1  0  0  0  0
 13  1  1  0  0  0  0
 14 13  1  0  0  0  0
 15 13  1  0  0  0  0
 16 13  1  0  0  0  0
 17  1  1  0  0  0  0
 18 17  1  0  0  0  0
 19 17  1  0  0  0  0
 20 17  1  0  0  0  0
 21 22  1  0  0  0  0
 23 21  1  0  0  0  0
 24 21  1  0  0  0  0
 25 24  1  0  0  0  0
 26 24  1  0  0  0  0
 27 26  1  0  0  0  0
 28 26  1  0  0  0  0
 29 26  1  0  0  0  0
 30 24  1  0  0  0  0
 31 30  1  0  0  0  0
 32 30  1  0  0  0  0
 33 30  1  0  0  0  0
 34 35  1  0  0  0  0
 36 34  1  0  0  0  0
 37 34  1  0  0  0  0
 38 37  1  0  0  0  0
 39 37  1  0  0  0  0
 40 39  1  0  0  0  0
 41 39  1  0  0  0  0
 42 39  1  0  0  0  0
 43 37  1  0  0  0  0
 44 43  1  0  0  0  0
 45 43  1  0  0  0  0
 46 43  1  0  0  0  0
 47 48  1  0  0  0  0
 49 47  1  0  0  0  0
 50 47  1  0  0  0  0
 51 50  1  0  0  0  0
 52 50  1  0  0  0  0
 53 52  1  0  0  0  0
 54 52  1  0  0  0  0
 55 52  1  0  0  0  0
 56 50  1  0  0  0  0
 57 56  1  0  0  0  0
 58 56  1  0  0  0  0
 59 56  1  0  0  0  0
 60 61  1  0  0  0  0
 62 60  1  0  0  0  0
 63 60  1  0  0  0  0
 64 63  1  0  0  0  0
 65 63  1  0  0  0  0
 66 65  1  0  0  0  0
 67 65  1  0  0  0  0
 68 65  1  0  0  0  0
 69 63  1  0  0  0  0
 70 69  1  0  0  0  0
 71 69  1  0  0  0  0
 72 69  1  0  0  0  0
 73  2  1  0  0  0  0
 74 73  1  0  0  0  0
 75 73  1  0  0  0  0
 76 73  1  0  0  0  0
 77  2  1  0  0  0  0
 78 77  1  0  0  0  0
 79 77  1  0  0  0  0
 80 77  1  0  0  0  0
 81  2  1  0  0  0  0
 82 81  1  0  0  0  0
 83 81  1  0  0  0  0
 84 81  1  0  0  0  0
 85  3  1  0  0  0  0
 86  6  1  0  0  0  0
  7 85  1  0  0  0  0
  7 86  1  0  0  0  0
 21 86  1  0  0  0  0
 34 86  1  0  0  0  0
 47 85  1  0  0  0  0
 60 85  1  0  0  0  0
M  CHG  4   1   1   2   1  85  -1  86  -1
M  END
$$$$
BUVBOL

From CSD data. Using bond type 'Any'. No disordered atoms. Largest molecule.
151160  0  0  0  0  0  0  0  0999 V2000
    9.0080   10.0454    3.1945 P   0  0  0  0  0  0  0  0  0  0  0  0
    7.2662    4.8017    6.5268 P   0  0  0  0  0  0  0  0  0  0  0  0
    8.5943    7.9260    0.8756 B   0  0  0  0  0  0  0  0  0  0  0  0
    9.2765    2.5655    9.3737 B   0  0  0  0  0  0  0  0  0  0  0  0
    8.8536    3.5483   10.9589 Cl  0  0  0  0  0  0  0  0  0  0  0  0
    8.0852    7.7005    2.2995 O   0  0  0  0  0  0  0  0  0  0  0  0
    8.4599    6.2638    4.5280 O   0  0  0  0  0  0  0  0  0  0  0  0
    9.9858   10.0484    1.6477 C   0  0  0  0  0  0  0  0  0  0  0  0
    9.6049   10.7093    1.0319 H   0  0  0  0  0  0  0  0  0  0  0  0
   10.9035   10.3247    1.8520 H   0  0  0  0  0  0  0  0  0  0  0  0
   10.0223    8.6897    0.9528 C   0  0  0  0  0  0  0  0  0  0  0  0
   10.6595    8.1135    1.4262 H   0  0  0  0  0  0  0  0  0  0  0  0
   10.3593    8.8142    0.0419 H   0  0  0  0  0  0  0  0  0  0  0  0
    8.5889    8.3089    3.3929 C   0  0  0  0  0  0  0  0  0  0  0  0
    8.6966    7.6282    4.5584 C   0  0  0  0  0  0  0  0  0  0  0  0
    9.0176    7.9949    5.9141 C   0  0  0  0  0  0  0  0  0  0  0  0
    9.1913    8.8684    6.2166 H   0  0  0  0  0  0  0  0  0  0  0  0
    9.0288    6.9069    6.6660 C   0  0  0  0  0  0  0  0  0  0  0  0
    9.2011    6.8878    7.5903 H   0  0  0  0  0  0  0  0  0  0  0  0
    8.7265    5.7180    5.8265 C   0  0  0  0  0  0  0  0  0  0  0  0
    9.5145    5.1208    5.7887 H   0  0  0  0  0  0  0  0  0  0  0  0
    7.8747    4.3961    8.1893 C   0  0  0  0  0  0  0  0  0  0  0  0
    7.9903    5.2230    8.7019 H   0  0  0  0  0  0  0  0  0  0  0  0
    7.2079    3.8459    8.6516 H   0  0  0  0  0  0  0  0  0  0  0  0
    9.2160    3.6362    8.1482 C   0  0  0  0  0  0  0  0  0  0  0  0
    9.9590    4.2708    8.2258 H   0  0  0  0  0  0  0  0  0  0  0  0
    9.3032    3.1652    7.2925 H   0  0  0  0  0  0  0  0  0  0  0  0
    7.5641   11.0638    2.7729 C   0  0  0  0  0  0  0  0  0  0  0  0
    7.8276   12.3210    2.1798 C   0  0  0  0  0  0  0  0  0  0  0  0
    6.7897   13.0315    1.6234 C   0  0  0  0  0  0  0  0  0  0  0  0
    6.9666   13.8633    1.2228 H   0  0  0  0  0  0  0  0  0  0  0  0
    5.4995   12.5566    1.6370 C   0  0  0  0  0  0  0  0  0  0  0  0
    5.2357   11.3824    2.3058 C   0  0  0  0  0  0  0  0  0  0  0  0
    4.3470   11.0815    2.3616 H   0  0  0  0  0  0  0  0  0  0  0  0
    6.2421   10.6246    2.9013 C   0  0  0  0  0  0  0  0  0  0  0  0
    9.1842   12.9994    2.2022 C   0  0  0  0  0  0  0  0  0  0  0  0
    9.5760   12.9701    1.3150 H   0  0  0  0  0  0  0  0  0  0  0  0
    9.7657   12.5384    2.8272 H   0  0  0  0  0  0  0  0  0  0  0  0
    9.0794   13.9226    2.4791 H   0  0  0  0  0  0  0  0  0  0  0  0
    4.3808   13.3078    0.9354 C   0  0  0  0  0  0  0  0  0  0  0  0
    4.3610   14.2257    1.2479 H   0  0  0  0  0  0  0  0  0  0  0  0
    3.5325   12.8803    1.1347 H   0  0  0  0  0  0  0  0  0  0  0  0
    4.5333   13.2938   -0.0210 H   0  0  0  0  0  0  0  0  0  0  0  0
    5.8026    9.4072    3.6788 C   0  0  0  0  0  0  0  0  0  0  0  0
    6.0715    8.6063    3.2027 H   0  0  0  0  0  0  0  0  0  0  0  0
    4.8373    9.4162    3.7752 H   0  0  0  0  0  0  0  0  0  0  0  0
    6.2163    9.4168    4.5555 H   0  0  0  0  0  0  0  0  0  0  0  0
    9.9397   10.6398    4.6320 C   0  0  0  0  0  0  0  0  0  0  0  0
    9.3423   11.4792    5.6134 C   0  0  0  0  0  0  0  0  0  0  0  0
   10.0718   11.7782    6.7426 C   0  0  0  0  0  0  0  0  0  0  0  0
    9.6802   12.3317    7.3932 H   0  0  0  0  0  0  0  0  0  0  0  0
   11.3472   11.3077    6.9653 C   0  0  0  0  0  0  0  0  0  0  0  0
   11.9058   10.5042    6.0127 C   0  0  0  0  0  0  0  0  0  0  0  0
   12.7778   10.1825    6.1515 H   0  0  0  0  0  0  0  0  0  0  0  0
   11.2424   10.1390    4.8457 C   0  0  0  0  0  0  0  0  0  0  0  0
    7.9264   12.0150    5.5811 C   0  0  0  0  0  0  0  0  0  0  0  0
    7.7190   12.4319    6.4305 H   0  0  0  0  0  0  0  0  0  0  0  0
    7.3083   11.2855    5.4175 H   0  0  0  0  0  0  0  0  0  0  0  0
    7.8458   12.6707    4.8701 H   0  0  0  0  0  0  0  0  0  0  0  0
   12.0736   11.6419    8.2489 C   0  0  0  0  0  0  0  0  0  0  0  0
   12.7814   10.9956    8.3978 H   0  0  0  0  0  0  0  0  0  0  0  0
   11.4481   11.6127    8.9914 H   0  0  0  0  0  0  0  0  0  0  0  0
   12.4555   12.5310    8.1818 H   0  0  0  0  0  0  0  0  0  0  0  0
   11.9402    9.1670    3.9430 C   0  0  0  0  0  0  0  0  0  0  0  0
   12.4089    9.6517    3.2446 H   0  0  0  0  0  0  0  0  0  0  0  0
   11.2882    8.5719    3.5403 H   0  0  0  0  0  0  0  0  0  0  0  0
   12.5782    8.6476    4.4569 H   0  0  0  0  0  0  0  0  0  0  0  0
    7.3806    8.7542    0.1021 C   0  0  0  0  0  0  0  0  0  0  0  0
    8.7641   10.3112   -1.0489 F   0  0  0  0  0  0  0  0  0  0  0  0
    7.5340    9.8496   -0.7288 C   0  0  0  0  0  0  0  0  0  0  0  0
    6.7153   11.6434   -2.0418 F   0  0  0  0  0  0  0  0  0  0  0  0
    6.4892   10.5494   -1.2945 C   0  0  0  0  0  0  0  0  0  0  0  0
    4.1667   10.8056   -1.6095 F   0  0  0  0  0  0  0  0  0  0  0  0
    5.2106   10.1409   -1.0785 C   0  0  0  0  0  0  0  0  0  0  0  0
    3.7298    8.6308   -0.0698 F   0  0  0  0  0  0  0  0  0  0  0  0
    4.9871    9.0401   -0.2932 C   0  0  0  0  0  0  0  0  0  0  0  0
    5.7615    7.2799    0.9891 F   0  0  0  0  0  0  0  0  0  0  0  0
    6.0556    8.3757    0.2588 C   0  0  0  0  0  0  0  0  0  0  0  0
    8.8051    6.4193    0.2454 C   0  0  0  0  0  0  0  0  0  0  0  0
    7.5606    6.7239   -1.7609 F   0  0  0  0  0  0  0  0  0  0  0  0
    8.3140    5.9404   -0.9558 C   0  0  0  0  0  0  0  0  0  0  0  0
    7.9673    4.2491   -2.5789 F   0  0  0  0  0  0  0  0  0  0  0  0
    8.5196    4.6543   -1.4199 C   0  0  0  0  0  0  0  0  0  0  0  0
    9.4803    2.5316   -1.1292 F   0  0  0  0  0  0  0  0  0  0  0  0
    9.2602    3.7813   -0.6900 C   0  0  0  0  0  0  0  0  0  0  0  0
   10.5443    3.3479    1.2400 F   0  0  0  0  0  0  0  0  0  0  0  0
    9.7871    4.1982    0.5055 C   0  0  0  0  0  0  0  0  0  0  0  0
   10.1388    5.8129    2.1175 F   0  0  0  0  0  0  0  0  0  0  0  0
    9.5600    5.4827    0.9369 C   0  0  0  0  0  0  0  0  0  0  0  0
    5.8534    5.9245    6.3466 C   0  0  0  0  0  0  0  0  0  0  0  0
    5.3776    6.7256    7.4045 C   0  0  0  0  0  0  0  0  0  0  0  0
    4.2617    7.5074    7.1855 C   0  0  0  0  0  0  0  0  0  0  0  0
    3.9556    8.0485    7.8903 H   0  0  0  0  0  0  0  0  0  0  0  0
    3.5743    7.5394    6.0005 C   0  0  0  0  0  0  0  0  0  0  0  0
    4.0519    6.7576    4.9684 C   0  0  0  0  0  0  0  0  0  0  0  0
    3.5953    6.7681    4.1465 H   0  0  0  0  0  0  0  0  0  0  0  0
    5.1824    5.9548    5.0930 C   0  0  0  0  0  0  0  0  0  0  0  0
    5.9891    6.7823    8.7919 C   0  0  0  0  0  0  0  0  0  0  0  0
    5.5102    7.4331    9.3290 H   0  0  0  0  0  0  0  0  0  0  0  0
    6.9210    7.0429    8.7229 H   0  0  0  0  0  0  0  0  0  0  0  0
    5.9272    5.9083    9.2095 H   0  0  0  0  0  0  0  0  0  0  0  0
    2.3558    8.4035    5.8286 C   0  0  0  0  0  0  0  0  0  0  0  0
    1.7977    8.3364    6.6193 H   0  0  0  0  0  0  0  0  0  0  0  0
    1.8561    8.1076    5.0525 H   0  0  0  0  0  0  0  0  0  0  0  0
    2.6289    9.3262    5.7048 H   0  0  0  0  0  0  0  0  0  0  0  0
    5.5886    5.1763    3.8652 C   0  0  0  0  0  0  0  0  0  0  0  0
    5.2039    4.2862    3.9053 H   0  0  0  0  0  0  0  0  0  0  0  0
    6.5557    5.1084    3.8298 H   0  0  0  0  0  0  0  0  0  0  0  0
    5.2662    5.6322    3.0726 H   0  0  0  0  0  0  0  0  0  0  0  0
    6.8395    3.1773    5.8244 C   0  0  0  0  0  0  0  0  0  0  0  0
    5.6513    2.5872    6.3053 C   0  0  0  0  0  0  0  0  0  0  0  0
    5.2807    1.3473    5.8004 C   0  0  0  0  0  0  0  0  0  0  0  0
    4.4876    0.9551    6.1180 H   0  0  0  0  0  0  0  0  0  0  0  0
    6.0166    0.6613    4.8587 C   0  0  0  0  0  0  0  0  0  0  0  0
    7.1862    1.2381    4.4397 C   0  0  0  0  0  0  0  0  0  0  0  0
    7.7196    0.7669    3.8235 H   0  0  0  0  0  0  0  0  0  0  0  0
    7.6302    2.4903    4.8799 C   0  0  0  0  0  0  0  0  0  0  0  0
    4.7110    3.1992    7.3152 C   0  0  0  0  0  0  0  0  0  0  0  0
    4.1400    3.8464    6.8730 H   0  0  0  0  0  0  0  0  0  0  0  0
    5.2243    3.6410    8.0098 H   0  0  0  0  0  0  0  0  0  0  0  0
    4.1643    2.5036    7.7120 H   0  0  0  0  0  0  0  0  0  0  0  0
    5.5545   -0.6632    4.3038 C   0  0  0  0  0  0  0  0  0  0  0  0
    5.5696   -0.6314    3.3348 H   0  0  0  0  0  0  0  0  0  0  0  0
    4.6504   -0.8426    4.6079 H   0  0  0  0  0  0  0  0  0  0  0  0
    6.1447   -1.3676    4.6142 H   0  0  0  0  0  0  0  0  0  0  0  0
    8.9137    3.0051    4.2765 C   0  0  0  0  0  0  0  0  0  0  0  0
    8.7544    3.8693    3.8654 H   0  0  0  0  0  0  0  0  0  0  0  0
    9.2262    2.3810    3.6033 H   0  0  0  0  0  0  0  0  0  0  0  0
    9.5846    3.0960    4.9707 H   0  0  0  0  0  0  0  0  0  0  0  0
    8.1888    1.3736    9.0377 C   0  0  0  0  0  0  0  0  0  0  0  0
    6.4290    1.9822   10.5304 F   0  0  0  0  0  0  0  0  0  0  0  0
    6.9324    1.1675    9.5971 C   0  0  0  0  0  0  0  0  0  0  0  0
    4.8753    0.0422    9.7720 F   0  0  0  0  0  0  0  0  0  0  0  0
    6.0914    0.1388    9.2116 C   0  0  0  0  0  0  0  0  0  0  0  0
    5.6971   -1.7640    7.8756 F   0  0  0  0  0  0  0  0  0  0  0  0
    6.4927   -0.7419    8.2615 C   0  0  0  0  0  0  0  0  0  0  0  0
    8.1080   -1.4218    6.6805 F   0  0  0  0  0  0  0  0  0  0  0  0
    7.7088   -0.5800    7.6532 C   0  0  0  0  0  0  0  0  0  0  0  0
    9.6804    0.6106    7.3766 F   0  0  0  0  0  0  0  0  0  0  0  0
    8.5069    0.4716    8.0434 C   0  0  0  0  0  0  0  0  0  0  0  0
   10.7354    1.8846    9.6835 C   0  0  0  0  0  0  0  0  0  0  0  0
    9.7921    0.6613   11.4914 F   0  0  0  0  0  0  0  0  0  0  0  0
   10.8711    1.0002   10.7552 C   0  0  0  0  0  0  0  0  0  0  0  0
   12.1168   -0.3965   12.1932 F   0  0  0  0  0  0  0  0  0  0  0  0
   12.0631    0.4284   11.1286 C   0  0  0  0  0  0  0  0  0  0  0  0
   14.3723    0.1831   10.8083 F   0  0  0  0  0  0  0  0  0  0  0  0
   13.1968    0.7056   10.4322 C   0  0  0  0  0  0  0  0  0  0  0  0
   14.2221    1.7971    8.6243 F   0  0  0  0  0  0  0  0  0  0  0  0
   13.1173    1.5296    9.3521 C   0  0  0  0  0  0  0  0  0  0  0  0
   11.9194    2.8832    7.9140 F   0  0  0  0  0  0  0  0  0  0  0  0
   11.8980    2.0883    9.0025 C   0  0  0  0  0  0  0  0  0  0  0  0
  1  8  1  0  0  0  0
  2 20  1  0  0  0  0
  3  6  1  0  0  0  0
  4  5  1  0  0  0  0
  6 14  1  0  0  0  0
  7 15  1  0  0  0  0
  8  9  1  0  0  0  0
 10  8  1  0  0  0  0
 11  3  1  0  0  0  0
 12 11  1  0  0  0  0
 13 11  1  0  0  0  0
 14  1  1  0  0  0  0
 15 14  2  0  0  0  0
 16 15  1  0  0  0  0
 17 16  1  0  0  0  0
 18 16  2  0  0  0  0
 19 18  1  0  0  0  0
 20  7  1  0  0  0  0
 21 20  1  0  0  0  0
 22  2  1  0  0  0  0
 23 22  1  0  0  0  0
 24 22  1  0  0  0  0
 25  4  1  0  0  0  0
 26 25  1  0  0  0  0
 27 25  1  0  0  0  0
 28  1  1  0  0  0  0
 29 28  4  0  0  0  0
 30 29  4  0  0  0  0
 31 30  1  0  0  0  0
 32 30  4  0  0  0  0
 33 32  4  0  0  0  0
 34 33  1  0  0  0  0
 35 28  4  0  0  0  0
 36 29  1  0  0  0  0
 37 36  1  0  0  0  0
 38 36  1  0  0  0  0
 39 36  1  0  0  0  0
 40 32  1  0  0  0  0
 41 40  1  0  0  0  0
 42 40  1  0  0  0  0
 43 40  1  0  0  0  0
 44 35  1  0  0  0  0
 45 44  1  0  0  0  0
 46 44  1  0  0  0  0
 47 44  1  0  0  0  0
 48  1  1  0  0  0  0
 49 48  4  0  0  0  0
 50 49  4  0  0  0  0
 51 50  1  0  0  0  0
 52 50  4  0  0  0  0
 53 52  4  0  0  0  0
 54 53  1  0  0  0  0
 55 48  4  0  0  0  0
 56 49  1  0  0  0  0
 57 56  1  0  0  0  0
 58 56  1  0  0  0  0
 59 56  1  0  0  0  0
 60 52  1  0  0  0  0
 61 60  1  0  0  0  0
 62 60  1  0  0  0  0
 63 60  1  0  0  0  0
 64 55  1  0  0  0  0
 65 64  1  0  0  0  0
 66 64  1  0  0  0  0
 67 64  1  0  0  0  0
 68  3  1  0  0  0  0
 69 70  1  0  0  0  0
 70 68  4  0  0  0  0
 71 72  1  0  0  0  0
 72 70  4  0  0  0  0
 73 74  1  0  0  0  0
 74 72  4  0  0  0  0
 75 76  1  0  0  0  0
 76 74  4  0  0  0  0
 77 78  1  0  0  0  0
 78 68  4  0  0  0  0
 79  3  1  0  0  0  0
 80 81  1  0  0  0  0
 81 79  4  0  0  0  0
 82 83  1  0  0  0  0
 83 81  4  0  0  0  0
 84 85  1  0  0  0  0
 85 83  4  0  0  0  0
 86 87  1  0  0  0  0
 87 85  4  0  0  0  0
 88 89  1  0  0  0  0
 89 79  4  0  0  0  0
 90  2  1  0  0  0  0
 91 90  4  0  0  0  0
 92 91  4  0  0  0  0
 93 92  1  0  0  0  0
 94 92  4  0  0  0  0
 95 94  4  0  0  0  0
 96 95  1  0  0  0  0
 97 90  4  0  0  0  0
 98 91  1  0  0  0  0
 99 98  1  0  0  0  0
100 98  1  0  0  0  0
101 98  1  0  0  0  0
102 94  1  0  0  0  0
103102  1  0  0  0  0
104102  1  0  0  0  0
105102  1  0  0  0  0
106 97  1  0  0  0  0
107106  1  0  0  0  0
108106  1  0  0  0  0
109106  1  0  0  0  0
110  2  1  0  0  0  0
111110  4  0  0  0  0
112111  4  0  0  0  0
113112  1  0  0  0  0
114112  4  0  0  0  0
115114  4  0  0  0  0
116115  1  0  0  0  0
117110  4  0  0  0  0
118111  1  0  0  0  0
119118  1  0  0  0  0
120118  1  0  0  0  0
121118  1  0  0  0  0
122114  1  0  0  0  0
123122  1  0  0  0  0
124122  1  0  0  0  0
125122  1  0  0  0  0
126117  1  0  0  0  0
127126  1  0  0  0  0
128126  1  0  0  0  0
129126  1  0  0  0  0
130  4  1  0  0  0  0
131132  1  0  0  0  0
132130  4  0  0  0  0
133134  1  0  0  0  0
134132  4  0  0  0  0
135136  1  0  0  0  0
136134  4  0  0  0  0
137138  1  0  0  0  0
138136  4  0  0  0  0
139140  1  0  0  0  0
140130  4  0  0  0  0
141  4  1  0  0  0  0
142143  1  0  0  0  0
143141  4  0  0  0  0
144145  1  0  0  0  0
145143  4  0  0  0  0
146147  1  0  0  0  0
147145  4  0  0  0  0
148149  1  0  0  0  0
149147  4  0  0  0  0
150151  1  0  0  0  0
151141  4  0  0  0  0
  8 11  1  0  0  0  0
 18 20  1  0  0  0  0
 22 25  1  0  0  0  0
 33 35  4  0  0  0  0
 53 55  4  0  0  0  0
 76 78  4  0  0  0  0
 87 89  4  0  0  0  0
 95 97  4  0  0  0  0
115117  4  0  0  0  0
138140  4  0  0  0  0
149151  4  0  0  0  0
M  END
$$$$
BUVROZ

From CSD data. Using bond type 'Any'. No disordered atoms. Largest molecule.
105120  0  0  0  0  0  0  0  0999 V2000
    1.8998    3.5353    6.4507 Os  0  0  0  0  0  0  0  0  0  0  0  0
    0.1000    3.6275    8.7974 Pt  0  0  0  0  0  0  0  0  0  0  0  0
    2.5297    5.8610    6.7588 P   0  0  0  0  0  0  0  0  0  0  0  0
    0.6226    3.5074    4.4131 P   0  0  0  0  0  0  0  0  0  0  0  0
   -0.4045    3.6645   11.0019 P   0  0  0  0  0  0  0  0  0  0  0  0
   -2.0877    4.3653    8.2287 Cl  0  0  0  0  0  0  0  0  0  0  0  0
    3.5163    3.2873    5.4967 C   0  0  0  0  0  0  0  0  0  0  0  0
    4.5004    3.0877    4.9764 O   0  0  0  0  0  0  0  0  0  0  0  0
    2.6723    1.9857    7.9385 B   0  0  0  0  0  0  0  0  0  0  0  0
    2.2249    3.5259    8.6099 B   0  0  0  0  0  0  0  0  0  0  0  0
    1.5089    2.0893    9.2968 B   0  0  0  0  0  0  0  0  0  0  0  0
    1.4550    0.6804    8.0621 B   0  0  0  0  0  0  0  0  0  0  0  0
    1.7709    1.3922    6.4789 B   0  0  0  0  0  0  0  0  0  0  0  0
    3.8718    1.8212    7.9024 H   0  0  0  0  0  0  0  0  0  0  0  0
    2.9881    4.4133    9.5475 H   0  0  0  0  0  0  0  0  0  0  0  0
    1.4228    1.8951   10.0832 H   0  0  0  0  0  0  0  0  0  0  0  0
    1.4131   -0.3236    8.7215 H   0  0  0  0  0  0  0  0  0  0  0  0
    1.9777    0.8265    5.4726 H   0  0  0  0  0  0  0  0  0  0  0  0
    0.8133    0.9892    8.6717 H   0  0  0  0  0  0  0  0  0  0  0  0
    0.5131    1.0853    6.9545 H   0  0  0  0  0  0  0  0  0  0  0  0
   -1.6157    4.9477   11.4364 C   0  0  0  0  0  0  0  0  0  0  0  0
   -2.4983    4.8330   10.8250 H   0  0  0  0  0  0  0  0  0  0  0  0
   -1.1847    5.9220   11.2664 H   0  0  0  0  0  0  0  0  0  0  0  0
   -1.8842    4.8497   12.4787 H   0  0  0  0  0  0  0  0  0  0  0  0
   -1.1762    2.1540   11.5566 C   0  0  0  0  0  0  0  0  0  0  0  0
   -0.5275    1.3164   11.3402 H   0  0  0  0  0  0  0  0  0  0  0  0
   -2.1170    2.0208   11.0431 H   0  0  0  0  0  0  0  0  0  0  0  0
   -1.3518    2.2076   12.6212 H   0  0  0  0  0  0  0  0  0  0  0  0
    2.3424    7.0240    5.3747 C   0  0  0  0  0  0  0  0  0  0  0  0
    2.8916    6.6449    4.1504 C   0  0  0  0  0  0  0  0  0  0  0  0
    2.8540    7.5232    3.0669 C   0  0  0  0  0  0  0  0  0  0  0  0
    2.2656    8.7804    3.2094 C   0  0  0  0  0  0  0  0  0  0  0  0
    1.7164    9.1595    4.4337 C   0  0  0  0  0  0  0  0  0  0  0  0
    1.7540    8.2794    5.5173 C   0  0  0  0  0  0  0  0  0  0  0  0
    3.3476    5.6724    4.0405 H   0  0  0  0  0  0  0  0  0  0  0  0
    3.2784    7.2292    2.1190 H   0  0  0  0  0  0  0  0  0  0  0  0
    2.2355    9.4608    2.3697 H   0  0  0  0  0  0  0  0  0  0  0  0
    1.2603   10.1320    4.5436 H   0  0  0  0  0  0  0  0  0  0  0  0
    1.3296    8.5733    6.4651 H   0  0  0  0  0  0  0  0  0  0  0  0
    4.3373    6.0681    7.0335 C   0  0  0  0  0  0  0  0  0  0  0  0
    4.9008    7.3142    6.7588 C   0  0  0  0  0  0  0  0  0  0  0  0
    6.2495    7.5454    7.0353 C   0  0  0  0  0  0  0  0  0  0  0  0
    7.0316    6.5322    7.5865 C   0  0  0  0  0  0  0  0  0  0  0  0
    6.4680    5.2860    7.8612 C   0  0  0  0  0  0  0  0  0  0  0  0
    5.1209    5.0549    7.5847 C   0  0  0  0  0  0  0  0  0  0  0  0
    4.2949    8.0982    6.3312 H   0  0  0  0  0  0  0  0  0  0  0  0
    6.6856    8.5105    6.8223 H   0  0  0  0  0  0  0  0  0  0  0  0
    8.0751    6.7115    7.8011 H   0  0  0  0  0  0  0  0  0  0  0  0
    7.0739    4.5002    8.2888 H   0  0  0  0  0  0  0  0  0  0  0  0
    4.6833    4.0898    7.7977 H   0  0  0  0  0  0  0  0  0  0  0  0
    1.8306    6.8095    8.1325 C   0  0  0  0  0  0  0  0  0  0  0  0
    2.6282    7.5213    9.0237 C   0  0  0  0  0  0  0  0  0  0  0  0
    2.0424    8.2831   10.0334 C   0  0  0  0  0  0  0  0  0  0  0  0
    0.6529    8.3348   10.1519 C   0  0  0  0  0  0  0  0  0  0  0  0
   -0.1493    7.6230    9.2607 C   0  0  0  0  0  0  0  0  0  0  0  0
    0.4367    6.8594    8.2459 C   0  0  0  0  0  0  0  0  0  0  0  0
    3.7039    7.4806    8.9327 H   0  0  0  0  0  0  0  0  0  0  0  0
    2.6643    8.8340   10.7237 H   0  0  0  0  0  0  0  0  0  0  0  0
    0.1990    8.9246   10.9349 H   0  0  0  0  0  0  0  0  0  0  0  0
   -1.2251    7.6618    9.3534 H   0  0  0  0  0  0  0  0  0  0  0  0
   -0.1839    6.3084    7.5607 H   0  0  0  0  0  0  0  0  0  0  0  0
    1.6739    3.2245    2.9449 C   0  0  0  0  0  0  0  0  0  0  0  0
    2.3309    2.0005    2.8179 C   0  0  0  0  0  0  0  0  0  0  0  0
    3.2233    1.7934    1.7670 C   0  0  0  0  0  0  0  0  0  0  0  0
    3.4589    2.8103    0.8414 C   0  0  0  0  0  0  0  0  0  0  0  0
    2.8035    4.0343    0.9668 C   0  0  0  0  0  0  0  0  0  0  0  0
    1.9110    4.2414    2.0194 C   0  0  0  0  0  0  0  0  0  0  0  0
    2.1478    1.2129    3.5339 H   0  0  0  0  0  0  0  0  0  0  0  0
    3.7312    0.8449    1.6691 H   0  0  0  0  0  0  0  0  0  0  0  0
    4.1499    2.6476    0.0258 H   0  0  0  0  0  0  0  0  0  0  0  0
    2.9865    4.8219    0.2507 H   0  0  0  0  0  0  0  0  0  0  0  0
    1.4031    5.1899    2.1173 H   0  0  0  0  0  0  0  0  0  0  0  0
   -0.4848    4.8608    3.9735 C   0  0  0  0  0  0  0  0  0  0  0  0
   -1.0967    4.9051    2.7200 C   0  0  0  0  0  0  0  0  0  0  0  0
   -1.9899    5.9313    2.4143 C   0  0  0  0  0  0  0  0  0  0  0  0
   -2.2711    6.9149    3.3622 C   0  0  0  0  0  0  0  0  0  0  0  0
   -1.6607    6.8724    4.6158 C   0  0  0  0  0  0  0  0  0  0  0  0
   -0.7674    5.8462    4.9197 C   0  0  0  0  0  0  0  0  0  0  0  0
   -0.8774    4.1434    1.9850 H   0  0  0  0  0  0  0  0  0  0  0  0
   -2.4621    5.9646    1.4441 H   0  0  0  0  0  0  0  0  0  0  0  0
   -2.9625    7.7099    3.1253 H   0  0  0  0  0  0  0  0  0  0  0  0
   -1.8783    7.6341    5.3490 H   0  0  0  0  0  0  0  0  0  0  0  0
   -0.2936    5.8129    5.8899 H   0  0  0  0  0  0  0  0  0  0  0  0
   -0.6158    2.1392    4.2861 C   0  0  0  0  0  0  0  0  0  0  0  0
   -0.8117    1.4421    3.0926 C   0  0  0  0  0  0  0  0  0  0  0  0
   -1.8057    0.4678    3.0102 C   0  0  0  0  0  0  0  0  0  0  0  0
   -2.6038    0.1886    4.1195 C   0  0  0  0  0  0  0  0  0  0  0  0
   -2.4079    0.8838    5.3129 C   0  0  0  0  0  0  0  0  0  0  0  0
   -1.4139    1.8600    5.3954 C   0  0  0  0  0  0  0  0  0  0  0  0
   -0.1927    1.6585    2.2340 H   0  0  0  0  0  0  0  0  0  0  0  0
   -1.9567   -0.0721    2.0864 H   0  0  0  0  0  0  0  0  0  0  0  0
   -3.3722   -0.5676    4.0542 H   0  0  0  0  0  0  0  0  0  0  0  0
   -3.0254    0.6675    6.1715 H   0  0  0  0  0  0  0  0  0  0  0  0
   -1.2613    2.3980    6.3192 H   0  0  0  0  0  0  0  0  0  0  0  0
    0.9674    4.0084   12.0992 C   0  0  0  0  0  0  0  0  0  0  0  0
    1.8096    5.0660   11.7558 C   0  0  0  0  0  0  0  0  0  0  0  0
    2.8491    5.4339   12.6092 C   0  0  0  0  0  0  0  0  0  0  0  0
    3.0447    4.7480   13.8078 C   0  0  0  0  0  0  0  0  0  0  0  0
    2.2009    3.6904   14.1512 C   0  0  0  0  0  0  0  0  0  0  0  0
    1.1631    3.3206   13.2961 C   0  0  0  0  0  0  0  0  0  0  0  0
    1.6588    5.5985   10.8285 H   0  0  0  0  0  0  0  0  0  0  0  0
    3.5015    6.2530   12.3447 H   0  0  0  0  0  0  0  0  0  0  0  0
    3.8496    5.0327   14.4689 H   0  0  0  0  0  0  0  0  0  0  0  0
    2.3533    3.1579   15.0785 H   0  0  0  0  0  0  0  0  0  0  0  0
    0.5091    2.5034   13.5622 H   0  0  0  0  0  0  0  0  0  0  0  0
  1  2  1  0  0  0  0
  2  5  1  0  0  0  0
  3  1  1  0  0  0  0
  4  1  1  0  0  0  0
  5 21  1  0  0  0  0
  6  2  1  0  0  0  0
  7  1  1  0  0  0  0
  8  7  3  0  0  0  0
  9  1  1  0  0  0  0
 10  1  1  0  0  0  0
 11  2  1  0  0  0  0
 12  9  1  0  0  0  0
 13  1  1  0  0  0  0
 14  9  1  0  0  0  0
 15 10  1  0  0  0  0
 16 11  1  0  0  0  0
 17 12  1  0  0  0  0
 18 13  1  0  0  0  0
 19 11  1  0  0  0  0
 20 12  1  0  0  0  0
 21 22  1  0  0  0  0
 23 21  1  0  0  0  0
 24 21  1  0  0  0  0
 25  5  1  0  0  0  0
 26 25  1  0  0  0  0
 27 25  1  0  0  0  0
 28 25  1  0  0  0  0
 29  3  1  0  0  0  0
 30 29  4  0  0  0  0
 31 30  4  0  0  0  0
 32 31  4  0  0  0  0
 33 32  4  0  0  0  0
 34 29  4  0  0  0  0
 35 30  1  0  0  0  0
 36 31  1  0  0  0  0
 37 32  1  0  0  0  0
 38 33  1  0  0  0  0
 39 34  1  0  0  0  0
 40  3  1  0  0  0  0
 41 40  4  0  0  0  0
 42 41  4  0  0  0  0
 43 42  4  0  0  0  0
 44 43  4  0  0  0  0
 45 40  4  0  0  0  0
 46 41  1  0  0  0  0
 47 42  1  0  0  0  0
 48 43  1  0  0  0  0
 49 44  1  0  0  0  0
 50 45  1  0  0  0  0
 51  3  1  0  0  0  0
 52 51  4  0  0  0  0
 53 52  4  0  0  0  0
 54 53  4  0  0  0  0
 55 54  4  0  0  0  0
 56 51  4  0  0  0  0
 57 52  1  0  0  0  0
 58 53  1  0  0  0  0
 59 54  1  0  0  0  0
 60 55  1  0  0  0  0
 61 56  1  0  0  0  0
 62  4  1  0  0  0  0
 63 62  4  0  0  0  0
 64 63  4  0  0  0  0
 65 64  4  0  0  0  0
 66 65  4  0  0  0  0
 67 62  4  0  0  0  0
 68 63  1  0  0  0  0
 69 64  1  0  0  0  0
 70 65  1  0  0  0  0
 71 66  1  0  0  0  0
 72 67  1  0  0  0  0
 73  4  1  0  0  0  0
 74 73  4  0  0  0  0
 75 74  4  0  0  0  0
 76 75  4  0  0  0  0
 77 76  4  0  0  0  0
 78 73  4  0  0  0  0
 79 74  1  0  0  0  0
 80 75  1  0  0  0  0
 81 76  1  0  0  0  0
 82 77  1  0  0  0  0
 83 78  1  0  0  0  0
 84  4  1  0  0  0  0
 85 84  4  0  0  0  0
 86 85  4  0  0  0  0
 87 86  4  0  0  0  0
 88 87  4  0  0  0  0
 89 84  4  0  0  0  0
 90 85  1  0  0  0  0
 91 86  1  0  0  0  0
 92 87  1  0  0  0  0
 93 88  1  0  0  0  0
 94 89  1  0  0  0  0
 95  5  1  0  0  0  0
 96 95  4  0  0  0  0
 97 96  4  0  0  0  0
 98 97  4  0  0  0  0
 99 98  4  0  0  0  0
100 95  4  0  0  0  0
101 96  1  0  0  0  0
102 97  1  0  0  0  0
103 98  1  0  0  0  0
104 99  1  0  0  0  0
105100  1  0  0  0  0
  2 10  1  0  0  0  0
  9 10  1  0  0  0  0
  9 11  1  0  0  0  0
  9 13  1  0  0  0  0
 10 11  1  0  0  0  0
 11 12  1  0  0  0  0
 12 13  1  0  0  0  0
 12 19  1  0  0  0  0
 13 20  1  0  0  0  0
 33 34  4  0  0  0  0
 44 45  4  0  0  0  0
 55 56  4  0  0  0  0
 66 67  4  0  0  0  0
 77 78  4  0  0  0  0
 88 89  4  0  0  0  0
 99100  4  0  0  0  0
M  END
$$$$
BUVROZ10

From CSD data. Using bond type 'Any'. No disordered atoms. Largest molecule.
105120  0  0  0  0  0  0  0  0999 V2000
    1.9000    3.5353    6.4507 Os  0  0  0  0  0  0  0  0  0  0  0  0
    0.1003    3.6275    8.7974 Pt  0  0  0  0  0  0  0  0  0  0  0  0
    2.5299    5.8610    6.7588 P   0  0  0  0  0  0  0  0  0  0  0  0
    0.6227    3.5074    4.4131 P   0  0  0  0  0  0  0  0  0  0  0  0
   -0.4041    3.6645   11.0019 P   0  0  0  0  0  0  0  0  0  0  0  0
   -2.0874    4.3653    8.2287 Cl  0  0  0  0  0  0  0  0  0  0  0  0
    3.5165    3.2873    5.4967 C   0  0  0  0  0  0  0  0  0  0  0  0
    4.5006    3.0877    4.9764 O   0  0  0  0  0  0  0  0  0  0  0  0
    2.6725    1.9857    7.9385 B   0  0  0  0  0  0  0  0  0  0  0  0
    2.2252    3.5259    8.6099 B   0  0  0  0  0  0  0  0  0  0  0  0
    1.5092    2.0893    9.2968 B   0  0  0  0  0  0  0  0  0  0  0  0
    1.4553    0.6804    8.0621 B   0  0  0  0  0  0  0  0  0  0  0  0
    1.7711    1.3922    6.4789 B   0  0  0  0  0  0  0  0  0  0  0  0
    3.8798    1.8212    7.9024 H   0  0  0  0  0  0  0  0  0  0  0  0
    2.9899    4.4133    9.5475 H   0  0  0  0  0  0  0  0  0  0  0  0
    1.4262    1.8951   10.0832 H   0  0  0  0  0  0  0  0  0  0  0  0
    1.4103   -0.3236    8.7215 H   0  0  0  0  0  0  0  0  0  0  0  0
    1.9717    0.8265    5.4726 H   0  0  0  0  0  0  0  0  0  0  0  0
    0.8120    0.9892    8.6717 H   0  0  0  0  0  0  0  0  0  0  0  0
    0.5134    1.0853    6.9546 H   0  0  0  0  0  0  0  0  0  0  0  0
   -1.6153    4.9477   11.4364 C   0  0  0  0  0  0  0  0  0  0  0  0
   -2.4979    4.8330   10.8251 H   0  0  0  0  0  0  0  0  0  0  0  0
   -1.1843    5.9220   11.2664 H   0  0  0  0  0  0  0  0  0  0  0  0
   -1.8838    4.8497   12.4787 H   0  0  0  0  0  0  0  0  0  0  0  0
   -1.1758    2.1540   11.5566 C   0  0  0  0  0  0  0  0  0  0  0  0
   -0.5271    1.3164   11.3402 H   0  0  0  0  0  0  0  0  0  0  0  0
   -2.1166    2.0208   11.0431 H   0  0  0  0  0  0  0  0  0  0  0  0
   -1.3513    2.2076   12.6212 H   0  0  0  0  0  0  0  0  0  0  0  0
    2.3426    7.0240    5.3748 C   0  0  0  0  0  0  0  0  0  0  0  0
    2.8917    6.6449    4.1504 C   0  0  0  0  0  0  0  0  0  0  0  0
    2.8541    7.5232    3.0669 C   0  0  0  0  0  0  0  0  0  0  0  0
    2.2657    8.7804    3.2094 C   0  0  0  0  0  0  0  0  0  0  0  0
    1.7165    9.1595    4.4337 C   0  0  0  0  0  0  0  0  0  0  0  0
    1.7542    8.2794    5.5173 C   0  0  0  0  0  0  0  0  0  0  0  0
    3.3478    5.6724    4.0405 H   0  0  0  0  0  0  0  0  0  0  0  0
    3.2784    7.2292    2.1190 H   0  0  0  0  0  0  0  0  0  0  0  0
    2.2356    9.4608    2.3697 H   0  0  0  0  0  0  0  0  0  0  0  0
    1.2605   10.1320    4.5436 H   0  0  0  0  0  0  0  0  0  0  0  0
    1.3298    8.5733    6.4652 H   0  0  0  0  0  0  0  0  0  0  0  0
    4.3375    6.0681    7.0335 C   0  0  0  0  0  0  0  0  0  0  0  0
    4.9011    7.3142    6.7588 C   0  0  0  0  0  0  0  0  0  0  0  0
    6.2497    7.5454    7.0353 C   0  0  0  0  0  0  0  0  0  0  0  0
    7.0318    6.5322    7.5865 C   0  0  0  0  0  0  0  0  0  0  0  0
    6.4683    5.2860    7.8612 C   0  0  0  0  0  0  0  0  0  0  0  0
    5.1211    5.0549    7.5848 C   0  0  0  0  0  0  0  0  0  0  0  0
    4.2951    8.0982    6.3312 H   0  0  0  0  0  0  0  0  0  0  0  0
    6.6858    8.5105    6.8223 H   0  0  0  0  0  0  0  0  0  0  0  0
    8.0754    6.7115    7.8011 H   0  0  0  0  0  0  0  0  0  0  0  0
    7.0742    4.5002    8.2888 H   0  0  0  0  0  0  0  0  0  0  0  0
    4.6836    4.0898    7.7977 H   0  0  0  0  0  0  0  0  0  0  0  0
    1.8262    6.8095    8.1325 C   0  0  0  0  0  0  0  0  0  0  0  0
    2.6285    7.5213    9.0237 C   0  0  0  0  0  0  0  0  0  0  0  0
    2.0428    8.2831   10.0334 C   0  0  0  0  0  0  0  0  0  0  0  0
    0.6533    8.3348   10.1519 C   0  0  0  0  0  0  0  0  0  0  0  0
   -0.1490    7.6230    9.2607 C   0  0  0  0  0  0  0  0  0  0  0  0
    0.4367    6.8594    8.2510 C   0  0  0  0  0  0  0  0  0  0  0  0
    3.7042    7.4806    8.9327 H   0  0  0  0  0  0  0  0  0  0  0  0
    2.6646    8.8340   10.7238 H   0  0  0  0  0  0  0  0  0  0  0  0
    0.1994    8.9246   10.9350 H   0  0  0  0  0  0  0  0  0  0  0  0
   -1.2248    7.6618    9.3534 H   0  0  0  0  0  0  0  0  0  0  0  0
   -0.1836    6.3084    7.5607 H   0  0  0  0  0  0  0  0  0  0  0  0
    1.6740    3.2245    2.9450 C   0  0  0  0  0  0  0  0  0  0  0  0
    2.3310    2.0005    2.8179 C   0  0  0  0  0  0  0  0  0  0  0  0
    3.2234    1.7934    1.7670 C   0  0  0  0  0  0  0  0  0  0  0  0
    3.4589    2.8103    0.8414 C   0  0  0  0  0  0  0  0  0  0  0  0
    2.8035    4.0343    0.9668 C   0  0  0  0  0  0  0  0  0  0  0  0
    1.9110    4.2414    2.0194 C   0  0  0  0  0  0  0  0  0  0  0  0
    2.1480    1.2129    3.5339 H   0  0  0  0  0  0  0  0  0  0  0  0
    3.7313    0.8449    1.6691 H   0  0  0  0  0  0  0  0  0  0  0  0
    4.1499    2.6476    0.0258 H   0  0  0  0  0  0  0  0  0  0  0  0
    2.9866    4.8219    0.2507 H   0  0  0  0  0  0  0  0  0  0  0  0
    1.4032    5.1899    2.1173 H   0  0  0  0  0  0  0  0  0  0  0  0
   -0.4846    4.8608    3.9735 C   0  0  0  0  0  0  0  0  0  0  0  0
   -1.0966    4.9051    2.7200 C   0  0  0  0  0  0  0  0  0  0  0  0
   -1.9898    5.9313    2.4143 C   0  0  0  0  0  0  0  0  0  0  0  0
   -2.2710    6.9149    3.3622 C   0  0  0  0  0  0  0  0  0  0  0  0
   -1.6605    6.8724    4.6158 C   0  0  0  0  0  0  0  0  0  0  0  0
   -0.7672    5.8462    4.9197 C   0  0  0  0  0  0  0  0  0  0  0  0
   -0.8774    4.1434    1.9851 H   0  0  0  0  0  0  0  0  0  0  0  0
   -2.4621    5.9646    1.4441 H   0  0  0  0  0  0  0  0  0  0  0  0
   -2.9624    7.7099    3.1253 H   0  0  0  0  0  0  0  0  0  0  0  0
   -1.8781    7.6341    5.3490 H   0  0  0  0  0  0  0  0  0  0  0  0
   -0.2934    5.8129    5.8899 H   0  0  0  0  0  0  0  0  0  0  0  0
   -0.6156    2.1392    4.2861 C   0  0  0  0  0  0  0  0  0  0  0  0
   -0.8116    1.4421    3.0926 C   0  0  0  0  0  0  0  0  0  0  0  0
   -1.8056    0.4678    3.0102 C   0  0  0  0  0  0  0  0  0  0  0  0
   -2.6036    0.1886    4.1195 C   0  0  0  0  0  0  0  0  0  0  0  0
   -2.4077    0.8838    5.3129 C   0  0  0  0  0  0  0  0  0  0  0  0
   -1.4137    1.8600    5.3954 C   0  0  0  0  0  0  0  0  0  0  0  0
   -0.1926    1.6585    2.2340 H   0  0  0  0  0  0  0  0  0  0  0  0
   -1.9566   -0.0721    2.0864 H   0  0  0  0  0  0  0  0  0  0  0  0
   -3.3721   -0.5676    4.0542 H   0  0  0  0  0  0  0  0  0  0  0  0
   -3.0252    0.6675    6.1715 H   0  0  0  0  0  0  0  0  0  0  0  0
   -1.2611    2.3980    6.3192 H   0  0  0  0  0  0  0  0  0  0  0  0
    0.9678    4.0084   12.0992 C   0  0  0  0  0  0  0  0  0  0  0  0
    1.8100    5.0660   11.7558 C   0  0  0  0  0  0  0  0  0  0  0  0
    2.8495    5.4339   12.6092 C   0  0  0  0  0  0  0  0  0  0  0  0
    3.0452    4.7480   13.8078 C   0  0  0  0  0  0  0  0  0  0  0  0
    2.2014    3.6904   14.1512 C   0  0  0  0  0  0  0  0  0  0  0  0
    1.1635    3.3206   13.2961 C   0  0  0  0  0  0  0  0  0  0  0  0
    1.6591    5.5985   10.8285 H   0  0  0  0  0  0  0  0  0  0  0  0
    3.5019    6.2530   12.3448 H   0  0  0  0  0  0  0  0  0  0  0  0
    3.8501    5.0327   14.4689 H   0  0  0  0  0  0  0  0  0  0  0  0
    2.3539    3.1579   15.0785 H   0  0  0  0  0  0  0  0  0  0  0  0
    0.5096    2.5034   13.5622 H   0  0  0  0  0  0  0  0  0  0  0  0
  1  2  1  0  0  0  0
  2  5  1  0  0  0  0
  3  1  1  0  0  0  0
  4  1  1  0  0  0  0
  5 21  1  0  0  0  0
  6  2  1  0  0  0  0
  7  1  1  0  0  0  0
  8  7  3  0  0  0  0
  9  1  1  0  0  0  0
 10  1  1  0  0  0  0
 11  2  1  0  0  0  0
 12  9  1  0  0  0  0
 13  1  1  0  0  0  0
 14  9  1  0  0  0  0
 15 10  1  0  0  0  0
 16 11  1  0  0  0  0
 17 12  1  0  0  0  0
 18 13  1  0  0  0  0
 19 11  1  0  0  0  0
 20 12  1  0  0  0  0
 21 22  1  0  0  0  0
 23 21  1  0  0  0  0
 24 21  1  0  0  0  0
 25  5  1  0  0  0  0
 26 25  1  0  0  0  0
 27 25  1  0  0  0  0
 28 25  1  0  0  0  0
 29  3  1  0  0  0  0
 30 29  4  0  0  0  0
 31 30  4  0  0  0  0
 32 31  4  0  0  0  0
 33 32  4  0  0  0  0
 34 29  4  0  0  0  0
 35 30  1  0  0  0  0
 36 31  1  0  0  0  0
 37 32  1  0  0  0  0
 38 33  1  0  0  0  0
 39 34  1  0  0  0  0
 40  3  1  0  0  0  0
 41 40  4  0  0  0  0
 42 41  4  0  0  0  0
 43 42  4  0  0  0  0
 44 43  4  0  0  0  0
 45 40  4  0  0  0  0
 46 41  1  0  0  0  0
 47 42  1  0  0  0  0
 48 43  1  0  0  0  0
 49 44  1  0  0  0  0
 50 45  1  0  0  0  0
 51  3  1  0  0  0  0
 52 51  4  0  0  0  0
 53 52  4  0  0  0  0
 54 53  4  0  0  0  0
 55 54  4  0  0  0  0
 56 51  4  0  0  0  0
 57 52  1  0  0  0  0
 58 53  1  0  0  0  0
 59 54  1  0  0  0  0
 60 55  1  0  0  0  0
 61 56  1  0  0  0  0
 62  4  1  0  0  0  0
 63 62  4  0  0  0  0
 64 63  4  0  0  0  0
 65 64  4  0  0  0  0
 66 65  4  0  0  0  0
 67 62  4  0  0  0  0
 68 63  1  0  0  0  0
 69 64  1  0  0  0  0
 70 65  1  0  0  0  0
 71 66  1  0  0  0  0
 72 67  1  0  0  0  0
 73  4  1  0  0  0  0
 74 73  4  0  0  0  0
 75 74  4  0  0  0  0
 76 75  4  0  0  0  0
 77 76  4  0  0  0  0
 78 73  4  0  0  0  0
 79 74  1  0  0  0  0
 80 75  1  0  0  0  0
 81 76  1  0  0  0  0
 82 77  1  0  0  0  0
 83 78  1  0  0  0  0
 84  4  1  0  0  0  0
 85 84  4  0  0  0  0
 86 85  4  0  0  0  0
 87 86  4  0  0  0  0
 88 87  4  0  0  0  0
 89 84  4  0  0  0  0
 90 85  1  0  0  0  0
 91 86  1  0  0  0  0
 92 87  1  0  0  0  0
 93 88  1  0  0  0  0
 94 89  1  0  0  0  0
 95  5  1  0  0  0  0
 96 95  4  0  0  0  0
 97 96  4  0  0  0  0
 98 97  4  0  0  0  0
 99 98  4  0  0  0  0
100 95  4  0  0  0  0
101 96  1  0  0  0  0
102 97  1  0  0  0  0
103 98  1  0  0  0  0
104 99  1  0  0  0  0
105100  1  0  0  0  0
  2 10  1  0  0  0  0
  9 10  1  0  0  0  0
  9 11  1  0  0  0  0
  9 13  1  0  0  0  0
 10 11  1  0  0  0  0
 11 12  1  0  0  0  0
 12 13  1  0  0  0  0
 12 19  1  0  0  0  0
 13 20  1  0  0  0  0
 33 34  4  0  0  0  0
 44 45  4  0  0  0  0
 55 56  4  0  0  0  0
 66 67  4  0  0  0  0
 77 78  4  0  0  0  0
 88 89  4  0  0  0  0
 99100  4  0  0  0  0
M  END
$$$$
CACZAL

From CSD data. Using bond type 'Any'. No disordered atoms. Largest molecule.
189198  0  0  0  0  0  0  0  0999 V2000
    4.1049   18.5691    0.2177 P   0  3  0  0  0  0  0  0  0  0  0  0
    5.3465   17.4877   -3.9026 P   0  3  0  0  0  0  0  0  0  0  0  0
    2.8606   15.9129   -0.7579 Si  0  0  0  0  0  0  0  0  0  0  0  0
    5.6229   15.0752   -1.9596 Si  0  0  0  0  0  0  0  0  0  0  0  0
   -0.1300   18.0540   -0.2375 B   0  5  0  0  0  0  0  0  0  0  0  0
    9.0818   15.5007   -3.3201 B   0  5  0  0  0  0  0  0  0  0  0  0
   -1.3312   15.2564   -1.0564 F   0  0  0  0  0  0  0  0  0  0  0  0
   -1.4324   13.1648    0.5387 F   0  0  0  0  0  0  0  0  0  0  0  0
   -0.4797   13.2771    3.0845 F   0  0  0  0  0  0  0  0  0  0  0  0
    0.5985   15.6270    4.0070 F   0  0  0  0  0  0  0  0  0  0  0  0
    0.5986   17.7817    2.4599 F   0  0  0  0  0  0  0  0  0  0  0  0
    0.1660   20.8279   -0.9782 F   0  0  0  0  0  0  0  0  0  0  0  0
   -0.9505   22.9763    0.1170 F   0  0  0  0  0  0  0  0  0  0  0  0
   -2.7594   22.7157    2.1382 F   0  0  0  0  0  0  0  0  0  0  0  0
   -3.3931   20.2302    3.0544 F   0  0  0  0  0  0  0  0  0  0  0  0
   -2.2886   18.0704    2.0105 F   0  0  0  0  0  0  0  0  0  0  0  0
   -2.8914   17.5553   -0.8581 F   0  0  0  0  0  0  0  0  0  0  0  0
   -4.0274   17.3202   -3.2572 F   0  0  0  0  0  0  0  0  0  0  0  0
   -2.5594   17.7205   -5.5225 F   0  0  0  0  0  0  0  0  0  0  0  0
    0.0976   18.2667   -5.3172 F   0  0  0  0  0  0  0  0  0  0  0  0
    1.2729   18.4410   -2.9475 F   0  0  0  0  0  0  0  0  0  0  0  0
    7.9325   14.4318   -5.7101 F   0  0  0  0  0  0  0  0  0  0  0  0
    7.1600   11.9386   -6.2171 F   0  0  0  0  0  0  0  0  0  0  0  0
    7.3776   10.0016   -4.3052 F   0  0  0  0  0  0  0  0  0  0  0  0
    8.4739   10.6267   -1.8991 F   0  0  0  0  0  0  0  0  0  0  0  0
    9.3151   13.0708   -1.3833 F   0  0  0  0  0  0  0  0  0  0  0  0
   10.7000   13.9397   -5.4771 F   0  0  0  0  0  0  0  0  0  0  0  0
   12.2347   15.0415   -7.3166 F   0  0  0  0  0  0  0  0  0  0  0  0
   12.6398   17.7189   -7.3849 F   0  0  0  0  0  0  0  0  0  0  0  0
   11.4687   19.3006   -5.4825 F   0  0  0  0  0  0  0  0  0  0  0  0
    9.8936   18.2350   -3.6364 F   0  0  0  0  0  0  0  0  0  0  0  0
   11.5397   14.2715   -2.5330 F   0  0  0  0  0  0  0  0  0  0  0  0
   13.0039   14.7243   -0.3413 F   0  0  0  0  0  0  0  0  0  0  0  0
   12.1842   16.5464    1.5034 F   0  0  0  0  0  0  0  0  0  0  0  0
    9.8361   17.8733    1.1297 F   0  0  0  0  0  0  0  0  0  0  0  0
    8.3551   17.4377   -1.0185 F   0  0  0  0  0  0  0  0  0  0  0  0
    4.3806   15.9856   -1.3913 O   0  0  0  0  0  0  0  0  0  0  0  0
    2.5926   17.7161   -0.2550 C   0  0  0  0  0  0  0  0  0  0  0  0
    1.4636   18.4583   -0.1512 C   0  0  0  0  0  0  0  0  0  0  0  0
    1.6201   19.3825    0.0000 H   0  0  0  0  0  0  0  0  0  0  0  0
    2.9254   14.7750    0.7067 C   0  0  0  0  0  0  0  0  0  0  0  0
    3.3173   13.9180    0.4374 H   0  0  0  0  0  0  0  0  0  0  0  0
    2.0188   14.6275    1.0461 H   0  0  0  0  0  0  0  0  0  0  0  0
    3.4756   15.1788    1.4093 H   0  0  0  0  0  0  0  0  0  0  0  0
    1.7379   15.3606   -2.1304 C   0  0  0  0  0  0  0  0  0  0  0  0
    1.8583   14.4004   -2.2841 H   0  0  0  0  0  0  0  0  0  0  0  0
    1.9568   15.8526   -2.9485 H   0  0  0  0  0  0  0  0  0  0  0  0
    0.8074   15.5362   -1.8818 H   0  0  0  0  0  0  0  0  0  0  0  0
    4.6399   17.9808    1.8221 C   0  0  0  0  0  0  0  0  0  0  0  0
    5.9335   17.5165    2.0425 C   0  0  0  0  0  0  0  0  0  0  0  0
    6.5976   17.5985    1.3680 H   0  0  0  0  0  0  0  0  0  0  0  0
    6.2383   16.9287    3.2690 C   0  0  0  0  0  0  0  0  0  0  0  0
    7.1217   16.6081    3.4169 H   0  0  0  0  0  0  0  0  0  0  0  0
    5.2993   16.7942    4.2788 C   0  0  0  0  0  0  0  0  0  0  0  0
    4.0297   17.3024    4.0526 C   0  0  0  0  0  0  0  0  0  0  0  0
    3.3761   17.2488    4.7416 H   0  0  0  0  0  0  0  0  0  0  0  0
    3.6931   17.8889    2.8387 C   0  0  0  0  0  0  0  0  0  0  0  0
    2.8163   18.2263    2.7030 H   0  0  0  0  0  0  0  0  0  0  0  0
    5.6442   16.0476    5.5859 C   0  0  0  0  0  0  0  0  0  0  0  0
    5.8045   14.5561    5.2415 C   0  0  0  0  0  0  0  0  0  0  0  0
    4.9847   14.2294    4.8138 H   0  0  0  0  0  0  0  0  0  0  0  0
    5.9686   14.0481    6.0621 H   0  0  0  0  0  0  0  0  0  0  0  0
    6.5597   14.4412    4.6281 H   0  0  0  0  0  0  0  0  0  0  0  0
    6.9732   16.5819    6.1512 C   0  0  0  0  0  0  0  0  0  0  0  0
    6.8898   17.5423    6.3303 H   0  0  0  0  0  0  0  0  0  0  0  0
    7.6902   16.4320    5.4988 H   0  0  0  0  0  0  0  0  0  0  0  0
    7.1867   16.1130    6.9844 H   0  0  0  0  0  0  0  0  0  0  0  0
    4.5625   16.1957    6.6471 C   0  0  0  0  0  0  0  0  0  0  0  0
    3.7245   15.8118    6.3159 H   0  0  0  0  0  0  0  0  0  0  0  0
    4.4287   17.1467    6.8482 H   0  0  0  0  0  0  0  0  0  0  0  0
    4.8391   15.7250    7.4610 H   0  0  0  0  0  0  0  0  0  0  0  0
    3.9444   20.3494    0.1327 C   0  0  0  0  0  0  0  0  0  0  0  0
    3.6844   21.1204    1.2514 C   0  0  0  0  0  0  0  0  0  0  0  0
    3.6791   20.7225    2.1129 H   0  0  0  0  0  0  0  0  0  0  0  0
    3.4319   22.4808    1.1107 C   0  0  0  0  0  0  0  0  0  0  0  0
    3.2466   22.9992    1.8838 H   0  0  0  0  0  0  0  0  0  0  0  0
    3.4452   23.1008   -0.1339 C   0  0  0  0  0  0  0  0  0  0  0  0
    3.7638   22.3157   -1.2440 C   0  0  0  0  0  0  0  0  0  0  0  0
    3.8250   22.7236   -2.1005 H   0  0  0  0  0  0  0  0  0  0  0  0
    3.9922   20.9612   -1.1256 C   0  0  0  0  0  0  0  0  0  0  0  0
    4.1820   20.4418   -1.8983 H   0  0  0  0  0  0  0  0  0  0  0  0
    3.1272   24.5883   -0.3237 C   0  0  0  0  0  0  0  0  0  0  0  0
    4.3927   25.3208   -0.7901 C   0  0  0  0  0  0  0  0  0  0  0  0
    5.0649   25.2989   -0.0763 H   0  0  0  0  0  0  0  0  0  0  0  0
    4.1713   26.2509   -1.0028 H   0  0  0  0  0  0  0  0  0  0  0  0
    4.7494   24.8803   -1.5888 H   0  0  0  0  0  0  0  0  0  0  0  0
    2.6257   25.2320    0.9652 C   0  0  0  0  0  0  0  0  0  0  0  0
    3.3035   25.1304    1.6672 H   0  0  0  0  0  0  0  0  0  0  0  0
    1.7953   24.7961    1.2463 H   0  0  0  0  0  0  0  0  0  0  0  0
    2.4577   26.1846    0.8109 H   0  0  0  0  0  0  0  0  0  0  0  0
    2.0338   24.7381   -1.4066 C   0  0  0  0  0  0  0  0  0  0  0  0
    1.2249   24.2652   -1.1204 H   0  0  0  0  0  0  0  0  0  0  0  0
    2.3557   24.3571   -2.2511 H   0  0  0  0  0  0  0  0  0  0  0  0
    1.8296   25.6869   -1.5351 H   0  0  0  0  0  0  0  0  0  0  0  0
   -0.3288   16.6505    0.6064 C   0  0  0  0  0  0  0  0  0  0  0  0
   -0.8547   15.4346    0.1925 C   0  0  0  0  0  0  0  0  0  0  0  0
   -0.9191   14.3159    1.0079 C   0  0  0  0  0  0  0  0  0  0  0  0
   -0.4377   14.3631    2.2907 C   0  0  0  0  0  0  0  0  0  0  0  0
    0.0924   15.5471    2.7622 C   0  0  0  0  0  0  0  0  0  0  0  0
    0.1168   16.6352    1.9243 C   0  0  0  0  0  0  0  0  0  0  0  0
   -0.9487   19.3185    0.4808 C   0  0  0  0  0  0  0  0  0  0  0  0
   -0.6962   20.6171    0.0433 C   0  0  0  0  0  0  0  0  0  0  0  0
   -1.2674   21.7601    0.5833 C   0  0  0  0  0  0  0  0  0  0  0  0
   -2.1842   21.6286    1.6045 C   0  0  0  0  0  0  0  0  0  0  0  0
   -2.4989   20.3718    2.0642 C   0  0  0  0  0  0  0  0  0  0  0  0
   -1.8979   19.2570    1.4951 C   0  0  0  0  0  0  0  0  0  0  0  0
   -0.7444   17.9846   -1.7644 C   0  0  0  0  0  0  0  0  0  0  0  0
   -2.1091   17.7376   -1.9453 C   0  0  0  0  0  0  0  0  0  0  0  0
   -2.7246   17.6339   -3.1701 C   0  0  0  0  0  0  0  0  0  0  0  0
   -1.9861   17.8225   -4.3159 C   0  0  0  0  0  0  0  0  0  0  0  0
   -0.6429   18.0954   -4.2084 C   0  0  0  0  0  0  0  0  0  0  0  0
   -0.0591   18.1773   -2.9514 C   0  0  0  0  0  0  0  0  0  0  0  0
    6.4395   16.2748   -3.1689 C   0  0  0  0  0  0  0  0  0  0  0  0
    7.7320   16.4029   -3.5646 C   0  0  0  0  0  0  0  0  0  0  0  0
    7.8881   17.1773   -4.0937 H   0  0  0  0  0  0  0  0  0  0  0  0
    6.6625   14.6293   -0.5049 C   0  0  0  0  0  0  0  0  0  0  0  0
    6.2079   13.9409    0.0227 H   0  0  0  0  0  0  0  0  0  0  0  0
    6.8073   15.4239    0.0495 H   0  0  0  0  0  0  0  0  0  0  0  0
    7.5269   14.2855   -0.8150 H   0  0  0  0  0  0  0  0  0  0  0  0
    4.9425   13.5885   -2.8352 C   0  0  0  0  0  0  0  0  0  0  0  0
    4.4036   13.0604   -2.2098 H   0  0  0  0  0  0  0  0  0  0  0  0
    5.6827   13.0425   -3.1714 H   0  0  0  0  0  0  0  0  0  0  0  0
    4.3838   13.8797   -3.5861 H   0  0  0  0  0  0  0  0  0  0  0  0
    4.5493   16.9198   -5.3989 C   0  0  0  0  0  0  0  0  0  0  0  0
    3.2199   17.2376   -5.6377 C   0  0  0  0  0  0  0  0  0  0  0  0
    2.7307   17.7465   -5.0015 H   0  0  0  0  0  0  0  0  0  0  0  0
    2.6098   16.8121   -6.8030 C   0  0  0  0  0  0  0  0  0  0  0  0
    1.6943   17.0216   -6.9493 H   0  0  0  0  0  0  0  0  0  0  0  0
    3.2993   16.0900   -7.7644 C   0  0  0  0  0  0  0  0  0  0  0  0
    4.6338   15.8042   -7.5209 C   0  0  0  0  0  0  0  0  0  0  0  0
    5.1328   15.3243   -8.1708 H   0  0  0  0  0  0  0  0  0  0  0  0
    5.2569   16.2018   -6.3495 C   0  0  0  0  0  0  0  0  0  0  0  0
    6.1675   15.9828   -6.1983 H   0  0  0  0  0  0  0  0  0  0  0  0
    2.5690   15.6357   -9.0416 C   0  0  0  0  0  0  0  0  0  0  0  0
    1.9021   16.4805   -9.6956 C   0  0  0  0  0  0  0  0  0  0  0  0
    1.5573   16.0645  -10.5127 H   0  0  0  0  0  0  0  0  0  0  0  0
    2.4765   17.2386   -9.9329 H   0  0  0  0  0  0  0  0  0  0  0  0
    1.1517   16.7970   -9.1489 H   0  0  0  0  0  0  0  0  0  0  0  0
    3.4970   15.2197  -10.1578 C   0  0  0  0  0  0  0  0  0  0  0  0
    4.0443   14.4616   -9.8628 H   0  0  0  0  0  0  0  0  0  0  0  0
    4.0818   15.9701  -10.3951 H   0  0  0  0  0  0  0  0  0  0  0  0
    2.9695   14.9568  -10.9398 H   0  0  0  0  0  0  0  0  0  0  0  0
    1.5695   14.3927   -8.5010 C   0  0  0  0  0  0  0  0  0  0  0  0
    2.1048   13.7291   -8.0202 H   0  0  0  0  0  0  0  0  0  0  0  0
    1.1331   13.9665   -9.2685 H   0  0  0  0  0  0  0  0  0  0  0  0
    0.8860   14.7602   -7.9026 H   0  0  0  0  0  0  0  0  0  0  0  0
    6.1762   19.0507   -4.1675 C   0  0  0  0  0  0  0  0  0  0  0  0
    6.1386   19.7126   -5.3791 C   0  0  0  0  0  0  0  0  0  0  0  0
    5.6644   19.3366   -6.1116 H   0  0  0  0  0  0  0  0  0  0  0  0
    6.7905   20.9201   -5.5234 C   0  0  0  0  0  0  0  0  0  0  0  0
    6.7558   21.3657   -6.3613 H   0  0  0  0  0  0  0  0  0  0  0  0
    7.4948   21.5010   -4.4830 C   0  0  0  0  0  0  0  0  0  0  0  0
    7.5178   20.8233   -3.2613 C   0  0  0  0  0  0  0  0  0  0  0  0
    7.9847   21.2049   -2.5276 H   0  0  0  0  0  0  0  0  0  0  0  0
    6.8792   19.6143   -3.0954 C   0  0  0  0  0  0  0  0  0  0  0  0
    6.9158   19.1656   -2.2594 H   0  0  0  0  0  0  0  0  0  0  0  0
    8.2531   22.8257   -4.6219 C   0  0  0  0  0  0  0  0  0  0  0  0
    8.2045   23.3609   -6.0497 C   0  0  0  0  0  0  0  0  0  0  0  0
    7.2723   23.4969   -6.3159 H   0  0  0  0  0  0  0  0  0  0  0  0
    8.6269   22.7159   -6.6543 H   0  0  0  0  0  0  0  0  0  0  0  0
    8.6857   24.2141   -6.0951 H   0  0  0  0  0  0  0  0  0  0  0  0
    9.7237   22.6049   -4.2216 C   0  0  0  0  0  0  0  0  0  0  0  0
    9.7672   22.3177   -3.2848 H   0  0  0  0  0  0  0  0  0  0  0  0
   10.2204   23.4433   -4.3289 H   0  0  0  0  0  0  0  0  0  0  0  0
   10.1180   21.9145   -4.7931 H   0  0  0  0  0  0  0  0  0  0  0  0
    7.6211   23.8568   -3.6686 C   0  0  0  0  0  0  0  0  0  0  0  0
    6.6849   24.0023   -3.9204 H   0  0  0  0  0  0  0  0  0  0  0  0
    8.1127   24.7016   -3.7326 H   0  0  0  0  0  0  0  0  0  0  0  0
    7.6646   23.5199   -2.7504 H   0  0  0  0  0  0  0  0  0  0  0  0
    8.6638   13.9157   -3.5168 C   0  0  0  0  0  0  0  0  0  0  0  0
    8.0869   13.5231   -4.7207 C   0  0  0  0  0  0  0  0  0  0  0  0
    7.6742   12.2372   -5.0127 C   0  0  0  0  0  0  0  0  0  0  0  0
    7.7965   11.2592   -4.0503 C   0  0  0  0  0  0  0  0  0  0  0  0
    8.3461   11.5787   -2.8439 C   0  0  0  0  0  0  0  0  0  0  0  0
    8.7728   12.8769   -2.5984 C   0  0  0  0  0  0  0  0  0  0  0  0
   10.1482   16.0285   -4.4818 C   0  0  0  0  0  0  0  0  0  0  0  0
   10.8203   15.2832   -5.4346 C   0  0  0  0  0  0  0  0  0  0  0  0
   11.6470   15.8248   -6.4011 C   0  0  0  0  0  0  0  0  0  0  0  0
   11.8552   17.1840   -6.4446 C   0  0  0  0  0  0  0  0  0  0  0  0
   11.2532   17.9754   -5.4949 C   0  0  0  0  0  0  0  0  0  0  0  0
   10.4302   17.3899   -4.5544 C   0  0  0  0  0  0  0  0  0  0  0  0
    9.8644   15.8075   -1.8892 C   0  0  0  0  0  0  0  0  0  0  0  0
   11.0769   15.1732   -1.6505 C   0  0  0  0  0  0  0  0  0  0  0  0
   11.8575   15.4083   -0.5212 C   0  0  0  0  0  0  0  0  0  0  0  0
   11.4458   16.3187    0.4063 C   0  0  0  0  0  0  0  0  0  0  0  0
   10.2608   16.9867    0.2144 C   0  0  0  0  0  0  0  0  0  0  0  0
    9.5054   16.7230   -0.9184 C   0  0  0  0  0  0  0  0  0  0  0  0
    5.0921   18.2544   -0.6149 H   0  0  0  0  0  0  0  0  0  0  0  0
    4.4361   17.7312   -3.1404 H   0  0  0  0  0  0  0  0  0  0  0  0
  1 38  1  0  0  0  0
  2113  1  0  0  0  0
  3 37  1  0  0  0  0
  4 37  1  0  0  0  0
  5 39  1  0  0  0  0
  6114  1  0  0  0  0
  7 96  1  0  0  0  0
  8 97  1  0  0  0  0
  9 98  1  0  0  0  0
 10 99  1  0  0  0  0
 11100  1  0  0  0  0
 12102  1  0  0  0  0
 13103  1  0  0  0  0
 14104  1  0  0  0  0
 15105  1  0  0  0  0
 16106  1  0  0  0  0
 17108  1  0  0  0  0
 18109  1  0  0  0  0
 19110  1  0  0  0  0
 20111  1  0  0  0  0
 21112  1  0  0  0  0
 22171  1  0  0  0  0
 23172  1  0  0  0  0
 24173  1  0  0  0  0
 25174  1  0  0  0  0
 26175  1  0  0  0  0
 27177  1  0  0  0  0
 28178  1  0  0  0  0
 29179  1  0  0  0  0
 30180  1  0  0  0  0
 31181  1  0  0  0  0
 32183  1  0  0  0  0
 33184  1  0  0  0  0
 34185  1  0  0  0  0
 35186  1  0  0  0  0
 36187  1  0  0  0  0
 38  3  1  0  0  0  0
 39 38  2  0  0  0  0
 40 39  1  0  0  0  0
 41  3  1  0  0  0  0
 42 41  1  0  0  0  0
 43 41  1  0  0  0  0
 44 41  1  0  0  0  0
 45  3  1  0  0  0  0
 46 45  1  0  0  0  0
 47 45  1  0  0  0  0
 48 45  1  0  0  0  0
 49  1  1  0  0  0  0
 50 49  4  0  0  0  0
 51 50  1  0  0  0  0
 52 50  4  0  0  0  0
 53 52  1  0  0  0  0
 54 52  4  0  0  0  0
 55 54  4  0  0  0  0
 56 55  1  0  0  0  0
 57 49  4  0  0  0  0
 58 57  1  0  0  0  0
 59 54  1  0  0  0  0
 60 59  1  0  0  0  0
 61 60  1  0  0  0  0
 62 60  1  0  0  0  0
 63 60  1  0  0  0  0
 64 59  1  0  0  0  0
 65 64  1  0  0  0  0
 66 64  1  0  0  0  0
 67 64  1  0  0  0  0
 68 59  1  0  0  0  0
 69 68  1  0  0  0  0
 70 68  1  0  0  0  0
 71 68  1  0  0  0  0
 72  1  1  0  0  0  0
 73 72  4  0  0  0  0
 74 73  1  0  0  0  0
 75 73  4  0  0  0  0
 76 75  1  0  0  0  0
 77 75  4  0  0  0  0
 78 77  4  0  0  0  0
 79 78  1  0  0  0  0
 80 72  4  0  0  0  0
 81 80  1  0  0  0  0
 82 77  1  0  0  0  0
 83 82  1  0  0  0  0
 84 83  1  0  0  0  0
 85 83  1  0  0  0  0
 86 83  1  0  0  0  0
 87 82  1  0  0  0  0
 88 87  1  0  0  0  0
 89 87  1  0  0  0  0
 90 87  1  0  0  0  0
 91 82  1  0  0  0  0
 92 91  1  0  0  0  0
 93 91  1  0  0  0  0
 94 91  1  0  0  0  0
 95  5  1  0  0  0  0
 96 95  4  0  0  0  0
 97 96  4  0  0  0  0
 98 97  4  0  0  0  0
 99 98  4  0  0  0  0
100 95  4  0  0  0  0
101  5  1  0  0  0  0
102101  4  0  0  0  0
103102  4  0  0  0  0
104103  4  0  0  0  0
105104  4  0  0  0  0
106101  4  0  0  0  0
107  5  1  0  0  0  0
108107  4  0  0  0  0
109108  4  0  0  0  0
110109  4  0  0  0  0
111110  4  0  0  0  0
112107  4  0  0  0  0
113  4  1  0  0  0  0
114113  2  0  0  0  0
115114  1  0  0  0  0
116  4  1  0  0  0  0
117116  1  0  0  0  0
118116  1  0  0  0  0
119116  1  0  0  0  0
120  4  1  0  0  0  0
121120  1  0  0  0  0
122120  1  0  0  0  0
123120  1  0  0  0  0
124  2  1  0  0  0  0
125124  4  0  0  0  0
126125  1  0  0  0  0
127125  4  0  0  0  0
128127  1  0  0  0  0
129127  4  0  0  0  0
130129  4  0  0  0  0
131130  1  0  0  0  0
132124  4  0  0  0  0
133132  1  0  0  0  0
134129  1  0  0  0  0
135134  1  0  0  0  0
136135  1  0  0  0  0
137135  1  0  0  0  0
138135  1  0  0  0  0
139134  1  0  0  0  0
140139  1  0  0  0  0
141139  1  0  0  0  0
142139  1  0  0  0  0
143134  1  0  0  0  0
144143  1  0  0  0  0
145143  1  0  0  0  0
146143  1  0  0  0  0
147  2  1  0  0  0  0
148147  4  0  0  0  0
149148  1  0  0  0  0
150148  4  0  0  0  0
151150  1  0  0  0  0
152150  4  0  0  0  0
153152  4  0  0  0  0
154153  1  0  0  0  0
155147  4  0  0  0  0
156155  1  0  0  0  0
157152  1  0  0  0  0
158157  1  0  0  0  0
159158  1  0  0  0  0
160158  1  0  0  0  0
161158  1  0  0  0  0
162157  1  0  0  0  0
163162  1  0  0  0  0
164162  1  0  0  0  0
165162  1  0  0  0  0
166157  1  0  0  0  0
167166  1  0  0  0  0
168166  1  0  0  0  0
169166  1  0  0  0  0
170  6  1  0  0  0  0
171170  4  0  0  0  0
172171  4  0  0  0  0
173172  4  0  0  0  0
174173  4  0  0  0  0
175170  4  0  0  0  0
176  6  1  0  0  0  0
177176  4  0  0  0  0
178177  4  0  0  0  0
179178  4  0  0  0  0
180179  4  0  0  0  0
181176  4  0  0  0  0
182  6  1  0  0  0  0
183182  4  0  0  0  0
184183  4  0  0  0  0
185184  4  0  0  0  0
186185  4  0  0  0  0
187182  4  0  0  0  0
188  1  1  0  0  0  0
189  2  1  0  0  0  0
 55 57  4  0  0  0  0
 78 80  4  0  0  0  0
 99100  4  0  0  0  0
105106  4  0  0  0  0
111112  4  0  0  0  0
130132  4  0  0  0  0
153155  4  0  0  0  0
174175  4  0  0  0  0
180181  4  0  0  0  0
186187  4  0  0  0  0
M  CHG  4   1   1   2   1   5  -1   6  -1
M  END
$$$$
CAPREU

From CSD data. Using bond type 'Any'. No disordered atoms. Largest molecule.
256268  0  0  0  0  0  0  0  0999 V2000
    1.5157    9.2382   17.2233 Fe  0  3  0  0  0  0  0  0  0  0  0  0
   -0.1048   10.4495   18.2066 P   0  0  0  0  0  0  0  0  0  0  0  0
   -0.0924    7.2461   15.0538 S   0  0  0  0  0  0  0  0  0  0  0  0
    3.0207   10.6506   16.1432 P   0  0  0  0  0  0  0  0  0  0  0  0
    2.1115    7.4705   18.4469 P   0  0  0  0  0  0  0  0  0  0  0  0
   -0.1695    7.1658   12.2308 Na  0  0  0  0  0  0  0  0  0  0  0  0
    2.6462    9.2452   20.3509 C   0  0  0  0  0  0  0  0  0  0  0  0
   -0.6580    9.3275   11.5875 O   0  0  0  0  0  0  0  0  0  0  0  0
   -1.3247    9.8143   19.4940 C   0  0  0  0  0  0  0  0  0  0  0  0
   -1.7758    9.0175   19.0924 H   0  0  0  0  0  0  0  0  0  0  0  0
    1.7002    6.6145   11.2300 O   0  0  0  0  0  0  0  0  0  0  0  0
    3.7432    6.8066   17.8141 C   0  0  0  0  0  0  0  0  0  0  0  0
    4.2265    7.5938   17.4325 H   0  0  0  0  0  0  0  0  0  0  0  0
    2.8489   12.5185   15.8547 C   0  0  0  0  0  0  0  0  0  0  0  0
    2.1179   12.7963   16.4763 H   0  0  0  0  0  0  0  0  0  0  0  0
    0.9803    5.9973   18.3522 C   0  0  0  0  0  0  0  0  0  0  0  0
    0.9384    5.7632   17.3820 H   0  0  0  0  0  0  0  0  0  0  0  0
   -1.3315   11.2384   17.0360 C   0  0  0  0  0  0  0  0  0  0  0  0
   -1.8701   11.9074   17.5474 H   0  0  0  0  0  0  0  0  0  0  0  0
   -0.6389    9.3292   20.7622 C   0  0  0  0  0  0  0  0  0  0  0  0
    0.0608    8.6842   20.5281 H   0  0  0  0  0  0  0  0  0  0  0  0
   -1.2976    8.8986   21.3468 H   0  0  0  0  0  0  0  0  0  0  0  0
   -0.2388   10.0923   21.2291 H   0  0  0  0  0  0  0  0  0  0  0  0
    0.6831    8.3326   16.0453 C   0  0  0  0  0  0  0  0  0  0  0  0
    1.3782    4.6988   19.0593 C   0  0  0  0  0  0  0  0  0  0  0  0
    2.3350    4.5346   18.9270 H   0  0  0  0  0  0  0  0  0  0  0  0
    0.8637    3.9532   18.6858 H   0  0  0  0  0  0  0  0  0  0  0  0
    1.1896    4.7787   20.0177 H   0  0  0  0  0  0  0  0  0  0  0  0
    0.7064   11.8600   19.0226 C   0  0  0  0  0  0  0  0  0  0  0  0
    4.1402    8.6245   14.6004 C   0  0  0  0  0  0  0  0  0  0  0  0
    4.8586    8.6208   15.2678 H   0  0  0  0  0  0  0  0  0  0  0  0
    4.4964    8.3353   13.7340 H   0  0  0  0  0  0  0  0  0  0  0  0
    3.4299    8.0111   14.8836 H   0  0  0  0  0  0  0  0  0  0  0  0
    0.6411   11.0587   10.4485 C   0  0  0  0  0  0  0  0  0  0  0  0
    0.6732   11.5871    9.6233 H   0  0  0  0  0  0  0  0  0  0  0  0
    1.4607   10.5277   10.5290 H   0  0  0  0  0  0  0  0  0  0  0  0
    0.5660   11.6607   11.2188 H   0  0  0  0  0  0  0  0  0  0  0  0
    3.5788   10.0219   14.4740 C   0  0  0  0  0  0  0  0  0  0  0  0
    4.2979   10.6259   14.1294 H   0  0  0  0  0  0  0  0  0  0  0  0
   -0.4489    6.3693   18.7346 C   0  0  0  0  0  0  0  0  0  0  0  0
   -0.4824    6.6016   19.6869 H   0  0  0  0  0  0  0  0  0  0  0  0
   -1.0418    5.6081   18.5625 H   0  0  0  0  0  0  0  0  0  0  0  0
   -0.7400    7.1377   18.2008 H   0  0  0  0  0  0  0  0  0  0  0  0
   -2.2847   10.1851   16.4718 C   0  0  0  0  0  0  0  0  0  0  0  0
   -1.7703    9.5032   15.9912 H   0  0  0  0  0  0  0  0  0  0  0  0
   -2.9168   10.6130   15.8566 H   0  0  0  0  0  0  0  0  0  0  0  0
   -2.7778    9.7642   17.2053 H   0  0  0  0  0  0  0  0  0  0  0  0
   -0.6293   11.9604   15.8967 C   0  0  0  0  0  0  0  0  0  0  0  0
   -0.0800   12.6865   16.2604 H   0  0  0  0  0  0  0  0  0  0  0  0
   -1.2979   12.3312   15.2846 H   0  0  0  0  0  0  0  0  0  0  0  0
   -0.0577   11.3287   15.4136 H   0  0  0  0  0  0  0  0  0  0  0  0
    3.5598    5.8269   16.6515 C   0  0  0  0  0  0  0  0  0  0  0  0
    3.2996    4.9493   17.0006 H   0  0  0  0  0  0  0  0  0  0  0  0
    4.4024    5.7451   16.1566 H   0  0  0  0  0  0  0  0  0  0  0  0
    2.8608    6.1598   16.0501 H   0  0  0  0  0  0  0  0  0  0  0  0
    2.8765    9.7111   21.6511 C   0  0  0  0  0  0  0  0  0  0  0  0
    3.0249   10.6388   21.7871 H   0  0  0  0  0  0  0  0  0  0  0  0
   -2.4359   10.7901   19.8963 C   0  0  0  0  0  0  0  0  0  0  0  0
   -2.0379   11.5948   20.2897 H   0  0  0  0  0  0  0  0  0  0  0  0
   -3.0242   10.3623   20.5533 H   0  0  0  0  0  0  0  0  0  0  0  0
   -2.9572   11.0367   19.1036 H   0  0  0  0  0  0  0  0  0  0  0  0
    4.2572   10.2738   18.5142 C   0  0  0  0  0  0  0  0  0  0  0  0
   -1.3653    9.9770   12.6511 C   0  0  0  0  0  0  0  0  0  0  0  0
   -1.1289   10.9385   12.6601 H   0  0  0  0  0  0  0  0  0  0  0  0
   -1.0846    9.5859   13.5153 H   0  0  0  0  0  0  0  0  0  0  0  0
    2.4309    7.8713   20.1980 C   0  0  0  0  0  0  0  0  0  0  0  0
    2.4288    5.1082   13.0063 C   0  0  0  0  0  0  0  0  0  0  0  0
    2.0662    5.7502   13.6527 H   0  0  0  0  0  0  0  0  0  0  0  0
    3.2212    4.6741   13.3863 H   0  0  0  0  0  0  0  0  0  0  0  0
    1.7505    4.4312   12.8031 H   0  0  0  0  0  0  0  0  0  0  0  0
    5.8356   10.6901   16.6964 C   0  0  0  0  0  0  0  0  0  0  0  0
    5.9934   10.8946   15.7809 H   0  0  0  0  0  0  0  0  0  0  0  0
    2.4385    9.9928   13.4623 C   0  0  0  0  0  0  0  0  0  0  0  0
    1.7075    9.4399   13.8097 H   0  0  0  0  0  0  0  0  0  0  0  0
    2.7609    9.6143   12.6180 H   0  0  0  0  0  0  0  0  0  0  0  0
    2.1135   10.9049   13.3106 H   0  0  0  0  0  0  0  0  0  0  0  0
    2.4751    7.0033   21.2933 C   0  0  0  0  0  0  0  0  0  0  0  0
    2.3534    6.0693   21.1646 H   0  0  0  0  0  0  0  0  0  0  0  0
   -2.8486    9.8339   12.5019 C   0  0  0  0  0  0  0  0  0  0  0  0
   -3.1376   10.2719   11.6730 H   0  0  0  0  0  0  0  0  0  0  0  0
   -3.2963   10.2525   13.2657 H   0  0  0  0  0  0  0  0  0  0  0  0
   -3.0826    8.8831   12.4666 H   0  0  0  0  0  0  0  0  0  0  0  0
    4.5285   10.5397   17.1630 C   0  0  0  0  0  0  0  0  0  0  0  0
    4.6679    6.2348   18.8858 C   0  0  0  0  0  0  0  0  0  0  0  0
    4.8660    6.9272   19.5495 H   0  0  0  0  0  0  0  0  0  0  0  0
    5.5025    5.9337   18.4699 H   0  0  0  0  0  0  0  0  0  0  0  0
    4.2290    5.4764   19.3252 H   0  0  0  0  0  0  0  0  0  0  0  0
    5.3670   10.1251   19.3650 C   0  0  0  0  0  0  0  0  0  0  0  0
    5.2230    9.9334   20.2841 H   0  0  0  0  0  0  0  0  0  0  0  0
    2.0685   11.6334   19.2921 C   0  0  0  0  0  0  0  0  0  0  0  0
    2.8065    5.8252   11.7524 C   0  0  0  0  0  0  0  0  0  0  0  0
    3.5760    6.4207   11.9338 H   0  0  0  0  0  0  0  0  0  0  0  0
    3.0880    5.1637   11.0702 H   0  0  0  0  0  0  0  0  0  0  0  0
    6.9052   10.5416   17.5668 C   0  0  0  0  0  0  0  0  0  0  0  0
    7.7958   10.6388   17.2502 H   0  0  0  0  0  0  0  0  0  0  0  0
   -0.5520   10.1397   10.4101 C   0  0  0  0  0  0  0  0  0  0  0  0
   -1.3750   10.6814   10.3159 H   0  0  0  0  0  0  0  0  0  0  0  0
   -0.4822    9.5523    9.6177 H   0  0  0  0  0  0  0  0  0  0  0  0
    6.6694   10.2519   18.8961 C   0  0  0  0  0  0  0  0  0  0  0  0
    7.4004   10.1388   19.4934 H   0  0  0  0  0  0  0  0  0  0  0  0
    1.9095    6.3936    8.7928 C   0  0  0  0  0  0  0  0  0  0  0  0
    2.1058    6.9117    7.9858 H   0  0  0  0  0  0  0  0  0  0  0  0
    1.0128    6.0048    8.7204 H   0  0  0  0  0  0  0  0  0  0  0  0
    2.5696    5.6766    8.8887 H   0  0  0  0  0  0  0  0  0  0  0  0
    1.9676    7.2915    9.9881 C   0  0  0  0  0  0  0  0  0  0  0  0
    2.8678    7.7023   10.0355 H   0  0  0  0  0  0  0  0  0  0  0  0
    1.3092    8.0214    9.8729 H   0  0  0  0  0  0  0  0  0  0  0  0
    2.3957   12.9810   14.5356 C   0  0  0  0  0  0  0  0  0  0  0  0
    3.0737   12.7666   13.8630 H   0  0  0  0  0  0  0  0  0  0  0  0
    2.2561   13.9512   14.5612 H   0  0  0  0  0  0  0  0  0  0  0  0
    1.5532   12.5366   14.3060 H   0  0  0  0  0  0  0  0  0  0  0  0
    2.7229   10.1831   19.0327 B   0  5  0  0  0  0  0  0  0  0  0  0
    2.8941    8.8611   22.7421 C   0  0  0  0  0  0  0  0  0  0  0  0
    3.0411    9.2125   23.6125 H   0  0  0  0  0  0  0  0  0  0  0  0
    2.6984    7.5054   22.5722 C   0  0  0  0  0  0  0  0  0  0  0  0
    2.7159    6.9207   23.3209 H   0  0  0  0  0  0  0  0  0  0  0  0
    4.0876   13.3130   16.3448 C   0  0  0  0  0  0  0  0  0  0  0  0
    4.3024   13.0482   17.2642 H   0  0  0  0  0  0  0  0  0  0  0  0
    3.8916   14.2729   16.3193 H   0  0  0  0  0  0  0  0  0  0  0  0
    4.8509   13.1192   15.7613 H   0  0  0  0  0  0  0  0  0  0  0  0
    0.1441   13.1180   19.1709 C   0  0  0  0  0  0  0  0  0  0  0  0
   -0.7689   13.2588   18.9466 H   0  0  0  0  0  0  0  0  0  0  0  0
    0.9116   14.1773   19.6471 C   0  0  0  0  0  0  0  0  0  0  0  0
    0.5078   15.0196   19.8159 H   0  0  0  0  0  0  0  0  0  0  0  0
    2.2714   13.9977   19.8742 C   0  0  0  0  0  0  0  0  0  0  0  0
    2.8059   14.7251   20.1720 H   0  0  0  0  0  0  0  0  0  0  0  0
    2.8382   12.7640   19.6639 C   0  0  0  0  0  0  0  0  0  0  0  0
    3.7772   12.6645   19.7710 H   0  0  0  0  0  0  0  0  0  0  0  0
   -4.0133    3.6808   10.8167 Fe  0  3  0  0  0  0  0  0  0  0  0  0
   -2.3927    2.4695    9.8333 P   0  0  0  0  0  0  0  0  0  0  0  0
   -2.4052    5.6729   12.9862 S   0  0  0  0  0  0  0  0  0  0  0  0
   -5.5183    2.2684   11.8968 P   0  0  0  0  0  0  0  0  0  0  0  0
   -4.6090    5.4485    9.5930 P   0  0  0  0  0  0  0  0  0  0  0  0
   -2.3280    5.7532   15.8092 Na  0  0  0  0  0  0  0  0  0  0  0  0
   -5.1437    3.6738    7.6891 C   0  0  0  0  0  0  0  0  0  0  0  0
   -1.8395    3.5915   16.4525 O   0  0  0  0  0  0  0  0  0  0  0  0
   -1.1729    3.1047    8.5460 C   0  0  0  0  0  0  0  0  0  0  0  0
   -0.7218    3.9015    8.9476 H   0  0  0  0  0  0  0  0  0  0  0  0
   -4.1977    6.3045   16.8100 O   0  0  0  0  0  0  0  0  0  0  0  0
   -6.2407    6.1124   10.2259 C   0  0  0  0  0  0  0  0  0  0  0  0
   -6.7241    5.3252   10.6075 H   0  0  0  0  0  0  0  0  0  0  0  0
   -5.3465    0.4005   12.1853 C   0  0  0  0  0  0  0  0  0  0  0  0
   -4.6155    0.1227   11.5637 H   0  0  0  0  0  0  0  0  0  0  0  0
   -3.4778    6.9217    9.6878 C   0  0  0  0  0  0  0  0  0  0  0  0
   -3.4360    7.1558   10.6580 H   0  0  0  0  0  0  0  0  0  0  0  0
   -1.1661    1.6806   11.0040 C   0  0  0  0  0  0  0  0  0  0  0  0
   -0.6275    1.0116   10.4926 H   0  0  0  0  0  0  0  0  0  0  0  0
   -1.8587    3.5898    7.2778 C   0  0  0  0  0  0  0  0  0  0  0  0
   -2.5584    4.2348    7.5119 H   0  0  0  0  0  0  0  0  0  0  0  0
   -1.2000    4.0204    6.6931 H   0  0  0  0  0  0  0  0  0  0  0  0
   -2.2588    2.8267    6.8109 H   0  0  0  0  0  0  0  0  0  0  0  0
   -3.1807    4.5864   11.9947 C   0  0  0  0  0  0  0  0  0  0  0  0
   -3.8758    8.2202    8.9806 C   0  0  0  0  0  0  0  0  0  0  0  0
   -4.8326    8.3844    9.1130 H   0  0  0  0  0  0  0  0  0  0  0  0
   -3.3613    8.9658    9.3541 H   0  0  0  0  0  0  0  0  0  0  0  0
   -3.6871    8.1403    8.0222 H   0  0  0  0  0  0  0  0  0  0  0  0
   -3.2039    1.0590    9.0174 C   0  0  0  0  0  0  0  0  0  0  0  0
   -6.6378    4.2945   13.4396 C   0  0  0  0  0  0  0  0  0  0  0  0
   -7.3562    4.2982   12.7722 H   0  0  0  0  0  0  0  0  0  0  0  0
   -6.9939    4.5837   14.3060 H   0  0  0  0  0  0  0  0  0  0  0  0
   -5.9274    4.9079   13.1564 H   0  0  0  0  0  0  0  0  0  0  0  0
   -3.1387    1.8603   17.5914 C   0  0  0  0  0  0  0  0  0  0  0  0
   -3.1707    1.3319   18.4167 H   0  0  0  0  0  0  0  0  0  0  0  0
   -3.9583    2.3913   17.5110 H   0  0  0  0  0  0  0  0  0  0  0  0
   -3.0636    1.2583   16.8212 H   0  0  0  0  0  0  0  0  0  0  0  0
   -6.0764    2.8971   13.5660 C   0  0  0  0  0  0  0  0  0  0  0  0
   -6.7954    2.2931   13.9106 H   0  0  0  0  0  0  0  0  0  0  0  0
   -2.0487    6.5497    9.3054 C   0  0  0  0  0  0  0  0  0  0  0  0
   -2.0152    6.3174    8.3531 H   0  0  0  0  0  0  0  0  0  0  0  0
   -1.4558    7.3109    9.4775 H   0  0  0  0  0  0  0  0  0  0  0  0
   -1.7575    5.7813    9.8392 H   0  0  0  0  0  0  0  0  0  0  0  0
   -0.2129    2.7339   11.5682 C   0  0  0  0  0  0  0  0  0  0  0  0
   -0.7272    3.4158   12.0488 H   0  0  0  0  0  0  0  0  0  0  0  0
    0.4192    2.3060   12.1834 H   0  0  0  0  0  0  0  0  0  0  0  0
    0.2802    3.1548   10.8347 H   0  0  0  0  0  0  0  0  0  0  0  0
   -1.8683    0.9586   12.1433 C   0  0  0  0  0  0  0  0  0  0  0  0
   -2.4176    0.2325   11.7796 H   0  0  0  0  0  0  0  0  0  0  0  0
   -1.1996    0.5878   12.7554 H   0  0  0  0  0  0  0  0  0  0  0  0
   -2.4399    1.5903   12.6264 H   0  0  0  0  0  0  0  0  0  0  0  0
   -6.0574    7.0921   11.3884 C   0  0  0  0  0  0  0  0  0  0  0  0
   -5.7972    7.9697   11.0393 H   0  0  0  0  0  0  0  0  0  0  0  0
   -6.8999    7.1739   11.8833 H   0  0  0  0  0  0  0  0  0  0  0  0
   -5.3584    6.7592   11.9899 H   0  0  0  0  0  0  0  0  0  0  0  0
   -5.3740    3.2079    6.3889 C   0  0  0  0  0  0  0  0  0  0  0  0
   -5.5225    2.2802    6.2529 H   0  0  0  0  0  0  0  0  0  0  0  0
   -0.0617    2.1289    8.1437 C   0  0  0  0  0  0  0  0  0  0  0  0
   -0.4597    1.3242    7.7503 H   0  0  0  0  0  0  0  0  0  0  0  0
    0.5266    2.5567    7.4867 H   0  0  0  0  0  0  0  0  0  0  0  0
    0.4597    1.8823    8.9363 H   0  0  0  0  0  0  0  0  0  0  0  0
   -6.7547    2.6452    9.5257 C   0  0  0  0  0  0  0  0  0  0  0  0
   -1.1323    2.9420   15.3889 C   0  0  0  0  0  0  0  0  0  0  0  0
   -1.3686    1.9805   15.3799 H   0  0  0  0  0  0  0  0  0  0  0  0
   -1.4130    3.3331   14.5247 H   0  0  0  0  0  0  0  0  0  0  0  0
   -4.9285    5.0477    7.8419 C   0  0  0  0  0  0  0  0  0  0  0  0
   -4.9264    7.8108   15.0336 C   0  0  0  0  0  0  0  0  0  0  0  0
   -4.5638    7.1688   14.3873 H   0  0  0  0  0  0  0  0  0  0  0  0
   -5.7187    8.2449   14.6537 H   0  0  0  0  0  0  0  0  0  0  0  0
   -4.2481    8.4878   15.2369 H   0  0  0  0  0  0  0  0  0  0  0  0
   -8.3332    2.2289   11.3436 C   0  0  0  0  0  0  0  0  0  0  0  0
   -8.4910    2.0244   12.2591 H   0  0  0  0  0  0  0  0  0  0  0  0
   -4.9360    2.9262   14.5777 C   0  0  0  0  0  0  0  0  0  0  0  0
   -4.2051    3.4791   14.2303 H   0  0  0  0  0  0  0  0  0  0  0  0
   -5.2585    3.3047   15.4220 H   0  0  0  0  0  0  0  0  0  0  0  0
   -4.6111    2.0141   14.7294 H   0  0  0  0  0  0  0  0  0  0  0  0
   -4.9727    5.9157    6.7467 C   0  0  0  0  0  0  0  0  0  0  0  0
   -4.8510    6.8497    6.8754 H   0  0  0  0  0  0  0  0  0  0  0  0
    0.3511    3.0851   15.5381 C   0  0  0  0  0  0  0  0  0  0  0  0
    0.6401    2.6471   16.3669 H   0  0  0  0  0  0  0  0  0  0  0  0
    0.7988    2.6665   14.7743 H   0  0  0  0  0  0  0  0  0  0  0  0
    0.5851    4.0359   15.5734 H   0  0  0  0  0  0  0  0  0  0  0  0
   -7.0260    2.3793   10.8770 C   0  0  0  0  0  0  0  0  0  0  0  0
   -7.1654    6.6842    9.1542 C   0  0  0  0  0  0  0  0  0  0  0  0
   -7.3635    5.9918    8.4905 H   0  0  0  0  0  0  0  0  0  0  0  0
   -8.0001    6.9853    9.5700 H   0  0  0  0  0  0  0  0  0  0  0  0
   -6.7266    7.4426    8.7148 H   0  0  0  0  0  0  0  0  0  0  0  0
   -7.8646    2.7939    8.6750 C   0  0  0  0  0  0  0  0  0  0  0  0
   -7.7205    2.9856    7.7559 H   0  0  0  0  0  0  0  0  0  0  0  0
   -4.5660    1.2856    8.7479 C   0  0  0  0  0  0  0  0  0  0  0  0
   -5.3041    7.0938   16.2876 C   0  0  0  0  0  0  0  0  0  0  0  0
   -6.0736    6.4983   16.1062 H   0  0  0  0  0  0  0  0  0  0  0  0
   -5.5855    7.7553   16.9698 H   0  0  0  0  0  0  0  0  0  0  0  0
   -9.4027    2.3774   10.4732 C   0  0  0  0  0  0  0  0  0  0  0  0
  -10.2934    2.2802   10.7898 H   0  0  0  0  0  0  0  0  0  0  0  0
   -1.9456    2.7793   17.6299 C   0  0  0  0  0  0  0  0  0  0  0  0
   -1.1226    2.2376   17.7241 H   0  0  0  0  0  0  0  0  0  0  0  0
   -2.0154    3.3667   18.4223 H   0  0  0  0  0  0  0  0  0  0  0  0
   -9.1669    2.6671    9.1438 C   0  0  0  0  0  0  0  0  0  0  0  0
   -9.8979    2.7802    8.5466 H   0  0  0  0  0  0  0  0  0  0  0  0
   -4.4071    6.5254   19.2472 C   0  0  0  0  0  0  0  0  0  0  0  0
   -4.6033    6.0073   20.0542 H   0  0  0  0  0  0  0  0  0  0  0  0
   -3.5103    6.9142   19.3196 H   0  0  0  0  0  0  0  0  0  0  0  0
   -5.0671    7.2424   19.1513 H   0  0  0  0  0  0  0  0  0  0  0  0
   -4.4651    5.6275   18.0519 C   0  0  0  0  0  0  0  0  0  0  0  0
   -5.3654    5.2167   18.0045 H   0  0  0  0  0  0  0  0  0  0  0  0
   -3.8068    4.8976   18.1671 H   0  0  0  0  0  0  0  0  0  0  0  0
   -4.8933   -0.0620   13.5043 C   0  0  0  0  0  0  0  0  0  0  0  0
   -5.5713    0.1524   14.1770 H   0  0  0  0  0  0  0  0  0  0  0  0
   -4.7537   -1.0322   13.4788 H   0  0  0  0  0  0  0  0  0  0  0  0
   -4.0507    0.3824   13.7340 H   0  0  0  0  0  0  0  0  0  0  0  0
   -5.2205    2.7359    9.0073 B   0  5  0  0  0  0  0  0  0  0  0  0
   -5.3917    4.0579    5.2979 C   0  0  0  0  0  0  0  0  0  0  0  0
   -5.5387    3.7065    4.4275 H   0  0  0  0  0  0  0  0  0  0  0  0
   -5.1960    5.4136    5.4678 C   0  0  0  0  0  0  0  0  0  0  0  0
   -5.2135    5.9983    4.7191 H   0  0  0  0  0  0  0  0  0  0  0  0
   -6.5851   -0.3940   11.6952 C   0  0  0  0  0  0  0  0  0  0  0  0
   -6.8000   -0.1292   10.7758 H   0  0  0  0  0  0  0  0  0  0  0  0
   -6.3892   -1.3539   11.7207 H   0  0  0  0  0  0  0  0  0  0  0  0
   -7.3485   -0.2002   12.2787 H   0  0  0  0  0  0  0  0  0  0  0  0
   -2.6417   -0.1990    8.8690 C   0  0  0  0  0  0  0  0  0  0  0  0
   -1.7287   -0.3398    9.0934 H   0  0  0  0  0  0  0  0  0  0  0  0
   -3.4091   -1.2583    8.3929 C   0  0  0  0  0  0  0  0  0  0  0  0
   -3.0054   -2.1006    8.2241 H   0  0  0  0  0  0  0  0  0  0  0  0
   -4.7689   -1.0787    8.1658 C   0  0  0  0  0  0  0  0  0  0  0  0
   -5.3035   -1.8061    7.8680 H   0  0  0  0  0  0  0  0  0  0  0  0
   -5.3358    0.1550    8.3761 C   0  0  0  0  0  0  0  0  0  0  0  0
   -6.2748    0.2545    8.2690 H   0  0  0  0  0  0  0  0  0  0  0  0
  1  2  1  0  0  0  0
  2  9  1  0  0  0  0
  3  6  1  0  0  0  0
  4  1  1  0  0  0  0
  5  1  1  0  0  0  0
  6  8  1  0  0  0  0
  7 56  4  0  0  0  0
  8 63  1  0  0  0  0
  9 10  1  0  0  0  0
 11  6  1  0  0  0  0
 12  5  1  0  0  0  0
 13 12  1  0  0  0  0
 14  4  1  0  0  0  0
 15 14  1  0  0  0  0
 16  5  1  0  0  0  0
 17 16  1  0  0  0  0
 18  2  1  0  0  0  0
 19 18  1  0  0  0  0
 20  9  1  0  0  0  0
 21 20  1  0  0  0  0
 22 20  1  0  0  0  0
 23 20  1  0  0  0  0
 24  1  2  0  0  0  0
 25 16  1  0  0  0  0
 26 25  1  0  0  0  0
 27 25  1  0  0  0  0
 28 25  1  0  0  0  0
 29  2  1  0  0  0  0
 30 31  1  0  0  0  0
 32 30  1  0  0  0  0
 33 30  1  0  0  0  0
 34 35  1  0  0  0  0
 36 34  1  0  0  0  0
 37 34  1  0  0  0  0
 38  4  1  0  0  0  0
 39 38  1  0  0  0  0
 40 16  1  0  0  0  0
 41 40  1  0  0  0  0
 42 40  1  0  0  0  0
 43 40  1  0  0  0  0
 44 18  1  0  0  0  0
 45 44  1  0  0  0  0
 46 44  1  0  0  0  0
 47 44  1  0  0  0  0
 48 18  1  0  0  0  0
 49 48  1  0  0  0  0
 50 48  1  0  0  0  0
 51 48  1  0  0  0  0
 52 12  1  0  0  0  0
 53 52  1  0  0  0  0
 54 52  1  0  0  0  0
 55 52  1  0  0  0  0
 56 57  1  0  0  0  0
 58  9  1  0  0  0  0
 59 58  1  0  0  0  0
 60 58  1  0  0  0  0
 61 58  1  0  0  0  0
 62 83  4  0  0  0  0
 63 64  1  0  0  0  0
 65 63  1  0  0  0  0
 66  5  1  0  0  0  0
 67 68  1  0  0  0  0
 69 67  1  0  0  0  0
 70 67  1  0  0  0  0
 71 72  1  0  0  0  0
 73 38  1  0  0  0  0
 74 73  1  0  0  0  0
 75 73  1  0  0  0  0
 76 73  1  0  0  0  0
 77 66  4  0  0  0  0
 78 77  1  0  0  0  0
 79 63  1  0  0  0  0
 80 79  1  0  0  0  0
 81 79  1  0  0  0  0
 82 79  1  0  0  0  0
 83  4  1  0  0  0  0
 84 12  1  0  0  0  0
 85 84  1  0  0  0  0
 86 84  1  0  0  0  0
 87 84  1  0  0  0  0
 88 62  4  0  0  0  0
 89 88  1  0  0  0  0
 90 29  4  0  0  0  0
 91 11  1  0  0  0  0
 92 91  1  0  0  0  0
 93 91  1  0  0  0  0
 94 71  4  0  0  0  0
 95 94  1  0  0  0  0
 96  8  1  0  0  0  0
 97 96  1  0  0  0  0
 98 96  1  0  0  0  0
 99 88  4  0  0  0  0
100 99  1  0  0  0  0
101102  1  0  0  0  0
103101  1  0  0  0  0
104101  1  0  0  0  0
105 11  1  0  0  0  0
106105  1  0  0  0  0
107105  1  0  0  0  0
108 14  1  0  0  0  0
109108  1  0  0  0  0
110108  1  0  0  0  0
111108  1  0  0  0  0
112  1  1  0  0  0  0
113 56  4  0  0  0  0
114113  1  0  0  0  0
115 77  4  0  0  0  0
116115  1  0  0  0  0
117 14  1  0  0  0  0
118117  1  0  0  0  0
119117  1  0  0  0  0
120117  1  0  0  0  0
121 29  4  0  0  0  0
122121  1  0  0  0  0
123121  4  0  0  0  0
124123  1  0  0  0  0
125123  4  0  0  0  0
126125  1  0  0  0  0
127 90  4  0  0  0  0
128127  1  0  0  0  0
129130  1  0  0  0  0
130137  1  0  0  0  0
131  6  1  0  0  0  0
132129  1  0  0  0  0
133129  1  0  0  0  0
134  3  1  0  0  0  0
135184  4  0  0  0  0
136134  1  0  0  0  0
137138  1  0  0  0  0
139134  1  0  0  0  0
140133  1  0  0  0  0
141140  1  0  0  0  0
142132  1  0  0  0  0
143142  1  0  0  0  0
144133  1  0  0  0  0
145144  1  0  0  0  0
146130  1  0  0  0  0
147146  1  0  0  0  0
148137  1  0  0  0  0
149148  1  0  0  0  0
150148  1  0  0  0  0
151148  1  0  0  0  0
152129  2  0  0  0  0
153144  1  0  0  0  0
154153  1  0  0  0  0
155153  1  0  0  0  0
156153  1  0  0  0  0
157130  1  0  0  0  0
158159  1  0  0  0  0
160158  1  0  0  0  0
161158  1  0  0  0  0
162163  1  0  0  0  0
164162  1  0  0  0  0
165162  1  0  0  0  0
166132  1  0  0  0  0
167166  1  0  0  0  0
168144  1  0  0  0  0
169168  1  0  0  0  0
170168  1  0  0  0  0
171168  1  0  0  0  0
172146  1  0  0  0  0
173172  1  0  0  0  0
174172  1  0  0  0  0
175172  1  0  0  0  0
176146  1  0  0  0  0
177176  1  0  0  0  0
178176  1  0  0  0  0
179176  1  0  0  0  0
180140  1  0  0  0  0
181180  1  0  0  0  0
182180  1  0  0  0  0
183180  1  0  0  0  0
184185  1  0  0  0  0
186137  1  0  0  0  0
187186  1  0  0  0  0
188186  1  0  0  0  0
189186  1  0  0  0  0
190211  4  0  0  0  0
191136  1  0  0  0  0
192191  1  0  0  0  0
193191  1  0  0  0  0
194133  1  0  0  0  0
195196  1  0  0  0  0
197195  1  0  0  0  0
198195  1  0  0  0  0
199200  1  0  0  0  0
201166  1  0  0  0  0
202201  1  0  0  0  0
203201  1  0  0  0  0
204201  1  0  0  0  0
205194  4  0  0  0  0
206205  1  0  0  0  0
207191  1  0  0  0  0
208207  1  0  0  0  0
209207  1  0  0  0  0
210207  1  0  0  0  0
211132  1  0  0  0  0
212140  1  0  0  0  0
213212  1  0  0  0  0
214212  1  0  0  0  0
215212  1  0  0  0  0
216190  4  0  0  0  0
217216  1  0  0  0  0
218157  4  0  0  0  0
219139  1  0  0  0  0
220219  1  0  0  0  0
221219  1  0  0  0  0
222199  4  0  0  0  0
223222  1  0  0  0  0
224136  1  0  0  0  0
225224  1  0  0  0  0
226224  1  0  0  0  0
227216  4  0  0  0  0
228227  1  0  0  0  0
229230  1  0  0  0  0
231229  1  0  0  0  0
232229  1  0  0  0  0
233139  1  0  0  0  0
234233  1  0  0  0  0
235233  1  0  0  0  0
236142  1  0  0  0  0
237236  1  0  0  0  0
238236  1  0  0  0  0
239236  1  0  0  0  0
240129  1  0  0  0  0
241184  4  0  0  0  0
242241  1  0  0  0  0
243205  4  0  0  0  0
244243  1  0  0  0  0
245142  1  0  0  0  0
246245  1  0  0  0  0
247245  1  0  0  0  0
248245  1  0  0  0  0
249157  4  0  0  0  0
250249  1  0  0  0  0
251249  4  0  0  0  0
252251  1  0  0  0  0
253251  4  0  0  0  0
254253  1  0  0  0  0
255218  4  0  0  0  0
256255  1  0  0  0  0
  3 24  2  0  0  0  0
  7 66  4  0  0  0  0
  7112  1  0  0  0  0
 30 38  1  0  0  0  0
 34 96  1  0  0  0  0
 62112  1  0  0  0  0
 67 91  1  0  0  0  0
 71 83  4  0  0  0  0
 90112  1  0  0  0  0
 94 99  4  0  0  0  0
101105  1  0  0  0  0
113115  4  0  0  0  0
125127  4  0  0  0  0
131134  1  0  0  0  0
131152  2  0  0  0  0
135194  4  0  0  0  0
135240  1  0  0  0  0
158166  1  0  0  0  0
162224  1  0  0  0  0
190240  1  0  0  0  0
195219  1  0  0  0  0
199211  4  0  0  0  0
218240  1  0  0  0  0
222227  4  0  0  0  0
229233  1  0  0  0  0
241243  4  0  0  0  0
253255  4  0  0  0  0
M  CHG  4   1   1 112  -1 129   1 240  -1
M  END
$$$$
CATPUJ

From CSD data. Using bond type 'Any'. Matching problem. No disordered atoms. Largest molecule.
 90115  0  0  0  0  0  0  0  0999 V2000
   10.0672    6.8460    9.0431 Mo  0  0  0  0  0  0  0  0  0  0  0  0
   10.6325    8.5865   10.2842 C   0  0  0  0  0  0  0  0  0  0  0  0
    7.9715    6.2021    9.7932 B   0  5  0  0  0  0  0  0  0  0  0  0
    7.2490    5.5206    9.3067 H   0  0  0  0  0  0  0  0  0  0  0  0
    9.2359    9.0827    9.6118 B   0  0  0  0  0  0  0  0  0  0  0  0
    9.2710    9.9070    8.8532 H   0  0  0  0  0  0  0  0  0  0  0  0
   10.3184    7.4904   11.4260 B   0  0  0  0  0  0  0  0  0  0  0  0
   11.1805    7.0976   12.0246 H   0  0  0  0  0  0  0  0  0  0  0  0
    8.8896    6.2514   11.3032 B   0  0  0  0  0  0  0  0  0  0  0  0
    9.0210    5.4681   12.1081 H   0  0  0  0  0  0  0  0  0  0  0  0
    7.8383    7.8984    9.4131 B   0  0  0  0  0  0  0  0  0  0  0  0
    7.1482    8.1314    8.5624 H   0  0  0  0  0  0  0  0  0  0  0  0
    9.5995    9.1776   11.4182 B   0  0  0  0  0  0  0  0  0  0  0  0
    9.8561   10.0690   12.0470 H   0  0  0  0  0  0  0  0  0  0  0  0
    7.4009    7.2692   11.0795 B   0  0  0  0  0  0  0  0  0  0  0  0
    6.3880    7.0748   11.5144 H   0  0  0  0  0  0  0  0  0  0  0  0
    7.9282    8.9254   10.8752 B   0  0  0  0  0  0  0  0  0  0  0  0
    7.1807    9.7427   11.0475 H   0  0  0  0  0  0  0  0  0  0  0  0
    8.6828    7.8585   12.1175 B   0  0  0  0  0  0  0  0  0  0  0  0
    8.5109    7.8941   13.2239 H   0  0  0  0  0  0  0  0  0  0  0  0
   11.9410    9.3243   10.1774 C   0  0  0  0  0  0  0  0  0  0  0  0
   13.0474    8.9581   10.9637 C   0  0  0  0  0  0  0  0  0  0  0  0
   12.9986    8.1839   11.5129 H   0  0  0  0  0  0  0  0  0  0  0  0
   14.2154    9.7203   10.9448 C   0  0  0  0  0  0  0  0  0  0  0  0
   14.9565    9.4574   11.4786 H   0  0  0  0  0  0  0  0  0  0  0  0
   14.3089   10.8580   10.1536 C   0  0  0  0  0  0  0  0  0  0  0  0
   15.0953   11.3904   10.1704 H   0  0  0  0  0  0  0  0  0  0  0  0
   13.2458   11.2097    9.3421 C   0  0  0  0  0  0  0  0  0  0  0  0
   13.3087   11.9747    8.7816 H   0  0  0  0  0  0  0  0  0  0  0  0
   12.0824   10.4438    9.3458 C   0  0  0  0  0  0  0  0  0  0  0  0
   11.3670   10.6852    8.7697 H   0  0  0  0  0  0  0  0  0  0  0  0
   10.8036    7.7640    7.4020 C   0  0  0  0  0  0  0  0  0  0  0  0
   11.1873    8.2613    6.4418 O   0  0  0  0  0  0  0  0  0  0  0  0
   11.9039    6.0613    9.2894 C   0  0  0  0  0  0  0  0  0  0  0  0
   12.9765    5.6785    9.4663 O   0  0  0  0  0  0  0  0  0  0  0  0
    9.3796    5.6231    7.5898 C   0  0  0  0  0  0  0  0  0  0  0  0
    8.9581    5.0060    6.6965 O   0  0  0  0  0  0  0  0  0  0  0  0
    9.3714    4.3655    9.8883 Pt  0  0  0  0  0  0  0  0  0  0  0  0
   10.8319    2.7206    9.4959 P   0  0  0  0  0  0  0  0  0  0  0  0
    8.0345    2.7271   10.7280 P   0  0  0  0  0  0  0  0  0  0  0  0
    7.1718    2.9262   12.3180 C   0  0  0  0  0  0  0  0  0  0  0  0
    6.3753    4.0634   12.5163 C   0  0  0  0  0  0  0  0  0  0  0  0
    6.3178    4.7264   11.8381 H   0  0  0  0  0  0  0  0  0  0  0  0
    5.6663    4.2241   13.7110 C   0  0  0  0  0  0  0  0  0  0  0  0
    5.1221    4.9911   13.8430 H   0  0  0  0  0  0  0  0  0  0  0  0
    5.7612    3.2544   14.7071 C   0  0  0  0  0  0  0  0  0  0  0  0
    5.2656    3.3525   15.5122 H   0  0  0  0  0  0  0  0  0  0  0  0
    6.5744    2.1523   14.5286 C   0  0  0  0  0  0  0  0  0  0  0  0
    6.6549    1.5085   15.2228 H   0  0  0  0  0  0  0  0  0  0  0  0
    7.2799    1.9775   13.3361 C   0  0  0  0  0  0  0  0  0  0  0  0
    7.8332    1.2141   13.2180 H   0  0  0  0  0  0  0  0  0  0  0  0
    6.7201    2.2009    9.5663 C   0  0  0  0  0  0  0  0  0  0  0  0
    5.7209    1.3125    9.9811 C   0  0  0  0  0  0  0  0  0  0  0  0
    5.7007    1.0110   10.8820 H   0  0  0  0  0  0  0  0  0  0  0  0
    4.7576    0.8679    9.0819 C   0  0  0  0  0  0  0  0  0  0  0  0
    4.0901    0.2556    9.3679 H   0  0  0  0  0  0  0  0  0  0  0  0
    4.7673    1.3180    7.7619 C   0  0  0  0  0  0  0  0  0  0  0  0
    4.1002    1.0201    7.1542 H   0  0  0  0  0  0  0  0  0  0  0  0
    5.7503    2.1991    7.3369 C   0  0  0  0  0  0  0  0  0  0  0  0
    5.7590    2.5036    6.4367 H   0  0  0  0  0  0  0  0  0  0  0  0
    6.7274    2.6407    8.2331 C   0  0  0  0  0  0  0  0  0  0  0  0
    7.4009    3.2430    7.9388 H   0  0  0  0  0  0  0  0  0  0  0  0
    9.0546    1.2025   10.8996 C   0  0  0  0  0  0  0  0  0  0  0  0
    9.6178    1.2552   11.7128 H   0  0  0  0  0  0  0  0  0  0  0  0
    8.4725    0.4039   10.9700 H   0  0  0  0  0  0  0  0  0  0  0  0
    9.9357    1.1105    9.6450 C   0  0  0  0  0  0  0  0  0  0  0  0
    9.3771    0.9517    8.8428 H   0  0  0  0  0  0  0  0  0  0  0  0
   10.5806    0.3652    9.7319 H   0  0  0  0  0  0  0  0  0  0  0  0
   11.7782    2.5524    7.9466 C   0  0  0  0  0  0  0  0  0  0  0  0
   11.1418    2.1101    6.7917 C   0  0  0  0  0  0  0  0  0  0  0  0
   10.2091    1.9285    6.8066 H   0  0  0  0  0  0  0  0  0  0  0  0
   11.8662    1.9289    5.6054 C   0  0  0  0  0  0  0  0  0  0  0  0
   11.4287    1.6044    4.8271 H   0  0  0  0  0  0  0  0  0  0  0  0
   13.2209    2.2240    5.5664 C   0  0  0  0  0  0  0  0  0  0  0  0
   13.7116    2.1019    4.7630 H   0  0  0  0  0  0  0  0  0  0  0  0
   13.8508    2.6937    6.6937 C   0  0  0  0  0  0  0  0  0  0  0  0
   14.7751    2.9098    6.6619 H   0  0  0  0  0  0  0  0  0  0  0  0
   13.1409    2.8568    7.8854 C   0  0  0  0  0  0  0  0  0  0  0  0
   13.5878    3.1768    8.6608 H   0  0  0  0  0  0  0  0  0  0  0  0
   12.0685    2.5764   10.8347 C   0  0  0  0  0  0  0  0  0  0  0  0
   12.8789    1.4407   10.9237 C   0  0  0  0  0  0  0  0  0  0  0  0
   12.8604    0.7896   10.2331 H   0  0  0  0  0  0  0  0  0  0  0  0
   13.7202    1.2630   12.0350 C   0  0  0  0  0  0  0  0  0  0  0  0
   14.2564    0.4815   12.1007 H   0  0  0  0  0  0  0  0  0  0  0  0
   13.7717    2.2192   13.0348 C   0  0  0  0  0  0  0  0  0  0  0  0
   14.3357    2.0905   13.7878 H   0  0  0  0  0  0  0  0  0  0  0  0
   12.9970    3.3635   12.9335 C   0  0  0  0  0  0  0  0  0  0  0  0
   13.0522    4.0303   13.6073 H   0  0  0  0  0  0  0  0  0  0  0  0
   12.1353    3.5422   11.8477 C   0  0  0  0  0  0  0  0  0  0  0  0
   11.5932    4.3202   11.7964 H   0  0  0  0  0  0  0  0  0  0  0  0
  1  2  1  0  0  0  0
  2  5  1  0  0  0  0
  3  1  1  0  0  0  0
  4  3  1  0  0  0  0
  5  1  1  0  0  0  0
  6  5  1  0  0  0  0
  7  1  1  0  0  0  0
  8  7  1  0  0  0  0
  9  1  1  0  0  0  0
 10  9  1  0  0  0  0
 11  1  1  0  0  0  0
 12 11  1  0  0  0  0
 13  2  1  0  0  0  0
 14 13  1  0  0  0  0
 15  3  1  0  0  0  0
 16 15  1  0  0  0  0
 17  5  1  0  0  0  0
 18 17  1  0  0  0  0
 19  7  1  0  0  0  0
 20 19  1  0  0  0  0
 21  2  1  0  0  0  0
 22 21  4  0  0  0  0
 23 22  1  0  0  0  0
 24 22  4  0  0  0  0
 25 24  1  0  0  0  0
 26 24  4  0  0  0  0
 27 26  1  0  0  0  0
 28 26  4  0  0  0  0
 29 28  1  0  0  0  0
 30 21  4  0  0  0  0
 31 30  1  0  0  0  0
 32  1  1  0  0  0  0
 33 32  3  0  0  0  0
 34  1  1  0  0  0  0
 35 34  3  0  0  0  0
 36  1  1  0  0  0  0
 37 36  3  0  0  0  0
 38  1  1  0  0  0  0
 39 38  1  0  0  0  0
 40 38  1  0  0  0  0
 41 40  1  0  0  0  0
 42 41  4  0  0  0  0
 43 42  1  0  0  0  0
 44 42  4  0  0  0  0
 45 44  1  0  0  0  0
 46 44  4  0  0  0  0
 47 46  1  0  0  0  0
 48 46  4  0  0  0  0
 49 48  1  0  0  0  0
 50 41  4  0  0  0  0
 51 50  1  0  0  0  0
 52 40  1  0  0  0  0
 53 52  4  0  0  0  0
 54 53  1  0  0  0  0
 55 53  4  0  0  0  0
 56 55  1  0  0  0  0
 57 55  4  0  0  0  0
 58 57  1  0  0  0  0
 59 57  4  0  0  0  0
 60 59  1  0  0  0  0
 61 52  4  0  0  0  0
 62 61  1  0  0  0  0
 63 40  1  0  0  0  0
 64 63  1  0  0  0  0
 65 63  1  0  0  0  0
 66 39  1  0  0  0  0
 67 66  1  0  0  0  0
 68 66  1  0  0  0  0
 69 39  1  0  0  0  0
 70 69  4  0  0  0  0
 71 70  1  0  0  0  0
 72 70  4  0  0  0  0
 73 72  1  0  0  0  0
 74 72  4  0  0  0  0
 75 74  1  0  0  0  0
 76 74  4  0  0  0  0
 77 76  1  0  0  0  0
 78 69  4  0  0  0  0
 79 78  1  0  0  0  0
 80 39  1  0  0  0  0
 81 80  4  0  0  0  0
 82 81  1  0  0  0  0
 83 81  4  0  0  0  0
 84 83  1  0  0  0  0
 85 83  4  0  0  0  0
 86 85  1  0  0  0  0
 87 85  4  0  0  0  0
 88 87  1  0  0  0  0
 89 80  4  0  0  0  0
 90 89  1  0  0  0  0
  2  7  1  0  0  0  0
  3  9  1  0  0  0  0
  3 11  1  0  0  0  0
  3 38  1  0  0  0  0
  4 38  1  0  0  0  0
  5 11  1  0  0  0  0
  5 13  1  0  0  0  0
  7  9  1  0  0  0  0
  7 13  1  0  0  0  0
  9 15  1  0  0  0  0
  9 19  1  0  0  0  0
  9 38  1  0  0  0  0
 11 15  1  0  0  0  0
 11 17  1  0  0  0  0
 13 17  1  0  0  0  0
 13 19  1  0  0  0  0
 15 17  1  0  0  0  0
 15 19  1  0  0  0  0
 17 19  1  0  0  0  0
 28 30  4  0  0  0  0
 48 50  4  0  0  0  0
 59 61  4  0  0  0  0
 63 66  1  0  0  0  0
 76 78  4  0  0  0  0
 87 89  4  0  0  0  0
M  CHG  1   3  -1
M  END
$$$$
CAXTEE

From CSD data. Using bond type 'Any'. No disordered atoms. Largest molecule.
 65 70  0  0  0  0  0  0  0  0999 V2000
    3.7567    7.7765    5.2220 Cu  0  0  0  0  0  0  0  0  0  0  0  0
    5.4035    9.4861    3.4917 P   0  0  0  0  0  0  0  0  0  0  0  0
    5.1085    8.0617    3.8674 O   0  0  0  0  0  0  0  0  0  0  0  0
    3.2633    9.6962    5.0037 N   0  0  0  0  0  0  0  0  0  0  0  0
    4.0367   10.4485    4.1974 C   0  0  0  0  0  0  0  0  0  0  0  0
    3.7907   11.7798    3.9729 C   0  0  0  0  0  0  0  0  0  0  0  0
    4.3425   12.2654    3.4028 H   0  0  0  0  0  0  0  0  0  0  0  0
    2.7185   12.4020    4.5954 C   0  0  0  0  0  0  0  0  0  0  0  0
    1.9423   11.6072    5.4257 C   0  0  0  0  0  0  0  0  0  0  0  0
    1.2127   11.9827    5.8635 H   0  0  0  0  0  0  0  0  0  0  0  0
    2.2271   10.2790    5.6147 C   0  0  0  0  0  0  0  0  0  0  0  0
    1.6880    9.7728    6.1787 H   0  0  0  0  0  0  0  0  0  0  0  0
    5.6083    9.7859    1.7368 C   0  0  0  0  0  0  0  0  0  0  0  0
    5.1596    9.1058    1.2098 H   0  0  0  0  0  0  0  0  0  0  0  0
    5.2667   10.6583    1.4871 H   0  0  0  0  0  0  0  0  0  0  0  0
    7.1068    9.7144    1.5572 C   0  0  0  0  0  0  0  0  0  0  0  0
    7.3934    8.7879    1.5283 H   0  0  0  0  0  0  0  0  0  0  0  0
    7.3618   10.1398    0.7243 H   0  0  0  0  0  0  0  0  0  0  0  0
    7.7589   10.4190    2.7175 C   0  0  0  0  0  0  0  0  0  0  0  0
    7.7342   11.3782    2.5753 H   0  0  0  0  0  0  0  0  0  0  0  0
    8.6868   10.1459    2.7886 H   0  0  0  0  0  0  0  0  0  0  0  0
    7.0228   10.0706    3.9917 C   0  0  0  0  0  0  0  0  0  0  0  0
    6.9408   10.8517    4.5604 H   0  0  0  0  0  0  0  0  0  0  0  0
    7.4973    9.3794    4.4792 H   0  0  0  0  0  0  0  0  0  0  0  0
    2.4018   13.8515    4.3677 C   0  0  0  0  0  0  0  0  0  0  0  0
    3.1337   14.2707    3.9103 H   0  0  0  0  0  0  0  0  0  0  0  0
    2.2615   14.2842    5.2129 H   0  0  0  0  0  0  0  0  0  0  0  0
    1.6065   13.9249    3.8347 H   0  0  0  0  0  0  0  0  0  0  0  0
    6.1489    8.9912    7.6189 B   0  0  0  0  0  0  0  0  0  0  0  0
    5.6800    7.9600    6.9056 F   0  0  0  0  0  0  0  0  0  0  0  0
    5.6536   10.1608    7.0434 F   0  0  0  0  0  0  0  0  0  0  0  0
    7.4888    9.0845    7.5688 F   0  0  0  0  0  0  0  0  0  0  0  0
    5.7108    8.9025    8.8722 F   0  0  0  0  0  0  0  0  0  0  0  0
    2.1099    6.0669    6.9523 P   0  0  0  0  0  0  0  0  0  0  0  0
    2.4050    7.4913    6.5766 O   0  0  0  0  0  0  0  0  0  0  0  0
    4.2501    5.8568    5.4403 N   0  0  0  0  0  0  0  0  0  0  0  0
    3.4767    5.1045    6.2466 C   0  0  0  0  0  0  0  0  0  0  0  0
    3.7227    3.7732    6.4711 C   0  0  0  0  0  0  0  0  0  0  0  0
    3.1709    3.2876    7.0412 H   0  0  0  0  0  0  0  0  0  0  0  0
    4.7949    3.1510    5.8486 C   0  0  0  0  0  0  0  0  0  0  0  0
    5.5711    3.9458    5.0183 C   0  0  0  0  0  0  0  0  0  0  0  0
    6.3007    3.5703    4.5805 H   0  0  0  0  0  0  0  0  0  0  0  0
    5.2863    5.2740    4.8293 C   0  0  0  0  0  0  0  0  0  0  0  0
    5.8254    5.7802    4.2653 H   0  0  0  0  0  0  0  0  0  0  0  0
    1.9051    5.7671    8.7072 C   0  0  0  0  0  0  0  0  0  0  0  0
    2.3538    6.4472    9.2342 H   0  0  0  0  0  0  0  0  0  0  0  0
    2.2467    4.8947    8.9569 H   0  0  0  0  0  0  0  0  0  0  0  0
    0.4066    5.8386    8.8868 C   0  0  0  0  0  0  0  0  0  0  0  0
    0.1200    6.7651    8.9157 H   0  0  0  0  0  0  0  0  0  0  0  0
    0.1516    5.4132    9.7197 H   0  0  0  0  0  0  0  0  0  0  0  0
   -0.2455    5.1340    7.7265 C   0  0  0  0  0  0  0  0  0  0  0  0
   -0.2208    4.1748    7.8687 H   0  0  0  0  0  0  0  0  0  0  0  0
   -1.1734    5.4071    7.6554 H   0  0  0  0  0  0  0  0  0  0  0  0
    0.4906    5.4824    6.4523 C   0  0  0  0  0  0  0  0  0  0  0  0
    0.5726    4.7013    5.8836 H   0  0  0  0  0  0  0  0  0  0  0  0
    0.0161    6.1736    5.9648 H   0  0  0  0  0  0  0  0  0  0  0  0
    5.1116    1.7015    6.0763 C   0  0  0  0  0  0  0  0  0  0  0  0
    4.3798    1.2823    6.5337 H   0  0  0  0  0  0  0  0  0  0  0  0
    5.2519    1.2688    5.2311 H   0  0  0  0  0  0  0  0  0  0  0  0
    5.9069    1.6281    6.6094 H   0  0  0  0  0  0  0  0  0  0  0  0
    1.3645    6.5618    2.8251 B   0  0  0  0  0  0  0  0  0  0  0  0
    1.8334    7.5930    3.5384 F   0  0  0  0  0  0  0  0  0  0  0  0
    1.8598    5.3922    3.4006 F   0  0  0  0  0  0  0  0  0  0  0  0
    0.0246    6.4685    2.8752 F   0  0  0  0  0  0  0  0  0  0  0  0
    1.8027    6.6505    1.5718 F   0  0  0  0  0  0  0  0  0  0  0  0
  1  3  1  0  0  0  0
  2  3  2  0  0  0  0
  4  1  1  0  0  0  0
  5  2  1  0  0  0  0
  6  5  4  0  0  0  0
  7  6  1  0  0  0  0
  8  6  4  0  0  0  0
  9  8  4  0  0  0  0
 10  9  1  0  0  0  0
 11  4  4  0  0  0  0
 12 11  1  0  0  0  0
 13  2  1  0  0  0  0
 14 13  1  0  0  0  0
 15 13  1  0  0  0  0
 16 13  1  0  0  0  0
 17 16  1  0  0  0  0
 18 16  1  0  0  0  0
 19 16  1  0  0  0  0
 20 19  1  0  0  0  0
 21 19  1  0  0  0  0
 22  2  1  0  0  0  0
 23 22  1  0  0  0  0
 24 22  1  0  0  0  0
 25  8  1  0  0  0  0
 26 25  1  0  0  0  0
 27 25  1  0  0  0  0
 28 25  1  0  0  0  0
 29 30  1  0  0  0  0
 30  1  1  0  0  0  0
 31 29  1  0  0  0  0
 32 29  1  0  0  0  0
 33 29  1  0  0  0  0
 34 35  2  0  0  0  0
 35  1  1  0  0  0  0
 36  1  1  0  0  0  0
 37 34  1  0  0  0  0
 38 37  4  0  0  0  0
 39 38  1  0  0  0  0
 40 38  4  0  0  0  0
 41 40  4  0  0  0  0
 42 41  1  0  0  0  0
 43 36  4  0  0  0  0
 44 43  1  0  0  0  0
 45 34  1  0  0  0  0
 46 45  1  0  0  0  0
 47 45  1  0  0  0  0
 48 45  1  0  0  0  0
 49 48  1  0  0  0  0
 50 48  1  0  0  0  0
 51 48  1  0  0  0  0
 52 51  1  0  0  0  0
 53 51  1  0  0  0  0
 54 34  1  0  0  0  0
 55 54  1  0  0  0  0
 56 54  1  0  0  0  0
 57 40  1  0  0  0  0
 58 57  1  0  0  0  0
 59 57  1  0  0  0  0
 60 57  1  0  0  0  0
 61 62  1  0  0  0  0
 62  1  1  0  0  0  0
 63 61  1  0  0  0  0
 64 61  1  0  0  0  0
 65 61  1  0  0  0  0
  4  5  4  0  0  0  0
  9 11  4  0  0  0  0
 19 22  1  0  0  0  0
 36 37  4  0  0  0  0
 41 43  4  0  0  0  0
 51 54  1  0  0  0  0
M  END
$$$$
CAZZUA

From CSD data. Using bond type 'Any'. No disordered atoms. Largest molecule.
 75 98  0  0  0  0  0  0  0  0999 V2000
    4.9929    7.4064    3.0035 Fe  0  0  0  0  0  0  0  0  0  0  0  0
    4.2194    7.5734    0.1865 O   0  0  0  0  0  0  0  0  0  0  0  0
    7.6956    8.1742    2.2218 O   0  0  0  0  0  0  0  0  0  0  0  0
    4.2746    9.8635    4.4279 O   0  0  0  0  0  0  0  0  0  0  0  0
    3.1200    6.2885    3.2476 P   0  0  0  0  0  0  0  0  0  0  0  0
    5.9274    6.2571    4.6265 P   0  0  0  0  0  0  0  0  0  0  0  0
    3.9779    3.9574    4.9600 B   0  0  0  0  0  0  0  0  0  0  0  0
    4.4215    3.4752    4.0525 H   0  0  0  0  0  0  0  0  0  0  0  0
    2.2186    3.9939    5.2572 B   0  0  0  0  0  0  0  0  0  0  0  0
    1.4957    3.5169    4.5457 H   0  0  0  0  0  0  0  0  0  0  0  0
    1.8244    5.5039    6.0922 B   0  0  0  0  0  0  0  0  0  0  0  0
    0.8438    6.0217    5.9345 H   0  0  0  0  0  0  0  0  0  0  0  0
    3.3540    6.4081    6.3119 B   0  0  0  0  0  0  0  0  0  0  0  0
    3.3913    7.5267    6.2834 H   0  0  0  0  0  0  0  0  0  0  0  0
    4.4138    5.4584    7.3844 B   0  0  0  0  0  0  0  0  0  0  0  0
    5.1424    5.9453    8.0815 H   0  0  0  0  0  0  0  0  0  0  0  0
    4.7952    3.9343    6.5478 B   0  0  0  0  0  0  0  0  0  0  0  0
    5.7771    3.4162    6.6960 H   0  0  0  0  0  0  0  0  0  0  0  0
    3.2864    3.0315    6.3076 B   0  0  0  0  0  0  0  0  0  0  0  0
    3.2684    1.9112    6.3002 H   0  0  0  0  0  0  0  0  0  0  0  0
    1.9561    3.9944    7.0134 B   0  0  0  0  0  0  0  0  0  0  0  0
    1.0604    3.5082    7.4777 H   0  0  0  0  0  0  0  0  0  0  0  0
    2.6575    5.5070    7.6649 B   0  0  0  0  0  0  0  0  0  0  0  0
    2.2231    6.0286    8.5546 H   0  0  0  0  0  0  0  0  0  0  0  0
    3.5484    3.9663    7.8038 B   0  0  0  0  0  0  0  0  0  0  0  0
    3.6984    3.4613    8.7927 H   0  0  0  0  0  0  0  0  0  0  0  0
    4.5330    7.5001    1.2976 C   0  0  0  0  0  0  0  0  0  0  0  0
    6.6349    7.8633    2.5409 C   0  0  0  0  0  0  0  0  0  0  0  0
    4.5112    8.8841    3.8784 C   0  0  0  0  0  0  0  0  0  0  0  0
    2.7170    4.9062    2.1209 C   0  0  0  0  0  0  0  0  0  0  0  0
    3.7454    4.3240    1.3781 C   0  0  0  0  0  0  0  0  0  0  0  0
    4.6154    4.7042    1.4023 H   0  0  0  0  0  0  0  0  0  0  0  0
    3.5130    3.2001    0.6049 C   0  0  0  0  0  0  0  0  0  0  0  0
    4.2200    2.8121    0.1040 H   0  0  0  0  0  0  0  0  0  0  0  0
    2.2382    2.6402    0.5659 C   0  0  0  0  0  0  0  0  0  0  0  0
    2.0820    1.8539    0.0570 H   0  0  0  0  0  0  0  0  0  0  0  0
    1.2093    3.2228    1.2594 C   0  0  0  0  0  0  0  0  0  0  0  0
    0.3351    2.8555    1.2043 H   0  0  0  0  0  0  0  0  0  0  0  0
    1.4370    4.3506    2.0444 C   0  0  0  0  0  0  0  0  0  0  0  0
    0.7209    4.7424    2.5295 H   0  0  0  0  0  0  0  0  0  0  0  0
    1.6477    7.3692    3.1494 C   0  0  0  0  0  0  0  0  0  0  0  0
    1.3479    8.2873    4.1602 C   0  0  0  0  0  0  0  0  0  0  0  0
    1.8320    8.2575    4.9784 H   0  0  0  0  0  0  0  0  0  0  0  0
    0.3541    9.2415    3.9888 C   0  0  0  0  0  0  0  0  0  0  0  0
    0.1595    9.8545    4.6866 H   0  0  0  0  0  0  0  0  0  0  0  0
   -0.3511    9.3020    2.8039 C   0  0  0  0  0  0  0  0  0  0  0  0
   -1.0324    9.9534    2.6838 H   0  0  0  0  0  0  0  0  0  0  0  0
   -0.0589    8.4066    1.7911 C   0  0  0  0  0  0  0  0  0  0  0  0
   -0.5485    8.4415    0.9762 H   0  0  0  0  0  0  0  0  0  0  0  0
    0.9419    7.4569    1.9481 C   0  0  0  0  0  0  0  0  0  0  0  0
    1.1477    6.8636    1.2345 H   0  0  0  0  0  0  0  0  0  0  0  0
    7.1032    4.9118    4.2223 C   0  0  0  0  0  0  0  0  0  0  0  0
    7.2767    4.5693    2.8837 C   0  0  0  0  0  0  0  0  0  0  0  0
    6.7739    5.0201    2.2141 H   0  0  0  0  0  0  0  0  0  0  0  0
    8.1784    3.5748    2.5127 C   0  0  0  0  0  0  0  0  0  0  0  0
    8.2847    3.3450    1.5969 H   0  0  0  0  0  0  0  0  0  0  0  0
    8.9194    2.9227    3.4859 C   0  0  0  0  0  0  0  0  0  0  0  0
    9.5272    2.2358    3.2373 H   0  0  0  0  0  0  0  0  0  0  0  0
    8.7742    3.2698    4.8187 C   0  0  0  0  0  0  0  0  0  0  0  0
    9.2956    2.8312    5.4816 H   0  0  0  0  0  0  0  0  0  0  0  0
    7.8742    4.2520    5.1908 C   0  0  0  0  0  0  0  0  0  0  0  0
    7.7772    4.4803    6.1090 H   0  0  0  0  0  0  0  0  0  0  0  0
    6.8975    7.2913    5.7990 C   0  0  0  0  0  0  0  0  0  0  0  0
    6.2667    8.1848    6.6675 C   0  0  0  0  0  0  0  0  0  0  0  0
    5.3181    8.2193    6.6960 H   0  0  0  0  0  0  0  0  0  0  0  0
    7.0052    9.0235    7.4928 C   0  0  0  0  0  0  0  0  0  0  0  0
    6.5584    9.6097    8.0916 H   0  0  0  0  0  0  0  0  0  0  0  0
    8.3918    9.0100    7.4452 C   0  0  0  0  0  0  0  0  0  0  0  0
    8.8968    9.5750    8.0178 H   0  0  0  0  0  0  0  0  0  0  0  0
    9.0324    8.1648    6.5531 C   0  0  0  0  0  0  0  0  0  0  0  0
    9.9809    8.1637    6.5015 H   0  0  0  0  0  0  0  0  0  0  0  0
    8.2959    7.3168    5.7305 C   0  0  0  0  0  0  0  0  0  0  0  0
    8.7470    6.7490    5.1160 H   0  0  0  0  0  0  0  0  0  0  0  0
    3.0782    5.4286    4.9274 C   0  0  0  0  0  0  0  0  0  0  0  0
    4.6012    5.4029    5.6816 C   0  0  0  0  0  0  0  0  0  0  0  0
  1  5  1  0  0  0  0
  2 27  3  0  0  0  0
  3 28  3  0  0  0  0
  4 29  3  0  0  0  0
  5 30  1  0  0  0  0
  6  1  1  0  0  0  0
  7  8  1  0  0  0  0
  9  7  1  0  0  0  0
 10  9  1  0  0  0  0
 11  9  1  0  0  0  0
 12 11  1  0  0  0  0
 13 11  1  0  0  0  0
 14 13  1  0  0  0  0
 15 13  1  0  0  0  0
 16 15  1  0  0  0  0
 17  7  1  0  0  0  0
 18 17  1  0  0  0  0
 19  7  1  0  0  0  0
 20 19  1  0  0  0  0
 21  9  1  0  0  0  0
 22 21  1  0  0  0  0
 23 11  1  0  0  0  0
 24 23  1  0  0  0  0
 25 15  1  0  0  0  0
 26 25  1  0  0  0  0
 27  1  1  0  0  0  0
 28  1  1  0  0  0  0
 29  1  1  0  0  0  0
 30 31  4  0  0  0  0
 31 32  1  0  0  0  0
 33 31  4  0  0  0  0
 34 33  1  0  0  0  0
 35 33  4  0  0  0  0
 36 35  1  0  0  0  0
 37 35  4  0  0  0  0
 38 37  1  0  0  0  0
 39 30  4  0  0  0  0
 40 39  1  0  0  0  0
 41  5  1  0  0  0  0
 42 41  4  0  0  0  0
 43 42  1  0  0  0  0
 44 42  4  0  0  0  0
 45 44  1  0  0  0  0
 46 44  4  0  0  0  0
 47 46  1  0  0  0  0
 48 46  4  0  0  0  0
 49 48  1  0  0  0  0
 50 41  4  0  0  0  0
 51 50  1  0  0  0  0
 52  6  1  0  0  0  0
 53 52  4  0  0  0  0
 54 53  1  0  0  0  0
 55 53  4  0  0  0  0
 56 55  1  0  0  0  0
 57 55  4  0  0  0  0
 58 57  1  0  0  0  0
 59 57  4  0  0  0  0
 60 59  1  0  0  0  0
 61 52  4  0  0  0  0
 62 61  1  0  0  0  0
 63  6  1  0  0  0  0
 64 63  4  0  0  0  0
 65 64  1  0  0  0  0
 66 64  4  0  0  0  0
 67 66  1  0  0  0  0
 68 66  4  0  0  0  0
 69 68  1  0  0  0  0
 70 68  4  0  0  0  0
 71 70  1  0  0  0  0
 72 63  4  0  0  0  0
 73 72  1  0  0  0  0
 74  5  1  0  0  0  0
 75  6  1  0  0  0  0
  7 74  1  0  0  0  0
  7 75  1  0  0  0  0
  9 19  1  0  0  0  0
  9 74  1  0  0  0  0
 11 21  1  0  0  0  0
 11 74  1  0  0  0  0
 13 23  1  0  0  0  0
 13 74  1  0  0  0  0
 13 75  1  0  0  0  0
 15 17  1  0  0  0  0
 15 23  1  0  0  0  0
 15 75  1  0  0  0  0
 17 19  1  0  0  0  0
 17 25  1  0  0  0  0
 17 75  1  0  0  0  0
 19 21  1  0  0  0  0
 19 25  1  0  0  0  0
 21 23  1  0  0  0  0
 21 25  1  0  0  0  0
 23 25  1  0  0  0  0
 37 39  4  0  0  0  0
 48 50  4  0  0  0  0
 59 61  4  0  0  0  0
 70 72  4  0  0  0  0
 74 75  1  0  0  0  0
M  END
$$$$
CEBBAO

From CSD data. Using bond type 'Any'. Matching problem. No disordered atoms. Largest molecule.
 89114  0  0  0  0  0  0  0  0999 V2000
    5.9069   -0.1222    7.8478 Fe  0  0  0  0  0  0  0  0  0  0  0  0
    4.6562    1.6911    6.5759 Fe  0  0  0  0  0  0  0  0  0  0  0  0
    7.5793   -2.5361    7.8699 O   0  0  0  0  0  0  0  0  0  0  0  0
    4.0380   -1.1171    9.8581 O   0  0  0  0  0  0  0  0  0  0  0  0
    7.3692    1.6162    9.7009 O   0  0  0  0  0  0  0  0  0  0  0  0
    6.1953    4.0268    7.3836 O   0  0  0  0  0  0  0  0  0  0  0  0
    2.9930    2.3434    7.9116 P   0  0  0  0  0  0  0  0  0  0  0  0
    3.7002    2.4600    4.7715 P   0  0  0  0  0  0  0  0  0  0  0  0
    4.2173   -0.5316    6.4176 S   0  0  0  0  0  0  0  0  0  0  0  0
    6.7652    1.0441    6.0974 S   0  0  0  0  0  0  0  0  0  0  0  0
    6.9303   -1.6020    7.8437 C   0  0  0  0  0  0  0  0  0  0  0  0
    4.7822   -0.6897    9.0955 C   0  0  0  0  0  0  0  0  0  0  0  0
    6.8048    0.9359    8.9800 C   0  0  0  0  0  0  0  0  0  0  0  0
    5.5211    3.1408    7.0702 C   0  0  0  0  0  0  0  0  0  0  0  0
    1.6736    1.3322    8.7000 C   0  0  0  0  0  0  0  0  0  0  0  0
    0.9733    1.8011    9.8066 C   0  0  0  0  0  0  0  0  0  0  0  0
    1.2035    2.6399   10.1864 H   0  0  0  0  0  0  0  0  0  0  0  0
   -0.0571    1.0567   10.3605 C   0  0  0  0  0  0  0  0  0  0  0  0
   -0.5395    1.3935   11.1074 H   0  0  0  0  0  0  0  0  0  0  0  0
   -0.3857   -0.1849    9.8212 C   0  0  0  0  0  0  0  0  0  0  0  0
   -1.0779   -0.7086   10.2082 H   0  0  0  0  0  0  0  0  0  0  0  0
    0.3003   -0.6463    8.7227 C   0  0  0  0  0  0  0  0  0  0  0  0
    0.0661   -1.4850    8.3420 H   0  0  0  0  0  0  0  0  0  0  0  0
    1.3277    0.0962    8.1628 C   0  0  0  0  0  0  0  0  0  0  0  0
    1.7981   -0.2406    7.4100 H   0  0  0  0  0  0  0  0  0  0  0  0
    3.6614    3.2267    9.3855 C   0  0  0  0  0  0  0  0  0  0  0  0
    4.1039    4.5504    9.4155 C   0  0  0  0  0  0  0  0  0  0  0  0
    3.9174    5.1240    8.6825 H   0  0  0  0  0  0  0  0  0  0  0  0
    4.8181    5.0401   10.5153 C   0  0  0  0  0  0  0  0  0  0  0  0
    5.1017    5.9468   10.5268 H   0  0  0  0  0  0  0  0  0  0  0  0
    5.1102    4.2202   11.5741 C   0  0  0  0  0  0  0  0  0  0  0  0
    5.6125    4.5513   12.3101 H   0  0  0  0  0  0  0  0  0  0  0  0
    4.6704    2.9116   11.5673 C   0  0  0  0  0  0  0  0  0  0  0  0
    4.8600    2.3455   12.3057 H   0  0  0  0  0  0  0  0  0  0  0  0
    3.9547    2.4210   10.4904 C   0  0  0  0  0  0  0  0  0  0  0  0
    3.6565    1.5190   10.5007 H   0  0  0  0  0  0  0  0  0  0  0  0
    3.0555    1.2209    3.5625 C   0  0  0  0  0  0  0  0  0  0  0  0
    2.0462    0.3180    3.8860 C   0  0  0  0  0  0  0  0  0  0  0  0
    1.5547    0.4321    4.6905 H   0  0  0  0  0  0  0  0  0  0  0  0
    1.7525   -0.7416    3.0509 C   0  0  0  0  0  0  0  0  0  0  0  0
    1.0393   -1.3284    3.2696 H   0  0  0  0  0  0  0  0  0  0  0  0
    2.4902   -0.9586    1.8910 C   0  0  0  0  0  0  0  0  0  0  0  0
    2.2892   -1.6935    1.3249 H   0  0  0  0  0  0  0  0  0  0  0  0
    3.5032   -0.1019    1.5783 C   0  0  0  0  0  0  0  0  0  0  0  0
    4.0234   -0.2500    0.7967 H   0  0  0  0  0  0  0  0  0  0  0  0
    3.7800    0.9850    2.3972 C   0  0  0  0  0  0  0  0  0  0  0  0
    4.4795    1.5813    2.1564 H   0  0  0  0  0  0  0  0  0  0  0  0
    4.6116    3.6013    3.6627 C   0  0  0  0  0  0  0  0  0  0  0  0
    4.0478    4.0815    2.4817 C   0  0  0  0  0  0  0  0  0  0  0  0
    3.1805    3.7871    2.2263 H   0  0  0  0  0  0  0  0  0  0  0  0
    4.7216    4.9740    1.6752 C   0  0  0  0  0  0  0  0  0  0  0  0
    4.3238    5.2882    0.8731 H   0  0  0  0  0  0  0  0  0  0  0  0
    5.9798    5.4071    2.0445 C   0  0  0  0  0  0  0  0  0  0  0  0
    6.4428    6.0364    1.5060 H   0  0  0  0  0  0  0  0  0  0  0  0
    6.5574    4.9287    3.1860 C   0  0  0  0  0  0  0  0  0  0  0  0
    7.4269    5.2212    3.4311 H   0  0  0  0  0  0  0  0  0  0  0  0
    5.8859    4.0183    3.9933 C   0  0  0  0  0  0  0  0  0  0  0  0
    6.3060    3.6815    4.7756 H   0  0  0  0  0  0  0  0  0  0  0  0
    1.9120    3.5777    6.9550 C   0  0  0  0  0  0  0  0  0  0  0  0
    2.2345    3.5748    5.2612 C   0  0  0  0  0  0  0  0  0  0  0  0
    4.8449   -1.3841    4.9208 C   0  0  0  0  0  0  0  0  0  0  0  0
    4.6135   -2.3436    5.0004 H   0  0  0  0  0  0  0  0  0  0  0  0
    4.3490   -1.0293    4.1405 H   0  0  0  0  0  0  0  0  0  0  0  0
    6.2974   -1.2935    4.6145 C   0  0  0  0  0  0  0  0  0  0  0  0
    6.7786   -1.8464    5.2798 H   0  0  0  0  0  0  0  0  0  0  0  0
    6.4434   -1.7096    3.7279 H   0  0  0  0  0  0  0  0  0  0  0  0
    6.9276    0.0208    4.5944 C   0  0  0  0  0  0  0  0  0  0  0  0
    6.5499    0.5302    3.8349 H   0  0  0  0  0  0  0  0  0  0  0  0
    7.8925   -0.1047    4.4133 H   0  0  0  0  0  0  0  0  0  0  0  0
    0.8094    2.8050    5.8700 B   0  0  0  0  0  0  0  0  0  0  0  0
    0.6502    1.6964    5.8538 H   0  0  0  0  0  0  0  0  0  0  0  0
    0.7899    3.8003    4.3788 B   0  0  0  0  0  0  0  0  0  0  0  0
    0.6060    3.3512    3.3700 H   0  0  0  0  0  0  0  0  0  0  0  0
    1.9328    5.1429    4.6185 B   0  0  0  0  0  0  0  0  0  0  0  0
    2.4952    5.5929    3.7607 H   0  0  0  0  0  0  0  0  0  0  0  0
    2.6808    4.9372    6.2236 B   0  0  0  0  0  0  0  0  0  0  0  0
    3.7452    5.2203    6.4257 H   0  0  0  0  0  0  0  0  0  0  0  0
    1.3799    5.1288    7.4530 B   0  0  0  0  0  0  0  0  0  0  0  0
    1.5777    5.5590    8.4686 H   0  0  0  0  0  0  0  0  0  0  0  0
    0.2167    3.8135    7.2158 B   0  0  0  0  0  0  0  0  0  0  0  0
   -0.3543    3.3767    8.0757 H   0  0  0  0  0  0  0  0  0  0  0  0
   -0.5010    3.9834    5.5884 B   0  0  0  0  0  0  0  0  0  0  0  0
   -1.5491    3.6569    5.3693 H   0  0  0  0  0  0  0  0  0  0  0  0
    0.1994    5.4137    4.8389 B   0  0  0  0  0  0  0  0  0  0  0  0
   -0.3922    6.0458    4.1274 H   0  0  0  0  0  0  0  0  0  0  0  0
    1.3878    6.1298    5.9822 B   0  0  0  0  0  0  0  0  0  0  0  0
    1.5939    7.2299    6.0306 H   0  0  0  0  0  0  0  0  0  0  0  0
   -0.1468    5.4165    6.5691 B   0  0  0  0  0  0  0  0  0  0  0  0
   -0.9661    6.0496    6.9975 H   0  0  0  0  0  0  0  0  0  0  0  0
  1  9  1  0  0  0  0
  2  7  1  0  0  0  0
  3 11  3  0  0  0  0
  4 12  3  0  0  0  0
  5 13  3  0  0  0  0
  6 14  3  0  0  0  0
  7 15  1  0  0  0  0
  8  2  1  0  0  0  0
  9  2  1  0  0  0  0
 10  1  1  0  0  0  0
 11  1  1  0  0  0  0
 12  1  1  0  0  0  0
 13  1  1  0  0  0  0
 14  2  1  0  0  0  0
 15 16  4  0  0  0  0
 16 17  1  0  0  0  0
 18 16  4  0  0  0  0
 19 18  1  0  0  0  0
 20 18  4  0  0  0  0
 21 20  1  0  0  0  0
 22 20  4  0  0  0  0
 23 22  1  0  0  0  0
 24 15  4  0  0  0  0
 25 24  1  0  0  0  0
 26  7  1  0  0  0  0
 27 26  4  0  0  0  0
 28 27  1  0  0  0  0
 29 27  4  0  0  0  0
 30 29  1  0  0  0  0
 31 29  4  0  0  0  0
 32 31  1  0  0  0  0
 33 31  4  0  0  0  0
 34 33  1  0  0  0  0
 35 26  4  0  0  0  0
 36 35  1  0  0  0  0
 37  8  1  0  0  0  0
 38 37  4  0  0  0  0
 39 38  1  0  0  0  0
 40 38  4  0  0  0  0
 41 40  1  0  0  0  0
 42 40  4  0  0  0  0
 43 42  1  0  0  0  0
 44 42  4  0  0  0  0
 45 44  1  0  0  0  0
 46 37  4  0  0  0  0
 47 46  1  0  0  0  0
 48  8  1  0  0  0  0
 49 48  4  0  0  0  0
 50 49  1  0  0  0  0
 51 49  4  0  0  0  0
 52 51  1  0  0  0  0
 53 51  4  0  0  0  0
 54 53  1  0  0  0  0
 55 53  4  0  0  0  0
 56 55  1  0  0  0  0
 57 48  4  0  0  0  0
 58 57  1  0  0  0  0
 59  7  1  0  0  0  0
 60  8  1  0  0  0  0
 61  9  1  0  0  0  0
 62 61  1  0  0  0  0
 63 61  1  0  0  0  0
 64 61  1  0  0  0  0
 65 64  1  0  0  0  0
 66 64  1  0  0  0  0
 67 10  1  0  0  0  0
 68 67  1  0  0  0  0
 69 67  1  0  0  0  0
 70 59  1  0  0  0  0
 71 70  1  0  0  0  0
 72 60  1  0  0  0  0
 73 72  1  0  0  0  0
 74 60  1  0  0  0  0
 75 74  1  0  0  0  0
 76 59  1  0  0  0  0
 77 76  1  0  0  0  0
 78 59  1  0  0  0  0
 79 78  1  0  0  0  0
 80 59  1  0  0  0  0
 81 80  1  0  0  0  0
 82 70  1  0  0  0  0
 83 82  1  0  0  0  0
 84 72  1  0  0  0  0
 85 84  1  0  0  0  0
 86 74  1  0  0  0  0
 87 86  1  0  0  0  0
 88 78  1  0  0  0  0
 89 88  1  0  0  0  0
  2 10  1  0  0  0  0
 22 24  4  0  0  0  0
 33 35  4  0  0  0  0
 44 46  4  0  0  0  0
 55 57  4  0  0  0  0
 59 60  1  0  0  0  0
 60 70  1  0  0  0  0
 60 76  1  0  0  0  0
 64 67  1  0  0  0  0
 70 72  1  0  0  0  0
 70 80  1  0  0  0  0
 72 74  1  0  0  0  0
 72 82  1  0  0  0  0
 74 76  1  0  0  0  0
 74 84  1  0  0  0  0
 76 78  1  0  0  0  0
 76 86  1  0  0  0  0
 78 80  1  0  0  0  0
 78 86  1  0  0  0  0
 80 82  1  0  0  0  0
 80 88  1  0  0  0  0
 82 84  1  0  0  0  0
 82 88  1  0  0  0  0
 84 86  1  0  0  0  0
 84 88  1  0  0  0  0
 86 88  1  0  0  0  0
M  END
$$$$
CEBBES

From CSD data. Using bond type 'Any'. No disordered atoms. Largest molecule.
 90116  0  0  0  0  0  0  0  0999 V2000
    2.9483   -2.7613    5.3450 Fe  0  0  0  0  0  0  0  0  0  0  0  0
    2.4671   -0.6774    6.6333 Fe  0  0  0  0  0  0  0  0  0  0  0  0
    3.9967   -4.1718    2.9800 O   0  0  0  0  0  0  0  0  0  0  0  0
    0.3225   -4.0173    5.5576 O   0  0  0  0  0  0  0  0  0  0  0  0
    3.8982   -4.5953    7.4145 O   0  0  0  0  0  0  0  0  0  0  0  0
    3.0691   -1.9360    9.1759 O   0  0  0  0  0  0  0  0  0  0  0  0
    0.3203   -0.3552    6.9835 P   0  0  0  0  0  0  0  0  0  0  0  0
    3.0063    1.3219    7.3608 P   0  0  0  0  0  0  0  0  0  0  0  0
    2.1594   -0.8477    4.3721 S   0  0  0  0  0  0  0  0  0  0  0  0
    4.5675   -1.2974    5.9899 S   0  0  0  0  0  0  0  0  0  0  0  0
    3.6191   -3.6191    3.8798 C   0  0  0  0  0  0  0  0  0  0  0  0
    1.3510   -3.4959    5.4422 C   0  0  0  0  0  0  0  0  0  0  0  0
    3.5206   -3.8791    6.5798 C   0  0  0  0  0  0  0  0  0  0  0  0
    2.7818   -1.4179    8.1704 C   0  0  0  0  0  0  0  0  0  0  0  0
   -0.7388   -0.1266    5.5026 C   0  0  0  0  0  0  0  0  0  0  0  0
   -0.8045    1.0280    4.7416 C   0  0  0  0  0  0  0  0  0  0  0  0
   -0.3354    1.8011    5.0355 H   0  0  0  0  0  0  0  0  0  0  0  0
   -1.5304    1.0955    3.5637 C   0  0  0  0  0  0  0  0  0  0  0  0
   -1.5644    1.9058    3.0724 H   0  0  0  0  0  0  0  0  0  0  0  0
   -2.2106   -0.0304    3.1047 C   0  0  0  0  0  0  0  0  0  0  0  0
   -2.7384    0.0118    2.3174 H   0  0  0  0  0  0  0  0  0  0  0  0
   -2.1063   -1.1884    3.8013 C   0  0  0  0  0  0  0  0  0  0  0  0
   -2.5226   -1.9750    3.4691 H   0  0  0  0  0  0  0  0  0  0  0  0
   -1.4050   -1.2441    4.9832 C   0  0  0  0  0  0  0  0  0  0  0  0
   -1.3721   -2.0644    5.4624 H   0  0  0  0  0  0  0  0  0  0  0  0
   -0.7154   -1.5513    7.9288 C   0  0  0  0  0  0  0  0  0  0  0  0
   -2.1027   -1.3639    8.0174 C   0  0  0  0  0  0  0  0  0  0  0  0
   -2.5097   -0.6364    7.5623 H   0  0  0  0  0  0  0  0  0  0  0  0
   -2.8885   -2.2349    8.7643 C   0  0  0  0  0  0  0  0  0  0  0  0
   -3.8267   -2.0965    8.8247 H   0  0  0  0  0  0  0  0  0  0  0  0
   -2.3068   -3.3001    9.4147 C   0  0  0  0  0  0  0  0  0  0  0  0
   -2.8404   -3.8824    9.9422 H   0  0  0  0  0  0  0  0  0  0  0  0
   -0.9429   -3.5212    9.2999 C   0  0  0  0  0  0  0  0  0  0  0  0
   -0.5488   -4.2707    9.7287 H   0  0  0  0  0  0  0  0  0  0  0  0
   -0.1548   -2.6586    8.5630 C   0  0  0  0  0  0  0  0  0  0  0  0
    0.7775   -2.8224    8.4885 H   0  0  0  0  0  0  0  0  0  0  0  0
    3.4268    2.7194    6.2540 C   0  0  0  0  0  0  0  0  0  0  0  0
    2.9342    2.7329    4.9751 C   0  0  0  0  0  0  0  0  0  0  0  0
    2.3690    2.0239    4.6892 H   0  0  0  0  0  0  0  0  0  0  0  0
    3.2415    3.7542    4.0852 C   0  0  0  0  0  0  0  0  0  0  0  0
    2.8732    3.7609    3.2094 H   0  0  0  0  0  0  0  0  0  0  0  0
    4.0964    4.7670    4.4999 C   0  0  0  0  0  0  0  0  0  0  0  0
    4.3368    5.4591    3.8959 H   0  0  0  0  0  0  0  0  0  0  0  0
    4.5948    4.7737    5.7764 C   0  0  0  0  0  0  0  0  0  0  0  0
    5.1707    5.4759    6.0563 H   0  0  0  0  0  0  0  0  0  0  0  0
    4.2641    3.7660    6.6583 C   0  0  0  0  0  0  0  0  0  0  0  0
    4.6066    3.7829    7.5442 H   0  0  0  0  0  0  0  0  0  0  0  0
    4.4600    1.2339    8.4543 C   0  0  0  0  0  0  0  0  0  0  0  0
    5.7148    1.3099    7.8301 C   0  0  0  0  0  0  0  0  0  0  0  0
    5.7676    1.4939    6.8999 H   0  0  0  0  0  0  0  0  0  0  0  0
    6.8653    1.1208    8.5509 C   0  0  0  0  0  0  0  0  0  0  0  0
    7.7061    1.1951    8.1140 H   0  0  0  0  0  0  0  0  0  0  0  0
    6.8254    0.8254    9.8999 C   0  0  0  0  0  0  0  0  0  0  0  0
    7.6287    0.6938   10.3871 H   0  0  0  0  0  0  0  0  0  0  0  0
    5.5928    0.7242   10.5301 C   0  0  0  0  0  0  0  0  0  0  0  0
    5.5471    0.5267   11.4603 H   0  0  0  0  0  0  0  0  0  0  0  0
    4.4271    0.9115    9.8012 C   0  0  0  0  0  0  0  0  0  0  0  0
    3.5874    0.8153   10.2341 H   0  0  0  0  0  0  0  0  0  0  0  0
    0.1009    1.2069    8.0633 C   0  0  0  0  0  0  0  0  0  0  0  0
    1.5785    2.0408    8.3576 C   0  0  0  0  0  0  0  0  0  0  0  0
    3.6777   -0.1620    3.7268 C   0  0  0  0  0  0  0  0  0  0  0  0
    3.7270    0.5942    2.5671 C   0  0  0  0  0  0  0  0  0  0  0  0
    2.9553    0.6988    2.0235 H   0  0  0  0  0  0  0  0  0  0  0  0
    4.9385    1.2002    2.2147 C   0  0  0  0  0  0  0  0  0  0  0  0
    4.9865    1.7420    1.4356 H   0  0  0  0  0  0  0  0  0  0  0  0
    6.0537    1.0145    2.9818 C   0  0  0  0  0  0  0  0  0  0  0  0
    6.8688    1.4281    2.7261 H   0  0  0  0  0  0  0  0  0  0  0  0
    6.0197    0.2279    4.1416 C   0  0  0  0  0  0  0  0  0  0  0  0
    6.7973    0.0945    4.6711 H   0  0  0  0  0  0  0  0  0  0  0  0
    4.7907   -0.3579    4.4919 C   0  0  0  0  0  0  0  0  0  0  0  0
    0.3929    2.7565    7.3348 B   0  0  0  0  0  0  0  0  0  0  0  0
    0.5465    2.9135    6.2355 H   0  0  0  0  0  0  0  0  0  0  0  0
    1.2595    3.7120    8.5469 B   0  0  0  0  0  0  0  0  0  0  0  0
    1.9761    4.5171    8.2429 H   0  0  0  0  0  0  0  0  0  0  0  0
    1.5703    2.6975    9.9522 B   0  0  0  0  0  0  0  0  0  0  0  0
    2.4862    2.8291   10.5824 H   0  0  0  0  0  0  0  0  0  0  0  0
    0.8760    1.0921    9.5999 B   0  0  0  0  0  0  0  0  0  0  0  0
    1.3475    0.1485    9.9804 H   0  0  0  0  0  0  0  0  0  0  0  0
   -0.8655    1.2795    9.4529 B   0  0  0  0  0  0  0  0  0  0  0  0
   -1.5680    0.4642    9.7610 H   0  0  0  0  0  0  0  0  0  0  0  0
   -1.1880    2.2940    8.0335 B   0  0  0  0  0  0  0  0  0  0  0  0
   -2.0957    2.1539    7.3932 H   0  0  0  0  0  0  0  0  0  0  0  0
   -0.4984    3.9061    8.3677 B   0  0  0  0  0  0  0  0  0  0  0  0
   -0.9570    4.8396    7.9509 H   0  0  0  0  0  0  0  0  0  0  0  0
    0.2475    3.8571    9.9824 B   0  0  0  0  0  0  0  0  0  0  0  0
    0.2815    4.7619   10.6408 H   0  0  0  0  0  0  0  0  0  0  0  0
    0.0141    2.2130   10.6469 B   0  0  0  0  0  0  0  0  0  0  0  0
   -0.1055    2.0189   11.7442 H   0  0  0  0  0  0  0  0  0  0  0  0
   -1.2701    2.9929    9.6724 B   0  0  0  0  0  0  0  0  0  0  0  0
   -2.2388    3.3271   10.1234 H   0  0  0  0  0  0  0  0  0  0  0  0
  1  9  1  0  0  0  0
  2  7  1  0  0  0  0
  3 11  3  0  0  0  0
  4 12  3  0  0  0  0
  5 13  3  0  0  0  0
  6 14  3  0  0  0  0
  7 15  1  0  0  0  0
  8  2  1  0  0  0  0
  9  2  1  0  0  0  0
 10  1  1  0  0  0  0
 11  1  1  0  0  0  0
 12  1  1  0  0  0  0
 13  1  1  0  0  0  0
 14  2  1  0  0  0  0
 15 16  4  0  0  0  0
 16 17  1  0  0  0  0
 18 16  4  0  0  0  0
 19 18  1  0  0  0  0
 20 18  4  0  0  0  0
 21 20  1  0  0  0  0
 22 20  4  0  0  0  0
 23 22  1  0  0  0  0
 24 15  4  0  0  0  0
 25 24  1  0  0  0  0
 26  7  1  0  0  0  0
 27 26  4  0  0  0  0
 28 27  1  0  0  0  0
 29 27  4  0  0  0  0
 30 29  1  0  0  0  0
 31 29  4  0  0  0  0
 32 31  1  0  0  0  0
 33 31  4  0  0  0  0
 34 33  1  0  0  0  0
 35 26  4  0  0  0  0
 36 35  1  0  0  0  0
 37  8  1  0  0  0  0
 38 37  4  0  0  0  0
 39 38  1  0  0  0  0
 40 38  4  0  0  0  0
 41 40  1  0  0  0  0
 42 40  4  0  0  0  0
 43 42  1  0  0  0  0
 44 42  4  0  0  0  0
 45 44  1  0  0  0  0
 46 37  4  0  0  0  0
 47 46  1  0  0  0  0
 48  8  1  0  0  0  0
 49 48  4  0  0  0  0
 50 49  1  0  0  0  0
 51 49  4  0  0  0  0
 52 51  1  0  0  0  0
 53 51  4  0  0  0  0
 54 53  1  0  0  0  0
 55 53  4  0  0  0  0
 56 55  1  0  0  0  0
 57 48  4  0  0  0  0
 58 57  1  0  0  0  0
 59  7  1  0  0  0  0
 60  8  1  0  0  0  0
 61  9  1  0  0  0  0
 62 61  4  0  0  0  0
 63 62  1  0  0  0  0
 64 62  4  0  0  0  0
 65 64  1  0  0  0  0
 66 64  4  0  0  0  0
 67 66  1  0  0  0  0
 68 66  4  0  0  0  0
 69 68  1  0  0  0  0
 70 10  1  0  0  0  0
 71 59  1  0  0  0  0
 72 71  1  0  0  0  0
 73 60  1  0  0  0  0
 74 73  1  0  0  0  0
 75 60  1  0  0  0  0
 76 75  1  0  0  0  0
 77 59  1  0  0  0  0
 78 77  1  0  0  0  0
 79 59  1  0  0  0  0
 80 79  1  0  0  0  0
 81 59  1  0  0  0  0
 82 81  1  0  0  0  0
 83 71  1  0  0  0  0
 84 83  1  0  0  0  0
 85 73  1  0  0  0  0
 86 85  1  0  0  0  0
 87 75  1  0  0  0  0
 88 87  1  0  0  0  0
 89 79  1  0  0  0  0
 90 89  1  0  0  0  0
  2 10  1  0  0  0  0
 22 24  4  0  0  0  0
 33 35  4  0  0  0  0
 44 46  4  0  0  0  0
 55 57  4  0  0  0  0
 59 60  1  0  0  0  0
 60 71  1  0  0  0  0
 60 77  1  0  0  0  0
 61 70  4  0  0  0  0
 68 70  4  0  0  0  0
 71 73  1  0  0  0  0
 71 81  1  0  0  0  0
 73 75  1  0  0  0  0
 73 83  1  0  0  0  0
 75 77  1  0  0  0  0
 75 85  1  0  0  0  0
 77 79  1  0  0  0  0
 77 87  1  0  0  0  0
 79 81  1  0  0  0  0
 79 87  1  0  0  0  0
 81 83  1  0  0  0  0
 81 89  1  0  0  0  0
 83 85  1  0  0  0  0
 83 89  1  0  0  0  0
 85 87  1  0  0  0  0
 85 89  1  0  0  0  0
 87 89  1  0  0  0  0
M  END
$$$$
CEBWAK

From CSD data. Using bond type 'Any'. No disordered atoms. Largest molecule.
 95 96  0  0  0  0  0  0  0  0999 V2000
    3.4173    7.5738    6.7746 B   0  0  0  0  0  0  0  0  0  0  0  0
    2.8987    4.5327    8.9152 B   0  0  0  0  0  0  0  0  0  0  0  0
    2.4102    3.3920    9.8589 B   0  0  0  0  0  0  0  0  0  0  0  0
    4.8604    7.5226    7.4141 C   0  0  0  0  0  0  0  0  0  0  0  0
    4.8666    6.0480    7.9907 C   0  0  0  0  0  0  0  0  0  0  0  0
    5.3727    5.4474    7.3871 H   0  0  0  0  0  0  0  0  0  0  0  0
    5.2952    6.0310    8.8819 H   0  0  0  0  0  0  0  0  0  0  0  0
    3.4048    5.5815    8.0958 C   0  0  0  0  0  0  0  0  0  0  0  0
    1.8792    8.5924    5.1185 C   0  0  0  0  0  0  0  0  0  0  0  0
    1.8879    7.8170    4.5193 H   0  0  0  0  0  0  0  0  0  0  0  0
    1.8480    9.4151    4.5868 H   0  0  0  0  0  0  0  0  0  0  0  0
    1.0895    8.5477    5.6986 H   0  0  0  0  0  0  0  0  0  0  0  0
    5.5551    6.6946    4.5334 C   0  0  0  0  0  0  0  0  0  0  0  0
    4.7067    7.0626    4.2082 H   0  0  0  0  0  0  0  0  0  0  0  0
    5.4289    5.7550    4.7826 H   0  0  0  0  0  0  0  0  0  0  0  0
    6.2311    6.7577    3.8252 H   0  0  0  0  0  0  0  0  0  0  0  0
    6.3760    9.4335    5.4608 C   0  0  0  0  0  0  0  0  0  0  0  0
    6.7408    9.9657    6.1991 H   0  0  0  0  0  0  0  0  0  0  0  0
    5.5164    9.8120    5.1808 H   0  0  0  0  0  0  0  0  0  0  0  0
    7.0020    9.4492    4.7064 H   0  0  0  0  0  0  0  0  0  0  0  0
    7.7679    6.9207    6.5490 C   0  0  0  0  0  0  0  0  0  0  0  0
    8.4226    7.0390    5.8292 H   0  0  0  0  0  0  0  0  0  0  0  0
    7.6504    5.9652    6.7300 H   0  0  0  0  0  0  0  0  0  0  0  0
    8.0878    7.3701    7.3588 H   0  0  0  0  0  0  0  0  0  0  0  0
    6.8483    9.1404    9.2053 C   0  0  0  0  0  0  0  0  0  0  0  0
    7.3206    9.5255    8.4381 H   0  0  0  0  0  0  0  0  0  0  0  0
    7.2719    8.2940    9.4564 H   0  0  0  0  0  0  0  0  0  0  0  0
    6.8908    9.7647    9.9612 H   0  0  0  0  0  0  0  0  0  0  0  0
    4.1882    8.3072   10.3237 C   0  0  0  0  0  0  0  0  0  0  0  0
    4.2782    9.0142   10.9969 H   0  0  0  0  0  0  0  0  0  0  0  0
    4.5968    7.4832   10.6618 H   0  0  0  0  0  0  0  0  0  0  0  0
    3.2386    8.1508   10.1396 H   0  0  0  0  0  0  0  0  0  0  0  0
    4.3244   10.4862    8.2388 C   0  0  0  0  0  0  0  0  0  0  0  0
    4.8154   10.8357    7.4654 H   0  0  0  0  0  0  0  0  0  0  0  0
    4.3968   11.1170    8.9842 H   0  0  0  0  0  0  0  0  0  0  0  0
    3.3810   10.3679    8.0007 H   0  0  0  0  0  0  0  0  0  0  0  0
    1.3257    6.0881    6.8172 C   0  0  0  0  0  0  0  0  0  0  0  0
    0.2474    6.5264    7.6021 C   0  0  0  0  0  0  0  0  0  0  0  0
    0.5010    7.2860    8.8972 C   0  0  0  0  0  0  0  0  0  0  0  0
    1.3956    7.0035    9.2431 H   0  0  0  0  0  0  0  0  0  0  0  0
    0.5510    8.7987    8.6563 C   0  0  0  0  0  0  0  0  0  0  0  0
    1.2445    9.0011    7.9942 H   0  0  0  0  0  0  0  0  0  0  0  0
    0.7597    9.2574    9.4977 H   0  0  0  0  0  0  0  0  0  0  0  0
   -0.3186    9.1062    8.3227 H   0  0  0  0  0  0  0  0  0  0  0  0
   -0.5360    6.9693    9.9764 C   0  0  0  0  0  0  0  0  0  0  0  0
   -1.4006    7.3557    9.7218 H   0  0  0  0  0  0  0  0  0  0  0  0
   -0.2461    7.3531   10.8294 H   0  0  0  0  0  0  0  0  0  0  0  0
   -0.6260    5.9981   10.0678 H   0  0  0  0  0  0  0  0  0  0  0  0
   -1.0495    6.2793    7.1563 C   0  0  0  0  0  0  0  0  0  0  0  0
   -1.7880    6.5895    7.6678 H   0  0  0  0  0  0  0  0  0  0  0  0
   -1.2757    5.5841    5.9730 C   0  0  0  0  0  0  0  0  0  0  0  0
   -2.1641    5.4356    5.6703 H   0  0  0  0  0  0  0  0  0  0  0  0
   -0.2062    5.1123    5.2400 C   0  0  0  0  0  0  0  0  0  0  0  0
   -0.3673    4.6169    4.4453 H   0  0  0  0  0  0  0  0  0  0  0  0
    1.1070    5.3476    5.6440 C   0  0  0  0  0  0  0  0  0  0  0  0
    2.2565    4.7798    4.8233 C   0  0  0  0  0  0  0  0  0  0  0  0
    3.1062    5.1820    5.1655 H   0  0  0  0  0  0  0  0  0  0  0  0
    2.3477    3.2737    5.0043 C   0  0  0  0  0  0  0  0  0  0  0  0
    2.5064    3.0674    5.9489 H   0  0  0  0  0  0  0  0  0  0  0  0
    3.0862    2.9228    4.4649 H   0  0  0  0  0  0  0  0  0  0  0  0
    1.5068    2.8584    4.7173 H   0  0  0  0  0  0  0  0  0  0  0  0
    2.1491    5.1123    3.3321 C   0  0  0  0  0  0  0  0  0  0  0  0
    1.3557    4.6747    2.9570 H   0  0  0  0  0  0  0  0  0  0  0  0
    2.9500    4.7916    2.8678 H   0  0  0  0  0  0  0  0  0  0  0  0
    2.0704    6.0822    3.2181 H   0  0  0  0  0  0  0  0  0  0  0  0
    0.5710    1.6927    8.0827 C   0  0  0  0  0  0  0  0  0  0  0  0
    0.6247    2.4155    7.4241 H   0  0  0  0  0  0  0  0  0  0  0  0
   -0.2274    1.8136    8.6361 H   0  0  0  0  0  0  0  0  0  0  0  0
    0.5198    0.8306    7.6199 H   0  0  0  0  0  0  0  0  0  0  0  0
    3.3698    1.1026    8.0775 C   0  0  0  0  0  0  0  0  0  0  0  0
    3.0424    0.3391    7.5590 H   0  0  0  0  0  0  0  0  0  0  0  0
    4.1270    0.8201    8.6339 H   0  0  0  0  0  0  0  0  0  0  0  0
    3.6609    1.8123    7.4676 H   0  0  0  0  0  0  0  0  0  0  0  0
    1.7442    0.3522   10.2867 C   0  0  0  0  0  0  0  0  0  0  0  0
    0.9921    0.5783   10.8729 H   0  0  0  0  0  0  0  0  0  0  0  0
    2.5452    0.1971   10.8272 H   0  0  0  0  0  0  0  0  0  0  0  0
    1.5306   -0.4587    9.7806 H   0  0  0  0  0  0  0  0  0  0  0  0
    2.8238    2.7388   12.8914 C   0  0  0  0  0  0  0  0  0  0  0  0
    3.7959    2.8124   12.7811 H   0  0  0  0  0  0  0  0  0  0  0  0
    2.5551    1.8018   12.7876 H   0  0  0  0  0  0  0  0  0  0  0  0
    2.5714    3.0542   13.7842 H   0  0  0  0  0  0  0  0  0  0  0  0
    0.2561    3.6338   12.1575 C   0  0  0  0  0  0  0  0  0  0  0  0
    0.1862    3.8704   13.1053 H   0  0  0  0  0  0  0  0  0  0  0  0
   -0.0637    2.7178   12.0261 H   0  0  0  0  0  0  0  0  0  0  0  0
   -0.2899    4.2502   11.6257 H   0  0  0  0  0  0  0  0  0  0  0  0
    2.4727    5.4422   12.0402 C   0  0  0  0  0  0  0  0  0  0  0  0
    2.0179    6.0678   11.4386 H   0  0  0  0  0  0  0  0  0  0  0  0
    3.4423    5.5381   11.9391 H   0  0  0  0  0  0  0  0  0  0  0  0
    2.2190    5.6380   12.9661 H   0  0  0  0  0  0  0  0  0  0  0  0
    2.6604    6.4476    7.1913 N   0  0  0  0  0  0  0  0  0  0  0  0
    3.0569    8.5882    5.9193 O   0  0  0  0  0  0  0  0  0  0  0  0
    2.0460    1.7244    9.1352 P   0  0  0  0  0  0  0  0  0  0  0  0
    1.9903    3.7526   11.6292 P   0  0  0  0  0  0  0  0  0  0  0  0
    6.1257    7.6647    6.0285 Si  0  0  0  0  0  0  0  0  0  0  0  0
    5.0527    8.8325    8.7473 Si  0  0  0  0  0  0  0  0  0  0  0  0
  1  4  1  0  0  0  0
  2  3  1  0  0  0  0
  3 92  1  0  0  0  0
  4  5  1  0  0  0  0
  5  6  1  0  0  0  0
  7  5  1  0  0  0  0
  8  2  2  0  0  0  0
  9 10  1  0  0  0  0
 11  9  1  0  0  0  0
 12  9  1  0  0  0  0
 13 14  1  0  0  0  0
 15 13  1  0  0  0  0
 16 13  1  0  0  0  0
 17 18  1  0  0  0  0
 19 17  1  0  0  0  0
 20 17  1  0  0  0  0
 21 22  1  0  0  0  0
 23 21  1  0  0  0  0
 24 21  1  0  0  0  0
 25 26  1  0  0  0  0
 27 25  1  0  0  0  0
 28 25  1  0  0  0  0
 29 30  1  0  0  0  0
 31 29  1  0  0  0  0
 32 29  1  0  0  0  0
 33 34  1  0  0  0  0
 35 33  1  0  0  0  0
 36 33  1  0  0  0  0
 37 38  4  0  0  0  0
 38 39  1  0  0  0  0
 39 40  1  0  0  0  0
 41 39  1  0  0  0  0
 42 41  1  0  0  0  0
 43 41  1  0  0  0  0
 44 41  1  0  0  0  0
 45 39  1  0  0  0  0
 46 45  1  0  0  0  0
 47 45  1  0  0  0  0
 48 45  1  0  0  0  0
 49 38  4  0  0  0  0
 50 49  1  0  0  0  0
 51 49  4  0  0  0  0
 52 51  1  0  0  0  0
 53 51  4  0  0  0  0
 54 53  1  0  0  0  0
 55 37  4  0  0  0  0
 56 55  1  0  0  0  0
 57 56  1  0  0  0  0
 58 56  1  0  0  0  0
 59 58  1  0  0  0  0
 60 58  1  0  0  0  0
 61 58  1  0  0  0  0
 62 56  1  0  0  0  0
 63 62  1  0  0  0  0
 64 62  1  0  0  0  0
 65 62  1  0  0  0  0
 66 67  1  0  0  0  0
 68 66  1  0  0  0  0
 69 66  1  0  0  0  0
 70 71  1  0  0  0  0
 72 70  1  0  0  0  0
 73 70  1  0  0  0  0
 74 75  1  0  0  0  0
 76 74  1  0  0  0  0
 77 74  1  0  0  0  0
 78 79  1  0  0  0  0
 80 78  1  0  0  0  0
 81 78  1  0  0  0  0
 82 83  1  0  0  0  0
 84 82  1  0  0  0  0
 85 82  1  0  0  0  0
 86 87  1  0  0  0  0
 88 86  1  0  0  0  0
 89 86  1  0  0  0  0
 90  1  1  0  0  0  0
 91  1  1  0  0  0  0
 92 66  1  0  0  0  0
 93  3  1  0  0  0  0
 94  4  1  0  0  0  0
 95  4  1  0  0  0  0
  5  8  1  0  0  0  0
  8 90  1  0  0  0  0
  9 91  1  0  0  0  0
 13 94  1  0  0  0  0
 17 94  1  0  0  0  0
 21 94  1  0  0  0  0
 25 95  1  0  0  0  0
 29 95  1  0  0  0  0
 33 95  1  0  0  0  0
 37 90  1  0  0  0  0
 53 55  4  0  0  0  0
 70 92  1  0  0  0  0
 74 92  1  0  0  0  0
 78 93  1  0  0  0  0
 82 93  1  0  0  0  0
 86 93  1  0  0  0  0
M  END
$$$$
CEBWEO

From CSD data. Using bond type 'Any'. No disordered atoms. Largest molecule.
 97 98  0  0  0  0  0  0  0  0999 V2000
    3.3944    5.6433    2.0573 B   0  0  0  0  0  0  0  0  0  0  0  0
    1.8649    4.8161    5.4217 B   0  0  0  0  0  0  0  0  0  0  0  0
    2.1112    4.0168    6.8889 B   0  0  0  0  0  0  0  0  0  0  0  0
   -0.1031    5.5471    5.4661 Br  0  0  0  0  0  0  0  0  0  0  0  0
    3.8329    2.8158    7.0318 Br  0  0  0  0  0  0  0  0  0  0  0  0
    2.8828    7.3645    0.2716 C   0  0  0  0  0  0  0  0  0  0  0  0
    1.9142    7.2220    0.3089 H   0  0  0  0  0  0  0  0  0  0  0  0
    3.1587    7.4970   -0.6591 H   0  0  0  0  0  0  0  0  0  0  0  0
    3.1165    8.1571    0.7984 H   0  0  0  0  0  0  0  0  0  0  0  0
    4.3931    4.5367    2.5564 C   0  0  0  0  0  0  0  0  0  0  0  0
    4.0798    4.5656    4.0828 C   0  0  0  0  0  0  0  0  0  0  0  0
    4.1444    3.6539    4.4620 H   0  0  0  0  0  0  0  0  0  0  0  0
    4.7283    5.1479    4.5530 H   0  0  0  0  0  0  0  0  0  0  0  0
    2.6576    5.1100    4.2552 C   0  0  0  0  0  0  0  0  0  0  0  0
    1.4652    6.9848    2.9784 C   0  0  0  0  0  0  0  0  0  0  0  0
    0.2364    6.7466    2.3441 C   0  0  0  0  0  0  0  0  0  0  0  0
   -0.6371    7.8042    2.1152 C   0  0  0  0  0  0  0  0  0  0  0  0
   -1.4585    7.6584    1.6629 H   0  0  0  0  0  0  0  0  0  0  0  0
   -0.3026    9.0845    2.5454 C   0  0  0  0  0  0  0  0  0  0  0  0
   -0.8694    9.8137    2.3317 H   0  0  0  0  0  0  0  0  0  0  0  0
    0.8501    9.2961    3.2817 C   0  0  0  0  0  0  0  0  0  0  0  0
    1.0426   10.1622    3.6223 H   0  0  0  0  0  0  0  0  0  0  0  0
    1.7241    8.2418    3.5299 C   0  0  0  0  0  0  0  0  0  0  0  0
    2.9713    8.5056    4.3641 C   0  0  0  0  0  0  0  0  0  0  0  0
    3.4921    7.6517    4.4427 H   0  0  0  0  0  0  0  0  0  0  0  0
    3.8593    9.5744    3.6816 C   0  0  0  0  0  0  0  0  0  0  0  0
    4.0345    9.3172    2.7564 H   0  0  0  0  0  0  0  0  0  0  0  0
    4.7134    9.6467    4.1670 H   0  0  0  0  0  0  0  0  0  0  0  0
    3.4029   10.4416    3.7050 H   0  0  0  0  0  0  0  0  0  0  0  0
    2.5978    8.9843    5.7637 C   0  0  0  0  0  0  0  0  0  0  0  0
    2.1634    9.8605    5.7030 H   0  0  0  0  0  0  0  0  0  0  0  0
    3.4011    9.0522    6.3152 H   0  0  0  0  0  0  0  0  0  0  0  0
    1.9735    8.3420    6.1732 H   0  0  0  0  0  0  0  0  0  0  0  0
   -0.1429    5.3327    1.8766 C   0  0  0  0  0  0  0  0  0  0  0  0
    0.3831    4.6914    2.4282 H   0  0  0  0  0  0  0  0  0  0  0  0
    0.2368    5.0878    0.4109 C   0  0  0  0  0  0  0  0  0  0  0  0
   -0.3000    5.6745   -0.1668 H   0  0  0  0  0  0  0  0  0  0  0  0
    0.0483    4.1526    0.1820 H   0  0  0  0  0  0  0  0  0  0  0  0
    1.1830    5.2759    0.2799 H   0  0  0  0  0  0  0  0  0  0  0  0
   -1.6285    4.9876    2.0683 C   0  0  0  0  0  0  0  0  0  0  0  0
   -1.9452    5.3539    2.9163 H   0  0  0  0  0  0  0  0  0  0  0  0
   -1.7337    4.0123    2.0711 H   0  0  0  0  0  0  0  0  0  0  0  0
   -2.1494    5.3672    1.3292 H   0  0  0  0  0  0  0  0  0  0  0  0
    3.8649    2.9547   -0.0855 C   0  0  0  0  0  0  0  0  0  0  0  0
    3.6954    2.0585   -0.4412 H   0  0  0  0  0  0  0  0  0  0  0  0
    4.7045    3.2998   -0.4536 H   0  0  0  0  0  0  0  0  0  0  0  0
    3.1281    3.5503   -0.3364 H   0  0  0  0  0  0  0  0  0  0  0  0
    5.2817    1.5876    2.2310 C   0  0  0  0  0  0  0  0  0  0  0  0
    5.3975    1.5620    3.2031 H   0  0  0  0  0  0  0  0  0  0  0  0
    6.1335    1.8214    1.8063 H   0  0  0  0  0  0  0  0  0  0  0  0
    4.9893    0.7081    1.9139 H   0  0  0  0  0  0  0  0  0  0  0  0
    2.3658    2.2088    2.4172 C   0  0  0  0  0  0  0  0  0  0  0  0
    2.3912    2.1542    3.3948 H   0  0  0  0  0  0  0  0  0  0  0  0
    2.2108    1.3159    2.0435 H   0  0  0  0  0  0  0  0  0  0  0  0
    1.6406    2.8077    2.1428 H   0  0  0  0  0  0  0  0  0  0  0  0
    7.3204    4.1871    3.5134 C   0  0  0  0  0  0  0  0  0  0  0  0
    8.2194    4.5734    3.4568 H   0  0  0  0  0  0  0  0  0  0  0  0
    7.3594    3.2330    3.2914 H   0  0  0  0  0  0  0  0  0  0  0  0
    6.9752    4.2962    4.4234 H   0  0  0  0  0  0  0  0  0  0  0  0
    6.8614    4.7560    0.5846 C   0  0  0  0  0  0  0  0  0  0  0  0
    6.2988    5.2136   -0.0745 H   0  0  0  0  0  0  0  0  0  0  0  0
    6.8632    3.7930    0.4013 H   0  0  0  0  0  0  0  0  0  0  0  0
    7.7773    5.1011    0.5267 H   0  0  0  0  0  0  0  0  0  0  0  0
    6.3405    6.8958    2.6474 C   0  0  0  0  0  0  0  0  0  0  0  0
    5.8031    7.3957    1.9980 H   0  0  0  0  0  0  0  0  0  0  0  0
    7.2804    7.1641    2.5688 H   0  0  0  0  0  0  0  0  0  0  0  0
    6.0203    7.0873    3.5534 H   0  0  0  0  0  0  0  0  0  0  0  0
    2.7385    4.6658    9.9624 C   0  0  0  0  0  0  0  0  0  0  0  0
    3.3877    3.9322    9.9251 H   0  0  0  0  0  0  0  0  0  0  0  0
    1.8928    4.3352   10.3292 H   0  0  0  0  0  0  0  0  0  0  0  0
    3.0859    5.3806   10.5346 H   0  0  0  0  0  0  0  0  0  0  0  0
    1.1640    6.5484    8.5435 C   0  0  0  0  0  0  0  0  0  0  0  0
    1.4706    7.2198    9.1902 H   0  0  0  0  0  0  0  0  0  0  0  0
    0.3546    6.1131    8.8841 H   0  0  0  0  0  0  0  0  0  0  0  0
    0.9656    6.9848    7.6886 H   0  0  0  0  0  0  0  0  0  0  0  0
    3.9431    6.2022    7.8320 C   0  0  0  0  0  0  0  0  0  0  0  0
    4.0407    6.9938    8.4001 H   0  0  0  0  0  0  0  0  0  0  0  0
    3.8751    6.4783    6.8944 H   0  0  0  0  0  0  0  0  0  0  0  0
    4.7251    5.6211    7.9451 H   0  0  0  0  0  0  0  0  0  0  0  0
   -0.8244    3.3722    7.9947 C   0  0  0  0  0  0  0  0  0  0  0  0
   -1.4178    2.6318    8.2374 H   0  0  0  0  0  0  0  0  0  0  0  0
   -1.2548    3.9255    7.3094 H   0  0  0  0  0  0  0  0  0  0  0  0
   -0.6411    3.9177    8.7876 H   0  0  0  0  0  0  0  0  0  0  0  0
    1.1777    1.5007    8.5904 C   0  0  0  0  0  0  0  0  0  0  0  0
    1.2949    1.9427    9.4563 H   0  0  0  0  0  0  0  0  0  0  0  0
    2.0189    1.0721    8.3256 H   0  0  0  0  0  0  0  0  0  0  0  0
    0.4742    0.8227    8.6621 H   0  0  0  0  0  0  0  0  0  0  0  0
    0.3060    1.7791    5.8795 C   0  0  0  0  0  0  0  0  0  0  0  0
   -0.3932    1.1255    6.0905 H   0  0  0  0  0  0  0  0  0  0  0  0
    1.1067    1.3104    5.5596 H   0  0  0  0  0  0  0  0  0  0  0  0
   -0.0150    2.3880    5.1818 H   0  0  0  0  0  0  0  0  0  0  0  0
    2.4291    5.9027    3.0666 N   0  0  0  0  0  0  0  0  0  0  0  0
    3.5540    6.2189    0.8108 O   0  0  0  0  0  0  0  0  0  0  0  0
    2.4615    5.3082    8.3007 P   0  0  0  0  0  0  0  0  0  0  0  0
    0.7121    2.7187    7.3535 P   0  0  0  0  0  0  0  0  0  0  0  0
    3.9896    2.8723    1.7883 Si  0  0  0  0  0  0  0  0  0  0  0  0
    6.1868    5.0622    2.3041 Si  0  0  0  0  0  0  0  0  0  0  0  0
  1 10  1  0  0  0  0
  2  3  1  0  0  0  0
  3  5  1  0  0  0  0
  4  2  1  0  0  0  0
  6  7  1  0  0  0  0
  8  6  1  0  0  0  0
  9  6  1  0  0  0  0
 10 11  1  0  0  0  0
 11 12  1  0  0  0  0
 13 11  1  0  0  0  0
 14  2  2  0  0  0  0
 15 16  4  0  0  0  0
 16 17  4  0  0  0  0
 17 18  1  0  0  0  0
 19 17  4  0  0  0  0
 20 19  1  0  0  0  0
 21 19  4  0  0  0  0
 22 21  1  0  0  0  0
 23 15  4  0  0  0  0
 24 23  1  0  0  0  0
 25 24  1  0  0  0  0
 26 24  1  0  0  0  0
 27 26  1  0  0  0  0
 28 26  1  0  0  0  0
 29 26  1  0  0  0  0
 30 24  1  0  0  0  0
 31 30  1  0  0  0  0
 32 30  1  0  0  0  0
 33 30  1  0  0  0  0
 34 16  1  0  0  0  0
 35 34  1  0  0  0  0
 36 34  1  0  0  0  0
 37 36  1  0  0  0  0
 38 36  1  0  0  0  0
 39 36  1  0  0  0  0
 40 34  1  0  0  0  0
 41 40  1  0  0  0  0
 42 40  1  0  0  0  0
 43 40  1  0  0  0  0
 44 45  1  0  0  0  0
 46 44  1  0  0  0  0
 47 44  1  0  0  0  0
 48 49  1  0  0  0  0
 50 48  1  0  0  0  0
 51 48  1  0  0  0  0
 52 53  1  0  0  0  0
 54 52  1  0  0  0  0
 55 52  1  0  0  0  0
 56 57  1  0  0  0  0
 58 56  1  0  0  0  0
 59 56  1  0  0  0  0
 60 61  1  0  0  0  0
 62 60  1  0  0  0  0
 63 60  1  0  0  0  0
 64 65  1  0  0  0  0
 66 64  1  0  0  0  0
 67 64  1  0  0  0  0
 68 69  1  0  0  0  0
 70 68  1  0  0  0  0
 71 68  1  0  0  0  0
 72 73  1  0  0  0  0
 74 72  1  0  0  0  0
 75 72  1  0  0  0  0
 76 77  1  0  0  0  0
 78 76  1  0  0  0  0
 79 76  1  0  0  0  0
 80 81  1  0  0  0  0
 82 80  1  0  0  0  0
 83 80  1  0  0  0  0
 84 85  1  0  0  0  0
 86 84  1  0  0  0  0
 87 84  1  0  0  0  0
 88 89  1  0  0  0  0
 90 88  1  0  0  0  0
 91 88  1  0  0  0  0
 92  1  1  0  0  0  0
 93  1  1  0  0  0  0
 94  3  1  0  0  0  0
 95  3  1  0  0  0  0
 96 10  1  0  0  0  0
 97 10  1  0  0  0  0
  6 93  1  0  0  0  0
 11 14  1  0  0  0  0
 14 92  1  0  0  0  0
 15 92  1  0  0  0  0
 21 23  4  0  0  0  0
 44 96  1  0  0  0  0
 48 96  1  0  0  0  0
 52 96  1  0  0  0  0
 56 97  1  0  0  0  0
 60 97  1  0  0  0  0
 64 97  1  0  0  0  0
 68 94  1  0  0  0  0
 72 94  1  0  0  0  0
 76 94  1  0  0  0  0
 80 95  1  0  0  0  0
 84 95  1  0  0  0  0
 88 95  1  0  0  0  0
M  END
$$$$
CECBAR

From CSD data. Using bond type 'Any'. No disordered atoms. Largest molecule.
 67 70  0  0  0  0  0  0  0  0999 V2000
    4.3777   18.5236    2.4703 C   0  0  0  0  0  0  0  0  0  0  0  0
    3.5897   19.6559    2.3649 C   0  0  0  0  0  0  0  0  0  0  0  0
    2.4970   19.7088    1.5202 C   0  0  0  0  0  0  0  0  0  0  0  0
    1.9633   20.4908    1.4432 H   0  0  0  0  0  0  0  0  0  0  0  0
    2.2160   18.5496    0.7827 C   0  0  0  0  0  0  0  0  0  0  0  0
    1.4738   18.5448    0.1897 H   0  0  0  0  0  0  0  0  0  0  0  0
    2.9995   17.4084    0.9005 C   0  0  0  0  0  0  0  0  0  0  0  0
    2.7777   16.6371    0.3924 H   0  0  0  0  0  0  0  0  0  0  0  0
    4.1130   17.3728    1.7557 C   0  0  0  0  0  0  0  0  0  0  0  0
    4.6555   16.5974    1.8380 H   0  0  0  0  0  0  0  0  0  0  0  0
    8.5691   17.7890    6.5033 C   0  0  0  0  0  0  0  0  0  0  0  0
    9.1230   18.0198    5.2585 C   0  0  0  0  0  0  0  0  0  0  0  0
   10.1423   17.2415    4.7496 C   0  0  0  0  0  0  0  0  0  0  0  0
   10.5287   17.4135    3.8990 H   0  0  0  0  0  0  0  0  0  0  0  0
   10.5747   16.1831    5.5585 C   0  0  0  0  0  0  0  0  0  0  0  0
   11.2690   15.6151    5.2459 H   0  0  0  0  0  0  0  0  0  0  0  0
   10.0140   15.9434    6.8059 C   0  0  0  0  0  0  0  0  0  0  0  0
   10.3330   15.2156    7.3265 H   0  0  0  0  0  0  0  0  0  0  0  0
    8.9876   16.7518    7.3139 C   0  0  0  0  0  0  0  0  0  0  0  0
    8.6014   16.5950    8.1676 H   0  0  0  0  0  0  0  0  0  0  0  0
    7.6159   20.7474    2.0983 C   0  0  0  0  0  0  0  0  0  0  0  0
    6.7167   20.7158    1.7101 H   0  0  0  0  0  0  0  0  0  0  0  0
    7.9014   19.8403    2.3352 H   0  0  0  0  0  0  0  0  0  0  0  0
    8.2406   21.1263    1.4453 H   0  0  0  0  0  0  0  0  0  0  0  0
    9.3938   21.9396    3.8870 C   0  0  0  0  0  0  0  0  0  0  0  0
    9.8185   22.3516    3.1059 H   0  0  0  0  0  0  0  0  0  0  0  0
    9.7768   21.0498    4.0358 H   0  0  0  0  0  0  0  0  0  0  0  0
    9.5498   22.4985    4.6767 H   0  0  0  0  0  0  0  0  0  0  0  0
    7.1450   23.4030    2.8967 C   0  0  0  0  0  0  0  0  0  0  0  0
    7.7783   23.6410    2.1877 H   0  0  0  0  0  0  0  0  0  0  0  0
    7.1737   24.0826    3.6021 H   0  0  0  0  0  0  0  0  0  0  0  0
    6.2397   23.3569    2.5240 H   0  0  0  0  0  0  0  0  0  0  0  0
    7.7927   24.1431    6.4164 C   0  0  0  0  0  0  0  0  0  0  0  0
    7.0211   24.5823    6.0016 H   0  0  0  0  0  0  0  0  0  0  0  0
    8.5159   24.0645    5.7598 H   0  0  0  0  0  0  0  0  0  0  0  0
    8.1005   24.6754    7.1794 H   0  0  0  0  0  0  0  0  0  0  0  0
    8.8226   21.8706    7.8122 C   0  0  0  0  0  0  0  0  0  0  0  0
    9.0971   22.5090    8.5032 H   0  0  0  0  0  0  0  0  0  0  0  0
    9.5386   21.7787    7.1493 H   0  0  0  0  0  0  0  0  0  0  0  0
    8.6455   20.9992    8.2245 H   0  0  0  0  0  0  0  0  0  0  0  0
    6.2772   22.9602    8.4185 C   0  0  0  0  0  0  0  0  0  0  0  0
    6.1883   22.2002    9.0308 H   0  0  0  0  0  0  0  0  0  0  0  0
    5.3898   23.2310    8.1029 H   0  0  0  0  0  0  0  0  0  0  0  0
    6.7001   23.7096    8.8872 H   0  0  0  0  0  0  0  0  0  0  0  0
    5.1347   19.7563    8.5052 C   0  0  0  0  0  0  0  0  0  0  0  0
    4.9368   20.5884    8.9836 H   0  0  0  0  0  0  0  0  0  0  0  0
    6.0840   19.5369    8.6103 H   0  0  0  0  0  0  0  0  0  0  0  0
    4.5889   19.0302    8.8731 H   0  0  0  0  0  0  0  0  0  0  0  0
    3.0942   20.6928    6.7884 C   0  0  0  0  0  0  0  0  0  0  0  0
    2.5151   20.1440    7.3577 H   0  0  0  0  0  0  0  0  0  0  0  0
    2.7243   20.7264    5.8819 H   0  0  0  0  0  0  0  0  0  0  0  0
    3.1462   21.6005    7.1543 H   0  0  0  0  0  0  0  0  0  0  0  0
    4.3527   18.2422    6.3169 C   0  0  0  0  0  0  0  0  0  0  0  0
    3.7115   17.8875    6.9680 H   0  0  0  0  0  0  0  0  0  0  0  0
    5.1703   17.7029    6.3365 H   0  0  0  0  0  0  0  0  0  0  0  0
    3.9596   18.2074    5.4197 H   0  0  0  0  0  0  0  0  0  0  0  0
    5.1937   20.0757    3.8725 B   0  0  0  0  0  0  0  0  0  0  0  0
    7.4833   19.5246    5.5695 B   0  0  0  0  0  0  0  0  0  0  0  0
    4.7145   23.0927    5.1636 Cl  0  0  0  0  0  0  0  0  0  0  0  0
    5.3882   18.7627    3.3806 O   0  0  0  0  0  0  0  0  0  0  0  0
    4.0731   20.6286    3.2073 O   0  0  0  0  0  0  0  0  0  0  0  0
    7.5636   18.7085    6.7310 O   0  0  0  0  0  0  0  0  0  0  0  0
    8.4713   19.0779    4.6639 O   0  0  0  0  0  0  0  0  0  0  0  0
    7.5956   21.7875    3.5937 P   0  0  0  0  0  0  0  0  0  0  0  0
    7.3081   22.4749    6.9923 P   0  0  0  0  0  0  0  0  0  0  0  0
    4.7525   19.9672    6.7374 P   0  0  0  0  0  0  0  0  0  0  0  0
    6.2390   21.0789    5.3339 Rh  0  0  0  0  0  0  0  0  0  0  0  0
  1  2  4  0  0  0  0
  2  3  4  0  0  0  0
  3  4  1  0  0  0  0
  5  3  4  0  0  0  0
  6  5  1  0  0  0  0
  7  5  4  0  0  0  0
  8  7  1  0  0  0  0
  9  1  4  0  0  0  0
 10  9  1  0  0  0  0
 11 12  4  0  0  0  0
 12 13  4  0  0  0  0
 13 14  1  0  0  0  0
 15 13  4  0  0  0  0
 16 15  1  0  0  0  0
 17 15  4  0  0  0  0
 18 17  1  0  0  0  0
 19 11  4  0  0  0  0
 20 19  1  0  0  0  0
 21 22  1  0  0  0  0
 23 21  1  0  0  0  0
 24 21  1  0  0  0  0
 25 26  1  0  0  0  0
 27 25  1  0  0  0  0
 28 25  1  0  0  0  0
 29 30  1  0  0  0  0
 31 29  1  0  0  0  0
 32 29  1  0  0  0  0
 33 34  1  0  0  0  0
 35 33  1  0  0  0  0
 36 33  1  0  0  0  0
 37 38  1  0  0  0  0
 39 37  1  0  0  0  0
 40 37  1  0  0  0  0
 41 42  1  0  0  0  0
 43 41  1  0  0  0  0
 44 41  1  0  0  0  0
 45 46  1  0  0  0  0
 47 45  1  0  0  0  0
 48 45  1  0  0  0  0
 49 50  1  0  0  0  0
 51 49  1  0  0  0  0
 52 49  1  0  0  0  0
 53 54  1  0  0  0  0
 55 53  1  0  0  0  0
 56 53  1  0  0  0  0
 57 60  1  0  0  0  0
 58 62  1  0  0  0  0
 59 67  1  0  0  0  0
 60  1  1  0  0  0  0
 61  2  1  0  0  0  0
 62 11  1  0  0  0  0
 63 12  1  0  0  0  0
 64 21  1  0  0  0  0
 65 33  1  0  0  0  0
 66 45  1  0  0  0  0
 67 57  1  0  0  0  0
  7  9  4  0  0  0  0
 17 19  4  0  0  0  0
 25 64  1  0  0  0  0
 29 64  1  0  0  0  0
 37 65  1  0  0  0  0
 41 65  1  0  0  0  0
 49 66  1  0  0  0  0
 53 66  1  0  0  0  0
 57 61  1  0  0  0  0
 58 63  1  0  0  0  0
 58 67  1  0  0  0  0
 64 67  1  0  0  0  0
 65 67  1  0  0  0  0
 66 67  1  0  0  0  0
M  END
$$$$
CECBEV

From CSD data. Using bond type 'Any'. No disordered atoms. Largest molecule.
 79 82  0  0  0  0  0  0  0  0999 V2000
    9.5407    7.7985    7.9639 C   0  0  0  0  0  0  0  0  0  0  0  0
   10.8967    7.9168    8.0682 C   0  0  0  0  0  0  0  0  0  0  0  0
   11.5940    7.4739    9.1786 C   0  0  0  0  0  0  0  0  0  0  0  0
   12.5378    7.5516    9.2462 H   0  0  0  0  0  0  0  0  0  0  0  0
   10.8239    6.9047   10.1919 C   0  0  0  0  0  0  0  0  0  0  0  0
   11.2568    6.5733   10.9697 H   0  0  0  0  0  0  0  0  0  0  0  0
    9.4501    6.8082   10.0982 C   0  0  0  0  0  0  0  0  0  0  0  0
    8.9616    6.4286   10.8192 H   0  0  0  0  0  0  0  0  0  0  0  0
    8.7629    7.2539    8.9741 C   0  0  0  0  0  0  0  0  0  0  0  0
    7.8177    7.1894    8.9029 H   0  0  0  0  0  0  0  0  0  0  0  0
   12.9423   12.6970    4.9003 C   0  0  0  0  0  0  0  0  0  0  0  0
   13.7668   11.7104    5.3597 C   0  0  0  0  0  0  0  0  0  0  0  0
   15.0364   11.9821    5.8051 C   0  0  0  0  0  0  0  0  0  0  0  0
   15.6176   11.2956    6.1114 H   0  0  0  0  0  0  0  0  0  0  0  0
   15.4231   13.3227    5.7850 C   0  0  0  0  0  0  0  0  0  0  0  0
   16.2925   13.5545    6.0887 H   0  0  0  0  0  0  0  0  0  0  0  0
   14.5940   14.3081    5.3411 C   0  0  0  0  0  0  0  0  0  0  0  0
   14.8965   15.2083    5.3462 H   0  0  0  0  0  0  0  0  0  0  0  0
   13.3169   14.0221    4.8827 C   0  0  0  0  0  0  0  0  0  0  0  0
   12.7318   14.7041    4.5727 H   0  0  0  0  0  0  0  0  0  0  0  0
    7.4168    7.2322    4.4319 C   0  0  0  0  0  0  0  0  0  0  0  0
    6.6686    6.8316    3.9421 H   0  0  0  0  0  0  0  0  0  0  0  0
    7.0704    7.8288    5.1275 H   0  0  0  0  0  0  0  0  0  0  0  0
    7.9523    6.5232    4.8466 H   0  0  0  0  0  0  0  0  0  0  0  0
    8.6926    6.8789    2.0158 C   0  0  0  0  0  0  0  0  0  0  0  0
    9.2722    6.1754    2.3764 H   0  0  0  0  0  0  0  0  0  0  0  0
    9.1097    7.2683    1.2187 H   0  0  0  0  0  0  0  0  0  0  0  0
    7.8238    6.4957    1.7761 H   0  0  0  0  0  0  0  0  0  0  0  0
    7.2326    9.2135    2.3960 C   0  0  0  0  0  0  0  0  0  0  0  0
    6.4917    8.6491    2.0893 H   0  0  0  0  0  0  0  0  0  0  0  0
    7.6597    9.6393    1.6241 H   0  0  0  0  0  0  0  0  0  0  0  0
    6.8885    9.9028    3.0014 H   0  0  0  0  0  0  0  0  0  0  0  0
   10.5323    9.5360    0.3948 C   0  0  0  0  0  0  0  0  0  0  0  0
    9.5645    9.4071    0.3054 H   0  0  0  0  0  0  0  0  0  0  0  0
   10.9771    8.6628    0.4130 H   0  0  0  0  0  0  0  0  0  0  0  0
   10.8641   10.0560   -0.3662 H   0  0  0  0  0  0  0  0  0  0  0  0
   12.6759   10.7691    1.7261 C   0  0  0  0  0  0  0  0  0  0  0  0
   12.8436   11.0372    0.7987 H   0  0  0  0  0  0  0  0  0  0  0  0
   13.1873    9.9575    1.9289 H   0  0  0  0  0  0  0  0  0  0  0  0
   12.9524   11.4889    2.3301 H   0  0  0  0  0  0  0  0  0  0  0  0
   10.1984   12.0576    1.4919 C   0  0  0  0  0  0  0  0  0  0  0  0
   10.5518   12.3272    0.6180 H   0  0  0  0  0  0  0  0  0  0  0  0
   10.4503   12.7230    2.1653 H   0  0  0  0  0  0  0  0  0  0  0  0
    9.2211   11.9960    1.4430 H   0  0  0  0  0  0  0  0  0  0  0  0
   12.2403    7.0180    2.2492 C   0  0  0  0  0  0  0  0  0  0  0  0
   12.6804    7.7333    1.7436 H   0  0  0  0  0  0  0  0  0  0  0  0
   11.4217    6.7458    1.7849 H   0  0  0  0  0  0  0  0  0  0  0  0
   12.8453    6.2505    2.3227 H   0  0  0  0  0  0  0  0  0  0  0  0
   11.2208    6.0769    4.6920 C   0  0  0  0  0  0  0  0  0  0  0  0
   11.8343    5.3456    4.4719 H   0  0  0  0  0  0  0  0  0  0  0  0
   10.3265    5.8679    4.3504 H   0  0  0  0  0  0  0  0  0  0  0  0
   11.1810    6.1890    5.6648 H   0  0  0  0  0  0  0  0  0  0  0  0
   13.4836    7.7194    4.6400 C   0  0  0  0  0  0  0  0  0  0  0  0
   13.4200    7.9846    5.5814 H   0  0  0  0  0  0  0  0  0  0  0  0
   14.0132    8.3817    4.1491 H   0  0  0  0  0  0  0  0  0  0  0  0
   13.9162    6.8425    4.5763 H   0  0  0  0  0  0  0  0  0  0  0  0
    7.3142   10.5786    5.7124 C   0  0  0  0  0  0  0  0  0  0  0  0
    7.3723    9.8023    6.3077 H   0  0  0  0  0  0  0  0  0  0  0  0
    6.7813   10.3464    4.9236 H   0  0  0  0  0  0  0  0  0  0  0  0
    6.8885   11.3230    6.1869 H   0  0  0  0  0  0  0  0  0  0  0  0
    9.6213   11.6666    6.7920 C   0  0  0  0  0  0  0  0  0  0  0  0
   10.4765   12.1259    6.6591 H   0  0  0  0  0  0  0  0  0  0  0  0
    9.7500   10.9046    7.3951 H   0  0  0  0  0  0  0  0  0  0  0  0
    8.9738   12.2883    7.1850 H   0  0  0  0  0  0  0  0  0  0  0  0
    8.6078   12.6507    4.3531 C   0  0  0  0  0  0  0  0  0  0  0  0
    8.0297   13.1921    4.9297 H   0  0  0  0  0  0  0  0  0  0  0  0
    8.1480   12.4684    3.5072 H   0  0  0  0  0  0  0  0  0  0  0  0
    9.4394   13.1382    4.1742 H   0  0  0  0  0  0  0  0  0  0  0  0
   10.2962    8.7025    6.0621 B   0  0  0  0  0  0  0  0  0  0  0  0
   11.8547   10.7340    4.7275 B   0  0  0  0  0  0  0  0  0  0  0  0
    9.1454    8.2729    6.7134 O   0  0  0  0  0  0  0  0  0  0  0  0
   11.3973    8.5036    6.9109 O   0  0  0  0  0  0  0  0  0  0  0  0
   11.7477   12.1293    4.4997 O   0  0  0  0  0  0  0  0  0  0  0  0
   13.1091   10.4891    5.2781 O   0  0  0  0  0  0  0  0  0  0  0  0
    8.4576    8.1826    3.2795 P   0  0  0  0  0  0  0  0  0  0  0  0
   10.8872   10.4350    1.9515 P   0  0  0  0  0  0  0  0  0  0  0  0
   11.8189    7.6257    3.9248 P   0  0  0  0  0  0  0  0  0  0  0  0
    8.9957   11.0719    5.1885 P   0  0  0  0  0  0  0  0  0  0  0  0
   10.3605    9.4499    4.1347 Rh  0  3  0  0  0  0  0  0  0  0  0  0
  1  2  4  0  0  0  0
  2  3  4  0  0  0  0
  3  4  1  0  0  0  0
  5  3  4  0  0  0  0
  6  5  1  0  0  0  0
  7  5  4  0  0  0  0
  8  7  1  0  0  0  0
  9  1  4  0  0  0  0
 10  9  1  0  0  0  0
 11 12  4  0  0  0  0
 12 13  4  0  0  0  0
 13 14  1  0  0  0  0
 15 13  4  0  0  0  0
 16 15  1  0  0  0  0
 17 15  4  0  0  0  0
 18 17  1  0  0  0  0
 19 11  4  0  0  0  0
 20 19  1  0  0  0  0
 21 22  1  0  0  0  0
 23 21  1  0  0  0  0
 24 21  1  0  0  0  0
 25 26  1  0  0  0  0
 27 25  1  0  0  0  0
 28 25  1  0  0  0  0
 29 30  1  0  0  0  0
 31 29  1  0  0  0  0
 32 29  1  0  0  0  0
 33 34  1  0  0  0  0
 35 33  1  0  0  0  0
 36 33  1  0  0  0  0
 37 38  1  0  0  0  0
 39 37  1  0  0  0  0
 40 37  1  0  0  0  0
 41 42  1  0  0  0  0
 43 41  1  0  0  0  0
 44 41  1  0  0  0  0
 45 46  1  0  0  0  0
 47 45  1  0  0  0  0
 48 45  1  0  0  0  0
 49 50  1  0  0  0  0
 51 49  1  0  0  0  0
 52 49  1  0  0  0  0
 53 54  1  0  0  0  0
 55 53  1  0  0  0  0
 56 53  1  0  0  0  0
 57 58  1  0  0  0  0
 59 57  1  0  0  0  0
 60 57  1  0  0  0  0
 61 62  1  0  0  0  0
 63 61  1  0  0  0  0
 64 61  1  0  0  0  0
 65 66  1  0  0  0  0
 67 65  1  0  0  0  0
 68 65  1  0  0  0  0
 69 71  1  0  0  0  0
 70 73  1  0  0  0  0
 71  1  1  0  0  0  0
 72  2  1  0  0  0  0
 73 11  1  0  0  0  0
 74 12  1  0  0  0  0
 75 21  1  0  0  0  0
 76 33  1  0  0  0  0
 77 45  1  0  0  0  0
 78 57  1  0  0  0  0
 79 69  1  0  0  0  0
  7  9  4  0  0  0  0
 17 19  4  0  0  0  0
 25 75  1  0  0  0  0
 29 75  1  0  0  0  0
 37 76  1  0  0  0  0
 41 76  1  0  0  0  0
 49 77  1  0  0  0  0
 53 77  1  0  0  0  0
 61 78  1  0  0  0  0
 65 78  1  0  0  0  0
 69 72  1  0  0  0  0
 70 74  1  0  0  0  0
 70 79  1  0  0  0  0
 75 79  1  0  0  0  0
 76 79  1  0  0  0  0
 77 79  1  0  0  0  0
 78 79  1  0  0  0  0
M  CHG  1  79   1
M  END
$$$$
CECBIZ

From CSD data. Using bond type 'Any'. No disordered atoms. Largest molecule.
 87 89  0  0  0  0  0  0  0  0999 V2000
    6.3953    4.5387    8.9821 C   0  0  0  0  0  0  0  0  0  0  0  0
    5.6414    3.9364    8.8103 H   0  0  0  0  0  0  0  0  0  0  0  0
    7.0759    4.4163    8.2877 H   0  0  0  0  0  0  0  0  0  0  0  0
    6.0808    5.4668    8.9713 H   0  0  0  0  0  0  0  0  0  0  0  0
    7.3709    2.3608   10.3661 C   0  0  0  0  0  0  0  0  0  0  0  0
    6.5013    1.9196   10.2675 H   0  0  0  0  0  0  0  0  0  0  0  0
    7.8420    1.9849   11.1390 H   0  0  0  0  0  0  0  0  0  0  0  0
    7.9041    2.2163    9.5567 H   0  0  0  0  0  0  0  0  0  0  0  0
    5.5577    4.1555   11.5834 C   0  0  0  0  0  0  0  0  0  0  0  0
    5.2159    5.0712   11.6548 H   0  0  0  0  0  0  0  0  0  0  0  0
    5.7285    3.7998   12.4805 H   0  0  0  0  0  0  0  0  0  0  0  0
    4.8948    3.5939   11.1300 H   0  0  0  0  0  0  0  0  0  0  0  0
    6.8122    6.2980   14.2739 C   0  0  0  0  0  0  0  0  0  0  0  0
    7.3776    5.8106   14.9088 H   0  0  0  0  0  0  0  0  0  0  0  0
    6.1111    5.7021   13.9366 H   0  0  0  0  0  0  0  0  0  0  0  0
    6.4006    7.0646   14.7245 H   0  0  0  0  0  0  0  0  0  0  0  0
    8.7950    8.1811   13.7398 C   0  0  0  0  0  0  0  0  0  0  0  0
    8.1819    8.7785   14.2169 H   0  0  0  0  0  0  0  0  0  0  0  0
    9.3121    8.6976   13.0868 H   0  0  0  0  0  0  0  0  0  0  0  0
    9.4055    7.7602   14.3805 H   0  0  0  0  0  0  0  0  0  0  0  0
    6.5525    7.8618   11.9904 C   0  0  0  0  0  0  0  0  0  0  0  0
    6.1491    8.5073   12.6078 H   0  0  0  0  0  0  0  0  0  0  0  0
    5.8599    7.2566   11.6521 H   0  0  0  0  0  0  0  0  0  0  0  0
    6.9633    8.3402   11.2402 H   0  0  0  0  0  0  0  0  0  0  0  0
   10.4295    2.3400   13.0087 C   0  0  0  0  0  0  0  0  0  0  0  0
   11.3331    2.6521   12.7933 H   0  0  0  0  0  0  0  0  0  0  0  0
   10.0856    1.7985   12.2677 H   0  0  0  0  0  0  0  0  0  0  0  0
   10.4570    1.7974   13.8244 H   0  0  0  0  0  0  0  0  0  0  0  0
    7.8583    2.9138   13.9159 C   0  0  0  0  0  0  0  0  0  0  0  0
    7.4467    2.3879   13.1985 H   0  0  0  0  0  0  0  0  0  0  0  0
    7.2151    3.5752   14.2463 H   0  0  0  0  0  0  0  0  0  0  0  0
    8.1199    2.3180   14.6487 H   0  0  0  0  0  0  0  0  0  0  0  0
    9.9883    4.4224   14.8530 C   0  0  0  0  0  0  0  0  0  0  0  0
    9.8342    3.7654   15.5636 H   0  0  0  0  0  0  0  0  0  0  0  0
    9.5284    5.2586   15.0760 H   0  0  0  0  0  0  0  0  0  0  0  0
   10.9498    4.5913   14.7672 H   0  0  0  0  0  0  0  0  0  0  0  0
    8.4070    7.0043    8.4152 C   0  0  0  0  0  0  0  0  0  0  0  0
    8.7250    7.6904    7.7919 H   0  0  0  0  0  0  0  0  0  0  0  0
    7.5086    7.2389    8.7286 H   0  0  0  0  0  0  0  0  0  0  0  0
    8.3778    6.1372    7.9595 H   0  0  0  0  0  0  0  0  0  0  0  0
   11.1309    6.7172    8.9613 C   0  0  0  0  0  0  0  0  0  0  0  0
   11.1817    5.8226    8.5644 H   0  0  0  0  0  0  0  0  0  0  0  0
   11.8689    6.8359    9.5950 H   0  0  0  0  0  0  0  0  0  0  0  0
   11.1956    7.3925    8.2542 H   0  0  0  0  0  0  0  0  0  0  0  0
    9.6499    8.6769   10.2613 C   0  0  0  0  0  0  0  0  0  0  0  0
    9.8665    9.1921    9.4562 H   0  0  0  0  0  0  0  0  0  0  0  0
   10.3515    8.8096   10.9325 H   0  0  0  0  0  0  0  0  0  0  0  0
    8.7909    8.9807   10.6221 H   0  0  0  0  0  0  0  0  0  0  0  0
   13.2377    5.7488   12.7148 C   0  0  0  0  0  0  0  0  0  0  0  0
   12.8114    7.2414   12.7650 C   0  0  0  0  0  0  0  0  0  0  0  0
   13.9817    5.2501   13.9418 C   0  0  0  0  0  0  0  0  0  0  0  0
   13.4354    5.4050   14.7405 H   0  0  0  0  0  0  0  0  0  0  0  0
   14.8304    5.7326   14.0278 H   0  0  0  0  0  0  0  0  0  0  0  0
   14.1594    4.2907   13.8487 H   0  0  0  0  0  0  0  0  0  0  0  0
   14.0080    5.3445   11.4628 C   0  0  0  0  0  0  0  0  0  0  0  0
   14.1061    4.3697   11.4400 H   0  0  0  0  0  0  0  0  0  0  0  0
   14.8945    5.7619   11.4757 H   0  0  0  0  0  0  0  0  0  0  0  0
   13.5183    5.6422   10.6678 H   0  0  0  0  0  0  0  0  0  0  0  0
   12.6177    7.7814   14.1747 C   0  0  0  0  0  0  0  0  0  0  0  0
   12.1650    8.6497   14.1324 H   0  0  0  0  0  0  0  0  0  0  0  0
   13.4911    7.8892   14.6061 H   0  0  0  0  0  0  0  0  0  0  0  0
   12.0725    7.1536   14.6931 H   0  0  0  0  0  0  0  0  0  0  0  0
   13.6949    8.1883   11.9589 C   0  0  0  0  0  0  0  0  0  0  0  0
   13.7341    7.8855   11.0277 H   0  0  0  0  0  0  0  0  0  0  0  0
   14.5984    8.1950   12.3385 H   0  0  0  0  0  0  0  0  0  0  0  0
   13.3198    9.0932   11.9926 H   0  0  0  0  0  0  0  0  0  0  0  0
   11.7060    2.7815    9.2336 C   0  0  0  0  0  0  0  0  0  0  0  0
   10.6744    2.9840    8.3391 C   0  0  0  0  0  0  0  0  0  0  0  0
   10.6767    2.4230    7.0899 C   0  0  0  0  0  0  0  0  0  0  0  0
    9.9673    2.5677    6.4747 H   0  0  0  0  0  0  0  0  0  0  0  0
   11.7749    1.6287    6.7703 C   0  0  0  0  0  0  0  0  0  0  0  0
   11.8164    1.2210    5.9133 H   0  0  0  0  0  0  0  0  0  0  0  0
   12.8011    1.4184    7.6612 C   0  0  0  0  0  0  0  0  0  0  0  0
   13.5290    0.8636    7.4072 H   0  0  0  0  0  0  0  0  0  0  0  0
   12.7991    2.0044    8.9383 C   0  0  0  0  0  0  0  0  0  0  0  0
   13.5076    1.8717    9.5570 H   0  0  0  0  0  0  0  0  0  0  0  0
   10.9970    5.9252   12.1682 B   0  0  0  0  0  0  0  0  0  0  0  0
   10.1794    4.0946   10.2334 B   0  0  0  0  0  0  0  0  0  0  0  0
   11.9552    5.0643   12.6651 O   0  0  0  0  0  0  0  0  0  0  0  0
   11.4940    7.2103   12.1350 O   0  0  0  0  0  0  0  0  0  0  0  0
   11.4185    3.4644   10.4055 O   0  0  0  0  0  0  0  0  0  0  0  0
    9.7175    3.8039    8.9213 O   0  0  0  0  0  0  0  0  0  0  0  0
    7.1188    4.1587   10.6192 P   0  0  0  0  0  0  0  0  0  0  0  0
    7.8364    6.8902   12.8735 P   0  0  0  0  0  0  0  0  0  0  0  0
    9.3392    3.7725   13.2698 P   0  0  0  0  0  0  0  0  0  0  0  0
    9.5397    6.9045    9.8382 P   0  0  0  0  0  0  0  0  0  0  0  0
    9.1002    5.3230   11.5227 Rh  0  3  0  0  0  0  0  0  0  0  0  0
  1  2  1  0  0  0  0
  3  1  1  0  0  0  0
  4  1  1  0  0  0  0
  5  6  1  0  0  0  0
  7  5  1  0  0  0  0
  8  5  1  0  0  0  0
  9 10  1  0  0  0  0
 11  9  1  0  0  0  0
 12  9  1  0  0  0  0
 13 14  1  0  0  0  0
 15 13  1  0  0  0  0
 16 13  1  0  0  0  0
 17 18  1  0  0  0  0
 19 17  1  0  0  0  0
 20 17  1  0  0  0  0
 21 22  1  0  0  0  0
 23 21  1  0  0  0  0
 24 21  1  0  0  0  0
 25 26  1  0  0  0  0
 27 25  1  0  0  0  0
 28 25  1  0  0  0  0
 29 30  1  0  0  0  0
 31 29  1  0  0  0  0
 32 29  1  0  0  0  0
 33 34  1  0  0  0  0
 35 33  1  0  0  0  0
 36 33  1  0  0  0  0
 37 38  1  0  0  0  0
 39 37  1  0  0  0  0
 40 37  1  0  0  0  0
 41 42  1  0  0  0  0
 43 41  1  0  0  0  0
 44 41  1  0  0  0  0
 45 46  1  0  0  0  0
 47 45  1  0  0  0  0
 48 45  1  0  0  0  0
 49 50  1  0  0  0  0
 50 59  1  0  0  0  0
 51 49  1  0  0  0  0
 52 51  1  0  0  0  0
 53 51  1  0  0  0  0
 54 51  1  0  0  0  0
 55 49  1  0  0  0  0
 56 55  1  0  0  0  0
 57 55  1  0  0  0  0
 58 55  1  0  0  0  0
 59 60  1  0  0  0  0
 61 59  1  0  0  0  0
 62 59  1  0  0  0  0
 63 50  1  0  0  0  0
 64 63  1  0  0  0  0
 65 63  1  0  0  0  0
 66 63  1  0  0  0  0
 67 68  4  0  0  0  0
 68 69  4  0  0  0  0
 69 70  1  0  0  0  0
 71 69  4  0  0  0  0
 72 71  1  0  0  0  0
 73 71  4  0  0  0  0
 74 73  1  0  0  0  0
 75 67  4  0  0  0  0
 76 75  1  0  0  0  0
 77 79  1  0  0  0  0
 78 81  1  0  0  0  0
 79 49  1  0  0  0  0
 80 50  1  0  0  0  0
 81 67  1  0  0  0  0
 82 68  1  0  0  0  0
 83  1  1  0  0  0  0
 84 13  1  0  0  0  0
 85 25  1  0  0  0  0
 86 37  1  0  0  0  0
 87 77  1  0  0  0  0
  5 83  1  0  0  0  0
  9 83  1  0  0  0  0
 17 84  1  0  0  0  0
 21 84  1  0  0  0  0
 29 85  1  0  0  0  0
 33 85  1  0  0  0  0
 41 86  1  0  0  0  0
 45 86  1  0  0  0  0
 73 75  4  0  0  0  0
 77 80  1  0  0  0  0
 78 82  1  0  0  0  0
 78 87  1  0  0  0  0
 83 87  1  0  0  0  0
 84 87  1  0  0  0  0
 85 87  1  0  0  0  0
 86 87  1  0  0  0  0
M  CHG  1  87   1
M  END
$$$$
CECBOF

From CSD data. Using bond type 'Any'. No disordered atoms. Largest molecule.
 95 96  0  0  0  0  0  0  0  0999 V2000
   11.3770    3.2568   12.6143 Rh  0  3  0  0  0  0  0  0  0  0  0  0
   11.1092    1.4406   11.1114 P   0  0  0  0  0  0  0  0  0  0  0  0
   12.0382    1.8080   14.4531 P   0  0  0  0  0  0  0  0  0  0  0  0
   11.5385    5.2514   13.8525 P   0  0  0  0  0  0  0  0  0  0  0  0
    8.9443    3.3279   12.8798 P   0  0  0  0  0  0  0  0  0  0  0  0
   12.1856    5.7335   10.8934 O   0  0  0  0  0  0  0  0  0  0  0  0
   10.9073    4.2662    9.7253 O   0  0  0  0  0  0  0  0  0  0  0  0
   14.4384    3.6249   13.0702 O   0  0  0  0  0  0  0  0  0  0  0  0
   13.9782    3.1375   10.9094 O   0  0  0  0  0  0  0  0  0  0  0  0
   11.9554    6.3693    9.5864 C   0  0  0  0  0  0  0  0  0  0  0  0
   11.4171    5.1874    8.7144 C   0  0  0  0  0  0  0  0  0  0  0  0
   10.9355    7.4853    9.7905 C   0  0  0  0  0  0  0  0  0  0  0  0
   10.1068    7.1077   10.1525 H   0  0  0  0  0  0  0  0  0  0  0  0
   10.7495    7.9187    8.9317 H   0  0  0  0  0  0  0  0  0  0  0  0
   11.2954    8.1457   10.4188 H   0  0  0  0  0  0  0  0  0  0  0  0
   13.2771    6.9555    9.1314 C   0  0  0  0  0  0  0  0  0  0  0  0
   13.5347    7.6866    9.7307 H   0  0  0  0  0  0  0  0  0  0  0  0
   13.1860    7.2981    8.2179 H   0  0  0  0  0  0  0  0  0  0  0  0
   13.9672    6.2589    9.1511 H   0  0  0  0  0  0  0  0  0  0  0  0
   10.2680    5.5429    7.7963 C   0  0  0  0  0  0  0  0  0  0  0  0
    9.9752    4.7415    7.3136 H   0  0  0  0  0  0  0  0  0  0  0  0
   10.5605    6.2225    7.1543 H   0  0  0  0  0  0  0  0  0  0  0  0
    9.5225    5.8941    8.3272 H   0  0  0  0  0  0  0  0  0  0  0  0
   12.5062    4.4550    7.9537 C   0  0  0  0  0  0  0  0  0  0  0  0
   13.2315    4.2166    8.5693 H   0  0  0  0  0  0  0  0  0  0  0  0
   12.8576    5.0347    7.2457 H   0  0  0  0  0  0  0  0  0  0  0  0
   12.1363    3.6400    7.5549 H   0  0  0  0  0  0  0  0  0  0  0  0
   15.7096    3.8097   12.3455 C   0  0  0  0  0  0  0  0  0  0  0  0
   15.4391    3.0451   11.0299 C   0  0  0  0  0  0  0  0  0  0  0  0
   16.8259    3.2705   13.1923 C   0  0  0  0  0  0  0  0  0  0  0  0
   16.9295    3.8283   13.9911 H   0  0  0  0  0  0  0  0  0  0  0  0
   17.6597    3.2784   12.6775 H   0  0  0  0  0  0  0  0  0  0  0  0
   16.6169    2.3510   13.4608 H   0  0  0  0  0  0  0  0  0  0  0  0
   15.9067    5.3068   12.1173 C   0  0  0  0  0  0  0  0  0  0  0  0
   15.1708    5.6544   11.5710 H   0  0  0  0  0  0  0  0  0  0  0  0
   16.7569    5.4580   11.6535 H   0  0  0  0  0  0  0  0  0  0  0  0
   15.9192    5.7707   12.9808 H   0  0  0  0  0  0  0  0  0  0  0  0
   15.8216    1.5655   11.1399 C   0  0  0  0  0  0  0  0  0  0  0  0
   15.3901    1.1750   11.9281 H   0  0  0  0  0  0  0  0  0  0  0  0
   16.7944    1.4857   11.2263 H   0  0  0  0  0  0  0  0  0  0  0  0
   15.5246    1.0913   10.3356 H   0  0  0  0  0  0  0  0  0  0  0  0
   16.0297    3.6340    9.7643 C   0  0  0  0  0  0  0  0  0  0  0  0
   15.7019    3.1336    8.9879 H   0  0  0  0  0  0  0  0  0  0  0  0
   17.0072    3.5746    9.8020 H   0  0  0  0  0  0  0  0  0  0  0  0
   15.7620    4.5730    9.6848 H   0  0  0  0  0  0  0  0  0  0  0  0
   12.4822    0.8169   10.1187 C   0  0  0  0  0  0  0  0  0  0  0  0
   12.8345    1.5392    9.5577 H   0  0  0  0  0  0  0  0  0  0  0  0
   12.1672    0.0846    9.5485 H   0  0  0  0  0  0  0  0  0  0  0  0
   13.1907    0.4881   10.7107 H   0  0  0  0  0  0  0  0  0  0  0  0
   10.5412   -0.1435   11.8611 C   0  0  0  0  0  0  0  0  0  0  0  0
   11.2346   -0.4868   12.4635 H   0  0  0  0  0  0  0  0  0  0  0  0
   10.3726   -0.7987   11.1517 H   0  0  0  0  0  0  0  0  0  0  0  0
    9.7167    0.0107   12.3665 H   0  0  0  0  0  0  0  0  0  0  0  0
    9.8707    1.5829    9.7688 C   0  0  0  0  0  0  0  0  0  0  0  0
    9.0624    2.0163   10.1147 H   0  0  0  0  0  0  0  0  0  0  0  0
    9.6453    0.6893    9.4361 H   0  0  0  0  0  0  0  0  0  0  0  0
   10.2417    2.1200    9.0378 H   0  0  0  0  0  0  0  0  0  0  0  0
   13.2347    0.5030   13.9999 C   0  0  0  0  0  0  0  0  0  0  0  0
   12.9927    0.1280   13.1274 H   0  0  0  0  0  0  0  0  0  0  0  0
   13.2165   -0.2051   14.6766 H   0  0  0  0  0  0  0  0  0  0  0  0
   14.1343    0.8878   13.9525 H   0  0  0  0  0  0  0  0  0  0  0  0
   13.0126    2.4830   15.8387 C   0  0  0  0  0  0  0  0  0  0  0  0
   13.6777    3.1141   15.4935 H   0  0  0  0  0  0  0  0  0  0  0  0
   13.4679    1.7507   16.3048 H   0  0  0  0  0  0  0  0  0  0  0  0
   12.4155    2.9460   16.4628 H   0  0  0  0  0  0  0  0  0  0  0  0
   10.7691    0.8706   15.3786 C   0  0  0  0  0  0  0  0  0  0  0  0
   10.2114    1.4927   15.8908 H   0  0  0  0  0  0  0  0  0  0  0  0
   11.2074    0.2441   15.9918 H   0  0  0  0  0  0  0  0  0  0  0  0
   10.2073    0.3714   14.7489 H   0  0  0  0  0  0  0  0  0  0  0  0
   13.1002    6.1640   13.9607 C   0  0  0  0  0  0  0  0  0  0  0  0
   13.7947    5.5800   14.3312 H   0  0  0  0  0  0  0  0  0  0  0  0
   12.9836    6.9432   14.5433 H   0  0  0  0  0  0  0  0  0  0  0  0
   13.3671    6.4619   13.0660 H   0  0  0  0  0  0  0  0  0  0  0  0
   11.1450    5.1579   15.6560 C   0  0  0  0  0  0  0  0  0  0  0  0
   10.5442    4.4010   15.8204 H   0  0  0  0  0  0  0  0  0  0  0  0
   10.7092    5.9884   15.9391 H   0  0  0  0  0  0  0  0  0  0  0  0
   11.9733    5.0335   16.1651 H   0  0  0  0  0  0  0  0  0  0  0  0
   10.4279    6.6147   13.3717 C   0  0  0  0  0  0  0  0  0  0  0  0
   10.5941    6.8566   12.4368 H   0  0  0  0  0  0  0  0  0  0  0  0
   10.5963    7.3907   13.9454 H   0  0  0  0  0  0  0  0  0  0  0  0
    9.4963    6.3281   13.4744 H   0  0  0  0  0  0  0  0  0  0  0  0
    7.8973    1.8418   12.7377 C   0  0  0  0  0  0  0  0  0  0  0  0
    7.9914    1.4604   11.8396 H   0  0  0  0  0  0  0  0  0  0  0  0
    6.9609    2.0855   12.8924 H   0  0  0  0  0  0  0  0  0  0  0  0
    8.1770    1.1798   13.4042 H   0  0  0  0  0  0  0  0  0  0  0  0
    8.1994    3.9251   14.4499 C   0  0  0  0  0  0  0  0  0  0  0  0
    8.4432    3.3181   15.1792 H   0  0  0  0  0  0  0  0  0  0  0  0
    7.2240    3.9524   14.3592 H   0  0  0  0  0  0  0  0  0  0  0  0
    8.5339    4.8251   14.6484 H   0  0  0  0  0  0  0  0  0  0  0  0
    8.1168    4.4161   11.6609 C   0  0  0  0  0  0  0  0  0  0  0  0
    8.4345    5.3359   11.7757 H   0  0  0  0  0  0  0  0  0  0  0  0
    7.1473    4.3854   11.8011 H   0  0  0  0  0  0  0  0  0  0  0  0
    8.3257    4.1088   10.7542 H   0  0  0  0  0  0  0  0  0  0  0  0
   11.4822    4.5341   10.9385 B   0  0  0  0  0  0  0  0  0  0  0  0
   13.4274    3.3510   12.1390 B   0  0  0  0  0  0  0  0  0  0  0  0
  1  2  1  0  0  0  0
  2 46  1  0  0  0  0
  3  1  1  0  0  0  0
  4  1  1  0  0  0  0
  5  1  1  0  0  0  0
  6 10  1  0  0  0  0
  7 11  1  0  0  0  0
  8 28  1  0  0  0  0
  9 29  1  0  0  0  0
 10 11  1  0  0  0  0
 11 20  1  0  0  0  0
 12 10  1  0  0  0  0
 13 12  1  0  0  0  0
 14 12  1  0  0  0  0
 15 12  1  0  0  0  0
 16 10  1  0  0  0  0
 17 16  1  0  0  0  0
 18 16  1  0  0  0  0
 19 16  1  0  0  0  0
 20 21  1  0  0  0  0
 22 20  1  0  0  0  0
 23 20  1  0  0  0  0
 24 11  1  0  0  0  0
 25 24  1  0  0  0  0
 26 24  1  0  0  0  0
 27 24  1  0  0  0  0
 28 29  1  0  0  0  0
 29 38  1  0  0  0  0
 30 28  1  0  0  0  0
 31 30  1  0  0  0  0
 32 30  1  0  0  0  0
 33 30  1  0  0  0  0
 34 28  1  0  0  0  0
 35 34  1  0  0  0  0
 36 34  1  0  0  0  0
 37 34  1  0  0  0  0
 38 39  1  0  0  0  0
 40 38  1  0  0  0  0
 41 38  1  0  0  0  0
 42 29  1  0  0  0  0
 43 42  1  0  0  0  0
 44 42  1  0  0  0  0
 45 42  1  0  0  0  0
 46 47  1  0  0  0  0
 48 46  1  0  0  0  0
 49 46  1  0  0  0  0
 50  2  1  0  0  0  0
 51 50  1  0  0  0  0
 52 50  1  0  0  0  0
 53 50  1  0  0  0  0
 54  2  1  0  0  0  0
 55 54  1  0  0  0  0
 56 54  1  0  0  0  0
 57 54  1  0  0  0  0
 58  3  1  0  0  0  0
 59 58  1  0  0  0  0
 60 58  1  0  0  0  0
 61 58  1  0  0  0  0
 62  3  1  0  0  0  0
 63 62  1  0  0  0  0
 64 62  1  0  0  0  0
 65 62  1  0  0  0  0
 66  3  1  0  0  0  0
 67 66  1  0  0  0  0
 68 66  1  0  0  0  0
 69 66  1  0  0  0  0
 70  4  1  0  0  0  0
 71 70  1  0  0  0  0
 72 70  1  0  0  0  0
 73 70  1  0  0  0  0
 74  4  1  0  0  0  0
 75 74  1  0  0  0  0
 76 74  1  0  0  0  0
 77 74  1  0  0  0  0
 78  4  1  0  0  0  0
 79 78  1  0  0  0  0
 80 78  1  0  0  0  0
 81 78  1  0  0  0  0
 82  5  1  0  0  0  0
 83 82  1  0  0  0  0
 84 82  1  0  0  0  0
 85 82  1  0  0  0  0
 86  5  1  0  0  0  0
 87 86  1  0  0  0  0
 88 86  1  0  0  0  0
 89 86  1  0  0  0  0
 90  5  1  0  0  0  0
 91 90  1  0  0  0  0
 92 90  1  0  0  0  0
 93 90  1  0  0  0  0
 94  1  1  0  0  0  0
 95  1  1  0  0  0  0
  6 94  1  0  0  0  0
  7 94  1  0  0  0  0
  8 95  1  0  0  0  0
  9 95  1  0  0  0  0
M  CHG  1   1   1
M  END
$$$$
CECBUL

From CSD data. Using bond type 'Any'. No disordered atoms. Largest molecule.
 83 84  0  0  0  0  0  0  0  0999 V2000
    3.3233   12.3414    7.6365 C   0  0  0  0  0  0  0  0  0  0  0  0
    3.6165   12.8336    6.1942 C   0  0  0  0  0  0  0  0  0  0  0  0
    3.9761   13.1900    8.7255 C   0  0  0  0  0  0  0  0  0  0  0  0
    3.8924   12.7342    9.5889 H   0  0  0  0  0  0  0  0  0  0  0  0
    3.5304   14.0616    8.7716 H   0  0  0  0  0  0  0  0  0  0  0  0
    4.9245   13.3188    8.5147 H   0  0  0  0  0  0  0  0  0  0  0  0
    1.8479   12.1574    7.9619 C   0  0  0  0  0  0  0  0  0  0  0  0
    1.4582   11.4981    7.3503 H   0  0  0  0  0  0  0  0  0  0  0  0
    1.3815   13.0132    7.8598 H   0  0  0  0  0  0  0  0  0  0  0  0
    1.7538   11.8421    8.8850 H   0  0  0  0  0  0  0  0  0  0  0  0
    2.5816   12.3645    5.1769 C   0  0  0  0  0  0  0  0  0  0  0  0
    2.8909   12.5812    4.2726 H   0  0  0  0  0  0  0  0  0  0  0  0
    1.7284   12.8157    5.3471 H   0  0  0  0  0  0  0  0  0  0  0  0
    2.4604   11.3954    5.2573 H   0  0  0  0  0  0  0  0  0  0  0  0
    3.8513   14.3319    6.0601 C   0  0  0  0  0  0  0  0  0  0  0  0
    4.6120   14.5947    6.6193 H   0  0  0  0  0  0  0  0  0  0  0  0
    3.0499   14.8153    6.3506 H   0  0  0  0  0  0  0  0  0  0  0  0
    4.0431   14.5500    5.1242 H   0  0  0  0  0  0  0  0  0  0  0  0
    2.7462    7.3655    7.1077 C   0  0  0  0  0  0  0  0  0  0  0  0
    2.6123    7.6721    5.5964 C   0  0  0  0  0  0  0  0  0  0  0  0
    2.0021    8.3500    7.9928 C   0  0  0  0  0  0  0  0  0  0  0  0
    2.2563    8.2051    8.9282 H   0  0  0  0  0  0  0  0  0  0  0  0
    1.0368    8.2152    7.8919 H   0  0  0  0  0  0  0  0  0  0  0  0
    2.2334    9.2653    7.7297 H   0  0  0  0  0  0  0  0  0  0  0  0
    2.3904    5.9414    7.5132 C   0  0  0  0  0  0  0  0  0  0  0  0
    2.9523    5.3104    7.0166 H   0  0  0  0  0  0  0  0  0  0  0  0
    1.4475    5.7696    7.3093 H   0  0  0  0  0  0  0  0  0  0  0  0
    2.5428    5.8278    8.4746 H   0  0  0  0  0  0  0  0  0  0  0  0
    2.9091    6.4644    4.7159 C   0  0  0  0  0  0  0  0  0  0  0  0
    2.9681    6.7492    3.7800 H   0  0  0  0  0  0  0  0  0  0  0  0
    2.1901    5.8055    4.8122 H   0  0  0  0  0  0  0  0  0  0  0  0
    3.7598    6.0620    4.9892 H   0  0  0  0  0  0  0  0  0  0  0  0
    1.2950    8.3074    5.1762 C   0  0  0  0  0  0  0  0  0  0  0  0
    1.1765    9.1573    5.6497 H   0  0  0  0  0  0  0  0  0  0  0  0
    0.5557    7.7038    5.3983 H   0  0  0  0  0  0  0  0  0  0  0  0
    1.3047    8.4705    4.2099 H   0  0  0  0  0  0  0  0  0  0  0  0
    6.6359    7.2247    8.9871 C   0  0  0  0  0  0  0  0  0  0  0  0
    6.8553    7.0535    9.9268 H   0  0  0  0  0  0  0  0  0  0  0  0
    7.3217    6.8236    8.4133 H   0  0  0  0  0  0  0  0  0  0  0  0
    5.7635    6.8300    8.7782 H   0  0  0  0  0  0  0  0  0  0  0  0
    5.3435    9.5681    9.9246 C   0  0  0  0  0  0  0  0  0  0  0  0
    4.4565    9.2413    9.6661 H   0  0  0  0  0  0  0  0  0  0  0  0
    5.3325   10.5473    9.9626 H   0  0  0  0  0  0  0  0  0  0  0  0
    5.5797    9.2096   10.8056 H   0  0  0  0  0  0  0  0  0  0  0  0
    8.1486    9.4561    9.5162 C   0  0  0  0  0  0  0  0  0  0  0  0
    8.1647    9.0706   10.4171 H   0  0  0  0  0  0  0  0  0  0  0  0
    8.2268   10.4312    9.5768 H   0  0  0  0  0  0  0  0  0  0  0  0
    8.8982    9.1001    8.9951 H   0  0  0  0  0  0  0  0  0  0  0  0
    7.7206   12.5592    8.1024 C   0  0  0  0  0  0  0  0  0  0  0  0
    7.2349   12.0657    8.7959 H   0  0  0  0  0  0  0  0  0  0  0  0
    7.1997   13.3453    7.8355 H   0  0  0  0  0  0  0  0  0  0  0  0
    8.5891   12.8467    8.4536 H   0  0  0  0  0  0  0  0  0  0  0  0
    9.7589   11.0810    6.7296 C   0  0  0  0  0  0  0  0  0  0  0  0
   10.0285   10.6002    5.9193 H   0  0  0  0  0  0  0  0  0  0  0  0
    9.9323   10.5207    7.5148 H   0  0  0  0  0  0  0  0  0  0  0  0
   10.2721   11.9127    6.8020 H   0  0  0  0  0  0  0  0  0  0  0  0
    8.0143   12.7946    5.3732 C   0  0  0  0  0  0  0  0  0  0  0  0
    8.4902   13.5743    5.7280 H   0  0  0  0  0  0  0  0  0  0  0  0
    7.0968   13.0493    5.1416 H   0  0  0  0  0  0  0  0  0  0  0  0
    8.4746   12.4676    4.5722 H   0  0  0  0  0  0  0  0  0  0  0  0
    7.7999   10.0740    3.2552 C   0  0  0  0  0  0  0  0  0  0  0  0
    7.7862    9.7245    2.3397 H   0  0  0  0  0  0  0  0  0  0  0  0
    8.5924    9.7358    3.7221 H   0  0  0  0  0  0  0  0  0  0  0  0
    7.8283   11.0532    3.2307 H   0  0  0  0  0  0  0  0  0  0  0  0
    5.0095   10.3975    3.1867 C   0  0  0  0  0  0  0  0  0  0  0  0
    5.1843   10.2927    2.2281 H   0  0  0  0  0  0  0  0  0  0  0  0
    5.0185   11.3498    3.4182 H   0  0  0  0  0  0  0  0  0  0  0  0
    4.1326   10.0171    3.4024 H   0  0  0  0  0  0  0  0  0  0  0  0
    6.1438    7.8267    3.5046 C   0  0  0  0  0  0  0  0  0  0  0  0
    5.2626    7.4689    3.7405 H   0  0  0  0  0  0  0  0  0  0  0  0
    6.8416    7.2664    3.9042 H   0  0  0  0  0  0  0  0  0  0  0  0
    6.2453    7.8293    2.5299 H   0  0  0  0  0  0  0  0  0  0  0  0
    4.9597   11.0056    6.6780 B   0  0  0  0  0  0  0  0  0  0  0  0
    4.6455    8.4900    6.3889 B   0  0  0  0  0  0  0  0  0  0  0  0
    3.9721   11.0437    7.6629 O   0  0  0  0  0  0  0  0  0  0  0  0
    4.8574   12.1424    5.8777 O   0  0  0  0  0  0  0  0  0  0  0  0
    4.1632    7.5871    7.3365 O   0  0  0  0  0  0  0  0  0  0  0  0
    3.6714    8.6394    5.3888 O   0  0  0  0  0  0  0  0  0  0  0  0
    6.5751    9.0211    8.6954 P   0  0  0  0  0  0  0  0  0  0  0  0
    7.9794   11.4703    6.6417 P   0  0  0  0  0  0  0  0  0  0  0  0
    6.2968    9.5307    4.1361 P   0  0  0  0  0  0  0  0  0  0  0  0
    8.3497    7.9634    6.1361 Cl  0  0  0  0  0  0  0  0  0  0  0  0
    6.4034    9.6044    6.4530 Rh  0  0  0  0  0  0  0  0  0  0  0  0
  1  2  1  0  0  0  0
  2 11  1  0  0  0  0
  3  1  1  0  0  0  0
  4  3  1  0  0  0  0
  5  3  1  0  0  0  0
  6  3  1  0  0  0  0
  7  1  1  0  0  0  0
  8  7  1  0  0  0  0
  9  7  1  0  0  0  0
 10  7  1  0  0  0  0
 11 12  1  0  0  0  0
 13 11  1  0  0  0  0
 14 11  1  0  0  0  0
 15  2  1  0  0  0  0
 16 15  1  0  0  0  0
 17 15  1  0  0  0  0
 18 15  1  0  0  0  0
 19 20  1  0  0  0  0
 20 29  1  0  0  0  0
 21 19  1  0  0  0  0
 22 21  1  0  0  0  0
 23 21  1  0  0  0  0
 24 21  1  0  0  0  0
 25 19  1  0  0  0  0
 26 25  1  0  0  0  0
 27 25  1  0  0  0  0
 28 25  1  0  0  0  0
 29 30  1  0  0  0  0
 31 29  1  0  0  0  0
 32 29  1  0  0  0  0
 33 20  1  0  0  0  0
 34 33  1  0  0  0  0
 35 33  1  0  0  0  0
 36 33  1  0  0  0  0
 37 38  1  0  0  0  0
 39 37  1  0  0  0  0
 40 37  1  0  0  0  0
 41 42  1  0  0  0  0
 43 41  1  0  0  0  0
 44 41  1  0  0  0  0
 45 46  1  0  0  0  0
 47 45  1  0  0  0  0
 48 45  1  0  0  0  0
 49 50  1  0  0  0  0
 51 49  1  0  0  0  0
 52 49  1  0  0  0  0
 53 54  1  0  0  0  0
 55 53  1  0  0  0  0
 56 53  1  0  0  0  0
 57 58  1  0  0  0  0
 59 57  1  0  0  0  0
 60 57  1  0  0  0  0
 61 62  1  0  0  0  0
 63 61  1  0  0  0  0
 64 61  1  0  0  0  0
 65 66  1  0  0  0  0
 67 65  1  0  0  0  0
 68 65  1  0  0  0  0
 69 70  1  0  0  0  0
 71 69  1  0  0  0  0
 72 69  1  0  0  0  0
 73 75  1  0  0  0  0
 74 77  1  0  0  0  0
 75  1  1  0  0  0  0
 76  2  1  0  0  0  0
 77 19  1  0  0  0  0
 78 20  1  0  0  0  0
 79 37  1  0  0  0  0
 80 49  1  0  0  0  0
 81 61  1  0  0  0  0
 82 83  1  0  0  0  0
 83 73  1  0  0  0  0
 41 79  1  0  0  0  0
 45 79  1  0  0  0  0
 53 80  1  0  0  0  0
 57 80  1  0  0  0  0
 65 81  1  0  0  0  0
 69 81  1  0  0  0  0
 73 76  1  0  0  0  0
 74 78  1  0  0  0  0
 74 83  1  0  0  0  0
 79 83  1  0  0  0  0
 80 83  1  0  0  0  0
 81 83  1  0  0  0  0
M  END
$$$$
CECCAS

From CSD data. Using bond type 'Any'. No disordered atoms. Largest molecule.
 80 82  0  0  0  0  0  0  0  0999 V2000
    4.4919    1.5025    7.1597 C   0  0  0  0  0  0  0  0  0  0  0  0
    4.0582    0.8327    6.5906 H   0  0  0  0  0  0  0  0  0  0  0  0
    3.8544    1.8223    7.8317 H   0  0  0  0  0  0  0  0  0  0  0  0
    5.2645    1.0993    7.6079 H   0  0  0  0  0  0  0  0  0  0  0  0
    6.3380    2.1042    5.1297 C   0  0  0  0  0  0  0  0  0  0  0  0
    7.0234    1.7271    5.7201 H   0  0  0  0  0  0  0  0  0  0  0  0
    6.7477    2.7664    4.5349 H   0  0  0  0  0  0  0  0  0  0  0  0
    5.9377    1.3875    4.5945 H   0  0  0  0  0  0  0  0  0  0  0  0
    6.0734    3.8661    7.2946 C   0  0  0  0  0  0  0  0  0  0  0  0
    6.7855    3.2949    7.6511 H   0  0  0  0  0  0  0  0  0  0  0  0
    5.5149    4.1901    8.0320 H   0  0  0  0  0  0  0  0  0  0  0  0
    6.4706    4.6294    6.8259 H   0  0  0  0  0  0  0  0  0  0  0  0
    2.7522    4.7398    8.4521 C   0  0  0  0  0  0  0  0  0  0  0  0
    3.7023    4.6095    8.6551 H   0  0  0  0  0  0  0  0  0  0  0  0
    2.2812    3.8837    8.5337 H   0  0  0  0  0  0  0  0  0  0  0  0
    2.3688    5.3847    9.0818 H   0  0  0  0  0  0  0  0  0  0  0  0
    0.8109    5.8022    6.8086 C   0  0  0  0  0  0  0  0  0  0  0  0
    0.6432    6.3901    7.5748 H   0  0  0  0  0  0  0  0  0  0  0  0
    0.2773    4.9857    6.9003 H   0  0  0  0  0  0  0  0  0  0  0  0
    0.5609    6.2649    5.9815 H   0  0  0  0  0  0  0  0  0  0  0  0
    3.3638    6.9936    6.8552 C   0  0  0  0  0  0  0  0  0  0  0  0
    3.1475    7.5139    6.0532 H   0  0  0  0  0  0  0  0  0  0  0  0
    4.3353    6.8813    6.9192 H   0  0  0  0  0  0  0  0  0  0  0  0
    3.0366    7.4658    7.6490 H   0  0  0  0  0  0  0  0  0  0  0  0
    2.0509    4.2455    1.6317 C   0  0  0  0  0  0  0  0  0  0  0  0
    2.0852    3.2726    1.5201 H   0  0  0  0  0  0  0  0  0  0  0  0
    2.9059    4.6365    1.3551 H   0  0  0  0  0  0  0  0  0  0  0  0
    1.3298    4.6125    1.0786 H   0  0  0  0  0  0  0  0  0  0  0  0
    0.0936    3.8994    3.6235 C   0  0  0  0  0  0  0  0  0  0  0  0
   -0.5172    4.2224    2.9286 H   0  0  0  0  0  0  0  0  0  0  0  0
   -0.2527    4.1509    4.5052 H   0  0  0  0  0  0  0  0  0  0  0  0
    0.1660    2.9238    3.5671 H   0  0  0  0  0  0  0  0  0  0  0  0
    1.3426    6.4188    3.2458 C   0  0  0  0  0  0  0  0  0  0  0  0
    0.6182    6.5434    2.5976 H   0  0  0  0  0  0  0  0  0  0  0  0
    2.1369    6.9085    2.9461 H   0  0  0  0  0  0  0  0  0  0  0  0
    1.0602    6.7585    4.1205 H   0  0  0  0  0  0  0  0  0  0  0  0
    5.5009    6.9235    2.8886 C   0  0  0  0  0  0  0  0  0  0  0  0
    6.6371    6.2459    3.7093 C   0  0  0  0  0  0  0  0  0  0  0  0
    5.0630    8.2804    3.4250 C   0  0  0  0  0  0  0  0  0  0  0  0
    4.2509    8.5695    2.9587 H   0  0  0  0  0  0  0  0  0  0  0  0
    5.7759    8.9361    3.2766 H   0  0  0  0  0  0  0  0  0  0  0  0
    4.8801    8.2084    4.3852 H   0  0  0  0  0  0  0  0  0  0  0  0
    5.7567    7.0213    1.3931 C   0  0  0  0  0  0  0  0  0  0  0  0
    5.8578    6.1210    1.0193 H   0  0  0  0  0  0  0  0  0  0  0  0
    6.5763    7.5347    1.2346 H   0  0  0  0  0  0  0  0  0  0  0  0
    5.0008    7.4713    0.9611 H   0  0  0  0  0  0  0  0  0  0  0  0
    7.5201    7.2164    4.4878 C   0  0  0  0  0  0  0  0  0  0  0  0
    6.9674    7.7333    5.1101 H   0  0  0  0  0  0  0  0  0  0  0  0
    7.9662    7.8250    3.8631 H   0  0  0  0  0  0  0  0  0  0  0  0
    8.1940    6.7125    4.9907 H   0  0  0  0  0  0  0  0  0  0  0  0
    7.4874    5.2777    2.8993 C   0  0  0  0  0  0  0  0  0  0  0  0
    8.0853    4.7862    3.5004 H   0  0  0  0  0  0  0  0  0  0  0  0
    8.0199    5.7781    2.2462 H   0  0  0  0  0  0  0  0  0  0  0  0
    6.9045    4.6452    2.4295 H   0  0  0  0  0  0  0  0  0  0  0  0
    3.9912    0.9047    2.0965 C   0  0  0  0  0  0  0  0  0  0  0  0
    4.8608    1.8523    1.6105 C   0  0  0  0  0  0  0  0  0  0  0  0
    5.6063    1.6521    0.4648 C   0  0  0  0  0  0  0  0  0  0  0  0
    6.2055    2.3084    0.1287 H   0  0  0  0  0  0  0  0  0  0  0  0
    5.4189    0.4118   -0.1708 C   0  0  0  0  0  0  0  0  0  0  0  0
    5.9042    0.2210   -0.9651 H   0  0  0  0  0  0  0  0  0  0  0  0
    4.5474   -0.5386    0.3288 C   0  0  0  0  0  0  0  0  0  0  0  0
    4.4517   -1.3639   -0.1318 H   0  0  0  0  0  0  0  0  0  0  0  0
    3.8059   -0.3214    1.4868 C   0  0  0  0  0  0  0  0  0  0  0  0
    3.2105   -0.9744    1.8354 H   0  0  0  0  0  0  0  0  0  0  0  0
    1.3339    1.4229    6.0278 C   0  0  0  0  0  0  0  0  0  0  0  0
    0.6821    0.1811    6.4245 C   0  0  0  0  0  0  0  0  0  0  0  0
    0.4904   -0.3562    5.6275 H   0  0  0  0  0  0  0  0  0  0  0  0
   -0.1557    0.3860    6.8895 H   0  0  0  0  0  0  0  0  0  0  0  0
    1.2735   -0.3217    7.0227 H   0  0  0  0  0  0  0  0  0  0  0  0
    4.6225    5.2140    4.1874 B   0  0  0  0  0  0  0  0  0  0  0  0
    3.9000    2.6853    3.4389 B   0  0  0  0  0  0  0  0  0  0  0  0
    1.8900    2.3656    5.7146 N   0  0  0  0  0  0  0  0  0  0  0  0
    4.3802    6.0102    3.0832 O   0  0  0  0  0  0  0  0  0  0  0  0
    5.8911    5.4426    4.6773 O   0  0  0  0  0  0  0  0  0  0  0  0
    3.3788    1.3901    3.2427 O   0  0  0  0  0  0  0  0  0  0  0  0
    4.8332    2.9682    2.4292 O   0  0  0  0  0  0  0  0  0  0  0  0
    3.2836    3.9087    4.9689 Rh  0  3  0  0  0  0  0  0  0  0  0  0
    5.0481    2.9051    6.1323 P   0  0  0  0  0  0  0  0  0  0  0  0
    2.5751    5.3704    6.7512 P   0  0  0  0  0  0  0  0  0  0  0  0
    1.7377    4.6457    3.3815 P   0  0  0  0  0  0  0  0  0  0  0  0
  1  2  1  0  0  0  0
  3  1  1  0  0  0  0
  4  1  1  0  0  0  0
  5  6  1  0  0  0  0
  7  5  1  0  0  0  0
  8  5  1  0  0  0  0
  9 10  1  0  0  0  0
 11  9  1  0  0  0  0
 12  9  1  0  0  0  0
 13 14  1  0  0  0  0
 15 13  1  0  0  0  0
 16 13  1  0  0  0  0
 17 18  1  0  0  0  0
 19 17  1  0  0  0  0
 20 17  1  0  0  0  0
 21 22  1  0  0  0  0
 23 21  1  0  0  0  0
 24 21  1  0  0  0  0
 25 26  1  0  0  0  0
 27 25  1  0  0  0  0
 28 25  1  0  0  0  0
 29 30  1  0  0  0  0
 31 29  1  0  0  0  0
 32 29  1  0  0  0  0
 33 34  1  0  0  0  0
 35 33  1  0  0  0  0
 36 33  1  0  0  0  0
 37 38  1  0  0  0  0
 38 47  1  0  0  0  0
 39 37  1  0  0  0  0
 40 39  1  0  0  0  0
 41 39  1  0  0  0  0
 42 39  1  0  0  0  0
 43 37  1  0  0  0  0
 44 43  1  0  0  0  0
 45 43  1  0  0  0  0
 46 43  1  0  0  0  0
 47 48  1  0  0  0  0
 49 47  1  0  0  0  0
 50 47  1  0  0  0  0
 51 38  1  0  0  0  0
 52 51  1  0  0  0  0
 53 51  1  0  0  0  0
 54 51  1  0  0  0  0
 55 56  4  0  0  0  0
 56 57  4  0  0  0  0
 57 58  1  0  0  0  0
 59 57  4  0  0  0  0
 60 59  1  0  0  0  0
 61 59  4  0  0  0  0
 62 61  1  0  0  0  0
 63 55  4  0  0  0  0
 64 63  1  0  0  0  0
 65 66  1  0  0  0  0
 66 67  1  0  0  0  0
 68 66  1  0  0  0  0
 69 66  1  0  0  0  0
 70 73  1  0  0  0  0
 71 75  1  0  0  0  0
 72 65  3  0  0  0  0
 73 37  1  0  0  0  0
 74 38  1  0  0  0  0
 75 55  1  0  0  0  0
 76 56  1  0  0  0  0
 77 70  1  0  0  0  0
 78  1  1  0  0  0  0
 79 13  1  0  0  0  0
 80 25  1  0  0  0  0
  5 78  1  0  0  0  0
  9 78  1  0  0  0  0
 17 79  1  0  0  0  0
 21 79  1  0  0  0  0
 29 80  1  0  0  0  0
 33 80  1  0  0  0  0
 61 63  4  0  0  0  0
 70 74  1  0  0  0  0
 71 76  1  0  0  0  0
 71 77  1  0  0  0  0
 72 77  1  0  0  0  0
 77 78  1  0  0  0  0
 77 79  1  0  0  0  0
 77 80  1  0  0  0  0
M  CHG  1  77   1
M  END
$$$$
CECCEW

From CSD data. Using bond type 'Any'. No disordered atoms. Largest molecule.
 80 82  0  0  0  0  0  0  0  0999 V2000
    1.0029    6.6802   12.8181 C   0  0  0  0  0  0  0  0  0  0  0  0
    2.4006    5.9970   12.7917 C   0  0  0  0  0  0  0  0  0  0  0  0
    0.3332    6.7108   14.1831 C   0  0  0  0  0  0  0  0  0  0  0  0
   -0.5354    7.1588   14.1108 H   0  0  0  0  0  0  0  0  0  0  0  0
    0.9012    7.1993   14.8148 H   0  0  0  0  0  0  0  0  0  0  0  0
    0.2021    5.7938   14.5033 H   0  0  0  0  0  0  0  0  0  0  0  0
    0.9939    8.0571   12.1871 C   0  0  0  0  0  0  0  0  0  0  0  0
    1.4333    8.0181   11.3120 H   0  0  0  0  0  0  0  0  0  0  0  0
    1.4743    8.6849   12.7662 H   0  0  0  0  0  0  0  0  0  0  0  0
    0.0683    8.3588   12.0747 H   0  0  0  0  0  0  0  0  0  0  0  0
    2.5990    4.9670   13.9089 C   0  0  0  0  0  0  0  0  0  0  0  0
    2.6661    5.4287   14.7707 H   0  0  0  0  0  0  0  0  0  0  0  0
    3.4222    4.4612   13.7443 H   0  0  0  0  0  0  0  0  0  0  0  0
    1.8359    4.3524   13.9259 H   0  0  0  0  0  0  0  0  0  0  0  0
    3.5908    6.9350   12.7510 C   0  0  0  0  0  0  0  0  0  0  0  0
    4.4188    6.4112   12.7283 H   0  0  0  0  0  0  0  0  0  0  0  0
    3.5860    7.5037   13.5492 H   0  0  0  0  0  0  0  0  0  0  0  0
    3.5372    7.4963   11.9496 H   0  0  0  0  0  0  0  0  0  0  0  0
   -0.1365    1.5782   13.2936 C   0  0  0  0  0  0  0  0  0  0  0  0
   -0.4326    0.6010   12.3787 C   0  0  0  0  0  0  0  0  0  0  0  0
   -0.7798   -0.6873   12.7544 C   0  0  0  0  0  0  0  0  0  0  0  0
   -0.9797   -1.3621   12.1165 H   0  0  0  0  0  0  0  0  0  0  0  0
   -0.8173   -0.9315   14.1265 C   0  0  0  0  0  0  0  0  0  0  0  0
   -1.0403   -1.8020   14.4347 H   0  0  0  0  0  0  0  0  0  0  0  0
   -0.5388    0.0570   15.0502 C   0  0  0  0  0  0  0  0  0  0  0  0
   -0.5882   -0.1497   15.9762 H   0  0  0  0  0  0  0  0  0  0  0  0
   -0.1853    1.3584   14.6606 C   0  0  0  0  0  0  0  0  0  0  0  0
    0.0073    2.0420   15.2913 H   0  0  0  0  0  0  0  0  0  0  0  0
    3.0438    2.0018   11.2456 C   0  0  0  0  0  0  0  0  0  0  0  0
    3.9611    1.6710   11.1492 H   0  0  0  0  0  0  0  0  0  0  0  0
    2.4432    1.2501   11.4320 H   0  0  0  0  0  0  0  0  0  0  0  0
    3.0037    2.6431   11.9855 H   0  0  0  0  0  0  0  0  0  0  0  0
    2.7087    1.4600    8.5033 C   0  0  0  0  0  0  0  0  0  0  0  0
    3.6083    1.0778    8.5748 H   0  0  0  0  0  0  0  0  0  0  0  0
    2.5711    1.8044    7.5963 H   0  0  0  0  0  0  0  0  0  0  0  0
    2.0431    0.7664    8.6941 H   0  0  0  0  0  0  0  0  0  0  0  0
    3.9943    3.8576    9.3763 C   0  0  0  0  0  0  0  0  0  0  0  0
    4.0503    4.5669   10.0503 H   0  0  0  0  0  0  0  0  0  0  0  0
    3.9178    4.2588    8.4855 H   0  0  0  0  0  0  0  0  0  0  0  0
    4.8019    3.3039    9.4169 H   0  0  0  0  0  0  0  0  0  0  0  0
    1.8830    4.7209    6.5581 C   0  0  0  0  0  0  0  0  0  0  0  0
    2.0073    5.4401    5.9041 H   0  0  0  0  0  0  0  0  0  0  0  0
    1.4683    3.9488    6.1198 H   0  0  0  0  0  0  0  0  0  0  0  0
    2.7531    4.4596    6.9256 H   0  0  0  0  0  0  0  0  0  0  0  0
    1.5337    6.9065    8.3523 C   0  0  0  0  0  0  0  0  0  0  0  0
    1.6756    7.4377    7.5412 H   0  0  0  0  0  0  0  0  0  0  0  0
    2.3924    6.7604    8.8015 H   0  0  0  0  0  0  0  0  0  0  0  0
    0.9273    7.3857    8.9548 H   0  0  0  0  0  0  0  0  0  0  0  0
   -0.6163    5.8136    6.8919 C   0  0  0  0  0  0  0  0  0  0  0  0
   -1.2981    6.2224    7.4651 H   0  0  0  0  0  0  0  0  0  0  0  0
   -0.9945    5.0285    6.4435 H   0  0  0  0  0  0  0  0  0  0  0  0
   -0.3220    6.4634    6.2200 H   0  0  0  0  0  0  0  0  0  0  0  0
   -2.1865    6.2432   10.1373 C   0  0  0  0  0  0  0  0  0  0  0  0
   -1.9298    6.6280    9.2734 H   0  0  0  0  0  0  0  0  0  0  0  0
   -1.6950    6.6945   10.8550 H   0  0  0  0  0  0  0  0  0  0  0  0
   -3.1494    6.3633   10.2751 H   0  0  0  0  0  0  0  0  0  0  0  0
   -3.0223    3.7953    8.9910 C   0  0  0  0  0  0  0  0  0  0  0  0
   -3.9113    4.1339    9.2267 H   0  0  0  0  0  0  0  0  0  0  0  0
   -3.0211    2.8167    9.0435 H   0  0  0  0  0  0  0  0  0  0  0  0
   -2.7978    4.0739    8.0788 H   0  0  0  0  0  0  0  0  0  0  0  0
   -2.5092    3.9770   11.7512 C   0  0  0  0  0  0  0  0  0  0  0  0
   -1.9440    4.3083   12.4798 H   0  0  0  0  0  0  0  0  0  0  0  0
   -2.5640    2.9996   11.7986 H   0  0  0  0  0  0  0  0  0  0  0  0
   -3.4079    4.3589   11.8352 H   0  0  0  0  0  0  0  0  0  0  0  0
   -0.2767    2.3078    8.3699 C   0  0  0  0  0  0  0  0  0  0  0  0
   -0.9743    0.2312    7.0097 C   0  0  0  0  0  0  0  0  0  0  0  0
   -0.1998   -0.3674    6.9627 H   0  0  0  0  0  0  0  0  0  0  0  0
   -1.2636    0.4631    6.1026 H   0  0  0  0  0  0  0  0  0  0  0  0
   -1.7065   -0.2183    7.4812 H   0  0  0  0  0  0  0  0  0  0  0  0
    1.0426    5.0439   11.1776 B   0  0  0  0  0  0  0  0  0  0  0  0
    0.0719    2.4670   11.2581 B   0  0  0  0  0  0  0  0  0  0  0  0
   -0.6133    1.4248    7.7155 N   0  0  0  0  0  0  0  0  0  0  0  0
    0.2049    5.8104   11.9615 O   0  0  0  0  0  0  0  0  0  0  0  0
    2.3575    5.2347   11.5470 O   0  0  0  0  0  0  0  0  0  0  0  0
    0.1924    2.7450   12.6278 O   0  0  0  0  0  0  0  0  0  0  0  0
   -0.3226    1.1172   11.1015 O   0  0  0  0  0  0  0  0  0  0  0  0
    2.5295    2.8212    9.7042 P   0  0  0  0  0  0  0  0  0  0  0  0
    0.8041    5.3060    7.9073 P   0  0  0  0  0  0  0  0  0  0  0  0
   -1.7884    4.4675   10.1529 P   0  0  0  0  0  0  0  0  0  0  0  0
    0.3863    3.7527    9.6844 Rh  0  3  0  0  0  0  0  0  0  0  0  0
  1  2  1  0  0  0  0
  2 11  1  0  0  0  0
  3  1  1  0  0  0  0
  4  3  1  0  0  0  0
  5  3  1  0  0  0  0
  6  3  1  0  0  0  0
  7  1  1  0  0  0  0
  8  7  1  0  0  0  0
  9  7  1  0  0  0  0
 10  7  1  0  0  0  0
 11 12  1  0  0  0  0
 13 11  1  0  0  0  0
 14 11  1  0  0  0  0
 15  2  1  0  0  0  0
 16 15  1  0  0  0  0
 17 15  1  0  0  0  0
 18 15  1  0  0  0  0
 19 20  4  0  0  0  0
 20 21  4  0  0  0  0
 21 22  1  0  0  0  0
 23 21  4  0  0  0  0
 24 23  1  0  0  0  0
 25 23  4  0  0  0  0
 26 25  1  0  0  0  0
 27 19  4  0  0  0  0
 28 27  1  0  0  0  0
 29 30  1  0  0  0  0
 31 29  1  0  0  0  0
 32 29  1  0  0  0  0
 33 34  1  0  0  0  0
 35 33  1  0  0  0  0
 36 33  1  0  0  0  0
 37 38  1  0  0  0  0
 39 37  1  0  0  0  0
 40 37  1  0  0  0  0
 41 42  1  0  0  0  0
 43 41  1  0  0  0  0
 44 41  1  0  0  0  0
 45 46  1  0  0  0  0
 47 45  1  0  0  0  0
 48 45  1  0  0  0  0
 49 50  1  0  0  0  0
 51 49  1  0  0  0  0
 52 49  1  0  0  0  0
 53 54  1  0  0  0  0
 55 53  1  0  0  0  0
 56 53  1  0  0  0  0
 57 58  1  0  0  0  0
 59 57  1  0  0  0  0
 60 57  1  0  0  0  0
 61 62  1  0  0  0  0
 63 61  1  0  0  0  0
 64 61  1  0  0  0  0
 65 72  3  0  0  0  0
 66 67  1  0  0  0  0
 68 66  1  0  0  0  0
 69 66  1  0  0  0  0
 70 73  1  0  0  0  0
 71 75  1  0  0  0  0
 72 66  1  0  0  0  0
 73  1  1  0  0  0  0
 74  2  1  0  0  0  0
 75 19  1  0  0  0  0
 76 20  1  0  0  0  0
 77 29  1  0  0  0  0
 78 41  1  0  0  0  0
 79 53  1  0  0  0  0
 80 65  1  0  0  0  0
 25 27  4  0  0  0  0
 33 77  1  0  0  0  0
 37 77  1  0  0  0  0
 45 78  1  0  0  0  0
 49 78  1  0  0  0  0
 57 79  1  0  0  0  0
 61 79  1  0  0  0  0
 70 74  1  0  0  0  0
 70 80  1  0  0  0  0
 71 76  1  0  0  0  0
 71 80  1  0  0  0  0
 77 80  1  0  0  0  0
 78 80  1  0  0  0  0
 79 80  1  0  0  0  0
M  CHG  1  80   1
M  END
$$$$
CECCIA

From CSD data. Using bond type 'Any'. No disordered atoms. Largest molecule.
 83 84  0  0  0  0  0  0  0  0999 V2000
   14.7798    8.0873    8.6743 C   0  0  0  0  0  0  0  0  0  0  0  0
   15.3470    6.6462    8.6668 C   0  0  0  0  0  0  0  0  0  0  0  0
   15.0336    8.8246    7.3645 C   0  0  0  0  0  0  0  0  0  0  0  0
   14.7561    8.2603    6.6130 H   0  0  0  0  0  0  0  0  0  0  0  0
   15.9887    9.0288    7.2846 H   0  0  0  0  0  0  0  0  0  0  0  0
   14.5193    9.6587    7.3542 H   0  0  0  0  0  0  0  0  0  0  0  0
   15.2153    8.9507    9.8477 C   0  0  0  0  0  0  0  0  0  0  0  0
   14.7691    9.8217    9.7958 H   0  0  0  0  0  0  0  0  0  0  0  0
   16.1864    9.0788    9.8161 H   0  0  0  0  0  0  0  0  0  0  0  0
   14.9714    8.5081   10.6873 H   0  0  0  0  0  0  0  0  0  0  0  0
   16.6119    6.4636    7.8408 C   0  0  0  0  0  0  0  0  0  0  0  0
   16.9028    5.5292    7.8914 H   0  0  0  0  0  0  0  0  0  0  0  0
   17.3179    7.0452    8.1920 H   0  0  0  0  0  0  0  0  0  0  0  0
   16.4290    6.6987    6.9072 H   0  0  0  0  0  0  0  0  0  0  0  0
   15.5418    6.0711   10.0615 C   0  0  0  0  0  0  0  0  0  0  0  0
   14.7258    6.2058   10.5873 H   0  0  0  0  0  0  0  0  0  0  0  0
   16.2915    6.5249   10.5001 H   0  0  0  0  0  0  0  0  0  0  0  0
   15.7335    5.1123    9.9957 H   0  0  0  0  0  0  0  0  0  0  0  0
   11.7917    4.7103   11.7777 C   0  0  0  0  0  0  0  0  0  0  0  0
   11.5556    3.3383   11.0775 C   0  0  0  0  0  0  0  0  0  0  0  0
   10.5653    5.2528   12.5073 C   0  0  0  0  0  0  0  0  0  0  0  0
   10.7352    6.1756   12.7899 H   0  0  0  0  0  0  0  0  0  0  0  0
   10.3818    4.6985   13.2943 H   0  0  0  0  0  0  0  0  0  0  0  0
    9.7920    5.2324   11.9057 H   0  0  0  0  0  0  0  0  0  0  0  0
   12.9757    4.7219   12.7303 C   0  0  0  0  0  0  0  0  0  0  0  0
   13.7976    4.5293   12.2323 H   0  0  0  0  0  0  0  0  0  0  0  0
   12.8454    4.0399   13.4218 H   0  0  0  0  0  0  0  0  0  0  0  0
   13.0479    5.6041   13.1509 H   0  0  0  0  0  0  0  0  0  0  0  0
   12.8278    2.5109   10.9122 C   0  0  0  0  0  0  0  0  0  0  0  0
   12.6447    1.7429   10.3315 H   0  0  0  0  0  0  0  0  0  0  0  0
   13.1270    2.1930   11.7896 H   0  0  0  0  0  0  0  0  0  0  0  0
   13.5281    3.0655   10.5093 H   0  0  0  0  0  0  0  0  0  0  0  0
   10.4638    2.4882   11.7164 C   0  0  0  0  0  0  0  0  0  0  0  0
    9.6144    2.9763   11.6939 H   0  0  0  0  0  0  0  0  0  0  0  0
   10.7040    2.2932   12.6464 H   0  0  0  0  0  0  0  0  0  0  0  0
   10.3714    1.6484   11.2200 H   0  0  0  0  0  0  0  0  0  0  0  0
    8.6082    8.2926    8.0097 C   0  0  0  0  0  0  0  0  0  0  0  0
    8.0203    7.6932    8.5151 H   0  0  0  0  0  0  0  0  0  0  0  0
    8.4640    8.1589    7.0498 H   0  0  0  0  0  0  0  0  0  0  0  0
    8.4063    9.2225    8.2442 H   0  0  0  0  0  0  0  0  0  0  0  0
   11.0900    9.4080    7.6525 C   0  0  0  0  0  0  0  0  0  0  0  0
   10.5989   10.2046    7.9438 H   0  0  0  0  0  0  0  0  0  0  0  0
   11.0375    9.3304    6.6771 H   0  0  0  0  0  0  0  0  0  0  0  0
   12.0284    9.4854    7.9241 H   0  0  0  0  0  0  0  0  0  0  0  0
   10.4198    8.3243   10.1939 C   0  0  0  0  0  0  0  0  0  0  0  0
   11.3503    8.2983   10.5005 H   0  0  0  0  0  0  0  0  0  0  0  0
    9.8920    7.6688   10.6962 H   0  0  0  0  0  0  0  0  0  0  0  0
   10.0524    9.2209   10.3405 H   0  0  0  0  0  0  0  0  0  0  0  0
    8.0678    5.0200    9.3240 C   0  0  0  0  0  0  0  0  0  0  0  0
    8.1517    5.9525    9.6136 H   0  0  0  0  0  0  0  0  0  0  0  0
    8.4429    4.4298   10.0104 H   0  0  0  0  0  0  0  0  0  0  0  0
    7.1215    4.8038    9.1888 H   0  0  0  0  0  0  0  0  0  0  0  0
    8.8279    2.9568    7.6686 C   0  0  0  0  0  0  0  0  0  0  0  0
    7.9347    2.6913    7.9724 H   0  0  0  0  0  0  0  0  0  0  0  0
    9.5048    2.5470    8.2467 H   0  0  0  0  0  0  0  0  0  0  0  0
    8.9615    2.6564    6.7454 H   0  0  0  0  0  0  0  0  0  0  0  0
    7.7299    5.2600    6.4962 C   0  0  0  0  0  0  0  0  0  0  0  0
    8.1596    5.3474    5.6198 H   0  0  0  0  0  0  0  0  0  0  0  0
    7.3256    6.1163    6.7487 H   0  0  0  0  0  0  0  0  0  0  0  0
    7.0343    4.5710    6.4516 H   0  0  0  0  0  0  0  0  0  0  0  0
   11.2766    3.2834    5.2855 C   0  0  0  0  0  0  0  0  0  0  0  0
   11.8561    2.8744    4.6092 H   0  0  0  0  0  0  0  0  0  0  0  0
   10.6336    3.8794    4.8474 H   0  0  0  0  0  0  0  0  0  0  0  0
   10.7938    2.5814    5.7697 H   0  0  0  0  0  0  0  0  0  0  0  0
   13.2125    2.9173    7.3026 C   0  0  0  0  0  0  0  0  0  0  0  0
   13.6249    2.3304    6.6348 H   0  0  0  0  0  0  0  0  0  0  0  0
   12.5964    2.3966    7.8592 H   0  0  0  0  0  0  0  0  0  0  0  0
   13.9104    3.3101    7.8677 H   0  0  0  0  0  0  0  0  0  0  0  0
   13.5448    4.9025    5.3070 C   0  0  0  0  0  0  0  0  0  0  0  0
   14.3052    5.2547    5.8152 H   0  0  0  0  0  0  0  0  0  0  0  0
   13.1486    5.6214    4.7717 H   0  0  0  0  0  0  0  0  0  0  0  0
   13.8523    4.1852    4.7143 H   0  0  0  0  0  0  0  0  0  0  0  0
   13.0700    6.6046    8.1849 B   0  0  0  0  0  0  0  0  0  0  0  0
   11.5107    5.0413    9.4956 B   0  0  0  0  0  0  0  0  0  0  0  0
   13.3507    7.8473    8.7581 O   0  0  0  0  0  0  0  0  0  0  0  0
   14.2677    5.8982    8.0452 O   0  0  0  0  0  0  0  0  0  0  0  0
   12.0503    5.6016   10.6524 O   0  0  0  0  0  0  0  0  0  0  0  0
   11.1185    3.7269    9.7496 O   0  0  0  0  0  0  0  0  0  0  0  0
   10.3544    7.9248    8.4215 P   0  0  0  0  0  0  0  0  0  0  0  0
    8.9821    4.7836    7.7459 P   0  0  0  0  0  0  0  0  0  0  0  0
   12.2956    4.2442    6.4606 P   0  0  0  0  0  0  0  0  0  0  0  0
   10.6762    6.8352    5.3570 Cl  0  0  0  0  0  0  0  0  0  0  0  0
   11.1850    5.8899    7.6744 Rh  0  0  0  0  0  0  0  0  0  0  0  0
  1  2  1  0  0  0  0
  2 11  1  0  0  0  0
  3  1  1  0  0  0  0
  4  3  1  0  0  0  0
  5  3  1  0  0  0  0
  6  3  1  0  0  0  0
  7  1  1  0  0  0  0
  8  7  1  0  0  0  0
  9  7  1  0  0  0  0
 10  7  1  0  0  0  0
 11 12  1  0  0  0  0
 13 11  1  0  0  0  0
 14 11  1  0  0  0  0
 15  2  1  0  0  0  0
 16 15  1  0  0  0  0
 17 15  1  0  0  0  0
 18 15  1  0  0  0  0
 19 20  1  0  0  0  0
 20 29  1  0  0  0  0
 21 19  1  0  0  0  0
 22 21  1  0  0  0  0
 23 21  1  0  0  0  0
 24 21  1  0  0  0  0
 25 19  1  0  0  0  0
 26 25  1  0  0  0  0
 27 25  1  0  0  0  0
 28 25  1  0  0  0  0
 29 30  1  0  0  0  0
 31 29  1  0  0  0  0
 32 29  1  0  0  0  0
 33 20  1  0  0  0  0
 34 33  1  0  0  0  0
 35 33  1  0  0  0  0
 36 33  1  0  0  0  0
 37 38  1  0  0  0  0
 39 37  1  0  0  0  0
 40 37  1  0  0  0  0
 41 42  1  0  0  0  0
 43 41  1  0  0  0  0
 44 41  1  0  0  0  0
 45 46  1  0  0  0  0
 47 45  1  0  0  0  0
 48 45  1  0  0  0  0
 49 50  1  0  0  0  0
 51 49  1  0  0  0  0
 52 49  1  0  0  0  0
 53 54  1  0  0  0  0
 55 53  1  0  0  0  0
 56 53  1  0  0  0  0
 57 58  1  0  0  0  0
 59 57  1  0  0  0  0
 60 57  1  0  0  0  0
 61 62  1  0  0  0  0
 63 61  1  0  0  0  0
 64 61  1  0  0  0  0
 65 66  1  0  0  0  0
 67 65  1  0  0  0  0
 68 65  1  0  0  0  0
 69 70  1  0  0  0  0
 71 69  1  0  0  0  0
 72 69  1  0  0  0  0
 73 75  1  0  0  0  0
 74 77  1  0  0  0  0
 75  1  1  0  0  0  0
 76  2  1  0  0  0  0
 77 19  1  0  0  0  0
 78 20  1  0  0  0  0
 79 37  1  0  0  0  0
 80 49  1  0  0  0  0
 81 61  1  0  0  0  0
 82 83  1  0  0  0  0
 83 73  1  0  0  0  0
 41 79  1  0  0  0  0
 45 79  1  0  0  0  0
 53 80  1  0  0  0  0
 57 80  1  0  0  0  0
 65 81  1  0  0  0  0
 69 81  1  0  0  0  0
 73 76  1  0  0  0  0
 74 78  1  0  0  0  0
 74 83  1  0  0  0  0
 79 83  1  0  0  0  0
 80 83  1  0  0  0  0
 81 83  1  0  0  0  0
M  END
$$$$
CECFUP

From CSD data. Using bond type 'Any'. Matching problem. No disordered atoms. Largest molecule.
103111  0  0  0  0  0  0  0  0999 V2000
    7.6491   14.7011    6.4467 C   0  0  0  0  0  0  0  0  0  0  0  0
    8.6106   14.3110    5.5560 C   0  0  0  0  0  0  0  0  0  0  0  0
    8.3911   13.9635    4.6995 H   0  0  0  0  0  0  0  0  0  0  0  0
    9.9319   14.4529    5.9784 C   0  0  0  0  0  0  0  0  0  0  0  0
   10.6326   14.1835    5.3965 H   0  0  0  0  0  0  0  0  0  0  0  0
   10.2482   14.9658    7.1980 C   0  0  0  0  0  0  0  0  0  0  0  0
   11.1621   15.0586    7.4405 H   0  0  0  0  0  0  0  0  0  0  0  0
    9.2614   15.3572    8.0983 C   0  0  0  0  0  0  0  0  0  0  0  0
    9.4754   15.7170    8.9512 H   0  0  0  0  0  0  0  0  0  0  0  0
    7.9553   15.1938    7.6845 C   0  0  0  0  0  0  0  0  0  0  0  0
    3.3626   13.2621    4.4301 C   0  0  0  0  0  0  0  0  0  0  0  0
    3.2398   14.7372    3.9475 C   0  0  0  0  0  0  0  0  0  0  0  0
    4.7049   12.6338    4.0678 C   0  0  0  0  0  0  0  0  0  0  0  0
    5.4310   13.1910    4.4172 H   0  0  0  0  0  0  0  0  0  0  0  0
    4.7823   12.5686    3.0932 H   0  0  0  0  0  0  0  0  0  0  0  0
    4.7622   11.7377    4.4608 H   0  0  0  0  0  0  0  0  0  0  0  0
    2.2361   12.3508    3.9920 C   0  0  0  0  0  0  0  0  0  0  0  0
    2.4241   11.4349    4.2859 H   0  0  0  0  0  0  0  0  0  0  0  0
    2.1605   12.3715    3.0152 H   0  0  0  0  0  0  0  0  0  0  0  0
    1.3951   12.6561    4.3916 H   0  0  0  0  0  0  0  0  0  0  0  0
    4.0974   15.1200    2.7626 C   0  0  0  0  0  0  0  0  0  0  0  0
    3.9403   16.0605    2.5361 H   0  0  0  0  0  0  0  0  0  0  0  0
    3.8656   14.5560    1.9956 H   0  0  0  0  0  0  0  0  0  0  0  0
    5.0425   14.9921    2.9886 H   0  0  0  0  0  0  0  0  0  0  0  0
    1.7952   15.1686    3.6769 C   0  0  0  0  0  0  0  0  0  0  0  0
    1.2306   14.9138    4.4362 H   0  0  0  0  0  0  0  0  0  0  0  0
    1.4692   14.7277    2.8648 H   0  0  0  0  0  0  0  0  0  0  0  0
    1.7619   16.1407    3.5567 H   0  0  0  0  0  0  0  0  0  0  0  0
    2.6000   18.3416    6.4968 C   0  0  0  0  0  0  0  0  0  0  0  0
    1.4198   17.6216    6.3546 C   0  0  0  0  0  0  0  0  0  0  0  0
    1.3595   16.7389    6.7006 H   0  0  0  0  0  0  0  0  0  0  0  0
    0.3275   18.1877    5.7085 C   0  0  0  0  0  0  0  0  0  0  0  0
   -0.4739   17.6886    5.6031 H   0  0  0  0  0  0  0  0  0  0  0  0
    0.4087   19.4832    5.2175 C   0  0  0  0  0  0  0  0  0  0  0  0
   -0.3433   19.8746    4.7888 H   0  0  0  0  0  0  0  0  0  0  0  0
    1.5819   20.2079    5.3499 C   0  0  0  0  0  0  0  0  0  0  0  0
    1.6337   21.0940    5.0114 H   0  0  0  0  0  0  0  0  0  0  0  0
    2.6785   19.6407    5.9758 C   0  0  0  0  0  0  0  0  0  0  0  0
    3.4871   20.1334    6.0524 H   0  0  0  0  0  0  0  0  0  0  0  0
    5.4518   18.0506    6.3318 C   0  0  0  0  0  0  0  0  0  0  0  0
    5.3454   18.0151    4.9420 C   0  0  0  0  0  0  0  0  0  0  0  0
    4.5023   17.8520    4.5354 H   0  0  0  0  0  0  0  0  0  0  0  0
    6.4709   18.2181    4.1480 C   0  0  0  0  0  0  0  0  0  0  0  0
    6.3948   18.1889    3.2015 H   0  0  0  0  0  0  0  0  0  0  0  0
    7.7079   18.4636    4.7366 C   0  0  0  0  0  0  0  0  0  0  0  0
    7.8074   18.5232    6.1022 C   0  0  0  0  0  0  0  0  0  0  0  0
    8.6483   18.7085    6.5034 H   0  0  0  0  0  0  0  0  0  0  0  0
    6.6926   18.3156    6.9090 C   0  0  0  0  0  0  0  0  0  0  0  0
    6.7773   18.3547    7.8545 H   0  0  0  0  0  0  0  0  0  0  0  0
    4.2008   18.5484    8.8998 C   0  0  0  0  0  0  0  0  0  0  0  0
    3.3868   19.6357    9.2128 C   0  0  0  0  0  0  0  0  0  0  0  0
    2.7246   19.9252    8.5960 H   0  0  0  0  0  0  0  0  0  0  0  0
    3.5416   20.2970   10.4248 C   0  0  0  0  0  0  0  0  0  0  0  0
    2.9837   21.0377   10.6325 H   0  0  0  0  0  0  0  0  0  0  0  0
    4.5032   19.8838   11.3337 C   0  0  0  0  0  0  0  0  0  0  0  0
    4.6094   20.3449   12.1575 H   0  0  0  0  0  0  0  0  0  0  0  0
    5.3057   18.8028   11.0397 C   0  0  0  0  0  0  0  0  0  0  0  0
    5.9664   18.5190   11.6606 H   0  0  0  0  0  0  0  0  0  0  0  0
    5.1494   18.1301    9.8399 C   0  0  0  0  0  0  0  0  0  0  0  0
    5.6935   17.3743    9.6521 H   0  0  0  0  0  0  0  0  0  0  0  0
    2.6737   12.1207    9.0252 C   0  0  0  0  0  0  0  0  0  0  0  0
    2.7947   10.8490    9.5919 C   0  0  0  0  0  0  0  0  0  0  0  0
    3.6064   10.5937   10.0143 H   0  0  0  0  0  0  0  0  0  0  0  0
    1.7300    9.9566    9.5387 C   0  0  0  0  0  0  0  0  0  0  0  0
    1.8114    9.0954    9.9317 H   0  0  0  0  0  0  0  0  0  0  0  0
    0.5493   10.3243    8.9121 C   0  0  0  0  0  0  0  0  0  0  0  0
   -0.1788    9.7148    8.8808 H   0  0  0  0  0  0  0  0  0  0  0  0
    0.4263   11.5736    8.3321 C   0  0  0  0  0  0  0  0  0  0  0  0
   -0.3806   11.8156    7.8929 H   0  0  0  0  0  0  0  0  0  0  0  0
    1.4855   12.4785    8.3916 C   0  0  0  0  0  0  0  0  0  0  0  0
    1.3970   13.3393    7.9997 H   0  0  0  0  0  0  0  0  0  0  0  0
    5.5257   12.3289    8.8088 C   0  0  0  0  0  0  0  0  0  0  0  0
    6.5725   12.2102    9.7224 C   0  0  0  0  0  0  0  0  0  0  0  0
    6.4961   12.6021   10.5846 H   0  0  0  0  0  0  0  0  0  0  0  0
    7.7294   11.5189    9.3737 C   0  0  0  0  0  0  0  0  0  0  0  0
    8.4429   11.4503    9.9971 H   0  0  0  0  0  0  0  0  0  0  0  0
    7.8486   10.9357    8.1382 C   0  0  0  0  0  0  0  0  0  0  0  0
    8.6399   10.4620    7.9103 H   0  0  0  0  0  0  0  0  0  0  0  0
    6.8100   11.0382    7.2197 C   0  0  0  0  0  0  0  0  0  0  0  0
    6.8895   10.6316    6.3648 H   0  0  0  0  0  0  0  0  0  0  0  0
    5.6592   11.7341    7.5519 C   0  0  0  0  0  0  0  0  0  0  0  0
    4.9543   11.8074    6.9193 H   0  0  0  0  0  0  0  0  0  0  0  0
    4.1790   13.7465   10.8978 C   0  0  0  0  0  0  0  0  0  0  0  0
    5.1238   14.7068   11.2544 C   0  0  0  0  0  0  0  0  0  0  0  0
    5.6733   15.0979   10.5855 H   0  0  0  0  0  0  0  0  0  0  0  0
    5.2691   15.0964   12.5778 C   0  0  0  0  0  0  0  0  0  0  0  0
    5.9162   15.7512   12.8122 H   0  0  0  0  0  0  0  0  0  0  0  0
    4.4716   14.5316   13.5552 C   0  0  0  0  0  0  0  0  0  0  0  0
    4.5746   14.7955   14.4621 H   0  0  0  0  0  0  0  0  0  0  0  0
    3.5273   13.5842   13.2156 C   0  0  0  0  0  0  0  0  0  0  0  0
    2.9804   13.1984   13.8902 H   0  0  0  0  0  0  0  0  0  0  0  0
    3.3707   13.1898   11.8836 C   0  0  0  0  0  0  0  0  0  0  0  0
    2.7141   12.5433   11.6523 H   0  0  0  0  0  0  0  0  0  0  0  0
    5.7353   15.1474    7.4824 B   0  0  0  0  0  0  0  0  0  0  0  0
    3.6440   14.6879    6.2106 B   0  0  0  0  0  0  0  0  0  0  0  0
    6.2819   14.6698    6.2933 O   0  0  0  0  0  0  0  0  0  0  0  0
    6.7907   15.4770    8.3624 O   0  0  0  0  0  0  0  0  0  0  0  0
    3.3424   13.3862    5.8847 O   0  0  0  0  0  0  0  0  0  0  0  0
    3.6622   15.5024    5.1068 O   0  0  0  0  0  0  0  0  0  0  0  0
    4.0062   17.5861    7.3603 P   0  0  0  0  0  0  0  0  0  0  0  0
    4.0271   13.3238    9.1303 P   0  0  0  0  0  0  0  0  0  0  0  0
    1.8462   15.9077    9.3839 Cl  0  0  0  0  0  0  0  0  0  0  0  0
    3.8425   15.3845    8.0703 Rh  0  0  0  0  0  0  0  0  0  0  0  0
  1  2  4  0  0  0  0
  2  3  1  0  0  0  0
  4  2  4  0  0  0  0
  5  4  1  0  0  0  0
  6  4  4  0  0  0  0
  7  6  1  0  0  0  0
  8  6  4  0  0  0  0
  9  8  1  0  0  0  0
 10  1  4  0  0  0  0
 11 12  1  0  0  0  0
 12 21  1  0  0  0  0
 13 11  1  0  0  0  0
 14 13  1  0  0  0  0
 15 13  1  0  0  0  0
 16 13  1  0  0  0  0
 17 11  1  0  0  0  0
 18 17  1  0  0  0  0
 19 17  1  0  0  0  0
 20 17  1  0  0  0  0
 21 22  1  0  0  0  0
 23 21  1  0  0  0  0
 24 21  1  0  0  0  0
 25 12  1  0  0  0  0
 26 25  1  0  0  0  0
 27 25  1  0  0  0  0
 28 25  1  0  0  0  0
 29 30  4  0  0  0  0
 30 31  1  0  0  0  0
 32 30  4  0  0  0  0
 33 32  1  0  0  0  0
 34 32  4  0  0  0  0
 35 34  1  0  0  0  0
 36 34  4  0  0  0  0
 37 36  1  0  0  0  0
 38 29  4  0  0  0  0
 39 38  1  0  0  0  0
 40 41  4  0  0  0  0
 41 42  1  0  0  0  0
 43 41  4  0  0  0  0
 44 43  1  0  0  0  0
 45 43  4  0  0  0  0
 46 45  4  0  0  0  0
 47 46  1  0  0  0  0
 48 40  4  0  0  0  0
 49 48  1  0  0  0  0
 50 51  4  0  0  0  0
 51 52  1  0  0  0  0
 53 51  4  0  0  0  0
 54 53  1  0  0  0  0
 55 53  4  0  0  0  0
 56 55  1  0  0  0  0
 57 55  4  0  0  0  0
 58 57  1  0  0  0  0
 59 50  4  0  0  0  0
 60 59  1  0  0  0  0
 61 62  4  0  0  0  0
 62 63  1  0  0  0  0
 64 62  4  0  0  0  0
 65 64  1  0  0  0  0
 66 64  4  0  0  0  0
 67 66  1  0  0  0  0
 68 66  4  0  0  0  0
 69 68  1  0  0  0  0
 70 61  4  0  0  0  0
 71 70  1  0  0  0  0
 72 73  4  0  0  0  0
 73 74  1  0  0  0  0
 75 73  4  0  0  0  0
 76 75  1  0  0  0  0
 77 75  4  0  0  0  0
 78 77  1  0  0  0  0
 79 77  4  0  0  0  0
 80 79  1  0  0  0  0
 81 72  4  0  0  0  0
 82 81  1  0  0  0  0
 83 84  4  0  0  0  0
 84 85  1  0  0  0  0
 86 84  4  0  0  0  0
 87 86  1  0  0  0  0
 88 86  4  0  0  0  0
 89 88  1  0  0  0  0
 90 88  4  0  0  0  0
 91 90  1  0  0  0  0
 92 83  4  0  0  0  0
 93 92  1  0  0  0  0
 94 96  1  0  0  0  0
 95 98  1  0  0  0  0
 96  1  1  0  0  0  0
 97 10  1  0  0  0  0
 98 11  1  0  0  0  0
 99 12  1  0  0  0  0
100 29  1  0  0  0  0
101 61  1  0  0  0  0
102103  1  0  0  0  0
103 94  1  0  0  0  0
  8 10  4  0  0  0  0
 36 38  4  0  0  0  0
 40100  1  0  0  0  0
 46 48  4  0  0  0  0
 50100  1  0  0  0  0
 57 59  4  0  0  0  0
 68 70  4  0  0  0  0
 72101  1  0  0  0  0
 79 81  4  0  0  0  0
 83101  1  0  0  0  0
 90 92  4  0  0  0  0
 94 97  1  0  0  0  0
 95 99  1  0  0  0  0
 95103  1  0  0  0  0
100103  1  0  0  0  0
101103  1  0  0  0  0
M  END
$$$$
CECPAF

From CSD data. Using bond type 'Any'. No disordered atoms. Largest molecule.
 70 71  0  0  0  0  0  0  0  0999 V2000
    7.7272   21.6456    4.9705 Rh  0  0  0  0  0  0  0  0  0  0  0  0
    9.5199   23.0782    4.1188 Cl  0  0  0  0  0  0  0  0  0  0  0  0
    7.0782   23.3994    6.3130 P   0  0  0  0  0  0  0  0  0  0  0  0
    8.4546   19.9817    3.5261 P   0  0  0  0  0  0  0  0  0  0  0  0
    5.2452   20.7042    3.7167 O   0  0  0  0  0  0  0  0  0  0  0  0
    4.9623   20.6497    5.9341 O   0  0  0  0  0  0  0  0  0  0  0  0
    7.7490   20.7949    7.7995 O   0  0  0  0  0  0  0  0  0  0  0  0
    7.7368   19.0015    6.4223 O   0  0  0  0  0  0  0  0  0  0  0  0
    3.7959   20.5106    3.9805 C   0  0  0  0  0  0  0  0  0  0  0  0
    3.7959   19.9602    5.4112 C   0  0  0  0  0  0  0  0  0  0  0  0
    3.2355   19.6366    2.9020 C   0  0  0  0  0  0  0  0  0  0  0  0
    3.4593   20.0138    2.0258 H   0  0  0  0  0  0  0  0  0  0  0  0
    2.2628   19.5820    2.9970 H   0  0  0  0  0  0  0  0  0  0  0  0
    3.6218   18.7372    2.9770 H   0  0  0  0  0  0  0  0  0  0  0  0
    3.1080   21.9199    3.9166 C   0  0  0  0  0  0  0  0  0  0  0  0
    3.3026   22.4165    4.7412 H   0  0  0  0  0  0  0  0  0  0  0  0
    2.1371   21.8061    3.8301 H   0  0  0  0  0  0  0  0  0  0  0  0
    3.4487   22.4184    3.1476 H   0  0  0  0  0  0  0  0  0  0  0  0
    4.0404   18.4481    5.4739 C   0  0  0  0  0  0  0  0  0  0  0  0
    4.5884   18.1710    4.7152 H   0  0  0  0  0  0  0  0  0  0  0  0
    3.1824   17.9770    5.4544 H   0  0  0  0  0  0  0  0  0  0  0  0
    4.5092   18.2300    6.3125 H   0  0  0  0  0  0  0  0  0  0  0  0
    2.5772   20.2808    6.2061 C   0  0  0  0  0  0  0  0  0  0  0  0
    2.6616   19.8960    7.1039 H   0  0  0  0  0  0  0  0  0  0  0  0
    1.7892   19.9021    5.7624 H   0  0  0  0  0  0  0  0  0  0  0  0
    2.4768   21.2529    6.2758 H   0  0  0  0  0  0  0  0  0  0  0  0
    7.7071   19.6396    8.6885 C   0  0  0  0  0  0  0  0  0  0  0  0
    8.1052   18.4844    7.7169 C   0  0  0  0  0  0  0  0  0  0  0  0
    6.3103   19.5670    9.2045 C   0  0  0  0  0  0  0  0  0  0  0  0
    6.0321   20.4537    9.5212 H   0  0  0  0  0  0  0  0  0  0  0  0
    6.2729   18.9316    9.9526 H   0  0  0  0  0  0  0  0  0  0  0  0
    5.7106   19.2702    8.4931 H   0  0  0  0  0  0  0  0  0  0  0  0
    8.7338   19.8816    9.7473 C   0  0  0  0  0  0  0  0  0  0  0  0
    9.5580   20.2152    9.3322 H   0  0  0  0  0  0  0  0  0  0  0  0
    8.9227   19.0429   10.2171 H   0  0  0  0  0  0  0  0  0  0  0  0
    8.3988   20.5458   10.3847 H   0  0  0  0  0  0  0  0  0  0  0  0
    7.4208   17.1658    7.9261 C   0  0  0  0  0  0  0  0  0  0  0  0
    6.4518   17.3050    7.9723 H   0  0  0  0  0  0  0  0  0  0  0  0
    7.7352   16.7630    8.7599 H   0  0  0  0  0  0  0  0  0  0  0  0
    7.6286   16.5699    7.1748 H   0  0  0  0  0  0  0  0  0  0  0  0
    9.6383   18.2727    7.6588 C   0  0  0  0  0  0  0  0  0  0  0  0
    9.8959   17.9903    6.7559 H   0  0  0  0  0  0  0  0  0  0  0  0
    9.8976   17.5797    8.3027 H   0  0  0  0  0  0  0  0  0  0  0  0
   10.0948   19.1108    7.8810 H   0  0  0  0  0  0  0  0  0  0  0  0
    5.6730   23.2778    7.4694 C   0  0  0  0  0  0  0  0  0  0  0  0
    5.8021   22.5099    8.0629 H   0  0  0  0  0  0  0  0  0  0  0  0
    4.8412   23.1627    6.9621 H   0  0  0  0  0  0  0  0  0  0  0  0
    5.6167   24.0984    8.0033 H   0  0  0  0  0  0  0  0  0  0  0  0
    6.6438   24.8444    5.2915 C   0  0  0  0  0  0  0  0  0  0  0  0
    6.5914   25.6426    5.8598 H   0  0  0  0  0  0  0  0  0  0  0  0
    5.7764   24.6933    4.8619 H   0  0  0  0  0  0  0  0  0  0  0  0
    7.3300   24.9786    4.6050 H   0  0  0  0  0  0  0  0  0  0  0  0
    8.3933   24.0339    7.3904 C   0  0  0  0  0  0  0  0  0  0  0  0
    8.0882   24.8526    7.8318 H   0  0  0  0  0  0  0  0  0  0  0  0
    9.1898   24.2295    6.8524 H   0  0  0  0  0  0  0  0  0  0  0  0
    8.6151   23.3599    8.0667 H   0  0  0  0  0  0  0  0  0  0  0  0
    7.5779   18.3876    3.3436 C   0  0  0  0  0  0  0  0  0  0  0  0
    6.6246   18.5529    3.1963 H   0  0  0  0  0  0  0  0  0  0  0  0
    7.6956   17.8551    4.1591 H   0  0  0  0  0  0  0  0  0  0  0  0
    7.9476   17.8972    2.5793 H   0  0  0  0  0  0  0  0  0  0  0  0
    8.4667   20.5681    1.8107 C   0  0  0  0  0  0  0  0  0  0  0  0
    8.9014   21.4447    1.7686 H   0  0  0  0  0  0  0  0  0  0  0  0
    7.5462   20.6423    1.4847 H   0  0  0  0  0  0  0  0  0  0  0  0
    8.9609   19.9311    1.2524 H   0  0  0  0  0  0  0  0  0  0  0  0
   10.1813   19.5035    3.8004 C   0  0  0  0  0  0  0  0  0  0  0  0
   10.4737   18.9034    3.0808 H   0  0  0  0  0  0  0  0  0  0  0  0
   10.2615   19.0408    4.6610 H   0  0  0  0  0  0  0  0  0  0  0  0
   10.7473   20.3034    3.8061 H   0  0  0  0  0  0  0  0  0  0  0  0
    5.8546   20.9249    4.9440 B   0  0  0  0  0  0  0  0  0  0  0  0
    7.6722   20.3776    6.4978 B   0  0  0  0  0  0  0  0  0  0  0  0
  1  2  1  0  0  0  0
  3  1  1  0  0  0  0
  4  1  1  0  0  0  0
  5  9  1  0  0  0  0
  6 10  1  0  0  0  0
  7 27  1  0  0  0  0
  8 28  1  0  0  0  0
  9 10  1  0  0  0  0
 10 19  1  0  0  0  0
 11  9  1  0  0  0  0
 12 11  1  0  0  0  0
 13 11  1  0  0  0  0
 14 11  1  0  0  0  0
 15  9  1  0  0  0  0
 16 15  1  0  0  0  0
 17 15  1  0  0  0  0
 18 15  1  0  0  0  0
 19 20  1  0  0  0  0
 21 19  1  0  0  0  0
 22 19  1  0  0  0  0
 23 10  1  0  0  0  0
 24 23  1  0  0  0  0
 25 23  1  0  0  0  0
 26 23  1  0  0  0  0
 27 28  1  0  0  0  0
 28 37  1  0  0  0  0
 29 27  1  0  0  0  0
 30 29  1  0  0  0  0
 31 29  1  0  0  0  0
 32 29  1  0  0  0  0
 33 27  1  0  0  0  0
 34 33  1  0  0  0  0
 35 33  1  0  0  0  0
 36 33  1  0  0  0  0
 37 38  1  0  0  0  0
 39 37  1  0  0  0  0
 40 37  1  0  0  0  0
 41 28  1  0  0  0  0
 42 41  1  0  0  0  0
 43 41  1  0  0  0  0
 44 41  1  0  0  0  0
 45  3  1  0  0  0  0
 46 45  1  0  0  0  0
 47 45  1  0  0  0  0
 48 45  1  0  0  0  0
 49  3  1  0  0  0  0
 50 49  1  0  0  0  0
 51 49  1  0  0  0  0
 52 49  1  0  0  0  0
 53  3  1  0  0  0  0
 54 53  1  0  0  0  0
 55 53  1  0  0  0  0
 56 53  1  0  0  0  0
 57  4  1  0  0  0  0
 58 57  1  0  0  0  0
 59 57  1  0  0  0  0
 60 57  1  0  0  0  0
 61  4  1  0  0  0  0
 62 61  1  0  0  0  0
 63 61  1  0  0  0  0
 64 61  1  0  0  0  0
 65  4  1  0  0  0  0
 66 65  1  0  0  0  0
 67 65  1  0  0  0  0
 68 65  1  0  0  0  0
 69  1  1  0  0  0  0
 70  1  1  0  0  0  0
  5 69  1  0  0  0  0
  6 69  1  0  0  0  0
  7 70  1  0  0  0  0
  8 70  1  0  0  0  0
M  END
$$$$
CECPEJ

From CSD data. Using bond type 'Any'. Matching problem. No disordered atoms. Largest molecule.
 75 77  0  0  0  0  0  0  0  0999 V2000
   15.2299   11.8316    7.3014 C   0  0  0  0  0  0  0  0  0  0  0  0
   15.6558   10.8003    6.2265 C   0  0  0  0  0  0  0  0  0  0  0  0
   15.1113   13.2511    6.7626 C   0  0  0  0  0  0  0  0  0  0  0  0
   14.5627   13.2476    5.9500 H   0  0  0  0  0  0  0  0  0  0  0  0
   16.0040   13.5967    6.5517 H   0  0  0  0  0  0  0  0  0  0  0  0
   14.6907   13.8236    7.4376 H   0  0  0  0  0  0  0  0  0  0  0  0
   16.0647   11.8277    8.5748 C   0  0  0  0  0  0  0  0  0  0  0  0
   15.7119   12.4954    9.1992 H   0  0  0  0  0  0  0  0  0  0  0  0
   16.9952   12.0444    8.3561 H   0  0  0  0  0  0  0  0  0  0  0  0
   16.0249   10.9402    8.9888 H   0  0  0  0  0  0  0  0  0  0  0  0
   16.5156   11.3439    5.0855 C   0  0  0  0  0  0  0  0  0  0  0  0
   16.6973   10.6271    4.4426 H   0  0  0  0  0  0  0  0  0  0  0  0
   17.3619   11.6818    5.4461 H   0  0  0  0  0  0  0  0  0  0  0  0
   16.0386   12.0728    4.6354 H   0  0  0  0  0  0  0  0  0  0  0  0
   16.3055    9.5496    6.8099 C   0  0  0  0  0  0  0  0  0  0  0  0
   15.7546    9.2080    7.5449 H   0  0  0  0  0  0  0  0  0  0  0  0
   17.1984    9.7716    7.1465 H   0  0  0  0  0  0  0  0  0  0  0  0
   16.3803    8.8646    6.1125 H   0  0  0  0  0  0  0  0  0  0  0  0
   13.5876    6.1971    6.5201 C   0  0  0  0  0  0  0  0  0  0  0  0
   12.2835    5.7408    6.4859 C   0  0  0  0  0  0  0  0  0  0  0  0
   11.9759    4.3919    6.4947 C   0  0  0  0  0  0  0  0  0  0  0  0
   11.0790    4.0797    6.4728 H   0  0  0  0  0  0  0  0  0  0  0  0
   13.0629    3.5173    6.5384 C   0  0  0  0  0  0  0  0  0  0  0  0
   12.9012    2.5812    6.5455 H   0  0  0  0  0  0  0  0  0  0  0  0
   14.3712    3.9740    6.5695 C   0  0  0  0  0  0  0  0  0  0  0  0
   15.0833    3.3454    6.5963 H   0  0  0  0  0  0  0  0  0  0  0  0
   14.6628    5.3443    6.5627 C   0  0  0  0  0  0  0  0  0  0  0  0
   15.5564    5.6652    6.5876 H   0  0  0  0  0  0  0  0  0  0  0  0
   12.8576    8.5009    3.5690 C   0  0  0  0  0  0  0  0  0  0  0  0
   12.5321    7.6087    3.8085 H   0  0  0  0  0  0  0  0  0  0  0  0
   13.7529    8.6345    3.9445 H   0  0  0  0  0  0  0  0  0  0  0  0
   12.8970    8.5840    2.5932 H   0  0  0  0  0  0  0  0  0  0  0  0
   12.3430   11.2402    3.3475 C   0  0  0  0  0  0  0  0  0  0  0  0
   12.3060   11.0761    2.3813 H   0  0  0  0  0  0  0  0  0  0  0  0
   13.2692   11.4171    3.6130 H   0  0  0  0  0  0  0  0  0  0  0  0
   11.7852   12.0144    3.5684 H   0  0  0  0  0  0  0  0  0  0  0  0
   10.1971    9.3436    3.3556 C   0  0  0  0  0  0  0  0  0  0  0  0
   10.3657    9.3565    2.3907 H   0  0  0  0  0  0  0  0  0  0  0  0
    9.5013    9.9976    3.5751 H   0  0  0  0  0  0  0  0  0  0  0  0
    9.9004    8.4486    3.6237 H   0  0  0  0  0  0  0  0  0  0  0  0
   11.5013   13.5873    6.4709 C   0  0  0  0  0  0  0  0  0  0  0  0
   10.9282   14.3820    6.4863 H   0  0  0  0  0  0  0  0  0  0  0  0
   12.0364   13.5858    5.6502 H   0  0  0  0  0  0  0  0  0  0  0  0
   12.0970   13.5993    7.2493 H   0  0  0  0  0  0  0  0  0  0  0  0
    9.3453   12.5121    7.8929 C   0  0  0  0  0  0  0  0  0  0  0  0
    9.8717   12.7418    8.6863 H   0  0  0  0  0  0  0  0  0  0  0  0
    8.7707   11.7440    8.0920 H   0  0  0  0  0  0  0  0  0  0  0  0
    8.7898   13.2779    7.6361 H   0  0  0  0  0  0  0  0  0  0  0  0
    9.3193   12.4005    5.1381 C   0  0  0  0  0  0  0  0  0  0  0  0
    8.9042   13.2813    5.2480 H   0  0  0  0  0  0  0  0  0  0  0  0
    8.6234   11.7102    5.1301 H   0  0  0  0  0  0  0  0  0  0  0  0
    9.8140   12.3753    4.2927 H   0  0  0  0  0  0  0  0  0  0  0  0
   11.4310   10.9079   10.0102 C   0  0  0  0  0  0  0  0  0  0  0  0
   10.4781   11.1288   10.0711 H   0  0  0  0  0  0  0  0  0  0  0  0
   11.9295   11.6919    9.7001 H   0  0  0  0  0  0  0  0  0  0  0  0
   11.7606   10.6393   10.8936 H   0  0  0  0  0  0  0  0  0  0  0  0
   13.2250    8.8412    9.4728 C   0  0  0  0  0  0  0  0  0  0  0  0
   13.9530    9.4789    9.3219 H   0  0  0  0  0  0  0  0  0  0  0  0
   13.4235    8.0021    9.0061 H   0  0  0  0  0  0  0  0  0  0  0  0
   13.1370    8.6667   10.4335 H   0  0  0  0  0  0  0  0  0  0  0  0
   10.4887    8.2936    9.4512 C   0  0  0  0  0  0  0  0  0  0  0  0
   10.5937    8.1985   10.4209 H   0  0  0  0  0  0  0  0  0  0  0  0
   10.6667    7.4336    9.0170 H   0  0  0  0  0  0  0  0  0  0  0  0
    9.5736    8.5795    9.2481 H   0  0  0  0  0  0  0  0  0  0  0  0
   13.3893   10.5943    6.6114 B   0  0  0  0  0  0  0  0  0  0  0  0
   12.2379    7.9826    6.4966 B   0  0  0  0  0  0  0  0  0  0  0  0
   13.8858   11.3873    7.6476 O   0  0  0  0  0  0  0  0  0  0  0  0
   14.3750   10.3928    5.6642 O   0  0  0  0  0  0  0  0  0  0  0  0
   13.5876    7.5717    6.5286 O   0  0  0  0  0  0  0  0  0  0  0  0
   11.4289    6.8170    6.4576 O   0  0  0  0  0  0  0  0  0  0  0  0
   11.7219    9.7638    4.2409 P   0  0  0  0  0  0  0  0  0  0  0  0
   10.4658   12.0914    6.5232 P   0  0  0  0  0  0  0  0  0  0  0  0
   11.6620    9.5374    8.8349 P   0  0  0  0  0  0  0  0  0  0  0  0
    9.0308    9.1878    6.5194 Cl  0  0  0  0  0  0  0  0  0  0  0  0
   11.4988    9.8986    6.5428 Rh  0  0  0  0  0  0  0  0  0  0  0  0
  1  2  1  0  0  0  0
  2 11  1  0  0  0  0
  3  1  1  0  0  0  0
  4  3  1  0  0  0  0
  5  3  1  0  0  0  0
  6  3  1  0  0  0  0
  7  1  1  0  0  0  0
  8  7  1  0  0  0  0
  9  7  1  0  0  0  0
 10  7  1  0  0  0  0
 11 12  1  0  0  0  0
 13 11  1  0  0  0  0
 14 11  1  0  0  0  0
 15  2  1  0  0  0  0
 16 15  1  0  0  0  0
 17 15  1  0  0  0  0
 18 15  1  0  0  0  0
 19 20  4  0  0  0  0
 20 21  4  0  0  0  0
 21 22  1  0  0  0  0
 23 21  4  0  0  0  0
 24 23  1  0  0  0  0
 25 23  4  0  0  0  0
 26 25  1  0  0  0  0
 27 19  4  0  0  0  0
 28 27  1  0  0  0  0
 29 30  1  0  0  0  0
 31 29  1  0  0  0  0
 32 29  1  0  0  0  0
 33 34  1  0  0  0  0
 35 33  1  0  0  0  0
 36 33  1  0  0  0  0
 37 38  1  0  0  0  0
 39 37  1  0  0  0  0
 40 37  1  0  0  0  0
 41 42  1  0  0  0  0
 43 41  1  0  0  0  0
 44 41  1  0  0  0  0
 45 46  1  0  0  0  0
 47 45  1  0  0  0  0
 48 45  1  0  0  0  0
 49 50  1  0  0  0  0
 51 49  1  0  0  0  0
 52 49  1  0  0  0  0
 53 54  1  0  0  0  0
 55 53  1  0  0  0  0
 56 53  1  0  0  0  0
 57 58  1  0  0  0  0
 59 57  1  0  0  0  0
 60 57  1  0  0  0  0
 61 62  1  0  0  0  0
 63 61  1  0  0  0  0
 64 61  1  0  0  0  0
 65 67  1  0  0  0  0
 66 69  1  0  0  0  0
 67  1  1  0  0  0  0
 68  2  1  0  0  0  0
 69 19  1  0  0  0  0
 70 20  1  0  0  0  0
 71 29  1  0  0  0  0
 72 41  1  0  0  0  0
 73 53  1  0  0  0  0
 74 75  1  0  0  0  0
 75 65  1  0  0  0  0
 25 27  4  0  0  0  0
 33 71  1  0  0  0  0
 37 71  1  0  0  0  0
 45 72  1  0  0  0  0
 49 72  1  0  0  0  0
 57 73  1  0  0  0  0
 61 73  1  0  0  0  0
 65 68  1  0  0  0  0
 66 70  1  0  0  0  0
 66 75  1  0  0  0  0
 71 75  1  0  0  0  0
 72 75  1  0  0  0  0
 73 75  1  0  0  0  0
M  END
$$$$
CEGREM

From CSD data. Using bond type 'Any'. No disordered atoms. Largest molecule.
 80 87  0  0  0  0  0  0  0  0999 V2000
    3.6063   11.2517    4.0718 Pt  0  0  0  0  0  0  0  0  0  0  0  0
    5.2672    9.9916    3.3246 P   0  0  0  0  0  0  0  0  0  0  0  0
    3.7316   10.0760    5.9434 P   0  0  0  0  0  0  0  0  0  0  0  0
    3.5519   12.3295    2.3379 O   0  0  0  0  0  0  0  0  0  0  0  0
    2.0502   12.3104    4.8382 O   0  0  0  0  0  0  0  0  0  0  0  0
    1.7622   13.8310    2.9839 O   0  0  0  0  0  0  0  0  0  0  0  0
    2.9204   14.2210    0.7853 C   0  0  0  0  0  0  0  0  0  0  0  0
    4.0075   13.9692   -0.0779 C   0  0  0  0  0  0  0  0  0  0  0  0
    4.1595   14.6863   -1.2558 C   0  0  0  0  0  0  0  0  0  0  0  0
    3.2498   15.6598   -1.6014 C   0  0  0  0  0  0  0  0  0  0  0  0
    2.1643   15.8963   -0.7884 C   0  0  0  0  0  0  0  0  0  0  0  0
    2.0185   15.1869    0.3987 C   0  0  0  0  0  0  0  0  0  0  0  0
    0.1675   13.9554    4.9517 C   0  0  0  0  0  0  0  0  0  0  0  0
   -0.6088   14.9458    4.3408 C   0  0  0  0  0  0  0  0  0  0  0  0
   -1.6585   15.5554    5.0224 C   0  0  0  0  0  0  0  0  0  0  0  0
   -1.9439   15.1961    6.3284 C   0  0  0  0  0  0  0  0  0  0  0  0
   -1.1943   14.2149    6.9473 C   0  0  0  0  0  0  0  0  0  0  0  0
   -0.1589   13.5914    6.2588 C   0  0  0  0  0  0  0  0  0  0  0  0
    5.5948    8.6637    4.5488 C   0  0  0  0  0  0  0  0  0  0  0  0
    5.3399    9.2027    5.9633 C   0  0  0  0  0  0  0  0  0  0  0  0
    6.8393   10.8581    3.0799 C   0  0  0  0  0  0  0  0  0  0  0  0
    7.8663   10.7752    3.9968 C   0  0  0  0  0  0  0  0  0  0  0  0
    9.0484   11.4646    3.7875 C   0  0  0  0  0  0  0  0  0  0  0  0
    9.2044   12.2232    2.6548 C   0  0  0  0  0  0  0  0  0  0  0  0
    8.1795   12.3246    1.7460 C   0  0  0  0  0  0  0  0  0  0  0  0
    6.9971   11.6443    1.9499 C   0  0  0  0  0  0  0  0  0  0  0  0
    5.0379    9.1367    1.7431 C   0  0  0  0  0  0  0  0  0  0  0  0
    5.9717    8.1892    1.3265 C   0  0  0  0  0  0  0  0  0  0  0  0
    5.8172    7.5566    0.1097 C   0  0  0  0  0  0  0  0  0  0  0  0
    4.7629    7.8576   -0.6984 C   0  0  0  0  0  0  0  0  0  0  0  0
    3.8294    8.7820   -0.2977 C   0  0  0  0  0  0  0  0  0  0  0  0
    3.9768    9.4254    0.9343 C   0  0  0  0  0  0  0  0  0  0  0  0
    3.7183   10.9809    7.5183 C   0  0  0  0  0  0  0  0  0  0  0  0
    3.8214   10.2869    8.6958 C   0  0  0  0  0  0  0  0  0  0  0  0
    3.9409   10.9871    9.9173 C   0  0  0  0  0  0  0  0  0  0  0  0
    3.8733   12.3415    9.9332 C   0  0  0  0  0  0  0  0  0  0  0  0
    3.7458   13.0294    8.7569 C   0  0  0  0  0  0  0  0  0  0  0  0
    3.6621   12.3553    7.5468 C   0  0  0  0  0  0  0  0  0  0  0  0
    2.4587    8.7881    6.0427 C   0  0  0  0  0  0  0  0  0  0  0  0
    1.2641    8.9908    5.3690 C   0  0  0  0  0  0  0  0  0  0  0  0
    0.2633    8.0280    5.4104 C   0  0  0  0  0  0  0  0  0  0  0  0
    0.4442    6.8748    6.1312 C   0  0  0  0  0  0  0  0  0  0  0  0
    1.6271    6.6660    6.8139 C   0  0  0  0  0  0  0  0  0  0  0  0
    2.6448    7.6088    6.7579 C   0  0  0  0  0  0  0  0  0  0  0  0
    2.7674   13.3718    2.1274 B   0  0  0  0  0  0  0  0  0  0  0  0
    1.4088   13.2874    4.2168 B   0  0  0  0  0  0  0  0  0  0  0  0
    4.6230   13.2782    0.1410 H   0  0  0  0  0  0  0  0  0  0  0  0
    4.9109   14.5174   -1.8154 H   0  0  0  0  0  0  0  0  0  0  0  0
    3.3606   16.1543   -2.4064 H   0  0  0  0  0  0  0  0  0  0  0  0
    1.5301   16.5597   -1.0297 H   0  0  0  0  0  0  0  0  0  0  0  0
    1.2663   15.3665    0.9491 H   0  0  0  0  0  0  0  0  0  0  0  0
   -0.4106   15.2099    3.4495 H   0  0  0  0  0  0  0  0  0  0  0  0
   -2.1849   16.2188    4.5889 H   0  0  0  0  0  0  0  0  0  0  0  0
   -2.6549   15.6153    6.7960 H   0  0  0  0  0  0  0  0  0  0  0  0
   -1.3838   13.9722    7.8458 H   0  0  0  0  0  0  0  0  0  0  0  0
    0.3349   12.9035    6.6908 H   0  0  0  0  0  0  0  0  0  0  0  0
    5.0131    7.9297    4.3829 H   0  0  0  0  0  0  0  0  0  0  0  0
    6.4988    8.3751    4.4725 H   0  0  0  0  0  0  0  0  0  0  0  0
    6.0332    9.8062    6.2050 H   0  0  0  0  0  0  0  0  0  0  0  0
    5.3127    8.4872    6.5878 H   0  0  0  0  0  0  0  0  0  0  0  0
    7.7615   10.2392    4.7746 H   0  0  0  0  0  0  0  0  0  0  0  0
    9.7499   11.4094    4.4254 H   0  0  0  0  0  0  0  0  0  0  0  0
   10.0168   12.6916    2.5004 H   0  0  0  0  0  0  0  0  0  0  0  0
    8.2850   12.8574    0.9670 H   0  0  0  0  0  0  0  0  0  0  0  0
    6.2832   11.7211    1.3274 H   0  0  0  0  0  0  0  0  0  0  0  0
    6.7141    7.9789    1.8825 H   0  0  0  0  0  0  0  0  0  0  0  0
    6.4495    6.8963   -0.1545 H   0  0  0  0  0  0  0  0  0  0  0  0
    4.6837    7.4307   -1.5423 H   0  0  0  0  0  0  0  0  0  0  0  0
    3.0895    8.9877   -0.8573 H   0  0  0  0  0  0  0  0  0  0  0  0
    3.3331   10.0673    1.2065 H   0  0  0  0  0  0  0  0  0  0  0  0
    3.8536    9.3379    8.6897 H   0  0  0  0  0  0  0  0  0  0  0  0
    4.0087   10.4988   10.7290 H   0  0  0  0  0  0  0  0  0  0  0  0
    3.9427   12.8021   10.7603 H   0  0  0  0  0  0  0  0  0  0  0  0
    3.7038   13.9784    8.7748 H   0  0  0  0  0  0  0  0  0  0  0  0
    3.5923   12.8482    6.7378 H   0  0  0  0  0  0  0  0  0  0  0  0
    1.1333    9.7863    4.8687 H   0  0  0  0  0  0  0  0  0  0  0  0
   -0.5529    8.1678    4.9448 H   0  0  0  0  0  0  0  0  0  0  0  0
   -0.2504    6.2283    6.1737 H   0  0  0  0  0  0  0  0  0  0  0  0
    1.7577    5.8567    7.2929 H   0  0  0  0  0  0  0  0  0  0  0  0
    3.4529    7.4737    7.2392 H   0  0  0  0  0  0  0  0  0  0  0  0
  1  2  1  0  0  0  0
  2 19  1  0  0  0  0
  3  1  1  0  0  0  0
  4  1  1  0  0  0  0
  5  1  1  0  0  0  0
  6 45  1  0  0  0  0
  7  8  4  0  0  0  0
  8  9  4  0  0  0  0
  9 10  4  0  0  0  0
 10 11  4  0  0  0  0
 11 12  4  0  0  0  0
 12  7  4  0  0  0  0
 13 14  4  0  0  0  0
 14 15  4  0  0  0  0
 15 16  4  0  0  0  0
 16 17  4  0  0  0  0
 17 18  4  0  0  0  0
 18 13  4  0  0  0  0
 19 20  1  0  0  0  0
 20  3  1  0  0  0  0
 21  2  1  0  0  0  0
 22 21  4  0  0  0  0
 23 22  4  0  0  0  0
 24 23  4  0  0  0  0
 25 24  4  0  0  0  0
 26 21  4  0  0  0  0
 27  2  1  0  0  0  0
 28 27  4  0  0  0  0
 29 28  4  0  0  0  0
 30 29  4  0  0  0  0
 31 30  4  0  0  0  0
 32 27  4  0  0  0  0
 33  3  1  0  0  0  0
 34 33  4  0  0  0  0
 35 34  4  0  0  0  0
 36 35  4  0  0  0  0
 37 36  4  0  0  0  0
 38 33  4  0  0  0  0
 39  3  1  0  0  0  0
 40 39  4  0  0  0  0
 41 40  4  0  0  0  0
 42 41  4  0  0  0  0
 43 42  4  0  0  0  0
 44 39  4  0  0  0  0
 45  4  1  0  0  0  0
 46  5  1  0  0  0  0
 47  8  1  0  0  0  0
 48  9  1  0  0  0  0
 49 10  1  0  0  0  0
 50 11  1  0  0  0  0
 51 12  1  0  0  0  0
 52 14  1  0  0  0  0
 53 15  1  0  0  0  0
 54 16  1  0  0  0  0
 55 17  1  0  0  0  0
 56 18  1  0  0  0  0
 57 19  1  0  0  0  0
 58 19  1  0  0  0  0
 59 20  1  0  0  0  0
 60 20  1  0  0  0  0
 61 22  1  0  0  0  0
 62 23  1  0  0  0  0
 63 24  1  0  0  0  0
 64 25  1  0  0  0  0
 65 26  1  0  0  0  0
 66 28  1  0  0  0  0
 67 29  1  0  0  0  0
 68 30  1  0  0  0  0
 69 31  1  0  0  0  0
 70 32  1  0  0  0  0
 71 34  1  0  0  0  0
 72 35  1  0  0  0  0
 73 36  1  0  0  0  0
 74 37  1  0  0  0  0
 75 38  1  0  0  0  0
 76 40  1  0  0  0  0
 77 41  1  0  0  0  0
 78 42  1  0  0  0  0
 79 43  1  0  0  0  0
 80 44  1  0  0  0  0
  6 46  1  0  0  0  0
  7 45  1  0  0  0  0
 13 46  1  0  0  0  0
 25 26  4  0  0  0  0
 31 32  4  0  0  0  0
 37 38  4  0  0  0  0
 43 44  4  0  0  0  0
M  END
$$$$
CEHCUN

From CSD data. Using bond type 'Any'. No disordered atoms. Largest molecule.
129157  0  0  0  0  0  0  0  0999 V2000
   -1.3817    5.4966   13.3426 Rh  0  0  0  0  0  0  0  0  0  0  0  0
   -0.3710    3.3233   14.8769 Ru  0  0  0  0  0  0  0  0  0  0  0  0
   -0.6595    1.9918   12.9872 P   0  0  0  0  0  0  0  0  0  0  0  0
   -1.7954    2.0615   16.2825 P   0  0  0  0  0  0  0  0  0  0  0  0
   -1.3235    7.4694   12.2823 P   0  0  0  0  0  0  0  0  0  0  0  0
   -4.3142    5.5198   13.3263 O   0  0  0  0  0  0  0  0  0  0  0  0
   -3.1967    5.4712   13.3059 C   0  0  0  0  0  0  0  0  0  0  0  0
    1.7164    2.9772   15.7023 C   0  0  0  0  0  0  0  0  0  0  0  0
    0.8444    3.9183   16.6686 C   0  0  0  0  0  0  0  0  0  0  0  0
    1.7083    3.5427   14.1476 B   0  0  0  0  0  0  0  0  0  0  0  0
    3.1473    3.7474   15.1956 B   0  0  0  0  0  0  0  0  0  0  0  0
    2.5688    3.9309   16.8320 B   0  0  0  0  0  0  0  0  0  0  0  0
    0.1827    5.2919   15.8820 B   0  0  0  0  0  0  0  0  0  0  0  0
    0.7929    5.0978   14.1905 B   0  0  0  0  0  0  0  0  0  0  0  0
    2.5770    5.1357   14.2375 B   0  0  0  0  0  0  0  0  0  0  0  0
    3.0849    5.3657   15.9168 B   0  0  0  0  0  0  0  0  0  0  0  0
    1.6318    5.4501   16.9301 B   0  0  0  0  0  0  0  0  0  0  0  0
    1.6188    6.1886   15.3284 B   0  0  0  0  0  0  0  0  0  0  0  0
   -0.7085    2.8949   11.3691 C   0  0  0  0  0  0  0  0  0  0  0  0
    0.3302    3.7326   10.9891 C   0  0  0  0  0  0  0  0  0  0  0  0
    0.3297    4.3909    9.7838 C   0  0  0  0  0  0  0  0  0  0  0  0
   -0.7333    4.2580    8.9155 C   0  0  0  0  0  0  0  0  0  0  0  0
   -1.7440    3.4224    9.2690 C   0  0  0  0  0  0  0  0  0  0  0  0
   -1.7507    2.7472   10.4559 C   0  0  0  0  0  0  0  0  0  0  0  0
    0.6858    0.7765   12.7236 C   0  0  0  0  0  0  0  0  0  0  0  0
    1.3003    0.5549   11.4958 C   0  0  0  0  0  0  0  0  0  0  0  0
    2.3141   -0.3692   11.3528 C   0  0  0  0  0  0  0  0  0  0  0  0
    2.7216   -1.1099   12.4437 C   0  0  0  0  0  0  0  0  0  0  0  0
    2.1151   -0.9073   13.6613 C   0  0  0  0  0  0  0  0  0  0  0  0
    1.1281    0.0232   13.7921 C   0  0  0  0  0  0  0  0  0  0  0  0
   -2.1522    0.9242   12.8176 C   0  0  0  0  0  0  0  0  0  0  0  0
   -3.3971    1.5065   12.9238 C   0  0  0  0  0  0  0  0  0  0  0  0
   -4.5568    0.7469   12.8094 C   0  0  0  0  0  0  0  0  0  0  0  0
   -4.4437   -0.5929   12.6174 C   0  0  0  0  0  0  0  0  0  0  0  0
   -3.2156   -1.2027   12.5071 C   0  0  0  0  0  0  0  0  0  0  0  0
   -2.0632   -0.4452   12.5867 C   0  0  0  0  0  0  0  0  0  0  0  0
   -1.1745    0.3545   16.5072 C   0  0  0  0  0  0  0  0  0  0  0  0
   -1.6614   -0.7723   15.8494 C   0  0  0  0  0  0  0  0  0  0  0  0
   -0.9921   -1.9855   15.9372 C   0  0  0  0  0  0  0  0  0  0  0  0
    0.1331   -2.0994   16.6747 C   0  0  0  0  0  0  0  0  0  0  0  0
    0.6469   -1.0044   17.3366 C   0  0  0  0  0  0  0  0  0  0  0  0
    0.0029    0.2110   17.2570 C   0  0  0  0  0  0  0  0  0  0  0  0
   -3.6275    1.9475   16.0128 C   0  0  0  0  0  0  0  0  0  0  0  0
   -4.2432    3.1312   15.5981 C   0  0  0  0  0  0  0  0  0  0  0  0
   -5.6075    3.1629   15.3856 C   0  0  0  0  0  0  0  0  0  0  0  0
   -6.3411    2.0277   15.5797 C   0  0  0  0  0  0  0  0  0  0  0  0
   -5.7679    0.8925   16.0577 C   0  0  0  0  0  0  0  0  0  0  0  0
   -4.4013    0.8377   16.2947 C   0  0  0  0  0  0  0  0  0  0  0  0
   -1.9269    2.5974   18.0558 C   0  0  0  0  0  0  0  0  0  0  0  0
   -2.1494    1.7049   19.0875 C   0  0  0  0  0  0  0  0  0  0  0  0
   -2.3087    2.1269   20.3684 C   0  0  0  0  0  0  0  0  0  0  0  0
   -2.2571    3.4625   20.6728 C   0  0  0  0  0  0  0  0  0  0  0  0
   -2.0973    4.3719   19.6697 C   0  0  0  0  0  0  0  0  0  0  0  0
   -1.9309    3.9373   18.3724 C   0  0  0  0  0  0  0  0  0  0  0  0
   -2.8541    8.0792   11.4958 C   0  0  0  0  0  0  0  0  0  0  0  0
   -3.2231    9.4043   11.5673 C   0  0  0  0  0  0  0  0  0  0  0  0
   -4.3994    9.8242   10.9646 C   0  0  0  0  0  0  0  0  0  0  0  0
   -5.1954    8.9464   10.3109 C   0  0  0  0  0  0  0  0  0  0  0  0
   -4.8149    7.6255   10.2046 C   0  0  0  0  0  0  0  0  0  0  0  0
   -3.6438    7.1782   10.7828 C   0  0  0  0  0  0  0  0  0  0  0  0
   -0.8506    8.7924   13.4346 C   0  0  0  0  0  0  0  0  0  0  0  0
   -0.1633    9.9465   13.0484 C   0  0  0  0  0  0  0  0  0  0  0  0
    0.1625   10.9150   13.9943 C   0  0  0  0  0  0  0  0  0  0  0  0
   -0.1596   10.7294   15.2998 C   0  0  0  0  0  0  0  0  0  0  0  0
   -0.8620    9.6258   15.7125 C   0  0  0  0  0  0  0  0  0  0  0  0
   -1.1840    8.6447   14.7727 C   0  0  0  0  0  0  0  0  0  0  0  0
   -0.1069    7.6382   10.9421 C   0  0  0  0  0  0  0  0  0  0  0  0
    1.2618    7.4525   11.2425 C   0  0  0  0  0  0  0  0  0  0  0  0
    2.1936    7.5158   10.2659 C   0  0  0  0  0  0  0  0  0  0  0  0
    1.8452    7.7353    8.9584 C   0  0  0  0  0  0  0  0  0  0  0  0
    0.5232    7.9020    8.6663 C   0  0  0  0  0  0  0  0  0  0  0  0
   -0.4617    7.8387    9.6265 C   0  0  0  0  0  0  0  0  0  0  0  0
   -1.8536    4.2052   14.1190 H   0  0  0  0  0  0  0  0  0  0  0  0
    1.8194    2.1670   15.7962 H   0  0  0  0  0  0  0  0  0  0  0  0
    0.4123    3.4710   17.4327 H   0  0  0  0  0  0  0  0  0  0  0  0
    1.9534    2.9160   13.3508 H   0  0  0  0  0  0  0  0  0  0  0  0
    4.0947    3.1460   14.9872 H   0  0  0  0  0  0  0  0  0  0  0  0
    3.0816    3.4351   17.6676 H   0  0  0  0  0  0  0  0  0  0  0  0
   -0.6738    5.8531   16.3887 H   0  0  0  0  0  0  0  0  0  0  0  0
    0.1245    5.7329   13.2732 H   0  0  0  0  0  0  0  0  0  0  0  0
    3.2159    5.4586   13.3304 H   0  0  0  0  0  0  0  0  0  0  0  0
    4.0322    5.7413   16.1721 H   0  0  0  0  0  0  0  0  0  0  0  0
    1.5390    5.9059   17.9209 H   0  0  0  0  0  0  0  0  0  0  0  0
    1.5237    7.2879   15.2079 H   0  0  0  0  0  0  0  0  0  0  0  0
    0.9449    3.7938   11.4692 H   0  0  0  0  0  0  0  0  0  0  0  0
    1.1697    4.9437    9.5897 H   0  0  0  0  0  0  0  0  0  0  0  0
   -0.7361    4.7623    8.1678 H   0  0  0  0  0  0  0  0  0  0  0  0
   -2.3404    3.4034    8.8297 H   0  0  0  0  0  0  0  0  0  0  0  0
   -2.3630    2.1016   10.5887 H   0  0  0  0  0  0  0  0  0  0  0  0
    1.0811    1.0044   10.7950 H   0  0  0  0  0  0  0  0  0  0  0  0
    2.8858   -0.5486   10.4784 H   0  0  0  0  0  0  0  0  0  0  0  0
    3.3539   -1.6416   12.4029 H   0  0  0  0  0  0  0  0  0  0  0  0
    2.3942   -1.3820   14.3845 H   0  0  0  0  0  0  0  0  0  0  0  0
    0.7640    0.2110   14.6031 H   0  0  0  0  0  0  0  0  0  0  0  0
   -3.5653    2.3949   13.1036 H   0  0  0  0  0  0  0  0  0  0  0  0
   -5.3209    1.1120   12.8646 H   0  0  0  0  0  0  0  0  0  0  0  0
   -5.1472   -1.0381   12.5806 H   0  0  0  0  0  0  0  0  0  0  0  0
   -3.2411   -2.0657   12.4131 H   0  0  0  0  0  0  0  0  0  0  0  0
   -1.1338   -0.9242   12.4764 H   0  0  0  0  0  0  0  0  0  0  0  0
   -2.3519   -0.7047   15.3836 H   0  0  0  0  0  0  0  0  0  0  0  0
   -1.3465   -2.6037   15.4346 H   0  0  0  0  0  0  0  0  0  0  0  0
    0.7074   -2.8295   16.7646 H   0  0  0  0  0  0  0  0  0  0  0  0
    1.4237   -1.1879   17.8719 H   0  0  0  0  0  0  0  0  0  0  0  0
    0.4054    0.8145   17.6431 H   0  0  0  0  0  0  0  0  0  0  0  0
   -3.7460    3.8550   15.2916 H   0  0  0  0  0  0  0  0  0  0  0  0
   -5.9424    3.9288   14.9443 H   0  0  0  0  0  0  0  0  0  0  0  0
   -7.1778    2.2303   15.4305 H   0  0  0  0  0  0  0  0  0  0  0  0
   -6.1384    0.0633   16.2355 H   0  0  0  0  0  0  0  0  0  0  0  0
   -3.9652    0.1139   16.4786 H   0  0  0  0  0  0  0  0  0  0  0  0
   -2.2049    0.9136   18.9036 H   0  0  0  0  0  0  0  0  0  0  0  0
   -2.4652    1.6078   20.9384 H   0  0  0  0  0  0  0  0  0  0  0  0
   -2.3226    3.7242   21.5206 H   0  0  0  0  0  0  0  0  0  0  0  0
   -2.0680    5.1906   19.7698 H   0  0  0  0  0  0  0  0  0  0  0  0
   -1.8571    4.3846   17.9557 H   0  0  0  0  0  0  0  0  0  0  0  0
   -2.6298   10.0647   11.9207 H   0  0  0  0  0  0  0  0  0  0  0  0
   -4.6506   10.7610   10.9626 H   0  0  0  0  0  0  0  0  0  0  0  0
   -6.1375    9.0836    9.9554 H   0  0  0  0  0  0  0  0  0  0  0  0
   -5.2346    7.0601    9.8001 H   0  0  0  0  0  0  0  0  0  0  0  0
   -3.3107    6.2773   10.7297 H   0  0  0  0  0  0  0  0  0  0  0  0
    0.1224   10.0162   12.1414 H   0  0  0  0  0  0  0  0  0  0  0  0
    0.5846   11.5290   13.6572 H   0  0  0  0  0  0  0  0  0  0  0  0
   -0.1217   11.3898   16.0414 H   0  0  0  0  0  0  0  0  0  0  0  0
   -1.1284    9.4655   16.6298 H   0  0  0  0  0  0  0  0  0  0  0  0
   -1.6208    7.8998   15.0608 H   0  0  0  0  0  0  0  0  0  0  0  0
    1.3753    7.3428   12.0086 H   0  0  0  0  0  0  0  0  0  0  0  0
    3.1004    7.3871   10.5417 H   0  0  0  0  0  0  0  0  0  0  0  0
    2.4995    7.6677    8.3598 H   0  0  0  0  0  0  0  0  0  0  0  0
    0.3178    7.9526    8.0084 H   0  0  0  0  0  0  0  0  0  0  0  0
   -1.3644    7.9885    9.4058 H   0  0  0  0  0  0  0  0  0  0  0  0
  1  5  1  0  0  0  0
  2  3  1  0  0  0  0
  3 19  1  0  0  0  0
  4  2  1  0  0  0  0
  5 55  1  0  0  0  0
  6  7  3  0  0  0  0
  7  1  1  0  0  0  0
  8  2  1  0  0  0  0
  9  2  1  0  0  0  0
 10  2  1  0  0  0  0
 11  8  1  0  0  0  0
 12  8  1  0  0  0  0
 13  2  1  0  0  0  0
 14  2  1  0  0  0  0
 15 10  1  0  0  0  0
 16 11  1  0  0  0  0
 17  9  1  0  0  0  0
 18 13  1  0  0  0  0
 19 20  4  0  0  0  0
 20 21  4  0  0  0  0
 21 22  4  0  0  0  0
 22 23  4  0  0  0  0
 23 24  4  0  0  0  0
 24 19  4  0  0  0  0
 25  3  1  0  0  0  0
 26 25  4  0  0  0  0
 27 26  4  0  0  0  0
 28 27  4  0  0  0  0
 29 28  4  0  0  0  0
 30 25  4  0  0  0  0
 31  3  1  0  0  0  0
 32 31  4  0  0  0  0
 33 32  4  0  0  0  0
 34 33  4  0  0  0  0
 35 34  4  0  0  0  0
 36 31  4  0  0  0  0
 37  4  1  0  0  0  0
 38 37  4  0  0  0  0
 39 38  4  0  0  0  0
 40 39  4  0  0  0  0
 41 40  4  0  0  0  0
 42 37  4  0  0  0  0
 43  4  1  0  0  0  0
 44 43  4  0  0  0  0
 45 44  4  0  0  0  0
 46 45  4  0  0  0  0
 47 46  4  0  0  0  0
 48 43  4  0  0  0  0
 49  4  1  0  0  0  0
 50 49  4  0  0  0  0
 51 50  4  0  0  0  0
 52 51  4  0  0  0  0
 53 52  4  0  0  0  0
 54 49  4  0  0  0  0
 55 56  4  0  0  0  0
 56 57  4  0  0  0  0
 57 58  4  0  0  0  0
 58 59  4  0  0  0  0
 59 60  4  0  0  0  0
 60 55  4  0  0  0  0
 61  5  1  0  0  0  0
 62 61  4  0  0  0  0
 63 62  4  0  0  0  0
 64 63  4  0  0  0  0
 65 64  4  0  0  0  0
 66 61  4  0  0  0  0
 67  5  1  0  0  0  0
 68 67  4  0  0  0  0
 69 68  4  0  0  0  0
 70 69  4  0  0  0  0
 71 70  4  0  0  0  0
 72 67  4  0  0  0  0
 73  1  1  0  0  0  0
 74  8  1  0  0  0  0
 75  9  1  0  0  0  0
 76 10  1  0  0  0  0
 77 11  1  0  0  0  0
 78 12  1  0  0  0  0
 79 13  1  0  0  0  0
 80  1  1  0  0  0  0
 81 15  1  0  0  0  0
 82 16  1  0  0  0  0
 83 17  1  0  0  0  0
 84 18  1  0  0  0  0
 85 20  1  0  0  0  0
 86 21  1  0  0  0  0
 87 22  1  0  0  0  0
 88 23  1  0  0  0  0
 89 24  1  0  0  0  0
 90 26  1  0  0  0  0
 91 27  1  0  0  0  0
 92 28  1  0  0  0  0
 93 29  1  0  0  0  0
 94 30  1  0  0  0  0
 95 32  1  0  0  0  0
 96 33  1  0  0  0  0
 97 34  1  0  0  0  0
 98 35  1  0  0  0  0
 99 36  1  0  0  0  0
100 38  1  0  0  0  0
101 39  1  0  0  0  0
102 40  1  0  0  0  0
103 41  1  0  0  0  0
104 42  1  0  0  0  0
105 44  1  0  0  0  0
106 45  1  0  0  0  0
107 46  1  0  0  0  0
108 47  1  0  0  0  0
109 48  1  0  0  0  0
110 50  1  0  0  0  0
111 51  1  0  0  0  0
112 52  1  0  0  0  0
113 53  1  0  0  0  0
114 54  1  0  0  0  0
115 56  1  0  0  0  0
116 57  1  0  0  0  0
117 58  1  0  0  0  0
118 59  1  0  0  0  0
119 60  1  0  0  0  0
120 62  1  0  0  0  0
121 63  1  0  0  0  0
122 64  1  0  0  0  0
123 65  1  0  0  0  0
124 66  1  0  0  0  0
125 68  1  0  0  0  0
126 69  1  0  0  0  0
127 70  1  0  0  0  0
128 71  1  0  0  0  0
129 72  1  0  0  0  0
  2 73  1  0  0  0  0
  8  9  1  0  0  0  0
  8 10  1  0  0  0  0
  9 12  1  0  0  0  0
  9 13  1  0  0  0  0
 10 11  1  0  0  0  0
 10 14  1  0  0  0  0
 11 12  1  0  0  0  0
 11 15  1  0  0  0  0
 12 16  1  0  0  0  0
 12 17  1  0  0  0  0
 13 14  1  0  0  0  0
 13 17  1  0  0  0  0
 14 15  1  0  0  0  0
 14 18  1  0  0  0  0
 14 80  1  0  0  0  0
 15 16  1  0  0  0  0
 15 18  1  0  0  0  0
 16 17  1  0  0  0  0
 16 18  1  0  0  0  0
 17 18  1  0  0  0  0
 29 30  4  0  0  0  0
 35 36  4  0  0  0  0
 41 42  4  0  0  0  0
 47 48  4  0  0  0  0
 53 54  4  0  0  0  0
 65 66  4  0  0  0  0
 71 72  4  0  0  0  0
M  END
$$$$
CEHKAD

From CSD data. Using bond type 'Any'. No disordered atoms. Largest molecule.
 52 54  0  0  0  0  0  0  0  0999 V2000
    3.9075    6.2662    4.2149 P   0  0  0  0  0  0  0  0  0  0  0  0
    6.4478    6.6512    7.4538 C   0  0  0  0  0  0  0  0  0  0  0  0
    6.6874    6.1693    8.2366 H   0  0  0  0  0  0  0  0  0  0  0  0
    5.1716    6.8197    5.3989 C   0  0  0  0  0  0  0  0  0  0  0  0
    5.4990    6.1231    6.5698 C   0  0  0  0  0  0  0  0  0  0  0  0
    6.7358    8.5734    6.0230 C   0  0  0  0  0  0  0  0  0  0  0  0
    7.1557    9.4060    5.8430 H   0  0  0  0  0  0  0  0  0  0  0  0
    5.8128    8.0423    5.1235 C   0  0  0  0  0  0  0  0  0  0  0  0
    5.6155    8.5087    4.3193 H   0  0  0  0  0  0  0  0  0  0  0  0
    5.1684    4.1920    7.9627 C   0  0  0  0  0  0  0  0  0  0  0  0
    7.0356    7.8710    7.1882 C   0  0  0  0  0  0  0  0  0  0  0  0
    7.6540    8.2376    7.8090 H   0  0  0  0  0  0  0  0  0  0  0  0
    4.8396    4.9539    6.7902 O   0  0  0  0  0  0  0  0  0  0  0  0
    2.3339    6.3707    5.1416 C   0  0  0  0  0  0  0  0  0  0  0  0
    4.1092    4.4875    3.8868 C   0  0  0  0  0  0  0  0  0  0  0  0
    3.9257    7.2539    2.5794 B   0  0  0  0  0  0  0  0  0  0  0  0
    3.1188    6.8440    1.9241 H   0  0  0  0  0  0  0  0  0  0  0  0
    4.8710    7.0558    2.1954 H   0  0  0  0  0  0  0  0  0  0  0  0
    6.1071    3.9381    7.9677 H   0  0  0  0  0  0  0  0  0  0  0  0
    4.5911    3.4350    8.0006 H   0  0  0  0  0  0  0  0  0  0  0  0
    4.9822    4.7413    8.7406 H   0  0  0  0  0  0  0  0  0  0  0  0
    3.7671    8.3111    2.7381 H   0  0  0  0  0  0  0  0  0  0  0  0
    2.1725    7.3378    5.3858 H   0  0  0  0  0  0  0  0  0  0  0  0
    2.4269    5.8768    6.0354 H   0  0  0  0  0  0  0  0  0  0  0  0
    4.2188    3.9778    4.6540 H   0  0  0  0  0  0  0  0  0  0  0  0
    4.9103    4.3916    3.4288 H   0  0  0  0  0  0  0  0  0  0  0  0
    1.3326    4.0478    4.0077 P   0  0  0  0  0  0  0  0  0  0  0  0
   -1.2077    3.6627    0.7688 C   0  0  0  0  0  0  0  0  0  0  0  0
   -1.4473    4.1446   -0.0140 H   0  0  0  0  0  0  0  0  0  0  0  0
    0.0685    3.4942    2.8236 C   0  0  0  0  0  0  0  0  0  0  0  0
   -0.2589    4.1908    1.6527 C   0  0  0  0  0  0  0  0  0  0  0  0
   -1.4957    1.7406    2.1995 C   0  0  0  0  0  0  0  0  0  0  0  0
   -1.9156    0.9079    2.3796 H   0  0  0  0  0  0  0  0  0  0  0  0
   -0.5727    2.2716    3.0991 C   0  0  0  0  0  0  0  0  0  0  0  0
   -0.3754    1.8052    3.9033 H   0  0  0  0  0  0  0  0  0  0  0  0
    0.0717    6.1219    0.2598 C   0  0  0  0  0  0  0  0  0  0  0  0
   -1.7956    2.4429    1.0344 C   0  0  0  0  0  0  0  0  0  0  0  0
   -2.4139    2.0763    0.4136 H   0  0  0  0  0  0  0  0  0  0  0  0
    0.4005    5.3600    1.4324 O   0  0  0  0  0  0  0  0  0  0  0  0
    2.9062    3.9433    3.0810 C   0  0  0  0  0  0  0  0  0  0  0  0
    1.1309    5.8264    4.3358 C   0  0  0  0  0  0  0  0  0  0  0  0
    1.3144    3.0600    5.6432 B   0  0  0  0  0  0  0  0  0  0  0  0
    2.1213    3.4699    6.2985 H   0  0  0  0  0  0  0  0  0  0  0  0
    0.3691    3.2581    6.0272 H   0  0  0  0  0  0  0  0  0  0  0  0
   -0.8670    6.3758    0.2549 H   0  0  0  0  0  0  0  0  0  0  0  0
    0.6490    6.8789    0.2220 H   0  0  0  0  0  0  0  0  0  0  0  0
    0.2579    5.5726   -0.5180 H   0  0  0  0  0  0  0  0  0  0  0  0
    1.4730    2.0028    5.4845 H   0  0  0  0  0  0  0  0  0  0  0  0
    3.0676    2.9761    2.8368 H   0  0  0  0  0  0  0  0  0  0  0  0
    2.8132    4.4371    2.1872 H   0  0  0  0  0  0  0  0  0  0  0  0
    1.0213    6.3361    3.5686 H   0  0  0  0  0  0  0  0  0  0  0  0
    0.3298    5.9223    4.7938 H   0  0  0  0  0  0  0  0  0  0  0  0
  1  4  1  0  0  0  0
  2  3  1  0  0  0  0
  4  5  4  0  0  0  0
  5  2  4  0  0  0  0
  6  7  1  0  0  0  0
  8  4  4  0  0  0  0
  9  8  1  0  0  0  0
 10 13  1  0  0  0  0
 11  2  4  0  0  0  0
 12 11  1  0  0  0  0
 13  5  1  0  0  0  0
 14  1  1  0  0  0  0
 15  1  1  0  0  0  0
 16  1  1  0  0  0  0
 17 16  1  0  0  0  0
 18 16  1  0  0  0  0
 19 10  1  0  0  0  0
 20 10  1  0  0  0  0
 21 10  1  0  0  0  0
 22 16  1  0  0  0  0
 23 14  1  0  0  0  0
 24 14  1  0  0  0  0
 25 15  1  0  0  0  0
 26 15  1  0  0  0  0
 27 30  1  0  0  0  0
 28 29  1  0  0  0  0
 30 31  4  0  0  0  0
 31 28  4  0  0  0  0
 32 33  1  0  0  0  0
 34 30  4  0  0  0  0
 35 34  1  0  0  0  0
 36 39  1  0  0  0  0
 37 28  4  0  0  0  0
 38 37  1  0  0  0  0
 39 31  1  0  0  0  0
 40 15  1  0  0  0  0
 41 14  1  0  0  0  0
 42 27  1  0  0  0  0
 43 42  1  0  0  0  0
 44 42  1  0  0  0  0
 45 36  1  0  0  0  0
 46 36  1  0  0  0  0
 47 36  1  0  0  0  0
 48 42  1  0  0  0  0
 49 40  1  0  0  0  0
 50 40  1  0  0  0  0
 51 41  1  0  0  0  0
 52 41  1  0  0  0  0
  6  8  4  0  0  0  0
  6 11  4  0  0  0  0
 27 40  1  0  0  0  0
 27 41  1  0  0  0  0
 32 34  4  0  0  0  0
 32 37  4  0  0  0  0
M  END
$$$$
CEHWOB

From CSD data. Using bond type 'Any'. No disordered atoms. Largest molecule.
116161  0  0  0  0  0  0  0  0999 V2000
    0.0926    1.7534    1.6981 C   0  0  0  0  0  0  0  0  0  0  0  0
    0.1209    3.1469    2.4349 C   0  0  0  0  0  0  0  0  0  0  0  0
    1.6171    0.9987    1.7152 B   0  0  0  0  0  0  0  0  0  0  0  0
    0.9553    1.7733    0.2661 B   0  0  0  0  0  0  0  0  0  0  0  0
   -0.0387    3.1537    0.7122 B   0  0  0  0  0  0  0  0  0  0  0  0
    1.6955    3.5386    3.0136 B   0  0  0  0  0  0  0  0  0  0  0  0
    2.7319    2.1760    2.4927 B   0  0  0  0  0  0  0  0  0  0  0  0
    2.6219    2.0846    0.7330 B   0  0  0  0  0  0  0  0  0  0  0  0
    1.5984    3.4338    0.1279 B   0  0  0  0  0  0  0  0  0  0  0  0
    0.9933    4.3015    1.5551 B   0  0  0  0  0  0  0  0  0  0  0  0
    2.6712    3.6768    1.5371 B   0  0  0  0  0  0  0  0  0  0  0  0
    4.9448    3.0304    4.4863 C   0  0  0  0  0  0  0  0  0  0  0  0
    6.2023    3.6127    4.4370 C   0  0  0  0  0  0  0  0  0  0  0  0
    6.5423    4.5784    5.4201 C   0  0  0  0  0  0  0  0  0  0  0  0
    5.6611    4.9284    6.3596 C   0  0  0  0  0  0  0  0  0  0  0  0
    4.4042    4.3829    6.4250 C   0  0  0  0  0  0  0  0  0  0  0  0
    4.0395    3.3988    5.4750 C   0  0  0  0  0  0  0  0  0  0  0  0
    4.3706    0.1790    4.2467 C   0  0  0  0  0  0  0  0  0  0  0  0
    3.9617   -0.9934    3.6197 C   0  0  0  0  0  0  0  0  0  0  0  0
    3.9611   -2.2163    4.3243 C   0  0  0  0  0  0  0  0  0  0  0  0
    4.3594   -2.2542    5.6256 C   0  0  0  0  0  0  0  0  0  0  0  0
    4.7600   -1.1239    6.2658 C   0  0  0  0  0  0  0  0  0  0  0  0
    4.7666    0.1161    5.5934 C   0  0  0  0  0  0  0  0  0  0  0  0
    5.8236    1.5382    2.1603 C   0  0  0  0  0  0  0  0  0  0  0  0
    6.6977    0.4817    2.2616 C   0  0  0  0  0  0  0  0  0  0  0  0
    7.7890    0.3736    1.4083 C   0  0  0  0  0  0  0  0  0  0  0  0
    7.9993    1.3167    0.4432 C   0  0  0  0  0  0  0  0  0  0  0  0
    7.1227    2.3742    0.3069 C   0  0  0  0  0  0  0  0  0  0  0  0
    6.0366    2.4955    1.1640 C   0  0  0  0  0  0  0  0  0  0  0  0
    0.4679    2.4350    5.3424 C   0  0  0  0  0  0  0  0  0  0  0  0
    0.4175    3.4972    5.7762 O   0  0  0  0  0  0  0  0  0  0  0  0
    0.9847    1.6271    3.6652 Ni  0  0  0  0  0  0  0  0  0  0  0  0
    4.4329    1.7375    3.3119 P   0  0  0  0  0  0  0  0  0  0  0  0
   -0.8252    1.3022    1.7009 H   0  0  0  0  0  0  0  0  0  0  0  0
    1.7190    3.9413   -0.9386 H   0  0  0  0  0  0  0  0  0  0  0  0
    0.6326    5.3073    1.6706 H   0  0  0  0  0  0  0  0  0  0  0  0
    3.5424    4.3289    1.4964 H   0  0  0  0  0  0  0  0  0  0  0  0
   -0.7554    3.4380    2.8962 H   0  0  0  0  0  0  0  0  0  0  0  0
    1.8034   -0.1264    1.7464 H   0  0  0  0  0  0  0  0  0  0  0  0
    0.6151    1.1763   -0.5607 H   0  0  0  0  0  0  0  0  0  0  0  0
   -0.9595    3.4116    0.3144 H   0  0  0  0  0  0  0  0  0  0  0  0
    1.8425    4.2490    3.8622 H   0  0  0  0  0  0  0  0  0  0  0  0
    3.4364    1.7569    0.1818 H   0  0  0  0  0  0  0  0  0  0  0  0
    4.3822   -3.1314    6.1067 H   0  0  0  0  0  0  0  0  0  0  0  0
    5.0368   -1.1702    7.2252 H   0  0  0  0  0  0  0  0  0  0  0  0
    5.0487    0.9509    6.0726 H   0  0  0  0  0  0  0  0  0  0  0  0
    6.5480   -0.2163    2.9606 H   0  0  0  0  0  0  0  0  0  0  0  0
    8.4165   -0.4011    1.4992 H   0  0  0  0  0  0  0  0  0  0  0  0
    8.7947    1.2394   -0.1553 H   0  0  0  0  0  0  0  0  0  0  0  0
    7.2735    3.0515   -0.4158 H   0  0  0  0  0  0  0  0  0  0  0  0
    5.4084    3.2651    1.0674 H   0  0  0  0  0  0  0  0  0  0  0  0
    6.8580    3.3581    3.7267 H   0  0  0  0  0  0  0  0  0  0  0  0
    7.4473    4.9925    5.4116 H   0  0  0  0  0  0  0  0  0  0  0  0
    5.9217    5.6211    7.0320 H   0  0  0  0  0  0  0  0  0  0  0  0
    3.7590    4.6646    7.1381 H   0  0  0  0  0  0  0  0  0  0  0  0
    3.1413    2.9715    5.5110 H   0  0  0  0  0  0  0  0  0  0  0  0
    3.6779   -0.9680    2.6594 H   0  0  0  0  0  0  0  0  0  0  0  0
    3.6375   -3.0473    3.8688 H   0  0  0  0  0  0  0  0  0  0  0  0
    0.7433   -0.1694    4.1283 C   0  0  0  0  0  0  0  0  0  0  0  0
    0.2265    0.6385    5.8056 Ni  0  0  0  0  0  0  0  0  0  0  0  0
    0.7937   -1.2316    3.6945 O   0  0  0  0  0  0  0  0  0  0  0  0
    1.1186    0.5122    7.7726 C   0  0  0  0  0  0  0  0  0  0  0  0
    1.0903   -0.8813    7.0358 C   0  0  0  0  0  0  0  0  0  0  0  0
   -0.4059    1.2669    7.7556 B   0  0  0  0  0  0  0  0  0  0  0  0
   -0.4843   -1.2730    6.4572 B   0  0  0  0  0  0  0  0  0  0  0  0
   -1.5207    0.0896    6.9780 B   0  0  0  0  0  0  0  0  0  0  0  0
    0.2559    0.4923    9.2046 B   0  0  0  0  0  0  0  0  0  0  0  0
    1.2499   -0.8881    8.7585 B   0  0  0  0  0  0  0  0  0  0  0  0
    2.0364    0.9634    7.7698 H   0  0  0  0  0  0  0  0  0  0  0  0
    0.2179   -2.0359    7.9156 B   0  0  0  0  0  0  0  0  0  0  0  0
    1.9666   -1.1724    6.5746 H   0  0  0  0  0  0  0  0  0  0  0  0
   -1.4107    0.1810    8.7377 B   0  0  0  0  0  0  0  0  0  0  0  0
   -0.5922    2.3920    7.7243 H   0  0  0  0  0  0  0  0  0  0  0  0
   -1.4600   -1.4112    7.9336 B   0  0  0  0  0  0  0  0  0  0  0  0
   -0.6313   -1.9834    5.6086 H   0  0  0  0  0  0  0  0  0  0  0  0
   -3.2217    0.5281    6.1588 P   0  0  0  0  0  0  0  0  0  0  0  0
   -0.3872   -1.1682    9.3429 B   0  0  0  0  0  0  0  0  0  0  0  0
    0.5961    1.0893   10.0314 H   0  0  0  0  0  0  0  0  0  0  0  0
    2.1707   -1.1460    9.1563 H   0  0  0  0  0  0  0  0  0  0  0  0
    0.5786   -3.0417    7.8001 H   0  0  0  0  0  0  0  0  0  0  0  0
   -2.2252    0.5087    9.2889 H   0  0  0  0  0  0  0  0  0  0  0  0
   -2.3312   -2.0633    7.9744 H   0  0  0  0  0  0  0  0  0  0  0  0
   -3.7336   -0.7648    4.9845 C   0  0  0  0  0  0  0  0  0  0  0  0
   -3.1594    2.0866    5.2241 C   0  0  0  0  0  0  0  0  0  0  0  0
   -4.6124    0.7274    7.3105 C   0  0  0  0  0  0  0  0  0  0  0  0
   -0.5078   -1.6757   10.4093 H   0  0  0  0  0  0  0  0  0  0  0  0
   -4.9911   -1.3471    5.0337 C   0  0  0  0  0  0  0  0  0  0  0  0
   -2.8283   -1.1332    3.9957 C   0  0  0  0  0  0  0  0  0  0  0  0
   -2.7505    3.2590    5.8510 C   0  0  0  0  0  0  0  0  0  0  0  0
   -3.5554    2.1495    3.8773 C   0  0  0  0  0  0  0  0  0  0  0  0
   -5.4865    1.7839    7.2091 C   0  0  0  0  0  0  0  0  0  0  0  0
   -4.8254   -0.2299    8.3068 C   0  0  0  0  0  0  0  0  0  0  0  0
   -5.3311   -2.3128    4.0506 C   0  0  0  0  0  0  0  0  0  0  0  0
   -5.6468   -1.0924    5.7440 H   0  0  0  0  0  0  0  0  0  0  0  0
   -3.1930   -2.1173    3.0458 C   0  0  0  0  0  0  0  0  0  0  0  0
   -1.9301   -0.7059    3.9597 H   0  0  0  0  0  0  0  0  0  0  0  0
   -2.7499    4.4819    5.1464 C   0  0  0  0  0  0  0  0  0  0  0  0
   -2.4667    3.2336    6.8114 H   0  0  0  0  0  0  0  0  0  0  0  0
   -3.5488    3.3895    3.2049 C   0  0  0  0  0  0  0  0  0  0  0  0
   -3.8375    1.3147    3.3981 H   0  0  0  0  0  0  0  0  0  0  0  0
   -6.5778    1.8920    8.0624 C   0  0  0  0  0  0  0  0  0  0  0  0
   -5.3368    2.4819    6.5102 H   0  0  0  0  0  0  0  0  0  0  0  0
   -5.9115   -0.1086    9.1639 C   0  0  0  0  0  0  0  0  0  0  0  0
   -4.1972   -0.9995    8.4034 H   0  0  0  0  0  0  0  0  0  0  0  0
   -4.4499   -2.6628    3.1111 C   0  0  0  0  0  0  0  0  0  0  0  0
   -6.2361   -2.7269    4.0592 H   0  0  0  0  0  0  0  0  0  0  0  0
   -2.5478   -2.3990    2.3326 H   0  0  0  0  0  0  0  0  0  0  0  0
   -3.1482    4.5198    3.8451 C   0  0  0  0  0  0  0  0  0  0  0  0
   -2.4263    5.3129    5.6019 H   0  0  0  0  0  0  0  0  0  0  0  0
   -3.8256    3.4358    2.2455 H   0  0  0  0  0  0  0  0  0  0  0  0
   -6.7881    0.9489    9.0275 C   0  0  0  0  0  0  0  0  0  0  0  0
   -7.2053    2.6667    7.9715 H   0  0  0  0  0  0  0  0  0  0  0  0
   -6.0623   -0.7859    9.8865 H   0  0  0  0  0  0  0  0  0  0  0  0
   -4.7105   -3.3555    2.4387 H   0  0  0  0  0  0  0  0  0  0  0  0
   -3.1710    5.3970    3.3640 H   0  0  0  0  0  0  0  0  0  0  0  0
   -7.5835    1.0262    9.6261 H   0  0  0  0  0  0  0  0  0  0  0  0
  1  2  1  0  0  0  0
  2  5  1  0  0  0  0
  3  1  1  0  0  0  0
  4  1  1  0  0  0  0
  5  1  1  0  0  0  0
  6  2  1  0  0  0  0
  7  3  1  0  0  0  0
  8  3  1  0  0  0  0
  9  4  1  0  0  0  0
 10  2  1  0  0  0  0
 11  6  1  0  0  0  0
 12 13  4  0  0  0  0
 13 14  4  0  0  0  0
 14 15  4  0  0  0  0
 15 16  4  0  0  0  0
 16 17  4  0  0  0  0
 17 12  4  0  0  0  0
 18 19  4  0  0  0  0
 19 20  4  0  0  0  0
 20 21  4  0  0  0  0
 21 22  4  0  0  0  0
 22 23  4  0  0  0  0
 23 18  4  0  0  0  0
 24 25  4  0  0  0  0
 25 26  4  0  0  0  0
 26 27  4  0  0  0  0
 27 28  4  0  0  0  0
 28 29  4  0  0  0  0
 29 24  4  0  0  0  0
 30 31  2  0  0  0  0
 32  1  1  0  0  0  0
 33  7  1  0  0  0  0
 34  1  1  0  0  0  0
 35  9  1  0  0  0  0
 36 10  1  0  0  0  0
 37 11  1  0  0  0  0
 38  2  1  0  0  0  0
 39  3  1  0  0  0  0
 40  4  1  0  0  0  0
 41  5  1  0  0  0  0
 42  6  1  0  0  0  0
 43  8  1  0  0  0  0
 44 21  1  0  0  0  0
 45 22  1  0  0  0  0
 46 23  1  0  0  0  0
 47 25  1  0  0  0  0
 48 26  1  0  0  0  0
 49 27  1  0  0  0  0
 50 28  1  0  0  0  0
 51 29  1  0  0  0  0
 52 13  1  0  0  0  0
 53 14  1  0  0  0  0
 54 15  1  0  0  0  0
 55 16  1  0  0  0  0
 56 17  1  0  0  0  0
 57 19  1  0  0  0  0
 58 20  1  0  0  0  0
 59 32  1  0  0  0  0
 60 30  1  0  0  0  0
 61 59  2  0  0  0  0
 62 60  1  0  0  0  0
 63 60  1  0  0  0  0
 64 60  1  0  0  0  0
 65 60  1  0  0  0  0
 66 60  1  0  0  0  0
 67 62  1  0  0  0  0
 68 62  1  0  0  0  0
 69 62  1  0  0  0  0
 70 63  1  0  0  0  0
 71 63  1  0  0  0  0
 72 64  1  0  0  0  0
 73 64  1  0  0  0  0
 74 65  1  0  0  0  0
 75 65  1  0  0  0  0
 76 66  1  0  0  0  0
 77 67  1  0  0  0  0
 78 67  1  0  0  0  0
 79 68  1  0  0  0  0
 80 70  1  0  0  0  0
 81 72  1  0  0  0  0
 82 74  1  0  0  0  0
 83 76  1  0  0  0  0
 84 76  1  0  0  0  0
 85 76  1  0  0  0  0
 86 77  1  0  0  0  0
 87 83  4  0  0  0  0
 88 83  4  0  0  0  0
 89 84  4  0  0  0  0
 90 84  4  0  0  0  0
 91 85  4  0  0  0  0
 92 85  4  0  0  0  0
 93 87  4  0  0  0  0
 94 87  1  0  0  0  0
 95 88  4  0  0  0  0
 96 88  1  0  0  0  0
 97 89  4  0  0  0  0
 98 89  1  0  0  0  0
 99 90  4  0  0  0  0
100 90  1  0  0  0  0
101 91  4  0  0  0  0
102 91  1  0  0  0  0
103 92  4  0  0  0  0
104 92  1  0  0  0  0
105 93  4  0  0  0  0
106 93  1  0  0  0  0
107 95  1  0  0  0  0
108 97  4  0  0  0  0
109 97  1  0  0  0  0
110 99  1  0  0  0  0
111101  4  0  0  0  0
112101  1  0  0  0  0
113103  1  0  0  0  0
114105  1  0  0  0  0
115108  1  0  0  0  0
116111  1  0  0  0  0
  2 32  1  0  0  0  0
  3  4  1  0  0  0  0
  3 32  1  0  0  0  0
  4  5  1  0  0  0  0
  4  8  1  0  0  0  0
  5  9  1  0  0  0  0
  5 10  1  0  0  0  0
  6  7  1  0  0  0  0
  6 10  1  0  0  0  0
  6 32  1  0  0  0  0
  7  8  1  0  0  0  0
  7 11  1  0  0  0  0
  7 32  1  0  0  0  0
  8  9  1  0  0  0  0
  8 11  1  0  0  0  0
  9 10  1  0  0  0  0
  9 11  1  0  0  0  0
 10 11  1  0  0  0  0
 12 33  1  0  0  0  0
 18 33  1  0  0  0  0
 24 33  1  0  0  0  0
 30 32  1  0  0  0  0
 32 60  1  0  0  0  0
 59 60  1  0  0  0  0
 62 63  1  0  0  0  0
 62 64  1  0  0  0  0
 63 65  1  0  0  0  0
 63 68  1  0  0  0  0
 64 66  1  0  0  0  0
 64 67  1  0  0  0  0
 65 66  1  0  0  0  0
 65 70  1  0  0  0  0
 66 72  1  0  0  0  0
 66 74  1  0  0  0  0
 67 68  1  0  0  0  0
 67 72  1  0  0  0  0
 68 70  1  0  0  0  0
 68 77  1  0  0  0  0
 70 74  1  0  0  0  0
 70 77  1  0  0  0  0
 72 74  1  0  0  0  0
 72 77  1  0  0  0  0
 74 77  1  0  0  0  0
 95105  4  0  0  0  0
 99108  4  0  0  0  0
103111  4  0  0  0  0
M  END
$$$$
CENCAZ

From CSD data. Using bond type 'Any'. No disordered atoms. Largest molecule.
121120  0  0  0  0  0  0  0  0999 V2000
  -13.3443  -24.8226  -10.2081 O   0  0  0  0  0  0  0  0  0  0  0  0
  -16.8903  -23.7237   -8.8821 P   0  0  0  0  0  0  0  0  0  0  0  0
  -15.6185  -24.1208   -9.6840 N   0  0  0  0  0  0  0  0  0  0  0  0
  -14.2559  -24.2282   -9.3704 B   0  0  0  0  0  0  0  0  0  0  0  0
  -11.8640  -27.2644  -11.7994 P   0  0  0  0  0  0  0  0  0  0  0  0
  -12.7763  -26.0910  -12.2582 N   0  0  0  0  0  0  0  0  0  0  0  0
  -13.4900  -25.1059  -11.5877 B   0  0  0  0  0  0  0  0  0  0  0  0
  -12.1867  -23.3945   -7.5766 P   0  0  0  0  0  0  0  0  0  0  0  0
  -13.6861  -23.7373   -8.1157 N   0  3  0  0  0  0  0  0  0  0  0  0
  -14.2743  -23.6530   -7.5897 H   0  0  0  0  0  0  0  0  0  0  0  0
  -14.5788  -23.9049  -13.8628 P   0  0  0  0  0  0  0  0  0  0  0  0
  -14.4365  -24.2381  -12.2892 N   0  3  0  0  0  0  0  0  0  0  0  0
  -15.1065  -23.9505  -11.7845 H   0  0  0  0  0  0  0  0  0  0  0  0
  -18.0826  -25.2563  -10.7901 C   0  0  0  0  0  0  0  0  0  0  0  0
  -18.4888  -24.9257  -11.5954 H   0  0  0  0  0  0  0  0  0  0  0  0
  -18.5382  -26.0514  -10.5038 H   0  0  0  0  0  0  0  0  0  0  0  0
  -17.1601  -25.4580  -10.9563 H   0  0  0  0  0  0  0  0  0  0  0  0
  -18.1785  -24.2315   -9.7398 N   0  0  0  0  0  0  0  0  0  0  0  0
  -19.5679  -23.9290   -9.3750 C   0  0  0  0  0  0  0  0  0  0  0  0
  -20.0178  -23.5373  -10.1255 H   0  0  0  0  0  0  0  0  0  0  0  0
  -19.5792  -23.3142   -8.6377 H   0  0  0  0  0  0  0  0  0  0  0  0
  -20.0164  -24.7390   -9.1209 H   0  0  0  0  0  0  0  0  0  0  0  0
  -16.8061  -24.3158   -7.3343 N   0  0  0  0  0  0  0  0  0  0  0  0
  -16.3421  -25.6960   -7.1477 C   0  0  0  0  0  0  0  0  0  0  0  0
  -16.0007  -25.8018   -6.2553 H   0  0  0  0  0  0  0  0  0  0  0  0
  -15.6467  -25.8877   -7.7814 H   0  0  0  0  0  0  0  0  0  0  0  0
  -17.0741  -26.3009   -7.2829 H   0  0  0  0  0  0  0  0  0  0  0  0
  -17.2250  -22.1257   -8.6255 N   0  0  0  0  0  0  0  0  0  0  0  0
  -17.8583  -23.9935   -6.3511 C   0  0  0  0  0  0  0  0  0  0  0  0
  -17.5071  -24.0894   -5.4628 H   0  0  0  0  0  0  0  0  0  0  0  0
  -18.6003  -24.5902   -6.4700 H   0  0  0  0  0  0  0  0  0  0  0  0
  -18.1517  -23.0877   -6.4828 H   0  0  0  0  0  0  0  0  0  0  0  0
  -16.3957  -21.3670   -7.6740 C   0  0  0  0  0  0  0  0  0  0  0  0
  -16.8625  -20.5753   -7.4030 H   0  0  0  0  0  0  0  0  0  0  0  0
  -15.5677  -21.1224   -8.0958 H   0  0  0  0  0  0  0  0  0  0  0  0
  -16.2123  -21.9108   -6.9046 H   0  0  0  0  0  0  0  0  0  0  0  0
  -17.6552  -21.2910   -9.7518 C   0  0  0  0  0  0  0  0  0  0  0  0
  -18.2730  -20.6265   -9.4404 H   0  0  0  0  0  0  0  0  0  0  0  0
  -18.0840  -21.8398  -10.4118 H   0  0  0  0  0  0  0  0  0  0  0  0
  -16.8907  -20.8596  -10.1408 H   0  0  0  0  0  0  0  0  0  0  0  0
  -12.7467  -29.4348  -13.0627 C   0  0  0  0  0  0  0  0  0  0  0  0
  -12.4209  -30.2084  -13.5279 H   0  0  0  0  0  0  0  0  0  0  0  0
  -13.4801  -29.0530  -13.5484 H   0  0  0  0  0  0  0  0  0  0  0  0
  -13.0429  -29.6910  -12.1859 H   0  0  0  0  0  0  0  0  0  0  0  0
  -11.6804  -28.4547  -12.9459 N   0  0  0  0  0  0  0  0  0  0  0  0
  -11.1288  -28.0563  -14.2394 C   0  0  0  0  0  0  0  0  0  0  0  0
  -10.7988  -28.8315  -14.6987 H   0  0  0  0  0  0  0  0  0  0  0  0
  -10.4109  -27.4332  -14.1031 H   0  0  0  0  0  0  0  0  0  0  0  0
  -11.8172  -27.6414  -14.7652 H   0  0  0  0  0  0  0  0  0  0  0  0
  -10.3150  -26.8117  -11.5432 N   0  0  0  0  0  0  0  0  0  0  0  0
  -10.0428  -25.5257  -10.8730 C   0  0  0  0  0  0  0  0  0  0  0  0
   -9.5942  -25.6877  -10.0386 H   0  0  0  0  0  0  0  0  0  0  0  0
  -10.8707  -25.0712  -10.7083 H   0  0  0  0  0  0  0  0  0  0  0  0
   -9.4856  -24.9836  -11.4369 H   0  0  0  0  0  0  0  0  0  0  0  0
  -12.4561  -28.0167  -10.4489 N   0  0  0  0  0  0  0  0  0  0  0  0
   -9.1316  -27.6530  -11.7079 C   0  0  0  0  0  0  0  0  0  0  0  0
   -8.5095  -27.2200  -12.2958 H   0  0  0  0  0  0  0  0  0  0  0  0
   -9.3897  -28.4993  -12.0836 H   0  0  0  0  0  0  0  0  0  0  0  0
   -8.7183  -27.7968  -10.8540 H   0  0  0  0  0  0  0  0  0  0  0  0
  -13.8723  -28.0629  -10.1235 C   0  0  0  0  0  0  0  0  0  0  0  0
  -13.9950  -27.8332   -9.2001 H   0  0  0  0  0  0  0  0  0  0  0  0
  -14.2080  -28.9472  -10.2814 H   0  0  0  0  0  0  0  0  0  0  0  0
  -14.3476  -27.4365  -10.6751 H   0  0  0  0  0  0  0  0  0  0  0  0
  -11.6550  -29.0100   -9.7380 C   0  0  0  0  0  0  0  0  0  0  0  0
  -11.8059  -28.9258   -8.7937 H   0  0  0  0  0  0  0  0  0  0  0  0
  -10.7254  -28.8662   -9.9287 H   0  0  0  0  0  0  0  0  0  0  0  0
  -11.9074  -29.8910  -10.0258 H   0  0  0  0  0  0  0  0  0  0  0  0
   -9.8834  -22.8067   -8.8141 C   0  0  0  0  0  0  0  0  0  0  0  0
   -9.5336  -23.0794   -9.6654 H   0  0  0  0  0  0  0  0  0  0  0  0
   -9.5717  -23.4084   -8.1341 H   0  0  0  0  0  0  0  0  0  0  0  0
   -9.5858  -21.9158   -8.6147 H   0  0  0  0  0  0  0  0  0  0  0  0
  -11.3573  -22.8348   -8.8571 N   0  0  0  0  0  0  0  0  0  0  0  0
  -11.9159  -21.9935   -9.9013 C   0  0  0  0  0  0  0  0  0  0  0  0
  -11.6620  -22.3373  -10.7595 H   0  0  0  0  0  0  0  0  0  0  0  0
  -11.5802  -21.0976   -9.8034 H   0  0  0  0  0  0  0  0  0  0  0  0
  -12.8736  -21.9852   -9.8290 H   0  0  0  0  0  0  0  0  0  0  0  0
  -11.4857  -24.6894   -6.9140 N   0  0  0  0  0  0  0  0  0  0  0  0
  -11.7410  -26.0315   -7.4071 C   0  0  0  0  0  0  0  0  0  0  0  0
  -12.1303  -26.5605   -6.7077 H   0  0  0  0  0  0  0  0  0  0  0  0
  -10.9159  -26.4315   -7.6894 H   0  0  0  0  0  0  0  0  0  0  0  0
  -12.3475  -25.9885   -8.1495 H   0  0  0  0  0  0  0  0  0  0  0  0
  -12.2248  -22.2811   -6.3798 N   0  0  0  0  0  0  0  0  0  0  0  0
  -10.4236  -24.6183   -5.8930 C   0  0  0  0  0  0  0  0  0  0  0  0
   -9.6083  -24.9720   -6.2553 H   0  0  0  0  0  0  0  0  0  0  0  0
  -10.6831  -25.1340   -5.1254 H   0  0  0  0  0  0  0  0  0  0  0  0
  -10.2896  -23.7042   -5.6341 H   0  0  0  0  0  0  0  0  0  0  0  0
  -12.2883  -20.8530   -6.6947 C   0  0  0  0  0  0  0  0  0  0  0  0
  -11.9187  -20.3472   -5.9664 H   0  0  0  0  0  0  0  0  0  0  0  0
  -13.2037  -20.5951   -6.8304 H   0  0  0  0  0  0  0  0  0  0  0  0
  -11.7847  -20.6778   -7.4925 H   0  0  0  0  0  0  0  0  0  0  0  0
  -12.8271  -22.5968   -5.0801 C   0  0  0  0  0  0  0  0  0  0  0  0
  -12.3024  -22.2034   -4.3789 H   0  0  0  0  0  0  0  0  0  0  0  0
  -12.8539  -23.5489   -4.9618 H   0  0  0  0  0  0  0  0  0  0  0  0
  -13.7199  -22.2464   -5.0487 H   0  0  0  0  0  0  0  0  0  0  0  0
  -12.0104  -23.1224  -13.8091 C   0  0  0  0  0  0  0  0  0  0  0  0
  -11.5534  -22.5439  -14.4252 H   0  0  0  0  0  0  0  0  0  0  0  0
  -11.3926  -23.7670  -13.4564 H   0  0  0  0  0  0  0  0  0  0  0  0
  -12.3757  -22.6018  -13.0908 H   0  0  0  0  0  0  0  0  0  0  0  0
  -13.0852  -23.8117  -14.5029 N   0  0  0  0  0  0  0  0  0  0  0  0
  -12.6536  -24.5918  -15.6548 C   0  0  0  0  0  0  0  0  0  0  0  0
  -12.4209  -23.9985  -16.3731 H   0  0  0  0  0  0  0  0  0  0  0  0
  -13.3673  -25.1704  -15.9360 H   0  0  0  0  0  0  0  0  0  0  0  0
  -11.8891  -25.1191  -15.4145 H   0  0  0  0  0  0  0  0  0  0  0  0
  -15.3138  -22.4695  -14.0484 N   0  0  0  0  0  0  0  0  0  0  0  0
  -14.6650  -21.2546  -14.3792 C   0  0  0  0  0  0  0  0  0  0  0  0
  -15.1925  -20.7736  -15.0183 H   0  0  0  0  0  0  0  0  0  0  0  0
  -13.8017  -21.4447  -14.7524 H   0  0  0  0  0  0  0  0  0  0  0  0
  -14.5592  -20.7241  -13.5867 H   0  0  0  0  0  0  0  0  0  0  0  0
  -15.5084  -24.9819  -14.6144 N   0  0  0  0  0  0  0  0  0  0  0  0
  -16.6298  -22.2580  -13.4436 C   0  0  0  0  0  0  0  0  0  0  0  0
  -17.1728  -21.7274  -14.0315 H   0  0  0  0  0  0  0  0  0  0  0  0
  -16.5268  -21.8018  -12.6051 H   0  0  0  0  0  0  0  0  0  0  0  0
  -17.0544  -23.1075  -13.2953 H   0  0  0  0  0  0  0  0  0  0  0  0
  -16.1023  -24.7224  -15.9329 C   0  0  0  0  0  0  0  0  0  0  0  0
  -17.0473  -24.8811  -15.8951 H   0  0  0  0  0  0  0  0  0  0  0  0
  -15.7059  -25.3076  -16.5827 H   0  0  0  0  0  0  0  0  0  0  0  0
  -15.9401  -23.8100  -16.1814 H   0  0  0  0  0  0  0  0  0  0  0  0
  -15.6128  -26.3737  -14.1788 C   0  0  0  0  0  0  0  0  0  0  0  0
  -16.5381  -26.6100  -14.0801 H   0  0  0  0  0  0  0  0  0  0  0  0
  -15.1643  -26.4795  -13.3362 H   0  0  0  0  0  0  0  0  0  0  0  0
  -15.2038  -26.9456  -14.8317 H   0  0  0  0  0  0  0  0  0  0  0  0
  1  4  1  0  0  0  0
  2  3  2  0  0  0  0
  3  4  1  0  0  0  0
  4  9  1  0  0  0  0
  5  6  2  0  0  0  0
  6  7  1  0  0  0  0
  7  1  1  0  0  0  0
  8  9  2  0  0  0  0
  9 10  1  0  0  0  0
 11 12  2  0  0  0  0
 12  7  1  0  0  0  0
 13 12  1  0  0  0  0
 14 15  1  0  0  0  0
 16 14  1  0  0  0  0
 17 14  1  0  0  0  0
 18  2  1  0  0  0  0
 19 18  1  0  0  0  0
 20 19  1  0  0  0  0
 21 19  1  0  0  0  0
 22 19  1  0  0  0  0
 23  2  1  0  0  0  0
 24 23  1  0  0  0  0
 25 24  1  0  0  0  0
 26 24  1  0  0  0  0
 27 24  1  0  0  0  0
 28  2  1  0  0  0  0
 29 23  1  0  0  0  0
 30 29  1  0  0  0  0
 31 29  1  0  0  0  0
 32 29  1  0  0  0  0
 33 28  1  0  0  0  0
 34 33  1  0  0  0  0
 35 33  1  0  0  0  0
 36 33  1  0  0  0  0
 37 28  1  0  0  0  0
 38 37  1  0  0  0  0
 39 37  1  0  0  0  0
 40 37  1  0  0  0  0
 41 42  1  0  0  0  0
 43 41  1  0  0  0  0
 44 41  1  0  0  0  0
 45  5  1  0  0  0  0
 46 45  1  0  0  0  0
 47 46  1  0  0  0  0
 48 46  1  0  0  0  0
 49 46  1  0  0  0  0
 50  5  1  0  0  0  0
 51 50  1  0  0  0  0
 52 51  1  0  0  0  0
 53 51  1  0  0  0  0
 54 51  1  0  0  0  0
 55  5  1  0  0  0  0
 56 50  1  0  0  0  0
 57 56  1  0  0  0  0
 58 56  1  0  0  0  0
 59 56  1  0  0  0  0
 60 55  1  0  0  0  0
 61 60  1  0  0  0  0
 62 60  1  0  0  0  0
 63 60  1  0  0  0  0
 64 55  1  0  0  0  0
 65 64  1  0  0  0  0
 66 64  1  0  0  0  0
 67 64  1  0  0  0  0
 68 69  1  0  0  0  0
 70 68  1  0  0  0  0
 71 68  1  0  0  0  0
 72  8  1  0  0  0  0
 73 72  1  0  0  0  0
 74 73  1  0  0  0  0
 75 73  1  0  0  0  0
 76 73  1  0  0  0  0
 77  8  1  0  0  0  0
 78 77  1  0  0  0  0
 79 78  1  0  0  0  0
 80 78  1  0  0  0  0
 81 78  1  0  0  0  0
 82  8  1  0  0  0  0
 83 77  1  0  0  0  0
 84 83  1  0  0  0  0
 85 83  1  0  0  0  0
 86 83  1  0  0  0  0
 87 82  1  0  0  0  0
 88 87  1  0  0  0  0
 89 87  1  0  0  0  0
 90 87  1  0  0  0  0
 91 82  1  0  0  0  0
 92 91  1  0  0  0  0
 93 91  1  0  0  0  0
 94 91  1  0  0  0  0
 95 96  1  0  0  0  0
 97 95  1  0  0  0  0
 98 95  1  0  0  0  0
 99 11  1  0  0  0  0
100 99  1  0  0  0  0
101100  1  0  0  0  0
102100  1  0  0  0  0
103100  1  0  0  0  0
104 11  1  0  0  0  0
105104  1  0  0  0  0
106105  1  0  0  0  0
107105  1  0  0  0  0
108105  1  0  0  0  0
109 11  1  0  0  0  0
110104  1  0  0  0  0
111110  1  0  0  0  0
112110  1  0  0  0  0
113110  1  0  0  0  0
114109  1  0  0  0  0
115114  1  0  0  0  0
116114  1  0  0  0  0
117114  1  0  0  0  0
118109  1  0  0  0  0
119118  1  0  0  0  0
120118  1  0  0  0  0
121118  1  0  0  0  0
 14 18  1  0  0  0  0
 41 45  1  0  0  0  0
 68 72  1  0  0  0  0
 95 99  1  0  0  0  0
M  CHG  2   9   1  12   1
M  END
$$$$
CEQDUZ

From CSD data. Using bond type 'Any'. No disordered atoms. Largest molecule.
 91 94  0  0  0  0  0  0  0  0999 V2000
    1.4929    3.4506    8.4425 Os  0  0  0  0  0  0  0  0  0  0  0  0
    3.0642    3.3683    8.2867 H   0  0  0  0  0  0  0  0  0  0  0  0
   -0.8989    3.5186    8.5163 Cl  0  0  0  0  0  0  0  0  0  0  0  0
    1.2647    1.7077    6.7914 P   0  0  0  0  0  0  0  0  0  0  0  0
    1.4863    5.1644   10.1158 P   0  0  0  0  0  0  0  0  0  0  0  0
    1.9590    5.4204    6.2628 O   0  0  0  0  0  0  0  0  0  0  0  0
    4.0205    4.8889    7.1067 O   0  0  0  0  0  0  0  0  0  0  0  0
    1.9885    1.1838   10.3089 O   0  0  0  0  0  0  0  0  0  0  0  0
    4.0080    2.2137    9.9485 O   0  0  0  0  0  0  0  0  0  0  0  0
    2.6296    4.6261    7.2349 B   0  0  0  0  0  0  0  0  0  0  0  0
    2.6280    2.2546    9.6170 B   0  0  0  0  0  0  0  0  0  0  0  0
    2.9276    6.0961    5.5554 C   0  0  0  0  0  0  0  0  0  0  0  0
    2.7476    6.9780    4.5058 C   0  0  0  0  0  0  0  0  0  0  0  0
    1.8860    7.2078    4.1809 H   0  0  0  0  0  0  0  0  0  0  0  0
    3.9056    7.5057    3.9600 C   0  0  0  0  0  0  0  0  0  0  0  0
    3.8357    8.0995    3.2219 H   0  0  0  0  0  0  0  0  0  0  0  0
    5.1459    7.1961    4.4505 C   0  0  0  0  0  0  0  0  0  0  0  0
    5.9112    7.5972    4.0528 H   0  0  0  0  0  0  0  0  0  0  0  0
    5.3259    6.3063    5.5223 C   0  0  0  0  0  0  0  0  0  0  0  0
    6.1844    6.0785    5.8582 H   0  0  0  0  0  0  0  0  0  0  0  0
    4.1555    5.7845    6.0571 C   0  0  0  0  0  0  0  0  0  0  0  0
    2.9587    0.5160   11.0225 C   0  0  0  0  0  0  0  0  0  0  0  0
    2.8361   -0.6016   11.8158 C   0  0  0  0  0  0  0  0  0  0  0  0
    2.0071   -1.0572   11.9175 H   0  0  0  0  0  0  0  0  0  0  0  0
    3.9770   -1.0241   12.4522 C   0  0  0  0  0  0  0  0  0  0  0  0
    3.9304   -1.7776   13.0290 H   0  0  0  0  0  0  0  0  0  0  0  0
    5.1831   -0.3913   12.2776 C   0  0  0  0  0  0  0  0  0  0  0  0
    5.9453   -0.7184   12.7395 H   0  0  0  0  0  0  0  0  0  0  0  0
    5.3228    0.7223   11.4446 C   0  0  0  0  0  0  0  0  0  0  0  0
    6.1564    1.1585   11.3142 H   0  0  0  0  0  0  0  0  0  0  0  0
    4.1757    1.1390   10.8258 C   0  0  0  0  0  0  0  0  0  0  0  0
    2.7584    1.2169    5.8206 C   0  0  0  0  0  0  0  0  0  0  0  0
    2.4821    0.4731    5.2129 H   0  0  0  0  0  0  0  0  0  0  0  0
    3.3157    2.3325    4.9345 C   0  0  0  0  0  0  0  0  0  0  0  0
    3.6665    3.0529    5.4980 H   0  0  0  0  0  0  0  0  0  0  0  0
    2.6001    2.6830    4.3621 H   0  0  0  0  0  0  0  0  0  0  0  0
    4.0360    1.9762    4.3732 H   0  0  0  0  0  0  0  0  0  0  0  0
    3.8637    0.6659    6.7288 C   0  0  0  0  0  0  0  0  0  0  0  0
    4.6414    0.4225    6.1852 H   0  0  0  0  0  0  0  0  0  0  0  0
    3.5330   -0.1266    7.1995 H   0  0  0  0  0  0  0  0  0  0  0  0
    4.1214    1.3493    7.3807 H   0  0  0  0  0  0  0  0  0  0  0  0
    0.7979    0.1032    7.6017 C   0  0  0  0  0  0  0  0  0  0  0  0
    1.4762   -0.0428    8.3221 H   0  0  0  0  0  0  0  0  0  0  0  0
   -0.5588    0.1324    8.3177 C   0  0  0  0  0  0  0  0  0  0  0  0
   -1.2682    0.3057    7.6636 H   0  0  0  0  0  0  0  0  0  0  0  0
   -0.5557    0.8411    8.9939 H   0  0  0  0  0  0  0  0  0  0  0  0
   -0.7172   -0.7321    8.7508 H   0  0  0  0  0  0  0  0  0  0  0  0
    0.8600   -1.1701    6.7023 C   0  0  0  0  0  0  0  0  0  0  0  0
    0.7932   -1.9704    7.2636 H   0  0  0  0  0  0  0  0  0  0  0  0
    1.7091   -1.1838    6.2140 H   0  0  0  0  0  0  0  0  0  0  0  0
    0.1149   -1.1565    6.0659 H   0  0  0  0  0  0  0  0  0  0  0  0
   -0.0590    2.0424    5.5311 C   0  0  0  0  0  0  0  0  0  0  0  0
   -0.9221    1.8146    5.9841 H   0  0  0  0  0  0  0  0  0  0  0  0
   -0.1909    3.5202    5.1135 C   0  0  0  0  0  0  0  0  0  0  0  0
    0.6116    3.7947    4.6229 H   0  0  0  0  0  0  0  0  0  0  0  0
   -0.2918    4.0770    5.9134 H   0  0  0  0  0  0  0  0  0  0  0  0
   -0.9779    3.6273    4.5389 H   0  0  0  0  0  0  0  0  0  0  0  0
   -0.0140    1.1643    4.2693 C   0  0  0  0  0  0  0  0  0  0  0  0
   -0.7746    1.3824    3.6926 H   0  0  0  0  0  0  0  0  0  0  0  0
   -0.0574    0.2200    4.5257 H   0  0  0  0  0  0  0  0  0  0  0  0
    0.8227    1.3317    3.7854 H   0  0  0  0  0  0  0  0  0  0  0  0
    0.1133    4.9045   11.3429 C   0  0  0  0  0  0  0  0  0  0  0  0
   -0.7358    5.0096   10.8258 H   0  0  0  0  0  0  0  0  0  0  0  0
    0.0745    3.4637   11.9241 C   0  0  0  0  0  0  0  0  0  0  0  0
    0.9128    3.2787   12.3948 H   0  0  0  0  0  0  0  0  0  0  0  0
   -0.0404    2.8212   11.1926 H   0  0  0  0  0  0  0  0  0  0  0  0
   -0.6768    3.3839   12.5495 H   0  0  0  0  0  0  0  0  0  0  0  0
    0.0279    5.9345   12.5008 C   0  0  0  0  0  0  0  0  0  0  0  0
   -0.8134    5.8098   12.9870 H   0  0  0  0  0  0  0  0  0  0  0  0
    0.0621    6.8418   12.1340 H   0  0  0  0  0  0  0  0  0  0  0  0
    0.7808    5.8021   13.1130 H   0  0  0  0  0  0  0  0  0  0  0  0
    1.0152    6.8573    9.4999 C   0  0  0  0  0  0  0  0  0  0  0  0
    0.7342    7.3791   10.3043 H   0  0  0  0  0  0  0  0  0  0  0  0
   -0.1894    6.8418    8.5630 C   0  0  0  0  0  0  0  0  0  0  0  0
   -0.4610    7.7607    8.3641 H   0  0  0  0  0  0  0  0  0  0  0  0
   -0.9314    6.3667    8.9939 H   0  0  0  0  0  0  0  0  0  0  0  0
    0.0497    6.3823    7.7299 H   0  0  0  0  0  0  0  0  0  0  0  0
    2.1732    7.6673    8.8414 C   0  0  0  0  0  0  0  0  0  0  0  0
    2.6482    7.0968    8.2028 H   0  0  0  0  0  0  0  0  0  0  0  0
    2.7941    7.9691    9.5375 H   0  0  0  0  0  0  0  0  0  0  0  0
    1.8022    8.4441    8.3751 H   0  0  0  0  0  0  0  0  0  0  0  0
    3.0006    5.5412   11.1308 C   0  0  0  0  0  0  0  0  0  0  0  0
    2.8671    6.4563   11.5153 H   0  0  0  0  0  0  0  0  0  0  0  0
    3.2381    4.5910   12.3218 C   0  0  0  0  0  0  0  0  0  0  0  0
    3.2567    3.6662   12.0014 H   0  0  0  0  0  0  0  0  0  0  0  0
    2.5132    4.6981   12.9737 H   0  0  0  0  0  0  0  0  0  0  0  0
    4.0934    4.8071   12.7461 H   0  0  0  0  0  0  0  0  0  0  0  0
    4.2750    5.5957   10.3043 C   0  0  0  0  0  0  0  0  0  0  0  0
    4.9891    6.0123   10.8324 H   0  0  0  0  0  0  0  0  0  0  0  0
    4.1183    6.1253    9.4955 H   0  0  0  0  0  0  0  0  0  0  0  0
    4.5420    4.6864   10.0546 H   0  0  0  0  0  0  0  0  0  0  0  0
  1  2  1  0  0  0  0
  3  1  1  0  0  0  0
  4  1  1  0  0  0  0
  5  1  1  0  0  0  0
  6 10  1  0  0  0  0
  7 10  1  0  0  0  0
  8 11  1  0  0  0  0
  9 11  1  0  0  0  0
 10  1  1  0  0  0  0
 11  1  1  0  0  0  0
 12  6  1  0  0  0  0
 13 12  4  0  0  0  0
 14 13  1  0  0  0  0
 15 13  4  0  0  0  0
 16 15  1  0  0  0  0
 17 15  4  0  0  0  0
 18 17  1  0  0  0  0
 19 17  4  0  0  0  0
 20 19  1  0  0  0  0
 21  7  1  0  0  0  0
 22  8  1  0  0  0  0
 23 22  4  0  0  0  0
 24 23  1  0  0  0  0
 25 23  4  0  0  0  0
 26 25  1  0  0  0  0
 27 25  4  0  0  0  0
 28 27  1  0  0  0  0
 29 27  4  0  0  0  0
 30 29  1  0  0  0  0
 31  9  1  0  0  0  0
 32  4  1  0  0  0  0
 33 32  1  0  0  0  0
 34 32  1  0  0  0  0
 35 34  1  0  0  0  0
 36 34  1  0  0  0  0
 37 34  1  0  0  0  0
 38 32  1  0  0  0  0
 39 38  1  0  0  0  0
 40 38  1  0  0  0  0
 41 38  1  0  0  0  0
 42  4  1  0  0  0  0
 43 42  1  0  0  0  0
 44 42  1  0  0  0  0
 45 44  1  0  0  0  0
 46 44  1  0  0  0  0
 47 44  1  0  0  0  0
 48 42  1  0  0  0  0
 49 48  1  0  0  0  0
 50 48  1  0  0  0  0
 51 48  1  0  0  0  0
 52  4  1  0  0  0  0
 53 52  1  0  0  0  0
 54 52  1  0  0  0  0
 55 54  1  0  0  0  0
 56 54  1  0  0  0  0
 57 54  1  0  0  0  0
 58 52  1  0  0  0  0
 59 58  1  0  0  0  0
 60 58  1  0  0  0  0
 61 58  1  0  0  0  0
 62  5  1  0  0  0  0
 63 62  1  0  0  0  0
 64 62  1  0  0  0  0
 65 64  1  0  0  0  0
 66 64  1  0  0  0  0
 67 64  1  0  0  0  0
 68 62  1  0  0  0  0
 69 68  1  0  0  0  0
 70 68  1  0  0  0  0
 71 68  1  0  0  0  0
 72  5  1  0  0  0  0
 73 72  1  0  0  0  0
 74 72  1  0  0  0  0
 75 74  1  0  0  0  0
 76 74  1  0  0  0  0
 77 74  1  0  0  0  0
 78 72  1  0  0  0  0
 79 78  1  0  0  0  0
 80 78  1  0  0  0  0
 81 78  1  0  0  0  0
 82  5  1  0  0  0  0
 83 82  1  0  0  0  0
 84 82  1  0  0  0  0
 85 84  1  0  0  0  0
 86 84  1  0  0  0  0
 87 84  1  0  0  0  0
 88 82  1  0  0  0  0
 89 88  1  0  0  0  0
 90 88  1  0  0  0  0
 91 88  1  0  0  0  0
 12 21  4  0  0  0  0
 19 21  4  0  0  0  0
 22 31  4  0  0  0  0
 29 31  4  0  0  0  0
M  END
$$$$
CETHUG

From CSD data. Using bond type 'Any'. No disordered atoms. Largest molecule.
 99120  0  0  0  0  0  0  0  0999 V2000
   16.8946   10.1466    9.4294 Au  0  0  0  0  0  0  0  0  0  0  0  0
   14.7898   11.2689    9.2333 P   0  0  0  0  0  0  0  0  0  0  0  0
   17.5115   12.1215   10.6293 P   0  0  0  0  0  0  0  0  0  0  0  0
   17.8284    8.0983    9.2546 P   0  0  0  0  0  0  0  0  0  0  0  0
   16.4428   14.9531   10.6304 B   0  0  0  0  0  0  0  0  0  0  0  0
   16.9663   15.1357   11.5755 H   0  0  0  0  0  0  0  0  0  0  0  0
   14.8022   15.6357   10.2230 B   0  0  0  0  0  0  0  0  0  0  0  0
   14.7876   14.6411   10.7958 H   0  0  0  0  0  0  0  0  0  0  0  0
   14.3706   16.4591   10.7420 H   0  0  0  0  0  0  0  0  0  0  0  0
   14.0355   14.2277    9.3397 B   0  0  0  0  0  0  0  0  0  0  0  0
   13.0898   14.0899    9.3841 H   0  0  0  0  0  0  0  0  0  0  0  0
   16.5028   13.4312    8.2494 B   0  0  0  0  0  0  0  0  0  0  0  0
   17.0336   12.6810    7.7305 H   0  0  0  0  0  0  0  0  0  0  0  0
   17.3275   14.7517    9.1045 B   0  0  0  0  0  0  0  0  0  0  0  0
   18.3000   14.8050    9.1152 H   0  0  0  0  0  0  0  0  0  0  0  0
   16.2320   16.0666    9.2833 B   0  0  0  0  0  0  0  0  0  0  0  0
   16.5445   17.0311    9.2766 H   0  0  0  0  0  0  0  0  0  0  0  0
   14.6859   15.6027    8.4672 B   0  0  0  0  0  0  0  0  0  0  0  0
   14.1372   16.3253    8.0397 H   0  0  0  0  0  0  0  0  0  0  0  0
   14.8970   14.0178    7.8152 B   0  0  0  0  0  0  0  0  0  0  0  0
   14.4004   13.6746    7.0582 H   0  0  0  0  0  0  0  0  0  0  0  0
   16.2580   15.1047    7.7815 B   0  0  0  0  0  0  0  0  0  0  0  0
   16.6924   15.5239    6.9507 H   0  0  0  0  0  0  0  0  0  0  0  0
   17.5687    7.1520    8.0007 O   0  0  0  0  0  0  0  0  0  0  0  0
   15.1468   13.0480    9.2389 C   0  0  0  0  0  0  0  0  0  0  0  0
   16.5130   13.4768    9.9622 C   0  0  0  0  0  0  0  0  0  0  0  0
   13.6383   10.9876    7.8689 C   0  0  0  0  0  0  0  0  0  0  0  0
   12.2807   10.9273    8.0437 C   0  0  0  0  0  0  0  0  0  0  0  0
   11.9063   11.0515    8.9082 H   0  0  0  0  0  0  0  0  0  0  0  0
   11.4486   10.6812    6.9493 C   0  0  0  0  0  0  0  0  0  0  0  0
   10.5057   10.6640    7.0650 H   0  0  0  0  0  0  0  0  0  0  0  0
   11.9892   10.4660    5.7179 C   0  0  0  0  0  0  0  0  0  0  0  0
   11.4186   10.2969    4.9757 H   0  0  0  0  0  0  0  0  0  0  0  0
   13.3381   10.4912    5.5390 C   0  0  0  0  0  0  0  0  0  0  0  0
   13.7017   10.3372    4.6746 H   0  0  0  0  0  0  0  0  0  0  0  0
   14.1922   10.7410    6.6106 C   0  0  0  0  0  0  0  0  0  0  0  0
   15.1339   10.7425    6.4882 H   0  0  0  0  0  0  0  0  0  0  0  0
   13.8654   10.8817   10.7500 C   0  0  0  0  0  0  0  0  0  0  0  0
   12.9995   11.7358   11.3913 C   0  0  0  0  0  0  0  0  0  0  0  0
   12.8401   12.5981   11.0270 H   0  0  0  0  0  0  0  0  0  0  0  0
   12.3549   11.3617   12.5556 C   0  0  0  0  0  0  0  0  0  0  0  0
   11.7727   11.9717   12.9939 H   0  0  0  0  0  0  0  0  0  0  0  0
   12.5582   10.1121   13.0759 C   0  0  0  0  0  0  0  0  0  0  0  0
   12.1064    9.8437   13.8678 H   0  0  0  0  0  0  0  0  0  0  0  0
   13.4113    9.2572   12.4507 C   0  0  0  0  0  0  0  0  0  0  0  0
   13.5674    8.3987   12.8272 H   0  0  0  0  0  0  0  0  0  0  0  0
   14.0495    9.6028   11.2986 C   0  0  0  0  0  0  0  0  0  0  0  0
   14.6193    8.9786   10.8657 H   0  0  0  0  0  0  0  0  0  0  0  0
   19.2392   12.6653   10.6089 C   0  0  0  0  0  0  0  0  0  0  0  0
   19.9984   12.3859    9.4930 C   0  0  0  0  0  0  0  0  0  0  0  0
   19.6220   11.8952    8.7724 H   0  0  0  0  0  0  0  0  0  0  0  0
   21.3017   12.8202    9.4258 C   0  0  0  0  0  0  0  0  0  0  0  0
   21.8189   12.6471    8.6474 H   0  0  0  0  0  0  0  0  0  0  0  0
   21.8582   13.5028   10.4838 C   0  0  0  0  0  0  0  0  0  0  0  0
   22.7661   13.7839   10.4449 H   0  0  0  0  0  0  0  0  0  0  0  0
   21.1085   13.7758   11.5863 C   0  0  0  0  0  0  0  0  0  0  0  0
   21.4946   14.2462   12.3150 H   0  0  0  0  0  0  0  0  0  0  0  0
   19.7964   13.3769   11.6481 C   0  0  0  0  0  0  0  0  0  0  0  0
   19.2720   13.5905   12.4118 H   0  0  0  0  0  0  0  0  0  0  0  0
   17.0379   11.9400   12.3634 C   0  0  0  0  0  0  0  0  0  0  0  0
   15.9256   12.5327   12.9052 C   0  0  0  0  0  0  0  0  0  0  0  0
   15.4315   13.1629   12.3929 H   0  0  0  0  0  0  0  0  0  0  0  0
   15.5176   12.2234   14.1743 C   0  0  0  0  0  0  0  0  0  0  0  0
   14.7508   12.6502   14.5373 H   0  0  0  0  0  0  0  0  0  0  0  0
   16.2065   11.2980   14.9366 C   0  0  0  0  0  0  0  0  0  0  0  0
   15.9073   11.0682   15.8091 H   0  0  0  0  0  0  0  0  0  0  0  0
   17.3337   10.7168   14.4096 C   0  0  0  0  0  0  0  0  0  0  0  0
   17.8277   10.0950   14.9299 H   0  0  0  0  0  0  0  0  0  0  0  0
   17.7565   11.0248   13.1283 C   0  0  0  0  0  0  0  0  0  0  0  0
   18.5353   10.6137   12.7721 H   0  0  0  0  0  0  0  0  0  0  0  0
   19.6111    7.9838    9.5051 C   0  0  0  0  0  0  0  0  0  0  0  0
   20.3055    9.0039   10.1316 C   0  0  0  0  0  0  0  0  0  0  0  0
   19.8409    9.7875   10.3991 H   0  0  0  0  0  0  0  0  0  0  0  0
   21.6487    8.9062   10.3736 C   0  0  0  0  0  0  0  0  0  0  0  0
   22.0984    9.6074   10.8294 H   0  0  0  0  0  0  0  0  0  0  0  0
   22.3467    7.8002    9.9595 C   0  0  0  0  0  0  0  0  0  0  0  0
   23.2852    7.7425   10.1020 H   0  0  0  0  0  0  0  0  0  0  0  0
   21.6771    6.7781    9.3370 C   0  0  0  0  0  0  0  0  0  0  0  0
   22.1566    6.0061    9.0628 H   0  0  0  0  0  0  0  0  0  0  0  0
   20.3196    6.8532    9.1045 C   0  0  0  0  0  0  0  0  0  0  0  0
   19.8690    6.1374    8.6742 H   0  0  0  0  0  0  0  0  0  0  0  0
   17.1026    7.0893   10.5739 C   0  0  0  0  0  0  0  0  0  0  0  0
   17.0679    7.6208   11.8498 C   0  0  0  0  0  0  0  0  0  0  0  0
   17.4563    8.4695   12.0205 H   0  0  0  0  0  0  0  0  0  0  0  0
   16.4664    6.9165   12.8769 C   0  0  0  0  0  0  0  0  0  0  0  0
   16.4572    7.2876   13.7521 H   0  0  0  0  0  0  0  0  0  0  0  0
   15.8859    5.7019   12.6618 C   0  0  0  0  0  0  0  0  0  0  0  0
   15.4686    5.2233   13.3690 H   0  0  0  0  0  0  0  0  0  0  0  0
   15.9246    5.1906   11.3765 C   0  0  0  0  0  0  0  0  0  0  0  0
   15.5360    4.3430   11.1937 H   0  0  0  0  0  0  0  0  0  0  0  0
   16.5337    5.9160   10.3386 C   0  0  0  0  0  0  0  0  0  0  0  0
   16.5371    5.5603    9.4567 H   0  0  0  0  0  0  0  0  0  0  0  0
   17.8312    7.6485    6.6737 C   0  0  0  0  0  0  0  0  0  0  0  0
   18.6871    8.1453    6.6670 H   0  0  0  0  0  0  0  0  0  0  0  0
   17.1108    8.2688    6.4008 H   0  0  0  0  0  0  0  0  0  0  0  0
   17.9030    6.5325    5.7367 C   0  0  0  0  0  0  0  0  0  0  0  0
   18.6701    5.9663    5.9598 H   0  0  0  0  0  0  0  0  0  0  0  0
   18.0048    6.8771    4.8252 H   0  0  0  0  0  0  0  0  0  0  0  0
   17.0794    6.0040    5.7945 H   0  0  0  0  0  0  0  0  0  0  0  0
  1  2  1  0  0  0  0
  2 25  1  0  0  0  0
  3  1  1  0  0  0  0
  4  1  1  0  0  0  0
  5  6  1  0  0  0  0
  7  5  1  0  0  0  0
  8  7  1  0  0  0  0
  9  7  1  0  0  0  0
 10  7  1  0  0  0  0
 11 10  1  0  0  0  0
 12 13  1  0  0  0  0
 14  5  1  0  0  0  0
 15 14  1  0  0  0  0
 16  5  1  0  0  0  0
 17 16  1  0  0  0  0
 18  7  1  0  0  0  0
 19 18  1  0  0  0  0
 20 10  1  0  0  0  0
 21 20  1  0  0  0  0
 22 12  1  0  0  0  0
 23 22  1  0  0  0  0
 24  4  1  0  0  0  0
 25 10  1  0  0  0  0
 26  3  1  0  0  0  0
 27  2  1  0  0  0  0
 28 27  4  0  0  0  0
 29 28  1  0  0  0  0
 30 28  4  0  0  0  0
 31 30  1  0  0  0  0
 32 30  4  0  0  0  0
 33 32  1  0  0  0  0
 34 32  4  0  0  0  0
 35 34  1  0  0  0  0
 36 27  4  0  0  0  0
 37 36  1  0  0  0  0
 38  2  1  0  0  0  0
 39 38  4  0  0  0  0
 40 39  1  0  0  0  0
 41 39  4  0  0  0  0
 42 41  1  0  0  0  0
 43 41  4  0  0  0  0
 44 43  1  0  0  0  0
 45 43  4  0  0  0  0
 46 45  1  0  0  0  0
 47 38  4  0  0  0  0
 48 47  1  0  0  0  0
 49  3  1  0  0  0  0
 50 49  4  0  0  0  0
 51 50  1  0  0  0  0
 52 50  4  0  0  0  0
 53 52  1  0  0  0  0
 54 52  4  0  0  0  0
 55 54  1  0  0  0  0
 56 54  4  0  0  0  0
 57 56  1  0  0  0  0
 58 49  4  0  0  0  0
 59 58  1  0  0  0  0
 60  3  1  0  0  0  0
 61 60  4  0  0  0  0
 62 61  1  0  0  0  0
 63 61  4  0  0  0  0
 64 63  1  0  0  0  0
 65 63  4  0  0  0  0
 66 65  1  0  0  0  0
 67 65  4  0  0  0  0
 68 67  1  0  0  0  0
 69 60  4  0  0  0  0
 70 69  1  0  0  0  0
 71  4  1  0  0  0  0
 72 71  4  0  0  0  0
 73 72  1  0  0  0  0
 74 72  4  0  0  0  0
 75 74  1  0  0  0  0
 76 74  4  0  0  0  0
 77 76  1  0  0  0  0
 78 76  4  0  0  0  0
 79 78  1  0  0  0  0
 80 71  4  0  0  0  0
 81 80  1  0  0  0  0
 82  4  1  0  0  0  0
 83 82  4  0  0  0  0
 84 83  1  0  0  0  0
 85 83  4  0  0  0  0
 86 85  1  0  0  0  0
 87 85  4  0  0  0  0
 88 87  1  0  0  0  0
 89 87  4  0  0  0  0
 90 89  1  0  0  0  0
 91 82  4  0  0  0  0
 92 91  1  0  0  0  0
 93 24  1  0  0  0  0
 94 93  1  0  0  0  0
 95 93  1  0  0  0  0
 96 93  1  0  0  0  0
 97 96  1  0  0  0  0
 98 96  1  0  0  0  0
 99 96  1  0  0  0  0
  5 26  1  0  0  0  0
  7 16  1  0  0  0  0
 10 18  1  0  0  0  0
 12 14  1  0  0  0  0
 12 20  1  0  0  0  0
 12 25  1  0  0  0  0
 12 26  1  0  0  0  0
 14 16  1  0  0  0  0
 14 22  1  0  0  0  0
 14 26  1  0  0  0  0
 16 18  1  0  0  0  0
 16 22  1  0  0  0  0
 18 20  1  0  0  0  0
 18 22  1  0  0  0  0
 20 22  1  0  0  0  0
 20 25  1  0  0  0  0
 25 26  1  0  0  0  0
 34 36  4  0  0  0  0
 45 47  4  0  0  0  0
 56 58  4  0  0  0  0
 67 69  4  0  0  0  0
 78 80  4  0  0  0  0
 89 91  4  0  0  0  0
M  END
$$$$
CEVDIS

From CSD data. Using bond type 'Any'. No disordered atoms. Largest molecule.
 96118  0  0  0  0  0  0  0  0999 V2000
    1.3929    5.3525    1.6405 Ir  0  0  0  0  0  0  0  0  0  0  0  0
    1.7386    2.6575    2.1150 Rh  0  0  0  0  0  0  0  0  0  0  0  0
    0.0530    3.5891    0.6113 S   0  0  0  0  0  0  0  0  0  0  0  0
    1.8216    4.5498    4.5238 O   0  0  0  0  0  0  0  0  0  0  0  0
    1.6928    4.3296    3.3802 C   0  0  0  0  0  0  0  0  0  0  0  0
   -0.5298    6.4119    2.4099 P   0  0  0  0  0  0  0  0  0  0  0  0
   -2.0854    5.7635    1.7184 C   0  0  0  0  0  0  0  0  0  0  0  0
   -2.1838    4.8192    1.9653 H   0  0  0  0  0  0  0  0  0  0  0  0
   -2.0674    5.8459    0.7419 H   0  0  0  0  0  0  0  0  0  0  0  0
   -2.8401    6.2755    2.0770 H   0  0  0  0  0  0  0  0  0  0  0  0
   -0.7929    8.1958    2.1126 C   0  0  0  0  0  0  0  0  0  0  0  0
   -1.6721    8.4575    2.4578 H   0  0  0  0  0  0  0  0  0  0  0  0
   -0.7531    8.3751    1.1497 H   0  0  0  0  0  0  0  0  0  0  0  0
   -0.0948    8.7096    2.5696 H   0  0  0  0  0  0  0  0  0  0  0  0
   -0.8676    6.2884    4.1983 C   0  0  0  0  0  0  0  0  0  0  0  0
   -0.1338    6.7001    4.6982 H   0  0  0  0  0  0  0  0  0  0  0  0
   -0.9471    5.3441    4.4513 H   0  0  0  0  0  0  0  0  0  0  0  0
   -1.7064    6.7516    4.4046 H   0  0  0  0  0  0  0  0  0  0  0  0
    2.7411    7.0801    2.2522 P   0  0  0  0  0  0  0  0  0  0  0  0
    4.5337    6.7878    2.2109 C   0  0  0  0  0  0  0  0  0  0  0  0
    5.0042    7.6109    2.4603 H   0  0  0  0  0  0  0  0  0  0  0  0
    4.8002    6.5200    1.3057 H   0  0  0  0  0  0  0  0  0  0  0  0
    4.7629    6.0749    2.8423 H   0  0  0  0  0  0  0  0  0  0  0  0
    2.6597    8.6412    1.3069 C   0  0  0  0  0  0  0  0  0  0  0  0
    1.7571    9.0184    1.3757 H   0  0  0  0  0  0  0  0  0  0  0  0
    2.8704    8.4652    0.3660 H   0  0  0  0  0  0  0  0  0  0  0  0
    3.3087    9.2782    1.6729 H   0  0  0  0  0  0  0  0  0  0  0  0
    2.5028    7.6536    3.9538 C   0  0  0  0  0  0  0  0  0  0  0  0
    2.5619    6.8905    4.5668 H   0  0  0  0  0  0  0  0  0  0  0  0
    1.6204    8.0715    4.0374 H   0  0  0  0  0  0  0  0  0  0  0  0
    3.1972    8.3082    4.1786 H   0  0  0  0  0  0  0  0  0  0  0  0
    0.0360    1.4669    3.2201 P   0  0  0  0  0  0  0  0  0  0  0  0
   -1.4762    1.2945    2.2158 C   0  0  0  0  0  0  0  0  0  0  0  0
   -1.2421    0.9443    1.3315 H   0  0  0  0  0  0  0  0  0  0  0  0
   -1.9047    2.1716    2.1176 H   0  0  0  0  0  0  0  0  0  0  0  0
   -2.0939    0.6767    2.6592 H   0  0  0  0  0  0  0  0  0  0  0  0
   -0.6915    2.1631    4.7424 C   0  0  0  0  0  0  0  0  0  0  0  0
   -1.4838    1.6441    4.9930 H   0  0  0  0  0  0  0  0  0  0  0  0
   -0.9471    3.0953    4.5852 H   0  0  0  0  0  0  0  0  0  0  0  0
   -0.0321    2.1227    5.4671 H   0  0  0  0  0  0  0  0  0  0  0  0
    0.2716   -0.2792    3.6849 C   0  0  0  0  0  0  0  0  0  0  0  0
   -0.5619   -0.6330    4.0583 H   0  0  0  0  0  0  0  0  0  0  0  0
    0.9837   -0.3448    4.3543 H   0  0  0  0  0  0  0  0  0  0  0  0
    0.5198   -0.7976    2.8914 H   0  0  0  0  0  0  0  0  0  0  0  0
    3.4257    1.5168    3.1229 P   0  0  0  0  0  0  0  0  0  0  0  0
    3.9990   -0.0118    2.2932 C   0  0  0  0  0  0  0  0  0  0  0  0
    5.2889   -0.5028    2.5192 C   0  0  0  0  0  0  0  0  0  0  0  0
    5.8706   -0.0386    3.1112 H   0  0  0  0  0  0  0  0  0  0  0  0
    5.7313   -1.6593    1.8903 C   0  0  0  0  0  0  0  0  0  0  0  0
    6.6181   -1.9683    2.0304 H   0  0  0  0  0  0  0  0  0  0  0  0
    4.8721   -2.3623    1.0563 C   0  0  0  0  0  0  0  0  0  0  0  0
    5.1680   -3.1545    0.6240 H   0  0  0  0  0  0  0  0  0  0  0  0
    3.5783   -1.9017    0.8573 C   0  0  0  0  0  0  0  0  0  0  0  0
    2.9815   -2.3955    0.3071 H   0  0  0  0  0  0  0  0  0  0  0  0
    3.1471   -0.7233    1.4580 C   0  0  0  0  0  0  0  0  0  0  0  0
    2.2674   -0.4040    1.2958 H   0  0  0  0  0  0  0  0  0  0  0  0
    4.9634    2.5141    3.3115 C   0  0  0  0  0  0  0  0  0  0  0  0
    5.0806    3.3971    4.3887 C   0  0  0  0  0  0  0  0  0  0  0  0
    4.3979    3.4272    5.0482 H   0  0  0  0  0  0  0  0  0  0  0  0
    6.1817    4.2300    4.5041 C   0  0  0  0  0  0  0  0  0  0  0  0
    6.2483    4.8321    5.2374 H   0  0  0  0  0  0  0  0  0  0  0  0
    7.1864    4.1865    3.5522 C   0  0  0  0  0  0  0  0  0  0  0  0
    7.9513    4.7446    3.6394 H   0  0  0  0  0  0  0  0  0  0  0  0
    7.0728    3.3274    2.4750 C   0  0  0  0  0  0  0  0  0  0  0  0
    7.7610    3.2986    1.8215 H   0  0  0  0  0  0  0  0  0  0  0  0
    5.9579    2.5030    2.3399 C   0  0  0  0  0  0  0  0  0  0  0  0
    5.8767    1.9323    1.5833 H   0  0  0  0  0  0  0  0  0  0  0  0
    3.1859    0.9301    4.8542 C   0  0  0  0  0  0  0  0  0  0  0  0
    2.5870    1.7877    5.7914 C   0  0  0  0  0  0  0  0  0  0  0  0
    2.2921    2.6476    5.5175 H   0  0  0  0  0  0  0  0  0  0  0  0
    2.4186    1.3951    7.1118 C   0  0  0  0  0  0  0  0  0  0  0  0
    2.0176    1.9864    7.7382 H   0  0  0  0  0  0  0  0  0  0  0  0
    2.8349    0.1389    7.5171 C   0  0  0  0  0  0  0  0  0  0  0  0
    2.7305   -0.1261    8.4236 H   0  0  0  0  0  0  0  0  0  0  0  0
    3.4048   -0.7377    6.6033 C   0  0  0  0  0  0  0  0  0  0  0  0
    3.6677   -1.6081    6.8821 H   0  0  0  0  0  0  0  0  0  0  0  0
    3.5949   -0.3443    5.2718 C   0  0  0  0  0  0  0  0  0  0  0  0
    3.9988   -0.9417    4.6527 H   0  0  0  0  0  0  0  0  0  0  0  0
    0.7811    5.1311   -0.5896 B   0  0  0  0  0  0  0  0  0  0  0  0
    0.1218    5.9771   -0.9114 H   0  0  0  0  0  0  0  0  0  0  0  0
    2.5437    5.3418   -0.2837 B   0  0  0  0  0  0  0  0  0  0  0  0
    3.0268    6.3450   -0.4066 H   0  0  0  0  0  0  0  0  0  0  0  0
    3.1807    4.0993    0.9360 B   0  0  0  0  0  0  0  0  0  0  0  0
    4.0782    4.3252    1.5673 H   0  0  0  0  0  0  0  0  0  0  0  0
    2.9455    2.4379    0.1941 B   0  0  0  0  0  0  0  0  0  0  0  0
    3.6868    1.6184    0.3734 H   0  0  0  0  0  0  0  0  0  0  0  0
    1.2223    2.0527   -0.0933 B   0  0  0  0  0  0  0  0  0  0  0  0
    0.8388    1.0009   -0.1204 H   0  0  0  0  0  0  0  0  0  0  0  0
    0.5850    3.3709   -1.2737 B   0  0  0  0  0  0  0  0  0  0  0  0
   -0.2395    3.1339   -1.9935 H   0  0  0  0  0  0  0  0  0  0  0  0
    1.9377    4.4191   -1.7061 B   0  0  0  0  0  0  0  0  0  0  0  0
    2.0012    4.8501   -2.7378 H   0  0  0  0  0  0  0  0  0  0  0  0
    3.3636    3.8459   -0.8119 B   0  0  0  0  0  0  0  0  0  0  0  0
    4.3864    3.9135   -1.2627 H   0  0  0  0  0  0  0  0  0  0  0  0
    2.1939    2.6749   -1.4199 B   0  0  0  0  0  0  0  0  0  0  0  0
    2.4285    1.9864   -2.2723 H   0  0  0  0  0  0  0  0  0  0  0  0
  1  2  1  0  0  0  0
  2  3  1  0  0  0  0
  3  1  1  0  0  0  0
  4  5  2  0  0  0  0
  5  1  1  0  0  0  0
  6  1  1  0  0  0  0
  7  6  1  0  0  0  0
  8  7  1  0  0  0  0
  9  7  1  0  0  0  0
 10  7  1  0  0  0  0
 11  6  1  0  0  0  0
 12 11  1  0  0  0  0
 13 11  1  0  0  0  0
 14 11  1  0  0  0  0
 15  6  1  0  0  0  0
 16 15  1  0  0  0  0
 17 15  1  0  0  0  0
 18 15  1  0  0  0  0
 19  1  1  0  0  0  0
 20 19  1  0  0  0  0
 21 20  1  0  0  0  0
 22 20  1  0  0  0  0
 23 20  1  0  0  0  0
 24 19  1  0  0  0  0
 25 24  1  0  0  0  0
 26 24  1  0  0  0  0
 27 24  1  0  0  0  0
 28 19  1  0  0  0  0
 29 28  1  0  0  0  0
 30 28  1  0  0  0  0
 31 28  1  0  0  0  0
 32  2  1  0  0  0  0
 33 32  1  0  0  0  0
 34 33  1  0  0  0  0
 35 33  1  0  0  0  0
 36 33  1  0  0  0  0
 37 32  1  0  0  0  0
 38 37  1  0  0  0  0
 39 37  1  0  0  0  0
 40 37  1  0  0  0  0
 41 32  1  0  0  0  0
 42 41  1  0  0  0  0
 43 41  1  0  0  0  0
 44 41  1  0  0  0  0
 45  2  1  0  0  0  0
 46 45  1  0  0  0  0
 47 46  4  0  0  0  0
 48 47  1  0  0  0  0
 49 47  4  0  0  0  0
 50 49  1  0  0  0  0
 51 49  4  0  0  0  0
 52 51  1  0  0  0  0
 53 51  4  0  0  0  0
 54 53  1  0  0  0  0
 55 46  4  0  0  0  0
 56 55  1  0  0  0  0
 57 45  1  0  0  0  0
 58 57  4  0  0  0  0
 59 58  1  0  0  0  0
 60 58  4  0  0  0  0
 61 60  1  0  0  0  0
 62 60  4  0  0  0  0
 63 62  1  0  0  0  0
 64 62  4  0  0  0  0
 65 64  1  0  0  0  0
 66 57  4  0  0  0  0
 67 66  1  0  0  0  0
 68 45  1  0  0  0  0
 69 68  4  0  0  0  0
 70 69  1  0  0  0  0
 71 69  4  0  0  0  0
 72 71  1  0  0  0  0
 73 71  4  0  0  0  0
 74 73  1  0  0  0  0
 75 73  4  0  0  0  0
 76 75  1  0  0  0  0
 77 68  4  0  0  0  0
 78 77  1  0  0  0  0
 79  1  1  0  0  0  0
 80 79  1  0  0  0  0
 81  1  1  0  0  0  0
 82 81  1  0  0  0  0
 83  1  1  0  0  0  0
 84 83  1  0  0  0  0
 85  2  1  0  0  0  0
 86 85  1  0  0  0  0
 87  2  1  0  0  0  0
 88 87  1  0  0  0  0
 89  3  1  0  0  0  0
 90 89  1  0  0  0  0
 91 79  1  0  0  0  0
 92 91  1  0  0  0  0
 93 81  1  0  0  0  0
 94 93  1  0  0  0  0
 95 85  1  0  0  0  0
 96 95  1  0  0  0  0
  2  5  1  0  0  0  0
  2 83  1  0  0  0  0
  3 79  1  0  0  0  0
  3 87  1  0  0  0  0
 53 55  4  0  0  0  0
 64 66  4  0  0  0  0
 75 77  4  0  0  0  0
 79 81  1  0  0  0  0
 79 89  1  0  0  0  0
 81 83  1  0  0  0  0
 81 91  1  0  0  0  0
 83 85  1  0  0  0  0
 83 93  1  0  0  0  0
 85 87  1  0  0  0  0
 85 93  1  0  0  0  0
 87 89  1  0  0  0  0
 87 95  1  0  0  0  0
 89 91  1  0  0  0  0
 89 95  1  0  0  0  0
 91 93  1  0  0  0  0
 91 95  1  0  0  0  0
 93 95  1  0  0  0  0
M  END
$$$$
CEVDOY

From CSD data. Using bond type 'Any'. No disordered atoms. Largest molecule.
 91110  0  0  0  0  0  0  0  0999 V2000
    0.0322   17.2900    0.0184 Rh  0  0  0  0  0  0  0  0  0  0  0  0
    0.5848   16.5246    1.2765 H   0  0  0  0  0  0  0  0  0  0  0  0
   -0.4216   14.0585    2.3536 S   0  0  0  0  0  0  0  0  0  0  0  0
    0.3208   18.9547    1.6820 P   0  0  0  0  0  0  0  0  0  0  0  0
   -0.6613   18.5784   -1.9589 P   0  0  0  0  0  0  0  0  0  0  0  0
    2.9126   17.3100   -0.9599 O   0  0  0  0  0  0  0  0  0  0  0  0
    1.8332   17.3538   -0.6127 C   0  0  0  0  0  0  0  0  0  0  0  0
   -1.5677   14.1684   -0.4812 B   0  0  0  0  0  0  0  0  0  0  0  0
   -1.9667   13.5905   -1.3255 H   0  0  0  0  0  0  0  0  0  0  0  0
   -1.8937   13.6391    1.1655 B   0  0  0  0  0  0  0  0  0  0  0  0
   -2.5227   12.7664    1.3884 H   0  0  0  0  0  0  0  0  0  0  0  0
   -2.6859   15.0823    0.5553 B   0  0  0  0  0  0  0  0  0  0  0  0
   -3.7118   15.0391    0.4321 H   0  0  0  0  0  0  0  0  0  0  0  0
   -1.6397   15.9362   -0.6047 B   0  0  0  0  0  0  0  0  0  0  0  0
   -2.1137   16.2860   -1.4757 H   0  0  0  0  0  0  0  0  0  0  0  0
   -0.1158   13.7126    0.4636 B   0  0  0  0  0  0  0  0  0  0  0  0
    0.3851   12.8163    0.2528 H   0  0  0  0  0  0  0  0  0  0  0  0
    0.6885   14.7312    0.1732 H   0  0  0  0  0  0  0  0  0  0  0  0
   -1.9610   15.2421    2.1877 B   0  0  0  0  0  0  0  0  0  0  0  0
   -2.4793   15.1844    3.0495 H   0  0  0  0  0  0  0  0  0  0  0  0
   -1.4210   16.3359    2.1162 H   0  0  0  0  0  0  0  0  0  0  0  0
   -1.9439   16.6694    0.9924 B   0  0  0  0  0  0  0  0  0  0  0  0
   -2.7142   17.4267    1.2412 H   0  0  0  0  0  0  0  0  0  0  0  0
   -0.0609   15.1248   -0.7621 B   0  0  0  0  0  0  0  0  0  0  0  0
    0.3789   14.8830   -1.6872 H   0  0  0  0  0  0  0  0  0  0  0  0
   -0.5070   20.5657    1.4550 C   0  0  0  0  0  0  0  0  0  0  0  0
   -1.8344   20.5460    1.0224 C   0  0  0  0  0  0  0  0  0  0  0  0
   -2.2675   19.7146    0.8658 H   0  0  0  0  0  0  0  0  0  0  0  0
   -2.5276   21.7381    0.8181 C   0  0  0  0  0  0  0  0  0  0  0  0
   -3.4311   21.7205    0.5271 H   0  0  0  0  0  0  0  0  0  0  0  0
   -1.8901   22.9523    1.0430 C   0  0  0  0  0  0  0  0  0  0  0  0
   -2.3549   23.7655    0.8842 H   0  0  0  0  0  0  0  0  0  0  0  0
   -0.5772   22.9852    1.4975 C   0  0  0  0  0  0  0  0  0  0  0  0
   -0.1516   23.8175    1.6627 H   0  0  0  0  0  0  0  0  0  0  0  0
    0.1159   21.7912    1.7115 C   0  0  0  0  0  0  0  0  0  0  0  0
    1.0105   21.8116    2.0304 H   0  0  0  0  0  0  0  0  0  0  0  0
    2.0822   19.4071    1.9060 C   0  0  0  0  0  0  0  0  0  0  0  0
    2.7114   20.0641    0.8387 C   0  0  0  0  0  0  0  0  0  0  0  0
    2.2324   20.2177    0.0322 H   0  0  0  0  0  0  0  0  0  0  0  0
    4.0279   20.4944    0.9482 C   0  0  0  0  0  0  0  0  0  0  0  0
    4.4335   20.9723    0.2345 H   0  0  0  0  0  0  0  0  0  0  0  0
    4.7498   20.2237    2.1029 C   0  0  0  0  0  0  0  0  0  0  0  0
    5.6525   20.5104    2.1775 H   0  0  0  0  0  0  0  0  0  0  0  0
    4.1530   19.5361    3.1462 C   0  0  0  0  0  0  0  0  0  0  0  0
    4.6580   19.3264    3.9229 H   0  0  0  0  0  0  0  0  0  0  0  0
    2.8147   19.1481    3.0631 C   0  0  0  0  0  0  0  0  0  0  0  0
    2.4030   18.7062    3.7958 H   0  0  0  0  0  0  0  0  0  0  0  0
   -0.2416   18.4657    3.3563 C   0  0  0  0  0  0  0  0  0  0  0  0
    0.2766   17.3152    3.9542 C   0  0  0  0  0  0  0  0  0  0  0  0
    0.8970   16.7740    3.4801 H   0  0  0  0  0  0  0  0  0  0  0  0
   -0.1144   16.9574    5.2475 C   0  0  0  0  0  0  0  0  0  0  0  0
    0.2588   16.1884    5.6622 H   0  0  0  0  0  0  0  0  0  0  0  0
   -1.0513   17.7288    5.9267 C   0  0  0  0  0  0  0  0  0  0  0  0
   -1.3148   17.4874    6.8069 H   0  0  0  0  0  0  0  0  0  0  0  0
   -1.6000   18.8437    5.3265 C   0  0  0  0  0  0  0  0  0  0  0  0
   -2.2576   19.3546    5.7833 H   0  0  0  0  0  0  0  0  0  0  0  0
   -1.1883   19.2210    4.0481 C   0  0  0  0  0  0  0  0  0  0  0  0
   -1.5555   19.9986    3.6456 H   0  0  0  0  0  0  0  0  0  0  0  0
   -2.2607   19.4626   -2.1021 C   0  0  0  0  0  0  0  0  0  0  0  0
   -3.3979   18.9714   -1.4484 C   0  0  0  0  0  0  0  0  0  0  0  0
   -3.3358   18.1879   -0.9133 H   0  0  0  0  0  0  0  0  0  0  0  0
   -4.6210   19.6287   -1.5819 C   0  0  0  0  0  0  0  0  0  0  0  0
   -5.3954   19.2852   -1.1524 H   0  0  0  0  0  0  0  0  0  0  0  0
   -4.7051   20.7804   -2.3409 C   0  0  0  0  0  0  0  0  0  0  0  0
   -5.5328   21.2412   -2.4059 H   0  0  0  0  0  0  0  0  0  0  0  0
   -3.5925   21.2688   -3.0070 C   0  0  0  0  0  0  0  0  0  0  0  0
   -3.6590   22.0588   -3.5306 H   0  0  0  0  0  0  0  0  0  0  0  0
   -2.3740   20.5957   -2.9053 C   0  0  0  0  0  0  0  0  0  0  0  0
   -1.6175   20.9116   -3.3866 H   0  0  0  0  0  0  0  0  0  0  0  0
   -0.6451   17.5818   -3.4998 C   0  0  0  0  0  0  0  0  0  0  0  0
   -1.6799   17.6444   -4.4328 C   0  0  0  0  0  0  0  0  0  0  0  0
   -2.4319   18.2009   -4.2662 H   0  0  0  0  0  0  0  0  0  0  0  0
   -1.6191   16.8958   -5.6126 C   0  0  0  0  0  0  0  0  0  0  0  0
   -2.3312   16.9409   -6.2399 H   0  0  0  0  0  0  0  0  0  0  0  0
   -0.5214   16.0874   -5.8688 C   0  0  0  0  0  0  0  0  0  0  0  0
   -0.4767   15.5878   -6.6767 H   0  0  0  0  0  0  0  0  0  0  0  0
    0.5088   16.0082   -4.9466 C   0  0  0  0  0  0  0  0  0  0  0  0
    1.2618   15.4576   -5.1243 H   0  0  0  0  0  0  0  0  0  0  0  0
    0.4434   16.7356   -3.7582 C   0  0  0  0  0  0  0  0  0  0  0  0
    1.1416   16.6569   -3.1184 H   0  0  0  0  0  0  0  0  0  0  0  0
    0.5665   19.9050   -2.2883 C   0  0  0  0  0  0  0  0  0  0  0  0
    1.7293   19.6350   -3.0158 C   0  0  0  0  0  0  0  0  0  0  0  0
    1.8203   18.8016   -3.4632 H   0  0  0  0  0  0  0  0  0  0  0  0
    2.7548   20.5738   -3.0901 C   0  0  0  0  0  0  0  0  0  0  0  0
    3.5447   20.3781   -3.5812 H   0  0  0  0  0  0  0  0  0  0  0  0
    2.6225   21.7964   -2.4460 C   0  0  0  0  0  0  0  0  0  0  0  0
    3.3343   22.4253   -2.4718 H   0  0  0  0  0  0  0  0  0  0  0  0
    1.4507   22.1013   -1.7639 C   0  0  0  0  0  0  0  0  0  0  0  0
    1.3489   22.9523   -1.3531 H   0  0  0  0  0  0  0  0  0  0  0  0
    0.4260   21.1632   -1.6827 C   0  0  0  0  0  0  0  0  0  0  0  0
   -0.3732   21.3757   -1.2152 H   0  0  0  0  0  0  0  0  0  0  0  0
  1  2  1  0  0  0  0
  3 10  1  0  0  0  0
  4  1  1  0  0  0  0
  5  1  1  0  0  0  0
  6  7  3  0  0  0  0
  7  1  1  0  0  0  0
  8  9  1  0  0  0  0
 10  8  1  0  0  0  0
 11 10  1  0  0  0  0
 12  8  1  0  0  0  0
 13 12  1  0  0  0  0
 14  1  1  0  0  0  0
 15 14  1  0  0  0  0
 16  3  1  0  0  0  0
 17 16  1  0  0  0  0
 18 16  1  0  0  0  0
 19  3  1  0  0  0  0
 20 19  1  0  0  0  0
 21 19  1  0  0  0  0
 22  1  1  0  0  0  0
 23 22  1  0  0  0  0
 24  1  1  0  0  0  0
 25 24  1  0  0  0  0
 26  4  1  0  0  0  0
 27 26  4  0  0  0  0
 28 27  1  0  0  0  0
 29 27  4  0  0  0  0
 30 29  1  0  0  0  0
 31 29  4  0  0  0  0
 32 31  1  0  0  0  0
 33 31  4  0  0  0  0
 34 33  1  0  0  0  0
 35 26  4  0  0  0  0
 36 35  1  0  0  0  0
 37  4  1  0  0  0  0
 38 37  4  0  0  0  0
 39 38  1  0  0  0  0
 40 38  4  0  0  0  0
 41 40  1  0  0  0  0
 42 40  4  0  0  0  0
 43 42  1  0  0  0  0
 44 42  4  0  0  0  0
 45 44  1  0  0  0  0
 46 37  4  0  0  0  0
 47 46  1  0  0  0  0
 48  4  1  0  0  0  0
 49 48  4  0  0  0  0
 50 49  1  0  0  0  0
 51 49  4  0  0  0  0
 52 51  1  0  0  0  0
 53 51  4  0  0  0  0
 54 53  1  0  0  0  0
 55 53  4  0  0  0  0
 56 55  1  0  0  0  0
 57 48  4  0  0  0  0
 58 57  1  0  0  0  0
 59  5  1  0  0  0  0
 60 59  4  0  0  0  0
 61 60  1  0  0  0  0
 62 60  4  0  0  0  0
 63 62  1  0  0  0  0
 64 62  4  0  0  0  0
 65 64  1  0  0  0  0
 66 64  4  0  0  0  0
 67 66  1  0  0  0  0
 68 59  4  0  0  0  0
 69 68  1  0  0  0  0
 70  5  1  0  0  0  0
 71 70  4  0  0  0  0
 72 71  1  0  0  0  0
 73 71  4  0  0  0  0
 74 73  1  0  0  0  0
 75 73  4  0  0  0  0
 76 75  1  0  0  0  0
 77 75  4  0  0  0  0
 78 77  1  0  0  0  0
 79 70  4  0  0  0  0
 80 79  1  0  0  0  0
 81  5  1  0  0  0  0
 82 81  4  0  0  0  0
 83 82  1  0  0  0  0
 84 82  4  0  0  0  0
 85 84  1  0  0  0  0
 86 84  4  0  0  0  0
 87 86  1  0  0  0  0
 88 86  4  0  0  0  0
 89 88  1  0  0  0  0
 90 81  4  0  0  0  0
 91 90  1  0  0  0  0
  8 14  1  0  0  0  0
  8 16  1  0  0  0  0
  8 24  1  0  0  0  0
 10 12  1  0  0  0  0
 10 16  1  0  0  0  0
 10 19  1  0  0  0  0
 12 14  1  0  0  0  0
 12 19  1  0  0  0  0
 12 22  1  0  0  0  0
 14 22  1  0  0  0  0
 14 24  1  0  0  0  0
 16 24  1  0  0  0  0
 18 24  1  0  0  0  0
 19 22  1  0  0  0  0
 21 22  1  0  0  0  0
 33 35  4  0  0  0  0
 44 46  4  0  0  0  0
 55 57  4  0  0  0  0
 66 68  4  0  0  0  0
 77 79  4  0  0  0  0
 88 90  4  0  0  0  0
M  END
$$$$
CEVDUE

From CSD data. Using bond type 'Any'. No disordered atoms. Largest molecule.
 49 62  0  0  0  0  0  0  0  0999 V2000
    3.1860   11.1728   -0.7528 Ir  0  0  0  0  0  0  0  0  0  0  0  0
    3.4768    9.0049    0.0179 P   0  0  0  0  0  0  0  0  0  0  0  0
    3.1815   10.6936   -3.0699 P   0  0  0  0  0  0  0  0  0  0  0  0
    4.1734    8.9012    1.6887 C   0  0  0  0  0  0  0  0  0  0  0  0
    3.5714    9.3441    2.3220 H   0  0  0  0  0  0  0  0  0  0  0  0
    5.0482    9.3424    1.7047 H   0  0  0  0  0  0  0  0  0  0  0  0
    4.2776    7.9601    1.9399 H   0  0  0  0  0  0  0  0  0  0  0  0
    4.5500    7.8913   -0.9272 C   0  0  0  0  0  0  0  0  0  0  0  0
    4.6689    7.0542   -0.4302 H   0  0  0  0  0  0  0  0  0  0  0  0
    5.4228    8.3174   -1.0635 H   0  0  0  0  0  0  0  0  0  0  0  0
    4.1396    7.7018   -1.7956 H   0  0  0  0  0  0  0  0  0  0  0  0
    1.9672    8.0272    0.1924 C   0  0  0  0  0  0  0  0  0  0  0  0
    1.5793    7.8662   -0.6920 H   0  0  0  0  0  0  0  0  0  0  0  0
    1.3241    8.5171    0.7455 H   0  0  0  0  0  0  0  0  0  0  0  0
    2.1793    7.1700    0.6172 H   0  0  0  0  0  0  0  0  0  0  0  0
    4.7402   10.2148   -3.8637 C   0  0  0  0  0  0  0  0  0  0  0  0
    4.6222   10.2081   -4.8363 H   0  0  0  0  0  0  0  0  0  0  0  0
    4.9993    9.3190   -3.5591 H   0  0  0  0  0  0  0  0  0  0  0  0
    5.4404   10.8573   -3.6232 H   0  0  0  0  0  0  0  0  0  0  0  0
    2.0530    9.3609   -3.5751 C   0  0  0  0  0  0  0  0  0  0  0  0
    2.0296    9.3072   -4.5531 H   0  0  0  0  0  0  0  0  0  0  0  0
    1.1534    9.5488   -3.2358 H   0  0  0  0  0  0  0  0  0  0  0  0
    2.3693    8.5087   -3.2064 H   0  0  0  0  0  0  0  0  0  0  0  0
    2.5538   12.0534   -4.0882 C   0  0  0  0  0  0  0  0  0  0  0  0
    3.0976   12.8553   -3.9332 H   0  0  0  0  0  0  0  0  0  0  0  0
    1.6226   12.2396   -3.8450 H   0  0  0  0  0  0  0  0  0  0  0  0
    2.6002   11.8035   -5.0340 H   0  0  0  0  0  0  0  0  0  0  0  0
    1.2940   11.1039   -0.7428 C   0  0  0  0  0  0  0  0  0  0  0  0
    0.1556   11.0771   -0.7273 O   0  0  0  0  0  0  0  0  0  0  0  0
    4.4922   13.4569    2.1838 S   0  0  0  0  0  0  0  0  0  0  0  0
    6.0223   13.2445   -0.4329 B   0  0  0  0  0  0  0  0  0  0  0  0
    5.5310   14.3450    0.8390 B   0  0  0  0  0  0  0  0  0  0  0  0
    4.6569   14.3785   -0.7001 B   0  0  0  0  0  0  0  0  0  0  0  0
    4.6336   12.7546   -1.4162 B   0  0  0  0  0  0  0  0  0  0  0  0
    5.8794   12.5131    1.1730 B   0  0  0  0  0  0  0  0  0  0  0  0
    3.6056   14.3970    0.7321 B   0  0  0  0  0  0  0  0  0  0  0  0
    3.1030   13.4710   -0.8016 B   0  0  0  0  0  0  0  0  0  0  0  0
    5.4119   11.5585   -0.3634 B   0  0  0  0  0  0  0  0  0  0  0  0
    3.0283   11.4579    0.6573 H   0  0  0  0  0  0  0  0  0  0  0  0
    6.9234   13.3871   -0.7749 H   0  0  0  0  0  0  0  0  0  0  0  0
    6.2010   15.1318    1.1757 H   0  0  0  0  0  0  0  0  0  0  0  0
    4.8082   15.2995   -1.3093 H   0  0  0  0  0  0  0  0  0  0  0  0
    4.7441   12.8167   -2.5651 H   0  0  0  0  0  0  0  0  0  0  0  0
    6.7980   12.2967    1.8170 H   0  0  0  0  0  0  0  0  0  0  0  0
    3.0582   15.3331    0.9619 H   0  0  0  0  0  0  0  0  0  0  0  0
    2.2198   13.9071   -1.4162 H   0  0  0  0  0  0  0  0  0  0  0  0
    6.1132   10.8707   -0.6680 H   0  0  0  0  0  0  0  0  0  0  0  0
    2.7748   13.5884    0.5077 H   0  0  0  0  0  0  0  0  0  0  0  0
    5.2679   11.4579    0.7749 H   0  0  0  0  0  0  0  0  0  0  0  0
  1  2  1  0  0  0  0
  2  4  1  0  0  0  0
  3  1  1  0  0  0  0
  4  5  1  0  0  0  0
  6  4  1  0  0  0  0
  7  4  1  0  0  0  0
  8  2  1  0  0  0  0
  9  8  1  0  0  0  0
 10  8  1  0  0  0  0
 11  8  1  0  0  0  0
 12  2  1  0  0  0  0
 13 12  1  0  0  0  0
 14 12  1  0  0  0  0
 15 12  1  0  0  0  0
 16  3  1  0  0  0  0
 17 16  1  0  0  0  0
 18 16  1  0  0  0  0
 19 16  1  0  0  0  0
 20  3  1  0  0  0  0
 21 20  1  0  0  0  0
 22 20  1  0  0  0  0
 23 20  1  0  0  0  0
 24  3  1  0  0  0  0
 25 24  1  0  0  0  0
 26 24  1  0  0  0  0
 27 24  1  0  0  0  0
 28  1  1  0  0  0  0
 29 28  3  0  0  0  0
 30 32  1  0  0  0  0
 31 32  1  0  0  0  0
 32 33  1  0  0  0  0
 33 31  1  0  0  0  0
 34  1  1  0  0  0  0
 35 30  1  0  0  0  0
 36 30  1  0  0  0  0
 37  1  1  0  0  0  0
 38  1  1  0  0  0  0
 39  1  1  0  0  0  0
 40 31  1  0  0  0  0
 41 32  1  0  0  0  0
 42 33  1  0  0  0  0
 43 34  1  0  0  0  0
 44 35  1  0  0  0  0
 45 36  1  0  0  0  0
 46 37  1  0  0  0  0
 47 38  1  0  0  0  0
 48 36  1  0  0  0  0
 49 35  1  0  0  0  0
 31 34  1  0  0  0  0
 31 35  1  0  0  0  0
 31 38  1  0  0  0  0
 32 35  1  0  0  0  0
 32 36  1  0  0  0  0
 33 34  1  0  0  0  0
 33 36  1  0  0  0  0
 33 37  1  0  0  0  0
 34 37  1  0  0  0  0
 34 38  1  0  0  0  0
 35 38  1  0  0  0  0
 36 37  1  0  0  0  0
 37 48  1  0  0  0  0
 38 49  1  0  0  0  0
M  END
$$$$
CIFROZ

From CSD data. Using bond type 'Any'. No disordered atoms. Largest molecule.
108119  0  0  0  0  0  0  0  0999 V2000
    6.1940    7.2242   10.8563 K   0  0  0  0  0  0  0  0  0  0  0  0
    4.8975   12.3884    8.1489 C   0  0  0  0  0  0  0  0  0  0  0  0
    4.4207   13.2455    8.0109 H   0  0  0  0  0  0  0  0  0  0  0  0
    5.8431   12.5348    7.8991 H   0  0  0  0  0  0  0  0  0  0  0  0
    5.4196   10.0988   10.1592 B   0  0  0  0  0  0  0  0  0  0  0  0
    5.3802    9.8352   11.1032 H   0  0  0  0  0  0  0  0  0  0  0  0
    6.3390   10.0062    9.8329 H   0  0  0  0  0  0  0  0  0  0  0  0
    4.8267    9.5218    9.6337 H   0  0  0  0  0  0  0  0  0  0  0  0
    4.8390   11.9864    9.9758 P   0  0  0  0  0  0  0  0  0  0  0  0
    3.0323   11.9444   10.3324 C   0  0  0  0  0  0  0  0  0  0  0  0
    2.6014   11.2733   11.5077 C   0  0  0  0  0  0  0  0  0  0  0  0
    3.2344   10.8150   12.0471 H   0  0  0  0  0  0  0  0  0  0  0  0
    1.2535   11.2780   11.8800 C   0  0  0  0  0  0  0  0  0  0  0  0
    0.9781   10.8039   12.6554 H   0  0  0  0  0  0  0  0  0  0  0  0
    0.3242   11.9650   11.1323 C   0  0  0  0  0  0  0  0  0  0  0  0
   -0.5828   11.9943   11.4111 H   0  0  0  0  0  0  0  0  0  0  0  0
    0.7161   12.6124    9.9754 C   0  0  0  0  0  0  0  0  0  0  0  0
    0.0691   13.0588    9.4406 H   0  0  0  0  0  0  0  0  0  0  0  0
    2.0581   12.6100    9.5908 C   0  0  0  0  0  0  0  0  0  0  0  0
    2.3141   13.0746    8.8031 H   0  0  0  0  0  0  0  0  0  0  0  0
    7.5870    6.8744    8.5748 O   0  0  0  0  0  0  0  0  0  0  0  0
    7.2109    7.5677    7.3781 C   0  0  0  0  0  0  0  0  0  0  0  0
    7.1472    8.5404    7.5497 H   0  0  0  0  0  0  0  0  0  0  0  0
    6.3312    7.2456    7.0563 H   0  0  0  0  0  0  0  0  0  0  0  0
    8.2691    7.2868    6.3668 C   0  0  0  0  0  0  0  0  0  0  0  0
    7.9314    6.6726    5.6680 H   0  0  0  0  0  0  0  0  0  0  0  0
    8.5712    8.1249    5.9362 H   0  0  0  0  0  0  0  0  0  0  0  0
    9.3749    6.6600    7.1207 C   0  0  0  0  0  0  0  0  0  0  0  0
   10.0278    7.3382    7.4256 H   0  0  0  0  0  0  0  0  0  0  0  0
    9.8444    5.9849    6.5675 H   0  0  0  0  0  0  0  0  0  0  0  0
    8.6752    6.0094    8.2975 C   0  0  0  0  0  0  0  0  0  0  0  0
    8.3547    5.1024    8.0615 H   0  0  0  0  0  0  0  0  0  0  0  0
    9.2820    5.9429    9.0759 H   0  0  0  0  0  0  0  0  0  0  0  0
    4.1847    7.1245   12.6630 O   0  0  0  0  0  0  0  0  0  0  0  0
    2.8885    7.4514   12.2432 C   0  0  0  0  0  0  0  0  0  0  0  0
    2.6068    6.8689   11.4939 H   0  0  0  0  0  0  0  0  0  0  0  0
    2.8449    8.3948   11.9459 H   0  0  0  0  0  0  0  0  0  0  0  0
    2.0300    7.2377   13.4154 C   0  0  0  0  0  0  0  0  0  0  0  0
    1.1424    6.9006   13.1335 H   0  0  0  0  0  0  0  0  0  0  0  0
    1.9025    8.0869   13.9073 H   0  0  0  0  0  0  0  0  0  0  0  0
    2.7046    6.2476   14.2689 C   0  0  0  0  0  0  0  0  0  0  0  0
    2.2511    5.3691   14.2153 H   0  0  0  0  0  0  0  0  0  0  0  0
    2.7152    6.5460   15.2128 H   0  0  0  0  0  0  0  0  0  0  0  0
    4.1209    6.1614   13.7127 C   0  0  0  0  0  0  0  0  0  0  0  0
    4.7836    6.3687   14.4176 H   0  0  0  0  0  0  0  0  0  0  0  0
    4.3012    5.2528   13.3618 H   0  0  0  0  0  0  0  0  0  0  0  0
    3.0067   16.5190    4.4669 K   0  0  0  0  0  0  0  0  0  0  0  0
    7.6070   11.1814   12.1284 K   0  0  0  0  0  0  0  0  0  0  0  0
    6.1940   15.1386   10.8563 K   0  0  0  0  0  0  0  0  0  0  0  0
    1.5937   12.5618    3.1947 K   0  0  0  0  0  0  0  0  0  0  0  0
    3.0067    8.6046    4.4669 K   0  0  0  0  0  0  0  0  0  0  0  0
    4.3032   11.3548    7.1743 C   0  0  0  0  0  0  0  0  0  0  0  0
    4.7800   10.4977    7.3122 H   0  0  0  0  0  0  0  0  0  0  0  0
    3.3576   11.2084    7.4241 H   0  0  0  0  0  0  0  0  0  0  0  0
    3.7810   13.6444    5.1639 B   0  0  0  0  0  0  0  0  0  0  0  0
    8.3814    6.1416   12.8255 B   0  0  0  0  0  0  0  0  0  0  0  0
    0.8193   17.6016    2.4977 B   0  0  0  0  0  0  0  0  0  0  0  0
    3.8204   13.9080    4.2200 H   0  0  0  0  0  0  0  0  0  0  0  0
    8.4208    5.8780   11.8816 H   0  0  0  0  0  0  0  0  0  0  0  0
    0.7799   17.8652    3.4416 H   0  0  0  0  0  0  0  0  0  0  0  0
    2.8617   13.7370    5.4903 H   0  0  0  0  0  0  0  0  0  0  0  0
    7.4620    6.0490   13.1519 H   0  0  0  0  0  0  0  0  0  0  0  0
    1.7387   17.6942    2.1713 H   0  0  0  0  0  0  0  0  0  0  0  0
    4.3740   14.2214    5.6895 H   0  0  0  0  0  0  0  0  0  0  0  0
    8.9743    5.5646   13.3511 H   0  0  0  0  0  0  0  0  0  0  0  0
    0.2264   18.1786    1.9721 H   0  0  0  0  0  0  0  0  0  0  0  0
    4.3617   11.7568    5.3473 P   0  0  0  0  0  0  0  0  0  0  0  0
    4.8390    4.0720    9.9758 P   0  0  0  0  0  0  0  0  0  0  0  0
    8.9621    8.0292   13.0089 P   0  0  0  0  0  0  0  0  0  0  0  0
    0.2386   15.7140    2.3143 P   0  0  0  0  0  0  0  0  0  0  0  0
    4.3617   19.6712    5.3473 P   0  0  0  0  0  0  0  0  0  0  0  0
    6.1684   11.7988    4.9907 C   0  0  0  0  0  0  0  0  0  0  0  0
    6.5993   12.4699    3.8155 C   0  0  0  0  0  0  0  0  0  0  0  0
    5.9662   12.9282    3.2761 H   0  0  0  0  0  0  0  0  0  0  0  0
    7.9471   12.4652    3.4431 C   0  0  0  0  0  0  0  0  0  0  0  0
    8.2226   12.9393    2.6678 H   0  0  0  0  0  0  0  0  0  0  0  0
    8.8765   11.7782    4.1909 C   0  0  0  0  0  0  0  0  0  0  0  0
    9.7835   11.7489    3.9120 H   0  0  0  0  0  0  0  0  0  0  0  0
    8.4846   11.1308    5.3478 C   0  0  0  0  0  0  0  0  0  0  0  0
    9.1315   10.6844    5.8826 H   0  0  0  0  0  0  0  0  0  0  0  0
    7.1426   11.1332    5.7324 C   0  0  0  0  0  0  0  0  0  0  0  0
    6.8866   10.6686    6.5200 H   0  0  0  0  0  0  0  0  0  0  0  0
    1.6137   16.8688    6.7483 O   0  0  0  0  0  0  0  0  0  0  0  0
    1.9898   16.1755    7.9451 C   0  0  0  0  0  0  0  0  0  0  0  0
    2.0534   15.2028    7.7734 H   0  0  0  0  0  0  0  0  0  0  0  0
    2.8695   16.4976    8.2668 H   0  0  0  0  0  0  0  0  0  0  0  0
    0.9316   16.4564    8.9564 C   0  0  0  0  0  0  0  0  0  0  0  0
    1.2693   17.0706    9.6551 H   0  0  0  0  0  0  0  0  0  0  0  0
    0.6295   15.6183    9.3870 H   0  0  0  0  0  0  0  0  0  0  0  0
   -0.1742   17.0832    8.2025 C   0  0  0  0  0  0  0  0  0  0  0  0
   -0.8271   16.4050    7.8976 H   0  0  0  0  0  0  0  0  0  0  0  0
   -0.6437   17.7583    8.7556 H   0  0  0  0  0  0  0  0  0  0  0  0
    0.5255   17.7338    7.0257 C   0  0  0  0  0  0  0  0  0  0  0  0
    0.8460   18.6408    7.2616 H   0  0  0  0  0  0  0  0  0  0  0  0
   -0.0813   17.8003    6.2472 H   0  0  0  0  0  0  0  0  0  0  0  0
    5.0160   16.6187    2.6601 O   0  0  0  0  0  0  0  0  0  0  0  0
    6.3122   16.2918    3.0800 C   0  0  0  0  0  0  0  0  0  0  0  0
    6.5939   16.8743    3.8293 H   0  0  0  0  0  0  0  0  0  0  0  0
    6.3558   15.3484    3.3772 H   0  0  0  0  0  0  0  0  0  0  0  0
    7.1707   16.5055    1.9077 C   0  0  0  0  0  0  0  0  0  0  0  0
    8.0583   16.8426    2.1897 H   0  0  0  0  0  0  0  0  0  0  0  0
    7.2982   15.6563    1.4159 H   0  0  0  0  0  0  0  0  0  0  0  0
    6.4961   17.4956    1.0542 C   0  0  0  0  0  0  0  0  0  0  0  0
    6.9496   18.3741    1.1079 H   0  0  0  0  0  0  0  0  0  0  0  0
    6.4855   17.1972    0.1103 H   0  0  0  0  0  0  0  0  0  0  0  0
    5.0798   17.5818    1.6105 C   0  0  0  0  0  0  0  0  0  0  0  0
    4.4171   17.3745    0.9056 H   0  0  0  0  0  0  0  0  0  0  0  0
    4.8995   18.4904    1.9614 H   0  0  0  0  0  0  0  0  0  0  0  0
  1  5  1  0  0  0  0
  2  3  1  0  0  0  0
  4  2  1  0  0  0  0
  5  6  1  0  0  0  0
  7  5  1  0  0  0  0
  8  5  1  0  0  0  0
  9  2  1  0  0  0  0
 10  9  1  0  0  0  0
 11 10  4  0  0  0  0
 12 11  1  0  0  0  0
 13 11  4  0  0  0  0
 14 13  1  0  0  0  0
 15 13  4  0  0  0  0
 16 15  1  0  0  0  0
 17 15  4  0  0  0  0
 18 17  1  0  0  0  0
 19 10  4  0  0  0  0
 20 19  1  0  0  0  0
 21  1  1  0  0  0  0
 22 21  1  0  0  0  0
 23 22  1  0  0  0  0
 24 22  1  0  0  0  0
 25 22  1  0  0  0  0
 26 25  1  0  0  0  0
 27 25  1  0  0  0  0
 28 25  1  0  0  0  0
 29 28  1  0  0  0  0
 30 28  1  0  0  0  0
 31 21  1  0  0  0  0
 32 31  1  0  0  0  0
 33 31  1  0  0  0  0
 34  1  1  0  0  0  0
 35 34  1  0  0  0  0
 36 35  1  0  0  0  0
 37 35  1  0  0  0  0
 38 35  1  0  0  0  0
 39 38  1  0  0  0  0
 40 38  1  0  0  0  0
 41 38  1  0  0  0  0
 42 41  1  0  0  0  0
 43 41  1  0  0  0  0
 44 34  1  0  0  0  0
 45 44  1  0  0  0  0
 46 44  1  0  0  0  0
 47 55  1  0  0  0  0
 48  5  8  0  0  0  0
 49  9  8  0  0  0  0
 50 55  8  0  0  0  0
 51 67  8  0  0  0  0
 52  2  1  0  0  0  0
 53 52  1  0  0  0  0
 54 52  1  0  0  0  0
 55 58  1  0  0  0  0
 56  1  8  0  0  0  0
 57 47  8  0  0  0  0
 59 56  1  0  0  0  0
 60 57  1  0  0  0  0
 61 55  1  0  0  0  0
 62 56  1  0  0  0  0
 63 57  1  0  0  0  0
 64 55  1  0  0  0  0
 65 56  1  0  0  0  0
 66 57  1  0  0  0  0
 67 50  8  0  0  0  0
 68  1  8  0  0  0  0
 69  1  8  0  0  0  0
 70 47  8  0  0  0  0
 71 47  8  0  0  0  0
 72 67  1  0  0  0  0
 73 72  4  0  0  0  0
 74 73  1  0  0  0  0
 75 73  4  0  0  0  0
 76 75  1  0  0  0  0
 77 75  4  0  0  0  0
 78 77  1  0  0  0  0
 79 77  4  0  0  0  0
 80 79  1  0  0  0  0
 81 72  4  0  0  0  0
 82 81  1  0  0  0  0
 83 47  1  0  0  0  0
 84 83  1  0  0  0  0
 85 84  1  0  0  0  0
 86 84  1  0  0  0  0
 87 84  1  0  0  0  0
 88 87  1  0  0  0  0
 89 87  1  0  0  0  0
 90 87  1  0  0  0  0
 91 90  1  0  0  0  0
 92 90  1  0  0  0  0
 93 83  1  0  0  0  0
 94 93  1  0  0  0  0
 95 93  1  0  0  0  0
 96 47  1  0  0  0  0
 97 96  1  0  0  0  0
 98 97  1  0  0  0  0
 99 97  1  0  0  0  0
100 97  1  0  0  0  0
101100  1  0  0  0  0
102100  1  0  0  0  0
103100  1  0  0  0  0
104103  1  0  0  0  0
105103  1  0  0  0  0
106 96  1  0  0  0  0
107106  1  0  0  0  0
108106  1  0  0  0  0
  5  9  1  0  0  0  0
  9 48  8  0  0  0  0
 17 19  4  0  0  0  0
 28 31  1  0  0  0  0
 41 44  1  0  0  0  0
 48 69  8  0  0  0  0
 50 70  8  0  0  0  0
 52 67  1  0  0  0  0
 55 67  1  0  0  0  0
 56 69  8  0  0  0  0
 57 70  8  0  0  0  0
 79 81  4  0  0  0  0
 90 93  1  0  0  0  0
103106  1  0  0  0  0
M  END
$$$$
CIFSAM

From CSD data. Using bond type 'Any'. No disordered atoms. Largest molecule.
 68 79  0  0  0  0  0  0  0  0999 V2000
    4.9008    5.3817    2.4896 Fe  0  0  0  0  0  0  0  0  0  0  0  0
    6.1759    6.3985    1.7838 C   0  0  0  0  0  0  0  0  0  0  0  0
    7.0296    7.0163    1.3336 O   0  0  0  0  0  0  0  0  0  0  0  0
    3.6526    5.8152    1.3062 C   0  0  0  0  0  0  0  0  0  0  0  0
    2.8314    6.0601    0.5422 O   0  0  0  0  0  0  0  0  0  0  0  0
    3.9645    3.6468    3.2269 C   0  0  0  0  0  0  0  0  0  0  0  0
    3.0241    3.5354    3.3098 H   0  0  0  0  0  0  0  0  0  0  0  0
    4.7496    3.3136    2.0799 C   0  0  0  0  0  0  0  0  0  0  0  0
    4.4266    2.9406    1.2674 H   0  0  0  0  0  0  0  0  0  0  0  0
    6.0896    3.6393    2.3720 C   0  0  0  0  0  0  0  0  0  0  0  0
    6.8302    3.5196    1.7902 H   0  0  0  0  0  0  0  0  0  0  0  0
    6.1429    4.1820    3.6973 C   0  0  0  0  0  0  0  0  0  0  0  0
    6.9207    4.4933    4.1452 H   0  0  0  0  0  0  0  0  0  0  0  0
    4.8253    4.1687    4.2167 C   0  0  0  0  0  0  0  0  0  0  0  0
    4.5657    4.4610    5.0829 H   0  0  0  0  0  0  0  0  0  0  0  0
    3.1957   13.0431    4.6441 Fe  0  0  0  0  0  0  0  0  0  0  0  0
    2.5615   11.9480    5.8875 C   0  0  0  0  0  0  0  0  0  0  0  0
    2.1495   11.2483    6.7021 O   0  0  0  0  0  0  0  0  0  0  0  0
    4.8915   12.6766    4.9718 C   0  0  0  0  0  0  0  0  0  0  0  0
    6.0037   12.4666    5.1761 O   0  0  0  0  0  0  0  0  0  0  0  0
    3.5084   15.1015    4.9056 C   0  0  0  0  0  0  0  0  0  0  0  0
    4.2216   15.4861    5.4008 H   0  0  0  0  0  0  0  0  0  0  0  0
    3.5354   14.7839    3.5250 C   0  0  0  0  0  0  0  0  0  0  0  0
    4.2695   14.9021    2.9342 H   0  0  0  0  0  0  0  0  0  0  0  0
    2.2648   14.2563    3.1915 C   0  0  0  0  0  0  0  0  0  0  0  0
    1.9931   13.9748    2.3261 H   0  0  0  0  0  0  0  0  0  0  0  0
    1.4729   14.2165    4.3489 C   0  0  0  0  0  0  0  0  0  0  0  0
    0.5821   13.8928    4.4118 H   0  0  0  0  0  0  0  0  0  0  0  0
    2.2576   14.7541    5.4139 C   0  0  0  0  0  0  0  0  0  0  0  0
    1.9764   14.8571    6.3149 H   0  0  0  0  0  0  0  0  0  0  0  0
    4.3039    7.0944    3.8625 P   0  0  0  0  0  0  0  0  0  0  0  0
    5.5619    7.4298    5.3208 B   0  0  0  0  0  0  0  0  0  0  0  0
    5.1900    8.1073    5.9235 H   0  0  0  0  0  0  0  0  0  0  0  0
    6.4100    7.7522    4.9529 H   0  0  0  0  0  0  0  0  0  0  0  0
    5.7153    6.5989    5.8171 H   0  0  0  0  0  0  0  0  0  0  0  0
    3.1925   11.3910    3.0860 P   0  0  0  0  0  0  0  0  0  0  0  0
    4.2648   11.7824    1.5082 B   0  0  0  0  0  0  0  0  0  0  0  0
    4.2505   11.0117    0.9036 H   0  0  0  0  0  0  0  0  0  0  0  0
    5.1887   11.9682    1.7784 H   0  0  0  0  0  0  0  0  0  0  0  0
    3.8962   12.5649    1.0481 H   0  0  0  0  0  0  0  0  0  0  0  0
    4.0684    8.6732    2.9222 C   0  0  0  0  0  0  0  0  0  0  0  0
    4.8751    8.8595    2.3799 H   0  0  0  0  0  0  0  0  0  0  0  0
    3.2993    8.5799    2.3064 H   0  0  0  0  0  0  0  0  0  0  0  0
    3.8162    9.8440    3.8889 C   0  0  0  0  0  0  0  0  0  0  0  0
    4.6618   10.0519    4.3606 H   0  0  0  0  0  0  0  0  0  0  0  0
    3.1584    9.5555    4.5694 H   0  0  0  0  0  0  0  0  0  0  0  0
    2.6040    6.8155    4.5104 C   0  0  0  0  0  0  0  0  0  0  0  0
    2.4060    6.6020    5.8677 C   0  0  0  0  0  0  0  0  0  0  0  0
    3.1546    6.5817    6.4528 H   0  0  0  0  0  0  0  0  0  0  0  0
    1.1242    6.4181    6.3827 C   0  0  0  0  0  0  0  0  0  0  0  0
    1.0106    6.2655    7.3131 H   0  0  0  0  0  0  0  0  0  0  0  0
    0.0251    6.4551    5.5629 C   0  0  0  0  0  0  0  0  0  0  0  0
   -0.8458    6.3362    5.9222 H   0  0  0  0  0  0  0  0  0  0  0  0
    0.1963    6.6671    4.2141 C   0  0  0  0  0  0  0  0  0  0  0  0
   -0.5597    6.6929    3.6395 H   0  0  0  0  0  0  0  0  0  0  0  0
    1.4756    6.8444    3.6853 C   0  0  0  0  0  0  0  0  0  0  0  0
    1.5813    6.9875    2.7516 H   0  0  0  0  0  0  0  0  0  0  0  0
    1.4633   10.9506    2.6446 C   0  0  0  0  0  0  0  0  0  0  0  0
    0.9774   11.4251    1.4014 C   0  0  0  0  0  0  0  0  0  0  0  0
    1.5506   11.8965    0.8078 H   0  0  0  0  0  0  0  0  0  0  0  0
   -0.3610   11.1893    1.0612 C   0  0  0  0  0  0  0  0  0  0  0  0
   -0.7283   11.5513    0.2640 H   0  0  0  0  0  0  0  0  0  0  0  0
   -1.1875   10.3670    1.9636 C   0  0  0  0  0  0  0  0  0  0  0  0
   -2.0433   10.0587    1.6891 H   0  0  0  0  0  0  0  0  0  0  0  0
   -0.7212   10.0688    3.1535 C   0  0  0  0  0  0  0  0  0  0  0  0
   -1.3021    9.6771    3.7958 H   0  0  0  0  0  0  0  0  0  0  0  0
    0.6168   10.3142    3.4989 C   0  0  0  0  0  0  0  0  0  0  0  0
    0.9384   10.0314    4.3461 H   0  0  0  0  0  0  0  0  0  0  0  0
  1  2  1  0  0  0  0
  2  3  3  0  0  0  0
  4  1  1  0  0  0  0
  5  4  3  0  0  0  0
  6  1  8  0  0  0  0
  7  6  1  0  0  0  0
  8  1  8  0  0  0  0
  9  8  1  0  0  0  0
 10  1  8  0  0  0  0
 11 10  1  0  0  0  0
 12  1  8  0  0  0  0
 13 12  1  0  0  0  0
 14  1  8  0  0  0  0
 15 14  1  0  0  0  0
 16 17  1  0  0  0  0
 17 18  3  0  0  0  0
 19 16  1  0  0  0  0
 20 19  3  0  0  0  0
 21 16  8  0  0  0  0
 22 21  1  0  0  0  0
 23 16  8  0  0  0  0
 24 23  1  0  0  0  0
 25 16  8  0  0  0  0
 26 25  1  0  0  0  0
 27 16  8  0  0  0  0
 28 27  1  0  0  0  0
 29 16  8  0  0  0  0
 30 29  1  0  0  0  0
 31  1  1  0  0  0  0
 32 31  1  0  0  0  0
 33 32  1  0  0  0  0
 34 32  1  0  0  0  0
 35 32  1  0  0  0  0
 36 16  1  0  0  0  0
 37 36  1  0  0  0  0
 38 37  1  0  0  0  0
 39 37  1  0  0  0  0
 40 37  1  0  0  0  0
 41 31  1  0  0  0  0
 42 41  1  0  0  0  0
 43 41  1  0  0  0  0
 44 36  1  0  0  0  0
 45 44  1  0  0  0  0
 46 44  1  0  0  0  0
 47 31  1  0  0  0  0
 48 47  4  0  0  0  0
 49 48  1  0  0  0  0
 50 48  4  0  0  0  0
 51 50  1  0  0  0  0
 52 50  4  0  0  0  0
 53 52  1  0  0  0  0
 54 52  4  0  0  0  0
 55 54  1  0  0  0  0
 56 47  4  0  0  0  0
 57 56  1  0  0  0  0
 58 36  1  0  0  0  0
 59 58  4  0  0  0  0
 60 59  1  0  0  0  0
 61 59  4  0  0  0  0
 62 61  1  0  0  0  0
 63 61  4  0  0  0  0
 64 63  1  0  0  0  0
 65 63  4  0  0  0  0
 66 65  1  0  0  0  0
 67 58  4  0  0  0  0
 68 67  1  0  0  0  0
  6  8  4  0  0  0  0
  6 14  4  0  0  0  0
  8 10  4  0  0  0  0
 10 12  4  0  0  0  0
 12 14  4  0  0  0  0
 21 23  4  0  0  0  0
 21 29  4  0  0  0  0
 23 25  4  0  0  0  0
 25 27  4  0  0  0  0
 27 29  4  0  0  0  0
 41 44  1  0  0  0  0
 54 56  4  0  0  0  0
 65 67  4  0  0  0  0
M  END
$$$$
CIHWAS

From CSD data. Using bond type 'Any'. No disordered atoms. Largest molecule.
 60 62  0  0  0  0  0  0  0  0999 V2000
    7.8676    9.9734    7.9614 Na  0  0  0  0  0  0  0  0  0  0  0  0
    5.3343   11.7650    6.6603 P   0  0  0  0  0  0  0  0  0  0  0  0
    7.4885    7.6813    8.0764 O   0  0  0  0  0  0  0  0  0  0  0  0
    5.8126   12.0750    8.4970 B   0  0  0  0  0  0  0  0  0  0  0  0
    6.9102   12.2374    8.5625 H   0  0  0  0  0  0  0  0  0  0  0  0
    5.2697   12.9401    8.8436 H   0  0  0  0  0  0  0  0  0  0  0  0
    5.5121   11.1864    8.9970 H   0  0  0  0  0  0  0  0  0  0  0  0
    5.9046   10.2364    6.0649 C   0  0  0  0  0  0  0  0  0  0  0  0
    5.6446   10.0766    5.1630 H   0  0  0  0  0  0  0  0  0  0  0  0
    5.6251    9.5400    6.6404 H   0  0  0  0  0  0  0  0  0  0  0  0
    3.5327   12.0582    6.4891 C   0  0  0  0  0  0  0  0  0  0  0  0
    3.2668   11.9228    5.5554 H   0  0  0  0  0  0  0  0  0  0  0  0
    3.3246   12.9768    6.7580 H   0  0  0  0  0  0  0  0  0  0  0  0
    3.0441   11.4304    7.0621 H   0  0  0  0  0  0  0  0  0  0  0  0
    6.0092   13.0485    5.5596 C   0  0  0  0  0  0  0  0  0  0  0  0
    6.9837   13.0826    5.6563 H   0  0  0  0  0  0  0  0  0  0  0  0
    5.6264   13.9191    5.7995 H   0  0  0  0  0  0  0  0  0  0  0  0
    5.7807   12.8357    4.6301 H   0  0  0  0  0  0  0  0  0  0  0  0
    6.2921    7.1646    8.6765 C   0  0  0  0  0  0  0  0  0  0  0  0
    5.6448    6.8926    7.9784 H   0  0  0  0  0  0  0  0  0  0  0  0
    5.8694    7.8511    9.2500 H   0  0  0  0  0  0  0  0  0  0  0  0
    6.7014    5.9857    9.4928 C   0  0  0  0  0  0  0  0  0  0  0  0
    6.9393    6.2532   10.4155 H   0  0  0  0  0  0  0  0  0  0  0  0
    5.9804    5.3066    9.5286 H   0  0  0  0  0  0  0  0  0  0  0  0
    7.8900    5.4735    8.7542 C   0  0  0  0  0  0  0  0  0  0  0  0
    7.6176    4.8759    8.0129 H   0  0  0  0  0  0  0  0  0  0  0  0
    8.4976    4.9788    9.3599 H   0  0  0  0  0  0  0  0  0  0  0  0
    8.5548    6.7268    8.2232 C   0  0  0  0  0  0  0  0  0  0  0  0
    9.2371    7.0587    8.8590 H   0  0  0  0  0  0  0  0  0  0  0  0
    8.9900    6.5501    7.3509 H   0  0  0  0  0  0  0  0  0  0  0  0
    8.1519    9.9734    4.8184 Na  0  0  0  0  0  0  0  0  0  0  0  0
   10.6852   11.7650    6.1195 P   0  0  0  0  0  0  0  0  0  0  0  0
    8.5310    7.6813    4.7033 O   0  0  0  0  0  0  0  0  0  0  0  0
   10.2068   12.0750    4.2828 B   0  0  0  0  0  0  0  0  0  0  0  0
    9.1093   12.2374    4.2173 H   0  0  0  0  0  0  0  0  0  0  0  0
   10.7498   12.9401    3.9362 H   0  0  0  0  0  0  0  0  0  0  0  0
   10.5074   11.1864    3.7828 H   0  0  0  0  0  0  0  0  0  0  0  0
   10.1149   10.2364    6.7149 C   0  0  0  0  0  0  0  0  0  0  0  0
   10.3748   10.0766    7.6168 H   0  0  0  0  0  0  0  0  0  0  0  0
   10.3943    9.5400    6.1394 H   0  0  0  0  0  0  0  0  0  0  0  0
   12.4868   12.0582    6.2907 C   0  0  0  0  0  0  0  0  0  0  0  0
   12.7527   11.9228    7.2244 H   0  0  0  0  0  0  0  0  0  0  0  0
   12.6948   12.9768    6.0218 H   0  0  0  0  0  0  0  0  0  0  0  0
   12.9754   11.4304    5.7177 H   0  0  0  0  0  0  0  0  0  0  0  0
   10.0103   13.0485    7.2202 C   0  0  0  0  0  0  0  0  0  0  0  0
    9.0358   13.0826    7.1235 H   0  0  0  0  0  0  0  0  0  0  0  0
   10.3930   13.9191    6.9803 H   0  0  0  0  0  0  0  0  0  0  0  0
   10.2388   12.8357    8.1497 H   0  0  0  0  0  0  0  0  0  0  0  0
    9.7273    7.1646    4.1033 C   0  0  0  0  0  0  0  0  0  0  0  0
   10.3747    6.8926    4.8014 H   0  0  0  0  0  0  0  0  0  0  0  0
   10.1501    7.8511    3.5298 H   0  0  0  0  0  0  0  0  0  0  0  0
    9.3181    5.9857    3.2870 C   0  0  0  0  0  0  0  0  0  0  0  0
    9.0802    6.2532    2.3643 H   0  0  0  0  0  0  0  0  0  0  0  0
   10.0390    5.3066    3.2512 H   0  0  0  0  0  0  0  0  0  0  0  0
    8.1295    5.4735    4.0256 C   0  0  0  0  0  0  0  0  0  0  0  0
    8.4018    4.8759    4.7669 H   0  0  0  0  0  0  0  0  0  0  0  0
    7.5218    4.9788    3.4199 H   0  0  0  0  0  0  0  0  0  0  0  0
    7.4647    6.7268    4.5566 C   0  0  0  0  0  0  0  0  0  0  0  0
    6.7823    7.0587    3.9208 H   0  0  0  0  0  0  0  0  0  0  0  0
    7.0294    6.5501    5.4289 H   0  0  0  0  0  0  0  0  0  0  0  0
  1  3  1  0  0  0  0
  2  4  1  0  0  0  0
  3 19  1  0  0  0  0
  4  5  1  0  0  0  0
  6  4  1  0  0  0  0
  7  4  1  0  0  0  0
  8  1  1  0  0  0  0
  9  8  1  0  0  0  0
 10  8  1  0  0  0  0
 11  2  1  0  0  0  0
 12 11  1  0  0  0  0
 13 11  1  0  0  0  0
 14 11  1  0  0  0  0
 15  2  1  0  0  0  0
 16 15  1  0  0  0  0
 17 15  1  0  0  0  0
 18 15  1  0  0  0  0
 19 20  1  0  0  0  0
 21 19  1  0  0  0  0
 22 19  1  0  0  0  0
 23 22  1  0  0  0  0
 24 22  1  0  0  0  0
 25 22  1  0  0  0  0
 26 25  1  0  0  0  0
 27 25  1  0  0  0  0
 28  3  1  0  0  0  0
 29 28  1  0  0  0  0
 30 28  1  0  0  0  0
 31  8  1  0  0  0  0
 32 34  1  0  0  0  0
 33 31  1  0  0  0  0
 34 35  1  0  0  0  0
 36 34  1  0  0  0  0
 37 34  1  0  0  0  0
 38  1  1  0  0  0  0
 39 38  1  0  0  0  0
 40 38  1  0  0  0  0
 41 32  1  0  0  0  0
 42 41  1  0  0  0  0
 43 41  1  0  0  0  0
 44 41  1  0  0  0  0
 45 32  1  0  0  0  0
 46 45  1  0  0  0  0
 47 45  1  0  0  0  0
 48 45  1  0  0  0  0
 49 33  1  0  0  0  0
 50 49  1  0  0  0  0
 51 49  1  0  0  0  0
 52 49  1  0  0  0  0
 53 52  1  0  0  0  0
 54 52  1  0  0  0  0
 55 52  1  0  0  0  0
 56 55  1  0  0  0  0
 57 55  1  0  0  0  0
 58 33  1  0  0  0  0
 59 58  1  0  0  0  0
 60 58  1  0  0  0  0
  2  8  1  0  0  0  0
 25 28  1  0  0  0  0
 31 38  1  0  0  0  0
 32 38  1  0  0  0  0
 55 58  1  0  0  0  0
M  END
$$$$
CIMDEI

From CSD data. Using bond type 'Any'. No disordered atoms. Largest molecule.
170190  0  0  0  0  0  0  0  0999 V2000
    5.1539    6.6656    7.1761 K   0  3  0  0  0  0  0  0  0  0  0  0
    6.8456    9.7184    9.3431 P   0  0  0  0  0  0  0  0  0  0  0  0
    5.7423   12.5522    9.1878 Si  0  0  0  0  0  0  0  0  0  0  0  0
    8.8011   11.9601    8.6102 Si  0  0  0  0  0  0  0  0  0  0  0  0
    3.9350    7.0741    4.8300 O   0  0  0  0  0  0  0  0  0  0  0  0
    6.4378    4.2988    6.9495 O   0  0  0  0  0  0  0  0  0  0  0  0
    5.0280    9.0491    9.4491 B   0  0  0  0  0  0  0  0  0  0  0  0
    5.1105    7.9458    9.6357 H   0  0  0  0  0  0  0  0  0  0  0  0
    4.5466    9.2044    8.4536 H   0  0  0  0  0  0  0  0  0  0  0  0
    3.0475    5.1429    7.6333 H   0  0  0  0  0  0  0  0  0  0  0  0
    7.1458   11.3858    9.1224 C   0  5  0  0  0  0  0  0  0  0  0  0
    7.6921    9.0343   10.8249 C   0  0  0  0  0  0  0  0  0  0  0  0
    7.5585    7.6936   11.2093 C   0  0  0  0  0  0  0  0  0  0  0  0
    7.0856    7.0872   10.6512 H   0  0  0  0  0  0  0  0  0  0  0  0
    8.1104    7.2461   12.3975 C   0  0  0  0  0  0  0  0  0  0  0  0
    8.0257    6.3311   12.6410 H   0  0  0  0  0  0  0  0  0  0  0  0
    8.7815    8.1103   13.2276 C   0  0  0  0  0  0  0  0  0  0  0  0
    9.1559    7.7963   14.0416 H   0  0  0  0  0  0  0  0  0  0  0  0
    8.9066    9.4349   12.8714 C   0  0  0  0  0  0  0  0  0  0  0  0
    9.3652   10.0381   13.4434 H   0  0  0  0  0  0  0  0  0  0  0  0
    8.3644    9.8904   11.6807 C   0  0  0  0  0  0  0  0  0  0  0  0
    8.4566   10.8073   11.4464 H   0  0  0  0  0  0  0  0  0  0  0  0
    7.5108    8.7455    7.9260 C   0  0  0  0  0  0  0  0  0  0  0  0
    7.0793    9.1622    6.6662 C   0  0  0  0  0  0  0  0  0  0  0  0
    6.5356    9.9370    6.5910 H   0  0  0  0  0  0  0  0  0  0  0  0
    7.4334    8.4596    5.5217 C   0  0  0  0  0  0  0  0  0  0  0  0
    7.1190    8.7458    4.6728 H   0  0  0  0  0  0  0  0  0  0  0  0
    8.2406    7.3487    5.6186 C   0  0  0  0  0  0  0  0  0  0  0  0
    8.4826    6.8659    4.8376 H   0  0  0  0  0  0  0  0  0  0  0  0
    8.6968    6.9373    6.8534 C   0  0  0  0  0  0  0  0  0  0  0  0
    9.2651    6.1787    6.9169 H   0  0  0  0  0  0  0  0  0  0  0  0
    8.3327    7.6218    8.0019 C   0  0  0  0  0  0  0  0  0  0  0  0
    8.6461    7.3231    8.8477 H   0  0  0  0  0  0  0  0  0  0  0  0
    6.3126   14.3497    9.1288 C   0  0  0  0  0  0  0  0  0  0  0  0
    6.8980   14.5319    9.8936 H   0  0  0  0  0  0  0  0  0  0  0  0
    5.5333   14.9421    9.1647 H   0  0  0  0  0  0  0  0  0  0  0  0
    6.8059   14.5084    8.2960 H   0  0  0  0  0  0  0  0  0  0  0  0
    4.5372   12.3678    7.7467 C   0  0  0  0  0  0  0  0  0  0  0  0
    4.1426   11.4711    7.7641 H   0  0  0  0  0  0  0  0  0  0  0  0
    5.0159   12.4982    6.9026 H   0  0  0  0  0  0  0  0  0  0  0  0
    3.8280   13.0388    7.8268 H   0  0  0  0  0  0  0  0  0  0  0  0
    4.6885   12.4680   10.7341 C   0  0  0  0  0  0  0  0  0  0  0  0
    4.1243   11.6674   10.7014 H   0  0  0  0  0  0  0  0  0  0  0  0
    4.1211   13.2659   10.7873 H   0  0  0  0  0  0  0  0  0  0  0  0
    5.2678   12.4264   11.5234 H   0  0  0  0  0  0  0  0  0  0  0  0
    8.7744   12.8627    6.9572 C   0  0  0  0  0  0  0  0  0  0  0  0
    8.4140   12.2681    6.2668 H   0  0  0  0  0  0  0  0  0  0  0  0
    9.6861   13.1297    6.7163 H   0  0  0  0  0  0  0  0  0  0  0  0
    8.2092   13.6601    7.0298 H   0  0  0  0  0  0  0  0  0  0  0  0
    9.6322   13.1004    9.8599 C   0  0  0  0  0  0  0  0  0  0  0  0
    9.7943   12.6095   10.6924 H   0  0  0  0  0  0  0  0  0  0  0  0
    9.0498   13.8681   10.0405 H   0  0  0  0  0  0  0  0  0  0  0  0
   10.4863   13.4168    9.4960 H   0  0  0  0  0  0  0  0  0  0  0  0
   10.0717   10.5941    8.3623 C   0  0  0  0  0  0  0  0  0  0  0  0
   10.1053   10.0293    9.1629 H   0  0  0  0  0  0  0  0  0  0  0  0
   10.9538   10.9919    8.2065 H   0  0  0  0  0  0  0  0  0  0  0  0
    9.8187   10.0483    7.5886 H   0  0  0  0  0  0  0  0  0  0  0  0
    3.9784    5.8022    3.8794 C   0  0  0  0  0  0  0  0  0  0  0  0
    4.0058    6.0733    2.9265 H   0  0  0  0  0  0  0  0  0  0  0  0
    4.7681    5.2396    4.0764 H   0  0  0  0  0  0  0  0  0  0  0  0
    2.9252    5.1971    4.1373 C   0  0  0  0  0  0  0  0  0  0  0  0
    2.8729    4.3853    3.5910 H   0  0  0  0  0  0  0  0  0  0  0  0
    2.1590    5.7744    3.9385 H   0  0  0  0  0  0  0  0  0  0  0  0
    2.9141    4.9538    5.0865 H   0  0  0  0  0  0  0  0  0  0  0  0
    3.2498    8.0703    4.3522 C   0  0  0  0  0  0  0  0  0  0  0  0
    2.3179    7.7729    4.1964 H   0  0  0  0  0  0  0  0  0  0  0  0
    3.6332    8.3355    3.4800 H   0  0  0  0  0  0  0  0  0  0  0  0
    3.2347    9.2483    5.2495 C   0  0  0  0  0  0  0  0  0  0  0  0
    2.7025    9.9634    4.8429 H   0  0  0  0  0  0  0  0  0  0  0  0
    4.1516    9.5634    5.3910 H   0  0  0  0  0  0  0  0  0  0  0  0
    2.8404    8.9978    6.1110 H   0  0  0  0  0  0  0  0  0  0  0  0
    6.9804    3.8740    5.6829 C   0  0  0  0  0  0  0  0  0  0  0  0
    7.9353    3.6396    5.7993 H   0  0  0  0  0  0  0  0  0  0  0  0
    6.9274    4.6242    5.0382 H   0  0  0  0  0  0  0  0  0  0  0  0
    6.2742    2.7370    5.1456 C   0  0  0  0  0  0  0  0  0  0  0  0
    6.6530    2.4996    4.2716 H   0  0  0  0  0  0  0  0  0  0  0  0
    5.3264    2.9597    5.0399 H   0  0  0  0  0  0  0  0  0  0  0  0
    6.3665    1.9766    5.7564 H   0  0  0  0  0  0  0  0  0  0  0  0
    6.6613    3.4328    8.0507 C   0  0  0  0  0  0  0  0  0  0  0  0
    7.5953    3.1033    8.0363 H   0  0  0  0  0  0  0  0  0  0  0  0
    6.0553    2.6520    7.9951 H   0  0  0  0  0  0  0  0  0  0  0  0
    6.4096    4.1773    9.3096 C   0  0  0  0  0  0  0  0  0  0  0  0
    6.5691    3.5883   10.0763 H   0  0  0  0  0  0  0  0  0  0  0  0
    5.4794    4.4879    9.3241 H   0  0  0  0  0  0  0  0  0  0  0  0
    7.0120    4.9480    9.3599 H   0  0  0  0  0  0  0  0  0  0  0  0
    2.4221    7.9864   10.7341 K   0  3  0  0  0  0  0  0  0  0  0  0
    0.7305    4.9336    8.5672 P   0  0  0  0  0  0  0  0  0  0  0  0
    1.8337    2.0998    8.7225 Si  0  0  0  0  0  0  0  0  0  0  0  0
   -1.2251    2.6919    9.3001 Si  0  0  0  0  0  0  0  0  0  0  0  0
    3.6410    7.5779   13.0802 O   0  0  0  0  0  0  0  0  0  0  0  0
    1.1382   10.3532   10.9607 O   0  0  0  0  0  0  0  0  0  0  0  0
    2.5480    5.6029    8.4612 B   0  0  0  0  0  0  0  0  0  0  0  0
    2.4655    6.7062    8.2745 H   0  0  0  0  0  0  0  0  0  0  0  0
    3.0294    5.4476    9.4566 H   0  0  0  0  0  0  0  0  0  0  0  0
    4.5285    9.5091   10.2769 H   0  0  0  0  0  0  0  0  0  0  0  0
    0.4303    3.2662    8.7878 C   0  5  0  0  0  0  0  0  0  0  0  0
   -0.1161    5.6177    7.0853 C   0  0  0  0  0  0  0  0  0  0  0  0
    0.0175    6.9584    6.7009 C   0  0  0  0  0  0  0  0  0  0  0  0
    0.4904    7.5648    7.2590 H   0  0  0  0  0  0  0  0  0  0  0  0
   -0.5344    7.4059    5.5128 C   0  0  0  0  0  0  0  0  0  0  0  0
   -0.4496    8.3209    5.2692 H   0  0  0  0  0  0  0  0  0  0  0  0
   -1.2055    6.5417    4.6826 C   0  0  0  0  0  0  0  0  0  0  0  0
   -1.5798    6.8557    3.8686 H   0  0  0  0  0  0  0  0  0  0  0  0
   -1.3306    5.2171    5.0389 C   0  0  0  0  0  0  0  0  0  0  0  0
   -1.7892    4.6139    4.4668 H   0  0  0  0  0  0  0  0  0  0  0  0
   -0.7883    4.7616    6.2295 C   0  0  0  0  0  0  0  0  0  0  0  0
   -0.8806    3.8447    6.4638 H   0  0  0  0  0  0  0  0  0  0  0  0
    0.0652    5.9065    9.9842 C   0  0  0  0  0  0  0  0  0  0  0  0
    0.4967    5.4898   11.2440 C   0  0  0  0  0  0  0  0  0  0  0  0
    1.0405    4.7150   11.3193 H   0  0  0  0  0  0  0  0  0  0  0  0
    0.1426    6.1924   12.3885 C   0  0  0  0  0  0  0  0  0  0  0  0
    0.4570    5.9062   13.2375 H   0  0  0  0  0  0  0  0  0  0  0  0
   -0.6646    7.3033   12.2916 C   0  0  0  0  0  0  0  0  0  0  0  0
   -0.9066    7.7861   13.0727 H   0  0  0  0  0  0  0  0  0  0  0  0
   -1.1207    7.7147   11.0569 C   0  0  0  0  0  0  0  0  0  0  0  0
   -1.6891    8.4733   10.9933 H   0  0  0  0  0  0  0  0  0  0  0  0
   -0.7567    7.0302    9.9083 C   0  0  0  0  0  0  0  0  0  0  0  0
   -1.0701    7.3289    9.0626 H   0  0  0  0  0  0  0  0  0  0  0  0
    1.2634    0.3023    8.7814 C   0  0  0  0  0  0  0  0  0  0  0  0
    0.6780    0.1201    8.0166 H   0  0  0  0  0  0  0  0  0  0  0  0
    2.0427   -0.2901    8.7456 H   0  0  0  0  0  0  0  0  0  0  0  0
    0.7701    0.1436    9.6142 H   0  0  0  0  0  0  0  0  0  0  0  0
    3.0389    2.2842   10.1635 C   0  0  0  0  0  0  0  0  0  0  0  0
    3.4335    3.1809   10.1462 H   0  0  0  0  0  0  0  0  0  0  0  0
    2.5602    2.1538   11.0076 H   0  0  0  0  0  0  0  0  0  0  0  0
    3.7480    1.6132   10.0835 H   0  0  0  0  0  0  0  0  0  0  0  0
    2.8876    2.1840    7.1761 C   0  0  0  0  0  0  0  0  0  0  0  0
    3.4517    2.9846    7.2089 H   0  0  0  0  0  0  0  0  0  0  0  0
    3.4549    1.3861    7.1229 H   0  0  0  0  0  0  0  0  0  0  0  0
    2.3082    2.2256    6.3868 H   0  0  0  0  0  0  0  0  0  0  0  0
   -1.1984    1.7893   10.9530 C   0  0  0  0  0  0  0  0  0  0  0  0
   -0.8380    2.3839   11.6434 H   0  0  0  0  0  0  0  0  0  0  0  0
   -2.1100    1.5223   11.1939 H   0  0  0  0  0  0  0  0  0  0  0  0
   -0.6332    0.9919   10.8805 H   0  0  0  0  0  0  0  0  0  0  0  0
   -2.0562    1.5516    8.0503 C   0  0  0  0  0  0  0  0  0  0  0  0
   -2.2183    2.0425    7.2178 H   0  0  0  0  0  0  0  0  0  0  0  0
   -1.4737    0.7839    7.8698 H   0  0  0  0  0  0  0  0  0  0  0  0
   -2.9103    1.2352    8.4142 H   0  0  0  0  0  0  0  0  0  0  0  0
   -2.4956    4.0579    9.5479 C   0  0  0  0  0  0  0  0  0  0  0  0
   -2.5293    4.6227    8.7474 H   0  0  0  0  0  0  0  0  0  0  0  0
   -3.3777    3.6601    9.7038 H   0  0  0  0  0  0  0  0  0  0  0  0
   -2.2427    4.6037   10.3217 H   0  0  0  0  0  0  0  0  0  0  0  0
    3.5976    8.8498   14.0309 C   0  0  0  0  0  0  0  0  0  0  0  0
    3.5702    8.5787   14.9837 H   0  0  0  0  0  0  0  0  0  0  0  0
    2.8079    9.4124   13.8339 H   0  0  0  0  0  0  0  0  0  0  0  0
    4.6509    9.4549   13.7730 C   0  0  0  0  0  0  0  0  0  0  0  0
    4.7031   10.2667   14.3192 H   0  0  0  0  0  0  0  0  0  0  0  0
    5.4170    8.8776   13.9718 H   0  0  0  0  0  0  0  0  0  0  0  0
    4.6619    9.6982   12.8237 H   0  0  0  0  0  0  0  0  0  0  0  0
    4.3262    6.5817   13.5581 C   0  0  0  0  0  0  0  0  0  0  0  0
    5.2581    6.8791   13.7139 H   0  0  0  0  0  0  0  0  0  0  0  0
    3.9428    6.3165   14.4303 H   0  0  0  0  0  0  0  0  0  0  0  0
    4.3413    5.4037   12.6607 C   0  0  0  0  0  0  0  0  0  0  0  0
    4.8735    4.6886   13.0673 H   0  0  0  0  0  0  0  0  0  0  0  0
    3.4244    5.0886   12.5193 H   0  0  0  0  0  0  0  0  0  0  0  0
    4.7356    5.6542   11.7993 H   0  0  0  0  0  0  0  0  0  0  0  0
    0.5956   10.7780   12.2273 C   0  0  0  0  0  0  0  0  0  0  0  0
   -0.3593   11.0124   12.1109 H   0  0  0  0  0  0  0  0  0  0  0  0
    0.6486   10.0278   12.8721 H   0  0  0  0  0  0  0  0  0  0  0  0
    1.3019   11.9150   12.7646 C   0  0  0  0  0  0  0  0  0  0  0  0
    0.9231   12.1524   13.6386 H   0  0  0  0  0  0  0  0  0  0  0  0
    2.2496   11.6923   12.8703 H   0  0  0  0  0  0  0  0  0  0  0  0
    1.2096   12.6754   12.1539 H   0  0  0  0  0  0  0  0  0  0  0  0
    0.9148   11.2192    9.8596 C   0  0  0  0  0  0  0  0  0  0  0  0
   -0.0193   11.5487    9.8739 H   0  0  0  0  0  0  0  0  0  0  0  0
    1.5207   12.0000    9.9151 H   0  0  0  0  0  0  0  0  0  0  0  0
    1.1664   10.4747    8.6007 C   0  0  0  0  0  0  0  0  0  0  0  0
    1.0070   11.0637    7.8339 H   0  0  0  0  0  0  0  0  0  0  0  0
    2.0966   10.1641    8.5862 H   0  0  0  0  0  0  0  0  0  0  0  0
    0.5641    9.7040    8.5503 H   0  0  0  0  0  0  0  0  0  0  0  0
  1  5  1  0  0  0  0
  2  7  1  0  0  0  0
  3 11  1  0  0  0  0
  4 11  1  0  0  0  0
  5 58  1  0  0  0  0
  6  1  1  0  0  0  0
  7  8  1  0  0  0  0
  8  1  1  0  0  0  0
  9  1  1  0  0  0  0
 10  1  1  0  0  0  0
 11  2  1  0  0  0  0
 12  2  1  0  0  0  0
 13 12  4  0  0  0  0
 14 13  1  0  0  0  0
 15 13  4  0  0  0  0
 16 15  1  0  0  0  0
 17 15  4  0  0  0  0
 18 17  1  0  0  0  0
 19 17  4  0  0  0  0
 20 19  1  0  0  0  0
 21 12  4  0  0  0  0
 22 21  1  0  0  0  0
 23  1  8  0  0  0  0
 24  1  8  0  0  0  0
 25 24  1  0  0  0  0
 26  1  8  0  0  0  0
 27 26  1  0  0  0  0
 28  1  8  0  0  0  0
 29 28  1  0  0  0  0
 30  1  8  0  0  0  0
 31 30  1  0  0  0  0
 32  1  8  0  0  0  0
 33 32  1  0  0  0  0
 34  3  1  0  0  0  0
 35 34  1  0  0  0  0
 36 34  1  0  0  0  0
 37 34  1  0  0  0  0
 38  3  1  0  0  0  0
 39 38  1  0  0  0  0
 40 38  1  0  0  0  0
 41 38  1  0  0  0  0
 42  3  1  0  0  0  0
 43 42  1  0  0  0  0
 44 42  1  0  0  0  0
 45 42  1  0  0  0  0
 46  4  1  0  0  0  0
 47 46  1  0  0  0  0
 48 46  1  0  0  0  0
 49 46  1  0  0  0  0
 50  4  1  0  0  0  0
 51 50  1  0  0  0  0
 52 50  1  0  0  0  0
 53 50  1  0  0  0  0
 54  4  1  0  0  0  0
 55 54  1  0  0  0  0
 56 54  1  0  0  0  0
 57 54  1  0  0  0  0
 58 59  1  0  0  0  0
 60 58  1  0  0  0  0
 61 58  1  0  0  0  0
 62 61  1  0  0  0  0
 63 61  1  0  0  0  0
 64 61  1  0  0  0  0
 65  5  1  0  0  0  0
 66 65  1  0  0  0  0
 67 65  1  0  0  0  0
 68 65  1  0  0  0  0
 69 68  1  0  0  0  0
 70 68  1  0  0  0  0
 71 68  1  0  0  0  0
 72  6  1  0  0  0  0
 73 72  1  0  0  0  0
 74 72  1  0  0  0  0
 75 72  1  0  0  0  0
 76 75  1  0  0  0  0
 77 75  1  0  0  0  0
 78 75  1  0  0  0  0
 79  6  1  0  0  0  0
 80 79  1  0  0  0  0
 81 79  1  0  0  0  0
 82 79  1  0  0  0  0
 83 82  1  0  0  0  0
 84 82  1  0  0  0  0
 85 82  1  0  0  0  0
 86  8  1  0  0  0  0
 87 92  1  0  0  0  0
 88 96  1  0  0  0  0
 89 96  1  0  0  0  0
 90 86  1  0  0  0  0
 91 86  1  0  0  0  0
 92 10  1  0  0  0  0
 93  1  1  0  0  0  0
 94 86  1  0  0  0  0
 95  7  1  0  0  0  0
 96 87  1  0  0  0  0
 97 87  1  0  0  0  0
 98 97  4  0  0  0  0
 99 98  1  0  0  0  0
100 98  4  0  0  0  0
101100  1  0  0  0  0
102100  4  0  0  0  0
103102  1  0  0  0  0
104102  4  0  0  0  0
105104  1  0  0  0  0
106 97  4  0  0  0  0
107106  1  0  0  0  0
108 86  8  0  0  0  0
109 86  8  0  0  0  0
110109  1  0  0  0  0
111 86  8  0  0  0  0
112111  1  0  0  0  0
113 86  8  0  0  0  0
114113  1  0  0  0  0
115 86  8  0  0  0  0
116115  1  0  0  0  0
117 86  8  0  0  0  0
118117  1  0  0  0  0
119 88  1  0  0  0  0
120119  1  0  0  0  0
121119  1  0  0  0  0
122119  1  0  0  0  0
123 88  1  0  0  0  0
124123  1  0  0  0  0
125123  1  0  0  0  0
126123  1  0  0  0  0
127 88  1  0  0  0  0
128127  1  0  0  0  0
129127  1  0  0  0  0
130127  1  0  0  0  0
131 89  1  0  0  0  0
132131  1  0  0  0  0
133131  1  0  0  0  0
134131  1  0  0  0  0
135 89  1  0  0  0  0
136135  1  0  0  0  0
137135  1  0  0  0  0
138135  1  0  0  0  0
139 89  1  0  0  0  0
140139  1  0  0  0  0
141139  1  0  0  0  0
142139  1  0  0  0  0
143 90  1  0  0  0  0
144143  1  0  0  0  0
145143  1  0  0  0  0
146143  1  0  0  0  0
147146  1  0  0  0  0
148146  1  0  0  0  0
149146  1  0  0  0  0
150 90  1  0  0  0  0
151150  1  0  0  0  0
152150  1  0  0  0  0
153150  1  0  0  0  0
154153  1  0  0  0  0
155153  1  0  0  0  0
156153  1  0  0  0  0
157 91  1  0  0  0  0
158157  1  0  0  0  0
159157  1  0  0  0  0
160157  1  0  0  0  0
161160  1  0  0  0  0
162160  1  0  0  0  0
163160  1  0  0  0  0
164 91  1  0  0  0  0
165164  1  0  0  0  0
166164  1  0  0  0  0
167164  1  0  0  0  0
168167  1  0  0  0  0
169167  1  0  0  0  0
170167  1  0  0  0  0
  2 23  1  0  0  0  0
  7  9  1  0  0  0  0
 19 21  4  0  0  0  0
 23 24  4  0  0  0  0
 23 32  4  0  0  0  0
 24 26  4  0  0  0  0
 26 28  4  0  0  0  0
 28 30  4  0  0  0  0
 30 32  4  0  0  0  0
 86 93  1  0  0  0  0
 86 95  1  0  0  0  0
 87108  1  0  0  0  0
 92 93  1  0  0  0  0
 92 94  1  0  0  0  0
104106  4  0  0  0  0
108109  4  0  0  0  0
108117  4  0  0  0  0
109111  4  0  0  0  0
111113  4  0  0  0  0
113115  4  0  0  0  0
115117  4  0  0  0  0
M  CHG  4   1   1  11  -1  86   1  96  -1
M  END
$$$$
CIPMOG

From CSD data. Using bond type 'Any'. No disordered atoms. Largest molecule.
102122  0  0  0  0  0  0  0  0999 V2000
   -0.3743    4.9898    4.3502 P   0  0  0  0  0  0  0  0  0  0  0  0
   -0.4348    8.2487    5.1607 P   0  0  0  0  0  0  0  0  0  0  0  0
   -0.3638    4.9265    2.7247 O   0  0  0  0  0  0  0  0  0  0  0  0
   -0.4925    8.2719    6.7891 O   0  0  0  0  0  0  0  0  0  0  0  0
   -0.6361    3.3985    4.7584 N   0  0  0  0  0  0  0  0  0  0  0  0
   -0.6920    9.8419    4.7538 N   0  0  0  0  0  0  0  0  0  0  0  0
   -2.0957    5.7977    4.4348 C   0  0  0  0  0  0  0  0  0  0  0  0
   -2.1308    7.4181    4.9750 C   0  0  0  0  0  0  0  0  0  0  0  0
   -0.2181    2.9456    6.0773 C   0  0  0  0  0  0  0  0  0  0  0  0
   -1.4159    2.4244    4.0100 C   0  0  0  0  0  0  0  0  0  0  0  0
    0.9124    5.1014    2.0464 C   0  0  0  0  0  0  0  0  0  0  0  0
    0.7860    4.4635    0.6633 C   0  0  0  0  0  0  0  0  0  0  0  0
    2.0729    4.7281   -0.1212 C   0  0  0  0  0  0  0  0  0  0  0  0
    2.3940    6.2175   -0.2052 C   0  0  0  0  0  0  0  0  0  0  0  0
    2.5086    6.8482    1.1748 C   0  0  0  0  0  0  0  0  0  0  0  0
    1.2371    6.5822    1.9611 C   0  0  0  0  0  0  0  0  0  0  0  0
    0.3781    2.9782    0.7091 C   0  0  0  0  0  0  0  0  0  0  0  0
    1.3462    2.1060    1.4929 C   0  0  0  0  0  0  0  0  0  0  0  0
    0.1788    2.4069   -0.6909 C   0  0  0  0  0  0  0  0  0  0  0  0
    2.8055    8.3367    1.1010 C   0  0  0  0  0  0  0  0  0  0  0  0
   -1.5606   10.7913    5.4355 C   0  0  0  0  0  0  0  0  0  0  0  0
   -0.1712   10.3159    3.4882 C   0  0  0  0  0  0  0  0  0  0  0  0
    0.7937    8.2211    7.4757 C   0  0  0  0  0  0  0  0  0  0  0  0
    0.6443    8.8756    8.8487 C   0  0  0  0  0  0  0  0  0  0  0  0
    2.0117    8.7950    9.5436 C   0  0  0  0  0  0  0  0  0  0  0  0
    2.4697    7.3545    9.6968 C   0  0  0  0  0  0  0  0  0  0  0  0
    2.5552    6.6327    8.3559 C   0  0  0  0  0  0  0  0  0  0  0  0
    1.2335    6.7706    7.5997 C   0  0  0  0  0  0  0  0  0  0  0  0
    0.0364   10.2844    8.7982 C   0  0  0  0  0  0  0  0  0  0  0  0
    0.8804   11.2758    7.9978 C   0  0  0  0  0  0  0  0  0  0  0  0
   -0.2454   10.8118   10.2044 C   0  0  0  0  0  0  0  0  0  0  0  0
    2.9327    5.1706    8.5389 C   0  0  0  0  0  0  0  0  0  0  0  0
   -3.4427    4.9590    5.0408 B   0  0  0  0  0  0  0  0  0  0  0  0
   -3.3690    5.4995    3.3510 B   0  0  0  0  0  0  0  0  0  0  0  0
   -4.8511    5.7347    4.3105 B   0  0  0  0  0  0  0  0  0  0  0  0
   -4.3648    6.1344    5.9868 B   0  0  0  0  0  0  0  0  0  0  0  0
   -2.5884    6.1554    6.0391 B   0  0  0  0  0  0  0  0  0  0  0  0
   -2.4912    7.0501    3.3316 B   0  0  0  0  0  0  0  0  0  0  0  0
   -4.2593    7.0344    3.2372 B   0  0  0  0  0  0  0  0  0  0  0  0
   -4.8980    7.4166    4.8612 B   0  0  0  0  0  0  0  0  0  0  0  0
   -3.5054    7.6825    5.9459 B   0  0  0  0  0  0  0  0  0  0  0  0
   -3.4402    8.2291    4.2573 B   0  0  0  0  0  0  0  0  0  0  0  0
   -3.3276    3.9969    5.3128 H   0  0  0  0  0  0  0  0  0  0  0  0
   -3.1559    4.8190    2.5133 H   0  0  0  0  0  0  0  0  0  0  0  0
   -5.7514    5.1689    4.1130 H   0  0  0  0  0  0  0  0  0  0  0  0
   -4.9081    5.8073    6.8171 H   0  0  0  0  0  0  0  0  0  0  0  0
   -1.9087    5.8598    6.8602 H   0  0  0  0  0  0  0  0  0  0  0  0
   -1.7572    7.3291    2.6179 H   0  0  0  0  0  0  0  0  0  0  0  0
   -4.7011    7.3904    2.3595 H   0  0  0  0  0  0  0  0  0  0  0  0
   -5.8675    7.9589    4.9621 H   0  0  0  0  0  0  0  0  0  0  0  0
   -3.4034    8.3962    6.7956 H   0  0  0  0  0  0  0  0  0  0  0  0
   -3.3175    9.2795    4.0300 H   0  0  0  0  0  0  0  0  0  0  0  0
    0.3989    3.5946    6.4479 H   0  0  0  0  0  0  0  0  0  0  0  0
   -1.0301    2.8687    6.7064 H   0  0  0  0  0  0  0  0  0  0  0  0
    0.2222    2.1865    6.0050 H   0  0  0  0  0  0  0  0  0  0  0  0
   -0.9089    1.7317    3.7839 H   0  0  0  0  0  0  0  0  0  0  0  0
   -1.7673    2.8337    3.2055 H   0  0  0  0  0  0  0  0  0  0  0  0
   -2.1561    2.0903    4.5591 H   0  0  0  0  0  0  0  0  0  0  0  0
    1.6158    4.6529    2.5472 H   0  0  0  0  0  0  0  0  0  0  0  0
    0.0808    4.9152    0.2061 H   0  0  0  0  0  0  0  0  0  0  0  0
    2.7671    4.2855    0.3046 H   0  0  0  0  0  0  0  0  0  0  0  0
    2.0047    4.3992   -1.0060 H   0  0  0  0  0  0  0  0  0  0  0  0
    1.7572    6.6470   -0.6983 H   0  0  0  0  0  0  0  0  0  0  0  0
    3.1963    6.3583   -0.6952 H   0  0  0  0  0  0  0  0  0  0  0  0
    3.2317    6.4370    1.5566 H   0  0  0  0  0  0  0  0  0  0  0  0
    0.4747    6.9968    1.5781 H   0  0  0  0  0  0  0  0  0  0  0  0
    1.2927    6.9093    2.7933 H   0  0  0  0  0  0  0  0  0  0  0  0
   -0.4848    3.0086    1.1198 H   0  0  0  0  0  0  0  0  0  0  0  0
    1.0402    1.1720    1.5597 H   0  0  0  0  0  0  0  0  0  0  0  0
    2.1359    2.1253    1.1352 H   0  0  0  0  0  0  0  0  0  0  0  0
    1.5048    2.3964    2.4057 H   0  0  0  0  0  0  0  0  0  0  0  0
   -0.2272    1.5305   -0.6645 H   0  0  0  0  0  0  0  0  0  0  0  0
   -0.2979    2.9824   -1.2797 H   0  0  0  0  0  0  0  0  0  0  0  0
    0.9998    2.2740   -1.1813 H   0  0  0  0  0  0  0  0  0  0  0  0
    3.5952    8.5011    0.6306 H   0  0  0  0  0  0  0  0  0  0  0  0
    2.0955    8.7897    0.6491 H   0  0  0  0  0  0  0  0  0  0  0  0
    2.9186    8.7110    1.9811 H   0  0  0  0  0  0  0  0  0  0  0  0
   -2.3379   11.1336    4.8329 H   0  0  0  0  0  0  0  0  0  0  0  0
   -1.1008   11.4922    5.7127 H   0  0  0  0  0  0  0  0  0  0  0  0
   -1.9441   10.4340    6.1988 H   0  0  0  0  0  0  0  0  0  0  0  0
    0.2525   11.1074    3.5501 H   0  0  0  0  0  0  0  0  0  0  0  0
   -0.9190   10.4777    2.8517 H   0  0  0  0  0  0  0  0  0  0  0  0
    0.4090    9.7343    3.0978 H   0  0  0  0  0  0  0  0  0  0  0  0
    1.4341    8.6935    6.9402 H   0  0  0  0  0  0  0  0  0  0  0  0
    0.0202    8.3262    9.3766 H   0  0  0  0  0  0  0  0  0  0  0  0
    2.6560    9.2533    9.0382 H   0  0  0  0  0  0  0  0  0  0  0  0
    1.9895    9.1833   10.4533 H   0  0  0  0  0  0  0  0  0  0  0  0
    1.8885    6.8918   10.3149 H   0  0  0  0  0  0  0  0  0  0  0  0
    3.2973    7.3729   10.1272 H   0  0  0  0  0  0  0  0  0  0  0  0
    3.2771    7.0580    7.7769 H   0  0  0  0  0  0  0  0  0  0  0  0
    0.5050    6.2971    8.1030 H   0  0  0  0  0  0  0  0  0  0  0  0
    1.3583    6.4633    6.7187 H   0  0  0  0  0  0  0  0  0  0  0  0
   -0.8635   10.2066    8.3030 H   0  0  0  0  0  0  0  0  0  0  0  0
    0.4595   12.1307    8.0138 H   0  0  0  0  0  0  0  0  0  0  0  0
    1.7118   11.4135    8.4045 H   0  0  0  0  0  0  0  0  0  0  0  0
    1.0402   11.0374    7.0694 H   0  0  0  0  0  0  0  0  0  0  0  0
   -0.8231   10.1891   10.6533 H   0  0  0  0  0  0  0  0  0  0  0  0
    0.4999   11.0112   10.6963 H   0  0  0  0  0  0  0  0  0  0  0  0
   -0.7877   11.6147   10.1734 H   0  0  0  0  0  0  0  0  0  0  0  0
    2.3026    4.7053    9.0413 H   0  0  0  0  0  0  0  0  0  0  0  0
    3.0499    4.7403    7.6323 H   0  0  0  0  0  0  0  0  0  0  0  0
    3.7770    5.1077    8.9767 H   0  0  0  0  0  0  0  0  0  0  0  0
  1  3  1  0  0  0  0
  2  4  1  0  0  0  0
  3 11  1  0  0  0  0
  4 23  1  0  0  0  0
  5  1  1  0  0  0  0
  6  2  1  0  0  0  0
  7  1  1  0  0  0  0
  8  2  1  0  0  0  0
  9  5  1  0  0  0  0
 10  5  1  0  0  0  0
 11 12  1  0  0  0  0
 12 13  1  0  0  0  0
 13 14  1  0  0  0  0
 14 15  1  0  0  0  0
 15 16  1  0  0  0  0
 16 11  1  0  0  0  0
 17 12  1  0  0  0  0
 18 17  1  0  0  0  0
 19 17  1  0  0  0  0
 20 15  1  0  0  0  0
 21  6  1  0  0  0  0
 22  6  1  0  0  0  0
 23 24  1  0  0  0  0
 24 25  1  0  0  0  0
 25 26  1  0  0  0  0
 26 27  1  0  0  0  0
 27 28  1  0  0  0  0
 28 23  1  0  0  0  0
 29 24  1  0  0  0  0
 30 29  1  0  0  0  0
 31 29  1  0  0  0  0
 32 27  1  0  0  0  0
 33  7  1  0  0  0  0
 34  7  1  0  0  0  0
 35 33  1  0  0  0  0
 36 33  1  0  0  0  0
 37  7  1  0  0  0  0
 38  7  1  0  0  0  0
 39 34  1  0  0  0  0
 40 35  1  0  0  0  0
 41  8  1  0  0  0  0
 42  8  1  0  0  0  0
 43 33  1  0  0  0  0
 44 34  1  0  0  0  0
 45 35  1  0  0  0  0
 46 36  1  0  0  0  0
 47 37  1  0  0  0  0
 48 38  1  0  0  0  0
 49 39  1  0  0  0  0
 50 40  1  0  0  0  0
 51 41  1  0  0  0  0
 52 42  1  0  0  0  0
 53  9  1  0  0  0  0
 54  9  1  0  0  0  0
 55  9  1  0  0  0  0
 56 10  1  0  0  0  0
 57 10  1  0  0  0  0
 58 10  1  0  0  0  0
 59 11  1  0  0  0  0
 60 12  1  0  0  0  0
 61 13  1  0  0  0  0
 62 13  1  0  0  0  0
 63 14  1  0  0  0  0
 64 14  1  0  0  0  0
 65 15  1  0  0  0  0
 66 16  1  0  0  0  0
 67 16  1  0  0  0  0
 68 17  1  0  0  0  0
 69 18  1  0  0  0  0
 70 18  1  0  0  0  0
 71 18  1  0  0  0  0
 72 19  1  0  0  0  0
 73 19  1  0  0  0  0
 74 19  1  0  0  0  0
 75 20  1  0  0  0  0
 76 20  1  0  0  0  0
 77 20  1  0  0  0  0
 78 21  1  0  0  0  0
 79 21  1  0  0  0  0
 80 21  1  0  0  0  0
 81 22  1  0  0  0  0
 82 22  1  0  0  0  0
 83 22  1  0  0  0  0
 84 23  1  0  0  0  0
 85 24  1  0  0  0  0
 86 25  1  0  0  0  0
 87 25  1  0  0  0  0
 88 26  1  0  0  0  0
 89 26  1  0  0  0  0
 90 27  1  0  0  0  0
 91 28  1  0  0  0  0
 92 28  1  0  0  0  0
 93 29  1  0  0  0  0
 94 30  1  0  0  0  0
 95 30  1  0  0  0  0
 96 30  1  0  0  0  0
 97 31  1  0  0  0  0
 98 31  1  0  0  0  0
 99 31  1  0  0  0  0
100 32  1  0  0  0  0
101 32  1  0  0  0  0
102 32  1  0  0  0  0
  7  8  1  0  0  0  0
  8 37  1  0  0  0  0
  8 38  1  0  0  0  0
 33 34  1  0  0  0  0
 33 37  1  0  0  0  0
 34 35  1  0  0  0  0
 34 38  1  0  0  0  0
 35 36  1  0  0  0  0
 35 39  1  0  0  0  0
 36 37  1  0  0  0  0
 36 40  1  0  0  0  0
 36 41  1  0  0  0  0
 37 41  1  0  0  0  0
 38 39  1  0  0  0  0
 38 42  1  0  0  0  0
 39 40  1  0  0  0  0
 39 42  1  0  0  0  0
 40 41  1  0  0  0  0
 40 42  1  0  0  0  0
 41 42  1  0  0  0  0
M  END
$$$$
CIPNAT

From CSD data. Using bond type 'Any'. Matching problem. No disordered atoms. Largest molecule.
176220  0  0  0  0  0  0  0  0999 V2000
    8.5993   21.1703   16.8510 Rh  0  0  0  0  0  0  0  0  0  0  0  0
   11.2154   23.4019   17.4779 Cl  0  0  0  0  0  0  0  0  0  0  0  0
    6.4674   19.6351   19.1348 Cl  0  0  0  0  0  0  0  0  0  0  0  0
    6.6378   20.7507   15.5090 Cl  0  0  0  0  0  0  0  0  0  0  0  0
   10.3676   21.6129   17.9860 P   0  0  0  0  0  0  0  0  0  0  0  0
    7.4908   21.3439   18.6797 P   0  0  0  0  0  0  0  0  0  0  0  0
   11.6257   20.6688   18.0950 O   0  0  0  0  0  0  0  0  0  0  0  0
    6.4129   22.4598   18.9841 O   0  0  0  0  0  0  0  0  0  0  0  0
   10.1048   21.8286   19.8119 C   0  0  0  0  0  0  0  0  0  0  0  0
    8.5049   21.6060   20.1978 C   0  0  0  0  0  0  0  0  0  0  0  0
   12.1437   19.8506   16.9763 C   0  0  0  0  0  0  0  0  0  0  0  0
   11.9298   20.2929   16.1169 H   0  0  0  0  0  0  0  0  0  0  0  0
   13.6615   19.7702   17.1451 C   0  0  0  0  0  0  0  0  0  0  0  0
   13.8366   19.3521   18.0252 H   0  0  0  0  0  0  0  0  0  0  0  0
   14.2025   18.8084   16.0659 C   0  0  0  0  0  0  0  0  0  0  0  0
   14.0624   19.2055   15.1810 H   0  0  0  0  0  0  0  0  0  0  0  0
   15.1672   18.6921   16.1936 H   0  0  0  0  0  0  0  0  0  0  0  0
   13.5369   17.4693   16.1123 C   0  0  0  0  0  0  0  0  0  0  0  0
   13.7449   17.0381   16.9662 H   0  0  0  0  0  0  0  0  0  0  0  0
   13.8971   16.9066   15.3948 H   0  0  0  0  0  0  0  0  0  0  0  0
   12.0308   17.5646   15.9578 C   0  0  0  0  0  0  0  0  0  0  0  0
   11.8349   17.9561   15.0701 H   0  0  0  0  0  0  0  0  0  0  0  0
   11.4747   18.5133   17.0323 C   0  0  0  0  0  0  0  0  0  0  0  0
   10.5108   18.6263   16.8976 H   0  0  0  0  0  0  0  0  0  0  0  0
   11.6123   18.1180   17.9183 H   0  0  0  0  0  0  0  0  0  0  0  0
   14.3317   21.1528   17.1550 C   0  0  0  0  0  0  0  0  0  0  0  0
   13.8333   21.7168   17.7972 H   0  0  0  0  0  0  0  0  0  0  0  0
   14.2883   21.8647   15.7882 C   0  0  0  0  0  0  0  0  0  0  0  0
   14.6500   22.7613   15.8789 H   0  0  0  0  0  0  0  0  0  0  0  0
   13.3701   21.9166   15.4795 H   0  0  0  0  0  0  0  0  0  0  0  0
   14.8170   21.3652   15.1467 H   0  0  0  0  0  0  0  0  0  0  0  0
   15.7924   21.0410   17.6701 C   0  0  0  0  0  0  0  0  0  0  0  0
   15.7891   20.7052   18.5799 H   0  0  0  0  0  0  0  0  0  0  0  0
   16.2098   21.9166   17.6520 H   0  0  0  0  0  0  0  0  0  0  0  0
   16.2900   20.4320   17.1033 H   0  0  0  0  0  0  0  0  0  0  0  0
   11.3292   16.2027   16.0484 C   0  0  0  0  0  0  0  0  0  0  0  0
   11.6090   15.6446   15.3061 H   0  0  0  0  0  0  0  0  0  0  0  0
   10.3684   16.3325   16.0100 H   0  0  0  0  0  0  0  0  0  0  0  0
   11.5649   15.7710   16.8855 H   0  0  0  0  0  0  0  0  0  0  0  0
    5.5081   23.0321   17.9737 C   0  0  0  0  0  0  0  0  0  0  0  0
    5.2767   22.3364   17.3091 H   0  0  0  0  0  0  0  0  0  0  0  0
    4.2482   23.4732   18.7005 C   0  0  0  0  0  0  0  0  0  0  0  0
    4.5189   24.1548   19.3645 H   0  0  0  0  0  0  0  0  0  0  0  0
    3.3403   24.1699   17.6802 C   0  0  0  0  0  0  0  0  0  0  0  0
    3.0344   23.5124   17.0206 H   0  0  0  0  0  0  0  0  0  0  0  0
    2.5500   24.5215   18.1401 H   0  0  0  0  0  0  0  0  0  0  0  0
    4.0477   25.3080   16.9609 C   0  0  0  0  0  0  0  0  0  0  0  0
    4.2701   26.0085   17.6076 H   0  0  0  0  0  0  0  0  0  0  0  0
    3.4420   25.6949   16.2945 H   0  0  0  0  0  0  0  0  0  0  0  0
    5.3250   24.8449   16.2668 C   0  0  0  0  0  0  0  0  0  0  0  0
    5.0721   24.1674   15.5905 H   0  0  0  0  0  0  0  0  0  0  0  0
    6.2229   24.1720   17.2806 C   0  0  0  0  0  0  0  0  0  0  0  0
    6.5108   24.8300   17.9485 H   0  0  0  0  0  0  0  0  0  0  0  0
    7.0230   23.8285   16.8290 H   0  0  0  0  0  0  0  0  0  0  0  0
    3.5654   22.3268   19.4789 C   0  0  0  0  0  0  0  0  0  0  0  0
    4.2407   21.9545   20.1008 H   0  0  0  0  0  0  0  0  0  0  0  0
    2.4092   22.8634   20.3388 C   0  0  0  0  0  0  0  0  0  0  0  0
    1.6269   22.9939   19.7821 H   0  0  0  0  0  0  0  0  0  0  0  0
    2.6694   23.7097   20.7382 H   0  0  0  0  0  0  0  0  0  0  0  0
    2.2046   22.2251   21.0408 H   0  0  0  0  0  0  0  0  0  0  0  0
    3.0861   21.1741   18.5980 C   0  0  0  0  0  0  0  0  0  0  0  0
    2.4714   21.5119   17.9283 H   0  0  0  0  0  0  0  0  0  0  0  0
    2.6367   20.5130   19.1467 H   0  0  0  0  0  0  0  0  0  0  0  0
    3.8479   20.7659   18.1583 H   0  0  0  0  0  0  0  0  0  0  0  0
    6.0410   25.9734   15.5501 C   0  0  0  0  0  0  0  0  0  0  0  0
    6.3062   26.6484   16.1936 H   0  0  0  0  0  0  0  0  0  0  0  0
    5.4453   26.3702   14.8946 H   0  0  0  0  0  0  0  0  0  0  0  0
    6.8266   25.6241   15.1023 H   0  0  0  0  0  0  0  0  0  0  0  0
   11.1236   21.2059   21.0291 B   0  0  0  0  0  0  0  0  0  0  0  0
    9.6311   20.3382   20.5639 B   0  0  0  0  0  0  0  0  0  0  0  0
   10.0149   20.5906   22.2747 B   0  0  0  0  0  0  0  0  0  0  0  0
   10.7544   22.1887   22.4552 B   0  0  0  0  0  0  0  0  0  0  0  0
   10.8341   22.9606   20.8514 B   0  0  0  0  0  0  0  0  0  0  0  0
    8.3430   20.8202   21.7048 B   0  0  0  0  0  0  0  0  0  0  0  0
    9.0411   21.9588   22.8701 B   0  0  0  0  0  0  0  0  0  0  0  0
    9.5448   23.4348   21.9788 B   0  0  0  0  0  0  0  0  0  0  0  0
    9.1581   23.2049   20.2769 B   0  0  0  0  0  0  0  0  0  0  0  0
    8.0563   22.5746   21.5398 B   0  0  0  0  0  0  0  0  0  0  0  0
   12.0199   20.7633   20.7221 H   0  0  0  0  0  0  0  0  0  0  0  0
    9.5223   19.5014   19.9051 H   0  0  0  0  0  0  0  0  0  0  0  0
   10.2719   19.7366   22.8703 H   0  0  0  0  0  0  0  0  0  0  0  0
   11.6172   22.4173   23.0499 H   0  0  0  0  0  0  0  0  0  0  0  0
   11.5174   23.6490   20.4437 H   0  0  0  0  0  0  0  0  0  0  0  0
    7.5239   20.1463   21.8093 H   0  0  0  0  0  0  0  0  0  0  0  0
    8.7154   22.0127   23.9354 H   0  0  0  0  0  0  0  0  0  0  0  0
    9.4748   24.4507   22.3519 H   0  0  0  0  0  0  0  0  0  0  0  0
    8.8921   23.9600   19.5905 H   0  0  0  0  0  0  0  0  0  0  0  0
    7.0852   23.0597   21.4684 H   0  0  0  0  0  0  0  0  0  0  0  0
    7.7676   21.1703   13.4061 Rh  0  0  0  0  0  0  0  0  0  0  0  0
    5.1515   23.4019   12.7792 Cl  0  0  0  0  0  0  0  0  0  0  0  0
    9.8995   19.6351   11.1223 Cl  0  0  0  0  0  0  0  0  0  0  0  0
    9.7291   20.7507   14.7481 Cl  0  0  0  0  0  0  0  0  0  0  0  0
    5.9993   21.6129   12.2711 P   0  0  0  0  0  0  0  0  0  0  0  0
    8.8761   21.3439   11.5774 P   0  0  0  0  0  0  0  0  0  0  0  0
    4.7412   20.6688   12.1621 O   0  0  0  0  0  0  0  0  0  0  0  0
    9.9540   22.4598   11.2730 O   0  0  0  0  0  0  0  0  0  0  0  0
    6.2621   21.8286   10.4452 C   0  0  0  0  0  0  0  0  0  0  0  0
    7.8620   21.6060   10.0593 C   0  0  0  0  0  0  0  0  0  0  0  0
    4.2232   19.8506   13.2808 C   0  0  0  0  0  0  0  0  0  0  0  0
    4.4371   20.2929   14.1402 H   0  0  0  0  0  0  0  0  0  0  0  0
    2.7054   19.7702   13.1120 C   0  0  0  0  0  0  0  0  0  0  0  0
    2.5303   19.3521   12.2319 H   0  0  0  0  0  0  0  0  0  0  0  0
    2.1644   18.8084   14.1912 C   0  0  0  0  0  0  0  0  0  0  0  0
    2.3045   19.2055   15.0761 H   0  0  0  0  0  0  0  0  0  0  0  0
    1.1997   18.6921   14.0635 H   0  0  0  0  0  0  0  0  0  0  0  0
    2.8300   17.4693   14.1448 C   0  0  0  0  0  0  0  0  0  0  0  0
    2.6220   17.0381   13.2909 H   0  0  0  0  0  0  0  0  0  0  0  0
    2.4698   16.9066   14.8623 H   0  0  0  0  0  0  0  0  0  0  0  0
    4.3361   17.5646   14.2993 C   0  0  0  0  0  0  0  0  0  0  0  0
    4.5320   17.9561   15.1870 H   0  0  0  0  0  0  0  0  0  0  0  0
    4.8922   18.5133   13.2248 C   0  0  0  0  0  0  0  0  0  0  0  0
    5.8561   18.6263   13.3595 H   0  0  0  0  0  0  0  0  0  0  0  0
    4.7546   18.1180   12.3388 H   0  0  0  0  0  0  0  0  0  0  0  0
    2.0352   21.1528   13.1021 C   0  0  0  0  0  0  0  0  0  0  0  0
    2.5336   21.7168   12.4599 H   0  0  0  0  0  0  0  0  0  0  0  0
    2.0786   21.8647   14.4689 C   0  0  0  0  0  0  0  0  0  0  0  0
    1.7169   22.7613   14.3782 H   0  0  0  0  0  0  0  0  0  0  0  0
    2.9968   21.9166   14.7776 H   0  0  0  0  0  0  0  0  0  0  0  0
    1.5499   21.3652   15.1104 H   0  0  0  0  0  0  0  0  0  0  0  0
    0.5745   21.0410   12.5870 C   0  0  0  0  0  0  0  0  0  0  0  0
    0.5778   20.7052   11.6772 H   0  0  0  0  0  0  0  0  0  0  0  0
    0.1571   21.9166   12.6051 H   0  0  0  0  0  0  0  0  0  0  0  0
    0.0769   20.4320   13.1538 H   0  0  0  0  0  0  0  0  0  0  0  0
    5.0377   16.2027   14.2087 C   0  0  0  0  0  0  0  0  0  0  0  0
    4.7579   15.6446   14.9510 H   0  0  0  0  0  0  0  0  0  0  0  0
    5.9985   16.3325   14.2471 H   0  0  0  0  0  0  0  0  0  0  0  0
    4.8020   15.7710   13.3716 H   0  0  0  0  0  0  0  0  0  0  0  0
   10.8588   23.0321   12.2834 C   0  0  0  0  0  0  0  0  0  0  0  0
   11.0902   22.3364   12.9480 H   0  0  0  0  0  0  0  0  0  0  0  0
   12.1187   23.4732   11.5566 C   0  0  0  0  0  0  0  0  0  0  0  0
   11.8480   24.1548   10.8926 H   0  0  0  0  0  0  0  0  0  0  0  0
   13.0266   24.1699   12.5769 C   0  0  0  0  0  0  0  0  0  0  0  0
   13.3325   23.5124   13.2365 H   0  0  0  0  0  0  0  0  0  0  0  0
   13.8169   24.5215   12.1170 H   0  0  0  0  0  0  0  0  0  0  0  0
   12.3192   25.3080   13.2962 C   0  0  0  0  0  0  0  0  0  0  0  0
   12.0968   26.0085   12.6495 H   0  0  0  0  0  0  0  0  0  0  0  0
   12.9249   25.6949   13.9626 H   0  0  0  0  0  0  0  0  0  0  0  0
   11.0419   24.8449   13.9903 C   0  0  0  0  0  0  0  0  0  0  0  0
   11.2948   24.1674   14.6666 H   0  0  0  0  0  0  0  0  0  0  0  0
   10.1440   24.1720   12.9765 C   0  0  0  0  0  0  0  0  0  0  0  0
    9.8561   24.8300   12.3086 H   0  0  0  0  0  0  0  0  0  0  0  0
    9.3439   23.8285   13.4281 H   0  0  0  0  0  0  0  0  0  0  0  0
   12.8015   22.3268   10.7782 C   0  0  0  0  0  0  0  0  0  0  0  0
   12.1262   21.9545   10.1563 H   0  0  0  0  0  0  0  0  0  0  0  0
   13.9577   22.8634    9.9183 C   0  0  0  0  0  0  0  0  0  0  0  0
   14.7400   22.9939   10.4750 H   0  0  0  0  0  0  0  0  0  0  0  0
   13.6975   23.7097    9.5189 H   0  0  0  0  0  0  0  0  0  0  0  0
   14.1623   22.2251    9.2163 H   0  0  0  0  0  0  0  0  0  0  0  0
   13.2808   21.1741   11.6591 C   0  0  0  0  0  0  0  0  0  0  0  0
   13.8955   21.5119   12.3288 H   0  0  0  0  0  0  0  0  0  0  0  0
   13.7302   20.5130   11.1104 H   0  0  0  0  0  0  0  0  0  0  0  0
   12.5190   20.7659   12.0988 H   0  0  0  0  0  0  0  0  0  0  0  0
   10.3259   25.9734   14.7070 C   0  0  0  0  0  0  0  0  0  0  0  0
   10.0607   26.6484   14.0635 H   0  0  0  0  0  0  0  0  0  0  0  0
   10.9216   26.3702   15.3625 H   0  0  0  0  0  0  0  0  0  0  0  0
    9.5403   25.6241   15.1548 H   0  0  0  0  0  0  0  0  0  0  0  0
    5.2433   21.2059    9.2280 B   0  0  0  0  0  0  0  0  0  0  0  0
    6.7358   20.3382    9.6932 B   0  0  0  0  0  0  0  0  0  0  0  0
    6.3520   20.5906    7.9824 B   0  0  0  0  0  0  0  0  0  0  0  0
    5.6125   22.1887    7.8019 B   0  0  0  0  0  0  0  0  0  0  0  0
    5.5328   22.9606    9.4057 B   0  0  0  0  0  0  0  0  0  0  0  0
    8.0239   20.8202    8.5523 B   0  0  0  0  0  0  0  0  0  0  0  0
    7.3258   21.9588    7.3870 B   0  0  0  0  0  0  0  0  0  0  0  0
    6.8221   23.4348    8.2783 B   0  0  0  0  0  0  0  0  0  0  0  0
    7.2088   23.2049    9.9802 B   0  0  0  0  0  0  0  0  0  0  0  0
    8.3106   22.5746    8.7173 B   0  0  0  0  0  0  0  0  0  0  0  0
    4.3470   20.7633    9.5350 H   0  0  0  0  0  0  0  0  0  0  0  0
    6.8446   19.5014   10.3520 H   0  0  0  0  0  0  0  0  0  0  0  0
    6.0950   19.7366    7.3868 H   0  0  0  0  0  0  0  0  0  0  0  0
    4.7497   22.4173    7.2072 H   0  0  0  0  0  0  0  0  0  0  0  0
    4.8495   23.6490    9.8134 H   0  0  0  0  0  0  0  0  0  0  0  0
    8.8430   20.1463    8.4478 H   0  0  0  0  0  0  0  0  0  0  0  0
    7.6515   22.0127    6.3217 H   0  0  0  0  0  0  0  0  0  0  0  0
    6.8921   24.4507    7.9052 H   0  0  0  0  0  0  0  0  0  0  0  0
    7.4748   23.9600   10.6666 H   0  0  0  0  0  0  0  0  0  0  0  0
    9.2817   23.0597    8.7887 H   0  0  0  0  0  0  0  0  0  0  0  0
  1  4  1  0  0  0  0
  2  5  1  0  0  0  0
  3  6  1  0  0  0  0
  4 89  1  0  0  0  0
  5  1  1  0  0  0  0
  6  1  1  0  0  0  0
  7  5  1  0  0  0  0
  8  6  1  0  0  0  0
  9  5  1  0  0  0  0
 10  6  1  0  0  0  0
 11  7  1  0  0  0  0
 12 11  1  0  0  0  0
 13 11  1  0  0  0  0
 14 13  1  0  0  0  0
 15 13  1  0  0  0  0
 16 15  1  0  0  0  0
 17 15  1  0  0  0  0
 18 15  1  0  0  0  0
 19 18  1  0  0  0  0
 20 18  1  0  0  0  0
 21 18  1  0  0  0  0
 22 21  1  0  0  0  0
 23 11  1  0  0  0  0
 24 23  1  0  0  0  0
 25 23  1  0  0  0  0
 26 13  1  0  0  0  0
 27 26  1  0  0  0  0
 28 26  1  0  0  0  0
 29 28  1  0  0  0  0
 30 28  1  0  0  0  0
 31 28  1  0  0  0  0
 32 26  1  0  0  0  0
 33 32  1  0  0  0  0
 34 32  1  0  0  0  0
 35 32  1  0  0  0  0
 36 21  1  0  0  0  0
 37 36  1  0  0  0  0
 38 36  1  0  0  0  0
 39 36  1  0  0  0  0
 40  8  1  0  0  0  0
 41 40  1  0  0  0  0
 42 40  1  0  0  0  0
 43 42  1  0  0  0  0
 44 42  1  0  0  0  0
 45 44  1  0  0  0  0
 46 44  1  0  0  0  0
 47 44  1  0  0  0  0
 48 47  1  0  0  0  0
 49 47  1  0  0  0  0
 50 47  1  0  0  0  0
 51 50  1  0  0  0  0
 52 40  1  0  0  0  0
 53 52  1  0  0  0  0
 54 52  1  0  0  0  0
 55 42  1  0  0  0  0
 56 55  1  0  0  0  0
 57 55  1  0  0  0  0
 58 57  1  0  0  0  0
 59 57  1  0  0  0  0
 60 57  1  0  0  0  0
 61 55  1  0  0  0  0
 62 61  1  0  0  0  0
 63 61  1  0  0  0  0
 64 61  1  0  0  0  0
 65 50  1  0  0  0  0
 66 65  1  0  0  0  0
 67 65  1  0  0  0  0
 68 65  1  0  0  0  0
 69  9  1  0  0  0  0
 70  9  1  0  0  0  0
 71 69  1  0  0  0  0
 72 69  1  0  0  0  0
 73  9  1  0  0  0  0
 74 10  1  0  0  0  0
 75 71  1  0  0  0  0
 76 72  1  0  0  0  0
 77  9  1  0  0  0  0
 78 10  1  0  0  0  0
 79 69  1  0  0  0  0
 80 70  1  0  0  0  0
 81 71  1  0  0  0  0
 82 72  1  0  0  0  0
 83 73  1  0  0  0  0
 84 74  1  0  0  0  0
 85 75  1  0  0  0  0
 86 76  1  0  0  0  0
 87 77  1  0  0  0  0
 88 78  1  0  0  0  0
 89 92  1  0  0  0  0
 90 93  1  0  0  0  0
 91 94  1  0  0  0  0
 92  1  1  0  0  0  0
 93 89  1  0  0  0  0
 94 89  1  0  0  0  0
 95 93  1  0  0  0  0
 96 94  1  0  0  0  0
 97 93  1  0  0  0  0
 98 94  1  0  0  0  0
 99 95  1  0  0  0  0
100 99  1  0  0  0  0
101 99  1  0  0  0  0
102101  1  0  0  0  0
103101  1  0  0  0  0
104103  1  0  0  0  0
105103  1  0  0  0  0
106103  1  0  0  0  0
107106  1  0  0  0  0
108106  1  0  0  0  0
109106  1  0  0  0  0
110109  1  0  0  0  0
111 99  1  0  0  0  0
112111  1  0  0  0  0
113111  1  0  0  0  0
114101  1  0  0  0  0
115114  1  0  0  0  0
116114  1  0  0  0  0
117116  1  0  0  0  0
118116  1  0  0  0  0
119116  1  0  0  0  0
120114  1  0  0  0  0
121120  1  0  0  0  0
122120  1  0  0  0  0
123120  1  0  0  0  0
124109  1  0  0  0  0
125124  1  0  0  0  0
126124  1  0  0  0  0
127124  1  0  0  0  0
128 96  1  0  0  0  0
129128  1  0  0  0  0
130128  1  0  0  0  0
131130  1  0  0  0  0
132130  1  0  0  0  0
133132  1  0  0  0  0
134132  1  0  0  0  0
135132  1  0  0  0  0
136135  1  0  0  0  0
137135  1  0  0  0  0
138135  1  0  0  0  0
139138  1  0  0  0  0
140128  1  0  0  0  0
141140  1  0  0  0  0
142140  1  0  0  0  0
143130  1  0  0  0  0
144143  1  0  0  0  0
145143  1  0  0  0  0
146145  1  0  0  0  0
147145  1  0  0  0  0
148145  1  0  0  0  0
149143  1  0  0  0  0
150149  1  0  0  0  0
151149  1  0  0  0  0
152149  1  0  0  0  0
153138  1  0  0  0  0
154153  1  0  0  0  0
155153  1  0  0  0  0
156153  1  0  0  0  0
157 97  1  0  0  0  0
158 97  1  0  0  0  0
159157  1  0  0  0  0
160157  1  0  0  0  0
161 97  1  0  0  0  0
162 98  1  0  0  0  0
163159  1  0  0  0  0
164160  1  0  0  0  0
165 97  1  0  0  0  0
166 98  1  0  0  0  0
167157  1  0  0  0  0
168158  1  0  0  0  0
169159  1  0  0  0  0
170160  1  0  0  0  0
171161  1  0  0  0  0
172162  1  0  0  0  0
173163  1  0  0  0  0
174164  1  0  0  0  0
175165  1  0  0  0  0
176166  1  0  0  0  0
  9 10  1  0  0  0  0
 10 70  1  0  0  0  0
 10 77  1  0  0  0  0
 21 23  1  0  0  0  0
 50 52  1  0  0  0  0
 69 70  1  0  0  0  0
 69 73  1  0  0  0  0
 70 71  1  0  0  0  0
 70 74  1  0  0  0  0
 71 72  1  0  0  0  0
 71 74  1  0  0  0  0
 72 73  1  0  0  0  0
 72 75  1  0  0  0  0
 73 76  1  0  0  0  0
 73 77  1  0  0  0  0
 74 75  1  0  0  0  0
 74 78  1  0  0  0  0
 75 76  1  0  0  0  0
 75 78  1  0  0  0  0
 76 77  1  0  0  0  0
 76 78  1  0  0  0  0
 77 78  1  0  0  0  0
 97 98  1  0  0  0  0
 98158  1  0  0  0  0
 98165  1  0  0  0  0
109111  1  0  0  0  0
138140  1  0  0  0  0
157158  1  0  0  0  0
157161  1  0  0  0  0
158159  1  0  0  0  0
158162  1  0  0  0  0
159160  1  0  0  0  0
159162  1  0  0  0  0
160161  1  0  0  0  0
160163  1  0  0  0  0
161164  1  0  0  0  0
161165  1  0  0  0  0
162163  1  0  0  0  0
162166  1  0  0  0  0
163164  1  0  0  0  0
163166  1  0  0  0  0
164165  1  0  0  0  0
164166  1  0  0  0  0
165166  1  0  0  0  0
M  END
$$$$
CIPNEX

From CSD data. Using bond type 'Any'. No disordered atoms. Largest molecule.
168216  0  0  0  0  0  0  0  0999 V2000
    5.8843    6.5517   15.2599 Rh  0  0  0  0  0  0  0  0  0  0  0  0
    4.4967    3.5242   14.2108 Rh  0  0  0  0  0  0  0  0  0  0  0  0
    7.7114    6.5879   18.2830 Cl  0  0  0  0  0  0  0  0  0  0  0  0
    5.7841    9.0084   12.7253 Cl  0  0  0  0  0  0  0  0  0  0  0  0
    6.4515    0.7111   15.1409 Cl  0  0  0  0  0  0  0  0  0  0  0  0
    1.6441    3.5849   12.1771 Cl  0  0  0  0  0  0  0  0  0  0  0  0
    5.7249    4.3043   16.1316 Cl  0  0  0  0  0  0  0  0  0  0  0  0
    4.0712    5.8542   13.8344 Cl  0  0  0  0  0  0  0  0  0  0  0  0
    7.6772    7.0515   16.3067 P   0  0  0  0  0  0  0  0  0  0  0  0
    5.7529    8.6096   14.7130 P   0  0  0  0  0  0  0  0  0  0  0  0
    4.5937    1.4509   14.7208 P   0  0  0  0  0  0  0  0  0  0  0  0
    3.5683    2.9454   12.3771 P   0  0  0  0  0  0  0  0  0  0  0  0
    9.0809    6.5207   15.8185 O   0  0  0  0  0  0  0  0  0  0  0  0
    4.5492    9.4965   15.2186 O   0  0  0  0  0  0  0  0  0  0  0  0
    3.7276    0.8493   15.8877 O   0  0  0  0  0  0  0  0  0  0  0  0
    4.2006    3.2866   10.9762 O   0  0  0  0  0  0  0  0  0  0  0  0
    8.1136    8.8377   16.3214 C   0  0  0  0  0  0  0  0  0  0  0  0
    7.0928    9.7111   15.3403 C   0  0  0  0  0  0  0  0  0  0  0  0
    9.3005    5.1007   15.5121 C   0  0  0  0  0  0  0  0  0  0  0  0
    8.4250    4.6220   15.4342 H   0  0  0  0  0  0  0  0  0  0  0  0
   10.0880    4.9741   14.2214 C   0  0  0  0  0  0  0  0  0  0  0  0
   11.3522    5.8577   14.3556 C   0  0  0  0  0  0  0  0  0  0  0  0
   11.1238    6.7574   14.7010 H   0  0  0  0  0  0  0  0  0  0  0  0
   11.8164    5.9506   13.4861 H   0  0  0  0  0  0  0  0  0  0  0  0
   12.2245    5.0680   15.3757 C   0  0  0  0  0  0  0  0  0  0  0  0
   13.0722    4.7685   14.9649 H   0  0  0  0  0  0  0  0  0  0  0  0
   12.4288    5.6199   16.1727 H   0  0  0  0  0  0  0  0  0  0  0  0
   11.3367    3.8751   15.7452 C   0  0  0  0  0  0  0  0  0  0  0  0
   11.8225    3.1119   16.1709 H   0  0  0  0  0  0  0  0  0  0  0  0
   10.1700    4.4393   16.5782 C   0  0  0  0  0  0  0  0  0  0  0  0
    9.6803    3.7185   17.0458 H   0  0  0  0  0  0  0  0  0  0  0  0
   10.4905    5.0999   17.2424 H   0  0  0  0  0  0  0  0  0  0  0  0
    9.2746    5.2611   12.9736 C   0  0  0  0  0  0  0  0  0  0  0  0
    8.4818    4.6850   12.9619 H   0  0  0  0  0  0  0  0  0  0  0  0
    9.8203    5.0832   12.1791 H   0  0  0  0  0  0  0  0  0  0  0  0
    8.9943    6.2009   12.9743 H   0  0  0  0  0  0  0  0  0  0  0  0
   10.6595    3.5360   14.4035 C   0  0  0  0  0  0  0  0  0  0  0  0
    9.5745    2.4470   14.4885 C   0  0  0  0  0  0  0  0  0  0  0  0
    9.0341    2.4599   13.6720 H   0  0  0  0  0  0  0  0  0  0  0  0
    8.9995    2.6196   15.2642 H   0  0  0  0  0  0  0  0  0  0  0  0
    9.9991    1.5701   14.5859 H   0  0  0  0  0  0  0  0  0  0  0  0
   11.6476    3.1013   13.3072 C   0  0  0  0  0  0  0  0  0  0  0  0
   12.1290    2.3008   13.5994 H   0  0  0  0  0  0  0  0  0  0  0  0
   12.2877    3.8247   13.1390 H   0  0  0  0  0  0  0  0  0  0  0  0
   11.1544    2.9044   12.4837 H   0  0  0  0  0  0  0  0  0  0  0  0
    3.1633    9.1484   14.9018 C   0  0  0  0  0  0  0  0  0  0  0  0
    3.1328    8.3614   14.2866 H   0  0  0  0  0  0  0  0  0  0  0  0
    2.3582    8.8705   16.1606 C   0  0  0  0  0  0  0  0  0  0  0  0
    2.5173   10.0850   17.0794 C   0  0  0  0  0  0  0  0  0  0  0  0
    3.4663   10.3611   17.1379 H   0  0  0  0  0  0  0  0  0  0  0  0
    2.1832    9.8856   17.9897 H   0  0  0  0  0  0  0  0  0  0  0  0
    1.6624   11.1881   16.4064 C   0  0  0  0  0  0  0  0  0  0  0  0
    0.8884   11.4380   16.9714 H   0  0  0  0  0  0  0  0  0  0  0  0
    2.2015   11.9955   16.2170 H   0  0  0  0  0  0  0  0  0  0  0  0
    1.2176   10.5143   15.1349 C   0  0  0  0  0  0  0  0  0  0  0  0
    0.4504   10.9663   14.6797 H   0  0  0  0  0  0  0  0  0  0  0  0
    2.4514   10.3589   14.2636 C   0  0  0  0  0  0  0  0  0  0  0  0
    3.0184   11.1694   14.2990 H   0  0  0  0  0  0  0  0  0  0  0  0
    2.2040   10.1742   13.3232 H   0  0  0  0  0  0  0  0  0  0  0  0
    2.6477    7.5318   16.8226 C   0  0  0  0  0  0  0  0  0  0  0  0
    2.4642    6.8081   16.1886 H   0  0  0  0  0  0  0  0  0  0  0  0
    2.0772    7.4266   17.6125 H   0  0  0  0  0  0  0  0  0  0  0  0
    3.5891    7.4979   17.0936 H   0  0  0  0  0  0  0  0  0  0  0  0
    0.9258    9.0638   15.5776 C   0  0  0  0  0  0  0  0  0  0  0  0
    0.5719    8.1406   14.4141 C   0  0  0  0  0  0  0  0  0  0  0  0
    0.6566    7.2061   14.7010 H   0  0  0  0  0  0  0  0  0  0  0  0
    1.1815    8.3086   13.6667 H   0  0  0  0  0  0  0  0  0  0  0  0
   -0.3494    8.3119   14.1290 H   0  0  0  0  0  0  0  0  0  0  0  0
   -0.1567    8.9557   16.6508 C   0  0  0  0  0  0  0  0  0  0  0  0
   -1.0021    9.3035   16.2984 H   0  0  0  0  0  0  0  0  0  0  0  0
    0.1086    9.4780   17.4372 H   0  0  0  0  0  0  0  0  0  0  0  0
   -0.2711    8.0170   16.9076 H   0  0  0  0  0  0  0  0  0  0  0  0
    4.0099    0.2797   13.4117 C   0  0  0  0  0  0  0  0  0  0  0  0
    3.4023    1.1310   12.1207 C   0  0  0  0  0  0  0  0  0  0  0  0
    3.5179    1.5515   17.1811 C   0  0  0  0  0  0  0  0  0  0  0  0
    4.0859    2.3737   17.2158 H   0  0  0  0  0  0  0  0  0  0  0  0
    2.0551    1.9274   17.3623 C   0  0  0  0  0  0  0  0  0  0  0  0
    1.2264    0.6338   17.1644 C   0  0  0  0  0  0  0  0  0  0  0  0
    0.2591    0.8387   17.1202 H   0  0  0  0  0  0  0  0  0  0  0  0
    1.4930    0.1689   16.3321 H   0  0  0  0  0  0  0  0  0  0  0  0
    1.5512   -0.2281   18.4024 C   0  0  0  0  0  0  0  0  0  0  0  0
    0.7382   -0.4064   18.9390 H   0  0  0  0  0  0  0  0  0  0  0  0
    1.9625   -1.0898   18.1420 H   0  0  0  0  0  0  0  0  0  0  0  0
    2.5379    0.6424   19.1717 C   0  0  0  0  0  0  0  0  0  0  0  0
    2.6388    0.4050   20.1379 H   0  0  0  0  0  0  0  0  0  0  0  0
    3.8553    0.6365   18.3676 C   0  0  0  0  0  0  0  0  0  0  0  0
    4.6055    1.0021   18.9018 H   0  0  0  0  0  0  0  0  0  0  0  0
    4.0880   -0.2764   18.0641 H   0  0  0  0  0  0  0  0  0  0  0  0
    1.6086    3.1068   16.5588 C   0  0  0  0  0  0  0  0  0  0  0  0
    2.1503    3.8874   16.7978 H   0  0  0  0  0  0  0  0  0  0  0  0
    0.6659    3.2933   16.7483 H   0  0  0  0  0  0  0  0  0  0  0  0
    1.7189    2.9118   15.6042 H   0  0  0  0  0  0  0  0  0  0  0  0
    2.0155    2.0679   18.9142 C   0  0  0  0  0  0  0  0  0  0  0  0
    2.8977    3.1767   19.4561 C   0  0  0  0  0  0  0  0  0  0  0  0
    2.8675    3.1689   20.4355 H   0  0  0  0  0  0  0  0  0  0  0  0
    2.5742    4.0411   19.1267 H   0  0  0  0  0  0  0  0  0  0  0  0
    3.8196    3.0369   19.1550 H   0  0  0  0  0  0  0  0  0  0  0  0
    0.5933    2.3070   19.4703 C   0  0  0  0  0  0  0  0  0  0  0  0
    0.6177    2.2802   20.4496 H   0  0  0  0  0  0  0  0  0  0  0  0
   -0.0090    1.6090   19.1391 H   0  0  0  0  0  0  0  0  0  0  0  0
    0.2701    3.1838   19.1763 H   0  0  0  0  0  0  0  0  0  0  0  0
    4.8613    4.5607   10.6596 C   0  0  0  0  0  0  0  0  0  0  0  0
    5.2925    4.9363   11.4796 H   0  0  0  0  0  0  0  0  0  0  0  0
    5.9029    4.3423    9.5780 C   0  0  0  0  0  0  0  0  0  0  0  0
    5.2356    3.6146    8.4188 C   0  0  0  0  0  0  0  0  0  0  0  0
    4.7369    2.8202    8.7363 H   0  0  0  0  0  0  0  0  0  0  0  0
    5.9038    3.3290    7.7463 H   0  0  0  0  0  0  0  0  0  0  0  0
    4.2705    4.6826    7.8295 C   0  0  0  0  0  0  0  0  0  0  0  0
    4.4874    4.8784    6.8838 H   0  0  0  0  0  0  0  0  0  0  0  0
    3.3280    4.3881    7.8933 H   0  0  0  0  0  0  0  0  0  0  0  0
    4.5306    5.8932    8.7168 C   0  0  0  0  0  0  0  0  0  0  0  0
    4.2491    6.7648    8.3166 H   0  0  0  0  0  0  0  0  0  0  0  0
    3.8827    5.5826   10.0654 C   0  0  0  0  0  0  0  0  0  0  0  0
    2.9805    5.1924    9.9512 H   0  0  0  0  0  0  0  0  0  0  0  0
    3.8185    6.3922   10.6313 H   0  0  0  0  0  0  0  0  0  0  0  0
    7.1848    3.6779   10.0805 C   0  0  0  0  0  0  0  0  0  0  0  0
    7.5578    4.2051   10.8190 H   0  0  0  0  0  0  0  0  0  0  0  0
    7.8368    3.6306    9.3508 H   0  0  0  0  0  0  0  0  0  0  0  0
    6.9818    2.7725   10.3975 H   0  0  0  0  0  0  0  0  0  0  0  0
    6.0255    5.7955    9.0250 C   0  0  0  0  0  0  0  0  0  0  0  0
    6.5294    6.8194   10.0344 C   0  0  0  0  0  0  0  0  0  0  0  0
    7.4352    6.5778   10.3213 H   0  0  0  0  0  0  0  0  0  0  0  0
    5.9336    6.8325   10.8119 H   0  0  0  0  0  0  0  0  0  0  0  0
    6.5447    7.7072    9.6200 H   0  0  0  0  0  0  0  0  0  0  0  0
    6.9356    5.9115    7.7906 C   0  0  0  0  0  0  0  0  0  0  0  0
    6.8298    6.7995    7.3886 H   0  0  0  0  0  0  0  0  0  0  0  0
    6.6875    5.2250    7.1371 H   0  0  0  0  0  0  0  0  0  0  0  0
    7.8695    5.7843    8.0598 H   0  0  0  0  0  0  0  0  0  0  0  0
    9.7056    9.4296   16.1957 B   0  0  0  0  0  0  0  0  0  0  0  0
   10.6223    8.7932   16.2860 H   0  0  0  0  0  0  0  0  0  0  0  0
    8.7131    9.7911   17.6036 B   0  0  0  0  0  0  0  0  0  0  0  0
    8.9980    9.4028   18.6149 H   0  0  0  0  0  0  0  0  0  0  0  0
    9.5892   11.0856   16.8173 B   0  0  0  0  0  0  0  0  0  0  0  0
   10.4553   11.5812   17.3256 H   0  0  0  0  0  0  0  0  0  0  0  0
    9.6147   10.8213   15.0782 B   0  0  0  0  0  0  0  0  0  0  0  0
   10.4813   11.1217   14.4353 H   0  0  0  0  0  0  0  0  0  0  0  0
    8.6585    9.3416   14.7435 B   0  0  0  0  0  0  0  0  0  0  0  0
    8.8791    8.6589   13.8828 H   0  0  0  0  0  0  0  0  0  0  0  0
    6.9916    9.9184   17.0653 B   0  0  0  0  0  0  0  0  0  0  0  0
    6.1302    9.6005   17.7081 H   0  0  0  0  0  0  0  0  0  0  0  0
    7.9191   11.3803   17.3734 B   0  0  0  0  0  0  0  0  0  0  0  0
    7.6639   12.0449   18.2394 H   0  0  0  0  0  0  0  0  0  0  0  0
    8.5140   12.0180   15.8025 B   0  0  0  0  0  0  0  0  0  0  0  0
    8.6691   13.1130   15.6308 H   0  0  0  0  0  0  0  0  0  0  0  0
    7.8806   10.9424   14.5292 B   0  0  0  0  0  0  0  0  0  0  0  0
    7.5855   11.3162   13.5162 H   0  0  0  0  0  0  0  0  0  0  0  0
    6.8842   11.2990   15.9283 B   0  0  0  0  0  0  0  0  0  0  0  0
    5.9490   11.9056   15.8291 H   0  0  0  0  0  0  0  0  0  0  0  0
    4.7680   -1.1392   12.8999 B   0  0  0  0  0  0  0  0  0  0  0  0
    5.6578   -1.6006   13.4029 H   0  0  0  0  0  0  0  0  0  0  0  0
    3.1462   -1.1806   13.6667 B   0  0  0  0  0  0  0  0  0  0  0  0
    2.9659   -1.6649   14.6603 H   0  0  0  0  0  0  0  0  0  0  0  0
    3.4770   -2.1001   12.1986 B   0  0  0  0  0  0  0  0  0  0  0  0
    3.5069   -3.2190   12.2198 H   0  0  0  0  0  0  0  0  0  0  0  0
    4.5650   -1.1686   11.1360 B   0  0  0  0  0  0  0  0  0  0  0  0
    5.3132   -1.6573   10.4630 H   0  0  0  0  0  0  0  0  0  0  0  0
    4.9144    0.3544   11.9560 B   0  0  0  0  0  0  0  0  0  0  0  0
    5.8870    0.8998   11.8408 H   0  0  0  0  0  0  0  0  0  0  0  0
    2.3045    0.3066   13.1797 B   0  0  0  0  0  0  0  0  0  0  0  0
    1.5785    0.8211   13.8580 H   0  0  0  0  0  0  0  0  0  0  0  0
    1.9409   -1.2034   12.3757 B   0  0  0  0  0  0  0  0  0  0  0  0
    0.9521   -1.7115   12.5120 H   0  0  0  0  0  0  0  0  0  0  0  0
    2.8282   -1.2242   10.8119 B   0  0  0  0  0  0  0  0  0  0  0  0
    2.4235   -1.7662    9.9193 H   0  0  0  0  0  0  0  0  0  0  0  0
    3.7077    0.2949   10.6383 B   0  0  0  0  0  0  0  0  0  0  0  0
    3.8807    0.7806    9.6448 H   0  0  0  0  0  0  0  0  0  0  0  0
    2.0875    0.2846   11.4016 B   0  0  0  0  0  0  0  0  0  0  0  0
    1.2075    0.7700   10.9058 H   0  0  0  0  0  0  0  0  0  0  0  0
  1  7  1  0  0  0  0
  2  7  1  0  0  0  0
  3  9  1  0  0  0  0
  4 10  1  0  0  0  0
  5 11  1  0  0  0  0
  6 12  1  0  0  0  0
  8  1  1  0  0  0  0
  9  1  1  0  0  0  0
 10  1  1  0  0  0  0
 11  2  1  0  0  0  0
 12  2  1  0  0  0  0
 13  9  1  0  0  0  0
 14 10  1  0  0  0  0
 15 11  1  0  0  0  0
 16 12  1  0  0  0  0
 17  9  1  0  0  0  0
 18 10  1  0  0  0  0
 19 13  1  0  0  0  0
 20 19  1  0  0  0  0
 21 19  1  0  0  0  0
 22 21  1  0  0  0  0
 23 22  1  0  0  0  0
 24 22  1  0  0  0  0
 25 22  1  0  0  0  0
 26 25  1  0  0  0  0
 27 25  1  0  0  0  0
 28 25  1  0  0  0  0
 29 28  1  0  0  0  0
 30 19  1  0  0  0  0
 31 30  1  0  0  0  0
 32 30  1  0  0  0  0
 33 21  1  0  0  0  0
 34 33  1  0  0  0  0
 35 33  1  0  0  0  0
 36 33  1  0  0  0  0
 37 21  1  0  0  0  0
 38 37  1  0  0  0  0
 39 38  1  0  0  0  0
 40 38  1  0  0  0  0
 41 38  1  0  0  0  0
 42 37  1  0  0  0  0
 43 42  1  0  0  0  0
 44 42  1  0  0  0  0
 45 42  1  0  0  0  0
 46 14  1  0  0  0  0
 47 46  1  0  0  0  0
 48 46  1  0  0  0  0
 49 48  1  0  0  0  0
 50 49  1  0  0  0  0
 51 49  1  0  0  0  0
 52 49  1  0  0  0  0
 53 52  1  0  0  0  0
 54 52  1  0  0  0  0
 55 52  1  0  0  0  0
 56 55  1  0  0  0  0
 57 46  1  0  0  0  0
 58 57  1  0  0  0  0
 59 57  1  0  0  0  0
 60 48  1  0  0  0  0
 61 60  1  0  0  0  0
 62 60  1  0  0  0  0
 63 60  1  0  0  0  0
 64 48  1  0  0  0  0
 65 64  1  0  0  0  0
 66 65  1  0  0  0  0
 67 65  1  0  0  0  0
 68 65  1  0  0  0  0
 69 64  1  0  0  0  0
 70 69  1  0  0  0  0
 71 69  1  0  0  0  0
 72 69  1  0  0  0  0
 73 11  1  0  0  0  0
 74 12  1  0  0  0  0
 75 15  1  0  0  0  0
 76 75  1  0  0  0  0
 77 75  1  0  0  0  0
 78 77  1  0  0  0  0
 79 78  1  0  0  0  0
 80 78  1  0  0  0  0
 81 78  1  0  0  0  0
 82 81  1  0  0  0  0
 83 81  1  0  0  0  0
 84 81  1  0  0  0  0
 85 84  1  0  0  0  0
 86 75  1  0  0  0  0
 87 86  1  0  0  0  0
 88 86  1  0  0  0  0
 89 77  1  0  0  0  0
 90 89  1  0  0  0  0
 91 89  1  0  0  0  0
 92 89  1  0  0  0  0
 93 77  1  0  0  0  0
 94 93  1  0  0  0  0
 95 94  1  0  0  0  0
 96 94  1  0  0  0  0
 97 94  1  0  0  0  0
 98 93  1  0  0  0  0
 99 98  1  0  0  0  0
100 98  1  0  0  0  0
101 98  1  0  0  0  0
102 16  1  0  0  0  0
103102  1  0  0  0  0
104102  1  0  0  0  0
105104  1  0  0  0  0
106105  1  0  0  0  0
107105  1  0  0  0  0
108105  1  0  0  0  0
109108  1  0  0  0  0
110108  1  0  0  0  0
111108  1  0  0  0  0
112111  1  0  0  0  0
113102  1  0  0  0  0
114113  1  0  0  0  0
115113  1  0  0  0  0
116104  1  0  0  0  0
117116  1  0  0  0  0
118116  1  0  0  0  0
119116  1  0  0  0  0
120104  1  0  0  0  0
121120  1  0  0  0  0
122121  1  0  0  0  0
123121  1  0  0  0  0
124121  1  0  0  0  0
125120  1  0  0  0  0
126125  1  0  0  0  0
127125  1  0  0  0  0
128125  1  0  0  0  0
129 17  1  0  0  0  0
130129  1  0  0  0  0
131 17  1  0  0  0  0
132131  1  0  0  0  0
133129  1  0  0  0  0
134133  1  0  0  0  0
135129  1  0  0  0  0
136135  1  0  0  0  0
137 17  1  0  0  0  0
138137  1  0  0  0  0
139 17  1  0  0  0  0
140139  1  0  0  0  0
141131  1  0  0  0  0
142141  1  0  0  0  0
143133  1  0  0  0  0
144143  1  0  0  0  0
145 18  1  0  0  0  0
146145  1  0  0  0  0
147 18  1  0  0  0  0
148147  1  0  0  0  0
149 73  1  0  0  0  0
150149  1  0  0  0  0
151 73  1  0  0  0  0
152151  1  0  0  0  0
153149  1  0  0  0  0
154153  1  0  0  0  0
155149  1  0  0  0  0
156155  1  0  0  0  0
157 73  1  0  0  0  0
158157  1  0  0  0  0
159 73  1  0  0  0  0
160159  1  0  0  0  0
161151  1  0  0  0  0
162161  1  0  0  0  0
163153  1  0  0  0  0
164163  1  0  0  0  0
165 74  1  0  0  0  0
166165  1  0  0  0  0
167 74  1  0  0  0  0
168167  1  0  0  0  0
  2  8  1  0  0  0  0
 17 18  1  0  0  0  0
 18137  1  0  0  0  0
 18139  1  0  0  0  0
 28 30  1  0  0  0  0
 28 37  1  0  0  0  0
 55 57  1  0  0  0  0
 55 64  1  0  0  0  0
 73 74  1  0  0  0  0
 74157  1  0  0  0  0
 74159  1  0  0  0  0
 84 86  1  0  0  0  0
 84 93  1  0  0  0  0
111113  1  0  0  0  0
111120  1  0  0  0  0
129131  1  0  0  0  0
129137  1  0  0  0  0
131133  1  0  0  0  0
131139  1  0  0  0  0
133135  1  0  0  0  0
133141  1  0  0  0  0
135137  1  0  0  0  0
135143  1  0  0  0  0
135145  1  0  0  0  0
137145  1  0  0  0  0
139141  1  0  0  0  0
139147  1  0  0  0  0
141143  1  0  0  0  0
141147  1  0  0  0  0
143145  1  0  0  0  0
143147  1  0  0  0  0
145147  1  0  0  0  0
149151  1  0  0  0  0
149157  1  0  0  0  0
151153  1  0  0  0  0
151159  1  0  0  0  0
153155  1  0  0  0  0
153161  1  0  0  0  0
155157  1  0  0  0  0
155163  1  0  0  0  0
155165  1  0  0  0  0
157165  1  0  0  0  0
159161  1  0  0  0  0
159167  1  0  0  0  0
161163  1  0  0  0  0
161167  1  0  0  0  0
163165  1  0  0  0  0
163167  1  0  0  0  0
165167  1  0  0  0  0
M  END
$$$$
CIPNOH

From CSD data. Using bond type 'Any'. No disordered atoms. Largest molecule.
208252  0  0  0  0  0  0  0  0999 V2000
    6.0460    0.4402   24.2262 Rh  0  0  0  0  0  0  0  0  0  0  0  0
    2.9318   -0.9041   23.0228 Rh  0  0  0  0  0  0  0  0  0  0  0  0
    5.2176   -1.6643   23.3376 Cl  0  0  0  0  0  0  0  0  0  0  0  0
    3.9206    1.2764   23.4088 Cl  0  0  0  0  0  0  0  0  0  0  0  0
    7.9437   -0.3846   24.8028 P   0  0  0  0  0  0  0  0  0  0  0  0
    6.6499    2.3756   24.9609 P   0  0  0  0  0  0  0  0  0  0  0  0
    2.1600   -2.9004   22.7415 P   0  0  0  0  0  0  0  0  0  0  0  0
    0.9742   -0.0772   22.6686 P   0  0  0  0  0  0  0  0  0  0  0  0
    8.0786   -1.4411   25.9988 O   0  0  0  0  0  0  0  0  0  0  0  0
    6.9346    3.5921   23.9867 O   0  0  0  0  0  0  0  0  0  0  0  0
    2.5636   -3.8146   21.5004 O   0  0  0  0  0  0  0  0  0  0  0  0
    0.1266    0.6440   23.8240 O   0  0  0  0  0  0  0  0  0  0  0  0
    8.7900   -1.0543   23.5823 N   0  0  0  0  0  0  0  0  0  0  0  0
    5.6672    3.0275   26.1036 N   0  0  0  0  0  0  0  0  0  0  0  0
    2.4050   -3.8913   24.0195 N   0  0  0  0  0  0  0  0  0  0  0  0
    0.8877    0.9935   21.4075 N   0  0  0  0  0  0  0  0  0  0  0  0
    9.0960    0.8894   25.5922 C   0  0  0  0  0  0  0  0  0  0  0  0
    8.3734    2.4169   25.6581 C   0  0  0  0  0  0  0  0  0  0  0  0
    7.0035   -2.2539   26.4885 C   0  0  0  0  0  0  0  0  0  0  0  0
    6.3449   -2.3953   25.7626 H   0  0  0  0  0  0  0  0  0  0  0  0
    7.5803   -3.6302   26.9312 C   0  0  0  0  0  0  0  0  0  0  0  0
    8.2933   -3.4319   27.5883 H   0  0  0  0  0  0  0  0  0  0  0  0
    6.5276   -4.4293   27.6763 C   0  0  0  0  0  0  0  0  0  0  0  0
    5.8098   -4.6767   27.0549 H   0  0  0  0  0  0  0  0  0  0  0  0
    6.9298   -5.2578   28.0117 H   0  0  0  0  0  0  0  0  0  0  0  0
    5.9492   -3.6793   28.8063 C   0  0  0  0  0  0  0  0  0  0  0  0
    6.6542   -3.4849   29.4607 H   0  0  0  0  0  0  0  0  0  0  0  0
    5.2730   -4.2310   29.2517 H   0  0  0  0  0  0  0  0  0  0  0  0
    5.3051   -2.3580   28.3444 C   0  0  0  0  0  0  0  0  0  0  0  0
    4.5905   -2.5739   27.6928 H   0  0  0  0  0  0  0  0  0  0  0  0
    6.3209   -1.5216   27.6515 C   0  0  0  0  0  0  0  0  0  0  0  0
    7.0035   -1.2467   28.3004 H   0  0  0  0  0  0  0  0  0  0  0  0
    5.8899   -0.7107   27.3106 H   0  0  0  0  0  0  0  0  0  0  0  0
    8.2564   -4.3625   25.7819 C   0  0  0  0  0  0  0  0  0  0  0  0
    8.8573   -3.7127   25.3392 H   0  0  0  0  0  0  0  0  0  0  0  0
    7.2646   -4.8279   24.7426 C   0  0  0  0  0  0  0  0  0  0  0  0
    7.7389   -5.2500   24.0085 H   0  0  0  0  0  0  0  0  0  0  0  0
    6.7631   -4.0680   24.4099 H   0  0  0  0  0  0  0  0  0  0  0  0
    6.6526   -5.4679   25.1412 H   0  0  0  0  0  0  0  0  0  0  0  0
    9.0992   -5.5248   26.1970 C   0  0  0  0  0  0  0  0  0  0  0  0
    9.5078   -5.9234   25.4107 H   0  0  0  0  0  0  0  0  0  0  0  0
    8.5465   -6.1826   26.6425 H   0  0  0  0  0  0  0  0  0  0  0  0
    9.7930   -5.2205   26.8019 H   0  0  0  0  0  0  0  0  0  0  0  0
    4.6834   -1.5667   29.4799 C   0  0  0  0  0  0  0  0  0  0  0  0
    4.2700   -0.7637   29.1280 H   0  0  0  0  0  0  0  0  0  0  0  0
    5.3708   -1.3233   30.1206 H   0  0  0  0  0  0  0  0  0  0  0  0
    4.0089   -2.1086   29.9198 H   0  0  0  0  0  0  0  0  0  0  0  0
    8.4920   -0.8089   22.1663 C   0  0  0  0  0  0  0  0  0  0  0  0
    7.7101   -0.2415   22.0948 H   0  0  0  0  0  0  0  0  0  0  0  0
    8.3205   -1.6551   21.7209 H   0  0  0  0  0  0  0  0  0  0  0  0
    9.2498   -0.3711   21.7484 H   0  0  0  0  0  0  0  0  0  0  0  0
   10.0013   -1.8809   23.7473 C   0  0  0  0  0  0  0  0  0  0  0  0
   10.1631   -2.0340   24.6903 H   0  0  0  0  0  0  0  0  0  0  0  0
   10.7624   -1.4215   23.3596 H   0  0  0  0  0  0  0  0  0  0  0  0
    9.8763   -2.7330   23.2991 H   0  0  0  0  0  0  0  0  0  0  0  0
    6.1879    3.8835   22.7574 C   0  0  0  0  0  0  0  0  0  0  0  0
    5.2186    3.7735   22.9197 H   0  0  0  0  0  0  0  0  0  0  0  0
    6.4779    5.2951   22.3258 C   0  0  0  0  0  0  0  0  0  0  0  0
    7.4489    5.3560   22.1498 H   0  0  0  0  0  0  0  0  0  0  0  0
    5.7617    5.5288   21.0005 C   0  0  0  0  0  0  0  0  0  0  0  0
    4.7972    5.4522   21.1517 H   0  0  0  0  0  0  0  0  0  0  0  0
    5.9412    6.4476   20.7091 H   0  0  0  0  0  0  0  0  0  0  0  0
    6.1463    4.5903   19.8870 C   0  0  0  0  0  0  0  0  0  0  0  0
    7.0852    4.7297   19.6423 H   0  0  0  0  0  0  0  0  0  0  0  0
    5.5919    4.7611   19.0979 H   0  0  0  0  0  0  0  0  0  0  0  0
    5.9396    3.1649   20.3709 C   0  0  0  0  0  0  0  0  0  0  0  0
    4.9702    3.0373   20.5221 H   0  0  0  0  0  0  0  0  0  0  0  0
    6.6414    2.9175   21.6796 C   0  0  0  0  0  0  0  0  0  0  0  0
    7.6091    3.0098   21.5504 H   0  0  0  0  0  0  0  0  0  0  0  0
    6.4635    1.9987   21.9738 H   0  0  0  0  0  0  0  0  0  0  0  0
    6.1431    6.3534   23.4146 C   0  0  0  0  0  0  0  0  0  0  0  0
    6.6157    6.0667   24.2367 H   0  0  0  0  0  0  0  0  0  0  0  0
    4.7122    6.5124   23.7913 C   0  0  0  0  0  0  0  0  0  0  0  0
    4.3549    5.6564   24.0717 H   0  0  0  0  0  0  0  0  0  0  0  0
    4.2107    6.8383   23.0269 H   0  0  0  0  0  0  0  0  0  0  0  0
    4.6401    7.1485   24.5199 H   0  0  0  0  0  0  0  0  0  0  0  0
    6.7551    7.7257   23.0186 C   0  0  0  0  0  0  0  0  0  0  0  0
    7.6925    7.6099   22.8014 H   0  0  0  0  0  0  0  0  0  0  0  0
    6.6702    8.3422   23.7638 H   0  0  0  0  0  0  0  0  0  0  0  0
    6.2841    8.0791   22.2488 H   0  0  0  0  0  0  0  0  0  0  0  0
    6.3898    2.1342   19.2959 C   0  0  0  0  0  0  0  0  0  0  0  0
    5.9284    2.3148   18.4628 H   0  0  0  0  0  0  0  0  0  0  0  0
    6.1767    1.2389   19.5983 H   0  0  0  0  0  0  0  0  0  0  0  0
    7.3480    2.2088   19.1584 H   0  0  0  0  0  0  0  0  0  0  0  0
    5.6832    4.4332   26.5215 C   0  0  0  0  0  0  0  0  0  0  0  0
    6.3482    4.9162   26.0073 H   0  0  0  0  0  0  0  0  0  0  0  0
    5.9011    4.4882   27.4673 H   0  0  0  0  0  0  0  0  0  0  0  0
    4.8100    4.8259   26.3703 H   0  0  0  0  0  0  0  0  0  0  0  0
    4.7106    2.2284   26.8294 C   0  0  0  0  0  0  0  0  0  0  0  0
    4.7379    1.3174   26.5022 H   0  0  0  0  0  0  0  0  0  0  0  0
    3.8214    2.5936   26.7002 H   0  0  0  0  0  0  0  0  0  0  0  0
    4.9302    2.2402   27.7725 H   0  0  0  0  0  0  0  0  0  0  0  0
    0.3413   -2.9195   22.3505 C   0  0  0  0  0  0  0  0  0  0  0  0
   -0.3349   -1.3999   22.3038 C   0  0  0  0  0  0  0  0  0  0  0  0
    3.8438   -3.6597   20.7998 C   0  0  0  0  0  0  0  0  0  0  0  0
    4.5584   -3.4516   21.4514 H   0  0  0  0  0  0  0  0  0  0  0  0
    4.1771   -4.9810   20.0575 C   0  0  0  0  0  0  0  0  0  0  0  0
    3.4625   -5.1302   19.3893 H   0  0  0  0  0  0  0  0  0  0  0  0
    5.4541   -4.7591   19.2959 C   0  0  0  0  0  0  0  0  0  0  0  0
    5.6752   -5.5759   18.8009 H   0  0  0  0  0  0  0  0  0  0  0  0
    6.1799   -4.5923   19.9337 H   0  0  0  0  0  0  0  0  0  0  0  0
    5.3852   -3.6067   18.3225 C   0  0  0  0  0  0  0  0  0  0  0  0
    6.2600   -3.4947   17.8991 H   0  0  0  0  0  0  0  0  0  0  0  0
    4.7363   -3.8226   17.6214 H   0  0  0  0  0  0  0  0  0  0  0  0
    4.9910   -2.3207   18.9687 C   0  0  0  0  0  0  0  0  0  0  0  0
    5.7169   -2.0517   19.5845 H   0  0  0  0  0  0  0  0  0  0  0  0
    3.7172   -2.5209   19.7908 C   0  0  0  0  0  0  0  0  0  0  0  0
    3.5122   -1.6904   20.2692 H   0  0  0  0  0  0  0  0  0  0  0  0
    2.9706   -2.7114   19.1859 H   0  0  0  0  0  0  0  0  0  0  0  0
    4.1803   -6.2042   20.9950 C   0  0  0  0  0  0  0  0  0  0  0  0
    3.3039   -6.2061   21.4542 H   0  0  0  0  0  0  0  0  0  0  0  0
    4.2364   -7.5216   20.1454 C   0  0  0  0  0  0  0  0  0  0  0  0
    3.5298   -7.5078   19.4801 H   0  0  0  0  0  0  0  0  0  0  0  0
    4.1162   -8.2873   20.7283 H   0  0  0  0  0  0  0  0  0  0  0  0
    5.0968   -7.5844   19.7028 H   0  0  0  0  0  0  0  0  0  0  0  0
    5.2282   -6.1884   22.0866 C   0  0  0  0  0  0  0  0  0  0  0  0
    5.1641   -7.0052   22.6062 H   0  0  0  0  0  0  0  0  0  0  0  0
    5.0808   -5.4227   22.6640 H   0  0  0  0  0  0  0  0  0  0  0  0
    6.1094   -6.1276   21.6851 H   0  0  0  0  0  0  0  0  0  0  0  0
    4.7956   -1.2094   17.9541 C   0  0  0  0  0  0  0  0  0  0  0  0
    4.5889   -0.3829   18.4188 H   0  0  0  0  0  0  0  0  0  0  0  0
    4.0633   -1.4372   17.3602 H   0  0  0  0  0  0  0  0  0  0  0  0
    5.6079   -1.0955   17.4372 H   0  0  0  0  0  0  0  0  0  0  0  0
    2.7639   -3.3711   25.3365 C   0  0  0  0  0  0  0  0  0  0  0  0
    2.8777   -2.4090   25.2842 H   0  0  0  0  0  0  0  0  0  0  0  0
    3.5923   -3.7794   25.6307 H   0  0  0  0  0  0  0  0  0  0  0  0
    2.0589   -3.5792   25.9688 H   0  0  0  0  0  0  0  0  0  0  0  0
    2.2031   -5.3462   23.9837 C   0  0  0  0  0  0  0  0  0  0  0  0
    1.9756   -5.6191   23.0791 H   0  0  0  0  0  0  0  0  0  0  0  0
    1.4821   -5.5877   24.5859 H   0  0  0  0  0  0  0  0  0  0  0  0
    3.0187   -5.7919   24.2614 H   0  0  0  0  0  0  0  0  0  0  0  0
    0.6954    1.1937   25.0588 C   0  0  0  0  0  0  0  0  0  0  0  0
    1.6455    1.4273   24.8993 H   0  0  0  0  0  0  0  0  0  0  0  0
   -0.0817    2.4718   25.3969 C   0  0  0  0  0  0  0  0  0  0  0  0
   -1.0383    2.2205   25.4492 H   0  0  0  0  0  0  0  0  0  0  0  0
    0.3237    2.9470   26.7772 C   0  0  0  0  0  0  0  0  0  0  0  0
   -0.2371    3.7107   27.0274 H   0  0  0  0  0  0  0  0  0  0  0  0
    1.2530    3.2533   26.7497 H   0  0  0  0  0  0  0  0  0  0  0  0
    0.1923    1.8711   27.8412 C   0  0  0  0  0  0  0  0  0  0  0  0
    0.4807    2.2304   28.7073 H   0  0  0  0  0  0  0  0  0  0  0  0
   -0.7483    1.6060   27.9237 H   0  0  0  0  0  0  0  0  0  0  0  0
    1.0270    0.6558   27.5003 C   0  0  0  0  0  0  0  0  0  0  0  0
    1.9788    0.9267   27.4618 H   0  0  0  0  0  0  0  0  0  0  0  0
    0.6185    0.1374   26.1421 C   0  0  0  0  0  0  0  0  0  0  0  0
   -0.2996   -0.2003   26.1943 H   0  0  0  0  0  0  0  0  0  0  0  0
    1.2017   -0.6126   25.9001 H   0  0  0  0  0  0  0  0  0  0  0  0
    0.0369    3.5615   24.3082 C   0  0  0  0  0  0  0  0  0  0  0  0
   -0.1330    3.1119   23.4421 H   0  0  0  0  0  0  0  0  0  0  0  0
   -1.0254    4.6276   24.4566 C   0  0  0  0  0  0  0  0  0  0  0  0
   -0.9421    5.2696   23.7363 H   0  0  0  0  0  0  0  0  0  0  0  0
   -0.9133    5.0792   25.3090 H   0  0  0  0  0  0  0  0  0  0  0  0
   -1.9035    4.2153   24.4236 H   0  0  0  0  0  0  0  0  0  0  0  0
    1.3683    4.1839   24.2064 C   0  0  0  0  0  0  0  0  0  0  0  0
    1.3763    4.8082   23.4641 H   0  0  0  0  0  0  0  0  0  0  0  0
    2.0365    3.4947   24.0580 H   0  0  0  0  0  0  0  0  0  0  0  0
    1.5686    4.6551   25.0285 H   0  0  0  0  0  0  0  0  0  0  0  0
    0.8748   -0.4496   28.5533 C   0  0  0  0  0  0  0  0  0  0  0  0
    1.3972   -1.2232   28.2867 H   0  0  0  0  0  0  0  0  0  0  0  0
   -0.0593   -0.6989   28.6276 H   0  0  0  0  0  0  0  0  0  0  0  0
    1.1921   -0.1237   29.4112 H   0  0  0  0  0  0  0  0  0  0  0  0
    1.9500    1.1250   20.4479 C   0  0  0  0  0  0  0  0  0  0  0  0
    2.6742    0.5242   20.6816 H   0  0  0  0  0  0  0  0  0  0  0  0
    2.2752    2.0399   20.4479 H   0  0  0  0  0  0  0  0  0  0  0  0
    1.6167    0.9012   19.5653 H   0  0  0  0  0  0  0  0  0  0  0  0
   -0.2708    1.8691   21.1737 C   0  0  0  0  0  0  0  0  0  0  0  0
   -0.9533    1.6885   21.8391 H   0  0  0  0  0  0  0  0  0  0  0  0
   -0.6297    1.7003   20.2884 H   0  0  0  0  0  0  0  0  0  0  0  0
    0.0064    2.7958   21.2370 H   0  0  0  0  0  0  0  0  0  0  0  0
   10.7768    1.0798   25.2952 B   0  0  0  0  0  0  0  0  0  0  0  0
   11.4001    0.3671   24.7151 H   0  0  0  0  0  0  0  0  0  0  0  0
   10.1231    0.6420   26.8899 B   0  0  0  0  0  0  0  0  0  0  0  0
   10.3057   -0.3514   27.3491 H   0  0  0  0  0  0  0  0  0  0  0  0
   11.4081    1.8789   26.6755 B   0  0  0  0  0  0  0  0  0  0  0  0
   12.4512    1.7061   27.0164 H   0  0  0  0  0  0  0  0  0  0  0  0
   11.0700    2.7899   25.2155 B   0  0  0  0  0  0  0  0  0  0  0  0
   11.8792    3.2238   24.5913 H   0  0  0  0  0  0  0  0  0  0  0  0
    9.5991    2.1184   24.4841 B   0  0  0  0  0  0  0  0  0  0  0  0
    9.4197    2.0792   23.3871 H   0  0  0  0  0  0  0  0  0  0  0  0
    8.5913    1.4882   27.1126 B   0  0  0  0  0  0  0  0  0  0  0  0
    7.7565    1.0602   27.7038 H   0  0  0  0  0  0  0  0  0  0  0  0
   10.0446    2.1342   27.8770 B   0  0  0  0  0  0  0  0  0  0  0  0
   10.1904    2.1361   28.9768 H   0  0  0  0  0  0  0  0  0  0  0  0
   10.6326    3.4771   26.7937 B   0  0  0  0  0  0  0  0  0  0  0  0
   11.1581    4.3625   27.2089 H   0  0  0  0  0  0  0  0  0  0  0  0
    9.5142    3.6263   25.4519 B   0  0  0  0  0  0  0  0  0  0  0  0
    9.2915    4.6099   24.9873 H   0  0  0  0  0  0  0  0  0  0  0  0
    8.9182    3.1767   27.0384 B   0  0  0  0  0  0  0  0  0  0  0  0
    8.2885    3.8756   27.6295 H   0  0  0  0  0  0  0  0  0  0  0  0
   -0.4326   -3.9129   21.1490 B   0  0  0  0  0  0  0  0  0  0  0  0
    0.0641   -4.7336   20.5909 H   0  0  0  0  0  0  0  0  0  0  0  0
   -0.8284   -4.0366   22.9032 B   0  0  0  0  0  0  0  0  0  0  0  0
   -0.5944   -4.9515   23.4861 H   0  0  0  0  0  0  0  0  0  0  0  0
   -2.1166   -3.9895   21.6742 B   0  0  0  0  0  0  0  0  0  0  0  0
   -2.7495   -4.8750   21.4514 H   0  0  0  0  0  0  0  0  0  0  0  0
   -1.6551   -2.9018   20.4149 B   0  0  0  0  0  0  0  0  0  0  0  0
   -1.9740   -3.0608   19.3646 H   0  0  0  0  0  0  0  0  0  0  0  0
   -0.0513   -2.2205   20.8328 B   0  0  0  0  0  0  0  0  0  0  0  0
    0.7098   -1.9221   20.0795 H   0  0  0  0  0  0  0  0  0  0  0  0
   -0.6842   -2.4345   23.6345 B   0  0  0  0  0  0  0  0  0  0  0  0
   -0.3381   -2.2775   24.6793 H   0  0  0  0  0  0  0  0  0  0  0  0
   -2.2592   -3.0923   23.2084 B   0  0  0  0  0  0  0  0  0  0  0  0
   -2.9770   -3.3848   24.0030 H   0  0  0  0  0  0  0  0  0  0  0  0
   -2.8008   -2.3756   21.6577 B   0  0  0  0  0  0  0  0  0  0  0  0
   -3.8695   -2.1852   21.4294 H   0  0  0  0  0  0  0  0  0  0  0  0
   -1.5286   -1.2860   21.1353 B   0  0  0  0  0  0  0  0  0  0  0  0
   -1.7481   -0.3652   20.5551 H   0  0  0  0  0  0  0  0  0  0  0  0
   -1.9131   -1.4234   22.8454 B   0  0  0  0  0  0  0  0  0  0  0  0
   -2.3986   -0.5929   23.4008 H   0  0  0  0  0  0  0  0  0  0  0  0
  1  3  1  0  0  0  0
  2  3  1  0  0  0  0
  4  1  1  0  0  0  0
  5  1  1  0  0  0  0
  6  1  1  0  0  0  0
  7  2  1  0  0  0  0
  8  2  1  0  0  0  0
  9  5  1  0  0  0  0
 10  6  1  0  0  0  0
 11  7  1  0  0  0  0
 12  8  1  0  0  0  0
 13  5  1  0  0  0  0
 14  6  1  0  0  0  0
 15  7  1  0  0  0  0
 16  8  1  0  0  0  0
 17  5  1  0  0  0  0
 18  6  1  0  0  0  0
 19  9  1  0  0  0  0
 20 19  1  0  0  0  0
 21 19  1  0  0  0  0
 22 21  1  0  0  0  0
 23 21  1  0  0  0  0
 24 23  1  0  0  0  0
 25 23  1  0  0  0  0
 26 23  1  0  0  0  0
 27 26  1  0  0  0  0
 28 26  1  0  0  0  0
 29 26  1  0  0  0  0
 30 29  1  0  0  0  0
 31 19  1  0  0  0  0
 32 31  1  0  0  0  0
 33 31  1  0  0  0  0
 34 21  1  0  0  0  0
 35 34  1  0  0  0  0
 36 34  1  0  0  0  0
 37 36  1  0  0  0  0
 38 36  1  0  0  0  0
 39 36  1  0  0  0  0
 40 34  1  0  0  0  0
 41 40  1  0  0  0  0
 42 40  1  0  0  0  0
 43 40  1  0  0  0  0
 44 29  1  0  0  0  0
 45 44  1  0  0  0  0
 46 44  1  0  0  0  0
 47 44  1  0  0  0  0
 48 13  1  0  0  0  0
 49 48  1  0  0  0  0
 50 48  1  0  0  0  0
 51 48  1  0  0  0  0
 52 13  1  0  0  0  0
 53 52  1  0  0  0  0
 54 52  1  0  0  0  0
 55 52  1  0  0  0  0
 56 10  1  0  0  0  0
 57 56  1  0  0  0  0
 58 56  1  0  0  0  0
 59 58  1  0  0  0  0
 60 58  1  0  0  0  0
 61 60  1  0  0  0  0
 62 60  1  0  0  0  0
 63 60  1  0  0  0  0
 64 63  1  0  0  0  0
 65 63  1  0  0  0  0
 66 63  1  0  0  0  0
 67 66  1  0  0  0  0
 68 56  1  0  0  0  0
 69 68  1  0  0  0  0
 70 68  1  0  0  0  0
 71 58  1  0  0  0  0
 72 71  1  0  0  0  0
 73 71  1  0  0  0  0
 74 73  1  0  0  0  0
 75 73  1  0  0  0  0
 76 73  1  0  0  0  0
 77 71  1  0  0  0  0
 78 77  1  0  0  0  0
 79 77  1  0  0  0  0
 80 77  1  0  0  0  0
 81 66  1  0  0  0  0
 82 81  1  0  0  0  0
 83 81  1  0  0  0  0
 84 81  1  0  0  0  0
 85 14  1  0  0  0  0
 86 85  1  0  0  0  0
 87 85  1  0  0  0  0
 88 85  1  0  0  0  0
 89 14  1  0  0  0  0
 90 89  1  0  0  0  0
 91 89  1  0  0  0  0
 92 89  1  0  0  0  0
 93  7  1  0  0  0  0
 94  8  1  0  0  0  0
 95 11  1  0  0  0  0
 96 95  1  0  0  0  0
 97 95  1  0  0  0  0
 98 97  1  0  0  0  0
 99 97  1  0  0  0  0
100 99  1  0  0  0  0
101 99  1  0  0  0  0
102 99  1  0  0  0  0
103102  1  0  0  0  0
104102  1  0  0  0  0
105102  1  0  0  0  0
106105  1  0  0  0  0
107 95  1  0  0  0  0
108107  1  0  0  0  0
109107  1  0  0  0  0
110 97  1  0  0  0  0
111110  1  0  0  0  0
112110  1  0  0  0  0
113112  1  0  0  0  0
114112  1  0  0  0  0
115112  1  0  0  0  0
116110  1  0  0  0  0
117116  1  0  0  0  0
118116  1  0  0  0  0
119116  1  0  0  0  0
120105  1  0  0  0  0
121120  1  0  0  0  0
122120  1  0  0  0  0
123120  1  0  0  0  0
124 15  1  0  0  0  0
125124  1  0  0  0  0
126124  1  0  0  0  0
127124  1  0  0  0  0
128 15  1  0  0  0  0
129128  1  0  0  0  0
130128  1  0  0  0  0
131128  1  0  0  0  0
132 12  1  0  0  0  0
133132  1  0  0  0  0
134132  1  0  0  0  0
135134  1  0  0  0  0
136134  1  0  0  0  0
137136  1  0  0  0  0
138136  1  0  0  0  0
139136  1  0  0  0  0
140139  1  0  0  0  0
141139  1  0  0  0  0
142139  1  0  0  0  0
143142  1  0  0  0  0
144132  1  0  0  0  0
145144  1  0  0  0  0
146144  1  0  0  0  0
147134  1  0  0  0  0
148147  1  0  0  0  0
149147  1  0  0  0  0
150149  1  0  0  0  0
151149  1  0  0  0  0
152149  1  0  0  0  0
153147  1  0  0  0  0
154153  1  0  0  0  0
155153  1  0  0  0  0
156153  1  0  0  0  0
157142  1  0  0  0  0
158157  1  0  0  0  0
159157  1  0  0  0  0
160157  1  0  0  0  0
161 16  1  0  0  0  0
162161  1  0  0  0  0
163161  1  0  0  0  0
164161  1  0  0  0  0
165 16  1  0  0  0  0
166165  1  0  0  0  0
167165  1  0  0  0  0
168165  1  0  0  0  0
169 17  1  0  0  0  0
170169  1  0  0  0  0
171 17  1  0  0  0  0
172171  1  0  0  0  0
173169  1  0  0  0  0
174173  1  0  0  0  0
175169  1  0  0  0  0
176175  1  0  0  0  0
177 17  1  0  0  0  0
178177  1  0  0  0  0
179 17  1  0  0  0  0
180179  1  0  0  0  0
181171  1  0  0  0  0
182181  1  0  0  0  0
183173  1  0  0  0  0
184183  1  0  0  0  0
185 18  1  0  0  0  0
186185  1  0  0  0  0
187 18  1  0  0  0  0
188187  1  0  0  0  0
189 93  1  0  0  0  0
190189  1  0  0  0  0
191 93  1  0  0  0  0
192191  1  0  0  0  0
193189  1  0  0  0  0
194193  1  0  0  0  0
195189  1  0  0  0  0
196195  1  0  0  0  0
197 93  1  0  0  0  0
198197  1  0  0  0  0
199 93  1  0  0  0  0
200199  1  0  0  0  0
201191  1  0  0  0  0
202201  1  0  0  0  0
203193  1  0  0  0  0
204203  1  0  0  0  0
205 94  1  0  0  0  0
206205  1  0  0  0  0
207 94  1  0  0  0  0
208207  1  0  0  0  0
  2  4  1  0  0  0  0
 17 18  1  0  0  0  0
 18177  1  0  0  0  0
 18179  1  0  0  0  0
 29 31  1  0  0  0  0
 66 68  1  0  0  0  0
 93 94  1  0  0  0  0
 94197  1  0  0  0  0
 94199  1  0  0  0  0
105107  1  0  0  0  0
142144  1  0  0  0  0
169171  1  0  0  0  0
169177  1  0  0  0  0
171173  1  0  0  0  0
171179  1  0  0  0  0
173175  1  0  0  0  0
173181  1  0  0  0  0
175177  1  0  0  0  0
175183  1  0  0  0  0
175185  1  0  0  0  0
177185  1  0  0  0  0
179181  1  0  0  0  0
179187  1  0  0  0  0
181183  1  0  0  0  0
181187  1  0  0  0  0
183185  1  0  0  0  0
183187  1  0  0  0  0
185187  1  0  0  0  0
189191  1  0  0  0  0
189197  1  0  0  0  0
191193  1  0  0  0  0
191199  1  0  0  0  0
193195  1  0  0  0  0
193201  1  0  0  0  0
195197  1  0  0  0  0
195203  1  0  0  0  0
195205  1  0  0  0  0
197205  1  0  0  0  0
199201  1  0  0  0  0
199207  1  0  0  0  0
201203  1  0  0  0  0
201207  1  0  0  0  0
203205  1  0  0  0  0
203207  1  0  0  0  0
205207  1  0  0  0  0
M  END
$$$$
CIPNUK

From CSD data. Using bond type 'Any'. No disordered atoms. Largest molecule.
 76103  0  0  0  0  0  0  0  0999 V2000
    2.2552    4.0404    0.3785 W   0  0  0  0  0  0  0  0  0  0  0  0
    3.1143    3.5687    2.8747 Rh  0  0  0  0  0  0  0  0  0  0  0  0
    4.8679    2.2036    3.6247 P   0  0  0  0  0  0  0  0  0  0  0  0
    2.8732    4.8779    4.7293 P   0  0  0  0  0  0  0  0  0  0  0  0
    3.7883    4.9063    1.3958 C   0  0  0  0  0  0  0  0  0  0  0  0
    4.6825    5.6410    1.6533 O   0  0  0  0  0  0  0  0  0  0  0  0
    3.4181    2.4423   -0.0267 C   0  0  0  0  0  0  0  0  0  0  0  0
    4.0336    1.5396   -0.3025 O   0  0  0  0  0  0  0  0  0  0  0  0
    6.7280    1.5026    1.6139 C   0  0  0  0  0  0  0  0  0  0  0  0
    7.8056    1.7650    0.7697 C   0  0  0  0  0  0  0  0  0  0  0  0
    8.4379    3.0078    0.8133 C   0  0  0  0  0  0  0  0  0  0  0  0
    7.9918    3.9882    1.6998 C   0  0  0  0  0  0  0  0  0  0  0  0
    6.9134    3.7243    2.5440 C   0  0  0  0  0  0  0  0  0  0  0  0
    6.2806    2.4816    2.5018 C   0  0  0  0  0  0  0  0  0  0  0  0
    4.7979    1.6665    6.3573 C   0  0  0  0  0  0  0  0  0  0  0  0
    5.3085    1.5636    7.6518 C   0  0  0  0  0  0  0  0  0  0  0  0
    6.6236    1.9441    7.9177 C   0  0  0  0  0  0  0  0  0  0  0  0
    7.4303    2.4260    6.8863 C   0  0  0  0  0  0  0  0  0  0  0  0
    6.9209    2.5289    5.5918 C   0  0  0  0  0  0  0  0  0  0  0  0
    5.6039    2.1499    5.3273 C   0  0  0  0  0  0  0  0  0  0  0  0
    5.2878   -0.5743    3.8386 C   0  0  0  0  0  0  0  0  0  0  0  0
    4.9333   -1.9133    3.6796 C   0  0  0  0  0  0  0  0  0  0  0  0
    3.7046   -2.2474    3.1097 C   0  0  0  0  0  0  0  0  0  0  0  0
    2.8286   -1.2410    2.7002 C   0  0  0  0  0  0  0  0  0  0  0  0
    3.1831    0.0979    2.8592 C   0  0  0  0  0  0  0  0  0  0  0  0
    4.4118    0.4320    3.4291 C   0  0  0  0  0  0  0  0  0  0  0  0
    0.9863    5.2310    6.7555 C   0  0  0  0  0  0  0  0  0  0  0  0
    0.0496    4.8047    7.6968 C   0  0  0  0  0  0  0  0  0  0  0  0
   -0.1906    3.4417    7.8741 C   0  0  0  0  0  0  0  0  0  0  0  0
    0.5058    2.5049    7.1101 C   0  0  0  0  0  0  0  0  0  0  0  0
    1.4425    2.9312    6.1687 C   0  0  0  0  0  0  0  0  0  0  0  0
    1.6827    4.2942    5.9914 C   0  0  0  0  0  0  0  0  0  0  0  0
    2.6086    7.7055    4.6392 C   0  0  0  0  0  0  0  0  0  0  0  0
    1.9246    8.8779    4.3170 C   0  0  0  0  0  0  0  0  0  0  0  0
    0.7339    8.8142    3.5909 C   0  0  0  0  0  0  0  0  0  0  0  0
    0.2282    7.5796    3.1871 C   0  0  0  0  0  0  0  0  0  0  0  0
    0.9111    6.4072    3.5093 C   0  0  0  0  0  0  0  0  0  0  0  0
    2.1020    6.4694    4.2354 C   0  0  0  0  0  0  0  0  0  0  0  0
    4.5234    5.0593    7.0130 C   0  0  0  0  0  0  0  0  0  0  0  0
    5.6800    5.4485    7.6898 C   0  0  0  0  0  0  0  0  0  0  0  0
    6.6823    6.1452    7.0144 C   0  0  0  0  0  0  0  0  0  0  0  0
    6.5269    6.4527    5.6622 C   0  0  0  0  0  0  0  0  0  0  0  0
    5.3703    6.0635    4.9853 C   0  0  0  0  0  0  0  0  0  0  0  0
    4.3679    5.3667    5.6608 C   0  0  0  0  0  0  0  0  0  0  0  0
    2.5486    5.3144   -1.6941 C   0  0  0  0  0  0  0  0  0  0  0  0
    1.6094    6.1241   -0.6459 C   0  0  0  0  0  0  0  0  0  0  0  0
    2.1757    7.2879    0.1801 C   0  0  0  0  0  0  0  0  0  0  0  0
    1.9266    7.1260    1.0933 H   0  0  0  0  0  0  0  0  0  0  0  0
    1.8251    8.1359   -0.1027 H   0  0  0  0  0  0  0  0  0  0  0  0
    3.1327    7.2958    0.1055 H   0  0  0  0  0  0  0  0  0  0  0  0
    4.0603    5.6321   -1.8363 C   0  0  0  0  0  0  0  0  0  0  0  0
    4.4849    5.7831   -0.9878 H   0  0  0  0  0  0  0  0  0  0  0  0
    4.2530    6.3650   -2.4258 H   0  0  0  0  0  0  0  0  0  0  0  0
    4.3927    4.8175   -2.2204 H   0  0  0  0  0  0  0  0  0  0  0  0
    0.2511    5.1479   -0.1970 B   0  0  0  0  0  0  0  0  0  0  0  0
    0.3819    3.6064   -1.0835 B   0  0  0  0  0  0  0  0  0  0  0  0
    1.9393    3.7610   -1.9896 B   0  0  0  0  0  0  0  0  0  0  0  0
   -0.6836    4.9003   -1.6773 B   0  0  0  0  0  0  0  0  0  0  0  0
    0.3507    4.0216   -2.7987 B   0  0  0  0  0  0  0  0  0  0  0  0
    0.1275    5.7745   -2.9957 B   0  0  0  0  0  0  0  0  0  0  0  0
    1.7350    5.0999   -3.1786 B   0  0  0  0  0  0  0  0  0  0  0  0
    1.5364    6.5647   -2.3259 B   0  0  0  0  0  0  0  0  0  0  0  0
    0.0773    6.4621   -1.3578 B   0  0  0  0  0  0  0  0  0  0  0  0
   -0.2826    6.3545   -3.8977 H   0  0  0  0  0  0  0  0  0  0  0  0
    0.7641    0.7505    0.8682 H   0  0  0  0  0  0  0  0  0  0  0  0
   -0.9574   -0.7923    1.9657 H   0  0  0  0  0  0  0  0  0  0  0  0
   -1.8459    2.0032    4.8517 H   0  0  0  0  0  0  0  0  0  0  0  0
   -0.2541    3.6440    3.8400 H   0  0  0  0  0  0  0  0  0  0  0  0
    1.4382    3.0751    1.7673 C   0  0  0  0  0  0  0  0  0  0  0  0
    0.3662    2.2454    2.3513 C   0  0  0  0  0  0  0  0  0  0  0  0
    0.0872    1.0103    1.7631 C   0  0  0  0  0  0  0  0  0  0  0  0
   -0.8949    0.1853    2.3090 C   0  0  0  0  0  0  0  0  0  0  0  0
   -1.5975    0.5924    3.4432 C   0  0  0  0  0  0  0  0  0  0  0  0
   -1.3182    1.8260    4.0313 C   0  0  0  0  0  0  0  0  0  0  0  0
   -0.3352    2.6525    3.4854 C   0  0  0  0  0  0  0  0  0  0  0  0
   -2.6200   -0.3197    4.0848 C   0  0  0  0  0  0  0  0  0  0  0  0
  1  2  1  0  0  0  0
  2  3  1  0  0  0  0
  3 14  1  0  0  0  0
  4  2  1  0  0  0  0
  5  1  1  0  0  0  0
  6  5  2  0  0  0  0
  7  1  1  0  0  0  0
  8  7  3  0  0  0  0
  9 10  4  0  0  0  0
 10 11  4  0  0  0  0
 11 12  4  0  0  0  0
 12 13  4  0  0  0  0
 13 14  4  0  0  0  0
 14  9  4  0  0  0  0
 15 16  4  0  0  0  0
 16 17  4  0  0  0  0
 17 18  4  0  0  0  0
 18 19  4  0  0  0  0
 19 20  4  0  0  0  0
 20  3  1  0  0  0  0
 21 22  4  0  0  0  0
 22 23  4  0  0  0  0
 23 24  4  0  0  0  0
 24 25  4  0  0  0  0
 25 26  4  0  0  0  0
 26  3  1  0  0  0  0
 27 28  4  0  0  0  0
 28 29  4  0  0  0  0
 29 30  4  0  0  0  0
 30 31  4  0  0  0  0
 31 32  4  0  0  0  0
 32  4  1  0  0  0  0
 33 34  4  0  0  0  0
 34 35  4  0  0  0  0
 35 36  4  0  0  0  0
 36 37  4  0  0  0  0
 37 38  4  0  0  0  0
 38  4  1  0  0  0  0
 39 40  4  0  0  0  0
 40 41  4  0  0  0  0
 41 42  4  0  0  0  0
 42 43  4  0  0  0  0
 43 44  4  0  0  0  0
 44  4  1  0  0  0  0
 45  1  1  0  0  0  0
 46  1  1  0  0  0  0
 47 46  1  0  0  0  0
 48 47  1  0  0  0  0
 49 47  1  0  0  0  0
 50 47  1  0  0  0  0
 51 45  1  0  0  0  0
 52 51  1  0  0  0  0
 53 51  1  0  0  0  0
 54 51  1  0  0  0  0
 55  1  1  0  0  0  0
 56  1  1  0  0  0  0
 57  1  1  0  0  0  0
 58 55  1  0  0  0  0
 59 56  1  0  0  0  0
 60 58  1  0  0  0  0
 61 45  1  0  0  0  0
 62 45  1  0  0  0  0
 63 46  1  0  0  0  0
 64 60  1  0  0  0  0
 65 71  1  0  0  0  0
 66 72  1  0  0  0  0
 67 74  1  0  0  0  0
 68 75  1  0  0  0  0
 69  1  2  0  0  0  0
 70 69  1  0  0  0  0
 71 70  4  0  0  0  0
 72 71  4  0  0  0  0
 73 72  4  0  0  0  0
 74 73  4  0  0  0  0
 75 70  4  0  0  0  0
 76 73  1  0  0  0  0
  2  5  1  0  0  0  0
  2 69  1  0  0  0  0
 15 20  4  0  0  0  0
 21 26  4  0  0  0  0
 27 32  4  0  0  0  0
 33 38  4  0  0  0  0
 39 44  4  0  0  0  0
 45 46  1  0  0  0  0
 45 57  1  0  0  0  0
 46 55  1  0  0  0  0
 46 62  1  0  0  0  0
 55 56  1  0  0  0  0
 55 63  1  0  0  0  0
 56 57  1  0  0  0  0
 56 58  1  0  0  0  0
 57 59  1  0  0  0  0
 57 61  1  0  0  0  0
 58 59  1  0  0  0  0
 58 63  1  0  0  0  0
 59 60  1  0  0  0  0
 59 61  1  0  0  0  0
 60 61  1  0  0  0  0
 60 62  1  0  0  0  0
 60 63  1  0  0  0  0
 61 62  1  0  0  0  0
 62 63  1  0  0  0  0
 74 75  4  0  0  0  0
M  END
$$$$
CIPNUK10

From CSD data. Using bond type 'Any'. No disordered atoms. Largest molecule.
115142  0  0  0  0  0  0  0  0999 V2000
    2.2552    4.0404    0.3785 W   0  0  0  0  0  0  0  0  0  0  0  0
    3.1143    3.5687    2.8747 Rh  0  0  0  0  0  0  0  0  0  0  0  0
    4.8679    2.2036    3.6247 P   0  0  0  0  0  0  0  0  0  0  0  0
    2.8732    4.8779    4.7293 P   0  0  0  0  0  0  0  0  0  0  0  0
    3.7883    4.9063    1.3958 C   0  0  0  0  0  0  0  0  0  0  0  0
    4.6825    5.6410    1.6533 O   0  0  0  0  0  0  0  0  0  0  0  0
    3.4181    2.4423   -0.0267 C   0  0  0  0  0  0  0  0  0  0  0  0
    4.0336    1.5396   -0.3025 O   0  0  0  0  0  0  0  0  0  0  0  0
    6.7280    1.5026    1.6139 C   0  0  0  0  0  0  0  0  0  0  0  0
    7.8056    1.7650    0.7697 C   0  0  0  0  0  0  0  0  0  0  0  0
    8.4379    3.0078    0.8133 C   0  0  0  0  0  0  0  0  0  0  0  0
    7.9918    3.9882    1.6998 C   0  0  0  0  0  0  0  0  0  0  0  0
    6.9134    3.7243    2.5440 C   0  0  0  0  0  0  0  0  0  0  0  0
    6.2806    2.4816    2.5018 C   0  0  0  0  0  0  0  0  0  0  0  0
    4.7979    1.6665    6.3573 C   0  0  0  0  0  0  0  0  0  0  0  0
    5.3085    1.5636    7.6518 C   0  0  0  0  0  0  0  0  0  0  0  0
    6.6236    1.9441    7.9177 C   0  0  0  0  0  0  0  0  0  0  0  0
    7.4303    2.4260    6.8863 C   0  0  0  0  0  0  0  0  0  0  0  0
    6.9209    2.5289    5.5918 C   0  0  0  0  0  0  0  0  0  0  0  0
    5.6039    2.1499    5.3273 C   0  0  0  0  0  0  0  0  0  0  0  0
    5.2878   -0.5743    3.8386 C   0  0  0  0  0  0  0  0  0  0  0  0
    4.9333   -1.9133    3.6796 C   0  0  0  0  0  0  0  0  0  0  0  0
    3.7046   -2.2474    3.1097 C   0  0  0  0  0  0  0  0  0  0  0  0
    2.8286   -1.2410    2.7002 C   0  0  0  0  0  0  0  0  0  0  0  0
    3.1831    0.0979    2.8592 C   0  0  0  0  0  0  0  0  0  0  0  0
    4.4118    0.4320    3.4291 C   0  0  0  0  0  0  0  0  0  0  0  0
    0.9863    5.2310    6.7555 C   0  0  0  0  0  0  0  0  0  0  0  0
    0.0496    4.8047    7.6968 C   0  0  0  0  0  0  0  0  0  0  0  0
   -0.1906    3.4417    7.8741 C   0  0  0  0  0  0  0  0  0  0  0  0
    0.5058    2.5049    7.1101 C   0  0  0  0  0  0  0  0  0  0  0  0
    1.4425    2.9312    6.1687 C   0  0  0  0  0  0  0  0  0  0  0  0
    1.6827    4.2942    5.9914 C   0  0  0  0  0  0  0  0  0  0  0  0
    2.6086    7.7055    4.6392 C   0  0  0  0  0  0  0  0  0  0  0  0
    1.9246    8.8779    4.3170 C   0  0  0  0  0  0  0  0  0  0  0  0
    0.7339    8.8142    3.5909 C   0  0  0  0  0  0  0  0  0  0  0  0
    0.2282    7.5796    3.1871 C   0  0  0  0  0  0  0  0  0  0  0  0
    0.9111    6.4072    3.5093 C   0  0  0  0  0  0  0  0  0  0  0  0
    2.1020    6.4694    4.2354 C   0  0  0  0  0  0  0  0  0  0  0  0
    4.5234    5.0593    7.0130 C   0  0  0  0  0  0  0  0  0  0  0  0
    5.6800    5.4485    7.6898 C   0  0  0  0  0  0  0  0  0  0  0  0
    6.6823    6.1452    7.0144 C   0  0  0  0  0  0  0  0  0  0  0  0
    6.5269    6.4527    5.6622 C   0  0  0  0  0  0  0  0  0  0  0  0
    5.3703    6.0635    4.9853 C   0  0  0  0  0  0  0  0  0  0  0  0
    4.3679    5.3667    5.6608 C   0  0  0  0  0  0  0  0  0  0  0  0
    2.5486    5.3144   -1.6941 C   0  0  0  0  0  0  0  0  0  0  0  0
    1.6094    6.1241   -0.6459 C   0  0  0  0  0  0  0  0  0  0  0  0
    2.1757    7.2879    0.1801 C   0  0  0  0  0  0  0  0  0  0  0  0
    1.9266    7.1260    1.0933 H   0  0  0  0  0  0  0  0  0  0  0  0
    1.7660    8.1359   -0.1027 H   0  0  0  0  0  0  0  0  0  0  0  0
    3.1327    7.2958    0.1055 H   0  0  0  0  0  0  0  0  0  0  0  0
    4.0603    5.6321   -1.8363 C   0  0  0  0  0  0  0  0  0  0  0  0
    4.4849    5.7831   -0.9878 H   0  0  0  0  0  0  0  0  0  0  0  0
    4.2530    6.3650   -2.4258 H   0  0  0  0  0  0  0  0  0  0  0  0
    4.3927    4.8175   -2.2204 H   0  0  0  0  0  0  0  0  0  0  0  0
    0.2511    5.1479   -0.1970 B   0  0  0  0  0  0  0  0  0  0  0  0
    0.3819    3.6064   -1.0835 B   0  0  0  0  0  0  0  0  0  0  0  0
    1.9393    3.7610   -1.9896 B   0  0  0  0  0  0  0  0  0  0  0  0
   -0.6836    4.9003   -1.6773 B   0  0  0  0  0  0  0  0  0  0  0  0
    0.3507    4.0216   -2.7987 B   0  0  0  0  0  0  0  0  0  0  0  0
    0.1275    5.7745   -2.9957 B   0  0  0  0  0  0  0  0  0  0  0  0
    1.7350    5.0999   -3.1786 B   0  0  0  0  0  0  0  0  0  0  0  0
    1.5364    6.5647   -2.3259 B   0  0  0  0  0  0  0  0  0  0  0  0
    0.0773    6.4621   -1.3578 B   0  0  0  0  0  0  0  0  0  0  0  0
    0.7641    0.7505    0.8682 H   0  0  0  0  0  0  0  0  0  0  0  0
   -0.9574   -0.7923    1.9657 H   0  0  0  0  0  0  0  0  0  0  0  0
   -1.8459    2.0032    4.8517 H   0  0  0  0  0  0  0  0  0  0  0  0
   -0.2541    3.6440    3.8400 H   0  0  0  0  0  0  0  0  0  0  0  0
    1.4382    3.0751    1.7673 C   0  0  0  0  0  0  0  0  0  0  0  0
    0.3662    2.2454    2.3513 C   0  0  0  0  0  0  0  0  0  0  0  0
    0.0872    1.0103    1.7631 C   0  0  0  0  0  0  0  0  0  0  0  0
   -0.8949    0.1853    2.3090 C   0  0  0  0  0  0  0  0  0  0  0  0
   -1.5975    0.5924    3.4432 C   0  0  0  0  0  0  0  0  0  0  0  0
   -1.3182    1.8260    4.0313 C   0  0  0  0  0  0  0  0  0  0  0  0
   -0.3352    2.6525    3.4854 C   0  0  0  0  0  0  0  0  0  0  0  0
   -2.6200   -0.3197    4.0848 C   0  0  0  0  0  0  0  0  0  0  0  0
   -0.2826    6.3545   -3.8977 H   0  0  0  0  0  0  0  0  0  0  0  0
    6.2922    0.6480    1.5844 H   0  0  0  0  0  0  0  0  0  0  0  0
    8.1134    1.0916    0.1590 H   0  0  0  0  0  0  0  0  0  0  0  0
    9.1804    3.1890    0.2322 H   0  0  0  0  0  0  0  0  0  0  0  0
    8.4277    4.8428    1.7293 H   0  0  0  0  0  0  0  0  0  0  0  0
    6.6065    4.3992    3.1547 H   0  0  0  0  0  0  0  0  0  0  0  0
    3.8933    1.4051    6.1743 H   0  0  0  0  0  0  0  0  0  0  0  0
    4.7540    1.2316    8.3610 H   0  0  0  0  0  0  0  0  0  0  0  0
    6.9755    1.8720    8.8084 H   0  0  0  0  0  0  0  0  0  0  0  0
    8.3361    2.6874    7.0693 H   0  0  0  0  0  0  0  0  0  0  0  0
    7.4751    2.8625    4.8826 H   0  0  0  0  0  0  0  0  0  0  0  0
    6.1341   -0.3431    4.2311 H   0  0  0  0  0  0  0  0  0  0  0  0
    5.5372   -2.6060    3.9610 H   0  0  0  0  0  0  0  0  0  0  0  0
    3.4615   -3.1698    2.9999 H   0  0  0  0  0  0  0  0  0  0  0  0
    1.9835   -1.4723    2.3076 H   0  0  0  0  0  0  0  0  0  0  0  0
    2.5804    0.7906    2.5778 H   0  0  0  0  0  0  0  0  0  0  0  0
    1.1524    6.1677    6.6331 H   0  0  0  0  0  0  0  0  0  0  0  0
   -0.4298    5.4495    8.2231 H   0  0  0  0  0  0  0  0  0  0  0  0
   -0.8350    3.1497    8.5228 H   0  0  0  0  0  0  0  0  0  0  0  0
    0.3396    1.5682    7.2325 H   0  0  0  0  0  0  0  0  0  0  0  0
    1.9214    2.2865    5.6439 H   0  0  0  0  0  0  0  0  0  0  0  0
    3.4269    7.7491    5.1401 H   0  0  0  0  0  0  0  0  0  0  0  0
    2.2732    9.7279    4.5956 H   0  0  0  0  0  0  0  0  0  0  0  0
    0.2635    9.6222    3.3700 H   0  0  0  0  0  0  0  0  0  0  0  0
   -0.5917    7.5361    2.6876 H   0  0  0  0  0  0  0  0  0  0  0  0
    0.5640    5.5557    3.2307 H   0  0  0  0  0  0  0  0  0  0  0  0
    3.8348    4.5782    7.4773 H   0  0  0  0  0  0  0  0  0  0  0  0
    5.7877    5.2360    8.6199 H   0  0  0  0  0  0  0  0  0  0  0  0
    7.4775    6.4137    7.4801 H   0  0  0  0  0  0  0  0  0  0  0  0
    7.2155    6.9337    5.1978 H   0  0  0  0  0  0  0  0  0  0  0  0
    5.2625    6.2760    4.0553 H   0  0  0  0  0  0  0  0  0  0  0  0
   -0.2415    5.4007    0.8414 H   0  0  0  0  0  0  0  0  0  0  0  0
    2.6851    3.0259   -2.4287 H   0  0  0  0  0  0  0  0  0  0  0  0
    1.9551    7.4739   -2.5412 H   0  0  0  0  0  0  0  0  0  0  0  0
   -0.0423    3.2833   -3.4516 H   0  0  0  0  0  0  0  0  0  0  0  0
    2.2637    5.0696   -4.0665 H   0  0  0  0  0  0  0  0  0  0  0  0
   -0.4812    7.4203   -1.0497 H   0  0  0  0  0  0  0  0  0  0  0  0
   -3.3707   -0.4612    3.5037 H   0  0  0  0  0  0  0  0  0  0  0  0
   -2.9154    0.1059    4.8925 H   0  0  0  0  0  0  0  0  0  0  0  0
   -2.2167   -1.1657    4.2987 H   0  0  0  0  0  0  0  0  0  0  0  0
  1  2  2  0  0  0  0
  2  3  1  0  0  0  0
  3 14  1  0  0  0  0
  4  2  1  0  0  0  0
  5  1  1  0  0  0  0
  6  5  2  0  0  0  0
  7  1  1  0  0  0  0
  8  7  3  0  0  0  0
  9 10  4  0  0  0  0
 10 11  4  0  0  0  0
 11 12  4  0  0  0  0
 12 13  4  0  0  0  0
 13 14  4  0  0  0  0
 14  9  4  0  0  0  0
 15 16  4  0  0  0  0
 16 17  4  0  0  0  0
 17 18  4  0  0  0  0
 18 19  4  0  0  0  0
 19 20  4  0  0  0  0
 20  3  1  0  0  0  0
 21 22  4  0  0  0  0
 22 23  4  0  0  0  0
 23 24  4  0  0  0  0
 24 25  4  0  0  0  0
 25 26  4  0  0  0  0
 26  3  1  0  0  0  0
 27 28  4  0  0  0  0
 28 29  4  0  0  0  0
 29 30  4  0  0  0  0
 30 31  4  0  0  0  0
 31 32  4  0  0  0  0
 32  4  1  0  0  0  0
 33 34  4  0  0  0  0
 34 35  4  0  0  0  0
 35 36  4  0  0  0  0
 36 37  4  0  0  0  0
 37 38  4  0  0  0  0
 38  4  1  0  0  0  0
 39 40  4  0  0  0  0
 40 41  4  0  0  0  0
 41 42  4  0  0  0  0
 42 43  4  0  0  0  0
 43 44  4  0  0  0  0
 44  4  1  0  0  0  0
 45  1  1  0  0  0  0
 46  1  1  0  0  0  0
 47 46  1  0  0  0  0
 48 47  1  0  0  0  0
 49 47  1  0  0  0  0
 50 47  1  0  0  0  0
 51 45  1  0  0  0  0
 52 51  1  0  0  0  0
 53 51  1  0  0  0  0
 54 51  1  0  0  0  0
 55  1  1  0  0  0  0
 56  1  1  0  0  0  0
 57  1  1  0  0  0  0
 58 55  1  0  0  0  0
 59 56  1  0  0  0  0
 60 58  1  0  0  0  0
 61 45  1  0  0  0  0
 62 45  1  0  0  0  0
 63 46  1  0  0  0  0
 64 70  1  0  0  0  0
 65 71  1  0  0  0  0
 66 73  1  0  0  0  0
 67 74  1  0  0  0  0
 68  1  2  0  0  0  0
 69 68  1  0  0  0  0
 70 69  4  0  0  0  0
 71 70  4  0  0  0  0
 72 71  4  0  0  0  0
 73 72  4  0  0  0  0
 74 69  4  0  0  0  0
 75 72  1  0  0  0  0
 76 60  1  0  0  0  0
 77  9  1  0  0  0  0
 78 10  1  0  0  0  0
 79 11  1  0  0  0  0
 80 12  1  0  0  0  0
 81 13  1  0  0  0  0
 82 15  1  0  0  0  0
 83 16  1  0  0  0  0
 84 17  1  0  0  0  0
 85 18  1  0  0  0  0
 86 19  1  0  0  0  0
 87 21  1  0  0  0  0
 88 22  1  0  0  0  0
 89 23  1  0  0  0  0
 90 24  1  0  0  0  0
 91 25  1  0  0  0  0
 92 27  1  0  0  0  0
 93 28  1  0  0  0  0
 94 29  1  0  0  0  0
 95 30  1  0  0  0  0
 96 31  1  0  0  0  0
 97 33  1  0  0  0  0
 98 34  1  0  0  0  0
 99 35  1  0  0  0  0
100 36  1  0  0  0  0
101 37  1  0  0  0  0
102 39  1  0  0  0  0
103 40  1  0  0  0  0
104 41  1  0  0  0  0
105 42  1  0  0  0  0
106 43  1  0  0  0  0
107 55  1  0  0  0  0
108 57  1  0  0  0  0
109 62  1  0  0  0  0
110 59  1  0  0  0  0
111 61  1  0  0  0  0
112 63  1  0  0  0  0
113 75  1  0  0  0  0
114 75  1  0  0  0  0
115 75  1  0  0  0  0
  2  5  1  0  0  0  0
  2 68  1  0  0  0  0
 15 20  4  0  0  0  0
 21 26  4  0  0  0  0
 27 32  4  0  0  0  0
 33 38  4  0  0  0  0
 39 44  4  0  0  0  0
 45 46  1  0  0  0  0
 45 57  1  0  0  0  0
 46 55  1  0  0  0  0
 46 62  1  0  0  0  0
 55 56  1  0  0  0  0
 55 63  1  0  0  0  0
 56 57  1  0  0  0  0
 56 58  1  0  0  0  0
 57 59  1  0  0  0  0
 57 61  1  0  0  0  0
 58 59  1  0  0  0  0
 58 63  1  0  0  0  0
 59 60  1  0  0  0  0
 59 61  1  0  0  0  0
 60 61  1  0  0  0  0
 60 62  1  0  0  0  0
 60 63  1  0  0  0  0
 61 62  1  0  0  0  0
 62 63  1  0  0  0  0
 73 74  4  0  0  0  0
M  END
$$$$
CIPNUN

From CSD data. Using bond type 'Any'. No disordered atoms. Largest molecule.
132172  0  0  0  0  0  0  0  0999 V2000
   13.5963   15.7737    7.2965 Rh  0  0  0  0  0  0  0  0  0  0  0  0
   14.7930   16.6125    9.2481 Cl  0  0  0  0  0  0  0  0  0  0  0  0
   12.5042   15.2005    5.5351 P   0  0  0  0  0  0  0  0  0  0  0  0
   14.2963   13.7511    7.5566 P   0  0  0  0  0  0  0  0  0  0  0  0
   10.9201   15.4465    5.4900 O   0  0  0  0  0  0  0  0  0  0  0  0
   15.8091   13.3877    7.1419 O   0  0  0  0  0  0  0  0  0  0  0  0
   12.9249   15.8888    4.0995 N   0  0  0  0  0  0  0  0  0  0  0  0
   14.1568   13.0871    9.0471 N   0  0  0  0  0  0  0  0  0  0  0  0
   12.5180   13.3427    5.2613 C   0  0  0  0  0  0  0  0  0  0  0  0
   13.4851   12.5511    6.3642 C   0  0  0  0  0  0  0  0  0  0  0  0
   14.3417   16.1732    3.7891 C   0  0  0  0  0  0  0  0  0  0  0  0
   14.6414   15.5698    3.0778 H   0  0  0  0  0  0  0  0  0  0  0  0
   14.8861   15.9939    4.5843 H   0  0  0  0  0  0  0  0  0  0  0  0
   14.5606   17.5982    3.3528 C   0  0  0  0  0  0  0  0  0  0  0  0
   14.1145   17.7495    2.5047 H   0  0  0  0  0  0  0  0  0  0  0  0
   15.5117   17.7630    3.2508 H   0  0  0  0  0  0  0  0  0  0  0  0
   14.1985   18.2012    4.0206 H   0  0  0  0  0  0  0  0  0  0  0  0
   11.9952   15.9509    2.9493 C   0  0  0  0  0  0  0  0  0  0  0  0
   11.3346   15.2324    3.0367 H   0  0  0  0  0  0  0  0  0  0  0  0
   12.4999   15.7937    2.1242 H   0  0  0  0  0  0  0  0  0  0  0  0
   11.2717   17.2705    2.8365 C   0  0  0  0  0  0  0  0  0  0  0  0
   10.7070   17.3964    3.6152 H   0  0  0  0  0  0  0  0  0  0  0  0
   10.7240   17.2707    2.0362 H   0  0  0  0  0  0  0  0  0  0  0  0
   11.9191   17.9905    2.7864 H   0  0  0  0  0  0  0  0  0  0  0  0
   10.1310   15.6540    6.6583 C   0  0  0  0  0  0  0  0  0  0  0  0
    9.4559   14.9602    6.7202 H   0  0  0  0  0  0  0  0  0  0  0  0
    9.6987   16.5213    6.6061 H   0  0  0  0  0  0  0  0  0  0  0  0
   10.6996   15.6232    7.4430 H   0  0  0  0  0  0  0  0  0  0  0  0
   14.9494   11.9143    9.4785 C   0  0  0  0  0  0  0  0  0  0  0  0
   15.4497   11.5673    8.7107 H   0  0  0  0  0  0  0  0  0  0  0  0
   14.3399   11.2103    9.7822 H   0  0  0  0  0  0  0  0  0  0  0  0
   15.9201   12.2367   10.5912 C   0  0  0  0  0  0  0  0  0  0  0  0
   16.5478   12.9117   10.2886 H   0  0  0  0  0  0  0  0  0  0  0  0
   16.4052   11.4340   10.8407 H   0  0  0  0  0  0  0  0  0  0  0  0
   15.4324   12.5709   11.3603 H   0  0  0  0  0  0  0  0  0  0  0  0
   13.3359   13.7133   10.0765 C   0  0  0  0  0  0  0  0  0  0  0  0
   12.8781   14.4961    9.7040 H   0  0  0  0  0  0  0  0  0  0  0  0
   13.9047   14.0148   10.8153 H   0  0  0  0  0  0  0  0  0  0  0  0
   12.3188   12.7272   10.5895 C   0  0  0  0  0  0  0  0  0  0  0  0
   11.7531   12.4347    9.8562 H   0  0  0  0  0  0  0  0  0  0  0  0
   11.7719   13.1488   11.2700 H   0  0  0  0  0  0  0  0  0  0  0  0
   12.7746   11.9599   10.9699 H   0  0  0  0  0  0  0  0  0  0  0  0
   16.8404   14.3419    7.2596 C   0  0  0  0  0  0  0  0  0  0  0  0
   16.5306   15.1962    6.9204 H   0  0  0  0  0  0  0  0  0  0  0  0
   17.6106   14.0506    6.7470 H   0  0  0  0  0  0  0  0  0  0  0  0
   17.0894   14.4355    8.1925 H   0  0  0  0  0  0  0  0  0  0  0  0
   12.5211   12.5187    3.7662 B   0  0  0  0  0  0  0  0  0  0  0  0
   12.4213   13.0163    2.7793 H   0  0  0  0  0  0  0  0  0  0  0  0
   11.1472   12.4015    4.8724 B   0  0  0  0  0  0  0  0  0  0  0  0
   10.1529   12.8191    4.6099 H   0  0  0  0  0  0  0  0  0  0  0  0
   11.8023   10.9390    4.1044 B   0  0  0  0  0  0  0  0  0  0  0  0
   11.2353   10.3766    3.3332 H   0  0  0  0  0  0  0  0  0  0  0  0
   13.5671   11.1042    4.0097 B   0  0  0  0  0  0  0  0  0  0  0  0
   14.1551   10.6596    3.1795 H   0  0  0  0  0  0  0  0  0  0  0  0
   14.0118   12.6570    4.7286 B   0  0  0  0  0  0  0  0  0  0  0  0
   14.8864   13.2494    4.3881 H   0  0  0  0  0  0  0  0  0  0  0  0
   11.7766   12.4593    6.5292 B   0  0  0  0  0  0  0  0  0  0  0  0
   11.2062   12.9266    7.3583 H   0  0  0  0  0  0  0  0  0  0  0  0
   11.3300   10.9209    5.8135 B   0  0  0  0  0  0  0  0  0  0  0  0
   10.4430   10.3546    6.1680 H   0  0  0  0  0  0  0  0  0  0  0  0
   12.8214   10.1067    5.2874 B   0  0  0  0  0  0  0  0  0  0  0  0
   12.9187    9.0016    5.2959 H   0  0  0  0  0  0  0  0  0  0  0  0
   14.1915   11.1645    5.6747 B   0  0  0  0  0  0  0  0  0  0  0  0
   15.1928   10.7703    5.9458 H   0  0  0  0  0  0  0  0  0  0  0  0
   12.8095   11.0355    6.7906 B   0  0  0  0  0  0  0  0  0  0  0  0
   12.9065   10.5553    7.7875 H   0  0  0  0  0  0  0  0  0  0  0  0
   14.0428   18.9099    9.0429 Rh  0  0  0  0  0  0  0  0  0  0  0  0
   12.8461   18.0711    7.0913 Cl  0  0  0  0  0  0  0  0  0  0  0  0
   15.1350   19.4831   10.8042 P   0  0  0  0  0  0  0  0  0  0  0  0
   13.3428   20.9325    8.7827 P   0  0  0  0  0  0  0  0  0  0  0  0
   16.7191   19.2371   10.8493 O   0  0  0  0  0  0  0  0  0  0  0  0
   11.8301   21.2960    9.1974 O   0  0  0  0  0  0  0  0  0  0  0  0
   14.7142   18.7949   12.2398 N   0  0  0  0  0  0  0  0  0  0  0  0
   13.4824   21.5965    7.2923 N   0  0  0  0  0  0  0  0  0  0  0  0
   15.1211   21.3410   11.0781 C   0  0  0  0  0  0  0  0  0  0  0  0
   14.1541   22.1326    9.9752 C   0  0  0  0  0  0  0  0  0  0  0  0
   13.2975   18.5105   12.5503 C   0  0  0  0  0  0  0  0  0  0  0  0
   12.9978   19.1138   13.2616 H   0  0  0  0  0  0  0  0  0  0  0  0
   12.7531   18.6897   11.7551 H   0  0  0  0  0  0  0  0  0  0  0  0
   13.0786   17.0855   12.9865 C   0  0  0  0  0  0  0  0  0  0  0  0
   13.5247   16.9341   13.8346 H   0  0  0  0  0  0  0  0  0  0  0  0
   12.1275   16.9206   13.0886 H   0  0  0  0  0  0  0  0  0  0  0  0
   13.4406   16.4824   12.3187 H   0  0  0  0  0  0  0  0  0  0  0  0
   15.6440   18.7328   13.3901 C   0  0  0  0  0  0  0  0  0  0  0  0
   16.3046   19.4512   13.3026 H   0  0  0  0  0  0  0  0  0  0  0  0
   15.1392   18.8900   14.2151 H   0  0  0  0  0  0  0  0  0  0  0  0
   16.3675   17.4131   13.5028 C   0  0  0  0  0  0  0  0  0  0  0  0
   16.9322   17.2872   12.7242 H   0  0  0  0  0  0  0  0  0  0  0  0
   16.9152   17.4129   14.3031 H   0  0  0  0  0  0  0  0  0  0  0  0
   15.7201   16.6931   13.5530 H   0  0  0  0  0  0  0  0  0  0  0  0
   17.5082   19.0297    9.6811 C   0  0  0  0  0  0  0  0  0  0  0  0
   18.1833   19.7234    9.6192 H   0  0  0  0  0  0  0  0  0  0  0  0
   17.9405   18.1623    9.7333 H   0  0  0  0  0  0  0  0  0  0  0  0
   16.9396   19.0604    8.8963 H   0  0  0  0  0  0  0  0  0  0  0  0
   12.6898   22.7693    6.8609 C   0  0  0  0  0  0  0  0  0  0  0  0
   12.1895   23.1164    7.6287 H   0  0  0  0  0  0  0  0  0  0  0  0
   13.2993   23.4733    6.5572 H   0  0  0  0  0  0  0  0  0  0  0  0
   11.7190   22.4469    5.7482 C   0  0  0  0  0  0  0  0  0  0  0  0
   11.0914   21.7719    6.0508 H   0  0  0  0  0  0  0  0  0  0  0  0
   11.2339   23.2496    5.4987 H   0  0  0  0  0  0  0  0  0  0  0  0
   12.2068   22.1127    4.9791 H   0  0  0  0  0  0  0  0  0  0  0  0
   14.3033   20.9704    6.2629 C   0  0  0  0  0  0  0  0  0  0  0  0
   14.7611   20.1875    6.6353 H   0  0  0  0  0  0  0  0  0  0  0  0
   13.7345   20.6688    5.5241 H   0  0  0  0  0  0  0  0  0  0  0  0
   15.3204   21.9564    5.7498 C   0  0  0  0  0  0  0  0  0  0  0  0
   15.8860   22.2489    6.4831 H   0  0  0  0  0  0  0  0  0  0  0  0
   15.8673   21.5348    5.0693 H   0  0  0  0  0  0  0  0  0  0  0  0
   14.8646   22.7237    5.3694 H   0  0  0  0  0  0  0  0  0  0  0  0
   10.7988   20.3417    9.0798 C   0  0  0  0  0  0  0  0  0  0  0  0
   11.1086   19.4874    9.4190 H   0  0  0  0  0  0  0  0  0  0  0  0
   10.0286   20.6330    9.5923 H   0  0  0  0  0  0  0  0  0  0  0  0
   10.5498   20.2481    8.1469 H   0  0  0  0  0  0  0  0  0  0  0  0
   15.1181   22.1649   12.5731 B   0  0  0  0  0  0  0  0  0  0  0  0
   15.2179   21.6673   13.5601 H   0  0  0  0  0  0  0  0  0  0  0  0
   16.4919   22.2821   11.4670 B   0  0  0  0  0  0  0  0  0  0  0  0
   17.4862   21.8645   11.7295 H   0  0  0  0  0  0  0  0  0  0  0  0
   15.8369   23.7446   12.2349 B   0  0  0  0  0  0  0  0  0  0  0  0
   16.4039   24.3070   13.0062 H   0  0  0  0  0  0  0  0  0  0  0  0
   14.0721   23.5794   12.3297 B   0  0  0  0  0  0  0  0  0  0  0  0
   13.4840   24.0240   13.1598 H   0  0  0  0  0  0  0  0  0  0  0  0
   13.6274   22.0267   11.6107 B   0  0  0  0  0  0  0  0  0  0  0  0
   12.7528   21.4342   11.9513 H   0  0  0  0  0  0  0  0  0  0  0  0
   15.8625   22.2243    9.8102 B   0  0  0  0  0  0  0  0  0  0  0  0
   16.4330   21.7570    8.9811 H   0  0  0  0  0  0  0  0  0  0  0  0
   16.3091   23.7627   10.5258 B   0  0  0  0  0  0  0  0  0  0  0  0
   17.1962   24.3290   10.1713 H   0  0  0  0  0  0  0  0  0  0  0  0
   14.8178   24.5769   11.0519 B   0  0  0  0  0  0  0  0  0  0  0  0
   14.7205   25.6820   11.0434 H   0  0  0  0  0  0  0  0  0  0  0  0
   13.4477   23.5191   10.6647 B   0  0  0  0  0  0  0  0  0  0  0  0
   12.4464   23.9133   10.3935 H   0  0  0  0  0  0  0  0  0  0  0  0
   14.8296   23.6481    9.5487 B   0  0  0  0  0  0  0  0  0  0  0  0
   14.7327   24.1283    8.5519 H   0  0  0  0  0  0  0  0  0  0  0  0
  1  2  1  0  0  0  0
  2 67  1  0  0  0  0
  3  1  1  0  0  0  0
  4  1  1  0  0  0  0
  5  3  1  0  0  0  0
  6  4  1  0  0  0  0
  7  3  1  0  0  0  0
  8  4  1  0  0  0  0
  9  3  1  0  0  0  0
 10  4  1  0  0  0  0
 11  7  1  0  0  0  0
 12 11  1  0  0  0  0
 13 11  1  0  0  0  0
 14 11  1  0  0  0  0
 15 14  1  0  0  0  0
 16 14  1  0  0  0  0
 17 14  1  0  0  0  0
 18  7  1  0  0  0  0
 19 18  1  0  0  0  0
 20 18  1  0  0  0  0
 21 18  1  0  0  0  0
 22 21  1  0  0  0  0
 23 21  1  0  0  0  0
 24 21  1  0  0  0  0
 25  5  1  0  0  0  0
 26 25  1  0  0  0  0
 27 25  1  0  0  0  0
 28 25  1  0  0  0  0
 29  8  1  0  0  0  0
 30 29  1  0  0  0  0
 31 29  1  0  0  0  0
 32 29  1  0  0  0  0
 33 32  1  0  0  0  0
 34 32  1  0  0  0  0
 35 32  1  0  0  0  0
 36  8  1  0  0  0  0
 37 36  1  0  0  0  0
 38 36  1  0  0  0  0
 39 36  1  0  0  0  0
 40 39  1  0  0  0  0
 41 39  1  0  0  0  0
 42 39  1  0  0  0  0
 43  6  1  0  0  0  0
 44 43  1  0  0  0  0
 45 43  1  0  0  0  0
 46 43  1  0  0  0  0
 47  9  1  0  0  0  0
 48 47  1  0  0  0  0
 49  9  1  0  0  0  0
 50 49  1  0  0  0  0
 51 47  1  0  0  0  0
 52 51  1  0  0  0  0
 53 47  1  0  0  0  0
 54 53  1  0  0  0  0
 55  9  1  0  0  0  0
 56 55  1  0  0  0  0
 57  9  1  0  0  0  0
 58 57  1  0  0  0  0
 59 49  1  0  0  0  0
 60 59  1  0  0  0  0
 61 51  1  0  0  0  0
 62 61  1  0  0  0  0
 63 10  1  0  0  0  0
 64 63  1  0  0  0  0
 65 10  1  0  0  0  0
 66 65  1  0  0  0  0
 67 68  1  0  0  0  0
 68  1  1  0  0  0  0
 69 67  1  0  0  0  0
 70 67  1  0  0  0  0
 71 69  1  0  0  0  0
 72 70  1  0  0  0  0
 73 69  1  0  0  0  0
 74 70  1  0  0  0  0
 75 69  1  0  0  0  0
 76 70  1  0  0  0  0
 77 73  1  0  0  0  0
 78 77  1  0  0  0  0
 79 77  1  0  0  0  0
 80 77  1  0  0  0  0
 81 80  1  0  0  0  0
 82 80  1  0  0  0  0
 83 80  1  0  0  0  0
 84 73  1  0  0  0  0
 85 84  1  0  0  0  0
 86 84  1  0  0  0  0
 87 84  1  0  0  0  0
 88 87  1  0  0  0  0
 89 87  1  0  0  0  0
 90 87  1  0  0  0  0
 91 71  1  0  0  0  0
 92 91  1  0  0  0  0
 93 91  1  0  0  0  0
 94 91  1  0  0  0  0
 95 74  1  0  0  0  0
 96 95  1  0  0  0  0
 97 95  1  0  0  0  0
 98 95  1  0  0  0  0
 99 98  1  0  0  0  0
100 98  1  0  0  0  0
101 98  1  0  0  0  0
102 74  1  0  0  0  0
103102  1  0  0  0  0
104102  1  0  0  0  0
105102  1  0  0  0  0
106105  1  0  0  0  0
107105  1  0  0  0  0
108105  1  0  0  0  0
109 72  1  0  0  0  0
110109  1  0  0  0  0
111109  1  0  0  0  0
112109  1  0  0  0  0
113 75  1  0  0  0  0
114113  1  0  0  0  0
115 75  1  0  0  0  0
116115  1  0  0  0  0
117113  1  0  0  0  0
118117  1  0  0  0  0
119113  1  0  0  0  0
120119  1  0  0  0  0
121 75  1  0  0  0  0
122121  1  0  0  0  0
123 75  1  0  0  0  0
124123  1  0  0  0  0
125115  1  0  0  0  0
126125  1  0  0  0  0
127117  1  0  0  0  0
128127  1  0  0  0  0
129 76  1  0  0  0  0
130129  1  0  0  0  0
131 76  1  0  0  0  0
132131  1  0  0  0  0
  9 10  1  0  0  0  0
 10 55  1  0  0  0  0
 10 57  1  0  0  0  0
 47 49  1  0  0  0  0
 47 55  1  0  0  0  0
 49 51  1  0  0  0  0
 49 57  1  0  0  0  0
 51 53  1  0  0  0  0
 51 59  1  0  0  0  0
 53 55  1  0  0  0  0
 53 61  1  0  0  0  0
 53 63  1  0  0  0  0
 55 63  1  0  0  0  0
 57 59  1  0  0  0  0
 57 65  1  0  0  0  0
 59 61  1  0  0  0  0
 59 65  1  0  0  0  0
 61 63  1  0  0  0  0
 61 65  1  0  0  0  0
 63 65  1  0  0  0  0
 75 76  1  0  0  0  0
 76121  1  0  0  0  0
 76123  1  0  0  0  0
113115  1  0  0  0  0
113121  1  0  0  0  0
115117  1  0  0  0  0
115123  1  0  0  0  0
117119  1  0  0  0  0
117125  1  0  0  0  0
119121  1  0  0  0  0
119127  1  0  0  0  0
119129  1  0  0  0  0
121129  1  0  0  0  0
123125  1  0  0  0  0
123131  1  0  0  0  0
125127  1  0  0  0  0
125131  1  0  0  0  0
127129  1  0  0  0  0
127131  1  0  0  0  0
129131  1  0  0  0  0
M  END
$$$$
CIPPAS

From CSD data. Using bond type 'Any'. No disordered atoms. Largest molecule.
 72102  0  0  0  0  0  0  0  0999 V2000
    7.3654    2.7373    3.6530 Rh  0  0  0  0  0  0  0  0  0  0  0  0
    8.2884    0.2406    3.6999 W   0  0  0  0  0  0  0  0  0  0  0  0
    5.5746    3.6521    4.7426 P   0  0  0  0  0  0  0  0  0  0  0  0
    7.7653    4.4669    2.1134 P   0  0  0  0  0  0  0  0  0  0  0  0
    5.0883    3.2060    7.4757 C   0  0  0  0  0  0  0  0  0  0  0  0
    4.7008    2.4044    8.5503 C   0  0  0  0  0  0  0  0  0  0  0  0
    4.3661    1.0682    8.3354 C   0  0  0  0  0  0  0  0  0  0  0  0
    4.4176    0.5325    7.0495 C   0  0  0  0  0  0  0  0  0  0  0  0
    4.8050    1.3342    5.9748 C   0  0  0  0  0  0  0  0  0  0  0  0
    5.1401    2.6716    6.1880 C   0  0  0  0  0  0  0  0  0  0  0  0
    3.8934    3.4960    2.4967 C   0  0  0  0  0  0  0  0  0  0  0  0
    2.6463    3.4586    1.8734 C   0  0  0  0  0  0  0  0  0  0  0  0
    1.4843    3.6116    2.6274 C   0  0  0  0  0  0  0  0  0  0  0  0
    1.5678    3.8007    4.0065 C   0  0  0  0  0  0  0  0  0  0  0  0
    2.8139    3.8381    4.6316 C   0  0  0  0  0  0  0  0  0  0  0  0
    3.9771    3.6851    3.8776 C   0  0  0  0  0  0  0  0  0  0  0  0
    4.9239    6.3516    5.3552 C   0  0  0  0  0  0  0  0  0  0  0  0
    5.2592    7.6204    5.8298 C   0  0  0  0  0  0  0  0  0  0  0  0
    6.5305    7.8537    6.3563 C   0  0  0  0  0  0  0  0  0  0  0  0
    7.4660    6.8208    6.4047 C   0  0  0  0  0  0  0  0  0  0  0  0
    7.1307    5.5520    5.9301 C   0  0  0  0  0  0  0  0  0  0  0  0
    5.8596    5.3187    5.4053 C   0  0  0  0  0  0  0  0  0  0  0  0
    9.9948    4.3164    0.4066 C   0  0  0  0  0  0  0  0  0  0  0  0
   10.7558    3.7380   -0.6089 C   0  0  0  0  0  0  0  0  0  0  0  0
   10.2732    2.6218   -1.2931 C   0  0  0  0  0  0  0  0  0  0  0  0
    9.0303    2.0853   -0.9600 C   0  0  0  0  0  0  0  0  0  0  0  0
    8.2681    2.6637    0.0555 C   0  0  0  0  0  0  0  0  0  0  0  0
    8.7519    3.7799    0.7397 C   0  0  0  0  0  0  0  0  0  0  0  0
    6.3210    5.4207   -0.1361 C   0  0  0  0  0  0  0  0  0  0  0  0
    5.3256    6.1982   -0.7272 C   0  0  0  0  0  0  0  0  0  0  0  0
    4.5049    7.0021    0.0645 C   0  0  0  0  0  0  0  0  0  0  0  0
    4.6793    7.0271    1.4489 C   0  0  0  0  0  0  0  0  0  0  0  0
    5.6760    6.2496    2.0400 C   0  0  0  0  0  0  0  0  0  0  0  0
    6.4953    5.4457    1.2466 C   0  0  0  0  0  0  0  0  0  0  0  0
    8.6151    7.0994    2.7026 C   0  0  0  0  0  0  0  0  0  0  0  0
    9.4457    8.0047    3.3617 C   0  0  0  0  0  0  0  0  0  0  0  0
   10.4714    7.5392    4.1838 C   0  0  0  0  0  0  0  0  0  0  0  0
   10.6658    6.1669    4.3468 C   0  0  0  0  0  0  0  0  0  0  0  0
    9.8352    5.2616    3.6877 C   0  0  0  0  0  0  0  0  0  0  0  0
    8.8095    5.7272    2.8656 C   0  0  0  0  0  0  0  0  0  0  0  0
    8.4646    1.5318    5.0059 C   0  0  0  0  0  0  0  0  0  0  0  0
    8.1113    1.9625    7.4506 C   0  0  0  0  0  0  0  0  0  0  0  0
    8.4756    2.5829    8.6453 C   0  0  0  0  0  0  0  0  0  0  0  0
    9.5943    3.4170    8.6847 C   0  0  0  0  0  0  0  0  0  0  0  0
   10.3469    3.6293    7.5294 C   0  0  0  0  0  0  0  0  0  0  0  0
    9.9814    3.0088    6.3348 C   0  0  0  0  0  0  0  0  0  0  0  0
    8.8639    2.1748    6.2954 C   0  0  0  0  0  0  0  0  0  0  0  0
    9.9922    4.0297   10.0118 C   0  0  0  0  0  0  0  0  0  0  0  0
    6.7790    1.1000    2.5737 C   0  0  0  0  0  0  0  0  0  0  0  0
    5.8776    1.1071    1.8197 O   0  0  0  0  0  0  0  0  0  0  0  0
    9.7169    1.1809    2.7904 C   0  0  0  0  0  0  0  0  0  0  0  0
   10.6527    1.7357    2.3086 O   0  0  0  0  0  0  0  0  0  0  0  0
    7.1312   -1.8143    3.8346 C   0  0  0  0  0  0  0  0  0  0  0  0
    8.0668   -1.8911    2.5003 C   0  0  0  0  0  0  0  0  0  0  0  0
    9.6449   -1.5733    2.9283 B   0  0  0  0  0  0  0  0  0  0  0  0
    9.8077   -1.4108    4.7426 B   0  0  0  0  0  0  0  0  0  0  0  0
    8.1051   -1.5398    5.2710 B   0  0  0  0  0  0  0  0  0  0  0  0
    7.4272   -3.3753    3.1074 B   0  0  0  0  0  0  0  0  0  0  0  0
    9.0739   -3.2107    2.5916 B   0  0  0  0  0  0  0  0  0  0  0  0
   10.1959   -2.9353    3.9492 B   0  0  0  0  0  0  0  0  0  0  0  0
    9.1285   -2.9287    5.4143 B   0  0  0  0  0  0  0  0  0  0  0  0
    7.4924   -3.1448    4.8680 B   0  0  0  0  0  0  0  0  0  0  0  0
    8.7903   -4.0322    4.0459 B   0  0  0  0  0  0  0  0  0  0  0  0
    5.6205   -1.5620    3.7719 C   0  0  0  0  0  0  0  0  0  0  0  0
    7.5155   -1.5579    1.1194 C   0  0  0  0  0  0  0  0  0  0  0  0
   10.9040   -0.6974    5.7277 C   0  0  0  0  0  0  0  0  0  0  0  0
   11.9349   -1.6721    6.3599 C   0  0  0  0  0  0  0  0  0  0  0  0
   12.8644   -0.5084    4.4471 C   0  0  0  0  0  0  0  0  0  0  0  0
   12.7745    0.5978    6.5265 C   0  0  0  0  0  0  0  0  0  0  0  0
   13.0529   -0.8609    6.8238 C   0  0  0  0  0  0  0  0  0  0  0  0
   11.9031    0.3245    5.2602 C   0  0  0  0  0  0  0  0  0  0  0  0
   13.2065   -1.6245    5.4805 C   0  0  0  0  0  0  0  0  0  0  0  0
  1  2  1  0  0  0  0
  2 41  2  0  0  0  0
  3  1  1  0  0  0  0
  4  1  1  0  0  0  0
  5  6  4  0  0  0  0
  6  7  4  0  0  0  0
  7  8  4  0  0  0  0
  8  9  4  0  0  0  0
  9 10  4  0  0  0  0
 10  3  1  0  0  0  0
 11 12  4  0  0  0  0
 12 13  4  0  0  0  0
 13 14  4  0  0  0  0
 14 15  4  0  0  0  0
 15 16  4  0  0  0  0
 16  3  1  0  0  0  0
 17 18  4  0  0  0  0
 18 19  4  0  0  0  0
 19 20  4  0  0  0  0
 20 21  4  0  0  0  0
 21 22  4  0  0  0  0
 22  3  1  0  0  0  0
 23 24  4  0  0  0  0
 24 25  4  0  0  0  0
 25 26  4  0  0  0  0
 26 27  4  0  0  0  0
 27 28  4  0  0  0  0
 28  4  1  0  0  0  0
 29 30  4  0  0  0  0
 30 31  4  0  0  0  0
 31 32  4  0  0  0  0
 32 33  4  0  0  0  0
 33 34  4  0  0  0  0
 34  4  1  0  0  0  0
 35 36  4  0  0  0  0
 36 37  4  0  0  0  0
 37 38  4  0  0  0  0
 38 39  4  0  0  0  0
 39 40  4  0  0  0  0
 40  4  1  0  0  0  0
 41  1  1  0  0  0  0
 42 43  4  0  0  0  0
 43 44  4  0  0  0  0
 44 45  4  0  0  0  0
 45 46  4  0  0  0  0
 46 47  4  0  0  0  0
 47 41  1  0  0  0  0
 48 44  1  0  0  0  0
 49  1  1  0  0  0  0
 50 49  2  0  0  0  0
 51  2  1  0  0  0  0
 52 51  3  0  0  0  0
 53  2  1  0  0  0  0
 54  2  1  0  0  0  0
 55  2  1  0  0  0  0
 56  2  1  0  0  0  0
 57  2  1  0  0  0  0
 58 53  1  0  0  0  0
 59 54  1  0  0  0  0
 60 55  1  0  0  0  0
 61 56  1  0  0  0  0
 62 53  1  0  0  0  0
 63 58  1  0  0  0  0
 64 53  1  0  0  0  0
 65 54  1  0  0  0  0
 66 56  1  0  0  0  0
 67 66  1  0  0  0  0
 68 71  1  0  0  0  0
 69 70  1  0  0  0  0
 70 67  1  0  0  0  0
 71 66  1  0  0  0  0
 72 67  1  0  0  0  0
  2 49  1  0  0  0  0
  5 10  4  0  0  0  0
 11 16  4  0  0  0  0
 17 22  4  0  0  0  0
 23 28  4  0  0  0  0
 29 34  4  0  0  0  0
 35 40  4  0  0  0  0
 42 47  4  0  0  0  0
 53 54  1  0  0  0  0
 53 57  1  0  0  0  0
 54 55  1  0  0  0  0
 54 58  1  0  0  0  0
 55 56  1  0  0  0  0
 55 59  1  0  0  0  0
 56 57  1  0  0  0  0
 56 60  1  0  0  0  0
 57 61  1  0  0  0  0
 57 62  1  0  0  0  0
 58 59  1  0  0  0  0
 58 62  1  0  0  0  0
 59 60  1  0  0  0  0
 59 63  1  0  0  0  0
 60 61  1  0  0  0  0
 60 63  1  0  0  0  0
 61 62  1  0  0  0  0
 61 63  1  0  0  0  0
 62 63  1  0  0  0  0
 68 72  1  0  0  0  0
 69 71  1  0  0  0  0
 70 72  1  0  0  0  0
M  END
$$$$
CIPPAS10

From CSD data. Using bond type 'Any'. No disordered atoms. Largest molecule.
120150  0  0  0  0  0  0  0  0999 V2000
    7.3654    2.7373    3.6530 Rh  0  0  0  0  0  0  0  0  0  0  0  0
    8.2884    0.2406    3.6999 W   0  0  0  0  0  0  0  0  0  0  0  0
    5.5746    3.6521    4.7426 P   0  0  0  0  0  0  0  0  0  0  0  0
    7.7653    4.4669    2.1134 P   0  0  0  0  0  0  0  0  0  0  0  0
    5.0887    3.2061    7.4793 C   0  0  0  0  0  0  0  0  0  0  0  0
    4.7008    2.4044    8.5503 C   0  0  0  0  0  0  0  0  0  0  0  0
    4.3661    1.0682    8.3354 C   0  0  0  0  0  0  0  0  0  0  0  0
    4.4176    0.5325    7.0495 C   0  0  0  0  0  0  0  0  0  0  0  0
    4.8050    1.3342    5.9748 C   0  0  0  0  0  0  0  0  0  0  0  0
    5.1401    2.6716    6.1880 C   0  0  0  0  0  0  0  0  0  0  0  0
    3.8934    3.4960    2.4967 C   0  0  0  0  0  0  0  0  0  0  0  0
    2.6463    3.4586    1.8734 C   0  0  0  0  0  0  0  0  0  0  0  0
    1.4843    3.6116    2.6274 C   0  0  0  0  0  0  0  0  0  0  0  0
    1.5678    3.8007    4.0065 C   0  0  0  0  0  0  0  0  0  0  0  0
    2.8139    3.8381    4.6316 C   0  0  0  0  0  0  0  0  0  0  0  0
    3.9771    3.6851    3.8776 C   0  0  0  0  0  0  0  0  0  0  0  0
    4.9239    6.3516    5.3552 C   0  0  0  0  0  0  0  0  0  0  0  0
    5.2592    7.6204    5.8298 C   0  0  0  0  0  0  0  0  0  0  0  0
    6.5305    7.8537    6.3563 C   0  0  0  0  0  0  0  0  0  0  0  0
    7.4660    6.8208    6.4047 C   0  0  0  0  0  0  0  0  0  0  0  0
    7.1307    5.5520    5.9301 C   0  0  0  0  0  0  0  0  0  0  0  0
    5.8596    5.3187    5.4053 C   0  0  0  0  0  0  0  0  0  0  0  0
    9.9948    4.3164    0.4066 C   0  0  0  0  0  0  0  0  0  0  0  0
   10.7558    3.7380   -0.6089 C   0  0  0  0  0  0  0  0  0  0  0  0
   10.2732    2.6218   -1.2931 C   0  0  0  0  0  0  0  0  0  0  0  0
    9.0303    2.0853   -0.9600 C   0  0  0  0  0  0  0  0  0  0  0  0
    8.2681    2.6637    0.0555 C   0  0  0  0  0  0  0  0  0  0  0  0
    8.7519    3.7799    0.7397 C   0  0  0  0  0  0  0  0  0  0  0  0
    6.3210    5.4207   -0.1361 C   0  0  0  0  0  0  0  0  0  0  0  0
    5.3256    6.1982   -0.7272 C   0  0  0  0  0  0  0  0  0  0  0  0
    4.5049    7.0021    0.0645 C   0  0  0  0  0  0  0  0  0  0  0  0
    4.6793    7.0271    1.4489 C   0  0  0  0  0  0  0  0  0  0  0  0
    5.6760    6.2496    2.0400 C   0  0  0  0  0  0  0  0  0  0  0  0
    6.4953    5.4457    1.2466 C   0  0  0  0  0  0  0  0  0  0  0  0
    8.6151    7.0994    2.7026 C   0  0  0  0  0  0  0  0  0  0  0  0
    9.4457    8.0047    3.3617 C   0  0  0  0  0  0  0  0  0  0  0  0
   10.4714    7.5392    4.1838 C   0  0  0  0  0  0  0  0  0  0  0  0
   10.6658    6.1669    4.3468 C   0  0  0  0  0  0  0  0  0  0  0  0
    9.8352    5.2616    3.6877 C   0  0  0  0  0  0  0  0  0  0  0  0
    8.8095    5.7272    2.8656 C   0  0  0  0  0  0  0  0  0  0  0  0
    8.4646    1.5318    5.0059 C   0  0  0  0  0  0  0  0  0  0  0  0
    8.1113    1.9625    7.4506 C   0  0  0  0  0  0  0  0  0  0  0  0
    8.4756    2.5829    8.6453 C   0  0  0  0  0  0  0  0  0  0  0  0
    9.5943    3.4170    8.6847 C   0  0  0  0  0  0  0  0  0  0  0  0
   10.3469    3.6293    7.5294 C   0  0  0  0  0  0  0  0  0  0  0  0
    9.9814    3.0088    6.3348 C   0  0  0  0  0  0  0  0  0  0  0  0
    8.8639    2.1748    6.2954 C   0  0  0  0  0  0  0  0  0  0  0  0
    9.9922    4.0297   10.0118 C   0  0  0  0  0  0  0  0  0  0  0  0
    6.7790    1.1000    2.5737 C   0  0  0  0  0  0  0  0  0  0  0  0
    5.8776    1.1071    1.8197 O   0  0  0  0  0  0  0  0  0  0  0  0
    9.7169    1.1809    2.7904 C   0  0  0  0  0  0  0  0  0  0  0  0
   10.6527    1.7357    2.3086 O   0  0  0  0  0  0  0  0  0  0  0  0
    7.1312   -1.8143    3.8346 C   0  0  0  0  0  0  0  0  0  0  0  0
    8.0668   -1.8911    2.5003 C   0  0  0  0  0  0  0  0  0  0  0  0
    9.6449   -1.5733    2.9283 B   0  0  0  0  0  0  0  0  0  0  0  0
    9.8077   -1.4108    4.7426 B   0  0  0  0  0  0  0  0  0  0  0  0
    8.1051   -1.5398    5.2710 B   0  0  0  0  0  0  0  0  0  0  0  0
    7.4272   -3.3753    3.1074 B   0  0  0  0  0  0  0  0  0  0  0  0
    9.0739   -3.2107    2.5916 B   0  0  0  0  0  0  0  0  0  0  0  0
   10.1959   -2.9353    3.9492 B   0  0  0  0  0  0  0  0  0  0  0  0
    9.1285   -2.9287    5.4143 B   0  0  0  0  0  0  0  0  0  0  0  0
    7.4924   -3.1448    4.8680 B   0  0  0  0  0  0  0  0  0  0  0  0
    8.7903   -4.0322    4.0459 B   0  0  0  0  0  0  0  0  0  0  0  0
    5.6205   -1.5620    3.7719 C   0  0  0  0  0  0  0  0  0  0  0  0
    7.5155   -1.5579    1.1194 C   0  0  0  0  0  0  0  0  0  0  0  0
   10.9040   -0.6974    5.7277 C   0  0  0  0  0  0  0  0  0  0  0  0
   11.9349   -1.6721    6.3599 C   0  0  0  0  0  0  0  0  0  0  0  0
   12.8644   -0.5084    4.4471 C   0  0  0  0  0  0  0  0  0  0  0  0
   12.7745    0.5978    6.5265 C   0  0  0  0  0  0  0  0  0  0  0  0
   13.0529   -0.8609    6.8238 C   0  0  0  0  0  0  0  0  0  0  0  0
   11.9031    0.3245    5.2602 C   0  0  0  0  0  0  0  0  0  0  0  0
   13.2065   -1.6245    5.4805 C   0  0  0  0  0  0  0  0  0  0  0  0
    5.3190    4.1267    7.6226 H   0  0  0  0  0  0  0  0  0  0  0  0
    4.6664    2.7734    9.4351 H   0  0  0  0  0  0  0  0  0  0  0  0
    4.0994    0.5153    9.0751 H   0  0  0  0  0  0  0  0  0  0  0  0
    4.1868   -0.3882    6.9026 H   0  0  0  0  0  0  0  0  0  0  0  0
    4.6940    3.3904    1.9773 H   0  0  0  0  0  0  0  0  0  0  0  0
    2.5893    3.3282    0.9242 H   0  0  0  0  0  0  0  0  0  0  0  0
    0.6261    3.5854    2.1976 H   0  0  0  0  0  0  0  0  0  0  0  0
    0.7672    3.9063    4.5259 H   0  0  0  0  0  0  0  0  0  0  0  0
    2.8721    3.9685    5.5808 H   0  0  0  0  0  0  0  0  0  0  0  0
    4.0490    6.1899    4.9934 H   0  0  0  0  0  0  0  0  0  0  0  0
    4.6151    8.3307    5.7957 H   0  0  0  0  0  0  0  0  0  0  0  0
    6.7617    8.7270    6.6823 H   0  0  0  0  0  0  0  0  0  0  0  0
    8.3409    6.9825    6.7665 H   0  0  0  0  0  0  0  0  0  0  0  0
    7.7748    4.8417    5.9641 H   0  0  0  0  0  0  0  0  0  0  0  0
   10.3272    5.0844    0.8776 H   0  0  0  0  0  0  0  0  0  0  0  0
   11.6118    4.1086   -0.8382 H   0  0  0  0  0  0  0  0  0  0  0  0
   10.7970    2.2244   -1.9916 H   0  0  0  0  0  0  0  0  0  0  0  0
    8.6979    1.3173   -1.4310 H   0  0  0  0  0  0  0  0  0  0  0  0
    7.4127    2.2944    0.2848 H   0  0  0  0  0  0  0  0  0  0  0  0
    6.8853    4.8681   -0.6824 H   0  0  0  0  0  0  0  0  0  0  0  0
    5.2050    6.1817   -1.6800 H   0  0  0  0  0  0  0  0  0  0  0  0
    3.8195    7.5369   -0.3421 H   0  0  0  0  0  0  0  0  0  0  0  0
    4.1149    7.5797    1.9934 H   0  0  0  0  0  0  0  0  0  0  0  0
    5.7952    6.2660    2.9910 H   0  0  0  0  0  0  0  0  0  0  0  0
    7.9087    7.4188    2.1367 H   0  0  0  0  0  0  0  0  0  0  0  0
    9.3116    8.9480    3.2507 H   0  0  0  0  0  0  0  0  0  0  0  0
   11.0430    8.1616    4.6387 H   0  0  0  0  0  0  0  0  0  0  0  0
   11.3716    5.8461    4.9128 H   0  0  0  0  0  0  0  0  0  0  0  0
    9.9689    4.3170    3.8005 H   0  0  0  0  0  0  0  0  0  0  0  0
    7.3375    1.3894    7.4129 H   0  0  0  0  0  0  0  0  0  0  0  0
    7.9484    2.4362    9.4320 H   0  0  0  0  0  0  0  0  0  0  0  0
   11.1157    4.1976    7.5603 H   0  0  0  0  0  0  0  0  0  0  0  0
   10.5047    3.1508    5.5411 H   0  0  0  0  0  0  0  0  0  0  0  0
   10.6959    4.5922    9.6894 H   0  0  0  0  0  0  0  0  0  0  0  0
   10.3093    3.4347   10.6924 H   0  0  0  0  0  0  0  0  0  0  0  0
    9.2805    4.5671   10.3700 H   0  0  0  0  0  0  0  0  0  0  0  0
   10.4538   -1.3419    2.1671 H   0  0  0  0  0  0  0  0  0  0  0  0
    7.6202   -1.1100    6.1076 H   0  0  0  0  0  0  0  0  0  0  0  0
    5.6711   -1.2134    2.8800 H   0  0  0  0  0  0  0  0  0  0  0  0
    5.4688   -0.8408    4.3898 H   0  0  0  0  0  0  0  0  0  0  0  0
    4.8880   -2.1849    3.8310 H   0  0  0  0  0  0  0  0  0  0  0  0
    6.6872   -1.0740    1.1516 H   0  0  0  0  0  0  0  0  0  0  0  0
    7.3879   -2.3803    0.6412 H   0  0  0  0  0  0  0  0  0  0  0  0
    8.1808   -1.0280    0.6752 H   0  0  0  0  0  0  0  0  0  0  0  0
    9.4528   -3.4374    1.7079 H   0  0  0  0  0  0  0  0  0  0  0  0
   11.1362   -3.1969    3.9560 H   0  0  0  0  0  0  0  0  0  0  0  0
    6.6769   -3.6133    5.4909 H   0  0  0  0  0  0  0  0  0  0  0  0
    8.8502   -5.2833    4.2214 H   0  0  0  0  0  0  0  0  0  0  0  0
  1  2  2  0  0  0  0
  2 41  2  0  0  0  0
  3  1  1  0  0  0  0
  4  1  1  0  0  0  0
  5  6  4  0  0  0  0
  6  7  4  0  0  0  0
  7  8  4  0  0  0  0
  8  9  4  0  0  0  0
  9 10  4  0  0  0  0
 10  3  1  0  0  0  0
 11 12  4  0  0  0  0
 12 13  4  0  0  0  0
 13 14  4  0  0  0  0
 14 15  4  0  0  0  0
 15 16  4  0  0  0  0
 16  3  1  0  0  0  0
 17 18  4  0  0  0  0
 18 19  4  0  0  0  0
 19 20  4  0  0  0  0
 20 21  4  0  0  0  0
 21 22  4  0  0  0  0
 22  3  1  0  0  0  0
 23 24  4  0  0  0  0
 24 25  4  0  0  0  0
 25 26  4  0  0  0  0
 26 27  4  0  0  0  0
 27 28  4  0  0  0  0
 28  4  1  0  0  0  0
 29 30  4  0  0  0  0
 30 31  4  0  0  0  0
 31 32  4  0  0  0  0
 32 33  4  0  0  0  0
 33 34  4  0  0  0  0
 34  4  1  0  0  0  0
 35 36  4  0  0  0  0
 36 37  4  0  0  0  0
 37 38  4  0  0  0  0
 38 39  4  0  0  0  0
 39 40  4  0  0  0  0
 40  4  1  0  0  0  0
 41  1  1  0  0  0  0
 42 43  4  0  0  0  0
 43 44  4  0  0  0  0
 44 45  4  0  0  0  0
 45 46  4  0  0  0  0
 46 47  4  0  0  0  0
 47 41  1  0  0  0  0
 48 44  1  0  0  0  0
 49  1  1  0  0  0  0
 50 49  2  0  0  0  0
 51  2  1  0  0  0  0
 52 51  3  0  0  0  0
 53  2  1  0  0  0  0
 54  2  1  0  0  0  0
 55  2  1  0  0  0  0
 56  2  1  0  0  0  0
 57  2  1  0  0  0  0
 58 53  1  0  0  0  0
 59 54  1  0  0  0  0
 60 55  1  0  0  0  0
 61 56  1  0  0  0  0
 62 53  1  0  0  0  0
 63 58  1  0  0  0  0
 64 53  1  0  0  0  0
 65 54  1  0  0  0  0
 66 56  1  0  0  0  0
 67 66  1  0  0  0  0
 68 71  1  0  0  0  0
 69 70  1  0  0  0  0
 70 67  1  0  0  0  0
 71 66  1  0  0  0  0
 72 67  1  0  0  0  0
 73  5  1  0  0  0  0
 74  6  1  0  0  0  0
 75  7  1  0  0  0  0
 76  8  1  0  0  0  0
 77 11  1  0  0  0  0
 78 12  1  0  0  0  0
 79 13  1  0  0  0  0
 80 14  1  0  0  0  0
 81 15  1  0  0  0  0
 82 17  1  0  0  0  0
 83 18  1  0  0  0  0
 84 19  1  0  0  0  0
 85 20  1  0  0  0  0
 86 21  1  0  0  0  0
 87 23  1  0  0  0  0
 88 24  1  0  0  0  0
 89 25  1  0  0  0  0
 90 26  1  0  0  0  0
 91 27  1  0  0  0  0
 92 29  1  0  0  0  0
 93 30  1  0  0  0  0
 94 31  1  0  0  0  0
 95 32  1  0  0  0  0
 96 33  1  0  0  0  0
 97 35  1  0  0  0  0
 98 36  1  0  0  0  0
 99 37  1  0  0  0  0
100 38  1  0  0  0  0
101 39  1  0  0  0  0
102 42  1  0  0  0  0
103 43  1  0  0  0  0
104 45  1  0  0  0  0
105 46  1  0  0  0  0
106 48  1  0  0  0  0
107 48  1  0  0  0  0
108 48  1  0  0  0  0
109 55  1  0  0  0  0
110 57  1  0  0  0  0
111 64  1  0  0  0  0
112 64  1  0  0  0  0
113 64  1  0  0  0  0
114 65  1  0  0  0  0
115 65  1  0  0  0  0
116 65  1  0  0  0  0
117 59  1  0  0  0  0
118 60  1  0  0  0  0
119 62  1  0  0  0  0
120 63  1  0  0  0  0
  2 49  1  0  0  0  0
  5 10  4  0  0  0  0
 11 16  4  0  0  0  0
 17 22  4  0  0  0  0
 23 28  4  0  0  0  0
 29 34  4  0  0  0  0
 35 40  4  0  0  0  0
 42 47  4  0  0  0  0
 53 54  1  0  0  0  0
 53 57  1  0  0  0  0
 54 55  1  0  0  0  0
 54 58  1  0  0  0  0
 55 56  1  0  0  0  0
 55 59  1  0  0  0  0
 56 57  1  0  0  0  0
 56 60  1  0  0  0  0
 57 61  1  0  0  0  0
 57 62  1  0  0  0  0
 58 59  1  0  0  0  0
 58 62  1  0  0  0  0
 59 60  1  0  0  0  0
 59 63  1  0  0  0  0
 60 61  1  0  0  0  0
 60 63  1  0  0  0  0
 61 62  1  0  0  0  0
 61 63  1  0  0  0  0
 62 63  1  0  0  0  0
 68 72  1  0  0  0  0
 69 71  1  0  0  0  0
 70 72  1  0  0  0  0
M  END
$$$$
CIPPAV

From CSD data. Using bond type 'Any'. No disordered atoms. Largest molecule.
 86106  0  0  0  0  0  0  0  0999 V2000
    3.9803    5.7339   14.5034 Cl  0  0  0  0  0  0  0  0  0  0  0  0
   -1.1753    8.0793   13.3875 Cl  0  0  0  0  0  0  0  0  0  0  0  0
    2.1255    6.5903   14.6911 P   0  0  0  0  0  0  0  0  0  0  0  0
    0.5782    8.1308   12.3062 P   0  0  0  0  0  0  0  0  0  0  0  0
    1.8828    6.5781   16.2672 O   0  0  0  0  0  0  0  0  0  0  0  0
    0.2648    9.2577   11.1939 O   0  0  0  0  0  0  0  0  0  0  0  0
    2.5740    8.4154   14.5802 C   0  0  0  0  0  0  0  0  0  0  0  0
    1.6419    9.2327   13.4269 C   0  0  0  0  0  0  0  0  0  0  0  0
    1.3417    5.3559   16.9151 C   0  0  0  0  0  0  0  0  0  0  0  0
    1.2897    5.6581   18.4128 C   0  0  0  0  0  0  0  0  0  0  0  0
    0.6250    4.4662   19.1282 C   0  0  0  0  0  0  0  0  0  0  0  0
   -0.7636    4.1750   18.5647 C   0  0  0  0  0  0  0  0  0  0  0  0
   -0.7079    3.8738   17.0880 C   0  0  0  0  0  0  0  0  0  0  0  0
   -0.0344    5.0295   16.3306 C   0  0  0  0  0  0  0  0  0  0  0  0
    2.6420    6.0768   19.0251 C   0  0  0  0  0  0  0  0  0  0  0  0
    3.6907    4.9974   19.0389 C   0  0  0  0  0  0  0  0  0  0  0  0
    2.4513    6.6542   20.4361 C   0  0  0  0  0  0  0  0  0  0  0  0
   -2.1185    3.6218   16.5001 C   0  0  0  0  0  0  0  0  0  0  0  0
   -2.5820    2.9651   17.0422 H   0  0  0  0  0  0  0  0  0  0  0  0
   -2.0356    3.2904   15.5915 H   0  0  0  0  0  0  0  0  0  0  0  0
   -2.6208    4.4512   16.4963 H   0  0  0  0  0  0  0  0  0  0  0  0
    0.1112    8.7658    9.8004 C   0  0  0  0  0  0  0  0  0  0  0  0
   -1.0372    9.5249    9.1453 C   0  0  0  0  0  0  0  0  0  0  0  0
   -1.1158    9.0620    7.6751 C   0  0  0  0  0  0  0  0  0  0  0  0
    0.1933    9.1885    6.9280 C   0  0  0  0  0  0  0  0  0  0  0  0
    1.3497    8.4716    7.6201 C   0  0  0  0  0  0  0  0  0  0  0  0
    1.4362    8.9516    9.0823 C   0  0  0  0  0  0  0  0  0  0  0  0
   -2.3692    9.4305    9.9214 C   0  0  0  0  0  0  0  0  0  0  0  0
   -2.9350    8.0147    9.9715 C   0  0  0  0  0  0  0  0  0  0  0  0
   -3.4091   10.3995    9.3755 C   0  0  0  0  0  0  0  0  0  0  0  0
    2.6791    8.6724    6.8898 C   0  0  0  0  0  0  0  0  0  0  0  0
    2.9139    9.4315   15.9087 B   0  0  0  0  0  0  0  0  0  0  0  0
    4.1567    9.0861   14.6791 B   0  0  0  0  0  0  0  0  0  0  0  0
    3.9060   10.7509   15.2235 B   0  0  0  0  0  0  0  0  0  0  0  0
    2.1671   10.9818   15.5178 B   0  0  0  0  0  0  0  0  0  0  0  0
    1.3073    9.4687   15.1101 B   0  0  0  0  0  0  0  0  0  0  0  0
    3.3155    8.9194   13.1085 B   0  0  0  0  0  0  0  0  0  0  0  0
    4.1638   10.4145   13.4895 B   0  0  0  0  0  0  0  0  0  0  0  0
    2.9236   11.6054   14.0068 B   0  0  0  0  0  0  0  0  0  0  0  0
    1.3153   10.8252   13.9239 B   0  0  0  0  0  0  0  0  0  0  0  0
    2.5678   10.4808   12.6942 B   0  0  0  0  0  0  0  0  0  0  0  0
    2.9130    8.9867   16.8590 H   0  0  0  0  0  0  0  0  0  0  0  0
    4.9697    8.4947   14.9501 H   0  0  0  0  0  0  0  0  0  0  0  0
    1.9596    4.6289   16.7635 H   0  0  0  0  0  0  0  0  0  0  0  0
    4.6608   11.2258   15.8091 H   0  0  0  0  0  0  0  0  0  0  0  0
    1.7478   11.6375   16.2252 H   0  0  0  0  0  0  0  0  0  0  0  0
    0.5473    9.0670   15.4884 H   0  0  0  0  0  0  0  0  0  0  0  0
    3.4956    8.1232   12.3503 H   0  0  0  0  0  0  0  0  0  0  0  0
    5.1374   10.7338   12.9420 H   0  0  0  0  0  0  0  0  0  0  0  0
    3.0189   12.6617   13.8468 H   0  0  0  0  0  0  0  0  0  0  0  0
    0.3619   11.2058   13.6177 H   0  0  0  0  0  0  0  0  0  0  0  0
    2.3833   10.7238   11.6478 H   0  0  0  0  0  0  0  0  0  0  0  0
    0.6091    6.3258   18.5044 H   0  0  0  0  0  0  0  0  0  0  0  0
    1.1917    3.8156   18.9434 H   0  0  0  0  0  0  0  0  0  0  0  0
    0.5826    4.7293   20.1231 H   0  0  0  0  0  0  0  0  0  0  0  0
   -1.3859    5.0205   18.7335 H   0  0  0  0  0  0  0  0  0  0  0  0
   -1.1475    3.4240   19.0389 H   0  0  0  0  0  0  0  0  0  0  0  0
   -0.1765    3.1328   16.9544 H   0  0  0  0  0  0  0  0  0  0  0  0
   -0.5561    5.8238   16.4276 H   0  0  0  0  0  0  0  0  0  0  0  0
    0.0794    4.7695   15.4044 H   0  0  0  0  0  0  0  0  0  0  0  0
    2.9659    6.8680   18.5578 H   0  0  0  0  0  0  0  0  0  0  0  0
    3.8222    4.6590   18.1837 H   0  0  0  0  0  0  0  0  0  0  0  0
    3.4603    4.2775   19.6421 H   0  0  0  0  0  0  0  0  0  0  0  0
    4.5284    5.3619   19.3786 H   0  0  0  0  0  0  0  0  0  0  0  0
    3.2572    7.0086   20.8141 H   0  0  0  0  0  0  0  0  0  0  0  0
    1.7654    7.4203   20.4400 H   0  0  0  0  0  0  0  0  0  0  0  0
    2.2156    5.9242   21.0890 H   0  0  0  0  0  0  0  0  0  0  0  0
   -0.0265    7.7517    9.8611 H   0  0  0  0  0  0  0  0  0  0  0  0
   -0.7503   10.4527    9.1243 H   0  0  0  0  0  0  0  0  0  0  0  0
   -1.3506    8.1834    7.6736 H   0  0  0  0  0  0  0  0  0  0  0  0
   -1.7743    9.5189    7.2918 H   0  0  0  0  0  0  0  0  0  0  0  0
    0.4325   10.1515    6.8833 H   0  0  0  0  0  0  0  0  0  0  0  0
    0.1412    8.8562    5.9900 H   0  0  0  0  0  0  0  0  0  0  0  0
    1.1564    7.5308    7.6278 H   0  0  0  0  0  0  0  0  0  0  0  0
    1.6860    9.8803    9.1243 H   0  0  0  0  0  0  0  0  0  0  0  0
    2.1362    8.4344    9.5862 H   0  0  0  0  0  0  0  0  0  0  0  0
   -2.1627    9.6695   10.8346 H   0  0  0  0  0  0  0  0  0  0  0  0
   -3.2219    7.7215    9.1014 H   0  0  0  0  0  0  0  0  0  0  0  0
   -2.2862    7.3199   10.4223 H   0  0  0  0  0  0  0  0  0  0  0  0
   -3.7516    7.9926   10.5101 H   0  0  0  0  0  0  0  0  0  0  0  0
   -3.7339   10.1414    8.4753 H   0  0  0  0  0  0  0  0  0  0  0  0
   -4.2017   10.4928    9.8535 H   0  0  0  0  0  0  0  0  0  0  0  0
   -3.0101   11.1857    9.2617 H   0  0  0  0  0  0  0  0  0  0  0  0
    2.8953    9.6795    6.8528 H   0  0  0  0  0  0  0  0  0  0  0  0
    2.5599    8.3441    5.9594 H   0  0  0  0  0  0  0  0  0  0  0  0
    3.3985    8.1734    7.3834 H   0  0  0  0  0  0  0  0  0  0  0  0
  1  3  1  0  0  0  0
  2  4  1  0  0  0  0
  3  5  1  0  0  0  0
  4  6  1  0  0  0  0
  5  9  1  0  0  0  0
  6 22  1  0  0  0  0
  7  3  1  0  0  0  0
  8  4  1  0  0  0  0
  9 10  1  0  0  0  0
 10 11  1  0  0  0  0
 11 12  1  0  0  0  0
 12 13  1  0  0  0  0
 13 14  1  0  0  0  0
 14  9  1  0  0  0  0
 15 10  1  0  0  0  0
 16 15  1  0  0  0  0
 17 15  1  0  0  0  0
 18 13  1  0  0  0  0
 19 18  1  0  0  0  0
 20 18  1  0  0  0  0
 21 18  1  0  0  0  0
 22 23  1  0  0  0  0
 23 24  1  0  0  0  0
 24 25  1  0  0  0  0
 25 26  1  0  0  0  0
 26 27  1  0  0  0  0
 27 22  1  0  0  0  0
 28 23  1  0  0  0  0
 29 28  1  0  0  0  0
 30 28  1  0  0  0  0
 31 26  1  0  0  0  0
 32  7  1  0  0  0  0
 33  7  1  0  0  0  0
 34 32  1  0  0  0  0
 35 32  1  0  0  0  0
 36  7  1  0  0  0  0
 37  7  1  0  0  0  0
 38 33  1  0  0  0  0
 39 34  1  0  0  0  0
 40  8  1  0  0  0  0
 41  8  1  0  0  0  0
 42 32  1  0  0  0  0
 43 33  1  0  0  0  0
 44  9  1  0  0  0  0
 45 34  1  0  0  0  0
 46 35  1  0  0  0  0
 47 36  1  0  0  0  0
 48 37  1  0  0  0  0
 49 38  1  0  0  0  0
 50 39  1  0  0  0  0
 51 40  1  0  0  0  0
 52 41  1  0  0  0  0
 53 10  1  0  0  0  0
 54 11  1  0  0  0  0
 55 11  1  0  0  0  0
 56 12  1  0  0  0  0
 57 12  1  0  0  0  0
 58 13  1  0  0  0  0
 59 14  1  0  0  0  0
 60 14  1  0  0  0  0
 61 15  1  0  0  0  0
 62 16  1  0  0  0  0
 63 16  1  0  0  0  0
 64 16  1  0  0  0  0
 65 17  1  0  0  0  0
 66 17  1  0  0  0  0
 67 17  1  0  0  0  0
 68 22  1  0  0  0  0
 69 23  1  0  0  0  0
 70 24  1  0  0  0  0
 71 24  1  0  0  0  0
 72 25  1  0  0  0  0
 73 25  1  0  0  0  0
 74 26  1  0  0  0  0
 75 27  1  0  0  0  0
 76 27  1  0  0  0  0
 77 28  1  0  0  0  0
 78 29  1  0  0  0  0
 79 29  1  0  0  0  0
 80 29  1  0  0  0  0
 81 30  1  0  0  0  0
 82 30  1  0  0  0  0
 83 30  1  0  0  0  0
 84 31  1  0  0  0  0
 85 31  1  0  0  0  0
 86 31  1  0  0  0  0
  7  8  1  0  0  0  0
  8 36  1  0  0  0  0
  8 37  1  0  0  0  0
 32 33  1  0  0  0  0
 32 36  1  0  0  0  0
 33 34  1  0  0  0  0
 33 37  1  0  0  0  0
 34 35  1  0  0  0  0
 34 38  1  0  0  0  0
 35 36  1  0  0  0  0
 35 39  1  0  0  0  0
 35 40  1  0  0  0  0
 36 40  1  0  0  0  0
 37 38  1  0  0  0  0
 37 41  1  0  0  0  0
 38 39  1  0  0  0  0
 38 41  1  0  0  0  0
 39 40  1  0  0  0  0
 39 41  1  0  0  0  0
 40 41  1  0  0  0  0
M  END
$$$$
CIPPEZ

From CSD data. Using bond type 'Any'. No disordered atoms. Largest molecule.
 82104  0  0  0  0  0  0  0  0999 V2000
    4.3352    4.2298    2.0573 Cl  0  0  0  0  0  0  0  0  0  0  0  0
    5.7555    8.9969    4.9995 Cl  0  0  0  0  0  0  0  0  0  0  0  0
    4.0828    6.2770    2.2080 P   0  0  0  0  0  0  0  0  0  0  0  0
    5.5339    6.9437    5.0180 P   0  0  0  0  0  0  0  0  0  0  0  0
    2.9487    6.5454    1.1305 O   0  0  0  0  0  0  0  0  0  0  0  0
    5.8038    6.5930    6.5424 O   0  0  0  0  0  0  0  0  0  0  0  0
    2.9389    6.3187    3.6986 C   0  0  0  0  0  0  0  0  0  0  0  0
    3.6583    6.8628    5.1088 C   0  0  0  0  0  0  0  0  0  0  0  0
    3.2506    7.2047   -0.1427 C   0  0  0  0  0  0  0  0  0  0  0  0
    3.0588    6.2455   -1.3307 C   0  0  0  0  0  0  0  0  0  0  0  0
    1.7140    5.5368   -1.1088 C   0  0  0  0  0  0  0  0  0  0  0  0
    1.6584    5.1593   -0.1948 H   0  0  0  0  0  0  0  0  0  0  0  0
    1.5829    4.8087   -1.7668 H   0  0  0  0  0  0  0  0  0  0  0  0
    0.6682    6.6619   -1.3097 C   0  0  0  0  0  0  0  0  0  0  0  0
    0.0450    6.4423   -2.0476 H   0  0  0  0  0  0  0  0  0  0  0  0
    0.1470    6.8164   -0.4813 H   0  0  0  0  0  0  0  0  0  0  0  0
    1.5206    7.8777   -1.6554 C   0  0  0  0  0  0  0  0  0  0  0  0
    2.2239    8.3298   -0.3765 C   0  0  0  0  0  0  0  0  0  0  0  0
    1.5875    8.3969    0.3782 H   0  0  0  0  0  0  0  0  0  0  0  0
    2.6717    9.2036   -0.5023 H   0  0  0  0  0  0  0  0  0  0  0  0
    2.6933    7.2678   -2.4590 C   0  0  0  0  0  0  0  0  0  0  0  0
    4.2284    5.3259   -1.5853 C   0  0  0  0  0  0  0  0  0  0  0  0
    4.3708    4.7536   -0.8022 H   0  0  0  0  0  0  0  0  0  0  0  0
    5.0334    5.8592   -1.7496 H   0  0  0  0  0  0  0  0  0  0  0  0
    4.0409    4.7671   -2.3684 H   0  0  0  0  0  0  0  0  0  0  0  0
    3.7982    8.2592   -2.8135 C   0  0  0  0  0  0  0  0  0  0  0  0
    4.5110    7.7944   -3.3005 H   0  0  0  0  0  0  0  0  0  0  0  0
    4.1638    8.6488   -1.9922 H   0  0  0  0  0  0  0  0  0  0  0  0
    3.4297    8.9719   -3.3769 H   0  0  0  0  0  0  0  0  0  0  0  0
    2.2576    6.6028   -3.7666 C   0  0  0  0  0  0  0  0  0  0  0  0
    1.9389    7.2879   -4.3912 H   0  0  0  0  0  0  0  0  0  0  0  0
    1.5358    5.9654   -3.5851 H   0  0  0  0  0  0  0  0  0  0  0  0
    3.0186    6.1293   -4.1620 H   0  0  0  0  0  0  0  0  0  0  0  0
    7.0249    5.8827    6.9351 C   0  0  0  0  0  0  0  0  0  0  0  0
    8.0202    6.7909    7.6665 C   0  0  0  0  0  0  0  0  0  0  0  0
    7.2153    7.5459    8.7426 C   0  0  0  0  0  0  0  0  0  0  0  0
    7.7624    8.2559    9.1624 H   0  0  0  0  0  0  0  0  0  0  0  0
    6.4008    7.9536    8.3545 H   0  0  0  0  0  0  0  0  0  0  0  0
    6.8523    6.4517    9.7652 C   0  0  0  0  0  0  0  0  0  0  0  0
    7.2256    6.6599   10.6580 H   0  0  0  0  0  0  0  0  0  0  0  0
    5.8705    6.3469    9.8424 H   0  0  0  0  0  0  0  0  0  0  0  0
    7.4989    5.1896    9.1754 C   0  0  0  0  0  0  0  0  0  0  0  0
    6.6619    4.7926    7.9593 C   0  0  0  0  0  0  0  0  0  0  0  0
    5.6948    4.8053    8.1692 H   0  0  0  0  0  0  0  0  0  0  0  0
    6.9114    3.8932    7.6306 H   0  0  0  0  0  0  0  0  0  0  0  0
    8.7853    5.7316    8.5201 C   0  0  0  0  0  0  0  0  0  0  0  0
    8.8467    7.6728    6.7594 C   0  0  0  0  0  0  0  0  0  0  0  0
    9.3225    7.1160    6.1083 H   0  0  0  0  0  0  0  0  0  0  0  0
    9.4956    8.1753    7.2944 H   0  0  0  0  0  0  0  0  0  0  0  0
    8.2582    8.2982    6.2878 H   0  0  0  0  0  0  0  0  0  0  0  0
    9.5590    4.7012    7.7091 C   0  0  0  0  0  0  0  0  0  0  0  0
   10.2915    5.1439    7.2333 H   0  0  0  0  0  0  0  0  0  0  0  0
    8.9584    4.2767    7.0614 H   0  0  0  0  0  0  0  0  0  0  0  0
    9.9254    4.0201    8.3105 H   0  0  0  0  0  0  0  0  0  0  0  0
    9.7674    6.3422    9.5198 C   0  0  0  0  0  0  0  0  0  0  0  0
   10.0995    5.6423   10.1212 H   0  0  0  0  0  0  0  0  0  0  0  0
    9.3124    7.0340   10.0448 H   0  0  0  0  0  0  0  0  0  0  0  0
   10.5204    6.7412    9.0363 H   0  0  0  0  0  0  0  0  0  0  0  0
    3.1418    5.2218    5.0123 B   0  0  0  0  0  0  0  0  0  0  0  0
    3.8363    4.3432    4.9985 H   0  0  0  0  0  0  0  0  0  0  0  0
    1.6443    5.2634    4.0412 B   0  0  0  0  0  0  0  0  0  0  0  0
    1.3406    4.4037    3.3903 H   0  0  0  0  0  0  0  0  0  0  0  0
    1.3510    6.9501    3.5578 B   0  0  0  0  0  0  0  0  0  0  0  0
    0.8455    7.1986    2.5900 H   0  0  0  0  0  0  0  0  0  0  0  0
    2.6850    7.9462    4.1990 B   0  0  0  0  0  0  0  0  0  0  0  0
    3.0808    8.8389    3.6501 H   0  0  0  0  0  0  0  0  0  0  0  0
    2.6094    7.8851    5.9753 B   0  0  0  0  0  0  0  0  0  0  0  0
    2.9441    8.7469    6.6068 H   0  0  0  0  0  0  0  0  0  0  0  0
    2.8785    6.1958    6.4784 B   0  0  0  0  0  0  0  0  0  0  0  0
    3.3868    5.9472    7.4453 H   0  0  0  0  0  0  0  0  0  0  0  0
    1.5674    5.1922    5.8237 B   0  0  0  0  0  0  0  0  0  0  0  0
    1.1994    4.2801    6.3604 H   0  0  0  0  0  0  0  0  0  0  0  0
    0.4721    6.2643    4.9231 B   0  0  0  0  0  0  0  0  0  0  0  0
   -0.6267    6.0567    4.8687 H   0  0  0  0  0  0  0  0  0  0  0  0
    1.1132    7.9328    5.0129 B   0  0  0  0  0  0  0  0  0  0  0  0
    0.4449    8.8315    5.0138 H   0  0  0  0  0  0  0  0  0  0  0  0
    1.2366    6.8460    6.4141 B   0  0  0  0  0  0  0  0  0  0  0  0
    0.6415    7.0287    7.3460 H   0  0  0  0  0  0  0  0  0  0  0  0
    4.1993    7.5432   -0.0783 H   0  0  0  0  0  0  0  0  0  0  0  0
    1.0808    8.5843   -2.1431 H   0  0  0  0  0  0  0  0  0  0  0  0
    7.4368    5.5012    6.0968 H   0  0  0  0  0  0  0  0  0  0  0  0
    7.6485    4.4735    9.8080 H   0  0  0  0  0  0  0  0  0  0  0  0
  1  3  1  0  0  0  0
  2  4  1  0  0  0  0
  3  5  1  0  0  0  0
  4  6  1  0  0  0  0
  5  9  1  0  0  0  0
  6 34  1  0  0  0  0
  7  3  1  0  0  0  0
  8  4  1  0  0  0  0
  9 10  1  0  0  0  0
 10 11  1  0  0  0  0
 11 12  1  0  0  0  0
 13 11  1  0  0  0  0
 14 11  1  0  0  0  0
 15 14  1  0  0  0  0
 16 14  1  0  0  0  0
 17 14  1  0  0  0  0
 18  9  1  0  0  0  0
 19 18  1  0  0  0  0
 20 18  1  0  0  0  0
 21 10  1  0  0  0  0
 22 10  1  0  0  0  0
 23 22  1  0  0  0  0
 24 22  1  0  0  0  0
 25 22  1  0  0  0  0
 26 21  1  0  0  0  0
 27 26  1  0  0  0  0
 28 26  1  0  0  0  0
 29 26  1  0  0  0  0
 30 21  1  0  0  0  0
 31 30  1  0  0  0  0
 32 30  1  0  0  0  0
 33 30  1  0  0  0  0
 34 35  1  0  0  0  0
 35 36  1  0  0  0  0
 36 37  1  0  0  0  0
 38 36  1  0  0  0  0
 39 36  1  0  0  0  0
 40 39  1  0  0  0  0
 41 39  1  0  0  0  0
 42 39  1  0  0  0  0
 43 34  1  0  0  0  0
 44 43  1  0  0  0  0
 45 43  1  0  0  0  0
 46 35  1  0  0  0  0
 47 35  1  0  0  0  0
 48 47  1  0  0  0  0
 49 47  1  0  0  0  0
 50 47  1  0  0  0  0
 51 46  1  0  0  0  0
 52 51  1  0  0  0  0
 53 51  1  0  0  0  0
 54 51  1  0  0  0  0
 55 46  1  0  0  0  0
 56 55  1  0  0  0  0
 57 55  1  0  0  0  0
 58 55  1  0  0  0  0
 59  7  1  0  0  0  0
 60 59  1  0  0  0  0
 61  7  1  0  0  0  0
 62 61  1  0  0  0  0
 63  7  1  0  0  0  0
 64 63  1  0  0  0  0
 65  7  1  0  0  0  0
 66 65  1  0  0  0  0
 67  8  1  0  0  0  0
 68 67  1  0  0  0  0
 69  8  1  0  0  0  0
 70 69  1  0  0  0  0
 71 59  1  0  0  0  0
 72 71  1  0  0  0  0
 73 61  1  0  0  0  0
 74 73  1  0  0  0  0
 75 63  1  0  0  0  0
 76 75  1  0  0  0  0
 77 67  1  0  0  0  0
 78 77  1  0  0  0  0
 79  9  1  0  0  0  0
 80 17  1  0  0  0  0
 81 34  1  0  0  0  0
 82 42  1  0  0  0  0
  7  8  1  0  0  0  0
  8 59  1  0  0  0  0
  8 65  1  0  0  0  0
 17 18  1  0  0  0  0
 17 21  1  0  0  0  0
 42 43  1  0  0  0  0
 42 46  1  0  0  0  0
 59 61  1  0  0  0  0
 59 69  1  0  0  0  0
 61 63  1  0  0  0  0
 61 71  1  0  0  0  0
 63 65  1  0  0  0  0
 63 73  1  0  0  0  0
 65 67  1  0  0  0  0
 65 75  1  0  0  0  0
 67 69  1  0  0  0  0
 67 75  1  0  0  0  0
 69 71  1  0  0  0  0
 69 77  1  0  0  0  0
 71 73  1  0  0  0  0
 71 77  1  0  0  0  0
 73 75  1  0  0  0  0
 73 77  1  0  0  0  0
 75 77  1  0  0  0  0
M  END
$$$$
CIPPID

From CSD data. Using bond type 'Any'. No disordered atoms. Largest molecule.
126146  0  0  0  0  0  0  0  0999 V2000
   -0.1632    4.9120   16.0551 P   0  0  0  0  0  0  0  0  0  0  0  0
    1.1234    7.6233   14.8634 P   0  0  0  0  0  0  0  0  0  0  0  0
   -0.7086    4.2989   17.4655 O   0  0  0  0  0  0  0  0  0  0  0  0
    0.0765    8.4560   15.7905 O   0  0  0  0  0  0  0  0  0  0  0  0
    0.0311    3.5881   15.0806 N   0  0  0  0  0  0  0  0  0  0  0  0
    2.1253    8.8277   14.3122 N   0  0  0  0  0  0  0  0  0  0  0  0
    1.5250    5.3300   16.8356 C   0  0  0  0  0  0  0  0  0  0  0  0
    2.0832    6.8567   16.3233 C   0  0  0  0  0  0  0  0  0  0  0  0
   -2.1174    4.1345   17.7447 C   0  0  0  0  0  0  0  0  0  0  0  0
   -2.1922    3.6714   19.1914 C   0  0  0  0  0  0  0  0  0  0  0  0
   -3.6459    3.5784   19.6439 C   0  0  0  0  0  0  0  0  0  0  0  0
   -4.3676    4.9095   19.4556 C   0  0  0  0  0  0  0  0  0  0  0  0
   -4.3229    5.3666   18.0083 C   0  0  0  0  0  0  0  0  0  0  0  0
   -2.8726    5.4325   17.5349 C   0  0  0  0  0  0  0  0  0  0  0  0
   -1.3902    2.3805   19.4463 C   0  0  0  0  0  0  0  0  0  0  0  0
   -2.1295    1.1134   19.0571 C   0  0  0  0  0  0  0  0  0  0  0  0
   -1.5049    0.3591   19.0517 H   0  0  0  0  0  0  0  0  0  0  0  0
   -2.5173    1.2236   18.1650 H   0  0  0  0  0  0  0  0  0  0  0  0
   -2.8433    0.9396   19.7056 H   0  0  0  0  0  0  0  0  0  0  0  0
   -0.9687    2.2823   20.8987 C   0  0  0  0  0  0  0  0  0  0  0  0
   -1.7647    2.2231   21.4660 H   0  0  0  0  0  0  0  0  0  0  0  0
   -0.4516    3.0778   21.1437 H   0  0  0  0  0  0  0  0  0  0  0  0
   -0.4182    1.4825   21.0264 H   0  0  0  0  0  0  0  0  0  0  0  0
   -5.0073    6.7130   17.8285 C   0  0  0  0  0  0  0  0  0  0  0  0
   -5.9511    6.6359   18.0793 H   0  0  0  0  0  0  0  0  0  0  0  0
   -4.9405    6.9909   16.8908 H   0  0  0  0  0  0  0  0  0  0  0  0
   -4.5719    7.3793   18.3997 H   0  0  0  0  0  0  0  0  0  0  0  0
    0.5838    2.2889   15.5364 C   0  0  0  0  0  0  0  0  0  0  0  0
    1.7764    1.8595   14.7043 C   0  0  0  0  0  0  0  0  0  0  0  0
    1.4831    1.6635   13.7891 H   0  0  0  0  0  0  0  0  0  0  0  0
    2.1764    1.0566   15.0987 H   0  0  0  0  0  0  0  0  0  0  0  0
    2.4402    2.5809   14.6870 H   0  0  0  0  0  0  0  0  0  0  0  0
   -0.4800    1.1874   15.5841 C   0  0  0  0  0  0  0  0  0  0  0  0
   -1.2390    1.4895   16.1251 H   0  0  0  0  0  0  0  0  0  0  0  0
   -0.0953    0.3786   15.9835 H   0  0  0  0  0  0  0  0  0  0  0  0
   -0.7852    0.9884   14.6739 H   0  0  0  0  0  0  0  0  0  0  0  0
   -0.5761    3.6179   13.7255 C   0  0  0  0  0  0  0  0  0  0  0  0
    0.2149    4.4675   12.7473 C   0  0  0  0  0  0  0  0  0  0  0  0
    0.2103    5.4012   13.0476 H   0  0  0  0  0  0  0  0  0  0  0  0
   -0.1941    4.4086   11.8591 H   0  0  0  0  0  0  0  0  0  0  0  0
    1.1383    4.1427   12.7049 H   0  0  0  0  0  0  0  0  0  0  0  0
   -2.0406    4.0328   13.7635 C   0  0  0  0  0  0  0  0  0  0  0  0
   -2.5230    3.4704   14.4057 H   0  0  0  0  0  0  0  0  0  0  0  0
   -2.4350    3.9242   12.8725 H   0  0  0  0  0  0  0  0  0  0  0  0
   -2.1068    4.9710   14.0387 H   0  0  0  0  0  0  0  0  0  0  0  0
   -1.3437    8.5429   15.5212 C   0  0  0  0  0  0  0  0  0  0  0  0
   -1.7965    9.9335   15.9552 C   0  0  0  0  0  0  0  0  0  0  0  0
   -3.2913   10.0757   15.6885 C   0  0  0  0  0  0  0  0  0  0  0  0
   -3.6538    9.7847   14.2335 C   0  0  0  0  0  0  0  0  0  0  0  0
   -3.1790    8.4127   13.7915 C   0  0  0  0  0  0  0  0  0  0  0  0
   -1.6902    8.2649   14.0733 C   0  0  0  0  0  0  0  0  0  0  0  0
   -1.3782   10.2946   17.3833 C   0  0  0  0  0  0  0  0  0  0  0  0
   -2.1250    9.5482   18.4653 C   0  0  0  0  0  0  0  0  0  0  0  0
   -1.7298    9.7555   19.3386 H   0  0  0  0  0  0  0  0  0  0  0  0
   -2.0637    8.5848   18.2991 H   0  0  0  0  0  0  0  0  0  0  0  0
   -3.0666    9.8209   18.4612 H   0  0  0  0  0  0  0  0  0  0  0  0
   -1.4791   11.7882   17.6635 C   0  0  0  0  0  0  0  0  0  0  0  0
   -2.4195   12.0635   17.6322 H   0  0  0  0  0  0  0  0  0  0  0  0
   -0.9720   12.2821   16.9858 H   0  0  0  0  0  0  0  0  0  0  0  0
   -1.1112   11.9800   18.5506 H   0  0  0  0  0  0  0  0  0  0  0  0
   -3.4602    8.1491   12.3161 C   0  0  0  0  0  0  0  0  0  0  0  0
   -4.4086    8.3078   12.1311 H   0  0  0  0  0  0  0  0  0  0  0  0
   -3.2383    7.2192   12.1031 H   0  0  0  0  0  0  0  0  0  0  0  0
   -2.9154    8.7490   11.7678 H   0  0  0  0  0  0  0  0  0  0  0  0
    2.3629   10.1014   15.0404 C   0  0  0  0  0  0  0  0  0  0  0  0
    3.8433   10.3766   15.2564 C   0  0  0  0  0  0  0  0  0  0  0  0
    4.2319    9.6636   15.8066 H   0  0  0  0  0  0  0  0  0  0  0  0
    3.9524   11.2366   15.7116 H   0  0  0  0  0  0  0  0  0  0  0  0
    4.2999   10.4056   14.3908 H   0  0  0  0  0  0  0  0  0  0  0  0
    1.6803   11.2824   14.3753 C   0  0  0  0  0  0  0  0  0  0  0  0
    2.0892   11.4468   13.5003 H   0  0  0  0  0  0  0  0  0  0  0  0
    1.7823   12.0788   14.9385 H   0  0  0  0  0  0  0  0  0  0  0  0
    0.7278   11.0849   14.2585 H   0  0  0  0  0  0  0  0  0  0  0  0
    2.5617    8.7525   12.8911 C   0  0  0  0  0  0  0  0  0  0  0  0
    3.2368    7.4384   12.5618 C   0  0  0  0  0  0  0  0  0  0  0  0
    3.9712    7.2818   13.1911 H   0  0  0  0  0  0  0  0  0  0  0  0
    3.5919    7.4725   11.6486 H   0  0  0  0  0  0  0  0  0  0  0  0
    2.5841    6.7097   12.6322 H   0  0  0  0  0  0  0  0  0  0  0  0
    1.4215    8.9992   11.9057 C   0  0  0  0  0  0  0  0  0  0  0  0
    0.7696    8.2702   11.9709 H   0  0  0  0  0  0  0  0  0  0  0  0
    1.7804    9.0372   10.9947 H   0  0  0  0  0  0  0  0  0  0  0  0
    0.9832    9.8488   12.1199 H   0  0  0  0  0  0  0  0  0  0  0  0
    2.8512    4.3186   17.2425 B   0  0  0  0  0  0  0  0  0  0  0  0
    1.8903    5.0966   18.5023 B   0  0  0  0  0  0  0  0  0  0  0  0
    3.6559    5.1140   18.5977 B   0  0  0  0  0  0  0  0  0  0  0  0
    4.2952    5.2902   16.9530 B   0  0  0  0  0  0  0  0  0  0  0  0
    2.9116    5.4179   15.8492 B   0  0  0  0  0  0  0  0  0  0  0  0
    1.3649    6.6882   17.8792 B   0  0  0  0  0  0  0  0  0  0  0  0
    2.7285    6.5681   19.0098 B   0  0  0  0  0  0  0  0  0  0  0  0
    4.2396    6.6889   18.0593 B   0  0  0  0  0  0  0  0  0  0  0  0
    3.7870    6.8774   16.3507 B   0  0  0  0  0  0  0  0  0  0  0  0
    2.8227    7.6845   17.6333 B   0  0  0  0  0  0  0  0  0  0  0  0
    2.7934    3.2546   17.0603 H   0  0  0  0  0  0  0  0  0  0  0  0
    1.2527    4.5659   19.0927 H   0  0  0  0  0  0  0  0  0  0  0  0
    4.2164    4.4949   19.3032 H   0  0  0  0  0  0  0  0  0  0  0  0
    5.2454    4.8429   16.5536 H   0  0  0  0  0  0  0  0  0  0  0  0
    2.8660    5.0796   14.8006 H   0  0  0  0  0  0  0  0  0  0  0  0
    0.3504    7.1343   18.0085 H   0  0  0  0  0  0  0  0  0  0  0  0
    2.6543    6.9519   20.0148 H   0  0  0  0  0  0  0  0  0  0  0  0
    5.1513    7.0660   18.4276 H   0  0  0  0  0  0  0  0  0  0  0  0
    4.3128    7.4433   15.6054 H   0  0  0  0  0  0  0  0  0  0  0  0
    2.7233    8.7393   17.5726 H   0  0  0  0  0  0  0  0  0  0  0  0
   -2.4169    3.4606   17.1441 H   0  0  0  0  0  0  0  0  0  0  0  0
   -1.7411    4.4212   19.7391 H   0  0  0  0  0  0  0  0  0  0  0  0
   -4.1383    2.9344   19.1188 H   0  0  0  0  0  0  0  0  0  0  0  0
   -3.6533    3.2713   20.6333 H   0  0  0  0  0  0  0  0  0  0  0  0
   -3.9218    5.5933   20.0856 H   0  0  0  0  0  0  0  0  0  0  0  0
   -5.3286    4.7900   19.6963 H   0  0  0  0  0  0  0  0  0  0  0  0
   -4.7590    4.7246   17.4422 H   0  0  0  0  0  0  0  0  0  0  0  0
   -2.3836    6.1918   18.0383 H   0  0  0  0  0  0  0  0  0  0  0  0
   -2.8284    5.7116   16.5722 H   0  0  0  0  0  0  0  0  0  0  0  0
   -0.6114    2.3999   18.9604 H   0  0  0  0  0  0  0  0  0  0  0  0
    0.9015    2.4765   16.4697 H   0  0  0  0  0  0  0  0  0  0  0  0
   -0.5724    2.7215   13.4239 H   0  0  0  0  0  0  0  0  0  0  0  0
   -1.7597    7.9027   16.0785 H   0  0  0  0  0  0  0  0  0  0  0  0
   -1.3475   10.5392   15.3352 H   0  0  0  0  0  0  0  0  0  0  0  0
   -3.8090    9.4743   16.2238 H   0  0  0  0  0  0  0  0  0  0  0  0
   -3.5912   10.9373   15.9444 H   0  0  0  0  0  0  0  0  0  0  0  0
   -3.2970   10.4181   13.6754 H   0  0  0  0  0  0  0  0  0  0  0  0
   -4.5669    9.8696   14.0592 H   0  0  0  0  0  0  0  0  0  0  0  0
   -3.6261    7.7454   14.3163 H   0  0  0  0  0  0  0  0  0  0  0  0
   -1.2594    8.8827   13.5413 H   0  0  0  0  0  0  0  0  0  0  0  0
   -1.3788    7.3250   13.8598 H   0  0  0  0  0  0  0  0  0  0  0  0
   -0.4165   10.1467   17.4068 H   0  0  0  0  0  0  0  0  0  0  0  0
    1.9268    9.9671   15.9276 H   0  0  0  0  0  0  0  0  0  0  0  0
    3.2526    9.6399   12.7924 H   0  0  0  0  0  0  0  0  0  0  0  0
  1  3  1  0  0  0  0
  2  4  1  0  0  0  0
  3  9  1  0  0  0  0
  4 46  1  0  0  0  0
  5  1  1  0  0  0  0
  6  2  1  0  0  0  0
  7  1  1  0  0  0  0
  8  2  1  0  0  0  0
  9 10  1  0  0  0  0
 10 11  1  0  0  0  0
 11 12  1  0  0  0  0
 12 13  1  0  0  0  0
 13 14  1  0  0  0  0
 14  9  1  0  0  0  0
 15 10  1  0  0  0  0
 16 15  1  0  0  0  0
 17 16  1  0  0  0  0
 18 16  1  0  0  0  0
 19 16  1  0  0  0  0
 20 15  1  0  0  0  0
 21 20  1  0  0  0  0
 22 20  1  0  0  0  0
 23 20  1  0  0  0  0
 24 13  1  0  0  0  0
 25 24  1  0  0  0  0
 26 24  1  0  0  0  0
 27 24  1  0  0  0  0
 28  5  1  0  0  0  0
 29 28  1  0  0  0  0
 30 29  1  0  0  0  0
 31 29  1  0  0  0  0
 32 29  1  0  0  0  0
 33 28  1  0  0  0  0
 34 33  1  0  0  0  0
 35 33  1  0  0  0  0
 36 33  1  0  0  0  0
 37  5  1  0  0  0  0
 38 37  1  0  0  0  0
 39 38  1  0  0  0  0
 40 38  1  0  0  0  0
 41 38  1  0  0  0  0
 42 37  1  0  0  0  0
 43 42  1  0  0  0  0
 44 42  1  0  0  0  0
 45 42  1  0  0  0  0
 46 47  1  0  0  0  0
 47 48  1  0  0  0  0
 48 49  1  0  0  0  0
 49 50  1  0  0  0  0
 50 51  1  0  0  0  0
 51 46  1  0  0  0  0
 52 47  1  0  0  0  0
 53 52  1  0  0  0  0
 54 53  1  0  0  0  0
 55 53  1  0  0  0  0
 56 53  1  0  0  0  0
 57 52  1  0  0  0  0
 58 57  1  0  0  0  0
 59 57  1  0  0  0  0
 60 57  1  0  0  0  0
 61 50  1  0  0  0  0
 62 61  1  0  0  0  0
 63 61  1  0  0  0  0
 64 61  1  0  0  0  0
 65  6  1  0  0  0  0
 66 65  1  0  0  0  0
 67 66  1  0  0  0  0
 68 66  1  0  0  0  0
 69 66  1  0  0  0  0
 70 65  1  0  0  0  0
 71 70  1  0  0  0  0
 72 70  1  0  0  0  0
 73 70  1  0  0  0  0
 74  6  1  0  0  0  0
 75 74  1  0  0  0  0
 76 75  1  0  0  0  0
 77 75  1  0  0  0  0
 78 75  1  0  0  0  0
 79 74  1  0  0  0  0
 80 79  1  0  0  0  0
 81 79  1  0  0  0  0
 82 79  1  0  0  0  0
 83  7  1  0  0  0  0
 84  7  1  0  0  0  0
 85 83  1  0  0  0  0
 86 83  1  0  0  0  0
 87  7  1  0  0  0  0
 88  7  1  0  0  0  0
 89 84  1  0  0  0  0
 90 85  1  0  0  0  0
 91  8  1  0  0  0  0
 92  8  1  0  0  0  0
 93 83  1  0  0  0  0
 94 84  1  0  0  0  0
 95 85  1  0  0  0  0
 96 86  1  0  0  0  0
 97 87  1  0  0  0  0
 98 88  1  0  0  0  0
 99 89  1  0  0  0  0
100 90  1  0  0  0  0
101 91  1  0  0  0  0
102 92  1  0  0  0  0
103  9  1  0  0  0  0
104 10  1  0  0  0  0
105 11  1  0  0  0  0
106 11  1  0  0  0  0
107 12  1  0  0  0  0
108 12  1  0  0  0  0
109 13  1  0  0  0  0
110 14  1  0  0  0  0
111 14  1  0  0  0  0
112 15  1  0  0  0  0
113 28  1  0  0  0  0
114 37  1  0  0  0  0
115 46  1  0  0  0  0
116 47  1  0  0  0  0
117 48  1  0  0  0  0
118 48  1  0  0  0  0
119 49  1  0  0  0  0
120 49  1  0  0  0  0
121 50  1  0  0  0  0
122 51  1  0  0  0  0
123 51  1  0  0  0  0
124 52  1  0  0  0  0
125 65  1  0  0  0  0
126 74  1  0  0  0  0
  7  8  1  0  0  0  0
  8 87  1  0  0  0  0
  8 88  1  0  0  0  0
 83 84  1  0  0  0  0
 83 87  1  0  0  0  0
 84 85  1  0  0  0  0
 84 88  1  0  0  0  0
 85 86  1  0  0  0  0
 85 89  1  0  0  0  0
 86 87  1  0  0  0  0
 86 90  1  0  0  0  0
 86 91  1  0  0  0  0
 87 91  1  0  0  0  0
 88 89  1  0  0  0  0
 88 92  1  0  0  0  0
 89 90  1  0  0  0  0
 89 92  1  0  0  0  0
 90 91  1  0  0  0  0
 90 92  1  0  0  0  0
 91 92  1  0  0  0  0
M  END
$$$$
CIPPOJ

From CSD data. Using bond type 'Any'. No disordered atoms. Largest molecule.
126146  0  0  0  0  0  0  0  0999 V2000
    8.8349   -0.6885   16.3119 P   0  0  0  0  0  0  0  0  0  0  0  0
    8.6308   -0.4316   19.5488 P   0  0  0  0  0  0  0  0  0  0  0  0
    7.3063   -0.1768   16.0996 O   0  0  0  0  0  0  0  0  0  0  0  0
   10.2014   -0.7338   19.8432 O   0  0  0  0  0  0  0  0  0  0  0  0
    9.3052   -1.1461   14.7853 N   0  0  0  0  0  0  0  0  0  0  0  0
    7.9488   -0.3982   21.0709 N   0  0  0  0  0  0  0  0  0  0  0  0
    8.2719   -2.2828   17.1945 C   0  0  0  0  0  0  0  0  0  0  0  0
    8.3074   -2.1927   18.8979 C   0  0  0  0  0  0  0  0  0  0  0  0
    6.9816    1.2141   15.8286 C   0  0  0  0  0  0  0  0  0  0  0  0
    5.4640    1.2812   15.8688 C   0  0  0  0  0  0  0  0  0  0  0  0
    5.0041    2.7356   15.7787 C   0  0  0  0  0  0  0  0  0  0  0  0
    5.6397    3.5933   16.8568 C   0  0  0  0  0  0  0  0  0  0  0  0
    7.1518    3.5801   16.7435 C   0  0  0  0  0  0  0  0  0  0  0  0
    7.6438    2.1350   16.8347 C   0  0  0  0  0  0  0  0  0  0  0  0
    4.8040    0.3621   14.8174 C   0  0  0  0  0  0  0  0  0  0  0  0
    3.3603    0.0436   15.1895 C   0  0  0  0  0  0  0  0  0  0  0  0
    2.8469    0.8761   15.2475 H   0  0  0  0  0  0  0  0  0  0  0  0
    3.3401   -0.4132   16.0560 H   0  0  0  0  0  0  0  0  0  0  0  0
    2.9664   -0.5366   14.5049 H   0  0  0  0  0  0  0  0  0  0  0  0
    4.8535    0.9176   13.4007 C   0  0  0  0  0  0  0  0  0  0  0  0
    4.5692    0.2240   12.7674 H   0  0  0  0  0  0  0  0  0  0  0  0
    5.7692    1.1953   13.1917 H   0  0  0  0  0  0  0  0  0  0  0  0
    4.2535    1.6890   13.3322 H   0  0  0  0  0  0  0  0  0  0  0  0
    7.8095    4.4443   17.8049 C   0  0  0  0  0  0  0  0  0  0  0  0
    7.5020    5.3703   17.7103 H   0  0  0  0  0  0  0  0  0  0  0  0
    8.7833    4.4111   17.6960 H   0  0  0  0  0  0  0  0  0  0  0  0
    7.5681    4.1106   18.6938 H   0  0  0  0  0  0  0  0  0  0  0  0
    8.4043   -1.5926   13.7046 C   0  0  0  0  0  0  0  0  0  0  0  0
    8.8297   -2.9055   13.0604 C   0  0  0  0  0  0  0  0  0  0  0  0
    9.6908   -2.7838   12.6097 H   0  0  0  0  0  0  0  0  0  0  0  0
    8.1542   -3.1822   12.4061 H   0  0  0  0  0  0  0  0  0  0  0  0
    8.9179   -3.5954   13.7508 H   0  0  0  0  0  0  0  0  0  0  0  0
    8.2610   -0.5282   12.6212 C   0  0  0  0  0  0  0  0  0  0  0  0
    7.9790    0.3166   13.0283 H   0  0  0  0  0  0  0  0  0  0  0  0
    7.5890   -0.8157   11.9674 H   0  0  0  0  0  0  0  0  0  0  0  0
    9.1222   -0.4025   12.1710 H   0  0  0  0  0  0  0  0  0  0  0  0
   10.7106   -0.8695   14.4051 C   0  0  0  0  0  0  0  0  0  0  0  0
   11.6901   -1.7157   15.1976 C   0  0  0  0  0  0  0  0  0  0  0  0
   11.7068   -1.4100   16.1277 H   0  0  0  0  0  0  0  0  0  0  0  0
   12.5853   -1.6287   14.8088 H   0  0  0  0  0  0  0  0  0  0  0  0
   11.4108   -2.6550   15.1672 H   0  0  0  0  0  0  0  0  0  0  0  0
   11.0567    0.6038   14.5043 C   0  0  0  0  0  0  0  0  0  0  0  0
   10.3872    1.1296   14.0203 H   0  0  0  0  0  0  0  0  0  0  0  0
   11.9412    0.7593   14.1121 H   0  0  0  0  0  0  0  0  0  0  0  0
   11.0661    0.8747   15.4453 H   0  0  0  0  0  0  0  0  0  0  0  0
   11.2570    0.2554   19.8653 C   0  0  0  0  0  0  0  0  0  0  0  0
   12.5181   -0.4682   19.4148 C   0  0  0  0  0  0  0  0  0  0  0  0
   13.6889    0.5178   19.3996 C   0  0  0  0  0  0  0  0  0  0  0  0
   13.3966    1.6931   18.5051 C   0  0  0  0  0  0  0  0  0  0  0  0
   12.1430    2.4312   18.9352 C   0  0  0  0  0  0  0  0  0  0  0  0
   10.9654    1.4642   18.9971 C   0  0  0  0  0  0  0  0  0  0  0  0
   12.8019   -1.7589   20.1718 C   0  0  0  0  0  0  0  0  0  0  0  0
   13.8260   -2.6067   19.4366 C   0  0  0  0  0  0  0  0  0  0  0  0
   14.7011   -2.1680   19.4765 H   0  0  0  0  0  0  0  0  0  0  0  0
   13.5533   -2.7100   18.5017 H   0  0  0  0  0  0  0  0  0  0  0  0
   13.8829   -3.4894   19.8578 H   0  0  0  0  0  0  0  0  0  0  0  0
   13.2271   -1.5562   21.6157 C   0  0  0  0  0  0  0  0  0  0  0  0
   13.3153   -2.4283   22.0540 H   0  0  0  0  0  0  0  0  0  0  0  0
   12.5517   -1.0223   22.0827 H   0  0  0  0  0  0  0  0  0  0  0  0
   14.0883   -1.0894   21.6412 H   0  0  0  0  0  0  0  0  0  0  0  0
   11.8310    3.5997   18.0068 C   0  0  0  0  0  0  0  0  0  0  0  0
   12.6004    4.2059   17.9741 H   0  0  0  0  0  0  0  0  0  0  0  0
   11.0476    4.0838   18.3440 H   0  0  0  0  0  0  0  0  0  0  0  0
   11.6441    3.2600   17.1054 H   0  0  0  0  0  0  0  0  0  0  0  0
    8.5372   -1.0774   22.2487 C   0  0  0  0  0  0  0  0  0  0  0  0
    7.5101   -1.8192   23.0756 C   0  0  0  0  0  0  0  0  0  0  0  0
    6.7929   -1.2034   23.3328 H   0  0  0  0  0  0  0  0  0  0  0  0
    7.9372   -2.1787   23.8804 H   0  0  0  0  0  0  0  0  0  0  0  0
    7.1352   -2.5544   22.5472 H   0  0  0  0  0  0  0  0  0  0  0  0
    9.2906   -0.1022   23.1324 C   0  0  0  0  0  0  0  0  0  0  0  0
    9.9543    0.3783   22.5959 H   0  0  0  0  0  0  0  0  0  0  0  0
    9.7431   -0.5943   23.8489 H   0  0  0  0  0  0  0  0  0  0  0  0
    8.6602    0.5380   23.5220 H   0  0  0  0  0  0  0  0  0  0  0  0
    6.9201    0.6432   21.3246 C   0  0  0  0  0  0  0  0  0  0  0  0
    5.6176    0.3461   20.5978 C   0  0  0  0  0  0  0  0  0  0  0  0
    5.7692    0.3743   19.6313 H   0  0  0  0  0  0  0  0  0  0  0  0
    4.9464    1.0156   20.8441 H   0  0  0  0  0  0  0  0  0  0  0  0
    5.2980   -0.5460   20.8527 H   0  0  0  0  0  0  0  0  0  0  0  0
    7.4126    2.0440   21.0115 C   0  0  0  0  0  0  0  0  0  0  0  0
    8.2657    2.2002   21.4691 H   0  0  0  0  0  0  0  0  0  0  0  0
    6.7511    2.6993   21.3201 H   0  0  0  0  0  0  0  0  0  0  0  0
    7.5380    2.1371   20.0442 H   0  0  0  0  0  0  0  0  0  0  0  0
    7.0672   -3.3695   16.6862 B   0  0  0  0  0  0  0  0  0  0  0  0
    8.7856   -3.8305   16.6899 B   0  0  0  0  0  0  0  0  0  0  0  0
    7.5716   -4.9557   17.3112 B   0  0  0  0  0  0  0  0  0  0  0  0
    6.3356   -4.0140   18.1759 B   0  0  0  0  0  0  0  0  0  0  0  0
    6.7923   -2.3012   18.0799 B   0  0  0  0  0  0  0  0  0  0  0  0
    9.5596   -3.0275   18.0638 B   0  0  0  0  0  0  0  0  0  0  0  0
    9.1256   -4.7441   18.1676 B   0  0  0  0  0  0  0  0  0  0  0  0
    7.6006   -4.8709   19.0820 B   0  0  0  0  0  0  0  0  0  0  0  0
    7.1181   -3.2280   19.5527 B   0  0  0  0  0  0  0  0  0  0  0  0
    8.8390   -3.6805   19.5539 B   0  0  0  0  0  0  0  0  0  0  0  0
    6.5201   -3.1822   15.7291 H   0  0  0  0  0  0  0  0  0  0  0  0
    9.3218   -3.8772   15.7549 H   0  0  0  0  0  0  0  0  0  0  0  0
    7.3163   -5.8681   16.7441 H   0  0  0  0  0  0  0  0  0  0  0  0
    5.3155   -4.2931   18.1805 H   0  0  0  0  0  0  0  0  0  0  0  0
    6.1650   -1.4878   17.9884 H   0  0  0  0  0  0  0  0  0  0  0  0
   10.4905   -2.5436   17.9540 H   0  0  0  0  0  0  0  0  0  0  0  0
    9.9566   -5.4897   18.1662 H   0  0  0  0  0  0  0  0  0  0  0  0
    7.3813   -5.7366   19.7059 H   0  0  0  0  0  0  0  0  0  0  0  0
    6.6443   -2.9287   20.4599 H   0  0  0  0  0  0  0  0  0  0  0  0
    9.4727   -3.6518   20.4341 H   0  0  0  0  0  0  0  0  0  0  0  0
    7.2919    1.4113   14.9063 H   0  0  0  0  0  0  0  0  0  0  0  0
    5.1913    0.8989   16.7212 H   0  0  0  0  0  0  0  0  0  0  0  0
    5.2168    3.0628   14.9349 H   0  0  0  0  0  0  0  0  0  0  0  0
    4.0040    2.7261   15.8295 H   0  0  0  0  0  0  0  0  0  0  0  0
    5.3839    3.2332   17.7075 H   0  0  0  0  0  0  0  0  0  0  0  0
    5.3155    4.4742   16.7785 H   0  0  0  0  0  0  0  0  0  0  0  0
    7.3476    3.9469   15.8897 H   0  0  0  0  0  0  0  0  0  0  0  0
    7.4718    1.8044   17.7304 H   0  0  0  0  0  0  0  0  0  0  0  0
    8.5628    2.1291   16.7011 H   0  0  0  0  0  0  0  0  0  0  0  0
    5.2888   -0.5085   14.8805 H   0  0  0  0  0  0  0  0  0  0  0  0
    7.5565   -1.7789   14.1522 H   0  0  0  0  0  0  0  0  0  0  0  0
   10.7864   -1.1417   13.4584 H   0  0  0  0  0  0  0  0  0  0  0  0
   11.3540    0.5286   20.7696 H   0  0  0  0  0  0  0  0  0  0  0  0
   12.3718   -0.6815   18.4816 H   0  0  0  0  0  0  0  0  0  0  0  0
   13.8005    0.8076   20.3424 H   0  0  0  0  0  0  0  0  0  0  0  0
   14.4724    0.0805   19.1066 H   0  0  0  0  0  0  0  0  0  0  0  0
   13.3235    1.3684   17.4637 H   0  0  0  0  0  0  0  0  0  0  0  0
   14.0778    2.3612   18.5045 H   0  0  0  0  0  0  0  0  0  0  0  0
   12.2627    2.7878   19.7976 H   0  0  0  0  0  0  0  0  0  0  0  0
   10.7957    1.1725   18.1318 H   0  0  0  0  0  0  0  0  0  0  0  0
   10.2050    1.9225   19.2930 H   0  0  0  0  0  0  0  0  0  0  0  0
   11.9772   -2.2834   20.2420 H   0  0  0  0  0  0  0  0  0  0  0  0
    9.1442   -1.6850   21.8447 H   0  0  0  0  0  0  0  0  0  0  0  0
    6.7372    0.6024   22.2691 H   0  0  0  0  0  0  0  0  0  0  0  0
  1  3  1  0  0  0  0
  2  4  1  0  0  0  0
  3  9  1  0  0  0  0
  4 46  1  0  0  0  0
  5  1  1  0  0  0  0
  6  2  1  0  0  0  0
  7  1  1  0  0  0  0
  8  2  1  0  0  0  0
  9 10  1  0  0  0  0
 10 11  1  0  0  0  0
 11 12  1  0  0  0  0
 12 13  1  0  0  0  0
 13 14  1  0  0  0  0
 14  9  1  0  0  0  0
 15 10  1  0  0  0  0
 16 15  1  0  0  0  0
 17 16  1  0  0  0  0
 18 16  1  0  0  0  0
 19 16  1  0  0  0  0
 20 15  1  0  0  0  0
 21 20  1  0  0  0  0
 22 20  1  0  0  0  0
 23 20  1  0  0  0  0
 24 13  1  0  0  0  0
 25 24  1  0  0  0  0
 26 24  1  0  0  0  0
 27 24  1  0  0  0  0
 28  5  1  0  0  0  0
 29 28  1  0  0  0  0
 30 29  1  0  0  0  0
 31 29  1  0  0  0  0
 32 29  1  0  0  0  0
 33 28  1  0  0  0  0
 34 33  1  0  0  0  0
 35 33  1  0  0  0  0
 36 33  1  0  0  0  0
 37  5  1  0  0  0  0
 38 37  1  0  0  0  0
 39 38  1  0  0  0  0
 40 38  1  0  0  0  0
 41 38  1  0  0  0  0
 42 37  1  0  0  0  0
 43 42  1  0  0  0  0
 44 42  1  0  0  0  0
 45 42  1  0  0  0  0
 46 47  1  0  0  0  0
 47 48  1  0  0  0  0
 48 49  1  0  0  0  0
 49 50  1  0  0  0  0
 50 51  1  0  0  0  0
 51 46  1  0  0  0  0
 52 47  1  0  0  0  0
 53 52  1  0  0  0  0
 54 53  1  0  0  0  0
 55 53  1  0  0  0  0
 56 53  1  0  0  0  0
 57 52  1  0  0  0  0
 58 57  1  0  0  0  0
 59 57  1  0  0  0  0
 60 57  1  0  0  0  0
 61 50  1  0  0  0  0
 62 61  1  0  0  0  0
 63 61  1  0  0  0  0
 64 61  1  0  0  0  0
 65  6  1  0  0  0  0
 66 65  1  0  0  0  0
 67 66  1  0  0  0  0
 68 66  1  0  0  0  0
 69 66  1  0  0  0  0
 70 65  1  0  0  0  0
 71 70  1  0  0  0  0
 72 70  1  0  0  0  0
 73 70  1  0  0  0  0
 74  6  1  0  0  0  0
 75 74  1  0  0  0  0
 76 75  1  0  0  0  0
 77 75  1  0  0  0  0
 78 75  1  0  0  0  0
 79 74  1  0  0  0  0
 80 79  1  0  0  0  0
 81 79  1  0  0  0  0
 82 79  1  0  0  0  0
 83  7  1  0  0  0  0
 84  7  1  0  0  0  0
 85 83  1  0  0  0  0
 86 83  1  0  0  0  0
 87  7  1  0  0  0  0
 88  7  1  0  0  0  0
 89 84  1  0  0  0  0
 90 85  1  0  0  0  0
 91  8  1  0  0  0  0
 92  8  1  0  0  0  0
 93 83  1  0  0  0  0
 94 84  1  0  0  0  0
 95 85  1  0  0  0  0
 96 86  1  0  0  0  0
 97 87  1  0  0  0  0
 98 88  1  0  0  0  0
 99 89  1  0  0  0  0
100 90  1  0  0  0  0
101 91  1  0  0  0  0
102 92  1  0  0  0  0
103  9  1  0  0  0  0
104 10  1  0  0  0  0
105 11  1  0  0  0  0
106 11  1  0  0  0  0
107 12  1  0  0  0  0
108 12  1  0  0  0  0
109 13  1  0  0  0  0
110 14  1  0  0  0  0
111 14  1  0  0  0  0
112 15  1  0  0  0  0
113 28  1  0  0  0  0
114 37  1  0  0  0  0
115 46  1  0  0  0  0
116 47  1  0  0  0  0
117 48  1  0  0  0  0
118 48  1  0  0  0  0
119 49  1  0  0  0  0
120 49  1  0  0  0  0
121 50  1  0  0  0  0
122 51  1  0  0  0  0
123 51  1  0  0  0  0
124 52  1  0  0  0  0
125 65  1  0  0  0  0
126 74  1  0  0  0  0
  7  8  1  0  0  0  0
  8 87  1  0  0  0  0
  8 88  1  0  0  0  0
 83 84  1  0  0  0  0
 83 87  1  0  0  0  0
 84 85  1  0  0  0  0
 84 88  1  0  0  0  0
 85 86  1  0  0  0  0
 85 89  1  0  0  0  0
 86 87  1  0  0  0  0
 86 90  1  0  0  0  0
 86 91  1  0  0  0  0
 87 91  1  0  0  0  0
 88 89  1  0  0  0  0
 88 92  1  0  0  0  0
 89 90  1  0  0  0  0
 89 92  1  0  0  0  0
 90 91  1  0  0  0  0
 90 92  1  0  0  0  0
 91 92  1  0  0  0  0
M  END
$$$$
CIQYIM

From CSD data. Using bond type 'Any'. No disordered atoms. Largest molecule.
 90130  0  0  0  0  0  0  0  0999 V2000
   -4.6436    1.8245    3.0361 P   0  0  0  0  0  0  0  0  0  0  0  0
   -0.4113    1.3967    3.5903 P   0  0  0  0  0  0  0  0  0  0  0  0
   -3.8898    1.4305    1.5993 O   0  0  0  0  0  0  0  0  0  0  0  0
   -1.0251    1.0693    2.0592 O   0  0  0  0  0  0  0  0  0  0  0  0
   -4.0920    0.4815    3.8715 O   0  0  0  0  0  0  0  0  0  0  0  0
   -1.2481    0.1822    4.3796 O   0  0  0  0  0  0  0  0  0  0  0  0
   -3.0556    2.3065    0.9559 C   0  0  0  0  0  0  0  0  0  0  0  0
   -1.3725    2.0873    1.2124 C   0  0  0  0  0  0  0  0  0  0  0  0
   -2.0871    1.5539   -0.2674 B   0  0  0  0  0  0  0  0  0  0  0  0
   -2.1746    0.4959   -0.5542 H   0  0  0  0  0  0  0  0  0  0  0  0
   -3.3593    2.7341   -0.6558 B   0  0  0  0  0  0  0  0  0  0  0  0
   -4.2630    2.4475   -1.2124 H   0  0  0  0  0  0  0  0  0  0  0  0
   -3.4049    3.9418    0.6704 B   0  0  0  0  0  0  0  0  0  0  0  0
   -4.3404    4.4400    0.9668 H   0  0  0  0  0  0  0  0  0  0  0  0
   -2.1774    3.4826    1.8634 B   0  0  0  0  0  0  0  0  0  0  0  0
   -2.3241    3.6608    2.9392 H   0  0  0  0  0  0  0  0  0  0  0  0
   -0.5123    2.3755   -0.2408 B   0  0  0  0  0  0  0  0  0  0  0  0
    0.4160    1.8621   -0.5324 H   0  0  0  0  0  0  0  0  0  0  0  0
   -1.7486    2.8412   -1.4278 B   0  0  0  0  0  0  0  0  0  0  0  0
   -1.6142    2.6352   -2.4999 H   0  0  0  0  0  0  0  0  0  0  0  0
   -2.5545    4.3184   -0.8555 B   0  0  0  0  0  0  0  0  0  0  0  0
   -2.9385    5.0741   -1.5561 H   0  0  0  0  0  0  0  0  0  0  0  0
   -1.8282    4.7758    0.7224 B   0  0  0  0  0  0  0  0  0  0  0  0
   -1.7405    5.8244    1.0455 H   0  0  0  0  0  0  0  0  0  0  0  0
   -0.5682    3.5737    1.1011 B   0  0  0  0  0  0  0  0  0  0  0  0
    0.3299    3.8318    1.6807 H   0  0  0  0  0  0  0  0  0  0  0  0
   -0.8081    4.0973   -0.5917 B   0  0  0  0  0  0  0  0  0  0  0  0
   -0.0623    4.7107   -1.1181 H   0  0  0  0  0  0  0  0  0  0  0  0
   -3.7044    0.5664    5.1789 C   0  0  0  0  0  0  0  0  0  0  0  0
   -2.0427    0.4071    5.4839 C   0  0  0  0  0  0  0  0  0  0  0  0
   -2.7959    1.9556    5.7101 B   0  0  0  0  0  0  0  0  0  0  0  0
   -2.5972    2.8418    5.0882 H   0  0  0  0  0  0  0  0  0  0  0  0
   -4.4219    1.5949    6.3442 B   0  0  0  0  0  0  0  0  0  0  0  0
   -5.2766    2.2573    6.1433 H   0  0  0  0  0  0  0  0  0  0  0  0
   -4.6114   -0.1777    6.4119 B   0  0  0  0  0  0  0  0  0  0  0  0
   -5.5896   -0.6584    6.2631 H   0  0  0  0  0  0  0  0  0  0  0  0
   -3.0899   -0.9077    5.8033 B   0  0  0  0  0  0  0  0  0  0  0  0
   -3.0789   -1.8504    5.2370 H   0  0  0  0  0  0  0  0  0  0  0  0
   -1.5731    1.3158    6.8524 B   0  0  0  0  0  0  0  0  0  0  0  0
   -0.5926    1.7961    6.9843 H   0  0  0  0  0  0  0  0  0  0  0  0
   -3.0996    2.0462    7.4453 B   0  0  0  0  0  0  0  0  0  0  0  0
   -3.1002    3.0090    7.9777 H   0  0  0  0  0  0  0  0  0  0  0  0
   -4.2142    0.7391    7.8870 B   0  0  0  0  0  0  0  0  0  0  0  0
   -4.9360    0.8532    8.7098 H   0  0  0  0  0  0  0  0  0  0  0  0
   -3.4032   -0.8298    7.5494 B   0  0  0  0  0  0  0  0  0  0  0  0
   -3.6020   -1.7330    8.1447 H   0  0  0  0  0  0  0  0  0  0  0  0
   -1.7747   -0.4745    6.9129 B   0  0  0  0  0  0  0  0  0  0  0  0
   -0.9210   -1.1462    7.0871 H   0  0  0  0  0  0  0  0  0  0  0  0
   -2.4768    0.5538    8.1943 B   0  0  0  0  0  0  0  0  0  0  0  0
   -2.0760    0.5466    9.2180 H   0  0  0  0  0  0  0  0  0  0  0  0
   -6.2736    1.1857    2.5798 C   0  0  0  0  0  0  0  0  0  0  0  0
   -6.1826    0.3269    2.1381 H   0  0  0  0  0  0  0  0  0  0  0  0
   -6.8176    1.0645    3.3748 H   0  0  0  0  0  0  0  0  0  0  0  0
   -6.9252    2.1737    1.6553 C   0  0  0  0  0  0  0  0  0  0  0  0
   -7.3000    3.4468    2.1200 C   0  0  0  0  0  0  0  0  0  0  0  0
   -7.1896    3.6602    3.0178 H   0  0  0  0  0  0  0  0  0  0  0  0
   -7.8325    4.3857    1.2536 C   0  0  0  0  0  0  0  0  0  0  0  0
   -7.9747    4.0533   -0.0908 C   0  0  0  0  0  0  0  0  0  0  0  0
   -8.3293    4.6837   -0.6764 H   0  0  0  0  0  0  0  0  0  0  0  0
   -7.6005    2.8027   -0.5857 C   0  0  0  0  0  0  0  0  0  0  0  0
   -7.0633    1.8850    0.2952 C   0  0  0  0  0  0  0  0  0  0  0  0
   -6.7875    1.0563   -0.0242 H   0  0  0  0  0  0  0  0  0  0  0  0
   -8.2487    5.7613    1.7412 C   0  0  0  0  0  0  0  0  0  0  0  0
   -8.0855    5.8305    2.6838 H   0  0  0  0  0  0  0  0  0  0  0  0
   -9.1833    5.8932    1.5670 H   0  0  0  0  0  0  0  0  0  0  0  0
   -7.7403    6.4329    1.2790 H   0  0  0  0  0  0  0  0  0  0  0  0
   -7.7943    2.4522   -2.0462 C   0  0  0  0  0  0  0  0  0  0  0  0
   -7.4829    1.5577   -2.2047 H   0  0  0  0  0  0  0  0  0  0  0  0
   -7.2965    3.0644   -2.5907 H   0  0  0  0  0  0  0  0  0  0  0  0
   -8.7267    2.5105   -2.2676 H   0  0  0  0  0  0  0  0  0  0  0  0
    1.1332    0.4576    3.4316 C   0  0  0  0  0  0  0  0  0  0  0  0
    0.9501   -0.4393    3.1122 H   0  0  0  0  0  0  0  0  0  0  0  0
    1.7275    0.8936    2.8024 H   0  0  0  0  0  0  0  0  0  0  0  0
    1.7729    0.4042    4.8099 C   0  0  0  0  0  0  0  0  0  0  0  0
    1.7657   -0.7629    5.5492 C   0  0  0  0  0  0  0  0  0  0  0  0
    1.4187   -1.5407    5.1765 H   0  0  0  0  0  0  0  0  0  0  0  0
    2.2742   -0.7893    6.8572 C   0  0  0  0  0  0  0  0  0  0  0  0
    2.7711    0.3988    7.3957 C   0  0  0  0  0  0  0  0  0  0  0  0
    3.1165    0.3926    8.2597 H   0  0  0  0  0  0  0  0  0  0  0  0
    2.7632    1.5851    6.6842 C   0  0  0  0  0  0  0  0  0  0  0  0
    2.2747    1.5659    5.3786 C   0  0  0  0  0  0  0  0  0  0  0  0
    2.2864    2.3489    4.8776 H   0  0  0  0  0  0  0  0  0  0  0  0
    2.2799   -2.0641    7.6534 C   0  0  0  0  0  0  0  0  0  0  0  0
    2.6616   -1.8992    8.5186 H   0  0  0  0  0  0  0  0  0  0  0  0
    2.8013   -2.7267    7.1948 H   0  0  0  0  0  0  0  0  0  0  0  0
    1.3800   -2.3807    7.7563 H   0  0  0  0  0  0  0  0  0  0  0  0
    3.2463    2.8624    7.3207 C   0  0  0  0  0  0  0  0  0  0  0  0
    3.5423    2.6825    8.2161 H   0  0  0  0  0  0  0  0  0  0  0  0
    2.5284    3.4995    7.3437 H   0  0  0  0  0  0  0  0  0  0  0  0
    3.9754    3.2191    6.8088 H   0  0  0  0  0  0  0  0  0  0  0  0
  1  3  1  0  0  0  0
  2  4  1  0  0  0  0
  3  7  1  0  0  0  0
  4  8  1  0  0  0  0
  5  1  1  0  0  0  0
  6  2  1  0  0  0  0
  7  8  1  0  0  0  0
  8  9  1  0  0  0  0
  9  7  1  0  0  0  0
 10  9  1  0  0  0  0
 11  7  1  0  0  0  0
 12 11  1  0  0  0  0
 13  7  1  0  0  0  0
 14 13  1  0  0  0  0
 15  7  1  0  0  0  0
 16 15  1  0  0  0  0
 17  8  1  0  0  0  0
 18 17  1  0  0  0  0
 19  9  1  0  0  0  0
 20 19  1  0  0  0  0
 21 11  1  0  0  0  0
 22 21  1  0  0  0  0
 23 13  1  0  0  0  0
 24 23  1  0  0  0  0
 25  8  1  0  0  0  0
 26 25  1  0  0  0  0
 27 17  1  0  0  0  0
 28 27  1  0  0  0  0
 29  5  1  0  0  0  0
 30  6  1  0  0  0  0
 31 29  1  0  0  0  0
 32 31  1  0  0  0  0
 33 29  1  0  0  0  0
 34 33  1  0  0  0  0
 35 29  1  0  0  0  0
 36 35  1  0  0  0  0
 37 29  1  0  0  0  0
 38 37  1  0  0  0  0
 39 30  1  0  0  0  0
 40 39  1  0  0  0  0
 41 31  1  0  0  0  0
 42 41  1  0  0  0  0
 43 33  1  0  0  0  0
 44 43  1  0  0  0  0
 45 35  1  0  0  0  0
 46 45  1  0  0  0  0
 47 30  1  0  0  0  0
 48 47  1  0  0  0  0
 49 39  1  0  0  0  0
 50 49  1  0  0  0  0
 51  1  1  0  0  0  0
 52 51  1  0  0  0  0
 53 51  1  0  0  0  0
 54 51  1  0  0  0  0
 55 54  4  0  0  0  0
 56 55  1  0  0  0  0
 57 55  4  0  0  0  0
 58 57  4  0  0  0  0
 59 58  1  0  0  0  0
 60 58  4  0  0  0  0
 61 54  4  0  0  0  0
 62 61  1  0  0  0  0
 63 57  1  0  0  0  0
 64 63  1  0  0  0  0
 65 63  1  0  0  0  0
 66 63  1  0  0  0  0
 67 60  1  0  0  0  0
 68 67  1  0  0  0  0
 69 67  1  0  0  0  0
 70 67  1  0  0  0  0
 71  2  1  0  0  0  0
 72 71  1  0  0  0  0
 73 71  1  0  0  0  0
 74 71  1  0  0  0  0
 75 74  4  0  0  0  0
 76 75  1  0  0  0  0
 77 75  4  0  0  0  0
 78 77  4  0  0  0  0
 79 78  1  0  0  0  0
 80 78  4  0  0  0  0
 81 74  4  0  0  0  0
 82 81  1  0  0  0  0
 83 77  1  0  0  0  0
 84 83  1  0  0  0  0
 85 83  1  0  0  0  0
 86 83  1  0  0  0  0
 87 80  1  0  0  0  0
 88 87  1  0  0  0  0
 89 87  1  0  0  0  0
 90 87  1  0  0  0  0
  8 15  1  0  0  0  0
  9 11  1  0  0  0  0
  9 17  1  0  0  0  0
 11 13  1  0  0  0  0
 11 19  1  0  0  0  0
 13 15  1  0  0  0  0
 13 21  1  0  0  0  0
 15 23  1  0  0  0  0
 15 25  1  0  0  0  0
 17 19  1  0  0  0  0
 17 25  1  0  0  0  0
 19 21  1  0  0  0  0
 19 27  1  0  0  0  0
 21 23  1  0  0  0  0
 21 27  1  0  0  0  0
 23 25  1  0  0  0  0
 23 27  1  0  0  0  0
 25 27  1  0  0  0  0
 29 30  1  0  0  0  0
 30 31  1  0  0  0  0
 30 37  1  0  0  0  0
 31 33  1  0  0  0  0
 31 39  1  0  0  0  0
 33 35  1  0  0  0  0
 33 41  1  0  0  0  0
 35 37  1  0  0  0  0
 35 43  1  0  0  0  0
 37 45  1  0  0  0  0
 37 47  1  0  0  0  0
 39 41  1  0  0  0  0
 39 47  1  0  0  0  0
 41 43  1  0  0  0  0
 41 49  1  0  0  0  0
 43 45  1  0  0  0  0
 43 49  1  0  0  0  0
 45 47  1  0  0  0  0
 45 49  1  0  0  0  0
 47 49  1  0  0  0  0
 60 61  4  0  0  0  0
 80 81  4  0  0  0  0
M  END
$$$$
CIQZUA

From CSD data. Using bond type 'Any'. No disordered atoms. Largest molecule.
 95119  0  0  0  0  0  0  0  0999 V2000
    5.1505    8.9883    9.8993 P   0  0  0  0  0  0  0  0  0  0  0  0
    2.6906    6.5080    9.8997 C   0  0  0  0  0  0  0  0  0  0  0  0
    2.2539    7.3256   10.2024 H   0  0  0  0  0  0  0  0  0  0  0  0
    4.1164    7.2381    5.7575 P   0  0  0  0  0  0  0  0  0  0  0  0
    2.3008    5.9201    8.4773 C   0  0  0  0  0  0  0  0  0  0  0  0
    1.6293    6.3716    7.9673 H   0  0  0  0  0  0  0  0  0  0  0  0
    4.2467    7.2666    8.2807 Mo  0  0  0  0  0  0  0  0  0  0  0  0
    4.2623    6.0365   10.3335 B   0  0  0  0  0  0  0  0  0  0  0  0
    4.7924    6.5794   11.0433 H   0  0  0  0  0  0  0  0  0  0  0  0
    2.8239    5.2712   11.0781 B   0  0  0  0  0  0  0  0  0  0  0  0
    2.5731    5.5076   12.1239 H   0  0  0  0  0  0  0  0  0  0  0  0
    1.5392    5.2083    9.8643 B   0  0  0  0  0  0  0  0  0  0  0  0
    0.5180    5.4226   10.0391 H   0  0  0  0  0  0  0  0  0  0  0  0
    3.5782    5.0008    7.8213 B   0  0  0  0  0  0  0  0  0  0  0  0
    3.6041    4.8205    6.7506 H   0  0  0  0  0  0  0  0  0  0  0  0
    4.8760    5.0003    9.0317 B   0  0  0  0  0  0  0  0  0  0  0  0
    5.9867    4.7878    8.8704 H   0  0  0  0  0  0  0  0  0  0  0  0
    4.1759    4.2710   10.5079 B   0  0  0  0  0  0  0  0  0  0  0  0
    4.7651    3.7284   11.2247 H   0  0  0  0  0  0  0  0  0  0  0  0
    2.5044    3.7675   10.1893 B   0  0  0  0  0  0  0  0  0  0  0  0
    2.0313    2.9062   10.6714 H   0  0  0  0  0  0  0  0  0  0  0  0
    2.1230    4.2210    8.5134 B   0  0  0  0  0  0  0  0  0  0  0  0
    1.3957    3.7690    7.8688 H   0  0  0  0  0  0  0  0  0  0  0  0
    3.7505    3.6133    8.9172 B   0  0  0  0  0  0  0  0  0  0  0  0
    4.0734    2.6473    8.5504 H   0  0  0  0  0  0  0  0  0  0  0  0
    7.1759    7.7582    7.3137 O   0  0  0  0  0  0  0  0  0  0  0  0
    6.0873    7.6089    7.6587 C   0  0  0  0  0  0  0  0  0  0  0  0
    2.5529    9.8312    7.7136 O   0  0  0  0  0  0  0  0  0  0  0  0
    3.2346    8.9137    7.8889 C   0  0  0  0  0  0  0  0  0  0  0  0
    3.8660    9.6141   11.0445 C   0  0  0  0  0  0  0  0  0  0  0  0
    3.5303    8.9315   12.2175 C   0  0  0  0  0  0  0  0  0  0  0  0
    4.0036    8.1445   12.4595 H   0  0  0  0  0  0  0  0  0  0  0  0
    2.5070    9.4007   13.0295 C   0  0  0  0  0  0  0  0  0  0  0  0
    2.2788    8.9289   13.8226 H   0  0  0  0  0  0  0  0  0  0  0  0
    1.8175   10.5511   12.6913 C   0  0  0  0  0  0  0  0  0  0  0  0
    1.1258   10.8750   13.2564 H   0  0  0  0  0  0  0  0  0  0  0  0
    2.1375   11.2294   11.5288 C   0  0  0  0  0  0  0  0  0  0  0  0
    1.6595   12.0150   11.2921 H   0  0  0  0  0  0  0  0  0  0  0  0
    3.1516   10.7659   10.7108 C   0  0  0  0  0  0  0  0  0  0  0  0
    3.3647   11.2363    9.9134 H   0  0  0  0  0  0  0  0  0  0  0  0
    5.7921   10.5513    9.1666 C   0  0  0  0  0  0  0  0  0  0  0  0
    5.7943   10.7931    7.8039 C   0  0  0  0  0  0  0  0  0  0  0  0
    5.4750   10.1246    7.2080 H   0  0  0  0  0  0  0  0  0  0  0  0
    6.2577   12.0032    7.2940 C   0  0  0  0  0  0  0  0  0  0  0  0
    6.2529   12.1555    6.3567 H   0  0  0  0  0  0  0  0  0  0  0  0
    6.7233   12.9805    8.1427 C   0  0  0  0  0  0  0  0  0  0  0  0
    7.0312   13.8089    7.7950 H   0  0  0  0  0  0  0  0  0  0  0  0
    6.7401   12.7493    9.4998 C   0  0  0  0  0  0  0  0  0  0  0  0
    7.0692   13.4199   10.0884 H   0  0  0  0  0  0  0  0  0  0  0  0
    6.2806   11.5465   10.0155 C   0  0  0  0  0  0  0  0  0  0  0  0
    6.2994   11.3989   10.9539 H   0  0  0  0  0  0  0  0  0  0  0  0
    6.5329    8.4838   10.9972 C   0  0  0  0  0  0  0  0  0  0  0  0
    6.7810    9.1528   12.2032 C   0  0  0  0  0  0  0  0  0  0  0  0
    6.1707    9.8098   12.5139 H   0  0  0  0  0  0  0  0  0  0  0  0
    7.9181    8.8566   12.9454 C   0  0  0  0  0  0  0  0  0  0  0  0
    8.0815    9.3151   13.7617 H   0  0  0  0  0  0  0  0  0  0  0  0
    8.8145    7.8990   12.5048 C   0  0  0  0  0  0  0  0  0  0  0  0
    9.6113    7.7292   12.9933 H   0  0  0  0  0  0  0  0  0  0  0  0
    8.5429    7.1912   11.3502 C   0  0  0  0  0  0  0  0  0  0  0  0
    9.1365    6.5059   11.0666 H   0  0  0  0  0  0  0  0  0  0  0  0
    7.4089    7.4757   10.6021 C   0  0  0  0  0  0  0  0  0  0  0  0
    7.2282    6.9790    9.8137 H   0  0  0  0  0  0  0  0  0  0  0  0
    4.4631    8.8481    4.9347 C   0  0  0  0  0  0  0  0  0  0  0  0
    3.4416    9.7509    4.6398 C   0  0  0  0  0  0  0  0  0  0  0  0
    2.5366    9.5165    4.8110 H   0  0  0  0  0  0  0  0  0  0  0  0
    3.7467   10.9990    4.0933 C   0  0  0  0  0  0  0  0  0  0  0  0
    3.0498   11.6192    3.9143 H   0  0  0  0  0  0  0  0  0  0  0  0
    5.0557   11.3371    3.8112 C   0  0  0  0  0  0  0  0  0  0  0  0
    5.2570   12.1846    3.4310 H   0  0  0  0  0  0  0  0  0  0  0  0
    6.0744   10.4403    4.0821 C   0  0  0  0  0  0  0  0  0  0  0  0
    6.9744   10.6696    3.8832 H   0  0  0  0  0  0  0  0  0  0  0  0
    5.7815    9.2034    4.6442 C   0  0  0  0  0  0  0  0  0  0  0  0
    6.4852    8.5937    4.8330 H   0  0  0  0  0  0  0  0  0  0  0  0
    2.4708    6.7359    5.1258 C   0  0  0  0  0  0  0  0  0  0  0  0
    2.3139    5.6953    4.2044 C   0  0  0  0  0  0  0  0  0  0  0  0
    3.0818    5.2517    3.8625 H   0  0  0  0  0  0  0  0  0  0  0  0
    1.0530    5.3031    3.7848 C   0  0  0  0  0  0  0  0  0  0  0  0
    0.9647    4.5918    3.1615 H   0  0  0  0  0  0  0  0  0  0  0  0
   -0.0784    5.9381    4.2651 C   0  0  0  0  0  0  0  0  0  0  0  0
   -0.9405    5.6667    3.9713 H   0  0  0  0  0  0  0  0  0  0  0  0
    0.0551    6.9736    5.1779 C   0  0  0  0  0  0  0  0  0  0  0  0
   -0.7170    7.4179    5.5093 H   0  0  0  0  0  0  0  0  0  0  0  0
    1.3146    7.3604    5.6068 C   0  0  0  0  0  0  0  0  0  0  0  0
    1.3944    8.0644    6.2401 H   0  0  0  0  0  0  0  0  0  0  0  0
    5.2911    6.1402    4.8755 C   0  0  0  0  0  0  0  0  0  0  0  0
    6.1041    5.2270    5.5555 C   0  0  0  0  0  0  0  0  0  0  0  0
    6.0547    5.1646    6.5018 H   0  0  0  0  0  0  0  0  0  0  0  0
    6.9810    4.4125    4.8564 C   0  0  0  0  0  0  0  0  0  0  0  0
    7.5348    3.8017    5.3279 H   0  0  0  0  0  0  0  0  0  0  0  0
    7.0558    4.4823    3.4778 C   0  0  0  0  0  0  0  0  0  0  0  0
    7.6508    3.9144    3.0021 H   0  0  0  0  0  0  0  0  0  0  0  0
    6.2529    5.3900    2.7894 C   0  0  0  0  0  0  0  0  0  0  0  0
    6.2981    5.4370    1.8412 H   0  0  0  0  0  0  0  0  0  0  0  0
    5.3900    6.2237    3.4813 C   0  0  0  0  0  0  0  0  0  0  0  0
    4.8630    6.8556    3.0073 H   0  0  0  0  0  0  0  0  0  0  0  0
  1  7  1  0  0  0  0
  2  3  1  0  0  0  0
  4  7  1  0  0  0  0
  5  2  1  0  0  0  0
  6  5  1  0  0  0  0
  7  2  1  0  0  0  0
  8  2  1  0  0  0  0
  9  8  1  0  0  0  0
 10  2  1  0  0  0  0
 11 10  1  0  0  0  0
 12  2  1  0  0  0  0
 13 12  1  0  0  0  0
 14  5  1  0  0  0  0
 15 14  1  0  0  0  0
 16  7  1  0  0  0  0
 17 16  1  0  0  0  0
 18  8  1  0  0  0  0
 19 18  1  0  0  0  0
 20 10  1  0  0  0  0
 21 20  1  0  0  0  0
 22  5  1  0  0  0  0
 23 22  1  0  0  0  0
 24 14  1  0  0  0  0
 25 24  1  0  0  0  0
 26 27  3  0  0  0  0
 27  7  1  0  0  0  0
 28 29  3  0  0  0  0
 29  7  1  0  0  0  0
 30  1  1  0  0  0  0
 31 30  4  0  0  0  0
 32 31  1  0  0  0  0
 33 31  4  0  0  0  0
 34 33  1  0  0  0  0
 35 33  4  0  0  0  0
 36 35  1  0  0  0  0
 37 35  4  0  0  0  0
 38 37  1  0  0  0  0
 39 30  4  0  0  0  0
 40 39  1  0  0  0  0
 41  1  1  0  0  0  0
 42 41  4  0  0  0  0
 43 42  1  0  0  0  0
 44 42  4  0  0  0  0
 45 44  1  0  0  0  0
 46 44  4  0  0  0  0
 47 46  1  0  0  0  0
 48 46  4  0  0  0  0
 49 48  1  0  0  0  0
 50 41  4  0  0  0  0
 51 50  1  0  0  0  0
 52  1  1  0  0  0  0
 53 52  4  0  0  0  0
 54 53  1  0  0  0  0
 55 53  4  0  0  0  0
 56 55  1  0  0  0  0
 57 55  4  0  0  0  0
 58 57  1  0  0  0  0
 59 57  4  0  0  0  0
 60 59  1  0  0  0  0
 61 52  4  0  0  0  0
 62 61  1  0  0  0  0
 63  4  1  0  0  0  0
 64 63  4  0  0  0  0
 65 64  1  0  0  0  0
 66 64  4  0  0  0  0
 67 66  1  0  0  0  0
 68 66  4  0  0  0  0
 69 68  1  0  0  0  0
 70 68  4  0  0  0  0
 71 70  1  0  0  0  0
 72 63  4  0  0  0  0
 73 72  1  0  0  0  0
 74  4  1  0  0  0  0
 75 74  4  0  0  0  0
 76 75  1  0  0  0  0
 77 75  4  0  0  0  0
 78 77  1  0  0  0  0
 79 77  4  0  0  0  0
 80 79  1  0  0  0  0
 81 79  4  0  0  0  0
 82 81  1  0  0  0  0
 83 74  4  0  0  0  0
 84 83  1  0  0  0  0
 85  4  1  0  0  0  0
 86 85  4  0  0  0  0
 87 86  1  0  0  0  0
 88 86  4  0  0  0  0
 89 88  1  0  0  0  0
 90 88  4  0  0  0  0
 91 90  1  0  0  0  0
 92 90  4  0  0  0  0
 93 92  1  0  0  0  0
 94 85  4  0  0  0  0
 95 94  1  0  0  0  0
  5  7  1  0  0  0  0
  5 12  1  0  0  0  0
  7  8  1  0  0  0  0
  7 14  1  0  0  0  0
  8 10  1  0  0  0  0
  8 16  1  0  0  0  0
 10 12  1  0  0  0  0
 10 18  1  0  0  0  0
 12 20  1  0  0  0  0
 12 22  1  0  0  0  0
 14 16  1  0  0  0  0
 14 22  1  0  0  0  0
 16 18  1  0  0  0  0
 16 24  1  0  0  0  0
 18 20  1  0  0  0  0
 18 24  1  0  0  0  0
 20 22  1  0  0  0  0
 20 24  1  0  0  0  0
 22 24  1  0  0  0  0
 37 39  4  0  0  0  0
 48 50  4  0  0  0  0
 59 61  4  0  0  0  0
 70 72  4  0  0  0  0
 81 83  4  0  0  0  0
 92 94  4  0  0  0  0
M  END
$$$$
CIRBAJ

From CSD data. Using bond type 'Any'. No disordered atoms. Largest molecule.
 71 89  0  0  0  0  0  0  0  0999 V2000
    2.0097    3.6147    2.6865 P   0  0  0  0  0  0  0  0  0  0  0  0
    2.7596    0.9431    0.6540 C   0  0  0  0  0  0  0  0  0  0  0  0
    2.4770    1.7631    0.2797 H   0  0  0  0  0  0  0  0  0  0  0  0
    5.4040    3.1260    2.9022 P   0  0  0  0  0  0  0  0  0  0  0  0
    4.3308    0.7054    0.8128 C   0  0  0  0  0  0  0  0  0  0  0  0
    4.8810    1.4122    0.5006 H   0  0  0  0  0  0  0  0  0  0  0  0
    3.4225    1.4828    2.9124 Mo  0  0  0  0  0  0  0  0  0  0  0  0
    1.8671    0.0708    1.7955 B   0  0  0  0  0  0  0  0  0  0  0  0
    0.8657    0.3697    2.0249 H   0  0  0  0  0  0  0  0  0  0  0  0
    1.9507   -0.4535    0.0815 B   0  0  0  0  0  0  0  0  0  0  0  0
    1.0615   -0.3307   -0.5642 H   0  0  0  0  0  0  0  0  0  0  0  0
    3.5413    0.0026   -0.5655 B   0  0  0  0  0  0  0  0  0  0  0  0
    3.7074    0.4130   -1.4972 H   0  0  0  0  0  0  0  0  0  0  0  0
    4.6853   -0.3691    2.0830 B   0  0  0  0  0  0  0  0  0  0  0  0
    5.6585   -0.3581    2.5350 H   0  0  0  0  0  0  0  0  0  0  0  0
    3.0828   -0.8736    2.7491 B   0  0  0  0  0  0  0  0  0  0  0  0
    2.8943   -1.3400    3.7334 H   0  0  0  0  0  0  0  0  0  0  0  0
    2.1907   -1.6408    1.3764 B   0  0  0  0  0  0  0  0  0  0  0  0
    1.4509   -2.4186    1.5465 H   0  0  0  0  0  0  0  0  0  0  0  0
    3.2329   -1.6705   -0.0742 B   0  0  0  0  0  0  0  0  0  0  0  0
    3.1807   -2.4475   -0.8249 H   0  0  0  0  0  0  0  0  0  0  0  0
    4.7693   -0.8851    0.3659 B   0  0  0  0  0  0  0  0  0  0  0  0
    5.7138   -1.0685   -0.0954 H   0  0  0  0  0  0  0  0  0  0  0  0
    1.7243    4.5043    4.2806 C   0  0  0  0  0  0  0  0  0  0  0  0
    1.2623    3.8828    4.8984 H   0  0  0  0  0  0  0  0  0  0  0  0
    2.6075    4.7102    4.6775 H   0  0  0  0  0  0  0  0  0  0  0  0
    3.9418   -1.9114    1.5442 B   0  0  0  0  0  0  0  0  0  0  0  0
    4.3659   -2.8663    1.8357 H   0  0  0  0  0  0  0  0  0  0  0  0
    0.9148    5.8062    4.2258 C   0  0  0  0  0  0  0  0  0  0  0  0
    1.4331    6.4935    3.7573 H   0  0  0  0  0  0  0  0  0  0  0  0
    0.7198    6.1080    5.1368 H   0  0  0  0  0  0  0  0  0  0  0  0
    0.0739    5.6488    3.7477 H   0  0  0  0  0  0  0  0  0  0  0  0
    0.2893    3.3207    2.0558 C   0  0  0  0  0  0  0  0  0  0  0  0
   -0.0688    4.1817    1.7245 H   0  0  0  0  0  0  0  0  0  0  0  0
    0.3460    2.7060    1.2810 H   0  0  0  0  0  0  0  0  0  0  0  0
   -0.7178    2.7380    3.0565 C   0  0  0  0  0  0  0  0  0  0  0  0
   -1.5931    2.6468    2.6240 H   0  0  0  0  0  0  0  0  0  0  0  0
   -0.7960    3.3370    3.8288 H   0  0  0  0  0  0  0  0  0  0  0  0
   -0.4091    1.8584    3.3567 H   0  0  0  0  0  0  0  0  0  0  0  0
    2.5302    4.9742    1.5493 C   0  0  0  0  0  0  0  0  0  0  0  0
    1.9535    5.7614    1.7197 H   0  0  0  0  0  0  0  0  0  0  0  0
    3.4583    5.2315    1.7769 H   0  0  0  0  0  0  0  0  0  0  0  0
    2.4722    4.6490    0.0504 C   0  0  0  0  0  0  0  0  0  0  0  0
    2.7880    5.4206   -0.4641 H   0  0  0  0  0  0  0  0  0  0  0  0
    1.5480    4.4431   -0.2034 H   0  0  0  0  0  0  0  0  0  0  0  0
    3.0433    3.8756   -0.1383 H   0  0  0  0  0  0  0  0  0  0  0  0
    5.4168    4.5482    4.0767 C   0  0  0  0  0  0  0  0  0  0  0  0
    6.2526    5.0625    3.9448 H   0  0  0  0  0  0  0  0  0  0  0  0
    4.6581    5.1463    3.8606 H   0  0  0  0  0  0  0  0  0  0  0  0
    5.3173    4.1397    5.5504 C   0  0  0  0  0  0  0  0  0  0  0  0
    4.4690    3.6720    5.7026 H   0  0  0  0  0  0  0  0  0  0  0  0
    5.3555    4.9398    6.1143 H   0  0  0  0  0  0  0  0  0  0  0  0
    6.0638    3.5449    5.7758 H   0  0  0  0  0  0  0  0  0  0  0  0
    6.3549    5.3048    1.1993 C   0  0  0  0  0  0  0  0  0  0  0  0
    6.5059    5.5694    0.2686 H   0  0  0  0  0  0  0  0  0  0  0  0
    7.2007    5.3484    1.6927 H   0  0  0  0  0  0  0  0  0  0  0  0
    5.7059    5.9130    1.6100 H   0  0  0  0  0  0  0  0  0  0  0  0
    5.8102    3.8688    1.2419 C   0  0  0  0  0  0  0  0  0  0  0  0
    6.4755    3.2807    0.8026 H   0  0  0  0  0  0  0  0  0  0  0  0
    4.9882    3.8409    0.6898 H   0  0  0  0  0  0  0  0  0  0  0  0
    6.9801    2.2506    3.3105 C   0  0  0  0  0  0  0  0  0  0  0  0
    6.9016    1.8829    4.2261 H   0  0  0  0  0  0  0  0  0  0  0  0
    7.0775    1.4844    2.6924 H   0  0  0  0  0  0  0  0  0  0  0  0
    8.2602    3.0892    3.2393 C   0  0  0  0  0  0  0  0  0  0  0  0
    8.3704    3.4410    2.3316 H   0  0  0  0  0  0  0  0  0  0  0  0
    9.0305    2.5284    3.4680 H   0  0  0  0  0  0  0  0  0  0  0  0
    8.1982    3.8337    3.8733 H   0  0  0  0  0  0  0  0  0  0  0  0
    2.0823    1.3426    4.3366 C   0  0  0  0  0  0  0  0  0  0  0  0
    1.3249    1.1312    5.1875 O   0  0  0  0  0  0  0  0  0  0  0  0
    4.3807    1.0950    4.5826 C   0  0  0  0  0  0  0  0  0  0  0  0
    4.8936    0.7652    5.5707 O   0  0  0  0  0  0  0  0  0  0  0  0
  1  7  1  0  0  0  0
  2  3  1  0  0  0  0
  4  7  1  0  0  0  0
  5  2  1  0  0  0  0
  6  5  1  0  0  0  0
  7  2  1  0  0  0  0
  8  2  1  0  0  0  0
  9  8  1  0  0  0  0
 10  2  1  0  0  0  0
 11 10  1  0  0  0  0
 12  2  1  0  0  0  0
 13 12  1  0  0  0  0
 14  5  1  0  0  0  0
 15 14  1  0  0  0  0
 16  7  1  0  0  0  0
 17 16  1  0  0  0  0
 18  8  1  0  0  0  0
 19 18  1  0  0  0  0
 20 10  1  0  0  0  0
 21 20  1  0  0  0  0
 22  5  1  0  0  0  0
 23 22  1  0  0  0  0
 24  1  1  0  0  0  0
 25 24  1  0  0  0  0
 26 24  1  0  0  0  0
 27 14  1  0  0  0  0
 28 27  1  0  0  0  0
 29 24  1  0  0  0  0
 30 29  1  0  0  0  0
 31 29  1  0  0  0  0
 32 29  1  0  0  0  0
 33  1  1  0  0  0  0
 34 33  1  0  0  0  0
 35 33  1  0  0  0  0
 36 33  1  0  0  0  0
 37 36  1  0  0  0  0
 38 36  1  0  0  0  0
 39 36  1  0  0  0  0
 40  1  1  0  0  0  0
 41 40  1  0  0  0  0
 42 40  1  0  0  0  0
 43 40  1  0  0  0  0
 44 43  1  0  0  0  0
 45 43  1  0  0  0  0
 46 43  1  0  0  0  0
 47  4  1  0  0  0  0
 48 47  1  0  0  0  0
 49 47  1  0  0  0  0
 50 47  1  0  0  0  0
 51 50  1  0  0  0  0
 52 50  1  0  0  0  0
 53 50  1  0  0  0  0
 54 55  1  0  0  0  0
 56 54  1  0  0  0  0
 57 54  1  0  0  0  0
 58  4  1  0  0  0  0
 59 58  1  0  0  0  0
 60 58  1  0  0  0  0
 61  4  1  0  0  0  0
 62 61  1  0  0  0  0
 63 61  1  0  0  0  0
 64 61  1  0  0  0  0
 65 64  1  0  0  0  0
 66 64  1  0  0  0  0
 67 64  1  0  0  0  0
 68  7  1  0  0  0  0
 69 68  3  0  0  0  0
 70  7  1  0  0  0  0
 71 70  3  0  0  0  0
  5  7  1  0  0  0  0
  5 12  1  0  0  0  0
  7  8  1  0  0  0  0
  7 14  1  0  0  0  0
  8 10  1  0  0  0  0
  8 16  1  0  0  0  0
 10 12  1  0  0  0  0
 10 18  1  0  0  0  0
 12 20  1  0  0  0  0
 12 22  1  0  0  0  0
 14 16  1  0  0  0  0
 14 22  1  0  0  0  0
 16 18  1  0  0  0  0
 16 27  1  0  0  0  0
 18 20  1  0  0  0  0
 18 27  1  0  0  0  0
 20 22  1  0  0  0  0
 20 27  1  0  0  0  0
 22 27  1  0  0  0  0
 54 58  1  0  0  0  0
M  END
$$$$
CIRBEN

From CSD data. Using bond type 'Any'. No disordered atoms. Largest molecule.
 71 89  0  0  0  0  0  0  0  0999 V2000
    6.4549   12.0644   -1.2886 P   0  0  0  0  0  0  0  0  0  0  0  0
    7.3547   10.4100    1.3239 C   0  0  0  0  0  0  0  0  0  0  0  0
    7.7518   10.2861    0.4509 H   0  0  0  0  0  0  0  0  0  0  0  0
    5.7395   14.6884    2.4071 P   0  0  0  0  0  0  0  0  0  0  0  0
    8.0984   11.4092    2.3442 C   0  0  0  0  0  0  0  0  0  0  0  0
    8.8800   11.8710    2.0415 H   0  0  0  0  0  0  0  0  0  0  0  0
    6.2772   12.5432    1.2013 Mo  0  0  0  0  0  0  0  0  0  0  0  0
    5.6790   10.2455    1.6574 B   0  0  0  0  0  0  0  0  0  0  0  0
    4.9912    9.8703    0.9265 H   0  0  0  0  0  0  0  0  0  0  0  0
    6.8507    8.9530    2.0964 B   0  0  0  0  0  0  0  0  0  0  0  0
    6.8485    8.0443    1.5373 H   0  0  0  0  0  0  0  0  0  0  0  0
    8.4247    9.7078    2.5178 B   0  0  0  0  0  0  0  0  0  0  0  0
    9.3784    9.3398    2.2116 H   0  0  0  0  0  0  0  0  0  0  0  0
    6.9844   12.0464    3.4730 B   0  0  0  0  0  0  0  0  0  0  0  0
    7.2317   12.9354    3.9928 H   0  0  0  0  0  0  0  0  0  0  0  0
    5.3829   11.2673    3.0878 B   0  0  0  0  0  0  0  0  0  0  0  0
    4.4093   11.6199    3.4230 H   0  0  0  0  0  0  0  0  0  0  0  0
    5.6364    9.4853    3.2772 B   0  0  0  0  0  0  0  0  0  0  0  0
    4.7970    8.8342    3.5316 H   0  0  0  0  0  0  0  0  0  0  0  0
    7.3235    9.1665    3.8124 B   0  0  0  0  0  0  0  0  0  0  0  0
    7.5952    8.3237    4.4416 H   0  0  0  0  0  0  0  0  0  0  0  0
    8.2197   12.0167   -1.8740 C   0  0  0  0  0  0  0  0  0  0  0  0
    8.6387   12.8871   -1.6541 H   0  0  0  0  0  0  0  0  0  0  0  0
    8.6959   11.3222   -1.3528 H   0  0  0  0  0  0  0  0  0  0  0  0
    8.1544   10.7541    3.9370 B   0  0  0  0  0  0  0  0  0  0  0  0
    9.0056   11.0079    4.5380 H   0  0  0  0  0  0  0  0  0  0  0  0
    8.4581   11.7379   -3.3701 C   0  0  0  0  0  0  0  0  0  0  0  0
    7.9222   12.3583   -3.9067 H   0  0  0  0  0  0  0  0  0  0  0  0
    8.1953   10.8166   -3.5767 H   0  0  0  0  0  0  0  0  0  0  0  0
    9.4078   11.8610   -3.5787 H   0  0  0  0  0  0  0  0  0  0  0  0
    6.4313   10.6135    4.4164 B   0  0  0  0  0  0  0  0  0  0  0  0
    6.1169   10.7185    5.4788 H   0  0  0  0  0  0  0  0  0  0  0  0
    5.7672   10.4321   -1.8365 C   0  0  0  0  0  0  0  0  0  0  0  0
    6.1228   10.2279   -2.7384 H   0  0  0  0  0  0  0  0  0  0  0  0
    6.0945    9.7290   -1.2196 H   0  0  0  0  0  0  0  0  0  0  0  0
    4.2255   10.3611   -1.8884 C   0  0  0  0  0  0  0  0  0  0  0  0
    3.8919   10.9846   -2.5662 H   0  0  0  0  0  0  0  0  0  0  0  0
    3.8577   10.6037   -1.0125 H   0  0  0  0  0  0  0  0  0  0  0  0
    3.9479    9.4496   -2.1173 H   0  0  0  0  0  0  0  0  0  0  0  0
    5.6350   13.2274   -2.4727 C   0  0  0  0  0  0  0  0  0  0  0  0
    5.6673   12.8256   -3.3779 H   0  0  0  0  0  0  0  0  0  0  0  0
    4.6815   13.3112   -2.2198 H   0  0  0  0  0  0  0  0  0  0  0  0
    6.2430   14.6388   -2.5459 C   0  0  0  0  0  0  0  0  0  0  0  0
    5.7852   15.1556   -3.2405 H   0  0  0  0  0  0  0  0  0  0  0  0
    7.1967   14.5735   -2.7630 H   0  0  0  0  0  0  0  0  0  0  0  0
    6.1341   15.0874   -1.6807 H   0  0  0  0  0  0  0  0  0  0  0  0
    7.2560   15.5196    3.1126 C   0  0  0  0  0  0  0  0  0  0  0  0
    7.9864   14.8512    3.1299 H   0  0  0  0  0  0  0  0  0  0  0  0
    7.5295   16.2349    2.4842 H   0  0  0  0  0  0  0  0  0  0  0  0
    7.1530   16.1411    4.5173 C   0  0  0  0  0  0  0  0  0  0  0  0
    6.4604   16.8336    4.5175 H   0  0  0  0  0  0  0  0  0  0  0  0
    8.0142   16.5392    4.7614 H   0  0  0  0  0  0  0  0  0  0  0  0
    6.9195   15.4449    5.1652 H   0  0  0  0  0  0  0  0  0  0  0  0
    4.5379   14.5923    3.8103 C   0  0  0  0  0  0  0  0  0  0  0  0
    4.8158   13.8600    4.4170 H   0  0  0  0  0  0  0  0  0  0  0  0
    4.5785   15.4383    4.3228 H   0  0  0  0  0  0  0  0  0  0  0  0
    3.0771   14.3470    3.3738 C   0  0  0  0  0  0  0  0  0  0  0  0
    2.7900   15.0674    2.7753 H   0  0  0  0  0  0  0  0  0  0  0  0
    2.4983   14.3307    4.1649 H   0  0  0  0  0  0  0  0  0  0  0  0
    3.0158   13.4875    2.9064 H   0  0  0  0  0  0  0  0  0  0  0  0
    5.0307   16.0157    1.3288 C   0  0  0  0  0  0  0  0  0  0  0  0
    5.6437   16.1617    0.5657 H   0  0  0  0  0  0  0  0  0  0  0  0
    4.1681   15.6961    0.9633 H   0  0  0  0  0  0  0  0  0  0  0  0
    4.7939   17.3701    2.0351 C   0  0  0  0  0  0  0  0  0  0  0  0
    4.3976   18.0044    1.4020 H   0  0  0  0  0  0  0  0  0  0  0  0
    5.6485   17.7233    2.3592 H   0  0  0  0  0  0  0  0  0  0  0  0
    4.1853   17.2410    2.7917 H   0  0  0  0  0  0  0  0  0  0  0  0
    4.4444   12.9206    0.5524 C   0  0  0  0  0  0  0  0  0  0  0  0
    3.3320   13.0551    0.2169 O   0  0  0  0  0  0  0  0  0  0  0  0
    8.2680   14.7755    0.1670 O   0  0  0  0  0  0  0  0  0  0  0  0
    7.4997   13.9608    0.5038 C   0  0  0  0  0  0  0  0  0  0  0  0
  1  7  1  0  0  0  0
  2  3  1  0  0  0  0
  4  7  1  0  0  0  0
  5  2  1  0  0  0  0
  6  5  1  0  0  0  0
  7  2  1  0  0  0  0
  8  2  1  0  0  0  0
  9  8  1  0  0  0  0
 10  2  1  0  0  0  0
 11 10  1  0  0  0  0
 12  2  1  0  0  0  0
 13 12  1  0  0  0  0
 14  5  1  0  0  0  0
 15 14  1  0  0  0  0
 16  7  1  0  0  0  0
 17 16  1  0  0  0  0
 18  8  1  0  0  0  0
 19 18  1  0  0  0  0
 20 10  1  0  0  0  0
 21 20  1  0  0  0  0
 22  1  1  0  0  0  0
 23 22  1  0  0  0  0
 24 22  1  0  0  0  0
 25  5  1  0  0  0  0
 26 25  1  0  0  0  0
 27 22  1  0  0  0  0
 28 27  1  0  0  0  0
 29 27  1  0  0  0  0
 30 27  1  0  0  0  0
 31 14  1  0  0  0  0
 32 31  1  0  0  0  0
 33  1  1  0  0  0  0
 34 33  1  0  0  0  0
 35 33  1  0  0  0  0
 36 33  1  0  0  0  0
 37 36  1  0  0  0  0
 38 36  1  0  0  0  0
 39 36  1  0  0  0  0
 40  1  1  0  0  0  0
 41 40  1  0  0  0  0
 42 40  1  0  0  0  0
 43 40  1  0  0  0  0
 44 43  1  0  0  0  0
 45 43  1  0  0  0  0
 46 43  1  0  0  0  0
 47  4  1  0  0  0  0
 48 47  1  0  0  0  0
 49 47  1  0  0  0  0
 50 47  1  0  0  0  0
 51 50  1  0  0  0  0
 52 50  1  0  0  0  0
 53 50  1  0  0  0  0
 54  4  1  0  0  0  0
 55 54  1  0  0  0  0
 56 54  1  0  0  0  0
 57 54  1  0  0  0  0
 58 57  1  0  0  0  0
 59 57  1  0  0  0  0
 60 57  1  0  0  0  0
 61  4  1  0  0  0  0
 62 61  1  0  0  0  0
 63 61  1  0  0  0  0
 64 61  1  0  0  0  0
 65 64  1  0  0  0  0
 66 64  1  0  0  0  0
 67 64  1  0  0  0  0
 68  7  1  0  0  0  0
 69 68  3  0  0  0  0
 70 71  3  0  0  0  0
 71  7  1  0  0  0  0
  5  7  1  0  0  0  0
  5 12  1  0  0  0  0
  7  8  1  0  0  0  0
  7 14  1  0  0  0  0
  8 10  1  0  0  0  0
  8 16  1  0  0  0  0
 10 12  1  0  0  0  0
 10 18  1  0  0  0  0
 12 20  1  0  0  0  0
 12 25  1  0  0  0  0
 14 16  1  0  0  0  0
 14 25  1  0  0  0  0
 16 18  1  0  0  0  0
 16 31  1  0  0  0  0
 18 20  1  0  0  0  0
 18 31  1  0  0  0  0
 20 25  1  0  0  0  0
 20 31  1  0  0  0  0
 25 31  1  0  0  0  0
M  END
$$$$
CODFOS

From CSD data. Using bond type 'Any'. No disordered atoms. Largest molecule.
111119  0  0  0  0  0  0  0  0999 V2000
   -1.0453   10.3325   14.3939 Pt  0  0  0  0  0  0  0  0  0  0  0  0
   -2.8255    9.7332   15.7890 P   0  0  0  0  0  0  0  0  0  0  0  0
   -1.9846   11.8938   12.9384 P   0  0  0  0  0  0  0  0  0  0  0  0
    0.9899    9.9414   16.5957 O   0  0  0  0  0  0  0  0  0  0  0  0
    0.7828    8.0155   15.3925 O   0  0  0  0  0  0  0  0  0  0  0  0
    1.8459   11.2454   13.3058 N   0  0  0  0  0  0  0  0  0  0  0  0
    1.0935    9.3312   12.3369 N   0  0  0  0  0  0  0  0  0  0  0  0
    2.0401   12.4411   14.0906 C   0  0  0  0  0  0  0  0  0  0  0  0
    2.1028   13.2164   13.4946 H   0  0  0  0  0  0  0  0  0  0  0  0
    2.8657   12.3597   14.6115 H   0  0  0  0  0  0  0  0  0  0  0  0
    1.2803   12.5580   14.7002 H   0  0  0  0  0  0  0  0  0  0  0  0
    2.7368   10.8862   12.3094 C   0  0  0  0  0  0  0  0  0  0  0  0
    3.8802   11.5164   11.8453 C   0  0  0  0  0  0  0  0  0  0  0  0
    4.1816   12.3302   12.2343 H   0  0  0  0  0  0  0  0  0  0  0  0
    4.5761   10.9231   10.7884 C   0  0  0  0  0  0  0  0  0  0  0  0
    5.3601   11.3404   10.4485 H   0  0  0  0  0  0  0  0  0  0  0  0
    4.1415    9.7469   10.2365 C   0  0  0  0  0  0  0  0  0  0  0  0
    4.6386    9.3593    9.5249 H   0  0  0  0  0  0  0  0  0  0  0  0
    2.9838    9.0989   10.6910 C   0  0  0  0  0  0  0  0  0  0  0  0
    2.6959    8.2808   10.3052 H   0  0  0  0  0  0  0  0  0  0  0  0
    2.2769    9.6892   11.7140 C   0  0  0  0  0  0  0  0  0  0  0  0
    0.3351    8.1535   11.9654 C   0  0  0  0  0  0  0  0  0  0  0  0
    0.9489    7.4064   11.8021 H   0  0  0  0  0  0  0  0  0  0  0  0
   -0.1785    8.3385   11.1514 H   0  0  0  0  0  0  0  0  0  0  0  0
   -0.2791    7.9183   12.6915 H   0  0  0  0  0  0  0  0  0  0  0  0
    1.7652    8.9391   17.3136 C   0  0  0  0  0  0  0  0  0  0  0  0
    1.9722    7.8517   16.2233 C   0  0  0  0  0  0  0  0  0  0  0  0
    0.9041    8.4642   18.4765 C   0  0  0  0  0  0  0  0  0  0  0  0
    0.0899    8.0411   18.1308 H   0  0  0  0  0  0  0  0  0  0  0  0
    0.6618    9.2306   19.0362 H   0  0  0  0  0  0  0  0  0  0  0  0
    1.4069    7.8147   19.0111 H   0  0  0  0  0  0  0  0  0  0  0  0
    3.0267    9.5990   17.8255 C   0  0  0  0  0  0  0  0  0  0  0  0
    2.7941   10.2751   18.4947 H   0  0  0  0  0  0  0  0  0  0  0  0
    3.4970   10.0266   17.0798 H   0  0  0  0  0  0  0  0  0  0  0  0
    3.6075    8.9229   18.2331 H   0  0  0  0  0  0  0  0  0  0  0  0
    1.9988    6.4196   16.7124 C   0  0  0  0  0  0  0  0  0  0  0  0
    2.1028    5.8159   15.9492 H   0  0  0  0  0  0  0  0  0  0  0  0
    1.1595    6.2183   17.1776 H   0  0  0  0  0  0  0  0  0  0  0  0
    2.7500    6.2997   17.3300 H   0  0  0  0  0  0  0  0  0  0  0  0
    3.1612    8.1446   15.3149 C   0  0  0  0  0  0  0  0  0  0  0  0
    3.1108    9.0708   15.0005 H   0  0  0  0  0  0  0  0  0  0  0  0
    3.1424    7.5351   14.5456 H   0  0  0  0  0  0  0  0  0  0  0  0
    3.9944    8.0130   15.8149 H   0  0  0  0  0  0  0  0  0  0  0  0
   -2.6038    8.0751   16.5370 C   0  0  0  0  0  0  0  0  0  0  0  0
   -2.1772    7.0276   15.7260 C   0  0  0  0  0  0  0  0  0  0  0  0
   -1.9800    7.1918   14.8117 H   0  0  0  0  0  0  0  0  0  0  0  0
   -2.0359    5.7434   16.2399 C   0  0  0  0  0  0  0  0  0  0  0  0
   -1.7569    5.0362   15.6716 H   0  0  0  0  0  0  0  0  0  0  0  0
   -2.2986    5.4934   17.5684 C   0  0  0  0  0  0  0  0  0  0  0  0
   -2.2057    4.6146   17.9169 H   0  0  0  0  0  0  0  0  0  0  0  0
   -2.6967    6.5231   18.3851 C   0  0  0  0  0  0  0  0  0  0  0  0
   -2.8692    6.3574   19.3046 H   0  0  0  0  0  0  0  0  0  0  0  0
   -2.8504    7.8103   17.8730 C   0  0  0  0  0  0  0  0  0  0  0  0
   -3.1258    8.5145   18.4470 H   0  0  0  0  0  0  0  0  0  0  0  0
   -4.5165    9.6138   15.0858 C   0  0  0  0  0  0  0  0  0  0  0  0
   -5.2129    8.4184   14.9594 C   0  0  0  0  0  0  0  0  0  0  0  0
   -4.8443    7.6150   15.3076 H   0  0  0  0  0  0  0  0  0  0  0  0
   -6.4477    8.3991   14.3213 C   0  0  0  0  0  0  0  0  0  0  0  0
   -6.9162    7.5765   14.2407 H   0  0  0  0  0  0  0  0  0  0  0  0
   -7.0052    9.5457   13.8035 C   0  0  0  0  0  0  0  0  0  0  0  0
   -7.8427    9.5147   13.3581 H   0  0  0  0  0  0  0  0  0  0  0  0
   -6.3287   10.7397   13.9395 C   0  0  0  0  0  0  0  0  0  0  0  0
   -6.7055   11.5386   13.5924 H   0  0  0  0  0  0  0  0  0  0  0  0
   -5.1036   10.7767   14.5792 C   0  0  0  0  0  0  0  0  0  0  0  0
   -4.6534   11.6082   14.6775 H   0  0  0  0  0  0  0  0  0  0  0  0
   -3.0615   10.7931   17.2574 C   0  0  0  0  0  0  0  0  0  0  0  0
   -4.3065   11.1229   17.7768 C   0  0  0  0  0  0  0  0  0  0  0  0
   -5.0942   10.8507   17.3232 H   0  0  0  0  0  0  0  0  0  0  0  0
   -4.4073   11.8523   18.9611 C   0  0  0  0  0  0  0  0  0  0  0  0
   -5.2600   12.0727   19.3160 H   0  0  0  0  0  0  0  0  0  0  0  0
   -3.2635   12.2503   19.6097 C   0  0  0  0  0  0  0  0  0  0  0  0
   -3.3275   12.7370   20.4238 H   0  0  0  0  0  0  0  0  0  0  0  0
   -2.0152   11.9470   19.0880 C   0  0  0  0  0  0  0  0  0  0  0  0
   -1.2300   12.2340   19.5412 H   0  0  0  0  0  0  0  0  0  0  0  0
   -1.9110   11.2294   17.9101 C   0  0  0  0  0  0  0  0  0  0  0  0
   -1.0543   11.0341   17.5461 H   0  0  0  0  0  0  0  0  0  0  0  0
   -2.8545   13.2192   13.8463 C   0  0  0  0  0  0  0  0  0  0  0  0
   -2.4066   13.4575   15.1413 C   0  0  0  0  0  0  0  0  0  0  0  0
   -1.7066   12.9249   15.5010 H   0  0  0  0  0  0  0  0  0  0  0  0
   -2.9696   14.4636   15.9121 C   0  0  0  0  0  0  0  0  0  0  0  0
   -2.6675   14.6041   16.8022 H   0  0  0  0  0  0  0  0  0  0  0  0
   -3.9529   15.2507   15.3959 C   0  0  0  0  0  0  0  0  0  0  0  0
   -4.3211   15.9534   15.9196 H   0  0  0  0  0  0  0  0  0  0  0  0
   -4.4175   15.0302   14.1083 C   0  0  0  0  0  0  0  0  0  0  0  0
   -5.1098   15.5747   13.7539 H   0  0  0  0  0  0  0  0  0  0  0  0
   -3.8730   14.0153   13.3381 C   0  0  0  0  0  0  0  0  0  0  0  0
   -4.1975   13.8644   12.4572 H   0  0  0  0  0  0  0  0  0  0  0  0
   -3.1380   11.2146   11.6942 C   0  0  0  0  0  0  0  0  0  0  0  0
   -3.4969    9.8786   11.8209 C   0  0  0  0  0  0  0  0  0  0  0  0
   -3.1078    9.3534   12.5095 H   0  0  0  0  0  0  0  0  0  0  0  0
   -4.4126    9.3031   10.9597 C   0  0  0  0  0  0  0  0  0  0  0  0
   -4.6484    8.3873   11.0604 H   0  0  0  0  0  0  0  0  0  0  0  0
   -4.9784   10.0473    9.9665 C   0  0  0  0  0  0  0  0  0  0  0  0
   -5.6304    9.6582    9.3952 H   0  0  0  0  0  0  0  0  0  0  0  0
   -4.6049   11.3700    9.7858 C   0  0  0  0  0  0  0  0  0  0  0  0
   -4.9827   11.8759    9.0768 H   0  0  0  0  0  0  0  0  0  0  0  0
   -3.6733   11.9573   10.6466 C   0  0  0  0  0  0  0  0  0  0  0  0
   -3.4067   12.8598   10.5168 H   0  0  0  0  0  0  0  0  0  0  0  0
   -0.8138   12.8790   11.9269 C   0  0  0  0  0  0  0  0  0  0  0  0
   -0.0965   12.2503   10.9178 C   0  0  0  0  0  0  0  0  0  0  0  0
   -0.2886   11.3433   10.7056 H   0  0  0  0  0  0  0  0  0  0  0  0
    0.8925   12.9190   10.2158 C   0  0  0  0  0  0  0  0  0  0  0  0
    1.3795   12.4707    9.5340 H   0  0  0  0  0  0  0  0  0  0  0  0
    1.1692   14.2343   10.5065 C   0  0  0  0  0  0  0  0  0  0  0  0
    1.8575   14.6900   10.0368 H   0  0  0  0  0  0  0  0  0  0  0  0
    0.4477   14.8897   11.4806 C   0  0  0  0  0  0  0  0  0  0  0  0
    0.6262   15.8040   11.6678 H   0  0  0  0  0  0  0  0  0  0  0  0
   -0.5395   14.2195   12.1899 C   0  0  0  0  0  0  0  0  0  0  0  0
   -1.0322   14.6781   12.8599 H   0  0  0  0  0  0  0  0  0  0  0  0
    0.7463   10.3225   13.3408 B   0  0  0  0  0  0  0  0  0  0  0  0
    0.3469    9.3209   15.5385 B   0  0  0  0  0  0  0  0  0  0  0  0
  1  2  1  0  0  0  0
  2 44  1  0  0  0  0
  3  1  1  0  0  0  0
  4 26  1  0  0  0  0
  5 27  1  0  0  0  0
  6  8  1  0  0  0  0
  7 21  1  0  0  0  0
  8  9  1  0  0  0  0
 10  8  1  0  0  0  0
 11  8  1  0  0  0  0
 12  6  1  0  0  0  0
 13 12  4  0  0  0  0
 14 13  1  0  0  0  0
 15 13  4  0  0  0  0
 16 15  1  0  0  0  0
 17 15  4  0  0  0  0
 18 17  1  0  0  0  0
 19 17  4  0  0  0  0
 20 19  1  0  0  0  0
 21 12  4  0  0  0  0
 22  7  1  0  0  0  0
 23 22  1  0  0  0  0
 24 22  1  0  0  0  0
 25 22  1  0  0  0  0
 26 27  1  0  0  0  0
 27 36  1  0  0  0  0
 28 26  1  0  0  0  0
 29 28  1  0  0  0  0
 30 28  1  0  0  0  0
 31 28  1  0  0  0  0
 32 26  1  0  0  0  0
 33 32  1  0  0  0  0
 34 32  1  0  0  0  0
 35 32  1  0  0  0  0
 36 37  1  0  0  0  0
 38 36  1  0  0  0  0
 39 36  1  0  0  0  0
 40 27  1  0  0  0  0
 41 40  1  0  0  0  0
 42 40  1  0  0  0  0
 43 40  1  0  0  0  0
 44 45  4  0  0  0  0
 45 46  1  0  0  0  0
 47 45  4  0  0  0  0
 48 47  1  0  0  0  0
 49 47  4  0  0  0  0
 50 49  1  0  0  0  0
 51 49  4  0  0  0  0
 52 51  1  0  0  0  0
 53 44  4  0  0  0  0
 54 53  1  0  0  0  0
 55  2  1  0  0  0  0
 56 55  4  0  0  0  0
 57 56  1  0  0  0  0
 58 56  4  0  0  0  0
 59 58  1  0  0  0  0
 60 58  4  0  0  0  0
 61 60  1  0  0  0  0
 62 60  4  0  0  0  0
 63 62  1  0  0  0  0
 64 55  4  0  0  0  0
 65 64  1  0  0  0  0
 66  2  1  0  0  0  0
 67 66  4  0  0  0  0
 68 67  1  0  0  0  0
 69 67  4  0  0  0  0
 70 69  1  0  0  0  0
 71 69  4  0  0  0  0
 72 71  1  0  0  0  0
 73 71  4  0  0  0  0
 74 73  1  0  0  0  0
 75 66  4  0  0  0  0
 76 75  1  0  0  0  0
 77  3  1  0  0  0  0
 78 77  4  0  0  0  0
 79 78  1  0  0  0  0
 80 78  4  0  0  0  0
 81 80  1  0  0  0  0
 82 80  4  0  0  0  0
 83 82  1  0  0  0  0
 84 82  4  0  0  0  0
 85 84  1  0  0  0  0
 86 77  4  0  0  0  0
 87 86  1  0  0  0  0
 88  3  1  0  0  0  0
 89 88  4  0  0  0  0
 90 89  1  0  0  0  0
 91 89  4  0  0  0  0
 92 91  1  0  0  0  0
 93 91  4  0  0  0  0
 94 93  1  0  0  0  0
 95 93  4  0  0  0  0
 96 95  1  0  0  0  0
 97 88  4  0  0  0  0
 98 97  1  0  0  0  0
 99  3  1  0  0  0  0
100 99  4  0  0  0  0
101100  1  0  0  0  0
102100  4  0  0  0  0
103102  1  0  0  0  0
104102  4  0  0  0  0
105104  1  0  0  0  0
106104  4  0  0  0  0
107106  1  0  0  0  0
108 99  4  0  0  0  0
109108  1  0  0  0  0
110  1  1  0  0  0  0
111  1  1  0  0  0  0
  4111  1  0  0  0  0
  5111  1  0  0  0  0
  6110  1  0  0  0  0
  7110  1  0  0  0  0
 19 21  4  0  0  0  0
 51 53  4  0  0  0  0
 62 64  4  0  0  0  0
 73 75  4  0  0  0  0
 84 86  4  0  0  0  0
 95 97  4  0  0  0  0
106108  4  0  0  0  0
M  END
$$$$
CODGIN

From CSD data. Using bond type 'Any'. Matching problem. No disordered atoms. Largest molecule.
176199  0  0  0  0  0  0  0  0999 V2000
    1.6174    9.0313    3.8761 C   0  0  0  0  0  0  0  0  0  0  0  0
    0.7818    9.0322    4.3860 H   0  0  0  0  0  0  0  0  0  0  0  0
    1.8083    8.1214    3.5657 H   0  0  0  0  0  0  0  0  0  0  0  0
    1.5299    9.6293    3.1034 H   0  0  0  0  0  0  0  0  0  0  0  0
    2.6512   10.7412    5.3429 C   0  0  0  0  0  0  0  0  0  0  0  0
    1.7043   11.7419    5.2613 C   0  0  0  0  0  0  0  0  0  0  0  0
    0.9378   11.6471    4.7085 H   0  0  0  0  0  0  0  0  0  0  0  0
    1.9063   12.8933    6.0131 C   0  0  0  0  0  0  0  0  0  0  0  0
    1.2637   13.5930    5.9721 H   0  0  0  0  0  0  0  0  0  0  0  0
    3.0093   13.0441    6.8104 C   0  0  0  0  0  0  0  0  0  0  0  0
    3.1164   13.8436    7.3116 H   0  0  0  0  0  0  0  0  0  0  0  0
    3.9748   12.0472    6.8986 C   0  0  0  0  0  0  0  0  0  0  0  0
    4.7427   12.1526    7.4491 H   0  0  0  0  0  0  0  0  0  0  0  0
    3.7778   10.8877    6.1533 C   0  0  0  0  0  0  0  0  0  0  0  0
    5.8315    9.6535    6.6936 C   0  0  0  0  0  0  0  0  0  0  0  0
    6.3965   10.4072    6.4226 H   0  0  0  0  0  0  0  0  0  0  0  0
    6.2665    8.8121    6.4415 H   0  0  0  0  0  0  0  0  0  0  0  0
    5.7019    9.6750    7.6649 H   0  0  0  0  0  0  0  0  0  0  0  0
    5.6204    5.4786    0.4673 C   0  0  0  0  0  0  0  0  0  0  0  0
    6.2741    5.8856   -0.1375 H   0  0  0  0  0  0  0  0  0  0  0  0
    4.8712    6.0970    0.6022 H   0  0  0  0  0  0  0  0  0  0  0  0
    5.2889    4.6436    0.0759 H   0  0  0  0  0  0  0  0  0  0  0  0
    7.4607    4.5248    1.7902 C   0  0  0  0  0  0  0  0  0  0  0  0
    8.2033    3.9293    0.7798 C   0  0  0  0  0  0  0  0  0  0  0  0
    7.8943    3.9223   -0.1185 H   0  0  0  0  0  0  0  0  0  0  0  0
    9.4181    3.3418    1.1273 C   0  0  0  0  0  0  0  0  0  0  0  0
    9.9489    2.9308    0.4552 H   0  0  0  0  0  0  0  0  0  0  0  0
    9.8602    3.3499    2.4294 C   0  0  0  0  0  0  0  0  0  0  0  0
   10.6894    2.9352    2.6364 H   0  0  0  0  0  0  0  0  0  0  0  0
    9.1327    3.9463    3.4491 C   0  0  0  0  0  0  0  0  0  0  0  0
    9.4487    3.9485    4.3457 H   0  0  0  0  0  0  0  0  0  0  0  0
    7.9217    4.5414    3.1101 C   0  0  0  0  0  0  0  0  0  0  0  0
    7.2097    5.3764    5.3116 C   0  0  0  0  0  0  0  0  0  0  0  0
    7.2670    4.4976    5.7398 H   0  0  0  0  0  0  0  0  0  0  0  0
    6.4638    5.8791    5.6995 H   0  0  0  0  0  0  0  0  0  0  0  0
    8.0457    5.8660    5.4600 H   0  0  0  0  0  0  0  0  0  0  0  0
    7.4245    8.3467    1.3789 C   0  0  0  0  0  0  0  0  0  0  0  0
    7.5337    8.4208   -0.0090 C   0  0  0  0  0  0  0  0  0  0  0  0
    6.8616    8.8622   -0.5145 H   0  0  0  0  0  0  0  0  0  0  0  0
    8.6225    7.8501   -0.6541 C   0  0  0  0  0  0  0  0  0  0  0  0
    8.6914    7.9056   -1.6003 H   0  0  0  0  0  0  0  0  0  0  0  0
    9.6059    7.2018    0.0661 C   0  0  0  0  0  0  0  0  0  0  0  0
   10.3482    6.8161   -0.3841 H   0  0  0  0  0  0  0  0  0  0  0  0
    9.5103    7.1135    1.4417 C   0  0  0  0  0  0  0  0  0  0  0  0
   10.1845    6.6679    1.9393 H   0  0  0  0  0  0  0  0  0  0  0  0
    8.4239    7.6799    2.0908 C   0  0  0  0  0  0  0  0  0  0  0  0
    8.3578    7.6136    3.0370 H   0  0  0  0  0  0  0  0  0  0  0  0
    4.8331    9.5907    1.0707 C   0  0  0  0  0  0  0  0  0  0  0  0
    5.0823   10.7038    0.2558 C   0  0  0  0  0  0  0  0  0  0  0  0
    5.8855   11.2004    0.3675 H   0  0  0  0  0  0  0  0  0  0  0  0
    4.1659   11.0868   -0.7129 C   0  0  0  0  0  0  0  0  0  0  0  0
    4.3495   11.8323   -1.2708 H   0  0  0  0  0  0  0  0  0  0  0  0
    2.9910   10.3861   -0.8654 C   0  0  0  0  0  0  0  0  0  0  0  0
    2.3622   10.6578   -1.5221 H   0  0  0  0  0  0  0  0  0  0  0  0
    2.7217    9.2850   -0.0633 C   0  0  0  0  0  0  0  0  0  0  0  0
    1.9124    8.8034   -0.1754 H   0  0  0  0  0  0  0  0  0  0  0  0
    3.6378    8.8901    0.9016 C   0  0  0  0  0  0  0  0  0  0  0  0
    3.4499    8.1388    1.4509 H   0  0  0  0  0  0  0  0  0  0  0  0
    6.6953   10.5750    3.0155 C   0  0  0  0  0  0  0  0  0  0  0  0
    8.0499   10.8613    3.0463 C   0  0  0  0  0  0  0  0  0  0  0  0
    8.6684   10.2590    2.6530 H   0  0  0  0  0  0  0  0  0  0  0  0
    8.5108   12.0280    3.6511 C   0  0  0  0  0  0  0  0  0  0  0  0
    9.4410   12.2223    3.6582 H   0  0  0  0  0  0  0  0  0  0  0  0
    7.6311   12.8878    4.2312 C   0  0  0  0  0  0  0  0  0  0  0  0
    7.9509   13.6758    4.6563 H   0  0  0  0  0  0  0  0  0  0  0  0
    6.2695   12.6222    4.2051 C   0  0  0  0  0  0  0  0  0  0  0  0
    5.6591   13.2313    4.6018 H   0  0  0  0  0  0  0  0  0  0  0  0
    5.7999   11.4627    3.5963 C   0  0  0  0  0  0  0  0  0  0  0  0
    4.8681   11.2788    3.5776 H   0  0  0  0  0  0  0  0  0  0  0  0
    4.5513    9.7498    6.0342 N   0  0  0  0  0  0  0  0  0  0  0  0
    2.7088    9.4950    4.7277 N   0  0  0  0  0  0  0  0  0  0  0  0
    6.2522    5.1979    1.7423 N   0  0  0  0  0  0  0  0  0  0  0  0
    6.9926    5.2077    3.8853 N   0  0  0  0  0  0  0  0  0  0  0  0
    5.0052    7.5425    3.7051 Cu  0  0  0  0  0  0  0  0  0  0  0  0
    3.8248    5.4477    3.5543 Cu  0  0  0  0  0  0  0  0  0  0  0  0
    3.9666    6.8539    5.7176 Cu  0  0  0  0  0  0  0  0  0  0  0  0
    6.0220    9.0178    2.3291 P   0  0  0  0  0  0  0  0  0  0  0  0
    3.9216    8.8106    5.1286 B   0  0  0  0  0  0  0  0  0  0  0  0
    5.8701    5.6592    3.0695 B   0  0  0  0  0  0  0  0  0  0  0  0
    3.8248    5.4477    6.9382 O   0  0  0  0  0  0  0  0  0  0  0  0
    3.5876    5.3648    8.3271 C   0  0  0  0  0  0  0  0  0  0  0  0
    3.9257    4.2426    9.9243 H   0  0  0  0  0  0  0  0  0  0  0  0
    4.2133    3.4909    8.5421 H   0  0  0  0  0  0  0  0  0  0  0  0
    4.3357    4.2121    8.9570 C   0  0  0  0  0  0  0  0  0  0  0  0
    5.2980    4.3342    8.8219 H   0  0  0  0  0  0  0  0  0  0  0  0
    2.0929    5.1295    8.4496 C   0  0  0  0  0  0  0  0  0  0  0  0
    1.6110    5.8878    8.0585 H   0  0  0  0  0  0  0  0  0  0  0  0
    1.8527    5.0423    9.3956 H   0  0  0  0  0  0  0  0  0  0  0  0
    1.8512    4.3080    7.9707 H   0  0  0  0  0  0  0  0  0  0  0  0
    4.0619    5.5305    8.3271 C   0  0  0  0  0  0  0  0  0  0  0  0
    3.7238    6.6527    9.9243 H   0  0  0  0  0  0  0  0  0  0  0  0
    3.4362    7.4044    8.5421 H   0  0  0  0  0  0  0  0  0  0  0  0
    3.3138    6.6832    8.9570 C   0  0  0  0  0  0  0  0  0  0  0  0
    2.3515    6.5611    8.8219 H   0  0  0  0  0  0  0  0  0  0  0  0
    5.5566    5.7658    8.4496 C   0  0  0  0  0  0  0  0  0  0  0  0
    6.0385    5.0075    8.0585 H   0  0  0  0  0  0  0  0  0  0  0  0
    5.7968    5.8530    9.3956 H   0  0  0  0  0  0  0  0  0  0  0  0
    5.7983    6.5873    7.9707 H   0  0  0  0  0  0  0  0  0  0  0  0
    6.0321    1.8640    3.8761 C   0  0  0  0  0  0  0  0  0  0  0  0
    6.8677    1.8631    4.3860 H   0  0  0  0  0  0  0  0  0  0  0  0
    5.8412    2.7739    3.5657 H   0  0  0  0  0  0  0  0  0  0  0  0
    6.1196    1.2660    3.1034 H   0  0  0  0  0  0  0  0  0  0  0  0
    4.9983    0.1541    5.3429 C   0  0  0  0  0  0  0  0  0  0  0  0
    5.9452   -0.8466    5.2613 C   0  0  0  0  0  0  0  0  0  0  0  0
    6.7117   -0.7518    4.7085 H   0  0  0  0  0  0  0  0  0  0  0  0
    5.7432   -1.9980    6.0131 C   0  0  0  0  0  0  0  0  0  0  0  0
    6.3858   -2.6977    5.9721 H   0  0  0  0  0  0  0  0  0  0  0  0
    4.6402   -2.1488    6.8104 C   0  0  0  0  0  0  0  0  0  0  0  0
    4.5331   -2.9483    7.3116 H   0  0  0  0  0  0  0  0  0  0  0  0
    3.6747   -1.1519    6.8986 C   0  0  0  0  0  0  0  0  0  0  0  0
    2.9068   -1.2573    7.4491 H   0  0  0  0  0  0  0  0  0  0  0  0
    3.8717    0.0076    6.1533 C   0  0  0  0  0  0  0  0  0  0  0  0
    1.8180    1.2418    6.6936 C   0  0  0  0  0  0  0  0  0  0  0  0
    1.2530    0.4881    6.4226 H   0  0  0  0  0  0  0  0  0  0  0  0
    1.3830    2.0832    6.4415 H   0  0  0  0  0  0  0  0  0  0  0  0
    1.9476    1.2203    7.6649 H   0  0  0  0  0  0  0  0  0  0  0  0
    2.0291    5.4167    0.4673 C   0  0  0  0  0  0  0  0  0  0  0  0
    1.3754    5.0097   -0.1375 H   0  0  0  0  0  0  0  0  0  0  0  0
    2.7783    4.7983    0.6022 H   0  0  0  0  0  0  0  0  0  0  0  0
    2.3606    6.2517    0.0759 H   0  0  0  0  0  0  0  0  0  0  0  0
    0.1888    6.3705    1.7902 C   0  0  0  0  0  0  0  0  0  0  0  0
   -0.5538    6.9660    0.7798 C   0  0  0  0  0  0  0  0  0  0  0  0
   -0.2448    6.9730   -0.1185 H   0  0  0  0  0  0  0  0  0  0  0  0
   -1.7686    7.5535    1.1273 C   0  0  0  0  0  0  0  0  0  0  0  0
   -2.2994    7.9645    0.4552 H   0  0  0  0  0  0  0  0  0  0  0  0
   -2.2107    7.5454    2.4294 C   0  0  0  0  0  0  0  0  0  0  0  0
   -3.0399    7.9601    2.6364 H   0  0  0  0  0  0  0  0  0  0  0  0
   -1.4832    6.9490    3.4491 C   0  0  0  0  0  0  0  0  0  0  0  0
   -1.7992    6.9468    4.3457 H   0  0  0  0  0  0  0  0  0  0  0  0
   -0.2722    6.3539    3.1101 C   0  0  0  0  0  0  0  0  0  0  0  0
    0.4398    5.5189    5.3116 C   0  0  0  0  0  0  0  0  0  0  0  0
    0.3825    6.3977    5.7398 H   0  0  0  0  0  0  0  0  0  0  0  0
    1.1857    5.0162    5.6995 H   0  0  0  0  0  0  0  0  0  0  0  0
   -0.3962    5.0293    5.4600 H   0  0  0  0  0  0  0  0  0  0  0  0
    0.2250    2.5486    1.3789 C   0  0  0  0  0  0  0  0  0  0  0  0
    0.1158    2.4745   -0.0090 C   0  0  0  0  0  0  0  0  0  0  0  0
    0.7879    2.0331   -0.5145 H   0  0  0  0  0  0  0  0  0  0  0  0
   -0.9730    3.0452   -0.6541 C   0  0  0  0  0  0  0  0  0  0  0  0
   -1.0419    2.9897   -1.6003 H   0  0  0  0  0  0  0  0  0  0  0  0
   -1.9564    3.6935    0.0661 C   0  0  0  0  0  0  0  0  0  0  0  0
   -2.6987    4.0792   -0.3841 H   0  0  0  0  0  0  0  0  0  0  0  0
   -1.8608    3.7818    1.4417 C   0  0  0  0  0  0  0  0  0  0  0  0
   -2.5350    4.2274    1.9393 H   0  0  0  0  0  0  0  0  0  0  0  0
   -0.7744    3.2154    2.0908 C   0  0  0  0  0  0  0  0  0  0  0  0
   -0.7083    3.2817    3.0370 H   0  0  0  0  0  0  0  0  0  0  0  0
    2.8164    1.3046    1.0707 C   0  0  0  0  0  0  0  0  0  0  0  0
    2.5672    0.1915    0.2558 C   0  0  0  0  0  0  0  0  0  0  0  0
    1.7640   -0.3051    0.3675 H   0  0  0  0  0  0  0  0  0  0  0  0
    3.4836   -0.1915   -0.7129 C   0  0  0  0  0  0  0  0  0  0  0  0
    3.3000   -0.9370   -1.2708 H   0  0  0  0  0  0  0  0  0  0  0  0
    4.6585    0.5092   -0.8654 C   0  0  0  0  0  0  0  0  0  0  0  0
    5.2873    0.2375   -1.5221 H   0  0  0  0  0  0  0  0  0  0  0  0
    4.9278    1.6103   -0.0633 C   0  0  0  0  0  0  0  0  0  0  0  0
    5.7371    2.0919   -0.1754 H   0  0  0  0  0  0  0  0  0  0  0  0
    4.0117    2.0052    0.9016 C   0  0  0  0  0  0  0  0  0  0  0  0
    4.1996    2.7565    1.4509 H   0  0  0  0  0  0  0  0  0  0  0  0
    0.9542    0.3203    3.0155 C   0  0  0  0  0  0  0  0  0  0  0  0
   -0.4004    0.0340    3.0463 C   0  0  0  0  0  0  0  0  0  0  0  0
   -1.0189    0.6363    2.6530 H   0  0  0  0  0  0  0  0  0  0  0  0
   -0.8613   -1.1327    3.6511 C   0  0  0  0  0  0  0  0  0  0  0  0
   -1.7915   -1.3270    3.6582 H   0  0  0  0  0  0  0  0  0  0  0  0
    0.0184   -1.9925    4.2312 C   0  0  0  0  0  0  0  0  0  0  0  0
   -0.3014   -2.7805    4.6563 H   0  0  0  0  0  0  0  0  0  0  0  0
    1.3800   -1.7269    4.2051 C   0  0  0  0  0  0  0  0  0  0  0  0
    1.9904   -2.3360    4.6018 H   0  0  0  0  0  0  0  0  0  0  0  0
    1.8496   -0.5674    3.5963 C   0  0  0  0  0  0  0  0  0  0  0  0
    2.7814   -0.3835    3.5776 H   0  0  0  0  0  0  0  0  0  0  0  0
    3.0982    1.1455    6.0342 N   0  0  0  0  0  0  0  0  0  0  0  0
    4.9407    1.4003    4.7277 N   0  0  0  0  0  0  0  0  0  0  0  0
    1.3973    5.6974    1.7423 N   0  0  0  0  0  0  0  0  0  0  0  0
    0.6569    5.6876    3.8853 N   0  0  0  0  0  0  0  0  0  0  0  0
    2.6443    3.3528    3.7051 Cu  0  0  0  0  0  0  0  0  0  0  0  0
    3.6829    4.0414    5.7176 Cu  0  0  0  0  0  0  0  0  0  0  0  0
    1.6275    1.8775    2.3291 P   0  0  0  0  0  0  0  0  0  0  0  0
    3.7279    2.0847    5.1286 B   0  0  0  0  0  0  0  0  0  0  0  0
    1.7794    5.2361    3.0695 B   0  0  0  0  0  0  0  0  0  0  0  0
  1  2  1  0  0  0  0
  3  1  1  0  0  0  0
  4  1  1  0  0  0  0
  5  6  1  0  0  0  0
  6  7  1  0  0  0  0
  8  6  1  0  0  0  0
  9  8  1  0  0  0  0
 10  8  1  0  0  0  0
 11 10  1  0  0  0  0
 12 10  1  0  0  0  0
 13 12  1  0  0  0  0
 14  5  1  0  0  0  0
 15 16  1  0  0  0  0
 17 15  1  0  0  0  0
 18 15  1  0  0  0  0
 19 20  1  0  0  0  0
 21 19  1  0  0  0  0
 22 19  1  0  0  0  0
 23 24  1  0  0  0  0
 24 25  1  0  0  0  0
 26 24  1  0  0  0  0
 27 26  1  0  0  0  0
 28 26  1  0  0  0  0
 29 28  1  0  0  0  0
 30 28  1  0  0  0  0
 31 30  1  0  0  0  0
 32 23  1  0  0  0  0
 33 34  1  0  0  0  0
 35 33  1  0  0  0  0
 36 33  1  0  0  0  0
 37 38  1  0  0  0  0
 38 39  1  0  0  0  0
 40 38  1  0  0  0  0
 41 40  1  0  0  0  0
 42 40  1  0  0  0  0
 43 42  1  0  0  0  0
 44 42  1  0  0  0  0
 45 44  1  0  0  0  0
 46 37  1  0  0  0  0
 47 46  1  0  0  0  0
 48 49  1  0  0  0  0
 49 50  1  0  0  0  0
 51 49  1  0  0  0  0
 52 51  1  0  0  0  0
 53 51  1  0  0  0  0
 54 53  1  0  0  0  0
 55 53  1  0  0  0  0
 56 55  1  0  0  0  0
 57 48  1  0  0  0  0
 58 57  1  0  0  0  0
 59 60  1  0  0  0  0
 60 61  1  0  0  0  0
 62 60  1  0  0  0  0
 63 62  1  0  0  0  0
 64 62  1  0  0  0  0
 65 64  1  0  0  0  0
 66 64  1  0  0  0  0
 67 66  1  0  0  0  0
 68 59  1  0  0  0  0
 69 68  1  0  0  0  0
 70 14  1  0  0  0  0
 71  1  1  0  0  0  0
 72 19  1  0  0  0  0
 73 32  1  0  0  0  0
 74 75  1  0  0  0  0
 75 76  1  0  0  0  0
 76 74  1  0  0  0  0
 77 37  1  0  0  0  0
 78 70  1  0  0  0  0
 79 72  1  0  0  0  0
 80 76  1  0  0  0  0
 81 80  1  0  0  0  0
 82 84  1  0  0  0  0
 83 84  1  0  0  0  0
 84 81  1  0  0  0  0
 85 84  1  0  0  0  0
 86 81  1  0  0  0  0
 87 86  1  0  0  0  0
 88 86  1  0  0  0  0
 89 86  1  0  0  0  0
 90 80  1  0  0  0  0
 91 93  1  0  0  0  0
 92 93  1  0  0  0  0
 93 81  1  0  0  0  0
 94 93  1  0  0  0  0
 95 90  1  0  0  0  0
 96 95  1  0  0  0  0
 97 95  1  0  0  0  0
 98 95  1  0  0  0  0
 99100  1  0  0  0  0
101 99  1  0  0  0  0
102 99  1  0  0  0  0
103104  1  0  0  0  0
104105  1  0  0  0  0
106104  1  0  0  0  0
107106  1  0  0  0  0
108106  1  0  0  0  0
109108  1  0  0  0  0
110108  1  0  0  0  0
111110  1  0  0  0  0
112103  1  0  0  0  0
113114  1  0  0  0  0
115113  1  0  0  0  0
116113  1  0  0  0  0
117118  1  0  0  0  0
119117  1  0  0  0  0
120117  1  0  0  0  0
121122  1  0  0  0  0
122123  1  0  0  0  0
124122  1  0  0  0  0
125124  1  0  0  0  0
126124  1  0  0  0  0
127126  1  0  0  0  0
128126  1  0  0  0  0
129128  1  0  0  0  0
130121  1  0  0  0  0
131132  1  0  0  0  0
133131  1  0  0  0  0
134131  1  0  0  0  0
135136  1  0  0  0  0
136137  1  0  0  0  0
138136  1  0  0  0  0
139138  1  0  0  0  0
140138  1  0  0  0  0
141140  1  0  0  0  0
142140  1  0  0  0  0
143142  1  0  0  0  0
144135  1  0  0  0  0
145144  1  0  0  0  0
146147  1  0  0  0  0
147148  1  0  0  0  0
149147  1  0  0  0  0
150149  1  0  0  0  0
151149  1  0  0  0  0
152151  1  0  0  0  0
153151  1  0  0  0  0
154153  1  0  0  0  0
155146  1  0  0  0  0
156155  1  0  0  0  0
157158  1  0  0  0  0
158159  1  0  0  0  0
160158  1  0  0  0  0
161160  1  0  0  0  0
162160  1  0  0  0  0
163162  1  0  0  0  0
164162  1  0  0  0  0
165164  1  0  0  0  0
166157  1  0  0  0  0
167166  1  0  0  0  0
168112  1  0  0  0  0
169 99  1  0  0  0  0
170117  1  0  0  0  0
171130  1  0  0  0  0
172 75  1  0  0  0  0
173 75  1  0  0  0  0
174135  1  0  0  0  0
175168  1  0  0  0  0
176 75  1  0  0  0  0
  5 71  1  0  0  0  0
 12 14  1  0  0  0  0
 15 70  1  0  0  0  0
 23 72  1  0  0  0  0
 30 32  1  0  0  0  0
 33 73  1  0  0  0  0
 44 46  1  0  0  0  0
 48 77  1  0  0  0  0
 55 57  1  0  0  0  0
 59 77  1  0  0  0  0
 66 68  1  0  0  0  0
 71 78  1  0  0  0  0
 73 79  1  0  0  0  0
 74 77  1  0  0  0  0
 74 78  1  0  0  0  0
 74 79  1  0  0  0  0
 75 79  1  0  0  0  0
 76 78  1  0  0  0  0
 76173  1  0  0  0  0
 80173  1  0  0  0  0
 84 90  1  0  0  0  0
 90 93  1  0  0  0  0
103169  1  0  0  0  0
110112  1  0  0  0  0
113168  1  0  0  0  0
121170  1  0  0  0  0
128130  1  0  0  0  0
131171  1  0  0  0  0
142144  1  0  0  0  0
146174  1  0  0  0  0
153155  1  0  0  0  0
157174  1  0  0  0  0
164166  1  0  0  0  0
169175  1  0  0  0  0
170176  1  0  0  0  0
171176  1  0  0  0  0
172173  1  0  0  0  0
172174  1  0  0  0  0
172175  1  0  0  0  0
172176  1  0  0  0  0
173175  1  0  0  0  0
M  END
$$$$
CODGOT

From CSD data. Using bond type 'Any'. No disordered atoms. Largest molecule.
131141  0  0  0  0  0  0  0  0999 V2000
   10.9903    0.3954    9.1739 C   0  0  0  0  0  0  0  0  0  0  0  0
    9.9426   -0.5077    9.2824 C   0  0  0  0  0  0  0  0  0  0  0  0
    9.1108   -0.2459    9.6607 H   0  0  0  0  0  0  0  0  0  0  0  0
   10.1403   -1.8127    8.8224 C   0  0  0  0  0  0  0  0  0  0  0  0
    9.4295   -2.4392    8.8811 H   0  0  0  0  0  0  0  0  0  0  0  0
   11.3542   -2.2087    8.2832 C   0  0  0  0  0  0  0  0  0  0  0  0
   11.4737   -3.1080    8.0014 H   0  0  0  0  0  0  0  0  0  0  0  0
   12.4092   -1.2910    8.1513 C   0  0  0  0  0  0  0  0  0  0  0  0
   13.2437   -1.5599    7.7854 H   0  0  0  0  0  0  0  0  0  0  0  0
   12.2059    0.0185    8.5664 C   0  0  0  0  0  0  0  0  0  0  0  0
    9.9264    2.4221   10.1079 C   0  0  0  0  0  0  0  0  0  0  0  0
    9.1477    2.2779    9.5132 H   0  0  0  0  0  0  0  0  0  0  0  0
   10.1133    3.3933   10.1242 H   0  0  0  0  0  0  0  0  0  0  0  0
    9.5568    1.9742   11.5104 C   0  0  0  0  0  0  0  0  0  0  0  0
    8.2708    1.5340   11.8074 C   0  0  0  0  0  0  0  0  0  0  0  0
    7.6173    1.4930   11.1180 H   0  0  0  0  0  0  0  0  0  0  0  0
    7.9293    1.1525   13.1049 C   0  0  0  0  0  0  0  0  0  0  0  0
    7.0494    0.8478   13.2917 H   0  0  0  0  0  0  0  0  0  0  0  0
    8.8595    1.2167   14.1138 C   0  0  0  0  0  0  0  0  0  0  0  0
    8.6251    0.9639   14.9984 H   0  0  0  0  0  0  0  0  0  0  0  0
   10.1533    1.6557   13.8262 C   0  0  0  0  0  0  0  0  0  0  0  0
   10.8013    1.7035   14.5208 H   0  0  0  0  0  0  0  0  0  0  0  0
   10.4993    2.0226   12.5385 C   0  0  0  0  0  0  0  0  0  0  0  0
   11.3862    2.3094   12.3524 H   0  0  0  0  0  0  0  0  0  0  0  0
   14.2792    1.1236    7.7463 C   0  0  0  0  0  0  0  0  0  0  0  0
   14.7082    0.2361    7.8451 H   0  0  0  0  0  0  0  0  0  0  0  0
   14.8961    1.8019    8.1208 H   0  0  0  0  0  0  0  0  0  0  0  0
   14.0661    1.4092    6.2715 C   0  0  0  0  0  0  0  0  0  0  0  0
   13.5539    0.4422    5.4045 C   0  0  0  0  0  0  0  0  0  0  0  0
   13.3662   -0.4288    5.7328 H   0  0  0  0  0  0  0  0  0  0  0  0
   13.3137    0.7367    4.0669 C   0  0  0  0  0  0  0  0  0  0  0  0
   12.9660    0.0688    3.4889 H   0  0  0  0  0  0  0  0  0  0  0  0
   13.5817    2.0090    3.5763 C   0  0  0  0  0  0  0  0  0  0  0  0
   13.4227    2.2110    2.6619 H   0  0  0  0  0  0  0  0  0  0  0  0
   14.0824    2.9802    4.4256 C   0  0  0  0  0  0  0  0  0  0  0  0
   14.2603    3.8536    4.0964 H   0  0  0  0  0  0  0  0  0  0  0  0
   14.3254    2.6782    5.7662 C   0  0  0  0  0  0  0  0  0  0  0  0
   14.6727    3.3500    6.3421 H   0  0  0  0  0  0  0  0  0  0  0  0
   14.8550    2.1196   12.6068 C   0  0  0  0  0  0  0  0  0  0  0  0
   15.8074    1.7326   11.4467 C   0  0  0  0  0  0  0  0  0  0  0  0
   15.4180    3.2479   13.4754 C   0  0  0  0  0  0  0  0  0  0  0  0
   15.7371    3.9736   12.9002 H   0  0  0  0  0  0  0  0  0  0  0  0
   16.1629    2.9054   14.0134 H   0  0  0  0  0  0  0  0  0  0  0  0
   14.7139    3.5860   14.0678 H   0  0  0  0  0  0  0  0  0  0  0  0
   14.3962    0.9674   13.4840 C   0  0  0  0  0  0  0  0  0  0  0  0
   13.8295    1.3121   14.2065 H   0  0  0  0  0  0  0  0  0  0  0  0
   15.1775    0.5173   13.8677 H   0  0  0  0  0  0  0  0  0  0  0  0
   13.8852    0.3285   12.9441 H   0  0  0  0  0  0  0  0  0  0  0  0
   17.2857    1.9866   11.7027 C   0  0  0  0  0  0  0  0  0  0  0  0
   17.8003    1.7507   10.9038 H   0  0  0  0  0  0  0  0  0  0  0  0
   17.5850    1.4380   12.4577 H   0  0  0  0  0  0  0  0  0  0  0  0
   17.4230    2.9349   11.9116 H   0  0  0  0  0  0  0  0  0  0  0  0
   15.6019    0.3106   10.9345 C   0  0  0  0  0  0  0  0  0  0  0  0
   14.6469    0.1534   10.7826 H   0  0  0  0  0  0  0  0  0  0  0  0
   15.9353   -0.3265   11.5991 H   0  0  0  0  0  0  0  0  0  0  0  0
   16.0915    0.1928   10.0943 H   0  0  0  0  0  0  0  0  0  0  0  0
   15.8168    5.9753   10.5180 C   0  0  0  0  0  0  0  0  0  0  0  0
   16.4940    6.6085   11.5626 C   0  0  0  0  0  0  0  0  0  0  0  0
   16.0115    7.1229   12.1979 H   0  0  0  0  0  0  0  0  0  0  0  0
   17.8744    6.4867   11.6725 C   0  0  0  0  0  0  0  0  0  0  0  0
   18.3289    6.9065   12.3927 H   0  0  0  0  0  0  0  0  0  0  0  0
   18.5913    5.7589   10.7412 C   0  0  0  0  0  0  0  0  0  0  0  0
   19.5355    5.6908   10.8142 H   0  0  0  0  0  0  0  0  0  0  0  0
   17.9258    5.1286    9.6984 C   0  0  0  0  0  0  0  0  0  0  0  0
   18.4164    4.6325    9.0531 H   0  0  0  0  0  0  0  0  0  0  0  0
   16.5424    5.2237    9.5976 C   0  0  0  0  0  0  0  0  0  0  0  0
   16.0884    4.7722    8.8951 H   0  0  0  0  0  0  0  0  0  0  0  0
   13.2766    6.6004   11.8400 C   0  0  0  0  0  0  0  0  0  0  0  0
   12.4699    5.6554   12.4737 C   0  0  0  0  0  0  0  0  0  0  0  0
   12.3068    4.8175   12.0556 H   0  0  0  0  0  0  0  0  0  0  0  0
   11.9020    5.9291   13.7140 C   0  0  0  0  0  0  0  0  0  0  0  0
   11.3578    5.2758   14.1381 H   0  0  0  0  0  0  0  0  0  0  0  0
   12.1237    7.1447   14.3335 C   0  0  0  0  0  0  0  0  0  0  0  0
   11.7425    7.3236   15.1845 H   0  0  0  0  0  0  0  0  0  0  0  0
   12.9053    8.1010   13.7047 C   0  0  0  0  0  0  0  0  0  0  0  0
   13.0507    8.9425   14.1223 H   0  0  0  0  0  0  0  0  0  0  0  0
   13.4773    7.8346   12.4653 C   0  0  0  0  0  0  0  0  0  0  0  0
   14.0085    8.4979   12.0398 H   0  0  0  0  0  0  0  0  0  0  0  0
   14.0653    7.8435    9.3881 C   0  0  0  0  0  0  0  0  0  0  0  0
   15.1827    8.2591    8.6581 C   0  0  0  0  0  0  0  0  0  0  0  0
   15.9488    7.6993    8.6107 H   0  0  0  0  0  0  0  0  0  0  0  0
   15.1831    9.4827    8.0007 C   0  0  0  0  0  0  0  0  0  0  0  0
   15.9447    9.7470    7.4957 H   0  0  0  0  0  0  0  0  0  0  0  0
   14.0860   10.3197    8.0737 C   0  0  0  0  0  0  0  0  0  0  0  0
   14.0928   11.1594    7.6309 H   0  0  0  0  0  0  0  0  0  0  0  0
   12.9761    9.9193    8.7996 C   0  0  0  0  0  0  0  0  0  0  0  0
   12.2210   10.4926    8.8565 H   0  0  0  0  0  0  0  0  0  0  0  0
   12.9549    8.6909    9.4433 C   0  0  0  0  0  0  0  0  0  0  0  0
   12.1804    8.4232    9.9240 H   0  0  0  0  0  0  0  0  0  0  0  0
   10.3266    4.0137    6.9853 C   0  0  0  0  0  0  0  0  0  0  0  0
   10.7284    2.7455    6.5549 C   0  0  0  0  0  0  0  0  0  0  0  0
   11.6510    2.5199    6.5511 H   0  0  0  0  0  0  0  0  0  0  0  0
    9.7889    1.8147    6.1321 C   0  0  0  0  0  0  0  0  0  0  0  0
   10.0696    0.9481    5.8593 H   0  0  0  0  0  0  0  0  0  0  0  0
    8.4433    2.1469    6.1067 C   0  0  0  0  0  0  0  0  0  0  0  0
    7.8000    1.5068    5.8259 H   0  0  0  0  0  0  0  0  0  0  0  0
    8.0399    3.4131    6.4901 C   0  0  0  0  0  0  0  0  0  0  0  0
    7.1206    3.6490    6.4475 H   0  0  0  0  0  0  0  0  0  0  0  0
    8.9743    4.3430    6.9401 C   0  0  0  0  0  0  0  0  0  0  0  0
    8.6876    5.2050    7.2165 H   0  0  0  0  0  0  0  0  0  0  0  0
   10.6411    6.5784    8.2368 C   0  0  0  0  0  0  0  0  0  0  0  0
   10.4148    7.7018    7.4411 C   0  0  0  0  0  0  0  0  0  0  0  0
   10.7227    7.7150    6.5423 H   0  0  0  0  0  0  0  0  0  0  0  0
    9.7409    8.8030    7.9599 C   0  0  0  0  0  0  0  0  0  0  0  0
    9.5992    9.5700    7.4184 H   0  0  0  0  0  0  0  0  0  0  0  0
    9.2770    8.7833    9.2672 C   0  0  0  0  0  0  0  0  0  0  0  0
    8.8263    9.5405    9.6238 H   0  0  0  0  0  0  0  0  0  0  0  0
    9.4726    7.6580   10.0520 C   0  0  0  0  0  0  0  0  0  0  0  0
    9.1377    7.6363   10.9407 H   0  0  0  0  0  0  0  0  0  0  0  0
   10.1552    6.5658    9.5427 C   0  0  0  0  0  0  0  0  0  0  0  0
   10.2941    5.8010   10.0891 H   0  0  0  0  0  0  0  0  0  0  0  0
   12.4803    5.7536    6.1899 C   0  0  0  0  0  0  0  0  0  0  0  0
   13.8029    6.1746    6.3310 C   0  0  0  0  0  0  0  0  0  0  0  0
   14.2408    6.0685    7.1674 H   0  0  0  0  0  0  0  0  0  0  0  0
   14.4843    6.7440    5.2719 C   0  0  0  0  0  0  0  0  0  0  0  0
   15.3805    7.0383    5.3869 H   0  0  0  0  0  0  0  0  0  0  0  0
   13.8599    6.8867    4.0416 C   0  0  0  0  0  0  0  0  0  0  0  0
   14.3228    7.2881    3.3150 H   0  0  0  0  0  0  0  0  0  0  0  0
   12.5572    6.4413    3.8755 C   0  0  0  0  0  0  0  0  0  0  0  0
   12.1354    6.5210    3.0271 H   0  0  0  0  0  0  0  0  0  0  0  0
   11.8653    5.8789    4.9394 C   0  0  0  0  0  0  0  0  0  0  0  0
   10.9719    5.5787    4.8180 H   0  0  0  0  0  0  0  0  0  0  0  0
   12.3560    2.2736    9.1125 B   0  0  0  0  0  0  0  0  0  0  0  0
   14.1021    3.0734   10.6574 B   0  0  0  0  0  0  0  0  0  0  0  0
   11.0809    1.7346    9.5416 N   0  0  0  0  0  0  0  0  0  0  0  0
   13.0372    1.1382    8.5115 N   0  0  0  0  0  0  0  0  0  0  0  0
   15.3806    2.6243   10.3813 O   0  0  0  0  0  0  0  0  0  0  0  0
   13.6989    2.6727   11.9167 O   0  0  0  0  0  0  0  0  0  0  0  0
   14.0188    6.1887   10.2201 P   0  0  0  0  0  0  0  0  0  0  0  0
   11.6161    5.1294    7.6734 P   0  0  0  0  0  0  0  0  0  0  0  0
   13.0120    4.2484    9.3311 Pt  0  0  0  0  0  0  0  0  0  0  0  0
  1  2  4  0  0  0  0
  2  3  1  0  0  0  0
  4  2  4  0  0  0  0
  5  4  1  0  0  0  0
  6  4  4  0  0  0  0
  7  6  1  0  0  0  0
  8  6  4  0  0  0  0
  9  8  1  0  0  0  0
 10  1  4  0  0  0  0
 11 12  1  0  0  0  0
 13 11  1  0  0  0  0
 14 11  1  0  0  0  0
 15 14  4  0  0  0  0
 16 15  1  0  0  0  0
 17 15  4  0  0  0  0
 18 17  1  0  0  0  0
 19 17  4  0  0  0  0
 20 19  1  0  0  0  0
 21 19  4  0  0  0  0
 22 21  1  0  0  0  0
 23 14  4  0  0  0  0
 24 23  1  0  0  0  0
 25 26  1  0  0  0  0
 27 25  1  0  0  0  0
 28 25  1  0  0  0  0
 29 28  4  0  0  0  0
 30 29  1  0  0  0  0
 31 29  4  0  0  0  0
 32 31  1  0  0  0  0
 33 31  4  0  0  0  0
 34 33  1  0  0  0  0
 35 33  4  0  0  0  0
 36 35  1  0  0  0  0
 37 28  4  0  0  0  0
 38 37  1  0  0  0  0
 39 40  1  0  0  0  0
 40 49  1  0  0  0  0
 41 39  1  0  0  0  0
 42 41  1  0  0  0  0
 43 41  1  0  0  0  0
 44 41  1  0  0  0  0
 45 39  1  0  0  0  0
 46 45  1  0  0  0  0
 47 45  1  0  0  0  0
 48 45  1  0  0  0  0
 49 50  1  0  0  0  0
 51 49  1  0  0  0  0
 52 49  1  0  0  0  0
 53 40  1  0  0  0  0
 54 53  1  0  0  0  0
 55 53  1  0  0  0  0
 56 53  1  0  0  0  0
 57 58  4  0  0  0  0
 58 59  1  0  0  0  0
 60 58  4  0  0  0  0
 61 60  1  0  0  0  0
 62 60  4  0  0  0  0
 63 62  1  0  0  0  0
 64 62  4  0  0  0  0
 65 64  1  0  0  0  0
 66 57  4  0  0  0  0
 67 66  1  0  0  0  0
 68 69  4  0  0  0  0
 69 70  1  0  0  0  0
 71 69  4  0  0  0  0
 72 71  1  0  0  0  0
 73 71  4  0  0  0  0
 74 73  1  0  0  0  0
 75 73  4  0  0  0  0
 76 75  1  0  0  0  0
 77 68  4  0  0  0  0
 78 77  1  0  0  0  0
 79 80  4  0  0  0  0
 80 81  1  0  0  0  0
 82 80  4  0  0  0  0
 83 82  1  0  0  0  0
 84 82  4  0  0  0  0
 85 84  1  0  0  0  0
 86 84  4  0  0  0  0
 87 86  1  0  0  0  0
 88 79  4  0  0  0  0
 89 88  1  0  0  0  0
 90 91  4  0  0  0  0
 91 92  1  0  0  0  0
 93 91  4  0  0  0  0
 94 93  1  0  0  0  0
 95 93  4  0  0  0  0
 96 95  1  0  0  0  0
 97 95  4  0  0  0  0
 98 97  1  0  0  0  0
 99 90  4  0  0  0  0
100 99  1  0  0  0  0
101102  4  0  0  0  0
102103  1  0  0  0  0
104102  4  0  0  0  0
105104  1  0  0  0  0
106104  4  0  0  0  0
107106  1  0  0  0  0
108106  4  0  0  0  0
109108  1  0  0  0  0
110101  4  0  0  0  0
111110  1  0  0  0  0
112113  4  0  0  0  0
113114  1  0  0  0  0
115113  4  0  0  0  0
116115  1  0  0  0  0
117115  4  0  0  0  0
118117  1  0  0  0  0
119117  4  0  0  0  0
120119  1  0  0  0  0
121112  4  0  0  0  0
122121  1  0  0  0  0
123125  1  0  0  0  0
124127  1  0  0  0  0
125  1  1  0  0  0  0
126 10  1  0  0  0  0
127 40  1  0  0  0  0
128 39  1  0  0  0  0
129 57  1  0  0  0  0
130 90  1  0  0  0  0
131123  1  0  0  0  0
  8 10  4  0  0  0  0
 11125  1  0  0  0  0
 21 23  4  0  0  0  0
 25126  1  0  0  0  0
 35 37  4  0  0  0  0
 64 66  4  0  0  0  0
 68129  1  0  0  0  0
 75 77  4  0  0  0  0
 79129  1  0  0  0  0
 86 88  4  0  0  0  0
 97 99  4  0  0  0  0
101130  1  0  0  0  0
108110  4  0  0  0  0
112130  1  0  0  0  0
119121  4  0  0  0  0
123126  1  0  0  0  0
124128  1  0  0  0  0
124131  1  0  0  0  0
129131  1  0  0  0  0
130131  1  0  0  0  0
M  END
$$$$
CODHEK

From CSD data. Using bond type 'Any'. Matching problem. No disordered atoms. Largest molecule.
133143  0  0  0  0  0  0  0  0999 V2000
   14.9534   -0.6939    9.5637 C   0  0  0  0  0  0  0  0  0  0  0  0
   15.1026   -1.9229   10.1576 C   0  0  0  0  0  0  0  0  0  0  0  0
   14.3543   -2.4938   10.2966 H   0  0  0  0  0  0  0  0  0  0  0  0
   16.3910   -2.3129   10.5488 C   0  0  0  0  0  0  0  0  0  0  0  0
   16.5176   -3.1562   10.9683 H   0  0  0  0  0  0  0  0  0  0  0  0
   17.4847   -1.4835   10.3367 C   0  0  0  0  0  0  0  0  0  0  0  0
   18.3479   -1.7674   10.6171 H   0  0  0  0  0  0  0  0  0  0  0  0
   17.3379   -0.2533    9.7216 C   0  0  0  0  0  0  0  0  0  0  0  0
   18.0906    0.3089    9.5778 H   0  0  0  0  0  0  0  0  0  0  0  0
   16.0764    0.1380    9.3162 C   0  0  0  0  0  0  0  0  0  0  0  0
   16.6125    2.2266    8.1190 C   0  0  0  0  0  0  0  0  0  0  0  0
   16.1978    2.6831    7.3460 H   0  0  0  0  0  0  0  0  0  0  0  0
   17.3865    1.7117    7.7749 H   0  0  0  0  0  0  0  0  0  0  0  0
   17.1383    3.2923    9.0758 C   0  0  0  0  0  0  0  0  0  0  0  0
   16.9380    3.2252   10.4333 C   0  0  0  0  0  0  0  0  0  0  0  0
   16.4667    2.4882   10.8033 H   0  0  0  0  0  0  0  0  0  0  0  0
   17.4151    4.2166   11.2723 C   0  0  0  0  0  0  0  0  0  0  0  0
   17.2465    4.1665   12.2056 H   0  0  0  0  0  0  0  0  0  0  0  0
   18.1342    5.2798   10.7632 C   0  0  0  0  0  0  0  0  0  0  0  0
   18.4781    5.9506   11.3406 H   0  0  0  0  0  0  0  0  0  0  0  0
   18.3426    5.3466    9.4034 C   0  0  0  0  0  0  0  0  0  0  0  0
   18.8387    6.0675    9.0381 H   0  0  0  0  0  0  0  0  0  0  0  0
   17.8321    4.3641    8.5668 C   0  0  0  0  0  0  0  0  0  0  0  0
   17.9662    4.4337    7.6288 H   0  0  0  0  0  0  0  0  0  0  0  0
   12.4789   -0.5695    9.2408 C   0  0  0  0  0  0  0  0  0  0  0  0
   11.8244    0.1614    9.1088 H   0  0  0  0  0  0  0  0  0  0  0  0
   12.3715   -0.9046   10.1670 H   0  0  0  0  0  0  0  0  0  0  0  0
   12.1601   -1.6878    8.2792 C   0  0  0  0  0  0  0  0  0  0  0  0
   12.3495   -1.5085    6.9312 C   0  0  0  0  0  0  0  0  0  0  0  0
   12.6819   -0.6763    6.6177 H   0  0  0  0  0  0  0  0  0  0  0  0
   12.0737   -2.5049    6.0191 C   0  0  0  0  0  0  0  0  0  0  0  0
   12.2178   -2.3491    5.0953 H   0  0  0  0  0  0  0  0  0  0  0  0
   11.5991   -3.7073    6.4339 C   0  0  0  0  0  0  0  0  0  0  0  0
   11.4151   -4.3948    5.8047 H   0  0  0  0  0  0  0  0  0  0  0  0
   11.3888   -3.9132    7.7607 C   0  0  0  0  0  0  0  0  0  0  0  0
   11.0522   -4.7510    8.0601 H   0  0  0  0  0  0  0  0  0  0  0  0
   11.6702   -2.9029    8.6917 C   0  0  0  0  0  0  0  0  0  0  0  0
   11.5200   -3.0588    9.6179 H   0  0  0  0  0  0  0  0  0  0  0  0
   13.5313    2.2155    2.6018 C   0  0  0  0  0  0  0  0  0  0  0  0
   12.2607    2.0685    3.4668 C   0  0  0  0  0  0  0  0  0  0  0  0
   13.5205    3.5514    1.8218 C   0  0  0  0  0  0  0  0  0  0  0  0
   13.3190    4.2862    2.4345 H   0  0  0  0  0  0  0  0  0  0  0  0
   12.8386    3.5125    1.1195 H   0  0  0  0  0  0  0  0  0  0  0  0
   14.4012    3.6962    1.4140 H   0  0  0  0  0  0  0  0  0  0  0  0
   13.8301    1.0493    1.6874 C   0  0  0  0  0  0  0  0  0  0  0  0
   14.6229    1.2497    1.1477 H   0  0  0  0  0  0  0  0  0  0  0  0
   13.0634    0.8934    1.0959 H   0  0  0  0  0  0  0  0  0  0  0  0
   13.9956    0.2449    2.2248 H   0  0  0  0  0  0  0  0  0  0  0  0
   10.9835    2.6552    2.8941 C   0  0  0  0  0  0  0  0  0  0  0  0
   10.2527    2.5355    3.5375 H   0  0  0  0  0  0  0  0  0  0  0  0
   10.7612    2.1988    2.0574 H   0  0  0  0  0  0  0  0  0  0  0  0
   11.1125    3.6127    2.7220 H   0  0  0  0  0  0  0  0  0  0  0  0
   11.9937    0.6318    3.9051 C   0  0  0  0  0  0  0  0  0  0  0  0
   12.8189    0.2421    4.2610 H   0  0  0  0  0  0  0  0  0  0  0  0
   11.6856    0.1085    3.1368 H   0  0  0  0  0  0  0  0  0  0  0  0
   11.3033    0.6262    4.6027 H   0  0  0  0  0  0  0  0  0  0  0  0
   12.2681    3.7003   10.4875 C   0  0  0  0  0  0  0  0  0  0  0  0
   11.2478    3.6739   11.4443 C   0  0  0  0  0  0  0  0  0  0  0  0
   10.3747    3.9745   11.2157 H   0  0  0  0  0  0  0  0  0  0  0  0
   11.5108    3.2063   12.7358 C   0  0  0  0  0  0  0  0  0  0  0  0
   10.8181    3.1868   13.3863 H   0  0  0  0  0  0  0  0  0  0  0  0
   12.7813    2.7749   13.0634 C   0  0  0  0  0  0  0  0  0  0  0  0
   12.9567    2.4381   13.9354 H   0  0  0  0  0  0  0  0  0  0  0  0
   13.7814    2.8250   12.1466 C   0  0  0  0  0  0  0  0  0  0  0  0
   14.6554    2.5383   12.3847 H   0  0  0  0  0  0  0  0  0  0  0  0
   13.5298    3.2920   10.8575 C   0  0  0  0  0  0  0  0  0  0  0  0
   14.2381    3.3288   10.2235 H   0  0  0  0  0  0  0  0  0  0  0  0
   11.4005    6.0552    9.1701 C   0  0  0  0  0  0  0  0  0  0  0  0
   10.5544    6.7035    8.2722 C   0  0  0  0  0  0  0  0  0  0  0  0
   10.2174    6.2317    7.5180 H   0  0  0  0  0  0  0  0  0  0  0  0
   10.2007    8.0269    8.4678 C   0  0  0  0  0  0  0  0  0  0  0  0
    9.6470    8.4694    7.8362 H   0  0  0  0  0  0  0  0  0  0  0  0
   10.6559    8.6977    9.5801 C   0  0  0  0  0  0  0  0  0  0  0  0
   10.3855    9.5966    9.7286 H   0  0  0  0  0  0  0  0  0  0  0  0
   11.4998    8.0798   10.4804 C   0  0  0  0  0  0  0  0  0  0  0  0
   11.8293    8.5585   11.2322 H   0  0  0  0  0  0  0  0  0  0  0  0
   11.8635    6.7627   10.2825 C   0  0  0  0  0  0  0  0  0  0  0  0
   12.4353    6.3347   10.9094 H   0  0  0  0  0  0  0  0  0  0  0  0
   10.4077    3.5242    8.2785 C   0  0  0  0  0  0  0  0  0  0  0  0
   10.4463    2.5339    7.3075 C   0  0  0  0  0  0  0  0  0  0  0  0
   11.2724    2.3017    6.9005 H   0  0  0  0  0  0  0  0  0  0  0  0
    9.2754    1.8804    6.9265 C   0  0  0  0  0  0  0  0  0  0  0  0
    9.3155    1.2024    6.2619 H   0  0  0  0  0  0  0  0  0  0  0  0
    8.0587    2.1971    7.4944 C   0  0  0  0  0  0  0  0  0  0  0  0
    7.2713    1.7367    7.2328 H   0  0  0  0  0  0  0  0  0  0  0  0
    8.0065    3.1952    8.4489 C   0  0  0  0  0  0  0  0  0  0  0  0
    7.1739    3.4206    8.8448 H   0  0  0  0  0  0  0  0  0  0  0  0
    9.1492    3.8659    8.8378 C   0  0  0  0  0  0  0  0  0  0  0  0
    9.0921    4.5617    9.4812 H   0  0  0  0  0  0  0  0  0  0  0  0
   14.2099    7.2248    7.9658 C   0  0  0  0  0  0  0  0  0  0  0  0
   13.8153    8.5627    7.9092 C   0  0  0  0  0  0  0  0  0  0  0  0
   13.3239    8.8814    7.1598 H   0  0  0  0  0  0  0  0  0  0  0  0
   14.1384    9.4352    8.9509 C   0  0  0  0  0  0  0  0  0  0  0  0
   13.8719   10.3453    8.9155 H   0  0  0  0  0  0  0  0  0  0  0  0
   14.8584    8.9593   10.0468 C   0  0  0  0  0  0  0  0  0  0  0  0
   15.0835    9.5465   10.7585 H   0  0  0  0  0  0  0  0  0  0  0  0
   15.2454    7.6400   10.1010 C   0  0  0  0  0  0  0  0  0  0  0  0
   15.7390    7.3227   10.8481 H   0  0  0  0  0  0  0  0  0  0  0  0
   14.9156    6.7666    9.0664 C   0  0  0  0  0  0  0  0  0  0  0  0
   15.1767    5.8560    9.1159 H   0  0  0  0  0  0  0  0  0  0  0  0
   15.5125    6.1638    5.6491 C   0  0  0  0  0  0  0  0  0  0  0  0
   16.6877    6.6381    6.2454 C   0  0  0  0  0  0  0  0  0  0  0  0
   16.6862    6.9303    7.1480 H   0  0  0  0  0  0  0  0  0  0  0  0
   17.8570    6.6742    5.4983 C   0  0  0  0  0  0  0  0  0  0  0  0
   18.6598    6.9915    5.8966 H   0  0  0  0  0  0  0  0  0  0  0  0
   17.8649    6.2512    4.1879 C   0  0  0  0  0  0  0  0  0  0  0  0
   18.6725    6.2595    3.6883 H   0  0  0  0  0  0  0  0  0  0  0  0
   16.7065    5.8253    3.6152 C   0  0  0  0  0  0  0  0  0  0  0  0
   16.7127    5.5498    2.7055 H   0  0  0  0  0  0  0  0  0  0  0  0
   15.5237    5.7892    4.3270 C   0  0  0  0  0  0  0  0  0  0  0  0
   14.7217    5.5053    3.9051 H   0  0  0  0  0  0  0  0  0  0  0  0
   12.7493    6.7530    5.4323 C   0  0  0  0  0  0  0  0  0  0  0  0
   12.9879    7.9601    4.7512 C   0  0  0  0  0  0  0  0  0  0  0  0
   13.7991    8.4277    4.9091 H   0  0  0  0  0  0  0  0  0  0  0  0
   12.0818    8.4778    3.8674 C   0  0  0  0  0  0  0  0  0  0  0  0
   12.2722    9.2849    3.4008 H   0  0  0  0  0  0  0  0  0  0  0  0
   10.8925    7.8181    3.6624 C   0  0  0  0  0  0  0  0  0  0  0  0
   10.2409    8.1967    3.0850 H   0  0  0  0  0  0  0  0  0  0  0  0
   10.6275    6.6019    4.2846 C   0  0  0  0  0  0  0  0  0  0  0  0
    9.8121    6.1454    4.1125 H   0  0  0  0  0  0  0  0  0  0  0  0
   11.5603    6.0564    5.1565 C   0  0  0  0  0  0  0  0  0  0  0  0
   11.3962    5.2130    5.5643 H   0  0  0  0  0  0  0  0  0  0  0  0
   14.2048    1.2163    8.4796 B   0  0  0  0  0  0  0  0  0  0  0  0
   14.0005    2.8111    4.7512 B   0  0  0  0  0  0  0  0  0  0  0  0
   13.8183   -0.0337    9.0874 N   0  0  0  0  0  0  0  0  0  0  0  0
   15.6576    1.2931    8.6528 N   0  0  0  0  0  0  0  0  0  0  0  0
   13.3296    2.0184    7.8816 O   0  0  0  0  0  0  0  0  0  0  0  0
   14.7034    3.2792    5.7636 O   0  0  0  0  0  0  0  0  0  0  0  0
   14.5871    2.3031    3.5867 O   0  0  0  0  0  0  0  0  0  0  0  0
   12.6213    2.8253    4.6487 O   0  0  0  0  0  0  0  0  0  0  0  0
   13.5301    3.9642    7.2988 Pt  0  0  0  0  0  0  0  0  0  0  0  0
   11.9378    4.3561    8.8307 P   0  0  0  0  0  0  0  0  0  0  0  0
   13.9392    6.0519    6.6062 P   0  0  0  0  0  0  0  0  0  0  0  0
  1  2  4  0  0  0  0
  2  3  1  0  0  0  0
  4  2  4  0  0  0  0
  5  4  1  0  0  0  0
  6  4  4  0  0  0  0
  7  6  1  0  0  0  0
  8  6  4  0  0  0  0
  9  8  1  0  0  0  0
 10  1  4  0  0  0  0
 11 12  1  0  0  0  0
 13 11  1  0  0  0  0
 14 11  1  0  0  0  0
 15 14  4  0  0  0  0
 16 15  1  0  0  0  0
 17 15  4  0  0  0  0
 18 17  1  0  0  0  0
 19 17  4  0  0  0  0
 20 19  1  0  0  0  0
 21 19  4  0  0  0  0
 22 21  1  0  0  0  0
 23 14  4  0  0  0  0
 24 23  1  0  0  0  0
 25 26  1  0  0  0  0
 27 25  1  0  0  0  0
 28 25  1  0  0  0  0
 29 28  4  0  0  0  0
 30 29  1  0  0  0  0
 31 29  4  0  0  0  0
 32 31  1  0  0  0  0
 33 31  4  0  0  0  0
 34 33  1  0  0  0  0
 35 33  4  0  0  0  0
 36 35  1  0  0  0  0
 37 28  4  0  0  0  0
 38 37  1  0  0  0  0
 39 40  1  0  0  0  0
 40 49  1  0  0  0  0
 41 39  1  0  0  0  0
 42 41  1  0  0  0  0
 43 41  1  0  0  0  0
 44 41  1  0  0  0  0
 45 39  1  0  0  0  0
 46 45  1  0  0  0  0
 47 45  1  0  0  0  0
 48 45  1  0  0  0  0
 49 50  1  0  0  0  0
 51 49  1  0  0  0  0
 52 49  1  0  0  0  0
 53 40  1  0  0  0  0
 54 53  1  0  0  0  0
 55 53  1  0  0  0  0
 56 53  1  0  0  0  0
 57 58  4  0  0  0  0
 58 59  1  0  0  0  0
 60 58  4  0  0  0  0
 61 60  1  0  0  0  0
 62 60  4  0  0  0  0
 63 62  1  0  0  0  0
 64 62  4  0  0  0  0
 65 64  1  0  0  0  0
 66 57  4  0  0  0  0
 67 66  1  0  0  0  0
 68 69  4  0  0  0  0
 69 70  1  0  0  0  0
 71 69  4  0  0  0  0
 72 71  1  0  0  0  0
 73 71  4  0  0  0  0
 74 73  1  0  0  0  0
 75 73  4  0  0  0  0
 76 75  1  0  0  0  0
 77 68  4  0  0  0  0
 78 77  1  0  0  0  0
 79 80  4  0  0  0  0
 80 81  1  0  0  0  0
 82 80  4  0  0  0  0
 83 82  1  0  0  0  0
 84 82  4  0  0  0  0
 85 84  1  0  0  0  0
 86 84  4  0  0  0  0
 87 86  1  0  0  0  0
 88 79  4  0  0  0  0
 89 88  1  0  0  0  0
 90 91  4  0  0  0  0
 91 92  1  0  0  0  0
 93 91  4  0  0  0  0
 94 93  1  0  0  0  0
 95 93  4  0  0  0  0
 96 95  1  0  0  0  0
 97 95  4  0  0  0  0
 98 97  1  0  0  0  0
 99 90  4  0  0  0  0
100 99  1  0  0  0  0
101102  4  0  0  0  0
102103  1  0  0  0  0
104102  4  0  0  0  0
105104  1  0  0  0  0
106104  4  0  0  0  0
107106  1  0  0  0  0
108106  4  0  0  0  0
109108  1  0  0  0  0
110101  4  0  0  0  0
111110  1  0  0  0  0
112113  4  0  0  0  0
113114  1  0  0  0  0
115113  4  0  0  0  0
116115  1  0  0  0  0
117115  4  0  0  0  0
118117  1  0  0  0  0
119117  4  0  0  0  0
120119  1  0  0  0  0
121112  4  0  0  0  0
122121  1  0  0  0  0
123125  1  0  0  0  0
124128  1  0  0  0  0
125  1  1  0  0  0  0
126 10  1  0  0  0  0
127123  1  0  0  0  0
128131  1  0  0  0  0
129 39  1  0  0  0  0
130 40  1  0  0  0  0
131127  1  0  0  0  0
132 57  1  0  0  0  0
133 90  1  0  0  0  0
  8 10  4  0  0  0  0
 11126  1  0  0  0  0
 21 23  4  0  0  0  0
 25125  1  0  0  0  0
 35 37  4  0  0  0  0
 64 66  4  0  0  0  0
 68132  1  0  0  0  0
 75 77  4  0  0  0  0
 79132  1  0  0  0  0
 86 88  4  0  0  0  0
 97 99  4  0  0  0  0
101133  1  0  0  0  0
108110  4  0  0  0  0
112133  1  0  0  0  0
119121  4  0  0  0  0
123126  1  0  0  0  0
124129  1  0  0  0  0
124130  1  0  0  0  0
131132  1  0  0  0  0
131133  1  0  0  0  0
M  END
$$$$
CODLEM

From CSD data. Using bond type 'Any'. No disordered atoms. Largest molecule.
 38 40  0  0  0  0  0  0  0  0999 V2000
   -5.9522    4.9571    8.9199 Cl  0  0  0  0  0  0  0  0  0  0  0  0
   -4.6520    7.5779    9.6889 Cl  0  0  0  0  0  0  0  0  0  0  0  0
   -1.7006    3.2848    9.6144 Cl  0  0  0  0  0  0  0  0  0  0  0  0
   -2.2099    5.7792   11.3821 Cl  0  0  0  0  0  0  0  0  0  0  0  0
   -2.0306    5.2328    9.5027 P   0  0  0  0  0  0  0  0  0  0  0  0
   -4.5974    6.1215    8.5568 B   0  0  0  0  0  0  0  0  0  0  0  0
   -3.3077    5.3749    8.7281 O   0  0  0  0  0  0  0  0  0  0  0  0
   -4.6484    6.5677    7.0636 N   0  0  0  0  0  0  0  0  0  0  0  0
   -5.9660    6.6993    6.4160 C   0  0  0  0  0  0  0  0  0  0  0  0
   -6.3842    5.7056    5.5634 C   0  0  0  0  0  0  0  0  0  0  0  0
   -7.6460    5.7790    4.9969 C   0  0  0  0  0  0  0  0  0  0  0  0
   -8.4657    6.8525    5.2774 C   0  0  0  0  0  0  0  0  0  0  0  0
   -8.0289    7.8475    6.1125 C   0  0  0  0  0  0  0  0  0  0  0  0
   -6.7725    7.7805    6.6995 C   0  0  0  0  0  0  0  0  0  0  0  0
   -5.8183    5.0657    5.3532 H   0  0  0  0  0  0  0  0  0  0  0  0
   -7.8815    5.1085    4.3070 H   0  0  0  0  0  0  0  0  0  0  0  0
   -9.3045    6.8074    4.8737 H   0  0  0  0  0  0  0  0  0  0  0  0
   -8.5109    8.5056    6.3454 H   0  0  0  0  0  0  0  0  0  0  0  0
   -6.4050    8.4616    7.2487 H   0  0  0  0  0  0  0  0  0  0  0  0
   -0.8256    6.0211    8.8118 N   0  0  0  0  0  0  0  0  0  0  0  0
   -3.4435    7.3560    6.3727 P   0  0  0  0  0  0  0  0  0  0  0  0
   -0.8766    6.4673    7.3185 B   0  0  0  0  0  0  0  0  0  0  0  0
    0.4919    5.8895    9.4593 C   0  0  0  0  0  0  0  0  0  0  0  0
   -3.7734    9.3040    6.2609 Cl  0  0  0  0  0  0  0  0  0  0  0  0
   -3.2642    6.8096    4.4932 Cl  0  0  0  0  0  0  0  0  0  0  0  0
   -2.1664    7.2139    7.1472 O   0  0  0  0  0  0  0  0  0  0  0  0
    0.4781    7.6317    6.9555 Cl  0  0  0  0  0  0  0  0  0  0  0  0
   -0.8220    5.0109    6.1865 Cl  0  0  0  0  0  0  0  0  0  0  0  0
    0.9102    6.8832   10.3120 C   0  0  0  0  0  0  0  0  0  0  0  0
    1.2984    4.8083    9.1758 C   0  0  0  0  0  0  0  0  0  0  0  0
    2.1719    6.8098   10.8784 C   0  0  0  0  0  0  0  0  0  0  0  0
    0.3442    7.5231   10.5222 H   0  0  0  0  0  0  0  0  0  0  0  0
    2.5548    4.7413    9.7629 C   0  0  0  0  0  0  0  0  0  0  0  0
    0.9310    4.1272    8.6267 H   0  0  0  0  0  0  0  0  0  0  0  0
    2.9916    5.7363   10.5979 C   0  0  0  0  0  0  0  0  0  0  0  0
    2.4075    7.4803   11.5684 H   0  0  0  0  0  0  0  0  0  0  0  0
    3.0368    4.0832    9.5300 H   0  0  0  0  0  0  0  0  0  0  0  0
    3.8305    5.7814   11.0016 H   0  0  0  0  0  0  0  0  0  0  0  0
  1  6  1  0  0  0  0
  2  6  1  0  0  0  0
  3  5  1  0  0  0  0
  4  5  1  0  0  0  0
  5  7  2  0  0  0  0
  6  7  1  0  0  0  0
  8  6  1  0  0  0  0
  9  8  1  0  0  0  0
 10  9  4  0  0  0  0
 11 10  4  0  0  0  0
 12 11  4  0  0  0  0
 13 12  4  0  0  0  0
 14  9  4  0  0  0  0
 15 10  1  0  0  0  0
 16 11  1  0  0  0  0
 17 12  1  0  0  0  0
 18 13  1  0  0  0  0
 19 14  1  0  0  0  0
 20  5  1  0  0  0  0
 21  8  1  0  0  0  0
 22 20  1  0  0  0  0
 23 20  1  0  0  0  0
 24 21  1  0  0  0  0
 25 21  1  0  0  0  0
 26 21  2  0  0  0  0
 27 22  1  0  0  0  0
 28 22  1  0  0  0  0
 29 23  4  0  0  0  0
 30 23  4  0  0  0  0
 31 29  4  0  0  0  0
 32 29  1  0  0  0  0
 33 30  4  0  0  0  0
 34 30  1  0  0  0  0
 35 31  4  0  0  0  0
 36 31  1  0  0  0  0
 37 33  1  0  0  0  0
 38 35  1  0  0  0  0
 13 14  4  0  0  0  0
 22 26  1  0  0  0  0
 33 35  4  0  0  0  0
M  END
$$$$
COFBUX

From CSD data. Using bond type 'Any'. No disordered atoms. Largest molecule.
 98 99  0  0  0  0  0  0  0  0999 V2000
    3.0145    8.0973    1.6285 P   0  0  0  0  0  0  0  0  0  0  0  0
    3.2280   13.5897    2.4062 P   0  0  0  0  0  0  0  0  0  0  0  0
   10.0572   10.3792    1.8649 O   0  0  0  0  0  0  0  0  0  0  0  0
    9.0657    8.5673    2.8609 O   0  0  0  0  0  0  0  0  0  0  0  0
    7.4675   10.3192    1.9214 C   0  0  0  0  0  0  0  0  0  0  0  0
    6.3679    9.6198    2.4171 C   0  0  0  0  0  0  0  0  0  0  0  0
    6.5222    8.8088    2.8872 H   0  0  0  0  0  0  0  0  0  0  0  0
    5.0498   10.0541    2.2564 C   0  0  0  0  0  0  0  0  0  0  0  0
    4.8279   11.3113    1.6562 C   0  0  0  0  0  0  0  0  0  0  0  0
    5.9256   12.0009    1.1208 C   0  0  0  0  0  0  0  0  0  0  0  0
    5.7799   12.8231    0.6680 H   0  0  0  0  0  0  0  0  0  0  0  0
    7.2196   11.5115    1.2313 C   0  0  0  0  0  0  0  0  0  0  0  0
    7.9405   11.9899    0.8394 H   0  0  0  0  0  0  0  0  0  0  0  0
    3.9461    9.1764    2.8096 C   0  0  0  0  0  0  0  0  0  0  0  0
    3.2913    9.7637    3.2639 H   0  0  0  0  0  0  0  0  0  0  0  0
    4.3438    8.5920    3.5028 H   0  0  0  0  0  0  0  0  0  0  0  0
    3.4549   11.9464    1.5936 C   0  0  0  0  0  0  0  0  0  0  0  0
    2.8084   11.3158    1.9987 H   0  0  0  0  0  0  0  0  0  0  0  0
    3.2090   12.0439    0.6395 H   0  0  0  0  0  0  0  0  0  0  0  0
   11.1318    9.6561    2.5605 C   0  0  0  0  0  0  0  0  0  0  0  0
   10.4909    8.2485    2.7913 C   0  0  0  0  0  0  0  0  0  0  0  0
    4.2300    6.9014    0.8544 C   0  0  0  0  0  0  0  0  0  0  0  0
    5.2459    6.2882    1.8336 C   0  0  0  0  0  0  0  0  0  0  0  0
    5.8883    5.7376    1.3387 H   0  0  0  0  0  0  0  0  0  0  0  0
    4.7743    5.7308    2.4879 H   0  0  0  0  0  0  0  0  0  0  0  0
    5.7217    7.0064    2.2999 H   0  0  0  0  0  0  0  0  0  0  0  0
    3.4584    5.7693    0.1507 C   0  0  0  0  0  0  0  0  0  0  0  0
    4.0727    5.2496   -0.4100 H   0  0  0  0  0  0  0  0  0  0  0  0
    2.7510    6.1531   -0.4111 H   0  0  0  0  0  0  0  0  0  0  0  0
    3.0564    5.1803    0.8240 H   0  0  0  0  0  0  0  0  0  0  0  0
    4.9955    7.6853   -0.2329 C   0  0  0  0  0  0  0  0  0  0  0  0
    5.6249    7.0861   -0.6856 H   0  0  0  0  0  0  0  0  0  0  0  0
    5.4866    8.4242    0.1816 H   0  0  0  0  0  0  0  0  0  0  0  0
    4.3587    8.0426   -0.8868 H   0  0  0  0  0  0  0  0  0  0  0  0
    1.7958    7.2298    2.7667 C   0  0  0  0  0  0  0  0  0  0  0  0
    0.6709    6.6053    1.9220 C   0  0  0  0  0  0  0  0  0  0  0  0
    0.0205    6.1705    2.5126 H   0  0  0  0  0  0  0  0  0  0  0  0
    1.0526    5.9405    1.3113 H   0  0  0  0  0  0  0  0  0  0  0  0
    0.2230    7.3063    1.4038 H   0  0  0  0  0  0  0  0  0  0  0  0
    1.1560    8.2869    3.6908 C   0  0  0  0  0  0  0  0  0  0  0  0
    0.4078    7.8860    4.1809 H   0  0  0  0  0  0  0  0  0  0  0  0
    0.8300    9.0379    3.1522 H   0  0  0  0  0  0  0  0  0  0  0  0
    1.8267    8.6116    4.3293 H   0  0  0  0  0  0  0  0  0  0  0  0
    2.4469    6.1576    3.6499 C   0  0  0  0  0  0  0  0  0  0  0  0
    1.7838    5.8027    4.2784 H   0  0  0  0  0  0  0  0  0  0  0  0
    3.1922    6.5535    4.1502 H   0  0  0  0  0  0  0  0  0  0  0  0
    2.7845    5.4300    3.0858 H   0  0  0  0  0  0  0  0  0  0  0  0
   11.3912   10.4173    3.8508 C   0  0  0  0  0  0  0  0  0  0  0  0
   11.5975   11.3541    3.6444 H   0  0  0  0  0  0  0  0  0  0  0  0
   12.1503   10.0147    4.3252 H   0  0  0  0  0  0  0  0  0  0  0  0
   10.5939   10.3780    4.4211 H   0  0  0  0  0  0  0  0  0  0  0  0
   12.3650    9.6483    1.6805 C   0  0  0  0  0  0  0  0  0  0  0  0
   12.7009   10.5634    1.5856 H   0  0  0  0  0  0  0  0  0  0  0  0
   12.1356    9.2908    0.7971 H   0  0  0  0  0  0  0  0  0  0  0  0
   13.0537    9.0868    2.0918 H   0  0  0  0  0  0  0  0  0  0  0  0
    1.5036   14.0679    1.8408 C   0  0  0  0  0  0  0  0  0  0  0  0
    0.9445   15.2278    2.6819 C   0  0  0  0  0  0  0  0  0  0  0  0
    0.1367   15.5836    2.2564 H   0  0  0  0  0  0  0  0  0  0  0  0
    1.6183   15.9398    2.7477 H   0  0  0  0  0  0  0  0  0  0  0  0
    0.7245   14.9057    3.5822 H   0  0  0  0  0  0  0  0  0  0  0  0
    0.4963   12.9045    1.8684 C   0  0  0  0  0  0  0  0  0  0  0  0
   -0.3780   13.2185    1.5568 H   0  0  0  0  0  0  0  0  0  0  0  0
    0.4135   12.5673    2.7853 H   0  0  0  0  0  0  0  0  0  0  0  0
    0.8124   12.1852    1.2831 H   0  0  0  0  0  0  0  0  0  0  0  0
    1.6381   14.5610    0.3883 C   0  0  0  0  0  0  0  0  0  0  0  0
    0.7570   14.8250    0.0498 H   0  0  0  0  0  0  0  0  0  0  0  0
    1.9999   13.8413   -0.1701 H   0  0  0  0  0  0  0  0  0  0  0  0
    2.2425   15.3311    0.3613 H   0  0  0  0  0  0  0  0  0  0  0  0
    3.3409   13.3322    4.2535 C   0  0  0  0  0  0  0  0  0  0  0  0
    4.6833   12.6339    4.5464 C   0  0  0  0  0  0  0  0  0  0  0  0
    4.8703   12.6708    5.5088 H   0  0  0  0  0  0  0  0  0  0  0  0
    5.4037   13.0854    4.0573 H   0  0  0  0  0  0  0  0  0  0  0  0
    4.6326   11.6967    4.2606 H   0  0  0  0  0  0  0  0  0  0  0  0
    3.3724   14.7029    4.9493 C   0  0  0  0  0  0  0  0  0  0  0  0
    3.5469   14.5811    5.9067 H   0  0  0  0  0  0  0  0  0  0  0  0
    2.5097   15.1513    4.8290 H   0  0  0  0  0  0  0  0  0  0  0  0
    4.0842   15.2528    4.5567 H   0  0  0  0  0  0  0  0  0  0  0  0
    2.2105   12.4761    4.8360 C   0  0  0  0  0  0  0  0  0  0  0  0
    2.4158   12.2549    5.7696 H   0  0  0  0  0  0  0  0  0  0  0  0
    2.1281   11.6487    4.3160 H   0  0  0  0  0  0  0  0  0  0  0  0
    1.3674   12.9728    4.7958 H   0  0  0  0  0  0  0  0  0  0  0  0
   10.6696    7.2987    1.6119 C   0  0  0  0  0  0  0  0  0  0  0  0
   10.0850    6.5177    1.7275 H   0  0  0  0  0  0  0  0  0  0  0  0
   11.6032    7.0019    1.5651 H   0  0  0  0  0  0  0  0  0  0  0  0
   10.4327    7.7596    0.7785 H   0  0  0  0  0  0  0  0  0  0  0  0
   10.8856    7.5618    4.0849 C   0  0  0  0  0  0  0  0  0  0  0  0
   10.4200    6.7016    4.1516 H   0  0  0  0  0  0  0  0  0  0  0  0
   10.6354    8.1279    4.8448 H   0  0  0  0  0  0  0  0  0  0  0  0
   11.8531    7.4109    4.0939 H   0  0  0  0  0  0  0  0  0  0  0  0
    2.0554    9.1040    0.2855 B   0  0  0  0  0  0  0  0  0  0  0  0
    1.2332    9.6418    0.8342 H   0  0  0  0  0  0  0  0  0  0  0  0
    2.7706    9.7973   -0.2038 H   0  0  0  0  0  0  0  0  0  0  0  0
    1.6280    8.3549   -0.4091 H   0  0  0  0  0  0  0  0  0  0  0  0
    4.4926   14.9407    1.8460 B   0  0  0  0  0  0  0  0  0  0  0  0
    4.6013   14.8831    0.7396 H   0  0  0  0  0  0  0  0  0  0  0  0
    5.4627   14.7503    2.3453 H   0  0  0  0  0  0  0  0  0  0  0  0
    4.0379   15.8931    2.1546 H   0  0  0  0  0  0  0  0  0  0  0  0
    8.8880    9.7564    2.2054 B   0  0  0  0  0  0  0  0  0  0  0  0
  1 14  1  0  0  0  0
  2 17  1  0  0  0  0
  3 20  1  0  0  0  0
  4 21  1  0  0  0  0
  5  6  4  0  0  0  0
  6  7  1  0  0  0  0
  8  6  4  0  0  0  0
  9  8  4  0  0  0  0
 10  9  4  0  0  0  0
 11 10  1  0  0  0  0
 12  5  4  0  0  0  0
 13 12  1  0  0  0  0
 14  8  1  0  0  0  0
 15 14  1  0  0  0  0
 16 14  1  0  0  0  0
 17  9  1  0  0  0  0
 18 17  1  0  0  0  0
 19 17  1  0  0  0  0
 20 21  1  0  0  0  0
 21 82  1  0  0  0  0
 22  1  1  0  0  0  0
 23 22  1  0  0  0  0
 24 23  1  0  0  0  0
 25 23  1  0  0  0  0
 26 23  1  0  0  0  0
 27 22  1  0  0  0  0
 28 27  1  0  0  0  0
 29 27  1  0  0  0  0
 30 27  1  0  0  0  0
 31 22  1  0  0  0  0
 32 31  1  0  0  0  0
 33 31  1  0  0  0  0
 34 31  1  0  0  0  0
 35  1  1  0  0  0  0
 36 35  1  0  0  0  0
 37 36  1  0  0  0  0
 38 36  1  0  0  0  0
 39 36  1  0  0  0  0
 40 35  1  0  0  0  0
 41 40  1  0  0  0  0
 42 40  1  0  0  0  0
 43 40  1  0  0  0  0
 44 35  1  0  0  0  0
 45 44  1  0  0  0  0
 46 44  1  0  0  0  0
 47 44  1  0  0  0  0
 48 20  1  0  0  0  0
 49 48  1  0  0  0  0
 50 48  1  0  0  0  0
 51 48  1  0  0  0  0
 52 20  1  0  0  0  0
 53 52  1  0  0  0  0
 54 52  1  0  0  0  0
 55 52  1  0  0  0  0
 56  2  1  0  0  0  0
 57 56  1  0  0  0  0
 58 57  1  0  0  0  0
 59 57  1  0  0  0  0
 60 57  1  0  0  0  0
 61 56  1  0  0  0  0
 62 61  1  0  0  0  0
 63 61  1  0  0  0  0
 64 61  1  0  0  0  0
 65 56  1  0  0  0  0
 66 65  1  0  0  0  0
 67 65  1  0  0  0  0
 68 65  1  0  0  0  0
 69  2  1  0  0  0  0
 70 69  1  0  0  0  0
 71 70  1  0  0  0  0
 72 70  1  0  0  0  0
 73 70  1  0  0  0  0
 74 69  1  0  0  0  0
 75 74  1  0  0  0  0
 76 74  1  0  0  0  0
 77 74  1  0  0  0  0
 78 69  1  0  0  0  0
 79 78  1  0  0  0  0
 80 78  1  0  0  0  0
 81 78  1  0  0  0  0
 82 83  1  0  0  0  0
 84 82  1  0  0  0  0
 85 82  1  0  0  0  0
 86 21  1  0  0  0  0
 87 86  1  0  0  0  0
 88 86  1  0  0  0  0
 89 86  1  0  0  0  0
 90  1  1  0  0  0  0
 91 90  1  0  0  0  0
 92 90  1  0  0  0  0
 93 90  1  0  0  0  0
 94  2  1  0  0  0  0
 95 94  1  0  0  0  0
 96 94  1  0  0  0  0
 97 94  1  0  0  0  0
 98  3  1  0  0  0  0
  4 98  1  0  0  0  0
  5 98  1  0  0  0  0
 10 12  4  0  0  0  0
M  END
$$$$
COKPUN

From CSD data. Using bond type 'Any'. Matching problem. No disordered atoms. Largest molecule.
 80 84  0  0  0  0  0  0  0  0999 V2000
   19.1009    3.8550    3.4490 P   0  0  0  0  0  0  0  0  0  0  0  0
   19.8520    4.1481    0.7050 B   0  0  0  0  0  0  0  0  0  0  0  0
   18.9314    3.8550    1.9312 O   0  0  0  0  0  0  0  0  0  0  0  0
   19.8803    5.0081    4.0426 O   0  0  0  0  0  0  0  0  0  0  0  0
   17.4159    3.7930    4.0779 C   0  0  0  0  0  0  0  0  0  0  0  0
   16.3165    3.7224    3.2270 C   0  0  0  0  0  0  0  0  0  0  0  0
   15.0439    3.6668    3.7555 C   0  0  0  0  0  0  0  0  0  0  0  0
   14.8462    3.6539    5.1164 C   0  0  0  0  0  0  0  0  0  0  0  0
   15.9211    3.7224    5.9719 C   0  0  0  0  0  0  0  0  0  0  0  0
   17.2107    3.7866    5.4638 C   0  0  0  0  0  0  0  0  0  0  0  0
   19.9574    2.3789    3.9896 C   0  0  0  0  0  0  0  0  0  0  0  0
   19.7617    1.1745    3.3366 C   0  0  0  0  0  0  0  0  0  0  0  0
   20.4206    0.0471    3.7593 C   0  0  0  0  0  0  0  0  0  0  0  0
   21.2508    0.0770    4.8349 C   0  0  0  0  0  0  0  0  0  0  0  0
   21.4334    1.2558    5.5149 C   0  0  0  0  0  0  0  0  0  0  0  0
   20.7971    2.4024    5.0987 C   0  0  0  0  0  0  0  0  0  0  0  0
   21.3393    3.6561    0.9586 C   0  0  0  0  0  0  0  0  0  0  0  0
   22.2523    3.9021   -0.2387 C   0  0  0  0  0  0  0  0  0  0  0  0
   19.0689    3.5705   -0.5676 C   0  0  0  0  0  0  0  0  0  0  0  0
   18.9597    2.0494   -0.5982 C   0  0  0  0  0  0  0  0  0  0  0  0
   16.4219    3.7160    2.1941 H   0  0  0  0  0  0  0  0  0  0  0  0
   14.2663    3.5876    3.1313 H   0  0  0  0  0  0  0  0  0  0  0  0
   13.8635    3.5769    5.4917 H   0  0  0  0  0  0  0  0  0  0  0  0
   15.7837    3.7031    7.0216 H   0  0  0  0  0  0  0  0  0  0  0  0
   18.0014    3.8764    6.1149 H   0  0  0  0  0  0  0  0  0  0  0  0
   18.9804    1.1424    2.5591 H   0  0  0  0  0  0  0  0  0  0  0  0
   20.4093   -0.8707    3.2363 H   0  0  0  0  0  0  0  0  0  0  0  0
   21.7403   -0.7573    5.1823 H   0  0  0  0  0  0  0  0  0  0  0  0
   22.1959    1.3392    6.3156 H   0  0  0  0  0  0  0  0  0  0  0  0
   20.9025    3.3095    5.6059 H   0  0  0  0  0  0  0  0  0  0  0  0
   21.2640    2.6634    1.1165 H   0  0  0  0  0  0  0  0  0  0  0  0
   21.6932    4.0946    1.7723 H   0  0  0  0  0  0  0  0  0  0  0  0
   21.9361    3.4635   -1.0710 H   0  0  0  0  0  0  0  0  0  0  0  0
   22.3653    4.8969   -0.4152 H   0  0  0  0  0  0  0  0  0  0  0  0
   23.1993    3.5448   -0.0381 H   0  0  0  0  0  0  0  0  0  0  0  0
   19.4341    3.9171   -1.4528 H   0  0  0  0  0  0  0  0  0  0  0  0
   18.0748    3.9021   -0.5471 H   0  0  0  0  0  0  0  0  0  0  0  0
   20.0045    1.6280   -0.6354 H   0  0  0  0  0  0  0  0  0  0  0  0
   18.6453    1.6130    0.2694 H   0  0  0  0  0  0  0  0  0  0  0  0
   18.5398    1.5874   -1.3599 H   0  0  0  0  0  0  0  0  0  0  0  0
   19.8803    5.6884    0.6019 O   0  0  0  0  0  0  0  0  0  0  0  0
   19.8520    6.5484    3.9395 B   0  0  0  0  0  0  0  0  0  0  0  0
   19.1009    6.8415    1.1955 P   0  0  0  0  0  0  0  0  0  0  0  0
   18.9314    6.8415    2.7133 O   0  0  0  0  0  0  0  0  0  0  0  0
   21.3393    7.0404    3.6859 C   0  0  0  0  0  0  0  0  0  0  0  0
   19.0689    7.1260    5.2121 C   0  0  0  0  0  0  0  0  0  0  0  0
   17.4159    6.9035    0.5666 C   0  0  0  0  0  0  0  0  0  0  0  0
   19.9574    8.3176    0.6549 C   0  0  0  0  0  0  0  0  0  0  0  0
   22.2523    6.7944    4.8832 C   0  0  0  0  0  0  0  0  0  0  0  0
   21.2640    8.0331    3.5280 H   0  0  0  0  0  0  0  0  0  0  0  0
   21.6932    6.6019    2.8722 H   0  0  0  0  0  0  0  0  0  0  0  0
   18.9597    8.6471    5.2427 C   0  0  0  0  0  0  0  0  0  0  0  0
   19.4341    6.7794    6.0973 H   0  0  0  0  0  0  0  0  0  0  0  0
   18.0748    6.7944    5.1916 H   0  0  0  0  0  0  0  0  0  0  0  0
   16.3165    6.9741    1.4175 C   0  0  0  0  0  0  0  0  0  0  0  0
   17.2107    6.9099   -0.8193 C   0  0  0  0  0  0  0  0  0  0  0  0
   19.7617    9.5220    1.3079 C   0  0  0  0  0  0  0  0  0  0  0  0
   20.7971    8.2941   -0.4542 C   0  0  0  0  0  0  0  0  0  0  0  0
   21.9361    7.2330    5.7155 H   0  0  0  0  0  0  0  0  0  0  0  0
   22.3653    5.7996    5.0597 H   0  0  0  0  0  0  0  0  0  0  0  0
   23.1993    7.1517    4.6826 H   0  0  0  0  0  0  0  0  0  0  0  0
   20.0045    9.0685    5.2799 H   0  0  0  0  0  0  0  0  0  0  0  0
   18.6453    9.0835    4.3751 H   0  0  0  0  0  0  0  0  0  0  0  0
   18.5398    9.1091    6.0044 H   0  0  0  0  0  0  0  0  0  0  0  0
   15.0439    7.0297    0.8890 C   0  0  0  0  0  0  0  0  0  0  0  0
   16.4219    6.9805    2.4504 H   0  0  0  0  0  0  0  0  0  0  0  0
   15.9211    6.9741   -1.3274 C   0  0  0  0  0  0  0  0  0  0  0  0
   18.0014    6.8201   -1.4704 H   0  0  0  0  0  0  0  0  0  0  0  0
   20.4206   10.6494    0.8852 C   0  0  0  0  0  0  0  0  0  0  0  0
   18.9804    9.5541    2.0854 H   0  0  0  0  0  0  0  0  0  0  0  0
   21.4334    9.4407   -0.8704 C   0  0  0  0  0  0  0  0  0  0  0  0
   20.9025    7.3870   -0.9614 H   0  0  0  0  0  0  0  0  0  0  0  0
   14.8462    7.0426   -0.4719 C   0  0  0  0  0  0  0  0  0  0  0  0
   14.2663    7.1089    1.5132 H   0  0  0  0  0  0  0  0  0  0  0  0
   15.7837    6.9934   -2.3771 H   0  0  0  0  0  0  0  0  0  0  0  0
   21.2508   10.6195   -0.1904 C   0  0  0  0  0  0  0  0  0  0  0  0
   20.4093   11.5672    1.4082 H   0  0  0  0  0  0  0  0  0  0  0  0
   22.1959    9.3573   -1.6711 H   0  0  0  0  0  0  0  0  0  0  0  0
   13.8635    7.1196   -0.8472 H   0  0  0  0  0  0  0  0  0  0  0  0
   21.7403   11.4538   -0.5378 H   0  0  0  0  0  0  0  0  0  0  0  0
  1  3  8  0  0  0  0
  2  3  1  0  0  0  0
  4  1  8  0  0  0  0
  5  1  1  0  0  0  0
  6  5  4  0  0  0  0
  7  6  4  0  0  0  0
  8  7  4  0  0  0  0
  9  8  4  0  0  0  0
 10  5  4  0  0  0  0
 11  1  1  0  0  0  0
 12 11  4  0  0  0  0
 13 12  4  0  0  0  0
 14 13  4  0  0  0  0
 15 14  4  0  0  0  0
 16 11  4  0  0  0  0
 17  2  1  0  0  0  0
 18 17  1  0  0  0  0
 19  2  1  0  0  0  0
 20 19  1  0  0  0  0
 21  6  1  0  0  0  0
 22  7  1  0  0  0  0
 23  8  1  0  0  0  0
 24  9  1  0  0  0  0
 25 10  1  0  0  0  0
 26 12  1  0  0  0  0
 27 13  1  0  0  0  0
 28 14  1  0  0  0  0
 29 15  1  0  0  0  0
 30 16  1  0  0  0  0
 31 17  1  0  0  0  0
 32 17  1  0  0  0  0
 33 18  1  0  0  0  0
 34 18  1  0  0  0  0
 35 18  1  0  0  0  0
 36 19  1  0  0  0  0
 37 19  1  0  0  0  0
 38 20  1  0  0  0  0
 39 20  1  0  0  0  0
 40 20  1  0  0  0  0
 41  2  1  0  0  0  0
 42  4  1  0  0  0  0
 43 41  8  0  0  0  0
 44 42  1  0  0  0  0
 45 42  1  0  0  0  0
 46 42  1  0  0  0  0
 47 43  1  0  0  0  0
 48 43  1  0  0  0  0
 49 45  1  0  0  0  0
 50 45  1  0  0  0  0
 51 45  1  0  0  0  0
 52 46  1  0  0  0  0
 53 46  1  0  0  0  0
 54 46  1  0  0  0  0
 55 47  4  0  0  0  0
 56 47  4  0  0  0  0
 57 48  4  0  0  0  0
 58 48  4  0  0  0  0
 59 49  1  0  0  0  0
 60 49  1  0  0  0  0
 61 49  1  0  0  0  0
 62 52  1  0  0  0  0
 63 52  1  0  0  0  0
 64 52  1  0  0  0  0
 65 55  4  0  0  0  0
 66 55  1  0  0  0  0
 67 56  4  0  0  0  0
 68 56  1  0  0  0  0
 69 57  4  0  0  0  0
 70 57  1  0  0  0  0
 71 58  4  0  0  0  0
 72 58  1  0  0  0  0
 73 65  4  0  0  0  0
 74 65  1  0  0  0  0
 75 67  1  0  0  0  0
 76 69  4  0  0  0  0
 77 69  1  0  0  0  0
 78 71  1  0  0  0  0
 79 73  1  0  0  0  0
 80 76  1  0  0  0  0
  9 10  4  0  0  0  0
 15 16  4  0  0  0  0
 43 44  8  0  0  0  0
 67 73  4  0  0  0  0
 71 76  4  0  0  0  0
M  END
$$$$
COKRAV

From CSD data. Using bond type 'Any'. No disordered atoms. Largest molecule.
 76 82  0  0  0  0  0  0  0  0999 V2000
    0.8612    4.6227    6.9381 P   0  0  0  0  0  0  0  0  0  0  0  0
    2.5611    4.6227    3.7425 P   0  0  0  0  0  0  0  0  0  0  0  0
    1.5504    3.3654    6.6970 O   0  0  0  0  0  0  0  0  0  0  0  0
    1.9558    3.3413    4.2866 O   0  0  0  0  0  0  0  0  0  0  0  0
    2.2504    2.5444    5.5947 B   0  0  0  0  0  0  0  0  0  0  0  0
    3.7976    2.3983    5.8949 C   0  0  0  0  0  0  0  0  0  0  0  0
    4.4556    1.5939    4.7743 C   0  0  0  0  0  0  0  0  0  0  0  0
    3.7654    0.2811    4.3980 C   0  0  0  0  0  0  0  0  0  0  0  0
    2.2429    0.3458    4.3641 C   0  0  0  0  0  0  0  0  0  0  0  0
    1.6063    1.1095    5.5158 C   0  0  0  0  0  0  0  0  0  0  0  0
    1.7762    0.4160    6.8803 C   0  0  0  0  0  0  0  0  0  0  0  0
    3.2084    0.4050    7.4117 C   0  0  0  0  0  0  0  0  0  0  0  0
    3.9557    1.7160    7.2820 C   0  0  0  0  0  0  0  0  0  0  0  0
    0.3043    4.6228    8.6366 C   0  0  0  0  0  0  0  0  0  0  0  0
    0.0398    3.4301    9.2907 C   0  0  0  0  0  0  0  0  0  0  0  0
   -0.4656    3.4412   10.5607 C   0  0  0  0  0  0  0  0  0  0  0  0
   -0.7344    4.6228   11.1809 C   0  0  0  0  0  0  0  0  0  0  0  0
    2.3687    4.6227    1.9706 C   0  0  0  0  0  0  0  0  0  0  0  0
    2.3267    3.4430    1.2799 C   0  0  0  0  0  0  0  0  0  0  0  0
    2.2719    3.4486   -0.1029 C   0  0  0  0  0  0  0  0  0  0  0  0
    2.2267    4.6227   -0.7894 C   0  0  0  0  0  0  0  0  0  0  0  0
    0.0441    4.6227    6.0246 H   0  0  0  0  0  0  0  0  0  0  0  0
    3.6783    4.6227    3.9032 H   0  0  0  0  0  0  0  0  0  0  0  0
    4.2675    3.3154    5.9570 H   0  0  0  0  0  0  0  0  0  0  0  0
    5.3685    1.5440    4.8772 H   0  0  0  0  0  0  0  0  0  0  0  0
    4.5244    2.1080    3.9765 H   0  0  0  0  0  0  0  0  0  0  0  0
    4.1180   -0.4327    5.0901 H   0  0  0  0  0  0  0  0  0  0  0  0
    4.1019    0.0592    3.3915 H   0  0  0  0  0  0  0  0  0  0  0  0
    1.9386    0.7285    3.4507 H   0  0  0  0  0  0  0  0  0  0  0  0
    1.9977   -0.7175    4.2161 H   0  0  0  0  0  0  0  0  0  0  0  0
    0.5344    1.0725    5.4495 H   0  0  0  0  0  0  0  0  0  0  0  0
    1.1064    0.7785    7.5146 H   0  0  0  0  0  0  0  0  0  0  0  0
    1.5676   -0.5825    6.7252 H   0  0  0  0  0  0  0  0  0  0  0  0
    3.2761    0.1886    8.4365 H   0  0  0  0  0  0  0  0  0  0  0  0
    3.9084   -0.4216    6.9183 H   0  0  0  0  0  0  0  0  0  0  0  0
    5.0577    1.7696    7.5188 H   0  0  0  0  0  0  0  0  0  0  0  0
    3.3815    2.2707    7.8571 H   0  0  0  0  0  0  0  0  0  0  0  0
    0.3828    2.5370    8.8495 H   0  0  0  0  0  0  0  0  0  0  0  0
   -0.7623    2.5370   10.9822 H   0  0  0  0  0  0  0  0  0  0  0  0
   -1.2537    4.6228   12.2128 H   0  0  0  0  0  0  0  0  0  0  0  0
    2.4289    2.4667    1.6154 H   0  0  0  0  0  0  0  0  0  0  0  0
    1.8203    2.6146   -0.5836 H   0  0  0  0  0  0  0  0  0  0  0  0
    2.1450    4.6227   -1.8395 H   0  0  0  0  0  0  0  0  0  0  0  0
    1.5504    5.8801    6.6970 O   0  0  0  0  0  0  0  0  0  0  0  0
    1.9558    5.9042    4.2866 O   0  0  0  0  0  0  0  0  0  0  0  0
    0.0398    5.8154    9.2907 C   0  0  0  0  0  0  0  0  0  0  0  0
   -0.4656    5.8043   10.5607 C   0  0  0  0  0  0  0  0  0  0  0  0
    2.3267    5.8025    1.2799 C   0  0  0  0  0  0  0  0  0  0  0  0
    2.2719    5.7969   -0.1029 C   0  0  0  0  0  0  0  0  0  0  0  0
    2.2504    6.7011    5.5947 B   0  0  0  0  0  0  0  0  0  0  0  0
    0.3828    6.7085    8.8495 H   0  0  0  0  0  0  0  0  0  0  0  0
   -0.7623    6.7085   10.9822 H   0  0  0  0  0  0  0  0  0  0  0  0
    2.4289    6.7788    1.6154 H   0  0  0  0  0  0  0  0  0  0  0  0
    1.8203    6.6309   -0.5836 H   0  0  0  0  0  0  0  0  0  0  0  0
    3.7976    6.8472    5.8949 C   0  0  0  0  0  0  0  0  0  0  0  0
    1.6063    8.1360    5.5158 C   0  0  0  0  0  0  0  0  0  0  0  0
    4.4556    7.6516    4.7743 C   0  0  0  0  0  0  0  0  0  0  0  0
    3.9557    7.5295    7.2820 C   0  0  0  0  0  0  0  0  0  0  0  0
    4.2675    5.9301    5.9570 H   0  0  0  0  0  0  0  0  0  0  0  0
    2.2429    8.8997    4.3641 C   0  0  0  0  0  0  0  0  0  0  0  0
    1.7762    8.8295    6.8803 C   0  0  0  0  0  0  0  0  0  0  0  0
    0.5344    8.1730    5.4495 H   0  0  0  0  0  0  0  0  0  0  0  0
    3.7654    8.9644    4.3980 C   0  0  0  0  0  0  0  0  0  0  0  0
    5.3685    7.7015    4.8772 H   0  0  0  0  0  0  0  0  0  0  0  0
    4.5244    7.1375    3.9765 H   0  0  0  0  0  0  0  0  0  0  0  0
    3.2084    8.8405    7.4117 C   0  0  0  0  0  0  0  0  0  0  0  0
    5.0577    7.4759    7.5188 H   0  0  0  0  0  0  0  0  0  0  0  0
    3.3815    6.9748    7.8571 H   0  0  0  0  0  0  0  0  0  0  0  0
    1.9386    8.5170    3.4507 H   0  0  0  0  0  0  0  0  0  0  0  0
    1.9977    9.9630    4.2161 H   0  0  0  0  0  0  0  0  0  0  0  0
    1.1064    8.4670    7.5146 H   0  0  0  0  0  0  0  0  0  0  0  0
    1.5676    9.8280    6.7252 H   0  0  0  0  0  0  0  0  0  0  0  0
    4.1180    9.6782    5.0901 H   0  0  0  0  0  0  0  0  0  0  0  0
    4.1019    9.1863    3.3915 H   0  0  0  0  0  0  0  0  0  0  0  0
    3.2761    9.0569    8.4365 H   0  0  0  0  0  0  0  0  0  0  0  0
    3.9084    9.6671    6.9183 H   0  0  0  0  0  0  0  0  0  0  0  0
  1  3  8  0  0  0  0
  2  4  8  0  0  0  0
  3  5  1  0  0  0  0
  4  5  1  0  0  0  0
  5  6  1  0  0  0  0
  6  7  1  0  0  0  0
  7  8  1  0  0  0  0
  8  9  1  0  0  0  0
  9 10  1  0  0  0  0
 10  5  1  0  0  0  0
 11 10  1  0  0  0  0
 12 11  1  0  0  0  0
 13  6  1  0  0  0  0
 14  1  1  0  0  0  0
 15 14  4  0  0  0  0
 16 15  4  0  0  0  0
 17 16  4  0  0  0  0
 18  2  1  0  0  0  0
 19 18  4  0  0  0  0
 20 19  4  0  0  0  0
 21 20  4  0  0  0  0
 22  1  1  0  0  0  0
 23  2  1  0  0  0  0
 24  6  1  0  0  0  0
 25  7  1  0  0  0  0
 26  7  1  0  0  0  0
 27  8  1  0  0  0  0
 28  8  1  0  0  0  0
 29  9  1  0  0  0  0
 30  9  1  0  0  0  0
 31 10  1  0  0  0  0
 32 11  1  0  0  0  0
 33 11  1  0  0  0  0
 34 12  1  0  0  0  0
 35 12  1  0  0  0  0
 36 13  1  0  0  0  0
 37 13  1  0  0  0  0
 38 15  1  0  0  0  0
 39 16  1  0  0  0  0
 40 17  1  0  0  0  0
 41 19  1  0  0  0  0
 42 20  1  0  0  0  0
 43 21  1  0  0  0  0
 44  1  8  0  0  0  0
 45  2  8  0  0  0  0
 46 14  4  0  0  0  0
 47 17  4  0  0  0  0
 48 18  4  0  0  0  0
 49 21  4  0  0  0  0
 50 44  1  0  0  0  0
 51 46  1  0  0  0  0
 52 47  1  0  0  0  0
 53 48  1  0  0  0  0
 54 49  1  0  0  0  0
 55 50  1  0  0  0  0
 56 50  1  0  0  0  0
 57 55  1  0  0  0  0
 58 55  1  0  0  0  0
 59 55  1  0  0  0  0
 60 56  1  0  0  0  0
 61 56  1  0  0  0  0
 62 56  1  0  0  0  0
 63 57  1  0  0  0  0
 64 57  1  0  0  0  0
 65 57  1  0  0  0  0
 66 58  1  0  0  0  0
 67 58  1  0  0  0  0
 68 58  1  0  0  0  0
 69 60  1  0  0  0  0
 70 60  1  0  0  0  0
 71 61  1  0  0  0  0
 72 61  1  0  0  0  0
 73 63  1  0  0  0  0
 74 63  1  0  0  0  0
 75 66  1  0  0  0  0
 76 66  1  0  0  0  0
 12 13  1  0  0  0  0
 45 50  1  0  0  0  0
 46 47  4  0  0  0  0
 48 49  4  0  0  0  0
 60 63  1  0  0  0  0
 61 66  1  0  0  0  0
M  END
$$$$
COKTEB

From CSD data. Using bond type 'Any'. No disordered atoms. Largest molecule.
103125  0  0  0  0  0  0  0  0999 V2000
    2.4343    3.1082    3.1231 Ru  0  0  0  0  0  0  0  0  0  0  0  0
    4.4256    4.0580    1.8799 P   0  0  0  0  0  0  0  0  0  0  0  0
    3.7141    1.5051    4.5729 P   0  0  0  0  0  0  0  0  0  0  0  0
    1.7183    4.3846    4.5660 B   0  0  0  0  0  0  0  0  0  0  0  0
    1.1565    5.0800    2.9607 B   0  0  0  0  0  0  0  0  0  0  0  0
    0.8295    4.0930    1.6371 B   0  0  0  0  0  0  0  0  0  0  0  0
    1.1162    2.3685    1.7592 B   0  0  0  0  0  0  0  0  0  0  0  0
    0.3801    1.9671    3.3353 B   0  0  0  0  0  0  0  0  0  0  0  0
    0.6412    2.9635    4.6867 B   0  0  0  0  0  0  0  0  0  0  0  0
    0.0007    4.6437    4.3426 B   0  0  0  0  0  0  0  0  0  0  0  0
   -0.5165    4.5830    2.6735 B   0  0  0  0  0  0  0  0  0  0  0  0
   -0.4953    2.9262    2.0506 B   0  0  0  0  0  0  0  0  0  0  0  0
   -0.8414    3.2156    3.7516 B   0  0  0  0  0  0  0  0  0  0  0  0
    2.5796    4.9144    5.4955 O   0  0  0  0  0  0  0  0  0  0  0  0
    2.1256    5.5141    6.6679 C   0  0  0  0  0  0  0  0  0  0  0  0
    2.7379    6.3261    7.2298 C   0  0  0  0  0  0  0  0  0  0  0  0
    1.6336    1.5144    0.8255 O   0  0  0  0  0  0  0  0  0  0  0  0
    1.3301    1.7011   -0.5591 C   0  0  0  0  0  0  0  0  0  0  0  0
    1.9807    0.7887   -1.3846 C   0  0  0  0  0  0  0  0  0  0  0  0
    6.0059    3.1316    2.0395 C   0  0  0  0  0  0  0  0  0  0  0  0
    7.1675    3.7476    2.5057 C   0  0  0  0  0  0  0  0  0  0  0  0
    8.3526    3.0172    2.6014 C   0  0  0  0  0  0  0  0  0  0  0  0
    8.3748    1.6708    2.2310 C   0  0  0  0  0  0  0  0  0  0  0  0
    7.2118    1.0571    1.7662 C   0  0  0  0  0  0  0  0  0  0  0  0
    6.0268    1.7875    1.6691 C   0  0  0  0  0  0  0  0  0  0  0  0
    4.2136    4.1770    0.0416 C   0  0  0  0  0  0  0  0  0  0  0  0
    4.9096    3.3696   -0.8588 C   0  0  0  0  0  0  0  0  0  0  0  0
    4.6928    3.5049   -2.2296 C   0  0  0  0  0  0  0  0  0  0  0  0
    3.7803    4.4500   -2.7013 C   0  0  0  0  0  0  0  0  0  0  0  0
    3.0857    5.2574   -1.8009 C   0  0  0  0  0  0  0  0  0  0  0  0
    3.3011    5.1220   -0.4301 C   0  0  0  0  0  0  0  0  0  0  0  0
    4.9301    5.7917    2.2837 C   0  0  0  0  0  0  0  0  0  0  0  0
    5.5642    6.5851    1.3264 C   0  0  0  0  0  0  0  0  0  0  0  0
    6.0089    7.8639    1.6621 C   0  0  0  0  0  0  0  0  0  0  0  0
    5.8207    8.3493    2.9566 C   0  0  0  0  0  0  0  0  0  0  0  0
    5.1867    7.5582    3.9139 C   0  0  0  0  0  0  0  0  0  0  0  0
    4.7407    6.2794    3.5767 C   0  0  0  0  0  0  0  0  0  0  0  0
    5.3465    2.1282    5.1917 C   0  0  0  0  0  0  0  0  0  0  0  0
    6.5190    1.3721    5.1556 C   0  0  0  0  0  0  0  0  0  0  0  0
    7.6965    1.8831    5.7023 C   0  0  0  0  0  0  0  0  0  0  0  0
    7.7014    3.1526    6.2850 C   0  0  0  0  0  0  0  0  0  0  0  0
    6.5288    3.9063    6.3210 C   0  0  0  0  0  0  0  0  0  0  0  0
    5.3514    3.3952    5.7744 C   0  0  0  0  0  0  0  0  0  0  0  0
    2.8713    0.9801    6.1379 C   0  0  0  0  0  0  0  0  0  0  0  0
    1.9245   -0.0420    6.0616 C   0  0  0  0  0  0  0  0  0  0  0  0
    1.1993   -0.4084    7.1965 C   0  0  0  0  0  0  0  0  0  0  0  0
    1.4197    0.2497    8.4063 C   0  0  0  0  0  0  0  0  0  0  0  0
    2.3652    1.2741    8.4826 C   0  0  0  0  0  0  0  0  0  0  0  0
    3.0904    1.6381    7.3477 C   0  0  0  0  0  0  0  0  0  0  0  0
    4.0223   -0.1470    3.8209 C   0  0  0  0  0  0  0  0  0  0  0  0
    3.6198   -0.4037    2.5112 C   0  0  0  0  0  0  0  0  0  0  0  0
    3.8710   -1.6498    1.9354 C   0  0  0  0  0  0  0  0  0  0  0  0
    4.5246   -2.6369    2.6708 C   0  0  0  0  0  0  0  0  0  0  0  0
    4.9271   -2.3802    3.9819 C   0  0  0  0  0  0  0  0  0  0  0  0
    4.6760   -1.1341    4.5563 C   0  0  0  0  0  0  0  0  0  0  0  0
    1.5427    6.2001    2.7540 H   0  0  0  0  0  0  0  0  0  0  0  0
    0.9941    4.4196    0.6105 H   0  0  0  0  0  0  0  0  0  0  0  0
    0.2270    0.9404    3.4782 H   0  0  0  0  0  0  0  0  0  0  0  0
    0.7256    2.4968    5.7716 H   0  0  0  0  0  0  0  0  0  0  0  0
   -0.4268    5.3414    5.0973 H   0  0  0  0  0  0  0  0  0  0  0  0
   -1.3300    5.2994    2.3530 H   0  0  0  0  0  0  0  0  0  0  0  0
   -1.1975    2.5785    1.3999 H   0  0  0  0  0  0  0  0  0  0  0  0
   -1.8951    3.0125    4.3273 H   0  0  0  0  0  0  0  0  0  0  0  0
    1.7345    4.7300    7.4060 H   0  0  0  0  0  0  0  0  0  0  0  0
    1.2104    6.2398    6.4237 H   0  0  0  0  0  0  0  0  0  0  0  0
    2.4611    6.7672    8.1677 H   0  0  0  0  0  0  0  0  0  0  0  0
    3.0948    6.7975    6.5763 H   0  0  0  0  0  0  0  0  0  0  0  0
    3.5379    5.6354    7.6183 H   0  0  0  0  0  0  0  0  0  0  0  0
    1.6254    2.7115   -0.8602 H   0  0  0  0  0  0  0  0  0  0  0  0
    0.2599    1.4911   -0.7548 H   0  0  0  0  0  0  0  0  0  0  0  0
    1.8826    0.7981   -2.4391 H   0  0  0  0  0  0  0  0  0  0  0  0
    1.4812   -0.0723   -0.9809 H   0  0  0  0  0  0  0  0  0  0  0  0
    3.0425    0.8261   -1.0378 H   0  0  0  0  0  0  0  0  0  0  0  0
    7.1507    4.7883    2.7915 H   0  0  0  0  0  0  0  0  0  0  0  0
    9.2526    3.4909    2.9621 H   0  0  0  0  0  0  0  0  0  0  0  0
    9.2916    1.1061    2.3059 H   0  0  0  0  0  0  0  0  0  0  0  0
    7.2287    0.0163    1.4790 H   0  0  0  0  0  0  0  0  0  0  0  0
    5.1268    1.3114    1.3083 H   0  0  0  0  0  0  0  0  0  0  0  0
    5.6154    2.6392   -0.4925 H   0  0  0  0  0  0  0  0  0  0  0  0
    5.2318    2.8795   -2.9260 H   0  0  0  0  0  0  0  0  0  0  0  0
    3.6133    4.5550   -3.7627 H   0  0  0  0  0  0  0  0  0  0  0  0
    2.3784    5.9901   -2.1657 H   0  0  0  0  0  0  0  0  0  0  0  0
    2.7634    5.7474    0.2664 H   0  0  0  0  0  0  0  0  0  0  0  0
    5.7102    6.2071    0.3247 H   0  0  0  0  0  0  0  0  0  0  0  0
    6.4996    8.4776    0.9212 H   0  0  0  0  0  0  0  0  0  0  0  0
    6.1643    9.3410    3.2160 H   0  0  0  0  0  0  0  0  0  0  0  0
    5.0394    7.9339    4.9142 H   0  0  0  0  0  0  0  0  0  0  0  0
    4.2500    5.6657    4.3176 H   0  0  0  0  0  0  0  0  0  0  0  0
    6.5149    0.3920    4.7047 H   0  0  0  0  0  0  0  0  0  0  0  0
    8.6040    1.2998    5.6745 H   0  0  0  0  0  0  0  0  0  0  0  0
    8.6118    3.5493    6.7081 H   0  0  0  0  0  0  0  0  0  0  0  0
    6.5316    4.8887    6.7720 H   0  0  0  0  0  0  0  0  0  0  0  0
    4.4438    3.9810    5.8022 H   0  0  0  0  0  0  0  0  0  0  0  0
    1.7549   -0.5530    5.1251 H   0  0  0  0  0  0  0  0  0  0  0  0
    0.4674   -1.1994    7.1382 H   0  0  0  0  0  0  0  0  0  0  0  0
    0.8574   -0.0327    9.2846 H   0  0  0  0  0  0  0  0  0  0  0  0
    2.5349    1.7828    9.4191 H   0  0  0  0  0  0  0  0  0  0  0  0
    3.8223    2.4292    7.4074 H   0  0  0  0  0  0  0  0  0  0  0  0
    3.1140    0.3617    1.9410 H   0  0  0  0  0  0  0  0  0  0  0  0
    3.5583   -1.8481    0.9212 H   0  0  0  0  0  0  0  0  0  0  0  0
    4.7191   -3.6029    2.2254 H   0  0  0  0  0  0  0  0  0  0  0  0
    5.4329   -3.1456    4.5507 H   0  0  0  0  0  0  0  0  0  0  0  0
    4.9872   -0.9357    5.5718 H   0  0  0  0  0  0  0  0  0  0  0  0
  1  2  1  0  0  0  0
  2 20  1  0  0  0  0
  3  1  1  0  0  0  0
  4  1  1  0  0  0  0
  5  1  1  0  0  0  0
  6  1  1  0  0  0  0
  7  1  1  0  0  0  0
  8  1  1  0  0  0  0
  9  1  1  0  0  0  0
 10  4  1  0  0  0  0
 11  5  1  0  0  0  0
 12  6  1  0  0  0  0
 13  8  1  0  0  0  0
 14  4  1  0  0  0  0
 15 14  1  0  0  0  0
 16 15  1  0  0  0  0
 17  7  1  0  0  0  0
 18 17  1  0  0  0  0
 19 18  1  0  0  0  0
 20 21  4  0  0  0  0
 21 22  4  0  0  0  0
 22 23  4  0  0  0  0
 23 24  4  0  0  0  0
 24 25  4  0  0  0  0
 25 20  4  0  0  0  0
 26  2  1  0  0  0  0
 27 26  4  0  0  0  0
 28 27  4  0  0  0  0
 29 28  4  0  0  0  0
 30 29  4  0  0  0  0
 31 26  4  0  0  0  0
 32  2  1  0  0  0  0
 33 32  4  0  0  0  0
 34 33  4  0  0  0  0
 35 34  4  0  0  0  0
 36 35  4  0  0  0  0
 37 32  4  0  0  0  0
 38  3  1  0  0  0  0
 39 38  4  0  0  0  0
 40 39  4  0  0  0  0
 41 40  4  0  0  0  0
 42 41  4  0  0  0  0
 43 38  4  0  0  0  0
 44  3  1  0  0  0  0
 45 44  4  0  0  0  0
 46 45  4  0  0  0  0
 47 46  4  0  0  0  0
 48 47  4  0  0  0  0
 49 44  4  0  0  0  0
 50  3  1  0  0  0  0
 51 50  4  0  0  0  0
 52 51  4  0  0  0  0
 53 52  4  0  0  0  0
 54 53  4  0  0  0  0
 55 50  4  0  0  0  0
 56  5  1  0  0  0  0
 57  6  1  0  0  0  0
 58  8  1  0  0  0  0
 59  9  1  0  0  0  0
 60 10  1  0  0  0  0
 61 11  1  0  0  0  0
 62 12  1  0  0  0  0
 63 13  1  0  0  0  0
 64 15  1  0  0  0  0
 65 15  1  0  0  0  0
 66 16  1  0  0  0  0
 67 16  1  0  0  0  0
 68 16  1  0  0  0  0
 69 18  1  0  0  0  0
 70 18  1  0  0  0  0
 71 19  1  0  0  0  0
 72 19  1  0  0  0  0
 73 19  1  0  0  0  0
 74 21  1  0  0  0  0
 75 22  1  0  0  0  0
 76 23  1  0  0  0  0
 77 24  1  0  0  0  0
 78 25  1  0  0  0  0
 79 27  1  0  0  0  0
 80 28  1  0  0  0  0
 81 29  1  0  0  0  0
 82 30  1  0  0  0  0
 83 31  1  0  0  0  0
 84 33  1  0  0  0  0
 85 34  1  0  0  0  0
 86 35  1  0  0  0  0
 87 36  1  0  0  0  0
 88 37  1  0  0  0  0
 89 39  1  0  0  0  0
 90 40  1  0  0  0  0
 91 41  1  0  0  0  0
 92 42  1  0  0  0  0
 93 43  1  0  0  0  0
 94 45  1  0  0  0  0
 95 46  1  0  0  0  0
 96 47  1  0  0  0  0
 97 48  1  0  0  0  0
 98 49  1  0  0  0  0
 99 51  1  0  0  0  0
100 52  1  0  0  0  0
101 53  1  0  0  0  0
102 54  1  0  0  0  0
103 55  1  0  0  0  0
  4  5  1  0  0  0  0
  4  9  1  0  0  0  0
  5  6  1  0  0  0  0
  5 10  1  0  0  0  0
  6  7  1  0  0  0  0
  6 11  1  0  0  0  0
  7  8  1  0  0  0  0
  7 12  1  0  0  0  0
  8  9  1  0  0  0  0
  8 12  1  0  0  0  0
  9 10  1  0  0  0  0
  9 13  1  0  0  0  0
 10 11  1  0  0  0  0
 10 13  1  0  0  0  0
 11 12  1  0  0  0  0
 11 13  1  0  0  0  0
 12 13  1  0  0  0  0
 30 31  4  0  0  0  0
 36 37  4  0  0  0  0
 42 43  4  0  0  0  0
 48 49  4  0  0  0  0
 54 55  4  0  0  0  0
M  END
$$$$
COKTEB10

From CSD data. Using bond type 'Any'. No disordered atoms. Largest molecule.
103125  0  0  0  0  0  0  0  0999 V2000
    2.4330    3.1082    3.1231 Ru  0  0  0  0  0  0  0  0  0  0  0  0
    4.4243    4.0580    1.8799 P   0  0  0  0  0  0  0  0  0  0  0  0
    3.7141    1.5051    4.5729 P   0  0  0  0  0  0  0  0  0  0  0  0
    1.7339    4.3870    4.5687 B   0  0  0  0  0  0  0  0  0  0  0  0
    1.1514    5.0777    2.9593 B   0  0  0  0  0  0  0  0  0  0  0  0
    0.8257    4.0906    1.6344 B   0  0  0  0  0  0  0  0  0  0  0  0
    1.1085    2.3662    1.7578 B   0  0  0  0  0  0  0  0  0  0  0  0
    0.3905    1.9671    3.3353 B   0  0  0  0  0  0  0  0  0  0  0  0
    0.6387    2.9659    4.6853 B   0  0  0  0  0  0  0  0  0  0  0  0
    0.0097    4.6437    4.3454 B   0  0  0  0  0  0  0  0  0  0  0  0
   -0.5322    4.5807    2.6735 B   0  0  0  0  0  0  0  0  0  0  0  0
   -0.5046    2.9285    2.0534 B   0  0  0  0  0  0  0  0  0  0  0  0
   -0.8493    3.2156    3.7516 B   0  0  0  0  0  0  0  0  0  0  0  0
    2.5795    4.9144    5.4969 O   0  0  0  0  0  0  0  0  0  0  0  0
    2.0930    5.4674    6.6873 C   0  0  0  0  0  0  0  0  0  0  0  0
    2.8680    6.4568    7.2007 C   0  0  0  0  0  0  0  0  0  0  0  0
    1.6348    1.5144    0.8269 O   0  0  0  0  0  0  0  0  0  0  0  0
    1.3072    1.7105   -0.5494 C   0  0  0  0  0  0  0  0  0  0  0  0
    2.0025    0.7677   -1.3777 C   0  0  0  0  0  0  0  0  0  0  0  0
    6.0071    3.1316    2.0409 C   0  0  0  0  0  0  0  0  0  0  0  0
    7.1701    3.7476    2.5057 C   0  0  0  0  0  0  0  0  0  0  0  0
    8.3553    3.0172    2.6000 C   0  0  0  0  0  0  0  0  0  0  0  0
    8.3775    1.6708    2.2296 C   0  0  0  0  0  0  0  0  0  0  0  0
    7.2145    1.0571    1.7648 C   0  0  0  0  0  0  0  0  0  0  0  0
    6.0293    1.7875    1.6704 C   0  0  0  0  0  0  0  0  0  0  0  0
    4.2097    4.0370    0.0416 C   0  0  0  0  0  0  0  0  0  0  0  0
    4.9030    3.3696   -0.8588 C   0  0  0  0  0  0  0  0  0  0  0  0
    4.6877    3.5073   -2.2310 C   0  0  0  0  0  0  0  0  0  0  0  0
    3.7777    4.4523   -2.7013 C   0  0  0  0  0  0  0  0  0  0  0  0
    3.0844    5.2620   -1.8009 C   0  0  0  0  0  0  0  0  0  0  0  0
    3.2998    5.1244   -0.4301 C   0  0  0  0  0  0  0  0  0  0  0  0
    4.9301    5.7917    2.2837 C   0  0  0  0  0  0  0  0  0  0  0  0
    5.5642    6.5851    1.3264 C   0  0  0  0  0  0  0  0  0  0  0  0
    6.0050    7.8662    1.6621 C   0  0  0  0  0  0  0  0  0  0  0  0
    5.8130    8.3539    2.9552 C   0  0  0  0  0  0  0  0  0  0  0  0
    5.1802    7.5605    3.9125 C   0  0  0  0  0  0  0  0  0  0  0  0
    4.7394    6.2794    3.5767 C   0  0  0  0  0  0  0  0  0  0  0  0
    5.3491    2.1282    5.1917 C   0  0  0  0  0  0  0  0  0  0  0  0
    6.5203    1.3721    5.1556 C   0  0  0  0  0  0  0  0  0  0  0  0
    7.6978    1.8831    5.7023 C   0  0  0  0  0  0  0  0  0  0  0  0
    7.7041    3.2202    6.2836 C   0  0  0  0  0  0  0  0  0  0  0  0
    6.5315    3.8433    6.3197 C   0  0  0  0  0  0  0  0  0  0  0  0
    5.3541    3.3952    5.7730 C   0  0  0  0  0  0  0  0  0  0  0  0
    2.8713    0.9824    6.1379 C   0  0  0  0  0  0  0  0  0  0  0  0
    1.9284   -0.0443    6.0630 C   0  0  0  0  0  0  0  0  0  0  0  0
    1.2045   -0.4107    7.1979 C   0  0  0  0  0  0  0  0  0  0  0  0
    1.4249    0.2474    8.4077 C   0  0  0  0  0  0  0  0  0  0  0  0
    2.3664    1.2741    8.4840 C   0  0  0  0  0  0  0  0  0  0  0  0
    3.0903    1.6405    7.3491 C   0  0  0  0  0  0  0  0  0  0  0  0
    4.0210   -0.1470    3.8209 C   0  0  0  0  0  0  0  0  0  0  0  0
    3.6185   -0.4037    2.5112 C   0  0  0  0  0  0  0  0  0  0  0  0
    3.8697   -1.6498    1.9354 C   0  0  0  0  0  0  0  0  0  0  0  0
    4.5233   -2.6392    2.6708 C   0  0  0  0  0  0  0  0  0  0  0  0
    4.9259   -2.3825    3.9805 C   0  0  0  0  0  0  0  0  0  0  0  0
    4.6747   -1.1364    4.5563 C   0  0  0  0  0  0  0  0  0  0  0  0
    1.5700    6.1978    2.7360 H   0  0  0  0  0  0  0  0  0  0  0  0
    0.9635    4.4220    0.5966 H   0  0  0  0  0  0  0  0  0  0  0  0
    0.2741    0.9311    3.4782 H   0  0  0  0  0  0  0  0  0  0  0  0
    0.6990    2.5295    5.7772 H   0  0  0  0  0  0  0  0  0  0  0  0
   -0.4420    5.3414    5.0890 H   0  0  0  0  0  0  0  0  0  0  0  0
   -1.3125    5.3390    2.3447 H   0  0  0  0  0  0  0  0  0  0  0  0
   -1.1638    2.5762    1.3832 H   0  0  0  0  0  0  0  0  0  0  0  0
   -1.9074    2.9985    4.3148 H   0  0  0  0  0  0  0  0  0  0  0  0
    1.7677    4.6670    7.3366 H   0  0  0  0  0  0  0  0  0  0  0  0
    1.2400    6.0601    6.3904 H   0  0  0  0  0  0  0  0  0  0  0  0
    2.2975    6.8138    8.0442 H   0  0  0  0  0  0  0  0  0  0  0  0
    3.1988    7.2969    6.6082 H   0  0  0  0  0  0  0  0  0  0  0  0
    3.7265    5.9061    7.5558 H   0  0  0  0  0  0  0  0  0  0  0  0
    1.6329    2.6999   -0.8338 H   0  0  0  0  0  0  0  0  0  0  0  0
    0.2405    1.6264   -0.6965 H   0  0  0  0  0  0  0  0  0  0  0  0
    1.7526    0.9591   -2.4113 H   0  0  0  0  0  0  0  0  0  0  0  0
    1.6791   -0.2287   -1.1085 H   0  0  0  0  0  0  0  0  0  0  0  0
    3.0714    0.8447   -1.2459 H   0  0  0  0  0  0  0  0  0  0  0  0
    7.1533    4.7883    2.7915 H   0  0  0  0  0  0  0  0  0  0  0  0
    9.2554    3.4932    2.9593 H   0  0  0  0  0  0  0  0  0  0  0  0
    9.2944    1.1061    2.3031 H   0  0  0  0  0  0  0  0  0  0  0  0
    7.2313    0.0163    1.4790 H   0  0  0  0  0  0  0  0  0  0  0  0
    5.1293    1.3114    1.3111 H   0  0  0  0  0  0  0  0  0  0  0  0
    5.6077    2.6345   -0.4939 H   0  0  0  0  0  0  0  0  0  0  0  0
    5.2241    2.8795   -2.9274 H   0  0  0  0  0  0  0  0  0  0  0  0
    3.6107    4.5597   -3.7627 H   0  0  0  0  0  0  0  0  0  0  0  0
    2.3797    5.9948   -2.1657 H   0  0  0  0  0  0  0  0  0  0  0  0
    2.7634    5.7521    0.2664 H   0  0  0  0  0  0  0  0  0  0  0  0
    5.7114    6.2071    0.3260 H   0  0  0  0  0  0  0  0  0  0  0  0
    6.4944    8.4799    0.9212 H   0  0  0  0  0  0  0  0  0  0  0  0
    6.1552    9.3433    3.2146 H   0  0  0  0  0  0  0  0  0  0  0  0
    5.0317    7.9386    4.9128 H   0  0  0  0  0  0  0  0  0  0  0  0
    4.2486    5.6657    4.3190 H   0  0  0  0  0  0  0  0  0  0  0  0
    6.5162    0.3897    4.7047 H   0  0  0  0  0  0  0  0  0  0  0  0
    8.6053    1.2974    5.6745 H   0  0  0  0  0  0  0  0  0  0  0  0
    8.6145    3.5469    6.7067 H   0  0  0  0  0  0  0  0  0  0  0  0
    6.5357    4.8887    6.7706 H   0  0  0  0  0  0  0  0  0  0  0  0
    4.4478    3.9810    5.8008 H   0  0  0  0  0  0  0  0  0  0  0  0
    1.7587   -0.5530    5.1265 H   0  0  0  0  0  0  0  0  0  0  0  0
    0.4751   -1.2041    7.1396 H   0  0  0  0  0  0  0  0  0  0  0  0
    0.8638   -0.0373    9.2873 H   0  0  0  0  0  0  0  0  0  0  0  0
    2.5361    1.7828    9.4205 H   0  0  0  0  0  0  0  0  0  0  0  0
    3.8198    2.4338    7.4060 H   0  0  0  0  0  0  0  0  0  0  0  0
    3.1127    0.3617    1.9410 H   0  0  0  0  0  0  0  0  0  0  0  0
    3.5584   -1.8481    0.9199 H   0  0  0  0  0  0  0  0  0  0  0  0
    4.7166   -3.6029    2.2240 H   0  0  0  0  0  0  0  0  0  0  0  0
    5.4316   -3.1479    4.5507 H   0  0  0  0  0  0  0  0  0  0  0  0
    4.9859   -0.9381    5.5718 H   0  0  0  0  0  0  0  0  0  0  0  0
  1  2  1  0  0  0  0
  2 20  1  0  0  0  0
  3  1  1  0  0  0  0
  4  1  1  0  0  0  0
  5  1  1  0  0  0  0
  6  1  1  0  0  0  0
  7  1  1  0  0  0  0
  8  1  1  0  0  0  0
  9  1  1  0  0  0  0
 10  4  1  0  0  0  0
 11  5  1  0  0  0  0
 12  6  1  0  0  0  0
 13  8  1  0  0  0  0
 14  4  1  0  0  0  0
 15 14  1  0  0  0  0
 16 15  1  0  0  0  0
 17  7  1  0  0  0  0
 18 17  1  0  0  0  0
 19 18  1  0  0  0  0
 20 21  4  0  0  0  0
 21 22  4  0  0  0  0
 22 23  4  0  0  0  0
 23 24  4  0  0  0  0
 24 25  4  0  0  0  0
 25 20  4  0  0  0  0
 26  2  1  0  0  0  0
 27 26  4  0  0  0  0
 28 27  4  0  0  0  0
 29 28  4  0  0  0  0
 30 29  4  0  0  0  0
 31 26  4  0  0  0  0
 32  2  1  0  0  0  0
 33 32  4  0  0  0  0
 34 33  4  0  0  0  0
 35 34  4  0  0  0  0
 36 35  4  0  0  0  0
 37 32  4  0  0  0  0
 38  3  1  0  0  0  0
 39 38  4  0  0  0  0
 40 39  4  0  0  0  0
 41 40  4  0  0  0  0
 42 41  4  0  0  0  0
 43 38  4  0  0  0  0
 44  3  1  0  0  0  0
 45 44  4  0  0  0  0
 46 45  4  0  0  0  0
 47 46  4  0  0  0  0
 48 47  4  0  0  0  0
 49 44  4  0  0  0  0
 50  3  1  0  0  0  0
 51 50  4  0  0  0  0
 52 51  4  0  0  0  0
 53 52  4  0  0  0  0
 54 53  4  0  0  0  0
 55 50  4  0  0  0  0
 56  5  1  0  0  0  0
 57  6  1  0  0  0  0
 58  8  1  0  0  0  0
 59  9  1  0  0  0  0
 60 10  1  0  0  0  0
 61 11  1  0  0  0  0
 62 12  1  0  0  0  0
 63 13  1  0  0  0  0
 64 15  1  0  0  0  0
 65 15  1  0  0  0  0
 66 16  1  0  0  0  0
 67 16  1  0  0  0  0
 68 16  1  0  0  0  0
 69 18  1  0  0  0  0
 70 18  1  0  0  0  0
 71 19  1  0  0  0  0
 72 19  1  0  0  0  0
 73 19  1  0  0  0  0
 74 21  1  0  0  0  0
 75 22  1  0  0  0  0
 76 23  1  0  0  0  0
 77 24  1  0  0  0  0
 78 25  1  0  0  0  0
 79 27  1  0  0  0  0
 80 28  1  0  0  0  0
 81 29  1  0  0  0  0
 82 30  1  0  0  0  0
 83 31  1  0  0  0  0
 84 33  1  0  0  0  0
 85 34  1  0  0  0  0
 86 35  1  0  0  0  0
 87 36  1  0  0  0  0
 88 37  1  0  0  0  0
 89 39  1  0  0  0  0
 90 40  1  0  0  0  0
 91 41  1  0  0  0  0
 92 42  1  0  0  0  0
 93 43  1  0  0  0  0
 94 45  1  0  0  0  0
 95 46  1  0  0  0  0
 96 47  1  0  0  0  0
 97 48  1  0  0  0  0
 98 49  1  0  0  0  0
 99 51  1  0  0  0  0
100 52  1  0  0  0  0
101 53  1  0  0  0  0
102 54  1  0  0  0  0
103 55  1  0  0  0  0
  4  5  1  0  0  0  0
  4  9  1  0  0  0  0
  5  6  1  0  0  0  0
  5 10  1  0  0  0  0
  6  7  1  0  0  0  0
  6 11  1  0  0  0  0
  7  8  1  0  0  0  0
  7 12  1  0  0  0  0
  8  9  1  0  0  0  0
  8 12  1  0  0  0  0
  9 10  1  0  0  0  0
  9 13  1  0  0  0  0
 10 11  1  0  0  0  0
 10 13  1  0  0  0  0
 11 12  1  0  0  0  0
 11 13  1  0  0  0  0
 12 13  1  0  0  0  0
 30 31  4  0  0  0  0
 36 37  4  0  0  0  0
 42 43  4  0  0  0  0
 48 49  4  0  0  0  0
 54 55  4  0  0  0  0
M  END
$$$$
COKTEB20

From CSD data. Using bond type 'Any'. No disordered atoms. Largest molecule.
 55 77  0  0  0  0  0  0  0  0999 V2000
    2.4342    3.1082    3.1244 Ru  0  0  0  0  0  0  0  0  0  0  0  0
    4.4295    4.0580    1.8799 P   0  0  0  0  0  0  0  0  0  0  0  0
    3.7154    1.5051    4.5729 P   0  0  0  0  0  0  0  0  0  0  0  0
    1.6837    4.3823    4.5549 B   0  0  0  0  0  0  0  0  0  0  0  0
    1.1582    5.1150    2.9552 B   0  0  0  0  0  0  0  0  0  0  0  0
    0.8153    4.1023    1.6330 B   0  0  0  0  0  0  0  0  0  0  0  0
    1.0887    2.3755    1.7592 B   0  0  0  0  0  0  0  0  0  0  0  0
    0.3640    1.9485    3.3409 B   0  0  0  0  0  0  0  0  0  0  0  0
    0.6218    2.9589    4.7033 B   0  0  0  0  0  0  0  0  0  0  0  0
   -0.0235    4.6763    4.3523 B   0  0  0  0  0  0  0  0  0  0  0  0
   -0.5400    4.5947    2.6527 B   0  0  0  0  0  0  0  0  0  0  0  0
   -0.5059    2.9169    2.0326 B   0  0  0  0  0  0  0  0  0  0  0  0
   -0.8448    3.2109    3.7627 B   0  0  0  0  0  0  0  0  0  0  0  0
    2.5733    4.9097    5.4914 O   0  0  0  0  0  0  0  0  0  0  0  0
    2.0154    5.4954    6.7747 C   0  0  0  0  0  0  0  0  0  0  0  0
    2.8263    6.3681    7.1771 C   0  0  0  0  0  0  0  0  0  0  0  0
    1.6336    1.5051    0.8255 O   0  0  0  0  0  0  0  0  0  0  0  0
    1.2979    1.7011   -0.6091 C   0  0  0  0  0  0  0  0  0  0  0  0
    1.9818    0.7561   -1.3819 C   0  0  0  0  0  0  0  0  0  0  0  0
    6.0077    3.1222    2.0312 C   0  0  0  0  0  0  0  0  0  0  0  0
    7.1679    3.7383    2.5001 C   0  0  0  0  0  0  0  0  0  0  0  0
    8.3542    3.0125    2.5972 C   0  0  0  0  0  0  0  0  0  0  0  0
    8.3817    1.6685    2.2254 C   0  0  0  0  0  0  0  0  0  0  0  0
    7.2229    1.0501    1.7565 C   0  0  0  0  0  0  0  0  0  0  0  0
    6.0362    1.7781    1.6441 C   0  0  0  0  0  0  0  0  0  0  0  0
    4.2153    4.1793    0.0361 C   0  0  0  0  0  0  0  0  0  0  0  0
    4.9152    3.3766   -0.8644 C   0  0  0  0  0  0  0  0  0  0  0  0
    4.6971    3.5096   -2.2351 C   0  0  0  0  0  0  0  0  0  0  0  0
    3.7793    4.4500   -2.7068 C   0  0  0  0  0  0  0  0  0  0  0  0
    3.0782    5.2527   -1.8064 C   0  0  0  0  0  0  0  0  0  0  0  0
    3.2975    5.1174   -0.4356 C   0  0  0  0  0  0  0  0  0  0  0  0
    4.9353    5.7941    2.2851 C   0  0  0  0  0  0  0  0  0  0  0  0
    5.5609    6.5875    1.3375 C   0  0  0  0  0  0  0  0  0  0  0  0
    6.0065    7.8662    1.6580 C   0  0  0  0  0  0  0  0  0  0  0  0
    5.8235    8.3539    2.9538 C   0  0  0  0  0  0  0  0  0  0  0  0
    5.1971    7.5605    3.9139 C   0  0  0  0  0  0  0  0  0  0  0  0
    4.7541    6.1394    3.5518 C   0  0  0  0  0  0  0  0  0  0  0  0
    5.3519    2.1305    5.1889 C   0  0  0  0  0  0  0  0  0  0  0  0
    6.5235    1.3744    5.1459 C   0  0  0  0  0  0  0  0  0  0  0  0
    7.6745    1.8831    5.6967 C   0  0  0  0  0  0  0  0  0  0  0  0
    7.7063    3.1456    6.2905 C   0  0  0  0  0  0  0  0  0  0  0  0
    6.5355    3.8993    6.3197 C   0  0  0  0  0  0  0  0  0  0  0  0
    5.3575    3.3929    5.7813 C   0  0  0  0  0  0  0  0  0  0  0  0
    2.8687    0.9731    6.1379 C   0  0  0  0  0  0  0  0  0  0  0  0
    1.9113   -0.0397    6.0644 C   0  0  0  0  0  0  0  0  0  0  0  0
    1.1772   -0.3967    7.1951 C   0  0  0  0  0  0  0  0  0  0  0  0
    1.4167    0.2590    8.1247 C   0  0  0  0  0  0  0  0  0  0  0  0
    2.3545    1.2718    8.4868 C   0  0  0  0  0  0  0  0  0  0  0  0
    3.0846    1.5821    7.4393 C   0  0  0  0  0  0  0  0  0  0  0  0
    4.0290   -0.1447    3.8182 C   0  0  0  0  0  0  0  0  0  0  0  0
    3.5775   -0.4060    2.5168 C   0  0  0  0  0  0  0  0  0  0  0  0
    3.8875   -1.6521    1.9438 C   0  0  0  0  0  0  0  0  0  0  0  0
    4.5618   -2.6252    2.5390 C   0  0  0  0  0  0  0  0  0  0  0  0
    4.9271   -2.3802    3.9819 C   0  0  0  0  0  0  0  0  0  0  0  0
    4.6760   -1.1341    4.5563 C   0  0  0  0  0  0  0  0  0  0  0  0
  1  2  1  0  0  0  0
  2 20  1  0  0  0  0
  3  1  1  0  0  0  0
  4  1  1  0  0  0  0
  5  1  1  0  0  0  0
  6  1  1  0  0  0  0
  7  1  1  0  0  0  0
  8  1  1  0  0  0  0
  9  1  1  0  0  0  0
 10  4  1  0  0  0  0
 11  5  1  0  0  0  0
 12  6  1  0  0  0  0
 13  8  1  0  0  0  0
 14  4  1  0  0  0  0
 15 14  1  0  0  0  0
 16 15  1  0  0  0  0
 17  7  1  0  0  0  0
 18 17  1  0  0  0  0
 19 18  1  0  0  0  0
 20 21  4  0  0  0  0
 21 22  4  0  0  0  0
 22 23  4  0  0  0  0
 23 24  4  0  0  0  0
 24 25  4  0  0  0  0
 25 20  4  0  0  0  0
 26  2  1  0  0  0  0
 27 26  4  0  0  0  0
 28 27  4  0  0  0  0
 29 28  4  0  0  0  0
 30 29  4  0  0  0  0
 31 26  4  0  0  0  0
 32  2  1  0  0  0  0
 33 32  4  0  0  0  0
 34 33  4  0  0  0  0
 35 34  4  0  0  0  0
 36 35  4  0  0  0  0
 37 32  4  0  0  0  0
 38  3  1  0  0  0  0
 39 38  4  0  0  0  0
 40 39  4  0  0  0  0
 41 40  4  0  0  0  0
 42 41  4  0  0  0  0
 43 38  4  0  0  0  0
 44  3  1  0  0  0  0
 45 44  4  0  0  0  0
 46 45  4  0  0  0  0
 47 46  4  0  0  0  0
 48 47  4  0  0  0  0
 49 44  4  0  0  0  0
 50  3  1  0  0  0  0
 51 50  4  0  0  0  0
 52 51  4  0  0  0  0
 53 52  4  0  0  0  0
 54 53  4  0  0  0  0
 55 50  4  0  0  0  0
  4  5  1  0  0  0  0
  4  9  1  0  0  0  0
  5  6  1  0  0  0  0
  5 10  1  0  0  0  0
  6  7  1  0  0  0  0
  6 11  1  0  0  0  0
  7  8  1  0  0  0  0
  7 12  1  0  0  0  0
  8  9  1  0  0  0  0
  8 12  1  0  0  0  0
  9 10  1  0  0  0  0
  9 13  1  0  0  0  0
 10 11  1  0  0  0  0
 10 13  1  0  0  0  0
 11 12  1  0  0  0  0
 11 13  1  0  0  0  0
 12 13  1  0  0  0  0
 30 31  4  0  0  0  0
 36 37  4  0  0  0  0
 42 43  4  0  0  0  0
 48 49  4  0  0  0  0
 54 55  4  0  0  0  0
M  END
$$$$
COKTIF

From CSD data. Using bond type 'Any'. No disordered atoms. Largest molecule.
130159  0  0  0  0  0  0  0  0999 V2000
    3.5194    8.6557    7.4172 Ru  0  0  0  0  0  0  0  0  0  0  0  0
    1.2989    8.1561   10.1299 Ru  0  0  0  0  0  0  0  0  0  0  0  0
    5.8668    8.4072    6.7779 P   0  0  0  0  0  0  0  0  0  0  0  0
    1.0837    5.9732   10.9374 P   0  0  0  0  0  0  0  0  0  0  0  0
   -0.8707    8.8780   10.4967 P   0  0  0  0  0  0  0  0  0  0  0  0
    3.8132    7.8069    9.6180 Cl  0  0  0  0  0  0  0  0  0  0  0  0
    2.0650    9.0363   12.2313 Cl  0  0  0  0  0  0  0  0  0  0  0  0
    2.1670    7.4263    6.5359 B   0  0  0  0  0  0  0  0  0  0  0  0
    1.2713    8.2463    7.8044 B   0  0  0  0  0  0  0  0  0  0  0  0
    1.7434    9.7805    8.3342 B   0  0  0  0  0  0  0  0  0  0  0  0
    3.1833   10.6450    7.6643 B   0  0  0  0  0  0  0  0  0  0  0  0
    2.8551   10.2722    5.9195 B   0  0  0  0  0  0  0  0  0  0  0  0
    2.3995    8.7904    5.3795 B   0  0  0  0  0  0  0  0  0  0  0  0
    0.7301    8.3392    6.0418 B   0  0  0  0  0  0  0  0  0  0  0  0
    0.4160    9.6981    7.1574 B   0  0  0  0  0  0  0  0  0  0  0  0
    1.5680   11.0191    7.0122 B   0  0  0  0  0  0  0  0  0  0  0  0
    1.1589   10.0237    5.5935 B   0  0  0  0  0  0  0  0  0  0  0  0
    2.4488    6.0909    6.4417 O   0  0  0  0  0  0  0  0  0  0  0  0
    2.6724    5.4919    5.1146 C   0  0  0  0  0  0  0  0  0  0  0  0
    2.3650    4.0061    5.2267 C   0  0  0  0  0  0  0  0  0  0  0  0
    4.0884   11.4271    8.2858 O   0  0  0  0  0  0  0  0  0  0  0  0
    4.1206   12.8802    8.2043 C   0  0  0  0  0  0  0  0  0  0  0  0
    5.5166   13.1549    7.6312 C   0  0  0  0  0  0  0  0  0  0  0  0
    6.0687    6.6481    6.2634 C   0  0  0  0  0  0  0  0  0  0  0  0
    5.6481    5.6501    7.1447 C   0  0  0  0  0  0  0  0  0  0  0  0
    5.7843    4.3069    6.7906 C   0  0  0  0  0  0  0  0  0  0  0  0
    6.3389    3.9629    5.5553 C   0  0  0  0  0  0  0  0  0  0  0  0
    6.7565    4.9622    4.6765 C   0  0  0  0  0  0  0  0  0  0  0  0
    6.6203    6.3041    5.0306 C   0  0  0  0  0  0  0  0  0  0  0  0
    6.5479    9.3868    5.3693 C   0  0  0  0  0  0  0  0  0  0  0  0
    5.7856    9.4522    4.2028 C   0  0  0  0  0  0  0  0  0  0  0  0
    6.2498   10.1768    3.1049 C   0  0  0  0  0  0  0  0  0  0  0  0
    7.4763   10.8360    3.1737 C   0  0  0  0  0  0  0  0  0  0  0  0
    8.2407   10.7706    4.3403 C   0  0  0  0  0  0  0  0  0  0  0  0
    7.7765   10.0460    5.4381 C   0  0  0  0  0  0  0  0  0  0  0  0
    7.1055    8.5785    8.1253 C   0  0  0  0  0  0  0  0  0  0  0  0
    6.8853    9.5058    9.1442 C   0  0  0  0  0  0  0  0  0  0  0  0
    7.8191    9.6497   10.1707 C   0  0  0  0  0  0  0  0  0  0  0  0
    8.9732    8.8663   10.1783 C   0  0  0  0  0  0  0  0  0  0  0  0
    9.1934    7.9390    9.1595 C   0  0  0  0  0  0  0  0  0  0  0  0
    8.2595    7.7951    8.1330 C   0  0  0  0  0  0  0  0  0  0  0  0
    0.6470    5.4893   12.6847 C   0  0  0  0  0  0  0  0  0  0  0  0
    0.4845    6.4244   13.7061 C   0  0  0  0  0  0  0  0  0  0  0  0
    0.2428    5.9980   15.0102 C   0  0  0  0  0  0  0  0  0  0  0  0
    0.1605    4.6339   15.2955 C   0  0  0  0  0  0  0  0  0  0  0  0
    0.3230    3.6987   14.2741 C   0  0  0  0  0  0  0  0  0  0  0  0
    0.5656    4.1251   12.9674 C   0  0  0  0  0  0  0  0  0  0  0  0
   -0.0837    4.9766    9.9083 C   0  0  0  0  0  0  0  0  0  0  0  0
    0.2353    4.7594    8.5685 C   0  0  0  0  0  0  0  0  0  0  0  0
   -0.6674    4.1029    7.7305 C   0  0  0  0  0  0  0  0  0  0  0  0
   -1.8923    3.6647    8.2349 C   0  0  0  0  0  0  0  0  0  0  0  0
   -2.2114    3.8818    9.5747 C   0  0  0  0  0  0  0  0  0  0  0  0
   -1.3086    4.5371   10.4127 C   0  0  0  0  0  0  0  0  0  0  0  0
    2.7169    5.0851   10.8762 C   0  0  0  0  0  0  0  0  0  0  0  0
    3.7070    5.5703   11.7321 C   0  0  0  0  0  0  0  0  0  0  0  0
    4.9617    4.9635   11.7626 C   0  0  0  0  0  0  0  0  0  0  0  0
    5.2294    3.8727   10.9348 C   0  0  0  0  0  0  0  0  0  0  0  0
    4.2416    3.3875   10.0790 C   0  0  0  0  0  0  0  0  0  0  0  0
    2.9838    3.9930   10.0510 C   0  0  0  0  0  0  0  0  0  0  0  0
   -1.5699    8.5746   12.1931 C   0  0  0  0  0  0  0  0  0  0  0  0
   -1.3552    9.4627   13.2476 C   0  0  0  0  0  0  0  0  0  0  0  0
   -1.9016    9.1985   14.5034 C   0  0  0  0  0  0  0  0  0  0  0  0
   -2.6605    8.0449   14.7046 C   0  0  0  0  0  0  0  0  0  0  0  0
   -2.8730    7.1555   13.6501 C   0  0  0  0  0  0  0  0  0  0  0  0
   -2.3266    7.4210   12.3943 C   0  0  0  0  0  0  0  0  0  0  0  0
   -0.9634   10.7339   10.2726 C   0  0  0  0  0  0  0  0  0  0  0  0
   -1.8957   11.3251    9.4193 C   0  0  0  0  0  0  0  0  0  0  0  0
   -1.8851   12.7062    9.2232 C   0  0  0  0  0  0  0  0  0  0  0  0
   -0.9422   13.4962    9.8803 C   0  0  0  0  0  0  0  0  0  0  0  0
   -0.0099   12.9064   10.7336 C   0  0  0  0  0  0  0  0  0  0  0  0
   -0.0196   11.5252   10.9272 C   0  0  0  0  0  0  0  0  0  0  0  0
   -2.3072    8.2685    9.4677 C   0  0  0  0  0  0  0  0  0  0  0  0
   -3.5944    8.6491    9.8497 C   0  0  0  0  0  0  0  0  0  0  0  0
   -4.6961    8.2175    9.1111 C   0  0  0  0  0  0  0  0  0  0  0  0
   -4.5105    7.4053    7.9903 C   0  0  0  0  0  0  0  0  0  0  0  0
   -3.2241    7.0247    7.6108 C   0  0  0  0  0  0  0  0  0  0  0  0
   -2.1225    7.4563    8.3495 C   0  0  0  0  0  0  0  0  0  0  0  0
    1.0527    7.2536    8.4437 H   0  0  0  0  0  0  0  0  0  0  0  0
    1.7032    9.9688    9.4549 H   0  0  0  0  0  0  0  0  0  0  0  0
    3.4460   10.6999    5.3592 H   0  0  0  0  0  0  0  0  0  0  0  0
    2.5840    8.5851    4.5288 H   0  0  0  0  0  0  0  0  0  0  0  0
    0.2037    7.6761    5.4865 H   0  0  0  0  0  0  0  0  0  0  0  0
   -0.4771    9.8184    7.4911 H   0  0  0  0  0  0  0  0  0  0  0  0
    1.1426   11.9411    7.1141 H   0  0  0  0  0  0  0  0  0  0  0  0
    0.6896   10.4253    4.7886 H   0  0  0  0  0  0  0  0  0  0  0  0
    5.2205    5.9156    8.0973 H   0  0  0  0  0  0  0  0  0  0  0  0
    5.4607    3.5339    7.4707 H   0  0  0  0  0  0  0  0  0  0  0  0
    6.4430    2.9232    5.2827 H   0  0  0  0  0  0  0  0  0  0  0  0
    7.1850    4.6954    3.7214 H   0  0  0  0  0  0  0  0  0  0  0  0
    6.9439    7.0770    4.3505 H   0  0  0  0  0  0  0  0  0  0  0  0
    4.8352    8.9421    4.1518 H   0  0  0  0  0  0  0  0  0  0  0  0
    5.6574   10.2265    2.2033 H   0  0  0  0  0  0  0  0  0  0  0  0
    7.8365   11.3957    2.3230 H   0  0  0  0  0  0  0  0  0  0  0  0
    9.1912   11.2806    4.3912 H   0  0  0  0  0  0  0  0  0  0  0  0
    8.3668    9.9950    6.3398 H   0  0  0  0  0  0  0  0  0  0  0  0
    5.9916   10.1127    9.1366 H   0  0  0  0  0  0  0  0  0  0  0  0
    7.6478   10.3677   10.9577 H   0  0  0  0  0  0  0  0  0  0  0  0
    9.6954    8.9787   10.9730 H   0  0  0  0  0  0  0  0  0  0  0  0
   10.0879    7.3334    9.1646 H   0  0  0  0  0  0  0  0  0  0  0  0
    8.4296    7.0770    7.3434 H   0  0  0  0  0  0  0  0  0  0  0  0
    0.5473    7.4812   13.4845 H   0  0  0  0  0  0  0  0  0  0  0  0
    0.1153    6.7226   15.8024 H   0  0  0  0  0  0  0  0  0  0  0  0
   -0.0267    4.3043   16.3067 H   0  0  0  0  0  0  0  0  0  0  0  0
    0.2611    2.6433   14.4932 H   0  0  0  0  0  0  0  0  0  0  0  0
    0.6922    3.4005   12.1778 H   0  0  0  0  0  0  0  0  0  0  0  0
    1.1854    5.0995    8.1763 H   0  0  0  0  0  0  0  0  0  0  0  0
   -0.4194    3.9355    6.6939 H   0  0  0  0  0  0  0  0  0  0  0  0
   -2.5913    3.1573    7.5879 H   0  0  0  0  0  0  0  0  0  0  0  0
   -3.1614    3.5418    9.9669 H   0  0  0  0  0  0  0  0  0  0  0  0
   -1.5566    4.7058   11.4493 H   0  0  0  0  0  0  0  0  0  0  0  0
    3.4993    6.4152   12.3714 H   0  0  0  0  0  0  0  0  0  0  0  0
    5.7292    5.3388   12.4249 H   0  0  0  0  0  0  0  0  0  0  0  0
    6.2025    3.4032   10.9577 H   0  0  0  0  0  0  0  0  0  0  0  0
    4.4471    2.5412    9.4397 H   0  0  0  0  0  0  0  0  0  0  0  0
    2.2193    3.6177    9.3862 H   0  0  0  0  0  0  0  0  0  0  0  0
   -0.7674   10.3560   13.0897 H   0  0  0  0  0  0  0  0  0  0  0  0
   -1.7353    9.8851   15.3184 H   0  0  0  0  0  0  0  0  0  0  0  0
   -3.0820    7.8396   15.6776 H   0  0  0  0  0  0  0  0  0  0  0  0
   -3.4608    6.2635   13.8080 H   0  0  0  0  0  0  0  0  0  0  0  0
   -2.4929    6.7331   11.5792 H   0  0  0  0  0  0  0  0  0  0  0  0
   -2.6265   10.7130    8.9099 H   0  0  0  0  0  0  0  0  0  0  0  0
   -2.6079   13.1627    8.5634 H   0  0  0  0  0  0  0  0  0  0  0  0
   -0.9355   14.5661    9.7275 H   0  0  0  0  0  0  0  0  0  0  0  0
    0.7218   13.5171   11.2405 H   0  0  0  0  0  0  0  0  0  0  0  0
    0.7119   11.0674   11.5614 H   0  0  0  0  0  0  0  0  0  0  0  0
   -3.7363    9.2782   10.7158 H   0  0  0  0  0  0  0  0  0  0  0  0
   -5.6925    8.5131    9.4040 H   0  0  0  0  0  0  0  0  0  0  0  0
   -5.3637    7.0718    7.4198 H   0  0  0  0  0  0  0  0  0  0  0  0
   -3.0800    6.3956    6.7448 H   0  0  0  0  0  0  0  0  0  0  0  0
   -1.1261    7.1608    8.0566 H   0  0  0  0  0  0  0  0  0  0  0  0
  1  3  1  0  0  0  0
  2  4  1  0  0  0  0
  3 24  1  0  0  0  0
  4 42  1  0  0  0  0
  5  2  1  0  0  0  0
  6  1  1  0  0  0  0
  7  2  1  0  0  0  0
  8  1  1  0  0  0  0
  9  1  1  0  0  0  0
 10  1  1  0  0  0  0
 11  1  1  0  0  0  0
 12  1  1  0  0  0  0
 13  1  1  0  0  0  0
 14  8  1  0  0  0  0
 15  9  1  0  0  0  0
 16 10  1  0  0  0  0
 17 12  1  0  0  0  0
 18  8  1  0  0  0  0
 19 18  1  0  0  0  0
 20 19  1  0  0  0  0
 21 11  1  0  0  0  0
 22 21  1  0  0  0  0
 23 22  1  0  0  0  0
 24 25  4  0  0  0  0
 25 26  4  0  0  0  0
 26 27  4  0  0  0  0
 27 28  4  0  0  0  0
 28 29  4  0  0  0  0
 29 24  4  0  0  0  0
 30  3  1  0  0  0  0
 31 30  4  0  0  0  0
 32 31  4  0  0  0  0
 33 32  4  0  0  0  0
 34 33  4  0  0  0  0
 35 30  4  0  0  0  0
 36  3  1  0  0  0  0
 37 36  4  0  0  0  0
 38 37  4  0  0  0  0
 39 38  4  0  0  0  0
 40 39  4  0  0  0  0
 41 36  4  0  0  0  0
 42 43  4  0  0  0  0
 43 44  4  0  0  0  0
 44 45  4  0  0  0  0
 45 46  4  0  0  0  0
 46 47  4  0  0  0  0
 47 42  4  0  0  0  0
 48  4  1  0  0  0  0
 49 48  4  0  0  0  0
 50 49  4  0  0  0  0
 51 50  4  0  0  0  0
 52 51  4  0  0  0  0
 53 48  4  0  0  0  0
 54  4  1  0  0  0  0
 55 54  4  0  0  0  0
 56 55  4  0  0  0  0
 57 56  4  0  0  0  0
 58 57  4  0  0  0  0
 59 54  4  0  0  0  0
 60  5  1  0  0  0  0
 61 60  4  0  0  0  0
 62 61  4  0  0  0  0
 63 62  4  0  0  0  0
 64 63  4  0  0  0  0
 65 60  4  0  0  0  0
 66  5  1  0  0  0  0
 67 66  4  0  0  0  0
 68 67  4  0  0  0  0
 69 68  4  0  0  0  0
 70 69  4  0  0  0  0
 71 66  4  0  0  0  0
 72  5  1  0  0  0  0
 73 72  4  0  0  0  0
 74 73  4  0  0  0  0
 75 74  4  0  0  0  0
 76 75  4  0  0  0  0
 77 72  4  0  0  0  0
 78  2  1  0  0  0  0
 79  2  1  0  0  0  0
 80 12  1  0  0  0  0
 81 13  1  0  0  0  0
 82 14  1  0  0  0  0
 83 15  1  0  0  0  0
 84 16  1  0  0  0  0
 85 17  1  0  0  0  0
 86 25  1  0  0  0  0
 87 26  1  0  0  0  0
 88 27  1  0  0  0  0
 89 28  1  0  0  0  0
 90 29  1  0  0  0  0
 91 31  1  0  0  0  0
 92 32  1  0  0  0  0
 93 33  1  0  0  0  0
 94 34  1  0  0  0  0
 95 35  1  0  0  0  0
 96 37  1  0  0  0  0
 97 38  1  0  0  0  0
 98 39  1  0  0  0  0
 99 40  1  0  0  0  0
100 41  1  0  0  0  0
101 43  1  0  0  0  0
102 44  1  0  0  0  0
103 45  1  0  0  0  0
104 46  1  0  0  0  0
105 47  1  0  0  0  0
106 49  1  0  0  0  0
107 50  1  0  0  0  0
108 51  1  0  0  0  0
109 52  1  0  0  0  0
110 53  1  0  0  0  0
111 55  1  0  0  0  0
112 56  1  0  0  0  0
113 57  1  0  0  0  0
114 58  1  0  0  0  0
115 59  1  0  0  0  0
116 61  1  0  0  0  0
117 62  1  0  0  0  0
118 63  1  0  0  0  0
119 64  1  0  0  0  0
120 65  1  0  0  0  0
121 67  1  0  0  0  0
122 68  1  0  0  0  0
123 69  1  0  0  0  0
124 70  1  0  0  0  0
125 71  1  0  0  0  0
126 73  1  0  0  0  0
127 74  1  0  0  0  0
128 75  1  0  0  0  0
129 76  1  0  0  0  0
130 77  1  0  0  0  0
  2  6  1  0  0  0  0
  2  9  1  0  0  0  0
  2 10  1  0  0  0  0
  8  9  1  0  0  0  0
  8 13  1  0  0  0  0
  9 10  1  0  0  0  0
  9 14  1  0  0  0  0
  9 78  1  0  0  0  0
 10 11  1  0  0  0  0
 10 15  1  0  0  0  0
 10 79  1  0  0  0  0
 11 12  1  0  0  0  0
 11 16  1  0  0  0  0
 12 13  1  0  0  0  0
 12 16  1  0  0  0  0
 13 14  1  0  0  0  0
 13 17  1  0  0  0  0
 14 15  1  0  0  0  0
 14 17  1  0  0  0  0
 15 16  1  0  0  0  0
 15 17  1  0  0  0  0
 16 17  1  0  0  0  0
 34 35  4  0  0  0  0
 40 41  4  0  0  0  0
 52 53  4  0  0  0  0
 58 59  4  0  0  0  0
 64 65  4  0  0  0  0
 70 71  4  0  0  0  0
 76 77  4  0  0  0  0
M  END
$$$$
COKTOL

From CSD data. Using bond type 'Any'. No disordered atoms. Largest molecule.
 85114  0  0  0  0  0  0  0  0999 V2000
    3.0591    1.1716    6.4694 Ru  0  0  0  0  0  0  0  0  0  0  0  0
    3.5159    1.8320    3.0038 Ru  0  0  0  0  0  0  0  0  0  0  0  0
    1.8173    0.6873    4.3155 Cl  0  0  0  0  0  0  0  0  0  0  0  0
    1.0171    2.0836    7.3853 Cl  0  0  0  0  0  0  0  0  0  0  0  0
    2.8713    0.2932    1.1645 P   0  0  0  0  0  0  0  0  0  0  0  0
    1.7391    2.8166    1.6541 P   0  0  0  0  0  0  0  0  0  0  0  0
    2.5194   -1.0129    7.1570 P   0  0  0  0  0  0  0  0  0  0  0  0
    4.2851    1.9087    8.3062 P   0  0  0  0  0  0  0  0  0  0  0  0
    2.3476   -1.4541    1.5501 C   0  0  0  0  0  0  0  0  0  0  0  0
    3.2098   -2.5019    1.2305 C   0  0  0  0  0  0  0  0  0  0  0  0
    2.8302   -3.8201    1.4842 C   0  0  0  0  0  0  0  0  0  0  0  0
    1.5904   -4.0904    2.0575 C   0  0  0  0  0  0  0  0  0  0  0  0
    0.7252   -3.0440    2.3797 C   0  0  0  0  0  0  0  0  0  0  0  0
    1.1049   -1.7244    2.1260 C   0  0  0  0  0  0  0  0  0  0  0  0
    3.5989    0.0874   -0.4770 C   0  0  0  0  0  0  0  0  0  0  0  0
    2.8063   -0.4251   -1.5045 C   0  0  0  0  0  0  0  0  0  0  0  0
    3.3315   -0.5690   -2.7882 C   0  0  0  0  0  0  0  0  0  0  0  0
    4.6513   -0.2004   -3.0444 C   0  0  0  0  0  0  0  0  0  0  0  0
    5.4469    0.3121   -2.0195 C   0  0  0  0  0  0  0  0  0  0  0  0
    4.9196    0.4560   -0.7357 C   0  0  0  0  0  0  0  0  0  0  0  0
    1.3089    1.2227    0.7687 C   0  0  0  0  0  0  0  0  0  0  0  0
    2.0549    4.0178    0.2918 C   0  0  0  0  0  0  0  0  0  0  0  0
    2.8016    3.6116   -0.8169 C   0  0  0  0  0  0  0  0  0  0  0  0
    3.0293    4.5007   -1.8673 C   0  0  0  0  0  0  0  0  0  0  0  0
    2.5132    5.7947   -1.8114 C   0  0  0  0  0  0  0  0  0  0  0  0
    1.7664    6.2009   -0.7028 C   0  0  0  0  0  0  0  0  0  0  0  0
    1.5388    5.3118    0.3476 C   0  0  0  0  0  0  0  0  0  0  0  0
    0.1348    3.3157    2.4178 C   0  0  0  0  0  0  0  0  0  0  0  0
   -0.9629    3.5443    1.5882 C   0  0  0  0  0  0  0  0  0  0  0  0
   -2.1962    3.8900    2.1438 C   0  0  0  0  0  0  0  0  0  0  0  0
   -2.3296    4.0084    3.5290 C   0  0  0  0  0  0  0  0  0  0  0  0
   -1.2288    3.7797    4.3561 C   0  0  0  0  0  0  0  0  0  0  0  0
    0.0023    3.4340    3.8005 C   0  0  0  0  0  0  0  0  0  0  0  0
    3.8588   -2.1791    6.6622 C   0  0  0  0  0  0  0  0  0  0  0  0
    4.9388   -2.3929    7.5172 C   0  0  0  0  0  0  0  0  0  0  0  0
    5.9978   -3.2054    7.1138 C   0  0  0  0  0  0  0  0  0  0  0  0
    5.9775   -3.8026    5.8529 C   0  0  0  0  0  0  0  0  0  0  0  0
    4.8954   -3.5887    4.9980 C   0  0  0  0  0  0  0  0  0  0  0  0
    3.8355   -2.7776    5.4039 C   0  0  0  0  0  0  0  0  0  0  0  0
    2.1321   -1.4823    8.9329 C   0  0  0  0  0  0  0  0  0  0  0  0
    1.3080   -0.6228    9.6610 C   0  0  0  0  0  0  0  0  0  0  0  0
    0.8378   -1.0021   10.9194 C   0  0  0  0  0  0  0  0  0  0  0  0
    1.1937   -2.2423   11.4496 C   0  0  0  0  0  0  0  0  0  0  0  0
    2.0169   -3.1031   10.7240 C   0  0  0  0  0  0  0  0  0  0  0  0
    2.4851   -2.7225    9.4657 C   0  0  0  0  0  0  0  0  0  0  0  0
    0.9716   -1.7702    6.4009 C   0  0  0  0  0  0  0  0  0  0  0  0
   -0.1170   -0.9685    6.0584 C   0  0  0  0  0  0  0  0  0  0  0  0
   -1.3030   -1.5563    5.6145 C   0  0  0  0  0  0  0  0  0  0  0  0
   -1.3974   -2.9431    5.5104 C   0  0  0  0  0  0  0  0  0  0  0  0
   -0.3087   -3.7448    5.8529 C   0  0  0  0  0  0  0  0  0  0  0  0
    0.8752   -3.1583    6.2969 C   0  0  0  0  0  0  0  0  0  0  0  0
    6.0332    1.3007    8.5752 C   0  0  0  0  0  0  0  0  0  0  0  0
    6.6323    0.4062    7.6872 C   0  0  0  0  0  0  0  0  0  0  0  0
    7.9135   -0.0794    7.9460 C   0  0  0  0  0  0  0  0  0  0  0  0
    8.5957    0.3282    9.0927 C   0  0  0  0  0  0  0  0  0  0  0  0
    7.9967    1.2227    9.9807 C   0  0  0  0  0  0  0  0  0  0  0  0
    6.7155    1.7096    9.7219 C   0  0  0  0  0  0  0  0  0  0  0  0
    3.5688    1.6356    9.9959 C   0  0  0  0  0  0  0  0  0  0  0  0
    4.0947    0.6120   10.7849 C   0  0  0  0  0  0  0  0  0  0  0  0
    3.6493    0.4398   12.0940 C   0  0  0  0  0  0  0  0  0  0  0  0
    2.6771    1.2900   12.6167 C   0  0  0  0  0  0  0  0  0  0  0  0
    2.1481    2.3136   11.8302 C   0  0  0  0  0  0  0  0  0  0  0  0
    2.5944    2.4857   10.5185 C   0  0  0  0  0  0  0  0  0  0  0  0
    4.4959    3.7744    8.2124 C   0  0  0  0  0  0  0  0  0  0  0  0
    5.7526    4.3756    8.2961 C   0  0  0  0  0  0  0  0  0  0  0  0
    5.8679    5.7638    8.2251 C   0  0  0  0  0  0  0  0  0  0  0  0
    4.7276    6.5506    8.0678 C   0  0  0  0  0  0  0  0  0  0  0  0
    3.4709    5.9507    7.9840 C   0  0  0  0  0  0  0  0  0  0  0  0
    3.3556    4.5626    8.0551 C   0  0  0  0  0  0  0  0  0  0  0  0
    3.5794    3.8322    3.6356 B   0  0  0  0  0  0  0  0  0  0  0  0
    4.0402    2.8086    5.0005 B   0  0  0  0  0  0  0  0  0  0  0  0
    4.7488    1.2994    4.8330 B   0  0  0  0  0  0  0  0  0  0  0  0
    5.1622    0.5152    3.2677 B   0  0  0  0  0  0  0  0  0  0  0  0
    5.7689    2.0015    2.4153 B   0  0  0  0  0  0  0  0  0  0  0  0
    5.0243    3.6102    2.5396 B   0  0  0  0  0  0  0  0  0  0  0  0
    5.1517    4.1416    4.3815 B   0  0  0  0  0  0  0  0  0  0  0  0
    5.8245    2.7077    5.1882 B   0  0  0  0  0  0  0  0  0  0  0  0
    6.4617    1.4581    4.0618 B   0  0  0  0  0  0  0  0  0  0  0  0
    6.4877    3.2255    3.6203 B   0  0  0  0  0  0  0  0  0  0  0  0
    2.5956    4.8168    3.5036 O   0  0  0  0  0  0  0  0  0  0  0  0
    2.7714    6.2601    3.9882 C   0  0  0  0  0  0  0  0  0  0  0  0
    1.5319    6.7376    4.6453 C   0  0  0  0  0  0  0  0  0  0  0  0
    5.2848   -0.7681    2.8060 O   0  0  0  0  0  0  0  0  0  0  0  0
    6.5983   -1.4097    2.8085 C   0  0  0  0  0  0  0  0  0  0  0  0
    7.0120   -1.7406    1.5349 C   0  0  0  0  0  0  0  0  0  0  0  0
  1  3  1  0  0  0  0
  2  3  1  0  0  0  0
  4  1  1  0  0  0  0
  5  2  1  0  0  0  0
  6  2  1  0  0  0  0
  7  1  1  0  0  0  0
  8  1  1  0  0  0  0
  9  5  1  0  0  0  0
 10  9  4  0  0  0  0
 11 10  4  0  0  0  0
 12 11  4  0  0  0  0
 13 12  4  0  0  0  0
 14  9  4  0  0  0  0
 15  5  1  0  0  0  0
 16 15  4  0  0  0  0
 17 16  4  0  0  0  0
 18 17  4  0  0  0  0
 19 18  4  0  0  0  0
 20 15  4  0  0  0  0
 21  5  1  0  0  0  0
 22  6  1  0  0  0  0
 23 22  4  0  0  0  0
 24 23  4  0  0  0  0
 25 24  4  0  0  0  0
 26 25  4  0  0  0  0
 27 22  4  0  0  0  0
 28  6  1  0  0  0  0
 29 28  4  0  0  0  0
 30 29  4  0  0  0  0
 31 30  4  0  0  0  0
 32 31  4  0  0  0  0
 33 28  4  0  0  0  0
 34  7  1  0  0  0  0
 35 34  4  0  0  0  0
 36 35  4  0  0  0  0
 37 36  4  0  0  0  0
 38 37  4  0  0  0  0
 39 34  4  0  0  0  0
 40  7  1  0  0  0  0
 41 40  4  0  0  0  0
 42 41  4  0  0  0  0
 43 42  4  0  0  0  0
 44 43  4  0  0  0  0
 45 40  4  0  0  0  0
 46  7  1  0  0  0  0
 47 46  4  0  0  0  0
 48 47  4  0  0  0  0
 49 48  4  0  0  0  0
 50 49  4  0  0  0  0
 51 46  4  0  0  0  0
 52  8  1  0  0  0  0
 53 52  4  0  0  0  0
 54 53  4  0  0  0  0
 55 54  4  0  0  0  0
 56 55  4  0  0  0  0
 57 52  4  0  0  0  0
 58  8  1  0  0  0  0
 59 58  4  0  0  0  0
 60 59  4  0  0  0  0
 61 60  4  0  0  0  0
 62 61  4  0  0  0  0
 63 58  4  0  0  0  0
 64  8  1  0  0  0  0
 65 64  4  0  0  0  0
 66 65  4  0  0  0  0
 67 66  4  0  0  0  0
 68 67  4  0  0  0  0
 69 64  4  0  0  0  0
 70  2  1  0  0  0  0
 71  1  1  0  0  0  0
 72  1  1  0  0  0  0
 73  2  1  0  0  0  0
 74  2  1  0  0  0  0
 75  2  1  0  0  0  0
 76 70  1  0  0  0  0
 77 71  1  0  0  0  0
 78 72  1  0  0  0  0
 79 74  1  0  0  0  0
 80 70  1  0  0  0  0
 81 80  1  0  0  0  0
 82 81  1  0  0  0  0
 83 73  1  0  0  0  0
 84 83  1  0  0  0  0
 85 84  1  0  0  0  0
  2 71  1  0  0  0  0
  2 72  1  0  0  0  0
  6 21  1  0  0  0  0
 13 14  4  0  0  0  0
 19 20  4  0  0  0  0
 26 27  4  0  0  0  0
 32 33  4  0  0  0  0
 38 39  4  0  0  0  0
 44 45  4  0  0  0  0
 50 51  4  0  0  0  0
 56 57  4  0  0  0  0
 62 63  4  0  0  0  0
 68 69  4  0  0  0  0
 70 71  1  0  0  0  0
 70 75  1  0  0  0  0
 71 72  1  0  0  0  0
 71 76  1  0  0  0  0
 72 73  1  0  0  0  0
 72 77  1  0  0  0  0
 73 74  1  0  0  0  0
 73 78  1  0  0  0  0
 74 75  1  0  0  0  0
 74 78  1  0  0  0  0
 75 76  1  0  0  0  0
 75 79  1  0  0  0  0
 76 77  1  0  0  0  0
 76 79  1  0  0  0  0
 77 78  1  0  0  0  0
 77 79  1  0  0  0  0
 78 79  1  0  0  0  0
M  END
$$$$
COTMAD

From CSD data. Using bond type 'Any'. No disordered atoms. Largest molecule.
 78 86  0  0  0  0  0  0  0  0999 V2000
    4.7289    1.9128    3.5994 Ru  0  0  0  0  0  0  0  0  0  0  0  0
    8.1314    2.3837    3.8778 C   0  0  0  0  0  0  0  0  0  0  0  0
    9.1440    2.7661    3.0108 C   0  0  0  0  0  0  0  0  0  0  0  0
    9.2217    2.3317    2.1921 H   0  0  0  0  0  0  0  0  0  0  0  0
   10.0377    3.7644    3.3194 C   0  0  0  0  0  0  0  0  0  0  0  0
   10.7131    4.0064    2.7272 H   0  0  0  0  0  0  0  0  0  0  0  0
    9.8964    4.3942    4.5341 C   0  0  0  0  0  0  0  0  0  0  0  0
   10.4519    5.1063    4.7563 H   0  0  0  0  0  0  0  0  0  0  0  0
    8.9577    3.9810    5.4011 C   0  0  0  0  0  0  0  0  0  0  0  0
    8.9109    4.3882    6.2360 H   0  0  0  0  0  0  0  0  0  0  0  0
    5.4975    4.9559    5.2770 C   0  0  0  0  0  0  0  0  0  0  0  0
    6.1313    5.4543    4.1276 C   0  0  0  0  0  0  0  0  0  0  0  0
    6.3650    4.8732    3.4406 H   0  0  0  0  0  0  0  0  0  0  0  0
    6.4100    6.7971    4.0100 C   0  0  0  0  0  0  0  0  0  0  0  0
    6.8060    7.1181    3.2323 H   0  0  0  0  0  0  0  0  0  0  0  0
    6.1104    7.6641    5.0223 C   0  0  0  0  0  0  0  0  0  0  0  0
    6.3301    8.5650    4.9483 H   0  0  0  0  0  0  0  0  0  0  0  0
    5.4860    7.1952    6.1424 C   0  0  0  0  0  0  0  0  0  0  0  0
    5.2685    7.7864    6.8268 H   0  0  0  0  0  0  0  0  0  0  0  0
    5.1740    5.8653    6.2779 C   0  0  0  0  0  0  0  0  0  0  0  0
    4.7419    5.5689    7.0458 H   0  0  0  0  0  0  0  0  0  0  0  0
    4.0863    3.0045    6.8559 C   0  0  0  0  0  0  0  0  0  0  0  0
    4.4669    2.5897    8.1245 C   0  0  0  0  0  0  0  0  0  0  0  0
    5.3625    2.4109    8.3020 H   0  0  0  0  0  0  0  0  0  0  0  0
    3.5159    2.4389    9.1352 C   0  0  0  0  0  0  0  0  0  0  0  0
    3.7822    2.1742    9.9854 H   0  0  0  0  0  0  0  0  0  0  0  0
    2.2111    2.6772    8.8821 C   0  0  0  0  0  0  0  0  0  0  0  0
    1.5835    2.5617    9.5583 H   0  0  0  0  0  0  0  0  0  0  0  0
    1.8031    3.0836    7.6478 C   0  0  0  0  0  0  0  0  0  0  0  0
    0.9038    3.2553    7.4850 H   0  0  0  0  0  0  0  0  0  0  0  0
    2.7354    3.2405    6.6338 C   0  0  0  0  0  0  0  0  0  0  0  0
    2.4521    3.5080    5.7896 H   0  0  0  0  0  0  0  0  0  0  0  0
    4.7981   -1.5172    4.4492 C   0  0  0  0  0  0  0  0  0  0  0  0
    6.0921   -1.9392    4.6713 C   0  0  0  0  0  0  0  0  0  0  0  0
    6.6711   -1.4061    5.1668 H   0  0  0  0  0  0  0  0  0  0  0  0
    6.5435   -3.1558    4.1619 C   0  0  0  0  0  0  0  0  0  0  0  0
    7.4178   -3.4348    4.3128 H   0  0  0  0  0  0  0  0  0  0  0  0
    5.6889   -3.9302    3.4435 C   0  0  0  0  0  0  0  0  0  0  0  0
    5.9859   -4.7355    3.0872 H   0  0  0  0  0  0  0  0  0  0  0  0
    4.4029   -3.5389    3.2410 C   0  0  0  0  0  0  0  0  0  0  0  0
    3.8213   -4.0960    2.7752 H   0  0  0  0  0  0  0  0  0  0  0  0
    3.9486   -2.3219    3.7161 C   0  0  0  0  0  0  0  0  0  0  0  0
    3.0769   -2.0484    3.5440 H   0  0  0  0  0  0  0  0  0  0  0  0
    2.5577   -0.1069    5.5840 C   0  0  0  0  0  0  0  0  0  0  0  0
    2.3124   -0.6156    6.8249 C   0  0  0  0  0  0  0  0  0  0  0  0
    3.0320   -0.8534    7.3629 H   0  0  0  0  0  0  0  0  0  0  0  0
    1.0275   -0.7920    7.3098 C   0  0  0  0  0  0  0  0  0  0  0  0
    0.8809   -1.1480    8.1553 H   0  0  0  0  0  0  0  0  0  0  0  0
   -0.0072   -0.4306    6.5179 C   0  0  0  0  0  0  0  0  0  0  0  0
   -0.8770   -0.5136    6.8390 H   0  0  0  0  0  0  0  0  0  0  0  0
    0.1990    0.0567    5.2542 C   0  0  0  0  0  0  0  0  0  0  0  0
   -0.5267    0.2823    4.7173 H   0  0  0  0  0  0  0  0  0  0  0  0
    1.4847    0.2126    4.7790 C   0  0  0  0  0  0  0  0  0  0  0  0
    1.6272    0.5317    3.9169 H   0  0  0  0  0  0  0  0  0  0  0  0
    3.2680    1.6849    0.7609 C   0  0  0  0  0  0  0  0  0  0  0  0
    2.7165    1.2972   -0.4751 C   0  0  0  0  0  0  0  0  0  0  0  0
    2.8355    0.4287   -0.7842 H   0  0  0  0  0  0  0  0  0  0  0  0
    2.0100    2.1903   -1.2148 C   0  0  0  0  0  0  0  0  0  0  0  0
    1.6448    1.9267   -2.0284 H   0  0  0  0  0  0  0  0  0  0  0  0
    1.8273    3.4937   -0.7674 C   0  0  0  0  0  0  0  0  0  0  0  0
    1.3575    4.1107   -1.2803 H   0  0  0  0  0  0  0  0  0  0  0  0
    2.3507    3.8435    0.4310 C   0  0  0  0  0  0  0  0  0  0  0  0
    2.2289    4.7117    0.7413 H   0  0  0  0  0  0  0  0  0  0  0  0
    4.1776    0.5968    1.6912 S   0  0  0  0  0  0  0  0  0  0  0  0
    7.0329    1.1274    3.4165 S   0  0  0  0  0  0  0  0  0  0  0  0
    5.2818    3.1414    5.4801 P   0  0  0  0  0  0  0  0  0  0  0  0
    4.2746    0.1410    5.0119 P   0  0  0  0  0  0  0  0  0  0  0  0
    3.2682    4.6736    2.8540 O   0  0  0  0  0  0  0  0  0  0  0  0
    3.6582    3.3761    2.5569 B   0  0  0  0  0  0  0  0  0  0  0  0
    7.0256    2.5927    6.2012 B   0  0  0  0  0  0  0  0  0  0  0  0
    3.0569    2.9498    1.2066 N   0  0  0  0  0  0  0  0  0  0  0  0
    8.0694    2.9858    5.1056 N   0  0  0  0  0  0  0  0  0  0  0  0
    4.9225    0.1920    6.2371 H   0  0  0  0  0  0  0  0  0  0  0  0
    3.6964    4.9815    3.3145 H   0  0  0  0  0  0  0  0  0  0  0  0
    4.9631    3.3345    2.5308 H   0  0  0  0  0  0  0  0  0  0  0  0
    3.2211    2.5497    3.5267 H   0  0  0  0  0  0  0  0  0  0  0  0
    6.9849    1.4954    6.3187 H   0  0  0  0  0  0  0  0  0  0  0  0
    7.2515    3.2031    7.0698 H   0  0  0  0  0  0  0  0  0  0  0  0
  1 64  1  0  0  0  0
  2  3  4  0  0  0  0
  3  4  1  0  0  0  0
  5  3  4  0  0  0  0
  6  5  1  0  0  0  0
  7  5  4  0  0  0  0
  8  7  1  0  0  0  0
  9  7  4  0  0  0  0
 10  9  1  0  0  0  0
 11 12  4  0  0  0  0
 12 13  1  0  0  0  0
 14 12  4  0  0  0  0
 15 14  1  0  0  0  0
 16 14  4  0  0  0  0
 17 16  1  0  0  0  0
 18 16  4  0  0  0  0
 19 18  1  0  0  0  0
 20 11  4  0  0  0  0
 21 20  1  0  0  0  0
 22 23  4  0  0  0  0
 23 24  1  0  0  0  0
 25 23  4  0  0  0  0
 26 25  1  0  0  0  0
 27 25  4  0  0  0  0
 28 27  1  0  0  0  0
 29 27  4  0  0  0  0
 30 29  1  0  0  0  0
 31 22  4  0  0  0  0
 32 31  1  0  0  0  0
 33 34  4  0  0  0  0
 34 35  1  0  0  0  0
 36 34  4  0  0  0  0
 37 36  1  0  0  0  0
 38 36  4  0  0  0  0
 39 38  1  0  0  0  0
 40 38  4  0  0  0  0
 41 40  1  0  0  0  0
 42 33  4  0  0  0  0
 43 42  1  0  0  0  0
 44 45  4  0  0  0  0
 45 46  1  0  0  0  0
 47 45  4  0  0  0  0
 48 47  1  0  0  0  0
 49 47  4  0  0  0  0
 50 49  1  0  0  0  0
 51 49  4  0  0  0  0
 52 51  1  0  0  0  0
 53 44  4  0  0  0  0
 54 53  1  0  0  0  0
 55 56  4  0  0  0  0
 56 57  1  0  0  0  0
 58 56  4  0  0  0  0
 59 58  1  0  0  0  0
 60 58  4  0  0  0  0
 61 60  1  0  0  0  0
 62 60  4  0  0  0  0
 63 62  1  0  0  0  0
 64 55  1  0  0  0  0
 65  1  1  0  0  0  0
 66  1  1  0  0  0  0
 67  1  1  0  0  0  0
 68 69  1  0  0  0  0
 69 71  1  0  0  0  0
 70 66  1  0  0  0  0
 71 55  4  0  0  0  0
 72  2  4  0  0  0  0
 73 67  1  0  0  0  0
 74 68  1  0  0  0  0
 75  1  1  0  0  0  0
 76  1  1  0  0  0  0
 77 70  1  0  0  0  0
 78 70  1  0  0  0  0
  2 65  1  0  0  0  0
  9 72  4  0  0  0  0
 11 66  1  0  0  0  0
 18 20  4  0  0  0  0
 22 66  1  0  0  0  0
 29 31  4  0  0  0  0
 33 67  1  0  0  0  0
 40 42  4  0  0  0  0
 44 67  1  0  0  0  0
 51 53  4  0  0  0  0
 62 71  4  0  0  0  0
 69 75  1  0  0  0  0
 69 76  1  0  0  0  0
 70 72  1  0  0  0  0
M  END
$$$$
COZCEB

From CSD data. Using bond type 'Any'. No disordered atoms. Largest molecule.
 80101  0  0  0  0  0  0  0  0999 V2000
    9.9377   12.0543    3.0576 C   0  0  0  0  0  0  0  0  0  0  0  0
    9.2885   13.4173    2.2303 C   0  0  0  0  0  0  0  0  0  0  0  0
    6.4063   11.0461   -0.8658 C   0  0  0  0  0  0  0  0  0  0  0  0
    6.7499   10.0120   -1.9178 C   0  0  0  0  0  0  0  0  0  0  0  0
    5.9798    9.8688   -2.5227 H   0  0  0  0  0  0  0  0  0  0  0  0
    7.5216   10.3143   -2.4571 H   0  0  0  0  0  0  0  0  0  0  0  0
    7.0855    8.7487   -1.1968 C   0  0  0  0  0  0  0  0  0  0  0  0
    7.0545    7.5157   -1.8364 C   0  0  0  0  0  0  0  0  0  0  0  0
    6.8578    7.4648   -2.7650 H   0  0  0  0  0  0  0  0  0  0  0  0
    7.3146    6.3527   -1.1123 C   0  0  0  0  0  0  0  0  0  0  0  0
    7.3381    5.5143   -1.5593 H   0  0  0  0  0  0  0  0  0  0  0  0
    7.5391    6.4164    0.2622 C   0  0  0  0  0  0  0  0  0  0  0  0
    7.6657    5.6177    0.7628 H   0  0  0  0  0  0  0  0  0  0  0  0
    7.5771    7.6478    0.8911 C   0  0  0  0  0  0  0  0  0  0  0  0
    7.7410    7.6892    1.8254 H   0  0  0  0  0  0  0  0  0  0  0  0
    7.3793    8.8257    0.1736 C   0  0  0  0  0  0  0  0  0  0  0  0
    7.5685   14.1644   -0.1694 C   0  0  0  0  0  0  0  0  0  0  0  0
    6.6379   14.0164   -0.5065 H   0  0  0  0  0  0  0  0  0  0  0  0
    7.6861   15.6806   -0.0338 C   0  0  0  0  0  0  0  0  0  0  0  0
    7.0924   15.9924    0.6813 H   0  0  0  0  0  0  0  0  0  0  0  0
    7.4302   16.1054   -0.8780 H   0  0  0  0  0  0  0  0  0  0  0  0
    8.6118   15.9177    0.1847 H   0  0  0  0  0  0  0  0  0  0  0  0
    8.4794   13.6155   -1.2969 C   0  0  0  0  0  0  0  0  0  0  0  0
    8.3718   12.6434   -1.3606 H   0  0  0  0  0  0  0  0  0  0  0  0
    9.4146   13.8287   -1.0945 H   0  0  0  0  0  0  0  0  0  0  0  0
    8.2277   14.0276   -2.1492 H   0  0  0  0  0  0  0  0  0  0  0  0
    6.2965   13.5726    2.4847 C   0  0  0  0  0  0  0  0  0  0  0  0
    6.5422   13.2066    3.3827 H   0  0  0  0  0  0  0  0  0  0  0  0
    5.0305   12.8439    2.0638 C   0  0  0  0  0  0  0  0  0  0  0  0
    5.2301   11.8941    1.9248 H   0  0  0  0  0  0  0  0  0  0  0  0
    4.6930   13.2321    1.2295 H   0  0  0  0  0  0  0  0  0  0  0  0
    4.3514   12.9362    2.7650 H   0  0  0  0  0  0  0  0  0  0  0  0
    5.9786   15.0315    2.6974 C   0  0  0  0  0  0  0  0  0  0  0  0
    6.7927   15.5072    2.9636 H   0  0  0  0  0  0  0  0  0  0  0  0
    5.3035   15.1174    3.4046 H   0  0  0  0  0  0  0  0  0  0  0  0
    5.6320   15.4149    1.8652 H   0  0  0  0  0  0  0  0  0  0  0  0
   10.0279    9.0284    2.9400 C   0  0  0  0  0  0  0  0  0  0  0  0
    9.4094    8.2428    2.9735 H   0  0  0  0  0  0  0  0  0  0  0  0
   10.7632    8.8792    1.5930 C   0  0  0  0  0  0  0  0  0  0  0  0
   10.1265    9.0017    0.8581 H   0  0  0  0  0  0  0  0  0  0  0  0
   11.1623    7.9867    1.5354 H   0  0  0  0  0  0  0  0  0  0  0  0
   11.4683    9.5570    1.5295 H   0  0  0  0  0  0  0  0  0  0  0  0
   10.9452    8.8458    4.1705 C   0  0  0  0  0  0  0  0  0  0  0  0
   10.4175    8.9444    4.9897 H   0  0  0  0  0  0  0  0  0  0  0  0
   11.6539    9.5220    4.1534 H   0  0  0  0  0  0  0  0  0  0  0  0
   11.3476    7.9517    4.1475 H   0  0  0  0  0  0  0  0  0  0  0  0
    7.7290   10.4304    4.3473 C   0  0  0  0  0  0  0  0  0  0  0  0
    7.1388   11.2322    4.2508 H   0  0  0  0  0  0  0  0  0  0  0  0
    6.8084    9.2022    4.1385 C   0  0  0  0  0  0  0  0  0  0  0  0
    6.4752    9.1958    3.2179 H   0  0  0  0  0  0  0  0  0  0  0  0
    6.0520    9.2515    4.7593 H   0  0  0  0  0  0  0  0  0  0  0  0
    7.3161    8.3812    4.3084 H   0  0  0  0  0  0  0  0  0  0  0  0
    8.2666   10.4797    5.7693 C   0  0  0  0  0  0  0  0  0  0  0  0
    8.8466   11.2641    5.8716 H   0  0  0  0  0  0  0  0  0  0  0  0
    8.7817    9.6667    5.9531 H   0  0  0  0  0  0  0  0  0  0  0  0
    7.5185   10.5418    6.4000 H   0  0  0  0  0  0  0  0  0  0  0  0
   11.6473   12.0723    2.9297 B   0  0  0  0  0  0  0  0  0  0  0  0
   12.2782   11.1479    2.8901 H   0  0  0  0  0  0  0  0  0  0  0  0
    9.3177   13.3896    3.9719 B   0  0  0  0  0  0  0  0  0  0  0  0
    8.3964   13.3276    4.6063 H   0  0  0  0  0  0  0  0  0  0  0  0
   10.5697   14.3410    1.5523 B   0  0  0  0  0  0  0  0  0  0  0  0
   10.4879   14.9281    0.6019 H   0  0  0  0  0  0  0  0  0  0  0  0
   10.6269   12.5607    1.5446 B   0  0  0  0  0  0  0  0  0  0  0  0
   10.5551   11.9609    0.6019 H   0  0  0  0  0  0  0  0  0  0  0  0
   10.8398   12.5703    4.4262 B   0  0  0  0  0  0  0  0  0  0  0  0
   10.9349   11.9784    5.3711 H   0  0  0  0  0  0  0  0  0  0  0  0
   12.0579   13.5057    1.9947 B   0  0  0  0  0  0  0  0  0  0  0  0
   12.9628   13.5328    1.3348 H   0  0  0  0  0  0  0  0  0  0  0  0
   10.7296   14.3378    4.4206 B   0  0  0  0  0  0  0  0  0  0  0  0
   10.7508   14.9249    5.3750 H   0  0  0  0  0  0  0  0  0  0  0  0
   11.5068   14.9233    2.9326 B   0  0  0  0  0  0  0  0  0  0  0  0
   12.0535   15.9002    2.9001 H   0  0  0  0  0  0  0  0  0  0  0  0
    9.7384   14.8565    3.0486 B   0  0  0  0  0  0  0  0  0  0  0  0
    9.1018   15.7776    3.0848 H   0  0  0  0  0  0  0  0  0  0  0  0
   12.1826   13.5280    3.7790 B   0  0  0  0  0  0  0  0  0  0  0  0
   13.1715   13.5853    4.3024 H   0  0  0  0  0  0  0  0  0  0  0  0
    5.5842   11.8976   -0.9707 O   0  0  0  0  0  0  0  0  0  0  0  0
    7.6794   13.1190    1.3481 P   0  0  0  0  0  0  0  0  0  0  0  0
    8.9037   10.4936    2.9155 P   0  0  0  0  0  0  0  0  0  0  0  0
    7.5714   10.7757    0.8745 Au  0  3  0  0  0  0  0  0  0  0  0  0
  1  2  1  0  0  0  0
  2 59  1  0  0  0  0
  3  4  1  0  0  0  0
  4  5  1  0  0  0  0
  6  4  1  0  0  0  0
  7  4  1  0  0  0  0
  8  7  4  0  0  0  0
  9  8  1  0  0  0  0
 10  8  4  0  0  0  0
 11 10  1  0  0  0  0
 12 10  4  0  0  0  0
 13 12  1  0  0  0  0
 14 12  4  0  0  0  0
 15 14  1  0  0  0  0
 16  7  4  0  0  0  0
 17 18  1  0  0  0  0
 19 17  1  0  0  0  0
 20 19  1  0  0  0  0
 21 19  1  0  0  0  0
 22 19  1  0  0  0  0
 23 17  1  0  0  0  0
 24 23  1  0  0  0  0
 25 23  1  0  0  0  0
 26 23  1  0  0  0  0
 27 28  1  0  0  0  0
 29 27  1  0  0  0  0
 30 29  1  0  0  0  0
 31 29  1  0  0  0  0
 32 29  1  0  0  0  0
 33 27  1  0  0  0  0
 34 33  1  0  0  0  0
 35 33  1  0  0  0  0
 36 33  1  0  0  0  0
 37 38  1  0  0  0  0
 39 37  1  0  0  0  0
 40 39  1  0  0  0  0
 41 39  1  0  0  0  0
 42 39  1  0  0  0  0
 43 37  1  0  0  0  0
 44 43  1  0  0  0  0
 45 43  1  0  0  0  0
 46 43  1  0  0  0  0
 47 48  1  0  0  0  0
 49 47  1  0  0  0  0
 50 49  1  0  0  0  0
 51 49  1  0  0  0  0
 52 49  1  0  0  0  0
 53 47  1  0  0  0  0
 54 53  1  0  0  0  0
 55 53  1  0  0  0  0
 56 53  1  0  0  0  0
 57  1  1  0  0  0  0
 58 57  1  0  0  0  0
 59  1  1  0  0  0  0
 60 59  1  0  0  0  0
 61  2  1  0  0  0  0
 62 61  1  0  0  0  0
 63  1  1  0  0  0  0
 64 63  1  0  0  0  0
 65  1  1  0  0  0  0
 66 65  1  0  0  0  0
 67 57  1  0  0  0  0
 68 67  1  0  0  0  0
 69 59  1  0  0  0  0
 70 69  1  0  0  0  0
 71 61  1  0  0  0  0
 72 71  1  0  0  0  0
 73  2  1  0  0  0  0
 74 73  1  0  0  0  0
 75 57  1  0  0  0  0
 76 75  1  0  0  0  0
 77  3  2  0  0  0  0
 78  2  1  0  0  0  0
 79  1  1  0  0  0  0
 80  3  1  0  0  0  0
  2 63  1  0  0  0  0
 14 16  4  0  0  0  0
 16 80  1  0  0  0  0
 17 78  1  0  0  0  0
 27 78  1  0  0  0  0
 37 79  1  0  0  0  0
 47 79  1  0  0  0  0
 57 63  1  0  0  0  0
 57 65  1  0  0  0  0
 59 65  1  0  0  0  0
 59 73  1  0  0  0  0
 61 63  1  0  0  0  0
 61 67  1  0  0  0  0
 61 73  1  0  0  0  0
 63 67  1  0  0  0  0
 65 69  1  0  0  0  0
 65 75  1  0  0  0  0
 67 71  1  0  0  0  0
 67 75  1  0  0  0  0
 69 71  1  0  0  0  0
 69 73  1  0  0  0  0
 69 75  1  0  0  0  0
 71 73  1  0  0  0  0
 71 75  1  0  0  0  0
 78 80  1  0  0  0  0
 79 80  1  0  0  0  0
M  CHG  1  80   1
M  END
$$$$
COZCEZ

From CSD data. Using bond type 'Any'. No disordered atoms. Largest molecule.
120145  0  0  0  0  0  0  0  0999 V2000
    1.9592    2.0345    3.2554 Rh  0  0  0  0  0  0  0  0  0  0  0  0
    3.9690    1.2917    3.8528 P   0  0  0  0  0  0  0  0  0  0  0  0
    0.8920    0.1325    3.6428 P   0  0  0  0  0  0  0  0  0  0  0  0
    1.9546    6.0123    3.2186 B   0  0  0  0  0  0  0  0  0  0  0  0
    1.3879    6.8932    1.8006 B   0  0  0  0  0  0  0  0  0  0  0  0
    2.5479    5.5869    1.6035 B   0  0  0  0  0  0  0  0  0  0  0  0
    2.1076    4.3232    2.7239 B   0  0  0  0  0  0  0  0  0  0  0  0
    0.7161    4.8159    3.6558 B   0  0  0  0  0  0  0  0  0  0  0  0
    0.2003    6.4252    3.0647 B   0  0  0  0  0  0  0  0  0  0  0  0
    1.1240    5.7016    0.6170 C   0  0  0  0  0  0  0  0  0  0  0  0
    1.4663    4.2865    1.1232 C   0  0  0  0  0  0  0  0  0  0  0  0
    0.5464    3.7025    2.2938 B   0  0  0  0  0  0  0  0  0  0  0  0
   -0.7321    4.9409    2.6059 B   0  0  0  0  0  0  0  0  0  0  0  0
   -0.2470    6.2472    1.3375 B   0  0  0  0  0  0  0  0  0  0  0  0
    1.4486    5.7490   -0.8658 C   0  0  0  0  0  0  0  0  0  0  0  0
    2.3552    4.5369   -1.1361 C   0  0  0  0  0  0  0  0  0  0  0  0
    1.9740    3.4875   -0.0748 C   0  0  0  0  0  0  0  0  0  0  0  0
   -2.1555    4.6757    3.2229 C   0  0  0  0  0  0  0  0  0  0  0  0
   -3.1131    5.8531    3.3192 C   0  0  0  0  0  0  0  0  0  0  0  0
   -4.3815    5.5051    4.0541 C   0  0  0  0  0  0  0  0  0  0  0  0
   -6.6049    6.2064    4.5215 C   0  0  0  0  0  0  0  0  0  0  0  0
   -7.0164    7.4936    5.1817 C   0  0  0  0  0  0  0  0  0  0  0  0
   -6.0045    8.0175    6.1783 C   0  0  0  0  0  0  0  0  0  0  0  0
   -5.7448    7.0703    7.3302 C   0  0  0  0  0  0  0  0  0  0  0  0
   -5.3316    6.4103    3.8614 O   0  0  0  0  0  0  0  0  0  0  0  0
   -4.5426    4.5120    4.6999 O   0  0  0  0  0  0  0  0  0  0  0  0
    4.4440   -0.4501    4.1476 C   0  0  0  0  0  0  0  0  0  0  0  0
    5.1240   -1.2245    3.2085 C   0  0  0  0  0  0  0  0  0  0  0  0
    5.4754   -2.5434    3.4803 C   0  0  0  0  0  0  0  0  0  0  0  0
    5.1233   -3.1126    4.6912 C   0  0  0  0  0  0  0  0  0  0  0  0
    4.4480   -2.3595    5.6404 C   0  0  0  0  0  0  0  0  0  0  0  0
    4.1236   -1.0362    5.3729 C   0  0  0  0  0  0  0  0  0  0  0  0
    5.0531    1.8068    2.4736 C   0  0  0  0  0  0  0  0  0  0  0  0
    6.0897    2.7352    2.6404 C   0  0  0  0  0  0  0  0  0  0  0  0
    6.8396    3.1331    1.5532 C   0  0  0  0  0  0  0  0  0  0  0  0
    6.6008    2.6113    0.2948 C   0  0  0  0  0  0  0  0  0  0  0  0
    5.5795    1.7051    0.1208 C   0  0  0  0  0  0  0  0  0  0  0  0
    4.7922    1.3166    1.1922 C   0  0  0  0  0  0  0  0  0  0  0  0
    4.6613    2.1048    5.3384 C   0  0  0  0  0  0  0  0  0  0  0  0
    5.9364    1.7787    5.8029 C   0  0  0  0  0  0  0  0  0  0  0  0
    6.4462    2.4489    6.9348 C   0  0  0  0  0  0  0  0  0  0  0  0
    5.6844    3.4015    7.5690 C   0  0  0  0  0  0  0  0  0  0  0  0
    4.4594    3.7255    7.1232 C   0  0  0  0  0  0  0  0  0  0  0  0
    3.9131    3.0906    5.9841 C   0  0  0  0  0  0  0  0  0  0  0  0
    0.8505   -0.4070    5.3844 C   0  0  0  0  0  0  0  0  0  0  0  0
    0.2979   -1.6229    5.7929 C   0  0  0  0  0  0  0  0  0  0  0  0
    0.2541   -1.9373    7.1519 C   0  0  0  0  0  0  0  0  0  0  0  0
    0.7363   -1.0377    8.0982 C   0  0  0  0  0  0  0  0  0  0  0  0
    1.2331    0.1822    7.7114 C   0  0  0  0  0  0  0  0  0  0  0  0
    1.2791    0.5021    6.3509 C   0  0  0  0  0  0  0  0  0  0  0  0
   -0.9140    0.1644    3.3178 C   0  0  0  0  0  0  0  0  0  0  0  0
   -1.6716    1.2190    3.8082 C   0  0  0  0  0  0  0  0  0  0  0  0
   -3.0405    1.2492    3.6572 C   0  0  0  0  0  0  0  0  0  0  0  0
   -3.6879    0.2193    2.9741 C   0  0  0  0  0  0  0  0  0  0  0  0
   -2.9482   -0.8418    2.4981 C   0  0  0  0  0  0  0  0  0  0  0  0
   -1.5761   -0.8822    2.6548 C   0  0  0  0  0  0  0  0  0  0  0  0
    1.4611   -1.2348    2.5714 C   0  0  0  0  0  0  0  0  0  0  0  0
    1.4589   -0.9603    1.2095 C   0  0  0  0  0  0  0  0  0  0  0  0
    1.8545   -1.9229    0.2862 C   0  0  0  0  0  0  0  0  0  0  0  0
    2.2745   -3.1696    0.7421 C   0  0  0  0  0  0  0  0  0  0  0  0
    2.3047   -3.4397    2.0868 C   0  0  0  0  0  0  0  0  0  0  0  0
    1.8957   -2.4798    3.0172 C   0  0  0  0  0  0  0  0  0  0  0  0
    2.6663    6.4740    3.8844 H   0  0  0  0  0  0  0  0  0  0  0  0
    1.7225    7.8991    1.5000 H   0  0  0  0  0  0  0  0  0  0  0  0
    3.5588    5.7495    1.2339 H   0  0  0  0  0  0  0  0  0  0  0  0
    2.9723    3.6402    3.0144 H   0  0  0  0  0  0  0  0  0  0  0  0
    0.7391    4.5386    4.6395 H   0  0  0  0  0  0  0  0  0  0  0  0
   -0.3721    7.2105    3.6083 H   0  0  0  0  0  0  0  0  0  0  0  0
    0.3588    2.5476    2.4103 H   0  0  0  0  0  0  0  0  0  0  0  0
   -0.7004    4.9587    1.5216 H   0  0  0  0  0  0  0  0  0  0  0  0
   -0.8511    7.0197    0.8715 H   0  0  0  0  0  0  0  0  0  0  0  0
    1.7943    6.6195   -1.2181 H   0  0  0  0  0  0  0  0  0  0  0  0
    0.7420    5.7930   -1.3145 H   0  0  0  0  0  0  0  0  0  0  0  0
    2.2168    4.2060   -2.0609 H   0  0  0  0  0  0  0  0  0  0  0  0
    3.4133    4.5078   -0.9837 H   0  0  0  0  0  0  0  0  0  0  0  0
    2.7317    2.8630    0.1165 H   0  0  0  0  0  0  0  0  0  0  0  0
    1.1555    2.9203   -0.3265 H   0  0  0  0  0  0  0  0  0  0  0  0
    5.4461   -0.7572    2.3629 H   0  0  0  0  0  0  0  0  0  0  0  0
    5.9786   -3.0986    2.7483 H   0  0  0  0  0  0  0  0  0  0  0  0
    5.4409   -4.1672    4.9875 H   0  0  0  0  0  0  0  0  0  0  0  0
    4.0943   -2.6855    6.5551 H   0  0  0  0  0  0  0  0  0  0  0  0
    3.4818   -0.6205    6.0258 H   0  0  0  0  0  0  0  0  0  0  0  0
    6.0533    3.1140    3.4242 H   0  0  0  0  0  0  0  0  0  0  0  0
    7.5821    3.8166    1.7042 H   0  0  0  0  0  0  0  0  0  0  0  0
    7.2552    2.7491   -0.5537 H   0  0  0  0  0  0  0  0  0  0  0  0
    5.3179    1.3202   -0.8370 H   0  0  0  0  0  0  0  0  0  0  0  0
    4.0163    0.6018    1.1563 H   0  0  0  0  0  0  0  0  0  0  0  0
    6.5448    1.0580    5.3557 H   0  0  0  0  0  0  0  0  0  0  0  0
    7.3266    2.2352    7.2051 H   0  0  0  0  0  0  0  0  0  0  0  0
    6.1205    3.8953    8.4664 H   0  0  0  0  0  0  0  0  0  0  0  0
    3.8217    4.0172    7.1476 H   0  0  0  0  0  0  0  0  0  0  0  0
    3.0729    3.3462    5.7483 H   0  0  0  0  0  0  0  0  0  0  0  0
   -0.0805   -2.1813    5.1212 H   0  0  0  0  0  0  0  0  0  0  0  0
    0.0984   -3.0721    7.5517 H   0  0  0  0  0  0  0  0  0  0  0  0
    0.7124   -1.3709    9.1380 H   0  0  0  0  0  0  0  0  0  0  0  0
    1.5371    0.8011    8.4089 H   0  0  0  0  0  0  0  0  0  0  0  0
    1.5795    1.2352    6.1294 H   0  0  0  0  0  0  0  0  0  0  0  0
   -1.2676    1.7686    4.4568 H   0  0  0  0  0  0  0  0  0  0  0  0
   -3.6483    1.9568    3.8470 H   0  0  0  0  0  0  0  0  0  0  0  0
   -4.6366    0.3732    2.7526 H   0  0  0  0  0  0  0  0  0  0  0  0
   -3.3897   -1.5719    1.8020 H   0  0  0  0  0  0  0  0  0  0  0  0
   -1.0085   -1.6529    2.4751 H   0  0  0  0  0  0  0  0  0  0  0  0
    1.1346   -0.1984    0.8658 H   0  0  0  0  0  0  0  0  0  0  0  0
    1.7542   -1.6733   -0.6745 H   0  0  0  0  0  0  0  0  0  0  0  0
    2.5004   -3.8481    0.0920 H   0  0  0  0  0  0  0  0  0  0  0  0
    2.8851   -4.2606    2.4319 H   0  0  0  0  0  0  0  0  0  0  0  0
    1.8316   -2.6566    3.9506 H   0  0  0  0  0  0  0  0  0  0  0  0
   -2.1557    4.3854    4.1994 H   0  0  0  0  0  0  0  0  0  0  0  0
   -2.5999    3.9856    2.7584 H   0  0  0  0  0  0  0  0  0  0  0  0
   -3.4016    6.2068    2.3240 H   0  0  0  0  0  0  0  0  0  0  0  0
   -2.7452    6.5799    3.8830 H   0  0  0  0  0  0  0  0  0  0  0  0
   -6.3079    5.4672    5.3485 H   0  0  0  0  0  0  0  0  0  0  0  0
   -7.4211    5.9025    3.9563 H   0  0  0  0  0  0  0  0  0  0  0  0
   -7.9827    7.6088    5.5441 H   0  0  0  0  0  0  0  0  0  0  0  0
   -7.2152    8.2227    4.4597 H   0  0  0  0  0  0  0  0  0  0  0  0
   -6.4276    8.6459    6.8024 H   0  0  0  0  0  0  0  0  0  0  0  0
   -5.1552    8.3083    5.7641 H   0  0  0  0  0  0  0  0  0  0  0  0
   -6.6229    6.7555    7.7401 H   0  0  0  0  0  0  0  0  0  0  0  0
   -5.3887    6.2938    6.8887 H   0  0  0  0  0  0  0  0  0  0  0  0
   -5.3824    7.2777    7.9098 H   0  0  0  0  0  0  0  0  0  0  0  0
  1  2  1  0  0  0  0
  2 27  1  0  0  0  0
  3  1  1  0  0  0  0
  4  5  1  0  0  0  0
  5  6  1  0  0  0  0
  6  4  1  0  0  0  0
  7  1  1  0  0  0  0
  8  4  1  0  0  0  0
  9  4  1  0  0  0  0
 10  5  1  0  0  0  0
 11  6  1  0  0  0  0
 12  1  1  0  0  0  0
 13  8  1  0  0  0  0
 14  5  1  0  0  0  0
 15 10  1  0  0  0  0
 16 15  1  0  0  0  0
 17 11  1  0  0  0  0
 18 13  1  0  0  0  0
 19 18  1  0  0  0  0
 20 19  1  0  0  0  0
 21 22  1  0  0  0  0
 22 23  1  0  0  0  0
 23 24  1  0  0  0  0
 24118  1  0  0  0  0
 25 20  1  0  0  0  0
 26 20  2  0  0  0  0
 27 28  4  0  0  0  0
 28 29  4  0  0  0  0
 29 30  4  0  0  0  0
 30 31  4  0  0  0  0
 31 32  4  0  0  0  0
 32 27  4  0  0  0  0
 33  2  1  0  0  0  0
 34 33  4  0  0  0  0
 35 34  4  0  0  0  0
 36 35  4  0  0  0  0
 37 36  4  0  0  0  0
 38 33  4  0  0  0  0
 39  2  1  0  0  0  0
 40 39  4  0  0  0  0
 41 40  4  0  0  0  0
 42 41  4  0  0  0  0
 43 42  4  0  0  0  0
 44 39  4  0  0  0  0
 45  3  1  0  0  0  0
 46 45  4  0  0  0  0
 47 46  4  0  0  0  0
 48 47  4  0  0  0  0
 49 48  4  0  0  0  0
 50 45  4  0  0  0  0
 51  3  1  0  0  0  0
 52 51  4  0  0  0  0
 53 52  4  0  0  0  0
 54 53  4  0  0  0  0
 55 54  4  0  0  0  0
 56 51  4  0  0  0  0
 57  3  1  0  0  0  0
 58 57  4  0  0  0  0
 59 58  4  0  0  0  0
 60 59  4  0  0  0  0
 61 60  4  0  0  0  0
 62 57  4  0  0  0  0
 63  4  1  0  0  0  0
 64  5  1  0  0  0  0
 65  6  1  0  0  0  0
 66  1  1  0  0  0  0
 67  8  1  0  0  0  0
 68  9  1  0  0  0  0
 69  1  1  0  0  0  0
 70 13  1  0  0  0  0
 71 14  1  0  0  0  0
 72 15  1  0  0  0  0
 73 15  1  0  0  0  0
 74 16  1  0  0  0  0
 75 16  1  0  0  0  0
 76 17  1  0  0  0  0
 77 17  1  0  0  0  0
 78 28  1  0  0  0  0
 79 29  1  0  0  0  0
 80 30  1  0  0  0  0
 81 31  1  0  0  0  0
 82 32  1  0  0  0  0
 83 34  1  0  0  0  0
 84 35  1  0  0  0  0
 85 36  1  0  0  0  0
 86 37  1  0  0  0  0
 87 38  1  0  0  0  0
 88 40  1  0  0  0  0
 89 41  1  0  0  0  0
 90 42  1  0  0  0  0
 91 43  1  0  0  0  0
 92 44  1  0  0  0  0
 93 46  1  0  0  0  0
 94 47  1  0  0  0  0
 95 48  1  0  0  0  0
 96 49  1  0  0  0  0
 97 50  1  0  0  0  0
 98 52  1  0  0  0  0
 99 53  1  0  0  0  0
100 54  1  0  0  0  0
101 55  1  0  0  0  0
102 56  1  0  0  0  0
103 58  1  0  0  0  0
104 59  1  0  0  0  0
105 60  1  0  0  0  0
106 61  1  0  0  0  0
107 62  1  0  0  0  0
108 18  1  0  0  0  0
109 18  1  0  0  0  0
110 19  1  0  0  0  0
111 19  1  0  0  0  0
112 21  1  0  0  0  0
113 21  1  0  0  0  0
114 22  1  0  0  0  0
115 22  1  0  0  0  0
116 23  1  0  0  0  0
117 23  1  0  0  0  0
119 24  1  0  0  0  0
120 24  1  0  0  0  0
  4  7  1  0  0  0  0
  5  9  1  0  0  0  0
  6  7  1  0  0  0  0
  6 10  1  0  0  0  0
  7  8  1  0  0  0  0
  7 11  1  0  0  0  0
  7 12  1  0  0  0  0
  7 66  1  0  0  0  0
  8  9  1  0  0  0  0
  8 12  1  0  0  0  0
  9 13  1  0  0  0  0
  9 14  1  0  0  0  0
 10 11  1  0  0  0  0
 10 14  1  0  0  0  0
 11 12  1  0  0  0  0
 12 13  1  0  0  0  0
 12 69  1  0  0  0  0
 13 14  1  0  0  0  0
 14 70  1  0  0  0  0
 16 17  1  0  0  0  0
 21 25  1  0  0  0  0
 37 38  4  0  0  0  0
 43 44  4  0  0  0  0
 49 50  4  0  0  0  0
 55 56  4  0  0  0  0
 61 62  4  0  0  0  0
M  END
$$$$
COZCIF

From CSD data. Using bond type 'Any'. No disordered atoms. Largest molecule.
 80101  0  0  0  0  0  0  0  0999 V2000
    9.2664    1.8477   10.0541 C   0  0  0  0  0  0  0  0  0  0  0  0
    9.3061    2.3729   11.7024 C   0  0  0  0  0  0  0  0  0  0  0  0
    5.3857    4.6840    8.7493 C   0  0  0  0  0  0  0  0  0  0  0  0
    5.8844    5.2885    8.1429 H   0  0  0  0  0  0  0  0  0  0  0  0
    5.0935    3.8945    8.2291 H   0  0  0  0  0  0  0  0  0  0  0  0
    4.1918    5.3950    9.3044 C   0  0  0  0  0  0  0  0  0  0  0  0
    3.0361    5.6424    8.5490 C   0  0  0  0  0  0  0  0  0  0  0  0
    2.9471    5.2859    7.6727 H   0  0  0  0  0  0  0  0  0  0  0  0
    2.0114    6.4257    9.1096 C   0  0  0  0  0  0  0  0  0  0  0  0
    1.2272    6.5944    8.6005 H   0  0  0  0  0  0  0  0  0  0  0  0
    2.1155    6.9623   10.3907 C   0  0  0  0  0  0  0  0  0  0  0  0
    1.4290    7.5220   10.7343 H   0  0  0  0  0  0  0  0  0  0  0  0
    3.2204    6.6737   11.1502 C   0  0  0  0  0  0  0  0  0  0  0  0
    3.2924    7.0038   12.0390 H   0  0  0  0  0  0  0  0  0  0  0  0
    4.2409    5.8881   10.5994 C   0  0  0  0  0  0  0  0  0  0  0  0
    5.4668    5.5095   11.3505 C   0  0  0  0  0  0  0  0  0  0  0  0
    6.8448    0.8183    8.7313 C   0  0  0  0  0  0  0  0  0  0  0  0
    6.9828    0.2539    9.5450 H   0  0  0  0  0  0  0  0  0  0  0  0
    5.3329    1.0572    8.6242 C   0  0  0  0  0  0  0  0  0  0  0  0
    5.0319    1.5961    9.3850 H   0  0  0  0  0  0  0  0  0  0  0  0
    4.8654    0.1943    8.6283 H   0  0  0  0  0  0  0  0  0  0  0  0
    5.1363    1.5314    7.7882 H   0  0  0  0  0  0  0  0  0  0  0  0
    7.3338   -0.0311    7.5225 C   0  0  0  0  0  0  0  0  0  0  0  0
    8.2977   -0.1866    7.6004 H   0  0  0  0  0  0  0  0  0  0  0  0
    7.1458    0.4483    6.6893 H   0  0  0  0  0  0  0  0  0  0  0  0
    6.8638   -0.8913    7.5169 H   0  0  0  0  0  0  0  0  0  0  0  0
    8.5156    2.9658    7.3959 C   0  0  0  0  0  0  0  0  0  0  0  0
    9.1459    2.2595    7.0704 H   0  0  0  0  0  0  0  0  0  0  0  0
    7.4104    3.1275    6.3568 C   0  0  0  0  0  0  0  0  0  0  0  0
    6.9140    2.2854    6.2734 H   0  0  0  0  0  0  0  0  0  0  0  0
    7.8068    3.3607    5.4902 H   0  0  0  0  0  0  0  0  0  0  0  0
    6.7992    3.8400    6.6378 H   0  0  0  0  0  0  0  0  0  0  0  0
    9.2873    4.2658    7.5100 C   0  0  0  0  0  0  0  0  0  0  0  0
   10.0015    4.1639    8.1735 H   0  0  0  0  0  0  0  0  0  0  0  0
    8.6810    4.9827    7.7896 H   0  0  0  0  0  0  0  0  0  0  0  0
    9.6799    4.4904    6.6406 H   0  0  0  0  0  0  0  0  0  0  0  0
    8.5340    4.7275   13.3494 C   0  0  0  0  0  0  0  0  0  0  0  0
    7.7239    5.2030   13.6902 H   0  0  0  0  0  0  0  0  0  0  0  0
    9.3219    5.8150   12.5857 C   0  0  0  0  0  0  0  0  0  0  0  0
    8.8160    6.0891   11.7914 H   0  0  0  0  0  0  0  0  0  0  0  0
   10.1918    5.4569   12.3117 H   0  0  0  0  0  0  0  0  0  0  0  0
    9.4579    6.5892   13.1685 H   0  0  0  0  0  0  0  0  0  0  0  0
    9.2642    4.2518   14.6277 C   0  0  0  0  0  0  0  0  0  0  0  0
    8.7277    3.5654   15.0742 H   0  0  0  0  0  0  0  0  0  0  0  0
    9.3906    5.0112   15.2328 H   0  0  0  0  0  0  0  0  0  0  0  0
   10.1368    3.8789   14.3856 H   0  0  0  0  0  0  0  0  0  0  0  0
    6.7859    2.3004   13.3118 C   0  0  0  0  0  0  0  0  0  0  0  0
    7.3600    1.5858   13.7110 H   0  0  0  0  0  0  0  0  0  0  0  0
    5.6920    1.6311   12.4647 C   0  0  0  0  0  0  0  0  0  0  0  0
    6.1076    1.1220   11.7372 H   0  0  0  0  0  0  0  0  0  0  0  0
    5.1044    2.3191   12.0877 H   0  0  0  0  0  0  0  0  0  0  0  0
    5.1667    1.0261   13.0280 H   0  0  0  0  0  0  0  0  0  0  0  0
    6.1099    3.0886   14.4677 C   0  0  0  0  0  0  0  0  0  0  0  0
    6.7982    3.5187   15.0185 H   0  0  0  0  0  0  0  0  0  0  0  0
    5.5850    2.4745   15.0213 H   0  0  0  0  0  0  0  0  0  0  0  0
    5.5183    3.7753   14.0935 H   0  0  0  0  0  0  0  0  0  0  0  0
   10.8680    1.7692    9.4240 B   0  0  0  0  0  0  0  0  0  0  0  0
   11.1319    1.9641    8.3529 H   0  0  0  0  0  0  0  0  0  0  0  0
   10.3620    3.0995   10.5396 B   0  0  0  0  0  0  0  0  0  0  0  0
   10.2635    4.1639   10.2071 H   0  0  0  0  0  0  0  0  0  0  0  0
   11.7494    1.0805   12.0794 B   0  0  0  0  0  0  0  0  0  0  0  0
   12.5983    0.8084   12.7596 H   0  0  0  0  0  0  0  0  0  0  0  0
   10.0709    1.1966   12.6803 B   0  0  0  0  0  0  0  0  0  0  0  0
    9.8099    1.0157   13.7541 H   0  0  0  0  0  0  0  0  0  0  0  0
   10.9390    2.6585   12.1670 B   0  0  0  0  0  0  0  0  0  0  0  0
   11.2542    3.4410   12.9042 H   0  0  0  0  0  0  0  0  0  0  0  0
   10.0010    0.3016    9.9080 B   0  0  0  0  0  0  0  0  0  0  0  0
    9.6883   -0.4690    9.1569 H   0  0  0  0  0  0  0  0  0  0  0  0
   10.5210   -0.1296   11.5494 B   0  0  0  0  0  0  0  0  0  0  0  0
   10.5524   -1.1997   11.8833 H   0  0  0  0  0  0  0  0  0  0  0  0
   11.9311    2.2724   10.7565 B   0  0  0  0  0  0  0  0  0  0  0  0
   12.8992    2.8010   10.5646 H   0  0  0  0  0  0  0  0  0  0  0  0
   11.7109    0.5260   10.3712 B   0  0  0  0  0  0  0  0  0  0  0  0
   12.5312   -0.1011    9.9386 H   0  0  0  0  0  0  0  0  0  0  0  0
    8.9779    0.7056   11.3408 B   0  0  0  0  0  0  0  0  0  0  0  0
    7.9886    0.2151   11.5285 H   0  0  0  0  0  0  0  0  0  0  0  0
    5.7376    5.9399   12.4438 O   0  0  0  0  0  0  0  0  0  0  0  0
    7.8051    2.3970    9.0207 P   0  0  0  0  0  0  0  0  0  0  0  0
    7.8629    3.4068   12.2688 P   0  0  0  0  0  0  0  0  0  0  0  0
    6.6297    4.0766   10.3371 Au  0  3  0  0  0  0  0  0  0  0  0  0
  1  2  1  0  0  0  0
  2 59  1  0  0  0  0
  3  4  1  0  0  0  0
  5  3  1  0  0  0  0
  6  3  1  0  0  0  0
  7  6  4  0  0  0  0
  8  7  1  0  0  0  0
  9  7  4  0  0  0  0
 10  9  1  0  0  0  0
 11  9  4  0  0  0  0
 12 11  1  0  0  0  0
 13 11  4  0  0  0  0
 14 13  1  0  0  0  0
 15  6  4  0  0  0  0
 16 15  1  0  0  0  0
 17 18  1  0  0  0  0
 19 17  1  0  0  0  0
 20 19  1  0  0  0  0
 21 19  1  0  0  0  0
 22 19  1  0  0  0  0
 23 17  1  0  0  0  0
 24 23  1  0  0  0  0
 25 23  1  0  0  0  0
 26 23  1  0  0  0  0
 27 28  1  0  0  0  0
 29 27  1  0  0  0  0
 30 29  1  0  0  0  0
 31 29  1  0  0  0  0
 32 29  1  0  0  0  0
 33 27  1  0  0  0  0
 34 33  1  0  0  0  0
 35 33  1  0  0  0  0
 36 33  1  0  0  0  0
 37 38  1  0  0  0  0
 39 37  1  0  0  0  0
 40 39  1  0  0  0  0
 41 39  1  0  0  0  0
 42 39  1  0  0  0  0
 43 37  1  0  0  0  0
 44 43  1  0  0  0  0
 45 43  1  0  0  0  0
 46 43  1  0  0  0  0
 47 48  1  0  0  0  0
 49 47  1  0  0  0  0
 50 49  1  0  0  0  0
 51 49  1  0  0  0  0
 52 49  1  0  0  0  0
 53 47  1  0  0  0  0
 54 53  1  0  0  0  0
 55 53  1  0  0  0  0
 56 53  1  0  0  0  0
 57  1  1  0  0  0  0
 58 57  1  0  0  0  0
 59  1  1  0  0  0  0
 60 59  1  0  0  0  0
 61 62  1  0  0  0  0
 63  2  1  0  0  0  0
 64 63  1  0  0  0  0
 65  2  1  0  0  0  0
 66 65  1  0  0  0  0
 67  1  1  0  0  0  0
 68 67  1  0  0  0  0
 69 61  1  0  0  0  0
 70 69  1  0  0  0  0
 71 57  1  0  0  0  0
 72 71  1  0  0  0  0
 73 57  1  0  0  0  0
 74 73  1  0  0  0  0
 75  1  1  0  0  0  0
 76 75  1  0  0  0  0
 77 16  2  0  0  0  0
 78  1  1  0  0  0  0
 79  2  1  0  0  0  0
 80  3  1  0  0  0  0
  2 75  1  0  0  0  0
 13 15  4  0  0  0  0
 16 80  1  0  0  0  0
 17 78  1  0  0  0  0
 27 78  1  0  0  0  0
 37 79  1  0  0  0  0
 47 79  1  0  0  0  0
 57 59  1  0  0  0  0
 57 67  1  0  0  0  0
 59 65  1  0  0  0  0
 59 71  1  0  0  0  0
 61 63  1  0  0  0  0
 61 65  1  0  0  0  0
 61 71  1  0  0  0  0
 61 73  1  0  0  0  0
 63 65  1  0  0  0  0
 63 69  1  0  0  0  0
 63 75  1  0  0  0  0
 65 71  1  0  0  0  0
 67 69  1  0  0  0  0
 67 73  1  0  0  0  0
 67 75  1  0  0  0  0
 69 73  1  0  0  0  0
 69 75  1  0  0  0  0
 71 73  1  0  0  0  0
 78 80  1  0  0  0  0
 79 80  1  0  0  0  0
M  CHG  1  80   1
M  END
$$$$
CTPIRB

From CSD data. Using bond type 'Any'. No disordered atoms. Largest molecule.
 84 97  0  0  0  0  0  0  0  0999 V2000
    3.8684    2.5864    2.9766 B   0  0  0  0  0  0  0  0  0  0  0  0
    2.1408    1.2590    3.6454 Ir  0  0  0  0  0  0  0  0  0  0  0  0
    4.1657    1.7623    4.4888 B   0  0  0  0  0  0  0  0  0  0  0  0
    4.6993    3.3816    4.3372 B   0  0  0  0  0  0  0  0  0  0  0  0
    3.5990    4.2803    3.5004 B   0  0  0  0  0  0  0  0  0  0  0  0
    2.2640    3.3402    2.9964 B   0  0  0  0  0  0  0  0  0  0  0  0
    2.5659   -1.0768    3.9913 P   0  0  0  0  0  0  0  0  0  0  0  0
   -0.0227    1.6525    4.4723 P   0  0  0  0  0  0  0  0  0  0  0  0
    3.1828   -1.6111    5.6534 C   0  0  0  0  0  0  0  0  0  0  0  0
    3.8270   -2.8453    5.8165 C   0  0  0  0  0  0  0  0  0  0  0  0
    4.2183   -3.2636    7.0832 C   0  0  0  0  0  0  0  0  0  0  0  0
    3.9572   -2.4850    8.1704 C   0  0  0  0  0  0  0  0  0  0  0  0
    3.3515   -1.2590    8.0255 C   0  0  0  0  0  0  0  0  0  0  0  0
    2.9567   -0.8221    6.7686 C   0  0  0  0  0  0  0  0  0  0  0  0
    1.1038   -2.1391    3.7080 C   0  0  0  0  0  0  0  0  0  0  0  0
    0.4937   -2.8722    4.7062 C   0  0  0  0  0  0  0  0  0  0  0  0
   -0.6816   -3.5742    4.4641 C   0  0  0  0  0  0  0  0  0  0  0  0
   -1.2548   -3.5452    3.1990 C   0  0  0  0  0  0  0  0  0  0  0  0
   -0.6484   -2.8411    2.1942 C   0  0  0  0  0  0  0  0  0  0  0  0
    0.5333   -2.1329    2.4511 C   0  0  0  0  0  0  0  0  0  0  0  0
    3.7923   -1.7995    2.8218 C   0  0  0  0  0  0  0  0  0  0  0  0
    4.7291   -0.9836    2.2370 C   0  0  0  0  0  0  0  0  0  0  0  0
    5.7155   -1.5448    1.3870 C   0  0  0  0  0  0  0  0  0  0  0  0
    5.7175   -2.8846    1.1646 C   0  0  0  0  0  0  0  0  0  0  0  0
    4.8075   -3.6984    1.7181 C   0  0  0  0  0  0  0  0  0  0  0  0
    3.7967   -3.1580    2.5516 C   0  0  0  0  0  0  0  0  0  0  0  0
   -1.0973    2.3856    3.2006 C   0  0  0  0  0  0  0  0  0  0  0  0
   -1.4813    3.7150    3.2467 C   0  0  0  0  0  0  0  0  0  0  0  0
   -2.2879    4.2534    2.2502 C   0  0  0  0  0  0  0  0  0  0  0  0
   -2.6968    3.4624    1.2140 C   0  0  0  0  0  0  0  0  0  0  0  0
   -2.2960    2.1578    1.1152 C   0  0  0  0  0  0  0  0  0  0  0  0
   -1.4821    1.6069    2.1068 C   0  0  0  0  0  0  0  0  0  0  0  0
   -0.1108    2.8432    5.8774 C   0  0  0  0  0  0  0  0  0  0  0  0
   -1.3780    3.1310    6.4243 C   0  0  0  0  0  0  0  0  0  0  0  0
   -1.4719    4.0174    7.5000 C   0  0  0  0  0  0  0  0  0  0  0  0
   -0.3462    4.5848    8.0502 C   0  0  0  0  0  0  0  0  0  0  0  0
    0.8796    4.2928    7.5412 C   0  0  0  0  0  0  0  0  0  0  0  0
    1.0138    3.4230    6.4490 C   0  0  0  0  0  0  0  0  0  0  0  0
   -1.0582    0.3127    5.1938 C   0  0  0  0  0  0  0  0  0  0  0  0
   -0.5896   -0.2651    6.3667 C   0  0  0  0  0  0  0  0  0  0  0  0
   -1.3396   -1.2342    7.0322 C   0  0  0  0  0  0  0  0  0  0  0  0
   -2.5563   -1.6297    6.5248 C   0  0  0  0  0  0  0  0  0  0  0  0
   -3.0299   -1.0665    5.3701 C   0  0  0  0  0  0  0  0  0  0  0  0
   -2.2814   -0.0911    4.6947 C   0  0  0  0  0  0  0  0  0  0  0  0
    1.6624    0.9795    1.8565 C   0  0  0  0  0  0  0  0  0  0  0  0
    1.4468    0.8697    0.7314 O   0  0  0  0  0  0  0  0  0  0  0  0
    4.3789    2.2365    2.0920 H   0  0  0  0  0  0  0  0  0  0  0  0
    4.7681    0.9112    5.0241 H   0  0  0  0  0  0  0  0  0  0  0  0
    5.8755    3.4997    4.4805 H   0  0  0  0  0  0  0  0  0  0  0  0
    3.7624    5.3012    2.9157 H   0  0  0  0  0  0  0  0  0  0  0  0
    1.5730    3.8310    2.2732 H   0  0  0  0  0  0  0  0  0  0  0  0
    2.9146    1.6566    5.1395 H   0  0  0  0  0  0  0  0  0  0  0  0
    4.3050    2.7956    5.4030 H   0  0  0  0  0  0  0  0  0  0  0  0
    2.3493    4.2451    3.9205 H   0  0  0  0  0  0  0  0  0  0  0  0
    4.0613   -3.3961    5.0241 H   0  0  0  0  0  0  0  0  0  0  0  0
    4.6419   -4.2451    6.9514 H   0  0  0  0  0  0  0  0  0  0  0  0
    4.0921   -2.8577    9.2741 H   0  0  0  0  0  0  0  0  0  0  0  0
    3.1416   -0.6419    8.8952 H   0  0  0  0  0  0  0  0  0  0  0  0
    2.6178    0.1657    6.6385 H   0  0  0  0  0  0  0  0  0  0  0  0
    0.8791   -2.9405    5.6666 H   0  0  0  0  0  0  0  0  0  0  0  0
   -1.0803   -3.8724    5.2712 H   0  0  0  0  0  0  0  0  0  0  0  0
   -2.3182   -3.9138    3.1627 H   0  0  0  0  0  0  0  0  0  0  0  0
   -1.2606   -2.6713    1.1860 H   0  0  0  0  0  0  0  0  0  0  0  0
    1.0169   -1.6359    1.6802 H   0  0  0  0  0  0  0  0  0  0  0  0
    4.7866   -0.0414    2.4215 H   0  0  0  0  0  0  0  0  0  0  0  0
    6.2311   -0.7455    0.9884 H   0  0  0  0  0  0  0  0  0  0  0  0
    6.5325   -3.1683    0.4118 H   0  0  0  0  0  0  0  0  0  0  0  0
    4.5031   -4.5972    1.8285 H   0  0  0  0  0  0  0  0  0  0  0  0
    3.0706   -3.7481    2.8168 H   0  0  0  0  0  0  0  0  0  0  0  0
   -1.2838    4.3073    4.0852 H   0  0  0  0  0  0  0  0  0  0  0  0
   -2.5657    5.3012    2.4544 H   0  0  0  0  0  0  0  0  0  0  0  0
   -3.3618    3.9345    0.3953 H   0  0  0  0  0  0  0  0  0  0  0  0
   -2.4833    1.3874    0.3953 H   0  0  0  0  0  0  0  0  0  0  0  0
   -1.2830    0.5798    2.0426 H   0  0  0  0  0  0  0  0  0  0  0  0
   -2.2371    2.7335    5.9960 H   0  0  0  0  0  0  0  0  0  0  0  0
   -2.4526    4.2037    7.8904 H   0  0  0  0  0  0  0  0  0  0  0  0
   -0.4311    5.4048    8.8623 H   0  0  0  0  0  0  0  0  0  0  0  0
    1.7982    4.6593    7.8904 H   0  0  0  0  0  0  0  0  0  0  0  0
    1.8800    3.2304    6.0454 H   0  0  0  0  0  0  0  0  0  0  0  0
    0.4202   -0.0207    6.7702 H   0  0  0  0  0  0  0  0  0  0  0  0
   -0.9506   -1.6359    7.9398 H   0  0  0  0  0  0  0  0  0  0  0  0
   -3.0747   -2.5057    7.0009 H   0  0  0  0  0  0  0  0  0  0  0  0
   -3.8820   -1.3667    4.7606 H   0  0  0  0  0  0  0  0  0  0  0  0
   -2.7112    0.4349    3.7558 H   0  0  0  0  0  0  0  0  0  0  0  0
  1  2  1  0  0  0  0
  2  3  1  0  0  0  0
  3  1  1  0  0  0  0
  4  1  1  0  0  0  0
  5  1  1  0  0  0  0
  6  1  1  0  0  0  0
  7  2  1  0  0  0  0
  8  2  1  0  0  0  0
  9  7  1  0  0  0  0
 10  9  4  0  0  0  0
 11 10  4  0  0  0  0
 12 11  4  0  0  0  0
 13 12  4  0  0  0  0
 14  9  4  0  0  0  0
 15  7  1  0  0  0  0
 16 15  4  0  0  0  0
 17 16  4  0  0  0  0
 18 17  4  0  0  0  0
 19 18  4  0  0  0  0
 20 15  4  0  0  0  0
 21  7  1  0  0  0  0
 22 21  4  0  0  0  0
 23 22  4  0  0  0  0
 24 23  4  0  0  0  0
 25 24  4  0  0  0  0
 26 21  4  0  0  0  0
 27  8  1  0  0  0  0
 28 27  4  0  0  0  0
 29 28  4  0  0  0  0
 30 29  4  0  0  0  0
 31 30  4  0  0  0  0
 32 27  4  0  0  0  0
 33  8  1  0  0  0  0
 34 33  4  0  0  0  0
 35 34  4  0  0  0  0
 36 35  4  0  0  0  0
 37 36  4  0  0  0  0
 38 33  4  0  0  0  0
 39  8  1  0  0  0  0
 40 39  4  0  0  0  0
 41 40  4  0  0  0  0
 42 41  4  0  0  0  0
 43 42  4  0  0  0  0
 44 39  4  0  0  0  0
 45  2  1  0  0  0  0
 46 45  3  0  0  0  0
 47  1  1  0  0  0  0
 48  3  1  0  0  0  0
 49  4  1  0  0  0  0
 50  5  1  0  0  0  0
 51  6  1  0  0  0  0
 52  2  1  0  0  0  0
 53  3  1  0  0  0  0
 54  5  1  0  0  0  0
 55 10  1  0  0  0  0
 56 11  1  0  0  0  0
 57 12  1  0  0  0  0
 58 13  1  0  0  0  0
 59 14  1  0  0  0  0
 60 16  1  0  0  0  0
 61 17  1  0  0  0  0
 62 18  1  0  0  0  0
 63 19  1  0  0  0  0
 64 20  1  0  0  0  0
 65 22  1  0  0  0  0
 66 23  1  0  0  0  0
 67 24  1  0  0  0  0
 68 25  1  0  0  0  0
 69 26  1  0  0  0  0
 70 28  1  0  0  0  0
 71 29  1  0  0  0  0
 72 30  1  0  0  0  0
 73 31  1  0  0  0  0
 74 32  1  0  0  0  0
 75 34  1  0  0  0  0
 76 35  1  0  0  0  0
 77 36  1  0  0  0  0
 78 37  1  0  0  0  0
 79 38  1  0  0  0  0
 80 40  1  0  0  0  0
 81 41  1  0  0  0  0
 82 42  1  0  0  0  0
 83 43  1  0  0  0  0
 84 44  1  0  0  0  0
  2  6  1  0  0  0  0
  3  4  1  0  0  0  0
  3 52  1  0  0  0  0
  4  5  1  0  0  0  0
  4 53  1  0  0  0  0
  5  6  1  0  0  0  0
  6 54  1  0  0  0  0
 13 14  4  0  0  0  0
 19 20  4  0  0  0  0
 25 26  4  0  0  0  0
 31 32  4  0  0  0  0
 37 38  4  0  0  0  0
 43 44  4  0  0  0  0
M  END
$$$$
CUBLUG

From CSD data. Using bond type 'Any'. No disordered atoms. Largest molecule.
 50 56  0  0  0  0  0  0  0  0999 V2000
    1.7027    3.4055    0.8914 Ir  0  0  0  0  0  0  0  0  0  0  0  0
    3.9653    3.6897    0.2986 B   0  0  0  0  0  0  0  0  0  0  0  0
    2.8768    4.6579   -0.5404 B   0  0  0  0  0  0  0  0  0  0  0  0
    1.7459    3.4604   -1.0639 B   0  0  0  0  0  0  0  0  0  0  0  0
    1.5705    4.8733    2.0191 C   0  0  0  0  0  0  0  0  0  0  0  0
    1.5149    5.7766    2.6314 O   0  0  0  0  0  0  0  0  0  0  0  0
   -0.7190    3.3446    1.2406 P   0  0  0  0  0  0  0  0  0  0  0  0
    2.0804    1.7325    2.2553 P   0  0  0  0  0  0  0  0  0  0  0  0
   -1.4424    4.9775    1.0044 C   0  0  0  0  0  0  0  0  0  0  0  0
   -1.5011    2.2676    0.2523 C   0  0  0  0  0  0  0  0  0  0  0  0
   -1.7014    2.9277    2.8005 C   0  0  0  0  0  0  0  0  0  0  0  0
   -1.7081    3.8240    3.7576 C   0  0  0  0  0  0  0  0  0  0  0  0
   -2.4366    3.5438    4.9585 C   0  0  0  0  0  0  0  0  0  0  0  0
   -3.1387    2.3556    5.2146 C   0  0  0  0  0  0  0  0  0  0  0  0
   -3.1299    1.4592    4.2442 C   0  0  0  0  0  0  0  0  0  0  0  0
   -2.3989    1.7487    3.0367 C   0  0  0  0  0  0  0  0  0  0  0  0
    0.9882    0.2617    2.3933 C   0  0  0  0  0  0  0  0  0  0  0  0
    3.7859    0.9774    1.9312 C   0  0  0  0  0  0  0  0  0  0  0  0
    1.9205    2.2791    3.8644 C   0  0  0  0  0  0  0  0  0  0  0  0
    0.8006    1.9572    4.7884 C   0  0  0  0  0  0  0  0  0  0  0  0
    0.7147    2.3834    6.0016 C   0  0  0  0  0  0  0  0  0  0  0  0
    1.7693    3.1593    6.2870 C   0  0  0  0  0  0  0  0  0  0  0  0
    2.8868    3.4882    5.3638 C   0  0  0  0  0  0  0  0  0  0  0  0
    2.9476    3.0666    4.1507 C   0  0  0  0  0  0  0  0  0  0  0  0
    4.5017    3.0342   -0.1795 H   0  0  0  0  0  0  0  0  0  0  0  0
    4.0634    4.3545   -0.7464 H   0  0  0  0  0  0  0  0  0  0  0  0
    4.2385    4.5166    1.1055 H   0  0  0  0  0  0  0  0  0  0  0  0
    1.0827    1.0423   -0.6425 H   0  0  0  0  0  0  0  0  0  0  0  0
    2.6876    4.2155   -1.5779 H   0  0  0  0  0  0  0  0  0  0  0  0
    0.9007    3.8217   -1.4928 H   0  0  0  0  0  0  0  0  0  0  0  0
    2.8386    5.7905   -0.5386 H   0  0  0  0  0  0  0  0  0  0  0  0
   -0.9858    5.1420    0.4157 H   0  0  0  0  0  0  0  0  0  0  0  0
   -2.3852    4.8177    1.0393 H   0  0  0  0  0  0  0  0  0  0  0  0
   -1.2508    5.6979    1.5212 H   0  0  0  0  0  0  0  0  0  0  0  0
   -2.4454    2.4088    0.4441 H   0  0  0  0  0  0  0  0  0  0  0  0
   -0.9599    2.5478   -0.6047 H   0  0  0  0  0  0  0  0  0  0  0  0
   -1.3055    1.3434    0.2929 H   0  0  0  0  0  0  0  0  0  0  0  0
   -1.2157    4.6324    3.6660 H   0  0  0  0  0  0  0  0  0  0  0  0
   -2.4880    4.1923    5.6501 H   0  0  0  0  0  0  0  0  0  0  0  0
   -2.2671    1.0191    2.3810 H   0  0  0  0  0  0  0  0  0  0  0  0
    0.0903    0.5559    2.7684 H   0  0  0  0  0  0  0  0  0  0  0  0
    0.9887   -0.3011    1.7007 H   0  0  0  0  0  0  0  0  0  0  0  0
    1.3405   -0.4169    3.0046 H   0  0  0  0  0  0  0  0  0  0  0  0
    3.7995    0.2085    2.5889 H   0  0  0  0  0  0  0  0  0  0  0  0
    3.8332    0.4169    1.3700 H   0  0  0  0  0  0  0  0  0  0  0  0
    4.5979    1.5982    1.9369 H   0  0  0  0  0  0  0  0  0  0  0  0
    0.3246    1.4824    4.7053 H   0  0  0  0  0  0  0  0  0  0  0  0
    1.7663    3.3353    7.2186 H   0  0  0  0  0  0  0  0  0  0  0  0
    3.8064    4.1228    5.6123 H   0  0  0  0  0  0  0  0  0  0  0  0
    1.2246    1.8877   -0.5678 B   0  0  0  0  0  0  0  0  0  0  0  0
  1  2  1  0  0  0  0
  2  3  1  0  0  0  0
  3  1  1  0  0  0  0
  4  1  1  0  0  0  0
  5  1  1  0  0  0  0
  6  5  3  0  0  0  0
  7  1  1  0  0  0  0
  8  1  1  0  0  0  0
  9  7  1  0  0  0  0
 10  7  1  0  0  0  0
 11  7  1  0  0  0  0
 12 11  4  0  0  0  0
 13 12  4  0  0  0  0
 14 13  4  0  0  0  0
 15 14  4  0  0  0  0
 16 11  4  0  0  0  0
 17  8  1  0  0  0  0
 18  8  1  0  0  0  0
 19  8  1  0  0  0  0
 20 19  4  0  0  0  0
 21 20  4  0  0  0  0
 22 21  4  0  0  0  0
 23 22  4  0  0  0  0
 24 19  4  0  0  0  0
 25  2  1  0  0  0  0
 26  2  1  0  0  0  0
 27  2  1  0  0  0  0
 28 50  1  0  0  0  0
 29  3  1  0  0  0  0
 30  4  1  0  0  0  0
 31  3  1  0  0  0  0
 32  9  1  0  0  0  0
 33  9  1  0  0  0  0
 34  9  1  0  0  0  0
 35 10  1  0  0  0  0
 36 10  1  0  0  0  0
 37 10  1  0  0  0  0
 38 12  1  0  0  0  0
 39 13  1  0  0  0  0
 40 16  1  0  0  0  0
 41 17  1  0  0  0  0
 42 17  1  0  0  0  0
 43 17  1  0  0  0  0
 44 18  1  0  0  0  0
 45 18  1  0  0  0  0
 46 18  1  0  0  0  0
 47 20  1  0  0  0  0
 48 22  1  0  0  0  0
 49 23  1  0  0  0  0
 50  1  1  0  0  0  0
  3  4  1  0  0  0  0
  3 26  1  0  0  0  0
  4 29  1  0  0  0  0
  4 50  1  0  0  0  0
 15 16  4  0  0  0  0
 23 24  4  0  0  0  0
M  END
$$$$
CUCHIS

From CSD data. Using bond type 'Any'. No disordered atoms. Largest molecule.
138156  0  0  0  0  0  0  0  0999 V2000
   -7.9837    3.5871   22.1155 Ca  0  0  0  0  0  0  0  0  0  0  0  0
   -4.8492    3.6021   20.6148 Ca  0  0  0  0  0  0  0  0  0  0  0  0
   -7.9464    6.1915   23.1019 B   0  0  0  0  0  0  0  0  0  0  0  0
   -3.8706    1.8602   22.5369 B   0  0  0  0  0  0  0  0  0  0  0  0
   -7.9808    0.8843   21.7687 B   0  0  0  0  0  0  0  0  0  0  0  0
   -5.7306    5.2372   18.5614 B   0  0  0  0  0  0  0  0  0  0  0  0
  -10.3495    3.8252   22.1979 O   0  0  0  0  0  0  0  0  0  0  0  0
   -2.6282    4.0196   19.8128 O   0  0  0  0  0  0  0  0  0  0  0  0
   -6.0898    5.8323   23.5192 P   0  0  0  0  0  0  0  0  0  0  0  0
   -4.8592    2.9906   23.7942 P   0  0  0  0  0  0  0  0  0  0  0  0
   -7.8010    1.3366   19.8759 P   0  0  0  0  0  0  0  0  0  0  0  0
   -7.2911    4.0972   18.4283 P   0  0  0  0  0  0  0  0  0  0  0  0
   -5.6203    4.2692   22.9418 C   0  0  0  0  0  0  0  0  0  0  0  0
   -5.0604    7.1583   22.7972 C   0  0  0  0  0  0  0  0  0  0  0  0
   -5.5344    8.4719   22.7337 C   0  0  0  0  0  0  0  0  0  0  0  0
   -6.4198    8.6593   23.0210 H   0  0  0  0  0  0  0  0  0  0  0  0
   -4.7470    9.4996   22.2634 C   0  0  0  0  0  0  0  0  0  0  0  0
   -5.0921   10.3840   22.2207 H   0  0  0  0  0  0  0  0  0  0  0  0
   -3.4520    9.2455   21.8523 C   0  0  0  0  0  0  0  0  0  0  0  0
   -2.9003    9.9559   21.5479 H   0  0  0  0  0  0  0  0  0  0  0  0
   -2.9641    7.9512   21.8864 C   0  0  0  0  0  0  0  0  0  0  0  0
   -2.0808    7.7716   21.5834 H   0  0  0  0  0  0  0  0  0  0  0  0
   -3.7552    6.9132   22.3600 C   0  0  0  0  0  0  0  0  0  0  0  0
   -3.4079    6.0300   22.3867 H   0  0  0  0  0  0  0  0  0  0  0  0
   -5.8361    6.1836   25.3112 C   0  0  0  0  0  0  0  0  0  0  0  0
   -4.5866    6.5202   25.8145 C   0  0  0  0  0  0  0  0  0  0  0  0
   -3.8479    6.5823   25.2202 H   0  0  0  0  0  0  0  0  0  0  0  0
   -4.3909    6.7675   27.1509 C   0  0  0  0  0  0  0  0  0  0  0  0
   -3.5222    6.9867   27.4669 H   0  0  0  0  0  0  0  0  0  0  0  0
   -5.4235    6.7032   28.0265 C   0  0  0  0  0  0  0  0  0  0  0  0
   -5.2797    6.8884   28.9459 H   0  0  0  0  0  0  0  0  0  0  0  0
   -6.6832    6.3666   27.5742 C   0  0  0  0  0  0  0  0  0  0  0  0
   -7.4069    6.3067   28.1871 H   0  0  0  0  0  0  0  0  0  0  0  0
   -6.8923    6.1147   26.2119 C   0  0  0  0  0  0  0  0  0  0  0  0
   -7.7641    5.8956   25.9019 H   0  0  0  0  0  0  0  0  0  0  0  0
   -6.0933    1.9528   24.6962 C   0  0  0  0  0  0  0  0  0  0  0  0
   -7.2960    2.5096   25.1188 C   0  0  0  0  0  0  0  0  0  0  0  0
   -7.4257    3.4481   25.0513 H   0  0  0  0  0  0  0  0  0  0  0  0
   -8.3182    1.7156   25.6396 C   0  0  0  0  0  0  0  0  0  0  0  0
   -9.1328    2.1109   25.9256 H   0  0  0  0  0  0  0  0  0  0  0  0
   -8.1349    0.3411   25.7350 C   0  0  0  0  0  0  0  0  0  0  0  0
   -8.8332   -0.2089   26.0709 H   0  0  0  0  0  0  0  0  0  0  0  0
   -6.9389   -0.2270   25.3435 C   0  0  0  0  0  0  0  0  0  0  0  0
   -6.8168   -1.1656   25.4217 H   0  0  0  0  0  0  0  0  0  0  0  0
   -5.9102    0.5625   24.8340 C   0  0  0  0  0  0  0  0  0  0  0  0
   -5.0855    0.1638   24.5800 H   0  0  0  0  0  0  0  0  0  0  0  0
   -3.6678    3.4154   25.1239 C   0  0  0  0  0  0  0  0  0  0  0  0
   -3.9289    3.2189   26.4582 C   0  0  0  0  0  0  0  0  0  0  0  0
   -4.7669    2.8654   26.7259 H   0  0  0  0  0  0  0  0  0  0  0  0
   -2.9659    3.5374   27.4257 C   0  0  0  0  0  0  0  0  0  0  0  0
   -3.1680    3.4301   28.3472 H   0  0  0  0  0  0  0  0  0  0  0  0
   -1.7424    3.9993   27.0525 C   0  0  0  0  0  0  0  0  0  0  0  0
   -1.0732    4.1518   27.7099 H   0  0  0  0  0  0  0  0  0  0  0  0
   -1.4713    4.2500   25.7116 C   0  0  0  0  0  0  0  0  0  0  0  0
   -0.6387    4.6261   25.4544 H   0  0  0  0  0  0  0  0  0  0  0  0
   -2.4255    3.9474   24.7552 C   0  0  0  0  0  0  0  0  0  0  0  0
   -2.2366    4.1021   23.8390 H   0  0  0  0  0  0  0  0  0  0  0  0
   -7.2677    2.9681   19.7351 C   0  0  0  0  0  0  0  0  0  0  0  0
   -9.4266    0.8290   19.1432 C   0  0  0  0  0  0  0  0  0  0  0  0
   -9.5864   -0.2135   18.2374 C   0  0  0  0  0  0  0  0  0  0  0  0
   -8.8172   -0.6483   17.8844 H   0  0  0  0  0  0  0  0  0  0  0  0
  -10.8550   -0.6325   17.8376 C   0  0  0  0  0  0  0  0  0  0  0  0
  -10.9471   -1.3361   17.2057 H   0  0  0  0  0  0  0  0  0  0  0  0
  -11.9845   -0.0203   18.3622 C   0  0  0  0  0  0  0  0  0  0  0  0
  -12.8493   -0.3230   18.1097 H   0  0  0  0  0  0  0  0  0  0  0  0
  -11.8499    1.0255   19.2487 C   0  0  0  0  0  0  0  0  0  0  0  0
  -12.6225    1.4491   19.6035 H   0  0  0  0  0  0  0  0  0  0  0  0
  -10.5884    1.4592   19.6216 C   0  0  0  0  0  0  0  0  0  0  0  0
  -10.5064    2.1967   20.2141 H   0  0  0  0  0  0  0  0  0  0  0  0
   -6.6373    0.1197   19.1400 C   0  0  0  0  0  0  0  0  0  0  0  0
   -5.6286    0.5195   18.2920 C   0  0  0  0  0  0  0  0  0  0  0  0
   -5.5547    1.4344   18.0445 H   0  0  0  0  0  0  0  0  0  0  0  0
   -4.7100   -0.4100   17.7917 C   0  0  0  0  0  0  0  0  0  0  0  0
   -4.0113   -0.1208   17.2146 H   0  0  0  0  0  0  0  0  0  0  0  0
   -4.8118   -1.7416   18.1278 C   0  0  0  0  0  0  0  0  0  0  0  0
   -4.2062   -2.3752   17.7600 H   0  0  0  0  0  0  0  0  0  0  0  0
   -5.7811   -2.1437   18.9888 C   0  0  0  0  0  0  0  0  0  0  0  0
   -5.8415   -3.0574   19.2419 H   0  0  0  0  0  0  0  0  0  0  0  0
   -6.6823   -1.2266   19.4992 C   0  0  0  0  0  0  0  0  0  0  0  0
   -7.3493   -1.5213   20.1104 H   0  0  0  0  0  0  0  0  0  0  0  0
   -8.7931    5.1615   18.4174 C   0  0  0  0  0  0  0  0  0  0  0  0
  -10.0095    4.7086   17.9064 C   0  0  0  0  0  0  0  0  0  0  0  0
  -10.0817    3.8152   17.5910 H   0  0  0  0  0  0  0  0  0  0  0  0
  -11.1207    5.5500   17.8527 C   0  0  0  0  0  0  0  0  0  0  0  0
  -11.9405    5.2326   17.4902 H   0  0  0  0  0  0  0  0  0  0  0  0
  -11.0297    6.8376   18.3249 C   0  0  0  0  0  0  0  0  0  0  0  0
  -11.7853    7.4113   18.2816 H   0  0  0  0  0  0  0  0  0  0  0  0
   -9.8445    7.3006   18.8602 C   0  0  0  0  0  0  0  0  0  0  0  0
   -9.7900    8.1872   19.1975 H   0  0  0  0  0  0  0  0  0  0  0  0
   -8.7240    6.4671   18.9043 C   0  0  0  0  0  0  0  0  0  0  0  0
   -7.9095    6.7924   19.2686 H   0  0  0  0  0  0  0  0  0  0  0  0
   -7.3421    3.4866   16.6826 C   0  0  0  0  0  0  0  0  0  0  0  0
   -7.9258    2.2984   16.3133 C   0  0  0  0  0  0  0  0  0  0  0  0
   -8.2476    1.7088   16.9864 H   0  0  0  0  0  0  0  0  0  0  0  0
   -8.0592    1.9392   14.9721 C   0  0  0  0  0  0  0  0  0  0  0  0
   -8.4825    1.1227   14.7397 H   0  0  0  0  0  0  0  0  0  0  0  0
   -7.5750    2.7705   13.9848 C   0  0  0  0  0  0  0  0  0  0  0  0
   -7.6706    2.5390   13.0680 H   0  0  0  0  0  0  0  0  0  0  0  0
   -6.9552    3.9259   14.3425 C   0  0  0  0  0  0  0  0  0  0  0  0
   -6.5924    4.4906   13.6697 H   0  0  0  0  0  0  0  0  0  0  0  0
   -6.8450    4.2930   15.6766 C   0  0  0  0  0  0  0  0  0  0  0  0
   -6.4178    5.1118   15.9016 H   0  0  0  0  0  0  0  0  0  0  0  0
  -11.3212    3.1364   23.0296 C   0  0  0  0  0  0  0  0  0  0  0  0
  -11.1600    3.3352   23.9872 H   0  0  0  0  0  0  0  0  0  0  0  0
  -11.2574    2.1572   22.8965 H   0  0  0  0  0  0  0  0  0  0  0  0
  -12.6967    3.6402   22.6096 C   0  0  0  0  0  0  0  0  0  0  0  0
  -13.0933    4.2139   23.3114 H   0  0  0  0  0  0  0  0  0  0  0  0
  -13.3118    2.8846   22.4282 H   0  0  0  0  0  0  0  0  0  0  0  0
  -12.4251    4.4466   21.3324 C   0  0  0  0  0  0  0  0  0  0  0  0
  -12.4799    3.8751   20.5253 H   0  0  0  0  0  0  0  0  0  0  0  0
  -13.0585    5.2010   21.2396 H   0  0  0  0  0  0  0  0  0  0  0  0
  -11.0260    4.9356   21.5603 C   0  0  0  0  0  0  0  0  0  0  0  0
  -10.5913    5.1671   20.7032 H   0  0  0  0  0  0  0  0  0  0  0  0
  -11.0235    5.7330   22.1466 H   0  0  0  0  0  0  0  0  0  0  0  0
   -1.7417    3.0291   19.3012 C   0  0  0  0  0  0  0  0  0  0  0  0
   -2.1777    2.5096   18.5810 H   0  0  0  0  0  0  0  0  0  0  0  0
   -1.4611    2.4068   20.0185 H   0  0  0  0  0  0  0  0  0  0  0  0
   -0.5596    3.8050   18.7707 C   0  0  0  0  0  0  0  0  0  0  0  0
    0.2064    3.7328   19.3931 H   0  0  0  0  0  0  0  0  0  0  0  0
   -0.2846    3.4515   17.8874 H   0  0  0  0  0  0  0  0  0  0  0  0
   -0.9722    5.1570   18.6521 C   0  0  0  0  0  0  0  0  0  0  0  0
   -0.2424    5.7703   18.9218 H   0  0  0  0  0  0  0  0  0  0  0  0
   -1.2345    5.3625   17.7185 H   0  0  0  0  0  0  0  0  0  0  0  0
   -2.0806    5.2835   19.5265 C   0  0  0  0  0  0  0  0  0  0  0  0
   -1.7914    5.7183   20.3653 H   0  0  0  0  0  0  0  0  0  0  0  0
   -2.7689    5.8550   19.1026 H   0  0  0  0  0  0  0  0  0  0  0  0
   -8.0062    6.0425   21.9984 H   0  0  0  0  0  0  0  0  0  0  0  0
   -8.5374    5.3874   23.7412 H   0  0  0  0  0  0  0  0  0  0  0  0
   -8.2593    7.1606   23.4863 H   0  0  0  0  0  0  0  0  0  0  0  0
   -4.6082    1.5021   21.6398 H   0  0  0  0  0  0  0  0  0  0  0  0
   -3.0812    2.5525   22.0547 H   0  0  0  0  0  0  0  0  0  0  0  0
   -3.2392    0.9939   23.1247 H   0  0  0  0  0  0  0  0  0  0  0  0
   -7.0910    1.3327   22.2651 H   0  0  0  0  0  0  0  0  0  0  0  0
   -8.9622    1.3666   22.1525 H   0  0  0  0  0  0  0  0  0  0  0  0
   -8.0268   -0.1694   21.9628 H   0  0  0  0  0  0  0  0  0  0  0  0
   -5.6826    5.6359   19.6006 H   0  0  0  0  0  0  0  0  0  0  0  0
   -4.8388    4.5177   18.3172 H   0  0  0  0  0  0  0  0  0  0  0  0
   -5.7433    6.1215   17.8726 H   0  0  0  0  0  0  0  0  0  0  0  0
  1  7  1  0  0  0  0
  2  8  1  0  0  0  0
  3  9  1  0  0  0  0
  4 10  1  0  0  0  0
  5 11  1  0  0  0  0
  6 12  1  0  0  0  0
  7103  1  0  0  0  0
  8115  1  0  0  0  0
  9 13  1  0  0  0  0
 10 13  1  0  0  0  0
 11 58  1  0  0  0  0
 12 58  1  0  0  0  0
 13  1  1  0  0  0  0
 14  9  1  0  0  0  0
 15 14  4  0  0  0  0
 16 15  1  0  0  0  0
 17 15  4  0  0  0  0
 18 17  1  0  0  0  0
 19 17  4  0  0  0  0
 20 19  1  0  0  0  0
 21 19  4  0  0  0  0
 22 21  1  0  0  0  0
 23 14  4  0  0  0  0
 24 23  1  0  0  0  0
 25  9  1  0  0  0  0
 26 25  4  0  0  0  0
 27 26  1  0  0  0  0
 28 26  4  0  0  0  0
 29 28  1  0  0  0  0
 30 28  4  0  0  0  0
 31 30  1  0  0  0  0
 32 30  4  0  0  0  0
 33 32  1  0  0  0  0
 34 25  4  0  0  0  0
 35 34  1  0  0  0  0
 36 10  1  0  0  0  0
 37 36  4  0  0  0  0
 38 37  1  0  0  0  0
 39 37  4  0  0  0  0
 40 39  1  0  0  0  0
 41 39  4  0  0  0  0
 42 41  1  0  0  0  0
 43 41  4  0  0  0  0
 44 43  1  0  0  0  0
 45 36  4  0  0  0  0
 46 45  1  0  0  0  0
 47 10  1  0  0  0  0
 48 47  4  0  0  0  0
 49 48  1  0  0  0  0
 50 48  4  0  0  0  0
 51 50  1  0  0  0  0
 52 50  4  0  0  0  0
 53 52  1  0  0  0  0
 54 52  4  0  0  0  0
 55 54  1  0  0  0  0
 56 47  4  0  0  0  0
 57 56  1  0  0  0  0
 58  1  1  0  0  0  0
 59 11  1  0  0  0  0
 60 59  4  0  0  0  0
 61 60  1  0  0  0  0
 62 60  4  0  0  0  0
 63 62  1  0  0  0  0
 64 62  4  0  0  0  0
 65 64  1  0  0  0  0
 66 64  4  0  0  0  0
 67 66  1  0  0  0  0
 68 59  4  0  0  0  0
 69 68  1  0  0  0  0
 70 11  1  0  0  0  0
 71 70  4  0  0  0  0
 72 71  1  0  0  0  0
 73 71  4  0  0  0  0
 74 73  1  0  0  0  0
 75 73  4  0  0  0  0
 76 75  1  0  0  0  0
 77 75  4  0  0  0  0
 78 77  1  0  0  0  0
 79 70  4  0  0  0  0
 80 79  1  0  0  0  0
 81 12  1  0  0  0  0
 82 81  4  0  0  0  0
 83 82  1  0  0  0  0
 84 82  4  0  0  0  0
 85 84  1  0  0  0  0
 86 84  4  0  0  0  0
 87 86  1  0  0  0  0
 88 86  4  0  0  0  0
 89 88  1  0  0  0  0
 90 81  4  0  0  0  0
 91 90  1  0  0  0  0
 92 12  1  0  0  0  0
 93 92  4  0  0  0  0
 94 93  1  0  0  0  0
 95 93  4  0  0  0  0
 96 95  1  0  0  0  0
 97 95  4  0  0  0  0
 98 97  1  0  0  0  0
 99 97  4  0  0  0  0
100 99  1  0  0  0  0
101 92  4  0  0  0  0
102101  1  0  0  0  0
103104  1  0  0  0  0
105103  1  0  0  0  0
106103  1  0  0  0  0
107106  1  0  0  0  0
108106  1  0  0  0  0
109106  1  0  0  0  0
110109  1  0  0  0  0
111109  1  0  0  0  0
112  7  1  0  0  0  0
113112  1  0  0  0  0
114112  1  0  0  0  0
115116  1  0  0  0  0
117115  1  0  0  0  0
118115  1  0  0  0  0
119118  1  0  0  0  0
120118  1  0  0  0  0
121118  1  0  0  0  0
122121  1  0  0  0  0
123121  1  0  0  0  0
124  8  1  0  0  0  0
125124  1  0  0  0  0
126124  1  0  0  0  0
127  1  1  0  0  0  0
128  1  1  0  0  0  0
129  3  1  0  0  0  0
130  2  1  0  0  0  0
131  2  1  0  0  0  0
132  4  1  0  0  0  0
133  1  1  0  0  0  0
134  1  1  0  0  0  0
135  5  1  0  0  0  0
136  2  1  0  0  0  0
137  2  1  0  0  0  0
138  6  1  0  0  0  0
  2 13  1  0  0  0  0
  2 58  1  0  0  0  0
  3127  1  0  0  0  0
  3128  1  0  0  0  0
  4130  1  0  0  0  0
  4131  1  0  0  0  0
  5133  1  0  0  0  0
  5134  1  0  0  0  0
  6136  1  0  0  0  0
  6137  1  0  0  0  0
 21 23  4  0  0  0  0
 32 34  4  0  0  0  0
 43 45  4  0  0  0  0
 54 56  4  0  0  0  0
 66 68  4  0  0  0  0
 77 79  4  0  0  0  0
 88 90  4  0  0  0  0
 99101  4  0  0  0  0
109112  1  0  0  0  0
121124  1  0  0  0  0
M  END
$$$$
CUCHOY

From CSD data. Using bond type 'Any'. No disordered atoms. Largest molecule.
152172  0  0  0  0  0  0  0  0999 V2000
    1.4628    8.0347    7.9425 Ca  0  0  0  0  0  0  0  0  0  0  0  0
    4.2416    9.5598    6.4394 Ca  0  0  0  0  0  0  0  0  0  0  0  0
    3.3690    6.4946    9.3466 B   0  0  0  0  0  0  0  0  0  0  0  0
    3.2428    8.7628    3.9573 B   0  0  0  0  0  0  0  0  0  0  0  0
   -0.1883    9.7958    6.4789 B   0  0  0  0  0  0  0  0  0  0  0  0
    5.1139   10.5966    8.9286 B   0  0  0  0  0  0  0  0  0  0  0  0
    6.3759   10.4242    5.4763 N   0  0  0  0  0  0  0  0  0  0  0  0
    4.1464    6.1684    7.6004 P   0  0  0  0  0  0  0  0  0  0  0  0
    3.0444    7.0195    4.7800 P   0  0  0  0  0  0  0  0  0  0  0  0
    1.0667   11.1506    7.0218 P   0  0  0  0  0  0  0  0  0  0  0  0
    3.2450   10.9415    9.2310 P   0  0  0  0  0  0  0  0  0  0  0  0
   -0.4721    6.9771    8.8938 O   0  0  0  0  0  0  0  0  0  0  0  0
    3.3318    7.1661    6.4656 C   0  0  0  0  0  0  0  0  0  0  0  0
    4.2438    4.3457    7.3434 C   0  0  0  0  0  0  0  0  0  0  0  0
    3.2882    3.5068    7.9090 C   0  0  0  0  0  0  0  0  0  0  0  0
    2.5646    3.8798    8.4008 H   0  0  0  0  0  0  0  0  0  0  0  0
    3.3810    2.1256    7.7614 C   0  0  0  0  0  0  0  0  0  0  0  0
    2.7234    1.5619    8.1530 H   0  0  0  0  0  0  0  0  0  0  0  0
    4.4240    1.5751    7.0521 C   0  0  0  0  0  0  0  0  0  0  0  0
    4.4900    0.6317    6.9575 H   0  0  0  0  0  0  0  0  0  0  0  0
    5.3603    2.3893    6.4827 C   0  0  0  0  0  0  0  0  0  0  0  0
    6.0813    2.0112    5.9908 H   0  0  0  0  0  0  0  0  0  0  0  0
    5.2673    3.7704    6.6189 C   0  0  0  0  0  0  0  0  0  0  0  0
    5.9188    4.3275    6.2065 H   0  0  0  0  0  0  0  0  0  0  0  0
    5.9206    6.5709    7.6763 C   0  0  0  0  0  0  0  0  0  0  0  0
    6.5742    7.1479    6.5924 C   0  0  0  0  0  0  0  0  0  0  0  0
    6.0879    7.3153    5.7922 H   0  0  0  0  0  0  0  0  0  0  0  0
    7.9134    7.4811    6.6472 C   0  0  0  0  0  0  0  0  0  0  0  0
    8.3415    7.8708    5.8906 H   0  0  0  0  0  0  0  0  0  0  0  0
    8.6332    7.2473    7.8030 C   0  0  0  0  0  0  0  0  0  0  0  0
    9.5525    7.4844    7.8522 H   0  0  0  0  0  0  0  0  0  0  0  0
    8.0022    6.6654    8.8907 C   0  0  0  0  0  0  0  0  0  0  0  0
    8.4918    6.4962    9.6890 H   0  0  0  0  0  0  0  0  0  0  0  0
    6.6806    6.3321    8.8170 C   0  0  0  0  0  0  0  0  0  0  0  0
    6.2664    5.9259    9.5698 H   0  0  0  0  0  0  0  0  0  0  0  0
    4.0888    5.8463    3.8363 C   0  0  0  0  0  0  0  0  0  0  0  0
    5.2358    6.3238    3.1817 C   0  0  0  0  0  0  0  0  0  0  0  0
    5.4472    7.2490    3.2253 H   0  0  0  0  0  0  0  0  0  0  0  0
    6.0616    5.4600    2.4724 C   0  0  0  0  0  0  0  0  0  0  0  0
    6.8331    5.7932    2.0297 H   0  0  0  0  0  0  0  0  0  0  0  0
    5.7597    4.1236    2.4175 C   0  0  0  0  0  0  0  0  0  0  0  0
    6.3248    3.5300    1.9370 H   0  0  0  0  0  0  0  0  0  0  0  0
    4.6487    3.6444    3.0493 C   0  0  0  0  0  0  0  0  0  0  0  0
    4.4462    2.7175    3.0020 H   0  0  0  0  0  0  0  0  0  0  0  0
    3.8092    4.4999    3.7625 C   0  0  0  0  0  0  0  0  0  0  0  0
    3.0425    4.1518    4.1995 H   0  0  0  0  0  0  0  0  0  0  0  0
    1.3605    6.3653    4.4832 C   0  0  0  0  0  0  0  0  0  0  0  0
    0.8241    5.3671    5.2834 C   0  0  0  0  0  0  0  0  0  0  0  0
    1.3385    5.0239    6.0041 H   0  0  0  0  0  0  0  0  0  0  0  0
   -0.4389    4.8581    5.0564 C   0  0  0  0  0  0  0  0  0  0  0  0
   -0.7762    4.1418    5.5822 H   0  0  0  0  0  0  0  0  0  0  0  0
   -1.1977    5.4086    4.0538 C   0  0  0  0  0  0  0  0  0  0  0  0
   -2.0700    5.0687    3.8911 H   0  0  0  0  0  0  0  0  0  0  0  0
   -0.7292    6.4332    3.2877 C   0  0  0  0  0  0  0  0  0  0  0  0
   -1.2793    6.8229    2.6180 H   0  0  0  0  0  0  0  0  0  0  0  0
    0.5644    6.9008    3.4939 C   0  0  0  0  0  0  0  0  0  0  0  0
    0.9046    7.5972    2.9434 H   0  0  0  0  0  0  0  0  0  0  0  0
    2.3370   10.3993    7.8919 C   0  0  0  0  0  0  0  0  0  0  0  0
    1.7090   11.9976    5.5217 C   0  0  0  0  0  0  0  0  0  0  0  0
    3.0155   12.4420    5.4612 C   0  0  0  0  0  0  0  0  0  0  0  0
    3.5688   12.3707    6.2292 H   0  0  0  0  0  0  0  0  0  0  0  0
    3.5321   12.9892    4.2959 C   0  0  0  0  0  0  0  0  0  0  0  0
    4.4331   13.2926    4.2657 H   0  0  0  0  0  0  0  0  0  0  0  0
    2.7301   13.0870    3.1855 C   0  0  0  0  0  0  0  0  0  0  0  0
    3.0817   13.4584    2.3835 H   0  0  0  0  0  0  0  0  0  0  0  0
    1.4297   12.6576    3.2196 C   0  0  0  0  0  0  0  0  0  0  0  0
    0.8804   12.7305    2.4478 H   0  0  0  0  0  0  0  0  0  0  0  0
    0.9164   12.1137    4.3886 C   0  0  0  0  0  0  0  0  0  0  0  0
    0.0153   11.8186    4.4132 H   0  0  0  0  0  0  0  0  0  0  0  0
    0.1818   12.5034    7.8484 C   0  0  0  0  0  0  0  0  0  0  0  0
    0.6045   13.8132    7.7766 C   0  0  0  0  0  0  0  0  0  0  0  0
    1.3625   14.0254    7.2488 H   0  0  0  0  0  0  0  0  0  0  0  0
   -0.0501   14.8329    8.4557 C   0  0  0  0  0  0  0  0  0  0  0  0
    0.2653   15.7249    8.3895 H   0  0  0  0  0  0  0  0  0  0  0  0
   -1.1419   14.5544    9.2180 C   0  0  0  0  0  0  0  0  0  0  0  0
   -1.5900   15.2491    9.6871 H   0  0  0  0  0  0  0  0  0  0  0  0
   -1.5904   13.2677    9.3050 C   0  0  0  0  0  0  0  0  0  0  0  0
   -2.3565   13.0688    9.8290 H   0  0  0  0  0  0  0  0  0  0  0  0
   -0.9317   12.2447    8.6278 C   0  0  0  0  0  0  0  0  0  0  0  0
   -1.2535   11.3543    8.7035 H   0  0  0  0  0  0  0  0  0  0  0  0
    3.0993   12.6907    9.7609 C   0  0  0  0  0  0  0  0  0  0  0  0
    3.9396   13.6408    9.2123 C   0  0  0  0  0  0  0  0  0  0  0  0
    4.5833   13.3738    8.5654 H   0  0  0  0  0  0  0  0  0  0  0  0
    3.8674   14.9755    9.5812 C   0  0  0  0  0  0  0  0  0  0  0  0
    4.4567   15.6122    9.1953 H   0  0  0  0  0  0  0  0  0  0  0  0
    2.9320   15.3734   10.5138 C   0  0  0  0  0  0  0  0  0  0  0  0
    2.8776   16.2870   10.7691 H   0  0  0  0  0  0  0  0  0  0  0  0
    2.0804   14.4532   11.0794 C   0  0  0  0  0  0  0  0  0  0  0  0
    1.4406   14.7301   11.7225 H   0  0  0  0  0  0  0  0  0  0  0  0
    2.1573   13.1152   10.7048 C   0  0  0  0  0  0  0  0  0  0  0  0
    1.5648   12.4818   11.0926 H   0  0  0  0  0  0  0  0  0  0  0  0
    2.6809   10.0544   10.7313 C   0  0  0  0  0  0  0  0  0  0  0  0
    1.3708    9.6465   10.8713 C   0  0  0  0  0  0  0  0  0  0  0  0
    0.7449    9.8637   10.1903 H   0  0  0  0  0  0  0  0  0  0  0  0
    0.9403    8.9303   11.9760 C   0  0  0  0  0  0  0  0  0  0  0  0
    0.0351    8.6517   12.0460 H   0  0  0  0  0  0  0  0  0  0  0  0
    1.8413    8.6268   12.9653 C   0  0  0  0  0  0  0  0  0  0  0  0
    1.5549    8.1377   13.7277 H   0  0  0  0  0  0  0  0  0  0  0  0
    3.1487    9.0231   12.8670 C   0  0  0  0  0  0  0  0  0  0  0  0
    3.7619    8.8125   13.5612 H   0  0  0  0  0  0  0  0  0  0  0  0
    3.5791    9.7294   11.7509 C   0  0  0  0  0  0  0  0  0  0  0  0
    4.4892    9.9931   11.6809 H   0  0  0  0  0  0  0  0  0  0  0  0
   -1.6857    7.5292    9.4526 C   0  0  0  0  0  0  0  0  0  0  0  0
   -1.8592    8.4295    9.0818 H   0  0  0  0  0  0  0  0  0  0  0  0
   -1.6105    7.6022   10.4381 H   0  0  0  0  0  0  0  0  0  0  0  0
   -2.8023    6.5692    9.0723 C   0  0  0  0  0  0  0  0  0  0  0  0
   -3.3583    6.3487    9.8612 H   0  0  0  0  0  0  0  0  0  0  0  0
   -3.3789    6.9655    8.3724 H   0  0  0  0  0  0  0  0  0  0  0  0
   -2.1333    5.3986    8.5767 C   0  0  0  0  0  0  0  0  0  0  0  0
   -2.3058    5.2925    7.6082 H   0  0  0  0  0  0  0  0  0  0  0  0
   -2.4667    4.5928    9.0459 H   0  0  0  0  0  0  0  0  0  0  0  0
   -0.6707    5.5644    8.8226 C   0  0  0  0  0  0  0  0  0  0  0  0
   -0.4049    5.1300    9.6720 H   0  0  0  0  0  0  0  0  0  0  0  0
   -0.1423    5.1715    8.0830 H   0  0  0  0  0  0  0  0  0  0  0  0
    7.4279   10.7724    5.2323 C   0  0  0  0  0  0  0  0  0  0  0  0
    8.7944   11.2664    4.9618 C   0  0  0  0  0  0  0  0  0  0  0  0
    9.5341   10.3429    3.9592 C   0  0  0  0  0  0  0  0  0  0  0  0
    9.6027    9.4277    4.3300 H   0  0  0  0  0  0  0  0  0  0  0  0
    9.0331   10.2981    3.1061 H   0  0  0  0  0  0  0  0  0  0  0  0
    9.5689   11.3162    6.2859 C   0  0  0  0  0  0  0  0  0  0  0  0
    9.6289   10.4076    6.6775 H   0  0  0  0  0  0  0  0  0  0  0  0
    9.1017   11.9031    6.9310 H   0  0  0  0  0  0  0  0  0  0  0  0
    8.7053   12.6924    4.3754 C   0  0  0  0  0  0  0  0  0  0  0  0
    8.2051   12.6741    3.5204 H   0  0  0  0  0  0  0  0  0  0  0  0
    8.2231   13.2860    5.0034 H   0  0  0  0  0  0  0  0  0  0  0  0
   10.1228   13.2180    4.1408 C   0  0  0  0  0  0  0  0  0  0  0  0
   10.0720   14.1415    3.7625 H   0  0  0  0  0  0  0  0  0  0  0  0
   10.9906   11.8650    6.0060 C   0  0  0  0  0  0  0  0  0  0  0  0
   11.5015   11.9015    6.8648 H   0  0  0  0  0  0  0  0  0  0  0  0
   10.9255   10.9133    3.7171 C   0  0  0  0  0  0  0  0  0  0  0  0
   11.4147   10.3263    3.0720 H   0  0  0  0  0  0  0  0  0  0  0  0
   11.6939   10.9481    5.0620 C   0  0  0  0  0  0  0  0  0  0  0  0
   11.7343   10.0378    5.4479 H   0  0  0  0  0  0  0  0  0  0  0  0
   12.6198   11.2648    4.9126 H   0  0  0  0  0  0  0  0  0  0  0  0
   10.8260   12.3044    3.1439 C   0  0  0  0  0  0  0  0  0  0  0  0
   10.3186   12.2812    2.2946 H   0  0  0  0  0  0  0  0  0  0  0  0
   11.7325   12.6526    2.9529 H   0  0  0  0  0  0  0  0  0  0  0  0
   10.8816   13.2561    5.4442 C   0  0  0  0  0  0  0  0  0  0  0  0
   11.7855   13.6275    5.2947 H   0  0  0  0  0  0  0  0  0  0  0  0
   10.4095   13.8397    6.0892 H   0  0  0  0  0  0  0  0  0  0  0  0
    3.3651    7.6602    9.4091 H   0  0  0  0  0  0  0  0  0  0  0  0
    2.3379    6.1182    9.2312 H   0  0  0  0  0  0  0  0  0  0  0  0
    3.9325    5.9524   10.1960 H   0  0  0  0  0  0  0  0  0  0  0  0
    2.6414    9.4675    4.6081 H   0  0  0  0  0  0  0  0  0  0  0  0
    4.3734    9.0695    4.0973 H   0  0  0  0  0  0  0  0  0  0  0  0
    2.9996    8.7711    2.8942 H   0  0  0  0  0  0  0  0  0  0  0  0
    0.4820    8.9866    6.0154 H   0  0  0  0  0  0  0  0  0  0  0  0
   -0.6146    9.3514    7.4436 H   0  0  0  0  0  0  0  0  0  0  0  0
   -0.9725   10.1804    5.8263 H   0  0  0  0  0  0  0  0  0  0  0  0
    5.3313   11.1587    7.9260 H   0  0  0  0  0  0  0  0  0  0  0  0
    5.1854    9.4675    8.7205 H   0  0  0  0  0  0  0  0  0  0  0  0
    5.7542   10.9265    9.7987 H   0  0  0  0  0  0  0  0  0  0  0  0
  1 12  1  0  0  0  0
  2  7  1  0  0  0  0
  3  8  1  0  0  0  0
  4  9  1  0  0  0  0
  5 10  1  0  0  0  0
  6 11  1  0  0  0  0
  7115  3  0  0  0  0
  8 13  1  0  0  0  0
  9 13  1  0  0  0  0
 10 58  1  0  0  0  0
 11 58  1  0  0  0  0
 12103  1  0  0  0  0
 13  1  1  0  0  0  0
 14  8  1  0  0  0  0
 15 14  4  0  0  0  0
 16 15  1  0  0  0  0
 17 15  4  0  0  0  0
 18 17  1  0  0  0  0
 19 17  4  0  0  0  0
 20 19  1  0  0  0  0
 21 19  4  0  0  0  0
 22 21  1  0  0  0  0
 23 14  4  0  0  0  0
 24 23  1  0  0  0  0
 25  8  1  0  0  0  0
 26 25  4  0  0  0  0
 27 26  1  0  0  0  0
 28 26  4  0  0  0  0
 29 28  1  0  0  0  0
 30 28  4  0  0  0  0
 31 30  1  0  0  0  0
 32 30  4  0  0  0  0
 33 32  1  0  0  0  0
 34 25  4  0  0  0  0
 35 34  1  0  0  0  0
 36  9  1  0  0  0  0
 37 36  4  0  0  0  0
 38 37  1  0  0  0  0
 39 37  4  0  0  0  0
 40 39  1  0  0  0  0
 41 39  4  0  0  0  0
 42 41  1  0  0  0  0
 43 41  4  0  0  0  0
 44 43  1  0  0  0  0
 45 36  4  0  0  0  0
 46 45  1  0  0  0  0
 47  9  1  0  0  0  0
 48 47  4  0  0  0  0
 49 48  1  0  0  0  0
 50 48  4  0  0  0  0
 51 50  1  0  0  0  0
 52 50  4  0  0  0  0
 53 52  1  0  0  0  0
 54 52  4  0  0  0  0
 55 54  1  0  0  0  0
 56 47  4  0  0  0  0
 57 56  1  0  0  0  0
 58  1  1  0  0  0  0
 59 10  1  0  0  0  0
 60 59  4  0  0  0  0
 61 60  1  0  0  0  0
 62 60  4  0  0  0  0
 63 62  1  0  0  0  0
 64 62  4  0  0  0  0
 65 64  1  0  0  0  0
 66 64  4  0  0  0  0
 67 66  1  0  0  0  0
 68 59  4  0  0  0  0
 69 68  1  0  0  0  0
 70 10  1  0  0  0  0
 71 70  4  0  0  0  0
 72 71  1  0  0  0  0
 73 71  4  0  0  0  0
 74 73  1  0  0  0  0
 75 73  4  0  0  0  0
 76 75  1  0  0  0  0
 77 75  4  0  0  0  0
 78 77  1  0  0  0  0
 79 70  4  0  0  0  0
 80 79  1  0  0  0  0
 81 11  1  0  0  0  0
 82 81  4  0  0  0  0
 83 82  1  0  0  0  0
 84 82  4  0  0  0  0
 85 84  1  0  0  0  0
 86 84  4  0  0  0  0
 87 86  1  0  0  0  0
 88 86  4  0  0  0  0
 89 88  1  0  0  0  0
 90 81  4  0  0  0  0
 91 90  1  0  0  0  0
 92 11  1  0  0  0  0
 93 92  4  0  0  0  0
 94 93  1  0  0  0  0
 95 93  4  0  0  0  0
 96 95  1  0  0  0  0
 97 95  4  0  0  0  0
 98 97  1  0  0  0  0
 99 97  4  0  0  0  0
100 99  1  0  0  0  0
101 92  4  0  0  0  0
102101  1  0  0  0  0
103104  1  0  0  0  0
105103  1  0  0  0  0
106103  1  0  0  0  0
107106  1  0  0  0  0
108106  1  0  0  0  0
109106  1  0  0  0  0
110109  1  0  0  0  0
111109  1  0  0  0  0
112 12  1  0  0  0  0
113112  1  0  0  0  0
114112  1  0  0  0  0
115116  1  0  0  0  0
116117  1  0  0  0  0
117118  1  0  0  0  0
119117  1  0  0  0  0
120116  1  0  0  0  0
121120  1  0  0  0  0
122120  1  0  0  0  0
123116  1  0  0  0  0
124123  1  0  0  0  0
125123  1  0  0  0  0
126123  1  0  0  0  0
127126  1  0  0  0  0
128120  1  0  0  0  0
129128  1  0  0  0  0
130117  1  0  0  0  0
131130  1  0  0  0  0
132128  1  0  0  0  0
133132  1  0  0  0  0
134132  1  0  0  0  0
135126  1  0  0  0  0
136135  1  0  0  0  0
137135  1  0  0  0  0
138126  1  0  0  0  0
139138  1  0  0  0  0
140138  1  0  0  0  0
141  1  1  0  0  0  0
142  1  1  0  0  0  0
143  3  1  0  0  0  0
144  2  1  0  0  0  0
145  2  1  0  0  0  0
146  4  1  0  0  0  0
147  1  1  0  0  0  0
148  1  1  0  0  0  0
149  5  1  0  0  0  0
150  2  1  0  0  0  0
151  2  1  0  0  0  0
152  6  1  0  0  0  0
  2 13  1  0  0  0  0
  2 58  1  0  0  0  0
  3141  1  0  0  0  0
  3142  1  0  0  0  0
  4144  1  0  0  0  0
  4145  1  0  0  0  0
  5147  1  0  0  0  0
  5148  1  0  0  0  0
  6150  1  0  0  0  0
  6151  1  0  0  0  0
 21 23  4  0  0  0  0
 32 34  4  0  0  0  0
 43 45  4  0  0  0  0
 54 56  4  0  0  0  0
 66 68  4  0  0  0  0
 77 79  4  0  0  0  0
 88 90  4  0  0  0  0
 99101  4  0  0  0  0
109112  1  0  0  0  0
128138  1  0  0  0  0
130132  1  0  0  0  0
130135  1  0  0  0  0
M  END
$$$$
CUCHUE

From CSD data. Using bond type 'Any'. No disordered atoms. Largest molecule.
126141  0  0  0  0  0  0  0  0999 V2000
    2.1678   10.0417    5.7288 Ca  0  3  0  0  0  0  0  0  0  0  0  0
    4.6060    9.0948    6.7711 B   0  0  0  0  0  0  0  0  0  0  0  0
    1.2183   10.8880    8.3438 B   0  0  0  0  0  0  0  0  0  0  0  0
    3.0276    9.8832    3.0525 B   0  0  0  0  0  0  0  0  0  0  0  0
    0.0243   11.2974    4.3511 B   0  0  0  0  0  0  0  0  0  0  0  0
    5.0523   10.9520    7.0613 P   0  0  0  0  0  0  0  0  0  0  0  0
    2.4567   12.3358    8.1224 P   0  0  0  0  0  0  0  0  0  0  0  0
    2.3927   10.6552    1.4045 P   0  0  0  0  0  0  0  0  0  0  0  0
   -0.1227   12.0381    2.5818 P   0  0  0  0  0  0  0  0  0  0  0  0
    1.2138    7.8885    5.8907 O   0  0  0  0  0  0  0  0  0  0  0  0
    3.6727   12.0344    6.8898 C   0  0  0  0  0  0  0  0  0  0  0  0
    6.2507   11.4758    5.7927 C   0  0  0  0  0  0  0  0  0  0  0  0
    7.4038   10.7312    5.6362 C   0  0  0  0  0  0  0  0  0  0  0  0
    7.5534    9.9789    6.1968 H   0  0  0  0  0  0  0  0  0  0  0  0
    8.3417   11.0629    4.6773 C   0  0  0  0  0  0  0  0  0  0  0  0
    9.1170   10.5230    4.5759 H   0  0  0  0  0  0  0  0  0  0  0  0
    8.1721   12.1538    3.8755 C   0  0  0  0  0  0  0  0  0  0  0  0
    8.8122   12.3703    3.2084 H   0  0  0  0  0  0  0  0  0  0  0  0
    7.0633   12.9240    4.0529 C   0  0  0  0  0  0  0  0  0  0  0  0
    6.9487   13.7054    3.5259 H   0  0  0  0  0  0  0  0  0  0  0  0
    6.1024   12.5882    4.9850 C   0  0  0  0  0  0  0  0  0  0  0  0
    5.3273   13.1294    5.0716 H   0  0  0  0  0  0  0  0  0  0  0  0
    5.9708   11.1711    8.6221 C   0  0  0  0  0  0  0  0  0  0  0  0
    6.3276   12.4480    9.0518 C   0  0  0  0  0  0  0  0  0  0  0  0
    6.1248   13.2002    8.5084 H   0  0  0  0  0  0  0  0  0  0  0  0
    6.9739   12.6284   10.2611 C   0  0  0  0  0  0  0  0  0  0  0  0
    7.1972   13.5042   10.5555 H   0  0  0  0  0  0  0  0  0  0  0  0
    7.2925   11.5403   11.0365 C   0  0  0  0  0  0  0  0  0  0  0  0
    7.7452   11.6638   11.8617 H   0  0  0  0  0  0  0  0  0  0  0  0
    6.9597   10.2690   10.6215 C   0  0  0  0  0  0  0  0  0  0  0  0
    7.1877    9.5195   11.1599 H   0  0  0  0  0  0  0  0  0  0  0  0
    6.2920   10.0816    9.4186 C   0  0  0  0  0  0  0  0  0  0  0  0
    6.0547    9.2059    9.1407 H   0  0  0  0  0  0  0  0  0  0  0  0
    1.5496   13.8145    7.5651 C   0  0  0  0  0  0  0  0  0  0  0  0
    1.7292   14.3910    6.3188 C   0  0  0  0  0  0  0  0  0  0  0  0
    2.3623   14.0163    5.7150 H   0  0  0  0  0  0  0  0  0  0  0  0
    1.0037   15.5041    5.9392 C   0  0  0  0  0  0  0  0  0  0  0  0
    1.1419   15.8913    5.0828 H   0  0  0  0  0  0  0  0  0  0  0  0
    0.0784   16.0523    6.7995 C   0  0  0  0  0  0  0  0  0  0  0  0
   -0.4245   16.8143    6.5394 H   0  0  0  0  0  0  0  0  0  0  0  0
   -0.1088   15.4861    8.0369 C   0  0  0  0  0  0  0  0  0  0  0  0
   -0.7446   15.8636    8.6338 H   0  0  0  0  0  0  0  0  0  0  0  0
    0.6136   14.3772    8.4255 C   0  0  0  0  0  0  0  0  0  0  0  0
    0.4712   13.9969    9.2827 H   0  0  0  0  0  0  0  0  0  0  0  0
    3.1110   12.8546    9.7370 C   0  0  0  0  0  0  0  0  0  0  0  0
    3.5636   14.1579    9.9383 C   0  0  0  0  0  0  0  0  0  0  0  0
    3.4905   14.7991    9.2409 H   0  0  0  0  0  0  0  0  0  0  0  0
    4.1180   14.5173   11.1573 C   0  0  0  0  0  0  0  0  0  0  0  0
    4.4139   15.4084   11.2935 H   0  0  0  0  0  0  0  0  0  0  0  0
    4.2437   13.5999   12.1625 C   0  0  0  0  0  0  0  0  0  0  0  0
    4.6441   13.8525   12.9869 H   0  0  0  0  0  0  0  0  0  0  0  0
    3.7890   12.3134   11.9856 C   0  0  0  0  0  0  0  0  0  0  0  0
    3.8691   11.6791   12.6889 H   0  0  0  0  0  0  0  0  0  0  0  0
    3.2120   11.9414   10.7727 C   0  0  0  0  0  0  0  0  0  0  0  0
    2.8854   11.0573   10.6558 H   0  0  0  0  0  0  0  0  0  0  0  0
    1.1068   11.7776    1.4184 C   0  5  0  0  0  0  0  0  0  0  0  0
    3.8162   11.4197    0.5492 C   0  0  0  0  0  0  0  0  0  0  0  0
    3.7050   11.7804   -0.7840 C   0  0  0  0  0  0  0  0  0  0  0  0
    2.8712   11.6819   -1.2282 H   0  0  0  0  0  0  0  0  0  0  0  0
    4.7889   12.2814   -1.4728 C   0  0  0  0  0  0  0  0  0  0  0  0
    4.6964   12.5188   -2.3868 H   0  0  0  0  0  0  0  0  0  0  0  0
    6.0021   12.4397   -0.8447 C   0  0  0  0  0  0  0  0  0  0  0  0
    6.7536   12.7658   -1.3257 H   0  0  0  0  0  0  0  0  0  0  0  0
    6.1147   12.1218    0.4815 C   0  0  0  0  0  0  0  0  0  0  0  0
    6.9414   12.2578    0.9274 H   0  0  0  0  0  0  0  0  0  0  0  0
    5.0325   11.6055    1.1820 C   0  0  0  0  0  0  0  0  0  0  0  0
    5.1283   11.3779    2.1000 H   0  0  0  0  0  0  0  0  0  0  0  0
    2.0415    9.2959    0.2214 C   0  0  0  0  0  0  0  0  0  0  0  0
    0.7614    9.0241   -0.1813 C   0  0  0  0  0  0  0  0  0  0  0  0
    0.0409    9.5195    0.1894 H   0  0  0  0  0  0  0  0  0  0  0  0
    0.4957    8.0373   -1.1241 C   0  0  0  0  0  0  0  0  0  0  0  0
   -0.3972    7.8541   -1.3898 H   0  0  0  0  0  0  0  0  0  0  0  0
    1.5438    7.3322   -1.6644 C   0  0  0  0  0  0  0  0  0  0  0  0
    1.3732    6.6494   -2.3033 H   0  0  0  0  0  0  0  0  0  0  0  0
    2.8264    7.6001   -1.2948 C   0  0  0  0  0  0  0  0  0  0  0  0
    3.5457    7.1240   -1.6933 H   0  0  0  0  0  0  0  0  0  0  0  0
    3.0810    8.5633   -0.3434 C   0  0  0  0  0  0  0  0  0  0  0  0
    3.9751    8.7284   -0.0696 H   0  0  0  0  0  0  0  0  0  0  0  0
   -1.7317   11.5611    1.8482 C   0  0  0  0  0  0  0  0  0  0  0  0
   -2.2891   10.3231    2.1200 C   0  0  0  0  0  0  0  0  0  0  0  0
   -1.8789    9.7499    2.7572 H   0  0  0  0  0  0  0  0  0  0  0  0
   -3.4442    9.9151    1.4636 C   0  0  0  0  0  0  0  0  0  0  0  0
   -3.8255    9.0671    1.6599 H   0  0  0  0  0  0  0  0  0  0  0  0
   -4.0340   10.7326    0.5350 C   0  0  0  0  0  0  0  0  0  0  0  0
   -4.8066   10.4383    0.0668 H   0  0  0  0  0  0  0  0  0  0  0  0
   -3.5206   11.9594    0.2819 C   0  0  0  0  0  0  0  0  0  0  0  0
   -3.9500   12.5340   -0.3398 H   0  0  0  0  0  0  0  0  0  0  0  0
   -2.3738   12.3744    0.9260 C   0  0  0  0  0  0  0  0  0  0  0  0
   -2.0179   13.2335    0.7353 H   0  0  0  0  0  0  0  0  0  0  0  0
   -0.3729   13.8330    2.7962 C   0  0  0  0  0  0  0  0  0  0  0  0
   -1.4558   14.2967    3.5415 C   0  0  0  0  0  0  0  0  0  0  0  0
   -2.0462   13.6777    3.9548 H   0  0  0  0  0  0  0  0  0  0  0  0
   -1.6745   15.6540    3.6838 C   0  0  0  0  0  0  0  0  0  0  0  0
   -2.4058   15.9649    4.2055 H   0  0  0  0  0  0  0  0  0  0  0  0
   -0.8340   16.5589    3.0711 C   0  0  0  0  0  0  0  0  0  0  0  0
   -1.0019   17.4902    3.1527 H   0  0  0  0  0  0  0  0  0  0  0  0
    0.2471   16.1162    2.3417 C   0  0  0  0  0  0  0  0  0  0  0  0
    0.8305   16.7407    1.9301 H   0  0  0  0  0  0  0  0  0  0  0  0
    0.4839   14.7483    2.2102 C   0  0  0  0  0  0  0  0  0  0  0  0
    1.2354   14.4438    1.7156 H   0  0  0  0  0  0  0  0  0  0  0  0
    0.6049    7.1102    4.8319 C   0  0  0  0  0  0  0  0  0  0  0  0
    1.2374    6.9936    4.0802 H   0  0  0  0  0  0  0  0  0  0  0  0
   -0.2096    7.5598    4.4951 H   0  0  0  0  0  0  0  0  0  0  0  0
    0.2584    5.7708    5.4482 C   0  0  0  0  0  0  0  0  0  0  0  0
   -0.6011    5.4294    5.0939 H   0  0  0  0  0  0  0  0  0  0  0  0
    0.9682    5.1047    5.2694 H   0  0  0  0  0  0  0  0  0  0  0  0
    0.1580    6.0665    6.9009 C   0  0  0  0  0  0  0  0  0  0  0  0
   -0.7495    6.3829    7.1354 H   0  0  0  0  0  0  0  0  0  0  0  0
    0.3680    5.2629    7.4418 H   0  0  0  0  0  0  0  0  0  0  0  0
    1.1517    7.1185    7.1190 C   0  0  0  0  0  0  0  0  0  0  0  0
    0.8824    7.6959    7.8762 H   0  0  0  0  0  0  0  0  0  0  0  0
    2.0355    6.7216    7.3220 H   0  0  0  0  0  0  0  0  0  0  0  0
    3.9676   12.8519    6.5784 H   0  0  0  0  0  0  0  0  0  0  0  0
    0.9628   12.1163    0.6434 H   0  0  0  0  0  0  0  0  0  0  0  0
    3.7189    8.8922    7.4362 H   0  0  0  0  0  0  0  0  0  0  0  0
    4.3056    9.0532    5.6760 H   0  0  0  0  0  0  0  0  0  0  0  0
    5.5226    8.4731    6.9432 H   0  0  0  0  0  0  0  0  0  0  0  0
    0.6156   10.7978    7.3582 H   0  0  0  0  0  0  0  0  0  0  0  0
    1.8136    9.9373    8.5168 H   0  0  0  0  0  0  0  0  0  0  0  0
    0.5428   11.1378    9.1713 H   0  0  0  0  0  0  0  0  0  0  0  0
    2.2620    9.2142    3.4814 H   0  0  0  0  0  0  0  0  0  0  0  0
    3.3041   10.6812    3.7822 H   0  0  0  0  0  0  0  0  0  0  0  0
    3.9254    9.2989    2.8129 H   0  0  0  0  0  0  0  0  0  0  0  0
    0.9367   11.7360    4.8266 H   0  0  0  0  0  0  0  0  0  0  0  0
    0.1531   10.1732    4.2974 H   0  0  0  0  0  0  0  0  0  0  0  0
   -0.8352   11.5750    4.8823 H   0  0  0  0  0  0  0  0  0  0  0  0
  1 10  1  0  0  0  0
  2  6  1  0  0  0  0
  3  7  1  0  0  0  0
  4  8  1  0  0  0  0
  5  9  1  0  0  0  0
  6 11  1  0  0  0  0
  7 11  1  0  0  0  0
  8 56  1  0  0  0  0
  9 56  1  0  0  0  0
 10101  1  0  0  0  0
 11  1  1  0  0  0  0
 12  6  1  0  0  0  0
 13 12  4  0  0  0  0
 14 13  1  0  0  0  0
 15 13  4  0  0  0  0
 16 15  1  0  0  0  0
 17 15  4  0  0  0  0
 18 17  1  0  0  0  0
 19 17  4  0  0  0  0
 20 19  1  0  0  0  0
 21 12  4  0  0  0  0
 22 21  1  0  0  0  0
 23  6  1  0  0  0  0
 24 23  4  0  0  0  0
 25 24  1  0  0  0  0
 26 24  4  0  0  0  0
 27 26  1  0  0  0  0
 28 26  4  0  0  0  0
 29 28  1  0  0  0  0
 30 28  4  0  0  0  0
 31 30  1  0  0  0  0
 32 23  4  0  0  0  0
 33 32  1  0  0  0  0
 34  7  1  0  0  0  0
 35 34  4  0  0  0  0
 36 35  1  0  0  0  0
 37 35  4  0  0  0  0
 38 37  1  0  0  0  0
 39 37  4  0  0  0  0
 40 39  1  0  0  0  0
 41 39  4  0  0  0  0
 42 41  1  0  0  0  0
 43 34  4  0  0  0  0
 44 43  1  0  0  0  0
 45  7  1  0  0  0  0
 46 45  4  0  0  0  0
 47 46  1  0  0  0  0
 48 46  4  0  0  0  0
 49 48  1  0  0  0  0
 50 48  4  0  0  0  0
 51 50  1  0  0  0  0
 52 50  4  0  0  0  0
 53 52  1  0  0  0  0
 54 45  4  0  0  0  0
 55 54  1  0  0  0  0
 56114  1  0  0  0  0
 57  8  1  0  0  0  0
 58 57  4  0  0  0  0
 59 58  1  0  0  0  0
 60 58  4  0  0  0  0
 61 60  1  0  0  0  0
 62 60  4  0  0  0  0
 63 62  1  0  0  0  0
 64 62  4  0  0  0  0
 65 64  1  0  0  0  0
 66 57  4  0  0  0  0
 67 66  1  0  0  0  0
 68  8  1  0  0  0  0
 69 68  4  0  0  0  0
 70 69  1  0  0  0  0
 71 69  4  0  0  0  0
 72 71  1  0  0  0  0
 73 71  4  0  0  0  0
 74 73  1  0  0  0  0
 75 73  4  0  0  0  0
 76 75  1  0  0  0  0
 77 68  4  0  0  0  0
 78 77  1  0  0  0  0
 79  9  1  0  0  0  0
 80 79  4  0  0  0  0
 81 80  1  0  0  0  0
 82 80  4  0  0  0  0
 83 82  1  0  0  0  0
 84 82  4  0  0  0  0
 85 84  1  0  0  0  0
 86 84  4  0  0  0  0
 87 86  1  0  0  0  0
 88 79  4  0  0  0  0
 89 88  1  0  0  0  0
 90  9  1  0  0  0  0
 91 90  4  0  0  0  0
 92 91  1  0  0  0  0
 93 91  4  0  0  0  0
 94 93  1  0  0  0  0
 95 93  4  0  0  0  0
 96 95  1  0  0  0  0
 97 95  4  0  0  0  0
 98 97  1  0  0  0  0
 99 90  4  0  0  0  0
100 99  1  0  0  0  0
101102  1  0  0  0  0
103101  1  0  0  0  0
104101  1  0  0  0  0
105104  1  0  0  0  0
106104  1  0  0  0  0
107104  1  0  0  0  0
108107  1  0  0  0  0
109107  1  0  0  0  0
110 10  1  0  0  0  0
111110  1  0  0  0  0
112110  1  0  0  0  0
113 11  1  0  0  0  0
115  1  1  0  0  0  0
116  1  1  0  0  0  0
117  2  1  0  0  0  0
118  1  1  0  0  0  0
119  1  1  0  0  0  0
120  3  1  0  0  0  0
121  1  1  0  0  0  0
122  1  1  0  0  0  0
123  4  1  0  0  0  0
124  1  1  0  0  0  0
125  1  1  0  0  0  0
126  5  1  0  0  0  0
  2115  1  0  0  0  0
  2116  1  0  0  0  0
  3118  1  0  0  0  0
  3119  1  0  0  0  0
  4121  1  0  0  0  0
  4122  1  0  0  0  0
  5124  1  0  0  0  0
  5125  1  0  0  0  0
 19 21  4  0  0  0  0
 30 32  4  0  0  0  0
 41 43  4  0  0  0  0
 52 54  4  0  0  0  0
 64 66  4  0  0  0  0
 75 77  4  0  0  0  0
 86 88  4  0  0  0  0
 97 99  4  0  0  0  0
107110  1  0  0  0  0
M  CHG  2   1   1  56  -1
M  END
$$$$
CUCHUE01

From CSD data. Using bond type 'Any'. No disordered atoms. Largest molecule.
126140  0  0  0  0  0  0  0  0999 V2000
   -0.8809    3.0911   22.0949 Ca  0  3  0  0  0  0  0  0  0  0  0  0
   -3.7605    4.0094   20.7636 P   0  0  0  0  0  0  0  0  0  0  0  0
   -1.1636    5.3906   19.7081 P   0  0  0  0  0  0  0  0  0  0  0  0
   -1.0962    3.7139   26.4156 P   0  0  0  0  0  0  0  0  0  0  0  0
    1.4164    5.0932   25.2339 P   0  0  0  0  0  0  0  0  0  0  0  0
    0.0649    0.9363   21.9342 O   0  0  0  0  0  0  0  0  0  0  0  0
   -3.3213    2.1490   21.0565 B   0  0  0  0  0  0  0  0  0  0  0  0
   -3.0445    2.1213   22.1442 H   0  0  0  0  0  0  0  0  0  0  0  0
   -4.1878    1.5528   20.8481 H   0  0  0  0  0  0  0  0  0  0  0  0
   -2.4617    1.8995   20.3892 H   0  0  0  0  0  0  0  0  0  0  0  0
    0.0779    3.9445   19.4856 B   0  0  0  0  0  0  0  0  0  0  0  0
   -0.5207    3.0502   19.3073 H   0  0  0  0  0  0  0  0  0  0  0  0
    0.6320    3.8266   20.4171 H   0  0  0  0  0  0  0  0  0  0  0  0
    0.7274    4.1871   18.6843 H   0  0  0  0  0  0  0  0  0  0  0  0
   -1.7321    2.9379   24.7719 B   0  0  0  0  0  0  0  0  0  0  0  0
   -0.9924    2.2461   24.3553 H   0  0  0  0  0  0  0  0  0  0  0  0
   -2.6349    2.3431   25.0061 H   0  0  0  0  0  0  0  0  0  0  0  0
   -2.0292    3.7296   24.0299 H   0  0  0  0  0  0  0  0  0  0  0  0
    1.2596    4.3452   23.4614 B   0  0  0  0  0  0  0  0  0  0  0  0
    0.3732    4.8526   23.0592 H   0  0  0  0  0  0  0  0  0  0  0  0
    2.1534    4.6308   22.9424 H   0  0  0  0  0  0  0  0  0  0  0  0
    1.1093    3.2027   23.5515 H   0  0  0  0  0  0  0  0  0  0  0  0
   -2.3803    5.0939   20.9433 C   0  0  0  0  0  0  0  0  0  0  0  0
   -2.6637    5.9202   21.2208 H   0  0  0  0  0  0  0  0  0  0  0  0
   -4.9613    4.5379   22.0318 C   0  0  0  0  0  0  0  0  0  0  0  0
   -4.7971    5.6346   22.8504 C   0  0  0  0  0  0  0  0  0  0  0  0
   -4.0127    6.1656   22.7700 H   0  0  0  0  0  0  0  0  0  0  0  0
   -5.7563    5.9743   23.7887 C   0  0  0  0  0  0  0  0  0  0  0  0
   -5.6365    6.7493   24.3247 H   0  0  0  0  0  0  0  0  0  0  0  0
   -6.8790    5.2020   23.9528 C   0  0  0  0  0  0  0  0  0  0  0  0
   -7.5211    5.4169   24.6195 H   0  0  0  0  0  0  0  0  0  0  0  0
   -7.0567    4.1164   23.1415 C   0  0  0  0  0  0  0  0  0  0  0  0
   -7.8368    3.5840   23.2344 H   0  0  0  0  0  0  0  0  0  0  0  0
   -6.1122    3.7823   22.1826 C   0  0  0  0  0  0  0  0  0  0  0  0
   -6.2558    3.0280   21.6241 H   0  0  0  0  0  0  0  0  0  0  0  0
   -4.6819    4.2301   19.2080 C   0  0  0  0  0  0  0  0  0  0  0  0
   -5.0028    3.1417   18.4160 C   0  0  0  0  0  0  0  0  0  0  0  0
   -4.7601    2.2669   18.6927 H   0  0  0  0  0  0  0  0  0  0  0  0
   -5.6831    3.3261   17.2089 C   0  0  0  0  0  0  0  0  0  0  0  0
   -5.9230    2.5760   16.6763 H   0  0  0  0  0  0  0  0  0  0  0  0
   -6.0083    4.6100   16.7906 C   0  0  0  0  0  0  0  0  0  0  0  0
   -6.4549    4.7375   15.9615 H   0  0  0  0  0  0  0  0  0  0  0  0
   -5.6835    5.6970   17.5696 C   0  0  0  0  0  0  0  0  0  0  0  0
   -5.9062    6.5746   17.2798 H   0  0  0  0  0  0  0  0  0  0  0  0
   -5.0330    5.5112   18.7783 C   0  0  0  0  0  0  0  0  0  0  0  0
   -4.8247    6.2626   19.3212 H   0  0  0  0  0  0  0  0  0  0  0  0
   -1.8233    5.9133   18.0853 C   0  0  0  0  0  0  0  0  0  0  0  0
   -1.9329    4.9982   17.0623 C   0  0  0  0  0  0  0  0  0  0  0  0
   -1.6134    4.1122   17.1853 H   0  0  0  0  0  0  0  0  0  0  0  0
   -2.5080    5.3614   15.8522 C   0  0  0  0  0  0  0  0  0  0  0  0
   -2.5925    4.7223   15.1550 H   0  0  0  0  0  0  0  0  0  0  0  0
   -2.9567    6.6481   15.6692 C   0  0  0  0  0  0  0  0  0  0  0  0
   -3.3629    6.8935   14.8462 H   0  0  0  0  0  0  0  0  0  0  0  0
   -2.8226    7.5867   16.6696 C   0  0  0  0  0  0  0  0  0  0  0  0
   -3.1059    8.4810   16.5261 H   0  0  0  0  0  0  0  0  0  0  0  0
   -2.2667    7.2138   17.8956 C   0  0  0  0  0  0  0  0  0  0  0  0
   -2.1926    7.8488   18.5981 H   0  0  0  0  0  0  0  0  0  0  0  0
   -0.2589    6.8713   20.2655 C   0  0  0  0  0  0  0  0  0  0  0  0
    0.6777    7.4300   19.4091 C   0  0  0  0  0  0  0  0  0  0  0  0
    0.8226    7.0460   18.5536 H   0  0  0  0  0  0  0  0  0  0  0  0
    1.4054    8.5475   19.7929 C   0  0  0  0  0  0  0  0  0  0  0  0
    2.0345    8.9302   19.1933 H   0  0  0  0  0  0  0  0  0  0  0  0
    1.2222    9.1049   21.0387 C   0  0  0  0  0  0  0  0  0  0  0  0
    1.7300    9.8619   21.3043 H   0  0  0  0  0  0  0  0  0  0  0  0
    0.2970    8.5558   21.8983 C   0  0  0  0  0  0  0  0  0  0  0  0
    0.1598    8.9413   22.7561 H   0  0  0  0  0  0  0  0  0  0  0  0
   -0.4362    7.4425   21.5154 C   0  0  0  0  0  0  0  0  0  0  0  0
   -1.0682    7.0668   22.1164 H   0  0  0  0  0  0  0  0  0  0  0  0
    0.1866    4.8485   26.3992 C   0  5  0  0  0  0  0  0  0  0  0  0
    0.3681    5.1992   27.2255 H   0  0  0  0  0  0  0  0  0  0  0  0
   -2.5204    4.4741   27.2670 C   0  0  0  0  0  0  0  0  0  0  0  0
   -2.4091    4.8387   28.5986 C   0  0  0  0  0  0  0  0  0  0  0  0
   -1.5754    4.7361   29.0444 H   0  0  0  0  0  0  0  0  0  0  0  0
   -3.4968    5.3531   29.2936 C   0  0  0  0  0  0  0  0  0  0  0  0
   -3.4028    5.6096   30.2042 H   0  0  0  0  0  0  0  0  0  0  0  0
   -4.7025    5.4904   28.6637 C   0  0  0  0  0  0  0  0  0  0  0  0
   -5.4580    5.8009   29.1473 H   0  0  0  0  0  0  0  0  0  0  0  0
   -4.8232    5.1757   27.3251 C   0  0  0  0  0  0  0  0  0  0  0  0
   -5.6486    5.3171   26.8779 H   0  0  0  0  0  0  0  0  0  0  0  0
   -3.7375    4.6530   26.6262 C   0  0  0  0  0  0  0  0  0  0  0  0
   -3.8303    4.4186   25.7097 H   0  0  0  0  0  0  0  0  0  0  0  0
   -0.7447    2.3598   27.6010 C   0  0  0  0  0  0  0  0  0  0  0  0
    0.5517    2.0797   27.9856 C   0  0  0  0  0  0  0  0  0  0  0  0
    1.2718    2.5636   27.6010 H   0  0  0  0  0  0  0  0  0  0  0  0
    0.8119    1.0898   28.9382 C   0  0  0  0  0  0  0  0  0  0  0  0
    1.7071    0.9012   29.1918 H   0  0  0  0  0  0  0  0  0  0  0  0
   -0.2197    0.3951   29.5033 C   0  0  0  0  0  0  0  0  0  0  0  0
   -0.0390   -0.2870   30.1403 H   0  0  0  0  0  0  0  0  0  0  0  0
   -1.5246    0.6794   29.1490 C   0  0  0  0  0  0  0  0  0  0  0  0
   -2.2432    0.2191   29.5673 H   0  0  0  0  0  0  0  0  0  0  0  0
   -1.7831    1.6360   28.1875 C   0  0  0  0  0  0  0  0  0  0  0  0
   -2.6798    1.8024   27.9208 H   0  0  0  0  0  0  0  0  0  0  0  0
    3.0251    4.6183   25.9667 C   0  0  0  0  0  0  0  0  0  0  0  0
    3.6678    5.4294   26.8912 C   0  0  0  0  0  0  0  0  0  0  0  0
    3.3135    6.2918   27.0781 H   0  0  0  0  0  0  0  0  0  0  0  0
    4.8097    5.0121   27.5456 C   0  0  0  0  0  0  0  0  0  0  0  0
    5.2387    5.5874   28.1684 H   0  0  0  0  0  0  0  0  0  0  0  0
    5.3194    3.7795   27.2981 C   0  0  0  0  0  0  0  0  0  0  0  0
    6.0869    3.4814   27.7734 H   0  0  0  0  0  0  0  0  0  0  0  0
    4.7310    2.9587   26.3633 C   0  0  0  0  0  0  0  0  0  0  0  0
    5.1142    2.1130   26.1659 H   0  0  0  0  0  0  0  0  0  0  0  0
    3.5700    3.3691   25.7033 C   0  0  0  0  0  0  0  0  0  0  0  0
    3.1533    2.7923   25.0728 H   0  0  0  0  0  0  0  0  0  0  0  0
    1.6745    6.8879   25.0194 C   0  0  0  0  0  0  0  0  0  0  0  0
    0.8159    7.8044   25.6054 C   0  0  0  0  0  0  0  0  0  0  0  0
    0.0604    7.5035   26.0963 H   0  0  0  0  0  0  0  0  0  0  0  0
    1.0643    9.1728   25.4736 C   0  0  0  0  0  0  0  0  0  0  0  0
    0.4873    9.8037   25.8877 H   0  0  0  0  0  0  0  0  0  0  0  0
    2.1499    9.6109   24.7410 C   0  0  0  0  0  0  0  0  0  0  0  0
    2.3202   10.5426   24.6584 H   0  0  0  0  0  0  0  0  0  0  0  0
    2.9852    8.7070   24.1294 C   0  0  0  0  0  0  0  0  0  0  0  0
    3.7181    9.0148   23.6099 H   0  0  0  0  0  0  0  0  0  0  0  0
    2.7584    7.3385   24.2679 C   0  0  0  0  0  0  0  0  0  0  0  0
    3.3424    6.7160   23.8519 H   0  0  0  0  0  0  0  0  0  0  0  0
    0.1045    0.1553   20.7082 C   0  0  0  0  0  0  0  0  0  0  0  0
    0.3284    0.7334   19.9359 H   0  0  0  0  0  0  0  0  0  0  0  0
   -0.7723   -0.2717   20.5394 H   0  0  0  0  0  0  0  0  0  0  0  0
    1.1571   -0.8749   20.9113 C   0  0  0  0  0  0  0  0  0  0  0  0
    2.0532   -0.5227   20.6840 H   0  0  0  0  0  0  0  0  0  0  0  0
    0.9780   -1.6832   20.3698 H   0  0  0  0  0  0  0  0  0  0  0  0
    1.0427   -1.1660   22.3759 C   0  0  0  0  0  0  0  0  0  0  0  0
    1.8996   -1.5057   22.7366 H   0  0  0  0  0  0  0  0  0  0  0  0
    0.3340   -1.8357   22.5503 H   0  0  0  0  0  0  0  0  0  0  0  0
    0.6920    0.1594   22.9861 C   0  0  0  0  0  0  0  0  0  0  0  0
    0.0679    0.0374   23.7462 H   0  0  0  0  0  0  0  0  0  0  0  0
    1.5068    0.6156   23.3151 H   0  0  0  0  0  0  0  0  0  0  0  0
  1  6  1  0  0  0  0
  2  7  1  0  0  0  0
  3 11  1  0  0  0  0
  4 15  1  0  0  0  0
  5 19  1  0  0  0  0
  6115  1  0  0  0  0
  7  8  1  0  0  0  0
  8  1  1  0  0  0  0
  9  7  1  0  0  0  0
 10  1  1  0  0  0  0
 11 12  1  0  0  0  0
 13  1  1  0  0  0  0
 14 11  1  0  0  0  0
 15 16  1  0  0  0  0
 16  1  1  0  0  0  0
 17 15  1  0  0  0  0
 18  1  1  0  0  0  0
 19 20  1  0  0  0  0
 20  1  1  0  0  0  0
 21 19  1  0  0  0  0
 22  1  1  0  0  0  0
 23  1  1  0  0  0  0
 24 23  1  0  0  0  0
 25  2  1  0  0  0  0
 26 25  4  0  0  0  0
 27 26  1  0  0  0  0
 28 26  4  0  0  0  0
 29 28  1  0  0  0  0
 30 28  4  0  0  0  0
 31 30  1  0  0  0  0
 32 30  4  0  0  0  0
 33 32  1  0  0  0  0
 34 25  4  0  0  0  0
 35 34  1  0  0  0  0
 36  2  1  0  0  0  0
 37 36  4  0  0  0  0
 38 37  1  0  0  0  0
 39 37  4  0  0  0  0
 40 39  1  0  0  0  0
 41 39  4  0  0  0  0
 42 41  1  0  0  0  0
 43 41  4  0  0  0  0
 44 43  1  0  0  0  0
 45 36  4  0  0  0  0
 46 45  1  0  0  0  0
 47  3  1  0  0  0  0
 48 47  4  0  0  0  0
 49 48  1  0  0  0  0
 50 48  4  0  0  0  0
 51 50  1  0  0  0  0
 52 50  4  0  0  0  0
 53 52  1  0  0  0  0
 54 52  4  0  0  0  0
 55 54  1  0  0  0  0
 56 47  4  0  0  0  0
 57 56  1  0  0  0  0
 58  3  1  0  0  0  0
 59 58  4  0  0  0  0
 60 59  1  0  0  0  0
 61 59  4  0  0  0  0
 62 61  1  0  0  0  0
 63 61  4  0  0  0  0
 64 63  1  0  0  0  0
 65 63  4  0  0  0  0
 66 65  1  0  0  0  0
 67 58  4  0  0  0  0
 68 67  1  0  0  0  0
 69  4  1  0  0  0  0
 70 69  1  0  0  0  0
 71  4  1  0  0  0  0
 72 71  4  0  0  0  0
 73 72  1  0  0  0  0
 74 72  4  0  0  0  0
 75 74  1  0  0  0  0
 76 74  4  0  0  0  0
 77 76  1  0  0  0  0
 78 76  4  0  0  0  0
 79 78  1  0  0  0  0
 80 71  4  0  0  0  0
 81 80  1  0  0  0  0
 82  4  1  0  0  0  0
 83 82  4  0  0  0  0
 84 83  1  0  0  0  0
 85 83  4  0  0  0  0
 86 85  1  0  0  0  0
 87 85  4  0  0  0  0
 88 87  1  0  0  0  0
 89 87  4  0  0  0  0
 90 89  1  0  0  0  0
 91 82  4  0  0  0  0
 92 91  1  0  0  0  0
 93  5  1  0  0  0  0
 94 93  4  0  0  0  0
 95 94  1  0  0  0  0
 96 94  4  0  0  0  0
 97 96  1  0  0  0  0
 98 96  4  0  0  0  0
 99 98  1  0  0  0  0
100 98  4  0  0  0  0
101100  1  0  0  0  0
102 93  4  0  0  0  0
103102  1  0  0  0  0
104  5  1  0  0  0  0
105104  4  0  0  0  0
106105  1  0  0  0  0
107105  4  0  0  0  0
108107  1  0  0  0  0
109107  4  0  0  0  0
110109  1  0  0  0  0
111109  4  0  0  0  0
112111  1  0  0  0  0
113104  4  0  0  0  0
114113  1  0  0  0  0
115116  1  0  0  0  0
117115  1  0  0  0  0
118115  1  0  0  0  0
119118  1  0  0  0  0
120118  1  0  0  0  0
121118  1  0  0  0  0
122121  1  0  0  0  0
123121  1  0  0  0  0
124  6  1  0  0  0  0
125124  1  0  0  0  0
126124  1  0  0  0  0
  2 23  1  0  0  0  0
  3 23  1  0  0  0  0
  5 69  1  0  0  0  0
  7 10  1  0  0  0  0
 11 13  1  0  0  0  0
 15 18  1  0  0  0  0
 19 22  1  0  0  0  0
 32 34  4  0  0  0  0
 43 45  4  0  0  0  0
 54 56  4  0  0  0  0
 65 67  4  0  0  0  0
 78 80  4  0  0  0  0
 89 91  4  0  0  0  0
100102  4  0  0  0  0
111113  4  0  0  0  0
121124  1  0  0  0  0
M  CHG  2   1   1  69  -1
M  END
$$$$
CUHTUV

From CSD data. Using bond type 'Any'. No disordered atoms. Largest molecule.
173188  0  0  0  0  0  0  0  0999 V2000
    2.3712    2.9165    8.0381 Pt  0  0  0  0  0  0  0  0  0  0  0  0
   -0.7301    2.4392   13.6099 W   0  0  0  0  0  0  0  0  0  0  0  0
    1.5393    5.0907    8.0867 P   0  0  0  0  0  0  0  0  0  0  0  0
    1.9950    2.0499   15.1165 O   0  0  0  0  0  0  0  0  0  0  0  0
   -0.3208   -0.6132   13.0025 O   0  0  0  0  0  0  0  0  0  0  0  0
   -1.9876    2.2337   15.5216 N   0  0  0  0  0  0  0  0  0  0  0  0
   -3.0477    3.0906   15.7209 N   0  0  0  0  0  0  0  0  0  0  0  0
   -2.7528    2.5941   12.7179 N   0  0  0  0  0  0  0  0  0  0  0  0
   -3.7515    3.3044   13.3304 N   0  0  0  0  0  0  0  0  0  0  0  0
   -1.0493    4.5848   14.0587 N   0  0  0  0  0  0  0  0  0  0  0  0
   -2.2898    5.0655   14.3754 N   0  0  0  0  0  0  0  0  0  0  0  0
    0.3097    2.6285   12.0941 C   0  0  0  0  0  0  0  0  0  0  0  0
    1.0687    2.6978   10.9608 C   0  0  0  0  0  0  0  0  0  0  0  0
    1.6440    2.7589    9.8853 C   0  0  0  0  0  0  0  0  0  0  0  0
    0.9704    2.2364   14.5924 C   0  0  0  0  0  0  0  0  0  0  0  0
   -0.5283    0.4894   13.2645 C   0  0  0  0  0  0  0  0  0  0  0  0
   -3.6111    2.8588   16.9283 C   0  0  0  0  0  0  0  0  0  0  0  0
   -2.9168    1.8320   17.5134 C   0  0  0  0  0  0  0  0  0  0  0  0
   -1.9003    1.4665   16.6164 C   0  0  0  0  0  0  0  0  0  0  0  0
   -4.7925    3.6065   17.4202 C   0  0  0  0  0  0  0  0  0  0  0  0
   -0.8702    0.4172   16.7788 C   0  0  0  0  0  0  0  0  0  0  0  0
   -4.9212    3.1521   12.6423 C   0  0  0  0  0  0  0  0  0  0  0  0
   -4.6575    2.3472   11.5813 C   0  0  0  0  0  0  0  0  0  0  0  0
   -3.3062    1.9987   11.6408 C   0  0  0  0  0  0  0  0  0  0  0  0
   -6.2138    3.7457   13.0941 C   0  0  0  0  0  0  0  0  0  0  0  0
   -2.5097    1.1472   10.7196 C   0  0  0  0  0  0  0  0  0  0  0  0
   -2.2243    6.4083   14.5747 C   0  0  0  0  0  0  0  0  0  0  0  0
   -0.9212    6.7767   14.4027 C   0  0  0  0  0  0  0  0  0  0  0  0
   -0.2181    5.6375   14.0667 C   0  0  0  0  0  0  0  0  0  0  0  0
   -3.4313    7.2298   14.8464 C   0  0  0  0  0  0  0  0  0  0  0  0
    1.2186    5.5120   13.6969 C   0  0  0  0  0  0  0  0  0  0  0  0
   -0.0293    5.1943    9.0155 C   0  0  0  0  0  0  0  0  0  0  0  0
   -1.0361    4.2981    8.7021 C   0  0  0  0  0  0  0  0  0  0  0  0
   -2.2462    4.3550    9.3451 C   0  0  0  0  0  0  0  0  0  0  0  0
   -2.4629    5.2772   10.3386 C   0  0  0  0  0  0  0  0  0  0  0  0
   -1.4731    6.1671   10.6618 C   0  0  0  0  0  0  0  0  0  0  0  0
   -0.2493    6.1460   10.0010 C   0  0  0  0  0  0  0  0  0  0  0  0
    1.1411    5.9049    6.5060 C   0  0  0  0  0  0  0  0  0  0  0  0
    2.1159    6.0072    5.5174 C   0  0  0  0  0  0  0  0  0  0  0  0
    1.7869    6.5989    4.2907 C   0  0  0  0  0  0  0  0  0  0  0  0
    0.5321    7.1165    4.0769 C   0  0  0  0  0  0  0  0  0  0  0  0
   -0.4174    7.0443    5.0560 C   0  0  0  0  0  0  0  0  0  0  0  0
   -0.1241    6.4588    6.2729 C   0  0  0  0  0  0  0  0  0  0  0  0
    2.6877    6.2537    8.8902 C   0  0  0  0  0  0  0  0  0  0  0  0
    3.4603    5.8248    9.9689 C   0  0  0  0  0  0  0  0  0  0  0  0
    4.3052    6.7178   10.6135 C   0  0  0  0  0  0  0  0  0  0  0  0
    4.3885    8.0152   10.1746 C   0  0  0  0  0  0  0  0  0  0  0  0
    3.6350    8.4568    9.1249 C   0  0  0  0  0  0  0  0  0  0  0  0
    2.7715    7.5815    8.4754 C   0  0  0  0  0  0  0  0  0  0  0  0
   -3.4500    4.0925   14.6197 B   0  0  0  0  0  0  0  0  0  0  0  0
   -4.2584    4.6122   14.8946 H   0  0  0  0  0  0  0  0  0  0  0  0
   -3.1016    1.4209   18.4057 H   0  0  0  0  0  0  0  0  0  0  0  0
   -5.0409    3.2755   18.3301 H   0  0  0  0  0  0  0  0  0  0  0  0
   -4.5759    4.5823   17.4668 H   0  0  0  0  0  0  0  0  0  0  0  0
   -5.5594    3.4667   16.7932 H   0  0  0  0  0  0  0  0  0  0  0  0
   -0.9886   -0.0309   17.6646 H   0  0  0  0  0  0  0  0  0  0  0  0
    0.0368    0.8343   16.7354 H   0  0  0  0  0  0  0  0  0  0  0  0
   -0.9637   -0.2589   16.0489 H   0  0  0  0  0  0  0  0  0  0  0  0
   -5.3125    2.0551   10.8836 H   0  0  0  0  0  0  0  0  0  0  0  0
   -6.9352    3.5105   12.4430 H   0  0  0  0  0  0  0  0  0  0  0  0
   -6.4482    3.3846   13.9960 H   0  0  0  0  0  0  0  0  0  0  0  0
   -6.1243    4.7411   13.1471 H   0  0  0  0  0  0  0  0  0  0  0  0
   -3.0988    0.8023    9.9898 H   0  0  0  0  0  0  0  0  0  0  0  0
   -2.1232    0.3770   11.2276 H   0  0  0  0  0  0  0  0  0  0  0  0
   -1.7689    1.6881   10.3225 H   0  0  0  0  0  0  0  0  0  0  0  0
   -0.5462    7.6986   14.5008 H   0  0  0  0  0  0  0  0  0  0  0  0
   -3.1627    8.1863   14.9621 H   0  0  0  0  0  0  0  0  0  0  0  0
   -3.8746    6.9055   15.6824 H   0  0  0  0  0  0  0  0  0  0  0  0
   -4.0678    7.1518   14.0796 H   0  0  0  0  0  0  0  0  0  0  0  0
    1.6596    6.4061   13.7693 H   0  0  0  0  0  0  0  0  0  0  0  0
    1.6668    4.8692   14.3175 H   0  0  0  0  0  0  0  0  0  0  0  0
    1.2932    5.1767   12.7581 H   0  0  0  0  0  0  0  0  0  0  0  0
   -0.8817    3.6054    7.9979 H   0  0  0  0  0  0  0  0  0  0  0  0
   -2.9750    3.7175    9.0943 H   0  0  0  0  0  0  0  0  0  0  0  0
   -3.3390    5.3022   10.8193 H   0  0  0  0  0  0  0  0  0  0  0  0
   -1.6327    6.8403   11.3836 H   0  0  0  0  0  0  0  0  0  0  0  0
    0.4629    6.8079   10.2325 H   0  0  0  0  0  0  0  0  0  0  0  0
    3.0412    5.6630    5.6813 H   0  0  0  0  0  0  0  0  0  0  0  0
    2.4706    6.6441    3.5625 H   0  0  0  0  0  0  0  0  0  0  0  0
    0.3145    7.5502    3.2024 H   0  0  0  0  0  0  0  0  0  0  0  0
   -1.3321    7.4154    4.8888 H   0  0  0  0  0  0  0  0  0  0  0  0
   -0.8187    6.4328    6.9916 H   0  0  0  0  0  0  0  0  0  0  0  0
    3.4075    4.8756   10.2759 H   0  0  0  0  0  0  0  0  0  0  0  0
    4.8497    6.4174   11.3964 H   0  0  0  0  0  0  0  0  0  0  0  0
    5.0134    8.6484   10.6312 H   0  0  0  0  0  0  0  0  0  0  0  0
    3.7023    9.4083    8.8242 H   0  0  0  0  0  0  0  0  0  0  0  0
    2.2122    7.9040    7.7118 H   0  0  0  0  0  0  0  0  0  0  0  0
    5.4725    3.3939    2.4663 W   0  0  0  0  0  0  0  0  0  0  0  0
    3.2030    0.7424    7.9896 P   0  0  0  0  0  0  0  0  0  0  0  0
    2.7473    3.7832    0.9598 O   0  0  0  0  0  0  0  0  0  0  0  0
    5.0632    6.4463    3.0738 O   0  0  0  0  0  0  0  0  0  0  0  0
    6.7299    3.5994    0.5546 N   0  0  0  0  0  0  0  0  0  0  0  0
    7.7900    2.7424    0.3553 N   0  0  0  0  0  0  0  0  0  0  0  0
    7.4952    3.2390    3.3583 N   0  0  0  0  0  0  0  0  0  0  0  0
    8.4938    2.5287    2.7458 N   0  0  0  0  0  0  0  0  0  0  0  0
    5.7916    1.2483    2.0176 N   0  0  0  0  0  0  0  0  0  0  0  0
    7.0322    0.7676    1.7009 N   0  0  0  0  0  0  0  0  0  0  0  0
    4.4327    3.2045    3.9821 C   0  0  0  0  0  0  0  0  0  0  0  0
    3.6737    3.1353    5.1155 C   0  0  0  0  0  0  0  0  0  0  0  0
    3.0983    3.0742    6.1910 C   0  0  0  0  0  0  0  0  0  0  0  0
    3.7720    3.5967    1.4838 C   0  0  0  0  0  0  0  0  0  0  0  0
    5.2706    5.3436    2.8117 C   0  0  0  0  0  0  0  0  0  0  0  0
    8.3535    2.9743   -0.8520 C   0  0  0  0  0  0  0  0  0  0  0  0
    7.6592    4.0011   -1.4372 C   0  0  0  0  0  0  0  0  0  0  0  0
    6.6426    4.3666   -0.5402 C   0  0  0  0  0  0  0  0  0  0  0  0
    9.5348    2.2265   -1.3440 C   0  0  0  0  0  0  0  0  0  0  0  0
    5.6126    5.4159   -0.7025 C   0  0  0  0  0  0  0  0  0  0  0  0
    9.6635    2.6810    3.4339 C   0  0  0  0  0  0  0  0  0  0  0  0
    9.3999    3.4858    4.4949 C   0  0  0  0  0  0  0  0  0  0  0  0
    8.0485    3.8344    4.4354 C   0  0  0  0  0  0  0  0  0  0  0  0
   10.9561    2.0874    2.9821 C   0  0  0  0  0  0  0  0  0  0  0  0
    7.2521    4.6859    5.3566 C   0  0  0  0  0  0  0  0  0  0  0  0
    6.9666   -0.5753    1.5015 C   0  0  0  0  0  0  0  0  0  0  0  0
    5.6636   -0.9436    1.6735 C   0  0  0  0  0  0  0  0  0  0  0  0
    4.9605    0.1956    2.0095 C   0  0  0  0  0  0  0  0  0  0  0  0
    8.1736   -1.3968    1.2298 C   0  0  0  0  0  0  0  0  0  0  0  0
    3.5237    0.3211    2.3793 C   0  0  0  0  0  0  0  0  0  0  0  0
    4.7717    0.6388    7.0607 C   0  0  0  0  0  0  0  0  0  0  0  0
    5.7785    1.5350    7.3742 C   0  0  0  0  0  0  0  0  0  0  0  0
    6.9885    1.4781    6.7311 C   0  0  0  0  0  0  0  0  0  0  0  0
    7.2052    0.5559    5.7376 C   0  0  0  0  0  0  0  0  0  0  0  0
    6.2155   -0.3340    5.4145 C   0  0  0  0  0  0  0  0  0  0  0  0
    4.9917   -0.3129    6.0752 C   0  0  0  0  0  0  0  0  0  0  0  0
    3.6013   -0.0718    9.5702 C   0  0  0  0  0  0  0  0  0  0  0  0
    2.6265   -0.1741   10.5589 C   0  0  0  0  0  0  0  0  0  0  0  0
    2.9554   -0.7658   11.7855 C   0  0  0  0  0  0  0  0  0  0  0  0
    4.2102   -1.2834   11.9993 C   0  0  0  0  0  0  0  0  0  0  0  0
    5.1597   -1.2112   11.0203 C   0  0  0  0  0  0  0  0  0  0  0  0
    4.8665   -0.6257    9.8033 C   0  0  0  0  0  0  0  0  0  0  0  0
    2.0547   -0.4206    7.1861 C   0  0  0  0  0  0  0  0  0  0  0  0
    1.2821    0.0083    6.1074 C   0  0  0  0  0  0  0  0  0  0  0  0
    0.4371   -0.8847    5.4627 C   0  0  0  0  0  0  0  0  0  0  0  0
    0.3538   -2.1821    5.9016 C   0  0  0  0  0  0  0  0  0  0  0  0
    1.1073   -2.6237    6.9514 C   0  0  0  0  0  0  0  0  0  0  0  0
    1.9709   -1.7485    7.6008 C   0  0  0  0  0  0  0  0  0  0  0  0
    8.1923    1.7406    1.4565 B   0  0  0  0  0  0  0  0  0  0  0  0
    9.0007    1.2209    1.1816 H   0  0  0  0  0  0  0  0  0  0  0  0
    7.8439    4.4122   -2.3294 H   0  0  0  0  0  0  0  0  0  0  0  0
    9.7833    2.5576   -2.2539 H   0  0  0  0  0  0  0  0  0  0  0  0
    9.3183    1.2508   -1.3906 H   0  0  0  0  0  0  0  0  0  0  0  0
   10.3018    2.3664   -0.7170 H   0  0  0  0  0  0  0  0  0  0  0  0
    5.7309    5.8639   -1.5883 H   0  0  0  0  0  0  0  0  0  0  0  0
    4.7055    4.9987   -0.6591 H   0  0  0  0  0  0  0  0  0  0  0  0
    5.7061    6.0919    0.0273 H   0  0  0  0  0  0  0  0  0  0  0  0
   10.0549    3.7780    5.1926 H   0  0  0  0  0  0  0  0  0  0  0  0
   11.6776    2.3226    3.6332 H   0  0  0  0  0  0  0  0  0  0  0  0
   11.1906    2.4485    2.0803 H   0  0  0  0  0  0  0  0  0  0  0  0
   10.8666    1.0920    2.9291 H   0  0  0  0  0  0  0  0  0  0  0  0
    7.8412    5.0308    6.0865 H   0  0  0  0  0  0  0  0  0  0  0  0
    6.8656    5.4561    4.8486 H   0  0  0  0  0  0  0  0  0  0  0  0
    6.5112    4.1449    5.7537 H   0  0  0  0  0  0  0  0  0  0  0  0
    5.2886   -1.8655    1.5755 H   0  0  0  0  0  0  0  0  0  0  0  0
    7.9051   -2.3532    1.1141 H   0  0  0  0  0  0  0  0  0  0  0  0
    8.6170   -1.0724    0.3939 H   0  0  0  0  0  0  0  0  0  0  0  0
    8.8102   -1.3187    1.9967 H   0  0  0  0  0  0  0  0  0  0  0  0
    3.0828   -0.5731    2.3069 H   0  0  0  0  0  0  0  0  0  0  0  0
    3.0756    0.9639    1.7587 H   0  0  0  0  0  0  0  0  0  0  0  0
    3.4492    0.6563    3.3181 H   0  0  0  0  0  0  0  0  0  0  0  0
    5.6241    2.2277    8.0783 H   0  0  0  0  0  0  0  0  0  0  0  0
    7.7174    2.1156    6.9819 H   0  0  0  0  0  0  0  0  0  0  0  0
    8.0813    0.5308    5.2569 H   0  0  0  0  0  0  0  0  0  0  0  0
    6.3751   -1.0072    4.6927 H   0  0  0  0  0  0  0  0  0  0  0  0
    4.2795   -0.9748    5.8437 H   0  0  0  0  0  0  0  0  0  0  0  0
    1.7012    0.1701   10.3949 H   0  0  0  0  0  0  0  0  0  0  0  0
    2.2718   -0.8111   12.5137 H   0  0  0  0  0  0  0  0  0  0  0  0
    4.4279   -1.7172   12.8738 H   0  0  0  0  0  0  0  0  0  0  0  0
    6.0744   -1.5823   11.1874 H   0  0  0  0  0  0  0  0  0  0  0  0
    5.5611   -0.5997    9.0847 H   0  0  0  0  0  0  0  0  0  0  0  0
    1.3348    0.9574    5.8003 H   0  0  0  0  0  0  0  0  0  0  0  0
   -0.1073   -0.5844    4.6798 H   0  0  0  0  0  0  0  0  0  0  0  0
   -0.2711   -2.8153    5.4450 H   0  0  0  0  0  0  0  0  0  0  0  0
    1.0400   -3.5752    7.2520 H   0  0  0  0  0  0  0  0  0  0  0  0
    2.5302   -2.0709    8.3645 H   0  0  0  0  0  0  0  0  0  0  0  0
  1  3  1  0  0  0  0
  2  6  1  0  0  0  0
  3 32  1  0  0  0  0
  4 15  3  0  0  0  0
  5 16  3  0  0  0  0
  6  7  1  0  0  0  0
  7 17  1  0  0  0  0
  8  2  1  0  0  0  0
  9  8  1  0  0  0  0
 10  2  1  0  0  0  0
 11 10  1  0  0  0  0
 12  2  3  0  0  0  0
 13 12  1  0  0  0  0
 14  1  1  0  0  0  0
 15  2  1  0  0  0  0
 16  2  1  0  0  0  0
 17 18  2  0  0  0  0
 18 19  1  0  0  0  0
 19  6  2  0  0  0  0
 20 17  1  0  0  0  0
 21 19  1  0  0  0  0
 22  9  1  0  0  0  0
 23 22  2  0  0  0  0
 24  8  2  0  0  0  0
 25 22  1  0  0  0  0
 26 24  1  0  0  0  0
 27 11  1  0  0  0  0
 28 27  2  0  0  0  0
 29 10  2  0  0  0  0
 30 27  1  0  0  0  0
 31 29  1  0  0  0  0
 32 33  4  0  0  0  0
 33 34  4  0  0  0  0
 34 35  4  0  0  0  0
 35 36  4  0  0  0  0
 36 37  4  0  0  0  0
 37 32  4  0  0  0  0
 38  3  1  0  0  0  0
 39 38  4  0  0  0  0
 40 39  4  0  0  0  0
 41 40  4  0  0  0  0
 42 41  4  0  0  0  0
 43 38  4  0  0  0  0
 44  3  1  0  0  0  0
 45 44  4  0  0  0  0
 46 45  4  0  0  0  0
 47 46  4  0  0  0  0
 48 47  4  0  0  0  0
 49 44  4  0  0  0  0
 50  7  1  0  0  0  0
 51 50  1  0  0  0  0
 52 18  1  0  0  0  0
 53 20  1  0  0  0  0
 54 20  1  0  0  0  0
 55 20  1  0  0  0  0
 56 21  1  0  0  0  0
 57 21  1  0  0  0  0
 58 21  1  0  0  0  0
 59 23  1  0  0  0  0
 60 25  1  0  0  0  0
 61 25  1  0  0  0  0
 62 25  1  0  0  0  0
 63 26  1  0  0  0  0
 64 26  1  0  0  0  0
 65 26  1  0  0  0  0
 66 28  1  0  0  0  0
 67 30  1  0  0  0  0
 68 30  1  0  0  0  0
 69 30  1  0  0  0  0
 70 31  1  0  0  0  0
 71 31  1  0  0  0  0
 72 31  1  0  0  0  0
 73 33  1  0  0  0  0
 74 34  1  0  0  0  0
 75 35  1  0  0  0  0
 76 36  1  0  0  0  0
 77 37  1  0  0  0  0
 78 39  1  0  0  0  0
 79 40  1  0  0  0  0
 80 41  1  0  0  0  0
 81 42  1  0  0  0  0
 82 43  1  0  0  0  0
 83 45  1  0  0  0  0
 84 46  1  0  0  0  0
 85 47  1  0  0  0  0
 86 48  1  0  0  0  0
 87 49  1  0  0  0  0
 88 92  1  0  0  0  0
 89  1  1  0  0  0  0
 90101  3  0  0  0  0
 91102  3  0  0  0  0
 92 93  1  0  0  0  0
 93103  1  0  0  0  0
 94 88  1  0  0  0  0
 95 94  1  0  0  0  0
 96 88  1  0  0  0  0
 97 96  1  0  0  0  0
 98 88  3  0  0  0  0
 99 98  1  0  0  0  0
100  1  1  0  0  0  0
101 88  1  0  0  0  0
102 88  1  0  0  0  0
103104  2  0  0  0  0
104105  1  0  0  0  0
105 92  2  0  0  0  0
106103  1  0  0  0  0
107105  1  0  0  0  0
108 95  1  0  0  0  0
109108  2  0  0  0  0
110 94  2  0  0  0  0
111108  1  0  0  0  0
112110  1  0  0  0  0
113 97  1  0  0  0  0
114113  2  0  0  0  0
115 96  2  0  0  0  0
116113  1  0  0  0  0
117115  1  0  0  0  0
118 89  1  0  0  0  0
119118  4  0  0  0  0
120119  4  0  0  0  0
121120  4  0  0  0  0
122121  4  0  0  0  0
123118  4  0  0  0  0
124 89  1  0  0  0  0
125124  4  0  0  0  0
126125  4  0  0  0  0
127126  4  0  0  0  0
128127  4  0  0  0  0
129124  4  0  0  0  0
130 89  1  0  0  0  0
131130  4  0  0  0  0
132131  4  0  0  0  0
133132  4  0  0  0  0
134133  4  0  0  0  0
135130  4  0  0  0  0
136 93  1  0  0  0  0
137136  1  0  0  0  0
138104  1  0  0  0  0
139106  1  0  0  0  0
140106  1  0  0  0  0
141106  1  0  0  0  0
142107  1  0  0  0  0
143107  1  0  0  0  0
144107  1  0  0  0  0
145109  1  0  0  0  0
146111  1  0  0  0  0
147111  1  0  0  0  0
148111  1  0  0  0  0
149112  1  0  0  0  0
150112  1  0  0  0  0
151112  1  0  0  0  0
152114  1  0  0  0  0
153116  1  0  0  0  0
154116  1  0  0  0  0
155116  1  0  0  0  0
156117  1  0  0  0  0
157117  1  0  0  0  0
158117  1  0  0  0  0
159119  1  0  0  0  0
160120  1  0  0  0  0
161121  1  0  0  0  0
162122  1  0  0  0  0
163123  1  0  0  0  0
164125  1  0  0  0  0
165126  1  0  0  0  0
166127  1  0  0  0  0
167128  1  0  0  0  0
168129  1  0  0  0  0
169131  1  0  0  0  0
170132  1  0  0  0  0
171133  1  0  0  0  0
172134  1  0  0  0  0
173135  1  0  0  0  0
  9 50  1  0  0  0  0
 11 50  1  0  0  0  0
 13 14  3  0  0  0  0
 23 24  1  0  0  0  0
 28 29  1  0  0  0  0
 42 43  4  0  0  0  0
 48 49  4  0  0  0  0
 95136  1  0  0  0  0
 97136  1  0  0  0  0
 99100  3  0  0  0  0
109110  1  0  0  0  0
114115  1  0  0  0  0
122123  4  0  0  0  0
128129  4  0  0  0  0
134135  4  0  0  0  0
M  END
$$$$
DAJFEA

From CSD data. Using bond type 'Any'. No disordered atoms. Largest molecule.
100142  0  0  0  0  0  0  0  0999 V2000
    7.3596   15.1342    8.0817 Ag  0  0  0  0  0  0  0  0  0  0  0  0
    6.6089   14.4521   11.9391 Co  0  0  0  0  0  0  0  0  0  0  0  0
    7.3777   16.9490    9.7855 P   0  0  0  0  0  0  0  0  0  0  0  0
    7.0136   12.8427    9.0013 P   0  0  0  0  0  0  0  0  0  0  0  0
    6.1516   16.3782   11.0937 C   0  0  0  0  0  0  0  0  0  0  0  0
    5.1680   15.1737   10.6008 C   0  0  0  0  0  0  0  0  0  0  0  0
    5.3915   14.6552    9.6337 H   0  0  0  0  0  0  0  0  0  0  0  0
    6.2043   16.3580   12.8174 B   0  0  0  0  0  0  0  0  0  0  0  0
    7.0812   16.6918   13.4272 H   0  0  0  0  0  0  0  0  0  0  0  0
    5.2173   17.5611   11.9059 B   0  0  0  0  0  0  0  0  0  0  0  0
    5.4720   18.6516   11.9192 H   0  0  0  0  0  0  0  0  0  0  0  0
    4.5840   16.7935   10.4564 B   0  0  0  0  0  0  0  0  0  0  0  0
    4.4192   17.3540    9.5015 H   0  0  0  0  0  0  0  0  0  0  0  0
    4.4833   14.2537   11.8450 B   0  0  0  0  0  0  0  0  0  0  0  0
    4.2017   13.1715   11.7885 H   0  0  0  0  0  0  0  0  0  0  0  0
    5.0831   15.0280   13.3456 B   0  0  0  0  0  0  0  0  0  0  0  0
    5.1853   14.4844   14.3191 H   0  0  0  0  0  0  0  0  0  0  0  0
    4.5306   16.7260   13.3059 B   0  0  0  0  0  0  0  0  0  0  0  0
    4.3226   17.2753   14.2594 H   0  0  0  0  0  0  0  0  0  0  0  0
    3.5334   16.9943   11.8555 B   0  0  0  0  0  0  0  0  0  0  0  0
    2.6645   17.7014   11.8498 H   0  0  0  0  0  0  0  0  0  0  0  0
    3.5285   15.4677   10.9448 B   0  0  0  0  0  0  0  0  0  0  0  0
    2.6651   15.1581   10.3014 H   0  0  0  0  0  0  0  0  0  0  0  0
    3.4655   15.4295   12.7067 B   0  0  0  0  0  0  0  0  0  0  0  0
    2.5402   15.1101   13.2514 H   0  0  0  0  0  0  0  0  0  0  0  0
    7.5711   12.8745   10.7969 C   0  0  0  0  0  0  0  0  0  0  0  0
    8.5515   14.0970   11.2168 C   0  0  0  0  0  0  0  0  0  0  0  0
    8.7325   14.9144   10.4724 H   0  0  0  0  0  0  0  0  0  0  0  0
    6.7418   12.3400   12.2193 B   0  0  0  0  0  0  0  0  0  0  0  0
    5.7120   11.8989   12.2192 H   0  0  0  0  0  0  0  0  0  0  0  0
    8.1259   11.4236   11.5151 B   0  0  0  0  0  0  0  0  0  0  0  0
    7.9798   10.4113   11.0579 H   0  0  0  0  0  0  0  0  0  0  0  0
    9.2905   12.5833   10.8389 B   0  0  0  0  0  0  0  0  0  0  0  0
    9.9216   12.3595    9.9402 H   0  0  0  0  0  0  0  0  0  0  0  0
    8.5177   14.5038   12.8683 B   0  0  0  0  0  0  0  0  0  0  0  0
    8.6973   15.5209   13.3014 H   0  0  0  0  0  0  0  0  0  0  0  0
    7.3842   13.3260   13.5980 B   0  0  0  0  0  0  0  0  0  0  0  0
    6.8140   13.5227   14.5417 H   0  0  0  0  0  0  0  0  0  0  0  0
    8.0394   11.6904   13.2627 B   0  0  0  0  0  0  0  0  0  0  0  0
    7.8458   10.8431   13.9691 H   0  0  0  0  0  0  0  0  0  0  0  0
    9.6033   11.8495   12.4169 B   0  0  0  0  0  0  0  0  0  0  0  0
   10.4381   11.1195   12.5772 H   0  0  0  0  0  0  0  0  0  0  0  0
    9.8834   13.5918   12.1498 B   0  0  0  0  0  0  0  0  0  0  0  0
   10.9113   14.0352   12.1046 H   0  0  0  0  0  0  0  0  0  0  0  0
    9.1404   13.0375   13.6472 B   0  0  0  0  0  0  0  0  0  0  0  0
    9.6945   13.0909   14.6191 H   0  0  0  0  0  0  0  0  0  0  0  0
    9.0201   17.1853   10.5456 C   0  0  0  0  0  0  0  0  0  0  0  0
    9.2535   17.7625   11.7913 C   0  0  0  0  0  0  0  0  0  0  0  0
    8.5198   18.0719   12.3111 H   0  0  0  0  0  0  0  0  0  0  0  0
   10.5453   17.8905   12.2822 C   0  0  0  0  0  0  0  0  0  0  0  0
   10.6935   18.2830   13.1353 H   0  0  0  0  0  0  0  0  0  0  0  0
   11.6193   17.4452   11.5266 C   0  0  0  0  0  0  0  0  0  0  0  0
   12.5035   17.5249   11.8643 H   0  0  0  0  0  0  0  0  0  0  0  0
   11.4069   16.8889   10.2908 C   0  0  0  0  0  0  0  0  0  0  0  0
   12.1456   16.5997    9.7676 H   0  0  0  0  0  0  0  0  0  0  0  0
   10.1235   16.7502    9.8058 C   0  0  0  0  0  0  0  0  0  0  0  0
    9.9875   16.3521    8.9547 H   0  0  0  0  0  0  0  0  0  0  0  0
    6.9226   18.6337    9.2473 C   0  0  0  0  0  0  0  0  0  0  0  0
    7.2546   19.7877    9.9585 C   0  0  0  0  0  0  0  0  0  0  0  0
    7.7148   19.7188   10.7869 H   0  0  0  0  0  0  0  0  0  0  0  0
    6.9143   21.0365    9.4561 C   0  0  0  0  0  0  0  0  0  0  0  0
    7.1470   21.8206    9.9385 H   0  0  0  0  0  0  0  0  0  0  0  0
    6.2368   21.1412    8.2544 C   0  0  0  0  0  0  0  0  0  0  0  0
    5.9963   21.9972    7.9208 H   0  0  0  0  0  0  0  0  0  0  0  0
    5.9073   20.0102    7.5397 C   0  0  0  0  0  0  0  0  0  0  0  0
    5.4453   20.0854    6.7128 H   0  0  0  0  0  0  0  0  0  0  0  0
    6.2563   18.7593    8.0350 C   0  0  0  0  0  0  0  0  0  0  0  0
    6.0377   17.9798    7.5370 H   0  0  0  0  0  0  0  0  0  0  0  0
    7.9995   11.6073    8.0791 C   0  0  0  0  0  0  0  0  0  0  0  0
    9.0051   12.1023    7.2483 C   0  0  0  0  0  0  0  0  0  0  0  0
    9.1746   13.0371    7.2241 H   0  0  0  0  0  0  0  0  0  0  0  0
    9.7600   11.2514    6.4605 C   0  0  0  0  0  0  0  0  0  0  0  0
   10.4557   11.5994    5.9160 H   0  0  0  0  0  0  0  0  0  0  0  0
    9.4999    9.8909    6.4678 C   0  0  0  0  0  0  0  0  0  0  0  0
   10.0068    9.3056    5.9160 H   0  0  0  0  0  0  0  0  0  0  0  0
    8.5009    9.3863    7.2802 C   0  0  0  0  0  0  0  0  0  0  0  0
    8.3270    8.4515    7.2902 H   0  0  0  0  0  0  0  0  0  0  0  0
    7.7492   10.2343    8.0813 C   0  0  0  0  0  0  0  0  0  0  0  0
    7.0625    9.8796    8.6337 H   0  0  0  0  0  0  0  0  0  0  0  0
    5.3285   12.1584    9.0407 C   0  0  0  0  0  0  0  0  0  0  0  0
    4.3387   12.8311    8.3291 C   0  0  0  0  0  0  0  0  0  0  0  0
    4.5616   13.6168    7.8418 H   0  0  0  0  0  0  0  0  0  0  0  0
    3.0336   12.3689    8.3239 C   0  0  0  0  0  0  0  0  0  0  0  0
    2.3613   12.8490    7.8563 H   0  0  0  0  0  0  0  0  0  0  0  0
    2.7091   11.2078    8.9999 C   0  0  0  0  0  0  0  0  0  0  0  0
    1.8127   10.8911    8.9999 H   0  0  0  0  0  0  0  0  0  0  0  0
    3.6931   10.5070    9.6781 C   0  0  0  0  0  0  0  0  0  0  0  0
    3.4739    9.6953   10.1192 H   0  0  0  0  0  0  0  0  0  0  0  0
    4.9920   10.9812    9.7176 C   0  0  0  0  0  0  0  0  0  0  0  0
    5.6554   10.5072   10.2047 H   0  0  0  0  0  0  0  0  0  0  0  0
    8.9181   15.4280    6.2944 O   0  0  0  0  0  0  0  0  0  0  0  0
    9.3641   16.3912    5.6941 C   0  0  0  0  0  0  0  0  0  0  0  0
    9.9117   16.2482    4.3156 C   0  0  0  0  0  0  0  0  0  0  0  0
    9.8352   15.3136    4.0290 H   0  0  0  0  0  0  0  0  0  0  0  0
   10.8542   16.5152    4.3080 H   0  0  0  0  0  0  0  0  0  0  0  0
    9.4054   16.8204    3.7016 H   0  0  0  0  0  0  0  0  0  0  0  0
    9.3621   17.7600    6.3015 C   0  0  0  0  0  0  0  0  0  0  0  0
    8.9133   17.7302    7.1725 H   0  0  0  0  0  0  0  0  0  0  0  0
    8.8858   18.3790    5.7096 H   0  0  0  0  0  0  0  0  0  0  0  0
   10.2853   18.0661    6.4193 H   0  0  0  0  0  0  0  0  0  0  0  0
  1  3  1  0  0  0  0
  2  5  1  0  0  0  0
  3  5  1  0  0  0  0
  4  1  1  0  0  0  0
  5  6  1  0  0  0  0
  6  2  1  0  0  0  0
  7  6  1  0  0  0  0
  8  2  1  0  0  0  0
  9  8  1  0  0  0  0
 10  5  1  0  0  0  0
 11 10  1  0  0  0  0
 12  5  1  0  0  0  0
 13 12  1  0  0  0  0
 14  2  1  0  0  0  0
 15 14  1  0  0  0  0
 16  2  1  0  0  0  0
 17 16  1  0  0  0  0
 18  8  1  0  0  0  0
 19 18  1  0  0  0  0
 20 10  1  0  0  0  0
 21 20  1  0  0  0  0
 22  6  1  0  0  0  0
 23 22  1  0  0  0  0
 24 14  1  0  0  0  0
 25 24  1  0  0  0  0
 26  2  1  0  0  0  0
 27  2  1  0  0  0  0
 28 27  1  0  0  0  0
 29  2  1  0  0  0  0
 30 29  1  0  0  0  0
 31 26  1  0  0  0  0
 32 31  1  0  0  0  0
 33 26  1  0  0  0  0
 34 33  1  0  0  0  0
 35  2  1  0  0  0  0
 36 35  1  0  0  0  0
 37  2  1  0  0  0  0
 38 37  1  0  0  0  0
 39 29  1  0  0  0  0
 40 39  1  0  0  0  0
 41 31  1  0  0  0  0
 42 41  1  0  0  0  0
 43 27  1  0  0  0  0
 44 43  1  0  0  0  0
 45 35  1  0  0  0  0
 46 45  1  0  0  0  0
 47  3  1  0  0  0  0
 48 47  4  0  0  0  0
 49 48  1  0  0  0  0
 50 48  4  0  0  0  0
 51 50  1  0  0  0  0
 52 50  4  0  0  0  0
 53 52  1  0  0  0  0
 54 52  4  0  0  0  0
 55 54  1  0  0  0  0
 56 47  4  0  0  0  0
 57 56  1  0  0  0  0
 58  3  1  0  0  0  0
 59 58  4  0  0  0  0
 60 59  1  0  0  0  0
 61 59  4  0  0  0  0
 62 61  1  0  0  0  0
 63 61  4  0  0  0  0
 64 63  1  0  0  0  0
 65 63  4  0  0  0  0
 66 65  1  0  0  0  0
 67 58  4  0  0  0  0
 68 67  1  0  0  0  0
 69  4  1  0  0  0  0
 70 69  4  0  0  0  0
 71 70  1  0  0  0  0
 72 70  4  0  0  0  0
 73 72  1  0  0  0  0
 74 72  4  0  0  0  0
 75 74  1  0  0  0  0
 76 74  4  0  0  0  0
 77 76  1  0  0  0  0
 78 69  4  0  0  0  0
 79 78  1  0  0  0  0
 80  4  1  0  0  0  0
 81 80  4  0  0  0  0
 82 81  1  0  0  0  0
 83 81  4  0  0  0  0
 84 83  1  0  0  0  0
 85 83  4  0  0  0  0
 86 85  1  0  0  0  0
 87 85  4  0  0  0  0
 88 87  1  0  0  0  0
 89 80  4  0  0  0  0
 90 89  1  0  0  0  0
 91  1  1  0  0  0  0
 92 91  2  0  0  0  0
 93 92  1  0  0  0  0
 94 93  1  0  0  0  0
 95 93  1  0  0  0  0
 96 93  1  0  0  0  0
 97 92  1  0  0  0  0
 98 97  1  0  0  0  0
 99 97  1  0  0  0  0
100 97  1  0  0  0  0
  4 26  1  0  0  0  0
  5  8  1  0  0  0  0
  6 12  1  0  0  0  0
  6 14  1  0  0  0  0
  8 10  1  0  0  0  0
  8 16  1  0  0  0  0
 10 12  1  0  0  0  0
 10 18  1  0  0  0  0
 12 20  1  0  0  0  0
 12 22  1  0  0  0  0
 14 16  1  0  0  0  0
 14 22  1  0  0  0  0
 16 18  1  0  0  0  0
 16 24  1  0  0  0  0
 18 20  1  0  0  0  0
 18 24  1  0  0  0  0
 20 22  1  0  0  0  0
 20 24  1  0  0  0  0
 22 24  1  0  0  0  0
 26 27  1  0  0  0  0
 26 29  1  0  0  0  0
 27 33  1  0  0  0  0
 27 35  1  0  0  0  0
 29 31  1  0  0  0  0
 29 37  1  0  0  0  0
 31 33  1  0  0  0  0
 31 39  1  0  0  0  0
 33 41  1  0  0  0  0
 33 43  1  0  0  0  0
 35 37  1  0  0  0  0
 35 43  1  0  0  0  0
 37 39  1  0  0  0  0
 37 45  1  0  0  0  0
 39 41  1  0  0  0  0
 39 45  1  0  0  0  0
 41 43  1  0  0  0  0
 41 45  1  0  0  0  0
 43 45  1  0  0  0  0
 54 56  4  0  0  0  0
 65 67  4  0  0  0  0
 76 78  4  0  0  0  0
 87 89  4  0  0  0  0
M  END
$$$$
DAQDUW

From CSD data. Using bond type 'Any'. Matching problem. No disordered atoms. Largest molecule.
111117  0  0  0  0  0  0  0  0999 V2000
    7.5379    1.5983   18.9088 P   0  0  0  0  0  0  0  0  0  0  0  0
    2.3734    1.3883   15.9327 P   0  0  0  0  0  0  0  0  0  0  0  0
    4.3490    0.8474   18.4273 O   0  0  0  0  0  0  0  0  0  0  0  0
    7.1465    1.0271   17.4759 O   0  0  0  0  0  0  0  0  0  0  0  0
    1.2372    0.7758   14.9973 O   0  0  0  0  0  0  0  0  0  0  0  0
    9.3206    1.3846   19.4435 B   0  0  0  0  0  0  0  0  0  0  0  0
    9.5824    0.4455   19.3380 H   0  0  0  0  0  0  0  0  0  0  0  0
    9.4116    1.6450   20.3850 H   0  0  0  0  0  0  0  0  0  0  0  0
    9.8979    1.9499   18.8905 H   0  0  0  0  0  0  0  0  0  0  0  0
    6.3520    0.6905   19.9776 C   0  0  0  0  0  0  0  0  0  0  0  0
    6.7870    0.1116   21.1175 C   0  0  0  0  0  0  0  0  0  0  0  0
    7.7042    0.1733   21.3581 H   0  0  0  0  0  0  0  0  0  0  0  0
    5.8255   -0.6351   22.0167 C   0  0  0  0  0  0  0  0  0  0  0  0
    6.1129   -0.9972   22.8463 H   0  0  0  0  0  0  0  0  0  0  0  0
    4.5506   -0.7712   21.6030 C   0  0  0  0  0  0  0  0  0  0  0  0
    3.9369   -1.2385   22.1581 H   0  0  0  0  0  0  0  0  0  0  0  0
    4.1014   -0.2577   20.4103 C   0  0  0  0  0  0  0  0  0  0  0  0
    4.9929    0.4618   19.6546 C   0  0  0  0  0  0  0  0  0  0  0  0
    2.8407   -0.3402   19.6525 C   0  0  0  0  0  0  0  0  0  0  0  0
    1.5350   -0.9228   19.8762 C   0  0  0  0  0  0  0  0  0  0  0  0
    1.3556   -1.4708   20.6298 H   0  0  0  0  0  0  0  0  0  0  0  0
    0.5866   -0.6469   18.9622 C   0  0  0  0  0  0  0  0  0  0  0  0
   -0.3032   -0.9373   19.1227 H   0  0  0  0  0  0  0  0  0  0  0  0
    0.8627    0.0417   17.7991 C   0  0  0  0  0  0  0  0  0  0  0  0
    0.1443    0.2404   17.2123 H   0  0  0  0  0  0  0  0  0  0  0  0
    2.1105    0.4482   17.4529 C   0  0  0  0  0  0  0  0  0  0  0  0
    3.0295    0.3747   18.4725 C   0  0  0  0  0  0  0  0  0  0  0  0
    6.9746    3.2854   18.9707 C   0  0  0  0  0  0  0  0  0  0  0  0
    5.7935    3.6937   18.3543 C   0  0  0  0  0  0  0  0  0  0  0  0
    5.2824    3.0722   17.8477 H   0  0  0  0  0  0  0  0  0  0  0  0
    5.3497    5.0457   18.4809 C   0  0  0  0  0  0  0  0  0  0  0  0
    4.5397    5.3487   18.0883 H   0  0  0  0  0  0  0  0  0  0  0  0
    6.1939    5.9158   19.2366 C   0  0  0  0  0  0  0  0  0  0  0  0
    5.9504    6.8277   19.3401 H   0  0  0  0  0  0  0  0  0  0  0  0
    7.3234    5.4703   19.8003 C   0  0  0  0  0  0  0  0  0  0  0  0
    7.8542    6.0773   20.3026 H   0  0  0  0  0  0  0  0  0  0  0  0
    7.7259    4.2118   19.6863 C   0  0  0  0  0  0  0  0  0  0  0  0
    8.5373    3.9396   20.0979 H   0  0  0  0  0  0  0  0  0  0  0  0
    8.1346    0.9572   16.3616 C   0  0  0  0  0  0  0  0  0  0  0  0
    9.0423    0.7603   16.7331 H   0  0  0  0  0  0  0  0  0  0  0  0
    7.6969   -0.1833   15.4792 C   0  0  0  0  0  0  0  0  0  0  0  0
    6.7847    0.0563   15.1457 H   0  0  0  0  0  0  0  0  0  0  0  0
    8.5930   -0.2223   14.2676 C   0  0  0  0  0  0  0  0  0  0  0  0
    9.5109   -0.4573   14.5526 H   0  0  0  0  0  0  0  0  0  0  0  0
    8.2753   -0.9309   13.6533 H   0  0  0  0  0  0  0  0  0  0  0  0
    8.6259    1.0897   13.5309 C   0  0  0  0  0  0  0  0  0  0  0  0
    9.2489    1.0153   12.7646 H   0  0  0  0  0  0  0  0  0  0  0  0
    7.7239    1.2830   13.1720 H   0  0  0  0  0  0  0  0  0  0  0  0
    9.0595    2.2221   14.4069 C   0  0  0  0  0  0  0  0  0  0  0  0
    9.9891    2.0233   14.7151 H   0  0  0  0  0  0  0  0  0  0  0  0
    8.1619    2.2801   15.6523 C   0  0  0  0  0  0  0  0  0  0  0  0
    8.4995    2.9769   16.2708 H   0  0  0  0  0  0  0  0  0  0  0  0
    7.2420    2.5278   15.3842 H   0  0  0  0  0  0  0  0  0  0  0  0
    9.0930    3.5776   13.6955 C   0  0  0  0  0  0  0  0  0  0  0  0
    9.7191    3.5368   12.9440 H   0  0  0  0  0  0  0  0  0  0  0  0
    9.3834    4.2699   14.3267 H   0  0  0  0  0  0  0  0  0  0  0  0
    8.1963    3.7945   13.3641 H   0  0  0  0  0  0  0  0  0  0  0  0
    1.5732    3.1584   16.3130 C   0  0  0  0  0  0  0  0  0  0  0  0
    0.2072    3.2038   16.6191 C   0  0  0  0  0  0  0  0  0  0  0  0
   -0.3293    2.4208   16.6529 H   0  0  0  0  0  0  0  0  0  0  0  0
   -0.3184    4.4731   16.8767 C   0  0  0  0  0  0  0  0  0  0  0  0
   -1.2522    4.5938   17.0012 H   0  0  0  0  0  0  0  0  0  0  0  0
    0.5698    5.5792   16.9442 C   0  0  0  0  0  0  0  0  0  0  0  0
    0.2497    6.4430   17.1764 H   0  0  0  0  0  0  0  0  0  0  0  0
    1.8837    5.3787   16.6719 C   0  0  0  0  0  0  0  0  0  0  0  0
    2.4803    6.1181   16.6888 H   0  0  0  0  0  0  0  0  0  0  0  0
    2.3177    4.2663   16.4038 C   0  0  0  0  0  0  0  0  0  0  0  0
    3.2514    4.1828   16.2497 H   0  0  0  0  0  0  0  0  0  0  0  0
    1.3862    0.7531   13.5435 C   0  0  0  0  0  0  0  0  0  0  0  0
    2.3373    0.5353   13.3240 H   0  0  0  0  0  0  0  0  0  0  0  0
    0.4972   -0.3838   13.0348 C   0  0  0  0  0  0  0  0  0  0  0  0
   -0.4462   -0.1488   13.2712 H   0  0  0  0  0  0  0  0  0  0  0  0
    0.6006   -0.3693   11.4369 C   0  0  0  0  0  0  0  0  0  0  0  0
    1.5224   -0.6097   11.1688 H   0  0  0  0  0  0  0  0  0  0  0  0
   -0.0130   -1.0498   11.0632 H   0  0  0  0  0  0  0  0  0  0  0  0
    0.2440    1.0126   10.8564 C   0  0  0  0  0  0  0  0  0  0  0  0
    0.3338    0.9863    9.8727 H   0  0  0  0  0  0  0  0  0  0  0  0
   -0.6993    1.2231   11.0717 H   0  0  0  0  0  0  0  0  0  0  0  0
    1.1215    2.0850   11.4010 C   0  0  0  0  0  0  0  0  0  0  0  0
    2.0634    1.8745   11.1371 H   0  0  0  0  0  0  0  0  0  0  0  0
    1.0512    2.0950   12.9440 C   0  0  0  0  0  0  0  0  0  0  0  0
    1.6821    2.7728   13.2923 H   0  0  0  0  0  0  0  0  0  0  0  0
    0.1386    2.3563   13.2248 H   0  0  0  0  0  0  0  0  0  0  0  0
    0.7874   -1.7176   13.6470 C   0  0  0  0  0  0  0  0  0  0  0  0
    0.7930   -1.5915   14.6391 H   0  0  0  0  0  0  0  0  0  0  0  0
    2.1885   -2.2729   13.2480 C   0  0  0  0  0  0  0  0  0  0  0  0
    2.2211   -2.4099   12.2791 H   0  0  0  0  0  0  0  0  0  0  0  0
    2.3441   -3.1267   13.7040 H   0  0  0  0  0  0  0  0  0  0  0  0
    2.8812   -1.6314   13.5119 H   0  0  0  0  0  0  0  0  0  0  0  0
   -0.2742   -2.7429   13.3346 C   0  0  0  0  0  0  0  0  0  0  0  0
   -1.1552   -2.3808   13.5625 H   0  0  0  0  0  0  0  0  0  0  0  0
   -0.1085   -3.5540   13.8581 H   0  0  0  0  0  0  0  0  0  0  0  0
   -0.2467   -2.9606   12.3783 H   0  0  0  0  0  0  0  0  0  0  0  0
    0.7616    3.4878   10.8184 C   0  0  0  0  0  0  0  0  0  0  0  0
    0.8302    3.4624    9.8410 H   0  0  0  0  0  0  0  0  0  0  0  0
    1.3834    4.1574   11.1730 H   0  0  0  0  0  0  0  0  0  0  0  0
   -0.1542    3.7237   11.0759 H   0  0  0  0  0  0  0  0  0  0  0  0
    7.5504   -1.5506   16.1991 C   0  0  0  0  0  0  0  0  0  0  0  0
    7.0054   -1.3701   17.0181 H   0  0  0  0  0  0  0  0  0  0  0  0
    8.9241   -2.0805   16.7141 C   0  0  0  0  0  0  0  0  0  0  0  0
    9.6342   -1.8038   16.0977 H   0  0  0  0  0  0  0  0  0  0  0  0
    8.9000   -3.0586   16.7648 H   0  0  0  0  0  0  0  0  0  0  0  0
    9.1031   -1.7112   17.6049 H   0  0  0  0  0  0  0  0  0  0  0  0
    6.7277   -2.5832   15.3631 C   0  0  0  0  0  0  0  0  0  0  0  0
    5.7752   -2.3563   15.4117 H   0  0  0  0  0  0  0  0  0  0  0  0
    6.8681   -3.4823   15.7241 H   0  0  0  0  0  0  0  0  0  0  0  0
    7.0225   -2.5559   14.4280 H   0  0  0  0  0  0  0  0  0  0  0  0
    4.1151    1.2703   15.1584 B   0  0  0  0  0  0  0  0  0  0  0  0
    4.2818    0.3475   14.8692 H   0  0  0  0  0  0  0  0  0  0  0  0
    4.7872    1.5307   15.8212 H   0  0  0  0  0  0  0  0  0  0  0  0
    4.1706    1.8682   14.3837 H   0  0  0  0  0  0  0  0  0  0  0  0
  1  4  1  0  0  0  0
  2  5  1  0  0  0  0
  3 18  1  0  0  0  0
  4 39  1  0  0  0  0
  5 69  1  0  0  0  0
  6  1  1  0  0  0  0
  7  6  1  0  0  0  0
  8  6  1  0  0  0  0
  9  6  1  0  0  0  0
 10  1  1  0  0  0  0
 11 10  4  0  0  0  0
 12 11  1  0  0  0  0
 13 11  4  0  0  0  0
 14 13  1  0  0  0  0
 15 13  4  0  0  0  0
 16 15  1  0  0  0  0
 17 15  4  0  0  0  0
 18 10  4  0  0  0  0
 19 17  1  0  0  0  0
 20 19  4  0  0  0  0
 21 20  1  0  0  0  0
 22 20  4  0  0  0  0
 23 22  1  0  0  0  0
 24 22  4  0  0  0  0
 25 24  1  0  0  0  0
 26  2  1  0  0  0  0
 27  3  1  0  0  0  0
 28  1  1  0  0  0  0
 29 28  4  0  0  0  0
 30 29  1  0  0  0  0
 31 29  4  0  0  0  0
 32 31  1  0  0  0  0
 33 31  4  0  0  0  0
 34 33  1  0  0  0  0
 35 33  4  0  0  0  0
 36 35  1  0  0  0  0
 37 28  4  0  0  0  0
 38 37  1  0  0  0  0
 39 40  1  0  0  0  0
 41 39  1  0  0  0  0
 42 41  1  0  0  0  0
 43 41  1  0  0  0  0
 44 43  1  0  0  0  0
 45 43  1  0  0  0  0
 46 43  1  0  0  0  0
 47 46  1  0  0  0  0
 48 46  1  0  0  0  0
 49 46  1  0  0  0  0
 50 49  1  0  0  0  0
 51 39  1  0  0  0  0
 52 51  1  0  0  0  0
 53 51  1  0  0  0  0
 54 49  1  0  0  0  0
 55 54  1  0  0  0  0
 56 54  1  0  0  0  0
 57 54  1  0  0  0  0
 58  2  1  0  0  0  0
 59 58  4  0  0  0  0
 60 59  1  0  0  0  0
 61 59  4  0  0  0  0
 62 61  1  0  0  0  0
 63 61  4  0  0  0  0
 64 63  1  0  0  0  0
 65 63  4  0  0  0  0
 66 65  1  0  0  0  0
 67 58  4  0  0  0  0
 68 67  1  0  0  0  0
 69 70  1  0  0  0  0
 71 69  1  0  0  0  0
 72 71  1  0  0  0  0
 73 71  1  0  0  0  0
 74 73  1  0  0  0  0
 75 73  1  0  0  0  0
 76 73  1  0  0  0  0
 77 76  1  0  0  0  0
 78 76  1  0  0  0  0
 79 76  1  0  0  0  0
 80 79  1  0  0  0  0
 81 69  1  0  0  0  0
 82 81  1  0  0  0  0
 83 81  1  0  0  0  0
 84 71  1  0  0  0  0
 85 84  1  0  0  0  0
 86 84  1  0  0  0  0
 87 86  1  0  0  0  0
 88 86  1  0  0  0  0
 89 86  1  0  0  0  0
 90 84  1  0  0  0  0
 91 90  1  0  0  0  0
 92 90  1  0  0  0  0
 93 90  1  0  0  0  0
 94 79  1  0  0  0  0
 95 94  1  0  0  0  0
 96 94  1  0  0  0  0
 97 94  1  0  0  0  0
 98 41  1  0  0  0  0
 99 98  1  0  0  0  0
100 98  1  0  0  0  0
101100  1  0  0  0  0
102100  1  0  0  0  0
103100  1  0  0  0  0
104 98  1  0  0  0  0
105104  1  0  0  0  0
106104  1  0  0  0  0
107104  1  0  0  0  0
108  2  1  0  0  0  0
109108  1  0  0  0  0
110108  1  0  0  0  0
111108  1  0  0  0  0
 17 18  4  0  0  0  0
 19 27  4  0  0  0  0
 24 26  4  0  0  0  0
 26 27  4  0  0  0  0
 35 37  4  0  0  0  0
 49 51  1  0  0  0  0
 65 67  4  0  0  0  0
 79 81  1  0  0  0  0
M  END
$$$$
DAQFAE

From CSD data. Using bond type 'Any'. Matching problem. No disordered atoms. Largest molecule.
111117  0  0  0  0  0  0  0  0999 V2000
    5.5077    8.3132    5.5739 P   0  0  0  0  0  0  0  0  0  0  0  0
    4.6157   13.2823    2.4957 P   0  0  0  0  0  0  0  0  0  0  0  0
    3.0830   12.3566    2.4185 C   0  0  0  0  0  0  0  0  0  0  0  0
    3.7495    8.4022    5.1515 C   0  0  0  0  0  0  0  0  0  0  0  0
    3.1576    9.3917    4.3685 C   0  0  0  0  0  0  0  0  0  0  0  0
    1.8136    9.3610    3.9777 C   0  0  0  0  0  0  0  0  0  0  0  0
    1.6189   10.5125    3.1443 C   0  0  0  0  0  0  0  0  0  0  0  0
    2.8578   11.1707    3.1062 C   0  0  0  0  0  0  0  0  0  0  0  0
    1.5470    7.3431    5.2098 C   0  0  0  0  0  0  0  0  0  0  0  0
    0.9981    6.6334    5.5229 H   0  0  0  0  0  0  0  0  0  0  0  0
    2.8970    7.3853    5.5765 C   0  0  0  0  0  0  0  0  0  0  0  0
    3.2435    6.6991    6.1330 H   0  0  0  0  0  0  0  0  0  0  0  0
    0.7530   12.1677    1.6737 C   0  0  0  0  0  0  0  0  0  0  0  0
    0.0389   12.5180    1.1551 H   0  0  0  0  0  0  0  0  0  0  0  0
    1.0038    8.3156    4.4024 C   0  0  0  0  0  0  0  0  0  0  0  0
    0.0912    8.2731    4.1406 H   0  0  0  0  0  0  0  0  0  0  0  0
    1.9910   12.8225    1.6734 C   0  0  0  0  0  0  0  0  0  0  0  0
    2.0940   13.6093    1.1506 H   0  0  0  0  0  0  0  0  0  0  0  0
    0.5534   11.0216    2.4149 C   0  0  0  0  0  0  0  0  0  0  0  0
   -0.2932   10.5908    2.4253 H   0  0  0  0  0  0  0  0  0  0  0  0
    6.3231    7.7635    4.0630 C   0  0  0  0  0  0  0  0  0  0  0  0
    6.4382    8.6132    2.9699 C   0  0  0  0  0  0  0  0  0  0  0  0
    6.0858    9.4941    3.0112 H   0  0  0  0  0  0  0  0  0  0  0  0
    7.0665    8.1731    1.8234 C   0  0  0  0  0  0  0  0  0  0  0  0
    7.1424    8.7576    1.0779 H   0  0  0  0  0  0  0  0  0  0  0  0
    6.8433    6.4710    3.9880 C   0  0  0  0  0  0  0  0  0  0  0  0
    6.7654    5.8792    4.7265 H   0  0  0  0  0  0  0  0  0  0  0  0
    7.5809    6.9104    1.7442 C   0  0  0  0  0  0  0  0  0  0  0  0
    8.0089    6.6174    0.9477 H   0  0  0  0  0  0  0  0  0  0  0  0
    7.4745    6.0616    2.8277 C   0  0  0  0  0  0  0  0  0  0  0  0
    7.8398    5.1854    2.7751 H   0  0  0  0  0  0  0  0  0  0  0  0
    6.0852   10.5175    6.9548 C   0  0  0  0  0  0  0  0  0  0  0  0
    6.4301    9.8933    7.6560 H   0  0  0  0  0  0  0  0  0  0  0  0
    7.0592   11.6669    6.7972 C   0  0  0  0  0  0  0  0  0  0  0  0
    6.6716   12.2855    6.1133 H   0  0  0  0  0  0  0  0  0  0  0  0
    4.6984   10.9748    7.3429 C   0  0  0  0  0  0  0  0  0  0  0  0
    4.1064   10.1861    7.4304 H   0  0  0  0  0  0  0  0  0  0  0  0
    4.3325   11.5526    6.6281 H   0  0  0  0  0  0  0  0  0  0  0  0
    7.0830   12.4314    8.1331 C   0  0  0  0  0  0  0  0  0  0  0  0
    7.4695   11.8472    8.8324 H   0  0  0  0  0  0  0  0  0  0  0  0
    7.6683   13.2242    8.0421 H   0  0  0  0  0  0  0  0  0  0  0  0
    4.7118   11.7467    8.6607 C   0  0  0  0  0  0  0  0  0  0  0  0
    5.0178   11.1249    9.3819 H   0  0  0  0  0  0  0  0  0  0  0  0
    8.4397   11.2553    6.2929 C   0  0  0  0  0  0  0  0  0  0  0  0
    8.2970   10.7274    5.4563 H   0  0  0  0  0  0  0  0  0  0  0  0
    5.7001   12.8842    8.5729 C   0  0  0  0  0  0  0  0  0  0  0  0
    5.7697   13.3201    9.4591 H   0  0  0  0  0  0  0  0  0  0  0  0
    5.3612   13.5579    7.9300 H   0  0  0  0  0  0  0  0  0  0  0  0
    9.2099   10.3590    7.2538 C   0  0  0  0  0  0  0  0  0  0  0  0
    9.3713   10.8410    8.0920 H   0  0  0  0  0  0  0  0  0  0  0  0
   10.0670   10.1081    6.8506 H   0  0  0  0  0  0  0  0  0  0  0  0
    8.6859    9.5508    7.4380 H   0  0  0  0  0  0  0  0  0  0  0  0
    9.2890   12.4651    5.9124 C   0  0  0  0  0  0  0  0  0  0  0  0
    9.5943   12.9190    6.7265 H   0  0  0  0  0  0  0  0  0  0  0  0
    8.7527   13.0841    5.3745 H   0  0  0  0  0  0  0  0  0  0  0  0
   10.0646   12.1684    5.3927 H   0  0  0  0  0  0  0  0  0  0  0  0
    3.3251   12.2399    9.0234 C   0  0  0  0  0  0  0  0  0  0  0  0
    2.9457   12.7345    8.2677 H   0  0  0  0  0  0  0  0  0  0  0  0
    3.3818   12.8285    9.8043 H   0  0  0  0  0  0  0  0  0  0  0  0
    2.7497   11.4745    9.2336 H   0  0  0  0  0  0  0  0  0  0  0  0
    4.5289   14.2045    4.0444 C   0  0  0  0  0  0  0  0  0  0  0  0
    3.3287   14.5335    4.6375 C   0  0  0  0  0  0  0  0  0  0  0  0
    2.5183   14.1790    4.2905 H   0  0  0  0  0  0  0  0  0  0  0  0
    5.7060   14.7135    4.5773 C   0  0  0  0  0  0  0  0  0  0  0  0
    6.5434   14.4682    4.2012 H   0  0  0  0  0  0  0  0  0  0  0  0
    5.6566   15.5862    5.6665 C   0  0  0  0  0  0  0  0  0  0  0  0
    6.4583   15.9553    6.0194 H   0  0  0  0  0  0  0  0  0  0  0  0
    4.4422   15.9072    6.2255 C   0  0  0  0  0  0  0  0  0  0  0  0
    4.4074   16.5055    6.9626 H   0  0  0  0  0  0  0  0  0  0  0  0
    3.2943   15.3800    5.7371 C   0  0  0  0  0  0  0  0  0  0  0  0
    2.4637   15.5898    6.1481 H   0  0  0  0  0  0  0  0  0  0  0  0
    5.3807   15.5097   -0.4722 C   0  0  0  0  0  0  0  0  0  0  0  0
    4.4685   15.6483   -0.8569 H   0  0  0  0  0  0  0  0  0  0  0  0
    5.2120   15.4535    1.0402 C   0  0  0  0  0  0  0  0  0  0  0  0
    6.0976   15.2863    1.4731 H   0  0  0  0  0  0  0  0  0  0  0  0
    5.6184   18.0135   -0.2790 C   0  0  0  0  0  0  0  0  0  0  0  0
    4.7394   18.1824   -0.7025 H   0  0  0  0  0  0  0  0  0  0  0  0
    6.2169   18.7681   -0.5072 H   0  0  0  0  0  0  0  0  0  0  0  0
    4.6038   16.7230    1.5965 C   0  0  0  0  0  0  0  0  0  0  0  0
    4.5412   16.6528    2.5813 H   0  0  0  0  0  0  0  0  0  0  0  0
    3.6866   16.8320    1.2384 H   0  0  0  0  0  0  0  0  0  0  0  0
    5.9159   14.1948   -1.0707 C   0  0  0  0  0  0  0  0  0  0  0  0
    5.4773   13.4425   -0.5783 H   0  0  0  0  0  0  0  0  0  0  0  0
    6.1928   16.7438   -0.8246 C   0  0  0  0  0  0  0  0  0  0  0  0
    7.1120   16.6332   -0.4754 H   0  0  0  0  0  0  0  0  0  0  0  0
    6.2521   16.8178   -1.8107 H   0  0  0  0  0  0  0  0  0  0  0  0
    5.4447   17.9519    1.2249 C   0  0  0  0  0  0  0  0  0  0  0  0
    6.3478   17.8541    1.6426 H   0  0  0  0  0  0  0  0  0  0  0  0
    5.5301   14.0587   -2.5504 C   0  0  0  0  0  0  0  0  0  0  0  0
    5.8708   14.8302   -3.0491 H   0  0  0  0  0  0  0  0  0  0  0  0
    4.5539   14.0228   -2.6312 H   0  0  0  0  0  0  0  0  0  0  0  0
    5.9183   13.2367   -2.9143 H   0  0  0  0  0  0  0  0  0  0  0  0
    7.4183   14.0239   -0.9135 C   0  0  0  0  0  0  0  0  0  0  0  0
    7.8820   14.6776   -1.4776 H   0  0  0  0  0  0  0  0  0  0  0  0
    7.6739   13.1178   -1.1854 H   0  0  0  0  0  0  0  0  0  0  0  0
    7.6669   14.1666    0.0242 H   0  0  0  0  0  0  0  0  0  0  0  0
    4.7869   19.2289    1.7849 C   0  0  0  0  0  0  0  0  0  0  0  0
    3.9337   19.3856    1.3277 H   0  0  0  0  0  0  0  0  0  0  0  0
    5.3810   19.9943    1.6381 H   0  0  0  0  0  0  0  0  0  0  0  0
    4.6266   19.1194    2.7463 H   0  0  0  0  0  0  0  0  0  0  0  0
    3.8023   10.5038    3.8604 O   0  0  0  0  0  0  0  0  0  0  0  0
    4.2967   14.3525    1.3470 O   0  0  0  0  0  0  0  0  0  0  0  0
    6.0388    9.8108    5.6720 O   0  0  0  0  0  0  0  0  0  0  0  0
    6.2396   12.3371    2.3082 B   0  0  0  0  0  0  0  0  0  0  0  0
    6.1929   11.7620    1.5155 H   0  0  0  0  0  0  0  0  0  0  0  0
    6.3896   11.7851    3.1036 H   0  0  0  0  0  0  0  0  0  0  0  0
    6.9775   12.9740    2.2073 H   0  0  0  0  0  0  0  0  0  0  0  0
    5.8682    7.2134    7.0732 B   0  0  0  0  0  0  0  0  0  0  0  0
    6.8357    7.1764    7.2261 H   0  0  0  0  0  0  0  0  0  0  0  0
    5.5306    6.3087    6.9036 H   0  0  0  0  0  0  0  0  0  0  0  0
    5.4258    7.5846    7.8649 H   0  0  0  0  0  0  0  0  0  0  0  0
  1  4  1  0  0  0  0
  2  3  1  0  0  0  0
  3  8  4  0  0  0  0
  4  5  4  0  0  0  0
  5  6  4  0  0  0  0
  6  7  1  0  0  0  0
  7  8  4  0  0  0  0
  8101  1  0  0  0  0
  9 10  1  0  0  0  0
 11  4  4  0  0  0  0
 12 11  1  0  0  0  0
 13 14  1  0  0  0  0
 15  6  4  0  0  0  0
 16 15  1  0  0  0  0
 17  3  4  0  0  0  0
 18 17  1  0  0  0  0
 19  7  4  0  0  0  0
 20 19  1  0  0  0  0
 21  1  1  0  0  0  0
 22 21  4  0  0  0  0
 23 22  1  0  0  0  0
 24 22  4  0  0  0  0
 25 24  1  0  0  0  0
 26 21  4  0  0  0  0
 27 26  1  0  0  0  0
 28 24  4  0  0  0  0
 29 28  1  0  0  0  0
 30 26  4  0  0  0  0
 31 30  1  0  0  0  0
 32 33  1  0  0  0  0
 34 32  1  0  0  0  0
 35 34  1  0  0  0  0
 36 32  1  0  0  0  0
 37 36  1  0  0  0  0
 38 36  1  0  0  0  0
 39 34  1  0  0  0  0
 40 39  1  0  0  0  0
 41 39  1  0  0  0  0
 42 36  1  0  0  0  0
 43 42  1  0  0  0  0
 44 34  1  0  0  0  0
 45 44  1  0  0  0  0
 46 39  1  0  0  0  0
 47 46  1  0  0  0  0
 48 46  1  0  0  0  0
 49 44  1  0  0  0  0
 50 49  1  0  0  0  0
 51 49  1  0  0  0  0
 52 49  1  0  0  0  0
 53 44  1  0  0  0  0
 54 53  1  0  0  0  0
 55 53  1  0  0  0  0
 56 53  1  0  0  0  0
 57 42  1  0  0  0  0
 58 57  1  0  0  0  0
 59 57  1  0  0  0  0
 60 57  1  0  0  0  0
 61  2  1  0  0  0  0
 62 61  4  0  0  0  0
 63 62  1  0  0  0  0
 64 61  4  0  0  0  0
 65 64  1  0  0  0  0
 66 64  4  0  0  0  0
 67 66  1  0  0  0  0
 68 66  4  0  0  0  0
 69 68  1  0  0  0  0
 70 62  4  0  0  0  0
 71 70  1  0  0  0  0
 72 73  1  0  0  0  0
 74 72  1  0  0  0  0
 75 74  1  0  0  0  0
 76 77  1  0  0  0  0
 78 76  1  0  0  0  0
 79 74  1  0  0  0  0
 80 79  1  0  0  0  0
 81 79  1  0  0  0  0
 82 72  1  0  0  0  0
 83 82  1  0  0  0  0
 84 72  1  0  0  0  0
 85 84  1  0  0  0  0
 86 84  1  0  0  0  0
 87 76  1  0  0  0  0
 88 87  1  0  0  0  0
 89 82  1  0  0  0  0
 90 89  1  0  0  0  0
 91 89  1  0  0  0  0
 92 89  1  0  0  0  0
 93 82  1  0  0  0  0
 94 93  1  0  0  0  0
 95 93  1  0  0  0  0
 96 93  1  0  0  0  0
 97 87  1  0  0  0  0
 98 97  1  0  0  0  0
 99 97  1  0  0  0  0
100 97  1  0  0  0  0
101  5  1  0  0  0  0
102  2  1  0  0  0  0
103  1  1  0  0  0  0
104  2  1  0  0  0  0
105104  1  0  0  0  0
106104  1  0  0  0  0
107104  1  0  0  0  0
108  1  1  0  0  0  0
109108  1  0  0  0  0
110108  1  0  0  0  0
111108  1  0  0  0  0
  9 11  4  0  0  0  0
  9 15  4  0  0  0  0
 13 17  4  0  0  0  0
 13 19  4  0  0  0  0
 28 30  4  0  0  0  0
 32103  1  0  0  0  0
 42 46  1  0  0  0  0
 68 70  4  0  0  0  0
 74102  1  0  0  0  0
 76 84  1  0  0  0  0
 79 87  1  0  0  0  0
M  END
$$$$
DAQFEI

From CSD data. Using bond type 'Any'. No disordered atoms. Largest molecule.
 59 63  0  0  0  0  0  0  0  0999 V2000
    7.7958    0.7918   -0.9810 P   0  0  0  0  0  0  0  0  0  0  0  0
    3.9371   -0.8938    2.9278 P   0  0  0  0  0  0  0  0  0  0  0  0
    5.8833    1.1983    1.5109 O   0  0  0  0  0  0  0  0  0  0  0  0
    9.0937    1.0631   -2.3502 B   0  0  0  0  0  0  0  0  0  0  0  0
    8.7759    1.7540   -2.9691 H   0  0  0  0  0  0  0  0  0  0  0  0
    9.2324    0.2249   -2.8390 H   0  0  0  0  0  0  0  0  0  0  0  0
    9.9393    1.3496   -1.9469 H   0  0  0  0  0  0  0  0  0  0  0  0
    2.7034   -1.7031    4.1382 B   0  0  0  0  0  0  0  0  0  0  0  0
    1.8695   -1.1863    4.1482 H   0  0  0  0  0  0  0  0  0  0  0  0
    3.0895   -1.7165    5.0392 H   0  0  0  0  0  0  0  0  0  0  0  0
    2.5159   -2.6189    3.8502 H   0  0  0  0  0  0  0  0  0  0  0  0
    7.5049    2.2627    0.0288 C   0  0  0  0  0  0  0  0  0  0  0  0
    8.1396    3.4728   -0.2603 C   0  0  0  0  0  0  0  0  0  0  0  0
    8.7564    3.5186   -0.9814 H   0  0  0  0  0  0  0  0  0  0  0  0
    7.8799    4.6179    0.4957 C   0  0  0  0  0  0  0  0  0  0  0  0
    8.3267    5.4279    0.2771 H   0  0  0  0  0  0  0  0  0  0  0  0
    6.9965    4.6029    1.5466 C   0  0  0  0  0  0  0  0  0  0  0  0
    6.8289    5.3958    2.0443 H   0  0  0  0  0  0  0  0  0  0  0  0
    6.3456    3.4107    1.8754 C   0  0  0  0  0  0  0  0  0  0  0  0
    6.6206    2.2887    1.0827 C   0  0  0  0  0  0  0  0  0  0  0  0
    5.3826    2.9906    2.8598 C   0  0  0  0  0  0  0  0  0  0  0  0
    4.7427    3.5666    3.9455 C   0  0  0  0  0  0  0  0  0  0  0  0
    4.9000    4.4773    4.1690 H   0  0  0  0  0  0  0  0  0  0  0  0
    3.8802    2.8066    4.6925 C   0  0  0  0  0  0  0  0  0  0  0  0
    3.4474    3.2000    5.4405 H   0  0  0  0  0  0  0  0  0  0  0  0
    3.6185    1.4573    4.3816 C   0  0  0  0  0  0  0  0  0  0  0  0
    2.9945    0.9640    4.9011 H   0  0  0  0  0  0  0  0  0  0  0  0
    5.1373    1.6407    2.5986 C   0  0  0  0  0  0  0  0  0  0  0  0
    4.2738    0.8456    3.3148 C   0  0  0  0  0  0  0  0  0  0  0  0
    8.2811   -0.5133    0.1659 C   0  0  0  0  0  0  0  0  0  0  0  0
    9.1360   -0.2812    0.5841 H   0  0  0  0  0  0  0  0  0  0  0  0
    8.3746   -1.3576   -0.3208 H   0  0  0  0  0  0  0  0  0  0  0  0
    7.5952   -0.6105    0.8592 H   0  0  0  0  0  0  0  0  0  0  0  0
    3.3584   -0.9105    1.2258 C   0  0  0  0  0  0  0  0  0  0  0  0
    2.4621   -0.5141    1.1821 H   0  0  0  0  0  0  0  0  0  0  0  0
    3.3245   -1.8343    0.9010 H   0  0  0  0  0  0  0  0  0  0  0  0
    3.9720   -0.3883    0.6675 H   0  0  0  0  0  0  0  0  0  0  0  0
    6.1561    0.3655   -1.5864 C   0  0  0  0  0  0  0  0  0  0  0  0
    5.7316   -0.9613   -1.7294 C   0  0  0  0  0  0  0  0  0  0  0  0
    6.3024   -1.6736   -1.4652 H   0  0  0  0  0  0  0  0  0  0  0  0
    4.4903   -1.2318   -2.2529 C   0  0  0  0  0  0  0  0  0  0  0  0
    4.2210   -2.1369   -2.3701 H   0  0  0  0  0  0  0  0  0  0  0  0
    3.6298   -0.2169   -2.6115 C   0  0  0  0  0  0  0  0  0  0  0  0
    2.7600   -0.4070   -2.9413 H   0  0  0  0  0  0  0  0  0  0  0  0
    4.0694    1.0990   -2.4764 C   0  0  0  0  0  0  0  0  0  0  0  0
    3.4984    1.8155   -2.7307 H   0  0  0  0  0  0  0  0  0  0  0  0
    5.3106    1.3692   -1.9837 C   0  0  0  0  0  0  0  0  0  0  0  0
    5.5969    2.2735   -1.9152 H   0  0  0  0  0  0  0  0  0  0  0  0
    5.5673   -1.6798    2.9214 C   0  0  0  0  0  0  0  0  0  0  0  0
    6.5030   -1.3459    3.8859 C   0  0  0  0  0  0  0  0  0  0  0  0
    6.2918   -0.6828    4.5326 H   0  0  0  0  0  0  0  0  0  0  0  0
    7.7399   -1.9628    3.9217 C   0  0  0  0  0  0  0  0  0  0  0  0
    8.3813   -1.7165    4.5783 H   0  0  0  0  0  0  0  0  0  0  0  0
    8.0330   -2.9509    2.9770 C   0  0  0  0  0  0  0  0  0  0  0  0
    8.8834   -3.3767    2.9760 H   0  0  0  0  0  0  0  0  0  0  0  0
    7.0968   -3.2990    2.0642 C   0  0  0  0  0  0  0  0  0  0  0  0
    7.2942   -3.9953    1.4493 H   0  0  0  0  0  0  0  0  0  0  0  0
    5.8758   -2.6864    1.9956 C   0  0  0  0  0  0  0  0  0  0  0  0
    5.2462   -2.9375    1.3301 H   0  0  0  0  0  0  0  0  0  0  0  0
  1  4  1  0  0  0  0
  2  8  1  0  0  0  0
  3 20  1  0  0  0  0
  4  5  1  0  0  0  0
  6  4  1  0  0  0  0
  7  4  1  0  0  0  0
  8  9  1  0  0  0  0
 10  8  1  0  0  0  0
 11  8  1  0  0  0  0
 12  1  1  0  0  0  0
 13 12  4  0  0  0  0
 14 13  1  0  0  0  0
 15 13  4  0  0  0  0
 16 15  1  0  0  0  0
 17 15  4  0  0  0  0
 18 17  1  0  0  0  0
 19 17  4  0  0  0  0
 20 12  4  0  0  0  0
 21 19  1  0  0  0  0
 22 21  4  0  0  0  0
 23 22  1  0  0  0  0
 24 22  4  0  0  0  0
 25 24  1  0  0  0  0
 26 24  4  0  0  0  0
 27 26  1  0  0  0  0
 28  3  1  0  0  0  0
 29  2  1  0  0  0  0
 30  1  1  0  0  0  0
 31 30  1  0  0  0  0
 32 30  1  0  0  0  0
 33 30  1  0  0  0  0
 34  2  1  0  0  0  0
 35 34  1  0  0  0  0
 36 34  1  0  0  0  0
 37 34  1  0  0  0  0
 38  1  1  0  0  0  0
 39 38  4  0  0  0  0
 40 39  1  0  0  0  0
 41 39  4  0  0  0  0
 42 41  1  0  0  0  0
 43 41  4  0  0  0  0
 44 43  1  0  0  0  0
 45 43  4  0  0  0  0
 46 45  1  0  0  0  0
 47 38  4  0  0  0  0
 48 47  1  0  0  0  0
 49  2  1  0  0  0  0
 50 49  4  0  0  0  0
 51 50  1  0  0  0  0
 52 50  4  0  0  0  0
 53 52  1  0  0  0  0
 54 52  4  0  0  0  0
 55 54  1  0  0  0  0
 56 54  4  0  0  0  0
 57 56  1  0  0  0  0
 58 49  4  0  0  0  0
 59 58  1  0  0  0  0
 19 20  4  0  0  0  0
 21 28  4  0  0  0  0
 26 29  4  0  0  0  0
 28 29  4  0  0  0  0
 45 47  4  0  0  0  0
 56 58  4  0  0  0  0
M  END
$$$$
DAQGOT

From CSD data. Using bond type 'Any'. No disordered atoms. Largest molecule.
 85 90  0  0  0  0  0  0  0  0999 V2000
   -0.1116    3.9880    5.0865 P   0  0  0  0  0  0  0  0  0  0  0  0
    1.2264    0.8887    0.2141 P   0  0  0  0  0  0  0  0  0  0  0  0
    0.6058    1.3426    3.3698 O   0  0  0  0  0  0  0  0  0  0  0  0
    0.2705    4.7458    6.4459 O   0  0  0  0  0  0  0  0  0  0  0  0
   -1.8630    4.2997    4.4287 B   0  0  0  0  0  0  0  0  0  0  0  0
   -2.5147    4.1283    5.1401 H   0  0  0  0  0  0  0  0  0  0  0  0
   -2.0390    3.7020    3.6723 H   0  0  0  0  0  0  0  0  0  0  0  0
   -1.9402    5.2316    4.1330 H   0  0  0  0  0  0  0  0  0  0  0  0
    2.1610    2.2809    0.8665 B   0  0  0  0  0  0  0  0  0  0  0  0
    1.7011    2.6423    1.6522 H   0  0  0  0  0  0  0  0  0  0  0  0
    2.2317    2.9768    0.1797 H   0  0  0  0  0  0  0  0  0  0  0  0
    3.0578    1.9809    1.1213 H   0  0  0  0  0  0  0  0  0  0  0  0
    0.1294    2.2724    5.6025 C   0  0  0  0  0  0  0  0  0  0  0  0
   -0.0949    1.9104    6.9336 C   0  0  0  0  0  0  0  0  0  0  0  0
   -0.2844    2.5909    7.5684 H   0  0  0  0  0  0  0  0  0  0  0  0
   -0.0500    0.5818    7.3620 C   0  0  0  0  0  0  0  0  0  0  0  0
   -0.2150    0.3781    8.2755 H   0  0  0  0  0  0  0  0  0  0  0  0
    0.2316   -0.4429    6.4753 C   0  0  0  0  0  0  0  0  0  0  0  0
    0.2616   -1.3460    6.7673 H   0  0  0  0  0  0  0  0  0  0  0  0
    0.4704   -0.1147    5.1420 C   0  0  0  0  0  0  0  0  0  0  0  0
    0.3920    1.2218    4.7385 C   0  0  0  0  0  0  0  0  0  0  0  0
    0.7706   -0.8727    3.9521 C   0  0  0  0  0  0  0  0  0  0  0  0
    0.9804   -2.2313    3.6743 C   0  0  0  0  0  0  0  0  0  0  0  0
    0.9555   -2.8803    4.3687 H   0  0  0  0  0  0  0  0  0  0  0  0
    1.2226   -2.6016    2.3692 C   0  0  0  0  0  0  0  0  0  0  0  0
    1.3612   -3.5183    2.1629 H   0  0  0  0  0  0  0  0  0  0  0  0
    1.2699   -1.6532    1.3426 C   0  0  0  0  0  0  0  0  0  0  0  0
    1.4356   -1.9451    0.4535 H   0  0  0  0  0  0  0  0  0  0  0  0
    1.0808   -0.2869    1.5842 C   0  0  0  0  0  0  0  0  0  0  0  0
    0.8295    0.0524    2.9077 C   0  0  0  0  0  0  0  0  0  0  0  0
    2.1156    0.1651   -1.3247 C   0  0  0  0  0  0  0  0  0  0  0  0
    1.6238   -0.6178   -1.6475 H   0  0  0  0  0  0  0  0  0  0  0  0
    3.0278   -0.0996   -1.0809 H   0  0  0  0  0  0  0  0  0  0  0  0
    2.1505    0.8434   -2.0308 H   0  0  0  0  0  0  0  0  0  0  0  0
   -0.4539    1.4805   -0.1250 C   0  0  0  0  0  0  0  0  0  0  0  0
   -1.1715    2.2733    0.7695 C   0  0  0  0  0  0  0  0  0  0  0  0
   -0.7706    2.5567    1.5832 H   0  0  0  0  0  0  0  0  0  0  0  0
   -2.4851    2.6516    0.4641 C   0  0  0  0  0  0  0  0  0  0  0  0
   -2.9770    3.1884    1.0749 H   0  0  0  0  0  0  0  0  0  0  0  0
   -3.0619    2.2515   -0.7089 C   0  0  0  0  0  0  0  0  0  0  0  0
   -3.9585    2.4975   -0.9035 H   0  0  0  0  0  0  0  0  0  0  0  0
   -2.3457    1.4928   -1.6089 C   0  0  0  0  0  0  0  0  0  0  0  0
   -2.7460    1.2309   -2.4296 H   0  0  0  0  0  0  0  0  0  0  0  0
   -1.0518    1.1117   -1.3233 C   0  0  0  0  0  0  0  0  0  0  0  0
   -0.5651    0.5929   -1.9522 H   0  0  0  0  0  0  0  0  0  0  0  0
    1.2036    4.3912    3.9171 C   0  0  0  0  0  0  0  0  0  0  0  0
    0.9014    5.1323    2.7723 C   0  0  0  0  0  0  0  0  0  0  0  0
   -0.0026    5.3312    2.5593 H   0  0  0  0  0  0  0  0  0  0  0  0
    1.9235    5.5764    1.9469 C   0  0  0  0  0  0  0  0  0  0  0  0
    1.7152    6.0750    1.1654 H   0  0  0  0  0  0  0  0  0  0  0  0
    3.2436    5.2993    2.2539 C   0  0  0  0  0  0  0  0  0  0  0  0
    3.9412    5.6284    1.6987 H   0  0  0  0  0  0  0  0  0  0  0  0
    3.5467    4.5376    3.3770 C   0  0  0  0  0  0  0  0  0  0  0  0
    4.4509    4.3228    3.5735 H   0  0  0  0  0  0  0  0  0  0  0  0
    2.5329    4.0894    4.2101 C   0  0  0  0  0  0  0  0  0  0  0  0
    2.7440    3.5759    4.9817 H   0  0  0  0  0  0  0  0  0  0  0  0
   -0.3170    6.0635    6.7361 C   0  0  0  0  0  0  0  0  0  0  0  0
   -1.3078    6.0159    6.6078 H   0  0  0  0  0  0  0  0  0  0  0  0
    0.2578    7.1131    5.8006 C   0  0  0  0  0  0  0  0  0  0  0  0
    0.0280    6.8811    4.8663 H   0  0  0  0  0  0  0  0  0  0  0  0
    1.2445    7.1192    5.8805 H   0  0  0  0  0  0  0  0  0  0  0  0
   -0.2868    8.5042    6.1269 C   0  0  0  0  0  0  0  0  0  0  0  0
   -1.2771    8.4947    5.9900 H   0  0  0  0  0  0  0  0  0  0  0  0
   -0.0095    8.8253    7.5911 C   0  0  0  0  0  0  0  0  0  0  0  0
    0.9687    8.8822    7.7351 H   0  0  0  0  0  0  0  0  0  0  0  0
   -0.4020    9.7054    7.8137 H   0  0  0  0  0  0  0  0  0  0  0  0
   -0.5942    7.7629    8.5131 C   0  0  0  0  0  0  0  0  0  0  0  0
   -1.5787    7.7400    8.4053 H   0  0  0  0  0  0  0  0  0  0  0  0
   -0.3955    7.9984    9.4540 H   0  0  0  0  0  0  0  0  0  0  0  0
   -0.0156    6.3758    8.2026 C   0  0  0  0  0  0  0  0  0  0  0  0
    0.9782    6.4500    8.2862 H   0  0  0  0  0  0  0  0  0  0  0  0
   -0.4635    5.2525    9.1621 C   0  0  0  0  0  0  0  0  0  0  0  0
    0.0937    4.4473    8.9600 H   0  0  0  0  0  0  0  0  0  0  0  0
   -0.2076    5.6303   10.6262 C   0  0  0  0  0  0  0  0  0  0  0  0
   -0.8583    6.3069   10.9075 H   0  0  0  0  0  0  0  0  0  0  0  0
    0.6986    5.9910   10.7170 H   0  0  0  0  0  0  0  0  0  0  0  0
   -0.3000    4.8332   11.1896 H   0  0  0  0  0  0  0  0  0  0  0  0
   -1.9238    4.8494    8.9969 C   0  0  0  0  0  0  0  0  0  0  0  0
   -2.1348    4.1237    9.6207 H   0  0  0  0  0  0  0  0  0  0  0  0
   -2.0769    4.5454    8.0779 H   0  0  0  0  0  0  0  0  0  0  0  0
   -2.4989    5.6206    9.1862 H   0  0  0  0  0  0  0  0  0  0  0  0
    0.3177    9.5428    5.1814 C   0  0  0  0  0  0  0  0  0  0  0  0
    0.0226   10.4383    5.4472 H   0  0  0  0  0  0  0  0  0  0  0  0
    0.0235    9.3599    4.2651 H   0  0  0  0  0  0  0  0  0  0  0  0
    1.2960    9.4953    5.2258 H   0  0  0  0  0  0  0  0  0  0  0  0
  1  4  1  0  0  0  0
  2  9  1  0  0  0  0
  3 21  1  0  0  0  0
  4 57  1  0  0  0  0
  5  1  1  0  0  0  0
  6  5  1  0  0  0  0
  7  5  1  0  0  0  0
  8  5  1  0  0  0  0
  9 10  1  0  0  0  0
 11  9  1  0  0  0  0
 12  9  1  0  0  0  0
 13  1  1  0  0  0  0
 14 13  4  0  0  0  0
 15 14  1  0  0  0  0
 16 14  4  0  0  0  0
 17 16  1  0  0  0  0
 18 16  4  0  0  0  0
 19 18  1  0  0  0  0
 20 18  4  0  0  0  0
 21 13  4  0  0  0  0
 22 20  1  0  0  0  0
 23 22  4  0  0  0  0
 24 23  1  0  0  0  0
 25 23  4  0  0  0  0
 26 25  1  0  0  0  0
 27 25  4  0  0  0  0
 28 27  1  0  0  0  0
 29  2  1  0  0  0  0
 30  3  1  0  0  0  0
 31  2  1  0  0  0  0
 32 31  1  0  0  0  0
 33 31  1  0  0  0  0
 34 31  1  0  0  0  0
 35  2  1  0  0  0  0
 36 35  4  0  0  0  0
 37 36  1  0  0  0  0
 38 36  4  0  0  0  0
 39 38  1  0  0  0  0
 40 38  4  0  0  0  0
 41 40  1  0  0  0  0
 42 40  4  0  0  0  0
 43 42  1  0  0  0  0
 44 35  4  0  0  0  0
 45 44  1  0  0  0  0
 46  1  1  0  0  0  0
 47 46  4  0  0  0  0
 48 47  1  0  0  0  0
 49 47  4  0  0  0  0
 50 49  1  0  0  0  0
 51 49  4  0  0  0  0
 52 51  1  0  0  0  0
 53 51  4  0  0  0  0
 54 53  1  0  0  0  0
 55 46  4  0  0  0  0
 56 55  1  0  0  0  0
 57 58  1  0  0  0  0
 59 57  1  0  0  0  0
 60 59  1  0  0  0  0
 61 59  1  0  0  0  0
 62 59  1  0  0  0  0
 63 62  1  0  0  0  0
 64 62  1  0  0  0  0
 65 64  1  0  0  0  0
 66 64  1  0  0  0  0
 67 64  1  0  0  0  0
 68 67  1  0  0  0  0
 69 67  1  0  0  0  0
 70 57  1  0  0  0  0
 71 70  1  0  0  0  0
 72 70  1  0  0  0  0
 73 72  1  0  0  0  0
 74 72  1  0  0  0  0
 75 74  1  0  0  0  0
 76 74  1  0  0  0  0
 77 74  1  0  0  0  0
 78 72  1  0  0  0  0
 79 78  1  0  0  0  0
 80 78  1  0  0  0  0
 81 78  1  0  0  0  0
 82 62  1  0  0  0  0
 83 82  1  0  0  0  0
 84 82  1  0  0  0  0
 85 82  1  0  0  0  0
 20 21  4  0  0  0  0
 22 30  4  0  0  0  0
 27 29  4  0  0  0  0
 29 30  4  0  0  0  0
 42 44  4  0  0  0  0
 53 55  4  0  0  0  0
 67 70  1  0  0  0  0
M  END
$$$$
DEBYUF

From CSD data. Using bond type 'Any'. No disordered atoms. Largest molecule.
 96116  0  0  0  0  0  0  0  0999 V2000
    2.3116    5.5296    4.6605 Pt  0  0  0  0  0  0  0  0  0  0  0  0
    1.2284    4.8322    7.8366 B   0  0  0  0  0  0  0  0  0  0  0  0
    0.3259    4.6841    8.4479 H   0  0  0  0  0  0  0  0  0  0  0  0
    1.2541    4.2620    6.1531 B   0  0  0  0  0  0  0  0  0  0  0  0
    0.3800    3.7886    5.6805 H   0  0  0  0  0  0  0  0  0  0  0  0
    1.2830    6.0402    6.5599 B   0  0  0  0  0  0  0  0  0  0  0  0
    0.4068    6.6707    6.3435 H   0  0  0  0  0  0  0  0  0  0  0  0
    2.1960    6.2961    8.0388 B   0  0  0  0  0  0  0  0  0  0  0  0
    1.9254    7.0692    8.7747 H   0  0  0  0  0  0  0  0  0  0  0  0
    2.8201    4.7225    8.4878 B   0  0  0  0  0  0  0  0  0  0  0  0
    2.9976    4.5032    9.5506 H   0  0  0  0  0  0  0  0  0  0  0  0
    2.2045    3.4578    7.4369 B   0  0  0  0  0  0  0  0  0  0  0  0
    1.9368    2.4545    7.8036 H   0  0  0  0  0  0  0  0  0  0  0  0
    2.8972    6.7987    6.4964 B   0  0  0  0  0  0  0  0  0  0  0  0
    3.4090    7.6887    6.0990 H   0  0  0  0  0  0  0  0  0  0  0  0
    3.8855    5.8684    7.7355 B   0  0  0  0  0  0  0  0  0  0  0  0
    4.8907    6.2961    7.8648 H   0  0  0  0  0  0  0  0  0  0  0  0
    3.9194    3.9860    7.3522 B   0  0  0  0  0  0  0  0  0  0  0  0
    4.9337    3.5638    7.3169 H   0  0  0  0  0  0  0  0  0  0  0  0
    2.9282    3.5693    5.8122 B   0  0  0  0  0  0  0  0  0  0  0  0
    3.2239    2.5897    4.9258 O   0  0  0  0  0  0  0  0  0  0  0  0
    3.4421    7.2790    3.5235 P   0  0  0  0  0  0  0  0  0  0  0  0
    1.5512    4.2607    2.8137 P   0  0  0  0  0  0  0  0  0  0  0  0
    5.1397    7.3744    4.2345 C   0  0  0  0  0  0  0  0  0  0  0  0
    5.8421    8.5568    4.4085 C   0  0  0  0  0  0  0  0  0  0  0  0
    5.4259    9.3610    4.1969 H   0  0  0  0  0  0  0  0  0  0  0  0
    5.7817    6.1755    4.5355 C   0  0  0  0  0  0  0  0  0  0  0  0
    5.3401    5.3677    4.4038 H   0  0  0  0  0  0  0  0  0  0  0  0
    7.0634    6.1828    5.0222 C   0  0  0  0  0  0  0  0  0  0  0  0
    7.4929    5.3859    5.2314 H   0  0  0  0  0  0  0  0  0  0  0  0
    7.7167    7.4091    5.1985 C   0  0  0  0  0  0  0  0  0  0  0  0
    8.5805    7.4109    5.5441 H   0  0  0  0  0  0  0  0  0  0  0  0
    7.1372    8.5861    4.8881 C   0  0  0  0  0  0  0  0  0  0  0  0
    7.5938    9.3884    4.9940 H   0  0  0  0  0  0  0  0  0  0  0  0
    2.6453    8.9114    3.7008 C   0  0  0  0  0  0  0  0  0  0  0  0
    1.4697    9.0740    4.4391 C   0  0  0  0  0  0  0  0  0  0  0  0
    1.0991    8.3393    4.8740 H   0  0  0  0  0  0  0  0  0  0  0  0
    0.8508   10.2985    4.5331 C   0  0  0  0  0  0  0  0  0  0  0  0
    0.0451   10.3789    4.9893 H   0  0  0  0  0  0  0  0  0  0  0  0
    1.4266   11.4097    3.9430 C   0  0  0  0  0  0  0  0  0  0  0  0
    1.0355   12.2486    4.0464 H   0  0  0  0  0  0  0  0  0  0  0  0
    2.5744   11.2726    3.2094 C   0  0  0  0  0  0  0  0  0  0  0  0
    2.9583   12.0220    2.8144 H   0  0  0  0  0  0  0  0  0  0  0  0
    3.1827   10.0079    3.0472 C   0  0  0  0  0  0  0  0  0  0  0  0
    3.9342    9.9129    2.5064 H   0  0  0  0  0  0  0  0  0  0  0  0
    3.7928    7.2866    1.7211 C   0  0  0  0  0  0  0  0  0  0  0  0
    2.8142    7.6576    0.8370 C   0  0  0  0  0  0  0  0  0  0  0  0
    1.9883    7.9373    1.1591 H   0  0  0  0  0  0  0  0  0  0  0  0
    3.0392    7.6229   -0.5478 C   0  0  0  0  0  0  0  0  0  0  0  0
    2.3716    7.8824   -1.1403 H   0  0  0  0  0  0  0  0  0  0  0  0
    4.2129    7.2172   -0.9969 C   0  0  0  0  0  0  0  0  0  0  0  0
    4.3457    7.1587   -1.9162 H   0  0  0  0  0  0  0  0  0  0  0  0
    5.2416    6.8773   -0.1575 C   0  0  0  0  0  0  0  0  0  0  0  0
    6.0712    6.6378   -0.5032 H   0  0  0  0  0  0  0  0  0  0  0  0
    5.0328    6.8955    1.1921 C   0  0  0  0  0  0  0  0  0  0  0  0
    5.7203    6.6452    1.7658 H   0  0  0  0  0  0  0  0  0  0  0  0
    0.6089    5.4024    1.7422 C   0  0  0  0  0  0  0  0  0  0  0  0
   -0.1517    6.3856    2.3630 C   0  0  0  0  0  0  0  0  0  0  0  0
   -0.1303    6.4660    3.2893 H   0  0  0  0  0  0  0  0  0  0  0  0
   -0.9425    7.2483    1.6223 C   0  0  0  0  0  0  0  0  0  0  0  0
   -1.4531    7.8934    2.0550 H   0  0  0  0  0  0  0  0  0  0  0  0
   -0.9766    7.1569    0.2516 C   0  0  0  0  0  0  0  0  0  0  0  0
   -1.5331    7.7143   -0.2422 H   0  0  0  0  0  0  0  0  0  0  0  0
   -0.1695    6.2193   -0.3879 C   0  0  0  0  0  0  0  0  0  0  0  0
   -0.1233    6.2010   -1.3167 H   0  0  0  0  0  0  0  0  0  0  0  0
    0.5789    5.3000    0.3738 C   0  0  0  0  0  0  0  0  0  0  0  0
    1.0524    4.6220   -0.0494 H   0  0  0  0  0  0  0  0  0  0  0  0
    2.7404    3.4103    1.7258 C   0  0  0  0  0  0  0  0  0  0  0  0
    4.0778    3.7904    1.7752 C   0  0  0  0  0  0  0  0  0  0  0  0
    4.3606    4.4338    2.3818 H   0  0  0  0  0  0  0  0  0  0  0  0
    4.9824    3.2020    0.9123 C   0  0  0  0  0  0  0  0  0  0  0  0
    5.8738    3.4670    0.9240 H   0  0  0  0  0  0  0  0  0  0  0  0
    4.5781    2.2370    0.0447 C   0  0  0  0  0  0  0  0  0  0  0  0
    5.1962    1.8294   -0.5196 H   0  0  0  0  0  0  0  0  0  0  0  0
    3.2836    1.8733   -0.0024 C   0  0  0  0  0  0  0  0  0  0  0  0
    3.0203    1.2190   -0.6090 H   0  0  0  0  0  0  0  0  0  0  0  0
    2.3297    2.4417    0.8300 C   0  0  0  0  0  0  0  0  0  0  0  0
    1.4391    2.1785    0.7830 H   0  0  0  0  0  0  0  0  0  0  0  0
    0.2925    2.9753    3.1459 C   0  0  0  0  0  0  0  0  0  0  0  0
   -1.0759    3.2952    3.1083 C   0  0  0  0  0  0  0  0  0  0  0  0
   -1.3515    4.1633    2.9202 H   0  0  0  0  0  0  0  0  0  0  0  0
   -1.9951    2.3119    3.3575 C   0  0  0  0  0  0  0  0  0  0  0  0
   -2.8987    2.5221    3.3011 H   0  0  0  0  0  0  0  0  0  0  0  0
   -1.6411    1.0253    3.6843 C   0  0  0  0  0  0  0  0  0  0  0  0
   -2.2825    0.3765    3.8630 H   0  0  0  0  0  0  0  0  0  0  0  0
   -0.3151    0.7420    3.7384 C   0  0  0  0  0  0  0  0  0  0  0  0
   -0.0565   -0.1243    3.9547 H   0  0  0  0  0  0  0  0  0  0  0  0
    0.6779    1.6832    3.4845 C   0  0  0  0  0  0  0  0  0  0  0  0
    1.5765    1.4529    3.5386 H   0  0  0  0  0  0  0  0  0  0  0  0
    4.5256    2.0469    4.8435 C   0  0  0  0  0  0  0  0  0  0  0  0
    4.8232    1.7728    5.7252 H   0  0  0  0  0  0  0  0  0  0  0  0
    5.1412    2.7176    4.5096 H   0  0  0  0  0  0  0  0  0  0  0  0
    4.5115    0.8517    3.9124 C   0  0  0  0  0  0  0  0  0  0  0  0
    5.3943    0.4788    3.8583 H   0  0  0  0  0  0  0  0  0  0  0  0
    4.2270    1.1295    3.0401 H   0  0  0  0  0  0  0  0  0  0  0  0
    3.9050    0.1882    4.2510 H   0  0  0  0  0  0  0  0  0  0  0  0
  1  4  1  0  0  0  0
  2  3  1  0  0  0  0
  4  2  1  0  0  0  0
  5  4  1  0  0  0  0
  6  1  1  0  0  0  0
  7  6  1  0  0  0  0
  8  2  1  0  0  0  0
  9  8  1  0  0  0  0
 10  2  1  0  0  0  0
 11 10  1  0  0  0  0
 12  2  1  0  0  0  0
 13 12  1  0  0  0  0
 14  1  1  0  0  0  0
 15 14  1  0  0  0  0
 16  8  1  0  0  0  0
 17 16  1  0  0  0  0
 18 10  1  0  0  0  0
 19 18  1  0  0  0  0
 20  1  1  0  0  0  0
 21 20  1  0  0  0  0
 22  1  1  0  0  0  0
 23  1  1  0  0  0  0
 24 22  1  0  0  0  0
 25 24  4  0  0  0  0
 26 25  1  0  0  0  0
 27 24  4  0  0  0  0
 28 27  1  0  0  0  0
 29 27  4  0  0  0  0
 30 29  1  0  0  0  0
 31 29  4  0  0  0  0
 32 31  1  0  0  0  0
 33 25  4  0  0  0  0
 34 33  1  0  0  0  0
 35 22  1  0  0  0  0
 36 35  4  0  0  0  0
 37 36  1  0  0  0  0
 38 36  4  0  0  0  0
 39 38  1  0  0  0  0
 40 38  4  0  0  0  0
 41 40  1  0  0  0  0
 42 40  4  0  0  0  0
 43 42  1  0  0  0  0
 44 35  4  0  0  0  0
 45 44  1  0  0  0  0
 46 22  1  0  0  0  0
 47 46  4  0  0  0  0
 48 47  1  0  0  0  0
 49 47  4  0  0  0  0
 50 49  1  0  0  0  0
 51 49  4  0  0  0  0
 52 51  1  0  0  0  0
 53 51  4  0  0  0  0
 54 53  1  0  0  0  0
 55 46  4  0  0  0  0
 56 55  1  0  0  0  0
 57 23  1  0  0  0  0
 58 57  4  0  0  0  0
 59 58  1  0  0  0  0
 60 58  4  0  0  0  0
 61 60  1  0  0  0  0
 62 60  4  0  0  0  0
 63 62  1  0  0  0  0
 64 62  4  0  0  0  0
 65 64  1  0  0  0  0
 66 57  4  0  0  0  0
 67 66  1  0  0  0  0
 68 23  1  0  0  0  0
 69 68  4  0  0  0  0
 70 69  1  0  0  0  0
 71 69  4  0  0  0  0
 72 71  1  0  0  0  0
 73 71  4  0  0  0  0
 74 73  1  0  0  0  0
 75 73  4  0  0  0  0
 76 75  1  0  0  0  0
 77 68  4  0  0  0  0
 78 77  1  0  0  0  0
 79 23  1  0  0  0  0
 80 79  4  0  0  0  0
 81 80  1  0  0  0  0
 82 80  4  0  0  0  0
 83 82  1  0  0  0  0
 84 82  4  0  0  0  0
 85 84  1  0  0  0  0
 86 84  4  0  0  0  0
 87 86  1  0  0  0  0
 88 79  4  0  0  0  0
 89 88  1  0  0  0  0
 90 21  1  0  0  0  0
 91 90  1  0  0  0  0
 92 90  1  0  0  0  0
 93 90  1  0  0  0  0
 94 93  1  0  0  0  0
 95 93  1  0  0  0  0
 96 93  1  0  0  0  0
  2  6  1  0  0  0  0
  4  6  1  0  0  0  0
  4 12  1  0  0  0  0
  4 20  1  0  0  0  0
  6  8  1  0  0  0  0
  6 14  1  0  0  0  0
  8 10  1  0  0  0  0
  8 14  1  0  0  0  0
 10 12  1  0  0  0  0
 10 16  1  0  0  0  0
 12 18  1  0  0  0  0
 12 20  1  0  0  0  0
 14 16  1  0  0  0  0
 16 18  1  0  0  0  0
 18 20  1  0  0  0  0
 31 33  4  0  0  0  0
 42 44  4  0  0  0  0
 53 55  4  0  0  0  0
 64 66  4  0  0  0  0
 75 77  4  0  0  0  0
 86 88  4  0  0  0  0
M  END
$$$$
DEBZAM

From CSD data. Using bond type 'Any'. No disordered atoms. Largest molecule.
103123  0  0  0  0  0  0  0  0999 V2000
    6.8149    3.4418    4.0031 Pt  0  0  0  0  0  0  0  0  0  0  0  0
    4.3251    5.6590    3.1684 B   0  0  0  0  0  0  0  0  0  0  0  0
    3.9268    6.2836    2.3542 H   0  0  0  0  0  0  0  0  0  0  0  0
    5.0113    4.0918    2.8379 B   0  0  0  0  0  0  0  0  0  0  0  0
    5.0816    3.7256    1.8022 H   0  0  0  0  0  0  0  0  0  0  0  0
    6.0973    5.4741    3.4001 B   0  0  0  0  0  0  0  0  0  0  0  0
    6.8306    5.9495    2.7323 H   0  0  0  0  0  0  0  0  0  0  0  0
    5.1450    6.4374    4.5380 B   0  0  0  0  0  0  0  0  0  0  0  0
    5.2438    7.5315    4.5925 H   0  0  0  0  0  0  0  0  0  0  0  0
    3.5832    5.5717    4.7526 B   0  0  0  0  0  0  0  0  0  0  0  0
    2.6861    6.1538    5.0183 H   0  0  0  0  0  0  0  0  0  0  0  0
    3.4531    4.2043    3.6249 B   0  0  0  0  0  0  0  0  0  0  0  0
    2.5199    3.9231    3.1139 H   0  0  0  0  0  0  0  0  0  0  0  0
    6.4553    5.4236    5.1819 B   0  0  0  0  0  0  0  0  0  0  0  0
    4.8018    5.4053    6.0166 B   0  0  0  0  0  0  0  0  0  0  0  0
    4.8974    5.4420    7.1136 H   0  0  0  0  0  0  0  0  0  0  0  0
    3.6401    3.9380    5.3999 B   0  0  0  0  0  0  0  0  0  0  0  0
    4.5580    2.9242    4.1326 B   0  0  0  0  0  0  0  0  0  0  0  0
    4.5013    1.8427    4.3268 H   0  0  0  0  0  0  0  0  0  0  0  0
    7.5976    5.7933    5.7713 O   0  0  0  0  0  0  0  0  0  0  0  0
    2.7145    3.4753    6.3062 O   0  0  0  0  0  0  0  0  0  0  0  0
    7.1116    1.0971    4.4099 P   0  0  0  0  0  0  0  0  0  0  0  0
    9.0758    4.0399    3.7282 P   0  0  0  0  0  0  0  0  0  0  0  0
    5.9582    0.4455    5.6793 C   0  0  0  0  0  0  0  0  0  0  0  0
    5.7620    1.1642    6.8410 C   0  0  0  0  0  0  0  0  0  0  0  0
    6.1395    2.0103    6.9194 H   0  0  0  0  0  0  0  0  0  0  0  0
    5.0209    0.6556    7.8835 C   0  0  0  0  0  0  0  0  0  0  0  0
    4.9130    1.1504    8.6637 H   0  0  0  0  0  0  0  0  0  0  0  0
    4.4335   -0.5947    7.7677 C   0  0  0  0  0  0  0  0  0  0  0  0
    3.9248   -0.9437    8.4627 H   0  0  0  0  0  0  0  0  0  0  0  0
    4.6181   -1.3088    6.6060 C   0  0  0  0  0  0  0  0  0  0  0  0
    4.2233   -2.1458    6.5242 H   0  0  0  0  0  0  0  0  0  0  0  0
    5.3787   -0.8163    5.5600 C   0  0  0  0  0  0  0  0  0  0  0  0
    5.5007   -1.3203    4.7867 H   0  0  0  0  0  0  0  0  0  0  0  0
    8.7172    0.4317    4.9707 C   0  0  0  0  0  0  0  0  0  0  0  0
    8.9242    0.1561    6.3232 C   0  0  0  0  0  0  0  0  0  0  0  0
    8.2305    0.2503    6.9364 H   0  0  0  0  0  0  0  0  0  0  0  0
   10.2003   -0.2664    6.7456 C   0  0  0  0  0  0  0  0  0  0  0  0
   10.3464   -0.4879    7.6382 H   0  0  0  0  0  0  0  0  0  0  0  0
   11.2238   -0.3513    5.8360 C   0  0  0  0  0  0  0  0  0  0  0  0
   12.0706   -0.6142    6.1154 H   0  0  0  0  0  0  0  0  0  0  0  0
   11.0146   -0.0540    4.5209 C   0  0  0  0  0  0  0  0  0  0  0  0
   11.7201   -0.1068    3.9145 H   0  0  0  0  0  0  0  0  0  0  0  0
    9.7624    0.3261    4.0883 C   0  0  0  0  0  0  0  0  0  0  0  0
    9.6253    0.5132    3.1888 H   0  0  0  0  0  0  0  0  0  0  0  0
    6.7989    0.1206    2.8822 C   0  0  0  0  0  0  0  0  0  0  0  0
    6.2306    0.7003    1.7852 C   0  0  0  0  0  0  0  0  0  0  0  0
    5.9483    1.5855    1.8261 H   0  0  0  0  0  0  0  0  0  0  0  0
    6.0696   -0.0195    0.5996 C   0  0  0  0  0  0  0  0  0  0  0  0
    5.6911    0.3915   -0.1431 H   0  0  0  0  0  0  0  0  0  0  0  0
    6.4716   -1.3398    0.5213 C   0  0  0  0  0  0  0  0  0  0  0  0
    6.3705   -1.8174   -0.2691 H   0  0  0  0  0  0  0  0  0  0  0  0
    7.0235   -1.9391    1.6421 C   0  0  0  0  0  0  0  0  0  0  0  0
    7.2668   -2.8358    1.6081 H   0  0  0  0  0  0  0  0  0  0  0  0
    7.2198   -1.2170    2.8175 C   0  0  0  0  0  0  0  0  0  0  0  0
    7.6268   -1.6165    3.5500 H   0  0  0  0  0  0  0  0  0  0  0  0
    9.7104    3.0562    2.3167 C   0  0  0  0  0  0  0  0  0  0  0  0
    8.8100    2.8014    1.2878 C   0  0  0  0  0  0  0  0  0  0  0  0
    7.9389    3.1251    1.3389 H   0  0  0  0  0  0  0  0  0  0  0  0
    9.2144    2.0597    0.1772 C   0  0  0  0  0  0  0  0  0  0  0  0
    8.6020    1.8634   -0.4940 H   0  0  0  0  0  0  0  0  0  0  0  0
   10.4815    1.6269    0.0750 C   0  0  0  0  0  0  0  0  0  0  0  0
   10.7474    1.1389   -0.6712 H   0  0  0  0  0  0  0  0  0  0  0  0
   11.3864    1.9024    1.0664 C   0  0  0  0  0  0  0  0  0  0  0  0
   12.2621    1.6005    0.9846 H   0  0  0  0  0  0  0  0  0  0  0  0
   11.0112    2.6246    2.1872 C   0  0  0  0  0  0  0  0  0  0  0  0
   11.6359    2.8163    2.8482 H   0  0  0  0  0  0  0  0  0  0  0  0
   10.2172    3.8324    5.1342 C   0  0  0  0  0  0  0  0  0  0  0  0
    9.7382    3.4087    6.3538 C   0  0  0  0  0  0  0  0  0  0  0  0
    8.8429    3.1688    6.4390 H   0  0  0  0  0  0  0  0  0  0  0  0
   10.5625    3.3364    7.4509 C   0  0  0  0  0  0  0  0  0  0  0  0
   10.2274    3.0448    8.2651 H   0  0  0  0  0  0  0  0  0  0  0  0
   11.8791    3.6923    7.3453 C   0  0  0  0  0  0  0  0  0  0  0  0
   12.4375    3.6441    8.0880 H   0  0  0  0  0  0  0  0  0  0  0  0
   12.3616    4.1136    6.1597 C   0  0  0  0  0  0  0  0  0  0  0  0
   13.2584    4.3513    6.0847 H   0  0  0  0  0  0  0  0  0  0  0  0
   11.5427    4.1963    5.0524 C   0  0  0  0  0  0  0  0  0  0  0  0
   11.8895    4.5017    4.2450 H   0  0  0  0  0  0  0  0  0  0  0  0
    9.4992    5.7428    3.1786 C   0  0  0  0  0  0  0  0  0  0  0  0
    9.8328    6.7267    4.1223 C   0  0  0  0  0  0  0  0  0  0  0  0
    9.8193    6.5269    5.0320 H   0  0  0  0  0  0  0  0  0  0  0  0
   10.1723    7.9598    3.7033 C   0  0  0  0  0  0  0  0  0  0  0  0
   10.3754    8.6050    4.3404 H   0  0  0  0  0  0  0  0  0  0  0  0
   10.2337    8.3065    2.3780 C   0  0  0  0  0  0  0  0  0  0  0  0
   10.4669    9.1687    2.1191 H   0  0  0  0  0  0  0  0  0  0  0  0
    9.9416    7.3352    1.4343 C   0  0  0  0  0  0  0  0  0  0  0  0
    9.9897    7.5304    0.5247 H   0  0  0  0  0  0  0  0  0  0  0  0
    9.5837    6.0838    1.8533 C   0  0  0  0  0  0  0  0  0  0  0  0
    9.3852    5.4374    1.2163 H   0  0  0  0  0  0  0  0  0  0  0  0
    7.6419    6.4512    7.0523 C   0  0  0  0  0  0  0  0  0  0  0  0
    6.8141    6.2629    7.5224 H   0  0  0  0  0  0  0  0  0  0  0  0
    8.3654    6.0643    7.5701 H   0  0  0  0  0  0  0  0  0  0  0  0
    7.8226    7.8587    7.0114 C   0  0  0  0  0  0  0  0  0  0  0  0
    7.8535    8.2055    7.9040 H   0  0  0  0  0  0  0  0  0  0  0  0
    7.0936    8.2617    6.5344 H   0  0  0  0  0  0  0  0  0  0  0  0
    8.6488    8.0620    6.5617 H   0  0  0  0  0  0  0  0  0  0  0  0
    2.0498    2.2135    6.0575 C   0  0  0  0  0  0  0  0  0  0  0  0
    2.7002    1.4960    6.0268 H   0  0  0  0  0  0  0  0  0  0  0  0
    1.5901    2.2445    5.2023 H   0  0  0  0  0  0  0  0  0  0  0  0
    1.0697    1.9701    7.1579 C   0  0  0  0  0  0  0  0  0  0  0  0
    0.6230    1.1332    7.0114 H   0  0  0  0  0  0  0  0  0  0  0  0
    0.4221    2.6785    7.1715 H   0  0  0  0  0  0  0  0  0  0  0  0
    1.5312    1.9437    7.9994 H   0  0  0  0  0  0  0  0  0  0  0  0
  1  4  1  0  0  0  0
  2  3  1  0  0  0  0
  4  2  1  0  0  0  0
  5  4  1  0  0  0  0
  6  1  1  0  0  0  0
  7  6  1  0  0  0  0
  8  2  1  0  0  0  0
  9  8  1  0  0  0  0
 10  2  1  0  0  0  0
 11 10  1  0  0  0  0
 12  2  1  0  0  0  0
 13 12  1  0  0  0  0
 14  1  1  0  0  0  0
 15  8  1  0  0  0  0
 16 15  1  0  0  0  0
 17 10  1  0  0  0  0
 18  1  1  0  0  0  0
 19 18  1  0  0  0  0
 20 14  1  0  0  0  0
 21 17  1  0  0  0  0
 22  1  1  0  0  0  0
 23  1  1  0  0  0  0
 24 22  1  0  0  0  0
 25 24  4  0  0  0  0
 26 25  1  0  0  0  0
 27 25  4  0  0  0  0
 28 27  1  0  0  0  0
 29 27  4  0  0  0  0
 30 29  1  0  0  0  0
 31 29  4  0  0  0  0
 32 31  1  0  0  0  0
 33 24  4  0  0  0  0
 34 33  1  0  0  0  0
 35 22  1  0  0  0  0
 36 35  4  0  0  0  0
 37 36  1  0  0  0  0
 38 36  4  0  0  0  0
 39 38  1  0  0  0  0
 40 38  4  0  0  0  0
 41 40  1  0  0  0  0
 42 40  4  0  0  0  0
 43 42  1  0  0  0  0
 44 35  4  0  0  0  0
 45 44  1  0  0  0  0
 46 22  1  0  0  0  0
 47 46  4  0  0  0  0
 48 47  1  0  0  0  0
 49 47  4  0  0  0  0
 50 49  1  0  0  0  0
 51 49  4  0  0  0  0
 52 51  1  0  0  0  0
 53 51  4  0  0  0  0
 54 53  1  0  0  0  0
 55 46  4  0  0  0  0
 56 55  1  0  0  0  0
 57 23  1  0  0  0  0
 58 57  4  0  0  0  0
 59 58  1  0  0  0  0
 60 58  4  0  0  0  0
 61 60  1  0  0  0  0
 62 60  4  0  0  0  0
 63 62  1  0  0  0  0
 64 62  4  0  0  0  0
 65 64  1  0  0  0  0
 66 57  4  0  0  0  0
 67 66  1  0  0  0  0
 68 23  1  0  0  0  0
 69 68  4  0  0  0  0
 70 69  1  0  0  0  0
 71 69  4  0  0  0  0
 72 71  1  0  0  0  0
 73 71  4  0  0  0  0
 74 73  1  0  0  0  0
 75 73  4  0  0  0  0
 76 75  1  0  0  0  0
 77 68  4  0  0  0  0
 78 77  1  0  0  0  0
 79 23  1  0  0  0  0
 80 79  4  0  0  0  0
 81 80  1  0  0  0  0
 82 80  4  0  0  0  0
 83 82  1  0  0  0  0
 84 82  4  0  0  0  0
 85 84  1  0  0  0  0
 86 84  4  0  0  0  0
 87 86  1  0  0  0  0
 88 79  4  0  0  0  0
 89 88  1  0  0  0  0
 90 20  1  0  0  0  0
 91 90  1  0  0  0  0
 92 90  1  0  0  0  0
 93 90  1  0  0  0  0
 94 93  1  0  0  0  0
 95 93  1  0  0  0  0
 96 93  1  0  0  0  0
 97 21  1  0  0  0  0
 98 97  1  0  0  0  0
 99 97  1  0  0  0  0
100 97  1  0  0  0  0
101100  1  0  0  0  0
102100  1  0  0  0  0
103100  1  0  0  0  0
  2  6  1  0  0  0  0
  4  6  1  0  0  0  0
  4 12  1  0  0  0  0
  4 18  1  0  0  0  0
  6  8  1  0  0  0  0
  6 14  1  0  0  0  0
  8 10  1  0  0  0  0
  8 14  1  0  0  0  0
 10 12  1  0  0  0  0
 10 15  1  0  0  0  0
 12 17  1  0  0  0  0
 12 18  1  0  0  0  0
 14 15  1  0  0  0  0
 15 17  1  0  0  0  0
 17 18  1  0  0  0  0
 31 33  4  0  0  0  0
 42 44  4  0  0  0  0
 53 55  4  0  0  0  0
 64 66  4  0  0  0  0
 75 77  4  0  0  0  0
 86 88  4  0  0  0  0
M  END
$$$$
DEBZEQ

From CSD data. Using bond type 'Any'. No disordered atoms. Largest molecule.
132155  0  0  0  0  0  0  0  0999 V2000
    2.9124   12.7496    4.0737 Pt  0  0  0  0  0  0  0  0  0  0  0  0
    4.4439   10.7531    3.2645 Pt  0  0  0  0  0  0  0  0  0  0  0  0
    4.7138   11.2543    6.5986 B   0  0  0  0  0  0  0  0  0  0  0  0
    5.4778   11.4542    7.3632 H   0  0  0  0  0  0  0  0  0  0  0  0
    3.5258   12.5407    6.2187 B   0  0  0  0  0  0  0  0  0  0  0  0
    3.5514   13.5219    6.7172 H   0  0  0  0  0  0  0  0  0  0  0  0
    4.9013   12.0340    5.0718 B   0  0  0  0  0  0  0  0  0  0  0  0
    5.1820   10.2028    5.2968 B   0  0  0  0  0  0  0  0  0  0  0  0
    6.1839    9.7511    5.2677 H   0  0  0  0  0  0  0  0  0  0  0  0
    3.9435    9.6581    6.4413 B   0  0  0  0  0  0  0  0  0  0  0  0
    4.1455    8.8004    7.0995 H   0  0  0  0  0  0  0  0  0  0  0  0
    3.0031   11.0604    7.0341 B   0  0  0  0  0  0  0  0  0  0  0  0
    2.6689   11.0849    8.0795 H   0  0  0  0  0  0  0  0  0  0  0  0
    3.7503    9.2979    4.7620 B   0  0  0  0  0  0  0  0  0  0  0  0
    2.2490    9.9312    5.9429 B   0  0  0  0  0  0  0  0  0  0  0  0
    1.3089    9.3773    5.8073 H   0  0  0  0  0  0  0  0  0  0  0  0
    1.9700   11.8006    5.8848 B   0  0  0  0  0  0  0  0  0  0  0  0
    6.0045   12.8031    4.7523 O   0  0  0  0  0  0  0  0  0  0  0  0
    3.4891    8.1549    4.1063 O   0  0  0  0  0  0  0  0  0  0  0  0
    0.7087   12.3057    6.0469 O   0  0  0  0  0  0  0  0  0  0  0  0
    3.2570   12.1511    1.9021 P   0  0  0  0  0  0  0  0  0  0  0  0
    1.4583   14.5120    4.1024 P   0  0  0  0  0  0  0  0  0  0  0  0
    5.6602    9.3204    1.9452 P   0  0  0  0  0  0  0  0  0  0  0  0
    4.1717   13.1389    0.6993 C   0  0  0  0  0  0  0  0  0  0  0  0
    4.8180   14.2574    1.0550 C   0  0  0  0  0  0  0  0  0  0  0  0
    4.7057   14.5825    1.9188 H   0  0  0  0  0  0  0  0  0  0  0  0
    5.6420   14.9426    0.1912 C   0  0  0  0  0  0  0  0  0  0  0  0
    6.0255   15.7498    0.4476 H   0  0  0  0  0  0  0  0  0  0  0  0
    5.8880   14.4238   -1.0429 C   0  0  0  0  0  0  0  0  0  0  0  0
    6.4876   14.8465   -1.6140 H   0  0  0  0  0  0  0  0  0  0  0  0
    5.2579   13.2899   -1.4397 C   0  0  0  0  0  0  0  0  0  0  0  0
    5.4113   12.9573   -2.2939 H   0  0  0  0  0  0  0  0  0  0  0  0
    4.3988   12.6276   -0.6001 C   0  0  0  0  0  0  0  0  0  0  0  0
    3.9696   11.8524   -0.8832 H   0  0  0  0  0  0  0  0  0  0  0  0
    1.8310   11.4374    1.0574 C   0  0  0  0  0  0  0  0  0  0  0  0
    1.2211   10.2944    1.6043 C   0  0  0  0  0  0  0  0  0  0  0  0
    1.5772    9.9175    2.3762 H   0  0  0  0  0  0  0  0  0  0  0  0
    0.1207    9.7237    1.0332 C   0  0  0  0  0  0  0  0  0  0  0  0
   -0.2513    8.9607    1.4107 H   0  0  0  0  0  0  0  0  0  0  0  0
   -0.4306   10.2593   -0.0823 C   0  0  0  0  0  0  0  0  0  0  0  0
   -1.1844    9.8747   -0.4694 H   0  0  0  0  0  0  0  0  0  0  0  0
    0.1497   11.3870   -0.6291 C   0  0  0  0  0  0  0  0  0  0  0  0
   -0.2078   11.7578   -1.4034 H   0  0  0  0  0  0  0  0  0  0  0  0
    1.2368   11.9638   -0.0484 C   0  0  0  0  0  0  0  0  0  0  0  0
    1.5848   12.7421   -0.4186 H   0  0  0  0  0  0  0  0  0  0  0  0
    1.3185   15.3821    5.7033 C   0  0  0  0  0  0  0  0  0  0  0  0
    2.4602   15.8643    6.2647 C   0  0  0  0  0  0  0  0  0  0  0  0
    3.2679   15.7621    5.8146 H   0  0  0  0  0  0  0  0  0  0  0  0
    2.4472   16.5022    7.4842 C   0  0  0  0  0  0  0  0  0  0  0  0
    3.2336   16.8333    7.8544 H   0  0  0  0  0  0  0  0  0  0  0  0
    1.2636   16.6380    8.1351 C   0  0  0  0  0  0  0  0  0  0  0  0
    1.2466   17.0973    8.9433 H   0  0  0  0  0  0  0  0  0  0  0  0
    0.0864   16.1161    7.6391 C   0  0  0  0  0  0  0  0  0  0  0  0
   -0.7071   16.1725    8.1206 H   0  0  0  0  0  0  0  0  0  0  0  0
    0.1369   15.5026    6.3832 C   0  0  0  0  0  0  0  0  0  0  0  0
   -0.6441   15.1700    6.0058 H   0  0  0  0  0  0  0  0  0  0  0  0
    1.9613   15.7758    2.9134 C   0  0  0  0  0  0  0  0  0  0  0  0
    2.7197   16.8882    3.1989 C   0  0  0  0  0  0  0  0  0  0  0  0
    2.9273   17.0912    4.0821 H   0  0  0  0  0  0  0  0  0  0  0  0
    3.1833   17.7153    2.1657 C   0  0  0  0  0  0  0  0  0  0  0  0
    3.7100   18.4539    2.3689 H   0  0  0  0  0  0  0  0  0  0  0  0
    2.8729   17.4544    0.8977 C   0  0  0  0  0  0  0  0  0  0  0  0
    3.1776   18.0175    0.2226 H   0  0  0  0  0  0  0  0  0  0  0  0
    2.1174   16.3740    0.5807 C   0  0  0  0  0  0  0  0  0  0  0  0
    1.9022   16.1985   -0.3049 H   0  0  0  0  0  0  0  0  0  0  0  0
    1.6780   15.5576    1.5535 C   0  0  0  0  0  0  0  0  0  0  0  0
    1.1684   14.8175    1.3163 H   0  0  0  0  0  0  0  0  0  0  0  0
   -0.2766   14.2681    3.5885 C   0  0  0  0  0  0  0  0  0  0  0  0
   -1.1190   15.3577    3.4384 C   0  0  0  0  0  0  0  0  0  0  0  0
   -0.7785   16.2153    3.5546 H   0  0  0  0  0  0  0  0  0  0  0  0
   -2.4375   15.2005    3.1263 C   0  0  0  0  0  0  0  0  0  0  0  0
   -2.9903   15.9421    3.0368 H   0  0  0  0  0  0  0  0  0  0  0  0
   -2.9305   13.9583    2.9448 C   0  0  0  0  0  0  0  0  0  0  0  0
   -3.8342   13.8485    2.7512 H   0  0  0  0  0  0  0  0  0  0  0  0
   -2.1205   12.8550    3.0416 C   0  0  0  0  0  0  0  0  0  0  0  0
   -2.4676   12.0111    2.8625 H   0  0  0  0  0  0  0  0  0  0  0  0
   -0.7922   12.9863    3.3997 C   0  0  0  0  0  0  0  0  0  0  0  0
   -0.2541   12.2370    3.5134 H   0  0  0  0  0  0  0  0  0  0  0  0
    5.0533    9.1758    0.2565 C   0  0  0  0  0  0  0  0  0  0  0  0
    3.7358    8.7989    0.0678 C   0  0  0  0  0  0  0  0  0  0  0  0
    3.2122    8.5899    0.8082 H   0  0  0  0  0  0  0  0  0  0  0  0
    3.1850    8.7257   -1.1881 C   0  0  0  0  0  0  0  0  0  0  0  0
    2.3030    8.4540   -1.2970 H   0  0  0  0  0  0  0  0  0  0  0  0
    3.9581    9.0583   -2.2915 C   0  0  0  0  0  0  0  0  0  0  0  0
    3.5942    9.0339   -3.1481 H   0  0  0  0  0  0  0  0  0  0  0  0
    5.2615    9.4230   -2.1027 C   0  0  0  0  0  0  0  0  0  0  0  0
    5.7838    9.6260   -2.8456 H   0  0  0  0  0  0  0  0  0  0  0  0
    5.8241    9.5009   -0.8566 C   0  0  0  0  0  0  0  0  0  0  0  0
    6.7099    9.7664   -0.7550 H   0  0  0  0  0  0  0  0  0  0  0  0
    5.9819    7.5751    2.4028 C   0  0  0  0  0  0  0  0  0  0  0  0
    6.4966    7.2760    3.6465 C   0  0  0  0  0  0  0  0  0  0  0  0
    6.6144    7.9535    4.2732 H   0  0  0  0  0  0  0  0  0  0  0  0
    6.8339    5.9789    3.9659 C   0  0  0  0  0  0  0  0  0  0  0  0
    7.1902    5.7866    4.8032 H   0  0  0  0  0  0  0  0  0  0  0  0
    6.6469    4.9732    3.0610 C   0  0  0  0  0  0  0  0  0  0  0  0
    6.8737    4.0988    3.2812 H   0  0  0  0  0  0  0  0  0  0  0  0
    6.1341    5.2494    1.8487 C   0  0  0  0  0  0  0  0  0  0  0  0
    6.0060    4.5658    1.2316 H   0  0  0  0  0  0  0  0  0  0  0  0
    5.7930    6.5511    1.5196 C   0  0  0  0  0  0  0  0  0  0  0  0
    5.4289    6.7297    0.6824 H   0  0  0  0  0  0  0  0  0  0  0  0
    7.3244   10.0350    1.8148 C   0  0  0  0  0  0  0  0  0  0  0  0
    7.4422   11.4007    1.6672 C   0  0  0  0  0  0  0  0  0  0  0  0
    6.6794   11.9318    1.6478 H   0  0  0  0  0  0  0  0  0  0  0  0
    8.6952   11.9867    1.5438 C   0  0  0  0  0  0  0  0  0  0  0  0
    8.7648   12.9054    1.4131 H   0  0  0  0  0  0  0  0  0  0  0  0
    9.8278   11.2237    1.6140 C   0  0  0  0  0  0  0  0  0  0  0  0
   10.6637   11.6266    1.5656 H   0  0  0  0  0  0  0  0  0  0  0  0
    9.7276    9.8686    1.7567 C   0  0  0  0  0  0  0  0  0  0  0  0
   10.4977    9.3483    1.7979 H   0  0  0  0  0  0  0  0  0  0  0  0
    8.4859    9.2766    1.8414 C   0  0  0  0  0  0  0  0  0  0  0  0
    8.4246    8.3503    1.9164 H   0  0  0  0  0  0  0  0  0  0  0  0
    5.9390   14.2223    4.7717 C   0  0  0  0  0  0  0  0  0  0  0  0
    5.8345   14.5321    5.6864 H   0  0  0  0  0  0  0  0  0  0  0  0
    5.1703   14.5214    4.2611 H   0  0  0  0  0  0  0  0  0  0  0  0
    7.1881   14.7869    4.1861 C   0  0  0  0  0  0  0  0  0  0  0  0
    7.1437   15.7453    4.1958 H   0  0  0  0  0  0  0  0  0  0  0  0
    7.2840   14.4817    3.2812 H   0  0  0  0  0  0  0  0  0  0  0  0
    7.9439   14.4955    4.7015 H   0  0  0  0  0  0  0  0  0  0  0  0
    2.7175    7.0959    4.5709 C   0  0  0  0  0  0  0  0  0  0  0  0
    1.8216    7.4164    4.7644 H   0  0  0  0  0  0  0  0  0  0  0  0
    3.0980    6.7617    5.3984 H   0  0  0  0  0  0  0  0  0  0  0  0
    2.6422    6.0414    3.6344 C   0  0  0  0  0  0  0  0  0  0  0  0
    2.1219    5.3227    4.0022 H   0  0  0  0  0  0  0  0  0  0  0  0
    3.5263    5.7286    3.4336 H   0  0  0  0  0  0  0  0  0  0  0  0
    2.2239    6.3588    2.8287 H   0  0  0  0  0  0  0  0  0  0  0  0
   -0.4530   11.6464    6.5962 C   0  0  0  0  0  0  0  0  0  0  0  0
   -1.2563   12.0417    6.2235 H   0  0  0  0  0  0  0  0  0  0  0  0
   -0.4398   10.7079    6.3518 H   0  0  0  0  0  0  0  0  0  0  0  0
   -0.4835   11.7609    7.9875 C   0  0  0  0  0  0  0  0  0  0  0  0
   -1.2717   11.3306    8.3287 H   0  0  0  0  0  0  0  0  0  0  0  0
   -0.4953   12.6887    8.2343 H   0  0  0  0  0  0  0  0  0  0  0  0
    0.2949   11.3412    8.3602 H   0  0  0  0  0  0  0  0  0  0  0  0
  1  2  1  0  0  0  0
  2  7  1  0  0  0  0
  3  4  1  0  0  0  0
  5  1  1  0  0  0  0
  6  5  1  0  0  0  0
  7  1  1  0  0  0  0
  8  2  1  0  0  0  0
  9  8  1  0  0  0  0
 10  3  1  0  0  0  0
 11 10  1  0  0  0  0
 12  3  1  0  0  0  0
 13 12  1  0  0  0  0
 14  2  1  0  0  0  0
 15 10  1  0  0  0  0
 16 15  1  0  0  0  0
 17  1  1  0  0  0  0
 18  7  1  0  0  0  0
 19 14  1  0  0  0  0
 20 17  1  0  0  0  0
 21  1  1  0  0  0  0
 22  1  1  0  0  0  0
 23  2  1  0  0  0  0
 24 21  1  0  0  0  0
 25 24  4  0  0  0  0
 26 25  1  0  0  0  0
 27 25  4  0  0  0  0
 28 27  1  0  0  0  0
 29 27  4  0  0  0  0
 30 29  1  0  0  0  0
 31 29  4  0  0  0  0
 32 31  1  0  0  0  0
 33 24  4  0  0  0  0
 34 33  1  0  0  0  0
 35 21  1  0  0  0  0
 36 35  4  0  0  0  0
 37 36  1  0  0  0  0
 38 36  4  0  0  0  0
 39 38  1  0  0  0  0
 40 38  4  0  0  0  0
 41 40  1  0  0  0  0
 42 40  4  0  0  0  0
 43 42  1  0  0  0  0
 44 35  4  0  0  0  0
 45 44  1  0  0  0  0
 46 22  1  0  0  0  0
 47 46  4  0  0  0  0
 48 47  1  0  0  0  0
 49 47  4  0  0  0  0
 50 49  1  0  0  0  0
 51 49  4  0  0  0  0
 52 51  1  0  0  0  0
 53 51  4  0  0  0  0
 54 53  1  0  0  0  0
 55 46  4  0  0  0  0
 56 55  1  0  0  0  0
 57 22  1  0  0  0  0
 58 57  4  0  0  0  0
 59 58  1  0  0  0  0
 60 58  4  0  0  0  0
 61 60  1  0  0  0  0
 62 60  4  0  0  0  0
 63 62  1  0  0  0  0
 64 62  4  0  0  0  0
 65 64  1  0  0  0  0
 66 57  4  0  0  0  0
 67 66  1  0  0  0  0
 68 22  1  0  0  0  0
 69 68  4  0  0  0  0
 70 69  1  0  0  0  0
 71 69  4  0  0  0  0
 72 71  1  0  0  0  0
 73 71  4  0  0  0  0
 74 73  1  0  0  0  0
 75 73  4  0  0  0  0
 76 75  1  0  0  0  0
 77 68  4  0  0  0  0
 78 77  1  0  0  0  0
 79 23  1  0  0  0  0
 80 79  4  0  0  0  0
 81 80  1  0  0  0  0
 82 80  4  0  0  0  0
 83 82  1  0  0  0  0
 84 82  4  0  0  0  0
 85 84  1  0  0  0  0
 86 84  4  0  0  0  0
 87 86  1  0  0  0  0
 88 79  4  0  0  0  0
 89 88  1  0  0  0  0
 90 23  1  0  0  0  0
 91 90  4  0  0  0  0
 92 91  1  0  0  0  0
 93 91  4  0  0  0  0
 94 93  1  0  0  0  0
 95 93  4  0  0  0  0
 96 95  1  0  0  0  0
 97 95  4  0  0  0  0
 98 97  1  0  0  0  0
 99 90  4  0  0  0  0
100 99  1  0  0  0  0
101 23  1  0  0  0  0
102101  4  0  0  0  0
103102  1  0  0  0  0
104102  4  0  0  0  0
105104  1  0  0  0  0
106104  4  0  0  0  0
107106  1  0  0  0  0
108106  4  0  0  0  0
109108  1  0  0  0  0
110101  4  0  0  0  0
111110  1  0  0  0  0
112 18  1  0  0  0  0
113112  1  0  0  0  0
114112  1  0  0  0  0
115112  1  0  0  0  0
116115  1  0  0  0  0
117115  1  0  0  0  0
118115  1  0  0  0  0
119 19  1  0  0  0  0
120119  1  0  0  0  0
121119  1  0  0  0  0
122119  1  0  0  0  0
123122  1  0  0  0  0
124122  1  0  0  0  0
125122  1  0  0  0  0
126 20  1  0  0  0  0
127126  1  0  0  0  0
128126  1  0  0  0  0
129126  1  0  0  0  0
130129  1  0  0  0  0
131129  1  0  0  0  0
132129  1  0  0  0  0
  2 21  1  0  0  0  0
  3  5  1  0  0  0  0
  3  7  1  0  0  0  0
  3  8  1  0  0  0  0
  5  7  1  0  0  0  0
  5 12  1  0  0  0  0
  5 17  1  0  0  0  0
  7  8  1  0  0  0  0
  8 10  1  0  0  0  0
  8 14  1  0  0  0  0
 10 12  1  0  0  0  0
 10 14  1  0  0  0  0
 12 15  1  0  0  0  0
 12 17  1  0  0  0  0
 14 15  1  0  0  0  0
 15 17  1  0  0  0  0
 31 33  4  0  0  0  0
 42 44  4  0  0  0  0
 53 55  4  0  0  0  0
 64 66  4  0  0  0  0
 75 77  4  0  0  0  0
 86 88  4  0  0  0  0
 97 99  4  0  0  0  0
108110  4  0  0  0  0
M  END
$$$$
DEDPUX

From CSD data. Using bond type 'Any'. No disordered atoms. Largest molecule.
 82 91  0  0  0  0  0  0  0  0999 V2000
    0.5978    1.5864    3.3890 Ir  0  0  0  0  0  0  0  0  0  0  0  0
   -1.0507    3.2600    3.1989 P   0  0  0  0  0  0  0  0  0  0  0  0
    2.6769    2.5774    2.8659 P   0  0  0  0  0  0  0  0  0  0  0  0
   -1.2102    0.2781    3.9587 B   0  0  0  0  0  0  0  0  0  0  0  0
    0.0380   -0.4642    2.8340 B   0  0  0  0  0  0  0  0  0  0  0  0
    1.7352   -0.4072    3.5133 B   0  0  0  0  0  0  0  0  0  0  0  0
    0.3036    1.4209    1.6134 H   0  0  0  0  0  0  0  0  0  0  0  0
   -1.2283    0.1533    4.8850 H   0  0  0  0  0  0  0  0  0  0  0  0
   -2.1941    0.6130    3.5054 H   0  0  0  0  0  0  0  0  0  0  0  0
   -0.1714   -0.7619    1.7474 H   0  0  0  0  0  0  0  0  0  0  0  0
    1.9980   -0.5714    4.5946 H   0  0  0  0  0  0  0  0  0  0  0  0
    2.5335   -0.6130    2.7867 H   0  0  0  0  0  0  0  0  0  0  0  0
   -0.9475   -0.9502    3.5672 H   0  0  0  0  0  0  0  0  0  0  0  0
    0.7523   -1.2633    3.3766 H   0  0  0  0  0  0  0  0  0  0  0  0
    0.8543    1.6749    5.2804 C   0  0  0  0  0  0  0  0  0  0  0  0
    1.0168    1.6749    6.4169 O   0  0  0  0  0  0  0  0  0  0  0  0
   -2.3723    3.0192    1.9380 C   0  0  0  0  0  0  0  0  0  0  0  0
   -2.3251    1.9705    1.0182 C   0  0  0  0  0  0  0  0  0  0  0  0
   -3.3432    1.8238    0.0762 C   0  0  0  0  0  0  0  0  0  0  0  0
   -4.4080    2.7236    0.0526 C   0  0  0  0  0  0  0  0  0  0  0  0
   -4.4552    3.7723    0.9723 C   0  0  0  0  0  0  0  0  0  0  0  0
   -3.4372    3.9190    1.9143 C   0  0  0  0  0  0  0  0  0  0  0  0
   -0.5857    4.9743    2.7302 C   0  0  0  0  0  0  0  0  0  0  0  0
    0.1470    5.0969    1.5504 C   0  0  0  0  0  0  0  0  0  0  0  0
    0.5203    6.3580    1.0866 C   0  0  0  0  0  0  0  0  0  0  0  0
    0.1594    7.4987    1.8039 C   0  0  0  0  0  0  0  0  0  0  0  0
   -0.5745    7.3783    2.9838 C   0  0  0  0  0  0  0  0  0  0  0  0
   -0.9478    6.1150    3.4476 C   0  0  0  0  0  0  0  0  0  0  0  0
   -1.9842    3.4133    4.7851 C   0  0  0  0  0  0  0  0  0  0  0  0
   -1.3020    3.8906    5.9045 C   0  0  0  0  0  0  0  0  0  0  0  0
   -1.9453    3.8599    7.2907 C   0  0  0  0  0  0  0  0  0  0  0  0
   -3.2040    3.3520    7.2946 C   0  0  0  0  0  0  0  0  0  0  0  0
   -3.8861    2.8725    6.1752 C   0  0  0  0  0  0  0  0  0  0  0  0
   -3.2762    2.9031    4.9204 C   0  0  0  0  0  0  0  0  0  0  0  0
    4.1469    1.5523    3.3070 C   0  0  0  0  0  0  0  0  0  0  0  0
    5.0499    1.0794    2.3545 C   0  0  0  0  0  0  0  0  0  0  0  0
    6.1437    0.3087    2.7526 C   0  0  0  0  0  0  0  0  0  0  0  0
    6.3336    0.0131    4.1019 C   0  0  0  0  0  0  0  0  0  0  0  0
    5.4306    0.4860    5.0545 C   0  0  0  0  0  0  0  0  0  0  0  0
    4.3380    1.2567    4.6564 C   0  0  0  0  0  0  0  0  0  0  0  0
    2.9251    2.8791    1.0655 C   0  0  0  0  0  0  0  0  0  0  0  0
    3.4592    4.0723    0.5781 C   0  0  0  0  0  0  0  0  0  0  0  0
    3.7548    4.2015   -0.7791 C   0  0  0  0  0  0  0  0  0  0  0  0
    3.5162    3.1374   -1.6489 C   0  0  0  0  0  0  0  0  0  0  0  0
    2.9833    1.9442   -1.1615 C   0  0  0  0  0  0  0  0  0  0  0  0
    2.6877    1.8150    0.1958 C   0  0  0  0  0  0  0  0  0  0  0  0
    3.2155    4.1402    3.6696 C   0  0  0  0  0  0  0  0  0  0  0  0
    2.2929    4.9634    4.3134 C   0  0  0  0  0  0  0  0  0  0  0  0
    2.7011    6.1894    4.8416 C   0  0  0  0  0  0  0  0  0  0  0  0
    4.0322    6.5901    4.7247 C   0  0  0  0  0  0  0  0  0  0  0  0
    4.9551    5.7647    4.0796 C   0  0  0  0  0  0  0  0  0  0  0  0
    4.5466    4.5408    3.5527 C   0  0  0  0  0  0  0  0  0  0  0  0
   -1.5012    1.2720    1.0366 H   0  0  0  0  0  0  0  0  0  0  0  0
   -3.3063    1.0115   -0.6359 H   0  0  0  0  0  0  0  0  0  0  0  0
   -5.1962    2.6098   -0.6780 H   0  0  0  0  0  0  0  0  0  0  0  0
   -5.2791    4.4686    0.9539 H   0  0  0  0  0  0  0  0  0  0  0  0
   -3.4741    4.7313    2.6264 H   0  0  0  0  0  0  0  0  0  0  0  0
    0.4279    4.2124    0.9946 H   0  0  0  0  0  0  0  0  0  0  0  0
    1.0882    6.4522    0.1734 H   0  0  0  0  0  0  0  0  0  0  0  0
    0.4468    8.4752    1.4453 H   0  0  0  0  0  0  0  0  0  0  0  0
   -0.8542    8.2606    3.5396 H   0  0  0  0  0  0  0  0  0  0  0  0
   -1.5157    6.0209    4.3607 H   0  0  0  0  0  0  0  0  0  0  0  0
   -0.3025    4.2868    5.7994 H   0  0  0  0  0  0  0  0  0  0  0  0
   -1.3839    4.2321    8.0251 H   0  0  0  0  0  0  0  0  0  0  0  0
   -3.6755    3.3279    8.2656 H   0  0  0  0  0  0  0  0  0  0  0  0
   -4.8857    2.4784    6.2803 H   0  0  0  0  0  0  0  0  0  0  0  0
   -3.8042    2.5331    4.0546 H   0  0  0  0  0  0  0  0  0  0  0  0
    4.9019    1.3093    1.3099 H   0  0  0  0  0  0  0  0  0  0  0  0
    6.8418   -0.0569    2.0155 H   0  0  0  0  0  0  0  0  0  0  0  0
    7.1809   -0.5824    4.4093 H   0  0  0  0  0  0  0  0  0  0  0  0
    5.5786    0.2562    6.0990 H   0  0  0  0  0  0  0  0  0  0  0  0
    3.6387    1.6223    5.3934 H   0  0  0  0  0  0  0  0  0  0  0  0
    3.6436    4.8955    1.2521 H   0  0  0  0  0  0  0  0  0  0  0  0
    4.1675    5.1254   -1.1562 H   0  0  0  0  0  0  0  0  0  0  0  0
    3.7446    3.2381   -2.7000 H   0  0  0  0  0  0  0  0  0  0  0  0
    2.7989    1.1210   -1.8355 H   0  0  0  0  0  0  0  0  0  0  0  0
    2.2739    0.8911    0.5728 H   0  0  0  0  0  0  0  0  0  0  0  0
    1.2628    4.6525    4.4041 H   0  0  0  0  0  0  0  0  0  0  0  0
    1.9867    6.8265    5.3409 H   0  0  0  0  0  0  0  0  0  0  0  0
    4.3479    7.5381    5.1333 H   0  0  0  0  0  0  0  0  0  0  0  0
    5.9849    6.0756    3.9902 H   0  0  0  0  0  0  0  0  0  0  0  0
    5.2610    3.9037    3.0534 H   0  0  0  0  0  0  0  0  0  0  0  0
  1  2  1  0  0  0  0
  2 17  1  0  0  0  0
  3  1  1  0  0  0  0
  4  1  1  0  0  0  0
  5  1  1  0  0  0  0
  6  1  1  0  0  0  0
  7  1  1  0  0  0  0
  8  4  1  0  0  0  0
  9  4  1  0  0  0  0
 10  5  1  0  0  0  0
 11  6  1  0  0  0  0
 12  6  1  0  0  0  0
 13  4  1  0  0  0  0
 14  5  1  0  0  0  0
 15  1  1  0  0  0  0
 16 15  3  0  0  0  0
 17 18  4  0  0  0  0
 18 19  4  0  0  0  0
 19 20  4  0  0  0  0
 20 21  4  0  0  0  0
 21 22  4  0  0  0  0
 22 17  4  0  0  0  0
 23  2  1  0  0  0  0
 24 23  4  0  0  0  0
 25 24  4  0  0  0  0
 26 25  4  0  0  0  0
 27 26  4  0  0  0  0
 28 23  4  0  0  0  0
 29  2  1  0  0  0  0
 30 29  4  0  0  0  0
 31 30  4  0  0  0  0
 32 31  4  0  0  0  0
 33 32  4  0  0  0  0
 34 29  4  0  0  0  0
 35  3  1  0  0  0  0
 36 35  4  0  0  0  0
 37 36  4  0  0  0  0
 38 37  4  0  0  0  0
 39 38  4  0  0  0  0
 40 35  4  0  0  0  0
 41  3  1  0  0  0  0
 42 41  4  0  0  0  0
 43 42  4  0  0  0  0
 44 43  4  0  0  0  0
 45 44  4  0  0  0  0
 46 41  4  0  0  0  0
 47  3  1  0  0  0  0
 48 47  4  0  0  0  0
 49 48  4  0  0  0  0
 50 49  4  0  0  0  0
 51 50  4  0  0  0  0
 52 47  4  0  0  0  0
 53 18  1  0  0  0  0
 54 19  1  0  0  0  0
 55 20  1  0  0  0  0
 56 21  1  0  0  0  0
 57 22  1  0  0  0  0
 58 24  1  0  0  0  0
 59 25  1  0  0  0  0
 60 26  1  0  0  0  0
 61 27  1  0  0  0  0
 62 28  1  0  0  0  0
 63 30  1  0  0  0  0
 64 31  1  0  0  0  0
 65 32  1  0  0  0  0
 66 33  1  0  0  0  0
 67 34  1  0  0  0  0
 68 36  1  0  0  0  0
 69 37  1  0  0  0  0
 70 38  1  0  0  0  0
 71 39  1  0  0  0  0
 72 40  1  0  0  0  0
 73 42  1  0  0  0  0
 74 43  1  0  0  0  0
 75 44  1  0  0  0  0
 76 45  1  0  0  0  0
 77 46  1  0  0  0  0
 78 48  1  0  0  0  0
 79 49  1  0  0  0  0
 80 50  1  0  0  0  0
 81 51  1  0  0  0  0
 82 52  1  0  0  0  0
  4  5  1  0  0  0  0
  5  6  1  0  0  0  0
  5 13  1  0  0  0  0
  6 14  1  0  0  0  0
 27 28  4  0  0  0  0
 33 34  4  0  0  0  0
 39 40  4  0  0  0  0
 45 46  4  0  0  0  0
 51 52  4  0  0  0  0
M  END
$$$$
DESREY

From CSD data. Using bond type 'Any'. No disordered atoms. Largest molecule.
 75 80  0  0  0  0  0  0  0  0999 V2000
    0.0000    0.0000    0.0000 U   0  0  0  0  0  0  0  0  0  0  0  0
   -2.7332   -2.1675   -1.4415 P   0  0  0  0  0  0  0  0  0  0  0  0
   -1.7414   -1.2214   -0.8006 O   0  0  0  0  0  0  0  0  0  0  0  0
   -1.4793    1.5384    1.3933 B   0  0  0  0  0  0  0  0  0  0  0  0
    0.0970   -1.6710    2.1864 B   0  0  0  0  0  0  0  0  0  0  0  0
   -3.9651   -2.6362   -0.2572 C   0  0  0  0  0  0  0  0  0  0  0  0
   -4.3629   -1.7800    0.7074 C   0  0  0  0  0  0  0  0  0  0  0  0
   -5.3787   -2.0808    1.5862 C   0  0  0  0  0  0  0  0  0  0  0  0
   -6.0190   -3.2746    1.4683 C   0  0  0  0  0  0  0  0  0  0  0  0
   -5.6541   -4.1457    0.5145 C   0  0  0  0  0  0  0  0  0  0  0  0
   -4.6286   -3.8500   -0.3858 C   0  0  0  0  0  0  0  0  0  0  0  0
   -3.5353   -1.3621   -2.8188 C   0  0  0  0  0  0  0  0  0  0  0  0
   -2.7379   -0.7254   -3.7726 C   0  0  0  0  0  0  0  0  0  0  0  0
   -3.3610   -0.1142   -4.8337 C   0  0  0  0  0  0  0  0  0  0  0  0
   -4.6996   -0.1249   -4.9516 C   0  0  0  0  0  0  0  0  0  0  0  0
   -5.4909   -0.7305   -4.0620 C   0  0  0  0  0  0  0  0  0  0  0  0
   -4.8944   -1.3663   -2.9581 C   0  0  0  0  0  0  0  0  0  0  0  0
   -1.9236   -3.6422   -2.0685 C   0  0  0  0  0  0  0  0  0  0  0  0
   -0.9034   -4.2121   -1.2968 C   0  0  0  0  0  0  0  0  0  0  0  0
   -0.2282   -5.3058   -1.8220 C   0  0  0  0  0  0  0  0  0  0  0  0
   -0.5567   -5.8137   -2.9795 C   0  0  0  0  0  0  0  0  0  0  0  0
   -1.5795   -5.3314   -3.7298 C   0  0  0  0  0  0  0  0  0  0  0  0
   -2.2539   -4.1932   -3.2368 C   0  0  0  0  0  0  0  0  0  0  0  0
   -3.9177   -0.9295    0.7717 H   0  0  0  0  0  0  0  0  0  0  0  0
   -5.6260   -1.4765    2.2722 H   0  0  0  0  0  0  0  0  0  0  0  0
   -6.7437   -3.4962    2.0471 H   0  0  0  0  0  0  0  0  0  0  0  0
   -6.0896   -4.9961    0.4501 H   0  0  0  0  0  0  0  0  0  0  0  0
   -4.3965   -4.4510   -1.0825 H   0  0  0  0  0  0  0  0  0  0  0  0
   -1.7965   -0.7165   -3.6869 H   0  0  0  0  0  0  0  0  0  0  0  0
   -2.8414    0.3305   -5.4982 H   0  0  0  0  0  0  0  0  0  0  0  0
   -5.0920    0.3110   -5.7018 H   0  0  0  0  0  0  0  0  0  0  0  0
   -6.4342   -0.7213   -4.1692 H   0  0  0  0  0  0  0  0  0  0  0  0
   -5.4301   -1.7962   -2.3043 H   0  0  0  0  0  0  0  0  0  0  0  0
   -0.6836   -3.8421   -0.4501 H   0  0  0  0  0  0  0  0  0  0  0  0
    0.4751   -5.7135   -1.3183 H   0  0  0  0  0  0  0  0  0  0  0  0
   -0.0707   -6.1158   -3.3225 H   0  0  0  0  0  0  0  0  0  0  0  0
   -1.8295   -5.7460   -4.5443 H   0  0  0  0  0  0  0  0  0  0  0  0
   -2.9696   -3.8120   -3.7298 H   0  0  0  0  0  0  0  0  0  0  0  0
    1.7414    1.2214    0.8006 O   0  0  0  0  0  0  0  0  0  0  0  0
    1.4793   -1.5384   -1.3933 B   0  0  0  0  0  0  0  0  0  0  0  0
   -0.0970    1.6710   -2.1864 B   0  0  0  0  0  0  0  0  0  0  0  0
    2.7332    2.1675    1.4415 P   0  0  0  0  0  0  0  0  0  0  0  0
    3.9651    2.6362    0.2572 C   0  0  0  0  0  0  0  0  0  0  0  0
    3.5353    1.3621    2.8188 C   0  0  0  0  0  0  0  0  0  0  0  0
    1.9236    3.6422    2.0685 C   0  0  0  0  0  0  0  0  0  0  0  0
    4.3629    1.7800   -0.7074 C   0  0  0  0  0  0  0  0  0  0  0  0
    4.6286    3.8500    0.3858 C   0  0  0  0  0  0  0  0  0  0  0  0
    2.7379    0.7254    3.7726 C   0  0  0  0  0  0  0  0  0  0  0  0
    4.8944    1.3663    2.9581 C   0  0  0  0  0  0  0  0  0  0  0  0
    0.9034    4.2121    1.2968 C   0  0  0  0  0  0  0  0  0  0  0  0
    2.2539    4.1932    3.2368 C   0  0  0  0  0  0  0  0  0  0  0  0
    5.3787    2.0808   -1.5862 C   0  0  0  0  0  0  0  0  0  0  0  0
    3.9177    0.9295   -0.7717 H   0  0  0  0  0  0  0  0  0  0  0  0
    5.6541    4.1457   -0.5145 C   0  0  0  0  0  0  0  0  0  0  0  0
    4.3965    4.4510    1.0825 H   0  0  0  0  0  0  0  0  0  0  0  0
    3.3610    0.1142    4.8337 C   0  0  0  0  0  0  0  0  0  0  0  0
    1.7965    0.7165    3.6869 H   0  0  0  0  0  0  0  0  0  0  0  0
    5.4909    0.7305    4.0620 C   0  0  0  0  0  0  0  0  0  0  0  0
    5.4301    1.7962    2.3043 H   0  0  0  0  0  0  0  0  0  0  0  0
    0.2282    5.3058    1.8220 C   0  0  0  0  0  0  0  0  0  0  0  0
    0.6836    3.8421    0.4501 H   0  0  0  0  0  0  0  0  0  0  0  0
    1.5795    5.3314    3.7298 C   0  0  0  0  0  0  0  0  0  0  0  0
    2.9696    3.8120    3.7298 H   0  0  0  0  0  0  0  0  0  0  0  0
    6.0190    3.2746   -1.4683 C   0  0  0  0  0  0  0  0  0  0  0  0
    5.6260    1.4765   -2.2722 H   0  0  0  0  0  0  0  0  0  0  0  0
    6.0896    4.9961   -0.4501 H   0  0  0  0  0  0  0  0  0  0  0  0
    4.6996    0.1249    4.9516 C   0  0  0  0  0  0  0  0  0  0  0  0
    2.8414   -0.3305    5.4982 H   0  0  0  0  0  0  0  0  0  0  0  0
    6.4342    0.7213    4.1692 H   0  0  0  0  0  0  0  0  0  0  0  0
    0.5567    5.8137    2.9795 C   0  0  0  0  0  0  0  0  0  0  0  0
   -0.4751    5.7135    1.3183 H   0  0  0  0  0  0  0  0  0  0  0  0
    1.8295    5.7460    4.5443 H   0  0  0  0  0  0  0  0  0  0  0  0
    6.7437    3.4962   -2.0471 H   0  0  0  0  0  0  0  0  0  0  0  0
    5.0920   -0.3110    5.7018 H   0  0  0  0  0  0  0  0  0  0  0  0
    0.0707    6.1158    3.3225 H   0  0  0  0  0  0  0  0  0  0  0  0
  1  3  1  0  0  0  0
  2  3  2  0  0  0  0
  4  1  1  0  0  0  0
  5  1  1  0  0  0  0
  6  2  1  0  0  0  0
  7  6  4  0  0  0  0
  8  7  4  0  0  0  0
  9  8  4  0  0  0  0
 10  9  4  0  0  0  0
 11  6  4  0  0  0  0
 12  2  1  0  0  0  0
 13 12  4  0  0  0  0
 14 13  4  0  0  0  0
 15 14  4  0  0  0  0
 16 15  4  0  0  0  0
 17 12  4  0  0  0  0
 18  2  1  0  0  0  0
 19 18  4  0  0  0  0
 20 19  4  0  0  0  0
 21 20  4  0  0  0  0
 22 21  4  0  0  0  0
 23 18  4  0  0  0  0
 24  7  1  0  0  0  0
 25  8  1  0  0  0  0
 26  9  1  0  0  0  0
 27 10  1  0  0  0  0
 28 11  1  0  0  0  0
 29 13  1  0  0  0  0
 30 14  1  0  0  0  0
 31 15  1  0  0  0  0
 32 16  1  0  0  0  0
 33 17  1  0  0  0  0
 34 19  1  0  0  0  0
 35 20  1  0  0  0  0
 36 21  1  0  0  0  0
 37 22  1  0  0  0  0
 38 23  1  0  0  0  0
 39  1  1  0  0  0  0
 40  1  1  0  0  0  0
 41  1  1  0  0  0  0
 42 39  2  0  0  0  0
 43 42  1  0  0  0  0
 44 42  1  0  0  0  0
 45 42  1  0  0  0  0
 46 43  4  0  0  0  0
 47 43  4  0  0  0  0
 48 44  4  0  0  0  0
 49 44  4  0  0  0  0
 50 45  4  0  0  0  0
 51 45  4  0  0  0  0
 52 46  4  0  0  0  0
 53 46  1  0  0  0  0
 54 47  4  0  0  0  0
 55 47  1  0  0  0  0
 56 48  4  0  0  0  0
 57 48  1  0  0  0  0
 58 49  4  0  0  0  0
 59 49  1  0  0  0  0
 60 50  4  0  0  0  0
 61 50  1  0  0  0  0
 62 51  4  0  0  0  0
 63 51  1  0  0  0  0
 64 52  4  0  0  0  0
 65 52  1  0  0  0  0
 66 54  1  0  0  0  0
 67 56  4  0  0  0  0
 68 56  1  0  0  0  0
 69 58  1  0  0  0  0
 70 60  4  0  0  0  0
 71 60  1  0  0  0  0
 72 62  1  0  0  0  0
 73 64  1  0  0  0  0
 74 67  1  0  0  0  0
 75 70  1  0  0  0  0
 10 11  4  0  0  0  0
 16 17  4  0  0  0  0
 22 23  4  0  0  0  0
 54 64  4  0  0  0  0
 58 67  4  0  0  0  0
 62 70  4  0  0  0  0
M  END
$$$$
DICCAX

From CSD data. Using bond type 'Any'. Matching problem. No disordered atoms. Largest molecule.
 60 66  0  0  0  0  0  0  0  0999 V2000
    4.2583    4.4606   11.3488 P   0  0  0  0  0  0  0  0  0  0  0  0
    6.2715    6.7235    8.8291 O   0  0  0  0  0  0  0  0  0  0  0  0
    4.2214    5.7950    8.3678 O   0  0  0  0  0  0  0  0  0  0  0  0
    5.2194    5.4049   10.6159 N   0  0  0  0  0  0  0  0  0  0  0  0
    5.9009    7.0261    7.5299 C   0  0  0  0  0  0  0  0  0  0  0  0
    4.6936    6.4604    7.2370 C   0  0  0  0  0  0  0  0  0  0  0  0
    4.8897    1.2125   13.0193 C   0  0  0  0  0  0  0  0  0  0  0  0
    5.2266    5.9405    9.3428 B   0  0  0  0  0  0  0  0  0  0  0  0
    4.0836    6.5701    6.0074 C   0  0  0  0  0  0  0  0  0  0  0  0
    4.7932    7.2849    5.0441 C   0  0  0  0  0  0  0  0  0  0  0  0
    4.5031    2.3002    9.7155 C   0  0  0  0  0  0  0  0  0  0  0  0
    6.6056    7.7388    6.5787 C   0  0  0  0  0  0  0  0  0  0  0  0
    5.7647    4.5323   13.6123 C   0  0  0  0  0  0  0  0  0  0  0  0
    6.0053    7.8542    5.3346 C   0  0  0  0  0  0  0  0  0  0  0  0
    4.2118    2.5339   13.1718 N   0  0  0  0  0  0  0  0  0  0  0  0
    5.0024    3.5944   12.5764 N   0  0  0  0  0  0  0  0  0  0  0  0
    3.5097    3.1656   10.4634 N   0  0  0  0  0  0  0  0  0  0  0  0
    7.4239    8.1095    6.8497 H   0  0  0  0  0  0  0  0  0  0  0  0
    4.4070    7.4212    4.1631 H   0  0  0  0  0  0  0  0  0  0  0  0
    3.2033    6.1449    5.8574 H   0  0  0  0  0  0  0  0  0  0  0  0
    6.4999    8.2601    4.6956 H   0  0  0  0  0  0  0  0  0  0  0  0
    6.2229    5.1554   13.1428 H   0  0  0  0  0  0  0  0  0  0  0  0
    6.2000    3.7787   13.9899 H   0  0  0  0  0  0  0  0  0  0  0  0
    5.3742    5.0048   14.2562 H   0  0  0  0  0  0  0  0  0  0  0  0
    5.1231    2.9900    9.1491 H   0  0  0  0  0  0  0  0  0  0  0  0
    4.9060    1.5559    9.9963 H   0  0  0  0  0  0  0  0  0  0  0  0
    3.7914    1.8284    9.2459 H   0  0  0  0  0  0  0  0  0  0  0  0
    5.6952    1.5057   13.4090 H   0  0  0  0  0  0  0  0  0  0  0  0
    4.4120    0.6381   13.5543 H   0  0  0  0  0  0  0  0  0  0  0  0
    5.1709    0.6812   12.2956 H   0  0  0  0  0  0  0  0  0  0  0  0
    2.6173    2.7096   12.8552 P   0  0  0  0  0  0  0  0  0  0  0  0
    0.6041    0.4467   15.3749 O   0  0  0  0  0  0  0  0  0  0  0  0
    2.6542    1.3752   15.8362 O   0  0  0  0  0  0  0  0  0  0  0  0
    1.6562    1.7653   13.5881 N   0  0  0  0  0  0  0  0  0  0  0  0
    0.9747    0.1441   16.6742 C   0  0  0  0  0  0  0  0  0  0  0  0
    2.1820    0.7098   16.9670 C   0  0  0  0  0  0  0  0  0  0  0  0
    1.9859    5.9577   11.1847 C   0  0  0  0  0  0  0  0  0  0  0  0
    1.6490    1.2297   14.8613 B   0  0  0  0  0  0  0  0  0  0  0  0
    2.7920    0.6001   18.1966 C   0  0  0  0  0  0  0  0  0  0  0  0
    2.0823   -0.1147   19.1599 C   0  0  0  0  0  0  0  0  0  0  0  0
    2.3724    4.8700   14.4885 C   0  0  0  0  0  0  0  0  0  0  0  0
    0.2700   -0.5686   17.6254 C   0  0  0  0  0  0  0  0  0  0  0  0
    1.1108    2.6379   10.5917 C   0  0  0  0  0  0  0  0  0  0  0  0
    0.8702   -0.6840   18.8695 C   0  0  0  0  0  0  0  0  0  0  0  0
    2.6637    4.6363   11.0322 N   0  0  0  0  0  0  0  0  0  0  0  0
    1.8732    3.5758   11.6276 N   0  0  0  0  0  0  0  0  0  0  0  0
    3.3659    4.0046   13.7406 N   0  0  0  0  0  0  0  0  0  0  0  0
   -0.5483   -0.9393   17.3543 H   0  0  0  0  0  0  0  0  0  0  0  0
    2.4685   -0.2510   20.0409 H   0  0  0  0  0  0  0  0  0  0  0  0
    3.6723    1.0253   18.3467 H   0  0  0  0  0  0  0  0  0  0  0  0
    0.3757   -1.0899   19.5084 H   0  0  0  0  0  0  0  0  0  0  0  0
    0.6527    2.0148   11.0612 H   0  0  0  0  0  0  0  0  0  0  0  0
    0.6756    3.3915   10.2141 H   0  0  0  0  0  0  0  0  0  0  0  0
    1.5014    2.1654    9.9479 H   0  0  0  0  0  0  0  0  0  0  0  0
    1.7525    4.1802   15.0549 H   0  0  0  0  0  0  0  0  0  0  0  0
    1.9695    5.6143   14.2078 H   0  0  0  0  0  0  0  0  0  0  0  0
    3.0841    5.3418   14.9581 H   0  0  0  0  0  0  0  0  0  0  0  0
    1.1804    5.6645   10.7950 H   0  0  0  0  0  0  0  0  0  0  0  0
    2.4636    6.5321   10.6498 H   0  0  0  0  0  0  0  0  0  0  0  0
    1.7047    6.4890   11.9084 H   0  0  0  0  0  0  0  0  0  0  0  0
  1  4  1  0  0  0  0
  2  5  1  0  0  0  0
  3  6  1  0  0  0  0
  4  8  1  0  0  0  0
  5  6  1  0  0  0  0
  6  9  1  0  0  0  0
  7 15  1  0  0  0  0
  8  2  1  0  0  0  0
  9 10  1  0  0  0  0
 10 14  1  0  0  0  0
 11 17  1  0  0  0  0
 12  5  1  0  0  0  0
 13 16  1  0  0  0  0
 14 12  1  0  0  0  0
 15 16  1  0  0  0  0
 16  1  1  0  0  0  0
 17  1  1  0  0  0  0
 18 12  1  0  0  0  0
 19 10  1  0  0  0  0
 20  9  1  0  0  0  0
 21 14  1  0  0  0  0
 22 13  1  0  0  0  0
 23 13  1  0  0  0  0
 24 13  1  0  0  0  0
 25 11  1  0  0  0  0
 26 11  1  0  0  0  0
 27 11  1  0  0  0  0
 28  7  1  0  0  0  0
 29  7  1  0  0  0  0
 30  7  1  0  0  0  0
 31 15  1  0  0  0  0
 32 35  1  0  0  0  0
 33 36  1  0  0  0  0
 34 31  1  0  0  0  0
 35 36  1  0  0  0  0
 36 39  1  0  0  0  0
 37 45  1  0  0  0  0
 38 32  1  0  0  0  0
 39 40  1  0  0  0  0
 40 44  1  0  0  0  0
 41 47  1  0  0  0  0
 42 35  1  0  0  0  0
 43 46  1  0  0  0  0
 44 42  1  0  0  0  0
 45  1  1  0  0  0  0
 46 31  1  0  0  0  0
 47 15  1  0  0  0  0
 48 42  1  0  0  0  0
 49 40  1  0  0  0  0
 50 39  1  0  0  0  0
 51 44  1  0  0  0  0
 52 43  1  0  0  0  0
 53 43  1  0  0  0  0
 54 43  1  0  0  0  0
 55 41  1  0  0  0  0
 56 41  1  0  0  0  0
 57 41  1  0  0  0  0
 58 37  1  0  0  0  0
 59 37  1  0  0  0  0
 60 37  1  0  0  0  0
  3  8  1  0  0  0  0
 17 45  1  0  0  0  0
 31 47  1  0  0  0  0
 33 38  1  0  0  0  0
 34 38  1  0  0  0  0
 45 46  1  0  0  0  0
M  END
$$$$
DINSOM

From CSD data. Using bond type 'Any'. No disordered atoms. Largest molecule.
125162  0  0  0  0  0  0  0  0999 V2000
   -0.7162   13.8191   18.6372 B   0  0  0  0  0  0  0  0  0  0  0  0
   -1.5123   14.3333   19.2320 H   0  0  0  0  0  0  0  0  0  0  0  0
    0.8214   14.6288   18.2208 B   0  0  0  0  0  0  0  0  0  0  0  0
    0.8122   15.7148   18.4956 H   0  0  0  0  0  0  0  0  0  0  0  0
    0.7248   13.3010   19.5124 B   0  0  0  0  0  0  0  0  0  0  0  0
    0.9276   13.5082   20.5349 H   0  0  0  0  0  0  0  0  0  0  0  0
   -0.4749   12.1056   18.9828 B   0  0  0  0  0  0  0  0  0  0  0  0
   -1.0689   11.6278   19.6002 H   0  0  0  0  0  0  0  0  0  0  0  0
   -1.0240   12.5968   17.3995 B   0  0  0  0  0  0  0  0  0  0  0  0
   -1.8814   12.3953   17.0794 H   0  0  0  0  0  0  0  0  0  0  0  0
   -0.3358   14.1836   16.9491 B   0  0  0  0  0  0  0  0  0  0  0  0
   -0.9341   14.8322   16.3996 H   0  0  0  0  0  0  0  0  0  0  0  0
    2.6843   13.4251   18.5038 Pt  0  0  0  0  0  0  0  0  0  0  0  0
    1.2432   11.6950   18.9318 B   0  0  0  0  0  0  0  0  0  0  0  0
    1.5252   11.1481   19.5719 H   0  0  0  0  0  0  0  0  0  0  0  0
    0.1131   11.2901   17.5099 B   0  0  0  0  0  0  0  0  0  0  0  0
   -0.1162   10.1887   17.2210 H   0  0  0  0  0  0  0  0  0  0  0  0
    0.2188   12.6563   16.1645 B   0  0  0  0  0  0  0  0  0  0  0  0
   -0.0054   12.4721   15.1534 H   0  0  0  0  0  0  0  0  0  0  0  0
    1.3998   14.0148   16.6120 B   0  0  0  0  0  0  0  0  0  0  0  0
    1.4117   11.5319   17.7308 H   0  0  0  0  0  0  0  0  0  0  0  0
    1.3223   12.5296   16.2863 H   0  0  0  0  0  0  0  0  0  0  0  0
    4.9313   14.1337   12.5532 B   0  0  0  0  0  0  0  0  0  0  0  0
    5.6322   14.9473   12.0094 H   0  0  0  0  0  0  0  0  0  0  0  0
    3.3459   14.8091   12.9582 B   0  0  0  0  0  0  0  0  0  0  0  0
    3.2697   15.9834   12.7175 H   0  0  0  0  0  0  0  0  0  0  0  0
    3.5414   13.5332   11.6412 B   0  0  0  0  0  0  0  0  0  0  0  0
    3.3756   13.9303   10.5932 H   0  0  0  0  0  0  0  0  0  0  0  0
    4.8351   12.4107   12.1227 B   0  0  0  0  0  0  0  0  0  0  0  0
    5.5655   11.8581   11.4146 H   0  0  0  0  0  0  0  0  0  0  0  0
    5.3029   12.8808   13.7711 B   0  0  0  0  0  0  0  0  0  0  0  0
    6.2343   12.7215   14.1705 H   0  0  0  0  0  0  0  0  0  0  0  0
    4.4883   14.3870   14.2470 B   0  0  0  0  0  0  0  0  0  0  0  0
    4.9324   15.1967   14.7285 H   0  0  0  0  0  0  0  0  0  0  0  0
    1.5716   13.4671   12.6229 Pt  0  0  0  0  0  0  0  0  0  0  0  0
    3.1568   11.8830   12.1170 B   0  0  0  0  0  0  0  0  0  0  0  0
    2.8901   11.0905   11.4429 H   0  0  0  0  0  0  0  0  0  0  0  0
    4.2942   11.4762   13.5361 B   0  0  0  0  0  0  0  0  0  0  0  0
    4.6030   10.4957   13.6805 H   0  0  0  0  0  0  0  0  0  0  0  0
    4.0326   12.7925   14.9636 B   0  0  0  0  0  0  0  0  0  0  0  0
    4.1715   12.3378   15.9181 H   0  0  0  0  0  0  0  0  0  0  0  0
    2.7621   14.0838   14.5274 B   0  0  0  0  0  0  0  0  0  0  0  0
    3.1433   11.6278   13.3123 H   0  0  0  0  0  0  0  0  0  0  0  0
    2.7491   12.7215   14.7115 H   0  0  0  0  0  0  0  0  0  0  0  0
    2.0482   14.6576   15.5720 O   0  0  0  0  0  0  0  0  0  0  0  0
    4.1861   15.1958   18.2240 P   0  0  0  0  0  0  0  0  0  0  0  0
    3.6005   16.6588   17.3173 C   0  0  0  0  0  0  0  0  0  0  0  0
    4.2474   17.3885   17.4216 H   0  0  0  0  0  0  0  0  0  0  0  0
    2.7324   16.9396   17.6752 H   0  0  0  0  0  0  0  0  0  0  0  0
    3.5070   16.4392   16.3672 H   0  0  0  0  0  0  0  0  0  0  0  0
    5.8558   14.9626   17.5439 C   0  0  0  0  0  0  0  0  0  0  0  0
    6.2446   15.8365   17.3257 H   0  0  0  0  0  0  0  0  0  0  0  0
    5.8041   14.4179   16.7301 H   0  0  0  0  0  0  0  0  0  0  0  0
    6.4188   14.5106   18.2048 H   0  0  0  0  0  0  0  0  0  0  0  0
    4.4425   15.8299   19.9260 C   0  0  0  0  0  0  0  0  0  0  0  0
    3.3408   16.0257   20.7474 C   0  0  0  0  0  0  0  0  0  0  0  0
    2.4697   15.8552   20.4099 H   0  0  0  0  0  0  0  0  0  0  0  0
    3.4898   16.4631   22.0418 C   0  0  0  0  0  0  0  0  0  0  0  0
    2.7241   16.6237   22.5800 H   0  0  0  0  0  0  0  0  0  0  0  0
    4.7409   16.6646   22.5544 C   0  0  0  0  0  0  0  0  0  0  0  0
    4.8461   17.0115   23.4312 H   0  0  0  0  0  0  0  0  0  0  0  0
    5.8506   16.3595   21.7897 C   0  0  0  0  0  0  0  0  0  0  0  0
    6.7150   16.4126   22.1814 H   0  0  0  0  0  0  0  0  0  0  0  0
    5.7288   15.9873   20.4868 C   0  0  0  0  0  0  0  0  0  0  0  0
    6.5036   15.8332   19.9604 H   0  0  0  0  0  0  0  0  0  0  0  0
    4.1882   11.9239   19.4631 P   0  0  0  0  0  0  0  0  0  0  0  0
    5.9604   12.3166   19.6342 C   0  0  0  0  0  0  0  0  0  0  0  0
    6.3987   11.6245   20.1710 H   0  0  0  0  0  0  0  0  0  0  0  0
    6.0609   13.1860   20.0769 H   0  0  0  0  0  0  0  0  0  0  0  0
    6.3743   12.3535   18.7466 H   0  0  0  0  0  0  0  0  0  0  0  0
    4.2551   10.3557   18.5409 C   0  0  0  0  0  0  0  0  0  0  0  0
    4.5790   10.5254   17.6317 H   0  0  0  0  0  0  0  0  0  0  0  0
    3.3591    9.9619   18.5008 H   0  0  0  0  0  0  0  0  0  0  0  0
    4.8646    9.7363   18.9944 H   0  0  0  0  0  0  0  0  0  0  0  0
    3.7801   11.5376   21.1920 C   0  0  0  0  0  0  0  0  0  0  0  0
    3.7638   10.2597   21.6735 C   0  0  0  0  0  0  0  0  0  0  0  0
    3.9457    9.5387   21.0835 H   0  0  0  0  0  0  0  0  0  0  0  0
    3.4952    9.9949   22.9793 C   0  0  0  0  0  0  0  0  0  0  0  0
    3.4412    9.0935   23.2717 H   0  0  0  0  0  0  0  0  0  0  0  0
    3.2936   11.0119   23.8800 C   0  0  0  0  0  0  0  0  0  0  0  0
    3.1433   10.8250   24.8002 H   0  0  0  0  0  0  0  0  0  0  0  0
    3.3154   12.2840   23.4268 C   0  0  0  0  0  0  0  0  0  0  0  0
    3.1575   13.0050   24.0260 H   0  0  0  0  0  0  0  0  0  0  0  0
    3.5658   12.5392   22.0984 C   0  0  0  0  0  0  0  0  0  0  0  0
    3.5910   13.4405   21.8019 H   0  0  0  0  0  0  0  0  0  0  0  0
   -0.0120   15.1653   12.8945 P   0  0  0  0  0  0  0  0  0  0  0  0
   -1.6763   14.8993   13.5700 C   0  0  0  0  0  0  0  0  0  0  0  0
   -2.1525   15.7544   13.6126 H   0  0  0  0  0  0  0  0  0  0  0  0
   -1.6057   14.5200   14.4719 H   0  0  0  0  0  0  0  0  0  0  0  0
   -2.1681   14.2788   12.9932 H   0  0  0  0  0  0  0  0  0  0  0  0
    0.5006   16.6684   13.7655 C   0  0  0  0  0  0  0  0  0  0  0  0
   -0.2179   17.3322   13.7228 H   0  0  0  0  0  0  0  0  0  0  0  0
    1.3077   17.0306   13.3450 H   0  0  0  0  0  0  0  0  0  0  0  0
    0.6905   16.4527   14.7037 H   0  0  0  0  0  0  0  0  0  0  0  0
   -0.2772   15.7014   11.1767 C   0  0  0  0  0  0  0  0  0  0  0  0
    0.8235   16.1504   10.4431 C   0  0  0  0  0  0  0  0  0  0  0  0
    1.6644   16.2488   10.8756 H   0  0  0  0  0  0  0  0  0  0  0  0
    0.7069   16.4535    9.0948 C   0  0  0  0  0  0  0  0  0  0  0  0
    1.4589   16.7766    8.6120 H   0  0  0  0  0  0  0  0  0  0  0  0
   -0.5068   16.2847    8.4519 C   0  0  0  0  0  0  0  0  0  0  0  0
   -0.5793   16.4634    7.5214 H   0  0  0  0  0  0  0  0  0  0  0  0
   -1.5971   15.8645    9.1515 C   0  0  0  0  0  0  0  0  0  0  0  0
   -2.4339   15.7720    8.7113 H   0  0  0  0  0  0  0  0  0  0  0  0
   -1.4938   15.5651   10.5224 C   0  0  0  0  0  0  0  0  0  0  0  0
   -2.2590   15.2676   10.9997 H   0  0  0  0  0  0  0  0  0  0  0  0
    0.1434   11.8164   11.7536 P   0  0  0  0  0  0  0  0  0  0  0  0
   -1.6642   11.9981   11.8423 C   0  0  0  0  0  0  0  0  0  0  0  0
   -2.0917   11.2002   11.4671 H   0  0  0  0  0  0  0  0  0  0  0  0
   -1.9392   12.7875   11.3323 H   0  0  0  0  0  0  0  0  0  0  0  0
   -1.9360   12.1034   12.7790 H   0  0  0  0  0  0  0  0  0  0  0  0
    0.3501   10.1849   12.5419 C   0  0  0  0  0  0  0  0  0  0  0  0
    0.0689   10.2380   13.4802 H   0  0  0  0  0  0  0  0  0  0  0  0
    1.2911    9.9174   12.4981 H   0  0  0  0  0  0  0  0  0  0  0  0
   -0.2008    9.5236   12.0738 H   0  0  0  0  0  0  0  0  0  0  0  0
    0.3728   11.5856    9.9559 C   0  0  0  0  0  0  0  0  0  0  0  0
    0.8791   12.6524    9.1996 C   0  0  0  0  0  0  0  0  0  0  0  0
    1.1572   13.4505    9.6334 H   0  0  0  0  0  0  0  0  0  0  0  0
    0.9745   12.5411    7.8118 C   0  0  0  0  0  0  0  0  0  0  0  0
    1.3239   13.2628    7.3018 H   0  0  0  0  0  0  0  0  0  0  0  0
    0.5619   11.3841    7.1773 C   0  0  0  0  0  0  0  0  0  0  0  0
    0.6196   11.3153    6.2321 H   0  0  0  0  0  0  0  0  0  0  0  0
    0.0620   10.3211    7.9194 C   0  0  0  0  0  0  0  0  0  0  0  0
   -0.1993    9.5167    7.4871 H   0  0  0  0  0  0  0  0  0  0  0  0
   -0.0534   10.4420    9.2931 C   0  0  0  0  0  0  0  0  0  0  0  0
   -0.4312    9.7273    9.7916 H   0  0  0  0  0  0  0  0  0  0  0  0
  1  2  1  0  0  0  0
  3  1  1  0  0  0  0
  4  3  1  0  0  0  0
  5  1  1  0  0  0  0
  6  5  1  0  0  0  0
  7  1  1  0  0  0  0
  8  7  1  0  0  0  0
  9  1  1  0  0  0  0
 10  9  1  0  0  0  0
 11  1  1  0  0  0  0
 12 11  1  0  0  0  0
 13  3  1  0  0  0  0
 14  5  1  0  0  0  0
 15 14  1  0  0  0  0
 16  7  1  0  0  0  0
 17 16  1  0  0  0  0
 18  9  1  0  0  0  0
 19 18  1  0  0  0  0
 20  3  1  0  0  0  0
 21 14  1  0  0  0  0
 22 18  1  0  0  0  0
 23 24  1  0  0  0  0
 25 23  1  0  0  0  0
 26 25  1  0  0  0  0
 27 23  1  0  0  0  0
 28 27  1  0  0  0  0
 29 23  1  0  0  0  0
 30 29  1  0  0  0  0
 31 23  1  0  0  0  0
 32 31  1  0  0  0  0
 33 23  1  0  0  0  0
 34 33  1  0  0  0  0
 35 25  1  0  0  0  0
 36 27  1  0  0  0  0
 37 36  1  0  0  0  0
 38 29  1  0  0  0  0
 39 38  1  0  0  0  0
 40 31  1  0  0  0  0
 41 40  1  0  0  0  0
 42 25  1  0  0  0  0
 43 36  1  0  0  0  0
 44 40  1  0  0  0  0
 45 20  1  0  0  0  0
 46 13  1  0  0  0  0
 47 46  1  0  0  0  0
 48 47  1  0  0  0  0
 49 47  1  0  0  0  0
 50 47  1  0  0  0  0
 51 46  1  0  0  0  0
 52 51  1  0  0  0  0
 53 51  1  0  0  0  0
 54 51  1  0  0  0  0
 55 46  1  0  0  0  0
 56 55  4  0  0  0  0
 57 56  1  0  0  0  0
 58 56  4  0  0  0  0
 59 58  1  0  0  0  0
 60 58  4  0  0  0  0
 61 60  1  0  0  0  0
 62 60  4  0  0  0  0
 63 62  1  0  0  0  0
 64 55  4  0  0  0  0
 65 64  1  0  0  0  0
 66 13  1  0  0  0  0
 67 66  1  0  0  0  0
 68 67  1  0  0  0  0
 69 67  1  0  0  0  0
 70 67  1  0  0  0  0
 71 66  1  0  0  0  0
 72 71  1  0  0  0  0
 73 71  1  0  0  0  0
 74 71  1  0  0  0  0
 75 66  1  0  0  0  0
 76 75  4  0  0  0  0
 77 76  1  0  0  0  0
 78 76  4  0  0  0  0
 79 78  1  0  0  0  0
 80 78  4  0  0  0  0
 81 80  1  0  0  0  0
 82 80  4  0  0  0  0
 83 82  1  0  0  0  0
 84 75  4  0  0  0  0
 85 84  1  0  0  0  0
 86 35  1  0  0  0  0
 87 86  1  0  0  0  0
 88 87  1  0  0  0  0
 89 87  1  0  0  0  0
 90 87  1  0  0  0  0
 91 86  1  0  0  0  0
 92 91  1  0  0  0  0
 93 91  1  0  0  0  0
 94 91  1  0  0  0  0
 95 86  1  0  0  0  0
 96 95  4  0  0  0  0
 97 96  1  0  0  0  0
 98 96  4  0  0  0  0
 99 98  1  0  0  0  0
100 98  4  0  0  0  0
101100  1  0  0  0  0
102100  4  0  0  0  0
103102  1  0  0  0  0
104 95  4  0  0  0  0
105104  1  0  0  0  0
106 35  1  0  0  0  0
107106  1  0  0  0  0
108107  1  0  0  0  0
109107  1  0  0  0  0
110107  1  0  0  0  0
111106  1  0  0  0  0
112111  1  0  0  0  0
113111  1  0  0  0  0
114111  1  0  0  0  0
115106  1  0  0  0  0
116115  4  0  0  0  0
117116  1  0  0  0  0
118116  4  0  0  0  0
119118  1  0  0  0  0
120118  4  0  0  0  0
121120  1  0  0  0  0
122120  4  0  0  0  0
123122  1  0  0  0  0
124115  4  0  0  0  0
125124  1  0  0  0  0
  3  5  1  0  0  0  0
  3 11  1  0  0  0  0
  5  7  1  0  0  0  0
  5 13  1  0  0  0  0
  7  9  1  0  0  0  0
  7 14  1  0  0  0  0
  9 11  1  0  0  0  0
  9 16  1  0  0  0  0
 11 18  1  0  0  0  0
 11 20  1  0  0  0  0
 13 14  1  0  0  0  0
 13 20  1  0  0  0  0
 14 16  1  0  0  0  0
 16 18  1  0  0  0  0
 16 21  1  0  0  0  0
 18 20  1  0  0  0  0
 20 22  1  0  0  0  0
 25 27  1  0  0  0  0
 25 33  1  0  0  0  0
 27 29  1  0  0  0  0
 27 35  1  0  0  0  0
 29 31  1  0  0  0  0
 29 36  1  0  0  0  0
 31 33  1  0  0  0  0
 31 38  1  0  0  0  0
 33 40  1  0  0  0  0
 33 42  1  0  0  0  0
 35 36  1  0  0  0  0
 35 42  1  0  0  0  0
 36 38  1  0  0  0  0
 38 40  1  0  0  0  0
 38 43  1  0  0  0  0
 40 42  1  0  0  0  0
 42 44  1  0  0  0  0
 42 45  1  0  0  0  0
 62 64  4  0  0  0  0
 82 84  4  0  0  0  0
102104  4  0  0  0  0
122124  4  0  0  0  0
M  END
$$$$
DIQVIK

From CSD data. Using bond type 'Any'. No disordered atoms. Largest molecule.
122126  0  0  0  0  0  0  0  0999 V2000
    2.4314    1.8434    4.9991 Fe  0  0  0  0  0  0  0  0  0  0  0  0
    3.3312    3.2043    5.6570 C   0  0  0  0  0  0  0  0  0  0  0  0
    3.9882    3.9810    6.2285 O   0  0  0  0  0  0  0  0  0  0  0  0
    1.4432    0.6958    4.0207 C   0  0  0  0  0  0  0  0  0  0  0  0
    0.9409   -0.3337    3.7036 O   0  0  0  0  0  0  0  0  0  0  0  0
    2.3948    3.4812    3.8772 B   0  0  0  0  0  0  0  0  0  0  0  0
    2.7081    4.8230    3.4937 N   0  0  0  0  0  0  0  0  0  0  0  0
    1.5431    2.2024    3.2588 B   0  0  0  0  0  0  0  0  0  0  0  0
    1.3261    1.4896    6.9365 P   0  0  0  0  0  0  0  0  0  0  0  0
    0.1816    2.8666    7.4305 C   0  0  0  0  0  0  0  0  0  0  0  0
   -0.1767    2.6362    8.3350 H   0  0  0  0  0  0  0  0  0  0  0  0
   -1.0282    3.0097    6.4978 C   0  0  0  0  0  0  0  0  0  0  0  0
   -0.7249    3.3149    5.6055 H   0  0  0  0  0  0  0  0  0  0  0  0
   -1.4687    2.1290    6.3884 H   0  0  0  0  0  0  0  0  0  0  0  0
   -2.0294    4.0179    7.0737 C   0  0  0  0  0  0  0  0  0  0  0  0
   -2.7859    4.1253    6.4431 H   0  0  0  0  0  0  0  0  0  0  0  0
   -2.3910    3.6693    7.9270 H   0  0  0  0  0  0  0  0  0  0  0  0
   -1.3783    5.3720    7.3158 C   0  0  0  0  0  0  0  0  0  0  0  0
   -2.0235    5.9657    7.7786 H   0  0  0  0  0  0  0  0  0  0  0  0
   -1.1544    5.7862    6.4451 H   0  0  0  0  0  0  0  0  0  0  0  0
   -0.1101    5.2559    8.1593 C   0  0  0  0  0  0  0  0  0  0  0  0
   -0.3512    4.9764    9.0789 H   0  0  0  0  0  0  0  0  0  0  0  0
    0.3300    6.1402    8.2140 H   0  0  0  0  0  0  0  0  0  0  0  0
    0.8719    4.2352    7.5599 C   0  0  0  0  0  0  0  0  0  0  0  0
    1.1722    4.5439    6.6676 H   0  0  0  0  0  0  0  0  0  0  0  0
    1.6673    4.1542    8.1437 H   0  0  0  0  0  0  0  0  0  0  0  0
    0.1296    0.0621    6.9244 C   0  0  0  0  0  0  0  0  0  0  0  0
   -0.4516    0.2117    6.1248 H   0  0  0  0  0  0  0  0  0  0  0  0
   -0.8421   -0.0720    8.1124 C   0  0  0  0  0  0  0  0  0  0  0  0
   -0.3343   -0.3110    8.9286 H   0  0  0  0  0  0  0  0  0  0  0  0
   -1.2889    0.7966    8.2725 H   0  0  0  0  0  0  0  0  0  0  0  0
   -1.8996   -1.1446    7.8391 C   0  0  0  0  0  0  0  0  0  0  0  0
   -2.4921   -1.2297    8.6279 H   0  0  0  0  0  0  0  0  0  0  0  0
   -2.4545   -0.8676    7.0679 H   0  0  0  0  0  0  0  0  0  0  0  0
   -1.2591   -2.4949    7.5404 C   0  0  0  0  0  0  0  0  0  0  0  0
   -1.9631   -3.1463    7.2963 H   0  0  0  0  0  0  0  0  0  0  0  0
   -0.7998   -2.8283    8.3526 H   0  0  0  0  0  0  0  0  0  0  0  0
   -0.2532   -2.3811    6.3964 C   0  0  0  0  0  0  0  0  0  0  0  0
   -0.7302   -2.1529    5.5606 H   0  0  0  0  0  0  0  0  0  0  0  0
    0.1961   -3.2540    6.2654 H   0  0  0  0  0  0  0  0  0  0  0  0
    0.7998   -1.3059    6.6911 C   0  0  0  0  0  0  0  0  0  0  0  0
    1.4285   -1.2409    5.9296 H   0  0  0  0  0  0  0  0  0  0  0  0
    1.3172   -1.5615    7.4955 H   0  0  0  0  0  0  0  0  0  0  0  0
    2.3380    1.0170    8.4912 C   0  0  0  0  0  0  0  0  0  0  0  0
    2.4598    0.0251    8.4522 H   0  0  0  0  0  0  0  0  0  0  0  0
    1.6882    1.3151    9.8579 C   0  0  0  0  0  0  0  0  0  0  0  0
    0.7743    0.9352    9.8814 H   0  0  0  0  0  0  0  0  0  0  0  0
    1.6184    2.2936    9.9868 H   0  0  0  0  0  0  0  0  0  0  0  0
    2.5334    0.7008   10.9982 C   0  0  0  0  0  0  0  0  0  0  0  0
    2.1166    0.9124   11.8690 H   0  0  0  0  0  0  0  0  0  0  0  0
    2.5553   -0.2844   10.8986 H   0  0  0  0  0  0  0  0  0  0  0  0
    3.9714    1.2523   10.9669 C   0  0  0  0  0  0  0  0  0  0  0  0
    3.9580    2.2206   11.1719 H   0  0  0  0  0  0  0  0  0  0  0  0
    4.5141    0.7993   11.6601 H   0  0  0  0  0  0  0  0  0  0  0  0
    4.6005    1.0271    9.6022 C   0  0  0  0  0  0  0  0  0  0  0  0
    4.7138    0.0554    9.4499 H   0  0  0  0  0  0  0  0  0  0  0  0
    5.4977    1.4455    9.5807 H   0  0  0  0  0  0  0  0  0  0  0  0
    3.7436    1.6173    8.4854 C   0  0  0  0  0  0  0  0  0  0  0  0
    4.1733    1.4392    7.6126 H   0  0  0  0  0  0  0  0  0  0  0  0
    3.6818    2.5976    8.6025 H   0  0  0  0  0  0  0  0  0  0  0  0
    4.1360    0.4502    4.8919 P   0  0  0  0  0  0  0  0  0  0  0  0
    4.1282   -1.1793    5.7226 C   0  0  0  0  0  0  0  0  0  0  0  0
    3.4598   -1.7585    5.3009 H   0  0  0  0  0  0  0  0  0  0  0  0
    3.9059   -1.0616    6.6715 H   0  0  0  0  0  0  0  0  0  0  0  0
    5.0137   -1.5910    5.6445 H   0  0  0  0  0  0  0  0  0  0  0  0
    5.7615    1.0333    5.4688 C   0  0  0  0  0  0  0  0  0  0  0  0
    6.4557    0.4078    5.1740 H   0  0  0  0  0  0  0  0  0  0  0  0
    5.7621    1.0837    6.4470 H   0  0  0  0  0  0  0  0  0  0  0  0
    5.9410    1.9205    5.0959 H   0  0  0  0  0  0  0  0  0  0  0  0
    4.5389   -0.0210    3.2001 C   0  0  0  0  0  0  0  0  0  0  0  0
    4.7340    0.7826    2.6729 H   0  0  0  0  0  0  0  0  0  0  0  0
    3.7774   -0.4938    2.8018 H   0  0  0  0  0  0  0  0  0  0  0  0
    5.3234   -0.6082    3.2020 H   0  0  0  0  0  0  0  0  0  0  0  0
    0.8710    2.0621    1.8384 C   0  0  0  0  0  0  0  0  0  0  0  0
    1.6402    2.2062    0.6601 C   0  0  0  0  0  0  0  0  0  0  0  0
    1.0372    2.0514   -0.5935 C   0  0  0  0  0  0  0  0  0  0  0  0
   -0.3133    1.7727   -0.6662 C   0  0  0  0  0  0  0  0  0  0  0  0
   -0.7160    1.6648   -1.5190 H   0  0  0  0  0  0  0  0  0  0  0  0
   -1.0993    1.6476    0.4694 C   0  0  0  0  0  0  0  0  0  0  0  0
   -0.5053    1.7773    1.7223 C   0  0  0  0  0  0  0  0  0  0  0  0
    3.1252    2.5019    0.7259 C   0  0  0  0  0  0  0  0  0  0  0  0
    3.6279    1.7156    0.4276 H   0  0  0  0  0  0  0  0  0  0  0  0
    3.3739    2.7185    1.6479 H   0  0  0  0  0  0  0  0  0  0  0  0
    3.3327    3.2632    0.1445 H   0  0  0  0  0  0  0  0  0  0  0  0
    1.8192    2.2086   -1.8755 C   0  0  0  0  0  0  0  0  0  0  0  0
    2.0335    3.1546   -2.0130 H   0  0  0  0  0  0  0  0  0  0  0  0
    1.2833    1.8810   -2.6280 H   0  0  0  0  0  0  0  0  0  0  0  0
    2.6497    1.6909   -1.8177 H   0  0  0  0  0  0  0  0  0  0  0  0
   -2.5817    1.3712    0.3198 C   0  0  0  0  0  0  0  0  0  0  0  0
   -3.0913    2.1562    0.6111 H   0  0  0  0  0  0  0  0  0  0  0  0
   -2.8272    0.5995    0.8708 H   0  0  0  0  0  0  0  0  0  0  0  0
   -2.7854    1.1788   -0.6189 H   0  0  0  0  0  0  0  0  0  0  0  0
   -1.3742    1.6143    2.9511 C   0  0  0  0  0  0  0  0  0  0  0  0
   -2.1593    2.1943    2.8740 H   0  0  0  0  0  0  0  0  0  0  0  0
   -0.8608    1.8619    3.7487 H   0  0  0  0  0  0  0  0  0  0  0  0
   -1.6628    0.6813    3.0244 H   0  0  0  0  0  0  0  0  0  0  0  0
    4.3374    5.5100    3.4715 Si  0  0  0  0  0  0  0  0  0  0  0  0
    4.7157    6.6640    4.8948 C   0  0  0  0  0  0  0  0  0  0  0  0
    4.0653    7.3976    4.9007 H   0  0  0  0  0  0  0  0  0  0  0  0
    5.6184    7.0286    4.7894 H   0  0  0  0  0  0  0  0  0  0  0  0
    4.6595    6.1703    5.7383 H   0  0  0  0  0  0  0  0  0  0  0  0
    5.6145    4.1527    3.4000 C   0  0  0  0  0  0  0  0  0  0  0  0
    5.6062    3.6523    4.2427 H   0  0  0  0  0  0  0  0  0  0  0  0
    6.5017    4.5461    3.2626 H   0  0  0  0  0  0  0  0  0  0  0  0
    5.4066    3.5479    2.6573 H   0  0  0  0  0  0  0  0  0  0  0  0
    4.6247    6.4760    1.9001 C   0  0  0  0  0  0  0  0  0  0  0  0
    4.4419    5.9033    1.1266 H   0  0  0  0  0  0  0  0  0  0  0  0
    5.5563    6.7793    1.8685 H   0  0  0  0  0  0  0  0  0  0  0  0
    4.0277    7.2535    1.8802 H   0  0  0  0  0  0  0  0  0  0  0  0
    1.4128    5.8189    2.7973 Si  0  0  0  0  0  0  0  0  0  0  0  0
    1.4388    5.8773    0.9313 C   0  0  0  0  0  0  0  0  0  0  0  0
    2.3169    6.1903    0.6267 H   0  0  0  0  0  0  0  0  0  0  0  0
    0.7451    6.4929    0.6150 H   0  0  0  0  0  0  0  0  0  0  0  0
    1.2691    4.9808    0.5740 H   0  0  0  0  0  0  0  0  0  0  0  0
    1.5764    7.5451    3.5066 C   0  0  0  0  0  0  0  0  0  0  0  0
    1.6668    7.4908    4.4809 H   0  0  0  0  0  0  0  0  0  0  0  0
    0.7781    8.0670    3.2821 H   0  0  0  0  0  0  0  0  0  0  0  0
    2.3693    7.9798    3.1298 H   0  0  0  0  0  0  0  0  0  0  0  0
   -0.2653    5.2064    3.3075 C   0  0  0  0  0  0  0  0  0  0  0  0
   -0.4177    4.3171    2.9248 H   0  0  0  0  0  0  0  0  0  0  0  0
   -0.9519    5.8249    2.9794 H   0  0  0  0  0  0  0  0  0  0  0  0
   -0.3113    5.1553    4.2837 H   0  0  0  0  0  0  0  0  0  0  0  0
  1  2  1  0  0  0  0
  2  3  3  0  0  0  0
  4  1  1  0  0  0  0
  5  4  2  0  0  0  0
  6  1  1  0  0  0  0
  7  6  1  0  0  0  0
  8  4  1  0  0  0  0
  9  1  1  0  0  0  0
 10  9  1  0  0  0  0
 11 10  1  0  0  0  0
 12 10  1  0  0  0  0
 13 12  1  0  0  0  0
 14 12  1  0  0  0  0
 15 12  1  0  0  0  0
 16 15  1  0  0  0  0
 17 15  1  0  0  0  0
 18 15  1  0  0  0  0
 19 18  1  0  0  0  0
 20 18  1  0  0  0  0
 21 18  1  0  0  0  0
 22 21  1  0  0  0  0
 23 21  1  0  0  0  0
 24 10  1  0  0  0  0
 25 24  1  0  0  0  0
 26 24  1  0  0  0  0
 27  9  1  0  0  0  0
 28 27  1  0  0  0  0
 29 27  1  0  0  0  0
 30 29  1  0  0  0  0
 31 29  1  0  0  0  0
 32 29  1  0  0  0  0
 33 32  1  0  0  0  0
 34 32  1  0  0  0  0
 35 32  1  0  0  0  0
 36 35  1  0  0  0  0
 37 35  1  0  0  0  0
 38 35  1  0  0  0  0
 39 38  1  0  0  0  0
 40 38  1  0  0  0  0
 41 27  1  0  0  0  0
 42 41  1  0  0  0  0
 43 41  1  0  0  0  0
 44  9  1  0  0  0  0
 45 44  1  0  0  0  0
 46 44  1  0  0  0  0
 47 46  1  0  0  0  0
 48 46  1  0  0  0  0
 49 46  1  0  0  0  0
 50 49  1  0  0  0  0
 51 49  1  0  0  0  0
 52 49  1  0  0  0  0
 53 52  1  0  0  0  0
 54 52  1  0  0  0  0
 55 52  1  0  0  0  0
 56 55  1  0  0  0  0
 57 55  1  0  0  0  0
 58 44  1  0  0  0  0
 59 58  1  0  0  0  0
 60 58  1  0  0  0  0
 61  1  1  0  0  0  0
 62 61  1  0  0  0  0
 63 62  1  0  0  0  0
 64 62  1  0  0  0  0
 65 62  1  0  0  0  0
 66 61  1  0  0  0  0
 67 66  1  0  0  0  0
 68 66  1  0  0  0  0
 69 66  1  0  0  0  0
 70 61  1  0  0  0  0
 71 70  1  0  0  0  0
 72 70  1  0  0  0  0
 73 70  1  0  0  0  0
 74  8  1  0  0  0  0
 75 74  4  0  0  0  0
 76 75  4  0  0  0  0
 77 76  4  0  0  0  0
 78 77  1  0  0  0  0
 79 77  4  0  0  0  0
 80 74  4  0  0  0  0
 81 75  1  0  0  0  0
 82 81  1  0  0  0  0
 83 81  1  0  0  0  0
 84 81  1  0  0  0  0
 85 76  1  0  0  0  0
 86 85  1  0  0  0  0
 87 85  1  0  0  0  0
 88 85  1  0  0  0  0
 89 79  1  0  0  0  0
 90 89  1  0  0  0  0
 91 89  1  0  0  0  0
 92 89  1  0  0  0  0
 93 80  1  0  0  0  0
 94 93  1  0  0  0  0
 95 93  1  0  0  0  0
 96 93  1  0  0  0  0
 97  7  1  0  0  0  0
 98 97  1  0  0  0  0
 99 98  1  0  0  0  0
100 98  1  0  0  0  0
101 98  1  0  0  0  0
102 97  1  0  0  0  0
103102  1  0  0  0  0
104102  1  0  0  0  0
105102  1  0  0  0  0
106 97  1  0  0  0  0
107106  1  0  0  0  0
108106  1  0  0  0  0
109106  1  0  0  0  0
110  7  1  0  0  0  0
111110  1  0  0  0  0
112111  1  0  0  0  0
113111  1  0  0  0  0
114111  1  0  0  0  0
115110  1  0  0  0  0
116115  1  0  0  0  0
117115  1  0  0  0  0
118115  1  0  0  0  0
119110  1  0  0  0  0
120119  1  0  0  0  0
121119  1  0  0  0  0
122119  1  0  0  0  0
  6  8  1  0  0  0  0
 21 24  1  0  0  0  0
 38 41  1  0  0  0  0
 55 58  1  0  0  0  0
 79 80  4  0  0  0  0
M  END
$$$$
DIWGIB

From CSD data. Using bond type 'Any'. No disordered atoms. Largest molecule.
 89 95  0  0  0  0  0  0  0  0999 V2000
    4.4580    5.1683    1.3096 Ba  0  0  0  0  0  0  0  0  0  0  0  0
    3.0226    7.5209    3.6521 P   0  0  0  0  0  0  0  0  0  0  0  0
    5.8259    2.3633    3.0101 P   0  0  0  0  0  0  0  0  0  0  0  0
    6.5244    6.9511    1.3553 O   0  0  0  0  0  0  0  0  0  0  0  0
    2.3860    3.4483    0.7809 O   0  0  0  0  0  0  0  0  0  0  0  0
    3.7482    6.1020    3.7091 N   0  0  0  0  0  0  0  0  0  0  0  0
    5.0449    3.6908    3.4254 N   0  0  0  0  0  0  0  0  0  0  0  0
    4.2142    5.4370    4.9308 C   0  0  0  0  0  0  0  0  0  0  0  0
    3.5960    5.6126    5.6580 H   0  0  0  0  0  0  0  0  0  0  0  0
    5.0857    5.7807    5.1828 H   0  0  0  0  0  0  0  0  0  0  0  0
    4.3033    3.9286    4.6787 C   0  0  0  0  0  0  0  0  0  0  0  0
    4.7591    3.4967    5.4184 H   0  0  0  0  0  0  0  0  0  0  0  0
    3.4118    3.5539    4.6099 H   0  0  0  0  0  0  0  0  0  0  0  0
    1.5865    7.6055    4.7931 C   0  0  0  0  0  0  0  0  0  0  0  0
    1.2238    8.7701    5.4914 C   0  0  0  0  0  0  0  0  0  0  0  0
    1.7423    9.5364    5.4032 H   0  0  0  0  0  0  0  0  0  0  0  0
    0.1117    8.7932    6.3026 C   0  0  0  0  0  0  0  0  0  0  0  0
   -0.1147    9.5701    6.7613 H   0  0  0  0  0  0  0  0  0  0  0  0
   -0.6720    7.6548    6.4348 C   0  0  0  0  0  0  0  0  0  0  0  0
   -1.4187    7.6612    6.9885 H   0  0  0  0  0  0  0  0  0  0  0  0
   -0.3329    6.5195    5.7393 C   0  0  0  0  0  0  0  0  0  0  0  0
   -0.8677    5.7626    5.8150 H   0  0  0  0  0  0  0  0  0  0  0  0
    0.7833    6.4793    4.9294 C   0  0  0  0  0  0  0  0  0  0  0  0
    0.9991    5.6959    4.4763 H   0  0  0  0  0  0  0  0  0  0  0  0
    4.0102    8.9626    4.2036 C   0  0  0  0  0  0  0  0  0  0  0  0
    5.1087    8.8296    5.0148 C   0  0  0  0  0  0  0  0  0  0  0  0
    5.3556    7.9862    5.3206 H   0  0  0  0  0  0  0  0  0  0  0  0
    5.8541    9.9354    5.3839 C   0  0  0  0  0  0  0  0  0  0  0  0
    6.6097    9.8203    5.9142 H   0  0  0  0  0  0  0  0  0  0  0  0
    5.4958   11.2017    4.9818 C   0  0  0  0  0  0  0  0  0  0  0  0
    6.0068   11.9376    5.2311 H   0  0  0  0  0  0  0  0  0  0  0  0
    4.3576   11.3666    4.1967 C   0  0  0  0  0  0  0  0  0  0  0  0
    4.0879   12.2164    3.9350 H   0  0  0  0  0  0  0  0  0  0  0  0
    3.6321   10.2539    3.8110 C   0  0  0  0  0  0  0  0  0  0  0  0
    2.8766   10.3640    3.2794 H   0  0  0  0  0  0  0  0  0  0  0  0
    4.8713    0.8350    3.3097 C   0  0  0  0  0  0  0  0  0  0  0  0
    4.4212    0.5042    4.5947 C   0  0  0  0  0  0  0  0  0  0  0  0
    4.6616    1.0366    5.3178 H   0  0  0  0  0  0  0  0  0  0  0  0
    3.6140   -0.6224    4.8013 C   0  0  0  0  0  0  0  0  0  0  0  0
    3.3193   -0.8311    5.6580 H   0  0  0  0  0  0  0  0  0  0  0  0
    3.2560   -1.4212    3.7367 C   0  0  0  0  0  0  0  0  0  0  0  0
    2.7143   -2.1645    3.8758 H   0  0  0  0  0  0  0  0  0  0  0  0
    3.7017   -1.1176    2.4640 C   0  0  0  0  0  0  0  0  0  0  0  0
    3.4665   -1.6606    1.7464 H   0  0  0  0  0  0  0  0  0  0  0  0
    4.5012   -0.0028    2.2560 C   0  0  0  0  0  0  0  0  0  0  0  0
    4.7964    0.1909    1.3952 H   0  0  0  0  0  0  0  0  0  0  0  0
    7.3338    2.0744    3.9942 C   0  0  0  0  0  0  0  0  0  0  0  0
    8.1479    0.9680    3.7752 C   0  0  0  0  0  0  0  0  0  0  0  0
    7.8660    0.3071    3.1844 H   0  0  0  0  0  0  0  0  0  0  0  0
    9.3684    0.8249    4.4157 C   0  0  0  0  0  0  0  0  0  0  0  0
    9.9017    0.0836    4.2421 H   0  0  0  0  0  0  0  0  0  0  0  0
    9.7926    1.7880    5.3151 C   0  0  0  0  0  0  0  0  0  0  0  0
   10.6108    1.6930    5.7475 H   0  0  0  0  0  0  0  0  0  0  0  0
    9.0022    2.8855    5.5685 C   0  0  0  0  0  0  0  0  0  0  0  0
    9.2810    3.5261    6.1814 H   0  0  0  0  0  0  0  0  0  0  0  0
    7.7767    3.0404    4.9033 C   0  0  0  0  0  0  0  0  0  0  0  0
    7.2543    3.7920    5.0685 H   0  0  0  0  0  0  0  0  0  0  0  0
    7.3209    6.9065    2.5701 C   0  0  0  0  0  0  0  0  0  0  0  0
    7.9708    6.1883    2.5232 H   0  0  0  0  0  0  0  0  0  0  0  0
    6.7534    6.7620    3.3427 H   0  0  0  0  0  0  0  0  0  0  0  0
    8.0216    8.2548    2.6665 C   0  0  0  0  0  0  0  0  0  0  0  0
    8.0308    8.5740    3.5824 H   0  0  0  0  0  0  0  0  0  0  0  0
    8.9348    8.1926    2.3456 H   0  0  0  0  0  0  0  0  0  0  0  0
    7.2162    9.1621    1.7974 C   0  0  0  0  0  0  0  0  0  0  0  0
    7.7631    9.8747    1.4310 H   0  0  0  0  0  0  0  0  0  0  0  0
    6.4724    9.5484    2.2850 H   0  0  0  0  0  0  0  0  0  0  0  0
    6.7319    8.2259    0.7079 C   0  0  0  0  0  0  0  0  0  0  0  0
    5.9048    8.5511    0.3195 H   0  0  0  0  0  0  0  0  0  0  0  0
    7.3955    8.1468    0.0041 H   0  0  0  0  0  0  0  0  0  0  0  0
    1.5407    2.7651    1.7285 C   0  0  0  0  0  0  0  0  0  0  0  0
    0.7656    3.3079    1.9406 H   0  0  0  0  0  0  0  0  0  0  0  0
    2.0274    2.5859    2.5480 H   0  0  0  0  0  0  0  0  0  0  0  0
    1.1173    1.4856    1.0839 C   0  0  0  0  0  0  0  0  0  0  0  0
    1.6607    0.7478    1.4049 H   0  0  0  0  0  0  0  0  0  0  0  0
    0.1869    1.2952    1.2850 H   0  0  0  0  0  0  0  0  0  0  0  0
    1.3006    1.6704   -0.3374 C   0  0  0  0  0  0  0  0  0  0  0  0
    0.4818    1.9781   -0.7534 H   0  0  0  0  0  0  0  0  0  0  0  0
    1.5758    0.8412   -0.7603 H   0  0  0  0  0  0  0  0  0  0  0  0
    2.3807    2.7105   -0.4463 C   0  0  0  0  0  0  0  0  0  0  0  0
    3.2422    2.2870   -0.5867 H   0  0  0  0  0  0  0  0  0  0  0  0
    2.2030    3.3028   -1.1928 H   0  0  0  0  0  0  0  0  0  0  0  0
    2.5211    7.8331    1.8070 B   0  0  0  0  0  0  0  0  0  0  0  0
    1.9492    8.8311    1.8456 H   0  0  0  0  0  0  0  0  0  0  0  0
    1.9231    6.9716    1.5013 H   0  0  0  0  0  0  0  0  0  0  0  0
    3.4255    7.9237    1.2396 H   0  0  0  0  0  0  0  0  0  0  0  0
    6.3580    2.5348    1.1487 B   0  0  0  0  0  0  0  0  0  0  0  0
    6.9245    3.4738    1.1432 H   0  0  0  0  0  0  0  0  0  0  0  0
    5.4292    2.5526    0.5372 H   0  0  0  0  0  0  0  0  0  0  0  0
    6.9242    1.6098    0.9090 H   0  0  0  0  0  0  0  0  0  0  0  0
  1  4  1  0  0  0  0
  2  6  1  0  0  0  0
  3  7  1  0  0  0  0
  4 58  1  0  0  0  0
  5  1  1  0  0  0  0
  6  1  1  0  0  0  0
  7  1  1  0  0  0  0
  8  6  1  0  0  0  0
  9  8  1  0  0  0  0
 10  8  1  0  0  0  0
 11  7  1  0  0  0  0
 12 11  1  0  0  0  0
 13 11  1  0  0  0  0
 14  2  1  0  0  0  0
 15 14  4  0  0  0  0
 16 15  1  0  0  0  0
 17 15  4  0  0  0  0
 18 17  1  0  0  0  0
 19 17  4  0  0  0  0
 20 19  1  0  0  0  0
 21 19  4  0  0  0  0
 22 21  1  0  0  0  0
 23 14  4  0  0  0  0
 24 23  1  0  0  0  0
 25  2  1  0  0  0  0
 26 25  4  0  0  0  0
 27 26  1  0  0  0  0
 28 26  4  0  0  0  0
 29 28  1  0  0  0  0
 30 28  4  0  0  0  0
 31 30  1  0  0  0  0
 32 30  4  0  0  0  0
 33 32  1  0  0  0  0
 34 25  4  0  0  0  0
 35 34  1  0  0  0  0
 36  3  1  0  0  0  0
 37 36  4  0  0  0  0
 38 37  1  0  0  0  0
 39 37  4  0  0  0  0
 40 39  1  0  0  0  0
 41 39  4  0  0  0  0
 42 41  1  0  0  0  0
 43 41  4  0  0  0  0
 44 43  1  0  0  0  0
 45 36  4  0  0  0  0
 46 45  1  0  0  0  0
 47  3  1  0  0  0  0
 48 47  4  0  0  0  0
 49 48  1  0  0  0  0
 50 48  4  0  0  0  0
 51 50  1  0  0  0  0
 52 50  4  0  0  0  0
 53 52  1  0  0  0  0
 54 52  4  0  0  0  0
 55 54  1  0  0  0  0
 56 47  4  0  0  0  0
 57 56  1  0  0  0  0
 58 59  1  0  0  0  0
 60 58  1  0  0  0  0
 61 58  1  0  0  0  0
 62 61  1  0  0  0  0
 63 61  1  0  0  0  0
 64 61  1  0  0  0  0
 65 64  1  0  0  0  0
 66 64  1  0  0  0  0
 67  4  1  0  0  0  0
 68 67  1  0  0  0  0
 69 67  1  0  0  0  0
 70  5  1  0  0  0  0
 71 70  1  0  0  0  0
 72 70  1  0  0  0  0
 73 70  1  0  0  0  0
 74 73  1  0  0  0  0
 75 73  1  0  0  0  0
 76 73  1  0  0  0  0
 77 76  1  0  0  0  0
 78 76  1  0  0  0  0
 79  5  1  0  0  0  0
 80 79  1  0  0  0  0
 81 79  1  0  0  0  0
 82  2  1  0  0  0  0
 83 82  1  0  0  0  0
 84 82  1  0  0  0  0
 85 82  1  0  0  0  0
 86  3  1  0  0  0  0
 87 86  1  0  0  0  0
 88 86  1  0  0  0  0
 89 86  1  0  0  0  0
  8 11  1  0  0  0  0
 21 23  4  0  0  0  0
 32 34  4  0  0  0  0
 43 45  4  0  0  0  0
 54 56  4  0  0  0  0
 64 67  1  0  0  0  0
 76 79  1  0  0  0  0
M  END
$$$$
DIZKAY

From CSD data. Using bond type 'Any'. No disordered atoms. Largest molecule.
 70 89  0  0  0  0  0  0  0  0999 V2000
    2.5993    2.5675    6.0506 Rh  0  0  0  0  0  0  0  0  0  0  0  0
    2.3932    2.3798    8.3947 P   0  0  0  0  0  0  0  0  0  0  0  0
    4.9531    2.4335    6.0310 P   0  0  0  0  0  0  0  0  0  0  0  0
    0.8533    2.9902    9.1310 C   0  0  0  0  0  0  0  0  0  0  0  0
    2.4108    0.6409    8.8838 C   0  0  0  0  0  0  0  0  0  0  0  0
    3.6123    3.1849    9.4742 C   0  0  0  0  0  0  0  0  0  0  0  0
    3.9196    4.5215    9.2235 C   0  0  0  0  0  0  0  0  0  0  0  0
    4.8329    5.1926   10.0362 C   0  0  0  0  0  0  0  0  0  0  0  0
    5.4387    4.5269   11.1016 C   0  0  0  0  0  0  0  0  0  0  0  0
    5.1310    3.1899   11.3541 C   0  0  0  0  0  0  0  0  0  0  0  0
    4.2180    2.5192   10.5396 C   0  0  0  0  0  0  0  0  0  0  0  0
    5.6351    1.8060    4.4606 C   0  0  0  0  0  0  0  0  0  0  0  0
    5.8914    3.9849    6.2391 C   0  0  0  0  0  0  0  0  0  0  0  0
    5.6779    1.2698    7.2173 C   0  0  0  0  0  0  0  0  0  0  0  0
    6.4334    1.7174    8.3004 C   0  0  0  0  0  0  0  0  0  0  0  0
    6.9834    0.7976    9.1932 C   0  0  0  0  0  0  0  0  0  0  0  0
    6.7780   -0.5698    9.0029 C   0  0  0  0  0  0  0  0  0  0  0  0
    6.0226   -1.0154    7.9180 C   0  0  0  0  0  0  0  0  0  0  0  0
    5.4715   -0.0956    7.0252 C   0  0  0  0  0  0  0  0  0  0  0  0
    1.3594    0.9148    5.2342 B   0  0  0  0  0  0  0  0  0  0  0  0
    0.3235    2.3658    5.7429 B   0  0  0  0  0  0  0  0  0  0  0  0
    0.8163    4.0052    5.9350 B   0  0  0  0  0  0  0  0  0  0  0  0
    2.5055    4.5949    5.6041 B   0  0  0  0  0  0  0  0  0  0  0  0
    2.7520    3.6244    4.0319 B   0  0  0  0  0  0  0  0  0  0  0  0
    2.2157    2.0087    3.8238 B   0  0  0  0  0  0  0  0  0  0  0  0
    0.4381    1.8711    4.0390 B   0  0  0  0  0  0  0  0  0  0  0  0
   -0.0422    3.5126    4.4623 B   0  0  0  0  0  0  0  0  0  0  0  0
    1.2738    4.6831    4.3183 B   0  0  0  0  0  0  0  0  0  0  0  0
    1.1979    3.2911    3.2351 B   0  0  0  0  0  0  0  0  0  0  0  0
    1.0313   -0.4022    5.4245 O   0  0  0  0  0  0  0  0  0  0  0  0
   -0.1979   -0.9701    5.0404 C   0  0  0  0  0  0  0  0  0  0  0  0
    3.2124    5.6324    6.1021 O   0  0  0  0  0  0  0  0  0  0  0  0
    3.0248    6.9540    5.6184 C   0  0  0  0  0  0  0  0  0  0  0  0
    0.0126    2.5904    8.5832 H   0  0  0  0  0  0  0  0  0  0  0  0
    0.8314    4.0699    9.0829 H   0  0  0  0  0  0  0  0  0  0  0  0
    0.7963    2.6759   10.1625 H   0  0  0  0  0  0  0  0  0  0  0  0
    3.3008    0.1659    8.4978 H   0  0  0  0  0  0  0  0  0  0  0  0
    1.5374    0.1457    8.4854 H   0  0  0  0  0  0  0  0  0  0  0  0
    2.4040    0.5714    9.9615 H   0  0  0  0  0  0  0  0  0  0  0  0
    3.4506    5.0370    8.3982 H   0  0  0  0  0  0  0  0  0  0  0  0
    5.0707    6.2270    9.8406 H   0  0  0  0  0  0  0  0  0  0  0  0
    6.1454    5.0457   11.7312 H   0  0  0  0  0  0  0  0  0  0  0  0
    5.6000    2.6744   12.1794 H   0  0  0  0  0  0  0  0  0  0  0  0
    3.9796    1.4832   10.7352 H   0  0  0  0  0  0  0  0  0  0  0  0
    5.2803    2.4184    3.6442 H   0  0  0  0  0  0  0  0  0  0  0  0
    5.3142    0.7869    4.3112 H   0  0  0  0  0  0  0  0  0  0  0  0
    6.7143    1.8440    4.4943 H   0  0  0  0  0  0  0  0  0  0  0  0
    5.5827    4.4719    7.1515 H   0  0  0  0  0  0  0  0  0  0  0  0
    5.6970    4.6359    5.3996 H   0  0  0  0  0  0  0  0  0  0  0  0
    6.9476    3.7653    6.2871 H   0  0  0  0  0  0  0  0  0  0  0  0
    6.5925    2.7748    8.4480 H   0  0  0  0  0  0  0  0  0  0  0  0
    7.5678    1.1437   10.0327 H   0  0  0  0  0  0  0  0  0  0  0  0
    7.2036   -1.2807    9.6930 H   0  0  0  0  0  0  0  0  0  0  0  0
    5.8625   -2.0728    7.7704 H   0  0  0  0  0  0  0  0  0  0  0  0
    4.8872   -0.4417    6.1857 H   0  0  0  0  0  0  0  0  0  0  0  0
    2.5918    0.8351    5.9705 H   0  0  0  0  0  0  0  0  0  0  0  0
   -0.4966    1.9757    6.5272 H   0  0  0  0  0  0  0  0  0  0  0  0
    0.5027    4.5487    6.8118 H   0  0  0  0  0  0  0  0  0  0  0  0
    3.6677    3.9844    3.5375 H   0  0  0  0  0  0  0  0  0  0  0  0
    2.8362    1.2034    3.3419 H   0  0  0  0  0  0  0  0  0  0  0  0
   -0.2284    1.2014    3.4806 H   0  0  0  0  0  0  0  0  0  0  0  0
   -0.9461    3.7830    4.2649 H   0  0  0  0  0  0  0  0  0  0  0  0
    1.0753    5.5976    3.9003 H   0  0  0  0  0  0  0  0  0  0  0  0
    0.9420    3.4543    2.0151 H   0  0  0  0  0  0  0  0  0  0  0  0
   -0.2069   -2.0182    5.3000 H   0  0  0  0  0  0  0  0  0  0  0  0
   -0.3262   -0.8619    3.9732 H   0  0  0  0  0  0  0  0  0  0  0  0
   -1.0026   -0.4664    5.5543 H   0  0  0  0  0  0  0  0  0  0  0  0
    3.6823    7.6289    6.1484 H   0  0  0  0  0  0  0  0  0  0  0  0
    1.9993    7.2540    5.7784 H   0  0  0  0  0  0  0  0  0  0  0  0
    3.2494    6.9866    4.5637 H   0  0  0  0  0  0  0  0  0  0  0  0
  1  2  1  0  0  0  0
  2  4  1  0  0  0  0
  3  1  1  0  0  0  0
  4 34  1  0  0  0  0
  5  2  1  0  0  0  0
  6  2  1  0  0  0  0
  7  6  4  0  0  0  0
  8  7  4  0  0  0  0
  9  8  4  0  0  0  0
 10  9  4  0  0  0  0
 11  6  4  0  0  0  0
 12  3  1  0  0  0  0
 13  3  1  0  0  0  0
 14  3  1  0  0  0  0
 15 14  4  0  0  0  0
 16 15  4  0  0  0  0
 17 16  4  0  0  0  0
 18 17  4  0  0  0  0
 19 14  4  0  0  0  0
 20  1  1  0  0  0  0
 21  1  1  0  0  0  0
 22  1  1  0  0  0  0
 23  1  1  0  0  0  0
 24  1  1  0  0  0  0
 25  1  1  0  0  0  0
 26 20  1  0  0  0  0
 27 21  1  0  0  0  0
 28 22  1  0  0  0  0
 29 24  1  0  0  0  0
 30 20  1  0  0  0  0
 31 30  1  0  0  0  0
 32 23  1  0  0  0  0
 33 32  1  0  0  0  0
 35  4  1  0  0  0  0
 36  4  1  0  0  0  0
 37  5  1  0  0  0  0
 38  5  1  0  0  0  0
 39  5  1  0  0  0  0
 40  7  1  0  0  0  0
 41  8  1  0  0  0  0
 42  9  1  0  0  0  0
 43 10  1  0  0  0  0
 44 11  1  0  0  0  0
 45 12  1  0  0  0  0
 46 12  1  0  0  0  0
 47 12  1  0  0  0  0
 48 13  1  0  0  0  0
 49 13  1  0  0  0  0
 50 13  1  0  0  0  0
 51 15  1  0  0  0  0
 52 16  1  0  0  0  0
 53 17  1  0  0  0  0
 54 18  1  0  0  0  0
 55 19  1  0  0  0  0
 56  1  1  0  0  0  0
 57 21  1  0  0  0  0
 58 22  1  0  0  0  0
 59 24  1  0  0  0  0
 60 25  1  0  0  0  0
 61 26  1  0  0  0  0
 62 27  1  0  0  0  0
 63 28  1  0  0  0  0
 64 29  1  0  0  0  0
 65 31  1  0  0  0  0
 66 31  1  0  0  0  0
 67 31  1  0  0  0  0
 68 33  1  0  0  0  0
 69 33  1  0  0  0  0
 70 33  1  0  0  0  0
 10 11  4  0  0  0  0
 18 19  4  0  0  0  0
 20 21  1  0  0  0  0
 20 25  1  0  0  0  0
 20 56  1  0  0  0  0
 21 22  1  0  0  0  0
 21 26  1  0  0  0  0
 22 23  1  0  0  0  0
 22 27  1  0  0  0  0
 23 24  1  0  0  0  0
 23 28  1  0  0  0  0
 24 25  1  0  0  0  0
 24 28  1  0  0  0  0
 25 26  1  0  0  0  0
 25 29  1  0  0  0  0
 26 27  1  0  0  0  0
 26 29  1  0  0  0  0
 27 28  1  0  0  0  0
 27 29  1  0  0  0  0
 28 29  1  0  0  0  0
M  END
$$$$
DIZKEC

From CSD data. Using bond type 'Any'. No disordered atoms. Largest molecule.
 66 85  0  0  0  0  0  0  0  0999 V2000
    3.2765    2.6401    6.0215 Rh  0  0  0  0  0  0  0  0  0  0  0  0
    1.5603    1.1823    5.3280 P   0  0  0  0  0  0  0  0  0  0  0  0
    5.0142    1.2153    5.2926 P   0  0  0  0  0  0  0  0  0  0  0  0
    3.3272    2.5017    9.8412 Cl  0  0  0  0  0  0  0  0  0  0  0  0
   -0.0684    1.5086    6.1006 C   0  0  0  0  0  0  0  0  0  0  0  0
    1.1648    1.1747    3.5385 C   0  0  0  0  0  0  0  0  0  0  0  0
    1.7821   -0.5486    5.7724 C   0  0  0  0  0  0  0  0  0  0  0  0
    1.7986   -1.5886    4.8415 C   0  0  0  0  0  0  0  0  0  0  0  0
    1.9494   -2.9068    5.2724 C   0  0  0  0  0  0  0  0  0  0  0  0
    2.0838   -3.1862    6.6326 C   0  0  0  0  0  0  0  0  0  0  0  0
    2.0673   -2.1461    7.5618 C   0  0  0  0  0  0  0  0  0  0  0  0
    1.9165   -0.8280    7.1326 C   0  0  0  0  0  0  0  0  0  0  0  0
    4.9116    0.6959    3.5739 C   0  0  0  0  0  0  0  0  0  0  0  0
    6.7114    1.8617    5.4391 C   0  0  0  0  0  0  0  0  0  0  0  0
    5.2031   -0.3365    6.2319 C   0  0  0  0  0  0  0  0  0  0  0  0
    5.1042   -1.5886    5.6242 C   0  0  0  0  0  0  0  0  0  0  0  0
    5.3032   -2.7468    6.3767 C   0  0  0  0  0  0  0  0  0  0  0  0
    5.6011   -2.6528    7.7352 C   0  0  0  0  0  0  0  0  0  0  0  0
    5.6999   -1.4007    8.3429 C   0  0  0  0  0  0  0  0  0  0  0  0
    5.5010   -0.2438    7.5921 C   0  0  0  0  0  0  0  0  0  0  0  0
    3.3170    3.1303    8.1409 B   0  0  0  0  0  0  0  0  0  0  0  0
    4.6188    4.0764    7.2454 B   0  0  0  0  0  0  0  0  0  0  0  0
    4.5909    4.4700    5.5485 B   0  0  0  0  0  0  0  0  0  0  0  0
    3.2334    3.9278    4.4021 B   0  0  0  0  0  0  0  0  0  0  0  0
    1.8772    4.3570    5.5822 B   0  0  0  0  0  0  0  0  0  0  0  0
    1.8822    3.9811    7.2386 B   0  0  0  0  0  0  0  0  0  0  0  0
    3.2461    4.8904    8.0534 B   0  0  0  0  0  0  0  0  0  0  0  0
    4.0573    5.6803    6.6932 B   0  0  0  0  0  0  0  0  0  0  0  0
    3.1726    5.5533    5.1916 B   0  0  0  0  0  0  0  0  0  0  0  0
    2.3233    5.6155    6.7269 B   0  0  0  0  0  0  0  0  0  0  0  0
    3.2359    3.6726    3.0638 O   0  0  0  0  0  0  0  0  0  0  0  0
    3.2258    4.7126    2.0975 C   0  0  0  0  0  0  0  0  0  0  0  0
   -0.3511    2.5360    5.9188 H   0  0  0  0  0  0  0  0  0  0  0  0
   -0.0089    1.3347    7.1646 H   0  0  0  0  0  0  0  0  0  0  0  0
   -0.8074    0.8508    5.6697 H   0  0  0  0  0  0  0  0  0  0  0  0
    2.0610    0.9867    2.9678 H   0  0  0  0  0  0  0  0  0  0  0  0
    0.7516    2.1322    3.2557 H   0  0  0  0  0  0  0  0  0  0  0  0
    0.4411    0.3975    3.3399 H   0  0  0  0  0  0  0  0  0  0  0  0
    1.6959   -1.3728    3.7893 H   0  0  0  0  0  0  0  0  0  0  0  0
    1.9634   -3.7119    4.5519 H   0  0  0  0  0  0  0  0  0  0  0  0
    2.2004   -4.2059    6.9659 H   0  0  0  0  0  0  0  0  0  0  0  0
    2.1712   -2.3620    8.6156 H   0  0  0  0  0  0  0  0  0  0  0  0
    1.9038   -0.0229    7.8514 H   0  0  0  0  0  0  0  0  0  0  0  0
    3.9280    0.2908    3.3853 H   0  0  0  0  0  0  0  0  0  0  0  0
    5.6556   -0.0648    3.3887 H   0  0  0  0  0  0  0  0  0  0  0  0
    5.0852    1.5366    2.9190 H   0  0  0  0  0  0  0  0  0  0  0  0
    7.3997    1.0388    5.5603 H   0  0  0  0  0  0  0  0  0  0  0  0
    6.7735    2.5119    6.2993 H   0  0  0  0  0  0  0  0  0  0  0  0
    6.9649    2.4179    4.5485 H   0  0  0  0  0  0  0  0  0  0  0  0
    4.8735   -1.6610    4.5721 H   0  0  0  0  0  0  0  0  0  0  0  0
    5.2272   -3.7157    5.9054 H   0  0  0  0  0  0  0  0  0  0  0  0
    5.7557   -3.5494    8.3177 H   0  0  0  0  0  0  0  0  0  0  0  0
    5.9306   -1.3283    9.3967 H   0  0  0  0  0  0  0  0  0  0  0  0
    5.5770    0.7264    8.0618 H   0  0  0  0  0  0  0  0  0  0  0  0
    3.1992    2.0001    7.5500 H   0  0  0  0  0  0  0  0  0  0  0  0
    5.5745    3.8618    7.6359 H   0  0  0  0  0  0  0  0  0  0  0  0
    5.6987    4.3837    5.1529 H   0  0  0  0  0  0  0  0  0  0  0  0
    0.9227    4.3253    4.9307 H   0  0  0  0  0  0  0  0  0  0  0  0
    0.9684    3.5989    7.8446 H   0  0  0  0  0  0  0  0  0  0  0  0
    3.0458    5.4403    9.0668 H   0  0  0  0  0  0  0  0  0  0  0  0
    4.7595    6.5159    6.9693 H   0  0  0  0  0  0  0  0  0  0  0  0
    2.9837    6.2733    4.4307 H   0  0  0  0  0  0  0  0  0  0  0  0
    1.7935    6.5133    6.9221 H   0  0  0  0  0  0  0  0  0  0  0  0
    3.2271    4.2834    1.1060 H   0  0  0  0  0  0  0  0  0  0  0  0
    4.1054    5.3247    2.2255 H   0  0  0  0  0  0  0  0  0  0  0  0
    2.3411    5.3196    2.2255 H   0  0  0  0  0  0  0  0  0  0  0  0
  1  2  1  0  0  0  0
  2  5  1  0  0  0  0
  3  1  1  0  0  0  0
  4 21  1  0  0  0  0
  5 33  1  0  0  0  0
  6  2  1  0  0  0  0
  7  2  1  0  0  0  0
  8  7  4  0  0  0  0
  9  8  4  0  0  0  0
 10  9  4  0  0  0  0
 11 10  4  0  0  0  0
 12  7  4  0  0  0  0
 13  3  1  0  0  0  0
 14  3  1  0  0  0  0
 15  3  1  0  0  0  0
 16 15  4  0  0  0  0
 17 16  4  0  0  0  0
 18 17  4  0  0  0  0
 19 18  4  0  0  0  0
 20 15  4  0  0  0  0
 21  1  1  0  0  0  0
 22  1  1  0  0  0  0
 23  1  1  0  0  0  0
 24  1  1  0  0  0  0
 25  1  1  0  0  0  0
 26  1  1  0  0  0  0
 27 21  1  0  0  0  0
 28 22  1  0  0  0  0
 29 23  1  0  0  0  0
 30 25  1  0  0  0  0
 31 24  1  0  0  0  0
 32 31  1  0  0  0  0
 34  5  1  0  0  0  0
 35  5  1  0  0  0  0
 36  6  1  0  0  0  0
 37  6  1  0  0  0  0
 38  6  1  0  0  0  0
 39  8  1  0  0  0  0
 40  9  1  0  0  0  0
 41 10  1  0  0  0  0
 42 11  1  0  0  0  0
 43 12  1  0  0  0  0
 44 13  1  0  0  0  0
 45 13  1  0  0  0  0
 46 13  1  0  0  0  0
 47 14  1  0  0  0  0
 48 14  1  0  0  0  0
 49 14  1  0  0  0  0
 50 16  1  0  0  0  0
 51 17  1  0  0  0  0
 52 18  1  0  0  0  0
 53 19  1  0  0  0  0
 54 20  1  0  0  0  0
 55  1  1  0  0  0  0
 56 22  1  0  0  0  0
 57 23  1  0  0  0  0
 58 25  1  0  0  0  0
 59 26  1  0  0  0  0
 60 27  1  0  0  0  0
 61 28  1  0  0  0  0
 62 29  1  0  0  0  0
 63 30  1  0  0  0  0
 64 32  1  0  0  0  0
 65 32  1  0  0  0  0
 66 32  1  0  0  0  0
 11 12  4  0  0  0  0
 19 20  4  0  0  0  0
 21 22  1  0  0  0  0
 21 26  1  0  0  0  0
 21 55  1  0  0  0  0
 22 23  1  0  0  0  0
 22 27  1  0  0  0  0
 23 24  1  0  0  0  0
 23 28  1  0  0  0  0
 24 25  1  0  0  0  0
 24 29  1  0  0  0  0
 25 26  1  0  0  0  0
 25 29  1  0  0  0  0
 26 27  1  0  0  0  0
 26 30  1  0  0  0  0
 27 28  1  0  0  0  0
 27 30  1  0  0  0  0
 28 29  1  0  0  0  0
 28 30  1  0  0  0  0
 29 30  1  0  0  0  0
M  END
$$$$
DOBBEE

From CSD data. Using bond type 'Any'. No disordered atoms. Largest molecule.
118155  0  0  0  0  0  0  0  0999 V2000
   -0.1940    5.3187    6.0987 Pd  0  0  0  0  0  0  0  0  0  0  0  0
   -0.6171    2.9588    5.6191 Cl  0  0  0  0  0  0  0  0  0  0  0  0
   -0.2395    4.9831    8.1707 P   0  0  0  0  0  0  0  0  0  0  0  0
   -0.1145    5.5896    4.1247 O   0  0  0  0  0  0  0  0  0  0  0  0
    0.2853    7.2193    6.4329 C   0  0  0  0  0  0  0  0  0  0  0  0
    0.2304    7.4183    7.3806 H   0  0  0  0  0  0  0  0  0  0  0  0
    1.1900    7.3962    6.1320 H   0  0  0  0  0  0  0  0  0  0  0  0
   -0.4528    2.2878    7.1486 B   0  0  0  0  0  0  0  0  0  0  0  0
    2.5669    2.8013    8.0618 Cl  0  0  0  0  0  0  0  0  0  0  0  0
   -0.2831    3.2276    8.4238 C   0  0  0  0  0  0  0  0  0  0  0  0
    0.9695    2.2708    8.1804 B   0  0  0  0  0  0  0  0  0  0  0  0
    0.1138    2.9429   11.2068 Cl  0  0  0  0  0  0  0  0  0  0  0  0
   -0.1030    2.3000    9.6676 B   0  0  0  0  0  0  0  0  0  0  0  0
   -3.1224    2.9324    8.6237 Cl  0  0  0  0  0  0  0  0  0  0  0  0
   -1.5356    2.3383    8.4905 B   0  0  0  0  0  0  0  0  0  0  0  0
   -2.5409    0.2568    6.6231 Cl  0  0  0  0  0  0  0  0  0  0  0  0
   -1.2775    0.8142    7.5446 B   0  0  0  0  0  0  0  0  0  0  0  0
    1.4644    0.1699    6.2089 Cl  0  0  0  0  0  0  0  0  0  0  0  0
    0.4999    0.7924    7.4163 B   0  0  0  0  0  0  0  0  0  0  0  0
    1.9196    0.2380   10.2561 Cl  0  0  0  0  0  0  0  0  0  0  0  0
    0.6726    0.8177    9.1904 B   0  0  0  0  0  0  0  0  0  0  0  0
   -2.1206    0.3199   10.6352 Cl  0  0  0  0  0  0  0  0  0  0  0  0
   -1.0906    0.8706    9.3442 B   0  0  0  0  0  0  0  0  0  0  0  0
   -0.2983   -1.8853    8.4674 Cl  0  0  0  0  0  0  0  0  0  0  0  0
   -0.3099   -0.1831    8.3790 B   0  0  0  0  0  0  0  0  0  0  0  0
   -1.6831    5.6392    8.8949 C   0  0  0  0  0  0  0  0  0  0  0  0
   -2.5232    6.3042    8.1102 C   0  0  0  0  0  0  0  0  0  0  0  0
   -2.3318    6.3784    7.2037 H   0  0  0  0  0  0  0  0  0  0  0  0
   -3.6393    6.8696    8.5898 C   0  0  0  0  0  0  0  0  0  0  0  0
   -4.2433    7.2863    8.0181 H   0  0  0  0  0  0  0  0  0  0  0  0
   -3.8633    6.8229    9.8977 C   0  0  0  0  0  0  0  0  0  0  0  0
   -4.5843    7.2884   10.2578 H   0  0  0  0  0  0  0  0  0  0  0  0
   -3.0786    6.1267   10.6872 C   0  0  0  0  0  0  0  0  0  0  0  0
   -3.2859    6.0414   11.5900 H   0  0  0  0  0  0  0  0  0  0  0  0
   -1.9783    5.5395   10.1944 C   0  0  0  0  0  0  0  0  0  0  0  0
   -1.4171    5.0593   10.7605 H   0  0  0  0  0  0  0  0  0  0  0  0
    1.1255    5.6248    9.0233 C   0  0  0  0  0  0  0  0  0  0  0  0
    1.1275    6.0745   10.3494 C   0  0  0  0  0  0  0  0  0  0  0  0
    0.3771    5.9406   10.8820 H   0  0  0  0  0  0  0  0  0  0  0  0
    2.1751    6.6804   10.8459 C   0  0  0  0  0  0  0  0  0  0  0  0
    2.1564    6.9688   11.7299 H   0  0  0  0  0  0  0  0  0  0  0  0
    3.2383    6.8889   10.1314 C   0  0  0  0  0  0  0  0  0  0  0  0
    3.9720    7.3257   10.5008 H   0  0  0  0  0  0  0  0  0  0  0  0
    3.2737    6.4805    8.8901 C   0  0  0  0  0  0  0  0  0  0  0  0
    4.0430    6.6465    8.3941 H   0  0  0  0  0  0  0  0  0  0  0  0
    2.2762    5.8458    8.3027 C   0  0  0  0  0  0  0  0  0  0  0  0
    2.3506    5.5549    7.4223 H   0  0  0  0  0  0  0  0  0  0  0  0
    0.9930    5.4081    3.3303 C   0  0  0  0  0  0  0  0  0  0  0  0
    1.7248    5.9529    3.6461 H   0  0  0  0  0  0  0  0  0  0  0  0
    1.2655    4.4785    3.3466 H   0  0  0  0  0  0  0  0  0  0  0  0
    0.6752    5.7599    2.0830 C   0  0  0  0  0  0  0  0  0  0  0  0
    1.1616    5.2275    1.4313 H   0  0  0  0  0  0  0  0  0  0  0  0
    0.8586    6.6987    1.9230 H   0  0  0  0  0  0  0  0  0  0  0  0
   -0.7698    5.4869    2.0103 C   0  0  0  0  0  0  0  0  0  0  0  0
   -1.2180    6.1587    1.4816 H   0  0  0  0  0  0  0  0  0  0  0  0
   -0.9292    4.6156    1.6119 H   0  0  0  0  0  0  0  0  0  0  0  0
   -1.2428    5.5037    3.3182 C   0  0  0  0  0  0  0  0  0  0  0  0
   -1.7421    4.6967    3.5093 H   0  0  0  0  0  0  0  0  0  0  0  0
   -1.8206    6.2707    3.4550 H   0  0  0  0  0  0  0  0  0  0  0  0
   -0.6792    8.0499    5.6773 C   0  0  0  0  0  0  0  0  0  0  0  0
   -0.6244    7.8508    4.7296 H   0  0  0  0  0  0  0  0  0  0  0  0
   -1.5839    7.8729    5.9782 H   0  0  0  0  0  0  0  0  0  0  0  0
   -0.2000    9.9504    6.0115 Pd  0  0  0  0  0  0  0  0  0  0  0  0
    0.2232   12.3103    6.4911 Cl  0  0  0  0  0  0  0  0  0  0  0  0
   -0.1544   10.2861    3.9394 P   0  0  0  0  0  0  0  0  0  0  0  0
   -0.2794    9.6795    7.9855 O   0  0  0  0  0  0  0  0  0  0  0  0
    0.0589   12.9814    4.9615 B   0  0  0  0  0  0  0  0  0  0  0  0
   -2.9608   12.4679    4.0484 Cl  0  0  0  0  0  0  0  0  0  0  0  0
   -0.1108   12.0415    3.6863 C   0  0  0  0  0  0  0  0  0  0  0  0
   -1.3634   12.9983    3.9298 B   0  0  0  0  0  0  0  0  0  0  0  0
   -0.5078   12.3262    0.9034 Cl  0  0  0  0  0  0  0  0  0  0  0  0
   -0.2909   12.9692    2.4426 B   0  0  0  0  0  0  0  0  0  0  0  0
    2.7285   12.3367    3.4865 Cl  0  0  0  0  0  0  0  0  0  0  0  0
    1.1417   12.9309    3.6197 B   0  0  0  0  0  0  0  0  0  0  0  0
    2.1469   15.0123    5.4871 Cl  0  0  0  0  0  0  0  0  0  0  0  0
    0.8836   14.4549    4.5655 B   0  0  0  0  0  0  0  0  0  0  0  0
   -1.8583   15.0993    5.9013 Cl  0  0  0  0  0  0  0  0  0  0  0  0
   -0.8938   14.4767    4.6939 B   0  0  0  0  0  0  0  0  0  0  0  0
   -2.3135   15.0312    1.8541 Cl  0  0  0  0  0  0  0  0  0  0  0  0
   -1.0665   14.4514    2.9198 B   0  0  0  0  0  0  0  0  0  0  0  0
    1.7267   14.9492    1.4750 Cl  0  0  0  0  0  0  0  0  0  0  0  0
    0.6967   14.3985    2.7660 B   0  0  0  0  0  0  0  0  0  0  0  0
   -0.0956   17.1545    3.6427 Cl  0  0  0  0  0  0  0  0  0  0  0  0
   -0.0840   15.4523    3.7311 B   0  0  0  0  0  0  0  0  0  0  0  0
    1.2892    9.6299    3.2153 C   0  0  0  0  0  0  0  0  0  0  0  0
    2.1293    8.9649    4.0000 C   0  0  0  0  0  0  0  0  0  0  0  0
    1.9379    8.8908    4.9065 H   0  0  0  0  0  0  0  0  0  0  0  0
    3.2454    8.3995    3.5204 C   0  0  0  0  0  0  0  0  0  0  0  0
    3.8494    7.9828    4.0921 H   0  0  0  0  0  0  0  0  0  0  0  0
    3.4693    8.4462    2.2125 C   0  0  0  0  0  0  0  0  0  0  0  0
    4.1904    7.9807    1.8524 H   0  0  0  0  0  0  0  0  0  0  0  0
    2.6846    9.1424    1.4229 C   0  0  0  0  0  0  0  0  0  0  0  0
    2.8920    9.2277    0.5202 H   0  0  0  0  0  0  0  0  0  0  0  0
    1.5844    9.7296    1.9158 C   0  0  0  0  0  0  0  0  0  0  0  0
    1.0232   10.2098    1.3496 H   0  0  0  0  0  0  0  0  0  0  0  0
   -1.5194    9.6444    3.0869 C   0  0  0  0  0  0  0  0  0  0  0  0
   -1.5214    9.1946    1.7608 C   0  0  0  0  0  0  0  0  0  0  0  0
   -0.7710    9.3286    1.2282 H   0  0  0  0  0  0  0  0  0  0  0  0
   -2.5690    8.5887    1.2643 C   0  0  0  0  0  0  0  0  0  0  0  0
   -2.5503    8.3003    0.3802 H   0  0  0  0  0  0  0  0  0  0  0  0
   -3.6322    8.3802    1.9788 C   0  0  0  0  0  0  0  0  0  0  0  0
   -4.3659    7.9434    1.6094 H   0  0  0  0  0  0  0  0  0  0  0  0
   -3.6677    8.7886    3.2201 C   0  0  0  0  0  0  0  0  0  0  0  0
   -4.4369    8.6226    3.7161 H   0  0  0  0  0  0  0  0  0  0  0  0
   -2.6701    9.4234    3.8074 C   0  0  0  0  0  0  0  0  0  0  0  0
   -2.7445    9.7143    4.6879 H   0  0  0  0  0  0  0  0  0  0  0  0
   -1.3869    9.8610    8.7799 C   0  0  0  0  0  0  0  0  0  0  0  0
   -2.1187    9.3163    8.4641 H   0  0  0  0  0  0  0  0  0  0  0  0
   -1.6594   10.7906    8.7636 H   0  0  0  0  0  0  0  0  0  0  0  0
   -1.0691    9.5093   10.0272 C   0  0  0  0  0  0  0  0  0  0  0  0
   -1.5555   10.0416   10.6788 H   0  0  0  0  0  0  0  0  0  0  0  0
   -1.2525    8.5705   10.1872 H   0  0  0  0  0  0  0  0  0  0  0  0
    0.3759    9.7823   10.0999 C   0  0  0  0  0  0  0  0  0  0  0  0
    0.8241    9.1104   10.6286 H   0  0  0  0  0  0  0  0  0  0  0  0
    0.5353   10.6535   10.4983 H   0  0  0  0  0  0  0  0  0  0  0  0
    0.8489    9.7655    8.7920 C   0  0  0  0  0  0  0  0  0  0  0  0
    1.3482   10.5724    8.6009 H   0  0  0  0  0  0  0  0  0  0  0  0
    1.4267    8.9985    8.6552 H   0  0  0  0  0  0  0  0  0  0  0  0
  1  2  1  0  0  0  0
  2  8  1  0  0  0  0
  3  1  1  0  0  0  0
  4  1  1  0  0  0  0
  5  1  1  0  0  0  0
  6  5  1  0  0  0  0
  7  5  1  0  0  0  0
  8 10  1  0  0  0  0
  9 11  1  0  0  0  0
 10  3  1  0  0  0  0
 11  8  1  0  0  0  0
 12 13  1  0  0  0  0
 13 10  1  0  0  0  0
 14 15  1  0  0  0  0
 15  8  1  0  0  0  0
 16 17  1  0  0  0  0
 17  8  1  0  0  0  0
 18 19  1  0  0  0  0
 19  8  1  0  0  0  0
 20 21  1  0  0  0  0
 21 11  1  0  0  0  0
 22 23  1  0  0  0  0
 23 13  1  0  0  0  0
 24 25  1  0  0  0  0
 25 17  1  0  0  0  0
 26  3  1  0  0  0  0
 27 26  4  0  0  0  0
 28 27  1  0  0  0  0
 29 27  4  0  0  0  0
 30 29  1  0  0  0  0
 31 29  4  0  0  0  0
 32 31  1  0  0  0  0
 33 31  4  0  0  0  0
 34 33  1  0  0  0  0
 35 26  4  0  0  0  0
 36 35  1  0  0  0  0
 37  3  1  0  0  0  0
 38 37  4  0  0  0  0
 39 38  1  0  0  0  0
 40 38  4  0  0  0  0
 41 40  1  0  0  0  0
 42 40  4  0  0  0  0
 43 42  1  0  0  0  0
 44 42  4  0  0  0  0
 45 44  1  0  0  0  0
 46 37  4  0  0  0  0
 47 46  1  0  0  0  0
 48  4  1  0  0  0  0
 49 48  1  0  0  0  0
 50 48  1  0  0  0  0
 51 48  1  0  0  0  0
 52 51  1  0  0  0  0
 53 51  1  0  0  0  0
 54 51  1  0  0  0  0
 55 54  1  0  0  0  0
 56 54  1  0  0  0  0
 57  4  1  0  0  0  0
 58 57  1  0  0  0  0
 59 57  1  0  0  0  0
 60  5  1  0  0  0  0
 61 60  1  0  0  0  0
 62 60  1  0  0  0  0
 63 60  1  0  0  0  0
 64 63  1  0  0  0  0
 65 63  1  0  0  0  0
 66 63  1  0  0  0  0
 67 64  1  0  0  0  0
 68 70  1  0  0  0  0
 69 65  1  0  0  0  0
 70 67  1  0  0  0  0
 71 72  1  0  0  0  0
 72 69  1  0  0  0  0
 73 74  1  0  0  0  0
 74 67  1  0  0  0  0
 75 76  1  0  0  0  0
 76 67  1  0  0  0  0
 77 78  1  0  0  0  0
 78 67  1  0  0  0  0
 79 80  1  0  0  0  0
 80 70  1  0  0  0  0
 81 82  1  0  0  0  0
 82 72  1  0  0  0  0
 83 84  1  0  0  0  0
 84 76  1  0  0  0  0
 85 65  1  0  0  0  0
 86 85  4  0  0  0  0
 87 86  1  0  0  0  0
 88 86  4  0  0  0  0
 89 88  1  0  0  0  0
 90 88  4  0  0  0  0
 91 90  1  0  0  0  0
 92 90  4  0  0  0  0
 93 92  1  0  0  0  0
 94 85  4  0  0  0  0
 95 94  1  0  0  0  0
 96 65  1  0  0  0  0
 97 96  4  0  0  0  0
 98 97  1  0  0  0  0
 99 97  4  0  0  0  0
100 99  1  0  0  0  0
101 99  4  0  0  0  0
102101  1  0  0  0  0
103101  4  0  0  0  0
104103  1  0  0  0  0
105 96  4  0  0  0  0
106105  1  0  0  0  0
107 66  1  0  0  0  0
108107  1  0  0  0  0
109107  1  0  0  0  0
110107  1  0  0  0  0
111110  1  0  0  0  0
112110  1  0  0  0  0
113110  1  0  0  0  0
114113  1  0  0  0  0
115113  1  0  0  0  0
116 66  1  0  0  0  0
117116  1  0  0  0  0
118116  1  0  0  0  0
 10 11  1  0  0  0  0
 10 15  1  0  0  0  0
 11 13  1  0  0  0  0
 11 19  1  0  0  0  0
 13 15  1  0  0  0  0
 13 21  1  0  0  0  0
 15 17  1  0  0  0  0
 15 23  1  0  0  0  0
 17 19  1  0  0  0  0
 17 23  1  0  0  0  0
 19 21  1  0  0  0  0
 19 25  1  0  0  0  0
 21 23  1  0  0  0  0
 21 25  1  0  0  0  0
 23 25  1  0  0  0  0
 33 35  4  0  0  0  0
 44 46  4  0  0  0  0
 54 57  1  0  0  0  0
 67 69  1  0  0  0  0
 69 70  1  0  0  0  0
 69 74  1  0  0  0  0
 70 72  1  0  0  0  0
 70 78  1  0  0  0  0
 72 74  1  0  0  0  0
 72 80  1  0  0  0  0
 74 76  1  0  0  0  0
 74 82  1  0  0  0  0
 76 78  1  0  0  0  0
 76 82  1  0  0  0  0
 78 80  1  0  0  0  0
 78 84  1  0  0  0  0
 80 82  1  0  0  0  0
 80 84  1  0  0  0  0
 82 84  1  0  0  0  0
 92 94  4  0  0  0  0
103105  4  0  0  0  0
113116  1  0  0  0  0
M  END
$$$$
DOBBEE01

From CSD data. Using bond type 'Any'. Matching problem. Disorder unknown. Sizes unknown.
  0  0  0  0  0  0  0  0  0  0999 V2000
M  END
$$$$
DOBFUY

From CSD data. Using bond type 'Any'. No disordered atoms. Largest molecule.
141146  0  0  0  0  0  0  0  0999 V2000
    6.8276    7.8180    9.4914 B   0  0  0  0  0  0  0  0  0  0  0  0
    5.7491   10.1919    9.0689 C   0  0  0  0  0  0  0  0  0  0  0  0
    6.0522   10.4432    8.1603 H   0  0  0  0  0  0  0  0  0  0  0  0
    6.4398   10.4744    9.7190 H   0  0  0  0  0  0  0  0  0  0  0  0
    6.8912    4.5362   10.4007 F   0  0  0  0  0  0  0  0  0  0  0  0
    7.3571    7.6889   10.7304 O   0  0  0  0  0  0  0  0  0  0  0  0
    4.1307   11.0239    9.4535 P   0  0  0  0  0  0  0  0  0  0  0  0
    8.8904    9.0733   12.8931 B   0  0  0  0  0  0  0  0  0  0  0  0
    5.5371    8.6609    9.1528 C   0  0  0  0  0  0  0  0  0  0  0  0
    5.1772    8.3481    8.2859 H   0  0  0  0  0  0  0  0  0  0  0  0
    4.8532    8.4774    9.8432 H   0  0  0  0  0  0  0  0  0  0  0  0
    5.3179    5.7198    9.5493 F   0  0  0  0  0  0  0  0  0  0  0  0
    7.7046    9.3629   12.2947 O   0  0  0  0  0  0  0  0  0  0  0  0
   11.5390    5.8537   13.4874 P   0  0  0  0  0  0  0  0  0  0  0  0
    6.8318    8.3283   11.8821 C   0  0  0  0  0  0  0  0  0  0  0  0
    5.9392    8.7052   11.6772 H   0  0  0  0  0  0  0  0  0  0  0  0
    6.7284    7.6687   12.6122 H   0  0  0  0  0  0  0  0  0  0  0  0
    5.7815    3.7889    8.7325 F   0  0  0  0  0  0  0  0  0  0  0  0
   10.7095    7.4590   13.9093 C   0  0  0  0  0  0  0  0  0  0  0  0
   10.4321    7.4560   14.8605 H   0  0  0  0  0  0  0  0  0  0  0  0
   11.3379    8.2108   13.7700 H   0  0  0  0  0  0  0  0  0  0  0  0
    9.4778    7.6317   13.0051 C   0  0  0  0  0  0  0  0  0  0  0  0
    8.7638    7.0321   13.3392 H   0  0  0  0  0  0  0  0  0  0  0  0
    9.7187    7.3255   12.0946 H   0  0  0  0  0  0  0  0  0  0  0  0
   10.1936    9.0911    7.2810 F   0  0  0  0  0  0  0  0  0  0  0  0
    8.6258    9.4688    8.6885 F   0  0  0  0  0  0  0  0  0  0  0  0
    8.2128    9.5391    6.5981 F   0  0  0  0  0  0  0  0  0  0  0  0
    8.0210    9.0376   15.1805 F   0  0  0  0  0  0  0  0  0  0  0  0
    4.1414   10.7067   11.2769 C   0  0  0  0  0  0  0  0  0  0  0  0
    7.8445   10.7991   16.3936 F   0  0  0  0  0  0  0  0  0  0  0  0
    3.2188    9.7544   11.7595 C   0  0  0  0  0  0  0  0  0  0  0  0
    9.4920    9.4702   16.6848 F   0  0  0  0  0  0  0  0  0  0  0  0
    3.1944    9.4497   13.1268 C   0  0  0  0  0  0  0  0  0  0  0  0
    2.5642    8.8142   13.4454 H   0  0  0  0  0  0  0  0  0  0  0  0
    4.0617   10.0444   14.0273 C   0  0  0  0  0  0  0  0  0  0  0  0
    4.9722   10.9730   13.5338 C   0  0  0  0  0  0  0  0  0  0  0  0
    5.5790   11.3827   14.1395 H   0  0  0  0  0  0  0  0  0  0  0  0
    5.0324   11.3286   12.1897 C   0  0  0  0  0  0  0  0  0  0  0  0
    2.2061    9.0595   10.8709 C   0  0  0  0  0  0  0  0  0  0  0  0
    1.8522    8.2715   11.3331 H   0  0  0  0  0  0  0  0  0  0  0  0
    2.6393    8.7814   10.0377 H   0  0  0  0  0  0  0  0  0  0  0  0
    1.4729    9.6769   10.6675 H   0  0  0  0  0  0  0  0  0  0  0  0
    4.0118    9.6996   15.4918 C   0  0  0  0  0  0  0  0  0  0  0  0
    4.9223    9.5628   15.8269 H   0  0  0  0  0  0  0  0  0  0  0  0
    3.4922    8.8792   15.6175 H   0  0  0  0  0  0  0  0  0  0  0  0
    3.5888   10.4330   15.9855 H   0  0  0  0  0  0  0  0  0  0  0  0
    6.0494   12.3626   11.8014 C   0  0  0  0  0  0  0  0  0  0  0  0
    5.6109   13.2336   11.7056 H   0  0  0  0  0  0  0  0  0  0  0  0
    6.4649   12.1096   10.9502 H   0  0  0  0  0  0  0  0  0  0  0  0
    6.7387   12.4191   12.4955 H   0  0  0  0  0  0  0  0  0  0  0  0
    4.2311   12.8672    9.3222 C   0  0  0  0  0  0  0  0  0  0  0  0
    5.1786   13.6157    8.6046 C   0  0  0  0  0  0  0  0  0  0  0  0
    5.0292   15.0119    8.4909 C   0  0  0  0  0  0  0  0  0  0  0  0
    5.6763   15.5022    7.9987 H   0  0  0  0  0  0  0  0  0  0  0  0
    3.9735   15.6932    9.0683 C   0  0  0  0  0  0  0  0  0  0  0  0
    3.0524   14.9494    9.7624 C   0  0  0  0  0  0  0  0  0  0  0  0
    2.3273   15.4021   10.1768 H   0  0  0  0  0  0  0  0  0  0  0  0
    3.1315   13.5651    9.8896 C   0  0  0  0  0  0  0  0  0  0  0  0
    6.3812   13.0195    7.9075 C   0  0  0  0  0  0  0  0  0  0  0  0
    6.9473   12.5660    8.5657 H   0  0  0  0  0  0  0  0  0  0  0  0
    6.8927   13.7321    7.4707 H   0  0  0  0  0  0  0  0  0  0  0  0
    6.0812   12.3745    7.2343 H   0  0  0  0  0  0  0  0  0  0  0  0
    3.7999   17.1816    8.8873 C   0  0  0  0  0  0  0  0  0  0  0  0
    3.0892   17.3508    8.2336 H   0  0  0  0  0  0  0  0  0  0  0  0
    4.6398   17.5697    8.5642 H   0  0  0  0  0  0  0  0  0  0  0  0
    3.5601   17.5896    9.7445 H   0  0  0  0  0  0  0  0  0  0  0  0
    2.0194   12.8493   10.6106 C   0  0  0  0  0  0  0  0  0  0  0  0
    2.3544   12.5026   11.4633 H   0  0  0  0  0  0  0  0  0  0  0  0
    1.6983   12.1054   10.0586 H   0  0  0  0  0  0  0  0  0  0  0  0
    1.2837   13.4740   10.7782 H   0  0  0  0  0  0  0  0  0  0  0  0
    7.5894    6.9120    8.4109 C   0  0  0  0  0  0  0  0  0  0  0  0
    7.3194    5.5341    8.3094 C   0  0  0  0  0  0  0  0  0  0  0  0
    7.9680    4.7177    7.3927 C   0  0  0  0  0  0  0  0  0  0  0  0
    7.7556    3.7933    7.3435 H   0  0  0  0  0  0  0  0  0  0  0  0
    8.9268    5.2599    6.5504 C   0  0  0  0  0  0  0  0  0  0  0  0
    9.2262    6.6054    6.6192 C   0  0  0  0  0  0  0  0  0  0  0  0
    9.8829    6.9790    6.0420 H   0  0  0  0  0  0  0  0  0  0  0  0
    8.5623    7.4122    7.5377 C   0  0  0  0  0  0  0  0  0  0  0  0
    6.3307    4.8947    9.2432 C   0  0  0  0  0  0  0  0  0  0  0  0
    9.6662    4.3917    5.5918 C   0  0  0  0  0  0  0  0  0  0  0  0
    9.1147    3.1974    5.4257 F   0  0  0  0  0  0  0  0  0  0  0  0
    9.8971    4.9285    4.4339 F   0  0  0  0  0  0  0  0  0  0  0  0
   10.8758    4.0916    6.0884 F   0  0  0  0  0  0  0  0  0  0  0  0
    8.9088    8.8662    7.5272 C   0  0  0  0  0  0  0  0  0  0  0  0
   12.0565    6.2732   11.7607 C   0  0  0  0  0  0  0  0  0  0  0  0
   11.3564    5.6358   10.7083 C   0  0  0  0  0  0  0  0  0  0  0  0
   11.7038    5.8983    9.3850 C   0  0  0  0  0  0  0  0  0  0  0  0
   11.2182    5.4704    8.6898 H   0  0  0  0  0  0  0  0  0  0  0  0
   12.7338    6.7631    9.0499 C   0  0  0  0  0  0  0  0  0  0  0  0
   13.4015    7.3959   10.0857 C   0  0  0  0  0  0  0  0  0  0  0  0
   14.1054    7.9968    9.8746 H   0  0  0  0  0  0  0  0  0  0  0  0
   13.0809    7.1859   11.4275 C   0  0  0  0  0  0  0  0  0  0  0  0
   10.2484    4.6329   10.9581 C   0  0  0  0  0  0  0  0  0  0  0  0
    9.8715    4.3427   10.1020 H   0  0  0  0  0  0  0  0  0  0  0  0
    9.5466    5.0503   11.4992 H   0  0  0  0  0  0  0  0  0  0  0  0
   10.6118    3.8574   11.4349 H   0  0  0  0  0  0  0  0  0  0  0  0
   13.0890    7.0061    7.6053 C   0  0  0  0  0  0  0  0  0  0  0  0
   12.4952    7.6913    7.2328 H   0  0  0  0  0  0  0  0  0  0  0  0
   12.9861    6.1736    7.0982 H   0  0  0  0  0  0  0  0  0  0  0  0
   14.0189    7.3137    7.5455 H   0  0  0  0  0  0  0  0  0  0  0  0
   13.8870    7.9366   12.4596 C   0  0  0  0  0  0  0  0  0  0  0  0
   14.6163    7.3665   12.7812 H   0  0  0  0  0  0  0  0  0  0  0  0
   13.3084    8.1816   13.2105 H   0  0  0  0  0  0  0  0  0  0  0  0
   14.2604    8.7480   12.0557 H   0  0  0  0  0  0  0  0  0  0  0  0
   13.1473    5.6664   14.3935 C   0  0  0  0  0  0  0  0  0  0  0  0
   13.5522    6.3573   15.5662 C   0  0  0  0  0  0  0  0  0  0  0  0
   14.7519    6.0157   16.1678 C   0  0  0  0  0  0  0  0  0  0  0  0
   15.0149    6.4931   16.9459 H   0  0  0  0  0  0  0  0  0  0  0  0
   15.5889    5.0175   15.7013 C   0  0  0  0  0  0  0  0  0  0  0  0
   15.1712    4.3296   14.5679 C   0  0  0  0  0  0  0  0  0  0  0  0
   15.7201    3.6321   14.2293 H   0  0  0  0  0  0  0  0  0  0  0  0
   13.9796    4.6224   13.9091 C   0  0  0  0  0  0  0  0  0  0  0  0
   12.7514    7.4613   16.2069 C   0  0  0  0  0  0  0  0  0  0  0  0
   13.1816    7.7310   17.0446 H   0  0  0  0  0  0  0  0  0  0  0  0
   11.8443    7.1411   16.3939 H   0  0  0  0  0  0  0  0  0  0  0  0
   12.7095    8.2284   15.5995 H   0  0  0  0  0  0  0  0  0  0  0  0
   16.8798    4.6785   16.4088 C   0  0  0  0  0  0  0  0  0  0  0  0
   17.2937    3.9014   15.9780 H   0  0  0  0  0  0  0  0  0  0  0  0
   16.6929    4.4695   17.3483 H   0  0  0  0  0  0  0  0  0  0  0  0
   17.4909    5.4428   16.3595 H   0  0  0  0  0  0  0  0  0  0  0  0
   13.6349    3.8100   12.6883 C   0  0  0  0  0  0  0  0  0  0  0  0
   13.7857    4.3493   11.8836 H   0  0  0  0  0  0  0  0  0  0  0  0
   12.6927    3.5418   12.7303 H   0  0  0  0  0  0  0  0  0  0  0  0
   14.2013    3.0103   12.6570 H   0  0  0  0  0  0  0  0  0  0  0  0
    9.6507   10.3838   13.4206 C   0  0  0  0  0  0  0  0  0  0  0  0
    9.5321   10.8093   14.7483 C   0  0  0  0  0  0  0  0  0  0  0  0
   10.1849   11.9353   15.2457 C   0  0  0  0  0  0  0  0  0  0  0  0
   10.0735   12.1899   16.1545 H   0  0  0  0  0  0  0  0  0  0  0  0
   10.9919   12.6767   14.4103 C   0  0  0  0  0  0  0  0  0  0  0  0
   11.1318   12.3036   13.0909 C   0  0  0  0  0  0  0  0  0  0  0  0
   11.6846   12.8164   12.5119 H   0  0  0  0  0  0  0  0  0  0  0  0
   10.4728   11.1871   12.6054 C   0  0  0  0  0  0  0  0  0  0  0  0
    8.7199   10.0416   15.7416 C   0  0  0  0  0  0  0  0  0  0  0  0
   11.7226   13.8720   14.9458 C   0  0  0  0  0  0  0  0  0  0  0  0
   11.1188   15.0307   14.7334 F   0  0  0  0  0  0  0  0  0  0  0  0
   11.9950   13.7582   16.2622 F   0  0  0  0  0  0  0  0  0  0  0  0
   12.9294   13.9355   14.3205 F   0  0  0  0  0  0  0  0  0  0  0  0
   10.6107   10.8687   11.1521 C   0  0  0  0  0  0  0  0  0  0  0  0
   11.6728   11.4481   10.6001 F   0  0  0  0  0  0  0  0  0  0  0  0
   10.5901    9.5791   10.8081 F   0  0  0  0  0  0  0  0  0  0  0  0
    9.5276   11.4352   10.4984 F   0  0  0  0  0  0  0  0  0  0  0  0
  1  6  1  0  0  0  0
  2  3  1  0  0  0  0
  4  2  1  0  0  0  0
  5 79  1  0  0  0  0
  6 15  1  0  0  0  0
  7  2  1  0  0  0  0
  8 13  1  0  0  0  0
  9  1  1  0  0  0  0
 10  9  1  0  0  0  0
 11  9  1  0  0  0  0
 12 79  1  0  0  0  0
 13 15  1  0  0  0  0
 14 19  1  0  0  0  0
 15 16  1  0  0  0  0
 17 15  1  0  0  0  0
 18 79  1  0  0  0  0
 19 20  1  0  0  0  0
 21 19  1  0  0  0  0
 22  8  1  0  0  0  0
 23 22  1  0  0  0  0
 24 22  1  0  0  0  0
 25 84  1  0  0  0  0
 26 84  1  0  0  0  0
 27 84  1  0  0  0  0
 28133  1  0  0  0  0
 29  7  1  0  0  0  0
 30133  1  0  0  0  0
 31 29  4  0  0  0  0
 32133  1  0  0  0  0
 33 31  4  0  0  0  0
 34 33  1  0  0  0  0
 35 33  4  0  0  0  0
 36 35  4  0  0  0  0
 37 36  1  0  0  0  0
 38 29  4  0  0  0  0
 39 31  1  0  0  0  0
 40 39  1  0  0  0  0
 41 39  1  0  0  0  0
 42 39  1  0  0  0  0
 43 35  1  0  0  0  0
 44 43  1  0  0  0  0
 45 43  1  0  0  0  0
 46 43  1  0  0  0  0
 47 38  1  0  0  0  0
 48 47  1  0  0  0  0
 49 47  1  0  0  0  0
 50 47  1  0  0  0  0
 51  7  1  0  0  0  0
 52 51  4  0  0  0  0
 53 52  4  0  0  0  0
 54 53  1  0  0  0  0
 55 53  4  0  0  0  0
 56 55  4  0  0  0  0
 57 56  1  0  0  0  0
 58 51  4  0  0  0  0
 59 52  1  0  0  0  0
 60 59  1  0  0  0  0
 61 59  1  0  0  0  0
 62 59  1  0  0  0  0
 63 55  1  0  0  0  0
 64 63  1  0  0  0  0
 65 63  1  0  0  0  0
 66 63  1  0  0  0  0
 67 58  1  0  0  0  0
 68 67  1  0  0  0  0
 69 67  1  0  0  0  0
 70 67  1  0  0  0  0
 71  1  1  0  0  0  0
 72 71  4  0  0  0  0
 73 72  4  0  0  0  0
 74 73  1  0  0  0  0
 75 73  4  0  0  0  0
 76 75  4  0  0  0  0
 77 76  1  0  0  0  0
 78 71  4  0  0  0  0
 79 72  1  0  0  0  0
 80 75  1  0  0  0  0
 81 80  1  0  0  0  0
 82 80  1  0  0  0  0
 83 80  1  0  0  0  0
 84 78  1  0  0  0  0
 85 14  1  0  0  0  0
 86 85  4  0  0  0  0
 87 86  4  0  0  0  0
 88 87  1  0  0  0  0
 89 87  4  0  0  0  0
 90 89  4  0  0  0  0
 91 90  1  0  0  0  0
 92 85  4  0  0  0  0
 93 86  1  0  0  0  0
 94 93  1  0  0  0  0
 95 93  1  0  0  0  0
 96 93  1  0  0  0  0
 97 89  1  0  0  0  0
 98 97  1  0  0  0  0
 99 97  1  0  0  0  0
100 97  1  0  0  0  0
101 92  1  0  0  0  0
102101  1  0  0  0  0
103101  1  0  0  0  0
104101  1  0  0  0  0
105 14  1  0  0  0  0
106105  4  0  0  0  0
107106  4  0  0  0  0
108107  1  0  0  0  0
109107  4  0  0  0  0
110109  4  0  0  0  0
111110  1  0  0  0  0
112105  4  0  0  0  0
113106  1  0  0  0  0
114113  1  0  0  0  0
115113  1  0  0  0  0
116113  1  0  0  0  0
117109  1  0  0  0  0
118117  1  0  0  0  0
119117  1  0  0  0  0
120117  1  0  0  0  0
121112  1  0  0  0  0
122121  1  0  0  0  0
123121  1  0  0  0  0
124121  1  0  0  0  0
125  8  1  0  0  0  0
126125  4  0  0  0  0
127126  4  0  0  0  0
128127  1  0  0  0  0
129127  4  0  0  0  0
130129  4  0  0  0  0
131130  1  0  0  0  0
132125  4  0  0  0  0
133126  1  0  0  0  0
134129  1  0  0  0  0
135134  1  0  0  0  0
136134  1  0  0  0  0
137134  1  0  0  0  0
138132  1  0  0  0  0
139138  1  0  0  0  0
140138  1  0  0  0  0
141138  1  0  0  0  0
  2  9  1  0  0  0  0
 19 22  1  0  0  0  0
 36 38  4  0  0  0  0
 56 58  4  0  0  0  0
 76 78  4  0  0  0  0
 90 92  4  0  0  0  0
110112  4  0  0  0  0
130132  4  0  0  0  0
M  END
$$$$
DOFBEG

From CSD data. Using bond type 'Any'. No disordered atoms. Largest molecule.
 71 86  0  0  0  0  0  0  0  0999 V2000
    3.9135    5.7015    3.7880 Fe  0  0  0  0  0  0  0  0  0  0  0  0
    5.5611    4.7308    3.4591 C   0  0  0  0  0  0  0  0  0  0  0  0
    6.8897    5.1570    3.1635 O   0  0  0  0  0  0  0  0  0  0  0  0
    7.6800    4.0348    3.0150 C   0  0  0  0  0  0  0  0  0  0  0  0
    8.6060    4.1065    2.8150 H   0  0  0  0  0  0  0  0  0  0  0  0
    7.0901    2.8407    3.1606 C   0  0  0  0  0  0  0  0  0  0  0  0
    7.8194    1.5224    3.0635 C   0  0  0  0  0  0  0  0  0  0  0  0
    7.1856    0.7879    3.2032 H   0  0  0  0  0  0  0  0  0  0  0  0
    8.5185    1.4843    3.7489 H   0  0  0  0  0  0  0  0  0  0  0  0
    8.2259    1.4387    2.1752 H   0  0  0  0  0  0  0  0  0  0  0  0
    5.0612    4.1912    4.9005 B   0  0  0  0  0  0  0  0  0  0  0  0
    5.5925    4.4506    5.8520 H   0  0  0  0  0  0  0  0  0  0  0  0
    5.6012    3.1083    3.4650 B   0  0  0  0  0  0  0  0  0  0  0  0
    4.5542    4.1774    2.3296 B   0  0  0  0  0  0  0  0  0  0  0  0
    4.6795    4.4243    1.2442 H   0  0  0  0  0  0  0  0  0  0  0  0
    3.3013    3.9343    4.9299 B   0  0  0  0  0  0  0  0  0  0  0  0
    2.7052    4.1865    5.8432 H   0  0  0  0  0  0  0  0  0  0  0  0
    4.4040    2.5000    4.6446 B   0  0  0  0  0  0  0  0  0  0  0  0
    4.6701    1.6597    5.3373 H   0  0  0  0  0  0  0  0  0  0  0  0
    4.0483    2.4694    2.8532 B   0  0  0  0  0  0  0  0  0  0  0  0
    4.0327    1.6064    2.1399 H   0  0  0  0  0  0  0  0  0  0  0  0
    2.9254    3.9270    2.9767 B   0  0  0  0  0  0  0  0  0  0  0  0
    2.0337    4.1784    2.3473 H   0  0  0  0  0  0  0  0  0  0  0  0
    2.9581    2.6611    3.9915 C   0  0  0  0  0  0  0  0  0  0  0  0
    2.1138    2.0249    4.1577 H   0  0  0  0  0  0  0  0  0  0  0  0
    2.2499    6.1316    4.1372 C   0  0  0  0  0  0  0  0  0  0  0  0
    1.1371    6.3483    4.3916 O   0  0  0  0  0  0  0  0  0  0  0  0
    3.9608    7.0909    2.0062 P   0  0  0  0  0  0  0  0  0  0  0  0
    3.3502    8.8346    2.1634 C   0  0  0  0  0  0  0  0  0  0  0  0
    2.4321    8.8105    2.5341 H   0  0  0  0  0  0  0  0  0  0  0  0
    3.9228    9.3073    2.8179 H   0  0  0  0  0  0  0  0  0  0  0  0
    3.3238    9.6455    0.8780 C   0  0  0  0  0  0  0  0  0  0  0  0
    2.9808   10.5436    1.0663 H   0  0  0  0  0  0  0  0  0  0  0  0
    2.7434    9.2032    0.2250 H   0  0  0  0  0  0  0  0  0  0  0  0
    4.2326    9.7112    0.5162 H   0  0  0  0  0  0  0  0  0  0  0  0
    2.9409    6.5009    0.5839 C   0  0  0  0  0  0  0  0  0  0  0  0
    3.2108    7.0020   -0.2265 H   0  0  0  0  0  0  0  0  0  0  0  0
    3.1452    5.5450    0.4250 H   0  0  0  0  0  0  0  0  0  0  0  0
    1.4197    6.6508    0.7677 C   0  0  0  0  0  0  0  0  0  0  0  0
    0.9605    6.3196   -0.0324 H   0  0  0  0  0  0  0  0  0  0  0  0
    1.1992    7.5965    0.9030 H   0  0  0  0  0  0  0  0  0  0  0  0
    1.1325    6.1332    1.5487 H   0  0  0  0  0  0  0  0  0  0  0  0
    5.6223    7.3266    1.2325 C   0  0  0  0  0  0  0  0  0  0  0  0
    6.0304    6.4392    1.0751 H   0  0  0  0  0  0  0  0  0  0  0  0
    5.5051    7.7638    0.3515 H   0  0  0  0  0  0  0  0  0  0  0  0
    6.5683    8.1569    2.0664 C   0  0  0  0  0  0  0  0  0  0  0  0
    7.4266    8.2407    1.6016 H   0  0  0  0  0  0  0  0  0  0  0  0
    6.7067    7.7217    2.9326 H   0  0  0  0  0  0  0  0  0  0  0  0
    6.1847    9.0482    2.2061 H   0  0  0  0  0  0  0  0  0  0  0  0
    4.6510    7.0601    5.4590 P   0  0  0  0  0  0  0  0  0  0  0  0
    6.4895    7.0525    5.7667 C   0  0  0  0  0  0  0  0  0  0  0  0
    6.6607    6.4553    6.5374 H   0  0  0  0  0  0  0  0  0  0  0  0
    6.9235    6.6401    4.9784 H   0  0  0  0  0  0  0  0  0  0  0  0
    7.2002    8.3838    6.0432 C   0  0  0  0  0  0  0  0  0  0  0  0
    8.1554    8.2199    6.1888 H   0  0  0  0  0  0  0  0  0  0  0  0
    6.8153    8.7999    6.8433 H   0  0  0  0  0  0  0  0  0  0  0  0
    7.0839    8.9812    5.2755 H   0  0  0  0  0  0  0  0  0  0  0  0
    3.9695    6.4908    7.0698 C   0  0  0  0  0  0  0  0  0  0  0  0
    2.9831    6.4527    6.9904 H   0  0  0  0  0  0  0  0  0  0  0  0
    4.2874    5.5671    7.2301 H   0  0  0  0  0  0  0  0  0  0  0  0
    4.3167    7.3369    8.3052 C   0  0  0  0  0  0  0  0  0  0  0  0
    3.9001    6.9432    9.0994 H   0  0  0  0  0  0  0  0  0  0  0  0
    3.9836    8.2500    8.1802 H   0  0  0  0  0  0  0  0  0  0  0  0
    5.2895    7.3578    8.4243 H   0  0  0  0  0  0  0  0  0  0  0  0
    4.2023    8.8446    5.5314 C   0  0  0  0  0  0  0  0  0  0  0  0
    4.6618    9.2543    6.3065 H   0  0  0  0  0  0  0  0  0  0  0  0
    4.5436    9.2886    4.7137 H   0  0  0  0  0  0  0  0  0  0  0  0
    2.7073    9.1261    5.6476 C   0  0  0  0  0  0  0  0  0  0  0  0
    2.5588   10.0940    5.6844 H   0  0  0  0  0  0  0  0  0  0  0  0
    2.3597    8.7123    6.4653 H   0  0  0  0  0  0  0  0  0  0  0  0
    2.2428    8.7533    4.8696 H   0  0  0  0  0  0  0  0  0  0  0  0
  1  2  1  0  0  0  0
  2  3  1  0  0  0  0
  3  4  1  0  0  0  0
  4  5  1  0  0  0  0
  6  4  2  0  0  0  0
  7  6  1  0  0  0  0
  8  7  1  0  0  0  0
  9  7  1  0  0  0  0
 10  7  1  0  0  0  0
 11  1  1  0  0  0  0
 12 11  1  0  0  0  0
 13  2  1  0  0  0  0
 14  1  1  0  0  0  0
 15 14  1  0  0  0  0
 16  1  1  0  0  0  0
 17 16  1  0  0  0  0
 18 11  1  0  0  0  0
 19 18  1  0  0  0  0
 20 13  1  0  0  0  0
 21 20  1  0  0  0  0
 22  1  1  0  0  0  0
 23 22  1  0  0  0  0
 24 16  1  0  0  0  0
 25 24  1  0  0  0  0
 26  1  1  0  0  0  0
 27 26  3  0  0  0  0
 28  1  1  0  0  0  0
 29 28  1  0  0  0  0
 30 29  1  0  0  0  0
 31 29  1  0  0  0  0
 32 29  1  0  0  0  0
 33 32  1  0  0  0  0
 34 32  1  0  0  0  0
 35 32  1  0  0  0  0
 36 28  1  0  0  0  0
 37 36  1  0  0  0  0
 38 36  1  0  0  0  0
 39 36  1  0  0  0  0
 40 39  1  0  0  0  0
 41 39  1  0  0  0  0
 42 39  1  0  0  0  0
 43 28  1  0  0  0  0
 44 43  1  0  0  0  0
 45 43  1  0  0  0  0
 46 43  1  0  0  0  0
 47 46  1  0  0  0  0
 48 46  1  0  0  0  0
 49 46  1  0  0  0  0
 50  1  1  0  0  0  0
 51 50  1  0  0  0  0
 52 51  1  0  0  0  0
 53 51  1  0  0  0  0
 54 51  1  0  0  0  0
 55 54  1  0  0  0  0
 56 54  1  0  0  0  0
 57 54  1  0  0  0  0
 58 50  1  0  0  0  0
 59 58  1  0  0  0  0
 60 58  1  0  0  0  0
 61 58  1  0  0  0  0
 62 61  1  0  0  0  0
 63 61  1  0  0  0  0
 64 61  1  0  0  0  0
 65 50  1  0  0  0  0
 66 65  1  0  0  0  0
 67 65  1  0  0  0  0
 68 65  1  0  0  0  0
 69 68  1  0  0  0  0
 70 68  1  0  0  0  0
 71 68  1  0  0  0  0
  2 11  1  0  0  0  0
  2 14  1  0  0  0  0
  6 13  1  0  0  0  0
 11 13  1  0  0  0  0
 11 16  1  0  0  0  0
 13 14  1  0  0  0  0
 13 18  1  0  0  0  0
 14 20  1  0  0  0  0
 14 22  1  0  0  0  0
 16 18  1  0  0  0  0
 16 22  1  0  0  0  0
 18 20  1  0  0  0  0
 18 24  1  0  0  0  0
 20 22  1  0  0  0  0
 20 24  1  0  0  0  0
 22 24  1  0  0  0  0
M  END
$$$$
DOFBIK

From CSD data. Using bond type 'Any'. No disordered atoms. Largest molecule.
 71 86  0  0  0  0  0  0  0  0999 V2000
    6.7303   -1.6969   10.6511 Fe  0  0  0  0  0  0  0  0  0  0  0  0
    7.8152   -0.6646    9.4392 C   0  0  0  0  0  0  0  0  0  0  0  0
    8.5974   -1.3727    8.5057 O   0  0  0  0  0  0  0  0  0  0  0  0
    6.3096   -0.1371    9.1475 B   0  0  0  0  0  0  0  0  0  0  0  0
    5.8486   -0.2699    8.1389 H   0  0  0  0  0  0  0  0  0  0  0  0
    7.8263    0.9268    9.4461 B   0  0  0  0  0  0  0  0  0  0  0  0
    8.4436    1.4359    8.7193 H   0  0  0  0  0  0  0  0  0  0  0  0
    8.2812   -0.1770   10.9056 B   0  0  0  0  0  0  0  0  0  0  0  0
    9.3343   -0.3511   11.2804 H   0  0  0  0  0  0  0  0  0  0  0  0
    5.3977    0.0222   10.7000 B   0  0  0  0  0  0  0  0  0  0  0  0
    4.2589   -0.1249   10.8142 H   0  0  0  0  0  0  0  0  0  0  0  0
    6.1814    1.4974    9.9199 B   0  0  0  0  0  0  0  0  0  0  0  0
    5.6937    2.3479    9.4385 H   0  0  0  0  0  0  0  0  0  0  0  0
    7.5619    1.4740   11.1403 B   0  0  0  0  0  0  0  0  0  0  0  0
    8.1013    2.3112   11.5821 H   0  0  0  0  0  0  0  0  0  0  0  0
    6.8399    0.0161   11.9828 B   0  0  0  0  0  0  0  0  0  0  0  0
    6.8279   -0.1332   13.0645 H   0  0  0  0  0  0  0  0  0  0  0  0
    6.0155    1.2971   11.4800 C   0  0  0  0  0  0  0  0  0  0  0  0
    5.5168    1.8526   12.0209 H   0  0  0  0  0  0  0  0  0  0  0  0
    5.3460   -2.4024   11.4258 C   0  0  0  0  0  0  0  0  0  0  0  0
    4.4050   -2.8275   11.9654 O   0  0  0  0  0  0  0  0  0  0  0  0
    8.0621   -3.0648   11.7678 P   0  0  0  0  0  0  0  0  0  0  0  0
    8.3808   -2.6095   13.5188 C   0  0  0  0  0  0  0  0  0  0  0  0
    9.0860   -3.2034   13.8827 H   0  0  0  0  0  0  0  0  0  0  0  0
    8.7201   -1.6810   13.5536 H   0  0  0  0  0  0  0  0  0  0  0  0
    7.1330   -2.7191   14.3992 C   0  0  0  0  0  0  0  0  0  0  0  0
    7.3596   -2.4680   15.3194 H   0  0  0  0  0  0  0  0  0  0  0  0
    6.8033   -3.6417   14.3839 H   0  0  0  0  0  0  0  0  0  0  0  0
    6.4386   -2.1191   14.0579 H   0  0  0  0  0  0  0  0  0  0  0  0
    7.4430   -4.7839   11.9249 C   0  0  0  0  0  0  0  0  0  0  0  0
    6.5719   -4.7560   12.3957 H   0  0  0  0  0  0  0  0  0  0  0  0
    7.2758   -5.1369   11.0153 H   0  0  0  0  0  0  0  0  0  0  0  0
    8.3542   -5.7763   12.6653 C   0  0  0  0  0  0  0  0  0  0  0  0
    7.9267   -6.6575   12.6912 H   0  0  0  0  0  0  0  0  0  0  0  0
    8.5081   -5.4601   13.5795 H   0  0  0  0  0  0  0  0  0  0  0  0
    9.2118   -5.8437   12.1946 H   0  0  0  0  0  0  0  0  0  0  0  0
    9.7359   -3.2711   11.0031 C   0  0  0  0  0  0  0  0  0  0  0  0
    9.7565   -4.1504   10.5491 H   0  0  0  0  0  0  0  0  0  0  0  0
    9.8400   -2.5780   10.3038 H   0  0  0  0  0  0  0  0  0  0  0  0
   10.9522   -3.1905   11.9295 C   0  0  0  0  0  0  0  0  0  0  0  0
   11.7712   -3.3137   11.4054 H   0  0  0  0  0  0  0  0  0  0  0  0
   10.8915   -3.8943   12.6105 H   0  0  0  0  0  0  0  0  0  0  0  0
   10.9728   -2.3157   12.3683 H   0  0  0  0  0  0  0  0  0  0  0  0
    7.8665   -2.5237    8.0810 C   0  0  0  0  0  0  0  0  0  0  0  0
    8.4954   -3.2689    7.9118 H   0  0  0  0  0  0  0  0  0  0  0  0
    7.3954   -2.3207    7.2339 H   0  0  0  0  0  0  0  0  0  0  0  0
    6.8450   -2.9464    9.1446 C   0  5  0  0  0  0  0  0  0  0  0  0
    6.0802   -4.0348    8.8961 C   0  0  0  0  0  0  0  0  0  0  0  0
    5.4021   -4.3064    9.5207 H   0  0  0  0  0  0  0  0  0  0  0  0
    6.1133   -5.1075    7.4868 P   0  3  0  0  0  0  0  0  0  0  0  0
    7.6844   -5.9592    7.2171 C   0  0  0  0  0  0  0  0  0  0  0  0
    7.5679   -6.6079    6.4782 H   0  0  0  0  0  0  0  0  0  0  0  0
    8.3574   -5.2935    6.9261 H   0  0  0  0  0  0  0  0  0  0  0  0
    8.2282   -6.6982    8.4314 C   0  0  0  0  0  0  0  0  0  0  0  0
    9.0759   -7.1290    8.1983 H   0  0  0  0  0  0  0  0  0  0  0  0
    7.5826   -7.3786    8.7148 H   0  0  0  0  0  0  0  0  0  0  0  0
    8.3749   -6.0622    9.1612 H   0  0  0  0  0  0  0  0  0  0  0  0
    5.7565   -4.2704    5.9114 C   0  0  0  0  0  0  0  0  0  0  0  0
    6.5756   -3.8074    5.6037 H   0  0  0  0  0  0  0  0  0  0  0  0
    5.5239   -4.9538    5.2334 H   0  0  0  0  0  0  0  0  0  0  0  0
    4.6179   -3.2535    5.9983 C   0  0  0  0  0  0  0  0  0  0  0  0
    4.4806   -2.8403    5.1192 H   0  0  0  0  0  0  0  0  0  0  0  0
    4.8478   -2.5609    6.6519 H   0  0  0  0  0  0  0  0  0  0  0  0
    3.7947   -3.7061    6.2786 H   0  0  0  0  0  0  0  0  0  0  0  0
    4.7995   -6.3085    7.8113 C   0  0  0  0  0  0  0  0  0  0  0  0
    4.9851   -6.7516    8.6767 H   0  0  0  0  0  0  0  0  0  0  0  0
    3.9431   -5.8217    7.9042 H   0  0  0  0  0  0  0  0  0  0  0  0
    4.6316   -7.3828    6.7448 C   0  0  0  0  0  0  0  0  0  0  0  0
    3.9009   -7.9850    6.9992 H   0  0  0  0  0  0  0  0  0  0  0  0
    5.4632   -7.8956    6.6625 H   0  0  0  0  0  0  0  0  0  0  0  0
    4.4224   -6.9610    5.8855 H   0  0  0  0  0  0  0  0  0  0  0  0
  1  2  1  0  0  0  0
  2  3  1  0  0  0  0
  3 44  1  0  0  0  0
  4  1  1  0  0  0  0
  5  4  1  0  0  0  0
  6  2  1  0  0  0  0
  7  6  1  0  0  0  0
  8  1  1  0  0  0  0
  9  8  1  0  0  0  0
 10  1  1  0  0  0  0
 11 10  1  0  0  0  0
 12  4  1  0  0  0  0
 13 12  1  0  0  0  0
 14  6  1  0  0  0  0
 15 14  1  0  0  0  0
 16  1  1  0  0  0  0
 17 16  1  0  0  0  0
 18 10  1  0  0  0  0
 19 18  1  0  0  0  0
 20  1  1  0  0  0  0
 21 20  3  0  0  0  0
 22  1  1  0  0  0  0
 23 22  1  0  0  0  0
 24 23  1  0  0  0  0
 25 23  1  0  0  0  0
 26 23  1  0  0  0  0
 27 26  1  0  0  0  0
 28 26  1  0  0  0  0
 29 26  1  0  0  0  0
 30 22  1  0  0  0  0
 31 30  1  0  0  0  0
 32 30  1  0  0  0  0
 33 30  1  0  0  0  0
 34 33  1  0  0  0  0
 35 33  1  0  0  0  0
 36 33  1  0  0  0  0
 37 22  1  0  0  0  0
 38 37  1  0  0  0  0
 39 37  1  0  0  0  0
 40 37  1  0  0  0  0
 41 40  1  0  0  0  0
 42 40  1  0  0  0  0
 43 40  1  0  0  0  0
 44 45  1  0  0  0  0
 46 44  1  0  0  0  0
 47  1  1  0  0  0  0
 48 47  2  0  0  0  0
 49 48  1  0  0  0  0
 50 48  1  0  0  0  0
 51 50  1  0  0  0  0
 52 51  1  0  0  0  0
 53 51  1  0  0  0  0
 54 51  1  0  0  0  0
 55 54  1  0  0  0  0
 56 54  1  0  0  0  0
 57 54  1  0  0  0  0
 58 50  1  0  0  0  0
 59 58  1  0  0  0  0
 60 58  1  0  0  0  0
 61 58  1  0  0  0  0
 62 61  1  0  0  0  0
 63 61  1  0  0  0  0
 64 61  1  0  0  0  0
 65 50  1  0  0  0  0
 66 65  1  0  0  0  0
 67 65  1  0  0  0  0
 68 65  1  0  0  0  0
 69 68  1  0  0  0  0
 70 68  1  0  0  0  0
 71 68  1  0  0  0  0
  2  4  1  0  0  0  0
  2  8  1  0  0  0  0
  4  6  1  0  0  0  0
  4 10  1  0  0  0  0
  6  8  1  0  0  0  0
  6 12  1  0  0  0  0
  8 14  1  0  0  0  0
  8 16  1  0  0  0  0
 10 12  1  0  0  0  0
 10 16  1  0  0  0  0
 12 14  1  0  0  0  0
 12 18  1  0  0  0  0
 14 16  1  0  0  0  0
 14 18  1  0  0  0  0
 16 18  1  0  0  0  0
 44 47  1  0  0  0  0
M  CHG  2  47  -1  50   1
M  END
$$$$
DOFBOQ

From CSD data. Using bond type 'Any'. No disordered atoms. Largest molecule.
 74 89  0  0  0  0  0  0  0  0999 V2000
    2.6039    8.0961    3.9132 Fe  0  0  0  0  0  0  0  0  0  0  0  0
    1.5156    7.1518    2.6472 C   0  0  0  0  0  0  0  0  0  0  0  0
    0.1600    7.4790    2.5918 O   0  0  0  0  0  0  0  0  0  0  0  0
    2.6458    7.8439    1.7106 B   0  0  0  0  0  0  0  0  0  0  0  0
    2.3454    8.5795    0.9402 H   0  0  0  0  0  0  0  0  0  0  0  0
    2.1201    6.0577    1.6553 B   0  0  0  0  0  0  0  0  0  0  0  0
    1.4176    5.5480    0.9533 H   0  0  0  0  0  0  0  0  0  0  0  0
    2.1985    5.9858    3.5255 B   0  0  0  0  0  0  0  0  0  0  0  0
    1.5674    5.3218    4.1371 H   0  0  0  0  0  0  0  0  0  0  0  0
    4.2364    7.7603    2.5132 B   0  0  0  0  0  0  0  0  0  0  0  0
    5.0287    8.5290    2.4266 H   0  0  0  0  0  0  0  0  0  0  0  0
    3.7998    6.5267    1.2231 B   0  0  0  0  0  0  0  0  0  0  0  0
    4.1573    6.3902    0.2306 H   0  0  0  0  0  0  0  0  0  0  0  0
    3.4739    5.2293    2.4840 B   0  0  0  0  0  0  0  0  0  0  0  0
    3.5969    4.1504    2.3972 H   0  0  0  0  0  0  0  0  0  0  0  0
    3.9363    6.3659    3.8570 B   0  0  0  0  0  0  0  0  0  0  0  0
    4.4245    6.0428    4.7356 H   0  0  0  0  0  0  0  0  0  0  0  0
    4.7371    6.2238    2.4683 C   0  0  0  0  0  0  0  0  0  0  0  0
    5.6329    5.9640    2.4266 H   0  0  0  0  0  0  0  0  0  0  0  0
    3.9043    8.9626    4.6805 C   0  0  0  0  0  0  0  0  0  0  0  0
    4.8623    9.4423    5.1524 O   0  0  0  0  0  0  0  0  0  0  0  0
    1.5769    7.8005    5.8539 P   0  0  0  0  0  0  0  0  0  0  0  0
   -0.1696    7.2190    5.7070 C   0  0  0  0  0  0  0  0  0  0  0  0
   -0.7598    8.0120    5.7739 H   0  0  0  0  0  0  0  0  0  0  0  0
   -0.2880    6.8406    4.7993 H   0  0  0  0  0  0  0  0  0  0  0  0
   -0.6612    6.1854    6.7106 C   0  0  0  0  0  0  0  0  0  0  0  0
   -1.5970    5.9660    6.5212 H   0  0  0  0  0  0  0  0  0  0  0  0
   -0.5865    6.5497    7.6168 H   0  0  0  0  0  0  0  0  0  0  0  0
   -0.1150    5.3743    6.6389 H   0  0  0  0  0  0  0  0  0  0  0  0
    2.3750    6.6103    7.0056 C   0  0  0  0  0  0  0  0  0  0  0  0
    1.7403    6.4003    7.7362 H   0  0  0  0  0  0  0  0  0  0  0  0
    2.5594    5.7701    6.5163 H   0  0  0  0  0  0  0  0  0  0  0  0
    3.6786    7.1168    7.6194 C   0  0  0  0  0  0  0  0  0  0  0  0
    4.0433    6.4346    8.2202 H   0  0  0  0  0  0  0  0  0  0  0  0
    3.5044    7.9372    8.1253 H   0  0  0  0  0  0  0  0  0  0  0  0
    4.3249    7.3031    6.9071 H   0  0  0  0  0  0  0  0  0  0  0  0
    1.4076    9.3074    6.8893 C   0  0  0  0  0  0  0  0  0  0  0  0
    2.3154    9.6458    7.0935 H   0  0  0  0  0  0  0  0  0  0  0  0
    0.9482   10.0013    6.3528 H   0  0  0  0  0  0  0  0  0  0  0  0
    0.6502    9.1488    8.2104 C   0  0  0  0  0  0  0  0  0  0  0  0
    0.6208   10.0114    8.6748 H   0  0  0  0  0  0  0  0  0  0  0  0
    1.1089    8.4906    8.7729 H   0  0  0  0  0  0  0  0  0  0  0  0
   -0.2632    8.8440    8.0289 H   0  0  0  0  0  0  0  0  0  0  0  0
    0.0032    8.8802    2.8580 C   0  0  0  0  0  0  0  0  0  0  0  0
   -0.7901    9.0117    3.4356 H   0  0  0  0  0  0  0  0  0  0  0  0
   -0.1622    9.3550    2.0048 H   0  0  0  0  0  0  0  0  0  0  0  0
    1.2256    9.4944    3.5409 C   0  5  0  0  0  0  0  0  0  0  0  0
    1.2700   10.8483    3.6972 C   0  0  0  0  0  0  0  0  0  0  0  0
    2.4777   11.5736    4.2741 C   0  0  0  0  0  0  0  0  0  0  0  0
    2.2991   12.5360    4.2990 H   0  0  0  0  0  0  0  0  0  0  0  0
    3.2618   11.4009    3.7119 H   0  0  0  0  0  0  0  0  0  0  0  0
    2.6502   11.2495    5.1820 H   0  0  0  0  0  0  0  0  0  0  0  0
    0.1149   12.0634    3.0634 P   0  3  0  0  0  0  0  0  0  0  0  0
   -0.1272   13.3919    4.2720 C   0  0  0  0  0  0  0  0  0  0  0  0
    0.7536   13.7821    4.5001 H   0  0  0  0  0  0  0  0  0  0  0  0
   -0.6756   14.1052    3.8591 H   0  0  0  0  0  0  0  0  0  0  0  0
   -0.8078   12.9235    5.5551 C   0  0  0  0  0  0  0  0  0  0  0  0
   -0.9099   13.6831    6.1664 H   0  0  0  0  0  0  0  0  0  0  0  0
   -0.2605   12.2310    5.9816 H   0  0  0  0  0  0  0  0  0  0  0  0
   -1.6905   12.5562    5.3406 H   0  0  0  0  0  0  0  0  0  0  0  0
   -1.5480   11.5094    2.5936 C   0  0  0  0  0  0  0  0  0  0  0  0
   -1.4733   10.8859    1.8282 H   0  0  0  0  0  0  0  0  0  0  0  0
   -1.9448   11.0111    3.3505 H   0  0  0  0  0  0  0  0  0  0  0  0
   -2.4888   12.6580    2.2088 C   0  0  0  0  0  0  0  0  0  0  0  0
   -3.3661   12.2936    1.9672 H   0  0  0  0  0  0  0  0  0  0  0  0
   -2.1152   13.1439    1.4439 H   0  0  0  0  0  0  0  0  0  0  0  0
   -2.5864   13.2691    2.9695 H   0  0  0  0  0  0  0  0  0  0  0  0
    0.8649   12.8201    1.5987 C   0  0  0  0  0  0  0  0  0  0  0  0
    0.2435   13.4973    1.2297 H   0  0  0  0  0  0  0  0  0  0  0  0
    1.6972   13.2853    1.8641 H   0  0  0  0  0  0  0  0  0  0  0  0
    1.1868   11.8038    0.5254 C   0  0  0  0  0  0  0  0  0  0  0  0
    1.5884   12.2573   -0.2436 H   0  0  0  0  0  0  0  0  0  0  0  0
    0.3628   11.3525    0.2453 H   0  0  0  0  0  0  0  0  0  0  0  0
    1.8165   11.1424    0.8797 H   0  0  0  0  0  0  0  0  0  0  0  0
  1  2  1  0  0  0  0
  2  3  1  0  0  0  0
  3 44  1  0  0  0  0
  4  1  1  0  0  0  0
  5  4  1  0  0  0  0
  6  2  1  0  0  0  0
  7  6  1  0  0  0  0
  8  1  1  0  0  0  0
  9  8  1  0  0  0  0
 10  1  1  0  0  0  0
 11 10  1  0  0  0  0
 12  4  1  0  0  0  0
 13 12  1  0  0  0  0
 14  6  1  0  0  0  0
 15 14  1  0  0  0  0
 16  1  1  0  0  0  0
 17 16  1  0  0  0  0
 18 10  1  0  0  0  0
 19 18  1  0  0  0  0
 20  1  1  0  0  0  0
 21 20  3  0  0  0  0
 22  1  1  0  0  0  0
 23 22  1  0  0  0  0
 24 23  1  0  0  0  0
 25 23  1  0  0  0  0
 26 23  1  0  0  0  0
 27 26  1  0  0  0  0
 28 26  1  0  0  0  0
 29 26  1  0  0  0  0
 30 22  1  0  0  0  0
 31 30  1  0  0  0  0
 32 30  1  0  0  0  0
 33 30  1  0  0  0  0
 34 33  1  0  0  0  0
 35 33  1  0  0  0  0
 36 33  1  0  0  0  0
 37 22  1  0  0  0  0
 38 37  1  0  0  0  0
 39 37  1  0  0  0  0
 40 37  1  0  0  0  0
 41 40  1  0  0  0  0
 42 40  1  0  0  0  0
 43 40  1  0  0  0  0
 44 45  1  0  0  0  0
 46 44  1  0  0  0  0
 47  1  1  0  0  0  0
 48 47  2  0  0  0  0
 49 48  1  0  0  0  0
 50 49  1  0  0  0  0
 51 49  1  0  0  0  0
 52 49  1  0  0  0  0
 53 48  1  0  0  0  0
 54 53  1  0  0  0  0
 55 54  1  0  0  0  0
 56 54  1  0  0  0  0
 57 54  1  0  0  0  0
 58 57  1  0  0  0  0
 59 57  1  0  0  0  0
 60 57  1  0  0  0  0
 61 53  1  0  0  0  0
 62 61  1  0  0  0  0
 63 61  1  0  0  0  0
 64 61  1  0  0  0  0
 65 64  1  0  0  0  0
 66 64  1  0  0  0  0
 67 64  1  0  0  0  0
 68 53  1  0  0  0  0
 69 68  1  0  0  0  0
 70 68  1  0  0  0  0
 71 68  1  0  0  0  0
 72 71  1  0  0  0  0
 73 71  1  0  0  0  0
 74 71  1  0  0  0  0
  2  4  1  0  0  0  0
  2  8  1  0  0  0  0
  4  6  1  0  0  0  0
  4 10  1  0  0  0  0
  6  8  1  0  0  0  0
  6 12  1  0  0  0  0
  8 14  1  0  0  0  0
  8 16  1  0  0  0  0
 10 12  1  0  0  0  0
 10 16  1  0  0  0  0
 12 14  1  0  0  0  0
 12 18  1  0  0  0  0
 14 16  1  0  0  0  0
 14 18  1  0  0  0  0
 16 18  1  0  0  0  0
 44 47  1  0  0  0  0
M  CHG  2  47  -1  53   1
M  END
$$$$
DONWOS

From CSD data. Using bond type 'Any'. No disordered atoms. Largest molecule.
 85105  0  0  0  0  0  0  0  0999 V2000
    3.6397    3.7626    5.3165 Pt  0  0  0  0  0  0  0  0  0  0  0  0
    1.7532    2.8943    6.8844 W   0  0  0  0  0  0  0  0  0  0  0  0
    5.8291    4.1373    5.9468 P   0  0  0  0  0  0  0  0  0  0  0  0
    3.4619    4.3962    3.1116 P   0  0  0  0  0  0  0  0  0  0  0  0
    2.1749    4.8746    6.4864 C   0  0  0  0  0  0  0  0  0  0  0  0
    2.2501    6.0627    6.4421 O   0  0  0  0  0  0  0  0  0  0  0  0
    3.0271    1.7289    5.7234 C   0  0  0  0  0  0  0  0  0  0  0  0
    3.5395    0.8866    5.1794 O   0  0  0  0  0  0  0  0  0  0  0  0
    0.1884    1.7579    6.2895 C   0  0  0  0  0  0  0  0  0  0  0  0
    0.0210    1.1242    4.9029 C   0  0  0  0  0  0  0  0  0  0  0  0
    2.0847    1.6375    8.4546 C   0  0  0  0  0  0  0  0  0  0  0  0
    3.4096    0.9262    8.6979 C   0  0  0  0  0  0  0  0  0  0  0  0
    1.5346    3.0725    9.1977 B   0  0  0  0  0  0  0  0  0  0  0  0
    0.1426    3.8433    8.3927 B   0  0  0  0  0  0  0  0  0  0  0  0
   -0.5676    3.1380    6.8314 B   0  0  0  0  0  0  0  0  0  0  0  0
    0.7036    0.7738    7.7292 B   0  0  0  0  0  0  0  0  0  0  0  0
    0.9354    1.3344    9.5803 B   0  0  0  0  0  0  0  0  0  0  0  0
   -0.1990    2.6749    9.7992 B   0  0  0  0  0  0  0  0  0  0  0  0
   -1.3210    2.7480    8.4060 B   0  0  0  0  0  0  0  0  0  0  0  0
   -1.0759    1.4212    7.2471 B   0  0  0  0  0  0  0  0  0  0  0  0
   -0.7445    1.1821    8.9389 B   0  0  0  0  0  0  0  0  0  0  0  0
   -0.0426    5.4031    8.6315 C   0  0  0  0  0  0  0  0  0  0  0  0
   -1.1282    5.8281    9.6024 C   0  0  0  0  0  0  0  0  0  0  0  0
   -2.3890    6.1937    9.2198 C   0  0  0  0  0  0  0  0  0  0  0  0
   -3.3119    6.5883   10.0934 C   0  0  0  0  0  0  0  0  0  0  0  0
   -3.0641    6.6050   11.4468 C   0  0  0  0  0  0  0  0  0  0  0  0
   -1.8470    6.2729   11.8869 C   0  0  0  0  0  0  0  0  0  0  0  0
   -0.8607    5.8708   10.9647 C   0  0  0  0  0  0  0  0  0  0  0  0
   -4.1244    7.0605   12.5150 C   0  0  0  0  0  0  0  0  0  0  0  0
    6.9039    5.1594    4.8963 C   0  0  0  0  0  0  0  0  0  0  0  0
    8.3842    5.2645    5.3497 C   0  0  0  0  0  0  0  0  0  0  0  0
    6.7663    2.6231    6.3117 C   0  0  0  0  0  0  0  0  0  0  0  0
    7.0156    1.8858    5.0400 C   0  0  0  0  0  0  0  0  0  0  0  0
    5.9309    4.7512    7.7027 C   0  0  0  0  0  0  0  0  0  0  0  0
    5.5376    5.8982    7.6364 C   0  0  0  0  0  0  0  0  0  0  0  0
    1.9536    4.1632    2.4459 C   0  0  0  0  0  0  0  0  0  0  0  0
    0.6770    4.6765    3.0829 C   0  0  0  0  0  0  0  0  0  0  0  0
    4.2600    5.9058    2.1960 C   0  0  0  0  0  0  0  0  0  0  0  0
    4.0356    6.7223    3.0829 C   0  0  0  0  0  0  0  0  0  0  0  0
    4.6209    3.7169    1.8002 C   0  0  0  0  0  0  0  0  0  0  0  0
    4.5640    2.3093    1.7360 C   0  0  0  0  0  0  0  0  0  0  0  0
    0.6856    1.4608    4.2970 H   0  0  0  0  0  0  0  0  0  0  0  0
   -0.8518    1.3801    4.5955 H   0  0  0  0  0  0  0  0  0  0  0  0
    0.0782    0.1676    4.9427 H   0  0  0  0  0  0  0  0  0  0  0  0
    4.0071    0.7099    7.9791 H   0  0  0  0  0  0  0  0  0  0  0  0
    3.3152    0.1660    9.2751 H   0  0  0  0  0  0  0  0  0  0  0  0
    3.7634    1.6665    9.1955 H   0  0  0  0  0  0  0  0  0  0  0  0
   -0.2379    5.8053    7.7823 H   0  0  0  0  0  0  0  0  0  0  0  0
    0.7894    5.7459    8.9655 H   0  0  0  0  0  0  0  0  0  0  0  0
   -2.6127    6.1648    8.2865 H   0  0  0  0  0  0  0  0  0  0  0  0
   -4.1843    6.8640    9.7992 H   0  0  0  0  0  0  0  0  0  0  0  0
   -1.6403    6.2973   12.8246 H   0  0  0  0  0  0  0  0  0  0  0  0
    0.0150    5.6164   11.2632 H   0  0  0  0  0  0  0  0  0  0  0  0
   -4.6851    7.2951   11.7719 H   0  0  0  0  0  0  0  0  0  0  0  0
   -3.8802    7.8557   12.9949 H   0  0  0  0  0  0  0  0  0  0  0  0
   -4.6000    6.4664   13.1010 H   0  0  0  0  0  0  0  0  0  0  0  0
    6.5430    6.0490    4.8852 H   0  0  0  0  0  0  0  0  0  0  0  0
    6.8868    4.7953    4.0095 H   0  0  0  0  0  0  0  0  0  0  0  0
    8.8623    5.9546    4.8830 H   0  0  0  0  0  0  0  0  0  0  0  0
    8.6917    4.4054    5.0533 H   0  0  0  0  0  0  0  0  0  0  0  0
    8.5371    5.3514    6.2940 H   0  0  0  0  0  0  0  0  0  0  0  0
    6.2784    2.0702    6.9265 H   0  0  0  0  0  0  0  0  0  0  0  0
    7.6144    2.8577    6.6965 H   0  0  0  0  0  0  0  0  0  0  0  0
    7.2676    1.3481    5.7942 H   0  0  0  0  0  0  0  0  0  0  0  0
    7.7565    1.9513    4.4319 H   0  0  0  0  0  0  0  0  0  0  0  0
    6.2700    1.4791    4.5911 H   0  0  0  0  0  0  0  0  0  0  0  0
    6.8350    4.6979    8.0234 H   0  0  0  0  0  0  0  0  0  0  0  0
    5.3589    4.2302    8.2711 H   0  0  0  0  0  0  0  0  0  0  0  0
    5.3467    5.6423    8.5409 H   0  0  0  0  0  0  0  0  0  0  0  0
    5.0554    6.7010    7.4218 H   0  0  0  0  0  0  0  0  0  0  0  0
    6.4792    6.0566    7.5391 H   0  0  0  0  0  0  0  0  0  0  0  0
    1.8118    3.2172    2.3685 H   0  0  0  0  0  0  0  0  0  0  0  0
    1.9788    4.5547    1.5680 H   0  0  0  0  0  0  0  0  0  0  0  0
   -0.0968    4.7938    2.5278 H   0  0  0  0  0  0  0  0  0  0  0  0
    1.2163    5.4702    3.0541 H   0  0  0  0  0  0  0  0  0  0  0  0
    0.4005    4.5120    3.9874 H   0  0  0  0  0  0  0  0  0  0  0  0
    3.8191    6.1465    1.3778 H   0  0  0  0  0  0  0  0  0  0  0  0
    5.2006    5.8038    2.0346 H   0  0  0  0  0  0  0  0  0  0  0  0
    4.7845    7.1153    3.5362 H   0  0  0  0  0  0  0  0  0  0  0  0
    3.2434    6.8381    3.6136 H   0  0  0  0  0  0  0  0  0  0  0  0
    5.5106    3.9103    2.1032 H   0  0  0  0  0  0  0  0  0  0  0  0
    4.4771    4.1251    0.9443 H   0  0  0  0  0  0  0  0  0  0  0  0
    4.9532    2.3459    0.8581 H   0  0  0  0  0  0  0  0  0  0  0  0
    3.6323    2.5317    1.6830 H   0  0  0  0  0  0  0  0  0  0  0  0
    4.6610    1.4212    2.0899 H   0  0  0  0  0  0  0  0  0  0  0  0
  1  2  2  0  0  0  0
  2  5  1  0  0  0  0
  3  1  1  0  0  0  0
  4  1  1  0  0  0  0
  5  1  1  0  0  0  0
  6  5  2  0  0  0  0
  7  1  1  0  0  0  0
  8  7  2  0  0  0  0
  9  2  1  0  0  0  0
 10  9  1  0  0  0  0
 11  2  1  0  0  0  0
 12 11  1  0  0  0  0
 13  2  1  0  0  0  0
 14  2  1  0  0  0  0
 15  2  1  0  0  0  0
 16  9  1  0  0  0  0
 17 11  1  0  0  0  0
 18 13  1  0  0  0  0
 19 14  1  0  0  0  0
 20  9  1  0  0  0  0
 21 16  1  0  0  0  0
 22 14  1  0  0  0  0
 23 22  1  0  0  0  0
 24 23  4  0  0  0  0
 25 24  4  0  0  0  0
 26 25  4  0  0  0  0
 27 26  4  0  0  0  0
 28 23  4  0  0  0  0
 29 26  1  0  0  0  0
 30  3  1  0  0  0  0
 31 30  1  0  0  0  0
 32  3  1  0  0  0  0
 33 32  1  0  0  0  0
 34  3  1  0  0  0  0
 35 34  1  0  0  0  0
 36  4  1  0  0  0  0
 37 36  1  0  0  0  0
 38  4  1  0  0  0  0
 39 38  1  0  0  0  0
 40  4  1  0  0  0  0
 41 40  1  0  0  0  0
 42 10  1  0  0  0  0
 43 10  1  0  0  0  0
 44 10  1  0  0  0  0
 45 12  1  0  0  0  0
 46 12  1  0  0  0  0
 47 12  1  0  0  0  0
 48 22  1  0  0  0  0
 49 22  1  0  0  0  0
 50 24  1  0  0  0  0
 51 25  1  0  0  0  0
 52 27  1  0  0  0  0
 53 28  1  0  0  0  0
 54 29  1  0  0  0  0
 55 29  1  0  0  0  0
 56 29  1  0  0  0  0
 57 30  1  0  0  0  0
 58 30  1  0  0  0  0
 59 31  1  0  0  0  0
 60 31  1  0  0  0  0
 61 31  1  0  0  0  0
 62 32  1  0  0  0  0
 63 32  1  0  0  0  0
 64 33  1  0  0  0  0
 65 33  1  0  0  0  0
 66 33  1  0  0  0  0
 67 34  1  0  0  0  0
 68 34  1  0  0  0  0
 69 35  1  0  0  0  0
 70 35  1  0  0  0  0
 71 35  1  0  0  0  0
 72 36  1  0  0  0  0
 73 36  1  0  0  0  0
 74 37  1  0  0  0  0
 75 37  1  0  0  0  0
 76 37  1  0  0  0  0
 77 38  1  0  0  0  0
 78 38  1  0  0  0  0
 79 39  1  0  0  0  0
 80 39  1  0  0  0  0
 81 40  1  0  0  0  0
 82 40  1  0  0  0  0
 83 41  1  0  0  0  0
 84 41  1  0  0  0  0
 85 41  1  0  0  0  0
  2  7  1  0  0  0  0
  9 15  1  0  0  0  0
 11 13  1  0  0  0  0
 11 16  1  0  0  0  0
 13 14  1  0  0  0  0
 13 17  1  0  0  0  0
 14 15  1  0  0  0  0
 14 18  1  0  0  0  0
 15 19  1  0  0  0  0
 15 20  1  0  0  0  0
 16 17  1  0  0  0  0
 16 20  1  0  0  0  0
 17 18  1  0  0  0  0
 17 21  1  0  0  0  0
 18 19  1  0  0  0  0
 18 21  1  0  0  0  0
 19 20  1  0  0  0  0
 19 21  1  0  0  0  0
 20 21  1  0  0  0  0
 27 28  4  0  0  0  0
M  END
$$$$
DONWOS10

From CSD data. Using bond type 'Any'. No disordered atoms. Largest molecule.
 86107  0  0  0  0  0  0  0  0999 V2000
    3.6397    3.7626    5.3165 Pt  0  0  0  0  0  0  0  0  0  0  0  0
    1.7532    2.8943    6.8844 W   0  0  0  0  0  0  0  0  0  0  0  0
    5.8291    4.1373    5.9468 P   0  0  0  0  0  0  0  0  0  0  0  0
    3.4619    4.3962    3.1116 P   0  0  0  0  0  0  0  0  0  0  0  0
    2.1749    4.8746    6.4864 C   0  0  0  0  0  0  0  0  0  0  0  0
    2.2501    6.0627    6.4421 O   0  0  0  0  0  0  0  0  0  0  0  0
    3.0271    1.7289    5.7234 C   0  0  0  0  0  0  0  0  0  0  0  0
    3.5395    0.8866    5.1794 O   0  0  0  0  0  0  0  0  0  0  0  0
    0.1884    1.7579    6.2895 C   0  0  0  0  0  0  0  0  0  0  0  0
    0.0210    1.1242    4.9029 C   0  0  0  0  0  0  0  0  0  0  0  0
    2.0847    1.6375    8.4546 C   0  0  0  0  0  0  0  0  0  0  0  0
    3.4096    0.9262    8.6979 C   0  0  0  0  0  0  0  0  0  0  0  0
    1.5346    3.0725    9.1977 B   0  0  0  0  0  0  0  0  0  0  0  0
    0.1426    3.8433    8.3927 B   0  0  0  0  0  0  0  0  0  0  0  0
   -0.5676    3.1380    6.8314 B   0  0  0  0  0  0  0  0  0  0  0  0
    0.7036    0.7738    7.7292 B   0  0  0  0  0  0  0  0  0  0  0  0
    0.9354    1.3344    9.5803 B   0  0  0  0  0  0  0  0  0  0  0  0
   -0.1990    2.6749    9.7992 B   0  0  0  0  0  0  0  0  0  0  0  0
   -1.3210    2.7480    8.4060 B   0  0  0  0  0  0  0  0  0  0  0  0
   -1.0759    1.4212    7.2471 B   0  0  0  0  0  0  0  0  0  0  0  0
   -0.7445    1.1821    8.9389 B   0  0  0  0  0  0  0  0  0  0  0  0
   -0.0426    5.4031    8.6315 C   0  0  0  0  0  0  0  0  0  0  0  0
   -1.1282    5.8281    9.6024 C   0  0  0  0  0  0  0  0  0  0  0  0
   -2.3890    6.1937    9.2198 C   0  0  0  0  0  0  0  0  0  0  0  0
   -3.3119    6.5883   10.0934 C   0  0  0  0  0  0  0  0  0  0  0  0
   -3.0641    6.6050   11.4468 C   0  0  0  0  0  0  0  0  0  0  0  0
   -1.8470    6.2729   11.8869 C   0  0  0  0  0  0  0  0  0  0  0  0
   -0.8607    5.8708   10.9647 C   0  0  0  0  0  0  0  0  0  0  0  0
   -4.1244    7.0605   12.5150 C   0  0  0  0  0  0  0  0  0  0  0  0
    6.9039    5.1594    4.8963 C   0  0  0  0  0  0  0  0  0  0  0  0
    8.3842    5.2645    5.3497 C   0  0  0  0  0  0  0  0  0  0  0  0
    6.7663    2.6231    6.3117 C   0  0  0  0  0  0  0  0  0  0  0  0
    7.0156    1.8858    5.0400 C   0  0  0  0  0  0  0  0  0  0  0  0
    5.9309    4.7512    7.7027 C   0  0  0  0  0  0  0  0  0  0  0  0
    5.5376    5.8982    7.6364 C   0  0  0  0  0  0  0  0  0  0  0  0
    1.9536    4.1632    2.4459 C   0  0  0  0  0  0  0  0  0  0  0  0
    0.6770    4.6765    3.0829 C   0  0  0  0  0  0  0  0  0  0  0  0
    4.2600    5.9058    2.1960 C   0  0  0  0  0  0  0  0  0  0  0  0
    4.0356    6.7223    3.0829 C   0  0  0  0  0  0  0  0  0  0  0  0
    4.6209    3.7169    1.8002 C   0  0  0  0  0  0  0  0  0  0  0  0
    4.5640    2.3093    1.7360 C   0  0  0  0  0  0  0  0  0  0  0  0
    0.6856    1.4608    4.2970 H   0  0  0  0  0  0  0  0  0  0  0  0
   -0.8518    1.3801    4.5955 H   0  0  0  0  0  0  0  0  0  0  0  0
    0.0782    0.1676    4.9427 H   0  0  0  0  0  0  0  0  0  0  0  0
    4.0071    0.7099    7.9791 H   0  0  0  0  0  0  0  0  0  0  0  0
    3.3152    0.1660    9.2751 H   0  0  0  0  0  0  0  0  0  0  0  0
    3.7634    1.6665    9.1955 H   0  0  0  0  0  0  0  0  0  0  0  0
   -0.2379    5.8053    7.7823 H   0  0  0  0  0  0  0  0  0  0  0  0
    0.7894    5.7459    8.9655 H   0  0  0  0  0  0  0  0  0  0  0  0
   -2.6127    6.1648    8.2865 H   0  0  0  0  0  0  0  0  0  0  0  0
   -4.1843    6.8640    9.7992 H   0  0  0  0  0  0  0  0  0  0  0  0
   -1.6403    6.2973   12.8246 H   0  0  0  0  0  0  0  0  0  0  0  0
    0.0150    5.6164   11.2632 H   0  0  0  0  0  0  0  0  0  0  0  0
   -4.6851    7.2951   11.7719 H   0  0  0  0  0  0  0  0  0  0  0  0
   -3.8802    7.8557   12.9949 H   0  0  0  0  0  0  0  0  0  0  0  0
   -4.6000    6.4664   13.1010 H   0  0  0  0  0  0  0  0  0  0  0  0
    6.5430    6.0490    4.8852 H   0  0  0  0  0  0  0  0  0  0  0  0
    6.8868    4.7953    4.0095 H   0  0  0  0  0  0  0  0  0  0  0  0
    8.8623    5.9546    4.8830 H   0  0  0  0  0  0  0  0  0  0  0  0
    8.6917    4.4054    5.0533 H   0  0  0  0  0  0  0  0  0  0  0  0
    8.5371    5.3514    6.2940 H   0  0  0  0  0  0  0  0  0  0  0  0
    6.2784    2.0702    6.9265 H   0  0  0  0  0  0  0  0  0  0  0  0
    7.6144    2.8577    6.6965 H   0  0  0  0  0  0  0  0  0  0  0  0
    7.2676    1.3481    5.7942 H   0  0  0  0  0  0  0  0  0  0  0  0
    7.7565    1.9513    4.4319 H   0  0  0  0  0  0  0  0  0  0  0  0
    6.2700    1.4791    4.5911 H   0  0  0  0  0  0  0  0  0  0  0  0
    6.8350    4.6979    8.0234 H   0  0  0  0  0  0  0  0  0  0  0  0
    5.3589    4.2302    8.2711 H   0  0  0  0  0  0  0  0  0  0  0  0
    5.3467    5.6423    8.5409 H   0  0  0  0  0  0  0  0  0  0  0  0
    5.0554    6.7010    7.4218 H   0  0  0  0  0  0  0  0  0  0  0  0
    6.4792    6.0566    7.5391 H   0  0  0  0  0  0  0  0  0  0  0  0
    1.8118    3.2172    2.3685 H   0  0  0  0  0  0  0  0  0  0  0  0
    1.9788    4.5547    1.5680 H   0  0  0  0  0  0  0  0  0  0  0  0
   -0.0968    4.7938    2.5278 H   0  0  0  0  0  0  0  0  0  0  0  0
    1.2163    5.4702    3.0541 H   0  0  0  0  0  0  0  0  0  0  0  0
    0.4005    4.5120    3.9874 H   0  0  0  0  0  0  0  0  0  0  0  0
    3.8191    6.1465    1.3778 H   0  0  0  0  0  0  0  0  0  0  0  0
    5.2006    5.8038    2.0346 H   0  0  0  0  0  0  0  0  0  0  0  0
    3.9164    7.1519    2.2336 H   0  0  0  0  0  0  0  0  0  0  0  0
    4.7845    7.1153    3.5362 H   0  0  0  0  0  0  0  0  0  0  0  0
    3.2434    6.8381    3.6136 H   0  0  0  0  0  0  0  0  0  0  0  0
    5.5106    3.9103    2.1032 H   0  0  0  0  0  0  0  0  0  0  0  0
    4.4771    4.1251    0.9443 H   0  0  0  0  0  0  0  0  0  0  0  0
    4.9532    2.3459    0.8581 H   0  0  0  0  0  0  0  0  0  0  0  0
    3.6323    2.5317    1.6830 H   0  0  0  0  0  0  0  0  0  0  0  0
    4.6610    1.4212    2.0899 H   0  0  0  0  0  0  0  0  0  0  0  0
  1  2  2  0  0  0  0
  2  5  1  0  0  0  0
  3  1  1  0  0  0  0
  4  1  1  0  0  0  0
  5  1  1  0  0  0  0
  6  5  2  0  0  0  0
  7  1  1  0  0  0  0
  8  7  2  0  0  0  0
  9  2  1  0  0  0  0
 10  9  1  0  0  0  0
 11  2  1  0  0  0  0
 12 11  1  0  0  0  0
 13  2  1  0  0  0  0
 14  2  1  0  0  0  0
 15  2  1  0  0  0  0
 16  2  1  0  0  0  0
 17 11  1  0  0  0  0
 18 13  1  0  0  0  0
 19 14  1  0  0  0  0
 20  9  1  0  0  0  0
 21 16  1  0  0  0  0
 22 14  1  0  0  0  0
 23 22  1  0  0  0  0
 24 23  4  0  0  0  0
 25 24  4  0  0  0  0
 26 25  4  0  0  0  0
 27 26  4  0  0  0  0
 28 23  4  0  0  0  0
 29 26  1  0  0  0  0
 30  3  1  0  0  0  0
 31 30  1  0  0  0  0
 32  3  1  0  0  0  0
 33 32  1  0  0  0  0
 34  3  1  0  0  0  0
 35 34  1  0  0  0  0
 36  4  1  0  0  0  0
 37 36  1  0  0  0  0
 38  4  1  0  0  0  0
 39 38  1  0  0  0  0
 40  4  1  0  0  0  0
 41 40  1  0  0  0  0
 42 10  1  0  0  0  0
 43 10  1  0  0  0  0
 44 10  1  0  0  0  0
 45 12  1  0  0  0  0
 46 12  1  0  0  0  0
 47 12  1  0  0  0  0
 48 22  1  0  0  0  0
 49 22  1  0  0  0  0
 50 24  1  0  0  0  0
 51 25  1  0  0  0  0
 52 27  1  0  0  0  0
 53 28  1  0  0  0  0
 54 29  1  0  0  0  0
 55 29  1  0  0  0  0
 56 29  1  0  0  0  0
 57 30  1  0  0  0  0
 58 30  1  0  0  0  0
 59 31  1  0  0  0  0
 60 31  1  0  0  0  0
 61 31  1  0  0  0  0
 62 32  1  0  0  0  0
 63 32  1  0  0  0  0
 64 33  1  0  0  0  0
 65 33  1  0  0  0  0
 66 33  1  0  0  0  0
 67 34  1  0  0  0  0
 68 34  1  0  0  0  0
 69 35  1  0  0  0  0
 70 35  1  0  0  0  0
 71 35  1  0  0  0  0
 72 36  1  0  0  0  0
 73 36  1  0  0  0  0
 74 37  1  0  0  0  0
 75 37  1  0  0  0  0
 76 37  1  0  0  0  0
 77 38  1  0  0  0  0
 78 38  1  0  0  0  0
 79 39  1  0  0  0  0
 80 39  1  0  0  0  0
 81 39  1  0  0  0  0
 82 40  1  0  0  0  0
 83 40  1  0  0  0  0
 84 41  1  0  0  0  0
 85 41  1  0  0  0  0
 86 41  1  0  0  0  0
  2  7  1  0  0  0  0
  9 15  1  0  0  0  0
  9 16  1  0  0  0  0
 11 13  1  0  0  0  0
 11 16  1  0  0  0  0
 13 14  1  0  0  0  0
 13 17  1  0  0  0  0
 14 15  1  0  0  0  0
 14 18  1  0  0  0  0
 15 19  1  0  0  0  0
 15 20  1  0  0  0  0
 16 17  1  0  0  0  0
 16 20  1  0  0  0  0
 17 18  1  0  0  0  0
 17 21  1  0  0  0  0
 18 19  1  0  0  0  0
 18 21  1  0  0  0  0
 19 20  1  0  0  0  0
 19 21  1  0  0  0  0
 20 21  1  0  0  0  0
 27 28  4  0  0  0  0
M  END
$$$$
DONWUY

From CSD data. Using bond type 'Any'. No disordered atoms. Largest molecule.
107128  0  0  0  0  0  0  0  0999 V2000
    0.3555    3.3891    2.7014 Pt  0  0  0  0  0  0  0  0  0  0  0  0
    2.7256    2.2375    3.7692 W   0  0  0  0  0  0  0  0  0  0  0  0
   -1.5031    2.9539    4.1039 P   0  0  0  0  0  0  0  0  0  0  0  0
   -0.4688    4.7833    1.1337 P   0  0  0  0  0  0  0  0  0  0  0  0
    4.0689    1.9395    5.8325 P   0  0  0  0  0  0  0  0  0  0  0  0
    1.9524    3.4965    5.0821 C   0  0  0  0  0  0  0  0  0  0  0  0
    1.5799    4.3019    5.8195 O   0  0  0  0  0  0  0  0  0  0  0  0
    2.0955    0.4956    4.4569 C   0  0  0  0  0  0  0  0  0  0  0  0
    1.7556   -0.5460    4.7809 O   0  0  0  0  0  0  0  0  0  0  0  0
    4.2500    1.3198    2.1248 C   0  0  0  0  0  0  0  0  0  0  0  0
    4.6845   -0.0981    2.4952 C   0  0  0  0  0  0  0  0  0  0  0  0
    2.7748    1.5937    1.5148 C   0  0  0  0  0  0  0  0  0  0  0  0
    1.8064    0.4481    1.2837 C   0  0  0  0  0  0  0  0  0  0  0  0
    2.2843    3.3040    1.8160 B   0  0  0  0  0  0  0  0  0  0  0  0
    3.7280    4.1247    2.6312 B   0  0  0  0  0  0  0  0  0  0  0  0
    4.8792    2.7762    2.8439 B   0  0  0  0  0  0  0  0  0  0  0  0
    4.0976    1.4965    0.4070 B   0  0  0  0  0  0  0  0  0  0  0  0
    2.8491    2.7040    0.2235 B   0  0  0  0  0  0  0  0  0  0  0  0
    3.4400    4.2330    0.8486 B   0  0  0  0  0  0  0  0  0  0  0  0
    5.0976    3.9156    1.4997 B   0  0  0  0  0  0  0  0  0  0  0  0
    5.4306    2.2081    1.2470 B   0  0  0  0  0  0  0  0  0  0  0  0
    4.5427    3.1088    0.0108 B   0  0  0  0  0  0  0  0  0  0  0  0
    3.6566    5.5141    3.4582 C   0  0  0  0  0  0  0  0  0  0  0  0
    4.7008    6.5328    3.1160 C   0  0  0  0  0  0  0  0  0  0  0  0
    5.9175    6.5662    3.7724 C   0  0  0  0  0  0  0  0  0  0  0  0
    6.9374    7.4038    3.4097 C   0  0  0  0  0  0  0  0  0  0  0  0
    6.7897    8.3023    2.3667 C   0  0  0  0  0  0  0  0  0  0  0  0
    5.5584    8.3392    1.7556 C   0  0  0  0  0  0  0  0  0  0  0  0
    4.5409    7.4744    2.1151 C   0  0  0  0  0  0  0  0  0  0  0  0
    7.9169    9.1943    1.9294 C   0  0  0  0  0  0  0  0  0  0  0  0
   -2.6844    1.8049    3.3222 C   0  0  0  0  0  0  0  0  0  0  0  0
   -2.0662    0.5515    2.8277 C   0  0  0  0  0  0  0  0  0  0  0  0
   -1.0758    2.0822    5.6586 C   0  0  0  0  0  0  0  0  0  0  0  0
   -2.2390    1.6789    6.5861 C   0  0  0  0  0  0  0  0  0  0  0  0
   -2.5791    4.2956    4.7064 C   0  0  0  0  0  0  0  0  0  0  0  0
   -1.8966    5.3032    5.5733 C   0  0  0  0  0  0  0  0  0  0  0  0
   -0.1536    4.3302   -0.5927 C   0  0  0  0  0  0  0  0  0  0  0  0
   -0.7529    2.9658   -0.9706 C   0  0  0  0  0  0  0  0  0  0  0  0
    0.2530    6.4594    1.1985 C   0  0  0  0  0  0  0  0  0  0  0  0
    0.0295    7.1640    2.5383 C   0  0  0  0  0  0  0  0  0  0  0  0
   -2.2749    5.0788    1.1455 C   0  0  0  0  0  0  0  0  0  0  0  0
   -2.8664    5.8875   -0.0162 C   0  0  0  0  0  0  0  0  0  0  0  0
    3.0715    1.6000    7.3203 C   0  0  0  0  0  0  0  0  0  0  0  0
    5.1132    3.3342    6.3680 C   0  0  0  0  0  0  0  0  0  0  0  0
    5.2494    0.5409    5.9242 C   0  0  0  0  0  0  0  0  0  0  0  0
    1.2459    1.9476    3.5003 H   0  0  0  0  0  0  0  0  0  0  0  0
    4.7585   -0.1710    3.4496 H   0  0  0  0  0  0  0  0  0  0  0  0
    5.5354   -0.2869    2.0924 H   0  0  0  0  0  0  0  0  0  0  0  0
    4.0336   -0.7256    2.1756 H   0  0  0  0  0  0  0  0  0  0  0  0
    1.0783    0.5139    1.9056 H   0  0  0  0  0  0  0  0  0  0  0  0
    2.2620   -0.3865    1.4133 H   0  0  0  0  0  0  0  0  0  0  0  0
    1.4670    0.4909    0.3876 H   0  0  0  0  0  0  0  0  0  0  0  0
    5.6443    2.5903    3.6364 H   0  0  0  0  0  0  0  0  0  0  0  0
    4.1013    0.5672   -0.1155 H   0  0  0  0  0  0  0  0  0  0  0  0
    2.1137    2.4193   -0.6165 H   0  0  0  0  0  0  0  0  0  0  0  0
    3.1982    5.0693    0.3390 H   0  0  0  0  0  0  0  0  0  0  0  0
    5.8067    4.6221    1.4187 H   0  0  0  0  0  0  0  0  0  0  0  0
    6.4520    1.8725    1.1132 H   0  0  0  0  0  0  0  0  0  0  0  0
    4.9017    3.3100   -0.9296 H   0  0  0  0  0  0  0  0  0  0  0  0
    2.7746    5.8850    3.4151 H   0  0  0  0  0  0  0  0  0  0  0  0
    3.8146    5.3485    4.4008 H   0  0  0  0  0  0  0  0  0  0  0  0
    6.1413    6.1738    4.2961 H   0  0  0  0  0  0  0  0  0  0  0  0
    7.7331    7.4499    4.0046 H   0  0  0  0  0  0  0  0  0  0  0  0
    5.4953    8.8623    1.1337 H   0  0  0  0  0  0  0  0  0  0  0  0
    3.6974    7.5667    1.6595 H   0  0  0  0  0  0  0  0  0  0  0  0
    8.6883    9.0267    2.4757 H   0  0  0  0  0  0  0  0  0  0  0  0
    7.6538   10.1128    2.0233 H   0  0  0  0  0  0  0  0  0  0  0  0
    8.1298    9.0154    1.0106 H   0  0  0  0  0  0  0  0  0  0  0  0
   -3.0956    2.2518    2.5783 H   0  0  0  0  0  0  0  0  0  0  0  0
   -3.3572    1.5752    3.9679 H   0  0  0  0  0  0  0  0  0  0  0  0
   -2.7408   -0.0044    2.4293 H   0  0  0  0  0  0  0  0  0  0  0  0
   -1.6589    0.0834    3.5619 H   0  0  0  0  0  0  0  0  0  0  0  0
   -1.3963    0.7617    2.1723 H   0  0  0  0  0  0  0  0  0  0  0  0
   -0.4925    2.6570    6.1607 H   0  0  0  0  0  0  0  0  0  0  0  0
   -0.6053    1.2814    5.4200 H   0  0  0  0  0  0  0  0  0  0  0  0
   -1.8895    1.2326    7.3624 H   0  0  0  0  0  0  0  0  0  0  0  0
   -2.8318    1.0866    6.1175 H   0  0  0  0  0  0  0  0  0  0  0  0
   -2.7192    2.4640    6.8571 H   0  0  0  0  0  0  0  0  0  0  0  0
   -3.2937    3.9016    5.2117 H   0  0  0  0  0  0  0  0  0  0  0  0
   -2.9409    4.7541    3.9441 H   0  0  0  0  0  0  0  0  0  0  0  0
   -2.5295    5.9718    5.8465 H   0  0  0  0  0  0  0  0  0  0  0  0
   -1.1846    5.7192    5.0821 H   0  0  0  0  0  0  0  0  0  0  0  0
   -1.5374    4.8668    6.3496 H   0  0  0  0  0  0  0  0  0  0  0  0
    0.7963    4.2948   -0.7320 H   0  0  0  0  0  0  0  0  0  0  0  0
   -0.5356    5.0006   -1.1617 H   0  0  0  0  0  0  0  0  0  0  0  0
   -0.5576    2.7742   -1.8916 H   0  0  0  0  0  0  0  0  0  0  0  0
   -1.7041    2.9887   -0.8443 H   0  0  0  0  0  0  0  0  0  0  0  0
   -0.3723    2.2844   -0.4135 H   0  0  0  0  0  0  0  0  0  0  0  0
   -0.1461    6.9904    0.5053 H   0  0  0  0  0  0  0  0  0  0  0  0
    1.1982    6.3892    1.0441 H   0  0  0  0  0  0  0  0  0  0  0  0
    0.4304    8.0357    2.5114 H   0  0  0  0  0  0  0  0  0  0  0  0
    0.4329    6.6476    3.2412 H   0  0  0  0  0  0  0  0  0  0  0  0
   -0.9125    7.2488    2.7025 H   0  0  0  0  0  0  0  0  0  0  0  0
   -2.4854    5.5469    1.9575 H   0  0  0  0  0  0  0  0  0  0  0  0
   -2.7076    4.2212    1.1488 H   0  0  0  0  0  0  0  0  0  0  0  0
   -3.8157    5.9707    0.1026 H   0  0  0  0  0  0  0  0  0  0  0  0
   -2.6863    5.4355   -0.8443 H   0  0  0  0  0  0  0  0  0  0  0  0
   -2.4673    6.7593   -0.0345 H   0  0  0  0  0  0  0  0  0  0  0  0
    2.3895    2.2693    7.4088 H   0  0  0  0  0  0  0  0  0  0  0  0
    3.6379    1.6152    8.0955 H   0  0  0  0  0  0  0  0  0  0  0  0
    2.6614    0.7346    7.2404 H   0  0  0  0  0  0  0  0  0  0  0  0
    4.5962    4.1419    6.3604 H   0  0  0  0  0  0  0  0  0  0  0  0
    5.8580    3.4247    5.7688 H   0  0  0  0  0  0  0  0  0  0  0  0
    5.4362    3.1684    7.2577 H   0  0  0  0  0  0  0  0  0  0  0  0
    5.8559    0.5837    5.1814 H   0  0  0  0  0  0  0  0  0  0  0  0
    4.7665   -0.2879    5.8951 H   0  0  0  0  0  0  0  0  0  0  0  0
    5.7449    0.5936    6.7448 H   0  0  0  0  0  0  0  0  0  0  0  0
  1  2  1  0  0  0  0
  2  5  1  0  0  0  0
  3  1  1  0  0  0  0
  4  1  1  0  0  0  0
  5 43  1  0  0  0  0
  6  2  1  0  0  0  0
  7  6  3  0  0  0  0
  8  2  1  0  0  0  0
  9  8  3  0  0  0  0
 10  2  1  0  0  0  0
 11 10  1  0  0  0  0
 12  2  1  0  0  0  0
 13 12  1  0  0  0  0
 14  1  1  0  0  0  0
 15  2  1  0  0  0  0
 16  2  1  0  0  0  0
 17 10  1  0  0  0  0
 18 12  1  0  0  0  0
 19 14  1  0  0  0  0
 20 15  1  0  0  0  0
 21 10  1  0  0  0  0
 22 17  1  0  0  0  0
 23 15  1  0  0  0  0
 24 23  1  0  0  0  0
 25 24  4  0  0  0  0
 26 25  4  0  0  0  0
 27 26  4  0  0  0  0
 28 27  4  0  0  0  0
 29 24  4  0  0  0  0
 30 27  1  0  0  0  0
 31  3  1  0  0  0  0
 32 31  1  0  0  0  0
 33  3  1  0  0  0  0
 34 33  1  0  0  0  0
 35  3  1  0  0  0  0
 36 35  1  0  0  0  0
 37  4  1  0  0  0  0
 38 37  1  0  0  0  0
 39  4  1  0  0  0  0
 40 39  1  0  0  0  0
 41  4  1  0  0  0  0
 42 41  1  0  0  0  0
 43 99  1  0  0  0  0
 44  5  1  0  0  0  0
 45  5  1  0  0  0  0
 46  1  1  0  0  0  0
 47 11  1  0  0  0  0
 48 11  1  0  0  0  0
 49 11  1  0  0  0  0
 50 13  1  0  0  0  0
 51 13  1  0  0  0  0
 52 13  1  0  0  0  0
 53 16  1  0  0  0  0
 54 17  1  0  0  0  0
 55 18  1  0  0  0  0
 56 19  1  0  0  0  0
 57 20  1  0  0  0  0
 58 21  1  0  0  0  0
 59 22  1  0  0  0  0
 60 23  1  0  0  0  0
 61 23  1  0  0  0  0
 62 25  1  0  0  0  0
 63 26  1  0  0  0  0
 64 28  1  0  0  0  0
 65 29  1  0  0  0  0
 66 30  1  0  0  0  0
 67 30  1  0  0  0  0
 68 30  1  0  0  0  0
 69 31  1  0  0  0  0
 70 31  1  0  0  0  0
 71 32  1  0  0  0  0
 72 32  1  0  0  0  0
 73 32  1  0  0  0  0
 74 33  1  0  0  0  0
 75 33  1  0  0  0  0
 76 34  1  0  0  0  0
 77 34  1  0  0  0  0
 78 34  1  0  0  0  0
 79 35  1  0  0  0  0
 80 35  1  0  0  0  0
 81 36  1  0  0  0  0
 82 36  1  0  0  0  0
 83 36  1  0  0  0  0
 84 37  1  0  0  0  0
 85 37  1  0  0  0  0
 86 38  1  0  0  0  0
 87 38  1  0  0  0  0
 88 38  1  0  0  0  0
 89 39  1  0  0  0  0
 90 39  1  0  0  0  0
 91 40  1  0  0  0  0
 92 40  1  0  0  0  0
 93 40  1  0  0  0  0
 94 41  1  0  0  0  0
 95 41  1  0  0  0  0
 96 42  1  0  0  0  0
 97 42  1  0  0  0  0
 98 42  1  0  0  0  0
100 43  1  0  0  0  0
101 43  1  0  0  0  0
102 44  1  0  0  0  0
103 44  1  0  0  0  0
104 44  1  0  0  0  0
105 45  1  0  0  0  0
106 45  1  0  0  0  0
107 45  1  0  0  0  0
  2 14  1  0  0  0  0
  2 46  1  0  0  0  0
 10 12  1  0  0  0  0
 10 16  1  0  0  0  0
 12 14  1  0  0  0  0
 12 17  1  0  0  0  0
 14 15  1  0  0  0  0
 14 18  1  0  0  0  0
 15 16  1  0  0  0  0
 15 19  1  0  0  0  0
 16 20  1  0  0  0  0
 16 21  1  0  0  0  0
 17 18  1  0  0  0  0
 17 21  1  0  0  0  0
 18 19  1  0  0  0  0
 18 22  1  0  0  0  0
 19 20  1  0  0  0  0
 19 22  1  0  0  0  0
 20 21  1  0  0  0  0
 20 22  1  0  0  0  0
 21 22  1  0  0  0  0
 28 29  4  0  0  0  0
M  END
$$$$
DONWUY10

From CSD data. Using bond type 'Any'. No disordered atoms. Largest molecule.
107128  0  0  0  0  0  0  0  0999 V2000
    0.3555    3.3891    2.7014 Pt  0  0  0  0  0  0  0  0  0  0  0  0
    2.7256    2.2375    3.7692 W   0  0  0  0  0  0  0  0  0  0  0  0
   -1.5031    2.9539    4.1039 P   0  0  0  0  0  0  0  0  0  0  0  0
   -0.4688    4.7833    1.1337 P   0  0  0  0  0  0  0  0  0  0  0  0
    4.0689    1.9395    5.8325 P   0  0  0  0  0  0  0  0  0  0  0  0
    1.9524    3.4965    5.0821 C   0  0  0  0  0  0  0  0  0  0  0  0
    1.5799    4.3019    5.8195 O   0  0  0  0  0  0  0  0  0  0  0  0
    2.0955    0.4956    4.4569 C   0  0  0  0  0  0  0  0  0  0  0  0
    1.7556   -0.5460    4.7809 O   0  0  0  0  0  0  0  0  0  0  0  0
    4.2500    1.3198    2.1248 C   0  0  0  0  0  0  0  0  0  0  0  0
    4.6845   -0.0981    2.4952 C   0  0  0  0  0  0  0  0  0  0  0  0
    2.7748    1.5937    1.5148 C   0  0  0  0  0  0  0  0  0  0  0  0
    1.8064    0.4481    1.2837 C   0  0  0  0  0  0  0  0  0  0  0  0
    2.2843    3.3040    1.8160 B   0  0  0  0  0  0  0  0  0  0  0  0
    3.7280    4.1247    2.6312 B   0  0  0  0  0  0  0  0  0  0  0  0
    4.8792    2.7762    2.8439 B   0  0  0  0  0  0  0  0  0  0  0  0
    4.0976    1.4965    0.4070 B   0  0  0  0  0  0  0  0  0  0  0  0
    2.8491    2.7040    0.2235 B   0  0  0  0  0  0  0  0  0  0  0  0
    3.4400    4.2330    0.8486 B   0  0  0  0  0  0  0  0  0  0  0  0
    5.0976    3.9156    1.4997 B   0  0  0  0  0  0  0  0  0  0  0  0
    5.4306    2.2081    1.2470 B   0  0  0  0  0  0  0  0  0  0  0  0
    4.5427    3.1088    0.0108 B   0  0  0  0  0  0  0  0  0  0  0  0
    3.6566    5.5141    3.4582 C   0  0  0  0  0  0  0  0  0  0  0  0
    4.7008    6.5328    3.1160 C   0  0  0  0  0  0  0  0  0  0  0  0
    5.9175    6.5662    3.7724 C   0  0  0  0  0  0  0  0  0  0  0  0
    6.9374    7.4038    3.4097 C   0  0  0  0  0  0  0  0  0  0  0  0
    6.7897    8.3023    2.3667 C   0  0  0  0  0  0  0  0  0  0  0  0
    5.5584    8.3392    1.7556 C   0  0  0  0  0  0  0  0  0  0  0  0
    4.5409    7.4744    2.1151 C   0  0  0  0  0  0  0  0  0  0  0  0
    7.9169    9.1943    1.9294 C   0  0  0  0  0  0  0  0  0  0  0  0
   -2.6844    1.8049    3.3222 C   0  0  0  0  0  0  0  0  0  0  0  0
   -2.0662    0.5515    2.8277 C   0  0  0  0  0  0  0  0  0  0  0  0
   -1.0758    2.0822    5.6586 C   0  0  0  0  0  0  0  0  0  0  0  0
   -2.2390    1.6789    6.5861 C   0  0  0  0  0  0  0  0  0  0  0  0
   -2.5791    4.2956    4.7064 C   0  0  0  0  0  0  0  0  0  0  0  0
   -1.8966    5.3032    5.5733 C   0  0  0  0  0  0  0  0  0  0  0  0
   -0.1536    4.3302   -0.5927 C   0  0  0  0  0  0  0  0  0  0  0  0
   -0.7529    2.9658   -0.9706 C   0  0  0  0  0  0  0  0  0  0  0  0
    0.2530    6.4594    1.1985 C   0  0  0  0  0  0  0  0  0  0  0  0
    0.0295    7.1640    2.5383 C   0  0  0  0  0  0  0  0  0  0  0  0
   -2.2749    5.0788    1.1455 C   0  0  0  0  0  0  0  0  0  0  0  0
   -2.8664    5.8875   -0.0162 C   0  0  0  0  0  0  0  0  0  0  0  0
    3.0715    1.6000    7.3203 C   0  0  0  0  0  0  0  0  0  0  0  0
    5.1132    3.3342    6.3680 C   0  0  0  0  0  0  0  0  0  0  0  0
    5.2494    0.5409    5.9242 C   0  0  0  0  0  0  0  0  0  0  0  0
    1.2459    1.9476    3.5003 H   0  0  0  0  0  0  0  0  0  0  0  0
    4.7585   -0.1710    3.4496 H   0  0  0  0  0  0  0  0  0  0  0  0
    5.5354   -0.2869    2.0924 H   0  0  0  0  0  0  0  0  0  0  0  0
    4.0336   -0.7256    2.1756 H   0  0  0  0  0  0  0  0  0  0  0  0
    1.0783    0.5139    1.9056 H   0  0  0  0  0  0  0  0  0  0  0  0
    2.2620   -0.3865    1.4133 H   0  0  0  0  0  0  0  0  0  0  0  0
    1.4670    0.4909    0.3876 H   0  0  0  0  0  0  0  0  0  0  0  0
    5.6443    2.5903    3.6364 H   0  0  0  0  0  0  0  0  0  0  0  0
    4.1013    0.5672   -0.1155 H   0  0  0  0  0  0  0  0  0  0  0  0
    2.1137    2.4193   -0.6165 H   0  0  0  0  0  0  0  0  0  0  0  0
    3.1982    5.0693    0.3390 H   0  0  0  0  0  0  0  0  0  0  0  0
    5.8067    4.6221    1.4187 H   0  0  0  0  0  0  0  0  0  0  0  0
    6.4520    1.8725    1.1132 H   0  0  0  0  0  0  0  0  0  0  0  0
    4.9017    3.3100   -0.9296 H   0  0  0  0  0  0  0  0  0  0  0  0
    2.7746    5.8850    3.4151 H   0  0  0  0  0  0  0  0  0  0  0  0
    3.8146    5.3485    4.4008 H   0  0  0  0  0  0  0  0  0  0  0  0
    6.1413    6.1738    4.2961 H   0  0  0  0  0  0  0  0  0  0  0  0
    7.7331    7.4499    4.0046 H   0  0  0  0  0  0  0  0  0  0  0  0
    5.4953    8.8623    1.1337 H   0  0  0  0  0  0  0  0  0  0  0  0
    3.6974    7.5667    1.6595 H   0  0  0  0  0  0  0  0  0  0  0  0
    8.6883    9.0267    2.4757 H   0  0  0  0  0  0  0  0  0  0  0  0
    7.6538   10.1128    2.0233 H   0  0  0  0  0  0  0  0  0  0  0  0
    8.1298    9.0154    1.0106 H   0  0  0  0  0  0  0  0  0  0  0  0
   -3.0956    2.2518    2.5783 H   0  0  0  0  0  0  0  0  0  0  0  0
   -3.3572    1.5752    3.9679 H   0  0  0  0  0  0  0  0  0  0  0  0
   -2.7408   -0.0044    2.4293 H   0  0  0  0  0  0  0  0  0  0  0  0
   -1.6589    0.0834    3.5619 H   0  0  0  0  0  0  0  0  0  0  0  0
   -1.3963    0.7617    2.1723 H   0  0  0  0  0  0  0  0  0  0  0  0
   -0.4925    2.6570    6.1607 H   0  0  0  0  0  0  0  0  0  0  0  0
   -0.6053    1.2814    5.4200 H   0  0  0  0  0  0  0  0  0  0  0  0
   -1.8895    1.2326    7.3624 H   0  0  0  0  0  0  0  0  0  0  0  0
   -2.8318    1.0866    6.1175 H   0  0  0  0  0  0  0  0  0  0  0  0
   -2.7192    2.4640    6.8571 H   0  0  0  0  0  0  0  0  0  0  0  0
   -3.2937    3.9016    5.2117 H   0  0  0  0  0  0  0  0  0  0  0  0
   -2.9409    4.7541    3.9441 H   0  0  0  0  0  0  0  0  0  0  0  0
   -2.5295    5.9718    5.8465 H   0  0  0  0  0  0  0  0  0  0  0  0
   -1.1846    5.7192    5.0821 H   0  0  0  0  0  0  0  0  0  0  0  0
   -1.5374    4.8668    6.3496 H   0  0  0  0  0  0  0  0  0  0  0  0
    0.7963    4.2948   -0.7320 H   0  0  0  0  0  0  0  0  0  0  0  0
   -0.5356    5.0006   -1.1617 H   0  0  0  0  0  0  0  0  0  0  0  0
   -0.5576    2.7742   -1.8916 H   0  0  0  0  0  0  0  0  0  0  0  0
   -1.7041    2.9887   -0.8443 H   0  0  0  0  0  0  0  0  0  0  0  0
   -0.3723    2.2844   -0.4135 H   0  0  0  0  0  0  0  0  0  0  0  0
   -0.1461    6.9904    0.5053 H   0  0  0  0  0  0  0  0  0  0  0  0
    1.1982    6.3892    1.0441 H   0  0  0  0  0  0  0  0  0  0  0  0
    0.4304    8.0357    2.5114 H   0  0  0  0  0  0  0  0  0  0  0  0
    0.4329    6.6476    3.2412 H   0  0  0  0  0  0  0  0  0  0  0  0
   -0.9125    7.2488    2.7025 H   0  0  0  0  0  0  0  0  0  0  0  0
   -2.4854    5.5469    1.9575 H   0  0  0  0  0  0  0  0  0  0  0  0
   -2.7076    4.2212    1.1488 H   0  0  0  0  0  0  0  0  0  0  0  0
   -3.8157    5.9707    0.1026 H   0  0  0  0  0  0  0  0  0  0  0  0
   -2.6863    5.4355   -0.8443 H   0  0  0  0  0  0  0  0  0  0  0  0
   -2.4673    6.7593   -0.0345 H   0  0  0  0  0  0  0  0  0  0  0  0
    2.3895    2.2693    7.4088 H   0  0  0  0  0  0  0  0  0  0  0  0
    3.6379    1.6152    8.0955 H   0  0  0  0  0  0  0  0  0  0  0  0
    2.6614    0.7346    7.2404 H   0  0  0  0  0  0  0  0  0  0  0  0
    4.5962    4.1419    6.3604 H   0  0  0  0  0  0  0  0  0  0  0  0
    5.8580    3.4247    5.7688 H   0  0  0  0  0  0  0  0  0  0  0  0
    5.4362    3.1684    7.2577 H   0  0  0  0  0  0  0  0  0  0  0  0
    5.8559    0.5837    5.1814 H   0  0  0  0  0  0  0  0  0  0  0  0
    4.7665   -0.2879    5.8951 H   0  0  0  0  0  0  0  0  0  0  0  0
    5.7449    0.5936    6.7448 H   0  0  0  0  0  0  0  0  0  0  0  0
  1  2  1  0  0  0  0
  2  5  1  0  0  0  0
  3  1  1  0  0  0  0
  4  1  1  0  0  0  0
  5 43  1  0  0  0  0
  6  2  1  0  0  0  0
  7  6  3  0  0  0  0
  8  2  1  0  0  0  0
  9  8  3  0  0  0  0
 10  2  1  0  0  0  0
 11 10  1  0  0  0  0
 12  2  1  0  0  0  0
 13 12  1  0  0  0  0
 14  1  1  0  0  0  0
 15  2  1  0  0  0  0
 16  2  1  0  0  0  0
 17 10  1  0  0  0  0
 18 12  1  0  0  0  0
 19 14  1  0  0  0  0
 20 15  1  0  0  0  0
 21 10  1  0  0  0  0
 22 17  1  0  0  0  0
 23 15  1  0  0  0  0
 24 23  1  0  0  0  0
 25 24  4  0  0  0  0
 26 25  4  0  0  0  0
 27 26  4  0  0  0  0
 28 27  4  0  0  0  0
 29 24  4  0  0  0  0
 30 27  1  0  0  0  0
 31  3  1  0  0  0  0
 32 31  1  0  0  0  0
 33  3  1  0  0  0  0
 34 33  1  0  0  0  0
 35  3  1  0  0  0  0
 36 35  1  0  0  0  0
 37  4  1  0  0  0  0
 38 37  1  0  0  0  0
 39  4  1  0  0  0  0
 40 39  1  0  0  0  0
 41  4  1  0  0  0  0
 42 41  1  0  0  0  0
 43 99  1  0  0  0  0
 44  5  1  0  0  0  0
 45  5  1  0  0  0  0
 46  1  1  0  0  0  0
 47 11  1  0  0  0  0
 48 11  1  0  0  0  0
 49 11  1  0  0  0  0
 50 13  1  0  0  0  0
 51 13  1  0  0  0  0
 52 13  1  0  0  0  0
 53 16  1  0  0  0  0
 54 17  1  0  0  0  0
 55 18  1  0  0  0  0
 56 19  1  0  0  0  0
 57 20  1  0  0  0  0
 58 21  1  0  0  0  0
 59 22  1  0  0  0  0
 60 23  1  0  0  0  0
 61 23  1  0  0  0  0
 62 25  1  0  0  0  0
 63 26  1  0  0  0  0
 64 28  1  0  0  0  0
 65 29  1  0  0  0  0
 66 30  1  0  0  0  0
 67 30  1  0  0  0  0
 68 30  1  0  0  0  0
 69 31  1  0  0  0  0
 70 31  1  0  0  0  0
 71 32  1  0  0  0  0
 72 32  1  0  0  0  0
 73 32  1  0  0  0  0
 74 33  1  0  0  0  0
 75 33  1  0  0  0  0
 76 34  1  0  0  0  0
 77 34  1  0  0  0  0
 78 34  1  0  0  0  0
 79 35  1  0  0  0  0
 80 35  1  0  0  0  0
 81 36  1  0  0  0  0
 82 36  1  0  0  0  0
 83 36  1  0  0  0  0
 84 37  1  0  0  0  0
 85 37  1  0  0  0  0
 86 38  1  0  0  0  0
 87 38  1  0  0  0  0
 88 38  1  0  0  0  0
 89 39  1  0  0  0  0
 90 39  1  0  0  0  0
 91 40  1  0  0  0  0
 92 40  1  0  0  0  0
 93 40  1  0  0  0  0
 94 41  1  0  0  0  0
 95 41  1  0  0  0  0
 96 42  1  0  0  0  0
 97 42  1  0  0  0  0
 98 42  1  0  0  0  0
100 43  1  0  0  0  0
101 43  1  0  0  0  0
102 44  1  0  0  0  0
103 44  1  0  0  0  0
104 44  1  0  0  0  0
105 45  1  0  0  0  0
106 45  1  0  0  0  0
107 45  1  0  0  0  0
  2 14  1  0  0  0  0
  2 46  1  0  0  0  0
 10 12  1  0  0  0  0
 10 16  1  0  0  0  0
 12 14  1  0  0  0  0
 12 17  1  0  0  0  0
 14 15  1  0  0  0  0
 14 18  1  0  0  0  0
 15 16  1  0  0  0  0
 15 19  1  0  0  0  0
 16 20  1  0  0  0  0
 16 21  1  0  0  0  0
 17 18  1  0  0  0  0
 17 21  1  0  0  0  0
 18 19  1  0  0  0  0
 18 22  1  0  0  0  0
 19 20  1  0  0  0  0
 19 22  1  0  0  0  0
 20 21  1  0  0  0  0
 20 22  1  0  0  0  0
 21 22  1  0  0  0  0
 28 29  4  0  0  0  0
M  END
$$$$
DOXMAF

From CSD data. Using bond type 'Any'. No disordered atoms. Largest molecule.
 86 97  0  0  0  0  0  0  0  0999 V2000
    7.7213    4.8863    4.4169 U   0  0  0  0  0  0  0  0  0  0  0  0
    6.9347    4.1049    7.0975 S   0  0  0  0  0  0  0  0  0  0  0  0
    7.4905    3.7426    1.7964 S   0  0  0  0  0  0  0  0  0  0  0  0
    5.8777    2.7618    6.0056 P   0  0  0  0  0  0  0  0  0  0  0  0
    6.5075    2.3279    2.8664 P   0  0  0  0  0  0  0  0  0  0  0  0
    8.6053    6.7567    5.8280 O   0  0  0  0  0  0  0  0  0  0  0  0
    8.9287    6.4392    2.7426 O   0  0  0  0  0  0  0  0  0  0  0  0
    5.6765    6.4501    4.0516 B   0  0  0  0  0  0  0  0  0  0  0  0
    5.7929    5.7964    3.2774 H   0  0  0  0  0  0  0  0  0  0  0  0
    6.4708    6.8404    4.1084 H   0  0  0  0  0  0  0  0  0  0  0  0
    5.6725    5.7496    4.9375 H   0  0  0  0  0  0  0  0  0  0  0  0
    4.8552    7.1973    3.9429 H   0  0  0  0  0  0  0  0  0  0  0  0
   10.0017    3.6749    4.7921 B   0  0  0  0  0  0  0  0  0  0  0  0
    9.2068    3.0131    4.3717 H   0  0  0  0  0  0  0  0  0  0  0  0
   10.0700    4.3446    4.1172 H   0  0  0  0  0  0  0  0  0  0  0  0
    9.6083    4.0024    5.6741 H   0  0  0  0  0  0  0  0  0  0  0  0
   10.8514    3.1508    5.0247 H   0  0  0  0  0  0  0  0  0  0  0  0
    6.3979    2.9730    4.4187 C   0  0  0  0  0  0  0  0  0  0  0  0
    6.1062    1.0788    6.6522 C   0  0  0  0  0  0  0  0  0  0  0  0
    7.3494    0.6711    7.1354 C   0  0  0  0  0  0  0  0  0  0  0  0
    8.0361    1.2900    7.2417 H   0  0  0  0  0  0  0  0  0  0  0  0
    7.5525   -0.6604    7.4554 C   0  0  0  0  0  0  0  0  0  0  0  0
    8.3827   -0.9371    7.7683 H   0  0  0  0  0  0  0  0  0  0  0  0
    6.5290   -1.5841    7.3143 C   0  0  0  0  0  0  0  0  0  0  0  0
    6.6656   -2.4744    7.5459 H   0  0  0  0  0  0  0  0  0  0  0  0
    5.3049   -1.1724    6.8282 C   0  0  0  0  0  0  0  0  0  0  0  0
    4.6197   -1.7913    6.7221 H   0  0  0  0  0  0  0  0  0  0  0  0
    5.0891    0.1457    6.4986 C   0  0  0  0  0  0  0  0  0  0  0  0
    4.2609    0.4117    6.1723 H   0  0  0  0  0  0  0  0  0  0  0  0
    4.1115    3.0947    6.2725 C   0  0  0  0  0  0  0  0  0  0  0  0
    3.5952    2.9904    7.5666 C   0  0  0  0  0  0  0  0  0  0  0  0
    4.1424    2.7191    8.2665 H   0  0  0  0  0  0  0  0  0  0  0  0
    2.2686    3.2912    7.8034 C   0  0  0  0  0  0  0  0  0  0  0  0
    1.9244    3.2270    8.6651 H   0  0  0  0  0  0  0  0  0  0  0  0
    1.4533    3.6856    6.7632 C   0  0  0  0  0  0  0  0  0  0  0  0
    0.5588    3.8807    6.9285 H   0  0  0  0  0  0  0  0  0  0  0  0
    1.9439    3.7925    5.4893 C   0  0  0  0  0  0  0  0  0  0  0  0
    1.3862    4.0639    4.7952 H   0  0  0  0  0  0  0  0  0  0  0  0
    3.2888    3.4944    5.2323 C   0  0  0  0  0  0  0  0  0  0  0  0
    3.6274    3.5652    4.3681 H   0  0  0  0  0  0  0  0  0  0  0  0
    4.9161    1.9397    2.0606 C   0  0  0  0  0  0  0  0  0  0  0  0
    4.3156    0.6991    2.2728 C   0  0  0  0  0  0  0  0  0  0  0  0
    4.7194    0.0762    2.8326 H   0  0  0  0  0  0  0  0  0  0  0  0
    3.1136    0.3944    1.6457 C   0  0  0  0  0  0  0  0  0  0  0  0
    2.7090   -0.4304    1.7935 H   0  0  0  0  0  0  0  0  0  0  0  0
    2.5183    1.3101    0.8037 C   0  0  0  0  0  0  0  0  0  0  0  0
    1.7193    1.0962    0.3772 H   0  0  0  0  0  0  0  0  0  0  0  0
    3.0984    2.5399    0.5925 C   0  0  0  0  0  0  0  0  0  0  0  0
    2.6921    3.1548    0.0249 H   0  0  0  0  0  0  0  0  0  0  0  0
    4.2984    2.8634    1.2325 C   0  0  0  0  0  0  0  0  0  0  0  0
    4.6833    3.6989    1.1014 H   0  0  0  0  0  0  0  0  0  0  0  0
    7.4542    0.7834    2.6926 C   0  0  0  0  0  0  0  0  0  0  0  0
    7.6119   -0.1257    3.7292 C   0  0  0  0  0  0  0  0  0  0  0  0
    7.2249    0.0521    4.5567 H   0  0  0  0  0  0  0  0  0  0  0  0
    8.3281   -1.2847    3.5573 C   0  0  0  0  0  0  0  0  0  0  0  0
    8.4336   -1.8755    4.2685 H   0  0  0  0  0  0  0  0  0  0  0  0
    8.8974   -1.5774    2.3191 C   0  0  0  0  0  0  0  0  0  0  0  0
    9.3727   -2.3675    2.1956 H   0  0  0  0  0  0  0  0  0  0  0  0
    8.7497   -0.6871    1.2823 C   0  0  0  0  0  0  0  0  0  0  0  0
    9.1290   -0.8796    0.4555 H   0  0  0  0  0  0  0  0  0  0  0  0
    8.0453    0.4919    1.4533 C   0  0  0  0  0  0  0  0  0  0  0  0
    7.9612    1.0895    0.7455 H   0  0  0  0  0  0  0  0  0  0  0  0
    7.8420    7.6064    6.7444 C   0  0  0  0  0  0  0  0  0  0  0  0
    7.6459    7.1318    7.5673 H   0  0  0  0  0  0  0  0  0  0  0  0
    7.0041    7.8804    6.3378 H   0  0  0  0  0  0  0  0  0  0  0  0
    8.7105    8.7988    7.0175 C   0  0  0  0  0  0  0  0  0  0  0  0
    8.5382    9.1651    7.9000 H   0  0  0  0  0  0  0  0  0  0  0  0
    8.5733    9.4926    6.3538 H   0  0  0  0  0  0  0  0  0  0  0  0
   10.1056    8.2227    6.9267 C   0  0  0  0  0  0  0  0  0  0  0  0
   10.3505    7.7641    7.7452 H   0  0  0  0  0  0  0  0  0  0  0  0
   10.7608    8.9138    6.7399 H   0  0  0  0  0  0  0  0  0  0  0  0
    9.9852    7.2508    5.7649 C   0  0  0  0  0  0  0  0  0  0  0  0
   10.1514    7.7000    4.9215 H   0  0  0  0  0  0  0  0  0  0  0  0
   10.6167    6.5209    5.8609 H   0  0  0  0  0  0  0  0  0  0  0  0
    8.4264    7.7722    2.3753 C   0  0  0  0  0  0  0  0  0  0  0  0
    8.4453    8.3751    3.1351 H   0  0  0  0  0  0  0  0  0  0  0  0
    7.5198    7.7227    2.0319 H   0  0  0  0  0  0  0  0  0  0  0  0
    9.4026    8.2267    1.2864 C   0  0  0  0  0  0  0  0  0  0  0  0
    8.9160    8.6090    0.5391 H   0  0  0  0  0  0  0  0  0  0  0  0
   10.0027    8.9031    1.6387 H   0  0  0  0  0  0  0  0  0  0  0  0
   10.1639    7.0570    0.8452 C   0  0  0  0  0  0  0  0  0  0  0  0
   11.0228    7.2735    0.4502 H   0  0  0  0  0  0  0  0  0  0  0  0
    9.6277    6.5757    0.1975 H   0  0  0  0  0  0  0  0  0  0  0  0
   10.1864    6.1814    2.0707 C   0  0  0  0  0  0  0  0  0  0  0  0
   10.2584    5.2469    1.8238 H   0  0  0  0  0  0  0  0  0  0  0  0
   10.9352    6.4113    2.6440 H   0  0  0  0  0  0  0  0  0  0  0  0
  1  2  1  0  0  0  0
  2  4  2  0  0  0  0
  3  1  1  0  0  0  0
  4 18  1  0  0  0  0
  5  3  2  0  0  0  0
  6  1  1  0  0  0  0
  7  1  1  0  0  0  0
  8  9  1  0  0  0  0
  9  1  1  0  0  0  0
 10  1  1  0  0  0  0
 11  1  1  0  0  0  0
 12  8  1  0  0  0  0
 13 14  1  0  0  0  0
 14  1  1  0  0  0  0
 15  1  1  0  0  0  0
 16  1  1  0  0  0  0
 17 13  1  0  0  0  0
 18  1  2  0  0  0  0
 19  4  1  0  0  0  0
 20 19  4  0  0  0  0
 21 20  1  0  0  0  0
 22 20  4  0  0  0  0
 23 22  1  0  0  0  0
 24 22  4  0  0  0  0
 25 24  1  0  0  0  0
 26 24  4  0  0  0  0
 27 26  1  0  0  0  0
 28 19  4  0  0  0  0
 29 28  1  0  0  0  0
 30  4  1  0  0  0  0
 31 30  4  0  0  0  0
 32 31  1  0  0  0  0
 33 31  4  0  0  0  0
 34 33  1  0  0  0  0
 35 33  4  0  0  0  0
 36 35  1  0  0  0  0
 37 35  4  0  0  0  0
 38 37  1  0  0  0  0
 39 30  4  0  0  0  0
 40 39  1  0  0  0  0
 41  5  1  0  0  0  0
 42 41  4  0  0  0  0
 43 42  1  0  0  0  0
 44 42  4  0  0  0  0
 45 44  1  0  0  0  0
 46 44  4  0  0  0  0
 47 46  1  0  0  0  0
 48 46  4  0  0  0  0
 49 48  1  0  0  0  0
 50 41  4  0  0  0  0
 51 50  1  0  0  0  0
 52  5  1  0  0  0  0
 53 52  4  0  0  0  0
 54 53  1  0  0  0  0
 55 53  4  0  0  0  0
 56 55  1  0  0  0  0
 57 55  4  0  0  0  0
 58 57  1  0  0  0  0
 59 57  4  0  0  0  0
 60 59  1  0  0  0  0
 61 52  4  0  0  0  0
 62 61  1  0  0  0  0
 63  6  1  0  0  0  0
 64 63  1  0  0  0  0
 65 63  1  0  0  0  0
 66 63  1  0  0  0  0
 67 66  1  0  0  0  0
 68 66  1  0  0  0  0
 69 66  1  0  0  0  0
 70 69  1  0  0  0  0
 71 69  1  0  0  0  0
 72  6  1  0  0  0  0
 73 72  1  0  0  0  0
 74 72  1  0  0  0  0
 75  7  1  0  0  0  0
 76 75  1  0  0  0  0
 77 75  1  0  0  0  0
 78 75  1  0  0  0  0
 79 78  1  0  0  0  0
 80 78  1  0  0  0  0
 81 78  1  0  0  0  0
 82 81  1  0  0  0  0
 83 81  1  0  0  0  0
 84  7  1  0  0  0  0
 85 84  1  0  0  0  0
 86 84  1  0  0  0  0
  5 18  1  0  0  0  0
  8 10  1  0  0  0  0
  8 11  1  0  0  0  0
 13 15  1  0  0  0  0
 13 16  1  0  0  0  0
 26 28  4  0  0  0  0
 37 39  4  0  0  0  0
 48 50  4  0  0  0  0
 59 61  4  0  0  0  0
 69 72  1  0  0  0  0
 81 84  1  0  0  0  0
M  END
$$$$
DOYPUC

From CSD data. Using bond type 'Any'. No disordered atoms. Largest molecule.
 98127  0  0  0  0  0  0  0  0999 V2000
    3.9113    8.8527    3.9750 Mo  0  0  0  0  0  0  0  0  0  0  0  0
    4.6789    8.5000    2.1956 C   0  0  0  0  0  0  0  0  0  0  0  0
    5.1058    8.4248    1.1399 O   0  0  0  0  0  0  0  0  0  0  0  0
    2.3286    8.7361    2.7733 C   0  0  0  0  0  0  0  0  0  0  0  0
    1.4226    8.6707    2.0773 O   0  0  0  0  0  0  0  0  0  0  0  0
    2.8174    7.3420    4.7089 C   0  0  0  0  0  0  0  0  0  0  0  0
    2.1209    6.5409    5.1309 O   0  0  0  0  0  0  0  0  0  0  0  0
    5.7196    7.1063    4.4764 P   0  0  0  0  0  0  0  0  0  0  0  0
    5.6036    6.2351    6.0792 C   0  0  0  0  0  0  0  0  0  0  0  0
    6.2402    5.0337    6.3019 C   0  0  0  0  0  0  0  0  0  0  0  0
    6.7290    4.6433    5.6152 H   0  0  0  0  0  0  0  0  0  0  0  0
    6.1675    4.3997    7.5227 C   0  0  0  0  0  0  0  0  0  0  0  0
    6.5973    3.5838    7.6473 H   0  0  0  0  0  0  0  0  0  0  0  0
    5.4667    4.9628    8.5473 C   0  0  0  0  0  0  0  0  0  0  0  0
    5.4253    4.5421    9.3773 H   0  0  0  0  0  0  0  0  0  0  0  0
    4.8264    6.1531    8.3402 C   0  0  0  0  0  0  0  0  0  0  0  0
    4.3410    6.5417    9.0332 H   0  0  0  0  0  0  0  0  0  0  0  0
    4.8902    6.7794    7.1256 C   0  0  0  0  0  0  0  0  0  0  0  0
    4.4433    7.5868    7.0042 H   0  0  0  0  0  0  0  0  0  0  0  0
    5.8054    5.7365    3.2576 C   0  0  0  0  0  0  0  0  0  0  0  0
    7.0088    5.0774    2.9882 C   0  0  0  0  0  0  0  0  0  0  0  0
    7.7806    5.3303    3.4429 H   0  0  0  0  0  0  0  0  0  0  0  0
    7.0697    4.0560    2.0586 C   0  0  0  0  0  0  0  0  0  0  0  0
    7.8771    3.6289    1.8795 H   0  0  0  0  0  0  0  0  0  0  0  0
    5.9201    3.6795    1.4015 C   0  0  0  0  0  0  0  0  0  0  0  0
    5.9531    2.9940    0.7739 H   0  0  0  0  0  0  0  0  0  0  0  0
    4.7310    4.2989    1.6631 C   0  0  0  0  0  0  0  0  0  0  0  0
    3.9603    4.0259    1.2208 H   0  0  0  0  0  0  0  0  0  0  0  0
    4.6705    5.3310    2.5802 C   0  0  0  0  0  0  0  0  0  0  0  0
    3.8592    5.7553    2.7437 H   0  0  0  0  0  0  0  0  0  0  0  0
    7.4335    7.7469    4.4753 C   0  0  0  0  0  0  0  0  0  0  0  0
    8.1535    7.9140    5.6385 C   0  0  0  0  0  0  0  0  0  0  0  0
    7.7687    7.6888    6.4545 H   0  0  0  0  0  0  0  0  0  0  0  0
    9.4499    8.4173    5.6043 C   0  0  0  0  0  0  0  0  0  0  0  0
    9.9233    8.5354    6.3953 H   0  0  0  0  0  0  0  0  0  0  0  0
   10.0276    8.7387    4.4052 C   0  0  0  0  0  0  0  0  0  0  0  0
   10.8967    9.0707    4.3866 H   0  0  0  0  0  0  0  0  0  0  0  0
    9.3354    8.5739    3.2327 C   0  0  0  0  0  0  0  0  0  0  0  0
    9.7341    8.7826    2.4183 H   0  0  0  0  0  0  0  0  0  0  0  0
    8.0422    8.0952    3.2747 C   0  0  0  0  0  0  0  0  0  0  0  0
    7.5656    8.0052    2.4821 H   0  0  0  0  0  0  0  0  0  0  0  0
    3.4952   10.0952    5.9889 C   0  0  0  0  0  0  0  0  0  0  0  0
    3.0506    9.3573    6.6725 H   0  0  0  0  0  0  0  0  0  0  0  0
    5.1435   10.0118    5.6619 B   0  0  0  0  0  0  0  0  0  0  0  0
    5.8238    9.2611    6.0901 H   0  0  0  0  0  0  0  0  0  0  0  0
    5.3509   10.7222    4.0097 B   0  0  0  0  0  0  0  0  0  0  0  0
    6.2703   10.5571    3.3323 H   0  0  0  0  0  0  0  0  0  0  0  0
    3.7302   11.1425    3.3900 B   0  0  0  0  0  0  0  0  0  0  0  0
    3.4852   11.1772    2.3186 H   0  0  0  0  0  0  0  0  0  0  0  0
    2.5650   10.6609    4.7073 B   0  0  0  0  0  0  0  0  0  0  0  0
    1.5313   10.3393    4.5096 H   0  0  0  0  0  0  0  0  0  0  0  0
    4.4978   11.2572    6.7301 B   0  0  0  0  0  0  0  0  0  0  0  0
    4.7490   11.2855    7.7999 H   0  0  0  0  0  0  0  0  0  0  0  0
    5.6479   11.6910    5.4844 B   0  0  0  0  0  0  0  0  0  0  0  0
    6.6158   11.9892    5.7615 H   0  0  0  0  0  0  0  0  0  0  0  0
    4.7585   12.4102    4.1312 B   0  0  0  0  0  0  0  0  0  0  0  0
    5.2591   13.1515    3.4881 H   0  0  0  0  0  0  0  0  0  0  0  0
    3.0499   12.3684    4.5158 B   0  0  0  0  0  0  0  0  0  0  0  0
    2.3481   13.1289    4.1421 H   0  0  0  0  0  0  0  0  0  0  0  0
    2.8959   11.6712    6.1244 B   0  0  0  0  0  0  0  0  0  0  0  0
    2.0912   11.9771    6.8095 H   0  0  0  0  0  0  0  0  0  0  0  0
    4.2468   12.7358    5.7818 B   0  0  0  0  0  0  0  0  0  0  0  0
    4.3378   13.7361    6.2302 H   0  0  0  0  0  0  0  0  0  0  0  0
    7.0594   12.0711    3.7797 Cu  0  0  0  0  0  0  0  0  0  0  0  0
    8.8899   13.0956    3.2313 P   0  0  0  0  0  0  0  0  0  0  0  0
   10.0001   12.2340    2.0710 C   0  0  0  0  0  0  0  0  0  0  0  0
    9.4435   11.3649    1.1601 C   0  0  0  0  0  0  0  0  0  0  0  0
    8.5289   11.2001    1.1788 H   0  0  0  0  0  0  0  0  0  0  0  0
   10.2313   10.7356    0.2242 C   0  0  0  0  0  0  0  0  0  0  0  0
    9.8497   10.1507   -0.3893 H   0  0  0  0  0  0  0  0  0  0  0  0
   11.5768   10.9719    0.1993 C   0  0  0  0  0  0  0  0  0  0  0  0
   12.1052   10.5730   -0.4547 H   0  0  0  0  0  0  0  0  0  0  0  0
   12.1516   11.7986    1.1352 C   0  0  0  0  0  0  0  0  0  0  0  0
   13.0721   11.9281    1.1399 H   0  0  0  0  0  0  0  0  0  0  0  0
   11.3566   12.4361    2.0710 C   0  0  0  0  0  0  0  0  0  0  0  0
   11.7426   13.0029    2.7001 H   0  0  0  0  0  0  0  0  0  0  0  0
    8.5645   14.7187    2.4775 C   0  0  0  0  0  0  0  0  0  0  0  0
    7.6825   15.5717    3.1112 C   0  0  0  0  0  0  0  0  0  0  0  0
    7.2517   15.2988    3.8898 H   0  0  0  0  0  0  0  0  0  0  0  0
    7.4368   16.8324    2.5927 C   0  0  0  0  0  0  0  0  0  0  0  0
    6.8658   17.4135    3.0412 H   0  0  0  0  0  0  0  0  0  0  0  0
    8.0274   17.2274    1.4295 C   0  0  0  0  0  0  0  0  0  0  0  0
    7.8530   18.0711    1.0791 H   0  0  0  0  0  0  0  0  0  0  0  0
    8.8768   16.3781    0.7833 C   0  0  0  0  0  0  0  0  0  0  0  0
    9.2676   16.6378   -0.0202 H   0  0  0  0  0  0  0  0  0  0  0  0
    9.1585   15.1320    1.3158 C   0  0  0  0  0  0  0  0  0  0  0  0
    9.7578   14.5705    0.8782 H   0  0  0  0  0  0  0  0  0  0  0  0
    9.9121   13.4440    4.6902 C   0  0  0  0  0  0  0  0  0  0  0  0
   10.4982   14.6636    4.9331 C   0  0  0  0  0  0  0  0  0  0  0  0
   10.4026   15.3551    4.3180 H   0  0  0  0  0  0  0  0  0  0  0  0
   11.2321   14.8672    6.0917 C   0  0  0  0  0  0  0  0  0  0  0  0
   11.6100   15.6997    6.2598 H   0  0  0  0  0  0  0  0  0  0  0  0
   11.4043   13.8516    6.9839 C   0  0  0  0  0  0  0  0  0  0  0  0
   11.8977   13.9924    7.7594 H   0  0  0  0  0  0  0  0  0  0  0  0
   10.8530   12.6323    6.7379 C   0  0  0  0  0  0  0  0  0  0  0  0
   10.9894   11.9348    7.3358 H   0  0  0  0  0  0  0  0  0  0  0  0
   10.0922   12.4264    5.6089 C   0  0  0  0  0  0  0  0  0  0  0  0
    9.6986   11.5971    5.4626 H   0  0  0  0  0  0  0  0  0  0  0  0
  1  2  1  0  0  0  0
  2  3  3  0  0  0  0
  4  1  1  0  0  0  0
  5  4  3  0  0  0  0
  6  1  1  0  0  0  0
  7  6  3  0  0  0  0
  8  1  1  0  0  0  0
  9  8  1  0  0  0  0
 10  9  4  0  0  0  0
 11 10  1  0  0  0  0
 12 10  4  0  0  0  0
 13 12  1  0  0  0  0
 14 12  4  0  0  0  0
 15 14  1  0  0  0  0
 16 14  4  0  0  0  0
 17 16  1  0  0  0  0
 18  9  4  0  0  0  0
 19 18  1  0  0  0  0
 20  8  1  0  0  0  0
 21 20  4  0  0  0  0
 22 21  1  0  0  0  0
 23 21  4  0  0  0  0
 24 23  1  0  0  0  0
 25 23  4  0  0  0  0
 26 25  1  0  0  0  0
 27 25  4  0  0  0  0
 28 27  1  0  0  0  0
 29 20  4  0  0  0  0
 30 29  1  0  0  0  0
 31  8  1  0  0  0  0
 32 31  4  0  0  0  0
 33 32  1  0  0  0  0
 34 32  4  0  0  0  0
 35 34  1  0  0  0  0
 36 34  4  0  0  0  0
 37 36  1  0  0  0  0
 38 36  4  0  0  0  0
 39 38  1  0  0  0  0
 40 31  4  0  0  0  0
 41 40  1  0  0  0  0
 42  1  1  0  0  0  0
 43 42  1  0  0  0  0
 44  1  1  0  0  0  0
 45 44  1  0  0  0  0
 46  1  1  0  0  0  0
 47 46  1  0  0  0  0
 48  1  1  0  0  0  0
 49 48  1  0  0  0  0
 50  1  1  0  0  0  0
 51 50  1  0  0  0  0
 52 42  1  0  0  0  0
 53 52  1  0  0  0  0
 54 44  1  0  0  0  0
 55 54  1  0  0  0  0
 56 46  1  0  0  0  0
 57 56  1  0  0  0  0
 58 48  1  0  0  0  0
 59 58  1  0  0  0  0
 60 42  1  0  0  0  0
 61 60  1  0  0  0  0
 62 52  1  0  0  0  0
 63 62  1  0  0  0  0
 64 46  1  0  0  0  0
 65 64  1  0  0  0  0
 66 65  1  0  0  0  0
 67 66  4  0  0  0  0
 68 67  1  0  0  0  0
 69 67  4  0  0  0  0
 70 69  1  0  0  0  0
 71 69  4  0  0  0  0
 72 71  1  0  0  0  0
 73 71  4  0  0  0  0
 74 73  1  0  0  0  0
 75 66  4  0  0  0  0
 76 75  1  0  0  0  0
 77 65  1  0  0  0  0
 78 77  4  0  0  0  0
 79 78  1  0  0  0  0
 80 78  4  0  0  0  0
 81 80  1  0  0  0  0
 82 80  4  0  0  0  0
 83 82  1  0  0  0  0
 84 82  4  0  0  0  0
 85 84  1  0  0  0  0
 86 77  4  0  0  0  0
 87 86  1  0  0  0  0
 88 65  1  0  0  0  0
 89 88  4  0  0  0  0
 90 89  1  0  0  0  0
 91 89  4  0  0  0  0
 92 91  1  0  0  0  0
 93 91  4  0  0  0  0
 94 93  1  0  0  0  0
 95 93  4  0  0  0  0
 96 95  1  0  0  0  0
 97 88  4  0  0  0  0
 98 97  1  0  0  0  0
 16 18  4  0  0  0  0
 27 29  4  0  0  0  0
 38 40  4  0  0  0  0
 42 44  1  0  0  0  0
 42 50  1  0  0  0  0
 44 46  1  0  0  0  0
 44 52  1  0  0  0  0
 46 48  1  0  0  0  0
 46 54  1  0  0  0  0
 47 64  1  0  0  0  0
 48 50  1  0  0  0  0
 48 56  1  0  0  0  0
 50 58  1  0  0  0  0
 50 60  1  0  0  0  0
 52 54  1  0  0  0  0
 52 60  1  0  0  0  0
 54 56  1  0  0  0  0
 54 62  1  0  0  0  0
 54 64  1  0  0  0  0
 55 64  1  0  0  0  0
 56 58  1  0  0  0  0
 56 62  1  0  0  0  0
 56 64  1  0  0  0  0
 57 64  1  0  0  0  0
 58 60  1  0  0  0  0
 58 62  1  0  0  0  0
 60 62  1  0  0  0  0
 73 75  4  0  0  0  0
 84 86  4  0  0  0  0
 95 97  4  0  0  0  0
M  END
$$$$
DOYQAJ

From CSD data. Using bond type 'Any'. No disordered atoms. Largest molecule.
 98125  0  0  0  0  0  0  0  0999 V2000
    5.0365    6.4805    3.8839 Mo  0  0  0  0  0  0  0  0  0  0  0  0
    4.0030    5.1066    5.5536 C   0  0  0  0  0  0  0  0  0  0  0  0
    4.5538    4.1554    5.4927 H   0  0  0  0  0  0  0  0  0  0  0  0
    4.7585    6.4538    6.2639 B   0  0  0  0  0  0  0  0  0  0  0  0
    5.7792    6.4461    6.6731 H   0  0  0  0  0  0  0  0  0  0  0  0
    4.0223    7.9154    5.5156 B   0  0  0  0  0  0  0  0  0  0  0  0
    4.5518    8.9741    5.5369 H   0  0  0  0  0  0  0  0  0  0  0  0
    2.8489    7.3399    4.2819 B   0  0  0  0  0  0  0  0  0  0  0  0
    2.5772    7.9370    3.3997 H   0  0  0  0  0  0  0  0  0  0  0  0
    2.9227    5.5121    4.3184 B   0  0  0  0  0  0  0  0  0  0  0  0
    2.7284    4.8752    3.4438 H   0  0  0  0  0  0  0  0  0  0  0  0
    3.4849    5.5530    7.1158 B   0  0  0  0  0  0  0  0  0  0  0  0
    3.6948    4.9737    8.0269 H   0  0  0  0  0  0  0  0  0  0  0  0
    3.4621    7.3202    7.0990 B   0  0  0  0  0  0  0  0  0  0  0  0
    3.6628    7.9204    7.9706 H   0  0  0  0  0  0  0  0  0  0  0  0
    2.2731    7.8313    5.9050 B   0  0  0  0  0  0  0  0  0  0  0  0
    1.6213    8.7539    6.0692 H   0  0  0  0  0  0  0  0  0  0  0  0
    1.5971    6.3924    5.1292 B   0  0  0  0  0  0  0  0  0  0  0  0
    0.5700    6.3621    4.7337 H   0  0  0  0  0  0  0  0  0  0  0  0
    2.3325    4.9931    5.9126 B   0  0  0  0  0  0  0  0  0  0  0  0
    1.7824    4.0496    6.0434 H   0  0  0  0  0  0  0  0  0  0  0  0
    1.9413    6.4133    6.8830 B   0  0  0  0  0  0  0  0  0  0  0  0
    1.1433    6.4065    7.6405 H   0  0  0  0  0  0  0  0  0  0  0  0
    4.1893    6.5422    2.0854 C   0  0  0  0  0  0  0  0  0  0  0  0
    3.7056    6.5882    1.0633 O   0  0  0  0  0  0  0  0  0  0  0  0
    5.7816    4.8812    2.9023 C   0  0  0  0  0  0  0  0  0  0  0  0
    6.1024    3.9568    2.3334 O   0  0  0  0  0  0  0  0  0  0  0  0
    5.6845    8.1886    3.1137 C   0  0  0  0  0  0  0  0  0  0  0  0
    5.9478    9.2274    2.7091 O   0  0  0  0  0  0  0  0  0  0  0  0
    7.5363    6.5021    4.5104 P   0  0  0  0  0  0  0  0  0  0  0  0
    8.1955    8.1150    5.0942 C   0  0  0  0  0  0  0  0  0  0  0  0
    7.4319    8.8773    5.9582 C   0  0  0  0  0  0  0  0  0  0  0  0
    6.6192    8.5435    6.2609 H   0  0  0  0  0  0  0  0  0  0  0  0
    7.8515   10.1259    6.3811 C   0  0  0  0  0  0  0  0  0  0  0  0
    7.3252   10.6249    6.9652 H   0  0  0  0  0  0  0  0  0  0  0  0
    9.0511   10.6235    5.9323 C   0  0  0  0  0  0  0  0  0  0  0  0
    9.3299   11.4737    6.1879 H   0  0  0  0  0  0  0  0  0  0  0  0
    9.8334    9.8654    5.1094 C   0  0  0  0  0  0  0  0  0  0  0  0
   10.6586   10.1945    4.8341 H   0  0  0  0  0  0  0  0  0  0  0  0
    9.4237    8.6159    4.6759 C   0  0  0  0  0  0  0  0  0  0  0  0
    9.9660    8.1156    4.1085 H   0  0  0  0  0  0  0  0  0  0  0  0
    8.6367    6.0773    3.1015 C   0  0  0  0  0  0  0  0  0  0  0  0
    8.7279    6.9072    2.0124 C   0  0  0  0  0  0  0  0  0  0  0  0
    8.2207    7.6869    1.9866 H   0  0  0  0  0  0  0  0  0  0  0  0
    9.5687    6.6032    0.9477 C   0  0  0  0  0  0  0  0  0  0  0  0
    9.6275    7.1832    0.2236 H   0  0  0  0  0  0  0  0  0  0  0  0
   10.3004    5.4689    0.9629 C   0  0  0  0  0  0  0  0  0  0  0  0
   10.8614    5.2641    0.2495 H   0  0  0  0  0  0  0  0  0  0  0  0
   10.2121    4.6365    2.0155 C   0  0  0  0  0  0  0  0  0  0  0  0
   10.7091    3.8497    2.0200 H   0  0  0  0  0  0  0  0  0  0  0  0
    9.3921    4.9309    3.0924 C   0  0  0  0  0  0  0  0  0  0  0  0
    9.3544    4.3477    3.8150 H   0  0  0  0  0  0  0  0  0  0  0  0
    8.1092    5.2855    5.7574 C   0  0  0  0  0  0  0  0  0  0  0  0
    9.2408    5.5171    6.5058 C   0  0  0  0  0  0  0  0  0  0  0  0
    9.6457    6.3549    6.4815 H   0  0  0  0  0  0  0  0  0  0  0  0
    9.7822    4.5188    7.2953 C   0  0  0  0  0  0  0  0  0  0  0  0
   10.5470    4.6874    7.7972 H   0  0  0  0  0  0  0  0  0  0  0  0
    9.1917    3.2790    7.3394 C   0  0  0  0  0  0  0  0  0  0  0  0
    9.5698    2.6012    7.8520 H   0  0  0  0  0  0  0  0  0  0  0  0
    8.0448    3.0435    6.6244 C   0  0  0  0  0  0  0  0  0  0  0  0
    7.6307    2.2116    6.6746 H   0  0  0  0  0  0  0  0  0  0  0  0
    7.5011    4.0353    5.8319 C   0  0  0  0  0  0  0  0  0  0  0  0
    6.7254    3.8682    5.3467 H   0  0  0  0  0  0  0  0  0  0  0  0
    2.9883   10.1673    5.0493 Ag  0  0  0  0  0  0  0  0  0  0  0  0
    2.8891   12.0651    3.6292 P   0  0  0  0  0  0  0  0  0  0  0  0
    4.2533   13.2267    3.9397 C   0  0  0  0  0  0  0  0  0  0  0  0
    4.0726   14.5751    4.1557 C   0  0  0  0  0  0  0  0  0  0  0  0
    3.2159   14.9365    4.1131 H   0  0  0  0  0  0  0  0  0  0  0  0
    5.1467   15.3945    4.4340 C   0  0  0  0  0  0  0  0  0  0  0  0
    5.0104   16.3003    4.5892 H   0  0  0  0  0  0  0  0  0  0  0  0
    6.4051   14.8777    4.4797 C   0  0  0  0  0  0  0  0  0  0  0  0
    7.1296   15.4355    4.6561 H   0  0  0  0  0  0  0  0  0  0  0  0
    6.6068   13.5410    4.2698 C   0  0  0  0  0  0  0  0  0  0  0  0
    7.4693   13.1916    4.2911 H   0  0  0  0  0  0  0  0  0  0  0  0
    5.5280   12.7132    4.0279 C   0  0  0  0  0  0  0  0  0  0  0  0
    5.6640   11.7994    3.9229 H   0  0  0  0  0  0  0  0  0  0  0  0
    2.9867   11.6916    1.8588 C   0  0  0  0  0  0  0  0  0  0  0  0
    2.4579   10.5229    1.3964 C   0  0  0  0  0  0  0  0  0  0  0  0
    2.0901    9.9137    1.9957 H   0  0  0  0  0  0  0  0  0  0  0  0
    2.4640   10.2361    0.0335 C   0  0  0  0  0  0  0  0  0  0  0  0
    2.0807    9.4451   -0.2708 H   0  0  0  0  0  0  0  0  0  0  0  0
    3.0084   11.0754   -0.8381 C   0  0  0  0  0  0  0  0  0  0  0  0
    3.0088   10.8643   -1.7432 H   0  0  0  0  0  0  0  0  0  0  0  0
    3.5553   12.2219   -0.4213 C   0  0  0  0  0  0  0  0  0  0  0  0
    3.9384   12.8088   -1.0344 H   0  0  0  0  0  0  0  0  0  0  0  0
    3.5490   12.5289    0.9279 C   0  0  0  0  0  0  0  0  0  0  0  0
    3.9356   13.3251    1.2108 H   0  0  0  0  0  0  0  0  0  0  0  0
    1.3786   13.0481    3.8439 C   0  0  0  0  0  0  0  0  0  0  0  0
    0.8429   13.1057    5.1277 C   0  0  0  0  0  0  0  0  0  0  0  0
    1.2236   12.6100    5.8167 H   0  0  0  0  0  0  0  0  0  0  0  0
   -0.2493   13.8951    5.3695 C   0  0  0  0  0  0  0  0  0  0  0  0
   -0.5972   13.9516    6.2305 H   0  0  0  0  0  0  0  0  0  0  0  0
   -0.8272   14.5943    4.3656 C   0  0  0  0  0  0  0  0  0  0  0  0
   -1.5653   15.1303    4.5466 H   0  0  0  0  0  0  0  0  0  0  0  0
   -0.3380   14.5226    3.0848 C   0  0  0  0  0  0  0  0  0  0  0  0
   -0.7488   14.9974    2.3988 H   0  0  0  0  0  0  0  0  0  0  0  0
    0.7777   13.7357    2.8217 C   0  0  0  0  0  0  0  0  0  0  0  0
    1.1140   13.6749    1.9562 H   0  0  0  0  0  0  0  0  0  0  0  0
  1  2  1  0  0  0  0
  2  3  1  0  0  0  0
  4  1  1  0  0  0  0
  5  4  1  0  0  0  0
  6  1  1  0  0  0  0
  7  6  1  0  0  0  0
  8  1  1  0  0  0  0
  9  8  1  0  0  0  0
 10  1  1  0  0  0  0
 11 10  1  0  0  0  0
 12  2  1  0  0  0  0
 13 12  1  0  0  0  0
 14  4  1  0  0  0  0
 15 14  1  0  0  0  0
 16  6  1  0  0  0  0
 17 16  1  0  0  0  0
 18  8  1  0  0  0  0
 19 18  1  0  0  0  0
 20  2  1  0  0  0  0
 21 20  1  0  0  0  0
 22 12  1  0  0  0  0
 23 22  1  0  0  0  0
 24  1  1  0  0  0  0
 25 24  3  0  0  0  0
 26  1  1  0  0  0  0
 27 26  3  0  0  0  0
 28  1  1  0  0  0  0
 29 28  3  0  0  0  0
 30  1  1  0  0  0  0
 31 30  1  0  0  0  0
 32 31  4  0  0  0  0
 33 32  1  0  0  0  0
 34 32  4  0  0  0  0
 35 34  1  0  0  0  0
 36 34  4  0  0  0  0
 37 36  1  0  0  0  0
 38 36  4  0  0  0  0
 39 38  1  0  0  0  0
 40 31  4  0  0  0  0
 41 40  1  0  0  0  0
 42 30  1  0  0  0  0
 43 42  4  0  0  0  0
 44 43  1  0  0  0  0
 45 43  4  0  0  0  0
 46 45  1  0  0  0  0
 47 45  4  0  0  0  0
 48 47  1  0  0  0  0
 49 47  4  0  0  0  0
 50 49  1  0  0  0  0
 51 42  4  0  0  0  0
 52 51  1  0  0  0  0
 53 30  1  0  0  0  0
 54 53  4  0  0  0  0
 55 54  1  0  0  0  0
 56 54  4  0  0  0  0
 57 56  1  0  0  0  0
 58 56  4  0  0  0  0
 59 58  1  0  0  0  0
 60 58  4  0  0  0  0
 61 60  1  0  0  0  0
 62 53  4  0  0  0  0
 63 62  1  0  0  0  0
 64  6  1  0  0  0  0
 65 64  1  0  0  0  0
 66 65  1  0  0  0  0
 67 66  4  0  0  0  0
 68 67  1  0  0  0  0
 69 67  4  0  0  0  0
 70 69  1  0  0  0  0
 71 69  4  0  0  0  0
 72 71  1  0  0  0  0
 73 71  4  0  0  0  0
 74 73  1  0  0  0  0
 75 66  4  0  0  0  0
 76 75  1  0  0  0  0
 77 65  1  0  0  0  0
 78 77  4  0  0  0  0
 79 78  1  0  0  0  0
 80 78  4  0  0  0  0
 81 80  1  0  0  0  0
 82 80  4  0  0  0  0
 83 82  1  0  0  0  0
 84 82  4  0  0  0  0
 85 84  1  0  0  0  0
 86 77  4  0  0  0  0
 87 86  1  0  0  0  0
 88 65  1  0  0  0  0
 89 88  4  0  0  0  0
 90 89  1  0  0  0  0
 91 89  4  0  0  0  0
 92 91  1  0  0  0  0
 93 91  4  0  0  0  0
 94 93  1  0  0  0  0
 95 93  4  0  0  0  0
 96 95  1  0  0  0  0
 97 88  4  0  0  0  0
 98 97  1  0  0  0  0
  2  4  1  0  0  0  0
  2 10  1  0  0  0  0
  4  6  1  0  0  0  0
  4 12  1  0  0  0  0
  6  8  1  0  0  0  0
  6 14  1  0  0  0  0
  7 64  1  0  0  0  0
  8 10  1  0  0  0  0
  8 16  1  0  0  0  0
 10 18  1  0  0  0  0
 10 20  1  0  0  0  0
 12 14  1  0  0  0  0
 12 20  1  0  0  0  0
 14 16  1  0  0  0  0
 14 22  1  0  0  0  0
 16 18  1  0  0  0  0
 16 22  1  0  0  0  0
 16 64  1  0  0  0  0
 17 64  1  0  0  0  0
 18 20  1  0  0  0  0
 18 22  1  0  0  0  0
 20 22  1  0  0  0  0
 38 40  4  0  0  0  0
 49 51  4  0  0  0  0
 60 62  4  0  0  0  0
 73 75  4  0  0  0  0
 84 86  4  0  0  0  0
 95 97  4  0  0  0  0
M  END
$$$$
DOYQEN

From CSD data. Using bond type 'Any'. No disordered atoms. Largest molecule.
133165  0  0  0  0  0  0  0  0999 V2000
   14.3612   -7.5742   -7.2623 Mo  0  0  0  0  0  0  0  0  0  0  0  0
   15.2313   -6.2113   -8.4607 C   0  0  0  0  0  0  0  0  0  0  0  0
   15.6809   -5.3960   -9.1233 O   0  0  0  0  0  0  0  0  0  0  0  0
   12.8216   -6.7114   -8.1864 C   0  0  0  0  0  0  0  0  0  0  0  0
   11.9148   -6.2344   -8.6834 O   0  0  0  0  0  0  0  0  0  0  0  0
   13.2584   -9.1153   -7.9847 C   0  0  0  0  0  0  0  0  0  0  0  0
   12.5670   -9.9411   -8.3464 O   0  0  0  0  0  0  0  0  0  0  0  0
   16.0463   -8.9485   -8.6200 P   0  0  0  0  0  0  0  0  0  0  0  0
   17.8112   -8.7672   -8.1540 C   0  0  0  0  0  0  0  0  0  0  0  0
   18.3454   -7.5017   -7.9321 C   0  0  0  0  0  0  0  0  0  0  0  0
   17.7875   -6.7366   -8.0052 H   0  0  0  0  0  0  0  0  0  0  0  0
   19.6856   -7.3467   -7.6042 C   0  0  0  0  0  0  0  0  0  0  0  0
   20.0353   -6.4782   -7.4474 H   0  0  0  0  0  0  0  0  0  0  0  0
   20.5067   -8.4405   -7.5057 C   0  0  0  0  0  0  0  0  0  0  0  0
   21.4210   -8.3292   -7.2705 H   0  0  0  0  0  0  0  0  0  0  0  0
   20.0052   -9.7024   -7.7486 C   0  0  0  0  0  0  0  0  0  0  0  0
   20.5766  -10.4591   -7.6915 H   0  0  0  0  0  0  0  0  0  0  0  0
   18.6610   -9.8659   -8.0767 C   0  0  0  0  0  0  0  0  0  0  0  0
   18.3209  -10.7368   -8.2493 H   0  0  0  0  0  0  0  0  0  0  0  0
   15.7926  -10.7588   -8.5562 C   0  0  0  0  0  0  0  0  0  0  0  0
   15.6468  -11.5227   -9.6976 C   0  0  0  0  0  0  0  0  0  0  0  0
   15.6560  -11.1089  -10.5522 H   0  0  0  0  0  0  0  0  0  0  0  0
   15.4839  -12.9063   -9.5913 C   0  0  0  0  0  0  0  0  0  0  0  0
   15.3695  -13.4268  -10.3775 H   0  0  0  0  0  0  0  0  0  0  0  0
   15.4890  -13.5167   -8.3712 C   0  0  0  0  0  0  0  0  0  0  0  0
   15.3924  -14.4606   -8.3104 H   0  0  0  0  0  0  0  0  0  0  0  0
   15.6329  -12.7667   -7.2293 C   0  0  0  0  0  0  0  0  0  0  0  0
   15.6368  -13.1878   -6.3780 H   0  0  0  0  0  0  0  0  0  0  0  0
   15.7713  -11.4029   -7.3261 C   0  0  0  0  0  0  0  0  0  0  0  0
   15.8540  -10.8883   -6.5317 H   0  0  0  0  0  0  0  0  0  0  0  0
   16.0229   -8.5823  -10.4198 C   0  0  0  0  0  0  0  0  0  0  0  0
   17.2016   -8.4836  -11.1584 C   0  0  0  0  0  0  0  0  0  0  0  0
   18.0439   -8.5726  -10.7290 H   0  0  0  0  0  0  0  0  0  0  0  0
   17.1355   -8.2532  -12.5279 C   0  0  0  0  0  0  0  0  0  0  0  0
   17.9368   -8.1766  -13.0318 H   0  0  0  0  0  0  0  0  0  0  0  0
   15.9090   -8.1345  -13.1659 C   0  0  0  0  0  0  0  0  0  0  0  0
   15.8698   -7.9771  -14.1011 H   0  0  0  0  0  0  0  0  0  0  0  0
   14.7509   -8.2465  -12.4348 C   0  0  0  0  0  0  0  0  0  0  0  0
   13.9096   -8.1806  -12.8718 H   0  0  0  0  0  0  0  0  0  0  0  0
   14.8007   -8.4566  -11.0700 C   0  0  0  0  0  0  0  0  0  0  0  0
   13.9936   -8.5146  -10.5732 H   0  0  0  0  0  0  0  0  0  0  0  0
   15.5690   -8.3249   -5.3058 C   0  0  0  0  0  0  0  0  0  0  0  0
   16.3276   -9.0460   -5.7044 H   0  0  0  0  0  0  0  0  0  0  0  0
   15.8051   -6.6539   -5.5901 B   0  0  0  0  0  0  0  0  0  0  0  0
   16.6741   -6.2080   -6.1381 H   0  0  0  0  0  0  0  0  0  0  0  0
   14.1301   -5.9672   -5.5969 B   0  0  0  0  0  0  0  0  0  0  0  0
   13.8928   -4.8635   -5.9528 H   0  0  0  0  0  0  0  0  0  0  0  0
   12.9218   -7.2989   -5.3853 B   0  0  0  0  0  0  0  0  0  0  0  0
   11.8715   -7.2764   -5.7739 H   0  0  0  0  0  0  0  0  0  0  0  0
   13.9207   -8.7762   -5.2270 B   0  0  0  0  0  0  0  0  0  0  0  0
   13.5480   -9.7800   -5.5571 H   0  0  0  0  0  0  0  0  0  0  0  0
   16.0762   -7.3833   -3.9592 B   0  0  0  0  0  0  0  0  0  0  0  0
   17.0957   -7.4142   -3.4963 H   0  0  0  0  0  0  0  0  0  0  0  0
   15.1329   -5.9219   -4.1289 B   0  0  0  0  0  0  0  0  0  0  0  0
   15.4552   -4.8917   -3.7995 H   0  0  0  0  0  0  0  0  0  0  0  0
   13.4535   -6.3034   -4.0133 B   0  0  0  0  0  0  0  0  0  0  0  0
   12.7279   -5.3450   -3.5574 H   0  0  0  0  0  0  0  0  0  0  0  0
   13.2418   -8.0283   -3.7628 B   0  0  0  0  0  0  0  0  0  0  0  0
   12.4046   -8.4753   -3.1680 H   0  0  0  0  0  0  0  0  0  0  0  0
   14.8956   -8.7061   -3.7632 B   0  0  0  0  0  0  0  0  0  0  0  0
   15.1485   -9.6271   -3.1764 H   0  0  0  0  0  0  0  0  0  0  0  0
   14.5949   -7.1575   -2.9787 B   0  0  0  0  0  0  0  0  0  0  0  0
   14.6373   -7.0291   -1.8671 H   0  0  0  0  0  0  0  0  0  0  0  0
   13.6806   -4.0264   -4.1507 Ru  0  0  0  0  0  0  0  0  0  0  0  0
   15.1251   -2.3272   -5.0189 Cl  0  0  0  0  0  0  0  0  0  0  0  0
   13.6623   -3.1907   -2.0069 P   0  0  0  0  0  0  0  0  0  0  0  0
   12.1190   -3.4820   -1.0636 C   0  0  0  0  0  0  0  0  0  0  0  0
   11.4879   -2.4626   -0.3559 C   0  0  0  0  0  0  0  0  0  0  0  0
   11.8541   -1.5865   -0.3578 H   0  0  0  0  0  0  0  0  0  0  0  0
   10.3216   -2.7273    0.3543 C   0  0  0  0  0  0  0  0  0  0  0  0
    9.8894   -2.0243    0.8272 H   0  0  0  0  0  0  0  0  0  0  0  0
    9.7919   -3.9784    0.3799 C   0  0  0  0  0  0  0  0  0  0  0  0
    8.9988   -4.1450    0.8757 H   0  0  0  0  0  0  0  0  0  0  0  0
   10.3978   -5.0050   -0.3090 C   0  0  0  0  0  0  0  0  0  0  0  0
   10.0218   -5.8762   -0.2905 H   0  0  0  0  0  0  0  0  0  0  0  0
   11.5698   -4.7622   -1.0394 C   0  0  0  0  0  0  0  0  0  0  0  0
   11.9880   -5.4698   -1.5156 H   0  0  0  0  0  0  0  0  0  0  0  0
   14.1411   -1.4644   -1.5892 C   0  0  0  0  0  0  0  0  0  0  0  0
   14.5417   -1.1725   -0.2810 C   0  0  0  0  0  0  0  0  0  0  0  0
   14.5098   -1.8509    0.3810 H   0  0  0  0  0  0  0  0  0  0  0  0
   14.9834    0.0919    0.0600 C   0  0  0  0  0  0  0  0  0  0  0  0
   15.2408    0.2795    0.9557 H   0  0  0  0  0  0  0  0  0  0  0  0
   15.0529    1.0897   -0.9114 C   0  0  0  0  0  0  0  0  0  0  0  0
   15.3845    1.9512   -0.6862 H   0  0  0  0  0  0  0  0  0  0  0  0
   14.6436    0.8218   -2.1799 C   0  0  0  0  0  0  0  0  0  0  0  0
   14.6689    1.5085   -2.8375 H   0  0  0  0  0  0  0  0  0  0  0  0
   14.1849   -0.4484   -2.5262 C   0  0  0  0  0  0  0  0  0  0  0  0
   13.9003   -0.6179   -3.4164 H   0  0  0  0  0  0  0  0  0  0  0  0
   14.9351   -4.0602   -1.0074 C   0  0  0  0  0  0  0  0  0  0  0  0
   16.2655   -3.8826   -1.4004 C   0  0  0  0  0  0  0  0  0  0  0  0
   16.4680   -3.3534   -2.1618 H   0  0  0  0  0  0  0  0  0  0  0  0
   17.2934   -4.4778   -0.6799 C   0  0  0  0  0  0  0  0  0  0  0  0
   18.1948   -4.3590   -0.9535 H   0  0  0  0  0  0  0  0  0  0  0  0
   17.0073   -5.2414    0.4330 C   0  0  0  0  0  0  0  0  0  0  0  0
   17.7123   -5.6388    0.9304 H   0  0  0  0  0  0  0  0  0  0  0  0
   15.7115   -5.4257    0.8209 C   0  0  0  0  0  0  0  0  0  0  0  0
   15.5211   -5.9659    1.5787 H   0  0  0  0  0  0  0  0  0  0  0  0
   14.6607   -4.8276    0.1149 C   0  0  0  0  0  0  0  0  0  0  0  0
   13.7633   -4.9478    0.4042 H   0  0  0  0  0  0  0  0  0  0  0  0
   11.7570   -3.0240   -4.8825 P   0  0  0  0  0  0  0  0  0  0  0  0
   11.6440   -3.0655   -6.7228 C   0  0  0  0  0  0  0  0  0  0  0  0
   12.7876   -2.8537   -7.4905 C   0  0  0  0  0  0  0  0  0  0  0  0
   13.6311   -2.7574   -7.0642 H   0  0  0  0  0  0  0  0  0  0  0  0
   12.7045   -2.7817   -8.8787 C   0  0  0  0  0  0  0  0  0  0  0  0
   13.4888   -2.6218   -9.3923 H   0  0  0  0  0  0  0  0  0  0  0  0
   11.4907   -2.9404   -9.5115 C   0  0  0  0  0  0  0  0  0  0  0  0
   11.4348   -2.8841  -10.4574 H   0  0  0  0  0  0  0  0  0  0  0  0
   10.3628   -3.1811   -8.7665 C   0  0  0  0  0  0  0  0  0  0  0  0
    9.5289   -3.3084   -9.2029 H   0  0  0  0  0  0  0  0  0  0  0  0
   10.4317   -3.2402   -7.3770 C   0  0  0  0  0  0  0  0  0  0  0  0
    9.6430   -3.4019   -6.8727 H   0  0  0  0  0  0  0  0  0  0  0  0
   10.1321   -3.7224   -4.4034 C   0  0  0  0  0  0  0  0  0  0  0  0
    8.9774   -2.9263   -4.4133 C   0  0  0  0  0  0  0  0  0  0  0  0
    9.0512   -1.9923   -4.5762 H   0  0  0  0  0  0  0  0  0  0  0  0
    7.7281   -3.4881   -4.1882 C   0  0  0  0  0  0  0  0  0  0  0  0
    6.9526   -2.9377   -4.1889 H   0  0  0  0  0  0  0  0  0  0  0  0
    7.6130   -4.8307   -3.9660 C   0  0  0  0  0  0  0  0  0  0  0  0
    6.7571   -5.2118   -3.8037 H   0  0  0  0  0  0  0  0  0  0  0  0
    8.7341   -5.6389   -3.9752 C   0  0  0  0  0  0  0  0  0  0  0  0
    8.6475   -6.5749   -3.8352 H   0  0  0  0  0  0  0  0  0  0  0  0
    9.9902   -5.0812   -4.1908 C   0  0  0  0  0  0  0  0  0  0  0  0
   10.7590   -5.6399   -4.1910 H   0  0  0  0  0  0  0  0  0  0  0  0
   11.5498   -1.2427   -4.5276 C   0  0  0  0  0  0  0  0  0  0  0  0
   10.9626   -0.8159   -3.3322 C   0  0  0  0  0  0  0  0  0  0  0  0
   10.6348   -1.4591   -2.7154 H   0  0  0  0  0  0  0  0  0  0  0  0
   10.8559    0.5346   -3.0377 C   0  0  0  0  0  0  0  0  0  0  0  0
   10.4408    0.8094   -2.2292 H   0  0  0  0  0  0  0  0  0  0  0  0
   11.3459    1.4779   -3.9087 C   0  0  0  0  0  0  0  0  0  0  0  0
   11.2840    2.4014   -3.6963 H   0  0  0  0  0  0  0  0  0  0  0  0
   11.9350    1.0728   -5.1087 C   0  0  0  0  0  0  0  0  0  0  0  0
   12.2675    1.7210   -5.7192 H   0  0  0  0  0  0  0  0  0  0  0  0
   12.0328   -0.2744   -5.4051 C   0  0  0  0  0  0  0  0  0  0  0  0
   12.4375   -0.5442   -6.2223 H   0  0  0  0  0  0  0  0  0  0  0  0
  1  2  1  0  0  0  0
  2  3  3  0  0  0  0
  4  1  1  0  0  0  0
  5  4  3  0  0  0  0
  6  1  1  0  0  0  0
  7  6  3  0  0  0  0
  8  1  1  0  0  0  0
  9  8  1  0  0  0  0
 10  9  4  0  0  0  0
 11 10  1  0  0  0  0
 12 10  4  0  0  0  0
 13 12  1  0  0  0  0
 14 12  4  0  0  0  0
 15 14  1  0  0  0  0
 16 14  4  0  0  0  0
 17 16  1  0  0  0  0
 18  9  4  0  0  0  0
 19 18  1  0  0  0  0
 20  8  1  0  0  0  0
 21 20  4  0  0  0  0
 22 21  1  0  0  0  0
 23 21  4  0  0  0  0
 24 23  1  0  0  0  0
 25 23  4  0  0  0  0
 26 25  1  0  0  0  0
 27 25  4  0  0  0  0
 28 27  1  0  0  0  0
 29 20  4  0  0  0  0
 30 29  1  0  0  0  0
 31  8  1  0  0  0  0
 32 31  4  0  0  0  0
 33 32  1  0  0  0  0
 34 32  4  0  0  0  0
 35 34  1  0  0  0  0
 36 34  4  0  0  0  0
 37 36  1  0  0  0  0
 38 36  4  0  0  0  0
 39 38  1  0  0  0  0
 40 31  4  0  0  0  0
 41 40  1  0  0  0  0
 42  1  1  0  0  0  0
 43 42  1  0  0  0  0
 44  1  1  0  0  0  0
 45 44  1  0  0  0  0
 46  1  1  0  0  0  0
 47 46  1  0  0  0  0
 48  1  1  0  0  0  0
 49 48  1  0  0  0  0
 50  1  1  0  0  0  0
 51 50  1  0  0  0  0
 52 42  1  0  0  0  0
 53 52  1  0  0  0  0
 54 44  1  0  0  0  0
 55 54  1  0  0  0  0
 56 46  1  0  0  0  0
 57 56  1  0  0  0  0
 58 48  1  0  0  0  0
 59 58  1  0  0  0  0
 60 42  1  0  0  0  0
 61 60  1  0  0  0  0
 62 52  1  0  0  0  0
 63 62  1  0  0  0  0
 64 46  1  0  0  0  0
 65 64  1  0  0  0  0
 66 64  1  0  0  0  0
 67 66  1  0  0  0  0
 68 67  4  0  0  0  0
 69 68  1  0  0  0  0
 70 68  4  0  0  0  0
 71 70  1  0  0  0  0
 72 70  4  0  0  0  0
 73 72  1  0  0  0  0
 74 72  4  0  0  0  0
 75 74  1  0  0  0  0
 76 67  4  0  0  0  0
 77 76  1  0  0  0  0
 78 66  1  0  0  0  0
 79 78  4  0  0  0  0
 80 79  1  0  0  0  0
 81 79  4  0  0  0  0
 82 81  1  0  0  0  0
 83 81  4  0  0  0  0
 84 83  1  0  0  0  0
 85 83  4  0  0  0  0
 86 85  1  0  0  0  0
 87 78  4  0  0  0  0
 88 87  1  0  0  0  0
 89 66  1  0  0  0  0
 90 89  4  0  0  0  0
 91 90  1  0  0  0  0
 92 90  4  0  0  0  0
 93 92  1  0  0  0  0
 94 92  4  0  0  0  0
 95 94  1  0  0  0  0
 96 94  4  0  0  0  0
 97 96  1  0  0  0  0
 98 89  4  0  0  0  0
 99 98  1  0  0  0  0
100 64  1  0  0  0  0
101100  1  0  0  0  0
102101  4  0  0  0  0
103102  1  0  0  0  0
104102  4  0  0  0  0
105104  1  0  0  0  0
106104  4  0  0  0  0
107106  1  0  0  0  0
108106  4  0  0  0  0
109108  1  0  0  0  0
110101  4  0  0  0  0
111110  1  0  0  0  0
112100  1  0  0  0  0
113112  4  0  0  0  0
114113  1  0  0  0  0
115113  4  0  0  0  0
116115  1  0  0  0  0
117115  4  0  0  0  0
118117  1  0  0  0  0
119117  4  0  0  0  0
120119  1  0  0  0  0
121112  4  0  0  0  0
122121  1  0  0  0  0
123100  1  0  0  0  0
124123  4  0  0  0  0
125124  1  0  0  0  0
126124  4  0  0  0  0
127126  1  0  0  0  0
128126  4  0  0  0  0
129128  1  0  0  0  0
130128  4  0  0  0  0
131130  1  0  0  0  0
132123  4  0  0  0  0
133132  1  0  0  0  0
 16 18  4  0  0  0  0
 27 29  4  0  0  0  0
 38 40  4  0  0  0  0
 42 44  1  0  0  0  0
 42 50  1  0  0  0  0
 44 46  1  0  0  0  0
 44 52  1  0  0  0  0
 46 48  1  0  0  0  0
 46 54  1  0  0  0  0
 47 64  1  0  0  0  0
 48 50  1  0  0  0  0
 48 56  1  0  0  0  0
 50 58  1  0  0  0  0
 50 60  1  0  0  0  0
 52 54  1  0  0  0  0
 52 60  1  0  0  0  0
 54 56  1  0  0  0  0
 54 62  1  0  0  0  0
 54 64  1  0  0  0  0
 55 64  1  0  0  0  0
 56 58  1  0  0  0  0
 56 62  1  0  0  0  0
 56 64  1  0  0  0  0
 57 64  1  0  0  0  0
 58 60  1  0  0  0  0
 58 62  1  0  0  0  0
 60 62  1  0  0  0  0
 74 76  4  0  0  0  0
 85 87  4  0  0  0  0
 96 98  4  0  0  0  0
108110  4  0  0  0  0
119121  4  0  0  0  0
130132  4  0  0  0  0
M  END
$$$$
DOYTET

From CSD data. Using bond type 'Any'. No disordered atoms. Largest molecule.
169176  0  0  0  0  0  0  0  0999 V2000
   13.4431    2.7045    4.3248 P   0  0  0  0  0  0  0  0  0  0  0  0
   11.4764    3.0899    3.3311 P   0  0  0  0  0  0  0  0  0  0  0  0
   10.5871    1.6974    3.6540 O   0  0  0  0  0  0  0  0  0  0  0  0
   14.0366    4.3418    5.1203 B   0  0  0  0  0  0  0  0  0  0  0  0
   14.1454    5.7173    4.7239 N   0  0  0  0  0  0  0  0  0  0  0  0
   14.4677    4.3401    6.4943 N   0  0  0  0  0  0  0  0  0  0  0  0
    9.6077    1.5756    4.6060 B   0  0  0  0  0  0  0  0  0  0  0  0
    8.6710    2.5281    5.1443 N   0  0  0  0  0  0  0  0  0  0  0  0
    9.3295    0.3357    5.2735 N   0  0  0  0  0  0  0  0  0  0  0  0
   12.4126    3.0886   -0.4843 N   0  0  0  0  0  0  0  0  0  0  0  0
   11.7716    1.1083    0.1252 N   0  0  0  0  0  0  0  0  0  0  0  0
   13.8280    2.7326    2.4773 C   0  0  0  0  0  0  0  0  0  0  0  0
   14.9305    2.8028    1.9165 O   0  0  0  0  0  0  0  0  0  0  0  0
   12.5232    2.6048    1.9662 C   0  0  0  0  0  0  0  0  0  0  0  0
   14.5934    6.4584    5.8272 C   0  0  0  0  0  0  0  0  0  0  0  0
   14.7385    7.3972    5.8329 H   0  0  0  0  0  0  0  0  0  0  0  0
   14.7858    5.6418    6.8716 C   0  0  0  0  0  0  0  0  0  0  0  0
   15.0904    5.9082    7.7312 H   0  0  0  0  0  0  0  0  0  0  0  0
   14.1277    6.3646    3.4343 C   0  0  0  0  0  0  0  0  0  0  0  0
   15.3255    6.4162    2.6971 C   0  0  0  0  0  0  0  0  0  0  0  0
   15.3549    7.2096    1.5534 C   0  0  0  0  0  0  0  0  0  0  0  0
   16.1576    7.2716    1.0492 H   0  0  0  0  0  0  0  0  0  0  0  0
   14.2386    7.9075    1.1389 C   0  0  0  0  0  0  0  0  0  0  0  0
   14.2856    8.4711    0.3756 H   0  0  0  0  0  0  0  0  0  0  0  0
   13.0538    7.7845    1.8368 C   0  0  0  0  0  0  0  0  0  0  0  0
   12.2798    8.2386    1.5246 H   0  0  0  0  0  0  0  0  0  0  0  0
   12.9713    7.0061    2.9920 C   0  0  0  0  0  0  0  0  0  0  0  0
   16.5649    5.6646    3.1350 C   0  0  0  0  0  0  0  0  0  0  0  0
   16.2706    4.9169    3.7303 H   0  0  0  0  0  0  0  0  0  0  0  0
   17.3253    5.0481    1.9595 C   0  0  0  0  0  0  0  0  0  0  0  0
   16.7141    4.4958    1.4286 H   0  0  0  0  0  0  0  0  0  0  0  0
   18.0568    4.4916    2.2993 H   0  0  0  0  0  0  0  0  0  0  0  0
   17.6921    5.7621    1.3972 H   0  0  0  0  0  0  0  0  0  0  0  0
   17.4940    6.5610    3.9459 C   0  0  0  0  0  0  0  0  0  0  0  0
   17.7957    7.3086    3.3882 H   0  0  0  0  0  0  0  0  0  0  0  0
   18.2701    6.0426    4.2446 H   0  0  0  0  0  0  0  0  0  0  0  0
   17.0138    6.9092    4.7261 H   0  0  0  0  0  0  0  0  0  0  0  0
   11.6526    6.8977    3.7362 C   0  0  0  0  0  0  0  0  0  0  0  0
   11.7231    6.1364    4.3807 H   0  0  0  0  0  0  0  0  0  0  0  0
   10.5031    6.5941    2.7698 C   0  0  0  0  0  0  0  0  0  0  0  0
   10.3676    7.3603    2.1733 H   0  0  0  0  0  0  0  0  0  0  0  0
    9.6831    6.4284    3.2797 H   0  0  0  0  0  0  0  0  0  0  0  0
   10.7240    5.8015    2.2382 H   0  0  0  0  0  0  0  0  0  0  0  0
   11.3718    8.1608    4.5308 C   0  0  0  0  0  0  0  0  0  0  0  0
   12.0479    8.2617    5.2333 H   0  0  0  0  0  0  0  0  0  0  0  0
   10.4833    8.0995    4.9389 H   0  0  0  0  0  0  0  0  0  0  0  0
   11.4042    8.9368    3.9330 H   0  0  0  0  0  0  0  0  0  0  0  0
   14.7985    3.1915    7.2941 C   0  0  0  0  0  0  0  0  0  0  0  0
   16.0088    2.5313    7.0376 C   0  0  0  0  0  0  0  0  0  0  0  0
   16.2864    1.3787    7.7677 C   0  0  0  0  0  0  0  0  0  0  0  0
   17.0938    0.9059    7.6031 H   0  0  0  0  0  0  0  0  0  0  0  0
   15.4118    0.9110    8.7245 C   0  0  0  0  0  0  0  0  0  0  0  0
   15.6195    0.1227    9.2123 H   0  0  0  0  0  0  0  0  0  0  0  0
   14.2347    1.5867    8.9750 C   0  0  0  0  0  0  0  0  0  0  0  0
   13.6398    1.2581    9.6389 H   0  0  0  0  0  0  0  0  0  0  0  0
   13.9037    2.7427    8.2705 C   0  0  0  0  0  0  0  0  0  0  0  0
   17.0093    3.0405    6.0041 C   0  0  0  0  0  0  0  0  0  0  0  0
   16.5956    3.8526    5.5935 H   0  0  0  0  0  0  0  0  0  0  0  0
   17.2410    2.0892    4.8924 C   0  0  0  0  0  0  0  0  0  0  0  0
   17.6542    1.2725    5.2418 H   0  0  0  0  0  0  0  0  0  0  0  0
   17.8365    2.4996    4.2308 H   0  0  0  0  0  0  0  0  0  0  0  0
   16.3856    1.8675    4.4686 H   0  0  0  0  0  0  0  0  0  0  0  0
   18.3010    3.4962    6.6230 C   0  0  0  0  0  0  0  0  0  0  0  0
   18.7583    2.7290    7.0268 H   0  0  0  0  0  0  0  0  0  0  0  0
   18.1139    4.1655    7.3136 H   0  0  0  0  0  0  0  0  0  0  0  0
   18.8728    3.8904    5.9318 H   0  0  0  0  0  0  0  0  0  0  0  0
   12.6309    3.4958    8.5997 C   0  0  0  0  0  0  0  0  0  0  0  0
   12.4755    4.1628    7.8710 H   0  0  0  0  0  0  0  0  0  0  0  0
   11.4060    2.5932    8.6698 C   0  0  0  0  0  0  0  0  0  0  0  0
   11.2556    2.1781    7.7948 H   0  0  0  0  0  0  0  0  0  0  0  0
   10.6217    3.1255    8.9180 H   0  0  0  0  0  0  0  0  0  0  0  0
   11.5529    1.8949    9.3416 H   0  0  0  0  0  0  0  0  0  0  0  0
   12.8140    4.2722    9.9096 C   0  0  0  0  0  0  0  0  0  0  0  0
   12.9368    3.6401   10.6489 H   0  0  0  0  0  0  0  0  0  0  0  0
   12.0201    4.8210   10.0777 H   0  0  0  0  0  0  0  0  0  0  0  0
   13.6024    4.8496    9.8396 H   0  0  0  0  0  0  0  0  0  0  0  0
    7.9230    1.8547    6.1374 C   0  0  0  0  0  0  0  0  0  0  0  0
    7.2481    2.2514    6.6756 H   0  0  0  0  0  0  0  0  0  0  0  0
    8.3058    0.5810    6.2048 C   0  0  0  0  0  0  0  0  0  0  0  0
    7.9405   -0.0669    6.7959 H   0  0  0  0  0  0  0  0  0  0  0  0
    8.2169    3.8139    4.7026 C   0  0  0  0  0  0  0  0  0  0  0  0
    7.6880    3.9589    3.4040 C   0  0  0  0  0  0  0  0  0  0  0  0
    7.1108    5.1830    3.0683 C   0  0  0  0  0  0  0  0  0  0  0  0
    6.7484    5.3018    2.1981 H   0  0  0  0  0  0  0  0  0  0  0  0
    7.0532    6.2277    3.9711 C   0  0  0  0  0  0  0  0  0  0  0  0
    6.6314    7.0436    3.7283 H   0  0  0  0  0  0  0  0  0  0  0  0
    7.6077    6.0844    5.2227 C   0  0  0  0  0  0  0  0  0  0  0  0
    7.5843    6.8147    5.8298 H   0  0  0  0  0  0  0  0  0  0  0  0
    8.2040    4.8853    5.6153 C   0  0  0  0  0  0  0  0  0  0  0  0
    7.7009    2.8448    2.3655 C   0  0  0  0  0  0  0  0  0  0  0  0
    8.2025    2.0743    2.7588 H   0  0  0  0  0  0  0  0  0  0  0  0
    8.4385    3.2703    1.0920 C   0  0  0  0  0  0  0  0  0  0  0  0
    7.9413    3.9916    0.6525 H   0  0  0  0  0  0  0  0  0  0  0  0
    8.5082    2.5045    0.4841 H   0  0  0  0  0  0  0  0  0  0  0  0
    9.3360    3.5860    1.3244 H   0  0  0  0  0  0  0  0  0  0  0  0
    6.2931    2.3523    2.0315 C   0  0  0  0  0  0  0  0  0  0  0  0
    5.8549    2.0363    2.8492 H   0  0  0  0  0  0  0  0  0  0  0  0
    6.3488    1.6168    1.3859 H   0  0  0  0  0  0  0  0  0  0  0  0
    5.7727    3.0872    1.6451 H   0  0  0  0  0  0  0  0  0  0  0  0
    8.8314    4.7913    6.9935 C   0  0  0  0  0  0  0  0  0  0  0  0
    9.1930    3.8652    7.1015 H   0  0  0  0  0  0  0  0  0  0  0  0
    9.9994    5.7675    7.1358 C   0  0  0  0  0  0  0  0  0  0  0  0
   10.6739    5.5716    6.4523 H   0  0  0  0  0  0  0  0  0  0  0  0
   10.3986    5.6718    8.0256 H   0  0  0  0  0  0  0  0  0  0  0  0
    9.6744    6.6848    7.0205 H   0  0  0  0  0  0  0  0  0  0  0  0
    7.8059    5.0251    8.1062 C   0  0  0  0  0  0  0  0  0  0  0  0
    7.4974    5.9546    8.0758 H   0  0  0  0  0  0  0  0  0  0  0  0
    8.2219    4.8472    8.9758 H   0  0  0  0  0  0  0  0  0  0  0  0
    7.0435    4.4230    7.9795 H   0  0  0  0  0  0  0  0  0  0  0  0
    9.6431   -0.9948    4.8299 C   0  0  0  0  0  0  0  0  0  0  0  0
    8.6406   -1.7361    4.1723 C   0  0  0  0  0  0  0  0  0  0  0  0
    8.9425   -3.0409    3.7905 C   0  0  0  0  0  0  0  0  0  0  0  0
    8.2728   -3.5735    3.3775 H   0  0  0  0  0  0  0  0  0  0  0  0
   10.1937   -3.5714    4.0012 C   0  0  0  0  0  0  0  0  0  0  0  0
   10.3806   -4.4620    3.7289 H   0  0  0  0  0  0  0  0  0  0  0  0
   11.1792   -2.8164    4.6068 C   0  0  0  0  0  0  0  0  0  0  0  0
   12.0449   -3.1889    4.7271 H   0  0  0  0  0  0  0  0  0  0  0  0
   10.9241   -1.5119    5.0462 C   0  0  0  0  0  0  0  0  0  0  0  0
    7.2647   -1.1594    3.8516 C   0  0  0  0  0  0  0  0  0  0  0  0
    7.3227   -0.1656    3.9476 H   0  0  0  0  0  0  0  0  0  0  0  0
    6.8318   -1.4628    2.4134 C   0  0  0  0  0  0  0  0  0  0  0  0
    7.5063   -1.1204    1.7903 H   0  0  0  0  0  0  0  0  0  0  0  0
    5.9712   -1.0301    2.2332 H   0  0  0  0  0  0  0  0  0  0  0  0
    6.7412   -2.4315    2.2970 H   0  0  0  0  0  0  0  0  0  0  0  0
    6.1823   -1.6598    4.8247 C   0  0  0  0  0  0  0  0  0  0  0  0
    5.3263   -1.2348    4.6074 H   0  0  0  0  0  0  0  0  0  0  0  0
    6.4372   -1.4300    5.7427 H   0  0  0  0  0  0  0  0  0  0  0  0
    6.0944   -2.6322    4.7435 H   0  0  0  0  0  0  0  0  0  0  0  0
   11.9838   -0.7250    5.8055 C   0  0  0  0  0  0  0  0  0  0  0  0
   11.7933    0.2467    5.6658 H   0  0  0  0  0  0  0  0  0  0  0  0
   13.4101   -0.9835    5.3331 C   0  0  0  0  0  0  0  0  0  0  0  0
   13.6727   -1.8970    5.5717 H   0  0  0  0  0  0  0  0  0  0  0  0
   14.0174   -0.3461    5.7634 H   0  0  0  0  0  0  0  0  0  0  0  0
   13.4570   -0.8738    4.3604 H   0  0  0  0  0  0  0  0  0  0  0  0
   11.8496   -1.0076    7.2997 C   0  0  0  0  0  0  0  0  0  0  0  0
   10.9512   -0.7572    7.6001 H   0  0  0  0  0  0  0  0  0  0  0  0
   12.5163   -0.4841    7.7921 H   0  0  0  0  0  0  0  0  0  0  0  0
   11.9960   -1.9620    7.4661 H   0  0  0  0  0  0  0  0  0  0  0  0
   12.2231    2.2963    0.5826 C   0  0  0  0  0  0  0  0  0  0  0  0
   12.0785    2.3868   -1.6460 C   0  0  0  0  0  0  0  0  0  0  0  0
   11.6882    1.1527   -1.2641 C   0  0  0  0  0  0  0  0  0  0  0  0
   12.1560    2.9388   -3.0346 C   0  0  0  0  0  0  0  0  0  0  0  0
   11.8432    2.2648   -3.6726 H   0  0  0  0  0  0  0  0  0  0  0  0
   13.0850    3.1769   -3.2398 H   0  0  0  0  0  0  0  0  0  0  0  0
   11.5928    3.7382   -3.1004 H   0  0  0  0  0  0  0  0  0  0  0  0
   11.2830    0.0016   -2.1289 C   0  0  0  0  0  0  0  0  0  0  0  0
   11.4427    0.2274   -3.0692 H   0  0  0  0  0  0  0  0  0  0  0  0
   10.3313   -0.1884   -1.9955 H   0  0  0  0  0  0  0  0  0  0  0  0
   11.8109   -0.7887   -1.8890 H   0  0  0  0  0  0  0  0  0  0  0  0
   12.8715    4.4942   -0.3506 C   0  0  0  0  0  0  0  0  0  0  0  0
   13.0104    4.6588    0.6260 H   0  0  0  0  0  0  0  0  0  0  0  0
   11.7926    5.4592   -0.8050 C   0  0  0  0  0  0  0  0  0  0  0  0
   11.6768    5.3863   -1.7755 H   0  0  0  0  0  0  0  0  0  0  0  0
   12.0555    6.3749   -0.5753 H   0  0  0  0  0  0  0  0  0  0  0  0
   10.9486    5.2397   -0.3580 H   0  0  0  0  0  0  0  0  0  0  0  0
   14.2187    4.7061   -1.0245 C   0  0  0  0  0  0  0  0  0  0  0  0
   14.8639    4.0559   -0.6765 H   0  0  0  0  0  0  0  0  0  0  0  0
   14.5375    5.6141   -0.8389 H   0  0  0  0  0  0  0  0  0  0  0  0
   14.1225    4.5852   -1.9922 H   0  0  0  0  0  0  0  0  0  0  0  0
   11.5579   -0.0441    1.0490 C   0  0  0  0  0  0  0  0  0  0  0  0
   11.5293    0.3355    1.9738 H   0  0  0  0  0  0  0  0  0  0  0  0
   10.2271   -0.7280    0.8247 C   0  0  0  0  0  0  0  0  0  0  0  0
    9.5200   -0.0523    0.7624 H   0  0  0  0  0  0  0  0  0  0  0  0
   10.0394   -1.3298    1.5744 H   0  0  0  0  0  0  0  0  0  0  0  0
   10.2616   -1.2429   -0.0081 H   0  0  0  0  0  0  0  0  0  0  0  0
   12.7367   -0.9885    1.0099 C   0  0  0  0  0  0  0  0  0  0  0  0
   12.8161   -1.3748    0.1128 H   0  0  0  0  0  0  0  0  0  0  0  0
   12.6021   -1.7060    1.6638 H   0  0  0  0  0  0  0  0  0  0  0  0
   13.5562   -0.4974    1.2280 H   0  0  0  0  0  0  0  0  0  0  0  0
  1  2  1  0  0  0  0
  2  3  1  0  0  0  0
  3  7  1  0  0  0  0
  4  1  1  0  0  0  0
  5  4  1  0  0  0  0
  6  4  1  0  0  0  0
  7  8  1  0  0  0  0
  8 77  1  0  0  0  0
  9  7  1  0  0  0  0
 10139  1  0  0  0  0
 11139  1  0  0  0  0
 12  1  1  0  0  0  0
 13 12  2  0  0  0  0
 14  2  1  0  0  0  0
 15  5  1  0  0  0  0
 16 15  1  0  0  0  0
 17  6  1  0  0  0  0
 18 17  1  0  0  0  0
 19  5  1  0  0  0  0
 20 19  4  0  0  0  0
 21 20  4  0  0  0  0
 22 21  1  0  0  0  0
 23 21  4  0  0  0  0
 24 23  1  0  0  0  0
 25 23  4  0  0  0  0
 26 25  1  0  0  0  0
 27 19  4  0  0  0  0
 28 20  1  0  0  0  0
 29 28  1  0  0  0  0
 30 28  1  0  0  0  0
 31 30  1  0  0  0  0
 32 30  1  0  0  0  0
 33 30  1  0  0  0  0
 34 28  1  0  0  0  0
 35 34  1  0  0  0  0
 36 34  1  0  0  0  0
 37 34  1  0  0  0  0
 38 27  1  0  0  0  0
 39 38  1  0  0  0  0
 40 38  1  0  0  0  0
 41 40  1  0  0  0  0
 42 40  1  0  0  0  0
 43 40  1  0  0  0  0
 44 38  1  0  0  0  0
 45 44  1  0  0  0  0
 46 44  1  0  0  0  0
 47 44  1  0  0  0  0
 48  6  1  0  0  0  0
 49 48  4  0  0  0  0
 50 49  4  0  0  0  0
 51 50  1  0  0  0  0
 52 50  4  0  0  0  0
 53 52  1  0  0  0  0
 54 52  4  0  0  0  0
 55 54  1  0  0  0  0
 56 48  4  0  0  0  0
 57 49  1  0  0  0  0
 58 57  1  0  0  0  0
 59 57  1  0  0  0  0
 60 59  1  0  0  0  0
 61 59  1  0  0  0  0
 62 59  1  0  0  0  0
 63 57  1  0  0  0  0
 64 63  1  0  0  0  0
 65 63  1  0  0  0  0
 66 63  1  0  0  0  0
 67 56  1  0  0  0  0
 68 67  1  0  0  0  0
 69 67  1  0  0  0  0
 70 69  1  0  0  0  0
 71 69  1  0  0  0  0
 72 69  1  0  0  0  0
 73 67  1  0  0  0  0
 74 73  1  0  0  0  0
 75 73  1  0  0  0  0
 76 73  1  0  0  0  0
 77 78  1  0  0  0  0
 79  9  1  0  0  0  0
 80 79  1  0  0  0  0
 81  8  1  0  0  0  0
 82 81  4  0  0  0  0
 83 82  4  0  0  0  0
 84 83  1  0  0  0  0
 85 83  4  0  0  0  0
 86 85  1  0  0  0  0
 87 85  4  0  0  0  0
 88 87  1  0  0  0  0
 89 81  4  0  0  0  0
 90 82  1  0  0  0  0
 91 90  1  0  0  0  0
 92 90  1  0  0  0  0
 93 92  1  0  0  0  0
 94 92  1  0  0  0  0
 95 92  1  0  0  0  0
 96 90  1  0  0  0  0
 97 96  1  0  0  0  0
 98 96  1  0  0  0  0
 99 96  1  0  0  0  0
100 89  1  0  0  0  0
101100  1  0  0  0  0
102100  1  0  0  0  0
103102  1  0  0  0  0
104102  1  0  0  0  0
105102  1  0  0  0  0
106100  1  0  0  0  0
107106  1  0  0  0  0
108106  1  0  0  0  0
109106  1  0  0  0  0
110  9  1  0  0  0  0
111110  4  0  0  0  0
112111  4  0  0  0  0
113112  1  0  0  0  0
114112  4  0  0  0  0
115114  1  0  0  0  0
116114  4  0  0  0  0
117116  1  0  0  0  0
118110  4  0  0  0  0
119111  1  0  0  0  0
120119  1  0  0  0  0
121119  1  0  0  0  0
122121  1  0  0  0  0
123121  1  0  0  0  0
124121  1  0  0  0  0
125119  1  0  0  0  0
126125  1  0  0  0  0
127125  1  0  0  0  0
128125  1  0  0  0  0
129118  1  0  0  0  0
130129  1  0  0  0  0
131129  1  0  0  0  0
132131  1  0  0  0  0
133131  1  0  0  0  0
134131  1  0  0  0  0
135129  1  0  0  0  0
136135  1  0  0  0  0
137135  1  0  0  0  0
138135  1  0  0  0  0
139 14  2  0  0  0  0
140 10  1  0  0  0  0
141 11  1  0  0  0  0
142140  1  0  0  0  0
143142  1  0  0  0  0
144142  1  0  0  0  0
145142  1  0  0  0  0
146141  1  0  0  0  0
147146  1  0  0  0  0
148146  1  0  0  0  0
149146  1  0  0  0  0
150 10  1  0  0  0  0
151150  1  0  0  0  0
152150  1  0  0  0  0
153152  1  0  0  0  0
154152  1  0  0  0  0
155152  1  0  0  0  0
156150  1  0  0  0  0
157156  1  0  0  0  0
158156  1  0  0  0  0
159156  1  0  0  0  0
160 11  1  0  0  0  0
161160  1  0  0  0  0
162160  1  0  0  0  0
163162  1  0  0  0  0
164162  1  0  0  0  0
165162  1  0  0  0  0
166160  1  0  0  0  0
167166  1  0  0  0  0
168166  1  0  0  0  0
169166  1  0  0  0  0
 12 14  1  0  0  0  0
 15 17  2  0  0  0  0
 25 27  4  0  0  0  0
 54 56  4  0  0  0  0
 77 79  2  0  0  0  0
 87 89  4  0  0  0  0
116118  4  0  0  0  0
140141  2  0  0  0  0
M  END
$$$$
DOZGEF

From CSD data. Using bond type 'Any'. No disordered atoms. Largest molecule.
 85 92  0  0  0  0  0  0  0  0999 V2000
    2.4186    4.0615    6.8813 P   0  0  0  0  0  0  0  0  0  0  0  0
    6.6222    6.5625    8.9849 P   0  0  0  0  0  0  0  0  0  0  0  0
    1.0879    4.7441    6.3789 O   0  0  0  0  0  0  0  0  0  0  0  0
    7.1035    8.0643    8.6133 O   0  0  0  0  0  0  0  0  0  0  0  0
    3.2062    5.3232    7.6439 N   0  0  0  0  0  0  0  0  0  0  0  0
    5.4226    6.2975    7.8907 N   0  0  0  0  0  0  0  0  0  0  0  0
    4.5900    5.0939    8.0624 C   0  0  0  0  0  0  0  0  0  0  0  0
    4.6095    4.8372    8.9888 H   0  0  0  0  0  0  0  0  0  0  0  0
    4.9716    4.3921    7.5295 H   0  0  0  0  0  0  0  0  0  0  0  0
    2.4232    6.1862    8.5572 C   0  0  0  0  0  0  0  0  0  0  0  0
    2.9651    7.0174    8.6943 H   0  0  0  0  0  0  0  0  0  0  0  0
    2.1046    5.6298    9.9725 C   0  0  0  0  0  0  0  0  0  0  0  0
    1.7831    4.7282    9.8926 H   0  0  0  0  0  0  0  0  0  0  0  0
    2.9043    5.6366   10.5031 H   0  0  0  0  0  0  0  0  0  0  0  0
    1.0437    6.6200   10.4602 C   0  0  0  0  0  0  0  0  0  0  0  0
    0.4449    6.1590   11.0527 H   0  0  0  0  0  0  0  0  0  0  0  0
    1.4670    7.3421   10.9287 H   0  0  0  0  0  0  0  0  0  0  0  0
    0.2847    7.1332    9.2357 C   0  0  0  0  0  0  0  0  0  0  0  0
   -0.6107    6.7880    9.2345 H   0  0  0  0  0  0  0  0  0  0  0  0
    0.2567    8.0938    9.2547 H   0  0  0  0  0  0  0  0  0  0  0  0
    1.0556    6.6449    7.9909 C   0  0  0  0  0  0  0  0  0  0  0  0
    1.1228    7.6805    6.8689 C   0  0  0  0  0  0  0  0  0  0  0  0
    1.3220    8.5412    7.2481 H   0  0  0  0  0  0  0  0  0  0  0  0
    1.8184    7.4330    6.2561 H   0  0  0  0  0  0  0  0  0  0  0  0
   -0.2769    7.6283    6.2370 C   0  0  0  0  0  0  0  0  0  0  0  0
   -0.8503    8.2687    6.6662 H   0  0  0  0  0  0  0  0  0  0  0  0
   -0.2154    7.8304    5.3010 H   0  0  0  0  0  0  0  0  0  0  0  0
   -0.8039    6.1930    6.4623 C   0  0  0  0  0  0  0  0  0  0  0  0
   -1.6597    6.2294    6.8951 H   0  0  0  0  0  0  0  0  0  0  0  0
   -0.8935    5.7547    5.6122 H   0  0  0  0  0  0  0  0  0  0  0  0
    0.2554    5.5026    7.3375 C   0  0  0  0  0  0  0  0  0  0  0  0
   -0.0926    4.9303    8.0243 H   0  0  0  0  0  0  0  0  0  0  0  0
    5.6378    6.6268    6.4516 C   0  0  0  0  0  0  0  0  0  0  0  0
    4.7552    6.6245    6.0736 H   0  0  0  0  0  0  0  0  0  0  0  0
    6.5164    5.6934    5.6516 C   0  0  0  0  0  0  0  0  0  0  0  0
    7.1466    5.2755    6.2441 H   0  0  0  0  0  0  0  0  0  0  0  0
    5.9768    5.0189    5.2331 H   0  0  0  0  0  0  0  0  0  0  0  0
    7.2388    6.5677    4.6238 C   0  0  0  0  0  0  0  0  0  0  0  0
    8.1893    6.5110    4.7526 H   0  0  0  0  0  0  0  0  0  0  0  0
    7.0172    6.2589    3.7415 H   0  0  0  0  0  0  0  0  0  0  0  0
    6.7723    8.0053    4.8324 C   0  0  0  0  0  0  0  0  0  0  0  0
    7.4953    8.6139    4.6619 H   0  0  0  0  0  0  0  0  0  0  0  0
    6.0508    8.1870    4.2267 H   0  0  0  0  0  0  0  0  0  0  0  0
    6.2934    8.0621    6.2763 C   0  0  0  0  0  0  0  0  0  0  0  0
    5.3177    9.2021    6.5553 C   0  0  0  0  0  0  0  0  0  0  0  0
    4.8404    9.4178    5.7517 H   0  0  0  0  0  0  0  0  0  0  0  0
    4.6963    8.9182    7.2302 H   0  0  0  0  0  0  0  0  0  0  0  0
    6.2450   10.3807    7.0573 C   0  0  0  0  0  0  0  0  0  0  0  0
    6.1990   11.1029    6.4266 H   0  0  0  0  0  0  0  0  0  0  0  0
    5.9423   10.6851    7.9158 H   0  0  0  0  0  0  0  0  0  0  0  0
    7.6205    9.8516    7.1575 C   0  0  0  0  0  0  0  0  0  0  0  0
    8.1186   10.1196    6.3825 H   0  0  0  0  0  0  0  0  0  0  0  0
    8.0473   10.1900    7.9468 H   0  0  0  0  0  0  0  0  0  0  0  0
    7.4548    8.3073    7.2159 C   0  0  0  0  0  0  0  0  0  0  0  0
    8.2020    7.7714    6.9369 H   0  0  0  0  0  0  0  0  0  0  0  0
    3.2838    3.8289    5.3010 C   0  0  0  0  0  0  0  0  0  0  0  0
    4.1046    2.7593    5.1126 C   0  0  0  0  0  0  0  0  0  0  0  0
    4.1753    2.0893    5.7970 H   0  0  0  0  0  0  0  0  0  0  0  0
    4.7929    2.5799    3.8846 C   0  0  0  0  0  0  0  0  0  0  0  0
    5.3747    1.8395    3.7534 H   0  0  0  0  0  0  0  0  0  0  0  0
    4.5996    3.4951    2.9021 C   0  0  0  0  0  0  0  0  0  0  0  0
    5.0235    3.4156    2.0448 H   0  0  0  0  0  0  0  0  0  0  0  0
    3.7789    4.5829    3.0690 C   0  0  0  0  0  0  0  0  0  0  0  0
    3.6476    5.2233    2.3644 H   0  0  0  0  0  0  0  0  0  0  0  0
    3.1032    4.7805    4.2816 C   0  0  0  0  0  0  0  0  0  0  0  0
    2.5306    5.5390    4.4151 H   0  0  0  0  0  0  0  0  0  0  0  0
    5.7776    6.8403   10.5365 C   0  0  0  0  0  0  0  0  0  0  0  0
    6.0787    6.0431   11.6417 C   0  0  0  0  0  0  0  0  0  0  0  0
    6.7295    5.3414   11.5642 H   0  0  0  0  0  0  0  0  0  0  0  0
    5.4443    6.2225   12.8662 C   0  0  0  0  0  0  0  0  0  0  0  0
    5.6729    5.6457   13.5983 H   0  0  0  0  0  0  0  0  0  0  0  0
    4.5133    7.2536   12.9879 C   0  0  0  0  0  0  0  0  0  0  0  0
    4.0512    7.3694   13.8213 H   0  0  0  0  0  0  0  0  0  0  0  0
    4.2448    8.1007   11.9398 C   0  0  0  0  0  0  0  0  0  0  0  0
    3.6523    8.8455   12.0543 H   0  0  0  0  0  0  0  0  0  0  0  0
    4.8681    7.8758   10.6867 C   0  0  0  0  0  0  0  0  0  0  0  0
    4.6398    8.4209    9.9308 H   0  0  0  0  0  0  0  0  0  0  0  0
    2.2411    2.4595    7.8824 B   0  0  0  0  0  0  0  0  0  0  0  0
    3.1291    2.1325    8.1363 H   0  0  0  0  0  0  0  0  0  0  0  0
    1.7863    1.7827    7.3387 H   0  0  0  0  0  0  0  0  0  0  0  0
    1.7153    2.6366    8.6908 H   0  0  0  0  0  0  0  0  0  0  0  0
    7.9784    5.2710    9.1152 B   0  0  0  0  0  0  0  0  0  0  0  0
    7.5828    4.4057    9.3465 H   0  0  0  0  0  0  0  0  0  0  0  0
    8.6151    5.5344    9.8115 H   0  0  0  0  0  0  0  0  0  0  0  0
    8.4444    5.1983    8.2568 H   0  0  0  0  0  0  0  0  0  0  0  0
  1  3  1  0  0  0  0
  2  4  1  0  0  0  0
  3 31  1  0  0  0  0
  4 54  1  0  0  0  0
  5  1  1  0  0  0  0
  6  2  1  0  0  0  0
  7  5  1  0  0  0  0
  8  7  1  0  0  0  0
  9  7  1  0  0  0  0
 10  5  1  0  0  0  0
 11 10  1  0  0  0  0
 12 10  1  0  0  0  0
 13 12  1  0  0  0  0
 14 12  1  0  0  0  0
 15 12  1  0  0  0  0
 16 15  1  0  0  0  0
 17 15  1  0  0  0  0
 18 15  1  0  0  0  0
 19 18  1  0  0  0  0
 20 18  1  0  0  0  0
 21 10  1  0  0  0  0
 22 21  1  0  0  0  0
 23 22  1  0  0  0  0
 24 22  1  0  0  0  0
 25 22  1  0  0  0  0
 26 25  1  0  0  0  0
 27 25  1  0  0  0  0
 28 25  1  0  0  0  0
 29 28  1  0  0  0  0
 30 28  1  0  0  0  0
 31 21  1  0  0  0  0
 32 31  1  0  0  0  0
 33  6  1  0  0  0  0
 34 33  1  0  0  0  0
 35 33  1  0  0  0  0
 36 35  1  0  0  0  0
 37 35  1  0  0  0  0
 38 35  1  0  0  0  0
 39 38  1  0  0  0  0
 40 38  1  0  0  0  0
 41 38  1  0  0  0  0
 42 41  1  0  0  0  0
 43 41  1  0  0  0  0
 44 33  1  0  0  0  0
 45 44  1  0  0  0  0
 46 45  1  0  0  0  0
 47 45  1  0  0  0  0
 48 45  1  0  0  0  0
 49 48  1  0  0  0  0
 50 48  1  0  0  0  0
 51 48  1  0  0  0  0
 52 51  1  0  0  0  0
 53 51  1  0  0  0  0
 54 44  1  0  0  0  0
 55 54  1  0  0  0  0
 56  1  1  0  0  0  0
 57 56  4  0  0  0  0
 58 57  1  0  0  0  0
 59 57  4  0  0  0  0
 60 59  1  0  0  0  0
 61 59  4  0  0  0  0
 62 61  1  0  0  0  0
 63 61  4  0  0  0  0
 64 63  1  0  0  0  0
 65 56  4  0  0  0  0
 66 65  1  0  0  0  0
 67  2  1  0  0  0  0
 68 67  4  0  0  0  0
 69 68  1  0  0  0  0
 70 68  4  0  0  0  0
 71 70  1  0  0  0  0
 72 70  4  0  0  0  0
 73 72  1  0  0  0  0
 74 72  4  0  0  0  0
 75 74  1  0  0  0  0
 76 67  4  0  0  0  0
 77 76  1  0  0  0  0
 78  1  1  0  0  0  0
 79 78  1  0  0  0  0
 80 78  1  0  0  0  0
 81 78  1  0  0  0  0
 82  2  1  0  0  0  0
 83 82  1  0  0  0  0
 84 82  1  0  0  0  0
 85 82  1  0  0  0  0
  6  7  1  0  0  0  0
 18 21  1  0  0  0  0
 28 31  1  0  0  0  0
 41 44  1  0  0  0  0
 51 54  1  0  0  0  0
 63 65  4  0  0  0  0
 74 76  4  0  0  0  0
M  END
$$$$
DUBROI

From CSD data. Using bond type 'Any'. No disordered atoms. Largest molecule.
 72 74  0  0  0  0  0  0  0  0999 V2000
    0.0457   26.9305    9.3665 P   0  0  0  0  0  0  0  0  0  0  0  0
   -4.1085   25.7423   10.2559 P   0  0  0  0  0  0  0  0  0  0  0  0
   -3.3277   22.6965   11.0857 O   0  0  0  0  0  0  0  0  0  0  0  0
   -1.5026   23.0760   13.3398 O   0  0  0  0  0  0  0  0  0  0  0  0
    0.8464   28.3731   12.1374 O   0  0  0  0  0  0  0  0  0  0  0  0
    0.1654   26.5861    6.6174 C   0  0  0  0  0  0  0  0  0  0  0  0
    0.8991   26.0156    6.8110 H   0  0  0  0  0  0  0  0  0  0  0  0
   -4.8062   24.1054    9.8313 C   0  0  0  0  0  0  0  0  0  0  0  0
   -5.7620   24.2191    9.6000 H   0  0  0  0  0  0  0  0  0  0  0  0
   -4.3429   23.7623    9.0263 H   0  0  0  0  0  0  0  0  0  0  0  0
   -4.7882   26.8679    9.0090 C   0  0  0  0  0  0  0  0  0  0  0  0
   -0.5063   27.2064    7.6548 C   0  0  0  0  0  0  0  0  0  0  0  0
    0.1909   26.1711   13.8014 O   0  0  0  0  0  0  0  0  0  0  0  0
   -4.9815   28.2042    9.3198 C   0  0  0  0  0  0  0  0  0  0  0  0
   -4.7400   28.5204   10.1819 H   0  0  0  0  0  0  0  0  0  0  0  0
   -1.5124   26.8479   10.3174 C   0  0  0  0  0  0  0  0  0  0  0  0
   -1.3087   26.8086   11.2855 H   0  0  0  0  0  0  0  0  0  0  0  0
   -2.0488   27.6632   10.1472 H   0  0  0  0  0  0  0  0  0  0  0  0
   -5.7217   27.2919    6.8263 C   0  0  0  0  0  0  0  0  0  0  0  0
   -5.9912   26.9780    5.9714 H   0  0  0  0  0  0  0  0  0  0  0  0
    0.9412   28.4650    9.7682 C   0  0  0  0  0  0  0  0  0  0  0  0
    1.5474   28.6872    9.0182 H   0  0  0  0  0  0  0  0  0  0  0  0
    0.2870   29.2031    9.8538 H   0  0  0  0  0  0  0  0  0  0  0  0
   -1.9912   28.2178    6.0539 C   0  0  0  0  0  0  0  0  0  0  0  0
   -2.7372   28.7719    5.8583 H   0  0  0  0  0  0  0  0  0  0  0  0
   -1.3016   27.5839    5.0196 C   0  0  0  0  0  0  0  0  0  0  0  0
   -1.5809   27.7017    4.1198 H   0  0  0  0  0  0  0  0  0  0  0  0
    1.5166   26.6315   13.6608 C   0  0  0  0  0  0  0  0  0  0  0  0
    1.9641   26.1593   12.9149 H   0  0  0  0  0  0  0  0  0  0  0  0
    2.0266   26.4596   14.4923 H   0  0  0  0  0  0  0  0  0  0  0  0
   -1.5856   28.0356    7.3654 C   0  0  0  0  0  0  0  0  0  0  0  0
   -2.0453   28.4768    8.0695 H   0  0  0  0  0  0  0  0  0  0  0  0
   -2.3195   25.6063    9.9119 C   0  0  0  0  0  0  0  0  0  0  0  0
   -1.9605   24.8197   10.3959 H   0  0  0  0  0  0  0  0  0  0  0  0
   -2.1926   25.4459    8.9428 H   0  0  0  0  0  0  0  0  0  0  0  0
   -3.1301   21.8111   12.1924 C   0  0  0  0  0  0  0  0  0  0  0  0
   -2.3898   21.1882   11.9825 H   0  0  0  0  0  0  0  0  0  0  0  0
   -3.9504   21.2729   12.3279 H   0  0  0  0  0  0  0  0  0  0  0  0
   -1.3681   24.4000   13.7769 C   0  0  0  0  0  0  0  0  0  0  0  0
   -1.6375   24.4758   14.7266 H   0  0  0  0  0  0  0  0  0  0  0  0
   -1.9435   24.9993   13.2379 H   0  0  0  0  0  0  0  0  0  0  0  0
   -4.6921   23.0786   10.9298 C   0  0  0  0  0  0  0  0  0  0  0  0
   -5.0323   23.4569   11.7787 H   0  0  0  0  0  0  0  0  0  0  0  0
   -5.2381   22.2841   10.7036 H   0  0  0  0  0  0  0  0  0  0  0  0
    1.7500   28.3844   11.0389 C   0  0  0  0  0  0  0  0  0  0  0  0
    2.2979   27.5606   11.0409 H   0  0  0  0  0  0  0  0  0  0  0  0
    2.3567   29.1646   11.1051 H   0  0  0  0  0  0  0  0  0  0  0  0
   -5.5184   29.0850    8.3986 C   0  0  0  0  0  0  0  0  0  0  0  0
   -5.6354   30.0012    8.6238 H   0  0  0  0  0  0  0  0  0  0  0  0
    1.4591   28.1095   13.3816 C   0  0  0  0  0  0  0  0  0  0  0  0
    0.9482   28.5589   14.1010 H   0  0  0  0  0  0  0  0  0  0  0  0
    2.3766   28.4793   13.3805 H   0  0  0  0  0  0  0  0  0  0  0  0
   -4.5346   26.3118   12.0283 B   0  0  0  0  0  0  0  0  0  0  0  0
   -5.5021   26.4545   12.1017 H   0  0  0  0  0  0  0  0  0  0  0  0
   -4.0644   27.1499   12.2240 H   0  0  0  0  0  0  0  0  0  0  0  0
   -4.2568   25.6229   12.6683 H   0  0  0  0  0  0  0  0  0  0  0  0
    1.1242   25.3684    9.5440 B   0  0  0  0  0  0  0  0  0  0  0  0
    1.4214   25.2816   10.4733 H   0  0  0  0  0  0  0  0  0  0  0  0
    1.9045   25.4407    8.9560 H   0  0  0  0  0  0  0  0  0  0  0  0
    0.5997   24.5784    9.2933 H   0  0  0  0  0  0  0  0  0  0  0  0
   -2.8100   22.5471   13.4539 C   0  0  0  0  0  0  0  0  0  0  0  0
   -3.4618   23.2798   13.5935 H   0  0  0  0  0  0  0  0  0  0  0  0
   -2.8615   21.9325   14.2273 H   0  0  0  0  0  0  0  0  0  0  0  0
    0.0759   24.7822   13.6139 C   0  0  0  0  0  0  0  0  0  0  0  0
    0.6305   24.3038   14.2803 H   0  0  0  0  0  0  0  0  0  0  0  0
    0.3925   24.5348   12.7090 H   0  0  0  0  0  0  0  0  0  0  0  0
   -5.8819   28.6246    7.1504 C   0  0  0  0  0  0  0  0  0  0  0  0
   -6.2442   29.2262    6.5104 H   0  0  0  0  0  0  0  0  0  0  0  0
   -0.2160   26.7850    5.3060 C   0  0  0  0  0  0  0  0  0  0  0  0
    0.2698   26.3723    4.6018 H   0  0  0  0  0  0  0  0  0  0  0  0
   -5.1690   26.4072    7.7454 C   0  0  0  0  0  0  0  0  0  0  0  0
   -5.0514   25.4921    7.5162 H   0  0  0  0  0  0  0  0  0  0  0  0
  1 12  1  0  0  0  0
  2  8  1  0  0  0  0
  3 36  1  0  0  0  0
  4 39  1  0  0  0  0
  5 45  1  0  0  0  0
  6  7  1  0  0  0  0
  8  9  1  0  0  0  0
 10  8  1  0  0  0  0
 11  2  1  0  0  0  0
 12  6  4  0  0  0  0
 13 28  1  0  0  0  0
 14 11  4  0  0  0  0
 15 14  1  0  0  0  0
 16  1  1  0  0  0  0
 17 16  1  0  0  0  0
 18 16  1  0  0  0  0
 19 20  1  0  0  0  0
 21  1  1  0  0  0  0
 22 21  1  0  0  0  0
 23 21  1  0  0  0  0
 24 25  1  0  0  0  0
 26 24  4  0  0  0  0
 27 26  1  0  0  0  0
 28 29  1  0  0  0  0
 30 28  1  0  0  0  0
 31 12  4  0  0  0  0
 32 31  1  0  0  0  0
 33  2  1  0  0  0  0
 34 33  1  0  0  0  0
 35 33  1  0  0  0  0
 36 37  1  0  0  0  0
 38 36  1  0  0  0  0
 39 40  1  0  0  0  0
 41 39  1  0  0  0  0
 42  3  1  0  0  0  0
 43 42  1  0  0  0  0
 44 42  1  0  0  0  0
 45 21  1  0  0  0  0
 46 45  1  0  0  0  0
 47 45  1  0  0  0  0
 48 14  4  0  0  0  0
 49 48  1  0  0  0  0
 50  5  1  0  0  0  0
 51 50  1  0  0  0  0
 52 50  1  0  0  0  0
 53  2  1  0  0  0  0
 54 53  1  0  0  0  0
 55 53  1  0  0  0  0
 56 53  1  0  0  0  0
 57  1  1  0  0  0  0
 58 57  1  0  0  0  0
 59 57  1  0  0  0  0
 60 57  1  0  0  0  0
 61  4  1  0  0  0  0
 62 61  1  0  0  0  0
 63 61  1  0  0  0  0
 64 13  1  0  0  0  0
 65 64  1  0  0  0  0
 66 64  1  0  0  0  0
 67 19  4  0  0  0  0
 68 67  1  0  0  0  0
 69  6  4  0  0  0  0
 70 69  1  0  0  0  0
 71 11  4  0  0  0  0
 72 71  1  0  0  0  0
  8 42  1  0  0  0  0
 16 33  1  0  0  0  0
 19 71  4  0  0  0  0
 24 31  4  0  0  0  0
 26 69  4  0  0  0  0
 28 50  1  0  0  0  0
 36 61  1  0  0  0  0
 39 64  1  0  0  0  0
 48 67  4  0  0  0  0
M  END
$$$$
DUBROI01

From CSD data. Using bond type 'Any'. Matching problem. Disorder unknown. Sizes unknown.
  0  0  0  0  0  0  0  0  0  0999 V2000
M  END
$$$$
DUQHAB

From CSD data. Using bond type 'Any'. No disordered atoms. Largest molecule.
164191  0  0  0  0  0  0  0  0999 V2000
    3.1965   13.0012    4.8303 Ag  0  0  0  0  0  0  0  0  0  0  0  0
    7.0834    7.9150    4.3460 Ag  0  0  0  0  0  0  0  0  0  0  0  0
    2.3074   12.9718    7.1271 P   0  0  0  0  0  0  0  0  0  0  0  0
    1.9470   13.8156    2.8110 P   0  0  0  0  0  0  0  0  0  0  0  0
    9.2899    6.7198    4.3677 P   0  0  0  0  0  0  0  0  0  0  0  0
    4.9839    6.5394    4.1559 P   0  0  0  0  0  0  0  0  0  0  0  0
    4.8273   14.8685    4.5878 O   0  0  0  0  0  0  0  0  0  0  0  0
    6.5514   15.2073    3.2073 O   0  0  0  0  0  0  0  0  0  0  0  0
    3.1662   14.1524    8.2554 C   0  0  0  0  0  0  0  0  0  0  0  0
    2.5873   14.6895    9.4184 C   0  0  0  0  0  0  0  0  0  0  0  0
    1.7096   14.4704    9.6368 H   0  0  0  0  0  0  0  0  0  0  0  0
    3.3126   15.5491   10.2518 C   0  0  0  0  0  0  0  0  0  0  0  0
    2.9254   15.8927   11.0238 H   0  0  0  0  0  0  0  0  0  0  0  0
    4.6065   15.8805    9.9169 C   0  0  0  0  0  0  0  0  0  0  0  0
    5.0820   16.4555   10.4712 H   0  0  0  0  0  0  0  0  0  0  0  0
    5.2201   15.3834    8.7819 C   0  0  0  0  0  0  0  0  0  0  0  0
    6.0970   15.6181    8.5775 H   0  0  0  0  0  0  0  0  0  0  0  0
    4.4945   14.5164    7.9399 C   0  0  0  0  0  0  0  0  0  0  0  0
    4.8932   14.1807    7.1698 H   0  0  0  0  0  0  0  0  0  0  0  0
    0.5448   13.5369    7.0927 C   0  0  0  0  0  0  0  0  0  0  0  0
    0.2545   14.8848    6.8963 C   0  0  0  0  0  0  0  0  0  0  0  0
    0.9399   15.5132    6.9121 H   0  0  0  0  0  0  0  0  0  0  0  0
   -1.0804   15.3020    6.6721 C   0  0  0  0  0  0  0  0  0  0  0  0
   -1.2778   16.2003    6.5385 H   0  0  0  0  0  0  0  0  0  0  0  0
   -2.0897   14.3477    6.6571 C   0  0  0  0  0  0  0  0  0  0  0  0
   -2.9689   14.6174    6.5197 H   0  0  0  0  0  0  0  0  0  0  0  0
   -1.8246   13.0545    6.8368 C   0  0  0  0  0  0  0  0  0  0  0  0
   -2.5113   12.4280    6.8096 H   0  0  0  0  0  0  0  0  0  0  0  0
   -0.5198   12.6476    7.0613 C   0  0  0  0  0  0  0  0  0  0  0  0
   -0.3514   11.7441    7.2000 H   0  0  0  0  0  0  0  0  0  0  0  0
    2.2569   11.3574    8.0114 C   0  0  0  0  0  0  0  0  0  0  0  0
    2.7802   10.2329    7.4153 C   0  0  0  0  0  0  0  0  0  0  0  0
    3.1869   10.2997    6.5818 H   0  0  0  0  0  0  0  0  0  0  0  0
    2.7042    8.9767    8.0567 C   0  0  0  0  0  0  0  0  0  0  0  0
    3.0545    8.2257    7.6368 H   0  0  0  0  0  0  0  0  0  0  0  0
    2.1272    8.8465    9.2803 C   0  0  0  0  0  0  0  0  0  0  0  0
    2.0893    8.0182    9.7013 H   0  0  0  0  0  0  0  0  0  0  0  0
    1.6099    9.9429    9.8716 C   0  0  0  0  0  0  0  0  0  0  0  0
    1.2217    9.8599   10.7141 H   0  0  0  0  0  0  0  0  0  0  0  0
    1.6399   11.2035    9.2597 C   0  0  0  0  0  0  0  0  0  0  0  0
    1.2514   11.9354    9.6811 H   0  0  0  0  0  0  0  0  0  0  0  0
    0.5557   12.7083    2.3309 C   0  0  0  0  0  0  0  0  0  0  0  0
   -0.4506   12.4923    3.2807 C   0  0  0  0  0  0  0  0  0  0  0  0
   -0.4314   12.9537    4.0878 H   0  0  0  0  0  0  0  0  0  0  0  0
   -1.4824   11.5897    3.0236 C   0  0  0  0  0  0  0  0  0  0  0  0
   -2.1554   11.4699    3.6551 H   0  0  0  0  0  0  0  0  0  0  0  0
   -1.5176   10.8899    1.8710 C   0  0  0  0  0  0  0  0  0  0  0  0
   -2.2097   10.2888    1.7139 H   0  0  0  0  0  0  0  0  0  0  0  0
   -0.5222   11.0659    0.9205 C   0  0  0  0  0  0  0  0  0  0  0  0
   -0.5412   10.5629    0.1380 H   0  0  0  0  0  0  0  0  0  0  0  0
    0.5283   12.0070    1.1275 C   0  0  0  0  0  0  0  0  0  0  0  0
    1.1772   12.1497    0.4771 H   0  0  0  0  0  0  0  0  0  0  0  0
    1.1120   15.4263    3.1190 C   0  0  0  0  0  0  0  0  0  0  0  0
   -0.1087   15.7859    2.5551 C   0  0  0  0  0  0  0  0  0  0  0  0
   -0.5364   15.1829    1.9915 H   0  0  0  0  0  0  0  0  0  0  0  0
   -0.7079   17.0080    2.8028 C   0  0  0  0  0  0  0  0  0  0  0  0
   -1.5154   17.2250    2.3953 H   0  0  0  0  0  0  0  0  0  0  0  0
   -0.0993   17.8972    3.6523 C   0  0  0  0  0  0  0  0  0  0  0  0
   -0.5089   18.7095    3.8419 H   0  0  0  0  0  0  0  0  0  0  0  0
    1.1408   17.5836    4.2360 C   0  0  0  0  0  0  0  0  0  0  0  0
    1.5656   18.1981    4.7894 H   0  0  0  0  0  0  0  0  0  0  0  0
    1.7292   16.3466    3.9767 C   0  0  0  0  0  0  0  0  0  0  0  0
    2.5396   16.1306    4.3779 H   0  0  0  0  0  0  0  0  0  0  0  0
    2.9394   14.1139    1.2914 C   0  0  0  0  0  0  0  0  0  0  0  0
    2.5849   15.0446    0.3102 C   0  0  0  0  0  0  0  0  0  0  0  0
    1.7920   15.5236    0.3960 H   0  0  0  0  0  0  0  0  0  0  0  0
    3.4062   15.2636   -0.7944 C   0  0  0  0  0  0  0  0  0  0  0  0
    3.1511   15.8750   -1.4480 H   0  0  0  0  0  0  0  0  0  0  0  0
    4.5765   14.5889   -0.9187 C   0  0  0  0  0  0  0  0  0  0  0  0
    5.1302   14.7587   -1.6461 H   0  0  0  0  0  0  0  0  0  0  0  0
    4.9551   13.6493    0.0228 C   0  0  0  0  0  0  0  0  0  0  0  0
    5.7451   13.1693   -0.0824 H   0  0  0  0  0  0  0  0  0  0  0  0
    4.1384   13.4303    1.1346 C   0  0  0  0  0  0  0  0  0  0  0  0
    4.4017   12.8163    1.7813 H   0  0  0  0  0  0  0  0  0  0  0  0
   10.5258    7.0754    5.6879 C   0  0  0  0  0  0  0  0  0  0  0  0
   10.7558    8.4071    6.0472 C   0  0  0  0  0  0  0  0  0  0  0  0
   10.3006    9.0833    5.5989 H   0  0  0  0  0  0  0  0  0  0  0  0
   11.6570    8.7504    7.0650 C   0  0  0  0  0  0  0  0  0  0  0  0
   11.8014    9.6436    7.2810 H   0  0  0  0  0  0  0  0  0  0  0  0
   12.3257    7.7561    7.7423 C   0  0  0  0  0  0  0  0  0  0  0  0
   12.9187    7.9809    8.4230 H   0  0  0  0  0  0  0  0  0  0  0  0
   12.1209    6.4037    7.4205 C   0  0  0  0  0  0  0  0  0  0  0  0
   12.5823    5.7373    7.8763 H   0  0  0  0  0  0  0  0  0  0  0  0
   11.2012    6.0604    6.3877 C   0  0  0  0  0  0  0  0  0  0  0  0
   11.0494    5.1675    6.1767 H   0  0  0  0  0  0  0  0  0  0  0  0
   10.2750    6.8801    2.8256 C   0  0  0  0  0  0  0  0  0  0  0  0
    9.6141    7.2929    1.6353 C   0  0  0  0  0  0  0  0  0  0  0  0
    8.7289    7.5740    1.6730 H   0  0  0  0  0  0  0  0  0  0  0  0
   10.2923    7.2782    0.3892 C   0  0  0  0  0  0  0  0  0  0  0  0
    9.8430    7.5081   -0.3913 H   0  0  0  0  0  0  0  0  0  0  0  0
   11.5858    6.9304    0.3480 C   0  0  0  0  0  0  0  0  0  0  0  0
   12.0217    6.8732   -0.4733 H   0  0  0  0  0  0  0  0  0  0  0  0
   12.2940    6.6523    1.5417 C   0  0  0  0  0  0  0  0  0  0  0  0
   13.2084    6.4873    1.5102 H   0  0  0  0  0  0  0  0  0  0  0  0
   11.6311    6.6227    2.7542 C   0  0  0  0  0  0  0  0  0  0  0  0
   12.1028    6.4283    3.5312 H   0  0  0  0  0  0  0  0  0  0  0  0
    4.9051    5.5026    2.6310 C   0  0  0  0  0  0  0  0  0  0  0  0
    3.7497    4.8028    2.2396 C   0  0  0  0  0  0  0  0  0  0  0  0
    2.9807    4.8652    2.7587 H   0  0  0  0  0  0  0  0  0  0  0  0
    3.7368    4.0201    1.0946 C   0  0  0  0  0  0  0  0  0  0  0  0
    2.9822    3.5184    0.8850 H   0  0  0  0  0  0  0  0  0  0  0  0
    4.8415    3.9860    0.2619 C   0  0  0  0  0  0  0  0  0  0  0  0
    4.8119    3.4943   -0.5264 H   0  0  0  0  0  0  0  0  0  0  0  0
    5.9728    4.6681    0.5950 C   0  0  0  0  0  0  0  0  0  0  0  0
    6.7162    4.6410    0.0368 H   0  0  0  0  0  0  0  0  0  0  0  0
    6.0080    5.4168    1.7906 C   0  0  0  0  0  0  0  0  0  0  0  0
    6.7902    5.8643    2.0224 H   0  0  0  0  0  0  0  0  0  0  0  0
    3.3660    7.4350    4.1339 C   0  0  0  0  0  0  0  0  0  0  0  0
    2.2097    6.9719    4.7599 C   0  0  0  0  0  0  0  0  0  0  0  0
    2.2322    6.1682    5.2258 H   0  0  0  0  0  0  0  0  0  0  0  0
    1.0251    7.6939    4.6963 C   0  0  0  0  0  0  0  0  0  0  0  0
    0.2652    7.3640    5.1203 H   0  0  0  0  0  0  0  0  0  0  0  0
    0.9582    8.8880    4.0190 C   0  0  0  0  0  0  0  0  0  0  0  0
    0.1598    9.3613    3.9708 H   0  0  0  0  0  0  0  0  0  0  0  0
    2.0631    9.3540    3.4315 C   0  0  0  0  0  0  0  0  0  0  0  0
    2.0259   10.1708    2.9892 H   0  0  0  0  0  0  0  0  0  0  0  0
    3.3024    8.6394    3.4629 C   0  0  0  0  0  0  0  0  0  0  0  0
    4.0544    8.9806    3.0362 H   0  0  0  0  0  0  0  0  0  0  0  0
    5.8929   14.4572    4.1481 C   0  0  0  0  0  0  0  0  0  0  0  0
    5.8609   16.4280    2.7018 C   0  0  0  0  0  0  0  0  0  0  0  0
    6.4167   16.8655    2.0537 H   0  0  0  0  0  0  0  0  0  0  0  0
    5.0281   16.1784    2.2938 H   0  0  0  0  0  0  0  0  0  0  0  0
    5.6909   17.0259    3.4340 H   0  0  0  0  0  0  0  0  0  0  0  0
    7.7180   13.0930    5.8541 B   0  0  0  0  0  0  0  0  0  0  0  0
    7.9914   13.8920    6.5587 H   0  0  0  0  0  0  0  0  0  0  0  0
    6.6485   13.1300    4.5388 B   0  0  0  0  0  0  0  0  0  0  0  0
    8.4288   12.6713    4.3932 B   0  0  0  0  0  0  0  0  0  0  0  0
    9.2990   13.2570    4.0608 H   0  0  0  0  0  0  0  0  0  0  0  0
    8.2367   11.4713    5.7560 B   0  0  0  0  0  0  0  0  0  0  0  0
    8.9619   11.1030    6.4963 H   0  0  0  0  0  0  0  0  0  0  0  0
    6.4464   11.9137    5.9592 B   0  0  0  0  0  0  0  0  0  0  0  0
    5.7879   11.9127    6.8399 H   0  0  0  0  0  0  0  0  0  0  0  0
    7.2022   12.0336    3.1766 B   0  0  0  0  0  0  0  0  0  0  0  0
    7.2137   12.3900    2.1365 H   0  0  0  0  0  0  0  0  0  0  0  0
    8.3162   10.8810    4.0444 B   0  0  0  0  0  0  0  0  0  0  0  0
    9.2061   10.3429    3.6855 H   0  0  0  0  0  0  0  0  0  0  0  0
    6.9259   10.3557    5.1599 B   0  0  0  0  0  0  0  0  0  0  0  0
    6.7264    9.3997    5.6648 H   0  0  0  0  0  0  0  0  0  0  0  0
    5.7924   11.5305    4.3165 B   0  0  0  0  0  0  0  0  0  0  0  0
    4.7026   11.5045    4.1625 H   0  0  0  0  0  0  0  0  0  0  0  0
    6.7796   10.3927    3.4629 B   0  0  0  0  0  0  0  0  0  0  0  0
    6.5021    9.5952    2.7570 H   0  0  0  0  0  0  0  0  0  0  0  0
    4.8581    5.9835    6.8817 C   0  0  0  0  0  0  0  0  0  0  0  0
    5.1836    6.8525    6.9608 H   0  0  0  0  0  0  0  0  0  0  0  0
    4.4788    5.2970    8.0417 C   0  0  0  0  0  0  0  0  0  0  0  0
    4.5514    5.7088    8.8741 H   0  0  0  0  0  0  0  0  0  0  0  0
    4.0028    4.0245    7.9220 C   0  0  0  0  0  0  0  0  0  0  0  0
    3.7193    3.5755    8.6871 H   0  0  0  0  0  0  0  0  0  0  0  0
    3.9125    3.3912    6.6983 C   0  0  0  0  0  0  0  0  0  0  0  0
    3.5930    2.5191    6.6446 H   0  0  0  0  0  0  0  0  0  0  0  0
    4.3077    4.0867    5.5195 C   0  0  0  0  0  0  0  0  0  0  0  0
    4.2574    3.6649    4.6911 H   0  0  0  0  0  0  0  0  0  0  0  0
    4.7872    5.4079    5.6022 C   0  0  0  0  0  0  0  0  0  0  0  0
    9.6066    3.9801    3.7159 C   0  0  0  0  0  0  0  0  0  0  0  0
   10.1378    4.2779    3.0118 H   0  0  0  0  0  0  0  0  0  0  0  0
    9.4167    2.6100    3.9105 C   0  0  0  0  0  0  0  0  0  0  0  0
    9.8283    2.0113    3.3302 H   0  0  0  0  0  0  0  0  0  0  0  0
    8.6493    2.1232    4.9246 C   0  0  0  0  0  0  0  0  0  0  0  0
    8.5378    1.2056    5.0297 H   0  0  0  0  0  0  0  0  0  0  0  0
    8.0387    3.0006    5.8002 C   0  0  0  0  0  0  0  0  0  0  0  0
    7.5193    2.6792    6.5014 H   0  0  0  0  0  0  0  0  0  0  0  0
    8.2044    4.4018    5.6131 C   0  0  0  0  0  0  0  0  0  0  0  0
    7.7778    4.9947    6.1887 H   0  0  0  0  0  0  0  0  0  0  0  0
    9.0056    4.9049    4.5694 C   0  0  0  0  0  0  0  0  0  0  0  0
  1  3  1  0  0  0  0
  2  5  1  0  0  0  0
  3  9  1  0  0  0  0
  4  1  1  0  0  0  0
  5 75  1  0  0  0  0
  6  2  1  0  0  0  0
  7  1  1  0  0  0  0
  8119  1  0  0  0  0
  9 10  4  0  0  0  0
 10 11  1  0  0  0  0
 12 10  4  0  0  0  0
 13 12  1  0  0  0  0
 14 12  4  0  0  0  0
 15 14  1  0  0  0  0
 16 14  4  0  0  0  0
 17 16  1  0  0  0  0
 18  9  4  0  0  0  0
 19 18  1  0  0  0  0
 20  3  1  0  0  0  0
 21 20  4  0  0  0  0
 22 21  1  0  0  0  0
 23 21  4  0  0  0  0
 24 23  1  0  0  0  0
 25 23  4  0  0  0  0
 26 25  1  0  0  0  0
 27 25  4  0  0  0  0
 28 27  1  0  0  0  0
 29 20  4  0  0  0  0
 30 29  1  0  0  0  0
 31  3  1  0  0  0  0
 32 31  4  0  0  0  0
 33 32  1  0  0  0  0
 34 32  4  0  0  0  0
 35 34  1  0  0  0  0
 36 34  4  0  0  0  0
 37 36  1  0  0  0  0
 38 36  4  0  0  0  0
 39 38  1  0  0  0  0
 40 31  4  0  0  0  0
 41 40  1  0  0  0  0
 42  4  1  0  0  0  0
 43 42  4  0  0  0  0
 44 43  1  0  0  0  0
 45 43  4  0  0  0  0
 46 45  1  0  0  0  0
 47 45  4  0  0  0  0
 48 47  1  0  0  0  0
 49 47  4  0  0  0  0
 50 49  1  0  0  0  0
 51 42  4  0  0  0  0
 52 51  1  0  0  0  0
 53  4  1  0  0  0  0
 54 53  4  0  0  0  0
 55 54  1  0  0  0  0
 56 54  4  0  0  0  0
 57 56  1  0  0  0  0
 58 56  4  0  0  0  0
 59 58  1  0  0  0  0
 60 58  4  0  0  0  0
 61 60  1  0  0  0  0
 62 53  4  0  0  0  0
 63 62  1  0  0  0  0
 64  4  1  0  0  0  0
 65 64  4  0  0  0  0
 66 65  1  0  0  0  0
 67 65  4  0  0  0  0
 68 67  1  0  0  0  0
 69 67  4  0  0  0  0
 70 69  1  0  0  0  0
 71 69  4  0  0  0  0
 72 71  1  0  0  0  0
 73 64  4  0  0  0  0
 74 73  1  0  0  0  0
 75 76  4  0  0  0  0
 76 77  1  0  0  0  0
 78 76  4  0  0  0  0
 79 78  1  0  0  0  0
 80 78  4  0  0  0  0
 81 80  1  0  0  0  0
 82 80  4  0  0  0  0
 83 82  1  0  0  0  0
 84 75  4  0  0  0  0
 85 84  1  0  0  0  0
 86  5  1  0  0  0  0
 87 86  4  0  0  0  0
 88 87  1  0  0  0  0
 89 87  4  0  0  0  0
 90 89  1  0  0  0  0
 91 89  4  0  0  0  0
 92 91  1  0  0  0  0
 93 91  4  0  0  0  0
 94 93  1  0  0  0  0
 95 86  4  0  0  0  0
 96 95  1  0  0  0  0
 97  6  1  0  0  0  0
 98 97  4  0  0  0  0
 99 98  1  0  0  0  0
100 98  4  0  0  0  0
101100  1  0  0  0  0
102100  4  0  0  0  0
103102  1  0  0  0  0
104102  4  0  0  0  0
105104  1  0  0  0  0
106 97  4  0  0  0  0
107106  1  0  0  0  0
108  6  1  0  0  0  0
109108  4  0  0  0  0
110109  1  0  0  0  0
111109  4  0  0  0  0
112111  1  0  0  0  0
113111  4  0  0  0  0
114113  1  0  0  0  0
115113  4  0  0  0  0
116115  1  0  0  0  0
117108  4  0  0  0  0
118117  1  0  0  0  0
119  7  2  0  0  0  0
120  8  1  0  0  0  0
121120  1  0  0  0  0
122120  1  0  0  0  0
123120  1  0  0  0  0
124125  1  0  0  0  0
126119  1  0  0  0  0
127124  1  0  0  0  0
128127  1  0  0  0  0
129124  1  0  0  0  0
130129  1  0  0  0  0
131124  1  0  0  0  0
132131  1  0  0  0  0
133126  1  0  0  0  0
134133  1  0  0  0  0
135127  1  0  0  0  0
136135  1  0  0  0  0
137129  1  0  0  0  0
138  2  1  0  0  0  0
139126  1  0  0  0  0
140  1  1  0  0  0  0
141133  1  0  0  0  0
142141  1  0  0  0  0
143144  1  0  0  0  0
145143  4  0  0  0  0
146145  1  0  0  0  0
147145  4  0  0  0  0
148147  1  0  0  0  0
149147  4  0  0  0  0
150149  1  0  0  0  0
151149  4  0  0  0  0
152151  1  0  0  0  0
153  6  1  0  0  0  0
154155  1  0  0  0  0
156154  4  0  0  0  0
157156  1  0  0  0  0
158156  4  0  0  0  0
159158  1  0  0  0  0
160158  4  0  0  0  0
161160  1  0  0  0  0
162160  4  0  0  0  0
163162  1  0  0  0  0
164  5  1  0  0  0  0
 16 18  4  0  0  0  0
 27 29  4  0  0  0  0
 38 40  4  0  0  0  0
 49 51  4  0  0  0  0
 60 62  4  0  0  0  0
 71 73  4  0  0  0  0
 82 84  4  0  0  0  0
 93 95  4  0  0  0  0
104106  4  0  0  0  0
115117  4  0  0  0  0
124126  1  0  0  0  0
126127  1  0  0  0  0
126131  1  0  0  0  0
127129  1  0  0  0  0
127133  1  0  0  0  0
129131  1  0  0  0  0
129135  1  0  0  0  0
131137  1  0  0  0  0
131139  1  0  0  0  0
133135  1  0  0  0  0
133139  1  0  0  0  0
135137  1  0  0  0  0
135141  1  0  0  0  0
137138  1  0  0  0  0
137139  1  0  0  0  0
137141  1  0  0  0  0
139140  1  0  0  0  0
139141  1  0  0  0  0
143153  4  0  0  0  0
151153  4  0  0  0  0
154164  4  0  0  0  0
162164  4  0  0  0  0
M  END
$$$$
DUTPIT

From CSD data. Using bond type 'Any'. Matching problem. No disordered atoms. Largest molecule.
234262  0  0  0  0  0  0  0  0999 V2000
    3.9372   11.0080   10.7925 Ru  0  0  0  0  0  0  0  0  0  0  0  0
    2.3543   12.6303   17.7803 Ru  0  0  0  0  0  0  0  0  0  0  0  0
   -0.8626   11.6642   13.6573 W   0  0  0  0  0  0  0  0  0  0  0  0
    6.3677   14.2480   14.2099 W   0  0  0  0  0  0  0  0  0  0  0  0
    4.9567    9.0294   11.3879 P   0  0  0  0  0  0  0  0  0  0  0  0
    2.7517   10.4564   18.4112 P   0  0  0  0  0  0  0  0  0  0  0  0
    2.3351   10.6172   12.5441 S   0  0  0  0  0  0  0  0  0  0  0  0
    0.3340   13.9639   11.1821 S   0  0  0  0  0  0  0  0  0  0  0  0
    4.0726   12.3274   16.1242 S   0  0  0  0  0  0  0  0  0  0  0  0
    3.8225   16.3784   15.5543 S   0  0  0  0  0  0  0  0  0  0  0  0
   -3.0223   16.7504   10.0652 Si  0  0  0  0  0  0  0  0  0  0  0  0
    5.1457   20.6277   15.1149 Si  0  0  0  0  0  0  0  0  0  0  0  0
   -4.0653   12.5732   13.8191 B   0  0  0  0  0  0  0  0  0  0  0  0
    8.3375   16.5496   12.8401 B   0  0  0  0  0  0  0  0  0  0  0  0
   -0.3500    8.6059   13.2305 O   0  0  0  0  0  0  0  0  0  0  0  0
    7.5689   12.0414   16.0755 O   0  0  0  0  0  0  0  0  0  0  0  0
    1.0292   12.0588   16.3169 N   0  0  0  0  0  0  0  0  0  0  0  0
   -2.4748   11.5464   12.1466 N   0  0  0  0  0  0  0  0  0  0  0  0
   -3.7463   11.9765   12.4403 N   0  0  0  0  0  0  0  0  0  0  0  0
   -1.7928   13.6182   14.2137 N   0  0  0  0  0  0  0  0  0  0  0  0
   -3.1433   13.7980   14.0844 N   0  0  0  0  0  0  0  0  0  0  0  0
   -2.5260   10.9411   14.9837 N   0  0  0  0  0  0  0  0  0  0  0  0
   -3.7718   11.5208   14.8951 N   0  0  0  0  0  0  0  0  0  0  0  0
    5.0061   12.0890   12.1530 N   0  0  0  0  0  0  0  0  0  0  0  0
    8.2544   14.0213   13.0131 N   0  0  0  0  0  0  0  0  0  0  0  0
    8.9405   15.1609   12.5918 N   0  0  0  0  0  0  0  0  0  0  0  0
    7.5969   15.8270   15.1325 N   0  0  0  0  0  0  0  0  0  0  0  0
    8.2387   16.7765   14.3665 N   0  0  0  0  0  0  0  0  0  0  0  0
    5.9603   15.7602   12.6201 N   0  0  0  0  0  0  0  0  0  0  0  0
    6.9445   16.6207   12.1984 N   0  0  0  0  0  0  0  0  0  0  0  0
    0.9654   11.5777   12.6227 C   0  0  0  0  0  0  0  0  0  0  0  0
    0.2428   12.6520   12.2841 C   0  0  0  0  0  0  0  0  0  0  0  0
   -1.3022   14.7633   11.2463 C   0  0  0  0  0  0  0  0  0  0  0  0
   -2.0133   14.0835   11.1410 H   0  0  0  0  0  0  0  0  0  0  0  0
   -1.4251   15.2085   12.1217 H   0  0  0  0  0  0  0  0  0  0  0  0
   -1.3969   15.7925   10.1239 C   0  0  0  0  0  0  0  0  0  0  0  0
   -1.2726   15.3282    9.2588 H   0  0  0  0  0  0  0  0  0  0  0  0
   -0.6544   16.4388   10.2241 H   0  0  0  0  0  0  0  0  0  0  0  0
   -4.4461   15.5603   10.0514 C   0  0  0  0  0  0  0  0  0  0  0  0
   -4.4112   15.0026   10.8543 H   0  0  0  0  0  0  0  0  0  0  0  0
   -4.3882   14.9931    9.2554 H   0  0  0  0  0  0  0  0  0  0  0  0
   -5.2897   16.0606   10.0358 H   0  0  0  0  0  0  0  0  0  0  0  0
   -3.2226   17.8438   11.5606 C   0  0  0  0  0  0  0  0  0  0  0  0
   -4.1074   18.2650   11.5416 H   0  0  0  0  0  0  0  0  0  0  0  0
   -2.5310   18.5379   11.5536 H   0  0  0  0  0  0  0  0  0  0  0  0
   -3.1350   17.3052   12.3739 H   0  0  0  0  0  0  0  0  0  0  0  0
   -2.9440   17.7744    8.5094 C   0  0  0  0  0  0  0  0  0  0  0  0
   -3.7865   18.2650    8.4006 H   0  0  0  0  0  0  0  0  0  0  0  0
   -2.8084   17.1855    7.7393 H   0  0  0  0  0  0  0  0  0  0  0  0
   -2.2011   18.4062    8.5733 H   0  0  0  0  0  0  0  0  0  0  0  0
   -0.4769    9.7402   13.4323 C   0  0  0  0  0  0  0  0  0  0  0  0
    0.3311   11.8564   15.4164 C   0  0  0  0  0  0  0  0  0  0  0  0
   -2.4928   11.0706   10.9044 C   0  0  0  0  0  0  0  0  0  0  0  0
   -3.7798   11.1622   10.3795 C   0  0  0  0  0  0  0  0  0  0  0  0
   -4.0641   10.8930    9.5144 H   0  0  0  0  0  0  0  0  0  0  0  0
   -4.5645   11.7271   11.3775 C   0  0  0  0  0  0  0  0  0  0  0  0
   -1.2786   10.5124   10.2189 C   0  0  0  0  0  0  0  0  0  0  0  0
   -0.6375   11.2352   10.0531 H   0  0  0  0  0  0  0  0  0  0  0  0
   -1.5419   10.1079    9.3659 H   0  0  0  0  0  0  0  0  0  0  0  0
   -0.8650    9.8326   10.7904 H   0  0  0  0  0  0  0  0  0  0  0  0
   -6.0337   11.9964   11.3879 C   0  0  0  0  0  0  0  0  0  0  0  0
   -6.4105   11.7139   12.2478 H   0  0  0  0  0  0  0  0  0  0  0  0
   -6.4617   11.4961   10.6626 H   0  0  0  0  0  0  0  0  0  0  0  0
   -6.1921   12.9562   11.2618 H   0  0  0  0  0  0  0  0  0  0  0  0
   -1.2800   14.8035   14.6238 C   0  0  0  0  0  0  0  0  0  0  0  0
   -2.3162   15.7214   14.7619 C   0  0  0  0  0  0  0  0  0  0  0  0
   -2.2387   16.6279   15.0399 H   0  0  0  0  0  0  0  0  0  0  0  0
   -3.4761   15.0603   14.4200 C   0  0  0  0  0  0  0  0  0  0  0  0
    0.1853   15.0496   14.8155 C   0  0  0  0  0  0  0  0  0  0  0  0
    0.5305   14.4473   15.5079 H   0  0  0  0  0  0  0  0  0  0  0  0
    0.3281   15.9792   15.0900 H   0  0  0  0  0  0  0  0  0  0  0  0
    0.6563   14.8830   13.9728 H   0  0  0  0  0  0  0  0  0  0  0  0
   -4.8606   15.6001   14.3510 C   0  0  0  0  0  0  0  0  0  0  0  0
   -5.2349   15.4311   13.4617 H   0  0  0  0  0  0  0  0  0  0  0  0
   -4.8436   16.5656   14.5202 H   0  0  0  0  0  0  0  0  0  0  0  0
   -5.4153   15.1606   15.0279 H   0  0  0  0  0  0  0  0  0  0  0  0
   -2.5830   10.0344   15.9793 C   0  0  0  0  0  0  0  0  0  0  0  0
   -3.8696   10.0404   16.5336 C   0  0  0  0  0  0  0  0  0  0  0  0
   -4.1854    9.4999   17.2502 H   0  0  0  0  0  0  0  0  0  0  0  0
   -4.5889   10.9885   15.8308 C   0  0  0  0  0  0  0  0  0  0  0  0
   -1.4150    9.1945   16.4041 C   0  0  0  0  0  0  0  0  0  0  0  0
   -1.2550    8.4970   15.7358 H   0  0  0  0  0  0  0  0  0  0  0  0
   -1.6086    8.7795   17.2692 H   0  0  0  0  0  0  0  0  0  0  0  0
   -0.6193    9.7584   16.4835 H   0  0  0  0  0  0  0  0  0  0  0  0
   -6.0099   11.4171   16.0052 C   0  0  0  0  0  0  0  0  0  0  0  0
   -6.0547   12.3961   16.0415 H   0  0  0  0  0  0  0  0  0  0  0  0
   -6.3622   11.0437   16.8392 H   0  0  0  0  0  0  0  0  0  0  0  0
   -6.5438   11.0916   15.2506 H   0  0  0  0  0  0  0  0  0  0  0  0
    2.4812   11.0892    9.1880 C   0  0  0  0  0  0  0  0  0  0  0  0
    1.5944   10.7637    9.2933 H   0  0  0  0  0  0  0  0  0  0  0  0
    3.5789   10.3400    8.7632 C   0  0  0  0  0  0  0  0  0  0  0  0
    3.5655    9.4209    8.5267 H   0  0  0  0  0  0  0  0  0  0  0  0
    4.7177   11.1807    8.7408 C   0  0  0  0  0  0  0  0  0  0  0  0
    5.5975   10.9313    8.4870 H   0  0  0  0  0  0  0  0  0  0  0  0
    4.2985   12.4531    9.1673 C   0  0  0  0  0  0  0  0  0  0  0  0
    4.8607   13.2147    9.2588 H   0  0  0  0  0  0  0  0  0  0  0  0
    2.9126   12.4224    9.4349 C   0  0  0  0  0  0  0  0  0  0  0  0
    2.3737   13.1501    9.7233 H   0  0  0  0  0  0  0  0  0  0  0  0
    3.8237    7.6069   11.7004 C   0  0  0  0  0  0  0  0  0  0  0  0
    2.5134    7.6404   11.1997 C   0  0  0  0  0  0  0  0  0  0  0  0
    2.2423    8.3678   10.6523 H   0  0  0  0  0  0  0  0  0  0  0  0
    1.6105    6.6332   11.4880 C   0  0  0  0  0  0  0  0  0  0  0  0
    0.7250    6.6756   11.1427 H   0  0  0  0  0  0  0  0  0  0  0  0
    1.9942    5.5707   12.2737 C   0  0  0  0  0  0  0  0  0  0  0  0
    1.3739    4.8804   12.4757 H   0  0  0  0  0  0  0  0  0  0  0  0
    3.2803    5.5089   12.7693 C   0  0  0  0  0  0  0  0  0  0  0  0
    3.5394    4.7727   13.3097 H   0  0  0  0  0  0  0  0  0  0  0  0
    4.2015    6.5159   12.4878 C   0  0  0  0  0  0  0  0  0  0  0  0
    5.0853    6.4601   12.8314 H   0  0  0  0  0  0  0  0  0  0  0  0
    6.0706    8.3692   10.0773 C   0  0  0  0  0  0  0  0  0  0  0  0
    5.8293    7.1954    9.4021 C   0  0  0  0  0  0  0  0  0  0  0  0
    5.0668    6.6779    9.6283 H   0  0  0  0  0  0  0  0  0  0  0  0
    6.6829    6.7471    8.3903 C   0  0  0  0  0  0  0  0  0  0  0  0
    6.4943    5.9336    7.9361 H   0  0  0  0  0  0  0  0  0  0  0  0
    7.7957    7.4822    8.0501 C   0  0  0  0  0  0  0  0  0  0  0  0
    8.3732    7.1830    7.3594 H   0  0  0  0  0  0  0  0  0  0  0  0
    8.0697    8.6672    8.7270 C   0  0  0  0  0  0  0  0  0  0  0  0
    8.8455    9.1696    8.5077 H   0  0  0  0  0  0  0  0  0  0  0  0
    7.2098    9.1160    9.7233 C   0  0  0  0  0  0  0  0  0  0  0  0
    7.3935    9.9331   10.1705 H   0  0  0  0  0  0  0  0  0  0  0  0
    6.0109    8.9092   12.8798 C   0  0  0  0  0  0  0  0  0  0  0  0
    7.1768    8.1466   12.9489 C   0  0  0  0  0  0  0  0  0  0  0  0
    7.5162    7.7359   12.1615 H   0  0  0  0  0  0  0  0  0  0  0  0
    7.8436    7.9817   14.1489 C   0  0  0  0  0  0  0  0  0  0  0  0
    8.6502    7.4798   14.1800 H   0  0  0  0  0  0  0  0  0  0  0  0
    7.3353    8.5485   15.3128 C   0  0  0  0  0  0  0  0  0  0  0  0
    7.7691    8.3965   16.1451 H   0  0  0  0  0  0  0  0  0  0  0  0
    6.2115    9.3242   15.2575 C   0  0  0  0  0  0  0  0  0  0  0  0
    5.8902    9.7417   16.0484 H   0  0  0  0  0  0  0  0  0  0  0  0
    5.5349    9.5083   14.0592 C   0  0  0  0  0  0  0  0  0  0  0  0
    4.7497   10.0409   14.0350 H   0  0  0  0  0  0  0  0  0  0  0  0
    4.7700   13.6915   15.4530 C   0  0  0  0  0  0  0  0  0  0  0  0
    4.7728   15.0031   15.2005 C   0  0  0  0  0  0  0  0  0  0  0  0
    4.8408   17.8059   15.0210 C   0  0  0  0  0  0  0  0  0  0  0  0
    5.6999   17.8103   15.5131 H   0  0  0  0  0  0  0  0  0  0  0  0
    5.0394   17.7337   14.0522 H   0  0  0  0  0  0  0  0  0  0  0  0
    4.0857   19.0884   15.2955 C   0  0  0  0  0  0  0  0  0  0  0  0
    3.7229   19.0549   16.2159 H   0  0  0  0  0  0  0  0  0  0  0  0
    3.3212   19.1506   14.6704 H   0  0  0  0  0  0  0  0  0  0  0  0
    6.2830   20.4024   13.6430 C   0  0  0  0  0  0  0  0  0  0  0  0
    5.7480   20.3283   12.8245 H   0  0  0  0  0  0  0  0  0  0  0  0
    6.8134   19.5886   13.7622 H   0  0  0  0  0  0  0  0  0  0  0  0
    6.8821   21.1756   13.5722 H   0  0  0  0  0  0  0  0  0  0  0  0
    6.1485   20.8716   16.6838 C   0  0  0  0  0  0  0  0  0  0  0  0
    6.7015   21.6758   16.5975 H   0  0  0  0  0  0  0  0  0  0  0  0
    6.7283   20.0937   16.8271 H   0  0  0  0  0  0  0  0  0  0  0  0
    5.5423   20.9721   17.4470 H   0  0  0  0  0  0  0  0  0  0  0  0
    3.9907   22.0851   14.8120 C   0  0  0  0  0  0  0  0  0  0  0  0
    3.7014   22.0851   13.8761 H   0  0  0  0  0  0  0  0  0  0  0  0
    4.4607   22.9228   15.0089 H   0  0  0  0  0  0  0  0  0  0  0  0
    3.2067   22.0061   15.3957 H   0  0  0  0  0  0  0  0  0  0  0  0
    5.5307   12.8219   12.8901 C   0  0  0  0  0  0  0  0  0  0  0  0
    7.1175   12.8353   15.3784 C   0  0  0  0  0  0  0  0  0  0  0  0
    8.9871   12.9588   12.6087 C   0  0  0  0  0  0  0  0  0  0  0  0
   10.1243   13.4105   11.9370 C   0  0  0  0  0  0  0  0  0  0  0  0
   10.8071   12.8748   11.5485 H   0  0  0  0  0  0  0  0  0  0  0  0
   10.0641   14.7896   11.9456 C   0  0  0  0  0  0  0  0  0  0  0  0
    8.6017   11.5244   12.8608 C   0  0  0  0  0  0  0  0  0  0  0  0
    8.7527   11.3070   13.8036 H   0  0  0  0  0  0  0  0  0  0  0  0
    9.1470   10.9360   12.2979 H   0  0  0  0  0  0  0  0  0  0  0  0
    7.6532   11.3980   12.6450 H   0  0  0  0  0  0  0  0  0  0  0  0
   11.0405   15.7805   11.4051 C   0  0  0  0  0  0  0  0  0  0  0  0
   10.5905   16.3646   10.7593 H   0  0  0  0  0  0  0  0  0  0  0  0
   11.7755   15.3066   10.9614 H   0  0  0  0  0  0  0  0  0  0  0  0
   11.3984   16.3215   12.1407 H   0  0  0  0  0  0  0  0  0  0  0  0
    7.8159   16.1484   16.4196 C   0  0  0  0  0  0  0  0  0  0  0  0
    8.5724   17.3126   16.4818 C   0  0  0  0  0  0  0  0  0  0  0  0
    8.8483   17.7696   17.2674 H   0  0  0  0  0  0  0  0  0  0  0  0
    8.8451   17.6712   15.1833 C   0  0  0  0  0  0  0  0  0  0  0  0
    7.3339   15.2717   17.5524 C   0  0  0  0  0  0  0  0  0  0  0  0
    6.3610   15.1630   17.4902 H   0  0  0  0  0  0  0  0  0  0  0  0
    7.5621   15.6896   18.4088 H   0  0  0  0  0  0  0  0  0  0  0  0
    7.7641   14.3947   17.4919 H   0  0  0  0  0  0  0  0  0  0  0  0
    9.6875   18.8167   14.6514 C   0  0  0  0  0  0  0  0  0  0  0  0
   10.4355   18.4589   14.1300 H   0  0  0  0  0  0  0  0  0  0  0  0
   10.0362   19.3421   15.4026 H   0  0  0  0  0  0  0  0  0  0  0  0
    9.1353   19.3900   14.0816 H   0  0  0  0  0  0  0  0  0  0  0  0
    4.8720   16.0209   11.8627 C   0  0  0  0  0  0  0  0  0  0  0  0
    5.1703   17.0237   10.9545 C   0  0  0  0  0  0  0  0  0  0  0  0
    4.5873   17.3914   10.3000 H   0  0  0  0  0  0  0  0  0  0  0  0
    6.4877   17.3859   11.1910 C   0  0  0  0  0  0  0  0  0  0  0  0
    3.5788   15.2906   12.0061 C   0  0  0  0  0  0  0  0  0  0  0  0
    3.7564   14.3372   12.1528 H   0  0  0  0  0  0  0  0  0  0  0  0
    3.0483   15.4024   11.1910 H   0  0  0  0  0  0  0  0  0  0  0  0
    3.0823   15.6513   12.7710 H   0  0  0  0  0  0  0  0  0  0  0  0
    7.3399   18.3900   10.4779 C   0  0  0  0  0  0  0  0  0  0  0  0
    7.6124   19.0908   11.1047 H   0  0  0  0  0  0  0  0  0  0  0  0
    6.8288   18.7892    9.7423 H   0  0  0  0  0  0  0  0  0  0  0  0
    8.1377   17.9467   10.1187 H   0  0  0  0  0  0  0  0  0  0  0  0
    2.1968   14.8243   18.1066 C   0  0  0  0  0  0  0  0  0  0  0  0
    2.2296   15.4837   17.4229 H   0  0  0  0  0  0  0  0  0  0  0  0
    3.3101   14.2760   18.8094 C   0  0  0  0  0  0  0  0  0  0  0  0
    4.2235   14.4928   18.6592 H   0  0  0  0  0  0  0  0  0  0  0  0
    2.8231   13.3561   19.7678 C   0  0  0  0  0  0  0  0  0  0  0  0
    3.3478   12.8556   20.3808 H   0  0  0  0  0  0  0  0  0  0  0  0
    1.3909   13.3164   19.6434 C   0  0  0  0  0  0  0  0  0  0  0  0
    0.7971   12.7862   20.1632 H   0  0  0  0  0  0  0  0  0  0  0  0
    1.0298   14.2001   18.6178 C   0  0  0  0  0  0  0  0  0  0  0  0
    0.1427   14.3564   18.3121 H   0  0  0  0  0  0  0  0  0  0  0  0
    2.0297   10.1206   20.0596 C   0  0  0  0  0  0  0  0  0  0  0  0
    2.8117   10.0430   21.2165 C   0  0  0  0  0  0  0  0  0  0  0  0
    3.7582   10.0672   21.1492 H   0  0  0  0  0  0  0  0  0  0  0  0
    2.2015    9.9281   22.4736 C   0  0  0  0  0  0  0  0  0  0  0  0
    2.7351    9.8925   23.2593 H   0  0  0  0  0  0  0  0  0  0  0  0
    0.8218    9.8661   22.5668 C   0  0  0  0  0  0  0  0  0  0  0  0
    0.4142    9.7967   23.4216 H   0  0  0  0  0  0  0  0  0  0  0  0
    0.0232    9.9023   21.4272 C   0  0  0  0  0  0  0  0  0  0  0  0
   -0.9221    9.8230   21.4928 H   0  0  0  0  0  0  0  0  0  0  0  0
    0.6452   10.0564   20.1822 C   0  0  0  0  0  0  0  0  0  0  0  0
    0.1070   10.1198   19.4017 H   0  0  0  0  0  0  0  0  0  0  0  0
    2.1425    9.0504   17.3883 C   0  0  0  0  0  0  0  0  0  0  0  0
    1.5111    7.9319   17.9219 C   0  0  0  0  0  0  0  0  0  0  0  0
    1.3436    7.8819   18.8561 H   0  0  0  0  0  0  0  0  0  0  0  0
    1.1200    6.8771   17.0810 C   0  0  0  0  0  0  0  0  0  0  0  0
    0.6664    6.1250   17.4436 H   0  0  0  0  0  0  0  0  0  0  0  0
    1.3940    6.9319   15.7237 C   0  0  0  0  0  0  0  0  0  0  0  0
    1.1459    6.2088   15.1591 H   0  0  0  0  0  0  0  0  0  0  0  0
    2.0396    8.0583   15.1781 C   0  0  0  0  0  0  0  0  0  0  0  0
    2.2303    8.0997   14.2491 H   0  0  0  0  0  0  0  0  0  0  0  0
    2.3917    9.1071   16.0121 C   0  0  0  0  0  0  0  0  0  0  0  0
    2.8097    9.8781   15.6426 H   0  0  0  0  0  0  0  0  0  0  0  0
    4.5019    9.9736   18.6765 C   0  0  0  0  0  0  0  0  0  0  0  0
    4.8793    8.6488   18.7766 C   0  0  0  0  0  0  0  0  0  0  0  0
    4.2250    7.9657   18.6972 H   0  0  0  0  0  0  0  0  0  0  0  0
    6.2178    8.3055   18.9959 C   0  0  0  0  0  0  0  0  0  0  0  0
    6.4744    7.3936   19.0564 H   0  0  0  0  0  0  0  0  0  0  0  0
    7.1649    9.3013   19.1237 C   0  0  0  0  0  0  0  0  0  0  0  0
    8.0716    9.0691   19.2791 H   0  0  0  0  0  0  0  0  0  0  0  0
    6.8088   10.6249   19.0270 C   0  0  0  0  0  0  0  0  0  0  0  0
    7.4665   11.3070   19.1099 H   0  0  0  0  0  0  0  0  0  0  0  0
    5.4668   10.9624   18.8077 C   0  0  0  0  0  0  0  0  0  0  0  0
    5.2152   11.8767   18.7473 H   0  0  0  0  0  0  0  0  0  0  0  0
    8.9740   17.3746   12.3635 H   0  0  0  0  0  0  0  0  0  0  0  0
   -5.1600   12.8820   13.8312 H   0  0  0  0  0  0  0  0  0  0  0  0
  1  5  1  0  0  0  0
  2  6  1  0  0  0  0
  3 18  1  0  0  0  0
  4 25  1  0  0  0  0
  5 99  1  0  0  0  0
  6200  1  0  0  0  0
  7  1  1  0  0  0  0
  8 32  1  0  0  0  0
  9  2  1  0  0  0  0
 10133  1  0  0  0  0
 11 36  1  0  0  0  0
 12137  1  0  0  0  0
 13 19  1  0  0  0  0
 14 26  1  0  0  0  0
 15 51  3  0  0  0  0
 16153  3  0  0  0  0
 17  2  1  0  0  0  0
 18 19  4  0  0  0  0
 19 56  4  0  0  0  0
 20  3  1  0  0  0  0
 21 13  1  0  0  0  0
 22  3  1  0  0  0  0
 23 13  1  0  0  0  0
 24  1  1  0  0  0  0
 25 26  4  0  0  0  0
 26157  4  0  0  0  0
 27  4  1  0  0  0  0
 28 14  1  0  0  0  0
 29  4  1  0  0  0  0
 30 14  1  0  0  0  0
 31  3  8  0  0  0  0
 32  3  8  0  0  0  0
 33  8  1  0  0  0  0
 34 33  1  0  0  0  0
 35 33  1  0  0  0  0
 36 33  1  0  0  0  0
 37 36  1  0  0  0  0
 38 36  1  0  0  0  0
 39 11  1  0  0  0  0
 40 39  1  0  0  0  0
 41 39  1  0  0  0  0
 42 39  1  0  0  0  0
 43 11  1  0  0  0  0
 44 43  1  0  0  0  0
 45 43  1  0  0  0  0
 46 43  1  0  0  0  0
 47 11  1  0  0  0  0
 48 47  1  0  0  0  0
 49 47  1  0  0  0  0
 50 47  1  0  0  0  0
 51  3  1  0  0  0  0
 52  3  1  0  0  0  0
 53 18  4  0  0  0  0
 54 53  4  0  0  0  0
 55 54  1  0  0  0  0
 56 54  4  0  0  0  0
 57 53  1  0  0  0  0
 58 57  1  0  0  0  0
 59 57  1  0  0  0  0
 60 57  1  0  0  0  0
 61 56  1  0  0  0  0
 62 61  1  0  0  0  0
 63 61  1  0  0  0  0
 64 61  1  0  0  0  0
 65 20  4  0  0  0  0
 66 65  4  0  0  0  0
 67 66  1  0  0  0  0
 68 21  4  0  0  0  0
 69 65  1  0  0  0  0
 70 69  1  0  0  0  0
 71 69  1  0  0  0  0
 72 69  1  0  0  0  0
 73 68  1  0  0  0  0
 74 73  1  0  0  0  0
 75 73  1  0  0  0  0
 76 73  1  0  0  0  0
 77 22  4  0  0  0  0
 78 77  4  0  0  0  0
 79 78  1  0  0  0  0
 80 23  4  0  0  0  0
 81 77  1  0  0  0  0
 82 81  1  0  0  0  0
 83 81  1  0  0  0  0
 84 81  1  0  0  0  0
 85 80  1  0  0  0  0
 86 85  1  0  0  0  0
 87 85  1  0  0  0  0
 88 85  1  0  0  0  0
 89  1  8  0  0  0  0
 90 89  1  0  0  0  0
 91  1  8  0  0  0  0
 92 91  1  0  0  0  0
 93  1  8  0  0  0  0
 94 93  1  0  0  0  0
 95  1  8  0  0  0  0
 96 95  1  0  0  0  0
 97  1  8  0  0  0  0
 98 97  1  0  0  0  0
 99100  4  0  0  0  0
100101  1  0  0  0  0
102100  4  0  0  0  0
103102  1  0  0  0  0
104102  4  0  0  0  0
105104  1  0  0  0  0
106104  4  0  0  0  0
107106  1  0  0  0  0
108 99  4  0  0  0  0
109108  1  0  0  0  0
110  5  1  0  0  0  0
111110  4  0  0  0  0
112111  1  0  0  0  0
113111  4  0  0  0  0
114113  1  0  0  0  0
115113  4  0  0  0  0
116115  1  0  0  0  0
117115  4  0  0  0  0
118117  1  0  0  0  0
119110  4  0  0  0  0
120119  1  0  0  0  0
121  5  1  0  0  0  0
122121  4  0  0  0  0
123122  1  0  0  0  0
124122  4  0  0  0  0
125124  1  0  0  0  0
126124  4  0  0  0  0
127126  1  0  0  0  0
128126  4  0  0  0  0
129128  1  0  0  0  0
130121  4  0  0  0  0
131130  1  0  0  0  0
132  4  8  0  0  0  0
133  4  8  0  0  0  0
134 10  1  0  0  0  0
135134  1  0  0  0  0
136134  1  0  0  0  0
137134  1  0  0  0  0
138137  1  0  0  0  0
139137  1  0  0  0  0
140 12  1  0  0  0  0
141140  1  0  0  0  0
142140  1  0  0  0  0
143140  1  0  0  0  0
144 12  1  0  0  0  0
145144  1  0  0  0  0
146144  1  0  0  0  0
147144  1  0  0  0  0
148 12  1  0  0  0  0
149148  1  0  0  0  0
150148  1  0  0  0  0
151148  1  0  0  0  0
152  4  1  0  0  0  0
153  4  1  0  0  0  0
154 25  4  0  0  0  0
155154  4  0  0  0  0
156155  1  0  0  0  0
157155  4  0  0  0  0
158154  1  0  0  0  0
159158  1  0  0  0  0
160158  1  0  0  0  0
161158  1  0  0  0  0
162157  1  0  0  0  0
163162  1  0  0  0  0
164162  1  0  0  0  0
165162  1  0  0  0  0
166 27  4  0  0  0  0
167166  4  0  0  0  0
168167  1  0  0  0  0
169 28  4  0  0  0  0
170166  1  0  0  0  0
171170  1  0  0  0  0
172170  1  0  0  0  0
173170  1  0  0  0  0
174169  1  0  0  0  0
175174  1  0  0  0  0
176174  1  0  0  0  0
177174  1  0  0  0  0
178 29  4  0  0  0  0
179178  4  0  0  0  0
180179  1  0  0  0  0
181 30  4  0  0  0  0
182178  1  0  0  0  0
183182  1  0  0  0  0
184182  1  0  0  0  0
185182  1  0  0  0  0
186181  1  0  0  0  0
187186  1  0  0  0  0
188186  1  0  0  0  0
189186  1  0  0  0  0
190  2  8  0  0  0  0
191190  1  0  0  0  0
192  2  8  0  0  0  0
193192  1  0  0  0  0
194  2  8  0  0  0  0
195194  1  0  0  0  0
196  2  8  0  0  0  0
197196  1  0  0  0  0
198  2  8  0  0  0  0
199198  1  0  0  0  0
200201  4  0  0  0  0
201202  1  0  0  0  0
203201  4  0  0  0  0
204203  1  0  0  0  0
205203  4  0  0  0  0
206205  1  0  0  0  0
207205  4  0  0  0  0
208207  1  0  0  0  0
209200  4  0  0  0  0
210209  1  0  0  0  0
211  6  1  0  0  0  0
212211  4  0  0  0  0
213212  1  0  0  0  0
214212  4  0  0  0  0
215214  1  0  0  0  0
216214  4  0  0  0  0
217216  1  0  0  0  0
218216  4  0  0  0  0
219218  1  0  0  0  0
220211  4  0  0  0  0
221220  1  0  0  0  0
222  6  1  0  0  0  0
223222  4  0  0  0  0
224223  1  0  0  0  0
225223  4  0  0  0  0
226225  1  0  0  0  0
227225  4  0  0  0  0
228227  1  0  0  0  0
229227  4  0  0  0  0
230229  1  0  0  0  0
231222  4  0  0  0  0
232231  1  0  0  0  0
233 14  1  0  0  0  0
234 13  1  0  0  0  0
  7 31  1  0  0  0  0
  9132  1  0  0  0  0
 17 52  3  0  0  0  0
 20 21  4  0  0  0  0
 22 23  4  0  0  0  0
 24152  3  0  0  0  0
 27 28  4  0  0  0  0
 29 30  4  0  0  0  0
 31 32  3  0  0  0  0
 66 68  4  0  0  0  0
 78 80  4  0  0  0  0
 89 91  4  0  0  0  0
 89 97  4  0  0  0  0
 91 93  4  0  0  0  0
 93 95  4  0  0  0  0
 95 97  4  0  0  0  0
106108  4  0  0  0  0
117119  4  0  0  0  0
128130  4  0  0  0  0
132133  3  0  0  0  0
167169  4  0  0  0  0
179181  4  0  0  0  0
190192  4  0  0  0  0
190198  4  0  0  0  0
192194  4  0  0  0  0
194196  4  0  0  0  0
196198  4  0  0  0  0
207209  4  0  0  0  0
218220  4  0  0  0  0
229231  4  0  0  0  0
M  END
$$$$
DUWJEL

From CSD data. Using bond type 'Any'. No disordered atoms. Largest molecule.
 74111  0  0  0  0  0  0  0  0999 V2000
    3.3927    2.3854   -2.8051 P   0  0  0  0  0  0  0  0  0  0  0  0
    3.9492    2.8604   -1.3542 O   0  0  0  0  0  0  0  0  0  0  0  0
    4.2177    0.9710   -3.0546 N   0  0  0  0  0  0  0  0  0  0  0  0
    5.2519    3.4367   -1.3271 C   0  0  0  0  0  0  0  0  0  0  0  0
    5.8523    2.9140   -1.8987 H   0  0  0  0  0  0  0  0  0  0  0  0
    5.5920    3.4341   -0.4079 H   0  0  0  0  0  0  0  0  0  0  0  0
    5.2087    4.3594   -1.6565 H   0  0  0  0  0  0  0  0  0  0  0  0
    4.5870    0.6840   -4.4894 C   0  0  0  0  0  0  0  0  0  0  0  0
    5.5605    0.6027   -4.5658 H   0  0  0  0  0  0  0  0  0  0  0  0
    4.2732    1.4157   -5.0598 H   0  0  0  0  0  0  0  0  0  0  0  0
    4.1661   -0.1549   -4.7725 H   0  0  0  0  0  0  0  0  0  0  0  0
    4.6675    0.0426   -2.0267 C   0  0  0  0  0  0  0  0  0  0  0  0
    4.2456   -0.8311   -2.1688 H   0  0  0  0  0  0  0  0  0  0  0  0
    4.4176    0.3859   -1.1441 H   0  0  0  0  0  0  0  0  0  0  0  0
    5.6415   -0.0529   -2.0762 H   0  0  0  0  0  0  0  0  0  0  0  0
    1.6698    1.9044   -2.1578 C   0  0  0  0  0  0  0  0  0  0  0  0
    0.0633    0.5267   -0.5509 C   0  0  0  0  0  0  0  0  0  0  0  0
    1.2592    0.3021   -1.7458 B   0  0  0  0  0  0  0  0  0  0  0  0
    0.6394    1.0402   -3.2172 B   0  0  0  0  0  0  0  0  0  0  0  0
   -0.4417    0.1226   -2.1548 B   0  0  0  0  0  0  0  0  0  0  0  0
    1.4093    1.5831   -0.5059 B   0  0  0  0  0  0  0  0  0  0  0  0
    0.3647    2.7656   -2.8900 B   0  0  0  0  0  0  0  0  0  0  0  0
   -0.9982    1.6441   -2.8706 B   0  0  0  0  0  0  0  0  0  0  0  0
   -1.3531    1.2841   -1.1710 B   0  0  0  0  0  0  0  0  0  0  0  0
   -0.2065    2.1870   -0.1528 B   0  0  0  0  0  0  0  0  0  0  0  0
    0.8574    3.0911   -1.2270 B   0  0  0  0  0  0  0  0  0  0  0  0
   -0.8532    2.9166   -1.6339 B   0  0  0  0  0  0  0  0  0  0  0  0
    1.9212   -0.4801   -1.7006 H   0  0  0  0  0  0  0  0  0  0  0  0
    1.0332    0.7085   -4.2300 H   0  0  0  0  0  0  0  0  0  0  0  0
   -0.7855   -0.8079   -2.3464 H   0  0  0  0  0  0  0  0  0  0  0  0
    2.1532    1.5009    0.2476 H   0  0  0  0  0  0  0  0  0  0  0  0
    0.6538    3.5102   -3.6811 H   0  0  0  0  0  0  0  0  0  0  0  0
   -1.8351    1.6841   -3.6488 H   0  0  0  0  0  0  0  0  0  0  0  0
   -2.2685    1.0273   -0.7427 H   0  0  0  0  0  0  0  0  0  0  0  0
   -0.4495    2.4197    0.8395 H   0  0  0  0  0  0  0  0  0  0  0  0
    1.3788    3.9864   -0.9149 H   0  0  0  0  0  0  0  0  0  0  0  0
   -1.5701    3.7554   -1.5822 H   0  0  0  0  0  0  0  0  0  0  0  0
   -3.3927   -2.3854    2.8051 P   0  0  0  0  0  0  0  0  0  0  0  0
   -3.9492   -2.8604    1.3542 O   0  0  0  0  0  0  0  0  0  0  0  0
   -4.2177   -0.9710    3.0546 N   0  0  0  0  0  0  0  0  0  0  0  0
   -5.2519   -3.4367    1.3271 C   0  0  0  0  0  0  0  0  0  0  0  0
   -5.8523   -2.9140    1.8987 H   0  0  0  0  0  0  0  0  0  0  0  0
   -5.5920   -3.4341    0.4079 H   0  0  0  0  0  0  0  0  0  0  0  0
   -5.2087   -4.3594    1.6565 H   0  0  0  0  0  0  0  0  0  0  0  0
   -4.5870   -0.6840    4.4894 C   0  0  0  0  0  0  0  0  0  0  0  0
   -5.5605   -0.6027    4.5658 H   0  0  0  0  0  0  0  0  0  0  0  0
   -4.2732   -1.4157    5.0598 H   0  0  0  0  0  0  0  0  0  0  0  0
   -4.1661    0.1549    4.7725 H   0  0  0  0  0  0  0  0  0  0  0  0
   -4.6675   -0.0426    2.0267 C   0  0  0  0  0  0  0  0  0  0  0  0
   -4.2456    0.8311    2.1688 H   0  0  0  0  0  0  0  0  0  0  0  0
   -4.4176   -0.3859    1.1441 H   0  0  0  0  0  0  0  0  0  0  0  0
   -5.6415    0.0529    2.0762 H   0  0  0  0  0  0  0  0  0  0  0  0
   -1.6698   -1.9044    2.1578 C   0  0  0  0  0  0  0  0  0  0  0  0
   -0.0633   -0.5267    0.5509 C   0  0  0  0  0  0  0  0  0  0  0  0
   -1.2592   -0.3021    1.7458 B   0  0  0  0  0  0  0  0  0  0  0  0
   -0.6394   -1.0402    3.2172 B   0  0  0  0  0  0  0  0  0  0  0  0
    0.4417   -0.1226    2.1548 B   0  0  0  0  0  0  0  0  0  0  0  0
   -1.4093   -1.5831    0.5059 B   0  0  0  0  0  0  0  0  0  0  0  0
   -0.3647   -2.7656    2.8900 B   0  0  0  0  0  0  0  0  0  0  0  0
    0.9982   -1.6441    2.8706 B   0  0  0  0  0  0  0  0  0  0  0  0
    1.3531   -1.2841    1.1710 B   0  0  0  0  0  0  0  0  0  0  0  0
    0.2065   -2.1870    0.1528 B   0  0  0  0  0  0  0  0  0  0  0  0
   -0.8574   -3.0911    1.2270 B   0  0  0  0  0  0  0  0  0  0  0  0
    0.8532   -2.9166    1.6339 B   0  0  0  0  0  0  0  0  0  0  0  0
   -1.9212    0.4801    1.7006 H   0  0  0  0  0  0  0  0  0  0  0  0
   -1.0332   -0.7085    4.2300 H   0  0  0  0  0  0  0  0  0  0  0  0
    0.7855    0.8079    2.3464 H   0  0  0  0  0  0  0  0  0  0  0  0
   -2.1532   -1.5009   -0.2476 H   0  0  0  0  0  0  0  0  0  0  0  0
   -0.6538   -3.5102    3.6811 H   0  0  0  0  0  0  0  0  0  0  0  0
    1.8351   -1.6841    3.6488 H   0  0  0  0  0  0  0  0  0  0  0  0
    2.2685   -1.0273    0.7427 H   0  0  0  0  0  0  0  0  0  0  0  0
    0.4495   -2.4197   -0.8395 H   0  0  0  0  0  0  0  0  0  0  0  0
   -1.3788   -3.9864    0.9149 H   0  0  0  0  0  0  0  0  0  0  0  0
    1.5701   -3.7554    1.5822 H   0  0  0  0  0  0  0  0  0  0  0  0
  1  2  1  0  0  0  0
  2  4  1  0  0  0  0
  3  1  1  0  0  0  0
  4  5  1  0  0  0  0
  6  4  1  0  0  0  0
  7  4  1  0  0  0  0
  8  3  1  0  0  0  0
  9  8  1  0  0  0  0
 10  8  1  0  0  0  0
 11  8  1  0  0  0  0
 12  3  1  0  0  0  0
 13 12  1  0  0  0  0
 14 12  1  0  0  0  0
 15 12  1  0  0  0  0
 16  1  1  0  0  0  0
 17 18  1  0  0  0  0
 18 16  1  0  0  0  0
 19 16  1  0  0  0  0
 20 17  1  0  0  0  0
 21 16  1  0  0  0  0
 22 16  1  0  0  0  0
 23 19  1  0  0  0  0
 24 17  1  0  0  0  0
 25 17  1  0  0  0  0
 26 16  1  0  0  0  0
 27 22  1  0  0  0  0
 28 18  1  0  0  0  0
 29 19  1  0  0  0  0
 30 20  1  0  0  0  0
 31 21  1  0  0  0  0
 32 22  1  0  0  0  0
 33 23  1  0  0  0  0
 34 24  1  0  0  0  0
 35 25  1  0  0  0  0
 36 26  1  0  0  0  0
 37 27  1  0  0  0  0
 38 39  1  0  0  0  0
 39 41  1  0  0  0  0
 40 38  1  0  0  0  0
 41 42  1  0  0  0  0
 43 41  1  0  0  0  0
 44 41  1  0  0  0  0
 45 40  1  0  0  0  0
 46 45  1  0  0  0  0
 47 45  1  0  0  0  0
 48 45  1  0  0  0  0
 49 40  1  0  0  0  0
 50 49  1  0  0  0  0
 51 49  1  0  0  0  0
 52 49  1  0  0  0  0
 53 38  1  0  0  0  0
 54 17  1  0  0  0  0
 55 53  1  0  0  0  0
 56 53  1  0  0  0  0
 57 54  1  0  0  0  0
 58 53  1  0  0  0  0
 59 53  1  0  0  0  0
 60 56  1  0  0  0  0
 61 54  1  0  0  0  0
 62 54  1  0  0  0  0
 63 53  1  0  0  0  0
 64 59  1  0  0  0  0
 65 55  1  0  0  0  0
 66 56  1  0  0  0  0
 67 57  1  0  0  0  0
 68 58  1  0  0  0  0
 69 59  1  0  0  0  0
 70 60  1  0  0  0  0
 71 61  1  0  0  0  0
 72 62  1  0  0  0  0
 73 63  1  0  0  0  0
 74 64  1  0  0  0  0
 17 21  1  0  0  0  0
 18 19  1  0  0  0  0
 18 20  1  0  0  0  0
 18 21  1  0  0  0  0
 19 20  1  0  0  0  0
 19 22  1  0  0  0  0
 20 23  1  0  0  0  0
 20 24  1  0  0  0  0
 21 25  1  0  0  0  0
 21 26  1  0  0  0  0
 22 23  1  0  0  0  0
 22 26  1  0  0  0  0
 23 24  1  0  0  0  0
 23 27  1  0  0  0  0
 24 25  1  0  0  0  0
 24 27  1  0  0  0  0
 25 26  1  0  0  0  0
 25 27  1  0  0  0  0
 26 27  1  0  0  0  0
 54 55  1  0  0  0  0
 54 58  1  0  0  0  0
 55 56  1  0  0  0  0
 55 57  1  0  0  0  0
 55 58  1  0  0  0  0
 56 57  1  0  0  0  0
 56 59  1  0  0  0  0
 57 60  1  0  0  0  0
 57 61  1  0  0  0  0
 58 62  1  0  0  0  0
 58 63  1  0  0  0  0
 59 60  1  0  0  0  0
 59 63  1  0  0  0  0
 60 61  1  0  0  0  0
 60 64  1  0  0  0  0
 61 62  1  0  0  0  0
 61 64  1  0  0  0  0
 62 63  1  0  0  0  0
 62 64  1  0  0  0  0
 63 64  1  0  0  0  0
M  END
$$$$
ECBIRP

From CSD data. Using bond type 'Any'. Matching problem. Disorder unknown. Sizes unknown.
  0  0  0  0  0  0  0  0  0  0999 V2000
M  END
$$$$
EDETOA

From CSD data. Using bond type 'Any'. No disordered atoms. Largest molecule.
106111  0  0  0  0  0  0  0  0999 V2000
    7.2147    4.9836    9.2770 Ir  0  0  0  0  0  0  0  0  0  0  0  0
    8.8205    4.4165    7.7312 P   0  0  0  0  0  0  0  0  0  0  0  0
    6.1323    5.3874   11.2854 P   0  0  0  0  0  0  0  0  0  0  0  0
    8.4970    3.9413   10.5563 N   0  0  0  0  0  0  0  0  0  0  0  0
    8.0031    3.4718   11.7790 C   0  0  0  0  0  0  0  0  0  0  0  0
    6.8564    4.0781   12.3152 C   0  0  0  0  0  0  0  0  0  0  0  0
    6.3406    3.6485   13.5517 C   0  0  0  0  0  0  0  0  0  0  0  0
    5.5938    4.1044   13.9220 H   0  0  0  0  0  0  0  0  0  0  0  0
    6.8948    2.5690   14.2486 C   0  0  0  0  0  0  0  0  0  0  0  0
    7.9663    1.9225   13.6478 C   0  0  0  0  0  0  0  0  0  0  0  0
    8.3357    1.1579   14.0740 H   0  0  0  0  0  0  0  0  0  0  0  0
    8.5179    2.3500   12.4531 C   0  0  0  0  0  0  0  0  0  0  0  0
    9.2538    1.8784   12.0811 H   0  0  0  0  0  0  0  0  0  0  0  0
    6.3626    2.1378   15.5795 C   0  0  0  0  0  0  0  0  0  0  0  0
    6.9480    2.4739   16.2904 H   0  0  0  0  0  0  0  0  0  0  0  0
    6.3309    1.1596   15.6179 H   0  0  0  0  0  0  0  0  0  0  0  0
    5.4604    2.5003   15.7035 H   0  0  0  0  0  0  0  0  0  0  0  0
    9.8231    3.7795   10.1931 C   0  0  0  0  0  0  0  0  0  0  0  0
   10.8976    3.5568   11.0960 C   0  0  0  0  0  0  0  0  0  0  0  0
   10.7190    3.4851   12.0270 H   0  0  0  0  0  0  0  0  0  0  0  0
   12.1969    3.4419   10.6437 C   0  0  0  0  0  0  0  0  0  0  0  0
   12.8892    3.2965   11.2777 H   0  0  0  0  0  0  0  0  0  0  0  0
   12.5275    3.5298    9.3075 C   0  0  0  0  0  0  0  0  0  0  0  0
   11.4912    3.7828    8.4308 C   0  0  0  0  0  0  0  0  0  0  0  0
   11.6915    3.8505    7.5051 H   0  0  0  0  0  0  0  0  0  0  0  0
   10.1916    3.9402    8.8272 C   0  0  0  0  0  0  0  0  0  0  0  0
   13.9746    3.4141    8.8464 C   0  0  0  0  0  0  0  0  0  0  0  0
   14.5356    4.0195    9.3739 H   0  0  0  0  0  0  0  0  0  0  0  0
   14.0345    3.6555    7.8980 H   0  0  0  0  0  0  0  0  0  0  0  0
   14.2834    2.4918    8.9687 H   0  0  0  0  0  0  0  0  0  0  0  0
    6.6021    6.9705   12.1300 C   0  0  0  0  0  0  0  0  0  0  0  0
    6.1421    7.7138   11.6445 H   0  0  0  0  0  0  0  0  0  0  0  0
    8.1130    7.2044   11.9955 C   0  0  0  0  0  0  0  0  0  0  0  0
    8.5973    6.4473   12.3868 H   0  0  0  0  0  0  0  0  0  0  0  0
    8.3597    8.0284   12.4671 H   0  0  0  0  0  0  0  0  0  0  0  0
    8.3483    7.2885   11.0489 H   0  0  0  0  0  0  0  0  0  0  0  0
    6.1878    7.0626   13.6041 C   0  0  0  0  0  0  0  0  0  0  0  0
    5.2191    6.9387   13.6792 H   0  0  0  0  0  0  0  0  0  0  0  0
    6.4326    7.9445   13.9569 H   0  0  0  0  0  0  0  0  0  0  0  0
    6.6482    6.3668   14.1176 H   0  0  0  0  0  0  0  0  0  0  0  0
    4.3313    5.2405   11.5973 C   0  0  0  0  0  0  0  0  0  0  0  0
    4.1841    5.2255   12.5876 H   0  0  0  0  0  0  0  0  0  0  0  0
    3.8259    3.9084   11.0122 C   0  0  0  0  0  0  0  0  0  0  0  0
    3.1256    4.1230   10.3922 H   0  0  0  0  0  0  0  0  0  0  0  0
    3.4644    3.3871   11.7335 H   0  0  0  0  0  0  0  0  0  0  0  0
    4.5071    3.4047   10.5633 H   0  0  0  0  0  0  0  0  0  0  0  0
    3.5226    6.4013   11.0070 C   0  0  0  0  0  0  0  0  0  0  0  0
    3.7395    7.2278   11.4890 H   0  0  0  0  0  0  0  0  0  0  0  0
    2.5663    6.2110   11.0978 H   0  0  0  0  0  0  0  0  0  0  0  0
    3.7477    6.5071   10.0603 H   0  0  0  0  0  0  0  0  0  0  0  0
    8.6432    2.9525    6.6527 C   0  0  0  0  0  0  0  0  0  0  0  0
    7.9510    3.1379    5.9698 H   0  0  0  0  0  0  0  0  0  0  0  0
    9.4989    2.7954    6.1794 H   0  0  0  0  0  0  0  0  0  0  0  0
    8.2721    1.7246    7.3950 C   0  0  0  0  0  0  0  0  0  0  0  0
    8.2288    0.9681    6.7750 H   0  0  0  0  0  0  0  0  0  0  0  0
    7.3960    1.8505    7.8177 H   0  0  0  0  0  0  0  0  0  0  0  0
    8.9441    1.5445    8.0849 H   0  0  0  0  0  0  0  0  0  0  0  0
    9.5634    5.6920    6.6265 C   0  0  0  0  0  0  0  0  0  0  0  0
    9.6205    6.5488    7.1191 H   0  0  0  0  0  0  0  0  0  0  0  0
   10.4859    5.4162    6.3942 H   0  0  0  0  0  0  0  0  0  0  0  0
    8.7743    5.9115    5.3410 C   0  0  0  0  0  0  0  0  0  0  0  0
    8.9022    5.1450    4.7455 H   0  0  0  0  0  0  0  0  0  0  0  0
    9.0915    6.7270    4.8992 H   0  0  0  0  0  0  0  0  0  0  0  0
    7.8225    6.0047    5.5541 H   0  0  0  0  0  0  0  0  0  0  0  0
    5.6659    4.7727    7.9557 B   0  0  0  0  0  0  0  0  0  0  0  0
    5.8079    4.0080    6.8064 O   0  0  0  0  0  0  0  0  0  0  0  0
    4.3651    5.2883    7.9871 O   0  0  0  0  0  0  0  0  0  0  0  0
    4.4808    3.6876    6.3209 C   0  0  0  0  0  0  0  0  0  0  0  0
    4.0585    2.3732    7.0946 C   0  0  0  0  0  0  0  0  0  0  0  0
    4.8118    1.7481    7.1121 H   0  0  0  0  0  0  0  0  0  0  0  0
    3.2985    1.9567    6.6370 H   0  0  0  0  0  0  0  0  0  0  0  0
    3.8017    2.6027    8.0116 H   0  0  0  0  0  0  0  0  0  0  0  0
    4.5584    3.3450    4.8590 C   0  0  0  0  0  0  0  0  0  0  0  0
    4.8624    4.1282    4.3542 H   0  0  0  0  0  0  0  0  0  0  0  0
    3.6732    3.0746    4.5394 H   0  0  0  0  0  0  0  0  0  0  0  0
    5.1923    2.6083    4.7297 H   0  0  0  0  0  0  0  0  0  0  0  0
    3.6894    4.8418    6.7907 C   0  0  0  0  0  0  0  0  0  0  0  0
    2.2322    4.6058    7.1435 C   0  0  0  0  0  0  0  0  0  0  0  0
    2.1655    3.8543    7.7671 H   0  0  0  0  0  0  0  0  0  0  0  0
    1.7277    4.4001    6.3279 H   0  0  0  0  0  0  0  0  0  0  0  0
    1.8634    5.4122    7.5610 H   0  0  0  0  0  0  0  0  0  0  0  0
    3.7916    5.9845    5.7113 C   0  0  0  0  0  0  0  0  0  0  0  0
    3.3873    6.8046    6.0641 H   0  0  0  0  0  0  0  0  0  0  0  0
    3.3163    5.7096    4.8992 H   0  0  0  0  0  0  0  0  0  0  0  0
    4.7344    6.1491    5.4982 H   0  0  0  0  0  0  0  0  0  0  0  0
    6.7201    6.8347    8.5687 B   0  0  0  0  0  0  0  0  0  0  0  0
    6.9614    7.3546    7.2920 O   0  0  0  0  0  0  0  0  0  0  0  0
    6.1170    7.8055    9.3442 O   0  0  0  0  0  0  0  0  0  0  0  0
    6.8543    8.7845    7.3426 C   0  0  0  0  0  0  0  0  0  0  0  0
    8.2335    9.4125    7.5924 C   0  0  0  0  0  0  0  0  0  0  0  0
    8.5869    9.0943    8.4500 H   0  0  0  0  0  0  0  0  0  0  0  0
    8.1478   10.3873    7.6151 H   0  0  0  0  0  0  0  0  0  0  0  0
    8.8444    9.1541    6.8711 H   0  0  0  0  0  0  0  0  0  0  0  0
    6.2828    9.2691    6.0205 C   0  0  0  0  0  0  0  0  0  0  0  0
    6.8418    8.9444    5.2834 H   0  0  0  0  0  0  0  0  0  0  0  0
    6.2662   10.2487    6.0117 H   0  0  0  0  0  0  0  0  0  0  0  0
    5.3699    8.9253    5.9139 H   0  0  0  0  0  0  0  0  0  0  0  0
    5.9269    9.0022    8.5670 C   0  0  0  0  0  0  0  0  0  0  0  0
    4.4217    9.0406    8.1670 C   0  0  0  0  0  0  0  0  0  0  0  0
    4.1986    8.2391    7.6885 H   0  0  0  0  0  0  0  0  0  0  0  0
    4.2585    9.8032    7.6099 H   0  0  0  0  0  0  0  0  0  0  0  0
    3.8808    9.1004    8.9582 H   0  0  0  0  0  0  0  0  0  0  0  0
    6.2107   10.1543    9.4927 C   0  0  0  0  0  0  0  0  0  0  0  0
    5.5291   10.1840   10.1965 H   0  0  0  0  0  0  0  0  0  0  0  0
    6.1941   10.9929    8.9862 H   0  0  0  0  0  0  0  0  0  0  0  0
    7.0959   10.0379    9.8996 H   0  0  0  0  0  0  0  0  0  0  0  0
  1  2  1  0  0  0  0
  2 26  1  0  0  0  0
  3  1  1  0  0  0  0
  4  1  1  0  0  0  0
  5  4  1  0  0  0  0
  6  3  1  0  0  0  0
  7  6  4  0  0  0  0
  8  7  1  0  0  0  0
  9  7  4  0  0  0  0
 10  9  4  0  0  0  0
 11 10  1  0  0  0  0
 12  5  4  0  0  0  0
 13 12  1  0  0  0  0
 14  9  1  0  0  0  0
 15 14  1  0  0  0  0
 16 14  1  0  0  0  0
 17 14  1  0  0  0  0
 18  4  1  0  0  0  0
 19 18  4  0  0  0  0
 20 19  1  0  0  0  0
 21 19  4  0  0  0  0
 22 21  1  0  0  0  0
 23 21  4  0  0  0  0
 24 23  4  0  0  0  0
 25 24  1  0  0  0  0
 26 18  4  0  0  0  0
 27 23  1  0  0  0  0
 28 27  1  0  0  0  0
 29 27  1  0  0  0  0
 30 27  1  0  0  0  0
 31  3  1  0  0  0  0
 32 31  1  0  0  0  0
 33 31  1  0  0  0  0
 34 33  1  0  0  0  0
 35 33  1  0  0  0  0
 36 33  1  0  0  0  0
 37 31  1  0  0  0  0
 38 37  1  0  0  0  0
 39 37  1  0  0  0  0
 40 37  1  0  0  0  0
 41  3  1  0  0  0  0
 42 41  1  0  0  0  0
 43 41  1  0  0  0  0
 44 43  1  0  0  0  0
 45 43  1  0  0  0  0
 46 43  1  0  0  0  0
 47 41  1  0  0  0  0
 48 47  1  0  0  0  0
 49 47  1  0  0  0  0
 50 47  1  0  0  0  0
 51  2  1  0  0  0  0
 52 51  1  0  0  0  0
 53 51  1  0  0  0  0
 54 51  1  0  0  0  0
 55 54  1  0  0  0  0
 56 54  1  0  0  0  0
 57 54  1  0  0  0  0
 58  2  1  0  0  0  0
 59 58  1  0  0  0  0
 60 58  1  0  0  0  0
 61 58  1  0  0  0  0
 62 61  1  0  0  0  0
 63 61  1  0  0  0  0
 64 61  1  0  0  0  0
 65  1  1  0  0  0  0
 66 65  1  0  0  0  0
 67 65  1  0  0  0  0
 68 66  1  0  0  0  0
 69 68  1  0  0  0  0
 70 69  1  0  0  0  0
 71 69  1  0  0  0  0
 72 69  1  0  0  0  0
 73 68  1  0  0  0  0
 74 73  1  0  0  0  0
 75 73  1  0  0  0  0
 76 73  1  0  0  0  0
 77 67  1  0  0  0  0
 78 77  1  0  0  0  0
 79 78  1  0  0  0  0
 80 78  1  0  0  0  0
 81 78  1  0  0  0  0
 82 77  1  0  0  0  0
 83 82  1  0  0  0  0
 84 82  1  0  0  0  0
 85 82  1  0  0  0  0
 86  1  1  0  0  0  0
 87 86  1  0  0  0  0
 88 86  1  0  0  0  0
 89 87  1  0  0  0  0
 90 89  1  0  0  0  0
 91 90  1  0  0  0  0
 92 90  1  0  0  0  0
 93 90  1  0  0  0  0
 94 89  1  0  0  0  0
 95 94  1  0  0  0  0
 96 94  1  0  0  0  0
 97 94  1  0  0  0  0
 98 88  1  0  0  0  0
 99 98  1  0  0  0  0
100 99  1  0  0  0  0
101 99  1  0  0  0  0
102 99  1  0  0  0  0
103 98  1  0  0  0  0
104103  1  0  0  0  0
105103  1  0  0  0  0
106103  1  0  0  0  0
  5  6  4  0  0  0  0
 10 12  4  0  0  0  0
 24 26  4  0  0  0  0
 68 77  1  0  0  0  0
 89 98  1  0  0  0  0
M  END
$$$$
EDEYIY01

From CSD data. Using bond type 'Any'. No disordered atoms. Largest molecule.
 96104  0  0  0  0  0  0  0  0999 V2000
   -3.2828   -1.3099    4.6342 C   0  0  0  0  0  0  0  0  0  0  0  0
   -3.4456   -2.3891    3.7692 C   0  0  0  0  0  0  0  0  0  0  0  0
   -4.5374   -3.2361    3.8271 C   0  0  0  0  0  0  0  0  0  0  0  0
   -5.5139   -3.0443    4.7761 C   0  0  0  0  0  0  0  0  0  0  0  0
   -5.3878   -2.0013    5.6700 C   0  0  0  0  0  0  0  0  0  0  0  0
   -4.2944   -1.1738    5.5760 C   0  0  0  0  0  0  0  0  0  0  0  0
   -1.2728   -0.2635    6.0722 C   0  0  0  0  0  0  0  0  0  0  0  0
   -1.1803    0.7393    7.0306 C   0  0  0  0  0  0  0  0  0  0  0  0
   -0.4038    0.6175    8.1649 C   0  0  0  0  0  0  0  0  0  0  0  0
    0.2955   -0.5360    8.4082 C   0  0  0  0  0  0  0  0  0  0  0  0
    0.2082   -1.5744    7.5118 C   0  0  0  0  0  0  0  0  0  0  0  0
   -0.5628   -1.4154    6.3841 C   0  0  0  0  0  0  0  0  0  0  0  0
   -1.8344    2.5908    0.0775 C   0  0  0  0  0  0  0  0  0  0  0  0
   -0.9028    3.6092   -0.0578 C   0  0  0  0  0  0  0  0  0  0  0  0
   -1.0777    4.6878   -0.9053 C   0  0  0  0  0  0  0  0  0  0  0  0
   -2.2249    4.7717   -1.6728 C   0  0  0  0  0  0  0  0  0  0  0  0
   -3.1649    3.7730   -1.5997 C   0  0  0  0  0  0  0  0  0  0  0  0
   -2.9470    2.7170   -0.7420 C   0  0  0  0  0  0  0  0  0  0  0  0
   -1.4721   -0.0515    0.0750 C   0  0  0  0  0  0  0  0  0  0  0  0
   -0.2760   -0.1239   -0.6390 C   0  0  0  0  0  0  0  0  0  0  0  0
    0.0866   -1.1949   -1.4285 C   0  0  0  0  0  0  0  0  0  0  0  0
   -0.7849   -2.2453   -1.5672 C   0  0  0  0  0  0  0  0  0  0  0  0
   -1.9909   -2.2126   -0.9244 C   0  0  0  0  0  0  0  0  0  0  0  0
   -2.3152   -1.1317   -0.1148 C   0  0  0  0  0  0  0  0  0  0  0  0
    0.9090    1.2727    4.1657 C   0  0  0  0  0  0  0  0  0  0  0  0
    0.6792    2.6326    4.3596 C   0  0  0  0  0  0  0  0  0  0  0  0
    0.1217    3.1012    3.7804 H   0  0  0  0  0  0  0  0  0  0  0  0
    1.2876    3.2815    5.4181 C   0  0  0  0  0  0  0  0  0  0  0  0
    1.1285    4.1872    5.5584 H   0  0  0  0  0  0  0  0  0  0  0  0
    2.1313    2.5910    6.2699 C   0  0  0  0  0  0  0  0  0  0  0  0
    2.5311    3.0351    6.9828 H   0  0  0  0  0  0  0  0  0  0  0  0
    2.3854    1.2532    6.0731 C   0  0  0  0  0  0  0  0  0  0  0  0
    2.9630    0.8005    6.6427 H   0  0  0  0  0  0  0  0  0  0  0  0
    1.7812    0.5863    5.0277 C   0  0  0  0  0  0  0  0  0  0  0  0
    1.9508   -0.3185    4.8936 H   0  0  0  0  0  0  0  0  0  0  0  0
    1.1131   -0.8049    2.1376 C   0  0  0  0  0  0  0  0  0  0  0  0
    2.2998   -0.3491    1.5910 C   0  0  0  0  0  0  0  0  0  0  0  0
    2.5351    0.5465    1.6737 H   0  0  0  0  0  0  0  0  0  0  0  0
    3.1368   -1.2274    0.9215 C   0  0  0  0  0  0  0  0  0  0  0  0
    3.9297   -0.9224    0.5470 H   0  0  0  0  0  0  0  0  0  0  0  0
    2.7879   -2.5562    0.8135 C   0  0  0  0  0  0  0  0  0  0  0  0
    3.3481   -3.1430    0.3595 H   0  0  0  0  0  0  0  0  0  0  0  0
    1.6179   -3.0276    1.3709 C   0  0  0  0  0  0  0  0  0  0  0  0
    1.3973   -3.9279    1.3007 H   0  0  0  0  0  0  0  0  0  0  0  0
    0.7716   -2.1548    2.0378 C   0  0  0  0  0  0  0  0  0  0  0  0
   -0.0187   -2.4660    2.4159 H   0  0  0  0  0  0  0  0  0  0  0  0
   -3.4559    3.4209    3.2914 C   0  0  0  0  0  0  0  0  0  0  0  0
   -3.0005    4.0650    4.4390 C   0  0  0  0  0  0  0  0  0  0  0  0
   -2.5940    3.5833    5.1236 H   0  0  0  0  0  0  0  0  0  0  0  0
   -3.1649    5.4447    4.5424 C   0  0  0  0  0  0  0  0  0  0  0  0
   -2.8627    5.8892    5.3014 H   0  0  0  0  0  0  0  0  0  0  0  0
   -3.7679    6.1551    3.5330 C   0  0  0  0  0  0  0  0  0  0  0  0
   -3.8883    7.0726    3.6219 H   0  0  0  0  0  0  0  0  0  0  0  0
   -4.1958    5.5181    2.3880 C   0  0  0  0  0  0  0  0  0  0  0  0
   -4.5782    6.0075    1.6950 H   0  0  0  0  0  0  0  0  0  0  0  0
   -4.0541    4.1475    2.2746 C   0  0  0  0  0  0  0  0  0  0  0  0
   -4.3616    3.7121    1.5133 H   0  0  0  0  0  0  0  0  0  0  0  0
   -5.1607    1.0759    3.3320 C   0  0  0  0  0  0  0  0  0  0  0  0
   -5.9620    1.6850    4.2987 C   0  0  0  0  0  0  0  0  0  0  0  0
   -5.6279    2.3772    4.8202 H   0  0  0  0  0  0  0  0  0  0  0  0
   -7.2671    1.2405    4.4688 C   0  0  0  0  0  0  0  0  0  0  0  0
   -7.8167    1.6446    5.1004 H   0  0  0  0  0  0  0  0  0  0  0  0
   -7.7449    0.2043    3.7025 C   0  0  0  0  0  0  0  0  0  0  0  0
   -8.6163   -0.0940    3.8287 H   0  0  0  0  0  0  0  0  0  0  0  0
   -6.9520   -0.3991    2.7508 C   0  0  0  0  0  0  0  0  0  0  0  0
   -7.2872   -1.1034    2.2439 H   0  0  0  0  0  0  0  0  0  0  0  0
   -5.6494    0.0479    2.5492 C   0  0  0  0  0  0  0  0  0  0  0  0
   -5.1144   -0.3411    1.8960 H   0  0  0  0  0  0  0  0  0  0  0  0
   -1.0760   -0.5459    3.5666 O   0  0  0  0  0  0  0  0  0  0  0  0
   -0.5772    1.4030    1.9945 O   0  0  0  0  0  0  0  0  0  0  0  0
   -2.9839    1.1103    1.8202 O   0  0  0  0  0  0  0  0  0  0  0  0
   -2.5945    1.1580    4.3604 O   0  0  0  0  0  0  0  0  0  0  0  0
    0.0106    0.3460    2.9431 P   0  3  0  0  0  0  0  0  0  0  0  0
   -3.4589    1.6376    3.1806 P   0  3  0  0  0  0  0  0  0  0  0  0
   -2.0638   -0.2226    4.6493 B   0  5  0  0  0  0  0  0  0  0  0  0
   -1.7124    1.2633    1.0145 B   0  5  0  0  0  0  0  0  0  0  0  0
   -2.5421   -2.6531    2.8100 F   0  0  0  0  0  0  0  0  0  0  0  0
   -4.6571   -4.2352    2.9391 F   0  0  0  0  0  0  0  0  0  0  0  0
   -6.5713   -3.8605    4.8401 F   0  0  0  0  0  0  0  0  0  0  0  0
   -6.3416   -1.7896    6.5884 F   0  0  0  0  0  0  0  0  0  0  0  0
   -4.2317   -0.1540    6.4610 F   0  0  0  0  0  0  0  0  0  0  0  0
   -1.8293    1.9074    6.8661 F   0  0  0  0  0  0  0  0  0  0  0  0
   -0.3067    1.6505    9.0406 F   0  0  0  0  0  0  0  0  0  0  0  0
    1.0756   -0.6432    9.4965 F   0  0  0  0  0  0  0  0  0  0  0  0
    0.8890   -2.7103    7.7356 F   0  0  0  0  0  0  0  0  0  0  0  0
   -0.5766   -2.4597    5.5126 F   0  0  0  0  0  0  0  0  0  0  0  0
    0.2490    3.5916    0.6409 F   0  0  0  0  0  0  0  0  0  0  0  0
   -0.1460    5.6457   -0.9922 F   0  0  0  0  0  0  0  0  0  0  0  0
   -2.4200    5.8187   -2.4855 F   0  0  0  0  0  0  0  0  0  0  0  0
   -4.2703    3.8384   -2.3598 F   0  0  0  0  0  0  0  0  0  0  0  0
   -3.9053    1.7586   -0.7215 F   0  0  0  0  0  0  0  0  0  0  0  0
    0.6078    0.8900   -0.5539 F   0  0  0  0  0  0  0  0  0  0  0  0
    1.2792   -1.2095   -2.0516 F   0  0  0  0  0  0  0  0  0  0  0  0
   -0.4594   -3.2984   -2.3380 F   0  0  0  0  0  0  0  0  0  0  0  0
   -2.8504   -3.2330   -1.0626 F   0  0  0  0  0  0  0  0  0  0  0  0
   -3.5326   -1.1792    0.4588 F   0  0  0  0  0  0  0  0  0  0  0  0
  1  2  4  0  0  0  0
  2  3  4  0  0  0  0
  3  4  4  0  0  0  0
  4  5  4  0  0  0  0
  5  6  4  0  0  0  0
  6  1  4  0  0  0  0
  7  8  4  0  0  0  0
  8  9  4  0  0  0  0
  9 10  4  0  0  0  0
 10 11  4  0  0  0  0
 11 12  4  0  0  0  0
 12  7  4  0  0  0  0
 13 14  4  0  0  0  0
 14 15  4  0  0  0  0
 15 16  4  0  0  0  0
 16 17  4  0  0  0  0
 17 18  4  0  0  0  0
 18 13  4  0  0  0  0
 19 20  4  0  0  0  0
 20 21  4  0  0  0  0
 21 22  4  0  0  0  0
 22 23  4  0  0  0  0
 23 24  4  0  0  0  0
 24 19  4  0  0  0  0
 25 26  4  0  0  0  0
 26 27  1  0  0  0  0
 28 26  4  0  0  0  0
 29 28  1  0  0  0  0
 30 28  4  0  0  0  0
 31 30  1  0  0  0  0
 32 30  4  0  0  0  0
 33 32  1  0  0  0  0
 34 25  4  0  0  0  0
 35 34  1  0  0  0  0
 36 37  4  0  0  0  0
 37 38  1  0  0  0  0
 39 37  4  0  0  0  0
 40 39  1  0  0  0  0
 41 39  4  0  0  0  0
 42 41  1  0  0  0  0
 43 41  4  0  0  0  0
 44 43  1  0  0  0  0
 45 36  4  0  0  0  0
 46 45  1  0  0  0  0
 47 48  4  0  0  0  0
 48 49  1  0  0  0  0
 50 48  4  0  0  0  0
 51 50  1  0  0  0  0
 52 50  4  0  0  0  0
 53 52  1  0  0  0  0
 54 52  4  0  0  0  0
 55 54  1  0  0  0  0
 56 47  4  0  0  0  0
 57 56  1  0  0  0  0
 58 59  4  0  0  0  0
 59 60  1  0  0  0  0
 61 59  4  0  0  0  0
 62 61  1  0  0  0  0
 63 61  4  0  0  0  0
 64 63  1  0  0  0  0
 65 63  4  0  0  0  0
 66 65  1  0  0  0  0
 67 58  4  0  0  0  0
 68 67  1  0  0  0  0
 69 73  1  0  0  0  0
 70 73  1  0  0  0  0
 71 74  1  0  0  0  0
 72 74  1  0  0  0  0
 73 25  1  0  0  0  0
 74 47  1  0  0  0  0
 75  1  1  0  0  0  0
 76 13  1  0  0  0  0
 77  2  1  0  0  0  0
 78  3  1  0  0  0  0
 79  4  1  0  0  0  0
 80  5  1  0  0  0  0
 81  6  1  0  0  0  0
 82  8  1  0  0  0  0
 83  9  1  0  0  0  0
 84 10  1  0  0  0  0
 85 11  1  0  0  0  0
 86 12  1  0  0  0  0
 87 14  1  0  0  0  0
 88 15  1  0  0  0  0
 89 16  1  0  0  0  0
 90 17  1  0  0  0  0
 91 18  1  0  0  0  0
 92 20  1  0  0  0  0
 93 21  1  0  0  0  0
 94 22  1  0  0  0  0
 95 23  1  0  0  0  0
 96 24  1  0  0  0  0
  7 75  1  0  0  0  0
 19 76  1  0  0  0  0
 32 34  4  0  0  0  0
 36 73  1  0  0  0  0
 43 45  4  0  0  0  0
 54 56  4  0  0  0  0
 58 74  1  0  0  0  0
 65 67  4  0  0  0  0
 69 75  1  0  0  0  0
 70 76  1  0  0  0  0
 71 76  1  0  0  0  0
 72 75  1  0  0  0  0
M  CHG  4  73   1  74   1  75  -1  76  -1
M  END
$$$$
EDIZAT

From CSD data. Using bond type 'Any'. No disordered atoms. Largest molecule.
147187  0  0  0  0  0  0  0  0999 V2000
    6.0360    9.2684    1.9637 Ru  0  0  0  0  0  0  0  0  0  0  0  0
    5.5876    6.4509    2.9156 Ru  0  0  0  0  0  0  0  0  0  0  0  0
    2.0619   12.9335    3.8201 Fe  0  0  0  0  0  0  0  0  0  0  0  0
    6.7175    7.4739    1.2930 B   0  0  0  0  0  0  0  0  0  0  0  0
    4.9444   10.4414    0.6954 B   0  0  0  0  0  0  0  0  0  0  0  0
    5.0359    7.5170    0.9904 B   0  0  0  0  0  0  0  0  0  0  0  0
    4.0940    8.9131    0.6705 B   0  0  0  0  0  0  0  0  0  0  0  0
    3.0535    8.8777    1.0191 H   0  0  0  0  0  0  0  0  0  0  0  0
    6.4071   10.1339   -0.1973 B   0  0  0  0  0  0  0  0  0  0  0  0
    7.0414   10.9872   -0.4789 H   0  0  0  0  0  0  0  0  0  0  0  0
    7.2862    8.6609    0.1532 B   0  0  0  0  0  0  0  0  0  0  0  0
    8.3756    8.8024    0.0747 H   0  0  0  0  0  0  0  0  0  0  0  0
    6.2790    7.2202   -0.3506 B   0  0  0  0  0  0  0  0  0  0  0  0
    6.6081    6.2916   -0.8410 H   0  0  0  0  0  0  0  0  0  0  0  0
    4.7499    9.6849   -0.8524 B   0  0  0  0  0  0  0  0  0  0  0  0
    4.1767   10.2061   -1.6340 H   0  0  0  0  0  0  0  0  0  0  0  0
    4.6721    7.9306   -0.7030 B   0  0  0  0  0  0  0  0  0  0  0  0
    3.9793    7.3602   -1.3371 H   0  0  0  0  0  0  0  0  0  0  0  0
    6.1603    8.7178   -1.2643 B   0  0  0  0  0  0  0  0  0  0  0  0
    6.5069    8.7101   -2.3083 H   0  0  0  0  0  0  0  0  0  0  0  0
    6.8336    6.2682    4.9488 Cl  0  0  0  0  0  0  0  0  0  0  0  0
    5.0701   10.8596    3.1512 O   0  0  0  0  0  0  0  0  0  0  0  0
    4.4001   11.6545    1.1992 O   0  0  0  0  0  0  0  0  0  0  0  0
    8.1253    9.9275    3.0736 P   0  0  0  0  0  0  0  0  0  0  0  0
    5.7567    4.1767    2.2160 P   0  0  0  0  0  0  0  0  0  0  0  0
    3.6335    6.3612    4.1739 P   0  0  0  0  0  0  0  0  0  0  0  0
    4.4979   11.7513    2.4980 C   0  0  0  0  0  0  0  0  0  0  0  0
    3.9490   12.9276    3.1378 C   0  0  0  0  0  0  0  0  0  0  0  0
    3.1991   13.9731    2.5133 C   0  0  0  0  0  0  0  0  0  0  0  0
    3.0376   14.0745    1.6034 H   0  0  0  0  0  0  0  0  0  0  0  0
    2.7466   14.8233    3.5535 C   0  0  0  0  0  0  0  0  0  0  0  0
    2.2289   15.5859    3.4347 H   0  0  0  0  0  0  0  0  0  0  0  0
    3.1959   14.3436    4.7660 C   0  0  0  0  0  0  0  0  0  0  0  0
    3.0329   14.7280    5.5974 H   0  0  0  0  0  0  0  0  0  0  0  0
    3.9470   13.1689    4.5304 C   0  0  0  0  0  0  0  0  0  0  0  0
    4.3646   12.6477    5.1779 H   0  0  0  0  0  0  0  0  0  0  0  0
    1.2528   11.3562    4.8120 C   0  0  0  0  0  0  0  0  0  0  0  0
    1.6559   10.8334    5.4671 H   0  0  0  0  0  0  0  0  0  0  0  0
    1.2857   11.1225    3.4749 C   0  0  0  0  0  0  0  0  0  0  0  0
    1.7458   10.4260    3.0650 H   0  0  0  0  0  0  0  0  0  0  0  0
    0.5637   12.0358    2.8428 C   0  0  0  0  0  0  0  0  0  0  0  0
    0.4167   12.0788    1.9252 H   0  0  0  0  0  0  0  0  0  0  0  0
    0.0474   12.9491    3.8255 C   0  0  0  0  0  0  0  0  0  0  0  0
   -0.4926   13.6886    3.6665 H   0  0  0  0  0  0  0  0  0  0  0  0
    0.5090   12.5186    5.0304 C   0  0  0  0  0  0  0  0  0  0  0  0
    0.3564   12.9260    5.8522 H   0  0  0  0  0  0  0  0  0  0  0  0
    8.7211   11.6145    2.6646 C   0  0  0  0  0  0  0  0  0  0  0  0
    8.0269   12.4340    1.8217 C   0  0  0  0  0  0  0  0  0  0  0  0
    7.2514   12.1157    1.4214 H   0  0  0  0  0  0  0  0  0  0  0  0
    8.4457   13.7255    1.5421 C   0  0  0  0  0  0  0  0  0  0  0  0
    7.9619   14.2652    0.9597 H   0  0  0  0  0  0  0  0  0  0  0  0
    9.5897   14.1914    2.1455 C   0  0  0  0  0  0  0  0  0  0  0  0
    9.8786   15.0601    1.9807 H   0  0  0  0  0  0  0  0  0  0  0  0
   10.2933   13.3996    2.9711 C   0  0  0  0  0  0  0  0  0  0  0  0
   11.0784   13.7148    3.3542 H   0  0  0  0  0  0  0  0  0  0  0  0
    9.8609   12.1265    3.2527 C   0  0  0  0  0  0  0  0  0  0  0  0
   10.3447   11.6022    3.8485 H   0  0  0  0  0  0  0  0  0  0  0  0
    8.0719   10.1046    4.9040 C   0  0  0  0  0  0  0  0  0  0  0  0
    7.2415   11.1379    5.3656 C   0  0  0  0  0  0  0  0  0  0  0  0
    6.7260   11.6207    4.7603 H   0  0  0  0  0  0  0  0  0  0  0  0
    7.1785   11.4408    6.6970 C   0  0  0  0  0  0  0  0  0  0  0  0
    6.6863   12.1665    7.0054 H   0  0  0  0  0  0  0  0  0  0  0  0
    7.8790   10.6259    7.5686 C   0  0  0  0  0  0  0  0  0  0  0  0
    7.7228   10.7243    8.4804 H   0  0  0  0  0  0  0  0  0  0  0  0
    8.7431    9.7264    7.1854 C   0  0  0  0  0  0  0  0  0  0  0  0
    9.2679    9.2682    7.8023 H   0  0  0  0  0  0  0  0  0  0  0  0
    8.8611    9.4604    5.7353 C   0  0  0  0  0  0  0  0  0  0  0  0
    9.4837    8.8485    5.4173 H   0  0  0  0  0  0  0  0  0  0  0  0
    9.5550    8.8577    2.6953 C   0  0  0  0  0  0  0  0  0  0  0  0
   10.5645    9.2575    1.7911 C   0  0  0  0  0  0  0  0  0  0  0  0
   10.5380   10.1062    1.4118 H   0  0  0  0  0  0  0  0  0  0  0  0
   11.5800    8.3980    1.4731 C   0  0  0  0  0  0  0  0  0  0  0  0
   12.2374    8.6747    0.8754 H   0  0  0  0  0  0  0  0  0  0  0  0
   11.6487    7.1634    2.0018 C   0  0  0  0  0  0  0  0  0  0  0  0
   12.3516    6.5975    1.7758 H   0  0  0  0  0  0  0  0  0  0  0  0
   10.6743    6.7375    2.8811 C   0  0  0  0  0  0  0  0  0  0  0  0
   10.7186    5.8826    3.2470 H   0  0  0  0  0  0  0  0  0  0  0  0
    9.6246    7.5846    3.2182 C   0  0  0  0  0  0  0  0  0  0  0  0
    8.9628    7.2894    3.8025 H   0  0  0  0  0  0  0  0  0  0  0  0
    7.1049    3.8961    0.9885 C   0  0  0  0  0  0  0  0  0  0  0  0
    8.3743    4.3650    1.3007 C   0  0  0  0  0  0  0  0  0  0  0  0
    8.4979    4.8817    2.0631 H   0  0  0  0  0  0  0  0  0  0  0  0
    9.4524    4.0760    0.4923 C   0  0  0  0  0  0  0  0  0  0  0  0
   10.2953    4.3989    0.7126 H   0  0  0  0  0  0  0  0  0  0  0  0
    9.2858    3.3165   -0.6302 C   0  0  0  0  0  0  0  0  0  0  0  0
   10.0143    3.1212   -1.1743 H   0  0  0  0  0  0  0  0  0  0  0  0
    8.0357    2.8398   -0.9521 C   0  0  0  0  0  0  0  0  0  0  0  0
    7.9261    2.3247   -1.7183 H   0  0  0  0  0  0  0  0  0  0  0  0
    6.9319    3.1181   -0.1494 C   0  0  0  0  0  0  0  0  0  0  0  0
    6.0913    2.7860   -0.3697 H   0  0  0  0  0  0  0  0  0  0  0  0
    6.1732    2.7353    3.2719 C   0  0  0  0  0  0  0  0  0  0  0  0
    6.9068    2.9167    4.4289 C   0  0  0  0  0  0  0  0  0  0  0  0
    7.1181    3.7731    4.7239 H   0  0  0  0  0  0  0  0  0  0  0  0
    7.3249    1.8066    5.1415 C   0  0  0  0  0  0  0  0  0  0  0  0
    7.8388    1.9342    5.9058 H   0  0  0  0  0  0  0  0  0  0  0  0
    7.0110    0.5335    4.7679 C   0  0  0  0  0  0  0  0  0  0  0  0
    7.2531   -0.1937    5.2947 H   0  0  0  0  0  0  0  0  0  0  0  0
    6.3409    0.3659    3.6167 C   0  0  0  0  0  0  0  0  0  0  0  0
    6.1537   -0.4966    3.3236 H   0  0  0  0  0  0  0  0  0  0  0  0
    5.9186    1.4407    2.8485 C   0  0  0  0  0  0  0  0  0  0  0  0
    5.4633    1.2931    2.0516 H   0  0  0  0  0  0  0  0  0  0  0  0
    4.2383    3.6532    1.3333 C   0  0  0  0  0  0  0  0  0  0  0  0
    3.3124    2.8675    1.9443 C   0  0  0  0  0  0  0  0  0  0  0  0
    3.4570    2.5584    2.8083 H   0  0  0  0  0  0  0  0  0  0  0  0
    2.1695    2.5369    1.2796 C   0  0  0  0  0  0  0  0  0  0  0  0
    1.5325    2.0065    1.6991 H   0  0  0  0  0  0  0  0  0  0  0  0
    1.9453    2.9797   -0.0057 C   0  0  0  0  0  0  0  0  0  0  0  0
    1.1861    2.7045   -0.4655 H   0  0  0  0  0  0  0  0  0  0  0  0
    2.8205    3.8085   -0.5919 C   0  0  0  0  0  0  0  0  0  0  0  0
    2.6423    4.1452   -1.4405 H   0  0  0  0  0  0  0  0  0  0  0  0
    3.9773    4.1575    0.0556 C   0  0  0  0  0  0  0  0  0  0  0  0
    4.5861    4.7294   -0.3544 H   0  0  0  0  0  0  0  0  0  0  0  0
    3.0671    4.7264    4.7794 C   0  0  0  0  0  0  0  0  0  0  0  0
    3.9732    3.9161    5.4806 C   0  0  0  0  0  0  0  0  0  0  0  0
    4.8492    4.1975    5.6070 H   0  0  0  0  0  0  0  0  0  0  0  0
    3.5529    2.6922    5.9863 C   0  0  0  0  0  0  0  0  0  0  0  0
    4.1532    2.1572    6.4537 H   0  0  0  0  0  0  0  0  0  0  0  0
    2.2693    2.2679    5.8005 C   0  0  0  0  0  0  0  0  0  0  0  0
    1.9990    1.4437    6.1357 H   0  0  0  0  0  0  0  0  0  0  0  0
    1.3871    3.0458    5.1300 C   0  0  0  0  0  0  0  0  0  0  0  0
    0.5115    2.7537    5.0151 H   0  0  0  0  0  0  0  0  0  0  0  0
    1.7757    4.2774    4.6147 C   0  0  0  0  0  0  0  0  0  0  0  0
    1.1611    4.8002    4.1530 H   0  0  0  0  0  0  0  0  0  0  0  0
    2.1076    6.9235    3.3217 C   0  0  0  0  0  0  0  0  0  0  0  0
    1.7909    6.4053    2.0727 C   0  0  0  0  0  0  0  0  0  0  0  0
    2.4206    5.8841    1.6302 H   0  0  0  0  0  0  0  0  0  0  0  0
    0.5819    6.6375    1.4731 C   0  0  0  0  0  0  0  0  0  0  0  0
    0.3824    6.2608    0.6456 H   0  0  0  0  0  0  0  0  0  0  0  0
   -0.3513    7.4539    2.1282 C   0  0  0  0  0  0  0  0  0  0  0  0
   -1.1747    7.6338    1.7355 H   0  0  0  0  0  0  0  0  0  0  0  0
   -0.0511    7.9675    3.3159 C   0  0  0  0  0  0  0  0  0  0  0  0
   -0.6707    8.5195    3.7374 H   0  0  0  0  0  0  0  0  0  0  0  0
    1.1627    7.7061    3.9538 C   0  0  0  0  0  0  0  0  0  0  0  0
    1.3327    8.0567    4.7986 H   0  0  0  0  0  0  0  0  0  0  0  0
    3.6685    7.3417    5.7277 C   0  0  0  0  0  0  0  0  0  0  0  0
    3.2061    6.8389    6.9230 C   0  0  0  0  0  0  0  0  0  0  0  0
    2.8551    5.9779    6.9517 H   0  0  0  0  0  0  0  0  0  0  0  0
    3.2536    7.6015    8.0954 C   0  0  0  0  0  0  0  0  0  0  0  0
    2.9897    7.2264    8.9057 H   0  0  0  0  0  0  0  0  0  0  0  0
    3.6819    8.8792    8.0551 C   0  0  0  0  0  0  0  0  0  0  0  0
    3.7094    9.3866    8.8348 H   0  0  0  0  0  0  0  0  0  0  0  0
    4.0758    9.4312    6.8579 C   0  0  0  0  0  0  0  0  0  0  0  0
    4.3326   10.3245    6.8215 H   0  0  0  0  0  0  0  0  0  0  0  0
    4.0953    8.6563    5.6970 C   0  0  0  0  0  0  0  0  0  0  0  0
    4.3950    9.0268    4.8982 H   0  0  0  0  0  0  0  0  0  0  0  0
    7.1755    6.7344    1.9922 H   0  0  0  0  0  0  0  0  0  0  0  0
    4.4764    6.7190    1.5325 H   0  0  0  0  0  0  0  0  0  0  0  0
  1  2  1  0  0  0  0
  2  4  1  0  0  0  0
  3 28  8  0  0  0  0
  4  1  1  0  0  0  0
  5  1  1  0  0  0  0
  6  1  1  0  0  0  0
  7  1  1  0  0  0  0
  8  7  1  0  0  0  0
  9  1  1  0  0  0  0
 10  9  1  0  0  0  0
 11  1  1  0  0  0  0
 12 11  1  0  0  0  0
 13  4  1  0  0  0  0
 14 13  1  0  0  0  0
 15  5  1  0  0  0  0
 16 15  1  0  0  0  0
 17  6  1  0  0  0  0
 18 17  1  0  0  0  0
 19  9  1  0  0  0  0
 20 19  1  0  0  0  0
 21  2  1  0  0  0  0
 22  1  1  0  0  0  0
 23  5  1  0  0  0  0
 24  1  1  0  0  0  0
 25  2  1  0  0  0  0
 26  2  1  0  0  0  0
 27 22  8  0  0  0  0
 28 27  1  0  0  0  0
 29  3  8  0  0  0  0
 30 29  1  0  0  0  0
 31  3  8  0  0  0  0
 32 31  1  0  0  0  0
 33  3  8  0  0  0  0
 34 33  1  0  0  0  0
 35  3  8  0  0  0  0
 36 35  1  0  0  0  0
 37  3  8  0  0  0  0
 38 37  1  0  0  0  0
 39  3  8  0  0  0  0
 40 39  1  0  0  0  0
 41  3  8  0  0  0  0
 42 41  1  0  0  0  0
 43  3  8  0  0  0  0
 44 43  1  0  0  0  0
 45  3  8  0  0  0  0
 46 45  1  0  0  0  0
 47 24  1  0  0  0  0
 48 47  4  0  0  0  0
 49 48  1  0  0  0  0
 50 48  4  0  0  0  0
 51 50  1  0  0  0  0
 52 50  4  0  0  0  0
 53 52  1  0  0  0  0
 54 52  4  0  0  0  0
 55 54  1  0  0  0  0
 56 47  4  0  0  0  0
 57 56  1  0  0  0  0
 58 24  1  0  0  0  0
 59 58  4  0  0  0  0
 60 59  1  0  0  0  0
 61 59  4  0  0  0  0
 62 61  1  0  0  0  0
 63 61  4  0  0  0  0
 64 63  1  0  0  0  0
 65 63  4  0  0  0  0
 66 65  1  0  0  0  0
 67 58  4  0  0  0  0
 68 67  1  0  0  0  0
 69 24  1  0  0  0  0
 70 69  4  0  0  0  0
 71 70  1  0  0  0  0
 72 70  4  0  0  0  0
 73 72  1  0  0  0  0
 74 72  4  0  0  0  0
 75 74  1  0  0  0  0
 76 74  4  0  0  0  0
 77 76  1  0  0  0  0
 78 69  4  0  0  0  0
 79 78  1  0  0  0  0
 80 25  1  0  0  0  0
 81 80  4  0  0  0  0
 82 81  1  0  0  0  0
 83 81  4  0  0  0  0
 84 83  1  0  0  0  0
 85 83  4  0  0  0  0
 86 85  1  0  0  0  0
 87 85  4  0  0  0  0
 88 87  1  0  0  0  0
 89 80  4  0  0  0  0
 90 89  1  0  0  0  0
 91 25  1  0  0  0  0
 92 91  4  0  0  0  0
 93 92  1  0  0  0  0
 94 92  4  0  0  0  0
 95 94  1  0  0  0  0
 96 94  4  0  0  0  0
 97 96  1  0  0  0  0
 98 96  4  0  0  0  0
 99 98  1  0  0  0  0
100 91  4  0  0  0  0
101100  1  0  0  0  0
102 25  1  0  0  0  0
103102  4  0  0  0  0
104103  1  0  0  0  0
105103  4  0  0  0  0
106105  1  0  0  0  0
107105  4  0  0  0  0
108107  1  0  0  0  0
109107  4  0  0  0  0
110109  1  0  0  0  0
111102  4  0  0  0  0
112111  1  0  0  0  0
113 26  1  0  0  0  0
114113  4  0  0  0  0
115114  1  0  0  0  0
116114  4  0  0  0  0
117116  1  0  0  0  0
118116  4  0  0  0  0
119118  1  0  0  0  0
120118  4  0  0  0  0
121120  1  0  0  0  0
122113  4  0  0  0  0
123122  1  0  0  0  0
124 26  1  0  0  0  0
125124  4  0  0  0  0
126125  1  0  0  0  0
127125  4  0  0  0  0
128127  1  0  0  0  0
129127  4  0  0  0  0
130129  1  0  0  0  0
131129  4  0  0  0  0
132131  1  0  0  0  0
133124  4  0  0  0  0
134133  1  0  0  0  0
135 26  1  0  0  0  0
136135  4  0  0  0  0
137136  1  0  0  0  0
138136  4  0  0  0  0
139138  1  0  0  0  0
140138  4  0  0  0  0
141140  1  0  0  0  0
142140  4  0  0  0  0
143142  1  0  0  0  0
144135  4  0  0  0  0
145144  1  0  0  0  0
146  2  1  0  0  0  0
147  2  1  0  0  0  0
  2  6  1  0  0  0  0
  4  6  1  0  0  0  0
  4 11  1  0  0  0  0
  4146  1  0  0  0  0
  5  7  1  0  0  0  0
  5  9  1  0  0  0  0
  6  7  1  0  0  0  0
  6 13  1  0  0  0  0
  6147  1  0  0  0  0
  7 15  1  0  0  0  0
  7 17  1  0  0  0  0
  9 11  1  0  0  0  0
  9 15  1  0  0  0  0
 11 13  1  0  0  0  0
 11 19  1  0  0  0  0
 13 17  1  0  0  0  0
 13 19  1  0  0  0  0
 15 17  1  0  0  0  0
 15 19  1  0  0  0  0
 17 19  1  0  0  0  0
 23 27  8  0  0  0  0
 28 29  4  0  0  0  0
 28 35  4  0  0  0  0
 29 31  4  0  0  0  0
 31 33  4  0  0  0  0
 33 35  4  0  0  0  0
 37 39  4  0  0  0  0
 37 45  4  0  0  0  0
 39 41  4  0  0  0  0
 41 43  4  0  0  0  0
 43 45  4  0  0  0  0
 54 56  4  0  0  0  0
 65 67  4  0  0  0  0
 76 78  4  0  0  0  0
 87 89  4  0  0  0  0
 98100  4  0  0  0  0
109111  4  0  0  0  0
120122  4  0  0  0  0
131133  4  0  0  0  0
142144  4  0  0  0  0
M  END
$$$$
EFOSUN

From CSD data. Using bond type 'Any'. No disordered atoms. Largest molecule.
151161  0  0  0  0  0  0  0  0999 V2000
    7.5642    3.3701    3.9962 Ru  0  0  0  0  0  0  0  0  0  0  0  0
    5.4729    3.0519    5.0589 P   0  0  0  0  0  0  0  0  0  0  0  0
    9.6821    4.2700    3.4854 P   0  0  0  0  0  0  0  0  0  0  0  0
    7.3015    0.3131    4.9019 O   0  0  0  0  0  0  0  0  0  0  0  0
    9.3991    0.7225    4.0864 O   0  0  0  0  0  0  0  0  0  0  0  0
    5.6811    3.4710    1.4411 O   0  0  0  0  0  0  0  0  0  0  0  0
    7.7932    4.1703    0.9640 O   0  0  0  0  0  0  0  0  0  0  0  0
    8.1512    1.2900    4.3330 B   0  0  0  0  0  0  0  0  0  0  0  0
    6.9187    3.7721    1.9770 B   0  0  0  0  0  0  0  0  0  0  0  0
    8.1217   -0.8177    5.2482 C   0  0  0  0  0  0  0  0  0  0  0  0
    9.2794   -0.7099    4.2372 C   0  0  0  0  0  0  0  0  0  0  0  0
    7.2895   -2.0830    5.1568 C   0  0  0  0  0  0  0  0  0  0  0  0
    6.8704   -2.1295    4.2941 H   0  0  0  0  0  0  0  0  0  0  0  0
    6.6145   -2.0728    5.8398 H   0  0  0  0  0  0  0  0  0  0  0  0
    7.8552   -2.8482    5.2781 H   0  0  0  0  0  0  0  0  0  0  0  0
    8.6035   -0.6274    6.6905 C   0  0  0  0  0  0  0  0  0  0  0  0
    9.0926    0.1952    6.7594 H   0  0  0  0  0  0  0  0  0  0  0  0
    9.1725   -1.3597    6.9376 H   0  0  0  0  0  0  0  0  0  0  0  0
    7.8451   -0.5990    7.2791 H   0  0  0  0  0  0  0  0  0  0  0  0
    8.9282   -1.2808    2.8652 C   0  0  0  0  0  0  0  0  0  0  0  0
    8.0685   -0.9523    2.5926 H   0  0  0  0  0  0  0  0  0  0  0  0
    8.9051   -2.2398    2.9147 H   0  0  0  0  0  0  0  0  0  0  0  0
    9.5912   -1.0091    2.2272 H   0  0  0  0  0  0  0  0  0  0  0  0
   10.6157   -1.2629    4.6865 C   0  0  0  0  0  0  0  0  0  0  0  0
   10.9128   -0.7876    5.4653 H   0  0  0  0  0  0  0  0  0  0  0  0
   11.2602   -1.1565    3.9826 H   0  0  0  0  0  0  0  0  0  0  0  0
   10.5232   -2.1949    4.8962 H   0  0  0  0  0  0  0  0  0  0  0  0
    5.8130    3.4176   -0.0015 C   0  0  0  0  0  0  0  0  0  0  0  0
    7.0174    4.3484   -0.2441 C   0  0  0  0  0  0  0  0  0  0  0  0
    6.0925    1.9626   -0.3640 C   0  0  0  0  0  0  0  0  0  0  0  0
    6.9252    1.6897    0.0270 H   0  0  0  0  0  0  0  0  0  0  0  0
    6.1431    1.8746   -1.3180 H   0  0  0  0  0  0  0  0  0  0  0  0
    5.3850    1.4074   -0.0285 H   0  0  0  0  0  0  0  0  0  0  0  0
    4.5110    3.8917   -0.6171 C   0  0  0  0  0  0  0  0  0  0  0  0
    4.2806    4.7516   -0.2576 H   0  0  0  0  0  0  0  0  0  0  0  0
    3.8134    3.2642   -0.4149 H   0  0  0  0  0  0  0  0  0  0  0  0
    4.6135    3.9597   -1.5697 H   0  0  0  0  0  0  0  0  0  0  0  0
    6.6382    5.8201   -0.2966 C   0  0  0  0  0  0  0  0  0  0  0  0
    6.0699    6.0290    0.4493 H   0  0  0  0  0  0  0  0  0  0  0  0
    6.1709    6.0016   -1.1143 H   0  0  0  0  0  0  0  0  0  0  0  0
    7.4326    6.3564   -0.2546 H   0  0  0  0  0  0  0  0  0  0  0  0
    7.8740    3.9827   -1.4423 C   0  0  0  0  0  0  0  0  0  0  0  0
    8.2643    3.1166   -1.3046 H   0  0  0  0  0  0  0  0  0  0  0  0
    8.5713    4.6333   -1.5487 H   0  0  0  0  0  0  0  0  0  0  0  0
    7.3285    3.9657   -2.2332 H   0  0  0  0  0  0  0  0  0  0  0  0
    4.3279    4.5258    4.9831 C   0  0  0  0  0  0  0  0  0  0  0  0
    3.5382    4.2835    5.5088 H   0  0  0  0  0  0  0  0  0  0  0  0
    4.9116    5.7878    5.6466 C   0  0  0  0  0  0  0  0  0  0  0  0
    5.1754    5.5785    6.5572 H   0  0  0  0  0  0  0  0  0  0  0  0
    5.7044    6.0677    5.1628 H   0  0  0  0  0  0  0  0  0  0  0  0
    3.9053    6.9258    5.6645 C   0  0  0  0  0  0  0  0  0  0  0  0
    3.1542    6.6791    6.2247 H   0  0  0  0  0  0  0  0  0  0  0  0
    4.3208    7.7128    6.0510 H   0  0  0  0  0  0  0  0  0  0  0  0
    3.4034    7.2611    4.2761 C   0  0  0  0  0  0  0  0  0  0  0  0
    2.7284    7.9550    4.3315 H   0  0  0  0  0  0  0  0  0  0  0  0
    4.1361    7.5932    3.7339 H   0  0  0  0  0  0  0  0  0  0  0  0
    2.8125    6.0263    3.6321 C   0  0  0  0  0  0  0  0  0  0  0  0
    2.5305    6.2404    2.7289 H   0  0  0  0  0  0  0  0  0  0  0  0
    2.0291    5.7477    4.1323 H   0  0  0  0  0  0  0  0  0  0  0  0
    3.8145    4.8783    3.5871 C   0  0  0  0  0  0  0  0  0  0  0  0
    4.5635    5.1280    3.0240 H   0  0  0  0  0  0  0  0  0  0  0  0
    3.3921    4.0987    3.1947 H   0  0  0  0  0  0  0  0  0  0  0  0
    4.3750    1.6129    4.5966 C   0  0  0  0  0  0  0  0  0  0  0  0
    4.7333    0.8508    5.0969 H   0  0  0  0  0  0  0  0  0  0  0  0
    2.9111    1.7248    5.0400 C   0  0  0  0  0  0  0  0  0  0  0  0
    2.8761    1.9901    5.9731 H   0  0  0  0  0  0  0  0  0  0  0  0
    2.4658    2.4088    4.5173 H   0  0  0  0  0  0  0  0  0  0  0  0
    2.1890    0.4050    4.8632 C   0  0  0  0  0  0  0  0  0  0  0  0
    1.2571    0.5142    5.1074 H   0  0  0  0  0  0  0  0  0  0  0  0
    2.5793   -0.2563    5.4564 H   0  0  0  0  0  0  0  0  0  0  0  0
    2.2809   -0.0922    3.4239 C   0  0  0  0  0  0  0  0  0  0  0  0
    1.8863   -0.9765    3.3655 H   0  0  0  0  0  0  0  0  0  0  0  0
    1.7711    0.4998    2.8487 H   0  0  0  0  0  0  0  0  0  0  0  0
    3.7143   -0.1517    2.9356 C   0  0  0  0  0  0  0  0  0  0  0  0
    3.7223   -0.3845    1.9950 H   0  0  0  0  0  0  0  0  0  0  0  0
    4.1890   -0.8447    3.4209 H   0  0  0  0  0  0  0  0  0  0  0  0
    4.4277    1.1801    3.1318 C   0  0  0  0  0  0  0  0  0  0  0  0
    4.0064    1.8558    2.5792 H   0  0  0  0  0  0  0  0  0  0  0  0
    5.3525    1.0949    2.8517 H   0  0  0  0  0  0  0  0  0  0  0  0
    5.5489    2.8815    6.9317 C   0  0  0  0  0  0  0  0  0  0  0  0
    4.8593    3.4922    7.2672 H   0  0  0  0  0  0  0  0  0  0  0  0
    6.8635    3.4044    7.5353 C   0  0  0  0  0  0  0  0  0  0  0  0
    7.5832    2.7985    7.3001 H   0  0  0  0  0  0  0  0  0  0  0  0
    7.0665    4.2720    7.1518 H   0  0  0  0  0  0  0  0  0  0  0  0
    6.7952    3.5339    9.0540 C   0  0  0  0  0  0  0  0  0  0  0  0
    7.6632    3.8089    9.3895 H   0  0  0  0  0  0  0  0  0  0  0  0
    6.1530    4.2215    9.2876 H   0  0  0  0  0  0  0  0  0  0  0  0
    6.3982    2.2467    9.7100 C   0  0  0  0  0  0  0  0  0  0  0  0
    6.2669    2.3946   10.6581 H   0  0  0  0  0  0  0  0  0  0  0  0
    7.1111    1.5962    9.6022 H   0  0  0  0  0  0  0  0  0  0  0  0
    5.1221    1.7009    9.1004 C   0  0  0  0  0  0  0  0  0  0  0  0
    4.3872    2.2992    9.3116 H   0  0  0  0  0  0  0  0  0  0  0  0
    4.9250    0.8366    9.4928 H   0  0  0  0  0  0  0  0  0  0  0  0
    5.2323    1.5517    7.5697 C   0  0  0  0  0  0  0  0  0  0  0  0
    5.9311    0.9150    7.3540 H   0  0  0  0  0  0  0  0  0  0  0  0
    4.3958    1.2136    7.2147 H   0  0  0  0  0  0  0  0  0  0  0  0
    9.5640    6.0450    2.8892 C   0  0  0  0  0  0  0  0  0  0  0  0
    9.2403    5.9693    1.9681 H   0  0  0  0  0  0  0  0  0  0  0  0
   10.8894    6.7925    2.7649 C   0  0  0  0  0  0  0  0  0  0  0  0
   11.2551    6.9501    3.6501 H   0  0  0  0  0  0  0  0  0  0  0  0
   11.5223    6.2442    2.2736 H   0  0  0  0  0  0  0  0  0  0  0  0
   10.7121    8.1254    2.0459 C   0  0  0  0  0  0  0  0  0  0  0  0
   11.5623    8.5923    2.0310 H   0  0  0  0  0  0  0  0  0  0  0  0
   10.4502    7.9569    1.1278 H   0  0  0  0  0  0  0  0  0  0  0  0
    9.6818    9.0074    2.6960 C   0  0  0  0  0  0  0  0  0  0  0  0
    9.9972    9.2835    3.5707 H   0  0  0  0  0  0  0  0  0  0  0  0
    9.5528    9.8046    2.1583 H   0  0  0  0  0  0  0  0  0  0  0  0
    8.3733    8.2857    2.8413 C   0  0  0  0  0  0  0  0  0  0  0  0
    8.0001    8.1192    1.9621 H   0  0  0  0  0  0  0  0  0  0  0  0
    7.7503    8.8466    3.3295 H   0  0  0  0  0  0  0  0  0  0  0  0
    8.5430    6.9594    3.5782 C   0  0  0  0  0  0  0  0  0  0  0  0
    7.6859    6.5053    3.6201 H   0  0  0  0  0  0  0  0  0  0  0  0
    8.8330    7.1329    4.4873 H   0  0  0  0  0  0  0  0  0  0  0  0
   10.7525    3.6033    2.0879 C   0  0  0  0  0  0  0  0  0  0  0  0
   10.6172    4.2450    1.3600 H   0  0  0  0  0  0  0  0  0  0  0  0
   12.2644    3.5690    2.2691 C   0  0  0  0  0  0  0  0  0  0  0  0
   12.5656    4.4302    2.5986 H   0  0  0  0  0  0  0  0  0  0  0  0
   12.4895    2.8996    2.9356 H   0  0  0  0  0  0  0  0  0  0  0  0
   12.9864    3.2500    0.9825 C   0  0  0  0  0  0  0  0  0  0  0  0
   12.8860    3.9984    0.3729 H   0  0  0  0  0  0  0  0  0  0  0  0
   13.9328    3.1473    1.1713 H   0  0  0  0  0  0  0  0  0  0  0  0
   12.4851    1.9987    0.3070 C   0  0  0  0  0  0  0  0  0  0  0  0
   12.8831    1.9334   -0.5766 H   0  0  0  0  0  0  0  0  0  0  0  0
   12.7672    1.2245    0.8193 H   0  0  0  0  0  0  0  0  0  0  0  0
   10.9971    1.9842    0.1767 C   0  0  0  0  0  0  0  0  0  0  0  0
   10.7148    1.1140   -0.1453 H   0  0  0  0  0  0  0  0  0  0  0  0
   10.7282    2.6457   -0.4793 H   0  0  0  0  0  0  0  0  0  0  0  0
   10.3052    2.2769    1.4948 C   0  0  0  0  0  0  0  0  0  0  0  0
   10.5004    1.5640    2.1238 H   0  0  0  0  0  0  0  0  0  0  0  0
    9.3455    2.2979    1.3540 H   0  0  0  0  0  0  0  0  0  0  0  0
   10.8325    4.3317    4.9441 C   0  0  0  0  0  0  0  0  0  0  0  0
   11.6753    4.7118    4.6206 H   0  0  0  0  0  0  0  0  0  0  0  0
   10.3588    5.2243    6.0899 C   0  0  0  0  0  0  0  0  0  0  0  0
   10.2106    6.1220    5.7544 H   0  0  0  0  0  0  0  0  0  0  0  0
    9.5121    4.8888    6.4239 H   0  0  0  0  0  0  0  0  0  0  0  0
   11.3578    5.2786    7.2327 C   0  0  0  0  0  0  0  0  0  0  0  0
   10.9994    5.8303    7.9456 H   0  0  0  0  0  0  0  0  0  0  0  0
   12.1778    5.6922    6.9197 H   0  0  0  0  0  0  0  0  0  0  0  0
   11.6716    3.8950    7.7779 C   0  0  0  0  0  0  0  0  0  0  0  0
   10.8724    3.5037    8.1643 H   0  0  0  0  0  0  0  0  0  0  0  0
   12.3459    3.9593    8.4729 H   0  0  0  0  0  0  0  0  0  0  0  0
   12.1806    3.0181    6.6426 C   0  0  0  0  0  0  0  0  0  0  0  0
   13.0141    3.3803    6.3026 H   0  0  0  0  0  0  0  0  0  0  0  0
   12.3561    2.1245    6.9781 H   0  0  0  0  0  0  0  0  0  0  0  0
   11.1646    2.9434    5.5118 C   0  0  0  0  0  0  0  0  0  0  0  0
   10.3508    2.5298    5.8398 H   0  0  0  0  0  0  0  0  0  0  0  0
   11.5173    2.3845    4.8018 H   0  0  0  0  0  0  0  0  0  0  0  0
    7.7123    4.4990    4.9426 H   0  0  0  0  0  0  0  0  0  0  0  0
    6.9073    4.4982    3.1154 H   0  0  0  0  0  0  0  0  0  0  0  0
    7.5407    2.1472    3.1453 H   0  0  0  0  0  0  0  0  0  0  0  0
    8.3032    2.5392    5.0774 H   0  0  0  0  0  0  0  0  0  0  0  0
  1  2  1  0  0  0  0
  2 46  1  0  0  0  0
  3  1  1  0  0  0  0
  4  8  1  0  0  0  0
  5  8  1  0  0  0  0
  6  9  1  0  0  0  0
  7  9  1  0  0  0  0
  8  1  1  0  0  0  0
  9  1  1  0  0  0  0
 10  4  1  0  0  0  0
 11  5  1  0  0  0  0
 12 10  1  0  0  0  0
 13 12  1  0  0  0  0
 14 12  1  0  0  0  0
 15 12  1  0  0  0  0
 16 10  1  0  0  0  0
 17 16  1  0  0  0  0
 18 16  1  0  0  0  0
 19 16  1  0  0  0  0
 20 11  1  0  0  0  0
 21 20  1  0  0  0  0
 22 20  1  0  0  0  0
 23 20  1  0  0  0  0
 24 11  1  0  0  0  0
 25 24  1  0  0  0  0
 26 24  1  0  0  0  0
 27 24  1  0  0  0  0
 28  6  1  0  0  0  0
 29  7  1  0  0  0  0
 30 28  1  0  0  0  0
 31 30  1  0  0  0  0
 32 30  1  0  0  0  0
 33 30  1  0  0  0  0
 34 28  1  0  0  0  0
 35 34  1  0  0  0  0
 36 34  1  0  0  0  0
 37 34  1  0  0  0  0
 38 29  1  0  0  0  0
 39 38  1  0  0  0  0
 40 38  1  0  0  0  0
 41 38  1  0  0  0  0
 42 29  1  0  0  0  0
 43 42  1  0  0  0  0
 44 42  1  0  0  0  0
 45 42  1  0  0  0  0
 46 47  1  0  0  0  0
 48 46  1  0  0  0  0
 49 48  1  0  0  0  0
 50 48  1  0  0  0  0
 51 48  1  0  0  0  0
 52 51  1  0  0  0  0
 53 51  1  0  0  0  0
 54 51  1  0  0  0  0
 55 54  1  0  0  0  0
 56 54  1  0  0  0  0
 57 54  1  0  0  0  0
 58 57  1  0  0  0  0
 59 57  1  0  0  0  0
 60 46  1  0  0  0  0
 61 60  1  0  0  0  0
 62 60  1  0  0  0  0
 63  2  1  0  0  0  0
 64 63  1  0  0  0  0
 65 63  1  0  0  0  0
 66 65  1  0  0  0  0
 67 65  1  0  0  0  0
 68 65  1  0  0  0  0
 69 68  1  0  0  0  0
 70 68  1  0  0  0  0
 71 68  1  0  0  0  0
 72 71  1  0  0  0  0
 73 71  1  0  0  0  0
 74 71  1  0  0  0  0
 75 74  1  0  0  0  0
 76 74  1  0  0  0  0
 77 63  1  0  0  0  0
 78 77  1  0  0  0  0
 79 77  1  0  0  0  0
 80  2  1  0  0  0  0
 81 80  1  0  0  0  0
 82 80  1  0  0  0  0
 83 82  1  0  0  0  0
 84 82  1  0  0  0  0
 85 82  1  0  0  0  0
 86 85  1  0  0  0  0
 87 85  1  0  0  0  0
 88 85  1  0  0  0  0
 89 88  1  0  0  0  0
 90 88  1  0  0  0  0
 91 88  1  0  0  0  0
 92 91  1  0  0  0  0
 93 91  1  0  0  0  0
 94 80  1  0  0  0  0
 95 94  1  0  0  0  0
 96 94  1  0  0  0  0
 97  3  1  0  0  0  0
 98 97  1  0  0  0  0
 99 97  1  0  0  0  0
100 99  1  0  0  0  0
101 99  1  0  0  0  0
102 99  1  0  0  0  0
103102  1  0  0  0  0
104102  1  0  0  0  0
105102  1  0  0  0  0
106105  1  0  0  0  0
107105  1  0  0  0  0
108105  1  0  0  0  0
109108  1  0  0  0  0
110108  1  0  0  0  0
111 97  1  0  0  0  0
112111  1  0  0  0  0
113111  1  0  0  0  0
114  3  1  0  0  0  0
115114  1  0  0  0  0
116114  1  0  0  0  0
117116  1  0  0  0  0
118116  1  0  0  0  0
119116  1  0  0  0  0
120119  1  0  0  0  0
121119  1  0  0  0  0
122119  1  0  0  0  0
123122  1  0  0  0  0
124122  1  0  0  0  0
125122  1  0  0  0  0
126125  1  0  0  0  0
127125  1  0  0  0  0
128114  1  0  0  0  0
129128  1  0  0  0  0
130128  1  0  0  0  0
131  3  1  0  0  0  0
132131  1  0  0  0  0
133131  1  0  0  0  0
134133  1  0  0  0  0
135133  1  0  0  0  0
136133  1  0  0  0  0
137136  1  0  0  0  0
138136  1  0  0  0  0
139136  1  0  0  0  0
140139  1  0  0  0  0
141139  1  0  0  0  0
142139  1  0  0  0  0
143142  1  0  0  0  0
144142  1  0  0  0  0
145131  1  0  0  0  0
146145  1  0  0  0  0
147145  1  0  0  0  0
148  1  1  0  0  0  0
149  1  1  0  0  0  0
150  1  1  0  0  0  0
151  1  1  0  0  0  0
  8150  1  0  0  0  0
  8151  1  0  0  0  0
  9149  1  0  0  0  0
 10 11  1  0  0  0  0
 28 29  1  0  0  0  0
 57 60  1  0  0  0  0
 74 77  1  0  0  0  0
 91 94  1  0  0  0  0
108111  1  0  0  0  0
125128  1  0  0  0  0
142145  1  0  0  0  0
M  END
$$$$
EGEJAD

From CSD data. Using bond type 'Any'. No disordered atoms. Largest molecule.
211226  0  0  0  0  0  0  0  0999 V2000
    9.4142    5.8860    4.8443 Cu  0  0  0  0  0  0  0  0  0  0  0  0
   11.3483    4.9686    4.1714 P   0  0  0  0  0  0  0  0  0  0  0  0
   14.9571   -0.1190    9.4995 N   0  0  0  0  0  0  0  0  0  0  0  0
   14.7177    1.8227   11.0772 N   0  0  0  0  0  0  0  0  0  0  0  0
   15.0251    0.2677   11.0392 B   0  0  0  0  0  0  0  0  0  0  0  0
    9.8423    7.3176    6.3499 O   0  0  0  0  0  0  0  0  0  0  0  0
   15.1929   -1.3355    8.9775 C   0  0  0  0  0  0  0  0  0  0  0  0
   14.7432   -1.3919    7.6598 C   0  0  0  0  0  0  0  0  0  0  0  0
   14.2063   -0.1580    7.3556 C   0  0  0  0  0  0  0  0  0  0  0  0
   14.3435    0.6421    8.5124 C   0  0  0  0  0  0  0  0  0  0  0  0
   13.9784    1.9663    8.7799 C   0  0  0  0  0  0  0  0  0  0  0  0
   14.1787    2.5561   10.0181 C   0  0  0  0  0  0  0  0  0  0  0  0
   13.9821    3.8978   10.4618 C   0  0  0  0  0  0  0  0  0  0  0  0
   14.3858    3.9378   11.7872 C   0  0  0  0  0  0  0  0  0  0  0  0
   14.8200    2.6454   12.1282 C   0  0  0  0  0  0  0  0  0  0  0  0
   15.7836   -2.4320    9.7623 C   0  0  0  0  0  0  0  0  0  0  0  0
   15.2587   -2.5726   10.5761 H   0  0  0  0  0  0  0  0  0  0  0  0
   16.7045   -2.2002   10.0045 H   0  0  0  0  0  0  0  0  0  0  0  0
   15.7850   -3.2526    9.2275 H   0  0  0  0  0  0  0  0  0  0  0  0
   14.8401   -2.5756    6.7317 C   0  0  0  0  0  0  0  0  0  0  0  0
   14.0157   -2.6249    6.1852 H   0  0  0  0  0  0  0  0  0  0  0  0
   14.8967   -3.4044    7.2684 H   0  0  0  0  0  0  0  0  0  0  0  0
   16.0395   -2.5049    5.8074 C   0  0  0  0  0  0  0  0  0  0  0  0
   16.0381   -3.2813    5.2106 H   0  0  0  0  0  0  0  0  0  0  0  0
   16.8624   -2.5018    6.3403 H   0  0  0  0  0  0  0  0  0  0  0  0
   15.9927   -1.6832    5.2745 H   0  0  0  0  0  0  0  0  0  0  0  0
   13.5960    0.2000    6.0380 C   0  0  0  0  0  0  0  0  0  0  0  0
   13.7826   -0.5088    5.3888 H   0  0  0  0  0  0  0  0  0  0  0  0
   13.9785    1.0442    5.7202 H   0  0  0  0  0  0  0  0  0  0  0  0
   12.6251    0.2995    6.1426 H   0  0  0  0  0  0  0  0  0  0  0  0
   13.4133    5.0507    9.6848 C   0  0  0  0  0  0  0  0  0  0  0  0
   13.2759    5.8129   10.2835 H   0  0  0  0  0  0  0  0  0  0  0  0
   12.5576    4.7861    9.2875 H   0  0  0  0  0  0  0  0  0  0  0  0
   14.0405    5.3041    8.9736 H   0  0  0  0  0  0  0  0  0  0  0  0
   14.3440    5.1102   12.7309 C   0  0  0  0  0  0  0  0  0  0  0  0
   13.7764    5.8190   12.3375 H   0  0  0  0  0  0  0  0  0  0  0  0
   13.9231    4.8241   13.5796 H   0  0  0  0  0  0  0  0  0  0  0  0
   15.6917    5.6754   13.0274 C   0  0  0  0  0  0  0  0  0  0  0  0
   15.6032    6.4109   13.6687 H   0  0  0  0  0  0  0  0  0  0  0  0
   16.0937    6.0098   12.1980 H   0  0  0  0  0  0  0  0  0  0  0  0
   16.2623    4.9759   13.4072 H   0  0  0  0  0  0  0  0  0  0  0  0
   15.3194    2.2187   13.4750 C   0  0  0  0  0  0  0  0  0  0  0  0
   14.7845    1.4658   13.8005 H   0  0  0  0  0  0  0  0  0  0  0  0
   15.2453    2.9675   14.1028 H   0  0  0  0  0  0  0  0  0  0  0  0
   16.2593    1.9448   13.4033 H   0  0  0  0  0  0  0  0  0  0  0  0
   13.8284   -0.5262   11.7833 C   0  0  0  0  0  0  0  0  0  0  0  0
   12.6756   -0.8719   11.0935 C   0  0  0  0  0  0  0  0  0  0  0  0
   12.6193   -0.6616   10.1692 H   0  0  0  0  0  0  0  0  0  0  0  0
   11.6114   -1.5037   11.6845 C   0  0  0  0  0  0  0  0  0  0  0  0
   10.8359   -1.6997   11.1691 H   0  0  0  0  0  0  0  0  0  0  0  0
   11.6485   -1.8525   12.9983 C   0  0  0  0  0  0  0  0  0  0  0  0
   10.9158   -2.3038   13.4013 H   0  0  0  0  0  0  0  0  0  0  0  0
   12.7522   -1.5448   13.7211 C   0  0  0  0  0  0  0  0  0  0  0  0
   12.7972   -1.7817   14.6395 H   0  0  0  0  0  0  0  0  0  0  0  0
   13.8142   -0.8832   13.1242 C   0  0  0  0  0  0  0  0  0  0  0  0
   14.5684   -0.6647   13.6591 H   0  0  0  0  0  0  0  0  0  0  0  0
   16.5585    0.0472   11.5431 C   0  0  0  0  0  0  0  0  0  0  0  0
   16.9944   -0.9447   12.3879 C   0  0  0  0  0  0  0  0  0  0  0  0
   16.3576   -1.5396   12.7658 H   0  0  0  0  0  0  0  0  0  0  0  0
   18.3488   -1.1068   12.7076 C   0  0  0  0  0  0  0  0  0  0  0  0
   18.6203   -1.8094   13.2851 H   0  0  0  0  0  0  0  0  0  0  0  0
   19.2847   -0.2400   12.1786 C   0  0  0  0  0  0  0  0  0  0  0  0
   20.2058   -0.3416   12.3860 H   0  0  0  0  0  0  0  0  0  0  0  0
   18.8669    0.7570   11.3628 C   0  0  0  0  0  0  0  0  0  0  0  0
   19.5021    1.3694   11.0121 H   0  0  0  0  0  0  0  0  0  0  0  0
   17.5351    0.8996   11.0315 C   0  0  0  0  0  0  0  0  0  0  0  0
   17.2765    1.5961   10.4385 H   0  0  0  0  0  0  0  0  0  0  0  0
   13.3562    2.7562    7.6773 C   0  0  0  0  0  0  0  0  0  0  0  0
   11.9924    2.7418    7.4854 C   0  0  0  0  0  0  0  0  0  0  0  0
   11.4379    2.2597    8.0861 H   0  0  0  0  0  0  0  0  0  0  0  0
   11.4281    3.4208    6.4313 C   0  0  0  0  0  0  0  0  0  0  0  0
   10.4842    3.4024    6.3170 H   0  0  0  0  0  0  0  0  0  0  0  0
   12.1991    4.1224    5.5438 C   0  0  0  0  0  0  0  0  0  0  0  0
   13.5727    4.1625    5.7512 C   0  0  0  0  0  0  0  0  0  0  0  0
   14.1264    4.6579    5.1582 H   0  0  0  0  0  0  0  0  0  0  0  0
   14.1317    3.4896    6.8072 C   0  0  0  0  0  0  0  0  0  0  0  0
   15.0718    3.5296    6.9429 H   0  0  0  0  0  0  0  0  0  0  0  0
   12.5887    6.0867    3.4414 C   0  0  0  0  0  0  0  0  0  0  0  0
   12.4473    7.4541    3.5887 C   0  0  0  0  0  0  0  0  0  0  0  0
   11.7121    7.7997    4.0789 H   0  0  0  0  0  0  0  0  0  0  0  0
   13.3622    8.3249    3.0325 C   0  0  0  0  0  0  0  0  0  0  0  0
   13.2397    9.2624    3.1197 H   0  0  0  0  0  0  0  0  0  0  0  0
   14.4523    7.8377    2.3524 C   0  0  0  0  0  0  0  0  0  0  0  0
   15.0981    8.4367    1.9978 H   0  0  0  0  0  0  0  0  0  0  0  0
   14.6036    6.4724    2.1858 C   0  0  0  0  0  0  0  0  0  0  0  0
   15.3479    6.1360    1.6955 H   0  0  0  0  0  0  0  0  0  0  0  0
   13.6926    5.6057    2.7206 C   0  0  0  0  0  0  0  0  0  0  0  0
   13.8060    4.6692    2.6043 H   0  0  0  0  0  0  0  0  0  0  0  0
   11.2034    3.7193    2.8543 C   0  0  0  0  0  0  0  0  0  0  0  0
   10.7074    4.1471    1.6316 C   0  0  0  0  0  0  0  0  0  0  0  0
   10.4754    5.0610    1.5192 H   0  0  0  0  0  0  0  0  0  0  0  0
   10.5436    3.2701    0.5774 C   0  0  0  0  0  0  0  0  0  0  0  0
   10.1997    3.5768   -0.2538 H   0  0  0  0  0  0  0  0  0  0  0  0
   10.8780    1.9653    0.7460 C   0  0  0  0  0  0  0  0  0  0  0  0
   10.7661    1.3540    0.0271 H   0  0  0  0  0  0  0  0  0  0  0  0
   11.3688    1.5273    1.9300 C   0  0  0  0  0  0  0  0  0  0  0  0
   11.6121    0.6144    2.0307 H   0  0  0  0  0  0  0  0  0  0  0  0
   11.5228    2.4033    2.9919 C   0  0  0  0  0  0  0  0  0  0  0  0
   11.8561    2.0833    3.8212 H   0  0  0  0  0  0  0  0  0  0  0  0
   10.9502    7.2274    7.1832 C   0  0  0  0  0  0  0  0  0  0  0  0
   11.7290    7.6233    6.7200 H   0  0  0  0  0  0  0  0  0  0  0  0
   11.1488    6.2714    7.3459 H   0  0  0  0  0  0  0  0  0  0  0  0
   10.7747    7.8982    8.4679 C   0  0  0  0  0  0  0  0  0  0  0  0
   11.5878    7.7946    9.0027 H   0  0  0  0  0  0  0  0  0  0  0  0
   10.5986    8.8491    8.3167 H   0  0  0  0  0  0  0  0  0  0  0  0
   10.0177    7.4951    8.9446 H   0  0  0  0  0  0  0  0  0  0  0  0
    7.4802    4.9686    5.5173 P   0  0  0  0  0  0  0  0  0  0  0  0
    3.8714   -0.1190    0.1891 N   0  0  0  0  0  0  0  0  0  0  0  0
    4.1108    1.8227   -1.3886 N   0  0  0  0  0  0  0  0  0  0  0  0
    3.8034    0.2677   -1.3506 B   0  0  0  0  0  0  0  0  0  0  0  0
    8.9862    7.3176    3.3387 O   0  0  0  0  0  0  0  0  0  0  0  0
    3.6356   -1.3355    0.7111 C   0  0  0  0  0  0  0  0  0  0  0  0
    4.0852   -1.3919    2.0288 C   0  0  0  0  0  0  0  0  0  0  0  0
    4.6221   -0.1580    2.3330 C   0  0  0  0  0  0  0  0  0  0  0  0
    4.4850    0.6421    1.1762 C   0  0  0  0  0  0  0  0  0  0  0  0
    4.8500    1.9663    0.9088 C   0  0  0  0  0  0  0  0  0  0  0  0
    4.6498    2.5561   -0.3294 C   0  0  0  0  0  0  0  0  0  0  0  0
    4.8463    3.8978   -0.7732 C   0  0  0  0  0  0  0  0  0  0  0  0
    4.4427    3.9378   -2.0986 C   0  0  0  0  0  0  0  0  0  0  0  0
    4.0085    2.6454   -2.4396 C   0  0  0  0  0  0  0  0  0  0  0  0
    3.0449   -2.4320   -0.0736 C   0  0  0  0  0  0  0  0  0  0  0  0
    3.5698   -2.5726   -0.8875 H   0  0  0  0  0  0  0  0  0  0  0  0
    2.1239   -2.2002   -0.3158 H   0  0  0  0  0  0  0  0  0  0  0  0
    3.0434   -3.2526    0.4612 H   0  0  0  0  0  0  0  0  0  0  0  0
    3.9884   -2.5756    2.9570 C   0  0  0  0  0  0  0  0  0  0  0  0
    4.8128   -2.6249    3.5034 H   0  0  0  0  0  0  0  0  0  0  0  0
    3.9318   -3.4044    2.4202 H   0  0  0  0  0  0  0  0  0  0  0  0
    2.7890   -2.5049    3.8813 C   0  0  0  0  0  0  0  0  0  0  0  0
    2.7903   -3.2813    4.4781 H   0  0  0  0  0  0  0  0  0  0  0  0
    1.9661   -2.5018    3.3484 H   0  0  0  0  0  0  0  0  0  0  0  0
    2.8358   -1.6832    4.4141 H   0  0  0  0  0  0  0  0  0  0  0  0
    5.2324    0.2000    3.6507 C   0  0  0  0  0  0  0  0  0  0  0  0
    5.0459   -0.5088    4.2998 H   0  0  0  0  0  0  0  0  0  0  0  0
    4.8500    1.0442    3.9685 H   0  0  0  0  0  0  0  0  0  0  0  0
    6.2034    0.2995    3.5460 H   0  0  0  0  0  0  0  0  0  0  0  0
    5.4151    5.0507    0.0039 C   0  0  0  0  0  0  0  0  0  0  0  0
    5.5525    5.8129   -0.5949 H   0  0  0  0  0  0  0  0  0  0  0  0
    6.2708    4.7861    0.4011 H   0  0  0  0  0  0  0  0  0  0  0  0
    4.7880    5.3041    0.7150 H   0  0  0  0  0  0  0  0  0  0  0  0
    4.4845    5.1102   -3.0422 C   0  0  0  0  0  0  0  0  0  0  0  0
    5.0521    5.8190   -2.6489 H   0  0  0  0  0  0  0  0  0  0  0  0
    4.9054    4.8241   -3.8910 H   0  0  0  0  0  0  0  0  0  0  0  0
    3.1368    5.6754   -3.3387 C   0  0  0  0  0  0  0  0  0  0  0  0
    3.2253    6.4109   -3.9801 H   0  0  0  0  0  0  0  0  0  0  0  0
    2.7348    6.0098   -2.5094 H   0  0  0  0  0  0  0  0  0  0  0  0
    2.5662    4.9759   -3.7185 H   0  0  0  0  0  0  0  0  0  0  0  0
    3.5091    2.2187   -3.7863 C   0  0  0  0  0  0  0  0  0  0  0  0
    4.0440    1.4658   -4.1119 H   0  0  0  0  0  0  0  0  0  0  0  0
    3.5832    2.9675   -4.4141 H   0  0  0  0  0  0  0  0  0  0  0  0
    2.5692    1.9448   -3.7146 H   0  0  0  0  0  0  0  0  0  0  0  0
    5.0000   -0.5262   -2.0947 C   0  0  0  0  0  0  0  0  0  0  0  0
    6.1528   -0.8719   -1.4049 C   0  0  0  0  0  0  0  0  0  0  0  0
    6.2091   -0.6616   -0.4806 H   0  0  0  0  0  0  0  0  0  0  0  0
    7.2171   -1.5037   -1.9959 C   0  0  0  0  0  0  0  0  0  0  0  0
    7.9925   -1.6997   -1.4804 H   0  0  0  0  0  0  0  0  0  0  0  0
    7.1800   -1.8525   -3.3096 C   0  0  0  0  0  0  0  0  0  0  0  0
    7.9127   -2.3038   -3.7127 H   0  0  0  0  0  0  0  0  0  0  0  0
    6.0763   -1.5448   -4.0324 C   0  0  0  0  0  0  0  0  0  0  0  0
    6.0313   -1.7817   -4.9509 H   0  0  0  0  0  0  0  0  0  0  0  0
    5.0143   -0.8832   -3.4356 C   0  0  0  0  0  0  0  0  0  0  0  0
    4.2600   -0.6647   -3.9704 H   0  0  0  0  0  0  0  0  0  0  0  0
    2.2699    0.0472   -1.8544 C   0  0  0  0  0  0  0  0  0  0  0  0
    1.8341   -0.9447   -2.6993 C   0  0  0  0  0  0  0  0  0  0  0  0
    2.4709   -1.5396   -3.0771 H   0  0  0  0  0  0  0  0  0  0  0  0
    0.4796   -1.1068   -3.0190 C   0  0  0  0  0  0  0  0  0  0  0  0
    0.2082   -1.8094   -3.5964 H   0  0  0  0  0  0  0  0  0  0  0  0
   -0.4563   -0.2400   -2.4900 C   0  0  0  0  0  0  0  0  0  0  0  0
   -1.3773   -0.3416   -2.6973 H   0  0  0  0  0  0  0  0  0  0  0  0
   -0.0384    0.7570   -1.6742 C   0  0  0  0  0  0  0  0  0  0  0  0
   -0.6736    1.3694   -1.3235 H   0  0  0  0  0  0  0  0  0  0  0  0
    1.2934    0.8996   -1.3428 C   0  0  0  0  0  0  0  0  0  0  0  0
    1.5519    1.5961   -0.7499 H   0  0  0  0  0  0  0  0  0  0  0  0
    5.4722    2.7562    2.0114 C   0  0  0  0  0  0  0  0  0  0  0  0
    6.8361    2.7418    2.2032 C   0  0  0  0  0  0  0  0  0  0  0  0
    7.3905    2.2597    1.6025 H   0  0  0  0  0  0  0  0  0  0  0  0
    7.4003    3.4208    3.2573 C   0  0  0  0  0  0  0  0  0  0  0  0
    8.3443    3.4024    3.3716 H   0  0  0  0  0  0  0  0  0  0  0  0
    6.6294    4.1224    4.1448 C   0  0  0  0  0  0  0  0  0  0  0  0
    5.2558    4.1625    3.9375 C   0  0  0  0  0  0  0  0  0  0  0  0
    4.7021    4.6579    4.5304 H   0  0  0  0  0  0  0  0  0  0  0  0
    4.6968    3.4896    2.8814 C   0  0  0  0  0  0  0  0  0  0  0  0
    3.7567    3.5296    2.7458 H   0  0  0  0  0  0  0  0  0  0  0  0
    6.2397    6.0867    6.2472 C   0  0  0  0  0  0  0  0  0  0  0  0
    6.3812    7.4541    6.1000 C   0  0  0  0  0  0  0  0  0  0  0  0
    7.1164    7.7997    5.6097 H   0  0  0  0  0  0  0  0  0  0  0  0
    5.4663    8.3249    6.6561 C   0  0  0  0  0  0  0  0  0  0  0  0
    5.5887    9.2624    6.5689 H   0  0  0  0  0  0  0  0  0  0  0  0
    4.3761    7.8377    7.3362 C   0  0  0  0  0  0  0  0  0  0  0  0
    3.7303    8.4367    7.6908 H   0  0  0  0  0  0  0  0  0  0  0  0
    4.2249    6.4724    7.5029 C   0  0  0  0  0  0  0  0  0  0  0  0
    3.4806    6.1360    7.9931 H   0  0  0  0  0  0  0  0  0  0  0  0
    5.1359    5.6057    6.9681 C   0  0  0  0  0  0  0  0  0  0  0  0
    5.0224    4.6692    7.0843 H   0  0  0  0  0  0  0  0  0  0  0  0
    7.6251    3.7193    6.8344 C   0  0  0  0  0  0  0  0  0  0  0  0
    8.1210    4.1471    8.0571 C   0  0  0  0  0  0  0  0  0  0  0  0
    8.3530    5.0610    8.1695 H   0  0  0  0  0  0  0  0  0  0  0  0
    8.2848    3.2701    9.1112 C   0  0  0  0  0  0  0  0  0  0  0  0
    8.6287    3.5768    9.9425 H   0  0  0  0  0  0  0  0  0  0  0  0
    7.9504    1.9653    8.9426 C   0  0  0  0  0  0  0  0  0  0  0  0
    8.0623    1.3540    9.6615 H   0  0  0  0  0  0  0  0  0  0  0  0
    7.4597    1.5273    7.7587 C   0  0  0  0  0  0  0  0  0  0  0  0
    7.2163    0.6144    7.6579 H   0  0  0  0  0  0  0  0  0  0  0  0
    7.3057    2.4033    6.6968 C   0  0  0  0  0  0  0  0  0  0  0  0
    6.9724    2.0833    5.8674 H   0  0  0  0  0  0  0  0  0  0  0  0
    7.8783    7.2274    2.5055 C   0  0  0  0  0  0  0  0  0  0  0  0
    7.0995    7.6233    2.9686 H   0  0  0  0  0  0  0  0  0  0  0  0
    7.6796    6.2714    2.3427 H   0  0  0  0  0  0  0  0  0  0  0  0
    8.0538    7.8982    1.2208 C   0  0  0  0  0  0  0  0  0  0  0  0
    7.2407    7.7946    0.6860 H   0  0  0  0  0  0  0  0  0  0  0  0
    8.2298    8.8491    1.3719 H   0  0  0  0  0  0  0  0  0  0  0  0
    8.8108    7.4951    0.7441 H   0  0  0  0  0  0  0  0  0  0  0  0
  1  2  1  0  0  0  0
  2 73  1  0  0  0  0
  3  5  1  0  0  0  0
  4  5  1  0  0  0  0
  5 46  1  0  0  0  0
  6  1  1  0  0  0  0
  7  3  1  0  0  0  0
  8  7  2  0  0  0  0
  9  8  1  0  0  0  0
 10  3  1  0  0  0  0
 11 10  1  0  0  0  0
 12  4  1  0  0  0  0
 13 12  1  0  0  0  0
 14 13  2  0  0  0  0
 15  4  2  0  0  0  0
 16  7  1  0  0  0  0
 17 16  1  0  0  0  0
 18 16  1  0  0  0  0
 19 16  1  0  0  0  0
 20  8  1  0  0  0  0
 21 20  1  0  0  0  0
 22 20  1  0  0  0  0
 23 20  1  0  0  0  0
 24 23  1  0  0  0  0
 25 23  1  0  0  0  0
 26 23  1  0  0  0  0
 27  9  1  0  0  0  0
 28 27  1  0  0  0  0
 29 27  1  0  0  0  0
 30 27  1  0  0  0  0
 31 13  1  0  0  0  0
 32 31  1  0  0  0  0
 33 31  1  0  0  0  0
 34 31  1  0  0  0  0
 35 14  1  0  0  0  0
 36 35  1  0  0  0  0
 37 35  1  0  0  0  0
 38 35  1  0  0  0  0
 39 38  1  0  0  0  0
 40 38  1  0  0  0  0
 41 38  1  0  0  0  0
 42 15  1  0  0  0  0
 43 42  1  0  0  0  0
 44 42  1  0  0  0  0
 45 42  1  0  0  0  0
 46 47  4  0  0  0  0
 47 48  1  0  0  0  0
 49 47  4  0  0  0  0
 50 49  1  0  0  0  0
 51 49  4  0  0  0  0
 52 51  1  0  0  0  0
 53 51  4  0  0  0  0
 54 53  1  0  0  0  0
 55 46  4  0  0  0  0
 56 55  1  0  0  0  0
 57  5  1  0  0  0  0
 58 57  4  0  0  0  0
 59 58  1  0  0  0  0
 60 58  4  0  0  0  0
 61 60  1  0  0  0  0
 62 60  4  0  0  0  0
 63 62  1  0  0  0  0
 64 62  4  0  0  0  0
 65 64  1  0  0  0  0
 66 57  4  0  0  0  0
 67 66  1  0  0  0  0
 68 11  1  0  0  0  0
 69 68  4  0  0  0  0
 70 69  1  0  0  0  0
 71 69  4  0  0  0  0
 72 71  1  0  0  0  0
 73 71  4  0  0  0  0
 74 73  4  0  0  0  0
 75 74  1  0  0  0  0
 76 68  4  0  0  0  0
 77 76  1  0  0  0  0
 78  2  1  0  0  0  0
 79 78  4  0  0  0  0
 80 79  1  0  0  0  0
 81 79  4  0  0  0  0
 82 81  1  0  0  0  0
 83 81  4  0  0  0  0
 84 83  1  0  0  0  0
 85 83  4  0  0  0  0
 86 85  1  0  0  0  0
 87 78  4  0  0  0  0
 88 87  1  0  0  0  0
 89  2  1  0  0  0  0
 90 89  4  0  0  0  0
 91 90  1  0  0  0  0
 92 90  4  0  0  0  0
 93 92  1  0  0  0  0
 94 92  4  0  0  0  0
 95 94  1  0  0  0  0
 96 94  4  0  0  0  0
 97 96  1  0  0  0  0
 98 89  4  0  0  0  0
 99 98  1  0  0  0  0
100  6  1  0  0  0  0
101100  1  0  0  0  0
102100  1  0  0  0  0
103100  1  0  0  0  0
104103  1  0  0  0  0
105103  1  0  0  0  0
106103  1  0  0  0  0
107  1  1  0  0  0  0
108110  1  0  0  0  0
109110  1  0  0  0  0
110151  1  0  0  0  0
111  1  1  0  0  0  0
112108  1  0  0  0  0
113112  2  0  0  0  0
114113  1  0  0  0  0
115108  1  0  0  0  0
116115  1  0  0  0  0
117109  1  0  0  0  0
118117  1  0  0  0  0
119118  2  0  0  0  0
120109  2  0  0  0  0
121112  1  0  0  0  0
122121  1  0  0  0  0
123121  1  0  0  0  0
124121  1  0  0  0  0
125113  1  0  0  0  0
126125  1  0  0  0  0
127125  1  0  0  0  0
128125  1  0  0  0  0
129128  1  0  0  0  0
130128  1  0  0  0  0
131128  1  0  0  0  0
132114  1  0  0  0  0
133132  1  0  0  0  0
134132  1  0  0  0  0
135132  1  0  0  0  0
136118  1  0  0  0  0
137136  1  0  0  0  0
138136  1  0  0  0  0
139136  1  0  0  0  0
140119  1  0  0  0  0
141140  1  0  0  0  0
142140  1  0  0  0  0
143140  1  0  0  0  0
144143  1  0  0  0  0
145143  1  0  0  0  0
146143  1  0  0  0  0
147120  1  0  0  0  0
148147  1  0  0  0  0
149147  1  0  0  0  0
150147  1  0  0  0  0
151152  4  0  0  0  0
152153  1  0  0  0  0
154152  4  0  0  0  0
155154  1  0  0  0  0
156154  4  0  0  0  0
157156  1  0  0  0  0
158156  4  0  0  0  0
159158  1  0  0  0  0
160151  4  0  0  0  0
161160  1  0  0  0  0
162110  1  0  0  0  0
163162  4  0  0  0  0
164163  1  0  0  0  0
165163  4  0  0  0  0
166165  1  0  0  0  0
167165  4  0  0  0  0
168167  1  0  0  0  0
169167  4  0  0  0  0
170169  1  0  0  0  0
171162  4  0  0  0  0
172171  1  0  0  0  0
173116  1  0  0  0  0
174173  4  0  0  0  0
175174  1  0  0  0  0
176174  4  0  0  0  0
177176  1  0  0  0  0
178107  1  0  0  0  0
179178  4  0  0  0  0
180179  1  0  0  0  0
181173  4  0  0  0  0
182181  1  0  0  0  0
183107  1  0  0  0  0
184183  4  0  0  0  0
185184  1  0  0  0  0
186184  4  0  0  0  0
187186  1  0  0  0  0
188186  4  0  0  0  0
189188  1  0  0  0  0
190188  4  0  0  0  0
191190  1  0  0  0  0
192183  4  0  0  0  0
193192  1  0  0  0  0
194107  1  0  0  0  0
195194  4  0  0  0  0
196195  1  0  0  0  0
197195  4  0  0  0  0
198197  1  0  0  0  0
199197  4  0  0  0  0
200199  1  0  0  0  0
201199  4  0  0  0  0
202201  1  0  0  0  0
203194  4  0  0  0  0
204203  1  0  0  0  0
205111  1  0  0  0  0
206205  1  0  0  0  0
207205  1  0  0  0  0
208205  1  0  0  0  0
209208  1  0  0  0  0
210208  1  0  0  0  0
211208  1  0  0  0  0
  9 10  2  0  0  0  0
 11 12  2  0  0  0  0
 14 15  1  0  0  0  0
 53 55  4  0  0  0  0
 64 66  4  0  0  0  0
 74 76  4  0  0  0  0
 85 87  4  0  0  0  0
 96 98  4  0  0  0  0
114115  2  0  0  0  0
116117  2  0  0  0  0
119120  1  0  0  0  0
158160  4  0  0  0  0
169171  4  0  0  0  0
176178  4  0  0  0  0
179181  4  0  0  0  0
190192  4  0  0  0  0
201203  4  0  0  0  0
M  END
$$$$
EGEMUA

From CSD data. Using bond type 'Any'. No disordered atoms. Largest molecule.
209225  0  0  0  0  0  0  0  0999 V2000
    3.4763    9.7553   14.1106 Ag  0  0  0  0  0  0  0  0  0  0  0  0
    5.3414   10.6788   12.8649 P   0  0  0  0  0  0  0  0  0  0  0  0
    6.9860    9.6032    4.9218 N   0  0  0  0  0  0  0  0  0  0  0  0
    7.3329    7.2177    5.5325 N   0  0  0  0  0  0  0  0  0  0  0  0
    7.8192    8.3180    4.5179 B   0  0  0  0  0  0  0  0  0  0  0  0
    6.7596   10.7432    4.2188 C   0  0  0  0  0  0  0  0  0  0  0  0
    6.2637   11.7462    5.0691 C   0  0  0  0  0  0  0  0  0  0  0  0
    6.1983   11.2315    6.3424 C   0  0  0  0  0  0  0  0  0  0  0  0
    6.6354    9.8721    6.2620 C   0  0  0  0  0  0  0  0  0  0  0  0
    6.6174    8.8295    7.1874 C   0  0  0  0  0  0  0  0  0  0  0  0
    6.8847    7.5047    6.8298 C   0  0  0  0  0  0  0  0  0  0  0  0
    6.7495    6.2723    7.5444 C   0  0  0  0  0  0  0  0  0  0  0  0
    7.1454    5.2693    6.6704 C   0  0  0  0  0  0  0  0  0  0  0  0
    7.5076    5.8764    5.4611 C   0  0  0  0  0  0  0  0  0  0  0  0
    6.9510   10.8933    2.7465 C   0  0  0  0  0  0  0  0  0  0  0  0
    7.5741   10.2070    2.4270 H   0  0  0  0  0  0  0  0  0  0  0  0
    7.3174   11.7809    2.5540 H   0  0  0  0  0  0  0  0  0  0  0  0
    6.0895   10.7877    2.2916 H   0  0  0  0  0  0  0  0  0  0  0  0
    5.8870   13.1403    4.6145 C   0  0  0  0  0  0  0  0  0  0  0  0
    5.1636   13.4801    5.1983 H   0  0  0  0  0  0  0  0  0  0  0  0
    5.5285   13.0875    3.6942 H   0  0  0  0  0  0  0  0  0  0  0  0
    7.0355   14.1285    4.6345 C   0  0  0  0  0  0  0  0  0  0  0  0
    6.7076   15.0160    4.3771 H   0  0  0  0  0  0  0  0  0  0  0  0
    7.7267   13.8398    4.0018 H   0  0  0  0  0  0  0  0  0  0  0  0
    7.4149   14.1697    5.5370 H   0  0  0  0  0  0  0  0  0  0  0  0
    5.7481   11.9904    7.5627 C   0  0  0  0  0  0  0  0  0  0  0  0
    5.5089   12.9060    7.3093 H   0  0  0  0  0  0  0  0  0  0  0  0
    6.4743   12.0135    8.2208 H   0  0  0  0  0  0  0  0  0  0  0  0
    4.9684   11.5450    7.9556 H   0  0  0  0  0  0  0  0  0  0  0  0
    6.2391    6.0513    8.9371 C   0  0  0  0  0  0  0  0  0  0  0  0
    6.3800    5.1142    9.1916 H   0  0  0  0  0  0  0  0  0  0  0  0
    5.2829    6.2592    8.9715 H   0  0  0  0  0  0  0  0  0  0  0  0
    6.7236    6.6336    9.5585 H   0  0  0  0  0  0  0  0  0  0  0  0
    7.1093    3.7845    6.9074 C   0  0  0  0  0  0  0  0  0  0  0  0
    7.9336    3.3770    6.5389 H   0  0  0  0  0  0  0  0  0  0  0  0
    7.0933    3.6130    7.8822 H   0  0  0  0  0  0  0  0  0  0  0  0
    5.9161    3.1345    6.2736 C   0  0  0  0  0  0  0  0  0  0  0  0
    5.9740    2.1628    6.3893 H   0  0  0  0  0  0  0  0  0  0  0  0
    5.8950    3.3473    5.3197 H   0  0  0  0  0  0  0  0  0  0  0  0
    5.0983    3.4661    6.7025 H   0  0  0  0  0  0  0  0  0  0  0  0
    8.0936    5.1786    4.2631 C   0  0  0  0  0  0  0  0  0  0  0  0
    8.9495    5.5943    4.0300 H   0  0  0  0  0  0  0  0  0  0  0  0
    7.4759    5.2561    3.5051 H   0  0  0  0  0  0  0  0  0  0  0  0
    8.2359    4.2316    4.4731 H   0  0  0  0  0  0  0  0  0  0  0  0
    9.3938    8.6183    4.7937 C   0  0  0  0  0  0  0  0  0  0  0  0
   10.1453    7.8891    5.7300 C   0  0  0  0  0  0  0  0  0  0  0  0
    9.7249    7.1847    6.2115 H   0  0  0  0  0  0  0  0  0  0  0  0
   11.4868    8.1679    5.9744 C   0  0  0  0  0  0  0  0  0  0  0  0
   11.9541    7.6400    6.6122 H   0  0  0  0  0  0  0  0  0  0  0  0
   12.1492    9.1512    5.3451 C   0  0  0  0  0  0  0  0  0  0  0  0
   13.0651    9.3211    5.5314 H   0  0  0  0  0  0  0  0  0  0  0  0
   11.4326    9.9331    4.3940 C   0  0  0  0  0  0  0  0  0  0  0  0
   11.8675   10.6425    3.9340 H   0  0  0  0  0  0  0  0  0  0  0  0
   10.0796    9.6510    4.1350 C   0  0  0  0  0  0  0  0  0  0  0  0
    9.6161   10.1757    3.4938 H   0  0  0  0  0  0  0  0  0  0  0  0
    7.4348    7.8231    3.0200 C   0  0  0  0  0  0  0  0  0  0  0  0
    6.1084    7.5410    2.7112 C   0  0  0  0  0  0  0  0  0  0  0  0
    5.4377    7.7241    3.3583 H   0  0  0  0  0  0  0  0  0  0  0  0
    5.7262    7.0032    1.4901 C   0  0  0  0  0  0  0  0  0  0  0  0
    4.8135    6.8118    1.3095 H   0  0  0  0  0  0  0  0  0  0  0  0
    6.7000    6.7491    0.5362 C   0  0  0  0  0  0  0  0  0  0  0  0
    6.4518    6.3829   -0.3048 H   0  0  0  0  0  0  0  0  0  0  0  0
    8.0102    7.0197    0.7950 C   0  0  0  0  0  0  0  0  0  0  0  0
    8.6727    6.8415    0.1383 H   0  0  0  0  0  0  0  0  0  0  0  0
    8.3737    7.5608    2.0280 C   0  0  0  0  0  0  0  0  0  0  0  0
    9.2892    7.7538    2.1956 H   0  0  0  0  0  0  0  0  0  0  0  0
    6.3073    9.1545    8.6230 C   0  0  0  0  0  0  0  0  0  0  0  0
    5.0309    9.0258    9.1592 C   0  0  0  0  0  0  0  0  0  0  0  0
    4.3282    8.6727    8.6244 H   0  0  0  0  0  0  0  0  0  0  0  0
    4.7796    9.4052   10.4664 C   0  0  0  0  0  0  0  0  0  0  0  0
    3.9074    9.2963   10.8313 H   0  0  0  0  0  0  0  0  0  0  0  0
    5.7950    9.9447   11.2481 C   0  0  0  0  0  0  0  0  0  0  0  0
    7.0753   10.0255   10.7320 C   0  0  0  0  0  0  0  0  0  0  0  0
    7.7812   10.3604   11.2716 H   0  0  0  0  0  0  0  0  0  0  0  0
    7.3335    9.6180    9.4276 C   0  0  0  0  0  0  0  0  0  0  0  0
    8.2200    9.6576    9.0872 H   0  0  0  0  0  0  0  0  0  0  0  0
    5.1457   12.4408   12.4329 C   0  0  0  0  0  0  0  0  0  0  0  0
    5.0735   13.3613   13.4460 C   0  0  0  0  0  0  0  0  0  0  0  0
    5.1358   13.0644   14.3448 H   0  0  0  0  0  0  0  0  0  0  0  0
    4.9106   14.7042   13.1991 C   0  0  0  0  0  0  0  0  0  0  0  0
    4.8786   15.3245   13.9159 H   0  0  0  0  0  0  0  0  0  0  0  0
    4.7987   15.1348   11.9110 C   0  0  0  0  0  0  0  0  0  0  0  0
    4.6919   16.0620   11.7287 H   0  0  0  0  0  0  0  0  0  0  0  0
    4.8352   14.2489   10.8976 C   0  0  0  0  0  0  0  0  0  0  0  0
    4.7386   14.5541   10.0044 H   0  0  0  0  0  0  0  0  0  0  0  0
    5.0123   12.9043   11.1454 C   0  0  0  0  0  0  0  0  0  0  0  0
    5.0414   12.2923   10.4193 H   0  0  0  0  0  0  0  0  0  0  0  0
    6.8581   10.6590   13.8815 C   0  0  0  0  0  0  0  0  0  0  0  0
    7.8720   11.5961   13.7609 C   0  0  0  0  0  0  0  0  0  0  0  0
    7.8030   12.2857   13.1116 H   0  0  0  0  0  0  0  0  0  0  0  0
    8.9793   11.5334   14.5794 C   0  0  0  0  0  0  0  0  0  0  0  0
    9.6680   12.1818   14.4944 H   0  0  0  0  0  0  0  0  0  0  0  0
    9.0869   10.5353   15.5194 C   0  0  0  0  0  0  0  0  0  0  0  0
    9.8539   10.4875   16.0776 H   0  0  0  0  0  0  0  0  0  0  0  0
    8.0905    9.6147   15.6441 C   0  0  0  0  0  0  0  0  0  0  0  0
    8.1650    8.9251   16.2921 H   0  0  0  0  0  0  0  0  0  0  0  0
    6.9788    9.6758   14.8390 C   0  0  0  0  0  0  0  0  0  0  0  0
    6.2851    9.0340   14.9431 H   0  0  0  0  0  0  0  0  0  0  0  0
    2.8438    7.8644   12.7630 O   0  0  0  0  0  0  0  0  0  0  0  0
    2.9938    6.6617   12.9722 C   0  0  0  0  0  0  0  0  0  0  0  0
    3.4763    6.0166   14.1106 C   0  0  0  0  0  0  0  0  0  0  0  0
    3.4763    5.0664   14.1106 H   0  0  0  0  0  0  0  0  0  0  0  0
    2.6084    5.7972   11.7711 C   0  0  0  0  0  0  0  0  0  0  0  0
    3.4656    5.9193   10.8274 F   0  0  0  0  0  0  0  0  0  0  0  0
    1.4374    6.0810   11.3300 F   0  0  0  0  0  0  0  0  0  0  0  0
    2.5742    4.5071   12.0318 F   0  0  0  0  0  0  0  0  0  0  0  0
    4.1087    7.8644   15.4582 O   0  0  0  0  0  0  0  0  0  0  0  0
    3.9587    6.6617   15.2491 C   0  0  0  0  0  0  0  0  0  0  0  0
    4.3441    5.7972   16.4501 C   0  0  0  0  0  0  0  0  0  0  0  0
    3.4869    5.9193   17.3939 F   0  0  0  0  0  0  0  0  0  0  0  0
    5.5151    6.0810   16.8912 F   0  0  0  0  0  0  0  0  0  0  0  0
    4.3783    4.5071   16.1894 F   0  0  0  0  0  0  0  0  0  0  0  0
    1.6111   10.6788   15.3563 P   0  0  0  0  0  0  0  0  0  0  0  0
   -0.0335    9.6032   23.2994 N   0  0  0  0  0  0  0  0  0  0  0  0
   -0.3804    7.2177   22.6887 N   0  0  0  0  0  0  0  0  0  0  0  0
   -0.8666    8.3180   23.7033 B   0  0  0  0  0  0  0  0  0  0  0  0
    0.1929   10.7432   24.0024 C   0  0  0  0  0  0  0  0  0  0  0  0
    0.6888   11.7462   23.1521 C   0  0  0  0  0  0  0  0  0  0  0  0
    0.7542   11.2315   21.8788 C   0  0  0  0  0  0  0  0  0  0  0  0
    0.3171    9.8721   21.9592 C   0  0  0  0  0  0  0  0  0  0  0  0
    0.3351    8.8295   21.0338 C   0  0  0  0  0  0  0  0  0  0  0  0
    0.0678    7.5047   21.3914 C   0  0  0  0  0  0  0  0  0  0  0  0
    0.2030    6.2723   20.6768 C   0  0  0  0  0  0  0  0  0  0  0  0
   -0.1929    5.2693   21.5508 C   0  0  0  0  0  0  0  0  0  0  0  0
   -0.5551    5.8764   22.7601 C   0  0  0  0  0  0  0  0  0  0  0  0
    0.0015   10.8933   25.4747 C   0  0  0  0  0  0  0  0  0  0  0  0
   -0.6215   10.2070   25.7942 H   0  0  0  0  0  0  0  0  0  0  0  0
   -0.3649   11.7809   25.6672 H   0  0  0  0  0  0  0  0  0  0  0  0
    0.8630   10.7877   25.9297 H   0  0  0  0  0  0  0  0  0  0  0  0
    1.0655   13.1403   23.6068 C   0  0  0  0  0  0  0  0  0  0  0  0
    1.7889   13.4801   23.0229 H   0  0  0  0  0  0  0  0  0  0  0  0
    1.4241   13.0875   24.5271 H   0  0  0  0  0  0  0  0  0  0  0  0
   -0.0830   14.1285   23.5867 C   0  0  0  0  0  0  0  0  0  0  0  0
    0.2450   15.0160   23.8441 H   0  0  0  0  0  0  0  0  0  0  0  0
   -0.7742   13.8398   24.2194 H   0  0  0  0  0  0  0  0  0  0  0  0
   -0.4624   14.1697   22.6842 H   0  0  0  0  0  0  0  0  0  0  0  0
    1.2045   11.9904   20.6585 C   0  0  0  0  0  0  0  0  0  0  0  0
    1.4436   12.9060   20.9119 H   0  0  0  0  0  0  0  0  0  0  0  0
    0.4782   12.0135   20.0004 H   0  0  0  0  0  0  0  0  0  0  0  0
    1.9841   11.5450   20.2657 H   0  0  0  0  0  0  0  0  0  0  0  0
    0.7134    6.0513   19.2841 C   0  0  0  0  0  0  0  0  0  0  0  0
    0.5725    5.1142   19.0296 H   0  0  0  0  0  0  0  0  0  0  0  0
    1.6696    6.2592   19.2497 H   0  0  0  0  0  0  0  0  0  0  0  0
    0.2289    6.6336   18.6627 H   0  0  0  0  0  0  0  0  0  0  0  0
   -0.1568    3.7845   21.3138 C   0  0  0  0  0  0  0  0  0  0  0  0
   -0.9811    3.3770   21.6824 H   0  0  0  0  0  0  0  0  0  0  0  0
   -0.1408    3.6130   20.3390 H   0  0  0  0  0  0  0  0  0  0  0  0
    1.0364    3.1345   21.9476 C   0  0  0  0  0  0  0  0  0  0  0  0
    0.9785    2.1628   21.8319 H   0  0  0  0  0  0  0  0  0  0  0  0
    1.0575    3.3473   22.9015 H   0  0  0  0  0  0  0  0  0  0  0  0
    1.8542    3.4661   21.5187 H   0  0  0  0  0  0  0  0  0  0  0  0
   -1.1411    5.1786   23.9581 C   0  0  0  0  0  0  0  0  0  0  0  0
   -1.9970    5.5943   24.1912 H   0  0  0  0  0  0  0  0  0  0  0  0
   -0.5234    5.2561   24.7161 H   0  0  0  0  0  0  0  0  0  0  0  0
   -1.2834    4.2316   23.7482 H   0  0  0  0  0  0  0  0  0  0  0  0
   -2.4413    8.6183   23.4276 C   0  0  0  0  0  0  0  0  0  0  0  0
   -3.1928    7.8891   22.4912 C   0  0  0  0  0  0  0  0  0  0  0  0
   -2.7724    7.1847   22.0097 H   0  0  0  0  0  0  0  0  0  0  0  0
   -4.5343    8.1679   22.2468 C   0  0  0  0  0  0  0  0  0  0  0  0
   -5.0016    7.6400   21.6090 H   0  0  0  0  0  0  0  0  0  0  0  0
   -5.1966    9.1512   22.8761 C   0  0  0  0  0  0  0  0  0  0  0  0
   -6.1125    9.3211   22.6899 H   0  0  0  0  0  0  0  0  0  0  0  0
   -4.4801    9.9331   23.8272 C   0  0  0  0  0  0  0  0  0  0  0  0
   -4.9150   10.6425   24.2872 H   0  0  0  0  0  0  0  0  0  0  0  0
   -3.1271    9.6510   24.0862 C   0  0  0  0  0  0  0  0  0  0  0  0
   -2.6636   10.1757   24.7274 H   0  0  0  0  0  0  0  0  0  0  0  0
   -0.4823    7.8231   25.2013 C   0  0  0  0  0  0  0  0  0  0  0  0
    0.8441    7.5410   25.5100 C   0  0  0  0  0  0  0  0  0  0  0  0
    1.5148    7.7241   24.8629 H   0  0  0  0  0  0  0  0  0  0  0  0
    1.2263    7.0032   26.7311 C   0  0  0  0  0  0  0  0  0  0  0  0
    2.1390    6.8118   26.9117 H   0  0  0  0  0  0  0  0  0  0  0  0
    0.2525    6.7491   27.6850 C   0  0  0  0  0  0  0  0  0  0  0  0
    0.5007    6.3829   28.5260 H   0  0  0  0  0  0  0  0  0  0  0  0
   -1.0577    7.0197   27.4262 C   0  0  0  0  0  0  0  0  0  0  0  0
   -1.7202    6.8415   28.0829 H   0  0  0  0  0  0  0  0  0  0  0  0
   -1.4212    7.5608   26.1932 C   0  0  0  0  0  0  0  0  0  0  0  0
   -2.3366    7.7538   26.0256 H   0  0  0  0  0  0  0  0  0  0  0  0
    0.6453    9.1545   19.5982 C   0  0  0  0  0  0  0  0  0  0  0  0
    1.9216    9.0258   19.0620 C   0  0  0  0  0  0  0  0  0  0  0  0
    2.6243    8.6727   19.5968 H   0  0  0  0  0  0  0  0  0  0  0  0
    2.1729    9.4052   17.7548 C   0  0  0  0  0  0  0  0  0  0  0  0
    3.0451    9.2963   17.3899 H   0  0  0  0  0  0  0  0  0  0  0  0
    1.1575    9.9447   16.9731 C   0  0  0  0  0  0  0  0  0  0  0  0
   -0.1227   10.0255   17.4893 C   0  0  0  0  0  0  0  0  0  0  0  0
   -0.8287   10.3604   16.9497 H   0  0  0  0  0  0  0  0  0  0  0  0
   -0.3810    9.6180   18.7936 C   0  0  0  0  0  0  0  0  0  0  0  0
   -1.2675    9.6576   19.1340 H   0  0  0  0  0  0  0  0  0  0  0  0
    1.8068   12.4408   15.7884 C   0  0  0  0  0  0  0  0  0  0  0  0
    1.8790   13.3613   14.7752 C   0  0  0  0  0  0  0  0  0  0  0  0
    1.8167   13.0644   13.8764 H   0  0  0  0  0  0  0  0  0  0  0  0
    2.0419   14.7042   15.0222 C   0  0  0  0  0  0  0  0  0  0  0  0
    2.0739   15.3245   14.3053 H   0  0  0  0  0  0  0  0  0  0  0  0
    2.1538   15.1348   16.3102 C   0  0  0  0  0  0  0  0  0  0  0  0
    2.2606   16.0620   16.4925 H   0  0  0  0  0  0  0  0  0  0  0  0
    2.1173   14.2489   17.3236 C   0  0  0  0  0  0  0  0  0  0  0  0
    2.2139   14.5541   18.2168 H   0  0  0  0  0  0  0  0  0  0  0  0
    1.9402   12.9043   17.0758 C   0  0  0  0  0  0  0  0  0  0  0  0
    1.9111   12.2923   17.8019 H   0  0  0  0  0  0  0  0  0  0  0  0
    0.0944   10.6590   14.3398 C   0  0  0  0  0  0  0  0  0  0  0  0
   -0.9195   11.5961   14.4603 C   0  0  0  0  0  0  0  0  0  0  0  0
   -0.8505   12.2857   15.1096 H   0  0  0  0  0  0  0  0  0  0  0  0
   -2.0268   11.5334   13.6419 C   0  0  0  0  0  0  0  0  0  0  0  0
   -2.7155   12.1818   13.7268 H   0  0  0  0  0  0  0  0  0  0  0  0
   -2.1344   10.5353   12.7018 C   0  0  0  0  0  0  0  0  0  0  0  0
   -2.9014   10.4875   12.1436 H   0  0  0  0  0  0  0  0  0  0  0  0
   -1.1380    9.6147   12.5771 C   0  0  0  0  0  0  0  0  0  0  0  0
   -1.2124    8.9251   11.9291 H   0  0  0  0  0  0  0  0  0  0  0  0
   -0.0263    9.6758   13.3822 C   0  0  0  0  0  0  0  0  0  0  0  0
    0.6674    9.0340   13.2781 H   0  0  0  0  0  0  0  0  0  0  0  0
  1  2  1  0  0  0  0
  2 72  1  0  0  0  0
  3  5  1  0  0  0  0
  4  5  1  0  0  0  0
  5 45  1  0  0  0  0
  6  3  2  0  0  0  0
  7  6  1  0  0  0  0
  8  7  2  0  0  0  0
  9  3  1  0  0  0  0
 10  9  2  0  0  0  0
 11  4  1  0  0  0  0
 12 11  2  0  0  0  0
 13 12  1  0  0  0  0
 14  4  1  0  0  0  0
 15  6  1  0  0  0  0
 16 15  1  0  0  0  0
 17 15  1  0  0  0  0
 18 15  1  0  0  0  0
 19  7  1  0  0  0  0
 20 19  1  0  0  0  0
 21 19  1  0  0  0  0
 22 19  1  0  0  0  0
 23 22  1  0  0  0  0
 24 22  1  0  0  0  0
 25 22  1  0  0  0  0
 26  8  1  0  0  0  0
 27 26  1  0  0  0  0
 28 26  1  0  0  0  0
 29 26  1  0  0  0  0
 30 12  1  0  0  0  0
 31 30  1  0  0  0  0
 32 30  1  0  0  0  0
 33 30  1  0  0  0  0
 34 13  1  0  0  0  0
 35 34  1  0  0  0  0
 36 34  1  0  0  0  0
 37 34  1  0  0  0  0
 38 37  1  0  0  0  0
 39 37  1  0  0  0  0
 40 37  1  0  0  0  0
 41 14  1  0  0  0  0
 42 41  1  0  0  0  0
 43 41  1  0  0  0  0
 44 41  1  0  0  0  0
 45 46  4  0  0  0  0
 46 47  1  0  0  0  0
 48 46  4  0  0  0  0
 49 48  1  0  0  0  0
 50 48  4  0  0  0  0
 51 50  1  0  0  0  0
 52 50  4  0  0  0  0
 53 52  1  0  0  0  0
 54 45  4  0  0  0  0
 55 54  1  0  0  0  0
 56  5  1  0  0  0  0
 57 56  4  0  0  0  0
 58 57  1  0  0  0  0
 59 57  4  0  0  0  0
 60 59  1  0  0  0  0
 61 59  4  0  0  0  0
 62 61  1  0  0  0  0
 63 61  4  0  0  0  0
 64 63  1  0  0  0  0
 65 56  4  0  0  0  0
 66 65  1  0  0  0  0
 67 10  1  0  0  0  0
 68 67  4  0  0  0  0
 69 68  1  0  0  0  0
 70 68  4  0  0  0  0
 71 70  1  0  0  0  0
 72 70  4  0  0  0  0
 73 72  4  0  0  0  0
 74 73  1  0  0  0  0
 75 67  4  0  0  0  0
 76 75  1  0  0  0  0
 77  2  1  0  0  0  0
 78 77  4  0  0  0  0
 79 78  1  0  0  0  0
 80 78  4  0  0  0  0
 81 80  1  0  0  0  0
 82 80  4  0  0  0  0
 83 82  1  0  0  0  0
 84 82  4  0  0  0  0
 85 84  1  0  0  0  0
 86 77  4  0  0  0  0
 87 86  1  0  0  0  0
 88  2  1  0  0  0  0
 89 88  4  0  0  0  0
 90 89  1  0  0  0  0
 91 89  4  0  0  0  0
 92 91  1  0  0  0  0
 93 91  4  0  0  0  0
 94 93  1  0  0  0  0
 95 93  4  0  0  0  0
 96 95  1  0  0  0  0
 97 88  4  0  0  0  0
 98 97  1  0  0  0  0
 99  1  1  0  0  0  0
100 99  8  0  0  0  0
101100  8  0  0  0  0
102101  1  0  0  0  0
103100  1  0  0  0  0
104103  1  0  0  0  0
105103  1  0  0  0  0
106103  1  0  0  0  0
107  1  1  0  0  0  0
108101  8  0  0  0  0
109108  1  0  0  0  0
110109  1  0  0  0  0
111109  1  0  0  0  0
112109  1  0  0  0  0
113  1  1  0  0  0  0
114116  1  0  0  0  0
115116  1  0  0  0  0
116156  1  0  0  0  0
117114  2  0  0  0  0
118117  1  0  0  0  0
119118  2  0  0  0  0
120114  1  0  0  0  0
121120  2  0  0  0  0
122115  1  0  0  0  0
123122  2  0  0  0  0
124123  1  0  0  0  0
125115  1  0  0  0  0
126117  1  0  0  0  0
127126  1  0  0  0  0
128126  1  0  0  0  0
129126  1  0  0  0  0
130118  1  0  0  0  0
131130  1  0  0  0  0
132130  1  0  0  0  0
133130  1  0  0  0  0
134133  1  0  0  0  0
135133  1  0  0  0  0
136133  1  0  0  0  0
137119  1  0  0  0  0
138137  1  0  0  0  0
139137  1  0  0  0  0
140137  1  0  0  0  0
141123  1  0  0  0  0
142141  1  0  0  0  0
143141  1  0  0  0  0
144141  1  0  0  0  0
145124  1  0  0  0  0
146145  1  0  0  0  0
147145  1  0  0  0  0
148145  1  0  0  0  0
149148  1  0  0  0  0
150148  1  0  0  0  0
151148  1  0  0  0  0
152125  1  0  0  0  0
153152  1  0  0  0  0
154152  1  0  0  0  0
155152  1  0  0  0  0
156157  4  0  0  0  0
157158  1  0  0  0  0
159157  4  0  0  0  0
160159  1  0  0  0  0
161159  4  0  0  0  0
162161  1  0  0  0  0
163161  4  0  0  0  0
164163  1  0  0  0  0
165156  4  0  0  0  0
166165  1  0  0  0  0
167116  1  0  0  0  0
168167  4  0  0  0  0
169168  1  0  0  0  0
170168  4  0  0  0  0
171170  1  0  0  0  0
172170  4  0  0  0  0
173172  1  0  0  0  0
174172  4  0  0  0  0
175174  1  0  0  0  0
176167  4  0  0  0  0
177176  1  0  0  0  0
178121  1  0  0  0  0
179178  4  0  0  0  0
180179  1  0  0  0  0
181179  4  0  0  0  0
182181  1  0  0  0  0
183113  1  0  0  0  0
184183  4  0  0  0  0
185184  1  0  0  0  0
186178  4  0  0  0  0
187186  1  0  0  0  0
188113  1  0  0  0  0
189188  4  0  0  0  0
190189  1  0  0  0  0
191189  4  0  0  0  0
192191  1  0  0  0  0
193191  4  0  0  0  0
194193  1  0  0  0  0
195193  4  0  0  0  0
196195  1  0  0  0  0
197188  4  0  0  0  0
198197  1  0  0  0  0
199113  1  0  0  0  0
200199  4  0  0  0  0
201200  1  0  0  0  0
202200  4  0  0  0  0
203202  1  0  0  0  0
204202  4  0  0  0  0
205204  1  0  0  0  0
206204  4  0  0  0  0
207206  1  0  0  0  0
208199  4  0  0  0  0
209208  1  0  0  0  0
  8  9  1  0  0  0  0
 10 11  1  0  0  0  0
 13 14  2  0  0  0  0
 52 54  4  0  0  0  0
 63 65  4  0  0  0  0
 73 75  4  0  0  0  0
 84 86  4  0  0  0  0
 95 97  4  0  0  0  0
107108  8  0  0  0  0
119120  1  0  0  0  0
121122  1  0  0  0  0
124125  2  0  0  0  0
163165  4  0  0  0  0
174176  4  0  0  0  0
181183  4  0  0  0  0
184186  4  0  0  0  0
195197  4  0  0  0  0
206208  4  0  0  0  0
M  END
$$$$
EGETOB

From CSD data. Using bond type 'Any'. No disordered atoms. Largest molecule.
 85107  0  0  0  0  0  0  0  0999 V2000
    3.4460    5.8432    4.1937 Ag  0  3  0  0  0  0  0  0  0  0  0  0
    3.5949    6.3586    8.1832 B   0  0  0  0  0  0  0  0  0  0  0  0
    3.0997    7.2715    7.8207 H   0  0  0  0  0  0  0  0  0  0  0  0
    2.7081    5.0755    9.0546 B   0  0  0  0  0  0  0  0  0  0  0  0
    1.6436    5.1696    9.3176 H   0  0  0  0  0  0  0  0  0  0  0  0
    3.4316    3.5396    8.5369 B   0  0  0  0  0  0  0  0  0  0  0  0
    2.8462    2.6117    8.4553 H   0  0  0  0  0  0  0  0  0  0  0  0
    4.7353    3.9491    7.3759 B   0  0  0  0  0  0  0  0  0  0  0  0
    4.9694    3.3170    6.5066 H   0  0  0  0  0  0  0  0  0  0  0  0
    6.0009    4.8422    8.2810 B   0  0  0  0  0  0  0  0  0  0  0  0
    7.0699    4.7548    8.0345 H   0  0  0  0  0  0  0  0  0  0  0  0
    5.2718    6.3691    8.8016 B   0  0  0  0  0  0  0  0  0  0  0  0
    5.8561    7.2956    8.9020 H   0  0  0  0  0  0  0  0  0  0  0  0
    3.9342    6.0151    9.9060 B   0  0  0  0  0  0  0  0  0  0  0  0
    3.6565    6.7142   10.7092 H   0  0  0  0  0  0  0  0  0  0  0  0
    3.8624    4.2469   10.1093 B   0  0  0  0  0  0  0  0  0  0  0  0
    3.5521    3.7845   11.0576 H   0  0  0  0  0  0  0  0  0  0  0  0
    5.1225    3.5149    9.0672 B   0  0  0  0  0  0  0  0  0  0  0  0
    5.6245    2.5700    9.3210 H   0  0  0  0  0  0  0  0  0  0  0  0
    5.4381    5.0386    9.9577 B   0  0  0  0  0  0  0  0  0  0  0  0
    6.1381    5.0844   10.8041 H   0  0  0  0  0  0  0  0  0  0  0  0
    3.2608    4.8334    7.4737 C   0  0  0  0  0  0  0  0  0  0  0  0
    4.8940    5.6615    7.3073 C   0  0  0  0  0  0  0  0  0  0  0  0
    1.7053    8.0941    2.2608 C   0  0  0  0  0  0  0  0  0  0  0  0
    1.4757    8.5896    3.0145 H   0  0  0  0  0  0  0  0  0  0  0  0
    1.2728    8.5399    1.0221 C   0  0  0  0  0  0  0  0  0  0  0  0
    0.7681    9.3194    0.9640 H   0  0  0  0  0  0  0  0  0  0  0  0
    1.5853    7.8348   -0.1330 C   0  0  0  0  0  0  0  0  0  0  0  0
    1.3127    8.1264   -0.9726 H   0  0  0  0  0  0  0  0  0  0  0  0
    2.3195    6.6816    0.0291 C   0  0  0  0  0  0  0  0  0  0  0  0
    2.8125    5.6323   -0.9316 C   0  0  0  0  0  0  0  0  0  0  0  0
    3.5248    4.6202   -0.0814 C   0  0  0  0  0  0  0  0  0  0  0  0
    4.1253    3.4093   -0.3582 C   0  0  0  0  0  0  0  0  0  0  0  0
    4.1888    3.0806   -1.2261 H   0  0  0  0  0  0  0  0  0  0  0  0
    4.6312    2.7075    0.7307 C   0  0  0  0  0  0  0  0  0  0  0  0
    5.0480    1.8869    0.5984 H   0  0  0  0  0  0  0  0  0  0  0  0
    4.5193    3.2215    2.0091 C   0  0  0  0  0  0  0  0  0  0  0  0
    4.8700    2.7245    2.7127 H   0  0  0  0  0  0  0  0  0  0  0  0
    3.4541    5.0509    1.2415 C   0  0  0  0  0  0  0  0  0  0  0  0
    2.7118    6.3161    1.3079 C   0  0  0  0  0  0  0  0  0  0  0  0
    1.5693    3.1101    5.6961 C   0  0  0  0  0  0  0  0  0  0  0  0
    1.0758    2.7874    6.4790 H   0  0  0  0  0  0  0  0  0  0  0  0
    0.6236    3.1949    4.4882 C   0  0  0  0  0  0  0  0  0  0  0  0
    1.1018    3.5441    3.7319 H   0  0  0  0  0  0  0  0  0  0  0  0
   -0.1116    3.7756    4.6976 H   0  0  0  0  0  0  0  0  0  0  0  0
    0.2905    2.3197    4.2802 H   0  0  0  0  0  0  0  0  0  0  0  0
    2.6950    2.1366    5.3615 C   0  0  0  0  0  0  0  0  0  0  0  0
    2.3226    1.3290    4.9994 H   0  0  0  0  0  0  0  0  0  0  0  0
    3.1888    1.9314    6.1582 H   0  0  0  0  0  0  0  0  0  0  0  0
    3.2820    2.5363    4.7148 H   0  0  0  0  0  0  0  0  0  0  0  0
    0.6564    5.8020    6.5809 C   0  0  0  0  0  0  0  0  0  0  0  0
    0.9882    6.4460    7.2412 H   0  0  0  0  0  0  0  0  0  0  0  0
    0.0880    6.6260    5.4200 C   0  0  0  0  0  0  0  0  0  0  0  0
   -0.2697    6.0353    4.7528 H   0  0  0  0  0  0  0  0  0  0  0  0
    0.7867    7.1589    5.0339 H   0  0  0  0  0  0  0  0  0  0  0  0
   -0.6091    7.1995    5.7461 H   0  0  0  0  0  0  0  0  0  0  0  0
   -0.4354    4.9883    7.2825 C   0  0  0  0  0  0  0  0  0  0  0  0
   -1.0800    5.5843    7.6706 H   0  0  0  0  0  0  0  0  0  0  0  0
   -0.0402    4.4510    7.9742 H   0  0  0  0  0  0  0  0  0  0  0  0
   -0.8698    4.4172    6.6428 H   0  0  0  0  0  0  0  0  0  0  0  0
    6.9431    5.8927    5.1206 C   0  0  0  0  0  0  0  0  0  0  0  0
    7.6144    6.1587    5.7823 H   0  0  0  0  0  0  0  0  0  0  0  0
    7.2147    6.6257    3.8012 C   0  0  0  0  0  0  0  0  0  0  0  0
    8.0903    6.3971    3.4818 H   0  0  0  0  0  0  0  0  0  0  0  0
    7.1644    7.5742    3.9457 H   0  0  0  0  0  0  0  0  0  0  0  0
    6.5591    6.3657    3.1490 H   0  0  0  0  0  0  0  0  0  0  0  0
    7.0361    4.3903    4.8859 C   0  0  0  0  0  0  0  0  0  0  0  0
    6.2902    4.1029    4.3544 H   0  0  0  0  0  0  0  0  0  0  0  0
    7.0231    3.9328    5.7306 H   0  0  0  0  0  0  0  0  0  0  0  0
    7.8537    4.1879    4.4251 H   0  0  0  0  0  0  0  0  0  0  0  0
    5.4821    8.2664    6.1388 C   0  0  0  0  0  0  0  0  0  0  0  0
    4.9233    8.4097    6.9308 H   0  0  0  0  0  0  0  0  0  0  0  0
    4.8990    9.1482    5.0363 C   0  0  0  0  0  0  0  0  0  0  0  0
    4.9589   10.0705    5.2994 H   0  0  0  0  0  0  0  0  0  0  0  0
    3.9789    8.9145    4.8925 H   0  0  0  0  0  0  0  0  0  0  0  0
    5.3939    9.0140    4.2251 H   0  0  0  0  0  0  0  0  0  0  0  0
    6.8989    8.7104    6.5225 C   0  0  0  0  0  0  0  0  0  0  0  0
    7.4520    8.7273    5.7375 H   0  0  0  0  0  0  0  0  0  0  0  0
    7.2661    8.0927    7.1602 H   0  0  0  0  0  0  0  0  0  0  0  0
    6.8650    9.5880    6.9101 H   0  0  0  0  0  0  0  0  0  0  0  0
    2.4431    6.9762    2.4283 N   0  0  0  0  0  0  0  0  0  0  0  0
    3.9281    4.4072    2.2976 N   0  0  0  0  0  0  0  0  0  0  0  0
    2.6450    5.6044   -2.1260 O   0  0  0  0  0  0  0  0  0  0  0  0
    2.1404    4.8434    5.9906 P   0  0  0  0  0  0  0  0  0  0  0  0
    5.2785    6.4730    5.6716 P   0  0  0  0  0  0  0  0  0  0  0  0
  1 81  1  0  0  0  0
  2  3  1  0  0  0  0
  4  2  1  0  0  0  0
  5  4  1  0  0  0  0
  6  4  1  0  0  0  0
  7  6  1  0  0  0  0
  8  6  1  0  0  0  0
  9  8  1  0  0  0  0
 10  8  1  0  0  0  0
 11 10  1  0  0  0  0
 12  2  1  0  0  0  0
 13 12  1  0  0  0  0
 14  2  1  0  0  0  0
 15 14  1  0  0  0  0
 16  4  1  0  0  0  0
 17 16  1  0  0  0  0
 18  6  1  0  0  0  0
 19 18  1  0  0  0  0
 20 10  1  0  0  0  0
 21 20  1  0  0  0  0
 22  2  1  0  0  0  0
 23  2  1  0  0  0  0
 24 25  1  0  0  0  0
 26 24  4  0  0  0  0
 27 26  1  0  0  0  0
 28 26  4  0  0  0  0
 29 28  1  0  0  0  0
 30 28  4  0  0  0  0
 31 30  1  0  0  0  0
 32 31  1  0  0  0  0
 33 32  4  0  0  0  0
 34 33  1  0  0  0  0
 35 33  4  0  0  0  0
 36 35  1  0  0  0  0
 37 35  4  0  0  0  0
 38 37  1  0  0  0  0
 39 32  4  0  0  0  0
 40 30  4  0  0  0  0
 41 42  1  0  0  0  0
 43 41  1  0  0  0  0
 44 43  1  0  0  0  0
 45 43  1  0  0  0  0
 46 43  1  0  0  0  0
 47 41  1  0  0  0  0
 48 47  1  0  0  0  0
 49 47  1  0  0  0  0
 50 47  1  0  0  0  0
 51 52  1  0  0  0  0
 53 51  1  0  0  0  0
 54 53  1  0  0  0  0
 55 53  1  0  0  0  0
 56 53  1  0  0  0  0
 57 51  1  0  0  0  0
 58 57  1  0  0  0  0
 59 57  1  0  0  0  0
 60 57  1  0  0  0  0
 61 62  1  0  0  0  0
 63 61  1  0  0  0  0
 64 63  1  0  0  0  0
 65 63  1  0  0  0  0
 66 63  1  0  0  0  0
 67 61  1  0  0  0  0
 68 67  1  0  0  0  0
 69 67  1  0  0  0  0
 70 67  1  0  0  0  0
 71 72  1  0  0  0  0
 73 71  1  0  0  0  0
 74 73  1  0  0  0  0
 75 73  1  0  0  0  0
 76 73  1  0  0  0  0
 77 71  1  0  0  0  0
 78 77  1  0  0  0  0
 79 77  1  0  0  0  0
 80 77  1  0  0  0  0
 81 24  4  0  0  0  0
 82  1  1  0  0  0  0
 83 31  2  0  0  0  0
 84  1  1  0  0  0  0
 85  1  1  0  0  0  0
  4 14  1  0  0  0  0
  4 22  1  0  0  0  0
  6 16  1  0  0  0  0
  6 22  1  0  0  0  0
  8 18  1  0  0  0  0
  8 22  1  0  0  0  0
  8 23  1  0  0  0  0
 10 12  1  0  0  0  0
 10 18  1  0  0  0  0
 10 23  1  0  0  0  0
 12 14  1  0  0  0  0
 12 20  1  0  0  0  0
 12 23  1  0  0  0  0
 14 16  1  0  0  0  0
 14 20  1  0  0  0  0
 16 18  1  0  0  0  0
 16 20  1  0  0  0  0
 18 20  1  0  0  0  0
 22 84  1  0  0  0  0
 23 85  1  0  0  0  0
 37 82  4  0  0  0  0
 39 40  1  0  0  0  0
 39 82  4  0  0  0  0
 40 81  4  0  0  0  0
 41 84  1  0  0  0  0
 51 84  1  0  0  0  0
 61 85  1  0  0  0  0
 71 85  1  0  0  0  0
M  CHG  1   1   1
M  END
$$$$
EGICUU

From CSD data. Using bond type 'Any'. Matching problem. No disordered atoms. Largest molecule.
209221  0  0  0  0  0  0  0  0999 V2000
   15.3263    2.0715    5.8189 Ag  0  0  0  0  0  0  0  0  0  0  0  0
   13.0609    1.2891    5.9916 P   0  0  0  0  0  0  0  0  0  0  0  0
    7.9793    7.6390    7.5073 N   0  0  0  0  0  0  0  0  0  0  0  0
    7.6135    6.2919    9.5984 N   0  0  0  0  0  0  0  0  0  0  0  0
    7.1779    7.6431    8.8704 B   0  0  0  0  0  0  0  0  0  0  0  0
    7.9311    8.5769    6.5591 C   0  0  0  0  0  0  0  0  0  0  0  0
    8.7212    8.1813    5.4488 C   0  0  0  0  0  0  0  0  0  0  0  0
    9.2769    6.9562    5.7468 C   0  0  0  0  0  0  0  0  0  0  0  0
    8.8126    6.6049    7.0525 C   0  0  0  0  0  0  0  0  0  0  0  0
    9.0818    5.5100    7.8555 C   0  0  0  0  0  0  0  0  0  0  0  0
    8.5380    5.3457    9.1101 C   0  0  0  0  0  0  0  0  0  0  0  0
    8.6779    4.3169   10.0923 C   0  0  0  0  0  0  0  0  0  0  0  0
    7.8456    4.6361   11.1304 C   0  0  0  0  0  0  0  0  0  0  0  0
    7.2142    5.8509   10.8046 C   0  0  0  0  0  0  0  0  0  0  0  0
    7.1982    9.8816    6.6708 C   0  0  0  0  0  0  0  0  0  0  0  0
    6.7278    9.9188    7.5297 H   0  0  0  0  0  0  0  0  0  0  0  0
    6.5500    9.9570    5.9400 H   0  0  0  0  0  0  0  0  0  0  0  0
    7.8388   10.6222    6.6173 H   0  0  0  0  0  0  0  0  0  0  0  0
    8.8597    8.9715    4.1640 C   0  0  0  0  0  0  0  0  0  0  0  0
    8.7507    9.9353    4.3642 H   0  0  0  0  0  0  0  0  0  0  0  0
    9.7704    8.8393    3.8009 H   0  0  0  0  0  0  0  0  0  0  0  0
    7.8805    8.5810    3.1539 C   0  0  0  0  0  0  0  0  0  0  0  0
    8.0242    9.1089    2.3415 H   0  0  0  0  0  0  0  0  0  0  0  0
    6.9771    8.7432    3.4937 H   0  0  0  0  0  0  0  0  0  0  0  0
    7.9882    7.6286    2.9467 H   0  0  0  0  0  0  0  0  0  0  0  0
   10.1889    6.1876    4.8483 C   0  0  0  0  0  0  0  0  0  0  0  0
   10.3268    6.6886    4.0174 H   0  0  0  0  0  0  0  0  0  0  0  0
    9.7856    5.3178    4.6435 H   0  0  0  0  0  0  0  0  0  0  0  0
   11.0516    6.0523    5.2952 H   0  0  0  0  0  0  0  0  0  0  0  0
    9.5344    3.0783   10.0248 C   0  0  0  0  0  0  0  0  0  0  0  0
    9.4310    2.5628   10.8511 H   0  0  0  0  0  0  0  0  0  0  0  0
   10.4765    3.3366    9.9178 H   0  0  0  0  0  0  0  0  0  0  0  0
    9.2608    2.5308    9.2591 H   0  0  0  0  0  0  0  0  0  0  0  0
    7.6388    3.8820   12.3966 C   0  0  0  0  0  0  0  0  0  0  0  0
    7.3496    4.4997   13.1158 H   0  0  0  0  0  0  0  0  0  0  0  0
    8.4838    3.4523   12.6783 H   0  0  0  0  0  0  0  0  0  0  0  0
    6.5864    2.8418   12.1615 C   0  0  0  0  0  0  0  0  0  0  0  0
    6.4306    2.3408   12.9902 H   0  0  0  0  0  0  0  0  0  0  0  0
    6.8868    2.2271   11.4609 H   0  0  0  0  0  0  0  0  0  0  0  0
    5.7544    3.2756   11.8822 H   0  0  0  0  0  0  0  0  0  0  0  0
    6.1768    6.5533   11.6588 C   0  0  0  0  0  0  0  0  0  0  0  0
    5.9004    7.3869   11.2235 H   0  0  0  0  0  0  0  0  0  0  0  0
    6.5582    6.7558   12.5386 H   0  0  0  0  0  0  0  0  0  0  0  0
    5.3948    5.9707   11.7705 H   0  0  0  0  0  0  0  0  0  0  0  0
   10.0324    4.4656    7.3621 C   0  0  0  0  0  0  0  0  0  0  0  0
   11.3800    4.6123    7.6065 C   0  0  0  0  0  0  0  0  0  0  0  0
   11.6957    5.3726    8.0790 H   0  0  0  0  0  0  0  0  0  0  0  0
   12.2771    3.6444    7.1596 C   0  0  0  0  0  0  0  0  0  0  0  0
   13.2079    3.7560    7.3202 H   0  0  0  0  0  0  0  0  0  0  0  0
   11.8298    2.5236    6.4893 C   0  0  0  0  0  0  0  0  0  0  0  0
   10.4598    2.3976    6.2356 C   0  0  0  0  0  0  0  0  0  0  0  0
   10.1348    1.6404    5.7631 H   0  0  0  0  0  0  0  0  0  0  0  0
    9.5785    3.3686    6.6685 C   0  0  0  0  0  0  0  0  0  0  0  0
    8.6516    3.2777    6.4846 H   0  0  0  0  0  0  0  0  0  0  0  0
    7.6906    8.8930    9.7804 C   0  0  0  0  0  0  0  0  0  0  0  0
    7.1143    8.9787   10.5695 H   0  0  0  0  0  0  0  0  0  0  0  0
    7.6462    9.7184    9.2544 H   0  0  0  0  0  0  0  0  0  0  0  0
    8.6132    8.7339   10.0667 H   0  0  0  0  0  0  0  0  0  0  0  0
    5.5847    7.5605    8.5654 C   0  0  0  0  0  0  0  0  0  0  0  0
    5.4143    6.8560    7.9044 H   0  0  0  0  0  0  0  0  0  0  0  0
    5.2738    8.4209    8.2140 H   0  0  0  0  0  0  0  0  0  0  0  0
    5.1050    7.3539    9.3941 H   0  0  0  0  0  0  0  0  0  0  0  0
   12.4580    0.5919    4.4154 C   0  0  0  0  0  0  0  0  0  0  0  0
   11.5298    0.2500    4.5550 H   0  0  0  0  0  0  0  0  0  0  0  0
   12.4183    1.6641    3.3610 C   0  0  0  0  0  0  0  0  0  0  0  0
   13.3077    2.0970    3.3005 H   0  0  0  0  0  0  0  0  0  0  0  0
   11.7604    2.3552    3.6217 H   0  0  0  0  0  0  0  0  0  0  0  0
   12.0385    1.0960    1.9831 C   0  0  0  0  0  0  0  0  0  0  0  0
   11.1161    0.7334    2.0180 H   0  0  0  0  0  0  0  0  0  0  0  0
   12.0583    1.8201    1.3104 H   0  0  0  0  0  0  0  0  0  0  0  0
   12.9986   -0.0021    1.5734 C   0  0  0  0  0  0  0  0  0  0  0  0
   12.7265   -0.3698    0.6959 H   0  0  0  0  0  0  0  0  0  0  0  0
   13.9100    0.3688    1.4873 H   0  0  0  0  0  0  0  0  0  0  0  0
   12.9911   -1.0970    2.6045 C   0  0  0  0  0  0  0  0  0  0  0  0
   13.6455   -1.7943    2.3439 H   0  0  0  0  0  0  0  0  0  0  0  0
   12.0957   -1.5154    2.6302 H   0  0  0  0  0  0  0  0  0  0  0  0
   13.3410   -0.5733    3.9941 C   0  0  0  0  0  0  0  0  0  0  0  0
   13.2460   -1.3078    4.6505 H   0  0  0  0  0  0  0  0  0  0  0  0
   14.2865   -0.2820    4.0011 H   0  0  0  0  0  0  0  0  0  0  0  0
   12.9193   -0.0186    7.2853 C   0  0  0  0  0  0  0  0  0  0  0  0
   13.5538   -0.7469    7.0246 H   0  0  0  0  0  0  0  0  0  0  0  0
   13.3983    0.5113    8.6143 C   0  0  0  0  0  0  0  0  0  0  0  0
   12.7913    1.2313    8.9192 H   0  0  0  0  0  0  0  0  0  0  0  0
   14.3023    0.9008    8.5073 H   0  0  0  0  0  0  0  0  0  0  0  0
   13.4464   -0.5847    9.6641 C   0  0  0  0  0  0  0  0  0  0  0  0
   14.1011   -1.2737    9.3917 H   0  0  0  0  0  0  0  0  0  0  0  0
   13.7436   -0.2025   10.5276 H   0  0  0  0  0  0  0  0  0  0  0  0
   12.0940   -1.2220    9.8386 C   0  0  0  0  0  0  0  0  0  0  0  0
   12.1563   -1.9544   10.5020 H   0  0  0  0  0  0  0  0  0  0  0  0
   11.4528   -0.5506   10.1761 H   0  0  0  0  0  0  0  0  0  0  0  0
   11.6100   -1.7695    8.5282 C   0  0  0  0  0  0  0  0  0  0  0  0
   10.7081   -2.1600    8.6492 H   0  0  0  0  0  0  0  0  0  0  0  0
   12.2187   -2.4916    8.2280 H   0  0  0  0  0  0  0  0  0  0  0  0
   11.5471   -0.6756    7.4436 C   0  0  0  0  0  0  0  0  0  0  0  0
   11.2680   -1.0743    6.5824 H   0  0  0  0  0  0  0  0  0  0  0  0
   10.8787    0.0093    7.6996 H   0  0  0  0  0  0  0  0  0  0  0  0
   15.1332    3.2932    3.3982 O   0  0  0  0  0  0  0  0  0  0  0  0
   15.1518    5.5668    4.1012 C   0  0  0  0  0  0  0  0  0  0  0  0
   15.1115    6.4552    3.7660 H   0  0  0  0  0  0  0  0  0  0  0  0
   15.0491    4.5059    3.1888 C   0  0  0  0  0  0  0  0  0  0  0  0
   15.0866    4.7734    1.6782 C   0  0  0  0  0  0  0  0  0  0  0  0
   16.2458    4.2952    1.0660 F   0  0  0  0  0  0  0  0  0  0  0  0
   14.2413    4.0824    1.0334 F   0  0  0  0  0  0  0  0  0  0  0  0
   14.8605    6.0554    1.3756 F   0  0  0  0  0  0  0  0  0  0  0  0
   15.2169    6.6710    5.3348 C   0  0  0  0  0  0  0  0  0  0  0  0
   15.5195    3.2932    8.2396 O   0  0  0  0  0  0  0  0  0  0  0  0
   15.5008    5.5668    7.5367 C   0  0  0  0  0  0  0  0  0  0  0  0
   15.5412    6.4552    7.8718 H   0  0  0  0  0  0  0  0  0  0  0  0
   15.6036    4.5059    8.4491 C   0  0  0  0  0  0  0  0  0  0  0  0
   15.5660    4.7734    9.9597 C   0  0  0  0  0  0  0  0  0  0  0  0
   14.4068    4.2952   10.5718 F   0  0  0  0  0  0  0  0  0  0  0  0
   16.4114    4.0824   10.6044 F   0  0  0  0  0  0  0  0  0  0  0  0
   15.7921    6.0554   10.2622 F   0  0  0  0  0  0  0  0  0  0  0  0
   15.4358    6.6710    6.3031 C   0  0  0  0  0  0  0  0  0  0  0  0
   17.5917    1.2891    5.6462 P   0  0  0  0  0  0  0  0  0  0  0  0
   22.6733    7.6390    4.1305 N   0  0  0  0  0  0  0  0  0  0  0  0
   23.0391    6.2919    2.0394 N   0  0  0  0  0  0  0  0  0  0  0  0
   23.4747    7.6431    2.7675 B   0  0  0  0  0  0  0  0  0  0  0  0
   22.7215    8.5769    5.0788 C   0  0  0  0  0  0  0  0  0  0  0  0
   21.9314    8.1813    6.1890 C   0  0  0  0  0  0  0  0  0  0  0  0
   21.3757    6.9562    5.8911 C   0  0  0  0  0  0  0  0  0  0  0  0
   21.8400    6.6049    4.5853 C   0  0  0  0  0  0  0  0  0  0  0  0
   21.5708    5.5100    3.7823 C   0  0  0  0  0  0  0  0  0  0  0  0
   22.1146    5.3457    2.5277 C   0  0  0  0  0  0  0  0  0  0  0  0
   21.9748    4.3169    1.5455 C   0  0  0  0  0  0  0  0  0  0  0  0
   22.8071    4.6361    0.5074 C   0  0  0  0  0  0  0  0  0  0  0  0
   23.4384    5.8509    0.8333 C   0  0  0  0  0  0  0  0  0  0  0  0
   23.4544    9.8816    4.9670 C   0  0  0  0  0  0  0  0  0  0  0  0
   23.9249    9.9188    4.1082 H   0  0  0  0  0  0  0  0  0  0  0  0
   24.1026    9.9570    5.6979 H   0  0  0  0  0  0  0  0  0  0  0  0
   22.8138   10.6222    5.0206 H   0  0  0  0  0  0  0  0  0  0  0  0
   21.7930    8.9715    7.4738 C   0  0  0  0  0  0  0  0  0  0  0  0
   21.9019    9.9353    7.2736 H   0  0  0  0  0  0  0  0  0  0  0  0
   20.8822    8.8393    7.8369 H   0  0  0  0  0  0  0  0  0  0  0  0
   22.7722    8.5810    8.4840 C   0  0  0  0  0  0  0  0  0  0  0  0
   22.6285    9.1089    9.2963 H   0  0  0  0  0  0  0  0  0  0  0  0
   23.6755    8.7432    8.1442 H   0  0  0  0  0  0  0  0  0  0  0  0
   22.6644    7.6286    8.6911 H   0  0  0  0  0  0  0  0  0  0  0  0
   20.4638    6.1876    6.7895 C   0  0  0  0  0  0  0  0  0  0  0  0
   20.3258    6.6886    7.6205 H   0  0  0  0  0  0  0  0  0  0  0  0
   20.8671    5.3178    6.9943 H   0  0  0  0  0  0  0  0  0  0  0  0
   19.6010    6.0523    6.3426 H   0  0  0  0  0  0  0  0  0  0  0  0
   21.1182    3.0783    1.6130 C   0  0  0  0  0  0  0  0  0  0  0  0
   21.2217    2.5628    0.7867 H   0  0  0  0  0  0  0  0  0  0  0  0
   20.1761    3.3366    1.7201 H   0  0  0  0  0  0  0  0  0  0  0  0
   21.3918    2.5308    2.3788 H   0  0  0  0  0  0  0  0  0  0  0  0
   23.0138    3.8820   -0.7588 C   0  0  0  0  0  0  0  0  0  0  0  0
   23.3030    4.4997   -1.4780 H   0  0  0  0  0  0  0  0  0  0  0  0
   22.1689    3.4523   -1.0404 H   0  0  0  0  0  0  0  0  0  0  0  0
   24.0663    2.8418   -0.5237 C   0  0  0  0  0  0  0  0  0  0  0  0
   24.2221    2.3408   -1.3523 H   0  0  0  0  0  0  0  0  0  0  0  0
   23.7659    2.2271    0.1769 H   0  0  0  0  0  0  0  0  0  0  0  0
   24.8982    3.2756   -0.2444 H   0  0  0  0  0  0  0  0  0  0  0  0
   24.4758    6.5533   -0.0209 C   0  0  0  0  0  0  0  0  0  0  0  0
   24.7522    7.3869    0.4143 H   0  0  0  0  0  0  0  0  0  0  0  0
   24.0944    6.7558   -0.9008 H   0  0  0  0  0  0  0  0  0  0  0  0
   25.2578    5.9707   -0.1327 H   0  0  0  0  0  0  0  0  0  0  0  0
   20.6203    4.4656    4.2757 C   0  0  0  0  0  0  0  0  0  0  0  0
   19.2727    4.6123    4.0313 C   0  0  0  0  0  0  0  0  0  0  0  0
   18.9570    5.3726    3.5589 H   0  0  0  0  0  0  0  0  0  0  0  0
   18.3756    3.6444    4.4782 C   0  0  0  0  0  0  0  0  0  0  0  0
   17.4447    3.7560    4.3176 H   0  0  0  0  0  0  0  0  0  0  0  0
   18.8228    2.5236    5.1486 C   0  0  0  0  0  0  0  0  0  0  0  0
   20.1929    2.3976    5.4023 C   0  0  0  0  0  0  0  0  0  0  0  0
   20.5179    1.6404    5.8748 H   0  0  0  0  0  0  0  0  0  0  0  0
   21.0741    3.3686    4.9694 C   0  0  0  0  0  0  0  0  0  0  0  0
   22.0010    3.2777    5.1532 H   0  0  0  0  0  0  0  0  0  0  0  0
   22.9620    8.8930    1.8574 C   0  0  0  0  0  0  0  0  0  0  0  0
   23.5384    8.9787    1.0684 H   0  0  0  0  0  0  0  0  0  0  0  0
   23.0064    9.7184    2.3834 H   0  0  0  0  0  0  0  0  0  0  0  0
   22.0395    8.7339    1.5711 H   0  0  0  0  0  0  0  0  0  0  0  0
   25.0680    7.5605    3.0724 C   0  0  0  0  0  0  0  0  0  0  0  0
   25.2383    6.8560    3.7334 H   0  0  0  0  0  0  0  0  0  0  0  0
   25.3789    8.4209    3.4239 H   0  0  0  0  0  0  0  0  0  0  0  0
   25.5477    7.3539    2.2438 H   0  0  0  0  0  0  0  0  0  0  0  0
   18.1947    0.5919    7.2224 C   0  0  0  0  0  0  0  0  0  0  0  0
   19.1228    0.2500    7.0828 H   0  0  0  0  0  0  0  0  0  0  0  0
   18.2343    1.6641    8.2768 C   0  0  0  0  0  0  0  0  0  0  0  0
   17.3449    2.0970    8.3373 H   0  0  0  0  0  0  0  0  0  0  0  0
   18.8922    2.3552    8.0161 H   0  0  0  0  0  0  0  0  0  0  0  0
   18.6141    1.0960    9.6548 C   0  0  0  0  0  0  0  0  0  0  0  0
   19.5366    0.7334    9.6198 H   0  0  0  0  0  0  0  0  0  0  0  0
   18.5943    1.8201   10.3274 H   0  0  0  0  0  0  0  0  0  0  0  0
   17.6540   -0.0021   10.0644 C   0  0  0  0  0  0  0  0  0  0  0  0
   17.9261   -0.3698   10.9419 H   0  0  0  0  0  0  0  0  0  0  0  0
   16.7427    0.3688   10.1505 H   0  0  0  0  0  0  0  0  0  0  0  0
   17.6616   -1.0970    9.0333 C   0  0  0  0  0  0  0  0  0  0  0  0
   17.0071   -1.7943    9.2940 H   0  0  0  0  0  0  0  0  0  0  0  0
   18.5569   -1.5154    9.0077 H   0  0  0  0  0  0  0  0  0  0  0  0
   17.3116   -0.5733    7.6437 C   0  0  0  0  0  0  0  0  0  0  0  0
   17.4066   -1.3078    6.9874 H   0  0  0  0  0  0  0  0  0  0  0  0
   16.3662   -0.2820    7.6367 H   0  0  0  0  0  0  0  0  0  0  0  0
   17.7333   -0.0186    4.3526 C   0  0  0  0  0  0  0  0  0  0  0  0
   17.0989   -0.7469    4.6132 H   0  0  0  0  0  0  0  0  0  0  0  0
   17.2543    0.5113    3.0235 C   0  0  0  0  0  0  0  0  0  0  0  0
   17.8614    1.2313    2.7186 H   0  0  0  0  0  0  0  0  0  0  0  0
   16.3503    0.9008    3.1306 H   0  0  0  0  0  0  0  0  0  0  0  0
   17.2063   -0.5847    1.9738 C   0  0  0  0  0  0  0  0  0  0  0  0
   16.5515   -1.2737    2.2461 H   0  0  0  0  0  0  0  0  0  0  0  0
   16.9090   -0.2025    1.1102 H   0  0  0  0  0  0  0  0  0  0  0  0
   18.5586   -1.2220    1.7992 C   0  0  0  0  0  0  0  0  0  0  0  0
   18.4963   -1.9544    1.1359 H   0  0  0  0  0  0  0  0  0  0  0  0
   19.1999   -0.5506    1.4617 H   0  0  0  0  0  0  0  0  0  0  0  0
   19.0426   -1.7695    3.1096 C   0  0  0  0  0  0  0  0  0  0  0  0
   19.9445   -2.1600    2.9886 H   0  0  0  0  0  0  0  0  0  0  0  0
   18.4339   -2.4916    3.4099 H   0  0  0  0  0  0  0  0  0  0  0  0
   19.1056   -0.6756    4.1943 C   0  0  0  0  0  0  0  0  0  0  0  0
   19.3846   -1.0743    5.0555 H   0  0  0  0  0  0  0  0  0  0  0  0
   19.7740    0.0093    3.9382 H   0  0  0  0  0  0  0  0  0  0  0  0
  1  2  1  0  0  0  0
  2 50  1  0  0  0  0
  3  5  1  0  0  0  0
  4  5  1  0  0  0  0
  5 55  1  0  0  0  0
  6  3  1  0  0  0  0
  7  6  1  0  0  0  0
  8  7  1  0  0  0  0
  9  3  1  0  0  0  0
 10  9  1  0  0  0  0
 11  4  1  0  0  0  0
 12 11  1  0  0  0  0
 13 12  1  0  0  0  0
 14  4  1  0  0  0  0
 15  6  1  0  0  0  0
 16 15  1  0  0  0  0
 17 15  1  0  0  0  0
 18 15  1  0  0  0  0
 19  7  1  0  0  0  0
 20 19  1  0  0  0  0
 21 19  1  0  0  0  0
 22 19  1  0  0  0  0
 23 22  1  0  0  0  0
 24 22  1  0  0  0  0
 25 22  1  0  0  0  0
 26  8  1  0  0  0  0
 27 26  1  0  0  0  0
 28 26  1  0  0  0  0
 29 26  1  0  0  0  0
 30 12  1  0  0  0  0
 31 30  1  0  0  0  0
 32 30  1  0  0  0  0
 33 30  1  0  0  0  0
 34 13  1  0  0  0  0
 35 34  1  0  0  0  0
 36 34  1  0  0  0  0
 37 34  1  0  0  0  0
 38 37  1  0  0  0  0
 39 37  1  0  0  0  0
 40 37  1  0  0  0  0
 41 14  1  0  0  0  0
 42 41  1  0  0  0  0
 43 41  1  0  0  0  0
 44 41  1  0  0  0  0
 45 10  1  0  0  0  0
 46 45  1  0  0  0  0
 47 46  1  0  0  0  0
 48 46  1  0  0  0  0
 49 48  1  0  0  0  0
 50 48  1  0  0  0  0
 51 50  1  0  0  0  0
 52 51  1  0  0  0  0
 53 45  1  0  0  0  0
 54 53  1  0  0  0  0
 55 56  1  0  0  0  0
 57 55  1  0  0  0  0
 58 55  1  0  0  0  0
 59  5  1  0  0  0  0
 60 59  1  0  0  0  0
 61 59  1  0  0  0  0
 62 59  1  0  0  0  0
 63  2  1  0  0  0  0
 64 63  1  0  0  0  0
 65 63  1  0  0  0  0
 66 65  1  0  0  0  0
 67 65  1  0  0  0  0
 68 65  1  0  0  0  0
 69 68  1  0  0  0  0
 70 68  1  0  0  0  0
 71 68  1  0  0  0  0
 72 71  1  0  0  0  0
 73 71  1  0  0  0  0
 74 71  1  0  0  0  0
 75 74  1  0  0  0  0
 76 74  1  0  0  0  0
 77 63  1  0  0  0  0
 78 77  1  0  0  0  0
 79 77  1  0  0  0  0
 80  2  1  0  0  0  0
 81 80  1  0  0  0  0
 82 80  1  0  0  0  0
 83 82  1  0  0  0  0
 84 82  1  0  0  0  0
 85 82  1  0  0  0  0
 86 85  1  0  0  0  0
 87 85  1  0  0  0  0
 88 85  1  0  0  0  0
 89 88  1  0  0  0  0
 90 88  1  0  0  0  0
 91 88  1  0  0  0  0
 92 91  1  0  0  0  0
 93 91  1  0  0  0  0
 94 80  1  0  0  0  0
 95 94  1  0  0  0  0
 96 94  1  0  0  0  0
 97  1  1  0  0  0  0
 98 99  1  0  0  0  0
100 97  1  0  0  0  0
101100  1  0  0  0  0
102101  1  0  0  0  0
103101  1  0  0  0  0
104101  1  0  0  0  0
105 98  1  0  0  0  0
106  1  1  0  0  0  0
107108  1  0  0  0  0
109106  1  0  0  0  0
110109  1  0  0  0  0
111110  1  0  0  0  0
112110  1  0  0  0  0
113110  1  0  0  0  0
114105  1  0  0  0  0
115  1  1  0  0  0  0
116118  1  0  0  0  0
117118  1  0  0  0  0
118168  1  0  0  0  0
119116  1  0  0  0  0
120119  1  0  0  0  0
121120  1  0  0  0  0
122116  1  0  0  0  0
123122  1  0  0  0  0
124117  1  0  0  0  0
125124  1  0  0  0  0
126125  1  0  0  0  0
127117  1  0  0  0  0
128119  1  0  0  0  0
129128  1  0  0  0  0
130128  1  0  0  0  0
131128  1  0  0  0  0
132120  1  0  0  0  0
133132  1  0  0  0  0
134132  1  0  0  0  0
135132  1  0  0  0  0
136135  1  0  0  0  0
137135  1  0  0  0  0
138135  1  0  0  0  0
139121  1  0  0  0  0
140139  1  0  0  0  0
141139  1  0  0  0  0
142139  1  0  0  0  0
143125  1  0  0  0  0
144143  1  0  0  0  0
145143  1  0  0  0  0
146143  1  0  0  0  0
147126  1  0  0  0  0
148147  1  0  0  0  0
149147  1  0  0  0  0
150147  1  0  0  0  0
151150  1  0  0  0  0
152150  1  0  0  0  0
153150  1  0  0  0  0
154127  1  0  0  0  0
155154  1  0  0  0  0
156154  1  0  0  0  0
157154  1  0  0  0  0
158123  1  0  0  0  0
159158  1  0  0  0  0
160159  1  0  0  0  0
161159  1  0  0  0  0
162161  1  0  0  0  0
163115  1  0  0  0  0
164163  1  0  0  0  0
165164  1  0  0  0  0
166158  1  0  0  0  0
167166  1  0  0  0  0
168169  1  0  0  0  0
170168  1  0  0  0  0
171168  1  0  0  0  0
172118  1  0  0  0  0
173172  1  0  0  0  0
174172  1  0  0  0  0
175172  1  0  0  0  0
176115  1  0  0  0  0
177176  1  0  0  0  0
178176  1  0  0  0  0
179178  1  0  0  0  0
180178  1  0  0  0  0
181178  1  0  0  0  0
182181  1  0  0  0  0
183181  1  0  0  0  0
184181  1  0  0  0  0
185184  1  0  0  0  0
186184  1  0  0  0  0
187184  1  0  0  0  0
188187  1  0  0  0  0
189187  1  0  0  0  0
190176  1  0  0  0  0
191190  1  0  0  0  0
192190  1  0  0  0  0
193115  1  0  0  0  0
194193  1  0  0  0  0
195193  1  0  0  0  0
196195  1  0  0  0  0
197195  1  0  0  0  0
198195  1  0  0  0  0
199198  1  0  0  0  0
200198  1  0  0  0  0
201198  1  0  0  0  0
202201  1  0  0  0  0
203201  1  0  0  0  0
204201  1  0  0  0  0
205204  1  0  0  0  0
206204  1  0  0  0  0
207193  1  0  0  0  0
208207  1  0  0  0  0
209207  1  0  0  0  0
  8  9  1  0  0  0  0
 10 11  1  0  0  0  0
 13 14  1  0  0  0  0
 51 53  1  0  0  0  0
 74 77  1  0  0  0  0
 91 94  1  0  0  0  0
 98100  1  0  0  0  0
107109  1  0  0  0  0
107114  1  0  0  0  0
121122  1  0  0  0  0
123124  1  0  0  0  0
126127  1  0  0  0  0
161163  1  0  0  0  0
164166  1  0  0  0  0
187190  1  0  0  0  0
204207  1  0  0  0  0
M  END
$$$$
EGIDIJ

From CSD data. Using bond type 'Any'. No disordered atoms. Largest molecule.
176187  0  0  0  0  0  0  0  0999 V2000
    8.2805    8.6020    2.8892 Cu  0  3  0  0  0  0  0  0  0  0  0  0
   10.0184    9.9916    3.1332 P   0  0  0  0  0  0  0  0  0  0  0  0
   14.4732    7.8192   10.7816 C   0  0  0  0  0  0  0  0  0  0  0  0
   13.8261    6.8699    9.9891 C   0  0  0  0  0  0  0  0  0  0  0  0
   13.2590    7.5221    8.9130 C   0  0  0  0  0  0  0  0  0  0  0  0
   13.5345    8.9022    9.0938 C   0  0  0  0  0  0  0  0  0  0  0  0
   13.1960   10.0239    8.3412 C   0  0  0  0  0  0  0  0  0  0  0  0
   13.5752   11.3160    8.6968 C   0  0  0  0  0  0  0  0  0  0  0  0
   13.3083   12.5821    8.1077 C   0  0  0  0  0  0  0  0  0  0  0  0
   13.9811   13.5121    8.8589 C   0  0  0  0  0  0  0  0  0  0  0  0
   14.6495   12.8311    9.8937 C   0  0  0  0  0  0  0  0  0  0  0  0
   15.2699    7.5133   12.0106 C   0  0  0  0  0  0  0  0  0  0  0  0
   15.6229    8.3459   12.3874 H   0  0  0  0  0  0  0  0  0  0  0  0
   16.0138    6.9183   11.7793 H   0  0  0  0  0  0  0  0  0  0  0  0
   14.6949    7.0747   12.6719 H   0  0  0  0  0  0  0  0  0  0  0  0
   13.8097    5.4009   10.3038 C   0  0  0  0  0  0  0  0  0  0  0  0
   14.7139    5.1221   10.5939 H   0  0  0  0  0  0  0  0  0  0  0  0
   13.5887    4.8966    9.4809 H   0  0  0  0  0  0  0  0  0  0  0  0
   12.8155    5.0434   11.3804 C   0  0  0  0  0  0  0  0  0  0  0  0
   12.8520    4.0789   11.5506 H   0  0  0  0  0  0  0  0  0  0  0  0
   11.9131    5.2882   11.0848 H   0  0  0  0  0  0  0  0  0  0  0  0
   13.0339    5.5295   12.2005 H   0  0  0  0  0  0  0  0  0  0  0  0
   12.5052    6.8691    7.7903 C   0  0  0  0  0  0  0  0  0  0  0  0
   12.4697    5.9001    7.9384 H   0  0  0  0  0  0  0  0  0  0  0  0
   12.9604    7.0521    6.9426 H   0  0  0  0  0  0  0  0  0  0  0  0
   11.5935    7.2273    7.7571 H   0  0  0  0  0  0  0  0  0  0  0  0
   12.4790   12.9263    6.8977 C   0  0  0  0  0  0  0  0  0  0  0  0
   12.4951   13.8951    6.7557 H   0  0  0  0  0  0  0  0  0  0  0  0
   11.5557   12.6322    7.0403 H   0  0  0  0  0  0  0  0  0  0  0  0
   12.8479   12.4750    6.1114 H   0  0  0  0  0  0  0  0  0  0  0  0
   13.9941   15.0040    8.6246 C   0  0  0  0  0  0  0  0  0  0  0  0
   13.0740   15.3098    8.4266 H   0  0  0  0  0  0  0  0  0  0  0  0
   14.2938   15.4606    9.4530 H   0  0  0  0  0  0  0  0  0  0  0  0
   14.8998   15.3908    7.4921 C   0  0  0  0  0  0  0  0  0  0  0  0
   14.8773   16.3629    7.3722 H   0  0  0  0  0  0  0  0  0  0  0  0
   14.5980   14.9540    6.6693 H   0  0  0  0  0  0  0  0  0  0  0  0
   15.8157   15.1083    7.6957 H   0  0  0  0  0  0  0  0  0  0  0  0
   15.5180   13.4610   10.9509 C   0  0  0  0  0  0  0  0  0  0  0  0
   15.8588   12.7645   11.5506 H   0  0  0  0  0  0  0  0  0  0  0  0
   14.9908   14.1062   11.4641 H   0  0  0  0  0  0  0  0  0  0  0  0
   16.2702   13.9201   10.5241 H   0  0  0  0  0  0  0  0  0  0  0  0
   16.5303   10.2733   10.6340 C   0  0  0  0  0  0  0  0  0  0  0  0
   16.7418   10.0804    9.6957 H   0  0  0  0  0  0  0  0  0  0  0  0
   16.8661    9.5494   11.2019 H   0  0  0  0  0  0  0  0  0  0  0  0
   16.9526   11.1183   10.8979 H   0  0  0  0  0  0  0  0  0  0  0  0
   14.3581   10.7027   12.2920 C   0  0  0  0  0  0  0  0  0  0  0  0
   13.3793   10.7462   12.2591 H   0  0  0  0  0  0  0  0  0  0  0  0
   14.7130   11.5603   12.6078 H   0  0  0  0  0  0  0  0  0  0  0  0
   14.6341    9.9890   12.9034 H   0  0  0  0  0  0  0  0  0  0  0  0
   14.2986    9.0433   10.2658 N   0  0  0  0  0  0  0  0  0  0  0  0
   14.3971   11.5145    9.8193 N   0  0  0  0  0  0  0  0  0  0  0  0
   14.9343   10.3958   10.8084 B   0  0  0  0  0  0  0  0  0  0  0  0
   12.4196    9.8661    7.0670 C   0  0  0  0  0  0  0  0  0  0  0  0
   11.0434    9.7576    7.0617 C   0  0  0  0  0  0  0  0  0  0  0  0
   10.5756    9.7134    7.8882 H   0  0  0  0  0  0  0  0  0  0  0  0
   10.3372    9.7128    5.8768 C   0  0  0  0  0  0  0  0  0  0  0  0
    9.3905    9.6425    5.8966 H   0  0  0  0  0  0  0  0  0  0  0  0
   10.9946    9.7693    4.6576 C   0  0  0  0  0  0  0  0  0  0  0  0
   12.3802    9.8231    4.6691 C   0  0  0  0  0  0  0  0  0  0  0  0
   12.8559    9.8277    3.8465 H   0  0  0  0  0  0  0  0  0  0  0  0
   13.0740    9.8697    5.8506 C   0  0  0  0  0  0  0  0  0  0  0  0
   14.0227    9.9060    5.8325 H   0  0  0  0  0  0  0  0  0  0  0  0
   11.2639    9.8999    1.8080 C   0  0  0  0  0  0  0  0  0  0  0  0
   11.7180    8.6491    1.3969 C   0  0  0  0  0  0  0  0  0  0  0  0
   11.3656    7.8644    1.7991 H   0  0  0  0  0  0  0  0  0  0  0  0
   12.6721    8.5441    0.4145 C   0  0  0  0  0  0  0  0  0  0  0  0
   12.9802    7.6842    0.1534 H   0  0  0  0  0  0  0  0  0  0  0  0
   13.1898    9.6626   -0.1964 C   0  0  0  0  0  0  0  0  0  0  0  0
   13.8457    9.5774   -0.8786 H   0  0  0  0  0  0  0  0  0  0  0  0
   12.7487   10.9013    0.1897 C   0  0  0  0  0  0  0  0  0  0  0  0
   13.1018   11.6788   -0.2287 H   0  0  0  0  0  0  0  0  0  0  0  0
   11.7950   11.0303    1.1824 C   0  0  0  0  0  0  0  0  0  0  0  0
   11.4994   11.8959    1.4421 H   0  0  0  0  0  0  0  0  0  0  0  0
    9.5522   11.7580    3.2515 C   0  0  0  0  0  0  0  0  0  0  0  0
    8.3268   12.1802    2.7851 C   0  0  0  0  0  0  0  0  0  0  0  0
    7.7288   11.5528    2.3960 H   0  0  0  0  0  0  0  0  0  0  0  0
    7.9588   13.5176    2.8794 C   0  0  0  0  0  0  0  0  0  0  0  0
    7.1125   13.8001    2.5522 H   0  0  0  0  0  0  0  0  0  0  0  0
    8.8165   14.4332    3.4437 C   0  0  0  0  0  0  0  0  0  0  0  0
    8.5615   15.3461    3.5090 H   0  0  0  0  0  0  0  0  0  0  0  0
   10.0402   14.0257    3.9137 C   0  0  0  0  0  0  0  0  0  0  0  0
   10.6316   14.6561    4.3067 H   0  0  0  0  0  0  0  0  0  0  0  0
   10.4119   12.6999    3.8172 C   0  0  0  0  0  0  0  0  0  0  0  0
   11.2635   12.4272    4.1394 H   0  0  0  0  0  0  0  0  0  0  0  0
    6.4000    8.4167    4.0682 P   0  0  0  0  0  0  0  0  0  0  0  0
    5.4603    2.3391   10.3233 C   0  0  0  0  0  0  0  0  0  0  0  0
    4.8758    2.4481    9.0374 C   0  0  0  0  0  0  0  0  0  0  0  0
    5.3027    3.6336    8.4935 C   0  0  0  0  0  0  0  0  0  0  0  0
    6.1661    4.2563    9.4335 C   0  0  0  0  0  0  0  0  0  0  0  0
    6.9182    5.4247    9.3666 C   0  0  0  0  0  0  0  0  0  0  0  0
    7.7995    5.7902   10.4126 C   0  0  0  0  0  0  0  0  0  0  0  0
    8.7065    6.8789   10.5213 C   0  0  0  0  0  0  0  0  0  0  0  0
    9.3653    6.7321   11.7375 C   0  0  0  0  0  0  0  0  0  0  0  0
    8.8137    5.6015   12.3623 C   0  0  0  0  0  0  0  0  0  0  0  0
    5.2797    1.2024   11.2800 C   0  0  0  0  0  0  0  0  0  0  0  0
    5.8041    1.3697   12.0889 H   0  0  0  0  0  0  0  0  0  0  0  0
    5.5836    0.3701   10.8588 H   0  0  0  0  0  0  0  0  0  0  0  0
    4.3315    1.1215   11.5171 H   0  0  0  0  0  0  0  0  0  0  0  0
    4.0011    1.3916    8.4266 C   0  0  0  0  0  0  0  0  0  0  0  0
    3.4366    0.9933    9.1350 H   0  0  0  0  0  0  0  0  0  0  0  0
    3.3993    1.8145    7.7627 H   0  0  0  0  0  0  0  0  0  0  0  0
    4.7803    0.3033    7.7543 C   0  0  0  0  0  0  0  0  0  0  0  0
    4.1615   -0.3487    7.3666 H   0  0  0  0  0  0  0  0  0  0  0  0
    5.3532   -0.1417    8.4126 H   0  0  0  0  0  0  0  0  0  0  0  0
    5.3356    0.6898    7.0458 H   0  0  0  0  0  0  0  0  0  0  0  0
    4.8777    4.1391    7.1463 C   0  0  0  0  0  0  0  0  0  0  0  0
    4.2834    3.4843    6.7251 H   0  0  0  0  0  0  0  0  0  0  0  0
    5.6688    4.2732    6.5828 H   0  0  0  0  0  0  0  0  0  0  0  0
    4.4037    4.9907    7.2522 H   0  0  0  0  0  0  0  0  0  0  0  0
    8.9712    7.9791    9.5423 C   0  0  0  0  0  0  0  0  0  0  0  0
    9.6751    8.5652    9.8937 H   0  0  0  0  0  0  0  0  0  0  0  0
    8.1513    8.4990    9.4056 H   0  0  0  0  0  0  0  0  0  0  0  0
    9.2606    7.5955    8.6887 H   0  0  0  0  0  0  0  0  0  0  0  0
   10.5832    7.5455   12.2368 C   0  0  0  0  0  0  0  0  0  0  0  0
   11.0292    7.0778   12.9871 H   0  0  0  0  0  0  0  0  0  0  0  0
   11.2391    7.6730   11.5060 H   0  0  0  0  0  0  0  0  0  0  0  0
   10.0308    8.8676   12.6886 C   0  0  0  0  0  0  0  0  0  0  0  0
   10.7677    9.4260   13.0289 H   0  0  0  0  0  0  0  0  0  0  0  0
    9.3800    8.7234   13.4027 H   0  0  0  0  0  0  0  0  0  0  0  0
    9.6034    9.3194   11.9355 H   0  0  0  0  0  0  0  0  0  0  0  0
    9.2359    5.0806   13.7095 C   0  0  0  0  0  0  0  0  0  0  0  0
    8.7160    4.2800   13.9299 H   0  0  0  0  0  0  0  0  0  0  0  0
    9.0782    5.7691   14.3901 H   0  0  0  0  0  0  0  0  0  0  0  0
   10.1897    4.8552   13.6900 H   0  0  0  0  0  0  0  0  0  0  0  0
    8.0456    2.4934   12.2256 C   0  0  0  0  0  0  0  0  0  0  0  0
    7.5351    1.6881   12.4543 H   0  0  0  0  0  0  0  0  0  0  0  0
    8.6246    2.7385   12.9787 H   0  0  0  0  0  0  0  0  0  0  0  0
    8.5953    2.3180   11.4334 H   0  0  0  0  0  0  0  0  0  0  0  0
    5.9348    4.0623   13.0540 C   0  0  0  0  0  0  0  0  0  0  0  0
    5.3695    4.8028   12.7500 H   0  0  0  0  0  0  0  0  0  0  0  0
    6.3972    4.3209   13.8797 H   0  0  0  0  0  0  0  0  0  0  0  0
    5.3755    3.2758   13.2270 H   0  0  0  0  0  0  0  0  0  0  0  0
    6.2317    3.4099   10.5632 N   0  0  0  0  0  0  0  0  0  0  0  0
    7.8795    5.0098   11.5869 N   0  0  0  0  0  0  0  0  0  0  0  0
    7.0230    3.7107   11.9132 B   0  0  0  0  0  0  0  0  0  0  0  0
    7.0303    6.3747    8.1326 C   0  0  0  0  0  0  0  0  0  0  0  0
    7.8576    6.1383    7.0570 C   0  0  0  0  0  0  0  0  0  0  0  0
    8.5458    5.4879    7.1295 H   0  0  0  0  0  0  0  0  0  0  0  0
    7.6985    6.8347    5.8752 C   0  0  0  0  0  0  0  0  0  0  0  0
    8.2820    6.6643    5.1463 H   0  0  0  0  0  0  0  0  0  0  0  0
    6.6862    7.7885    5.7435 C   0  0  0  0  0  0  0  0  0  0  0  0
    5.8874    8.0615    6.8495 C   0  0  0  0  0  0  0  0  0  0  0  0
    5.2164    8.7315    6.7892 H   0  0  0  0  0  0  0  0  0  0  0  0
    6.0597    7.3690    8.0344 C   0  0  0  0  0  0  0  0  0  0  0  0
    5.5136    7.5710    8.7836 H   0  0  0  0  0  0  0  0  0  0  0  0
    5.0333    7.3581    3.4669 C   0  0  0  0  0  0  0  0  0  0  0  0
    3.9770    6.9942    4.2685 C   0  0  0  0  0  0  0  0  0  0  0  0
    3.9484    7.2972    5.1686 H   0  0  0  0  0  0  0  0  0  0  0  0
    2.9571    6.1978    3.7882 C   0  0  0  0  0  0  0  0  0  0  0  0
    2.2369    5.9486    4.3569 H   0  0  0  0  0  0  0  0  0  0  0  0
    2.9868    5.7655    2.4833 C   0  0  0  0  0  0  0  0  0  0  0  0
    2.2832    5.2232    2.1478 H   0  0  0  0  0  0  0  0  0  0  0  0
    4.0263    6.1147    1.6700 C   0  0  0  0  0  0  0  0  0  0  0  0
    4.0422    5.8160    0.7671 H   0  0  0  0  0  0  0  0  0  0  0  0
    5.0652    6.9062    2.1573 C   0  0  0  0  0  0  0  0  0  0  0  0
    5.7932    7.1360    1.5927 H   0  0  0  0  0  0  0  0  0  0  0  0
    5.6331   10.0572    4.2417 C   0  0  0  0  0  0  0  0  0  0  0  0
    4.7470   10.5198    3.2643 C   0  0  0  0  0  0  0  0  0  0  0  0
    4.4828    9.9434    2.5578 H   0  0  0  0  0  0  0  0  0  0  0  0
    4.2508   11.8096    3.3182 C   0  0  0  0  0  0  0  0  0  0  0  0
    3.6465   12.1111    2.6499 H   0  0  0  0  0  0  0  0  0  0  0  0
    4.6245   12.6578    4.3324 C   0  0  0  0  0  0  0  0  0  0  0  0
    4.2803   13.5432    4.3653 H   0  0  0  0  0  0  0  0  0  0  0  0
    5.5001   12.2204    5.2961 C   0  0  0  0  0  0  0  0  0  0  0  0
    5.7518   12.8015    6.0026 H   0  0  0  0  0  0  0  0  0  0  0  0
    6.0172   10.9382    5.2456 C   0  0  0  0  0  0  0  0  0  0  0  0
    6.6418   10.6567    5.9050 H   0  0  0  0  0  0  0  0  0  0  0  0
    8.3547    7.4836    1.1570 O   0  0  0  0  0  0  0  0  0  0  0  0
    8.6159    6.6322    1.1994 H   0  0  0  0  0  0  0  0  0  0  0  0
    8.3566    8.0020   -0.1523 C   0  0  0  0  0  0  0  0  0  0  0  0
    7.9060    7.3659   -0.7615 H   0  0  0  0  0  0  0  0  0  0  0  0
    9.2901    8.1143   -0.4630 H   0  0  0  0  0  0  0  0  0  0  0  0
    7.6694    9.2933   -0.1969 C   0  0  0  0  0  0  0  0  0  0  0  0
    7.6799    9.6370   -1.1157 H   0  0  0  0  0  0  0  0  0  0  0  0
    8.1253    9.9265    0.3933 H   0  0  0  0  0  0  0  0  0  0  0  0
    6.7416    9.1789    0.1004 H   0  0  0  0  0  0  0  0  0  0  0  0
  1  2  1  0  0  0  0
  2 58  1  0  0  0  0
  3  4  2  0  0  0  0
  4  5  1  0  0  0  0
  5  6  2  0  0  0  0
  6  7  1  0  0  0  0
  7  8  2  0  0  0  0
  8  9  1  0  0  0  0
  9 10  2  0  0  0  0
 10 11  1  0  0  0  0
 11 38  1  0  0  0  0
 12  3  1  0  0  0  0
 13 12  1  0  0  0  0
 14 12  1  0  0  0  0
 15 12  1  0  0  0  0
 16  4  1  0  0  0  0
 17 16  1  0  0  0  0
 18 16  1  0  0  0  0
 19 16  1  0  0  0  0
 20 19  1  0  0  0  0
 21 19  1  0  0  0  0
 22 19  1  0  0  0  0
 23  5  1  0  0  0  0
 24 23  1  0  0  0  0
 25 23  1  0  0  0  0
 26 23  1  0  0  0  0
 27  9  1  0  0  0  0
 28 27  1  0  0  0  0
 29 27  1  0  0  0  0
 30 27  1  0  0  0  0
 31 10  1  0  0  0  0
 32 31  1  0  0  0  0
 33 31  1  0  0  0  0
 34 31  1  0  0  0  0
 35 34  1  0  0  0  0
 36 34  1  0  0  0  0
 37 34  1  0  0  0  0
 38 39  1  0  0  0  0
 40 38  1  0  0  0  0
 41 38  1  0  0  0  0
 42 43  1  0  0  0  0
 44 42  1  0  0  0  0
 45 42  1  0  0  0  0
 46 47  1  0  0  0  0
 48 46  1  0  0  0  0
 49 46  1  0  0  0  0
 50  3  1  0  0  0  0
 51  8  1  0  0  0  0
 52 42  1  0  0  0  0
 53  7  1  0  0  0  0
 54 53  4  0  0  0  0
 55 54  1  0  0  0  0
 56 54  4  0  0  0  0
 57 56  1  0  0  0  0
 58 56  4  0  0  0  0
 59 58  4  0  0  0  0
 60 59  1  0  0  0  0
 61 53  4  0  0  0  0
 62 61  1  0  0  0  0
 63  2  1  0  0  0  0
 64 63  4  0  0  0  0
 65 64  1  0  0  0  0
 66 64  4  0  0  0  0
 67 66  1  0  0  0  0
 68 66  4  0  0  0  0
 69 68  1  0  0  0  0
 70 68  4  0  0  0  0
 71 70  1  0  0  0  0
 72 63  4  0  0  0  0
 73 72  1  0  0  0  0
 74  2  1  0  0  0  0
 75 74  4  0  0  0  0
 76 75  1  0  0  0  0
 77 75  4  0  0  0  0
 78 77  1  0  0  0  0
 79 77  4  0  0  0  0
 80 79  1  0  0  0  0
 81 79  4  0  0  0  0
 82 81  1  0  0  0  0
 83 74  4  0  0  0  0
 84 83  1  0  0  0  0
 85  1  1  0  0  0  0
 86 87  1  0  0  0  0
 87 88  2  0  0  0  0
 88 89  1  0  0  0  0
 89 90  2  0  0  0  0
 90 91  1  0  0  0  0
 91 92  2  0  0  0  0
 92 93  1  0  0  0  0
 93 94  2  0  0  0  0
 94121  1  0  0  0  0
 95 86  1  0  0  0  0
 96 95  1  0  0  0  0
 97 95  1  0  0  0  0
 98 95  1  0  0  0  0
 99 87  1  0  0  0  0
100 99  1  0  0  0  0
101 99  1  0  0  0  0
102 99  1  0  0  0  0
103102  1  0  0  0  0
104102  1  0  0  0  0
105102  1  0  0  0  0
106 88  1  0  0  0  0
107106  1  0  0  0  0
108106  1  0  0  0  0
109106  1  0  0  0  0
110 92  1  0  0  0  0
111110  1  0  0  0  0
112110  1  0  0  0  0
113110  1  0  0  0  0
114 93  1  0  0  0  0
115114  1  0  0  0  0
116114  1  0  0  0  0
117114  1  0  0  0  0
118117  1  0  0  0  0
119117  1  0  0  0  0
120117  1  0  0  0  0
121122  1  0  0  0  0
123121  1  0  0  0  0
124121  1  0  0  0  0
125126  1  0  0  0  0
127125  1  0  0  0  0
128125  1  0  0  0  0
129130  1  0  0  0  0
131129  1  0  0  0  0
132129  1  0  0  0  0
133 86  2  0  0  0  0
134 91  1  0  0  0  0
135125  1  0  0  0  0
136 90  1  0  0  0  0
137136  4  0  0  0  0
138137  1  0  0  0  0
139137  4  0  0  0  0
140139  1  0  0  0  0
141 85  1  0  0  0  0
142141  4  0  0  0  0
143142  1  0  0  0  0
144136  4  0  0  0  0
145144  1  0  0  0  0
146 85  1  0  0  0  0
147146  4  0  0  0  0
148147  1  0  0  0  0
149147  4  0  0  0  0
150149  1  0  0  0  0
151149  4  0  0  0  0
152151  1  0  0  0  0
153151  4  0  0  0  0
154153  1  0  0  0  0
155146  4  0  0  0  0
156155  1  0  0  0  0
157 85  1  0  0  0  0
158157  4  0  0  0  0
159158  1  0  0  0  0
160158  4  0  0  0  0
161160  1  0  0  0  0
162160  4  0  0  0  0
163162  1  0  0  0  0
164162  4  0  0  0  0
165164  1  0  0  0  0
166157  4  0  0  0  0
167166  1  0  0  0  0
168  1  1  0  0  0  0
169168  1  0  0  0  0
170168  1  0  0  0  0
171170  1  0  0  0  0
172170  1  0  0  0  0
173170  1  0  0  0  0
174173  1  0  0  0  0
175173  1  0  0  0  0
176173  1  0  0  0  0
  6 50  1  0  0  0  0
 11 51  2  0  0  0  0
 46 52  1  0  0  0  0
 50 52  1  0  0  0  0
 51 52  1  0  0  0  0
 59 61  4  0  0  0  0
 70 72  4  0  0  0  0
 81 83  4  0  0  0  0
 89133  1  0  0  0  0
 94134  1  0  0  0  0
129135  1  0  0  0  0
133135  1  0  0  0  0
134135  1  0  0  0  0
139141  4  0  0  0  0
142144  4  0  0  0  0
153155  4  0  0  0  0
164166  4  0  0  0  0
M  CHG  1   1   1
M  END
$$$$
EHANOR

From CSD data. Using bond type 'Any'. No disordered atoms. Largest molecule.
135142  0  0  0  0  0  0  0  0999 V2000
    6.0247    5.9230    4.3639 Pt  0  0  0  0  0  0  0  0  0  0  0  0
    4.0137    4.9143    2.9982 Br  0  0  0  0  0  0  0  0  0  0  0  0
    7.0329    3.8555    4.6337 P   0  0  0  0  0  0  0  0  0  0  0  0
    5.8065    5.9200    9.1191 O   0  0  0  0  0  0  0  0  0  0  0  0
    6.9709    6.8940    7.1527 N   0  0  0  0  0  0  0  0  0  0  0  0
    7.2695    6.7169    5.7431 B   0  0  0  0  0  0  0  0  0  0  0  0
    8.3748    7.1026    5.4484 H   0  0  0  0  0  0  0  0  0  0  0  0
    4.5243    5.4616    9.3543 C   0  0  0  0  0  0  0  0  0  0  0  0
    8.1564    7.7210    8.1935 Si  0  0  0  0  0  0  0  0  0  0  0  0
    5.5171    8.0575    3.6049 P   0  0  0  0  0  0  0  0  0  0  0  0
    4.5635    6.1452    7.1949 O   0  0  0  0  0  0  0  0  0  0  0  0
    5.8192    6.3388    7.7828 B   0  0  0  0  0  0  0  0  0  0  0  0
    3.9998    4.9238   10.5088 C   0  0  0  0  0  0  0  0  0  0  0  0
    4.5202    4.8156   11.2965 H   0  0  0  0  0  0  0  0  0  0  0  0
    2.6500    4.5469   10.4518 C   0  0  0  0  0  0  0  0  0  0  0  0
    2.2397    4.1735   11.2229 H   0  0  0  0  0  0  0  0  0  0  0  0
    1.9005    4.7057    9.2981 C   0  0  0  0  0  0  0  0  0  0  0  0
    0.9890    4.4394    9.2981 H   0  0  0  0  0  0  0  0  0  0  0  0
    2.4501    5.2466    8.1362 C   0  0  0  0  0  0  0  0  0  0  0  0
    1.9372    5.3590    7.3454 H   0  0  0  0  0  0  0  0  0  0  0  0
    3.7771    5.6088    8.1978 C   0  0  0  0  0  0  0  0  0  0  0  0
    8.9730    9.1280    7.3132 C   0  0  0  0  0  0  0  0  0  0  0  0
    8.2951    9.7828    7.0451 H   0  0  0  0  0  0  0  0  0  0  0  0
    9.4358    8.7914    6.5182 H   0  0  0  0  0  0  0  0  0  0  0  0
    9.6207    9.5552    7.9121 H   0  0  0  0  0  0  0  0  0  0  0  0
    7.2865    8.4611    9.6435 C   0  0  0  0  0  0  0  0  0  0  0  0
    6.6088    9.0948    9.3299 H   0  0  0  0  0  0  0  0  0  0  0  0
    7.9355    8.9308   10.2088 H   0  0  0  0  0  0  0  0  0  0  0  0
    6.8550    7.7509   10.1630 H   0  0  0  0  0  0  0  0  0  0  0  0
    9.4953    6.4795    8.7015 C   0  0  0  0  0  0  0  0  0  0  0  0
    9.9256    6.1167    7.9002 H   0  0  0  0  0  0  0  0  0  0  0  0
    9.0873    5.7493    9.2126 H   0  0  0  0  0  0  0  0  0  0  0  0
   10.1654    6.9308    9.2563 H   0  0  0  0  0  0  0  0  0  0  0  0
    6.8205    2.9198    3.0505 C   0  0  0  0  0  0  0  0  0  0  0  0
    5.8371    2.9608    2.8733 H   0  0  0  0  0  0  0  0  0  0  0  0
    7.4474    3.6200    1.8348 C   0  0  0  0  0  0  0  0  0  0  0  0
    7.2667    4.5914    1.8811 H   0  0  0  0  0  0  0  0  0  0  0  0
    8.4286    3.4880    1.8453 H   0  0  0  0  0  0  0  0  0  0  0  0
    6.8672    3.0505    0.5430 C   0  0  0  0  0  0  0  0  0  0  0  0
    7.2879    3.4958   -0.2346 H   0  0  0  0  0  0  0  0  0  0  0  0
    5.8940    3.2290    0.5090 H   0  0  0  0  0  0  0  0  0  0  0  0
    7.1137    1.5449    0.4655 C   0  0  0  0  0  0  0  0  0  0  0  0
    6.6727    1.1822   -0.3440 H   0  0  0  0  0  0  0  0  0  0  0  0
    8.0867    1.3764    0.3838 H   0  0  0  0  0  0  0  0  0  0  0  0
    6.5795    0.8262    1.6962 C   0  0  0  0  0  0  0  0  0  0  0  0
    6.8170   -0.1331    1.6425 H   0  0  0  0  0  0  0  0  0  0  0  0
    5.5923    0.8955    1.7121 H   0  0  0  0  0  0  0  0  0  0  0  0
    7.1494    1.4185    2.9946 C   0  0  0  0  0  0  0  0  0  0  0  0
    8.1304    1.2890    3.0205 H   0  0  0  0  0  0  0  0  0  0  0  0
    6.7550    0.9576    3.7761 H   0  0  0  0  0  0  0  0  0  0  0  0
    8.8258    3.9668    5.0815 C   0  0  0  0  0  0  0  0  0  0  0  0
    8.8535    4.4582    5.9515 H   0  0  0  0  0  0  0  0  0  0  0  0
    9.6677    4.8144    4.1050 C   0  0  0  0  0  0  0  0  0  0  0  0
    9.7671    4.3309    3.2472 H   0  0  0  0  0  0  0  0  0  0  0  0
    9.2035    5.6705    3.9252 H   0  0  0  0  0  0  0  0  0  0  0  0
   11.0485    5.0947    4.6993 C   0  0  0  0  0  0  0  0  0  0  0  0
   11.5859    5.6202    4.0545 H   0  0  0  0  0  0  0  0  0  0  0  0
   10.9501    5.6300    5.5259 H   0  0  0  0  0  0  0  0  0  0  0  0
   11.7727    3.7885    5.0197 C   0  0  0  0  0  0  0  0  0  0  0  0
   12.6372    3.9908    5.4563 H   0  0  0  0  0  0  0  0  0  0  0  0
   11.9619    3.3030    4.1778 H   0  0  0  0  0  0  0  0  0  0  0  0
   10.9372    2.8957    5.9407 C   0  0  0  0  0  0  0  0  0  0  0  0
   10.8363    3.3348    6.8224 H   0  0  0  0  0  0  0  0  0  0  0  0
   11.4058    2.0341    6.0787 H   0  0  0  0  0  0  0  0  0  0  0  0
    9.5508    2.6315    5.3406 C   0  0  0  0  0  0  0  0  0  0  0  0
    9.0177    2.0790    5.9654 H   0  0  0  0  0  0  0  0  0  0  0  0
    9.6450    2.1338    4.4900 H   0  0  0  0  0  0  0  0  0  0  0  0
    6.3399    2.6930    5.8946 C   0  0  0  0  0  0  0  0  0  0  0  0
    6.7205    1.7876    5.7069 H   0  0  0  0  0  0  0  0  0  0  0  0
    4.8148    2.5860    5.7540 C   0  0  0  0  0  0  0  0  0  0  0  0
    4.4028    3.4643    5.9515 H   0  0  0  0  0  0  0  0  0  0  0  0
    4.5853    2.3420    4.8220 H   0  0  0  0  0  0  0  0  0  0  0  0
    4.2506    1.5332    6.7107 C   0  0  0  0  0  0  0  0  0  0  0  0
    3.2646    1.5138    6.6295 H   0  0  0  0  0  0  0  0  0  0  0  0
    4.5943    0.6411    6.4526 H   0  0  0  0  0  0  0  0  0  0  0  0
    4.6320    1.8194    8.1569 C   0  0  0  0  0  0  0  0  0  0  0  0
    4.3238    1.0733    8.7313 H   0  0  0  0  0  0  0  0  0  0  0  0
    4.1750    2.6440    8.4589 H   0  0  0  0  0  0  0  0  0  0  0  0
    6.1423    1.9922    8.3181 C   0  0  0  0  0  0  0  0  0  0  0  0
    6.5899    1.1242    8.1527 H   0  0  0  0  0  0  0  0  0  0  0  0
    6.3434    2.2657    9.2483 H   0  0  0  0  0  0  0  0  0  0  0  0
    6.6960    3.0463    7.3444 C   0  0  0  0  0  0  0  0  0  0  0  0
    6.3187    3.9337    7.5701 H   0  0  0  0  0  0  0  0  0  0  0  0
    7.6802    3.0977    7.4388 H   0  0  0  0  0  0  0  0  0  0  0  0
    6.9774    9.1749    3.7417 C   0  0  0  0  0  0  0  0  0  0  0  0
    7.2796    9.0879    4.6908 H   0  0  0  0  0  0  0  0  0  0  0  0
    8.1627    8.6759    2.9044 C   0  0  0  0  0  0  0  0  0  0  0  0
    8.2605    7.6976    3.0165 H   0  0  0  0  0  0  0  0  0  0  0  0
    7.9935    8.8610    1.9467 H   0  0  0  0  0  0  0  0  0  0  0  0
    9.4535    9.3732    3.3400 C   0  0  0  0  0  0  0  0  0  0  0  0
    9.6704    9.1099    4.2692 H   0  0  0  0  0  0  0  0  0  0  0  0
   10.1972    9.0796    2.7580 H   0  0  0  0  0  0  0  0  0  0  0  0
    9.3216   10.8945    3.2639 C   0  0  0  0  0  0  0  0  0  0  0  0
   10.1246   11.3114    3.6647 H   0  0  0  0  0  0  0  0  0  0  0  0
    9.2784   11.1698    2.3146 H   0  0  0  0  0  0  0  0  0  0  0  0
    8.0760   11.4056    3.9897 C   0  0  0  0  0  0  0  0  0  0  0  0
    7.9821   12.3778    3.8298 H   0  0  0  0  0  0  0  0  0  0  0  0
    8.1869   11.2652    4.9632 H   0  0  0  0  0  0  0  0  0  0  0  0
    6.8024   10.6920    3.5196 C   0  0  0  0  0  0  0  0  0  0  0  0
    6.6453   10.8779    2.5592 H   0  0  0  0  0  0  0  0  0  0  0  0
    6.0217   11.0208    4.0326 H   0  0  0  0  0  0  0  0  0  0  0  0
    4.9389    8.0302    1.8461 C   0  0  0  0  0  0  0  0  0  0  0  0
    4.0507    7.5728    1.8731 H   0  0  0  0  0  0  0  0  0  0  0  0
    5.7975    7.1745    0.8934 C   0  0  0  0  0  0  0  0  0  0  0  0
    6.6598    7.6295    0.7218 H   0  0  0  0  0  0  0  0  0  0  0  0
    5.9878    6.2975    1.3124 H   0  0  0  0  0  0  0  0  0  0  0  0
    5.0564    6.9644   -0.4257 C   0  0  0  0  0  0  0  0  0  0  0  0
    5.6285    6.4405   -1.0420 H   0  0  0  0  0  0  0  0  0  0  0  0
    4.2322    6.4420   -0.2565 H   0  0  0  0  0  0  0  0  0  0  0  0
    4.6868    8.2851   -1.0859 C   0  0  0  0  0  0  0  0  0  0  0  0
    5.5115    8.7491   -1.3780 H   0  0  0  0  0  0  0  0  0  0  0  0
    4.1351    8.1089   -1.8890 H   0  0  0  0  0  0  0  0  0  0  0  0
    3.9159    9.1799   -0.1296 C   0  0  0  0  0  0  0  0  0  0  0  0
    3.0337    8.7730    0.0577 H   0  0  0  0  0  0  0  0  0  0  0  0
    3.7610   10.0591   -0.5568 H   0  0  0  0  0  0  0  0  0  0  0  0
    4.6689    9.3841    1.1867 C   0  0  0  0  0  0  0  0  0  0  0  0
    4.1298    9.9501    1.7956 H   0  0  0  0  0  0  0  0  0  0  0  0
    5.5259    9.8478    1.0121 H   0  0  0  0  0  0  0  0  0  0  0  0
    4.1686    8.9625    4.4900 C   0  0  0  0  0  0  0  0  0  0  0  0
    3.9842    9.8087    3.9908 H   0  0  0  0  0  0  0  0  0  0  0  0
    2.8746    8.1253    4.5082 C   0  0  0  0  0  0  0  0  0  0  0  0
    2.5882    7.9457    3.5772 H   0  0  0  0  0  0  0  0  0  0  0  0
    3.0532    7.2557    4.9453 H   0  0  0  0  0  0  0  0  0  0  0  0
    1.7521    8.8396    5.2495 C   0  0  0  0  0  0  0  0  0  0  0  0
    0.9525    8.2566    5.2754 H   0  0  0  0  0  0  0  0  0  0  0  0
    1.5118    9.6670    4.7624 H   0  0  0  0  0  0  0  0  0  0  0  0
    2.1662    9.1941    6.6737 C   0  0  0  0  0  0  0  0  0  0  0  0
    2.3231    8.3638    7.1883 H   0  0  0  0  0  0  0  0  0  0  0  0
    1.4369    9.6972    7.1147 H   0  0  0  0  0  0  0  0  0  0  0  0
    3.4398   10.0386    6.6655 C   0  0  0  0  0  0  0  0  0  0  0  0
    3.2531   10.9073    6.2279 H   0  0  0  0  0  0  0  0  0  0  0  0
    3.7175   10.2202    7.5979 H   0  0  0  0  0  0  0  0  0  0  0  0
    4.5764    9.3348    5.9270 C   0  0  0  0  0  0  0  0  0  0  0  0
    4.8273    8.5145    6.4207 H   0  0  0  0  0  0  0  0  0  0  0  0
    5.3666    9.9304    5.8998 H   0  0  0  0  0  0  0  0  0  0  0  0
  1  2  1  0  0  0  0
  3  1  1  0  0  0  0
  4  8  1  0  0  0  0
  5  6  2  0  0  0  0
  6  1  1  0  0  0  0
  7  6  1  0  0  0  0
  8 13  4  0  0  0  0
  9  5  1  0  0  0  0
 10  1  1  0  0  0  0
 11 12  1  0  0  0  0
 12  4  1  0  0  0  0
 13 14  1  0  0  0  0
 15 13  4  0  0  0  0
 16 15  1  0  0  0  0
 17 15  4  0  0  0  0
 18 17  1  0  0  0  0
 19 17  4  0  0  0  0
 20 19  1  0  0  0  0
 21  8  4  0  0  0  0
 22  9  1  0  0  0  0
 23 22  1  0  0  0  0
 24 22  1  0  0  0  0
 25 22  1  0  0  0  0
 26  9  1  0  0  0  0
 27 26  1  0  0  0  0
 28 26  1  0  0  0  0
 29 26  1  0  0  0  0
 30  9  1  0  0  0  0
 31 30  1  0  0  0  0
 32 30  1  0  0  0  0
 33 30  1  0  0  0  0
 34  3  1  0  0  0  0
 35 34  1  0  0  0  0
 36 34  1  0  0  0  0
 37 36  1  0  0  0  0
 38 36  1  0  0  0  0
 39 36  1  0  0  0  0
 40 39  1  0  0  0  0
 41 39  1  0  0  0  0
 42 39  1  0  0  0  0
 43 42  1  0  0  0  0
 44 42  1  0  0  0  0
 45 42  1  0  0  0  0
 46 45  1  0  0  0  0
 47 45  1  0  0  0  0
 48 34  1  0  0  0  0
 49 48  1  0  0  0  0
 50 48  1  0  0  0  0
 51  3  1  0  0  0  0
 52 51  1  0  0  0  0
 53 51  1  0  0  0  0
 54 53  1  0  0  0  0
 55 53  1  0  0  0  0
 56 53  1  0  0  0  0
 57 56  1  0  0  0  0
 58 56  1  0  0  0  0
 59 56  1  0  0  0  0
 60 59  1  0  0  0  0
 61 59  1  0  0  0  0
 62 59  1  0  0  0  0
 63 62  1  0  0  0  0
 64 62  1  0  0  0  0
 65 51  1  0  0  0  0
 66 65  1  0  0  0  0
 67 65  1  0  0  0  0
 68  3  1  0  0  0  0
 69 68  1  0  0  0  0
 70 68  1  0  0  0  0
 71 70  1  0  0  0  0
 72 70  1  0  0  0  0
 73 70  1  0  0  0  0
 74 73  1  0  0  0  0
 75 73  1  0  0  0  0
 76 73  1  0  0  0  0
 77 76  1  0  0  0  0
 78 76  1  0  0  0  0
 79 76  1  0  0  0  0
 80 79  1  0  0  0  0
 81 79  1  0  0  0  0
 82 68  1  0  0  0  0
 83 82  1  0  0  0  0
 84 82  1  0  0  0  0
 85 10  1  0  0  0  0
 86 85  1  0  0  0  0
 87 85  1  0  0  0  0
 88 87  1  0  0  0  0
 89 87  1  0  0  0  0
 90 87  1  0  0  0  0
 91 90  1  0  0  0  0
 92 90  1  0  0  0  0
 93 90  1  0  0  0  0
 94 93  1  0  0  0  0
 95 93  1  0  0  0  0
 96 93  1  0  0  0  0
 97 96  1  0  0  0  0
 98 96  1  0  0  0  0
 99 85  1  0  0  0  0
100 99  1  0  0  0  0
101 99  1  0  0  0  0
102 10  1  0  0  0  0
103102  1  0  0  0  0
104102  1  0  0  0  0
105104  1  0  0  0  0
106104  1  0  0  0  0
107104  1  0  0  0  0
108107  1  0  0  0  0
109107  1  0  0  0  0
110107  1  0  0  0  0
111110  1  0  0  0  0
112110  1  0  0  0  0
113110  1  0  0  0  0
114113  1  0  0  0  0
115113  1  0  0  0  0
116102  1  0  0  0  0
117116  1  0  0  0  0
118116  1  0  0  0  0
119 10  1  0  0  0  0
120119  1  0  0  0  0
121119  1  0  0  0  0
122121  1  0  0  0  0
123121  1  0  0  0  0
124121  1  0  0  0  0
125124  1  0  0  0  0
126124  1  0  0  0  0
127124  1  0  0  0  0
128127  1  0  0  0  0
129127  1  0  0  0  0
130127  1  0  0  0  0
131130  1  0  0  0  0
132130  1  0  0  0  0
133119  1  0  0  0  0
134133  1  0  0  0  0
135133  1  0  0  0  0
  5 12  1  0  0  0  0
 11 21  1  0  0  0  0
 19 21  4  0  0  0  0
 45 48  1  0  0  0  0
 62 65  1  0  0  0  0
 79 82  1  0  0  0  0
 96 99  1  0  0  0  0
113116  1  0  0  0  0
130133  1  0  0  0  0
M  END
$$$$
EHANUX

From CSD data. Using bond type 'Any'. No disordered atoms. Largest molecule.
258272  0  0  0  0  0  0  0  0999 V2000
    6.5518    1.7614   14.4198 Pt  0  0  0  0  0  0  0  0  0  0  0  0
    9.0799    1.4767   15.0906 Br  0  0  0  0  0  0  0  0  0  0  0  0
    4.5517    1.8883   14.2608 B   0  0  0  0  0  0  0  0  0  0  0  0
    4.0924    2.0313   13.1627 H   0  0  0  0  0  0  0  0  0  0  0  0
    3.6183    1.8192   15.3753 N   0  0  0  0  0  0  0  0  0  0  0  0
    1.8467    1.7926   15.1374 Si  0  0  0  0  0  0  0  0  0  0  0  0
    1.4028    1.5965   13.3434 C   0  0  0  0  0  0  0  0  0  0  0  0
    1.7832    2.3388   12.8291 H   0  0  0  0  0  0  0  0  0  0  0  0
    0.4283    1.5983   13.2461 H   0  0  0  0  0  0  0  0  0  0  0  0
    1.7633    0.7482   13.0078 H   0  0  0  0  0  0  0  0  0  0  0  0
    1.1489    3.3999   15.7500 C   0  0  0  0  0  0  0  0  0  0  0  0
    1.3108    3.4793   16.7150 H   0  0  0  0  0  0  0  0  0  0  0  0
    0.1845    3.4243   15.5772 H   0  0  0  0  0  0  0  0  0  0  0  0
    1.5840    4.1436   15.2834 H   0  0  0  0  0  0  0  0  0  0  0  0
    1.1797    0.3104   16.0518 C   0  0  0  0  0  0  0  0  0  0  0  0
    1.6456   -0.4973   15.7500 H   0  0  0  0  0  0  0  0  0  0  0  0
    0.2209    0.2205   15.8751 H   0  0  0  0  0  0  0  0  0  0  0  0
    1.3243    0.4289   17.0148 H   0  0  0  0  0  0  0  0  0  0  0  0
    4.0560    1.7496   16.7269 B   0  0  0  0  0  0  0  0  0  0  0  0
    5.3319    1.3810   17.1751 O   0  0  0  0  0  0  0  0  0  0  0  0
    5.2694    1.4362   18.5577 C   0  0  0  0  0  0  0  0  0  0  0  0
    3.9828    1.8154   18.9389 C   0  0  0  0  0  0  0  0  0  0  0  0
    3.2167    2.0163   17.8069 O   0  0  0  0  0  0  0  0  0  0  0  0
    3.5930    1.9618   20.2573 C   0  0  0  0  0  0  0  0  0  0  0  0
    2.7181    2.2258   20.5175 H   0  0  0  0  0  0  0  0  0  0  0  0
    6.4196   -0.4596   13.7842 P   0  0  0  0  0  0  0  0  0  0  0  0
    6.6784    4.0700   14.4919 P   0  0  0  0  0  0  0  0  0  0  0  0
    6.7749    4.9103   16.1372 C   0  0  0  0  0  0  0  0  0  0  0  0
    6.9860    5.8721   15.9664 H   0  0  0  0  0  0  0  0  0  0  0  0
    7.9091    4.3469   17.0089 C   0  0  0  0  0  0  0  0  0  0  0  0
    7.7208    3.3994   17.2253 H   0  0  0  0  0  0  0  0  0  0  0  0
    8.7611    4.3846   16.5065 H   0  0  0  0  0  0  0  0  0  0  0  0
    8.0422    5.1522   18.3075 C   0  0  0  0  0  0  0  0  0  0  0  0
    8.7577    4.7567   18.8674 H   0  0  0  0  0  0  0  0  0  0  0  0
    8.3023    6.0830   18.0910 H   0  0  0  0  0  0  0  0  0  0  0  0
    6.7363    5.1601   19.0878 C   0  0  0  0  0  0  0  0  0  0  0  0
    6.5339    4.2415   19.3996 H   0  0  0  0  0  0  0  0  0  0  0  0
    6.8316    5.7393   19.8841 H   0  0  0  0  0  0  0  0  0  0  0  0
    5.5871    5.6655   18.2340 C   0  0  0  0  0  0  0  0  0  0  0  0
    5.7314    6.6216   18.0215 H   0  0  0  0  0  0  0  0  0  0  0  0
    4.7409    5.5890   18.7423 H   0  0  0  0  0  0  0  0  0  0  0  0
    5.4648    4.8692   16.9294 C   0  0  0  0  0  0  0  0  0  0  0  0
    5.2352    3.9295   17.1379 H   0  0  0  0  0  0  0  0  0  0  0  0
    4.7357    5.2489   16.3794 H   0  0  0  0  0  0  0  0  0  0  0  0
    5.2480    4.9368   13.6790 C   0  0  0  0  0  0  0  0  0  0  0  0
    4.4328    4.5920   14.1436 H   0  0  0  0  0  0  0  0  0  0  0  0
    5.0613    4.5626   12.1977 C   0  0  0  0  0  0  0  0  0  0  0  0
    5.7785    4.9798   11.6576 H   0  0  0  0  0  0  0  0  0  0  0  0
    5.1275    3.5803   12.0925 H   0  0  0  0  0  0  0  0  0  0  0  0
    3.6989    5.0423   11.6973 C   0  0  0  0  0  0  0  0  0  0  0  0
    3.5963    4.8069   10.7422 H   0  0  0  0  0  0  0  0  0  0  0  0
    2.9819    4.5858   12.2056 H   0  0  0  0  0  0  0  0  0  0  0  0
    3.5593    6.5536   11.8681 C   0  0  0  0  0  0  0  0  0  0  0  0
    2.6445    6.8302   11.6100 H   0  0  0  0  0  0  0  0  0  0  0  0
    4.1980    7.0123   11.2664 H   0  0  0  0  0  0  0  0  0  0  0  0
    3.8304    6.9747   13.3116 C   0  0  0  0  0  0  0  0  0  0  0  0
    3.1085    6.6259   13.8914 H   0  0  0  0  0  0  0  0  0  0  0  0
    3.8161    7.9627   13.3692 H   0  0  0  0  0  0  0  0  0  0  0  0
    5.1788    6.4598   13.8180 C   0  0  0  0  0  0  0  0  0  0  0  0
    5.2956    6.7127   14.7691 H   0  0  0  0  0  0  0  0  0  0  0  0
    5.9109    6.8737   13.2957 H   0  0  0  0  0  0  0  0  0  0  0  0
    8.3028    4.5024   13.6988 C   0  0  0  0  0  0  0  0  0  0  0  0
    8.9517    3.9314   14.2012 H   0  0  0  0  0  0  0  0  0  0  0  0
    8.8974    5.9033   13.8557 C   0  0  0  0  0  0  0  0  0  0  0  0
    8.3628    6.5512   13.3335 H   0  0  0  0  0  0  0  0  0  0  0  0
    8.8630    6.1730   14.8088 H   0  0  0  0  0  0  0  0  0  0  0  0
   10.3380    5.9222   13.3712 C   0  0  0  0  0  0  0  0  0  0  0  0
   10.6799    6.8499   13.4169 H   0  0  0  0  0  0  0  0  0  0  0  0
   10.8890    5.3691   13.9808 H   0  0  0  0  0  0  0  0  0  0  0  0
   10.5003    5.4092   11.9674 C   0  0  0  0  0  0  0  0  0  0  0  0
   10.1013    6.0605   11.3379 H   0  0  0  0  0  0  0  0  0  0  0  0
   11.4652    5.3358   11.7589 H   0  0  0  0  0  0  0  0  0  0  0  0
    9.8616    4.0945   11.7728 C   0  0  0  0  0  0  0  0  0  0  0  0
   10.4098    3.4124   12.2374 H   0  0  0  0  0  0  0  0  0  0  0  0
    9.8795    3.8807   10.8058 H   0  0  0  0  0  0  0  0  0  0  0  0
    8.4248    3.9654   12.2612 C   0  0  0  0  0  0  0  0  0  0  0  0
    8.1497    3.0146   12.2394 H   0  0  0  0  0  0  0  0  0  0  0  0
    7.8227    4.4743   11.6636 H   0  0  0  0  0  0  0  0  0  0  0  0
    5.0287   -0.7451   12.5968 C   0  0  0  0  0  0  0  0  0  0  0  0
    4.2147   -0.3873   13.0535 H   0  0  0  0  0  0  0  0  0  0  0  0
    4.6758   -2.1836   12.2037 C   0  0  0  0  0  0  0  0  0  0  0  0
    4.5879   -2.7408   13.0178 H   0  0  0  0  0  0  0  0  0  0  0  0
    5.3987   -2.5648   11.6457 H   0  0  0  0  0  0  0  0  0  0  0  0
    3.3543   -2.1891   11.4233 C   0  0  0  0  0  0  0  0  0  0  0  0
    3.1408   -3.1169   11.1493 H   0  0  0  0  0  0  0  0  0  0  0  0
    2.6256   -1.8685   12.0110 H   0  0  0  0  0  0  0  0  0  0  0  0
    3.4320   -1.3018   10.1843 C   0  0  0  0  0  0  0  0  0  0  0  0
    4.0681   -1.6983    9.5370 H   0  0  0  0  0  0  0  0  0  0  0  0
    2.5416   -1.2644    9.7534 H   0  0  0  0  0  0  0  0  0  0  0  0
    3.8833    0.1128   10.5318 C   0  0  0  0  0  0  0  0  0  0  0  0
    3.1786    0.5597   11.0639 H   0  0  0  0  0  0  0  0  0  0  0  0
    4.0096    0.6305    9.6978 H   0  0  0  0  0  0  0  0  0  0  0  0
    5.1895    0.1086   11.3240 C   0  0  0  0  0  0  0  0  0  0  0  0
    5.4327    1.0357   11.5742 H   0  0  0  0  0  0  0  0  0  0  0  0
    5.9183   -0.2607   10.7661 H   0  0  0  0  0  0  0  0  0  0  0  0
    7.9845   -0.9872   13.0078 C   0  0  0  0  0  0  0  0  0  0  0  0
    8.6495   -1.0235   13.7544 H   0  0  0  0  0  0  0  0  0  0  0  0
    8.5743    0.0029   11.9892 C   0  0  0  0  0  0  0  0  0  0  0  0
    8.5774    0.9168   12.3724 H   0  0  0  0  0  0  0  0  0  0  0  0
    8.0162    0.0134   11.1711 H   0  0  0  0  0  0  0  0  0  0  0  0
   10.0085   -0.4271   11.6417 C   0  0  0  0  0  0  0  0  0  0  0  0
   10.3707    0.1917   10.9607 H   0  0  0  0  0  0  0  0  0  0  0  0
   10.5716   -0.3430   12.4538 H   0  0  0  0  0  0  0  0  0  0  0  0
   10.1144   -1.8471   11.1195 C   0  0  0  0  0  0  0  0  0  0  0  0
    9.7081   -1.8954   10.2180 H   0  0  0  0  0  0  0  0  0  0  0  0
   11.0691   -2.0948   11.0361 H   0  0  0  0  0  0  0  0  0  0  0  0
    9.4324   -2.8193   12.0190 C   0  0  0  0  0  0  0  0  0  0  0  0
    9.9580   -2.9093   12.8530 H   0  0  0  0  0  0  0  0  0  0  0  0
    9.4126   -3.7056   11.5782 H   0  0  0  0  0  0  0  0  0  0  0  0
    7.9970   -2.4111   12.3764 C   0  0  0  0  0  0  0  0  0  0  0  0
    7.6168   -3.0625   13.0197 H   0  0  0  0  0  0  0  0  0  0  0  0
    7.4361   -2.4181   11.5623 H   0  0  0  0  0  0  0  0  0  0  0  0
    6.1151   -1.7059   15.1066 C   0  0  0  0  0  0  0  0  0  0  0  0
    6.2546   -2.6105   14.7055 H   0  0  0  0  0  0  0  0  0  0  0  0
    4.6849   -1.6615   15.6567 C   0  0  0  0  0  0  0  0  0  0  0  0
    4.5061   -0.7645   16.0379 H   0  0  0  0  0  0  0  0  0  0  0  0
    4.0437   -1.8122   14.9180 H   0  0  0  0  0  0  0  0  0  0  0  0
    4.4707   -2.7228   16.7368 C   0  0  0  0  0  0  0  0  0  0  0  0
    3.5528   -2.6433   17.0982 H   0  0  0  0  0  0  0  0  0  0  0  0
    4.5667   -3.6226   16.3357 H   0  0  0  0  0  0  0  0  0  0  0  0
    5.4686   -2.5695   17.8706 C   0  0  0  0  0  0  0  0  0  0  0  0
    5.3357   -3.2996   18.5259 H   0  0  0  0  0  0  0  0  0  0  0  0
    5.3113   -1.7089   18.3333 H   0  0  0  0  0  0  0  0  0  0  0  0
    6.9015   -2.6106   17.3484 C   0  0  0  0  0  0  0  0  0  0  0  0
    7.0886   -3.5072   16.9731 H   0  0  0  0  0  0  0  0  0  0  0  0
    7.5281   -2.4554   18.0990 H   0  0  0  0  0  0  0  0  0  0  0  0
    7.1270   -1.5515   16.2702 C   0  0  0  0  0  0  0  0  0  0  0  0
    8.0484   -1.6339   15.9168 H   0  0  0  0  0  0  0  0  0  0  0  0
    7.0319   -0.6507   16.6693 H   0  0  0  0  0  0  0  0  0  0  0  0
    3.3167    1.3603   25.2927 Pt  0  0  0  0  0  0  0  0  0  0  0  0
    0.7886    1.6451   24.6220 Br  0  0  0  0  0  0  0  0  0  0  0  0
    5.3168    1.2334   25.4517 B   0  0  0  0  0  0  0  0  0  0  0  0
    5.7761    1.0905   26.5498 H   0  0  0  0  0  0  0  0  0  0  0  0
    6.2502    1.3026   24.3372 N   0  0  0  0  0  0  0  0  0  0  0  0
    8.0218    1.3291   24.5751 Si  0  0  0  0  0  0  0  0  0  0  0  0
    8.4657    1.5253   26.3691 C   0  0  0  0  0  0  0  0  0  0  0  0
    8.0853    0.7830   26.8834 H   0  0  0  0  0  0  0  0  0  0  0  0
    9.4402    1.5234   26.4664 H   0  0  0  0  0  0  0  0  0  0  0  0
    8.1052    2.3736   26.7047 H   0  0  0  0  0  0  0  0  0  0  0  0
    8.7196   -0.2781   23.9625 C   0  0  0  0  0  0  0  0  0  0  0  0
    8.5577   -0.3575   22.9975 H   0  0  0  0  0  0  0  0  0  0  0  0
    9.6840   -0.3025   24.1353 H   0  0  0  0  0  0  0  0  0  0  0  0
    8.2845   -1.0218   24.4291 H   0  0  0  0  0  0  0  0  0  0  0  0
    8.6888    2.8114   23.6607 C   0  0  0  0  0  0  0  0  0  0  0  0
    8.2229    3.6190   23.9625 H   0  0  0  0  0  0  0  0  0  0  0  0
    9.6476    2.9013   23.8374 H   0  0  0  0  0  0  0  0  0  0  0  0
    8.5442    2.6929   22.6977 H   0  0  0  0  0  0  0  0  0  0  0  0
    5.8125    1.3722   22.9856 B   0  0  0  0  0  0  0  0  0  0  0  0
    4.5366    1.7408   22.5374 O   0  0  0  0  0  0  0  0  0  0  0  0
    4.5991    1.6855   21.1549 C   0  0  0  0  0  0  0  0  0  0  0  0
    5.8857    1.3064   20.7736 C   0  0  0  0  0  0  0  0  0  0  0  0
    6.6518    1.1055   21.9056 O   0  0  0  0  0  0  0  0  0  0  0  0
    6.2755    1.1600   19.4552 C   0  0  0  0  0  0  0  0  0  0  0  0
    7.1504    0.8960   19.1950 H   0  0  0  0  0  0  0  0  0  0  0  0
    3.4489    3.5814   25.9283 P   0  0  0  0  0  0  0  0  0  0  0  0
    3.1901   -0.9482   25.2206 P   0  0  0  0  0  0  0  0  0  0  0  0
    3.0936   -1.7885   23.5753 C   0  0  0  0  0  0  0  0  0  0  0  0
    2.8825   -2.7503   23.7461 H   0  0  0  0  0  0  0  0  0  0  0  0
    1.9594   -1.2251   22.7036 C   0  0  0  0  0  0  0  0  0  0  0  0
    2.1477   -0.2777   22.4872 H   0  0  0  0  0  0  0  0  0  0  0  0
    1.1074   -1.2629   23.2060 H   0  0  0  0  0  0  0  0  0  0  0  0
    1.8263   -2.0304   21.4050 C   0  0  0  0  0  0  0  0  0  0  0  0
    1.1108   -1.6349   20.8451 H   0  0  0  0  0  0  0  0  0  0  0  0
    1.5662   -2.9612   21.6215 H   0  0  0  0  0  0  0  0  0  0  0  0
    3.1322   -2.0383   20.6247 C   0  0  0  0  0  0  0  0  0  0  0  0
    3.3346   -1.1197   20.3129 H   0  0  0  0  0  0  0  0  0  0  0  0
    3.0369   -2.6176   19.8285 H   0  0  0  0  0  0  0  0  0  0  0  0
    4.2814   -2.5437   21.4785 C   0  0  0  0  0  0  0  0  0  0  0  0
    4.1371   -3.4998   21.6910 H   0  0  0  0  0  0  0  0  0  0  0  0
    5.1276   -2.4672   20.9702 H   0  0  0  0  0  0  0  0  0  0  0  0
    4.4037   -1.7475   22.7831 C   0  0  0  0  0  0  0  0  0  0  0  0
    4.6333   -0.8077   22.5746 H   0  0  0  0  0  0  0  0  0  0  0  0
    5.1328   -2.1271   23.3331 H   0  0  0  0  0  0  0  0  0  0  0  0
    4.6205   -1.8150   26.0335 C   0  0  0  0  0  0  0  0  0  0  0  0
    5.4357   -1.4703   25.5689 H   0  0  0  0  0  0  0  0  0  0  0  0
    4.8072   -1.4408   27.5148 C   0  0  0  0  0  0  0  0  0  0  0  0
    4.0900   -1.8580   28.0549 H   0  0  0  0  0  0  0  0  0  0  0  0
    4.7410   -0.4586   27.6200 H   0  0  0  0  0  0  0  0  0  0  0  0
    6.1696   -1.9206   28.0152 C   0  0  0  0  0  0  0  0  0  0  0  0
    6.2722   -1.6851   28.9703 H   0  0  0  0  0  0  0  0  0  0  0  0
    6.8866   -1.4640   27.5069 H   0  0  0  0  0  0  0  0  0  0  0  0
    6.3092   -3.4318   27.8444 C   0  0  0  0  0  0  0  0  0  0  0  0
    7.2240   -3.7084   28.1026 H   0  0  0  0  0  0  0  0  0  0  0  0
    5.6705   -3.8905   28.4461 H   0  0  0  0  0  0  0  0  0  0  0  0
    6.0381   -3.8529   26.4009 C   0  0  0  0  0  0  0  0  0  0  0  0
    6.7600   -3.5041   25.8211 H   0  0  0  0  0  0  0  0  0  0  0  0
    6.0524   -4.8409   26.3433 H   0  0  0  0  0  0  0  0  0  0  0  0
    4.6897   -3.3380   25.8945 C   0  0  0  0  0  0  0  0  0  0  0  0
    4.5729   -3.5909   24.9434 H   0  0  0  0  0  0  0  0  0  0  0  0
    3.9576   -3.7519   26.4168 H   0  0  0  0  0  0  0  0  0  0  0  0
    1.5657   -1.3807   26.0137 C   0  0  0  0  0  0  0  0  0  0  0  0
    0.9168   -0.8096   25.5113 H   0  0  0  0  0  0  0  0  0  0  0  0
    0.9711   -2.7815   25.8568 C   0  0  0  0  0  0  0  0  0  0  0  0
    1.5057   -3.4294   26.3790 H   0  0  0  0  0  0  0  0  0  0  0  0
    1.0055   -3.0512   24.9037 H   0  0  0  0  0  0  0  0  0  0  0  0
   -0.4695   -2.8005   26.3413 C   0  0  0  0  0  0  0  0  0  0  0  0
   -0.8114   -3.7281   26.2956 H   0  0  0  0  0  0  0  0  0  0  0  0
   -1.0205   -2.2473   25.7317 H   0  0  0  0  0  0  0  0  0  0  0  0
   -0.6318   -2.2874   27.7451 C   0  0  0  0  0  0  0  0  0  0  0  0
   -0.2328   -2.9388   28.3746 H   0  0  0  0  0  0  0  0  0  0  0  0
   -1.5967   -2.2140   27.9536 H   0  0  0  0  0  0  0  0  0  0  0  0
    0.0069   -0.9727   27.9397 C   0  0  0  0  0  0  0  0  0  0  0  0
   -0.5413   -0.2906   27.4751 H   0  0  0  0  0  0  0  0  0  0  0  0
   -0.0110   -0.7589   28.9067 H   0  0  0  0  0  0  0  0  0  0  0  0
    1.4437   -0.8436   27.4513 C   0  0  0  0  0  0  0  0  0  0  0  0
    1.7188    0.1071   27.4731 H   0  0  0  0  0  0  0  0  0  0  0  0
    2.0458   -1.3525   28.0489 H   0  0  0  0  0  0  0  0  0  0  0  0
    4.8398    3.8669   27.1157 C   0  0  0  0  0  0  0  0  0  0  0  0
    5.6538    3.5091   26.6590 H   0  0  0  0  0  0  0  0  0  0  0  0
    5.1927    5.3053   27.5089 C   0  0  0  0  0  0  0  0  0  0  0  0
    5.2806    5.8626   26.6947 H   0  0  0  0  0  0  0  0  0  0  0  0
    4.4698    5.6865   28.0668 H   0  0  0  0  0  0  0  0  0  0  0  0
    6.5142    5.3109   28.2892 C   0  0  0  0  0  0  0  0  0  0  0  0
    6.7277    6.2387   28.5632 H   0  0  0  0  0  0  0  0  0  0  0  0
    7.2429    4.9903   27.7015 H   0  0  0  0  0  0  0  0  0  0  0  0
    6.4365    4.4236   29.5282 C   0  0  0  0  0  0  0  0  0  0  0  0
    5.8004    4.8201   30.1755 H   0  0  0  0  0  0  0  0  0  0  0  0
    7.3269    4.3862   29.9591 H   0  0  0  0  0  0  0  0  0  0  0  0
    5.9852    3.0089   29.1807 C   0  0  0  0  0  0  0  0  0  0  0  0
    6.6899    2.5621   28.6486 H   0  0  0  0  0  0  0  0  0  0  0  0
    5.8589    2.4913   30.0147 H   0  0  0  0  0  0  0  0  0  0  0  0
    4.6790    3.0132   28.3885 C   0  0  0  0  0  0  0  0  0  0  0  0
    4.4358    2.0860   28.1383 H   0  0  0  0  0  0  0  0  0  0  0  0
    3.9502    3.3825   28.9464 H   0  0  0  0  0  0  0  0  0  0  0  0
    1.8840    4.1090   26.7047 C   0  0  0  0  0  0  0  0  0  0  0  0
    1.2190    4.1453   25.9581 H   0  0  0  0  0  0  0  0  0  0  0  0
    1.2942    3.1189   27.7233 C   0  0  0  0  0  0  0  0  0  0  0  0
    1.2911    2.2050   27.3401 H   0  0  0  0  0  0  0  0  0  0  0  0
    1.8523    3.1083   28.5414 H   0  0  0  0  0  0  0  0  0  0  0  0
   -0.1400    3.5488   28.0708 C   0  0  0  0  0  0  0  0  0  0  0  0
   -0.5022    2.9301   28.7519 H   0  0  0  0  0  0  0  0  0  0  0  0
   -0.7031    3.4648   27.2587 H   0  0  0  0  0  0  0  0  0  0  0  0
   -0.2459    4.9689   28.5930 C   0  0  0  0  0  0  0  0  0  0  0  0
    0.1604    5.0172   29.4945 H   0  0  0  0  0  0  0  0  0  0  0  0
   -1.2006    5.2166   28.6764 H   0  0  0  0  0  0  0  0  0  0  0  0
    0.4361    5.9411   27.6935 C   0  0  0  0  0  0  0  0  0  0  0  0
   -0.0895    6.0311   26.8596 H   0  0  0  0  0  0  0  0  0  0  0  0
    0.4559    6.8274   28.1343 H   0  0  0  0  0  0  0  0  0  0  0  0
    1.8715    5.5329   27.3361 C   0  0  0  0  0  0  0  0  0  0  0  0
    2.2517    6.1843   26.6928 H   0  0  0  0  0  0  0  0  0  0  0  0
    2.4324    5.5399   28.1502 H   0  0  0  0  0  0  0  0  0  0  0  0
    3.7534    4.8277   24.6059 C   0  0  0  0  0  0  0  0  0  0  0  0
    3.6139    5.7323   25.0070 H   0  0  0  0  0  0  0  0  0  0  0  0
    5.1836    4.7833   24.0559 C   0  0  0  0  0  0  0  0  0  0  0  0
    5.3624    3.8862   23.6746 H   0  0  0  0  0  0  0  0  0  0  0  0
    5.8248    4.9340   24.7945 H   0  0  0  0  0  0  0  0  0  0  0  0
    5.3978    5.8446   22.9757 C   0  0  0  0  0  0  0  0  0  0  0  0
    6.3157    5.7651   22.6143 H   0  0  0  0  0  0  0  0  0  0  0  0
    5.3018    6.7444   23.3768 H   0  0  0  0  0  0  0  0  0  0  0  0
    4.3999    5.6913   21.8419 C   0  0  0  0  0  0  0  0  0  0  0  0
    4.5328    6.4214   21.1866 H   0  0  0  0  0  0  0  0  0  0  0  0
    4.5572    4.8306   21.3792 H   0  0  0  0  0  0  0  0  0  0  0  0
    2.9670    5.7324   22.3641 C   0  0  0  0  0  0  0  0  0  0  0  0
    2.7799    6.6290   22.7394 H   0  0  0  0  0  0  0  0  0  0  0  0
    2.3404    5.5772   21.6135 H   0  0  0  0  0  0  0  0  0  0  0  0
    2.7415    4.6733   23.4423 C   0  0  0  0  0  0  0  0  0  0  0  0
    1.8201    4.7557   23.7957 H   0  0  0  0  0  0  0  0  0  0  0  0
    2.8366    3.7725   23.0432 H   0  0  0  0  0  0  0  0  0  0  0  0
  1  2  1  0  0  0  0
  3  1  1  0  0  0  0
  4  3  1  0  0  0  0
  5  3  2  0  0  0  0
  6  5  1  0  0  0  0
  7  6  1  0  0  0  0
  8  7  1  0  0  0  0
  9  7  1  0  0  0  0
 10  7  1  0  0  0  0
 11  6  1  0  0  0  0
 12 11  1  0  0  0  0
 13 11  1  0  0  0  0
 14 11  1  0  0  0  0
 15  6  1  0  0  0  0
 16 15  1  0  0  0  0
 17 15  1  0  0  0  0
 18 15  1  0  0  0  0
 19  5  1  0  0  0  0
 20 19  1  0  0  0  0
 21 20  1  0  0  0  0
 22 21  4  0  0  0  0
 23 19  1  0  0  0  0
 24 22  4  0  0  0  0
 25 24  1  0  0  0  0
 26  1  1  0  0  0  0
 27  1  1  0  0  0  0
 28 27  1  0  0  0  0
 29 28  1  0  0  0  0
 30 28  1  0  0  0  0
 31 30  1  0  0  0  0
 32 30  1  0  0  0  0
 33 30  1  0  0  0  0
 34 33  1  0  0  0  0
 35 33  1  0  0  0  0
 36 33  1  0  0  0  0
 37 36  1  0  0  0  0
 38 36  1  0  0  0  0
 39 36  1  0  0  0  0
 40 39  1  0  0  0  0
 41 39  1  0  0  0  0
 42 28  1  0  0  0  0
 43 42  1  0  0  0  0
 44 42  1  0  0  0  0
 45 27  1  0  0  0  0
 46 45  1  0  0  0  0
 47 45  1  0  0  0  0
 48 47  1  0  0  0  0
 49 47  1  0  0  0  0
 50 47  1  0  0  0  0
 51 50  1  0  0  0  0
 52 50  1  0  0  0  0
 53 50  1  0  0  0  0
 54 53  1  0  0  0  0
 55 53  1  0  0  0  0
 56 53  1  0  0  0  0
 57 56  1  0  0  0  0
 58 56  1  0  0  0  0
 59 45  1  0  0  0  0
 60 59  1  0  0  0  0
 61 59  1  0  0  0  0
 62 27  1  0  0  0  0
 63 62  1  0  0  0  0
 64 62  1  0  0  0  0
 65 64  1  0  0  0  0
 66 64  1  0  0  0  0
 67 64  1  0  0  0  0
 68 67  1  0  0  0  0
 69 67  1  0  0  0  0
 70 67  1  0  0  0  0
 71 70  1  0  0  0  0
 72 70  1  0  0  0  0
 73 70  1  0  0  0  0
 74 73  1  0  0  0  0
 75 73  1  0  0  0  0
 76 62  1  0  0  0  0
 77 76  1  0  0  0  0
 78 76  1  0  0  0  0
 79 26  1  0  0  0  0
 80 79  1  0  0  0  0
 81 79  1  0  0  0  0
 82 81  1  0  0  0  0
 83 81  1  0  0  0  0
 84 81  1  0  0  0  0
 85 84  1  0  0  0  0
 86 84  1  0  0  0  0
 87 84  1  0  0  0  0
 88 87  1  0  0  0  0
 89 87  1  0  0  0  0
 90 87  1  0  0  0  0
 91 90  1  0  0  0  0
 92 90  1  0  0  0  0
 93 79  1  0  0  0  0
 94 93  1  0  0  0  0
 95 93  1  0  0  0  0
 96 26  1  0  0  0  0
 97 96  1  0  0  0  0
 98 96  1  0  0  0  0
 99 98  1  0  0  0  0
100 98  1  0  0  0  0
101 98  1  0  0  0  0
102101  1  0  0  0  0
103101  1  0  0  0  0
104101  1  0  0  0  0
105104  1  0  0  0  0
106104  1  0  0  0  0
107104  1  0  0  0  0
108107  1  0  0  0  0
109107  1  0  0  0  0
110 96  1  0  0  0  0
111110  1  0  0  0  0
112110  1  0  0  0  0
113 26  1  0  0  0  0
114113  1  0  0  0  0
115113  1  0  0  0  0
116115  1  0  0  0  0
117115  1  0  0  0  0
118115  1  0  0  0  0
119118  1  0  0  0  0
120118  1  0  0  0  0
121118  1  0  0  0  0
122121  1  0  0  0  0
123121  1  0  0  0  0
124121  1  0  0  0  0
125124  1  0  0  0  0
126124  1  0  0  0  0
127113  1  0  0  0  0
128127  1  0  0  0  0
129127  1  0  0  0  0
130131  1  0  0  0  0
132130  1  0  0  0  0
133132  1  0  0  0  0
134132  2  0  0  0  0
135134  1  0  0  0  0
136135  1  0  0  0  0
137136  1  0  0  0  0
138136  1  0  0  0  0
139136  1  0  0  0  0
140135  1  0  0  0  0
141140  1  0  0  0  0
142140  1  0  0  0  0
143140  1  0  0  0  0
144135  1  0  0  0  0
145144  1  0  0  0  0
146144  1  0  0  0  0
147144  1  0  0  0  0
148134  1  0  0  0  0
149148  1  0  0  0  0
150 24  4  0  0  0  0
151150  4  0  0  0  0
152148  1  0  0  0  0
153 21  4  0  0  0  0
154153  1  0  0  0  0
155130  1  0  0  0  0
156130  1  0  0  0  0
157156  1  0  0  0  0
158157  1  0  0  0  0
159157  1  0  0  0  0
160159  1  0  0  0  0
161159  1  0  0  0  0
162159  1  0  0  0  0
163162  1  0  0  0  0
164162  1  0  0  0  0
165162  1  0  0  0  0
166165  1  0  0  0  0
167165  1  0  0  0  0
168165  1  0  0  0  0
169168  1  0  0  0  0
170168  1  0  0  0  0
171157  1  0  0  0  0
172171  1  0  0  0  0
173171  1  0  0  0  0
174156  1  0  0  0  0
175174  1  0  0  0  0
176174  1  0  0  0  0
177176  1  0  0  0  0
178176  1  0  0  0  0
179176  1  0  0  0  0
180179  1  0  0  0  0
181179  1  0  0  0  0
182179  1  0  0  0  0
183182  1  0  0  0  0
184182  1  0  0  0  0
185182  1  0  0  0  0
186185  1  0  0  0  0
187185  1  0  0  0  0
188174  1  0  0  0  0
189188  1  0  0  0  0
190188  1  0  0  0  0
191156  1  0  0  0  0
192191  1  0  0  0  0
193191  1  0  0  0  0
194193  1  0  0  0  0
195193  1  0  0  0  0
196193  1  0  0  0  0
197196  1  0  0  0  0
198196  1  0  0  0  0
199196  1  0  0  0  0
200199  1  0  0  0  0
201199  1  0  0  0  0
202199  1  0  0  0  0
203202  1  0  0  0  0
204202  1  0  0  0  0
205191  1  0  0  0  0
206205  1  0  0  0  0
207205  1  0  0  0  0
208155  1  0  0  0  0
209208  1  0  0  0  0
210208  1  0  0  0  0
211210  1  0  0  0  0
212210  1  0  0  0  0
213210  1  0  0  0  0
214213  1  0  0  0  0
215213  1  0  0  0  0
216213  1  0  0  0  0
217216  1  0  0  0  0
218216  1  0  0  0  0
219216  1  0  0  0  0
220219  1  0  0  0  0
221219  1  0  0  0  0
222208  1  0  0  0  0
223222  1  0  0  0  0
224222  1  0  0  0  0
225155  1  0  0  0  0
226225  1  0  0  0  0
227225  1  0  0  0  0
228227  1  0  0  0  0
229227  1  0  0  0  0
230227  1  0  0  0  0
231230  1  0  0  0  0
232230  1  0  0  0  0
233230  1  0  0  0  0
234233  1  0  0  0  0
235233  1  0  0  0  0
236233  1  0  0  0  0
237236  1  0  0  0  0
238236  1  0  0  0  0
239225  1  0  0  0  0
240239  1  0  0  0  0
241239  1  0  0  0  0
242155  1  0  0  0  0
243242  1  0  0  0  0
244242  1  0  0  0  0
245244  1  0  0  0  0
246244  1  0  0  0  0
247244  1  0  0  0  0
248247  1  0  0  0  0
249247  1  0  0  0  0
250247  1  0  0  0  0
251250  1  0  0  0  0
252250  1  0  0  0  0
253250  1  0  0  0  0
254253  1  0  0  0  0
255253  1  0  0  0  0
256242  1  0  0  0  0
257256  1  0  0  0  0
258256  1  0  0  0  0
 22 23  1  0  0  0  0
 39 42  1  0  0  0  0
 56 59  1  0  0  0  0
 73 76  1  0  0  0  0
 90 93  1  0  0  0  0
107110  1  0  0  0  0
124127  1  0  0  0  0
149150  1  0  0  0  0
151152  1  0  0  0  0
151153  4  0  0  0  0
168171  1  0  0  0  0
185188  1  0  0  0  0
202205  1  0  0  0  0
219222  1  0  0  0  0
236239  1  0  0  0  0
253256  1  0  0  0  0
M  END
$$$$
EHEFAZ

From CSD data. Using bond type 'Any'. No disordered atoms. Largest molecule.
142146  0  0  0  0  0  0  0  0999 V2000
    1.5644    5.5455    4.1975 P   0  3  0  0  0  0  0  0  0  0  0  0
    2.7189    2.6567    1.5115 F   0  0  0  0  0  0  0  0  0  0  0  0
    3.5336    2.8467   -0.9859 F   0  0  0  0  0  0  0  0  0  0  0  0
    6.0178    2.0415   -1.7159 F   0  0  0  0  0  0  0  0  0  0  0  0
    7.7236    1.0635    0.1704 F   0  0  0  0  0  0  0  0  0  0  0  0
    6.9663    0.9292    2.7282 F   0  0  0  0  0  0  0  0  0  0  0  0
    6.5847    3.7367    3.4522 F   0  0  0  0  0  0  0  0  0  0  0  0
    4.2699    1.1959    6.7147 F   0  0  0  0  0  0  0  0  0  0  0  0
    6.3439   -0.3006    5.1853 F   0  0  0  0  0  0  0  0  0  0  0  0
    6.0840   -2.9175    5.3567 F   0  0  0  0  0  0  0  0  0  0  0  0
    3.8676   -4.1702    4.3610 F   0  0  0  0  0  0  0  0  0  0  0  0
    1.9163   -2.6752    3.1863 F   0  0  0  0  0  0  0  0  0  0  0  0
    2.2264   -0.0544    2.8711 F   0  0  0  0  0  0  0  0  0  0  0  0
    3.0044    2.1490    4.1398 O   0  0  0  0  0  0  0  0  0  0  0  0
    1.7959    3.8713    4.2300 N   0  0  0  0  0  0  0  0  0  0  0  0
    2.9687    3.4656    4.0532 N   0  0  0  0  0  0  0  0  0  0  0  0
    1.3501    5.9204    6.0293 C   0  0  0  0  0  0  0  0  0  0  0  0
    2.5104    5.2705    6.8094 C   0  0  0  0  0  0  0  0  0  0  0  0
    3.3584    5.6710    6.5263 H   0  0  0  0  0  0  0  0  0  0  0  0
    2.5268    4.3074    6.6287 H   0  0  0  0  0  0  0  0  0  0  0  0
    2.3829    5.4209    7.7698 H   0  0  0  0  0  0  0  0  0  0  0  0
    0.0495    5.2987    6.5540 C   0  0  0  0  0  0  0  0  0  0  0  0
    0.0368    4.3422    6.3431 H   0  0  0  0  0  0  0  0  0  0  0  0
   -0.7174    5.7371    6.1274 H   0  0  0  0  0  0  0  0  0  0  0  0
   -0.0028    5.4211    7.5240 H   0  0  0  0  0  0  0  0  0  0  0  0
    1.2955    7.4308    6.2997 C   0  0  0  0  0  0  0  0  0  0  0  0
    2.1511    7.8387    6.0503 H   0  0  0  0  0  0  0  0  0  0  0  0
    1.1250    7.5860    7.2529 H   0  0  0  0  0  0  0  0  0  0  0  0
    0.5754    7.8319    5.7695 H   0  0  0  0  0  0  0  0  0  0  0  0
   -0.0418    5.6220    3.2222 C   0  0  0  0  0  0  0  0  0  0  0  0
   -0.9416    4.4307    3.5632 C   0  0  0  0  0  0  0  0  0  0  0  0
   -1.2018    4.4771    4.5067 H   0  0  0  0  0  0  0  0  0  0  0  0
   -0.4538    3.5960    3.3993 H   0  0  0  0  0  0  0  0  0  0  0  0
   -1.7434    4.4563    3.0016 H   0  0  0  0  0  0  0  0  0  0  0  0
   -0.8082    6.9243    3.4873 C   0  0  0  0  0  0  0  0  0  0  0  0
   -1.5501    7.0028    2.8522 H   0  0  0  0  0  0  0  0  0  0  0  0
   -0.2028    7.6880    3.3764 H   0  0  0  0  0  0  0  0  0  0  0  0
   -1.1602    6.9167    4.4019 H   0  0  0  0  0  0  0  0  0  0  0  0
    0.2534    5.5242    1.7123 C   0  0  0  0  0  0  0  0  0  0  0  0
    0.7812    4.7176    1.5340 H   0  0  0  0  0  0  0  0  0  0  0  0
    0.7571    6.3147    1.4267 H   0  0  0  0  0  0  0  0  0  0  0  0
   -0.5899    5.4786    1.2170 H   0  0  0  0  0  0  0  0  0  0  0  0
    2.9559    6.5184    3.4034 C   0  0  0  0  0  0  0  0  0  0  0  0
    2.4886    7.9425    3.0703 C   0  0  0  0  0  0  0  0  0  0  0  0
    3.2546    8.4765    2.7739 H   0  0  0  0  0  0  0  0  0  0  0  0
    2.0946    8.3523    3.8692 H   0  0  0  0  0  0  0  0  0  0  0  0
    1.8190    7.9085    2.3570 H   0  0  0  0  0  0  0  0  0  0  0  0
    3.4690    5.8194    2.1218 C   0  0  0  0  0  0  0  0  0  0  0  0
    2.7094    5.6060    1.5400 H   0  0  0  0  0  0  0  0  0  0  0  0
    3.9367    4.9940    2.3654 H   0  0  0  0  0  0  0  0  0  0  0  0
    4.0845    6.4172    1.6484 H   0  0  0  0  0  0  0  0  0  0  0  0
    4.1677    6.6059    4.3488 C   0  0  0  0  0  0  0  0  0  0  0  0
    4.9237    7.0097    3.8741 H   0  0  0  0  0  0  0  0  0  0  0  0
    4.4137    5.7054    4.6489 H   0  0  0  0  0  0  0  0  0  0  0  0
    3.9370    7.1571    5.1249 H   0  0  0  0  0  0  0  0  0  0  0  0
    4.8227    1.8208    2.2795 C   0  0  0  0  0  0  0  0  0  0  0  0
    3.9967    2.2723    1.2668 C   0  0  0  0  0  0  0  0  0  0  0  0
    4.3812    2.3666   -0.0572 C   0  0  0  0  0  0  0  0  0  0  0  0
    5.6363    1.9684   -0.4298 C   0  0  0  0  0  0  0  0  0  0  0  0
    6.4985    1.4774    0.5242 C   0  0  0  0  0  0  0  0  0  0  0  0
    6.0804    1.4172    1.8357 C   0  0  0  0  0  0  0  0  0  0  0  0
    5.3676    2.3629    4.9621 C   0  0  0  0  0  0  0  0  0  0  0  0
    6.3044    3.3538    4.7255 C   0  0  0  0  0  0  0  0  0  0  0  0
    5.1689    2.1389    6.3223 C   0  0  0  0  0  0  0  0  0  0  0  0
    4.2705   -0.0134    4.0661 C   0  0  0  0  0  0  0  0  0  0  0  0
    5.2197   -0.8282    4.6597 C   0  0  0  0  0  0  0  0  0  0  0  0
    5.1124   -2.2043    4.7590 C   0  0  0  0  0  0  0  0  0  0  0  0
    4.0023   -2.8348    4.2657 C   0  0  0  0  0  0  0  0  0  0  0  0
    3.0288   -2.0788    3.6654 C   0  0  0  0  0  0  0  0  0  0  0  0
    3.1911   -0.7063    3.5535 C   0  0  0  0  0  0  0  0  0  0  0  0
    4.4148    1.6106    3.8594 B   0  5  0  0  0  0  0  0  0  0  0  0
   10.5799    0.6220    7.8525 P   0  3  0  0  0  0  0  0  0  0  0  0
    9.4254    3.5107   10.5384 F   0  0  0  0  0  0  0  0  0  0  0  0
    8.6108    3.3208   13.0359 F   0  0  0  0  0  0  0  0  0  0  0  0
    6.1265    4.1260   13.7659 F   0  0  0  0  0  0  0  0  0  0  0  0
    4.4207    5.1040   11.8796 F   0  0  0  0  0  0  0  0  0  0  0  0
    5.1780    5.2383    9.3217 F   0  0  0  0  0  0  0  0  0  0  0  0
    5.5596    2.4308    8.5978 F   0  0  0  0  0  0  0  0  0  0  0  0
    7.8745    4.9716    5.3352 F   0  0  0  0  0  0  0  0  0  0  0  0
    5.8004    6.4681    6.8646 F   0  0  0  0  0  0  0  0  0  0  0  0
    6.0603    9.0850    6.6933 F   0  0  0  0  0  0  0  0  0  0  0  0
    8.2768   10.3377    7.6890 F   0  0  0  0  0  0  0  0  0  0  0  0
   10.2280    8.8427    8.8637 F   0  0  0  0  0  0  0  0  0  0  0  0
    9.9179    6.2219    9.1788 F   0  0  0  0  0  0  0  0  0  0  0  0
    9.1399    4.0185    7.9102 O   0  0  0  0  0  0  0  0  0  0  0  0
   10.3484    2.2962    7.8199 N   0  0  0  0  0  0  0  0  0  0  0  0
    9.1756    2.7019    7.9967 N   0  0  0  0  0  0  0  0  0  0  0  0
   10.7942    0.2471    6.0206 C   0  0  0  0  0  0  0  0  0  0  0  0
    9.6340    0.8970    5.2405 C   0  0  0  0  0  0  0  0  0  0  0  0
    8.7859    0.4965    5.5237 H   0  0  0  0  0  0  0  0  0  0  0  0
    9.6175    1.8601    5.4213 H   0  0  0  0  0  0  0  0  0  0  0  0
    9.7614    0.7466    4.2801 H   0  0  0  0  0  0  0  0  0  0  0  0
   12.0948    0.8688    5.4960 C   0  0  0  0  0  0  0  0  0  0  0  0
   12.1075    1.8253    5.7069 H   0  0  0  0  0  0  0  0  0  0  0  0
   12.8617    0.4304    5.9226 H   0  0  0  0  0  0  0  0  0  0  0  0
   12.1471    0.7464    4.5260 H   0  0  0  0  0  0  0  0  0  0  0  0
   10.8488   -1.2633    5.7502 C   0  0  0  0  0  0  0  0  0  0  0  0
    9.9932   -1.6712    5.9997 H   0  0  0  0  0  0  0  0  0  0  0  0
   11.0194   -1.4185    4.7971 H   0  0  0  0  0  0  0  0  0  0  0  0
   11.5689   -1.6644    6.2804 H   0  0  0  0  0  0  0  0  0  0  0  0
   12.1862    0.5455    8.8278 C   0  0  0  0  0  0  0  0  0  0  0  0
   13.0860    1.7368    8.4868 C   0  0  0  0  0  0  0  0  0  0  0  0
   13.3461    1.6904    7.5433 H   0  0  0  0  0  0  0  0  0  0  0  0
   12.5981    2.5715    8.6507 H   0  0  0  0  0  0  0  0  0  0  0  0
   13.8878    1.7111    9.0483 H   0  0  0  0  0  0  0  0  0  0  0  0
   12.9525   -0.7568    8.5627 C   0  0  0  0  0  0  0  0  0  0  0  0
   13.6944   -0.8353    9.1977 H   0  0  0  0  0  0  0  0  0  0  0  0
   12.3471   -1.5205    8.6736 H   0  0  0  0  0  0  0  0  0  0  0  0
   13.3045   -0.7492    7.6481 H   0  0  0  0  0  0  0  0  0  0  0  0
   11.8909    0.6433   10.3377 C   0  0  0  0  0  0  0  0  0  0  0  0
   11.3631    1.4499   10.5160 H   0  0  0  0  0  0  0  0  0  0  0  0
   11.3872   -0.1472   10.6233 H   0  0  0  0  0  0  0  0  0  0  0  0
   12.7342    0.6889   10.8329 H   0  0  0  0  0  0  0  0  0  0  0  0
    9.1884   -0.3509    8.6466 C   0  0  0  0  0  0  0  0  0  0  0  0
    9.6557   -1.7750    8.9796 C   0  0  0  0  0  0  0  0  0  0  0  0
    8.8897   -2.3090    9.2761 H   0  0  0  0  0  0  0  0  0  0  0  0
   10.0497   -2.1849    8.1807 H   0  0  0  0  0  0  0  0  0  0  0  0
   10.3253   -1.7410    9.6930 H   0  0  0  0  0  0  0  0  0  0  0  0
    8.6753    0.3481    9.9282 C   0  0  0  0  0  0  0  0  0  0  0  0
    9.4350    0.5615   10.5100 H   0  0  0  0  0  0  0  0  0  0  0  0
    8.2076    1.1735    9.6846 H   0  0  0  0  0  0  0  0  0  0  0  0
    8.0598   -0.2497   10.4015 H   0  0  0  0  0  0  0  0  0  0  0  0
    7.9767   -0.4384    7.7011 C   0  0  0  0  0  0  0  0  0  0  0  0
    7.2206   -0.8422    8.1759 H   0  0  0  0  0  0  0  0  0  0  0  0
    7.7306    0.4621    7.4011 H   0  0  0  0  0  0  0  0  0  0  0  0
    8.2073   -0.9896    6.9251 H   0  0  0  0  0  0  0  0  0  0  0  0
    7.3216    4.3467    9.7705 C   0  0  0  0  0  0  0  0  0  0  0  0
    8.1476    3.8952   10.7832 C   0  0  0  0  0  0  0  0  0  0  0  0
    7.7631    3.8009   12.1072 C   0  0  0  0  0  0  0  0  0  0  0  0
    6.5080    4.1991   12.4798 C   0  0  0  0  0  0  0  0  0  0  0  0
    5.6459    4.6901   11.5258 C   0  0  0  0  0  0  0  0  0  0  0  0
    6.0639    4.7503   10.2143 C   0  0  0  0  0  0  0  0  0  0  0  0
    6.7767    3.8046    7.0879 C   0  0  0  0  0  0  0  0  0  0  0  0
    5.8399    2.8137    7.3245 C   0  0  0  0  0  0  0  0  0  0  0  0
    6.9755    4.0286    5.7277 C   0  0  0  0  0  0  0  0  0  0  0  0
    7.8738    6.1809    7.9838 C   0  0  0  0  0  0  0  0  0  0  0  0
    6.9246    6.9957    7.3902 C   0  0  0  0  0  0  0  0  0  0  0  0
    7.0320    8.3718    7.2910 C   0  0  0  0  0  0  0  0  0  0  0  0
    8.1420    9.0023    7.7843 C   0  0  0  0  0  0  0  0  0  0  0  0
    9.1155    8.2463    8.3846 C   0  0  0  0  0  0  0  0  0  0  0  0
    8.9532    6.8738    8.4964 C   0  0  0  0  0  0  0  0  0  0  0  0
    7.7295    4.5569    8.1906 B   0  5  0  0  0  0  0  0  0  0  0  0
  1 15  1  0  0  0  0
  2 57  1  0  0  0  0
  3 58  1  0  0  0  0
  4 59  1  0  0  0  0
  5 60  1  0  0  0  0
  6 61  1  0  0  0  0
  7 63  1  0  0  0  0
  8 64  1  0  0  0  0
  9 66  1  0  0  0  0
 10 67  1  0  0  0  0
 11 68  1  0  0  0  0
 12 69  1  0  0  0  0
 13 70  1  0  0  0  0
 14 16  1  0  0  0  0
 15 16  2  0  0  0  0
 17  1  1  0  0  0  0
 18 17  1  0  0  0  0
 19 18  1  0  0  0  0
 20 18  1  0  0  0  0
 21 18  1  0  0  0  0
 22 17  1  0  0  0  0
 23 22  1  0  0  0  0
 24 22  1  0  0  0  0
 25 22  1  0  0  0  0
 26 17  1  0  0  0  0
 27 26  1  0  0  0  0
 28 26  1  0  0  0  0
 29 26  1  0  0  0  0
 30  1  1  0  0  0  0
 31 30  1  0  0  0  0
 32 31  1  0  0  0  0
 33 31  1  0  0  0  0
 34 31  1  0  0  0  0
 35 30  1  0  0  0  0
 36 35  1  0  0  0  0
 37 35  1  0  0  0  0
 38 35  1  0  0  0  0
 39 30  1  0  0  0  0
 40 39  1  0  0  0  0
 41 39  1  0  0  0  0
 42 39  1  0  0  0  0
 43  1  1  0  0  0  0
 44 43  1  0  0  0  0
 45 44  1  0  0  0  0
 46 44  1  0  0  0  0
 47 44  1  0  0  0  0
 48 43  1  0  0  0  0
 49 48  1  0  0  0  0
 50 48  1  0  0  0  0
 51 48  1  0  0  0  0
 52 43  1  0  0  0  0
 53 52  1  0  0  0  0
 54 52  1  0  0  0  0
 55 52  1  0  0  0  0
 56 57  4  0  0  0  0
 57 58  4  0  0  0  0
 58 59  4  0  0  0  0
 59 60  4  0  0  0  0
 60 61  4  0  0  0  0
 61 56  4  0  0  0  0
 62 63  4  0  0  0  0
 63135  4  0  0  0  0
 64 62  4  0  0  0  0
 65 66  4  0  0  0  0
 66 67  4  0  0  0  0
 67 68  4  0  0  0  0
 68 69  4  0  0  0  0
 69 70  4  0  0  0  0
 70 65  4  0  0  0  0
 71 14  1  0  0  0  0
 72 86  1  0  0  0  0
 73128  1  0  0  0  0
 74129  1  0  0  0  0
 75130  1  0  0  0  0
 76131  1  0  0  0  0
 77132  1  0  0  0  0
 78134  1  0  0  0  0
 79135  1  0  0  0  0
 80137  1  0  0  0  0
 81138  1  0  0  0  0
 82139  1  0  0  0  0
 83140  1  0  0  0  0
 84141  1  0  0  0  0
 85 87  1  0  0  0  0
 86 87  2  0  0  0  0
 88 72  1  0  0  0  0
 89 88  1  0  0  0  0
 90 89  1  0  0  0  0
 91 89  1  0  0  0  0
 92 89  1  0  0  0  0
 93 88  1  0  0  0  0
 94 93  1  0  0  0  0
 95 93  1  0  0  0  0
 96 93  1  0  0  0  0
 97 88  1  0  0  0  0
 98 97  1  0  0  0  0
 99 97  1  0  0  0  0
100 97  1  0  0  0  0
101 72  1  0  0  0  0
102101  1  0  0  0  0
103102  1  0  0  0  0
104102  1  0  0  0  0
105102  1  0  0  0  0
106101  1  0  0  0  0
107106  1  0  0  0  0
108106  1  0  0  0  0
109106  1  0  0  0  0
110101  1  0  0  0  0
111110  1  0  0  0  0
112110  1  0  0  0  0
113110  1  0  0  0  0
114 72  1  0  0  0  0
115114  1  0  0  0  0
116115  1  0  0  0  0
117115  1  0  0  0  0
118115  1  0  0  0  0
119114  1  0  0  0  0
120119  1  0  0  0  0
121119  1  0  0  0  0
122119  1  0  0  0  0
123114  1  0  0  0  0
124123  1  0  0  0  0
125123  1  0  0  0  0
126123  1  0  0  0  0
127128  4  0  0  0  0
128129  4  0  0  0  0
129130  4  0  0  0  0
130131  4  0  0  0  0
131132  4  0  0  0  0
132127  4  0  0  0  0
133134  4  0  0  0  0
134 64  4  0  0  0  0
135133  4  0  0  0  0
136137  4  0  0  0  0
137138  4  0  0  0  0
138139  4  0  0  0  0
139140  4  0  0  0  0
140141  4  0  0  0  0
141136  4  0  0  0  0
142 85  1  0  0  0  0
 56 71  1  0  0  0  0
 62 71  1  0  0  0  0
 65 71  1  0  0  0  0
127142  1  0  0  0  0
133142  1  0  0  0  0
136142  1  0  0  0  0
M  CHG  4   1   1  71  -1  72   1 142  -1
M  END
$$$$
EMEDOP

From CSD data. Using bond type 'Any'. No disordered atoms. Largest molecule.
102123  0  0  0  0  0  0  0  0999 V2000
    1.4831    5.8141    3.9282 Os  0  0  0  0  0  0  0  0  0  0  0  0
    0.6870    7.3505    2.3000 P   0  0  0  0  0  0  0  0  0  0  0  0
    0.6647    3.7831    2.8086 P   0  0  0  0  0  0  0  0  0  0  0  0
    4.6026    5.4915    3.5351 O   0  0  0  0  0  0  0  0  0  0  0  0
    1.1967    4.9026    5.8813 C   0  0  0  0  0  0  0  0  0  0  0  0
    0.7628    6.3929    6.2402 B   0  0  0  0  0  0  0  0  0  0  0  0
    2.2109    5.6064    7.0141 B   0  0  0  0  0  0  0  0  0  0  0  0
    2.7516    4.6687    5.5908 B   0  0  0  0  0  0  0  0  0  0  0  0
    1.3362    7.6130    5.0561 B   0  0  0  0  0  0  0  0  0  0  0  0
    2.2798    7.3489    6.5307 B   0  0  0  0  0  0  0  0  0  0  0  0
    3.6280    6.1751    6.0815 B   0  0  0  0  0  0  0  0  0  0  0  0
    3.5230    5.7819    4.2822 B   0  0  0  0  0  0  0  0  0  0  0  0
    3.0150    7.3872    4.9390 B   0  0  0  0  0  0  0  0  0  0  0  0
    0.3099    3.7692    6.2842 C   0  0  0  0  0  0  0  0  0  0  0  0
   -1.0521    3.8660    6.1230 C   0  0  0  0  0  0  0  0  0  0  0  0
   -1.4188    4.6263    5.7300 H   0  0  0  0  0  0  0  0  0  0  0  0
   -1.8838    2.8314    6.5430 C   0  0  0  0  0  0  0  0  0  0  0  0
   -2.8033    2.9101    6.4233 H   0  0  0  0  0  0  0  0  0  0  0  0
   -1.3689    1.6900    7.1362 C   0  0  0  0  0  0  0  0  0  0  0  0
   -1.9302    0.9962    7.3974 H   0  0  0  0  0  0  0  0  0  0  0  0
   -0.0327    1.6073    7.3266 C   0  0  0  0  0  0  0  0  0  0  0  0
    0.3340    0.8510    7.7246 H   0  0  0  0  0  0  0  0  0  0  0  0
    0.7869    2.6419    6.9311 C   0  0  0  0  0  0  0  0  0  0  0  0
    1.6978    2.5814    7.1069 H   0  0  0  0  0  0  0  0  0  0  0  0
    5.8304    6.2397    3.6865 C   0  0  0  0  0  0  0  0  0  0  0  0
    6.4881    5.9029    3.0762 H   0  0  0  0  0  0  0  0  0  0  0  0
    6.1523    6.1489    4.5874 H   0  0  0  0  0  0  0  0  0  0  0  0
    5.6651    7.1674    3.4985 H   0  0  0  0  0  0  0  0  0  0  0  0
    0.2893    6.7701    0.5884 C   0  0  0  0  0  0  0  0  0  0  0  0
   -0.9918    6.3244    0.2710 C   0  0  0  0  0  0  0  0  0  0  0  0
   -1.6306    6.2740    0.9448 H   0  0  0  0  0  0  0  0  0  0  0  0
   -1.3362    5.9654   -0.9839 C   0  0  0  0  0  0  0  0  0  0  0  0
   -2.1851    5.6286   -1.1572 H   0  0  0  0  0  0  0  0  0  0  0  0
   -0.4356    6.0965   -2.0019 C   0  0  0  0  0  0  0  0  0  0  0  0
   -0.6870    5.8968   -2.8760 H   0  0  0  0  0  0  0  0  0  0  0  0
    0.8041    6.5079   -1.7432 C   0  0  0  0  0  0  0  0  0  0  0  0
    1.4309    6.5664   -2.4292 H   0  0  0  0  0  0  0  0  0  0  0  0
    1.1537    6.8507   -0.4419 C   0  0  0  0  0  0  0  0  0  0  0  0
    2.0198    7.1492   -0.2783 H   0  0  0  0  0  0  0  0  0  0  0  0
    1.9888    8.6073    1.9727 C   0  0  0  0  0  0  0  0  0  0  0  0
    1.8063    9.9564    2.0044 C   0  0  0  0  0  0  0  0  0  0  0  0
    0.9643   10.2852    2.2241 H   0  0  0  0  0  0  0  0  0  0  0  0
    2.8015   10.8498    1.7261 C   0  0  0  0  0  0  0  0  0  0  0  0
    2.6345   11.7654    1.7456 H   0  0  0  0  0  0  0  0  0  0  0  0
    4.0620   10.3759    1.4136 C   0  0  0  0  0  0  0  0  0  0  0  0
    4.7559   10.9708    1.2402 H   0  0  0  0  0  0  0  0  0  0  0  0
    4.2772    9.0550    1.3647 C   0  0  0  0  0  0  0  0  0  0  0  0
    5.1175    8.7404    1.1230 H   0  0  0  0  0  0  0  0  0  0  0  0
    3.2716    8.1414    1.6675 C   0  0  0  0  0  0  0  0  0  0  0  0
    3.4507    7.2299    1.6675 H   0  0  0  0  0  0  0  0  0  0  0  0
   -0.8386    8.2947    2.6489 C   0  0  0  0  0  0  0  0  0  0  0  0
   -1.5738    8.0769    3.8086 C   0  0  0  0  0  0  0  0  0  0  0  0
   -1.2742    7.4799    4.4556 H   0  0  0  0  0  0  0  0  0  0  0  0
   -2.7705    8.7706    3.9844 C   0  0  0  0  0  0  0  0  0  0  0  0
   -3.2699    8.6295    4.7558 H   0  0  0  0  0  0  0  0  0  0  0  0
   -3.2200    9.6378    3.0640 C   0  0  0  0  0  0  0  0  0  0  0  0
   -4.0137   10.0956    3.2178 H   0  0  0  0  0  0  0  0  0  0  0  0
   -2.5260    9.8576    1.8994 C   0  0  0  0  0  0  0  0  0  0  0  0
   -2.8515   10.4465    1.2549 H   0  0  0  0  0  0  0  0  0  0  0  0
   -1.3465    9.1941    1.7090 C   0  0  0  0  0  0  0  0  0  0  0  0
   -0.8678    9.3454    0.9277 H   0  0  0  0  0  0  0  0  0  0  0  0
    1.4016    3.5655    1.1377 C   0  0  0  0  0  0  0  0  0  0  0  0
    0.6612    3.2388   -0.0024 C   0  0  0  0  0  0  0  0  0  0  0  0
   -0.2635    3.1440    0.0488 H   0  0  0  0  0  0  0  0  0  0  0  0
    1.3121    3.0593   -1.2085 C   0  0  0  0  0  0  0  0  0  0  0  0
    0.8110    2.8859   -1.9727 H   0  0  0  0  0  0  0  0  0  0  0  0
    2.6776    3.1299   -1.3086 C   0  0  0  0  0  0  0  0  0  0  0  0
    3.0977    2.9484   -2.1191 H   0  0  0  0  0  0  0  0  0  0  0  0
    3.3887    3.4566   -0.2588 C   0  0  0  0  0  0  0  0  0  0  0  0
    4.3116    3.5272   -0.3516 H   0  0  0  0  0  0  0  0  0  0  0  0
    2.8239    3.6986    0.9888 C   0  0  0  0  0  0  0  0  0  0  0  0
    3.3560    3.9426    1.7114 H   0  0  0  0  0  0  0  0  0  0  0  0
    1.1330    2.1962    3.5986 C   0  0  0  0  0  0  0  0  0  0  0  0
    2.5088    1.9038    3.7329 C   0  0  0  0  0  0  0  0  0  0  0  0
    3.1562    2.5148    3.4643 H   0  0  0  0  0  0  0  0  0  0  0  0
    2.8652    0.6756    4.2822 C   0  0  0  0  0  0  0  0  0  0  0  0
    3.7692    0.4759    4.3725 H   0  0  0  0  0  0  0  0  0  0  0  0
    1.9578   -0.2420    4.6875 C   0  0  0  0  0  0  0  0  0  0  0  0
    2.2367   -1.0467    5.0635 H   0  0  0  0  0  0  0  0  0  0  0  0
    0.6027    0.0323    4.5410 C   0  0  0  0  0  0  0  0  0  0  0  0
   -0.0310   -0.5990    4.7925 H   0  0  0  0  0  0  0  0  0  0  0  0
    0.2032    1.2322    4.0210 C   0  0  0  0  0  0  0  0  0  0  0  0
   -0.7060    1.4157    3.9477 H   0  0  0  0  0  0  0  0  0  0  0  0
   -1.1382    3.5857    2.5366 C   0  0  0  0  0  0  0  0  0  0  0  0
   -1.9699    4.6162    3.0322 C   0  0  0  0  0  0  0  0  0  0  0  0
   -1.5996    5.3543    3.4595 H   0  0  0  0  0  0  0  0  0  0  0  0
   -3.3009    4.5134    2.8809 C   0  0  0  0  0  0  0  0  0  0  0  0
   -3.8571    5.1970    3.1738 H   0  0  0  0  0  0  0  0  0  0  0  0
   -3.8467    3.3699    2.2754 C   0  0  0  0  0  0  0  0  0  0  0  0
   -4.7697    3.2852    2.1973 H   0  0  0  0  0  0  0  0  0  0  0  0
   -3.0564    2.4019    1.8091 C   0  0  0  0  0  0  0  0  0  0  0  0
   -3.4421    1.6597    1.4038 H   0  0  0  0  0  0  0  0  0  0  0  0
   -1.7012    2.4725    1.9141 C   0  0  0  0  0  0  0  0  0  0  0  0
   -1.1623    1.7928    1.5796 H   0  0  0  0  0  0  0  0  0  0  0  0
    2.1575    5.7940    2.7222 H   0  0  0  0  0  0  0  0  0  0  0  0
   -0.2307    6.4131    7.0044 H   0  0  0  0  0  0  0  0  0  0  0  0
    2.5191    5.7375    8.1811 H   0  0  0  0  0  0  0  0  0  0  0  0
    3.1580    3.6119    5.2002 H   0  0  0  0  0  0  0  0  0  0  0  0
    1.2983    8.7142    4.7436 H   0  0  0  0  0  0  0  0  0  0  0  0
    2.7120    8.0688    7.3950 H   0  0  0  0  0  0  0  0  0  0  0  0
    4.6216    5.9331    6.5796 H   0  0  0  0  0  0  0  0  0  0  0  0
    3.6831    8.1838    4.5410 H   0  0  0  0  0  0  0  0  0  0  0  0
  1  2  1  0  0  0  0
  2 29  1  0  0  0  0
  3  1  1  0  0  0  0
  4 12  1  0  0  0  0
  5  1  1  0  0  0  0
  6  1  1  0  0  0  0
  7  5  1  0  0  0  0
  8  1  1  0  0  0  0
  9  1  1  0  0  0  0
 10  6  1  0  0  0  0
 11  7  1  0  0  0  0
 12  1  1  0  0  0  0
 13  1  1  0  0  0  0
 14  5  1  0  0  0  0
 15 14  4  0  0  0  0
 16 15  1  0  0  0  0
 17 15  4  0  0  0  0
 18 17  1  0  0  0  0
 19 17  4  0  0  0  0
 20 19  1  0  0  0  0
 21 19  4  0  0  0  0
 22 21  1  0  0  0  0
 23 14  4  0  0  0  0
 24 23  1  0  0  0  0
 25  4  1  0  0  0  0
 26 25  1  0  0  0  0
 27 25  1  0  0  0  0
 28 25  1  0  0  0  0
 29 30  4  0  0  0  0
 30 31  1  0  0  0  0
 32 30  4  0  0  0  0
 33 32  1  0  0  0  0
 34 32  4  0  0  0  0
 35 34  1  0  0  0  0
 36 34  4  0  0  0  0
 37 36  1  0  0  0  0
 38 29  4  0  0  0  0
 39 38  1  0  0  0  0
 40  2  1  0  0  0  0
 41 40  4  0  0  0  0
 42 41  1  0  0  0  0
 43 41  4  0  0  0  0
 44 43  1  0  0  0  0
 45 43  4  0  0  0  0
 46 45  1  0  0  0  0
 47 45  4  0  0  0  0
 48 47  1  0  0  0  0
 49 40  4  0  0  0  0
 50 49  1  0  0  0  0
 51  2  1  0  0  0  0
 52 51  4  0  0  0  0
 53 52  1  0  0  0  0
 54 52  4  0  0  0  0
 55 54  1  0  0  0  0
 56 54  4  0  0  0  0
 57 56  1  0  0  0  0
 58 56  4  0  0  0  0
 59 58  1  0  0  0  0
 60 51  4  0  0  0  0
 61 60  1  0  0  0  0
 62  3  1  0  0  0  0
 63 62  4  0  0  0  0
 64 63  1  0  0  0  0
 65 63  4  0  0  0  0
 66 65  1  0  0  0  0
 67 65  4  0  0  0  0
 68 67  1  0  0  0  0
 69 67  4  0  0  0  0
 70 69  1  0  0  0  0
 71 62  4  0  0  0  0
 72 71  1  0  0  0  0
 73  3  1  0  0  0  0
 74 73  4  0  0  0  0
 75 74  1  0  0  0  0
 76 74  4  0  0  0  0
 77 76  1  0  0  0  0
 78 76  4  0  0  0  0
 79 78  1  0  0  0  0
 80 78  4  0  0  0  0
 81 80  1  0  0  0  0
 82 73  4  0  0  0  0
 83 82  1  0  0  0  0
 84  3  1  0  0  0  0
 85 84  4  0  0  0  0
 86 85  1  0  0  0  0
 87 85  4  0  0  0  0
 88 87  1  0  0  0  0
 89 87  4  0  0  0  0
 90 89  1  0  0  0  0
 91 89  4  0  0  0  0
 92 91  1  0  0  0  0
 93 84  4  0  0  0  0
 94 93  1  0  0  0  0
 95  1  1  0  0  0  0
 96  6  1  0  0  0  0
 97  7  1  0  0  0  0
 98  8  1  0  0  0  0
 99  9  1  0  0  0  0
100 10  1  0  0  0  0
101 11  1  0  0  0  0
102 13  1  0  0  0  0
  5  6  1  0  0  0  0
  5  8  1  0  0  0  0
  6  7  1  0  0  0  0
  6  9  1  0  0  0  0
  7  8  1  0  0  0  0
  7 10  1  0  0  0  0
  8 11  1  0  0  0  0
  8 12  1  0  0  0  0
  9 10  1  0  0  0  0
  9 13  1  0  0  0  0
 10 11  1  0  0  0  0
 10 13  1  0  0  0  0
 11 12  1  0  0  0  0
 11 13  1  0  0  0  0
 12 13  1  0  0  0  0
 21 23  4  0  0  0  0
 36 38  4  0  0  0  0
 47 49  4  0  0  0  0
 58 60  4  0  0  0  0
 69 71  4  0  0  0  0
 80 82  4  0  0  0  0
 91 93  4  0  0  0  0
M  END
$$$$
ENOTUX

From CSD data. Using bond type 'Any'. Matching problem. No disordered atoms. Largest molecule.
104146  0  0  0  0  0  0  0  0999 V2000
    5.0139    6.0038    0.5443 Ru  0  0  0  0  0  0  0  0  0  0  0  0
    5.0456    8.3786    0.3291 P   0  0  0  0  0  0  0  0  0  0  0  0
    6.9750    6.0038   -1.6987 O   0  0  0  0  0  0  0  0  0  0  0  0
    3.2335    6.0038   -0.5913 C   0  0  0  0  0  0  0  0  0  0  0  0
    1.9803    6.0038    0.0469 C   0  0  0  0  0  0  0  0  0  0  0  0
    0.7761    6.0038   -0.6257 C   0  0  0  0  0  0  0  0  0  0  0  0
    0.7851    6.0038   -2.0601 C   0  0  0  0  0  0  0  0  0  0  0  0
    1.9743    6.0038   -2.7061 C   0  0  0  0  0  0  0  0  0  0  0  0
    3.1655    6.0038   -1.9568 C   0  0  0  0  0  0  0  0  0  0  0  0
    6.1759    6.0038   -0.8791 C   0  0  0  0  0  0  0  0  0  0  0  0
    4.2226    9.3973    1.6024 C   0  0  0  0  0  0  0  0  0  0  0  0
    2.9274    9.0477    2.0116 C   0  0  0  0  0  0  0  0  0  0  0  0
    2.2713    9.7960    2.9782 C   0  0  0  0  0  0  0  0  0  0  0  0
    2.8964   10.8738    3.5539 C   0  0  0  0  0  0  0  0  0  0  0  0
    4.1576   11.2424    3.1519 C   0  0  0  0  0  0  0  0  0  0  0  0
    4.8097   10.5076    2.1716 C   0  0  0  0  0  0  0  0  0  0  0  0
    4.2776    8.9620   -1.2331 C   0  0  0  0  0  0  0  0  0  0  0  0
    4.8867    8.6757   -2.4469 C   0  0  0  0  0  0  0  0  0  0  0  0
    4.3016    9.0165   -3.6430 C   0  0  0  0  0  0  0  0  0  0  0  0
    3.0895    9.6512   -3.6555 C   0  0  0  0  0  0  0  0  0  0  0  0
    2.4734    9.9473   -2.4605 C   0  0  0  0  0  0  0  0  0  0  0  0
    3.0515    9.6101   -1.2607 C   0  0  0  0  0  0  0  0  0  0  0  0
    6.7130    9.1296    0.1987 C   0  0  0  0  0  0  0  0  0  0  0  0
    7.8052    8.5158    0.7383 C   0  0  0  0  0  0  0  0  0  0  0  0
    9.0844    9.1152    0.6194 C   0  0  0  0  0  0  0  0  0  0  0  0
    9.2204   10.3162   -0.0078 C   0  0  0  0  0  0  0  0  0  0  0  0
    8.1272   10.9516   -0.5287 C   0  0  0  0  0  0  0  0  0  0  0  0
    6.8760   10.3596   -0.4302 C   0  0  0  0  0  0  0  0  0  0  0  0
    4.3867    5.7108    2.9454 B   0  0  0  0  0  0  0  0  0  0  0  0
    6.0739    5.5523    2.7280 B   0  0  0  0  0  0  0  0  0  0  0  0
    5.4578    6.7771    3.8636 B   0  0  0  0  0  0  0  0  0  0  0  0
    1.9603    6.0038    1.0480 H   0  0  0  0  0  0  0  0  0  0  0  0
   -0.0880    6.0038   -0.1236 H   0  0  0  0  0  0  0  0  0  0  0  0
   -0.0730    6.0038   -2.5731 H   0  0  0  0  0  0  0  0  0  0  0  0
    2.0053    6.0038   -3.7056 H   0  0  0  0  0  0  0  0  0  0  0  0
    4.0286    6.0038   -2.4621 H   0  0  0  0  0  0  0  0  0  0  0  0
    2.4744    8.2542    1.6049 H   0  0  0  0  0  0  0  0  0  0  0  0
    1.3422    9.5506    3.2551 H   0  0  0  0  0  0  0  0  0  0  0  0
    2.4314   11.3932    4.2718 H   0  0  0  0  0  0  0  0  0  0  0  0
    4.6027   12.0373    3.5632 H   0  0  0  0  0  0  0  0  0  0  0  0
    5.7219   10.7878    1.8733 H   0  0  0  0  0  0  0  0  0  0  0  0
    5.7719    8.2100   -2.4516 H   0  0  0  0  0  0  0  0  0  0  0  0
    4.7617    8.8008   -4.5049 H   0  0  0  0  0  0  0  0  0  0  0  0
    2.6564    9.8976   -4.5221 H   0  0  0  0  0  0  0  0  0  0  0  0
    1.5902   10.4158   -2.4667 H   0  0  0  0  0  0  0  0  0  0  0  0
    2.5854    9.8325   -0.4051 H   0  0  0  0  0  0  0  0  0  0  0  0
    7.7042    7.6440    1.2169 H   0  0  0  0  0  0  0  0  0  0  0  0
    9.8885    8.6550    0.9964 H   0  0  0  0  0  0  0  0  0  0  0  0
   10.1245   10.7360   -0.0892 H   0  0  0  0  0  0  0  0  0  0  0  0
    8.2292   11.8394   -0.9761 H   0  0  0  0  0  0  0  0  0  0  0  0
    6.0799   10.8236   -0.8196 H   0  0  0  0  0  0  0  0  0  0  0  0
    3.7696    6.1263    2.1351 H   0  0  0  0  0  0  0  0  0  0  0  0
    3.8256    4.9207    3.4663 H   0  0  0  0  0  0  0  0  0  0  0  0
    6.5370    5.8645    1.7816 H   0  0  0  0  0  0  0  0  0  0  0  0
    6.5930    4.6613    3.1128 H   0  0  0  0  0  0  0  0  0  0  0  0
    5.5248    7.8457    3.6164 H   0  0  0  0  0  0  0  0  0  0  0  0
    5.5808    6.6426    4.9476 H   0  0  0  0  0  0  0  0  0  0  0  0
    4.0296    6.5633    3.7322 H   0  0  0  0  0  0  0  0  0  0  0  0
    6.7510    6.3160    3.3927 H   0  0  0  0  0  0  0  0  0  0  0  0
    5.0456    3.6289    0.3291 P   0  0  0  0  0  0  0  0  0  0  0  0
    4.2226    2.6102    1.6024 C   0  0  0  0  0  0  0  0  0  0  0  0
    2.9274    2.9599    2.0116 C   0  0  0  0  0  0  0  0  0  0  0  0
    2.2713    2.2116    2.9782 C   0  0  0  0  0  0  0  0  0  0  0  0
    2.8964    1.1338    3.5539 C   0  0  0  0  0  0  0  0  0  0  0  0
    4.1576    0.7651    3.1519 C   0  0  0  0  0  0  0  0  0  0  0  0
    4.8097    1.5000    2.1716 C   0  0  0  0  0  0  0  0  0  0  0  0
    4.2776    3.0456   -1.2331 C   0  0  0  0  0  0  0  0  0  0  0  0
    4.8867    3.3319   -2.4469 C   0  0  0  0  0  0  0  0  0  0  0  0
    4.3016    2.9911   -3.6430 C   0  0  0  0  0  0  0  0  0  0  0  0
    3.0895    2.3564   -3.6555 C   0  0  0  0  0  0  0  0  0  0  0  0
    2.4734    2.0603   -2.4605 C   0  0  0  0  0  0  0  0  0  0  0  0
    3.0515    2.3974   -1.2607 C   0  0  0  0  0  0  0  0  0  0  0  0
    6.7130    2.8780    0.1987 C   0  0  0  0  0  0  0  0  0  0  0  0
    7.8052    3.4918    0.7383 C   0  0  0  0  0  0  0  0  0  0  0  0
    9.0844    2.8924    0.6194 C   0  0  0  0  0  0  0  0  0  0  0  0
    9.2204    1.6914   -0.0078 C   0  0  0  0  0  0  0  0  0  0  0  0
    8.1272    1.0559   -0.5287 C   0  0  0  0  0  0  0  0  0  0  0  0
    6.8760    1.6479   -0.4302 C   0  0  0  0  0  0  0  0  0  0  0  0
    4.3867    6.2968    2.9454 B   0  0  0  0  0  0  0  0  0  0  0  0
    6.0739    6.4553    2.7280 B   0  0  0  0  0  0  0  0  0  0  0  0
    5.4578    5.2305    3.8636 B   0  0  0  0  0  0  0  0  0  0  0  0
    2.4744    3.7533    1.6049 H   0  0  0  0  0  0  0  0  0  0  0  0
    1.3422    2.4570    3.2551 H   0  0  0  0  0  0  0  0  0  0  0  0
    2.4314    0.6143    4.2718 H   0  0  0  0  0  0  0  0  0  0  0  0
    4.6027   -0.0298    3.5632 H   0  0  0  0  0  0  0  0  0  0  0  0
    5.7219    1.2197    1.8733 H   0  0  0  0  0  0  0  0  0  0  0  0
    5.7719    3.7975   -2.4516 H   0  0  0  0  0  0  0  0  0  0  0  0
    4.7617    3.2067   -4.5049 H   0  0  0  0  0  0  0  0  0  0  0  0
    2.6564    2.1100   -4.5221 H   0  0  0  0  0  0  0  0  0  0  0  0
    1.5902    1.5917   -2.4667 H   0  0  0  0  0  0  0  0  0  0  0  0
    2.5854    2.1750   -0.4051 H   0  0  0  0  0  0  0  0  0  0  0  0
    7.7042    4.3635    1.2169 H   0  0  0  0  0  0  0  0  0  0  0  0
    9.8885    3.3525    0.9964 H   0  0  0  0  0  0  0  0  0  0  0  0
   10.1245    1.2716   -0.0892 H   0  0  0  0  0  0  0  0  0  0  0  0
    8.2292    0.1681   -0.9761 H   0  0  0  0  0  0  0  0  0  0  0  0
    6.0799    1.1839   -0.8196 H   0  0  0  0  0  0  0  0  0  0  0  0
    3.7696    5.8813    2.1351 H   0  0  0  0  0  0  0  0  0  0  0  0
    3.8256    7.0869    3.4663 H   0  0  0  0  0  0  0  0  0  0  0  0
    6.5370    6.1431    1.7816 H   0  0  0  0  0  0  0  0  0  0  0  0
    6.5930    7.3462    3.1128 H   0  0  0  0  0  0  0  0  0  0  0  0
    5.5248    4.1618    3.6164 H   0  0  0  0  0  0  0  0  0  0  0  0
    5.5808    5.3650    4.9476 H   0  0  0  0  0  0  0  0  0  0  0  0
    4.0296    5.4442    3.7322 H   0  0  0  0  0  0  0  0  0  0  0  0
    6.7510    5.6916    3.3927 H   0  0  0  0  0  0  0  0  0  0  0  0
  1  2  1  0  0  0  0
  2 11  1  0  0  0  0
  3 10  1  0  0  0  0
  4  1  1  0  0  0  0
  5  4  1  0  0  0  0
  6  5  1  0  0  0  0
  7  6  1  0  0  0  0
  8  7  1  0  0  0  0
  9  4  1  0  0  0  0
 10  1  1  0  0  0  0
 11 12  1  0  0  0  0
 12 13  1  0  0  0  0
 13 14  1  0  0  0  0
 14 15  1  0  0  0  0
 15 16  1  0  0  0  0
 16 11  1  0  0  0  0
 17  2  1  0  0  0  0
 18 17  1  0  0  0  0
 19 18  1  0  0  0  0
 20 19  1  0  0  0  0
 21 20  1  0  0  0  0
 22 17  1  0  0  0  0
 23  2  1  0  0  0  0
 24 23  1  0  0  0  0
 25 24  1  0  0  0  0
 26 25  1  0  0  0  0
 27 26  1  0  0  0  0
 28 23  1  0  0  0  0
 29  1  1  0  0  0  0
 30  1  1  0  0  0  0
 31 29  1  0  0  0  0
 32  5  1  0  0  0  0
 33  6  1  0  0  0  0
 34  7  1  0  0  0  0
 35  8  1  0  0  0  0
 36  9  1  0  0  0  0
 37 12  1  0  0  0  0
 38 13  1  0  0  0  0
 39 14  1  0  0  0  0
 40 15  1  0  0  0  0
 41 16  1  0  0  0  0
 42 18  1  0  0  0  0
 43 19  1  0  0  0  0
 44 20  1  0  0  0  0
 45 21  1  0  0  0  0
 46 22  1  0  0  0  0
 47 24  1  0  0  0  0
 48 25  1  0  0  0  0
 49 26  1  0  0  0  0
 50 27  1  0  0  0  0
 51 28  1  0  0  0  0
 52  1  1  0  0  0  0
 53 29  1  0  0  0  0
 54  1  1  0  0  0  0
 55 30  1  0  0  0  0
 56 31  1  0  0  0  0
 57 31  1  0  0  0  0
 58 29  1  0  0  0  0
 59 30  1  0  0  0  0
 60  1  1  0  0  0  0
 61 60  1  0  0  0  0
 62 61  1  0  0  0  0
 63 62  1  0  0  0  0
 64 63  1  0  0  0  0
 65 64  1  0  0  0  0
 66 61  1  0  0  0  0
 67 60  1  0  0  0  0
 68 67  1  0  0  0  0
 69 68  1  0  0  0  0
 70 69  1  0  0  0  0
 71 70  1  0  0  0  0
 72 67  1  0  0  0  0
 73 60  1  0  0  0  0
 74 73  1  0  0  0  0
 75 74  1  0  0  0  0
 76 75  1  0  0  0  0
 77 76  1  0  0  0  0
 78 73  1  0  0  0  0
 79  1  1  0  0  0  0
 80  1  1  0  0  0  0
 81 29  1  0  0  0  0
 82 62  1  0  0  0  0
 83 63  1  0  0  0  0
 84 64  1  0  0  0  0
 85 65  1  0  0  0  0
 86 66  1  0  0  0  0
 87 68  1  0  0  0  0
 88 69  1  0  0  0  0
 89 70  1  0  0  0  0
 90 71  1  0  0  0  0
 91 72  1  0  0  0  0
 92 74  1  0  0  0  0
 93 75  1  0  0  0  0
 94 76  1  0  0  0  0
 95 77  1  0  0  0  0
 96 78  1  0  0  0  0
 97  1  1  0  0  0  0
 98 58  1  0  0  0  0
 99  1  1  0  0  0  0
100 31  1  0  0  0  0
101 81  1  0  0  0  0
102 81  1  0  0  0  0
103 29  1  0  0  0  0
104 30  1  0  0  0  0
  8  9  1  0  0  0  0
 21 22  1  0  0  0  0
 27 28  1  0  0  0  0
 29 30  1  0  0  0  0
 29 52  1  0  0  0  0
 29 79  1  0  0  0  0
 29 80  1  0  0  0  0
 29 97  1  0  0  0  0
 30 31  1  0  0  0  0
 30 54  1  0  0  0  0
 30 79  1  0  0  0  0
 30 80  1  0  0  0  0
 30 81  1  0  0  0  0
 30 99  1  0  0  0  0
 31 58  1  0  0  0  0
 31 59  1  0  0  0  0
 31 79  1  0  0  0  0
 31 80  1  0  0  0  0
 31 81  1  0  0  0  0
 52 79  1  0  0  0  0
 52 97  1  0  0  0  0
 53103  1  0  0  0  0
 54 80  1  0  0  0  0
 54 99  1  0  0  0  0
 55 81  1  0  0  0  0
 58 79  1  0  0  0  0
 59 80  1  0  0  0  0
 59104  1  0  0  0  0
 65 66  1  0  0  0  0
 71 72  1  0  0  0  0
 77 78  1  0  0  0  0
 79 80  1  0  0  0  0
 79 81  1  0  0  0  0
 79 97  1  0  0  0  0
 79 98  1  0  0  0  0
 79103  1  0  0  0  0
 80 81  1  0  0  0  0
 80 99  1  0  0  0  0
 80100  1  0  0  0  0
 80104  1  0  0  0  0
 81103  1  0  0  0  0
 81104  1  0  0  0  0
M  END
$$$$
ETAHUC

From CSD data. Using bond type 'Any'. No disordered atoms. Largest molecule.
141198  0  0  0  0  0  0  0  0999 V2000
    1.5591   12.5481   15.3922 Er  0  0  0  0  0  0  0  0  0  0  0  0
    0.1123   12.8859   19.0462 Er  0  0  0  0  0  0  0  0  0  0  0  0
   -0.1521   11.2270   14.0068 Cl  0  5  0  0  0  0  0  0  0  0  0  0
   -1.7702   11.1448   19.2343 Cl  0  5  0  0  0  0  0  0  0  0  0  0
    1.0653   10.7616   17.4269 Cl  0  0  0  0  0  0  0  0  0  0  0  0
    2.2840   13.8575   17.7207 Cl  0  0  0  0  0  0  0  0  0  0  0  0
   -0.8344   13.3517   16.5325 Cl  0  0  0  0  0  0  0  0  0  0  0  0
    0.0172   13.7028   22.8657 P   0  0  0  0  0  0  0  0  0  0  0  0
    3.8122   13.8366   12.3957 P   0  0  0  0  0  0  0  0  0  0  0  0
    5.3491   14.5193   12.3527 N   0  0  0  0  0  0  0  0  0  0  0  0
    0.6634   14.9150   23.8011 N   0  0  0  0  0  0  0  0  0  0  0  0
    0.8008   11.0040   22.1111 B   0  0  0  0  0  0  0  0  0  0  0  0
   -0.2777   10.7839   22.0855 H   0  0  0  0  0  0  0  0  0  0  0  0
    1.6810   11.3092   23.6536 B   0  0  0  0  0  0  0  0  0  0  0  0
    1.1928   11.2743   24.6381 H   0  0  0  0  0  0  0  0  0  0  0  0
    2.9039   12.4865   23.2945 B   0  0  0  0  0  0  0  0  0  0  0  0
    3.2045   13.2291   24.0481 H   0  0  0  0  0  0  0  0  0  0  0  0
    2.8178   12.8989   21.5628 B   0  0  0  0  0  0  0  0  0  0  0  0
    3.0615   13.9020   21.1780 H   0  0  0  0  0  0  0  0  0  0  0  0
    1.9569   10.2377   20.9599 B   0  0  0  0  0  0  0  0  0  0  0  0
    1.6535    9.5049   20.1999 H   0  0  0  0  0  0  0  0  0  0  0  0
    2.0052    9.8198   22.7237 B   0  0  0  0  0  0  0  0  0  0  0  0
    1.7134    8.8250   23.0924 H   0  0  0  0  0  0  0  0  0  0  0  0
    3.3512   10.7881   23.4324 B   0  0  0  0  0  0  0  0  0  0  0  0
    3.9621   10.4022   24.2629 H   0  0  0  0  0  0  0  0  0  0  0  0
    4.0437   11.7940   22.1849 B   0  0  0  0  0  0  0  0  0  0  0  0
    5.1057   12.0810   22.2074 H   0  0  0  0  0  0  0  0  0  0  0  0
    3.1815   11.4318   20.6392 B   0  0  0  0  0  0  0  0  0  0  0  0
    3.6754   11.4708   19.6579 H   0  0  0  0  0  0  0  0  0  0  0  0
    3.5102   10.1235   21.8161 B   0  0  0  0  0  0  0  0  0  0  0  0
    4.2224    9.3112   21.6077 H   0  0  0  0  0  0  0  0  0  0  0  0
    0.2689   16.3695   12.2373 B   0  0  0  0  0  0  0  0  0  0  0  0
    2.6635   15.9265   14.4981 B   0  0  0  0  0  0  0  0  0  0  0  0
    3.4611   15.7440   15.2325 H   0  0  0  0  0  0  0  0  0  0  0  0
    1.9582   16.1452   11.7595 B   0  0  0  0  0  0  0  0  0  0  0  0
    2.2850   16.1215   10.7076 H   0  0  0  0  0  0  0  0  0  0  0  0
    1.0321   14.7951   12.5291 B   0  0  0  0  0  0  0  0  0  0  0  0
    0.7641   13.8825   11.9775 H   0  0  0  0  0  0  0  0  0  0  0  0
   -0.0206   15.4723   13.7189 B   0  0  0  0  0  0  0  0  0  0  0  0
   -0.9979   15.0181   13.9337 H   0  0  0  0  0  0  0  0  0  0  0  0
    0.9892   16.1898   14.9856 B   0  0  0  0  0  0  0  0  0  0  0  0
    0.6810   16.2149   16.0406 H   0  0  0  0  0  0  0  0  0  0  0  0
    1.9214   17.5273   14.2448 B   0  0  0  0  0  0  0  0  0  0  0  0
    2.2303   18.4148   14.8156 H   0  0  0  0  0  0  0  0  0  0  0  0
    1.4200   17.6513   12.5612 B   0  0  0  0  0  0  0  0  0  0  0  0
    1.3792   18.6169   12.0353 H   0  0  0  0  0  0  0  0  0  0  0  0
    2.9412   16.8432   13.0294 B   0  0  0  0  0  0  0  0  0  0  0  0
    3.9208   17.2877   12.8049 H   0  0  0  0  0  0  0  0  0  0  0  0
    0.2397   17.2250   13.7605 B   0  0  0  0  0  0  0  0  0  0  0  0
   -0.5710   17.9216   14.0203 H   0  0  0  0  0  0  0  0  0  0  0  0
    1.4244   12.5283   22.4735 C   0  0  0  0  0  0  0  0  0  0  0  0
    1.5637   11.9348   20.8861 C   0  0  0  0  0  0  0  0  0  0  0  0
   -0.0736   15.2842   25.0262 C   0  0  0  0  0  0  0  0  0  0  0  0
    0.3521   16.0951   25.3757 H   0  0  0  0  0  0  0  0  0  0  0  0
    0.0958   14.2211   26.0812 C   0  0  0  0  0  0  0  0  0  0  0  0
   -0.4051   13.4409   25.8311 H   0  0  0  0  0  0  0  0  0  0  0  0
   -0.2246   14.5513   26.9214 H   0  0  0  0  0  0  0  0  0  0  0  0
    1.0262   13.9926   26.1582 H   0  0  0  0  0  0  0  0  0  0  0  0
   -1.5218   15.6381   24.7440 C   0  0  0  0  0  0  0  0  0  0  0  0
   -1.5693   16.1926   23.9615 H   0  0  0  0  0  0  0  0  0  0  0  0
   -1.8881   16.1104   25.4944 H   0  0  0  0  0  0  0  0  0  0  0  0
   -2.0251   14.8328   24.5964 H   0  0  0  0  0  0  0  0  0  0  0  0
    1.6106   15.9070   23.3554 C   0  0  0  0  0  0  0  0  0  0  0  0
    2.0457   15.5377   22.5601 H   0  0  0  0  0  0  0  0  0  0  0  0
    2.7508   16.1773   24.3976 C   0  0  0  0  0  0  0  0  0  0  0  0
    2.3612   16.4016   25.2474 H   0  0  0  0  0  0  0  0  0  0  0  0
    3.2955   16.9073   24.0930 H   0  0  0  0  0  0  0  0  0  0  0  0
    3.2929   15.3901   24.4906 H   0  0  0  0  0  0  0  0  0  0  0  0
    1.0171   17.2682   22.9385 C   0  0  0  0  0  0  0  0  0  0  0  0
    0.3485   17.1316   22.2619 H   0  0  0  0  0  0  0  0  0  0  0  0
    1.7149   17.8283   22.5890 H   0  0  0  0  0  0  0  0  0  0  0  0
    0.6176   17.6917   23.7017 H   0  0  0  0  0  0  0  0  0  0  0  0
   -0.3320   14.3799   21.1940 C   0  0  0  0  0  0  0  0  0  0  0  0
    0.4010   15.1421   20.2800 C   0  0  0  0  0  0  0  0  0  0  0  0
    1.2946   15.3831   20.3666 H   0  0  0  0  0  0  0  0  0  0  0  0
   -0.4293   15.4806   19.2154 C   0  0  0  0  0  0  0  0  0  0  0  0
   -0.1617   15.9557   18.4618 H   0  0  0  0  0  0  0  0  0  0  0  0
   -2.9666   15.1239   18.7311 C   0  0  0  0  0  0  0  0  0  0  0  0
   -3.0093   15.5614   17.9102 H   0  0  0  0  0  0  0  0  0  0  0  0
   -4.0609   14.5959   19.2699 C   0  0  0  0  0  0  0  0  0  0  0  0
   -4.8738   14.7018   18.8306 H   0  0  0  0  0  0  0  0  0  0  0  0
   -4.0402   13.8825   20.4885 C   0  0  0  0  0  0  0  0  0  0  0  0
   -4.8271   13.5133   20.8220 H   0  0  0  0  0  0  0  0  0  0  0  0
   -2.8727   13.7279   21.1844 C   0  0  0  0  0  0  0  0  0  0  0  0
   -2.8641   13.2402   21.9765 H   0  0  0  0  0  0  0  0  0  0  0  0
   -1.6635   14.3200   20.6905 C   0  0  0  0  0  0  0  0  0  0  0  0
   -1.7092   15.0069   19.4398 C   0  0  0  0  0  0  0  0  0  0  0  0
    2.6440   15.1797   13.0069 C   0  0  0  0  0  0  0  0  0  0  0  0
    1.4561   14.7603   14.1838 C   0  0  0  0  0  0  0  0  0  0  0  0
    6.0928   14.3855   11.0989 C   0  0  0  0  0  0  0  0  0  0  0  0
    6.9956   14.7241   11.2752 H   0  0  0  0  0  0  0  0  0  0  0  0
    6.2531   12.9811   10.6371 C   0  0  0  0  0  0  0  0  0  0  0  0
    6.6362   12.4544   11.3426 H   0  0  0  0  0  0  0  0  0  0  0  0
    6.8305   12.9602    9.8706 H   0  0  0  0  0  0  0  0  0  0  0  0
    5.3949   12.6216   10.3998 H   0  0  0  0  0  0  0  0  0  0  0  0
    5.5104   15.2633   10.0182 C   0  0  0  0  0  0  0  0  0  0  0  0
    4.6883   14.8801    9.7007 H   0  0  0  0  0  0  0  0  0  0  0  0
    6.1328   15.3301    9.2902 H   0  0  0  0  0  0  0  0  0  0  0  0
    5.3383   16.1382   10.3741 H   0  0  0  0  0  0  0  0  0  0  0  0
    6.1559   14.9024   13.5361 C   0  0  0  0  0  0  0  0  0  0  0  0
    5.5297   15.0139   14.2800 H   0  0  0  0  0  0  0  0  0  0  0  0
    7.1612   13.8407   13.9658 C   0  0  0  0  0  0  0  0  0  0  0  0
    6.7130   12.9964   14.0620 H   0  0  0  0  0  0  0  0  0  0  0  0
    7.5517   14.0915   14.8060 H   0  0  0  0  0  0  0  0  0  0  0  0
    7.8493   13.7641   13.2988 H   0  0  0  0  0  0  0  0  0  0  0  0
    6.8263   16.2316   13.3308 C   0  0  0  0  0  0  0  0  0  0  0  0
    7.4131   16.1800   12.5708 H   0  0  0  0  0  0  0  0  0  0  0  0
    7.3340   16.4573   14.1133 H   0  0  0  0  0  0  0  0  0  0  0  0
    6.1603   16.9059   13.1769 H   0  0  0  0  0  0  0  0  0  0  0  0
    3.7189   12.6620   13.8215 C   0  0  0  0  0  0  0  0  0  0  0  0
    4.1261   12.6983   15.1331 C   0  0  0  0  0  0  0  0  0  0  0  0
    4.4798   13.4506   15.5500 H   0  0  0  0  0  0  0  0  0  0  0  0
    3.9398   11.4778   15.7520 C   0  0  0  0  0  0  0  0  0  0  0  0
    4.1151   11.2813   16.6435 H   0  0  0  0  0  0  0  0  0  0  0  0
    3.0609    9.2318   14.7931 C   0  0  0  0  0  0  0  0  0  0  0  0
    3.1010    8.7553   15.5884 H   0  0  0  0  0  0  0  0  0  0  0  0
    2.6453    8.6313   13.6643 C   0  0  0  0  0  0  0  0  0  0  0  0
    2.4196    7.7299   13.6868 H   0  0  0  0  0  0  0  0  0  0  0  0
    2.5423    9.3279   12.4554 C   0  0  0  0  0  0  0  0  0  0  0  0
    2.2454    8.8793   11.6953 H   0  0  0  0  0  0  0  0  0  0  0  0
    2.8746   10.6724   12.3559 C   0  0  0  0  0  0  0  0  0  0  0  0
    2.8245   11.1280   11.5478 H   0  0  0  0  0  0  0  0  0  0  0  0
    3.2988   11.3259   13.5585 C   0  0  0  0  0  0  0  0  0  0  0  0
    3.4278   10.5582   14.7579 C   0  0  0  0  0  0  0  0  0  0  0  0
   -1.3745   10.8508   16.5505 Li  0  0  0  0  0  0  0  0  0  0  0  0
   -3.3332   10.9260   16.1881 O   0  0  0  0  0  0  0  0  0  0  0  0
   -1.6783    8.8598   16.1881 O   0  0  0  0  0  0  0  0  0  0  0  0
   -4.2266   11.7912   16.8648 C   0  0  0  0  0  0  0  0  0  0  0  0
   -5.0557   11.8344   16.3837 H   0  0  0  0  0  0  0  0  0  0  0  0
   -3.8426   12.6690   16.9225 H   0  0  0  0  0  0  0  0  0  0  0  0
   -4.3868   11.4569   17.7498 H   0  0  0  0  0  0  0  0  0  0  0  0
   -2.8162    8.7971   15.4121 C   0  0  0  0  0  0  0  0  0  0  0  0
   -3.1361    7.8817   15.3575 H   0  0  0  0  0  0  0  0  0  0  0  0
   -2.6292    9.1120   14.5141 H   0  0  0  0  0  0  0  0  0  0  0  0
   -3.8475    9.6651   16.0598 C   0  0  0  0  0  0  0  0  0  0  0  0
   -4.6515    9.6874   15.5179 H   0  0  0  0  0  0  0  0  0  0  0  0
   -4.0790    9.3098   16.9353 H   0  0  0  0  0  0  0  0  0  0  0  0
   -0.6207    8.0531   15.6590 C   0  0  0  0  0  0  0  0  0  0  0  0
   -0.8746    7.1280   15.6911 H   0  0  0  0  0  0  0  0  0  0  0  0
    0.1748    8.1841   16.1817 H   0  0  0  0  0  0  0  0  0  0  0  0
   -0.4480    8.3067   14.7482 H   0  0  0  0  0  0  0  0  0  0  0  0
  1  3  1  0  0  0  0
  2  4  1  0  0  0  0
  3125  1  0  0  0  0
  4125  1  0  0  0  0
  5  1  1  0  0  0  0
  6  1  1  0  0  0  0
  7  1  1  0  0  0  0
  8 11  1  0  0  0  0
  9 10  1  0  0  0  0
 10 90  1  0  0  0  0
 11 53  1  0  0  0  0
 12 13  1  0  0  0  0
 14 12  1  0  0  0  0
 15 14  1  0  0  0  0
 16 14  1  0  0  0  0
 17 16  1  0  0  0  0
 18 16  1  0  0  0  0
 19 18  1  0  0  0  0
 20 12  1  0  0  0  0
 21 20  1  0  0  0  0
 22 12  1  0  0  0  0
 23 22  1  0  0  0  0
 24 14  1  0  0  0  0
 25 24  1  0  0  0  0
 26 16  1  0  0  0  0
 27 26  1  0  0  0  0
 28 18  1  0  0  0  0
 29 28  1  0  0  0  0
 30 20  1  0  0  0  0
 31 30  1  0  0  0  0
 32 35  1  0  0  0  0
 33 34  1  0  0  0  0
 35 36  1  0  0  0  0
 37 32  1  0  0  0  0
 38 37  1  0  0  0  0
 39 32  1  0  0  0  0
 40 39  1  0  0  0  0
 41 33  1  0  0  0  0
 42 41  1  0  0  0  0
 43 33  1  0  0  0  0
 44 43  1  0  0  0  0
 45 32  1  0  0  0  0
 46 45  1  0  0  0  0
 47 33  1  0  0  0  0
 48 47  1  0  0  0  0
 49 32  1  0  0  0  0
 50 49  1  0  0  0  0
 51  8  1  0  0  0  0
 52  2  1  0  0  0  0
 53 54  1  0  0  0  0
 55 53  1  0  0  0  0
 56 55  1  0  0  0  0
 57 55  1  0  0  0  0
 58 55  1  0  0  0  0
 59 53  1  0  0  0  0
 60 59  1  0  0  0  0
 61 59  1  0  0  0  0
 62 59  1  0  0  0  0
 63 11  1  0  0  0  0
 64 63  1  0  0  0  0
 65 63  1  0  0  0  0
 66 65  1  0  0  0  0
 67 65  1  0  0  0  0
 68 65  1  0  0  0  0
 69 63  1  0  0  0  0
 70 69  1  0  0  0  0
 71 69  1  0  0  0  0
 72 69  1  0  0  0  0
 73  2  8  0  0  0  0
 74  2  8  0  0  0  0
 75 74  1  0  0  0  0
 76  2  8  0  0  0  0
 77 76  1  0  0  0  0
 78 79  1  0  0  0  0
 80 78  2  0  0  0  0
 81 80  1  0  0  0  0
 82 80  1  0  0  0  0
 83 82  1  0  0  0  0
 84 82  2  0  0  0  0
 85 84  1  0  0  0  0
 86  2  8  0  0  0  0
 87  2  8  0  0  0  0
 88  9  1  0  0  0  0
 89  1  1  0  0  0  0
 90 91  1  0  0  0  0
 92 90  1  0  0  0  0
 93 92  1  0  0  0  0
 94 92  1  0  0  0  0
 95 92  1  0  0  0  0
 96 90  1  0  0  0  0
 97 96  1  0  0  0  0
 98 96  1  0  0  0  0
 99 96  1  0  0  0  0
100 10  1  0  0  0  0
101100  1  0  0  0  0
102100  1  0  0  0  0
103102  1  0  0  0  0
104102  1  0  0  0  0
105102  1  0  0  0  0
106100  1  0  0  0  0
107106  1  0  0  0  0
108106  1  0  0  0  0
109106  1  0  0  0  0
110  1  8  0  0  0  0
111  1  8  0  0  0  0
112111  1  0  0  0  0
113  1  8  0  0  0  0
114113  1  0  0  0  0
115116  1  0  0  0  0
117115  2  0  0  0  0
118117  1  0  0  0  0
119117  1  0  0  0  0
120119  1  0  0  0  0
121119  2  0  0  0  0
122121  1  0  0  0  0
123  1  8  0  0  0  0
124  1  8  0  0  0  0
125  5  1  0  0  0  0
126125  1  0  0  0  0
127125  1  0  0  0  0
128126  1  0  0  0  0
129128  1  0  0  0  0
130128  1  0  0  0  0
131128  1  0  0  0  0
132127  1  0  0  0  0
133132  1  0  0  0  0
134132  1  0  0  0  0
135126  1  0  0  0  0
136135  1  0  0  0  0
137135  1  0  0  0  0
138127  1  0  0  0  0
139138  1  0  0  0  0
140138  1  0  0  0  0
141138  1  0  0  0  0
  2  5  1  0  0  0  0
  2  6  1  0  0  0  0
  2  7  1  0  0  0  0
  7125  1  0  0  0  0
  8 73  1  0  0  0  0
  9110  1  0  0  0  0
 12 51  1  0  0  0  0
 12 52  1  0  0  0  0
 14 22  1  0  0  0  0
 14 51  1  0  0  0  0
 16 24  1  0  0  0  0
 16 51  1  0  0  0  0
 18 26  1  0  0  0  0
 18 51  1  0  0  0  0
 18 52  1  0  0  0  0
 20 22  1  0  0  0  0
 20 28  1  0  0  0  0
 20 52  1  0  0  0  0
 22 24  1  0  0  0  0
 22 30  1  0  0  0  0
 24 26  1  0  0  0  0
 24 30  1  0  0  0  0
 26 28  1  0  0  0  0
 26 30  1  0  0  0  0
 28 30  1  0  0  0  0
 28 52  1  0  0  0  0
 33 88  1  0  0  0  0
 33 89  1  0  0  0  0
 35 37  1  0  0  0  0
 35 45  1  0  0  0  0
 35 47  1  0  0  0  0
 35 88  1  0  0  0  0
 37 39  1  0  0  0  0
 37 88  1  0  0  0  0
 37 89  1  0  0  0  0
 39 41  1  0  0  0  0
 39 49  1  0  0  0  0
 39 89  1  0  0  0  0
 41 43  1  0  0  0  0
 41 49  1  0  0  0  0
 41 89  1  0  0  0  0
 43 45  1  0  0  0  0
 43 47  1  0  0  0  0
 43 49  1  0  0  0  0
 45 47  1  0  0  0  0
 45 49  1  0  0  0  0
 47 88  1  0  0  0  0
 51 52  1  0  0  0  0
 73 74  4  0  0  0  0
 73 86  4  0  0  0  0
 74 76  4  0  0  0  0
 76 87  4  0  0  0  0
 78 87  1  0  0  0  0
 84 86  1  0  0  0  0
 86 87  4  0  0  0  0
 88 89  1  0  0  0  0
110111  4  0  0  0  0
110123  4  0  0  0  0
111113  4  0  0  0  0
113124  4  0  0  0  0
115124  1  0  0  0  0
121123  1  0  0  0  0
123124  4  0  0  0  0
132135  1  0  0  0  0
M  CHG  2   3  -1   4  -1
M  END
$$$$
ETAJAK

From CSD data. Using bond type 'Any'. No disordered atoms. Largest molecule.
142199  0  0  0  0  0  0  0  0999 V2000
    5.4777    5.5653    0.6591 Y   0  0  0  0  0  0  0  0  0  0  0  0
    6.9237    5.9045   -3.0111 Y   0  0  0  0  0  0  0  0  0  0  0  0
    3.2166    6.8650    3.6468 P   0  0  0  0  0  0  0  0  0  0  0  0
    7.0144    6.7326   -6.8382 P   0  0  0  0  0  0  0  0  0  0  0  0
    4.7452    6.8763   -1.6777 Cl  0  0  0  0  0  0  0  0  0  0  0  0
    5.9704    3.7702   -1.3751 Cl  0  0  0  0  0  0  0  0  0  0  0  0
    7.8882    6.3683   -0.4884 Cl  0  0  0  0  0  0  0  0  0  0  0  0
    7.2069    4.2422    2.0589 Cl  0  5  0  0  0  0  0  0  0  0  0  0
    8.8138    4.1488   -3.1927 Cl  0  5  0  0  0  0  0  0  0  0  0  0
    1.6572    7.5381    3.6712 N   0  0  0  0  0  0  0  0  0  0  0  0
    6.3840    7.9744   -7.7723 N   0  0  0  0  0  0  0  0  0  0  0  0
    8.4271    3.8868   -0.5006 Li  0  0  0  0  0  0  0  0  0  0  0  0
    4.3983    8.2252    3.0486 C   0  0  0  0  0  0  0  0  0  0  0  0
    5.5560    7.8127    1.8645 C   0  0  0  0  0  0  0  0  0  0  0  0
    0.8646    7.9632    2.4966 C   0  0  0  0  0  0  0  0  0  0  0  0
    1.4907    8.0621    1.7489 H   0  0  0  0  0  0  0  0  0  0  0  0
   -0.1530    6.8622    2.0891 C   0  0  0  0  0  0  0  0  0  0  0  0
    0.3054    6.0261    1.9832 H   0  0  0  0  0  0  0  0  0  0  0  0
   -0.5738    7.1061    1.2612 H   0  0  0  0  0  0  0  0  0  0  0  0
   -0.8223    6.7758    2.7726 H   0  0  0  0  0  0  0  0  0  0  0  0
    0.1988    9.3039    2.6956 C   0  0  0  0  0  0  0  0  0  0  0  0
    0.8555    9.9491    2.9684 H   0  0  0  0  0  0  0  0  0  0  0  0
   -0.4776    9.2286    3.3727 H   0  0  0  0  0  0  0  0  0  0  0  0
   -0.2033    9.5854    1.8709 H   0  0  0  0  0  0  0  0  0  0  0  0
    0.9237    7.4253    4.9323 C   0  0  0  0  0  0  0  0  0  0  0  0
    0.0129    7.7472    4.7687 H   0  0  0  0  0  0  0  0  0  0  0  0
    1.5206    8.2907    6.0491 C   0  0  0  0  0  0  0  0  0  0  0  0
    1.5589    9.2063    5.7571 H   0  0  0  0  0  0  0  0  0  0  0  0
    2.4066    7.9841    6.2545 H   0  0  0  0  0  0  0  0  0  0  0  0
    0.9704    8.2266    6.8321 H   0  0  0  0  0  0  0  0  0  0  0  0
    0.8190    6.0024    5.3976 C   0  0  0  0  0  0  0  0  0  0  0  0
    0.4292    5.4658    4.7045 H   0  0  0  0  0  0  0  0  0  0  0  0
    0.2623    5.9619    6.1807 H   0  0  0  0  0  0  0  0  0  0  0  0
    1.6927    5.6679    5.6094 H   0  0  0  0  0  0  0  0  0  0  0  0
    3.3039    5.7069    2.2688 C   0  0  0  0  0  0  0  0  0  0  0  0
    2.9001    5.7125    0.9082 C   0  0  0  0  0  0  0  0  0  0  0  0
    2.3684    6.4358    0.5167 H   0  0  0  0  0  0  0  0  0  0  0  0
    3.0790    4.4945    0.2920 C   0  0  0  0  0  0  0  0  0  0  0  0
    2.6967    4.2269   -0.5712 H   0  0  0  0  0  0  0  0  0  0  0  0
    3.9563    2.2465    1.2708 C   0  0  0  0  0  0  0  0  0  0  0  0
    3.9178    1.7769    0.4685 H   0  0  0  0  0  0  0  0  0  0  0  0
    4.3534    1.6305    2.3747 C   0  0  0  0  0  0  0  0  0  0  0  0
    4.5573    0.7233    2.3426 H   0  0  0  0  0  0  0  0  0  0  0  0
    4.4702    2.3343    3.6070 C   0  0  0  0  0  0  0  0  0  0  0  0
    4.7572    1.8856    4.3707 H   0  0  0  0  0  0  0  0  0  0  0  0
    4.1502    3.7238    3.6840 C   0  0  0  0  0  0  0  0  0  0  0  0
    4.2239    4.1906    4.4831 H   0  0  0  0  0  0  0  0  0  0  0  0
    3.7249    4.3579    2.5159 C   0  0  0  0  0  0  0  0  0  0  0  0
    3.6001    3.6025    1.2997 C   0  0  0  0  0  0  0  0  0  0  0  0
    5.5903    5.5550   -6.4566 C   0  0  0  0  0  0  0  0  0  0  0  0
    5.4783    4.9502   -4.8649 C   0  0  0  0  0  0  0  0  0  0  0  0
    5.4043    8.9708   -7.3199 C   0  0  0  0  0  0  0  0  0  0  0  0
    4.9676    8.6057   -6.5240 H   0  0  0  0  0  0  0  0  0  0  0  0
    4.2947    9.2453   -8.3660 C   0  0  0  0  0  0  0  0  0  0  0  0
    3.8504    8.4217   -8.5874 H   0  0  0  0  0  0  0  0  0  0  0  0
    4.6854    9.6174   -9.1587 H   0  0  0  0  0  0  0  0  0  0  0  0
    3.6575    9.8641   -8.0034 H   0  0  0  0  0  0  0  0  0  0  0  0
    6.0251   10.2864   -6.9219 C   0  0  0  0  0  0  0  0  0  0  0  0
    6.6905   10.1345   -6.2448 H   0  0  0  0  0  0  0  0  0  0  0  0
    5.3471   10.8703   -6.5786 H   0  0  0  0  0  0  0  0  0  0  0  0
    6.4357   10.6905   -7.6889 H   0  0  0  0  0  0  0  0  0  0  0  0
    7.1061    8.3590   -8.9757 C   0  0  0  0  0  0  0  0  0  0  0  0
    6.6669    9.1561   -9.3384 H   0  0  0  0  0  0  0  0  0  0  0  0
    6.9748    7.2176  -10.0540 C   0  0  0  0  0  0  0  0  0  0  0  0
    6.0454    7.0518  -10.2305 H   0  0  0  0  0  0  0  0  0  0  0  0
    7.3871    6.4163   -9.7235 H   0  0  0  0  0  0  0  0  0  0  0  0
    7.4124    7.4922  -10.8627 H   0  0  0  0  0  0  0  0  0  0  0  0
    8.4932    8.7144   -8.6901 C   0  0  0  0  0  0  0  0  0  0  0  0
    8.5159    9.4126   -8.0323 H   0  0  0  0  0  0  0  0  0  0  0  0
    8.9171    9.0196   -9.4956 H   0  0  0  0  0  0  0  0  0  0  0  0
    8.9586    7.9437   -8.3564 H   0  0  0  0  0  0  0  0  0  0  0  0
    7.3499    7.3946   -5.1923 C   0  0  0  0  0  0  0  0  0  0  0  0
    6.6467    8.1625   -4.2905 C   0  0  0  0  0  0  0  0  0  0  0  0
    5.7836    8.5806   -4.4831 H   0  0  0  0  0  0  0  0  0  0  0  0
    7.4688    8.5109   -3.1866 C   0  0  0  0  0  0  0  0  0  0  0  0
    7.2360    9.1757   -2.5063 H   0  0  0  0  0  0  0  0  0  0  0  0
    9.9469    8.1597   -2.7052 C   0  0  0  0  0  0  0  0  0  0  0  0
    9.9537    8.6154   -1.8966 H   0  0  0  0  0  0  0  0  0  0  0  0
   11.0542    7.6371   -3.1866 C   0  0  0  0  0  0  0  0  0  0  0  0
   11.8460    7.7319   -2.7084 H   0  0  0  0  0  0  0  0  0  0  0  0
   11.0638    6.9403   -4.4060 C   0  0  0  0  0  0  0  0  0  0  0  0
   11.8638    6.5849   -4.7173 H   0  0  0  0  0  0  0  0  0  0  0  0
    9.9167    6.7689   -5.1538 C   0  0  0  0  0  0  0  0  0  0  0  0
    9.9364    6.2978   -5.9560 H   0  0  0  0  0  0  0  0  0  0  0  0
    8.7144    7.3235   -4.6724 C   0  0  0  0  0  0  0  0  0  0  0  0
    8.7728    8.0245   -3.4209 C   0  0  0  0  0  0  0  0  0  0  0  0
    4.3648    8.9806    1.5532 B   0  0  0  0  0  0  0  0  0  0  0  0
    3.5640    8.8050    0.8183 H   0  0  0  0  0  0  0  0  0  0  0  0
    4.0808    9.8767    3.0133 B   0  0  0  0  0  0  0  0  0  0  0  0
    3.0977   10.3212    3.2315 H   0  0  0  0  0  0  0  0  0  0  0  0
    5.0733    9.1952    4.2648 B   0  0  0  0  0  0  0  0  0  0  0  0
    4.7511    9.1715    5.3174 H   0  0  0  0  0  0  0  0  0  0  0  0
    5.9959    7.8656    3.4947 B   0  0  0  0  0  0  0  0  0  0  0  0
    6.2779    6.9528    4.0402 H   0  0  0  0  0  0  0  0  0  0  0  0
    7.0246    8.5443    2.3266 B   0  0  0  0  0  0  0  0  0  0  0  0
    8.0091    8.1026    2.1116 H   0  0  0  0  0  0  0  0  0  0  0  0
    5.9993    9.2384    1.0590 B   0  0  0  0  0  0  0  0  0  0  0  0
    6.2949    9.2579    0.0000 H   0  0  0  0  0  0  0  0  0  0  0  0
    5.1060   10.5303    1.7778 B   0  0  0  0  0  0  0  0  0  0  0  0
    4.8101   11.4069    1.1809 H   0  0  0  0  0  0  0  0  0  0  0  0
    5.5729   10.6459    3.5043 B   0  0  0  0  0  0  0  0  0  0  0  0
    5.5938   11.5950    4.0595 H   0  0  0  0  0  0  0  0  0  0  0  0
    6.7429    9.4279    3.7867 B   0  0  0  0  0  0  0  0  0  0  0  0
    7.5384    9.5659    4.5344 H   0  0  0  0  0  0  0  0  0  0  0  0
    6.7518   10.2794    2.2849 B   0  0  0  0  0  0  0  0  0  0  0  0
    7.5476   10.9943    2.0281 H   0  0  0  0  0  0  0  0  0  0  0  0
    6.2201    4.0262   -6.0876 B   0  0  0  0  0  0  0  0  0  0  0  0
    7.2976    3.8074   -6.0555 H   0  0  0  0  0  0  0  0  0  0  0  0
    5.3628    4.3133   -7.6215 B   0  0  0  0  0  0  0  0  0  0  0  0
    5.8690    4.2534   -8.5939 H   0  0  0  0  0  0  0  0  0  0  0  0
    4.1353    5.5271   -7.2717 B   0  0  0  0  0  0  0  0  0  0  0  0
    3.8410    6.2755   -8.0227 H   0  0  0  0  0  0  0  0  0  0  0  0
    4.2225    5.9271   -5.5356 B   0  0  0  0  0  0  0  0  0  0  0  0
    3.9949    6.9291   -5.1441 H   0  0  0  0  0  0  0  0  0  0  0  0
    5.0720    3.2653   -4.9997 B   0  0  0  0  0  0  0  0  0  0  0  0
    5.3858    2.5155   -4.2584 H   0  0  0  0  0  0  0  0  0  0  0  0
    4.9902    2.8848   -6.6941 B   0  0  0  0  0  0  0  0  0  0  0  0
    5.2615    1.8870   -7.0696 H   0  0  0  0  0  0  0  0  0  0  0  0
    3.6945    3.8102   -7.4065 B   0  0  0  0  0  0  0  0  0  0  0  0
    3.0947    3.4269   -8.2441 H   0  0  0  0  0  0  0  0  0  0  0  0
    2.9847    4.7983   -6.1454 B   0  0  0  0  0  0  0  0  0  0  0  0
    1.9192    5.0714   -6.1646 H   0  0  0  0  0  0  0  0  0  0  0  0
    3.8230    4.4610   -4.6499 B   0  0  0  0  0  0  0  0  0  0  0  0
    3.3082    4.5070   -3.6776 H   0  0  0  0  0  0  0  0  0  0  0  0
    3.5111    3.1552   -5.7956 B   0  0  0  0  0  0  0  0  0  0  0  0
    2.7999    2.3441   -5.5773 H   0  0  0  0  0  0  0  0  0  0  0  0
   10.3929    3.9356   -0.1252 O   0  0  0  0  0  0  0  0  0  0  0  0
    8.7021    1.8786   -0.1091 O   0  0  0  0  0  0  0  0  0  0  0  0
   11.2571    4.7676   -0.8119 C   0  0  0  0  0  0  0  0  0  0  0  0
   12.1550    4.6157   -0.5102 H   0  0  0  0  0  0  0  0  0  0  0  0
   11.0145    5.6832   -0.6514 H   0  0  0  0  0  0  0  0  0  0  0  0
   11.1991    4.5823   -1.7521 H   0  0  0  0  0  0  0  0  0  0  0  0
   10.9201    2.6841    0.0000 C   0  0  0  0  0  0  0  0  0  0  0  0
   11.7286    2.7162    0.5359 H   0  0  0  0  0  0  0  0  0  0  0  0
   11.1441    2.3274   -0.8729 H   0  0  0  0  0  0  0  0  0  0  0  0
    9.9269    1.8298    0.6482 C   0  0  0  0  0  0  0  0  0  0  0  0
   10.2529    0.9184    0.6932 H   0  0  0  0  0  0  0  0  0  0  0  0
    9.7658    2.1392    1.5564 H   0  0  0  0  0  0  0  0  0  0  0  0
    7.6083    1.0550    0.3883 C   0  0  0  0  0  0  0  0  0  0  0  0
    7.9086    0.1477    0.4878 H   0  0  0  0  0  0  0  0  0  0  0  0
    6.8783    1.0829   -0.2343 H   0  0  0  0  0  0  0  0  0  0  0  0
    7.3163    1.3894    1.2387 H   0  0  0  0  0  0  0  0  0  0  0  0
  1  5  1  0  0  0  0
  2  5  1  0  0  0  0
  3 10  1  0  0  0  0
  4 11  1  0  0  0  0
  6  1  1  0  0  0  0
  7  1  1  0  0  0  0
  8  1  1  0  0  0  0
  9  2  1  0  0  0  0
 10 15  1  0  0  0  0
 11 52  1  0  0  0  0
 12  6  1  0  0  0  0
 13  3  1  0  0  0  0
 14  1  1  0  0  0  0
 15 16  1  0  0  0  0
 17 15  1  0  0  0  0
 18 17  1  0  0  0  0
 19 17  1  0  0  0  0
 20 17  1  0  0  0  0
 21 15  1  0  0  0  0
 22 21  1  0  0  0  0
 23 21  1  0  0  0  0
 24 21  1  0  0  0  0
 25 10  1  0  0  0  0
 26 25  1  0  0  0  0
 27 25  1  0  0  0  0
 28 27  1  0  0  0  0
 29 27  1  0  0  0  0
 30 27  1  0  0  0  0
 31 25  1  0  0  0  0
 32 31  1  0  0  0  0
 33 31  1  0  0  0  0
 34 31  1  0  0  0  0
 35  1  8  0  0  0  0
 36  1  8  0  0  0  0
 37 36  1  0  0  0  0
 38  1  8  0  0  0  0
 39 38  1  0  0  0  0
 40 41  1  0  0  0  0
 42 40  2  0  0  0  0
 43 42  1  0  0  0  0
 44 42  1  0  0  0  0
 45 44  1  0  0  0  0
 46 44  2  0  0  0  0
 47 46  1  0  0  0  0
 48  1  8  0  0  0  0
 49  1  8  0  0  0  0
 50  4  1  0  0  0  0
 51  2  1  0  0  0  0
 52 53  1  0  0  0  0
 54 52  1  0  0  0  0
 55 54  1  0  0  0  0
 56 54  1  0  0  0  0
 57 54  1  0  0  0  0
 58 52  1  0  0  0  0
 59 58  1  0  0  0  0
 60 58  1  0  0  0  0
 61 58  1  0  0  0  0
 62 11  1  0  0  0  0
 63 62  1  0  0  0  0
 64 62  1  0  0  0  0
 65 64  1  0  0  0  0
 66 64  1  0  0  0  0
 67 64  1  0  0  0  0
 68 62  1  0  0  0  0
 69 68  1  0  0  0  0
 70 68  1  0  0  0  0
 71 68  1  0  0  0  0
 72  2  8  0  0  0  0
 73  2  8  0  0  0  0
 74 73  1  0  0  0  0
 75  2  8  0  0  0  0
 76 75  1  0  0  0  0
 77 78  1  0  0  0  0
 79 77  2  0  0  0  0
 80 79  1  0  0  0  0
 81 79  1  0  0  0  0
 82 81  1  0  0  0  0
 83 81  2  0  0  0  0
 84 83  1  0  0  0  0
 85  2  8  0  0  0  0
 86  2  8  0  0  0  0
 87 13  1  0  0  0  0
 88 87  1  0  0  0  0
 89 13  1  0  0  0  0
 90 89  1  0  0  0  0
 91 13  1  0  0  0  0
 92 91  1  0  0  0  0
 93 13  1  0  0  0  0
 94 93  1  0  0  0  0
 95 14  1  0  0  0  0
 96 95  1  0  0  0  0
 97 14  1  0  0  0  0
 98 97  1  0  0  0  0
 99 87  1  0  0  0  0
100 99  1  0  0  0  0
101 89  1  0  0  0  0
102101  1  0  0  0  0
103 91  1  0  0  0  0
104103  1  0  0  0  0
105 95  1  0  0  0  0
106105  1  0  0  0  0
107 50  1  0  0  0  0
108107  1  0  0  0  0
109 50  1  0  0  0  0
110109  1  0  0  0  0
111 50  1  0  0  0  0
112111  1  0  0  0  0
113 50  1  0  0  0  0
114113  1  0  0  0  0
115 51  1  0  0  0  0
116115  1  0  0  0  0
117107  1  0  0  0  0
118117  1  0  0  0  0
119109  1  0  0  0  0
120119  1  0  0  0  0
121111  1  0  0  0  0
122121  1  0  0  0  0
123 51  1  0  0  0  0
124123  1  0  0  0  0
125115  1  0  0  0  0
126125  1  0  0  0  0
127 12  1  0  0  0  0
128 12  1  0  0  0  0
129127  1  0  0  0  0
130129  1  0  0  0  0
131129  1  0  0  0  0
132129  1  0  0  0  0
133127  1  0  0  0  0
134133  1  0  0  0  0
135133  1  0  0  0  0
136128  1  0  0  0  0
137136  1  0  0  0  0
138136  1  0  0  0  0
139128  1  0  0  0  0
140139  1  0  0  0  0
141139  1  0  0  0  0
142139  1  0  0  0  0
  2  6  1  0  0  0  0
  2  7  1  0  0  0  0
  3 35  1  0  0  0  0
  4 72  1  0  0  0  0
  7 12  1  0  0  0  0
  8 12  1  0  0  0  0
  9 12  1  0  0  0  0
 13 14  1  0  0  0  0
 14 87  1  0  0  0  0
 14 93  1  0  0  0  0
 35 36  4  0  0  0  0
 35 48  4  0  0  0  0
 36 38  4  0  0  0  0
 38 49  4  0  0  0  0
 40 49  1  0  0  0  0
 46 48  1  0  0  0  0
 48 49  4  0  0  0  0
 50 51  1  0  0  0  0
 51107  1  0  0  0  0
 51113  1  0  0  0  0
 72 73  4  0  0  0  0
 72 85  4  0  0  0  0
 73 75  4  0  0  0  0
 75 86  4  0  0  0  0
 77 86  1  0  0  0  0
 83 85  1  0  0  0  0
 85 86  4  0  0  0  0
 87 89  1  0  0  0  0
 87 97  1  0  0  0  0
 89 91  1  0  0  0  0
 89 99  1  0  0  0  0
 91 93  1  0  0  0  0
 91101  1  0  0  0  0
 93 95  1  0  0  0  0
 93103  1  0  0  0  0
 95 97  1  0  0  0  0
 95103  1  0  0  0  0
 97 99  1  0  0  0  0
 97105  1  0  0  0  0
 99101  1  0  0  0  0
 99105  1  0  0  0  0
101103  1  0  0  0  0
101105  1  0  0  0  0
103105  1  0  0  0  0
107109  1  0  0  0  0
107115  1  0  0  0  0
109111  1  0  0  0  0
109117  1  0  0  0  0
111113  1  0  0  0  0
111119  1  0  0  0  0
113121  1  0  0  0  0
113123  1  0  0  0  0
115117  1  0  0  0  0
115123  1  0  0  0  0
117119  1  0  0  0  0
117125  1  0  0  0  0
119121  1  0  0  0  0
119125  1  0  0  0  0
121123  1  0  0  0  0
121125  1  0  0  0  0
123125  1  0  0  0  0
133136  1  0  0  0  0
M  CHG  2   8  -1   9  -1
M  END
$$$$
EXPTBR10

From CSD data. Using bond type 'Any'. No disordered atoms. Largest molecule.
 82 99  0  0  0  0  0  0  0  0999 V2000
    3.1948   12.9233    4.8334 Pt  0  0  0  0  0  0  0  0  0  0  0  0
    2.9707   11.7433    2.8354 P   0  0  0  0  0  0  0  0  0  0  0  0
    1.0932   12.4879    5.7076 P   0  0  0  0  0  0  0  0  0  0  0  0
    3.6439   12.6372    1.4028 C   0  0  0  0  0  0  0  0  0  0  0  0
    3.2564   13.9308    1.1931 C   0  0  0  0  0  0  0  0  0  0  0  0
    3.8044   14.7049    0.0881 C   0  0  0  0  0  0  0  0  0  0  0  0
    4.6846   14.1370   -0.7127 C   0  0  0  0  0  0  0  0  0  0  0  0
    5.0627   12.7992   -0.5370 C   0  0  0  0  0  0  0  0  0  0  0  0
    4.5078   12.0756    0.5172 C   0  0  0  0  0  0  0  0  0  0  0  0
    3.8540   10.1573    2.8737 C   0  0  0  0  0  0  0  0  0  0  0  0
    4.7591    9.9112    3.9350 C   0  0  0  0  0  0  0  0  0  0  0  0
    5.4921    8.6912    3.9888 C   0  0  0  0  0  0  0  0  0  0  0  0
    5.2386    7.7721    2.9587 C   0  0  0  0  0  0  0  0  0  0  0  0
    4.3771    8.0455    1.9625 C   0  0  0  0  0  0  0  0  0  0  0  0
    3.6618    9.1919    1.9073 C   0  0  0  0  0  0  0  0  0  0  0  0
    1.3185   11.2553    2.2360 C   0  0  0  0  0  0  0  0  0  0  0  0
    0.7180   10.0627    2.6639 C   0  0  0  0  0  0  0  0  0  0  0  0
   -0.5992    9.7240    2.3225 C   0  0  0  0  0  0  0  0  0  0  0  0
   -1.3230   10.6138    1.5204 C   0  0  0  0  0  0  0  0  0  0  0  0
   -0.7400   11.7959    1.1166 C   0  0  0  0  0  0  0  0  0  0  0  0
    0.5671   12.1198    1.4496 C   0  0  0  0  0  0  0  0  0  0  0  0
    0.7568   13.0453    7.4137 C   0  0  0  0  0  0  0  0  0  0  0  0
    0.2970   14.3662    7.5738 C   0  0  0  0  0  0  0  0  0  0  0  0
    0.0693   14.8269    8.8505 C   0  0  0  0  0  0  0  0  0  0  0  0
    0.2425   14.0213    9.9969 C   0  0  0  0  0  0  0  0  0  0  0  0
    0.6367   12.7235    9.7574 C   0  0  0  0  0  0  0  0  0  0  0  0
    0.8914   12.2376    8.4850 C   0  0  0  0  0  0  0  0  0  0  0  0
    0.8316   10.7189    5.8238 C   0  0  0  0  0  0  0  0  0  0  0  0
    1.9285    9.9280    6.0973 C   0  0  0  0  0  0  0  0  0  0  0  0
    1.8448    8.5756    6.1937 C   0  0  0  0  0  0  0  0  0  0  0  0
    0.6408    7.9319    5.9627 C   0  0  0  0  0  0  0  0  0  0  0  0
   -0.4755    8.6997    5.6864 C   0  0  0  0  0  0  0  0  0  0  0  0
   -0.3773   10.0837    5.6368 C   0  0  0  0  0  0  0  0  0  0  0  0
   -0.2397   13.2619    4.7951 C   0  0  0  0  0  0  0  0  0  0  0  0
   -1.6142   13.1378    5.1961 C   0  0  0  0  0  0  0  0  0  0  0  0
   -2.5808   13.8025    4.5273 C   0  0  0  0  0  0  0  0  0  0  0  0
   -2.2343   14.6775    3.4915 C   0  0  0  0  0  0  0  0  0  0  0  0
   -0.9670   14.8353    3.1273 C   0  0  0  0  0  0  0  0  0  0  0  0
    0.0493   14.1496    3.7947 C   0  0  0  0  0  0  0  0  0  0  0  0
    3.9614   16.6631    4.4139 S   0  0  0  0  0  0  0  0  0  0  0  0
    5.2592   15.0141    6.6471 B   0  0  0  0  0  0  0  0  0  0  0  0
    5.4993   16.2698    5.4838 B   0  0  0  0  0  0  0  0  0  0  0  0
    6.1316   14.6670    5.1607 B   0  0  0  0  0  0  0  0  0  0  0  0
    5.0604   13.4386    5.8876 B   0  0  0  0  0  0  0  0  0  0  0  0
    3.7712   16.0279    6.2773 B   0  0  0  0  0  0  0  0  0  0  0  0
    5.2923   15.4116    3.6884 B   0  0  0  0  0  0  0  0  0  0  0  0
    5.1252   13.6048    4.1277 B   0  0  0  0  0  0  0  0  0  0  0  0
    3.6077   14.2106    6.6145 B   0  0  0  0  0  0  0  0  0  0  0  0
    5.9457   12.6898    3.3087 O   0  0  0  0  0  0  0  0  0  0  0  0
    7.2648   12.9359    2.7206 C   0  0  0  0  0  0  0  0  0  0  0  0
    8.0326   11.6465    2.3593 C   0  0  0  0  0  0  0  0  0  0  0  0
    2.5728   14.3212    1.7620 H   0  0  0  0  0  0  0  0  0  0  0  0
    3.5714   15.6405   -0.0449 H   0  0  0  0  0  0  0  0  0  0  0  0
    5.0409   14.6308   -1.4494 H   0  0  0  0  0  0  0  0  0  0  0  0
    5.7217   12.3974   -1.1458 H   0  0  0  0  0  0  0  0  0  0  0  0
    4.7705   11.1038    0.6663 H   0  0  0  0  0  0  0  0  0  0  0  0
    4.8372   10.5753    4.6503 H   0  0  0  0  0  0  0  0  0  0  0  0
    6.1583    8.5249    4.6951 H   0  0  0  0  0  0  0  0  0  0  0  0
    5.6728    6.9469    3.0410 H   0  0  0  0  0  0  0  0  0  0  0  0
    4.2958    7.3541    1.2846 H   0  0  0  0  0  0  0  0  0  0  0  0
    3.0438    9.3555    1.1449 H   0  0  0  0  0  0  0  0  0  0  0  0
    1.2446    9.4865    3.3071 H   0  0  0  0  0  0  0  0  0  0  0  0
   -0.9651    8.8660    2.5830 H   0  0  0  0  0  0  0  0  0  0  0  0
   -2.2021   10.3895    1.2797 H   0  0  0  0  0  0  0  0  0  0  0  0
   -1.2921   12.3863    0.5822 H   0  0  0  0  0  0  0  0  0  0  0  0
    0.9245   12.9790    1.1250 H   0  0  0  0  0  0  0  0  0  0  0  0
    0.1398   14.9407    6.7864 H   0  0  0  0  0  0  0  0  0  0  0  0
   -0.1872   15.7723    8.9808 H   0  0  0  0  0  0  0  0  0  0  0  0
    0.0519   14.3971   10.8250 H   0  0  0  0  0  0  0  0  0  0  0  0
    0.7584   12.1555   10.5638 H   0  0  0  0  0  0  0  0  0  0  0  0
    1.1483   11.3222    8.3347 H   0  0  0  0  0  0  0  0  0  0  0  0
    2.7875   10.3574    6.2027 H   0  0  0  0  0  0  0  0  0  0  0  0
    2.6251    8.0495    6.3895 H   0  0  0  0  0  0  0  0  0  0  0  0
   -1.3081    8.2371    5.5448 H   0  0  0  0  0  0  0  0  0  0  0  0
   -1.1512   10.6034    5.4733 H   0  0  0  0  0  0  0  0  0  0  0  0
   -1.8331   12.5924    5.9483 H   0  0  0  0  0  0  0  0  0  0  0  0
   -3.5837   13.6814    4.6919 H   0  0  0  0  0  0  0  0  0  0  0  0
   -2.8620   15.1689    3.0013 H   0  0  0  0  0  0  0  0  0  0  0  0
   -0.7691   15.5117    2.3835 H   0  0  0  0  0  0  0  0  0  0  0  0
    1.0061   14.3117    3.5277 H   0  0  0  0  0  0  0  0  0  0  0  0
    7.9723   13.2863    3.1898 H   0  0  0  0  0  0  0  0  0  0  0  0
    7.2842   13.3389    1.8003 H   0  0  0  0  0  0  0  0  0  0  0  0
  1  2  1  0  0  0  0
  2  4  1  0  0  0  0
  3  1  1  0  0  0  0
  4  5  4  0  0  0  0
  5  6  4  0  0  0  0
  6  7  4  0  0  0  0
  7  8  4  0  0  0  0
  8  9  4  0  0  0  0
  9  4  4  0  0  0  0
 10  2  1  0  0  0  0
 11 10  4  0  0  0  0
 12 11  4  0  0  0  0
 13 12  4  0  0  0  0
 14 13  4  0  0  0  0
 15 10  4  0  0  0  0
 16  2  1  0  0  0  0
 17 16  4  0  0  0  0
 18 17  4  0  0  0  0
 19 18  4  0  0  0  0
 20 19  4  0  0  0  0
 21 16  4  0  0  0  0
 22  3  1  0  0  0  0
 23 22  4  0  0  0  0
 24 23  4  0  0  0  0
 25 24  4  0  0  0  0
 26 25  4  0  0  0  0
 27 22  4  0  0  0  0
 28  3  1  0  0  0  0
 29 28  4  0  0  0  0
 30 29  4  0  0  0  0
 31 30  4  0  0  0  0
 32 31  4  0  0  0  0
 33 28  4  0  0  0  0
 34  3  1  0  0  0  0
 35 34  4  0  0  0  0
 36 35  4  0  0  0  0
 37 36  4  0  0  0  0
 38 37  4  0  0  0  0
 39 34  4  0  0  0  0
 40 42  1  0  0  0  0
 41 42  1  0  0  0  0
 42 43  1  0  0  0  0
 43 41  1  0  0  0  0
 44  1  1  0  0  0  0
 45 40  1  0  0  0  0
 46 40  1  0  0  0  0
 47  1  1  0  0  0  0
 48  1  1  0  0  0  0
 49 47  1  0  0  0  0
 50 49  1  0  0  0  0
 51 50  1  0  0  0  0
 52  5  1  0  0  0  0
 53  6  1  0  0  0  0
 54  7  1  0  0  0  0
 55  8  1  0  0  0  0
 56  9  1  0  0  0  0
 57 11  1  0  0  0  0
 58 12  1  0  0  0  0
 59 13  1  0  0  0  0
 60 14  1  0  0  0  0
 61 15  1  0  0  0  0
 62 17  1  0  0  0  0
 63 18  1  0  0  0  0
 64 19  1  0  0  0  0
 65 20  1  0  0  0  0
 66 21  1  0  0  0  0
 67 23  1  0  0  0  0
 68 24  1  0  0  0  0
 69 25  1  0  0  0  0
 70 26  1  0  0  0  0
 71 27  1  0  0  0  0
 72 29  1  0  0  0  0
 73 30  1  0  0  0  0
 74 32  1  0  0  0  0
 75 33  1  0  0  0  0
 76 35  1  0  0  0  0
 77 36  1  0  0  0  0
 78 37  1  0  0  0  0
 79 38  1  0  0  0  0
 80 39  1  0  0  0  0
 81 50  1  0  0  0  0
 82 50  1  0  0  0  0
 14 15  4  0  0  0  0
 20 21  4  0  0  0  0
 26 27  4  0  0  0  0
 32 33  4  0  0  0  0
 38 39  4  0  0  0  0
 41 44  1  0  0  0  0
 41 45  1  0  0  0  0
 41 48  1  0  0  0  0
 42 45  1  0  0  0  0
 42 46  1  0  0  0  0
 43 44  1  0  0  0  0
 43 46  1  0  0  0  0
 43 47  1  0  0  0  0
 44 47  1  0  0  0  0
 44 48  1  0  0  0  0
 45 48  1  0  0  0  0
 46 47  1  0  0  0  0
M  END
$$$$
EYIYAP

From CSD data. Using bond type 'Any'. Matching problem. Disorder unknown. Sizes unknown.
  0  0  0  0  0  0  0  0  0  0999 V2000
M  END
$$$$
FACLIE

From CSD data. Using bond type 'Any'. No disordered atoms. Largest molecule.
100123  0  0  0  0  0  0  0  0999 V2000
    6.7313    7.6561   12.6063 Os  0  0  0  0  0  0  0  0  0  0  0  0
    4.6332    7.5640   11.3434 P   0  0  0  0  0  0  0  0  0  0  0  0
    5.9929    7.0744   14.8383 P   0  0  0  0  0  0  0  0  0  0  0  0
    3.5432    9.0287   11.3434 C   0  0  0  0  0  0  0  0  0  0  0  0
    2.8355    9.3970   10.1995 C   0  0  0  0  0  0  0  0  0  0  0  0
    1.9127   10.4411   10.2554 C   0  0  0  0  0  0  0  0  0  0  0  0
    1.6965   11.1190   11.4571 C   0  0  0  0  0  0  0  0  0  0  0  0
    2.4042   10.7508   12.6011 C   0  0  0  0  0  0  0  0  0  0  0  0
    3.3281    9.7046   12.5451 C   0  0  0  0  0  0  0  0  0  0  0  0
    4.8287    7.1853    9.5715 C   0  0  0  0  0  0  0  0  0  0  0  0
    4.4134    5.9571    9.0538 C   0  0  0  0  0  0  0  0  0  0  0  0
    4.5937    5.6746    7.6999 C   0  0  0  0  0  0  0  0  0  0  0  0
    5.1904    6.6183    6.8638 C   0  0  0  0  0  0  0  0  0  0  0  0
    5.6058    7.8444    7.3798 C   0  0  0  0  0  0  0  0  0  0  0  0
    5.4255    8.1290    8.7337 C   0  0  0  0  0  0  0  0  0  0  0  0
    3.5602    6.2123   11.9242 C   0  0  0  0  0  0  0  0  0  0  0  0
    4.1994    5.0594   12.3842 C   0  0  0  0  0  0  0  0  0  0  0  0
    3.4462    4.0049   12.8985 C   0  0  0  0  0  0  0  0  0  0  0  0
    2.0560    4.0990   12.9527 C   0  0  0  0  0  0  0  0  0  0  0  0
    1.4180    5.2519   12.4909 C   0  0  0  0  0  0  0  0  0  0  0  0
    2.1701    6.3065   11.9766 C   0  0  0  0  0  0  0  0  0  0  0  0
    7.2237    7.7377   15.9962 C   0  0  0  0  0  0  0  0  0  0  0  0
    7.1244    7.5347   17.3729 C   0  0  0  0  0  0  0  0  0  0  0  0
    8.0933    8.0599   18.2282 C   0  0  0  0  0  0  0  0  0  0  0  0
    9.1616    8.7902   17.7052 C   0  0  0  0  0  0  0  0  0  0  0  0
    9.2608    8.9931   16.3303 C   0  0  0  0  0  0  0  0  0  0  0  0
    8.2919    8.4659   15.4750 C   0  0  0  0  0  0  0  0  0  0  0  0
    3.0026    8.8739    9.2689 H   0  0  0  0  0  0  0  0  0  0  0  0
    1.3643   10.7277    9.3704 H   0  0  0  0  0  0  0  0  0  0  0  0
    0.9821   11.9267   11.5009 H   0  0  0  0  0  0  0  0  0  0  0  0
    2.2383   11.2739   13.5299 H   0  0  0  0  0  0  0  0  0  0  0  0
    3.8754    9.4200   13.4302 H   0  0  0  0  0  0  0  0  0  0  0  0
    3.9521    5.2268    9.7010 H   0  0  0  0  0  0  0  0  0  0  0  0
    4.2733    4.7246    7.2993 H   0  0  0  0  0  0  0  0  0  0  0  0
    5.3302    6.3986    5.8143 H   0  0  0  0  0  0  0  0  0  0  0  0
    6.0671    8.5767    6.7326 H   0  0  0  0  0  0  0  0  0  0  0  0
    5.7471    9.0789    9.1342 H   0  0  0  0  0  0  0  0  0  0  0  0
    5.2755    4.9862   12.3422 H   0  0  0  0  0  0  0  0  0  0  0  0
    3.9406    3.1114   13.2535 H   0  0  0  0  0  0  0  0  0  0  0  0
    1.4732    3.2809   13.3497 H   0  0  0  0  0  0  0  0  0  0  0  0
    0.3407    5.3252   12.5329 H   0  0  0  0  0  0  0  0  0  0  0  0
    1.6757    7.1999   11.6216 H   0  0  0  0  0  0  0  0  0  0  0  0
    6.2975    6.9698   17.7769 H   0  0  0  0  0  0  0  0  0  0  0  0
    8.0157    7.9030   19.2935 H   0  0  0  0  0  0  0  0  0  0  0  0
    9.9109    9.1961   18.3681 H   0  0  0  0  0  0  0  0  0  0  0  0
   10.0878    9.5581   15.9263 H   0  0  0  0  0  0  0  0  0  0  0  0
    5.3244    9.5058   16.2814 H   0  0  0  0  0  0  0  0  0  0  0  0
    3.1692   10.5896   16.8359 H   0  0  0  0  0  0  0  0  0  0  0  0
    1.0383    9.4576   16.2884 H   0  0  0  0  0  0  0  0  0  0  0  0
    1.0613    7.2418   15.1864 H   0  0  0  0  0  0  0  0  0  0  0  0
    4.4074    7.7628   15.4208 C   0  0  0  0  0  0  0  0  0  0  0  0
    4.3945    9.0120   16.0417 C   0  0  0  0  0  0  0  0  0  0  0  0
    3.1794    9.6229   16.3548 C   0  0  0  0  0  0  0  0  0  0  0  0
    1.9783    8.9848   16.0470 C   0  0  0  0  0  0  0  0  0  0  0  0
    1.9912    7.7356   15.4260 C   0  0  0  0  0  0  0  0  0  0  0  0
    3.2063    7.1246   15.1129 C   0  0  0  0  0  0  0  0  0  0  0  0
    5.9274    5.3063   15.2773 C   0  0  0  0  0  0  0  0  0  0  0  0
    6.7600    4.4171   14.5952 C   0  0  0  0  0  0  0  0  0  0  0  0
    6.7802    3.0696   14.9502 C   0  0  0  0  0  0  0  0  0  0  0  0
    5.9689    2.6071   15.9875 C   0  0  0  0  0  0  0  0  0  0  0  0
    5.1364    3.4964   16.6697 C   0  0  0  0  0  0  0  0  0  0  0  0
    5.1150    4.8439   16.3146 C   0  0  0  0  0  0  0  0  0  0  0  0
    7.1385    9.5790   13.1801 B   0  0  0  0  0  0  0  0  0  0  0  0
    8.4490    8.5307   13.8832 B   0  0  0  0  0  0  0  0  0  0  0  0
    8.9385    7.0472   13.1346 B   0  0  0  0  0  0  0  0  0  0  0  0
    8.1772    6.5408   11.6513 B   0  0  0  0  0  0  0  0  0  0  0  0
    8.1391    8.0348   10.7120 B   0  0  0  0  0  0  0  0  0  0  0  0
    7.6120    9.4911   11.4484 B   0  0  0  0  0  0  0  0  0  0  0  0
    8.8079    9.9012   12.7603 B   0  0  0  0  0  0  0  0  0  0  0  0
    9.9011    8.5328   12.8652 B   0  0  0  0  0  0  0  0  0  0  0  0
    9.6469    7.4029   11.5026 B   0  0  0  0  0  0  0  0  0  0  0  0
    9.3542    9.1375   11.2857 B   0  0  0  0  0  0  0  0  0  0  0  0
    6.2373   10.3616   13.8395 O   0  0  0  0  0  0  0  0  0  0  0  0
    6.3573   11.7153   13.9969 C   0  0  0  0  0  0  0  0  0  0  0  0
    5.3962   12.4351   14.6616 C   0  0  0  0  0  0  0  0  0  0  0  0
    7.7716    5.2519   11.3959 O   0  0  0  0  0  0  0  0  0  0  0  0
    7.6995    4.7016   10.0595 C   0  0  0  0  0  0  0  0  0  0  0  0
    6.8422    3.4671   10.1068 C   0  0  0  0  0  0  0  0  0  0  0  0
    3.2165    6.1579   14.6301 H   0  0  0  0  0  0  0  0  0  0  0  0
    7.3888    4.7749   13.7940 H   0  0  0  0  0  0  0  0  0  0  0  0
    7.4250    2.3812   14.4237 H   0  0  0  0  0  0  0  0  0  0  0  0
    5.9848    1.5630   16.2621 H   0  0  0  0  0  0  0  0  0  0  0  0
    4.5075    3.1386   17.4708 H   0  0  0  0  0  0  0  0  0  0  0  0
    4.4703    5.5323   16.8411 H   0  0  0  0  0  0  0  0  0  0  0  0
    9.3114    6.1265   13.8972 H   0  0  0  0  0  0  0  0  0  0  0  0
    7.9184    7.8047    9.6572 H   0  0  0  0  0  0  0  0  0  0  0  0
    9.2258   11.0269   13.0156 H   0  0  0  0  0  0  0  0  0  0  0  0
   10.8644    8.6374   13.2885 H   0  0  0  0  0  0  0  0  0  0  0  0
   10.4556    6.8840   11.0041 H   0  0  0  0  0  0  0  0  0  0  0  0
    9.9767    9.6229   10.6035 H   0  0  0  0  0  0  0  0  0  0  0  0
    6.4261   12.1359   13.0034 H   0  0  0  0  0  0  0  0  0  0  0  0
    7.2834   11.8869   14.5252 H   0  0  0  0  0  0  0  0  0  0  0  0
    5.6708   13.4792   14.6774 H   0  0  0  0  0  0  0  0  0  0  0  0
    5.3075   12.0690   15.6744 H   0  0  0  0  0  0  0  0  0  0  0  0
    4.4502   12.3180   14.1526 H   0  0  0  0  0  0  0  0  0  0  0  0
    7.2571    5.4277    9.3913 H   0  0  0  0  0  0  0  0  0  0  0  0
    8.6912    4.4526    9.7149 H   0  0  0  0  0  0  0  0  0  0  0  0
    6.7749    3.0423    9.1167 H   0  0  0  0  0  0  0  0  0  0  0  0
    5.8525    3.7245   10.4548 H   0  0  0  0  0  0  0  0  0  0  0  0
    7.2866    2.7494   10.7784 H   0  0  0  0  0  0  0  0  0  0  0  0
  1  2  1  0  0  0  0
  2  4  1  0  0  0  0
  3  1  1  0  0  0  0
  4  5  4  0  0  0  0
  5  6  4  0  0  0  0
  6  7  4  0  0  0  0
  7  8  4  0  0  0  0
  8  9  4  0  0  0  0
  9  4  4  0  0  0  0
 10  2  1  0  0  0  0
 11 10  4  0  0  0  0
 12 11  4  0  0  0  0
 13 12  4  0  0  0  0
 14 13  4  0  0  0  0
 15 10  4  0  0  0  0
 16  2  1  0  0  0  0
 17 16  4  0  0  0  0
 18 17  4  0  0  0  0
 19 18  4  0  0  0  0
 20 19  4  0  0  0  0
 21 16  4  0  0  0  0
 22  3  1  0  0  0  0
 23 22  4  0  0  0  0
 24 23  4  0  0  0  0
 25 24  4  0  0  0  0
 26 25  4  0  0  0  0
 27 22  4  0  0  0  0
 28  5  1  0  0  0  0
 29  6  1  0  0  0  0
 30  7  1  0  0  0  0
 31  8  1  0  0  0  0
 32  9  1  0  0  0  0
 33 11  1  0  0  0  0
 34 12  1  0  0  0  0
 35 13  1  0  0  0  0
 36 14  1  0  0  0  0
 37 15  1  0  0  0  0
 38 17  1  0  0  0  0
 39 18  1  0  0  0  0
 40 19  1  0  0  0  0
 41 20  1  0  0  0  0
 42 21  1  0  0  0  0
 43 23  1  0  0  0  0
 44 24  1  0  0  0  0
 45 25  1  0  0  0  0
 46 26  1  0  0  0  0
 47 52  1  0  0  0  0
 48 53  1  0  0  0  0
 49 54  1  0  0  0  0
 50 55  1  0  0  0  0
 51  3  1  0  0  0  0
 52 51  4  0  0  0  0
 53 52  4  0  0  0  0
 54 53  4  0  0  0  0
 55 54  4  0  0  0  0
 56 51  4  0  0  0  0
 57  3  1  0  0  0  0
 58 57  4  0  0  0  0
 59 58  4  0  0  0  0
 60 59  4  0  0  0  0
 61 60  4  0  0  0  0
 62 57  4  0  0  0  0
 63  1  1  0  0  0  0
 64  1  1  0  0  0  0
 65  1  1  0  0  0  0
 66  1  1  0  0  0  0
 67  1  1  0  0  0  0
 68  1  1  0  0  0  0
 69 63  1  0  0  0  0
 70 64  1  0  0  0  0
 71 65  1  0  0  0  0
 72 67  1  0  0  0  0
 73 63  1  0  0  0  0
 74 73  1  0  0  0  0
 75 74  1  0  0  0  0
 76 66  1  0  0  0  0
 77 76  1  0  0  0  0
 78 77  1  0  0  0  0
 79 56  1  0  0  0  0
 80 58  1  0  0  0  0
 81 59  1  0  0  0  0
 82 60  1  0  0  0  0
 83 61  1  0  0  0  0
 84 62  1  0  0  0  0
 85 65  1  0  0  0  0
 86 67  1  0  0  0  0
 87 69  1  0  0  0  0
 88 70  1  0  0  0  0
 89 71  1  0  0  0  0
 90 72  1  0  0  0  0
 91 74  1  0  0  0  0
 92 74  1  0  0  0  0
 93 75  1  0  0  0  0
 94 75  1  0  0  0  0
 95 75  1  0  0  0  0
 96 77  1  0  0  0  0
 97 77  1  0  0  0  0
 98 78  1  0  0  0  0
 99 78  1  0  0  0  0
100 78  1  0  0  0  0
 14 15  4  0  0  0  0
 20 21  4  0  0  0  0
 26 27  4  0  0  0  0
 27 64  1  0  0  0  0
 55 56  4  0  0  0  0
 61 62  4  0  0  0  0
 63 64  1  0  0  0  0
 63 68  1  0  0  0  0
 64 65  1  0  0  0  0
 64 69  1  0  0  0  0
 65 66  1  0  0  0  0
 65 70  1  0  0  0  0
 66 67  1  0  0  0  0
 66 71  1  0  0  0  0
 67 68  1  0  0  0  0
 67 71  1  0  0  0  0
 68 69  1  0  0  0  0
 68 72  1  0  0  0  0
 69 70  1  0  0  0  0
 69 72  1  0  0  0  0
 70 71  1  0  0  0  0
 70 72  1  0  0  0  0
 71 72  1  0  0  0  0
M  END
$$$$
FANQIY

From CSD data. Using bond type 'Any'. No disordered atoms. Largest molecule.
172188  0  0  0  0  0  0  0  0999 V2000
    7.0979    1.8314    8.8308 Au  0  0  0  0  0  0  0  0  0  0  0  0
    4.1704    2.9276    7.9220 Au  0  0  0  0  0  0  0  0  0  0  0  0
    5.2263    6.9381   14.2806 B   0  0  0  0  0  0  0  0  0  0  0  0
    4.8358    7.6534   14.8615 H   0  0  0  0  0  0  0  0  0  0  0  0
    8.5249    4.8843    2.0472 B   0  0  0  0  0  0  0  0  0  0  0  0
    9.2452    5.1330    1.3985 H   0  0  0  0  0  0  0  0  0  0  0  0
    8.7296    5.0805   10.8480 I   0  0  0  0  0  0  0  0  0  0  0  0
    4.7390    5.8549    5.6926 I   0  0  0  0  0  0  0  0  0  0  0  0
    5.7105    6.5323   11.8595 N   0  0  0  0  0  0  0  0  0  0  0  0
    5.2506    7.3912   12.8345 N   0  0  0  0  0  0  0  0  0  0  0  0
    7.4210    5.6687   14.0834 N   0  0  0  0  0  0  0  0  0  0  0  0
    6.6696    6.6067   14.7373 N   0  0  0  0  0  0  0  0  0  0  0  0
    4.8990    4.4788   13.8933 N   0  0  0  0  0  0  0  0  0  0  0  0
    4.4144    5.6507   14.4142 N   0  0  0  0  0  0  0  0  0  0  0  0
    6.0558    5.3996    2.3963 N   0  0  0  0  0  0  0  0  0  0  0  0
    7.2337    5.6585    1.7316 N   0  0  0  0  0  0  0  0  0  0  0  0
    7.1802    2.8279    2.6659 N   0  0  0  0  0  0  0  0  0  0  0  0
    8.2441    3.3680    1.9784 N   0  0  0  0  0  0  0  0  0  0  0  0
    8.0584    5.0582    4.4959 N   0  0  0  0  0  0  0  0  0  0  0  0
    8.9322    5.2704    3.4668 N   0  0  0  0  0  0  0  0  0  0  0  0
    7.9712    2.0613   13.5328 O   0  0  0  0  0  0  0  0  0  0  0  0
    3.4078    2.9594    3.2318 O   0  0  0  0  0  0  0  0  0  0  0  0
    3.7395    3.7497   10.0037 P   0  0  0  0  0  0  0  0  0  0  0  0
    7.8230    1.8529    6.6650 P   0  0  0  0  0  0  0  0  0  0  0  0
    6.4822    4.5131   12.4016 W   0  0  0  0  0  0  0  0  0  0  0  0
    6.1105    3.9830    4.1416 W   0  0  0  0  0  0  0  0  0  0  0  0
    6.0594    2.8079   11.3011 C   0  0  0  0  0  0  0  0  0  0  0  0
    5.1556    3.7500   11.0941 C   0  0  0  0  0  0  0  0  0  0  0  0
    7.4496    2.9785   13.1260 C   0  0  0  0  0  0  0  0  0  0  0  0
    6.4908    1.5188   10.8236 C   0  0  0  0  0  0  0  0  0  0  0  0
    5.7469    0.8661   10.8650 H   0  0  0  0  0  0  0  0  0  0  0  0
    7.2429    1.1785   11.3702 H   0  0  0  0  0  0  0  0  0  0  0  0
    2.9056    5.3373   10.1951 C   0  0  0  0  0  0  0  0  0  0  0  0
    2.6642    5.8411   11.4680 C   0  0  0  0  0  0  0  0  0  0  0  0
    2.9988    5.3838   12.2308 H   0  0  0  0  0  0  0  0  0  0  0  0
    1.9355    7.0060   11.6245 C   0  0  0  0  0  0  0  0  0  0  0  0
    1.7583    7.3422   12.4949 H   0  0  0  0  0  0  0  0  0  0  0  0
    1.4698    7.6738   10.5259 C   0  0  0  0  0  0  0  0  0  0  0  0
    0.9718    8.4748   10.6368 H   0  0  0  0  0  0  0  0  0  0  0  0
    1.7189    7.1948    9.2546 C   0  0  0  0  0  0  0  0  0  0  0  0
    1.3897    7.6678    8.5016 H   0  0  0  0  0  0  0  0  0  0  0  0
    2.4435    6.0319    9.0747 C   0  0  0  0  0  0  0  0  0  0  0  0
    2.6239    5.7090    8.1984 H   0  0  0  0  0  0  0  0  0  0  0  0
    2.5647    2.5529   10.7577 C   0  0  0  0  0  0  0  0  0  0  0  0
    2.8441    1.2026   10.6042 C   0  0  0  0  0  0  0  0  0  0  0  0
    3.6030    0.9383   10.0956 H   0  0  0  0  0  0  0  0  0  0  0  0
    2.0374    0.2301   11.1746 C   0  0  0  0  0  0  0  0  0  0  0  0
    2.2629   -0.6897   11.0931 H   0  0  0  0  0  0  0  0  0  0  0  0
    0.9027    0.6113   11.8657 C   0  0  0  0  0  0  0  0  0  0  0  0
    0.3422   -0.0502   12.2536 H   0  0  0  0  0  0  0  0  0  0  0  0
    0.5771    1.9455   11.9961 C   0  0  0  0  0  0  0  0  0  0  0  0
   -0.2109    2.2092   12.4590 H   0  0  0  0  0  0  0  0  0  0  0  0
    1.4223    2.8947   11.4387 C   0  0  0  0  0  0  0  0  0  0  0  0
    1.2026    3.8137   11.5332 H   0  0  0  0  0  0  0  0  0  0  0  0
    5.5869    7.1828   10.6958 C   0  0  0  0  0  0  0  0  0  0  0  0
    5.0666    8.4663   10.9067 C   0  0  0  0  0  0  0  0  0  0  0  0
    4.8727    8.5626   12.2540 C   0  0  0  0  0  0  0  0  0  0  0  0
    5.9385    6.6371    9.3645 C   0  0  0  0  0  0  0  0  0  0  0  0
    6.0595    5.6666    9.4306 H   0  0  0  0  0  0  0  0  0  0  0  0
    6.7709    7.0487    9.0525 H   0  0  0  0  0  0  0  0  0  0  0  0
    5.2177    6.8340    8.7298 H   0  0  0  0  0  0  0  0  0  0  0  0
    4.7844    9.4699    9.8349 C   0  0  0  0  0  0  0  0  0  0  0  0
    4.3743    9.0206    9.0688 H   0  0  0  0  0  0  0  0  0  0  0  0
    5.6230    9.8937    9.5578 H   0  0  0  0  0  0  0  0  0  0  0  0
    4.1725   10.1526   10.1804 H   0  0  0  0  0  0  0  0  0  0  0  0
    4.3324    9.7074   13.0640 C   0  0  0  0  0  0  0  0  0  0  0  0
    4.2417   10.4986   12.4916 H   0  0  0  0  0  0  0  0  0  0  0  0
    4.9475    9.9056   13.7988 H   0  0  0  0  0  0  0  0  0  0  0  0
    3.4547    9.4648   13.4272 H   0  0  0  0  0  0  0  0  0  0  0  0
    8.6022    5.6065   14.7461 C   0  0  0  0  0  0  0  0  0  0  0  0
    8.6016    6.4829   15.8169 C   0  0  0  0  0  0  0  0  0  0  0  0
    7.3601    7.1119   15.7830 C   0  0  0  0  0  0  0  0  0  0  0  0
    9.7278    4.7151   14.3660 C   0  0  0  0  0  0  0  0  0  0  0  0
    9.6252    4.4377   13.4304 H   0  0  0  0  0  0  0  0  0  0  0  0
    9.7274    3.9222   14.9430 H   0  0  0  0  0  0  0  0  0  0  0  0
   10.5753    5.1953   14.4736 H   0  0  0  0  0  0  0  0  0  0  0  0
    9.7127    6.7199   16.7913 C   0  0  0  0  0  0  0  0  0  0  0  0
   10.0639    5.8590   17.1010 H   0  0  0  0  0  0  0  0  0  0  0  0
    9.3723    7.2282   17.5574 H   0  0  0  0  0  0  0  0  0  0  0  0
   10.4275    7.2257   16.3545 H   0  0  0  0  0  0  0  0  0  0  0  0
    6.8296    8.1584   16.6902 C   0  0  0  0  0  0  0  0  0  0  0  0
    6.8240    9.0208   16.2273 H   0  0  0  0  0  0  0  0  0  0  0  0
    7.3977    8.2199   17.4856 H   0  0  0  0  0  0  0  0  0  0  0  0
    5.9157    7.9254   16.9575 H   0  0  0  0  0  0  0  0  0  0  0  0
    4.0887    3.4906   14.3132 C   0  0  0  0  0  0  0  0  0  0  0  0
    3.0630    4.0137   15.1118 C   0  0  0  0  0  0  0  0  0  0  0  0
    3.3150    5.3677   15.1555 C   0  0  0  0  0  0  0  0  0  0  0  0
    4.2924    2.0528   13.9937 C   0  0  0  0  0  0  0  0  0  0  0  0
    3.9038    1.8547   13.1175 H   0  0  0  0  0  0  0  0  0  0  0  0
    3.8550    1.5010   14.6757 H   0  0  0  0  0  0  0  0  0  0  0  0
    5.2517    1.8540   13.9781 H   0  0  0  0  0  0  0  0  0  0  0  0
    1.9603    3.2400   15.7645 C   0  0  0  0  0  0  0  0  0  0  0  0
    1.4329    2.7800   15.0766 H   0  0  0  0  0  0  0  0  0  0  0  0
    1.3811    3.8541   16.2632 H   0  0  0  0  0  0  0  0  0  0  0  0
    2.3430    2.5807   16.3773 H   0  0  0  0  0  0  0  0  0  0  0  0
    2.5415    6.4470   15.8724 C   0  0  0  0  0  0  0  0  0  0  0  0
    3.1545    6.9752   16.4262 H   0  0  0  0  0  0  0  0  0  0  0  0
    1.8592    6.0365   16.4425 H   0  0  0  0  0  0  0  0  0  0  0  0
    2.1106    7.0320   15.2135 H   0  0  0  0  0  0  0  0  0  0  0  0
    5.4041    2.5093    5.4289 C   0  0  0  0  0  0  0  0  0  0  0  0
    6.7082    2.6842    5.5443 C   0  0  0  0  0  0  0  0  0  0  0  0
    4.3290    3.3331    3.5626 C   0  0  0  0  0  0  0  0  0  0  0  0
    4.3081    1.8779    6.0864 C   0  0  0  0  0  0  0  0  0  0  0  0
    4.4892    0.9171    6.2393 H   0  0  0  0  0  0  0  0  0  0  0  0
    3.4749    1.9701    5.5612 H   0  0  0  0  0  0  0  0  0  0  0  0
    9.4852    2.4948    6.4072 C   0  0  0  0  0  0  0  0  0  0  0  0
    9.9886    2.6628    5.1114 C   0  0  0  0  0  0  0  0  0  0  0  0
    9.4556    2.4426    4.3551 H   0  0  0  0  0  0  0  0  0  0  0  0
   11.2762    3.1571    4.9419 C   0  0  0  0  0  0  0  0  0  0  0  0
   11.6374    3.2549    4.0682 H   0  0  0  0  0  0  0  0  0  0  0  0
   12.0324    3.5078    6.0470 C   0  0  0  0  0  0  0  0  0  0  0  0
   12.9084    3.8551    5.9231 H   0  0  0  0  0  0  0  0  0  0  0  0
   11.5392    3.3604    7.3248 C   0  0  0  0  0  0  0  0  0  0  0  0
   12.0660    3.6049    8.0778 H   0  0  0  0  0  0  0  0  0  0  0  0
   10.2561    2.8493    7.5008 C   0  0  0  0  0  0  0  0  0  0  0  0
    9.9072    2.7420    8.3777 H   0  0  0  0  0  0  0  0  0  0  0  0
    7.8276    0.1324    6.0499 C   0  0  0  0  0  0  0  0  0  0  0  0
    8.7516   -0.3543    5.1342 C   0  0  0  0  0  0  0  0  0  0  0  0
    9.4567    0.2030    4.8278 H   0  0  0  0  0  0  0  0  0  0  0  0
    8.6397   -1.6660    4.6648 C   0  0  0  0  0  0  0  0  0  0  0  0
    9.2837   -2.0023    4.0519 H   0  0  0  0  0  0  0  0  0  0  0  0
    7.6170   -2.4684    5.0788 C   0  0  0  0  0  0  0  0  0  0  0  0
    7.5357   -3.3503    4.7365 H   0  0  0  0  0  0  0  0  0  0  0  0
    6.7073   -2.0024    5.9883 C   0  0  0  0  0  0  0  0  0  0  0  0
    6.0008   -2.5652    6.2849 H   0  0  0  0  0  0  0  0  0  0  0  0
    6.8160   -0.7068    6.4838 C   0  0  0  0  0  0  0  0  0  0  0  0
    6.1898   -0.3949    7.1260 H   0  0  0  0  0  0  0  0  0  0  0  0
    5.1538    6.2916    1.9331 C   0  0  0  0  0  0  0  0  0  0  0  0
    5.7677    7.1672    1.0174 C   0  0  0  0  0  0  0  0  0  0  0  0
    7.0586    6.7277    0.9189 C   0  0  0  0  0  0  0  0  0  0  0  0
    3.7339    6.3592    2.3438 C   0  0  0  0  0  0  0  0  0  0  0  0
    3.1809    6.5977    1.5712 H   0  0  0  0  0  0  0  0  0  0  0  0
    3.6270    7.0370    3.0414 H   0  0  0  0  0  0  0  0  0  0  0  0
    3.4521    5.4856    2.6893 H   0  0  0  0  0  0  0  0  0  0  0  0
    5.1181    8.2953    0.2966 C   0  0  0  0  0  0  0  0  0  0  0  0
    5.7906    8.7787   -0.2249 H   0  0  0  0  0  0  0  0  0  0  0  0
    4.7097    8.9044    0.9486 H   0  0  0  0  0  0  0  0  0  0  0  0
    4.4270    7.9448   -0.3032 H   0  0  0  0  0  0  0  0  0  0  0  0
    8.1818    7.3149    0.1271 C   0  0  0  0  0  0  0  0  0  0  0  0
    8.6321    6.6048   -0.3749 H   0  0  0  0  0  0  0  0  0  0  0  0
    8.8214    7.7413    0.7367 H   0  0  0  0  0  0  0  0  0  0  0  0
    7.8279    7.9824   -0.4955 H   0  0  0  0  0  0  0  0  0  0  0  0
    7.1169    1.5288    2.3112 C   0  0  0  0  0  0  0  0  0  0  0  0
    8.1415    1.2180    1.4213 C   0  0  0  0  0  0  0  0  0  0  0  0
    8.8305    2.4041    1.2231 C   0  0  0  0  0  0  0  0  0  0  0  0
    6.0627    0.5897    2.8034 C   0  0  0  0  0  0  0  0  0  0  0  0
    5.1781    0.9816    2.6437 H   0  0  0  0  0  0  0  0  0  0  0  0
    6.1851    0.4338    3.7618 H   0  0  0  0  0  0  0  0  0  0  0  0
    6.1333   -0.2604    2.3210 H   0  0  0  0  0  0  0  0  0  0  0  0
    8.3877   -0.1130    0.7856 C   0  0  0  0  0  0  0  0  0  0  0  0
    7.7934   -0.2225    0.0163 H   0  0  0  0  0  0  0  0  0  0  0  0
    8.2088   -0.8231    1.4376 H   0  0  0  0  0  0  0  0  0  0  0  0
    9.3201   -0.1672    0.4922 H   0  0  0  0  0  0  0  0  0  0  0  0
   10.0223    2.6966    0.3618 C   0  0  0  0  0  0  0  0  0  0  0  0
   10.1980    1.9299   -0.2249 H   0  0  0  0  0  0  0  0  0  0  0  0
   10.8043    2.8598    0.9290 H   0  0  0  0  0  0  0  0  0  0  0  0
    9.8434    3.4901   -0.1858 H   0  0  0  0  0  0  0  0  0  0  0  0
    8.6215    5.6124    5.5909 C   0  0  0  0  0  0  0  0  0  0  0  0
    9.8467    6.2034    5.2532 C   0  0  0  0  0  0  0  0  0  0  0  0
   10.0026    5.9620    3.9134 C   0  0  0  0  0  0  0  0  0  0  0  0
    8.0273    5.5789    6.9489 C   0  0  0  0  0  0  0  0  0  0  0  0
    7.6032    6.4413    7.1423 H   0  0  0  0  0  0  0  0  0  0  0  0
    8.7305    5.4059    7.6084 H   0  0  0  0  0  0  0  0  0  0  0  0
    7.3546    4.8669    6.9923 H   0  0  0  0  0  0  0  0  0  0  0  0
   10.7886    6.8890    6.1839 C   0  0  0  0  0  0  0  0  0  0  0  0
   11.7007    6.8209    5.8351 H   0  0  0  0  0  0  0  0  0  0  0  0
   10.7434    6.4629    7.0673 H   0  0  0  0  0  0  0  0  0  0  0  0
   10.5381    7.8326    6.2654 H   0  0  0  0  0  0  0  0  0  0  0  0
   11.1316    6.3522    3.0349 C   0  0  0  0  0  0  0  0  0  0  0  0
   11.3878    5.5899    2.4742 H   0  0  0  0  0  0  0  0  0  0  0  0
   11.8966    6.6247    3.5825 H   0  0  0  0  0  0  0  0  0  0  0  0
   10.8584    7.1004    2.4612 H   0  0  0  0  0  0  0  0  0  0  0  0
  1 24  1  0  0  0  0
  2 23  1  0  0  0  0
  3  4  1  0  0  0  0
  5  6  1  0  0  0  0
  7 25  1  0  0  0  0
  8 26  1  0  0  0  0
  9 10  4  0  0  0  0
 10  3  1  0  0  0  0
 11 12  4  0  0  0  0
 12  3  1  0  0  0  0
 13 14  4  0  0  0  0
 14  3  1  0  0  0  0
 15 16  4  0  0  0  0
 16  5  1  0  0  0  0
 17 18  4  0  0  0  0
 18  5  1  0  0  0  0
 19 20  4  0  0  0  0
 20  5  1  0  0  0  0
 21 29  3  0  0  0  0
 22102  3  0  0  0  0
 23 28  1  0  0  0  0
 24101  1  0  0  0  0
 25  9  1  0  0  0  0
 26 15  1  0  0  0  0
 27 25  8  0  0  0  0
 28 25  8  0  0  0  0
 29 25  1  0  0  0  0
 30  1  1  0  0  0  0
 31 30  1  0  0  0  0
 32 30  1  0  0  0  0
 33 23  1  0  0  0  0
 34 33  4  0  0  0  0
 35 34  1  0  0  0  0
 36 34  4  0  0  0  0
 37 36  1  0  0  0  0
 38 36  4  0  0  0  0
 39 38  1  0  0  0  0
 40 38  4  0  0  0  0
 41 40  1  0  0  0  0
 42 33  4  0  0  0  0
 43 42  1  0  0  0  0
 44 23  1  0  0  0  0
 45 44  4  0  0  0  0
 46 45  1  0  0  0  0
 47 45  4  0  0  0  0
 48 47  1  0  0  0  0
 49 47  4  0  0  0  0
 50 49  1  0  0  0  0
 51 49  4  0  0  0  0
 52 51  1  0  0  0  0
 53 44  4  0  0  0  0
 54 53  1  0  0  0  0
 55  9  4  0  0  0  0
 56 55  4  0  0  0  0
 57 10  4  0  0  0  0
 58 55  1  0  0  0  0
 59 58  1  0  0  0  0
 60 58  1  0  0  0  0
 61 58  1  0  0  0  0
 62 56  1  0  0  0  0
 63 62  1  0  0  0  0
 64 62  1  0  0  0  0
 65 62  1  0  0  0  0
 66 57  1  0  0  0  0
 67 66  1  0  0  0  0
 68 66  1  0  0  0  0
 69 66  1  0  0  0  0
 70 11  4  0  0  0  0
 71 70  4  0  0  0  0
 72 12  4  0  0  0  0
 73 70  1  0  0  0  0
 74 73  1  0  0  0  0
 75 73  1  0  0  0  0
 76 73  1  0  0  0  0
 77 71  1  0  0  0  0
 78 77  1  0  0  0  0
 79 77  1  0  0  0  0
 80 77  1  0  0  0  0
 81 72  1  0  0  0  0
 82 81  1  0  0  0  0
 83 81  1  0  0  0  0
 84 81  1  0  0  0  0
 85 13  4  0  0  0  0
 86 85  4  0  0  0  0
 87 14  4  0  0  0  0
 88 85  1  0  0  0  0
 89 88  1  0  0  0  0
 90 88  1  0  0  0  0
 91 88  1  0  0  0  0
 92 86  1  0  0  0  0
 93 92  1  0  0  0  0
 94 92  1  0  0  0  0
 95 92  1  0  0  0  0
 96 87  1  0  0  0  0
 97 96  1  0  0  0  0
 98 96  1  0  0  0  0
 99 96  1  0  0  0  0
100 26  8  0  0  0  0
101 26  8  0  0  0  0
102 26  1  0  0  0  0
103  2  1  0  0  0  0
104103  1  0  0  0  0
105103  1  0  0  0  0
106 24  1  0  0  0  0
107106  4  0  0  0  0
108107  1  0  0  0  0
109107  4  0  0  0  0
110109  1  0  0  0  0
111109  4  0  0  0  0
112111  1  0  0  0  0
113111  4  0  0  0  0
114113  1  0  0  0  0
115106  4  0  0  0  0
116115  1  0  0  0  0
117 24  1  0  0  0  0
118117  4  0  0  0  0
119118  1  0  0  0  0
120118  4  0  0  0  0
121120  1  0  0  0  0
122120  4  0  0  0  0
123122  1  0  0  0  0
124122  4  0  0  0  0
125124  1  0  0  0  0
126117  4  0  0  0  0
127126  1  0  0  0  0
128 15  4  0  0  0  0
129128  4  0  0  0  0
130 16  4  0  0  0  0
131128  1  0  0  0  0
132131  1  0  0  0  0
133131  1  0  0  0  0
134131  1  0  0  0  0
135129  1  0  0  0  0
136135  1  0  0  0  0
137135  1  0  0  0  0
138135  1  0  0  0  0
139130  1  0  0  0  0
140139  1  0  0  0  0
141139  1  0  0  0  0
142139  1  0  0  0  0
143 17  4  0  0  0  0
144143  4  0  0  0  0
145 18  4  0  0  0  0
146143  1  0  0  0  0
147146  1  0  0  0  0
148146  1  0  0  0  0
149146  1  0  0  0  0
150144  1  0  0  0  0
151150  1  0  0  0  0
152150  1  0  0  0  0
153150  1  0  0  0  0
154145  1  0  0  0  0
155154  1  0  0  0  0
156154  1  0  0  0  0
157154  1  0  0  0  0
158 19  4  0  0  0  0
159158  4  0  0  0  0
160 20  4  0  0  0  0
161158  1  0  0  0  0
162161  1  0  0  0  0
163161  1  0  0  0  0
164161  1  0  0  0  0
165159  1  0  0  0  0
166165  1  0  0  0  0
167165  1  0  0  0  0
168165  1  0  0  0  0
169160  1  0  0  0  0
170169  1  0  0  0  0
171169  1  0  0  0  0
172169  1  0  0  0  0
 11 25  1  0  0  0  0
 13 25  1  0  0  0  0
 17 26  1  0  0  0  0
 19 26  1  0  0  0  0
 27 28  3  0  0  0  0
 27 30  1  0  0  0  0
 40 42  4  0  0  0  0
 51 53  4  0  0  0  0
 56 57  4  0  0  0  0
 71 72  4  0  0  0  0
 86 87  4  0  0  0  0
100101  3  0  0  0  0
100103  1  0  0  0  0
113115  4  0  0  0  0
124126  4  0  0  0  0
129130  4  0  0  0  0
144145  4  0  0  0  0
159160  4  0  0  0  0
M  END
$$$$
FAPMEO

From CSD data. Using bond type 'Any'. No disordered atoms. Largest molecule.
 67 84  0  0  0  0  0  0  0  0999 V2000
    3.3977    1.5333    2.4427 Mo  0  0  0  0  0  0  0  0  0  0  0  0
    1.0234    0.9523    2.9282 P   0  0  0  0  0  0  0  0  0  0  0  0
    5.4133    0.4114    1.5022 P   0  0  0  0  0  0  0  0  0  0  0  0
    3.5929    1.9550    6.0865 Cl  0  0  0  0  0  0  0  0  0  0  0  0
    2.6663    0.9760    0.6851 C   0  0  0  0  0  0  0  0  0  0  0  0
    2.2582    0.7034   -0.3586 O   0  0  0  0  0  0  0  0  0  0  0  0
    3.4513   -0.1275    3.5270 C   0  0  0  0  0  0  0  0  0  0  0  0
    3.5510   -1.0346    4.2105 O   0  0  0  0  0  0  0  0  0  0  0  0
    0.5771    0.9050    4.6976 C   0  0  0  0  0  0  0  0  0  0  0  0
    0.5677   -0.7353    2.3903 C   0  0  0  0  0  0  0  0  0  0  0  0
   -0.3015    1.9570    2.1484 C   0  0  0  0  0  0  0  0  0  0  0  0
   -1.6087    1.8110    2.6136 C   0  0  0  0  0  0  0  0  0  0  0  0
   -2.6487    2.5083    1.9995 C   0  0  0  0  0  0  0  0  0  0  0  0
   -2.3831    3.3505    0.9202 C   0  0  0  0  0  0  0  0  0  0  0  0
   -1.0759    3.4955    0.4550 C   0  0  0  0  0  0  0  0  0  0  0  0
   -0.0343    2.7993    1.0691 C   0  0  0  0  0  0  0  0  0  0  0  0
    6.2086   -0.9101    2.4732 C   0  0  0  0  0  0  0  0  0  0  0  0
    5.3011   -0.3538   -0.1353 C   0  0  0  0  0  0  0  0  0  0  0  0
    6.7474    1.6516    1.3144 C   0  0  0  0  0  0  0  0  0  0  0  0
    7.6943    1.8408    2.3209 C   0  0  0  0  0  0  0  0  0  0  0  0
    8.7204    2.7695    2.1467 C   0  0  0  0  0  0  0  0  0  0  0  0
    8.8011    3.5089    0.9676 C   0  0  0  0  0  0  0  0  0  0  0  0
    7.8544    3.3197   -0.0406 C   0  0  0  0  0  0  0  0  0  0  0  0
    6.8267    2.3910    0.1336 C   0  0  0  0  0  0  0  0  0  0  0  0
    3.5400    4.5250    4.5471 B   0  0  0  0  0  0  0  0  0  0  0  0
    2.5646    3.5613    3.4120 B   0  0  0  0  0  0  0  0  0  0  0  0
    3.1455    5.1605    2.9417 B   0  0  0  0  0  0  0  0  0  0  0  0
    4.6586    5.6747    3.7774 B   0  0  0  0  0  0  0  0  0  0  0  0
    3.8152    2.8096    4.4828 B   0  0  0  0  0  0  0  0  0  0  0  0
    3.2158    3.8925    1.7525 B   0  0  0  0  0  0  0  0  0  0  0  0
    4.6460    5.2613    2.0418 B   0  0  0  0  0  0  0  0  0  0  0  0
    6.0078    4.8530    3.1143 B   0  0  0  0  0  0  0  0  0  0  0  0
    5.2621    4.2432    4.6131 B   0  0  0  0  0  0  0  0  0  0  0  0
    0.7440    1.8429    5.2068 H   0  0  0  0  0  0  0  0  0  0  0  0
    1.2469    0.1563    5.0952 H   0  0  0  0  0  0  0  0  0  0  0  0
   -0.4441    0.5913    4.8482 H   0  0  0  0  0  0  0  0  0  0  0  0
    0.7618   -0.8289    1.3313 H   0  0  0  0  0  0  0  0  0  0  0  0
   -0.4620   -0.9975    2.5916 H   0  0  0  0  0  0  0  0  0  0  0  0
    1.2200   -1.3997    2.9367 H   0  0  0  0  0  0  0  0  0  0  0  0
   -1.8147    1.1590    3.4492 H   0  0  0  0  0  0  0  0  0  0  0  0
   -3.6602    2.3951    2.3598 H   0  0  0  0  0  0  0  0  0  0  0  0
   -3.1886    3.8894    0.4449 H   0  0  0  0  0  0  0  0  0  0  0  0
   -0.8699    4.1475   -0.3806 H   0  0  0  0  0  0  0  0  0  0  0  0
    0.9772    2.9114    0.7088 H   0  0  0  0  0  0  0  0  0  0  0  0
    6.3534   -0.6376    3.5084 H   0  0  0  0  0  0  0  0  0  0  0  0
    7.1630   -1.1477    2.0266 H   0  0  0  0  0  0  0  0  0  0  0  0
    5.5594   -1.7709    2.4156 H   0  0  0  0  0  0  0  0  0  0  0  0
    4.8970    0.3455   -0.8526 H   0  0  0  0  0  0  0  0  0  0  0  0
    4.6484   -1.2115   -0.0626 H   0  0  0  0  0  0  0  0  0  0  0  0
    6.2810   -0.6736   -0.4567 H   0  0  0  0  0  0  0  0  0  0  0  0
    7.6320    1.2680    3.2344 H   0  0  0  0  0  0  0  0  0  0  0  0
    9.4537    2.9155    2.9265 H   0  0  0  0  0  0  0  0  0  0  0  0
    9.5953    4.2278    0.8323 H   0  0  0  0  0  0  0  0  0  0  0  0
    7.9151    3.8925   -0.9541 H   0  0  0  0  0  0  0  0  0  0  0  0
    6.0949    2.2450   -0.6462 H   0  0  0  0  0  0  0  0  0  0  0  0
    3.1448    4.8715    5.4047 H   0  0  0  0  0  0  0  0  0  0  0  0
    4.7042    6.7103    4.2714 H   0  0  0  0  0  0  0  0  0  0  0  0
    2.3567    5.9750    2.7726 H   0  0  0  0  0  0  0  0  0  0  0  0
    1.5703    3.5130    3.6708 H   0  0  0  0  0  0  0  0  0  0  0  0
    2.6349    4.1280    0.7426 H   0  0  0  0  0  0  0  0  0  0  0  0
    4.8821    5.9524    1.1012 H   0  0  0  0  0  0  0  0  0  0  0  0
    7.0866    5.1718    2.8741 H   0  0  0  0  0  0  0  0  0  0  0  0
    5.8604    4.2576    5.5604 H   0  0  0  0  0  0  0  0  0  0  0  0
    4.5177    2.1226    3.8332 H   0  0  0  0  0  0  0  0  0  0  0  0
    4.0551    3.0677    1.5039 H   0  0  0  0  0  0  0  0  0  0  0  0
    5.6308    4.3964    2.0147 H   0  0  0  0  0  0  0  0  0  0  0  0
    5.9479    3.6786    3.6776 H   0  0  0  0  0  0  0  0  0  0  0  0
  1  2  1  0  0  0  0
  2  9  1  0  0  0  0
  3  1  1  0  0  0  0
  4 29  1  0  0  0  0
  5  1  1  0  0  0  0
  6  5  3  0  0  0  0
  7  1  1  0  0  0  0
  8  7  3  0  0  0  0
  9 34  1  0  0  0  0
 10  2  1  0  0  0  0
 11  2  1  0  0  0  0
 12 11  4  0  0  0  0
 13 12  4  0  0  0  0
 14 13  4  0  0  0  0
 15 14  4  0  0  0  0
 16 11  4  0  0  0  0
 17  3  1  0  0  0  0
 18  3  1  0  0  0  0
 19  3  1  0  0  0  0
 20 19  4  0  0  0  0
 21 20  4  0  0  0  0
 22 21  4  0  0  0  0
 23 22  4  0  0  0  0
 24 19  4  0  0  0  0
 25 26  1  0  0  0  0
 26  1  1  0  0  0  0
 27 25  1  0  0  0  0
 28 25  1  0  0  0  0
 29  1  1  0  0  0  0
 30  1  1  0  0  0  0
 31 27  1  0  0  0  0
 32 28  1  0  0  0  0
 33 25  1  0  0  0  0
 35  9  1  0  0  0  0
 36  9  1  0  0  0  0
 37 10  1  0  0  0  0
 38 10  1  0  0  0  0
 39 10  1  0  0  0  0
 40 12  1  0  0  0  0
 41 13  1  0  0  0  0
 42 14  1  0  0  0  0
 43 15  1  0  0  0  0
 44 16  1  0  0  0  0
 45 17  1  0  0  0  0
 46 17  1  0  0  0  0
 47 17  1  0  0  0  0
 48 18  1  0  0  0  0
 49 18  1  0  0  0  0
 50 18  1  0  0  0  0
 51 20  1  0  0  0  0
 52 21  1  0  0  0  0
 53 22  1  0  0  0  0
 54 23  1  0  0  0  0
 55 24  1  0  0  0  0
 56 25  1  0  0  0  0
 57 28  1  0  0  0  0
 58 27  1  0  0  0  0
 59 26  1  0  0  0  0
 60 30  1  0  0  0  0
 61 31  1  0  0  0  0
 62 32  1  0  0  0  0
 63 33  1  0  0  0  0
 64  1  1  0  0  0  0
 65  1  1  0  0  0  0
 66 31  1  0  0  0  0
 67 32  1  0  0  0  0
 15 16  4  0  0  0  0
 23 24  4  0  0  0  0
 25 29  1  0  0  0  0
 26 27  1  0  0  0  0
 26 29  1  0  0  0  0
 26 30  1  0  0  0  0
 27 28  1  0  0  0  0
 27 30  1  0  0  0  0
 28 31  1  0  0  0  0
 28 33  1  0  0  0  0
 29 33  1  0  0  0  0
 29 64  1  0  0  0  0
 30 31  1  0  0  0  0
 30 65  1  0  0  0  0
 31 32  1  0  0  0  0
 32 33  1  0  0  0  0
 32 66  1  0  0  0  0
 33 67  1  0  0  0  0
M  END
$$$$
FASGIR

From CSD data. Using bond type 'Any'. No disordered atoms. Largest molecule.
124147  0  0  0  0  0  0  0  0999 V2000
    4.5766    1.9687   22.7154 Pt  0  0  0  0  0  0  0  0  0  0  0  0
    6.4095    0.3562   23.7435 Pt  0  0  0  0  0  0  0  0  0  0  0  0
    8.1278    1.5165   25.9427 O   0  0  0  0  0  0  0  0  0  0  0  0
    4.3214    4.6140   23.9788 O   0  0  0  0  0  0  0  0  0  0  0  0
    6.6004    1.0222   20.6834 O   0  0  0  0  0  0  0  0  0  0  0  0
    4.1325   -0.0455   23.7203 P   0  0  0  0  0  0  0  0  0  0  0  0
    2.6632    2.7504   21.6972 P   0  0  0  0  0  0  0  0  0  0  0  0
    7.4784   -1.4123   24.8067 P   0  0  0  0  0  0  0  0  0  0  0  0
    7.7002    2.0038   24.7103 B   0  0  0  0  0  0  0  0  0  0  0  0
    6.9002    3.6856   24.7344 B   0  0  0  0  0  0  0  0  0  0  0  0
    6.8128    4.2457   25.6775 H   0  0  0  0  0  0  0  0  0  0  0  0
    6.1486    2.8902   24.8067 H   0  0  0  0  0  0  0  0  0  0  0  0
    5.3755    3.8760   23.5073 B   0  0  0  0  0  0  0  0  0  0  0  0
    6.0706    3.4713   21.8783 B   0  0  0  0  0  0  0  0  0  0  0  0
    5.7264    3.9698   20.9594 H   0  0  0  0  0  0  0  0  0  0  0  0
    6.6582    1.7000   21.8998 B   0  0  0  0  0  0  0  0  0  0  0  0
    8.1117    1.6747   23.0572 B   0  0  0  0  0  0  0  0  0  0  0  0
    8.9937    1.0544   22.8402 H   0  0  0  0  0  0  0  0  0  0  0  0
    8.2730    3.2655   23.7618 B   0  0  0  0  0  0  0  0  0  0  0  0
    9.2586    3.6758   24.0297 H   0  0  0  0  0  0  0  0  0  0  0  0
    7.0024    4.3297   23.1001 B   0  0  0  0  0  0  0  0  0  0  0  0
    7.1786    5.4093   22.9849 H   0  0  0  0  0  0  0  0  0  0  0  0
    7.7527    3.0848   22.0498 B   0  0  0  0  0  0  0  0  0  0  0  0
    8.4155    3.3299   21.2059 H   0  0  0  0  0  0  0  0  0  0  0  0
    3.2027   -1.3429   22.8375 C   0  0  0  0  0  0  0  0  0  0  0  0
    3.8535   -2.3147   22.0793 C   0  0  0  0  0  0  0  0  0  0  0  0
    4.7826   -2.3091   22.0311 H   0  0  0  0  0  0  0  0  0  0  0  0
    3.1530   -3.2767   21.4095 C   0  0  0  0  0  0  0  0  0  0  0  0
    3.6007   -3.9348   20.9299 H   0  0  0  0  0  0  0  0  0  0  0  0
    1.7869   -3.2613   21.4470 C   0  0  0  0  0  0  0  0  0  0  0  0
    1.3109   -3.9152   20.9889 H   0  0  0  0  0  0  0  0  0  0  0  0
    1.1066   -2.3063   22.1409 C   0  0  0  0  0  0  0  0  0  0  0  0
    0.1775   -2.2979   22.1489 H   0  0  0  0  0  0  0  0  0  0  0  0
    1.8246   -1.3541   22.8295 C   0  0  0  0  0  0  0  0  0  0  0  0
    1.3661   -0.6987   23.3010 H   0  0  0  0  0  0  0  0  0  0  0  0
    3.3654    0.0238   25.3747 C   0  0  0  0  0  0  0  0  0  0  0  0
    3.4985    1.1566   26.1302 C   0  0  0  0  0  0  0  0  0  0  0  0
    3.9342    1.8960   25.7712 H   0  0  0  0  0  0  0  0  0  0  0  0
    2.9970    1.2211   27.4189 C   0  0  0  0  0  0  0  0  0  0  0  0
    3.1180    1.9828   27.9414 H   0  0  0  0  0  0  0  0  0  0  0  0
    2.3328    0.1554   27.9039 C   0  0  0  0  0  0  0  0  0  0  0  0
    1.9805    0.2016   28.7612 H   0  0  0  0  0  0  0  0  0  0  0  0
    2.1553   -0.9648   27.1966 C   0  0  0  0  0  0  0  0  0  0  0  0
    1.6793   -1.6761   27.5609 H   0  0  0  0  0  0  0  0  0  0  0  0
    2.6810   -1.0628   25.9293 C   0  0  0  0  0  0  0  0  0  0  0  0
    2.5802   -1.8484   25.4444 H   0  0  0  0  0  0  0  0  0  0  0  0
    2.6192    4.4081   20.9246 C   0  0  0  0  0  0  0  0  0  0  0  0
    2.5089    5.5129   21.7613 C   0  0  0  0  0  0  0  0  0  0  0  0
    2.4430    5.3939   22.6821 H   0  0  0  0  0  0  0  0  0  0  0  0
    2.4982    6.7942   21.2219 C   0  0  0  0  0  0  0  0  0  0  0  0
    2.4256    7.5336   21.7846 H   0  0  0  0  0  0  0  0  0  0  0  0
    2.5977    6.9720   19.8475 C   0  0  0  0  0  0  0  0  0  0  0  0
    2.5909    7.8290   19.4885 H   0  0  0  0  0  0  0  0  0  0  0  0
    2.7079    5.8672   19.0111 C   0  0  0  0  0  0  0  0  0  0  0  0
    2.7738    5.9862   18.0900 H   0  0  0  0  0  0  0  0  0  0  0  0
    2.7173    4.5859   19.5501 C   0  0  0  0  0  0  0  0  0  0  0  0
    2.7913    3.8466   18.9902 H   0  0  0  0  0  0  0  0  0  0  0  0
    1.1052    2.7320   22.5696 C   0  0  0  0  0  0  0  0  0  0  0  0
    1.0259    2.2587   23.9011 C   0  0  0  0  0  0  0  0  0  0  0  0
    1.8044    1.9842   24.3298 H   0  0  0  0  0  0  0  0  0  0  0  0
   -0.1694    2.1957   24.5736 C   0  0  0  0  0  0  0  0  0  0  0  0
   -0.1855    1.8960   25.4551 H   0  0  0  0  0  0  0  0  0  0  0  0
   -1.3392    2.5681   23.9601 C   0  0  0  0  0  0  0  0  0  0  0  0
   -2.1499    2.4743   24.4048 H   0  0  0  0  0  0  0  0  0  0  0  0
   -1.3056    3.0848   22.6714 C   0  0  0  0  0  0  0  0  0  0  0  0
   -2.0908    3.3677   22.2588 H   0  0  0  0  0  0  0  0  0  0  0  0
   -0.1076    3.1759   22.0069 C   0  0  0  0  0  0  0  0  0  0  0  0
   -0.0968    3.5441   21.1523 H   0  0  0  0  0  0  0  0  0  0  0  0
    2.4753    1.5823   20.3057 C   0  0  0  0  0  0  0  0  0  0  0  0
    3.5953    1.3275   19.5260 C   0  0  0  0  0  0  0  0  0  0  0  0
    4.3752    1.8064   19.6921 H   0  0  0  0  0  0  0  0  0  0  0  0
    3.5940    0.3921   18.5160 C   0  0  0  0  0  0  0  0  0  0  0  0
    4.3295    0.2703   17.9587 H   0  0  0  0  0  0  0  0  0  0  0  0
    2.4363   -0.3571   18.3686 C   0  0  0  0  0  0  0  0  0  0  0  0
    2.4269   -1.0320   17.7309 H   0  0  0  0  0  0  0  0  0  0  0  0
    1.3459   -0.1638   19.0893 C   0  0  0  0  0  0  0  0  0  0  0  0
    0.5822   -0.6693   18.9259 H   0  0  0  0  0  0  0  0  0  0  0  0
    1.3486    0.8066   20.0940 C   0  0  0  0  0  0  0  0  0  0  0  0
    0.5929    0.9312   20.6218 H   0  0  0  0  0  0  0  0  0  0  0  0
    7.3305   -1.4199   26.6473 C   0  0  0  0  0  0  0  0  0  0  0  0
    6.3248   -0.7310   27.2475 C   0  0  0  0  0  0  0  0  0  0  0  0
    5.7036   -0.2787   26.7223 H   0  0  0  0  0  0  0  0  0  0  0  0
    6.2064   -0.6903   28.6273 C   0  0  0  0  0  0  0  0  0  0  0  0
    5.5221   -0.2030   29.0265 H   0  0  0  0  0  0  0  0  0  0  0  0
    7.1006   -1.3681   29.3855 C   0  0  0  0  0  0  0  0  0  0  0  0
    7.0105   -1.3681   30.3125 H   0  0  0  0  0  0  0  0  0  0  0  0
    8.1211   -2.0430   28.8148 C   0  0  0  0  0  0  0  0  0  0  0  0
    8.7571   -2.4645   29.3453 H   0  0  0  0  0  0  0  0  0  0  0  0
    8.2206   -2.1088   27.4163 C   0  0  0  0  0  0  0  0  0  0  0  0
    8.8888   -2.6185   27.0171 H   0  0  0  0  0  0  0  0  0  0  0  0
    9.2882   -1.7028   24.6486 C   0  0  0  0  0  0  0  0  0  0  0  0
   10.1675   -0.7029   25.0344 C   0  0  0  0  0  0  0  0  0  0  0  0
    9.8515    0.1428   25.2541 H   0  0  0  0  0  0  0  0  0  0  0  0
   11.5255   -0.9802   25.0907 C   0  0  0  0  0  0  0  0  0  0  0  0
   12.1198   -0.3081   25.3345 H   0  0  0  0  0  0  0  0  0  0  0  0
   11.9934   -2.1929   24.8014 C   0  0  0  0  0  0  0  0  0  0  0  0
   12.8969   -2.3777   24.9166 H   0  0  0  0  0  0  0  0  0  0  0  0
   11.1504   -3.1773   24.3325 C   0  0  0  0  0  0  0  0  0  0  0  0
   11.4959   -3.9908   24.0458 H   0  0  0  0  0  0  0  0  0  0  0  0
    9.7803   -2.9448   24.2923 C   0  0  0  0  0  0  0  0  0  0  0  0
    9.1981   -3.6197   24.0297 H   0  0  0  0  0  0  0  0  0  0  0  0
    6.7644   -2.9840   24.2869 C   0  0  0  0  0  0  0  0  0  0  0  0
    5.9254   -3.7360   25.0853 C   0  0  0  0  0  0  0  0  0  0  0  0
    5.7359   -3.4559   25.9534 H   0  0  0  0  0  0  0  0  0  0  0  0
    5.3688   -4.8968   24.6031 C   0  0  0  0  0  0  0  0  0  0  0  0
    4.8081   -5.3897   25.1577 H   0  0  0  0  0  0  0  0  0  0  0  0
    5.6108   -5.3519   23.3385 C   0  0  0  0  0  0  0  0  0  0  0  0
    5.2290   -6.1473   23.0465 H   0  0  0  0  0  0  0  0  0  0  0  0
    6.4189   -4.6294   22.5053 C   0  0  0  0  0  0  0  0  0  0  0  0
    6.5816   -4.9262   21.6399 H   0  0  0  0  0  0  0  0  0  0  0  0
    6.9930   -3.4559   22.9527 C   0  0  0  0  0  0  0  0  0  0  0  0
    7.5362   -2.9644   22.3820 H   0  0  0  0  0  0  0  0  0  0  0  0
    7.9665    2.2111   27.1751 C   0  0  0  0  0  0  0  0  0  0  0  0
    8.5177    2.9966   27.1751 H   0  0  0  0  0  0  0  0  0  0  0  0
    8.2260    1.6383   27.9012 H   0  0  0  0  0  0  0  0  0  0  0  0
    7.0468    2.4659   27.2823 H   0  0  0  0  0  0  0  0  0  0  0  0
    4.4545    5.5592   25.0398 C   0  0  0  0  0  0  0  0  0  0  0  0
    5.3110    5.9890   24.9809 H   0  0  0  0  0  0  0  0  0  0  0  0
    4.3819    5.1055   25.8838 H   0  0  0  0  0  0  0  0  0  0  0  0
    3.7594    6.2173   24.9701 H   0  0  0  0  0  0  0  0  0  0  0  0
    6.9917   -0.3039   20.4798 C   0  0  0  0  0  0  0  0  0  0  0  0
    7.8414   -0.4537   20.9004 H   0  0  0  0  0  0  0  0  0  0  0  0
    7.0656   -0.4761   19.5394 H   0  0  0  0  0  0  0  0  0  0  0  0
    6.3369   -0.8934   20.8629 H   0  0  0  0  0  0  0  0  0  0  0  0
  1  2  1  0  0  0  0
  2  6  1  0  0  0  0
  3  9  1  0  0  0  0
  4 13  1  0  0  0  0
  5 16  1  0  0  0  0
  6  1  1  0  0  0  0
  7  1  1  0  0  0  0
  8  2  1  0  0  0  0
  9  2  1  0  0  0  0
 10  9  1  0  0  0  0
 11 10  1  0  0  0  0
 12 10  1  0  0  0  0
 13  1  1  0  0  0  0
 14  1  1  0  0  0  0
 15 14  1  0  0  0  0
 16  1  1  0  0  0  0
 17  2  1  0  0  0  0
 18 17  1  0  0  0  0
 19  9  1  0  0  0  0
 20 19  1  0  0  0  0
 21 10  1  0  0  0  0
 22 21  1  0  0  0  0
 23 14  1  0  0  0  0
 24 23  1  0  0  0  0
 25  6  1  0  0  0  0
 26 25  4  0  0  0  0
 27 26  1  0  0  0  0
 28 26  4  0  0  0  0
 29 28  1  0  0  0  0
 30 28  4  0  0  0  0
 31 30  1  0  0  0  0
 32 30  4  0  0  0  0
 33 32  1  0  0  0  0
 34 25  4  0  0  0  0
 35 34  1  0  0  0  0
 36  6  1  0  0  0  0
 37 36  4  0  0  0  0
 38 37  1  0  0  0  0
 39 37  4  0  0  0  0
 40 39  1  0  0  0  0
 41 39  4  0  0  0  0
 42 41  1  0  0  0  0
 43 41  4  0  0  0  0
 44 43  1  0  0  0  0
 45 36  4  0  0  0  0
 46 45  1  0  0  0  0
 47  7  1  0  0  0  0
 48 47  4  0  0  0  0
 49 48  1  0  0  0  0
 50 48  4  0  0  0  0
 51 50  1  0  0  0  0
 52 50  4  0  0  0  0
 53 52  1  0  0  0  0
 54 52  4  0  0  0  0
 55 54  1  0  0  0  0
 56 47  4  0  0  0  0
 57 56  1  0  0  0  0
 58  7  1  0  0  0  0
 59 58  4  0  0  0  0
 60 59  1  0  0  0  0
 61 59  4  0  0  0  0
 62 61  1  0  0  0  0
 63 61  4  0  0  0  0
 64 63  1  0  0  0  0
 65 63  4  0  0  0  0
 66 65  1  0  0  0  0
 67 58  4  0  0  0  0
 68 67  1  0  0  0  0
 69  7  1  0  0  0  0
 70 69  4  0  0  0  0
 71 70  1  0  0  0  0
 72 70  4  0  0  0  0
 73 72  1  0  0  0  0
 74 72  4  0  0  0  0
 75 74  1  0  0  0  0
 76 74  4  0  0  0  0
 77 76  1  0  0  0  0
 78 69  4  0  0  0  0
 79 78  1  0  0  0  0
 80  8  1  0  0  0  0
 81 80  4  0  0  0  0
 82 81  1  0  0  0  0
 83 81  4  0  0  0  0
 84 83  1  0  0  0  0
 85 83  4  0  0  0  0
 86 85  1  0  0  0  0
 87 85  4  0  0  0  0
 88 87  1  0  0  0  0
 89 80  4  0  0  0  0
 90 89  1  0  0  0  0
 91  8  1  0  0  0  0
 92 91  4  0  0  0  0
 93 92  1  0  0  0  0
 94 92  4  0  0  0  0
 95 94  1  0  0  0  0
 96 94  4  0  0  0  0
 97 96  1  0  0  0  0
 98 96  4  0  0  0  0
 99 98  1  0  0  0  0
100 91  4  0  0  0  0
101100  1  0  0  0  0
102  8  1  0  0  0  0
103102  4  0  0  0  0
104103  1  0  0  0  0
105103  4  0  0  0  0
106105  1  0  0  0  0
107105  4  0  0  0  0
108107  1  0  0  0  0
109107  4  0  0  0  0
110109  1  0  0  0  0
111102  4  0  0  0  0
112111  1  0  0  0  0
113  3  1  0  0  0  0
114113  1  0  0  0  0
115113  1  0  0  0  0
116113  1  0  0  0  0
117  4  1  0  0  0  0
118117  1  0  0  0  0
119117  1  0  0  0  0
120117  1  0  0  0  0
121  5  1  0  0  0  0
122121  1  0  0  0  0
123121  1  0  0  0  0
124121  1  0  0  0  0
  2 16  1  0  0  0  0
  9 17  1  0  0  0  0
 10 13  1  0  0  0  0
 10 19  1  0  0  0  0
 13 14  1  0  0  0  0
 13 21  1  0  0  0  0
 14 16  1  0  0  0  0
 14 21  1  0  0  0  0
 16 17  1  0  0  0  0
 16 23  1  0  0  0  0
 17 19  1  0  0  0  0
 17 23  1  0  0  0  0
 19 21  1  0  0  0  0
 19 23  1  0  0  0  0
 21 23  1  0  0  0  0
 32 34  4  0  0  0  0
 43 45  4  0  0  0  0
 54 56  4  0  0  0  0
 65 67  4  0  0  0  0
 76 78  4  0  0  0  0
 87 89  4  0  0  0  0
 98100  4  0  0  0  0
109111  4  0  0  0  0
M  END
$$$$
FASGOX

From CSD data. Using bond type 'Any'. No disordered atoms. Largest molecule.
 99121  0  0  0  0  0  0  0  0999 V2000
    1.6363   12.0389    8.6872 Pt  0  0  0  0  0  0  0  0  0  0  0  0
    3.3818   10.9824    5.9088 B   0  0  0  0  0  0  0  0  0  0  0  0
    1.8722   10.8589    6.8041 B   0  0  0  0  0  0  0  0  0  0  0  0
    3.4456   11.1709    7.6775 B   0  0  0  0  0  0  0  0  0  0  0  0
    4.4258   12.2303    6.6220 B   0  0  0  0  0  0  0  0  0  0  0  0
    3.4179   12.6138    5.2056 B   0  0  0  0  0  0  0  0  0  0  0  0
    1.9068   11.6730    5.2335 B   0  0  0  0  0  0  0  0  0  0  0  0
    3.7021   12.8998    8.0663 B   0  0  0  0  0  0  0  0  0  0  0  0
    3.6359   13.8211    6.4626 B   0  0  0  0  0  0  0  0  0  0  0  0
    1.9189   13.4522    5.5167 B   0  0  0  0  0  0  0  0  0  0  0  0
    0.8590   12.3034    6.5173 B   0  0  0  0  0  0  0  0  0  0  0  0
    3.8201   10.0904    5.4270 H   0  0  0  0  0  0  0  0  0  0  0  0
    1.3255    9.9279    6.9376 H   0  0  0  0  0  0  0  0  0  0  0  0
    3.9441   10.5128    8.2280 H   0  0  0  0  0  0  0  0  0  0  0  0
    5.4612   12.1832    6.5351 H   0  0  0  0  0  0  0  0  0  0  0  0
    3.8602   12.9014    4.2786 H   0  0  0  0  0  0  0  0  0  0  0  0
    1.4543   11.3090    4.2952 H   0  0  0  0  0  0  0  0  0  0  0  0
    3.0274   13.9575    7.4751 H   0  0  0  0  0  0  0  0  0  0  0  0
    4.2598   14.8837    6.2533 H   0  0  0  0  0  0  0  0  0  0  0  0
    1.2080   13.5351    6.7198 H   0  0  0  0  0  0  0  0  0  0  0  0
   -0.2137   12.3099    6.4143 H   0  0  0  0  0  0  0  0  0  0  0  0
    4.4104   13.4051    9.0804 O   0  0  0  0  0  0  0  0  0  0  0  0
    5.4310   14.3930    8.9123 C   0  0  0  0  0  0  0  0  0  0  0  0
    5.5077   14.6189    7.9605 H   0  0  0  0  0  0  0  0  0  0  0  0
    6.2868   14.0420    9.2344 H   0  0  0  0  0  0  0  0  0  0  0  0
    5.1950   15.1973    9.4214 H   0  0  0  0  0  0  0  0  0  0  0  0
    1.4434   14.4549    4.6844 O   0  0  0  0  0  0  0  0  0  0  0  0
    0.0564   14.4921    4.3731 C   0  0  0  0  0  0  0  0  0  0  0  0
   -0.1255   15.2493    3.7790 H   0  0  0  0  0  0  0  0  0  0  0  0
   -0.4620   14.5945    5.1997 H   0  0  0  0  0  0  0  0  0  0  0  0
   -0.2012   13.6569    3.9282 H   0  0  0  0  0  0  0  0  0  0  0  0
   -0.5931   12.6421    9.2069 P   0  0  0  0  0  0  0  0  0  0  0  0
    2.3633   11.9546   10.8989 P   0  0  0  0  0  0  0  0  0  0  0  0
   -0.8566   14.2710    8.4106 C   0  0  0  0  0  0  0  0  0  0  0  0
    0.2039   15.1762    8.4629 C   0  0  0  0  0  0  0  0  0  0  0  0
    1.0051   14.9357    8.9123 H   0  0  0  0  0  0  0  0  0  0  0  0
    0.0990   16.4273    7.8615 C   0  0  0  0  0  0  0  0  0  0  0  0
    0.8325   17.0318    7.8895 H   0  0  0  0  0  0  0  0  0  0  0  0
   -1.0729   16.7881    7.2258 C   0  0  0  0  0  0  0  0  0  0  0  0
   -1.1521   17.6460    6.8240 H   0  0  0  0  0  0  0  0  0  0  0  0
   -2.1300   15.8993    7.1756 C   0  0  0  0  0  0  0  0  0  0  0  0
   -2.9333   16.1479    6.7340 H   0  0  0  0  0  0  0  0  0  0  0  0
   -2.0321   14.6449    7.7651 C   0  0  0  0  0  0  0  0  0  0  0  0
   -2.7659   14.0437    7.7284 H   0  0  0  0  0  0  0  0  0  0  0  0
   -1.9353   11.5446    8.6398 C   0  0  0  0  0  0  0  0  0  0  0  0
   -1.6778   10.4267    7.8407 C   0  0  0  0  0  0  0  0  0  0  0  0
   -0.7860   10.2122    7.5935 H   0  0  0  0  0  0  0  0  0  0  0  0
   -2.7420    9.6240    7.4055 C   0  0  0  0  0  0  0  0  0  0  0  0
   -2.5695    8.8636    6.8642 H   0  0  0  0  0  0  0  0  0  0  0  0
   -4.0275    9.9328    7.7595 C   0  0  0  0  0  0  0  0  0  0  0  0
   -4.7445    9.3933    7.4443 H   0  0  0  0  0  0  0  0  0  0  0  0
   -4.2947   11.0214    8.5726 C   0  0  0  0  0  0  0  0  0  0  0  0
   -5.1882   11.2213    8.8247 H   0  0  0  0  0  0  0  0  0  0  0  0
   -3.2538   11.8160    9.0177 C   0  0  0  0  0  0  0  0  0  0  0  0
   -3.4363   12.5553    9.5872 H   0  0  0  0  0  0  0  0  0  0  0  0
   -1.1407   12.9371   10.9254 C   0  0  0  0  0  0  0  0  0  0  0  0
   -1.4080   14.2078   11.4317 C   0  0  0  0  0  0  0  0  0  0  0  0
   -1.2663   14.9698   10.8823 H   0  0  0  0  0  0  0  0  0  0  0  0
   -1.8762   14.3751   12.7233 C   0  0  0  0  0  0  0  0  0  0  0  0
   -2.0621   15.2477   13.0489 H   0  0  0  0  0  0  0  0  0  0  0  0
   -2.0736   13.2816   13.5425 C   0  0  0  0  0  0  0  0  0  0  0  0
   -2.3761   13.4018   14.4340 H   0  0  0  0  0  0  0  0  0  0  0  0
   -1.8321   12.0093   13.0586 C   0  0  0  0  0  0  0  0  0  0  0  0
   -1.9737   11.2522   13.6171 H   0  0  0  0  0  0  0  0  0  0  0  0
   -1.3818   11.8371   11.7582 C   0  0  0  0  0  0  0  0  0  0  0  0
   -1.2339   10.9597   11.4269 H   0  0  0  0  0  0  0  0  0  0  0  0
    2.0591   13.4820   11.8564 C   0  0  0  0  0  0  0  0  0  0  0  0
    2.4563   14.6822   11.2650 C   0  0  0  0  0  0  0  0  0  0  0  0
    2.8442   14.6725   10.3969 H   0  0  0  0  0  0  0  0  0  0  0  0
    2.2910   15.8863   11.9256 C   0  0  0  0  0  0  0  0  0  0  0  0
    2.5707   16.6938   11.5122 H   0  0  0  0  0  0  0  0  0  0  0  0
    1.7233   15.9155   13.1819 C   0  0  0  0  0  0  0  0  0  0  0  0
    1.6028   16.7426   13.6313 H   0  0  0  0  0  0  0  0  0  0  0  0
    1.3287   14.7310   13.7822 C   0  0  0  0  0  0  0  0  0  0  0  0
    0.9477   14.7489   14.6518 H   0  0  0  0  0  0  0  0  0  0  0  0
    1.4828   13.5221   13.1282 C   0  0  0  0  0  0  0  0  0  0  0  0
    1.1970   12.7178   13.5437 H   0  0  0  0  0  0  0  0  0  0  0  0
    1.5701   10.5141   11.6909 C   0  0  0  0  0  0  0  0  0  0  0  0
    0.9256    9.5764   10.8928 C   0  0  0  0  0  0  0  0  0  0  0  0
    0.8456    9.7280    9.9589 H   0  0  0  0  0  0  0  0  0  0  0  0
    0.3961    8.4184   11.4497 C   0  0  0  0  0  0  0  0  0  0  0  0
   -0.0329    7.7766   10.8965 H   0  0  0  0  0  0  0  0  0  0  0  0
    0.4966    8.2039   12.8189 C   0  0  0  0  0  0  0  0  0  0  0  0
    0.1084    7.4272   13.2051 H   0  0  0  0  0  0  0  0  0  0  0  0
    1.1582    9.1106   13.6211 C   0  0  0  0  0  0  0  0  0  0  0  0
    1.2263    8.9562   14.5571 H   0  0  0  0  0  0  0  0  0  0  0  0
    1.7222   10.2480   13.0600 C   0  0  0  0  0  0  0  0  0  0  0  0
    2.2142   10.8508   13.6053 H   0  0  0  0  0  0  0  0  0  0  0  0
    4.1033   11.5544   11.2825 C   0  0  0  0  0  0  0  0  0  0  0  0
    4.9901   12.4919   11.8091 C   0  0  0  0  0  0  0  0  0  0  0  0
    4.7170   13.3937   11.9289 H   0  0  0  0  0  0  0  0  0  0  0  0
    6.2829   12.0955   12.1576 C   0  0  0  0  0  0  0  0  0  0  0  0
    6.8914   12.7340   12.5114 H   0  0  0  0  0  0  0  0  0  0  0  0
    6.6814   10.7956   11.9942 C   0  0  0  0  0  0  0  0  0  0  0  0
    7.5602   10.5340   12.2438 H   0  0  0  0  0  0  0  0  0  0  0  0
    5.8041    9.8597   11.4662 C   0  0  0  0  0  0  0  0  0  0  0  0
    6.0826    8.9595   11.3512 H   0  0  0  0  0  0  0  0  0  0  0  0
    4.5254   10.2415   11.1073 C   0  0  0  0  0  0  0  0  0  0  0  0
    3.9302    9.5997   10.7379 H   0  0  0  0  0  0  0  0  0  0  0  0
  1  3  1  0  0  0  0
  2  3  1  0  0  0  0
  3  4  1  0  0  0  0
  4  1  1  0  0  0  0
  5  2  1  0  0  0  0
  6  2  1  0  0  0  0
  7  2  1  0  0  0  0
  8  1  1  0  0  0  0
  9  5  1  0  0  0  0
 10  6  1  0  0  0  0
 11  1  1  0  0  0  0
 12  2  1  0  0  0  0
 13  3  1  0  0  0  0
 14  4  1  0  0  0  0
 15  5  1  0  0  0  0
 16  6  1  0  0  0  0
 17  7  1  0  0  0  0
 18  8  1  0  0  0  0
 19  9  1  0  0  0  0
 20 10  1  0  0  0  0
 21 11  1  0  0  0  0
 22  8  1  0  0  0  0
 23 22  1  0  0  0  0
 24 23  1  0  0  0  0
 25 23  1  0  0  0  0
 26 23  1  0  0  0  0
 27 10  1  0  0  0  0
 28 27  1  0  0  0  0
 29 28  1  0  0  0  0
 30 28  1  0  0  0  0
 31 28  1  0  0  0  0
 32  1  1  0  0  0  0
 33  1  1  0  0  0  0
 34 32  1  0  0  0  0
 35 34  4  0  0  0  0
 36 35  1  0  0  0  0
 37 35  4  0  0  0  0
 38 37  1  0  0  0  0
 39 37  4  0  0  0  0
 40 39  1  0  0  0  0
 41 39  4  0  0  0  0
 42 41  1  0  0  0  0
 43 34  4  0  0  0  0
 44 43  1  0  0  0  0
 45 32  1  0  0  0  0
 46 45  4  0  0  0  0
 47 46  1  0  0  0  0
 48 46  4  0  0  0  0
 49 48  1  0  0  0  0
 50 48  4  0  0  0  0
 51 50  1  0  0  0  0
 52 50  4  0  0  0  0
 53 52  1  0  0  0  0
 54 45  4  0  0  0  0
 55 54  1  0  0  0  0
 56 32  1  0  0  0  0
 57 56  4  0  0  0  0
 58 57  1  0  0  0  0
 59 57  4  0  0  0  0
 60 59  1  0  0  0  0
 61 59  4  0  0  0  0
 62 61  1  0  0  0  0
 63 61  4  0  0  0  0
 64 63  1  0  0  0  0
 65 56  4  0  0  0  0
 66 65  1  0  0  0  0
 67 33  1  0  0  0  0
 68 67  4  0  0  0  0
 69 68  1  0  0  0  0
 70 68  4  0  0  0  0
 71 70  1  0  0  0  0
 72 70  4  0  0  0  0
 73 72  1  0  0  0  0
 74 72  4  0  0  0  0
 75 74  1  0  0  0  0
 76 67  4  0  0  0  0
 77 76  1  0  0  0  0
 78 33  1  0  0  0  0
 79 78  4  0  0  0  0
 80 79  1  0  0  0  0
 81 79  4  0  0  0  0
 82 81  1  0  0  0  0
 83 81  4  0  0  0  0
 84 83  1  0  0  0  0
 85 83  4  0  0  0  0
 86 85  1  0  0  0  0
 87 78  4  0  0  0  0
 88 87  1  0  0  0  0
 89 33  1  0  0  0  0
 90 89  4  0  0  0  0
 91 90  1  0  0  0  0
 92 90  4  0  0  0  0
 93 92  1  0  0  0  0
 94 92  4  0  0  0  0
 95 94  1  0  0  0  0
 96 94  4  0  0  0  0
 97 96  1  0  0  0  0
 98 89  4  0  0  0  0
 99 98  1  0  0  0  0
  2  4  1  0  0  0  0
  3  7  1  0  0  0  0
  3 11  1  0  0  0  0
  4  5  1  0  0  0  0
  4  8  1  0  0  0  0
  5  6  1  0  0  0  0
  5  8  1  0  0  0  0
  6  7  1  0  0  0  0
  6  9  1  0  0  0  0
  7 10  1  0  0  0  0
  7 11  1  0  0  0  0
  8  9  1  0  0  0  0
  9 10  1  0  0  0  0
  9 18  1  0  0  0  0
 10 11  1  0  0  0  0
 11 20  1  0  0  0  0
 41 43  4  0  0  0  0
 52 54  4  0  0  0  0
 63 65  4  0  0  0  0
 74 76  4  0  0  0  0
 85 87  4  0  0  0  0
 96 98  4  0  0  0  0
M  END
$$$$
FAWDEN

From CSD data. Using bond type 'Any'. No disordered atoms. Largest molecule.
131154  0  0  0  0  0  0  0  0999 V2000
    4.2388   -0.8473    5.1433 Pt  0  0  0  0  0  0  0  0  0  0  0  0
    3.0977    1.5006    4.5961 Pt  0  0  0  0  0  0  0  0  0  0  0  0
    1.9671   -0.1043    7.2917 Cl  0  0  0  0  0  0  0  0  0  0  0  0
    4.3039   -2.6809    2.8433 O   0  0  0  0  0  0  0  0  0  0  0  0
    1.8494    1.9705    1.9234 O   0  0  0  0  0  0  0  0  0  0  0  0
    5.2986    1.2097    5.1945 P   0  0  0  0  0  0  0  0  0  0  0  0
    5.6789   -2.5235    5.8431 P   0  0  0  0  0  0  0  0  0  0  0  0
    2.7486    3.7724    4.5284 P   0  0  0  0  0  0  0  0  0  0  0  0
    1.5461   -1.9936    3.3041 B   0  0  0  0  0  0  0  0  0  0  0  0
    1.0931   -2.9136    2.9076 H   0  0  0  0  0  0  0  0  0  0  0  0
    2.3386   -2.0069    4.8832 B   0  0  0  0  0  0  0  0  0  0  0  0
    2.3555   -2.9130    5.5075 H   0  0  0  0  0  0  0  0  0  0  0  0
    3.3273   -1.9021    3.3667 B   0  0  0  0  0  0  0  0  0  0  0  0
    2.2890   -0.8588    2.1859 B   0  0  0  0  0  0  0  0  0  0  0  0
    2.7606   -0.8408    1.1930 H   0  0  0  0  0  0  0  0  0  0  0  0
    0.7414   -0.4065    2.9981 B   0  0  0  0  0  0  0  0  0  0  0  0
   -0.1913   -0.3499    2.4172 H   0  0  0  0  0  0  0  0  0  0  0  0
    0.8294   -1.0948    4.6640 B   0  0  0  0  0  0  0  0  0  0  0  0
   -0.0624   -1.4482    5.2031 H   0  0  0  0  0  0  0  0  0  0  0  0
    1.8199    0.9300    2.8363 B   0  0  0  0  0  0  0  0  0  0  0  0
    1.0143    0.6546    4.3649 B   0  0  0  0  0  0  0  0  0  0  0  0
    0.2456    1.3624    4.7075 H   0  0  0  0  0  0  0  0  0  0  0  0
    2.0938   -0.2961    5.5075 B   0  0  0  0  0  0  0  0  0  0  0  0
    3.8684   -3.9003    0.8330 C   0  0  0  0  0  0  0  0  0  0  0  0
    2.9296   -3.7092    0.8904 H   0  0  0  0  0  0  0  0  0  0  0  0
    4.0558   -4.7223    1.2938 H   0  0  0  0  0  0  0  0  0  0  0  0
    4.1221   -3.9852   -0.0887 H   0  0  0  0  0  0  0  0  0  0  0  0
    4.6345   -2.7982    1.4590 C   0  0  0  0  0  0  0  0  0  0  0  0
    4.3987   -1.9596    1.0104 H   0  0  0  0  0  0  0  0  0  0  0  0
    6.1091   -2.9774    1.3808 C   0  0  0  0  0  0  0  0  0  0  0  0
    6.5452   -2.2279    1.7912 H   0  0  0  0  0  0  0  0  0  0  0  0
    6.3756   -3.0373    0.4591 H   0  0  0  0  0  0  0  0  0  0  0  0
    6.3578   -3.7833    1.8381 H   0  0  0  0  0  0  0  0  0  0  0  0
    2.8767    2.3400   -0.1843 C   0  0  0  0  0  0  0  0  0  0  0  0
    3.6488    1.8572    0.1339 H   0  0  0  0  0  0  0  0  0  0  0  0
    2.9890    3.2730   -0.0017 H   0  0  0  0  0  0  0  0  0  0  0  0
    2.7871    2.2034   -1.1304 H   0  0  0  0  0  0  0  0  0  0  0  0
    1.6707    1.8398    0.5043 C   0  0  0  0  0  0  0  0  0  0  0  0
    1.5253    0.8981    0.2765 H   0  0  0  0  0  0  0  0  0  0  0  0
    0.4922    2.6346    0.1009 C   0  0  0  0  0  0  0  0  0  0  0  0
   -0.2865    2.3013    0.5513 H   0  0  0  0  0  0  0  0  0  0  0  0
    0.3693    2.5640   -0.8486 H   0  0  0  0  0  0  0  0  0  0  0  0
    0.6311    3.5541    0.3391 H   0  0  0  0  0  0  0  0  0  0  0  0
    5.8348    2.0956    6.6796 C   0  0  0  0  0  0  0  0  0  0  0  0
    6.2235    3.4155    6.6413 C   0  0  0  0  0  0  0  0  0  0  0  0
    6.3772    3.8413    5.8292 H   0  0  0  0  0  0  0  0  0  0  0  0
    6.3854    4.1069    7.8517 C   0  0  0  0  0  0  0  0  0  0  0  0
    6.6005    5.0103    7.8186 H   0  0  0  0  0  0  0  0  0  0  0  0
    6.2482    3.5389    9.0342 C   0  0  0  0  0  0  0  0  0  0  0  0
    6.3751    4.0339    9.8098 H   0  0  0  0  0  0  0  0  0  0  0  0
    5.9123    2.2075    9.1072 C   0  0  0  0  0  0  0  0  0  0  0  0
    5.8231    1.7896    9.9333 H   0  0  0  0  0  0  0  0  0  0  0  0
    5.7050    1.4842    7.9143 C   0  0  0  0  0  0  0  0  0  0  0  0
    5.4783    0.5835    7.9578 H   0  0  0  0  0  0  0  0  0  0  0  0
    6.5935    1.4493    3.9545 C   0  0  0  0  0  0  0  0  0  0  0  0
    7.8614    1.9240    4.2136 C   0  0  0  0  0  0  0  0  0  0  0  0
    8.0555    2.2624    5.0571 H   0  0  0  0  0  0  0  0  0  0  0  0
    8.8462    1.9080    3.2520 C   0  0  0  0  0  0  0  0  0  0  0  0
    9.6795    2.2700    3.4467 H   0  0  0  0  0  0  0  0  0  0  0  0
    8.6226    1.3692    2.0138 C   0  0  0  0  0  0  0  0  0  0  0  0
    9.2992    1.3607    1.3756 H   0  0  0  0  0  0  0  0  0  0  0  0
    7.3896    0.8427    1.7303 C   0  0  0  0  0  0  0  0  0  0  0  0
    7.2301    0.4708    0.8939 H   0  0  0  0  0  0  0  0  0  0  0  0
    6.3902    0.8568    2.6659 C   0  0  0  0  0  0  0  0  0  0  0  0
    5.5668    0.4758    2.4607 H   0  0  0  0  0  0  0  0  0  0  0  0
    5.9760   -2.1358    7.5839 C   0  0  0  0  0  0  0  0  0  0  0  0
    4.8650   -2.0459    8.4186 C   0  0  0  0  0  0  0  0  0  0  0  0
    4.0193   -2.2236    8.0743 H   0  0  0  0  0  0  0  0  0  0  0  0
    4.9972   -1.6966    9.7559 C   0  0  0  0  0  0  0  0  0  0  0  0
    4.2410   -1.6470   10.2967 H   0  0  0  0  0  0  0  0  0  0  0  0
    6.2253   -1.4279   10.2793 C   0  0  0  0  0  0  0  0  0  0  0  0
    6.3000   -1.1829   11.1732 H   0  0  0  0  0  0  0  0  0  0  0  0
    7.3688   -1.5154    9.4916 C   0  0  0  0  0  0  0  0  0  0  0  0
    8.2003   -1.3061    9.8498 H   0  0  0  0  0  0  0  0  0  0  0  0
    7.2561   -1.9260    8.1456 C   0  0  0  0  0  0  0  0  0  0  0  0
    8.0194   -2.0572    7.6308 H   0  0  0  0  0  0  0  0  0  0  0  0
    7.3549   -2.6027    5.0849 C   0  0  0  0  0  0  0  0  0  0  0  0
    8.1319   -1.4590    5.0779 C   0  0  0  0  0  0  0  0  0  0  0  0
    7.7913   -0.6745    5.4449 H   0  0  0  0  0  0  0  0  0  0  0  0
    9.4244   -1.4565    4.5284 C   0  0  0  0  0  0  0  0  0  0  0  0
    9.9372   -0.6798    4.5110 H   0  0  0  0  0  0  0  0  0  0  0  0
    9.9063   -2.6290    4.0206 C   0  0  0  0  0  0  0  0  0  0  0  0
   10.7803   -2.6612    3.7058 H   0  0  0  0  0  0  0  0  0  0  0  0
    9.1502   -3.7381    3.9667 C   0  0  0  0  0  0  0  0  0  0  0  0
    9.4918   -4.5131    3.5824 H   0  0  0  0  0  0  0  0  0  0  0  0
    7.8673   -3.7329    4.4797 C   0  0  0  0  0  0  0  0  0  0  0  0
    7.3422   -4.4981    4.4154 H   0  0  0  0  0  0  0  0  0  0  0  0
    5.2357   -4.2875    5.9248 C   0  0  0  0  0  0  0  0  0  0  0  0
    5.8140   -5.1186    6.8343 C   0  0  0  0  0  0  0  0  0  0  0  0
    6.4303   -4.7569    7.4308 H   0  0  0  0  0  0  0  0  0  0  0  0
    5.5309   -6.4833    6.9213 C   0  0  0  0  0  0  0  0  0  0  0  0
    6.0071   -7.0237    7.5091 H   0  0  0  0  0  0  0  0  0  0  0  0
    4.5640   -7.0095    6.1457 C   0  0  0  0  0  0  0  0  0  0  0  0
    4.3209   -7.9027    6.2344 H   0  0  0  0  0  0  0  0  0  0  0  0
    3.9462   -6.2135    5.2310 C   0  0  0  0  0  0  0  0  0  0  0  0
    3.2901   -6.5776    4.6832 H   0  0  0  0  0  0  0  0  0  0  0  0
    4.2698   -4.8837    5.0988 C   0  0  0  0  0  0  0  0  0  0  0  0
    3.8413   -4.3711    4.4519 H   0  0  0  0  0  0  0  0  0  0  0  0
    2.3916    4.3425    6.2344 C   0  0  0  0  0  0  0  0  0  0  0  0
    1.7523    5.5532    6.5405 C   0  0  0  0  0  0  0  0  0  0  0  0
    1.4323    6.0985    5.8588 H   0  0  0  0  0  0  0  0  0  0  0  0
    1.5992    5.9294    7.8569 C   0  0  0  0  0  0  0  0  0  0  0  0
    1.1936    6.7439    8.0430 H   0  0  0  0  0  0  0  0  0  0  0  0
    2.0228    5.1459    8.9090 C   0  0  0  0  0  0  0  0  0  0  0  0
    1.9109    5.4278    9.7872 H   0  0  0  0  0  0  0  0  0  0  0  0
    2.6113    3.9508    8.6273 C   0  0  0  0  0  0  0  0  0  0  0  0
    2.8824    3.3907    9.3194 H   0  0  0  0  0  0  0  0  0  0  0  0
    2.8072    3.5641    7.2917 C   0  0  0  0  0  0  0  0  0  0  0  0
    3.2301    2.7548    7.1161 H   0  0  0  0  0  0  0  0  0  0  0  0
    4.1353    4.7914    3.9754 C   0  0  0  0  0  0  0  0  0  0  0  0
    4.4647    6.0083    4.5093 C   0  0  0  0  0  0  0  0  0  0  0  0
    3.9908    6.3202    5.2466 H   0  0  0  0  0  0  0  0  0  0  0  0
    5.4553    6.7778    3.9963 C   0  0  0  0  0  0  0  0  0  0  0  0
    5.6661    7.5872    4.4067 H   0  0  0  0  0  0  0  0  0  0  0  0
    6.1539    6.4029    2.9129 C   0  0  0  0  0  0  0  0  0  0  0  0
    6.7836    6.9664    2.5338 H   0  0  0  0  0  0  0  0  0  0  0  0
    5.9147    5.1370    2.3651 C   0  0  0  0  0  0  0  0  0  0  0  0
    6.4318    4.8407    1.6503 H   0  0  0  0  0  0  0  0  0  0  0  0
    4.8923    4.3041    2.8850 C   0  0  0  0  0  0  0  0  0  0  0  0
    4.7259    3.4648    2.5216 H   0  0  0  0  0  0  0  0  0  0  0  0
    1.3687    4.4840    3.6293 C   0  0  0  0  0  0  0  0  0  0  0  0
    0.0599    4.2311    3.9667 C   0  0  0  0  0  0  0  0  0  0  0  0
   -0.1306    3.6909    4.6988 H   0  0  0  0  0  0  0  0  0  0  0  0
   -0.9882    4.7895    3.2137 C   0  0  0  0  0  0  0  0  0  0  0  0
   -1.8706    4.6356    3.4728 H   0  0  0  0  0  0  0  0  0  0  0  0
   -0.7344    5.5319    2.1164 C   0  0  0  0  0  0  0  0  0  0  0  0
   -1.4476    5.8336    1.6034 H   0  0  0  0  0  0  0  0  0  0  0  0
    0.5453    5.8645    1.7321 C   0  0  0  0  0  0  0  0  0  0  0  0
    0.7075    6.4148    1.0017 H   0  0  0  0  0  0  0  0  0  0  0  0
    1.6024    5.3183    2.5181 C   0  0  0  0  0  0  0  0  0  0  0  0
    2.4795    5.5203    2.2868 H   0  0  0  0  0  0  0  0  0  0  0  0
  1  2  1  0  0  0  0
  2  6  1  0  0  0  0
  3 23  1  0  0  0  0
  4 13  1  0  0  0  0
  5 20  1  0  0  0  0
  6  1  1  0  0  0  0
  7  1  1  0  0  0  0
  8  2  1  0  0  0  0
  9 10  1  0  0  0  0
 11  1  1  0  0  0  0
 12 11  1  0  0  0  0
 13  1  1  0  0  0  0
 14  9  1  0  0  0  0
 15 14  1  0  0  0  0
 16  9  1  0  0  0  0
 17 16  1  0  0  0  0
 18  9  1  0  0  0  0
 19 18  1  0  0  0  0
 20  2  1  0  0  0  0
 21  2  1  0  0  0  0
 22 21  1  0  0  0  0
 23  1  1  0  0  0  0
 24 25  1  0  0  0  0
 26 24  1  0  0  0  0
 27 24  1  0  0  0  0
 28  4  1  0  0  0  0
 29 28  1  0  0  0  0
 30 28  1  0  0  0  0
 31 30  1  0  0  0  0
 32 30  1  0  0  0  0
 33 30  1  0  0  0  0
 34 35  1  0  0  0  0
 36 34  1  0  0  0  0
 37 34  1  0  0  0  0
 38  5  1  0  0  0  0
 39 38  1  0  0  0  0
 40 38  1  0  0  0  0
 41 40  1  0  0  0  0
 42 40  1  0  0  0  0
 43 40  1  0  0  0  0
 44  6  1  0  0  0  0
 45 44  4  0  0  0  0
 46 45  1  0  0  0  0
 47 45  4  0  0  0  0
 48 47  1  0  0  0  0
 49 47  4  0  0  0  0
 50 49  1  0  0  0  0
 51 49  4  0  0  0  0
 52 51  1  0  0  0  0
 53 44  4  0  0  0  0
 54 53  1  0  0  0  0
 55  6  1  0  0  0  0
 56 55  4  0  0  0  0
 57 56  1  0  0  0  0
 58 56  4  0  0  0  0
 59 58  1  0  0  0  0
 60 58  4  0  0  0  0
 61 60  1  0  0  0  0
 62 60  4  0  0  0  0
 63 62  1  0  0  0  0
 64 55  4  0  0  0  0
 65 64  1  0  0  0  0
 66  7  1  0  0  0  0
 67 66  4  0  0  0  0
 68 67  1  0  0  0  0
 69 67  4  0  0  0  0
 70 69  1  0  0  0  0
 71 69  4  0  0  0  0
 72 71  1  0  0  0  0
 73 71  4  0  0  0  0
 74 73  1  0  0  0  0
 75 66  4  0  0  0  0
 76 75  1  0  0  0  0
 77  7  1  0  0  0  0
 78 77  4  0  0  0  0
 79 78  1  0  0  0  0
 80 78  4  0  0  0  0
 81 80  1  0  0  0  0
 82 80  4  0  0  0  0
 83 82  1  0  0  0  0
 84 82  4  0  0  0  0
 85 84  1  0  0  0  0
 86 77  4  0  0  0  0
 87 86  1  0  0  0  0
 88  7  1  0  0  0  0
 89 88  4  0  0  0  0
 90 89  1  0  0  0  0
 91 89  4  0  0  0  0
 92 91  1  0  0  0  0
 93 91  4  0  0  0  0
 94 93  1  0  0  0  0
 95 93  4  0  0  0  0
 96 95  1  0  0  0  0
 97 88  4  0  0  0  0
 98 97  1  0  0  0  0
 99  8  1  0  0  0  0
100 99  4  0  0  0  0
101100  1  0  0  0  0
102100  4  0  0  0  0
103102  1  0  0  0  0
104102  4  0  0  0  0
105104  1  0  0  0  0
106104  4  0  0  0  0
107106  1  0  0  0  0
108 99  4  0  0  0  0
109108  1  0  0  0  0
110  8  1  0  0  0  0
111110  4  0  0  0  0
112111  1  0  0  0  0
113111  4  0  0  0  0
114113  1  0  0  0  0
115113  4  0  0  0  0
116115  1  0  0  0  0
117115  4  0  0  0  0
118117  1  0  0  0  0
119110  4  0  0  0  0
120119  1  0  0  0  0
121  8  1  0  0  0  0
122121  4  0  0  0  0
123122  1  0  0  0  0
124122  4  0  0  0  0
125124  1  0  0  0  0
126124  4  0  0  0  0
127126  1  0  0  0  0
128126  4  0  0  0  0
129128  1  0  0  0  0
130121  4  0  0  0  0
131130  1  0  0  0  0
  2 23  1  0  0  0  0
  9 11  1  0  0  0  0
  9 13  1  0  0  0  0
 11 13  1  0  0  0  0
 11 18  1  0  0  0  0
 11 23  1  0  0  0  0
 13 14  1  0  0  0  0
 14 16  1  0  0  0  0
 14 20  1  0  0  0  0
 16 18  1  0  0  0  0
 16 20  1  0  0  0  0
 16 21  1  0  0  0  0
 18 21  1  0  0  0  0
 18 23  1  0  0  0  0
 20 21  1  0  0  0  0
 21 23  1  0  0  0  0
 24 28  1  0  0  0  0
 34 38  1  0  0  0  0
 51 53  4  0  0  0  0
 62 64  4  0  0  0  0
 73 75  4  0  0  0  0
 84 86  4  0  0  0  0
 95 97  4  0  0  0  0
106108  4  0  0  0  0
117119  4  0  0  0  0
128130  4  0  0  0  0
M  END
$$$$
FAWDEN01

From CSD data. Using bond type 'Any'. Matching problem. Disorder unknown. Sizes unknown.
  0  0  0  0  0  0  0  0  0  0999 V2000
M  END
$$$$
FAWDIR

From CSD data. Using bond type 'Any'. No disordered atoms. Largest molecule.
141164  0  0  0  0  0  0  0  0999 V2000
    8.1468   12.0033    9.0179 Pt  0  0  0  0  0  0  0  0  0  0  0  0
    9.4568   14.1523    8.2352 Pt  0  0  0  0  0  0  0  0  0  0  0  0
    9.1722   10.7865    5.9678 B   0  0  0  0  0  0  0  0  0  0  0  0
    7.7433   11.2683    6.9190 B   0  0  0  0  0  0  0  0  0  0  0  0
    9.1562   10.4883    7.6762 B   0  0  0  0  0  0  0  0  0  0  0  0
   10.6958   11.1959    6.7206 B   0  0  0  0  0  0  0  0  0  0  0  0
   10.0895   12.2268    5.4403 B   0  0  0  0  0  0  0  0  0  0  0  0
    8.3056   12.2858    5.5804 B   0  0  0  0  0  0  0  0  0  0  0  0
   10.8307   13.0860    6.7412 B   0  0  0  0  0  0  0  0  0  0  0  0
    9.3006   13.6891    6.0473 B   0  0  0  0  0  0  0  0  0  0  0  0
    7.8102   13.1298    7.0397 B   0  0  0  0  0  0  0  0  0  0  0  0
   12.0576   13.6715    6.9237 O   0  0  0  0  0  0  0  0  0  0  0  0
    6.7153   13.9903    7.0756 O   0  0  0  0  0  0  0  0  0  0  0  0
    9.3387    9.3948    8.4620 O   0  0  0  0  0  0  0  0  0  0  0  0
    9.1239   13.5351   10.4270 P   0  0  0  0  0  0  0  0  0  0  0  0
    6.9171   10.5527   10.3483 P   0  0  0  0  0  0  0  0  0  0  0  0
   10.3027   16.2903    8.0327 P   0  0  0  0  0  0  0  0  0  0  0  0
   13.7898   12.8350    5.4884 C   0  0  0  0  0  0  0  0  0  0  0  0
   13.1580   12.3111    4.9904 H   0  0  0  0  0  0  0  0  0  0  0  0
   14.6442   12.3970    5.4811 H   0  0  0  0  0  0  0  0  0  0  0  0
   13.8712   13.7042    5.0910 H   0  0  0  0  0  0  0  0  0  0  0  0
   13.3146   12.9748    6.9090 C   0  0  0  0  0  0  0  0  0  0  0  0
   13.1875   12.0820    7.2917 H   0  0  0  0  0  0  0  0  0  0  0  0
   14.2585   13.7430    7.7775 C   0  0  0  0  0  0  0  0  0  0  0  0
   13.9080   13.7868    8.6706 H   0  0  0  0  0  0  0  0  0  0  0  0
   14.3599   14.6324    7.4316 H   0  0  0  0  0  0  0  0  0  0  0  0
   15.1112   13.3050    7.7898 H   0  0  0  0  0  0  0  0  0  0  0  0
    4.7788   14.8481    8.1087 C   0  0  0  0  0  0  0  0  0  0  0  0
    5.3173   15.1816    8.8300 H   0  0  0  0  0  0  0  0  0  0  0  0
    3.9001   14.6392    8.4375 H   0  0  0  0  0  0  0  0  0  0  0  0
    4.7144   15.5135    7.4218 H   0  0  0  0  0  0  0  0  0  0  0  0
    5.4144   13.5998    7.5434 C   0  0  0  0  0  0  0  0  0  0  0  0
    5.5128   12.9344    8.2559 H   0  0  0  0  0  0  0  0  0  0  0  0
    4.6069   13.0051    6.4109 C   0  0  0  0  0  0  0  0  0  0  0  0
    5.0447   12.2150    6.0871 H   0  0  0  0  0  0  0  0  0  0  0  0
    4.5323   13.6453    5.6994 H   0  0  0  0  0  0  0  0  0  0  0  0
    3.7297   12.7760    6.7299 H   0  0  0  0  0  0  0  0  0  0  0  0
   10.7686    7.8132    9.5219 C   0  0  0  0  0  0  0  0  0  0  0  0
   11.2142    8.5039   10.0200 H   0  0  0  0  0  0  0  0  0  0  0  0
   11.3763    7.0837    9.3723 H   0  0  0  0  0  0  0  0  0  0  0  0
   10.0098    7.4998   10.0200 H   0  0  0  0  0  0  0  0  0  0  0  0
   10.3149    8.3573    8.2137 C   0  0  0  0  0  0  0  0  0  0  0  0
   11.0796    8.7279    7.7235 H   0  0  0  0  0  0  0  0  0  0  0  0
    9.6304    7.2926    7.3727 C   0  0  0  0  0  0  0  0  0  0  0  0
    9.3542    7.6750    6.5361 H   0  0  0  0  0  0  0  0  0  0  0  0
    8.8620    6.9591    7.8413 H   0  0  0  0  0  0  0  0  0  0  0  0
   10.2418    6.5716    7.2083 H   0  0  0  0  0  0  0  0  0  0  0  0
    8.1711   14.4102   11.7134 C   0  0  0  0  0  0  0  0  0  0  0  0
    7.5842   15.6213   11.4214 C   0  0  0  0  0  0  0  0  0  0  0  0
    7.7353   16.0172   10.5941 H   0  0  0  0  0  0  0  0  0  0  0  0
    6.7783   16.2513   12.3405 C   0  0  0  0  0  0  0  0  0  0  0  0
    6.3865   17.0667   12.1251 H   0  0  0  0  0  0  0  0  0  0  0  0
    6.5473   15.6954   13.5643 C   0  0  0  0  0  0  0  0  0  0  0  0
    6.0051   16.1317   14.1811 H   0  0  0  0  0  0  0  0  0  0  0  0
    7.1177   14.4892   13.8800 C   0  0  0  0  0  0  0  0  0  0  0  0
    6.9586   14.1052   14.7135 H   0  0  0  0  0  0  0  0  0  0  0  0
    7.9343   13.8339   12.9651 C   0  0  0  0  0  0  0  0  0  0  0  0
    8.3226   13.0186   13.1850 H   0  0  0  0  0  0  0  0  0  0  0  0
   10.6388   12.9347   11.2818 C   0  0  0  0  0  0  0  0  0  0  0  0
   11.0621   13.4633   12.4887 C   0  0  0  0  0  0  0  0  0  0  0  0
   10.5687   14.1388   12.8955 H   0  0  0  0  0  0  0  0  0  0  0  0
   12.2140   12.9933   13.0954 C   0  0  0  0  0  0  0  0  0  0  0  0
   12.4790   13.3437   13.9136 H   0  0  0  0  0  0  0  0  0  0  0  0
   12.9671   12.0179   12.5004 C   0  0  0  0  0  0  0  0  0  0  0  0
   13.7476   11.7147   12.9053 H   0  0  0  0  0  0  0  0  0  0  0  0
   12.5584   11.4957   11.3081 C   0  0  0  0  0  0  0  0  0  0  0  0
   13.0609   10.8236   10.9057 H   0  0  0  0  0  0  0  0  0  0  0  0
   11.4087   11.9539   10.6873 C   0  0  0  0  0  0  0  0  0  0  0  0
   11.1542   11.5985    9.8654 H   0  0  0  0  0  0  0  0  0  0  0  0
    7.6145   10.3480   12.0304 C   0  0  0  0  0  0  0  0  0  0  0  0
    6.8543   10.5035   13.1761 C   0  0  0  0  0  0  0  0  0  0  0  0
    5.9337   10.6231   13.1114 H   0  0  0  0  0  0  0  0  0  0  0  0
    7.4614   10.4799   14.4164 C   0  0  0  0  0  0  0  0  0  0  0  0
    6.9491   10.5995   15.1821 H   0  0  0  0  0  0  0  0  0  0  0  0
    8.7896   10.2845   14.5250 C   0  0  0  0  0  0  0  0  0  0  0  0
    9.1878   10.2811   15.3661 H   0  0  0  0  0  0  0  0  0  0  0  0
    9.5633   10.0908   13.4009 C   0  0  0  0  0  0  0  0  0  0  0  0
   10.4760    9.9358   13.4794 H   0  0  0  0  0  0  0  0  0  0  0  0
    8.9618   10.1278   12.1437 C   0  0  0  0  0  0  0  0  0  0  0  0
    9.4766   10.0032   11.3792 H   0  0  0  0  0  0  0  0  0  0  0  0
    6.5960    8.8458    9.7840 C   0  0  0  0  0  0  0  0  0  0  0  0
    5.9449    8.6588    8.5727 C   0  0  0  0  0  0  0  0  0  0  0  0
    5.6647    9.3916    8.0719 H   0  0  0  0  0  0  0  0  0  0  0  0
    5.7149    7.3684    8.1112 C   0  0  0  0  0  0  0  0  0  0  0  0
    5.2843    7.2387    7.2966 H   0  0  0  0  0  0  0  0  0  0  0  0
    6.1144    6.2970    8.8374 C   0  0  0  0  0  0  0  0  0  0  0  0
    5.9523    5.4362    8.5258 H   0  0  0  0  0  0  0  0  0  0  0  0
    6.7520    6.4807   10.0273 C   0  0  0  0  0  0  0  0  0  0  0  0
    7.0323    5.7411   10.5180 H   0  0  0  0  0  0  0  0  0  0  0  0
    6.9864    7.7559   10.5139 C   0  0  0  0  0  0  0  0  0  0  0  0
    7.4075    7.8705   11.3350 H   0  0  0  0  0  0  0  0  0  0  0  0
    5.2484   11.2279   10.6675 C   0  0  0  0  0  0  0  0  0  0  0  0
    5.1105   12.5755   10.9319 C   0  0  0  0  0  0  0  0  0  0  0  0
    5.8640   13.1213   10.9302 H   0  0  0  0  0  0  0  0  0  0  0  0
    3.8766   13.1230   11.1976 C   0  0  0  0  0  0  0  0  0  0  0  0
    3.7980   14.0327   11.3817 H   0  0  0  0  0  0  0  0  0  0  0  0
    2.7593   12.3195   11.1903 C   0  0  0  0  0  0  0  0  0  0  0  0
    1.9208   12.6901   11.3547 H   0  0  0  0  0  0  0  0  0  0  0  0
    2.8722   11.0004   10.9498 C   0  0  0  0  0  0  0  0  0  0  0  0
    2.1140   10.4631   10.9548 H   0  0  0  0  0  0  0  0  0  0  0  0
    4.1016   10.4395   10.6949 C   0  0  0  0  0  0  0  0  0  0  0  0
    4.1685    9.5264   10.5401 H   0  0  0  0  0  0  0  0  0  0  0  0
    9.0405   17.4467    8.6718 C   0  0  0  0  0  0  0  0  0  0  0  0
    9.3380   18.4582    9.5516 C   0  0  0  0  0  0  0  0  0  0  0  0
   10.2060   18.5643    9.8679 H   0  0  0  0  0  0  0  0  0  0  0  0
    8.3325   19.3240    9.9685 C   0  0  0  0  0  0  0  0  0  0  0  0
    8.5341   19.9928   10.5818 H   0  0  0  0  0  0  0  0  0  0  0  0
    7.0684   19.2129    9.4998 C   0  0  0  0  0  0  0  0  0  0  0  0
    6.4151   19.8143    9.7771 H   0  0  0  0  0  0  0  0  0  0  0  0
    6.7507   18.2088    8.6139 C   0  0  0  0  0  0  0  0  0  0  0  0
    5.8843   18.1280    8.2878 H   0  0  0  0  0  0  0  0  0  0  0  0
    7.7338   17.3244    8.2142 C   0  0  0  0  0  0  0  0  0  0  0  0
    7.5166   16.6354    7.6278 H   0  0  0  0  0  0  0  0  0  0  0  0
   11.8381   16.6526    8.9598 C   0  0  0  0  0  0  0  0  0  0  0  0
   12.7868   17.5603    8.5275 C   0  0  0  0  0  0  0  0  0  0  0  0
   12.6330   18.0572    7.7554 H   0  0  0  0  0  0  0  0  0  0  0  0
   13.9564   17.7355    9.2275 C   0  0  0  0  0  0  0  0  0  0  0  0
   14.5918   18.3419    8.9208 H   0  0  0  0  0  0  0  0  0  0  0  0
   14.1912   17.0397   10.3512 C   0  0  0  0  0  0  0  0  0  0  0  0
   14.9924   17.1526   10.8125 H   0  0  0  0  0  0  0  0  0  0  0  0
   13.2576   16.1755   10.8125 C   0  0  0  0  0  0  0  0  0  0  0  0
   13.4008   15.7156   11.6074 H   0  0  0  0  0  0  0  0  0  0  0  0
   12.0957   15.9751   10.1002 C   0  0  0  0  0  0  0  0  0  0  0  0
   11.4735   15.3568   10.4125 H   0  0  0  0  0  0  0  0  0  0  0  0
   10.6498   17.0111    6.3881 C   0  0  0  0  0  0  0  0  0  0  0  0
    9.8794   18.0067    5.8304 C   0  0  0  0  0  0  0  0  0  0  0  0
    9.1200   18.3032    6.2784 H   0  0  0  0  0  0  0  0  0  0  0  0
   10.2156   18.5677    4.6189 C   0  0  0  0  0  0  0  0  0  0  0  0
    9.6721   19.2263    4.2494 H   0  0  0  0  0  0  0  0  0  0  0  0
   11.3333   18.1684    3.9577 C   0  0  0  0  0  0  0  0  0  0  0  0
   11.5725   18.5693    3.1527 H   0  0  0  0  0  0  0  0  0  0  0  0
   12.1022   17.1745    4.4891 C   0  0  0  0  0  0  0  0  0  0  0  0
   12.8663   16.8932    4.0384 H   0  0  0  0  0  0  0  0  0  0  0  0
   11.7593   16.5798    5.6894 C   0  0  0  0  0  0  0  0  0  0  0  0
   12.2796   15.8875    6.0282 H   0  0  0  0  0  0  0  0  0  0  0  0
   10.6530   12.2689    4.4138 H   0  0  0  0  0  0  0  0  0  0  0  0
   11.5219   10.6467    6.4919 H   0  0  0  0  0  0  0  0  0  0  0  0
    9.1313    9.7555    5.2038 H   0  0  0  0  0  0  0  0  0  0  0  0
    9.3047   14.5381    5.4443 H   0  0  0  0  0  0  0  0  0  0  0  0
    7.6185   12.3481    4.6935 H   0  0  0  0  0  0  0  0  0  0  0  0
    6.8067   10.7174    6.7863 H   0  0  0  0  0  0  0  0  0  0  0  0
  1  2  1  0  0  0  0
  2  9  1  0  0  0  0
  3  4  1  0  0  0  0
  4  1  1  0  0  0  0
  5  1  1  0  0  0  0
  6  3  1  0  0  0  0
  7  3  1  0  0  0  0
  8  3  1  0  0  0  0
  9  6  1  0  0  0  0
 10  2  1  0  0  0  0
 11  1  1  0  0  0  0
 12  9  1  0  0  0  0
 13 11  1  0  0  0  0
 14  5  1  0  0  0  0
 15  1  1  0  0  0  0
 16  1  1  0  0  0  0
 17  2  1  0  0  0  0
 18 19  1  0  0  0  0
 20 18  1  0  0  0  0
 21 18  1  0  0  0  0
 22 12  1  0  0  0  0
 23 22  1  0  0  0  0
 24 22  1  0  0  0  0
 25 24  1  0  0  0  0
 26 24  1  0  0  0  0
 27 24  1  0  0  0  0
 28 29  1  0  0  0  0
 30 28  1  0  0  0  0
 31 28  1  0  0  0  0
 32 13  1  0  0  0  0
 33 32  1  0  0  0  0
 34 32  1  0  0  0  0
 35 34  1  0  0  0  0
 36 34  1  0  0  0  0
 37 34  1  0  0  0  0
 38 39  1  0  0  0  0
 40 38  1  0  0  0  0
 41 38  1  0  0  0  0
 42 14  1  0  0  0  0
 43 42  1  0  0  0  0
 44 42  1  0  0  0  0
 45 44  1  0  0  0  0
 46 44  1  0  0  0  0
 47 44  1  0  0  0  0
 48 15  1  0  0  0  0
 49 48  4  0  0  0  0
 50 49  1  0  0  0  0
 51 49  4  0  0  0  0
 52 51  1  0  0  0  0
 53 51  4  0  0  0  0
 54 53  1  0  0  0  0
 55 53  4  0  0  0  0
 56 55  1  0  0  0  0
 57 48  4  0  0  0  0
 58 57  1  0  0  0  0
 59 15  1  0  0  0  0
 60 59  4  0  0  0  0
 61 60  1  0  0  0  0
 62 60  4  0  0  0  0
 63 62  1  0  0  0  0
 64 62  4  0  0  0  0
 65 64  1  0  0  0  0
 66 64  4  0  0  0  0
 67 66  1  0  0  0  0
 68 59  4  0  0  0  0
 69 68  1  0  0  0  0
 70 16  1  0  0  0  0
 71 70  4  0  0  0  0
 72 71  1  0  0  0  0
 73 71  4  0  0  0  0
 74 73  1  0  0  0  0
 75 73  4  0  0  0  0
 76 75  1  0  0  0  0
 77 75  4  0  0  0  0
 78 77  1  0  0  0  0
 79 70  4  0  0  0  0
 80 79  1  0  0  0  0
 81 16  1  0  0  0  0
 82 81  4  0  0  0  0
 83 82  1  0  0  0  0
 84 82  4  0  0  0  0
 85 84  1  0  0  0  0
 86 84  4  0  0  0  0
 87 86  1  0  0  0  0
 88 86  4  0  0  0  0
 89 88  1  0  0  0  0
 90 81  4  0  0  0  0
 91 90  1  0  0  0  0
 92 16  1  0  0  0  0
 93 92  4  0  0  0  0
 94 93  1  0  0  0  0
 95 93  4  0  0  0  0
 96 95  1  0  0  0  0
 97 95  4  0  0  0  0
 98 97  1  0  0  0  0
 99 97  4  0  0  0  0
100 99  1  0  0  0  0
101 92  4  0  0  0  0
102101  1  0  0  0  0
103 17  1  0  0  0  0
104103  4  0  0  0  0
105104  1  0  0  0  0
106104  4  0  0  0  0
107106  1  0  0  0  0
108106  4  0  0  0  0
109108  1  0  0  0  0
110108  4  0  0  0  0
111110  1  0  0  0  0
112103  4  0  0  0  0
113112  1  0  0  0  0
114 17  1  0  0  0  0
115114  4  0  0  0  0
116115  1  0  0  0  0
117115  4  0  0  0  0
118117  1  0  0  0  0
119117  4  0  0  0  0
120119  1  0  0  0  0
121119  4  0  0  0  0
122121  1  0  0  0  0
123114  4  0  0  0  0
124123  1  0  0  0  0
125 17  1  0  0  0  0
126125  4  0  0  0  0
127126  1  0  0  0  0
128126  4  0  0  0  0
129128  1  0  0  0  0
130128  4  0  0  0  0
131130  1  0  0  0  0
132130  4  0  0  0  0
133132  1  0  0  0  0
134125  4  0  0  0  0
135134  1  0  0  0  0
136  7  1  0  0  0  0
137  6  1  0  0  0  0
138  3  1  0  0  0  0
139 10  1  0  0  0  0
140  8  1  0  0  0  0
141  4  1  0  0  0  0
  2 11  1  0  0  0  0
  2 15  1  0  0  0  0
  3  5  1  0  0  0  0
  4  5  1  0  0  0  0
  4  8  1  0  0  0  0
  4 11  1  0  0  0  0
  5  6  1  0  0  0  0
  6  7  1  0  0  0  0
  7  8  1  0  0  0  0
  7  9  1  0  0  0  0
  7 10  1  0  0  0  0
  8 10  1  0  0  0  0
  8 11  1  0  0  0  0
  9 10  1  0  0  0  0
 10 11  1  0  0  0  0
 18 22  1  0  0  0  0
 28 32  1  0  0  0  0
 38 42  1  0  0  0  0
 55 57  4  0  0  0  0
 66 68  4  0  0  0  0
 77 79  4  0  0  0  0
 88 90  4  0  0  0  0
 99101  4  0  0  0  0
110112  4  0  0  0  0
121123  4  0  0  0  0
132134  4  0  0  0  0
M  END
$$$$
FAWDIR01

From CSD data. Using bond type 'Any'. Matching problem. Disorder unknown. Sizes unknown.
  0  0  0  0  0  0  0  0  0  0999 V2000
M  END
$$$$
FAYTIL

From CSD data. Using bond type 'Any'. No disordered atoms. Largest molecule.
148163  0  0  0  0  0  0  0  0999 V2000
    9.8466   10.8725   10.7036 Ni  0  3  0  0  0  0  0  0  0  0  0  0
    7.7463   10.7762   10.5275 P   0  0  0  0  0  0  0  0  0  0  0  0
    9.8426    9.8327   12.5431 P   0  0  0  0  0  0  0  0  0  0  0  0
   11.7401   10.9003   10.5648 O   0  0  0  0  0  0  0  0  0  0  0  0
   12.3153   10.8095   11.1720 H   0  0  0  0  0  0  0  0  0  0  0  0
    6.3900    8.8679   13.4791 O   0  0  0  0  0  0  0  0  0  0  0  0
    5.6527    8.9814   13.8903 H   0  0  0  0  0  0  0  0  0  0  0  0
    6.7804   10.6834   11.8475 N   0  0  0  0  0  0  0  0  0  0  0  0
    8.5632    9.9522   13.5695 N   0  0  0  0  0  0  0  0  0  0  0  0
    6.5529   11.2603   14.2712 N   0  3  0  0  0  0  0  0  0  0  0  0
    7.1022   11.9949   14.1261 H   0  0  0  0  0  0  0  0  0  0  0  0
    5.3282   10.9423   11.6630 C   0  0  0  0  0  0  0  0  0  0  0  0
    4.8144   10.1157   11.8422 H   0  0  0  0  0  0  0  0  0  0  0  0
    5.1537   11.2205   10.7297 H   0  0  0  0  0  0  0  0  0  0  0  0
    4.8906   12.0369   12.6168 C   0  0  0  0  0  0  0  0  0  0  0  0
    5.3832   12.8703   12.4063 H   0  0  0  0  0  0  0  0  0  0  0  0
    3.9238   12.2129   12.4908 H   0  0  0  0  0  0  0  0  0  0  0  0
    5.1446   11.6554   14.0550 C   0  0  0  0  0  0  0  0  0  0  0  0
    4.9268   12.4230   14.6411 H   0  0  0  0  0  0  0  0  0  0  0  0
    4.5525   10.9026   14.3030 H   0  0  0  0  0  0  0  0  0  0  0  0
    6.7825   10.9094   15.6984 C   0  0  0  0  0  0  0  0  0  0  0  0
    6.2370   10.1180   15.9383 H   0  0  0  0  0  0  0  0  0  0  0  0
    6.5035   11.6633   16.2764 H   0  0  0  0  0  0  0  0  0  0  0  0
    8.2515   10.6062   15.9289 C   0  0  0  0  0  0  0  0  0  0  0  0
    8.7793   11.4340   15.8008 H   0  0  0  0  0  0  0  0  0  0  0  0
    8.3785   10.3053   16.8641 H   0  0  0  0  0  0  0  0  0  0  0  0
    8.7683    9.5378   14.9874 C   0  0  0  0  0  0  0  0  0  0  0  0
    9.7328    9.3868   15.1541 H   0  0  0  0  0  0  0  0  0  0  0  0
    8.2908    8.6873   15.1561 H   0  0  0  0  0  0  0  0  0  0  0  0
    7.1648   12.2504    9.6322 C   0  0  0  0  0  0  0  0  0  0  0  0
    7.3722   13.4744   10.2608 C   0  0  0  0  0  0  0  0  0  0  0  0
    7.8209   13.5050   11.0973 H   0  0  0  0  0  0  0  0  0  0  0  0
    6.9288   14.6496    9.6743 C   0  0  0  0  0  0  0  0  0  0  0  0
    7.0657   15.4819   10.1106 H   0  0  0  0  0  0  0  0  0  0  0  0
    6.2859   14.6064    8.4458 C   0  0  0  0  0  0  0  0  0  0  0  0
    5.9857   15.4103    8.0389 H   0  0  0  0  0  0  0  0  0  0  0  0
    6.0814   13.4063    7.8168 C   0  0  0  0  0  0  0  0  0  0  0  0
    5.6296   13.3824    6.9815 H   0  0  0  0  0  0  0  0  0  0  0  0
    6.5284   12.2277    8.3914 C   0  0  0  0  0  0  0  0  0  0  0  0
    6.4032   11.4011    7.9387 H   0  0  0  0  0  0  0  0  0  0  0  0
    7.4245    9.3345    9.4673 C   0  0  0  0  0  0  0  0  0  0  0  0
    8.0626    9.1869    8.2261 C   0  0  0  0  0  0  0  0  0  0  0  0
    8.5967    9.8943    7.8837 H   0  0  0  0  0  0  0  0  0  0  0  0
    7.9205    8.0276    7.5020 C   0  0  0  0  0  0  0  0  0  0  0  0
    8.3540    7.9368    6.6611 H   0  0  0  0  0  0  0  0  0  0  0  0
    7.1541    7.0023    7.9910 C   0  0  0  0  0  0  0  0  0  0  0  0
    7.0543    6.2052    7.4847 H   0  0  0  0  0  0  0  0  0  0  0  0
    6.5294    7.1193    9.2102 C   0  0  0  0  0  0  0  0  0  0  0  0
    6.0029    6.4017    9.5406 H   0  0  0  0  0  0  0  0  0  0  0  0
    6.6642    8.2786    9.9591 C   0  0  0  0  0  0  0  0  0  0  0  0
    6.2377    8.3512   10.8044 H   0  0  0  0  0  0  0  0  0  0  0  0
   11.2383   10.5608   13.4653 C   0  0  0  0  0  0  0  0  0  0  0  0
   12.4799    9.9806   13.6426 C   0  0  0  0  0  0  0  0  0  0  0  0
   12.6452    9.1052   13.3105 H   0  0  0  0  0  0  0  0  0  0  0  0
   13.4913   10.6721   14.3076 C   0  0  0  0  0  0  0  0  0  0  0  0
   14.3463   10.2736   14.4190 H   0  0  0  0  0  0  0  0  0  0  0  0
   13.2472   11.9313   14.7999 C   0  0  0  0  0  0  0  0  0  0  0  0
   13.9329   12.3991   15.2622 H   0  0  0  0  0  0  0  0  0  0  0  0
   12.0101   12.5172   14.6262 C   0  0  0  0  0  0  0  0  0  0  0  0
   11.8473   13.3870   14.9733 H   0  0  0  0  0  0  0  0  0  0  0  0
   11.0117   11.8518   13.9546 C   0  0  0  0  0  0  0  0  0  0  0  0
   10.1679   12.2674   13.8235 H   0  0  0  0  0  0  0  0  0  0  0  0
    7.0809   10.0930   13.2401 B   0  5  0  0  0  0  0  0  0  0  0  0
   10.2263    8.0776   12.2385 C   0  0  0  0  0  0  0  0  0  0  0  0
   11.3150    7.6575   11.4843 C   0  0  0  0  0  0  0  0  0  0  0  0
   11.9036    8.3024   11.1071 H   0  0  0  0  0  0  0  0  0  0  0  0
   11.5525    6.3154   11.2775 C   0  0  0  0  0  0  0  0  0  0  0  0
   12.3142    6.0429   10.7808 H   0  0  0  0  0  0  0  0  0  0  0  0
   10.6939    5.3627   11.7842 C   0  0  0  0  0  0  0  0  0  0  0  0
   10.8692    4.4396   11.6437 H   0  0  0  0  0  0  0  0  0  0  0  0
    9.5737    5.7567   12.5001 C   0  0  0  0  0  0  0  0  0  0  0  0
    8.9697    5.1073   12.8407 H   0  0  0  0  0  0  0  0  0  0  0  0
    9.3435    7.1056   12.7149 C   0  0  0  0  0  0  0  0  0  0  0  0
    8.5697    7.3747   13.1965 H   0  0  0  0  0  0  0  0  0  0  0  0
   11.9925   11.8365    8.9515 Ni  0  3  0  0  0  0  0  0  0  0  0  0
   14.0927   11.9328    9.1276 P   0  0  0  0  0  0  0  0  0  0  0  0
   11.9965   12.8763    7.1120 P   0  0  0  0  0  0  0  0  0  0  0  0
   10.0990   11.8087    9.0903 O   0  0  0  0  0  0  0  0  0  0  0  0
    9.5238   11.8995    8.4832 H   0  0  0  0  0  0  0  0  0  0  0  0
   15.4490   13.8411    6.1760 O   0  0  0  0  0  0  0  0  0  0  0  0
   16.1863   13.7276    5.7648 H   0  0  0  0  0  0  0  0  0  0  0  0
   15.0587   12.0256    7.8076 N   0  0  0  0  0  0  0  0  0  0  0  0
   13.2759   12.7568    6.0856 N   0  0  0  0  0  0  0  0  0  0  0  0
   15.2862   11.4487    5.3839 N   0  3  0  0  0  0  0  0  0  0  0  0
   14.7369   10.7141    5.5290 H   0  0  0  0  0  0  0  0  0  0  0  0
   16.5108   11.7667    7.9922 C   0  0  0  0  0  0  0  0  0  0  0  0
   17.0247   12.5933    7.8129 H   0  0  0  0  0  0  0  0  0  0  0  0
   16.6854   11.4885    8.9254 H   0  0  0  0  0  0  0  0  0  0  0  0
   16.9485   10.6721    7.0383 C   0  0  0  0  0  0  0  0  0  0  0  0
   16.4559    9.8387    7.2488 H   0  0  0  0  0  0  0  0  0  0  0  0
   17.9153   10.4961    7.1643 H   0  0  0  0  0  0  0  0  0  0  0  0
   16.6945   11.0536    5.6001 C   0  0  0  0  0  0  0  0  0  0  0  0
   16.9123   10.2860    5.0140 H   0  0  0  0  0  0  0  0  0  0  0  0
   17.2866   11.8064    5.3521 H   0  0  0  0  0  0  0  0  0  0  0  0
   15.0566   11.7996    3.9568 C   0  0  0  0  0  0  0  0  0  0  0  0
   15.6021   12.5910    3.7168 H   0  0  0  0  0  0  0  0  0  0  0  0
   15.3355   11.0457    3.3787 H   0  0  0  0  0  0  0  0  0  0  0  0
   13.5876   12.1028    3.7262 C   0  0  0  0  0  0  0  0  0  0  0  0
   13.0598   11.2750    3.8544 H   0  0  0  0  0  0  0  0  0  0  0  0
   13.4606   12.4037    2.7910 H   0  0  0  0  0  0  0  0  0  0  0  0
   13.0707   13.1712    4.6677 C   0  0  0  0  0  0  0  0  0  0  0  0
   12.1063   13.3222    4.5010 H   0  0  0  0  0  0  0  0  0  0  0  0
   13.5483   14.0217    4.4991 H   0  0  0  0  0  0  0  0  0  0  0  0
   14.6743   10.4586   10.0229 C   0  0  0  0  0  0  0  0  0  0  0  0
   14.4668    9.2346    9.3944 C   0  0  0  0  0  0  0  0  0  0  0  0
   14.0181    9.2040    8.5578 H   0  0  0  0  0  0  0  0  0  0  0  0
   14.9103    8.0594    9.9809 C   0  0  0  0  0  0  0  0  0  0  0  0
   14.7734    7.2271    9.5445 H   0  0  0  0  0  0  0  0  0  0  0  0
   15.5531    8.1026   11.2093 C   0  0  0  0  0  0  0  0  0  0  0  0
   15.8533    7.2987   11.6162 H   0  0  0  0  0  0  0  0  0  0  0  0
   15.7577    9.3027   11.8383 C   0  0  0  0  0  0  0  0  0  0  0  0
   16.2095    9.3266   12.6736 H   0  0  0  0  0  0  0  0  0  0  0  0
   15.3107   10.4813   11.2638 C   0  0  0  0  0  0  0  0  0  0  0  0
   15.4359   11.3079   11.7164 H   0  0  0  0  0  0  0  0  0  0  0  0
   14.4146   13.3745   10.1878 C   0  0  0  0  0  0  0  0  0  0  0  0
   13.7765   13.5221   11.4291 C   0  0  0  0  0  0  0  0  0  0  0  0
   13.2423   12.8147   11.7715 H   0  0  0  0  0  0  0  0  0  0  0  0
   13.9186   14.6814   12.1532 C   0  0  0  0  0  0  0  0  0  0  0  0
   13.4851   14.7722   12.9940 H   0  0  0  0  0  0  0  0  0  0  0  0
   14.6850   15.7067   11.6641 C   0  0  0  0  0  0  0  0  0  0  0  0
   14.7847   16.5038   12.1705 H   0  0  0  0  0  0  0  0  0  0  0  0
   15.3097   15.5897   10.4449 C   0  0  0  0  0  0  0  0  0  0  0  0
   15.8362   16.3073   10.1145 H   0  0  0  0  0  0  0  0  0  0  0  0
   15.1749   14.4304    9.6961 C   0  0  0  0  0  0  0  0  0  0  0  0
   15.6014   14.3578    8.8507 H   0  0  0  0  0  0  0  0  0  0  0  0
   10.6008   12.1482    6.1898 C   0  0  0  0  0  0  0  0  0  0  0  0
    9.3591   12.7284    6.0125 C   0  0  0  0  0  0  0  0  0  0  0  0
    9.1939   13.6038    6.3447 H   0  0  0  0  0  0  0  0  0  0  0  0
    8.3478   12.0369    5.3476 C   0  0  0  0  0  0  0  0  0  0  0  0
    7.4927   12.4354    5.2361 H   0  0  0  0  0  0  0  0  0  0  0  0
    8.5919   10.7777    4.8552 C   0  0  0  0  0  0  0  0  0  0  0  0
    7.9062   10.3099    4.3929 H   0  0  0  0  0  0  0  0  0  0  0  0
    9.8290   10.1918    5.0290 C   0  0  0  0  0  0  0  0  0  0  0  0
    9.9917    9.3220    4.6819 H   0  0  0  0  0  0  0  0  0  0  0  0
   10.8274   10.8572    5.7006 C   0  0  0  0  0  0  0  0  0  0  0  0
   11.6711   10.4416    5.8317 H   0  0  0  0  0  0  0  0  0  0  0  0
   14.7582   12.6160    6.4150 B   0  5  0  0  0  0  0  0  0  0  0  0
   11.6127   14.6314    7.4167 C   0  0  0  0  0  0  0  0  0  0  0  0
   10.5240   15.0515    8.1708 C   0  0  0  0  0  0  0  0  0  0  0  0
    9.9355   14.4066    8.5480 H   0  0  0  0  0  0  0  0  0  0  0  0
   10.2866   16.3936    8.3776 C   0  0  0  0  0  0  0  0  0  0  0  0
    9.5248   16.6661    8.8743 H   0  0  0  0  0  0  0  0  0  0  0  0
   11.1451   17.3463    7.8709 C   0  0  0  0  0  0  0  0  0  0  0  0
   10.9699   18.2694    8.0114 H   0  0  0  0  0  0  0  0  0  0  0  0
   12.2653   16.9523    7.1551 C   0  0  0  0  0  0  0  0  0  0  0  0
   12.8694   17.6017    6.8144 H   0  0  0  0  0  0  0  0  0  0  0  0
   12.4955   15.6034    6.9402 C   0  0  0  0  0  0  0  0  0  0  0  0
   13.2694   15.3343    6.4587 H   0  0  0  0  0  0  0  0  0  0  0  0
  1  2  1  0  0  0  0
  2  8  1  0  0  0  0
  3  1  1  0  0  0  0
  4  1  1  0  0  0  0
  5  4  1  0  0  0  0
  6  7  1  0  0  0  0
  8 12  1  0  0  0  0
  9  3  1  0  0  0  0
 10 11  1  0  0  0  0
 12 13  1  0  0  0  0
 14 12  1  0  0  0  0
 15 12  1  0  0  0  0
 16 15  1  0  0  0  0
 17 15  1  0  0  0  0
 18 10  1  0  0  0  0
 19 18  1  0  0  0  0
 20 18  1  0  0  0  0
 21 10  1  0  0  0  0
 22 21  1  0  0  0  0
 23 21  1  0  0  0  0
 24 21  1  0  0  0  0
 25 24  1  0  0  0  0
 26 24  1  0  0  0  0
 27  9  1  0  0  0  0
 28 27  1  0  0  0  0
 29 27  1  0  0  0  0
 30  2  1  0  0  0  0
 31 30  4  0  0  0  0
 32 31  1  0  0  0  0
 33 31  4  0  0  0  0
 34 33  1  0  0  0  0
 35 33  4  0  0  0  0
 36 35  1  0  0  0  0
 37 35  4  0  0  0  0
 38 37  1  0  0  0  0
 39 30  4  0  0  0  0
 40 39  1  0  0  0  0
 41  2  1  0  0  0  0
 42 41  4  0  0  0  0
 43 42  1  0  0  0  0
 44 42  4  0  0  0  0
 45 44  1  0  0  0  0
 46 44  4  0  0  0  0
 47 46  1  0  0  0  0
 48 46  4  0  0  0  0
 49 48  1  0  0  0  0
 50 41  4  0  0  0  0
 51 50  1  0  0  0  0
 52  3  1  0  0  0  0
 53 52  4  0  0  0  0
 54 53  1  0  0  0  0
 55 53  4  0  0  0  0
 56 55  1  0  0  0  0
 57 55  4  0  0  0  0
 58 57  1  0  0  0  0
 59 57  4  0  0  0  0
 60 59  1  0  0  0  0
 61 52  4  0  0  0  0
 62 61  1  0  0  0  0
 63  6  1  0  0  0  0
 64  3  1  0  0  0  0
 65 64  4  0  0  0  0
 66 65  1  0  0  0  0
 67 65  4  0  0  0  0
 68 67  1  0  0  0  0
 69 67  4  0  0  0  0
 70 69  1  0  0  0  0
 71 69  4  0  0  0  0
 72 71  1  0  0  0  0
 73 64  4  0  0  0  0
 74 73  1  0  0  0  0
 75  1  1  0  0  0  0
 76 75  1  0  0  0  0
 77 75  1  0  0  0  0
 78  1  1  0  0  0  0
 79 78  1  0  0  0  0
 80 81  1  0  0  0  0
 82 76  1  0  0  0  0
 83 77  1  0  0  0  0
 84 85  1  0  0  0  0
 86 82  1  0  0  0  0
 87 86  1  0  0  0  0
 88 86  1  0  0  0  0
 89 86  1  0  0  0  0
 90 89  1  0  0  0  0
 91 89  1  0  0  0  0
 92 84  1  0  0  0  0
 93 92  1  0  0  0  0
 94 92  1  0  0  0  0
 95 84  1  0  0  0  0
 96 95  1  0  0  0  0
 97 95  1  0  0  0  0
 98 95  1  0  0  0  0
 99 98  1  0  0  0  0
100 98  1  0  0  0  0
101 83  1  0  0  0  0
102101  1  0  0  0  0
103101  1  0  0  0  0
104 76  1  0  0  0  0
105104  4  0  0  0  0
106105  1  0  0  0  0
107105  4  0  0  0  0
108107  1  0  0  0  0
109107  4  0  0  0  0
110109  1  0  0  0  0
111109  4  0  0  0  0
112111  1  0  0  0  0
113104  4  0  0  0  0
114113  1  0  0  0  0
115 76  1  0  0  0  0
116115  4  0  0  0  0
117116  1  0  0  0  0
118116  4  0  0  0  0
119118  1  0  0  0  0
120118  4  0  0  0  0
121120  1  0  0  0  0
122120  4  0  0  0  0
123122  1  0  0  0  0
124115  4  0  0  0  0
125124  1  0  0  0  0
126 77  1  0  0  0  0
127126  4  0  0  0  0
128127  1  0  0  0  0
129127  4  0  0  0  0
130129  1  0  0  0  0
131129  4  0  0  0  0
132131  1  0  0  0  0
133131  4  0  0  0  0
134133  1  0  0  0  0
135126  4  0  0  0  0
136135  1  0  0  0  0
137 80  1  0  0  0  0
138 77  1  0  0  0  0
139138  4  0  0  0  0
140139  1  0  0  0  0
141139  4  0  0  0  0
142141  1  0  0  0  0
143141  4  0  0  0  0
144143  1  0  0  0  0
145143  4  0  0  0  0
146145  1  0  0  0  0
147138  4  0  0  0  0
148147  1  0  0  0  0
  4 75  1  0  0  0  0
  8 63  1  0  0  0  0
  9 63  1  0  0  0  0
 10 63  1  0  0  0  0
 15 18  1  0  0  0  0
 24 27  1  0  0  0  0
 37 39  4  0  0  0  0
 48 50  4  0  0  0  0
 59 61  4  0  0  0  0
 71 73  4  0  0  0  0
 75 78  1  0  0  0  0
 82137  1  0  0  0  0
 83137  1  0  0  0  0
 84137  1  0  0  0  0
 89 92  1  0  0  0  0
 98101  1  0  0  0  0
111113  4  0  0  0  0
122124  4  0  0  0  0
133135  4  0  0  0  0
145147  4  0  0  0  0
M  CHG  6   1   1  10   1  63  -1  75   1  84   1 137  -1
M  END
$$$$
FAYWAG

From CSD data. Using bond type 'Any'. No disordered atoms. Largest molecule.
146160  0  0  0  0  0  0  0  0999 V2000
    2.7081   19.4739   12.6836 Ni  0  3  0  0  0  0  0  0  0  0  0  0
    3.5985   20.9353   10.3861 Ni  0  3  0  0  0  0  0  0  0  0  0  0
    0.7637   19.0812   13.4621 P   0  0  0  0  0  0  0  0  0  0  0  0
    5.3744   20.9431    9.2073 P   0  0  0  0  0  0  0  0  0  0  0  0
    3.4354   17.7117   13.6464 P   0  0  0  0  0  0  0  0  0  0  0  0
    2.6574   22.2604    9.0038 P   0  0  0  0  0  0  0  0  0  0  0  0
    4.6352   22.3782    5.7597 F   0  0  0  0  0  0  0  0  0  0  0  0
    0.9355   16.3688   16.0217 F   0  0  0  0  0  0  0  0  0  0  0  0
    2.2344   21.0188   11.6999 O   0  0  0  0  0  0  0  0  0  0  0  0
    4.3400   19.9569   11.8382 O   0  0  0  0  0  0  0  0  0  0  0  0
    1.7496   18.2702   17.2303 N   0  0  0  0  0  0  0  0  0  0  0  0
    2.1699   19.1692   17.1014 H   0  0  0  0  0  0  0  0  0  0  0  0
    5.2478   20.9278    7.5625 N   0  0  0  0  0  0  0  0  0  0  0  0
    2.9411   17.4051   15.1905 N   0  0  0  0  0  0  0  0  0  0  0  0
    3.5892   20.2159    5.8107 N   0  0  0  0  0  0  0  0  0  0  0  0
    3.1882   19.5513    6.4420 H   0  0  0  0  0  0  0  0  0  0  0  0
    0.6177   18.5327   15.0104 N   0  0  0  0  0  0  0  0  0  0  0  0
    2.9075   22.0396    7.3885 N   0  0  0  0  0  0  0  0  0  0  0  0
   -0.0370   17.9089   12.3337 C   0  0  0  0  0  0  0  0  0  0  0  0
    5.8993   18.2391    9.4509 C   0  0  0  0  0  0  0  0  0  0  0  0
    4.9808   18.1365    9.2313 H   0  0  0  0  0  0  0  0  0  0  0  0
    6.4382   19.5163    9.6108 C   0  0  0  0  0  0  0  0  0  0  0  0
   -0.2298   20.6022   13.3928 C   0  0  0  0  0  0  0  0  0  0  0  0
    6.3409   22.3980    9.7045 C   0  0  0  0  0  0  0  0  0  0  0  0
    7.7778   19.6458    9.9719 C   0  0  0  0  0  0  0  0  0  0  0  0
    8.1475   20.5063   10.1214 H   0  0  0  0  0  0  0  0  0  0  0  0
    6.7735   23.3220    8.7649 C   0  0  0  0  0  0  0  0  0  0  0  0
    6.6113   23.1708    7.8416 H   0  0  0  0  0  0  0  0  0  0  0  0
    3.0901   16.2749   12.5890 C   0  0  0  0  0  0  0  0  0  0  0  0
    8.5755   18.5127   10.1138 C   0  0  0  0  0  0  0  0  0  0  0  0
    9.4921   18.6059   10.3460 H   0  0  0  0  0  0  0  0  0  0  0  0
    3.1563   23.9575    9.4428 C   0  0  0  0  0  0  0  0  0  0  0  0
    0.8442   22.2568    9.1911 C   0  0  0  0  0  0  0  0  0  0  0  0
    0.1128   18.0685   10.9615 C   0  0  0  0  0  0  0  0  0  0  0  0
    0.5690   18.8293   10.6192 H   0  0  0  0  0  0  0  0  0  0  0  0
   -0.4901   19.3088   17.0607 C   0  0  0  0  0  0  0  0  0  0  0  0
   -0.1156   20.2182   16.9422 H   0  0  0  0  0  0  0  0  0  0  0  0
   -1.3654   19.3959   17.5155 H   0  0  0  0  0  0  0  0  0  0  0  0
    8.0431   17.2611    9.9206 C   0  0  0  0  0  0  0  0  0  0  0  0
    8.5963   16.4918    9.9990 H   0  0  0  0  0  0  0  0  0  0  0  0
    2.6587   17.4838   18.1030 C   0  0  0  0  0  0  0  0  0  0  0  0
    2.2301   16.6213   18.3369 H   0  0  0  0  0  0  0  0  0  0  0  0
    2.8240   17.9811   18.9420 H   0  0  0  0  0  0  0  0  0  0  0  0
    0.1564   21.0839    8.8783 C   0  0  0  0  0  0  0  0  0  0  0  0
    0.6340   20.2862    8.6815 H   0  0  0  0  0  0  0  0  0  0  0  0
    6.7032   17.1209    9.6131 C   0  0  0  0  0  0  0  0  0  0  0  0
    6.3313   16.2523    9.5112 H   0  0  0  0  0  0  0  0  0  0  0  0
    0.4442   18.4910   17.9267 C   0  0  0  0  0  0  0  0  0  0  0  0
    0.6016   18.9653   18.7827 H   0  0  0  0  0  0  0  0  0  0  0  0
    0.0263   17.6185   18.1307 H   0  0  0  0  0  0  0  0  0  0  0  0
   -0.6938   18.6697   15.7022 C   0  0  0  0  0  0  0  0  0  0  0  0
   -1.1091   17.7771   15.8107 H   0  0  0  0  0  0  0  0  0  0  0  0
   -1.3020   19.2308   15.1569 H   0  0  0  0  0  0  0  0  0  0  0  0
    7.4434   24.4697    9.1684 C   0  0  0  0  0  0  0  0  0  0  0  0
    7.7390   25.0971    8.5189 H   0  0  0  0  0  0  0  0  0  0  0  0
    6.5779   22.6424   11.0658 C   0  0  0  0  0  0  0  0  0  0  0  0
    6.2808   22.0215   11.7222 H   0  0  0  0  0  0  0  0  0  0  0  0
    3.7659   16.5339   16.0690 C   0  0  0  0  0  0  0  0  0  0  0  0
    4.6413   16.3591   15.6414 H   0  0  0  0  0  0  0  0  0  0  0  0
    3.3089   15.6663   16.2063 H   0  0  0  0  0  0  0  0  0  0  0  0
    6.3421   20.3694    6.7284 C   0  0  0  0  0  0  0  0  0  0  0  0
    7.1029   20.1081    7.3052 H   0  0  0  0  0  0  0  0  0  0  0  0
    6.6599   21.0567    6.0899 H   0  0  0  0  0  0  0  0  0  0  0  0
    7.2499   23.7966   11.4463 C   0  0  0  0  0  0  0  0  0  0  0  0
    7.4142   23.9640   12.3676 H   0  0  0  0  0  0  0  0  0  0  0  0
    5.2481   17.8399   13.7680 C   0  0  0  0  0  0  0  0  0  0  0  0
    0.2505   21.7304   14.0586 C   0  0  0  0  0  0  0  0  0  0  0  0
    1.0609   21.6815   14.5518 H   0  0  0  0  0  0  0  0  0  0  0  0
   -1.2380   21.0926    8.8583 C   0  0  0  0  0  0  0  0  0  0  0  0
   -1.7132   20.2991    8.6446 H   0  0  0  0  0  0  0  0  0  0  0  0
   -1.4181   20.6915   12.6859 C   0  0  0  0  0  0  0  0  0  0  0  0
   -1.7556   19.9333   12.2251 H   0  0  0  0  0  0  0  0  0  0  0  0
    6.1116   17.0173   13.0485 C   0  0  0  0  0  0  0  0  0  0  0  0
    5.7653   16.3300   12.4900 H   0  0  0  0  0  0  0  0  0  0  0  0
   -0.6874   16.7874   12.8165 C   0  0  0  0  0  0  0  0  0  0  0  0
   -0.7845   16.6569   13.7522 H   0  0  0  0  0  0  0  0  0  0  0  0
    7.6802   24.7024   10.4999 C   0  0  0  0  0  0  0  0  0  0  0  0
    8.1426   25.4888   10.7701 H   0  0  0  0  0  0  0  0  0  0  0  0
    0.1338   23.4003    9.5179 C   0  0  0  0  0  0  0  0  0  0  0  0
    0.5984   24.1938    9.7610 H   0  0  0  0  0  0  0  0  0  0  0  0
   -1.2003   15.8498   11.9274 C   0  0  0  0  0  0  0  0  0  0  0  0
   -1.6601   15.0868   12.2603 H   0  0  0  0  0  0  0  0  0  0  0  0
    5.8295   19.1547    5.9671 C   0  0  0  0  0  0  0  0  0  0  0  0
    6.5639   18.7775    5.4211 H   0  0  0  0  0  0  0  0  0  0  0  0
    5.5415   18.4602    6.6129 H   0  0  0  0  0  0  0  0  0  0  0  0
   -0.4526   22.9218   14.0018 C   0  0  0  0  0  0  0  0  0  0  0  0
   -0.1216   23.6888   14.4563 H   0  0  0  0  0  0  0  0  0  0  0  0
   -1.9316   22.2484    9.1481 C   0  0  0  0  0  0  0  0  0  0  0  0
   -2.8807   22.2513    9.1106 H   0  0  0  0  0  0  0  0  0  0  0  0
   -1.0505   16.0120   10.5743 C   0  0  0  0  0  0  0  0  0  0  0  0
   -1.3934   15.3587    9.9739 H   0  0  0  0  0  0  0  0  0  0  0  0
    3.0984   16.4196   11.2076 C   0  0  0  0  0  0  0  0  0  0  0  0
    3.3346   17.2559   10.8221 H   0  0  0  0  0  0  0  0  0  0  0  0
   -2.1154   21.8942   12.6509 C   0  0  0  0  0  0  0  0  0  0  0  0
   -2.9383   21.9470   12.1782 H   0  0  0  0  0  0  0  0  0  0  0  0
    3.9755   17.2199   17.4027 C   0  0  0  0  0  0  0  0  0  0  0  0
    4.4481   18.0782   17.2590 H   0  0  0  0  0  0  0  0  0  0  0  0
    4.5452   16.6505   17.9781 H   0  0  0  0  0  0  0  0  0  0  0  0
   -0.4020   17.1209   10.0894 C   0  0  0  0  0  0  0  0  0  0  0  0
   -0.3048   17.2397    9.1525 H   0  0  0  0  0  0  0  0  0  0  0  0
    3.5229   24.8640    8.4619 C   0  0  0  0  0  0  0  0  0  0  0  0
    3.4834   24.6147    7.5466 H   0  0  0  0  0  0  0  0  0  0  0  0
    1.9074   22.5207    6.4009 C   0  0  0  0  0  0  0  0  0  0  0  0
    2.3242   23.1902    5.8033 H   0  0  0  0  0  0  0  0  0  0  0  0
    1.1531   22.9539    6.8744 H   0  0  0  0  0  0  0  0  0  0  0  0
    2.5107   20.6209    4.8580 C   0  0  0  0  0  0  0  0  0  0  0  0
    2.1422   19.8167    4.4153 H   0  0  0  0  0  0  0  0  0  0  0  0
    2.8931   21.2089    4.1589 H   0  0  0  0  0  0  0  0  0  0  0  0
    1.3927   21.3562    5.5813 C   0  0  0  0  0  0  0  0  0  0  0  0
    0.7411   21.6913    4.9165 H   0  0  0  0  0  0  0  0  0  0  0  0
    0.9204   20.7232    6.1788 H   0  0  0  0  0  0  0  0  0  0  0  0
    2.4146   14.1492   10.9361 C   0  0  0  0  0  0  0  0  0  0  0  0
    2.1918   13.4194   10.3712 H   0  0  0  0  0  0  0  0  0  0  0  0
    4.6675   19.5105    5.0630 C   0  0  0  0  0  0  0  0  0  0  0  0
    4.9903   20.0887    4.3282 H   0  0  0  0  0  0  0  0  0  0  0  0
    4.3003   18.6836    4.6617 H   0  0  0  0  0  0  0  0  0  0  0  0
    3.2245   24.3301   10.7778 C   0  0  0  0  0  0  0  0  0  0  0  0
    2.9763   23.7115   11.4557 H   0  0  0  0  0  0  0  0  0  0  0  0
    5.7628   18.8448   14.5771 C   0  0  0  0  0  0  0  0  0  0  0  0
    5.1762   19.4121   15.0631 H   0  0  0  0  0  0  0  0  0  0  0  0
    7.4908   17.2106   13.1555 C   0  0  0  0  0  0  0  0  0  0  0  0
    8.0861   16.6505   12.6693 H   0  0  0  0  0  0  0  0  0  0  0  0
    4.1237   21.4601    6.7065 B   0  0  0  0  0  0  0  0  0  0  0  0
   -1.6276   23.0028   13.2928 C   0  0  0  0  0  0  0  0  0  0  0  0
   -2.1002   23.8248   13.2477 H   0  0  0  0  0  0  0  0  0  0  0  0
   -1.2572   23.3916    9.4911 C   0  0  0  0  0  0  0  0  0  0  0  0
   -1.7398   24.1776    9.7107 H   0  0  0  0  0  0  0  0  0  0  0  0
    2.7108   15.0566   13.1342 C   0  0  0  0  0  0  0  0  0  0  0  0
    2.6754   14.9508   14.0774 H   0  0  0  0  0  0  0  0  0  0  0  0
    2.7642   15.3545   10.3884 C   0  0  0  0  0  0  0  0  0  0  0  0
    2.7774   15.4591    9.4442 H   0  0  0  0  0  0  0  0  0  0  0  0
    1.5583   17.6233   15.7653 B   0  0  0  0  0  0  0  0  0  0  0  0
    3.9471   26.1386    8.8169 C   0  0  0  0  0  0  0  0  0  0  0  0
    4.1902   26.7644    8.1434 H   0  0  0  0  0  0  0  0  0  0  0  0
    2.3843   13.9931   12.3056 C   0  0  0  0  0  0  0  0  0  0  0  0
    2.1410   13.1572   12.6828 H   0  0  0  0  0  0  0  0  0  0  0  0
    7.9889   18.1973   13.9550 C   0  0  0  0  0  0  0  0  0  0  0  0
    8.9287   18.3210   14.0171 H   0  0  0  0  0  0  0  0  0  0  0  0
    4.0158   26.4963   10.1432 C   0  0  0  0  0  0  0  0  0  0  0  0
    4.3145   27.3666   10.3846 H   0  0  0  0  0  0  0  0  0  0  0  0
    7.1446   19.0148   14.6725 C   0  0  0  0  0  0  0  0  0  0  0  0
    7.5023   19.6937   15.2324 H   0  0  0  0  0  0  0  0  0  0  0  0
    3.6513   25.5973   11.1253 C   0  0  0  0  0  0  0  0  0  0  0  0
    3.6934   25.8482   12.0407 H   0  0  0  0  0  0  0  0  0  0  0  0
    1.5894   21.1668   11.5446 H   0  0  0  0  0  0  0  0  0  0  0  0
    4.8628   19.4574   11.7256 H   0  0  0  0  0  0  0  0  0  0  0  0
  1  3  1  0  0  0  0
  2  4  1  0  0  0  0
  3 17  1  0  0  0  0
  4 13  1  0  0  0  0
  5  1  1  0  0  0  0
  6  2  1  0  0  0  0
  7123  1  0  0  0  0
  8132  1  0  0  0  0
  9  1  1  0  0  0  0
 10  1  1  0  0  0  0
 11 12  1  0  0  0  0
 13 61  1  0  0  0  0
 14  5  1  0  0  0  0
 15 16  1  0  0  0  0
 17 51  1  0  0  0  0
 18  6  1  0  0  0  0
 19  3  1  0  0  0  0
 20 21  1  0  0  0  0
 22  4  1  0  0  0  0
 23  3  1  0  0  0  0
 24  4  1  0  0  0  0
 25 22  4  0  0  0  0
 26 25  1  0  0  0  0
 27 24  4  0  0  0  0
 28 27  1  0  0  0  0
 29  5  1  0  0  0  0
 30 25  4  0  0  0  0
 31 30  1  0  0  0  0
 32  6  1  0  0  0  0
 33  6  1  0  0  0  0
 34 19  4  0  0  0  0
 35 34  1  0  0  0  0
 36 37  1  0  0  0  0
 38 36  1  0  0  0  0
 39 30  4  0  0  0  0
 40 39  1  0  0  0  0
 41 11  1  0  0  0  0
 42 41  1  0  0  0  0
 43 41  1  0  0  0  0
 44 33  4  0  0  0  0
 45 44  1  0  0  0  0
 46 20  4  0  0  0  0
 47 46  1  0  0  0  0
 48 11  1  0  0  0  0
 49 48  1  0  0  0  0
 50 48  1  0  0  0  0
 51 36  1  0  0  0  0
 52 51  1  0  0  0  0
 53 51  1  0  0  0  0
 54 27  4  0  0  0  0
 55 54  1  0  0  0  0
 56 24  4  0  0  0  0
 57 56  1  0  0  0  0
 58 14  1  0  0  0  0
 59 58  1  0  0  0  0
 60 58  1  0  0  0  0
 61 62  1  0  0  0  0
 63 61  1  0  0  0  0
 64 56  4  0  0  0  0
 65 64  1  0  0  0  0
 66  5  1  0  0  0  0
 67 23  4  0  0  0  0
 68 67  1  0  0  0  0
 69 44  4  0  0  0  0
 70 69  1  0  0  0  0
 71 23  4  0  0  0  0
 72 71  1  0  0  0  0
 73 66  4  0  0  0  0
 74 73  1  0  0  0  0
 75 19  4  0  0  0  0
 76 75  1  0  0  0  0
 77 54  4  0  0  0  0
 78 77  1  0  0  0  0
 79 33  4  0  0  0  0
 80 79  1  0  0  0  0
 81 75  4  0  0  0  0
 82 81  1  0  0  0  0
 83 61  1  0  0  0  0
 84 83  1  0  0  0  0
 85 83  1  0  0  0  0
 86 67  4  0  0  0  0
 87 86  1  0  0  0  0
 88 69  4  0  0  0  0
 89 88  1  0  0  0  0
 90 81  4  0  0  0  0
 91 90  1  0  0  0  0
 92 29  4  0  0  0  0
 93 92  1  0  0  0  0
 94 71  4  0  0  0  0
 95 94  1  0  0  0  0
 96 41  1  0  0  0  0
 97 96  1  0  0  0  0
 98 96  1  0  0  0  0
 99 34  4  0  0  0  0
100 99  1  0  0  0  0
101 32  4  0  0  0  0
102101  1  0  0  0  0
103 18  1  0  0  0  0
104103  1  0  0  0  0
105103  1  0  0  0  0
106 15  1  0  0  0  0
107106  1  0  0  0  0
108106  1  0  0  0  0
109103  1  0  0  0  0
110109  1  0  0  0  0
111109  1  0  0  0  0
112113  1  0  0  0  0
114 15  1  0  0  0  0
115114  1  0  0  0  0
116114  1  0  0  0  0
117 32  4  0  0  0  0
118117  1  0  0  0  0
119 66  4  0  0  0  0
120119  1  0  0  0  0
121 73  4  0  0  0  0
122121  1  0  0  0  0
123 13  1  0  0  0  0
124 86  4  0  0  0  0
125124  1  0  0  0  0
126 79  4  0  0  0  0
127126  1  0  0  0  0
128 29  4  0  0  0  0
129128  1  0  0  0  0
130 92  4  0  0  0  0
131130  1  0  0  0  0
132 11  1  0  0  0  0
133101  4  0  0  0  0
134133  1  0  0  0  0
135112  4  0  0  0  0
136135  1  0  0  0  0
137121  4  0  0  0  0
138137  1  0  0  0  0
139133  4  0  0  0  0
140139  1  0  0  0  0
141119  4  0  0  0  0
142141  1  0  0  0  0
143117  4  0  0  0  0
144143  1  0  0  0  0
145  9  1  0  0  0  0
146 10  1  0  0  0  0
  2  9  1  0  0  0  0
  2 10  1  0  0  0  0
 14132  1  0  0  0  0
 15123  1  0  0  0  0
 17132  1  0  0  0  0
 18123  1  0  0  0  0
 20 22  4  0  0  0  0
 36 48  1  0  0  0  0
 39 46  4  0  0  0  0
 58 96  1  0  0  0  0
 64 77  4  0  0  0  0
 83114  1  0  0  0  0
 88126  4  0  0  0  0
 90 99  4  0  0  0  0
 94124  4  0  0  0  0
106109  1  0  0  0  0
112130  4  0  0  0  0
128135  4  0  0  0  0
137141  4  0  0  0  0
139143  4  0  0  0  0
M  CHG  2   1   1   2   1
M  END
$$$$
FEMTAW

From CSD data. Using bond type 'Any'. No disordered atoms. Largest molecule.
103133  0  0  0  0  0  0  0  0999 V2000
   -2.4358   -1.6144   15.2492 Ru  0  0  0  0  0  0  0  0  0  0  0  0
   -2.5319   -2.9624   12.6539 Ru  0  0  0  0  0  0  0  0  0  0  0  0
   -4.7509   -1.0550   15.6678 Cl  0  0  0  0  0  0  0  0  0  0  0  0
   -2.6074   -3.7103   15.9731 P   0  0  0  0  0  0  0  0  0  0  0  0
   -1.6350   -0.5749   17.1047 P   0  0  0  0  0  0  0  0  0  0  0  0
    0.1640   -4.0448   11.6531 O   0  0  0  0  0  0  0  0  0  0  0  0
   -2.7876   -1.1537   11.6535 C   0  0  0  0  0  0  0  0  0  0  0  0
   -1.5688   -1.9447   10.8908 B   0  0  0  0  0  0  0  0  0  0  0  0
   -1.7723   -2.2692    9.8575 H   0  0  0  0  0  0  0  0  0  0  0  0
   -1.5020   -0.1875   11.4204 B   0  0  0  0  0  0  0  0  0  0  0  0
   -1.7873    0.6640   10.8434 H   0  0  0  0  0  0  0  0  0  0  0  0
   -2.1734   -0.7213   13.0662 B   0  0  0  0  0  0  0  0  0  0  0  0
   -2.6764   -0.1746   13.8882 H   0  0  0  0  0  0  0  0  0  0  0  0
   -0.3562   -2.8027   12.0566 B   0  0  0  0  0  0  0  0  0  0  0  0
    0.0213   -1.1118   11.3295 B   0  0  0  0  0  0  0  0  0  0  0  0
    0.6806   -0.8616   10.5352 H   0  0  0  0  0  0  0  0  0  0  0  0
   -0.4468   -0.2616   12.8272 B   0  0  0  0  0  0  0  0  0  0  0  0
   -0.1981    0.7137   13.2638 H   0  0  0  0  0  0  0  0  0  0  0  0
   -0.8886   -1.8291   13.6511 B   0  0  0  0  0  0  0  0  0  0  0  0
   -0.8396   -1.9661   14.8979 H   0  0  0  0  0  0  0  0  0  0  0  0
    0.5888   -1.6000   12.8588 B   0  0  0  0  0  0  0  0  0  0  0  0
    1.6438   -1.7194   13.1552 H   0  0  0  0  0  0  0  0  0  0  0  0
    1.5744   -4.2913   11.7049 C   0  0  0  0  0  0  0  0  0  0  0  0
    1.7941   -5.0560   11.1319 H   0  0  0  0  0  0  0  0  0  0  0  0
    1.8381   -4.4898   12.6276 H   0  0  0  0  0  0  0  0  0  0  0  0
    2.0565   -3.4988   11.3907 H   0  0  0  0  0  0  0  0  0  0  0  0
   -4.1415   -0.8627   11.1210 C   0  0  0  0  0  0  0  0  0  0  0  0
   -4.4412   -1.0921    9.7745 C   0  0  0  0  0  0  0  0  0  0  0  0
   -3.7551   -1.3676    9.1798 H   0  0  0  0  0  0  0  0  0  0  0  0
   -5.7181   -0.9218    9.3082 C   0  0  0  0  0  0  0  0  0  0  0  0
   -5.9158   -1.0958    8.3954 H   0  0  0  0  0  0  0  0  0  0  0  0
   -6.7210   -0.4993   10.1618 C   0  0  0  0  0  0  0  0  0  0  0  0
   -7.6034   -0.3780    9.8318 H   0  0  0  0  0  0  0  0  0  0  0  0
   -6.4424   -0.2549   11.4895 C   0  0  0  0  0  0  0  0  0  0  0  0
   -7.1332    0.0284   12.0764 H   0  0  0  0  0  0  0  0  0  0  0  0
   -5.1617   -0.4219   11.9618 C   0  0  0  0  0  0  0  0  0  0  0  0
   -4.9700   -0.2348   12.8726 H   0  0  0  0  0  0  0  0  0  0  0  0
   -3.1955   -4.3277   14.3381 C   0  0  0  0  0  0  0  0  0  0  0  0
   -2.3214   -5.0540   13.4970 C   0  0  0  0  0  0  0  0  0  0  0  0
   -1.4342   -5.3436   13.8566 H   0  0  0  0  0  0  0  0  0  0  0  0
   -2.5531   -5.1299   12.1127 C   0  0  0  0  0  0  0  0  0  0  0  0
   -1.8414   -5.4968   11.5132 H   0  0  0  0  0  0  0  0  0  0  0  0
   -3.6998   -4.5318   11.5486 C   0  0  0  0  0  0  0  0  0  0  0  0
   -3.7952   -4.4753   10.5550 H   0  0  0  0  0  0  0  0  0  0  0  0
   -4.6177   -3.8835   12.3735 C   0  0  0  0  0  0  0  0  0  0  0  0
   -5.3360   -3.3314   11.9538 H   0  0  0  0  0  0  0  0  0  0  0  0
   -4.3710   -3.7431   13.7576 C   0  0  0  0  0  0  0  0  0  0  0  0
   -4.9285   -3.1116   14.2972 H   0  0  0  0  0  0  0  0  0  0  0  0
   -1.1688   -4.7739   16.3230 C   0  0  0  0  0  0  0  0  0  0  0  0
   -1.3878   -6.0774   16.7877 C   0  0  0  0  0  0  0  0  0  0  0  0
   -2.2735   -6.3708   16.9705 H   0  0  0  0  0  0  0  0  0  0  0  0
   -0.3255   -6.9418   16.9816 C   0  0  0  0  0  0  0  0  0  0  0  0
   -0.4836   -7.8257   17.2926 H   0  0  0  0  0  0  0  0  0  0  0  0
    0.9557   -6.5245   16.7257 C   0  0  0  0  0  0  0  0  0  0  0  0
    1.6842   -7.1200   16.8599 H   0  0  0  0  0  0  0  0  0  0  0  0
    1.1884   -5.2365   16.2711 C   0  0  0  0  0  0  0  0  0  0  0  0
    2.0779   -4.9525   16.0952 H   0  0  0  0  0  0  0  0  0  0  0  0
    0.1301   -4.3600   16.0687 C   0  0  0  0  0  0  0  0  0  0  0  0
    0.2956   -3.4779   15.7573 H   0  0  0  0  0  0  0  0  0  0  0  0
   -3.7930   -4.2027   17.2693 C   0  0  0  0  0  0  0  0  0  0  0  0
   -5.0905   -4.6459   17.0122 C   0  0  0  0  0  0  0  0  0  0  0  0
   -5.4015   -4.7164   16.1169 H   0  0  0  0  0  0  0  0  0  0  0  0
   -5.9315   -4.9851   18.0790 C   0  0  0  0  0  0  0  0  0  0  0  0
   -6.8127   -5.2891   17.8992 H   0  0  0  0  0  0  0  0  0  0  0  0
   -5.5013   -4.8815   19.3759 C   0  0  0  0  0  0  0  0  0  0  0  0
   -6.0869   -5.1068   20.0884 H   0  0  0  0  0  0  0  0  0  0  0  0
   -4.2086   -4.4444   19.6494 C   0  0  0  0  0  0  0  0  0  0  0  0
   -3.9034   -4.3722   20.5468 H   0  0  0  0  0  0  0  0  0  0  0  0
   -3.3717   -4.1191   18.5962 C   0  0  0  0  0  0  0  0  0  0  0  0
   -2.4865   -3.8282   18.7824 H   0  0  0  0  0  0  0  0  0  0  0  0
   -1.5655    1.2512   16.8875 C   0  0  0  0  0  0  0  0  0  0  0  0
   -0.5392    2.0271   17.4242 C   0  0  0  0  0  0  0  0  0  0  0  0
    0.2211    1.6083   17.8102 H   0  0  0  0  0  0  0  0  0  0  0  0
   -0.6339    3.4298   17.3933 C   0  0  0  0  0  0  0  0  0  0  0  0
    0.0697    3.9619   17.7470 H   0  0  0  0  0  0  0  0  0  0  0  0
   -1.7482    4.0377   16.8441 C   0  0  0  0  0  0  0  0  0  0  0  0
   -1.8251    4.9853   16.8441 H   0  0  0  0  0  0  0  0  0  0  0  0
   -2.7446    3.2608   16.2968 C   0  0  0  0  0  0  0  0  0  0  0  0
   -3.5086    3.6783   15.9134 H   0  0  0  0  0  0  0  0  0  0  0  0
   -2.6422    1.8783   16.2979 C   0  0  0  0  0  0  0  0  0  0  0  0
   -3.3222    1.3571   15.8878 H   0  0  0  0  0  0  0  0  0  0  0  0
    0.0963   -1.0944   17.4062 C   0  0  0  0  0  0  0  0  0  0  0  0
    0.4693   -1.9335   18.4534 C   0  0  0  0  0  0  0  0  0  0  0  0
   -0.1717   -2.1869   19.1064 H   0  0  0  0  0  0  0  0  0  0  0  0
    1.7683   -2.3986   18.5472 C   0  0  0  0  0  0  0  0  0  0  0  0
    2.0152   -2.9654   19.2684 H   0  0  0  0  0  0  0  0  0  0  0  0
    2.7122   -2.0405   17.5949 C   0  0  0  0  0  0  0  0  0  0  0  0
    3.6063   -2.3522   17.6680 H   0  0  0  0  0  0  0  0  0  0  0  0
    2.3483   -1.2303   16.5418 C   0  0  0  0  0  0  0  0  0  0  0  0
    2.9895   -0.9928   15.8798 H   0  0  0  0  0  0  0  0  0  0  0  0
    1.0561   -0.7602   16.4459 C   0  0  0  0  0  0  0  0  0  0  0  0
    0.8135   -0.2013   15.7159 H   0  0  0  0  0  0  0  0  0  0  0  0
   -2.4152   -0.6380   18.7677 C   0  0  0  0  0  0  0  0  0  0  0  0
   -3.7327   -1.0539   18.9254 C   0  0  0  0  0  0  0  0  0  0  0  0
   -4.2358   -1.3453   18.1738 H   0  0  0  0  0  0  0  0  0  0  0  0
   -4.3096   -1.0419   20.1900 C   0  0  0  0  0  0  0  0  0  0  0  0
   -5.2140   -1.3137   20.2978 H   0  0  0  0  0  0  0  0  0  0  0  0
   -3.5818   -0.6357   21.2891 C   0  0  0  0  0  0  0  0  0  0  0  0
   -3.9723   -0.6696   22.1551 H   0  0  0  0  0  0  0  0  0  0  0  0
   -2.2984   -0.1866   21.1356 C   0  0  0  0  0  0  0  0  0  0  0  0
   -1.8079    0.1175   21.8904 H   0  0  0  0  0  0  0  0  0  0  0  0
   -1.7137   -0.1773   19.8772 C   0  0  0  0  0  0  0  0  0  0  0  0
   -0.8265    0.1476   19.7723 H   0  0  0  0  0  0  0  0  0  0  0  0
  1  3  1  0  0  0  0
  2  7  1  0  0  0  0
  4  1  1  0  0  0  0
  5  1  1  0  0  0  0
  6 14  1  0  0  0  0
  7  8  1  0  0  0  0
  8  2  1  0  0  0  0
  9  8  1  0  0  0  0
 10  7  1  0  0  0  0
 11 10  1  0  0  0  0
 12  1  1  0  0  0  0
 13  1  1  0  0  0  0
 14  2  1  0  0  0  0
 15  8  1  0  0  0  0
 16 15  1  0  0  0  0
 17 10  1  0  0  0  0
 18 17  1  0  0  0  0
 19  1  1  0  0  0  0
 20  1  1  0  0  0  0
 21 14  1  0  0  0  0
 22 21  1  0  0  0  0
 23  6  1  0  0  0  0
 24 23  1  0  0  0  0
 25 23  1  0  0  0  0
 26 23  1  0  0  0  0
 27  7  1  0  0  0  0
 28 27  4  0  0  0  0
 29 28  1  0  0  0  0
 30 28  4  0  0  0  0
 31 30  1  0  0  0  0
 32 30  4  0  0  0  0
 33 32  1  0  0  0  0
 34 32  4  0  0  0  0
 35 34  1  0  0  0  0
 36 27  4  0  0  0  0
 37 36  1  0  0  0  0
 38  2  8  0  0  0  0
 39  2  8  0  0  0  0
 40 39  1  0  0  0  0
 41  2  8  0  0  0  0
 42 41  1  0  0  0  0
 43  2  8  0  0  0  0
 44 43  1  0  0  0  0
 45  2  8  0  0  0  0
 46 45  1  0  0  0  0
 47  2  8  0  0  0  0
 48 47  1  0  0  0  0
 49  4  1  0  0  0  0
 50 49  4  0  0  0  0
 51 50  1  0  0  0  0
 52 50  4  0  0  0  0
 53 52  1  0  0  0  0
 54 52  4  0  0  0  0
 55 54  1  0  0  0  0
 56 54  4  0  0  0  0
 57 56  1  0  0  0  0
 58 49  4  0  0  0  0
 59 58  1  0  0  0  0
 60  4  1  0  0  0  0
 61 60  4  0  0  0  0
 62 61  1  0  0  0  0
 63 61  4  0  0  0  0
 64 63  1  0  0  0  0
 65 63  4  0  0  0  0
 66 65  1  0  0  0  0
 67 65  4  0  0  0  0
 68 67  1  0  0  0  0
 69 60  4  0  0  0  0
 70 69  1  0  0  0  0
 71  5  1  0  0  0  0
 72 71  4  0  0  0  0
 73 72  1  0  0  0  0
 74 72  4  0  0  0  0
 75 74  1  0  0  0  0
 76 74  4  0  0  0  0
 77 76  1  0  0  0  0
 78 76  4  0  0  0  0
 79 78  1  0  0  0  0
 80 71  4  0  0  0  0
 81 80  1  0  0  0  0
 82  5  1  0  0  0  0
 83 82  4  0  0  0  0
 84 83  1  0  0  0  0
 85 83  4  0  0  0  0
 86 85  1  0  0  0  0
 87 85  4  0  0  0  0
 88 87  1  0  0  0  0
 89 87  4  0  0  0  0
 90 89  1  0  0  0  0
 91 82  4  0  0  0  0
 92 91  1  0  0  0  0
 93  5  1  0  0  0  0
 94 93  4  0  0  0  0
 95 94  1  0  0  0  0
 96 94  4  0  0  0  0
 97 96  1  0  0  0  0
 98 96  4  0  0  0  0
 99 98  1  0  0  0  0
100 98  4  0  0  0  0
101100  1  0  0  0  0
102 93  4  0  0  0  0
103102  1  0  0  0  0
  2 12  1  0  0  0  0
  2 19  1  0  0  0  0
  4 38  1  0  0  0  0
  7 12  1  0  0  0  0
  8 10  1  0  0  0  0
  8 14  1  0  0  0  0
 10 12  1  0  0  0  0
 10 15  1  0  0  0  0
 12 13  1  0  0  0  0
 12 17  1  0  0  0  0
 12 19  1  0  0  0  0
 14 15  1  0  0  0  0
 14 19  1  0  0  0  0
 15 17  1  0  0  0  0
 15 21  1  0  0  0  0
 17 19  1  0  0  0  0
 17 21  1  0  0  0  0
 19 20  1  0  0  0  0
 19 21  1  0  0  0  0
 34 36  4  0  0  0  0
 38 39  4  0  0  0  0
 38 47  4  0  0  0  0
 39 41  4  0  0  0  0
 41 43  4  0  0  0  0
 43 45  4  0  0  0  0
 45 47  4  0  0  0  0
 56 58  4  0  0  0  0
 67 69  4  0  0  0  0
 78 80  4  0  0  0  0
 89 91  4  0  0  0  0
100102  4  0  0  0  0
M  END
$$$$
FEMTEA

From CSD data. Using bond type 'Any'. No disordered atoms. Largest molecule.
102123  0  0  0  0  0  0  0  0999 V2000
    2.8225    5.5606   11.1611 Ru  0  0  0  0  0  0  0  0  0  0  0  0
    2.6563    4.2294   11.1963 H   0  0  0  0  0  0  0  0  0  0  0  0
    3.9239    5.6647    9.0186 Cl  0  0  0  0  0  0  0  0  0  0  0  0
    4.9404    4.8719   11.9161 P   0  0  0  0  0  0  0  0  0  0  0  0
    0.5478    2.8060   11.4933 P   0  0  0  0  0  0  0  0  0  0  0  0
    3.6481    7.1524   13.8104 O   0  0  0  0  0  0  0  0  0  0  0  0
    1.5203    7.1121   10.3537 C   0  0  0  0  0  0  0  0  0  0  0  0
    1.0456    4.6204   11.6616 B   0  0  0  0  0  0  0  0  0  0  0  0
    2.7281    6.7304   12.8963 B   0  0  0  0  0  0  0  0  0  0  0  0
    0.4770    5.8879   10.5387 B   0  0  0  0  0  0  0  0  0  0  0  0
   -0.1264    5.3853    9.4341 H   0  0  0  0  0  0  0  0  0  0  0  0
    1.5069    5.5016   13.1253 B   0  0  0  0  0  0  0  0  0  0  0  0
    1.4676    4.8608   13.9826 H   0  0  0  0  0  0  0  0  0  0  0  0
    1.9723    7.8739   11.6634 B   0  0  0  0  0  0  0  0  0  0  0  0
    2.2604    8.9351   11.7147 H   0  0  0  0  0  0  0  0  0  0  0  0
    0.2363    7.4503   11.4583 B   0  0  0  0  0  0  0  0  0  0  0  0
   -0.7118    8.1035   11.1121 H   0  0  0  0  0  0  0  0  0  0  0  0
   -0.0431    5.9035   12.2643 B   0  0  0  0  0  0  0  0  0  0  0  0
   -1.1993    5.4396   12.6563 H   0  0  0  0  0  0  0  0  0  0  0  0
    0.9914    7.1788   13.0135 B   0  0  0  0  0  0  0  0  0  0  0  0
    0.8041    7.8583   13.8415 H   0  0  0  0  0  0  0  0  0  0  0  0
    1.5786    7.8475    9.0714 C   0  0  0  0  0  0  0  0  0  0  0  0
    2.7169    8.6031    8.7380 C   0  0  0  0  0  0  0  0  0  0  0  0
    3.4421    8.6543    9.3480 H   0  0  0  0  0  0  0  0  0  0  0  0
    2.7918    9.2702    7.5381 C   0  0  0  0  0  0  0  0  0  0  0  0
    3.5744    9.7667    7.3238 H   0  0  0  0  0  0  0  0  0  0  0  0
    1.7344    9.2268    6.6277 C   0  0  0  0  0  0  0  0  0  0  0  0
    1.7857    9.6814    5.7960 H   0  0  0  0  0  0  0  0  0  0  0  0
    0.6311    8.5146    6.9721 C   0  0  0  0  0  0  0  0  0  0  0  0
   -0.1123    8.5084    6.3804 H   0  0  0  0  0  0  0  0  0  0  0  0
    0.5477    7.8071    8.1371 C   0  0  0  0  0  0  0  0  0  0  0  0
   -0.2222    7.2812    8.3111 H   0  0  0  0  0  0  0  0  0  0  0  0
    3.3923    7.1074   15.2154 C   0  0  0  0  0  0  0  0  0  0  0  0
    4.2434    7.0841   15.7009 H   0  0  0  0  0  0  0  0  0  0  0  0
    2.8741    6.3053   15.4279 H   0  0  0  0  0  0  0  0  0  0  0  0
    2.8867    7.9049   15.4810 H   0  0  0  0  0  0  0  0  0  0  0  0
    5.5203    3.2256   11.3520 C   0  0  0  0  0  0  0  0  0  0  0  0
    5.0690    2.6593   10.1412 C   0  0  0  0  0  0  0  0  0  0  0  0
    4.4352    3.1232    9.6081 H   0  0  0  0  0  0  0  0  0  0  0  0
    5.5517    1.4196    9.7253 C   0  0  0  0  0  0  0  0  0  0  0  0
    5.2738    1.0674    8.8863 H   0  0  0  0  0  0  0  0  0  0  0  0
    6.4219    0.6982   10.5057 C   0  0  0  0  0  0  0  0  0  0  0  0
    6.7372   -0.1520   10.2199 H   0  0  0  0  0  0  0  0  0  0  0  0
    6.8340    1.2350   11.7184 C   0  0  0  0  0  0  0  0  0  0  0  0
    7.4189    0.7370   12.2771 H   0  0  0  0  0  0  0  0  0  0  0  0
    6.4100    2.4622   12.1159 C   0  0  0  0  0  0  0  0  0  0  0  0
    6.7278    2.8129   12.9384 H   0  0  0  0  0  0  0  0  0  0  0  0
    5.1765    4.6871   13.7316 C   0  0  0  0  0  0  0  0  0  0  0  0
    4.3374    3.8462   14.4149 C   0  0  0  0  0  0  0  0  0  0  0  0
    3.6255    3.4149   13.9569 H   0  0  0  0  0  0  0  0  0  0  0  0
    4.5193    3.6212   15.7686 C   0  0  0  0  0  0  0  0  0  0  0  0
    3.9304    3.0456   16.2413 H   0  0  0  0  0  0  0  0  0  0  0  0
    5.5351    4.2201   16.4061 C   0  0  0  0  0  0  0  0  0  0  0  0
    5.6467    4.0696   17.3385 H   0  0  0  0  0  0  0  0  0  0  0  0
    6.4291    5.0563   15.7467 C   0  0  0  0  0  0  0  0  0  0  0  0
    7.1575    5.4458   16.2156 H   0  0  0  0  0  0  0  0  0  0  0  0
    6.2454    5.3185   14.3819 C   0  0  0  0  0  0  0  0  0  0  0  0
    6.8260    5.9066   13.9148 H   0  0  0  0  0  0  0  0  0  0  0  0
    6.2711    6.0152   11.3978 C   0  0  0  0  0  0  0  0  0  0  0  0
    7.4489    5.5745   10.8336 C   0  0  0  0  0  0  0  0  0  0  0  0
    7.5892    4.6436   10.6999 H   0  0  0  0  0  0  0  0  0  0  0  0
    8.4158    6.4589   10.4672 C   0  0  0  0  0  0  0  0  0  0  0  0
    9.2178    6.1362   10.0734 H   0  0  0  0  0  0  0  0  0  0  0  0
    8.2530    7.8118   10.6541 C   0  0  0  0  0  0  0  0  0  0  0  0
    8.9344    8.4184   10.3866 H   0  0  0  0  0  0  0  0  0  0  0  0
    7.0885    8.2835   11.2366 C   0  0  0  0  0  0  0  0  0  0  0  0
    6.9736    9.2144   11.3832 H   0  0  0  0  0  0  0  0  0  0  0  0
    6.0951    7.3991   11.6067 C   0  0  0  0  0  0  0  0  0  0  0  0
    5.2931    7.7234   12.0005 H   0  0  0  0  0  0  0  0  0  0  0  0
    0.6335    2.2559    9.7895 C   0  0  0  0  0  0  0  0  0  0  0  0
    1.3232    2.9479    8.7966 C   0  0  0  0  0  0  0  0  0  0  0  0
    1.7704    3.7577    9.0109 H   0  0  0  0  0  0  0  0  0  0  0  0
    1.3638    2.4669    7.4996 C   0  0  0  0  0  0  0  0  0  0  0  0
    1.7981    2.9665    6.8182 H   0  0  0  0  0  0  0  0  0  0  0  0
    0.7848    1.2784    7.2065 C   0  0  0  0  0  0  0  0  0  0  0  0
    0.8370    0.9449    6.3181 H   0  0  0  0  0  0  0  0  0  0  0  0
    0.1165    0.5399    8.1628 C   0  0  0  0  0  0  0  0  0  0  0  0
   -0.2934   -0.2870    7.9356 H   0  0  0  0  0  0  0  0  0  0  0  0
    0.0529    1.0209    9.4542 C   0  0  0  0  0  0  0  0  0  0  0  0
   -0.3884    0.5120   10.1229 H   0  0  0  0  0  0  0  0  0  0  0  0
   -1.1836    2.5429   11.9822 C   0  0  0  0  0  0  0  0  0  0  0  0
   -2.1273    3.3016   11.3337 C   0  0  0  0  0  0  0  0  0  0  0  0
   -1.8673    3.9268   10.6669 H   0  0  0  0  0  0  0  0  0  0  0  0
   -3.4805    3.1402   11.6708 C   0  0  0  0  0  0  0  0  0  0  0  0
   -4.1464    3.6476   11.2238 H   0  0  0  0  0  0  0  0  0  0  0  0
   -3.8249    2.2714   12.6233 C   0  0  0  0  0  0  0  0  0  0  0  0
   -4.7432    2.1830   12.8523 H   0  0  0  0  0  0  0  0  0  0  0  0
   -2.8874    1.4894   13.2956 C   0  0  0  0  0  0  0  0  0  0  0  0
   -3.1594    0.8735   13.9679 H   0  0  0  0  0  0  0  0  0  0  0  0
   -1.5595    1.6291   12.9659 C   0  0  0  0  0  0  0  0  0  0  0  0
   -0.9016    1.1047   13.4055 H   0  0  0  0  0  0  0  0  0  0  0  0
    1.6275    1.7749   12.4530 C   0  0  0  0  0  0  0  0  0  0  0  0
    2.5109    0.8828   11.8320 C   0  0  0  0  0  0  0  0  0  0  0  0
    2.5444    0.8409   10.8831 H   0  0  0  0  0  0  0  0  0  0  0  0
    3.3514    0.0465   12.5922 C   0  0  0  0  0  0  0  0  0  0  0  0
    3.9784   -0.5166   12.1544 H   0  0  0  0  0  0  0  0  0  0  0  0
    3.2695    0.0403   13.9441 C   0  0  0  0  0  0  0  0  0  0  0  0
    3.8225   -0.5508   14.4442 H   0  0  0  0  0  0  0  0  0  0  0  0
    2.3981    0.8797   14.6017 C   0  0  0  0  0  0  0  0  0  0  0  0
    2.3627    0.8735   15.5506 H   0  0  0  0  0  0  0  0  0  0  0  0
    1.5521    1.7547   13.8617 C   0  0  0  0  0  0  0  0  0  0  0  0
    0.9406    2.3210   14.3160 H   0  0  0  0  0  0  0  0  0  0  0  0
  1  2  1  0  0  0  0
  3  1  1  0  0  0  0
  4  1  1  0  0  0  0
  5  8  1  0  0  0  0
  6  9  1  0  0  0  0
  7  1  1  0  0  0  0
  8  1  1  0  0  0  0
  9  1  1  0  0  0  0
 10  1  1  0  0  0  0
 11 10  1  0  0  0  0
 12  1  1  0  0  0  0
 13 12  1  0  0  0  0
 14  1  1  0  0  0  0
 15 14  1  0  0  0  0
 16  7  1  0  0  0  0
 17 16  1  0  0  0  0
 18  8  1  0  0  0  0
 19 18  1  0  0  0  0
 20  9  1  0  0  0  0
 21 20  1  0  0  0  0
 22  7  1  0  0  0  0
 23 22  4  0  0  0  0
 24 23  1  0  0  0  0
 25 23  4  0  0  0  0
 26 25  1  0  0  0  0
 27 25  4  0  0  0  0
 28 27  1  0  0  0  0
 29 27  4  0  0  0  0
 30 29  1  0  0  0  0
 31 22  4  0  0  0  0
 32 31  1  0  0  0  0
 33  6  1  0  0  0  0
 34 33  1  0  0  0  0
 35 33  1  0  0  0  0
 36 33  1  0  0  0  0
 37  4  1  0  0  0  0
 38 37  4  0  0  0  0
 39 38  1  0  0  0  0
 40 38  4  0  0  0  0
 41 40  1  0  0  0  0
 42 40  4  0  0  0  0
 43 42  1  0  0  0  0
 44 42  4  0  0  0  0
 45 44  1  0  0  0  0
 46 37  4  0  0  0  0
 47 46  1  0  0  0  0
 48  4  1  0  0  0  0
 49 48  4  0  0  0  0
 50 49  1  0  0  0  0
 51 49  4  0  0  0  0
 52 51  1  0  0  0  0
 53 51  4  0  0  0  0
 54 53  1  0  0  0  0
 55 53  4  0  0  0  0
 56 55  1  0  0  0  0
 57 48  4  0  0  0  0
 58 57  1  0  0  0  0
 59  4  1  0  0  0  0
 60 59  4  0  0  0  0
 61 60  1  0  0  0  0
 62 60  4  0  0  0  0
 63 62  1  0  0  0  0
 64 62  4  0  0  0  0
 65 64  1  0  0  0  0
 66 64  4  0  0  0  0
 67 66  1  0  0  0  0
 68 59  4  0  0  0  0
 69 68  1  0  0  0  0
 70  5  1  0  0  0  0
 71 70  4  0  0  0  0
 72 71  1  0  0  0  0
 73 71  4  0  0  0  0
 74 73  1  0  0  0  0
 75 73  4  0  0  0  0
 76 75  1  0  0  0  0
 77 75  4  0  0  0  0
 78 77  1  0  0  0  0
 79 70  4  0  0  0  0
 80 79  1  0  0  0  0
 81  5  1  0  0  0  0
 82 81  4  0  0  0  0
 83 82  1  0  0  0  0
 84 82  4  0  0  0  0
 85 84  1  0  0  0  0
 86 84  4  0  0  0  0
 87 86  1  0  0  0  0
 88 86  4  0  0  0  0
 89 88  1  0  0  0  0
 90 81  4  0  0  0  0
 91 90  1  0  0  0  0
 92  5  1  0  0  0  0
 93 92  4  0  0  0  0
 94 93  1  0  0  0  0
 95 93  4  0  0  0  0
 96 95  1  0  0  0  0
 97 95  4  0  0  0  0
 98 97  1  0  0  0  0
 99 97  4  0  0  0  0
100 99  1  0  0  0  0
101 92  4  0  0  0  0
102101  1  0  0  0  0
  7 10  1  0  0  0  0
  7 14  1  0  0  0  0
  8 10  1  0  0  0  0
  8 12  1  0  0  0  0
  9 12  1  0  0  0  0
  9 14  1  0  0  0  0
 10 16  1  0  0  0  0
 10 18  1  0  0  0  0
 12 18  1  0  0  0  0
 12 20  1  0  0  0  0
 14 16  1  0  0  0  0
 14 20  1  0  0  0  0
 16 18  1  0  0  0  0
 16 20  1  0  0  0  0
 18 20  1  0  0  0  0
 29 31  4  0  0  0  0
 44 46  4  0  0  0  0
 55 57  4  0  0  0  0
 66 68  4  0  0  0  0
 77 79  4  0  0  0  0
 88 90  4  0  0  0  0
 99101  4  0  0  0  0
M  END
$$$$
FEYRUZ

From CSD data. Using bond type 'Any'. No disordered atoms. Largest molecule.
 93 98  0  0  0  0  0  0  0  0999 V2000
    1.0563    3.8506   10.2563 Os  0  0  0  0  0  0  0  0  0  0  0  0
    0.6781    2.2108   10.0526 H   0  0  0  0  0  0  0  0  0  0  0  0
    2.1483    3.8438    8.9633 H   0  0  0  0  0  0  0  0  0  0  0  0
   -0.4215    3.7769    8.4282 P   0  0  0  0  0  0  0  0  0  0  0  0
    2.6013    3.0181   11.8646 P   0  0  0  0  0  0  0  0  0  0  0  0
   -1.9184    4.6559   11.2315 O   0  0  0  0  0  0  0  0  0  0  0  0
   -0.2581    6.0197   12.0508 O   0  0  0  0  0  0  0  0  0  0  0  0
    2.0822    6.2805    8.4289 O   0  0  0  0  0  0  0  0  0  0  0  0
    3.7870    5.4394    9.7315 O   0  0  0  0  0  0  0  0  0  0  0  0
   -0.5044    4.8537   11.2654 B   0  0  0  0  0  0  0  0  0  0  0  0
    0.1175    3.6679   11.6506 H   0  0  0  0  0  0  0  0  0  0  0  0
    2.4016    5.3277    9.4388 B   0  0  0  0  0  0  0  0  0  0  0  0
    1.4119    5.4952   10.4212 H   0  0  0  0  0  0  0  0  0  0  0  0
   -2.4856    5.7020   11.9330 C   0  0  0  0  0  0  0  0  0  0  0  0
   -3.8076    5.9557   12.1718 C   0  0  0  0  0  0  0  0  0  0  0  0
   -4.4924    5.3840   11.8451 H   0  0  0  0  0  0  0  0  0  0  0  0
   -4.1027    7.0980   12.9187 C   0  0  0  0  0  0  0  0  0  0  0  0
   -5.0095    7.3027   13.1150 H   0  0  0  0  0  0  0  0  0  0  0  0
   -3.1109    7.9320   13.3784 C   0  0  0  0  0  0  0  0  0  0  0  0
   -3.3453    8.7042   13.8794 H   0  0  0  0  0  0  0  0  0  0  0  0
   -1.7689    7.6657   13.1220 C   0  0  0  0  0  0  0  0  0  0  0  0
   -1.0790    8.2417   13.4285 H   0  0  0  0  0  0  0  0  0  0  0  0
   -1.4915    6.5315   12.4068 C   0  0  0  0  0  0  0  0  0  0  0  0
    3.2617    6.9236    8.1221 C   0  0  0  0  0  0  0  0  0  0  0  0
    3.4740    7.9381    7.2208 C   0  0  0  0  0  0  0  0  0  0  0  0
    2.7614    8.3163    6.7188 H   0  0  0  0  0  0  0  0  0  0  0  0
    4.7903    8.3864    7.0788 C   0  0  0  0  0  0  0  0  0  0  0  0
    4.9793    9.0813    6.4593 H   0  0  0  0  0  0  0  0  0  0  0  0
    5.8216    7.8433    7.8187 C   0  0  0  0  0  0  0  0  0  0  0  0
    6.7075    8.1580    7.6867 H   0  0  0  0  0  0  0  0  0  0  0  0
    5.5832    6.8384    8.7556 C   0  0  0  0  0  0  0  0  0  0  0  0
    6.2840    6.4716    9.2812 H   0  0  0  0  0  0  0  0  0  0  0  0
    4.2865    6.4068    8.8816 C   0  0  0  0  0  0  0  0  0  0  0  0
    0.3030    2.8221    6.9981 C   0  0  0  0  0  0  0  0  0  0  0  0
   -0.4309    2.6981    6.3299 H   0  0  0  0  0  0  0  0  0  0  0  0
    1.4471    3.5523    6.2760 C   0  0  0  0  0  0  0  0  0  0  0  0
    2.1633    3.7491    6.9154 H   0  0  0  0  0  0  0  0  0  0  0  0
    1.1111    4.3888    5.8933 H   0  0  0  0  0  0  0  0  0  0  0  0
    1.7969    2.9819    5.5596 H   0  0  0  0  0  0  0  0  0  0  0  0
    0.7769    1.4236    7.4058 C   0  0  0  0  0  0  0  0  0  0  0  0
    1.0267    0.9165    6.6051 H   0  0  0  0  0  0  0  0  0  0  0  0
    0.0542    0.9569    7.8754 H   0  0  0  0  0  0  0  0  0  0  0  0
    1.5540    1.5014    7.9983 H   0  0  0  0  0  0  0  0  0  0  0  0
   -0.8582    5.3881    7.6084 C   0  0  0  0  0  0  0  0  0  0  0  0
   -0.0008    5.7312    7.2242 H   0  0  0  0  0  0  0  0  0  0  0  0
   -1.8306    5.3025    6.4234 C   0  0  0  0  0  0  0  0  0  0  0  0
   -2.7149    5.0294    6.7457 H   0  0  0  0  0  0  0  0  0  0  0  0
   -1.5008    4.6450    5.7765 H   0  0  0  0  0  0  0  0  0  0  0  0
   -1.8975    6.1804    5.9919 H   0  0  0  0  0  0  0  0  0  0  0  0
   -1.3214    6.4632    8.5873 C   0  0  0  0  0  0  0  0  0  0  0  0
   -1.4655    7.3036    8.1060 H   0  0  0  0  0  0  0  0  0  0  0  0
   -0.6371    6.5938    9.2768 H   0  0  0  0  0  0  0  0  0  0  0  0
   -2.1598    6.1801    9.0097 H   0  0  0  0  0  0  0  0  0  0  0  0
   -2.0776    2.9196    8.7108 C   0  0  0  0  0  0  0  0  0  0  0  0
   -2.7180    3.6348    8.9916 H   0  0  0  0  0  0  0  0  0  0  0  0
   -2.7056    2.2426    7.4722 C   0  0  0  0  0  0  0  0  0  0  0  0
   -2.1712    1.4599    7.2216 H   0  0  0  0  0  0  0  0  0  0  0  0
   -2.7240    2.8777    6.7263 H   0  0  0  0  0  0  0  0  0  0  0  0
   -3.6200    1.9592    7.6827 H   0  0  0  0  0  0  0  0  0  0  0  0
   -2.0564    1.8916    9.8522 C   0  0  0  0  0  0  0  0  0  0  0  0
   -2.9556    1.5226    9.9768 H   0  0  0  0  0  0  0  0  0  0  0  0
   -1.7651    2.3285   10.6798 H   0  0  0  0  0  0  0  0  0  0  0  0
   -1.4344    1.1680    9.6285 H   0  0  0  0  0  0  0  0  0  0  0  0
    2.1522    1.3348   12.5187 C   0  0  0  0  0  0  0  0  0  0  0  0
    2.7552    1.1408   13.2923 H   0  0  0  0  0  0  0  0  0  0  0  0
    2.3540    0.2194   11.4847 C   0  0  0  0  0  0  0  0  0  0  0  0
    2.0410   -0.6306   11.8572 H   0  0  0  0  0  0  0  0  0  0  0  0
    3.3060    0.1490   11.2630 H   0  0  0  0  0  0  0  0  0  0  0  0
    1.8443    0.4299   10.6749 H   0  0  0  0  0  0  0  0  0  0  0  0
    0.7131    1.3014   13.0348 C   0  0  0  0  0  0  0  0  0  0  0  0
    0.0933    1.3819   12.2789 H   0  0  0  0  0  0  0  0  0  0  0  0
    0.5706    2.0456   13.6546 H   0  0  0  0  0  0  0  0  0  0  0  0
    0.5520    0.4530   13.4987 H   0  0  0  0  0  0  0  0  0  0  0  0
    4.3840    2.9023   11.3566 C   0  0  0  0  0  0  0  0  0  0  0  0
    4.7008    3.8485   11.2913 H   0  0  0  0  0  0  0  0  0  0  0  0
    4.6056    2.3046    9.9586 C   0  0  0  0  0  0  0  0  0  0  0  0
    5.5112    2.5175    9.6515 H   0  0  0  0  0  0  0  0  0  0  0  0
    3.9513    2.6815    9.3340 H   0  0  0  0  0  0  0  0  0  0  0  0
    4.4950    1.3309    9.9984 H   0  0  0  0  0  0  0  0  0  0  0  0
    5.3094    2.2359   12.3768 C   0  0  0  0  0  0  0  0  0  0  0  0
    5.0411    1.3024   12.5008 H   0  0  0  0  0  0  0  0  0  0  0  0
    5.2479    2.7107   13.2322 H   0  0  0  0  0  0  0  0  0  0  0  0
    6.2332    2.2705   12.0505 H   0  0  0  0  0  0  0  0  0  0  0  0
    2.5975    4.0864   13.4018 C   0  0  0  0  0  0  0  0  0  0  0  0
    1.6592    4.4203   13.4950 H   0  0  0  0  0  0  0  0  0  0  0  0
    3.4626    5.3360   13.2057 C   0  0  0  0  0  0  0  0  0  0  0  0
    3.2015    6.0197   13.8577 H   0  0  0  0  0  0  0  0  0  0  0  0
    3.3332    5.6839   12.2986 H   0  0  0  0  0  0  0  0  0  0  0  0
    4.4057    5.1042   13.3354 H   0  0  0  0  0  0  0  0  0  0  0  0
    2.9406    3.4435   14.7453 C   0  0  0  0  0  0  0  0  0  0  0  0
    3.8672    3.1263   14.7280 H   0  0  0  0  0  0  0  0  0  0  0  0
    2.3387    2.6883   14.9091 H   0  0  0  0  0  0  0  0  0  0  0  0
    2.8354    4.1063   15.4601 H   0  0  0  0  0  0  0  0  0  0  0  0
  1  2  1  0  0  0  0
  3  1  1  0  0  0  0
  4  1  1  0  0  0  0
  5  1  1  0  0  0  0
  6 10  1  0  0  0  0
  7 10  1  0  0  0  0
  8 12  1  0  0  0  0
  9 12  1  0  0  0  0
 10  1  1  0  0  0  0
 11  1  1  0  0  0  0
 12  3  1  0  0  0  0
 13  1  1  0  0  0  0
 14  6  1  0  0  0  0
 15 14  4  0  0  0  0
 16 15  1  0  0  0  0
 17 15  4  0  0  0  0
 18 17  1  0  0  0  0
 19 17  4  0  0  0  0
 20 19  1  0  0  0  0
 21 19  4  0  0  0  0
 22 21  1  0  0  0  0
 23  7  1  0  0  0  0
 24  8  1  0  0  0  0
 25 24  4  0  0  0  0
 26 25  1  0  0  0  0
 27 25  4  0  0  0  0
 28 27  1  0  0  0  0
 29 27  4  0  0  0  0
 30 29  1  0  0  0  0
 31 29  4  0  0  0  0
 32 31  1  0  0  0  0
 33  9  1  0  0  0  0
 34  4  1  0  0  0  0
 35 34  1  0  0  0  0
 36 34  1  0  0  0  0
 37 36  1  0  0  0  0
 38 36  1  0  0  0  0
 39 36  1  0  0  0  0
 40 34  1  0  0  0  0
 41 40  1  0  0  0  0
 42 40  1  0  0  0  0
 43 40  1  0  0  0  0
 44  4  1  0  0  0  0
 45 44  1  0  0  0  0
 46 44  1  0  0  0  0
 47 46  1  0  0  0  0
 48 46  1  0  0  0  0
 49 46  1  0  0  0  0
 50 44  1  0  0  0  0
 51 50  1  0  0  0  0
 52 50  1  0  0  0  0
 53 50  1  0  0  0  0
 54  4  1  0  0  0  0
 55 54  1  0  0  0  0
 56 54  1  0  0  0  0
 57 56  1  0  0  0  0
 58 56  1  0  0  0  0
 59 56  1  0  0  0  0
 60 54  1  0  0  0  0
 61 60  1  0  0  0  0
 62 60  1  0  0  0  0
 63 60  1  0  0  0  0
 64  5  1  0  0  0  0
 65 64  1  0  0  0  0
 66 64  1  0  0  0  0
 67 66  1  0  0  0  0
 68 66  1  0  0  0  0
 69 66  1  0  0  0  0
 70 64  1  0  0  0  0
 71 70  1  0  0  0  0
 72 70  1  0  0  0  0
 73 70  1  0  0  0  0
 74  5  1  0  0  0  0
 75 74  1  0  0  0  0
 76 74  1  0  0  0  0
 77 76  1  0  0  0  0
 78 76  1  0  0  0  0
 79 76  1  0  0  0  0
 80 74  1  0  0  0  0
 81 80  1  0  0  0  0
 82 80  1  0  0  0  0
 83 80  1  0  0  0  0
 84  5  1  0  0  0  0
 85 84  1  0  0  0  0
 86 84  1  0  0  0  0
 87 86  1  0  0  0  0
 88 86  1  0  0  0  0
 89 86  1  0  0  0  0
 90 84  1  0  0  0  0
 91 90  1  0  0  0  0
 92 90  1  0  0  0  0
 93 90  1  0  0  0  0
 10 11  1  0  0  0  0
 12 13  1  0  0  0  0
 14 23  4  0  0  0  0
 21 23  4  0  0  0  0
 24 33  4  0  0  0  0
 31 33  4  0  0  0  0
M  END
$$$$
FIDFON

From CSD data. Using bond type 'Any'. No disordered atoms. Largest molecule.
 95102  0  0  0  0  0  0  0  0999 V2000
    1.6315    0.6333   17.0967 Pt  0  0  0  0  0  0  0  0  0  0  0  0
    0.9392   -1.4947   16.3882 Cl  0  0  0  0  0  0  0  0  0  0  0  0
    3.8184   -0.1383   17.4249 Cl  0  0  0  0  0  0  0  0  0  0  0  0
    2.4547    2.6351   17.5780 P   0  0  0  0  0  0  0  0  0  0  0  0
   -0.5248    1.1804   16.9490 P   0  0  0  0  0  0  0  0  0  0  0  0
   -2.6330    1.2524   15.3495 O   0  0  0  0  0  0  0  0  0  0  0  0
    3.7303    4.1149   19.3762 O   0  0  0  0  0  0  0  0  0  0  0  0
   -2.5077   -0.6571   16.9324 N   0  0  0  0  0  0  0  0  0  0  0  0
    5.0536    3.3790   17.3877 N   0  0  0  0  0  0  0  0  0  0  0  0
   -1.5095   -0.2057   17.5863 C   0  0  0  0  0  0  0  0  0  0  0  0
    4.0973    2.8339   16.7317 C   0  0  0  0  0  0  0  0  0  0  0  0
    2.9305    2.9710   19.2955 C   0  0  0  0  0  0  0  0  0  0  0  0
   -1.2452    1.3255   15.2915 C   0  0  0  0  0  0  0  0  0  0  0  0
   -4.7438   -0.0114   15.8999 C   0  0  0  0  0  0  0  0  0  0  0  0
    5.8302    5.3821   18.8734 C   0  0  0  0  0  0  0  0  0  0  0  0
   -5.5942   -1.0856   15.7675 C   0  0  0  0  0  0  0  0  0  0  0  0
    7.2497    5.5078   19.0161 C   0  0  0  0  0  0  0  0  0  0  0  0
    7.8887    6.7191   18.9892 C   0  0  0  0  0  0  0  0  0  0  0  0
   -6.9622   -1.0056   16.0572 C   0  0  0  0  0  0  0  0  0  0  0  0
    7.1097    7.8961   18.8278 C   0  0  0  0  0  0  0  0  0  0  0  0
   -7.5297    0.0914   16.4503 C   0  0  0  0  0  0  0  0  0  0  0  0
   -6.7473    1.1198   16.7193 C   0  0  0  0  0  0  0  0  0  0  0  0
    5.7574    7.7932   18.6933 C   0  0  0  0  0  0  0  0  0  0  0  0
    5.1412    6.5477   18.7058 C   0  0  0  0  0  0  0  0  0  0  0  0
   -5.3609    1.0856   16.3882 C   0  0  0  0  0  0  0  0  0  0  0  0
   -2.8250   -1.1084   14.3728 C   0  0  0  0  0  0  0  0  0  0  0  0
    5.9365    2.8568   19.8169 C   0  0  0  0  0  0  0  0  0  0  0  0
    6.3834    1.5884   19.3762 C   0  0  0  0  0  0  0  0  0  0  0  0
   -2.0949   -2.2625   14.4204 C   0  0  0  0  0  0  0  0  0  0  0  0
    6.9824    0.6856   20.3404 C   0  0  0  0  0  0  0  0  0  0  0  0
   -1.7859   -3.0510   13.3299 C   0  0  0  0  0  0  0  0  0  0  0  0
    7.1504    1.0513   21.6461 C   0  0  0  0  0  0  0  0  0  0  0  0
   -2.1894   -2.6853   12.0967 C   0  0  0  0  0  0  0  0  0  0  0  0
    6.6898    2.2283   22.0496 C   0  0  0  0  0  0  0  0  0  0  0  0
   -2.9022   -1.5541   11.9601 C   0  0  0  0  0  0  0  0  0  0  0  0
   -3.1825   -0.7542   13.0713 C   0  0  0  0  0  0  0  0  0  0  0  0
    6.1215    3.1196   21.1702 C   0  0  0  0  0  0  0  0  0  0  0  0
   -1.1267   -0.7656   18.8982 C   0  0  0  0  0  0  0  0  0  0  0  0
    4.2159    2.3997   15.3309 C   0  0  0  0  0  0  0  0  0  0  0  0
    1.5890    4.0794   16.9076 C   0  0  0  0  0  0  0  0  0  0  0  0
   -1.1583    2.5254   17.9381 C   0  0  0  0  0  0  0  0  0  0  0  0
    1.3188    5.1879   17.7518 C   0  0  0  0  0  0  0  0  0  0  0  0
   -2.0635    3.4852   17.4601 C   0  0  0  0  0  0  0  0  0  0  0  0
   -2.5359    4.5022   18.2236 C   0  0  0  0  0  0  0  0  0  0  0  0
    0.6566    6.2620   17.1745 C   0  0  0  0  0  0  0  0  0  0  0  0
   -2.2011    4.5822   19.5707 C   0  0  0  0  0  0  0  0  0  0  0  0
    0.2324    6.1820   15.8233 C   0  0  0  0  0  0  0  0  0  0  0  0
   -1.2865    3.6224   20.1252 C   0  0  0  0  0  0  0  0  0  0  0  0
    0.4897    5.1422   15.0929 C   0  0  0  0  0  0  0  0  0  0  0  0
   -0.7724    2.6396   19.2976 C   0  0  0  0  0  0  0  0  0  0  0  0
    1.1584    4.0794   15.5957 C   0  0  0  0  0  0  0  0  0  0  0  0
    5.1373    3.9195   18.9023 B   0  0  0  0  0  0  0  0  0  0  0  0
   -3.1877   -0.0914   15.5295 B   0  0  0  0  0  0  0  0  0  0  0  0
   -2.9140   -1.4284   17.2946 H   0  0  0  0  0  0  0  0  0  0  0  0
    5.8562    3.4932   16.8952 H   0  0  0  0  0  0  0  0  0  0  0  0
    7.7589    4.6885   19.1258 H   0  0  0  0  0  0  0  0  0  0  0  0
   -5.2295   -1.9163   15.4012 H   0  0  0  0  0  0  0  0  0  0  0  0
    8.8889    6.7122   19.0824 H   0  0  0  0  0  0  0  0  0  0  0  0
   -7.4206   -1.8889   16.0944 H   0  0  0  0  0  0  0  0  0  0  0  0
    7.5872    8.7142   18.8361 H   0  0  0  0  0  0  0  0  0  0  0  0
   -8.5063    0.1086   16.4607 H   0  0  0  0  0  0  0  0  0  0  0  0
    5.2464    8.5862   18.5464 H   0  0  0  0  0  0  0  0  0  0  0  0
   -7.1494    1.8752   17.1104 H   0  0  0  0  0  0  0  0  0  0  0  0
    4.1972    6.4848   18.6044 H   0  0  0  0  0  0  0  0  0  0  0  0
   -4.8306    1.8877   16.4793 H   0  0  0  0  0  0  0  0  0  0  0  0
    6.2864    1.3518   18.4430 H   0  0  0  0  0  0  0  0  0  0  0  0
   -1.7586   -2.5219   15.2833 H   0  0  0  0  0  0  0  0  0  0  0  0
    7.2699   -0.1783   19.9659 H   0  0  0  0  0  0  0  0  0  0  0  0
   -1.2509   -3.8818   13.4748 H   0  0  0  0  0  0  0  0  0  0  0  0
    7.5873    0.4422   22.2607 H   0  0  0  0  0  0  0  0  0  0  0  0
   -2.0054   -3.2818   11.3600 H   0  0  0  0  0  0  0  0  0  0  0  0
    6.7540    2.4819   22.9642 H   0  0  0  0  0  0  0  0  0  0  0  0
   -3.1875   -1.3038   11.1117 H   0  0  0  0  0  0  0  0  0  0  0  0
    5.8140    3.9640   21.4806 H   0  0  0  0  0  0  0  0  0  0  0  0
   -3.6499    0.0788   12.9285 H   0  0  0  0  0  0  0  0  0  0  0  0
    1.5791    5.2027   18.6520 H   0  0  0  0  0  0  0  0  0  0  0  0
   -2.3669    3.4064   16.5476 H   0  0  0  0  0  0  0  0  0  0  0  0
    0.5444    7.0939   17.6794 H   0  0  0  0  0  0  0  0  0  0  0  0
   -3.1169    5.1879   17.8181 H   0  0  0  0  0  0  0  0  0  0  0  0
   -0.2932    6.9465   15.5233 H   0  0  0  0  0  0  0  0  0  0  0  0
   -2.5358    5.2450   20.1315 H   0  0  0  0  0  0  0  0  0  0  0  0
    0.1947    5.1616   14.2073 H   0  0  0  0  0  0  0  0  0  0  0  0
   -1.0499    3.6612   21.0543 H   0  0  0  0  0  0  0  0  0  0  0  0
    1.3381    3.3801   15.0619 H   0  0  0  0  0  0  0  0  0  0  0  0
   -0.1156    2.0203   19.6679 H   0  0  0  0  0  0  0  0  0  0  0  0
   -0.9226    0.6456   14.7329 H   0  0  0  0  0  0  0  0  0  0  0  0
    3.4190    2.2294   19.6493 H   0  0  0  0  0  0  0  0  0  0  0  0
   -1.0076    2.1837   14.9191 H   0  0  0  0  0  0  0  0  0  0  0  0
    2.1553    3.1093   19.8293 H   0  0  0  0  0  0  0  0  0  0  0  0
   -0.4136   -0.3737   19.2934 H   0  0  0  0  0  0  0  0  0  0  0  0
    3.4048    2.0397   15.0412 H   0  0  0  0  0  0  0  0  0  0  0  0
   -1.9110   -0.7096   19.5169 H   0  0  0  0  0  0  0  0  0  0  0  0
    4.4376    3.1710   14.7929 H   0  0  0  0  0  0  0  0  0  0  0  0
   -0.9824   -1.7369   18.8175 H   0  0  0  0  0  0  0  0  0  0  0  0
    4.9175    1.7700   15.2564 H   0  0  0  0  0  0  0  0  0  0  0  0
  1  2  1  0  0  0  0
  3  1  1  0  0  0  0
  4  1  1  0  0  0  0
  5  1  1  0  0  0  0
  6 13  1  0  0  0  0
  7 12  1  0  0  0  0
  8 10  2  0  0  0  0
  9 11  2  0  0  0  0
 10  5  1  0  0  0  0
 11  4  1  0  0  0  0
 12  4  1  0  0  0  0
 13  5  1  0  0  0  0
 14 16  4  0  0  0  0
 15 17  4  0  0  0  0
 16 19  4  0  0  0  0
 17 18  4  0  0  0  0
 18 20  4  0  0  0  0
 19 21  4  0  0  0  0
 20 23  4  0  0  0  0
 21 22  4  0  0  0  0
 22 25  4  0  0  0  0
 23 24  4  0  0  0  0
 24 15  4  0  0  0  0
 25 14  4  0  0  0  0
 26 29  4  0  0  0  0
 27 28  4  0  0  0  0
 28 30  4  0  0  0  0
 29 31  4  0  0  0  0
 30 32  4  0  0  0  0
 31 33  4  0  0  0  0
 32 34  4  0  0  0  0
 33 35  4  0  0  0  0
 34 37  4  0  0  0  0
 35 36  4  0  0  0  0
 36 26  4  0  0  0  0
 37 27  4  0  0  0  0
 38 10  1  0  0  0  0
 39 11  1  0  0  0  0
 40  4  1  0  0  0  0
 41  5  1  0  0  0  0
 42 40  4  0  0  0  0
 43 41  4  0  0  0  0
 44 43  4  0  0  0  0
 45 42  4  0  0  0  0
 46 44  4  0  0  0  0
 47 45  4  0  0  0  0
 48 46  4  0  0  0  0
 49 47  4  0  0  0  0
 50 41  4  0  0  0  0
 51 40  4  0  0  0  0
 52  7  1  0  0  0  0
 53  6  1  0  0  0  0
 54  8  1  0  0  0  0
 55  9  1  0  0  0  0
 56 17  1  0  0  0  0
 57 16  1  0  0  0  0
 58 18  1  0  0  0  0
 59 19  1  0  0  0  0
 60 20  1  0  0  0  0
 61 21  1  0  0  0  0
 62 23  1  0  0  0  0
 63 22  1  0  0  0  0
 64 24  1  0  0  0  0
 65 25  1  0  0  0  0
 66 28  1  0  0  0  0
 67 29  1  0  0  0  0
 68 30  1  0  0  0  0
 69 31  1  0  0  0  0
 70 32  1  0  0  0  0
 71 33  1  0  0  0  0
 72 34  1  0  0  0  0
 73 35  1  0  0  0  0
 74 37  1  0  0  0  0
 75 36  1  0  0  0  0
 76 42  1  0  0  0  0
 77 43  1  0  0  0  0
 78 45  1  0  0  0  0
 79 44  1  0  0  0  0
 80 47  1  0  0  0  0
 81 46  1  0  0  0  0
 82 49  1  0  0  0  0
 83 48  1  0  0  0  0
 84 51  1  0  0  0  0
 85 50  1  0  0  0  0
 86 13  1  0  0  0  0
 87 12  1  0  0  0  0
 88 13  1  0  0  0  0
 89 12  1  0  0  0  0
 90 38  1  0  0  0  0
 91 39  1  0  0  0  0
 92 38  1  0  0  0  0
 93 39  1  0  0  0  0
 94 38  1  0  0  0  0
 95 39  1  0  0  0  0
  8 53  1  0  0  0  0
  9 52  1  0  0  0  0
 14 53  1  0  0  0  0
 15 52  1  0  0  0  0
 26 53  1  0  0  0  0
 27 52  1  0  0  0  0
 48 50  4  0  0  0  0
 49 51  4  0  0  0  0
M  END
$$$$
FIHHOT

From CSD data. Using bond type 'Any'. No disordered atoms. Largest molecule.
110117  0  0  0  0  0  0  0  0999 V2000
   -0.5958    5.6652    2.5965 P   0  0  0  0  0  0  0  0  0  0  0  0
   -0.4569    6.9524    7.1086 P   0  0  0  0  0  0  0  0  0  0  0  0
   -4.1587    7.6270    4.2686 P   0  0  0  0  0  0  0  0  0  0  0  0
   -0.2233    9.7580    3.3251 P   0  0  0  0  0  0  0  0  0  0  0  0
   -0.8454    6.3681    3.8995 O   0  0  0  0  0  0  0  0  0  0  0  0
   -0.5831    7.7758    5.7656 O   0  0  0  0  0  0  0  0  0  0  0  0
   -2.7757    7.3010    4.9629 O   0  0  0  0  0  0  0  0  0  0  0  0
   -1.3598    8.7429    3.7226 O   0  0  0  0  0  0  0  0  0  0  0  0
   -1.4075    7.5830    4.5957 B   0  0  0  0  0  0  0  0  0  0  0  0
   -0.6749    5.0536    7.0249 B   0  0  0  0  0  0  0  0  0  0  0  0
   -4.2892    7.4186    2.3778 B   0  0  0  0  0  0  0  0  0  0  0  0
    1.3709    8.9844    2.6878 B   0  0  0  0  0  0  0  0  0  0  0  0
   -1.7982    4.3819    2.3378 C   0  0  0  0  0  0  0  0  0  0  0  0
   -1.7739    3.7027    1.1185 C   0  0  0  0  0  0  0  0  0  0  0  0
   -2.6868    2.7360    0.8750 C   0  0  0  0  0  0  0  0  0  0  0  0
   -3.6180    2.4037    1.8337 C   0  0  0  0  0  0  0  0  0  0  0  0
   -3.6181    3.0545    3.0416 C   0  0  0  0  0  0  0  0  0  0  0  0
   -2.6987    4.0560    3.3022 C   0  0  0  0  0  0  0  0  0  0  0  0
    1.0168    4.9228    2.5680 C   0  0  0  0  0  0  0  0  0  0  0  0
    2.0560    5.4570    1.6264 C   0  0  0  0  0  0  0  0  0  0  0  0
    3.2911    4.8420    1.8147 C   0  0  0  0  0  0  0  0  0  0  0  0
    3.5226    3.7719    2.5832 C   0  0  0  0  0  0  0  0  0  0  0  0
    2.5426    3.2349    3.3346 C   0  0  0  0  0  0  0  0  0  0  0  0
    1.2750    3.8121    3.3251 C   0  0  0  0  0  0  0  0  0  0  0  0
    1.1727    7.4370    7.7135 C   0  0  0  0  0  0  0  0  0  0  0  0
    1.9727    8.3125    6.9849 C   0  0  0  0  0  0  0  0  0  0  0  0
    3.2481    8.6420    7.4376 C   0  0  0  0  0  0  0  0  0  0  0  0
    3.7053    8.1089    8.6284 C   0  0  0  0  0  0  0  0  0  0  0  0
    2.9041    7.2588    9.3608 C   0  0  0  0  0  0  0  0  0  0  0  0
    1.6406    6.9182    8.9080 C   0  0  0  0  0  0  0  0  0  0  0  0
   -1.5692    7.7713    8.2727 C   0  0  0  0  0  0  0  0  0  0  0  0
   -2.5964    7.0743    8.9042 C   0  0  0  0  0  0  0  0  0  0  0  0
   -3.4622    7.7568    9.7621 C   0  0  0  0  0  0  0  0  0  0  0  0
   -3.3131    9.0950    9.9676 C   0  0  0  0  0  0  0  0  0  0  0  0
   -2.2852    9.7970    9.3494 C   0  0  0  0  0  0  0  0  0  0  0  0
   -1.4093    9.1234    8.5124 C   0  0  0  0  0  0  0  0  0  0  0  0
   -5.2896    6.5530    5.1626 C   0  0  0  0  0  0  0  0  0  0  0  0
   -4.8726    5.7577    6.2050 C   0  0  0  0  0  0  0  0  0  0  0  0
   -5.7955    4.9702    6.9107 C   0  0  0  0  0  0  0  0  0  0  0  0
   -7.1080    4.9804    6.5455 C   0  0  0  0  0  0  0  0  0  0  0  0
   -7.5339    5.7582    5.4955 C   0  0  0  0  0  0  0  0  0  0  0  0
   -6.6442    6.5558    4.8107 C   0  0  0  0  0  0  0  0  0  0  0  0
   -4.6043    9.2863    4.8506 C   0  0  0  0  0  0  0  0  0  0  0  0
   -4.2416    9.7239    6.1137 C   0  0  0  0  0  0  0  0  0  0  0  0
   -4.5515   10.9691    6.5588 C   0  0  0  0  0  0  0  0  0  0  0  0
   -5.2610   11.8413    5.7390 C   0  0  0  0  0  0  0  0  0  0  0  0
   -5.6633   11.4164    4.5349 C   0  0  0  0  0  0  0  0  0  0  0  0
   -5.3607   10.1324    4.0422 C   0  0  0  0  0  0  0  0  0  0  0  0
    0.0314   10.8460    4.7441 C   0  0  0  0  0  0  0  0  0  0  0  0
   -1.0196   11.2578    5.5373 C   0  0  0  0  0  0  0  0  0  0  0  0
   -0.8213   12.0894    6.6007 C   0  0  0  0  0  0  0  0  0  0  0  0
    0.4130   12.5369    6.9183 C   0  0  0  0  0  0  0  0  0  0  0  0
    1.4790   12.1521    6.1422 C   0  0  0  0  0  0  0  0  0  0  0  0
    1.3095   11.3219    5.0504 C   0  0  0  0  0  0  0  0  0  0  0  0
   -1.0750   10.8036    2.1267 C   0  0  0  0  0  0  0  0  0  0  0  0
   -2.4502   11.0067    2.2085 C   0  0  0  0  0  0  0  0  0  0  0  0
   -3.0978   11.8388    1.3220 C   0  0  0  0  0  0  0  0  0  0  0  0
   -2.3675   12.4800    0.3329 C   0  0  0  0  0  0  0  0  0  0  0  0
   -1.0316   12.2864    0.2397 C   0  0  0  0  0  0  0  0  0  0  0  0
   -0.3585   11.4641    1.1299 C   0  0  0  0  0  0  0  0  0  0  0  0
    0.1340    4.4980    6.3248 H   0  0  0  0  0  0  0  0  0  0  0  0
   -1.5971    4.8255    6.4123 H   0  0  0  0  0  0  0  0  0  0  0  0
   -0.6734    4.8525    7.9646 H   0  0  0  0  0  0  0  0  0  0  0  0
   -5.4822    7.4168    2.0753 H   0  0  0  0  0  0  0  0  0  0  0  0
   -3.6381    7.9578    1.8528 H   0  0  0  0  0  0  0  0  0  0  0  0
   -3.7148    6.3839    2.0449 H   0  0  0  0  0  0  0  0  0  0  0  0
    1.8081    8.2867    3.6047 H   0  0  0  0  0  0  0  0  0  0  0  0
    2.1492    9.8400    2.4976 H   0  0  0  0  0  0  0  0  0  0  0  0
    1.2124    8.4610    1.8090 H   0  0  0  0  0  0  0  0  0  0  0  0
   -0.6142    6.2319    1.5598 H   0  0  0  0  0  0  0  0  0  0  0  0
   -1.2299    4.3423    0.2530 H   0  0  0  0  0  0  0  0  0  0  0  0
   -2.8003    2.1715   -0.0951 H   0  0  0  0  0  0  0  0  0  0  0  0
   -4.4329    1.7341    1.8185 H   0  0  0  0  0  0  0  0  0  0  0  0
   -4.2478    2.9038    3.8158 H   0  0  0  0  0  0  0  0  0  0  0  0
   -2.6278    4.5700    4.2343 H   0  0  0  0  0  0  0  0  0  0  0  0
    1.8629    6.3055    1.2650 H   0  0  0  0  0  0  0  0  0  0  0  0
    4.0542    5.4704    1.2878 H   0  0  0  0  0  0  0  0  0  0  0  0
    4.6263    3.5276    2.4329 H   0  0  0  0  0  0  0  0  0  0  0  0
    2.7565    2.4061    3.8824 H   0  0  0  0  0  0  0  0  0  0  0  0
    0.8164    3.5318    4.0631 H   0  0  0  0  0  0  0  0  0  0  0  0
    1.7684    8.5826    6.0700 H   0  0  0  0  0  0  0  0  0  0  0  0
    3.9437    9.2557    6.9602 H   0  0  0  0  0  0  0  0  0  0  0  0
    4.6739    8.4462    8.8567 H   0  0  0  0  0  0  0  0  0  0  0  0
    3.1265    7.0008   10.3252 H   0  0  0  0  0  0  0  0  0  0  0  0
    0.9047    6.1852    9.5015 H   0  0  0  0  0  0  0  0  0  0  0  0
   -2.6357    6.1203    8.7178 H   0  0  0  0  0  0  0  0  0  0  0  0
   -4.3505    7.1760   10.2491 H   0  0  0  0  0  0  0  0  0  0  0  0
   -3.7056    9.7150   10.8293 H   0  0  0  0  0  0  0  0  0  0  0  0
   -2.2371   10.6453    9.8477 H   0  0  0  0  0  0  0  0  0  0  0  0
   -0.6853    9.7876    7.9817 H   0  0  0  0  0  0  0  0  0  0  0  0
   -3.9117    5.7680    6.4257 H   0  0  0  0  0  0  0  0  0  0  0  0
   -5.4173    4.3673    7.7553 H   0  0  0  0  0  0  0  0  0  0  0  0
   -7.7581    4.5175    7.1942 H   0  0  0  0  0  0  0  0  0  0  0  0
   -8.6118    5.8881    5.5259 H   0  0  0  0  0  0  0  0  0  0  0  0
   -6.7197    6.9420    3.7987 H   0  0  0  0  0  0  0  0  0  0  0  0
   -3.8807    9.0548    6.6539 H   0  0  0  0  0  0  0  0  0  0  0  0
   -4.5686   11.2279    7.5651 H   0  0  0  0  0  0  0  0  0  0  0  0
   -5.6131   12.8013    6.1632 H   0  0  0  0  0  0  0  0  0  0  0  0
   -5.9741   12.0099    3.8349 H   0  0  0  0  0  0  0  0  0  0  0  0
   -5.4518    9.9201    3.0416 H   0  0  0  0  0  0  0  0  0  0  0  0
   -1.9620   10.8730    5.2121 H   0  0  0  0  0  0  0  0  0  0  0  0
   -1.4946   12.5250    7.2493 H   0  0  0  0  0  0  0  0  0  0  0  0
    0.3988   12.9964    7.9646 H   0  0  0  0  0  0  0  0  0  0  0  0
    2.2819   12.6475    6.2564 H   0  0  0  0  0  0  0  0  0  0  0  0
    1.9799   10.9614    4.1430 H   0  0  0  0  0  0  0  0  0  0  0  0
   -3.0429   10.5560    3.1063 H   0  0  0  0  0  0  0  0  0  0  0  0
   -4.1035   11.9781    1.1623 H   0  0  0  0  0  0  0  0  0  0  0  0
   -2.9698   12.9434   -0.3938 H   0  0  0  0  0  0  0  0  0  0  0  0
   -0.6453   12.4229   -0.7228 H   0  0  0  0  0  0  0  0  0  0  0  0
    0.6520   11.1010    0.9739 H   0  0  0  0  0  0  0  0  0  0  0  0
  1  5  1  0  0  0  0
  2  6  1  0  0  0  0
  3  7  1  0  0  0  0
  4  8  1  0  0  0  0
  5  9  1  0  0  0  0
  6  9  1  0  0  0  0
  7  9  1  0  0  0  0
  8  9  1  0  0  0  0
 10  2  1  0  0  0  0
 11  3  1  0  0  0  0
 12  4  1  0  0  0  0
 13  1  1  0  0  0  0
 14 13  4  0  0  0  0
 15 14  4  0  0  0  0
 16 15  4  0  0  0  0
 17 16  4  0  0  0  0
 18 13  4  0  0  0  0
 19  1  1  0  0  0  0
 20 19  4  0  0  0  0
 21 20  4  0  0  0  0
 22 21  4  0  0  0  0
 23 22  4  0  0  0  0
 24 19  4  0  0  0  0
 25  2  1  0  0  0  0
 26 25  4  0  0  0  0
 27 26  4  0  0  0  0
 28 27  4  0  0  0  0
 29 28  4  0  0  0  0
 30 25  4  0  0  0  0
 31  2  1  0  0  0  0
 32 31  4  0  0  0  0
 33 32  4  0  0  0  0
 34 33  4  0  0  0  0
 35 34  4  0  0  0  0
 36 31  4  0  0  0  0
 37  3  1  0  0  0  0
 38 37  4  0  0  0  0
 39 38  4  0  0  0  0
 40 39  4  0  0  0  0
 41 40  4  0  0  0  0
 42 37  4  0  0  0  0
 43  3  1  0  0  0  0
 44 43  4  0  0  0  0
 45 44  4  0  0  0  0
 46 45  4  0  0  0  0
 47 46  4  0  0  0  0
 48 43  4  0  0  0  0
 49  4  1  0  0  0  0
 50 49  4  0  0  0  0
 51 50  4  0  0  0  0
 52 51  4  0  0  0  0
 53 52  4  0  0  0  0
 54 49  4  0  0  0  0
 55  4  1  0  0  0  0
 56 55  4  0  0  0  0
 57 56  4  0  0  0  0
 58 57  4  0  0  0  0
 59 58  4  0  0  0  0
 60 55  4  0  0  0  0
 61 10  1  0  0  0  0
 62 10  1  0  0  0  0
 63 10  1  0  0  0  0
 64 11  1  0  0  0  0
 65 11  1  0  0  0  0
 66 11  1  0  0  0  0
 67 12  1  0  0  0  0
 68 12  1  0  0  0  0
 69 12  1  0  0  0  0
 70  1  1  0  0  0  0
 71 14  1  0  0  0  0
 72 15  1  0  0  0  0
 73 16  1  0  0  0  0
 74 17  1  0  0  0  0
 75 18  1  0  0  0  0
 76 20  1  0  0  0  0
 77 21  1  0  0  0  0
 78 22  1  0  0  0  0
 79 23  1  0  0  0  0
 80 24  1  0  0  0  0
 81 26  1  0  0  0  0
 82 27  1  0  0  0  0
 83 28  1  0  0  0  0
 84 29  1  0  0  0  0
 85 30  1  0  0  0  0
 86 32  1  0  0  0  0
 87 33  1  0  0  0  0
 88 34  1  0  0  0  0
 89 35  1  0  0  0  0
 90 36  1  0  0  0  0
 91 38  1  0  0  0  0
 92 39  1  0  0  0  0
 93 40  1  0  0  0  0
 94 41  1  0  0  0  0
 95 42  1  0  0  0  0
 96 44  1  0  0  0  0
 97 45  1  0  0  0  0
 98 46  1  0  0  0  0
 99 47  1  0  0  0  0
100 48  1  0  0  0  0
101 50  1  0  0  0  0
102 51  1  0  0  0  0
103 52  1  0  0  0  0
104 53  1  0  0  0  0
105 54  1  0  0  0  0
106 56  1  0  0  0  0
107 57  1  0  0  0  0
108 58  1  0  0  0  0
109 59  1  0  0  0  0
110 60  1  0  0  0  0
 17 18  4  0  0  0  0
 23 24  4  0  0  0  0
 29 30  4  0  0  0  0
 35 36  4  0  0  0  0
 41 42  4  0  0  0  0
 47 48  4  0  0  0  0
 53 54  4  0  0  0  0
 59 60  4  0  0  0  0
M  END
$$$$
FILFAH

From CSD data. Using bond type 'Any'. No disordered atoms. Largest molecule.
 91103  0  0  0  0  0  0  0  0999 V2000
    1.9897    1.6011    2.7934 U   0  0  0  0  0  0  0  0  0  0  0  0
    0.4512    3.4138   -0.1247 P   0  0  0  0  0  0  0  0  0  0  0  0
    3.6328    0.7853    6.0496 P   0  0  0  0  0  0  0  0  0  0  0  0
    1.0257    2.3720    0.8116 O   0  0  0  0  0  0  0  0  0  0  0  0
    2.9748    0.9296    4.6816 O   0  0  0  0  0  0  0  0  0  0  0  0
    0.7141    2.8368   -1.7879 C   0  0  0  0  0  0  0  0  0  0  0  0
    0.4469    3.6381   -2.8701 C   0  0  0  0  0  0  0  0  0  0  0  0
    0.5425    3.2054   -4.1758 C   0  0  0  0  0  0  0  0  0  0  0  0
    0.8716    1.9232   -4.3169 C   0  0  0  0  0  0  0  0  0  0  0  0
    1.1462    0.9456   -3.2818 C   0  0  0  0  0  0  0  0  0  0  0  0
    1.1195    1.4424   -2.0232 C   0  0  0  0  0  0  0  0  0  0  0  0
   -1.2453    3.6061    0.1176 C   0  0  0  0  0  0  0  0  0  0  0  0
   -1.8541    4.6959   -0.4235 C   0  0  0  0  0  0  0  0  0  0  0  0
   -3.3344    4.8402   -0.3058 C   0  0  0  0  0  0  0  0  0  0  0  0
   -3.9978    3.8305    0.3294 C   0  0  0  0  0  0  0  0  0  0  0  0
   -3.3397    2.7406    0.8822 C   0  0  0  0  0  0  0  0  0  0  0  0
   -2.0554    2.6445    0.7763 C   0  0  0  0  0  0  0  0  0  0  0  0
    1.2758    4.9844    0.0118 C   0  0  0  0  0  0  0  0  0  0  0  0
    2.4837    5.2889   -0.7058 C   0  0  0  0  0  0  0  0  0  0  0  0
    3.1830    6.4909   -0.4117 C   0  0  0  0  0  0  0  0  0  0  0  0
    2.6912    7.2923    0.4940 C   0  0  0  0  0  0  0  0  0  0  0  0
    1.5678    7.1480    1.2586 C   0  0  0  0  0  0  0  0  0  0  0  0
    0.8099    5.9300    1.0116 C   0  0  0  0  0  0  0  0  0  0  0  0
    5.2525    0.0641    5.8461 C   0  0  0  0  0  0  0  0  0  0  0  0
    5.7393   -0.9135    6.7048 C   0  0  0  0  0  0  0  0  0  0  0  0
    7.0312   -1.3783    6.4224 C   0  0  0  0  0  0  0  0  0  0  0  0
    7.7405   -0.9296    5.4344 C   0  0  0  0  0  0  0  0  0  0  0  0
    7.3764    0.0000    4.5757 C   0  0  0  0  0  0  0  0  0  0  0  0
    6.0010    0.6090    4.7404 C   0  0  0  0  0  0  0  0  0  0  0  0
    3.7385    2.4521    6.8812 C   0  0  0  0  0  0  0  0  0  0  0  0
    5.0592    2.9490    7.3164 C   0  0  0  0  0  0  0  0  0  0  0  0
    5.0010    4.2952    7.8104 C   0  0  0  0  0  0  0  0  0  0  0  0
    3.9247    4.8882    8.0222 C   0  0  0  0  0  0  0  0  0  0  0  0
    2.8306    4.3754    7.7046 C   0  0  0  0  0  0  0  0  0  0  0  0
    2.6363    3.1253    6.9988 C   0  0  0  0  0  0  0  0  0  0  0  0
    2.6604   -0.3205    7.1047 C   0  0  0  0  0  0  0  0  0  0  0  0
    2.6224   -0.2084    8.4339 C   0  0  0  0  0  0  0  0  0  0  0  0
    1.8800   -1.1539    9.1161 C   0  0  0  0  0  0  0  0  0  0  0  0
    1.2852   -2.1636    8.5515 C   0  0  0  0  0  0  0  0  0  0  0  0
    1.3119   -2.2598    7.2929 C   0  0  0  0  0  0  0  0  0  0  0  0
    1.9289   -1.3302    6.5636 C   0  0  0  0  0  0  0  0  0  0  0  0
    3.6845    0.6571    1.1880 B   0  0  0  0  0  0  0  0  0  0  0  0
    0.5593   -0.5449    2.9054 B   0  0  0  0  0  0  0  0  0  0  0  0
   -0.0907    3.0772    4.0346 B   0  0  0  0  0  0  0  0  0  0  0  0
    3.3940    3.8144    3.1406 B   0  0  0  0  0  0  0  0  0  0  0  0
    0.1996    4.5517   -2.7290 H   0  0  0  0  0  0  0  0  0  0  0  0
    0.3232    3.7503   -4.9168 H   0  0  0  0  0  0  0  0  0  0  0  0
    1.0037    1.6348   -5.2109 H   0  0  0  0  0  0  0  0  0  0  0  0
    1.3063    0.0321   -3.5171 H   0  0  0  0  0  0  0  0  0  0  0  0
    1.3406    0.8815   -1.2939 H   0  0  0  0  0  0  0  0  0  0  0  0
   -1.3340    5.3370   -0.9293 H   0  0  0  0  0  0  0  0  0  0  0  0
   -3.8032    5.5934   -0.6352 H   0  0  0  0  0  0  0  0  0  0  0  0
   -4.9345    3.8946    0.4352 H   0  0  0  0  0  0  0  0  0  0  0  0
   -3.8448    2.0515    1.2939 H   0  0  0  0  0  0  0  0  0  0  0  0
   -1.6043    1.9072    1.1527 H   0  0  0  0  0  0  0  0  0  0  0  0
    2.8162    4.6478   -1.3174 H   0  0  0  0  0  0  0  0  0  0  0  0
    3.9586    6.7153   -0.9175 H   0  0  0  0  0  0  0  0  0  0  0  0
    3.2207    8.0776    0.6352 H   0  0  0  0  0  0  0  0  0  0  0  0
    1.3179    7.7571    1.9291 H   0  0  0  0  0  0  0  0  0  0  0  0
   -0.0010    5.7697    1.4821 H   0  0  0  0  0  0  0  0  0  0  0  0
    5.2282   -1.2661    7.4105 H   0  0  0  0  0  0  0  0  0  0  0  0
    7.3835   -2.0194    7.0341 H   0  0  0  0  0  0  0  0  0  0  0  0
    8.5454   -1.3943    5.2579 H   0  0  0  0  0  0  0  0  0  0  0  0
    7.9887    0.3366    3.9405 H   0  0  0  0  0  0  0  0  0  0  0  0
    5.6719    1.2982    4.1758 H   0  0  0  0  0  0  0  0  0  0  0  0
    5.8335    2.4201    7.1400 H   0  0  0  0  0  0  0  0  0  0  0  0
    5.8824    4.8081    7.4105 H   0  0  0  0  0  0  0  0  0  0  0  0
    3.8181    5.6736    8.5633 H   0  0  0  0  0  0  0  0  0  0  0  0
    2.0425    4.8882    7.7752 H   0  0  0  0  0  0  0  0  0  0  0  0
    1.8694    2.7887    6.5518 H   0  0  0  0  0  0  0  0  0  0  0  0
    3.2202    0.3526    8.9161 H   0  0  0  0  0  0  0  0  0  0  0  0
    1.7441   -0.4808   10.0336 H   0  0  0  0  0  0  0  0  0  0  0  0
    0.8719   -2.8368    9.0926 H   0  0  0  0  0  0  0  0  0  0  0  0
    0.8822   -2.9650    6.8459 H   0  0  0  0  0  0  0  0  0  0  0  0
    1.9273   -1.4104    5.6108 H   0  0  0  0  0  0  0  0  0  0  0  0
    3.3331    1.7469    1.3410 H   0  0  0  0  0  0  0  0  0  0  0  0
    2.7602   -0.0160    1.0234 H   0  0  0  0  0  0  0  0  0  0  0  0
    4.2501    0.3045    2.1291 H   0  0  0  0  0  0  0  0  0  0  0  0
    4.3724    0.5930    0.2705 H   0  0  0  0  0  0  0  0  0  0  0  0
    0.6123    0.3686    3.5994 H   0  0  0  0  0  0  0  0  0  0  0  0
    1.6189   -0.9135    2.6701 H   0  0  0  0  0  0  0  0  0  0  0  0
    0.0300   -0.2404    1.9291 H   0  0  0  0  0  0  0  0  0  0  0  0
   -0.0444   -1.3783    3.4230 H   0  0  0  0  0  0  0  0  0  0  0  0
    0.2079    2.0034    3.7641 H   0  0  0  0  0  0  0  0  0  0  0  0
    0.7701    3.7984    3.7641 H   0  0  0  0  0  0  0  0  0  0  0  0
   -1.0312    3.3817    3.4582 H   0  0  0  0  0  0  0  0  0  0  0  0
   -0.2929    3.1413    5.1756 H   0  0  0  0  0  0  0  0  0  0  0  0
    2.2749    3.6542    3.3641 H   0  0  0  0  0  0  0  0  0  0  0  0
    3.6277    3.5099    2.0585 H   0  0  0  0  0  0  0  0  0  0  0  0
    4.0239    3.1894    3.8699 H   0  0  0  0  0  0  0  0  0  0  0  0
    3.6474    4.9363    3.2818 H   0  0  0  0  0  0  0  0  0  0  0  0
  1  4  1  0  0  0  0
  2  4  2  0  0  0  0
  3  5  2  0  0  0  0
  5  1  1  0  0  0  0
  6  2  1  0  0  0  0
  7  6  4  0  0  0  0
  8  7  4  0  0  0  0
  9  8  4  0  0  0  0
 10  9  4  0  0  0  0
 11  6  4  0  0  0  0
 12  2  1  0  0  0  0
 13 12  4  0  0  0  0
 14 13  4  0  0  0  0
 15 14  4  0  0  0  0
 16 15  4  0  0  0  0
 17 12  4  0  0  0  0
 18  2  1  0  0  0  0
 19 18  4  0  0  0  0
 20 19  4  0  0  0  0
 21 20  4  0  0  0  0
 22 21  4  0  0  0  0
 23 18  4  0  0  0  0
 24  3  1  0  0  0  0
 25 24  4  0  0  0  0
 26 25  4  0  0  0  0
 27 26  4  0  0  0  0
 28 27  4  0  0  0  0
 29 24  4  0  0  0  0
 30  3  1  0  0  0  0
 31 30  4  0  0  0  0
 32 31  4  0  0  0  0
 33 32  4  0  0  0  0
 34 33  4  0  0  0  0
 35 30  4  0  0  0  0
 36  3  1  0  0  0  0
 37 36  4  0  0  0  0
 38 37  4  0  0  0  0
 39 38  4  0  0  0  0
 40 39  4  0  0  0  0
 41 36  4  0  0  0  0
 42 76  1  0  0  0  0
 43 80  1  0  0  0  0
 44 84  1  0  0  0  0
 45 88  1  0  0  0  0
 46  7  1  0  0  0  0
 47  8  1  0  0  0  0
 48  9  1  0  0  0  0
 49 10  1  0  0  0  0
 50 11  1  0  0  0  0
 51 13  1  0  0  0  0
 52 14  1  0  0  0  0
 53 15  1  0  0  0  0
 54 16  1  0  0  0  0
 55 17  1  0  0  0  0
 56 19  1  0  0  0  0
 57 20  1  0  0  0  0
 58 21  1  0  0  0  0
 59 22  1  0  0  0  0
 60 23  1  0  0  0  0
 61 25  1  0  0  0  0
 62 26  1  0  0  0  0
 63 27  1  0  0  0  0
 64 28  1  0  0  0  0
 65 29  1  0  0  0  0
 66 31  1  0  0  0  0
 67 32  1  0  0  0  0
 68 33  1  0  0  0  0
 69 34  1  0  0  0  0
 70 35  1  0  0  0  0
 71 37  1  0  0  0  0
 72 38  1  0  0  0  0
 73 39  1  0  0  0  0
 74 40  1  0  0  0  0
 75 41  1  0  0  0  0
 76  1  1  0  0  0  0
 77  1  1  0  0  0  0
 78  1  1  0  0  0  0
 79 42  1  0  0  0  0
 80  1  1  0  0  0  0
 81  1  1  0  0  0  0
 82 43  1  0  0  0  0
 83 43  1  0  0  0  0
 84  1  1  0  0  0  0
 85  1  1  0  0  0  0
 86 44  1  0  0  0  0
 87  1  1  0  0  0  0
 88  1  1  0  0  0  0
 89  1  1  0  0  0  0
 90  1  1  0  0  0  0
 91 45  1  0  0  0  0
 10 11  4  0  0  0  0
 16 17  4  0  0  0  0
 22 23  4  0  0  0  0
 28 29  4  0  0  0  0
 34 35  4  0  0  0  0
 40 41  4  0  0  0  0
 42 77  1  0  0  0  0
 42 78  1  0  0  0  0
 43 81  1  0  0  0  0
 44 85  1  0  0  0  0
 44 87  1  0  0  0  0
 45 89  1  0  0  0  0
 45 90  1  0  0  0  0
M  END
$$$$
FILSAY

From CSD data. Using bond type 'Any'. No disordered atoms. Largest molecule.
184194  0  0  0  0  0  0  0  0999 V2000
    3.3035    7.6062    1.0577 K   0  0  0  0  0  0  0  0  0  0  0  0
    6.0769    8.3985    0.1718 Cl  0  0  0  0  0  0  0  0  0  0  0  0
    1.2423    5.1565    3.4160 P   0  0  0  0  0  0  0  0  0  0  0  0
    1.9696    5.9754    2.4072 O   0  0  0  0  0  0  0  0  0  0  0  0
    6.9979    7.5196    4.0518 N   0  0  0  0  0  0  0  0  0  0  0  0
    6.2629    8.7397    4.2357 N   0  0  0  0  0  0  0  0  0  0  0  0
    5.3895    7.8247    6.3342 C   0  0  0  0  0  0  0  0  0  0  0  0
    5.6143    6.9443    6.0554 H   0  0  0  0  0  0  0  0  0  0  0  0
    2.5399   11.4241    2.7214 C   0  0  0  0  0  0  0  0  0  0  0  0
    1.6142   11.3715    2.9306 H   0  0  0  0  0  0  0  0  0  0  0  0
    3.3795   10.3709    3.0798 C   0  0  0  0  0  0  0  0  0  0  0  0
    7.8781    6.0218    1.9776 C   0  0  0  0  0  0  0  0  0  0  0  0
    7.4063    4.6927    2.0286 C   0  0  0  0  0  0  0  0  0  0  0  0
    5.6640    8.9040    5.5058 C   0  0  0  0  0  0  0  0  0  0  0  0
    8.0701    7.3060    4.9527 C   0  0  0  0  0  0  0  0  0  0  0  0
    5.3400   10.1890    5.9341 C   0  0  0  0  0  0  0  0  0  0  0  0
    5.5248   10.9394    5.3805 H   0  0  0  0  0  0  0  0  0  0  0  0
    9.0478    6.2837    1.2553 C   0  0  0  0  0  0  0  0  0  0  0  0
    9.7194    5.8313    5.9113 C   0  0  0  0  0  0  0  0  0  0  0  0
   10.1153    4.9696    5.9550 H   0  0  0  0  0  0  0  0  0  0  0  0
    4.7424   10.3655    7.1759 C   0  0  0  0  0  0  0  0  0  0  0  0
    4.5404   11.2444    7.4755 H   0  0  0  0  0  0  0  0  0  0  0  0
    6.6894   11.6533    1.7144 C   0  0  0  0  0  0  0  0  0  0  0  0
    7.2407   11.4531    2.5006 H   0  0  0  0  0  0  0  0  0  0  0  0
    6.8852   12.5606    1.4014 H   0  0  0  0  0  0  0  0  0  0  0  0
    6.8914   11.0107    1.0028 H   0  0  0  0  0  0  0  0  0  0  0  0
    8.5591    8.3198    5.7824 C   0  0  0  0  0  0  0  0  0  0  0  0
    8.1711    9.1865    5.7402 H   0  0  0  0  0  0  0  0  0  0  0  0
    9.7309    5.2368    0.6297 C   0  0  0  0  0  0  0  0  0  0  0  0
   10.5289    5.4300    0.1511 H   0  0  0  0  0  0  0  0  0  0  0  0
    6.2361    8.2184    1.9440 C   0  0  0  0  0  0  0  0  0  0  0  0
    4.7391   10.4034    2.7495 C   0  0  0  0  0  0  0  0  0  0  0  0
    8.1144    3.6806    1.3788 C   0  0  0  0  0  0  0  0  0  0  0  0
    7.7814    2.7915    1.4178 H   0  0  0  0  0  0  0  0  0  0  0  0
    3.0239   12.5599    2.0595 C   0  0  0  0  0  0  0  0  0  0  0  0
    4.7862    8.0272    7.5666 C   0  0  0  0  0  0  0  0  0  0  0  0
    4.6122    7.2831    8.1305 H   0  0  0  0  0  0  0  0  0  0  0  0
    4.4385    9.2876    7.9828 C   0  0  0  0  0  0  0  0  0  0  0  0
    3.9957    9.4169    8.8129 H   0  0  0  0  0  0  0  0  0  0  0  0
    8.6674    6.0561    5.0346 C   0  0  0  0  0  0  0  0  0  0  0  0
    8.3541    5.3473    4.4855 H   0  0  0  0  0  0  0  0  0  0  0  0
    6.1501    4.3583    2.7938 C   0  0  0  0  0  0  0  0  0  0  0  0
    5.4089    4.9062    2.4605 H   0  0  0  0  0  0  0  0  0  0  0  0
    6.2890    4.5422    3.7466 H   0  0  0  0  0  0  0  0  0  0  0  0
    5.9358    3.4100    2.6722 H   0  0  0  0  0  0  0  0  0  0  0  0
    9.5842    7.6893    1.1506 C   0  0  0  0  0  0  0  0  0  0  0  0
   10.2072    7.7455    0.3965 H   0  0  0  0  0  0  0  0  0  0  0  0
   10.0534    7.9222    1.9796 H   0  0  0  0  0  0  0  0  0  0  0  0
    8.8422    8.3130    1.0094 H   0  0  0  0  0  0  0  0  0  0  0  0
    4.3706   12.5898    1.7614 C   0  0  0  0  0  0  0  0  0  0  0  0
    4.7221   13.3518    1.3169 H   0  0  0  0  0  0  0  0  0  0  0  0
    5.2337   11.5517    2.0850 C   0  0  0  0  0  0  0  0  0  0  0  0
   10.2022    6.8458    6.7222 C   0  0  0  0  0  0  0  0  0  0  0  0
   10.9333    6.6939    7.3088 H   0  0  0  0  0  0  0  0  0  0  0  0
    9.2791    3.9224    0.6847 C   0  0  0  0  0  0  0  0  0  0  0  0
    3.2719    5.2955    5.2896 C   0  0  0  0  0  0  0  0  0  0  0  0
    3.7196    5.8829    4.6444 H   0  0  0  0  0  0  0  0  0  0  0  0
    3.9451    4.7938    5.7950 H   0  0  0  0  0  0  0  0  0  0  0  0
    2.7365    5.8369    5.9063 H   0  0  0  0  0  0  0  0  0  0  0  0
    2.7756    9.2258    3.8384 C   0  0  0  0  0  0  0  0  0  0  0  0
    9.5931    8.0822    6.6577 C   0  0  0  0  0  0  0  0  0  0  0  0
    9.8934    8.7813    7.2268 H   0  0  0  0  0  0  0  0  0  0  0  0
    2.3613    4.3191    4.5432 C   0  0  0  0  0  0  0  0  0  0  0  0
    1.8318    3.8021    5.2013 H   0  0  0  0  0  0  0  0  0  0  0  0
    2.9185    3.6803    4.0327 H   0  0  0  0  0  0  0  0  0  0  0  0
    5.7189    9.1840    2.9375 B   0  0  0  0  0  0  0  0  0  0  0  0
    2.1036   13.7001    1.7225 C   0  0  0  0  0  0  0  0  0  0  0  0
    1.2852   13.3489    1.3144 H   0  0  0  0  0  0  0  0  0  0  0  0
    2.5501   14.3041    1.0935 H   0  0  0  0  0  0  0  0  0  0  0  0
    1.8773   14.1891    2.5410 H   0  0  0  0  0  0  0  0  0  0  0  0
    0.1223    6.1563    4.4130 C   0  0  0  0  0  0  0  0  0  0  0  0
   -0.4057    5.5607    5.0016 H   0  0  0  0  0  0  0  0  0  0  0  0
    0.6536    6.7599    4.9895 H   0  0  0  0  0  0  0  0  0  0  0  0
    7.0449    7.2014    2.6153 B   0  0  0  0  0  0  0  0  0  0  0  0
   -0.8285    6.9877    3.5645 C   0  0  0  0  0  0  0  0  0  0  0  0
   -0.3117    7.5612    2.9620 H   0  0  0  0  0  0  0  0  0  0  0  0
   -1.3850    7.5438    4.1489 H   0  0  0  0  0  0  0  0  0  0  0  0
   -1.4017    6.3920    3.0380 H   0  0  0  0  0  0  0  0  0  0  0  0
   10.0555    2.8176    0.0054 C   0  0  0  0  0  0  0  0  0  0  0  0
    9.4730    2.0399   -0.1217 H   0  0  0  0  0  0  0  0  0  0  0  0
   10.8200    2.5654    0.5642 H   0  0  0  0  0  0  0  0  0  0  0  0
   10.3761    3.1320   -0.8651 H   0  0  0  0  0  0  0  0  0  0  0  0
    0.2475    3.8587    2.6623 C   0  0  0  0  0  0  0  0  0  0  0  0
   -0.1702    3.3166    3.3774 H   0  0  0  0  0  0  0  0  0  0  0  0
   -0.4808    4.2763    2.1362 H   0  0  0  0  0  0  0  0  0  0  0  0
    1.0525    2.9414    1.7507 C   0  0  0  0  0  0  0  0  0  0  0  0
    1.5426    3.4806    1.0961 H   0  0  0  0  0  0  0  0  0  0  0  0
    0.4446    2.3314    1.2831 H   0  0  0  0  0  0  0  0  0  0  0  0
    1.6863    2.4229    2.2885 H   0  0  0  0  0  0  0  0  0  0  0  0
    1.8718    9.0986    3.5846 H   0  0  0  0  0  0  0  0  0  0  0  0
    3.3279    8.3808    3.8800 H   0  0  0  0  0  0  0  0  0  0  0  0
    2.8792    9.4038    4.8063 H   0  0  0  0  0  0  0  0  0  0  0  0
    7.0015    5.5603   -1.0577 K   0  0  0  0  0  0  0  0  0  0  0  0
    4.2281    4.7680   -0.1718 Cl  0  0  0  0  0  0  0  0  0  0  0  0
    9.0627    8.0100   -3.4160 P   0  0  0  0  0  0  0  0  0  0  0  0
    8.3354    7.1910   -2.4072 O   0  0  0  0  0  0  0  0  0  0  0  0
    3.3071    5.6468   -4.0518 N   0  0  0  0  0  0  0  0  0  0  0  0
    4.0421    4.4268   -4.2357 N   0  0  0  0  0  0  0  0  0  0  0  0
    4.9155    5.3418   -6.3342 C   0  0  0  0  0  0  0  0  0  0  0  0
    4.6907    6.2222   -6.0554 H   0  0  0  0  0  0  0  0  0  0  0  0
    7.7651    1.7423   -2.7214 C   0  0  0  0  0  0  0  0  0  0  0  0
    8.6908    1.7950   -2.9306 H   0  0  0  0  0  0  0  0  0  0  0  0
    6.9255    2.7956   -3.0798 C   0  0  0  0  0  0  0  0  0  0  0  0
    2.4269    7.1446   -1.9776 C   0  0  0  0  0  0  0  0  0  0  0  0
    2.8987    8.4738   -2.0286 C   0  0  0  0  0  0  0  0  0  0  0  0
    4.6411    4.2625   -5.5058 C   0  0  0  0  0  0  0  0  0  0  0  0
    2.2349    5.8605   -4.9527 C   0  0  0  0  0  0  0  0  0  0  0  0
    4.9650    2.9774   -5.9341 C   0  0  0  0  0  0  0  0  0  0  0  0
    4.7802    2.2270   -5.3805 H   0  0  0  0  0  0  0  0  0  0  0  0
    1.2572    6.8827   -1.2553 C   0  0  0  0  0  0  0  0  0  0  0  0
    0.5856    7.3352   -5.9113 C   0  0  0  0  0  0  0  0  0  0  0  0
    0.1897    8.1969   -5.9550 H   0  0  0  0  0  0  0  0  0  0  0  0
    5.5626    2.8009   -7.1759 C   0  0  0  0  0  0  0  0  0  0  0  0
    5.7646    1.9220   -7.4755 H   0  0  0  0  0  0  0  0  0  0  0  0
    3.6156    1.5131   -1.7144 C   0  0  0  0  0  0  0  0  0  0  0  0
    3.0643    1.7134   -2.5006 H   0  0  0  0  0  0  0  0  0  0  0  0
    3.4199    0.6059   -1.4014 H   0  0  0  0  0  0  0  0  0  0  0  0
    3.4136    2.1558   -1.0028 H   0  0  0  0  0  0  0  0  0  0  0  0
    1.7459    4.8466   -5.7824 C   0  0  0  0  0  0  0  0  0  0  0  0
    2.1339    3.9799   -5.7402 H   0  0  0  0  0  0  0  0  0  0  0  0
    0.5741    7.9296   -0.6297 C   0  0  0  0  0  0  0  0  0  0  0  0
   -0.2239    7.7364   -0.1511 H   0  0  0  0  0  0  0  0  0  0  0  0
    4.0689    4.9481   -1.9440 C   0  0  0  0  0  0  0  0  0  0  0  0
    5.5660    2.7631   -2.7495 C   0  0  0  0  0  0  0  0  0  0  0  0
    2.1906    9.4858   -1.3788 C   0  0  0  0  0  0  0  0  0  0  0  0
    2.5236   10.3750   -1.4178 H   0  0  0  0  0  0  0  0  0  0  0  0
    7.2812    0.6065   -2.0595 C   0  0  0  0  0  0  0  0  0  0  0  0
    5.5188    5.1393   -7.5666 C   0  0  0  0  0  0  0  0  0  0  0  0
    5.6928    5.8834   -8.1305 H   0  0  0  0  0  0  0  0  0  0  0  0
    5.8665    3.8789   -7.9828 C   0  0  0  0  0  0  0  0  0  0  0  0
    6.3093    3.7495   -8.8129 H   0  0  0  0  0  0  0  0  0  0  0  0
    1.6376    7.1104   -5.0346 C   0  0  0  0  0  0  0  0  0  0  0  0
    1.9510    7.8192   -4.4855 H   0  0  0  0  0  0  0  0  0  0  0  0
    4.1549    8.8081   -2.7938 C   0  0  0  0  0  0  0  0  0  0  0  0
    4.8962    8.2603   -2.4605 H   0  0  0  0  0  0  0  0  0  0  0  0
    4.0160    8.6242   -3.7466 H   0  0  0  0  0  0  0  0  0  0  0  0
    4.3692    9.7565   -2.6722 H   0  0  0  0  0  0  0  0  0  0  0  0
    0.7208    5.4771   -1.1506 C   0  0  0  0  0  0  0  0  0  0  0  0
    0.0978    5.4210   -0.3965 H   0  0  0  0  0  0  0  0  0  0  0  0
    0.2516    5.2442   -1.9796 H   0  0  0  0  0  0  0  0  0  0  0  0
    1.4628    4.8534   -1.0094 H   0  0  0  0  0  0  0  0  0  0  0  0
    5.9344    0.5767   -1.7614 C   0  0  0  0  0  0  0  0  0  0  0  0
    5.5829   -0.1854   -1.3169 H   0  0  0  0  0  0  0  0  0  0  0  0
    5.0713    1.6148   -2.0850 C   0  0  0  0  0  0  0  0  0  0  0  0
    0.1028    6.3207   -6.7222 C   0  0  0  0  0  0  0  0  0  0  0  0
   -0.6283    6.4725   -7.3088 H   0  0  0  0  0  0  0  0  0  0  0  0
    1.0259    9.2440   -0.6847 C   0  0  0  0  0  0  0  0  0  0  0  0
    7.0331    7.8709   -5.2896 C   0  0  0  0  0  0  0  0  0  0  0  0
    6.5854    7.2835   -4.6444 H   0  0  0  0  0  0  0  0  0  0  0  0
    6.3599    8.3726   -5.7950 H   0  0  0  0  0  0  0  0  0  0  0  0
    7.5685    7.3296   -5.9063 H   0  0  0  0  0  0  0  0  0  0  0  0
    7.5294    3.9406   -3.8384 C   0  0  0  0  0  0  0  0  0  0  0  0
    0.7119    5.0843   -6.6577 C   0  0  0  0  0  0  0  0  0  0  0  0
    0.4116    4.3851   -7.2268 H   0  0  0  0  0  0  0  0  0  0  0  0
    7.9437    8.8473   -4.5432 C   0  0  0  0  0  0  0  0  0  0  0  0
    8.4732    9.3643   -5.2013 H   0  0  0  0  0  0  0  0  0  0  0  0
    7.3865    9.4862   -4.0327 H   0  0  0  0  0  0  0  0  0  0  0  0
    4.5861    3.9824   -2.9375 B   0  0  0  0  0  0  0  0  0  0  0  0
    8.2014   -0.5336   -1.7225 C   0  0  0  0  0  0  0  0  0  0  0  0
    9.0198   -0.1824   -1.3144 H   0  0  0  0  0  0  0  0  0  0  0  0
    7.7549   -1.1376   -1.0935 H   0  0  0  0  0  0  0  0  0  0  0  0
    8.4277   -1.0226   -2.5410 H   0  0  0  0  0  0  0  0  0  0  0  0
   10.1827    7.0102   -4.4130 C   0  0  0  0  0  0  0  0  0  0  0  0
   10.7107    7.6058   -5.0016 H   0  0  0  0  0  0  0  0  0  0  0  0
    9.6514    6.4065   -4.9895 H   0  0  0  0  0  0  0  0  0  0  0  0
    3.2601    5.9650   -2.6153 B   0  0  0  0  0  0  0  0  0  0  0  0
   11.1335    6.1787   -3.5645 C   0  0  0  0  0  0  0  0  0  0  0  0
   10.6167    5.6052   -2.9620 H   0  0  0  0  0  0  0  0  0  0  0  0
   11.6900    5.6227   -4.1489 H   0  0  0  0  0  0  0  0  0  0  0  0
   11.7067    6.7745   -3.0380 H   0  0  0  0  0  0  0  0  0  0  0  0
    0.2495   10.3488   -0.0054 C   0  0  0  0  0  0  0  0  0  0  0  0
    0.8320   11.1266    0.1217 H   0  0  0  0  0  0  0  0  0  0  0  0
   -0.5150   10.6011   -0.5642 H   0  0  0  0  0  0  0  0  0  0  0  0
   -0.0711   10.0344    0.8651 H   0  0  0  0  0  0  0  0  0  0  0  0
   10.0575    9.3077   -2.6623 C   0  0  0  0  0  0  0  0  0  0  0  0
   10.4752    9.8499   -3.3774 H   0  0  0  0  0  0  0  0  0  0  0  0
   10.7858    8.8902   -2.1362 H   0  0  0  0  0  0  0  0  0  0  0  0
    9.2525   10.2251   -1.7507 C   0  0  0  0  0  0  0  0  0  0  0  0
    8.7624    9.6859   -1.0961 H   0  0  0  0  0  0  0  0  0  0  0  0
    9.8604   10.8351   -1.2831 H   0  0  0  0  0  0  0  0  0  0  0  0
    8.6187   10.7436   -2.2885 H   0  0  0  0  0  0  0  0  0  0  0  0
    8.4332    4.0678   -3.5846 H   0  0  0  0  0  0  0  0  0  0  0  0
    6.9771    4.7856   -3.8800 H   0  0  0  0  0  0  0  0  0  0  0  0
    7.4258    3.7626   -4.8063 H   0  0  0  0  0  0  0  0  0  0  0  0
  1  2  1  0  0  0  0
  2 31  1  0  0  0  0
  3  4  2  0  0  0  0
  4  1  1  0  0  0  0
  5  6  1  0  0  0  0
  6 14  1  0  0  0  0
  7  8  1  0  0  0  0
  9 10  1  0  0  0  0
 11  9  4  0  0  0  0
 12 13  4  0  0  0  0
 13 33  4  0  0  0  0
 14  7  4  0  0  0  0
 15  5  1  0  0  0  0
 16 14  4  0  0  0  0
 17 16  1  0  0  0  0
 18 12  4  0  0  0  0
 19 20  1  0  0  0  0
 21 16  4  0  0  0  0
 22 21  1  0  0  0  0
 23 24  1  0  0  0  0
 25 23  1  0  0  0  0
 26 23  1  0  0  0  0
 27 15  4  0  0  0  0
 28 27  1  0  0  0  0
 29 18  4  0  0  0  0
 30 29  1  0  0  0  0
 31 66  1  0  0  0  0
 32 11  4  0  0  0  0
 33 34  1  0  0  0  0
 35  9  4  0  0  0  0
 36  7  4  0  0  0  0
 37 36  1  0  0  0  0
 38 21  4  0  0  0  0
 39 38  1  0  0  0  0
 40 15  4  0  0  0  0
 41 40  1  0  0  0  0
 42 13  1  0  0  0  0
 43 42  1  0  0  0  0
 44 42  1  0  0  0  0
 45 42  1  0  0  0  0
 46 18  1  0  0  0  0
 47 46  1  0  0  0  0
 48 46  1  0  0  0  0
 49 46  1  0  0  0  0
 50 35  4  0  0  0  0
 51 50  1  0  0  0  0
 52 23  1  0  0  0  0
 53 19  4  0  0  0  0
 54 53  1  0  0  0  0
 55 29  4  0  0  0  0
 56 57  1  0  0  0  0
 58 56  1  0  0  0  0
 59 56  1  0  0  0  0
 60 11  1  0  0  0  0
 61 27  4  0  0  0  0
 62 61  1  0  0  0  0
 63  3  1  0  0  0  0
 64 63  1  0  0  0  0
 65 63  1  0  0  0  0
 66  6  1  0  0  0  0
 67 35  1  0  0  0  0
 68 67  1  0  0  0  0
 69 67  1  0  0  0  0
 70 67  1  0  0  0  0
 71  3  1  0  0  0  0
 72 71  1  0  0  0  0
 73 71  1  0  0  0  0
 74  5  1  0  0  0  0
 75 71  1  0  0  0  0
 76 75  1  0  0  0  0
 77 75  1  0  0  0  0
 78 75  1  0  0  0  0
 79 55  1  0  0  0  0
 80 79  1  0  0  0  0
 81 79  1  0  0  0  0
 82 79  1  0  0  0  0
 83  3  1  0  0  0  0
 84 83  1  0  0  0  0
 85 83  1  0  0  0  0
 86 83  1  0  0  0  0
 87 86  1  0  0  0  0
 88 86  1  0  0  0  0
 89 86  1  0  0  0  0
 90 60  1  0  0  0  0
 91 60  1  0  0  0  0
 92 60  1  0  0  0  0
 93  2  1  0  0  0  0
 94  1  1  0  0  0  0
 95 96  2  0  0  0  0
 96 93  1  0  0  0  0
 97 98  1  0  0  0  0
 98106  1  0  0  0  0
 99100  1  0  0  0  0
101102  1  0  0  0  0
103101  4  0  0  0  0
104105  4  0  0  0  0
105125  4  0  0  0  0
106 99  4  0  0  0  0
107 97  1  0  0  0  0
108106  4  0  0  0  0
109108  1  0  0  0  0
110104  4  0  0  0  0
111112  1  0  0  0  0
113108  4  0  0  0  0
114113  1  0  0  0  0
115116  1  0  0  0  0
117115  1  0  0  0  0
118115  1  0  0  0  0
119107  4  0  0  0  0
120119  1  0  0  0  0
121110  4  0  0  0  0
122121  1  0  0  0  0
123 94  1  0  0  0  0
124103  4  0  0  0  0
125126  1  0  0  0  0
127101  4  0  0  0  0
128 99  4  0  0  0  0
129128  1  0  0  0  0
130113  4  0  0  0  0
131130  1  0  0  0  0
132107  4  0  0  0  0
133132  1  0  0  0  0
134105  1  0  0  0  0
135134  1  0  0  0  0
136134  1  0  0  0  0
137134  1  0  0  0  0
138110  1  0  0  0  0
139138  1  0  0  0  0
140138  1  0  0  0  0
141138  1  0  0  0  0
142127  4  0  0  0  0
143142  1  0  0  0  0
144115  1  0  0  0  0
145111  4  0  0  0  0
146145  1  0  0  0  0
147121  4  0  0  0  0
148149  1  0  0  0  0
150148  1  0  0  0  0
151148  1  0  0  0  0
152103  1  0  0  0  0
153119  4  0  0  0  0
154153  1  0  0  0  0
155 95  1  0  0  0  0
156155  1  0  0  0  0
157155  1  0  0  0  0
158 98  1  0  0  0  0
159127  1  0  0  0  0
160159  1  0  0  0  0
161159  1  0  0  0  0
162159  1  0  0  0  0
163 95  1  0  0  0  0
164163  1  0  0  0  0
165163  1  0  0  0  0
166 97  1  0  0  0  0
167163  1  0  0  0  0
168167  1  0  0  0  0
169167  1  0  0  0  0
170167  1  0  0  0  0
171147  1  0  0  0  0
172171  1  0  0  0  0
173171  1  0  0  0  0
174171  1  0  0  0  0
175 95  1  0  0  0  0
176175  1  0  0  0  0
177175  1  0  0  0  0
178175  1  0  0  0  0
179178  1  0  0  0  0
180178  1  0  0  0  0
181178  1  0  0  0  0
182152  1  0  0  0  0
183152  1  0  0  0  0
184152  1  0  0  0  0
 12 74  1  0  0  0  0
 19 40  4  0  0  0  0
 31 74  1  0  0  0  0
 32 52  4  0  0  0  0
 32 66  1  0  0  0  0
 33 55  4  0  0  0  0
 36 38  4  0  0  0  0
 50 52  4  0  0  0  0
 53 61  4  0  0  0  0
 56 63  1  0  0  0  0
 93 94  1  0  0  0  0
104166  1  0  0  0  0
111132  4  0  0  0  0
123158  1  0  0  0  0
123166  1  0  0  0  0
124144  4  0  0  0  0
124158  1  0  0  0  0
125147  4  0  0  0  0
128130  4  0  0  0  0
142144  4  0  0  0  0
145153  4  0  0  0  0
148155  1  0  0  0  0
M  END
$$$$
FIPKAR

From CSD data. Using bond type 'Any'. No disordered atoms. Largest molecule.
143156  0  0  0  0  0  0  0  0999 V2000
   -1.1304    7.7035    3.5174 Ag  0  0  0  0  0  0  0  0  0  0  0  0
    1.0813    3.3145   -0.8175 Ag  0  0  0  0  0  0  0  0  0  0  0  0
   -2.4286    4.2559    8.8048 Ag  0  0  0  0  0  0  0  0  0  0  0  0
   -1.9411    4.9859    2.0152 N   0  0  0  0  0  0  0  0  0  0  0  0
   -1.1226    6.0884    1.9190 N   0  0  0  0  0  0  0  0  0  0  0  0
   -0.1963    5.7264    1.0802 C   0  0  0  0  0  0  0  0  0  0  0  0
   -0.3393    4.4619    0.5974 N   0  0  0  0  0  0  0  0  0  0  0  0
   -1.4495    4.0550    1.2173 C   0  0  0  0  0  0  0  0  0  0  0  0
   -3.2841    4.9987    2.8417 B   0  0  0  0  0  0  0  0  0  0  0  0
   -2.9642    5.2172    4.3454 N   0  0  0  0  0  0  0  0  0  0  0  0
   -2.2712    6.2984    4.8160 N   0  0  0  0  0  0  0  0  0  0  0  0
   -2.3032    6.1694    6.1212 C   0  0  0  0  0  0  0  0  0  0  0  0
   -2.9962    5.0971    6.5693 N   0  0  0  0  0  0  0  0  0  0  0  0
   -3.3716    4.5188    5.4072 C   0  0  0  0  0  0  0  0  0  0  0  0
    3.4218    3.9130    1.3748 N   0  0  0  0  0  0  0  0  0  0  0  0
    2.9118    4.4500    0.2189 N   0  0  0  0  0  0  0  0  0  0  0  0
    3.1362    5.7432    0.3539 C   0  0  0  0  0  0  0  0  0  0  0  0
    3.7508    6.1161    1.5180 N   0  0  0  0  0  0  0  0  0  0  0  0
    3.9162    4.9280    2.0888 C   0  0  0  0  0  0  0  0  0  0  0  0
    3.4663    2.3866    1.6592 B   0  0  0  0  0  0  0  0  0  0  0  0
    2.0377    1.8258    1.9374 N   0  0  0  0  0  0  0  0  0  0  0  0
    1.1219    1.6219    0.9329 N   0  0  0  0  0  0  0  0  0  0  0  0
    0.0981    1.0730    1.5937 C   0  0  0  0  0  0  0  0  0  0  0  0
    0.2917    0.9058    2.9133 N   0  0  0  0  0  0  0  0  0  0  0  0
    1.5128    1.3940    3.0708 C   0  0  0  0  0  0  0  0  0  0  0  0
   -0.1229    9.8091    3.6864 P   0  0  0  0  0  0  0  0  0  0  0  0
    0.8592   10.3017    2.2382 C   0  0  0  0  0  0  0  0  0  0  0  0
    1.8081    9.3989    1.7942 C   0  0  0  0  0  0  0  0  0  0  0  0
    2.6732    9.7264    0.7733 C   0  0  0  0  0  0  0  0  0  0  0  0
    2.5753   10.9616    0.1534 C   0  0  0  0  0  0  0  0  0  0  0  0
    1.6159   11.8819    0.5687 C   0  0  0  0  0  0  0  0  0  0  0  0
    0.7618   11.5462    1.6142 C   0  0  0  0  0  0  0  0  0  0  0  0
    1.0571   10.0457    5.0758 C   0  0  0  0  0  0  0  0  0  0  0  0
    2.2842   10.6935    4.9183 C   0  0  0  0  0  0  0  0  0  0  0  0
    3.1492   10.8220    6.0046 C   0  0  0  0  0  0  0  0  0  0  0  0
    2.7793   10.3240    7.2403 C   0  0  0  0  0  0  0  0  0  0  0  0
    1.5614    9.6842    7.4019 C   0  0  0  0  0  0  0  0  0  0  0  0
    0.7004    9.5383    6.3238 C   0  0  0  0  0  0  0  0  0  0  0  0
   -1.3958   11.1062    3.9833 C   0  0  0  0  0  0  0  0  0  0  0  0
   -2.9509   10.7029    3.0837 P   0  0  0  0  0  0  0  0  0  0  0  0
   -4.0077   12.1636    3.3307 C   0  0  0  0  0  0  0  0  0  0  0  0
   -5.1048   12.3108    2.4734 C   0  0  0  0  0  0  0  0  0  0  0  0
   -6.0111   13.3609    2.6596 C   0  0  0  0  0  0  0  0  0  0  0  0
   -5.8121   14.2525    3.6682 C   0  0  0  0  0  0  0  0  0  0  0  0
   -4.7513   14.0950    4.5561 C   0  0  0  0  0  0  0  0  0  0  0  0
   -3.8500   13.0576    4.3843 C   0  0  0  0  0  0  0  0  0  0  0  0
   -3.8381    9.4948    4.1531 C   0  0  0  0  0  0  0  0  0  0  0  0
   -3.7499    9.5213    5.5300 C   0  0  0  0  0  0  0  0  0  0  0  0
   -4.5321    8.6720    6.3013 C   0  0  0  0  0  0  0  0  0  0  0  0
   -5.4310    7.8211    5.6854 C   0  0  0  0  0  0  0  0  0  0  0  0
   -5.5381    7.7992    4.3147 C   0  0  0  0  0  0  0  0  0  0  0  0
   -4.7351    8.6237    3.5537 C   0  0  0  0  0  0  0  0  0  0  0  0
   -0.3089    3.2722    8.1194 P   0  0  0  0  0  0  0  0  0  0  0  0
    0.4205    4.1484    6.6941 C   0  0  0  0  0  0  0  0  0  0  0  0
    0.2330    3.6772    5.3908 C   0  0  0  0  0  0  0  0  0  0  0  0
    0.7090    4.4179    4.3024 C   0  0  0  0  0  0  0  0  0  0  0  0
    1.3773    5.6110    4.5091 C   0  0  0  0  0  0  0  0  0  0  0  0
    1.5771    6.0816    5.7980 C   0  0  0  0  0  0  0  0  0  0  0  0
    1.0842    5.3543    6.8864 C   0  0  0  0  0  0  0  0  0  0  0  0
   -0.2566    1.4857    7.7436 C   0  0  0  0  0  0  0  0  0  0  0  0
   -1.3467    0.7045    8.0648 C   0  0  0  0  0  0  0  0  0  0  0  0
   -1.2603   -0.6947    7.9911 C   0  0  0  0  0  0  0  0  0  0  0  0
   -0.0547   -1.2795    7.6331 C   0  0  0  0  0  0  0  0  0  0  0  0
    1.0418   -0.4953    7.2505 C   0  0  0  0  0  0  0  0  0  0  0  0
    0.9389    0.8867    7.3119 C   0  0  0  0  0  0  0  0  0  0  0  0
    0.9995    3.4341    9.4089 C   0  0  0  0  0  0  0  0  0  0  0  0
    0.5900    2.4466   10.8973 P   0  0  0  0  0  0  0  0  0  0  0  0
    1.4863    0.8832   10.6937 C   0  0  0  0  0  0  0  0  0  0  0  0
    0.8103   -0.3201   10.8881 C   0  0  0  0  0  0  0  0  0  0  0  0
    1.5100   -1.5348   10.7142 C   0  0  0  0  0  0  0  0  0  0  0  0
    2.8394   -1.5197   10.4032 C   0  0  0  0  0  0  0  0  0  0  0  0
    3.5226   -0.3439   10.2314 C   0  0  0  0  0  0  0  0  0  0  0  0
    2.8630    0.8657   10.3562 C   0  0  0  0  0  0  0  0  0  0  0  0
    1.4614    3.3649   12.2322 C   0  0  0  0  0  0  0  0  0  0  0  0
    2.2679    2.7281   13.1651 C   0  0  0  0  0  0  0  0  0  0  0  0
    2.7660    3.4393   14.2617 C   0  0  0  0  0  0  0  0  0  0  0  0
    2.4809    4.7840   14.3906 C   0  0  0  0  0  0  0  0  0  0  0  0
    1.6741    5.4261   13.4618 C   0  0  0  0  0  0  0  0  0  0  0  0
    1.1639    4.7209   12.3754 C   0  0  0  0  0  0  0  0  0  0  0  0
   -0.7790    7.3428    9.6381 N   0  0  0  0  0  0  0  0  0  0  0  0
   -0.7576    6.1215    9.6851 O   0  0  0  0  0  0  0  0  0  0  0  0
   -0.0658    8.0279   10.3582 O   0  0  0  0  0  0  0  0  0  0  0  0
   -1.5283    7.9260    8.8258 O   0  0  0  0  0  0  0  0  0  0  0  0
    0.5360    6.3086    0.7940 H   0  0  0  0  0  0  0  0  0  0  0  0
   -1.8471    3.1822    1.0798 H   0  0  0  0  0  0  0  0  0  0  0  0
   -3.8860    5.7209    2.5142 H   0  0  0  0  0  0  0  0  0  0  0  0
   -3.7691    4.1384    2.7220 H   0  0  0  0  0  0  0  0  0  0  0  0
   -1.8783    6.8211    6.7074 H   0  0  0  0  0  0  0  0  0  0  0  0
   -3.8675    3.6933    5.3372 H   0  0  0  0  0  0  0  0  0  0  0  0
    4.0565    2.2047    2.4387 H   0  0  0  0  0  0  0  0  0  0  0  0
    3.8617    1.9136    0.8771 H   0  0  0  0  0  0  0  0  0  0  0  0
    2.8770    6.3892   -0.3255 H   0  0  0  0  0  0  0  0  0  0  0  0
    4.3628    4.8215    2.9475 H   0  0  0  0  0  0  0  0  0  0  0  0
   -0.7432    0.8172    1.1711 H   0  0  0  0  0  0  0  0  0  0  0  0
    1.9853    1.4289    3.9266 H   0  0  0  0  0  0  0  0  0  0  0  0
    1.8732    8.5254    2.2222 H   0  0  0  0  0  0  0  0  0  0  0  0
    3.3455    9.1002    0.4708 H   0  0  0  0  0  0  0  0  0  0  0  0
    3.1807   11.2070   -0.5616 H   0  0  0  0  0  0  0  0  0  0  0  0
    1.5437   12.7288    0.1342 H   0  0  0  0  0  0  0  0  0  0  0  0
    0.1128   12.1813    1.9239 H   0  0  0  0  0  0  0  0  0  0  0  0
    2.5285   11.0659    4.0553 H   0  0  0  0  0  0  0  0  0  0  0  0
    4.0082   11.2506    5.9048 H   0  0  0  0  0  0  0  0  0  0  0  0
    3.3713   10.4147    7.9893 H   0  0  0  0  0  0  0  0  0  0  0  0
    1.3139    9.3479    8.2757 H   0  0  0  0  0  0  0  0  0  0  0  0
   -0.1492    9.0983    6.4289 H   0  0  0  0  0  0  0  0  0  0  0  0
   -1.0619   11.9473    3.6619 H   0  0  0  0  0  0  0  0  0  0  0  0
   -1.5710   11.1753    4.9074 H   0  0  0  0  0  0  0  0  0  0  0  0
   -5.2481   11.6677    1.7515 H   0  0  0  0  0  0  0  0  0  0  0  0
   -6.7820   13.4533    2.0708 H   0  0  0  0  0  0  0  0  0  0  0  0
   -6.4113   15.0154    3.7754 H   0  0  0  0  0  0  0  0  0  0  0  0
   -4.6616   14.7139    5.2971 H   0  0  0  0  0  0  0  0  0  0  0  0
   -3.0941   12.9452    5.0048 H   0  0  0  0  0  0  0  0  0  0  0  0
   -3.1558   10.1477    5.9786 H   0  0  0  0  0  0  0  0  0  0  0  0
   -4.4383    8.6596    7.2532 H   0  0  0  0  0  0  0  0  0  0  0  0
   -5.9737    7.2306    6.2188 H   0  0  0  0  0  0  0  0  0  0  0  0
   -6.1756    7.2155    3.8933 H   0  0  0  0  0  0  0  0  0  0  0  0
   -4.7852    8.5760    2.5956 H   0  0  0  0  0  0  0  0  0  0  0  0
   -0.2312    2.8386    5.2390 H   0  0  0  0  0  0  0  0  0  0  0  0
    0.5626    4.0981    3.4045 H   0  0  0  0  0  0  0  0  0  0  0  0
    1.6972    6.1281    3.7501 H   0  0  0  0  0  0  0  0  0  0  0  0
    2.0731    6.9013    5.9453 H   0  0  0  0  0  0  0  0  0  0  0  0
    1.2122    5.7008    7.7800 H   0  0  0  0  0  0  0  0  0  0  0  0
   -2.1723    1.1110    8.3612 H   0  0  0  0  0  0  0  0  0  0  0  0
   -2.0428   -1.2422    8.1855 H   0  0  0  0  0  0  0  0  0  0  0  0
    0.0450   -2.2516    7.6652 H   0  0  0  0  0  0  0  0  0  0  0  0
    1.8535   -0.9149    6.9412 H   0  0  0  0  0  0  0  0  0  0  0  0
    1.6906    1.4298    7.0556 H   0  0  0  0  0  0  0  0  0  0  0  0
    1.8180    3.0468    9.0671 H   0  0  0  0  0  0  0  0  0  0  0  0
    1.1775    4.3741    9.5511 H   0  0  0  0  0  0  0  0  0  0  0  0
   -0.1341   -0.3237   11.1084 H   0  0  0  0  0  0  0  0  0  0  0  0
    1.0520   -2.3807   10.8007 H   0  0  0  0  0  0  0  0  0  0  0  0
    3.3012   -2.3464   10.2741 H   0  0  0  0  0  0  0  0  0  0  0  0
    4.4730   -0.3761   10.0693 H   0  0  0  0  0  0  0  0  0  0  0  0
    3.3548    1.7127   10.2219 H   0  0  0  0  0  0  0  0  0  0  0  0
    2.4786    1.7852   13.0475 H   0  0  0  0  0  0  0  0  0  0  0  0
    3.3116    3.0022   14.9370 H   0  0  0  0  0  0  0  0  0  0  0  0
    2.8621    5.2826   15.1259 H   0  0  0  0  0  0  0  0  0  0  0  0
    1.4494    6.3864   13.5630 H   0  0  0  0  0  0  0  0  0  0  0  0
    0.5915    5.1552   11.7252 H   0  0  0  0  0  0  0  0  0  0  0  0
   -2.6952   10.0666    0.8175 Ag  0  0  0  0  0  0  0  0  0  0  0  0
   -1.6947    2.3208   11.6538 Ag  0  0  0  0  0  0  0  0  0  0  0  0
    1.3371    2.6782   -3.0837 P   0  0  0  0  0  0  0  0  0  0  0  0
   -4.7133    4.1302    9.5613 P   0  0  0  0  0  0  0  0  0  0  0  0
  1  5  1  0  0  0  0
  2  7  1  0  0  0  0
  3 13  1  0  0  0  0
  4  5  1  0  0  0  0
  5  6  2  0  0  0  0
  6  7  1  0  0  0  0
  7  8  2  0  0  0  0
  8  4  1  0  0  0  0
  9  4  1  0  0  0  0
 10  9  1  0  0  0  0
 11  1  1  0  0  0  0
 12 11  2  0  0  0  0
 13 12  1  0  0  0  0
 14 10  1  0  0  0  0
 15 16  1  0  0  0  0
 16  2  1  0  0  0  0
 17 16  2  0  0  0  0
 18 17  1  0  0  0  0
 19 15  1  0  0  0  0
 20 15  1  0  0  0  0
 21 20  1  0  0  0  0
 22  2  1  0  0  0  0
 23 22  2  0  0  0  0
 24 23  1  0  0  0  0
 25 21  1  0  0  0  0
 26  1  1  0  0  0  0
 27 26  1  0  0  0  0
 28 27  4  0  0  0  0
 29 28  4  0  0  0  0
 30 29  4  0  0  0  0
 31 30  4  0  0  0  0
 32 27  4  0  0  0  0
 33 26  1  0  0  0  0
 34 33  4  0  0  0  0
 35 34  4  0  0  0  0
 36 35  4  0  0  0  0
 37 36  4  0  0  0  0
 38 33  4  0  0  0  0
 39 26  1  0  0  0  0
 40 39  1  0  0  0  0
 41 40  1  0  0  0  0
 42 41  4  0  0  0  0
 43 42  4  0  0  0  0
 44 43  4  0  0  0  0
 45 44  4  0  0  0  0
 46 41  4  0  0  0  0
 47 40  1  0  0  0  0
 48 47  4  0  0  0  0
 49 48  4  0  0  0  0
 50 49  4  0  0  0  0
 51 50  4  0  0  0  0
 52 47  4  0  0  0  0
 53  3  1  0  0  0  0
 54 53  1  0  0  0  0
 55 54  4  0  0  0  0
 56 55  4  0  0  0  0
 57 56  4  0  0  0  0
 58 57  4  0  0  0  0
 59 54  4  0  0  0  0
 60 53  1  0  0  0  0
 61 60  4  0  0  0  0
 62 61  4  0  0  0  0
 63 62  4  0  0  0  0
 64 63  4  0  0  0  0
 65 60  4  0  0  0  0
 66 53  1  0  0  0  0
 67 66  1  0  0  0  0
 68 67  1  0  0  0  0
 69 68  4  0  0  0  0
 70 69  4  0  0  0  0
 71 70  4  0  0  0  0
 72 71  4  0  0  0  0
 73 68  4  0  0  0  0
 74 67  1  0  0  0  0
 75 74  4  0  0  0  0
 76 75  4  0  0  0  0
 77 76  4  0  0  0  0
 78 77  4  0  0  0  0
 79 74  4  0  0  0  0
 80 81  1  0  0  0  0
 81  3  1  0  0  0  0
 82 80  2  0  0  0  0
 83 80  2  0  0  0  0
 84  6  1  0  0  0  0
 85  8  1  0  0  0  0
 86  9  1  0  0  0  0
 87  9  1  0  0  0  0
 88 12  1  0  0  0  0
 89 14  1  0  0  0  0
 90 20  1  0  0  0  0
 91 20  1  0  0  0  0
 92 17  1  0  0  0  0
 93 19  1  0  0  0  0
 94 23  1  0  0  0  0
 95 25  1  0  0  0  0
 96 28  1  0  0  0  0
 97 29  1  0  0  0  0
 98 30  1  0  0  0  0
 99 31  1  0  0  0  0
100 32  1  0  0  0  0
101 34  1  0  0  0  0
102 35  1  0  0  0  0
103 36  1  0  0  0  0
104 37  1  0  0  0  0
105 38  1  0  0  0  0
106 39  1  0  0  0  0
107 39  1  0  0  0  0
108 42  1  0  0  0  0
109 43  1  0  0  0  0
110 44  1  0  0  0  0
111 45  1  0  0  0  0
112 46  1  0  0  0  0
113 48  1  0  0  0  0
114 49  1  0  0  0  0
115 50  1  0  0  0  0
116 51  1  0  0  0  0
117 52  1  0  0  0  0
118 55  1  0  0  0  0
119 56  1  0  0  0  0
120 57  1  0  0  0  0
121 58  1  0  0  0  0
122 59  1  0  0  0  0
123 61  1  0  0  0  0
124 62  1  0  0  0  0
125 63  1  0  0  0  0
126 64  1  0  0  0  0
127 65  1  0  0  0  0
128 66  1  0  0  0  0
129 66  1  0  0  0  0
130 69  1  0  0  0  0
131 70  1  0  0  0  0
132 71  1  0  0  0  0
133 72  1  0  0  0  0
134 73  1  0  0  0  0
135 75  1  0  0  0  0
136 76  1  0  0  0  0
137 77  1  0  0  0  0
138 78  1  0  0  0  0
139 79  1  0  0  0  0
140 40  8  0  0  0  0
141 67  8  0  0  0  0
142  2  8  0  0  0  0
143  3  8  0  0  0  0
 10 11  1  0  0  0  0
 13 14  2  0  0  0  0
 18 19  2  0  0  0  0
 21 22  1  0  0  0  0
 24 25  2  0  0  0  0
 31 32  4  0  0  0  0
 37 38  4  0  0  0  0
 45 46  4  0  0  0  0
 51 52  4  0  0  0  0
 58 59  4  0  0  0  0
 64 65  4  0  0  0  0
 72 73  4  0  0  0  0
 78 79  4  0  0  0  0
M  END
$$$$
FOBZII

From CSD data. Using bond type 'Any'. No disordered atoms. Largest molecule.
141150  0  0  0  0  0  0  0  0999 V2000
   10.4053    8.3931    5.3435 P   0  3  0  0  0  0  0  0  0  0  0  0
    9.8765    8.8871    6.3536 H   0  0  0  0  0  0  0  0  0  0  0  0
    7.7550    8.8872    9.0398 P   0  3  0  0  0  0  0  0  0  0  0  0
    8.0240    8.1033    8.0380 H   0  0  0  0  0  0  0  0  0  0  0  0
    7.5922    9.6008    4.7445 Si  0  0  0  0  0  0  0  0  0  0  0  0
    8.1286   11.4097    7.2830 Si  0  0  0  0  0  0  0  0  0  0  0  0
    8.0356   10.1481    6.2342 O   0  0  0  0  0  0  0  0  0  0  0  0
    7.6672    6.3413    2.8192 B   0  5  0  0  0  0  0  0  0  0  0  0
    9.6635   12.4078   10.5233 B   0  5  0  0  0  0  0  0  0  0  0  0
    8.8109    8.1930    4.5007 C   0  0  0  0  0  0  0  0  0  0  0  0
    8.6901    7.0145    3.8653 C   0  0  0  0  0  0  0  0  0  0  0  0
    9.3960    6.4219    4.0929 H   0  0  0  0  0  0  0  0  0  0  0  0
    7.8260   10.9715    3.4900 C   0  0  0  0  0  0  0  0  0  0  0  0
    7.2162   11.7111    3.6939 H   0  0  0  0  0  0  0  0  0  0  0  0
    7.6315   10.6284    2.5917 H   0  0  0  0  0  0  0  0  0  0  0  0
    8.7509   11.2911    3.5225 H   0  0  0  0  0  0  0  0  0  0  0  0
    5.8654    9.0722    4.8435 C   0  0  0  0  0  0  0  0  0  0  0  0
    5.7277    8.5534    5.6621 H   0  0  0  0  0  0  0  0  0  0  0  0
    5.6487    8.5151    4.0633 H   0  0  0  0  0  0  0  0  0  0  0  0
    5.2818    9.8601    4.8524 H   0  0  0  0  0  0  0  0  0  0  0  0
   11.2812    6.7799    5.4079 C   0  0  0  0  0  0  0  0  0  0  0  0
   10.9736    5.8662    6.4097 C   0  0  0  0  0  0  0  0  0  0  0  0
   10.4325    6.1309    7.1455 H   0  0  0  0  0  0  0  0  0  0  0  0
   11.4583    4.5660    6.3388 C   0  0  0  0  0  0  0  0  0  0  0  0
   11.2475    3.9417    7.0214 H   0  0  0  0  0  0  0  0  0  0  0  0
   12.2504    4.1779    5.2631 C   0  0  0  0  0  0  0  0  0  0  0  0
   12.5820    3.2894    5.2129 H   0  0  0  0  0  0  0  0  0  0  0  0
   12.5581    5.0916    4.2613 C   0  0  0  0  0  0  0  0  0  0  0  0
   13.0993    4.8273    3.5284 H   0  0  0  0  0  0  0  0  0  0  0  0
   12.0735    6.3922    4.3352 C   0  0  0  0  0  0  0  0  0  0  0  0
   12.2842    7.0160    3.6496 H   0  0  0  0  0  0  0  0  0  0  0  0
   11.5020    9.6266    4.5657 C   0  0  0  0  0  0  0  0  0  0  0  0
   12.4347   10.2409    5.3400 C   0  0  0  0  0  0  0  0  0  0  0  0
   12.4662   10.0911    6.2767 H   0  0  0  0  0  0  0  0  0  0  0  0
   13.3149   11.0696    4.7401 C   0  0  0  0  0  0  0  0  0  0  0  0
   13.9815   11.5066    5.2572 H   0  0  0  0  0  0  0  0  0  0  0  0
   13.2531   11.2901    3.3541 C   0  0  0  0  0  0  0  0  0  0  0  0
   13.8814   11.8644    2.9345 H   0  0  0  0  0  0  0  0  0  0  0  0
   12.2743   10.6654    2.6064 C   0  0  0  0  0  0  0  0  0  0  0  0
   12.2233   10.8280    1.6726 H   0  0  0  0  0  0  0  0  0  0  0  0
   11.3758    9.8162    3.1975 C   0  0  0  0  0  0  0  0  0  0  0  0
   10.6999    9.3778    2.6921 H   0  0  0  0  0  0  0  0  0  0  0  0
    6.4665    5.4575    3.6496 C   0  0  0  0  0  0  0  0  0  0  0  0
    6.3198    5.3658    5.0149 C   0  0  0  0  0  0  0  0  0  0  0  0
    5.4370    4.4920    5.6414 C   0  0  0  0  0  0  0  0  0  0  0  0
    4.7490    3.6228    4.8967 C   0  0  0  0  0  0  0  0  0  0  0  0
    4.7900    3.6904    3.5137 C   0  0  0  0  0  0  0  0  0  0  0  0
    5.6399    4.6016    2.9463 C   0  0  0  0  0  0  0  0  0  0  0  0
    7.0408    7.4760    1.8351 C   0  0  0  0  0  0  0  0  0  0  0  0
    5.6959    7.7942    1.5987 C   0  0  0  0  0  0  0  0  0  0  0  0
    5.3265    8.7651    0.6472 C   0  0  0  0  0  0  0  0  0  0  0  0
    6.2101    9.4417   -0.0650 C   0  0  0  0  0  0  0  0  0  0  0  0
    7.5327    9.1902    0.1684 C   0  0  0  0  0  0  0  0  0  0  0  0
    7.9135    8.2440    1.0993 C   0  0  0  0  0  0  0  0  0  0  0  0
    8.5026    5.1587    2.0450 C   0  0  0  0  0  0  0  0  0  0  0  0
    8.7355    5.0074    0.6856 C   0  0  0  0  0  0  0  0  0  0  0  0
    9.5070    3.9993    0.1300 C   0  0  0  0  0  0  0  0  0  0  0  0
    9.9929    3.0300    0.9013 C   0  0  0  0  0  0  0  0  0  0  0  0
    9.7854    3.1237    2.2577 C   0  0  0  0  0  0  0  0  0  0  0  0
    9.1364    4.1520    2.7926 C   0  0  0  0  0  0  0  0  0  0  0  0
    8.4594   10.5443    8.9364 C   0  0  0  0  0  0  0  0  0  0  0  0
    9.0924   10.9470   10.0475 C   0  0  0  0  0  0  0  0  0  0  0  0
    9.2392   10.2532   10.6799 H   0  0  0  0  0  0  0  0  0  0  0  0
    9.5178   12.5279    6.7052 C   0  0  0  0  0  0  0  0  0  0  0  0
    9.5977   13.2915    7.3140 H   0  0  0  0  0  0  0  0  0  0  0  0
   10.3596   12.0268    6.6993 H   0  0  0  0  0  0  0  0  0  0  0  0
    9.3228   12.8495    5.8010 H   0  0  0  0  0  0  0  0  0  0  0  0
    6.4459   12.2623    7.3081 C   0  0  0  0  0  0  0  0  0  0  0  0
    6.1685   12.4657    6.3920 H   0  0  0  0  0  0  0  0  0  0  0  0
    6.5088   13.0937    7.8223 H   0  0  0  0  0  0  0  0  0  0  0  0
    5.7864   11.6696    7.7248 H   0  0  0  0  0  0  0  0  0  0  0  0
    8.4993    7.8751   10.3253 C   0  0  0  0  0  0  0  0  0  0  0  0
    9.8820    7.6636   10.2544 C   0  0  0  0  0  0  0  0  0  0  0  0
   10.3963    8.0836    9.5747 H   0  0  0  0  0  0  0  0  0  0  0  0
   10.4930    6.8406   11.1793 C   0  0  0  0  0  0  0  0  0  0  0  0
   11.4325    6.7013   11.1616 H   0  0  0  0  0  0  0  0  0  0  0  0
    9.6907    6.2147   12.1397 C   0  0  0  0  0  0  0  0  0  0  0  0
   10.0958    5.6381   12.7781 H   0  0  0  0  0  0  0  0  0  0  0  0
    8.3526    6.4130   12.1841 C   0  0  0  0  0  0  0  0  0  0  0  0
    7.8322    5.9575   12.8372 H   0  0  0  0  0  0  0  0  0  0  0  0
    7.7270    7.2771   11.2857 C   0  0  0  0  0  0  0  0  0  0  0  0
    6.7941    7.4467   11.3389 H   0  0  0  0  0  0  0  0  0  0  0  0
    5.9778    8.8907    9.2467 C   0  0  0  0  0  0  0  0  0  0  0  0
    5.2152    7.9568    8.5877 C   0  0  0  0  0  0  0  0  0  0  0  0
    5.6198    7.3383    7.9907 H   0  0  0  0  0  0  0  0  0  0  0  0
    3.8094    7.9288    8.8123 C   0  0  0  0  0  0  0  0  0  0  0  0
    3.2629    7.2893    8.3719 H   0  0  0  0  0  0  0  0  0  0  0  0
    3.2547    8.8407    9.6781 C   0  0  0  0  0  0  0  0  0  0  0  0
    2.3165    8.8159    9.8318 H   0  0  0  0  0  0  0  0  0  0  0  0
    4.0023    9.7778   10.3223 C   0  0  0  0  0  0  0  0  0  0  0  0
    3.5939   10.4035   10.9075 H   0  0  0  0  0  0  0  0  0  0  0  0
    5.3720    9.8024   10.1037 C   0  0  0  0  0  0  0  0  0  0  0  0
    5.9046   10.4518   10.5499 H   0  0  0  0  0  0  0  0  0  0  0  0
    8.5388   13.5372   10.2307 C   0  0  0  0  0  0  0  0  0  0  0  0
    8.5725   14.6944    9.5008 C   0  0  0  0  0  0  0  0  0  0  0  0
    7.5613   15.5938    9.3383 C   0  0  0  0  0  0  0  0  0  0  0  0
    6.3642   15.3399    9.9648 C   0  0  0  0  0  0  0  0  0  0  0  0
    6.2299   14.1570   10.6947 C   0  0  0  0  0  0  0  0  0  0  0  0
    7.2701   13.3059   10.8306 C   0  0  0  0  0  0  0  0  0  0  0  0
   11.1872   12.7798    9.8584 C   0  0  0  0  0  0  0  0  0  0  0  0
   11.7639   13.9994   10.2455 C   0  0  0  0  0  0  0  0  0  0  0  0
   13.0634   14.3983    9.7993 C   0  0  0  0  0  0  0  0  0  0  0  0
   13.7106   13.5666    9.0014 C   0  0  0  0  0  0  0  0  0  0  0  0
   13.2675   12.3366    8.6054 C   0  0  0  0  0  0  0  0  0  0  0  0
   11.9314   11.9818    9.0546 C   0  0  0  0  0  0  0  0  0  0  0  0
   10.0802   12.2777   12.1397 C   0  0  0  0  0  0  0  0  0  0  0  0
   10.9734   11.2596   12.5269 C   0  0  0  0  0  0  0  0  0  0  0  0
   11.3788   11.1093   13.8330 C   0  0  0  0  0  0  0  0  0  0  0  0
   10.9644   11.9235   14.8023 C   0  0  0  0  0  0  0  0  0  0  0  0
   10.1143   12.9520   14.4802 C   0  0  0  0  0  0  0  0  0  0  0  0
    9.6941   13.0868   13.1681 C   0  0  0  0  0  0  0  0  0  0  0  0
    7.0466    6.1537    5.8539 F   0  0  0  0  0  0  0  0  0  0  0  0
    5.3698    4.4697    6.9928 F   0  0  0  0  0  0  0  0  0  0  0  0
    3.9319    2.7281    5.4759 F   0  0  0  0  0  0  0  0  0  0  0  0
    4.0535    2.8822    2.7722 F   0  0  0  0  0  0  0  0  0  0  0  0
    5.6964    4.5977    1.5851 F   0  0  0  0  0  0  0  0  0  0  0  0
    4.7042    7.1832    2.2450 F   0  0  0  0  0  0  0  0  0  0  0  0
    3.9867    9.0117    0.4669 F   0  0  0  0  0  0  0  0  0  0  0  0
    5.8762   10.3143   -1.0089 F   0  0  0  0  0  0  0  0  0  0  0  0
    8.4927    9.8476   -0.5310 F   0  0  0  0  0  0  0  0  0  0  0  0
    9.2575    8.0181    1.2480 F   0  0  0  0  0  0  0  0  0  0  0  0
    8.1567    5.8733   -0.2015 F   0  0  0  0  0  0  0  0  0  0  0  0
    9.6542    3.9493   -1.2116 F   0  0  0  0  0  0  0  0  0  0  0  0
   10.6954    2.0255    0.3753 F   0  0  0  0  0  0  0  0  0  0  0  0
   10.3740    2.1838    3.0734 F   0  0  0  0  0  0  0  0  0  0  0  0
    8.9315    4.1261    4.1425 F   0  0  0  0  0  0  0  0  0  0  0  0
    9.7142   15.0456    8.8179 F   0  0  0  0  0  0  0  0  0  0  0  0
    7.7129   16.6951    8.6018 F   0  0  0  0  0  0  0  0  0  0  0  0
    5.3386   16.2071    9.8531 F   0  0  0  0  0  0  0  0  0  0  0  0
    5.0461   13.8828   11.2854 F   0  0  0  0  0  0  0  0  0  0  0  0
    7.0992   12.2415   11.5886 F   0  0  0  0  0  0  0  0  0  0  0  0
   11.1582   14.8270   11.0593 F   0  0  0  0  0  0  0  0  0  0  0  0
   13.5197   15.5811   10.1870 F   0  0  0  0  0  0  0  0  0  0  0  0
   14.9930   13.9437    8.5513 F   0  0  0  0  0  0  0  0  0  0  0  0
   13.9337   11.5498    7.8229 F   0  0  0  0  0  0  0  0  0  0  0  0
   11.5444   10.7793    8.6482 F   0  0  0  0  0  0  0  0  0  0  0  0
   11.4350   10.4078   11.6309 F   0  0  0  0  0  0  0  0  0  0  0  0
   12.2417   10.0901   14.1433 F   0  0  0  0  0  0  0  0  0  0  0  0
   11.3828   11.8012   16.0946 F   0  0  0  0  0  0  0  0  0  0  0  0
    9.6917   13.8207   15.4259 F   0  0  0  0  0  0  0  0  0  0  0  0
    8.8925   14.1747   12.9450 F   0  0  0  0  0  0  0  0  0  0  0  0
  1  2  1  0  0  0  0
  3  4  1  0  0  0  0
  5  7  1  0  0  0  0
  6  7  1  0  0  0  0
  8 11  1  0  0  0  0
  9 62  1  0  0  0  0
 10  1  1  0  0  0  0
 11 10  2  0  0  0  0
 12 11  1  0  0  0  0
 13  5  1  0  0  0  0
 14 13  1  0  0  0  0
 15 13  1  0  0  0  0
 16 13  1  0  0  0  0
 17  5  1  0  0  0  0
 18 17  1  0  0  0  0
 19 17  1  0  0  0  0
 20 17  1  0  0  0  0
 21  1  1  0  0  0  0
 22 21  4  0  0  0  0
 23 22  1  0  0  0  0
 24 22  4  0  0  0  0
 25 24  1  0  0  0  0
 26 24  4  0  0  0  0
 27 26  1  0  0  0  0
 28 26  4  0  0  0  0
 29 28  1  0  0  0  0
 30 21  4  0  0  0  0
 31 30  1  0  0  0  0
 32  1  1  0  0  0  0
 33 32  4  0  0  0  0
 34 33  1  0  0  0  0
 35 33  4  0  0  0  0
 36 35  1  0  0  0  0
 37 35  4  0  0  0  0
 38 37  1  0  0  0  0
 39 37  4  0  0  0  0
 40 39  1  0  0  0  0
 41 32  4  0  0  0  0
 42 41  1  0  0  0  0
 43  8  1  0  0  0  0
 44 43  4  0  0  0  0
 45 44  4  0  0  0  0
 46 45  4  0  0  0  0
 47 46  4  0  0  0  0
 48 43  4  0  0  0  0
 49  8  1  0  0  0  0
 50 49  4  0  0  0  0
 51 50  4  0  0  0  0
 52 51  4  0  0  0  0
 53 52  4  0  0  0  0
 54 49  4  0  0  0  0
 55  8  1  0  0  0  0
 56 55  4  0  0  0  0
 57 56  4  0  0  0  0
 58 57  4  0  0  0  0
 59 58  4  0  0  0  0
 60 55  4  0  0  0  0
 61  3  1  0  0  0  0
 62 61  2  0  0  0  0
 63 62  1  0  0  0  0
 64  6  1  0  0  0  0
 65 64  1  0  0  0  0
 66 64  1  0  0  0  0
 67 64  1  0  0  0  0
 68  6  1  0  0  0  0
 69 68  1  0  0  0  0
 70 68  1  0  0  0  0
 71 68  1  0  0  0  0
 72  3  1  0  0  0  0
 73 72  4  0  0  0  0
 74 73  1  0  0  0  0
 75 73  4  0  0  0  0
 76 75  1  0  0  0  0
 77 75  4  0  0  0  0
 78 77  1  0  0  0  0
 79 77  4  0  0  0  0
 80 79  1  0  0  0  0
 81 72  4  0  0  0  0
 82 81  1  0  0  0  0
 83  3  1  0  0  0  0
 84 83  4  0  0  0  0
 85 84  1  0  0  0  0
 86 84  4  0  0  0  0
 87 86  1  0  0  0  0
 88 86  4  0  0  0  0
 89 88  1  0  0  0  0
 90 88  4  0  0  0  0
 91 90  1  0  0  0  0
 92 83  4  0  0  0  0
 93 92  1  0  0  0  0
 94  9  1  0  0  0  0
 95 94  4  0  0  0  0
 96 95  4  0  0  0  0
 97 96  4  0  0  0  0
 98 97  4  0  0  0  0
 99 94  4  0  0  0  0
100  9  1  0  0  0  0
101100  4  0  0  0  0
102101  4  0  0  0  0
103102  4  0  0  0  0
104103  4  0  0  0  0
105100  4  0  0  0  0
106  9  1  0  0  0  0
107106  4  0  0  0  0
108107  4  0  0  0  0
109108  4  0  0  0  0
110109  4  0  0  0  0
111106  4  0  0  0  0
112 44  1  0  0  0  0
113 45  1  0  0  0  0
114 46  1  0  0  0  0
115 47  1  0  0  0  0
116 48  1  0  0  0  0
117 50  1  0  0  0  0
118 51  1  0  0  0  0
119 52  1  0  0  0  0
120 53  1  0  0  0  0
121 54  1  0  0  0  0
122 56  1  0  0  0  0
123 57  1  0  0  0  0
124 58  1  0  0  0  0
125 59  1  0  0  0  0
126 60  1  0  0  0  0
127 95  1  0  0  0  0
128 96  1  0  0  0  0
129 97  1  0  0  0  0
130 98  1  0  0  0  0
131 99  1  0  0  0  0
132101  1  0  0  0  0
133102  1  0  0  0  0
134103  1  0  0  0  0
135104  1  0  0  0  0
136105  1  0  0  0  0
137107  1  0  0  0  0
138108  1  0  0  0  0
139109  1  0  0  0  0
140110  1  0  0  0  0
141111  1  0  0  0  0
  5 10  1  0  0  0  0
  6 61  1  0  0  0  0
 28 30  4  0  0  0  0
 39 41  4  0  0  0  0
 47 48  4  0  0  0  0
 53 54  4  0  0  0  0
 59 60  4  0  0  0  0
 79 81  4  0  0  0  0
 90 92  4  0  0  0  0
 98 99  4  0  0  0  0
104105  4  0  0  0  0
110111  4  0  0  0  0
M  CHG  4   1   1   3   1   8  -1   9  -1
M  END
$$$$
FOCKUD

From CSD data. Using bond type 'Any'. No disordered atoms. Largest molecule.
160177  0  0  0  0  0  0  0  0999 V2000
    6.3704    9.9211    3.4565 Pt  0  0  0  0  0  0  0  0  0  0  0  0
    5.2010   10.1113    0.9505 Pt  0  0  0  0  0  0  0  0  0  0  0  0
    6.7933    8.4855    1.9608 B   0  0  0  0  0  0  0  0  0  0  0  0
    4.2845   10.4059   -0.8470 B   0  0  0  0  0  0  0  0  0  0  0  0
    6.1774    7.2065    1.8213 O   0  0  0  0  0  0  0  0  0  0  0  0
    8.0290    8.4238    1.2803 O   0  0  0  0  0  0  0  0  0  0  0  0
    4.7619    9.7885   -2.0881 O   0  0  0  0  0  0  0  0  0  0  0  0
    3.1566   11.1065   -1.1628 O   0  0  0  0  0  0  0  0  0  0  0  0
    6.6919   11.7341    0.3476 P   0  0  0  0  0  0  0  0  0  0  0  0
    6.4125   12.2255    3.3145 P   0  0  0  0  0  0  0  0  0  0  0  0
    3.4638    8.7212    1.5422 P   0  0  0  0  0  0  0  0  0  0  0  0
    4.5970    8.7917    4.4699 P   0  0  0  0  0  0  0  0  0  0  0  0
    8.3255    9.4306    4.5556 P   0  0  0  0  0  0  0  0  0  0  0  0
    7.0059    6.4252    1.0453 C   0  0  0  0  0  0  0  0  0  0  0  0
    6.7735    5.0971    0.6218 C   0  0  0  0  0  0  0  0  0  0  0  0
    5.9879    4.6120    0.8494 H   0  0  0  0  0  0  0  0  0  0  0  0
    7.7931    4.5653   -0.1640 C   0  0  0  0  0  0  0  0  0  0  0  0
    7.7028    3.6820   -0.4994 H   0  0  0  0  0  0  0  0  0  0  0  0
    8.9047    5.2685   -0.4602 C   0  0  0  0  0  0  0  0  0  0  0  0
    9.5838    4.8426   -0.9645 H   0  0  0  0  0  0  0  0  0  0  0  0
    9.1091    6.6483   -0.0416 C   0  0  0  0  0  0  0  0  0  0  0  0
    9.8740    7.1511   -0.2962 H   0  0  0  0  0  0  0  0  0  0  0  0
    8.1133    7.1624    0.7442 C   0  0  0  0  0  0  0  0  0  0  0  0
    3.7994   10.0480   -3.0281 C   0  0  0  0  0  0  0  0  0  0  0  0
    3.7022    9.6750   -4.3549 C   0  0  0  0  0  0  0  0  0  0  0  0
    4.3955    9.1508   -4.7319 H   0  0  0  0  0  0  0  0  0  0  0  0
    2.6341   10.0279   -5.1578 C   0  0  0  0  0  0  0  0  0  0  0  0
    2.5575    9.8061   -6.0782 H   0  0  0  0  0  0  0  0  0  0  0  0
    1.6943   10.7474   -4.4479 C   0  0  0  0  0  0  0  0  0  0  0  0
    0.8941   10.9188   -4.9326 H   0  0  0  0  0  0  0  0  0  0  0  0
    1.6872   11.2666   -3.1652 C   0  0  0  0  0  0  0  0  0  0  0  0
    0.9951   11.8034   -2.7980 H   0  0  0  0  0  0  0  0  0  0  0  0
    2.8494   10.8885   -2.4798 C   0  0  0  0  0  0  0  0  0  0  0  0
    8.1818   11.1935   -0.5361 C   0  0  0  0  0  0  0  0  0  0  0  0
    9.2668   12.0491   -0.5973 C   0  0  0  0  0  0  0  0  0  0  0  0
    9.2598   12.8908   -0.1567 H   0  0  0  0  0  0  0  0  0  0  0  0
   10.4158   11.6169   -1.3513 C   0  0  0  0  0  0  0  0  0  0  0  0
   11.1737   12.1801   -1.4174 H   0  0  0  0  0  0  0  0  0  0  0  0
   10.4086   10.4198   -1.9608 C   0  0  0  0  0  0  0  0  0  0  0  0
   11.1923   10.1375   -2.4235 H   0  0  0  0  0  0  0  0  0  0  0  0
    9.3038    9.5843   -1.9339 C   0  0  0  0  0  0  0  0  0  0  0  0
    9.3038    8.7539   -2.3965 H   0  0  0  0  0  0  0  0  0  0  0  0
    8.2053   10.0065   -1.2068 C   0  0  0  0  0  0  0  0  0  0  0  0
    7.4368    9.4482   -1.1726 H   0  0  0  0  0  0  0  0  0  0  0  0
    6.0351   12.9866   -0.7882 C   0  0  0  0  0  0  0  0  0  0  0  0
    6.1687   12.8908   -2.0979 C   0  0  0  0  0  0  0  0  0  0  0  0
    6.6963   12.1763   -2.4382 H   0  0  0  0  0  0  0  0  0  0  0  0
    5.5773   13.7994   -3.0428 C   0  0  0  0  0  0  0  0  0  0  0  0
    5.6167   13.6670   -3.9804 H   0  0  0  0  0  0  0  0  0  0  0  0
    4.9109   14.9221   -2.4406 C   0  0  0  0  0  0  0  0  0  0  0  0
    4.6510   15.6467   -2.9987 H   0  0  0  0  0  0  0  0  0  0  0  0
    4.6381   14.9914   -1.1187 C   0  0  0  0  0  0  0  0  0  0  0  0
    4.0608   15.6517   -0.7589 H   0  0  0  0  0  0  0  0  0  0  0  0
    5.2557   14.0413   -0.3207 C   0  0  0  0  0  0  0  0  0  0  0  0
    5.1401   14.1156    0.6193 H   0  0  0  0  0  0  0  0  0  0  0  0
    7.3309   12.7182    1.7846 C   0  0  0  0  0  0  0  0  0  0  0  0
    8.3007   12.5468    1.9021 H   0  0  0  0  0  0  0  0  0  0  0  0
    7.2080   13.6847    1.6107 H   0  0  0  0  0  0  0  0  0  0  0  0
    4.9145   13.2613    3.0795 C   0  0  0  0  0  0  0  0  0  0  0  0
    3.7354   12.7094    2.6707 C   0  0  0  0  0  0  0  0  0  0  0  0
    3.6878   11.7643    2.5875 H   0  0  0  0  0  0  0  0  0  0  0  0
    2.5876   13.4566    2.3623 C   0  0  0  0  0  0  0  0  0  0  0  0
    1.7771   13.0383    2.0954 H   0  0  0  0  0  0  0  0  0  0  0  0
    2.6995   14.8440    2.4651 C   0  0  0  0  0  0  0  0  0  0  0  0
    1.9522   15.3833    2.2276 H   0  0  0  0  0  0  0  0  0  0  0  0
    3.8379   15.4526    2.8984 C   0  0  0  0  0  0  0  0  0  0  0  0
    3.8816   16.3977    2.9743 H   0  0  0  0  0  0  0  0  0  0  0  0
    4.9180   14.6789    3.2166 C   0  0  0  0  0  0  0  0  0  0  0  0
    5.7026   15.1023    3.5446 H   0  0  0  0  0  0  0  0  0  0  0  0
    7.2670   13.2563    4.6217 C   0  0  0  0  0  0  0  0  0  0  0  0
    6.6203   13.6607    5.7649 C   0  0  0  0  0  0  0  0  0  0  0  0
    5.7071   13.4112    5.8604 H   0  0  0  0  0  0  0  0  0  0  0  0
    7.1685   14.3828    6.7563 C   0  0  0  0  0  0  0  0  0  0  0  0
    6.6738   14.6499    7.5201 H   0  0  0  0  0  0  0  0  0  0  0  0
    8.5115   14.7142    6.5972 C   0  0  0  0  0  0  0  0  0  0  0  0
    8.9526   15.2170    7.2753 H   0  0  0  0  0  0  0  0  0  0  0  0
    9.2092   14.3412    5.5079 C   0  0  0  0  0  0  0  0  0  0  0  0
   10.1330   14.5378    5.4442 H   0  0  0  0  0  0  0  0  0  0  0  0
    8.5715   13.6670    4.4675 C   0  0  0  0  0  0  0  0  0  0  0  0
    9.0334   13.4919    3.6572 H   0  0  0  0  0  0  0  0  0  0  0  0
    1.8359    9.5314    1.5324 C   0  0  0  0  0  0  0  0  0  0  0  0
    1.2858   10.0342    2.6193 C   0  0  0  0  0  0  0  0  0  0  0  0
    1.7583    9.9561    3.4394 H   0  0  0  0  0  0  0  0  0  0  0  0
    0.0309   10.6831    2.6291 C   0  0  0  0  0  0  0  0  0  0  0  0
   -0.3406   11.0208    3.4369 H   0  0  0  0  0  0  0  0  0  0  0  0
   -0.6246   10.8091    1.4516 C   0  0  0  0  0  0  0  0  0  0  0  0
   -1.4672   11.2451    1.4272 H   0  0  0  0  0  0  0  0  0  0  0  0
   -0.0924   10.3177    0.3133 C   0  0  0  0  0  0  0  0  0  0  0  0
   -0.5546   10.3983   -0.5141 H   0  0  0  0  0  0  0  0  0  0  0  0
    1.1408    9.6952    0.3696 C   0  0  0  0  0  0  0  0  0  0  0  0
    1.5215    9.3663   -0.4357 H   0  0  0  0  0  0  0  0  0  0  0  0
    3.1569    7.2922    0.4333 C   0  0  0  0  0  0  0  0  0  0  0  0
    2.0411    6.5361    0.6830 C   0  0  0  0  0  0  0  0  0  0  0  0
    1.4995    6.7113    1.4418 H   0  0  0  0  0  0  0  0  0  0  0  0
    1.7271    5.5129   -0.1958 C   0  0  0  0  0  0  0  0  0  0  0  0
    0.9378    5.0013   -0.0612 H   0  0  0  0  0  0  0  0  0  0  0  0
    2.5444    5.2332   -1.2509 C   0  0  0  0  0  0  0  0  0  0  0  0
    2.3054    4.5137   -1.8262 H   0  0  0  0  0  0  0  0  0  0  0  0
    3.7118    5.9502   -1.5373 C   0  0  0  0  0  0  0  0  0  0  0  0
    4.2705    5.7511   -2.2790 H   0  0  0  0  0  0  0  0  0  0  0  0
    3.9887    6.9923   -0.6242 C   0  0  0  0  0  0  0  0  0  0  0  0
    4.7811    7.5064   -0.7442 H   0  0  0  0  0  0  0  0  0  0  0  0
    3.5980    7.8870    3.1725 C   0  0  0  0  0  0  0  0  0  0  0  0
    3.9981    6.9948    3.0355 H   0  0  0  0  0  0  0  0  0  0  0  0
    2.6840    7.7484    3.5275 H   0  0  0  0  0  0  0  0  0  0  0  0
    4.9073    7.4220    5.6670 C   0  0  0  0  0  0  0  0  0  0  0  0
    4.9033    6.0560    5.3659 C   0  0  0  0  0  0  0  0  0  0  0  0
    4.6991    5.7750    4.4822 H   0  0  0  0  0  0  0  0  0  0  0  0
    5.2018    5.0946    6.3402 C   0  0  0  0  0  0  0  0  0  0  0  0
    5.0962    4.1722    6.1394 H   0  0  0  0  0  0  0  0  0  0  0  0
    5.6077    5.4512    7.4981 C   0  0  0  0  0  0  0  0  0  0  0  0
    5.8652    4.7821    8.1198 H   0  0  0  0  0  0  0  0  0  0  0  0
    5.6783    6.7995    7.8824 C   0  0  0  0  0  0  0  0  0  0  0  0
    5.9897    7.0616    8.7416 H   0  0  0  0  0  0  0  0  0  0  0  0
    5.2802    7.7118    6.9497 C   0  0  0  0  0  0  0  0  0  0  0  0
    5.2551    8.6241    7.2141 H   0  0  0  0  0  0  0  0  0  0  0  0
    3.2736    9.6650    5.4565 C   0  0  0  0  0  0  0  0  0  0  0  0
    3.3740   11.0208    5.5348 C   0  0  0  0  0  0  0  0  0  0  0  0
    4.1323   11.4619    5.1701 H   0  0  0  0  0  0  0  0  0  0  0  0
    2.3695   11.7643    6.1443 C   0  0  0  0  0  0  0  0  0  0  0  0
    2.4174   12.7119    6.1835 H   0  0  0  0  0  0  0  0  0  0  0  0
    1.2709   11.0574    6.7049 C   0  0  0  0  0  0  0  0  0  0  0  0
    0.5839   11.5400    7.1529 H   0  0  0  0  0  0  0  0  0  0  0  0
    1.1819    9.6612    6.6095 C   0  0  0  0  0  0  0  0  0  0  0  0
    0.4211    9.2101    6.9546 H   0  0  0  0  0  0  0  0  0  0  0  0
    2.1789    8.9543    6.0244 C   0  0  0  0  0  0  0  0  0  0  0  0
    2.1492    8.0042    5.9926 H   0  0  0  0  0  0  0  0  0  0  0  0
    8.3869    9.5982    6.3965 C   0  0  0  0  0  0  0  0  0  0  0  0
    9.1260    8.7161    7.1700 C   0  0  0  0  0  0  0  0  0  0  0  0
    9.5775    7.9714    6.7882 H   0  0  0  0  0  0  0  0  0  0  0  0
    9.1729    8.9845    8.5629 C   0  0  0  0  0  0  0  0  0  0  0  0
    9.7463    8.4729    9.1210 H   0  0  0  0  0  0  0  0  0  0  0  0
    8.3735   10.0153    9.1235 C   0  0  0  0  0  0  0  0  0  0  0  0
    8.2861   10.0947   10.0660 H   0  0  0  0  0  0  0  0  0  0  0  0
    7.7394   10.8784    8.3034 C   0  0  0  0  0  0  0  0  0  0  0  0
    7.3107   11.6521    8.6510 H   0  0  0  0  0  0  0  0  0  0  0  0
    7.7222   10.6252    6.9840 C   0  0  0  0  0  0  0  0  0  0  0  0
    7.2150   11.2023    6.4283 H   0  0  0  0  0  0  0  0  0  0  0  0
    9.0417    7.7534    4.2986 C   0  0  0  0  0  0  0  0  0  0  0  0
   10.3946    7.4623    4.2203 C   0  0  0  0  0  0  0  0  0  0  0  0
   11.0287    8.1591    4.3255 H   0  0  0  0  0  0  0  0  0  0  0  0
   10.8193    6.1871    3.9926 C   0  0  0  0  0  0  0  0  0  0  0  0
   11.7477    6.0371    3.8457 H   0  0  0  0  0  0  0  0  0  0  0  0
    9.9719    5.1122    3.9681 C   0  0  0  0  0  0  0  0  0  0  0  0
   10.3017    4.2327    3.8237 H   0  0  0  0  0  0  0  0  0  0  0  0
    8.6111    5.3378    4.1591 C   0  0  0  0  0  0  0  0  0  0  0  0
    8.0026    4.6094    4.1640 H   0  0  0  0  0  0  0  0  0  0  0  0
    8.1389    6.6647    4.3451 C   0  0  0  0  0  0  0  0  0  0  0  0
    7.2188    6.8209    4.5018 H   0  0  0  0  0  0  0  0  0  0  0  0
    9.8148   10.4336    4.0979 C   0  0  0  0  0  0  0  0  0  0  0  0
   10.1048   10.6264    2.7490 C   0  0  0  0  0  0  0  0  0  0  0  0
    9.5145   10.2824    2.0881 H   0  0  0  0  0  0  0  0  0  0  0  0
   11.2604   11.3258    2.3574 C   0  0  0  0  0  0  0  0  0  0  0  0
   11.4548   11.4379    1.4345 H   0  0  0  0  0  0  0  0  0  0  0  0
   12.1254   11.8601    3.3194 C   0  0  0  0  0  0  0  0  0  0  0  0
   12.8889   12.3729    3.0771 H   0  0  0  0  0  0  0  0  0  0  0  0
   11.8199   11.6055    4.6364 C   0  0  0  0  0  0  0  0  0  0  0  0
   12.4147   11.9306    5.2998 H   0  0  0  0  0  0  0  0  0  0  0  0
   10.7390   10.9276    5.0403 C   0  0  0  0  0  0  0  0  0  0  0  0
   10.5918   10.7802    5.9656 H   0  0  0  0  0  0  0  0  0  0  0  0
  1  2  1  0  0  0  0
  2  3  1  0  0  0  0
  3  1  1  0  0  0  0
  4  2  1  0  0  0  0
  5  3  1  0  0  0  0
  6  3  1  0  0  0  0
  7  4  1  0  0  0  0
  8  4  1  0  0  0  0
  9  2  1  0  0  0  0
 10  1  1  0  0  0  0
 11  2  1  0  0  0  0
 12  1  1  0  0  0  0
 13  1  1  0  0  0  0
 14  5  1  0  0  0  0
 15 14  4  0  0  0  0
 16 15  1  0  0  0  0
 17 15  4  0  0  0  0
 18 17  1  0  0  0  0
 19 17  4  0  0  0  0
 20 19  1  0  0  0  0
 21 19  4  0  0  0  0
 22 21  1  0  0  0  0
 23  6  1  0  0  0  0
 24  7  1  0  0  0  0
 25 24  4  0  0  0  0
 26 25  1  0  0  0  0
 27 25  4  0  0  0  0
 28 27  1  0  0  0  0
 29 27  4  0  0  0  0
 30 29  1  0  0  0  0
 31 29  4  0  0  0  0
 32 31  1  0  0  0  0
 33  8  1  0  0  0  0
 34  9  1  0  0  0  0
 35 34  4  0  0  0  0
 36 35  1  0  0  0  0
 37 35  4  0  0  0  0
 38 37  1  0  0  0  0
 39 37  4  0  0  0  0
 40 39  1  0  0  0  0
 41 39  4  0  0  0  0
 42 41  1  0  0  0  0
 43 34  4  0  0  0  0
 44 43  1  0  0  0  0
 45  9  1  0  0  0  0
 46 45  4  0  0  0  0
 47 46  1  0  0  0  0
 48 46  4  0  0  0  0
 49 48  1  0  0  0  0
 50 48  4  0  0  0  0
 51 50  1  0  0  0  0
 52 50  4  0  0  0  0
 53 52  1  0  0  0  0
 54 45  4  0  0  0  0
 55 54  1  0  0  0  0
 56  9  1  0  0  0  0
 57 56  1  0  0  0  0
 58 56  1  0  0  0  0
 59 10  1  0  0  0  0
 60 59  4  0  0  0  0
 61 60  1  0  0  0  0
 62 60  4  0  0  0  0
 63 62  1  0  0  0  0
 64 62  4  0  0  0  0
 65 64  1  0  0  0  0
 66 64  4  0  0  0  0
 67 66  1  0  0  0  0
 68 59  4  0  0  0  0
 69 68  1  0  0  0  0
 70 10  1  0  0  0  0
 71 70  4  0  0  0  0
 72 71  1  0  0  0  0
 73 71  4  0  0  0  0
 74 73  1  0  0  0  0
 75 73  4  0  0  0  0
 76 75  1  0  0  0  0
 77 75  4  0  0  0  0
 78 77  1  0  0  0  0
 79 70  4  0  0  0  0
 80 79  1  0  0  0  0
 81 11  1  0  0  0  0
 82 81  4  0  0  0  0
 83 82  1  0  0  0  0
 84 82  4  0  0  0  0
 85 84  1  0  0  0  0
 86 84  4  0  0  0  0
 87 86  1  0  0  0  0
 88 86  4  0  0  0  0
 89 88  1  0  0  0  0
 90 81  4  0  0  0  0
 91 90  1  0  0  0  0
 92 11  1  0  0  0  0
 93 92  4  0  0  0  0
 94 93  1  0  0  0  0
 95 93  4  0  0  0  0
 96 95  1  0  0  0  0
 97 95  4  0  0  0  0
 98 97  1  0  0  0  0
 99 97  4  0  0  0  0
100 99  1  0  0  0  0
101 92  4  0  0  0  0
102101  1  0  0  0  0
103 11  1  0  0  0  0
104103  1  0  0  0  0
105103  1  0  0  0  0
106 12  1  0  0  0  0
107106  4  0  0  0  0
108107  1  0  0  0  0
109107  4  0  0  0  0
110109  1  0  0  0  0
111109  4  0  0  0  0
112111  1  0  0  0  0
113111  4  0  0  0  0
114113  1  0  0  0  0
115106  4  0  0  0  0
116115  1  0  0  0  0
117 12  1  0  0  0  0
118117  4  0  0  0  0
119118  1  0  0  0  0
120118  4  0  0  0  0
121120  1  0  0  0  0
122120  4  0  0  0  0
123122  1  0  0  0  0
124122  4  0  0  0  0
125124  1  0  0  0  0
126117  4  0  0  0  0
127126  1  0  0  0  0
128 13  1  0  0  0  0
129128  4  0  0  0  0
130129  1  0  0  0  0
131129  4  0  0  0  0
132131  1  0  0  0  0
133131  4  0  0  0  0
134133  1  0  0  0  0
135133  4  0  0  0  0
136135  1  0  0  0  0
137128  4  0  0  0  0
138137  1  0  0  0  0
139 13  1  0  0  0  0
140139  4  0  0  0  0
141140  1  0  0  0  0
142140  4  0  0  0  0
143142  1  0  0  0  0
144142  4  0  0  0  0
145144  1  0  0  0  0
146144  4  0  0  0  0
147146  1  0  0  0  0
148139  4  0  0  0  0
149148  1  0  0  0  0
150 13  1  0  0  0  0
151150  4  0  0  0  0
152151  1  0  0  0  0
153151  4  0  0  0  0
154153  1  0  0  0  0
155153  4  0  0  0  0
156155  1  0  0  0  0
157155  4  0  0  0  0
158157  1  0  0  0  0
159150  4  0  0  0  0
160159  1  0  0  0  0
 10 56  1  0  0  0  0
 12103  1  0  0  0  0
 14 23  4  0  0  0  0
 21 23  4  0  0  0  0
 24 33  4  0  0  0  0
 31 33  4  0  0  0  0
 41 43  4  0  0  0  0
 52 54  4  0  0  0  0
 66 68  4  0  0  0  0
 77 79  4  0  0  0  0
 88 90  4  0  0  0  0
 99101  4  0  0  0  0
113115  4  0  0  0  0
124126  4  0  0  0  0
135137  4  0  0  0  0
146148  4  0  0  0  0
157159  4  0  0  0  0
M  END
$$$$
FOCPUI

From CSD data. Using bond type 'Any'. Matching problem. No disordered atoms. Largest molecule.
175193  0  0  0  0  0  0  0  0999 V2000
   -2.5646   27.4922   19.7765 Pt  0  0  0  0  0  0  0  0  0  0  0  0
   -1.7168   24.8563   19.7748 Pt  0  0  0  0  0  0  0  0  0  0  0  0
   -3.5346   26.0512   21.0239 B   0  0  0  0  0  0  0  0  0  0  0  0
   -1.0018   22.9264   19.6371 B   0  0  0  0  0  0  0  0  0  0  0  0
   -4.7989   25.4927   20.6510 O   0  0  0  0  0  0  0  0  0  0  0  0
   -3.3064   25.8125   22.3814 O   0  0  0  0  0  0  0  0  0  0  0  0
    0.2012   22.5285   19.0643 O   0  0  0  0  0  0  0  0  0  0  0  0
   -1.7156   21.7910   20.0587 O   0  0  0  0  0  0  0  0  0  0  0  0
   -0.4068   25.1560   21.6178 P   0  0  0  0  0  0  0  0  0  0  0  0
   -1.0362   28.2154   21.3441 P   0  0  0  0  0  0  0  0  0  0  0  0
   -2.7741   24.5563   17.7657 P   0  0  0  0  0  0  0  0  0  0  0  0
   -1.9983   27.4438   17.5440 P   0  0  0  0  0  0  0  0  0  0  0  0
   -4.5098   28.7198   19.6941 P   0  0  0  0  0  0  0  0  0  0  0  0
   -5.9481   31.4979   19.6517 P   0  0  0  0  0  0  0  0  0  0  0  0
   -5.3093   24.9499   21.7892 C   0  0  0  0  0  0  0  0  0  0  0  0
   -6.4783   24.2906   21.9817 C   0  0  0  0  0  0  0  0  0  0  0  0
   -7.0901   24.1598   21.2676 H   0  0  0  0  0  0  0  0  0  0  0  0
   -6.7559   23.8060   23.2686 C   0  0  0  0  0  0  0  0  0  0  0  0
   -7.5742   23.3541   23.4343 H   0  0  0  0  0  0  0  0  0  0  0  0
   -5.8603   23.9765   24.2874 C   0  0  0  0  0  0  0  0  0  0  0  0
   -6.0671   23.6284   25.1477 H   0  0  0  0  0  0  0  0  0  0  0  0
   -4.6524   24.6472   24.0948 C   0  0  0  0  0  0  0  0  0  0  0  0
   -4.0271   24.7709   24.7992 H   0  0  0  0  0  0  0  0  0  0  0  0
   -4.4237   25.1190   22.8250 C   0  0  0  0  0  0  0  0  0  0  0  0
    0.2556   21.1445   19.1618 C   0  0  0  0  0  0  0  0  0  0  0  0
    1.2376   20.2564   18.7597 C   0  0  0  0  0  0  0  0  0  0  0  0
    2.0445   20.5519   18.3600 H   0  0  0  0  0  0  0  0  0  0  0  0
    0.9819   18.9220   18.9717 C   0  0  0  0  0  0  0  0  0  0  0  0
    1.6502   18.2868   18.7426 H   0  0  0  0  0  0  0  0  0  0  0  0
   -0.2080   18.4659   19.5055 C   0  0  0  0  0  0  0  0  0  0  0  0
   -0.3481   17.5309   19.5981 H   0  0  0  0  0  0  0  0  0  0  0  0
   -1.2218   19.3597   19.9174 C   0  0  0  0  0  0  0  0  0  0  0  0
   -2.0441   19.0712   20.2951 H   0  0  0  0  0  0  0  0  0  0  0  0
   -0.9041   20.7082   19.7199 C   0  0  0  0  0  0  0  0  0  0  0  0
   -0.6836   24.0490   23.0858 C   0  0  0  0  0  0  0  0  0  0  0  0
    0.0769   24.2622   24.2167 C   0  0  0  0  0  0  0  0  0  0  0  0
    0.7235   24.9584   24.2289 H   0  0  0  0  0  0  0  0  0  0  0  0
   -0.0943   23.4692   25.3232 C   0  0  0  0  0  0  0  0  0  0  0  0
    0.4193   23.6213   26.1080 H   0  0  0  0  0  0  0  0  0  0  0  0
   -1.0263   22.4433   25.2842 C   0  0  0  0  0  0  0  0  0  0  0  0
   -1.1515   21.8877   26.0447 H   0  0  0  0  0  0  0  0  0  0  0  0
   -1.7685   22.2259   24.1533 C   0  0  0  0  0  0  0  0  0  0  0  0
   -2.3924   21.5097   24.1314 H   0  0  0  0  0  0  0  0  0  0  0  0
   -1.6211   23.0358   23.0541 C   0  0  0  0  0  0  0  0  0  0  0  0
   -2.1586   22.9008   22.2815 H   0  0  0  0  0  0  0  0  0  0  0  0
    1.3824   24.8533   21.2725 C   0  0  0  0  0  0  0  0  0  0  0  0
    1.8587   23.5531   21.4138 C   0  0  0  0  0  0  0  0  0  0  0  0
    1.2783   22.8539   21.6917 H   0  0  0  0  0  0  0  0  0  0  0  0
    3.2046   23.2930   21.1384 C   0  0  0  0  0  0  0  0  0  0  0  0
    3.5365   22.4063   21.2091 H   0  0  0  0  0  0  0  0  0  0  0  0
    4.0430   24.3062   20.7704 C   0  0  0  0  0  0  0  0  0  0  0  0
    4.9633   24.1300   20.6169 H   0  0  0  0  0  0  0  0  0  0  0  0
    3.5518   25.5808   20.6266 C   0  0  0  0  0  0  0  0  0  0  0  0
    4.1323   26.2800   20.3488 H   0  0  0  0  0  0  0  0  0  0  0  0
    2.2329   25.8523   20.8777 C   0  0  0  0  0  0  0  0  0  0  0  0
    1.9073   26.7390   20.7777 H   0  0  0  0  0  0  0  0  0  0  0  0
   -0.4413   26.8157   22.4107 C   0  0  0  0  0  0  0  0  0  0  0  0
    0.4741   27.0303   22.7202 H   0  0  0  0  0  0  0  0  0  0  0  0
   -1.0210   26.7660   23.2101 H   0  0  0  0  0  0  0  0  0  0  0  0
    0.5829   29.0126   20.9191 C   0  0  0  0  0  0  0  0  0  0  0  0
    0.9935   29.0637   19.5859 C   0  0  0  0  0  0  0  0  0  0  0  0
    0.3937   28.7895   18.9010 H   0  0  0  0  0  0  0  0  0  0  0  0
    2.2490   29.5056   19.2520 C   0  0  0  0  0  0  0  0  0  0  0  0
    2.5028   29.5483   18.3380 H   0  0  0  0  0  0  0  0  0  0  0  0
    3.1380   29.8836   20.2196 C   0  0  0  0  0  0  0  0  0  0  0  0
    4.0293   30.1252   19.9880 H   0  0  0  0  0  0  0  0  0  0  0  0
    2.7281   29.9092   21.5308 C   0  0  0  0  0  0  0  0  0  0  0  0
    3.3129   30.2289   22.2084 H   0  0  0  0  0  0  0  0  0  0  0  0
    1.4646   29.4715   21.8672 C   0  0  0  0  0  0  0  0  0  0  0  0
    1.1936   29.4900   22.7787 H   0  0  0  0  0  0  0  0  0  0  0  0
   -1.5804   29.3920   22.6690 C   0  0  0  0  0  0  0  0  0  0  0  0
   -1.7934   30.7192   22.2937 C   0  0  0  0  0  0  0  0  0  0  0  0
   -1.5411   30.9906   21.4187 H   0  0  0  0  0  0  0  0  0  0  0  0
   -2.3450   31.6414   23.1272 C   0  0  0  0  0  0  0  0  0  0  0  0
   -2.4466   32.5409   22.8397 H   0  0  0  0  0  0  0  0  0  0  0  0
   -2.7624   31.2663   24.4044 C   0  0  0  0  0  0  0  0  0  0  0  0
   -3.1828   31.8943   24.9771 H   0  0  0  0  0  0  0  0  0  0  0  0
   -2.5509   29.9660   24.8187 C   0  0  0  0  0  0  0  0  0  0  0  0
   -2.7894   29.6989   25.6986 H   0  0  0  0  0  0  0  0  0  0  0  0
   -1.9820   29.0452   23.9315 C   0  0  0  0  0  0  0  0  0  0  0  0
   -1.8691   28.1457   24.2143 H   0  0  0  0  0  0  0  0  0  0  0  0
   -1.9081   23.4152   16.6051 C   0  0  0  0  0  0  0  0  0  0  0  0
   -0.9865   23.8543   15.6765 C   0  0  0  0  0  0  0  0  0  0  0  0
   -0.8330   24.7851   15.5644 H   0  0  0  0  0  0  0  0  0  0  0  0
   -0.2669   22.9264   14.8917 C   0  0  0  0  0  0  0  0  0  0  0  0
    0.3138   23.2277   14.2020 H   0  0  0  0  0  0  0  0  0  0  0  0
   -0.4144   21.5793   15.1379 C   0  0  0  0  0  0  0  0  0  0  0  0
    0.1258   20.9555   14.6651 H   0  0  0  0  0  0  0  0  0  0  0  0
   -1.3216   21.1274   16.0397 C   0  0  0  0  0  0  0  0  0  0  0  0
   -1.4345   20.1938   16.1786 H   0  0  0  0  0  0  0  0  0  0  0  0
   -2.0779   22.0340   16.7587 C   0  0  0  0  0  0  0  0  0  0  0  0
   -2.7287   21.7129   17.3704 H   0  0  0  0  0  0  0  0  0  0  0  0
   -4.4216   23.7819   17.8627 C   0  0  0  0  0  0  0  0  0  0  0  0
   -4.7991   23.0515   18.9546 C   0  0  0  0  0  0  0  0  0  0  0  0
   -4.1939   22.9420   19.6785 H   0  0  0  0  0  0  0  0  0  0  0  0
   -6.0621   22.4660   19.0107 C   0  0  0  0  0  0  0  0  0  0  0  0
   -6.3140   21.9743   19.7833 H   0  0  0  0  0  0  0  0  0  0  0  0
   -6.9420   22.5840   17.9773 C   0  0  0  0  0  0  0  0  0  0  0  0
   -7.8025   22.1847   18.0236 H   0  0  0  0  0  0  0  0  0  0  0  0
   -6.5610   23.2788   16.8927 C   0  0  0  0  0  0  0  0  0  0  0  0
   -7.1663   23.3641   16.1640 H   0  0  0  0  0  0  0  0  0  0  0  0
   -5.2976   23.8827   16.7952 C   0  0  0  0  0  0  0  0  0  0  0  0
   -5.0493   24.3545   16.0104 H   0  0  0  0  0  0  0  0  0  0  0  0
   -2.9757   26.0682   16.7709 C   0  0  0  0  0  0  0  0  0  0  0  0
   -3.9328   26.3183   16.7319 H   0  0  0  0  0  0  0  0  0  0  0  0
   -2.6569   25.9077   15.8496 H   0  0  0  0  0  0  0  0  0  0  0  0
   -0.3180   27.0232   16.9049 C   0  0  0  0  0  0  0  0  0  0  0  0
    0.5431   26.2857   17.6702 C   0  0  0  0  0  0  0  0  0  0  0  0
    0.2748   26.0341   18.5452 H   0  0  0  0  0  0  0  0  0  0  0  0
    1.7782   25.8920   17.2242 C   0  0  0  0  0  0  0  0  0  0  0  0
    2.3473   25.3876   17.7945 H   0  0  0  0  0  0  0  0  0  0  0  0
    2.1956   26.2246   15.9519 C   0  0  0  0  0  0  0  0  0  0  0  0
    3.0465   25.9446   15.6326 H   0  0  0  0  0  0  0  0  0  0  0  0
    1.3673   26.9606   15.1598 C   0  0  0  0  0  0  0  0  0  0  0  0
    1.6377   27.1951   14.2800 H   0  0  0  0  0  0  0  0  0  0  0  0
    0.1326   27.3699   15.6302 C   0  0  0  0  0  0  0  0  0  0  0  0
   -0.4236   27.8999   15.0721 H   0  0  0  0  0  0  0  0  0  0  0  0
   -2.3653   28.8591   16.4467 C   0  0  0  0  0  0  0  0  0  0  0  0
   -1.7709   30.0769   16.8440 C   0  0  0  0  0  0  0  0  0  0  0  0
   -1.2524   30.0982   17.6385 H   0  0  0  0  0  0  0  0  0  0  0  0
   -1.9184   31.2279   16.1201 C   0  0  0  0  0  0  0  0  0  0  0  0
   -1.5826   32.0507   16.4564 H   0  0  0  0  0  0  0  0  0  0  0  0
   -2.5427   31.1853   14.9307 C   0  0  0  0  0  0  0  0  0  0  0  0
   -2.5443   31.9483   14.3653 H   0  0  0  0  0  0  0  0  0  0  0  0
   -3.1644   30.0584   14.5432 C   0  0  0  0  0  0  0  0  0  0  0  0
   -3.6986   30.0684   13.7584 H   0  0  0  0  0  0  0  0  0  0  0  0
   -3.0416   28.8520   15.2866 C   0  0  0  0  0  0  0  0  0  0  0  0
   -3.4332   28.0491   14.9673 H   0  0  0  0  0  0  0  0  0  0  0  0
   -5.6189   28.4029   18.2503 C   0  0  0  0  0  0  0  0  0  0  0  0
   -5.7665   29.3081   17.2266 C   0  0  0  0  0  0  0  0  0  0  0  0
   -5.3193   30.1451   17.2802 H   0  0  0  0  0  0  0  0  0  0  0  0
   -6.5540   29.0268   16.1152 C   0  0  0  0  0  0  0  0  0  0  0  0
   -6.5997   29.6421   15.3938 H   0  0  0  0  0  0  0  0  0  0  0  0
   -7.2699   27.8488   16.0689 C   0  0  0  0  0  0  0  0  0  0  0  0
   -7.8670   27.6882   15.3475 H   0  0  0  0  0  0  0  0  0  0  0  0
   -7.1230   26.9010   17.0584 C   0  0  0  0  0  0  0  0  0  0  0  0
   -7.5840   26.0711   17.0000 H   0  0  0  0  0  0  0  0  0  0  0  0
   -6.2806   27.1738   18.1650 C   0  0  0  0  0  0  0  0  0  0  0  0
   -6.1647   26.5230   18.8474 H   0  0  0  0  0  0  0  0  0  0  0  0
   -5.6175   28.5564   21.1628 C   0  0  0  0  0  0  0  0  0  0  0  0
   -6.9945   28.4641   21.1214 C   0  0  0  0  0  0  0  0  0  0  0  0
   -7.4416   28.4143   20.2854 H   0  0  0  0  0  0  0  0  0  0  0  0
   -7.7315   28.4456   22.3156 C   0  0  0  0  0  0  0  0  0  0  0  0
   -8.6816   28.3930   22.2864 H   0  0  0  0  0  0  0  0  0  0  0  0
   -7.1016   28.5024   23.4977 C   0  0  0  0  0  0  0  0  0  0  0  0
   -7.6069   28.4839   24.2996 H   0  0  0  0  0  0  0  0  0  0  0  0
   -5.7242   28.5877   23.5586 C   0  0  0  0  0  0  0  0  0  0  0  0
   -5.2748   28.6303   24.3946 H   0  0  0  0  0  0  0  0  0  0  0  0
   -5.0390   28.6076   22.4131 C   0  0  0  0  0  0  0  0  0  0  0  0
   -4.0931   28.6616   22.4619 H   0  0  0  0  0  0  0  0  0  0  0  0
   -4.3499   30.5771   19.6541 C   0  0  0  0  0  0  0  0  0  0  0  0
   -3.8236   30.8641   20.4414 H   0  0  0  0  0  0  0  0  0  0  0  0
   -3.8413   30.8314   18.8450 H   0  0  0  0  0  0  0  0  0  0  0  0
   -5.8229   32.5338   18.1138 C   0  0  0  0  0  0  0  0  0  0  0  0
   -6.9632   32.6148   17.2217 C   0  0  0  0  0  0  0  0  0  0  0  0
   -7.7927   32.2567   17.5142 H   0  0  0  0  0  0  0  0  0  0  0  0
   -6.9042   33.1264   16.1055 C   0  0  0  0  0  0  0  0  0  0  0  0
   -7.6811   33.0766   15.5595 H   0  0  0  0  0  0  0  0  0  0  0  0
   -5.7534   33.7928   15.5620 C   0  0  0  0  0  0  0  0  0  0  0  0
   -5.7468   34.2006   14.7040 H   0  0  0  0  0  0  0  0  0  0  0  0
   -4.7132   33.7885   16.3614 C   0  0  0  0  0  0  0  0  0  0  0  0
   -3.9329   34.2433   16.0665 H   0  0  0  0  0  0  0  0  0  0  0  0
   -4.6604   33.1207   17.7019 C   0  0  0  0  0  0  0  0  0  0  0  0
   -3.8713   33.1050   18.2308 H   0  0  0  0  0  0  0  0  0  0  0  0
   -5.6510   32.6816   20.9630 C   0  0  0  0  0  0  0  0  0  0  0  0
   -5.0497   33.9093   20.9386 C   0  0  0  0  0  0  0  0  0  0  0  0
   -4.7418   34.2418   20.1026 H   0  0  0  0  0  0  0  0  0  0  0  0
   -4.8470   34.7633   22.1597 C   0  0  0  0  0  0  0  0  0  0  0  0
   -4.3504   35.5705   22.1036 H   0  0  0  0  0  0  0  0  0  0  0  0
   -5.4038   34.3555   23.3856 C   0  0  0  0  0  0  0  0  0  0  0  0
   -5.4056   34.9381   24.1363 H   0  0  0  0  0  0  0  0  0  0  0  0
   -5.9511   33.0738   23.4782 C   0  0  0  0  0  0  0  0  0  0  0  0
   -6.2244   32.7441   24.3288 H   0  0  0  0  0  0  0  0  0  0  0  0
   -6.1121   32.2624   22.3473 C   0  0  0  0  0  0  0  0  0  0  0  0
   -6.5289   31.4140   22.4497 H   0  0  0  0  0  0  0  0  0  0  0  0
  1  2  1  0  0  0  0
  2  3  1  0  0  0  0
  3  1  1  0  0  0  0
  4  2  1  0  0  0  0
  5  3  1  0  0  0  0
  6  3  1  0  0  0  0
  7  4  1  0  0  0  0
  8  4  1  0  0  0  0
  9  2  1  0  0  0  0
 10  1  1  0  0  0  0
 11  2  1  0  0  0  0
 12  1  1  0  0  0  0
 13  1  1  0  0  0  0
 14151  1  0  0  0  0
 15  5  1  0  0  0  0
 16 15  4  0  0  0  0
 17 16  1  0  0  0  0
 18 16  4  0  0  0  0
 19 18  1  0  0  0  0
 20 18  4  0  0  0  0
 21 20  1  0  0  0  0
 22 20  4  0  0  0  0
 23 22  1  0  0  0  0
 24  6  1  0  0  0  0
 25  7  1  0  0  0  0
 26 25  4  0  0  0  0
 27 26  1  0  0  0  0
 28 26  4  0  0  0  0
 29 28  1  0  0  0  0
 30 28  4  0  0  0  0
 31 30  1  0  0  0  0
 32 30  4  0  0  0  0
 33 32  1  0  0  0  0
 34  8  1  0  0  0  0
 35  9  1  0  0  0  0
 36 35  4  0  0  0  0
 37 36  1  0  0  0  0
 38 36  4  0  0  0  0
 39 38  1  0  0  0  0
 40 38  4  0  0  0  0
 41 40  1  0  0  0  0
 42 40  4  0  0  0  0
 43 42  1  0  0  0  0
 44 35  4  0  0  0  0
 45 44  1  0  0  0  0
 46  9  1  0  0  0  0
 47 46  4  0  0  0  0
 48 47  1  0  0  0  0
 49 47  4  0  0  0  0
 50 49  1  0  0  0  0
 51 49  4  0  0  0  0
 52 51  1  0  0  0  0
 53 51  4  0  0  0  0
 54 53  1  0  0  0  0
 55 46  4  0  0  0  0
 56 55  1  0  0  0  0
 57  9  1  0  0  0  0
 58 57  1  0  0  0  0
 59 57  1  0  0  0  0
 60 10  1  0  0  0  0
 61 60  4  0  0  0  0
 62 61  1  0  0  0  0
 63 61  4  0  0  0  0
 64 63  1  0  0  0  0
 65 63  4  0  0  0  0
 66 65  1  0  0  0  0
 67 65  4  0  0  0  0
 68 67  1  0  0  0  0
 69 60  4  0  0  0  0
 70 69  1  0  0  0  0
 71 10  1  0  0  0  0
 72 71  4  0  0  0  0
 73 72  1  0  0  0  0
 74 72  4  0  0  0  0
 75 74  1  0  0  0  0
 76 74  4  0  0  0  0
 77 76  1  0  0  0  0
 78 76  4  0  0  0  0
 79 78  1  0  0  0  0
 80 71  4  0  0  0  0
 81 80  1  0  0  0  0
 82 11  1  0  0  0  0
 83 82  4  0  0  0  0
 84 83  1  0  0  0  0
 85 83  4  0  0  0  0
 86 85  1  0  0  0  0
 87 85  4  0  0  0  0
 88 87  1  0  0  0  0
 89 87  4  0  0  0  0
 90 89  1  0  0  0  0
 91 82  4  0  0  0  0
 92 91  1  0  0  0  0
 93 11  1  0  0  0  0
 94 93  4  0  0  0  0
 95 94  1  0  0  0  0
 96 94  4  0  0  0  0
 97 96  1  0  0  0  0
 98 96  4  0  0  0  0
 99 98  1  0  0  0  0
100 98  4  0  0  0  0
101100  1  0  0  0  0
102 93  4  0  0  0  0
103102  1  0  0  0  0
104 11  1  0  0  0  0
105104  1  0  0  0  0
106104  1  0  0  0  0
107 12  1  0  0  0  0
108107  4  0  0  0  0
109108  1  0  0  0  0
110108  4  0  0  0  0
111110  1  0  0  0  0
112110  4  0  0  0  0
113112  1  0  0  0  0
114112  4  0  0  0  0
115114  1  0  0  0  0
116107  4  0  0  0  0
117116  1  0  0  0  0
118 12  1  0  0  0  0
119118  4  0  0  0  0
120119  1  0  0  0  0
121119  4  0  0  0  0
122121  1  0  0  0  0
123121  4  0  0  0  0
124123  1  0  0  0  0
125123  4  0  0  0  0
126125  1  0  0  0  0
127118  4  0  0  0  0
128127  1  0  0  0  0
129 13  1  0  0  0  0
130129  4  0  0  0  0
131130  1  0  0  0  0
132130  4  0  0  0  0
133132  1  0  0  0  0
134132  4  0  0  0  0
135134  1  0  0  0  0
136134  4  0  0  0  0
137136  1  0  0  0  0
138129  4  0  0  0  0
139138  1  0  0  0  0
140 13  1  0  0  0  0
141140  4  0  0  0  0
142141  1  0  0  0  0
143141  4  0  0  0  0
144143  1  0  0  0  0
145143  4  0  0  0  0
146145  1  0  0  0  0
147145  4  0  0  0  0
148147  1  0  0  0  0
149140  4  0  0  0  0
150149  1  0  0  0  0
151 13  1  0  0  0  0
152151  1  0  0  0  0
153151  1  0  0  0  0
154 14  1  0  0  0  0
155154  4  0  0  0  0
156155  1  0  0  0  0
157155  4  0  0  0  0
158157  1  0  0  0  0
159157  4  0  0  0  0
160159  1  0  0  0  0
161159  4  0  0  0  0
162161  1  0  0  0  0
163154  4  0  0  0  0
164163  1  0  0  0  0
165 14  1  0  0  0  0
166165  4  0  0  0  0
167166  1  0  0  0  0
168166  4  0  0  0  0
169168  1  0  0  0  0
170168  4  0  0  0  0
171170  1  0  0  0  0
172170  4  0  0  0  0
173172  1  0  0  0  0
174165  4  0  0  0  0
175174  1  0  0  0  0
 10 57  1  0  0  0  0
 12104  1  0  0  0  0
 15 24  4  0  0  0  0
 22 24  4  0  0  0  0
 25 34  4  0  0  0  0
 32 34  4  0  0  0  0
 42 44  4  0  0  0  0
 53 55  4  0  0  0  0
 67 69  4  0  0  0  0
 78 80  4  0  0  0  0
 89 91  4  0  0  0  0
100102  4  0  0  0  0
114116  4  0  0  0  0
125127  4  0  0  0  0
136138  4  0  0  0  0
147149  4  0  0  0  0
161163  4  0  0  0  0
172174  4  0  0  0  0
M  END
$$$$
FOCQAP

From CSD data. Using bond type 'Any'. No disordered atoms. Largest molecule.
113122  0  0  0  0  0  0  0  0999 V2000
    5.4741    1.8571    3.0876 Pt  0  0  0  0  0  0  0  0  0  0  0  0
    6.0836    0.0803    3.8946 B   0  0  0  0  0  0  0  0  0  0  0  0
    5.5419    0.5052    1.5485 B   0  0  0  0  0  0  0  0  0  0  0  0
    7.3491   -0.5466    3.7691 O   0  0  0  0  0  0  0  0  0  0  0  0
    5.2914   -0.7183    4.7352 O   0  0  0  0  0  0  0  0  0  0  0  0
    6.5670    0.5113    0.5671 O   0  0  0  0  0  0  0  0  0  0  0  0
    4.6797   -0.5758    1.2611 O   0  0  0  0  0  0  0  0  0  0  0  0
    4.6409    3.5387    1.6200 P   0  0  0  0  0  0  0  0  0  0  0  0
    5.7375    2.9001    5.1721 P   0  0  0  0  0  0  0  0  0  0  0  0
    7.3032   -1.6800    4.5604 C   0  0  0  0  0  0  0  0  0  0  0  0
    8.3003   -2.6004    4.8029 C   0  0  0  0  0  0  0  0  0  0  0  0
    9.1323   -2.5480    4.3902 H   0  0  0  0  0  0  0  0  0  0  0  0
    7.9849   -3.6205    5.7133 C   0  0  0  0  0  0  0  0  0  0  0  0
    8.6209   -4.2694    5.9068 H   0  0  0  0  0  0  0  0  0  0  0  0
    6.7519   -3.6863    6.3322 C   0  0  0  0  0  0  0  0  0  0  0  0
    6.5860   -4.3656    6.9470 H   0  0  0  0  0  0  0  0  0  0  0  0
    5.7556   -2.7611    6.0579 C   0  0  0  0  0  0  0  0  0  0  0  0
    4.9202   -2.8073    6.4620 H   0  0  0  0  0  0  0  0  0  0  0  0
    6.0660   -1.7713    5.1560 C   0  0  0  0  0  0  0  0  0  0  0  0
    6.2724   -0.4967   -0.3254 C   0  0  0  0  0  0  0  0  0  0  0  0
    6.9476   -0.8558   -1.4740 C   0  0  0  0  0  0  0  0  0  0  0  0
    7.7237   -0.4188   -1.7442 H   0  0  0  0  0  0  0  0  0  0  0  0
    6.4097   -1.9040   -2.2079 C   0  0  0  0  0  0  0  0  0  0  0  0
    6.8309   -2.1767   -2.9906 H   0  0  0  0  0  0  0  0  0  0  0  0
    5.2653   -2.5492   -1.8016 C   0  0  0  0  0  0  0  0  0  0  0  0
    4.9371   -3.2541   -2.3142 H   0  0  0  0  0  0  0  0  0  0  0  0
    4.5800   -2.1779   -0.6445 C   0  0  0  0  0  0  0  0  0  0  0  0
    3.7972   -2.6016   -0.3744 H   0  0  0  0  0  0  0  0  0  0  0  0
    5.1379   -1.1383    0.0766 C   0  0  0  0  0  0  0  0  0  0  0  0
    5.7780    3.6571    0.1574 C   0  0  0  0  0  0  0  0  0  0  0  0
    5.6651    2.7903   -0.2850 H   0  0  0  0  0  0  0  0  0  0  0  0
    7.2602    3.6802    0.5084 C   0  0  0  0  0  0  0  0  0  0  0  0
    7.4610    4.5032    0.9827 H   0  0  0  0  0  0  0  0  0  0  0  0
    7.4561    2.9400    1.1061 H   0  0  0  0  0  0  0  0  0  0  0  0
    8.1414    3.5816   -0.6998 C   0  0  0  0  0  0  0  0  0  0  0  0
    8.0915    2.6807   -1.0550 H   0  0  0  0  0  0  0  0  0  0  0  0
    9.0614    3.7435   -0.4360 H   0  0  0  0  0  0  0  0  0  0  0  0
    7.7664    4.5555   -1.7803 C   0  0  0  0  0  0  0  0  0  0  0  0
    8.2989    4.3729   -2.5695 H   0  0  0  0  0  0  0  0  0  0  0  0
    7.9762    5.4540   -1.4826 H   0  0  0  0  0  0  0  0  0  0  0  0
    6.3085    4.4873   -2.1462 C   0  0  0  0  0  0  0  0  0  0  0  0
    6.1220    3.6339   -2.5674 H   0  0  0  0  0  0  0  0  0  0  0  0
    6.1041    5.1873   -2.7864 H   0  0  0  0  0  0  0  0  0  0  0  0
    5.4264    4.6480   -0.9274 C   0  0  0  0  0  0  0  0  0  0  0  0
    5.5224    5.5489   -0.5786 H   0  0  0  0  0  0  0  0  0  0  0  0
    4.4989    4.5251   -1.1848 H   0  0  0  0  0  0  0  0  0  0  0  0
    4.3292    5.2786    2.2398 C   0  0  0  0  0  0  0  0  0  0  0  0
    3.8705    5.1533    3.0970 H   0  0  0  0  0  0  0  0  0  0  0  0
    5.5944    5.9920    2.5971 C   0  0  0  0  0  0  0  0  0  0  0  0
    6.1093    6.1467    1.7889 H   0  0  0  0  0  0  0  0  0  0  0  0
    6.1229    5.4247    3.1799 H   0  0  0  0  0  0  0  0  0  0  0  0
    5.3432    7.3373    3.2969 C   0  0  0  0  0  0  0  0  0  0  0  0
    4.9490    7.1754    4.1690 H   0  0  0  0  0  0  0  0  0  0  0  0
    6.1885    7.7926    3.4309 H   0  0  0  0  0  0  0  0  0  0  0  0
    4.4367    8.2101    2.5035 C   0  0  0  0  0  0  0  0  0  0  0  0
    4.8905    8.4901    1.6931 H   0  0  0  0  0  0  0  0  0  0  0  0
    4.2280    9.0063    3.0183 H   0  0  0  0  0  0  0  0  0  0  0  0
    3.1597    7.5114    2.1377 C   0  0  0  0  0  0  0  0  0  0  0  0
    2.6388    8.0884    1.5570 H   0  0  0  0  0  0  0  0  0  0  0  0
    2.6407    7.3567    2.9438 H   0  0  0  0  0  0  0  0  0  0  0  0
    3.3900    6.1783    1.4358 C   0  0  0  0  0  0  0  0  0  0  0  0
    3.7716    6.3390    0.5573 H   0  0  0  0  0  0  0  0  0  0  0  0
    2.5388    5.7279    1.3124 H   0  0  0  0  0  0  0  0  0  0  0  0
    3.0090    3.1299    0.8572 C   0  0  0  0  0  0  0  0  0  0  0  0
    2.8113    3.8774    0.2552 H   0  0  0  0  0  0  0  0  0  0  0  0
    1.8611    3.1092    1.8569 C   0  0  0  0  0  0  0  0  0  0  0  0
    2.0094    2.3934    2.4950 H   0  0  0  0  0  0  0  0  0  0  0  0
    1.8559    3.9456    2.3483 H   0  0  0  0  0  0  0  0  0  0  0  0
    0.5285    2.9157    1.2103 C   0  0  0  0  0  0  0  0  0  0  0  0
   -0.1441    2.8195    1.9037 H   0  0  0  0  0  0  0  0  0  0  0  0
    0.3108    3.7094    0.6977 H   0  0  0  0  0  0  0  0  0  0  0  0
    0.4636    1.7275    0.3084 C   0  0  0  0  0  0  0  0  0  0  0  0
   -0.3763    1.7409   -0.1765 H   0  0  0  0  0  0  0  0  0  0  0  0
    0.4861    0.9191    0.8444 H   0  0  0  0  0  0  0  0  0  0  0  0
    1.6090    1.7019   -0.6807 C   0  0  0  0  0  0  0  0  0  0  0  0
    1.4758    2.4056   -1.3358 H   0  0  0  0  0  0  0  0  0  0  0  0
    1.6016    0.8534   -1.1486 H   0  0  0  0  0  0  0  0  0  0  0  0
    2.9584    1.8918   -0.0170 C   0  0  0  0  0  0  0  0  0  0  0  0
    3.6410    1.9588   -0.7019 H   0  0  0  0  0  0  0  0  0  0  0  0
    3.1559    1.1127    0.5254 H   0  0  0  0  0  0  0  0  0  0  0  0
    5.8250    1.7433    6.6024 C   0  0  0  0  0  0  0  0  0  0  0  0
    4.7540    1.5023    7.4532 C   0  0  0  0  0  0  0  0  0  0  0  0
    3.9666    1.9868    7.3511 H   0  0  0  0  0  0  0  0  0  0  0  0
    4.8442    0.5466    8.4572 C   0  0  0  0  0  0  0  0  0  0  0  0
    4.1271    0.4042    9.0336 H   0  0  0  0  0  0  0  0  0  0  0  0
    5.9918   -0.1850    8.5933 C   0  0  0  0  0  0  0  0  0  0  0  0
    6.0413   -0.8437    9.2484 H   0  0  0  0  0  0  0  0  0  0  0  0
    7.0721    0.0402    7.7744 C   0  0  0  0  0  0  0  0  0  0  0  0
    7.8554   -0.4468    7.8914 H   0  0  0  0  0  0  0  0  0  0  0  0
    6.9895    0.9995    6.7768 C   0  0  0  0  0  0  0  0  0  0  0  0
    7.7183    1.1468    6.2174 H   0  0  0  0  0  0  0  0  0  0  0  0
    7.2934    3.8239    5.4091 C   0  0  0  0  0  0  0  0  0  0  0  0
    7.6863    4.2938    6.6747 C   0  0  0  0  0  0  0  0  0  0  0  0
    7.1554    4.1185    7.4170 H   0  0  0  0  0  0  0  0  0  0  0  0
    8.8591    5.0181    6.8236 C   0  0  0  0  0  0  0  0  0  0  0  0
    9.1040    5.3432    7.6595 H   0  0  0  0  0  0  0  0  0  0  0  0
    9.6609    5.2531    5.7282 C   0  0  0  0  0  0  0  0  0  0  0  0
   10.4450    5.7449    5.8260 H   0  0  0  0  0  0  0  0  0  0  0  0
    9.3075    4.7625    4.4860 C   0  0  0  0  0  0  0  0  0  0  0  0
    9.8619    4.9098    3.7564 H   0  0  0  0  0  0  0  0  0  0  0  0
    8.1355    4.0564    4.3264 C   0  0  0  0  0  0  0  0  0  0  0  0
    7.9057    3.7313    3.4862 H   0  0  0  0  0  0  0  0  0  0  0  0
    4.3815    4.0284    5.6707 C   0  0  0  0  0  0  0  0  0  0  0  0
    3.0921    3.5974    5.4261 C   0  0  0  0  0  0  0  0  0  0  0  0
    2.9475    2.7769    5.0135 H   0  0  0  0  0  0  0  0  0  0  0  0
    2.0070    4.3863    5.7920 C   0  0  0  0  0  0  0  0  0  0  0  0
    1.1432    4.0832    5.6324 H   0  0  0  0  0  0  0  0  0  0  0  0
    2.2005    5.6134    6.3918 C   0  0  0  0  0  0  0  0  0  0  0  0
    1.4721    6.1369    6.6428 H   0  0  0  0  0  0  0  0  0  0  0  0
    3.4781    6.0505    6.6151 C   0  0  0  0  0  0  0  0  0  0  0  0
    3.6135    6.8807    7.0086 H   0  0  0  0  0  0  0  0  0  0  0  0
    4.5766    5.2701    6.2620 C   0  0  0  0  0  0  0  0  0  0  0  0
    5.4395    5.5806    6.4195 H   0  0  0  0  0  0  0  0  0  0  0  0
  1  2  1  0  0  0  0
  2  4  1  0  0  0  0
  3  1  1  0  0  0  0
  4 10  1  0  0  0  0
  5  2  1  0  0  0  0
  6  3  1  0  0  0  0
  7  3  1  0  0  0  0
  8  1  1  0  0  0  0
  9  1  1  0  0  0  0
 10 11  4  0  0  0  0
 11 12  1  0  0  0  0
 13 11  4  0  0  0  0
 14 13  1  0  0  0  0
 15 13  4  0  0  0  0
 16 15  1  0  0  0  0
 17 15  4  0  0  0  0
 18 17  1  0  0  0  0
 19  5  1  0  0  0  0
 20  6  1  0  0  0  0
 21 20  4  0  0  0  0
 22 21  1  0  0  0  0
 23 21  4  0  0  0  0
 24 23  1  0  0  0  0
 25 23  4  0  0  0  0
 26 25  1  0  0  0  0
 27 25  4  0  0  0  0
 28 27  1  0  0  0  0
 29  7  1  0  0  0  0
 30  8  1  0  0  0  0
 31 30  1  0  0  0  0
 32 30  1  0  0  0  0
 33 32  1  0  0  0  0
 34 32  1  0  0  0  0
 35 32  1  0  0  0  0
 36 35  1  0  0  0  0
 37 35  1  0  0  0  0
 38 35  1  0  0  0  0
 39 38  1  0  0  0  0
 40 38  1  0  0  0  0
 41 38  1  0  0  0  0
 42 41  1  0  0  0  0
 43 41  1  0  0  0  0
 44 30  1  0  0  0  0
 45 44  1  0  0  0  0
 46 44  1  0  0  0  0
 47  8  1  0  0  0  0
 48 47  1  0  0  0  0
 49 47  1  0  0  0  0
 50 49  1  0  0  0  0
 51 49  1  0  0  0  0
 52 49  1  0  0  0  0
 53 52  1  0  0  0  0
 54 52  1  0  0  0  0
 55 52  1  0  0  0  0
 56 55  1  0  0  0  0
 57 55  1  0  0  0  0
 58 55  1  0  0  0  0
 59 58  1  0  0  0  0
 60 58  1  0  0  0  0
 61 47  1  0  0  0  0
 62 61  1  0  0  0  0
 63 61  1  0  0  0  0
 64  8  1  0  0  0  0
 65 64  1  0  0  0  0
 66 64  1  0  0  0  0
 67 66  1  0  0  0  0
 68 66  1  0  0  0  0
 69 66  1  0  0  0  0
 70 69  1  0  0  0  0
 71 69  1  0  0  0  0
 72 69  1  0  0  0  0
 73 72  1  0  0  0  0
 74 72  1  0  0  0  0
 75 72  1  0  0  0  0
 76 75  1  0  0  0  0
 77 75  1  0  0  0  0
 78 64  1  0  0  0  0
 79 78  1  0  0  0  0
 80 78  1  0  0  0  0
 81  9  1  0  0  0  0
 82 81  4  0  0  0  0
 83 82  1  0  0  0  0
 84 82  4  0  0  0  0
 85 84  1  0  0  0  0
 86 84  4  0  0  0  0
 87 86  1  0  0  0  0
 88 86  4  0  0  0  0
 89 88  1  0  0  0  0
 90 81  4  0  0  0  0
 91 90  1  0  0  0  0
 92  9  1  0  0  0  0
 93 92  4  0  0  0  0
 94 93  1  0  0  0  0
 95 93  4  0  0  0  0
 96 95  1  0  0  0  0
 97 95  4  0  0  0  0
 98 97  1  0  0  0  0
 99 97  4  0  0  0  0
100 99  1  0  0  0  0
101 92  4  0  0  0  0
102101  1  0  0  0  0
103  9  1  0  0  0  0
104103  4  0  0  0  0
105104  1  0  0  0  0
106104  4  0  0  0  0
107106  1  0  0  0  0
108106  4  0  0  0  0
109108  1  0  0  0  0
110108  4  0  0  0  0
111110  1  0  0  0  0
112103  4  0  0  0  0
113112  1  0  0  0  0
 10 19  4  0  0  0  0
 17 19  4  0  0  0  0
 20 29  4  0  0  0  0
 27 29  4  0  0  0  0
 41 44  1  0  0  0  0
 58 61  1  0  0  0  0
 75 78  1  0  0  0  0
 88 90  4  0  0  0  0
 99101  4  0  0  0  0
110112  4  0  0  0  0
M  END
$$$$
FODFUZ

From CSD data. Using bond type 'Any'. No disordered atoms. Largest molecule.
 83108  0  0  0  0  0  0  0  0999 V2000
    0.8464    2.7368    4.5515 Ir  0  0  0  0  0  0  0  0  0  0  0  0
    1.8363    4.2390    3.0553 P   0  0  0  0  0  0  0  0  0  0  0  0
    1.2530    3.9439    6.4809 P   0  0  0  0  0  0  0  0  0  0  0  0
    0.9869    0.4389    4.4467 B   0  0  0  0  0  0  0  0  0  0  0  0
    0.2261    0.9011    5.6550 C   0  0  0  0  0  0  0  0  0  0  0  0
   -1.0765    1.8566    5.5757 B   0  0  0  0  0  0  0  0  0  0  0  0
   -1.6054    2.9664    4.0175 B   0  0  0  0  0  0  0  0  0  0  0  0
   -0.4943    2.4045    2.6688 B   0  0  0  0  0  0  0  0  0  0  0  0
    0.5558    1.0414    2.9353 C   0  0  0  0  0  0  0  0  0  0  0  0
   -2.1963    1.7687    2.8234 B   0  0  0  0  0  0  0  0  0  0  0  0
   -0.9533    0.7479    2.1705 B   0  0  0  0  0  0  0  0  0  0  0  0
   -0.3969   -0.4202    3.3360 B   0  0  0  0  0  0  0  0  0  0  0  0
   -1.2350    0.0442    5.0366 B   0  0  0  0  0  0  0  0  0  0  0  0
   -2.4263    1.4287    4.6013 B   0  0  0  0  0  0  0  0  0  0  0  0
   -2.0442    0.0797    3.4235 B   0  0  0  0  0  0  0  0  0  0  0  0
    3.5345    2.3180    2.0118 C   0  0  0  0  0  0  0  0  0  0  0  0
    4.0402    1.5771    0.9479 C   0  0  0  0  0  0  0  0  0  0  0  0
    3.6478    1.7160   -0.3458 C   0  0  0  0  0  0  0  0  0  0  0  0
    2.6465    2.6020   -0.6774 C   0  0  0  0  0  0  0  0  0  0  0  0
    2.1177    3.3997    0.3824 C   0  0  0  0  0  0  0  0  0  0  0  0
    2.5561    3.2476    1.6904 C   0  0  0  0  0  0  0  0  0  0  0  0
    1.4269    6.3614    1.3080 C   0  0  0  0  0  0  0  0  0  0  0  0
    0.7188    7.3350    0.6367 C   0  0  0  0  0  0  0  0  0  0  0  0
   -0.5756    7.5678    0.9988 C   0  0  0  0  0  0  0  0  0  0  0  0
   -1.1654    6.8155    1.9365 C   0  0  0  0  0  0  0  0  0  0  0  0
   -0.4540    5.7968    2.5448 C   0  0  0  0  0  0  0  0  0  0  0  0
    0.8416    5.5466    2.2396 C   0  0  0  0  0  0  0  0  0  0  0  0
    2.8942    6.4935    4.2352 C   0  0  0  0  0  0  0  0  0  0  0  0
    3.9083    7.4003    4.5789 C   0  0  0  0  0  0  0  0  0  0  0  0
    5.2042    7.0937    4.3531 C   0  0  0  0  0  0  0  0  0  0  0  0
    5.5656    5.9114    3.7653 C   0  0  0  0  0  0  0  0  0  0  0  0
    4.5448    4.9880    3.4256 C   0  0  0  0  0  0  0  0  0  0  0  0
    3.2245    5.2735    3.5985 C   0  0  0  0  0  0  0  0  0  0  0  0
   -1.0240    5.4892    6.4463 C   0  0  0  0  0  0  0  0  0  0  0  0
   -1.7559    6.6846    6.5053 C   0  0  0  0  0  0  0  0  0  0  0  0
   -1.1774    7.8720    6.6497 C   0  0  0  0  0  0  0  0  0  0  0  0
    0.1345    7.8653    6.8694 C   0  0  0  0  0  0  0  0  0  0  0  0
    0.9619    6.7645    6.8084 C   0  0  0  0  0  0  0  0  0  0  0  0
    0.3685    5.5343    6.6009 C   0  0  0  0  0  0  0  0  0  0  0  0
    3.1529    5.0632    8.2038 C   0  0  0  0  0  0  0  0  0  0  0  0
    4.4539    5.2401    8.6636 C   0  0  0  0  0  0  0  0  0  0  0  0
    5.5513    4.6859    8.0594 C   0  0  0  0  0  0  0  0  0  0  0  0
    5.4170    3.9141    6.8755 C   0  0  0  0  0  0  0  0  0  0  0  0
    4.1032    3.7608    6.3385 C   0  0  0  0  0  0  0  0  0  0  0  0
    2.9752    4.3306    7.0179 C   0  0  0  0  0  0  0  0  0  0  0  0
   -0.2879    3.2922    8.8202 C   0  0  0  0  0  0  0  0  0  0  0  0
   -0.5475    2.4480    9.9492 C   0  0  0  0  0  0  0  0  0  0  0  0
    0.2756    1.4005   10.2197 C   0  0  0  0  0  0  0  0  0  0  0  0
    1.3883    1.0939    9.4203 C   0  0  0  0  0  0  0  0  0  0  0  0
    1.6416    1.9190    8.2994 C   0  0  0  0  0  0  0  0  0  0  0  0
    0.7999    3.0051    7.9882 C   0  0  0  0  0  0  0  0  0  0  0  0
    2.1635   -0.3451    4.6522 O   0  0  0  0  0  0  0  0  0  0  0  0
    2.7997   -0.5170    3.6127 C   0  0  0  0  0  0  0  0  0  0  0  0
    3.8252    2.1921    2.9170 H   0  0  0  0  0  0  0  0  0  0  0  0
    4.7214    0.9349    1.1595 H   0  0  0  0  0  0  0  0  0  0  0  0
    4.0496    1.1713   -1.0273 H   0  0  0  0  0  0  0  0  0  0  0  0
    2.3395    2.6899   -1.5826 H   0  0  0  0  0  0  0  0  0  0  0  0
    1.4363    4.0427    0.1749 H   0  0  0  0  0  0  0  0  0  0  0  0
    2.3611    6.2604    1.1127 H   0  0  0  0  0  0  0  0  0  0  0  0
    1.1238    7.8449   -0.0692 H   0  0  0  0  0  0  0  0  0  0  0  0
   -1.0658    8.2817    0.5818 H   0  0  0  0  0  0  0  0  0  0  0  0
   -2.0807    6.9707    2.1786 H   0  0  0  0  0  0  0  0  0  0  0  0
   -0.8872    5.2722    3.2221 H   0  0  0  0  0  0  0  0  0  0  0  0
    1.9773    6.6975    4.4325 H   0  0  0  0  0  0  0  0  0  0  0  0
    3.6754    8.2449    4.9715 H   0  0  0  0  0  0  0  0  0  0  0  0
    5.8884    7.7224    4.5952 H   0  0  0  0  0  0  0  0  0  0  0  0
    6.4921    5.7023    3.6229 H   0  0  0  0  0  0  0  0  0  0  0  0
    4.8026    4.1470    3.0411 H   0  0  0  0  0  0  0  0  0  0  0  0
   -1.4644    4.6471    6.3141 H   0  0  0  0  0  0  0  0  0  0  0  0
   -2.7122    6.6536    6.4199 H   0  0  0  0  0  0  0  0  0  0  0  0
   -1.6739    8.6919    6.5928 H   0  0  0  0  0  0  0  0  0  0  0  0
    0.5388    8.7091    7.0871 H   0  0  0  0  0  0  0  0  0  0  0  0
    1.9129    6.8407    6.9101 H   0  0  0  0  0  0  0  0  0  0  0  0
    2.4034    5.4275    8.6798 H   0  0  0  0  0  0  0  0  0  0  0  0
    4.5896    5.7796    9.4447 H   0  0  0  0  0  0  0  0  0  0  0  0
    6.4207    4.8213    8.4418 H   0  0  0  0  0  0  0  0  0  0  0  0
    6.1794    3.5135    6.4504 H   0  0  0  0  0  0  0  0  0  0  0  0
    3.9749    3.2734    5.5228 H   0  0  0  0  0  0  0  0  0  0  0  0
   -0.8545    4.0448    8.6371 H   0  0  0  0  0  0  0  0  0  0  0  0
   -1.3033    2.6224   10.5147 H   0  0  0  0  0  0  0  0  0  0  0  0
    0.0903    0.8513   10.9846 H   0  0  0  0  0  0  0  0  0  0  0  0
    1.9579    0.3491    9.6257 H   0  0  0  0  0  0  0  0  0  0  0  0
    2.4008    1.7361    7.7421 H   0  0  0  0  0  0  0  0  0  0  0  0
  1  2  1  0  0  0  0
  2 21  1  0  0  0  0
  3  1  1  0  0  0  0
  4  1  1  0  0  0  0
  5  1  1  0  0  0  0
  6  1  1  0  0  0  0
  7  1  1  0  0  0  0
  8  1  1  0  0  0  0
  9  1  1  0  0  0  0
 10  7  1  0  0  0  0
 11  8  1  0  0  0  0
 12  4  1  0  0  0  0
 13  5  1  0  0  0  0
 14  6  1  0  0  0  0
 15 10  1  0  0  0  0
 16 17  4  0  0  0  0
 17 18  4  0  0  0  0
 18 19  4  0  0  0  0
 19 20  4  0  0  0  0
 20 21  4  0  0  0  0
 21 16  4  0  0  0  0
 22 23  4  0  0  0  0
 23 24  4  0  0  0  0
 24 25  4  0  0  0  0
 25 26  4  0  0  0  0
 26 27  4  0  0  0  0
 27  2  1  0  0  0  0
 28 29  4  0  0  0  0
 29 30  4  0  0  0  0
 30 31  4  0  0  0  0
 31 32  4  0  0  0  0
 32 33  4  0  0  0  0
 33  2  1  0  0  0  0
 34 35  4  0  0  0  0
 35 36  4  0  0  0  0
 36 37  4  0  0  0  0
 37 38  4  0  0  0  0
 38 39  4  0  0  0  0
 39  3  1  0  0  0  0
 40 41  4  0  0  0  0
 41 42  4  0  0  0  0
 42 43  4  0  0  0  0
 43 44  4  0  0  0  0
 44 45  4  0  0  0  0
 45  3  1  0  0  0  0
 46 47  4  0  0  0  0
 47 48  4  0  0  0  0
 48 49  4  0  0  0  0
 49 50  4  0  0  0  0
 50 51  4  0  0  0  0
 51  3  1  0  0  0  0
 52  4  1  0  0  0  0
 53 52  1  0  0  0  0
 54 16  1  0  0  0  0
 55 17  1  0  0  0  0
 56 18  1  0  0  0  0
 57 19  1  0  0  0  0
 58 20  1  0  0  0  0
 59 22  1  0  0  0  0
 60 23  1  0  0  0  0
 61 24  1  0  0  0  0
 62 25  1  0  0  0  0
 63 26  1  0  0  0  0
 64 28  1  0  0  0  0
 65 29  1  0  0  0  0
 66 30  1  0  0  0  0
 67 31  1  0  0  0  0
 68 32  1  0  0  0  0
 69 34  1  0  0  0  0
 70 35  1  0  0  0  0
 71 36  1  0  0  0  0
 72 37  1  0  0  0  0
 73 38  1  0  0  0  0
 74 40  1  0  0  0  0
 75 41  1  0  0  0  0
 76 42  1  0  0  0  0
 77 43  1  0  0  0  0
 78 44  1  0  0  0  0
 79 46  1  0  0  0  0
 80 47  1  0  0  0  0
 81 48  1  0  0  0  0
 82 49  1  0  0  0  0
 83 50  1  0  0  0  0
  4  5  1  0  0  0  0
  4  9  1  0  0  0  0
  5  6  1  0  0  0  0
  6  7  1  0  0  0  0
  6 13  1  0  0  0  0
  7  8  1  0  0  0  0
  7 14  1  0  0  0  0
  8  9  1  0  0  0  0
  8 10  1  0  0  0  0
  9 11  1  0  0  0  0
  9 12  1  0  0  0  0
 10 11  1  0  0  0  0
 10 14  1  0  0  0  0
 11 12  1  0  0  0  0
 11 15  1  0  0  0  0
 12 13  1  0  0  0  0
 12 15  1  0  0  0  0
 13 14  1  0  0  0  0
 13 15  1  0  0  0  0
 14 15  1  0  0  0  0
 22 27  4  0  0  0  0
 28 33  4  0  0  0  0
 34 39  4  0  0  0  0
 40 45  4  0  0  0  0
 46 51  4  0  0  0  0
M  END
$$$$
FODKUE

From CSD data. Using bond type 'Any'. Matching problem. No disordered atoms. Largest molecule.
 97122  0  0  0  0  0  0  0  0999 V2000
   11.6959    2.3296    3.5801 Ir  0  0  0  0  0  0  0  0  0  0  0  0
   14.0705    2.4363    4.8249 Ag  0  0  0  0  0  0  0  0  0  0  0  0
   10.1540    1.9522    5.3037 Cl  0  0  0  0  0  0  0  0  0  0  0  0
   11.1424    4.5990    3.7319 P   0  0  0  0  0  0  0  0  0  0  0  0
   11.8496    0.0123    3.2503 P   0  0  0  0  0  0  0  0  0  0  0  0
   13.3145    2.8383    1.1492 O   0  0  0  0  0  0  0  0  0  0  0  0
   12.7388    2.6445    2.1108 C   0  0  0  0  0  0  0  0  0  0  0  0
    9.4736    4.6294    3.0218 C   0  0  0  0  0  0  0  0  0  0  0  0
    9.3074    4.2467    1.6830 C   0  0  0  0  0  0  0  0  0  0  0  0
    8.0599    4.1335    1.1372 C   0  0  0  0  0  0  0  0  0  0  0  0
    6.9467    4.4007    1.8786 C   0  0  0  0  0  0  0  0  0  0  0  0
    7.0823    4.8124    3.1795 C   0  0  0  0  0  0  0  0  0  0  0  0
    8.3475    4.9123    3.7496 C   0  0  0  0  0  0  0  0  0  0  0  0
   12.1400    5.7525    2.7264 C   0  0  0  0  0  0  0  0  0  0  0  0
   13.5128    5.7465    2.9193 C   0  0  0  0  0  0  0  0  0  0  0  0
   14.3190    6.6384    2.2334 C   0  0  0  0  0  0  0  0  0  0  0  0
   13.7386    7.5484    1.3720 C   0  0  0  0  0  0  0  0  0  0  0  0
   12.4046    7.5376    1.1841 C   0  0  0  0  0  0  0  0  0  0  0  0
   11.5682    6.6565    1.8594 C   0  0  0  0  0  0  0  0  0  0  0  0
   11.0448    5.4720    5.3246 C   0  0  0  0  0  0  0  0  0  0  0  0
   10.5731    6.7720    5.3400 C   0  0  0  0  0  0  0  0  0  0  0  0
   10.5696    7.5027    6.5306 C   0  0  0  0  0  0  0  0  0  0  0  0
   11.0146    6.9273    7.6877 C   0  0  0  0  0  0  0  0  0  0  0  0
   11.4569    5.6670    7.6646 C   0  0  0  0  0  0  0  0  0  0  0  0
   11.4809    4.9159    6.4935 C   0  0  0  0  0  0  0  0  0  0  0  0
   10.1893   -0.6837    2.9600 C   0  0  0  0  0  0  0  0  0  0  0  0
    9.8764   -1.9825    3.2543 C   0  0  0  0  0  0  0  0  0  0  0  0
    8.6282   -2.4929    2.9686 C   0  0  0  0  0  0  0  0  0  0  0  0
    7.6890   -1.7008    2.3576 C   0  0  0  0  0  0  0  0  0  0  0  0
    7.9893   -0.4153    2.0418 C   0  0  0  0  0  0  0  0  0  0  0  0
    9.2290    0.1119    2.3562 C   0  0  0  0  0  0  0  0  0  0  0  0
   12.5712   -0.9870    4.5884 C   0  0  0  0  0  0  0  0  0  0  0  0
   13.1089   -2.2353    4.3236 C   0  0  0  0  0  0  0  0  0  0  0  0
   13.5967   -3.0105    5.3597 C   0  0  0  0  0  0  0  0  0  0  0  0
   13.5690   -2.5338    6.6481 C   0  0  0  0  0  0  0  0  0  0  0  0
   13.0295   -1.3144    6.9065 C   0  0  0  0  0  0  0  0  0  0  0  0
   12.5561   -0.5393    5.8830 C   0  0  0  0  0  0  0  0  0  0  0  0
   12.7778   -0.4839    1.7589 C   0  0  0  0  0  0  0  0  0  0  0  0
   14.1706   -0.3960    1.7818 C   0  0  0  0  0  0  0  0  0  0  0  0
   14.9035   -0.7222    0.6505 C   0  0  0  0  0  0  0  0  0  0  0  0
   14.2671   -1.1411   -0.4869 C   0  0  0  0  0  0  0  0  0  0  0  0
   12.9237   -1.2121   -0.5137 C   0  0  0  0  0  0  0  0  0  0  0  0
   12.1523   -0.8968    0.6022 C   0  0  0  0  0  0  0  0  0  0  0  0
   16.1927    3.8386    9.4933 C   0  0  0  0  0  0  0  0  0  0  0  0
   17.5657    3.8085    8.4683 B   0  0  0  0  0  0  0  0  0  0  0  0
   17.3991    2.4074    7.4503 B   0  0  0  0  0  0  0  0  0  0  0  0
   16.9795    3.9867    6.8485 B   0  0  0  0  0  0  0  0  0  0  0  0
   16.2735    4.8858    8.1647 B   0  0  0  0  0  0  0  0  0  0  0  0
   14.5560    2.7107    7.6325 B   0  0  0  0  0  0  0  0  0  0  0  0
   15.1964    2.5230    9.2607 B   0  0  0  0  0  0  0  0  0  0  0  0
   15.9316    2.6229    6.5257 B   0  0  0  0  0  0  0  0  0  0  0  0
   16.9759    2.3617    9.1404 B   0  0  0  0  0  0  0  0  0  0  0  0
   15.9003    1.5756    7.9498 B   0  0  0  0  0  0  0  0  0  0  0  0
   15.2277    4.1841    6.9485 B   0  0  0  0  0  0  0  0  0  0  0  0
   14.7826    4.1275    8.6417 B   0  0  0  0  0  0  0  0  0  0  0  0
   10.0979    4.1203    1.1295 H   0  0  0  0  0  0  0  0  0  0  0  0
    7.9717    3.8278    0.1991 H   0  0  0  0  0  0  0  0  0  0  0  0
    6.0589    4.2767    1.4942 H   0  0  0  0  0  0  0  0  0  0  0  0
    6.2780    5.0471    3.6664 H   0  0  0  0  0  0  0  0  0  0  0  0
    8.4485    5.1843    4.6816 H   0  0  0  0  0  0  0  0  0  0  0  0
   13.8855    5.1350    3.5856 H   0  0  0  0  0  0  0  0  0  0  0  0
   15.3207    6.5734    2.3221 H   0  0  0  0  0  0  0  0  0  0  0  0
   14.2940    8.1551    0.8949 H   0  0  0  0  0  0  0  0  0  0  0  0
   12.0820    8.2032    0.5677 H   0  0  0  0  0  0  0  0  0  0  0  0
   10.5875    6.6673    1.7228 H   0  0  0  0  0  0  0  0  0  0  0  0
   10.2252    7.1716    4.5042 H   0  0  0  0  0  0  0  0  0  0  0  0
   10.2472    8.4211    6.5542 H   0  0  0  0  0  0  0  0  0  0  0  0
   11.0484    7.4280    8.4939 H   0  0  0  0  0  0  0  0  0  0  0  0
   11.7697    5.2842    8.5077 H   0  0  0  0  0  0  0  0  0  0  0  0
   11.8057    3.9963    6.4872 H   0  0  0  0  0  0  0  0  0  0  0  0
   10.5434   -2.5398    3.6625 H   0  0  0  0  0  0  0  0  0  0  0  0
    8.4018   -3.4317    3.1717 H   0  0  0  0  0  0  0  0  0  0  0  0
    6.8142   -2.0138    2.1821 H   0  0  0  0  0  0  0  0  0  0  0  0
    7.3152    0.1180    1.5789 H   0  0  0  0  0  0  0  0  0  0  0  0
    9.4244    1.0388    2.1250 H   0  0  0  0  0  0  0  0  0  0  0  0
   13.1710   -2.5434    3.4082 H   0  0  0  0  0  0  0  0  0  0  0  0
   13.9466   -3.9000    5.1921 H   0  0  0  0  0  0  0  0  0  0  0  0
   13.9312   -3.0682    7.3723 H   0  0  0  0  0  0  0  0  0  0  0  0
   12.9670   -0.9967    7.8197 H   0  0  0  0  0  0  0  0  0  0  0  0
   12.1983    0.3647    6.0614 H   0  0  0  0  0  0  0  0  0  0  0  0
   14.6251   -0.0722    2.5941 H   0  0  0  0  0  0  0  0  0  0  0  0
   15.9148   -0.6945    0.6781 H   0  0  0  0  0  0  0  0  0  0  0  0
   14.7770   -1.3566   -1.2734 H   0  0  0  0  0  0  0  0  0  0  0  0
   12.4790   -1.5118   -1.3522 H   0  0  0  0  0  0  0  0  0  0  0  0
   11.1800   -0.9365    0.5815 H   0  0  0  0  0  0  0  0  0  0  0  0
   16.2721    4.1997   10.3705 H   0  0  0  0  0  0  0  0  0  0  0  0
   18.5451    4.1648    8.7403 H   0  0  0  0  0  0  0  0  0  0  0  0
   18.2389    1.8561    7.0687 H   0  0  0  0  0  0  0  0  0  0  0  0
   17.5553    4.4561    6.0713 H   0  0  0  0  0  0  0  0  0  0  0  0
   16.3966    5.9535    8.2357 H   0  0  0  0  0  0  0  0  0  0  0  0
   13.5753    2.3532    7.3624 H   0  0  0  0  0  0  0  0  0  0  0  0
   14.6230    2.0475   10.0373 H   0  0  0  0  0  0  0  0  0  0  0  0
   15.8992    2.2870    5.3222 H   0  0  0  0  0  0  0  0  0  0  0  0
   17.5380    1.7731    9.8442 H   0  0  0  0  0  0  0  0  0  0  0  0
   15.7799    0.5092    7.8789 H   0  0  0  0  0  0  0  0  0  0  0  0
   14.6658    4.7715    6.2428 H   0  0  0  0  0  0  0  0  0  0  0  0
   13.9406    4.6812    9.0241 H   0  0  0  0  0  0  0  0  0  0  0  0
  1  2  1  0  0  0  0
  2 51  1  0  0  0  0
  3  1  1  0  0  0  0
  4  1  1  0  0  0  0
  5  1  1  0  0  0  0
  6  7  3  0  0  0  0
  7  1  1  0  0  0  0
  8  4  1  0  0  0  0
  9  8  4  0  0  0  0
 10  9  4  0  0  0  0
 11 10  4  0  0  0  0
 12 11  4  0  0  0  0
 13  8  4  0  0  0  0
 14  4  1  0  0  0  0
 15 14  4  0  0  0  0
 16 15  4  0  0  0  0
 17 16  4  0  0  0  0
 18 17  4  0  0  0  0
 19 14  4  0  0  0  0
 20  4  1  0  0  0  0
 21 20  4  0  0  0  0
 22 21  4  0  0  0  0
 23 22  4  0  0  0  0
 24 23  4  0  0  0  0
 25 20  4  0  0  0  0
 26  5  1  0  0  0  0
 27 26  4  0  0  0  0
 28 27  4  0  0  0  0
 29 28  4  0  0  0  0
 30 29  4  0  0  0  0
 31 26  4  0  0  0  0
 32  5  1  0  0  0  0
 33 32  4  0  0  0  0
 34 33  4  0  0  0  0
 35 34  4  0  0  0  0
 36 35  4  0  0  0  0
 37 32  4  0  0  0  0
 38  5  1  0  0  0  0
 39 38  4  0  0  0  0
 40 39  4  0  0  0  0
 41 40  4  0  0  0  0
 42 41  4  0  0  0  0
 43 38  4  0  0  0  0
 44 45  1  0  0  0  0
 45 46  1  0  0  0  0
 46 47  1  0  0  0  0
 47 45  1  0  0  0  0
 48 44  1  0  0  0  0
 49 50  1  0  0  0  0
 50 44  1  0  0  0  0
 51 46  1  0  0  0  0
 52 44  1  0  0  0  0
 53 46  1  0  0  0  0
 54 47  1  0  0  0  0
 55 44  1  0  0  0  0
 56  9  1  0  0  0  0
 57 10  1  0  0  0  0
 58 11  1  0  0  0  0
 59 12  1  0  0  0  0
 60 13  1  0  0  0  0
 61 15  1  0  0  0  0
 62 16  1  0  0  0  0
 63 17  1  0  0  0  0
 64 18  1  0  0  0  0
 65 19  1  0  0  0  0
 66 21  1  0  0  0  0
 67 22  1  0  0  0  0
 68 23  1  0  0  0  0
 69 24  1  0  0  0  0
 70 25  1  0  0  0  0
 71 27  1  0  0  0  0
 72 28  1  0  0  0  0
 73 29  1  0  0  0  0
 74 30  1  0  0  0  0
 75 31  1  0  0  0  0
 76 33  1  0  0  0  0
 77 34  1  0  0  0  0
 78 35  1  0  0  0  0
 79 36  1  0  0  0  0
 80 37  1  0  0  0  0
 81 39  1  0  0  0  0
 82 40  1  0  0  0  0
 83 41  1  0  0  0  0
 84 42  1  0  0  0  0
 85 43  1  0  0  0  0
 86 44  1  0  0  0  0
 87 45  1  0  0  0  0
 88 46  1  0  0  0  0
 89 47  1  0  0  0  0
 90 48  1  0  0  0  0
 91 49  1  0  0  0  0
 92 50  1  0  0  0  0
 93  2  1  0  0  0  0
 94 52  1  0  0  0  0
 95 53  1  0  0  0  0
 96 54  1  0  0  0  0
 97 55  1  0  0  0  0
 12 13  4  0  0  0  0
 18 19  4  0  0  0  0
 24 25  4  0  0  0  0
 30 31  4  0  0  0  0
 36 37  4  0  0  0  0
 42 43  4  0  0  0  0
 45 48  1  0  0  0  0
 45 52  1  0  0  0  0
 46 52  1  0  0  0  0
 47 48  1  0  0  0  0
 47 51  1  0  0  0  0
 48 54  1  0  0  0  0
 48 55  1  0  0  0  0
 49 51  1  0  0  0  0
 49 53  1  0  0  0  0
 49 54  1  0  0  0  0
 49 55  1  0  0  0  0
 50 52  1  0  0  0  0
 50 53  1  0  0  0  0
 50 55  1  0  0  0  0
 51 53  1  0  0  0  0
 51 54  1  0  0  0  0
 51 93  1  0  0  0  0
 52 53  1  0  0  0  0
 54 55  1  0  0  0  0
M  END
$$$$
FODSUM

From CSD data. Using bond type 'Any'. Matching problem. No disordered atoms. Largest molecule.
 81101  0  0  0  0  0  0  0  0999 V2000
    6.2063    2.6738    3.2467 Pt  0  0  0  0  0  0  0  0  0  0  0  0
    4.8632    3.8210    0.9446 W   0  0  0  0  0  0  0  0  0  0  0  0
    3.6612    2.2554    1.1677 C   0  0  0  0  0  0  0  0  0  0  0  0
    2.9375    1.3192    1.2616 O   0  0  0  0  0  0  0  0  0  0  0  0
    6.1669    3.1543   -0.3065 C   0  0  0  0  0  0  0  0  0  0  0  0
    6.9440    2.7926   -1.1073 O   0  0  0  0  0  0  0  0  0  0  0  0
    3.8877    3.7466   -0.7799 C   0  0  0  0  0  0  0  0  0  0  0  0
    3.3687    3.7271   -1.7996 O   0  0  0  0  0  0  0  0  0  0  0  0
    6.8180    0.4131    3.0278 P   0  0  0  0  0  0  0  0  0  0  0  0
    6.5664   -0.2287    1.3095 C   0  0  0  0  0  0  0  0  0  0  0  0
    6.9008   -1.7235    1.0948 C   0  0  0  0  0  0  0  0  0  0  0  0
    8.6173    0.0390    3.3072 C   0  0  0  0  0  0  0  0  0  0  0  0
    9.5488    0.9522    2.5732 C   0  0  0  0  0  0  0  0  0  0  0  0
    5.9166   -0.8263    4.0454 C   0  0  0  0  0  0  0  0  0  0  0  0
    4.4223   -0.8440    3.7159 C   0  0  0  0  0  0  0  0  0  0  0  0
    6.6890    3.0799    5.4175 P   0  0  0  0  0  0  0  0  0  0  0  0
    5.2257    3.2607    6.5101 C   0  0  0  0  0  0  0  0  0  0  0  0
    4.3061    2.0905    6.5914 C   0  0  0  0  0  0  0  0  0  0  0  0
    7.6995    4.5143    5.7490 C   0  0  0  0  0  0  0  0  0  0  0  0
    9.0606    4.4664    4.9587 C   0  0  0  0  0  0  0  0  0  0  0  0
    7.6229    1.7944    6.2933 C   0  0  0  0  0  0  0  0  0  0  0  0
    7.8883    2.0887    7.8092 C   0  0  0  0  0  0  0  0  0  0  0  0
    3.5876    5.7785    1.4013 C   0  0  0  0  0  0  0  0  0  0  0  0
    3.9406    4.9948    2.8213 C   0  0  0  0  0  0  0  0  0  0  0  0
    5.6796    4.7289    2.9047 B   0  0  0  0  0  0  0  0  0  0  0  0
    6.4405    5.5516    1.4242 B   0  0  0  0  0  0  0  0  0  0  0  0
    5.0533    6.1509    0.4713 B   0  0  0  0  0  0  0  0  0  0  0  0
    4.2194    7.3867    1.4263 B   0  0  0  0  0  0  0  0  0  0  0  0
    3.5453    6.7041    2.8797 B   0  0  0  0  0  0  0  0  0  0  0  0
    4.9081    5.9949    3.8139 B   0  0  0  0  0  0  0  0  0  0  0  0
    6.3925    6.3034    2.9882 B   0  0  0  0  0  0  0  0  0  0  0  0
    5.9164    7.2360    1.5014 B   0  0  0  0  0  0  0  0  0  0  0  0
    5.0756    7.4949    2.9902 B   0  0  0  0  0  0  0  0  0  0  0  0
    2.2098    5.7307    0.7861 C   0  0  0  0  0  0  0  0  0  0  0  0
    2.8864    4.1757    3.4782 C   0  0  0  0  0  0  0  0  0  0  0  0
    7.9444    5.4168    0.6881 C   0  0  0  0  0  0  0  0  0  0  0  0
    8.7236    4.3813    1.1948 C   0  0  0  0  0  0  0  0  0  0  0  0
    5.8874    2.9008    1.0927 H   0  0  0  0  0  0  0  0  0  0  0  0
    7.1208    0.2890    0.7215 H   0  0  0  0  0  0  0  0  0  0  0  0
    5.6428   -0.0940    1.0802 H   0  0  0  0  0  0  0  0  0  0  0  0
    6.7507   -1.7093    0.1481 H   0  0  0  0  0  0  0  0  0  0  0  0
    6.3558   -2.4043    1.4951 H   0  0  0  0  0  0  0  0  0  0  0  0
    7.8260   -1.9114    1.2699 H   0  0  0  0  0  0  0  0  0  0  0  0
    8.7933   -0.8600    3.0194 H   0  0  0  0  0  0  0  0  0  0  0  0
    8.7986    0.1170    4.2456 H   0  0  0  0  0  0  0  0  0  0  0  0
   10.5015    0.8493    2.5377 H   0  0  0  0  0  0  0  0  0  0  0  0
    9.3289    1.8795    2.6879 H   0  0  0  0  0  0  0  0  0  0  0  0
    9.1621    0.6312    1.7558 H   0  0  0  0  0  0  0  0  0  0  0  0
    6.0268   -0.6029    4.9733 H   0  0  0  0  0  0  0  0  0  0  0  0
    6.2815   -1.6986    3.8806 H   0  0  0  0  0  0  0  0  0  0  0  0
    3.8479   -1.5586    3.9953 H   0  0  0  0  0  0  0  0  0  0  0  0
    4.6802   -0.9788    2.8005 H   0  0  0  0  0  0  0  0  0  0  0  0
    3.9570   -0.0071    3.7951 H   0  0  0  0  0  0  0  0  0  0  0  0
    4.7147    4.0108    6.1953 H   0  0  0  0  0  0  0  0  0  0  0  0
    5.5451    3.4434    7.3984 H   0  0  0  0  0  0  0  0  0  0  0  0
    3.5086    2.3263    7.0669 H   0  0  0  0  0  0  0  0  0  0  0  0
    4.8769    1.5692    7.1607 H   0  0  0  0  0  0  0  0  0  0  0  0
    4.0733    1.5745    5.8157 H   0  0  0  0  0  0  0  0  0  0  0  0
    7.8873    4.5498    6.6895 H   0  0  0  0  0  0  0  0  0  0  0  0
    7.2148    5.3016    5.4884 H   0  0  0  0  0  0  0  0  0  0  0  0
    9.5430    5.2909    4.8628 H   0  0  0  0  0  0  0  0  0  0  0  0
    9.1043    3.9717    4.1371 H   0  0  0  0  0  0  0  0  0  0  0  0
    9.4525    3.9469    5.6656 H   0  0  0  0  0  0  0  0  0  0  0  0
    8.4703    1.6915    5.8574 H   0  0  0  0  0  0  0  0  0  0  0  0
    7.1287    0.9734    6.2307 H   0  0  0  0  0  0  0  0  0  0  0  0
    8.7292    1.7430    8.1178 H   0  0  0  0  0  0  0  0  0  0  0  0
    7.1724    1.5905    8.2117 H   0  0  0  0  0  0  0  0  0  0  0  0
    7.8127    3.0125    8.0532 H   0  0  0  0  0  0  0  0  0  0  0  0
    5.1103    6.1952   -0.6235 H   0  0  0  0  0  0  0  0  0  0  0  0
    3.7284    8.2431    0.9404 H   0  0  0  0  0  0  0  0  0  0  0  0
    2.6289    7.1048    3.3406 H   0  0  0  0  0  0  0  0  0  0  0  0
    4.8700    5.9346    4.9107 H   0  0  0  0  0  0  0  0  0  0  0  0
    7.3363    6.4505    3.5345 H   0  0  0  0  0  0  0  0  0  0  0  0
    6.5522    8.0126    1.0530 H   0  0  0  0  0  0  0  0  0  0  0  0
    5.1488    8.4435    3.5428 H   0  0  0  0  0  0  0  0  0  0  0  0
    2.5466    5.9062   -0.0959 H   0  0  0  0  0  0  0  0  0  0  0  0
    1.6177    6.4399    1.0489 H   0  0  0  0  0  0  0  0  0  0  0  0
    1.7316    4.8973    0.7861 H   0  0  0  0  0  0  0  0  0  0  0  0
    3.1531    3.2962    3.7513 H   0  0  0  0  0  0  0  0  0  0  0  0
    2.3451    4.1154    2.6879 H   0  0  0  0  0  0  0  0  0  0  0  0
    2.3817    4.5888    4.1809 H   0  0  0  0  0  0  0  0  0  0  0  0
  1  2  1  0  0  0  0
  2  3  1  0  0  0  0
  3  4  3  0  0  0  0
  5  2  1  0  0  0  0
  6  5  3  0  0  0  0
  7  2  1  0  0  0  0
  8  7  3  0  0  0  0
  9  1  1  0  0  0  0
 10  9  1  0  0  0  0
 11 10  1  0  0  0  0
 12  9  1  0  0  0  0
 13 12  1  0  0  0  0
 14  9  1  0  0  0  0
 15 14  1  0  0  0  0
 16  1  1  0  0  0  0
 17 16  1  0  0  0  0
 18 17  1  0  0  0  0
 19 16  1  0  0  0  0
 20 19  1  0  0  0  0
 21 16  1  0  0  0  0
 22 21  1  0  0  0  0
 23  2  1  0  0  0  0
 24  2  1  0  0  0  0
 25  1  1  0  0  0  0
 26  2  1  0  0  0  0
 27  2  1  0  0  0  0
 28 23  1  0  0  0  0
 29 23  1  0  0  0  0
 30 24  1  0  0  0  0
 31 25  1  0  0  0  0
 32 26  1  0  0  0  0
 33 28  1  0  0  0  0
 34 23  1  0  0  0  0
 35 24  1  0  0  0  0
 36 26  1  0  0  0  0
 37 36  1  0  0  0  0
 38  1  1  0  0  0  0
 39 10  1  0  0  0  0
 40 10  1  0  0  0  0
 41 11  1  0  0  0  0
 42 11  1  0  0  0  0
 43 11  1  0  0  0  0
 44 12  1  0  0  0  0
 45 12  1  0  0  0  0
 46 13  1  0  0  0  0
 47 13  1  0  0  0  0
 48 13  1  0  0  0  0
 49 14  1  0  0  0  0
 50 14  1  0  0  0  0
 51 15  1  0  0  0  0
 52 15  1  0  0  0  0
 53 15  1  0  0  0  0
 54 17  1  0  0  0  0
 55 17  1  0  0  0  0
 56 18  1  0  0  0  0
 57 18  1  0  0  0  0
 58 18  1  0  0  0  0
 59 19  1  0  0  0  0
 60 19  1  0  0  0  0
 61 20  1  0  0  0  0
 62 20  1  0  0  0  0
 63 20  1  0  0  0  0
 64 21  1  0  0  0  0
 65 21  1  0  0  0  0
 66 22  1  0  0  0  0
 67 22  1  0  0  0  0
 68 22  1  0  0  0  0
 69 27  1  0  0  0  0
 70 28  1  0  0  0  0
 71 29  1  0  0  0  0
 72 30  1  0  0  0  0
 73 31  1  0  0  0  0
 74 32  1  0  0  0  0
 75 33  1  0  0  0  0
 76 34  1  0  0  0  0
 77 34  1  0  0  0  0
 78 34  1  0  0  0  0
 79 35  1  0  0  0  0
 80 35  1  0  0  0  0
 81 35  1  0  0  0  0
  2 25  1  0  0  0  0
  2 38  1  0  0  0  0
 23 24  1  0  0  0  0
 23 27  1  0  0  0  0
 24 25  1  0  0  0  0
 24 29  1  0  0  0  0
 25 26  1  0  0  0  0
 25 30  1  0  0  0  0
 26 27  1  0  0  0  0
 26 31  1  0  0  0  0
 27 28  1  0  0  0  0
 27 32  1  0  0  0  0
 28 29  1  0  0  0  0
 28 32  1  0  0  0  0
 29 30  1  0  0  0  0
 29 33  1  0  0  0  0
 30 31  1  0  0  0  0
 30 33  1  0  0  0  0
 31 32  1  0  0  0  0
 31 33  1  0  0  0  0
 32 33  1  0  0  0  0
M  END
$$$$
FOMPUW

From CSD data. Using bond type 'Any'. No disordered atoms. Largest molecule.
 84 86  0  0  0  0  0  0  0  0999 V2000
    5.9284    6.9488   12.6587 P   0  0  0  0  0  0  0  0  0  0  0  0
   10.8938    6.6430   13.3857 P   0  0  0  0  0  0  0  0  0  0  0  0
    8.3876    9.3222    9.8264 O   0  0  0  0  0  0  0  0  0  0  0  0
    9.5263    4.7162    9.7394 O   0  0  0  0  0  0  0  0  0  0  0  0
    6.2573    5.8409   14.0534 C   0  0  0  0  0  0  0  0  0  0  0  0
    5.7171    6.1159   14.8235 H   0  0  0  0  0  0  0  0  0  0  0  0
    7.2077    5.8852   14.2887 H   0  0  0  0  0  0  0  0  0  0  0  0
    6.0252    4.9224   13.8029 H   0  0  0  0  0  0  0  0  0  0  0  0
    9.2744    3.3244    9.3909 C   0  0  0  0  0  0  0  0  0  0  0  0
    3.6010    5.5359   12.0231 C   0  0  0  0  0  0  0  0  0  0  0  0
    4.1789    4.7877   11.9298 H   0  0  0  0  0  0  0  0  0  0  0  0
    3.2603    7.8646   12.5434 C   0  0  0  0  0  0  0  0  0  0  0  0
    3.6030    8.7102   12.8081 H   0  0  0  0  0  0  0  0  0  0  0  0
    8.8730   10.6937    9.7306 C   0  0  0  0  0  0  0  0  0  0  0  0
    2.2409    5.3906   11.7774 C   0  0  0  0  0  0  0  0  0  0  0  0
    1.8934    4.5446   11.5205 H   0  0  0  0  0  0  0  0  0  0  0  0
    4.1274    6.7762   12.4069 C   0  0  0  0  0  0  0  0  0  0  0  0
   12.6872    6.7380   13.7217 C   0  0  0  0  0  0  0  0  0  0  0  0
    1.3853    6.4835   11.9073 C   0  0  0  0  0  0  0  0  0  0  0  0
    0.4568    6.3852   11.7323 H   0  0  0  0  0  0  0  0  0  0  0  0
    1.8954    7.7178   12.2936 C   0  0  0  0  0  0  0  0  0  0  0  0
    1.3133    8.4628   12.3877 H   0  0  0  0  0  0  0  0  0  0  0  0
    8.5093    2.7658   10.5720 C   0  0  0  0  0  0  0  0  0  0  0  0
    9.0655    2.8206   11.3769 H   0  0  0  0  0  0  0  0  0  0  0  0
    8.2778    1.8296   10.3979 H   0  0  0  0  0  0  0  0  0  0  0  0
    7.6894    3.2857   10.7054 H   0  0  0  0  0  0  0  0  0  0  0  0
    6.8730    6.3868   11.2850 C   0  0  0  0  0  0  0  0  0  0  0  0
    8.8467   11.2004   11.1550 C   0  0  0  0  0  0  0  0  0  0  0  0
    7.9349   11.1342   11.5084 H   0  0  0  0  0  0  0  0  0  0  0  0
    9.1375   12.1359   11.1745 H   0  0  0  0  0  0  0  0  0  0  0  0
    9.4504   10.6591   11.7054 H   0  0  0  0  0  0  0  0  0  0  0  0
   10.3921    7.4828   11.9299 C   0  0  0  0  0  0  0  0  0  0  0  0
   13.4178    7.8719   13.3866 C   0  0  0  0  0  0  0  0  0  0  0  0
   12.9819    8.6023   12.9634 H   0  0  0  0  0  0  0  0  0  0  0  0
   10.2635    5.4682    8.7711 C   0  0  0  0  0  0  0  0  0  0  0  0
   11.1370    5.0478    8.6268 H   0  0  0  0  0  0  0  0  0  0  0  0
   10.3914    6.3836    9.0968 H   0  0  0  0  0  0  0  0  0  0  0  0
    9.7672    5.4884    7.9263 H   0  0  0  0  0  0  0  0  0  0  0  0
   15.4261    6.8944   14.2678 C   0  0  0  0  0  0  0  0  0  0  0  0
   16.3545    6.9509   14.4616 H   0  0  0  0  0  0  0  0  0  0  0  0
   13.3496    5.6698   14.3227 C   0  0  0  0  0  0  0  0  0  0  0  0
   12.8672    4.8836   14.5500 H   0  0  0  0  0  0  0  0  0  0  0  0
   10.1791    7.5368   14.7908 C   0  0  0  0  0  0  0  0  0  0  0  0
   10.4506    7.1028   15.6263 H   0  0  0  0  0  0  0  0  0  0  0  0
    9.2016    7.5277   14.7206 H   0  0  0  0  0  0  0  0  0  0  0  0
   10.4983    8.4634   14.7851 H   0  0  0  0  0  0  0  0  0  0  0  0
   14.7813    7.9518   13.6629 C   0  0  0  0  0  0  0  0  0  0  0  0
   15.2668    8.7357   13.4341 H   0  0  0  0  0  0  0  0  0  0  0  0
    8.3383    8.5999    8.5974 C   0  0  0  0  0  0  0  0  0  0  0  0
    7.7778    9.0844    7.9559 H   0  0  0  0  0  0  0  0  0  0  0  0
    7.9590    7.7104    8.7562 H   0  0  0  0  0  0  0  0  0  0  0  0
    9.2446    8.5088    8.2355 H   0  0  0  0  0  0  0  0  0  0  0  0
    8.0309   11.5045    8.7808 C   0  0  0  0  0  0  0  0  0  0  0  0
    8.1519   11.1683    7.8686 H   0  0  0  0  0  0  0  0  0  0  0  0
    8.3072   12.4446    8.8214 H   0  0  0  0  0  0  0  0  0  0  0  0
    7.0880   11.4301    9.0350 H   0  0  0  0  0  0  0  0  0  0  0  0
    8.4957    3.1798    8.1123 C   0  0  0  0  0  0  0  0  0  0  0  0
    7.6892    3.7342    8.1574 H   0  0  0  0  0  0  0  0  0  0  0  0
    8.2415    2.2415    7.9899 H   0  0  0  0  0  0  0  0  0  0  0  0
    9.0503    3.4695    7.3584 H   0  0  0  0  0  0  0  0  0  0  0  0
   14.7158    5.7467   14.5933 C   0  0  0  0  0  0  0  0  0  0  0  0
   15.1608    5.0128   15.0006 H   0  0  0  0  0  0  0  0  0  0  0  0
   10.5898    2.5836    9.2178 C   0  0  0  0  0  0  0  0  0  0  0  0
   11.0579    2.9291    8.4291 H   0  0  0  0  0  0  0  0  0  0  0  0
   10.4130    1.6270    9.0997 H   0  0  0  0  0  0  0  0  0  0  0  0
   11.1471    2.7172   10.0128 H   0  0  0  0  0  0  0  0  0  0  0  0
    6.4065    8.7524   13.0957 B   0  0  0  0  0  0  0  0  0  0  0  0
   10.3427   10.6549    9.2597 C   0  0  0  0  0  0  0  0  0  0  0  0
   10.8446   10.0157    9.8075 H   0  0  0  0  0  0  0  0  0  0  0  0
   10.7393   11.5460    9.3513 H   0  0  0  0  0  0  0  0  0  0  0  0
   10.3774   10.3769    8.3201 H   0  0  0  0  0  0  0  0  0  0  0  0
   10.3162    4.8106   13.3896 B   0  0  0  0  0  0  0  0  0  0  0  0
    8.9905    5.6914   11.3866 Li  0  0  0  0  0  0  0  0  0  0  0  0
    8.3104    8.1777   11.4852 Li  0  0  0  0  0  0  0  0  0  0  0  0
    6.7257    5.4174   11.1352 H   0  0  0  0  0  0  0  0  0  0  0  0
    6.5933    6.8659   10.4702 H   0  0  0  0  0  0  0  0  0  0  0  0
   10.9541    7.1795   11.2246 H   0  0  0  0  0  0  0  0  0  0  0  0
   10.5567    8.4249   12.0545 H   0  0  0  0  0  0  0  0  0  0  0  0
    7.5404    8.7051   13.3264 H   0  0  0  0  0  0  0  0  0  0  0  0
    9.1777    4.8545   13.1896 H   0  0  0  0  0  0  0  0  0  0  0  0
    5.8009    9.1434   13.9878 H   0  0  0  0  0  0  0  0  0  0  0  0
   10.5696    4.3224   14.3913 H   0  0  0  0  0  0  0  0  0  0  0  0
    6.2470    9.3812   12.1773 H   0  0  0  0  0  0  0  0  0  0  0  0
   10.8308    4.2928   12.5755 H   0  0  0  0  0  0  0  0  0  0  0  0
  1  5  1  0  0  0  0
  2 18  1  0  0  0  0
  3 14  1  0  0  0  0
  4  9  1  0  0  0  0
  5  6  1  0  0  0  0
  7  5  1  0  0  0  0
  8  5  1  0  0  0  0
  9 23  1  0  0  0  0
 10 11  1  0  0  0  0
 12 13  1  0  0  0  0
 14 28  1  0  0  0  0
 15 10  4  0  0  0  0
 16 15  1  0  0  0  0
 17  1  1  0  0  0  0
 18 33  4  0  0  0  0
 19 15  4  0  0  0  0
 20 19  1  0  0  0  0
 21 12  4  0  0  0  0
 22 21  1  0  0  0  0
 23 24  1  0  0  0  0
 25 23  1  0  0  0  0
 26 23  1  0  0  0  0
 27  1  1  0  0  0  0
 28 29  1  0  0  0  0
 30 28  1  0  0  0  0
 31 28  1  0  0  0  0
 32  2  1  0  0  0  0
 33 34  1  0  0  0  0
 35  4  1  0  0  0  0
 36 35  1  0  0  0  0
 37 35  1  0  0  0  0
 38 35  1  0  0  0  0
 39 40  1  0  0  0  0
 41 18  4  0  0  0  0
 42 41  1  0  0  0  0
 43  2  1  0  0  0  0
 44 43  1  0  0  0  0
 45 43  1  0  0  0  0
 46 43  1  0  0  0  0
 47 33  4  0  0  0  0
 48 47  1  0  0  0  0
 49  3  1  0  0  0  0
 50 49  1  0  0  0  0
 51 49  1  0  0  0  0
 52 49  1  0  0  0  0
 53 14  1  0  0  0  0
 54 53  1  0  0  0  0
 55 53  1  0  0  0  0
 56 53  1  0  0  0  0
 57  9  1  0  0  0  0
 58 57  1  0  0  0  0
 59 57  1  0  0  0  0
 60 57  1  0  0  0  0
 61 39  4  0  0  0  0
 62 61  1  0  0  0  0
 63  9  1  0  0  0  0
 64 63  1  0  0  0  0
 65 63  1  0  0  0  0
 66 63  1  0  0  0  0
 67  1  1  0  0  0  0
 68 14  1  0  0  0  0
 69 68  1  0  0  0  0
 70 68  1  0  0  0  0
 71 68  1  0  0  0  0
 72  2  1  0  0  0  0
 73  4  1  0  0  0  0
 74  3  1  0  0  0  0
 75 27  1  0  0  0  0
 76 27  1  0  0  0  0
 77 32  1  0  0  0  0
 78 32  1  0  0  0  0
 79 67  1  0  0  0  0
 80 72  1  0  0  0  0
 81 67  1  0  0  0  0
 82 72  1  0  0  0  0
 83 67  1  0  0  0  0
 84 72  1  0  0  0  0
 10 17  4  0  0  0  0
 12 17  4  0  0  0  0
 19 21  4  0  0  0  0
 27 73  1  0  0  0  0
 27 74  1  0  0  0  0
 32 73  1  0  0  0  0
 32 74  1  0  0  0  0
 39 47  4  0  0  0  0
 41 61  4  0  0  0  0
M  END
$$$$
FOMQAD

From CSD data. Using bond type 'Any'. No disordered atoms. Largest molecule.
 78 80  0  0  0  0  0  0  0  0999 V2000
  -10.0423   -1.5759   -6.4998 P   0  0  0  0  0  0  0  0  0  0  0  0
  -11.8322   -1.4546   -6.1454 C   0  0  0  0  0  0  0  0  0  0  0  0
  -12.3264   -0.5285   -5.2371 C   0  0  0  0  0  0  0  0  0  0  0  0
  -11.7281    0.0615   -4.7937 H   0  0  0  0  0  0  0  0  0  0  0  0
  -14.5549   -1.2873   -5.5990 C   0  0  0  0  0  0  0  0  0  0  0  0
  -15.4863   -1.2225   -5.4233 H   0  0  0  0  0  0  0  0  0  0  0  0
  -13.6893   -0.4564   -4.9720 C   0  0  0  0  0  0  0  0  0  0  0  0
  -14.0153    0.1800   -4.3473 H   0  0  0  0  0  0  0  0  0  0  0  0
  -12.7283   -2.3167   -6.7621 C   0  0  0  0  0  0  0  0  0  0  0  0
  -12.4083   -2.9718   -7.3717 H   0  0  0  0  0  0  0  0  0  0  0  0
   -9.5310   -3.0471   -7.2734 C   0  0  0  0  0  0  0  0  0  0  0  0
  -14.0858   -2.2286   -6.4940 C   0  0  0  0  0  0  0  0  0  0  0  0
  -14.6927   -2.8163   -6.9275 H   0  0  0  0  0  0  0  0  0  0  0  0
   -9.7774   -0.2260   -7.6572 C   0  0  0  0  0  0  0  0  0  0  0  0
  -10.2911   -0.3906   -8.4751 H   0  0  0  0  0  0  0  0  0  0  0  0
   -8.8235   -0.1669   -7.8774 H   0  0  0  0  0  0  0  0  0  0  0  0
  -10.0707    0.6160   -7.2507 H   0  0  0  0  0  0  0  0  0  0  0  0
   -8.0570   -5.5960  -10.3366 C   0  0  0  0  0  0  0  0  0  0  0  0
   -7.3887   -5.8661  -11.0149 H   0  0  0  0  0  0  0  0  0  0  0  0
   -8.9534   -5.8722  -10.6544 H   0  0  0  0  0  0  0  0  0  0  0  0
   -7.7712   -6.2143   -9.1016 C   0  0  0  0  0  0  0  0  0  0  0  0
   -6.9085   -5.8902   -8.7665 H   0  0  0  0  0  0  0  0  0  0  0  0
   -7.7289   -7.1856   -9.2246 H   0  0  0  0  0  0  0  0  0  0  0  0
   -8.4747   -5.9965   -8.4559 H   0  0  0  0  0  0  0  0  0  0  0  0
   -9.0483   -1.2767   -4.8753 B   0  0  0  0  0  0  0  0  0  0  0  0
   -9.3128   -3.6690  -11.0910 C   0  0  0  0  0  0  0  0  0  0  0  0
   -9.9824   -4.3804  -11.2544 H   0  0  0  0  0  0  0  0  0  0  0  0
   -9.7557   -2.8757  -10.6966 H   0  0  0  0  0  0  0  0  0  0  0  0
   -7.7847   -3.1183   -8.6006 Li  0  0  0  0  0  0  0  0  0  0  0  0
   -8.5906   -3.3567  -12.2278 C   0  0  0  0  0  0  0  0  0  0  0  0
   -9.1627   -2.8626  -12.8525 H   0  0  0  0  0  0  0  0  0  0  0  0
   -8.2787   -4.1818  -12.6539 H   0  0  0  0  0  0  0  0  0  0  0  0
   -7.8202   -2.8029  -11.9835 H   0  0  0  0  0  0  0  0  0  0  0  0
   -8.0202   -4.2108  -10.1549 O   0  0  0  0  0  0  0  0  0  0  0  0
   -9.7120   -3.7544   -6.6654 H   0  0  0  0  0  0  0  0  0  0  0  0
  -10.0494   -3.2473   -8.1157 H   0  0  0  0  0  0  0  0  0  0  0  0
   -9.4252   -0.2847   -4.3362 H   0  0  0  0  0  0  0  0  0  0  0  0
   -7.9706   -1.3434   -5.2005 H   0  0  0  0  0  0  0  0  0  0  0  0
   -9.1876   -1.9039   -4.1751 H   0  0  0  0  0  0  0  0  0  0  0  0
   -5.3094   -1.5759   -8.1496 P   0  0  0  0  0  0  0  0  0  0  0  0
   -3.5195   -1.4546   -8.5039 C   0  0  0  0  0  0  0  0  0  0  0  0
   -3.0253   -0.5285   -9.4122 C   0  0  0  0  0  0  0  0  0  0  0  0
   -3.6236    0.0615   -9.8556 H   0  0  0  0  0  0  0  0  0  0  0  0
   -0.7968   -1.2873   -9.0503 C   0  0  0  0  0  0  0  0  0  0  0  0
    0.1346   -1.2225   -9.2260 H   0  0  0  0  0  0  0  0  0  0  0  0
   -1.6624   -0.4564   -9.6773 C   0  0  0  0  0  0  0  0  0  0  0  0
   -1.3364    0.1800  -10.3020 H   0  0  0  0  0  0  0  0  0  0  0  0
   -2.6234   -2.3167   -7.8872 C   0  0  0  0  0  0  0  0  0  0  0  0
   -2.9434   -2.9718   -7.2776 H   0  0  0  0  0  0  0  0  0  0  0  0
   -5.8207   -3.0471   -7.3759 C   0  0  0  0  0  0  0  0  0  0  0  0
   -1.2659   -2.2286   -8.1553 C   0  0  0  0  0  0  0  0  0  0  0  0
   -0.6590   -2.8163   -7.7218 H   0  0  0  0  0  0  0  0  0  0  0  0
   -5.5743   -0.2260   -6.9921 C   0  0  0  0  0  0  0  0  0  0  0  0
   -5.0606   -0.3906   -6.1742 H   0  0  0  0  0  0  0  0  0  0  0  0
   -6.5281   -0.1669   -6.7719 H   0  0  0  0  0  0  0  0  0  0  0  0
   -5.2810    0.6160   -7.3986 H   0  0  0  0  0  0  0  0  0  0  0  0
   -7.2947   -5.5960   -4.3128 C   0  0  0  0  0  0  0  0  0  0  0  0
   -7.9630   -5.8661   -3.6344 H   0  0  0  0  0  0  0  0  0  0  0  0
   -6.3983   -5.8722   -3.9949 H   0  0  0  0  0  0  0  0  0  0  0  0
   -7.5805   -6.2143   -5.5477 C   0  0  0  0  0  0  0  0  0  0  0  0
   -8.4432   -5.8902   -5.8828 H   0  0  0  0  0  0  0  0  0  0  0  0
   -7.6228   -7.1856   -5.4247 H   0  0  0  0  0  0  0  0  0  0  0  0
   -6.8769   -5.9965   -6.1935 H   0  0  0  0  0  0  0  0  0  0  0  0
   -6.3034   -1.2767   -9.7740 B   0  0  0  0  0  0  0  0  0  0  0  0
   -6.0389   -3.6690   -3.5583 C   0  0  0  0  0  0  0  0  0  0  0  0
   -5.3693   -4.3804   -3.3949 H   0  0  0  0  0  0  0  0  0  0  0  0
   -5.5960   -2.8757   -3.9527 H   0  0  0  0  0  0  0  0  0  0  0  0
   -7.5670   -3.1183   -6.0487 Li  0  0  0  0  0  0  0  0  0  0  0  0
   -6.7611   -3.3567   -2.4215 C   0  0  0  0  0  0  0  0  0  0  0  0
   -6.1890   -2.8626   -1.7968 H   0  0  0  0  0  0  0  0  0  0  0  0
   -7.0730   -4.1818   -1.9954 H   0  0  0  0  0  0  0  0  0  0  0  0
   -7.5315   -2.8029   -2.6658 H   0  0  0  0  0  0  0  0  0  0  0  0
   -7.3315   -4.2108   -4.4944 O   0  0  0  0  0  0  0  0  0  0  0  0
   -5.6397   -3.7544   -7.9839 H   0  0  0  0  0  0  0  0  0  0  0  0
   -5.3023   -3.2473   -6.5336 H   0  0  0  0  0  0  0  0  0  0  0  0
   -5.9265   -0.2847  -10.3131 H   0  0  0  0  0  0  0  0  0  0  0  0
   -7.3811   -1.3434   -9.4488 H   0  0  0  0  0  0  0  0  0  0  0  0
   -6.1641   -1.9039  -10.4743 H   0  0  0  0  0  0  0  0  0  0  0  0
  1  2  1  0  0  0  0
  2  3  4  0  0  0  0
  3  4  1  0  0  0  0
  5  6  1  0  0  0  0
  7  3  4  0  0  0  0
  8  7  1  0  0  0  0
  9  2  4  0  0  0  0
 10  9  1  0  0  0  0
 11  1  1  0  0  0  0
 12  5  4  0  0  0  0
 13 12  1  0  0  0  0
 14  1  1  0  0  0  0
 15 14  1  0  0  0  0
 16 14  1  0  0  0  0
 17 14  1  0  0  0  0
 18 19  1  0  0  0  0
 20 18  1  0  0  0  0
 21 18  1  0  0  0  0
 22 21  1  0  0  0  0
 23 21  1  0  0  0  0
 24 21  1  0  0  0  0
 25  1  1  0  0  0  0
 26 27  1  0  0  0  0
 28 26  1  0  0  0  0
 29 11  1  0  0  0  0
 30 26  1  0  0  0  0
 31 30  1  0  0  0  0
 32 30  1  0  0  0  0
 33 30  1  0  0  0  0
 34 18  1  0  0  0  0
 35 11  1  0  0  0  0
 36 11  1  0  0  0  0
 37 25  1  0  0  0  0
 38 25  1  0  0  0  0
 39 25  1  0  0  0  0
 40 41  1  0  0  0  0
 41 42  4  0  0  0  0
 42 43  1  0  0  0  0
 44 45  1  0  0  0  0
 46 42  4  0  0  0  0
 47 46  1  0  0  0  0
 48 41  4  0  0  0  0
 49 48  1  0  0  0  0
 50 29  1  0  0  0  0
 51 44  4  0  0  0  0
 52 51  1  0  0  0  0
 53 40  1  0  0  0  0
 54 53  1  0  0  0  0
 55 53  1  0  0  0  0
 56 53  1  0  0  0  0
 57 58  1  0  0  0  0
 59 57  1  0  0  0  0
 60 57  1  0  0  0  0
 61 60  1  0  0  0  0
 62 60  1  0  0  0  0
 63 60  1  0  0  0  0
 64 40  1  0  0  0  0
 65 66  1  0  0  0  0
 67 65  1  0  0  0  0
 68 11  1  0  0  0  0
 69 65  1  0  0  0  0
 70 69  1  0  0  0  0
 71 69  1  0  0  0  0
 72 69  1  0  0  0  0
 73 57  1  0  0  0  0
 74 50  1  0  0  0  0
 75 50  1  0  0  0  0
 76 64  1  0  0  0  0
 77 64  1  0  0  0  0
 78 64  1  0  0  0  0
  5  7  4  0  0  0  0
  9 12  4  0  0  0  0
 26 34  1  0  0  0  0
 29 34  1  0  0  0  0
 40 50  1  0  0  0  0
 44 46  4  0  0  0  0
 48 51  4  0  0  0  0
 50 68  1  0  0  0  0
 65 73  1  0  0  0  0
 68 73  1  0  0  0  0
M  END
$$$$
FOPFAT

From CSD data. Using bond type 'Any'. No disordered atoms. Largest molecule.
 83 91  0  0  0  0  0  0  0  0999 V2000
    1.4185    5.8220    2.6043 B   0  0  0  0  0  0  0  0  0  0  0  0
    2.1334    6.7393    2.6389 H   0  0  0  0  0  0  0  0  0  0  0  0
    0.5221    5.9438    1.8557 H   0  0  0  0  0  0  0  0  0  0  0  0
    1.9187    4.8600    2.4376 H   0  0  0  0  0  0  0  0  0  0  0  0
   -0.2673    8.9941    2.6058 B   0  0  0  0  0  0  0  0  0  0  0  0
    0.8667    9.0749    2.5319 H   0  0  0  0  0  0  0  0  0  0  0  0
   -0.7217    8.1075    1.9501 H   0  0  0  0  0  0  0  0  0  0  0  0
   -0.7934   10.0211    2.4533 H   0  0  0  0  0  0  0  0  0  0  0  0
    1.2076    7.7646    1.1056 Li  0  0  0  0  0  0  0  0  0  0  0  0
    0.6961    5.6962    4.3856 P   0  0  0  0  0  0  0  0  0  0  0  0
   -0.6429    8.5172    4.4309 P   0  0  0  0  0  0  0  0  0  0  0  0
    2.9288    8.5689    0.6558 O   0  0  0  0  0  0  0  0  0  0  0  0
    0.4209    7.5562   -0.6890 O   0  0  0  0  0  0  0  0  0  0  0  0
   -0.2005    6.9894    5.0620 C   0  0  0  0  0  0  0  0  0  0  0  0
   -0.5076    6.8304    5.9461 H   0  0  0  0  0  0  0  0  0  0  0  0
    2.0408    5.3043    5.5572 C   0  0  0  0  0  0  0  0  0  0  0  0
    3.3741    5.5289    5.2257 C   0  0  0  0  0  0  0  0  0  0  0  0
    3.5974    5.8119    4.3467 H   0  0  0  0  0  0  0  0  0  0  0  0
    4.3782    5.3450    6.1584 C   0  0  0  0  0  0  0  0  0  0  0  0
    5.2824    5.5086    5.9178 H   0  0  0  0  0  0  0  0  0  0  0  0
    4.0713    4.9238    7.4415 C   0  0  0  0  0  0  0  0  0  0  0  0
    4.7639    4.7980    8.0802 H   0  0  0  0  0  0  0  0  0  0  0  0
    2.7573    4.6875    7.7886 C   0  0  0  0  0  0  0  0  0  0  0  0
    2.5431    4.3952    8.6668 H   0  0  0  0  0  0  0  0  0  0  0  0
    1.7473    4.8781    6.8589 C   0  0  0  0  0  0  0  0  0  0  0  0
    0.8450    4.7167    7.1067 H   0  0  0  0  0  0  0  0  0  0  0  0
   -0.3120    4.1661    4.4883 C   0  0  0  0  0  0  0  0  0  0  0  0
    0.2231    2.9316    4.1135 C   0  0  0  0  0  0  0  0  0  0  0  0
    1.1206    2.8802    3.8042 H   0  0  0  0  0  0  0  0  0  0  0  0
   -0.5444    1.7842    4.1895 C   0  0  0  0  0  0  0  0  0  0  0  0
   -0.1764    0.9505    3.9190 H   0  0  0  0  0  0  0  0  0  0  0  0
   -1.8459    1.8450    4.6550 C   0  0  0  0  0  0  0  0  0  0  0  0
   -2.3664    1.0523    4.7163 H   0  0  0  0  0  0  0  0  0  0  0  0
   -2.3825    3.0456    5.0293 C   0  0  0  0  0  0  0  0  0  0  0  0
   -3.2772    3.0892    5.3438 H   0  0  0  0  0  0  0  0  0  0  0  0
   -1.6133    4.2086    4.9470 C   0  0  0  0  0  0  0  0  0  0  0  0
   -1.9899    5.0400    5.2101 H   0  0  0  0  0  0  0  0  0  0  0  0
   -2.4354    8.7315    4.7393 C   0  0  0  0  0  0  0  0  0  0  0  0
   -2.9256    9.1034    5.9829 C   0  0  0  0  0  0  0  0  0  0  0  0
   -2.3222    9.3292    6.6805 H   0  0  0  0  0  0  0  0  0  0  0  0
   -4.3000    9.1477    6.2135 C   0  0  0  0  0  0  0  0  0  0  0  0
   -4.6275    9.3900    7.0721 H   0  0  0  0  0  0  0  0  0  0  0  0
   -5.1809    8.8461    5.2101 C   0  0  0  0  0  0  0  0  0  0  0  0
   -6.1166    8.8779    5.3737 H   0  0  0  0  0  0  0  0  0  0  0  0
   -4.7095    8.4941    3.9599 C   0  0  0  0  0  0  0  0  0  0  0  0
   -5.3206    8.2944    3.2601 H   0  0  0  0  0  0  0  0  0  0  0  0
   -3.3496    8.4336    3.7303 C   0  0  0  0  0  0  0  0  0  0  0  0
   -3.0322    8.1853    2.8700 H   0  0  0  0  0  0  0  0  0  0  0  0
    0.0697    9.8399    5.4819 C   0  0  0  0  0  0  0  0  0  0  0  0
   -0.2656   11.1820    5.2460 C   0  0  0  0  0  0  0  0  0  0  0  0
   -0.8737   11.4001    4.5496 H   0  0  0  0  0  0  0  0  0  0  0  0
    0.2828   12.1904    6.0200 C   0  0  0  0  0  0  0  0  0  0  0  0
    0.0473   13.0967    5.8580 H   0  0  0  0  0  0  0  0  0  0  0  0
    1.1738   11.8754    7.0278 C   0  0  0  0  0  0  0  0  0  0  0  0
    1.5533   12.5682    7.5565 H   0  0  0  0  0  0  0  0  0  0  0  0
    1.5130   10.5685    7.2709 C   0  0  0  0  0  0  0  0  0  0  0  0
    2.1245   10.3579    7.9669 H   0  0  0  0  0  0  0  0  0  0  0  0
    0.9603    9.5477    6.4954 C   0  0  0  0  0  0  0  0  0  0  0  0
    1.1989    8.6443    6.6664 H   0  0  0  0  0  0  0  0  0  0  0  0
    3.1911    9.9958    0.6888 C   0  0  0  0  0  0  0  0  0  0  0  0
    2.9739   10.3745    1.5773 H   0  0  0  0  0  0  0  0  0  0  0  0
    2.6602   10.4691    0.0000 H   0  0  0  0  0  0  0  0  0  0  0  0
    4.6532   10.1087    0.4042 C   0  0  0  0  0  0  0  0  0  0  0  0
    5.1786   10.1462    1.2424 H   0  0  0  0  0  0  0  0  0  0  0  0
    4.8504   10.9136   -0.1368 H   0  0  0  0  0  0  0  0  0  0  0  0
    4.9579    8.8136   -0.3900 C   0  0  0  0  0  0  0  0  0  0  0  0
    4.7434    8.9240   -1.3493 H   0  0  0  0  0  0  0  0  0  0  0  0
    5.9087    8.5544   -0.2972 H   0  0  0  0  0  0  0  0  0  0  0  0
    4.0769    7.8231    0.2390 C   0  0  0  0  0  0  0  0  0  0  0  0
    3.8221    7.1177   -0.4073 H   0  0  0  0  0  0  0  0  0  0  0  0
    4.5215    7.4001    1.0159 H   0  0  0  0  0  0  0  0  0  0  0  0
   -0.8288    6.9257   -0.9216 C   0  0  0  0  0  0  0  0  0  0  0  0
   -1.3950    7.4615   -1.5317 H   0  0  0  0  0  0  0  0  0  0  0  0
   -1.3173    6.7697   -0.0755 H   0  0  0  0  0  0  0  0  0  0  0  0
   -0.4045    5.6097   -1.5695 C   0  0  0  0  0  0  0  0  0  0  0  0
   -0.1878    4.9209   -0.8933 H   0  0  0  0  0  0  0  0  0  0  0  0
   -1.0988    5.2635   -2.1844 H   0  0  0  0  0  0  0  0  0  0  0  0
    0.8098    6.0580   -2.3070 C   0  0  0  0  0  0  0  0  0  0  0  0
    0.6541    6.0106   -3.2837 H   0  0  0  0  0  0  0  0  0  0  0  0
    1.5798    5.4772   -2.0837 H   0  0  0  0  0  0  0  0  0  0  0  0
    1.0993    7.5208   -1.8809 C   0  0  0  0  0  0  0  0  0  0  0  0
    2.0675    7.6835   -1.7566 H   0  0  0  0  0  0  0  0  0  0  0  0
    0.7347    8.1726   -2.5304 H   0  0  0  0  0  0  0  0  0  0  0  0
  1  2  1  0  0  0  0
  2  9  1  0  0  0  0
  3  1  1  0  0  0  0
  4  1  1  0  0  0  0
  5  6  1  0  0  0  0
  6  9  1  0  0  0  0
  7  5  1  0  0  0  0
  8  5  1  0  0  0  0
  9  3  1  0  0  0  0
 10  1  1  0  0  0  0
 11  5  1  0  0  0  0
 12  9  1  0  0  0  0
 13  9  1  0  0  0  0
 14 10  8  0  0  0  0
 15 14  1  0  0  0  0
 16 10  1  0  0  0  0
 17 16  4  0  0  0  0
 18 17  1  0  0  0  0
 19 17  4  0  0  0  0
 20 19  1  0  0  0  0
 21 19  4  0  0  0  0
 22 21  1  0  0  0  0
 23 21  4  0  0  0  0
 24 23  1  0  0  0  0
 25 16  4  0  0  0  0
 26 25  1  0  0  0  0
 27 10  1  0  0  0  0
 28 27  4  0  0  0  0
 29 28  1  0  0  0  0
 30 28  4  0  0  0  0
 31 30  1  0  0  0  0
 32 30  4  0  0  0  0
 33 32  1  0  0  0  0
 34 32  4  0  0  0  0
 35 34  1  0  0  0  0
 36 27  4  0  0  0  0
 37 36  1  0  0  0  0
 38 11  1  0  0  0  0
 39 38  4  0  0  0  0
 40 39  1  0  0  0  0
 41 39  4  0  0  0  0
 42 41  1  0  0  0  0
 43 41  4  0  0  0  0
 44 43  1  0  0  0  0
 45 43  4  0  0  0  0
 46 45  1  0  0  0  0
 47 38  4  0  0  0  0
 48 47  1  0  0  0  0
 49 11  1  0  0  0  0
 50 49  4  0  0  0  0
 51 50  1  0  0  0  0
 52 50  4  0  0  0  0
 53 52  1  0  0  0  0
 54 52  4  0  0  0  0
 55 54  1  0  0  0  0
 56 54  4  0  0  0  0
 57 56  1  0  0  0  0
 58 49  4  0  0  0  0
 59 58  1  0  0  0  0
 60 12  1  0  0  0  0
 61 60  1  0  0  0  0
 62 60  1  0  0  0  0
 63 60  1  0  0  0  0
 64 63  1  0  0  0  0
 65 63  1  0  0  0  0
 66 63  1  0  0  0  0
 67 66  1  0  0  0  0
 68 66  1  0  0  0  0
 69 12  1  0  0  0  0
 70 69  1  0  0  0  0
 71 69  1  0  0  0  0
 72 13  1  0  0  0  0
 73 72  1  0  0  0  0
 74 72  1  0  0  0  0
 75 72  1  0  0  0  0
 76 75  1  0  0  0  0
 77 75  1  0  0  0  0
 78 75  1  0  0  0  0
 79 78  1  0  0  0  0
 80 78  1  0  0  0  0
 81 13  1  0  0  0  0
 82 81  1  0  0  0  0
 83 81  1  0  0  0  0
  7  9  1  0  0  0  0
 11 14  8  0  0  0  0
 23 25  4  0  0  0  0
 34 36  4  0  0  0  0
 45 47  4  0  0  0  0
 56 58  4  0  0  0  0
 66 69  1  0  0  0  0
 78 81  1  0  0  0  0
M  END
$$$$
FOPFEX

From CSD data. Using bond type 'Any'. No disordered atoms. Largest molecule.
 86 92  0  0  0  0  0  0  0  0999 V2000
    2.8520    3.9179   12.2866 P   0  0  0  0  0  0  0  0  0  0  0  0
    1.8181    6.3591   10.6902 P   0  0  0  0  0  0  0  0  0  0  0  0
    2.4364    4.6341   14.0232 B   0  0  0  0  0  0  0  0  0  0  0  0
    4.5731    5.9367   11.2334 B   0  0  0  0  0  0  0  0  0  0  0  0
    1.7189    7.8289   11.9604 B   0  0  0  0  0  0  0  0  0  0  0  0
    3.1219    5.1211   10.9566 C   0  0  0  0  0  0  0  0  0  0  0  0
    3.2242    4.6073   10.1044 H   0  0  0  0  0  0  0  0  0  0  0  0
    4.3992    2.9523   12.2986 C   0  0  0  0  0  0  0  0  0  0  0  0
    4.9351    2.5207   13.5185 C   0  0  0  0  0  0  0  0  0  0  0  0
    4.5015    2.7365   14.3366 H   0  0  0  0  0  0  0  0  0  0  0  0
    6.1094    1.7703   13.5211 C   0  0  0  0  0  0  0  0  0  0  0  0
    6.4655    1.4594   14.3457 H   0  0  0  0  0  0  0  0  0  0  0  0
    6.7593    1.4755   12.3519 C   0  0  0  0  0  0  0  0  0  0  0  0
    7.5728    0.9850   12.3714 H   0  0  0  0  0  0  0  0  0  0  0  0
    6.2336    1.8909   11.1449 C   0  0  0  0  0  0  0  0  0  0  0  0
    6.6762    1.6738   10.3333 H   0  0  0  0  0  0  0  0  0  0  0  0
    5.0619    2.6253   11.1202 C   0  0  0  0  0  0  0  0  0  0  0  0
    4.7043    2.9094   10.2865 H   0  0  0  0  0  0  0  0  0  0  0  0
    1.5831    2.7073   11.7886 C   0  0  0  0  0  0  0  0  0  0  0  0
    1.7629    1.8963   10.6742 C   0  0  0  0  0  0  0  0  0  0  0  0
    2.5536    1.9753   10.1539 H   0  0  0  0  0  0  0  0  0  0  0  0
    0.7917    0.9702   10.3190 C   0  0  0  0  0  0  0  0  0  0  0  0
    0.9121    0.4342    9.5439 H   0  0  0  0  0  0  0  0  0  0  0  0
   -0.3517    0.8215   11.0890 C   0  0  0  0  0  0  0  0  0  0  0  0
   -1.0048    0.1729   10.8536 H   0  0  0  0  0  0  0  0  0  0  0  0
   -0.5367    1.6229   12.2010 C   0  0  0  0  0  0  0  0  0  0  0  0
   -1.3213    1.5264   12.7278 H   0  0  0  0  0  0  0  0  0  0  0  0
    0.4226    2.5717   12.5506 C   0  0  0  0  0  0  0  0  0  0  0  0
    0.2861    3.1265   13.3091 H   0  0  0  0  0  0  0  0  0  0  0  0
    0.1995    5.5314   10.5330 C   0  0  0  0  0  0  0  0  0  0  0  0
   -0.0096    4.6220    9.4978 C   0  0  0  0  0  0  0  0  0  0  0  0
    0.6939    4.4277    8.8884 H   0  0  0  0  0  0  0  0  0  0  0  0
   -1.2404    4.0016    9.3540 C   0  0  0  0  0  0  0  0  0  0  0  0
   -1.3816    3.3838    8.6465 H   0  0  0  0  0  0  0  0  0  0  0  0
   -2.2681    4.2817   10.2462 C   0  0  0  0  0  0  0  0  0  0  0  0
   -3.1162    3.8676   10.1357 H   0  0  0  0  0  0  0  0  0  0  0  0
   -2.0644    5.1608   11.2906 C   0  0  0  0  0  0  0  0  0  0  0  0
   -2.7626    5.3323   11.9110 H   0  0  0  0  0  0  0  0  0  0  0  0
   -0.8274    5.7973   11.4350 C   0  0  0  0  0  0  0  0  0  0  0  0
   -0.6882    6.4097   12.1477 H   0  0  0  0  0  0  0  0  0  0  0  0
    2.1270    6.9883    9.0121 C   0  0  0  0  0  0  0  0  0  0  0  0
    3.2084    6.5933    8.2236 C   0  0  0  0  0  0  0  0  0  0  0  0
    3.8297    5.9568    8.5567 H   0  0  0  0  0  0  0  0  0  0  0  0
    3.3798    7.1280    6.9505 C   0  0  0  0  0  0  0  0  0  0  0  0
    4.1091    6.8466    6.4120 H   0  0  0  0  0  0  0  0  0  0  0  0
    2.4847    8.0742    6.4653 C   0  0  0  0  0  0  0  0  0  0  0  0
    2.6082    8.4427    5.5978 H   0  0  0  0  0  0  0  0  0  0  0  0
    1.4159    8.4802    7.2431 C   0  0  0  0  0  0  0  0  0  0  0  0
    0.8106    9.1342    6.9153 H   0  0  0  0  0  0  0  0  0  0  0  0
    1.2278    7.9308    8.5047 C   0  0  0  0  0  0  0  0  0  0  0  0
    0.4805    8.1988    9.0275 H   0  0  0  0  0  0  0  0  0  0  0  0
    3.6946    7.1843   13.2194 Li  0  0  0  0  0  0  0  0  0  0  0  0
    4.8904    8.0165   14.3444 O   0  0  0  0  0  0  0  0  0  0  0  0
    4.3100    8.7791   15.4695 C   0  0  0  0  0  0  0  0  0  0  0  0
    5.5058    8.9774   16.3968 C   0  0  0  0  0  0  0  0  0  0  0  0
    5.4143    9.8123   16.9209 H   0  0  0  0  0  0  0  0  0  0  0  0
    5.6025    8.2149   17.0198 H   0  0  0  0  0  0  0  0  0  0  0  0
    6.6868    9.0591   15.4538 C   0  0  0  0  0  0  0  0  0  0  0  0
    6.7885    9.9811   15.1092 H   0  0  0  0  0  0  0  0  0  0  0  0
    7.5192    8.8018   15.9221 H   0  0  0  0  0  0  0  0  0  0  0  0
    6.4078    8.1144   14.3353 C   0  0  0  0  0  0  0  0  0  0  0  0
    3.7728   10.0897   14.9037 C   0  0  0  0  0  0  0  0  0  0  0  0
    4.5092   10.6003   14.5070 H   0  0  0  0  0  0  0  0  0  0  0  0
    3.3640   10.6123   15.6242 H   0  0  0  0  0  0  0  0  0  0  0  0
    3.1024    9.8981   14.2157 H   0  0  0  0  0  0  0  0  0  0  0  0
    3.2044    7.9281   16.1042 C   0  0  0  0  0  0  0  0  0  0  0  0
    2.4629    7.8289   15.4708 H   0  0  0  0  0  0  0  0  0  0  0  0
    2.8814    8.3663   16.9183 H   0  0  0  0  0  0  0  0  0  0  0  0
    3.5617    7.0436   16.3292 H   0  0  0  0  0  0  0  0  0  0  0  0
    6.8448    8.5151   12.9996 C   0  0  0  0  0  0  0  0  0  0  0  0
    6.5406    9.4277   12.8175 H   0  0  0  0  0  0  0  0  0  0  0  0
    6.4635    7.9040   12.3350 H   0  0  0  0  0  0  0  0  0  0  0  0
    7.8230    8.4802   12.9515 H   0  0  0  0  0  0  0  0  0  0  0  0
    6.8756    6.6670   14.6683 C   0  0  0  0  0  0  0  0  0  0  0  0
    7.8539    6.6349   14.6852 H   0  0  0  0  0  0  0  0  0  0  0  0
    6.5411    6.0506   13.9842 H   0  0  0  0  0  0  0  0  0  0  0  0
    6.5244    6.4044   15.5449 H   0  0  0  0  0  0  0  0  0  0  0  0
    1.5939    7.3304   12.9931 H   0  0  0  0  0  0  0  0  0  0  0  0
    2.3843    3.7523   14.6839 H   0  0  0  0  0  0  0  0  0  0  0  0
    5.3604    5.4274   10.6780 H   0  0  0  0  0  0  0  0  0  0  0  0
    4.4986    7.0490   10.9381 H   0  0  0  0  0  0  0  0  0  0  0  0
    2.6742    8.4159   11.8355 H   0  0  0  0  0  0  0  0  0  0  0  0
    1.4310    5.1326   13.9555 H   0  0  0  0  0  0  0  0  0  0  0  0
    3.2000    5.3068   14.2807 H   0  0  0  0  0  0  0  0  0  0  0  0
    0.8310    8.3757   11.7315 H   0  0  0  0  0  0  0  0  0  0  0  0
    4.7760    5.8295   12.2908 H   0  0  0  0  0  0  0  0  0  0  0  0
  1  3  1  0  0  0  0
  2  5  1  0  0  0  0
  3 79  1  0  0  0  0
  4  6  1  0  0  0  0
  5 78  1  0  0  0  0
  6  1  1  0  0  0  0
  7  6  1  0  0  0  0
  8  1  1  0  0  0  0
  9  8  4  0  0  0  0
 10  9  1  0  0  0  0
 11  9  4  0  0  0  0
 12 11  1  0  0  0  0
 13 11  4  0  0  0  0
 14 13  1  0  0  0  0
 15 13  4  0  0  0  0
 16 15  1  0  0  0  0
 17  8  4  0  0  0  0
 18 17  1  0  0  0  0
 19  1  1  0  0  0  0
 20 19  4  0  0  0  0
 21 20  1  0  0  0  0
 22 20  4  0  0  0  0
 23 22  1  0  0  0  0
 24 22  4  0  0  0  0
 25 24  1  0  0  0  0
 26 24  4  0  0  0  0
 27 26  1  0  0  0  0
 28 19  4  0  0  0  0
 29 28  1  0  0  0  0
 30  2  1  0  0  0  0
 31 30  4  0  0  0  0
 32 31  1  0  0  0  0
 33 31  4  0  0  0  0
 34 33  1  0  0  0  0
 35 33  4  0  0  0  0
 36 35  1  0  0  0  0
 37 35  4  0  0  0  0
 38 37  1  0  0  0  0
 39 30  4  0  0  0  0
 40 39  1  0  0  0  0
 41  2  1  0  0  0  0
 42 41  4  0  0  0  0
 43 42  1  0  0  0  0
 44 42  4  0  0  0  0
 45 44  1  0  0  0  0
 46 44  4  0  0  0  0
 47 46  1  0  0  0  0
 48 46  4  0  0  0  0
 49 48  1  0  0  0  0
 50 41  4  0  0  0  0
 51 50  1  0  0  0  0
 52 53  1  0  0  0  0
 53 54  1  0  0  0  0
 54 55  1  0  0  0  0
 55 56  1  0  0  0  0
 57 55  1  0  0  0  0
 58 55  1  0  0  0  0
 59 58  1  0  0  0  0
 60 58  1  0  0  0  0
 61 53  1  0  0  0  0
 62 54  1  0  0  0  0
 63 62  1  0  0  0  0
 64 62  1  0  0  0  0
 65 62  1  0  0  0  0
 66 54  1  0  0  0  0
 67 66  1  0  0  0  0
 68 66  1  0  0  0  0
 69 66  1  0  0  0  0
 70 61  1  0  0  0  0
 71 70  1  0  0  0  0
 72 70  1  0  0  0  0
 73 70  1  0  0  0  0
 74 61  1  0  0  0  0
 75 74  1  0  0  0  0
 76 74  1  0  0  0  0
 77 74  1  0  0  0  0
 78 52  1  0  0  0  0
 80  4  1  0  0  0  0
 81  4  1  0  0  0  0
 82  5  1  0  0  0  0
 83  3  1  0  0  0  0
 84  3  1  0  0  0  0
 85  5  1  0  0  0  0
 86  4  1  0  0  0  0
  2  6  1  0  0  0  0
 15 17  4  0  0  0  0
 26 28  4  0  0  0  0
 37 39  4  0  0  0  0
 48 50  4  0  0  0  0
 52 82  1  0  0  0  0
 52 86  1  0  0  0  0
 58 61  1  0  0  0  0
M  END
$$$$
FOPFIB

From CSD data. Using bond type 'Any'. No disordered atoms. Largest molecule.
100107  0  0  0  0  0  0  0  0999 V2000
    4.8660    3.1832    5.8895 B   0  5  0  0  0  0  0  0  0  0  0  0
    1.6165    3.1795    7.7817 B   0  0  0  0  0  0  0  0  0  0  0  0
    3.9221    0.9217    2.8389 B   0  0  0  0  0  0  0  0  0  0  0  0
    6.2525    4.9347    6.5532 Li  0  3  0  0  0  0  0  0  0  0  0  0
    2.0039    2.7539    5.9440 P   0  0  0  0  0  0  0  0  0  0  0  0
    4.0314    0.6399    4.7506 P   0  0  0  0  0  0  0  0  0  0  0  0
    5.6831    6.7505    6.0646 O   0  0  0  0  0  0  0  0  0  0  0  0
    6.5973    5.1884    8.4796 O   0  0  0  0  0  0  0  0  0  0  0  0
    8.0929    4.6898    5.9446 O   0  0  0  0  0  0  0  0  0  0  0  0
    3.6785    2.0104    5.8960 C   0  0  0  0  0  0  0  0  0  0  0  0
    1.9277    4.2064    4.8666 C   0  0  0  0  0  0  0  0  0  0  0  0
    2.5149    4.2317    3.5988 C   0  0  0  0  0  0  0  0  0  0  0  0
    3.0264    3.4922    3.2958 H   0  0  0  0  0  0  0  0  0  0  0  0
    2.3467    5.3451    2.7831 C   0  0  0  0  0  0  0  0  0  0  0  0
    2.7402    5.3596    1.9178 H   0  0  0  0  0  0  0  0  0  0  0  0
    1.6099    6.4353    3.2220 C   0  0  0  0  0  0  0  0  0  0  0  0
    1.4880    7.1856    2.6527 H   0  0  0  0  0  0  0  0  0  0  0  0
    1.0500    6.4276    4.4922 C   0  0  0  0  0  0  0  0  0  0  0  0
    0.5634    7.1835    4.8010 H   0  0  0  0  0  0  0  0  0  0  0  0
    1.2015    5.3119    5.3148 C   0  0  0  0  0  0  0  0  0  0  0  0
    0.8109    5.3036    6.1806 H   0  0  0  0  0  0  0  0  0  0  0  0
    0.7285    1.6382    5.2639 C   0  0  0  0  0  0  0  0  0  0  0  0
    0.3574    1.6313    3.9175 C   0  0  0  0  0  0  0  0  0  0  0  0
    0.7616    2.2430    3.3135 H   0  0  0  0  0  0  0  0  0  0  0  0
   -0.6020    0.7318    3.4524 C   0  0  0  0  0  0  0  0  0  0  0  0
   -0.8520    0.7366    2.5367 H   0  0  0  0  0  0  0  0  0  0  0  0
   -1.1915   -0.1699    4.3285 C   0  0  0  0  0  0  0  0  0  0  0  0
   -1.8284   -0.7968    4.0065 H   0  0  0  0  0  0  0  0  0  0  0  0
   -0.8523   -0.1562    5.6728 C   0  0  0  0  0  0  0  0  0  0  0  0
   -1.2629   -0.7677    6.2725 H   0  0  0  0  0  0  0  0  0  0  0  0
    0.0886    0.7511    6.1406 C   0  0  0  0  0  0  0  0  0  0  0  0
    0.3011    0.7719    7.0670 H   0  0  0  0  0  0  0  0  0  0  0  0
    3.0171   -0.7773    5.3058 C   0  0  0  0  0  0  0  0  0  0  0  0
    2.5539   -1.6925    4.3591 C   0  0  0  0  0  0  0  0  0  0  0  0
    2.7616   -1.5687    3.4408 H   0  0  0  0  0  0  0  0  0  0  0  0
    1.7851   -2.7902    4.7587 C   0  0  0  0  0  0  0  0  0  0  0  0
    1.4847   -3.4154    4.1096 H   0  0  0  0  0  0  0  0  0  0  0  0
    1.4581   -2.9740    6.0890 C   0  0  0  0  0  0  0  0  0  0  0  0
    0.9223   -3.7142    6.3498 H   0  0  0  0  0  0  0  0  0  0  0  0
    1.9121   -2.0787    7.0375 C   0  0  0  0  0  0  0  0  0  0  0  0
    1.6938   -2.2057    7.9534 H   0  0  0  0  0  0  0  0  0  0  0  0
    2.6909   -0.9873    6.6515 C   0  0  0  0  0  0  0  0  0  0  0  0
    3.0034   -0.3776    7.3103 H   0  0  0  0  0  0  0  0  0  0  0  0
    5.7321    0.1286    5.1846 C   0  0  0  0  0  0  0  0  0  0  0  0
    6.0074   -0.6391    6.3153 C   0  0  0  0  0  0  0  0  0  0  0  0
    5.3004   -0.8839    6.9010 H   0  0  0  0  0  0  0  0  0  0  0  0
    7.3047   -1.0501    6.5961 C   0  0  0  0  0  0  0  0  0  0  0  0
    7.4795   -1.5832    7.3619 H   0  0  0  0  0  0  0  0  0  0  0  0
    8.3437   -0.6820    5.7572 C   0  0  0  0  0  0  0  0  0  0  0  0
    9.2302   -0.9649    5.9469 H   0  0  0  0  0  0  0  0  0  0  0  0
    8.0874    0.0986    4.6428 C   0  0  0  0  0  0  0  0  0  0  0  0
    8.8028    0.3652    4.0774 H   0  0  0  0  0  0  0  0  0  0  0  0
    6.7869    0.4955    4.3477 C   0  0  0  0  0  0  0  0  0  0  0  0
    6.6162    1.0188    3.5730 H   0  0  0  0  0  0  0  0  0  0  0  0
    4.4039    7.1547    5.5719 C   0  0  0  0  0  0  0  0  0  0  0  0
    3.7728    6.3909    5.5617 H   0  0  0  0  0  0  0  0  0  0  0  0
    4.4783    7.5217    4.6560 H   0  0  0  0  0  0  0  0  0  0  0  0
    3.9440    8.2195    6.5406 C   0  0  0  0  0  0  0  0  0  0  0  0
    3.4595    7.8184    7.3055 H   0  0  0  0  0  0  0  0  0  0  0  0
    3.3533    8.8767    6.0936 H   0  0  0  0  0  0  0  0  0  0  0  0
    5.2487    8.8785    7.0006 C   0  0  0  0  0  0  0  0  0  0  0  0
    5.3346    9.7938    6.6318 H   0  0  0  0  0  0  0  0  0  0  0  0
    5.2961    8.9223    7.9888 H   0  0  0  0  0  0  0  0  0  0  0  0
    6.3232    7.9637    6.4446 C   0  0  0  0  0  0  0  0  0  0  0  0
    6.7593    8.3828    5.6600 H   0  0  0  0  0  0  0  0  0  0  0  0
    7.0138    7.7873    7.1314 H   0  0  0  0  0  0  0  0  0  0  0  0
    7.4493    4.2391    9.1639 C   0  0  0  0  0  0  0  0  0  0  0  0
    8.4008    4.4985    9.0735 H   0  0  0  0  0  0  0  0  0  0  0  0
    7.3314    3.3324    8.7850 H   0  0  0  0  0  0  0  0  0  0  0  0
    7.0266    4.2659   10.6190 C   0  0  0  0  0  0  0  0  0  0  0  0
    7.5453    4.9363   11.1315 H   0  0  0  0  0  0  0  0  0  0  0  0
    7.1379    3.3780   11.0413 H   0  0  0  0  0  0  0  0  0  0  0  0
    5.5552    4.6554   10.5338 C   0  0  0  0  0  0  0  0  0  0  0  0
    4.9839    3.8677   10.3483 H   0  0  0  0  0  0  0  0  0  0  0  0
    5.2494    5.0899   11.3684 H   0  0  0  0  0  0  0  0  0  0  0  0
    5.5487    5.6238    9.3755 C   0  0  0  0  0  0  0  0  0  0  0  0
    4.6725    5.6086    8.9155 H   0  0  0  0  0  0  0  0  0  0  0  0
    5.7243    6.5444    9.6923 H   0  0  0  0  0  0  0  0  0  0  0  0
    8.6935    3.4567    5.5195 C   0  0  0  0  0  0  0  0  0  0  0  0
    8.2800    3.1394    4.6786 H   0  0  0  0  0  0  0  0  0  0  0  0
    8.5838    2.7576    6.2128 H   0  0  0  0  0  0  0  0  0  0  0  0
   10.1685    3.7760    5.3056 C   0  0  0  0  0  0  0  0  0  0  0  0
   10.7377    2.9921    5.5085 H   0  0  0  0  0  0  0  0  0  0  0  0
   10.3394    4.0690    4.3756 H   0  0  0  0  0  0  0  0  0  0  0  0
   10.4154    4.8971    6.2834 C   0  0  0  0  0  0  0  0  0  0  0  0
   10.5789    4.5504    7.1959 H   0  0  0  0  0  0  0  0  0  0  0  0
   11.1836    5.4551    6.0049 H   0  0  0  0  0  0  0  0  0  0  0  0
    9.1228    5.6688    6.2127 C   0  0  0  0  0  0  0  0  0  0  0  0
    8.9469    6.1336    7.0702 H   0  0  0  0  0  0  0  0  0  0  0  0
    9.1589    6.3432    5.4876 H   0  0  0  0  0  0  0  0  0  0  0  0
    3.7079    1.5977    6.7914 H   0  0  0  0  0  0  0  0  0  0  0  0
    4.5365    1.8280    2.6092 H   0  0  0  0  0  0  0  0  0  0  0  0
    4.4450    4.1126    6.3724 H   0  0  0  0  0  0  0  0  0  0  0  0
    4.3555   -0.0394    2.4336 H   0  0  0  0  0  0  0  0  0  0  0  0
    5.7643    2.8510    6.4997 H   0  0  0  0  0  0  0  0  0  0  0  0
    2.8464    1.0582    2.5931 H   0  0  0  0  0  0  0  0  0  0  0  0
    0.5442    3.5337    7.8470 H   0  0  0  0  0  0  0  0  0  0  0  0
    2.3714    3.9507    8.0388 H   0  0  0  0  0  0  0  0  0  0  0  0
    1.7682    2.1912    8.3273 H   0  0  0  0  0  0  0  0  0  0  0  0
    5.2334    3.4610    4.8510 H   0  0  0  0  0  0  0  0  0  0  0  0
  1 10  1  0  0  0  0
  2  5  1  0  0  0  0
  3  6  1  0  0  0  0
  4  7  1  0  0  0  0
  5 10  1  0  0  0  0
  6 10  1  0  0  0  0
  7 55  1  0  0  0  0
  8  4  1  0  0  0  0
  9  4  1  0  0  0  0
 10 91  1  0  0  0  0
 11  5  1  0  0  0  0
 12 11  4  0  0  0  0
 13 12  1  0  0  0  0
 14 12  4  0  0  0  0
 15 14  1  0  0  0  0
 16 14  4  0  0  0  0
 17 16  1  0  0  0  0
 18 16  4  0  0  0  0
 19 18  1  0  0  0  0
 20 11  4  0  0  0  0
 21 20  1  0  0  0  0
 22  5  1  0  0  0  0
 23 22  4  0  0  0  0
 24 23  1  0  0  0  0
 25 23  4  0  0  0  0
 26 25  1  0  0  0  0
 27 25  4  0  0  0  0
 28 27  1  0  0  0  0
 29 27  4  0  0  0  0
 30 29  1  0  0  0  0
 31 22  4  0  0  0  0
 32 31  1  0  0  0  0
 33  6  1  0  0  0  0
 34 33  4  0  0  0  0
 35 34  1  0  0  0  0
 36 34  4  0  0  0  0
 37 36  1  0  0  0  0
 38 36  4  0  0  0  0
 39 38  1  0  0  0  0
 40 38  4  0  0  0  0
 41 40  1  0  0  0  0
 42 33  4  0  0  0  0
 43 42  1  0  0  0  0
 44  6  1  0  0  0  0
 45 44  4  0  0  0  0
 46 45  1  0  0  0  0
 47 45  4  0  0  0  0
 48 47  1  0  0  0  0
 49 47  4  0  0  0  0
 50 49  1  0  0  0  0
 51 49  4  0  0  0  0
 52 51  1  0  0  0  0
 53 44  4  0  0  0  0
 54 53  1  0  0  0  0
 55 56  1  0  0  0  0
 57 55  1  0  0  0  0
 58 55  1  0  0  0  0
 59 58  1  0  0  0  0
 60 58  1  0  0  0  0
 61 58  1  0  0  0  0
 62 61  1  0  0  0  0
 63 61  1  0  0  0  0
 64  7  1  0  0  0  0
 65 64  1  0  0  0  0
 66 64  1  0  0  0  0
 67  8  1  0  0  0  0
 68 67  1  0  0  0  0
 69 67  1  0  0  0  0
 70 67  1  0  0  0  0
 71 70  1  0  0  0  0
 72 70  1  0  0  0  0
 73 70  1  0  0  0  0
 74 73  1  0  0  0  0
 75 73  1  0  0  0  0
 76  8  1  0  0  0  0
 77 76  1  0  0  0  0
 78 76  1  0  0  0  0
 79  9  1  0  0  0  0
 80 79  1  0  0  0  0
 81 79  1  0  0  0  0
 82 79  1  0  0  0  0
 83 82  1  0  0  0  0
 84 82  1  0  0  0  0
 85 82  1  0  0  0  0
 86 85  1  0  0  0  0
 87 85  1  0  0  0  0
 88  9  1  0  0  0  0
 89 88  1  0  0  0  0
 90 88  1  0  0  0  0
 92  3  1  0  0  0  0
 93  1  1  0  0  0  0
 94  3  1  0  0  0  0
 95  1  1  0  0  0  0
 96  3  1  0  0  0  0
 97  2  1  0  0  0  0
 98  2  1  0  0  0  0
 99  2  1  0  0  0  0
100  1  1  0  0  0  0
  4 93  1  0  0  0  0
  4 95  1  0  0  0  0
 18 20  4  0  0  0  0
 29 31  4  0  0  0  0
 40 42  4  0  0  0  0
 51 53  4  0  0  0  0
 61 64  1  0  0  0  0
 73 76  1  0  0  0  0
 85 88  1  0  0  0  0
M  CHG  2   1  -1   4   1
M  END
$$$$
FOPFOH

From CSD data. Using bond type 'Any'. No disordered atoms. Largest molecule.
 82 89  0  0  0  0  0  0  0  0999 V2000
    9.3962    4.6710   18.1906 B   0  0  0  0  0  0  0  0  0  0  0  0
    9.9652    4.8479   19.1426 H   0  0  0  0  0  0  0  0  0  0  0  0
    8.2795    4.9207   18.2487 H   0  0  0  0  0  0  0  0  0  0  0  0
    9.5901    3.6515   17.8296 H   0  0  0  0  0  0  0  0  0  0  0  0
    8.5151    7.8825   19.6705 B   0  0  0  0  0  0  0  0  0  0  0  0
    9.2806    7.2822   20.2115 H   0  0  0  0  0  0  0  0  0  0  0  0
    8.2433    8.7595   20.2339 H   0  0  0  0  0  0  0  0  0  0  0  0
    7.6293    7.2406   19.3921 H   0  0  0  0  0  0  0  0  0  0  0  0
    8.3874    5.6032   20.0357 Li  0  0  0  0  0  0  0  0  0  0  0  0
   10.2022    5.7962   16.8409 P   0  0  0  0  0  0  0  0  0  0  0  0
    9.3847    8.5626   18.0693 P   0  0  0  0  0  0  0  0  0  0  0  0
    7.7185    4.6318   21.4853 O   0  0  0  0  0  0  0  0  0  0  0  0
   10.2178    7.5005   17.0097 C   0  0  0  0  0  0  0  0  0  0  0  0
   10.6896    7.9689   16.3603 H   0  0  0  0  0  0  0  0  0  0  0  0
   11.9424    5.2396   16.6553 C   0  0  0  0  0  0  0  0  0  0  0  0
   12.2155    3.9428   16.2094 C   0  0  0  0  0  0  0  0  0  0  0  0
   11.4828    3.3498   15.9618 H   0  0  0  0  0  0  0  0  0  0  0  0
   13.5258    3.4944   16.1024 C   0  0  0  0  0  0  0  0  0  0  0  0
   13.6770    2.6008   15.8053 H   0  0  0  0  0  0  0  0  0  0  0  0
   14.5827    4.3215   16.4391 C   0  0  0  0  0  0  0  0  0  0  0  0
   15.4766    4.0364   16.3435 H   0  0  0  0  0  0  0  0  0  0  0  0
   14.3235    5.6115   16.8773 C   0  0  0  0  0  0  0  0  0  0  0  0
   15.0974    6.1899   17.1462 H   0  0  0  0  0  0  0  0  0  0  0  0
   13.0119    6.0692   16.9851 C   0  0  0  0  0  0  0  0  0  0  0  0
   12.7951    6.9493   17.3026 H   0  0  0  0  0  0  0  0  0  0  0  0
    9.5328    5.3238   15.1978 C   0  0  0  0  0  0  0  0  0  0  0  0
    8.6915    4.2195   15.0287 C   0  0  0  0  0  0  0  0  0  0  0  0
    8.4254    3.7035   15.8016 H   0  0  0  0  0  0  0  0  0  0  0  0
    8.2240    3.8752   13.7570 C   0  0  0  0  0  0  0  0  0  0  0  0
    7.6285    3.1106   13.6823 H   0  0  0  0  0  0  0  0  0  0  0  0
    8.5979    4.6211   12.6601 C   0  0  0  0  0  0  0  0  0  0  0  0
    8.2773    4.4006   11.7995 H   0  0  0  0  0  0  0  0  0  0  0  0
    9.4339    5.7062   12.8122 C   0  0  0  0  0  0  0  0  0  0  0  0
    9.7139    6.1899   12.0696 H   0  0  0  0  0  0  0  0  0  0  0  0
    9.8949    6.0665   14.0760 C   0  0  0  0  0  0  0  0  0  0  0  0
   10.4516    6.8245   14.1535 H   0  0  0  0  0  0  0  0  0  0  0  0
   10.6241    9.7706   18.6874 C   0  0  0  0  0  0  0  0  0  0  0  0
   11.8046    9.2529   19.2340 C   0  0  0  0  0  0  0  0  0  0  0  0
   11.9415    8.3122   19.2338 H   0  0  0  0  0  0  0  0  0  0  0  0
   12.7617   10.0869   19.7873 C   0  0  0  0  0  0  0  0  0  0  0  0
   13.5565    9.6958   20.1799 H   0  0  0  0  0  0  0  0  0  0  0  0
   12.5560   11.4633   19.8050 C   0  0  0  0  0  0  0  0  0  0  0  0
   13.2149   12.0573   20.1724 H   0  0  0  0  0  0  0  0  0  0  0  0
   11.4057   11.9920   19.2498 C   0  0  0  0  0  0  0  0  0  0  0  0
   11.2538   12.9208   19.2655 H   0  0  0  0  0  0  0  0  0  0  0  0
   10.4419   11.1497   18.7019 C   0  0  0  0  0  0  0  0  0  0  0  0
    9.6528   11.5684   18.3008 H   0  0  0  0  0  0  0  0  0  0  0  0
    8.2178    9.6286   17.1371 C   0  0  0  0  0  0  0  0  0  0  0  0
    8.1976    9.6205   15.7416 C   0  0  0  0  0  0  0  0  0  0  0  0
    8.7768    8.9676   15.2857 H   0  0  0  0  0  0  0  0  0  0  0  0
    7.3545   10.4802   15.0468 C   0  0  0  0  0  0  0  0  0  0  0  0
    7.3514   10.4864   14.1442 H   0  0  0  0  0  0  0  0  0  0  0  0
    6.5281   11.3624   15.7303 C   0  0  0  0  0  0  0  0  0  0  0  0
    5.9476   11.9637   15.2224 H   0  0  0  0  0  0  0  0  0  0  0  0
    6.5327   11.3728   17.1119 C   0  0  0  0  0  0  0  0  0  0  0  0
    5.9720   11.9741   17.5708 H   0  0  0  0  0  0  0  0  0  0  0  0
    7.3638   10.5074   17.8142 C   0  0  0  0  0  0  0  0  0  0  0  0
    7.3499   10.4864   18.7738 H   0  0  0  0  0  0  0  0  0  0  0  0
    8.1649    4.8292   22.8703 C   0  0  0  0  0  0  0  0  0  0  0  0
    7.5437    3.6474   23.6203 C   0  0  0  0  0  0  0  0  0  0  0  0
    8.1597    2.8817   23.5786 H   0  0  0  0  0  0  0  0  0  0  0  0
    7.3568    3.8804   24.5376 H   0  0  0  0  0  0  0  0  0  0  0  0
    6.2675    3.3665   22.8392 C   0  0  0  0  0  0  0  0  0  0  0  0
    5.5931    3.9844   23.0646 H   0  0  0  0  0  0  0  0  0  0  0  0
    5.9325    2.4552   22.9137 H   0  0  0  0  0  0  0  0  0  0  0  0
    6.6739    3.6087   21.3896 C   0  0  0  0  0  0  0  0  0  0  0  0
    7.6126    6.1670   23.3441 C   0  0  0  0  0  0  0  0  0  0  0  0
    6.6319    6.1587   23.3420 H   0  0  0  0  0  0  0  0  0  0  0  0
    7.9495    6.3876   24.2434 H   0  0  0  0  0  0  0  0  0  0  0  0
    7.9049    6.8557   22.7480 H   0  0  0  0  0  0  0  0  0  0  0  0
    9.6809    4.8219   22.8759 C   0  0  0  0  0  0  0  0  0  0  0  0
   10.0678    5.5865   22.3550 H   0  0  0  0  0  0  0  0  0  0  0  0
   10.0155    4.0260   22.4537 H   0  0  0  0  0  0  0  0  0  0  0  0
   10.0044    4.8791   23.8113 H   0  0  0  0  0  0  0  0  0  0  0  0
    5.5594    4.1790   20.5348 C   0  0  0  0  0  0  0  0  0  0  0  0
    5.9121    4.2653   19.6119 H   0  0  0  0  0  0  0  0  0  0  0  0
    4.8459    3.5579   20.4909 H   0  0  0  0  0  0  0  0  0  0  0  0
    5.2126    5.0872   20.9192 H   0  0  0  0  0  0  0  0  0  0  0  0
    7.2778    2.3751   20.7505 C   0  0  0  0  0  0  0  0  0  0  0  0
    7.9655    2.0182   21.2507 H   0  0  0  0  0  0  0  0  0  0  0  0
    7.6332    2.6216   19.8744 H   0  0  0  0  0  0  0  0  0  0  0  0
    6.5690    1.6957   20.6510 H   0  0  0  0  0  0  0  0  0  0  0  0
  1  2  1  0  0  0  0
  2  9  1  0  0  0  0
  3  1  1  0  0  0  0
  4  1  1  0  0  0  0
  5  6  1  0  0  0  0
  6  9  1  0  0  0  0
  7  5  1  0  0  0  0
  8  5  1  0  0  0  0
  9  3  1  0  0  0  0
 10  1  1  0  0  0  0
 11  5  1  0  0  0  0
 12  9  1  0  0  0  0
 13 10  8  0  0  0  0
 14 13  1  0  0  0  0
 15 10  1  0  0  0  0
 16 15  4  0  0  0  0
 17 16  1  0  0  0  0
 18 16  4  0  0  0  0
 19 18  1  0  0  0  0
 20 18  4  0  0  0  0
 21 20  1  0  0  0  0
 22 20  4  0  0  0  0
 23 22  1  0  0  0  0
 24 15  4  0  0  0  0
 25 24  1  0  0  0  0
 26 10  1  0  0  0  0
 27 26  4  0  0  0  0
 28 27  1  0  0  0  0
 29 27  4  0  0  0  0
 30 29  1  0  0  0  0
 31 29  4  0  0  0  0
 32 31  1  0  0  0  0
 33 31  4  0  0  0  0
 34 33  1  0  0  0  0
 35 26  4  0  0  0  0
 36 35  1  0  0  0  0
 37 11  1  0  0  0  0
 38 37  4  0  0  0  0
 39 38  1  0  0  0  0
 40 38  4  0  0  0  0
 41 40  1  0  0  0  0
 42 40  4  0  0  0  0
 43 42  1  0  0  0  0
 44 42  4  0  0  0  0
 45 44  1  0  0  0  0
 46 37  4  0  0  0  0
 47 46  1  0  0  0  0
 48 11  1  0  0  0  0
 49 48  4  0  0  0  0
 50 49  1  0  0  0  0
 51 49  4  0  0  0  0
 52 51  1  0  0  0  0
 53 51  4  0  0  0  0
 54 53  1  0  0  0  0
 55 53  4  0  0  0  0
 56 55  1  0  0  0  0
 57 48  4  0  0  0  0
 58 57  1  0  0  0  0
 59 12  1  0  0  0  0
 60 59  1  0  0  0  0
 61 60  1  0  0  0  0
 62 60  1  0  0  0  0
 63 60  1  0  0  0  0
 64 63  1  0  0  0  0
 65 63  1  0  0  0  0
 66 12  1  0  0  0  0
 67 59  1  0  0  0  0
 68 67  1  0  0  0  0
 69 67  1  0  0  0  0
 70 67  1  0  0  0  0
 71 59  1  0  0  0  0
 72 71  1  0  0  0  0
 73 71  1  0  0  0  0
 74 71  1  0  0  0  0
 75 66  1  0  0  0  0
 76 75  1  0  0  0  0
 77 75  1  0  0  0  0
 78 75  1  0  0  0  0
 79 66  1  0  0  0  0
 80 79  1  0  0  0  0
 81 79  1  0  0  0  0
 82 79  1  0  0  0  0
  8  9  1  0  0  0  0
 11 13  8  0  0  0  0
 22 24  4  0  0  0  0
 33 35  4  0  0  0  0
 44 46  4  0  0  0  0
 55 57  4  0  0  0  0
 63 66  1  0  0  0  0
M  END
$$$$
FOPFUN

From CSD data. Using bond type 'Any'. No disordered atoms. Largest molecule.
 93102  0  0  0  0  0  0  0  0999 V2000
    2.4329   12.9245    6.4861 K   0  3  0  0  0  0  0  0  0  0  0  0
    5.2970   12.8765    7.9120 B   0  0  0  0  0  0  0  0  0  0  0  0
    4.4116   12.2572    8.2645 H   0  0  0  0  0  0  0  0  0  0  0  0
    5.2571   13.2237    6.8544 H   0  0  0  0  0  0  0  0  0  0  0  0
    6.3030   12.3692    8.0947 H   0  0  0  0  0  0  0  0  0  0  0  0
    2.5190   14.9742    8.9995 B   0  5  0  0  0  0  0  0  0  0  0  0
    2.6174   13.8471    9.2450 H   0  0  0  0  0  0  0  0  0  0  0  0
    2.0551   15.0868    7.9511 H   0  0  0  0  0  0  0  0  0  0  0  0
    1.8686   15.4805    9.7764 H   0  0  0  0  0  0  0  0  0  0  0  0
    4.4764   16.1641    5.8854 B   0  0  0  0  0  0  0  0  0  0  0  0
    3.5717   15.5491    5.6533 H   0  0  0  0  0  0  0  0  0  0  0  0
    5.4459   15.5771    5.8883 H   0  0  0  0  0  0  0  0  0  0  0  0
    4.5914   17.1040    5.2355 H   0  0  0  0  0  0  0  0  0  0  0  0
    5.3197   14.4004    9.1292 P   0  0  0  0  0  0  0  0  0  0  0  0
    4.2423   16.8741    7.6491 P   0  0  0  0  0  0  0  0  0  0  0  0
    2.7227   10.2631    5.9927 O   0  0  0  0  0  0  0  0  0  0  0  0
    3.6729   12.1817    4.1214 O   0  0  0  0  0  0  0  0  0  0  0  0
    0.2007   12.4796    4.8268 O   0  0  0  0  0  0  0  0  0  0  0  0
    0.0311   12.1220    7.5973 O   0  0  0  0  0  0  0  0  0  0  0  0
    4.0477   15.7046    9.0245 C   0  0  0  0  0  0  0  0  0  0  0  0
    4.1846   16.2201    9.8260 H   0  0  0  0  0  0  0  0  0  0  0  0
    5.1683   13.7780   10.8353 C   0  0  0  0  0  0  0  0  0  0  0  0
    4.3257   14.3371   11.7965 C   0  0  0  0  0  0  0  0  0  0  0  0
    3.7773   15.0952   11.5925 H   0  0  0  0  0  0  0  0  0  0  0  0
    4.2713   13.7935   13.0776 C   0  0  0  0  0  0  0  0  0  0  0  0
    3.7617   14.2323   13.7088 H   0  0  0  0  0  0  0  0  0  0  0  0
    5.0410   12.6895   13.4040 C   0  0  0  0  0  0  0  0  0  0  0  0
    4.9909   12.3132   14.2833 H   0  0  0  0  0  0  0  0  0  0  0  0
    5.8722   12.1213   12.4513 C   0  0  0  0  0  0  0  0  0  0  0  0
    6.3896   11.3494   12.6787 H   0  0  0  0  0  0  0  0  0  0  0  0
    5.9417   12.6658   11.1778 C   0  0  0  0  0  0  0  0  0  0  0  0
    6.4956   12.2684   10.5336 H   0  0  0  0  0  0  0  0  0  0  0  0
    6.9674   15.1852    9.1330 C   0  0  0  0  0  0  0  0  0  0  0  0
    7.8570   14.9493    8.0846 C   0  0  0  0  0  0  0  0  0  0  0  0
    7.6134   14.3724    7.3506 H   0  0  0  0  0  0  0  0  0  0  0  0
    9.1164   15.5371    8.0961 C   0  0  0  0  0  0  0  0  0  0  0  0
    9.7354   15.3670    7.3767 H   0  0  0  0  0  0  0  0  0  0  0  0
    9.4936   16.3567    9.1392 C   0  0  0  0  0  0  0  0  0  0  0  0
   10.3470   16.7398    9.1392 H   0  0  0  0  0  0  0  0  0  0  0  0
    8.6133   16.6136   10.1738 C   0  0  0  0  0  0  0  0  0  0  0  0
    8.8820   17.1895   10.8587 H   0  0  0  0  0  0  0  0  0  0  0  0
    7.3561   16.0266   10.1713 C   0  0  0  0  0  0  0  0  0  0  0  0
    6.7581   16.1935   10.8626 H   0  0  0  0  0  0  0  0  0  0  0  0
    5.5892   18.0242    8.0733 C   0  0  0  0  0  0  0  0  0  0  0  0
    6.6748   18.1891    7.2157 C   0  0  0  0  0  0  0  0  0  0  0  0
    6.7119   17.6980    6.4223 H   0  0  0  0  0  0  0  0  0  0  0  0
    7.6758   19.1040    7.5217 C   0  0  0  0  0  0  0  0  0  0  0  0
    8.4321   19.2052    6.9328 H   0  0  0  0  0  0  0  0  0  0  0  0
    7.6183   19.8471    8.6875 C   0  0  0  0  0  0  0  0  0  0  0  0
    8.3129   20.4940    8.8912 H   0  0  0  0  0  0  0  0  0  0  0  0
    6.5547   19.6726    9.5581 C   0  0  0  0  0  0  0  0  0  0  0  0
    6.5106   20.1438   10.3273 H   0  0  0  0  0  0  0  0  0  0  0  0
    5.5447   18.7758    9.2518 C   0  0  0  0  0  0  0  0  0  0  0  0
    4.8119   18.6659    9.8038 H   0  0  0  0  0  0  0  0  0  0  0  0
    2.7810   17.9678    7.7109 C   0  0  0  0  0  0  0  0  0  0  0  0
    2.3122   18.5289    6.5235 C   0  0  0  0  0  0  0  0  0  0  0  0
    2.6906   18.3045    5.7185 H   0  0  0  0  0  0  0  0  0  0  0  0
    1.2675   19.4411    6.5346 C   0  0  0  0  0  0  0  0  0  0  0  0
    0.9769   19.8076    5.7185 H   0  0  0  0  0  0  0  0  0  0  0  0
   -0.0273   20.4240    7.7422 H   0  0  0  0  0  0  0  0  0  0  0  0
    0.6709   19.8016    7.7305 C   0  0  0  0  0  0  0  0  0  0  0  0
    1.1300   19.2492    8.9186 C   0  0  0  0  0  0  0  0  0  0  0  0
    0.7211   19.4434    9.7398 H   0  0  0  0  0  0  0  0  0  0  0  0
    2.1704   18.3342    8.9143 C   0  0  0  0  0  0  0  0  0  0  0  0
    2.4318   17.9445    9.6876 H   0  0  0  0  0  0  0  0  0  0  0  0
    1.9807    9.2384    6.5868 C   0  0  0  0  0  0  0  0  0  0  0  0
    1.6154    9.5536    7.4406 H   0  0  0  0  0  0  0  0  0  0  0  0
    2.5607    8.4652    6.7461 H   0  0  0  0  0  0  0  0  0  0  0  0
    1.2465    8.9807    5.9927 H   0  0  0  0  0  0  0  0  0  0  0  0
    3.3522    9.9220    4.7798 C   0  0  0  0  0  0  0  0  0  0  0  0
    3.7562    9.0493    4.8568 H   0  0  0  0  0  0  0  0  0  0  0  0
    2.6307    9.8618    4.1518 H   0  0  0  0  0  0  0  0  0  0  0  0
    4.3021   10.9404    4.3529 C   0  0  0  0  0  0  0  0  0  0  0  0
    4.7109   10.6462    3.4860 H   0  0  0  0  0  0  0  0  0  0  0  0
    5.0717   11.0385    5.2224 H   0  0  0  0  0  0  0  0  0  0  0  0
    4.5703   13.1397    3.5865 C   0  0  0  0  0  0  0  0  0  0  0  0
    4.0364   14.0222    3.4468 H   0  0  0  0  0  0  0  0  0  0  0  0
    5.3860   13.2518    4.3216 H   0  0  0  0  0  0  0  0  0  0  0  0
    4.9248   12.7755    2.7809 H   0  0  0  0  0  0  0  0  0  0  0  0
    0.4300   12.1955    3.4442 C   0  0  0  0  0  0  0  0  0  0  0  0
    0.6464   11.2486    3.3554 H   0  0  0  0  0  0  0  0  0  0  0  0
   -0.4468   12.3132    2.9768 H   0  0  0  0  0  0  0  0  0  0  0  0
    1.1369   12.8735    3.0682 H   0  0  0  0  0  0  0  0  0  0  0  0
   -0.7553   11.5946    5.4156 C   0  0  0  0  0  0  0  0  0  0  0  0
   -0.3035   10.6602    5.4313 H   0  0  0  0  0  0  0  0  0  0  0  0
   -1.5943   11.5568    4.8307 H   0  0  0  0  0  0  0  0  0  0  0  0
   -1.1240   12.0751    6.7735 C   0  0  0  0  0  0  0  0  0  0  0  0
   -1.8116   11.4867    7.2853 H   0  0  0  0  0  0  0  0  0  0  0  0
   -1.5857   12.9716    6.7761 H   0  0  0  0  0  0  0  0  0  0  0  0
   -0.2757   12.6130    8.8990 C   0  0  0  0  0  0  0  0  0  0  0  0
   -0.7780   13.5459    8.8781 H   0  0  0  0  0  0  0  0  0  0  0  0
    0.6437   12.7615    9.4265 H   0  0  0  0  0  0  0  0  0  0  0  0
   -0.8680   11.9630    9.3873 H   0  0  0  0  0  0  0  0  0  0  0  0
  1  3  1  0  0  0  0
  2  3  1  0  0  0  0
  4  1  1  0  0  0  0
  5  2  1  0  0  0  0
  6  7  1  0  0  0  0
  7  1  1  0  0  0  0
  8  1  1  0  0  0  0
  9  6  1  0  0  0  0
 10 11  1  0  0  0  0
 11  1  1  0  0  0  0
 12 10  1  0  0  0  0
 13 10  1  0  0  0  0
 14  2  1  0  0  0  0
 15 10  1  0  0  0  0
 16  1  1  0  0  0  0
 17  1  1  0  0  0  0
 18  1  1  0  0  0  0
 19  1  1  0  0  0  0
 20  6  1  0  0  0  0
 21 20  1  0  0  0  0
 22 14  1  0  0  0  0
 23 22  4  0  0  0  0
 24 23  1  0  0  0  0
 25 23  4  0  0  0  0
 26 25  1  0  0  0  0
 27 25  4  0  0  0  0
 28 27  1  0  0  0  0
 29 27  4  0  0  0  0
 30 29  1  0  0  0  0
 31 22  4  0  0  0  0
 32 31  1  0  0  0  0
 33 14  1  0  0  0  0
 34 33  4  0  0  0  0
 35 34  1  0  0  0  0
 36 34  4  0  0  0  0
 37 36  1  0  0  0  0
 38 36  4  0  0  0  0
 39 38  1  0  0  0  0
 40 38  4  0  0  0  0
 41 40  1  0  0  0  0
 42 33  4  0  0  0  0
 43 42  1  0  0  0  0
 44 15  1  0  0  0  0
 45 44  4  0  0  0  0
 46 45  1  0  0  0  0
 47 45  4  0  0  0  0
 48 47  1  0  0  0  0
 49 47  4  0  0  0  0
 50 49  1  0  0  0  0
 51 49  4  0  0  0  0
 52 51  1  0  0  0  0
 53 44  4  0  0  0  0
 54 53  1  0  0  0  0
 55 15  1  0  0  0  0
 56 55  4  0  0  0  0
 57 56  1  0  0  0  0
 58 56  4  0  0  0  0
 59 58  1  0  0  0  0
 60 61  1  0  0  0  0
 61 58  4  0  0  0  0
 62 61  4  0  0  0  0
 63 62  1  0  0  0  0
 64 55  4  0  0  0  0
 65 64  1  0  0  0  0
 66 16  1  0  0  0  0
 67 66  1  0  0  0  0
 68 66  1  0  0  0  0
 69 66  1  0  0  0  0
 70 16  1  0  0  0  0
 71 70  1  0  0  0  0
 72 70  1  0  0  0  0
 73 17  1  0  0  0  0
 74 73  1  0  0  0  0
 75 73  1  0  0  0  0
 76 17  1  0  0  0  0
 77 76  1  0  0  0  0
 78 76  1  0  0  0  0
 79 76  1  0  0  0  0
 80 18  1  0  0  0  0
 81 80  1  0  0  0  0
 82 80  1  0  0  0  0
 83 80  1  0  0  0  0
 84 18  1  0  0  0  0
 85 84  1  0  0  0  0
 86 84  1  0  0  0  0
 87 19  1  0  0  0  0
 88 87  1  0  0  0  0
 89 87  1  0  0  0  0
 90 19  1  0  0  0  0
 91 90  1  0  0  0  0
 92 90  1  0  0  0  0
 93 90  1  0  0  0  0
  2  4  1  0  0  0  0
  6  8  1  0  0  0  0
 14 20  1  0  0  0  0
 15 20  1  0  0  0  0
 29 31  4  0  0  0  0
 40 42  4  0  0  0  0
 51 53  4  0  0  0  0
 62 64  4  0  0  0  0
 70 73  1  0  0  0  0
 84 87  1  0  0  0  0
M  CHG  2   1   1   6  -1
M  END
$$$$
FOTHAY

From CSD data. Using bond type 'Any'. No disordered atoms. Largest molecule.
 47 46  0  0  0  0  0  0  0  0999 V2000
    1.5150    4.3930    2.6870 W   0  0  0  0  0  0  0  0  0  0  0  0
   -0.4219    3.1430    1.3274 Br  0  0  0  0  0  0  0  0  0  0  0  0
   -0.1678    6.4305    2.9394 Br  0  0  0  0  0  0  0  0  0  0  0  0
    2.1614    5.3721    0.4274 P   0  0  0  0  0  0  0  0  0  0  0  0
    1.5349    6.5975    0.3157 H   0  0  0  0  0  0  0  0  0  0  0  0
    1.3779    4.8027   -0.5524 H   0  0  0  0  0  0  0  0  0  0  0  0
   -0.0297    3.6849    4.5584 P   0  0  0  0  0  0  0  0  0  0  0  0
   -0.1047    2.3023    4.6563 H   0  0  0  0  0  0  0  0  0  0  0  0
   -1.2907    3.8867    3.9460 H   0  0  0  0  0  0  0  0  0  0  0  0
    4.3152    5.9167   -1.6159 N   0  3  0  0  0  0  0  0  0  0  0  0
   -1.1529    4.8027    7.0989 N   0  3  0  0  0  0  0  0  0  0  0  0
    3.4308    3.3037    4.8950 O   0  0  0  0  0  0  0  0  0  0  0  0
    3.1901    2.1278    1.3199 O   0  0  0  0  0  0  0  0  0  0  0  0
    3.4029    6.7423    3.5593 O   0  0  0  0  0  0  0  0  0  0  0  0
    2.6896    3.7084    4.0841 C   0  0  0  0  0  0  0  0  0  0  0  0
    2.6023    2.9522    1.8408 C   0  0  0  0  0  0  0  0  0  0  0  0
    2.7541    5.8721    3.2199 C   0  0  0  0  0  0  0  0  0  0  0  0
    4.0256    5.3287   -0.1421 B   0  5  0  0  0  0  0  0  0  0  0  0
    4.5524    5.6691    0.6511 H   0  0  0  0  0  0  0  0  0  0  0  0
    4.2907    4.2333   -0.0592 H   0  0  0  0  0  0  0  0  0  0  0  0
    0.2110    4.6356    6.2722 B   0  5  0  0  0  0  0  0  0  0  0  0
    0.5407    5.6196    6.0768 H   0  0  0  0  0  0  0  0  0  0  0  0
    0.8023    4.0971    6.8660 H   0  0  0  0  0  0  0  0  0  0  0  0
    3.6750    7.2411   -1.8231 C   0  0  0  0  0  0  0  0  0  0  0  0
    4.0064    7.8724   -1.1522 H   0  0  0  0  0  0  0  0  0  0  0  0
    2.7035    7.1520   -1.7382 H   0  0  0  0  0  0  0  0  0  0  0  0
    3.8948    7.5729   -2.7188 H   0  0  0  0  0  0  0  0  0  0  0  0
    3.8181    4.9636   -2.6478 C   0  0  0  0  0  0  0  0  0  0  0  0
    2.8378    4.9438   -2.6280 H   0  0  0  0  0  0  0  0  0  0  0  0
    4.1669    4.0674   -2.4584 H   0  0  0  0  0  0  0  0  0  0  0  0
    4.1215    5.2532   -3.5317 H   0  0  0  0  0  0  0  0  0  0  0  0
    5.7838    6.0726   -1.7619 C   0  0  0  0  0  0  0  0  0  0  0  0
    5.9931    6.3412   -2.6813 H   0  0  0  0  0  0  0  0  0  0  0  0
    6.2250    5.2210   -1.5626 H   0  0  0  0  0  0  0  0  0  0  0  0
    6.1012    6.7596   -1.1404 H   0  0  0  0  0  0  0  0  0  0  0  0
   -1.8332    3.5562    7.4185 C   0  0  0  0  0  0  0  0  0  0  0  0
   -2.5116    3.7221    8.1051 H   0  0  0  0  0  0  0  0  0  0  0  0
   -1.1826    2.9051    7.7539 H   0  0  0  0  0  0  0  0  0  0  0  0
   -2.2640    3.2034    6.6115 H   0  0  0  0  0  0  0  0  0  0  0  0
   -0.7622    5.5045    8.3853 C   0  0  0  0  0  0  0  0  0  0  0  0
   -1.5628    5.6567    8.9298 H   0  0  0  0  0  0  0  0  0  0  0  0
   -0.3419    6.3635    8.1741 H   0  0  0  0  0  0  0  0  0  0  0  0
   -0.1308    4.9450    8.8844 H   0  0  0  0  0  0  0  0  0  0  0  0
   -2.1035    5.7174    6.3787 C   0  0  0  0  0  0  0  0  0  0  0  0
   -2.4314    5.2755    5.5678 H   0  0  0  0  0  0  0  0  0  0  0  0
   -1.6395    6.5455    6.1360 H   0  0  0  0  0  0  0  0  0  0  0  0
   -2.8622    5.9266    6.9647 H   0  0  0  0  0  0  0  0  0  0  0  0
  1  2  1  0  0  0  0
  3  1  1  0  0  0  0
  4  1  1  0  0  0  0
  5  4  1  0  0  0  0
  6  4  1  0  0  0  0
  7  1  1  0  0  0  0
  8  7  1  0  0  0  0
  9  7  1  0  0  0  0
 10 18  1  0  0  0  0
 11 21  1  0  0  0  0
 12 15  3  0  0  0  0
 13 16  3  0  0  0  0
 14 17  3  0  0  0  0
 15  1  1  0  0  0  0
 16  1  1  0  0  0  0
 17  1  1  0  0  0  0
 18  4  1  0  0  0  0
 19 18  1  0  0  0  0
 20 18  1  0  0  0  0
 21  7  1  0  0  0  0
 22 21  1  0  0  0  0
 23 21  1  0  0  0  0
 24 10  1  0  0  0  0
 25 24  1  0  0  0  0
 26 24  1  0  0  0  0
 27 24  1  0  0  0  0
 28 10  1  0  0  0  0
 29 28  1  0  0  0  0
 30 28  1  0  0  0  0
 31 28  1  0  0  0  0
 32 10  1  0  0  0  0
 33 32  1  0  0  0  0
 34 32  1  0  0  0  0
 35 32  1  0  0  0  0
 36 11  1  0  0  0  0
 37 36  1  0  0  0  0
 38 36  1  0  0  0  0
 39 36  1  0  0  0  0
 40 11  1  0  0  0  0
 41 40  1  0  0  0  0
 42 40  1  0  0  0  0
 43 40  1  0  0  0  0
 44 11  1  0  0  0  0
 45 44  1  0  0  0  0
 46 44  1  0  0  0  0
 47 44  1  0  0  0  0
M  CHG  4  10   1  11   1  18  -1  21  -1
M  END
$$$$
FOWBOM

From CSD data. Using bond type 'Any'. No disordered atoms. Largest molecule.
 82 99  0  0  0  0  0  0  0  0999 V2000
    1.6001   12.0143    8.4193 P   0  0  0  0  0  0  0  0  0  0  0  0
   -0.1409    9.3795   11.3196 P   0  3  0  0  0  0  0  0  0  0  0  0
    1.9217   10.5960    9.1309 O   0  0  0  0  0  0  0  0  0  0  0  0
    4.3926    8.0524   13.3920 O   0  0  0  0  0  0  0  0  0  0  0  0
    3.8905    7.6518   13.8625 H   0  0  0  0  0  0  0  0  0  0  0  0
    0.0125   12.4417    8.9013 C   0  0  0  0  0  0  0  0  0  0  0  0
   -0.9154   10.8833   10.8159 C   0  0  0  0  0  0  0  0  0  0  0  0
    2.4751   10.0612   10.2982 C   0  0  0  0  0  0  0  0  0  0  0  0
    1.6806    9.5236   11.3238 C   0  0  0  0  0  0  0  0  0  0  0  0
    2.3455    8.8628   12.3687 C   0  0  0  0  0  0  0  0  0  0  0  0
    1.8340    8.5033   13.0838 H   0  0  0  0  0  0  0  0  0  0  0  0
    3.7270    8.7172   12.3919 C   0  0  0  0  0  0  0  0  0  0  0  0
    4.4861    9.2585   11.3711 C   0  0  0  0  0  0  0  0  0  0  0  0
    5.4332    9.1803   11.3834 H   0  0  0  0  0  0  0  0  0  0  0  0
    3.8549    9.9133   10.3346 C   0  0  0  0  0  0  0  0  0  0  0  0
    4.3772   10.2727    9.6273 H   0  0  0  0  0  0  0  0  0  0  0  0
    1.7452   11.5077    6.6305 C   0  0  0  0  0  0  0  0  0  0  0  0
    2.9820   10.6315    6.3826 C   0  0  0  0  0  0  0  0  0  0  0  0
    3.7889   11.1250    6.6397 H   0  0  0  0  0  0  0  0  0  0  0  0
    3.0314   10.3974    5.4323 H   0  0  0  0  0  0  0  0  0  0  0  0
    2.9153    9.8132    6.9176 H   0  0  0  0  0  0  0  0  0  0  0  0
    1.7704   12.7737    5.7663 C   0  0  0  0  0  0  0  0  0  0  0  0
    1.0108   13.3458    6.0029 H   0  0  0  0  0  0  0  0  0  0  0  0
    1.7101   12.5249    4.8205 H   0  0  0  0  0  0  0  0  0  0  0  0
    2.6069   13.2599    5.9235 H   0  0  0  0  0  0  0  0  0  0  0  0
    0.5129   10.7070    6.1767 C   0  0  0  0  0  0  0  0  0  0  0  0
    0.4484    9.8811    6.7003 H   0  0  0  0  0  0  0  0  0  0  0  0
    0.5987   10.4854    5.2260 H   0  0  0  0  0  0  0  0  0  0  0  0
   -0.2952   11.2448    6.3148 H   0  0  0  0  0  0  0  0  0  0  0  0
    2.8554   13.2993    8.8880 C   0  0  0  0  0  0  0  0  0  0  0  0
    4.2567   13.0362    8.3236 C   0  0  0  0  0  0  0  0  0  0  0  0
    4.5635   12.1505    8.6103 H   0  0  0  0  0  0  0  0  0  0  0  0
    4.8762   13.7194    8.6553 H   0  0  0  0  0  0  0  0  0  0  0  0
    4.2266   13.0702    7.3447 H   0  0  0  0  0  0  0  0  0  0  0  0
    2.9623   13.3385   10.4267 C   0  0  0  0  0  0  0  0  0  0  0  0
    2.0828   13.5346   10.8109 H   0  0  0  0  0  0  0  0  0  0  0  0
    3.5979   14.0360   10.6922 H   0  0  0  0  0  0  0  0  0  0  0  0
    3.2759   12.4696   10.7545 H   0  0  0  0  0  0  0  0  0  0  0  0
    2.3777   14.6763    8.3603 C   0  0  0  0  0  0  0  0  0  0  0  0
    2.5818   14.7484    7.4045 H   0  0  0  0  0  0  0  0  0  0  0  0
    2.8384   15.3907    8.8477 H   0  0  0  0  0  0  0  0  0  0  0  0
    1.4105   14.7601    8.4949 H   0  0  0  0  0  0  0  0  0  0  0  0
   -0.4980    7.9375   10.2195 C   0  0  0  0  0  0  0  0  0  0  0  0
   -1.4247    8.0499    9.8609 H   0  0  0  0  0  0  0  0  0  0  0  0
   -0.4378    6.5926   10.9407 C   0  0  0  0  0  0  0  0  0  0  0  0
    0.4578    6.4637   11.3172 H   0  0  0  0  0  0  0  0  0  0  0  0
   -0.6317    5.8721   10.3053 H   0  0  0  0  0  0  0  0  0  0  0  0
   -1.1006    6.5789   11.6624 H   0  0  0  0  0  0  0  0  0  0  0  0
    0.4581    7.8516    9.0246 C   0  0  0  0  0  0  0  0  0  0  0  0
    0.4700    8.7108    8.5534 H   0  0  0  0  0  0  0  0  0  0  0  0
    0.1546    7.1480    8.4135 H   0  0  0  0  0  0  0  0  0  0  0  0
    1.3606    7.6409    9.3429 H   0  0  0  0  0  0  0  0  0  0  0  0
   -0.6642    8.8774   13.0059 C   0  0  0  0  0  0  0  0  0  0  0  0
   -0.1971    8.0188   13.2176 H   0  0  0  0  0  0  0  0  0  0  0  0
   -2.1800    8.5908   13.0282 C   0  0  0  0  0  0  0  0  0  0  0  0
   -2.6726    9.4233   12.8691 H   0  0  0  0  0  0  0  0  0  0  0  0
   -2.4310    8.2252   13.9022 H   0  0  0  0  0  0  0  0  0  0  0  0
   -2.4007    7.9422   12.3274 H   0  0  0  0  0  0  0  0  0  0  0  0
   -0.2796    9.8809   14.0920 C   0  0  0  0  0  0  0  0  0  0  0  0
    0.6734   10.0951   14.0165 H   0  0  0  0  0  0  0  0  0  0  0  0
   -0.4586    9.4924   14.9737 H   0  0  0  0  0  0  0  0  0  0  0  0
   -0.8082   10.6990   13.9823 H   0  0  0  0  0  0  0  0  0  0  0  0
   -0.3904   12.2775   11.3719 B   0  0  0  0  0  0  0  0  0  0  0  0
    0.4606   12.3191   12.0918 H   0  0  0  0  0  0  0  0  0  0  0  0
   -0.4557   13.6107    9.9813 B   0  0  0  0  0  0  0  0  0  0  0  0
    0.1308   14.5369   10.0832 H   0  0  0  0  0  0  0  0  0  0  0  0
   -1.1983   13.2273    8.3067 B   0  0  0  0  0  0  0  0  0  0  0  0
   -1.1844   13.8479    7.3906 H   0  0  0  0  0  0  0  0  0  0  0  0
   -1.0131   11.2138    9.0529 B   0  5  0  0  0  0  0  0  0  0  0  0
   -0.9547   10.3348    8.4090 H   0  0  0  0  0  0  0  0  0  0  0  0
   -2.0698   11.7473   11.7116 B   0  0  0  0  0  0  0  0  0  0  0  0
   -2.4095   11.4048   12.6826 H   0  0  0  0  0  0  0  0  0  0  0  0
   -1.6934   13.4106   11.2654 B   0  0  0  0  0  0  0  0  0  0  0  0
   -1.7932   14.2450   11.9587 H   0  0  0  0  0  0  0  0  0  0  0  0
   -2.2614   13.7671    9.5974 B   0  0  0  0  0  0  0  0  0  0  0  0
   -2.8193   14.7606    9.3809 H   0  0  0  0  0  0  0  0  0  0  0  0
   -2.6329   12.1862    8.8757 B   0  0  0  0  0  0  0  0  0  0  0  0
   -3.3791   11.9365    8.1428 H   0  0  0  0  0  0  0  0  0  0  0  0
   -2.4475   10.9655   10.1574 B   0  0  0  0  0  0  0  0  0  0  0  0
   -3.0260   10.0171   10.0882 H   0  0  0  0  0  0  0  0  0  0  0  0
   -3.1171   12.5636   10.5501 B   0  0  0  0  0  0  0  0  0  0  0  0
   -4.1705   12.7617   10.8487 H   0  0  0  0  0  0  0  0  0  0  0  0
  1  3  1  0  0  0  0
  2  7  1  0  0  0  0
  3  8  1  0  0  0  0
  4  5  1  0  0  0  0
  6  1  1  0  0  0  0
  7 63  1  0  0  0  0
  8  9  4  0  0  0  0
  9  2  1  0  0  0  0
 10  9  4  0  0  0  0
 11 10  1  0  0  0  0
 12  4  1  0  0  0  0
 13 12  4  0  0  0  0
 14 13  1  0  0  0  0
 15  8  4  0  0  0  0
 16 15  1  0  0  0  0
 17  1  1  0  0  0  0
 18 17  1  0  0  0  0
 19 18  1  0  0  0  0
 20 18  1  0  0  0  0
 21 18  1  0  0  0  0
 22 17  1  0  0  0  0
 23 22  1  0  0  0  0
 24 22  1  0  0  0  0
 25 22  1  0  0  0  0
 26 17  1  0  0  0  0
 27 26  1  0  0  0  0
 28 26  1  0  0  0  0
 29 26  1  0  0  0  0
 30  1  1  0  0  0  0
 31 30  1  0  0  0  0
 32 31  1  0  0  0  0
 33 31  1  0  0  0  0
 34 31  1  0  0  0  0
 35 30  1  0  0  0  0
 36 35  1  0  0  0  0
 37 35  1  0  0  0  0
 38 35  1  0  0  0  0
 39 30  1  0  0  0  0
 40 39  1  0  0  0  0
 41 39  1  0  0  0  0
 42 39  1  0  0  0  0
 43  2  1  0  0  0  0
 44 43  1  0  0  0  0
 45 43  1  0  0  0  0
 46 45  1  0  0  0  0
 47 45  1  0  0  0  0
 48 45  1  0  0  0  0
 49 43  1  0  0  0  0
 50 49  1  0  0  0  0
 51 49  1  0  0  0  0
 52 49  1  0  0  0  0
 53  2  1  0  0  0  0
 54 53  1  0  0  0  0
 55 53  1  0  0  0  0
 56 55  1  0  0  0  0
 57 55  1  0  0  0  0
 58 55  1  0  0  0  0
 59 53  1  0  0  0  0
 60 59  1  0  0  0  0
 61 59  1  0  0  0  0
 62 59  1  0  0  0  0
 63 64  1  0  0  0  0
 65  6  1  0  0  0  0
 66 65  1  0  0  0  0
 67  6  1  0  0  0  0
 68 67  1  0  0  0  0
 69  6  1  0  0  0  0
 70 69  1  0  0  0  0
 71  7  1  0  0  0  0
 72 71  1  0  0  0  0
 73 63  1  0  0  0  0
 74 73  1  0  0  0  0
 75 65  1  0  0  0  0
 76 75  1  0  0  0  0
 77 67  1  0  0  0  0
 78 77  1  0  0  0  0
 79  7  1  0  0  0  0
 80 79  1  0  0  0  0
 81 71  1  0  0  0  0
 82 81  1  0  0  0  0
  7 69  1  0  0  0  0
 10 12  4  0  0  0  0
 13 15  4  0  0  0  0
 63 65  1  0  0  0  0
 63 71  1  0  0  0  0
 65 67  1  0  0  0  0
 65 73  1  0  0  0  0
 67 75  1  0  0  0  0
 69 77  1  0  0  0  0
 69 79  1  0  0  0  0
 71 73  1  0  0  0  0
 71 79  1  0  0  0  0
 73 75  1  0  0  0  0
 73 81  1  0  0  0  0
 75 77  1  0  0  0  0
 75 81  1  0  0  0  0
 77 79  1  0  0  0  0
 77 81  1  0  0  0  0
 79 81  1  0  0  0  0
M  CHG  2   2   1  69  -1
M  END
$$$$
FOWBUS

From CSD data. Using bond type 'Any'. Matching problem. No disordered atoms. Largest molecule.
 72 87  0  0  0  0  0  0  0  0999 V2000
    8.1731   -0.4364    3.8559 P   0  0  0  0  0  0  0  0  0  0  0  0
    6.9871   -0.7033    2.9513 O   0  0  0  0  0  0  0  0  0  0  0  0
   11.0949    4.5025    7.7756 O   0  0  0  0  0  0  0  0  0  0  0  0
    7.9210    0.8951    4.9992 C   0  5  0  0  0  0  0  0  0  0  0  0
    9.3794    3.2439    6.0463 C   0  5  0  0  0  0  0  0  0  0  0  0
    9.6169    0.0159    2.7863 C   0  0  0  0  0  0  0  0  0  0  0  0
    9.1456    1.1104    1.8207 C   0  0  0  0  0  0  0  0  0  0  0  0
    8.4148    0.7635    1.2662 H   0  0  0  0  0  0  0  0  0  0  0  0
    9.8904    1.3825    1.2462 H   0  0  0  0  0  0  0  0  0  0  0  0
    8.8275    1.8830    2.3328 H   0  0  0  0  0  0  0  0  0  0  0  0
   10.1330   -1.1568    1.9496 C   0  0  0  0  0  0  0  0  0  0  0  0
   10.6223   -1.7800    2.5268 H   0  0  0  0  0  0  0  0  0  0  0  0
   10.7318   -0.8212    1.2501 H   0  0  0  0  0  0  0  0  0  0  0  0
    9.3757   -1.6216    1.5358 H   0  0  0  0  0  0  0  0  0  0  0  0
   10.7211    0.6923    3.6254 C   0  0  0  0  0  0  0  0  0  0  0  0
   10.3296    1.4097    4.1652 H   0  0  0  0  0  0  0  0  0  0  0  0
   11.4021    1.0678    3.0277 H   0  0  0  0  0  0  0  0  0  0  0  0
   11.1365    0.0286    4.2154 H   0  0  0  0  0  0  0  0  0  0  0  0
    8.5098   -2.0123    4.7770 C   0  0  0  0  0  0  0  0  0  0  0  0
    7.3943   -2.2593    5.7212 C   0  0  0  0  0  0  0  0  0  0  0  0
    7.4451   -1.6192    6.4613 H   0  0  0  0  0  0  0  0  0  0  0  0
    7.4601   -3.1717    6.0732 H   0  0  0  0  0  0  0  0  0  0  0  0
    6.5402   -2.1508    5.2531 H   0  0  0  0  0  0  0  0  0  0  0  0
    9.8517   -2.0542    5.5221 C   0  0  0  0  0  0  0  0  0  0  0  0
   10.5831   -2.1283    4.8740 H   0  0  0  0  0  0  0  0  0  0  0  0
    9.8680   -2.8288    6.1226 H   0  0  0  0  0  0  0  0  0  0  0  0
    9.9605   -1.2331    6.0453 H   0  0  0  0  0  0  0  0  0  0  0  0
    8.4199   -3.2178    3.7960 C   0  0  0  0  0  0  0  0  0  0  0  0
    7.6357   -3.1108    3.2183 H   0  0  0  0  0  0  0  0  0  0  0  0
    8.3392   -4.0497    4.3066 H   0  0  0  0  0  0  0  0  0  0  0  0
    9.2297   -3.2503    3.2440 H   0  0  0  0  0  0  0  0  0  0  0  0
   11.0021    3.8149    6.4327 P   0  0  0  0  0  0  0  0  0  0  0  0
   11.5044    4.9661    5.0756 C   0  0  0  0  0  0  0  0  0  0  0  0
   10.6561    5.3894    4.7567 H   0  0  0  0  0  0  0  0  0  0  0  0
   12.3536    6.1138    5.6184 C   0  0  0  0  0  0  0  0  0  0  0  0
   11.8937    6.5293    6.3785 H   0  0  0  0  0  0  0  0  0  0  0  0
   12.4894    6.7813    4.9147 H   0  0  0  0  0  0  0  0  0  0  0  0
   13.2216    5.7670    5.9128 H   0  0  0  0  0  0  0  0  0  0  0  0
   12.1321    4.3236    3.8387 C   0  0  0  0  0  0  0  0  0  0  0  0
   12.3233    5.0162    3.1727 H   0  0  0  0  0  0  0  0  0  0  0  0
   11.5085    3.6690    3.4595 H   0  0  0  0  0  0  0  0  0  0  0  0
   12.9645    3.8735    4.0915 H   0  0  0  0  0  0  0  0  0  0  0  0
   12.1957    2.4190    6.4831 C   0  0  0  0  0  0  0  0  0  0  0  0
   12.2503    2.0054    5.5745 H   0  0  0  0  0  0  0  0  0  0  0  0
   13.5870    2.9210    6.8844 C   0  0  0  0  0  0  0  0  0  0  0  0
   13.5205    3.4465    7.7085 H   0  0  0  0  0  0  0  0  0  0  0  0
   13.9516    3.4821    6.1678 H   0  0  0  0  0  0  0  0  0  0  0  0
   14.1809    2.1551    7.0323 H   0  0  0  0  0  0  0  0  0  0  0  0
   11.7480    1.3540    7.4874 C   0  0  0  0  0  0  0  0  0  0  0  0
   12.3711    0.5993    7.4654 H   0  0  0  0  0  0  0  0  0  0  0  0
   10.8479    1.0421    7.2534 H   0  0  0  0  0  0  0  0  0  0  0  0
   11.7335    1.7400    8.3891 H   0  0  0  0  0  0  0  0  0  0  0  0
    8.6092    3.4127    4.7251 B   0  0  0  0  0  0  0  0  0  0  0  0
    9.0538    3.7617    3.7708 H   0  0  0  0  0  0  0  0  0  0  0  0
    7.0720    2.1664    4.4436 B   0  0  0  0  0  0  0  0  0  0  0  0
    6.7310    2.1414    3.4548 H   0  0  0  0  0  0  0  0  0  0  0  0
    6.4727    0.9710    5.7363 B   0  0  0  0  0  0  0  0  0  0  0  0
    5.7063    0.2153    5.7037 H   0  0  0  0  0  0  0  0  0  0  0  0
    8.1384    0.9857    6.5221 B   0  0  0  0  0  0  0  0  0  0  0  0
    8.6402    0.1700    7.1810 H   0  0  0  0  0  0  0  0  0  0  0  0
    8.2444    4.3848    6.2375 B   0  0  0  0  0  0  0  0  0  0  0  0
    8.4787    5.4046    6.4812 H   0  0  0  0  0  0  0  0  0  0  0  0
    6.9576    3.8682    5.1074 B   0  0  0  0  0  0  0  0  0  0  0  0
    6.4399    4.6114    4.4668 H   0  0  0  0  0  0  0  0  0  0  0  0
    5.9076    2.6275    5.8202 B   0  0  0  0  0  0  0  0  0  0  0  0
    4.7980    2.7079    5.7638 H   0  0  0  0  0  0  0  0  0  0  0  0
    6.8221    1.9262    7.2140 B   0  0  0  0  0  0  0  0  0  0  0  0
    6.4213    1.6429    8.2279 H   0  0  0  0  0  0  0  0  0  0  0  0
    8.3998    2.8439    7.2706 B   0  0  0  0  0  0  0  0  0  0  0  0
    8.8257    2.8892    8.2687 H   0  0  0  0  0  0  0  0  0  0  0  0
    6.7772    3.6710    6.8951 B   0  0  0  0  0  0  0  0  0  0  0  0
    6.1533    4.3055    7.5979 H   0  0  0  0  0  0  0  0  0  0  0  0
  1  2  2  0  0  0  0
  3 32  2  0  0  0  0
  4  1  1  0  0  0  0
  5 32  1  0  0  0  0
  6  1  1  0  0  0  0
  7  6  1  0  0  0  0
  8  7  1  0  0  0  0
  9  7  1  0  0  0  0
 10  7  1  0  0  0  0
 11  6  1  0  0  0  0
 12 11  1  0  0  0  0
 13 11  1  0  0  0  0
 14 11  1  0  0  0  0
 15  6  1  0  0  0  0
 16 15  1  0  0  0  0
 17 15  1  0  0  0  0
 18 15  1  0  0  0  0
 19  1  1  0  0  0  0
 20 19  1  0  0  0  0
 21 20  1  0  0  0  0
 22 20  1  0  0  0  0
 23 20  1  0  0  0  0
 24 19  1  0  0  0  0
 25 24  1  0  0  0  0
 26 24  1  0  0  0  0
 27 24  1  0  0  0  0
 28 19  1  0  0  0  0
 29 28  1  0  0  0  0
 30 28  1  0  0  0  0
 31 28  1  0  0  0  0
 32 33  1  0  0  0  0
 33 34  1  0  0  0  0
 35 33  1  0  0  0  0
 36 35  1  0  0  0  0
 37 35  1  0  0  0  0
 38 35  1  0  0  0  0
 39 33  1  0  0  0  0
 40 39  1  0  0  0  0
 41 39  1  0  0  0  0
 42 39  1  0  0  0  0
 43 32  1  0  0  0  0
 44 43  1  0  0  0  0
 45 43  1  0  0  0  0
 46 45  1  0  0  0  0
 47 45  1  0  0  0  0
 48 45  1  0  0  0  0
 49 43  1  0  0  0  0
 50 49  1  0  0  0  0
 51 49  1  0  0  0  0
 52 49  1  0  0  0  0
 53  5  1  0  0  0  0
 54 53  1  0  0  0  0
 55  4  1  0  0  0  0
 56 55  1  0  0  0  0
 57  4  1  0  0  0  0
 58 57  1  0  0  0  0
 59  4  1  0  0  0  0
 60 59  1  0  0  0  0
 61  5  1  0  0  0  0
 62 61  1  0  0  0  0
 63 53  1  0  0  0  0
 64 63  1  0  0  0  0
 65 55  1  0  0  0  0
 66 65  1  0  0  0  0
 67 57  1  0  0  0  0
 68 67  1  0  0  0  0
 69  5  1  0  0  0  0
 70 69  1  0  0  0  0
 71 61  1  0  0  0  0
 72 71  1  0  0  0  0
 53 55  1  0  0  0  0
 53 61  1  0  0  0  0
 55 57  1  0  0  0  0
 55 63  1  0  0  0  0
 57 59  1  0  0  0  0
 57 65  1  0  0  0  0
 59 67  1  0  0  0  0
 59 69  1  0  0  0  0
 61 63  1  0  0  0  0
 61 69  1  0  0  0  0
 63 65  1  0  0  0  0
 63 71  1  0  0  0  0
 65 67  1  0  0  0  0
 65 71  1  0  0  0  0
 67 69  1  0  0  0  0
 67 71  1  0  0  0  0
 69 71  1  0  0  0  0
M  CHG  2   4  -1   5  -1
M  END
$$$$
FOXVIB

From CSD data. Using bond type 'Any'. No disordered atoms. Largest molecule.
296324  0  0  0  0  0  0  0  0999 V2000
    1.7690    6.9020   18.4420 W   0  3  0  0  0  0  0  0  0  0  0  0
    0.3411    7.8549   20.3575 Br  0  0  0  0  0  0  0  0  0  0  0  0
    0.7675    8.7092   16.9952 P   0  0  0  0  0  0  0  0  0  0  0  0
    2.9351    6.5055   17.1623 N   0  0  0  0  0  0  0  0  0  0  0  0
    0.7192    4.5709   20.8677 C   0  0  0  0  0  0  0  0  0  0  0  0
    0.8739    3.8463   21.5227 H   0  0  0  0  0  0  0  0  0  0  0  0
    0.2227    5.3000   21.3166 H   0  0  0  0  0  0  0  0  0  0  0  0
    7.0809    6.0960   14.3046 B   0  0  0  0  0  0  0  0  0  0  0  0
    3.2627    8.8308   19.1193 P   0  0  0  0  0  0  0  0  0  0  0  0
    3.9592    6.6059   16.2776 N   0  0  0  0  0  0  0  0  0  0  0  0
   -0.0907    4.0397   19.6747 C   0  0  0  0  0  0  0  0  0  0  0  0
   -1.0137    3.8417   19.9745 H   0  0  0  0  0  0  0  0  0  0  0  0
    0.3139    3.1919   19.3622 H   0  0  0  0  0  0  0  0  0  0  0  0
    4.7678    5.6455   15.5268 B   0  0  0  0  0  0  0  0  0  0  0  0
    2.3277    5.2012   20.2260 P   0  0  0  0  0  0  0  0  0  0  0  0
    4.4413    7.8753   16.1157 N   0  0  0  0  0  0  0  0  0  0  0  0
    1.5476   10.2894   17.4315 C   0  0  0  0  0  0  0  0  0  0  0  0
    1.5060   10.8892   16.6455 H   0  0  0  0  0  0  0  0  0  0  0  0
    1.0222   10.7103   18.1573 H   0  0  0  0  0  0  0  0  0  0  0  0
   -0.1580    5.2398   18.2559 P   0  0  0  0  0  0  0  0  0  0  0  0
    5.4623    7.7795   15.3544 N   0  0  0  0  0  0  0  0  0  0  0  0
    3.0065   10.1783   17.8866 C   0  0  0  0  0  0  0  0  0  0  0  0
    3.2878   11.0397   18.2837 H   0  0  0  0  0  0  0  0  0  0  0  0
    3.5789   10.0076   17.0960 H   0  0  0  0  0  0  0  0  0  0  0  0
    5.7441    6.5268   14.9562 N   0  0  0  0  0  0  0  0  0  0  0  0
   -0.9717    9.3000   16.8686 C   0  0  0  0  0  0  0  0  0  0  0  0
   -1.5064    9.6866   15.6726 C   0  0  0  0  0  0  0  0  0  0  0  0
   -1.0091    9.5521   14.8762 H   0  0  0  0  0  0  0  0  0  0  0  0
   -2.7484   10.2635   15.6026 C   0  0  0  0  0  0  0  0  0  0  0  0
   -3.0958   10.5325   14.7595 H   0  0  0  0  0  0  0  0  0  0  0  0
   -3.5044   10.4599   16.7548 C   0  0  0  0  0  0  0  0  0  0  0  0
   -4.3641   10.8613   16.7060 H   0  0  0  0  0  0  0  0  0  0  0  0
   -2.9820   10.0626   17.9653 C   0  0  0  0  0  0  0  0  0  0  0  0
   -3.4844   10.1896   18.7611 H   0  0  0  0  0  0  0  0  0  0  0  0
   -1.7293    9.4796   18.0295 C   0  0  0  0  0  0  0  0  0  0  0  0
   -1.3805    9.1984   18.8668 H   0  0  0  0  0  0  0  0  0  0  0  0
    1.2092    8.3655   15.2643 C   0  0  0  0  0  0  0  0  0  0  0  0
    0.6443    7.2482   14.6430 C   0  0  0  0  0  0  0  0  0  0  0  0
    0.0361    6.7005   15.1248 H   0  0  0  0  0  0  0  0  0  0  0  0
    0.9593    6.9286   13.3333 C   0  0  0  0  0  0  0  0  0  0  0  0
    0.5683    6.1638   12.9264 H   0  0  0  0  0  0  0  0  0  0  0  0
    1.8304    7.7018   12.6215 C   0  0  0  0  0  0  0  0  0  0  0  0
    2.0440    7.4791   11.7222 H   0  0  0  0  0  0  0  0  0  0  0  0
    2.3843    8.7871   13.2020 C   0  0  0  0  0  0  0  0  0  0  0  0
    3.0056    9.3076   12.7059 H   0  0  0  0  0  0  0  0  0  0  0  0
    2.0693    9.1691   14.5117 C   0  0  0  0  0  0  0  0  0  0  0  0
    2.4363    9.9620   14.8833 H   0  0  0  0  0  0  0  0  0  0  0  0
    5.0789    8.6257   19.1318 C   0  0  0  0  0  0  0  0  0  0  0  0
    5.6750    7.3959   18.9688 C   0  0  0  0  0  0  0  0  0  0  0  0
    5.1311    6.6264   18.8489 H   0  0  0  0  0  0  0  0  0  0  0  0
    7.0569    7.2619   18.9717 C   0  0  0  0  0  0  0  0  0  0  0  0
    7.4599    6.4111   18.8438 H   0  0  0  0  0  0  0  0  0  0  0  0
    7.8562    8.4203   19.1759 C   0  0  0  0  0  0  0  0  0  0  0  0
    8.8016    8.3416   19.2187 H   0  0  0  0  0  0  0  0  0  0  0  0
    7.2739    9.6334   19.3071 C   0  0  0  0  0  0  0  0  0  0  0  0
    7.8167   10.4096   19.3891 H   0  0  0  0  0  0  0  0  0  0  0  0
    5.9113    9.7536   19.3217 C   0  0  0  0  0  0  0  0  0  0  0  0
    5.5192   10.6079   19.4595 H   0  0  0  0  0  0  0  0  0  0  0  0
    3.0099    9.6866   20.7160 C   0  0  0  0  0  0  0  0  0  0  0  0
    3.6287    9.1448   21.8594 C   0  0  0  0  0  0  0  0  0  0  0  0
    4.1490    8.3522   21.7938 H   0  0  0  0  0  0  0  0  0  0  0  0
    3.4720    9.7810   23.0758 C   0  0  0  0  0  0  0  0  0  0  0  0
    3.9103    9.4364   23.8461 H   0  0  0  0  0  0  0  0  0  0  0  0
    2.6924   10.9058   23.1896 C   0  0  0  0  0  0  0  0  0  0  0  0
    2.5788   11.3244   24.0341 H   0  0  0  0  0  0  0  0  0  0  0  0
    2.0840   11.4173   22.0899 C   0  0  0  0  0  0  0  0  0  0  0  0
    1.5640   12.2089   22.1604 H   0  0  0  0  0  0  0  0  0  0  0  0
    2.2243   10.7719   20.8414 C   0  0  0  0  0  0  0  0  0  0  0  0
    1.7602   11.1081   20.0851 H   0  0  0  0  0  0  0  0  0  0  0  0
    3.2705    5.5526   21.7340 C   0  0  0  0  0  0  0  0  0  0  0  0
    4.6474    5.4019   21.7632 C   0  0  0  0  0  0  0  0  0  0  0  0
    5.0977    5.0954   20.9864 H   0  0  0  0  0  0  0  0  0  0  0  0
    5.3653    5.6866   22.8833 C   0  0  0  0  0  0  0  0  0  0  0  0
    6.3093    5.5788   22.8820 H   0  0  0  0  0  0  0  0  0  0  0  0
    4.7289    6.1295   24.0150 C   0  0  0  0  0  0  0  0  0  0  0  0
    5.2263    6.3231   24.8018 H   0  0  0  0  0  0  0  0  0  0  0  0
    3.3600    6.2893   24.0034 C   0  0  0  0  0  0  0  0  0  0  0  0
    2.9196    6.6039   24.7827 H   0  0  0  0  0  0  0  0  0  0  0  0
    2.6314    6.0062   22.8891 C   0  0  0  0  0  0  0  0  0  0  0  0
    1.6878    6.1161   22.8987 H   0  0  0  0  0  0  0  0  0  0  0  0
    2.9967    3.5800   19.6630 C   0  0  0  0  0  0  0  0  0  0  0  0
    2.9109    3.2345   18.3300 C   0  0  0  0  0  0  0  0  0  0  0  0
    2.7490    3.9055   17.6773 H   0  0  0  0  0  0  0  0  0  0  0  0
    3.0588    1.9057   17.9391 C   0  0  0  0  0  0  0  0  0  0  0  0
    3.0041    1.6732   17.0199 H   0  0  0  0  0  0  0  0  0  0  0  0
    3.2780    0.9528   18.8579 C   0  0  0  0  0  0  0  0  0  0  0  0
    3.3329    0.0434   18.5905 H   0  0  0  0  0  0  0  0  0  0  0  0
    3.4250    1.2968   20.2172 C   0  0  0  0  0  0  0  0  0  0  0  0
    3.6343    0.6258   20.8558 H   0  0  0  0  0  0  0  0  0  0  0  0
    3.2684    2.6074   20.6139 C   0  0  0  0  0  0  0  0  0  0  0  0
    3.3441    2.8421   21.5326 H   0  0  0  0  0  0  0  0  0  0  0  0
   -0.2643    4.0884   16.8248 C   0  0  0  0  0  0  0  0  0  0  0  0
    0.6638    4.0503   15.8097 C   0  0  0  0  0  0  0  0  0  0  0  0
    1.3857    4.6676   15.8022 H   0  0  0  0  0  0  0  0  0  0  0  0
    0.5468    3.1218   14.8034 C   0  0  0  0  0  0  0  0  0  0  0  0
    1.1758    3.1183   14.0930 H   0  0  0  0  0  0  0  0  0  0  0  0
   -0.4635    2.2040   14.8180 C   0  0  0  0  0  0  0  0  0  0  0  0
   -0.5158    1.5467   14.1338 H   0  0  0  0  0  0  0  0  0  0  0  0
   -1.4146    2.2299   15.8243 C   0  0  0  0  0  0  0  0  0  0  0  0
   -2.1332    1.6090   15.8225 H   0  0  0  0  0  0  0  0  0  0  0  0
   -1.3022    3.1644   16.8248 C   0  0  0  0  0  0  0  0  0  0  0  0
   -1.9422    3.1796   17.5280 H   0  0  0  0  0  0  0  0  0  0  0  0
   -1.8506    5.8844   18.3416 C   0  0  0  0  0  0  0  0  0  0  0  0
   -2.4909    6.2863   17.1924 C   0  0  0  0  0  0  0  0  0  0  0  0
   -2.0500    6.2011   16.3569 H   0  0  0  0  0  0  0  0  0  0  0  0
   -3.7916    6.8251   17.2390 C   0  0  0  0  0  0  0  0  0  0  0  0
   -4.2411    7.0799   16.4410 H   0  0  0  0  0  0  0  0  0  0  0  0
   -4.3998    6.9712   18.4787 C   0  0  0  0  0  0  0  0  0  0  0  0
   -5.2637    7.3628   18.5294 H   0  0  0  0  0  0  0  0  0  0  0  0
   -3.7759    6.5633   19.6251 C   0  0  0  0  0  0  0  0  0  0  0  0
   -4.2225    6.6466   20.4612 H   0  0  0  0  0  0  0  0  0  0  0  0
   -2.5112    6.0321   19.5784 C   0  0  0  0  0  0  0  0  0  0  0  0
   -2.0784    5.7639   20.3806 H   0  0  0  0  0  0  0  0  0  0  0  0
    4.7672    4.1127   15.3255 C   0  0  0  0  0  0  0  0  0  0  0  0
    4.2112    3.5693   14.1512 C   0  0  0  0  0  0  0  0  0  0  0  0
    4.3636    2.2131   13.8933 C   0  0  0  0  0  0  0  0  0  0  0  0
    5.0752    1.4247   14.7830 C   0  0  0  0  0  0  0  0  0  0  0  0
    5.1529    0.4934   14.6114 H   0  0  0  0  0  0  0  0  0  0  0  0
    5.6784    1.9498   15.9089 C   0  0  0  0  0  0  0  0  0  0  0  0
    5.4895    3.3030   16.2085 C   0  0  0  0  0  0  0  0  0  0  0  0
    3.5462    4.4963   13.1583 C   0  0  0  0  0  0  0  0  0  0  0  0
    4.0842    4.5389   12.3411 H   0  0  0  0  0  0  0  0  0  0  0  0
    3.4706    5.3916   13.5484 H   0  0  0  0  0  0  0  0  0  0  0  0
    2.6517    4.1568   12.9437 H   0  0  0  0  0  0  0  0  0  0  0  0
    3.7633    1.6073   12.6157 C   0  0  0  0  0  0  0  0  0  0  0  0
    4.1461    2.0520   11.8321 H   0  0  0  0  0  0  0  0  0  0  0  0
    2.7911    1.7342   12.6221 H   0  0  0  0  0  0  0  0  0  0  0  0
    3.9671    0.6496   12.5820 H   0  0  0  0  0  0  0  0  0  0  0  0
    6.4974    1.0563   16.8307 C   0  0  0  0  0  0  0  0  0  0  0  0
    6.4657    0.1335   16.5026 H   0  0  0  0  0  0  0  0  0  0  0  0
    6.1284    1.0958   17.7360 H   0  0  0  0  0  0  0  0  0  0  0  0
    7.4279    1.3664   16.8421 H   0  0  0  0  0  0  0  0  0  0  0  0
    6.1533    3.8783   17.4520 C   0  0  0  0  0  0  0  0  0  0  0  0
    7.1273    3.8628   17.3396 H   0  0  0  0  0  0  0  0  0  0  0  0
    5.9071    3.3402   18.2335 H   0  0  0  0  0  0  0  0  0  0  0  0
    5.8553    4.8023   17.5849 H   0  0  0  0  0  0  0  0  0  0  0  0
    6.8552    5.2056   13.1752 O   0  0  0  0  0  0  0  0  0  0  0  0
    7.6124    4.0671   13.4499 C   0  0  0  0  0  0  0  0  0  0  0  0
    7.9513    5.4080   15.2637 O   0  0  0  0  0  0  0  0  0  0  0  0
    8.2723    4.2193   14.6546 C   0  0  0  0  0  0  0  0  0  0  0  0
    9.1038    3.2238   15.1418 C   0  0  0  0  0  0  0  0  0  0  0  0
    9.5355    3.3100   15.9843 H   0  0  0  0  0  0  0  0  0  0  0  0
    9.2815    2.1096   14.3629 C   0  0  0  0  0  0  0  0  0  0  0  0
    9.8576    1.4122   14.6555 H   0  0  0  0  0  0  0  0  0  0  0  0
    8.6103    1.9985   13.1291 C   0  0  0  0  0  0  0  0  0  0  0  0
    8.7443    1.2210   12.5994 H   0  0  0  0  0  0  0  0  0  0  0  0
    7.7699    2.9833   12.6682 C   0  0  0  0  0  0  0  0  0  0  0  0
    7.3200    2.9021   11.8359 H   0  0  0  0  0  0  0  0  0  0  0  0
   10.3376    8.7155   12.0069 N   0  0  0  0  0  0  0  0  0  0  0  0
    6.1918    9.1250   14.8647 B   0  0  0  0  0  0  0  0  0  0  0  0
    9.3135    8.6151   12.8916 N   0  0  0  0  0  0  0  0  0  0  0  0
    8.5049    9.5755   13.6425 B   0  0  0  0  0  0  0  0  0  0  0  0
    8.8314    7.3457   13.0535 N   0  0  0  0  0  0  0  0  0  0  0  0
    7.8104    7.4415   13.8149 N   0  0  0  0  0  0  0  0  0  0  0  0
    7.5286    8.6942   14.2130 N   0  0  0  0  0  0  0  0  0  0  0  0
    8.5055   11.1083   13.8437 C   0  0  0  0  0  0  0  0  0  0  0  0
    9.0615   11.6517   15.0181 C   0  0  0  0  0  0  0  0  0  0  0  0
    8.9091   13.0079   15.2759 C   0  0  0  0  0  0  0  0  0  0  0  0
    8.1975   13.7963   14.3863 C   0  0  0  0  0  0  0  0  0  0  0  0
    8.1198   14.7276   14.5579 H   0  0  0  0  0  0  0  0  0  0  0  0
    7.5943   13.2712   13.2603 C   0  0  0  0  0  0  0  0  0  0  0  0
    7.7832   11.9180   12.9608 C   0  0  0  0  0  0  0  0  0  0  0  0
    9.7265   10.7247   16.0110 C   0  0  0  0  0  0  0  0  0  0  0  0
    9.1885   10.6821   16.8281 H   0  0  0  0  0  0  0  0  0  0  0  0
    9.8021    9.8294   15.6209 H   0  0  0  0  0  0  0  0  0  0  0  0
   10.6210   11.0642   16.2256 H   0  0  0  0  0  0  0  0  0  0  0  0
    9.5094   13.6137   16.5536 C   0  0  0  0  0  0  0  0  0  0  0  0
    9.1266   13.1690   17.3371 H   0  0  0  0  0  0  0  0  0  0  0  0
   10.4816   13.4868   16.5472 H   0  0  0  0  0  0  0  0  0  0  0  0
    9.3056   14.5714   16.5873 H   0  0  0  0  0  0  0  0  0  0  0  0
    6.7753   14.1647   12.3386 C   0  0  0  0  0  0  0  0  0  0  0  0
    6.8070   15.0875   12.6667 H   0  0  0  0  0  0  0  0  0  0  0  0
    7.1443   14.1252   11.4333 H   0  0  0  0  0  0  0  0  0  0  0  0
    5.8448   13.8546   12.3272 H   0  0  0  0  0  0  0  0  0  0  0  0
    7.1194   11.3427   11.7173 C   0  0  0  0  0  0  0  0  0  0  0  0
    6.1454   11.3582   11.8297 H   0  0  0  0  0  0  0  0  0  0  0  0
    7.3656   11.8808   10.9357 H   0  0  0  0  0  0  0  0  0  0  0  0
    7.4174   10.4187   11.5843 H   0  0  0  0  0  0  0  0  0  0  0  0
    6.4175   10.0154   15.9941 O   0  0  0  0  0  0  0  0  0  0  0  0
    5.6603   11.1539   15.7193 C   0  0  0  0  0  0  0  0  0  0  0  0
    5.3214    9.8130   13.9056 O   0  0  0  0  0  0  0  0  0  0  0  0
    5.0004   11.0017   14.5146 C   0  0  0  0  0  0  0  0  0  0  0  0
    4.1689   11.9972   14.0275 C   0  0  0  0  0  0  0  0  0  0  0  0
    3.7372   11.9110   13.1849 H   0  0  0  0  0  0  0  0  0  0  0  0
    3.9912   13.1114   14.8063 C   0  0  0  0  0  0  0  0  0  0  0  0
    3.4151   13.8088   14.5138 H   0  0  0  0  0  0  0  0  0  0  0  0
    4.6624   13.2225   16.0402 C   0  0  0  0  0  0  0  0  0  0  0  0
    4.5284   14.0000   16.5699 H   0  0  0  0  0  0  0  0  0  0  0  0
    5.5028   12.2377   16.5010 C   0  0  0  0  0  0  0  0  0  0  0  0
    5.9527   12.3189   17.3333 H   0  0  0  0  0  0  0  0  0  0  0  0
   11.5037    8.3190   10.7273 W   0  3  0  0  0  0  0  0  0  0  0  0
   12.9316    7.3661    8.8117 Br  0  0  0  0  0  0  0  0  0  0  0  0
   12.5052    6.5118   12.1741 P   0  0  0  0  0  0  0  0  0  0  0  0
   12.5535   10.6501    8.3016 C   0  0  0  0  0  0  0  0  0  0  0  0
   12.3988   11.3747    7.6465 H   0  0  0  0  0  0  0  0  0  0  0  0
   13.0500    9.9210    7.8527 H   0  0  0  0  0  0  0  0  0  0  0  0
   10.0100    6.3902   10.0500 P   0  0  0  0  0  0  0  0  0  0  0  0
   13.3633   11.1813    9.4946 C   0  0  0  0  0  0  0  0  0  0  0  0
   14.2864   11.3793    9.1948 H   0  0  0  0  0  0  0  0  0  0  0  0
   12.9588   12.0291    9.8070 H   0  0  0  0  0  0  0  0  0  0  0  0
   10.9450   10.0198    8.9433 P   0  0  0  0  0  0  0  0  0  0  0  0
   11.7251    4.9316   11.7377 C   0  0  0  0  0  0  0  0  0  0  0  0
   11.7667    4.3318   12.5237 H   0  0  0  0  0  0  0  0  0  0  0  0
   12.2505    4.5107   11.0119 H   0  0  0  0  0  0  0  0  0  0  0  0
   13.4307    9.9812   10.9134 P   0  0  0  0  0  0  0  0  0  0  0  0
   10.2662    5.0427   11.2827 C   0  0  0  0  0  0  0  0  0  0  0  0
    9.9849    4.1813   10.8856 H   0  0  0  0  0  0  0  0  0  0  0  0
    9.6938    5.2134   12.0732 H   0  0  0  0  0  0  0  0  0  0  0  0
   14.2444    5.9210   12.3007 C   0  0  0  0  0  0  0  0  0  0  0  0
   14.7791    5.5344   13.4966 C   0  0  0  0  0  0  0  0  0  0  0  0
   14.2818    5.6689   14.2931 H   0  0  0  0  0  0  0  0  0  0  0  0
   16.0211    4.9575   13.5666 C   0  0  0  0  0  0  0  0  0  0  0  0
   16.3685    4.6885   14.4098 H   0  0  0  0  0  0  0  0  0  0  0  0
   16.7771    4.7611   12.4144 C   0  0  0  0  0  0  0  0  0  0  0  0
   17.6368    4.3597   12.4632 H   0  0  0  0  0  0  0  0  0  0  0  0
   16.2547    5.1584   11.2039 C   0  0  0  0  0  0  0  0  0  0  0  0
   16.7571    5.0314   10.4082 H   0  0  0  0  0  0  0  0  0  0  0  0
   15.0020    5.7414   11.1397 C   0  0  0  0  0  0  0  0  0  0  0  0
   14.6532    6.0226   10.3025 H   0  0  0  0  0  0  0  0  0  0  0  0
   12.0635    6.8555   13.9050 C   0  0  0  0  0  0  0  0  0  0  0  0
   12.6284    7.9728   14.5263 C   0  0  0  0  0  0  0  0  0  0  0  0
   13.2366    8.5205   14.0445 H   0  0  0  0  0  0  0  0  0  0  0  0
   12.3134    8.2924   15.8360 C   0  0  0  0  0  0  0  0  0  0  0  0
   12.7044    9.0572   16.2429 H   0  0  0  0  0  0  0  0  0  0  0  0
   11.4423    7.5192   16.5477 C   0  0  0  0  0  0  0  0  0  0  0  0
   11.2287    7.7419   17.4470 H   0  0  0  0  0  0  0  0  0  0  0  0
   10.8884    6.4339   15.9672 C   0  0  0  0  0  0  0  0  0  0  0  0
   10.2671    5.9134   16.4634 H   0  0  0  0  0  0  0  0  0  0  0  0
   11.2034    6.0519   14.6576 C   0  0  0  0  0  0  0  0  0  0  0  0
   10.8364    5.2590   14.2860 H   0  0  0  0  0  0  0  0  0  0  0  0
    8.1938    6.5953   10.0374 C   0  0  0  0  0  0  0  0  0  0  0  0
    7.5977    7.8251   10.2005 C   0  0  0  0  0  0  0  0  0  0  0  0
    8.1416    8.5946   10.3203 H   0  0  0  0  0  0  0  0  0  0  0  0
    6.2158    7.9591   10.1976 C   0  0  0  0  0  0  0  0  0  0  0  0
    5.8128    8.8099   10.3254 H   0  0  0  0  0  0  0  0  0  0  0  0
    5.4165    6.8007    9.9934 C   0  0  0  0  0  0  0  0  0  0  0  0
    4.4711    6.8794    9.9506 H   0  0  0  0  0  0  0  0  0  0  0  0
    5.9988    5.5876    9.8621 C   0  0  0  0  0  0  0  0  0  0  0  0
    5.4560    4.8114    9.7802 H   0  0  0  0  0  0  0  0  0  0  0  0
    7.3614    5.4674    9.8475 C   0  0  0  0  0  0  0  0  0  0  0  0
    7.7535    4.6131    9.7098 H   0  0  0  0  0  0  0  0  0  0  0  0
   10.2628    5.5344    8.4532 C   0  0  0  0  0  0  0  0  0  0  0  0
    9.6440    6.0762    7.3098 C   0  0  0  0  0  0  0  0  0  0  0  0
    9.1237    6.8688    7.3754 H   0  0  0  0  0  0  0  0  0  0  0  0
    9.8007    5.4400    6.0935 C   0  0  0  0  0  0  0  0  0  0  0  0
    9.3624    5.7846    5.3231 H   0  0  0  0  0  0  0  0  0  0  0  0
   10.5803    4.3152    5.9797 C   0  0  0  0  0  0  0  0  0  0  0  0
   10.6939    3.8966    5.1352 H   0  0  0  0  0  0  0  0  0  0  0  0
   11.1887    3.8037    7.0794 C   0  0  0  0  0  0  0  0  0  0  0  0
   11.7087    3.0121    7.0089 H   0  0  0  0  0  0  0  0  0  0  0  0
   11.0484    4.4491    8.3278 C   0  0  0  0  0  0  0  0  0  0  0  0
   11.5125    4.1129    9.0842 H   0  0  0  0  0  0  0  0  0  0  0  0
   10.0022    9.6684    7.4352 C   0  0  0  0  0  0  0  0  0  0  0  0
    8.6253    9.8191    7.4061 C   0  0  0  0  0  0  0  0  0  0  0  0
    8.1750   10.1256    8.1829 H   0  0  0  0  0  0  0  0  0  0  0  0
    7.9074    9.5344    6.2860 C   0  0  0  0  0  0  0  0  0  0  0  0
    6.9634    9.6422    6.2873 H   0  0  0  0  0  0  0  0  0  0  0  0
    8.5438    9.0915    5.1542 C   0  0  0  0  0  0  0  0  0  0  0  0
    8.0464    8.8979    4.3675 H   0  0  0  0  0  0  0  0  0  0  0  0
    9.9127    8.9317    5.1659 C   0  0  0  0  0  0  0  0  0  0  0  0
   10.3531    8.6171    4.3865 H   0  0  0  0  0  0  0  0  0  0  0  0
   10.6413    9.2148    6.2801 C   0  0  0  0  0  0  0  0  0  0  0  0
   11.5849    9.1049    6.2706 H   0  0  0  0  0  0  0  0  0  0  0  0
   10.2760   11.6410    9.5063 C   0  0  0  0  0  0  0  0  0  0  0  0
   10.3618   11.9865   10.8393 C   0  0  0  0  0  0  0  0  0  0  0  0
   10.5237   11.3155   11.4919 H   0  0  0  0  0  0  0  0  0  0  0  0
   10.2139   13.3153   11.2302 C   0  0  0  0  0  0  0  0  0  0  0  0
   10.2686   13.5478   12.1493 H   0  0  0  0  0  0  0  0  0  0  0  0
    9.9947   14.2682   10.3113 C   0  0  0  0  0  0  0  0  0  0  0  0
    9.9398   15.1776   10.5788 H   0  0  0  0  0  0  0  0  0  0  0  0
    9.8477   13.9242    8.9520 C   0  0  0  0  0  0  0  0  0  0  0  0
    9.6384   14.5952    8.3135 H   0  0  0  0  0  0  0  0  0  0  0  0
   10.0043   12.6136    8.5553 C   0  0  0  0  0  0  0  0  0  0  0  0
    9.9286   12.3789    7.6367 H   0  0  0  0  0  0  0  0  0  0  0  0
   13.5370   11.1326   12.3444 C   0  0  0  0  0  0  0  0  0  0  0  0
   12.6089   11.1707   13.3595 C   0  0  0  0  0  0  0  0  0  0  0  0
   11.8870   10.5534   13.3670 H   0  0  0  0  0  0  0  0  0  0  0  0
   12.7259   12.0992   14.3659 C   0  0  0  0  0  0  0  0  0  0  0  0
   12.0969   12.1027   15.0763 H   0  0  0  0  0  0  0  0  0  0  0  0
   13.7362   13.0170   14.3513 C   0  0  0  0  0  0  0  0  0  0  0  0
   13.7884   13.6743   15.0354 H   0  0  0  0  0  0  0  0  0  0  0  0
   14.6873   12.9911   13.3449 C   0  0  0  0  0  0  0  0  0  0  0  0
   15.4059   13.6120   13.3467 H   0  0  0  0  0  0  0  0  0  0  0  0
   14.5749   12.0566   12.3444 C   0  0  0  0  0  0  0  0  0  0  0  0
   15.2149   12.0414   11.6413 H   0  0  0  0  0  0  0  0  0  0  0  0
   15.1233    9.3366   10.8276 C   0  0  0  0  0  0  0  0  0  0  0  0
   15.7636    8.9347   11.9769 C   0  0  0  0  0  0  0  0  0  0  0  0
   15.3227    9.0199   12.8124 H   0  0  0  0  0  0  0  0  0  0  0  0
   17.0643    8.3959   11.9302 C   0  0  0  0  0  0  0  0  0  0  0  0
   17.5138    8.1411   12.7283 H   0  0  0  0  0  0  0  0  0  0  0  0
   17.6725    8.2498   10.6905 C   0  0  0  0  0  0  0  0  0  0  0  0
   18.5364    7.8582   10.6399 H   0  0  0  0  0  0  0  0  0  0  0  0
   17.0486    8.6577    9.5442 C   0  0  0  0  0  0  0  0  0  0  0  0
   17.4952    8.5744    8.7081 H   0  0  0  0  0  0  0  0  0  0  0  0
   15.7839    9.1889    9.5909 C   0  0  0  0  0  0  0  0  0  0  0  0
   15.3510    9.4571    8.7887 H   0  0  0  0  0  0  0  0  0  0  0  0
  1  2  1  0  0  0  0
  3  1  1  0  0  0  0
  4  1  1  0  0  0  0
  5  6  1  0  0  0  0
  7  5  1  0  0  0  0
  8 25  1  0  0  0  0
  9  1  1  0  0  0  0
 10  4  2  0  0  0  0
 11  5  1  0  0  0  0
 12 11  1  0  0  0  0
 13 11  1  0  0  0  0
 14 10  1  0  0  0  0
 15  1  1  0  0  0  0
 16 10  1  0  0  0  0
 17  3  1  0  0  0  0
 18 17  1  0  0  0  0
 19 17  1  0  0  0  0
 20  1  1  0  0  0  0
 21 16  2  0  0  0  0
 22  9  1  0  0  0  0
 23 22  1  0  0  0  0
 24 22  1  0  0  0  0
 25 14  1  0  0  0  0
 26  3  1  0  0  0  0
 27 26  4  0  0  0  0
 28 27  1  0  0  0  0
 29 27  4  0  0  0  0
 30 29  1  0  0  0  0
 31 29  4  0  0  0  0
 32 31  1  0  0  0  0
 33 31  4  0  0  0  0
 34 33  1  0  0  0  0
 35 26  4  0  0  0  0
 36 35  1  0  0  0  0
 37  3  1  0  0  0  0
 38 37  4  0  0  0  0
 39 38  1  0  0  0  0
 40 38  4  0  0  0  0
 41 40  1  0  0  0  0
 42 40  4  0  0  0  0
 43 42  1  0  0  0  0
 44 42  4  0  0  0  0
 45 44  1  0  0  0  0
 46 37  4  0  0  0  0
 47 46  1  0  0  0  0
 48  9  1  0  0  0  0
 49 48  4  0  0  0  0
 50 49  1  0  0  0  0
 51 49  4  0  0  0  0
 52 51  1  0  0  0  0
 53 51  4  0  0  0  0
 54 53  1  0  0  0  0
 55 53  4  0  0  0  0
 56 55  1  0  0  0  0
 57 48  4  0  0  0  0
 58 57  1  0  0  0  0
 59  9  1  0  0  0  0
 60 59  4  0  0  0  0
 61 60  1  0  0  0  0
 62 60  4  0  0  0  0
 63 62  1  0  0  0  0
 64 62  4  0  0  0  0
 65 64  1  0  0  0  0
 66 64  4  0  0  0  0
 67 66  1  0  0  0  0
 68 59  4  0  0  0  0
 69 68  1  0  0  0  0
 70 15  1  0  0  0  0
 71 70  4  0  0  0  0
 72 71  1  0  0  0  0
 73 71  4  0  0  0  0
 74 73  1  0  0  0  0
 75 73  4  0  0  0  0
 76 75  1  0  0  0  0
 77 75  4  0  0  0  0
 78 77  1  0  0  0  0
 79 70  4  0  0  0  0
 80 79  1  0  0  0  0
 81 15  1  0  0  0  0
 82 81  4  0  0  0  0
 83 82  1  0  0  0  0
 84 82  4  0  0  0  0
 85 84  1  0  0  0  0
 86 84  4  0  0  0  0
 87 86  1  0  0  0  0
 88 86  4  0  0  0  0
 89 88  1  0  0  0  0
 90 81  4  0  0  0  0
 91 90  1  0  0  0  0
 92 20  1  0  0  0  0
 93 92  4  0  0  0  0
 94 93  1  0  0  0  0
 95 93  4  0  0  0  0
 96 95  1  0  0  0  0
 97 95  4  0  0  0  0
 98 97  1  0  0  0  0
 99 97  4  0  0  0  0
100 99  1  0  0  0  0
101 92  4  0  0  0  0
102101  1  0  0  0  0
103 20  1  0  0  0  0
104103  4  0  0  0  0
105104  1  0  0  0  0
106104  4  0  0  0  0
107106  1  0  0  0  0
108106  4  0  0  0  0
109108  1  0  0  0  0
110108  4  0  0  0  0
111110  1  0  0  0  0
112103  4  0  0  0  0
113112  1  0  0  0  0
114 14  1  0  0  0  0
115114  4  0  0  0  0
116115  4  0  0  0  0
117116  4  0  0  0  0
118117  1  0  0  0  0
119117  4  0  0  0  0
120114  4  0  0  0  0
121115  1  0  0  0  0
122121  1  0  0  0  0
123121  1  0  0  0  0
124121  1  0  0  0  0
125116  1  0  0  0  0
126125  1  0  0  0  0
127125  1  0  0  0  0
128125  1  0  0  0  0
129119  1  0  0  0  0
130129  1  0  0  0  0
131129  1  0  0  0  0
132129  1  0  0  0  0
133120  1  0  0  0  0
134133  1  0  0  0  0
135133  1  0  0  0  0
136133  1  0  0  0  0
137  8  1  0  0  0  0
138137  1  0  0  0  0
139  8  1  0  0  0  0
140138  4  0  0  0  0
141140  4  0  0  0  0
142141  1  0  0  0  0
143141  4  0  0  0  0
144143  1  0  0  0  0
145143  4  0  0  0  0
146145  1  0  0  0  0
147138  4  0  0  0  0
148147  1  0  0  0  0
149151  2  0  0  0  0
150 21  1  0  0  0  0
151152  1  0  0  0  0
152155  1  0  0  0  0
153151  1  0  0  0  0
154  8  1  0  0  0  0
155150  1  0  0  0  0
156152  1  0  0  0  0
157156  4  0  0  0  0
158157  4  0  0  0  0
159158  4  0  0  0  0
160159  1  0  0  0  0
161159  4  0  0  0  0
162156  4  0  0  0  0
163157  1  0  0  0  0
164163  1  0  0  0  0
165163  1  0  0  0  0
166163  1  0  0  0  0
167158  1  0  0  0  0
168167  1  0  0  0  0
169167  1  0  0  0  0
170167  1  0  0  0  0
171161  1  0  0  0  0
172171  1  0  0  0  0
173171  1  0  0  0  0
174171  1  0  0  0  0
175162  1  0  0  0  0
176175  1  0  0  0  0
177175  1  0  0  0  0
178175  1  0  0  0  0
179150  1  0  0  0  0
180179  1  0  0  0  0
181150  1  0  0  0  0
182180  4  0  0  0  0
183182  4  0  0  0  0
184183  1  0  0  0  0
185183  4  0  0  0  0
186185  1  0  0  0  0
187185  4  0  0  0  0
188187  1  0  0  0  0
189180  4  0  0  0  0
190189  1  0  0  0  0
191149  1  0  0  0  0
192191  1  0  0  0  0
193191  1  0  0  0  0
194195  1  0  0  0  0
196194  1  0  0  0  0
197191  1  0  0  0  0
198194  1  0  0  0  0
199198  1  0  0  0  0
200198  1  0  0  0  0
201191  1  0  0  0  0
202193  1  0  0  0  0
203202  1  0  0  0  0
204202  1  0  0  0  0
205191  1  0  0  0  0
206197  1  0  0  0  0
207206  1  0  0  0  0
208206  1  0  0  0  0
209193  1  0  0  0  0
210209  4  0  0  0  0
211210  1  0  0  0  0
212210  4  0  0  0  0
213212  1  0  0  0  0
214212  4  0  0  0  0
215214  1  0  0  0  0
216214  4  0  0  0  0
217216  1  0  0  0  0
218209  4  0  0  0  0
219218  1  0  0  0  0
220193  1  0  0  0  0
221220  4  0  0  0  0
222221  1  0  0  0  0
223221  4  0  0  0  0
224223  1  0  0  0  0
225223  4  0  0  0  0
226225  1  0  0  0  0
227225  4  0  0  0  0
228227  1  0  0  0  0
229220  4  0  0  0  0
230229  1  0  0  0  0
231197  1  0  0  0  0
232231  4  0  0  0  0
233232  1  0  0  0  0
234232  4  0  0  0  0
235234  1  0  0  0  0
236234  4  0  0  0  0
237236  1  0  0  0  0
238236  4  0  0  0  0
239238  1  0  0  0  0
240231  4  0  0  0  0
241240  1  0  0  0  0
242197  1  0  0  0  0
243242  4  0  0  0  0
244243  1  0  0  0  0
245243  4  0  0  0  0
246245  1  0  0  0  0
247245  4  0  0  0  0
248247  1  0  0  0  0
249247  4  0  0  0  0
250249  1  0  0  0  0
251242  4  0  0  0  0
252251  1  0  0  0  0
253201  1  0  0  0  0
254253  4  0  0  0  0
255254  1  0  0  0  0
256254  4  0  0  0  0
257256  1  0  0  0  0
258256  4  0  0  0  0
259258  1  0  0  0  0
260258  4  0  0  0  0
261260  1  0  0  0  0
262253  4  0  0  0  0
263262  1  0  0  0  0
264201  1  0  0  0  0
265264  4  0  0  0  0
266265  1  0  0  0  0
267265  4  0  0  0  0
268267  1  0  0  0  0
269267  4  0  0  0  0
270269  1  0  0  0  0
271269  4  0  0  0  0
272271  1  0  0  0  0
273264  4  0  0  0  0
274273  1  0  0  0  0
275205  1  0  0  0  0
276275  4  0  0  0  0
277276  1  0  0  0  0
278276  4  0  0  0  0
279278  1  0  0  0  0
280278  4  0  0  0  0
281280  1  0  0  0  0
282280  4  0  0  0  0
283282  1  0  0  0  0
284275  4  0  0  0  0
285284  1  0  0  0  0
286205  1  0  0  0  0
287286  4  0  0  0  0
288287  1  0  0  0  0
289287  4  0  0  0  0
290289  1  0  0  0  0
291289  4  0  0  0  0
292291  1  0  0  0  0
293291  4  0  0  0  0
294293  1  0  0  0  0
295286  4  0  0  0  0
296295  1  0  0  0  0
  5 15  1  0  0  0  0
 11 20  1  0  0  0  0
 17 22  1  0  0  0  0
 21 25  1  0  0  0  0
 33 35  4  0  0  0  0
 44 46  4  0  0  0  0
 55 57  4  0  0  0  0
 66 68  4  0  0  0  0
 77 79  4  0  0  0  0
 88 90  4  0  0  0  0
 99101  4  0  0  0  0
110112  4  0  0  0  0
119120  4  0  0  0  0
139140  1  0  0  0  0
145147  4  0  0  0  0
153154  2  0  0  0  0
154155  1  0  0  0  0
161162  4  0  0  0  0
181182  1  0  0  0  0
187189  4  0  0  0  0
194201  1  0  0  0  0
198205  1  0  0  0  0
202206  1  0  0  0  0
216218  4  0  0  0  0
227229  4  0  0  0  0
238240  4  0  0  0  0
249251  4  0  0  0  0
260262  4  0  0  0  0
271273  4  0  0  0  0
282284  4  0  0  0  0
293295  4  0  0  0  0
M  CHG  2   1   1 191   1
M  END
$$$$
FUBPIB

From CSD data. Using bond type 'Any'. No disordered atoms. Largest molecule.
114134  0  0  0  0  0  0  0  0999 V2000
    2.4255    8.7704   13.2459 Ru  0  0  0  0  0  0  0  0  0  0  0  0
    3.9179   11.8618   12.5345 B   0  0  0  0  0  0  0  0  0  0  0  0
    5.2198   11.6479   11.3407 B   0  0  0  0  0  0  0  0  0  0  0  0
    3.6269   11.1463   10.9166 B   0  0  0  0  0  0  0  0  0  0  0  0
    2.4488   10.8711   12.3845 B   0  0  0  0  0  0  0  0  0  0  0  0
    5.3545   11.0291   13.0434 B   0  0  0  0  0  0  0  0  0  0  0  0
    5.8296   10.1093   11.8974 C   0  0  0  0  0  0  0  0  0  0  0  0
    4.8006    9.9430   10.7274 B   0  0  0  0  0  0  0  0  0  0  0  0
    2.9537    9.5464   11.1776 B   0  0  0  0  0  0  0  0  0  0  0  0
    3.6811   10.7048   13.7589 B   0  0  0  0  0  0  0  0  0  0  0  0
    0.4514    7.9601   12.2866 P   0  0  0  0  0  0  0  0  0  0  0  0
    3.2247    6.7649   14.2895 P   0  0  0  0  0  0  0  0  0  0  0  0
    6.6368   11.8468   14.2221 P   0  0  0  0  0  0  0  0  0  0  0  0
    1.4183    9.4251   14.7200 C   0  0  0  0  0  0  0  0  0  0  0  0
    0.8551    9.9266   15.5203 O   0  0  0  0  0  0  0  0  0  0  0  0
   -0.5450    6.8085   13.2978 C   0  0  0  0  0  0  0  0  0  0  0  0
   -1.3400    5.7456   12.7542 C   0  0  0  0  0  0  0  0  0  0  0  0
   -1.9925    4.9347   13.5653 C   0  0  0  0  0  0  0  0  0  0  0  0
   -2.0746    5.0505   14.8549 C   0  0  0  0  0  0  0  0  0  0  0  0
   -1.4027    6.0931   15.4725 C   0  0  0  0  0  0  0  0  0  0  0  0
   -0.6742    6.9585   14.6787 C   0  0  0  0  0  0  0  0  0  0  0  0
    0.6408    7.0143   10.7318 C   0  0  0  0  0  0  0  0  0  0  0  0
    1.4587    6.0086   10.6426 C   0  0  0  0  0  0  0  0  0  0  0  0
    1.6471    5.1895    9.5140 C   0  0  0  0  0  0  0  0  0  0  0  0
    0.7865    5.4321    8.4376 C   0  0  0  0  0  0  0  0  0  0  0  0
   -0.1727    6.4569    8.5267 C   0  0  0  0  0  0  0  0  0  0  0  0
   -0.2800    7.2351    9.6292 C   0  0  0  0  0  0  0  0  0  0  0  0
   -0.8421    9.2452   11.8778 C   0  0  0  0  0  0  0  0  0  0  0  0
   -0.4398   10.2701   11.0167 C   0  0  0  0  0  0  0  0  0  0  0  0
   -1.3636   11.1968   10.6709 C   0  0  0  0  0  0  0  0  0  0  0  0
   -2.6581   11.1572   11.0819 C   0  0  0  0  0  0  0  0  0  0  0  0
   -3.0149   10.1283   11.9017 C   0  0  0  0  0  0  0  0  0  0  0  0
   -2.0687    9.1921   12.3040 C   0  0  0  0  0  0  0  0  0  0  0  0
    3.0038    6.7322   16.1270 C   0  0  0  0  0  0  0  0  0  0  0  0
    2.6286    5.6188   16.8099 C   0  0  0  0  0  0  0  0  0  0  0  0
    2.4806    5.6502   18.2190 C   0  0  0  0  0  0  0  0  0  0  0  0
    2.7006    6.8753   18.8758 C   0  0  0  0  0  0  0  0  0  0  0  0
    3.2835    8.0105   18.1429 C   0  0  0  0  0  0  0  0  0  0  0  0
    3.3487    7.8634   16.8099 C   0  0  0  0  0  0  0  0  0  0  0  0
    4.9989    6.7309   14.1090 C   0  0  0  0  0  0  0  0  0  0  0  0
    5.6972    7.1138   12.9695 C   0  0  0  0  0  0  0  0  0  0  0  0
    7.0190    7.0007   12.6868 C   0  0  0  0  0  0  0  0  0  0  0  0
    7.8490    6.4351   13.7632 C   0  0  0  0  0  0  0  0  0  0  0  0
    7.1148    5.9936   14.9462 C   0  0  0  0  0  0  0  0  0  0  0  0
    5.9067    6.1653   15.0658 C   0  0  0  0  0  0  0  0  0  0  0  0
    2.7649    5.0165   13.7893 C   0  0  0  0  0  0  0  0  0  0  0  0
    1.6322    4.4482   14.1285 C   0  0  0  0  0  0  0  0  0  0  0  0
    1.4109    3.1494   13.7349 C   0  0  0  0  0  0  0  0  0  0  0  0
    2.1832    2.4380   13.1000 C   0  0  0  0  0  0  0  0  0  0  0  0
    3.3991    2.9709   12.6759 C   0  0  0  0  0  0  0  0  0  0  0  0
    3.6881    4.2969   13.0499 C   0  0  0  0  0  0  0  0  0  0  0  0
    8.3364   11.9409   13.5892 C   0  0  0  0  0  0  0  0  0  0  0  0
    9.3983   11.5157   14.3351 C   0  0  0  0  0  0  0  0  0  0  0  0
   10.7200   11.7323   13.8524 C   0  0  0  0  0  0  0  0  0  0  0  0
   10.9843   12.4465   12.6411 C   0  0  0  0  0  0  0  0  0  0  0  0
    9.8346   12.8267   11.9713 C   0  0  0  0  0  0  0  0  0  0  0  0
    8.5665   12.5936   12.4432 C   0  0  0  0  0  0  0  0  0  0  0  0
    6.7865   10.9297   15.7900 C   0  0  0  0  0  0  0  0  0  0  0  0
    7.0790   11.6070   17.0078 C   0  0  0  0  0  0  0  0  0  0  0  0
    7.2093   10.8520   18.1560 C   0  0  0  0  0  0  0  0  0  0  0  0
    7.0629    9.5301   18.2277 C   0  0  0  0  0  0  0  0  0  0  0  0
    6.8169    8.8950   16.9860 C   0  0  0  0  0  0  0  0  0  0  0  0
    6.6098    9.5709   15.8313 C   0  0  0  0  0  0  0  0  0  0  0  0
    6.1945   13.5285   14.7005 C   0  0  0  0  0  0  0  0  0  0  0  0
    7.0620   14.5806   14.5026 C   0  0  0  0  0  0  0  0  0  0  0  0
    6.6796   15.8834   14.9223 C   0  0  0  0  0  0  0  0  0  0  0  0
    5.4722   16.0647   15.5899 C   0  0  0  0  0  0  0  0  0  0  0  0
    4.7563   15.0630   15.7443 C   0  0  0  0  0  0  0  0  0  0  0  0
    5.0838   13.7507   15.3050 C   0  0  0  0  0  0  0  0  0  0  0  0
   -1.3982    5.6216   11.8039 H   0  0  0  0  0  0  0  0  0  0  0  0
   -2.4596    4.1961   13.1674 H   0  0  0  0  0  0  0  0  0  0  0  0
   -2.5795    4.4196   15.3746 H   0  0  0  0  0  0  0  0  0  0  0  0
   -1.4534    6.2185   16.4228 H   0  0  0  0  0  0  0  0  0  0  0  0
   -0.2196    7.6916   15.1006 H   0  0  0  0  0  0  0  0  0  0  0  0
    1.9934    5.8083   11.4146 H   0  0  0  0  0  0  0  0  0  0  0  0
    2.3172    4.5027    9.4879 H   0  0  0  0  0  0  0  0  0  0  0  0
    0.8515    4.8979    7.6416 H   0  0  0  0  0  0  0  0  0  0  0  0
   -0.7584    6.6123    7.7830 H   0  0  0  0  0  0  0  0  0  0  0  0
   -0.9545    7.9165    9.6880 H   0  0  0  0  0  0  0  0  0  0  0  0
    0.4605   10.3232   10.6883 H   0  0  0  0  0  0  0  0  0  0  0  0
   -1.0931   11.9177   10.0990 H   0  0  0  0  0  0  0  0  0  0  0  0
   -3.2868   11.8305   10.8122 H   0  0  0  0  0  0  0  0  0  0  0  0
   -3.9251   10.0397   12.1931 H   0  0  0  0  0  0  0  0  0  0  0  0
   -2.3178    8.4998   12.9216 H   0  0  0  0  0  0  0  0  0  0  0  0
    2.4462    4.8066   16.3314 H   0  0  0  0  0  0  0  0  0  0  0  0
    2.2492    4.8597   18.7127 H   0  0  0  0  0  0  0  0  0  0  0  0
    2.4667    6.9721   19.8021 H   0  0  0  0  0  0  0  0  0  0  0  0
    3.6024    8.8010   18.5844 H   0  0  0  0  0  0  0  0  0  0  0  0
    3.6568    8.6129   16.2945 H   0  0  0  0  0  0  0  0  0  0  0  0
    5.1600    7.5240   12.2866 H   0  0  0  0  0  0  0  0  0  0  0  0
    7.3791    7.2705   11.8387 H   0  0  0  0  0  0  0  0  0  0  0  0
    8.8036    6.3697   13.6936 H   0  0  0  0  0  0  0  0  0  0  0  0
    7.5917    5.5411   15.6464 H   0  0  0  0  0  0  0  0  0  0  0  0
    5.5284    5.9077   15.9117 H   0  0  0  0  0  0  0  0  0  0  0  0
    0.9686    4.9238   14.6352 H   0  0  0  0  0  0  0  0  0  0  0  0
    0.5724    2.7542   13.9894 H   0  0  0  0  0  0  0  0  0  0  0  0
    1.9447    1.5318   12.8934 H   0  0  0  0  0  0  0  0  0  0  0  0
    4.0140    2.4517   12.1518 H   0  0  0  0  0  0  0  0  0  0  0  0
    4.5202    4.7030   12.7933 H   0  0  0  0  0  0  0  0  0  0  0  0
    9.2589   11.0782   15.1789 H   0  0  0  0  0  0  0  0  0  0  0  0
   11.4614   11.3876   14.3569 H   0  0  0  0  0  0  0  0  0  0  0  0
   11.8695   12.6372   12.3193 H   0  0  0  0  0  0  0  0  0  0  0  0
    9.9309   13.2791   11.1297 H   0  0  0  0  0  0  0  0  0  0  0  0
    7.8209   12.9139   11.9278 H   0  0  0  0  0  0  0  0  0  0  0  0
    7.1771   12.5623   17.0317 H   0  0  0  0  0  0  0  0  0  0  0  0
    7.4249   11.3167   18.9671 H   0  0  0  0  0  0  0  0  0  0  0  0
    7.1302    9.0490   19.0541 H   0  0  0  0  0  0  0  0  0  0  0  0
    6.7783    7.9356   16.9621 H   0  0  0  0  0  0  0  0  0  0  0  0
    6.3407    9.1008   15.0375 H   0  0  0  0  0  0  0  0  0  0  0  0
    7.9136   14.4566   14.0785 H   0  0  0  0  0  0  0  0  0  0  0  0
    7.2565   16.6343   14.7657 H   0  0  0  0  0  0  0  0  0  0  0  0
    5.1895   16.9273   15.9052 H   0  0  0  0  0  0  0  0  0  0  0  0
    3.9230   15.1680   16.1988 H   0  0  0  0  0  0  0  0  0  0  0  0
    4.4688   13.0297   15.4572 H   0  0  0  0  0  0  0  0  0  0  0  0
  1  5  1  0  0  0  0
  2  3  1  0  0  0  0
  3  4  1  0  0  0  0
  4  2  1  0  0  0  0
  5  2  1  0  0  0  0
  6  2  1  0  0  0  0
  7  3  1  0  0  0  0
  8  3  1  0  0  0  0
  9  1  1  0  0  0  0
 10  1  1  0  0  0  0
 11  1  1  0  0  0  0
 12  1  1  0  0  0  0
 13  6  1  0  0  0  0
 14  1  1  0  0  0  0
 15 14  3  0  0  0  0
 16 11  1  0  0  0  0
 17 16  4  0  0  0  0
 18 17  4  0  0  0  0
 19 18  4  0  0  0  0
 20 19  4  0  0  0  0
 21 16  4  0  0  0  0
 22 11  1  0  0  0  0
 23 22  4  0  0  0  0
 24 23  4  0  0  0  0
 25 24  4  0  0  0  0
 26 25  4  0  0  0  0
 27 22  4  0  0  0  0
 28 11  1  0  0  0  0
 29 28  4  0  0  0  0
 30 29  4  0  0  0  0
 31 30  4  0  0  0  0
 32 31  4  0  0  0  0
 33 28  4  0  0  0  0
 34 12  1  0  0  0  0
 35 34  4  0  0  0  0
 36 35  4  0  0  0  0
 37 36  4  0  0  0  0
 38 37  4  0  0  0  0
 39 34  4  0  0  0  0
 40 12  1  0  0  0  0
 41 40  4  0  0  0  0
 42 41  4  0  0  0  0
 43 42  4  0  0  0  0
 44 43  4  0  0  0  0
 45 40  4  0  0  0  0
 46 12  1  0  0  0  0
 47 46  4  0  0  0  0
 48 47  4  0  0  0  0
 49 48  4  0  0  0  0
 50 49  4  0  0  0  0
 51 46  4  0  0  0  0
 52 13  1  0  0  0  0
 53 52  4  0  0  0  0
 54 53  4  0  0  0  0
 55 54  4  0  0  0  0
 56 55  4  0  0  0  0
 57 52  4  0  0  0  0
 58 13  1  0  0  0  0
 59 58  4  0  0  0  0
 60 59  4  0  0  0  0
 61 60  4  0  0  0  0
 62 61  4  0  0  0  0
 63 58  4  0  0  0  0
 64 13  1  0  0  0  0
 65 64  4  0  0  0  0
 66 65  4  0  0  0  0
 67 66  4  0  0  0  0
 68 67  4  0  0  0  0
 69 64  4  0  0  0  0
 70 17  1  0  0  0  0
 71 18  1  0  0  0  0
 72 19  1  0  0  0  0
 73 20  1  0  0  0  0
 74 21  1  0  0  0  0
 75 23  1  0  0  0  0
 76 24  1  0  0  0  0
 77 25  1  0  0  0  0
 78 26  1  0  0  0  0
 79 27  1  0  0  0  0
 80 29  1  0  0  0  0
 81 30  1  0  0  0  0
 82 31  1  0  0  0  0
 83 32  1  0  0  0  0
 84 33  1  0  0  0  0
 85 35  1  0  0  0  0
 86 36  1  0  0  0  0
 87 37  1  0  0  0  0
 88 38  1  0  0  0  0
 89 39  1  0  0  0  0
 90 41  1  0  0  0  0
 91 42  1  0  0  0  0
 92 43  1  0  0  0  0
 93 44  1  0  0  0  0
 94 45  1  0  0  0  0
 95 47  1  0  0  0  0
 96 48  1  0  0  0  0
 97 49  1  0  0  0  0
 98 50  1  0  0  0  0
 99 51  1  0  0  0  0
100 53  1  0  0  0  0
101 54  1  0  0  0  0
102 55  1  0  0  0  0
103 56  1  0  0  0  0
104 57  1  0  0  0  0
105 59  1  0  0  0  0
106 60  1  0  0  0  0
107 61  1  0  0  0  0
108 62  1  0  0  0  0
109 63  1  0  0  0  0
110 65  1  0  0  0  0
111 66  1  0  0  0  0
112 67  1  0  0  0  0
113 68  1  0  0  0  0
114 69  1  0  0  0  0
  2 10  1  0  0  0  0
  3  6  1  0  0  0  0
  4  5  1  0  0  0  0
  4  8  1  0  0  0  0
  4  9  1  0  0  0  0
  5  9  1  0  0  0  0
  5 10  1  0  0  0  0
  6  7  1  0  0  0  0
  6 10  1  0  0  0  0
  7  8  1  0  0  0  0
  8  9  1  0  0  0  0
 20 21  4  0  0  0  0
 26 27  4  0  0  0  0
 32 33  4  0  0  0  0
 38 39  4  0  0  0  0
 44 45  4  0  0  0  0
 50 51  4  0  0  0  0
 56 57  4  0  0  0  0
 62 63  4  0  0  0  0
 68 69  4  0  0  0  0
M  END
$$$$
FUBPOH

From CSD data. Using bond type 'Any'. No disordered atoms. Largest molecule.
114134  0  0  0  0  0  0  0  0999 V2000
    2.3378    8.7987   13.2967 Os  0  0  0  0  0  0  0  0  0  0  0  0
    3.8420   11.9925   12.5526 B   0  0  0  0  0  0  0  0  0  0  0  0
    5.1718   11.6516   11.3910 B   0  0  0  0  0  0  0  0  0  0  0  0
    3.4826   11.1540   10.9718 B   0  0  0  0  0  0  0  0  0  0  0  0
    2.3948   10.9167   12.4041 B   0  0  0  0  0  0  0  0  0  0  0  0
    5.2742   11.0640   13.0286 B   0  0  0  0  0  0  0  0  0  0  0  0
    5.7536   10.1232   11.9369 C   0  0  0  0  0  0  0  0  0  0  0  0
    4.7884    9.9692   10.7774 B   0  0  0  0  0  0  0  0  0  0  0  0
    2.8180    9.5915   11.2360 B   0  0  0  0  0  0  0  0  0  0  0  0
    3.5883   10.7054   13.8212 B   0  0  0  0  0  0  0  0  0  0  0  0
    0.3802    7.9609   12.3233 P   0  0  0  0  0  0  0  0  0  0  0  0
    3.1331    6.8088   14.3299 P   0  0  0  0  0  0  0  0  0  0  0  0
    6.5435   11.8670   14.3015 P   0  0  0  0  0  0  0  0  0  0  0  0
    1.4135    9.3816   14.6661 C   0  0  0  0  0  0  0  0  0  0  0  0
    0.8011    9.9078   15.5766 O   0  0  0  0  0  0  0  0  0  0  0  0
   -0.6307    6.7993   13.3343 C   0  0  0  0  0  0  0  0  0  0  0  0
   -1.3224    5.7522   12.7644 C   0  0  0  0  0  0  0  0  0  0  0  0
   -2.0511    4.8864   13.5308 C   0  0  0  0  0  0  0  0  0  0  0  0
   -2.1508    5.0419   14.8517 C   0  0  0  0  0  0  0  0  0  0  0  0
   -1.4803    6.1230   15.4456 C   0  0  0  0  0  0  0  0  0  0  0  0
   -0.7028    6.9956   14.6814 C   0  0  0  0  0  0  0  0  0  0  0  0
   -0.8792    9.2588   11.8779 C   0  0  0  0  0  0  0  0  0  0  0  0
   -2.1594    9.2139   12.3517 C   0  0  0  0  0  0  0  0  0  0  0  0
   -3.0948   10.1655   11.9871 C   0  0  0  0  0  0  0  0  0  0  0  0
   -2.7535   11.1553   11.1421 C   0  0  0  0  0  0  0  0  0  0  0  0
   -1.4648   11.2385   10.6683 C   0  0  0  0  0  0  0  0  0  0  0  0
   -0.5328   10.2855   11.0329 C   0  0  0  0  0  0  0  0  0  0  0  0
    0.5100    7.0297   10.7381 C   0  0  0  0  0  0  0  0  0  0  0  0
    1.4710    6.0399   10.6683 C   0  0  0  0  0  0  0  0  0  0  0  0
    1.5229    5.2573    9.5089 C   0  0  0  0  0  0  0  0  0  0  0  0
    0.6635    5.4781    8.4390 C   0  0  0  0  0  0  0  0  0  0  0  0
   -0.2171    6.4516    8.5634 C   0  0  0  0  0  0  0  0  0  0  0  0
   -0.3101    7.2301    9.6748 C   0  0  0  0  0  0  0  0  0  0  0  0
    4.9924    6.7161   14.1399 C   0  0  0  0  0  0  0  0  0  0  0  0
    5.6138    7.1579   12.9958 C   0  0  0  0  0  0  0  0  0  0  0  0
    6.9634    6.9779   12.8037 C   0  0  0  0  0  0  0  0  0  0  0  0
    7.7027    6.4107   13.7797 C   0  0  0  0  0  0  0  0  0  0  0  0
    7.1403    6.0017   14.9609 C   0  0  0  0  0  0  0  0  0  0  0  0
    5.7957    6.1421   15.1814 C   0  0  0  0  0  0  0  0  0  0  0  0
    2.7141    5.0705   13.7928 C   0  0  0  0  0  0  0  0  0  0  0  0
    3.6223    4.3520   13.0439 C   0  0  0  0  0  0  0  0  0  0  0  0
    3.3073    3.0608   12.6880 C   0  0  0  0  0  0  0  0  0  0  0  0
    2.1674    2.4882   13.0744 C   0  0  0  0  0  0  0  0  0  0  0  0
    1.2485    3.1658   13.7906 C   0  0  0  0  0  0  0  0  0  0  0  0
    1.5435    4.5006   14.1378 C   0  0  0  0  0  0  0  0  0  0  0  0
    2.9233    6.7666   16.1815 C   0  0  0  0  0  0  0  0  0  0  0  0
    2.5189    5.6008   16.8802 C   0  0  0  0  0  0  0  0  0  0  0  0
    2.4100    5.6731   18.2601 C   0  0  0  0  0  0  0  0  0  0  0  0
    2.6465    6.8634   18.9391 C   0  0  0  0  0  0  0  0  0  0  0  0
    3.0715    7.9663   18.2535 C   0  0  0  0  0  0  0  0  0  0  0  0
    3.1995    7.9023   16.8649 C   0  0  0  0  0  0  0  0  0  0  0  0
    8.2231   11.9734   13.6399 C   0  0  0  0  0  0  0  0  0  0  0  0
    8.4706   12.6155   12.4456 C   0  0  0  0  0  0  0  0  0  0  0  0
    9.7371   12.8201   11.9718 C   0  0  0  0  0  0  0  0  0  0  0  0
   10.8162   12.4478   12.7884 C   0  0  0  0  0  0  0  0  0  0  0  0
   10.6380   11.7730   13.9216 C   0  0  0  0  0  0  0  0  0  0  0  0
    9.3342   11.5030   14.3736 C   0  0  0  0  0  0  0  0  0  0  0  0
    6.1540   13.5795   14.7775 C   0  0  0  0  0  0  0  0  0  0  0  0
    4.9550   13.7881   15.3867 C   0  0  0  0  0  0  0  0  0  0  0  0
    4.6227   15.0969   15.8234 C   0  0  0  0  0  0  0  0  0  0  0  0
    5.4587   16.0977   15.6378 C   0  0  0  0  0  0  0  0  0  0  0  0
    6.6446   15.8782   14.9849 C   0  0  0  0  0  0  0  0  0  0  0  0
    6.9575   14.6715   14.5788 C   0  0  0  0  0  0  0  0  0  0  0  0
    6.6860   10.9754   15.8649 C   0  0  0  0  0  0  0  0  0  0  0  0
    6.5848    9.5956   15.8823 C   0  0  0  0  0  0  0  0  0  0  0  0
    6.7688    8.8921   17.0788 C   0  0  0  0  0  0  0  0  0  0  0  0
    6.9878    9.5302   18.2361 C   0  0  0  0  0  0  0  0  0  0  0  0
    7.0828   10.8731   18.2514 C   0  0  0  0  0  0  0  0  0  0  0  0
    6.9273   11.5916   17.0636 C   0  0  0  0  0  0  0  0  0  0  0  0
    5.0984    7.5982   12.3168 H   0  0  0  0  0  0  0  0  0  0  0  0
    7.3708    7.2560   11.9805 H   0  0  0  0  0  0  0  0  0  0  0  0
    8.6403    6.2948   13.6377 H   0  0  0  0  0  0  0  0  0  0  0  0
    7.6948    5.6145   15.6400 H   0  0  0  0  0  0  0  0  0  0  0  0
    5.4066    5.8613   16.0133 H   0  0  0  0  0  0  0  0  0  0  0  0
    4.4541    4.7433   12.7775 H   0  0  0  0  0  0  0  0  0  0  0  0
    3.9213    2.5605   12.1486 H   0  0  0  0  0  0  0  0  0  0  0  0
    1.9990    1.5734   12.8364 H   0  0  0  0  0  0  0  0  0  0  0  0
    0.4263    2.7554   14.0526 H   0  0  0  0  0  0  0  0  0  0  0  0
    0.8998    5.0132   14.6312 H   0  0  0  0  0  0  0  0  0  0  0  0
    2.3262    4.7855   16.4129 H   0  0  0  0  0  0  0  0  0  0  0  0
    2.1637    4.8892   18.7557 H   0  0  0  0  0  0  0  0  0  0  0  0
    2.5145    6.9097   19.8889 H   0  0  0  0  0  0  0  0  0  0  0  0
    3.2812    8.7776   18.7208 H   0  0  0  0  0  0  0  0  0  0  0  0
    3.4880    8.6794   16.3845 H   0  0  0  0  0  0  0  0  0  0  0  0
   -1.2902    5.6281   11.8124 H   0  0  0  0  0  0  0  0  0  0  0  0
   -2.5015    4.1529   13.1094 H   0  0  0  0  0  0  0  0  0  0  0  0
   -2.6657    4.4324   15.3823 H   0  0  0  0  0  0  0  0  0  0  0  0
   -1.5556    6.2635   16.3932 H   0  0  0  0  0  0  0  0  0  0  0  0
   -0.2298    7.7196   15.0941 H   0  0  0  0  0  0  0  0  0  0  0  0
   -2.4130    8.5063   12.9478 H   0  0  0  0  0  0  0  0  0  0  0  0
   -3.9858   10.1205   12.3364 H   0  0  0  0  0  0  0  0  0  0  0  0
   -3.4022   11.8030   10.8648 H   0  0  0  0  0  0  0  0  0  0  0  0
   -1.2103   11.9597   10.0897 H   0  0  0  0  0  0  0  0  0  0  0  0
    0.3589   10.3400   10.6879 H   0  0  0  0  0  0  0  0  0  0  0  0
    2.0768    5.8926   11.3954 H   0  0  0  0  0  0  0  0  0  0  0  0
    2.1683    4.5524    9.4499 H   0  0  0  0  0  0  0  0  0  0  0  0
    0.7091    4.9451    7.6420 H   0  0  0  0  0  0  0  0  0  0  0  0
   -0.8201    6.6152    7.8385 H   0  0  0  0  0  0  0  0  0  0  0  0
   -0.9627    7.9309    9.7076 H   0  0  0  0  0  0  0  0  0  0  0  0
    7.7327   12.9318   11.9259 H   0  0  0  0  0  0  0  0  0  0  0  0
    9.8864   13.2059   11.1050 H   0  0  0  0  0  0  0  0  0  0  0  0
   11.7036   12.6864   12.5242 H   0  0  0  0  0  0  0  0  0  0  0  0
   11.3892   11.4689   14.4282 H   0  0  0  0  0  0  0  0  0  0  0  0
    9.1997   11.0013   15.1793 H   0  0  0  0  0  0  0  0  0  0  0  0
    4.3420   13.0641   15.5155 H   0  0  0  0  0  0  0  0  0  0  0  0
    3.7852   15.2578   16.2601 H   0  0  0  0  0  0  0  0  0  0  0  0
    5.2407   16.9757   15.9609 H   0  0  0  0  0  0  0  0  0  0  0  0
    7.2451   16.6076   14.8234 H   0  0  0  0  0  0  0  0  0  0  0  0
    7.7866   14.5420   14.1203 H   0  0  0  0  0  0  0  0  0  0  0  0
    6.3847    9.1198   15.0745 H   0  0  0  0  0  0  0  0  0  0  0  0
    6.7403    7.9336   17.0701 H   0  0  0  0  0  0  0  0  0  0  0  0
    7.0736    9.0312   19.0527 H   0  0  0  0  0  0  0  0  0  0  0  0
    7.2588   11.3353   19.0745 H   0  0  0  0  0  0  0  0  0  0  0  0
    6.9890   12.5487   17.0898 H   0  0  0  0  0  0  0  0  0  0  0  0
  1  5  1  0  0  0  0
  2  3  1  0  0  0  0
  3  4  1  0  0  0  0
  4  2  1  0  0  0  0
  5  2  1  0  0  0  0
  6  2  1  0  0  0  0
  7  3  1  0  0  0  0
  8  3  1  0  0  0  0
  9  1  1  0  0  0  0
 10  1  1  0  0  0  0
 11  1  1  0  0  0  0
 12  1  1  0  0  0  0
 13  6  1  0  0  0  0
 14  1  1  0  0  0  0
 15 14  3  0  0  0  0
 16 11  1  0  0  0  0
 17 16  4  0  0  0  0
 18 17  4  0  0  0  0
 19 18  4  0  0  0  0
 20 19  4  0  0  0  0
 21 16  4  0  0  0  0
 22 11  1  0  0  0  0
 23 22  4  0  0  0  0
 24 23  4  0  0  0  0
 25 24  4  0  0  0  0
 26 25  4  0  0  0  0
 27 22  4  0  0  0  0
 28 11  1  0  0  0  0
 29 28  4  0  0  0  0
 30 29  4  0  0  0  0
 31 30  4  0  0  0  0
 32 31  4  0  0  0  0
 33 28  4  0  0  0  0
 34 12  1  0  0  0  0
 35 34  4  0  0  0  0
 36 35  4  0  0  0  0
 37 36  4  0  0  0  0
 38 37  4  0  0  0  0
 39 34  4  0  0  0  0
 40 12  1  0  0  0  0
 41 40  4  0  0  0  0
 42 41  4  0  0  0  0
 43 42  4  0  0  0  0
 44 43  4  0  0  0  0
 45 40  4  0  0  0  0
 46 12  1  0  0  0  0
 47 46  4  0  0  0  0
 48 47  4  0  0  0  0
 49 48  4  0  0  0  0
 50 49  4  0  0  0  0
 51 46  4  0  0  0  0
 52 13  1  0  0  0  0
 53 52  4  0  0  0  0
 54 53  4  0  0  0  0
 55 54  4  0  0  0  0
 56 55  4  0  0  0  0
 57 52  4  0  0  0  0
 58 13  1  0  0  0  0
 59 58  4  0  0  0  0
 60 59  4  0  0  0  0
 61 60  4  0  0  0  0
 62 61  4  0  0  0  0
 63 58  4  0  0  0  0
 64 13  1  0  0  0  0
 65 64  4  0  0  0  0
 66 65  4  0  0  0  0
 67 66  4  0  0  0  0
 68 67  4  0  0  0  0
 69 64  4  0  0  0  0
 70 35  1  0  0  0  0
 71 36  1  0  0  0  0
 72 37  1  0  0  0  0
 73 38  1  0  0  0  0
 74 39  1  0  0  0  0
 75 41  1  0  0  0  0
 76 42  1  0  0  0  0
 77 43  1  0  0  0  0
 78 44  1  0  0  0  0
 79 45  1  0  0  0  0
 80 47  1  0  0  0  0
 81 48  1  0  0  0  0
 82 49  1  0  0  0  0
 83 50  1  0  0  0  0
 84 51  1  0  0  0  0
 85 17  1  0  0  0  0
 86 18  1  0  0  0  0
 87 19  1  0  0  0  0
 88 20  1  0  0  0  0
 89 21  1  0  0  0  0
 90 23  1  0  0  0  0
 91 24  1  0  0  0  0
 92 25  1  0  0  0  0
 93 26  1  0  0  0  0
 94 27  1  0  0  0  0
 95 29  1  0  0  0  0
 96 30  1  0  0  0  0
 97 31  1  0  0  0  0
 98 32  1  0  0  0  0
 99 33  1  0  0  0  0
100 53  1  0  0  0  0
101 54  1  0  0  0  0
102 55  1  0  0  0  0
103 56  1  0  0  0  0
104 57  1  0  0  0  0
105 59  1  0  0  0  0
106 60  1  0  0  0  0
107 61  1  0  0  0  0
108 62  1  0  0  0  0
109 63  1  0  0  0  0
110 65  1  0  0  0  0
111 66  1  0  0  0  0
112 67  1  0  0  0  0
113 68  1  0  0  0  0
114 69  1  0  0  0  0
  2 10  1  0  0  0  0
  3  6  1  0  0  0  0
  4  5  1  0  0  0  0
  4  8  1  0  0  0  0
  4  9  1  0  0  0  0
  5  9  1  0  0  0  0
  5 10  1  0  0  0  0
  6  7  1  0  0  0  0
  6 10  1  0  0  0  0
  7  8  1  0  0  0  0
  8  9  1  0  0  0  0
 20 21  4  0  0  0  0
 26 27  4  0  0  0  0
 32 33  4  0  0  0  0
 38 39  4  0  0  0  0
 44 45  4  0  0  0  0
 50 51  4  0  0  0  0
 56 57  4  0  0  0  0
 62 63  4  0  0  0  0
 68 69  4  0  0  0  0
M  END
$$$$
FUCDEM

From CSD data. Using bond type 'Any'. No disordered atoms. Largest molecule.
 93115  0  0  0  0  0  0  0  0999 V2000
   16.7032   10.6438   10.5278 W   0  0  0  0  0  0  0  0  0  0  0  0
   14.1751   10.9746   10.0707 Ir  0  0  0  0  0  0  0  0  0  0  0  0
   12.9349   12.8366    9.7686 P   0  0  0  0  0  0  0  0  0  0  0  0
   12.4361    9.5371   10.0359 P   0  0  0  0  0  0  0  0  0  0  0  0
   18.4994   11.1552    8.9505 C   0  0  0  0  0  0  0  0  0  0  0  0
   18.2758    9.5757    8.9973 C   0  0  0  0  0  0  0  0  0  0  0  0
   19.6842   11.8208    9.6991 C   0  0  0  0  0  0  0  0  0  0  0  0
   19.2466    8.6840    9.8314 C   0  0  0  0  0  0  0  0  0  0  0  0
   16.6611    9.1223    8.7113 B   0  0  0  0  0  0  0  0  0  0  0  0
   15.7821   10.6948    8.3971 B   0  0  0  0  0  0  0  0  0  0  0  0
   17.0624   12.0027    8.5616 B   0  0  0  0  0  0  0  0  0  0  0  0
   19.0861   10.2455    7.6152 B   0  0  0  0  0  0  0  0  0  0  0  0
   17.9338    8.9652    7.4441 B   0  0  0  0  0  0  0  0  0  0  0  0
   16.3210    9.6777    7.0404 B   0  0  0  0  0  0  0  0  0  0  0  0
   16.5828   11.4349    6.9749 B   0  0  0  0  0  0  0  0  0  0  0  0
   18.2758   11.7698    7.3331 B   0  0  0  0  0  0  0  0  0  0  0  0
   17.8765   10.3420    6.3787 B   0  0  0  0  0  0  0  0  0  0  0  0
   17.0624    9.2133   11.8338 C   0  0  0  0  0  0  0  0  0  0  0  0
   17.1484    8.3119   12.5436 O   0  0  0  0  0  0  0  0  0  0  0  0
   17.5535   11.9008   11.7683 C   0  0  0  0  0  0  0  0  0  0  0  0
   17.9625   12.7167   12.5209 O   0  0  0  0  0  0  0  0  0  0  0  0
   15.1038   10.9539   11.7884 C   0  0  0  0  0  0  0  0  0  0  0  0
   14.8095   11.0890   13.1906 C   0  0  0  0  0  0  0  0  0  0  0  0
   13.4680   11.3633   13.5795 C   0  0  0  0  0  0  0  0  0  0  0  0
   13.1050   11.5424   14.9323 C   0  0  0  0  0  0  0  0  0  0  0  0
   14.0642   11.4032   15.9295 C   0  0  0  0  0  0  0  0  0  0  0  0
   15.3694   11.0931   15.5579 C   0  0  0  0  0  0  0  0  0  0  0  0
   15.6961   10.9457   14.2198 C   0  0  0  0  0  0  0  0  0  0  0  0
   13.7012   11.5369   17.3891 C   0  0  0  0  0  0  0  0  0  0  0  0
   14.0948   14.2533    9.5534 C   0  0  0  0  0  0  0  0  0  0  0  0
   14.9088   14.6034   10.7671 C   0  0  0  0  0  0  0  0  0  0  0  0
   11.8476   12.9578    8.2982 C   0  0  0  0  0  0  0  0  0  0  0  0
   12.5508   12.6877    7.0030 C   0  0  0  0  0  0  0  0  0  0  0  0
   11.8610   13.4347   11.1347 C   0  0  0  0  0  0  0  0  0  0  0  0
   11.1176   14.7729   10.8393 C   0  0  0  0  0  0  0  0  0  0  0  0
   12.9750    7.9178   10.7190 C   0  0  0  0  0  0  0  0  0  0  0  0
   13.2559    7.8778   12.1934 C   0  0  0  0  0  0  0  0  0  0  0  0
   10.9189    9.9037   10.9596 C   0  0  0  0  0  0  0  0  0  0  0  0
    9.8679    8.7709   11.0545 C   0  0  0  0  0  0  0  0  0  0  0  0
   11.7539    9.0782    8.3851 C   0  0  0  0  0  0  0  0  0  0  0  0
   12.7247    8.5035    7.3946 C   0  0  0  0  0  0  0  0  0  0  0  0
   19.1854   12.6174    9.8929 H   0  0  0  0  0  0  0  0  0  0  0  0
   20.4696   12.0496    9.1978 H   0  0  0  0  0  0  0  0  0  0  0  0
   19.9402   11.3963   10.5212 H   0  0  0  0  0  0  0  0  0  0  0  0
   18.6313    7.9729   10.0306 H   0  0  0  0  0  0  0  0  0  0  0  0
   19.4453    9.1678   10.6361 H   0  0  0  0  0  0  0  0  0  0  0  0
   20.0549    8.3161    9.4705 H   0  0  0  0  0  0  0  0  0  0  0  0
   16.1547    8.2582    9.1671 H   0  0  0  0  0  0  0  0  0  0  0  0
   14.5591   10.9250    8.3330 H   0  0  0  0  0  0  0  0  0  0  0  0
   16.8102   13.0088    8.9292 H   0  0  0  0  0  0  0  0  0  0  0  0
   20.1466   10.1022    7.3639 H   0  0  0  0  0  0  0  0  0  0  0  0
   18.2529    7.9784    7.0778 H   0  0  0  0  0  0  0  0  0  0  0  0
   15.5815    9.1637    6.4095 H   0  0  0  0  0  0  0  0  0  0  0  0
   16.0095   12.0785    6.2932 H   0  0  0  0  0  0  0  0  0  0  0  0
   18.8166   12.6229    6.8947 H   0  0  0  0  0  0  0  0  0  0  0  0
   18.1574   10.2607    5.3187 H   0  0  0  0  0  0  0  0  0  0  0  0
   12.7916   11.4308   12.9018 H   0  0  0  0  0  0  0  0  0  0  0  0
   12.1973   11.7602   15.1635 H   0  0  0  0  0  0  0  0  0  0  0  0
   16.0439   10.9829   16.2315 H   0  0  0  0  0  0  0  0  0  0  0  0
   16.6057   10.7265   14.0019 H   0  0  0  0  0  0  0  0  0  0  0  0
   13.0113   12.1488   17.6565 H   0  0  0  0  0  0  0  0  0  0  0  0
   14.5458   11.8346   17.7353 H   0  0  0  0  0  0  0  0  0  0  0  0
   13.5043   10.6631   17.7327 H   0  0  0  0  0  0  0  0  0  0  0  0
   13.5769   15.0251    9.3101 H   0  0  0  0  0  0  0  0  0  0  0  0
   14.7006   14.0370    8.8423 H   0  0  0  0  0  0  0  0  0  0  0  0
   15.4840   15.2966   10.4343 H   0  0  0  0  0  0  0  0  0  0  0  0
   15.4324   13.9488   11.2350 H   0  0  0  0  0  0  0  0  0  0  0  0
   14.2630   14.9838   11.3660 H   0  0  0  0  0  0  0  0  0  0  0  0
   11.4807   13.8454    8.2648 H   0  0  0  0  0  0  0  0  0  0  0  0
   11.1348   12.3211    8.3945 H   0  0  0  0  0  0  0  0  0  0  0  0
   11.9393   12.8407    6.2785 H   0  0  0  0  0  0  0  0  0  0  0  0
   12.8909   11.7919    6.9522 H   0  0  0  0  0  0  0  0  0  0  0  0
   13.2788   13.3107    6.9455 H   0  0  0  0  0  0  0  0  0  0  0  0
   12.4094   13.5629   11.9127 H   0  0  0  0  0  0  0  0  0  0  0  0
   11.2017   12.7608   11.3152 H   0  0  0  0  0  0  0  0  0  0  0  0
   10.5807   14.8666   11.6293 H   0  0  0  0  0  0  0  0  0  0  0  0
   10.5501   14.7771   10.0640 H   0  0  0  0  0  0  0  0  0  0  0  0
   11.7387   15.5034   10.7858 H   0  0  0  0  0  0  0  0  0  0  0  0
   13.7776    7.6614   10.2592 H   0  0  0  0  0  0  0  0  0  0  0  0
   12.2833    7.2783   10.5359 H   0  0  0  0  0  0  0  0  0  0  0  0
   13.4413    6.9696   12.4447 H   0  0  0  0  0  0  0  0  0  0  0  0
   12.3616    8.1066   12.4540 H   0  0  0  0  0  0  0  0  0  0  0  0
   13.8770    8.4635   12.6345 H   0  0  0  0  0  0  0  0  0  0  0  0
   10.4966   10.6549   10.5359 H   0  0  0  0  0  0  0  0  0  0  0  0
   11.1730   10.1436   11.8539 H   0  0  0  0  0  0  0  0  0  0  0  0
    9.0519    9.1085   11.4315 H   0  0  0  0  0  0  0  0  0  0  0  0
   10.1660    8.0129   11.5638 H   0  0  0  0  0  0  0  0  0  0  0  0
    9.7131    8.5049   10.1456 H   0  0  0  0  0  0  0  0  0  0  0  0
   11.3756    9.8707    7.9961 H   0  0  0  0  0  0  0  0  0  0  0  0
   11.0603    8.4277    8.5241 H   0  0  0  0  0  0  0  0  0  0  0  0
   12.5871    8.4167    6.4496 H   0  0  0  0  0  0  0  0  0  0  0  0
   13.3381    7.8268    7.6927 H   0  0  0  0  0  0  0  0  0  0  0  0
   13.0878    9.3704    7.5871 H   0  0  0  0  0  0  0  0  0  0  0  0
  1  2  2  0  0  0  0
  2  3  1  0  0  0  0
  3 30  1  0  0  0  0
  4  2  1  0  0  0  0
  5  1  1  0  0  0  0
  6  1  1  0  0  0  0
  7  5  1  0  0  0  0
  8  6  1  0  0  0  0
  9  1  1  0  0  0  0
 10  1  1  0  0  0  0
 11  1  1  0  0  0  0
 12  5  1  0  0  0  0
 13  6  1  0  0  0  0
 14  9  1  0  0  0  0
 15 10  1  0  0  0  0
 16  5  1  0  0  0  0
 17 12  1  0  0  0  0
 18  1  1  0  0  0  0
 19 18  3  0  0  0  0
 20  1  1  0  0  0  0
 21 20  3  0  0  0  0
 22  1  8  0  0  0  0
 23 22  1  0  0  0  0
 24 23  4  0  0  0  0
 25 24  4  0  0  0  0
 26 25  4  0  0  0  0
 27 26  4  0  0  0  0
 28 23  4  0  0  0  0
 29 26  1  0  0  0  0
 30 31  1  0  0  0  0
 31 66  1  0  0  0  0
 32  3  1  0  0  0  0
 33 32  1  0  0  0  0
 34  3  1  0  0  0  0
 35 34  1  0  0  0  0
 36  4  1  0  0  0  0
 37 36  1  0  0  0  0
 38  4  1  0  0  0  0
 39 38  1  0  0  0  0
 40  4  1  0  0  0  0
 41 40  1  0  0  0  0
 42  7  1  0  0  0  0
 43  7  1  0  0  0  0
 44  7  1  0  0  0  0
 45  8  1  0  0  0  0
 46  8  1  0  0  0  0
 47  8  1  0  0  0  0
 48  9  1  0  0  0  0
 49  2  1  0  0  0  0
 50 11  1  0  0  0  0
 51 12  1  0  0  0  0
 52 13  1  0  0  0  0
 53 14  1  0  0  0  0
 54 15  1  0  0  0  0
 55 16  1  0  0  0  0
 56 17  1  0  0  0  0
 57 24  1  0  0  0  0
 58 25  1  0  0  0  0
 59 27  1  0  0  0  0
 60 28  1  0  0  0  0
 61 29  1  0  0  0  0
 62 29  1  0  0  0  0
 63 29  1  0  0  0  0
 64 30  1  0  0  0  0
 65 30  1  0  0  0  0
 67 31  1  0  0  0  0
 68 31  1  0  0  0  0
 69 32  1  0  0  0  0
 70 32  1  0  0  0  0
 71 33  1  0  0  0  0
 72 33  1  0  0  0  0
 73 33  1  0  0  0  0
 74 34  1  0  0  0  0
 75 34  1  0  0  0  0
 76 35  1  0  0  0  0
 77 35  1  0  0  0  0
 78 35  1  0  0  0  0
 79 36  1  0  0  0  0
 80 36  1  0  0  0  0
 81 37  1  0  0  0  0
 82 37  1  0  0  0  0
 83 37  1  0  0  0  0
 84 38  1  0  0  0  0
 85 38  1  0  0  0  0
 86 39  1  0  0  0  0
 87 39  1  0  0  0  0
 88 39  1  0  0  0  0
 89 40  1  0  0  0  0
 90 40  1  0  0  0  0
 91 41  1  0  0  0  0
 92 41  1  0  0  0  0
 93 41  1  0  0  0  0
  2 10  1  0  0  0  0
  2 22  8  0  0  0  0
  5  6  1  0  0  0  0
  5 11  1  0  0  0  0
  6  9  1  0  0  0  0
  6 12  1  0  0  0  0
  9 10  1  0  0  0  0
  9 13  1  0  0  0  0
 10 11  1  0  0  0  0
 10 14  1  0  0  0  0
 10 49  1  0  0  0  0
 11 15  1  0  0  0  0
 11 16  1  0  0  0  0
 12 13  1  0  0  0  0
 12 16  1  0  0  0  0
 13 14  1  0  0  0  0
 13 17  1  0  0  0  0
 14 15  1  0  0  0  0
 14 17  1  0  0  0  0
 15 16  1  0  0  0  0
 15 17  1  0  0  0  0
 16 17  1  0  0  0  0
 27 28  4  0  0  0  0
M  END
$$$$
FUCDEM10

From CSD data. Using bond type 'Any'. No disordered atoms. Largest molecule.
 92114  0  0  0  0  0  0  0  0999 V2000
   16.7032   10.6438   10.5278 W   0  0  0  0  0  0  0  0  0  0  0  0
   14.1751   10.9746   10.0707 Ir  0  0  0  0  0  0  0  0  0  0  0  0
   12.9349   12.8366    9.7686 P   0  0  0  0  0  0  0  0  0  0  0  0
   12.4361    9.5371   10.0359 P   0  0  0  0  0  0  0  0  0  0  0  0
   18.4994   11.1552    8.9505 C   0  0  0  0  0  0  0  0  0  0  0  0
   18.2758    9.5757    8.9973 C   0  0  0  0  0  0  0  0  0  0  0  0
   19.6842   11.8208    9.6991 C   0  0  0  0  0  0  0  0  0  0  0  0
   19.2466    8.6840    9.8314 C   0  0  0  0  0  0  0  0  0  0  0  0
   16.6611    9.1223    8.7113 B   0  0  0  0  0  0  0  0  0  0  0  0
   15.7821   10.6948    8.3971 B   0  0  0  0  0  0  0  0  0  0  0  0
   17.0624   12.0027    8.5616 B   0  0  0  0  0  0  0  0  0  0  0  0
   19.0861   10.2455    7.6152 B   0  0  0  0  0  0  0  0  0  0  0  0
   17.9338    8.9652    7.4441 B   0  0  0  0  0  0  0  0  0  0  0  0
   16.3210    9.6777    7.0404 B   0  0  0  0  0  0  0  0  0  0  0  0
   16.5828   11.4349    6.9749 B   0  0  0  0  0  0  0  0  0  0  0  0
   18.2758   11.7698    7.3331 B   0  0  0  0  0  0  0  0  0  0  0  0
   17.8765   10.3420    6.3787 B   0  0  0  0  0  0  0  0  0  0  0  0
   17.0624    9.2133   11.8338 C   0  0  0  0  0  0  0  0  0  0  0  0
   17.1484    8.3119   12.5436 O   0  0  0  0  0  0  0  0  0  0  0  0
   17.5535   11.9008   11.7683 C   0  0  0  0  0  0  0  0  0  0  0  0
   17.9625   12.7167   12.5209 O   0  0  0  0  0  0  0  0  0  0  0  0
   15.1038   10.9539   11.7884 C   0  0  0  0  0  0  0  0  0  0  0  0
   14.8095   11.0890   13.1906 C   0  0  0  0  0  0  0  0  0  0  0  0
   13.4680   11.3633   13.5795 C   0  0  0  0  0  0  0  0  0  0  0  0
   13.1050   11.5424   14.9323 C   0  0  0  0  0  0  0  0  0  0  0  0
   14.0642   11.4032   15.9295 C   0  0  0  0  0  0  0  0  0  0  0  0
   15.3694   11.0931   15.5579 C   0  0  0  0  0  0  0  0  0  0  0  0
   15.6961   10.9457   14.2198 C   0  0  0  0  0  0  0  0  0  0  0  0
   13.7012   11.5369   17.3891 C   0  0  0  0  0  0  0  0  0  0  0  0
   14.0948   14.2533    9.5534 C   0  0  0  0  0  0  0  0  0  0  0  0
   14.9088   14.6034   10.7671 C   0  0  0  0  0  0  0  0  0  0  0  0
   11.8476   12.9578    8.2982 C   0  0  0  0  0  0  0  0  0  0  0  0
   12.5508   12.6877    7.0030 C   0  0  0  0  0  0  0  0  0  0  0  0
   11.8610   13.4347   11.1347 C   0  0  0  0  0  0  0  0  0  0  0  0
   11.1176   14.7729   10.8393 C   0  0  0  0  0  0  0  0  0  0  0  0
   12.9750    7.9178   10.7190 C   0  0  0  0  0  0  0  0  0  0  0  0
   13.2559    7.8778   12.1934 C   0  0  0  0  0  0  0  0  0  0  0  0
   10.9189    9.9037   10.9596 C   0  0  0  0  0  0  0  0  0  0  0  0
    9.8679    8.7709   11.0545 C   0  0  0  0  0  0  0  0  0  0  0  0
   11.7539    9.0782    8.3851 C   0  0  0  0  0  0  0  0  0  0  0  0
   12.7247    8.5035    7.3946 C   0  0  0  0  0  0  0  0  0  0  0  0
   19.1854   12.6174    9.8929 H   0  0  0  0  0  0  0  0  0  0  0  0
   20.4696   12.0496    9.1978 H   0  0  0  0  0  0  0  0  0  0  0  0
   19.9402   11.3963   10.5212 H   0  0  0  0  0  0  0  0  0  0  0  0
   18.6313    7.9729   10.0306 H   0  0  0  0  0  0  0  0  0  0  0  0
   19.4453    9.1678   10.6361 H   0  0  0  0  0  0  0  0  0  0  0  0
   20.0549    8.3161    9.4705 H   0  0  0  0  0  0  0  0  0  0  0  0
   16.1547    8.2582    9.1671 H   0  0  0  0  0  0  0  0  0  0  0  0
   14.5591   10.9250    8.3330 H   0  0  0  0  0  0  0  0  0  0  0  0
   16.8102   13.0088    8.9292 H   0  0  0  0  0  0  0  0  0  0  0  0
   20.1466   10.1022    7.3639 H   0  0  0  0  0  0  0  0  0  0  0  0
   18.2529    7.9784    7.0778 H   0  0  0  0  0  0  0  0  0  0  0  0
   15.5815    9.1637    6.4095 H   0  0  0  0  0  0  0  0  0  0  0  0
   16.0095   12.0785    6.2932 H   0  0  0  0  0  0  0  0  0  0  0  0
   18.8166   12.6229    6.8947 H   0  0  0  0  0  0  0  0  0  0  0  0
   18.1574   10.2607    5.3187 H   0  0  0  0  0  0  0  0  0  0  0  0
   12.7916   11.4308   12.9018 H   0  0  0  0  0  0  0  0  0  0  0  0
   12.1973   11.7602   15.1635 H   0  0  0  0  0  0  0  0  0  0  0  0
   16.0439   10.9829   16.2315 H   0  0  0  0  0  0  0  0  0  0  0  0
   16.6057   10.7265   14.0019 H   0  0  0  0  0  0  0  0  0  0  0  0
   13.0113   12.1488   17.6565 H   0  0  0  0  0  0  0  0  0  0  0  0
   14.5458   11.8346   17.7353 H   0  0  0  0  0  0  0  0  0  0  0  0
   13.5043   10.6631   17.7327 H   0  0  0  0  0  0  0  0  0  0  0  0
   13.5769   15.0251    9.3101 H   0  0  0  0  0  0  0  0  0  0  0  0
   14.7006   14.0370    8.8423 H   0  0  0  0  0  0  0  0  0  0  0  0
   15.4840   15.2966   10.4343 H   0  0  0  0  0  0  0  0  0  0  0  0
   15.4324   13.9488   11.2350 H   0  0  0  0  0  0  0  0  0  0  0  0
   14.2630   14.9838   11.3660 H   0  0  0  0  0  0  0  0  0  0  0  0
   11.4807   13.8454    8.2648 H   0  0  0  0  0  0  0  0  0  0  0  0
   11.1348   12.3211    8.3945 H   0  0  0  0  0  0  0  0  0  0  0  0
   11.9393   12.8407    6.2785 H   0  0  0  0  0  0  0  0  0  0  0  0
   12.8909   11.7919    6.9522 H   0  0  0  0  0  0  0  0  0  0  0  0
   13.2788   13.3107    6.9455 H   0  0  0  0  0  0  0  0  0  0  0  0
   12.4094   13.5629   11.9127 H   0  0  0  0  0  0  0  0  0  0  0  0
   11.2017   12.7608   11.3152 H   0  0  0  0  0  0  0  0  0  0  0  0
   10.5807   14.8666   11.6293 H   0  0  0  0  0  0  0  0  0  0  0  0
   11.7387   15.5034   10.7858 H   0  0  0  0  0  0  0  0  0  0  0  0
   13.7776    7.6614   10.2592 H   0  0  0  0  0  0  0  0  0  0  0  0
   12.2833    7.2783   10.5359 H   0  0  0  0  0  0  0  0  0  0  0  0
   13.4413    6.9696   12.4447 H   0  0  0  0  0  0  0  0  0  0  0  0
   12.3616    8.1066   12.4540 H   0  0  0  0  0  0  0  0  0  0  0  0
   13.8770    8.4635   12.6345 H   0  0  0  0  0  0  0  0  0  0  0  0
   10.4966   10.6549   10.5359 H   0  0  0  0  0  0  0  0  0  0  0  0
   11.1730   10.1436   11.8539 H   0  0  0  0  0  0  0  0  0  0  0  0
    9.0519    9.1085   11.4315 H   0  0  0  0  0  0  0  0  0  0  0  0
   10.1660    8.0129   11.5638 H   0  0  0  0  0  0  0  0  0  0  0  0
    9.7131    8.5049   10.1456 H   0  0  0  0  0  0  0  0  0  0  0  0
   11.3756    9.8707    7.9961 H   0  0  0  0  0  0  0  0  0  0  0  0
   11.0603    8.4277    8.5241 H   0  0  0  0  0  0  0  0  0  0  0  0
   12.5871    8.4167    6.4496 H   0  0  0  0  0  0  0  0  0  0  0  0
   13.3381    7.8268    7.6927 H   0  0  0  0  0  0  0  0  0  0  0  0
   13.0878    9.3704    7.5871 H   0  0  0  0  0  0  0  0  0  0  0  0
  1  2  2  0  0  0  0
  2  3  1  0  0  0  0
  3 30  1  0  0  0  0
  4  2  1  0  0  0  0
  5  1  1  0  0  0  0
  6  1  1  0  0  0  0
  7  5  1  0  0  0  0
  8  6  1  0  0  0  0
  9  1  1  0  0  0  0
 10  1  1  0  0  0  0
 11  1  1  0  0  0  0
 12  5  1  0  0  0  0
 13  6  1  0  0  0  0
 14  9  1  0  0  0  0
 15 10  1  0  0  0  0
 16  5  1  0  0  0  0
 17 12  1  0  0  0  0
 18  1  1  0  0  0  0
 19 18  3  0  0  0  0
 20  1  1  0  0  0  0
 21 20  3  0  0  0  0
 22  1  1  0  0  0  0
 23 22  1  0  0  0  0
 24 23  4  0  0  0  0
 25 24  4  0  0  0  0
 26 25  4  0  0  0  0
 27 26  4  0  0  0  0
 28 23  4  0  0  0  0
 29 26  1  0  0  0  0
 30 31  1  0  0  0  0
 31 66  1  0  0  0  0
 32  3  1  0  0  0  0
 33 32  1  0  0  0  0
 34  3  1  0  0  0  0
 35 34  1  0  0  0  0
 36  4  1  0  0  0  0
 37 36  1  0  0  0  0
 38  4  1  0  0  0  0
 39 38  1  0  0  0  0
 40  4  1  0  0  0  0
 41 40  1  0  0  0  0
 42  7  1  0  0  0  0
 43  7  1  0  0  0  0
 44  7  1  0  0  0  0
 45  8  1  0  0  0  0
 46  8  1  0  0  0  0
 47  8  1  0  0  0  0
 48  9  1  0  0  0  0
 49  2  1  0  0  0  0
 50 11  1  0  0  0  0
 51 12  1  0  0  0  0
 52 13  1  0  0  0  0
 53 14  1  0  0  0  0
 54 15  1  0  0  0  0
 55 16  1  0  0  0  0
 56 17  1  0  0  0  0
 57 24  1  0  0  0  0
 58 25  1  0  0  0  0
 59 27  1  0  0  0  0
 60 28  1  0  0  0  0
 61 29  1  0  0  0  0
 62 29  1  0  0  0  0
 63 29  1  0  0  0  0
 64 30  1  0  0  0  0
 65 30  1  0  0  0  0
 67 31  1  0  0  0  0
 68 31  1  0  0  0  0
 69 32  1  0  0  0  0
 70 32  1  0  0  0  0
 71 33  1  0  0  0  0
 72 33  1  0  0  0  0
 73 33  1  0  0  0  0
 74 34  1  0  0  0  0
 75 34  1  0  0  0  0
 76 35  1  0  0  0  0
 77 35  1  0  0  0  0
 78 36  1  0  0  0  0
 79 36  1  0  0  0  0
 80 37  1  0  0  0  0
 81 37  1  0  0  0  0
 82 37  1  0  0  0  0
 83 38  1  0  0  0  0
 84 38  1  0  0  0  0
 85 39  1  0  0  0  0
 86 39  1  0  0  0  0
 87 39  1  0  0  0  0
 88 40  1  0  0  0  0
 89 40  1  0  0  0  0
 90 41  1  0  0  0  0
 91 41  1  0  0  0  0
 92 41  1  0  0  0  0
  2 10  1  0  0  0  0
  2 22  2  0  0  0  0
  5  6  1  0  0  0  0
  5 11  1  0  0  0  0
  6  9  1  0  0  0  0
  6 12  1  0  0  0  0
  9 10  1  0  0  0  0
  9 13  1  0  0  0  0
 10 11  1  0  0  0  0
 10 14  1  0  0  0  0
 10 49  1  0  0  0  0
 11 15  1  0  0  0  0
 11 16  1  0  0  0  0
 12 13  1  0  0  0  0
 12 16  1  0  0  0  0
 13 14  1  0  0  0  0
 13 17  1  0  0  0  0
 14 15  1  0  0  0  0
 14 17  1  0  0  0  0
 15 16  1  0  0  0  0
 15 17  1  0  0  0  0
 16 17  1  0  0  0  0
 27 28  4  0  0  0  0
M  END
$$$$
FUMDAS

From CSD data. Using bond type 'Any'. No disordered atoms. Largest molecule.
 82101  0  0  0  0  0  0  0  0999 V2000
    2.2340    1.2915    2.6302 Ru  0  0  0  0  0  0  0  0  0  0  0  0
    2.9477    3.2359    3.9414 P   0  0  0  0  0  0  0  0  0  0  0  0
    1.1484    2.5346    0.8600 P   0  0  0  0  0  0  0  0  0  0  0  0
    4.5670    0.6419    1.0210 O   0  0  0  0  0  0  0  0  0  0  0  0
    5.9682    0.4210    1.1409 C   0  0  0  0  0  0  0  0  0  0  0  0
    6.6284    0.8511   -0.1531 C   0  0  0  0  0  0  0  0  0  0  0  0
   -0.2316    1.3160    4.2655 O   0  0  0  0  0  0  0  0  0  0  0  0
   -1.5469    0.7697    4.4887 C   0  0  0  0  0  0  0  0  0  0  0  0
   -2.4966    1.8404    4.7083 C   0  0  0  0  0  0  0  0  0  0  0  0
    3.2097    3.0014    5.7447 C   0  0  0  0  0  0  0  0  0  0  0  0
    2.2997    3.4871    6.6837 C   0  0  0  0  0  0  0  0  0  0  0  0
    2.5422    3.3075    8.0466 C   0  0  0  0  0  0  0  0  0  0  0  0
    3.6927    2.6424    8.4680 C   0  0  0  0  0  0  0  0  0  0  0  0
    4.6016    2.1568    7.5290 C   0  0  0  0  0  0  0  0  0  0  0  0
    4.3601    2.3363    6.1673 C   0  0  0  0  0  0  0  0  0  0  0  0
    4.5640    3.8952    3.3870 C   0  0  0  0  0  0  0  0  0  0  0  0
    5.3258    4.6998    4.2346 C   0  0  0  0  0  0  0  0  0  0  0  0
    6.4900    5.3042    3.7609 C   0  0  0  0  0  0  0  0  0  0  0  0
    6.8925    5.1040    2.4396 C   0  0  0  0  0  0  0  0  0  0  0  0
    6.1307    4.2994    1.5932 C   0  0  0  0  0  0  0  0  0  0  0  0
    4.9664    3.6950    2.0668 C   0  0  0  0  0  0  0  0  0  0  0  0
    1.8561    4.7049    3.8761 C   0  0  0  0  0  0  0  0  0  0  0  0
    2.3379    5.9771    3.5686 C   0  0  0  0  0  0  0  0  0  0  0  0
    1.4714    7.0710    3.5710 C   0  0  0  0  0  0  0  0  0  0  0  0
    0.1231    6.8914    3.8808 C   0  0  0  0  0  0  0  0  0  0  0  0
   -0.3577    5.6193    4.1883 C   0  0  0  0  0  0  0  0  0  0  0  0
    0.5078    4.5254    4.1859 C   0  0  0  0  0  0  0  0  0  0  0  0
    1.0622    1.6673   -0.7337 C   0  0  0  0  0  0  0  0  0  0  0  0
   -0.6108    2.8490    1.1907 C   0  0  0  0  0  0  0  0  0  0  0  0
    1.7817    4.1573    0.3455 C   0  0  0  0  0  0  0  0  0  0  0  0
    3.6526    0.0452    1.8484 B   0  0  0  0  0  0  0  0  0  0  0  0
    0.7453    0.5360    3.7882 B   0  0  0  0  0  0  0  0  0  0  0  0
    3.6947   -0.2893    3.6102 B   0  0  0  0  0  0  0  0  0  0  0  0
    2.2830   -0.0633    4.5361 B   0  0  0  0  0  0  0  0  0  0  0  0
    0.7512   -0.4817    2.2877 B   0  0  0  0  0  0  0  0  0  0  0  0
    2.1533   -0.7142    1.3629 B   0  0  0  0  0  0  0  0  0  0  0  0
    3.4174   -1.5885    2.3565 B   0  0  0  0  0  0  0  0  0  0  0  0
    0.9901   -1.2140    3.9390 B   0  0  0  0  0  0  0  0  0  0  0  0
    2.6785   -1.6957    3.9758 B   0  0  0  0  0  0  0  0  0  0  0  0
    1.6928   -1.9682    2.5203 B   0  0  0  0  0  0  0  0  0  0  0  0
    6.3709    1.0074    1.9529 H   0  0  0  0  0  0  0  0  0  0  0  0
    6.1635   -0.6264    1.3201 H   0  0  0  0  0  0  0  0  0  0  0  0
    7.6735    0.5476   -0.4915 H   0  0  0  0  0  0  0  0  0  0  0  0
    6.5659    1.9230   -0.2683 H   0  0  0  0  0  0  0  0  0  0  0  0
    6.1019    0.3707   -0.9652 H   0  0  0  0  0  0  0  0  0  0  0  0
   -1.8507    0.1963    3.6256 H   0  0  0  0  0  0  0  0  0  0  0  0
   -1.5250    0.1279    5.3565 H   0  0  0  0  0  0  0  0  0  0  0  0
   -3.4528    1.4129    4.9695 H   0  0  0  0  0  0  0  0  0  0  0  0
   -2.6131    2.4900    3.8535 H   0  0  0  0  0  0  0  0  0  0  0  0
   -2.1180    2.4099    5.5452 H   0  0  0  0  0  0  0  0  0  0  0  0
    1.4093    4.0024    6.3572 H   0  0  0  0  0  0  0  0  0  0  0  0
    1.8381    3.6834    8.7743 H   0  0  0  0  0  0  0  0  0  0  0  0
    3.8800    2.5029    9.5234 H   0  0  0  0  0  0  0  0  0  0  0  0
    5.4930    1.6428    7.8554 H   0  0  0  0  0  0  0  0  0  0  0  0
    5.0642    1.9618    5.4396 H   0  0  0  0  0  0  0  0  0  0  0  0
    5.0141    4.8560    5.2567 H   0  0  0  0  0  0  0  0  0  0  0  0
    7.0802    5.9280    4.4162 H   0  0  0  0  0  0  0  0  0  0  0  0
    7.7943    5.5715    2.0740 H   0  0  0  0  0  0  0  0  0  0  0  0
    6.4424    4.1444    0.5710 H   0  0  0  0  0  0  0  0  0  0  0  0
    4.3763    3.0725    1.4103 H   0  0  0  0  0  0  0  0  0  0  0  0
    3.3814    6.1165    3.3276 H   0  0  0  0  0  0  0  0  0  0  0  0
    1.8444    8.0564    3.3324 H   0  0  0  0  0  0  0  0  0  0  0  0
   -0.5474    7.7387    3.8820 H   0  0  0  0  0  0  0  0  0  0  0  0
   -1.4012    5.4811    4.4293 H   0  0  0  0  0  0  0  0  0  0  0  0
    0.1348    3.5413    4.4245 H   0  0  0  0  0  0  0  0  0  0  0  0
    0.6687    2.2265   -1.5694 H   0  0  0  0  0  0  0  0  0  0  0  0
    0.5476    0.7207   -0.6601 H   0  0  0  0  0  0  0  0  0  0  0  0
    2.1170    1.4930   -0.8832 H   0  0  0  0  0  0  0  0  0  0  0  0
   -0.6746    3.3708    2.1345 H   0  0  0  0  0  0  0  0  0  0  0  0
   -1.1160    1.8985    1.2691 H   0  0  0  0  0  0  0  0  0  0  0  0
   -1.0780    3.4431    0.4191 H   0  0  0  0  0  0  0  0  0  0  0  0
    1.8698    4.9090    1.1147 H   0  0  0  0  0  0  0  0  0  0  0  0
    1.0387    4.4647   -0.3751 H   0  0  0  0  0  0  0  0  0  0  0  0
    2.7336    4.0346   -0.1496 H   0  0  0  0  0  0  0  0  0  0  0  0
    4.6005   -0.0891    3.8761 H   0  0  0  0  0  0  0  0  0  0  0  0
    2.3248    0.2712    5.6046 H   0  0  0  0  0  0  0  0  0  0  0  0
   -0.3628   -0.3190    1.6537 H   0  0  0  0  0  0  0  0  0  0  0  0
    1.9676   -0.8330    0.3645 H   0  0  0  0  0  0  0  0  0  0  0  0
    4.0372   -2.4138    1.8448 H   0  0  0  0  0  0  0  0  0  0  0  0
    0.1493   -1.6596    4.4744 H   0  0  0  0  0  0  0  0  0  0  0  0
    2.9397   -2.4577    4.6893 H   0  0  0  0  0  0  0  0  0  0  0  0
    1.3794   -2.9498    2.1286 H   0  0  0  0  0  0  0  0  0  0  0  0
  1  2  1  0  0  0  0
  2 10  1  0  0  0  0
  3  1  1  0  0  0  0
  4  5  1  0  0  0  0
  5  6  1  0  0  0  0
  6 43  1  0  0  0  0
  7  8  1  0  0  0  0
  8  9  1  0  0  0  0
  9 48  1  0  0  0  0
 10 11  4  0  0  0  0
 11 12  4  0  0  0  0
 12 13  4  0  0  0  0
 13 14  4  0  0  0  0
 14 15  4  0  0  0  0
 15 10  4  0  0  0  0
 16  2  1  0  0  0  0
 17 16  4  0  0  0  0
 18 17  4  0  0  0  0
 19 18  4  0  0  0  0
 20 19  4  0  0  0  0
 21 16  4  0  0  0  0
 22  2  1  0  0  0  0
 23 22  4  0  0  0  0
 24 23  4  0  0  0  0
 25 24  4  0  0  0  0
 26 25  4  0  0  0  0
 27 22  4  0  0  0  0
 28  3  1  0  0  0  0
 29  3  1  0  0  0  0
 30  3  1  0  0  0  0
 31  1  1  0  0  0  0
 32  1  1  0  0  0  0
 33  1  1  0  0  0  0
 34  1  1  0  0  0  0
 35  1  1  0  0  0  0
 36  1  1  0  0  0  0
 37 31  1  0  0  0  0
 38 32  1  0  0  0  0
 39 33  1  0  0  0  0
 40 35  1  0  0  0  0
 41  5  1  0  0  0  0
 42  5  1  0  0  0  0
 44  6  1  0  0  0  0
 45  6  1  0  0  0  0
 46  8  1  0  0  0  0
 47  8  1  0  0  0  0
 49  9  1  0  0  0  0
 50  9  1  0  0  0  0
 51 11  1  0  0  0  0
 52 12  1  0  0  0  0
 53 13  1  0  0  0  0
 54 14  1  0  0  0  0
 55 15  1  0  0  0  0
 56 17  1  0  0  0  0
 57 18  1  0  0  0  0
 58 19  1  0  0  0  0
 59 20  1  0  0  0  0
 60 21  1  0  0  0  0
 61 23  1  0  0  0  0
 62 24  1  0  0  0  0
 63 25  1  0  0  0  0
 64 26  1  0  0  0  0
 65 27  1  0  0  0  0
 66 28  1  0  0  0  0
 67 28  1  0  0  0  0
 68 28  1  0  0  0  0
 69 29  1  0  0  0  0
 70 29  1  0  0  0  0
 71 29  1  0  0  0  0
 72 30  1  0  0  0  0
 73 30  1  0  0  0  0
 74 30  1  0  0  0  0
 75 33  1  0  0  0  0
 76 34  1  0  0  0  0
 77 35  1  0  0  0  0
 78 36  1  0  0  0  0
 79 37  1  0  0  0  0
 80 38  1  0  0  0  0
 81 39  1  0  0  0  0
 82 40  1  0  0  0  0
  4 31  1  0  0  0  0
  7 32  1  0  0  0  0
 20 21  4  0  0  0  0
 26 27  4  0  0  0  0
 31 33  1  0  0  0  0
 31 36  1  0  0  0  0
 32 34  1  0  0  0  0
 32 35  1  0  0  0  0
 33 34  1  0  0  0  0
 33 37  1  0  0  0  0
 34 38  1  0  0  0  0
 34 39  1  0  0  0  0
 35 36  1  0  0  0  0
 35 38  1  0  0  0  0
 36 37  1  0  0  0  0
 36 40  1  0  0  0  0
 37 39  1  0  0  0  0
 37 40  1  0  0  0  0
 38 39  1  0  0  0  0
 38 40  1  0  0  0  0
 39 40  1  0  0  0  0
M  END
$$$$
FUXLIU

From CSD data. Using bond type 'Any'. Matching problem. No disordered atoms. Largest molecule.
160168  0  0  0  0  0  0  0  0999 V2000
    3.1780   12.5231    4.4840 Pt  0  0  0  0  0  0  0  0  0  0  0  0
    2.6256   14.9628    4.5295 Br  0  0  0  0  0  0  0  0  0  0  0  0
    3.6129   10.6535    4.3029 B   0  0  0  0  0  0  0  0  0  0  0  0
    3.8972    9.4643    4.1415 O   0  0  0  0  0  0  0  0  0  0  0  0
    0.9354   11.9474    4.0592 P   0  0  0  0  0  0  0  0  0  0  0  0
    0.5068   10.4460    5.0481 C   0  0  0  0  0  0  0  0  0  0  0  0
    1.0427    9.7045    4.6451 H   0  0  0  0  0  0  0  0  0  0  0  0
    0.9602   10.5190    6.5162 C   0  0  0  0  0  0  0  0  0  0  0  0
    1.9052   10.8121    6.5595 H   0  0  0  0  0  0  0  0  0  0  0  0
    0.4092   11.1818    7.0036 H   0  0  0  0  0  0  0  0  0  0  0  0
    0.8175    9.1486    7.1734 C   0  0  0  0  0  0  0  0  0  0  0  0
    1.4169    8.5038    6.7216 H   0  0  0  0  0  0  0  0  0  0  0  0
    1.0927    9.2097    8.1220 H   0  0  0  0  0  0  0  0  0  0  0  0
   -0.6154    8.6485    7.0940 C   0  0  0  0  0  0  0  0  0  0  0  0
   -1.2005    9.2434    7.6263 H   0  0  0  0  0  0  0  0  0  0  0  0
   -0.6668    7.7399    7.4808 H   0  0  0  0  0  0  0  0  0  0  0  0
   -1.1063    8.6142    5.6471 C   0  0  0  0  0  0  0  0  0  0  0  0
   -2.0607    8.3490    5.6309 H   0  0  0  0  0  0  0  0  0  0  0  0
   -0.5938    7.9336    5.1426 H   0  0  0  0  0  0  0  0  0  0  0  0
   -0.9473    9.9797    4.9664 C   0  0  0  0  0  0  0  0  0  0  0  0
   -1.2209    9.9118    4.0168 H   0  0  0  0  0  0  0  0  0  0  0  0
   -1.5341   10.6425    5.4097 H   0  0  0  0  0  0  0  0  0  0  0  0
    0.6138   11.4888    2.3039 C   0  0  0  0  0  0  0  0  0  0  0  0
   -0.3588   11.2651    2.2240 H   0  0  0  0  0  0  0  0  0  0  0  0
    1.4034   10.2659    1.8468 C   0  0  0  0  0  0  0  0  0  0  0  0
    1.1782    9.4958    2.4248 H   0  0  0  0  0  0  0  0  0  0  0  0
    2.3730   10.4477    1.9439 H   0  0  0  0  0  0  0  0  0  0  0  0
    1.0969    9.9129    0.3842 C   0  0  0  0  0  0  0  0  0  0  0  0
    1.6544    9.1440    0.1069 H   0  0  0  0  0  0  0  0  0  0  0  0
    0.1457    9.6495    0.3022 H   0  0  0  0  0  0  0  0  0  0  0  0
    1.3753   11.0958   -0.5308 C   0  0  0  0  0  0  0  0  0  0  0  0
    1.1205   10.8639   -1.4593 H   0  0  0  0  0  0  0  0  0  0  0  0
    2.3424   11.3029   -0.5196 H   0  0  0  0  0  0  0  0  0  0  0  0
    0.5870   12.3191   -0.0763 C   0  0  0  0  0  0  0  0  0  0  0  0
   -0.3826   12.1373   -0.1732 H   0  0  0  0  0  0  0  0  0  0  0  0
    0.8118   13.0875   -0.6578 H   0  0  0  0  0  0  0  0  0  0  0  0
    0.8896   12.6810    1.3812 C   0  0  0  0  0  0  0  0  0  0  0  0
    0.3277   13.4482    1.6546 H   0  0  0  0  0  0  0  0  0  0  0  0
    1.8391   12.9498    1.4648 H   0  0  0  0  0  0  0  0  0  0  0  0
   -0.2786   13.3026    4.3921 C   0  0  0  0  0  0  0  0  0  0  0  0
    0.1084   14.1189    3.9615 H   0  0  0  0  0  0  0  0  0  0  0  0
   -1.6810   13.1362    3.7745 C   0  0  0  0  0  0  0  0  0  0  0  0
   -1.5973   12.9515    2.8062 H   0  0  0  0  0  0  0  0  0  0  0  0
   -2.1409   12.3675    4.1973 H   0  0  0  0  0  0  0  0  0  0  0  0
   -2.5049   14.4035    3.9847 C   0  0  0  0  0  0  0  0  0  0  0  0
   -2.0894   15.1500    3.4824 H   0  0  0  0  0  0  0  0  0  0  0  0
   -3.4160   14.2640    3.6262 H   0  0  0  0  0  0  0  0  0  0  0  0
   -2.5961   14.7818    5.4599 C   0  0  0  0  0  0  0  0  0  0  0  0
   -3.0894   15.6350    5.5516 H   0  0  0  0  0  0  0  0  0  0  0  0
   -3.0982   14.0823    5.9496 H   0  0  0  0  0  0  0  0  0  0  0  0
   -1.2096   14.9285    6.0661 C   0  0  0  0  0  0  0  0  0  0  0  0
   -1.2908   15.1357    7.0312 H   0  0  0  0  0  0  0  0  0  0  0  0
   -0.7365   15.6811    5.6290 H   0  0  0  0  0  0  0  0  0  0  0  0
   -0.3976   13.6441    5.8875 C   0  0  0  0  0  0  0  0  0  0  0  0
   -0.8416   12.8994    6.3660 H   0  0  0  0  0  0  0  0  0  0  0  0
    0.5053   13.7650    6.2757 H   0  0  0  0  0  0  0  0  0  0  0  0
    5.3588   12.9697    5.2432 P   0  0  0  0  0  0  0  0  0  0  0  0
    6.6125   11.6558    4.8441 C   0  0  0  0  0  0  0  0  0  0  0  0
    6.1494   10.7856    5.0099 H   0  0  0  0  0  0  0  0  0  0  0  0
    7.8842   11.6155    5.7082 C   0  0  0  0  0  0  0  0  0  0  0  0
    8.4318   12.4211    5.5350 H   0  0  0  0  0  0  0  0  0  0  0  0
    7.6358   11.6092    6.6664 H   0  0  0  0  0  0  0  0  0  0  0  0
    8.6949   10.3540    5.3738 C   0  0  0  0  0  0  0  0  0  0  0  0
    9.5303   10.3531    5.9054 H   0  0  0  0  0  0  0  0  0  0  0  0
    8.1712    9.5535    5.6290 H   0  0  0  0  0  0  0  0  0  0  0  0
    9.0475   10.2739    3.8815 C   0  0  0  0  0  0  0  0  0  0  0  0
    9.6682   11.0095    3.6483 H   0  0  0  0  0  0  0  0  0  0  0  0
    9.5059    9.4159    3.6962 H   0  0  0  0  0  0  0  0  0  0  0  0
    7.7960   10.3750    3.0209 C   0  0  0  0  0  0  0  0  0  0  0  0
    7.2266    9.5782    3.1729 H   0  0  0  0  0  0  0  0  0  0  0  0
    8.0526   10.3896    2.0655 H   0  0  0  0  0  0  0  0  0  0  0  0
    7.0029   11.6364    3.3544 C   0  0  0  0  0  0  0  0  0  0  0  0
    6.1849   11.6697    2.7970 H   0  0  0  0  0  0  0  0  0  0  0  0
    7.5499   12.4346    3.1452 H   0  0  0  0  0  0  0  0  0  0  0  0
    5.9805   14.6389    4.7630 C   0  0  0  0  0  0  0  0  0  0  0  0
    5.3101   15.2788    5.1370 H   0  0  0  0  0  0  0  0  0  0  0  0
    5.9704   14.8954    3.2523 C   0  0  0  0  0  0  0  0  0  0  0  0
    5.0938   14.6310    2.8744 H   0  0  0  0  0  0  0  0  0  0  0  0
    6.6713   14.3511    2.8154 H   0  0  0  0  0  0  0  0  0  0  0  0
    6.2249   16.3890    2.9796 C   0  0  0  0  0  0  0  0  0  0  0  0
    6.2626   16.5434    2.0029 H   0  0  0  0  0  0  0  0  0  0  0  0
    5.4764   16.9227    3.3461 H   0  0  0  0  0  0  0  0  0  0  0  0
    7.5355   16.8465    3.6177 C   0  0  0  0  0  0  0  0  0  0  0  0
    8.2930   16.3863    3.1784 H   0  0  0  0  0  0  0  0  0  0  0  0
    7.6456   17.8198    3.4769 H   0  0  0  0  0  0  0  0  0  0  0  0
    7.5577   16.5459    5.1037 C   0  0  0  0  0  0  0  0  0  0  0  0
    6.8584   17.0824    5.5572 H   0  0  0  0  0  0  0  0  0  0  0  0
    8.4356   16.8100    5.4779 H   0  0  0  0  0  0  0  0  0  0  0  0
    7.3147   15.0636    5.3821 C   0  0  0  0  0  0  0  0  0  0  0  0
    7.2953   14.9051    6.3587 H   0  0  0  0  0  0  0  0  0  0  0  0
    8.0500   14.5253    4.9952 H   0  0  0  0  0  0  0  0  0  0  0  0
    5.3339   12.9922    7.0914 C   0  0  0  0  0  0  0  0  0  0  0  0
    6.2720   13.1596    7.3960 H   0  0  0  0  0  0  0  0  0  0  0  0
    4.4638   14.1137    7.6789 C   0  0  0  0  0  0  0  0  0  0  0  0
    4.7636   14.9877    7.3223 H   0  0  0  0  0  0  0  0  0  0  0  0
    3.5212   13.9786    7.4089 H   0  0  0  0  0  0  0  0  0  0  0  0
    4.5637   14.1218    9.2023 C   0  0  0  0  0  0  0  0  0  0  0  0
    5.4966   14.3249    9.4689 H   0  0  0  0  0  0  0  0  0  0  0  0
    3.9816   14.8347    9.5666 H   0  0  0  0  0  0  0  0  0  0  0  0
    4.1492   12.7787    9.7936 C   0  0  0  0  0  0  0  0  0  0  0  0
    4.2680   12.8002   10.7771 H   0  0  0  0  0  0  0  0  0  0  0  0
    3.1920   12.6149    9.6034 H   0  0  0  0  0  0  0  0  0  0  0  0
    4.9853   11.6485    9.2050 C   0  0  0  0  0  0  0  0  0  0  0  0
    4.6597   10.7822    9.5573 H   0  0  0  0  0  0  0  0  0  0  0  0
    5.9290   11.7579    9.4855 H   0  0  0  0  0  0  0  0  0  0  0  0
    4.9077   11.6374    7.6748 C   0  0  0  0  0  0  0  0  0  0  0  0
    3.9788   11.4354    7.3942 H   0  0  0  0  0  0  0  0  0  0  0  0
    5.4968   10.9252    7.3205 H   0  0  0  0  0  0  0  0  0  0  0  0
    4.3377    7.9981    3.7496 B   0  0  0  0  0  0  0  0  0  0  0  0
    3.0476    7.0473    4.0136 C   0  0  0  0  0  0  0  0  0  0  0  0
    2.8140    6.3918    5.2264 C   0  0  0  0  0  0  0  0  0  0  0  0
    3.4643    6.4605    5.9165 H   0  0  0  0  0  0  0  0  0  0  0  0
    1.6703    5.6468    5.4602 C   0  0  0  0  0  0  0  0  0  0  0  0
    0.7012    5.5128    4.4931 C   0  0  0  0  0  0  0  0  0  0  0  0
   -0.0815    5.0004    4.6525 H   0  0  0  0  0  0  0  0  0  0  0  0
    0.9058    6.1545    3.2680 C   0  0  0  0  0  0  0  0  0  0  0  0
    2.0450    6.8916    3.0380 C   0  0  0  0  0  0  0  0  0  0  0  0
    2.1581    7.3096    2.1926 H   0  0  0  0  0  0  0  0  0  0  0  0
    1.4706    5.0293    6.8059 C   0  0  0  0  0  0  0  0  0  0  0  0
    1.6198    5.9063    7.7900 F   0  0  0  0  0  0  0  0  0  0  0  0
    2.3212    4.0453    7.0500 F   0  0  0  0  0  0  0  0  0  0  0  0
    0.2536    4.5178    6.9645 F   0  0  0  0  0  0  0  0  0  0  0  0
   -0.2105    6.1001    2.2617 C   0  0  0  0  0  0  0  0  0  0  0  0
   -0.6783    4.8656    2.0979 F   0  0  0  0  0  0  0  0  0  0  0  0
   -1.2468    6.8502    2.6323 F   0  0  0  0  0  0  0  0  0  0  0  0
    0.1578    6.5295    1.0584 F   0  0  0  0  0  0  0  0  0  0  0  0
    5.5643    7.6400    4.7654 C   0  0  0  0  0  0  0  0  0  0  0  0
    6.6736    6.8917    4.3923 C   0  0  0  0  0  0  0  0  0  0  0  0
    6.7844    6.6555    3.4787 H   0  0  0  0  0  0  0  0  0  0  0  0
    7.6319    6.4757    5.3211 C   0  0  0  0  0  0  0  0  0  0  0  0
    7.5063    6.8170    6.6625 C   0  0  0  0  0  0  0  0  0  0  0  0
    8.1500    6.5288    7.2984 H   0  0  0  0  0  0  0  0  0  0  0  0
    6.4162    7.5878    7.0540 C   0  0  0  0  0  0  0  0  0  0  0  0
    5.4717    7.9984    6.1254 C   0  0  0  0  0  0  0  0  0  0  0  0
    4.7426    8.5351    6.4139 H   0  0  0  0  0  0  0  0  0  0  0  0
    8.8132    5.6887    4.8496 C   0  0  0  0  0  0  0  0  0  0  0  0
    9.7388    6.4504    4.2768 F   0  0  0  0  0  0  0  0  0  0  0  0
    9.4223    5.0344    5.8321 F   0  0  0  0  0  0  0  0  0  0  0  0
    8.4985    4.7790    3.9337 F   0  0  0  0  0  0  0  0  0  0  0  0
    6.2821    8.0057    8.4929 C   0  0  0  0  0  0  0  0  0  0  0  0
    6.7086    7.0662    9.3361 F   0  0  0  0  0  0  0  0  0  0  0  0
    5.0219    8.2772    8.8233 F   0  0  0  0  0  0  0  0  0  0  0  0
    6.9887    9.1024    8.7660 F   0  0  0  0  0  0  0  0  0  0  0  0
    4.7888    8.0165    2.1866 C   0  0  0  0  0  0  0  0  0  0  0  0
    5.0287    9.1782    1.4545 C   0  0  0  0  0  0  0  0  0  0  0  0
    4.8535   10.0206    1.8573 H   0  0  0  0  0  0  0  0  0  0  0  0
    5.5156    9.1402    0.1539 C   0  0  0  0  0  0  0  0  0  0  0  0
    5.8088    7.9254   -0.4680 C   0  0  0  0  0  0  0  0  0  0  0  0
    6.1706    7.9005   -1.3451 H   0  0  0  0  0  0  0  0  0  0  0  0
    5.5548    6.7634    0.2320 C   0  0  0  0  0  0  0  0  0  0  0  0
    5.0375    6.8092    1.5269 C   0  0  0  0  0  0  0  0  0  0  0  0
    4.8467    5.9935    1.9752 H   0  0  0  0  0  0  0  0  0  0  0  0
    5.7804   10.4032   -0.6009 C   0  0  0  0  0  0  0  0  0  0  0  0
    5.5521   11.4996    0.1183 F   0  0  0  0  0  0  0  0  0  0  0  0
    5.0277   10.5226   -1.6905 F   0  0  0  0  0  0  0  0  0  0  0  0
    7.0389   10.4955   -1.0182 F   0  0  0  0  0  0  0  0  0  0  0  0
    5.8740    5.4241   -0.3659 C   0  0  0  0  0  0  0  0  0  0  0  0
    4.7888    4.6873   -0.5795 F   0  0  0  0  0  0  0  0  0  0  0  0
    6.5046    5.5216   -1.5308 F   0  0  0  0  0  0  0  0  0  0  0  0
    6.6564    4.6995    0.4286 F   0  0  0  0  0  0  0  0  0  0  0  0
  1  2  1  0  0  0  0
  3  1  1  0  0  0  0
  4  3  3  0  0  0  0
  5  1  1  0  0  0  0
  6  5  1  0  0  0  0
  7  6  1  0  0  0  0
  8  6  1  0  0  0  0
  9  8  1  0  0  0  0
 10  8  1  0  0  0  0
 11  8  1  0  0  0  0
 12 11  1  0  0  0  0
 13 11  1  0  0  0  0
 14 11  1  0  0  0  0
 15 14  1  0  0  0  0
 16 14  1  0  0  0  0
 17 14  1  0  0  0  0
 18 17  1  0  0  0  0
 19 17  1  0  0  0  0
 20  6  1  0  0  0  0
 21 20  1  0  0  0  0
 22 20  1  0  0  0  0
 23  5  1  0  0  0  0
 24 23  1  0  0  0  0
 25 23  1  0  0  0  0
 26 25  1  0  0  0  0
 27 25  1  0  0  0  0
 28 25  1  0  0  0  0
 29 28  1  0  0  0  0
 30 28  1  0  0  0  0
 31 28  1  0  0  0  0
 32 31  1  0  0  0  0
 33 31  1  0  0  0  0
 34 31  1  0  0  0  0
 35 34  1  0  0  0  0
 36 34  1  0  0  0  0
 37 23  1  0  0  0  0
 38 37  1  0  0  0  0
 39 37  1  0  0  0  0
 40  5  1  0  0  0  0
 41 40  1  0  0  0  0
 42 40  1  0  0  0  0
 43 42  1  0  0  0  0
 44 42  1  0  0  0  0
 45 42  1  0  0  0  0
 46 45  1  0  0  0  0
 47 45  1  0  0  0  0
 48 45  1  0  0  0  0
 49 48  1  0  0  0  0
 50 48  1  0  0  0  0
 51 48  1  0  0  0  0
 52 51  1  0  0  0  0
 53 51  1  0  0  0  0
 54 40  1  0  0  0  0
 55 54  1  0  0  0  0
 56 54  1  0  0  0  0
 57  1  1  0  0  0  0
 58 57  1  0  0  0  0
 59 58  1  0  0  0  0
 60 58  1  0  0  0  0
 61 60  1  0  0  0  0
 62 60  1  0  0  0  0
 63 60  1  0  0  0  0
 64 63  1  0  0  0  0
 65 63  1  0  0  0  0
 66 63  1  0  0  0  0
 67 66  1  0  0  0  0
 68 66  1  0  0  0  0
 69 66  1  0  0  0  0
 70 69  1  0  0  0  0
 71 69  1  0  0  0  0
 72 58  1  0  0  0  0
 73 72  1  0  0  0  0
 74 72  1  0  0  0  0
 75 57  1  0  0  0  0
 76 75  1  0  0  0  0
 77 75  1  0  0  0  0
 78 77  1  0  0  0  0
 79 77  1  0  0  0  0
 80 77  1  0  0  0  0
 81 80  1  0  0  0  0
 82 80  1  0  0  0  0
 83 80  1  0  0  0  0
 84 83  1  0  0  0  0
 85 83  1  0  0  0  0
 86 83  1  0  0  0  0
 87 86  1  0  0  0  0
 88 86  1  0  0  0  0
 89 75  1  0  0  0  0
 90 89  1  0  0  0  0
 91 89  1  0  0  0  0
 92 57  1  0  0  0  0
 93 92  1  0  0  0  0
 94 92  1  0  0  0  0
 95 94  1  0  0  0  0
 96 94  1  0  0  0  0
 97 94  1  0  0  0  0
 98 97  1  0  0  0  0
 99 97  1  0  0  0  0
100 97  1  0  0  0  0
101100  1  0  0  0  0
102100  1  0  0  0  0
103100  1  0  0  0  0
104103  1  0  0  0  0
105103  1  0  0  0  0
106 92  1  0  0  0  0
107106  1  0  0  0  0
108106  1  0  0  0  0
109  4  1  0  0  0  0
110109  1  0  0  0  0
111110  4  0  0  0  0
112111  1  0  0  0  0
113111  4  0  0  0  0
114113  4  0  0  0  0
115114  1  0  0  0  0
116114  4  0  0  0  0
117110  4  0  0  0  0
118117  1  0  0  0  0
119113  1  0  0  0  0
120119  1  0  0  0  0
121119  1  0  0  0  0
122119  1  0  0  0  0
123116  1  0  0  0  0
124123  1  0  0  0  0
125123  1  0  0  0  0
126123  1  0  0  0  0
127109  1  0  0  0  0
128127  4  0  0  0  0
129128  1  0  0  0  0
130128  4  0  0  0  0
131130  4  0  0  0  0
132131  1  0  0  0  0
133131  4  0  0  0  0
134127  4  0  0  0  0
135134  1  0  0  0  0
136130  1  0  0  0  0
137136  1  0  0  0  0
138136  1  0  0  0  0
139136  1  0  0  0  0
140133  1  0  0  0  0
141140  1  0  0  0  0
142140  1  0  0  0  0
143140  1  0  0  0  0
144109  1  0  0  0  0
145144  4  0  0  0  0
146145  1  0  0  0  0
147145  4  0  0  0  0
148147  4  0  0  0  0
149148  1  0  0  0  0
150148  4  0  0  0  0
151144  4  0  0  0  0
152151  1  0  0  0  0
153147  1  0  0  0  0
154153  1  0  0  0  0
155153  1  0  0  0  0
156153  1  0  0  0  0
157150  1  0  0  0  0
158157  1  0  0  0  0
159157  1  0  0  0  0
160157  1  0  0  0  0
 17 20  1  0  0  0  0
 34 37  1  0  0  0  0
 51 54  1  0  0  0  0
 69 72  1  0  0  0  0
 86 89  1  0  0  0  0
103106  1  0  0  0  0
116117  4  0  0  0  0
133134  4  0  0  0  0
150151  4  0  0  0  0
M  END
$$$$
FUXLOA

From CSD data. Using bond type 'Any'. No disordered atoms. Largest molecule.
142150  0  0  0  0  0  0  0  0999 V2000
    7.0654   11.9254    3.3028 Pt  0  0  0  0  0  0  0  0  0  0  0  0
    7.5274   13.9780    1.9360 Br  0  0  0  0  0  0  0  0  0  0  0  0
    7.6678   13.0377    5.2828 P   0  0  0  0  0  0  0  0  0  0  0  0
    6.2009   10.9883    1.3274 P   0  0  0  0  0  0  0  0  0  0  0  0
    6.1820    9.3596    4.9586 O   0  0  0  0  0  0  0  0  0  0  0  0
    6.5647   10.3669    4.3344 B   0  0  0  0  0  0  0  0  0  0  0  0
    8.5638   14.6311    5.0169 C   0  0  0  0  0  0  0  0  0  0  0  0
    8.0738   15.0844    4.2720 H   0  0  0  0  0  0  0  0  0  0  0  0
    9.9871   14.4103    4.4842 C   0  0  0  0  0  0  0  0  0  0  0  0
   10.5517   14.0176    5.1958 H   0  0  0  0  0  0  0  0  0  0  0  0
    9.9617   13.7746    3.7247 H   0  0  0  0  0  0  0  0  0  0  0  0
   10.5958   15.7390    4.0202 C   0  0  0  0  0  0  0  0  0  0  0  0
   11.5247   15.5870    3.7122 H   0  0  0  0  0  0  0  0  0  0  0  0
   10.0741   16.0908    3.2565 H   0  0  0  0  0  0  0  0  0  0  0  0
   10.5958   16.7614    5.1459 C   0  0  0  0  0  0  0  0  0  0  0  0
   11.1930   16.4500    5.8721 H   0  0  0  0  0  0  0  0  0  0  0  0
   10.9483   17.6228    4.8088 H   0  0  0  0  0  0  0  0  0  0  0  0
    9.1956   16.9707    5.6994 C   0  0  0  0  0  0  0  0  0  0  0  0
    8.6240   17.3742    4.9982 H   0  0  0  0  0  0  0  0  0  0  0  0
    9.2347   17.6028    6.4610 H   0  0  0  0  0  0  0  0  0  0  0  0
    8.5665   15.6463    6.1676 C   0  0  0  0  0  0  0  0  0  0  0  0
    9.0825   15.2844    6.9313 H   0  0  0  0  0  0  0  0  0  0  0  0
    7.6378   15.8077    6.4735 H   0  0  0  0  0  0  0  0  0  0  0  0
    8.6022   11.9627    6.4651 C   0  0  0  0  0  0  0  0  0  0  0  0
    7.9472   11.2698    6.7648 H   0  0  0  0  0  0  0  0  0  0  0  0
    9.7539   11.1764    5.8201 C   0  0  0  0  0  0  0  0  0  0  0  0
    9.4213   10.6990    5.0190 H   0  0  0  0  0  0  0  0  0  0  0  0
   10.4621   11.8038    5.5309 H   0  0  0  0  0  0  0  0  0  0  0  0
   10.3434   10.1642    6.8106 C   0  0  0  0  0  0  0  0  0  0  0  0
    9.6632    9.4765    7.0207 H   0  0  0  0  0  0  0  0  0  0  0  0
   11.1177    9.7093    6.3923 H   0  0  0  0  0  0  0  0  0  0  0  0
   10.7905   10.8401    8.0965 C   0  0  0  0  0  0  0  0  0  0  0  0
   11.1117   10.1553    8.7333 H   0  0  0  0  0  0  0  0  0  0  0  0
   11.5433   11.4529    7.8988 H   0  0  0  0  0  0  0  0  0  0  0  0
    9.6555   11.6258    8.7312 C   0  0  0  0  0  0  0  0  0  0  0  0
    9.9889   12.0909    9.5385 H   0  0  0  0  0  0  0  0  0  0  0  0
    8.9402   11.0013    9.0121 H   0  0  0  0  0  0  0  0  0  0  0  0
    9.0728   12.6588    7.7511 C   0  0  0  0  0  0  0  0  0  0  0  0
    8.3097   13.1267    8.1735 H   0  0  0  0  0  0  0  0  0  0  0  0
    9.7635   13.3343    7.5305 H   0  0  0  0  0  0  0  0  0  0  0  0
    6.1113   13.5280    6.1489 C   0  0  0  0  0  0  0  0  0  0  0  0
    6.3681   14.0370    6.9708 H   0  0  0  0  0  0  0  0  0  0  0  0
    5.2786   12.3167    6.5942 C   0  0  0  0  0  0  0  0  0  0  0  0
    5.0338   11.7760    5.8014 H   0  0  0  0  0  0  0  0  0  0  0  0
    5.8185   11.7485    7.1976 H   0  0  0  0  0  0  0  0  0  0  0  0
    4.0042   12.7660    7.3183 C   0  0  0  0  0  0  0  0  0  0  0  0
    3.4742   11.9717    7.5784 H   0  0  0  0  0  0  0  0  0  0  0  0
    4.2473   13.2584    8.1423 H   0  0  0  0  0  0  0  0  0  0  0  0
    3.1653   13.6643    6.4152 C   0  0  0  0  0  0  0  0  0  0  0  0
    2.8696   13.1532    5.6203 H   0  0  0  0  0  0  0  0  0  0  0  0
    2.3583   13.9666    6.9042 H   0  0  0  0  0  0  0  0  0  0  0  0
    3.9744   14.8728    5.9741 C   0  0  0  0  0  0  0  0  0  0  0  0
    4.1950   15.4258    6.7648 H   0  0  0  0  0  0  0  0  0  0  0  0
    3.4275   15.4245    5.3602 H   0  0  0  0  0  0  0  0  0  0  0  0
    5.2735   14.4630    5.2645 C   0  0  0  0  0  0  0  0  0  0  0  0
    5.8012   15.2738    5.0481 H   0  0  0  0  0  0  0  0  0  0  0  0
    5.0558   14.0059    4.4134 H   0  0  0  0  0  0  0  0  0  0  0  0
    5.9748    9.1531    1.4358 C   0  0  0  0  0  0  0  0  0  0  0  0
    5.5211    8.9760    2.3097 H   0  0  0  0  0  0  0  0  0  0  0  0
    7.3387    8.4462    1.5065 C   0  0  0  0  0  0  0  0  0  0  0  0
    7.8241    8.5793    0.6555 H   0  0  0  0  0  0  0  0  0  0  0  0
    7.8796    8.8437    2.2348 H   0  0  0  0  0  0  0  0  0  0  0  0
    7.1616    6.9457    1.7645 C   0  0  0  0  0  0  0  0  0  0  0  0
    8.0484    6.5060    1.7708 H   0  0  0  0  0  0  0  0  0  0  0  0
    6.7470    6.8104    2.6551 H   0  0  0  0  0  0  0  0  0  0  0  0
    6.2857    6.3062    0.6971 C   0  0  0  0  0  0  0  0  0  0  0  0
    6.7504    6.3508   -0.1769 H   0  0  0  0  0  0  0  0  0  0  0  0
    6.1415    5.3521    0.9197 H   0  0  0  0  0  0  0  0  0  0  0  0
    4.9428    7.0060    0.5889 C   0  0  0  0  0  0  0  0  0  0  0  0
    4.4291    6.8549    1.4212 H   0  0  0  0  0  0  0  0  0  0  0  0
    4.4304    6.6099   -0.1602 H   0  0  0  0  0  0  0  0  0  0  0  0
    5.0916    8.5164    0.3558 C   0  0  0  0  0  0  0  0  0  0  0  0
    5.4928    8.6762   -0.5348 H   0  0  0  0  0  0  0  0  0  0  0  0
    4.1971    8.9425    0.3683 H   0  0  0  0  0  0  0  0  0  0  0  0
    4.6309   11.9325    1.1840 C   0  0  0  0  0  0  0  0  0  0  0  0
    4.8683   12.8888    1.3525 H   0  0  0  0  0  0  0  0  0  0  0  0
    3.7141   11.5124    2.3430 C   0  0  0  0  0  0  0  0  0  0  0  0
    3.4270   10.5741    2.2140 H   0  0  0  0  0  0  0  0  0  0  0  0
    4.2148   11.5665    3.1941 H   0  0  0  0  0  0  0  0  0  0  0  0
    2.4818   12.4207    2.4138 C   0  0  0  0  0  0  0  0  0  0  0  0
    1.8843   12.1121    3.1400 H   0  0  0  0  0  0  0  0  0  0  0  0
    2.7654   13.3474    2.6219 H   0  0  0  0  0  0  0  0  0  0  0  0
    1.7218   12.4113    1.0945 C   0  0  0  0  0  0  0  0  0  0  0  0
    1.3634   11.5032    0.9281 H   0  0  0  0  0  0  0  0  0  0  0  0
    0.9567   13.0367    1.1507 H   0  0  0  0  0  0  0  0  0  0  0  0
    2.6250   12.8170   -0.0603 C   0  0  0  0  0  0  0  0  0  0  0  0
    2.9089   13.7575    0.0624 H   0  0  0  0  0  0  0  0  0  0  0  0
    2.1174   12.7587   -0.9072 H   0  0  0  0  0  0  0  0  0  0  0  0
    3.8691   11.9182   -0.1498 C   0  0  0  0  0  0  0  0  0  0  0  0
    3.5955   10.9915   -0.3662 H   0  0  0  0  0  0  0  0  0  0  0  0
    4.4614   12.2418   -0.8740 H   0  0  0  0  0  0  0  0  0  0  0  0
    7.1337   11.4367   -0.2102 C   0  0  0  0  0  0  0  0  0  0  0  0
    6.9512   12.4101   -0.3517 H   0  0  0  0  0  0  0  0  0  0  0  0
    6.6812   10.7522   -1.5086 C   0  0  0  0  0  0  0  0  0  0  0  0
    6.9036    9.7891   -1.4711 H   0  0  0  0  0  0  0  0  0  0  0  0
    5.6993   10.8387   -1.6043 H   0  0  0  0  0  0  0  0  0  0  0  0
    7.3736   11.3941   -2.7176 C   0  0  0  0  0  0  0  0  0  0  0  0
    7.1009   10.9175   -3.5416 H   0  0  0  0  0  0  0  0  0  0  0  0
    7.0856   12.3378   -2.7987 H   0  0  0  0  0  0  0  0  0  0  0  0
    8.8869   11.3377   -2.5802 C   0  0  0  0  0  0  0  0  0  0  0  0
    9.1841   10.3934   -2.6094 H   0  0  0  0  0  0  0  0  0  0  0  0
    9.3033   11.8140   -3.3418 H   0  0  0  0  0  0  0  0  0  0  0  0
    9.3523   11.9697   -1.2797 C   0  0  0  0  0  0  0  0  0  0  0  0
    9.1559   12.9392   -1.2984 H   0  0  0  0  0  0  0  0  0  0  0  0
   10.3325   11.8580   -1.1944 H   0  0  0  0  0  0  0  0  0  0  0  0
    8.6601   11.3343   -0.0603 C   0  0  0  0  0  0  0  0  0  0  0  0
    8.9252   10.3833    0.0166 H   0  0  0  0  0  0  0  0  0  0  0  0
    8.9450   11.8015    0.7657 H   0  0  0  0  0  0  0  0  0  0  0  0
    5.5270    8.1077    5.5829 B   0  0  0  0  0  0  0  0  0  0  0  0
    5.0998    8.4405    7.1393 C   0  0  0  0  0  0  0  0  0  0  0  0
    6.0598    8.9437    8.0070 C   0  0  0  0  0  0  0  0  0  0  0  0
    5.8650    9.1991    9.3513 C   0  0  0  0  0  0  0  0  0  0  0  0
    4.6211    8.9377    9.8881 C   0  0  0  0  0  0  0  0  0  0  0  0
    3.6271    8.4381    9.0849 C   0  0  0  0  0  0  0  0  0  0  0  0
    3.8704    8.2006    7.7511 C   0  0  0  0  0  0  0  0  0  0  0  0
    7.2980    9.2208    7.5409 F   0  0  0  0  0  0  0  0  0  0  0  0
    6.8379    9.6844   10.1170 F   0  0  0  0  0  0  0  0  0  0  0  0
    4.3847    9.1700   11.1913 F   0  0  0  0  0  0  0  0  0  0  0  0
    2.4216    8.1831    9.6114 F   0  0  0  0  0  0  0  0  0  0  0  0
    2.8362    7.7079    7.0519 F   0  0  0  0  0  0  0  0  0  0  0  0
    6.6371    6.9148    5.7140 C   0  0  0  0  0  0  0  0  0  0  0  0
    7.9732    6.9388    5.3384 C   0  0  0  0  0  0  0  0  0  0  0  0
    8.8651    5.9024    5.5454 C   0  0  0  0  0  0  0  0  0  0  0  0
    8.4181    4.7526    6.1655 C   0  0  0  0  0  0  0  0  0  0  0  0
    7.1081    4.6656    6.5609 C   0  0  0  0  0  0  0  0  0  0  0  0
    6.2555    5.7247    6.3341 C   0  0  0  0  0  0  0  0  0  0  0  0
    8.4911    8.0285    4.7256 F   0  0  0  0  0  0  0  0  0  0  0  0
   10.1463    6.0059    5.1896 F   0  0  0  0  0  0  0  0  0  0  0  0
    9.2634    3.7237    6.3715 F   0  0  0  0  0  0  0  0  0  0  0  0
    6.6702    3.5432    7.1726 F   0  0  0  0  0  0  0  0  0  0  0  0
    4.9911    5.5765    6.7606 F   0  0  0  0  0  0  0  0  0  0  0  0
    4.2382    7.7631    4.6398 C   0  0  0  0  0  0  0  0  0  0  0  0
    3.2035    8.6853    4.5339 C   0  0  0  0  0  0  0  0  0  0  0  0
    2.0096    8.4570    3.8818 C   0  0  0  0  0  0  0  0  0  0  0  0
    1.8032    7.2274    3.2819 C   0  0  0  0  0  0  0  0  0  0  0  0
    2.7854    6.2759    3.3522 C   0  0  0  0  0  0  0  0  0  0  0  0
    3.9640    6.5482    4.0143 C   0  0  0  0  0  0  0  0  0  0  0  0
    3.3434    9.9058    5.1020 F   0  0  0  0  0  0  0  0  0  0  0  0
    1.0455    9.3664    3.8002 F   0  0  0  0  0  0  0  0  0  0  0  0
    0.6466    6.9840    2.6404 F   0  0  0  0  0  0  0  0  0  0  0  0
    2.6067    5.0761    2.7785 F   0  0  0  0  0  0  0  0  0  0  0  0
    4.8632    5.5474    4.0195 F   0  0  0  0  0  0  0  0  0  0  0  0
  1  2  1  0  0  0  0
  3  1  1  0  0  0  0
  4  1  1  0  0  0  0
  5  6  3  0  0  0  0
  6  1  1  0  0  0  0
  7  3  1  0  0  0  0
  8  7  1  0  0  0  0
  9  7  1  0  0  0  0
 10  9  1  0  0  0  0
 11  9  1  0  0  0  0
 12  9  1  0  0  0  0
 13 12  1  0  0  0  0
 14 12  1  0  0  0  0
 15 12  1  0  0  0  0
 16 15  1  0  0  0  0
 17 15  1  0  0  0  0
 18 15  1  0  0  0  0
 19 18  1  0  0  0  0
 20 18  1  0  0  0  0
 21  7  1  0  0  0  0
 22 21  1  0  0  0  0
 23 21  1  0  0  0  0
 24  3  1  0  0  0  0
 25 24  1  0  0  0  0
 26 24  1  0  0  0  0
 27 26  1  0  0  0  0
 28 26  1  0  0  0  0
 29 26  1  0  0  0  0
 30 29  1  0  0  0  0
 31 29  1  0  0  0  0
 32 29  1  0  0  0  0
 33 32  1  0  0  0  0
 34 32  1  0  0  0  0
 35 32  1  0  0  0  0
 36 35  1  0  0  0  0
 37 35  1  0  0  0  0
 38 24  1  0  0  0  0
 39 38  1  0  0  0  0
 40 38  1  0  0  0  0
 41  3  1  0  0  0  0
 42 41  1  0  0  0  0
 43 41  1  0  0  0  0
 44 43  1  0  0  0  0
 45 43  1  0  0  0  0
 46 43  1  0  0  0  0
 47 46  1  0  0  0  0
 48 46  1  0  0  0  0
 49 46  1  0  0  0  0
 50 49  1  0  0  0  0
 51 49  1  0  0  0  0
 52 49  1  0  0  0  0
 53 52  1  0  0  0  0
 54 52  1  0  0  0  0
 55 41  1  0  0  0  0
 56 55  1  0  0  0  0
 57 55  1  0  0  0  0
 58  4  1  0  0  0  0
 59 58  1  0  0  0  0
 60 58  1  0  0  0  0
 61 60  1  0  0  0  0
 62 60  1  0  0  0  0
 63 60  1  0  0  0  0
 64 63  1  0  0  0  0
 65 63  1  0  0  0  0
 66 63  1  0  0  0  0
 67 66  1  0  0  0  0
 68 66  1  0  0  0  0
 69 66  1  0  0  0  0
 70 69  1  0  0  0  0
 71 69  1  0  0  0  0
 72 58  1  0  0  0  0
 73 72  1  0  0  0  0
 74 72  1  0  0  0  0
 75  4  1  0  0  0  0
 76 75  1  0  0  0  0
 77 75  1  0  0  0  0
 78 77  1  0  0  0  0
 79 77  1  0  0  0  0
 80 77  1  0  0  0  0
 81 80  1  0  0  0  0
 82 80  1  0  0  0  0
 83 80  1  0  0  0  0
 84 83  1  0  0  0  0
 85 83  1  0  0  0  0
 86 83  1  0  0  0  0
 87 86  1  0  0  0  0
 88 86  1  0  0  0  0
 89 75  1  0  0  0  0
 90 89  1  0  0  0  0
 91 89  1  0  0  0  0
 92  4  1  0  0  0  0
 93 92  1  0  0  0  0
 94 92  1  0  0  0  0
 95 94  1  0  0  0  0
 96 94  1  0  0  0  0
 97 94  1  0  0  0  0
 98 97  1  0  0  0  0
 99 97  1  0  0  0  0
100 97  1  0  0  0  0
101100  1  0  0  0  0
102100  1  0  0  0  0
103100  1  0  0  0  0
104103  1  0  0  0  0
105103  1  0  0  0  0
106 92  1  0  0  0  0
107106  1  0  0  0  0
108106  1  0  0  0  0
109  5  1  0  0  0  0
110109  1  0  0  0  0
111110  4  0  0  0  0
112111  4  0  0  0  0
113112  4  0  0  0  0
114113  4  0  0  0  0
115110  4  0  0  0  0
116111  1  0  0  0  0
117112  1  0  0  0  0
118113  1  0  0  0  0
119114  1  0  0  0  0
120115  1  0  0  0  0
121109  1  0  0  0  0
122121  4  0  0  0  0
123122  4  0  0  0  0
124123  4  0  0  0  0
125124  4  0  0  0  0
126121  4  0  0  0  0
127122  1  0  0  0  0
128123  1  0  0  0  0
129124  1  0  0  0  0
130125  1  0  0  0  0
131126  1  0  0  0  0
132109  1  0  0  0  0
133132  4  0  0  0  0
134133  4  0  0  0  0
135134  4  0  0  0  0
136135  4  0  0  0  0
137132  4  0  0  0  0
138133  1  0  0  0  0
139134  1  0  0  0  0
140135  1  0  0  0  0
141136  1  0  0  0  0
142137  1  0  0  0  0
 18 21  1  0  0  0  0
 35 38  1  0  0  0  0
 52 55  1  0  0  0  0
 69 72  1  0  0  0  0
 86 89  1  0  0  0  0
103106  1  0  0  0  0
114115  4  0  0  0  0
125126  4  0  0  0  0
136137  4  0  0  0  0
M  END
$$$$
FUYROJ

From CSD data. Using bond type 'Any'. No disordered atoms. Largest molecule.
 97100  0  0  0  0  0  0  0  0999 V2000
    2.6515    4.7278   13.2659 Rh  0  0  0  0  0  0  0  0  0  0  0  0
    1.7072    7.4162   12.3997 N   0  0  0  0  0  0  0  0  0  0  0  0
   -0.4519    3.7407   10.6223 O   0  0  0  0  0  0  0  0  0  0  0  0
   -0.5764    5.8834   14.4380 C   0  0  0  0  0  0  0  0  0  0  0  0
   -1.3432    5.6038   14.9808 H   0  0  0  0  0  0  0  0  0  0  0  0
   -0.8526    5.9658   13.5012 H   0  0  0  0  0  0  0  0  0  0  0  0
   -0.2475    6.7489   14.7589 H   0  0  0  0  0  0  0  0  0  0  0  0
    0.7467    4.6434   14.5734 P   0  0  0  0  0  0  0  0  0  0  0  0
    3.8907    3.5139   14.9997 Cl  0  0  0  0  0  0  0  0  0  0  0  0
    2.7455    6.7367   13.1238 B   0  0  0  0  0  0  0  0  0  0  0  0
    0.8698    4.0064   10.8850 B   0  0  0  0  0  0  0  0  0  0  0  0
    1.7063    3.0580   10.3206 O   0  0  0  0  0  0  0  0  0  0  0  0
    0.9217    4.4564   16.3827 C   0  0  0  0  0  0  0  0  0  0  0  0
    0.0642    4.1764   16.7664 H   0  0  0  0  0  0  0  0  0  0  0  0
    1.1909    5.3129   16.7751 H   0  0  0  0  0  0  0  0  0  0  0  0
    1.6029    3.7793   16.5769 H   0  0  0  0  0  0  0  0  0  0  0  0
    4.4381    4.1823   11.8659 P   0  0  0  0  0  0  0  0  0  0  0  0
    4.5346    2.3580   11.7703 C   0  0  0  0  0  0  0  0  0  0  0  0
    5.3388    2.0989   11.2742 H   0  0  0  0  0  0  0  0  0  0  0  0
    3.7412    2.0127   11.3101 H   0  0  0  0  0  0  0  0  0  0  0  0
    4.5749    1.9851   12.6758 H   0  0  0  0  0  0  0  0  0  0  0  0
   -0.1335    3.1041   14.1405 C   0  0  0  0  0  0  0  0  0  0  0  0
   -0.9241    3.0083   14.7115 H   0  0  0  0  0  0  0  0  0  0  0  0
    0.4624    2.3379   14.2764 H   0  0  0  0  0  0  0  0  0  0  0  0
   -0.4110    3.1395   13.2013 H   0  0  0  0  0  0  0  0  0  0  0  0
   -0.5929    3.4506    8.2504 C   0  0  0  0  0  0  0  0  0  0  0  0
   -0.6442    2.7982    7.5208 H   0  0  0  0  0  0  0  0  0  0  0  0
    0.1988    4.0148    8.1294 H   0  0  0  0  0  0  0  0  0  0  0  0
   -1.3974    4.0107    8.2444 H   0  0  0  0  0  0  0  0  0  0  0  0
    4.4859    4.6171   10.0938 C   0  0  0  0  0  0  0  0  0  0  0  0
    5.3463    4.3412    9.7130 H   0  0  0  0  0  0  0  0  0  0  0  0
    4.3801    5.5860    9.9921 H   0  0  0  0  0  0  0  0  0  0  0  0
    3.7589    4.1577    9.6247 H   0  0  0  0  0  0  0  0  0  0  0  0
    6.0914    4.6127   12.5019 C   0  0  0  0  0  0  0  0  0  0  0  0
    6.7747    4.3091   11.8680 H   0  0  0  0  0  0  0  0  0  0  0  0
    6.2326    4.1761   13.3678 H   0  0  0  0  0  0  0  0  0  0  0  0
    6.1568    5.5844   12.6115 H   0  0  0  0  0  0  0  0  0  0  0  0
    1.0655    6.4781   11.5342 C   0  0  0  0  0  0  0  0  0  0  0  0
    1.3850    5.1785   11.7442 C   0  0  0  0  0  0  0  0  0  0  0  0
    0.8674    1.9877    9.7879 C   0  0  0  0  0  0  0  0  0  0  0  0
   -0.4957    2.7173    9.5806 C   0  0  0  0  0  0  0  0  0  0  0  0
   -1.7253    1.8637    9.8092 C   0  0  0  0  0  0  0  0  0  0  0  0
   -1.7075    1.0961    9.1999 H   0  0  0  0  0  0  0  0  0  0  0  0
   -2.5293    2.3971    9.6396 H   0  0  0  0  0  0  0  0  0  0  0  0
   -1.7335    1.5449   10.7358 H   0  0  0  0  0  0  0  0  0  0  0  0
    0.2932    6.8789   10.3077 C   0  0  0  0  0  0  0  0  0  0  0  0
   -1.0754    6.6492   10.2084 C   0  0  0  0  0  0  0  0  0  0  0  0
   -1.5556    6.3280   10.9625 H   0  0  0  0  0  0  0  0  0  0  0  0
   -1.7477    6.8877    9.0085 C   0  0  0  0  0  0  0  0  0  0  0  0
   -2.6844    6.7379    8.9535 H   0  0  0  0  0  0  0  0  0  0  0  0
   -1.0523    7.3440    7.8923 C   0  0  0  0  0  0  0  0  0  0  0  0
   -1.5065    7.4920    7.0709 H   0  0  0  0  0  0  0  0  0  0  0  0
    0.3032    7.5791    7.9931 C   0  0  0  0  0  0  0  0  0  0  0  0
    0.7808    7.9038    7.2390 H   0  0  0  0  0  0  0  0  0  0  0  0
    0.9776    7.3454    9.1875 C   0  0  0  0  0  0  0  0  0  0  0  0
    1.9131    7.5053    9.2395 H   0  0  0  0  0  0  0  0  0  0  0  0
    1.3083    8.8708   12.5238 C   0  0  0  0  0  0  0  0  0  0  0  0
    2.1292    9.7758   11.5944 C   0  0  0  0  0  0  0  0  0  0  0  0
    1.7927   10.6944   11.6522 H   0  0  0  0  0  0  0  0  0  0  0  0
    2.0481    9.4557   10.6716 H   0  0  0  0  0  0  0  0  0  0  0  0
    3.0706    9.7550   11.8659 H   0  0  0  0  0  0  0  0  0  0  0  0
    1.5368    9.3399   13.9757 C   0  0  0  0  0  0  0  0  0  0  0  0
    1.2465   10.2713   14.0677 H   0  0  0  0  0  0  0  0  0  0  0  0
    2.4899    9.2718   14.1948 H   0  0  0  0  0  0  0  0  0  0  0  0
    1.0202    8.7745   14.5869 H   0  0  0  0  0  0  0  0  0  0  0  0
   -0.1765    9.0806   12.2305 C   0  0  0  0  0  0  0  0  0  0  0  0
   -0.4499    9.9672   12.5467 H   0  0  0  0  0  0  0  0  0  0  0  0
   -0.7010    8.3934   12.6926 H   0  0  0  0  0  0  0  0  0  0  0  0
   -0.3316    9.0158   11.2653 H   0  0  0  0  0  0  0  0  0  0  0  0
    4.0356    7.4525   13.7118 C   0  0  0  0  0  0  0  0  0  0  0  0
    4.9750    8.0162   12.8299 C   0  0  0  0  0  0  0  0  0  0  0  0
    6.0657    8.7462   13.3170 C   0  0  0  0  0  0  0  0  0  0  0  0
    6.6977    9.1071   12.7067 H   0  0  0  0  0  0  0  0  0  0  0  0
    6.2374    8.9512   14.6834 C   0  0  0  0  0  0  0  0  0  0  0  0
    5.3399    8.3636   15.5522 C   0  0  0  0  0  0  0  0  0  0  0  0
    5.4628    8.4823   16.4867 H   0  0  0  0  0  0  0  0  0  0  0  0
    4.2556    7.6001   15.1074 C   0  0  0  0  0  0  0  0  0  0  0  0
    4.8983    7.8556   11.3257 C   0  0  0  0  0  0  0  0  0  0  0  0
    5.0561    8.7221   10.8961 H   0  0  0  0  0  0  0  0  0  0  0  0
    4.0090    7.5256   11.0779 H   0  0  0  0  0  0  0  0  0  0  0  0
    5.5783    7.2153   11.0301 H   0  0  0  0  0  0  0  0  0  0  0  0
    7.3669    9.8131   15.1983 C   0  0  0  0  0  0  0  0  0  0  0  0
    7.1454   10.1391   16.0953 H   0  0  0  0  0  0  0  0  0  0  0  0
    7.4970   10.5744   14.5960 H   0  0  0  0  0  0  0  0  0  0  0  0
    8.1898    9.2823   15.2374 H   0  0  0  0  0  0  0  0  0  0  0  0
    3.3286    6.9863   16.1212 C   0  0  0  0  0  0  0  0  0  0  0  0
    3.5208    7.3591   17.0069 H   0  0  0  0  0  0  0  0  0  0  0  0
    3.4620    6.0155   16.1395 H   0  0  0  0  0  0  0  0  0  0  0  0
    2.4008    7.1843   15.8773 H   0  0  0  0  0  0  0  0  0  0  0  0
    0.8046    0.8841   10.8365 C   0  0  0  0  0  0  0  0  0  0  0  0
    0.3022    0.1220   10.4791 H   0  0  0  0  0  0  0  0  0  0  0  0
    0.3567    1.2221   11.6401 H   0  0  0  0  0  0  0  0  0  0  0  0
    1.7135    0.5982   11.0646 H   0  0  0  0  0  0  0  0  0  0  0  0
    1.5244    1.4680    8.5267 C   0  0  0  0  0  0  0  0  0  0  0  0
    0.9613    0.7726    8.1274 H   0  0  0  0  0  0  0  0  0  0  0  0
    2.4019    1.0913    8.7473 H   0  0  0  0  0  0  0  0  0  0  0  0
    1.6359    2.2042    7.8894 H   0  0  0  0  0  0  0  0  0  0  0  0
  1  8  1  0  0  0  0
  2 10  1  0  0  0  0
  3 11  1  0  0  0  0
  4  5  1  0  0  0  0
  6  4  1  0  0  0  0
  7  4  1  0  0  0  0
  8  4  1  0  0  0  0
  9  1  1  0  0  0  0
 10  1  1  0  0  0  0
 11 12  1  0  0  0  0
 12 40  1  0  0  0  0
 13  8  1  0  0  0  0
 14 13  1  0  0  0  0
 15 13  1  0  0  0  0
 16 13  1  0  0  0  0
 17  1  1  0  0  0  0
 18 17  1  0  0  0  0
 19 18  1  0  0  0  0
 20 18  1  0  0  0  0
 21 18  1  0  0  0  0
 22  8  1  0  0  0  0
 23 22  1  0  0  0  0
 24 22  1  0  0  0  0
 25 22  1  0  0  0  0
 26 27  1  0  0  0  0
 28 26  1  0  0  0  0
 29 26  1  0  0  0  0
 30 17  1  0  0  0  0
 31 30  1  0  0  0  0
 32 30  1  0  0  0  0
 33 30  1  0  0  0  0
 34 17  1  0  0  0  0
 35 34  1  0  0  0  0
 36 34  1  0  0  0  0
 37 34  1  0  0  0  0
 38  2  1  0  0  0  0
 39  1  1  0  0  0  0
 40 41  1  0  0  0  0
 41  3  1  0  0  0  0
 42 41  1  0  0  0  0
 43 42  1  0  0  0  0
 44 42  1  0  0  0  0
 45 42  1  0  0  0  0
 46 38  1  0  0  0  0
 47 46  4  0  0  0  0
 48 47  1  0  0  0  0
 49 47  4  0  0  0  0
 50 49  1  0  0  0  0
 51 49  4  0  0  0  0
 52 51  1  0  0  0  0
 53 51  4  0  0  0  0
 54 53  1  0  0  0  0
 55 46  4  0  0  0  0
 56 55  1  0  0  0  0
 57  2  1  0  0  0  0
 58 57  1  0  0  0  0
 59 58  1  0  0  0  0
 60 58  1  0  0  0  0
 61 58  1  0  0  0  0
 62 57  1  0  0  0  0
 63 62  1  0  0  0  0
 64 62  1  0  0  0  0
 65 62  1  0  0  0  0
 66 57  1  0  0  0  0
 67 66  1  0  0  0  0
 68 66  1  0  0  0  0
 69 66  1  0  0  0  0
 70 10  1  0  0  0  0
 71 70  4  0  0  0  0
 72 71  4  0  0  0  0
 73 72  1  0  0  0  0
 74 72  4  0  0  0  0
 75 74  4  0  0  0  0
 76 75  1  0  0  0  0
 77 70  4  0  0  0  0
 78 71  1  0  0  0  0
 79 78  1  0  0  0  0
 80 78  1  0  0  0  0
 81 78  1  0  0  0  0
 82 74  1  0  0  0  0
 83 82  1  0  0  0  0
 84 82  1  0  0  0  0
 85 82  1  0  0  0  0
 86 77  1  0  0  0  0
 87 86  1  0  0  0  0
 88 86  1  0  0  0  0
 89 86  1  0  0  0  0
 90 40  1  0  0  0  0
 91 90  1  0  0  0  0
 92 90  1  0  0  0  0
 93 90  1  0  0  0  0
 94 40  1  0  0  0  0
 95 94  1  0  0  0  0
 96 94  1  0  0  0  0
 97 94  1  0  0  0  0
 11 39  1  0  0  0  0
 26 41  1  0  0  0  0
 38 39  2  0  0  0  0
 53 55  4  0  0  0  0
 75 77  4  0  0  0  0
M  END
$$$$
GAKXAU

From CSD data. Using bond type 'Any'. No disordered atoms. Largest molecule.
102125  0  0  0  0  0  0  0  0999 V2000
    4.8179    3.8125    3.9259 Rh  0  0  0  0  0  0  0  0  0  0  0  0
    5.9375    3.0247    4.4239 H   0  0  0  0  0  0  0  0  0  0  0  0
    2.9422    5.1424    2.9719 Cl  0  0  0  0  0  0  0  0  0  0  0  0
    4.5354    4.0569    6.2312 P   0  0  0  0  0  0  0  0  0  0  0  0
    6.1521    4.0462    2.0455 P   0  0  0  0  0  0  0  0  0  0  0  0
    3.5953    1.7500    3.4477 P   0  0  0  0  0  0  0  0  0  0  0  0
    5.5595    5.2757    6.8225 O   0  0  0  0  0  0  0  0  0  0  0  0
    7.4684    5.0539    2.3801 O   0  0  0  0  0  0  0  0  0  0  0  0
    6.2569    6.0079    5.8685 C   0  0  0  0  0  0  0  0  0  0  0  0
    7.2848    5.9020    3.4648 C   0  0  0  0  0  0  0  0  0  0  0  0
    5.1394    2.7498    7.3878 C   0  0  0  0  0  0  0  0  0  0  0  0
    5.0577    3.1294    8.3094 H   0  0  0  0  0  0  0  0  0  0  0  0
    4.2575    1.5036    7.3553 C   0  0  0  0  0  0  0  0  0  0  0  0
    3.3317    1.7538    7.5544 H   0  0  0  0  0  0  0  0  0  0  0  0
    4.5749    0.8617    8.0245 H   0  0  0  0  0  0  0  0  0  0  0  0
    4.3010    1.0961    6.4654 H   0  0  0  0  0  0  0  0  0  0  0  0
    6.6128    2.3946    7.1967 C   0  0  0  0  0  0  0  0  0  0  0  0
    6.7421    2.0007    6.3081 H   0  0  0  0  0  0  0  0  0  0  0  0
    6.8853    1.7495    7.8830 H   0  0  0  0  0  0  0  0  0  0  0  0
    7.1576    3.2055    7.2764 H   0  0  0  0  0  0  0  0  0  0  0  0
    2.9353    4.5248    7.0302 C   0  0  0  0  0  0  0  0  0  0  0  0
    2.3238    3.7411    6.9164 H   0  0  0  0  0  0  0  0  0  0  0  0
    3.0397    4.7738    8.5431 C   0  0  0  0  0  0  0  0  0  0  0  0
    3.2347    3.9290    8.9999 H   0  0  0  0  0  0  0  0  0  0  0  0
    2.1916    5.1367    8.8740 H   0  0  0  0  0  0  0  0  0  0  0  0
    3.7602    5.4144    8.7202 H   0  0  0  0  0  0  0  0  0  0  0  0
    2.2418    5.7107    6.3640 C   0  0  0  0  0  0  0  0  0  0  0  0
    2.6871    6.5420    6.6315 H   0  0  0  0  0  0  0  0  0  0  0  0
    1.3033    5.7390    6.6420 H   0  0  0  0  0  0  0  0  0  0  0  0
    2.2913    5.6134    5.3905 H   0  0  0  0  0  0  0  0  0  0  0  0
    7.1102    2.5652    1.5270 C   0  0  0  0  0  0  0  0  0  0  0  0
    6.4708    1.7965    1.5207 H   0  0  0  0  0  0  0  0  0  0  0  0
    8.1884    2.2334    2.5627 C   0  0  0  0  0  0  0  0  0  0  0  0
    8.9146    2.8890    2.4995 H   0  0  0  0  0  0  0  0  0  0  0  0
    8.5420    1.3359    2.3894 H   0  0  0  0  0  0  0  0  0  0  0  0
    7.7988    2.2636    3.4608 H   0  0  0  0  0  0  0  0  0  0  0  0
    7.7412    2.6225    0.1365 C   0  0  0  0  0  0  0  0  0  0  0  0
    7.0389    2.7534   -0.5349 H   0  0  0  0  0  0  0  0  0  0  0  0
    8.2134    1.7826   -0.0437 H   0  0  0  0  0  0  0  0  0  0  0  0
    8.3750    3.3691    0.0961 H   0  0  0  0  0  0  0  0  0  0  0  0
    5.4365    4.9336    0.5906 C   0  0  0  0  0  0  0  0  0  0  0  0
    4.8794    5.6664    0.9823 H   0  0  0  0  0  0  0  0  0  0  0  0
    4.4572    4.0656   -0.1804 C   0  0  0  0  0  0  0  0  0  0  0  0
    4.9196    3.2691   -0.5156 H   0  0  0  0  0  0  0  0  0  0  0  0
    4.0934    4.5744   -0.9351 H   0  0  0  0  0  0  0  0  0  0  0  0
    3.7249    3.7934    0.4125 H   0  0  0  0  0  0  0  0  0  0  0  0
    6.4329    5.6408   -0.3293 C   0  0  0  0  0  0  0  0  0  0  0  0
    7.0684    6.1554    0.2115 H   0  0  0  0  0  0  0  0  0  0  0  0
    5.9501    6.2465   -0.9299 H   0  0  0  0  0  0  0  0  0  0  0  0
    6.9176    4.9745   -0.8582 H   0  0  0  0  0  0  0  0  0  0  0  0
    2.1003    1.5230    4.4950 C   0  0  0  0  0  0  0  0  0  0  0  0
    1.7744    0.3269    5.1243 C   0  0  0  0  0  0  0  0  0  0  0  0
    2.3410   -0.4294    5.0234 H   0  0  0  0  0  0  0  0  0  0  0  0
    0.6207    0.2296    5.9023 C   0  0  0  0  0  0  0  0  0  0  0  0
    0.4062   -0.5919    6.3273 H   0  0  0  0  0  0  0  0  0  0  0  0
   -0.2066    1.3110    6.0576 C   0  0  0  0  0  0  0  0  0  0  0  0
   -0.9980    1.2336    6.5755 H   0  0  0  0  0  0  0  0  0  0  0  0
    0.1136    2.5138    5.4593 C   0  0  0  0  0  0  0  0  0  0  0  0
   -0.4542    3.2665    5.5792 H   0  0  0  0  0  0  0  0  0  0  0  0
    1.2613    2.6328    4.6824 C   0  0  0  0  0  0  0  0  0  0  0  0
    1.4776    3.4651    4.2788 H   0  0  0  0  0  0  0  0  0  0  0  0
    2.8937    1.5977    1.7503 C   0  0  0  0  0  0  0  0  0  0  0  0
    1.6766    2.1817    1.4116 C   0  0  0  0  0  0  0  0  0  0  0  0
    1.1557    2.6068    2.0835 H   0  0  0  0  0  0  0  0  0  0  0  0
    1.2148    2.1481    0.0998 C   0  0  0  0  0  0  0  0  0  0  0  0
    0.3804    2.5467   -0.1154 H   0  0  0  0  0  0  0  0  0  0  0  0
    1.9604    1.5374   -0.8933 C   0  0  0  0  0  0  0  0  0  0  0  0
    1.6406    1.5147   -1.7881 H   0  0  0  0  0  0  0  0  0  0  0  0
    3.1741    0.9633   -0.5716 C   0  0  0  0  0  0  0  0  0  0  0  0
    3.6969    0.5509   -1.2497 H   0  0  0  0  0  0  0  0  0  0  0  0
    3.6337    0.9866    0.7339 C   0  0  0  0  0  0  0  0  0  0  0  0
    4.4663    0.5787    0.9439 H   0  0  0  0  0  0  0  0  0  0  0  0
    4.4692    0.1401    3.5858 C   0  0  0  0  0  0  0  0  0  0  0  0
    3.8721   -1.0541    3.1502 C   0  0  0  0  0  0  0  0  0  0  0  0
    3.0010   -1.0348    2.7739 H   0  0  0  0  0  0  0  0  0  0  0  0
    4.5396   -2.2594    3.2640 C   0  0  0  0  0  0  0  0  0  0  0  0
    4.1178   -3.0608    2.9784 H   0  0  0  0  0  0  0  0  0  0  0  0
    5.8190   -2.3062    3.7899 C   0  0  0  0  0  0  0  0  0  0  0  0
    6.2785   -3.1355    3.8541 H   0  0  0  0  0  0  0  0  0  0  0  0
    6.4266   -1.1388    4.2220 C   0  0  0  0  0  0  0  0  0  0  0  0
    7.3035   -1.1676    4.5882 H   0  0  0  0  0  0  0  0  0  0  0  0
    5.7567    0.0757    4.1206 C   0  0  0  0  0  0  0  0  0  0  0  0
    6.1792    0.8720    4.4204 H   0  0  0  0  0  0  0  0  0  0  0  0
    5.8345    5.5611    4.2846 B   0  0  0  0  0  0  0  0  0  0  0  0
    7.4628    5.1899    4.9921 B   0  0  0  0  0  0  0  0  0  0  0  0
    7.7925    4.1349    5.1790 H   0  0  0  0  0  0  0  0  0  0  0  0
    6.0288    7.0750    3.3519 B   0  0  0  0  0  0  0  0  0  0  0  0
    5.4134    7.2788    2.4383 H   0  0  0  0  0  0  0  0  0  0  0  0
    5.3480    7.1374    4.9574 B   0  0  0  0  0  0  0  0  0  0  0  0
    4.2702    7.3832    5.1318 H   0  0  0  0  0  0  0  0  0  0  0  0
    8.6236    6.3906    4.4590 B   0  0  0  0  0  0  0  0  0  0  0  0
    9.6990    6.1425    4.2666 H   0  0  0  0  0  0  0  0  0  0  0  0
    7.7399    7.5589    3.4414 B   0  0  0  0  0  0  0  0  0  0  0  0
    8.2477    8.0691    2.5834 H   0  0  0  0  0  0  0  0  0  0  0  0
    6.5130    8.3682    4.4527 B   0  0  0  0  0  0  0  0  0  0  0  0
    6.2140    9.4351    4.2823 H   0  0  0  0  0  0  0  0  0  0  0  0
    6.6166    7.6681    6.0917 B   0  0  0  0  0  0  0  0  0  0  0  0
    6.3712    8.2520    7.0143 H   0  0  0  0  0  0  0  0  0  0  0  0
    7.9210    6.4616    6.1033 B   0  0  0  0  0  0  0  0  0  0  0  0
    8.5229    6.2594    7.0265 H   0  0  0  0  0  0  0  0  0  0  0  0
    8.1043    7.9468    5.1466 B   0  0  0  0  0  0  0  0  0  0  0  0
    8.8478    8.7350    5.4289 H   0  0  0  0  0  0  0  0  0  0  0  0
  1  2  1  0  0  0  0
  3  1  1  0  0  0  0
  4  1  1  0  0  0  0
  5  1  1  0  0  0  0
  6  1  1  0  0  0  0
  7  4  1  0  0  0  0
  8  5  1  0  0  0  0
  9  7  1  0  0  0  0
 10  8  1  0  0  0  0
 11  4  1  0  0  0  0
 12 11  1  0  0  0  0
 13 11  1  0  0  0  0
 14 13  1  0  0  0  0
 15 13  1  0  0  0  0
 16 13  1  0  0  0  0
 17 11  1  0  0  0  0
 18 17  1  0  0  0  0
 19 17  1  0  0  0  0
 20 17  1  0  0  0  0
 21  4  1  0  0  0  0
 22 21  1  0  0  0  0
 23 21  1  0  0  0  0
 24 23  1  0  0  0  0
 25 23  1  0  0  0  0
 26 23  1  0  0  0  0
 27 21  1  0  0  0  0
 28 27  1  0  0  0  0
 29 27  1  0  0  0  0
 30 27  1  0  0  0  0
 31  5  1  0  0  0  0
 32 31  1  0  0  0  0
 33 31  1  0  0  0  0
 34 33  1  0  0  0  0
 35 33  1  0  0  0  0
 36 33  1  0  0  0  0
 37 31  1  0  0  0  0
 38 37  1  0  0  0  0
 39 37  1  0  0  0  0
 40 37  1  0  0  0  0
 41  5  1  0  0  0  0
 42 41  1  0  0  0  0
 43 41  1  0  0  0  0
 44 43  1  0  0  0  0
 45 43  1  0  0  0  0
 46 43  1  0  0  0  0
 47 41  1  0  0  0  0
 48 47  1  0  0  0  0
 49 47  1  0  0  0  0
 50 47  1  0  0  0  0
 51  6  1  0  0  0  0
 52 51  4  0  0  0  0
 53 52  1  0  0  0  0
 54 52  4  0  0  0  0
 55 54  1  0  0  0  0
 56 54  4  0  0  0  0
 57 56  1  0  0  0  0
 58 56  4  0  0  0  0
 59 58  1  0  0  0  0
 60 51  4  0  0  0  0
 61 60  1  0  0  0  0
 62  6  1  0  0  0  0
 63 62  4  0  0  0  0
 64 63  1  0  0  0  0
 65 63  4  0  0  0  0
 66 65  1  0  0  0  0
 67 65  4  0  0  0  0
 68 67  1  0  0  0  0
 69 67  4  0  0  0  0
 70 69  1  0  0  0  0
 71 62  4  0  0  0  0
 72 71  1  0  0  0  0
 73  6  1  0  0  0  0
 74 73  4  0  0  0  0
 75 74  1  0  0  0  0
 76 74  4  0  0  0  0
 77 76  1  0  0  0  0
 78 76  4  0  0  0  0
 79 78  1  0  0  0  0
 80 78  4  0  0  0  0
 81 80  1  0  0  0  0
 82 73  4  0  0  0  0
 83 82  1  0  0  0  0
 84  1  1  0  0  0  0
 85  9  1  0  0  0  0
 86 85  1  0  0  0  0
 87 10  1  0  0  0  0
 88 87  1  0  0  0  0
 89  9  1  0  0  0  0
 90 89  1  0  0  0  0
 91 10  1  0  0  0  0
 92 91  1  0  0  0  0
 93 10  1  0  0  0  0
 94 93  1  0  0  0  0
 95 87  1  0  0  0  0
 96 95  1  0  0  0  0
 97  9  1  0  0  0  0
 98 97  1  0  0  0  0
 99  9  1  0  0  0  0
100 99  1  0  0  0  0
101 91  1  0  0  0  0
102101  1  0  0  0  0
  9 84  1  0  0  0  0
 10 84  1  0  0  0  0
 10 85  1  0  0  0  0
 58 60  4  0  0  0  0
 69 71  4  0  0  0  0
 80 82  4  0  0  0  0
 84 85  1  0  0  0  0
 84 87  1  0  0  0  0
 84 89  1  0  0  0  0
 85 91  1  0  0  0  0
 85 99  1  0  0  0  0
 87 89  1  0  0  0  0
 87 93  1  0  0  0  0
 89 95  1  0  0  0  0
 89 97  1  0  0  0  0
 91 93  1  0  0  0  0
 91 99  1  0  0  0  0
 93 95  1  0  0  0  0
 93101  1  0  0  0  0
 95 97  1  0  0  0  0
 95101  1  0  0  0  0
 97 99  1  0  0  0  0
 97101  1  0  0  0  0
 99101  1  0  0  0  0
M  END
$$$$
GAKXEY

From CSD data. Using bond type 'Any'. No disordered atoms. Largest molecule.
 66 84  0  0  0  0  0  0  0  0999 V2000
    6.0847    8.7540    1.6941 P   0  0  0  0  0  0  0  0  0  0  0  0
    9.3439    3.7997    6.9131 P   0  0  0  0  0  0  0  0  0  0  0  0
    6.1212    7.7766    3.0892 O   0  0  0  0  0  0  0  0  0  0  0  0
    9.0944    5.2234    6.0256 O   0  0  0  0  0  0  0  0  0  0  0  0
    6.9485    6.6612    3.1601 C   0  0  0  0  0  0  0  0  0  0  0  0
    8.5106    5.2334    4.7692 C   0  0  0  0  0  0  0  0  0  0  0  0
    4.2633    8.7591    1.3887 C   0  0  0  0  0  0  0  0  0  0  0  0
    4.1129    9.3588    0.6024 H   0  0  0  0  0  0  0  0  0  0  0  0
    3.3620    9.2875    2.5094 C   0  0  0  0  0  0  0  0  0  0  0  0
    3.4767    8.7326    3.3100 H   0  0  0  0  0  0  0  0  0  0  0  0
    2.4270    9.2534    2.2201 H   0  0  0  0  0  0  0  0  0  0  0  0
    3.6063   10.2135    2.7166 H   0  0  0  0  0  0  0  0  0  0  0  0
    3.8263    7.3624    0.9492 C   0  0  0  0  0  0  0  0  0  0  0  0
    4.3953    7.0592    0.2117 H   0  0  0  0  0  0  0  0  0  0  0  0
    2.8928    7.3912    0.6516 H   0  0  0  0  0  0  0  0  0  0  0  0
    3.9088    6.7414    1.7027 H   0  0  0  0  0  0  0  0  0  0  0  0
    6.3667   10.3822    2.5188 C   0  0  0  0  0  0  0  0  0  0  0  0
    5.7601   10.4592    3.3100 H   0  0  0  0  0  0  0  0  0  0  0  0
    7.8178   10.4720    2.9889 C   0  0  0  0  0  0  0  0  0  0  0  0
    8.0066    9.7375    3.6097 H   0  0  0  0  0  0  0  0  0  0  0  0
    7.9618   11.3280    3.4427 H   0  0  0  0  0  0  0  0  0  0  0  0
    8.4167   10.4080    2.2156 H   0  0  0  0  0  0  0  0  0  0  0  0
    6.0535   11.5092    1.5338 C   0  0  0  0  0  0  0  0  0  0  0  0
    6.5494   11.3622    0.7008 H   0  0  0  0  0  0  0  0  0  0  0  0
    6.3195   12.3682    1.9249 H   0  0  0  0  0  0  0  0  0  0  0  0
    5.0925   11.5202    1.3449 H   0  0  0  0  0  0  0  0  0  0  0  0
    8.5388    4.3432    8.4876 C   0  0  0  0  0  0  0  0  0  0  0  0
    8.8253    3.7003    9.1981 H   0  0  0  0  0  0  0  0  0  0  0  0
    7.0206    4.2195    8.3622 C   0  0  0  0  0  0  0  0  0  0  0  0
    6.6946    4.8571    7.6936 H   0  0  0  0  0  0  0  0  0  0  0  0
    6.6047    4.4138    9.2279 H   0  0  0  0  0  0  0  0  0  0  0  0
    6.7889    3.3085    8.0858 H   0  0  0  0  0  0  0  0  0  0  0  0
    8.9307    5.7405    8.9678 C   0  0  0  0  0  0  0  0  0  0  0  0
    9.9007    5.7799    9.1011 H   0  0  0  0  0  0  0  0  0  0  0  0
    8.4768    5.9336    9.8153 H   0  0  0  0  0  0  0  0  0  0  0  0
    8.6649    6.4026    8.2960 H   0  0  0  0  0  0  0  0  0  0  0  0
   11.1307    4.0920    7.2830 C   0  0  0  0  0  0  0  0  0  0  0  0
   11.2541    5.0554    7.5207 H   0  0  0  0  0  0  0  0  0  0  0  0
   11.9638    3.7872    6.0298 C   0  0  0  0  0  0  0  0  0  0  0  0
   11.8427    2.8485    5.7777 H   0  0  0  0  0  0  0  0  0  0  0  0
   12.9108    3.9551    6.2175 H   0  0  0  0  0  0  0  0  0  0  0  0
   11.6698    4.3639    5.2946 H   0  0  0  0  0  0  0  0  0  0  0  0
   11.5848    3.2345    8.4672 C   0  0  0  0  0  0  0  0  0  0  0  0
   11.1346    3.5394    9.2830 H   0  0  0  0  0  0  0  0  0  0  0  0
   12.5546    3.3182    8.5778 H   0  0  0  0  0  0  0  0  0  0  0  0
   11.3556    2.2971    8.2990 H   0  0  0  0  0  0  0  0  0  0  0  0
    6.9281    5.8752    4.6728 B   0  0  0  0  0  0  0  0  0  0  0  0
    6.4296    6.2529    5.5003 H   0  0  0  0  0  0  0  0  0  0  0  0
    8.3582    6.8005    4.1303 B   0  0  0  0  0  0  0  0  0  0  0  0
    8.6024    7.6635    4.6848 H   0  0  0  0  0  0  0  0  0  0  0  0
    7.2303    4.1716    4.3390 B   0  0  0  0  0  0  0  0  0  0  0  0
    6.9078    3.4608    5.0739 H   0  0  0  0  0  0  0  0  0  0  0  0
    6.1877    5.1117    3.2610 B   0  0  0  0  0  0  0  0  0  0  0  0
    5.1658    5.0568    3.1773 H   0  0  0  0  0  0  0  0  0  0  0  0
    8.4870    6.6226    2.3780 B   0  0  0  0  0  0  0  0  0  0  0  0
    8.7639    7.4762    1.7922 H   0  0  0  0  0  0  0  0  0  0  0  0
    9.5248    5.6750    3.4381 B   0  0  0  0  0  0  0  0  0  0  0  0
   10.5606    5.8409    3.6575 H   0  0  0  0  0  0  0  0  0  0  0  0
    8.8389    4.0411    3.5726 B   0  0  0  0  0  0  0  0  0  0  0  0
    9.4833    3.2228    3.8602 H   0  0  0  0  0  0  0  0  0  0  0  0
    7.3704    3.9745    2.5854 B   0  0  0  0  0  0  0  0  0  0  0  0
    7.0539    3.0736    2.1023 H   0  0  0  0  0  0  0  0  0  0  0  0
    7.1467    5.5726    1.8338 B   0  0  0  0  0  0  0  0  0  0  0  0
    6.6495    5.7963    0.9065 H   0  0  0  0  0  0  0  0  0  0  0  0
    8.7811    4.9140    2.0214 B   0  0  0  0  0  0  0  0  0  0  0  0
    9.3705    4.6325    1.1719 H   0  0  0  0  0  0  0  0  0  0  0  0
  1  3  1  0  0  0  0
  2  4  1  0  0  0  0
  3  5  1  0  0  0  0
  4  6  1  0  0  0  0
  5 47  1  0  0  0  0
  6 47  1  0  0  0  0
  7  1  1  0  0  0  0
  8  7  1  0  0  0  0
  9  7  1  0  0  0  0
 10  9  1  0  0  0  0
 11  9  1  0  0  0  0
 12  9  1  0  0  0  0
 13  7  1  0  0  0  0
 14 13  1  0  0  0  0
 15 13  1  0  0  0  0
 16 13  1  0  0  0  0
 17  1  1  0  0  0  0
 18 17  1  0  0  0  0
 19 17  1  0  0  0  0
 20 19  1  0  0  0  0
 21 19  1  0  0  0  0
 22 19  1  0  0  0  0
 23 17  1  0  0  0  0
 24 23  1  0  0  0  0
 25 23  1  0  0  0  0
 26 23  1  0  0  0  0
 27  2  1  0  0  0  0
 28 27  1  0  0  0  0
 29 27  1  0  0  0  0
 30 29  1  0  0  0  0
 31 29  1  0  0  0  0
 32 29  1  0  0  0  0
 33 27  1  0  0  0  0
 34 33  1  0  0  0  0
 35 33  1  0  0  0  0
 36 33  1  0  0  0  0
 37  2  1  0  0  0  0
 38 37  1  0  0  0  0
 39 37  1  0  0  0  0
 40 39  1  0  0  0  0
 41 39  1  0  0  0  0
 42 39  1  0  0  0  0
 43 37  1  0  0  0  0
 44 43  1  0  0  0  0
 45 43  1  0  0  0  0
 46 43  1  0  0  0  0
 47 48  1  0  0  0  0
 49  5  1  0  0  0  0
 50 49  1  0  0  0  0
 51  6  1  0  0  0  0
 52 51  1  0  0  0  0
 53  5  1  0  0  0  0
 54 53  1  0  0  0  0
 55  5  1  0  0  0  0
 56 55  1  0  0  0  0
 57  6  1  0  0  0  0
 58 57  1  0  0  0  0
 59  6  1  0  0  0  0
 60 59  1  0  0  0  0
 61 51  1  0  0  0  0
 62 61  1  0  0  0  0
 63  5  1  0  0  0  0
 64 63  1  0  0  0  0
 65 55  1  0  0  0  0
 66 65  1  0  0  0  0
  6 49  1  0  0  0  0
 47 49  1  0  0  0  0
 47 51  1  0  0  0  0
 47 53  1  0  0  0  0
 49 55  1  0  0  0  0
 49 57  1  0  0  0  0
 51 53  1  0  0  0  0
 51 59  1  0  0  0  0
 53 61  1  0  0  0  0
 53 63  1  0  0  0  0
 55 57  1  0  0  0  0
 55 63  1  0  0  0  0
 57 59  1  0  0  0  0
 57 65  1  0  0  0  0
 59 61  1  0  0  0  0
 59 65  1  0  0  0  0
 61 63  1  0  0  0  0
 61 65  1  0  0  0  0
 63 65  1  0  0  0  0
M  END
$$$$
GAKXIC

From CSD data. Using bond type 'Any'. No disordered atoms. Largest molecule.
100123  0  0  0  0  0  0  0  0999 V2000
    3.9346    8.6063    4.7454 Rh  0  0  0  0  0  0  0  0  0  0  0  0
    2.9070    8.2732    6.7335 P   0  0  0  0  0  0  0  0  0  0  0  0
    4.5083    7.9046    2.6476 P   0  0  0  0  0  0  0  0  0  0  0  0
    3.6321   10.9094    4.4263 P   0  0  0  0  0  0  0  0  0  0  0  0
    2.5254    6.6323    6.9787 O   0  0  0  0  0  0  0  0  0  0  0  0
    4.5142    6.1986    2.5544 O   0  0  0  0  0  0  0  0  0  0  0  0
    3.2172    5.7614    6.1411 C   0  0  0  0  0  0  0  0  0  0  0  0
    4.2759    5.5366    3.7521 C   0  0  0  0  0  0  0  0  0  0  0  0
    1.1811    8.9198    6.9086 C   0  0  0  0  0  0  0  0  0  0  0  0
    1.2293    9.9151    6.8145 H   0  0  0  0  0  0  0  0  0  0  0  0
    0.5260    8.6280    8.2595 C   0  0  0  0  0  0  0  0  0  0  0  0
    0.5572    7.6653    8.4357 H   0  0  0  0  0  0  0  0  0  0  0  0
   -0.4070    8.9266    8.2411 H   0  0  0  0  0  0  0  0  0  0  0  0
    1.0083    9.1068    8.9665 H   0  0  0  0  0  0  0  0  0  0  0  0
    0.3114    8.4006    5.7624 C   0  0  0  0  0  0  0  0  0  0  0  0
    0.7550    8.5812    4.9070 H   0  0  0  0  0  0  0  0  0  0  0  0
   -0.5580    8.8515    5.7820 H   0  0  0  0  0  0  0  0  0  0  0  0
    0.1802    7.4351    5.8640 H   0  0  0  0  0  0  0  0  0  0  0  0
    3.7409    8.7156    8.3373 C   0  0  0  0  0  0  0  0  0  0  0  0
    3.3262    9.5723    8.6480 H   0  0  0  0  0  0  0  0  0  0  0  0
    3.5476    7.6981    9.4704 C   0  0  0  0  0  0  0  0  0  0  0  0
    2.5900    7.5677    9.6323 H   0  0  0  0  0  0  0  0  0  0  0  0
    3.9735    8.0332   10.2869 H   0  0  0  0  0  0  0  0  0  0  0  0
    3.9553    6.8445    9.2158 H   0  0  0  0  0  0  0  0  0  0  0  0
    5.2345    9.0012    8.1334 C   0  0  0  0  0  0  0  0  0  0  0  0
    5.7146    8.1558    8.0079 H   0  0  0  0  0  0  0  0  0  0  0  0
    5.5884    9.4646    8.9198 H   0  0  0  0  0  0  0  0  0  0  0  0
    5.3544    9.5647    7.3405 H   0  0  0  0  0  0  0  0  0  0  0  0
    3.3111    8.2049    1.2736 C   0  0  0  0  0  0  0  0  0  0  0  0
    3.2760    9.1919    1.1178 H   0  0  0  0  0  0  0  0  0  0  0  0
    1.9034    7.7539    1.6818 C   0  0  0  0  0  0  0  0  0  0  0  0
    1.8747    6.7744    1.7290 H   0  0  0  0  0  0  0  0  0  0  0  0
    1.2545    8.0682    1.0181 H   0  0  0  0  0  0  0  0  0  0  0  0
    1.6815    8.1308    2.5589 H   0  0  0  0  0  0  0  0  0  0  0  0
    3.7063    7.5434   -0.0568 C   0  0  0  0  0  0  0  0  0  0  0  0
    4.5855    7.8730   -0.3361 H   0  0  0  0  0  0  0  0  0  0  0  0
    3.0415    7.7654   -0.7414 H   0  0  0  0  0  0  0  0  0  0  0  0
    3.7439    6.5717    0.0595 H   0  0  0  0  0  0  0  0  0  0  0  0
    6.1299    8.2497    1.8314 C   0  0  0  0  0  0  0  0  0  0  0  0
    6.2220    7.6328    1.0502 H   0  0  0  0  0  0  0  0  0  0  0  0
    7.3274    8.0217    2.7615 C   0  0  0  0  0  0  0  0  0  0  0  0
    7.2163    8.5587    3.5737 H   0  0  0  0  0  0  0  0  0  0  0  0
    8.1523    8.2884    2.3031 H   0  0  0  0  0  0  0  0  0  0  0  0
    7.3796    7.0722    3.0012 H   0  0  0  0  0  0  0  0  0  0  0  0
    6.1270    9.6916    1.2997 C   0  0  0  0  0  0  0  0  0  0  0  0
    5.4440    9.7825    0.6031 H   0  0  0  0  0  0  0  0  0  0  0  0
    7.0069    9.9026    0.9248 H   0  0  0  0  0  0  0  0  0  0  0  0
    5.9282   10.3105    2.0329 H   0  0  0  0  0  0  0  0  0  0  0  0
    5.1972   11.8546    4.3917 C   0  0  0  0  0  0  0  0  0  0  0  0
    5.2311   13.2415    4.1928 C   0  0  0  0  0  0  0  0  0  0  0  0
    4.4196   13.7315    4.1206 H   0  0  0  0  0  0  0  0  0  0  0  0
    6.4538   13.9032    4.1021 C   0  0  0  0  0  0  0  0  0  0  0  0
    6.4758   14.8426    3.9549 H   0  0  0  0  0  0  0  0  0  0  0  0
    7.6436   13.1902    4.2274 C   0  0  0  0  0  0  0  0  0  0  0  0
    8.4766   13.6389    4.1334 H   0  0  0  0  0  0  0  0  0  0  0  0
    7.6162   11.8301    4.4879 C   0  0  0  0  0  0  0  0  0  0  0  0
    8.4286   11.3516    4.6095 H   0  0  0  0  0  0  0  0  0  0  0  0
    6.3958   11.1651    4.5711 C   0  0  0  0  0  0  0  0  0  0  0  0
    6.3792   10.2329    4.7526 H   0  0  0  0  0  0  0  0  0  0  0  0
    2.7446   11.9156    5.6879 C   0  0  0  0  0  0  0  0  0  0  0  0
    3.2590   11.8701    6.9882 C   0  0  0  0  0  0  0  0  0  0  0  0
    4.0468   11.3691    7.1603 H   0  0  0  0  0  0  0  0  0  0  0  0
    2.6405   12.5445    8.0309 C   0  0  0  0  0  0  0  0  0  0  0  0
    2.9968   12.4952    8.9102 H   0  0  0  0  0  0  0  0  0  0  0  0
    1.4959   13.2935    7.7824 C   0  0  0  0  0  0  0  0  0  0  0  0
    1.0582   13.7465    8.4936 H   0  0  0  0  0  0  0  0  0  0  0  0
    0.9970   13.3741    6.4940 C   0  0  0  0  0  0  0  0  0  0  0  0
    0.2258   13.9017    6.3208 H   0  0  0  0  0  0  0  0  0  0  0  0
    1.6128   12.6902    5.4484 C   0  0  0  0  0  0  0  0  0  0  0  0
    1.2595   12.7530    4.5693 H   0  0  0  0  0  0  0  0  0  0  0  0
    2.7979   11.3783    2.8611 C   0  0  0  0  0  0  0  0  0  0  0  0
    1.4864   10.9264    2.6636 C   0  0  0  0  0  0  0  0  0  0  0  0
    1.0269   10.4957    3.3759 H   0  0  0  0  0  0  0  0  0  0  0  0
    0.8466   11.0968    1.4401 C   0  0  0  0  0  0  0  0  0  0  0  0
   -0.0488   10.8010    1.3269 H   0  0  0  0  0  0  0  0  0  0  0  0
    1.5186   11.6999    0.3837 C   0  0  0  0  0  0  0  0  0  0  0  0
    1.0949   11.7920   -0.4616 H   0  0  0  0  0  0  0  0  0  0  0  0
    2.8080   12.1656    0.5679 C   0  0  0  0  0  0  0  0  0  0  0  0
    3.2633   12.5903   -0.1496 H   0  0  0  0  0  0  0  0  0  0  0  0
    3.4446   12.0170    1.7999 C   0  0  0  0  0  0  0  0  0  0  0  0
    4.3254   12.3526    1.9187 H   0  0  0  0  0  0  0  0  0  0  0  0
    4.2773    6.6167    5.0840 B   0  0  0  0  0  0  0  0  0  0  0  0
    2.7709    5.7929    4.5072 B   0  0  0  0  0  0  0  0  0  0  0  0
    1.9255    6.3915    4.0804 H   0  0  0  0  0  0  0  0  0  0  0  0
    5.6062    5.4353    4.8406 B   0  0  0  0  0  0  0  0  0  0  0  0
    6.6483    5.7834    4.6240 H   0  0  0  0  0  0  0  0  0  0  0  0
    4.8894    5.5902    6.4250 B   0  0  0  0  0  0  0  0  0  0  0  0
    5.4445    6.0487    7.2826 H   0  0  0  0  0  0  0  0  0  0  0  0
    3.1708    4.2018    3.8504 B   0  0  0  0  0  0  0  0  0  0  0  0
    2.6208    3.7538    2.9835 H   0  0  0  0  0  0  0  0  0  0  0  0
    4.9233    3.9881    4.0614 B   0  0  0  0  0  0  0  0  0  0  0  0
    5.5184    3.3935    3.3212 H   0  0  0  0  0  0  0  0  0  0  0  0
    5.2926    3.9813    5.8024 B   0  0  0  0  0  0  0  0  0  0  0  0
    6.1240    3.3659    6.2323 H   0  0  0  0  0  0  0  0  0  0  0  0
    3.7630    4.2333    6.6767 B   0  0  0  0  0  0  0  0  0  0  0  0
    3.5768    3.8089    7.6959 H   0  0  0  0  0  0  0  0  0  0  0  0
    2.4481    4.3587    5.4817 B   0  0  0  0  0  0  0  0  0  0  0  0
    1.4077    4.0166    5.7160 H   0  0  0  0  0  0  0  0  0  0  0  0
    3.7829    3.2230    5.2031 B   0  0  0  0  0  0  0  0  0  0  0  0
    3.6241    2.1147    5.2384 H   0  0  0  0  0  0  0  0  0  0  0  0
  1  2  1  0  0  0  0
  2  5  1  0  0  0  0
  3  1  1  0  0  0  0
  4  1  1  0  0  0  0
  5  7  1  0  0  0  0
  6  3  1  0  0  0  0
  7 82  1  0  0  0  0
  8  6  1  0  0  0  0
  9  2  1  0  0  0  0
 10  9  1  0  0  0  0
 11  9  1  0  0  0  0
 12 11  1  0  0  0  0
 13 11  1  0  0  0  0
 14 11  1  0  0  0  0
 15  9  1  0  0  0  0
 16 15  1  0  0  0  0
 17 15  1  0  0  0  0
 18 15  1  0  0  0  0
 19  2  1  0  0  0  0
 20 19  1  0  0  0  0
 21 19  1  0  0  0  0
 22 21  1  0  0  0  0
 23 21  1  0  0  0  0
 24 21  1  0  0  0  0
 25 19  1  0  0  0  0
 26 25  1  0  0  0  0
 27 25  1  0  0  0  0
 28 25  1  0  0  0  0
 29  3  1  0  0  0  0
 30 29  1  0  0  0  0
 31 29  1  0  0  0  0
 32 31  1  0  0  0  0
 33 31  1  0  0  0  0
 34 31  1  0  0  0  0
 35 29  1  0  0  0  0
 36 35  1  0  0  0  0
 37 35  1  0  0  0  0
 38 35  1  0  0  0  0
 39  3  1  0  0  0  0
 40 39  1  0  0  0  0
 41 39  1  0  0  0  0
 42 41  1  0  0  0  0
 43 41  1  0  0  0  0
 44 41  1  0  0  0  0
 45 39  1  0  0  0  0
 46 45  1  0  0  0  0
 47 45  1  0  0  0  0
 48 45  1  0  0  0  0
 49  4  1  0  0  0  0
 50 49  4  0  0  0  0
 51 50  1  0  0  0  0
 52 50  4  0  0  0  0
 53 52  1  0  0  0  0
 54 52  4  0  0  0  0
 55 54  1  0  0  0  0
 56 54  4  0  0  0  0
 57 56  1  0  0  0  0
 58 49  4  0  0  0  0
 59 58  1  0  0  0  0
 60  4  1  0  0  0  0
 61 60  4  0  0  0  0
 62 61  1  0  0  0  0
 63 61  4  0  0  0  0
 64 63  1  0  0  0  0
 65 63  4  0  0  0  0
 66 65  1  0  0  0  0
 67 65  4  0  0  0  0
 68 67  1  0  0  0  0
 69 60  4  0  0  0  0
 70 69  1  0  0  0  0
 71  4  1  0  0  0  0
 72 71  4  0  0  0  0
 73 72  1  0  0  0  0
 74 72  4  0  0  0  0
 75 74  1  0  0  0  0
 76 74  4  0  0  0  0
 77 76  1  0  0  0  0
 78 76  4  0  0  0  0
 79 78  1  0  0  0  0
 80 71  4  0  0  0  0
 81 80  1  0  0  0  0
 82  1  1  0  0  0  0
 83  7  1  0  0  0  0
 84 83  1  0  0  0  0
 85  8  1  0  0  0  0
 86 85  1  0  0  0  0
 87  7  1  0  0  0  0
 88 87  1  0  0  0  0
 89  8  1  0  0  0  0
 90 89  1  0  0  0  0
 91  8  1  0  0  0  0
 92 91  1  0  0  0  0
 93 85  1  0  0  0  0
 94 93  1  0  0  0  0
 95  7  1  0  0  0  0
 96 95  1  0  0  0  0
 97  7  1  0  0  0  0
 98 97  1  0  0  0  0
 99 89  1  0  0  0  0
100 99  1  0  0  0  0
  8 82  1  0  0  0  0
  8 83  1  0  0  0  0
 56 58  4  0  0  0  0
 67 69  4  0  0  0  0
 78 80  4  0  0  0  0
 82 83  1  0  0  0  0
 82 85  1  0  0  0  0
 82 87  1  0  0  0  0
 83 89  1  0  0  0  0
 83 97  1  0  0  0  0
 85 87  1  0  0  0  0
 85 91  1  0  0  0  0
 87 93  1  0  0  0  0
 87 95  1  0  0  0  0
 89 91  1  0  0  0  0
 89 97  1  0  0  0  0
 91 93  1  0  0  0  0
 91 99  1  0  0  0  0
 93 95  1  0  0  0  0
 93 99  1  0  0  0  0
 95 97  1  0  0  0  0
 95 99  1  0  0  0  0
 97 99  1  0  0  0  0
M  END
$$$$
GAKXOI

From CSD data. Using bond type 'Any'. No disordered atoms. Largest molecule.
 78 99  0  0  0  0  0  0  0  0999 V2000
    9.2314    3.6060    0.5272 I   0  0  0  0  0  0  0  0  0  0  0  0
    7.1108    3.6060    2.3149 Rh  0  0  0  0  0  0  0  0  0  0  0  0
    7.0326    1.3074    2.6540 P   0  0  0  0  0  0  0  0  0  0  0  0
    6.9818    1.1310    4.3190 O   0  0  0  0  0  0  0  0  0  0  0  0
    6.6821    2.2822    5.0369 C   0  0  0  0  0  0  0  0  0  0  0  0
    5.5093    3.6060    1.0710 C   0  0  0  0  0  0  0  0  0  0  0  0
    5.7229    3.6060   -0.3176 C   0  0  0  0  0  0  0  0  0  0  0  0
    6.6122    3.6060   -0.6531 H   0  0  0  0  0  0  0  0  0  0  0  0
    4.6562    3.6060   -1.2077 C   0  0  0  0  0  0  0  0  0  0  0  0
    4.8250    3.6060   -2.1422 H   0  0  0  0  0  0  0  0  0  0  0  0
    3.3488    3.6060   -0.7477 C   0  0  0  0  0  0  0  0  0  0  0  0
    2.6204    3.6060   -1.3575 H   0  0  0  0  0  0  0  0  0  0  0  0
    3.1249    3.6060    0.6192 C   0  0  0  0  0  0  0  0  0  0  0  0
    2.2328    3.6060    0.9476 H   0  0  0  0  0  0  0  0  0  0  0  0
    4.1870    3.6060    1.5217 C   0  0  0  0  0  0  0  0  0  0  0  0
    4.0101    3.6060    2.4556 H   0  0  0  0  0  0  0  0  0  0  0  0
    8.5373    0.3228    2.2940 C   0  0  0  0  0  0  0  0  0  0  0  0
    8.7357    0.4313    1.3199 H   0  0  0  0  0  0  0  0  0  0  0  0
    9.7328    0.9073    3.0693 C   0  0  0  0  0  0  0  0  0  0  0  0
    9.8041    1.8665    2.8843 H   0  0  0  0  0  0  0  0  0  0  0  0
   10.5560    0.4587    2.7865 H   0  0  0  0  0  0  0  0  0  0  0  0
    9.5987    0.7688    4.0299 H   0  0  0  0  0  0  0  0  0  0  0  0
    8.4283   -1.1800    2.5681 C   0  0  0  0  0  0  0  0  0  0  0  0
    8.1394   -1.3227    3.4934 H   0  0  0  0  0  0  0  0  0  0  0  0
    9.3022   -1.6011    2.4292 H   0  0  0  0  0  0  0  0  0  0  0  0
    7.7733   -1.5766    1.9567 H   0  0  0  0  0  0  0  0  0  0  0  0
    5.5303    0.4138    2.1005 C   0  0  0  0  0  0  0  0  0  0  0  0
    4.7770    1.0659    2.1861 H   0  0  0  0  0  0  0  0  0  0  0  0
    5.1223   -0.8095    2.9358 C   0  0  0  0  0  0  0  0  0  0  0  0
    5.7592   -1.5391    2.7790 H   0  0  0  0  0  0  0  0  0  0  0  0
    4.2237   -1.0991    2.6737 H   0  0  0  0  0  0  0  0  0  0  0  0
    5.1248   -0.5712    3.8870 H   0  0  0  0  0  0  0  0  0  0  0  0
    5.6414    0.0966    0.6018 C   0  0  0  0  0  0  0  0  0  0  0  0
    6.0077    0.8741    0.1304 H   0  0  0  0  0  0  0  0  0  0  0  0
    4.7538   -0.1125    0.2457 H   0  0  0  0  0  0  0  0  0  0  0  0
    6.2346   -0.6736    0.4738 H   0  0  0  0  0  0  0  0  0  0  0  0
    6.1089    3.6060    4.0803 B   0  0  0  0  0  0  0  0  0  0  0  0
    7.7188    3.6060    4.8238 B   0  0  0  0  0  0  0  0  0  0  0  0
    8.4342    3.6060    4.0738 H   0  0  0  0  0  0  0  0  0  0  0  0
    5.0274    2.7250    5.1849 B   0  0  0  0  0  0  0  0  0  0  0  0
    4.2867    2.0713    4.7670 H   0  0  0  0  0  0  0  0  0  0  0  0
    4.9694    3.6060    6.7278 B   0  0  0  0  0  0  0  0  0  0  0  0
    4.0846    3.6060    7.3454 H   0  0  0  0  0  0  0  0  0  0  0  0
    6.0163    2.1662    6.5816 B   0  0  0  0  0  0  0  0  0  0  0  0
    5.8470    1.1712    6.9744 H   0  0  0  0  0  0  0  0  0  0  0  0
    7.7097    2.7155    6.3495 B   0  0  0  0  0  0  0  0  0  0  0  0
    8.5386    2.0598    6.5720 H   0  0  0  0  0  0  0  0  0  0  0  0
    6.6235    3.6060    7.4395 B   0  0  0  0  0  0  0  0  0  0  0  0
    6.8242    3.6060    8.5362 H   0  0  0  0  0  0  0  0  0  0  0  0
    7.0326    5.9046    2.6540 P   0  0  0  0  0  0  0  0  0  0  0  0
    6.9818    6.0811    4.3190 O   0  0  0  0  0  0  0  0  0  0  0  0
    6.6821    4.9299    5.0369 C   0  0  0  0  0  0  0  0  0  0  0  0
    8.5373    6.8892    2.2940 C   0  0  0  0  0  0  0  0  0  0  0  0
    8.7357    6.7808    1.3199 H   0  0  0  0  0  0  0  0  0  0  0  0
    9.7328    6.3048    3.0693 C   0  0  0  0  0  0  0  0  0  0  0  0
    9.8041    5.3456    2.8843 H   0  0  0  0  0  0  0  0  0  0  0  0
   10.5560    6.7534    2.7865 H   0  0  0  0  0  0  0  0  0  0  0  0
    9.5987    6.4432    4.0299 H   0  0  0  0  0  0  0  0  0  0  0  0
    8.4283    8.3921    2.5681 C   0  0  0  0  0  0  0  0  0  0  0  0
    8.1394    8.5347    3.4934 H   0  0  0  0  0  0  0  0  0  0  0  0
    9.3022    8.8131    2.4292 H   0  0  0  0  0  0  0  0  0  0  0  0
    7.7733    8.7886    1.9567 H   0  0  0  0  0  0  0  0  0  0  0  0
    5.5303    6.7982    2.1005 C   0  0  0  0  0  0  0  0  0  0  0  0
    4.7770    6.1461    2.1861 H   0  0  0  0  0  0  0  0  0  0  0  0
    5.1223    8.0215    2.9358 C   0  0  0  0  0  0  0  0  0  0  0  0
    5.7592    8.7511    2.7790 H   0  0  0  0  0  0  0  0  0  0  0  0
    4.2237    8.3112    2.6737 H   0  0  0  0  0  0  0  0  0  0  0  0
    5.1248    7.7832    3.8870 H   0  0  0  0  0  0  0  0  0  0  0  0
    5.6414    7.1154    0.6018 C   0  0  0  0  0  0  0  0  0  0  0  0
    6.0077    6.3379    0.1304 H   0  0  0  0  0  0  0  0  0  0  0  0
    4.7538    7.3246    0.2457 H   0  0  0  0  0  0  0  0  0  0  0  0
    6.2346    7.8857    0.4738 H   0  0  0  0  0  0  0  0  0  0  0  0
    5.0274    4.4870    5.1849 B   0  0  0  0  0  0  0  0  0  0  0  0
    4.2867    5.1407    4.7670 H   0  0  0  0  0  0  0  0  0  0  0  0
    6.0163    5.0458    6.5816 B   0  0  0  0  0  0  0  0  0  0  0  0
    5.8470    6.0408    6.9744 H   0  0  0  0  0  0  0  0  0  0  0  0
    7.7097    4.4966    6.3495 B   0  0  0  0  0  0  0  0  0  0  0  0
    8.5386    5.1523    6.5720 H   0  0  0  0  0  0  0  0  0  0  0  0
  1  2  1  0  0  0  0
  2  3  1  0  0  0  0
  3  4  1  0  0  0  0
  4  5  1  0  0  0  0
  5 37  1  0  0  0  0
  6  2  1  0  0  0  0
  7  6  4  0  0  0  0
  8  7  1  0  0  0  0
  9  7  4  0  0  0  0
 10  9  1  0  0  0  0
 11  9  4  0  0  0  0
 12 11  1  0  0  0  0
 13 11  4  0  0  0  0
 14 13  1  0  0  0  0
 15  6  4  0  0  0  0
 16 15  1  0  0  0  0
 17  3  1  0  0  0  0
 18 17  1  0  0  0  0
 19 17  1  0  0  0  0
 20 19  1  0  0  0  0
 21 19  1  0  0  0  0
 22 19  1  0  0  0  0
 23 17  1  0  0  0  0
 24 23  1  0  0  0  0
 25 23  1  0  0  0  0
 26 23  1  0  0  0  0
 27  3  1  0  0  0  0
 28 27  1  0  0  0  0
 29 27  1  0  0  0  0
 30 29  1  0  0  0  0
 31 29  1  0  0  0  0
 32 29  1  0  0  0  0
 33 27  1  0  0  0  0
 34 33  1  0  0  0  0
 35 33  1  0  0  0  0
 36 33  1  0  0  0  0
 37  2  1  0  0  0  0
 38  5  1  0  0  0  0
 39 38  1  0  0  0  0
 40  5  1  0  0  0  0
 41 40  1  0  0  0  0
 42 40  1  0  0  0  0
 43 42  1  0  0  0  0
 44  5  1  0  0  0  0
 45 44  1  0  0  0  0
 46  5  1  0  0  0  0
 47 46  1  0  0  0  0
 48 42  1  0  0  0  0
 49 48  1  0  0  0  0
 50  2  1  0  0  0  0
 51 50  1  0  0  0  0
 52 37  1  0  0  0  0
 53 50  1  0  0  0  0
 54 53  1  0  0  0  0
 55 53  1  0  0  0  0
 56 55  1  0  0  0  0
 57 55  1  0  0  0  0
 58 55  1  0  0  0  0
 59 53  1  0  0  0  0
 60 59  1  0  0  0  0
 61 59  1  0  0  0  0
 62 59  1  0  0  0  0
 63 50  1  0  0  0  0
 64 63  1  0  0  0  0
 65 63  1  0  0  0  0
 66 65  1  0  0  0  0
 67 65  1  0  0  0  0
 68 65  1  0  0  0  0
 69 63  1  0  0  0  0
 70 69  1  0  0  0  0
 71 69  1  0  0  0  0
 72 69  1  0  0  0  0
 73 37  1  0  0  0  0
 74 73  1  0  0  0  0
 75 42  1  0  0  0  0
 76 75  1  0  0  0  0
 77 38  1  0  0  0  0
 78 77  1  0  0  0  0
 13 15  4  0  0  0  0
 37 38  1  0  0  0  0
 37 40  1  0  0  0  0
 38 46  1  0  0  0  0
 38 52  1  0  0  0  0
 40 44  1  0  0  0  0
 40 73  1  0  0  0  0
 42 44  1  0  0  0  0
 42 73  1  0  0  0  0
 44 46  1  0  0  0  0
 44 48  1  0  0  0  0
 46 48  1  0  0  0  0
 46 77  1  0  0  0  0
 48 75  1  0  0  0  0
 48 77  1  0  0  0  0
 51 52  1  0  0  0  0
 52 73  1  0  0  0  0
 52 75  1  0  0  0  0
 52 77  1  0  0  0  0
 73 75  1  0  0  0  0
 75 77  1  0  0  0  0
M  END
$$$$
GAKXUO

From CSD data. Using bond type 'Any'. No disordered atoms. Largest molecule.
 84105  0  0  0  0  0  0  0  0999 V2000
    9.8437   10.0966    5.4345 I   0  0  0  0  0  0  0  0  0  0  0  0
    7.4720    9.1278    4.3184 Rh  0  0  0  0  0  0  0  0  0  0  0  0
    7.7946    7.7955    4.6446 H   0  0  0  0  0  0  0  0  0  0  0  0
    8.3005    8.4906    2.2711 P   0  0  0  0  0  0  0  0  0  0  0  0
    6.0188    8.9008    6.1052 P   0  0  0  0  0  0  0  0  0  0  0  0
    7.1685    7.4714    1.5005 O   0  0  0  0  0  0  0  0  0  0  0  0
    4.6701    7.9742    5.6045 O   0  0  0  0  0  0  0  0  0  0  0  0
    7.0068   11.2012    3.8957 N   0  0  0  0  0  0  0  0  0  0  0  0
    5.8648    7.5684    1.9941 C   0  0  0  0  0  0  0  0  0  0  0  0
    4.5090    7.8460    4.2220 C   0  0  0  0  0  0  0  0  0  0  0  0
    6.3984    5.5511    4.0900 C   0  0  0  0  0  0  0  0  0  0  0  0
    7.2611    4.7888    3.2910 C   0  0  0  0  0  0  0  0  0  0  0  0
    7.4034    5.0409    2.3858 H   0  0  0  0  0  0  0  0  0  0  0  0
    7.9132    3.6702    3.7954 C   0  0  0  0  0  0  0  0  0  0  0  0
    8.5001    3.1735    3.2367 H   0  0  0  0  0  0  0  0  0  0  0  0
    7.7129    3.2765    5.1045 C   0  0  0  0  0  0  0  0  0  0  0  0
    8.1602    2.5139    5.4496 H   0  0  0  0  0  0  0  0  0  0  0  0
    6.8509    4.0069    5.9095 C   0  0  0  0  0  0  0  0  0  0  0  0
    6.7112    3.7441    6.8116 H   0  0  0  0  0  0  0  0  0  0  0  0
    6.1910    5.1166    5.4054 C   0  0  0  0  0  0  0  0  0  0  0  0
    5.5860    5.5915    5.9623 H   0  0  0  0  0  0  0  0  0  0  0  0
    6.7327   12.2747    3.8323 C   0  0  0  0  0  0  0  0  0  0  0  0
    6.3386   13.6926    3.8008 C   0  0  0  0  0  0  0  0  0  0  0  0
    5.4990   13.7883    3.3040 H   0  0  0  0  0  0  0  0  0  0  0  0
    7.0402   14.2166    3.3607 H   0  0  0  0  0  0  0  0  0  0  0  0
    6.2143   14.0178    4.7166 H   0  0  0  0  0  0  0  0  0  0  0  0
    9.8280    7.4722    2.1153 C   0  0  0  0  0  0  0  0  0  0  0  0
   10.5742    8.1157    1.9390 H   0  0  0  0  0  0  0  0  0  0  0  0
   10.1878    6.7517    3.4191 C   0  0  0  0  0  0  0  0  0  0  0  0
   10.2262    7.4011    4.1519 H   0  0  0  0  0  0  0  0  0  0  0  0
   11.0618    6.3173    3.3224 H   0  0  0  0  0  0  0  0  0  0  0  0
    9.5068    6.0759    3.6178 H   0  0  0  0  0  0  0  0  0  0  0  0
    9.8192    6.4941    0.9298 C   0  0  0  0  0  0  0  0  0  0  0  0
    9.1595    5.7876    1.0942 H   0  0  0  0  0  0  0  0  0  0  0  0
   10.7086    6.0949    0.8295 H   0  0  0  0  0  0  0  0  0  0  0  0
    9.5841    6.9772    0.1102 H   0  0  0  0  0  0  0  0  0  0  0  0
    8.4872    9.8515    1.0380 C   0  0  0  0  0  0  0  0  0  0  0  0
    7.6982   10.4517    1.1707 H   0  0  0  0  0  0  0  0  0  0  0  0
    8.4510    9.4297   -0.4300 C   0  0  0  0  0  0  0  0  0  0  0  0
    9.2671    8.9334   -0.6473 H   0  0  0  0  0  0  0  0  0  0  0  0
    8.3922   10.2263   -0.9978 H   0  0  0  0  0  0  0  0  0  0  0  0
    7.6703    8.8595   -0.5861 H   0  0  0  0  0  0  0  0  0  0  0  0
    9.7191   10.7001    1.3628 C   0  0  0  0  0  0  0  0  0  0  0  0
    9.7393   10.8918    2.3231 H   0  0  0  0  0  0  0  0  0  0  0  0
    9.6768   11.5421    0.8631 H   0  0  0  0  0  0  0  0  0  0  0  0
   10.5290   10.2099    1.1095 H   0  0  0  0  0  0  0  0  0  0  0  0
    6.5254    7.8644    7.5304 C   0  0  0  0  0  0  0  0  0  0  0  0
    6.9043    7.0317    7.1269 H   0  0  0  0  0  0  0  0  0  0  0  0
    5.3934    7.3860    8.4465 C   0  0  0  0  0  0  0  0  0  0  0  0
    5.1160    8.1189    9.0337 H   0  0  0  0  0  0  0  0  0  0  0  0
    5.7090    6.6337    8.9893 H   0  0  0  0  0  0  0  0  0  0  0  0
    4.6318    7.0976    7.9013 H   0  0  0  0  0  0  0  0  0  0  0  0
    7.6716    8.4752    8.3405 C   0  0  0  0  0  0  0  0  0  0  0  0
    8.3315    8.8653    7.7299 H   0  0  0  0  0  0  0  0  0  0  0  0
    8.0982    7.7774    8.8807 H   0  0  0  0  0  0  0  0  0  0  0  0
    7.3186    9.1748    8.9297 H   0  0  0  0  0  0  0  0  0  0  0  0
    5.1818   10.4389    6.6793 C   0  0  0  0  0  0  0  0  0  0  0  0
    4.9108   10.9189    5.8444 H   0  0  0  0  0  0  0  0  0  0  0  0
    3.8957   10.2560    7.4728 C   0  0  0  0  0  0  0  0  0  0  0  0
    3.3079    9.6281    7.0029 H   0  0  0  0  0  0  0  0  0  0  0  0
    3.4432   11.1199    7.5661 H   0  0  0  0  0  0  0  0  0  0  0  0
    4.1082    9.9017    8.3619 H   0  0  0  0  0  0  0  0  0  0  0  0
    6.1913   11.3634    7.3682 C   0  0  0  0  0  0  0  0  0  0  0  0
    6.3660   11.0389    8.2762 H   0  0  0  0  0  0  0  0  0  0  0  0
    5.8249   12.2721    7.4115 H   0  0  0  0  0  0  0  0  0  0  0  0
    7.0274   11.3731    6.8575 H   0  0  0  0  0  0  0  0  0  0  0  0
    5.8176    8.5001    3.3940 B   0  0  0  0  0  0  0  0  0  0  0  0
    5.5268    6.6830    3.4399 B   0  0  0  0  0  0  0  0  0  0  0  0
    4.2269    9.3128    3.3530 B   0  0  0  0  0  0  0  0  0  0  0  0
    4.1127   10.2257    3.8978 H   0  0  0  0  0  0  0  0  0  0  0  0
    5.1256    9.1224    1.8741 B   0  0  0  0  0  0  0  0  0  0  0  0
    5.6427    9.8629    1.3666 H   0  0  0  0  0  0  0  0  0  0  0  0
    2.9763    8.0588    3.4279 B   0  0  0  0  0  0  0  0  0  0  0  0
    2.1409    8.1982    3.9805 H   0  0  0  0  0  0  0  0  0  0  0  0
    3.3906    8.8419    1.8756 B   0  0  0  0  0  0  0  0  0  0  0  0
    2.7277    9.5306    1.3896 H   0  0  0  0  0  0  0  0  0  0  0  0
    4.4752    7.7501    0.9575 B   0  0  0  0  0  0  0  0  0  0  0  0
    4.5980    7.6775   -0.1393 H   0  0  0  0  0  0  0  0  0  0  0  0
    4.7022    6.2803    1.9339 B   0  0  0  0  0  0  0  0  0  0  0  0
    4.9323    5.3572    1.4707 H   0  0  0  0  0  0  0  0  0  0  0  0
    3.7748    6.4723    3.4644 B   0  0  0  0  0  0  0  0  0  0  0  0
    3.3985    5.6743    4.0524 H   0  0  0  0  0  0  0  0  0  0  0  0
    3.1245    7.0929    1.9307 B   0  0  0  0  0  0  0  0  0  0  0  0
    2.2696    6.6182    1.4845 H   0  0  0  0  0  0  0  0  0  0  0  0
  1  2  1  0  0  0  0
  2  3  1  0  0  0  0
  4  2  1  0  0  0  0
  5  2  1  0  0  0  0
  6  4  1  0  0  0  0
  7  5  1  0  0  0  0
  8  2  1  0  0  0  0
  9  6  1  0  0  0  0
 10  7  1  0  0  0  0
 11 12  4  0  0  0  0
 12 13  1  0  0  0  0
 14 12  4  0  0  0  0
 15 14  1  0  0  0  0
 16 14  4  0  0  0  0
 17 16  1  0  0  0  0
 18 16  4  0  0  0  0
 19 18  1  0  0  0  0
 20 11  4  0  0  0  0
 21 20  1  0  0  0  0
 22  8  3  0  0  0  0
 23 22  1  0  0  0  0
 24 23  1  0  0  0  0
 25 23  1  0  0  0  0
 26 23  1  0  0  0  0
 27  4  1  0  0  0  0
 28 27  1  0  0  0  0
 29 27  1  0  0  0  0
 30 29  1  0  0  0  0
 31 29  1  0  0  0  0
 32 29  1  0  0  0  0
 33 27  1  0  0  0  0
 34 33  1  0  0  0  0
 35 33  1  0  0  0  0
 36 33  1  0  0  0  0
 37  4  1  0  0  0  0
 38 37  1  0  0  0  0
 39 37  1  0  0  0  0
 40 39  1  0  0  0  0
 41 39  1  0  0  0  0
 42 39  1  0  0  0  0
 43 37  1  0  0  0  0
 44 43  1  0  0  0  0
 45 43  1  0  0  0  0
 46 43  1  0  0  0  0
 47  5  1  0  0  0  0
 48 47  1  0  0  0  0
 49 47  1  0  0  0  0
 50 49  1  0  0  0  0
 51 49  1  0  0  0  0
 52 49  1  0  0  0  0
 53 47  1  0  0  0  0
 54 53  1  0  0  0  0
 55 53  1  0  0  0  0
 56 53  1  0  0  0  0
 57  5  1  0  0  0  0
 58 57  1  0  0  0  0
 59 57  1  0  0  0  0
 60 59  1  0  0  0  0
 61 59  1  0  0  0  0
 62 59  1  0  0  0  0
 63 57  1  0  0  0  0
 64 63  1  0  0  0  0
 65 63  1  0  0  0  0
 66 63  1  0  0  0  0
 67  2  1  0  0  0  0
 68  9  1  0  0  0  0
 69 10  1  0  0  0  0
 70 69  1  0  0  0  0
 71  9  1  0  0  0  0
 72 71  1  0  0  0  0
 73 10  1  0  0  0  0
 74 73  1  0  0  0  0
 75 69  1  0  0  0  0
 76 75  1  0  0  0  0
 77  9  1  0  0  0  0
 78 77  1  0  0  0  0
 79  9  1  0  0  0  0
 80 79  1  0  0  0  0
 81 10  1  0  0  0  0
 82 81  1  0  0  0  0
 83 73  1  0  0  0  0
 84 83  1  0  0  0  0
  9 67  1  0  0  0  0
 10 67  1  0  0  0  0
 10 68  1  0  0  0  0
 11 68  1  0  0  0  0
 18 20  4  0  0  0  0
 67 68  1  0  0  0  0
 67 69  1  0  0  0  0
 67 71  1  0  0  0  0
 68 79  1  0  0  0  0
 68 81  1  0  0  0  0
 69 71  1  0  0  0  0
 69 73  1  0  0  0  0
 71 75  1  0  0  0  0
 71 77  1  0  0  0  0
 73 75  1  0  0  0  0
 73 81  1  0  0  0  0
 75 77  1  0  0  0  0
 75 83  1  0  0  0  0
 77 79  1  0  0  0  0
 77 83  1  0  0  0  0
 79 81  1  0  0  0  0
 79 83  1  0  0  0  0
 81 83  1  0  0  0  0
M  END
$$$$
GAYMEC

From CSD data. Using bond type 'Any'. No disordered atoms. Largest molecule.
 96 98  0  0  0  0  0  0  0  0999 V2000
    7.7778    9.3254    5.8302 P   0  0  0  0  0  0  0  0  0  0  0  0
    5.9562    6.7806   10.9103 P   0  0  0  0  0  0  0  0  0  0  0  0
    8.4429    9.6185   11.2413 O   0  0  0  0  0  0  0  0  0  0  0  0
    6.1452    7.9288   16.2550 O   0  0  0  0  0  0  0  0  0  0  0  0
    8.1272   11.1539    5.4802 C   0  0  0  0  0  0  0  0  0  0  0  0
    7.4337   12.1276    6.4380 C   0  0  0  0  0  0  0  0  0  0  0  0
    6.4642   12.0837    6.3047 H   0  0  0  0  0  0  0  0  0  0  0  0
    7.7462   13.0401    6.2597 H   0  0  0  0  0  0  0  0  0  0  0  0
    7.6468   11.8845    7.3636 H   0  0  0  0  0  0  0  0  0  0  0  0
    7.7738   11.5388    4.0402 C   0  0  0  0  0  0  0  0  0  0  0  0
    8.1835   10.9002    3.4201 H   0  0  0  0  0  0  0  0  0  0  0  0
    8.1106   12.4396    3.8515 H   0  0  0  0  0  0  0  0  0  0  0  0
    6.7999   11.5242    3.9271 H   0  0  0  0  0  0  0  0  0  0  0  0
    9.6400   11.3059    5.6411 C   0  0  0  0  0  0  0  0  0  0  0  0
    9.9061   11.0013    6.5336 H   0  0  0  0  0  0  0  0  0  0  0  0
    9.8873   12.2477    5.5299 H   0  0  0  0  0  0  0  0  0  0  0  0
   10.0971   10.7669    4.9616 H   0  0  0  0  0  0  0  0  0  0  0  0
    6.0026    8.8913    5.3400 C   0  0  0  0  0  0  0  0  0  0  0  0
    4.9536    9.8998    5.7787 C   0  0  0  0  0  0  0  0  0  0  0  0
    5.0419   10.0653    6.7401 H   0  0  0  0  0  0  0  0  0  0  0  0
    4.0592    9.5439    5.5892 H   0  0  0  0  0  0  0  0  0  0  0  0
    5.0817   10.7391    5.2887 H   0  0  0  0  0  0  0  0  0  0  0  0
    5.9110    8.6607    3.8288 C   0  0  0  0  0  0  0  0  0  0  0  0
    6.0203    9.5146    3.3609 H   0  0  0  0  0  0  0  0  0  0  0  0
    5.0375    8.2770    3.6082 H   0  0  0  0  0  0  0  0  0  0  0  0
    6.6188    8.0426    3.5489 H   0  0  0  0  0  0  0  0  0  0  0  0
    5.7023    7.5578    6.0375 C   0  0  0  0  0  0  0  0  0  0  0  0
    6.3957    6.9060    5.8059 H   0  0  0  0  0  0  0  0  0  0  0  0
    4.8288    7.2253    5.7425 H   0  0  0  0  0  0  0  0  0  0  0  0
    5.6912    7.6926    7.0079 H   0  0  0  0  0  0  0  0  0  0  0  0
    7.8423   10.7069   11.9347 C   0  0  0  0  0  0  0  0  0  0  0  0
    8.4562   11.4832   11.9245 H   0  0  0  0  0  0  0  0  0  0  0  0
    7.6844   10.4506   12.8772 H   0  0  0  0  0  0  0  0  0  0  0  0
    6.5702   11.0804   11.3092 C   0  0  0  0  0  0  0  0  0  0  0  0
    6.7336   11.3865   10.3933 H   0  0  0  0  0  0  0  0  0  0  0  0
    6.1517   11.8010   11.8264 H   0  0  0  0  0  0  0  0  0  0  0  0
    5.9739   10.3026   11.2928 H   0  0  0  0  0  0  0  0  0  0  0  0
    9.7294    9.2979   11.7624 C   0  0  0  0  0  0  0  0  0  0  0  0
    9.6521    9.0664   12.7218 H   0  0  0  0  0  0  0  0  0  0  0  0
   10.3279   10.0829   11.6812 H   0  0  0  0  0  0  0  0  0  0  0  0
   10.3014    8.1525   11.0152 C   0  0  0  0  0  0  0  0  0  0  0  0
   10.3180    8.3619   10.0581 H   0  0  0  0  0  0  0  0  0  0  0  0
    9.7504    7.3557   11.1661 H   0  0  0  0  0  0  0  0  0  0  0  0
   11.2146    7.9811   11.3276 H   0  0  0  0  0  0  0  0  0  0  0  0
    4.0702    6.9397   10.8163 C   0  0  0  0  0  0  0  0  0  0  0  0
    3.3226    6.1737   11.9141 C   0  0  0  0  0  0  0  0  0  0  0  0
    3.4971    5.2128   11.8203 H   0  0  0  0  0  0  0  0  0  0  0  0
    2.3609    6.3406   11.8325 H   0  0  0  0  0  0  0  0  0  0  0  0
    3.6329    6.4754   12.7934 H   0  0  0  0  0  0  0  0  0  0  0  0
    3.5093    6.4783    9.4679 C   0  0  0  0  0  0  0  0  0  0  0  0
    3.9830    6.9368    8.7436 H   0  0  0  0  0  0  0  0  0  0  0  0
    2.5541    6.6922    9.4202 H   0  0  0  0  0  0  0  0  0  0  0  0
    3.6318    5.5102    9.3773 H   0  0  0  0  0  0  0  0  0  0  0  0
    3.7908    8.4234   10.9862 C   0  0  0  0  0  0  0  0  0  0  0  0
    4.1254    8.7208   11.8571 H   0  0  0  0  0  0  0  0  0  0  0  0
    2.8257    8.5831   10.9351 H   0  0  0  0  0  0  0  0  0  0  0  0
    4.2425    8.9244   10.2748 H   0  0  0  0  0  0  0  0  0  0  0  0
    6.5073    5.0495   10.3876 C   0  0  0  0  0  0  0  0  0  0  0  0
    5.9121    3.9078   11.1951 C   0  0  0  0  0  0  0  0  0  0  0  0
    6.0722    4.0645   12.1494 H   0  0  0  0  0  0  0  0  0  0  0  0
    6.3317    3.0641   10.9269 H   0  0  0  0  0  0  0  0  0  0  0  0
    4.9470    3.8609   11.0291 H   0  0  0  0  0  0  0  0  0  0  0  0
    6.2875    4.8086    8.8924 C   0  0  0  0  0  0  0  0  0  0  0  0
    5.3313    4.6826    8.7190 H   0  0  0  0  0  0  0  0  0  0  0  0
    6.7778    4.0059    8.6148 H   0  0  0  0  0  0  0  0  0  0  0  0
    6.6122    5.5805    8.3858 H   0  0  0  0  0  0  0  0  0  0  0  0
    8.0245    5.0473   10.6168 C   0  0  0  0  0  0  0  0  0  0  0  0
    8.4397    5.7387   10.0581 H   0  0  0  0  0  0  0  0  0  0  0  0
    8.3900    4.1714   10.3770 H   0  0  0  0  0  0  0  0  0  0  0  0
    8.2122    5.2333   11.5606 H   0  0  0  0  0  0  0  0  0  0  0  0
    5.2076    7.3264   17.1537 C   0  0  0  0  0  0  0  0  0  0  0  0
    4.6974    8.0324   17.6241 H   0  0  0  0  0  0  0  0  0  0  0  0
    5.6923    6.7918   17.8306 H   0  0  0  0  0  0  0  0  0  0  0  0
    4.2756    6.4534   16.3993 C   0  0  0  0  0  0  0  0  0  0  0  0
    3.8328    6.9778   15.7004 H   0  0  0  0  0  0  0  0  0  0  0  0
    3.6020    6.0902   17.0108 H   0  0  0  0  0  0  0  0  0  0  0  0
    4.7769    5.7181   15.9886 H   0  0  0  0  0  0  0  0  0  0  0  0
    6.9125    8.9580   16.8844 C   0  0  0  0  0  0  0  0  0  0  0  0
    7.5265    8.5567   17.5505 H   0  0  0  0  0  0  0  0  0  0  0  0
    6.3085    9.5820   17.3583 H   0  0  0  0  0  0  0  0  0  0  0  0
    7.6954    9.6977   15.8623 C   0  0  0  0  0  0  0  0  0  0  0  0
    7.0848   10.0844   15.1995 H   0  0  0  0  0  0  0  0  0  0  0  0
    8.3138    9.0811   15.4162 H   0  0  0  0  0  0  0  0  0  0  0  0
    8.2034   10.4139   16.2953 H   0  0  0  0  0  0  0  0  0  0  0  0
    7.8401    9.2026    7.7776 B   0  0  0  0  0  0  0  0  0  0  0  0
    6.9236    9.5937    8.2734 H   0  0  0  0  0  0  0  0  0  0  0  0
    8.8228    9.7402    8.1466 H   0  0  0  0  0  0  0  0  0  0  0  0
    7.9284    8.1583    8.0485 H   0  0  0  0  0  0  0  0  0  0  0  0
    6.3582    6.9119   12.8177 B   0  0  0  0  0  0  0  0  0  0  0  0
    5.9850    6.0199   13.4475 H   0  0  0  0  0  0  0  0  0  0  0  0
    5.8304    7.8800   13.2349 H   0  0  0  0  0  0  0  0  0  0  0  0
    7.4757    7.1184   12.9528 H   0  0  0  0  0  0  0  0  0  0  0  0
    7.4172    8.6094    9.8941 Li  0  0  0  0  0  0  0  0  0  0  0  0
    7.0318    6.7918   14.9043 Li  0  0  0  0  0  0  0  0  0  0  0  0
    8.7857    5.3215   16.0518 P   0  0  0  0  0  0  0  0  0  0  0  0
    9.5318    7.8551    4.6827 Li  0  0  0  0  0  0  0  0  0  0  0  0
  1  5  1  0  0  0  0
  2 45  1  0  0  0  0
  3 31  1  0  0  0  0
  4 71  1  0  0  0  0
  5  6  1  0  0  0  0
  6  7  1  0  0  0  0
  8  6  1  0  0  0  0
  9  6  1  0  0  0  0
 10  5  1  0  0  0  0
 11 10  1  0  0  0  0
 12 10  1  0  0  0  0
 13 10  1  0  0  0  0
 14  5  1  0  0  0  0
 15 14  1  0  0  0  0
 16 14  1  0  0  0  0
 17 14  1  0  0  0  0
 18  1  1  0  0  0  0
 19 18  1  0  0  0  0
 20 19  1  0  0  0  0
 21 19  1  0  0  0  0
 22 19  1  0  0  0  0
 23 18  1  0  0  0  0
 24 23  1  0  0  0  0
 25 23  1  0  0  0  0
 26 23  1  0  0  0  0
 27 18  1  0  0  0  0
 28 27  1  0  0  0  0
 29 27  1  0  0  0  0
 30 27  1  0  0  0  0
 31 32  1  0  0  0  0
 33 31  1  0  0  0  0
 34 31  1  0  0  0  0
 35 34  1  0  0  0  0
 36 34  1  0  0  0  0
 37 34  1  0  0  0  0
 38  3  1  0  0  0  0
 39 38  1  0  0  0  0
 40 38  1  0  0  0  0
 41 38  1  0  0  0  0
 42 41  1  0  0  0  0
 43 41  1  0  0  0  0
 44 41  1  0  0  0  0
 45 46  1  0  0  0  0
 46 47  1  0  0  0  0
 48 46  1  0  0  0  0
 49 46  1  0  0  0  0
 50 45  1  0  0  0  0
 51 50  1  0  0  0  0
 52 50  1  0  0  0  0
 53 50  1  0  0  0  0
 54 45  1  0  0  0  0
 55 54  1  0  0  0  0
 56 54  1  0  0  0  0
 57 54  1  0  0  0  0
 58  2  1  0  0  0  0
 59 58  1  0  0  0  0
 60 59  1  0  0  0  0
 61 59  1  0  0  0  0
 62 59  1  0  0  0  0
 63 58  1  0  0  0  0
 64 63  1  0  0  0  0
 65 63  1  0  0  0  0
 66 63  1  0  0  0  0
 67 58  1  0  0  0  0
 68 67  1  0  0  0  0
 69 67  1  0  0  0  0
 70 67  1  0  0  0  0
 71 72  1  0  0  0  0
 73 71  1  0  0  0  0
 74 71  1  0  0  0  0
 75 74  1  0  0  0  0
 76 74  1  0  0  0  0
 77 74  1  0  0  0  0
 78  4  1  0  0  0  0
 79 78  1  0  0  0  0
 80 78  1  0  0  0  0
 81 78  1  0  0  0  0
 82 81  1  0  0  0  0
 83 81  1  0  0  0  0
 84 81  1  0  0  0  0
 85  1  1  0  0  0  0
 86 85  1  0  0  0  0
 87 85  1  0  0  0  0
 88 85  1  0  0  0  0
 89  2  1  0  0  0  0
 90 89  1  0  0  0  0
 91 89  1  0  0  0  0
 92 89  1  0  0  0  0
 93  2  1  0  0  0  0
 94  4  1  0  0  0  0
 95 94  8  0  0  0  0
 96  1  8  0  0  0  0
  3 93  1  0  0  0  0
 86 93  1  0  0  0  0
 88 93  1  0  0  0  0
 90 94  1  0  0  0  0
 91 94  1  0  0  0  0
 92 94  1  0  0  0  0
M  END
$$$$
GAYMOM

From CSD data. Using bond type 'Any'. No disordered atoms. Largest molecule.
106111  0  0  0  0  0  0  0  0999 V2000
    0.7048   23.3761    6.4697 P   0  0  0  0  0  0  0  0  0  0  0  0
    6.2715   21.4833    5.5509 P   0  0  0  0  0  0  0  0  0  0  0  0
    5.4770   25.0580    5.6807 O   0  0  0  0  0  0  0  0  0  0  0  0
    5.7630   23.7078    8.4244 O   0  0  0  0  0  0  0  0  0  0  0  0
   11.3282   21.2171    3.5176 O   0  0  0  0  0  0  0  0  0  0  0  0
   11.0447   19.8188    6.2274 O   0  0  0  0  0  0  0  0  0  0  0  0
   -0.1082   23.7848    8.0993 C   0  0  0  0  0  0  0  0  0  0  0  0
   -1.0040   24.1272    7.9000 H   0  0  0  0  0  0  0  0  0  0  0  0
    0.6072   24.8410    8.9339 C   0  0  0  0  0  0  0  0  0  0  0  0
    1.4694   24.5121    9.1974 H   0  0  0  0  0  0  0  0  0  0  0  0
    0.0861   25.0359    9.7161 H   0  0  0  0  0  0  0  0  0  0  0  0
    0.7163   25.6417    8.4133 H   0  0  0  0  0  0  0  0  0  0  0  0
   -0.2811   22.4981    8.8927 C   0  0  0  0  0  0  0  0  0  0  0  0
   -0.8296   21.8859    8.3959 H   0  0  0  0  0  0  0  0  0  0  0  0
   -0.7020   22.6948    9.7335 H   0  0  0  0  0  0  0  0  0  0  0  0
    0.5786   22.0997    9.0501 H   0  0  0  0  0  0  0  0  0  0  0  0
    0.6473   24.9849    5.5268 C   0  0  0  0  0  0  0  0  0  0  0  0
    1.2290   25.6345    5.9760 H   0  0  0  0  0  0  0  0  0  0  0  0
   -0.7573   25.5700    5.4326 C   0  0  0  0  0  0  0  0  0  0  0  0
   -1.3510   24.9183    5.0547 H   0  0  0  0  0  0  0  0  0  0  0  0
   -0.7420   26.3508    4.8745 H   0  0  0  0  0  0  0  0  0  0  0  0
   -1.0636   25.8091    6.3109 H   0  0  0  0  0  0  0  0  0  0  0  0
    1.1936   24.7259    4.1234 C   0  0  0  0  0  0  0  0  0  0  0  0
    2.0785   24.3624    4.1874 H   0  0  0  0  0  0  0  0  0  0  0  0
    1.2223   25.5526    3.6339 H   0  0  0  0  0  0  0  0  0  0  0  0
    0.6226   24.1023    3.6678 H   0  0  0  0  0  0  0  0  0  0  0  0
    4.6644   26.0600    5.0538 C   0  0  0  0  0  0  0  0  0  0  0  0
    4.7660   26.9138    5.5012 H   0  0  0  0  0  0  0  0  0  0  0  0
    3.7289   25.8056    5.0740 H   0  0  0  0  0  0  0  0  0  0  0  0
    5.1660   26.1373    3.6348 C   0  0  0  0  0  0  0  0  0  0  0  0
    5.0534   27.0313    3.2735 H   0  0  0  0  0  0  0  0  0  0  0  0
    4.7012   25.5027    3.0658 H   0  0  0  0  0  0  0  0  0  0  0  0
    6.6476   25.7778    3.7675 C   0  0  0  0  0  0  0  0  0  0  0  0
    6.8924   25.0858    3.1307 H   0  0  0  0  0  0  0  0  0  0  0  0
    7.2047   26.5574    3.6147 H   0  0  0  0  0  0  0  0  0  0  0  0
    6.8044   25.2757    5.1920 C   0  0  0  0  0  0  0  0  0  0  0  0
    7.3118   24.4479    5.2084 H   0  0  0  0  0  0  0  0  0  0  0  0
    7.2642   25.9338    5.7363 H   0  0  0  0  0  0  0  0  0  0  0  0
    7.1727   23.9965    8.5313 C   0  0  0  0  0  0  0  0  0  0  0  0
    7.3516   24.9147    8.2806 H   0  0  0  0  0  0  0  0  0  0  0  0
    7.6842   23.4110    7.9513 H   0  0  0  0  0  0  0  0  0  0  0  0
    7.5371   23.7634    9.9649 C   0  0  0  0  0  0  0  0  0  0  0  0
    8.2543   24.3553   10.2449 H   0  0  0  0  0  0  0  0  0  0  0  0
    7.8053   22.8444   10.1141 H   0  0  0  0  0  0  0  0  0  0  0  0
    6.2438   24.0845   10.6950 C   0  0  0  0  0  0  0  0  0  0  0  0
    6.1960   23.6248   11.5477 H   0  0  0  0  0  0  0  0  0  0  0  0
    6.1480   25.0394   10.8414 H   0  0  0  0  0  0  0  0  0  0  0  0
    5.2007   23.5696    9.7344 C   0  0  0  0  0  0  0  0  0  0  0  0
    4.9972   22.6378    9.9201 H   0  0  0  0  0  0  0  0  0  0  0  0
    4.3839   24.0880    9.8094 H   0  0  0  0  0  0  0  0  0  0  0  0
    5.3852   20.9808    3.9907 C   0  0  0  0  0  0  0  0  0  0  0  0
    4.4767   20.7207    4.2506 H   0  0  0  0  0  0  0  0  0  0  0  0
    5.9921   19.7925    3.2561 C   0  0  0  0  0  0  0  0  0  0  0  0
    6.8841   20.0116    2.9770 H   0  0  0  0  0  0  0  0  0  0  0  0
    5.4575   19.5840    2.4857 H   0  0  0  0  0  0  0  0  0  0  0  0
    6.0158   19.0317    3.8425 H   0  0  0  0  0  0  0  0  0  0  0  0
    5.2566   22.1877    3.0795 C   0  0  0  0  0  0  0  0  0  0  0  0
    4.7952   22.8908    3.5424 H   0  0  0  0  0  0  0  0  0  0  0  0
    4.7619   21.9429    2.2936 H   0  0  0  0  0  0  0  0  0  0  0  0
    6.1308   22.4917    2.8261 H   0  0  0  0  0  0  0  0  0  0  0  0
    6.2349   19.9143    6.5616 C   0  0  0  0  0  0  0  0  0  0  0  0
    6.7176   19.2205    6.0684 H   0  0  0  0  0  0  0  0  0  0  0  0
    4.8149   19.4169    6.8251 C   0  0  0  0  0  0  0  0  0  0  0  0
    4.3066   20.1114    7.2523 H   0  0  0  0  0  0  0  0  0  0  0  0
    4.8471   18.6469    7.3959 H   0  0  0  0  0  0  0  0  0  0  0  0
    4.3986   19.1814    5.9925 H   0  0  0  0  0  0  0  0  0  0  0  0
    6.9624   20.1606    7.8726 C   0  0  0  0  0  0  0  0  0  0  0  0
    7.8533   20.4713    7.6914 H   0  0  0  0  0  0  0  0  0  0  0  0
    7.0033   19.3417    8.3749 H   0  0  0  0  0  0  0  0  0  0  0  0
    6.4901   20.8240    8.3813 H   0  0  0  0  0  0  0  0  0  0  0  0
   10.7757   20.1969    2.6660 C   0  0  0  0  0  0  0  0  0  0  0  0
   10.1239   20.5817    2.0585 H   0  0  0  0  0  0  0  0  0  0  0  0
   10.3391   19.5127    3.1975 H   0  0  0  0  0  0  0  0  0  0  0  0
   11.9251   19.6107    1.8993 C   0  0  0  0  0  0  0  0  0  0  0  0
   12.0604   20.0757    1.0594 H   0  0  0  0  0  0  0  0  0  0  0  0
   11.7818   18.6682    1.7200 H   0  0  0  0  0  0  0  0  0  0  0  0
   13.0888   19.8160    2.8270 C   0  0  0  0  0  0  0  0  0  0  0  0
   13.9262   19.8477    2.3394 H   0  0  0  0  0  0  0  0  0  0  0  0
   13.1352   19.1136    3.4940 H   0  0  0  0  0  0  0  0  0  0  0  0
   12.7681   21.1497    3.4555 C   0  0  0  0  0  0  0  0  0  0  0  0
   13.1511   21.2089    4.3448 H   0  0  0  0  0  0  0  0  0  0  0  0
   13.1199   21.8752    2.9157 H   0  0  0  0  0  0  0  0  0  0  0  0
   10.3238   18.5930    6.3932 C   0  0  0  0  0  0  0  0  0  0  0  0
   10.6029   17.9413    5.7318 H   0  0  0  0  0  0  0  0  0  0  0  0
    9.3699   18.7431    6.2999 H   0  0  0  0  0  0  0  0  0  0  0  0
   10.6517   18.1145    7.7811 C   0  0  0  0  0  0  0  0  0  0  0  0
   10.7288   17.1467    7.8067 H   0  0  0  0  0  0  0  0  0  0  0  0
    9.9728   18.3939    8.4151 H   0  0  0  0  0  0  0  0  0  0  0  0
   11.9961   18.7801    8.0876 C   0  0  0  0  0  0  0  0  0  0  0  0
   11.9263   19.3560    8.8671 H   0  0  0  0  0  0  0  0  0  0  0  0
   12.6821   18.1124    8.2495 H   0  0  0  0  0  0  0  0  0  0  0  0
   12.3141   19.5904    6.8488 C   0  0  0  0  0  0  0  0  0  0  0  0
   12.7376   20.4285    7.0858 H   0  0  0  0  0  0  0  0  0  0  0  0
   12.9038   19.0958    6.2569 H   0  0  0  0  0  0  0  0  0  0  0  0
    2.6070   23.1630    6.8928 B   0  0  0  0  0  0  0  0  0  0  0  0
    3.0462   24.1379    7.2093 H   0  0  0  0  0  0  0  0  0  0  0  0
    2.7383   22.4062    7.7125 H   0  0  0  0  0  0  0  0  0  0  0  0
    3.1063   22.7981    5.9742 H   0  0  0  0  0  0  0  0  0  0  0  0
    8.1561   21.6457    5.0520 B   0  0  0  0  0  0  0  0  0  0  0  0
    8.6192   20.6566    4.7574 H   0  0  0  0  0  0  0  0  0  0  0  0
    8.6971   22.0605    5.9193 H   0  0  0  0  0  0  0  0  0  0  0  0
    8.2607   22.3955    4.1810 H   0  0  0  0  0  0  0  0  0  0  0  0
    4.9217   23.4417    6.6704 Li  0  0  0  0  0  0  0  0  0  0  0  0
   10.5017   21.4964    5.3018 Li  0  0  0  0  0  0  0  0  0  0  0  0
   11.8619   23.3761    6.4697 P   0  0  0  0  0  0  0  0  0  0  0  0
   -0.6554   21.4964    5.3018 Li  0  0  0  0  0  0  0  0  0  0  0  0
  1  7  1  0  0  0  0
  2 51  1  0  0  0  0
  3 27  1  0  0  0  0
  4 39  1  0  0  0  0
  5 71  1  0  0  0  0
  6 83  1  0  0  0  0
  7  8  1  0  0  0  0
  9  7  1  0  0  0  0
 10  9  1  0  0  0  0
 11  9  1  0  0  0  0
 12  9  1  0  0  0  0
 13  7  1  0  0  0  0
 14 13  1  0  0  0  0
 15 13  1  0  0  0  0
 16 13  1  0  0  0  0
 17  1  1  0  0  0  0
 18 17  1  0  0  0  0
 19 17  1  0  0  0  0
 20 19  1  0  0  0  0
 21 19  1  0  0  0  0
 22 19  1  0  0  0  0
 23 17  1  0  0  0  0
 24 23  1  0  0  0  0
 25 23  1  0  0  0  0
 26 23  1  0  0  0  0
 27 28  1  0  0  0  0
 29 27  1  0  0  0  0
 30 27  1  0  0  0  0
 31 30  1  0  0  0  0
 32 30  1  0  0  0  0
 33 30  1  0  0  0  0
 34 33  1  0  0  0  0
 35 33  1  0  0  0  0
 36  3  1  0  0  0  0
 37 36  1  0  0  0  0
 38 36  1  0  0  0  0
 39 40  1  0  0  0  0
 41 39  1  0  0  0  0
 42 39  1  0  0  0  0
 43 42  1  0  0  0  0
 44 42  1  0  0  0  0
 45 42  1  0  0  0  0
 46 45  1  0  0  0  0
 47 45  1  0  0  0  0
 48  4  1  0  0  0  0
 49 48  1  0  0  0  0
 50 48  1  0  0  0  0
 51 52  1  0  0  0  0
 53 51  1  0  0  0  0
 54 53  1  0  0  0  0
 55 53  1  0  0  0  0
 56 53  1  0  0  0  0
 57 51  1  0  0  0  0
 58 57  1  0  0  0  0
 59 57  1  0  0  0  0
 60 57  1  0  0  0  0
 61  2  1  0  0  0  0
 62 61  1  0  0  0  0
 63 61  1  0  0  0  0
 64 63  1  0  0  0  0
 65 63  1  0  0  0  0
 66 63  1  0  0  0  0
 67 61  1  0  0  0  0
 68 67  1  0  0  0  0
 69 67  1  0  0  0  0
 70 67  1  0  0  0  0
 71 72  1  0  0  0  0
 73 71  1  0  0  0  0
 74 71  1  0  0  0  0
 75 74  1  0  0  0  0
 76 74  1  0  0  0  0
 77 74  1  0  0  0  0
 78 77  1  0  0  0  0
 79 77  1  0  0  0  0
 80  5  1  0  0  0  0
 81 80  1  0  0  0  0
 82 80  1  0  0  0  0
 83 84  1  0  0  0  0
 85 83  1  0  0  0  0
 86 83  1  0  0  0  0
 87 86  1  0  0  0  0
 88 86  1  0  0  0  0
 89 86  1  0  0  0  0
 90 89  1  0  0  0  0
 91 89  1  0  0  0  0
 92  6  1  0  0  0  0
 93 92  1  0  0  0  0
 94 92  1  0  0  0  0
 95  1  1  0  0  0  0
 96 95  1  0  0  0  0
 97 95  1  0  0  0  0
 98 95  1  0  0  0  0
 99  2  1  0  0  0  0
100 99  1  0  0  0  0
101 99  1  0  0  0  0
102 99  1  0  0  0  0
103  2  1  0  0  0  0
104  5  1  0  0  0  0
105104  8  0  0  0  0
106  1  8  0  0  0  0
  3103  1  0  0  0  0
  4103  1  0  0  0  0
  6104  1  0  0  0  0
 33 36  1  0  0  0  0
 45 48  1  0  0  0  0
 77 80  1  0  0  0  0
 89 92  1  0  0  0  0
 96103  1  0  0  0  0
 98103  1  0  0  0  0
100104  1  0  0  0  0
101104  1  0  0  0  0
M  END
$$$$
GAYMUS

From CSD data. Using bond type 'Any'. No disordered atoms. Largest molecule.
 82 85  0  0  0  0  0  0  0  0999 V2000
    6.6007    7.8270    2.7904 P   0  0  0  0  0  0  0  0  0  0  0  0
    9.0981    3.6835    3.6347 P   0  0  0  0  0  0  0  0  0  0  0  0
    8.6446    5.0309    1.0952 Na  0  0  0  0  0  0  0  0  0  0  0  0
    8.2065    7.1864    5.0749 Na  0  0  0  0  0  0  0  0  0  0  0  0
   10.6099    6.1495    0.5434 O   0  0  0  0  0  0  0  0  0  0  0  0
   10.1493    8.4171    5.1858 O   0  0  0  0  0  0  0  0  0  0  0  0
    6.8106    9.6115    2.2880 C   0  0  0  0  0  0  0  0  0  0  0  0
    6.1161    9.8366    1.6058 H   0  0  0  0  0  0  0  0  0  0  0  0
    6.6473   10.5469    3.4779 C   0  0  0  0  0  0  0  0  0  0  0  0
    7.2736   10.2872    4.1864 H   0  0  0  0  0  0  0  0  0  0  0  0
    5.7289   10.4880    3.8158 H   0  0  0  0  0  0  0  0  0  0  0  0
    6.8347   11.4671    3.1975 H   0  0  0  0  0  0  0  0  0  0  0  0
    8.1853    9.7970    1.6646 C   0  0  0  0  0  0  0  0  0  0  0  0
    8.2626    9.2284    0.8696 H   0  0  0  0  0  0  0  0  0  0  0  0
    8.8748    9.5464    2.3138 H   0  0  0  0  0  0  0  0  0  0  0  0
    8.3039   10.7349    1.4070 H   0  0  0  0  0  0  0  0  0  0  0  0
    4.8755    7.8026    3.5056 C   0  0  0  0  0  0  0  0  0  0  0  0
    4.8811    8.3904    4.3147 H   0  0  0  0  0  0  0  0  0  0  0  0
    3.8032    8.3364    2.5652 C   0  0  0  0  0  0  0  0  0  0  0  0
    3.7723    7.7830    1.7572 H   0  0  0  0  0  0  0  0  0  0  0  0
    4.0161    9.2611    2.3190 H   0  0  0  0  0  0  0  0  0  0  0  0
    2.9326    8.3099    3.0141 H   0  0  0  0  0  0  0  0  0  0  0  0
    4.5429    6.3890    3.9730 C   0  0  0  0  0  0  0  0  0  0  0  0
    5.2134    6.0934    4.6238 H   0  0  0  0  0  0  0  0  0  0  0  0
    4.5443    5.7818    3.2040 H   0  0  0  0  0  0  0  0  0  0  0  0
    3.6570    6.3838    4.3917 H   0  0  0  0  0  0  0  0  0  0  0  0
   11.0852    6.3838   -0.7930 C   0  0  0  0  0  0  0  0  0  0  0  0
   10.3334    6.6264   -1.3903 H   0  0  0  0  0  0  0  0  0  0  0  0
   11.5261    5.5736   -1.1518 H   0  0  0  0  0  0  0  0  0  0  0  0
   12.0730    7.5247   -0.6940 C   0  0  0  0  0  0  0  0  0  0  0  0
   12.9925    7.1907   -0.5400 H   0  0  0  0  0  0  0  0  0  0  0  0
   12.0624    8.0792   -1.5135 H   0  0  0  0  0  0  0  0  0  0  0  0
   11.5692    8.2958    0.4900 C   0  0  0  0  0  0  0  0  0  0  0  0
   10.8281    8.9019    0.2373 H   0  0  0  0  0  0  0  0  0  0  0  0
   12.2934    8.8229    0.9119 H   0  0  0  0  0  0  0  0  0  0  0  0
   11.0918    7.1963    1.3984 C   0  0  0  0  0  0  0  0  0  0  0  0
   11.8343    6.8668    1.9637 H   0  0  0  0  0  0  0  0  0  0  0  0
   10.3663    7.5238    1.9868 H   0  0  0  0  0  0  0  0  0  0  0  0
    7.9924    2.1862    3.5282 C   0  0  0  0  0  0  0  0  0  0  0  0
    7.9890    1.7350    4.4212 H   0  0  0  0  0  0  0  0  0  0  0  0
    8.4481    1.1696    2.4798 C   0  0  0  0  0  0  0  0  0  0  0  0
    8.5009    1.6057    1.6033 H   0  0  0  0  0  0  0  0  0  0  0  0
    7.8050    0.4322    2.4395 H   0  0  0  0  0  0  0  0  0  0  0  0
    9.3304    0.8207    2.7255 H   0  0  0  0  0  0  0  0  0  0  0  0
    6.5703    2.6490    3.2215 C   0  0  0  0  0  0  0  0  0  0  0  0
    6.3039    3.3357    3.8684 H   0  0  0  0  0  0  0  0  0  0  0  0
    5.9582    1.8861    3.2835 H   0  0  0  0  0  0  0  0  0  0  0  0
    6.5359    3.0226    2.3164 H   0  0  0  0  0  0  0  0  0  0  0  0
   10.7920    2.9396    3.9034 C   0  0  0  0  0  0  0  0  0  0  0  0
   11.0037    2.3817    3.1014 H   0  0  0  0  0  0  0  0  0  0  0  0
   10.9124    2.0385    5.1302 C   0  0  0  0  0  0  0  0  0  0  0  0
   10.7056    2.5555    5.9372 H   0  0  0  0  0  0  0  0  0  0  0  0
   11.8261    1.6894    5.1907 H   0  0  0  0  0  0  0  0  0  0  0  0
   10.2831    1.2924    5.0496 H   0  0  0  0  0  0  0  0  0  0  0  0
   11.8256    4.0621    3.9653 C   0  0  0  0  0  0  0  0  0  0  0  0
   11.7580    4.6139    3.1578 H   0  0  0  0  0  0  0  0  0  0  0  0
   12.7246    3.6754    4.0223 H   0  0  0  0  0  0  0  0  0  0  0  0
   11.6583    4.6176    4.7559 H   0  0  0  0  0  0  0  0  0  0  0  0
   11.5027    9.8177    6.5077 C   0  0  0  0  0  0  0  0  0  0  0  0
   11.4673    9.4397    7.4225 H   0  0  0  0  0  0  0  0  0  0  0  0
   11.8025   10.7597    6.5567 H   0  0  0  0  0  0  0  0  0  0  0  0
   10.1721    9.7062    5.8229 C   0  0  0  0  0  0  0  0  0  0  0  0
    9.4367    9.7795    6.4823 H   0  0  0  0  0  0  0  0  0  0  0  0
   10.0673   10.4258    5.1510 H   0  0  0  0  0  0  0  0  0  0  0  0
    6.4773    6.8523    1.1032 B   0  0  0  0  0  0  0  0  0  0  0  0
    6.3077    5.7458    1.3185 H   0  0  0  0  0  0  0  0  0  0  0  0
    7.4490    6.9857    0.5477 H   0  0  0  0  0  0  0  0  0  0  0  0
    5.6651    7.2304    0.4489 H   0  0  0  0  0  0  0  0  0  0  0  0
    8.6152    4.4440    5.3721 B   0  0  0  0  0  0  0  0  0  0  0  0
    7.6092    4.9050    5.2818 H   0  0  0  0  0  0  0  0  0  0  0  0
    9.3734    5.2489    5.6448 H   0  0  0  0  0  0  0  0  0  0  0  0
    8.5785    3.6690    6.1796 H   0  0  0  0  0  0  0  0  0  0  0  0
   11.4824    7.8185    5.2818 C   0  0  0  0  0  0  0  0  0  0  0  0
   11.7413    7.3945    4.4263 H   0  0  0  0  0  0  0  0  0  0  0  0
   11.5131    7.1374    6.0000 H   0  0  0  0  0  0  0  0  0  0  0  0
   12.4092    8.9990    5.6101 C   0  0  0  0  0  0  0  0  0  0  0  0
   13.2247    8.7026    6.0860 H   0  0  0  0  0  0  0  0  0  0  0  0
   12.6665    9.4993    4.7957 H   0  0  0  0  0  0  0  0  0  0  0  0
    5.7232    5.4834   -1.0952 Na  0  0  0  0  0  0  0  0  0  0  0  0
    7.4362    5.0030    7.7512 Na  0  0  0  0  0  0  0  0  0  0  0  0
    8.7027    3.2839   -0.4489 H   0  0  0  0  0  0  0  0  0  0  0  0
    7.0642    8.5203    6.6465 H   0  0  0  0  0  0  0  0  0  0  0  0
  1  4  1  0  0  0  0
  2  3  1  0  0  0  0
  3  5  1  0  0  0  0
  4  6  1  0  0  0  0
  5 27  1  0  0  0  0
  6 62  1  0  0  0  0
  7  1  1  0  0  0  0
  8  7  1  0  0  0  0
  9  7  1  0  0  0  0
 10  9  1  0  0  0  0
 11  9  1  0  0  0  0
 12  9  1  0  0  0  0
 13  7  1  0  0  0  0
 14 13  1  0  0  0  0
 15 13  1  0  0  0  0
 16 13  1  0  0  0  0
 17  1  1  0  0  0  0
 18 17  1  0  0  0  0
 19 17  1  0  0  0  0
 20 19  1  0  0  0  0
 21 19  1  0  0  0  0
 22 19  1  0  0  0  0
 23 17  1  0  0  0  0
 24 23  1  0  0  0  0
 25 23  1  0  0  0  0
 26 23  1  0  0  0  0
 27 28  1  0  0  0  0
 29 27  1  0  0  0  0
 30 27  1  0  0  0  0
 31 30  1  0  0  0  0
 32 30  1  0  0  0  0
 33 30  1  0  0  0  0
 34 33  1  0  0  0  0
 35 33  1  0  0  0  0
 36  5  1  0  0  0  0
 37 36  1  0  0  0  0
 38 36  1  0  0  0  0
 39  2  1  0  0  0  0
 40 39  1  0  0  0  0
 41 39  1  0  0  0  0
 42 41  1  0  0  0  0
 43 41  1  0  0  0  0
 44 41  1  0  0  0  0
 45 39  1  0  0  0  0
 46 45  1  0  0  0  0
 47 45  1  0  0  0  0
 48 45  1  0  0  0  0
 49  2  1  0  0  0  0
 50 49  1  0  0  0  0
 51 49  1  0  0  0  0
 52 51  1  0  0  0  0
 53 51  1  0  0  0  0
 54 51  1  0  0  0  0
 55 49  1  0  0  0  0
 56 55  1  0  0  0  0
 57 55  1  0  0  0  0
 58 55  1  0  0  0  0
 59 60  1  0  0  0  0
 61 59  1  0  0  0  0
 62 59  1  0  0  0  0
 63 62  1  0  0  0  0
 64 62  1  0  0  0  0
 65  1  1  0  0  0  0
 66 65  1  0  0  0  0
 67  3  1  0  0  0  0
 68 65  1  0  0  0  0
 69  2  1  0  0  0  0
 70  4  1  0  0  0  0
 71  4  1  0  0  0  0
 72 69  1  0  0  0  0
 73  6  1  0  0  0  0
 74 73  1  0  0  0  0
 75 73  1  0  0  0  0
 76 59  1  0  0  0  0
 77 76  1  0  0  0  0
 78 76  1  0  0  0  0
 79 68  8  0  0  0  0
 80 72  8  0  0  0  0
 81  3  8  0  0  0  0
 82  4  8  0  0  0  0
 33 36  1  0  0  0  0
 65 67  1  0  0  0  0
 69 70  1  0  0  0  0
 69 71  1  0  0  0  0
 73 76  1  0  0  0  0
M  END
$$$$
GAYNIH

From CSD data. Using bond type 'Any'. No disordered atoms. Largest molecule.
132143  0  0  0  0  0  0  0  0999 V2000
   11.4199    6.2396   15.0360 P   0  0  0  0  0  0  0  0  0  0  0  0
   17.1782    3.5656   15.0821 P   0  0  0  0  0  0  0  0  0  0  0  0
    6.8429    6.1825   15.0566 Na  0  0  0  0  0  0  0  0  0  0  0  0
   12.6029    3.5366   15.0821 Na  0  0  0  0  0  0  0  0  0  0  0  0
    6.2394    6.0440   17.3721 O   0  0  0  0  0  0  0  0  0  0  0  0
   11.9873    3.4194   17.3813 O   0  0  0  0  0  0  0  0  0  0  0  0
   12.0590    7.2320   16.4541 C   0  0  0  0  0  0  0  0  0  0  0  0
   11.2058    7.9238   17.3143 C   0  0  0  0  0  0  0  0  0  0  0  0
   10.2951    7.9514   17.1305 H   0  0  0  0  0  0  0  0  0  0  0  0
   11.6947    8.5713   18.4407 C   0  0  0  0  0  0  0  0  0  0  0  0
   11.1067    9.0142   19.0091 H   0  0  0  0  0  0  0  0  0  0  0  0
   13.0408    8.5638   18.7227 C   0  0  0  0  0  0  0  0  0  0  0  0
   13.3641    9.0068   19.4738 H   0  0  0  0  0  0  0  0  0  0  0  0
   13.9081    7.8920   17.8831 C   0  0  0  0  0  0  0  0  0  0  0  0
   14.8203    7.8889   18.0637 H   0  0  0  0  0  0  0  0  0  0  0  0
   13.4176    7.2231   16.7709 C   0  0  0  0  0  0  0  0  0  0  0  0
   14.0082    6.7572   16.2254 H   0  0  0  0  0  0  0  0  0  0  0  0
   11.9618    7.2116   13.5686 C   0  0  0  0  0  0  0  0  0  0  0  0
   13.3168    7.3431   13.2482 C   0  0  0  0  0  0  0  0  0  0  0  0
   13.9580    6.9998   13.8296 H   0  0  0  0  0  0  0  0  0  0  0  0
   13.7231    7.9747   12.0822 C   0  0  0  0  0  0  0  0  0  0  0  0
   14.6300    8.0626   11.8984 H   0  0  0  0  0  0  0  0  0  0  0  0
   12.7922    8.4720   11.1966 C   0  0  0  0  0  0  0  0  0  0  0  0
   13.0675    8.8945   10.4156 H   0  0  0  0  0  0  0  0  0  0  0  0
   11.4493    8.3380   11.4802 C   0  0  0  0  0  0  0  0  0  0  0  0
   10.8166    8.6613   10.8803 H   0  0  0  0  0  0  0  0  0  0  0  0
   11.0354    7.7220   12.6563 C   0  0  0  0  0  0  0  0  0  0  0  0
   10.1270    7.6483   12.8398 H   0  0  0  0  0  0  0  0  0  0  0  0
    4.9148    6.1956   17.8633 C   0  0  0  0  0  0  0  0  0  0  0  0
    4.5840    5.3479   18.2011 H   0  0  0  0  0  0  0  0  0  0  0  0
    4.3255    6.4955   17.1547 H   0  0  0  0  0  0  0  0  0  0  0  0
    4.9570    7.2001   18.9546 C   0  0  0  0  0  0  0  0  0  0  0  0
    4.3950    6.9278   19.6960 H   0  0  0  0  0  0  0  0  0  0  0  0
    4.6603    8.0669   18.6374 H   0  0  0  0  0  0  0  0  0  0  0  0
    6.4037    7.2489   19.3683 C   0  0  0  0  0  0  0  0  0  0  0  0
    6.7636    8.1421   19.2556 H   0  0  0  0  0  0  0  0  0  0  0  0
    6.5030    6.9882   20.2980 H   0  0  0  0  0  0  0  0  0  0  0  0
    7.1043    6.2782   18.4690 C   0  0  0  0  0  0  0  0  0  0  0  0
    7.9459    6.6491   18.1607 H   0  0  0  0  0  0  0  0  0  0  0  0
    7.2847    5.4496   18.9405 H   0  0  0  0  0  0  0  0  0  0  0  0
   17.8173    4.5728   16.4868 C   0  0  0  0  0  0  0  0  0  0  0  0
   16.9682    5.2636   17.3482 C   0  0  0  0  0  0  0  0  0  0  0  0
   16.0560    5.2811   17.1709 H   0  0  0  0  0  0  0  0  0  0  0  0
   17.4614    5.9265   18.4645 C   0  0  0  0  0  0  0  0  0  0  0  0
   16.8747    6.3704   19.0334 H   0  0  0  0  0  0  0  0  0  0  0  0
   18.8083    5.9307   18.7385 C   0  0  0  0  0  0  0  0  0  0  0  0
   19.1334    6.3821   19.4859 H   0  0  0  0  0  0  0  0  0  0  0  0
   19.6758    5.2610   17.8969 C   0  0  0  0  0  0  0  0  0  0  0  0
   20.5896    5.2695   18.0678 H   0  0  0  0  0  0  0  0  0  0  0  0
   19.1809    4.5732   16.7931 C   0  0  0  0  0  0  0  0  0  0  0  0
   19.7693    4.1039   16.2497 H   0  0  0  0  0  0  0  0  0  0  0  0
   17.7192    4.5351   13.6151 C   0  0  0  0  0  0  0  0  0  0  0  0
   19.0687    4.6289   13.2729 C   0  0  0  0  0  0  0  0  0  0  0  0
   19.7065    4.2533   13.8336 H   0  0  0  0  0  0  0  0  0  0  0  0
   19.4801    5.2695   12.1121 C   0  0  0  0  0  0  0  0  0  0  0  0
   20.3865    5.3362   11.9146 H   0  0  0  0  0  0  0  0  0  0  0  0
   18.5391    5.8121   11.2483 C   0  0  0  0  0  0  0  0  0  0  0  0
   18.8086    6.2401   10.4682 H   0  0  0  0  0  0  0  0  0  0  0  0
   17.1997    5.7104   11.5582 C   0  0  0  0  0  0  0  0  0  0  0  0
   16.5654    6.0642   10.9772 H   0  0  0  0  0  0  0  0  0  0  0  0
   16.7925    5.0863   12.7258 C   0  0  0  0  0  0  0  0  0  0  0  0
   15.8851    5.0332   12.9206 H   0  0  0  0  0  0  0  0  0  0  0  0
   10.6670    3.5911   17.8779 C   0  0  0  0  0  0  0  0  0  0  0  0
   10.3221    2.7476   18.2092 H   0  0  0  0  0  0  0  0  0  0  0  0
   10.0820    3.9068   17.1709 H   0  0  0  0  0  0  0  0  0  0  0  0
   10.7331    4.5913   18.9805 C   0  0  0  0  0  0  0  0  0  0  0  0
   10.1688    4.3254   19.7243 H   0  0  0  0  0  0  0  0  0  0  0  0
   10.4514    5.4666   18.6698 H   0  0  0  0  0  0  0  0  0  0  0  0
   12.1804    4.6083   19.3889 C   0  0  0  0  0  0  0  0  0  0  0  0
   12.5582    5.4952   19.2758 H   0  0  0  0  0  0  0  0  0  0  0  0
   12.2769    4.3434   20.3182 H   0  0  0  0  0  0  0  0  0  0  0  0
   12.8551    3.6313   18.4888 C   0  0  0  0  0  0  0  0  0  0  0  0
   13.7070    3.9831   18.1849 H   0  0  0  0  0  0  0  0  0  0  0  0
   13.0135    2.7963   18.9566 H   0  0  0  0  0  0  0  0  0  0  0  0
    9.4785    6.3850   15.0954 B   0  0  0  0  0  0  0  0  0  0  0  0
    9.1092    7.4491   15.0093 H   0  0  0  0  0  0  0  0  0  0  0  0
    9.0966    5.8173   14.2175 H   0  0  0  0  0  0  0  0  0  0  0  0
    9.1508    5.8915   16.0073 H   0  0  0  0  0  0  0  0  0  0  0  0
   15.2392    3.7096   15.1350 B   0  0  0  0  0  0  0  0  0  0  0  0
   14.8483    3.1153   14.2498 H   0  0  0  0  0  0  0  0  0  0  0  0
   14.8593    4.8213   15.0861 H   0  0  0  0  0  0  0  0  0  0  0  0
   14.9279    3.2001   16.0477 H   0  0  0  0  0  0  0  0  0  0  0  0
    6.1071    3.7775   14.9043 N   0  0  0  0  0  0  0  0  0  0  0  0
    6.3306    5.7982   12.5986 N   0  0  0  0  0  0  0  0  0  0  0  0
   11.8998    1.1105   14.9075 N   0  0  0  0  0  0  0  0  0  0  0  0
   12.1008    3.1185   12.5921 N   0  0  0  0  0  0  0  0  0  0  0  0
    5.1548    3.3261   15.8469 C   0  0  0  0  0  0  0  0  0  0  0  0
    5.0073    2.3841   15.7285 H   0  0  0  0  0  0  0  0  0  0  0  0
    4.3266    3.7966   15.7164 H   0  0  0  0  0  0  0  0  0  0  0  0
    5.4789    3.4904   16.7345 H   0  0  0  0  0  0  0  0  0  0  0  0
    7.3850    3.0083   15.0934 C   0  0  0  0  0  0  0  0  0  0  0  0
    7.2246    2.0758   14.9326 H   0  0  0  0  0  0  0  0  0  0  0  0
    7.7014    3.1291   15.9911 H   0  0  0  0  0  0  0  0  0  0  0  0
    8.0466    3.3304   14.4760 H   0  0  0  0  0  0  0  0  0  0  0  0
    5.6655    3.5465   13.5165 C   0  0  0  0  0  0  0  0  0  0  0  0
    4.7363    3.8125   13.4377 H   0  0  0  0  0  0  0  0  0  0  0  0
    5.7165    2.5971   13.3286 H   0  0  0  0  0  0  0  0  0  0  0  0
    6.4843    4.3010   12.4624 C   0  0  0  0  0  0  0  0  0  0  0  0
    7.4192    4.0647   12.5529 H   0  0  0  0  0  0  0  0  0  0  0  0
    6.1913    4.0287   11.5792 H   0  0  0  0  0  0  0  0  0  0  0  0
    7.3090    6.3789   11.7004 C   0  0  0  0  0  0  0  0  0  0  0  0
    7.2611    7.3368   11.7529 H   0  0  0  0  0  0  0  0  0  0  0  0
    7.1253    6.0960   10.7995 H   0  0  0  0  0  0  0  0  0  0  0  0
    8.1884    6.0886   11.9550 H   0  0  0  0  0  0  0  0  0  0  0  0
    4.9907    6.2136   12.2054 C   0  0  0  0  0  0  0  0  0  0  0  0
    4.3444    5.7845   12.7711 H   0  0  0  0  0  0  0  0  0  0  0  0
    4.8337    5.9625   11.2924 H   0  0  0  0  0  0  0  0  0  0  0  0
    4.9112    7.1662   12.2943 H   0  0  0  0  0  0  0  0  0  0  0  0
   10.9205    0.6654   15.8634 C   0  0  0  0  0  0  0  0  0  0  0  0
   10.7730   -0.2776   15.7527 H   0  0  0  0  0  0  0  0  0  0  0  0
   10.0982    1.1370   15.7204 H   0  0  0  0  0  0  0  0  0  0  0  0
   11.2400    0.8382   16.7507 H   0  0  0  0  0  0  0  0  0  0  0  0
   13.1639    0.3634   15.1588 C   0  0  0  0  0  0  0  0  0  0  0  0
   13.0259   -0.5690   14.9770 H   0  0  0  0  0  0  0  0  0  0  0  0
   13.4237    0.4758   16.0760 H   0  0  0  0  0  0  0  0  0  0  0  0
   13.8553    0.7025   14.5892 H   0  0  0  0  0  0  0  0  0  0  0  0
   11.4892    0.8827   13.5165 C   0  0  0  0  0  0  0  0  0  0  0  0
   10.5556    1.1285   13.4215 H   0  0  0  0  0  0  0  0  0  0  0  0
   11.5658   -0.0646   13.3205 H   0  0  0  0  0  0  0  0  0  0  0  0
   12.3146    1.6678   12.4947 C   0  0  0  0  0  0  0  0  0  0  0  0
   13.2537    1.4761   12.6337 H   0  0  0  0  0  0  0  0  0  0  0  0
   12.0772    1.3722   11.6035 H   0  0  0  0  0  0  0  0  0  0  0  0
   13.0295    3.8326   11.7368 C   0  0  0  0  0  0  0  0  0  0  0  0
   12.9092    4.7778   11.8539 H   0  0  0  0  0  0  0  0  0  0  0  0
   12.8621    3.6006   10.8197 H   0  0  0  0  0  0  0  0  0  0  0  0
   13.9287    3.5921   11.9711 H   0  0  0  0  0  0  0  0  0  0  0  0
   10.7375    3.5105   12.2701 C   0  0  0  0  0  0  0  0  0  0  0  0
   10.1290    3.0771   12.8721 H   0  0  0  0  0  0  0  0  0  0  0  0
   10.5353    3.2520   11.3691 H   0  0  0  0  0  0  0  0  0  0  0  0
   10.6499    4.4631   12.3549 H   0  0  0  0  0  0  0  0  0  0  0  0
    5.6186    8.8637   15.0821 P   0  0  0  0  0  0  0  0  0  0  0  0
   18.4025    0.8844   15.0566 Na  0  0  0  0  0  0  0  0  0  0  0  0
  1  4  1  0  0  0  0
  2 41  1  0  0  0  0
  3  5  1  0  0  0  0
  4  6  1  0  0  0  0
  5 29  1  0  0  0  0
  6 63  1  0  0  0  0
  7  1  1  0  0  0  0
  8  7  4  0  0  0  0
  9  8  1  0  0  0  0
 10  8  4  0  0  0  0
 11 10  1  0  0  0  0
 12 10  4  0  0  0  0
 13 12  1  0  0  0  0
 14 12  4  0  0  0  0
 15 14  1  0  0  0  0
 16  7  4  0  0  0  0
 17 16  1  0  0  0  0
 18  1  1  0  0  0  0
 19 18  4  0  0  0  0
 20 19  1  0  0  0  0
 21 19  4  0  0  0  0
 22 21  1  0  0  0  0
 23 21  4  0  0  0  0
 24 23  1  0  0  0  0
 25 23  4  0  0  0  0
 26 25  1  0  0  0  0
 27 18  4  0  0  0  0
 28 27  1  0  0  0  0
 29 30  1  0  0  0  0
 31 29  1  0  0  0  0
 32 29  1  0  0  0  0
 33 32  1  0  0  0  0
 34 32  1  0  0  0  0
 35 32  1  0  0  0  0
 36 35  1  0  0  0  0
 37 35  1  0  0  0  0
 38  5  1  0  0  0  0
 39 38  1  0  0  0  0
 40 38  1  0  0  0  0
 41 42  4  0  0  0  0
 42 43  1  0  0  0  0
 44 42  4  0  0  0  0
 45 44  1  0  0  0  0
 46 44  4  0  0  0  0
 47 46  1  0  0  0  0
 48 46  4  0  0  0  0
 49 48  1  0  0  0  0
 50 41  4  0  0  0  0
 51 50  1  0  0  0  0
 52  2  1  0  0  0  0
 53 52  4  0  0  0  0
 54 53  1  0  0  0  0
 55 53  4  0  0  0  0
 56 55  1  0  0  0  0
 57 55  4  0  0  0  0
 58 57  1  0  0  0  0
 59 57  4  0  0  0  0
 60 59  1  0  0  0  0
 61 52  4  0  0  0  0
 62 61  1  0  0  0  0
 63 64  1  0  0  0  0
 65 63  1  0  0  0  0
 66 63  1  0  0  0  0
 67 66  1  0  0  0  0
 68 66  1  0  0  0  0
 69 66  1  0  0  0  0
 70 69  1  0  0  0  0
 71 69  1  0  0  0  0
 72  6  1  0  0  0  0
 73 72  1  0  0  0  0
 74 72  1  0  0  0  0
 75  1  1  0  0  0  0
 76  3  1  0  0  0  0
 77  3  1  0  0  0  0
 78  3  1  0  0  0  0
 79  2  1  0  0  0  0
 80  4  1  0  0  0  0
 81  4  1  0  0  0  0
 82  4  1  0  0  0  0
 83  3  1  0  0  0  0
 84  3  1  0  0  0  0
 85  4  1  0  0  0  0
 86  4  1  0  0  0  0
 87 83  1  0  0  0  0
 88 87  1  0  0  0  0
 89 87  1  0  0  0  0
 90 87  1  0  0  0  0
 91 83  1  0  0  0  0
 92 91  1  0  0  0  0
 93 91  1  0  0  0  0
 94 91  1  0  0  0  0
 95 83  1  0  0  0  0
 96 95  1  0  0  0  0
 97 95  1  0  0  0  0
 98 84  1  0  0  0  0
 99 98  1  0  0  0  0
100 98  1  0  0  0  0
101 84  1  0  0  0  0
102101  1  0  0  0  0
103101  1  0  0  0  0
104101  1  0  0  0  0
105 84  1  0  0  0  0
106105  1  0  0  0  0
107105  1  0  0  0  0
108105  1  0  0  0  0
109 85  1  0  0  0  0
110109  1  0  0  0  0
111109  1  0  0  0  0
112109  1  0  0  0  0
113 85  1  0  0  0  0
114113  1  0  0  0  0
115113  1  0  0  0  0
116113  1  0  0  0  0
117 85  1  0  0  0  0
118117  1  0  0  0  0
119117  1  0  0  0  0
120 86  1  0  0  0  0
121120  1  0  0  0  0
122120  1  0  0  0  0
123 86  1  0  0  0  0
124123  1  0  0  0  0
125123  1  0  0  0  0
126123  1  0  0  0  0
127 86  1  0  0  0  0
128127  1  0  0  0  0
129127  1  0  0  0  0
130127  1  0  0  0  0
131  3  8  0  0  0  0
132  2  8  0  0  0  0
 14 16  4  0  0  0  0
 25 27  4  0  0  0  0
 35 38  1  0  0  0  0
 48 50  4  0  0  0  0
 59 61  4  0  0  0  0
 69 72  1  0  0  0  0
 75 76  1  0  0  0  0
 75 77  1  0  0  0  0
 75 78  1  0  0  0  0
 79 80  1  0  0  0  0
 79 81  1  0  0  0  0
 79 82  1  0  0  0  0
 95 98  1  0  0  0  0
117120  1  0  0  0  0
M  END
$$$$
GEBLAC

From CSD data. Using bond type 'Any'. No disordered atoms. Largest molecule.
149158  0  0  0  0  0  0  0  0999 V2000
   -0.6611    1.4822   10.4632 Pt  0  0  0  0  0  0  0  0  0  0  0  0
    0.5668    2.6706   12.0628 P   0  0  0  0  0  0  0  0  0  0  0  0
   -0.3900   -0.7425   11.1611 P   0  0  0  0  0  0  0  0  0  0  0  0
   -1.0755    3.2606    9.5416 B   0  0  0  0  0  0  0  0  0  0  0  0
   -0.2933    3.8693    8.5370 O   0  0  0  0  0  0  0  0  0  0  0  0
   -0.8383    5.1107    8.3019 C   0  0  0  0  0  0  0  0  0  0  0  0
   -0.4067    6.0861    7.4334 C   0  0  0  0  0  0  0  0  0  0  0  0
    0.3422    5.9557    6.8643 H   0  0  0  0  0  0  0  0  0  0  0  0
   -1.1323    7.2813    7.4351 C   0  0  0  0  0  0  0  0  0  0  0  0
   -0.8657    7.9862    6.8558 H   0  0  0  0  0  0  0  0  0  0  0  0
   -2.2259    7.4602    8.2584 C   0  0  0  0  0  0  0  0  0  0  0  0
   -2.6896    8.2881    8.2393 H   0  0  0  0  0  0  0  0  0  0  0  0
   -2.6669    6.4516    9.1193 C   0  0  0  0  0  0  0  0  0  0  0  0
   -3.4291    6.5661    9.6737 H   0  0  0  0  0  0  0  0  0  0  0  0
   -1.9419    5.2885    9.1210 C   0  0  0  0  0  0  0  0  0  0  0  0
   -2.1237    4.1524    9.8812 O   0  0  0  0  0  0  0  0  0  0  0  0
   -1.8229    0.9506    8.8609 B   0  0  0  0  0  0  0  0  0  0  0  0
   -3.2305    0.7626    8.8849 O   0  0  0  0  0  0  0  0  0  0  0  0
   -3.6148    0.4798    7.5921 C   0  0  0  0  0  0  0  0  0  0  0  0
   -4.8891    0.2700    7.0912 C   0  0  0  0  0  0  0  0  0  0  0  0
   -5.6564    0.2868    7.6506 H   0  0  0  0  0  0  0  0  0  0  0  0
   -4.9792    0.0315    5.7169 C   0  0  0  0  0  0  0  0  0  0  0  0
   -5.8347   -0.1049    5.3257 H   0  0  0  0  0  0  0  0  0  0  0  0
   -3.8553   -0.0104    4.9087 C   0  0  0  0  0  0  0  0  0  0  0  0
   -3.9555   -0.1758    3.9783 H   0  0  0  0  0  0  0  0  0  0  0  0
   -2.5778    0.1870    5.4353 C   0  0  0  0  0  0  0  0  0  0  0  0
   -1.8016    0.1450    4.8900 H   0  0  0  0  0  0  0  0  0  0  0  0
   -2.4970    0.4459    6.7833 C   0  0  0  0  0  0  0  0  0  0  0  0
   -1.3758    0.7229    7.5409 O   0  0  0  0  0  0  0  0  0  0  0  0
    2.3850    2.3529   12.0656 C   0  0  0  0  0  0  0  0  0  0  0  0
    2.7488    2.6290   12.9444 H   0  0  0  0  0  0  0  0  0  0  0  0
    2.5306    1.3776   11.9774 H   0  0  0  0  0  0  0  0  0  0  0  0
    3.1824    3.0621   10.9661 C   0  0  0  0  0  0  0  0  0  0  0  0
    2.7660    3.9619   10.8341 H   0  0  0  0  0  0  0  0  0  0  0  0
    3.1443    2.3495    9.6174 C   0  0  0  0  0  0  0  0  0  0  0  0
    2.2040    2.2377    9.3295 H   0  0  0  0  0  0  0  0  0  0  0  0
    3.5472    1.4498    9.7077 H   0  0  0  0  0  0  0  0  0  0  0  0
    3.9099    3.1475    8.5608 C   0  0  0  0  0  0  0  0  0  0  0  0
    3.9228    2.6376    7.7122 H   0  0  0  0  0  0  0  0  0  0  0  0
    3.4388    4.0029    8.3944 H   0  0  0  0  0  0  0  0  0  0  0  0
    5.3389    3.4407    8.9888 C   0  0  0  0  0  0  0  0  0  0  0  0
    5.7704    4.0234    8.3158 H   0  0  0  0  0  0  0  0  0  0  0  0
    5.8495    2.5920    9.0319 H   0  0  0  0  0  0  0  0  0  0  0  0
    5.3802    4.1232   10.3485 C   0  0  0  0  0  0  0  0  0  0  0  0
    4.9684    5.0199   10.2794 H   0  0  0  0  0  0  0  0  0  0  0  0
    6.3219    4.2394   10.6322 H   0  0  0  0  0  0  0  0  0  0  0  0
    4.6324    3.2984   11.3934 C   0  0  0  0  0  0  0  0  0  0  0  0
    4.6467    3.7735   12.2622 H   0  0  0  0  0  0  0  0  0  0  0  0
    5.0871    2.4262   11.5141 H   0  0  0  0  0  0  0  0  0  0  0  0
    0.4881    4.5134   11.9236 C   0  0  0  0  0  0  0  0  0  0  0  0
    0.7240    4.7514   10.9935 H   0  0  0  0  0  0  0  0  0  0  0  0
   -0.4554    4.7819   12.0624 H   0  0  0  0  0  0  0  0  0  0  0  0
    1.3581    5.3734   12.8585 C   0  0  0  0  0  0  0  0  0  0  0  0
    2.1115    4.8045   13.1888 H   0  0  0  0  0  0  0  0  0  0  0  0
    0.6015    5.9080   14.0775 C   0  0  0  0  0  0  0  0  0  0  0  0
   -0.1551    6.4679   13.7711 H   0  0  0  0  0  0  0  0  0  0  0  0
    0.2303    5.1476   14.5892 H   0  0  0  0  0  0  0  0  0  0  0  0
    1.5034    6.7369   14.9913 C   0  0  0  0  0  0  0  0  0  0  0  0
    0.9714    7.0904   15.7475 H   0  0  0  0  0  0  0  0  0  0  0  0
    2.2180    6.1599   15.3607 H   0  0  0  0  0  0  0  0  0  0  0  0
    2.1318    7.8959   14.2299 C   0  0  0  0  0  0  0  0  0  0  0  0
    2.7641    8.3745   14.8209 H   0  0  0  0  0  0  0  0  0  0  0  0
    1.4234    8.5336   13.9581 H   0  0  0  0  0  0  0  0  0  0  0  0
    2.8690    7.3998   12.9941 C   0  0  0  0  0  0  0  0  0  0  0  0
    3.6465    6.8520   13.2738 H   0  0  0  0  0  0  0  0  0  0  0  0
    3.2102    8.1755   12.4832 H   0  0  0  0  0  0  0  0  0  0  0  0
    1.9594    6.5637   12.0975 C   0  0  0  0  0  0  0  0  0  0  0  0
    2.4785    6.2290   11.3229 H   0  0  0  0  0  0  0  0  0  0  0  0
    1.2273    7.1352   11.7500 H   0  0  0  0  0  0  0  0  0  0  0  0
    0.1613    2.3373   13.8131 C   0  0  0  0  0  0  0  0  0  0  0  0
    0.6594    1.5298   14.0962 H   0  0  0  0  0  0  0  0  0  0  0  0
    0.4961    3.0949   14.3555 H   0  0  0  0  0  0  0  0  0  0  0  0
   -1.3195    2.1269   14.1491 C   0  0  0  0  0  0  0  0  0  0  0  0
   -1.6455    1.3558   13.6010 H   0  0  0  0  0  0  0  0  0  0  0  0
   -2.2117    3.3278   13.8303 C   0  0  0  0  0  0  0  0  0  0  0  0
   -2.1718    3.5172   12.8594 H   0  0  0  0  0  0  0  0  0  0  0  0
   -1.8721    4.1242   14.3108 H   0  0  0  0  0  0  0  0  0  0  0  0
   -3.6635    3.0733   14.2377 C   0  0  0  0  0  0  0  0  0  0  0  0
   -4.1979    3.8913   14.0750 H   0  0  0  0  0  0  0  0  0  0  0  0
   -4.0389    2.3487   13.6775 H   0  0  0  0  0  0  0  0  0  0  0  0
   -3.7744    2.6842   15.7045 C   0  0  0  0  0  0  0  0  0  0  0  0
   -3.4963    3.4492   16.2681 H   0  0  0  0  0  0  0  0  0  0  0  0
   -4.7173    2.4734   15.9175 H   0  0  0  0  0  0  0  0  0  0  0  0
   -2.9030    1.4780   16.0208 C   0  0  0  0  0  0  0  0  0  0  0  0
   -3.2442    0.6881   15.5328 H   0  0  0  0  0  0  0  0  0  0  0  0
   -2.9477    1.2837   16.9907 H   0  0  0  0  0  0  0  0  0  0  0  0
   -1.4539    1.7342   15.6214 C   0  0  0  0  0  0  0  0  0  0  0  0
   -0.9217    0.9176   15.7900 H   0  0  0  0  0  0  0  0  0  0  0  0
   -1.0846    2.4588   16.1852 H   0  0  0  0  0  0  0  0  0  0  0  0
    0.1271   -1.0306   12.9104 C   0  0  0  0  0  0  0  0  0  0  0  0
    1.0577   -0.7002   12.9847 H   0  0  0  0  0  0  0  0  0  0  0  0
   -0.4299   -0.4317   13.4693 H   0  0  0  0  0  0  0  0  0  0  0  0
    0.1008   -2.4112   13.5957 C   0  0  0  0  0  0  0  0  0  0  0  0
   -0.7100   -2.9044   13.2801 H   0  0  0  0  0  0  0  0  0  0  0  0
   -0.0138   -2.2117   15.1105 C   0  0  0  0  0  0  0  0  0  0  0  0
    0.7083   -1.6047   15.4074 H   0  0  0  0  0  0  0  0  0  0  0  0
   -0.8784   -1.7718   15.3097 H   0  0  0  0  0  0  0  0  0  0  0  0
    0.0721   -3.5028   15.9119 C   0  0  0  0  0  0  0  0  0  0  0  0
    0.0848   -3.2881   16.8780 H   0  0  0  0  0  0  0  0  0  0  0  0
   -0.7317   -4.0533   15.7326 H   0  0  0  0  0  0  0  0  0  0  0  0
    1.3170   -4.3002   15.5579 C   0  0  0  0  0  0  0  0  0  0  0  0
    1.3134   -5.1601   16.0492 H   0  0  0  0  0  0  0  0  0  0  0  0
    2.1247   -3.7948   15.8282 H   0  0  0  0  0  0  0  0  0  0  0  0
    1.3589   -4.5671   14.0614 C   0  0  0  0  0  0  0  0  0  0  0  0
    0.5802   -5.1216   13.8029 H   0  0  0  0  0  0  0  0  0  0  0  0
    2.1808   -5.0717   13.8391 H   0  0  0  0  0  0  0  0  0  0  0  0
    1.3340   -3.2578   13.2742 C   0  0  0  0  0  0  0  0  0  0  0  0
    1.3448   -3.4617   12.3047 H   0  0  0  0  0  0  0  0  0  0  0  0
    2.1497   -2.7365   13.4842 H   0  0  0  0  0  0  0  0  0  0  0  0
   -1.8855   -1.7798   10.9361 C   0  0  0  0  0  0  0  0  0  0  0  0
   -1.9985   -1.9459    9.9670 H   0  0  0  0  0  0  0  0  0  0  0  0
   -1.7154   -2.6553   11.3654 H   0  0  0  0  0  0  0  0  0  0  0  0
   -3.2144   -1.2356   11.4808 C   0  0  0  0  0  0  0  0  0  0  0  0
   -3.2590   -0.2597   11.2655 H   0  0  0  0  0  0  0  0  0  0  0  0
   -3.3751   -1.3946   12.9928 C   0  0  0  0  0  0  0  0  0  0  0  0
   -3.2853   -2.3514   13.2313 H   0  0  0  0  0  0  0  0  0  0  0  0
   -2.6542   -0.8964   13.4523 H   0  0  0  0  0  0  0  0  0  0  0  0
   -4.7314   -0.8793   13.4742 C   0  0  0  0  0  0  0  0  0  0  0  0
   -4.8119   -1.0290   14.4490 H   0  0  0  0  0  0  0  0  0  0  0  0
   -4.7879    0.0949   13.3099 H   0  0  0  0  0  0  0  0  0  0  0  0
   -5.8820   -1.5780   12.7608 C   0  0  0  0  0  0  0  0  0  0  0  0
   -5.8891   -2.5362   13.0060 H   0  0  0  0  0  0  0  0  0  0  0  0
   -6.7408   -1.1803   13.0506 H   0  0  0  0  0  0  0  0  0  0  0  0
   -5.7460   -1.4430   11.2540 C   0  0  0  0  0  0  0  0  0  0  0  0
   -5.8645   -0.4942   10.9977 H   0  0  0  0  0  0  0  0  0  0  0  0
   -6.4585   -1.9695   10.8128 H   0  0  0  0  0  0  0  0  0  0  0  0
   -4.3836   -1.9304   10.7714 C   0  0  0  0  0  0  0  0  0  0  0  0
   -4.3107   -1.7709    9.7970 H   0  0  0  0  0  0  0  0  0  0  0  0
   -4.3182   -2.9058   10.9233 H   0  0  0  0  0  0  0  0  0  0  0  0
    0.9302   -1.6472   10.2431 C   0  0  0  0  0  0  0  0  0  0  0  0
    1.7942   -1.3992   10.6577 H   0  0  0  0  0  0  0  0  0  0  0  0
    0.7963   -2.6122   10.4197 H   0  0  0  0  0  0  0  0  0  0  0  0
    1.0971   -1.4850    8.7183 C   0  0  0  0  0  0  0  0  0  0  0  0
    1.0226   -0.5137    8.4900 H   0  0  0  0  0  0  0  0  0  0  0  0
    0.0399   -2.2522    7.9275 C   0  0  0  0  0  0  0  0  0  0  0  0
    0.0204   -3.1920    8.2393 H   0  0  0  0  0  0  0  0  0  0  0  0
   -0.8493   -1.8550    8.1054 H   0  0  0  0  0  0  0  0  0  0  0  0
    0.3043   -2.2304    6.4248 C   0  0  0  0  0  0  0  0  0  0  0  0
   -0.3797   -2.7776    5.9632 H   0  0  0  0  0  0  0  0  0  0  0  0
    0.2261   -1.3018    6.0928 H   0  0  0  0  0  0  0  0  0  0  0  0
    1.6893   -2.7686    6.0911 C   0  0  0  0  0  0  0  0  0  0  0  0
    1.7474   -3.7212    6.3521 H   0  0  0  0  0  0  0  0  0  0  0  0
    1.8441   -2.7055    5.1153 H   0  0  0  0  0  0  0  0  0  0  0  0
    2.7513   -1.9700    6.8296 C   0  0  0  0  0  0  0  0  0  0  0  0
    2.7524   -1.0369    6.4966 H   0  0  0  0  0  0  0  0  0  0  0  0
    3.6431   -2.3591    6.6454 H   0  0  0  0  0  0  0  0  0  0  0  0
    2.4992   -1.9714    8.3319 C   0  0  0  0  0  0  0  0  0  0  0  0
    3.1708   -1.3916    8.7705 H   0  0  0  0  0  0  0  0  0  0  0  0
    2.6241   -2.8900    8.6770 H   0  0  0  0  0  0  0  0  0  0  0  0
  1  2  1  0  0  0  0
  2 30  1  0  0  0  0
  3  1  1  0  0  0  0
  4  1  1  0  0  0  0
  5  4  1  0  0  0  0
  6  5  1  0  0  0  0
  7  6  4  0  0  0  0
  8  7  1  0  0  0  0
  9  7  4  0  0  0  0
 10  9  1  0  0  0  0
 11  9  4  0  0  0  0
 12 11  1  0  0  0  0
 13 11  4  0  0  0  0
 14 13  1  0  0  0  0
 15  6  4  0  0  0  0
 16  4  1  0  0  0  0
 17  1  1  0  0  0  0
 18 17  1  0  0  0  0
 19 18  1  0  0  0  0
 20 19  4  0  0  0  0
 21 20  1  0  0  0  0
 22 20  4  0  0  0  0
 23 22  1  0  0  0  0
 24 22  4  0  0  0  0
 25 24  1  0  0  0  0
 26 24  4  0  0  0  0
 27 26  1  0  0  0  0
 28 19  4  0  0  0  0
 29 17  1  0  0  0  0
 30 31  1  0  0  0  0
 32 30  1  0  0  0  0
 33 30  1  0  0  0  0
 34 33  1  0  0  0  0
 35 33  1  0  0  0  0
 36 35  1  0  0  0  0
 37 35  1  0  0  0  0
 38 35  1  0  0  0  0
 39 38  1  0  0  0  0
 40 38  1  0  0  0  0
 41 38  1  0  0  0  0
 42 41  1  0  0  0  0
 43 41  1  0  0  0  0
 44 41  1  0  0  0  0
 45 44  1  0  0  0  0
 46 44  1  0  0  0  0
 47 33  1  0  0  0  0
 48 47  1  0  0  0  0
 49 47  1  0  0  0  0
 50  2  1  0  0  0  0
 51 50  1  0  0  0  0
 52 50  1  0  0  0  0
 53 50  1  0  0  0  0
 54 53  1  0  0  0  0
 55 53  1  0  0  0  0
 56 55  1  0  0  0  0
 57 55  1  0  0  0  0
 58 55  1  0  0  0  0
 59 58  1  0  0  0  0
 60 58  1  0  0  0  0
 61 58  1  0  0  0  0
 62 61  1  0  0  0  0
 63 61  1  0  0  0  0
 64 61  1  0  0  0  0
 65 64  1  0  0  0  0
 66 64  1  0  0  0  0
 67 53  1  0  0  0  0
 68 67  1  0  0  0  0
 69 67  1  0  0  0  0
 70  2  1  0  0  0  0
 71 70  1  0  0  0  0
 72 70  1  0  0  0  0
 73 70  1  0  0  0  0
 74 73  1  0  0  0  0
 75 73  1  0  0  0  0
 76 75  1  0  0  0  0
 77 75  1  0  0  0  0
 78 75  1  0  0  0  0
 79 78  1  0  0  0  0
 80 78  1  0  0  0  0
 81 78  1  0  0  0  0
 82 81  1  0  0  0  0
 83 81  1  0  0  0  0
 84 81  1  0  0  0  0
 85 84  1  0  0  0  0
 86 84  1  0  0  0  0
 87 73  1  0  0  0  0
 88 87  1  0  0  0  0
 89 87  1  0  0  0  0
 90  3  1  0  0  0  0
 91 90  1  0  0  0  0
 92 90  1  0  0  0  0
 93 90  1  0  0  0  0
 94 93  1  0  0  0  0
 95 93  1  0  0  0  0
 96 95  1  0  0  0  0
 97 95  1  0  0  0  0
 98 95  1  0  0  0  0
 99 98  1  0  0  0  0
100 98  1  0  0  0  0
101 98  1  0  0  0  0
102101  1  0  0  0  0
103101  1  0  0  0  0
104101  1  0  0  0  0
105104  1  0  0  0  0
106104  1  0  0  0  0
107 93  1  0  0  0  0
108107  1  0  0  0  0
109107  1  0  0  0  0
110  3  1  0  0  0  0
111110  1  0  0  0  0
112110  1  0  0  0  0
113110  1  0  0  0  0
114113  1  0  0  0  0
115113  1  0  0  0  0
116115  1  0  0  0  0
117115  1  0  0  0  0
118115  1  0  0  0  0
119118  1  0  0  0  0
120118  1  0  0  0  0
121118  1  0  0  0  0
122121  1  0  0  0  0
123121  1  0  0  0  0
124121  1  0  0  0  0
125124  1  0  0  0  0
126124  1  0  0  0  0
127113  1  0  0  0  0
128127  1  0  0  0  0
129127  1  0  0  0  0
130  3  1  0  0  0  0
131130  1  0  0  0  0
132130  1  0  0  0  0
133130  1  0  0  0  0
134133  1  0  0  0  0
135133  1  0  0  0  0
136135  1  0  0  0  0
137135  1  0  0  0  0
138135  1  0  0  0  0
139138  1  0  0  0  0
140138  1  0  0  0  0
141138  1  0  0  0  0
142141  1  0  0  0  0
143141  1  0  0  0  0
144141  1  0  0  0  0
145144  1  0  0  0  0
146144  1  0  0  0  0
147133  1  0  0  0  0
148147  1  0  0  0  0
149147  1  0  0  0  0
 13 15  4  0  0  0  0
 15 16  1  0  0  0  0
 26 28  4  0  0  0  0
 28 29  1  0  0  0  0
 44 47  1  0  0  0  0
 64 67  1  0  0  0  0
 84 87  1  0  0  0  0
104107  1  0  0  0  0
124127  1  0  0  0  0
144147  1  0  0  0  0
M  END
$$$$
GEFLOT

From CSD data. Using bond type 'Any'. No disordered atoms. Largest molecule.
143154  0  0  0  0  0  0  0  0999 V2000
    4.3944    3.9878    9.1384 Co  0  0  0  0  0  0  0  0  0  0  0  0
    4.8584    4.7319    7.4305 O   0  0  0  0  0  0  0  0  0  0  0  0
    5.0508    5.1199    5.9958 P   0  0  0  0  0  0  0  0  0  0  0  0
    5.0183    6.8960    5.8143 C   0  0  0  0  0  0  0  0  0  0  0  0
    5.4259    7.6929    6.8903 C   0  0  0  0  0  0  0  0  0  0  0  0
    5.4023    9.0826    6.7766 C   0  0  0  0  0  0  0  0  0  0  0  0
    4.9709    9.6295    5.5709 C   0  0  0  0  0  0  0  0  0  0  0  0
    4.5720    8.8758    4.5103 C   0  0  0  0  0  0  0  0  0  0  0  0
    4.5887    7.4966    4.6319 C   0  0  0  0  0  0  0  0  0  0  0  0
    4.9324   10.9713    5.4675 F   0  0  0  0  0  0  0  0  0  0  0  0
    3.7255    4.4477    5.0014 C   0  0  0  0  0  0  0  0  0  0  0  0
    2.4452    4.4137    5.5527 C   0  0  0  0  0  0  0  0  0  0  0  0
    1.3798    3.8824    4.8505 C   0  0  0  0  0  0  0  0  0  0  0  0
    1.6342    3.3695    3.6036 C   0  0  0  0  0  0  0  0  0  0  0  0
    2.8806    3.3459    3.0344 C   0  0  0  0  0  0  0  0  0  0  0  0
    3.9341    3.9086    3.7427 C   0  0  0  0  0  0  0  0  0  0  0  0
    0.6063    2.7754    2.9384 F   0  0  0  0  0  0  0  0  0  0  0  0
    6.5977    4.4857    5.3593 C   0  0  0  0  0  0  0  0  0  0  0  0
    7.0285    3.2360    5.8138 C   0  0  0  0  0  0  0  0  0  0  0  0
    8.1826    2.6668    5.3030 C   0  0  0  0  0  0  0  0  0  0  0  0
    8.8705    3.3603    4.3422 C   0  0  0  0  0  0  0  0  0  0  0  0
    8.4971    4.6048    3.8840 C   0  0  0  0  0  0  0  0  0  0  0  0
    7.3455    5.1779    4.4120 C   0  0  0  0  0  0  0  0  0  0  0  0
    9.9824    2.7911    3.8190 F   0  0  0  0  0  0  0  0  0  0  0  0
    3.7937    5.5742   10.0807 O   0  0  0  0  0  0  0  0  0  0  0  0
    2.9266    6.6221   10.6964 P   0  0  0  0  0  0  0  0  0  0  0  0
    2.4583    7.8368    9.4933 C   0  0  0  0  0  0  0  0  0  0  0  0
    2.3543    7.4338    8.1716 C   0  0  0  0  0  0  0  0  0  0  0  0
    1.8698    8.2909    7.1977 C   0  0  0  0  0  0  0  0  0  0  0  0
    1.4987    9.5419    7.5705 C   0  0  0  0  0  0  0  0  0  0  0  0
    1.5773    9.9920    8.8677 C   0  0  0  0  0  0  0  0  0  0  0  0
    2.0576    9.1323    9.8320 C   0  0  0  0  0  0  0  0  0  0  0  0
    1.0257   10.3877    6.6214 F   0  0  0  0  0  0  0  0  0  0  0  0
    3.8107    7.3566   12.0545 C   0  0  0  0  0  0  0  0  0  0  0  0
    5.1531    7.6628   11.8597 C   0  0  0  0  0  0  0  0  0  0  0  0
    5.9174    8.1954   12.9010 C   0  0  0  0  0  0  0  0  0  0  0  0
    5.2969    8.3943   14.1151 C   0  0  0  0  0  0  0  0  0  0  0  0
    3.9977    8.0815   14.3489 C   0  0  0  0  0  0  0  0  0  0  0  0
    3.2434    7.5634   13.3115 C   0  0  0  0  0  0  0  0  0  0  0  0
    6.0211    8.9164   15.1307 F   0  0  0  0  0  0  0  0  0  0  0  0
    1.3948    5.9028   11.2834 C   0  0  0  0  0  0  0  0  0  0  0  0
    1.4555    4.8023   12.1405 C   0  0  0  0  0  0  0  0  0  0  0  0
    0.3022    4.1284   12.5141 C   0  0  0  0  0  0  0  0  0  0  0  0
   -0.8991    4.5904   12.0285 C   0  0  0  0  0  0  0  0  0  0  0  0
   -1.0041    5.6594   11.1878 C   0  0  0  0  0  0  0  0  0  0  0  0
    0.1509    6.3229   10.8102 C   0  0  0  0  0  0  0  0  0  0  0  0
   -2.0287    3.9405   12.4082 F   0  0  0  0  0  0  0  0  0  0  0  0
    5.6595    2.8196   10.0165 O   0  0  0  0  0  0  0  0  0  0  0  0
    7.0249    2.8199   10.5979 B   0  0  0  0  0  0  0  0  0  0  0  0
    7.3645    1.1816   10.8056 C   0  0  0  0  0  0  0  0  0  0  0  0
    7.3035    0.3363    9.6834 C   0  0  0  0  0  0  0  0  0  0  0  0
    7.4512   -1.0364    9.7627 C   0  0  0  0  0  0  0  0  0  0  0  0
    7.6764   -1.6226   10.9811 C   0  0  0  0  0  0  0  0  0  0  0  0
    7.7368   -0.8466   12.1134 C   0  0  0  0  0  0  0  0  0  0  0  0
    7.5735    0.5260   12.0083 C   0  0  0  0  0  0  0  0  0  0  0  0
    7.1085    0.8434    8.4721 F   0  0  0  0  0  0  0  0  0  0  0  0
    7.3646   -1.7900    8.6544 F   0  0  0  0  0  0  0  0  0  0  0  0
    7.8091   -2.9610   11.0796 F   0  0  0  0  0  0  0  0  0  0  0  0
    7.9341   -1.4253   13.3083 F   0  0  0  0  0  0  0  0  0  0  0  0
    7.6442    1.1995   13.1665 F   0  0  0  0  0  0  0  0  0  0  0  0
    7.1069    3.6757   11.9972 C   0  0  0  0  0  0  0  0  0  0  0  0
    6.0033    3.8523   12.8194 C   0  0  0  0  0  0  0  0  0  0  0  0
    6.0041    4.6270   13.9606 C   0  0  0  0  0  0  0  0  0  0  0  0
    7.1583    5.2773   14.3448 C   0  0  0  0  0  0  0  0  0  0  0  0
    8.2881    5.1229   13.5876 C   0  0  0  0  0  0  0  0  0  0  0  0
    8.2475    4.3404   12.4481 C   0  0  0  0  0  0  0  0  0  0  0  0
    4.8448    3.2256   12.5431 F   0  0  0  0  0  0  0  0  0  0  0  0
    4.8974    4.7592   14.6891 F   0  0  0  0  0  0  0  0  0  0  0  0
    7.1678    6.0417   15.4517 F   0  0  0  0  0  0  0  0  0  0  0  0
    9.4423    5.7305   13.9452 F   0  0  0  0  0  0  0  0  0  0  0  0
    9.4198    4.2134   11.7755 F   0  0  0  0  0  0  0  0  0  0  0  0
    8.0859    3.4977    9.4953 C   0  0  0  0  0  0  0  0  0  0  0  0
    7.8214    4.7879    9.0740 C   0  0  0  0  0  0  0  0  0  0  0  0
    8.6120    5.5194    8.2100 C   0  0  0  0  0  0  0  0  0  0  0  0
    9.7542    4.9345    7.7267 C   0  0  0  0  0  0  0  0  0  0  0  0
   10.0871    3.6691    8.0940 C   0  0  0  0  0  0  0  0  0  0  0  0
    9.2615    2.9665    8.9744 C   0  0  0  0  0  0  0  0  0  0  0  0
    6.7143    5.4048    9.5522 F   0  0  0  0  0  0  0  0  0  0  0  0
    8.2827    6.7463    7.8493 F   0  0  0  0  0  0  0  0  0  0  0  0
   10.5432    5.6123    6.8661 F   0  0  0  0  0  0  0  0  0  0  0  0
   11.1931    3.0751    7.5986 F   0  0  0  0  0  0  0  0  0  0  0  0
    9.6916    1.7315    9.2961 F   0  0  0  0  0  0  0  0  0  0  0  0
    2.6595    2.9617    9.2878 O   0  0  0  0  0  0  0  0  0  0  0  0
    2.1119    1.5349    9.1756 B   0  0  0  0  0  0  0  0  0  0  0  0
    3.0208    0.6045   10.1922 C   0  0  0  0  0  0  0  0  0  0  0  0
    3.0539    0.9251   11.5526 C   0  0  0  0  0  0  0  0  0  0  0  0
    3.6814    0.1753   12.5239 C   0  0  0  0  0  0  0  0  0  0  0  0
    4.3024   -0.9932   12.1562 C   0  0  0  0  0  0  0  0  0  0  0  0
    4.3091   -1.3727   10.8319 C   0  0  0  0  0  0  0  0  0  0  0  0
    3.6980   -0.5653    9.8906 C   0  0  0  0  0  0  0  0  0  0  0  0
    2.3792    2.0100   11.9883 F   0  0  0  0  0  0  0  0  0  0  0  0
    3.6699    0.5599   13.8105 F   0  0  0  0  0  0  0  0  0  0  0  0
    4.8978   -1.7568   13.0906 F   0  0  0  0  0  0  0  0  0  0  0  0
    4.9082   -2.5182   10.4674 F   0  0  0  0  0  0  0  0  0  0  0  0
    3.7812   -1.0132    8.6154 F   0  0  0  0  0  0  0  0  0  0  0  0
    2.2097    1.0782    7.5948 C   0  0  0  0  0  0  0  0  0  0  0  0
    3.4079    1.2222    6.9154 C   0  0  0  0  0  0  0  0  0  0  0  0
    3.6158    0.8715    5.6033 C   0  0  0  0  0  0  0  0  0  0  0  0
    2.5692    0.3520    4.8816 C   0  0  0  0  0  0  0  0  0  0  0  0
    1.3541    0.1819    5.4893 C   0  0  0  0  0  0  0  0  0  0  0  0
    1.1978    0.5234    6.8223 C   0  0  0  0  0  0  0  0  0  0  0  0
    4.4820    1.7124    7.5930 F   0  0  0  0  0  0  0  0  0  0  0  0
    4.8144    1.0285    5.0229 F   0  0  0  0  0  0  0  0  0  0  0  0
    2.7326    0.0277    3.5849 F   0  0  0  0  0  0  0  0  0  0  0  0
    0.3123   -0.3201    4.7952 F   0  0  0  0  0  0  0  0  0  0  0  0
   -0.0308    0.2680    7.3329 F   0  0  0  0  0  0  0  0  0  0  0  0
    0.5233    1.5493    9.6690 C   0  0  0  0  0  0  0  0  0  0  0  0
   -0.3443    2.5438    9.2658 C   0  0  0  0  0  0  0  0  0  0  0  0
   -1.6860    2.6014    9.5891 C   0  0  0  0  0  0  0  0  0  0  0  0
   -2.2284    1.6003   10.3714 C   0  0  0  0  0  0  0  0  0  0  0  0
   -1.4264    0.5692   10.7826 C   0  0  0  0  0  0  0  0  0  0  0  0
   -0.0906    0.5574   10.4305 C   0  0  0  0  0  0  0  0  0  0  0  0
    0.1152    3.5569    8.4835 F   0  0  0  0  0  0  0  0  0  0  0  0
   -2.4602    3.6143    9.1794 F   0  0  0  0  0  0  0  0  0  0  0  0
   -3.5216    1.6459   10.7285 F   0  0  0  0  0  0  0  0  0  0  0  0
   -1.9445   -0.4308   11.5242 F   0  0  0  0  0  0  0  0  0  0  0  0
    0.6010   -0.5290   10.8476 F   0  0  0  0  0  0  0  0  0  0  0  0
    5.2168    2.1329   10.1358 H   0  0  0  0  0  0  0  0  0  0  0  0
    2.2527    3.4545    9.6303 H   0  0  0  0  0  0  0  0  0  0  0  0
    5.7350    7.2650    7.7396 H   0  0  0  0  0  0  0  0  0  0  0  0
    5.6861    9.6675    7.5374 H   0  0  0  0  0  0  0  0  0  0  0  0
    4.2741    9.3090    3.6600 H   0  0  0  0  0  0  0  0  0  0  0  0
    4.2904    6.9274    3.8648 H   0  0  0  0  0  0  0  0  0  0  0  0
    2.2947    4.7788    6.4707 H   0  0  0  0  0  0  0  0  0  0  0  0
    0.4568    3.8720    5.2373 H   0  0  0  0  0  0  0  0  0  0  0  0
    3.0278    2.9351    2.1359 H   0  0  0  0  0  0  0  0  0  0  0  0
    4.8493    3.9256    3.3415 H   0  0  0  0  0  0  0  0  0  0  0  0
    6.5007    2.7506    6.5112 H   0  0  0  0  0  0  0  0  0  0  0  0
    8.5053    1.7770    5.6240 H   0  0  0  0  0  0  0  0  0  0  0  0
    9.0381    5.0811    3.1924 H   0  0  0  0  0  0  0  0  0  0  0  0
    7.0555    6.0860    4.1125 H   0  0  0  0  0  0  0  0  0  0  0  0
    2.6345    6.5074    7.9166 H   0  0  0  0  0  0  0  0  0  0  0  0
    1.7955    7.9952    6.2458 H   0  0  0  0  0  0  0  0  0  0  0  0
    1.2920   10.9211    9.1045 H   0  0  0  0  0  0  0  0  0  0  0  0
    2.1204    9.4385   10.7829 H   0  0  0  0  0  0  0  0  0  0  0  0
    5.5748    7.5006   10.9674 H   0  0  0  0  0  0  0  0  0  0  0  0
    6.8809    8.4244   12.7696 H   0  0  0  0  0  0  0  0  0  0  0  0
    3.5928    8.2229   15.2517 H   0  0  0  0  0  0  0  0  0  0  0  0
    2.2816    7.3357   13.4647 H   0  0  0  0  0  0  0  0  0  0  0  0
    2.3409    4.4961   12.4890 H   0  0  0  0  0  0  0  0  0  0  0  0
    0.3420    3.3315   13.1184 H   0  0  0  0  0  0  0  0  0  0  0  0
   -1.8966    5.9578   10.8511 H   0  0  0  0  0  0  0  0  0  0  0  0
    0.0941    7.1093   10.1940 H   0  0  0  0  0  0  0  0  0  0  0  0
  1  2  1  0  0  0  0
  2  3  2  0  0  0  0
  3  4  1  0  0  0  0
  4  5  4  0  0  0  0
  5  6  4  0  0  0  0
  6  7  4  0  0  0  0
  7  8  4  0  0  0  0
  8  9  4  0  0  0  0
  9  4  4  0  0  0  0
 10  7  1  0  0  0  0
 11  3  1  0  0  0  0
 12 11  4  0  0  0  0
 13 12  4  0  0  0  0
 14 13  4  0  0  0  0
 15 14  4  0  0  0  0
 16 11  4  0  0  0  0
 17 14  1  0  0  0  0
 18  3  1  0  0  0  0
 19 18  4  0  0  0  0
 20 19  4  0  0  0  0
 21 20  4  0  0  0  0
 22 21  4  0  0  0  0
 23 18  4  0  0  0  0
 24 21  1  0  0  0  0
 25  1  1  0  0  0  0
 26 25  2  0  0  0  0
 27 26  1  0  0  0  0
 28 27  4  0  0  0  0
 29 28  4  0  0  0  0
 30 29  4  0  0  0  0
 31 30  4  0  0  0  0
 32 27  4  0  0  0  0
 33 30  1  0  0  0  0
 34 26  1  0  0  0  0
 35 34  4  0  0  0  0
 36 35  4  0  0  0  0
 37 36  4  0  0  0  0
 38 37  4  0  0  0  0
 39 34  4  0  0  0  0
 40 37  1  0  0  0  0
 41 26  1  0  0  0  0
 42 41  4  0  0  0  0
 43 42  4  0  0  0  0
 44 43  4  0  0  0  0
 45 44  4  0  0  0  0
 46 41  4  0  0  0  0
 47 44  1  0  0  0  0
 48  1  1  0  0  0  0
 49 48  1  0  0  0  0
 50 49  1  0  0  0  0
 51 50  4  0  0  0  0
 52 51  4  0  0  0  0
 53 52  4  0  0  0  0
 54 53  4  0  0  0  0
 55 50  4  0  0  0  0
 56 51  1  0  0  0  0
 57 52  1  0  0  0  0
 58 53  1  0  0  0  0
 59 54  1  0  0  0  0
 60 55  1  0  0  0  0
 61 49  1  0  0  0  0
 62 61  4  0  0  0  0
 63 62  4  0  0  0  0
 64 63  4  0  0  0  0
 65 64  4  0  0  0  0
 66 61  4  0  0  0  0
 67 62  1  0  0  0  0
 68 63  1  0  0  0  0
 69 64  1  0  0  0  0
 70 65  1  0  0  0  0
 71 66  1  0  0  0  0
 72 49  1  0  0  0  0
 73 72  4  0  0  0  0
 74 73  4  0  0  0  0
 75 74  4  0  0  0  0
 76 75  4  0  0  0  0
 77 72  4  0  0  0  0
 78 73  1  0  0  0  0
 79 74  1  0  0  0  0
 80 75  1  0  0  0  0
 81 76  1  0  0  0  0
 82 77  1  0  0  0  0
 83  1  1  0  0  0  0
 84 83  1  0  0  0  0
 85 84  1  0  0  0  0
 86 85  4  0  0  0  0
 87 86  4  0  0  0  0
 88 87  4  0  0  0  0
 89 88  4  0  0  0  0
 90 85  4  0  0  0  0
 91 86  1  0  0  0  0
 92 87  1  0  0  0  0
 93 88  1  0  0  0  0
 94 89  1  0  0  0  0
 95 90  1  0  0  0  0
 96 84  1  0  0  0  0
 97 96  4  0  0  0  0
 98 97  4  0  0  0  0
 99 98  4  0  0  0  0
100 99  4  0  0  0  0
101 96  4  0  0  0  0
102 97  1  0  0  0  0
103 98  1  0  0  0  0
104 99  1  0  0  0  0
105100  1  0  0  0  0
106101  1  0  0  0  0
107 84  1  0  0  0  0
108107  4  0  0  0  0
109108  4  0  0  0  0
110109  4  0  0  0  0
111110  4  0  0  0  0
112107  4  0  0  0  0
113108  1  0  0  0  0
114109  1  0  0  0  0
115110  1  0  0  0  0
116111  1  0  0  0  0
117112  1  0  0  0  0
118 48  1  0  0  0  0
119 83  1  0  0  0  0
120  5  1  0  0  0  0
121  6  1  0  0  0  0
122  8  1  0  0  0  0
123  9  1  0  0  0  0
124 12  1  0  0  0  0
125 13  1  0  0  0  0
126 15  1  0  0  0  0
127 16  1  0  0  0  0
128 19  1  0  0  0  0
129 20  1  0  0  0  0
130 22  1  0  0  0  0
131 23  1  0  0  0  0
132 28  1  0  0  0  0
133 29  1  0  0  0  0
134 31  1  0  0  0  0
135 32  1  0  0  0  0
136 35  1  0  0  0  0
137 36  1  0  0  0  0
138 38  1  0  0  0  0
139 39  1  0  0  0  0
140 42  1  0  0  0  0
141 43  1  0  0  0  0
142 45  1  0  0  0  0
143 46  1  0  0  0  0
 15 16  4  0  0  0  0
 22 23  4  0  0  0  0
 31 32  4  0  0  0  0
 38 39  4  0  0  0  0
 45 46  4  0  0  0  0
 54 55  4  0  0  0  0
 65 66  4  0  0  0  0
 76 77  4  0  0  0  0
 89 90  4  0  0  0  0
100101  4  0  0  0  0
111112  4  0  0  0  0
M  END
$$$$
GEGKEM

From CSD data. Using bond type 'Any'. No disordered atoms. Largest molecule.
 80 87  0  0  0  0  0  0  0  0999 V2000
    2.1005    2.9929    2.0075 P   0  0  0  0  0  0  0  0  0  0  0  0
    8.1010    0.4988    6.6023 P   0  0  0  0  0  0  0  0  0  0  0  0
    6.5096    3.7087   -0.0568 F   0  0  0  0  0  0  0  0  0  0  0  0
    5.0645    5.0453    1.0799 F   0  0  0  0  0  0  0  0  0  0  0  0
    8.3283   -1.4502    3.3972 F   0  0  0  0  0  0  0  0  0  0  0  0
    9.1172   -0.0457    1.8062 F   0  0  0  0  0  0  0  0  0  0  0  0
    2.1147    1.7201    2.7894 O   0  0  0  0  0  0  0  0  0  0  0  0
    8.0180    1.8180    7.2919 O   0  0  0  0  0  0  0  0  0  0  0  0
    6.7647   -0.0074    2.2425 N   0  0  0  0  0  0  0  0  0  0  0  0
    4.6266    2.6903    1.0760 N   0  0  0  0  0  0  0  0  0  0  0  0
    8.3894    0.8921    3.9038 N   0  0  0  0  0  0  0  0  0  0  0  0
    6.5543    3.6053    2.3302 N   0  0  0  0  0  0  0  0  0  0  0  0
    5.0325    1.4205    1.3693 C   0  0  0  0  0  0  0  0  0  0  0  0
    6.9650    2.3460    2.6552 C   0  0  0  0  0  0  0  0  0  0  0  0
    6.2721    1.2409    2.0274 C   0  0  0  0  0  0  0  0  0  0  0  0
    7.9142    2.1537    3.6848 C   0  0  0  0  0  0  0  0  0  0  0  0
    4.2883    0.2635    1.0745 C   0  0  0  0  0  0  0  0  0  0  0  0
    3.4145    0.3402    0.7097 H   0  0  0  0  0  0  0  0  0  0  0  0
    0.4886    3.3450    1.2860 C   0  0  0  0  0  0  0  0  0  0  0  0
    6.9619    4.6676    3.0398 C   0  0  0  0  0  0  0  0  0  0  0  0
    6.6653    5.5371    2.7927 H   0  0  0  0  0  0  0  0  0  0  0  0
    4.8262   -0.9757    1.3151 C   0  0  0  0  0  0  0  0  0  0  0  0
    4.3324   -1.7555    1.0904 H   0  0  0  0  0  0  0  0  0  0  0  0
    6.0725   -1.0940    1.8794 C   0  0  0  0  0  0  0  0  0  0  0  0
    6.4478   -1.9570    2.0142 H   0  0  0  0  0  0  0  0  0  0  0  0
    8.2714    3.2750    4.4368 C   0  0  0  0  0  0  0  0  0  0  0  0
    8.8513    3.1743    5.1823 H   0  0  0  0  0  0  0  0  0  0  0  0
    3.2633    2.9501    0.6040 C   0  0  0  0  0  0  0  0  0  0  0  0
    2.9921    2.2407   -0.0304 H   0  0  0  0  0  0  0  0  0  0  0  0
    3.2386    3.8165    0.1256 H   0  0  0  0  0  0  0  0  0  0  0  0
    0.3275    4.2450    0.2485 C   0  0  0  0  0  0  0  0  0  0  0  0
    1.0816    4.7110   -0.0938 H   0  0  0  0  0  0  0  0  0  0  0  0
    7.7981    4.5205    4.1144 C   0  0  0  0  0  0  0  0  0  0  0  0
    8.0480    5.2760    4.6325 H   0  0  0  0  0  0  0  0  0  0  0  0
    6.2778   -1.4375    5.7559 C   0  0  0  0  0  0  0  0  0  0  0  0
    6.9367   -2.0837    5.9806 H   0  0  0  0  0  0  0  0  0  0  0  0
    9.1530    0.5839    5.1149 C   0  0  0  0  0  0  0  0  0  0  0  0
    9.8447    1.2799    5.2484 H   0  0  0  0  0  0  0  0  0  0  0  0
    9.6145   -0.2836    4.9959 H   0  0  0  0  0  0  0  0  0  0  0  0
    2.6269    4.3796    3.0134 C   0  0  0  0  0  0  0  0  0  0  0  0
   -0.6150    2.6538    1.7631 C   0  0  0  0  0  0  0  0  0  0  0  0
   -0.5169    2.0241    2.4689 H   0  0  0  0  0  0  0  0  0  0  0  0
    3.4870    4.1265    4.0760 C   0  0  0  0  0  0  0  0  0  0  0  0
    3.7356    3.2302    4.2690 H   0  0  0  0  0  0  0  0  0  0  0  0
   -1.8586    2.8863    1.2080 C   0  0  0  0  0  0  0  0  0  0  0  0
   -2.6123    2.4099    1.5345 H   0  0  0  0  0  0  0  0  0  0  0  0
   -0.9306    4.4711   -0.2961 C   0  0  0  0  0  0  0  0  0  0  0  0
   -1.0378    5.0925   -1.0058 H   0  0  0  0  0  0  0  0  0  0  0  0
    5.0779   -1.8338    5.1757 C   0  0  0  0  0  0  0  0  0  0  0  0
    4.9143   -2.7545    5.0052 H   0  0  0  0  0  0  0  0  0  0  0  0
    6.5053   -0.0829    6.0083 C   0  0  0  0  0  0  0  0  0  0  0  0
    4.1323   -0.8966    4.8492 C   0  0  0  0  0  0  0  0  0  0  0  0
    3.3211   -1.1683    4.4368 H   0  0  0  0  0  0  0  0  0  0  0  0
   -2.0227    3.7867    0.1996 C   0  0  0  0  0  0  0  0  0  0  0  0
   -2.8877    3.9453   -0.1626 H   0  0  0  0  0  0  0  0  0  0  0  0
    5.5285    0.8436    5.6990 C   0  0  0  0  0  0  0  0  0  0  0  0
    5.6659    1.7636    5.8894 H   0  0  0  0  0  0  0  0  0  0  0  0
    3.9874    5.1458    4.8519 C   0  0  0  0  0  0  0  0  0  0  0  0
    4.5759    4.9538    5.5722 H   0  0  0  0  0  0  0  0  0  0  0  0
    4.3497    0.4232    5.1122 C   0  0  0  0  0  0  0  0  0  0  0  0
    3.6826    1.0619    4.8889 H   0  0  0  0  0  0  0  0  0  0  0  0
    5.6474    3.8030    1.0428 B   0  0  0  0  0  0  0  0  0  0  0  0
    2.2846    5.6936    2.7530 C   0  0  0  0  0  0  0  0  0  0  0  0
    1.7104    5.8999    2.0248 H   0  0  0  0  0  0  0  0  0  0  0  0
    3.6320    6.4384    4.5796 C   0  0  0  0  0  0  0  0  0  0  0  0
    3.9795    7.1483    5.1069 H   0  0  0  0  0  0  0  0  0  0  0  0
    8.2149   -0.1808    2.8720 B   0  0  0  0  0  0  0  0  0  0  0  0
    2.7757    6.7052    3.5513 C   0  0  0  0  0  0  0  0  0  0  0  0
    2.5150    7.6028    3.3835 H   0  0  0  0  0  0  0  0  0  0  0  0
    8.7473   -0.7780    7.6948 C   0  0  0  0  0  0  0  0  0  0  0  0
    8.4031   -0.6596    9.0349 C   0  0  0  0  0  0  0  0  0  0  0  0
    7.8712    0.0742    9.3204 H   0  0  0  0  0  0  0  0  0  0  0  0
    9.5379   -1.8329    7.2837 C   0  0  0  0  0  0  0  0  0  0  0  0
    9.7815   -1.9218    6.3705 H   0  0  0  0  0  0  0  0  0  0  0  0
    9.6167   -2.6378    9.5517 C   0  0  0  0  0  0  0  0  0  0  0  0
    9.9170   -3.2737   10.1914 H   0  0  0  0  0  0  0  0  0  0  0  0
    9.9773   -2.7727    8.2287 C   0  0  0  0  0  0  0  0  0  0  0  0
   10.5222   -3.5004    7.9565 H   0  0  0  0  0  0  0  0  0  0  0  0
    8.8255   -1.5930    9.9509 C   0  0  0  0  0  0  0  0  0  0  0  0
    8.5677   -1.5130   10.8615 H   0  0  0  0  0  0  0  0  0  0  0  0
  1  7  2  0  0  0  0
  2  8  2  0  0  0  0
  3 62  1  0  0  0  0
  4 62  1  0  0  0  0
  5 67  1  0  0  0  0
  6 67  1  0  0  0  0
  9 15  4  0  0  0  0
 10 13  1  0  0  0  0
 11 16  1  0  0  0  0
 12 14  4  0  0  0  0
 13 15  4  0  0  0  0
 14 15  1  0  0  0  0
 16 14  4  0  0  0  0
 17 13  4  0  0  0  0
 18 17  1  0  0  0  0
 19  1  1  0  0  0  0
 20 12  4  0  0  0  0
 21 20  1  0  0  0  0
 22 17  4  0  0  0  0
 23 22  1  0  0  0  0
 24  9  4  0  0  0  0
 25 24  1  0  0  0  0
 26 16  4  0  0  0  0
 27 26  1  0  0  0  0
 28  1  1  0  0  0  0
 29 28  1  0  0  0  0
 30 28  1  0  0  0  0
 31 19  4  0  0  0  0
 32 31  1  0  0  0  0
 33 20  4  0  0  0  0
 34 33  1  0  0  0  0
 35 36  1  0  0  0  0
 37  2  1  0  0  0  0
 38 37  1  0  0  0  0
 39 37  1  0  0  0  0
 40  1  1  0  0  0  0
 41 19  4  0  0  0  0
 42 41  1  0  0  0  0
 43 40  4  0  0  0  0
 44 43  1  0  0  0  0
 45 41  4  0  0  0  0
 46 45  1  0  0  0  0
 47 31  4  0  0  0  0
 48 47  1  0  0  0  0
 49 35  4  0  0  0  0
 50 49  1  0  0  0  0
 51  2  1  0  0  0  0
 52 49  4  0  0  0  0
 53 52  1  0  0  0  0
 54 45  4  0  0  0  0
 55 54  1  0  0  0  0
 56 51  4  0  0  0  0
 57 56  1  0  0  0  0
 58 43  4  0  0  0  0
 59 58  1  0  0  0  0
 60 52  4  0  0  0  0
 61 60  1  0  0  0  0
 62 10  1  0  0  0  0
 63 40  4  0  0  0  0
 64 63  1  0  0  0  0
 65 58  4  0  0  0  0
 66 65  1  0  0  0  0
 67  9  1  0  0  0  0
 68 63  4  0  0  0  0
 69 68  1  0  0  0  0
 70  2  1  0  0  0  0
 71 70  4  0  0  0  0
 72 71  1  0  0  0  0
 73 70  4  0  0  0  0
 74 73  1  0  0  0  0
 75 76  1  0  0  0  0
 77 73  4  0  0  0  0
 78 77  1  0  0  0  0
 79 71  4  0  0  0  0
 80 79  1  0  0  0  0
 10 28  1  0  0  0  0
 11 37  1  0  0  0  0
 11 67  1  0  0  0  0
 12 62  1  0  0  0  0
 22 24  4  0  0  0  0
 26 33  4  0  0  0  0
 35 51  4  0  0  0  0
 47 54  4  0  0  0  0
 56 60  4  0  0  0  0
 65 68  4  0  0  0  0
 75 77  4  0  0  0  0
 75 79  4  0  0  0  0
M  END
$$$$
GEMZEE

From CSD data. Using bond type 'Any'. No disordered atoms. Largest molecule.
137168  0  0  0  0  0  0  0  0999 V2000
   -0.9835   16.6422    2.2349 Ru  0  0  0  0  0  0  0  0  0  0  0  0
    0.5405   15.0973    4.2241 Ru  0  0  0  0  0  0  0  0  0  0  0  0
   -0.4756   17.7746    0.6197 B   0  0  0  0  0  0  0  0  0  0  0  0
   -0.3558   14.7117    2.2686 B   0  0  0  0  0  0  0  0  0  0  0  0
   -1.2800   16.4404   -0.1135 B   0  0  0  0  0  0  0  0  0  0  0  0
   -2.1923   16.6158   -0.7028 H   0  0  0  0  0  0  0  0  0  0  0  0
    1.0801   17.1742    1.1555 B   0  0  0  0  0  0  0  0  0  0  0  0
    1.8555   17.8794    1.4867 H   0  0  0  0  0  0  0  0  0  0  0  0
    1.0520   15.6605    1.9969 B   0  0  0  0  0  0  0  0  0  0  0  0
   -1.2359   14.9162    0.7819 B   0  0  0  0  0  0  0  0  0  0  0  0
   -2.1695   14.3448    0.6635 H   0  0  0  0  0  0  0  0  0  0  0  0
    0.4626   16.9243   -0.5382 B   0  0  0  0  0  0  0  0  0  0  0  0
    0.8115   17.4365   -1.4474 H   0  0  0  0  0  0  0  0  0  0  0  0
    0.5020   14.3085    0.8439 B   0  0  0  0  0  0  0  0  0  0  0  0
    0.8734   13.2788    0.7298 H   0  0  0  0  0  0  0  0  0  0  0  0
   -0.0616   15.2113   -0.5632 B   0  0  0  0  0  0  0  0  0  0  0  0
   -0.1178   14.6835   -1.5260 H   0  0  0  0  0  0  0  0  0  0  0  0
    1.4628   15.6959    0.2455 B   0  0  0  0  0  0  0  0  0  0  0  0
    2.4739   15.5020   -0.1450 H   0  0  0  0  0  0  0  0  0  0  0  0
   -3.7908   24.9828    2.1143 Cl  0  0  0  0  0  0  0  0  0  0  0  0
   -1.4966   18.7596    2.6763 O   0  0  0  0  0  0  0  0  0  0  0  0
   -0.8392   19.1843    0.6057 O   0  0  0  0  0  0  0  0  0  0  0  0
   -3.1693   16.2139    3.1970 P   0  0  0  0  0  0  0  0  0  0  0  0
    1.3477   13.1520    5.1806 P   0  0  0  0  0  0  0  0  0  0  0  0
    1.6196   16.6662    5.5436 P   0  0  0  0  0  0  0  0  0  0  0  0
   -1.3764   19.5553    1.7408 C   0  0  0  0  0  0  0  0  0  0  0  0
   -1.8829   20.9384    1.8288 C   0  0  0  0  0  0  0  0  0  0  0  0
   -2.4560   21.3574    3.0179 C   0  0  0  0  0  0  0  0  0  0  0  0
   -2.4657   20.7888    3.7524 H   0  0  0  0  0  0  0  0  0  0  0  0
   -3.0104   22.6130    3.1157 C   0  0  0  0  0  0  0  0  0  0  0  0
   -3.3957   22.8991    3.9121 H   0  0  0  0  0  0  0  0  0  0  0  0
   -2.9873   23.4391    2.0150 C   0  0  0  0  0  0  0  0  0  0  0  0
   -2.3844   23.0693    0.8500 C   0  0  0  0  0  0  0  0  0  0  0  0
   -2.3523   23.6547    0.1278 H   0  0  0  0  0  0  0  0  0  0  0  0
   -1.8209   21.8120    0.7566 C   0  0  0  0  0  0  0  0  0  0  0  0
   -1.3979   21.5508   -0.0295 H   0  0  0  0  0  0  0  0  0  0  0  0
   -4.6051   16.2042    2.0696 C   0  0  0  0  0  0  0  0  0  0  0  0
   -5.7634   15.4851    2.3365 C   0  0  0  0  0  0  0  0  0  0  0  0
   -5.7809   14.8789    3.0422 H   0  0  0  0  0  0  0  0  0  0  0  0
   -6.8875   15.6648    1.5629 C   0  0  0  0  0  0  0  0  0  0  0  0
   -7.6618   15.1894    1.7570 H   0  0  0  0  0  0  0  0  0  0  0  0
   -6.8725   16.5333    0.5136 C   0  0  0  0  0  0  0  0  0  0  0  0
   -7.6411   16.6614    0.0049 H   0  0  0  0  0  0  0  0  0  0  0  0
   -5.7270   17.2172    0.2067 C   0  0  0  0  0  0  0  0  0  0  0  0
   -5.7109   17.7882   -0.5283 H   0  0  0  0  0  0  0  0  0  0  0  0
   -4.5941   17.0642    0.9857 C   0  0  0  0  0  0  0  0  0  0  0  0
   -3.8222   17.5407    0.7790 H   0  0  0  0  0  0  0  0  0  0  0  0
   -3.6296   17.5372    4.3898 C   0  0  0  0  0  0  0  0  0  0  0  0
   -2.7481   17.8529    5.4057 C   0  0  0  0  0  0  0  0  0  0  0  0
   -1.9244   17.4235    5.4480 H   0  0  0  0  0  0  0  0  0  0  0  0
   -3.0690   18.7967    6.3594 C   0  0  0  0  0  0  0  0  0  0  0  0
   -2.4845   18.9693    7.0625 H   0  0  0  0  0  0  0  0  0  0  0  0
   -4.2531   19.4791    6.2692 C   0  0  0  0  0  0  0  0  0  0  0  0
   -4.4682   20.1266    6.9027 H   0  0  0  0  0  0  0  0  0  0  0  0
   -5.1240   19.2038    5.2381 C   0  0  0  0  0  0  0  0  0  0  0  0
   -5.9214   19.6793    5.1703 H   0  0  0  0  0  0  0  0  0  0  0  0
   -4.8258   18.2318    4.3036 C   0  0  0  0  0  0  0  0  0  0  0  0
   -5.4261   18.0444    3.6172 H   0  0  0  0  0  0  0  0  0  0  0  0
   -3.3496   14.6820    4.1886 C   0  0  0  0  0  0  0  0  0  0  0  0
   -3.2178   13.4518    3.5494 C   0  0  0  0  0  0  0  0  0  0  0  0
   -3.1204   13.4155    2.6245 H   0  0  0  0  0  0  0  0  0  0  0  0
   -3.2337   12.2792    4.2952 C   0  0  0  0  0  0  0  0  0  0  0  0
   -3.1332   11.4593    3.8679 H   0  0  0  0  0  0  0  0  0  0  0  0
   -3.3959   12.3208    5.6490 C   0  0  0  0  0  0  0  0  0  0  0  0
   -3.4116   11.5310    6.1410 H   0  0  0  0  0  0  0  0  0  0  0  0
   -3.5352   13.5300    6.2825 C   0  0  0  0  0  0  0  0  0  0  0  0
   -3.6471   13.5567    7.2050 H   0  0  0  0  0  0  0  0  0  0  0  0
   -3.5112   14.7059    5.5635 C   0  0  0  0  0  0  0  0  0  0  0  0
   -3.6056   15.5194    6.0034 H   0  0  0  0  0  0  0  0  0  0  0  0
    3.0333   12.5006    4.8265 C   0  0  0  0  0  0  0  0  0  0  0  0
    3.6307   12.8161    3.6342 C   0  0  0  0  0  0  0  0  0  0  0  0
    3.2092   13.3982    3.0447 H   0  0  0  0  0  0  0  0  0  0  0  0
    4.8693   12.2659    3.3034 C   0  0  0  0  0  0  0  0  0  0  0  0
    5.2702   12.4776    2.4918 H   0  0  0  0  0  0  0  0  0  0  0  0
    5.4883   11.4202    4.1702 C   0  0  0  0  0  0  0  0  0  0  0  0
    6.3226   11.0685    3.9564 H   0  0  0  0  0  0  0  0  0  0  0  0
    4.8895   11.0859    5.3571 C   0  0  0  0  0  0  0  0  0  0  0  0
    5.3216   10.5127    5.9493 H   0  0  0  0  0  0  0  0  0  0  0  0
    3.6615   11.5900    5.6726 C   0  0  0  0  0  0  0  0  0  0  0  0
    3.2425   11.3247    6.4580 H   0  0  0  0  0  0  0  0  0  0  0  0
    1.1969   13.1489    7.0146 C   0  0  0  0  0  0  0  0  0  0  0  0
    2.2528   13.3927    7.8655 C   0  0  0  0  0  0  0  0  0  0  0  0
    3.1121   13.4937    7.5245 H   0  0  0  0  0  0  0  0  0  0  0  0
    2.0297   13.4896    9.2490 C   0  0  0  0  0  0  0  0  0  0  0  0
    2.7453   13.6435    9.8221 H   0  0  0  0  0  0  0  0  0  0  0  0
    0.7692   13.3597    9.7587 C   0  0  0  0  0  0  0  0  0  0  0  0
    0.6325   13.4307   10.6748 H   0  0  0  0  0  0  0  0  0  0  0  0
   -0.2729   13.1315    8.9431 C   0  0  0  0  0  0  0  0  0  0  0  0
   -1.1272   13.0378    9.2962 H   0  0  0  0  0  0  0  0  0  0  0  0
   -0.0743   13.0336    7.5638 C   0  0  0  0  0  0  0  0  0  0  0  0
   -0.8030   12.8901    7.0060 H   0  0  0  0  0  0  0  0  0  0  0  0
    0.4477   11.6183    4.6636 C   0  0  0  0  0  0  0  0  0  0  0  0
    0.0508   10.6158    5.5401 C   0  0  0  0  0  0  0  0  0  0  0  0
    0.1678   10.7277    6.4555 H   0  0  0  0  0  0  0  0  0  0  0  0
   -0.5164    9.4495    5.0548 C   0  0  0  0  0  0  0  0  0  0  0  0
   -0.7960    8.7953    5.6519 H   0  0  0  0  0  0  0  0  0  0  0  0
   -0.6694    9.2456    3.7298 C   0  0  0  0  0  0  0  0  0  0  0  0
   -1.0592    8.4588    3.4207 H   0  0  0  0  0  0  0  0  0  0  0  0
   -0.2415   10.2176    2.8233 C   0  0  0  0  0  0  0  0  0  0  0  0
   -0.3198   10.0720    1.9069 H   0  0  0  0  0  0  0  0  0  0  0  0
    0.2980   11.3942    3.2983 C   0  0  0  0  0  0  0  0  0  0  0  0
    0.5663   12.0499    2.6957 H   0  0  0  0  0  0  0  0  0  0  0  0
    3.2413   16.2287    6.2769 C   0  0  0  0  0  0  0  0  0  0  0  0
    4.1365   15.5255    5.4900 C   0  0  0  0  0  0  0  0  0  0  0  0
    3.8949   15.2871    4.6248 H   0  0  0  0  0  0  0  0  0  0  0  0
    5.3867   15.1724    5.9709 C   0  0  0  0  0  0  0  0  0  0  0  0
    5.9749   14.6878    5.4382 H   0  0  0  0  0  0  0  0  0  0  0  0
    5.7519   15.5465    7.2436 C   0  0  0  0  0  0  0  0  0  0  0  0
    6.5961   15.3283    7.5662 H   0  0  0  0  0  0  0  0  0  0  0  0
    4.8732   16.2435    8.0403 C   0  0  0  0  0  0  0  0  0  0  0  0
    5.1258   16.4899    8.9006 H   0  0  0  0  0  0  0  0  0  0  0  0
    3.6208   16.5780    7.5699 C   0  0  0  0  0  0  0  0  0  0  0  0
    3.0268   17.0392    8.1191 H   0  0  0  0  0  0  0  0  0  0  0  0
    0.7249   17.3468    6.9897 C   0  0  0  0  0  0  0  0  0  0  0  0
   -0.1252   16.5222    7.7024 C   0  0  0  0  0  0  0  0  0  0  0  0
   -0.3405   15.6800    7.3721 H   0  0  0  0  0  0  0  0  0  0  0  0
   -0.6575   16.9480    8.9102 C   0  0  0  0  0  0  0  0  0  0  0  0
   -1.2089   16.3770    9.3970 H   0  0  0  0  0  0  0  0  0  0  0  0
   -0.3797   18.2116    9.4009 C   0  0  0  0  0  0  0  0  0  0  0  0
   -0.7468   18.4960   10.2055 H   0  0  0  0  0  0  0  0  0  0  0  0
    0.4370   19.0258    8.6880 C   0  0  0  0  0  0  0  0  0  0  0  0
    0.6288   19.8769    9.0112 H   0  0  0  0  0  0  0  0  0  0  0  0
    0.9909   18.6170    7.4896 C   0  0  0  0  0  0  0  0  0  0  0  0
    1.5445   19.1951    7.0158 H   0  0  0  0  0  0  0  0  0  0  0  0
    2.0597   18.1801    4.5827 C   0  0  0  0  0  0  0  0  0  0  0  0
    3.3250   18.3757    4.0625 C   0  0  0  0  0  0  0  0  0  0  0  0
    3.9870   17.7405    4.2144 H   0  0  0  0  0  0  0  0  0  0  0  0
    3.6211   19.4971    3.3251 C   0  0  0  0  0  0  0  0  0  0  0  0
    4.4751   19.6055    2.9734 H   0  0  0  0  0  0  0  0  0  0  0  0
    2.6671   20.4622    3.1007 C   0  0  0  0  0  0  0  0  0  0  0  0
    2.8747   21.2273    2.6122 H   0  0  0  0  0  0  0  0  0  0  0  0
    1.4064   20.2820    3.6050 C   0  0  0  0  0  0  0  0  0  0  0  0
    0.7554   20.9299    3.4600 H   0  0  0  0  0  0  0  0  0  0  0  0
    1.0905   19.1409    4.3299 C   0  0  0  0  0  0  0  0  0  0  0  0
    0.2250   19.0193    4.6469 H   0  0  0  0  0  0  0  0  0  0  0  0
    1.7869   15.4933    2.9046 H   0  0  0  0  0  0  0  0  0  0  0  0
   -0.5568   13.9648    3.2437 H   0  0  0  0  0  0  0  0  0  0  0  0
  1  2  1  0  0  0  0
  2  4  1  0  0  0  0
  3  1  1  0  0  0  0
  4  1  1  0  0  0  0
  5  1  1  0  0  0  0
  6  5  1  0  0  0  0
  7  1  1  0  0  0  0
  8  7  1  0  0  0  0
  9  1  1  0  0  0  0
 10  1  1  0  0  0  0
 11 10  1  0  0  0  0
 12  3  1  0  0  0  0
 13 12  1  0  0  0  0
 14  4  1  0  0  0  0
 15 14  1  0  0  0  0
 16  5  1  0  0  0  0
 17 16  1  0  0  0  0
 18  7  1  0  0  0  0
 19 18  1  0  0  0  0
 20 32  1  0  0  0  0
 21  1  1  0  0  0  0
 22  3  1  0  0  0  0
 23  1  1  0  0  0  0
 24  2  1  0  0  0  0
 25  2  1  0  0  0  0
 26 21  2  0  0  0  0
 27 26  1  0  0  0  0
 28 27  4  0  0  0  0
 29 28  1  0  0  0  0
 30 28  4  0  0  0  0
 31 30  1  0  0  0  0
 32 30  4  0  0  0  0
 33 32  4  0  0  0  0
 34 33  1  0  0  0  0
 35 27  4  0  0  0  0
 36 35  1  0  0  0  0
 37 23  1  0  0  0  0
 38 37  4  0  0  0  0
 39 38  1  0  0  0  0
 40 38  4  0  0  0  0
 41 40  1  0  0  0  0
 42 40  4  0  0  0  0
 43 42  1  0  0  0  0
 44 42  4  0  0  0  0
 45 44  1  0  0  0  0
 46 37  4  0  0  0  0
 47 46  1  0  0  0  0
 48 23  1  0  0  0  0
 49 48  4  0  0  0  0
 50 49  1  0  0  0  0
 51 49  4  0  0  0  0
 52 51  1  0  0  0  0
 53 51  4  0  0  0  0
 54 53  1  0  0  0  0
 55 53  4  0  0  0  0
 56 55  1  0  0  0  0
 57 48  4  0  0  0  0
 58 57  1  0  0  0  0
 59 23  1  0  0  0  0
 60 59  4  0  0  0  0
 61 60  1  0  0  0  0
 62 60  4  0  0  0  0
 63 62  1  0  0  0  0
 64 62  4  0  0  0  0
 65 64  1  0  0  0  0
 66 64  4  0  0  0  0
 67 66  1  0  0  0  0
 68 59  4  0  0  0  0
 69 68  1  0  0  0  0
 70 24  1  0  0  0  0
 71 70  4  0  0  0  0
 72 71  1  0  0  0  0
 73 71  4  0  0  0  0
 74 73  1  0  0  0  0
 75 73  4  0  0  0  0
 76 75  1  0  0  0  0
 77 75  4  0  0  0  0
 78 77  1  0  0  0  0
 79 70  4  0  0  0  0
 80 79  1  0  0  0  0
 81 24  1  0  0  0  0
 82 81  4  0  0  0  0
 83 82  1  0  0  0  0
 84 82  4  0  0  0  0
 85 84  1  0  0  0  0
 86 84  4  0  0  0  0
 87 86  1  0  0  0  0
 88 86  4  0  0  0  0
 89 88  1  0  0  0  0
 90 81  4  0  0  0  0
 91 90  1  0  0  0  0
 92 24  1  0  0  0  0
 93 92  4  0  0  0  0
 94 93  1  0  0  0  0
 95 93  4  0  0  0  0
 96 95  1  0  0  0  0
 97 95  4  0  0  0  0
 98 97  1  0  0  0  0
 99 97  4  0  0  0  0
100 99  1  0  0  0  0
101 92  4  0  0  0  0
102101  1  0  0  0  0
103 25  1  0  0  0  0
104103  4  0  0  0  0
105104  1  0  0  0  0
106104  4  0  0  0  0
107106  1  0  0  0  0
108106  4  0  0  0  0
109108  1  0  0  0  0
110108  4  0  0  0  0
111110  1  0  0  0  0
112103  4  0  0  0  0
113112  1  0  0  0  0
114 25  1  0  0  0  0
115114  4  0  0  0  0
116115  1  0  0  0  0
117115  4  0  0  0  0
118117  1  0  0  0  0
119117  4  0  0  0  0
120119  1  0  0  0  0
121119  4  0  0  0  0
122121  1  0  0  0  0
123114  4  0  0  0  0
124123  1  0  0  0  0
125 25  1  0  0  0  0
126125  4  0  0  0  0
127126  1  0  0  0  0
128126  4  0  0  0  0
129128  1  0  0  0  0
130128  4  0  0  0  0
131130  1  0  0  0  0
132130  4  0  0  0  0
133132  1  0  0  0  0
134125  4  0  0  0  0
135134  1  0  0  0  0
136  2  1  0  0  0  0
137  2  1  0  0  0  0
  2  9  1  0  0  0  0
  3  5  1  0  0  0  0
  3  7  1  0  0  0  0
  4  9  1  0  0  0  0
  4 10  1  0  0  0  0
  4137  1  0  0  0  0
  5 10  1  0  0  0  0
  5 12  1  0  0  0  0
  7  9  1  0  0  0  0
  7 12  1  0  0  0  0
  9 14  1  0  0  0  0
  9 18  1  0  0  0  0
  9136  1  0  0  0  0
 10 14  1  0  0  0  0
 10 16  1  0  0  0  0
 12 16  1  0  0  0  0
 12 18  1  0  0  0  0
 14 16  1  0  0  0  0
 14 18  1  0  0  0  0
 16 18  1  0  0  0  0
 22 26  1  0  0  0  0
 33 35  4  0  0  0  0
 44 46  4  0  0  0  0
 55 57  4  0  0  0  0
 66 68  4  0  0  0  0
 77 79  4  0  0  0  0
 88 90  4  0  0  0  0
 99101  4  0  0  0  0
110112  4  0  0  0  0
121123  4  0  0  0  0
132134  4  0  0  0  0
M  END
$$$$
GEPSEZ

From CSD data. Using bond type 'Any'. No disordered atoms. Largest molecule.
 57 78  0  0  0  0  0  0  0  0999 V2000
    4.5228    6.9076    6.4744 Mo  0  0  0  0  0  0  0  0  0  0  0  0
    2.6944    5.8884    5.1902 P   0  0  0  0  0  0  0  0  0  0  0  0
    5.2116    7.8140    4.3111 P   0  0  0  0  0  0  0  0  0  0  0  0
    5.9281    4.0803    6.1471 O   0  0  0  0  0  0  0  0  0  0  0  0
    3.4152    5.9064    9.2566 O   0  0  0  0  0  0  0  0  0  0  0  0
    3.0291    9.6626    7.0324 O   0  0  0  0  0  0  0  0  0  0  0  0
    7.1468    8.1039    7.7506 O   0  0  0  0  0  0  0  0  0  0  0  0
    2.7645    6.3448    3.3746 C   0  0  0  0  0  0  0  0  0  0  0  0
    4.0920    7.2681    2.9146 C   0  0  0  0  0  0  0  0  0  0  0  0
    0.9181    5.9762    5.5552 C   0  0  0  0  0  0  0  0  0  0  0  0
    0.1218    4.8573    5.3391 C   0  0  0  0  0  0  0  0  0  0  0  0
   -1.2284    4.9222    5.6073 C   0  0  0  0  0  0  0  0  0  0  0  0
   -1.7841    6.0671    6.0952 C   0  0  0  0  0  0  0  0  0  0  0  0
   -1.0113    7.1690    6.3184 C   0  0  0  0  0  0  0  0  0  0  0  0
    0.3601    7.1231    6.0537 C   0  0  0  0  0  0  0  0  0  0  0  0
    6.8561    7.6395    3.5684 C   0  0  0  0  0  0  0  0  0  0  0  0
    7.3978    8.6839    2.8339 C   0  0  0  0  0  0  0  0  0  0  0  0
    8.6121    8.5074    2.1851 C   0  0  0  0  0  0  0  0  0  0  0  0
    9.2617    7.3160    2.2716 C   0  0  0  0  0  0  0  0  0  0  0  0
    8.7612    6.2956    3.0156 C   0  0  0  0  0  0  0  0  0  0  0  0
    7.5497    6.4488    3.6851 C   0  0  0  0  0  0  0  0  0  0  0  0
    5.4569    5.1131    6.2457 C   0  0  0  0  0  0  0  0  0  0  0  0
    3.8097    6.2580    8.2457 C   0  0  0  0  0  0  0  0  0  0  0  0
    3.5498    8.6736    6.8194 C   0  0  0  0  0  0  0  0  0  0  0  0
    6.1894    7.6716    7.3115 C   0  0  0  0  0  0  0  0  0  0  0  0
    4.0585    5.5911    2.5208 B   0  0  0  0  0  0  0  0  0  0  0  0
    2.3432    5.2403    2.1453 B   0  0  0  0  0  0  0  0  0  0  0  0
    1.4068    6.7319    2.4031 B   0  0  0  0  0  0  0  0  0  0  0  0
    2.5333    7.9938    2.9498 B   0  0  0  0  0  0  0  0  0  0  0  0
    3.6972    8.3029    1.6177 B   0  0  0  0  0  0  0  0  0  0  0  0
    4.6271    6.8072    1.3547 B   0  0  0  0  0  0  0  0  0  0  0  0
    3.5147    5.5296    0.8339 B   0  0  0  0  0  0  0  0  0  0  0  0
    1.8698    6.2436    0.7630 B   0  0  0  0  0  0  0  0  0  0  0  0
    1.9809    7.9671    1.2682 B   0  0  0  0  0  0  0  0  0  0  0  0
    3.2832    7.2114    0.2803 B   0  0  0  0  0  0  0  0  0  0  0  0
    2.7956    4.6323    5.0070 H   0  0  0  0  0  0  0  0  0  0  0  0
    5.0088    9.0908    4.1211 H   0  0  0  0  0  0  0  0  0  0  0  0
    0.4786    4.1063    4.9775 H   0  0  0  0  0  0  0  0  0  0  0  0
   -1.7615    4.2185    5.4118 H   0  0  0  0  0  0  0  0  0  0  0  0
   -2.6511    6.1472    6.3236 H   0  0  0  0  0  0  0  0  0  0  0  0
   -1.3589    7.8953    6.6125 H   0  0  0  0  0  0  0  0  0  0  0  0
    0.8521    7.8693    6.2336 H   0  0  0  0  0  0  0  0  0  0  0  0
    6.9077    9.4882    2.7647 H   0  0  0  0  0  0  0  0  0  0  0  0
    8.9358    9.2413    1.7267 H   0  0  0  0  0  0  0  0  0  0  0  0
    9.9381    7.2839    1.8720 H   0  0  0  0  0  0  0  0  0  0  0  0
    9.0767    5.5077    3.1609 H   0  0  0  0  0  0  0  0  0  0  0  0
    7.1729    5.7313    4.2076 H   0  0  0  0  0  0  0  0  0  0  0  0
    4.6516    4.9790    3.0917 H   0  0  0  0  0  0  0  0  0  0  0  0
    1.9357    4.3525    2.4689 H   0  0  0  0  0  0  0  0  0  0  0  0
    0.4531    6.6868    2.8806 H   0  0  0  0  0  0  0  0  0  0  0  0
    2.3586    8.6969    3.7007 H   0  0  0  0  0  0  0  0  0  0  0  0
    4.1603    9.2365    1.6090 H   0  0  0  0  0  0  0  0  0  0  0  0
    5.6730    6.8591    1.1661 H   0  0  0  0  0  0  0  0  0  0  0  0
    3.8602    4.7075    0.2474 H   0  0  0  0  0  0  0  0  0  0  0  0
    1.1295    5.8866    0.0865 H   0  0  0  0  0  0  0  0  0  0  0  0
    1.3269    8.7290    0.9066 H   0  0  0  0  0  0  0  0  0  0  0  0
    3.4883    7.4473   -0.7128 H   0  0  0  0  0  0  0  0  0  0  0  0
  1  2  1  0  0  0  0
  2  8  1  0  0  0  0
  3  1  1  0  0  0  0
  4 22  3  0  0  0  0
  5 23  3  0  0  0  0
  6 24  3  0  0  0  0
  7 25  3  0  0  0  0
  8  9  1  0  0  0  0
  9  3  1  0  0  0  0
 10  2  1  0  0  0  0
 11 10  4  0  0  0  0
 12 11  4  0  0  0  0
 13 12  4  0  0  0  0
 14 13  4  0  0  0  0
 15 10  4  0  0  0  0
 16  3  1  0  0  0  0
 17 16  4  0  0  0  0
 18 17  4  0  0  0  0
 19 18  4  0  0  0  0
 20 19  4  0  0  0  0
 21 16  4  0  0  0  0
 22  1  1  0  0  0  0
 23  1  1  0  0  0  0
 24  1  1  0  0  0  0
 25  1  1  0  0  0  0
 26  8  1  0  0  0  0
 27  8  1  0  0  0  0
 28  8  1  0  0  0  0
 29  8  1  0  0  0  0
 30  9  1  0  0  0  0
 31  9  1  0  0  0  0
 32 26  1  0  0  0  0
 33 27  1  0  0  0  0
 34 28  1  0  0  0  0
 35 30  1  0  0  0  0
 36  2  1  0  0  0  0
 37  3  1  0  0  0  0
 38 11  1  0  0  0  0
 39 12  1  0  0  0  0
 40 13  1  0  0  0  0
 41 14  1  0  0  0  0
 42 15  1  0  0  0  0
 43 17  1  0  0  0  0
 44 18  1  0  0  0  0
 45 19  1  0  0  0  0
 46 20  1  0  0  0  0
 47 21  1  0  0  0  0
 48 26  1  0  0  0  0
 49 27  1  0  0  0  0
 50 28  1  0  0  0  0
 51 29  1  0  0  0  0
 52 30  1  0  0  0  0
 53 31  1  0  0  0  0
 54 32  1  0  0  0  0
 55 33  1  0  0  0  0
 56 34  1  0  0  0  0
 57 35  1  0  0  0  0
  9 26  1  0  0  0  0
  9 29  1  0  0  0  0
 14 15  4  0  0  0  0
 20 21  4  0  0  0  0
 26 27  1  0  0  0  0
 26 31  1  0  0  0  0
 27 28  1  0  0  0  0
 27 32  1  0  0  0  0
 28 29  1  0  0  0  0
 28 33  1  0  0  0  0
 29 30  1  0  0  0  0
 29 34  1  0  0  0  0
 30 31  1  0  0  0  0
 30 34  1  0  0  0  0
 31 32  1  0  0  0  0
 31 35  1  0  0  0  0
 32 33  1  0  0  0  0
 32 35  1  0  0  0  0
 33 34  1  0  0  0  0
 33 35  1  0  0  0  0
 34 35  1  0  0  0  0
M  END
$$$$
GEQJUL

From CSD data. Using bond type 'Any'. No disordered atoms. Largest molecule.
 80 93  0  0  0  0  0  0  0  0999 V2000
    3.0932    7.5424   10.8601 Fe  0  0  0  0  0  0  0  0  0  0  0  0
    0.4416    7.3750   13.0466 P   0  0  0  0  0  0  0  0  0  0  0  0
    7.5608    4.9895    7.7030 P   0  0  0  0  0  0  0  0  0  0  0  0
    5.3314    7.3399    7.0755 O   0  0  0  0  0  0  0  0  0  0  0  0
    5.7291    7.8244    9.2603 N   0  0  0  0  0  0  0  0  0  0  0  0
    6.3158    7.7611    9.9339 H   0  0  0  0  0  0  0  0  0  0  0  0
   -0.9895    7.6047   11.8082 B   0  0  0  0  0  0  0  0  0  0  0  0
   -0.6523    8.2394   11.0301 H   0  0  0  0  0  0  0  0  0  0  0  0
   -1.2558    6.5886   11.4002 H   0  0  0  0  0  0  0  0  0  0  0  0
   -1.8071    8.0600   12.3403 H   0  0  0  0  0  0  0  0  0  0  0  0
    6.7541    4.0010    9.1086 B   0  0  0  0  0  0  0  0  0  0  0  0
    6.8145    2.9180    8.8746 H   0  0  0  0  0  0  0  0  0  0  0  0
    5.6922    4.4044    9.1307 H   0  0  0  0  0  0  0  0  0  0  0  0
    7.3432    4.2697   10.0264 H   0  0  0  0  0  0  0  0  0  0  0  0
    4.4755    8.3787    9.5921 C   0  0  0  0  0  0  0  0  0  0  0  0
    4.2639    9.2140   10.7294 C   0  0  0  0  0  0  0  0  0  0  0  0
    4.9211    9.4837   11.3601 H   0  0  0  0  0  0  0  0  0  0  0  0
    2.8834    9.5686   10.7433 C   0  0  0  0  0  0  0  0  0  0  0  0
    2.4588   10.1236   11.3868 H   0  0  0  0  0  0  0  0  0  0  0  0
    2.2508    8.9517    9.6325 C   0  0  0  0  0  0  0  0  0  0  0  0
    1.3315    9.0243    9.4042 H   0  0  0  0  0  0  0  0  0  0  0  0
    3.2335    8.2040    8.9182 C   0  0  0  0  0  0  0  0  0  0  0  0
    3.0863    7.6849    8.1363 H   0  0  0  0  0  0  0  0  0  0  0  0
    1.9081    6.6941   12.2873 C   0  0  0  0  0  0  0  0  0  0  0  0
    1.8921    5.9014   11.0902 C   0  0  0  0  0  0  0  0  0  0  0  0
    1.1256    5.6848   10.5724 H   0  0  0  0  0  0  0  0  0  0  0  0
    3.2284    5.4986   10.8181 C   0  0  0  0  0  0  0  0  0  0  0  0
    3.5082    4.9638   10.0844 H   0  0  0  0  0  0  0  0  0  0  0  0
    4.0723    6.0287   11.8250 C   0  0  0  0  0  0  0  0  0  0  0  0
    5.0133    5.9106   11.8805 H   0  0  0  0  0  0  0  0  0  0  0  0
    3.2712    6.7677   12.7389 C   0  0  0  0  0  0  0  0  0  0  0  0
    3.5814    7.2280   13.5098 H   0  0  0  0  0  0  0  0  0  0  0  0
    0.0109    6.2132   14.3745 C   0  0  0  0  0  0  0  0  0  0  0  0
    0.9637    5.3870   14.9692 C   0  0  0  0  0  0  0  0  0  0  0  0
    1.8693    5.4259   14.6849 H   0  0  0  0  0  0  0  0  0  0  0  0
    0.5895    4.5054   15.9792 C   0  0  0  0  0  0  0  0  0  0  0  0
    1.2411    3.9432   16.3812 H   0  0  0  0  0  0  0  0  0  0  0  0
   -0.7269    4.4432   16.4006 C   0  0  0  0  0  0  0  0  0  0  0  0
   -0.9765    3.8447   17.0949 H   0  0  0  0  0  0  0  0  0  0  0  0
   -1.6762    5.2522   15.8108 C   0  0  0  0  0  0  0  0  0  0  0  0
   -2.5808    5.2028   16.0961 H   0  0  0  0  0  0  0  0  0  0  0  0
   -1.3180    6.1392   14.8020 C   0  0  0  0  0  0  0  0  0  0  0  0
   -1.9768    6.6953   14.4031 H   0  0  0  0  0  0  0  0  0  0  0  0
    0.9372    8.9182   13.8568 C   0  0  0  0  0  0  0  0  0  0  0  0
    1.7734    8.9264   14.9673 C   0  0  0  0  0  0  0  0  0  0  0  0
    2.0531    8.1068   15.3577 H   0  0  0  0  0  0  0  0  0  0  0  0
    2.1999   10.1357   15.5060 C   0  0  0  0  0  0  0  0  0  0  0  0
    2.7822   10.1414   16.2567 H   0  0  0  0  0  0  0  0  0  0  0  0
    1.7772   11.3310   14.9501 C   0  0  0  0  0  0  0  0  0  0  0  0
    2.0753   12.1553   15.3168 H   0  0  0  0  0  0  0  0  0  0  0  0
    0.9281   11.3289   13.8680 C   0  0  0  0  0  0  0  0  0  0  0  0
    0.6301   12.1519   13.4987 H   0  0  0  0  0  0  0  0  0  0  0  0
    0.5025   10.1263   13.3124 C   0  0  0  0  0  0  0  0  0  0  0  0
   -0.0826   10.1280   12.5639 H   0  0  0  0  0  0  0  0  0  0  0  0
    6.0708    7.3319    8.0431 C   0  0  0  0  0  0  0  0  0  0  0  0
    7.4928    6.7961    7.9633 C   0  0  0  0  0  0  0  0  0  0  0  0
    7.9684    7.0189    8.8025 H   0  0  0  0  0  0  0  0  0  0  0  0
    7.9655    7.2468    7.2193 H   0  0  0  0  0  0  0  0  0  0  0  0
    9.3415    4.6551    7.5757 C   0  0  0  0  0  0  0  0  0  0  0  0
   10.1918    5.4452    6.8057 C   0  0  0  0  0  0  0  0  0  0  0  0
    9.8507    6.2113    6.3591 H   0  0  0  0  0  0  0  0  0  0  0  0
   11.5401    5.1164    6.6880 C   0  0  0  0  0  0  0  0  0  0  0  0
   12.1210    5.6639    6.1729 H   0  0  0  0  0  0  0  0  0  0  0  0
   12.0296    3.9913    7.3230 C   0  0  0  0  0  0  0  0  0  0  0  0
   12.9460    3.7569    7.2310 H   0  0  0  0  0  0  0  0  0  0  0  0
   11.1959    3.2095    8.0880 C   0  0  0  0  0  0  0  0  0  0  0  0
   11.5417    2.4419    8.5282 H   0  0  0  0  0  0  0  0  0  0  0  0
    9.8503    3.5350    8.2215 C   0  0  0  0  0  0  0  0  0  0  0  0
    9.2796    2.9923    8.7532 H   0  0  0  0  0  0  0  0  0  0  0  0
    6.9575    4.6422    6.0212 C   0  0  0  0  0  0  0  0  0  0  0  0
    6.9717    5.5883    4.9970 C   0  0  0  0  0  0  0  0  0  0  0  0
    7.2072    6.4888    5.1869 H   0  0  0  0  0  0  0  0  0  0  0  0
    6.6422    5.2164    3.6985 C   0  0  0  0  0  0  0  0  0  0  0  0
    6.6589    5.8627    3.0024 H   0  0  0  0  0  0  0  0  0  0  0  0
    6.2884    3.9071    3.4159 C   0  0  0  0  0  0  0  0  0  0  0  0
    6.0816    3.6528    2.5243 H   0  0  0  0  0  0  0  0  0  0  0  0
    6.2373    2.9701    4.4315 C   0  0  0  0  0  0  0  0  0  0  0  0
    5.9740    2.0775    4.2403 H   0  0  0  0  0  0  0  0  0  0  0  0
    6.5701    3.3330    5.7349 C   0  0  0  0  0  0  0  0  0  0  0  0
    6.5332    2.6871    6.4306 H   0  0  0  0  0  0  0  0  0  0  0  0
  1 15  8  0  0  0  0
  2  7  1  0  0  0  0
  3 11  1  0  0  0  0
  4 55  2  0  0  0  0
  5  6  1  0  0  0  0
  7  8  1  0  0  0  0
  9  7  1  0  0  0  0
 10  7  1  0  0  0  0
 11 12  1  0  0  0  0
 13 11  1  0  0  0  0
 14 11  1  0  0  0  0
 15  5  1  0  0  0  0
 16  1  8  0  0  0  0
 17 16  1  0  0  0  0
 18  1  8  0  0  0  0
 19 18  1  0  0  0  0
 20  1  8  0  0  0  0
 21 20  1  0  0  0  0
 22  1  8  0  0  0  0
 23 22  1  0  0  0  0
 24  1  8  0  0  0  0
 25  1  8  0  0  0  0
 26 25  1  0  0  0  0
 27  1  8  0  0  0  0
 28 27  1  0  0  0  0
 29  1  8  0  0  0  0
 30 29  1  0  0  0  0
 31  1  8  0  0  0  0
 32 31  1  0  0  0  0
 33  2  1  0  0  0  0
 34 33  4  0  0  0  0
 35 34  1  0  0  0  0
 36 34  4  0  0  0  0
 37 36  1  0  0  0  0
 38 36  4  0  0  0  0
 39 38  1  0  0  0  0
 40 38  4  0  0  0  0
 41 40  1  0  0  0  0
 42 33  4  0  0  0  0
 43 42  1  0  0  0  0
 44  2  1  0  0  0  0
 45 44  4  0  0  0  0
 46 45  1  0  0  0  0
 47 45  4  0  0  0  0
 48 47  1  0  0  0  0
 49 47  4  0  0  0  0
 50 49  1  0  0  0  0
 51 49  4  0  0  0  0
 52 51  1  0  0  0  0
 53 44  4  0  0  0  0
 54 53  1  0  0  0  0
 55  5  1  0  0  0  0
 56  3  1  0  0  0  0
 57 56  1  0  0  0  0
 58 56  1  0  0  0  0
 59  3  1  0  0  0  0
 60 59  4  0  0  0  0
 61 60  1  0  0  0  0
 62 60  4  0  0  0  0
 63 62  1  0  0  0  0
 64 62  4  0  0  0  0
 65 64  1  0  0  0  0
 66 64  4  0  0  0  0
 67 66  1  0  0  0  0
 68 59  4  0  0  0  0
 69 68  1  0  0  0  0
 70  3  1  0  0  0  0
 71 70  4  0  0  0  0
 72 71  1  0  0  0  0
 73 71  4  0  0  0  0
 74 73  1  0  0  0  0
 75 73  4  0  0  0  0
 76 75  1  0  0  0  0
 77 75  4  0  0  0  0
 78 77  1  0  0  0  0
 79 70  4  0  0  0  0
 80 79  1  0  0  0  0
  2 24  1  0  0  0  0
 15 16  4  0  0  0  0
 15 22  4  0  0  0  0
 16 18  4  0  0  0  0
 18 20  4  0  0  0  0
 20 22  4  0  0  0  0
 24 25  4  0  0  0  0
 24 31  4  0  0  0  0
 25 27  4  0  0  0  0
 27 29  4  0  0  0  0
 29 31  4  0  0  0  0
 40 42  4  0  0  0  0
 51 53  4  0  0  0  0
 55 56  1  0  0  0  0
 66 68  4  0  0  0  0
 77 79  4  0  0  0  0
M  END
$$$$
GEQPIF

From CSD data. Using bond type 'Any'. No disordered atoms. Largest molecule.
 68 93  0  0  0  0  0  0  0  0999 V2000
   11.2793    9.4086   10.0479 Ta  0  0  0  0  0  0  0  0  0  0  0  0
   10.1950    8.8004    8.4122 C   0  0  0  0  0  0  0  0  0  0  0  0
    9.8390   11.5057    9.7989 P   0  0  0  0  0  0  0  0  0  0  0  0
   10.8794   10.1874   12.4973 P   0  0  0  0  0  0  0  0  0  0  0  0
   12.9976    6.4212   10.5950 C   0  0  0  0  0  0  0  0  0  0  0  0
   11.4411    7.1498   10.6495 C   0  0  0  0  0  0  0  0  0  0  0  0
   14.1636    7.3543   10.1419 C   0  0  0  0  0  0  0  0  0  0  0  0
   14.9143    6.7592    8.9315 C   0  0  0  0  0  0  0  0  0  0  0  0
   15.2834    5.9062    9.1722 H   0  0  0  0  0  0  0  0  0  0  0  0
   14.3040    6.6492    8.1994 H   0  0  0  0  0  0  0  0  0  0  0  0
   15.6230    7.3525    8.6718 H   0  0  0  0  0  0  0  0  0  0  0  0
   15.1994    7.5420   11.2691 C   0  0  0  0  0  0  0  0  0  0  0  0
   15.5541    6.6874   11.5228 H   0  0  0  0  0  0  0  0  0  0  0  0
   15.9117    8.1052   10.9574 H   0  0  0  0  0  0  0  0  0  0  0  0
   14.7757    7.9515   12.0267 H   0  0  0  0  0  0  0  0  0  0  0  0
   13.5914    8.7047    9.7283 C   0  0  0  0  0  0  0  0  0  0  0  0
   12.9992    9.0129    8.4756 C   0  0  0  0  0  0  0  0  0  0  0  0
   12.9423    8.4093    7.7056 H   0  0  0  0  0  0  0  0  0  0  0  0
   12.6429   10.3928    8.4788 C   0  0  0  0  0  0  0  0  0  0  0  0
   12.3416   10.9080    7.7015 H   0  0  0  0  0  0  0  0  0  0  0  0
   13.0096   10.9326    9.7401 C   0  0  0  0  0  0  0  0  0  0  0  0
   12.9909   11.8812    9.9862 H   0  0  0  0  0  0  0  0  0  0  0  0
   13.5957    9.8841   10.5003 C   0  0  0  0  0  0  0  0  0  0  0  0
   13.9934    9.9805   11.3906 H   0  0  0  0  0  0  0  0  0  0  0  0
    8.1618   11.2513    9.1422 C   0  0  0  0  0  0  0  0  0  0  0  0
    7.7432   10.5233    9.6077 H   0  0  0  0  0  0  0  0  0  0  0  0
    7.6446   12.0506    9.2682 H   0  0  0  0  0  0  0  0  0  0  0  0
    8.2121   11.0466    8.2063 H   0  0  0  0  0  0  0  0  0  0  0  0
   10.4144   12.9045    8.7835 C   0  0  0  0  0  0  0  0  0  0  0  0
   11.3090   13.1397    9.0395 H   0  0  0  0  0  0  0  0  0  0  0  0
   10.4019   12.6540    7.8568 H   0  0  0  0  0  0  0  0  0  0  0  0
    9.8345   13.6580    8.9186 H   0  0  0  0  0  0  0  0  0  0  0  0
    9.5136   12.3367   11.4029 C   0  0  0  0  0  0  0  0  0  0  0  0
   10.2278   12.9638   11.5959 H   0  0  0  0  0  0  0  0  0  0  0  0
    8.6819   12.8329   11.3500 H   0  0  0  0  0  0  0  0  0  0  0  0
    9.4251   11.3264   12.4976 C   0  0  0  0  0  0  0  0  0  0  0  0
    8.6122   10.8083   12.3902 H   0  0  0  0  0  0  0  0  0  0  0  0
    9.3768   11.7839   13.3520 H   0  0  0  0  0  0  0  0  0  0  0  0
   12.1966   11.1849   13.2507 C   0  0  0  0  0  0  0  0  0  0  0  0
   12.5656   11.7770   12.5910 H   0  0  0  0  0  0  0  0  0  0  0  0
   11.8339   11.6985   13.9752 H   0  0  0  0  0  0  0  0  0  0  0  0
   12.8864   10.6053   13.5818 H   0  0  0  0  0  0  0  0  0  0  0  0
   10.3700    9.1801   13.9322 C   0  0  0  0  0  0  0  0  0  0  0  0
    9.6590    8.5896   13.6722 H   0  0  0  0  0  0  0  0  0  0  0  0
   11.1173    8.6643   14.2427 H   0  0  0  0  0  0  0  0  0  0  0  0
   10.0648    9.7575   14.6361 H   0  0  0  0  0  0  0  0  0  0  0  0
    9.5579    8.5000    7.5110 O   0  0  0  0  0  0  0  0  0  0  0  0
   11.8509    6.0055    9.4053 B   0  0  0  0  0  0  0  0  0  0  0  0
   11.9439    6.3031    8.3503 H   0  0  0  0  0  0  0  0  0  0  0  0
   12.9092    4.7710   10.1302 B   0  0  0  0  0  0  0  0  0  0  0  0
   13.6867    4.2528    9.5493 H   0  0  0  0  0  0  0  0  0  0  0  0
   13.1674    5.2207   11.8169 B   0  0  0  0  0  0  0  0  0  0  0  0
   14.1107    4.9987   12.3372 H   0  0  0  0  0  0  0  0  0  0  0  0
   12.2618    6.7257   12.1048 B   0  0  0  0  0  0  0  0  0  0  0  0
   12.6243    7.4883   12.8092 H   0  0  0  0  0  0  0  0  0  0  0  0
   10.2999    5.9335   10.2084 B   0  0  0  0  0  0  0  0  0  0  0  0
    9.3654    6.1643    9.6755 H   0  0  0  0  0  0  0  0  0  0  0  0
   11.1953    4.4360    9.8953 B   0  0  0  0  0  0  0  0  0  0  0  0
   10.8495    3.6948    9.1599 H   0  0  0  0  0  0  0  0  0  0  0  0
   12.0009    3.9477   11.4086 B   0  0  0  0  0  0  0  0  0  0  0  0
   12.1730    2.8914   11.6645 H   0  0  0  0  0  0  0  0  0  0  0  0
   11.6040    5.1657   12.6471 B   0  0  0  0  0  0  0  0  0  0  0  0
   11.5239    4.9058   13.7130 H   0  0  0  0  0  0  0  0  0  0  0  0
   10.5466    6.3802   11.8886 B   0  0  0  0  0  0  0  0  0  0  0  0
    9.7701    6.9060   12.4642 H   0  0  0  0  0  0  0  0  0  0  0  0
   10.3792    4.6684   11.4556 B   0  0  0  0  0  0  0  0  0  0  0  0
    9.4989    4.0756   11.7449 H   0  0  0  0  0  0  0  0  0  0  0  0
    9.5753    9.0907   10.4875 H   0  0  0  0  0  0  0  0  0  0  0  0
  1  2  1  0  0  0  0
  2 47  3  0  0  0  0
  3  1  1  0  0  0  0
  4  1  1  0  0  0  0
  5  6  1  0  0  0  0
  6  1  1  0  0  0  0
  7  5  1  0  0  0  0
  8  7  1  0  0  0  0
  9  8  1  0  0  0  0
 10  8  1  0  0  0  0
 11  8  1  0  0  0  0
 12  7  1  0  0  0  0
 13 12  1  0  0  0  0
 14 12  1  0  0  0  0
 15 12  1  0  0  0  0
 16  1  8  0  0  0  0
 17  1  8  0  0  0  0
 18 17  1  0  0  0  0
 19  1  8  0  0  0  0
 20 19  1  0  0  0  0
 21  1  8  0  0  0  0
 22 21  1  0  0  0  0
 23  1  8  0  0  0  0
 24 23  1  0  0  0  0
 25  3  1  0  0  0  0
 26 25  1  0  0  0  0
 27 25  1  0  0  0  0
 28 25  1  0  0  0  0
 29  3  1  0  0  0  0
 30 29  1  0  0  0  0
 31 29  1  0  0  0  0
 32 29  1  0  0  0  0
 33  3  1  0  0  0  0
 34 33  1  0  0  0  0
 35 33  1  0  0  0  0
 36  4  1  0  0  0  0
 37 36  1  0  0  0  0
 38 36  1  0  0  0  0
 39  4  1  0  0  0  0
 40 39  1  0  0  0  0
 41 39  1  0  0  0  0
 42 39  1  0  0  0  0
 43  4  1  0  0  0  0
 44 43  1  0  0  0  0
 45 43  1  0  0  0  0
 46 43  1  0  0  0  0
 48  5  1  0  0  0  0
 49 48  1  0  0  0  0
 50  5  1  0  0  0  0
 51 50  1  0  0  0  0
 52  5  1  0  0  0  0
 53 52  1  0  0  0  0
 54  5  1  0  0  0  0
 55 54  1  0  0  0  0
 56  6  1  0  0  0  0
 57 56  1  0  0  0  0
 58 48  1  0  0  0  0
 59 58  1  0  0  0  0
 60 50  1  0  0  0  0
 61 60  1  0  0  0  0
 62 52  1  0  0  0  0
 63 62  1  0  0  0  0
 64  6  1  0  0  0  0
 65 64  1  0  0  0  0
 66 56  1  0  0  0  0
 67 66  1  0  0  0  0
 68  1  1  0  0  0  0
  6 48  1  0  0  0  0
  6 54  1  0  0  0  0
  7 16  1  0  0  0  0
 16 17  4  0  0  0  0
 16 23  4  0  0  0  0
 17 19  4  0  0  0  0
 19 21  4  0  0  0  0
 21 23  4  0  0  0  0
 33 36  1  0  0  0  0
 48 50  1  0  0  0  0
 48 56  1  0  0  0  0
 50 52  1  0  0  0  0
 50 58  1  0  0  0  0
 52 54  1  0  0  0  0
 52 60  1  0  0  0  0
 54 62  1  0  0  0  0
 54 64  1  0  0  0  0
 56 58  1  0  0  0  0
 56 64  1  0  0  0  0
 58 60  1  0  0  0  0
 58 66  1  0  0  0  0
 60 62  1  0  0  0  0
 60 66  1  0  0  0  0
 62 64  1  0  0  0  0
 62 66  1  0  0  0  0
 64 66  1  0  0  0  0
M  END
$$$$
GESHOE

From CSD data. Using bond type 'Any'. Matching problem. No disordered atoms. Largest molecule.
235291  0  0  0  0  0  0  0  0999 V2000
    8.0208   10.1502   14.7688 C   0  0  0  0  0  0  0  0  0  0  0  0
    8.8773   10.5054   14.4238 H   0  0  0  0  0  0  0  0  0  0  0  0
    7.2821   10.7119   14.4238 H   0  0  0  0  0  0  0  0  0  0  0  0
    7.9030    8.4339   12.9633 C   0  0  0  0  0  0  0  0  0  0  0  0
    7.7699    7.4473   12.8682 H   0  0  0  0  0  0  0  0  0  0  0  0
    9.2521    8.7735   12.3724 C   0  0  0  0  0  0  0  0  0  0  0  0
    9.3284    9.7457   12.2733 H   0  0  0  0  0  0  0  0  0  0  0  0
    9.3408    8.3462   11.4944 H   0  0  0  0  0  0  0  0  0  0  0  0
    9.9596    8.4483   12.9674 H   0  0  0  0  0  0  0  0  0  0  0  0
    6.8061    9.1264   12.1741 C   0  0  0  0  0  0  0  0  0  0  0  0
    5.9794    8.6019   12.2340 H   0  0  0  0  0  0  0  0  0  0  0  0
    7.0763    9.2056   11.2362 H   0  0  0  0  0  0  0  0  0  0  0  0
    6.6501   10.0205   12.5460 H   0  0  0  0  0  0  0  0  0  0  0  0
    3.3053    7.2060   15.4939 C   0  0  0  0  0  0  0  0  0  0  0  0
    3.7606    8.4315   16.3575 C   0  0  0  0  0  0  0  0  0  0  0  0
    4.1951    8.1110   17.1756 H   0  0  0  0  0  0  0  0  0  0  0  0
    2.9796    8.9727   16.5930 H   0  0  0  0  0  0  0  0  0  0  0  0
    4.3925    8.9764   15.8431 H   0  0  0  0  0  0  0  0  0  0  0  0
    2.0456    6.5771   16.2108 C   0  0  0  0  0  0  0  0  0  0  0  0
    1.6942    5.8414   15.6737 H   0  0  0  0  0  0  0  0  0  0  0  0
    1.3505    7.2697   16.3100 H   0  0  0  0  0  0  0  0  0  0  0  0
    2.3006    6.2507   17.0971 H   0  0  0  0  0  0  0  0  0  0  0  0
    2.9450    7.5493   14.1656 C   0  0  0  0  0  0  0  0  0  0  0  0
    3.4439    8.3486   13.8929 H   0  0  0  0  0  0  0  0  0  0  0  0
    1.9894    7.7185   14.1160 H   0  0  0  0  0  0  0  0  0  0  0  0
    3.1827    6.8040   13.5665 H   0  0  0  0  0  0  0  0  0  0  0  0
    7.6909    7.9034   15.4939 B   0  0  0  0  0  0  0  0  0  0  0  0
    7.8385    8.7471   14.3515 N   0  0  0  0  0  0  0  0  0  0  0  0
    6.2196    6.3357   15.4939 Cu  0  0  0  0  0  0  0  0  0  0  0  0
    8.4619    5.9084   15.4939 Cu  0  0  0  0  0  0  0  0  0  0  0  0
    6.9301    4.0003   14.3046 Cu  0  0  0  0  0  0  0  0  0  0  0  0
    6.9301    4.0003   12.0049 P   0  0  0  0  0  0  0  0  0  0  0  0
    6.0951    5.5474   11.3581 C   0  0  0  0  0  0  0  0  0  0  0  0
    6.5116    6.3095   11.8539 H   0  0  0  0  0  0  0  0  0  0  0  0
    6.3016    5.8570    9.8603 C   0  0  0  0  0  0  0  0  0  0  0  0
    5.4618    6.1715    9.4720 H   0  0  0  0  0  0  0  0  0  0  0  0
    6.5906    5.0397    9.3955 H   0  0  0  0  0  0  0  0  0  0  0  0
    6.9904    6.5459    9.7612 H   0  0  0  0  0  0  0  0  0  0  0  0
    4.6586    5.5462   11.7506 C   0  0  0  0  0  0  0  0  0  0  0  0
    4.2997    6.4559   11.6762 H   0  0  0  0  0  0  0  0  0  0  0  0
    4.5727    5.2365   12.6761 H   0  0  0  0  0  0  0  0  0  0  0  0
    4.1583    4.9485   11.1577 H   0  0  0  0  0  0  0  0  0  0  0  0
    4.3378    6.2675   15.4939 O   0  0  0  0  0  0  0  0  0  0  0  0
    8.0208   10.1502   16.2191 C   0  0  0  0  0  0  0  0  0  0  0  0
    8.8773   10.5054   16.5641 H   0  0  0  0  0  0  0  0  0  0  0  0
    7.2821   10.7119   16.5641 H   0  0  0  0  0  0  0  0  0  0  0  0
    7.9030    8.4339   18.0246 C   0  0  0  0  0  0  0  0  0  0  0  0
    7.7699    7.4473   18.1197 H   0  0  0  0  0  0  0  0  0  0  0  0
    9.2521    8.7735   18.6155 C   0  0  0  0  0  0  0  0  0  0  0  0
    9.3284    9.7457   18.7146 H   0  0  0  0  0  0  0  0  0  0  0  0
    9.3408    8.3462   19.4935 H   0  0  0  0  0  0  0  0  0  0  0  0
    9.9596    8.4483   18.0205 H   0  0  0  0  0  0  0  0  0  0  0  0
    6.8061    9.1264   18.8138 C   0  0  0  0  0  0  0  0  0  0  0  0
    5.9794    8.6019   18.7539 H   0  0  0  0  0  0  0  0  0  0  0  0
    7.0763    9.2056   19.7517 H   0  0  0  0  0  0  0  0  0  0  0  0
    6.6501   10.0205   18.4419 H   0  0  0  0  0  0  0  0  0  0  0  0
    7.8385    8.7471   16.6364 N   0  0  0  0  0  0  0  0  0  0  0  0
    3.7606    8.4315   14.6304 C   0  0  0  0  0  0  0  0  0  0  0  0
    4.1951    8.1110   13.8123 H   0  0  0  0  0  0  0  0  0  0  0  0
    2.9796    8.9727   14.3949 H   0  0  0  0  0  0  0  0  0  0  0  0
    4.3925    8.9764   15.1448 H   0  0  0  0  0  0  0  0  0  0  0  0
    2.0456    6.5771   14.7771 C   0  0  0  0  0  0  0  0  0  0  0  0
    1.6942    5.8414   15.3142 H   0  0  0  0  0  0  0  0  0  0  0  0
    1.3505    7.2697   14.6779 H   0  0  0  0  0  0  0  0  0  0  0  0
    2.3006    6.2507   13.8908 H   0  0  0  0  0  0  0  0  0  0  0  0
    2.9450    7.5493   16.8223 C   0  0  0  0  0  0  0  0  0  0  0  0
    3.4439    8.3486   17.0950 H   0  0  0  0  0  0  0  0  0  0  0  0
    1.9894    7.7185   16.8719 H   0  0  0  0  0  0  0  0  0  0  0  0
    3.1827    6.8040   17.4214 H   0  0  0  0  0  0  0  0  0  0  0  0
    6.0071    2.5048   11.3581 C   0  0  0  0  0  0  0  0  0  0  0  0
    5.1388    2.4844   11.8539 H   0  0  0  0  0  0  0  0  0  0  0  0
    5.6357    2.5288    9.8603 C   0  0  0  0  0  0  0  0  0  0  0  0
    5.7833    1.6443    9.4720 H   0  0  0  0  0  0  0  0  0  0  0  0
    6.1990    3.1878    9.3955 H   0  0  0  0  0  0  0  0  0  0  0  0
    4.6947    2.7809    9.7612 H   0  0  0  0  0  0  0  0  0  0  0  0
    6.7264    1.2614   11.7506 C   0  0  0  0  0  0  0  0  0  0  0  0
    6.1180    0.4957   11.6762 H   0  0  0  0  0  0  0  0  0  0  0  0
    7.0375    1.3418   12.6761 H   0  0  0  0  0  0  0  0  0  0  0  0
    7.4941    1.1270   11.1577 H   0  0  0  0  0  0  0  0  0  0  0  0
    8.6860    3.9499   11.3581 C   0  0  0  0  0  0  0  0  0  0  0  0
    9.1378    3.2082   11.8539 H   0  0  0  0  0  0  0  0  0  0  0  0
    8.8509    3.6162    9.8603 C   0  0  0  0  0  0  0  0  0  0  0  0
    9.5432    4.1863    9.4720 H   0  0  0  0  0  0  0  0  0  0  0  0
    7.9986    3.7747    9.3955 H   0  0  0  0  0  0  0  0  0  0  0  0
    9.1032    2.6753    9.7612 H   0  0  0  0  0  0  0  0  0  0  0  0
    9.4032    5.1945   11.7506 C   0  0  0  0  0  0  0  0  0  0  0  0
   10.3705    5.0505   11.6762 H   0  0  0  0  0  0  0  0  0  0  0  0
    9.1780    5.4237   12.6761 H   0  0  0  0  0  0  0  0  0  0  0  0
    9.1357    5.9266   11.1577 H   0  0  0  0  0  0  0  0  0  0  0  0
    1.0581    1.8711   14.7688 C   0  0  0  0  0  0  0  0  0  0  0  0
    0.3222    2.4352   14.4238 H   0  0  0  0  0  0  0  0  0  0  0  0
    0.9410    0.9506   14.4238 H   0  0  0  0  0  0  0  0  0  0  0  0
    2.6034    2.6273   12.9633 C   0  0  0  0  0  0  0  0  0  0  0  0
    3.5243    3.0053   12.8682 H   0  0  0  0  0  0  0  0  0  0  0  0
    1.6346    3.6258   12.3724 C   0  0  0  0  0  0  0  0  0  0  0  0
    0.7546    3.2058   12.2733 H   0  0  0  0  0  0  0  0  0  0  0  0
    1.9603    3.9163   11.4944 H   0  0  0  0  0  0  0  0  0  0  0  0
    1.5626    4.4012   12.9674 H   0  0  0  0  0  0  0  0  0  0  0  0
    2.5521    1.3310   12.1741 C   0  0  0  0  0  0  0  0  0  0  0  0
    3.4197    0.8774   12.2340 H   0  0  0  0  0  0  0  0  0  0  0  0
    2.3484    1.5255   11.2362 H   0  0  0  0  0  0  0  0  0  0  0  0
    1.8557    0.7489   12.5460 H   0  0  0  0  0  0  0  0  0  0  0  0
    5.9655   -0.7405   15.4939 C   0  0  0  0  0  0  0  0  0  0  0  0
    4.6767   -0.9590   16.3575 C   0  0  0  0  0  0  0  0  0  0  0  0
    4.7369   -0.4225   17.1756 H   0  0  0  0  0  0  0  0  0  0  0  0
    4.5983   -1.9059   16.5930 H   0  0  0  0  0  0  0  0  0  0  0  0
    3.8888   -0.6841   15.8431 H   0  0  0  0  0  0  0  0  0  0  0  0
    7.1401   -1.5171   16.2108 C   0  0  0  0  0  0  0  0  0  0  0  0
    7.9529   -1.4535   15.6737 H   0  0  0  0  0  0  0  0  0  0  0  0
    6.8878   -2.4652   16.3100 H   0  0  0  0  0  0  0  0  0  0  0  0
    7.2953   -1.1330   17.0971 H   0  0  0  0  0  0  0  0  0  0  0  0
    5.8484   -1.2242   14.1656 C   0  0  0  0  0  0  0  0  0  0  0  0
    4.9067   -1.1918   13.8929 H   0  0  0  0  0  0  0  0  0  0  0  0
    6.1796   -2.1364   14.1160 H   0  0  0  0  0  0  0  0  0  0  0  0
    6.3750   -0.6457   13.5665 H   0  0  0  0  0  0  0  0  0  0  0  0
    3.1688    2.7089   15.4939 B   0  0  0  0  0  0  0  0  0  0  0  0
    2.3643    2.4148   14.3515 N   0  0  0  0  0  0  0  0  0  0  0  0
    5.2622    2.2185   15.4939 Cu  0  0  0  0  0  0  0  0  0  0  0  0
    4.5110    4.3740   15.4939 Cu  0  0  0  0  0  0  0  0  0  0  0  0
    6.2621    0.6229   15.4939 O   0  0  0  0  0  0  0  0  0  0  0  0
    1.0581    1.8711   16.2191 C   0  0  0  0  0  0  0  0  0  0  0  0
    0.3222    2.4352   16.5641 H   0  0  0  0  0  0  0  0  0  0  0  0
    0.9410    0.9506   16.5641 H   0  0  0  0  0  0  0  0  0  0  0  0
    2.6034    2.6273   18.0246 C   0  0  0  0  0  0  0  0  0  0  0  0
    3.5243    3.0053   18.1197 H   0  0  0  0  0  0  0  0  0  0  0  0
    1.6346    3.6258   18.6155 C   0  0  0  0  0  0  0  0  0  0  0  0
    0.7546    3.2058   18.7146 H   0  0  0  0  0  0  0  0  0  0  0  0
    1.9603    3.9163   19.4935 H   0  0  0  0  0  0  0  0  0  0  0  0
    1.5626    4.4012   18.0205 H   0  0  0  0  0  0  0  0  0  0  0  0
    2.5521    1.3310   18.8138 C   0  0  0  0  0  0  0  0  0  0  0  0
    3.4197    0.8774   18.7539 H   0  0  0  0  0  0  0  0  0  0  0  0
    2.3484    1.5255   19.7517 H   0  0  0  0  0  0  0  0  0  0  0  0
    1.8557    0.7489   18.4419 H   0  0  0  0  0  0  0  0  0  0  0  0
    2.3643    2.4148   16.6364 N   0  0  0  0  0  0  0  0  0  0  0  0
    4.6767   -0.9590   14.6304 C   0  0  0  0  0  0  0  0  0  0  0  0
    4.7369   -0.4225   13.8123 H   0  0  0  0  0  0  0  0  0  0  0  0
    4.5983   -1.9059   14.3949 H   0  0  0  0  0  0  0  0  0  0  0  0
    3.8888   -0.6841   15.1448 H   0  0  0  0  0  0  0  0  0  0  0  0
    7.1401   -1.5171   14.7771 C   0  0  0  0  0  0  0  0  0  0  0  0
    7.9529   -1.4535   15.3142 H   0  0  0  0  0  0  0  0  0  0  0  0
    6.8878   -2.4652   14.6779 H   0  0  0  0  0  0  0  0  0  0  0  0
    7.2953   -1.1330   13.8908 H   0  0  0  0  0  0  0  0  0  0  0  0
    5.8484   -1.2242   16.8223 C   0  0  0  0  0  0  0  0  0  0  0  0
    4.9067   -1.1918   17.0950 H   0  0  0  0  0  0  0  0  0  0  0  0
    6.1796   -2.1364   16.8719 H   0  0  0  0  0  0  0  0  0  0  0  0
    6.3750   -0.6457   17.4214 H   0  0  0  0  0  0  0  0  0  0  0  0
   11.7093   -0.0192   14.7688 C   0  0  0  0  0  0  0  0  0  0  0  0
   11.5887   -0.9386   14.4238 H   0  0  0  0  0  0  0  0  0  0  0  0
   12.5651    0.3397   14.4238 H   0  0  0  0  0  0  0  0  0  0  0  0
   10.2818    0.9410   12.9633 C   0  0  0  0  0  0  0  0  0  0  0  0
    9.4940    1.5495   12.8682 H   0  0  0  0  0  0  0  0  0  0  0  0
    9.9014   -0.3973   12.3724 C   0  0  0  0  0  0  0  0  0  0  0  0
   10.7052   -0.9494   12.2733 H   0  0  0  0  0  0  0  0  0  0  0  0
    9.4870   -0.2604   11.4944 H   0  0  0  0  0  0  0  0  0  0  0  0
    9.2660   -0.8473   12.9674 H   0  0  0  0  0  0  0  0  0  0  0  0
   11.4300    1.5447   12.1741 C   0  0  0  0  0  0  0  0  0  0  0  0
   11.3892    2.5228   12.2340 H   0  0  0  0  0  0  0  0  0  0  0  0
   11.3635    1.2710   11.2362 H   0  0  0  0  0  0  0  0  0  0  0  0
   12.2824    1.2326   12.5460 H   0  0  0  0  0  0  0  0  0  0  0  0
   11.5174    5.5366   15.4939 C   0  0  0  0  0  0  0  0  0  0  0  0
   12.3510    4.5296   16.3575 C   0  0  0  0  0  0  0  0  0  0  0  0
   11.8562    4.3135   17.1756 H   0  0  0  0  0  0  0  0  0  0  0  0
   13.2102    4.9353   16.5930 H   0  0  0  0  0  0  0  0  0  0  0  0
   12.5069    3.7098   15.8431 H   0  0  0  0  0  0  0  0  0  0  0  0
   11.6026    6.9420   16.2108 C   0  0  0  0  0  0  0  0  0  0  0  0
   11.1411    7.6141   15.6737 H   0  0  0  0  0  0  0  0  0  0  0  0
   12.5498    7.1976   16.3100 H   0  0  0  0  0  0  0  0  0  0  0  0
   11.1924    6.8844   17.0971 H   0  0  0  0  0  0  0  0  0  0  0  0
   11.9948    5.6770   14.1656 C   0  0  0  0  0  0  0  0  0  0  0  0
   12.4376    4.8452   13.8929 H   0  0  0  0  0  0  0  0  0  0  0  0
   12.6191    6.4199   14.1160 H   0  0  0  0  0  0  0  0  0  0  0  0
   11.2305    5.8438   13.5665 H   0  0  0  0  0  0  0  0  0  0  0  0
    9.9284    1.3898   15.4939 B   0  0  0  0  0  0  0  0  0  0  0  0
   10.5854    0.8401   14.3515 N   0  0  0  0  0  0  0  0  0  0  0  0
    9.3065    3.4480   15.4939 Cu  0  0  0  0  0  0  0  0  0  0  0  0
    7.8153    1.7197   15.4939 Cu  0  0  0  0  0  0  0  0  0  0  0  0
   10.1883    5.1117   15.4939 O   0  0  0  0  0  0  0  0  0  0  0  0
   11.7093   -0.0192   16.2191 C   0  0  0  0  0  0  0  0  0  0  0  0
   11.5887   -0.9386   16.5641 H   0  0  0  0  0  0  0  0  0  0  0  0
   12.5651    0.3397   16.5641 H   0  0  0  0  0  0  0  0  0  0  0  0
   10.2818    0.9410   18.0246 C   0  0  0  0  0  0  0  0  0  0  0  0
    9.4940    1.5495   18.1197 H   0  0  0  0  0  0  0  0  0  0  0  0
    9.9014   -0.3973   18.6155 C   0  0  0  0  0  0  0  0  0  0  0  0
   10.7052   -0.9494   18.7146 H   0  0  0  0  0  0  0  0  0  0  0  0
    9.4870   -0.2604   19.4935 H   0  0  0  0  0  0  0  0  0  0  0  0
    9.2660   -0.8473   18.0205 H   0  0  0  0  0  0  0  0  0  0  0  0
   11.4300    1.5447   18.8138 C   0  0  0  0  0  0  0  0  0  0  0  0
   11.3892    2.5228   18.7539 H   0  0  0  0  0  0  0  0  0  0  0  0
   11.3635    1.2710   19.7517 H   0  0  0  0  0  0  0  0  0  0  0  0
   12.2824    1.2326   18.4419 H   0  0  0  0  0  0  0  0  0  0  0  0
   10.5854    0.8401   16.6364 N   0  0  0  0  0  0  0  0  0  0  0  0
   12.3510    4.5296   14.6304 C   0  0  0  0  0  0  0  0  0  0  0  0
   11.8562    4.3135   13.8123 H   0  0  0  0  0  0  0  0  0  0  0  0
   13.2102    4.9353   14.3949 H   0  0  0  0  0  0  0  0  0  0  0  0
   12.5069    3.7098   15.1448 H   0  0  0  0  0  0  0  0  0  0  0  0
   11.6026    6.9420   14.7771 C   0  0  0  0  0  0  0  0  0  0  0  0
   11.1411    7.6141   15.3142 H   0  0  0  0  0  0  0  0  0  0  0  0
   12.5498    7.1976   14.6779 H   0  0  0  0  0  0  0  0  0  0  0  0
   11.1924    6.8844   13.8908 H   0  0  0  0  0  0  0  0  0  0  0  0
   11.9948    5.6770   16.8223 C   0  0  0  0  0  0  0  0  0  0  0  0
   12.4376    4.8452   17.0950 H   0  0  0  0  0  0  0  0  0  0  0  0
   12.6191    6.4199   16.8719 H   0  0  0  0  0  0  0  0  0  0  0  0
   11.2305    5.8438   17.4214 H   0  0  0  0  0  0  0  0  0  0  0  0
    6.9301    4.0003   16.6833 Cu  0  0  0  0  0  0  0  0  0  0  0  0
    6.9301    4.0003   18.9830 P   0  0  0  0  0  0  0  0  0  0  0  0
    6.0951    5.5474   19.6298 C   0  0  0  0  0  0  0  0  0  0  0  0
    6.5116    6.3095   19.1340 H   0  0  0  0  0  0  0  0  0  0  0  0
    6.3016    5.8570   21.1276 C   0  0  0  0  0  0  0  0  0  0  0  0
    5.4618    6.1715   21.5159 H   0  0  0  0  0  0  0  0  0  0  0  0
    6.5906    5.0397   21.5924 H   0  0  0  0  0  0  0  0  0  0  0  0
    6.9904    6.5459   21.2267 H   0  0  0  0  0  0  0  0  0  0  0  0
    4.6586    5.5462   19.2373 C   0  0  0  0  0  0  0  0  0  0  0  0
    4.2997    6.4559   19.3117 H   0  0  0  0  0  0  0  0  0  0  0  0
    4.5727    5.2365   18.3118 H   0  0  0  0  0  0  0  0  0  0  0  0
    4.1583    4.9485   19.8302 H   0  0  0  0  0  0  0  0  0  0  0  0
    6.0071    2.5048   19.6298 C   0  0  0  0  0  0  0  0  0  0  0  0
    5.1388    2.4844   19.1340 H   0  0  0  0  0  0  0  0  0  0  0  0
    5.6357    2.5288   21.1276 C   0  0  0  0  0  0  0  0  0  0  0  0
    5.7833    1.6443   21.5159 H   0  0  0  0  0  0  0  0  0  0  0  0
    6.1990    3.1878   21.5924 H   0  0  0  0  0  0  0  0  0  0  0  0
    4.6947    2.7809   21.2267 H   0  0  0  0  0  0  0  0  0  0  0  0
    6.7264    1.2614   19.2373 C   0  0  0  0  0  0  0  0  0  0  0  0
    6.1180    0.4957   19.3117 H   0  0  0  0  0  0  0  0  0  0  0  0
    7.0375    1.3418   18.3118 H   0  0  0  0  0  0  0  0  0  0  0  0
    7.4941    1.1270   19.8302 H   0  0  0  0  0  0  0  0  0  0  0  0
    8.6860    3.9499   19.6298 C   0  0  0  0  0  0  0  0  0  0  0  0
    9.1378    3.2082   19.1340 H   0  0  0  0  0  0  0  0  0  0  0  0
    8.8509    3.6162   21.1276 C   0  0  0  0  0  0  0  0  0  0  0  0
    9.5432    4.1863   21.5159 H   0  0  0  0  0  0  0  0  0  0  0  0
    7.9986    3.7747   21.5924 H   0  0  0  0  0  0  0  0  0  0  0  0
    9.1032    2.6753   21.2267 H   0  0  0  0  0  0  0  0  0  0  0  0
    9.4032    5.1945   19.2373 C   0  0  0  0  0  0  0  0  0  0  0  0
   10.3705    5.0505   19.3117 H   0  0  0  0  0  0  0  0  0  0  0  0
    9.1780    5.4237   18.3118 H   0  0  0  0  0  0  0  0  0  0  0  0
    9.1357    5.9266   19.8302 H   0  0  0  0  0  0  0  0  0  0  0  0
  1  2  1  0  0  0  0
  3  1  1  0  0  0  0
  4  5  1  0  0  0  0
  6  4  1  0  0  0  0
  7  6  1  0  0  0  0
  8  6  1  0  0  0  0
  9  6  1  0  0  0  0
 10  4  1  0  0  0  0
 11 10  1  0  0  0  0
 12 10  1  0  0  0  0
 13 10  1  0  0  0  0
 14 15  1  0  0  0  0
 15 16  1  0  0  0  0
 17 15  1  0  0  0  0
 18 15  1  0  0  0  0
 19 14  1  0  0  0  0
 20 19  1  0  0  0  0
 21 19  1  0  0  0  0
 22 19  1  0  0  0  0
 23 14  1  0  0  0  0
 24 23  1  0  0  0  0
 25 23  1  0  0  0  0
 26 23  1  0  0  0  0
 27 28  1  0  0  0  0
 28  1  1  0  0  0  0
 29 27  1  0  0  0  0
 30 27  1  0  0  0  0
 31 29  1  0  0  0  0
 32 31  1  0  0  0  0
 33 32  1  0  0  0  0
 34 33  1  0  0  0  0
 35 33  1  0  0  0  0
 36 35  1  0  0  0  0
 37 35  1  0  0  0  0
 38 35  1  0  0  0  0
 39 33  1  0  0  0  0
 40 39  1  0  0  0  0
 41 39  1  0  0  0  0
 42 39  1  0  0  0  0
 43 14  1  0  0  0  0
 44  1  1  0  0  0  0
 45 44  1  0  0  0  0
 46 44  1  0  0  0  0
 47 48  1  0  0  0  0
 49 47  1  0  0  0  0
 50 49  1  0  0  0  0
 51 49  1  0  0  0  0
 52 49  1  0  0  0  0
 53 47  1  0  0  0  0
 54 53  1  0  0  0  0
 55 53  1  0  0  0  0
 56 53  1  0  0  0  0
 57 27  1  0  0  0  0
 58 14  1  0  0  0  0
 59 58  1  0  0  0  0
 60 58  1  0  0  0  0
 61 58  1  0  0  0  0
 62 14  1  0  0  0  0
 63 19  1  0  0  0  0
 64 62  1  0  0  0  0
 65 62  1  0  0  0  0
 66 14  1  0  0  0  0
 67 15  1  0  0  0  0
 68 19  1  0  0  0  0
 69 66  1  0  0  0  0
 70 32  1  0  0  0  0
 71 70  1  0  0  0  0
 72 70  1  0  0  0  0
 73 72  1  0  0  0  0
 74 72  1  0  0  0  0
 75 72  1  0  0  0  0
 76 70  1  0  0  0  0
 77 76  1  0  0  0  0
 78 76  1  0  0  0  0
 79 76  1  0  0  0  0
 80 32  1  0  0  0  0
 81 80  1  0  0  0  0
 82 80  1  0  0  0  0
 83 82  1  0  0  0  0
 84 82  1  0  0  0  0
 85 82  1  0  0  0  0
 86 80  1  0  0  0  0
 87 86  1  0  0  0  0
 88 86  1  0  0  0  0
 89 86  1  0  0  0  0
 90 91  1  0  0  0  0
 92 90  1  0  0  0  0
 93 94  1  0  0  0  0
 95 93  1  0  0  0  0
 96 95  1  0  0  0  0
 97 95  1  0  0  0  0
 98 95  1  0  0  0  0
 99 93  1  0  0  0  0
100 99  1  0  0  0  0
101 99  1  0  0  0  0
102 99  1  0  0  0  0
103104  1  0  0  0  0
104105  1  0  0  0  0
106104  1  0  0  0  0
107104  1  0  0  0  0
108103  1  0  0  0  0
109108  1  0  0  0  0
110108  1  0  0  0  0
111108  1  0  0  0  0
112103  1  0  0  0  0
113112  1  0  0  0  0
114112  1  0  0  0  0
115112  1  0  0  0  0
116117  1  0  0  0  0
117 90  1  0  0  0  0
118 31  1  0  0  0  0
119 29  1  0  0  0  0
120103  1  0  0  0  0
121 90  1  0  0  0  0
122121  1  0  0  0  0
123121  1  0  0  0  0
124125  1  0  0  0  0
126124  1  0  0  0  0
127126  1  0  0  0  0
128126  1  0  0  0  0
129126  1  0  0  0  0
130124  1  0  0  0  0
131130  1  0  0  0  0
132130  1  0  0  0  0
133130  1  0  0  0  0
134116  1  0  0  0  0
135103  1  0  0  0  0
136135  1  0  0  0  0
137135  1  0  0  0  0
138135  1  0  0  0  0
139103  1  0  0  0  0
140108  1  0  0  0  0
141139  1  0  0  0  0
142139  1  0  0  0  0
143103  1  0  0  0  0
144104  1  0  0  0  0
145108  1  0  0  0  0
146143  1  0  0  0  0
147148  1  0  0  0  0
149147  1  0  0  0  0
150151  1  0  0  0  0
152150  1  0  0  0  0
153152  1  0  0  0  0
154152  1  0  0  0  0
155152  1  0  0  0  0
156150  1  0  0  0  0
157156  1  0  0  0  0
158156  1  0  0  0  0
159156  1  0  0  0  0
160161  1  0  0  0  0
161162  1  0  0  0  0
163161  1  0  0  0  0
164161  1  0  0  0  0
165160  1  0  0  0  0
166165  1  0  0  0  0
167165  1  0  0  0  0
168165  1  0  0  0  0
169160  1  0  0  0  0
170169  1  0  0  0  0
171169  1  0  0  0  0
172169  1  0  0  0  0
173174  1  0  0  0  0
174147  1  0  0  0  0
175 30  1  0  0  0  0
176 31  1  0  0  0  0
177 30  1  0  0  0  0
178147  1  0  0  0  0
179178  1  0  0  0  0
180178  1  0  0  0  0
181182  1  0  0  0  0
183181  1  0  0  0  0
184183  1  0  0  0  0
185183  1  0  0  0  0
186183  1  0  0  0  0
187181  1  0  0  0  0
188187  1  0  0  0  0
189187  1  0  0  0  0
190187  1  0  0  0  0
191173  1  0  0  0  0
192160  1  0  0  0  0
193192  1  0  0  0  0
194192  1  0  0  0  0
195192  1  0  0  0  0
196160  1  0  0  0  0
197165  1  0  0  0  0
198196  1  0  0  0  0
199196  1  0  0  0  0
200160  1  0  0  0  0
201161  1  0  0  0  0
202165  1  0  0  0  0
203200  1  0  0  0  0
204 29  1  0  0  0  0
205204  1  0  0  0  0
206205  1  0  0  0  0
207206  1  0  0  0  0
208206  1  0  0  0  0
209208  1  0  0  0  0
210208  1  0  0  0  0
211208  1  0  0  0  0
212206  1  0  0  0  0
213212  1  0  0  0  0
214212  1  0  0  0  0
215212  1  0  0  0  0
216205  1  0  0  0  0
217216  1  0  0  0  0
218216  1  0  0  0  0
219218  1  0  0  0  0
220218  1  0  0  0  0
221218  1  0  0  0  0
222216  1  0  0  0  0
223222  1  0  0  0  0
224222  1  0  0  0  0
225222  1  0  0  0  0
226205  1  0  0  0  0
227226  1  0  0  0  0
228226  1  0  0  0  0
229228  1  0  0  0  0
230228  1  0  0  0  0
231228  1  0  0  0  0
232226  1  0  0  0  0
233232  1  0  0  0  0
234232  1  0  0  0  0
235232  1  0  0  0  0
  4 28  1  0  0  0  0
 15 58  1  0  0  0  0
 15 66  1  0  0  0  0
 19 62  1  0  0  0  0
 19 66  1  0  0  0  0
 20 62  1  0  0  0  0
 23 58  1  0  0  0  0
 23 62  1  0  0  0  0
 24 58  1  0  0  0  0
 25 62  1  0  0  0  0
 29 30  1  0  0  0  0
 29 43  1  0  0  0  0
 30 31  1  0  0  0  0
 30204  1  0  0  0  0
 31119  1  0  0  0  0
 31175  1  0  0  0  0
 31204  1  0  0  0  0
 43119  1  0  0  0  0
 44 57  1  0  0  0  0
 47 57  1  0  0  0  0
 62 63  1  0  0  0  0
 66 67  1  0  0  0  0
 66 68  1  0  0  0  0
 93117  1  0  0  0  0
104135  1  0  0  0  0
104143  1  0  0  0  0
108139  1  0  0  0  0
108143  1  0  0  0  0
109139  1  0  0  0  0
112135  1  0  0  0  0
112139  1  0  0  0  0
113135  1  0  0  0  0
114139  1  0  0  0  0
116118  1  0  0  0  0
116119  1  0  0  0  0
118119  1  0  0  0  0
118120  1  0  0  0  0
118176  1  0  0  0  0
118204  1  0  0  0  0
119204  1  0  0  0  0
120176  1  0  0  0  0
121134  1  0  0  0  0
124134  1  0  0  0  0
139140  1  0  0  0  0
143144  1  0  0  0  0
143145  1  0  0  0  0
150174  1  0  0  0  0
160177  1  0  0  0  0
161192  1  0  0  0  0
161200  1  0  0  0  0
165196  1  0  0  0  0
165200  1  0  0  0  0
166196  1  0  0  0  0
169192  1  0  0  0  0
169196  1  0  0  0  0
170192  1  0  0  0  0
171196  1  0  0  0  0
173175  1  0  0  0  0
173176  1  0  0  0  0
175176  1  0  0  0  0
175177  1  0  0  0  0
175204  1  0  0  0  0
176204  1  0  0  0  0
178191  1  0  0  0  0
181191  1  0  0  0  0
196197  1  0  0  0  0
200201  1  0  0  0  0
200202  1  0  0  0  0
M  END
$$$$
GESJAS

From CSD data. Using bond type 'Any'. No disordered atoms. Largest molecule.
156171  0  0  0  0  0  0  0  0999 V2000
    7.7288    9.5374    1.7931 C   0  0  0  0  0  0  0  0  0  0  0  0
    8.0411   10.0579    0.5362 C   0  0  0  0  0  0  0  0  0  0  0  0
    8.8715    9.8403    0.1283 H   0  0  0  0  0  0  0  0  0  0  0  0
    7.1466   10.8921   -0.1227 C   0  0  0  0  0  0  0  0  0  0  0  0
    7.3698   11.2504   -0.9738 H   0  0  0  0  0  0  0  0  0  0  0  0
    5.9359   11.1997    0.4584 C   0  0  0  0  0  0  0  0  0  0  0  0
    5.3321   11.7838    0.0149 H   0  0  0  0  0  0  0  0  0  0  0  0
    5.5951   10.6564    1.6941 C   0  0  0  0  0  0  0  0  0  0  0  0
    4.7476   10.8524    2.0759 H   0  0  0  0  0  0  0  0  0  0  0  0
    6.4817    9.8302    2.3753 C   0  0  0  0  0  0  0  0  0  0  0  0
    8.6349    6.8362    2.2927 C   0  0  0  0  0  0  0  0  0  0  0  0
    9.3665    5.8526    2.9581 C   0  0  0  0  0  0  0  0  0  0  0  0
    9.9928    6.1025    3.6266 H   0  0  0  0  0  0  0  0  0  0  0  0
    9.1858    4.5182    2.6525 C   0  0  0  0  0  0  0  0  0  0  0  0
    9.7085    3.8576    3.0930 H   0  0  0  0  0  0  0  0  0  0  0  0
    8.2466    4.1380    1.7062 C   0  0  0  0  0  0  0  0  0  0  0  0
    8.1142    3.2178    1.5083 H   0  0  0  0  0  0  0  0  0  0  0  0
    7.5051    5.0990    1.0524 C   0  0  0  0  0  0  0  0  0  0  0  0
    6.8543    4.8417    0.4095 H   0  0  0  0  0  0  0  0  0  0  0  0
    7.7086    6.4415    1.3338 C   0  0  0  0  0  0  0  0  0  0  0  0
    7.2083    7.0999    0.8657 H   0  0  0  0  0  0  0  0  0  0  0  0
   10.5604    8.9011    2.0344 C   0  0  0  0  0  0  0  0  0  0  0  0
   11.0571    8.1730    0.9472 C   0  0  0  0  0  0  0  0  0  0  0  0
   10.5297    7.4835    0.5614 H   0  0  0  0  0  0  0  0  0  0  0  0
   12.3116    8.4505    0.4295 C   0  0  0  0  0  0  0  0  0  0  0  0
   12.6437    7.9459   -0.3037 H   0  0  0  0  0  0  0  0  0  0  0  0
   13.0813    9.4626    0.9793 C   0  0  0  0  0  0  0  0  0  0  0  0
   13.9408    9.6539    0.6239 H   0  0  0  0  0  0  0  0  0  0  0  0
   12.5939   10.1932    2.0495 C   0  0  0  0  0  0  0  0  0  0  0  0
   13.1144   10.8996    2.4135 H   0  0  0  0  0  0  0  0  0  0  0  0
   11.3527    9.9025    2.5915 C   0  0  0  0  0  0  0  0  0  0  0  0
   11.0414   10.3884    3.3462 H   0  0  0  0  0  0  0  0  0  0  0  0
    5.3493    7.5236    3.5520 C   0  0  0  0  0  0  0  0  0  0  0  0
    5.7308    6.3699    4.2265 C   0  0  0  0  0  0  0  0  0  0  0  0
    6.3705    6.4243    4.9266 H   0  0  0  0  0  0  0  0  0  0  0  0
    5.1876    5.1364    3.8878 C   0  0  0  0  0  0  0  0  0  0  0  0
    5.4598    4.3558    4.3550 H   0  0  0  0  0  0  0  0  0  0  0  0
    4.2526    5.0428    2.8766 C   0  0  0  0  0  0  0  0  0  0  0  0
    3.8815    4.1994    2.6461 H   0  0  0  0  0  0  0  0  0  0  0  0
    3.8594    6.1823    2.2006 C   0  0  0  0  0  0  0  0  0  0  0  0
    3.2092    6.1209    1.5098 H   0  0  0  0  0  0  0  0  0  0  0  0
    4.4067    7.4188    2.5237 C   0  0  0  0  0  0  0  0  0  0  0  0
    4.1402    8.1945    2.0448 H   0  0  0  0  0  0  0  0  0  0  0  0
    4.8926   10.0979    4.8527 C   0  0  0  0  0  0  0  0  0  0  0  0
    3.5747   10.2523    4.4154 C   0  0  0  0  0  0  0  0  0  0  0  0
    3.2726    9.7867    3.6443 H   0  0  0  0  0  0  0  0  0  0  0  0
    2.7080   11.0838    5.1058 C   0  0  0  0  0  0  0  0  0  0  0  0
    1.8189   11.2040    4.7922 H   0  0  0  0  0  0  0  0  0  0  0  0
    3.1281   11.7391    6.2477 C   0  0  0  0  0  0  0  0  0  0  0  0
    2.5369   12.3269    6.7037 H   0  0  0  0  0  0  0  0  0  0  0  0
    4.4125   11.5380    6.7255 C   0  0  0  0  0  0  0  0  0  0  0  0
    4.6904   11.9591    7.5298 H   0  0  0  0  0  0  0  0  0  0  0  0
    5.2903   10.7241    6.0322 C   0  0  0  0  0  0  0  0  0  0  0  0
    6.1707   10.5910    6.3631 H   0  0  0  0  0  0  0  0  0  0  0  0
    7.8933    5.8480    7.8878 C   0  0  0  0  0  0  0  0  0  0  0  0
    9.3354    5.5860    7.3674 C   0  0  0  0  0  0  0  0  0  0  0  0
    6.8800    4.8006    7.5019 C   0  0  0  0  0  0  0  0  0  0  0  0
    7.0921    3.9579    7.9554 H   0  0  0  0  0  0  0  0  0  0  0  0
    5.9853    5.0984    7.7681 H   0  0  0  0  0  0  0  0  0  0  0  0
    6.9042    4.6645    6.5319 H   0  0  0  0  0  0  0  0  0  0  0  0
    7.7935    6.1068    9.3804 C   0  0  0  0  0  0  0  0  0  0  0  0
    8.0502    5.2983    9.8701 H   0  0  0  0  0  0  0  0  0  0  0  0
    8.3934    6.8421    9.6248 H   0  0  0  0  0  0  0  0  0  0  0  0
    6.8712    6.3483    9.6079 H   0  0  0  0  0  0  0  0  0  0  0  0
    9.4242    4.6335    6.2017 C   0  0  0  0  0  0  0  0  0  0  0  0
    9.1532    3.7367    6.4902 H   0  0  0  0  0  0  0  0  0  0  0  0
    8.8303    4.9386    5.4841 H   0  0  0  0  0  0  0  0  0  0  0  0
   10.3467    4.6052    5.8718 H   0  0  0  0  0  0  0  0  0  0  0  0
   10.3147    5.1347    8.4482 C   0  0  0  0  0  0  0  0  0  0  0  0
   10.0538    4.2490    8.7760 H   0  0  0  0  0  0  0  0  0  0  0  0
   11.2184    5.0909    8.0717 H   0  0  0  0  0  0  0  0  0  0  0  0
   10.3002    5.7753    9.1895 H   0  0  0  0  0  0  0  0  0  0  0  0
    9.7443    6.8998    6.8990 O   0  0  0  0  0  0  0  0  0  0  0  0
    8.6174    7.6584    6.6052 B   0  0  0  0  0  0  0  0  0  0  0  0
    7.5108    7.0531    7.1802 O   0  0  0  0  0  0  0  0  0  0  0  0
    8.9297    8.5676    2.8066 P   0  0  0  0  0  0  0  0  0  0  0  0
    6.1767    9.0916    4.0331 P   0  0  0  0  0  0  0  0  0  0  0  0
    8.2761    9.0448    4.9279 Cu  0  0  0  0  0  0  0  0  0  0  0  0
    9.6282    9.4140   10.0061 C   0  0  0  0  0  0  0  0  0  0  0  0
    9.3159    8.8935   11.2630 C   0  0  0  0  0  0  0  0  0  0  0  0
    8.4856    9.1111   11.6709 H   0  0  0  0  0  0  0  0  0  0  0  0
   10.2104    8.0593   11.9219 C   0  0  0  0  0  0  0  0  0  0  0  0
    9.9872    7.7010   12.7730 H   0  0  0  0  0  0  0  0  0  0  0  0
   11.4211    7.7517   11.3408 C   0  0  0  0  0  0  0  0  0  0  0  0
   12.0249    7.1676   11.7843 H   0  0  0  0  0  0  0  0  0  0  0  0
   11.7619    8.2950   10.1051 C   0  0  0  0  0  0  0  0  0  0  0  0
   12.6094    8.0991    9.7233 H   0  0  0  0  0  0  0  0  0  0  0  0
   10.8753    9.1212    9.4239 C   0  0  0  0  0  0  0  0  0  0  0  0
    8.7222   12.1152    9.5065 C   0  0  0  0  0  0  0  0  0  0  0  0
    7.9905   13.0988    8.8411 C   0  0  0  0  0  0  0  0  0  0  0  0
    7.3642   12.8489    8.1726 H   0  0  0  0  0  0  0  0  0  0  0  0
    8.1712   14.4332    9.1467 C   0  0  0  0  0  0  0  0  0  0  0  0
    7.6485   15.0938    8.7062 H   0  0  0  0  0  0  0  0  0  0  0  0
    9.1104   14.8134   10.0930 C   0  0  0  0  0  0  0  0  0  0  0  0
    9.2428   15.7336   10.2909 H   0  0  0  0  0  0  0  0  0  0  0  0
    9.8520   13.8525   10.7468 C   0  0  0  0  0  0  0  0  0  0  0  0
   10.5028   14.1097   11.3897 H   0  0  0  0  0  0  0  0  0  0  0  0
    9.6484   12.5099   10.4654 C   0  0  0  0  0  0  0  0  0  0  0  0
   10.1488   11.8515   10.9335 H   0  0  0  0  0  0  0  0  0  0  0  0
    6.7966   10.0504    9.7648 C   0  0  0  0  0  0  0  0  0  0  0  0
    6.2999   10.7785   10.8520 C   0  0  0  0  0  0  0  0  0  0  0  0
    6.8273   11.4679   11.2378 H   0  0  0  0  0  0  0  0  0  0  0  0
    5.0454   10.5009   11.3697 C   0  0  0  0  0  0  0  0  0  0  0  0
    4.7133   11.0056   12.1029 H   0  0  0  0  0  0  0  0  0  0  0  0
    4.2757    9.4888   10.8199 C   0  0  0  0  0  0  0  0  0  0  0  0
    3.4162    9.2975   11.1753 H   0  0  0  0  0  0  0  0  0  0  0  0
    4.7631    8.7582    9.7497 C   0  0  0  0  0  0  0  0  0  0  0  0
    4.2427    8.0518    9.3857 H   0  0  0  0  0  0  0  0  0  0  0  0
    6.0043    9.0489    9.2077 C   0  0  0  0  0  0  0  0  0  0  0  0
    6.3156    8.5630    8.4530 H   0  0  0  0  0  0  0  0  0  0  0  0
   12.0077   11.4278    8.2472 C   0  0  0  0  0  0  0  0  0  0  0  0
   11.6262   12.5815    7.5727 C   0  0  0  0  0  0  0  0  0  0  0  0
   10.9865   12.5272    6.8726 H   0  0  0  0  0  0  0  0  0  0  0  0
   12.1694   13.8150    7.9114 C   0  0  0  0  0  0  0  0  0  0  0  0
   11.8972   14.5956    7.4442 H   0  0  0  0  0  0  0  0  0  0  0  0
   13.1044   13.9086    8.9226 C   0  0  0  0  0  0  0  0  0  0  0  0
   13.4756   14.7520    9.1531 H   0  0  0  0  0  0  0  0  0  0  0  0
   13.4976   12.7691    9.5987 C   0  0  0  0  0  0  0  0  0  0  0  0
   14.1478   12.8306   10.2894 H   0  0  0  0  0  0  0  0  0  0  0  0
   12.9503   11.5326    9.2755 C   0  0  0  0  0  0  0  0  0  0  0  0
   13.2168   10.7569    9.7544 H   0  0  0  0  0  0  0  0  0  0  0  0
   12.4644    8.8535    6.9465 C   0  0  0  0  0  0  0  0  0  0  0  0
   13.7823    8.6991    7.3838 C   0  0  0  0  0  0  0  0  0  0  0  0
   14.0844    9.1647    8.1549 H   0  0  0  0  0  0  0  0  0  0  0  0
   14.6491    7.8676    6.6935 C   0  0  0  0  0  0  0  0  0  0  0  0
   15.5381    7.7474    7.0070 H   0  0  0  0  0  0  0  0  0  0  0  0
   14.2289    7.2124    5.5515 C   0  0  0  0  0  0  0  0  0  0  0  0
   14.8201    6.6245    5.0955 H   0  0  0  0  0  0  0  0  0  0  0  0
   12.9445    7.4134    5.0737 C   0  0  0  0  0  0  0  0  0  0  0  0
   12.6666    6.9923    4.2694 H   0  0  0  0  0  0  0  0  0  0  0  0
   12.0667    8.2274    5.7670 C   0  0  0  0  0  0  0  0  0  0  0  0
   11.1863    8.3604    5.4361 H   0  0  0  0  0  0  0  0  0  0  0  0
    9.4637   13.1034    3.9114 C   0  0  0  0  0  0  0  0  0  0  0  0
    8.0217   13.3654    4.4318 C   0  0  0  0  0  0  0  0  0  0  0  0
   10.4770   14.1509    4.2973 C   0  0  0  0  0  0  0  0  0  0  0  0
   10.2649   14.9935    3.8438 H   0  0  0  0  0  0  0  0  0  0  0  0
   11.3718   13.8530    4.0311 H   0  0  0  0  0  0  0  0  0  0  0  0
   10.4528   14.2869    5.2673 H   0  0  0  0  0  0  0  0  0  0  0  0
    9.5635   12.8447    2.4188 C   0  0  0  0  0  0  0  0  0  0  0  0
    9.3068   13.6531    1.9291 H   0  0  0  0  0  0  0  0  0  0  0  0
    8.9637   12.1093    2.1744 H   0  0  0  0  0  0  0  0  0  0  0  0
   10.4858   12.6032    2.1913 H   0  0  0  0  0  0  0  0  0  0  0  0
    7.9328   14.3179    5.5975 C   0  0  0  0  0  0  0  0  0  0  0  0
    8.2038   15.2147    5.3090 H   0  0  0  0  0  0  0  0  0  0  0  0
    8.5267   14.0128    6.3151 H   0  0  0  0  0  0  0  0  0  0  0  0
    7.0103   14.3463    5.9274 H   0  0  0  0  0  0  0  0  0  0  0  0
    7.0423   13.8167    3.3510 C   0  0  0  0  0  0  0  0  0  0  0  0
    7.3032   14.7024    3.0232 H   0  0  0  0  0  0  0  0  0  0  0  0
    6.1386   13.8606    3.7275 H   0  0  0  0  0  0  0  0  0  0  0  0
    7.0568   13.1762    2.6097 H   0  0  0  0  0  0  0  0  0  0  0  0
    7.6127   12.0516    4.9002 O   0  0  0  0  0  0  0  0  0  0  0  0
    8.7396   11.2930    5.1940 B   0  0  0  0  0  0  0  0  0  0  0  0
    9.8462   11.8983    4.6190 O   0  0  0  0  0  0  0  0  0  0  0  0
    8.4273   10.3838    8.9926 P   0  0  0  0  0  0  0  0  0  0  0  0
   11.1804    9.8598    7.7661 P   0  0  0  0  0  0  0  0  0  0  0  0
    9.0809    9.9067    6.8713 Cu  0  0  0  0  0  0  0  0  0  0  0  0
  1  2  4  0  0  0  0
  2  3  1  0  0  0  0
  4  2  4  0  0  0  0
  5  4  1  0  0  0  0
  6  4  4  0  0  0  0
  7  6  1  0  0  0  0
  8  6  4  0  0  0  0
  9  8  1  0  0  0  0
 10  1  4  0  0  0  0
 11 12  4  0  0  0  0
 12 13  1  0  0  0  0
 14 12  4  0  0  0  0
 15 14  1  0  0  0  0
 16 14  4  0  0  0  0
 17 16  1  0  0  0  0
 18 16  4  0  0  0  0
 19 18  1  0  0  0  0
 20 11  4  0  0  0  0
 21 20  1  0  0  0  0
 22 23  4  0  0  0  0
 23 24  1  0  0  0  0
 25 23  4  0  0  0  0
 26 25  1  0  0  0  0
 27 25  4  0  0  0  0
 28 27  1  0  0  0  0
 29 27  4  0  0  0  0
 30 29  1  0  0  0  0
 31 22  4  0  0  0  0
 32 31  1  0  0  0  0
 33 34  4  0  0  0  0
 34 35  1  0  0  0  0
 36 34  4  0  0  0  0
 37 36  1  0  0  0  0
 38 36  4  0  0  0  0
 39 38  1  0  0  0  0
 40 38  4  0  0  0  0
 41 40  1  0  0  0  0
 42 33  4  0  0  0  0
 43 42  1  0  0  0  0
 44 45  4  0  0  0  0
 45 46  1  0  0  0  0
 47 45  4  0  0  0  0
 48 47  1  0  0  0  0
 49 47  4  0  0  0  0
 50 49  1  0  0  0  0
 51 49  4  0  0  0  0
 52 51  1  0  0  0  0
 53 44  4  0  0  0  0
 54 53  1  0  0  0  0
 55 56  1  0  0  0  0
 56 65  1  0  0  0  0
 57 55  1  0  0  0  0
 58 57  1  0  0  0  0
 59 57  1  0  0  0  0
 60 57  1  0  0  0  0
 61 55  1  0  0  0  0
 62 61  1  0  0  0  0
 63 61  1  0  0  0  0
 64 61  1  0  0  0  0
 65 66  1  0  0  0  0
 67 65  1  0  0  0  0
 68 65  1  0  0  0  0
 69 56  1  0  0  0  0
 70 69  1  0  0  0  0
 71 69  1  0  0  0  0
 72 69  1  0  0  0  0
 73 56  1  0  0  0  0
 74 73  1  0  0  0  0
 75 55  1  0  0  0  0
 76  1  1  0  0  0  0
 77 10  1  0  0  0  0
 78 74  1  0  0  0  0
 79 80  4  0  0  0  0
 80 81  1  0  0  0  0
 82 80  4  0  0  0  0
 83 82  1  0  0  0  0
 84 82  4  0  0  0  0
 85 84  1  0  0  0  0
 86 84  4  0  0  0  0
 87 86  1  0  0  0  0
 88 79  4  0  0  0  0
 89 90  4  0  0  0  0
 90 91  1  0  0  0  0
 92 90  4  0  0  0  0
 93 92  1  0  0  0  0
 94 92  4  0  0  0  0
 95 94  1  0  0  0  0
 96 94  4  0  0  0  0
 97 96  1  0  0  0  0
 98 89  4  0  0  0  0
 99 98  1  0  0  0  0
100101  4  0  0  0  0
101102  1  0  0  0  0
103101  4  0  0  0  0
104103  1  0  0  0  0
105103  4  0  0  0  0
106105  1  0  0  0  0
107105  4  0  0  0  0
108107  1  0  0  0  0
109100  4  0  0  0  0
110109  1  0  0  0  0
111112  4  0  0  0  0
112113  1  0  0  0  0
114112  4  0  0  0  0
115114  1  0  0  0  0
116114  4  0  0  0  0
117116  1  0  0  0  0
118116  4  0  0  0  0
119118  1  0  0  0  0
120111  4  0  0  0  0
121120  1  0  0  0  0
122123  4  0  0  0  0
123124  1  0  0  0  0
125123  4  0  0  0  0
126125  1  0  0  0  0
127125  4  0  0  0  0
128127  1  0  0  0  0
129127  4  0  0  0  0
130129  1  0  0  0  0
131122  4  0  0  0  0
132131  1  0  0  0  0
133134  1  0  0  0  0
134143  1  0  0  0  0
135133  1  0  0  0  0
136135  1  0  0  0  0
137135  1  0  0  0  0
138135  1  0  0  0  0
139133  1  0  0  0  0
140139  1  0  0  0  0
141139  1  0  0  0  0
142139  1  0  0  0  0
143144  1  0  0  0  0
145143  1  0  0  0  0
146143  1  0  0  0  0
147134  1  0  0  0  0
148147  1  0  0  0  0
149147  1  0  0  0  0
150147  1  0  0  0  0
151134  1  0  0  0  0
152 78  1  0  0  0  0
153133  1  0  0  0  0
154 79  1  0  0  0  0
155 88  1  0  0  0  0
156 74  1  0  0  0  0
  8 10  4  0  0  0  0
 11 76  1  0  0  0  0
 18 20  4  0  0  0  0
 22 76  1  0  0  0  0
 29 31  4  0  0  0  0
 33 77  1  0  0  0  0
 40 42  4  0  0  0  0
 44 77  1  0  0  0  0
 51 53  4  0  0  0  0
 74 75  1  0  0  0  0
 76 78  1  0  0  0  0
 77 78  1  0  0  0  0
 78156  1  0  0  0  0
 86 88  4  0  0  0  0
 89154  1  0  0  0  0
 96 98  4  0  0  0  0
100154  1  0  0  0  0
107109  4  0  0  0  0
111155  1  0  0  0  0
118120  4  0  0  0  0
122155  1  0  0  0  0
129131  4  0  0  0  0
151152  1  0  0  0  0
152153  1  0  0  0  0
152156  1  0  0  0  0
154156  1  0  0  0  0
155156  1  0  0  0  0
M  END
$$$$
GESJEW

From CSD data. Using bond type 'Any'. No disordered atoms. Largest molecule.
156171  0  0  0  0  0  0  0  0999 V2000
    7.7421   12.1689    9.1906 C   0  0  0  0  0  0  0  0  0  0  0  0
    6.4726   11.6951    9.5859 C   0  0  0  0  0  0  0  0  0  0  0  0
    5.5213   12.6103   10.0448 C   0  0  0  0  0  0  0  0  0  0  0  0
    4.6729   12.2978   10.3368 H   0  0  0  0  0  0  0  0  0  0  0  0
    5.7967   13.9622   10.0790 C   0  0  0  0  0  0  0  0  0  0  0  0
    5.1334   14.5738   10.3768 H   0  0  0  0  0  0  0  0  0  0  0  0
    7.0393   14.4304    9.6793 C   0  0  0  0  0  0  0  0  0  0  0  0
    7.2269   15.3613    9.7014 H   0  0  0  0  0  0  0  0  0  0  0  0
    8.0126   13.5324    9.2442 C   0  0  0  0  0  0  0  0  0  0  0  0
    8.8669   13.8545    8.9811 H   0  0  0  0  0  0  0  0  0  0  0  0
    9.7336   10.3480   10.1223 C   0  0  0  0  0  0  0  0  0  0  0  0
   10.0003    8.9884   10.2656 C   0  0  0  0  0  0  0  0  0  0  0  0
    9.8020    8.3874    9.5582 H   0  0  0  0  0  0  0  0  0  0  0  0
   10.5602    8.5123   11.4514 C   0  0  0  0  0  0  0  0  0  0  0  0
   10.7365    7.5834   11.5473 H   0  0  0  0  0  0  0  0  0  0  0  0
   10.8606    9.3744   12.4873 C   0  0  0  0  0  0  0  0  0  0  0  0
   11.2399    9.0423   13.2919 H   0  0  0  0  0  0  0  0  0  0  0  0
   10.6054   10.7239   12.3440 C   0  0  0  0  0  0  0  0  0  0  0  0
   10.8115   11.3207   13.0535 H   0  0  0  0  0  0  0  0  0  0  0  0
   10.0482   11.2170   11.1661 C   0  0  0  0  0  0  0  0  0  0  0  0
    9.8809   12.1473   11.0745 H   0  0  0  0  0  0  0  0  0  0  0  0
   10.2851   11.9134    7.7889 C   0  0  0  0  0  0  0  0  0  0  0  0
   11.5826   11.9371    8.3003 C   0  0  0  0  0  0  0  0  0  0  0  0
   11.7779   11.4594    9.0981 H   0  0  0  0  0  0  0  0  0  0  0  0
   12.5939   12.6430    7.6627 C   0  0  0  0  0  0  0  0  0  0  0  0
   13.4719   12.6493    8.0250 H   0  0  0  0  0  0  0  0  0  0  0  0
   12.3185   13.3359    6.5059 C   0  0  0  0  0  0  0  0  0  0  0  0
   13.0083   13.8202    6.0688 H   0  0  0  0  0  0  0  0  0  0  0  0
   11.0574   13.3281    5.9840 C   0  0  0  0  0  0  0  0  0  0  0  0
   10.8690   13.8180    5.1926 H   0  0  0  0  0  0  0  0  0  0  0  0
   10.0390   12.5987    6.6163 C   0  0  0  0  0  0  0  0  0  0  0  0
    9.1708   12.5765    6.2333 H   0  0  0  0  0  0  0  0  0  0  0  0
    6.4847    9.1939   11.0189 C   0  0  0  0  0  0  0  0  0  0  0  0
    6.2762    7.8263   11.1674 C   0  0  0  0  0  0  0  0  0  0  0  0
    5.9681    7.3141   10.4299 H   0  0  0  0  0  0  0  0  0  0  0  0
    6.5169    7.2027   12.3900 C   0  0  0  0  0  0  0  0  0  0  0  0
    6.3507    6.2720   12.4868 H   0  0  0  0  0  0  0  0  0  0  0  0
    6.9943    7.9303   13.4640 C   0  0  0  0  0  0  0  0  0  0  0  0
    7.1503    7.5033   14.2977 H   0  0  0  0  0  0  0  0  0  0  0  0
    7.2440    9.2799   13.3207 C   0  0  0  0  0  0  0  0  0  0  0  0
    7.5984    9.7775   14.0479 H   0  0  0  0  0  0  0  0  0  0  0  0
    6.9737    9.9192   12.0995 C   0  0  0  0  0  0  0  0  0  0  0  0
    7.1255   10.8528   12.0117 H   0  0  0  0  0  0  0  0  0  0  0  0
    4.3743    9.6072    9.1811 C   0  0  0  0  0  0  0  0  0  0  0  0
    3.4332    9.8821   10.1907 C   0  0  0  0  0  0  0  0  0  0  0  0
    3.7088   10.3121   10.9914 H   0  0  0  0  0  0  0  0  0  0  0  0
    2.1091    9.5282   10.0185 C   0  0  0  0  0  0  0  0  0  0  0  0
    1.4749    9.7300   10.6972 H   0  0  0  0  0  0  0  0  0  0  0  0
    1.6959    8.8771    8.8564 C   0  0  0  0  0  0  0  0  0  0  0  0
    0.7837    8.6407    8.7399 H   0  0  0  0  0  0  0  0  0  0  0  0
    2.6256    8.5780    7.8744 C   0  0  0  0  0  0  0  0  0  0  0  0
    2.3528    8.1162    7.0903 H   0  0  0  0  0  0  0  0  0  0  0  0
    3.9604    8.9500    8.0321 C   0  0  0  0  0  0  0  0  0  0  0  0
    4.5890    8.7538    7.3482 H   0  0  0  0  0  0  0  0  0  0  0  0
    8.4300    5.2226    8.2661 C   0  0  0  0  0  0  0  0  0  0  0  0
    9.8002    5.7198    7.7508 C   0  0  0  0  0  0  0  0  0  0  0  0
    8.2697    5.3305    9.7792 C   0  0  0  0  0  0  0  0  0  0  0  0
    8.5341    6.2274   10.0724 H   0  0  0  0  0  0  0  0  0  0  0  0
    8.8378    4.6628   10.2166 H   0  0  0  0  0  0  0  0  0  0  0  0
    7.3330    5.1710   10.0207 H   0  0  0  0  0  0  0  0  0  0  0  0
    8.0487    3.8381    7.7889 C   0  0  0  0  0  0  0  0  0  0  0  0
    7.1604    3.6064    8.1322 H   0  0  0  0  0  0  0  0  0  0  0  0
    8.7047    3.1871    8.1160 H   0  0  0  0  0  0  0  0  0  0  0  0
    8.0343    3.8222    6.8090 H   0  0  0  0  0  0  0  0  0  0  0  0
   10.9391    5.6085    8.7236 C   0  0  0  0  0  0  0  0  0  0  0  0
   11.7445    6.0066    8.3316 H   0  0  0  0  0  0  0  0  0  0  0  0
   11.1064    4.6638    8.9239 H   0  0  0  0  0  0  0  0  0  0  0  0
   10.7102    6.0821    9.5504 H   0  0  0  0  0  0  0  0  0  0  0  0
   10.2030    5.0885    6.4257 C   0  0  0  0  0  0  0  0  0  0  0  0
    9.4356    5.0933    5.8156 H   0  0  0  0  0  0  0  0  0  0  0  0
   10.4919    4.1646    6.5791 H   0  0  0  0  0  0  0  0  0  0  0  0
   10.9385    5.5999    6.0298 H   0  0  0  0  0  0  0  0  0  0  0  0
    8.1689    7.3543    7.2933 B   0  0  0  0  0  0  0  0  0  0  0  0
    7.4969    6.1838    7.6710 O   0  0  0  0  0  0  0  0  0  0  0  0
    9.5440    7.1315    7.4828 O   0  0  0  0  0  0  0  0  0  0  0  0
    8.9467   10.9182    8.5557 P   0  0  0  0  0  0  0  0  0  0  0  0
    6.1728    9.9008    9.3537 P   0  0  0  0  0  0  0  0  0  0  0  0
    7.5001    9.4170    7.5960 Cu  0  0  0  0  0  0  0  0  0  0  0  0
    6.9590    5.7200    3.9553 C   0  0  0  0  0  0  0  0  0  0  0  0
    8.2285    6.1938    3.5600 C   0  0  0  0  0  0  0  0  0  0  0  0
    9.1798    5.2787    3.1011 C   0  0  0  0  0  0  0  0  0  0  0  0
   10.0282    5.5911    2.8091 H   0  0  0  0  0  0  0  0  0  0  0  0
    8.9044    3.9268    3.0669 C   0  0  0  0  0  0  0  0  0  0  0  0
    9.5677    3.3151    2.7691 H   0  0  0  0  0  0  0  0  0  0  0  0
    7.6618    3.4585    3.4666 C   0  0  0  0  0  0  0  0  0  0  0  0
    7.4742    2.5276    3.4445 H   0  0  0  0  0  0  0  0  0  0  0  0
    6.6885    4.3565    3.9017 C   0  0  0  0  0  0  0  0  0  0  0  0
    5.8342    4.0345    4.1648 H   0  0  0  0  0  0  0  0  0  0  0  0
    4.9675    7.5410    3.0236 C   0  0  0  0  0  0  0  0  0  0  0  0
    4.7008    8.9006    2.8803 C   0  0  0  0  0  0  0  0  0  0  0  0
    4.8991    9.5016    3.5877 H   0  0  0  0  0  0  0  0  0  0  0  0
    4.1409    9.3766    1.6945 C   0  0  0  0  0  0  0  0  0  0  0  0
    3.9646   10.3056    1.5986 H   0  0  0  0  0  0  0  0  0  0  0  0
    3.8405    8.5146    0.6586 C   0  0  0  0  0  0  0  0  0  0  0  0
    3.4612    8.8467   -0.1460 H   0  0  0  0  0  0  0  0  0  0  0  0
    4.0957    7.1650    0.8019 C   0  0  0  0  0  0  0  0  0  0  0  0
    3.8896    6.5683    0.0924 H   0  0  0  0  0  0  0  0  0  0  0  0
    4.6529    6.6719    1.9798 C   0  0  0  0  0  0  0  0  0  0  0  0
    4.8202    5.7416    2.0714 H   0  0  0  0  0  0  0  0  0  0  0  0
    4.4160    5.9755    5.3570 C   0  0  0  0  0  0  0  0  0  0  0  0
    3.1185    5.9519    4.8456 C   0  0  0  0  0  0  0  0  0  0  0  0
    2.9232    6.4295    4.0478 H   0  0  0  0  0  0  0  0  0  0  0  0
    2.1072    5.2460    5.4832 C   0  0  0  0  0  0  0  0  0  0  0  0
    1.2292    5.2397    5.1209 H   0  0  0  0  0  0  0  0  0  0  0  0
    2.3826    4.5531    6.6400 C   0  0  0  0  0  0  0  0  0  0  0  0
    1.6928    4.0687    7.0771 H   0  0  0  0  0  0  0  0  0  0  0  0
    3.6437    4.5608    7.1619 C   0  0  0  0  0  0  0  0  0  0  0  0
    3.8321    4.0709    7.9533 H   0  0  0  0  0  0  0  0  0  0  0  0
    4.6621    5.2903    6.5296 C   0  0  0  0  0  0  0  0  0  0  0  0
    5.5303    5.3125    6.9126 H   0  0  0  0  0  0  0  0  0  0  0  0
    8.2164    8.6950    2.1270 C   0  0  0  0  0  0  0  0  0  0  0  0
    8.4249   10.0626    1.9785 C   0  0  0  0  0  0  0  0  0  0  0  0
    8.7330   10.5749    2.7160 H   0  0  0  0  0  0  0  0  0  0  0  0
    8.1842   10.6862    0.7559 C   0  0  0  0  0  0  0  0  0  0  0  0
    8.3504   11.6170    0.6591 H   0  0  0  0  0  0  0  0  0  0  0  0
    7.7068    9.9586   -0.3181 C   0  0  0  0  0  0  0  0  0  0  0  0
    7.5508   10.3856   -1.1518 H   0  0  0  0  0  0  0  0  0  0  0  0
    7.4571    8.6090   -0.1748 C   0  0  0  0  0  0  0  0  0  0  0  0
    7.1027    8.1115   -0.9020 H   0  0  0  0  0  0  0  0  0  0  0  0
    7.7274    7.9698    1.0464 C   0  0  0  0  0  0  0  0  0  0  0  0
    7.5756    7.0361    1.1342 H   0  0  0  0  0  0  0  0  0  0  0  0
   10.3268    8.2818    3.9648 C   0  0  0  0  0  0  0  0  0  0  0  0
   11.2679    8.0068    2.9552 C   0  0  0  0  0  0  0  0  0  0  0  0
   10.9923    7.5769    2.1545 H   0  0  0  0  0  0  0  0  0  0  0  0
   12.5920    8.3608    3.1274 C   0  0  0  0  0  0  0  0  0  0  0  0
   13.2262    8.1589    2.4487 H   0  0  0  0  0  0  0  0  0  0  0  0
   13.0052    9.0119    4.2895 C   0  0  0  0  0  0  0  0  0  0  0  0
   13.9174    9.2482    4.4060 H   0  0  0  0  0  0  0  0  0  0  0  0
   12.0755    9.3109    5.2715 C   0  0  0  0  0  0  0  0  0  0  0  0
   12.3483    9.7727    6.0556 H   0  0  0  0  0  0  0  0  0  0  0  0
   10.7407    8.9389    5.1138 C   0  0  0  0  0  0  0  0  0  0  0  0
   10.1121    9.1351    5.7977 H   0  0  0  0  0  0  0  0  0  0  0  0
    6.2711   12.6663    4.8798 C   0  0  0  0  0  0  0  0  0  0  0  0
    4.9009   12.1692    5.3951 C   0  0  0  0  0  0  0  0  0  0  0  0
    6.4314   12.5585    3.3667 C   0  0  0  0  0  0  0  0  0  0  0  0
    6.1670   11.6615    3.0735 H   0  0  0  0  0  0  0  0  0  0  0  0
    5.8633   13.2262    2.9293 H   0  0  0  0  0  0  0  0  0  0  0  0
    7.3681   12.7179    3.1252 H   0  0  0  0  0  0  0  0  0  0  0  0
    6.6524   14.0508    5.3570 C   0  0  0  0  0  0  0  0  0  0  0  0
    7.5407   14.2825    5.0137 H   0  0  0  0  0  0  0  0  0  0  0  0
    5.9964   14.7018    5.0299 H   0  0  0  0  0  0  0  0  0  0  0  0
    6.6668   14.0667    6.3369 H   0  0  0  0  0  0  0  0  0  0  0  0
    3.7620   12.2804    4.4223 C   0  0  0  0  0  0  0  0  0  0  0  0
    2.9566   11.8824    4.8143 H   0  0  0  0  0  0  0  0  0  0  0  0
    3.5947   13.2252    4.2220 H   0  0  0  0  0  0  0  0  0  0  0  0
    3.9909   11.8068    3.5955 H   0  0  0  0  0  0  0  0  0  0  0  0
    4.4981   12.8004    6.7202 C   0  0  0  0  0  0  0  0  0  0  0  0
    5.2655   12.7957    7.3303 H   0  0  0  0  0  0  0  0  0  0  0  0
    4.2092   13.7243    6.5668 H   0  0  0  0  0  0  0  0  0  0  0  0
    3.7626   12.2891    7.1161 H   0  0  0  0  0  0  0  0  0  0  0  0
    6.5322   10.5347    5.8526 B   0  0  0  0  0  0  0  0  0  0  0  0
    7.2042   11.7051    5.4749 O   0  0  0  0  0  0  0  0  0  0  0  0
    5.1571   10.7575    5.6631 O   0  0  0  0  0  0  0  0  0  0  0  0
    5.7544    6.9707    4.5902 P   0  0  0  0  0  0  0  0  0  0  0  0
    8.5283    7.9881    3.7922 P   0  0  0  0  0  0  0  0  0  0  0  0
    7.2010    8.4719    5.5499 Cu  0  0  0  0  0  0  0  0  0  0  0  0
  1  2  4  0  0  0  0
  2  3  4  0  0  0  0
  3  4  1  0  0  0  0
  5  3  4  0  0  0  0
  6  5  1  0  0  0  0
  7  5  4  0  0  0  0
  8  7  1  0  0  0  0
  9  1  4  0  0  0  0
 10  9  1  0  0  0  0
 11 12  4  0  0  0  0
 12 13  1  0  0  0  0
 14 12  4  0  0  0  0
 15 14  1  0  0  0  0
 16 14  4  0  0  0  0
 17 16  1  0  0  0  0
 18 16  4  0  0  0  0
 19 18  1  0  0  0  0
 20 11  4  0  0  0  0
 21 20  1  0  0  0  0
 22 23  4  0  0  0  0
 23 24  1  0  0  0  0
 25 23  4  0  0  0  0
 26 25  1  0  0  0  0
 27 25  4  0  0  0  0
 28 27  1  0  0  0  0
 29 27  4  0  0  0  0
 30 29  1  0  0  0  0
 31 22  4  0  0  0  0
 32 31  1  0  0  0  0
 33 34  4  0  0  0  0
 34 35  1  0  0  0  0
 36 34  4  0  0  0  0
 37 36  1  0  0  0  0
 38 36  4  0  0  0  0
 39 38  1  0  0  0  0
 40 38  4  0  0  0  0
 41 40  1  0  0  0  0
 42 33  4  0  0  0  0
 43 42  1  0  0  0  0
 44 45  4  0  0  0  0
 45 46  1  0  0  0  0
 47 45  4  0  0  0  0
 48 47  1  0  0  0  0
 49 47  4  0  0  0  0
 50 49  1  0  0  0  0
 51 49  4  0  0  0  0
 52 51  1  0  0  0  0
 53 44  4  0  0  0  0
 54 53  1  0  0  0  0
 55 56  1  0  0  0  0
 56 65  1  0  0  0  0
 57 55  1  0  0  0  0
 58 57  1  0  0  0  0
 59 57  1  0  0  0  0
 60 57  1  0  0  0  0
 61 55  1  0  0  0  0
 62 61  1  0  0  0  0
 63 61  1  0  0  0  0
 64 61  1  0  0  0  0
 65 66  1  0  0  0  0
 67 65  1  0  0  0  0
 68 65  1  0  0  0  0
 69 56  1  0  0  0  0
 70 69  1  0  0  0  0
 71 69  1  0  0  0  0
 72 69  1  0  0  0  0
 73 74  1  0  0  0  0
 74 55  1  0  0  0  0
 75 56  1  0  0  0  0
 76  1  1  0  0  0  0
 77  2  1  0  0  0  0
 78 73  1  0  0  0  0
 79 80  4  0  0  0  0
 80 81  4  0  0  0  0
 81 82  1  0  0  0  0
 83 81  4  0  0  0  0
 84 83  1  0  0  0  0
 85 83  4  0  0  0  0
 86 85  1  0  0  0  0
 87 79  4  0  0  0  0
 88 87  1  0  0  0  0
 89 90  4  0  0  0  0
 90 91  1  0  0  0  0
 92 90  4  0  0  0  0
 93 92  1  0  0  0  0
 94 92  4  0  0  0  0
 95 94  1  0  0  0  0
 96 94  4  0  0  0  0
 97 96  1  0  0  0  0
 98 89  4  0  0  0  0
 99 98  1  0  0  0  0
100101  4  0  0  0  0
101102  1  0  0  0  0
103101  4  0  0  0  0
104103  1  0  0  0  0
105103  4  0  0  0  0
106105  1  0  0  0  0
107105  4  0  0  0  0
108107  1  0  0  0  0
109100  4  0  0  0  0
110109  1  0  0  0  0
111112  4  0  0  0  0
112113  1  0  0  0  0
114112  4  0  0  0  0
115114  1  0  0  0  0
116114  4  0  0  0  0
117116  1  0  0  0  0
118116  4  0  0  0  0
119118  1  0  0  0  0
120111  4  0  0  0  0
121120  1  0  0  0  0
122123  4  0  0  0  0
123124  1  0  0  0  0
125123  4  0  0  0  0
126125  1  0  0  0  0
127125  4  0  0  0  0
128127  1  0  0  0  0
129127  4  0  0  0  0
130129  1  0  0  0  0
131122  4  0  0  0  0
132131  1  0  0  0  0
133134  1  0  0  0  0
134143  1  0  0  0  0
135133  1  0  0  0  0
136135  1  0  0  0  0
137135  1  0  0  0  0
138135  1  0  0  0  0
139133  1  0  0  0  0
140139  1  0  0  0  0
141139  1  0  0  0  0
142139  1  0  0  0  0
143144  1  0  0  0  0
145143  1  0  0  0  0
146143  1  0  0  0  0
147134  1  0  0  0  0
148147  1  0  0  0  0
149147  1  0  0  0  0
150147  1  0  0  0  0
151 78  1  0  0  0  0
152133  1  0  0  0  0
153134  1  0  0  0  0
154 79  1  0  0  0  0
155 80  1  0  0  0  0
156 73  1  0  0  0  0
  7  9  4  0  0  0  0
 11 76  1  0  0  0  0
 18 20  4  0  0  0  0
 22 76  1  0  0  0  0
 29 31  4  0  0  0  0
 33 77  1  0  0  0  0
 40 42  4  0  0  0  0
 44 77  1  0  0  0  0
 51 53  4  0  0  0  0
 73 75  1  0  0  0  0
 76 78  1  0  0  0  0
 77 78  1  0  0  0  0
 78156  1  0  0  0  0
 85 87  4  0  0  0  0
 89154  1  0  0  0  0
 96 98  4  0  0  0  0
100154  1  0  0  0  0
107109  4  0  0  0  0
111155  1  0  0  0  0
118120  4  0  0  0  0
122155  1  0  0  0  0
129131  4  0  0  0  0
151152  1  0  0  0  0
151153  1  0  0  0  0
151156  1  0  0  0  0
154156  1  0  0  0  0
155156  1  0  0  0  0
M  END
$$$$
GIKDIR

From CSD data. Using bond type 'Any'. No disordered atoms. Largest molecule.
 89 95  0  0  0  0  0  0  0  0999 V2000
    1.1231    1.6892   11.3631 Fe  0  2  0  0  0  0  0  0  0  0  0  0
    1.3626    3.1332   13.0353 P   0  0  0  0  0  0  0  0  0  0  0  0
    1.1249    0.0397    9.8904 P   0  0  0  0  0  0  0  0  0  0  0  0
    2.7098    1.2481    7.9929 C   0  0  0  0  0  0  0  0  0  0  0  0
    2.7431    2.0036    8.6162 H   0  0  0  0  0  0  0  0  0  0  0  0
    2.8240    1.5755    7.0763 H   0  0  0  0  0  0  0  0  0  0  0  0
    3.4286    0.6169    8.2061 H   0  0  0  0  0  0  0  0  0  0  0  0
    3.3231    3.2190   15.0980 C   0  0  0  0  0  0  0  0  0  0  0  0
    2.8840    3.9960   15.4233 H   0  0  0  0  0  0  0  0  0  0  0  0
    2.8262    2.5612   13.9703 C   0  0  0  0  0  0  0  0  0  0  0  0
    1.3564    0.5419    8.1180 C   0  0  0  0  0  0  0  0  0  0  0  0
    0.6544    1.2253    7.9175 H   0  0  0  0  0  0  0  0  0  0  0  0
    1.8366    4.8944   12.6956 C   0  0  0  0  0  0  0  0  0  0  0  0
    1.9698    5.3449   13.5785 H   0  0  0  0  0  0  0  0  0  0  0  0
    3.1679    4.9453   11.9490 C   0  0  0  0  0  0  0  0  0  0  0  0
    3.8600    4.5042   12.4848 H   0  0  0  0  0  0  0  0  0  0  0  0
    3.4203    5.8796   11.7947 H   0  0  0  0  0  0  0  0  0  0  0  0
    3.0778    4.4848   11.0887 H   0  0  0  0  0  0  0  0  0  0  0  0
   -0.0514    3.2314   14.2320 C   0  0  0  0  0  0  0  0  0  0  0  0
   -0.8441    3.5346   13.7028 H   0  0  0  0  0  0  0  0  0  0  0  0
    0.7724    5.6836   11.9337 C   0  0  0  0  0  0  0  0  0  0  0  0
    0.6210    5.2676   11.0595 H   0  0  0  0  0  0  0  0  0  0  0  0
    1.0780    6.6063   11.8079 H   0  0  0  0  0  0  0  0  0  0  0  0
   -0.0634    5.6830   12.4452 H   0  0  0  0  0  0  0  0  0  0  0  0
   -1.2145    2.1961    9.4266 O   0  0  0  0  0  0  0  0  0  0  0  0
   -1.2691    3.6113   11.2291 O   0  0  0  0  0  0  0  0  0  0  0  0
    3.4061   -0.4903   11.3312 C   0  0  0  0  0  0  0  0  0  0  0  0
    5.0969    1.6357   15.2538 C   0  0  0  0  0  0  0  0  0  0  0  0
    5.8703    1.3049   15.6953 H   0  0  0  0  0  0  0  0  0  0  0  0
    3.4834    1.4372   13.4376 C   0  0  0  0  0  0  0  0  0  0  0  0
   -0.4043   -1.7554   11.3411 C   0  0  0  0  0  0  0  0  0  0  0  0
    0.4660   -2.0007   11.7199 H   0  0  0  0  0  0  0  0  0  0  0  0
   -0.9897   -2.5410   11.3323 H   0  0  0  0  0  0  0  0  0  0  0  0
   -0.8109   -1.0506   11.8872 H   0  0  0  0  0  0  0  0  0  0  0  0
    4.6236    0.9955   14.1150 C   0  0  0  0  0  0  0  0  0  0  0  0
    5.0888    0.2349   13.7870 H   0  0  0  0  0  0  0  0  0  0  0  0
    2.5933   -0.9828   10.2915 C   0  0  0  0  0  0  0  0  0  0  0  0
    1.2307   -0.5477    7.0496 C   0  0  0  0  0  0  0  0  0  0  0  0
    1.9721   -1.1822    7.1417 H   0  0  0  0  0  0  0  0  0  0  0  0
    1.2603   -0.1378    6.1600 H   0  0  0  0  0  0  0  0  0  0  0  0
    0.3801   -1.0205    7.1636 H   0  0  0  0  0  0  0  0  0  0  0  0
   -2.5787    3.6658   10.6180 C   0  0  0  0  0  0  0  0  0  0  0  0
   -0.2119   -1.2452    9.9089 C   0  0  0  0  0  0  0  0  0  0  0  0
    0.1090   -2.0162    9.3588 H   0  0  0  0  0  0  0  0  0  0  0  0
   -0.5600    2.5638   10.6203 B   0  5  0  0  0  0  0  0  0  0  0  0
    2.9051   -2.1610    9.6227 C   0  0  0  0  0  0  0  0  0  0  0  0
    2.3220   -2.4878    8.9478 H   0  0  0  0  0  0  0  0  0  0  0  0
   -2.2770    3.1454    9.1876 C   0  0  0  0  0  0  0  0  0  0  0  0
    4.5810   -1.2042   11.5816 C   0  0  0  0  0  0  0  0  0  0  0  0
    5.1811   -0.8798   12.2429 H   0  0  0  0  0  0  0  0  0  0  0  0
    4.0609   -2.8641    9.9322 C   0  0  0  0  0  0  0  0  0  0  0  0
    4.2664   -3.6752    9.4823 H   0  0  0  0  0  0  0  0  0  0  0  0
   -3.0799    5.0960   10.6905 C   0  0  0  0  0  0  0  0  0  0  0  0
   -3.2370    5.3401   11.6264 H   0  0  0  0  0  0  0  0  0  0  0  0
   -3.9175    5.1743   10.1875 H   0  0  0  0  0  0  0  0  0  0  0  0
   -2.4095    5.6971   10.3040 H   0  0  0  0  0  0  0  0  0  0  0  0
   -1.5568   -0.8007    9.3290 C   0  0  0  0  0  0  0  0  0  0  0  0
   -1.9651   -0.1366    9.9229 H   0  0  0  0  0  0  0  0  0  0  0  0
   -2.1504   -1.5763    9.2492 H   0  0  0  0  0  0  0  0  0  0  0  0
   -1.4160   -0.4046    8.4438 H   0  0  0  0  0  0  0  0  0  0  0  0
   -3.4277    2.4274    8.5056 C   0  0  0  0  0  0  0  0  0  0  0  0
   -3.1420    2.1210    7.6198 H   0  0  0  0  0  0  0  0  0  0  0  0
   -4.1850    3.0422    8.4102 H   0  0  0  0  0  0  0  0  0  0  0  0
   -3.6983    1.6569    9.0468 H   0  0  0  0  0  0  0  0  0  0  0  0
   -3.4878    2.7343   11.4094 C   0  0  0  0  0  0  0  0  0  0  0  0
   -3.1668    1.8123   11.3226 H   0  0  0  0  0  0  0  0  0  0  0  0
   -4.4020    2.7956   11.0609 H   0  0  0  0  0  0  0  0  0  0  0  0
   -3.4807    2.9949   12.3541 H   0  0  0  0  0  0  0  0  0  0  0  0
    4.9050   -2.3692   10.9003 C   0  0  0  0  0  0  0  0  0  0  0  0
    5.7121   -2.8270   11.1030 H   0  0  0  0  0  0  0  0  0  0  0  0
   -1.7228    4.2319    8.2756 C   0  0  0  0  0  0  0  0  0  0  0  0
   -1.0105    4.7177    8.7416 H   0  0  0  0  0  0  0  0  0  0  0  0
   -2.4403    4.8549    8.0359 H   0  0  0  0  0  0  0  0  0  0  0  0
   -1.3606    3.8224    7.4621 H   0  0  0  0  0  0  0  0  0  0  0  0
    4.4511    2.7451   15.7438 C   0  0  0  0  0  0  0  0  0  0  0  0
    4.7776    3.1839   16.5209 H   0  0  0  0  0  0  0  0  0  0  0  0
    2.8530    0.8010   12.1056 B   0  5  0  0  0  0  0  0  0  0  0  0
   -0.3931    1.8379   14.7492 C   0  0  0  0  0  0  0  0  0  0  0  0
   -0.5660    1.2414   13.9909 H   0  0  0  0  0  0  0  0  0  0  0  0
   -1.1908    1.8860   15.3157 H   0  0  0  0  0  0  0  0  0  0  0  0
    0.3593    1.4905   15.2727 H   0  0  0  0  0  0  0  0  0  0  0  0
    0.0792    4.2103   15.4048 C   0  0  0  0  0  0  0  0  0  0  0  0
    0.7745    3.8930   16.0187 H   0  0  0  0  0  0  0  0  0  0  0  0
   -0.7755    4.2662   15.8804 H   0  0  0  0  0  0  0  0  0  0  0  0
    0.3233    5.0964   15.0651 H   0  0  0  0  0  0  0  0  0  0  0  0
    2.6490    1.7554   11.2539 H   0  0  0  0  0  0  0  0  0  0  0  0
   -0.3369    1.5541   11.5076 H   0  0  0  0  0  0  0  0  0  0  0  0
    1.5953    0.5939   12.3850 H   0  0  0  0  0  0  0  0  0  0  0  0
    0.7495    2.7606   10.3646 H   0  0  0  0  0  0  0  0  0  0  0  0
  1  2  1  0  0  0  0
  2 10  1  0  0  0  0
  3  1  1  0  0  0  0
  4  5  1  0  0  0  0
  6  4  1  0  0  0  0
  7  4  1  0  0  0  0
  8  9  1  0  0  0  0
 10  8  4  0  0  0  0
 11  3  1  0  0  0  0
 12 11  1  0  0  0  0
 13  2  1  0  0  0  0
 14 13  1  0  0  0  0
 15 13  1  0  0  0  0
 16 15  1  0  0  0  0
 17 15  1  0  0  0  0
 18 15  1  0  0  0  0
 19  2  1  0  0  0  0
 20 19  1  0  0  0  0
 21 13  1  0  0  0  0
 22 21  1  0  0  0  0
 23 21  1  0  0  0  0
 24 21  1  0  0  0  0
 25 45  1  0  0  0  0
 26 42  1  0  0  0  0
 27 37  4  0  0  0  0
 28 29  1  0  0  0  0
 30 10  4  0  0  0  0
 31 32  1  0  0  0  0
 33 31  1  0  0  0  0
 34 31  1  0  0  0  0
 35 28  4  0  0  0  0
 36 35  1  0  0  0  0
 37  3  1  0  0  0  0
 38 11  1  0  0  0  0
 39 38  1  0  0  0  0
 40 38  1  0  0  0  0
 41 38  1  0  0  0  0
 42 48  1  0  0  0  0
 43  3  1  0  0  0  0
 44 43  1  0  0  0  0
 45 26  1  0  0  0  0
 46 37  4  0  0  0  0
 47 46  1  0  0  0  0
 48 25  1  0  0  0  0
 49 27  4  0  0  0  0
 50 49  1  0  0  0  0
 51 46  4  0  0  0  0
 52 51  1  0  0  0  0
 53 42  1  0  0  0  0
 54 53  1  0  0  0  0
 55 53  1  0  0  0  0
 56 53  1  0  0  0  0
 57 43  1  0  0  0  0
 58 57  1  0  0  0  0
 59 57  1  0  0  0  0
 60 57  1  0  0  0  0
 61 48  1  0  0  0  0
 62 61  1  0  0  0  0
 63 61  1  0  0  0  0
 64 61  1  0  0  0  0
 65 42  1  0  0  0  0
 66 65  1  0  0  0  0
 67 65  1  0  0  0  0
 68 65  1  0  0  0  0
 69 49  4  0  0  0  0
 70 69  1  0  0  0  0
 71 48  1  0  0  0  0
 72 71  1  0  0  0  0
 73 71  1  0  0  0  0
 74 71  1  0  0  0  0
 75  8  4  0  0  0  0
 76 75  1  0  0  0  0
 77 27  1  0  0  0  0
 78 19  1  0  0  0  0
 79 78  1  0  0  0  0
 80 78  1  0  0  0  0
 81 78  1  0  0  0  0
 82 19  1  0  0  0  0
 83 82  1  0  0  0  0
 84 82  1  0  0  0  0
 85 82  1  0  0  0  0
 86  1  1  0  0  0  0
 87  1  1  0  0  0  0
 88  1  1  0  0  0  0
 89  1  1  0  0  0  0
  4 11  1  0  0  0  0
 28 75  4  0  0  0  0
 30 35  4  0  0  0  0
 30 77  1  0  0  0  0
 31 43  1  0  0  0  0
 45 87  1  0  0  0  0
 45 89  1  0  0  0  0
 51 69  4  0  0  0  0
 77 86  1  0  0  0  0
 77 88  1  0  0  0  0
M  CHG  3   1   2  45  -1  77  -1
M  END
$$$$
GINCUF

From CSD data. Using bond type 'Any'. No disordered atoms. Largest molecule.
270286  0  0  0  0  0  0  0  0999 V2000
   15.5730    7.2262   11.3259 B   0  0  0  0  0  0  0  0  0  0  0  0
   11.5892    8.6165   12.0122 Br  0  0  0  0  0  0  0  0  0  0  0  0
   16.8598    6.8654   12.9178 Sn  0  0  0  0  0  0  0  0  0  0  0  0
   13.4293    7.3517   10.7979 Mg  0  0  0  0  0  0  0  0  0  0  0  0
   16.8310    7.0720    9.9547 P   0  0  0  0  0  0  0  0  0  0  0  0
   18.5403    6.7012   10.4930 C   0  0  0  0  0  0  0  0  0  0  0  0
   21.1084    6.1873   11.4303 C   0  0  0  0  0  0  0  0  0  0  0  0
   21.9792    6.0036   11.7600 H   0  0  0  0  0  0  0  0  0  0  0  0
   13.9206    4.9604   15.3967 C   0  0  0  0  0  0  0  0  0  0  0  0
   14.4798    5.6715   15.8233 H   0  0  0  0  0  0  0  0  0  0  0  0
   19.6067    6.6051    9.5986 C   0  0  0  0  0  0  0  0  0  0  0  0
   19.4521    6.7119    8.6672 H   0  0  0  0  0  0  0  0  0  0  0  0
   17.0929    5.0140   16.9378 C   0  0  0  0  0  0  0  0  0  0  0  0
   16.9668    4.1437   17.2981 H   0  0  0  0  0  0  0  0  0  0  0  0
   15.0556    4.8977    6.9503 C   0  0  0  0  0  0  0  0  0  0  0  0
   14.4610    5.0473    6.2239 H   0  0  0  0  0  0  0  0  0  0  0  0
   14.3451    2.9510   13.9333 C   0  0  0  0  0  0  0  0  0  0  0  0
   13.4018    2.8577   13.8777 H   0  0  0  0  0  0  0  0  0  0  0  0
   20.9129    6.3473   10.0693 C   0  0  0  0  0  0  0  0  0  0  0  0
   21.6419    6.2850    9.4645 H   0  0  0  0  0  0  0  0  0  0  0  0
   20.0439    6.2941   12.3165 C   0  0  0  0  0  0  0  0  0  0  0  0
   20.2044    6.1842   13.2473 H   0  0  0  0  0  0  0  0  0  0  0  0
   17.5161    8.9880   15.3434 C   0  0  0  0  0  0  0  0  0  0  0  0
   17.0109    8.5460    8.8659 C   0  0  0  0  0  0  0  0  0  0  0  0
   18.7441    6.5582   11.8744 C   0  0  0  0  0  0  0  0  0  0  0  0
   17.0656    6.5533   15.0426 C   0  0  0  0  0  0  0  0  0  0  0  0
   17.0808    3.2412   14.0459 C   0  0  0  0  0  0  0  0  0  0  0  0
   16.6847    9.7803    9.4533 C   0  0  0  0  0  0  0  0  0  0  0  0
   16.3983    9.8324   10.3564 H   0  0  0  0  0  0  0  0  0  0  0  0
   16.7518    4.4059    9.0910 C   0  0  0  0  0  0  0  0  0  0  0  0
   17.3213    4.2345    9.8312 H   0  0  0  0  0  0  0  0  0  0  0  0
   17.2131   10.8525    7.3330 C   0  0  0  0  0  0  0  0  0  0  0  0
   17.2536   11.6339    6.7936 H   0  0  0  0  0  0  0  0  0  0  0  0
   16.7988   10.9448    8.6551 C   0  0  0  0  0  0  0  0  0  0  0  0
   16.5904   11.7934    9.0267 H   0  0  0  0  0  0  0  0  0  0  0  0
   17.5615    9.6447    6.8070 C   0  0  0  0  0  0  0  0  0  0  0  0
   17.8743    9.5950    5.9116 H   0  0  0  0  0  0  0  0  0  0  0  0
   17.6163   11.5313   14.1748 C   0  0  0  0  0  0  0  0  0  0  0  0
   17.5133    6.0521   17.7605 C   0  0  0  0  0  0  0  0  0  0  0  0
   17.7132    5.8832   18.6737 H   0  0  0  0  0  0  0  0  0  0  0  0
   17.4626    8.4757    7.5745 C   0  0  0  0  0  0  0  0  0  0  0  0
   17.7079    7.6382    7.1993 H   0  0  0  0  0  0  0  0  0  0  0  0
   18.5892    3.3534   14.0930 C   0  0  0  0  0  0  0  0  0  0  0  0
   18.8090    4.3051   14.3091 H   0  0  0  0  0  0  0  0  0  0  0  0
   16.8540    5.2454   15.5768 C   0  0  0  0  0  0  0  0  0  0  0  0
   13.1531    4.3364   10.3947 C   0  0  0  0  0  0  0  0  0  0  0  0
   13.7998    4.1620   11.1245 H   0  0  0  0  0  0  0  0  0  0  0  0
   13.6480    4.3666    9.5383 H   0  0  0  0  0  0  0  0  0  0  0  0
   15.0042    9.3281   15.8305 C   0  0  0  0  0  0  0  0  0  0  0  0
   15.1019    8.3774   16.1228 H   0  0  0  0  0  0  0  0  0  0  0  0
   15.4960    3.5903    7.2593 C   0  0  0  0  0  0  0  0  0  0  0  0
   15.2191    2.8629    6.7137 H   0  0  0  0  0  0  0  0  0  0  0  0
   20.0253    8.6753   15.0160 C   0  0  0  0  0  0  0  0  0  0  0  0
   19.7947    7.7063   14.9377 H   0  0  0  0  0  0  0  0  0  0  0  0
   18.7524   10.7570   14.3038 C   0  0  0  0  0  0  0  0  0  0  0  0
   19.5756   11.1009   13.9791 H   0  0  0  0  0  0  0  0  0  0  0  0
   10.8923    4.0220    9.7869 C   0  0  0  0  0  0  0  0  0  0  0  0
   10.9322    4.0682    8.7990 H   0  0  0  0  0  0  0  0  0  0  0  0
   10.0403    3.5959   10.0557 H   0  0  0  0  0  0  0  0  0  0  0  0
   14.8521    3.9892   14.6824 C   0  0  0  0  0  0  0  0  0  0  0  0
   18.7433    9.4897   14.8871 C   0  0  0  0  0  0  0  0  0  0  0  0
   16.4901    2.1895   13.3460 C   0  0  0  0  0  0  0  0  0  0  0  0
   17.0445    1.5540   12.9083 H   0  0  0  0  0  0  0  0  0  0  0  0
   12.9455    5.6374   14.4225 C   0  0  0  0  0  0  0  0  0  0  0  0
   12.4050    6.2969   14.9052 H   0  0  0  0  0  0  0  0  0  0  0  0
   12.3571    4.9610   14.0254 H   0  0  0  0  0  0  0  0  0  0  0  0
   13.4508    6.0865   13.7123 H   0  0  0  0  0  0  0  0  0  0  0  0
   16.4224   11.0335   14.6844 C   0  0  0  0  0  0  0  0  0  0  0  0
   15.6352   11.5615   14.6250 H   0  0  0  0  0  0  0  0  0  0  0  0
   14.4798    0.9182   12.4270 C   0  0  0  0  0  0  0  0  0  0  0  0
   13.4934    1.0783   12.4423 H   0  0  0  0  0  0  0  0  0  0  0  0
   15.5110    5.9701    7.7321 C   0  0  0  0  0  0  0  0  0  0  0  0
   15.2281    6.8546    7.5322 H   0  0  0  0  0  0  0  0  0  0  0  0
   16.3826    5.7371    8.8086 C   0  0  0  0  0  0  0  0  0  0  0  0
   17.6413    7.3228   17.2509 C   0  0  0  0  0  0  0  0  0  0  0  0
   17.8751    8.0375   17.8320 H   0  0  0  0  0  0  0  0  0  0  0  0
   20.6756    8.9155   16.4200 C   0  0  0  0  0  0  0  0  0  0  0  0
   21.5110    8.4071   16.4856 H   0  0  0  0  0  0  0  0  0  0  0  0
   20.0581    8.6210   17.1215 H   0  0  0  0  0  0  0  0  0  0  0  0
   20.8662    9.8710   16.5336 H   0  0  0  0  0  0  0  0  0  0  0  0
   14.6269   10.1533   17.0728 C   0  0  0  0  0  0  0  0  0  0  0  0
   13.8334    9.7617   17.4961 H   0  0  0  0  0  0  0  0  0  0  0  0
   14.4323   11.0758   16.8066 H   0  0  0  0  0  0  0  0  0  0  0  0
   15.3721   10.1465   17.7089 H   0  0  0  0  0  0  0  0  0  0  0  0
   16.3175    3.3555    8.3358 C   0  0  0  0  0  0  0  0  0  0  0  0
   16.5805    2.4695    8.5528 H   0  0  0  0  0  0  0  0  0  0  0  0
   21.0753    9.0128   13.9456 C   0  0  0  0  0  0  0  0  0  0  0  0
   21.8167    8.3742   14.0025 H   0  0  0  0  0  0  0  0  0  0  0  0
   21.4131    9.9202   14.0927 H   0  0  0  0  0  0  0  0  0  0  0  0
   20.6644    8.9568   13.0571 H   0  0  0  0  0  0  0  0  0  0  0  0
   16.2778    4.1395   14.7438 C   0  0  0  0  0  0  0  0  0  0  0  0
   13.1880    4.1997   16.5039 C   0  0  0  0  0  0  0  0  0  0  0  0
   12.6402    4.8258   17.0222 H   0  0  0  0  0  0  0  0  0  0  0  0
   13.8421    3.7716   17.0941 H   0  0  0  0  0  0  0  0  0  0  0  0
   12.6116    3.5158   16.1035 H   0  0  0  0  0  0  0  0  0  0  0  0
   15.1180    2.0518   13.2723 C   0  0  0  0  0  0  0  0  0  0  0  0
   11.0233    5.3849   10.3927 C   0  0  0  0  0  0  0  0  0  0  0  0
   10.6684    6.0746    9.7771 H   0  0  0  0  0  0  0  0  0  0  0  0
   10.5263    5.4354   11.2469 H   0  0  0  0  0  0  0  0  0  0  0  0
   19.2851    3.0148   12.7852 C   0  0  0  0  0  0  0  0  0  0  0  0
   20.2434    3.2056   12.8647 H   0  0  0  0  0  0  0  0  0  0  0  0
   18.9040    3.5558   12.0619 H   0  0  0  0  0  0  0  0  0  0  0  0
   19.1578    2.0641   12.5829 H   0  0  0  0  0  0  0  0  0  0  0  0
   17.4291    7.5822   15.8878 C   0  0  0  0  0  0  0  0  0  0  0  0
   19.1562    2.4856   15.2309 C   0  0  0  0  0  0  0  0  0  0  0  0
   20.1255    2.6175   15.2885 H   0  0  0  0  0  0  0  0  0  0  0  0
   18.9644    1.5428   15.0474 H   0  0  0  0  0  0  0  0  0  0  0  0
   18.7395    2.7462   16.0782 H   0  0  0  0  0  0  0  0  0  0  0  0
   16.3606    9.7782   15.2780 C   0  0  0  0  0  0  0  0  0  0  0  0
   13.9039    9.3745   14.8216 C   0  0  0  0  0  0  0  0  0  0  0  0
   14.1853    8.9025   14.0093 H   0  0  0  0  0  0  0  0  0  0  0  0
   13.6984   10.3068   14.6025 H   0  0  0  0  0  0  0  0  0  0  0  0
   13.1046    8.9413   15.1890 H   0  0  0  0  0  0  0  0  0  0  0  0
   12.1043    3.2453   10.3559 C   0  0  0  0  0  0  0  0  0  0  0  0
   11.9159    2.8871   11.2585 H   0  0  0  0  0  0  0  0  0  0  0  0
   12.3732    2.5032    9.7571 H   0  0  0  0  0  0  0  0  0  0  0  0
   17.6929   12.8918   13.4933 C   0  0  0  0  0  0  0  0  0  0  0  0
   18.6249   13.2374   13.6063 H   0  0  0  0  0  0  0  0  0  0  0  0
   14.8994    0.9639   10.9617 C   0  0  0  0  0  0  0  0  0  0  0  0
   14.4161    0.2735   10.4626 H   0  0  0  0  0  0  0  0  0  0  0  0
   15.8639    0.8017   10.8935 H   0  0  0  0  0  0  0  0  0  0  0  0
   14.6893    1.8452   10.5895 H   0  0  0  0  0  0  0  0  0  0  0  0
   16.7592   13.9161   14.0357 C   0  0  0  0  0  0  0  0  0  0  0  0
   16.7686   14.7057   13.4573 H   0  0  0  0  0  0  0  0  0  0  0  0
   17.0424   14.1689   14.9398 H   0  0  0  0  0  0  0  0  0  0  0  0
   15.8528   13.5451   14.0699 H   0  0  0  0  0  0  0  0  0  0  0  0
   17.4550   12.7047   12.0566 C   0  0  0  0  0  0  0  0  0  0  0  0
   17.7144   13.5180   11.5741 H   0  0  0  0  0  0  0  0  0  0  0  0
   16.5049   12.5231   11.9034 H   0  0  0  0  0  0  0  0  0  0  0  0
   17.9891   11.9493   11.7324 H   0  0  0  0  0  0  0  0  0  0  0  0
   14.6998   -0.4426   13.0553 C   0  0  0  0  0  0  0  0  0  0  0  0
   14.3448   -1.1370   12.4611 H   0  0  0  0  0  0  0  0  0  0  0  0
   14.2370   -0.4833   13.9178 H   0  0  0  0  0  0  0  0  0  0  0  0
   15.6590   -0.5888   13.1915 H   0  0  0  0  0  0  0  0  0  0  0  0
   12.4759    5.5902   10.6219 O   0  0  0  0  0  0  0  0  0  0  0  0
    8.8190    9.7027    9.1402 B   0  0  0  0  0  0  0  0  0  0  0  0
   12.8028    8.3124    8.4539 Br  0  0  0  0  0  0  0  0  0  0  0  0
    7.5322   10.0635    7.5483 Sn  0  0  0  0  0  0  0  0  0  0  0  0
   10.9627    9.5772    9.6682 Mg  0  0  0  0  0  0  0  0  0  0  0  0
    7.5610    9.8569   10.5114 P   0  0  0  0  0  0  0  0  0  0  0  0
    5.8518   10.2277    9.9731 C   0  0  0  0  0  0  0  0  0  0  0  0
    3.2836   10.7416    9.0358 C   0  0  0  0  0  0  0  0  0  0  0  0
    2.4128   10.9253    8.7061 H   0  0  0  0  0  0  0  0  0  0  0  0
   10.4714   11.9685    5.0695 C   0  0  0  0  0  0  0  0  0  0  0  0
    9.9122   11.2574    4.6429 H   0  0  0  0  0  0  0  0  0  0  0  0
    4.7854   10.3238   10.8675 C   0  0  0  0  0  0  0  0  0  0  0  0
    4.9399   10.2170   11.7989 H   0  0  0  0  0  0  0  0  0  0  0  0
    7.2991   11.9149    3.5284 C   0  0  0  0  0  0  0  0  0  0  0  0
    7.4252   12.7852    3.1680 H   0  0  0  0  0  0  0  0  0  0  0  0
    9.3364   12.0312   13.5158 C   0  0  0  0  0  0  0  0  0  0  0  0
    9.9310   11.8816   14.2422 H   0  0  0  0  0  0  0  0  0  0  0  0
   10.0469   13.9779    6.5328 C   0  0  0  0  0  0  0  0  0  0  0  0
   10.9903   14.0712    6.5884 H   0  0  0  0  0  0  0  0  0  0  0  0
    3.4791   10.5816   10.3968 C   0  0  0  0  0  0  0  0  0  0  0  0
    2.7502   10.6439   11.0016 H   0  0  0  0  0  0  0  0  0  0  0  0
    4.3481   10.6348    8.1496 C   0  0  0  0  0  0  0  0  0  0  0  0
    4.1876   10.7447    7.2188 H   0  0  0  0  0  0  0  0  0  0  0  0
    6.8759    7.9409    5.1227 C   0  0  0  0  0  0  0  0  0  0  0  0
    7.3812    8.3829   11.6002 C   0  0  0  0  0  0  0  0  0  0  0  0
    5.6479   10.3707    8.5917 C   0  0  0  0  0  0  0  0  0  0  0  0
    7.3264   10.3756    5.4235 C   0  0  0  0  0  0  0  0  0  0  0  0
    7.3113   13.6877    6.4202 C   0  0  0  0  0  0  0  0  0  0  0  0
    7.7073    7.1486   11.0128 C   0  0  0  0  0  0  0  0  0  0  0  0
    7.9937    7.0965   10.1097 H   0  0  0  0  0  0  0  0  0  0  0  0
    7.6403   12.5230   11.3751 C   0  0  0  0  0  0  0  0  0  0  0  0
    7.0708   12.6944   10.6349 H   0  0  0  0  0  0  0  0  0  0  0  0
    7.1789    6.0764   13.1331 C   0  0  0  0  0  0  0  0  0  0  0  0
    7.1384    5.2950   13.6726 H   0  0  0  0  0  0  0  0  0  0  0  0
    7.5932    5.9841   11.8110 C   0  0  0  0  0  0  0  0  0  0  0  0
    7.8017    5.1355   11.4394 H   0  0  0  0  0  0  0  0  0  0  0  0
    6.8305    7.2842   13.6591 C   0  0  0  0  0  0  0  0  0  0  0  0
    6.5177    7.3338   14.5546 H   0  0  0  0  0  0  0  0  0  0  0  0
    6.7757    5.3976    6.2913 C   0  0  0  0  0  0  0  0  0  0  0  0
    6.8787   10.8768    2.7056 C   0  0  0  0  0  0  0  0  0  0  0  0
    6.6788   11.0457    1.7924 H   0  0  0  0  0  0  0  0  0  0  0  0
    6.9294    8.4532   12.8916 C   0  0  0  0  0  0  0  0  0  0  0  0
    6.6841    9.2907   13.2668 H   0  0  0  0  0  0  0  0  0  0  0  0
    5.8028   13.5755    6.3731 C   0  0  0  0  0  0  0  0  0  0  0  0
    5.5830   12.6238    6.1570 H   0  0  0  0  0  0  0  0  0  0  0  0
    7.5380   11.6835    4.8894 C   0  0  0  0  0  0  0  0  0  0  0  0
   11.2389   12.5925   10.0714 C   0  0  0  0  0  0  0  0  0  0  0  0
   10.5922   12.7669    9.3417 H   0  0  0  0  0  0  0  0  0  0  0  0
   10.7440   12.5623   10.9279 H   0  0  0  0  0  0  0  0  0  0  0  0
    9.3878    7.6008    4.6356 C   0  0  0  0  0  0  0  0  0  0  0  0
    9.2901    8.5515    4.3433 H   0  0  0  0  0  0  0  0  0  0  0  0
    8.8960   13.3386   13.2068 C   0  0  0  0  0  0  0  0  0  0  0  0
    9.1729   14.0659   13.7524 H   0  0  0  0  0  0  0  0  0  0  0  0
    4.3667    8.2536    5.4501 C   0  0  0  0  0  0  0  0  0  0  0  0
    4.5973    9.2226    5.5284 H   0  0  0  0  0  0  0  0  0  0  0  0
    5.6396    6.1719    6.1623 C   0  0  0  0  0  0  0  0  0  0  0  0
    4.8164    5.8280    6.4870 H   0  0  0  0  0  0  0  0  0  0  0  0
   13.4997   12.9069   10.6792 C   0  0  0  0  0  0  0  0  0  0  0  0
   13.4598   12.8607   11.6671 H   0  0  0  0  0  0  0  0  0  0  0  0
   14.3517   13.3330   10.4105 H   0  0  0  0  0  0  0  0  0  0  0  0
    9.5400   12.9397    5.7837 C   0  0  0  0  0  0  0  0  0  0  0  0
    5.6487    7.4392    5.5791 C   0  0  0  0  0  0  0  0  0  0  0  0
    7.9019   14.7394    7.1202 C   0  0  0  0  0  0  0  0  0  0  0  0
    7.3475   15.3749    7.5578 H   0  0  0  0  0  0  0  0  0  0  0  0
   11.4465   11.2915    6.0436 C   0  0  0  0  0  0  0  0  0  0  0  0
   11.9870   10.6320    5.5609 H   0  0  0  0  0  0  0  0  0  0  0  0
   12.0349   11.9679    6.4407 H   0  0  0  0  0  0  0  0  0  0  0  0
   10.9412   10.8424    6.7538 H   0  0  0  0  0  0  0  0  0  0  0  0
    7.9696    5.8954    5.7817 C   0  0  0  0  0  0  0  0  0  0  0  0
    8.7568    5.3674    5.8411 H   0  0  0  0  0  0  0  0  0  0  0  0
    9.9122   16.0107    8.0391 C   0  0  0  0  0  0  0  0  0  0  0  0
   10.8986   15.8506    8.0238 H   0  0  0  0  0  0  0  0  0  0  0  0
    8.8810   10.9588   12.7340 C   0  0  0  0  0  0  0  0  0  0  0  0
    9.1639   10.0743   12.9339 H   0  0  0  0  0  0  0  0  0  0  0  0
    8.0094   11.1918   11.6575 C   0  0  0  0  0  0  0  0  0  0  0  0
    6.7508    9.6061    3.2152 C   0  0  0  0  0  0  0  0  0  0  0  0
    6.5169    8.8914    2.6342 H   0  0  0  0  0  0  0  0  0  0  0  0
    3.7165    8.0134    4.0462 C   0  0  0  0  0  0  0  0  0  0  0  0
    2.8810    8.5218    3.9806 H   0  0  0  0  0  0  0  0  0  0  0  0
    4.3339    8.3079    3.3446 H   0  0  0  0  0  0  0  0  0  0  0  0
    3.5258    7.0579    3.9326 H   0  0  0  0  0  0  0  0  0  0  0  0
    9.7651    6.7756    3.3933 C   0  0  0  0  0  0  0  0  0  0  0  0
   10.5587    7.1672    2.9700 H   0  0  0  0  0  0  0  0  0  0  0  0
    9.9598    5.8531    3.6595 H   0  0  0  0  0  0  0  0  0  0  0  0
    9.0199    6.7824    2.7572 H   0  0  0  0  0  0  0  0  0  0  0  0
    8.0746   13.5734   12.1303 C   0  0  0  0  0  0  0  0  0  0  0  0
    7.8115   14.4594   11.9133 H   0  0  0  0  0  0  0  0  0  0  0  0
    3.3167    7.9161    6.5205 C   0  0  0  0  0  0  0  0  0  0  0  0
    2.5754    8.5547    6.4636 H   0  0  0  0  0  0  0  0  0  0  0  0
    2.9789    7.0087    6.3734 H   0  0  0  0  0  0  0  0  0  0  0  0
    3.7277    7.9721    7.4090 H   0  0  0  0  0  0  0  0  0  0  0  0
    8.1143   12.7894    5.7223 C   0  0  0  0  0  0  0  0  0  0  0  0
   11.2040   12.7291    3.9622 C   0  0  0  0  0  0  0  0  0  0  0  0
   11.7518   12.1031    3.4439 H   0  0  0  0  0  0  0  0  0  0  0  0
   10.5499   13.1573    3.3720 H   0  0  0  0  0  0  0  0  0  0  0  0
   11.7804   13.4131    4.3627 H   0  0  0  0  0  0  0  0  0  0  0  0
    9.2740   14.8771    7.1938 C   0  0  0  0  0  0  0  0  0  0  0  0
   13.3687   11.5440   10.0734 C   0  0  0  0  0  0  0  0  0  0  0  0
   13.7236   10.8543   10.6890 H   0  0  0  0  0  0  0  0  0  0  0  0
   13.8657   11.4935    9.2192 H   0  0  0  0  0  0  0  0  0  0  0  0
    5.1070   13.9141    7.6809 C   0  0  0  0  0  0  0  0  0  0  0  0
    4.1486   13.7233    7.6014 H   0  0  0  0  0  0  0  0  0  0  0  0
    5.4880   13.3731    8.4042 H   0  0  0  0  0  0  0  0  0  0  0  0
    5.2342   14.8648    7.8832 H   0  0  0  0  0  0  0  0  0  0  0  0
    6.9629    9.3467    4.5783 C   0  0  0  0  0  0  0  0  0  0  0  0
    5.2358   14.4433    5.2352 C   0  0  0  0  0  0  0  0  0  0  0  0
    4.2665   14.3114    5.1776 H   0  0  0  0  0  0  0  0  0  0  0  0
    5.4276   15.3861    5.4187 H   0  0  0  0  0  0  0  0  0  0  0  0
    5.6525   14.1827    4.3879 H   0  0  0  0  0  0  0  0  0  0  0  0
    8.0314    7.1507    5.1882 C   0  0  0  0  0  0  0  0  0  0  0  0
   10.4882    7.5544    5.6446 C   0  0  0  0  0  0  0  0  0  0  0  0
   10.2067    8.0264    6.4568 H   0  0  0  0  0  0  0  0  0  0  0  0
   10.6936    6.6221    5.8636 H   0  0  0  0  0  0  0  0  0  0  0  0
   11.2874    7.9876    5.2771 H   0  0  0  0  0  0  0  0  0  0  0  0
   12.2877   13.6836   10.1103 C   0  0  0  0  0  0  0  0  0  0  0  0
   12.4761   14.0418    9.2076 H   0  0  0  0  0  0  0  0  0  0  0  0
   12.0188   14.4257   10.7090 H   0  0  0  0  0  0  0  0  0  0  0  0
    6.6991    4.0371    6.9728 C   0  0  0  0  0  0  0  0  0  0  0  0
    5.7671    3.6915    6.8598 H   0  0  0  0  0  0  0  0  0  0  0  0
    9.4927   15.9650    9.5045 C   0  0  0  0  0  0  0  0  0  0  0  0
    9.9759   16.6554   10.0035 H   0  0  0  0  0  0  0  0  0  0  0  0
    8.5281   16.1272    9.5726 H   0  0  0  0  0  0  0  0  0  0  0  0
    9.7027   15.0837    9.8766 H   0  0  0  0  0  0  0  0  0  0  0  0
    7.6328    3.0128    6.4305 C   0  0  0  0  0  0  0  0  0  0  0  0
    7.6234    2.2232    7.0088 H   0  0  0  0  0  0  0  0  0  0  0  0
    7.3496    2.7600    5.5263 H   0  0  0  0  0  0  0  0  0  0  0  0
    8.5392    3.3838    6.3962 H   0  0  0  0  0  0  0  0  0  0  0  0
    6.9370    4.2242    8.4095 C   0  0  0  0  0  0  0  0  0  0  0  0
    6.6776    3.4109    8.8920 H   0  0  0  0  0  0  0  0  0  0  0  0
    7.8871    4.4058    8.5627 H   0  0  0  0  0  0  0  0  0  0  0  0
    6.4030    4.9796    8.7337 H   0  0  0  0  0  0  0  0  0  0  0  0
    9.6922   17.3715    7.4108 C   0  0  0  0  0  0  0  0  0  0  0  0
   10.0472   18.0659    8.0050 H   0  0  0  0  0  0  0  0  0  0  0  0
   10.1551   17.4122    6.5483 H   0  0  0  0  0  0  0  0  0  0  0  0
    8.7330   17.5177    7.2747 H   0  0  0  0  0  0  0  0  0  0  0  0
   11.9161   11.3387    9.8442 O   0  0  0  0  0  0  0  0  0  0  0  0
  1  3  2  0  0  0  0
  2  4  1  0  0  0  0
  3 25  1  0  0  0  0
  4  1  1  0  0  0  0
  5  1  1  0  0  0  0
  6  5  1  0  0  0  0
  7  8  1  0  0  0  0
  9 10  1  0  0  0  0
 11  6  4  0  0  0  0
 12 11  1  0  0  0  0
 13 14  1  0  0  0  0
 15 16  1  0  0  0  0
 17 18  1  0  0  0  0
 19  7  4  0  0  0  0
 20 19  1  0  0  0  0
 21  7  4  0  0  0  0
 22 21  1  0  0  0  0
 23 61  4  0  0  0  0
 24  5  1  0  0  0  0
 25  6  4  0  0  0  0
 26  3  1  0  0  0  0
 27 43  1  0  0  0  0
 28 24  4  0  0  0  0
 29 28  1  0  0  0  0
 30 31  1  0  0  0  0
 32 33  1  0  0  0  0
 34 28  4  0  0  0  0
 35 34  1  0  0  0  0
 36 32  4  0  0  0  0
 37 36  1  0  0  0  0
 38 55  4  0  0  0  0
 39 13  4  0  0  0  0
 40 39  1  0  0  0  0
 41 24  4  0  0  0  0
 42 41  1  0  0  0  0
 43 44  1  0  0  0  0
 45 13  4  0  0  0  0
 46 47  1  0  0  0  0
 48 46  1  0  0  0  0
 49 50  1  0  0  0  0
 51 15  4  0  0  0  0
 52 51  1  0  0  0  0
 53 54  1  0  0  0  0
 55 56  1  0  0  0  0
 57 58  1  0  0  0  0
 59 57  1  0  0  0  0
 60  9  1  0  0  0  0
 61 53  1  0  0  0  0
 62 27  4  0  0  0  0
 63 62  1  0  0  0  0
 64  9  1  0  0  0  0
 65 64  1  0  0  0  0
 66 64  1  0  0  0  0
 67 64  1  0  0  0  0
 68 38  4  0  0  0  0
 69 68  1  0  0  0  0
 70 71  1  0  0  0  0
 72 15  4  0  0  0  0
 73 72  1  0  0  0  0
 74  5  1  0  0  0  0
 75 39  4  0  0  0  0
 76 75  1  0  0  0  0
 77 53  1  0  0  0  0
 78 77  1  0  0  0  0
 79 77  1  0  0  0  0
 80 77  1  0  0  0  0
 81 49  1  0  0  0  0
 82 81  1  0  0  0  0
 83 81  1  0  0  0  0
 84 81  1  0  0  0  0
 85 30  4  0  0  0  0
 86 85  1  0  0  0  0
 87 53  1  0  0  0  0
 88 87  1  0  0  0  0
 89 87  1  0  0  0  0
 90 87  1  0  0  0  0
 91 27  4  0  0  0  0
 92  9  1  0  0  0  0
 93 92  1  0  0  0  0
 94 92  1  0  0  0  0
 95 92  1  0  0  0  0
 96 17  4  0  0  0  0
 97 57  1  0  0  0  0
 98 97  1  0  0  0  0
 99 97  1  0  0  0  0
100 43  1  0  0  0  0
101100  1  0  0  0  0
102100  1  0  0  0  0
103100  1  0  0  0  0
104 23  1  0  0  0  0
105 43  1  0  0  0  0
106105  1  0  0  0  0
107105  1  0  0  0  0
108105  1  0  0  0  0
109 23  4  0  0  0  0
110 49  1  0  0  0  0
111110  1  0  0  0  0
112110  1  0  0  0  0
113110  1  0  0  0  0
114 46  1  0  0  0  0
115114  1  0  0  0  0
116114  1  0  0  0  0
117 38  1  0  0  0  0
118117  1  0  0  0  0
119 70  1  0  0  0  0
120119  1  0  0  0  0
121119  1  0  0  0  0
122119  1  0  0  0  0
123117  1  0  0  0  0
124123  1  0  0  0  0
125123  1  0  0  0  0
126123  1  0  0  0  0
127117  1  0  0  0  0
128127  1  0  0  0  0
129127  1  0  0  0  0
130127  1  0  0  0  0
131 70  1  0  0  0  0
132131  1  0  0  0  0
133131  1  0  0  0  0
134131  1  0  0  0  0
135  4  1  0  0  0  0
136138  2  0  0  0  0
137  4  1  0  0  0  0
138160  1  0  0  0  0
139  2  1  0  0  0  0
140136  1  0  0  0  0
141140  1  0  0  0  0
142143  1  0  0  0  0
144145  1  0  0  0  0
146141  4  0  0  0  0
147146  1  0  0  0  0
148149  1  0  0  0  0
150151  1  0  0  0  0
152153  1  0  0  0  0
154142  4  0  0  0  0
155154  1  0  0  0  0
156142  4  0  0  0  0
157156  1  0  0  0  0
158196  4  0  0  0  0
159140  1  0  0  0  0
160141  4  0  0  0  0
161138  1  0  0  0  0
162178  1  0  0  0  0
163159  4  0  0  0  0
164163  1  0  0  0  0
165166  1  0  0  0  0
167168  1  0  0  0  0
169163  4  0  0  0  0
170169  1  0  0  0  0
171167  4  0  0  0  0
172171  1  0  0  0  0
173190  4  0  0  0  0
174148  4  0  0  0  0
175174  1  0  0  0  0
176159  4  0  0  0  0
177176  1  0  0  0  0
178179  1  0  0  0  0
180148  4  0  0  0  0
181182  1  0  0  0  0
183181  1  0  0  0  0
184185  1  0  0  0  0
186150  4  0  0  0  0
187186  1  0  0  0  0
188189  1  0  0  0  0
190191  1  0  0  0  0
192193  1  0  0  0  0
194192  1  0  0  0  0
195144  1  0  0  0  0
196188  1  0  0  0  0
197162  4  0  0  0  0
198197  1  0  0  0  0
199144  1  0  0  0  0
200199  1  0  0  0  0
201199  1  0  0  0  0
202199  1  0  0  0  0
203173  4  0  0  0  0
204203  1  0  0  0  0
205206  1  0  0  0  0
207150  4  0  0  0  0
208207  1  0  0  0  0
209140  1  0  0  0  0
210174  4  0  0  0  0
211210  1  0  0  0  0
212188  1  0  0  0  0
213212  1  0  0  0  0
214212  1  0  0  0  0
215212  1  0  0  0  0
216184  1  0  0  0  0
217216  1  0  0  0  0
218216  1  0  0  0  0
219216  1  0  0  0  0
220165  4  0  0  0  0
221220  1  0  0  0  0
222188  1  0  0  0  0
223222  1  0  0  0  0
224222  1  0  0  0  0
225222  1  0  0  0  0
226162  4  0  0  0  0
227144  1  0  0  0  0
228227  1  0  0  0  0
229227  1  0  0  0  0
230227  1  0  0  0  0
231152  4  0  0  0  0
232192  1  0  0  0  0
233232  1  0  0  0  0
234232  1  0  0  0  0
235178  1  0  0  0  0
236235  1  0  0  0  0
237235  1  0  0  0  0
238235  1  0  0  0  0
239158  1  0  0  0  0
240178  1  0  0  0  0
241240  1  0  0  0  0
242240  1  0  0  0  0
243240  1  0  0  0  0
244158  4  0  0  0  0
245184  1  0  0  0  0
246245  1  0  0  0  0
247245  1  0  0  0  0
248245  1  0  0  0  0
249181  1  0  0  0  0
250249  1  0  0  0  0
251249  1  0  0  0  0
252173  1  0  0  0  0
253252  1  0  0  0  0
254205  1  0  0  0  0
255254  1  0  0  0  0
256254  1  0  0  0  0
257254  1  0  0  0  0
258252  1  0  0  0  0
259258  1  0  0  0  0
260258  1  0  0  0  0
261258  1  0  0  0  0
262252  1  0  0  0  0
263262  1  0  0  0  0
264262  1  0  0  0  0
265262  1  0  0  0  0
266205  1  0  0  0  0
267266  1  0  0  0  0
268266  1  0  0  0  0
269266  1  0  0  0  0
270139  1  0  0  0  0
 11 19  4  0  0  0  0
 17 60  4  0  0  0  0
 21 25  4  0  0  0  0
 26 45  4  0  0  0  0
 26104  4  0  0  0  0
 30 74  4  0  0  0  0
 32 34  4  0  0  0  0
 36 41  4  0  0  0  0
 45 91  1  0  0  0  0
 46135  1  0  0  0  0
 49109  1  0  0  0  0
 51 85  4  0  0  0  0
 55 61  4  0  0  0  0
 57114  1  0  0  0  0
 60 91  4  0  0  0  0
 62 96  4  0  0  0  0
 68109  4  0  0  0  0
 70 96  1  0  0  0  0
 72 74  4  0  0  0  0
 75104  4  0  0  0  0
 97135  1  0  0  0  0
136139  1  0  0  0  0
137139  1  0  0  0  0
146154  4  0  0  0  0
152195  4  0  0  0  0
156160  4  0  0  0  0
161180  4  0  0  0  0
161239  4  0  0  0  0
165209  4  0  0  0  0
167169  4  0  0  0  0
171176  4  0  0  0  0
180226  1  0  0  0  0
181270  1  0  0  0  0
184244  1  0  0  0  0
186220  4  0  0  0  0
190196  4  0  0  0  0
192249  1  0  0  0  0
195226  4  0  0  0  0
197231  4  0  0  0  0
203244  4  0  0  0  0
205231  1  0  0  0  0
207209  4  0  0  0  0
210239  4  0  0  0  0
232270  1  0  0  0  0
M  END
$$$$
GINCUF01

From CSD data. Using bond type 'Any'. Matching problem. Disorder unknown. Sizes unknown.
  0  0  0  0  0  0  0  0  0  0999 V2000
M  END
$$$$
GIYNEI

From CSD data. Using bond type 'Any'. No disordered atoms. Largest molecule.
186206  0  0  0  0  0  0  0  0999 V2000
    4.5119   10.5963    5.7405 Rh  0  0  0  0  0  0  0  0  0  0  0  0
    4.5965    8.4138    5.0361 P   0  0  0  0  0  0  0  0  0  0  0  0
    4.9400   11.0947    3.5607 P   0  0  0  0  0  0  0  0  0  0  0  0
    6.7821   10.6049    6.1865 P   0  0  0  0  0  0  0  0  0  0  0  0
    3.1472   10.2941    7.3760 O   0  0  0  0  0  0  0  0  0  0  0  0
    2.5291   10.4589    6.0607 O   0  0  0  0  0  0  0  0  0  0  0  0
    7.0833    9.0992    3.7291 B   0  0  0  0  0  0  0  0  0  0  0  0
    3.9647    7.1845    6.2357 C   0  0  0  0  0  0  0  0  0  0  0  0
    4.7195    6.0611    6.5616 C   0  0  0  0  0  0  0  0  0  0  0  0
    5.6176    5.9952    6.2595 H   0  0  0  0  0  0  0  0  0  0  0  0
    4.1753    5.0372    7.3225 C   0  0  0  0  0  0  0  0  0  0  0  0
    4.7026    4.2801    7.5463 H   0  0  0  0  0  0  0  0  0  0  0  0
    2.8668    5.1197    7.7548 C   0  0  0  0  0  0  0  0  0  0  0  0
    2.4850    4.4122    8.2611 H   0  0  0  0  0  0  0  0  0  0  0  0
    2.1159    6.2361    7.4484 C   0  0  0  0  0  0  0  0  0  0  0  0
    1.2190    6.2955    7.7534 H   0  0  0  0  0  0  0  0  0  0  0  0
    2.6544    7.2718    6.7015 C   0  0  0  0  0  0  0  0  0  0  0  0
    2.1308    8.0415    6.5085 H   0  0  0  0  0  0  0  0  0  0  0  0
    3.5098    7.9997    3.6172 C   0  0  0  0  0  0  0  0  0  0  0  0
    3.9445    7.2120    2.5472 C   0  0  0  0  0  0  0  0  0  0  0  0
    4.8491    6.9245    2.5136 H   0  0  0  0  0  0  0  0  0  0  0  0
    3.0723    6.8428    1.5344 C   0  0  0  0  0  0  0  0  0  0  0  0
    3.3869    6.3150    0.8099 H   0  0  0  0  0  0  0  0  0  0  0  0
    1.7525    7.2402    1.5722 C   0  0  0  0  0  0  0  0  0  0  0  0
    1.1532    6.9781    0.8812 H   0  0  0  0  0  0  0  0  0  0  0  0
    1.3071    8.0166    2.6171 C   0  0  0  0  0  0  0  0  0  0  0  0
    0.3980    8.2904    2.6423 H   0  0  0  0  0  0  0  0  0  0  0  0
    2.1679    8.4052    3.6340 C   0  0  0  0  0  0  0  0  0  0  0  0
    1.8457    8.9476    4.3446 H   0  0  0  0  0  0  0  0  0  0  0  0
    3.3943   11.1727    2.5835 C   0  0  0  0  0  0  0  0  0  0  0  0
    2.2055   11.5592    3.1850 C   0  0  0  0  0  0  0  0  0  0  0  0
    2.1845   11.7360    4.1180 H   0  0  0  0  0  0  0  0  0  0  0  0
    1.0502   11.6918    2.4380 C   0  0  0  0  0  0  0  0  0  0  0  0
    0.2471   11.9677    2.8633 H   0  0  0  0  0  0  0  0  0  0  0  0
    1.0509   11.4297    1.0826 C   0  0  0  0  0  0  0  0  0  0  0  0
    0.2486   11.5027    0.5791 H   0  0  0  0  0  0  0  0  0  0  0  0
    2.2296   11.0609    0.4700 C   0  0  0  0  0  0  0  0  0  0  0  0
    2.2436   10.8927   -0.4644 H   0  0  0  0  0  0  0  0  0  0  0  0
    3.3945   10.9333    1.2085 C   0  0  0  0  0  0  0  0  0  0  0  0
    4.2020   10.6813    0.7749 H   0  0  0  0  0  0  0  0  0  0  0  0
    5.5431   12.8026    3.2605 C   0  0  0  0  0  0  0  0  0  0  0  0
    4.7914   13.8468    3.8130 C   0  0  0  0  0  0  0  0  0  0  0  0
    4.0518   13.6491    4.3753 H   0  0  0  0  0  0  0  0  0  0  0  0
    5.1183   15.1683    3.5473 C   0  0  0  0  0  0  0  0  0  0  0  0
    4.5921   15.8702    3.9137 H   0  0  0  0  0  0  0  0  0  0  0  0
    6.2043   15.4640    2.7528 C   0  0  0  0  0  0  0  0  0  0  0  0
    6.4331   16.3688    2.5793 H   0  0  0  0  0  0  0  0  0  0  0  0
    6.9560   14.4475    2.2087 C   0  0  0  0  0  0  0  0  0  0  0  0
    7.7044   14.6562    1.6617 H   0  0  0  0  0  0  0  0  0  0  0  0
    6.6301   13.1223    2.4548 C   0  0  0  0  0  0  0  0  0  0  0  0
    7.1535   12.4289    2.0716 H   0  0  0  0  0  0  0  0  0  0  0  0
    7.5233   12.1474    6.8372 C   0  0  0  0  0  0  0  0  0  0  0  0
    7.9274   12.2647    8.1660 C   0  0  0  0  0  0  0  0  0  0  0  0
    7.8309   11.5238    8.7535 H   0  0  0  0  0  0  0  0  0  0  0  0
    8.4712   13.4585    8.6416 C   0  0  0  0  0  0  0  0  0  0  0  0
    8.7513   13.5241    9.5466 H   0  0  0  0  0  0  0  0  0  0  0  0
    8.6037   14.5408    7.7995 C   0  0  0  0  0  0  0  0  0  0  0  0
    8.9629   15.3570    8.1268 H   0  0  0  0  0  0  0  0  0  0  0  0
    8.2112   14.4359    6.4735 C   0  0  0  0  0  0  0  0  0  0  0  0
    8.3029   15.1789    5.8902 H   0  0  0  0  0  0  0  0  0  0  0  0
    7.6852   13.2411    6.0021 C   0  0  0  0  0  0  0  0  0  0  0  0
    7.4309   13.1735    5.0901 H   0  0  0  0  0  0  0  0  0  0  0  0
    7.1496    9.3684    7.4904 C   0  0  0  0  0  0  0  0  0  0  0  0
    6.1144    8.8609    8.2681 C   0  0  0  0  0  0  0  0  0  0  0  0
    5.2296    9.1760    8.1268 H   0  0  0  0  0  0  0  0  0  0  0  0
    6.3430    7.9039    9.2416 C   0  0  0  0  0  0  0  0  0  0  0  0
    5.6252    7.5720    9.7676 H   0  0  0  0  0  0  0  0  0  0  0  0
    7.6310    7.4376    9.4445 C   0  0  0  0  0  0  0  0  0  0  0  0
    7.7958    6.7679   10.0977 H   0  0  0  0  0  0  0  0  0  0  0  0
    8.6746    7.9418    8.7031 C   0  0  0  0  0  0  0  0  0  0  0  0
    9.5570    7.6240    8.8542 H   0  0  0  0  0  0  0  0  0  0  0  0
    8.4472    8.9073    7.7338 C   0  0  0  0  0  0  0  0  0  0  0  0
    9.1750    9.2552    7.2330 H   0  0  0  0  0  0  0  0  0  0  0  0
    8.2609    8.3316    2.8871 C   0  0  0  0  0  0  0  0  0  0  0  0
    9.2562    7.6203    3.5780 C   0  0  0  0  0  0  0  0  0  0  0  0
    9.2087    7.5753    4.5264 H   0  0  0  0  0  0  0  0  0  0  0  0
   10.3104    6.9820    2.9304 C   0  0  0  0  0  0  0  0  0  0  0  0
   10.9694    6.5206    3.4354 H   0  0  0  0  0  0  0  0  0  0  0  0
   10.3969    7.0195    1.5470 C   0  0  0  0  0  0  0  0  0  0  0  0
   11.1273    6.6064    1.1008 H   0  0  0  0  0  0  0  0  0  0  0  0
    9.4131    7.6618    0.8281 C   0  0  0  0  0  0  0  0  0  0  0  0
    9.4496    7.6670   -0.1217 H   0  0  0  0  0  0  0  0  0  0  0  0
    8.3651    8.3021    1.4827 C   0  0  0  0  0  0  0  0  0  0  0  0
    7.6980    8.7360    0.9637 H   0  0  0  0  0  0  0  0  0  0  0  0
    6.2540    7.9341    4.5712 C   0  0  0  0  0  0  0  0  0  0  0  0
    6.7623    7.7107    5.3908 H   0  0  0  0  0  0  0  0  0  0  0  0
    6.2051    7.1158    4.0173 H   0  0  0  0  0  0  0  0  0  0  0  0
    6.0709    9.9460    2.7234 C   0  0  0  0  0  0  0  0  0  0  0  0
    5.5327    9.2988    2.2017 H   0  0  0  0  0  0  0  0  0  0  0  0
    6.6236   10.4613    2.0828 H   0  0  0  0  0  0  0  0  0  0  0  0
    7.8099   10.1651    4.7628 C   0  0  0  0  0  0  0  0  0  0  0  0
    8.0368   10.9895    4.2648 H   0  0  0  0  0  0  0  0  0  0  0  0
    8.6557    9.7674    5.0901 H   0  0  0  0  0  0  0  0  0  0  0  0
    2.9442   12.1999    8.2471 Rh  0  0  0  0  0  0  0  0  0  0  0  0
    2.8596   14.3824    8.9515 P   0  0  0  0  0  0  0  0  0  0  0  0
    2.5161   11.7015   10.4270 P   0  0  0  0  0  0  0  0  0  0  0  0
    0.6740   12.1913    7.8012 P   0  0  0  0  0  0  0  0  0  0  0  0
    4.3089   12.5021    6.6117 O   0  0  0  0  0  0  0  0  0  0  0  0
    4.9270   12.3373    7.9269 O   0  0  0  0  0  0  0  0  0  0  0  0
    0.3728   13.6970   10.2585 B   0  0  0  0  0  0  0  0  0  0  0  0
    3.4914   15.6117    7.7520 C   0  0  0  0  0  0  0  0  0  0  0  0
    2.7366   16.7351    7.4260 C   0  0  0  0  0  0  0  0  0  0  0  0
    1.8385   16.8010    7.7282 H   0  0  0  0  0  0  0  0  0  0  0  0
    3.2808   17.7590    6.6651 C   0  0  0  0  0  0  0  0  0  0  0  0
    2.7535   18.5161    6.4413 H   0  0  0  0  0  0  0  0  0  0  0  0
    4.5893   17.6764    6.2329 C   0  0  0  0  0  0  0  0  0  0  0  0
    4.9711   18.3840    5.7265 H   0  0  0  0  0  0  0  0  0  0  0  0
    5.3402   16.5601    6.5392 C   0  0  0  0  0  0  0  0  0  0  0  0
    6.2371   16.5006    6.2343 H   0  0  0  0  0  0  0  0  0  0  0  0
    4.8017   15.5244    7.2862 C   0  0  0  0  0  0  0  0  0  0  0  0
    5.3253   14.7546    7.4792 H   0  0  0  0  0  0  0  0  0  0  0  0
    3.9463   14.7965   10.3704 C   0  0  0  0  0  0  0  0  0  0  0  0
    3.5116   15.5842   11.4405 C   0  0  0  0  0  0  0  0  0  0  0  0
    2.6070   15.8717   11.4741 H   0  0  0  0  0  0  0  0  0  0  0  0
    4.3838   15.9534   12.4532 C   0  0  0  0  0  0  0  0  0  0  0  0
    4.0692   16.4812   13.1778 H   0  0  0  0  0  0  0  0  0  0  0  0
    5.7036   15.5559   12.4154 C   0  0  0  0  0  0  0  0  0  0  0  0
    6.3029   15.8180   13.1064 H   0  0  0  0  0  0  0  0  0  0  0  0
    6.1490   14.7796   11.3706 C   0  0  0  0  0  0  0  0  0  0  0  0
    7.0581   14.5058   11.3454 H   0  0  0  0  0  0  0  0  0  0  0  0
    5.2882   14.3910   10.3537 C   0  0  0  0  0  0  0  0  0  0  0  0
    5.6104   13.8486    9.6431 H   0  0  0  0  0  0  0  0  0  0  0  0
    4.0618   11.6235   11.4041 C   0  0  0  0  0  0  0  0  0  0  0  0
    5.2506   11.2370   10.8027 C   0  0  0  0  0  0  0  0  0  0  0  0
    5.2716   11.0602    9.8697 H   0  0  0  0  0  0  0  0  0  0  0  0
    6.4059   11.1044   11.5496 C   0  0  0  0  0  0  0  0  0  0  0  0
    7.2090   10.8285   11.1244 H   0  0  0  0  0  0  0  0  0  0  0  0
    6.4052   11.3665   12.9050 C   0  0  0  0  0  0  0  0  0  0  0  0
    7.2075   11.2935   13.4086 H   0  0  0  0  0  0  0  0  0  0  0  0
    5.2265   11.7353   13.5177 C   0  0  0  0  0  0  0  0  0  0  0  0
    5.2125   11.9035   14.4520 H   0  0  0  0  0  0  0  0  0  0  0  0
    4.0616   11.8629   12.7791 C   0  0  0  0  0  0  0  0  0  0  0  0
    3.2541   12.1149   13.2127 H   0  0  0  0  0  0  0  0  0  0  0  0
    1.9130    9.9936   10.7271 C   0  0  0  0  0  0  0  0  0  0  0  0
    2.6648    8.9494   10.1746 C   0  0  0  0  0  0  0  0  0  0  0  0
    3.4043    9.1470    9.6123 H   0  0  0  0  0  0  0  0  0  0  0  0
    2.3378    7.6279   10.4404 C   0  0  0  0  0  0  0  0  0  0  0  0
    2.8640    6.9260   10.0739 H   0  0  0  0  0  0  0  0  0  0  0  0
    1.2518    7.3322   11.2349 C   0  0  0  0  0  0  0  0  0  0  0  0
    1.0230    6.4274   11.4083 H   0  0  0  0  0  0  0  0  0  0  0  0
    0.5001    8.3486   11.7790 C   0  0  0  0  0  0  0  0  0  0  0  0
   -0.2483    8.1400   12.3259 H   0  0  0  0  0  0  0  0  0  0  0  0
    0.8260    9.6739   11.5328 C   0  0  0  0  0  0  0  0  0  0  0  0
    0.3026   10.3673   11.9161 H   0  0  0  0  0  0  0  0  0  0  0  0
   -0.0672   10.6488    7.1505 C   0  0  0  0  0  0  0  0  0  0  0  0
   -0.4713   10.5315    5.8217 C   0  0  0  0  0  0  0  0  0  0  0  0
   -0.3748   11.2724    5.2342 H   0  0  0  0  0  0  0  0  0  0  0  0
   -1.0151    9.3377    5.3461 C   0  0  0  0  0  0  0  0  0  0  0  0
   -1.2952    9.2721    4.4411 H   0  0  0  0  0  0  0  0  0  0  0  0
   -1.1476    8.2554    6.1881 C   0  0  0  0  0  0  0  0  0  0  0  0
   -1.5068    7.4392    5.8608 H   0  0  0  0  0  0  0  0  0  0  0  0
   -0.7551    8.3603    7.5142 C   0  0  0  0  0  0  0  0  0  0  0  0
   -0.8468    7.6172    8.0975 H   0  0  0  0  0  0  0  0  0  0  0  0
   -0.2291    9.5551    7.9856 C   0  0  0  0  0  0  0  0  0  0  0  0
    0.0252    9.6227    8.8975 H   0  0  0  0  0  0  0  0  0  0  0  0
    0.3065   13.4278    6.4973 C   0  0  0  0  0  0  0  0  0  0  0  0
    1.3417   13.9352    5.7196 C   0  0  0  0  0  0  0  0  0  0  0  0
    2.2265   13.6202    5.8608 H   0  0  0  0  0  0  0  0  0  0  0  0
    1.1131   14.8923    4.7460 C   0  0  0  0  0  0  0  0  0  0  0  0
    1.8309   15.2242    4.2201 H   0  0  0  0  0  0  0  0  0  0  0  0
   -0.1749   15.3586    4.5432 C   0  0  0  0  0  0  0  0  0  0  0  0
   -0.3397   16.0283    3.8900 H   0  0  0  0  0  0  0  0  0  0  0  0
   -1.2185   14.8543    5.2845 C   0  0  0  0  0  0  0  0  0  0  0  0
   -2.1009   15.1722    5.1335 H   0  0  0  0  0  0  0  0  0  0  0  0
   -0.9911   13.8889    6.2539 C   0  0  0  0  0  0  0  0  0  0  0  0
   -1.7189   13.5410    6.7546 H   0  0  0  0  0  0  0  0  0  0  0  0
   -0.8048   14.4646   11.1006 C   0  0  0  0  0  0  0  0  0  0  0  0
   -1.8001   15.1759   10.4096 C   0  0  0  0  0  0  0  0  0  0  0  0
   -1.7526   15.2209    9.4613 H   0  0  0  0  0  0  0  0  0  0  0  0
   -2.8543   15.8142   11.0572 C   0  0  0  0  0  0  0  0  0  0  0  0
   -3.5133   16.2756   10.5523 H   0  0  0  0  0  0  0  0  0  0  0  0
   -2.9408   15.7767   12.4406 C   0  0  0  0  0  0  0  0  0  0  0  0
   -3.6712   16.1898   12.8868 H   0  0  0  0  0  0  0  0  0  0  0  0
   -1.9570   15.1344   13.1596 C   0  0  0  0  0  0  0  0  0  0  0  0
   -1.9935   15.1292   14.1093 H   0  0  0  0  0  0  0  0  0  0  0  0
   -0.9090   14.4941   12.5050 C   0  0  0  0  0  0  0  0  0  0  0  0
   -0.2419   14.0602   13.0239 H   0  0  0  0  0  0  0  0  0  0  0  0
    1.2022   14.8620    9.4165 C   0  0  0  0  0  0  0  0  0  0  0  0
    0.6938   15.0855    8.5968 H   0  0  0  0  0  0  0  0  0  0  0  0
    1.2510   15.6804    9.9704 H   0  0  0  0  0  0  0  0  0  0  0  0
    1.3852   12.8502   11.2643 C   0  0  0  0  0  0  0  0  0  0  0  0
    1.9234   13.4973   11.7860 H   0  0  0  0  0  0  0  0  0  0  0  0
    0.8325   12.3349   11.9049 H   0  0  0  0  0  0  0  0  0  0  0  0
   -0.3538   12.6311    9.2249 C   0  0  0  0  0  0  0  0  0  0  0  0
   -0.5807   11.8067    9.7228 H   0  0  0  0  0  0  0  0  0  0  0  0
   -1.1996   13.0288    8.8975 H   0  0  0  0  0  0  0  0  0  0  0  0
  1  2  1  0  0  0  0
  2  8  1  0  0  0  0
  3  1  1  0  0  0  0
  4  1  1  0  0  0  0
  5  1  1  0  0  0  0
  6  1  1  0  0  0  0
  7 74  1  0  0  0  0
  8  9  4  0  0  0  0
  9 10  1  0  0  0  0
 11  9  4  0  0  0  0
 12 11  1  0  0  0  0
 13 11  4  0  0  0  0
 14 13  1  0  0  0  0
 15 13  4  0  0  0  0
 16 15  1  0  0  0  0
 17  8  4  0  0  0  0
 18 17  1  0  0  0  0
 19  2  1  0  0  0  0
 20 19  4  0  0  0  0
 21 20  1  0  0  0  0
 22 20  4  0  0  0  0
 23 22  1  0  0  0  0
 24 22  4  0  0  0  0
 25 24  1  0  0  0  0
 26 24  4  0  0  0  0
 27 26  1  0  0  0  0
 28 19  4  0  0  0  0
 29 28  1  0  0  0  0
 30  3  1  0  0  0  0
 31 30  4  0  0  0  0
 32 31  1  0  0  0  0
 33 31  4  0  0  0  0
 34 33  1  0  0  0  0
 35 33  4  0  0  0  0
 36 35  1  0  0  0  0
 37 35  4  0  0  0  0
 38 37  1  0  0  0  0
 39 30  4  0  0  0  0
 40 39  1  0  0  0  0
 41  3  1  0  0  0  0
 42 41  4  0  0  0  0
 43 42  1  0  0  0  0
 44 42  4  0  0  0  0
 45 44  1  0  0  0  0
 46 44  4  0  0  0  0
 47 46  1  0  0  0  0
 48 46  4  0  0  0  0
 49 48  1  0  0  0  0
 50 41  4  0  0  0  0
 51 50  1  0  0  0  0
 52  4  1  0  0  0  0
 53 52  4  0  0  0  0
 54 53  1  0  0  0  0
 55 53  4  0  0  0  0
 56 55  1  0  0  0  0
 57 55  4  0  0  0  0
 58 57  1  0  0  0  0
 59 57  4  0  0  0  0
 60 59  1  0  0  0  0
 61 52  4  0  0  0  0
 62 61  1  0  0  0  0
 63  4  1  0  0  0  0
 64 63  4  0  0  0  0
 65 64  1  0  0  0  0
 66 64  4  0  0  0  0
 67 66  1  0  0  0  0
 68 66  4  0  0  0  0
 69 68  1  0  0  0  0
 70 68  4  0  0  0  0
 71 70  1  0  0  0  0
 72 63  4  0  0  0  0
 73 72  1  0  0  0  0
 74 75  4  0  0  0  0
 75 76  1  0  0  0  0
 77 75  4  0  0  0  0
 78 77  1  0  0  0  0
 79 77  4  0  0  0  0
 80 79  1  0  0  0  0
 81 79  4  0  0  0  0
 82 81  1  0  0  0  0
 83 74  4  0  0  0  0
 84 83  1  0  0  0  0
 85  2  1  0  0  0  0
 86 85  1  0  0  0  0
 87 85  1  0  0  0  0
 88  3  1  0  0  0  0
 89 88  1  0  0  0  0
 90 88  1  0  0  0  0
 91  4  1  0  0  0  0
 92 91  1  0  0  0  0
 93 91  1  0  0  0  0
 94  5  1  0  0  0  0
 95 94  1  0  0  0  0
 96 94  1  0  0  0  0
 97 94  1  0  0  0  0
 98  1  1  0  0  0  0
 99 94  1  0  0  0  0
100167  1  0  0  0  0
101 95  1  0  0  0  0
102101  4  0  0  0  0
103102  1  0  0  0  0
104102  4  0  0  0  0
105104  1  0  0  0  0
106104  4  0  0  0  0
107106  1  0  0  0  0
108106  4  0  0  0  0
109108  1  0  0  0  0
110101  4  0  0  0  0
111110  1  0  0  0  0
112 95  1  0  0  0  0
113112  4  0  0  0  0
114113  1  0  0  0  0
115113  4  0  0  0  0
116115  1  0  0  0  0
117115  4  0  0  0  0
118117  1  0  0  0  0
119117  4  0  0  0  0
120119  1  0  0  0  0
121112  4  0  0  0  0
122121  1  0  0  0  0
123 96  1  0  0  0  0
124123  4  0  0  0  0
125124  1  0  0  0  0
126124  4  0  0  0  0
127126  1  0  0  0  0
128126  4  0  0  0  0
129128  1  0  0  0  0
130128  4  0  0  0  0
131130  1  0  0  0  0
132123  4  0  0  0  0
133132  1  0  0  0  0
134 96  1  0  0  0  0
135134  4  0  0  0  0
136135  1  0  0  0  0
137135  4  0  0  0  0
138137  1  0  0  0  0
139137  4  0  0  0  0
140139  1  0  0  0  0
141139  4  0  0  0  0
142141  1  0  0  0  0
143134  4  0  0  0  0
144143  1  0  0  0  0
145 97  1  0  0  0  0
146145  4  0  0  0  0
147146  1  0  0  0  0
148146  4  0  0  0  0
149148  1  0  0  0  0
150148  4  0  0  0  0
151150  1  0  0  0  0
152150  4  0  0  0  0
153152  1  0  0  0  0
154145  4  0  0  0  0
155154  1  0  0  0  0
156 97  1  0  0  0  0
157156  4  0  0  0  0
158157  1  0  0  0  0
159157  4  0  0  0  0
160159  1  0  0  0  0
161159  4  0  0  0  0
162161  1  0  0  0  0
163161  4  0  0  0  0
164163  1  0  0  0  0
165156  4  0  0  0  0
166165  1  0  0  0  0
167168  4  0  0  0  0
168169  1  0  0  0  0
170168  4  0  0  0  0
171170  1  0  0  0  0
172170  4  0  0  0  0
173172  1  0  0  0  0
174172  4  0  0  0  0
175174  1  0  0  0  0
176167  4  0  0  0  0
177176  1  0  0  0  0
178 95  1  0  0  0  0
179178  1  0  0  0  0
180178  1  0  0  0  0
181 96  1  0  0  0  0
182181  1  0  0  0  0
183181  1  0  0  0  0
184 97  1  0  0  0  0
185184  1  0  0  0  0
186184  1  0  0  0  0
  5  6  1  0  0  0  0
  7 85  1  0  0  0  0
  7 88  1  0  0  0  0
  7 91  1  0  0  0  0
 15 17  4  0  0  0  0
 26 28  4  0  0  0  0
 37 39  4  0  0  0  0
 48 50  4  0  0  0  0
 59 61  4  0  0  0  0
 70 72  4  0  0  0  0
 81 83  4  0  0  0  0
 94 98  1  0  0  0  0
 98 99  1  0  0  0  0
100178  1  0  0  0  0
100181  1  0  0  0  0
100184  1  0  0  0  0
108110  4  0  0  0  0
119121  4  0  0  0  0
130132  4  0  0  0  0
141143  4  0  0  0  0
152154  4  0  0  0  0
163165  4  0  0  0  0
174176  4  0  0  0  0
M  END
$$$$
GIYNIM

From CSD data. Using bond type 'Any'. No disordered atoms. Largest molecule.
186206  0  0  0  0  0  0  0  0999 V2000
   12.0061    3.4364   18.9200 Rh  0  0  0  0  0  0  0  0  0  0  0  0
   11.9863    1.0586   16.3836 Rh  0  3  0  0  0  0  0  0  0  0  0  0
   13.2303    1.6900   18.8353 O   0  0  0  0  0  0  0  0  0  0  0  0
   13.6644    1.5067   17.4641 O   0  0  0  0  0  0  0  0  0  0  0  0
   10.7656    2.1300   17.7937 O   0  0  0  0  0  0  0  0  0  0  0  0
   11.4887    3.0730   16.8717 O   0  0  0  0  0  0  0  0  0  0  0  0
   10.5441    5.1823   19.1330 P   0  0  0  0  0  0  0  0  0  0  0  0
   13.6797    4.9662   19.2460 P   0  0  0  0  0  0  0  0  0  0  0  0
   11.8487    3.0979   21.1779 P   0  0  0  0  0  0  0  0  0  0  0  0
   10.1530    0.5453   15.0392 P   0  0  0  0  0  0  0  0  0  0  0  0
   12.2216   -1.1712   16.8584 P   0  0  0  0  0  0  0  0  0  0  0  0
   13.2765    0.8556   14.5108 P   0  0  0  0  0  0  0  0  0  0  0  0
    8.8145    4.7789   18.7311 C   0  0  0  0  0  0  0  0  0  0  0  0
    8.4898    4.3231   17.4787 C   0  0  0  0  0  0  0  0  0  0  0  0
    9.1832    4.1432   16.8573 H   0  0  0  0  0  0  0  0  0  0  0  0
    7.1793    4.1210   17.1054 C   0  0  0  0  0  0  0  0  0  0  0  0
    6.9811    3.7928   16.2358 H   0  0  0  0  0  0  0  0  0  0  0  0
    6.1555    4.3924   17.9844 C   0  0  0  0  0  0  0  0  0  0  0  0
    5.2496    4.2494   17.7339 H   0  0  0  0  0  0  0  0  0  0  0  0
    6.4645    4.8678   19.2155 C   0  0  0  0  0  0  0  0  0  0  0  0
    5.7706    5.0708   19.8322 H   0  0  0  0  0  0  0  0  0  0  0  0
    7.7898    5.0629   19.5841 C   0  0  0  0  0  0  0  0  0  0  0  0
    7.9862    5.4019   20.4489 H   0  0  0  0  0  0  0  0  0  0  0  0
   10.8553    6.5029   17.8993 C   0  0  0  0  0  0  0  0  0  0  0  0
   11.2352    6.1883   16.6280 C   0  0  0  0  0  0  0  0  0  0  0  0
   11.4105    5.2815   16.4107 H   0  0  0  0  0  0  0  0  0  0  0  0
   11.3731    7.1552   15.6403 C   0  0  0  0  0  0  0  0  0  0  0  0
   11.6227    6.9110   14.7590 H   0  0  0  0  0  0  0  0  0  0  0  0
   11.1459    8.4584   15.9593 C   0  0  0  0  0  0  0  0  0  0  0  0
   11.2304    9.1304   15.2930 H   0  0  0  0  0  0  0  0  0  0  0  0
   10.7958    8.8047   17.2400 C   0  0  0  0  0  0  0  0  0  0  0  0
   10.6711    9.7197   17.4598 H   0  0  0  0  0  0  0  0  0  0  0  0
   10.6221    7.8387   18.2136 C   0  0  0  0  0  0  0  0  0  0  0  0
   10.3466    8.0840   19.0879 H   0  0  0  0  0  0  0  0  0  0  0  0
   14.2573    5.6540   17.6602 C   0  0  0  0  0  0  0  0  0  0  0  0
   14.5125    7.0209   17.5638 C   0  0  0  0  0  0  0  0  0  0  0  0
   14.3679    7.5874   18.3128 H   0  0  0  0  0  0  0  0  0  0  0  0
   14.9774    7.5493   16.3752 C   0  0  0  0  0  0  0  0  0  0  0  0
   15.1240    8.4864   16.3090 H   0  0  0  0  0  0  0  0  0  0  0  0
   15.2320    6.7590   15.2930 C   0  0  0  0  0  0  0  0  0  0  0  0
   15.5722    7.1383   14.4919 H   0  0  0  0  0  0  0  0  0  0  0  0
   14.9901    5.3890   15.3780 C   0  0  0  0  0  0  0  0  0  0  0  0
   15.1580    4.8240   14.6337 H   0  0  0  0  0  0  0  0  0  0  0  0
   14.4993    4.8590   16.5619 C   0  0  0  0  0  0  0  0  0  0  0  0
   14.3266    3.9256   16.6162 H   0  0  0  0  0  0  0  0  0  0  0  0
   15.2014    4.1965   19.9007 C   0  0  0  0  0  0  0  0  0  0  0  0
   15.7848    4.6202   21.0987 C   0  0  0  0  0  0  0  0  0  0  0  0
   15.4246    5.3683   21.5595 H   0  0  0  0  0  0  0  0  0  0  0  0
   16.8745    3.9630   21.6139 C   0  0  0  0  0  0  0  0  0  0  0  0
   17.2604    4.2553   22.4314 H   0  0  0  0  0  0  0  0  0  0  0  0
   17.4110    2.8786   20.9451 C   0  0  0  0  0  0  0  0  0  0  0  0
   18.1488    2.4083   21.3161 H   0  0  0  0  0  0  0  0  0  0  0  0
   16.8699    2.4818   19.7377 C   0  0  0  0  0  0  0  0  0  0  0  0
   17.2467    1.7443   19.2698 H   0  0  0  0  0  0  0  0  0  0  0  0
   15.7929    3.1465   19.2060 C   0  0  0  0  0  0  0  0  0  0  0  0
   15.4495    2.8872   18.3577 H   0  0  0  0  0  0  0  0  0  0  0  0
   12.7691    1.5753   21.6160 C   0  0  0  0  0  0  0  0  0  0  0  0
   14.1000    1.5902   21.8683 C   0  0  0  0  0  0  0  0  0  0  0  0
   14.5538    2.4249   21.8738 H   0  0  0  0  0  0  0  0  0  0  0  0
   14.8250    0.4364   22.1195 C   0  0  0  0  0  0  0  0  0  0  0  0
   15.7623    0.4746   22.2684 H   0  0  0  0  0  0  0  0  0  0  0  0
   14.1466   -0.7817   22.1476 C   0  0  0  0  0  0  0  0  0  0  0  0
   14.6247   -1.5836   22.3275 H   0  0  0  0  0  0  0  0  0  0  0  0
   12.7989   -0.8338   21.9192 C   0  0  0  0  0  0  0  0  0  0  0  0
   12.3467   -1.6687   21.9470 H   0  0  0  0  0  0  0  0  0  0  0  0
   12.0874    0.3247   21.6477 C   0  0  0  0  0  0  0  0  0  0  0  0
   11.1512    0.2845   21.4839 H   0  0  0  0  0  0  0  0  0  0  0  0
   10.1327    2.7237   21.6564 C   0  0  0  0  0  0  0  0  0  0  0  0
    9.2353    2.1611   20.7585 C   0  0  0  0  0  0  0  0  0  0  0  0
    9.4978    2.0374   19.8535 H   0  0  0  0  0  0  0  0  0  0  0  0
    7.9554    1.7738   21.1602 C   0  0  0  0  0  0  0  0  0  0  0  0
    7.3572    1.3770   20.5387 H   0  0  0  0  0  0  0  0  0  0  0  0
    7.5697    1.9770   22.4787 C   0  0  0  0  0  0  0  0  0  0  0  0
    6.7016    1.7177   22.7670 H   0  0  0  0  0  0  0  0  0  0  0  0
    8.4455    2.5543   23.3695 C   0  0  0  0  0  0  0  0  0  0  0  0
    8.1728    2.7131   24.2651 H   0  0  0  0  0  0  0  0  0  0  0  0
    9.7133    2.9035   22.9702 C   0  0  0  0  0  0  0  0  0  0  0  0
   10.3149    3.2734   23.6035 H   0  0  0  0  0  0  0  0  0  0  0  0
   12.1943    7.1294   22.6039 C   0  0  0  0  0  0  0  0  0  0  0  0
   13.3312    7.3732   23.2916 C   0  0  0  0  0  0  0  0  0  0  0  0
   14.0457    6.7557   23.1876 H   0  0  0  0  0  0  0  0  0  0  0  0
   13.5402    8.4618   24.1446 C   0  0  0  0  0  0  0  0  0  0  0  0
   14.3683    8.5645   24.5959 H   0  0  0  0  0  0  0  0  0  0  0  0
   12.5515    9.3655   24.3171 C   0  0  0  0  0  0  0  0  0  0  0  0
   12.6816   10.1240   24.8747 H   0  0  0  0  0  0  0  0  0  0  0  0
   11.3874    9.1758   23.6909 C   0  0  0  0  0  0  0  0  0  0  0  0
   10.6722    9.7890   23.8232 H   0  0  0  0  0  0  0  0  0  0  0  0
   11.2189    8.0765   22.8426 C   0  0  0  0  0  0  0  0  0  0  0  0
   10.3826    7.9742   22.4031 H   0  0  0  0  0  0  0  0  0  0  0  0
   10.6079    5.9170   20.7691 C   0  0  0  0  0  0  0  0  0  0  0  0
   10.2635    6.8433   20.7065 H   0  0  0  0  0  0  0  0  0  0  0  0
    9.9950    5.4127   21.3610 H   0  0  0  0  0  0  0  0  0  0  0  0
   13.2300    6.3125   20.3289 C   0  0  0  0  0  0  0  0  0  0  0  0
   14.0506    6.6360   20.7774 H   0  0  0  0  0  0  0  0  0  0  0  0
   12.8835    7.0554   19.7731 H   0  0  0  0  0  0  0  0  0  0  0  0
   12.4169    4.4734   22.1746 C   0  0  0  0  0  0  0  0  0  0  0  0
   11.9765    4.4314   23.0600 H   0  0  0  0  0  0  0  0  0  0  0  0
   13.3928    4.3847   22.3180 H   0  0  0  0  0  0  0  0  0  0  0  0
    9.2933    1.9278   14.1975 C   0  0  0  0  0  0  0  0  0  0  0  0
    9.6483    3.2495   14.3549 C   0  0  0  0  0  0  0  0  0  0  0  0
   10.3974    3.4728   14.8936 H   0  0  0  0  0  0  0  0  0  0  0  0
    8.9257    4.2600   13.7334 C   0  0  0  0  0  0  0  0  0  0  0  0
    9.1872    5.1669   13.8445 H   0  0  0  0  0  0  0  0  0  0  0  0
    7.8593    3.9566   12.9820 C   0  0  0  0  0  0  0  0  0  0  0  0
    7.3723    4.6540   12.5591 H   0  0  0  0  0  0  0  0  0  0  0  0
    7.4487    2.6274   12.8095 C   0  0  0  0  0  0  0  0  0  0  0  0
    6.6838    2.4171   12.2873 H   0  0  0  0  0  0  0  0  0  0  0  0
    8.1890    1.6288   13.4192 C   0  0  0  0  0  0  0  0  0  0  0  0
    7.9334    0.7203   13.3010 H   0  0  0  0  0  0  0  0  0  0  0  0
    8.7316   -0.1279   15.9759 C   0  0  0  0  0  0  0  0  0  0  0  0
    8.1115    0.7348   16.8762 C   0  0  0  0  0  0  0  0  0  0  0  0
    8.4396    1.6217   16.9659 H   0  0  0  0  0  0  0  0  0  0  0  0
    7.0363    0.3406   17.6441 C   0  0  0  0  0  0  0  0  0  0  0  0
    6.6245    0.9481   18.2467 H   0  0  0  0  0  0  0  0  0  0  0  0
    6.5684   -0.9566   17.5236 C   0  0  0  0  0  0  0  0  0  0  0  0
    5.8544   -1.2593   18.0742 H   0  0  0  0  0  0  0  0  0  0  0  0
    7.1446   -1.8119   16.5997 C   0  0  0  0  0  0  0  0  0  0  0  0
    6.7940   -2.6863   16.4815 H   0  0  0  0  0  0  0  0  0  0  0  0
    8.2350   -1.3943   15.8388 C   0  0  0  0  0  0  0  0  0  0  0  0
    8.6372   -1.9954   15.2245 H   0  0  0  0  0  0  0  0  0  0  0  0
   11.3170   -1.6713   18.3608 C   0  0  0  0  0  0  0  0  0  0  0  0
   10.2258   -0.9926   18.8279 C   0  0  0  0  0  0  0  0  0  0  0  0
   10.0008   -0.1592   18.4310 H   0  0  0  0  0  0  0  0  0  0  0  0
    9.4362   -1.4763   19.8629 C   0  0  0  0  0  0  0  0  0  0  0  0
    8.6742   -0.9933   20.1630 H   0  0  0  0  0  0  0  0  0  0  0  0
    9.7903   -2.6806   20.4442 C   0  0  0  0  0  0  0  0  0  0  0  0
    9.2487   -3.0448   21.1365 H   0  0  0  0  0  0  0  0  0  0  0  0
   10.9198   -3.3613   20.0354 C   0  0  0  0  0  0  0  0  0  0  0  0
   11.1768   -4.1602   20.4796 H   0  0  0  0  0  0  0  0  0  0  0  0
   11.6762   -2.8890   18.9863 C   0  0  0  0  0  0  0  0  0  0  0  0
   12.4335   -3.3762   18.6838 H   0  0  0  0  0  0  0  0  0  0  0  0
   13.9015   -1.6861   17.2684 C   0  0  0  0  0  0  0  0  0  0  0  0
   14.6594   -2.5136   16.4319 C   0  0  0  0  0  0  0  0  0  0  0  0
   14.2865   -2.8357   15.6191 H   0  0  0  0  0  0  0  0  0  0  0  0
   15.9523   -2.8673   16.7864 C   0  0  0  0  0  0  0  0  0  0  0  0
   16.4579   -3.4419   16.2216 H   0  0  0  0  0  0  0  0  0  0  0  0
   16.4969   -2.3936   17.9348 C   0  0  0  0  0  0  0  0  0  0  0  0
   17.3916   -2.6239   18.1569 H   0  0  0  0  0  0  0  0  0  0  0  0
   15.7754   -1.5847   18.7831 C   0  0  0  0  0  0  0  0  0  0  0  0
   16.1658   -1.2670   19.5888 H   0  0  0  0  0  0  0  0  0  0  0  0
   14.4787   -1.2396   18.4570 C   0  0  0  0  0  0  0  0  0  0  0  0
   13.9750   -0.6912   19.0477 H   0  0  0  0  0  0  0  0  0  0  0  0
   15.0329    1.3041   14.7351 C   0  0  0  0  0  0  0  0  0  0  0  0
   15.7923    0.7406   15.7514 C   0  0  0  0  0  0  0  0  0  0  0  0
   15.3674    0.1765   16.3870 H   0  0  0  0  0  0  0  0  0  0  0  0
   17.1477    0.9752   15.8625 C   0  0  0  0  0  0  0  0  0  0  0  0
   17.6437    0.5523   16.5548 H   0  0  0  0  0  0  0  0  0  0  0  0
   17.7910    1.8205   14.9787 C   0  0  0  0  0  0  0  0  0  0  0  0
   18.7213    1.9996   15.0638 H   0  0  0  0  0  0  0  0  0  0  0  0
   17.0552    2.3979   13.9697 C   0  0  0  0  0  0  0  0  0  0  0  0
   17.4883    2.9749   13.3506 H   0  0  0  0  0  0  0  0  0  0  0  0
   15.7025    2.1583   13.8346 C   0  0  0  0  0  0  0  0  0  0  0  0
   15.2175    2.5711   13.1285 H   0  0  0  0  0  0  0  0  0  0  0  0
   12.7446    2.0444   13.2282 C   0  0  0  0  0  0  0  0  0  0  0  0
   12.4344    1.7056   11.9305 C   0  0  0  0  0  0  0  0  0  0  0  0
   12.4569    0.7931   11.6682 H   0  0  0  0  0  0  0  0  0  0  0  0
   12.0918    2.6721   11.0066 C   0  0  0  0  0  0  0  0  0  0  0  0
   11.8628    2.4155   10.1205 H   0  0  0  0  0  0  0  0  0  0  0  0
   12.0766    4.0079   11.3563 C   0  0  0  0  0  0  0  0  0  0  0  0
   11.8416    4.6686   10.7160 H   0  0  0  0  0  0  0  0  0  0  0  0
   12.4066    4.3750   12.6465 C   0  0  0  0  0  0  0  0  0  0  0  0
   12.4203    5.2935   12.8875 H   0  0  0  0  0  0  0  0  0  0  0  0
   12.7171    3.4108   13.5964 C   0  0  0  0  0  0  0  0  0  0  0  0
   12.9119    3.6677   14.4896 H   0  0  0  0  0  0  0  0  0  0  0  0
   11.7894   -2.9580   13.0312 C   0  0  0  0  0  0  0  0  0  0  0  0
   10.6064   -3.6730   12.7623 C   0  0  0  0  0  0  0  0  0  0  0  0
    9.7814   -3.3127   13.0647 H   0  0  0  0  0  0  0  0  0  0  0  0
   10.5890   -4.8739   12.0782 C   0  0  0  0  0  0  0  0  0  0  0  0
    9.7709   -5.3409   11.9518 H   0  0  0  0  0  0  0  0  0  0  0  0
   11.7428   -5.3831   11.5879 C   0  0  0  0  0  0  0  0  0  0  0  0
   11.7298   -6.1925   11.0917 H   0  0  0  0  0  0  0  0  0  0  0  0
   12.9271   -4.7367   11.8076 C   0  0  0  0  0  0  0  0  0  0  0  0
   13.7381   -5.1011   11.4721 H   0  0  0  0  0  0  0  0  0  0  0  0
   12.9447   -3.5385   12.5281 C   0  0  0  0  0  0  0  0  0  0  0  0
   13.7771   -3.1061   12.6796 H   0  0  0  0  0  0  0  0  0  0  0  0
   10.5416   -0.6323   13.7074 C   0  0  0  0  0  0  0  0  0  0  0  0
    9.7366   -1.1803   13.5302 H   0  0  0  0  0  0  0  0  0  0  0  0
   10.7361   -0.1176   12.8828 H   0  0  0  0  0  0  0  0  0  0  0  0
   11.6814   -2.2305   15.5404 C   0  0  0  0  0  0  0  0  0  0  0  0
   12.1973   -3.0739   15.5954 H   0  0  0  0  0  0  0  0  0  0  0  0
   10.7309   -2.4577   15.6994 H   0  0  0  0  0  0  0  0  0  0  0  0
   13.2156   -0.7962   13.7753 C   0  0  0  0  0  0  0  0  0  0  0  0
   13.3695   -0.7056   12.8024 H   0  0  0  0  0  0  0  0  0  0  0  0
   13.9651   -1.3265   14.1446 H   0  0  0  0  0  0  0  0  0  0  0  0
   12.1073    5.9643   21.4886 B   0  0  0  0  0  0  0  0  0  0  0  0
   11.8144   -1.6509   14.0028 B   0  0  0  0  0  0  0  0  0  0  0  0
  1  3  1  0  0  0  0
  2  4  1  0  0  0  0
  3  4  1  0  0  0  0
  5  1  1  0  0  0  0
  6  1  1  0  0  0  0
  7  1  1  0  0  0  0
  8  1  1  0  0  0  0
  9  1  1  0  0  0  0
 10  2  1  0  0  0  0
 11  2  1  0  0  0  0
 12  2  1  0  0  0  0
 13  7  1  0  0  0  0
 14 13  4  0  0  0  0
 15 14  1  0  0  0  0
 16 14  4  0  0  0  0
 17 16  1  0  0  0  0
 18 16  4  0  0  0  0
 19 18  1  0  0  0  0
 20 18  4  0  0  0  0
 21 20  1  0  0  0  0
 22 13  4  0  0  0  0
 23 22  1  0  0  0  0
 24  7  1  0  0  0  0
 25 24  4  0  0  0  0
 26 25  1  0  0  0  0
 27 25  4  0  0  0  0
 28 27  1  0  0  0  0
 29 27  4  0  0  0  0
 30 29  1  0  0  0  0
 31 29  4  0  0  0  0
 32 31  1  0  0  0  0
 33 24  4  0  0  0  0
 34 33  1  0  0  0  0
 35  8  1  0  0  0  0
 36 35  4  0  0  0  0
 37 36  1  0  0  0  0
 38 36  4  0  0  0  0
 39 38  1  0  0  0  0
 40 38  4  0  0  0  0
 41 40  1  0  0  0  0
 42 40  4  0  0  0  0
 43 42  1  0  0  0  0
 44 35  4  0  0  0  0
 45 44  1  0  0  0  0
 46  8  1  0  0  0  0
 47 46  4  0  0  0  0
 48 47  1  0  0  0  0
 49 47  4  0  0  0  0
 50 49  1  0  0  0  0
 51 49  4  0  0  0  0
 52 51  1  0  0  0  0
 53 51  4  0  0  0  0
 54 53  1  0  0  0  0
 55 46  4  0  0  0  0
 56 55  1  0  0  0  0
 57  9  1  0  0  0  0
 58 57  4  0  0  0  0
 59 58  1  0  0  0  0
 60 58  4  0  0  0  0
 61 60  1  0  0  0  0
 62 60  4  0  0  0  0
 63 62  1  0  0  0  0
 64 62  4  0  0  0  0
 65 64  1  0  0  0  0
 66 57  4  0  0  0  0
 67 66  1  0  0  0  0
 68  9  1  0  0  0  0
 69 68  4  0  0  0  0
 70 69  1  0  0  0  0
 71 69  4  0  0  0  0
 72 71  1  0  0  0  0
 73 71  4  0  0  0  0
 74 73  1  0  0  0  0
 75 73  4  0  0  0  0
 76 75  1  0  0  0  0
 77 68  4  0  0  0  0
 78 77  1  0  0  0  0
 79 80  4  0  0  0  0
 80 81  1  0  0  0  0
 82 80  4  0  0  0  0
 83 82  1  0  0  0  0
 84 82  4  0  0  0  0
 85 84  1  0  0  0  0
 86 84  4  0  0  0  0
 87 86  1  0  0  0  0
 88 79  4  0  0  0  0
 89 88  1  0  0  0  0
 90  7  1  0  0  0  0
 91 90  1  0  0  0  0
 92 90  1  0  0  0  0
 93  8  1  0  0  0  0
 94 93  1  0  0  0  0
 95 93  1  0  0  0  0
 96  9  1  0  0  0  0
 97 96  1  0  0  0  0
 98 96  1  0  0  0  0
 99 10  1  0  0  0  0
100 99  4  0  0  0  0
101100  1  0  0  0  0
102100  4  0  0  0  0
103102  1  0  0  0  0
104102  4  0  0  0  0
105104  1  0  0  0  0
106104  4  0  0  0  0
107106  1  0  0  0  0
108 99  4  0  0  0  0
109108  1  0  0  0  0
110 10  1  0  0  0  0
111110  4  0  0  0  0
112111  1  0  0  0  0
113111  4  0  0  0  0
114113  1  0  0  0  0
115113  4  0  0  0  0
116115  1  0  0  0  0
117115  4  0  0  0  0
118117  1  0  0  0  0
119110  4  0  0  0  0
120119  1  0  0  0  0
121 11  1  0  0  0  0
122121  4  0  0  0  0
123122  1  0  0  0  0
124122  4  0  0  0  0
125124  1  0  0  0  0
126124  4  0  0  0  0
127126  1  0  0  0  0
128126  4  0  0  0  0
129128  1  0  0  0  0
130121  4  0  0  0  0
131130  1  0  0  0  0
132 11  1  0  0  0  0
133132  4  0  0  0  0
134133  1  0  0  0  0
135133  4  0  0  0  0
136135  1  0  0  0  0
137135  4  0  0  0  0
138137  1  0  0  0  0
139137  4  0  0  0  0
140139  1  0  0  0  0
141132  4  0  0  0  0
142141  1  0  0  0  0
143 12  1  0  0  0  0
144143  4  0  0  0  0
145144  1  0  0  0  0
146144  4  0  0  0  0
147146  1  0  0  0  0
148146  4  0  0  0  0
149148  1  0  0  0  0
150148  4  0  0  0  0
151150  1  0  0  0  0
152143  4  0  0  0  0
153152  1  0  0  0  0
154 12  1  0  0  0  0
155154  4  0  0  0  0
156155  1  0  0  0  0
157155  4  0  0  0  0
158157  1  0  0  0  0
159157  4  0  0  0  0
160159  1  0  0  0  0
161159  4  0  0  0  0
162161  1  0  0  0  0
163154  4  0  0  0  0
164163  1  0  0  0  0
165166  4  0  0  0  0
166167  1  0  0  0  0
168166  4  0  0  0  0
169168  1  0  0  0  0
170168  4  0  0  0  0
171170  1  0  0  0  0
172170  4  0  0  0  0
173172  1  0  0  0  0
174165  4  0  0  0  0
175174  1  0  0  0  0
176 10  1  0  0  0  0
177176  1  0  0  0  0
178176  1  0  0  0  0
179 11  1  0  0  0  0
180179  1  0  0  0  0
181179  1  0  0  0  0
182 12  1  0  0  0  0
183182  1  0  0  0  0
184182  1  0  0  0  0
185 79  1  0  0  0  0
186165  1  0  0  0  0
  2  5  1  0  0  0  0
  2  6  1  0  0  0  0
  5  6  1  0  0  0  0
 20 22  4  0  0  0  0
 31 33  4  0  0  0  0
 42 44  4  0  0  0  0
 53 55  4  0  0  0  0
 64 66  4  0  0  0  0
 75 77  4  0  0  0  0
 86 88  4  0  0  0  0
 90185  1  0  0  0  0
 93185  1  0  0  0  0
 96185  1  0  0  0  0
106108  4  0  0  0  0
117119  4  0  0  0  0
128130  4  0  0  0  0
139141  4  0  0  0  0
150152  4  0  0  0  0
161163  4  0  0  0  0
172174  4  0  0  0  0
176186  1  0  0  0  0
179186  1  0  0  0  0
182186  1  0  0  0  0
M  CHG  1   2   1
M  END
$$$$
GIYNOS

From CSD data. Using bond type 'Any'. No disordered atoms. Largest molecule.
185205  0  0  0  0  0  0  0  0999 V2000
    5.9122    0.9623   12.3200 Rh  0  0  0  0  0  0  0  0  0  0  0  0
    3.2172    2.9926   11.7327 Rh  0  3  0  0  0  0  0  0  0  0  0  0
    4.6309    2.5485   13.6479 Cl  0  0  0  0  0  0  0  0  0  0  0  0
    4.1401    1.1164   11.1972 O   0  0  0  0  0  0  0  0  0  0  0  0
    5.0156    2.2558   10.8343 O   0  0  0  0  0  0  0  0  0  0  0  0
    7.1687   -0.0872   10.7077 P   0  0  0  0  0  0  0  0  0  0  0  0
    5.8685   -0.9773   13.5397 P   0  0  0  0  0  0  0  0  0  0  0  0
    7.9012    1.5051   13.3532 P   0  0  0  0  0  0  0  0  0  0  0  0
    2.0467    3.0656    9.7584 P   0  0  0  0  0  0  0  0  0  0  0  0
    3.0589    5.2739   11.8624 P   0  0  0  0  0  0  0  0  0  0  0  0
    1.2201    2.9496   12.8592 P   0  0  0  0  0  0  0  0  0  0  0  0
    8.7051   -1.2973   12.9094 B   0  0  0  0  0  0  0  0  0  0  0  0
    0.2816    4.9891   11.0296 B   0  0  0  0  0  0  0  0  0  0  0  0
    8.2197    1.1427    9.8706 C   0  0  0  0  0  0  0  0  0  0  0  0
    7.5854    2.1005    9.0494 C   0  0  0  0  0  0  0  0  0  0  0  0
    6.6376    2.1284    9.0007 H   0  0  0  0  0  0  0  0  0  0  0  0
    8.3387    2.9924    8.3163 C   0  0  0  0  0  0  0  0  0  0  0  0
    7.9083    3.6183    7.7444 H   0  0  0  0  0  0  0  0  0  0  0  0
    9.7171    2.9848    8.4106 C   0  0  0  0  0  0  0  0  0  0  0  0
   10.2299    3.6208    7.9269 H   0  0  0  0  0  0  0  0  0  0  0  0
   10.3421    2.0574    9.2075 C   0  0  0  0  0  0  0  0  0  0  0  0
   11.2923    2.0524    9.2684 H   0  0  0  0  0  0  0  0  0  0  0  0
    9.6026    1.1250    9.9284 C   0  0  0  0  0  0  0  0  0  0  0  0
   10.0468    0.4764   10.4577 H   0  0  0  0  0  0  0  0  0  0  0  0
    6.2987   -0.8032    9.2501 C   0  0  0  0  0  0  0  0  0  0  0  0
    7.0451   -0.9831    8.0912 C   0  0  0  0  0  0  0  0  0  0  0  0
    7.9380   -0.6664    8.0486 H   0  0  0  0  0  0  0  0  0  0  0  0
    6.4864   -1.6242    7.0053 C   0  0  0  0  0  0  0  0  0  0  0  0
    7.0039   -1.7483    6.2174 H   0  0  0  0  0  0  0  0  0  0  0  0
    5.1837   -2.0853    7.0479 C   0  0  0  0  0  0  0  0  0  0  0  0
    4.8013   -2.5110    6.2904 H   0  0  0  0  0  0  0  0  0  0  0  0
    4.4441   -1.9282    8.1977 C   0  0  0  0  0  0  0  0  0  0  0  0
    3.5535   -2.2551    8.2372 H   0  0  0  0  0  0  0  0  0  0  0  0
    4.9982   -1.2948    9.3049 C   0  0  0  0  0  0  0  0  0  0  0  0
    4.4853   -1.1934   10.0988 H   0  0  0  0  0  0  0  0  0  0  0  0
    4.8906   -2.1867   12.5931 C   0  0  0  0  0  0  0  0  0  0  0  0
    3.5535   -1.8927   12.3680 C   0  0  0  0  0  0  0  0  0  0  0  0
    3.1986   -1.0642   12.6691 H   0  0  0  0  0  0  0  0  0  0  0  0
    2.7292   -2.7872   11.7140 C   0  0  0  0  0  0  0  0  0  0  0  0
    1.8065   -2.5921   11.5953 H   0  0  0  0  0  0  0  0  0  0  0  0
    3.2558   -3.9831   11.2242 C   0  0  0  0  0  0  0  0  0  0  0  0
    2.7040   -4.5887   10.7406 H   0  0  0  0  0  0  0  0  0  0  0  0
    4.5884   -4.2771   11.4433 C   0  0  0  0  0  0  0  0  0  0  0  0
    4.9501   -5.0904   11.1117 H   0  0  0  0  0  0  0  0  0  0  0  0
    5.3966   -3.4156   12.1368 C   0  0  0  0  0  0  0  0  0  0  0  0
    6.3010   -3.6487   12.3071 H   0  0  0  0  0  0  0  0  0  0  0  0
    4.9822   -0.9882   15.1360 C   0  0  0  0  0  0  0  0  0  0  0  0
    4.5586   -2.2399   15.6196 C   0  0  0  0  0  0  0  0  0  0  0  0
    4.6708   -3.0102   15.0752 H   0  0  0  0  0  0  0  0  0  0  0  0
    3.9816   -2.3640   16.8698 C   0  0  0  0  0  0  0  0  0  0  0  0
    3.7000   -3.2179   17.1770 H   0  0  0  0  0  0  0  0  0  0  0  0
    3.8122   -1.2416   17.6729 C   0  0  0  0  0  0  0  0  0  0  0  0
    3.4207   -1.3226   18.5337 H   0  0  0  0  0  0  0  0  0  0  0  0
    4.2152   -0.0203   17.2166 C   0  0  0  0  0  0  0  0  0  0  0  0
    4.0869    0.7500   17.7580 H   0  0  0  0  0  0  0  0  0  0  0  0
    4.8104    0.1115   15.9695 C   0  0  0  0  0  0  0  0  0  0  0  0
    5.1035    0.9679   15.6805 H   0  0  0  0  0  0  0  0  0  0  0  0
    7.6724    1.9282   15.1086 C   0  0  0  0  0  0  0  0  0  0  0  0
    8.0090    1.0617   16.1550 C   0  0  0  0  0  0  0  0  0  0  0  0
    8.4463    0.2382   15.9695 H   0  0  0  0  0  0  0  0  0  0  0  0
    7.7091    1.4037   17.4599 C   0  0  0  0  0  0  0  0  0  0  0  0
    7.9586    0.8235   18.1656 H   0  0  0  0  0  0  0  0  0  0  0  0
    7.0543    2.5845   17.7428 C   0  0  0  0  0  0  0  0  0  0  0  0
    6.8161    2.7897   18.6402 H   0  0  0  0  0  0  0  0  0  0  0  0
    6.7452    3.4662   16.7329 C   0  0  0  0  0  0  0  0  0  0  0  0
    6.3170    4.2897   16.9367 H   0  0  0  0  0  0  0  0  0  0  0  0
    7.0565    3.1546   15.4098 C   0  0  0  0  0  0  0  0  0  0  0  0
    6.8551    3.7678   14.7132 H   0  0  0  0  0  0  0  0  0  0  0  0
    8.6043    3.0380   12.6539 C   0  0  0  0  0  0  0  0  0  0  0  0
    9.9163    3.3598   12.9824 C   0  0  0  0  0  0  0  0  0  0  0  0
   10.4039    2.8151   13.5938 H   0  0  0  0  0  0  0  0  0  0  0  0
   10.5070    4.4722   12.4197 C   0  0  0  0  0  0  0  0  0  0  0  0
   11.4091    4.6850   12.6356 H   0  0  0  0  0  0  0  0  0  0  0  0
    9.8132    5.2855   11.5436 C   0  0  0  0  0  0  0  0  0  0  0  0
   10.2322    6.0482   11.1664 H   0  0  0  0  0  0  0  0  0  0  0  0
    8.5150    4.9840   11.2273 C   0  0  0  0  0  0  0  0  0  0  0  0
    8.0319    5.5389   10.6280 H   0  0  0  0  0  0  0  0  0  0  0  0
    7.8968    3.8488   11.7839 C   0  0  0  0  0  0  0  0  0  0  0  0
    6.9947    3.6411   11.5649 H   0  0  0  0  0  0  0  0  0  0  0  0
    9.9849   -2.3058   13.1467 C   0  0  0  0  0  0  0  0  0  0  0  0
   11.0290   -2.3995   12.2493 C   0  0  0  0  0  0  0  0  0  0  0  0
   10.9924   -1.8775   11.4554 H   0  0  0  0  0  0  0  0  0  0  0  0
   12.1349   -3.2281   12.4501 C   0  0  0  0  0  0  0  0  0  0  0  0
   12.8424   -3.2458   11.8113 H   0  0  0  0  0  0  0  0  0  0  0  0
   12.1967   -4.0186   13.5816 C   0  0  0  0  0  0  0  0  0  0  0  0
   12.9362   -4.5938   13.7337 H   0  0  0  0  0  0  0  0  0  0  0  0
   11.1755   -3.9527   14.4729 C   0  0  0  0  0  0  0  0  0  0  0  0
   11.2099   -4.4874   15.2577 H   0  0  0  0  0  0  0  0  0  0  0  0
   10.0857   -3.1292   14.2691 C   0  0  0  0  0  0  0  0  0  0  0  0
    9.3851   -3.1216   14.9109 H   0  0  0  0  0  0  0  0  0  0  0  0
    8.2242   -1.4139   11.3246 C   0  0  0  0  0  0  0  0  0  0  0  0
    7.7434   -2.2703   11.2090 H   0  0  0  0  0  0  0  0  0  0  0  0
    9.0348   -1.4544   10.7558 H   0  0  0  0  0  0  0  0  0  0  0  0
    7.4733   -1.7154   13.9102 C   0  0  0  0  0  0  0  0  0  0  0  0
    7.7251   -1.4645   14.8349 H   0  0  0  0  0  0  0  0  0  0  0  0
    7.3771   -2.7010   13.8858 H   0  0  0  0  0  0  0  0  0  0  0  0
    9.1973    0.2508   13.2775 C   0  0  0  0  0  0  0  0  0  0  0  0
    9.8636    0.5346   12.6022 H   0  0  0  0  0  0  0  0  0  0  0  0
    9.6575    0.2280   14.1535 H   0  0  0  0  0  0  0  0  0  0  0  0
    0.9731    1.5938    9.5543 C   0  0  0  0  0  0  0  0  0  0  0  0
    1.5043    0.3015    9.7246 C   0  0  0  0  0  0  0  0  0  0  0  0
    2.4087    0.1951    9.9984 H   0  0  0  0  0  0  0  0  0  0  0  0
    0.7189   -0.8184    9.4995 C   0  0  0  0  0  0  0  0  0  0  0  0
    1.1013   -1.6850    9.5695 H   0  0  0  0  0  0  0  0  0  0  0  0
   -0.6251   -0.6791    9.1680 C   0  0  0  0  0  0  0  0  0  0  0  0
   -1.1700   -1.4443    9.0463 H   0  0  0  0  0  0  0  0  0  0  0  0
   -1.1517    0.5828    9.0250 C   0  0  0  0  0  0  0  0  0  0  0  0
   -2.0721    0.6816    8.8121 H   0  0  0  0  0  0  0  0  0  0  0  0
   -0.3595    1.7128    9.1832 C   0  0  0  0  0  0  0  0  0  0  0  0
   -0.7327    2.5743    9.0372 H   0  0  0  0  0  0  0  0  0  0  0  0
    3.1070    2.9848    8.2828 C   0  0  0  0  0  0  0  0  0  0  0  0
    3.0520    3.9679    7.3003 C   0  0  0  0  0  0  0  0  0  0  0  0
    2.4773    4.7154    7.4250 H   0  0  0  0  0  0  0  0  0  0  0  0
    3.8099    3.8818    6.1596 C   0  0  0  0  0  0  0  0  0  0  0  0
    3.7527    4.5608    5.4965 H   0  0  0  0  0  0  0  0  0  0  0  0
    4.6570    2.8024    5.9741 C   0  0  0  0  0  0  0  0  0  0  0  0
    5.1882    2.7441    5.1893 H   0  0  0  0  0  0  0  0  0  0  0  0
    4.7280    1.8117    6.9323 C   0  0  0  0  0  0  0  0  0  0  0  0
    5.3050    1.0693    6.7954 H   0  0  0  0  0  0  0  0  0  0  0  0
    3.9702    1.8851    8.0790 C   0  0  0  0  0  0  0  0  0  0  0  0
    4.0297    1.1985    8.7330 H   0  0  0  0  0  0  0  0  0  0  0  0
    3.9404    6.0482   10.4608 C   0  0  0  0  0  0  0  0  0  0  0  0
    3.6725    7.3784   10.1049 C   0  0  0  0  0  0  0  0  0  0  0  0
    3.0062    7.8700   10.5703 H   0  0  0  0  0  0  0  0  0  0  0  0
    4.3800    7.9739    9.0706 C   0  0  0  0  0  0  0  0  0  0  0  0
    4.1991    8.8784    8.8395 H   0  0  0  0  0  0  0  0  0  0  0  0
    5.3393    7.2796    8.3771 C   0  0  0  0  0  0  0  0  0  0  0  0
    5.8087    7.6926    7.6623 H   0  0  0  0  0  0  0  0  0  0  0  0
    5.6210    5.9544    8.7300 C   0  0  0  0  0  0  0  0  0  0  0  0
    6.2941    5.4705    8.2646 H   0  0  0  0  0  0  0  0  0  0  0  0
    4.9204    5.3438    9.7611 C   0  0  0  0  0  0  0  0  0  0  0  0
    5.1104    4.4418    9.9893 H   0  0  0  0  0  0  0  0  0  0  0  0
    3.9587    5.9544   13.3018 C   0  0  0  0  0  0  0  0  0  0  0  0
    3.3016    6.5321   14.3664 C   0  0  0  0  0  0  0  0  0  0  0  0
    2.3514    6.5853   14.3695 H   0  0  0  0  0  0  0  0  0  0  0  0
    4.0366    7.0414   15.4463 C   0  0  0  0  0  0  0  0  0  0  0  0
    3.5855    7.4367   16.1854 H   0  0  0  0  0  0  0  0  0  0  0  0
    5.3966    6.9680   15.4432 C   0  0  0  0  0  0  0  0  0  0  0  0
    5.8866    7.2973   16.1854 H   0  0  0  0  0  0  0  0  0  0  0  0
    6.0720    6.4181   14.3664 C   0  0  0  0  0  0  0  0  0  0  0  0
    7.0222    6.3953   14.3512 H   0  0  0  0  0  0  0  0  0  0  0  0
    5.3416    5.9038   13.3200 C   0  0  0  0  0  0  0  0  0  0  0  0
    5.7996    5.5059   12.5870 H   0  0  0  0  0  0  0  0  0  0  0  0
    1.1791    3.8184   14.4972 C   0  0  0  0  0  0  0  0  0  0  0  0
    0.0870    4.6369   14.8136 C   0  0  0  0  0  0  0  0  0  0  0  0
   -0.5838    4.8016   14.1596 H   0  0  0  0  0  0  0  0  0  0  0  0
   -0.0183    5.2120   16.0790 C   0  0  0  0  0  0  0  0  0  0  0  0
   -0.7716    5.7492   16.2919 H   0  0  0  0  0  0  0  0  0  0  0  0
    0.9616    5.0043   17.0189 C   0  0  0  0  0  0  0  0  0  0  0  0
    0.8929    5.4097   17.8767 H   0  0  0  0  0  0  0  0  0  0  0  0
    2.0538    4.2036   16.7147 C   0  0  0  0  0  0  0  0  0  0  0  0
    2.7338    4.0591   17.3596 H   0  0  0  0  0  0  0  0  0  0  0  0
    2.1431    3.6208   15.4706 C   0  0  0  0  0  0  0  0  0  0  0  0
    2.8895    3.0659   15.2729 H   0  0  0  0  0  0  0  0  0  0  0  0
    0.8517    1.2061   13.2562 C   0  0  0  0  0  0  0  0  0  0  0  0
   -0.1603    0.5220   12.5839 C   0  0  0  0  0  0  0  0  0  0  0  0
   -0.6915    0.9730   11.9391 H   0  0  0  0  0  0  0  0  0  0  0  0
   -0.3892   -0.8210   12.8638 C   0  0  0  0  0  0  0  0  0  0  0  0
   -1.0692   -1.2973   12.4014 H   0  0  0  0  0  0  0  0  0  0  0  0
    0.3778   -1.4595   13.8250 C   0  0  0  0  0  0  0  0  0  0  0  0
    0.2244   -2.3792   14.0075 H   0  0  0  0  0  0  0  0  0  0  0  0
    1.3509   -0.7956   14.5094 C   0  0  0  0  0  0  0  0  0  0  0  0
    1.8523   -1.2416   15.1847 H   0  0  0  0  0  0  0  0  0  0  0  0
    1.6027    0.5372   14.2174 C   0  0  0  0  0  0  0  0  0  0  0  0
    2.2942    0.9983   14.6797 H   0  0  0  0  0  0  0  0  0  0  0  0
   -1.0418    5.9063   10.7102 C   0  0  0  0  0  0  0  0  0  0  0  0
   -1.1540    6.6360    9.5330 C   0  0  0  0  0  0  0  0  0  0  0  0
   -0.4350    6.6183    8.9094 H   0  0  0  0  0  0  0  0  0  0  0  0
   -2.2782    7.3936    9.2349 C   0  0  0  0  0  0  0  0  0  0  0  0
   -2.3194    7.8598    8.4075 H   0  0  0  0  0  0  0  0  0  0  0  0
   -3.3153    7.4823   10.1049 C   0  0  0  0  0  0  0  0  0  0  0  0
   -4.0778    8.0119    9.8980 H   0  0  0  0  0  0  0  0  0  0  0  0
   -3.2421    6.7830   11.3003 C   0  0  0  0  0  0  0  0  0  0  0  0
   -3.9564    6.8362   11.9239 H   0  0  0  0  0  0  0  0  0  0  0  0
   -2.1247    6.0026   11.5893 C   0  0  0  0  0  0  0  0  0  0  0  0
   -2.0996    5.5237   12.4105 H   0  0  0  0  0  0  0  0  0  0  0  0
    1.0028    4.5127    9.6060 C   0  0  0  0  0  0  0  0  0  0  0  0
    1.5501    5.2627    9.2623 H   0  0  0  0  0  0  0  0  0  0  0  0
    0.2954    4.3252    8.9399 H   0  0  0  0  0  0  0  0  0  0  0  0
    1.3760    5.9342   11.8569 C   0  0  0  0  0  0  0  0  0  0  0  0
    1.0692    6.0304   12.7908 H   0  0  0  0  0  0  0  0  0  0  0  0
    1.3898    6.8362   11.4493 H   0  0  0  0  0  0  0  0  0  0  0  0
   -0.1374    3.6487   11.9208 C   0  0  0  0  0  0  0  0  0  0  0  0
   -0.4923    2.9569   11.3064 H   0  0  0  0  0  0  0  0  0  0  0  0
   -0.8632    3.8970   12.5444 H   0  0  0  0  0  0  0  0  0  0  0  0
  1  3  1  0  0  0  0
  2  3  1  0  0  0  0
  4  1  1  0  0  0  0
  5  1  1  0  0  0  0
  6  1  1  0  0  0  0
  7  1  1  0  0  0  0
  8  1  1  0  0  0  0
  9  2  1  0  0  0  0
 10  2  1  0  0  0  0
 11  2  1  0  0  0  0
 12 80  1  0  0  0  0
 13166  1  0  0  0  0
 14  6  1  0  0  0  0
 15 14  4  0  0  0  0
 16 15  1  0  0  0  0
 17 15  4  0  0  0  0
 18 17  1  0  0  0  0
 19 17  4  0  0  0  0
 20 19  1  0  0  0  0
 21 19  4  0  0  0  0
 22 21  1  0  0  0  0
 23 14  4  0  0  0  0
 24 23  1  0  0  0  0
 25  6  1  0  0  0  0
 26 25  4  0  0  0  0
 27 26  1  0  0  0  0
 28 26  4  0  0  0  0
 29 28  1  0  0  0  0
 30 28  4  0  0  0  0
 31 30  1  0  0  0  0
 32 30  4  0  0  0  0
 33 32  1  0  0  0  0
 34 25  4  0  0  0  0
 35 34  1  0  0  0  0
 36  7  1  0  0  0  0
 37 36  4  0  0  0  0
 38 37  1  0  0  0  0
 39 37  4  0  0  0  0
 40 39  1  0  0  0  0
 41 39  4  0  0  0  0
 42 41  1  0  0  0  0
 43 41  4  0  0  0  0
 44 43  1  0  0  0  0
 45 36  4  0  0  0  0
 46 45  1  0  0  0  0
 47  7  1  0  0  0  0
 48 47  4  0  0  0  0
 49 48  1  0  0  0  0
 50 48  4  0  0  0  0
 51 50  1  0  0  0  0
 52 50  4  0  0  0  0
 53 52  1  0  0  0  0
 54 52  4  0  0  0  0
 55 54  1  0  0  0  0
 56 47  4  0  0  0  0
 57 56  1  0  0  0  0
 58  8  1  0  0  0  0
 59 58  4  0  0  0  0
 60 59  1  0  0  0  0
 61 59  4  0  0  0  0
 62 61  1  0  0  0  0
 63 61  4  0  0  0  0
 64 63  1  0  0  0  0
 65 63  4  0  0  0  0
 66 65  1  0  0  0  0
 67 58  4  0  0  0  0
 68 67  1  0  0  0  0
 69  8  1  0  0  0  0
 70 69  4  0  0  0  0
 71 70  1  0  0  0  0
 72 70  4  0  0  0  0
 73 72  1  0  0  0  0
 74 72  4  0  0  0  0
 75 74  1  0  0  0  0
 76 74  4  0  0  0  0
 77 76  1  0  0  0  0
 78 69  4  0  0  0  0
 79 78  1  0  0  0  0
 80 81  4  0  0  0  0
 81 82  1  0  0  0  0
 83 81  4  0  0  0  0
 84 83  1  0  0  0  0
 85 83  4  0  0  0  0
 86 85  1  0  0  0  0
 87 85  4  0  0  0  0
 88 87  1  0  0  0  0
 89 80  4  0  0  0  0
 90 89  1  0  0  0  0
 91  6  1  0  0  0  0
 92 91  1  0  0  0  0
 93 91  1  0  0  0  0
 94  7  1  0  0  0  0
 95 94  1  0  0  0  0
 96 94  1  0  0  0  0
 97  8  1  0  0  0  0
 98 97  1  0  0  0  0
 99 97  1  0  0  0  0
100  9  1  0  0  0  0
101100  4  0  0  0  0
102101  1  0  0  0  0
103101  4  0  0  0  0
104103  1  0  0  0  0
105103  4  0  0  0  0
106105  1  0  0  0  0
107105  4  0  0  0  0
108107  1  0  0  0  0
109100  4  0  0  0  0
110109  1  0  0  0  0
111  9  1  0  0  0  0
112111  4  0  0  0  0
113112  1  0  0  0  0
114112  4  0  0  0  0
115114  1  0  0  0  0
116114  4  0  0  0  0
117116  1  0  0  0  0
118116  4  0  0  0  0
119118  1  0  0  0  0
120111  4  0  0  0  0
121120  1  0  0  0  0
122 10  1  0  0  0  0
123122  4  0  0  0  0
124123  1  0  0  0  0
125123  4  0  0  0  0
126125  1  0  0  0  0
127125  4  0  0  0  0
128127  1  0  0  0  0
129127  4  0  0  0  0
130129  1  0  0  0  0
131122  4  0  0  0  0
132131  1  0  0  0  0
133 10  1  0  0  0  0
134133  4  0  0  0  0
135134  1  0  0  0  0
136134  4  0  0  0  0
137136  1  0  0  0  0
138136  4  0  0  0  0
139138  1  0  0  0  0
140138  4  0  0  0  0
141140  1  0  0  0  0
142133  4  0  0  0  0
143142  1  0  0  0  0
144 11  1  0  0  0  0
145144  4  0  0  0  0
146145  1  0  0  0  0
147145  4  0  0  0  0
148147  1  0  0  0  0
149147  4  0  0  0  0
150149  1  0  0  0  0
151149  4  0  0  0  0
152151  1  0  0  0  0
153144  4  0  0  0  0
154153  1  0  0  0  0
155 11  1  0  0  0  0
156155  4  0  0  0  0
157156  1  0  0  0  0
158156  4  0  0  0  0
159158  1  0  0  0  0
160158  4  0  0  0  0
161160  1  0  0  0  0
162160  4  0  0  0  0
163162  1  0  0  0  0
164155  4  0  0  0  0
165164  1  0  0  0  0
166167  4  0  0  0  0
167168  1  0  0  0  0
169167  4  0  0  0  0
170169  1  0  0  0  0
171169  4  0  0  0  0
172171  1  0  0  0  0
173171  4  0  0  0  0
174173  1  0  0  0  0
175166  4  0  0  0  0
176175  1  0  0  0  0
177  9  1  0  0  0  0
178177  1  0  0  0  0
179177  1  0  0  0  0
180 10  1  0  0  0  0
181180  1  0  0  0  0
182180  1  0  0  0  0
183 11  1  0  0  0  0
184183  1  0  0  0  0
185183  1  0  0  0  0
  2  4  1  0  0  0  0
  2  5  1  0  0  0  0
  4  5  1  0  0  0  0
 12 91  1  0  0  0  0
 12 94  1  0  0  0  0
 12 97  1  0  0  0  0
 13177  1  0  0  0  0
 13180  1  0  0  0  0
 13183  1  0  0  0  0
 21 23  4  0  0  0  0
 32 34  4  0  0  0  0
 43 45  4  0  0  0  0
 54 56  4  0  0  0  0
 65 67  4  0  0  0  0
 76 78  4  0  0  0  0
 87 89  4  0  0  0  0
107109  4  0  0  0  0
118120  4  0  0  0  0
129131  4  0  0  0  0
140142  4  0  0  0  0
151153  4  0  0  0  0
162164  4  0  0  0  0
173175  4  0  0  0  0
M  CHG  1   2   1
M  END
$$$$
GIZGUU

From CSD data. Using bond type 'Any'. No disordered atoms. Largest molecule.
107114  0  0  0  0  0  0  0  0999 V2000
    5.2886    4.8580   10.6832 Pt  0  0  0  0  0  0  0  0  0  0  0  0
    5.8688    2.6120   10.9266 P   0  0  0  0  0  0  0  0  0  0  0  0
    7.3070    5.9753   10.9793 P   0  0  0  0  0  0  0  0  0  0  0  0
    2.4648    4.4374    9.4273 O   0  0  0  0  0  0  0  0  0  0  0  0
    2.4937    4.1892   11.6919 O   0  0  0  0  0  0  0  0  0  0  0  0
    4.1526    7.3769    9.1871 N   0  0  0  0  0  0  0  0  0  0  0  0
    3.7040    7.4878   11.4175 N   0  0  0  0  0  0  0  0  0  0  0  0
    3.4153    8.6100    9.3672 C   0  0  0  0  0  0  0  0  0  0  0  0
    2.5010    8.5322    8.9961 H   0  0  0  0  0  0  0  0  0  0  0  0
    3.8783    9.3655    8.9257 H   0  0  0  0  0  0  0  0  0  0  0  0
    3.3748    8.8061   10.8863 C   0  0  0  0  0  0  0  0  0  0  0  0
    4.0386    9.4811   11.1749 H   0  0  0  0  0  0  0  0  0  0  0  0
    2.4742    9.0930   11.1826 H   0  0  0  0  0  0  0  0  0  0  0  0
    4.4105    6.9280    7.8524 C   0  0  0  0  0  0  0  0  0  0  0  0
    3.5659    6.8696    7.3582 H   0  0  0  0  0  0  0  0  0  0  0  0
    4.8332    6.0441    7.8812 H   0  0  0  0  0  0  0  0  0  0  0  0
    5.0082    7.5616    7.4040 H   0  0  0  0  0  0  0  0  0  0  0  0
    3.7625    7.3266   12.8455 C   0  0  0  0  0  0  0  0  0  0  0  0
    4.4999    7.8620   13.2051 H   0  0  0  0  0  0  0  0  0  0  0  0
    3.9092    6.3816   13.0615 H   0  0  0  0  0  0  0  0  0  0  0  0
    2.9177    7.6247   13.2429 H   0  0  0  0  0  0  0  0  0  0  0  0
    1.0767    4.4308    9.8549 C   0  0  0  0  0  0  0  0  0  0  0  0
    1.1692    3.7691   11.2600 C   0  0  0  0  0  0  0  0  0  0  0  0
    0.2500    3.6555    8.8451 C   0  0  0  0  0  0  0  0  0  0  0  0
    0.2703    4.1191    7.9818 H   0  0  0  0  0  0  0  0  0  0  0  0
   -0.6757    3.5923    9.1602 H   0  0  0  0  0  0  0  0  0  0  0  0
    0.6220    2.7549    8.7409 H   0  0  0  0  0  0  0  0  0  0  0  0
    0.6367    5.8832    9.9268 C   0  0  0  0  0  0  0  0  0  0  0  0
    1.1829    6.3581   10.5876 H   0  0  0  0  0  0  0  0  0  0  0  0
   -0.3063    5.9266   10.1910 H   0  0  0  0  0  0  0  0  0  0  0  0
    0.7490    6.3027    9.0482 H   0  0  0  0  0  0  0  0  0  0  0  0
    1.1827    2.2534   11.2090 C   0  0  0  0  0  0  0  0  0  0  0  0
    1.7844    1.9565   10.4949 H   0  0  0  0  0  0  0  0  0  0  0  0
    0.2771    1.9250   11.0315 H   0  0  0  0  0  0  0  0  0  0  0  0
    1.4961    1.9012   12.0681 H   0  0  0  0  0  0  0  0  0  0  0  0
    0.1459    4.2605   12.2587 C   0  0  0  0  0  0  0  0  0  0  0  0
    0.2516    3.7738   13.1025 H   0  0  0  0  0  0  0  0  0  0  0  0
   -0.7557    4.1082   11.9049 H   0  0  0  0  0  0  0  0  0  0  0  0
    0.2767    5.2191   12.4159 H   0  0  0  0  0  0  0  0  0  0  0  0
    5.6940    1.9645   12.6318 C   0  0  0  0  0  0  0  0  0  0  0  0
    4.6588    2.4456   13.4137 C   0  0  0  0  0  0  0  0  0  0  0  0
    4.0883    3.1238   13.0726 H   0  0  0  0  0  0  0  0  0  0  0  0
    4.4450    1.9477   14.6882 C   0  0  0  0  0  0  0  0  0  0  0  0
    3.7194    2.2717   15.2082 H   0  0  0  0  0  0  0  0  0  0  0  0
    5.2843    0.9829   15.2034 C   0  0  0  0  0  0  0  0  0  0  0  0
    5.1421    0.6511   16.0822 H   0  0  0  0  0  0  0  0  0  0  0  0
    6.3273    0.4992   14.4496 C   0  0  0  0  0  0  0  0  0  0  0  0
    6.9010   -0.1712   14.8028 H   0  0  0  0  0  0  0  0  0  0  0  0
    6.5378    0.9932   13.1720 C   0  0  0  0  0  0  0  0  0  0  0  0
    7.2664    0.6661   12.6571 H   0  0  0  0  0  0  0  0  0  0  0  0
    7.5161    2.0277   10.4025 C   0  0  0  0  0  0  0  0  0  0  0  0
    8.6486    2.3631   11.1747 C   0  0  0  0  0  0  0  0  0  0  0  0
    8.5355    2.8158   12.0021 H   0  0  0  0  0  0  0  0  0  0  0  0
    9.9265    2.0367   10.7365 C   0  0  0  0  0  0  0  0  0  0  0  0
   10.6808    2.2620   11.2692 H   0  0  0  0  0  0  0  0  0  0  0  0
   10.1080    1.3841    9.5224 C   0  0  0  0  0  0  0  0  0  0  0  0
   10.9816    1.1642    9.2213 H   0  0  0  0  0  0  0  0  0  0  0  0
    9.0111    1.0616    8.7635 C   0  0  0  0  0  0  0  0  0  0  0  0
    9.1306    0.6194    7.9313 H   0  0  0  0  0  0  0  0  0  0  0  0
    7.7334    1.3712    9.1936 C   0  0  0  0  0  0  0  0  0  0  0  0
    6.9898    1.1306    8.6539 H   0  0  0  0  0  0  0  0  0  0  0  0
    4.7743    1.4976    9.9603 C   0  0  0  0  0  0  0  0  0  0  0  0
    4.3968    0.2360   10.3845 C   0  0  0  0  0  0  0  0  0  0  0  0
    4.7262   -0.0997   11.2101 H   0  0  0  0  0  0  0  0  0  0  0  0
    3.5522   -0.5366    9.6241 C   0  0  0  0  0  0  0  0  0  0  0  0
    3.2979   -1.3982    9.9321 H   0  0  0  0  0  0  0  0  0  0  0  0
    3.0725   -0.0761    8.4292 C   0  0  0  0  0  0  0  0  0  0  0  0
    2.4920   -0.6186    7.9085 H   0  0  0  0  0  0  0  0  0  0  0  0
    3.4333    1.1764    7.9819 C   0  0  0  0  0  0  0  0  0  0  0  0
    3.1054    1.4949    7.1491 H   0  0  0  0  0  0  0  0  0  0  0  0
    4.2761    1.9748    8.7449 C   0  0  0  0  0  0  0  0  0  0  0  0
    4.5123    2.8430    8.4412 H   0  0  0  0  0  0  0  0  0  0  0  0
    7.2150    7.7948   11.1758 C   0  0  0  0  0  0  0  0  0  0  0  0
    6.9477    8.5907   10.0666 C   0  0  0  0  0  0  0  0  0  0  0  0
    6.8498    8.1828    9.2141 H   0  0  0  0  0  0  0  0  0  0  0  0
    6.8242    9.9541   10.1794 C   0  0  0  0  0  0  0  0  0  0  0  0
    6.6456   10.4784    9.4077 H   0  0  0  0  0  0  0  0  0  0  0  0
    6.9579   10.5629   11.4064 C   0  0  0  0  0  0  0  0  0  0  0  0
    6.8776   11.5063   11.4844 H   0  0  0  0  0  0  0  0  0  0  0  0
    7.2072    9.7967   12.5139 C   0  0  0  0  0  0  0  0  0  0  0  0
    7.2904   10.2134   13.3633 H   0  0  0  0  0  0  0  0  0  0  0  0
    7.3392    8.4217   12.4119 C   0  0  0  0  0  0  0  0  0  0  0  0
    7.5144    7.9045   13.1893 H   0  0  0  0  0  0  0  0  0  0  0  0
    8.5511    5.8380    9.6496 C   0  0  0  0  0  0  0  0  0  0  0  0
    9.6487    6.6855    9.5287 C   0  0  0  0  0  0  0  0  0  0  0  0
    9.7739    7.3847   10.1595 H   0  0  0  0  0  0  0  0  0  0  0  0
   10.5511    6.5230    8.5097 C   0  0  0  0  0  0  0  0  0  0  0  0
   11.2933    7.1115    8.4406 H   0  0  0  0  0  0  0  0  0  0  0  0
   10.3941    5.5194    7.5892 C   0  0  0  0  0  0  0  0  0  0  0  0
   11.0304    5.4088    6.8926 H   0  0  0  0  0  0  0  0  0  0  0  0
    9.3106    4.6694    7.6766 C   0  0  0  0  0  0  0  0  0  0  0  0
    9.1980    3.9725    7.0416 H   0  0  0  0  0  0  0  0  0  0  0  0
    8.3844    4.8397    8.6965 C   0  0  0  0  0  0  0  0  0  0  0  0
    7.6286    4.2671    8.7438 H   0  0  0  0  0  0  0  0  0  0  0  0
    8.1528    5.4472   12.5181 C   0  0  0  0  0  0  0  0  0  0  0  0
    7.3261    5.0409   13.5672 C   0  0  0  0  0  0  0  0  0  0  0  0
    6.3819    5.0762   13.4661 H   0  0  0  0  0  0  0  0  0  0  0  0
    7.8749    4.5894   14.7509 C   0  0  0  0  0  0  0  0  0  0  0  0
    7.3028    4.3294   15.4638 H   0  0  0  0  0  0  0  0  0  0  0  0
    9.2351    4.5095   14.9099 C   0  0  0  0  0  0  0  0  0  0  0  0
    9.6058    4.1801   15.7201 H   0  0  0  0  0  0  0  0  0  0  0  0
   10.0609    4.9158   13.8791 C   0  0  0  0  0  0  0  0  0  0  0  0
   11.0045    4.8727   13.9856 H   0  0  0  0  0  0  0  0  0  0  0  0
    9.5246    5.3827   12.6926 C   0  0  0  0  0  0  0  0  0  0  0  0
   10.1015    5.6615   11.9916 H   0  0  0  0  0  0  0  0  0  0  0  0
    4.2953    6.6623   10.4151 B   0  0  0  0  0  0  0  0  0  0  0  0
    3.2681    4.4656   10.5729 B   0  0  0  0  0  0  0  0  0  0  0  0
  1  2  1  0  0  0  0
  2 40  1  0  0  0  0
  3  1  1  0  0  0  0
  4 22  1  0  0  0  0
  5 23  1  0  0  0  0
  6  8  1  0  0  0  0
  7 11  1  0  0  0  0
  8  9  1  0  0  0  0
 10  8  1  0  0  0  0
 11  8  1  0  0  0  0
 12 11  1  0  0  0  0
 13 11  1  0  0  0  0
 14  6  1  0  0  0  0
 15 14  1  0  0  0  0
 16 14  1  0  0  0  0
 17 14  1  0  0  0  0
 18  7  1  0  0  0  0
 19 18  1  0  0  0  0
 20 18  1  0  0  0  0
 21 18  1  0  0  0  0
 22 23  1  0  0  0  0
 23 32  1  0  0  0  0
 24 22  1  0  0  0  0
 25 24  1  0  0  0  0
 26 24  1  0  0  0  0
 27 24  1  0  0  0  0
 28 22  1  0  0  0  0
 29 28  1  0  0  0  0
 30 28  1  0  0  0  0
 31 28  1  0  0  0  0
 32 33  1  0  0  0  0
 34 32  1  0  0  0  0
 35 32  1  0  0  0  0
 36 23  1  0  0  0  0
 37 36  1  0  0  0  0
 38 36  1  0  0  0  0
 39 36  1  0  0  0  0
 40 41  4  0  0  0  0
 41 42  1  0  0  0  0
 43 41  4  0  0  0  0
 44 43  1  0  0  0  0
 45 43  4  0  0  0  0
 46 45  1  0  0  0  0
 47 45  4  0  0  0  0
 48 47  1  0  0  0  0
 49 40  4  0  0  0  0
 50 49  1  0  0  0  0
 51  2  1  0  0  0  0
 52 51  4  0  0  0  0
 53 52  1  0  0  0  0
 54 52  4  0  0  0  0
 55 54  1  0  0  0  0
 56 54  4  0  0  0  0
 57 56  1  0  0  0  0
 58 56  4  0  0  0  0
 59 58  1  0  0  0  0
 60 51  4  0  0  0  0
 61 60  1  0  0  0  0
 62  2  1  0  0  0  0
 63 62  4  0  0  0  0
 64 63  1  0  0  0  0
 65 63  4  0  0  0  0
 66 65  1  0  0  0  0
 67 65  4  0  0  0  0
 68 67  1  0  0  0  0
 69 67  4  0  0  0  0
 70 69  1  0  0  0  0
 71 62  4  0  0  0  0
 72 71  1  0  0  0  0
 73  3  1  0  0  0  0
 74 73  4  0  0  0  0
 75 74  1  0  0  0  0
 76 74  4  0  0  0  0
 77 76  1  0  0  0  0
 78 76  4  0  0  0  0
 79 78  1  0  0  0  0
 80 78  4  0  0  0  0
 81 80  1  0  0  0  0
 82 73  4  0  0  0  0
 83 82  1  0  0  0  0
 84  3  1  0  0  0  0
 85 84  4  0  0  0  0
 86 85  1  0  0  0  0
 87 85  4  0  0  0  0
 88 87  1  0  0  0  0
 89 87  4  0  0  0  0
 90 89  1  0  0  0  0
 91 89  4  0  0  0  0
 92 91  1  0  0  0  0
 93 84  4  0  0  0  0
 94 93  1  0  0  0  0
 95  3  1  0  0  0  0
 96 95  4  0  0  0  0
 97 96  1  0  0  0  0
 98 96  4  0  0  0  0
 99 98  1  0  0  0  0
100 98  4  0  0  0  0
101100  1  0  0  0  0
102100  4  0  0  0  0
103102  1  0  0  0  0
104 95  4  0  0  0  0
105104  1  0  0  0  0
106  1  1  0  0  0  0
107  1  1  0  0  0  0
  4107  1  0  0  0  0
  5107  1  0  0  0  0
  6106  1  0  0  0  0
  7106  1  0  0  0  0
 47 49  4  0  0  0  0
 58 60  4  0  0  0  0
 69 71  4  0  0  0  0
 80 82  4  0  0  0  0
 91 93  4  0  0  0  0
102104  4  0  0  0  0
M  END
$$$$
GIZHEF

From CSD data. Using bond type 'Any'. No disordered atoms. Largest molecule.
108115  0  0  0  0  0  0  0  0999 V2000
   11.5843    3.7140   12.8876 C   0  0  0  0  0  0  0  0  0  0  0  0
   10.6445    2.7296   12.1365 C   0  0  0  0  0  0  0  0  0  0  0  0
   11.7492    3.3892   14.3680 C   0  0  0  0  0  0  0  0  0  0  0  0
   12.2043    4.1318   14.8169 H   0  0  0  0  0  0  0  0  0  0  0  0
   12.2825    2.5724   14.4656 H   0  0  0  0  0  0  0  0  0  0  0  0
   10.8673    3.2534   14.7731 H   0  0  0  0  0  0  0  0  0  0  0  0
   12.9430    3.9462   12.2471 C   0  0  0  0  0  0  0  0  0  0  0  0
   12.8209    4.2721   11.3309 H   0  0  0  0  0  0  0  0  0  0  0  0
   13.4446    3.1047   12.2305 H   0  0  0  0  0  0  0  0  0  0  0  0
   13.4398    4.6124   12.7670 H   0  0  0  0  0  0  0  0  0  0  0  0
   10.6641    1.3035   12.6501 C   0  0  0  0  0  0  0  0  0  0  0  0
   10.4371    1.2959   13.6032 H   0  0  0  0  0  0  0  0  0  0  0  0
   11.5595    0.9235   12.5250 H   0  0  0  0  0  0  0  0  0  0  0  0
   10.0106    0.7678   12.1540 H   0  0  0  0  0  0  0  0  0  0  0  0
   10.8401    2.7567   10.6266 C   0  0  0  0  0  0  0  0  0  0  0  0
   10.1057    2.2733   10.1932 H   0  0  0  0  0  0  0  0  0  0  0  0
   11.6917    2.3282   10.3997 H   0  0  0  0  0  0  0  0  0  0  0  0
   10.8484    3.6856   10.3152 H   0  0  0  0  0  0  0  0  0  0  0  0
    8.2658    4.1400   16.6835 C   0  0  0  0  0  0  0  0  0  0  0  0
    7.8617    4.7766   17.3256 H   0  0  0  0  0  0  0  0  0  0  0  0
    9.0847    3.7706   17.0990 H   0  0  0  0  0  0  0  0  0  0  0  0
    7.2869    3.0088   16.4260 C   0  0  0  0  0  0  0  0  0  0  0  0
    6.1295    3.5844   15.6344 C   0  0  0  0  0  0  0  0  0  0  0  0
    5.5252    2.8472   15.3674 H   0  0  0  0  0  0  0  0  0  0  0  0
    5.6166    4.1988   16.2171 H   0  0  0  0  0  0  0  0  0  0  0  0
    7.9524    1.8805   15.6387 C   0  0  0  0  0  0  0  0  0  0  0  0
    7.2994    1.1685   15.4725 H   0  0  0  0  0  0  0  0  0  0  0  0
    8.7034    1.5201   16.1554 H   0  0  0  0  0  0  0  0  0  0  0  0
    8.2812    2.2281   14.7837 H   0  0  0  0  0  0  0  0  0  0  0  0
    6.7387    2.4931   17.7586 C   0  0  0  0  0  0  0  0  0  0  0  0
    6.4260    3.2503   18.2973 H   0  0  0  0  0  0  0  0  0  0  0  0
    7.4470    2.0192   18.2417 H   0  0  0  0  0  0  0  0  0  0  0  0
    5.9919    1.8819   17.5900 H   0  0  0  0  0  0  0  0  0  0  0  0
    7.6696    8.5334   10.0289 C   0  0  0  0  0  0  0  0  0  0  0  0
    6.2740    8.6176    9.9817 C   0  0  0  0  0  0  0  0  0  0  0  0
    5.7463    7.8612   10.2087 H   0  0  0  0  0  0  0  0  0  0  0  0
    5.6589    9.7986    9.6053 C   0  0  0  0  0  0  0  0  0  0  0  0
    4.7105    9.8470    9.5742 H   0  0  0  0  0  0  0  0  0  0  0  0
    6.4117   10.9084    9.2751 C   0  0  0  0  0  0  0  0  0  0  0  0
    5.9838   11.7139    9.0086 H   0  0  0  0  0  0  0  0  0  0  0  0
    7.7920   10.8414    9.3339 C   0  0  0  0  0  0  0  0  0  0  0  0
    8.3143   11.6058    9.1182 H   0  0  0  0  0  0  0  0  0  0  0  0
    8.4164    9.6543    9.7103 C   0  0  0  0  0  0  0  0  0  0  0  0
    9.3649    9.6135    9.7482 H   0  0  0  0  0  0  0  0  0  0  0  0
    7.7264    5.8195    9.3548 C   0  0  0  0  0  0  0  0  0  0  0  0
    7.4881    4.4933    9.7116 C   0  0  0  0  0  0  0  0  0  0  0  0
    7.7133    4.1929   10.5840 H   0  0  0  0  0  0  0  0  0  0  0  0
    6.9232    3.6086    8.8004 C   0  0  0  0  0  0  0  0  0  0  0  0
    6.7754    2.7035    9.0508 H   0  0  0  0  0  0  0  0  0  0  0  0
    6.5767    4.0331    7.5366 C   0  0  0  0  0  0  0  0  0  0  0  0
    6.1737    3.4294    6.9239 H   0  0  0  0  0  0  0  0  0  0  0  0
    6.8169    5.3395    7.1649 C   0  0  0  0  0  0  0  0  0  0  0  0
    6.5894    5.6313    6.2898 H   0  0  0  0  0  0  0  0  0  0  0  0
    7.3887    6.2299    8.0609 C   0  0  0  0  0  0  0  0  0  0  0  0
    7.5525    7.1271    7.7939 H   0  0  0  0  0  0  0  0  0  0  0  0
   10.1814    7.1818   10.1465 C   0  0  0  0  0  0  0  0  0  0  0  0
   11.0791    7.4579   11.1714 C   0  0  0  0  0  0  0  0  0  0  0  0
   10.7695    7.5115   12.0681 H   0  0  0  0  0  0  0  0  0  0  0  0
   12.4284    7.6574   10.8937 C   0  0  0  0  0  0  0  0  0  0  0  0
   13.0323    7.8513   11.6007 H   0  0  0  0  0  0  0  0  0  0  0  0
   12.8942    7.5748    9.5970 C   0  0  0  0  0  0  0  0  0  0  0  0
   13.8161    7.7090    9.4108 H   0  0  0  0  0  0  0  0  0  0  0  0
   12.0078    7.2950    8.5682 C   0  0  0  0  0  0  0  0  0  0  0  0
   12.3232    7.2338    7.6743 H   0  0  0  0  0  0  0  0  0  0  0  0
   10.6587    7.1036    8.8422 C   0  0  0  0  0  0  0  0  0  0  0  0
   10.0563    6.9176    8.1315 H   0  0  0  0  0  0  0  0  0  0  0  0
    6.1876    7.4337   15.4769 C   0  0  0  0  0  0  0  0  0  0  0  0
    7.1918    7.5833   16.4343 C   0  0  0  0  0  0  0  0  0  0  0  0
    8.0648    7.8401   16.1622 H   0  0  0  0  0  0  0  0  0  0  0  0
    6.9325    7.3611   17.7695 C   0  0  0  0  0  0  0  0  0  0  0  0
    7.6211    7.4762   18.4137 H   0  0  0  0  0  0  0  0  0  0  0  0
    5.6683    6.9707   18.1688 C   0  0  0  0  0  0  0  0  0  0  0  0
    5.4868    6.8220   19.0894 H   0  0  0  0  0  0  0  0  0  0  0  0
    4.6707    6.7955   17.2343 C   0  0  0  0  0  0  0  0  0  0  0  0
    3.8080    6.5086   17.5093 H   0  0  0  0  0  0  0  0  0  0  0  0
    4.9256    7.0405   15.8872 C   0  0  0  0  0  0  0  0  0  0  0  0
    4.2308    6.9366   15.2476 H   0  0  0  0  0  0  0  0  0  0  0  0
    4.9802    7.7756   12.9182 C   0  0  0  0  0  0  0  0  0  0  0  0
    4.4966    6.5547   12.4421 C   0  0  0  0  0  0  0  0  0  0  0  0
    5.0270    5.7711   12.5236 H   0  0  0  0  0  0  0  0  0  0  0  0
    3.2466    6.4849   11.8518 C   0  0  0  0  0  0  0  0  0  0  0  0
    2.9240    5.6545   11.5210 H   0  0  0  0  0  0  0  0  0  0  0  0
    2.4663    7.6232   11.7431 C   0  0  0  0  0  0  0  0  0  0  0  0
    1.6054    7.5694   11.3448 H   0  0  0  0  0  0  0  0  0  0  0  0
    2.9343    8.8384   12.2122 C   0  0  0  0  0  0  0  0  0  0  0  0
    2.3962    9.6173   12.1358 H   0  0  0  0  0  0  0  0  0  0  0  0
    4.1936    8.9153   12.7946 C   0  0  0  0  0  0  0  0  0  0  0  0
    4.5185    9.7501   13.1100 H   0  0  0  0  0  0  0  0  0  0  0  0
    7.1796    9.4752   13.8228 C   0  0  0  0  0  0  0  0  0  0  0  0
    8.2702    9.8884   13.0820 C   0  0  0  0  0  0  0  0  0  0  0  0
    8.7528    9.2568   12.5621 H   0  0  0  0  0  0  0  0  0  0  0  0
    8.6699   11.2275   13.0899 C   0  0  0  0  0  0  0  0  0  0  0  0
    9.3855   11.5123   12.5336 H   0  0  0  0  0  0  0  0  0  0  0  0
    8.0294   12.1350   13.9012 C   0  0  0  0  0  0  0  0  0  0  0  0
    8.3020   13.0459   13.9073 H   0  0  0  0  0  0  0  0  0  0  0  0
    6.9893   11.7162   14.7082 C   0  0  0  0  0  0  0  0  0  0  0  0
    6.5621   12.3346   15.2889 H   0  0  0  0  0  0  0  0  0  0  0  0
    6.5674   10.4012   14.6729 C   0  0  0  0  0  0  0  0  0  0  0  0
    5.8527   10.1229   15.2334 H   0  0  0  0  0  0  0  0  0  0  0  0
    7.7499    4.9620   14.4411 B   0  0  0  0  0  0  0  0  0  0  0  0
    9.4925    4.6671   12.6275 B   0  0  0  0  0  0  0  0  0  0  0  0
   10.8343    4.9581   12.8026 O   0  0  0  0  0  0  0  0  0  0  0  0
    9.3239    3.3041   12.3810 O   0  0  0  0  0  0  0  0  0  0  0  0
    8.6276    4.8502   15.4862 O   0  0  0  0  0  0  0  0  0  0  0  0
    6.5418    4.2953   14.4593 O   0  0  0  0  0  0  0  0  0  0  0  0
    8.4193    6.9622   10.6050 P   0  0  0  0  0  0  0  0  0  0  0  0
    6.6266    7.7340   13.7208 P   0  0  0  0  0  0  0  0  0  0  0  0
    8.0816    6.1756   12.7800 Pt  0  0  0  0  0  0  0  0  0  0  0  0
  1  2  1  0  0  0  0
  2 11  1  0  0  0  0
  3  1  1  0  0  0  0
  4  3  1  0  0  0  0
  5  3  1  0  0  0  0
  6  3  1  0  0  0  0
  7  1  1  0  0  0  0
  8  7  1  0  0  0  0
  9  7  1  0  0  0  0
 10  7  1  0  0  0  0
 11 12  1  0  0  0  0
 13 11  1  0  0  0  0
 14 11  1  0  0  0  0
 15  2  1  0  0  0  0
 16 15  1  0  0  0  0
 17 15  1  0  0  0  0
 18 15  1  0  0  0  0
 19 20  1  0  0  0  0
 21 19  1  0  0  0  0
 22 19  1  0  0  0  0
 23 22  1  0  0  0  0
 24 23  1  0  0  0  0
 25 23  1  0  0  0  0
 26 22  1  0  0  0  0
 27 26  1  0  0  0  0
 28 26  1  0  0  0  0
 29 26  1  0  0  0  0
 30 22  1  0  0  0  0
 31 30  1  0  0  0  0
 32 30  1  0  0  0  0
 33 30  1  0  0  0  0
 34 35  4  0  0  0  0
 35 36  1  0  0  0  0
 37 35  4  0  0  0  0
 38 37  1  0  0  0  0
 39 37  4  0  0  0  0
 40 39  1  0  0  0  0
 41 39  4  0  0  0  0
 42 41  1  0  0  0  0
 43 34  4  0  0  0  0
 44 43  1  0  0  0  0
 45 46  4  0  0  0  0
 46 47  1  0  0  0  0
 48 46  4  0  0  0  0
 49 48  1  0  0  0  0
 50 48  4  0  0  0  0
 51 50  1  0  0  0  0
 52 50  4  0  0  0  0
 53 52  1  0  0  0  0
 54 45  4  0  0  0  0
 55 54  1  0  0  0  0
 56 57  4  0  0  0  0
 57 58  1  0  0  0  0
 59 57  4  0  0  0  0
 60 59  1  0  0  0  0
 61 59  4  0  0  0  0
 62 61  1  0  0  0  0
 63 61  4  0  0  0  0
 64 63  1  0  0  0  0
 65 56  4  0  0  0  0
 66 65  1  0  0  0  0
 67 68  4  0  0  0  0
 68 69  1  0  0  0  0
 70 68  4  0  0  0  0
 71 70  1  0  0  0  0
 72 70  4  0  0  0  0
 73 72  1  0  0  0  0
 74 72  4  0  0  0  0
 75 74  1  0  0  0  0
 76 67  4  0  0  0  0
 77 76  1  0  0  0  0
 78 79  4  0  0  0  0
 79 80  1  0  0  0  0
 81 79  4  0  0  0  0
 82 81  1  0  0  0  0
 83 81  4  0  0  0  0
 84 83  1  0  0  0  0
 85 83  4  0  0  0  0
 86 85  1  0  0  0  0
 87 78  4  0  0  0  0
 88 87  1  0  0  0  0
 89 90  4  0  0  0  0
 90 91  1  0  0  0  0
 92 90  4  0  0  0  0
 93 92  1  0  0  0  0
 94 92  4  0  0  0  0
 95 94  1  0  0  0  0
 96 94  4  0  0  0  0
 97 96  1  0  0  0  0
 98 89  4  0  0  0  0
 99 98  1  0  0  0  0
100104  1  0  0  0  0
101102  1  0  0  0  0
102  1  1  0  0  0  0
103  2  1  0  0  0  0
104 19  1  0  0  0  0
105 23  1  0  0  0  0
106 34  1  0  0  0  0
107 67  1  0  0  0  0
108100  1  0  0  0  0
 41 43  4  0  0  0  0
 45106  1  0  0  0  0
 52 54  4  0  0  0  0
 56106  1  0  0  0  0
 63 65  4  0  0  0  0
 74 76  4  0  0  0  0
 78107  1  0  0  0  0
 85 87  4  0  0  0  0
 89107  1  0  0  0  0
 96 98  4  0  0  0  0
100105  1  0  0  0  0
101103  1  0  0  0  0
101108  1  0  0  0  0
106108  1  0  0  0  0
107108  1  0  0  0  0
M  END
$$$$
GIZHIJ

From CSD data. Using bond type 'Any'. No disordered atoms. Largest molecule.
105112  0  0  0  0  0  0  0  0999 V2000
    7.7124   10.4270    4.4104 C   0  0  0  0  0  0  0  0  0  0  0  0
    8.5623   10.4624    3.9037 H   0  0  0  0  0  0  0  0  0  0  0  0
    7.9358   10.4375    5.3752 H   0  0  0  0  0  0  0  0  0  0  0  0
    6.8870   11.6590    4.0799 C   0  0  0  0  0  0  0  0  0  0  0  0
    5.5223   11.4631    4.7031 C   0  0  0  0  0  0  0  0  0  0  0  0
    5.6145   11.4565    5.6886 H   0  0  0  0  0  0  0  0  0  0  0  0
    4.9423   12.2282    4.4587 H   0  0  0  0  0  0  0  0  0  0  0  0
    7.5467   12.8888    4.7233 C   0  0  0  0  0  0  0  0  0  0  0  0
    7.6464   12.7400    5.6866 H   0  0  0  0  0  0  0  0  0  0  0  0
    6.9845   13.6780    4.5716 H   0  0  0  0  0  0  0  0  0  0  0  0
    8.4284   13.0346    4.3218 H   0  0  0  0  0  0  0  0  0  0  0  0
    6.7863   11.8535    2.5685 C   0  0  0  0  0  0  0  0  0  0  0  0
    7.6833   11.9851    2.1955 H   0  0  0  0  0  0  0  0  0  0  0  0
    6.2346   12.6405    2.3759 H   0  0  0  0  0  0  0  0  0  0  0  0
    6.3773   11.0607    2.1634 H   0  0  0  0  0  0  0  0  0  0  0  0
    4.6449    9.6622   -0.0404 C   0  0  0  0  0  0  0  0  0  0  0  0
    4.5807    9.0212   -0.7920 H   0  0  0  0  0  0  0  0  0  0  0  0
    5.2872   10.3695   -0.2997 H   0  0  0  0  0  0  0  0  0  0  0  0
    3.2799   10.2915    0.1943 C   0  0  0  0  0  0  0  0  0  0  0  0
    2.3629    9.1980    0.7241 C   0  0  0  0  0  0  0  0  0  0  0  0
    1.4968    9.6012    0.9852 H   0  0  0  0  0  0  0  0  0  0  0  0
    2.1871    8.5450    0.0014 H   0  0  0  0  0  0  0  0  0  0  0  0
    3.3672   11.4353    1.2111 C   0  0  0  0  0  0  0  0  0  0  0  0
    3.6428   11.0777    2.0813 H   0  0  0  0  0  0  0  0  0  0  0  0
    2.4904   11.8635    1.2968 H   0  0  0  0  0  0  0  0  0  0  0  0
    4.0250   12.0941    0.9058 H   0  0  0  0  0  0  0  0  0  0  0  0
    2.7335   10.8159   -1.1354 C   0  0  0  0  0  0  0  0  0  0  0  0
    3.3301   11.5102   -1.4836 H   0  0  0  0  0  0  0  0  0  0  0  0
    1.8395   11.1924   -0.9955 H   0  0  0  0  0  0  0  0  0  0  0  0
    2.6793   10.0784   -1.7796 H   0  0  0  0  0  0  0  0  0  0  0  0
    3.7880    5.6835    0.6812 C   0  0  0  0  0  0  0  0  0  0  0  0
    4.8859    6.0195   -0.1148 C   0  0  0  0  0  0  0  0  0  0  0  0
    5.7502    6.0613    0.2776 H   0  0  0  0  0  0  0  0  0  0  0  0
    4.7383    6.2908   -1.4647 C   0  0  0  0  0  0  0  0  0  0  0  0
    5.4958    6.5069   -1.9955 H   0  0  0  0  0  0  0  0  0  0  0  0
    3.4867    6.2484   -2.0273 C   0  0  0  0  0  0  0  0  0  0  0  0
    3.3797    6.4365   -2.9516 H   0  0  0  0  0  0  0  0  0  0  0  0
    2.3807    5.9327   -1.2552 C   0  0  0  0  0  0  0  0  0  0  0  0
    1.5174    5.9080   -1.6520 H   0  0  0  0  0  0  0  0  0  0  0  0
    2.5296    5.6525    0.0870 C   0  0  0  0  0  0  0  0  0  0  0  0
    1.7675    5.4362    0.6111 H   0  0  0  0  0  0  0  0  0  0  0  0
    2.4561    4.7537    3.0012 C   0  0  0  0  0  0  0  0  0  0  0  0
    1.5948    5.6610    3.6232 C   0  0  0  0  0  0  0  0  0  0  0  0
    1.8613    6.5675    3.7262 H   0  0  0  0  0  0  0  0  0  0  0  0
    0.3585    5.2537    4.0900 C   0  0  0  0  0  0  0  0  0  0  0  0
   -0.2204    5.8786    4.5094 H   0  0  0  0  0  0  0  0  0  0  0  0
   -0.0366    3.9337    3.9461 C   0  0  0  0  0  0  0  0  0  0  0  0
   -0.8840    3.6531    4.2699 H   0  0  0  0  0  0  0  0  0  0  0  0
    0.7986    3.0340    3.3355 C   0  0  0  0  0  0  0  0  0  0  0  0
    0.5264    2.1291    3.2332 H   0  0  0  0  0  0  0  0  0  0  0  0
    2.0445    3.4411    2.8650 C   0  0  0  0  0  0  0  0  0  0  0  0
    2.6171    2.8105    2.4449 H   0  0  0  0  0  0  0  0  0  0  0  0
    5.1386    3.8581    2.3276 C   0  0  0  0  0  0  0  0  0  0  0  0
    5.0669    2.9725    1.2565 C   0  0  0  0  0  0  0  0  0  0  0  0
    4.4405    3.1305    0.5589 H   0  0  0  0  0  0  0  0  0  0  0  0
    5.8939    1.8589    1.1909 C   0  0  0  0  0  0  0  0  0  0  0  0
    5.8315    1.2621    0.4554 H   0  0  0  0  0  0  0  0  0  0  0  0
    6.8167    1.6217    2.2052 C   0  0  0  0  0  0  0  0  0  0  0  0
    7.3932    0.8672    2.1607 H   0  0  0  0  0  0  0  0  0  0  0  0
    6.8859    2.4845    3.2699 C   0  0  0  0  0  0  0  0  0  0  0  0
    7.5112    2.3233    3.9676 H   0  0  0  0  0  0  0  0  0  0  0  0
    6.0524    3.5909    3.3355 C   0  0  0  0  0  0  0  0  0  0  0  0
    6.1077    4.1749    4.0835 H   0  0  0  0  0  0  0  0  0  0  0  0
    4.3209    5.7393    6.9032 C   0  0  0  0  0  0  0  0  0  0  0  0
    3.4740    4.8009    6.3279 C   0  0  0  0  0  0  0  0  0  0  0  0
    3.5521    4.6063    5.4018 H   0  0  0  0  0  0  0  0  0  0  0  0
    2.5121    4.1438    7.0887 C   0  0  0  0  0  0  0  0  0  0  0  0
    1.9305    3.5164    6.6755 H   0  0  0  0  0  0  0  0  0  0  0  0
    2.3992    4.3960    8.4310 C   0  0  0  0  0  0  0  0  0  0  0  0
    1.7316    3.9584    8.9466 H   0  0  0  0  0  0  0  0  0  0  0  0
    3.2654    5.2920    9.0289 C   0  0  0  0  0  0  0  0  0  0  0  0
    3.2076    5.4472    9.9640 H   0  0  0  0  0  0  0  0  0  0  0  0
    4.2160    5.9630    8.2808 C   0  0  0  0  0  0  0  0  0  0  0  0
    4.7999    6.5814    8.7048 H   0  0  0  0  0  0  0  0  0  0  0  0
    7.0619    5.7557    5.9987 C   0  0  0  0  0  0  0  0  0  0  0  0
    7.3320    4.8863    7.0571 C   0  0  0  0  0  0  0  0  0  0  0  0
    6.6724    4.7301    7.7229 H   0  0  0  0  0  0  0  0  0  0  0  0
    8.5684    4.2495    7.1391 C   0  0  0  0  0  0  0  0  0  0  0  0
    8.7459    3.6549    7.8575 H   0  0  0  0  0  0  0  0  0  0  0  0
    9.5404    4.4785    6.1778 C   0  0  0  0  0  0  0  0  0  0  0  0
   10.3846    4.0482    6.2403 H   0  0  0  0  0  0  0  0  0  0  0  0
    9.2730    5.3312    5.1345 C   0  0  0  0  0  0  0  0  0  0  0  0
    9.9365    5.4853    4.4723 H   0  0  0  0  0  0  0  0  0  0  0  0
    8.0398    5.9707    5.0349 C   0  0  0  0  0  0  0  0  0  0  0  0
    7.8673    6.5569    4.3077 H   0  0  0  0  0  0  0  0  0  0  0  0
    5.7834    8.1360    6.8805 C   0  0  0  0  0  0  0  0  0  0  0  0
    7.0341    8.4945    7.3687 C   0  0  0  0  0  0  0  0  0  0  0  0
    7.7924    7.9625    7.1558 H   0  0  0  0  0  0  0  0  0  0  0  0
    7.1850    9.6278    8.1686 C   0  0  0  0  0  0  0  0  0  0  0  0
    8.0455    9.8760    8.4849 H   0  0  0  0  0  0  0  0  0  0  0  0
    6.0777   10.3923    8.5003 C   0  0  0  0  0  0  0  0  0  0  0  0
    6.1772   11.1542    9.0589 H   0  0  0  0  0  0  0  0  0  0  0  0
    4.8304   10.0479    8.0184 C   0  0  0  0  0  0  0  0  0  0  0  0
    4.0718   10.5735    8.2436 H   0  0  0  0  0  0  0  0  0  0  0  0
    4.6825    8.9319    7.2047 C   0  0  0  0  0  0  0  0  0  0  0  0
    3.8244    8.7063    6.8647 H   0  0  0  0  0  0  0  0  0  0  0  0
    5.6616    9.1242    4.0471 B   0  0  0  0  0  0  0  0  0  0  0  0
    4.2860    8.3793    2.0134 B   0  0  0  0  0  0  0  0  0  0  0  0
    7.0368    9.1993    4.1026 O   0  0  0  0  0  0  0  0  0  0  0  0
    4.8868   10.2345    4.2788 O   0  0  0  0  0  0  0  0  0  0  0  0
    5.1454    8.9803    1.1098 O   0  0  0  0  0  0  0  0  0  0  0  0
    2.9154    8.5125    1.8482 O   0  0  0  0  0  0  0  0  0  0  0  0
    4.0895    5.3669    2.4567 P   0  0  0  0  0  0  0  0  0  0  0  0
    5.4873    6.6674    5.8323 P   0  0  0  0  0  0  0  0  0  0  0  0
    4.8818    7.2346    3.6389 Pt  0  0  0  0  0  0  0  0  0  0  0  0
  1  2  1  0  0  0  0
  3  1  1  0  0  0  0
  4  1  1  0  0  0  0
  5  4  1  0  0  0  0
  6  5  1  0  0  0  0
  7  5  1  0  0  0  0
  8  4  1  0  0  0  0
  9  8  1  0  0  0  0
 10  8  1  0  0  0  0
 11  8  1  0  0  0  0
 12  4  1  0  0  0  0
 13 12  1  0  0  0  0
 14 12  1  0  0  0  0
 15 12  1  0  0  0  0
 16 17  1  0  0  0  0
 18 16  1  0  0  0  0
 19 16  1  0  0  0  0
 20 19  1  0  0  0  0
 21 20  1  0  0  0  0
 22 20  1  0  0  0  0
 23 19  1  0  0  0  0
 24 23  1  0  0  0  0
 25 23  1  0  0  0  0
 26 23  1  0  0  0  0
 27 19  1  0  0  0  0
 28 27  1  0  0  0  0
 29 27  1  0  0  0  0
 30 27  1  0  0  0  0
 31 32  4  0  0  0  0
 32 33  1  0  0  0  0
 34 32  4  0  0  0  0
 35 34  1  0  0  0  0
 36 34  4  0  0  0  0
 37 36  1  0  0  0  0
 38 36  4  0  0  0  0
 39 38  1  0  0  0  0
 40 31  4  0  0  0  0
 41 40  1  0  0  0  0
 42 43  4  0  0  0  0
 43 44  1  0  0  0  0
 45 43  4  0  0  0  0
 46 45  1  0  0  0  0
 47 45  4  0  0  0  0
 48 47  1  0  0  0  0
 49 47  4  0  0  0  0
 50 49  1  0  0  0  0
 51 42  4  0  0  0  0
 52 51  1  0  0  0  0
 53 54  4  0  0  0  0
 54 55  1  0  0  0  0
 56 54  4  0  0  0  0
 57 56  1  0  0  0  0
 58 56  4  0  0  0  0
 59 58  1  0  0  0  0
 60 58  4  0  0  0  0
 61 60  1  0  0  0  0
 62 53  4  0  0  0  0
 63 62  1  0  0  0  0
 64 65  4  0  0  0  0
 65 66  1  0  0  0  0
 67 65  4  0  0  0  0
 68 67  1  0  0  0  0
 69 67  4  0  0  0  0
 70 69  1  0  0  0  0
 71 69  4  0  0  0  0
 72 71  1  0  0  0  0
 73 64  4  0  0  0  0
 74 73  1  0  0  0  0
 75 76  4  0  0  0  0
 76 77  1  0  0  0  0
 78 76  4  0  0  0  0
 79 78  1  0  0  0  0
 80 78  4  0  0  0  0
 81 80  1  0  0  0  0
 82 80  4  0  0  0  0
 83 82  1  0  0  0  0
 84 75  4  0  0  0  0
 85 84  1  0  0  0  0
 86 87  4  0  0  0  0
 87 88  1  0  0  0  0
 89 87  4  0  0  0  0
 90 89  1  0  0  0  0
 91 89  4  0  0  0  0
 92 91  1  0  0  0  0
 93 91  4  0  0  0  0
 94 93  1  0  0  0  0
 95 86  4  0  0  0  0
 96 95  1  0  0  0  0
 97 99  1  0  0  0  0
 98101  1  0  0  0  0
 99  1  1  0  0  0  0
100  5  1  0  0  0  0
101 16  1  0  0  0  0
102 20  1  0  0  0  0
103 31  1  0  0  0  0
104 64  1  0  0  0  0
105 97  1  0  0  0  0
 38 40  4  0  0  0  0
 42103  1  0  0  0  0
 49 51  4  0  0  0  0
 53103  1  0  0  0  0
 60 62  4  0  0  0  0
 71 73  4  0  0  0  0
 75104  1  0  0  0  0
 82 84  4  0  0  0  0
 86104  1  0  0  0  0
 93 95  4  0  0  0  0
 97100  1  0  0  0  0
 98102  1  0  0  0  0
 98105  1  0  0  0  0
103105  1  0  0  0  0
104105  1  0  0  0  0
M  END
$$$$
GIZHOP

From CSD data. Using bond type 'Any'. No disordered atoms. Largest molecule.
103112  0  0  0  0  0  0  0  0999 V2000
    8.0717   10.7461    9.2909 C   0  0  0  0  0  0  0  0  0  0  0  0
    8.2763   10.8428   10.6838 C   0  0  0  0  0  0  0  0  0  0  0  0
    8.0170   12.0275   11.3564 C   0  0  0  0  0  0  0  0  0  0  0  0
    8.1648   12.1002   12.2921 H   0  0  0  0  0  0  0  0  0  0  0  0
    7.5312   13.1131   10.6184 C   0  0  0  0  0  0  0  0  0  0  0  0
    7.3457   13.9332   11.0605 H   0  0  0  0  0  0  0  0  0  0  0  0
    7.3163   13.0105    9.2503 C   0  0  0  0  0  0  0  0  0  0  0  0
    6.9813   13.7600    8.7723 H   0  0  0  0  0  0  0  0  0  0  0  0
    7.5850   11.8213    8.5651 C   0  0  0  0  0  0  0  0  0  0  0  0
    7.4379   11.7528    7.6291 H   0  0  0  0  0  0  0  0  0  0  0  0
    8.2842    9.0409    7.5169 C   0  0  0  0  0  0  0  0  0  0  0  0
    7.3364    9.0222    7.2684 H   0  0  0  0  0  0  0  0  0  0  0  0
    8.6668    8.1446    7.4134 H   0  0  0  0  0  0  0  0  0  0  0  0
    8.7619    9.6690    6.9358 H   0  0  0  0  0  0  0  0  0  0  0  0
    8.9056    9.3728   12.5596 C   0  0  0  0  0  0  0  0  0  0  0  0
    9.5645   10.0050   12.9151 H   0  0  0  0  0  0  0  0  0  0  0  0
    9.2250    8.4565   12.6966 H   0  0  0  0  0  0  0  0  0  0  0  0
    8.0519    9.4942   13.0254 H   0  0  0  0  0  0  0  0  0  0  0  0
   13.0280    8.3089    9.8285 C   0  0  0  0  0  0  0  0  0  0  0  0
   12.8064    8.2171   11.1883 C   0  0  0  0  0  0  0  0  0  0  0  0
   13.7907    8.4874   12.1099 C   0  0  0  0  0  0  0  0  0  0  0  0
   13.6291    8.4293   13.0442 H   0  0  0  0  0  0  0  0  0  0  0  0
   15.0375    8.8509   11.6038 C   0  0  0  0  0  0  0  0  0  0  0  0
   15.7485    9.0324   12.2070 H   0  0  0  0  0  0  0  0  0  0  0  0
   15.2629    8.9533   10.2425 C   0  0  0  0  0  0  0  0  0  0  0  0
   16.1247    9.2041    9.9312 H   0  0  0  0  0  0  0  0  0  0  0  0
   14.2483    8.6954    9.3157 C   0  0  0  0  0  0  0  0  0  0  0  0
   14.3922    8.7820    8.3806 H   0  0  0  0  0  0  0  0  0  0  0  0
   10.5400    4.3731    7.7467 C   0  0  0  0  0  0  0  0  0  0  0  0
   10.8347    3.1112    7.2148 C   0  0  0  0  0  0  0  0  0  0  0  0
   10.8633    2.3520    7.7851 H   0  0  0  0  0  0  0  0  0  0  0  0
   11.0850    2.9662    5.8570 C   0  0  0  0  0  0  0  0  0  0  0  0
   11.2844    2.1079    5.5018 H   0  0  0  0  0  0  0  0  0  0  0  0
   11.0451    4.0690    5.0164 C   0  0  0  0  0  0  0  0  0  0  0  0
   11.2254    3.9669    4.0893 H   0  0  0  0  0  0  0  0  0  0  0  0
   10.7421    5.3200    5.5303 C   0  0  0  0  0  0  0  0  0  0  0  0
   10.7020    6.0731    4.9526 H   0  0  0  0  0  0  0  0  0  0  0  0
   10.4958    5.4750    6.8949 C   0  0  0  0  0  0  0  0  0  0  0  0
   10.2972    6.3356    7.2448 H   0  0  0  0  0  0  0  0  0  0  0  0
   11.9674    4.6128   10.2263 C   0  0  0  0  0  0  0  0  0  0  0  0
   13.1038    4.6307    9.4226 C   0  0  0  0  0  0  0  0  0  0  0  0
   13.0176    4.5516    8.4799 H   0  0  0  0  0  0  0  0  0  0  0  0
   14.3696    4.7644    9.9960 C   0  0  0  0  0  0  0  0  0  0  0  0
   15.1388    4.7807    9.4386 H   0  0  0  0  0  0  0  0  0  0  0  0
   14.5153    4.8732   11.3642 C   0  0  0  0  0  0  0  0  0  0  0  0
   15.3800    4.9601   11.7477 H   0  0  0  0  0  0  0  0  0  0  0  0
   13.3913    4.8548   12.1746 C   0  0  0  0  0  0  0  0  0  0  0  0
   13.4858    4.9235   13.1174 H   0  0  0  0  0  0  0  0  0  0  0  0
   12.1263    4.7362   11.6115 C   0  0  0  0  0  0  0  0  0  0  0  0
   11.3604    4.7390   12.1734 H   0  0  0  0  0  0  0  0  0  0  0  0
    9.6018    2.9722   10.0136 C   0  0  0  0  0  0  0  0  0  0  0  0
    8.3644    2.6095    9.4709 C   0  0  0  0  0  0  0  0  0  0  0  0
    7.9299    3.1935    8.8605 H   0  0  0  0  0  0  0  0  0  0  0  0
    7.7653    1.4077    9.8134 C   0  0  0  0  0  0  0  0  0  0  0  0
    6.9303    1.1666    9.4297 H   0  0  0  0  0  0  0  0  0  0  0  0
    8.3864    0.5553   10.7186 C   0  0  0  0  0  0  0  0  0  0  0  0
    7.9678   -0.2592   10.9712 H   0  0  0  0  0  0  0  0  0  0  0  0
    9.6155    0.8971   11.2497 C   0  0  0  0  0  0  0  0  0  0  0  0
   10.0450    0.3094   11.8600 H   0  0  0  0  0  0  0  0  0  0  0  0
   10.2303    2.0974   10.8971 C   0  0  0  0  0  0  0  0  0  0  0  0
   11.0796    2.3195   11.2603 H   0  0  0  0  0  0  0  0  0  0  0  0
    6.4724    4.5991   11.1637 C   0  0  0  0  0  0  0  0  0  0  0  0
    5.2918    3.8776   10.9882 C   0  0  0  0  0  0  0  0  0  0  0  0
    4.6611    4.1525   10.3329 H   0  0  0  0  0  0  0  0  0  0  0  0
    5.0356    2.7550   11.7715 C   0  0  0  0  0  0  0  0  0  0  0  0
    4.2337    2.2616   11.6450 H   0  0  0  0  0  0  0  0  0  0  0  0
    5.9490    2.3560   12.7360 C   0  0  0  0  0  0  0  0  0  0  0  0
    5.7718    1.5896   13.2686 H   0  0  0  0  0  0  0  0  0  0  0  0
    7.1230    3.0755   12.9246 C   0  0  0  0  0  0  0  0  0  0  0  0
    7.7430    2.8069   13.5925 H   0  0  0  0  0  0  0  0  0  0  0  0
    7.3886    4.1839   12.1384 C   0  0  0  0  0  0  0  0  0  0  0  0
    8.1979    4.6661   12.2610 H   0  0  0  0  0  0  0  0  0  0  0  0
    5.8916    5.9843    8.7075 C   0  0  0  0  0  0  0  0  0  0  0  0
    4.5189    6.2589    8.6784 C   0  0  0  0  0  0  0  0  0  0  0  0
    4.0792    6.5692    9.4613 H   0  0  0  0  0  0  0  0  0  0  0  0
    3.7994    6.0765    7.5003 C   0  0  0  0  0  0  0  0  0  0  0  0
    2.8682    6.2640    7.4833 H   0  0  0  0  0  0  0  0  0  0  0  0
    4.4305    5.6234    6.3518 C   0  0  0  0  0  0  0  0  0  0  0  0
    3.9314    5.4942    5.5538 H   0  0  0  0  0  0  0  0  0  0  0  0
    5.7916    5.3592    6.3704 C   0  0  0  0  0  0  0  0  0  0  0  0
    6.2251    5.0476    5.5846 H   0  0  0  0  0  0  0  0  0  0  0  0
    6.5231    5.5499    7.5386 C   0  0  0  0  0  0  0  0  0  0  0  0
    7.4585    5.3836    7.5416 H   0  0  0  0  0  0  0  0  0  0  0  0
    5.9684    7.3673   11.2048 C   0  0  0  0  0  0  0  0  0  0  0  0
    5.7303    8.6182   10.6362 C   0  0  0  0  0  0  0  0  0  0  0  0
    5.9822    8.7799    9.7345 H   0  0  0  0  0  0  0  0  0  0  0  0
    5.1289    9.6302   11.3730 C   0  0  0  0  0  0  0  0  0  0  0  0
    4.9834   10.4832   10.9808 H   0  0  0  0  0  0  0  0  0  0  0  0
    4.7437    9.3929   12.6759 C   0  0  0  0  0  0  0  0  0  0  0  0
    4.3229   10.0814   13.1774 H   0  0  0  0  0  0  0  0  0  0  0  0
    4.9666    8.1620   13.2537 C   0  0  0  0  0  0  0  0  0  0  0  0
    4.7005    8.0053   14.1521 H   0  0  0  0  0  0  0  0  0  0  0  0
    5.5821    7.1445   12.5226 C   0  0  0  0  0  0  0  0  0  0  0  0
    5.7376    6.2984   12.9257 H   0  0  0  0  0  0  0  0  0  0  0  0
    8.7775    8.6718   10.0454 B   0  0  0  0  0  0  0  0  0  0  0  0
   10.9501    7.5584   10.1470 B   0  0  0  0  0  0  0  0  0  0  0  0
    8.4134    9.4638    8.8920 N   0  0  0  0  0  0  0  0  0  0  0  0
    8.7215    9.6125   11.1469 N   0  0  0  0  0  0  0  0  0  0  0  0
   11.8805    7.9347    9.1568 O   0  0  0  0  0  0  0  0  0  0  0  0
   11.5216    7.7942   11.4134 O   0  0  0  0  0  0  0  0  0  0  0  0
   10.2706    4.6062    9.5372 P   0  0  0  0  0  0  0  0  0  0  0  0
    6.8804    6.1144   10.2345 P   0  0  0  0  0  0  0  0  0  0  0  0
    9.1469    6.6172    9.9815 Pt  0  0  0  0  0  0  0  0  0  0  0  0
  1  2  4  0  0  0  0
  2  3  4  0  0  0  0
  3  4  1  0  0  0  0
  5  3  4  0  0  0  0
  6  5  1  0  0  0  0
  7  5  4  0  0  0  0
  8  7  1  0  0  0  0
  9  1  4  0  0  0  0
 10  9  1  0  0  0  0
 11 12  1  0  0  0  0
 13 11  1  0  0  0  0
 14 11  1  0  0  0  0
 15 16  1  0  0  0  0
 17 15  1  0  0  0  0
 18 15  1  0  0  0  0
 19 20  4  0  0  0  0
 20 21  4  0  0  0  0
 21 22  1  0  0  0  0
 23 21  4  0  0  0  0
 24 23  1  0  0  0  0
 25 23  4  0  0  0  0
 26 25  1  0  0  0  0
 27 19  4  0  0  0  0
 28 27  1  0  0  0  0
 29 30  4  0  0  0  0
 30 31  1  0  0  0  0
 32 30  4  0  0  0  0
 33 32  1  0  0  0  0
 34 32  4  0  0  0  0
 35 34  1  0  0  0  0
 36 34  4  0  0  0  0
 37 36  1  0  0  0  0
 38 29  4  0  0  0  0
 39 38  1  0  0  0  0
 40 41  4  0  0  0  0
 41 42  1  0  0  0  0
 43 41  4  0  0  0  0
 44 43  1  0  0  0  0
 45 43  4  0  0  0  0
 46 45  1  0  0  0  0
 47 45  4  0  0  0  0
 48 47  1  0  0  0  0
 49 40  4  0  0  0  0
 50 49  1  0  0  0  0
 51 52  4  0  0  0  0
 52 53  1  0  0  0  0
 54 52  4  0  0  0  0
 55 54  1  0  0  0  0
 56 54  4  0  0  0  0
 57 56  1  0  0  0  0
 58 56  4  0  0  0  0
 59 58  1  0  0  0  0
 60 51  4  0  0  0  0
 61 60  1  0  0  0  0
 62 63  4  0  0  0  0
 63 64  1  0  0  0  0
 65 63  4  0  0  0  0
 66 65  1  0  0  0  0
 67 65  4  0  0  0  0
 68 67  1  0  0  0  0
 69 67  4  0  0  0  0
 70 69  1  0  0  0  0
 71 62  4  0  0  0  0
 72 71  1  0  0  0  0
 73 74  4  0  0  0  0
 74 75  1  0  0  0  0
 76 74  4  0  0  0  0
 77 76  1  0  0  0  0
 78 76  4  0  0  0  0
 79 78  1  0  0  0  0
 80 78  4  0  0  0  0
 81 80  1  0  0  0  0
 82 73  4  0  0  0  0
 83 82  1  0  0  0  0
 84 85  4  0  0  0  0
 85 86  1  0  0  0  0
 87 85  4  0  0  0  0
 88 87  1  0  0  0  0
 89 87  4  0  0  0  0
 90 89  1  0  0  0  0
 91 89  4  0  0  0  0
 92 91  1  0  0  0  0
 93 84  4  0  0  0  0
 94 93  1  0  0  0  0
 95 97  1  0  0  0  0
 96 99  1  0  0  0  0
 97  1  1  0  0  0  0
 98  2  1  0  0  0  0
 99 19  1  0  0  0  0
100 20  1  0  0  0  0
101 29  1  0  0  0  0
102 62  1  0  0  0  0
103 95  1  0  0  0  0
  7  9  4  0  0  0  0
 11 97  1  0  0  0  0
 15 98  1  0  0  0  0
 25 27  4  0  0  0  0
 36 38  4  0  0  0  0
 40101  1  0  0  0  0
 47 49  4  0  0  0  0
 51101  1  0  0  0  0
 58 60  4  0  0  0  0
 69 71  4  0  0  0  0
 73102  1  0  0  0  0
 80 82  4  0  0  0  0
 84102  1  0  0  0  0
 91 93  4  0  0  0  0
 95 98  1  0  0  0  0
 96100  1  0  0  0  0
 96103  1  0  0  0  0
101103  1  0  0  0  0
102103  1  0  0  0  0
M  END
$$$$
GIZJAD

From CSD data. Using bond type 'Any'. No disordered atoms. Largest molecule.
103111  0  0  0  0  0  0  0  0999 V2000
   11.9062    7.1870   11.9189 Pt  0  0  0  0  0  0  0  0  0  0  0  0
   14.2456    7.1285   11.9577 P   0  0  0  0  0  0  0  0  0  0  0  0
   11.3319    6.9490    9.6589 P   0  0  0  0  0  0  0  0  0  0  0  0
    9.2373    8.6465   12.3712 O   0  0  0  0  0  0  0  0  0  0  0  0
    9.1359    6.5121   13.1460 O   0  0  0  0  0  0  0  0  0  0  0  0
   11.8523    8.4647   14.7534 O   0  0  0  0  0  0  0  0  0  0  0  0
   11.9002    6.1719   14.8135 O   0  0  0  0  0  0  0  0  0  0  0  0
    8.0407    8.5695   13.2147 C   0  0  0  0  0  0  0  0  0  0  0  0
    7.7971    7.0697   13.3362 C   0  0  0  0  0  0  0  0  0  0  0  0
    6.9711    6.5012   12.1913 C   0  0  0  0  0  0  0  0  0  0  0  0
    7.2645    6.9023   11.3468 H   0  0  0  0  0  0  0  0  0  0  0  0
    6.0241    6.7060   12.3386 H   0  0  0  0  0  0  0  0  0  0  0  0
    7.0930    5.5298   12.1516 H   0  0  0  0  0  0  0  0  0  0  0  0
    7.2331    6.6002   14.6446 C   0  0  0  0  0  0  0  0  0  0  0  0
    7.0860    5.6318   14.6092 H   0  0  0  0  0  0  0  0  0  0  0  0
    6.3805    7.0533   14.8153 H   0  0  0  0  0  0  0  0  0  0  0  0
    7.8626    6.8081   15.3669 H   0  0  0  0  0  0  0  0  0  0  0  0
    6.9421    9.3859   12.6026 C   0  0  0  0  0  0  0  0  0  0  0  0
    7.1782   10.3368   12.6481 H   0  0  0  0  0  0  0  0  0  0  0  0
    6.1084    9.2330   13.0934 H   0  0  0  0  0  0  0  0  0  0  0  0
    6.8240    9.1238   11.6661 H   0  0  0  0  0  0  0  0  0  0  0  0
    8.4150    9.2146   14.5768 C   0  0  0  0  0  0  0  0  0  0  0  0
    9.1480    8.7101   14.9878 H   0  0  0  0  0  0  0  0  0  0  0  0
    7.6359    9.2009   15.1716 H   0  0  0  0  0  0  0  0  0  0  0  0
    8.6986   10.1424   14.4331 H   0  0  0  0  0  0  0  0  0  0  0  0
   11.8281    8.0408   16.0714 C   0  0  0  0  0  0  0  0  0  0  0  0
   11.8537    6.6558   16.0955 C   0  0  0  0  0  0  0  0  0  0  0  0
   11.7939    5.9473   17.2730 C   0  0  0  0  0  0  0  0  0  0  0  0
   11.8056    4.9972   17.2867 H   0  0  0  0  0  0  0  0  0  0  0  0
   11.7173    6.6946   18.4436 C   0  0  0  0  0  0  0  0  0  0  0  0
   11.6672    6.2452   19.2783 H   0  0  0  0  0  0  0  0  0  0  0  0
   11.7115    8.0798   18.4202 C   0  0  0  0  0  0  0  0  0  0  0  0
   11.6694    8.5574   19.2405 H   0  0  0  0  0  0  0  0  0  0  0  0
   11.7650    8.7937   17.2146 C   0  0  0  0  0  0  0  0  0  0  0  0
   11.7578    9.7427   17.1904 H   0  0  0  0  0  0  0  0  0  0  0  0
   14.9927    6.9575   13.6329 C   0  0  0  0  0  0  0  0  0  0  0  0
   15.4897    5.7401   14.0885 C   0  0  0  0  0  0  0  0  0  0  0  0
   15.4954    4.9849   13.5136 H   0  0  0  0  0  0  0  0  0  0  0  0
   15.9731    5.6326   15.3759 C   0  0  0  0  0  0  0  0  0  0  0  0
   16.3281    4.8036   15.6755 H   0  0  0  0  0  0  0  0  0  0  0  0
   15.9459    6.7096   16.2357 C   0  0  0  0  0  0  0  0  0  0  0  0
   16.2658    6.6211   17.1254 H   0  0  0  0  0  0  0  0  0  0  0  0
   15.4488    7.9244   15.7871 C   0  0  0  0  0  0  0  0  0  0  0  0
   15.4242    8.6731   16.3702 H   0  0  0  0  0  0  0  0  0  0  0  0
   14.9909    8.0419   14.4974 C   0  0  0  0  0  0  0  0  0  0  0  0
   14.6670    8.8804   14.1912 H   0  0  0  0  0  0  0  0  0  0  0  0
   15.0039    8.6730   11.3572 C   0  0  0  0  0  0  0  0  0  0  0  0
   14.2217    9.5238   10.5722 C   0  0  0  0  0  0  0  0  0  0  0  0
   13.3219    9.2907   10.3792 H   0  0  0  0  0  0  0  0  0  0  0  0
   14.7507   10.7112   10.0722 C   0  0  0  0  0  0  0  0  0  0  0  0
   14.2153   11.2827    9.5342 H   0  0  0  0  0  0  0  0  0  0  0  0
   16.0545   11.0568   10.3619 C   0  0  0  0  0  0  0  0  0  0  0  0
   16.4224   11.8578   10.0076 H   0  0  0  0  0  0  0  0  0  0  0  0
   16.8252   10.2399   11.1633 C   0  0  0  0  0  0  0  0  0  0  0  0
   17.7176   10.4903   11.3758 H   0  0  0  0  0  0  0  0  0  0  0  0
   16.3060    9.0634   11.6586 C   0  0  0  0  0  0  0  0  0  0  0  0
   16.8437    8.5115   12.2148 H   0  0  0  0  0  0  0  0  0  0  0  0
   15.0634    5.7629   11.0769 C   0  0  0  0  0  0  0  0  0  0  0  0
   14.2901    4.6329   10.7755 C   0  0  0  0  0  0  0  0  0  0  0  0
   13.3592    4.6336   10.9617 H   0  0  0  0  0  0  0  0  0  0  0  0
   14.8844    3.5097   10.2031 C   0  0  0  0  0  0  0  0  0  0  0  0
   14.3587    2.7422   10.0120 H   0  0  0  0  0  0  0  0  0  0  0  0
   16.2266    3.5117    9.9157 C   0  0  0  0  0  0  0  0  0  0  0  0
   16.6218    2.7472    9.5129 H   0  0  0  0  0  0  0  0  0  0  0  0
   17.0174    4.6221   10.2077 C   0  0  0  0  0  0  0  0  0  0  0  0
   17.9480    4.6112   10.0194 H   0  0  0  0  0  0  0  0  0  0  0  0
   16.4271    5.7454   10.7755 C   0  0  0  0  0  0  0  0  0  0  0  0
   16.9590    6.5111   10.9628 H   0  0  0  0  0  0  0  0  0  0  0  0
   12.4739    6.1116    8.4998 C   0  0  0  0  0  0  0  0  0  0  0  0
   12.1739    4.8911    7.8877 C   0  0  0  0  0  0  0  0  0  0  0  0
   11.3261    4.4892    8.0393 H   0  0  0  0  0  0  0  0  0  0  0  0
   13.0894    4.2599    7.0676 C   0  0  0  0  0  0  0  0  0  0  0  0
   12.8733    3.4259    6.6652 H   0  0  0  0  0  0  0  0  0  0  0  0
   14.3257    4.8449    6.8293 C   0  0  0  0  0  0  0  0  0  0  0  0
   14.9523    4.4166    6.2575 H   0  0  0  0  0  0  0  0  0  0  0  0
   14.6456    6.0430    7.4227 C   0  0  0  0  0  0  0  0  0  0  0  0
   15.4966    6.4362    7.2691 H   0  0  0  0  0  0  0  0  0  0  0  0
   13.7226    6.6817    8.2475 C   0  0  0  0  0  0  0  0  0  0  0  0
   13.9459    7.5168    8.6417 H   0  0  0  0  0  0  0  0  0  0  0  0
    9.8283    5.9598    9.4157 C   0  0  0  0  0  0  0  0  0  0  0  0
    9.6369    4.8496   10.2381 C   0  0  0  0  0  0  0  0  0  0  0  0
   10.2318    4.6936   10.9627 H   0  0  0  0  0  0  0  0  0  0  0  0
    8.5882    3.9741   10.0115 C   0  0  0  0  0  0  0  0  0  0  0  0
    8.4778    3.2113   10.5657 H   0  0  0  0  0  0  0  0  0  0  0  0
    7.6980    4.2108    8.9694 C   0  0  0  0  0  0  0  0  0  0  0  0
    6.9887    3.6013    8.8041 H   0  0  0  0  0  0  0  0  0  0  0  0
    7.8449    5.3261    8.1797 C   0  0  0  0  0  0  0  0  0  0  0  0
    7.2166    5.5071    7.4920 H   0  0  0  0  0  0  0  0  0  0  0  0
    8.9127    6.1867    8.3924 C   0  0  0  0  0  0  0  0  0  0  0  0
    9.0198    6.9428    7.8273 H   0  0  0  0  0  0  0  0  0  0  0  0
   11.0064    8.5117    8.7659 C   0  0  0  0  0  0  0  0  0  0  0  0
   11.0713    8.5993    7.3807 C   0  0  0  0  0  0  0  0  0  0  0  0
   11.3196    7.8314    6.8809 H   0  0  0  0  0  0  0  0  0  0  0  0
   10.7850    9.7688    6.7172 C   0  0  0  0  0  0  0  0  0  0  0  0
   10.8385    9.8079    5.7692 H   0  0  0  0  0  0  0  0  0  0  0  0
   10.4141   10.9030    7.4555 C   0  0  0  0  0  0  0  0  0  0  0  0
   10.2117   11.7185    7.0105 H   0  0  0  0  0  0  0  0  0  0  0  0
   10.3457   10.8238    8.8176 C   0  0  0  0  0  0  0  0  0  0  0  0
   10.0947   11.5923    9.3175 H   0  0  0  0  0  0  0  0  0  0  0  0
   10.6364    9.6380    9.4881 C   0  0  0  0  0  0  0  0  0  0  0  0
   10.5803    9.5996   10.4349 H   0  0  0  0  0  0  0  0  0  0  0  0
    9.9325    7.4475   12.5021 B   0  0  0  0  0  0  0  0  0  0  0  0
   11.8877    7.2890   13.9577 B   0  0  0  0  0  0  0  0  0  0  0  0
  1  2  1  0  0  0  0
  2 36  1  0  0  0  0
  3  1  1  0  0  0  0
  4  8  1  0  0  0  0
  5  9  1  0  0  0  0
  6 26  1  0  0  0  0
  7 27  1  0  0  0  0
  8  9  1  0  0  0  0
  9 10  1  0  0  0  0
 10 11  1  0  0  0  0
 12 10  1  0  0  0  0
 13 10  1  0  0  0  0
 14  9  1  0  0  0  0
 15 14  1  0  0  0  0
 16 14  1  0  0  0  0
 17 14  1  0  0  0  0
 18  8  1  0  0  0  0
 19 18  1  0  0  0  0
 20 18  1  0  0  0  0
 21 18  1  0  0  0  0
 22  8  1  0  0  0  0
 23 22  1  0  0  0  0
 24 22  1  0  0  0  0
 25 22  1  0  0  0  0
 26 27  4  0  0  0  0
 27 28  4  0  0  0  0
 28 29  1  0  0  0  0
 30 28  4  0  0  0  0
 31 30  1  0  0  0  0
 32 30  4  0  0  0  0
 33 32  1  0  0  0  0
 34 26  4  0  0  0  0
 35 34  1  0  0  0  0
 36 37  4  0  0  0  0
 37 38  1  0  0  0  0
 39 37  4  0  0  0  0
 40 39  1  0  0  0  0
 41 39  4  0  0  0  0
 42 41  1  0  0  0  0
 43 41  4  0  0  0  0
 44 43  1  0  0  0  0
 45 36  4  0  0  0  0
 46 45  1  0  0  0  0
 47  2  1  0  0  0  0
 48 47  4  0  0  0  0
 49 48  1  0  0  0  0
 50 48  4  0  0  0  0
 51 50  1  0  0  0  0
 52 50  4  0  0  0  0
 53 52  1  0  0  0  0
 54 52  4  0  0  0  0
 55 54  1  0  0  0  0
 56 47  4  0  0  0  0
 57 56  1  0  0  0  0
 58  2  1  0  0  0  0
 59 58  4  0  0  0  0
 60 59  1  0  0  0  0
 61 59  4  0  0  0  0
 62 61  1  0  0  0  0
 63 61  4  0  0  0  0
 64 63  1  0  0  0  0
 65 63  4  0  0  0  0
 66 65  1  0  0  0  0
 67 58  4  0  0  0  0
 68 67  1  0  0  0  0
 69  3  1  0  0  0  0
 70 69  4  0  0  0  0
 71 70  1  0  0  0  0
 72 70  4  0  0  0  0
 73 72  1  0  0  0  0
 74 72  4  0  0  0  0
 75 74  1  0  0  0  0
 76 74  4  0  0  0  0
 77 76  1  0  0  0  0
 78 69  4  0  0  0  0
 79 78  1  0  0  0  0
 80  3  1  0  0  0  0
 81 80  4  0  0  0  0
 82 81  1  0  0  0  0
 83 81  4  0  0  0  0
 84 83  1  0  0  0  0
 85 83  4  0  0  0  0
 86 85  1  0  0  0  0
 87 85  4  0  0  0  0
 88 87  1  0  0  0  0
 89 80  4  0  0  0  0
 90 89  1  0  0  0  0
 91  3  1  0  0  0  0
 92 91  4  0  0  0  0
 93 92  1  0  0  0  0
 94 92  4  0  0  0  0
 95 94  1  0  0  0  0
 96 94  4  0  0  0  0
 97 96  1  0  0  0  0
 98 96  4  0  0  0  0
 99 98  1  0  0  0  0
100 91  4  0  0  0  0
101100  1  0  0  0  0
102  1  1  0  0  0  0
103  1  1  0  0  0  0
  4102  1  0  0  0  0
  5102  1  0  0  0  0
  6103  1  0  0  0  0
  7103  1  0  0  0  0
 32 34  4  0  0  0  0
 43 45  4  0  0  0  0
 54 56  4  0  0  0  0
 65 67  4  0  0  0  0
 76 78  4  0  0  0  0
 87 89  4  0  0  0  0
 98100  4  0  0  0  0
M  END
$$$$
GIZJEH

From CSD data. Using bond type 'Any'. No disordered atoms. Largest molecule.
 99107  0  0  0  0  0  0  0  0999 V2000
    3.8466   -1.8653    5.6337 C   0  0  0  0  0  0  0  0  0  0  0  0
    4.4529   -2.2444    6.3186 H   0  0  0  0  0  0  0  0  0  0  0  0
    3.6927   -2.5444    4.9300 H   0  0  0  0  0  0  0  0  0  0  0  0
    2.5231   -1.4192    6.2618 C   0  0  0  0  0  0  0  0  0  0  0  0
    1.7571   -1.6798    5.6919 H   0  0  0  0  0  0  0  0  0  0  0  0
    2.4065   -1.8195    7.1596 H   0  0  0  0  0  0  0  0  0  0  0  0
    5.7103   -0.7154    4.4690 C   0  0  0  0  0  0  0  0  0  0  0  0
    5.9636    0.1676    4.1277 H   0  0  0  0  0  0  0  0  0  0  0  0
    5.6969   -1.3595    3.7305 H   0  0  0  0  0  0  0  0  0  0  0  0
    6.3606   -1.0042    5.1427 H   0  0  0  0  0  0  0  0  0  0  0  0
    1.4657    0.7460    6.7864 C   0  0  0  0  0  0  0  0  0  0  0  0
    1.6555    1.7072    6.8028 H   0  0  0  0  0  0  0  0  0  0  0  0
    1.2169    0.4467    7.6859 H   0  0  0  0  0  0  0  0  0  0  0  0
    0.7261    0.5696    6.1677 H   0  0  0  0  0  0  0  0  0  0  0  0
    6.7098    1.1137    8.3078 C   0  0  0  0  0  0  0  0  0  0  0  0
    5.8293    1.8942    9.0345 C   0  0  0  0  0  0  0  0  0  0  0  0
    5.9102    2.0011   10.4016 C   0  0  0  0  0  0  0  0  0  0  0  0
    5.3049    2.5399   10.8974 H   0  0  0  0  0  0  0  0  0  0  0  0
    6.9269    1.2780   11.0238 C   0  0  0  0  0  0  0  0  0  0  0  0
    7.0116    1.3201   11.9691 H   0  0  0  0  0  0  0  0  0  0  0  0
    7.8171    0.4990   10.3013 C   0  0  0  0  0  0  0  0  0  0  0  0
    8.4974    0.0201   10.7606 H   0  0  0  0  0  0  0  0  0  0  0  0
    7.7331    0.4060    8.9097 C   0  0  0  0  0  0  0  0  0  0  0  0
    8.3459   -0.1154    8.4046 H   0  0  0  0  0  0  0  0  0  0  0  0
    6.7846    4.7266    5.9620 C   0  0  0  0  0  0  0  0  0  0  0  0
    7.6546    3.6492    5.7756 C   0  0  0  0  0  0  0  0  0  0  0  0
    7.4073    2.9354    5.1996 H   0  0  0  0  0  0  0  0  0  0  0  0
    8.8804    3.6181    6.4300 C   0  0  0  0  0  0  0  0  0  0  0  0
    9.4676    2.8831    6.2983 H   0  0  0  0  0  0  0  0  0  0  0  0
    9.2496    4.6507    7.2711 C   0  0  0  0  0  0  0  0  0  0  0  0
   10.0817    4.6182    7.7275 H   0  0  0  0  0  0  0  0  0  0  0  0
    8.4029    5.7339    7.4482 C   0  0  0  0  0  0  0  0  0  0  0  0
    8.6605    6.4492    8.0177 H   0  0  0  0  0  0  0  0  0  0  0  0
    7.1749    5.7752    6.7926 C   0  0  0  0  0  0  0  0  0  0  0  0
    6.6003    6.5222    6.9120 H   0  0  0  0  0  0  0  0  0  0  0  0
    4.1686    5.9120    6.0377 C   0  0  0  0  0  0  0  0  0  0  0  0
    3.3181    5.4795    7.0543 C   0  0  0  0  0  0  0  0  0  0  0  0
    3.2458    4.5530    7.2514 H   0  0  0  0  0  0  0  0  0  0  0  0
    2.5746    6.4060    7.7808 C   0  0  0  0  0  0  0  0  0  0  0  0
    1.9942    6.1086    8.4716 H   0  0  0  0  0  0  0  0  0  0  0  0
    2.6766    7.7605    7.5015 C   0  0  0  0  0  0  0  0  0  0  0  0
    2.1586    8.3870    7.9928 H   0  0  0  0  0  0  0  0  0  0  0  0
    3.5345    8.2005    6.5055 C   0  0  0  0  0  0  0  0  0  0  0  0
    3.6126    9.1291    6.3203 H   0  0  0  0  0  0  0  0  0  0  0  0
    4.2802    7.2821    5.7794 C   0  0  0  0  0  0  0  0  0  0  0  0
    4.8714    7.5866    5.1010 H   0  0  0  0  0  0  0  0  0  0  0  0
    5.4984    5.5062    3.5360 C   0  0  0  0  0  0  0  0  0  0  0  0
    6.7667    5.4714    2.9403 C   0  0  0  0  0  0  0  0  0  0  0  0
    7.4946    5.0736    3.4034 H   0  0  0  0  0  0  0  0  0  0  0  0
    6.9672    6.0159    1.6747 C   0  0  0  0  0  0  0  0  0  0  0  0
    7.8290    5.9808    1.2763 H   0  0  0  0  0  0  0  0  0  0  0  0
    5.9172    6.6083    0.9933 C   0  0  0  0  0  0  0  0  0  0  0  0
    6.0554    6.9699    0.1257 H   0  0  0  0  0  0  0  0  0  0  0  0
    4.6646    6.6718    1.5812 C   0  0  0  0  0  0  0  0  0  0  0  0
    3.9474    7.0933    1.1226 H   0  0  0  0  0  0  0  0  0  0  0  0
    4.4534    6.1219    2.8383 C   0  0  0  0  0  0  0  0  0  0  0  0
    3.5888    6.1641    3.2297 H   0  0  0  0  0  0  0  0  0  0  0  0
    1.9112    4.0656    3.0221 C   0  0  0  0  0  0  0  0  0  0  0  0
    1.4365    4.6962    4.1720 C   0  0  0  0  0  0  0  0  0  0  0  0
    1.6077    4.3144    5.0248 H   0  0  0  0  0  0  0  0  0  0  0  0
    0.7146    5.8802    4.0774 C   0  0  0  0  0  0  0  0  0  0  0  0
    0.3826    6.2996    4.8628 H   0  0  0  0  0  0  0  0  0  0  0  0
    0.4779    6.4484    2.8330 C   0  0  0  0  0  0  0  0  0  0  0  0
   -0.0106    7.2603    2.7672 H   0  0  0  0  0  0  0  0  0  0  0  0
    0.9564    5.8306    1.6823 C   0  0  0  0  0  0  0  0  0  0  0  0
    0.7993    6.2234    0.8319 H   0  0  0  0  0  0  0  0  0  0  0  0
    1.6639    4.6391    1.7773 C   0  0  0  0  0  0  0  0  0  0  0  0
    1.9807    4.2133    0.9894 H   0  0  0  0  0  0  0  0  0  0  0  0
    3.6987    2.1842    1.7077 C   0  0  0  0  0  0  0  0  0  0  0  0
    5.0762    2.3928    1.6595 C   0  0  0  0  0  0  0  0  0  0  0  0
    5.5334    2.7179    2.4261 H   0  0  0  0  0  0  0  0  0  0  0  0
    5.7835    2.1260    0.4912 C   0  0  0  0  0  0  0  0  0  0  0  0
    6.7203    2.2791    0.4607 H   0  0  0  0  0  0  0  0  0  0  0  0
    5.1293    1.6394   -0.6247 C   0  0  0  0  0  0  0  0  0  0  0  0
    5.6189    1.4435   -1.4151 H   0  0  0  0  0  0  0  0  0  0  0  0
    3.7626    1.4379   -0.5903 C   0  0  0  0  0  0  0  0  0  0  0  0
    3.3127    1.1167   -1.3628 H   0  0  0  0  0  0  0  0  0  0  0  0
    3.0428    1.7028    0.5695 C   0  0  0  0  0  0  0  0  0  0  0  0
    2.1042    1.5568    0.5890 H   0  0  0  0  0  0  0  0  0  0  0  0
    1.4627    1.2892    3.2077 C   0  0  0  0  0  0  0  0  0  0  0  0
    0.1208    1.6535    3.2680 C   0  0  0  0  0  0  0  0  0  0  0  0
   -0.1161    2.5713    3.3326 H   0  0  0  0  0  0  0  0  0  0  0  0
   -0.8811    0.6790    3.2346 C   0  0  0  0  0  0  0  0  0  0  0  0
   -1.7941    0.9371    3.2872 H   0  0  0  0  0  0  0  0  0  0  0  0
   -0.5496   -0.6557    3.1256 C   0  0  0  0  0  0  0  0  0  0  0  0
   -1.2331   -1.3154    3.0990 H   0  0  0  0  0  0  0  0  0  0  0  0
    0.7834   -1.0317    3.0549 C   0  0  0  0  0  0  0  0  0  0  0  0
    1.0135   -1.9497    2.9714 H   0  0  0  0  0  0  0  0  0  0  0  0
    1.7847   -0.0677    3.1061 C   0  0  0  0  0  0  0  0  0  0  0  0
    2.6960   -0.3337    3.0718 H   0  0  0  0  0  0  0  0  0  0  0  0
    3.7230    0.5120    5.5668 B   0  0  0  0  0  0  0  0  0  0  0  0
    5.2284    1.9927    6.8745 B   0  0  0  0  0  0  0  0  0  0  0  0
    4.4053   -0.6423    5.0637 N   0  0  0  0  0  0  0  0  0  0  0  0
    2.6353    0.0334    6.3506 N   0  0  0  0  0  0  0  0  0  0  0  0
    6.3634    1.1460    6.9733 O   0  0  0  0  0  0  0  0  0  0  0  0
    4.9067    2.4568    8.1673 O   0  0  0  0  0  0  0  0  0  0  0  0
    5.1527    4.6654    5.1331 P   0  0  0  0  0  0  0  0  0  0  0  0
    2.8316    2.5119    3.2813 P   0  0  0  0  0  0  0  0  0  0  0  0
    4.2287    2.4996    5.1494 Pt  0  0  0  0  0  0  0  0  0  0  0  0
  1  2  1  0  0  0  0
  3  1  1  0  0  0  0
  4  1  1  0  0  0  0
  5  4  1  0  0  0  0
  6  4  1  0  0  0  0
  7  8  1  0  0  0  0
  9  7  1  0  0  0  0
 10  7  1  0  0  0  0
 11 12  1  0  0  0  0
 13 11  1  0  0  0  0
 14 11  1  0  0  0  0
 15 16  4  0  0  0  0
 16 17  4  0  0  0  0
 17 18  1  0  0  0  0
 19 17  4  0  0  0  0
 20 19  1  0  0  0  0
 21 19  4  0  0  0  0
 22 21  1  0  0  0  0
 23 15  4  0  0  0  0
 24 23  1  0  0  0  0
 25 26  4  0  0  0  0
 26 27  1  0  0  0  0
 28 26  4  0  0  0  0
 29 28  1  0  0  0  0
 30 28  4  0  0  0  0
 31 30  1  0  0  0  0
 32 30  4  0  0  0  0
 33 32  1  0  0  0  0
 34 25  4  0  0  0  0
 35 34  1  0  0  0  0
 36 37  4  0  0  0  0
 37 38  1  0  0  0  0
 39 37  4  0  0  0  0
 40 39  1  0  0  0  0
 41 39  4  0  0  0  0
 42 41  1  0  0  0  0
 43 41  4  0  0  0  0
 44 43  1  0  0  0  0
 45 36  4  0  0  0  0
 46 45  1  0  0  0  0
 47 48  4  0  0  0  0
 48 49  1  0  0  0  0
 50 48  4  0  0  0  0
 51 50  1  0  0  0  0
 52 50  4  0  0  0  0
 53 52  1  0  0  0  0
 54 52  4  0  0  0  0
 55 54  1  0  0  0  0
 56 47  4  0  0  0  0
 57 56  1  0  0  0  0
 58 59  4  0  0  0  0
 59 60  1  0  0  0  0
 61 59  4  0  0  0  0
 62 61  1  0  0  0  0
 63 61  4  0  0  0  0
 64 63  1  0  0  0  0
 65 63  4  0  0  0  0
 66 65  1  0  0  0  0
 67 58  4  0  0  0  0
 68 67  1  0  0  0  0
 69 70  4  0  0  0  0
 70 71  1  0  0  0  0
 72 70  4  0  0  0  0
 73 72  1  0  0  0  0
 74 72  4  0  0  0  0
 75 74  1  0  0  0  0
 76 74  4  0  0  0  0
 77 76  1  0  0  0  0
 78 69  4  0  0  0  0
 79 78  1  0  0  0  0
 80 81  4  0  0  0  0
 81 82  1  0  0  0  0
 83 81  4  0  0  0  0
 84 83  1  0  0  0  0
 85 83  4  0  0  0  0
 86 85  1  0  0  0  0
 87 85  4  0  0  0  0
 88 87  1  0  0  0  0
 89 80  4  0  0  0  0
 90 89  1  0  0  0  0
 91 93  1  0  0  0  0
 92 95  1  0  0  0  0
 93  1  1  0  0  0  0
 94  4  1  0  0  0  0
 95 15  1  0  0  0  0
 96 16  1  0  0  0  0
 97 25  1  0  0  0  0
 98 58  1  0  0  0  0
 99 91  1  0  0  0  0
  7 93  1  0  0  0  0
 11 94  1  0  0  0  0
 21 23  4  0  0  0  0
 32 34  4  0  0  0  0
 36 97  1  0  0  0  0
 43 45  4  0  0  0  0
 47 97  1  0  0  0  0
 54 56  4  0  0  0  0
 65 67  4  0  0  0  0
 69 98  1  0  0  0  0
 76 78  4  0  0  0  0
 80 98  1  0  0  0  0
 87 89  4  0  0  0  0
 91 94  1  0  0  0  0
 92 96  1  0  0  0  0
 92 99  1  0  0  0  0
 97 99  1  0  0  0  0
 98 99  1  0  0  0  0
M  END
$$$$
GIZJIL

From CSD data. Using bond type 'Any'. No disordered atoms. Largest molecule.
103112  0  0  0  0  0  0  0  0999 V2000
   12.2380    4.8692   14.8765 Pt  0  0  0  0  0  0  0  0  0  0  0  0
   10.4278    5.9586   15.8753 P   0  0  0  0  0  0  0  0  0  0  0  0
   14.1371    5.4672   16.1076 P   0  0  0  0  0  0  0  0  0  0  0  0
   13.8785    2.3180   14.3652 O   0  0  0  0  0  0  0  0  0  0  0  0
   10.6997    4.5396   12.2029 O   0  0  0  0  0  0  0  0  0  0  0  0
   14.1303    3.7052   12.5637 N   0  0  0  0  0  0  0  0  0  0  0  0
   10.2838    2.7394   13.5575 N   0  0  0  0  0  0  0  0  0  0  0  0
   14.8475    1.8129   13.5380 C   0  0  0  0  0  0  0  0  0  0  0  0
   15.0117    2.6407   12.4257 C   0  0  0  0  0  0  0  0  0  0  0  0
   15.9672    2.3408   11.4645 C   0  0  0  0  0  0  0  0  0  0  0  0
   16.0886    2.8916   10.7001 H   0  0  0  0  0  0  0  0  0  0  0  0
   16.7430    1.1965   11.6658 C   0  0  0  0  0  0  0  0  0  0  0  0
   17.3938    0.9597   11.0157 H   0  0  0  0  0  0  0  0  0  0  0  0
   16.5898    0.4020   12.7823 C   0  0  0  0  0  0  0  0  0  0  0  0
   17.1495   -0.3569   12.8975 H   0  0  0  0  0  0  0  0  0  0  0  0
   15.6227    0.6978   13.7466 C   0  0  0  0  0  0  0  0  0  0  0  0
   15.5061    0.1507   14.5144 H   0  0  0  0  0  0  0  0  0  0  0  0
   14.0769    4.7970   11.6075 C   0  0  0  0  0  0  0  0  0  0  0  0
   14.9787    5.1553   11.4701 H   0  0  0  0  0  0  0  0  0  0  0  0
   13.4933    5.5049   11.9521 H   0  0  0  0  0  0  0  0  0  0  0  0
   13.7229    4.4678   10.7551 H   0  0  0  0  0  0  0  0  0  0  0  0
    9.7648    3.7257   11.6132 C   0  0  0  0  0  0  0  0  0  0  0  0
    9.4894    2.6308   12.4197 C   0  0  0  0  0  0  0  0  0  0  0  0
    8.5415    1.6840   12.0355 C   0  0  0  0  0  0  0  0  0  0  0  0
    8.3468    0.9309   12.5808 H   0  0  0  0  0  0  0  0  0  0  0  0
    7.8900    1.8859   10.8195 C   0  0  0  0  0  0  0  0  0  0  0  0
    7.2283    1.2652   10.5377 H   0  0  0  0  0  0  0  0  0  0  0  0
    8.1889    2.9774   10.0097 C   0  0  0  0  0  0  0  0  0  0  0  0
    7.7314    3.0864    9.1842 H   0  0  0  0  0  0  0  0  0  0  0  0
    9.1520    3.9164   10.3915 C   0  0  0  0  0  0  0  0  0  0  0  0
    9.3745    4.6532    9.8347 H   0  0  0  0  0  0  0  0  0  0  0  0
   10.2322    1.7837   14.6337 C   0  0  0  0  0  0  0  0  0  0  0  0
   10.8809    2.0339   15.3242 H   0  0  0  0  0  0  0  0  0  0  0  0
   10.4490    0.8921   14.2894 H   0  0  0  0  0  0  0  0  0  0  0  0
    9.3314    1.7747   15.0196 H   0  0  0  0  0  0  0  0  0  0  0  0
    8.9111    6.1629   14.8697 C   0  0  0  0  0  0  0  0  0  0  0  0
    8.5244    7.4044   14.3839 C   0  0  0  0  0  0  0  0  0  0  0  0
    9.0087    8.1818   14.6359 H   0  0  0  0  0  0  0  0  0  0  0  0
    7.4276    7.5179   13.5271 C   0  0  0  0  0  0  0  0  0  0  0  0
    7.1758    8.3699   13.1917 H   0  0  0  0  0  0  0  0  0  0  0  0
    6.7066    6.3958   13.1643 C   0  0  0  0  0  0  0  0  0  0  0  0
    5.9636    6.4754   12.5776 H   0  0  0  0  0  0  0  0  0  0  0  0
    7.0707    5.1543   13.6593 C   0  0  0  0  0  0  0  0  0  0  0  0
    6.5694    4.3839   13.4199 H   0  0  0  0  0  0  0  0  0  0  0  0
    8.1676    5.0317   14.5056 C   0  0  0  0  0  0  0  0  0  0  0  0
    8.4140    4.1769   14.8386 H   0  0  0  0  0  0  0  0  0  0  0  0
    9.8590    4.9511   17.2903 C   0  0  0  0  0  0  0  0  0  0  0  0
    8.5552    4.9637   17.7835 C   0  0  0  0  0  0  0  0  0  0  0  0
    7.9020    5.5302   17.3899 H   0  0  0  0  0  0  0  0  0  0  0  0
    8.2114    4.1375   18.8625 C   0  0  0  0  0  0  0  0  0  0  0  0
    7.3217    4.1462   19.1954 H   0  0  0  0  0  0  0  0  0  0  0  0
    9.1505    3.3110   19.4474 C   0  0  0  0  0  0  0  0  0  0  0  0
    8.9047    2.7505   20.1739 H   0  0  0  0  0  0  0  0  0  0  0  0
   10.4479    3.3011   18.9736 C   0  0  0  0  0  0  0  0  0  0  0  0
   11.1006    2.7441   19.3813 H   0  0  0  0  0  0  0  0  0  0  0  0
   10.7928    4.1082   17.9003 C   0  0  0  0  0  0  0  0  0  0  0  0
   11.6841    4.0878   17.5717 H   0  0  0  0  0  0  0  0  0  0  0  0
   10.6592    7.6433   16.5423 C   0  0  0  0  0  0  0  0  0  0  0  0
    9.8993    8.1564   17.6004 C   0  0  0  0  0  0  0  0  0  0  0  0
    9.2352    7.6178   18.0144 H   0  0  0  0  0  0  0  0  0  0  0  0
   10.1189    9.4590   18.0453 C   0  0  0  0  0  0  0  0  0  0  0  0
    9.6052    9.8036   18.7663 H   0  0  0  0  0  0  0  0  0  0  0  0
   11.0756   10.2510   17.4474 C   0  0  0  0  0  0  0  0  0  0  0  0
   11.2151   11.1390   17.7551 H   0  0  0  0  0  0  0  0  0  0  0  0
   11.8384    9.7533   16.3935 C   0  0  0  0  0  0  0  0  0  0  0  0
   12.4978   10.2992   15.9818 H   0  0  0  0  0  0  0  0  0  0  0  0
   11.6293    8.4525   15.9475 C   0  0  0  0  0  0  0  0  0  0  0  0
   12.1515    8.1113   15.2311 H   0  0  0  0  0  0  0  0  0  0  0  0
   15.5268    5.7430   14.9616 C   0  0  0  0  0  0  0  0  0  0  0  0
   15.4866    6.8470   14.1072 C   0  0  0  0  0  0  0  0  0  0  0  0
   14.7672    7.4650   14.1624 H   0  0  0  0  0  0  0  0  0  0  0  0
   16.5036    7.0416   13.1727 C   0  0  0  0  0  0  0  0  0  0  0  0
   16.4900    7.8068   12.6100 H   0  0  0  0  0  0  0  0  0  0  0  0
   17.5297    6.1247   13.0635 C   0  0  0  0  0  0  0  0  0  0  0  0
   18.2306    6.2697   12.4389 H   0  0  0  0  0  0  0  0  0  0  0  0
   17.5390    5.0004   13.8576 C   0  0  0  0  0  0  0  0  0  0  0  0
   18.2272    4.3546   13.7521 H   0  0  0  0  0  0  0  0  0  0  0  0
   16.5464    4.8043   14.8150 C   0  0  0  0  0  0  0  0  0  0  0  0
   16.5645    4.0315   15.3673 H   0  0  0  0  0  0  0  0  0  0  0  0
   14.7416    4.1515   17.2217 C   0  0  0  0  0  0  0  0  0  0  0  0
   14.0904    2.9221   17.2696 C   0  0  0  0  0  0  0  0  0  0  0  0
   13.3394    2.7633   16.7100 H   0  0  0  0  0  0  0  0  0  0  0  0
   14.5328    1.9247   18.1322 C   0  0  0  0  0  0  0  0  0  0  0  0
   14.0811    1.0896   18.1635 H   0  0  0  0  0  0  0  0  0  0  0  0
   15.6334    2.1483   18.9472 C   0  0  0  0  0  0  0  0  0  0  0  0
   15.9336    1.4666   19.5367 H   0  0  0  0  0  0  0  0  0  0  0  0
   16.2989    3.3722   18.9012 C   0  0  0  0  0  0  0  0  0  0  0  0
   17.0587    3.5216   19.4516 H   0  0  0  0  0  0  0  0  0  0  0  0
   15.8500    4.3711   18.0512 C   0  0  0  0  0  0  0  0  0  0  0  0
   16.2962    5.2095   18.0309 H   0  0  0  0  0  0  0  0  0  0  0  0
   14.2254    6.8842   17.2740 C   0  0  0  0  0  0  0  0  0  0  0  0
   13.2893    6.9173   18.3159 C   0  0  0  0  0  0  0  0  0  0  0  0
   12.6412    6.2261   18.3849 H   0  0  0  0  0  0  0  0  0  0  0  0
   13.2951    7.9434   19.2479 C   0  0  0  0  0  0  0  0  0  0  0  0
   12.6535    7.9540   19.9485 H   0  0  0  0  0  0  0  0  0  0  0  0
   14.2398    8.9548   19.1548 C   0  0  0  0  0  0  0  0  0  0  0  0
   14.2445    9.6627   19.7883 H   0  0  0  0  0  0  0  0  0  0  0  0
   15.1781    8.9285   18.1324 C   0  0  0  0  0  0  0  0  0  0  0  0
   15.8247    9.6215   18.0677 H   0  0  0  0  0  0  0  0  0  0  0  0
   15.1788    7.8953   17.2020 C   0  0  0  0  0  0  0  0  0  0  0  0
   15.8333    7.8795   16.5138 H   0  0  0  0  0  0  0  0  0  0  0  0
   13.4508    3.5594   13.8214 B   0  0  0  0  0  0  0  0  0  0  0  0
   11.0245    3.9655   13.4710 B   0  0  0  0  0  0  0  0  0  0  0  0
  1  2  1  0  0  0  0
  2 36  1  0  0  0  0
  3  1  1  0  0  0  0
  4  8  1  0  0  0  0
  5 22  1  0  0  0  0
  6  9  1  0  0  0  0
  7 23  1  0  0  0  0
  8  9  4  0  0  0  0
  9 10  4  0  0  0  0
 10 11  1  0  0  0  0
 12 10  4  0  0  0  0
 13 12  1  0  0  0  0
 14 12  4  0  0  0  0
 15 14  1  0  0  0  0
 16  8  4  0  0  0  0
 17 16  1  0  0  0  0
 18  6  1  0  0  0  0
 19 18  1  0  0  0  0
 20 18  1  0  0  0  0
 21 18  1  0  0  0  0
 22 23  4  0  0  0  0
 23 24  4  0  0  0  0
 24 25  1  0  0  0  0
 26 24  4  0  0  0  0
 27 26  1  0  0  0  0
 28 26  4  0  0  0  0
 29 28  1  0  0  0  0
 30 22  4  0  0  0  0
 31 30  1  0  0  0  0
 32  7  1  0  0  0  0
 33 32  1  0  0  0  0
 34 32  1  0  0  0  0
 35 32  1  0  0  0  0
 36 37  4  0  0  0  0
 37 38  1  0  0  0  0
 39 37  4  0  0  0  0
 40 39  1  0  0  0  0
 41 39  4  0  0  0  0
 42 41  1  0  0  0  0
 43 41  4  0  0  0  0
 44 43  1  0  0  0  0
 45 36  4  0  0  0  0
 46 45  1  0  0  0  0
 47  2  1  0  0  0  0
 48 47  4  0  0  0  0
 49 48  1  0  0  0  0
 50 48  4  0  0  0  0
 51 50  1  0  0  0  0
 52 50  4  0  0  0  0
 53 52  1  0  0  0  0
 54 52  4  0  0  0  0
 55 54  1  0  0  0  0
 56 47  4  0  0  0  0
 57 56  1  0  0  0  0
 58  2  1  0  0  0  0
 59 58  4  0  0  0  0
 60 59  1  0  0  0  0
 61 59  4  0  0  0  0
 62 61  1  0  0  0  0
 63 61  4  0  0  0  0
 64 63  1  0  0  0  0
 65 63  4  0  0  0  0
 66 65  1  0  0  0  0
 67 58  4  0  0  0  0
 68 67  1  0  0  0  0
 69  3  1  0  0  0  0
 70 69  4  0  0  0  0
 71 70  1  0  0  0  0
 72 70  4  0  0  0  0
 73 72  1  0  0  0  0
 74 72  4  0  0  0  0
 75 74  1  0  0  0  0
 76 74  4  0  0  0  0
 77 76  1  0  0  0  0
 78 69  4  0  0  0  0
 79 78  1  0  0  0  0
 80  3  1  0  0  0  0
 81 80  4  0  0  0  0
 82 81  1  0  0  0  0
 83 81  4  0  0  0  0
 84 83  1  0  0  0  0
 85 83  4  0  0  0  0
 86 85  1  0  0  0  0
 87 85  4  0  0  0  0
 88 87  1  0  0  0  0
 89 80  4  0  0  0  0
 90 89  1  0  0  0  0
 91  3  1  0  0  0  0
 92 91  4  0  0  0  0
 93 92  1  0  0  0  0
 94 92  4  0  0  0  0
 95 94  1  0  0  0  0
 96 94  4  0  0  0  0
 97 96  1  0  0  0  0
 98 96  4  0  0  0  0
 99 98  1  0  0  0  0
100 91  4  0  0  0  0
101100  1  0  0  0  0
102  1  1  0  0  0  0
103  1  1  0  0  0  0
  4102  1  0  0  0  0
  5103  1  0  0  0  0
  6102  1  0  0  0  0
  7103  1  0  0  0  0
 14 16  4  0  0  0  0
 28 30  4  0  0  0  0
 43 45  4  0  0  0  0
 54 56  4  0  0  0  0
 65 67  4  0  0  0  0
 76 78  4  0  0  0  0
 87 89  4  0  0  0  0
 98100  4  0  0  0  0
M  END
$$$$
GODJAK

From CSD data. Using bond type 'Any'. No disordered atoms. Largest molecule.
137160  0  0  0  0  0  0  0  0999 V2000
    3.4182    4.4838   -2.3682 Ru  0  0  0  0  0  0  0  0  0  0  0  0
    3.3209    3.2112   -1.2510 H   0  0  0  0  0  0  0  0  0  0  0  0
    2.7070    5.8705   -0.4366 Cl  0  0  0  0  0  0  0  0  0  0  0  0
    1.1771    3.7606   -2.1744 P   0  0  0  0  0  0  0  0  0  0  0  0
    7.2313    4.6271   -1.1146 P   0  0  0  0  0  0  0  0  0  0  0  0
    3.6997    7.7790   -4.9158 P   0  0  0  0  0  0  0  0  0  0  0  0
    2.0177    4.6774   -5.2730 O   0  0  0  0  0  0  0  0  0  0  0  0
    2.0211    3.8938   -6.4696 C   0  0  0  0  0  0  0  0  0  0  0  0
    2.2644    2.9777   -6.2624 H   0  0  0  0  0  0  0  0  0  0  0  0
    2.6730    4.2476   -7.0926 H   0  0  0  0  0  0  0  0  0  0  0  0
    0.6516    3.9279   -7.0901 C   0  0  0  0  0  0  0  0  0  0  0  0
    0.0119    3.5409   -6.4734 H   0  0  0  0  0  0  0  0  0  0  0  0
    0.3967    4.8514   -7.2468 H   0  0  0  0  0  0  0  0  0  0  0  0
    0.6044    3.2162   -8.3195 O   0  0  0  0  0  0  0  0  0  0  0  0
    1.1327    3.5526   -8.8503 H   0  0  0  0  0  0  0  0  0  0  0  0
    5.3140    1.8612   -2.1431 O   0  0  0  0  0  0  0  0  0  0  0  0
    4.7380    1.2284   -1.0298 C   0  0  0  0  0  0  0  0  0  0  0  0
    5.0074    1.6931   -0.2224 H   0  0  0  0  0  0  0  0  0  0  0  0
    3.7722    1.2797   -1.0968 H   0  0  0  0  0  0  0  0  0  0  0  0
    5.1217   -0.1156   -0.9351 C   0  0  0  0  0  0  0  0  0  0  0  0
    6.0816   -0.1332   -0.7910 H   0  0  0  0  0  0  0  0  0  0  0  0
    4.7093   -0.4785   -0.1365 H   0  0  0  0  0  0  0  0  0  0  0  0
    4.8520   -0.9612   -1.9485 O   0  0  0  0  0  0  0  0  0  0  0  0
    5.2105   -0.6883   -2.6346 H   0  0  0  0  0  0  0  0  0  0  0  0
    0.7853    2.8835   -0.6015 C   0  0  0  0  0  0  0  0  0  0  0  0
   -0.4302    2.2121   -0.4903 C   0  0  0  0  0  0  0  0  0  0  0  0
   -1.0392    2.2411   -1.1928 H   0  0  0  0  0  0  0  0  0  0  0  0
   -0.7355    1.5024    0.6609 C   0  0  0  0  0  0  0  0  0  0  0  0
   -1.5368    1.0350    0.7215 H   0  0  0  0  0  0  0  0  0  0  0  0
    0.1434    1.4925    1.7046 C   0  0  0  0  0  0  0  0  0  0  0  0
   -0.0885    1.0733    2.5019 H   0  0  0  0  0  0  0  0  0  0  0  0
    1.3769    2.1072    1.5795 C   0  0  0  0  0  0  0  0  0  0  0  0
    2.0114    2.0371    2.2568 H   0  0  0  0  0  0  0  0  0  0  0  0
    1.6492    2.8158    0.4473 C   0  0  0  0  0  0  0  0  0  0  0  0
    2.4577    3.2734    0.3892 H   0  0  0  0  0  0  0  0  0  0  0  0
    0.6004    2.4896   -3.3637 C   0  0  0  0  0  0  0  0  0  0  0  0
   -0.6454    2.4634   -3.9690 C   0  0  0  0  0  0  0  0  0  0  0  0
   -1.2590    3.1419   -3.8009 H   0  0  0  0  0  0  0  0  0  0  0  0
   -0.9685    1.4485   -4.8080 C   0  0  0  0  0  0  0  0  0  0  0  0
   -1.8076    1.4403   -5.2073 H   0  0  0  0  0  0  0  0  0  0  0  0
   -0.0943    0.4380   -5.0784 C   0  0  0  0  0  0  0  0  0  0  0  0
   -0.3355   -0.2423   -5.6647 H   0  0  0  0  0  0  0  0  0  0  0  0
    1.1364    0.4260   -4.4883 C   0  0  0  0  0  0  0  0  0  0  0  0
    1.7377   -0.2600   -4.6703 H   0  0  0  0  0  0  0  0  0  0  0  0
    1.4775    1.4346   -3.6240 C   0  0  0  0  0  0  0  0  0  0  0  0
    2.3073    1.4141   -3.2045 H   0  0  0  0  0  0  0  0  0  0  0  0
   -0.1509    5.0345   -2.2530 C   0  0  0  0  0  0  0  0  0  0  0  0
   -0.4058    5.6648   -3.4736 C   0  0  0  0  0  0  0  0  0  0  0  0
    0.1103    5.4622   -4.2204 H   0  0  0  0  0  0  0  0  0  0  0  0
   -1.4351    6.5924   -3.5659 C   0  0  0  0  0  0  0  0  0  0  0  0
   -1.6211    6.9913   -4.3847 H   0  0  0  0  0  0  0  0  0  0  0  0
   -2.1861    6.9280   -2.4526 C   0  0  0  0  0  0  0  0  0  0  0  0
   -2.8887    7.5350   -2.5171 H   0  0  0  0  0  0  0  0  0  0  0  0
   -1.8733    6.3534   -1.2724 C   0  0  0  0  0  0  0  0  0  0  0  0
   -2.3608    6.5924   -0.5181 H   0  0  0  0  0  0  0  0  0  0  0  0
   -0.8537    5.4228   -1.1385 C   0  0  0  0  0  0  0  0  0  0  0  0
   -0.6486    5.0656   -0.3045 H   0  0  0  0  0  0  0  0  0  0  0  0
    7.8675    6.2630   -0.7114 C   0  0  0  0  0  0  0  0  0  0  0  0
    8.0091    6.7117    0.5850 C   0  0  0  0  0  0  0  0  0  0  0  0
    7.7617    6.1572    1.2889 H   0  0  0  0  0  0  0  0  0  0  0  0
    8.5015    7.9484    0.8555 C   0  0  0  0  0  0  0  0  0  0  0  0
    8.5727    8.2438    1.7349 H   0  0  0  0  0  0  0  0  0  0  0  0
    8.8929    8.7617   -0.1845 C   0  0  0  0  0  0  0  0  0  0  0  0
    9.2151    9.6143   -0.0051 H   0  0  0  0  0  0  0  0  0  0  0  0
    8.8175    8.3332   -1.4670 C   0  0  0  0  0  0  0  0  0  0  0  0
    9.0994    8.8837   -2.1620 H   0  0  0  0  0  0  0  0  0  0  0  0
    8.3221    7.0850   -1.7349 C   0  0  0  0  0  0  0  0  0  0  0  0
    8.2884    6.7838   -2.6131 H   0  0  0  0  0  0  0  0  0  0  0  0
    8.6780    3.6593   -1.6591 C   0  0  0  0  0  0  0  0  0  0  0  0
    8.4958    2.3903   -2.2100 C   0  0  0  0  0  0  0  0  0  0  0  0
    7.6348    2.0600   -2.3263 H   0  0  0  0  0  0  0  0  0  0  0  0
    9.5640    1.6344   -2.5803 C   0  0  0  0  0  0  0  0  0  0  0  0
    9.4393    0.7845   -2.9391 H   0  0  0  0  0  0  0  0  0  0  0  0
   10.8325    2.1440   -2.4147 C   0  0  0  0  0  0  0  0  0  0  0  0
   11.5685    1.6355   -2.6725 H   0  0  0  0  0  0  0  0  0  0  0  0
   11.0238    3.3527   -1.8929 C   0  0  0  0  0  0  0  0  0  0  0  0
   11.8929    3.6609   -1.7754 H   0  0  0  0  0  0  0  0  0  0  0  0
    9.9719    4.1642   -1.5188 C   0  0  0  0  0  0  0  0  0  0  0  0
   10.1192    5.0204   -1.1853 H   0  0  0  0  0  0  0  0  0  0  0  0
    6.6750    3.9021    0.4498 C   0  0  0  0  0  0  0  0  0  0  0  0
    7.3766    2.9271    1.0993 C   0  0  0  0  0  0  0  0  0  0  0  0
    8.1742    2.6201    0.7354 H   0  0  0  0  0  0  0  0  0  0  0  0
    6.9246    2.3873    2.2859 C   0  0  0  0  0  0  0  0  0  0  0  0
    7.3998    1.7105    2.7117 H   0  0  0  0  0  0  0  0  0  0  0  0
    5.7750    2.8674    2.8191 C   0  0  0  0  0  0  0  0  0  0  0  0
    5.4691    2.5190    3.6253 H   0  0  0  0  0  0  0  0  0  0  0  0
    5.0568    3.8437    2.2012 C   0  0  0  0  0  0  0  0  0  0  0  0
    4.2665    4.1548    2.5777 H   0  0  0  0  0  0  0  0  0  0  0  0
    5.5166    4.3671    1.0071 C   0  0  0  0  0  0  0  0  0  0  0  0
    5.0344    5.0403    0.5813 H   0  0  0  0  0  0  0  0  0  0  0  0
    2.5329    8.7286   -3.9349 C   0  0  0  0  0  0  0  0  0  0  0  0
    2.3123   10.0765   -4.1989 C   0  0  0  0  0  0  0  0  0  0  0  0
    2.7555   10.4954   -4.9002 H   0  0  0  0  0  0  0  0  0  0  0  0
    1.4420   10.7822   -3.4218 C   0  0  0  0  0  0  0  0  0  0  0  0
    1.3003   11.6840   -3.6013 H   0  0  0  0  0  0  0  0  0  0  0  0
    0.7780   10.1918   -2.3907 C   0  0  0  0  0  0  0  0  0  0  0  0
    0.1968   10.6888   -1.8600 H   0  0  0  0  0  0  0  0  0  0  0  0
    0.9743    8.8550   -2.1418 C   0  0  0  0  0  0  0  0  0  0  0  0
    0.5152    8.4346   -1.4494 H   0  0  0  0  0  0  0  0  0  0  0  0
    1.8642    8.1342   -2.9316 C   0  0  0  0  0  0  0  0  0  0  0  0
    1.9976    7.2297   -2.7635 H   0  0  0  0  0  0  0  0  0  0  0  0
    2.9917    7.5442   -6.5619 C   0  0  0  0  0  0  0  0  0  0  0  0
    3.7709    7.0025   -7.5728 C   0  0  0  0  0  0  0  0  0  0  0  0
    4.6649    6.7952   -7.4211 H   0  0  0  0  0  0  0  0  0  0  0  0
    3.1903    6.7738   -8.8300 C   0  0  0  0  0  0  0  0  0  0  0  0
    3.7065    6.4118   -9.5149 H   0  0  0  0  0  0  0  0  0  0  0  0
    1.8906    7.0718   -9.0600 C   0  0  0  0  0  0  0  0  0  0  0  0
    1.5335    6.9190   -9.9041 H   0  0  0  0  0  0  0  0  0  0  0  0
    1.1062    7.5824   -8.1073 C   0  0  0  0  0  0  0  0  0  0  0  0
    0.2095    7.7589   -8.2816 H   0  0  0  0  0  0  0  0  0  0  0  0
    1.6559    7.8537   -6.8234 C   0  0  0  0  0  0  0  0  0  0  0  0
    1.1255    8.2339   -6.1601 H   0  0  0  0  0  0  0  0  0  0  0  0
    5.1053    8.9429   -5.1252 C   0  0  0  0  0  0  0  0  0  0  0  0
    5.9026    9.2143   -4.0322 C   0  0  0  0  0  0  0  0  0  0  0  0
    5.8229    8.6966   -3.2639 H   0  0  0  0  0  0  0  0  0  0  0  0
    6.8061   10.2328   -4.0650 C   0  0  0  0  0  0  0  0  0  0  0  0
    7.3239   10.4357   -3.3195 H   0  0  0  0  0  0  0  0  0  0  0  0
    6.9378   10.9452   -5.2124 C   0  0  0  0  0  0  0  0  0  0  0  0
    7.5667   11.6293   -5.2427 H   0  0  0  0  0  0  0  0  0  0  0  0
    6.1464   10.6869   -6.3799 C   0  0  0  0  0  0  0  0  0  0  0  0
    6.2501   11.1855   -7.1596 H   0  0  0  0  0  0  0  0  0  0  0  0
    5.2652    9.7062   -6.2940 C   0  0  0  0  0  0  0  0  0  0  0  0
    4.7327    9.5142   -7.0319 H   0  0  0  0  0  0  0  0  0  0  0  0
    3.1704    4.6978   -4.4757 B   0  0  0  0  0  0  0  0  0  0  0  0
    4.1733    6.1031   -4.0915 B   0  0  0  0  0  0  0  0  0  0  0  0
    4.8941    6.1115   -2.5499 B   0  0  0  0  0  0  0  0  0  0  0  0
    5.0454    7.0040   -1.9080 H   0  0  0  0  0  0  0  0  0  0  0  0
    5.8018    4.6855   -2.4261 B   0  0  0  0  0  0  0  0  0  0  0  0
    4.9305    3.1183   -2.6510 B   0  0  0  0  0  0  0  0  0  0  0  0
    4.2316    3.3200   -4.2305 B   0  0  0  0  0  0  0  0  0  0  0  0
    3.9105    2.2518   -4.6501 H   0  0  0  0  0  0  0  0  0  0  0  0
    4.8504    4.7703   -5.0822 B   0  0  0  0  0  0  0  0  0  0  0  0
    5.1445    4.8429   -6.2675 H   0  0  0  0  0  0  0  0  0  0  0  0
    5.8909    5.6151   -3.9260 B   0  0  0  0  0  0  0  0  0  0  0  0
    6.8179    6.2338   -4.3089 H   0  0  0  0  0  0  0  0  0  0  0  0
    5.8973    3.8249   -3.9803 B   0  0  0  0  0  0  0  0  0  0  0  0
    6.6628    3.3498   -4.3721 H   0  0  0  0  0  0  0  0  0  0  0  0
  1  2  1  0  0  0  0
  3  1  1  0  0  0  0
  4  1  1  0  0  0  0
  5 58  1  0  0  0  0
  6 91  1  0  0  0  0
  7  8  1  0  0  0  0
  8  9  1  0  0  0  0
 10  8  1  0  0  0  0
 11  8  1  0  0  0  0
 12 11  1  0  0  0  0
 13 11  1  0  0  0  0
 14 11  1  0  0  0  0
 15 14  1  0  0  0  0
 16 17  1  0  0  0  0
 17 18  1  0  0  0  0
 19 17  1  0  0  0  0
 20 17  1  0  0  0  0
 21 20  1  0  0  0  0
 22 20  1  0  0  0  0
 23 20  1  0  0  0  0
 24 23  1  0  0  0  0
 25  4  1  0  0  0  0
 26 25  4  0  0  0  0
 27 26  1  0  0  0  0
 28 26  4  0  0  0  0
 29 28  1  0  0  0  0
 30 28  4  0  0  0  0
 31 30  1  0  0  0  0
 32 30  4  0  0  0  0
 33 32  1  0  0  0  0
 34 25  4  0  0  0  0
 35 34  1  0  0  0  0
 36  4  1  0  0  0  0
 37 36  4  0  0  0  0
 38 37  1  0  0  0  0
 39 37  4  0  0  0  0
 40 39  1  0  0  0  0
 41 39  4  0  0  0  0
 42 41  1  0  0  0  0
 43 41  4  0  0  0  0
 44 43  1  0  0  0  0
 45 36  4  0  0  0  0
 46 45  1  0  0  0  0
 47  4  1  0  0  0  0
 48 47  4  0  0  0  0
 49 48  1  0  0  0  0
 50 48  4  0  0  0  0
 51 50  1  0  0  0  0
 52 50  4  0  0  0  0
 53 52  1  0  0  0  0
 54 52  4  0  0  0  0
 55 54  1  0  0  0  0
 56 47  4  0  0  0  0
 57 56  1  0  0  0  0
 58 59  4  0  0  0  0
 59 60  1  0  0  0  0
 61 59  4  0  0  0  0
 62 61  1  0  0  0  0
 63 61  4  0  0  0  0
 64 63  1  0  0  0  0
 65 63  4  0  0  0  0
 66 65  1  0  0  0  0
 67 58  4  0  0  0  0
 68 67  1  0  0  0  0
 69  5  1  0  0  0  0
 70 69  4  0  0  0  0
 71 70  1  0  0  0  0
 72 70  4  0  0  0  0
 73 72  1  0  0  0  0
 74 72  4  0  0  0  0
 75 74  1  0  0  0  0
 76 74  4  0  0  0  0
 77 76  1  0  0  0  0
 78 69  4  0  0  0  0
 79 78  1  0  0  0  0
 80  5  1  0  0  0  0
 81 80  4  0  0  0  0
 82 81  1  0  0  0  0
 83 81  4  0  0  0  0
 84 83  1  0  0  0  0
 85 83  4  0  0  0  0
 86 85  1  0  0  0  0
 87 85  4  0  0  0  0
 88 87  1  0  0  0  0
 89 80  4  0  0  0  0
 90 89  1  0  0  0  0
 91 92  4  0  0  0  0
 92 93  1  0  0  0  0
 94 92  4  0  0  0  0
 95 94  1  0  0  0  0
 96 94  4  0  0  0  0
 97 96  1  0  0  0  0
 98 96  4  0  0  0  0
 99 98  1  0  0  0  0
100 91  4  0  0  0  0
101100  1  0  0  0  0
102  6  1  0  0  0  0
103102  4  0  0  0  0
104103  1  0  0  0  0
105103  4  0  0  0  0
106105  1  0  0  0  0
107105  4  0  0  0  0
108107  1  0  0  0  0
109107  4  0  0  0  0
110109  1  0  0  0  0
111102  4  0  0  0  0
112111  1  0  0  0  0
113  6  1  0  0  0  0
114113  4  0  0  0  0
115114  1  0  0  0  0
116114  4  0  0  0  0
117116  1  0  0  0  0
118116  4  0  0  0  0
119118  1  0  0  0  0
120118  4  0  0  0  0
121120  1  0  0  0  0
122113  4  0  0  0  0
123122  1  0  0  0  0
124  1  1  0  0  0  0
125  1  1  0  0  0  0
126  1  1  0  0  0  0
127126  1  0  0  0  0
128  1  1  0  0  0  0
129  1  1  0  0  0  0
130  1  1  0  0  0  0
131130  1  0  0  0  0
132124  1  0  0  0  0
133132  1  0  0  0  0
134125  1  0  0  0  0
135134  1  0  0  0  0
136128  1  0  0  0  0
137136  1  0  0  0  0
  5128  1  0  0  0  0
  6125  1  0  0  0  0
  7124  1  0  0  0  0
 16129  1  0  0  0  0
 32 34  4  0  0  0  0
 43 45  4  0  0  0  0
 54 56  4  0  0  0  0
 65 67  4  0  0  0  0
 76 78  4  0  0  0  0
 87 89  4  0  0  0  0
 98100  4  0  0  0  0
109111  4  0  0  0  0
120122  4  0  0  0  0
124125  1  0  0  0  0
124130  1  0  0  0  0
125126  1  0  0  0  0
125132  1  0  0  0  0
126128  1  0  0  0  0
126134  1  0  0  0  0
128129  1  0  0  0  0
128134  1  0  0  0  0
129130  1  0  0  0  0
129136  1  0  0  0  0
130132  1  0  0  0  0
130136  1  0  0  0  0
132134  1  0  0  0  0
132136  1  0  0  0  0
134136  1  0  0  0  0
M  END
$$$$
GOPRUC

From CSD data. Using bond type 'Any'. No disordered atoms. Largest molecule.
100123  0  0  0  0  0  0  0  0999 V2000
   12.1888    9.1694   11.0952 P   0  0  0  0  0  0  0  0  0  0  0  0
    9.1293    8.7951   11.9350 P   0  0  0  0  0  0  0  0  0  0  0  0
    2.7980   12.3799    4.4591 Si  0  0  0  0  0  0  0  0  0  0  0  0
    4.2639   11.7136    4.0467 O   0  0  0  0  0  0  0  0  0  0  0  0
   10.9812    9.8286    9.8110 C   0  0  0  0  0  0  0  0  0  0  0  0
    9.3429    9.4944   10.2005 C   0  0  0  0  0  0  0  0  0  0  0  0
   12.6232   10.6308   12.1040 C   0  0  0  0  0  0  0  0  0  0  0  0
   12.5117   10.4327   13.4714 C   0  0  0  0  0  0  0  0  0  0  0  0
   12.8164   11.4423   14.3600 C   0  0  0  0  0  0  0  0  0  0  0  0
   13.2302   12.6717   13.8995 C   0  0  0  0  0  0  0  0  0  0  0  0
   13.3546   12.8919   12.5454 C   0  0  0  0  0  0  0  0  0  0  0  0
   13.0510   11.8814   11.6576 C   0  0  0  0  0  0  0  0  0  0  0  0
   13.6458    8.8383   10.0496 C   0  0  0  0  0  0  0  0  0  0  0  0
   13.8046    7.5314    9.6676 C   0  0  0  0  0  0  0  0  0  0  0  0
   14.8404    7.1466    8.8535 C   0  0  0  0  0  0  0  0  0  0  0  0
   15.7834    8.0489    8.4548 C   0  0  0  0  0  0  0  0  0  0  0  0
   15.6489    9.3567    8.8350 C   0  0  0  0  0  0  0  0  0  0  0  0
   14.5921    9.7476    9.6320 C   0  0  0  0  0  0  0  0  0  0  0  0
    9.0313    6.9804   11.7035 C   0  0  0  0  0  0  0  0  0  0  0  0
    8.2206    6.2689   10.8276 C   0  0  0  0  0  0  0  0  0  0  0  0
    8.2492    4.8857   10.8073 C   0  0  0  0  0  0  0  0  0  0  0  0
    9.0778    4.1930   11.6522 C   0  0  0  0  0  0  0  0  0  0  0  0
    9.8992    4.8835   12.5005 C   0  0  0  0  0  0  0  0  0  0  0  0
    9.8850    6.2701   12.5340 C   0  0  0  0  0  0  0  0  0  0  0  0
    7.4266    9.3368   12.3334 C   0  0  0  0  0  0  0  0  0  0  0  0
    6.2597    8.6115   12.1137 C   0  0  0  0  0  0  0  0  0  0  0  0
    5.0460    9.1039   12.5746 C   0  0  0  0  0  0  0  0  0  0  0  0
    4.9726   10.2942   13.2361 C   0  0  0  0  0  0  0  0  0  0  0  0
    6.1131   11.0234   13.4614 C   0  0  0  0  0  0  0  0  0  0  0  0
    7.3367   10.5435   13.0173 C   0  0  0  0  0  0  0  0  0  0  0  0
    7.3325   10.9022    6.7813 C   0  0  0  0  0  0  0  0  0  0  0  0
    6.5345    9.9043    6.2464 C   0  0  0  0  0  0  0  0  0  0  0  0
    5.5191   10.1662    5.3529 C   0  0  0  0  0  0  0  0  0  0  0  0
    5.2665   11.4553    4.9668 C   0  0  0  0  0  0  0  0  0  0  0  0
    6.0507   12.4742    5.4577 C   0  0  0  0  0  0  0  0  0  0  0  0
    7.0637   12.1959    6.3500 C   0  0  0  0  0  0  0  0  0  0  0  0
    2.2970   11.7285    6.1121 C   0  0  0  0  0  0  0  0  0  0  0  0
    2.9490   14.2201    4.5551 C   0  0  0  0  0  0  0  0  0  0  0  0
    1.6476   11.8625    3.0742 C   0  0  0  0  0  0  0  0  0  0  0  0
    2.2954   12.1907    1.7329 C   0  0  0  0  0  0  0  0  0  0  0  0
    0.3201   12.6142    3.1950 C   0  0  0  0  0  0  0  0  0  0  0  0
    1.3729   10.3655    3.1408 C   0  0  0  0  0  0  0  0  0  0  0  0
   10.1360    8.5432    9.0172 B   0  0  0  0  0  0  0  0  0  0  0  0
   11.2110    9.6402    8.1262 B   0  0  0  0  0  0  0  0  0  0  0  0
   11.0824   11.2396    8.8575 B   0  0  0  0  0  0  0  0  0  0  0  0
    9.9338   11.1285   10.2189 B   0  0  0  0  0  0  0  0  0  0  0  0
    8.3404   10.7079    9.5429 B   0  0  0  0  0  0  0  0  0  0  0  0
    8.4663    9.1182    8.7971 B   0  0  0  0  0  0  0  0  0  0  0  0
    9.6252    9.2020    7.4702 B   0  0  0  0  0  0  0  0  0  0  0  0
   10.2050   10.8854    7.3720 B   0  0  0  0  0  0  0  0  0  0  0  0
    9.4241   11.8189    8.6809 B   0  0  0  0  0  0  0  0  0  0  0  0
    8.5060   10.5698    7.7724 B   0  0  0  0  0  0  0  0  0  0  0  0
   10.4057    7.5318    9.2741 H   0  0  0  0  0  0  0  0  0  0  0  0
   12.1761    9.2562    7.7943 H   0  0  0  0  0  0  0  0  0  0  0  0
   11.9774   11.8712    8.9719 H   0  0  0  0  0  0  0  0  0  0  0  0
   10.0479   11.5842   11.1788 H   0  0  0  0  0  0  0  0  0  0  0  0
    7.4715   10.9887   10.1139 H   0  0  0  0  0  0  0  0  0  0  0  0
    7.6294    8.4170    8.8692 H   0  0  0  0  0  0  0  0  0  0  0  0
    9.5450    8.5732    6.6067 H   0  0  0  0  0  0  0  0  0  0  0  0
   10.5123   11.3331    6.4099 H   0  0  0  0  0  0  0  0  0  0  0  0
    9.2053   12.8685    8.6069 H   0  0  0  0  0  0  0  0  0  0  0  0
   12.2149    9.5779   13.7736 H   0  0  0  0  0  0  0  0  0  0  0  0
   12.6803   11.2819   15.2848 H   0  0  0  0  0  0  0  0  0  0  0  0
   13.4303   13.4187   14.5078 H   0  0  0  0  0  0  0  0  0  0  0  0
   13.6512   13.7238   12.1996 H   0  0  0  0  0  0  0  0  0  0  0  0
   13.1477   12.0375   10.7141 H   0  0  0  0  0  0  0  0  0  0  0  0
   13.1885    6.9362    9.9798 H   0  0  0  0  0  0  0  0  0  0  0  0
   14.9430    6.2640    8.6112 H   0  0  0  0  0  0  0  0  0  0  0  0
   16.4854    7.8092    7.8784 H   0  0  0  0  0  0  0  0  0  0  0  0
   16.2984   10.0284    8.5256 H   0  0  0  0  0  0  0  0  0  0  0  0
   14.5634   10.7174    9.9228 H   0  0  0  0  0  0  0  0  0  0  0  0
    7.6511    6.7064   10.2365 H   0  0  0  0  0  0  0  0  0  0  0  0
    7.6812    4.4153   10.2065 H   0  0  0  0  0  0  0  0  0  0  0  0
    9.1020    3.2383   11.6294 H   0  0  0  0  0  0  0  0  0  0  0  0
   10.4468    4.4707   13.0736 H   0  0  0  0  0  0  0  0  0  0  0  0
   10.4469    6.8039   13.1663 H   0  0  0  0  0  0  0  0  0  0  0  0
    6.2501    7.7691   11.6636 H   0  0  0  0  0  0  0  0  0  0  0  0
    4.2658    8.5535   12.3850 H   0  0  0  0  0  0  0  0  0  0  0  0
    4.1024   10.6008   13.6154 H   0  0  0  0  0  0  0  0  0  0  0  0
    6.1373   11.8731   13.9433 H   0  0  0  0  0  0  0  0  0  0  0  0
    8.1717   11.0215   13.1905 H   0  0  0  0  0  0  0  0  0  0  0  0
    6.7006    9.0178    6.4983 H   0  0  0  0  0  0  0  0  0  0  0  0
    4.9845    9.4343    4.9942 H   0  0  0  0  0  0  0  0  0  0  0  0
    5.8643   13.3321    5.2080 H   0  0  0  0  0  0  0  0  0  0  0  0
    7.5513   12.8598    6.6737 H   0  0  0  0  0  0  0  0  0  0  0  0
    2.8622   12.0668    6.7863 H   0  0  0  0  0  0  0  0  0  0  0  0
    1.4186   12.0654    6.3728 H   0  0  0  0  0  0  0  0  0  0  0  0
    2.3299   10.7894    6.1020 H   0  0  0  0  0  0  0  0  0  0  0  0
    3.1866   14.5968    3.7068 H   0  0  0  0  0  0  0  0  0  0  0  0
    2.0983   14.6615    4.8545 H   0  0  0  0  0  0  0  0  0  0  0  0
    3.6473   14.4820    5.2266 H   0  0  0  0  0  0  0  0  0  0  0  0
    1.6888   12.0057    0.9695 H   0  0  0  0  0  0  0  0  0  0  0  0
    2.4826   13.1482    1.6681 H   0  0  0  0  0  0  0  0  0  0  0  0
    3.1586   11.6501    1.5740 H   0  0  0  0  0  0  0  0  0  0  0  0
    0.4983   13.6062    3.0225 H   0  0  0  0  0  0  0  0  0  0  0  0
   -0.3039   12.2904    2.4935 H   0  0  0  0  0  0  0  0  0  0  0  0
   -0.1586   12.4451    4.0632 H   0  0  0  0  0  0  0  0  0  0  0  0
    0.8071   10.1082    2.4094 H   0  0  0  0  0  0  0  0  0  0  0  0
    0.9040   10.1174    4.0062 H   0  0  0  0  0  0  0  0  0  0  0  0
    2.2498    9.8602    3.0652 H   0  0  0  0  0  0  0  0  0  0  0  0
  1  5  1  0  0  0  0
  2  6  1  0  0  0  0
  3  4  1  0  0  0  0
  4 34  1  0  0  0  0
  5  6  1  0  0  0  0
  6 43  1  0  0  0  0
  7  1  1  0  0  0  0
  8  7  4  0  0  0  0
  9  8  4  0  0  0  0
 10  9  4  0  0  0  0
 11 10  4  0  0  0  0
 12  7  4  0  0  0  0
 13  1  1  0  0  0  0
 14 13  4  0  0  0  0
 15 14  4  0  0  0  0
 16 15  4  0  0  0  0
 17 16  4  0  0  0  0
 18 13  4  0  0  0  0
 19  2  1  0  0  0  0
 20 19  4  0  0  0  0
 21 20  4  0  0  0  0
 22 21  4  0  0  0  0
 23 22  4  0  0  0  0
 24 19  4  0  0  0  0
 25  2  1  0  0  0  0
 26 25  4  0  0  0  0
 27 26  4  0  0  0  0
 28 27  4  0  0  0  0
 29 28  4  0  0  0  0
 30 25  4  0  0  0  0
 31 32  4  0  0  0  0
 32 33  4  0  0  0  0
 33 34  4  0  0  0  0
 34 35  4  0  0  0  0
 35 36  4  0  0  0  0
 36 31  4  0  0  0  0
 37  3  1  0  0  0  0
 38  3  1  0  0  0  0
 39  3  1  0  0  0  0
 40 39  1  0  0  0  0
 41 39  1  0  0  0  0
 42 39  1  0  0  0  0
 43  5  1  0  0  0  0
 44  5  1  0  0  0  0
 45  5  1  0  0  0  0
 46  5  1  0  0  0  0
 47  6  1  0  0  0  0
 48  6  1  0  0  0  0
 49 43  1  0  0  0  0
 50 44  1  0  0  0  0
 51 45  1  0  0  0  0
 52 31  1  0  0  0  0
 53 43  1  0  0  0  0
 54 44  1  0  0  0  0
 55 45  1  0  0  0  0
 56 46  1  0  0  0  0
 57 47  1  0  0  0  0
 58 48  1  0  0  0  0
 59 49  1  0  0  0  0
 60 50  1  0  0  0  0
 61 51  1  0  0  0  0
 62  8  1  0  0  0  0
 63  9  1  0  0  0  0
 64 10  1  0  0  0  0
 65 11  1  0  0  0  0
 66 12  1  0  0  0  0
 67 14  1  0  0  0  0
 68 15  1  0  0  0  0
 69 16  1  0  0  0  0
 70 17  1  0  0  0  0
 71 18  1  0  0  0  0
 72 20  1  0  0  0  0
 73 21  1  0  0  0  0
 74 22  1  0  0  0  0
 75 23  1  0  0  0  0
 76 24  1  0  0  0  0
 77 26  1  0  0  0  0
 78 27  1  0  0  0  0
 79 28  1  0  0  0  0
 80 29  1  0  0  0  0
 81 30  1  0  0  0  0
 82 32  1  0  0  0  0
 83 33  1  0  0  0  0
 84 35  1  0  0  0  0
 85 36  1  0  0  0  0
 86 37  1  0  0  0  0
 87 37  1  0  0  0  0
 88 37  1  0  0  0  0
 89 38  1  0  0  0  0
 90 38  1  0  0  0  0
 91 38  1  0  0  0  0
 92 40  1  0  0  0  0
 93 40  1  0  0  0  0
 94 40  1  0  0  0  0
 95 41  1  0  0  0  0
 96 41  1  0  0  0  0
 97 41  1  0  0  0  0
 98 42  1  0  0  0  0
 99 42  1  0  0  0  0
100 42  1  0  0  0  0
  6 46  1  0  0  0  0
 11 12  4  0  0  0  0
 17 18  4  0  0  0  0
 23 24  4  0  0  0  0
 29 30  4  0  0  0  0
 43 44  1  0  0  0  0
 43 48  1  0  0  0  0
 44 45  1  0  0  0  0
 44 49  1  0  0  0  0
 45 46  1  0  0  0  0
 45 50  1  0  0  0  0
 46 47  1  0  0  0  0
 46 51  1  0  0  0  0
 47 48  1  0  0  0  0
 47 51  1  0  0  0  0
 47 52  1  0  0  0  0
 48 49  1  0  0  0  0
 48 52  1  0  0  0  0
 49 50  1  0  0  0  0
 49 52  1  0  0  0  0
 50 51  1  0  0  0  0
 50 52  1  0  0  0  0
 51 52  1  0  0  0  0
M  END
$$$$
GOPSAJ

From CSD data. Using bond type 'Any'. No disordered atoms. Largest molecule.
 82105  0  0  0  0  0  0  0  0999 V2000
    1.1506    4.3117   14.0553 P   0  0  0  0  0  0  0  0  0  0  0  0
    0.4571    5.0172   17.0249 P   0  0  0  0  0  0  0  0  0  0  0  0
   -1.5654   12.5130    9.3782 O   0  0  0  0  0  0  0  0  0  0  0  0
    0.3317    6.0065   14.2036 C   0  0  0  0  0  0  0  0  0  0  0  0
   -0.1968    6.2931   15.8106 C   0  0  0  0  0  0  0  0  0  0  0  0
    0.9495    3.8991   12.2911 C   0  0  0  0  0  0  0  0  0  0  0  0
   -0.3098    3.4498   11.8864 C   0  0  0  0  0  0  0  0  0  0  0  0
   -0.5092    2.9461   10.6105 C   0  0  0  0  0  0  0  0  0  0  0  0
    0.5498    2.8642    9.7278 C   0  0  0  0  0  0  0  0  0  0  0  0
    1.8089    3.2775   10.1150 C   0  0  0  0  0  0  0  0  0  0  0  0
    2.0131    3.7954   11.3901 C   0  0  0  0  0  0  0  0  0  0  0  0
    2.9356    4.6590   14.2502 C   0  0  0  0  0  0  0  0  0  0  0  0
    3.6960    5.6011   13.5554 C   0  0  0  0  0  0  0  0  0  0  0  0
    5.0548    5.7385   13.8093 C   0  0  0  0  0  0  0  0  0  0  0  0
    5.6706    4.9220   14.7453 C   0  0  0  0  0  0  0  0  0  0  0  0
    4.9311    3.9789   15.4311 C   0  0  0  0  0  0  0  0  0  0  0  0
    3.5689    3.8539   15.1906 C   0  0  0  0  0  0  0  0  0  0  0  0
    0.4582    5.9406   18.6052 C   0  0  0  0  0  0  0  0  0  0  0  0
    1.7212    6.3280   19.0613 C   0  0  0  0  0  0  0  0  0  0  0  0
    1.8646    6.9265   20.3049 C   0  0  0  0  0  0  0  0  0  0  0  0
    0.7660    7.1309   21.1048 C   0  0  0  0  0  0  0  0  0  0  0  0
   -0.4933    6.7717   20.6600 C   0  0  0  0  0  0  0  0  0  0  0  0
   -0.6528    6.1853   19.4093 C   0  0  0  0  0  0  0  0  0  0  0  0
   -0.8960    3.8134   17.2682 C   0  0  0  0  0  0  0  0  0  0  0  0
   -0.4320    2.5199   17.4776 C   0  0  0  0  0  0  0  0  0  0  0  0
   -1.2976    1.4976   17.8440 C   0  0  0  0  0  0  0  0  0  0  0  0
   -2.6488    1.7621   17.9634 C   0  0  0  0  0  0  0  0  0  0  0  0
   -3.1376    3.0290   17.7098 C   0  0  0  0  0  0  0  0  0  0  0  0
   -2.2754    4.0602   17.3724 C   0  0  0  0  0  0  0  0  0  0  0  0
   -1.0141    9.5047   12.2341 C   0  0  0  0  0  0  0  0  0  0  0  0
   -1.4269    9.1769   10.9481 C   0  0  0  0  0  0  0  0  0  0  0  0
   -1.6319   10.1412    9.9586 C   0  0  0  0  0  0  0  0  0  0  0  0
   -1.4141   11.4771   10.2642 C   0  0  0  0  0  0  0  0  0  0  0  0
   -1.0027   11.8355   11.5354 C   0  0  0  0  0  0  0  0  0  0  0  0
   -0.8091   10.8614   12.4963 C   0  0  0  0  0  0  0  0  0  0  0  0
   -2.0605   12.1973    8.0938 C   0  0  0  0  0  0  0  0  0  0  0  0
   -1.4424   11.5809    7.6482 H   0  0  0  0  0  0  0  0  0  0  0  0
   -2.1417   13.0179    7.5644 H   0  0  0  0  0  0  0  0  0  0  0  0
   -2.9402   11.7740    8.1778 H   0  0  0  0  0  0  0  0  0  0  0  0
   -1.3528    5.8859   14.6113 B   0  0  0  0  0  0  0  0  0  0  0  0
   -0.8120    6.6644   13.1076 B   0  0  0  0  0  0  0  0  0  0  0  0
    0.7249    7.4769   13.4376 B   0  0  0  0  0  0  0  0  0  0  0  0
    1.1292    7.1925   15.1410 B   0  0  0  0  0  0  0  0  0  0  0  0
   -0.1141    7.9720   16.1397 B   0  0  0  0  0  0  0  0  0  0  0  0
   -1.6592    7.1717   15.8111 B   0  0  0  0  0  0  0  0  0  0  0  0
   -2.0697    7.4221   14.1095 B   0  0  0  0  0  0  0  0  0  0  0  0
   -0.7760    8.4359   13.3700 B   0  0  0  0  0  0  0  0  0  0  0  0
    0.4482    8.7375   14.6480 B   0  0  0  0  0  0  0  0  0  0  0  0
   -1.2931    8.7248   15.0483 B   0  0  0  0  0  0  0  0  0  0  0  0
   -1.7706    4.9194   14.5896 H   0  0  0  0  0  0  0  0  0  0  0  0
   -0.9458    6.1821   12.1892 H   0  0  0  0  0  0  0  0  0  0  0  0
    1.5241    7.4686   12.6895 H   0  0  0  0  0  0  0  0  0  0  0  0
    2.1066    6.9671   15.4866 H   0  0  0  0  0  0  0  0  0  0  0  0
    0.1411    8.2700   17.1285 H   0  0  0  0  0  0  0  0  0  0  0  0
   -2.3631    6.9986   16.6442 H   0  0  0  0  0  0  0  0  0  0  0  0
   -3.1018    7.4611   13.7733 H   0  0  0  0  0  0  0  0  0  0  0  0
    1.0811    9.6272   14.6703 H   0  0  0  0  0  0  0  0  0  0  0  0
   -1.8203    9.6398   15.3667 H   0  0  0  0  0  0  0  0  0  0  0  0
   -1.0730    3.4955   12.5258 H   0  0  0  0  0  0  0  0  0  0  0  0
   -1.3736    2.6286   10.3582 H   0  0  0  0  0  0  0  0  0  0  0  0
    0.4275    2.5089    8.8848 H   0  0  0  0  0  0  0  0  0  0  0  0
    2.5455    3.2007    9.5327 H   0  0  0  0  0  0  0  0  0  0  0  0
    2.9111    4.0399   11.6588 H   0  0  0  0  0  0  0  0  0  0  0  0
    3.2315    6.1846   12.8740 H   0  0  0  0  0  0  0  0  0  0  0  0
    5.5645    6.4177   13.3052 H   0  0  0  0  0  0  0  0  0  0  0  0
    6.5630    5.0278   14.9286 H   0  0  0  0  0  0  0  0  0  0  0  0
    5.3272    3.4199   16.1092 H   0  0  0  0  0  0  0  0  0  0  0  0
    3.0612    3.1805   15.6619 H   0  0  0  0  0  0  0  0  0  0  0  0
    2.4959    6.1329   18.5235 H   0  0  0  0  0  0  0  0  0  0  0  0
    2.7920    7.2002   20.5874 H   0  0  0  0  0  0  0  0  0  0  0  0
    0.8771    7.5593   21.9847 H   0  0  0  0  0  0  0  0  0  0  0  0
   -1.2607    6.9192   21.2261 H   0  0  0  0  0  0  0  0  0  0  0  0
   -1.5498    5.9124   19.1069 H   0  0  0  0  0  0  0  0  0  0  0  0
    0.4829    2.3249   17.3844 H   0  0  0  0  0  0  0  0  0  0  0  0
   -0.9298    0.5859   17.9563 H   0  0  0  0  0  0  0  0  0  0  0  0
   -3.2413    1.0434   18.1892 H   0  0  0  0  0  0  0  0  0  0  0  0
   -4.1127    3.2183   17.8248 H   0  0  0  0  0  0  0  0  0  0  0  0
   -2.6413    4.9585   17.2046 H   0  0  0  0  0  0  0  0  0  0  0  0
   -1.5898    8.2726   10.7226 H   0  0  0  0  0  0  0  0  0  0  0  0
   -1.9414    9.9208    9.1015 H   0  0  0  0  0  0  0  0  0  0  0  0
   -0.8367   12.7799   11.7095 H   0  0  0  0  0  0  0  0  0  0  0  0
   -0.5161   11.1128   13.3767 H   0  0  0  0  0  0  0  0  0  0  0  0
  1  4  1  0  0  0  0
  2  5  1  0  0  0  0
  3 33  1  0  0  0  0
  4  5  1  0  0  0  0
  5 40  1  0  0  0  0
  6  1  1  0  0  0  0
  7  6  4  0  0  0  0
  8  7  4  0  0  0  0
  9  8  4  0  0  0  0
 10  9  4  0  0  0  0
 11  6  4  0  0  0  0
 12  1  1  0  0  0  0
 13 12  4  0  0  0  0
 14 13  4  0  0  0  0
 15 14  4  0  0  0  0
 16 15  4  0  0  0  0
 17 12  4  0  0  0  0
 18  2  1  0  0  0  0
 19 18  4  0  0  0  0
 20 19  4  0  0  0  0
 21 20  4  0  0  0  0
 22 21  4  0  0  0  0
 23 18  4  0  0  0  0
 24  2  1  0  0  0  0
 25 24  4  0  0  0  0
 26 25  4  0  0  0  0
 27 26  4  0  0  0  0
 28 27  4  0  0  0  0
 29 24  4  0  0  0  0
 30 31  4  0  0  0  0
 31 32  4  0  0  0  0
 32 33  4  0  0  0  0
 33 34  4  0  0  0  0
 34 35  4  0  0  0  0
 35 30  4  0  0  0  0
 36  3  1  0  0  0  0
 37 36  1  0  0  0  0
 38 36  1  0  0  0  0
 39 36  1  0  0  0  0
 40  4  1  0  0  0  0
 41  4  1  0  0  0  0
 42  4  1  0  0  0  0
 43  4  1  0  0  0  0
 44  5  1  0  0  0  0
 45  5  1  0  0  0  0
 46 40  1  0  0  0  0
 47 30  1  0  0  0  0
 48 42  1  0  0  0  0
 49 44  1  0  0  0  0
 50 40  1  0  0  0  0
 51 41  1  0  0  0  0
 52 42  1  0  0  0  0
 53 43  1  0  0  0  0
 54 44  1  0  0  0  0
 55 45  1  0  0  0  0
 56 46  1  0  0  0  0
 57 48  1  0  0  0  0
 58 49  1  0  0  0  0
 59  7  1  0  0  0  0
 60  8  1  0  0  0  0
 61  9  1  0  0  0  0
 62 10  1  0  0  0  0
 63 11  1  0  0  0  0
 64 13  1  0  0  0  0
 65 14  1  0  0  0  0
 66 15  1  0  0  0  0
 67 16  1  0  0  0  0
 68 17  1  0  0  0  0
 69 19  1  0  0  0  0
 70 20  1  0  0  0  0
 71 21  1  0  0  0  0
 72 22  1  0  0  0  0
 73 23  1  0  0  0  0
 74 25  1  0  0  0  0
 75 26  1  0  0  0  0
 76 27  1  0  0  0  0
 77 28  1  0  0  0  0
 78 29  1  0  0  0  0
 79 31  1  0  0  0  0
 80 32  1  0  0  0  0
 81 34  1  0  0  0  0
 82 35  1  0  0  0  0
  5 43  1  0  0  0  0
 10 11  4  0  0  0  0
 16 17  4  0  0  0  0
 22 23  4  0  0  0  0
 28 29  4  0  0  0  0
 40 41  1  0  0  0  0
 40 45  1  0  0  0  0
 41 42  1  0  0  0  0
 41 46  1  0  0  0  0
 41 47  1  0  0  0  0
 42 43  1  0  0  0  0
 42 47  1  0  0  0  0
 43 44  1  0  0  0  0
 43 48  1  0  0  0  0
 44 45  1  0  0  0  0
 44 48  1  0  0  0  0
 45 46  1  0  0  0  0
 45 49  1  0  0  0  0
 46 47  1  0  0  0  0
 46 49  1  0  0  0  0
 47 48  1  0  0  0  0
 47 49  1  0  0  0  0
 48 49  1  0  0  0  0
M  END
$$$$
GOPSIR

From CSD data. Using bond type 'Any'. Matching problem. No disordered atoms. Largest molecule.
 79102  0  0  0  0  0  0  0  0999 V2000
    8.6518    1.8428    1.4708 P   0  0  0  0  0  0  0  0  0  0  0  0
    9.7203    4.4838   -0.0270 P   0  0  0  0  0  0  0  0  0  0  0  0
    6.2368    4.5795   10.2852 O   0  0  0  0  0  0  0  0  0  0  0  0
    8.6474    3.3889    2.5470 C   0  0  0  0  0  0  0  0  0  0  0  0
    9.0364    4.8035    1.6934 C   0  0  0  0  0  0  0  0  0  0  0  0
    7.5860    0.7452    2.4757 C   0  0  0  0  0  0  0  0  0  0  0  0
    7.9463    0.0622    3.6320 C   0  0  0  0  0  0  0  0  0  0  0  0
    7.0081   -0.6672    4.3415 C   0  0  0  0  0  0  0  0  0  0  0  0
    5.7068   -0.7213    3.9168 C   0  0  0  0  0  0  0  0  0  0  0  0
    5.3292   -0.0691    2.7763 C   0  0  0  0  0  0  0  0  0  0  0  0
    6.2705    0.6453    2.0412 C   0  0  0  0  0  0  0  0  0  0  0  0
   10.3288    1.1435    1.6113 C   0  0  0  0  0  0  0  0  0  0  0  0
   11.0704    0.9023    2.7573 C   0  0  0  0  0  0  0  0  0  0  0  0
   12.3075    0.2753    2.6608 C   0  0  0  0  0  0  0  0  0  0  0  0
   12.8027   -0.0886    1.4387 C   0  0  0  0  0  0  0  0  0  0  0  0
   12.0841    0.1502    0.2913 C   0  0  0  0  0  0  0  0  0  0  0  0
   10.8552    0.7671    0.3787 C   0  0  0  0  0  0  0  0  0  0  0  0
   10.6905    6.0206   -0.2104 C   0  0  0  0  0  0  0  0  0  0  0  0
   12.0350    5.9495    0.1348 C   0  0  0  0  0  0  0  0  0  0  0  0
   12.8190    7.0903    0.1524 C   0  0  0  0  0  0  0  0  0  0  0  0
   12.2803    8.3064   -0.2026 C   0  0  0  0  0  0  0  0  0  0  0  0
   10.9612    8.3912   -0.5955 C   0  0  0  0  0  0  0  0  0  0  0  0
   10.1707    7.2546   -0.5933 C   0  0  0  0  0  0  0  0  0  0  0  0
    8.3577    4.7205   -1.2272 C   0  0  0  0  0  0  0  0  0  0  0  0
    7.2525    5.5701   -1.1383 C   0  0  0  0  0  0  0  0  0  0  0  0
    6.3673    5.6995   -2.2014 C   0  0  0  0  0  0  0  0  0  0  0  0
    6.5740    5.0075   -3.3637 C   0  0  0  0  0  0  0  0  0  0  0  0
    7.6562    4.1521   -3.4719 C   0  0  0  0  0  0  0  0  0  0  0  0
    8.5313    4.0005   -2.3993 C   0  0  0  0  0  0  0  0  0  0  0  0
    7.5800    4.8493    6.3360 C   0  0  0  0  0  0  0  0  0  0  0  0
    8.4670    4.6415    7.3897 C   0  0  0  0  0  0  0  0  0  0  0  0
    8.0543    4.5631    8.7029 C   0  0  0  0  0  0  0  0  0  0  0  0
    6.7086    4.6987    9.0110 C   0  0  0  0  0  0  0  0  0  0  0  0
    5.8048    4.9360    7.9985 C   0  0  0  0  0  0  0  0  0  0  0  0
    6.2363    5.0120    6.6840 C   0  0  0  0  0  0  0  0  0  0  0  0
    7.3971    4.4727    2.0529 B   0  0  0  0  0  0  0  0  0  0  0  0
    7.3888    3.7116    3.6606 B   0  0  0  0  0  0  0  0  0  0  0  0
    9.0613    3.5520    4.1950 B   0  0  0  0  0  0  0  0  0  0  0  0
   10.1140    4.2122    2.9187 B   0  0  0  0  0  0  0  0  0  0  0  0
    9.7520    5.9447    2.7646 B   0  0  0  0  0  0  0  0  0  0  0  0
    8.0737    6.1113    2.2317 B   0  0  0  0  0  0  0  0  0  0  0  0
    7.0204    5.4347    3.4814 B   0  0  0  0  0  0  0  0  0  0  0  0
    8.0503    4.8684    4.8410 B   0  0  0  0  0  0  0  0  0  0  0  0
    9.7599    5.1650    4.3565 B   0  0  0  0  0  0  0  0  0  0  0  0
    8.4836    6.3454    3.9358 B   0  0  0  0  0  0  0  0  0  0  0  0
    6.8618    4.4949   10.7717 H   0  0  0  0  0  0  0  0  0  0  0  0
    6.7994    4.1644    1.2057 H   0  0  0  0  0  0  0  0  0  0  0  0
    6.7006    2.9435    3.8440 H   0  0  0  0  0  0  0  0  0  0  0  0
    9.3767    2.6323    4.6732 H   0  0  0  0  0  0  0  0  0  0  0  0
   11.0157    3.7536    2.5921 H   0  0  0  0  0  0  0  0  0  0  0  0
   10.4865    6.6122    2.4023 H   0  0  0  0  0  0  0  0  0  0  0  0
    7.7925    6.8792    1.5298 H   0  0  0  0  0  0  0  0  0  0  0  0
    6.0159    5.8497    3.6394 H   0  0  0  0  0  0  0  0  0  0  0  0
   10.5254    5.4070    5.1154 H   0  0  0  0  0  0  0  0  0  0  0  0
    8.4271    7.3211    4.3759 H   0  0  0  0  0  0  0  0  0  0  0  0
    8.8801    0.1250    4.0084 H   0  0  0  0  0  0  0  0  0  0  0  0
    7.2281   -1.1374    5.1737 H   0  0  0  0  0  0  0  0  0  0  0  0
    5.0695   -1.2056    4.4177 H   0  0  0  0  0  0  0  0  0  0  0  0
    4.4407   -0.0657    2.4576 H   0  0  0  0  0  0  0  0  0  0  0  0
    6.0251    1.0524    1.2535 H   0  0  0  0  0  0  0  0  0  0  0  0
   10.7887    1.1552    3.5990 H   0  0  0  0  0  0  0  0  0  0  0  0
   12.7601    0.1384    3.4436 H   0  0  0  0  0  0  0  0  0  0  0  0
   13.6175   -0.5376    1.3745 H   0  0  0  0  0  0  0  0  0  0  0  0
   12.4541   -0.1204   -0.5827 H   0  0  0  0  0  0  0  0  0  0  0  0
   10.3353    0.9855   -0.4198 H   0  0  0  0  0  0  0  0  0  0  0  0
   12.4067    5.0873    0.3660 H   0  0  0  0  0  0  0  0  0  0  0  0
   13.7048    7.0097    0.3869 H   0  0  0  0  0  0  0  0  0  0  0  0
   12.8121    9.0719   -0.1614 H   0  0  0  0  0  0  0  0  0  0  0  0
   10.5956    9.2385   -0.8247 H   0  0  0  0  0  0  0  0  0  0  0  0
    9.2757    7.3652   -0.8366 H   0  0  0  0  0  0  0  0  0  0  0  0
    7.0979    6.0664   -0.3601 H   0  0  0  0  0  0  0  0  0  0  0  0
    5.6501    6.2726   -2.1020 H   0  0  0  0  0  0  0  0  0  0  0  0
    5.9760    5.1093   -4.1189 H   0  0  0  0  0  0  0  0  0  0  0  0
    7.8046    3.6840   -4.2848 H   0  0  0  0  0  0  0  0  0  0  0  0
    9.2713    3.3841   -2.4770 H   0  0  0  0  0  0  0  0  0  0  0  0
    9.4036    4.5738    7.1861 H   0  0  0  0  0  0  0  0  0  0  0  0
    8.6958    4.4355    9.3404 H   0  0  0  0  0  0  0  0  0  0  0  0
    4.8882    5.1113    8.2125 H   0  0  0  0  0  0  0  0  0  0  0  0
    5.5573    5.1377    5.9819 H   0  0  0  0  0  0  0  0  0  0  0  0
  1  4  1  0  0  0  0
  2  5  1  0  0  0  0
  3 33  1  0  0  0  0
  4  5  1  0  0  0  0
  5 36  1  0  0  0  0
  6  1  1  0  0  0  0
  7  6  4  0  0  0  0
  8  7  4  0  0  0  0
  9  8  4  0  0  0  0
 10  9  4  0  0  0  0
 11  6  4  0  0  0  0
 12  1  1  0  0  0  0
 13 12  4  0  0  0  0
 14 13  4  0  0  0  0
 15 14  4  0  0  0  0
 16 15  4  0  0  0  0
 17 12  4  0  0  0  0
 18  2  1  0  0  0  0
 19 18  4  0  0  0  0
 20 19  4  0  0  0  0
 21 20  4  0  0  0  0
 22 21  4  0  0  0  0
 23 18  4  0  0  0  0
 24  2  1  0  0  0  0
 25 24  4  0  0  0  0
 26 25  4  0  0  0  0
 27 26  4  0  0  0  0
 28 27  4  0  0  0  0
 29 24  4  0  0  0  0
 30 31  4  0  0  0  0
 31 32  4  0  0  0  0
 32 33  4  0  0  0  0
 33 34  4  0  0  0  0
 34 35  4  0  0  0  0
 35 30  4  0  0  0  0
 36  4  1  0  0  0  0
 37  4  1  0  0  0  0
 38  4  1  0  0  0  0
 39  4  1  0  0  0  0
 40  5  1  0  0  0  0
 41  5  1  0  0  0  0
 42 36  1  0  0  0  0
 43 30  1  0  0  0  0
 44 38  1  0  0  0  0
 45 40  1  0  0  0  0
 46  3  1  0  0  0  0
 47 36  1  0  0  0  0
 48 37  1  0  0  0  0
 49 38  1  0  0  0  0
 50 39  1  0  0  0  0
 51 40  1  0  0  0  0
 52 41  1  0  0  0  0
 53 42  1  0  0  0  0
 54 44  1  0  0  0  0
 55 45  1  0  0  0  0
 56  7  1  0  0  0  0
 57  8  1  0  0  0  0
 58  9  1  0  0  0  0
 59 10  1  0  0  0  0
 60 11  1  0  0  0  0
 61 13  1  0  0  0  0
 62 14  1  0  0  0  0
 63 15  1  0  0  0  0
 64 16  1  0  0  0  0
 65 17  1  0  0  0  0
 66 19  1  0  0  0  0
 67 20  1  0  0  0  0
 68 21  1  0  0  0  0
 69 22  1  0  0  0  0
 70 23  1  0  0  0  0
 71 25  1  0  0  0  0
 72 26  1  0  0  0  0
 73 27  1  0  0  0  0
 74 28  1  0  0  0  0
 75 29  1  0  0  0  0
 76 31  1  0  0  0  0
 77 32  1  0  0  0  0
 78 34  1  0  0  0  0
 79 35  1  0  0  0  0
  5 39  1  0  0  0  0
 10 11  4  0  0  0  0
 16 17  4  0  0  0  0
 22 23  4  0  0  0  0
 28 29  4  0  0  0  0
 36 37  1  0  0  0  0
 36 41  1  0  0  0  0
 37 38  1  0  0  0  0
 37 42  1  0  0  0  0
 37 43  1  0  0  0  0
 38 39  1  0  0  0  0
 38 43  1  0  0  0  0
 39 40  1  0  0  0  0
 39 44  1  0  0  0  0
 40 41  1  0  0  0  0
 40 44  1  0  0  0  0
 41 42  1  0  0  0  0
 41 45  1  0  0  0  0
 42 43  1  0  0  0  0
 42 45  1  0  0  0  0
 43 44  1  0  0  0  0
 43 45  1  0  0  0  0
 44 45  1  0  0  0  0
M  END
$$$$
GORDUO

From CSD data. Using bond type 'Any'. No disordered atoms. Largest molecule.
109150  0  0  0  0  0  0  0  0999 V2000
    4.0148    5.8669   18.1905 Fe  0  0  0  0  0  0  0  0  0  0  0  0
    6.8255    7.1538   10.0870 P   0  0  0  0  0  0  0  0  0  0  0  0
    2.7029    8.3231    8.9195 P   0  0  0  0  0  0  0  0  0  0  0  0
    5.5829    6.2651   15.5467 O   0  0  0  0  0  0  0  0  0  0  0  0
    5.2749    6.6213   19.6506 C   0  0  0  0  0  0  0  0  0  0  0  0
    4.7620    6.9046   20.2594 H   0  0  0  0  0  0  0  0  0  0  0  0
    2.7467    4.7392   16.9739 C   0  0  0  0  0  0  0  0  0  0  0  0
    3.3292    4.1484   16.4418 H   0  0  0  0  0  0  0  0  0  0  0  0
    5.4210    5.0488   19.4742 C   0  0  0  0  0  0  0  0  0  0  0  0
    5.0217    4.5590   20.0136 H   0  0  0  0  0  0  0  0  0  0  0  0
    2.6410    6.3388   16.6847 C   0  0  0  0  0  0  0  0  0  0  0  0
    3.2109    6.7730   15.8489 H   0  0  0  0  0  0  0  0  0  0  0  0
    5.2131    5.3126   14.7513 C   0  0  0  0  0  0  0  0  0  0  0  0
    4.3050    5.5056   14.4072 H   0  0  0  0  0  0  0  0  0  0  0  0
    5.1767    4.4603   15.2531 H   0  0  0  0  0  0  0  0  0  0  0  0
    6.1732    5.1735   13.5887 C   0  0  0  0  0  0  0  0  0  0  0  0
    5.9473    4.3530   13.0826 H   0  0  0  0  0  0  0  0  0  0  0  0
    7.0920    5.0650   13.9401 H   0  0  0  0  0  0  0  0  0  0  0  0
    6.1438    6.3628   12.6386 C   0  0  0  0  0  0  0  0  0  0  0  0
    6.7446    7.0815   12.9611 H   0  0  0  0  0  0  0  0  0  0  0  0
    5.2262    6.7252   12.5620 H   0  0  0  0  0  0  0  0  0  0  0  0
    6.6255    5.8244   11.2865 C   0  0  0  0  0  0  0  0  0  0  0  0
    5.9705    5.1678   10.9424 H   0  0  0  0  0  0  0  0  0  0  0  0
    7.4902    5.3579   11.4080 H   0  0  0  0  0  0  0  0  0  0  0  0
    5.2970    8.0883    9.8477 C   0  0  0  0  0  0  0  0  0  0  0  0
    4.9793    8.4207   10.7240 H   0  0  0  0  0  0  0  0  0  0  0  0
    5.4830    8.8736    9.2736 H   0  0  0  0  0  0  0  0  0  0  0  0
    4.1936    7.2439    9.2028 C   0  0  0  0  0  0  0  0  0  0  0  0
    3.9545    6.4874    9.7957 H   0  0  0  0  0  0  0  0  0  0  0  0
    4.5108    6.8749    8.3409 H   0  0  0  0  0  0  0  0  0  0  0  0
    7.2928    6.4452    8.5056 C   0  0  0  0  0  0  0  0  0  0  0  0
    6.9913    5.1212    8.1905 C   0  0  0  0  0  0  0  0  0  0  0  0
    6.5493    4.5614    8.8181 H   0  0  0  0  0  0  0  0  0  0  0  0
    7.3541    4.6346    6.9267 C   0  0  0  0  0  0  0  0  0  0  0  0
    7.1697    3.7319    6.7011 H   0  0  0  0  0  0  0  0  0  0  0  0
    7.9710    5.4468    6.0185 C   0  0  0  0  0  0  0  0  0  0  0  0
    8.2062    5.1060    5.1639 H   0  0  0  0  0  0  0  0  0  0  0  0
    8.2566    6.7569    6.3352 C   0  0  0  0  0  0  0  0  0  0  0  0
    8.6841    7.3151    5.6975 H   0  0  0  0  0  0  0  0  0  0  0  0
    7.9234    7.2640    7.5788 C   0  0  0  0  0  0  0  0  0  0  0  0
    8.1243    8.1660    7.7972 H   0  0  0  0  0  0  0  0  0  0  0  0
    8.1154    8.2676   10.6390 C   0  0  0  0  0  0  0  0  0  0  0  0
    9.3704    7.7301   10.9583 C   0  0  0  0  0  0  0  0  0  0  0  0
    9.5309    6.7997   10.8600 H   0  0  0  0  0  0  0  0  0  0  0  0
   10.3713    8.5632   11.4152 C   0  0  0  0  0  0  0  0  0  0  0  0
   11.2209    8.2001   11.6365 H   0  0  0  0  0  0  0  0  0  0  0  0
   10.1486    9.9263   11.5541 C   0  0  0  0  0  0  0  0  0  0  0  0
   10.8422   10.4928   11.8708 H   0  0  0  0  0  0  0  0  0  0  0  0
    8.9203   10.4538   11.2316 C   0  0  0  0  0  0  0  0  0  0  0  0
    8.7706   11.3883   11.3213 H   0  0  0  0  0  0  0  0  0  0  0  0
    7.9019    9.6359   10.7775 C   0  0  0  0  0  0  0  0  0  0  0  0
    7.0561   10.0088   10.5592 H   0  0  0  0  0  0  0  0  0  0  0  0
    2.1376    8.5512   10.6517 C   0  0  0  0  0  0  0  0  0  0  0  0
    2.0653    9.8376   11.1477 C   0  0  0  0  0  0  0  0  0  0  0  0
    2.2562   10.5726   10.5765 H   0  0  0  0  0  0  0  0  0  0  0  0
    1.7150   10.0694   12.4752 C   0  0  0  0  0  0  0  0  0  0  0  0
    1.6720   10.9585   12.8078 H   0  0  0  0  0  0  0  0  0  0  0  0
    1.4346    9.0159   13.3009 C   0  0  0  0  0  0  0  0  0  0  0  0
    1.1897    9.1765   14.2047 H   0  0  0  0  0  0  0  0  0  0  0  0
    1.5028    7.7180   12.8295 C   0  0  0  0  0  0  0  0  0  0  0  0
    1.3145    6.9889   13.4079 H   0  0  0  0  0  0  0  0  0  0  0  0
    1.8487    7.4865   11.5078 C   0  0  0  0  0  0  0  0  0  0  0  0
    1.8887    6.5951   11.1810 H   0  0  0  0  0  0  0  0  0  0  0  0
    1.5266    7.1006    8.2385 C   0  0  0  0  0  0  0  0  0  0  0  0
    1.9085    6.2794    7.1609 C   0  0  0  0  0  0  0  0  0  0  0  0
    2.8121    6.2763    6.8703 H   0  0  0  0  0  0  0  0  0  0  0  0
    0.9883    5.4801    6.5232 C   0  0  0  0  0  0  0  0  0  0  0  0
    1.2677    4.9309    5.8002 H   0  0  0  0  0  0  0  0  0  0  0  0
   -0.3454    5.4660    6.9223 C   0  0  0  0  0  0  0  0  0  0  0  0
   -0.9791    4.9234    6.4697 H   0  0  0  0  0  0  0  0  0  0  0  0
   -0.7286    6.2586    7.9910 C   0  0  0  0  0  0  0  0  0  0  0  0
   -1.6334    6.2516    8.2831 H   0  0  0  0  0  0  0  0  0  0  0  0
    0.1957    7.0606    8.6388 C   0  0  0  0  0  0  0  0  0  0  0  0
   -0.0847    7.5956    9.3720 H   0  0  0  0  0  0  0  0  0  0  0  0
    5.4417    7.4450   18.1684 B   0  0  0  0  0  0  0  0  0  0  0  0
    4.9968    8.4153   18.0035 H   0  0  0  0  0  0  0  0  0  0  0  0
    2.5240    4.3956   18.6022 B   0  0  0  0  0  0  0  0  0  0  0  0
    2.9634    3.5532   19.0736 H   0  0  0  0  0  0  0  0  0  0  0  0
    1.2459    4.0654   17.4540 B   0  0  0  0  0  0  0  0  0  0  0  0
    1.0460    3.0329   17.2371 H   0  0  0  0  0  0  0  0  0  0  0  0
    6.7513    7.4207   19.3932 B   0  0  0  0  0  0  0  0  0  0  0  0
    6.9280    8.2807   20.0280 H   0  0  0  0  0  0  0  0  0  0  0  0
    6.6990    5.8772   20.2695 B   0  0  0  0  0  0  0  0  0  0  0  0
    6.8240    5.7482   21.2861 H   0  0  0  0  0  0  0  0  0  0  0  0
    1.3279    5.3154   16.1974 B   0  0  0  0  0  0  0  0  0  0  0  0
    1.2020    5.1271   15.1982 H   0  0  0  0  0  0  0  0  0  0  0  0
    5.6972    4.5936   17.8734 B   0  0  0  0  0  0  0  0  0  0  0  0
    5.4195    3.5982   17.4829 H   0  0  0  0  0  0  0  0  0  0  0  0
    2.3257    7.1727   18.1539 B   0  0  0  0  0  0  0  0  0  0  0  0
    2.5478    8.2607   18.2494 H   0  0  0  0  0  0  0  0  0  0  0  0
    5.7771    6.1477   16.9407 B   0  0  0  0  0  0  0  0  0  0  0  0
    2.2385    5.9147   19.4149 B   0  0  0  0  0  0  0  0  0  0  0  0
    2.4664    6.0442   20.4618 H   0  0  0  0  0  0  0  0  0  0  0  0
    7.1396    7.0837   17.7085 B   0  0  0  0  0  0  0  0  0  0  0  0
    7.7199    7.8131   17.1503 H   0  0  0  0  0  0  0  0  0  0  0  0
    0.8767    4.8381   18.9955 B   0  0  0  0  0  0  0  0  0  0  0  0
    0.3533    4.3209   19.7677 H   0  0  0  0  0  0  0  0  0  0  0  0
    7.9018    6.1107   18.9868 B   0  0  0  0  0  0  0  0  0  0  0  0
    8.9606    6.1942   19.2038 H   0  0  0  0  0  0  0  0  0  0  0  0
    0.1232    5.4266   17.4960 B   0  0  0  0  0  0  0  0  0  0  0  0
   -0.8845    5.3488   17.2805 H   0  0  0  0  0  0  0  0  0  0  0  0
    7.0078    4.5840   19.0852 B   0  0  0  0  0  0  0  0  0  0  0  0
    7.3483    3.6712   19.4062 H   0  0  0  0  0  0  0  0  0  0  0  0
    1.0285    6.8610   16.9783 B   0  0  0  0  0  0  0  0  0  0  0  0
    0.6052    7.6545   16.5285 H   0  0  0  0  0  0  0  0  0  0  0  0
    7.2986    5.3237   17.5119 B   0  0  0  0  0  0  0  0  0  0  0  0
    7.9400    4.8766   16.8033 H   0  0  0  0  0  0  0  0  0  0  0  0
    0.7335    6.5822   18.7034 B   0  0  0  0  0  0  0  0  0  0  0  0
    0.1379    7.2061   19.2182 H   0  0  0  0  0  0  0  0  0  0  0  0
  1  5  1  0  0  0  0
  2 22  1  0  0  0  0
  3 28  1  0  0  0  0
  4 13  1  0  0  0  0
  5  6  1  0  0  0  0
  7  1  1  0  0  0  0
  8  7  1  0  0  0  0
  9  1  1  0  0  0  0
 10  9  1  0  0  0  0
 11  1  1  0  0  0  0
 12 11  1  0  0  0  0
 13 14  1  0  0  0  0
 15 13  1  0  0  0  0
 16 13  1  0  0  0  0
 17 16  1  0  0  0  0
 18 16  1  0  0  0  0
 19 16  1  0  0  0  0
 20 19  1  0  0  0  0
 21 19  1  0  0  0  0
 22 19  1  0  0  0  0
 23 22  1  0  0  0  0
 24 22  1  0  0  0  0
 25  2  1  0  0  0  0
 26 25  1  0  0  0  0
 27 25  1  0  0  0  0
 28 25  1  0  0  0  0
 29 28  1  0  0  0  0
 30 28  1  0  0  0  0
 31  2  1  0  0  0  0
 32 31  4  0  0  0  0
 33 32  1  0  0  0  0
 34 32  4  0  0  0  0
 35 34  1  0  0  0  0
 36 34  4  0  0  0  0
 37 36  1  0  0  0  0
 38 36  4  0  0  0  0
 39 38  1  0  0  0  0
 40 31  4  0  0  0  0
 41 40  1  0  0  0  0
 42  2  1  0  0  0  0
 43 42  4  0  0  0  0
 44 43  1  0  0  0  0
 45 43  4  0  0  0  0
 46 45  1  0  0  0  0
 47 45  4  0  0  0  0
 48 47  1  0  0  0  0
 49 47  4  0  0  0  0
 50 49  1  0  0  0  0
 51 42  4  0  0  0  0
 52 51  1  0  0  0  0
 53  3  1  0  0  0  0
 54 53  4  0  0  0  0
 55 54  1  0  0  0  0
 56 54  4  0  0  0  0
 57 56  1  0  0  0  0
 58 56  4  0  0  0  0
 59 58  1  0  0  0  0
 60 58  4  0  0  0  0
 61 60  1  0  0  0  0
 62 53  4  0  0  0  0
 63 62  1  0  0  0  0
 64  3  1  0  0  0  0
 65 64  4  0  0  0  0
 66 65  1  0  0  0  0
 67 65  4  0  0  0  0
 68 67  1  0  0  0  0
 69 67  4  0  0  0  0
 70 69  1  0  0  0  0
 71 69  4  0  0  0  0
 72 71  1  0  0  0  0
 73 64  4  0  0  0  0
 74 73  1  0  0  0  0
 75  1  1  0  0  0  0
 76 75  1  0  0  0  0
 77  1  1  0  0  0  0
 78 77  1  0  0  0  0
 79  7  1  0  0  0  0
 80 79  1  0  0  0  0
 81  5  1  0  0  0  0
 82 81  1  0  0  0  0
 83  5  1  0  0  0  0
 84 83  1  0  0  0  0
 85  7  1  0  0  0  0
 86 85  1  0  0  0  0
 87  1  1  0  0  0  0
 88 87  1  0  0  0  0
 89  1  1  0  0  0  0
 90 89  1  0  0  0  0
 91  1  1  0  0  0  0
 92  1  1  0  0  0  0
 93 92  1  0  0  0  0
 94 75  1  0  0  0  0
 95 94  1  0  0  0  0
 96 77  1  0  0  0  0
 97 96  1  0  0  0  0
 98 81  1  0  0  0  0
 99 98  1  0  0  0  0
100 79  1  0  0  0  0
101100  1  0  0  0  0
102  9  1  0  0  0  0
103102  1  0  0  0  0
104 11  1  0  0  0  0
105104  1  0  0  0  0
106 87  1  0  0  0  0
107106  1  0  0  0  0
108 89  1  0  0  0  0
109108  1  0  0  0  0
  4 91  1  0  0  0  0
  5  9  1  0  0  0  0
  5 75  1  0  0  0  0
  7 11  1  0  0  0  0
  7 77  1  0  0  0  0
  9 83  1  0  0  0  0
  9 87  1  0  0  0  0
 11 85  1  0  0  0  0
 11 89  1  0  0  0  0
 38 40  4  0  0  0  0
 49 51  4  0  0  0  0
 60 62  4  0  0  0  0
 71 73  4  0  0  0  0
 75 81  1  0  0  0  0
 75 91  1  0  0  0  0
 77 79  1  0  0  0  0
 77 92  1  0  0  0  0
 79 85  1  0  0  0  0
 79 96  1  0  0  0  0
 81 83  1  0  0  0  0
 81 94  1  0  0  0  0
 83 98  1  0  0  0  0
 83102  1  0  0  0  0
 85100  1  0  0  0  0
 85104  1  0  0  0  0
 87 91  1  0  0  0  0
 87102  1  0  0  0  0
 89 92  1  0  0  0  0
 89104  1  0  0  0  0
 91 94  1  0  0  0  0
 91106  1  0  0  0  0
 92 96  1  0  0  0  0
 92108  1  0  0  0  0
 94 98  1  0  0  0  0
 94106  1  0  0  0  0
 96100  1  0  0  0  0
 96108  1  0  0  0  0
 98102  1  0  0  0  0
 98106  1  0  0  0  0
100104  1  0  0  0  0
100108  1  0  0  0  0
102106  1  0  0  0  0
104108  1  0  0  0  0
M  END
$$$$
GORLUU

From CSD data. Using bond type 'Any'. No disordered atoms. Largest molecule.
 81 94  0  0  0  0  0  0  0  0999 V2000
    6.1087    0.2658    0.6221 Fe  0  0  0  0  0  0  0  0  0  0  0  0
    5.2988    1.0527   -2.6377 P   0  0  0  0  0  0  0  0  0  0  0  0
    6.8201    2.5309    3.1215 P   0  0  0  0  0  0  0  0  0  0  0  0
    6.2085   -1.3952   -4.1383 O   0  0  0  0  0  0  0  0  0  0  0  0
    7.5199    5.0736    4.3044 O   0  0  0  0  0  0  0  0  0  0  0  0
    4.1729    2.5313   -2.0822 B   0  0  0  0  0  0  0  0  0  0  0  0
    3.6497    2.8582   -3.0603 H   0  0  0  0  0  0  0  0  0  0  0  0
    3.4677    2.2084   -1.2366 H   0  0  0  0  0  0  0  0  0  0  0  0
    4.9426    3.2055   -1.6488 H   0  0  0  0  0  0  0  0  0  0  0  0
    8.0731    1.6489    4.2857 B   0  0  0  0  0  0  0  0  0  0  0  0
    7.5704    1.1791    5.1213 H   0  0  0  0  0  0  0  0  0  0  0  0
    8.6958    2.4152    4.8340 H   0  0  0  0  0  0  0  0  0  0  0  0
    8.5051    1.0126    3.6724 H   0  0  0  0  0  0  0  0  0  0  0  0
    6.4253    0.3989   -1.4040 C   0  0  0  0  0  0  0  0  0  0  0  0
    7.4004    1.1785   -0.6733 C   0  0  0  0  0  0  0  0  0  0  0  0
    7.5367    2.0947   -0.7570 H   0  0  0  0  0  0  0  0  0  0  0  0
    8.1069    0.3169    0.1861 C   0  0  0  0  0  0  0  0  0  0  0  0
    8.7902    0.5651    0.7657 H   0  0  0  0  0  0  0  0  0  0  0  0
    7.5941   -0.9946    0.0150 C   0  0  0  0  0  0  0  0  0  0  0  0
    7.8829   -1.7547    0.4672 H   0  0  0  0  0  0  0  0  0  0  0  0
    6.5729   -0.9522   -0.9556 C   0  0  0  0  0  0  0  0  0  0  0  0
    6.0780   -1.6796   -1.2553 H   0  0  0  0  0  0  0  0  0  0  0  0
    4.3335   -0.3741   -3.1865 C   0  0  0  0  0  0  0  0  0  0  0  0
    2.9663   -0.3942   -2.8742 C   0  0  0  0  0  0  0  0  0  0  0  0
    2.5830    0.3308   -2.4357 H   0  0  0  0  0  0  0  0  0  0  0  0
    2.1765   -1.4887   -3.2139 C   0  0  0  0  0  0  0  0  0  0  0  0
    1.2716   -1.5003   -3.0003 H   0  0  0  0  0  0  0  0  0  0  0  0
    2.7447   -2.5462   -3.8672 C   0  0  0  0  0  0  0  0  0  0  0  0
    2.2165   -3.2774   -4.0945 H   0  0  0  0  0  0  0  0  0  0  0  0
    4.0706   -2.5518   -4.1907 C   0  0  0  0  0  0  0  0  0  0  0  0
    4.4363   -3.2852   -4.6292 H   0  0  0  0  0  0  0  0  0  0  0  0
    4.8710   -1.4742   -3.8710 C   0  0  0  0  0  0  0  0  0  0  0  0
    6.8150   -2.4705   -4.8428 C   0  0  0  0  0  0  0  0  0  0  0  0
    7.7455   -2.2798   -4.9764 H   0  0  0  0  0  0  0  0  0  0  0  0
    6.3839   -2.5783   -5.6934 H   0  0  0  0  0  0  0  0  0  0  0  0
    6.7231   -3.2789   -4.3319 H   0  0  0  0  0  0  0  0  0  0  0  0
    6.3565    1.6013   -4.0121 C   0  0  0  0  0  0  0  0  0  0  0  0
    5.7809    2.2900   -5.0613 C   0  0  0  0  0  0  0  0  0  0  0  0
    4.8594    2.4104   -5.0851 H   0  0  0  0  0  0  0  0  0  0  0  0
    6.5704    2.8025   -6.0806 C   0  0  0  0  0  0  0  0  0  0  0  0
    6.1745    3.2605   -6.7876 H   0  0  0  0  0  0  0  0  0  0  0  0
    7.9219    2.6391   -6.0531 C   0  0  0  0  0  0  0  0  0  0  0  0
    8.4473    2.9956   -6.7339 H   0  0  0  0  0  0  0  0  0  0  0  0
    8.5043    1.9567   -5.0339 C   0  0  0  0  0  0  0  0  0  0  0  0
    9.4264    1.8370   -5.0251 H   0  0  0  0  0  0  0  0  0  0  0  0
    7.7284    1.4375   -4.0034 C   0  0  0  0  0  0  0  0  0  0  0  0
    8.1357    0.9775   -3.3051 H   0  0  0  0  0  0  0  0  0  0  0  0
    5.7327    1.3580    2.3233 C   0  0  0  0  0  0  0  0  0  0  0  0
    5.7171   -0.0658    2.6119 C   0  0  0  0  0  0  0  0  0  0  0  0
    6.2658   -0.5014    3.2227 H   0  0  0  0  0  0  0  0  0  0  0  0
    4.7370   -0.6714    1.8174 C   0  0  0  0  0  0  0  0  0  0  0  0
    4.5341   -1.5787    1.7962 H   0  0  0  0  0  0  0  0  0  0  0  0
    4.1135    0.3353    1.0542 C   0  0  0  0  0  0  0  0  0  0  0  0
    3.4147    0.2035    0.4547 H   0  0  0  0  0  0  0  0  0  0  0  0
    4.7168    1.5709    1.3440 C   0  0  0  0  0  0  0  0  0  0  0  0
    4.4930    2.3884    0.9618 H   0  0  0  0  0  0  0  0  0  0  0  0
    5.6738    3.6855    3.9347 C   0  0  0  0  0  0  0  0  0  0  0  0
    4.3265    3.4284    4.0771 C   0  0  0  0  0  0  0  0  0  0  0  0
    3.9763    2.6372    3.7373 H   0  0  0  0  0  0  0  0  0  0  0  0
    3.4822    4.3231    4.7166 C   0  0  0  0  0  0  0  0  0  0  0  0
    2.5738    4.1383    4.7903 H   0  0  0  0  0  0  0  0  0  0  0  0
    3.9964    5.4805    5.2362 C   0  0  0  0  0  0  0  0  0  0  0  0
    3.4367    6.0779    5.6759 H   0  0  0  0  0  0  0  0  0  0  0  0
    5.3445    5.7673    5.1113 C   0  0  0  0  0  0  0  0  0  0  0  0
    5.6847    6.5599    5.4586 H   0  0  0  0  0  0  0  0  0  0  0  0
    6.1863    4.8802    4.4718 C   0  0  0  0  0  0  0  0  0  0  0  0
    8.0632    6.3255    4.7303 C   0  0  0  0  0  0  0  0  0  0  0  0
    9.0066    6.3412    4.5542 H   0  0  0  0  0  0  0  0  0  0  0  0
    7.9126    6.4359    5.6722 H   0  0  0  0  0  0  0  0  0  0  0  0
    7.6350    7.0395    4.2532 H   0  0  0  0  0  0  0  0  0  0  0  0
    7.5895    3.4967    1.7925 C   0  0  0  0  0  0  0  0  0  0  0  0
    8.9496    3.3819    1.5551 C   0  0  0  0  0  0  0  0  0  0  0  0
    9.4814    2.8737    2.1235 H   0  0  0  0  0  0  0  0  0  0  0  0
    9.5203    4.0303    0.4597 C   0  0  0  0  0  0  0  0  0  0  0  0
   10.4306    3.9418    0.2948 H   0  0  0  0  0  0  0  0  0  0  0  0
    8.7514    4.7971   -0.3735 C   0  0  0  0  0  0  0  0  0  0  0  0
    9.1327    5.2113   -1.1142 H   0  0  0  0  0  0  0  0  0  0  0  0
    7.4175    4.9491   -0.1074 C   0  0  0  0  0  0  0  0  0  0  0  0
    6.8946    5.4877   -0.6570 H   0  0  0  0  0  0  0  0  0  0  0  0
    6.8470    4.3055    0.9730 C   0  0  0  0  0  0  0  0  0  0  0  0
    5.9415    4.4227    1.1467 H   0  0  0  0  0  0  0  0  0  0  0  0
  1 14  8  0  0  0  0
  2  6  1  0  0  0  0
  3 10  1  0  0  0  0
  4 32  1  0  0  0  0
  5 66  1  0  0  0  0
  6  7  1  0  0  0  0
  8  6  1  0  0  0  0
  9  6  1  0  0  0  0
 10 11  1  0  0  0  0
 12 10  1  0  0  0  0
 13 10  1  0  0  0  0
 14  2  1  0  0  0  0
 15  1  8  0  0  0  0
 16 15  1  0  0  0  0
 17  1  8  0  0  0  0
 18 17  1  0  0  0  0
 19  1  8  0  0  0  0
 20 19  1  0  0  0  0
 21  1  8  0  0  0  0
 22 21  1  0  0  0  0
 23  2  1  0  0  0  0
 24 23  4  0  0  0  0
 25 24  1  0  0  0  0
 26 24  4  0  0  0  0
 27 26  1  0  0  0  0
 28 26  4  0  0  0  0
 29 28  1  0  0  0  0
 30 28  4  0  0  0  0
 31 30  1  0  0  0  0
 32 23  4  0  0  0  0
 33  4  1  0  0  0  0
 34 33  1  0  0  0  0
 35 33  1  0  0  0  0
 36 33  1  0  0  0  0
 37  2  1  0  0  0  0
 38 37  4  0  0  0  0
 39 38  1  0  0  0  0
 40 38  4  0  0  0  0
 41 40  1  0  0  0  0
 42 40  4  0  0  0  0
 43 42  1  0  0  0  0
 44 42  4  0  0  0  0
 45 44  1  0  0  0  0
 46 37  4  0  0  0  0
 47 46  1  0  0  0  0
 48  1  8  0  0  0  0
 49  1  8  0  0  0  0
 50 49  1  0  0  0  0
 51  1  8  0  0  0  0
 52 51  1  0  0  0  0
 53  1  8  0  0  0  0
 54 53  1  0  0  0  0
 55  1  8  0  0  0  0
 56 55  1  0  0  0  0
 57  3  1  0  0  0  0
 58 57  4  0  0  0  0
 59 58  1  0  0  0  0
 60 58  4  0  0  0  0
 61 60  1  0  0  0  0
 62 60  4  0  0  0  0
 63 62  1  0  0  0  0
 64 62  4  0  0  0  0
 65 64  1  0  0  0  0
 66 57  4  0  0  0  0
 67  5  1  0  0  0  0
 68 67  1  0  0  0  0
 69 67  1  0  0  0  0
 70 67  1  0  0  0  0
 71  3  1  0  0  0  0
 72 71  4  0  0  0  0
 73 72  1  0  0  0  0
 74 72  4  0  0  0  0
 75 74  1  0  0  0  0
 76 74  4  0  0  0  0
 77 76  1  0  0  0  0
 78 76  4  0  0  0  0
 79 78  1  0  0  0  0
 80 71  4  0  0  0  0
 81 80  1  0  0  0  0
  3 48  1  0  0  0  0
 14 15  4  0  0  0  0
 14 21  4  0  0  0  0
 15 17  4  0  0  0  0
 17 19  4  0  0  0  0
 19 21  4  0  0  0  0
 30 32  4  0  0  0  0
 44 46  4  0  0  0  0
 48 49  4  0  0  0  0
 48 55  4  0  0  0  0
 49 51  4  0  0  0  0
 51 53  4  0  0  0  0
 53 55  4  0  0  0  0
 64 66  4  0  0  0  0
 78 80  4  0  0  0  0
M  END
$$$$
GUGCOB

From CSD data. Using bond type 'Any'. No disordered atoms. Largest molecule.
129142  0  0  0  0  0  0  0  0999 V2000
   -0.8366    2.6582    3.3136 P   0  0  0  0  0  0  0  0  0  0  0  0
    0.3541   -0.2225    3.3430 P   0  0  0  0  0  0  0  0  0  0  0  0
   -3.4691    0.0100    8.8243 P   0  0  0  0  0  0  0  0  0  0  0  0
   -0.6416    0.7057    9.7846 P   0  0  0  0  0  0  0  0  0  0  0  0
    0.1034   -3.8231    7.2350 O   0  0  0  0  0  0  0  0  0  0  0  0
   -0.0210    1.2968    2.6529 C   0  5  0  0  0  0  0  0  0  0  0  0
    0.2697    1.4071    1.7538 H   0  0  0  0  0  0  0  0  0  0  0  0
   -2.1995    3.0986    2.1788 C   0  0  0  0  0  0  0  0  0  0  0  0
   -3.5207    2.7892    2.4981 C   0  0  0  0  0  0  0  0  0  0  0  0
   -3.7235    2.4181    3.3505 H   0  0  0  0  0  0  0  0  0  0  0  0
   -4.5445    3.0140    1.5888 C   0  0  0  0  0  0  0  0  0  0  0  0
   -5.4388    2.7912    1.8177 H   0  0  0  0  0  0  0  0  0  0  0  0
   -4.2648    3.5611    0.3463 C   0  0  0  0  0  0  0  0  0  0  0  0
   -4.9655    3.7221   -0.2751 H   0  0  0  0  0  0  0  0  0  0  0  0
   -2.9538    3.8728    0.0179 C   0  0  0  0  0  0  0  0  0  0  0  0
   -2.7565    4.2446   -0.8327 H   0  0  0  0  0  0  0  0  0  0  0  0
   -1.9347    3.6469    0.9219 C   0  0  0  0  0  0  0  0  0  0  0  0
   -1.0410    3.8659    0.6853 H   0  0  0  0  0  0  0  0  0  0  0  0
    0.2581    4.1250    3.2203 C   0  0  0  0  0  0  0  0  0  0  0  0
   -0.2604    5.4072    3.4360 C   0  0  0  0  0  0  0  0  0  0  0  0
   -1.1917    5.5209    3.5838 H   0  0  0  0  0  0  0  0  0  0  0  0
    0.5829    6.5177    3.4365 C   0  0  0  0  0  0  0  0  0  0  0  0
    0.2275    7.3832    3.5986 H   0  0  0  0  0  0  0  0  0  0  0  0
    1.9336    6.3592    3.2034 C   0  0  0  0  0  0  0  0  0  0  0  0
    2.5058    7.1174    3.1908 H   0  0  0  0  0  0  0  0  0  0  0  0
    2.4564    5.0921    2.9872 C   0  0  0  0  0  0  0  0  0  0  0  0
    3.3870    4.9841    2.8322 H   0  0  0  0  0  0  0  0  0  0  0  0
    1.6200    3.9795    2.9968 C   0  0  0  0  0  0  0  0  0  0  0  0
    1.9845    3.1154    2.8494 H   0  0  0  0  0  0  0  0  0  0  0  0
   -0.3608   -1.5570    2.3203 C   0  0  0  0  0  0  0  0  0  0  0  0
   -1.3577   -1.2786    1.3859 C   0  0  0  0  0  0  0  0  0  0  0  0
   -1.6344   -0.3817    1.2429 H   0  0  0  0  0  0  0  0  0  0  0  0
   -1.9484   -2.3105    0.6598 C   0  0  0  0  0  0  0  0  0  0  0  0
   -2.6197   -2.1126    0.0172 H   0  0  0  0  0  0  0  0  0  0  0  0
   -1.5628   -3.6198    0.8713 C   0  0  0  0  0  0  0  0  0  0  0  0
   -1.9747   -4.3201    0.3783 H   0  0  0  0  0  0  0  0  0  0  0  0
   -0.5735   -3.9166    1.8030 C   0  0  0  0  0  0  0  0  0  0  0  0
   -0.3096   -4.8170    1.9528 H   0  0  0  0  0  0  0  0  0  0  0  0
    0.0248   -2.8873    2.5109 C   0  0  0  0  0  0  0  0  0  0  0  0
    0.7096   -3.0885    3.1368 H   0  0  0  0  0  0  0  0  0  0  0  0
    2.1565   -0.5236    3.1758 C   0  0  0  0  0  0  0  0  0  0  0  0
    2.9765   -0.5072    4.2979 C   0  0  0  0  0  0  0  0  0  0  0  0
    2.5858   -0.4296    5.1608 H   0  0  0  0  0  0  0  0  0  0  0  0
    4.3624   -0.6019    4.1798 C   0  0  0  0  0  0  0  0  0  0  0  0
    4.9084   -0.6006    4.9570 H   0  0  0  0  0  0  0  0  0  0  0  0
    4.9359   -0.6982    2.9314 C   0  0  0  0  0  0  0  0  0  0  0  0
    5.8810   -0.7339    2.8445 H   0  0  0  0  0  0  0  0  0  0  0  0
    4.1333   -0.7443    1.8010 C   0  0  0  0  0  0  0  0  0  0  0  0
    4.5308   -0.8305    0.9432 H   0  0  0  0  0  0  0  0  0  0  0  0
    2.7480   -0.6635    1.9177 C   0  0  0  0  0  0  0  0  0  0  0  0
    2.2039   -0.7027    1.1398 H   0  0  0  0  0  0  0  0  0  0  0  0
   -2.0749    1.0961    8.8466 C   0  0  0  0  0  0  0  0  0  0  0  0
   -2.3696    2.0316    9.0394 H   0  0  0  0  0  0  0  0  0  0  0  0
   -4.7566    0.9572    7.9577 C   0  0  0  0  0  0  0  0  0  0  0  0
   -4.4791    2.1112    7.2247 C   0  0  0  0  0  0  0  0  0  0  0  0
   -3.5937    2.4567    7.2070 H   0  0  0  0  0  0  0  0  0  0  0  0
   -5.4863    2.7594    6.5199 C   0  0  0  0  0  0  0  0  0  0  0  0
   -5.2775    3.5240    5.9985 H   0  0  0  0  0  0  0  0  0  0  0  0
   -6.7879    2.3025    6.5718 C   0  0  0  0  0  0  0  0  0  0  0  0
   -7.4759    2.7572    6.1016 H   0  0  0  0  0  0  0  0  0  0  0  0
   -7.0769    1.1755    7.3180 C   0  0  0  0  0  0  0  0  0  0  0  0
   -7.9728    0.8623    7.3642 H   0  0  0  0  0  0  0  0  0  0  0  0
   -6.0839    0.4980    7.9950 C   0  0  0  0  0  0  0  0  0  0  0  0
   -6.2989   -0.2839    8.4892 H   0  0  0  0  0  0  0  0  0  0  0  0
   -4.1934   -0.2645   10.4808 C   0  0  0  0  0  0  0  0  0  0  0  0
   -4.8347    0.7393   11.1529 C   0  0  0  0  0  0  0  0  0  0  0  0
   -4.9533    1.5814   10.7270 H   0  0  0  0  0  0  0  0  0  0  0  0
   -5.3184    0.5593   12.4430 C   0  0  0  0  0  0  0  0  0  0  0  0
   -5.7555    1.2752   12.8910 H   0  0  0  0  0  0  0  0  0  0  0  0
   -5.1691   -0.6351   13.0652 C   0  0  0  0  0  0  0  0  0  0  0  0
   -5.5036   -0.7668   13.9448 H   0  0  0  0  0  0  0  0  0  0  0  0
   -4.5369   -1.6334   12.4147 C   0  0  0  0  0  0  0  0  0  0  0  0
   -4.4212   -2.4724   12.8468 H   0  0  0  0  0  0  0  0  0  0  0  0
   -4.0502   -1.4563   11.1175 C   0  0  0  0  0  0  0  0  0  0  0  0
   -3.6150   -2.1756   10.6754 H   0  0  0  0  0  0  0  0  0  0  0  0
   -0.9484    0.6031   11.5813 C   0  0  0  0  0  0  0  0  0  0  0  0
   -1.5152    1.6486   12.2688 C   0  0  0  0  0  0  0  0  0  0  0  0
   -1.7348    2.4472   11.8053 H   0  0  0  0  0  0  0  0  0  0  0  0
   -1.7743    1.5585   13.6309 C   0  0  0  0  0  0  0  0  0  0  0  0
   -2.1749    2.2907   14.0848 H   0  0  0  0  0  0  0  0  0  0  0  0
   -1.4570    0.4273   14.3224 C   0  0  0  0  0  0  0  0  0  0  0  0
   -1.6416    0.3640   15.2516 H   0  0  0  0  0  0  0  0  0  0  0  0
   -0.8708   -0.6111   13.6606 C   0  0  0  0  0  0  0  0  0  0  0  0
   -0.6325   -1.3974   14.1389 H   0  0  0  0  0  0  0  0  0  0  0  0
   -0.6187   -0.5344   12.2951 C   0  0  0  0  0  0  0  0  0  0  0  0
   -0.2154   -1.2705   11.8495 H   0  0  0  0  0  0  0  0  0  0  0  0
    0.4140    2.1847    9.6567 C   0  0  0  0  0  0  0  0  0  0  0  0
    0.1368    3.2287    8.7680 C   0  0  0  0  0  0  0  0  0  0  0  0
   -0.6443    3.1972    8.2264 H   0  0  0  0  0  0  0  0  0  0  0  0
    1.0052    4.3185    8.6749 C   0  0  0  0  0  0  0  0  0  0  0  0
    0.8194    5.0197    8.0618 H   0  0  0  0  0  0  0  0  0  0  0  0
    2.1293    4.3821    9.4656 C   0  0  0  0  0  0  0  0  0  0  0  0
    2.7158    5.1270    9.4005 H   0  0  0  0  0  0  0  0  0  0  0  0
    2.4053    3.3561   10.3575 C   0  0  0  0  0  0  0  0  0  0  0  0
    3.1774    3.4055   10.9087 H   0  0  0  0  0  0  0  0  0  0  0  0
    1.5617    2.2607   10.4489 C   0  0  0  0  0  0  0  0  0  0  0  0
    1.7661    1.5576   11.0537 H   0  0  0  0  0  0  0  0  0  0  0  0
   -1.5455   -4.4299    5.6693 C   0  0  0  0  0  0  0  0  0  0  0  0
   -2.1798   -4.6200    6.3915 H   0  0  0  0  0  0  0  0  0  0  0  0
   -1.7358   -5.0132    4.9054 H   0  0  0  0  0  0  0  0  0  0  0  0
   -1.6333   -3.4937    5.3966 H   0  0  0  0  0  0  0  0  0  0  0  0
   -0.1645   -4.6769    6.1463 C   0  0  0  0  0  0  0  0  0  0  0  0
   -0.0696   -5.6216    6.4283 H   0  0  0  0  0  0  0  0  0  0  0  0
    0.4803   -4.5038    5.4163 H   0  0  0  0  0  0  0  0  0  0  0  0
    1.4260   -4.0038    7.8469 C   0  0  0  0  0  0  0  0  0  0  0  0
    1.4134   -3.6146    8.7570 H   0  0  0  0  0  0  0  0  0  0  0  0
    1.6079   -4.9726    7.9365 H   0  0  0  0  0  0  0  0  0  0  0  0
    2.5118   -3.3833    7.0800 C   0  0  0  0  0  0  0  0  0  0  0  0
    2.5823   -3.8177    6.2048 H   0  0  0  0  0  0  0  0  0  0  0  0
    3.3565   -3.4905    7.5656 H   0  0  0  0  0  0  0  0  0  0  0  0
    2.3238   -2.4299    6.9589 H   0  0  0  0  0  0  0  0  0  0  0  0
   -1.5495    2.6392    5.1056 B   0  0  0  0  0  0  0  0  0  0  0  0
   -2.3120    1.8267    5.2296 H   0  0  0  0  0  0  0  0  0  0  0  0
   -0.5998    2.5517    5.8265 H   0  0  0  0  0  0  0  0  0  0  0  0
   -1.9747    3.6304    5.2001 H   0  0  0  0  0  0  0  0  0  0  0  0
   -0.1985   -0.5673    5.1525 B   0  0  0  0  0  0  0  0  0  0  0  0
    0.1945    0.2028    5.8486 H   0  0  0  0  0  0  0  0  0  0  0  0
   -1.2939   -0.5509    5.1412 H   0  0  0  0  0  0  0  0  0  0  0  0
    0.1633   -1.5875    5.4310 H   0  0  0  0  0  0  0  0  0  0  0  0
   -3.1727   -1.6697    7.9134 B   0  0  0  0  0  0  0  0  0  0  0  0
   -4.1715   -2.1229    7.6835 H   0  0  0  0  0  0  0  0  0  0  0  0
   -2.7475   -1.3855    6.9417 H   0  0  0  0  0  0  0  0  0  0  0  0
   -2.4350   -2.3647    8.5211 H   0  0  0  0  0  0  0  0  0  0  0  0
    0.3056   -0.8746    9.2057 B   0  0  0  0  0  0  0  0  0  0  0  0
    0.4133   -0.7356    8.0643 H   0  0  0  0  0  0  0  0  0  0  0  0
    1.2743   -0.9024    9.6756 H   0  0  0  0  0  0  0  0  0  0  0  0
   -0.3200   -1.7985    9.4447 H   0  0  0  0  0  0  0  0  0  0  0  0
   -1.4116    0.9110    6.6570 Li  0  3  0  0  0  0  0  0  0  0  0  0
   -0.7849   -2.1480    7.4158 Li  0  0  0  0  0  0  0  0  0  0  0  0
  1  6  1  0  0  0  0
  2  6  1  0  0  0  0
  3 52  1  0  0  0  0
  4 52  1  0  0  0  0
  5102  1  0  0  0  0
  6  7  1  0  0  0  0
  8  1  1  0  0  0  0
  9  8  4  0  0  0  0
 10  9  1  0  0  0  0
 11  9  4  0  0  0  0
 12 11  1  0  0  0  0
 13 11  4  0  0  0  0
 14 13  1  0  0  0  0
 15 13  4  0  0  0  0
 16 15  1  0  0  0  0
 17  8  4  0  0  0  0
 18 17  1  0  0  0  0
 19  1  1  0  0  0  0
 20 19  4  0  0  0  0
 21 20  1  0  0  0  0
 22 20  4  0  0  0  0
 23 22  1  0  0  0  0
 24 22  4  0  0  0  0
 25 24  1  0  0  0  0
 26 24  4  0  0  0  0
 27 26  1  0  0  0  0
 28 19  4  0  0  0  0
 29 28  1  0  0  0  0
 30  2  1  0  0  0  0
 31 30  4  0  0  0  0
 32 31  1  0  0  0  0
 33 31  4  0  0  0  0
 34 33  1  0  0  0  0
 35 33  4  0  0  0  0
 36 35  1  0  0  0  0
 37 35  4  0  0  0  0
 38 37  1  0  0  0  0
 39 30  4  0  0  0  0
 40 39  1  0  0  0  0
 41  2  1  0  0  0  0
 42 41  4  0  0  0  0
 43 42  1  0  0  0  0
 44 42  4  0  0  0  0
 45 44  1  0  0  0  0
 46 44  4  0  0  0  0
 47 46  1  0  0  0  0
 48 46  4  0  0  0  0
 49 48  1  0  0  0  0
 50 41  4  0  0  0  0
 51 50  1  0  0  0  0
 52 53  1  0  0  0  0
 54  3  1  0  0  0  0
 55 54  4  0  0  0  0
 56 55  1  0  0  0  0
 57 55  4  0  0  0  0
 58 57  1  0  0  0  0
 59 57  4  0  0  0  0
 60 59  1  0  0  0  0
 61 59  4  0  0  0  0
 62 61  1  0  0  0  0
 63 54  4  0  0  0  0
 64 63  1  0  0  0  0
 65  3  1  0  0  0  0
 66 65  4  0  0  0  0
 67 66  1  0  0  0  0
 68 66  4  0  0  0  0
 69 68  1  0  0  0  0
 70 68  4  0  0  0  0
 71 70  1  0  0  0  0
 72 70  4  0  0  0  0
 73 72  1  0  0  0  0
 74 65  4  0  0  0  0
 75 74  1  0  0  0  0
 76  4  1  0  0  0  0
 77 76  4  0  0  0  0
 78 77  1  0  0  0  0
 79 77  4  0  0  0  0
 80 79  1  0  0  0  0
 81 79  4  0  0  0  0
 82 81  1  0  0  0  0
 83 81  4  0  0  0  0
 84 83  1  0  0  0  0
 85 76  4  0  0  0  0
 86 85  1  0  0  0  0
 87  4  1  0  0  0  0
 88 87  4  0  0  0  0
 89 88  1  0  0  0  0
 90 88  4  0  0  0  0
 91 90  1  0  0  0  0
 92 90  4  0  0  0  0
 93 92  1  0  0  0  0
 94 92  4  0  0  0  0
 95 94  1  0  0  0  0
 96 87  4  0  0  0  0
 97 96  1  0  0  0  0
 98 99  1  0  0  0  0
100 98  1  0  0  0  0
101 98  1  0  0  0  0
102 98  1  0  0  0  0
103102  1  0  0  0  0
104102  1  0  0  0  0
105  5  1  0  0  0  0
106105  1  0  0  0  0
107105  1  0  0  0  0
108105  1  0  0  0  0
109108  1  0  0  0  0
110108  1  0  0  0  0
111108  1  0  0  0  0
112  1  1  0  0  0  0
113112  1  0  0  0  0
114112  1  0  0  0  0
115112  1  0  0  0  0
116  2  1  0  0  0  0
117116  1  0  0  0  0
118116  1  0  0  0  0
119116  1  0  0  0  0
120  3  1  0  0  0  0
121120  1  0  0  0  0
122120  1  0  0  0  0
123120  1  0  0  0  0
124  4  1  0  0  0  0
125124  1  0  0  0  0
126124  1  0  0  0  0
127124  1  0  0  0  0
128 52  1  0  0  0  0
129  5  1  0  0  0  0
 15 17  4  0  0  0  0
 26 28  4  0  0  0  0
 37 39  4  0  0  0  0
 48 50  4  0  0  0  0
 61 63  4  0  0  0  0
 72 74  4  0  0  0  0
 83 85  4  0  0  0  0
 94 96  4  0  0  0  0
113128  1  0  0  0  0
114128  1  0  0  0  0
117128  1  0  0  0  0
118128  1  0  0  0  0
122129  1  0  0  0  0
123129  1  0  0  0  0
125129  1  0  0  0  0
127129  1  0  0  0  0
M  CHG  2   6  -1 128   1
M  END
$$$$
GUKMIK

From CSD data. Using bond type 'Any'. Matching problem. No disordered atoms. Largest molecule.
 85105  0  0  0  0  0  0  0  0999 V2000
    3.1793    2.8356    3.9272 Ir  0  0  0  0  0  0  0  0  0  0  0  0
    3.3140    4.9676    4.3476 C   0  0  0  0  0  0  0  0  0  0  0  0
    4.6505    2.7456    5.5559 C   0  0  0  0  0  0  0  0  0  0  0  0
    4.6895    4.0440    6.4066 C   0  0  0  0  0  0  0  0  0  0  0  0
    6.0759    4.6811    4.1197 B   0  0  0  0  0  0  0  0  0  0  0  0
    4.7450    5.8616    4.3773 B   0  0  0  0  0  0  0  0  0  0  0  0
    4.5138    4.4945    3.2413 B   0  0  0  0  0  0  0  0  0  0  0  0
    5.4056    3.0423    4.0233 B   0  0  0  0  0  0  0  0  0  0  0  0
    6.1161    3.6379    5.5485 B   0  0  0  0  0  0  0  0  0  0  0  0
    5.6325    5.3251    5.7542 B   0  0  0  0  0  0  0  0  0  0  0  0
    3.8336    5.2987    5.8265 B   0  0  0  0  0  0  0  0  0  0  0  0
    4.7234    1.4819    6.3213 C   0  0  0  0  0  0  0  0  0  0  0  0
    4.0541    1.3654    7.5389 C   0  0  0  0  0  0  0  0  0  0  0  0
    3.5832    2.0949    7.8743 H   0  0  0  0  0  0  0  0  0  0  0  0
    4.0790    0.1838    8.2579 C   0  0  0  0  0  0  0  0  0  0  0  0
    3.6235    0.1214    9.0678 H   0  0  0  0  0  0  0  0  0  0  0  0
    4.7838   -0.9094    7.7724 C   0  0  0  0  0  0  0  0  0  0  0  0
    4.7949   -1.7075    8.2487 H   0  0  0  0  0  0  0  0  0  0  0  0
    5.4705   -0.8043    6.5715 C   0  0  0  0  0  0  0  0  0  0  0  0
    5.9536   -1.5297    6.2490 H   0  0  0  0  0  0  0  0  0  0  0  0
    5.4398    0.3815    5.8469 C   0  0  0  0  0  0  0  0  0  0  0  0
    5.8990    0.4431    5.0408 H   0  0  0  0  0  0  0  0  0  0  0  0
    3.7459    0.0399    2.9188 O   0  0  0  0  0  0  0  0  0  0  0  0
    1.1859    2.2818    5.0812 P   0  0  0  0  0  0  0  0  0  0  0  0
    1.7458    3.1802    2.0999 P   0  0  0  0  0  0  0  0  0  0  0  0
   -0.1807    2.9969    4.0938 C   0  0  0  0  0  0  0  0  0  0  0  0
   -1.0231    2.6075    4.3773 H   0  0  0  0  0  0  0  0  0  0  0  0
   -0.2246    3.9540    4.2457 H   0  0  0  0  0  0  0  0  0  0  0  0
    0.0358    2.7230    2.6112 C   0  0  0  0  0  0  0  0  0  0  0  0
   -0.6034    3.2358    2.0904 H   0  0  0  0  0  0  0  0  0  0  0  0
   -0.1148    1.7821    2.4296 H   0  0  0  0  0  0  0  0  0  0  0  0
    0.8054    0.4931    5.1557 C   0  0  0  0  0  0  0  0  0  0  0  0
    1.8085   -0.4197    5.4559 C   0  0  0  0  0  0  0  0  0  0  0  0
    2.6713   -0.1110    5.6171 H   0  0  0  0  0  0  0  0  0  0  0  0
    1.5517   -1.7747    5.5189 C   0  0  0  0  0  0  0  0  0  0  0  0
    2.2402   -2.3703    5.7116 H   0  0  0  0  0  0  0  0  0  0  0  0
    0.2687   -2.2497    5.2983 C   0  0  0  0  0  0  0  0  0  0  0  0
    0.0904   -3.1608    5.3614 H   0  0  0  0  0  0  0  0  0  0  0  0
   -0.7449   -1.3652    4.9852 C   0  0  0  0  0  0  0  0  0  0  0  0
   -1.6005   -1.6843    4.8091 H   0  0  0  0  0  0  0  0  0  0  0  0
   -0.4897   -0.0034    4.9314 C   0  0  0  0  0  0  0  0  0  0  0  0
   -1.1841    0.5876    4.7461 H   0  0  0  0  0  0  0  0  0  0  0  0
    0.8907    2.8954    6.7661 C   0  0  0  0  0  0  0  0  0  0  0  0
    0.9126    4.2666    6.9792 C   0  0  0  0  0  0  0  0  0  0  0  0
    1.0365    4.8443    6.2620 H   0  0  0  0  0  0  0  0  0  0  0  0
    0.7490    4.7814    8.2616 C   0  0  0  0  0  0  0  0  0  0  0  0
    0.7533    5.7004    8.4006 H   0  0  0  0  0  0  0  0  0  0  0  0
    0.5797    3.9202    9.3309 C   0  0  0  0  0  0  0  0  0  0  0  0
    0.4802    4.2616   10.1908 H   0  0  0  0  0  0  0  0  0  0  0  0
    0.5592    2.5544    9.1289 C   0  0  0  0  0  0  0  0  0  0  0  0
    0.4415    1.9788    9.8499 H   0  0  0  0  0  0  0  0  0  0  0  0
    0.7124    2.0417    7.8502 C   0  0  0  0  0  0  0  0  0  0  0  0
    0.6952    1.1215    7.7168 H   0  0  0  0  0  0  0  0  0  0  0  0
    1.5637    4.8785    1.4492 C   0  0  0  0  0  0  0  0  0  0  0  0
    2.0667    5.2235    0.1927 C   0  0  0  0  0  0  0  0  0  0  0  0
    2.4782    4.5813   -0.3391 H   0  0  0  0  0  0  0  0  0  0  0  0
    1.9497    6.5325   -0.2557 C   0  0  0  0  0  0  0  0  0  0  0  0
    2.2622    6.7528   -1.1027 H   0  0  0  0  0  0  0  0  0  0  0  0
    1.3810    7.5095    0.5282 C   0  0  0  0  0  0  0  0  0  0  0  0
    1.3478    8.3904    0.2317 H   0  0  0  0  0  0  0  0  0  0  0  0
    0.8591    7.1637    1.7661 C   0  0  0  0  0  0  0  0  0  0  0  0
    0.4633    7.8146    2.2980 H   0  0  0  0  0  0  0  0  0  0  0  0
    0.9232    5.8621    2.2072 C   0  0  0  0  0  0  0  0  0  0  0  0
    0.5362    5.6345    3.0207 H   0  0  0  0  0  0  0  0  0  0  0  0
    2.1070    2.1911    0.6208 C   0  0  0  0  0  0  0  0  0  0  0  0
    3.4218    2.0051    0.2391 C   0  0  0  0  0  0  0  0  0  0  0  0
    4.1056    2.3285    0.7821 H   0  0  0  0  0  0  0  0  0  0  0  0
    3.7376    1.3463   -0.9359 C   0  0  0  0  0  0  0  0  0  0  0  0
    4.6286    1.2334   -1.1786 H   0  0  0  0  0  0  0  0  0  0  0  0
    2.7329    0.8531   -1.7513 C   0  0  0  0  0  0  0  0  0  0  0  0
    2.9445    0.4174   -2.5445 H   0  0  0  0  0  0  0  0  0  0  0  0
    1.4177    1.0125   -1.3769 C   0  0  0  0  0  0  0  0  0  0  0  0
    0.7384    0.6676   -1.9107 H   0  0  0  0  0  0  0  0  0  0  0  0
    1.1020    1.6981   -0.1909 C   0  0  0  0  0  0  0  0  0  0  0  0
    0.2121    1.8215    0.0482 H   0  0  0  0  0  0  0  0  0  0  0  0
    3.4999    1.0746    3.3191 C   0  0  0  0  0  0  0  0  0  0  0  0
    6.9274    4.9707    3.6138 H   0  0  0  0  0  0  0  0  0  0  0  0
    4.6789    6.8293    4.0215 H   0  0  0  0  0  0  0  0  0  0  0  0
    4.5870    4.6767    2.0941 H   0  0  0  0  0  0  0  0  0  0  0  0
    5.9556    2.2263    3.5211 H   0  0  0  0  0  0  0  0  0  0  0  0
    6.9577    3.2033    6.0230 H   0  0  0  0  0  0  0  0  0  0  0  0
    6.1425    6.0834    6.5233 H   0  0  0  0  0  0  0  0  0  0  0  0
    2.4981    5.4001    4.0585 H   0  0  0  0  0  0  0  0  0  0  0  0
    4.7448    4.0104    7.3758 H   0  0  0  0  0  0  0  0  0  0  0  0
    3.3359    6.1498    6.4863 H   0  0  0  0  0  0  0  0  0  0  0  0
  1  2  1  0  0  0  0
  2  6  1  0  0  0  0
  3  1  1  0  0  0  0
  4  3  1  0  0  0  0
  5  6  1  0  0  0  0
  6  7  1  0  0  0  0
  7  1  1  0  0  0  0
  8  1  1  0  0  0  0
  9  3  1  0  0  0  0
 10  4  1  0  0  0  0
 11  2  1  0  0  0  0
 12  3  1  0  0  0  0
 13 12  4  0  0  0  0
 14 13  1  0  0  0  0
 15 13  4  0  0  0  0
 16 15  1  0  0  0  0
 17 15  4  0  0  0  0
 18 17  1  0  0  0  0
 19 17  4  0  0  0  0
 20 19  1  0  0  0  0
 21 12  4  0  0  0  0
 22 21  1  0  0  0  0
 23 76  3  0  0  0  0
 24  1  1  0  0  0  0
 25  1  1  0  0  0  0
 26 24  1  0  0  0  0
 27 26  1  0  0  0  0
 28 26  1  0  0  0  0
 29 25  1  0  0  0  0
 30 29  1  0  0  0  0
 31 29  1  0  0  0  0
 32 24  1  0  0  0  0
 33 32  4  0  0  0  0
 34 33  1  0  0  0  0
 35 33  4  0  0  0  0
 36 35  1  0  0  0  0
 37 35  4  0  0  0  0
 38 37  1  0  0  0  0
 39 37  4  0  0  0  0
 40 39  1  0  0  0  0
 41 32  4  0  0  0  0
 42 41  1  0  0  0  0
 43 24  1  0  0  0  0
 44 43  4  0  0  0  0
 45 44  1  0  0  0  0
 46 44  4  0  0  0  0
 47 46  1  0  0  0  0
 48 46  4  0  0  0  0
 49 48  1  0  0  0  0
 50 48  4  0  0  0  0
 51 50  1  0  0  0  0
 52 43  4  0  0  0  0
 53 52  1  0  0  0  0
 54 25  1  0  0  0  0
 55 54  4  0  0  0  0
 56 55  1  0  0  0  0
 57 55  4  0  0  0  0
 58 57  1  0  0  0  0
 59 57  4  0  0  0  0
 60 59  1  0  0  0  0
 61 59  4  0  0  0  0
 62 61  1  0  0  0  0
 63 54  4  0  0  0  0
 64 63  1  0  0  0  0
 65 25  1  0  0  0  0
 66 65  4  0  0  0  0
 67 66  1  0  0  0  0
 68 66  4  0  0  0  0
 69 68  1  0  0  0  0
 70 68  4  0  0  0  0
 71 70  1  0  0  0  0
 72 70  4  0  0  0  0
 73 72  1  0  0  0  0
 74 65  4  0  0  0  0
 75 74  1  0  0  0  0
 76  1  1  0  0  0  0
 77  5  1  0  0  0  0
 78  6  1  0  0  0  0
 79  7  1  0  0  0  0
 80  8  1  0  0  0  0
 81  9  1  0  0  0  0
 82 10  1  0  0  0  0
 83  2  1  0  0  0  0
 84  4  1  0  0  0  0
 85 11  1  0  0  0  0
  2  7  1  0  0  0  0
  3  8  1  0  0  0  0
  4  9  1  0  0  0  0
  4 11  1  0  0  0  0
  5  7  1  0  0  0  0
  5  8  1  0  0  0  0
  5  9  1  0  0  0  0
  5 10  1  0  0  0  0
  6 10  1  0  0  0  0
  6 11  1  0  0  0  0
  7  8  1  0  0  0  0
  8  9  1  0  0  0  0
  9 10  1  0  0  0  0
 10 11  1  0  0  0  0
 19 21  4  0  0  0  0
 26 29  1  0  0  0  0
 39 41  4  0  0  0  0
 50 52  4  0  0  0  0
 61 63  4  0  0  0  0
 72 74  4  0  0  0  0
M  END
$$$$
GUWVAV

From CSD data. Using bond type 'Any'. No disordered atoms. Largest molecule.
 94122  0  0  0  0  0  0  0  0999 V2000
    1.9662    0.4949    6.0624 Co  0  0  0  0  0  0  0  0  0  0  0  0
    2.5280   -1.3492    7.0011 C   0  0  0  0  0  0  0  0  0  0  0  0
    2.1228   -1.3660    8.0224 H   0  0  0  0  0  0  0  0  0  0  0  0
    1.4660   -1.5301    5.7295 B   0  0  0  0  0  0  0  0  0  0  0  0
    0.3817   -1.6537    5.8646 H   0  0  0  0  0  0  0  0  0  0  0  0
    2.2102   -0.6922    4.2652 B   0  0  0  0  0  0  0  0  0  0  0  0
    1.6415   -0.2829    3.4168 H   0  0  0  0  0  0  0  0  0  0  0  0
    3.6949    0.0619    4.8632 B   0  0  0  0  0  0  0  0  0  0  0  0
    4.1051    0.9747    4.4057 H   0  0  0  0  0  0  0  0  0  0  0  0
    3.8291   -0.3321    6.6679 B   0  0  0  0  0  0  0  0  0  0  0  0
    4.3046    0.3240    7.4136 H   0  0  0  0  0  0  0  0  0  0  0  0
    2.5741   -2.8271    6.2122 B   0  0  0  0  0  0  0  0  0  0  0  0
    2.2103   -3.7702    6.6463 H   0  0  0  0  0  0  0  0  0  0  0  0
    2.3682   -2.4543    4.4777 B   0  0  0  0  0  0  0  0  0  0  0  0
    1.8551   -3.1409    3.7879 H   0  0  0  0  0  0  0  0  0  0  0  0
    3.7749   -1.5045    3.9842 B   0  0  0  0  0  0  0  0  0  0  0  0
    4.2047   -1.5947    2.9755 H   0  0  0  0  0  0  0  0  0  0  0  0
    4.7868   -1.2229    5.4143 B   0  0  0  0  0  0  0  0  0  0  0  0
    5.8765   -1.0900    5.3351 H   0  0  0  0  0  0  0  0  0  0  0  0
    4.0317   -2.0960    6.7886 B   0  0  0  0  0  0  0  0  0  0  0  0
    4.6272   -2.5500    7.5937 H   0  0  0  0  0  0  0  0  0  0  0  0
    3.9874   -2.7932    5.1495 B   0  0  0  0  0  0  0  0  0  0  0  0
    4.5506   -3.7005    4.8902 H   0  0  0  0  0  0  0  0  0  0  0  0
    2.3110    1.9964    6.6193 N   0  0  0  0  0  0  0  0  0  0  0  0
    2.5921    3.0747    6.9435 O   0  0  0  0  0  0  0  0  0  0  0  0
   -0.2668    0.8192    6.1589 P   0  0  0  0  0  0  0  0  0  0  0  0
   -1.0452   -0.0452    7.5397 C   0  0  0  0  0  0  0  0  0  0  0  0
   -2.3211   -0.5582    7.4694 C   0  0  0  0  0  0  0  0  0  0  0  0
   -2.8017   -0.4988    6.6751 H   0  0  0  0  0  0  0  0  0  0  0  0
   -2.8992   -1.1703    8.5952 C   0  0  0  0  0  0  0  0  0  0  0  0
   -3.7663   -1.5038    8.5501 H   0  0  0  0  0  0  0  0  0  0  0  0
   -2.1837   -1.2750    9.7497 C   0  0  0  0  0  0  0  0  0  0  0  0
   -2.5612   -1.7004   10.4864 H   0  0  0  0  0  0  0  0  0  0  0  0
   -0.9024   -0.7560    9.8452 C   0  0  0  0  0  0  0  0  0  0  0  0
   -0.4250   -0.8126   10.6413 H   0  0  0  0  0  0  0  0  0  0  0  0
   -0.3464   -0.1506    8.7303 C   0  0  0  0  0  0  0  0  0  0  0  0
    0.5164    0.1915    8.7807 H   0  0  0  0  0  0  0  0  0  0  0  0
   -1.3704    0.5344    4.7407 C   0  0  0  0  0  0  0  0  0  0  0  0
   -1.2517   -0.5490    3.8887 C   0  0  0  0  0  0  0  0  0  0  0  0
   -0.5407   -1.1397    3.9968 H   0  0  0  0  0  0  0  0  0  0  0  0
   -2.1701   -0.7668    2.8855 C   0  0  0  0  0  0  0  0  0  0  0  0
   -2.0652   -1.4977    2.3199 H   0  0  0  0  0  0  0  0  0  0  0  0
   -3.2457    0.0866    2.7036 C   0  0  0  0  0  0  0  0  0  0  0  0
   -3.8659   -0.0684    2.0299 H   0  0  0  0  0  0  0  0  0  0  0  0
   -3.3740    1.1511    3.5321 C   0  0  0  0  0  0  0  0  0  0  0  0
   -4.0919    1.7314    3.4168 H   0  0  0  0  0  0  0  0  0  0  0  0
   -2.4623    1.3962    4.5461 C   0  0  0  0  0  0  0  0  0  0  0  0
   -2.5729    2.1360    5.1009 H   0  0  0  0  0  0  0  0  0  0  0  0
   -0.5914    2.5717    6.5544 C   0  0  0  0  0  0  0  0  0  0  0  0
   -0.2156    3.5368    5.6232 C   0  0  0  0  0  0  0  0  0  0  0  0
    0.1877    3.2797    4.8253 H   0  0  0  0  0  0  0  0  0  0  0  0
   -0.4404    4.8836    5.8844 C   0  0  0  0  0  0  0  0  0  0  0  0
   -0.1952    5.5226    5.2558 H   0  0  0  0  0  0  0  0  0  0  0  0
   -1.0194    5.2777    7.0588 C   0  0  0  0  0  0  0  0  0  0  0  0
   -1.1592    6.1805    7.2317 H   0  0  0  0  0  0  0  0  0  0  0  0
   -1.3890    4.3402    7.9738 C   0  0  0  0  0  0  0  0  0  0  0  0
   -1.7949    4.6091    8.7663 H   0  0  0  0  0  0  0  0  0  0  0  0
   -1.1666    2.9795    7.7396 C   0  0  0  0  0  0  0  0  0  0  0  0
   -1.4058    2.3521    8.3826 H   0  0  0  0  0  0  0  0  0  0  0  0
    2.4045    1.3552    3.6511 Cu  0  0  0  0  0  0  0  0  0  0  0  0
    2.2654    3.0207    2.2592 P   0  0  0  0  0  0  0  0  0  0  0  0
    0.9710    2.8305    1.0123 C   0  0  0  0  0  0  0  0  0  0  0  0
    1.0522    3.4244   -0.2486 C   0  0  0  0  0  0  0  0  0  0  0  0
    1.7815    3.9598   -0.4629 H   0  0  0  0  0  0  0  0  0  0  0  0
    0.0554    3.2213   -1.1690 C   0  0  0  0  0  0  0  0  0  0  0  0
    0.1154    3.6256   -2.0047 H   0  0  0  0  0  0  0  0  0  0  0  0
   -1.0199    2.4362   -0.8826 C   0  0  0  0  0  0  0  0  0  0  0  0
   -1.6867    2.3044   -1.5166 H   0  0  0  0  0  0  0  0  0  0  0  0
   -1.1115    1.8426    0.3512 C   0  0  0  0  0  0  0  0  0  0  0  0
   -1.8330    1.2899    0.5512 H   0  0  0  0  0  0  0  0  0  0  0  0
   -0.1188    2.0687    1.3076 C   0  0  0  0  0  0  0  0  0  0  0  0
   -0.2017    1.6969    2.1560 H   0  0  0  0  0  0  0  0  0  0  0  0
    3.7799    3.1967    1.2644 C   0  0  0  0  0  0  0  0  0  0  0  0
    4.3619    2.0298    0.7529 C   0  0  0  0  0  0  0  0  0  0  0  0
    4.0096    1.1984    0.9708 H   0  0  0  0  0  0  0  0  0  0  0  0
    5.4510    2.1173   -0.0666 C   0  0  0  0  0  0  0  0  0  0  0  0
    5.8369    1.3372   -0.3945 H   0  0  0  0  0  0  0  0  0  0  0  0
    5.9900    3.3343   -0.4197 C   0  0  0  0  0  0  0  0  0  0  0  0
    6.7183    3.3784   -0.9978 H   0  0  0  0  0  0  0  0  0  0  0  0
    5.4321    4.4848    0.0973 C   0  0  0  0  0  0  0  0  0  0  0  0
    5.7984    5.3159   -0.1045 H   0  0  0  0  0  0  0  0  0  0  0  0
    4.3308    4.3928    0.9132 C   0  0  0  0  0  0  0  0  0  0  0  0
    3.9472    5.1756    1.2356 H   0  0  0  0  0  0  0  0  0  0  0  0
    2.0745    4.6828    2.9881 C   0  0  0  0  0  0  0  0  0  0  0  0
    1.1018    5.5810    2.5414 C   0  0  0  0  0  0  0  0  0  0  0  0
    0.5089    5.3409    1.8678 H   0  0  0  0  0  0  0  0  0  0  0  0
    1.0360    6.8498    3.1286 C   0  0  0  0  0  0  0  0  0  0  0  0
    0.3812    7.4491    2.8530 H   0  0  0  0  0  0  0  0  0  0  0  0
    1.9097    7.2173    4.0905 C   0  0  0  0  0  0  0  0  0  0  0  0
    1.8531    8.0671    4.4615 H   0  0  0  0  0  0  0  0  0  0  0  0
    2.8863    6.3445    4.5281 C   0  0  0  0  0  0  0  0  0  0  0  0
    3.4929    6.6014    5.1838 H   0  0  0  0  0  0  0  0  0  0  0  0
    2.9450    5.0680    3.9626 C   0  0  0  0  0  0  0  0  0  0  0  0
    3.5920    4.4696    4.2580 H   0  0  0  0  0  0  0  0  0  0  0  0
  1  2  1  0  0  0  0
  2  3  1  0  0  0  0
  4  1  1  0  0  0  0
  5  4  1  0  0  0  0
  6  1  1  0  0  0  0
  7  6  1  0  0  0  0
  8  1  1  0  0  0  0
  9  8  1  0  0  0  0
 10  1  1  0  0  0  0
 11 10  1  0  0  0  0
 12  2  1  0  0  0  0
 13 12  1  0  0  0  0
 14  4  1  0  0  0  0
 15 14  1  0  0  0  0
 16  6  1  0  0  0  0
 17 16  1  0  0  0  0
 18  8  1  0  0  0  0
 19 18  1  0  0  0  0
 20  2  1  0  0  0  0
 21 20  1  0  0  0  0
 22 12  1  0  0  0  0
 23 22  1  0  0  0  0
 24  1  1  0  0  0  0
 25 24  2  0  0  0  0
 26  1  1  0  0  0  0
 27 26  1  0  0  0  0
 28 27  4  0  0  0  0
 29 28  1  0  0  0  0
 30 28  4  0  0  0  0
 31 30  1  0  0  0  0
 32 30  4  0  0  0  0
 33 32  1  0  0  0  0
 34 32  4  0  0  0  0
 35 34  1  0  0  0  0
 36 27  4  0  0  0  0
 37 36  1  0  0  0  0
 38 26  1  0  0  0  0
 39 38  4  0  0  0  0
 40 39  1  0  0  0  0
 41 39  4  0  0  0  0
 42 41  1  0  0  0  0
 43 41  4  0  0  0  0
 44 43  1  0  0  0  0
 45 43  4  0  0  0  0
 46 45  1  0  0  0  0
 47 38  4  0  0  0  0
 48 47  1  0  0  0  0
 49 26  1  0  0  0  0
 50 49  4  0  0  0  0
 51 50  1  0  0  0  0
 52 50  4  0  0  0  0
 53 52  1  0  0  0  0
 54 52  4  0  0  0  0
 55 54  1  0  0  0  0
 56 54  4  0  0  0  0
 57 56  1  0  0  0  0
 58 49  4  0  0  0  0
 59 58  1  0  0  0  0
 60  1  1  0  0  0  0
 61 60  1  0  0  0  0
 62 61  1  0  0  0  0
 63 62  4  0  0  0  0
 64 63  1  0  0  0  0
 65 63  4  0  0  0  0
 66 65  1  0  0  0  0
 67 65  4  0  0  0  0
 68 67  1  0  0  0  0
 69 67  4  0  0  0  0
 70 69  1  0  0  0  0
 71 62  4  0  0  0  0
 72 71  1  0  0  0  0
 73 61  1  0  0  0  0
 74 73  4  0  0  0  0
 75 74  1  0  0  0  0
 76 74  4  0  0  0  0
 77 76  1  0  0  0  0
 78 76  4  0  0  0  0
 79 78  1  0  0  0  0
 80 78  4  0  0  0  0
 81 80  1  0  0  0  0
 82 73  4  0  0  0  0
 83 82  1  0  0  0  0
 84 61  1  0  0  0  0
 85 84  4  0  0  0  0
 86 85  1  0  0  0  0
 87 85  4  0  0  0  0
 88 87  1  0  0  0  0
 89 87  4  0  0  0  0
 90 89  1  0  0  0  0
 91 89  4  0  0  0  0
 92 91  1  0  0  0  0
 93 84  4  0  0  0  0
 94 93  1  0  0  0  0
  2  4  1  0  0  0  0
  2 10  1  0  0  0  0
  4  6  1  0  0  0  0
  4 12  1  0  0  0  0
  6  8  1  0  0  0  0
  6 14  1  0  0  0  0
  6 60  1  0  0  0  0
  7 60  1  0  0  0  0
  8 10  1  0  0  0  0
  8 16  1  0  0  0  0
  8 60  1  0  0  0  0
  9 60  1  0  0  0  0
 10 18  1  0  0  0  0
 10 20  1  0  0  0  0
 12 14  1  0  0  0  0
 12 20  1  0  0  0  0
 14 16  1  0  0  0  0
 14 22  1  0  0  0  0
 16 18  1  0  0  0  0
 16 22  1  0  0  0  0
 18 20  1  0  0  0  0
 18 22  1  0  0  0  0
 20 22  1  0  0  0  0
 34 36  4  0  0  0  0
 45 47  4  0  0  0  0
 56 58  4  0  0  0  0
 69 71  4  0  0  0  0
 80 82  4  0  0  0  0
 91 93  4  0  0  0  0
M  END
$$$$
HAHWOG

From CSD data. Using bond type 'Any'. No disordered atoms. Largest molecule.
146163  0  0  0  0  0  0  0  0999 V2000
   14.9042    0.2435   11.2428 C   0  0  0  0  0  0  0  0  0  0  0  0
   14.4807   -1.0767   11.2632 C   0  0  0  0  0  0  0  0  0  0  0  0
   14.8430   -1.7045   10.6490 H   0  0  0  0  0  0  0  0  0  0  0  0
   13.5184   -1.4777   12.1916 C   0  0  0  0  0  0  0  0  0  0  0  0
   13.2451   -2.3870   12.2251 H   0  0  0  0  0  0  0  0  0  0  0  0
   12.9640   -0.5660   13.0577 C   0  0  0  0  0  0  0  0  0  0  0  0
   12.3085   -0.8456   13.6860 H   0  0  0  0  0  0  0  0  0  0  0  0
   13.3603    0.7595   13.0144 C   0  0  0  0  0  0  0  0  0  0  0  0
   12.9577    1.3935   13.5963 H   0  0  0  0  0  0  0  0  0  0  0  0
   14.3409    1.1638   12.1264 C   0  0  0  0  0  0  0  0  0  0  0  0
   14.6306    2.0686   12.1184 H   0  0  0  0  0  0  0  0  0  0  0  0
   17.6892    0.8677   11.1185 C   0  0  0  0  0  0  0  0  0  0  0  0
   17.7836    0.1717   12.3098 C   0  0  0  0  0  0  0  0  0  0  0  0
   17.0356   -0.3179   12.6313 H   0  0  0  0  0  0  0  0  0  0  0  0
   18.9729    0.1845   13.0438 C   0  0  0  0  0  0  0  0  0  0  0  0
   19.0304   -0.2937   13.8626 H   0  0  0  0  0  0  0  0  0  0  0  0
   20.0547    0.8833   12.5864 C   0  0  0  0  0  0  0  0  0  0  0  0
   20.8588    0.8964   13.0906 H   0  0  0  0  0  0  0  0  0  0  0  0
   19.9789    1.5693   11.3953 C   0  0  0  0  0  0  0  0  0  0  0  0
   20.7334    2.0524   11.0803 H   0  0  0  0  0  0  0  0  0  0  0  0
   18.8045    1.5577   10.6501 C   0  0  0  0  0  0  0  0  0  0  0  0
   18.7634    2.0208    9.8216 H   0  0  0  0  0  0  0  0  0  0  0  0
   15.8037    2.4278    9.5854 C   0  0  0  0  0  0  0  0  0  0  0  0
   16.2249    3.5258   10.3367 C   0  0  0  0  0  0  0  0  0  0  0  0
   16.7103    3.3872   11.1414 H   0  0  0  0  0  0  0  0  0  0  0  0
   15.9417    4.8153    9.9196 C   0  0  0  0  0  0  0  0  0  0  0  0
   16.2299    5.5554   10.4408 H   0  0  0  0  0  0  0  0  0  0  0  0
   15.2442    5.0286    8.7531 C   0  0  0  0  0  0  0  0  0  0  0  0
   15.0694    5.9158    8.4618 H   0  0  0  0  0  0  0  0  0  0  0  0
   14.7954    3.9542    8.0012 C   0  0  0  0  0  0  0  0  0  0  0  0
   14.3063    4.1091    7.2018 H   0  0  0  0  0  0  0  0  0  0  0  0
   15.0567    2.6510    8.4098 C   0  0  0  0  0  0  0  0  0  0  0  0
   12.9242    0.7619    8.1156 C   0  0  0  0  0  0  0  0  0  0  0  0
   12.4866    1.3489    9.3028 C   0  0  0  0  0  0  0  0  0  0  0  0
   12.9516    2.1019    9.6482 H   0  0  0  0  0  0  0  0  0  0  0  0
   11.3847    0.8553    9.9908 C   0  0  0  0  0  0  0  0  0  0  0  0
   11.0962    1.2776   10.7914 H   0  0  0  0  0  0  0  0  0  0  0  0
   10.7080   -0.2516    9.5091 C   0  0  0  0  0  0  0  0  0  0  0  0
    9.9796   -0.6172    9.9973 H   0  0  0  0  0  0  0  0  0  0  0  0
   11.1029   -0.8245    8.3046 C   0  0  0  0  0  0  0  0  0  0  0  0
   10.6238   -1.5704    7.9633 H   0  0  0  0  0  0  0  0  0  0  0  0
   12.1896   -0.3229    7.5900 C   0  0  0  0  0  0  0  0  0  0  0  0
   11.6982   -2.5414    5.7921 C   0  0  0  0  0  0  0  0  0  0  0  0
   12.3792   -3.6495    6.2861 C   0  0  0  0  0  0  0  0  0  0  0  0
   13.2185   -3.5380    6.7171 H   0  0  0  0  0  0  0  0  0  0  0  0
   11.8335   -4.9144    6.1488 C   0  0  0  0  0  0  0  0  0  0  0  0
   12.2893   -5.6641    6.5137 H   0  0  0  0  0  0  0  0  0  0  0  0
   10.6348   -5.0991    5.4892 C   0  0  0  0  0  0  0  0  0  0  0  0
   10.2824   -5.9738    5.3755 H   0  0  0  0  0  0  0  0  0  0  0  0
    9.9525   -4.0059    4.9959 C   0  0  0  0  0  0  0  0  0  0  0  0
    9.1224   -4.1275    4.5503 H   0  0  0  0  0  0  0  0  0  0  0  0
   10.4761   -2.7264    5.1490 C   0  0  0  0  0  0  0  0  0  0  0  0
    9.9990   -1.9764    4.8140 H   0  0  0  0  0  0  0  0  0  0  0  0
   11.4877    0.1795    4.8991 C   0  0  0  0  0  0  0  0  0  0  0  0
   10.4143    0.8758    5.4467 C   0  0  0  0  0  0  0  0  0  0  0  0
   10.2391    0.8136    6.3784 H   0  0  0  0  0  0  0  0  0  0  0  0
    9.5980    1.6591    4.6452 C   0  0  0  0  0  0  0  0  0  0  0  0
    8.8585    2.1190    5.0250 H   0  0  0  0  0  0  0  0  0  0  0  0
    9.8590    1.7692    3.3028 C   0  0  0  0  0  0  0  0  0  0  0  0
    9.3369    2.3488    2.7607 H   0  0  0  0  0  0  0  0  0  0  0  0
   10.8722    1.0418    2.7500 C   0  0  0  0  0  0  0  0  0  0  0  0
   11.0157    1.0719    1.8114 H   0  0  0  0  0  0  0  0  0  0  0  0
   11.6976    0.2594    3.5465 C   0  0  0  0  0  0  0  0  0  0  0  0
   12.4129   -0.2252    3.1512 H   0  0  0  0  0  0  0  0  0  0  0  0
   14.9569    2.2200    4.8372 B   0  0  0  0  0  0  0  0  0  0  0  0
   14.0596    1.9536    5.9849 O   0  0  0  0  0  0  0  0  0  0  0  0
   15.6560    1.0630    4.4882 F   0  0  0  0  0  0  0  0  0  0  0  0
   15.9008    3.1688    5.1783 F   0  0  0  0  0  0  0  0  0  0  0  0
   14.2014    2.6525    3.7976 F   0  0  0  0  0  0  0  0  0  0  0  0
   16.2084    0.7130   10.0642 P   0  0  0  0  0  0  0  0  0  0  0  0
   14.5042    1.2732    7.3474 P   0  0  0  0  0  0  0  0  0  0  0  0
   12.5270   -0.9205    5.9071 P   0  0  0  0  0  0  0  0  0  0  0  0
   16.3111   -0.3452    7.7065 Ag  0  0  0  0  0  0  0  0  0  0  0  0
   16.2159   -1.8843    1.6451 C   0  0  0  0  0  0  0  0  0  0  0  0
   16.6394   -0.5641    1.6248 C   0  0  0  0  0  0  0  0  0  0  0  0
   16.2771    0.0637    2.2389 H   0  0  0  0  0  0  0  0  0  0  0  0
   17.6017   -0.1631    0.6963 C   0  0  0  0  0  0  0  0  0  0  0  0
   17.8750    0.7461    0.6628 H   0  0  0  0  0  0  0  0  0  0  0  0
   18.1562   -1.0748   -0.1697 C   0  0  0  0  0  0  0  0  0  0  0  0
   18.8116   -0.7952   -0.7980 H   0  0  0  0  0  0  0  0  0  0  0  0
   17.7599   -2.4003   -0.1264 C   0  0  0  0  0  0  0  0  0  0  0  0
   18.1624   -3.0343   -0.7083 H   0  0  0  0  0  0  0  0  0  0  0  0
   16.7793   -2.8047    0.7616 C   0  0  0  0  0  0  0  0  0  0  0  0
   16.4896   -3.7094    0.7696 H   0  0  0  0  0  0  0  0  0  0  0  0
   13.4309   -2.5085    1.7695 C   0  0  0  0  0  0  0  0  0  0  0  0
   13.3365   -1.8125    0.5782 C   0  0  0  0  0  0  0  0  0  0  0  0
   14.0845   -1.3229    0.2567 H   0  0  0  0  0  0  0  0  0  0  0  0
   12.1473   -1.8254   -0.1558 C   0  0  0  0  0  0  0  0  0  0  0  0
   12.0897   -1.3471   -0.9746 H   0  0  0  0  0  0  0  0  0  0  0  0
   11.0654   -2.5241    0.3016 C   0  0  0  0  0  0  0  0  0  0  0  0
   10.2613   -2.5372   -0.2026 H   0  0  0  0  0  0  0  0  0  0  0  0
   11.1412   -3.2101    1.4927 C   0  0  0  0  0  0  0  0  0  0  0  0
   10.3868   -3.6932    1.8076 H   0  0  0  0  0  0  0  0  0  0  0  0
   12.3156   -3.1985    2.2379 C   0  0  0  0  0  0  0  0  0  0  0  0
   12.3568   -3.6617    3.0663 H   0  0  0  0  0  0  0  0  0  0  0  0
   15.3164   -4.0687    3.3025 C   0  0  0  0  0  0  0  0  0  0  0  0
   14.8952   -5.1666    2.5513 C   0  0  0  0  0  0  0  0  0  0  0  0
   14.4098   -5.0280    1.7465 H   0  0  0  0  0  0  0  0  0  0  0  0
   15.1785   -6.4561    2.9684 C   0  0  0  0  0  0  0  0  0  0  0  0
   14.8902   -7.1963    2.4471 H   0  0  0  0  0  0  0  0  0  0  0  0
   15.8759   -6.6694    4.1348 C   0  0  0  0  0  0  0  0  0  0  0  0
   16.0507   -7.5566    4.4262 H   0  0  0  0  0  0  0  0  0  0  0  0
   16.3247   -5.5950    4.8867 C   0  0  0  0  0  0  0  0  0  0  0  0
   16.8139   -5.7500    5.6862 H   0  0  0  0  0  0  0  0  0  0  0  0
   16.0634   -4.2918    4.4782 C   0  0  0  0  0  0  0  0  0  0  0  0
   18.1960   -2.4027    4.7724 C   0  0  0  0  0  0  0  0  0  0  0  0
   18.6335   -2.9898    3.5852 C   0  0  0  0  0  0  0  0  0  0  0  0
   18.1685   -3.7427    3.2398 H   0  0  0  0  0  0  0  0  0  0  0  0
   19.7354   -2.4962    2.8972 C   0  0  0  0  0  0  0  0  0  0  0  0
   20.0239   -2.9184    2.0966 H   0  0  0  0  0  0  0  0  0  0  0  0
   20.4122   -1.3893    3.3788 C   0  0  0  0  0  0  0  0  0  0  0  0
   21.1405   -1.0236    2.8907 H   0  0  0  0  0  0  0  0  0  0  0  0
   20.0173   -0.8164    4.5833 C   0  0  0  0  0  0  0  0  0  0  0  0
   20.4963   -0.0704    4.9247 H   0  0  0  0  0  0  0  0  0  0  0  0
   18.9306   -1.3179    5.2980 C   0  0  0  0  0  0  0  0  0  0  0  0
   19.4220    0.9005    7.0959 C   0  0  0  0  0  0  0  0  0  0  0  0
   18.7409    2.0086    6.6019 C   0  0  0  0  0  0  0  0  0  0  0  0
   17.9016    1.8972    6.1709 H   0  0  0  0  0  0  0  0  0  0  0  0
   19.2866    3.2735    6.7391 C   0  0  0  0  0  0  0  0  0  0  0  0
   18.8308    4.0233    6.3742 H   0  0  0  0  0  0  0  0  0  0  0  0
   20.4854    3.4583    7.3987 C   0  0  0  0  0  0  0  0  0  0  0  0
   20.8377    4.3330    7.5125 H   0  0  0  0  0  0  0  0  0  0  0  0
   21.1676    2.3650    7.8921 C   0  0  0  0  0  0  0  0  0  0  0  0
   21.9978    2.4867    8.3376 H   0  0  0  0  0  0  0  0  0  0  0  0
   20.6441    1.0856    7.7390 C   0  0  0  0  0  0  0  0  0  0  0  0
   21.1212    0.3356    8.0739 H   0  0  0  0  0  0  0  0  0  0  0  0
   19.6324   -1.8203    7.9889 C   0  0  0  0  0  0  0  0  0  0  0  0
   20.7059   -2.5166    7.4413 C   0  0  0  0  0  0  0  0  0  0  0  0
   20.8811   -2.4544    6.5095 H   0  0  0  0  0  0  0  0  0  0  0  0
   21.5221   -3.2999    8.2428 C   0  0  0  0  0  0  0  0  0  0  0  0
   22.2616   -3.7598    7.8629 H   0  0  0  0  0  0  0  0  0  0  0  0
   21.2611   -3.4100    9.5852 C   0  0  0  0  0  0  0  0  0  0  0  0
   21.7832   -3.9897   10.1272 H   0  0  0  0  0  0  0  0  0  0  0  0
   20.2479   -2.6827   10.1379 C   0  0  0  0  0  0  0  0  0  0  0  0
   20.1045   -2.7127   11.0766 H   0  0  0  0  0  0  0  0  0  0  0  0
   19.4225   -1.9002    9.3415 C   0  0  0  0  0  0  0  0  0  0  0  0
   18.7073   -1.4157    9.7368 H   0  0  0  0  0  0  0  0  0  0  0  0
   16.1633   -3.8608    8.0507 B   0  0  0  0  0  0  0  0  0  0  0  0
   17.0605   -3.5944    6.9031 O   0  0  0  0  0  0  0  0  0  0  0  0
   15.4641   -2.7039    8.3997 F   0  0  0  0  0  0  0  0  0  0  0  0
   15.2193   -4.8096    7.7097 F   0  0  0  0  0  0  0  0  0  0  0  0
   16.9187   -4.2934    9.0904 F   0  0  0  0  0  0  0  0  0  0  0  0
   14.9118   -2.3538    2.8238 P   0  0  0  0  0  0  0  0  0  0  0  0
   16.6159   -2.9140    5.5405 P   0  0  0  0  0  0  0  0  0  0  0  0
   18.5932   -0.7204    6.9809 P   0  0  0  0  0  0  0  0  0  0  0  0
   14.8090   -1.2957    5.1815 Ag  0  0  0  0  0  0  0  0  0  0  0  0
  1  2  4  0  0  0  0
  2  3  1  0  0  0  0
  4  2  4  0  0  0  0
  5  4  1  0  0  0  0
  6  4  4  0  0  0  0
  7  6  1  0  0  0  0
  8  6  4  0  0  0  0
  9  8  1  0  0  0  0
 10  1  4  0  0  0  0
 11 10  1  0  0  0  0
 12 13  4  0  0  0  0
 13 14  1  0  0  0  0
 15 13  4  0  0  0  0
 16 15  1  0  0  0  0
 17 15  4  0  0  0  0
 18 17  1  0  0  0  0
 19 17  4  0  0  0  0
 20 19  1  0  0  0  0
 21 12  4  0  0  0  0
 22 21  1  0  0  0  0
 23 24  4  0  0  0  0
 24 25  1  0  0  0  0
 26 24  4  0  0  0  0
 27 26  1  0  0  0  0
 28 26  4  0  0  0  0
 29 28  1  0  0  0  0
 30 28  4  0  0  0  0
 31 30  1  0  0  0  0
 32 23  4  0  0  0  0
 33 34  4  0  0  0  0
 34 35  1  0  0  0  0
 36 34  4  0  0  0  0
 37 36  1  0  0  0  0
 38 36  4  0  0  0  0
 39 38  1  0  0  0  0
 40 38  4  0  0  0  0
 41 40  1  0  0  0  0
 42 33  4  0  0  0  0
 43 44  4  0  0  0  0
 44 45  1  0  0  0  0
 46 44  4  0  0  0  0
 47 46  1  0  0  0  0
 48 46  4  0  0  0  0
 49 48  1  0  0  0  0
 50 48  4  0  0  0  0
 51 50  1  0  0  0  0
 52 43  4  0  0  0  0
 53 52  1  0  0  0  0
 54 55  4  0  0  0  0
 55 56  1  0  0  0  0
 57 55  4  0  0  0  0
 58 57  1  0  0  0  0
 59 57  4  0  0  0  0
 60 59  1  0  0  0  0
 61 59  4  0  0  0  0
 62 61  1  0  0  0  0
 63 54  4  0  0  0  0
 64 63  1  0  0  0  0
 65 66  1  0  0  0  0
 66 71  1  0  0  0  0
 67 65  1  0  0  0  0
 68 65  1  0  0  0  0
 69 65  1  0  0  0  0
 70  1  1  0  0  0  0
 71 32  1  0  0  0  0
 72 42  1  0  0  0  0
 73 70  1  0  0  0  0
 74 75  4  0  0  0  0
 75 76  1  0  0  0  0
 77 75  4  0  0  0  0
 78 77  1  0  0  0  0
 79 77  4  0  0  0  0
 80 79  1  0  0  0  0
 81 79  4  0  0  0  0
 82 81  1  0  0  0  0
 83 74  4  0  0  0  0
 84 83  1  0  0  0  0
 85 86  4  0  0  0  0
 86 87  1  0  0  0  0
 88 86  4  0  0  0  0
 89 88  1  0  0  0  0
 90 88  4  0  0  0  0
 91 90  1  0  0  0  0
 92 90  4  0  0  0  0
 93 92  1  0  0  0  0
 94 85  4  0  0  0  0
 95 94  1  0  0  0  0
 96 97  4  0  0  0  0
 97 98  1  0  0  0  0
 99 97  4  0  0  0  0
100 99  1  0  0  0  0
101 99  4  0  0  0  0
102101  1  0  0  0  0
103101  4  0  0  0  0
104103  1  0  0  0  0
105 96  4  0  0  0  0
106107  4  0  0  0  0
107108  1  0  0  0  0
109107  4  0  0  0  0
110109  1  0  0  0  0
111109  4  0  0  0  0
112111  1  0  0  0  0
113111  4  0  0  0  0
114113  1  0  0  0  0
115106  4  0  0  0  0
116117  4  0  0  0  0
117118  1  0  0  0  0
119117  4  0  0  0  0
120119  1  0  0  0  0
121119  4  0  0  0  0
122121  1  0  0  0  0
123121  4  0  0  0  0
124123  1  0  0  0  0
125116  4  0  0  0  0
126125  1  0  0  0  0
127128  4  0  0  0  0
128129  1  0  0  0  0
130128  4  0  0  0  0
131130  1  0  0  0  0
132130  4  0  0  0  0
133132  1  0  0  0  0
134132  4  0  0  0  0
135134  1  0  0  0  0
136127  4  0  0  0  0
137136  1  0  0  0  0
138139  1  0  0  0  0
139144  1  0  0  0  0
140 73  1  0  0  0  0
141138  1  0  0  0  0
142138  1  0  0  0  0
143 74  1  0  0  0  0
144105  1  0  0  0  0
145 73  1  0  0  0  0
146 67  1  0  0  0  0
  8 10  4  0  0  0  0
 12 70  1  0  0  0  0
 19 21  4  0  0  0  0
 23 70  1  0  0  0  0
 30 32  4  0  0  0  0
 33 71  1  0  0  0  0
 40 42  4  0  0  0  0
 43 72  1  0  0  0  0
 50 52  4  0  0  0  0
 54 72  1  0  0  0  0
 61 63  4  0  0  0  0
 71 73  1  0  0  0  0
 72146  1  0  0  0  0
 73146  1  0  0  0  0
 81 83  4  0  0  0  0
 85143  1  0  0  0  0
 92 94  4  0  0  0  0
 96143  1  0  0  0  0
103105  4  0  0  0  0
106144  1  0  0  0  0
113115  4  0  0  0  0
115145  1  0  0  0  0
116145  1  0  0  0  0
123125  4  0  0  0  0
127145  1  0  0  0  0
134136  4  0  0  0  0
138140  1  0  0  0  0
143146  1  0  0  0  0
144146  1  0  0  0  0
M  END
$$$$
HAHWUM

From CSD data. Using bond type 'Any'. No disordered atoms. Largest molecule.
146163  0  0  0  0  0  0  0  0999 V2000
    4.1129   14.3893   12.3226 C   0  0  0  0  0  0  0  0  0  0  0  0
    2.7889   14.3115   12.7683 C   0  0  0  0  0  0  0  0  0  0  0  0
    2.1242   13.8938   12.2335 H   0  0  0  0  0  0  0  0  0  0  0  0
    2.4609   14.8553   14.0084 C   0  0  0  0  0  0  0  0  0  0  0  0
    1.5616   14.8272   14.3129 H   0  0  0  0  0  0  0  0  0  0  0  0
    3.4481   15.4392   14.8049 C   0  0  0  0  0  0  0  0  0  0  0  0
    3.2175   15.7994   15.6542 H   0  0  0  0  0  0  0  0  0  0  0  0
    4.7428   15.4982   14.3714 C   0  0  0  0  0  0  0  0  0  0  0  0
    5.4115   15.8886   14.9206 H   0  0  0  0  0  0  0  0  0  0  0  0
    5.0794   14.9844   13.1232 C   0  0  0  0  0  0  0  0  0  0  0  0
    5.9765   15.0420   12.8174 H   0  0  0  0  0  0  0  0  0  0  0  0
    4.8792   15.1226    9.6710 C   0  0  0  0  0  0  0  0  0  0  0  0
    4.4794   16.3761   10.0098 C   0  0  0  0  0  0  0  0  0  0  0  0
    4.0519   16.5246   10.8443 H   0  0  0  0  0  0  0  0  0  0  0  0
    4.6893   17.4395    9.1407 C   0  0  0  0  0  0  0  0  0  0  0  0
    4.4317   18.3166    9.4004 H   0  0  0  0  0  0  0  0  0  0  0  0
    5.2611   17.2382    7.9288 C   0  0  0  0  0  0  0  0  0  0  0  0
    5.3875   17.9684    7.3353 H   0  0  0  0  0  0  0  0  0  0  0  0
    5.6627   15.9609    7.5557 C   0  0  0  0  0  0  0  0  0  0  0  0
    6.0766   15.8192    6.7128 H   0  0  0  0  0  0  0  0  0  0  0  0
    5.4562   14.8904    8.4248 C   0  0  0  0  0  0  0  0  0  0  0  0
    5.7057   14.0094    8.1675 H   0  0  0  0  0  0  0  0  0  0  0  0
    6.1133   12.8476   10.9494 C   0  0  0  0  0  0  0  0  0  0  0  0
    7.3238   13.5197   10.8002 C   0  0  0  0  0  0  0  0  0  0  0  0
    7.3233   14.4401   10.5634 H   0  0  0  0  0  0  0  0  0  0  0  0
    8.5255   12.8636   10.9898 C   0  0  0  0  0  0  0  0  0  0  0  0
    9.3438   13.3366   10.8876 H   0  0  0  0  0  0  0  0  0  0  0  0
    8.5441   11.5235   11.3265 C   0  0  0  0  0  0  0  0  0  0  0  0
    9.3717   11.0732   11.4453 H   0  0  0  0  0  0  0  0  0  0  0  0
    7.3425   10.8312   11.4919 C   0  0  0  0  0  0  0  0  0  0  0  0
    7.3566    9.9120   11.7292 H   0  0  0  0  0  0  0  0  0  0  0  0
    6.1215   11.4849   11.3124 C   0  0  0  0  0  0  0  0  0  0  0  0
    4.0454   10.8142   13.1756 C   0  0  0  0  0  0  0  0  0  0  0  0
    4.7731   11.6821   13.9862 C   0  0  0  0  0  0  0  0  0  0  0  0
    5.5968   12.0346   13.6707 H   0  0  0  0  0  0  0  0  0  0  0  0
    4.3163   12.0439   15.2425 C   0  0  0  0  0  0  0  0  0  0  0  0
    4.8282   12.6367   15.7812 H   0  0  0  0  0  0  0  0  0  0  0  0
    3.1120   11.5391   15.7184 C   0  0  0  0  0  0  0  0  0  0  0  0
    2.7756   11.8109   16.5649 H   0  0  0  0  0  0  0  0  0  0  0  0
    2.4071   10.6328   14.9380 C   0  0  0  0  0  0  0  0  0  0  0  0
    1.5912   10.2750   15.2687 H   0  0  0  0  0  0  0  0  0  0  0  0
    2.8654   10.2320   13.6838 C   0  0  0  0  0  0  0  0  0  0  0  0
    2.8647    7.4084   13.3148 C   0  0  0  0  0  0  0  0  0  0  0  0
    3.4267    7.3289   14.5791 C   0  0  0  0  0  0  0  0  0  0  0  0
    3.4006    8.0800   15.1620 H   0  0  0  0  0  0  0  0  0  0  0  0
    4.0279    6.1464   14.9904 C   0  0  0  0  0  0  0  0  0  0  0  0
    4.4252    6.0930   15.8524 H   0  0  0  0  0  0  0  0  0  0  0  0
    4.0488    5.0612   14.1617 C   0  0  0  0  0  0  0  0  0  0  0  0
    4.4489    4.2509   14.4546 H   0  0  0  0  0  0  0  0  0  0  0  0
    3.5000    5.1346   12.9175 C   0  0  0  0  0  0  0  0  0  0  0  0
    3.5226    4.3761   12.3462 H   0  0  0  0  0  0  0  0  0  0  0  0
    2.9059    6.3164   12.4779 C   0  0  0  0  0  0  0  0  0  0  0  0
    2.5321    6.3674   11.6057 H   0  0  0  0  0  0  0  0  0  0  0  0
    0.3818    8.8315   13.5950 C   0  0  0  0  0  0  0  0  0  0  0  0
    0.0818    7.9031   14.5871 C   0  0  0  0  0  0  0  0  0  0  0  0
    0.7285    7.2507   14.8310 H   0  0  0  0  0  0  0  0  0  0  0  0
   -1.1408    7.9191   15.2163 C   0  0  0  0  0  0  0  0  0  0  0  0
   -1.3378    7.2788   15.8897 H   0  0  0  0  0  0  0  0  0  0  0  0
   -2.0840    8.8723   14.8674 C   0  0  0  0  0  0  0  0  0  0  0  0
   -2.9208    8.8920   15.3151 H   0  0  0  0  0  0  0  0  0  0  0  0
   -1.8208    9.7864   13.8794 C   0  0  0  0  0  0  0  0  0  0  0  0
   -2.4718   10.4369   13.6423 H   0  0  0  0  0  0  0  0  0  0  0  0
   -0.5933    9.7518   13.2321 C   0  0  0  0  0  0  0  0  0  0  0  0
   -0.4180   10.3674   12.5295 H   0  0  0  0  0  0  0  0  0  0  0  0
    5.1750    8.1917   10.2235 B   0  0  0  0  0  0  0  0  0  0  0  0
    4.4966   13.6661   10.7062 P   0  0  0  0  0  0  0  0  0  0  0  0
    4.5697   10.5220   11.4505 P   0  0  0  0  0  0  0  0  0  0  0  0
    1.9930    8.9192   12.7665 P   0  0  0  0  0  0  0  0  0  0  0  0
    3.1560   11.6404    9.7845 Ag  0  0  0  0  0  0  0  0  0  0  0  0
    5.0186    9.0036   11.4636 O   0  0  0  0  0  0  0  0  0  0  0  0
    3.9333    8.0000    9.6165 F   0  0  0  0  0  0  0  0  0  0  0  0
    5.9936    8.8732    9.3403 F   0  0  0  0  0  0  0  0  0  0  0  0
    5.7375    7.0003   10.5683 F   0  0  0  0  0  0  0  0  0  0  0  0
    0.6337    6.3533    7.8421 C   0  0  0  0  0  0  0  0  0  0  0  0
    1.9577    6.4311    7.3964 C   0  0  0  0  0  0  0  0  0  0  0  0
    2.6224    6.8488    7.9312 H   0  0  0  0  0  0  0  0  0  0  0  0
    2.2857    5.8873    6.1563 C   0  0  0  0  0  0  0  0  0  0  0  0
    3.1850    5.9155    5.8518 H   0  0  0  0  0  0  0  0  0  0  0  0
    1.2985    5.3035    5.3598 C   0  0  0  0  0  0  0  0  0  0  0  0
    1.5291    4.9432    4.5105 H   0  0  0  0  0  0  0  0  0  0  0  0
    0.0038    5.2445    5.7933 C   0  0  0  0  0  0  0  0  0  0  0  0
   -0.6649    4.8540    5.2441 H   0  0  0  0  0  0  0  0  0  0  0  0
   -0.3328    5.7582    7.0415 C   0  0  0  0  0  0  0  0  0  0  0  0
   -1.2299    5.7007    7.3474 H   0  0  0  0  0  0  0  0  0  0  0  0
   -0.1326    5.6200   10.4937 C   0  0  0  0  0  0  0  0  0  0  0  0
    0.2672    4.3666   10.1549 C   0  0  0  0  0  0  0  0  0  0  0  0
    0.6947    4.2180    9.3204 H   0  0  0  0  0  0  0  0  0  0  0  0
    0.0573    3.3032   11.0240 C   0  0  0  0  0  0  0  0  0  0  0  0
    0.3149    2.4260   10.7643 H   0  0  0  0  0  0  0  0  0  0  0  0
   -0.5145    3.5044   12.2359 C   0  0  0  0  0  0  0  0  0  0  0  0
   -0.6409    2.7743   12.8294 H   0  0  0  0  0  0  0  0  0  0  0  0
   -0.9161    4.7817   12.6090 C   0  0  0  0  0  0  0  0  0  0  0  0
   -1.3300    4.9234   13.4519 H   0  0  0  0  0  0  0  0  0  0  0  0
   -0.7096    5.8523   11.7399 C   0  0  0  0  0  0  0  0  0  0  0  0
   -0.9592    6.7333   11.9973 H   0  0  0  0  0  0  0  0  0  0  0  0
   -1.3667    7.8950    9.2153 C   0  0  0  0  0  0  0  0  0  0  0  0
   -2.5772    7.2230    9.3645 C   0  0  0  0  0  0  0  0  0  0  0  0
   -2.5767    6.3026    9.6013 H   0  0  0  0  0  0  0  0  0  0  0  0
   -3.7789    7.8790    9.1749 C   0  0  0  0  0  0  0  0  0  0  0  0
   -4.5972    7.4061    9.2771 H   0  0  0  0  0  0  0  0  0  0  0  0
   -3.7975    9.2192    8.8382 C   0  0  0  0  0  0  0  0  0  0  0  0
   -4.6251    9.6695    8.7194 H   0  0  0  0  0  0  0  0  0  0  0  0
   -2.5959    9.9115    8.6728 C   0  0  0  0  0  0  0  0  0  0  0  0
   -2.6100   10.8306    8.4355 H   0  0  0  0  0  0  0  0  0  0  0  0
   -1.3749    9.2578    8.8523 C   0  0  0  0  0  0  0  0  0  0  0  0
    0.7012    9.9284    6.9891 C   0  0  0  0  0  0  0  0  0  0  0  0
   -0.0266    9.0605    6.1785 C   0  0  0  0  0  0  0  0  0  0  0  0
   -0.8502    8.7081    6.4940 H   0  0  0  0  0  0  0  0  0  0  0  0
    0.4303    8.6987    4.9222 C   0  0  0  0  0  0  0  0  0  0  0  0
   -0.0816    8.1060    4.3835 H   0  0  0  0  0  0  0  0  0  0  0  0
    1.6346    9.2035    4.4463 C   0  0  0  0  0  0  0  0  0  0  0  0
    1.9710    8.9317    3.5998 H   0  0  0  0  0  0  0  0  0  0  0  0
    2.3394   10.1098    5.2267 C   0  0  0  0  0  0  0  0  0  0  0  0
    3.1554   10.4676    4.8960 H   0  0  0  0  0  0  0  0  0  0  0  0
    1.8812   10.5106    6.4809 C   0  0  0  0  0  0  0  0  0  0  0  0
    1.8819   13.3342    6.8499 C   0  0  0  0  0  0  0  0  0  0  0  0
    1.3198   13.4138    5.5856 C   0  0  0  0  0  0  0  0  0  0  0  0
    1.3460   12.6627    5.0027 H   0  0  0  0  0  0  0  0  0  0  0  0
    0.7187   14.5963    5.1743 C   0  0  0  0  0  0  0  0  0  0  0  0
    0.3214   14.6497    4.3123 H   0  0  0  0  0  0  0  0  0  0  0  0
    0.6978   15.6814    6.0030 C   0  0  0  0  0  0  0  0  0  0  0  0
    0.2977   16.4918    5.7101 H   0  0  0  0  0  0  0  0  0  0  0  0
    1.2466   15.6081    7.2472 C   0  0  0  0  0  0  0  0  0  0  0  0
    1.2240   16.3665    7.8185 H   0  0  0  0  0  0  0  0  0  0  0  0
    1.8407   14.4262    7.6868 C   0  0  0  0  0  0  0  0  0  0  0  0
    2.2145   14.3753    8.5590 H   0  0  0  0  0  0  0  0  0  0  0  0
    4.3648   11.9111    6.5697 C   0  0  0  0  0  0  0  0  0  0  0  0
    4.6647   12.8395    5.5776 C   0  0  0  0  0  0  0  0  0  0  0  0
    4.0180   13.4919    5.3337 H   0  0  0  0  0  0  0  0  0  0  0  0
    5.8874   12.8236    4.9484 C   0  0  0  0  0  0  0  0  0  0  0  0
    6.0844   13.4639    4.2750 H   0  0  0  0  0  0  0  0  0  0  0  0
    6.8306   11.8703    5.2973 C   0  0  0  0  0  0  0  0  0  0  0  0
    7.6674   11.8506    4.8496 H   0  0  0  0  0  0  0  0  0  0  0  0
    6.5674   10.9562    6.2853 C   0  0  0  0  0  0  0  0  0  0  0  0
    7.2184   10.3057    6.5224 H   0  0  0  0  0  0  0  0  0  0  0  0
    5.3399   10.9909    6.9326 C   0  0  0  0  0  0  0  0  0  0  0  0
    5.1646   10.3752    7.6352 H   0  0  0  0  0  0  0  0  0  0  0  0
   -0.4284   12.5509    9.9412 B   0  0  0  0  0  0  0  0  0  0  0  0
    0.2499    7.0765    9.4585 P   0  0  0  0  0  0  0  0  0  0  0  0
    0.1769   10.2207    8.7142 P   0  0  0  0  0  0  0  0  0  0  0  0
    2.7536   11.8234    7.3982 P   0  0  0  0  0  0  0  0  0  0  0  0
    1.5906    9.1022   10.3802 Ag  0  0  0  0  0  0  0  0  0  0  0  0
   -0.2720   11.7391    8.7011 O   0  0  0  0  0  0  0  0  0  0  0  0
    0.8133   12.7427   10.5482 F   0  0  0  0  0  0  0  0  0  0  0  0
   -1.2470   11.8694   10.8244 F   0  0  0  0  0  0  0  0  0  0  0  0
   -0.9909   13.7423    9.5964 F   0  0  0  0  0  0  0  0  0  0  0  0
  1  2  4  0  0  0  0
  2  3  1  0  0  0  0
  4  2  4  0  0  0  0
  5  4  1  0  0  0  0
  6  4  4  0  0  0  0
  7  6  1  0  0  0  0
  8  6  4  0  0  0  0
  9  8  1  0  0  0  0
 10  1  4  0  0  0  0
 11 10  1  0  0  0  0
 12 13  4  0  0  0  0
 13 14  1  0  0  0  0
 15 13  4  0  0  0  0
 16 15  1  0  0  0  0
 17 15  4  0  0  0  0
 18 17  1  0  0  0  0
 19 17  4  0  0  0  0
 20 19  1  0  0  0  0
 21 12  4  0  0  0  0
 22 21  1  0  0  0  0
 23 24  4  0  0  0  0
 24 25  1  0  0  0  0
 26 24  4  0  0  0  0
 27 26  1  0  0  0  0
 28 26  4  0  0  0  0
 29 28  1  0  0  0  0
 30 28  4  0  0  0  0
 31 30  1  0  0  0  0
 32 23  4  0  0  0  0
 33 34  4  0  0  0  0
 34 35  1  0  0  0  0
 36 34  4  0  0  0  0
 37 36  1  0  0  0  0
 38 36  4  0  0  0  0
 39 38  1  0  0  0  0
 40 38  4  0  0  0  0
 41 40  1  0  0  0  0
 42 33  4  0  0  0  0
 43 44  4  0  0  0  0
 44 45  1  0  0  0  0
 46 44  4  0  0  0  0
 47 46  1  0  0  0  0
 48 46  4  0  0  0  0
 49 48  1  0  0  0  0
 50 48  4  0  0  0  0
 51 50  1  0  0  0  0
 52 43  4  0  0  0  0
 53 52  1  0  0  0  0
 54 55  4  0  0  0  0
 55 56  1  0  0  0  0
 57 55  4  0  0  0  0
 58 57  1  0  0  0  0
 59 57  4  0  0  0  0
 60 59  1  0  0  0  0
 61 59  4  0  0  0  0
 62 61  1  0  0  0  0
 63 54  4  0  0  0  0
 64 63  1  0  0  0  0
 65 70  1  0  0  0  0
 66  1  1  0  0  0  0
 67 32  1  0  0  0  0
 68 42  1  0  0  0  0
 69 66  1  0  0  0  0
 70 67  1  0  0  0  0
 71 65  1  0  0  0  0
 72 65  1  0  0  0  0
 73 65  1  0  0  0  0
 74 75  4  0  0  0  0
 75 76  1  0  0  0  0
 77 75  4  0  0  0  0
 78 77  1  0  0  0  0
 79 77  4  0  0  0  0
 80 79  1  0  0  0  0
 81 79  4  0  0  0  0
 82 81  1  0  0  0  0
 83 74  4  0  0  0  0
 84 83  1  0  0  0  0
 85 86  4  0  0  0  0
 86 87  1  0  0  0  0
 88 86  4  0  0  0  0
 89 88  1  0  0  0  0
 90 88  4  0  0  0  0
 91 90  1  0  0  0  0
 92 90  4  0  0  0  0
 93 92  1  0  0  0  0
 94 85  4  0  0  0  0
 95 94  1  0  0  0  0
 96 97  4  0  0  0  0
 97 98  1  0  0  0  0
 99 97  4  0  0  0  0
100 99  1  0  0  0  0
101 99  4  0  0  0  0
102101  1  0  0  0  0
103101  4  0  0  0  0
104103  1  0  0  0  0
105 96  4  0  0  0  0
106107  4  0  0  0  0
107108  1  0  0  0  0
109107  4  0  0  0  0
110109  1  0  0  0  0
111109  4  0  0  0  0
112111  1  0  0  0  0
113111  4  0  0  0  0
114113  1  0  0  0  0
115106  4  0  0  0  0
116117  4  0  0  0  0
117118  1  0  0  0  0
119117  4  0  0  0  0
120119  1  0  0  0  0
121119  4  0  0  0  0
122121  1  0  0  0  0
123121  4  0  0  0  0
124123  1  0  0  0  0
125116  4  0  0  0  0
126125  1  0  0  0  0
127128  4  0  0  0  0
128129  1  0  0  0  0
130128  4  0  0  0  0
131130  1  0  0  0  0
132130  4  0  0  0  0
133132  1  0  0  0  0
134132  4  0  0  0  0
135134  1  0  0  0  0
136127  4  0  0  0  0
137136  1  0  0  0  0
138143  1  0  0  0  0
139 74  1  0  0  0  0
140105  1  0  0  0  0
141 69  1  0  0  0  0
142 68  1  0  0  0  0
143140  1  0  0  0  0
144 69  1  0  0  0  0
145138  1  0  0  0  0
146138  1  0  0  0  0
  8 10  4  0  0  0  0
 12 66  1  0  0  0  0
 19 21  4  0  0  0  0
 23 66  1  0  0  0  0
 30 32  4  0  0  0  0
 33 67  1  0  0  0  0
 40 42  4  0  0  0  0
 43 68  1  0  0  0  0
 50 52  4  0  0  0  0
 54 68  1  0  0  0  0
 61 63  4  0  0  0  0
 67 69  1  0  0  0  0
 69142  1  0  0  0  0
 71142  1  0  0  0  0
 81 83  4  0  0  0  0
 85139  1  0  0  0  0
 92 94  4  0  0  0  0
 96139  1  0  0  0  0
103105  4  0  0  0  0
106140  1  0  0  0  0
113115  4  0  0  0  0
115141  1  0  0  0  0
116141  1  0  0  0  0
123125  4  0  0  0  0
127141  1  0  0  0  0
134136  4  0  0  0  0
138144  1  0  0  0  0
139142  1  0  0  0  0
140142  1  0  0  0  0
M  END
$$$$
HARROH

From CSD data. Using bond type 'Any'. No disordered atoms. Largest molecule.
109141  0  0  0  0  0  0  0  0999 V2000
   -2.5328    4.2857   24.7808 Mo  0  0  0  0  0  0  0  0  0  0  0  0
   -3.5639    1.9883   23.7871 Pt  0  0  0  0  0  0  0  0  0  0  0  0
   -4.1680    4.2344   22.3245 Pt  0  0  0  0  0  0  0  0  0  0  0  0
   -3.5795   -0.2868   23.7448 P   0  0  0  0  0  0  0  0  0  0  0  0
   -5.4298    4.7180   20.5041 P   0  0  0  0  0  0  0  0  0  0  0  0
   -3.1249    6.2574   26.2064 C   0  0  0  0  0  0  0  0  0  0  0  0
   -1.4536    5.9636   26.2064 B   0  0  0  0  0  0  0  0  0  0  0  0
   -0.6900    5.6089   24.8815 C   0  0  0  0  0  0  0  0  0  0  0  0
   -1.2704    5.9165   23.4904 B   0  0  0  0  0  0  0  0  0  0  0  0
   -3.0492    6.0426   23.3473 B   0  0  0  0  0  0  0  0  0  0  0  0
   -4.0476    6.1050   24.7994 B   0  0  0  0  0  0  0  0  0  0  0  0
   -2.1459    7.6471   26.1799 B   0  0  0  0  0  0  0  0  0  0  0  0
   -0.9688    7.3451   24.7702 B   0  0  0  0  0  0  0  0  0  0  0  0
   -2.0599    7.4795   23.2545 B   0  0  0  0  0  0  0  0  0  0  0  0
   -3.7026    7.5723   23.8136 B   0  0  0  0  0  0  0  0  0  0  0  0
   -3.7479    7.7136   25.5599 B   0  0  0  0  0  0  0  0  0  0  0  0
   -2.3916    8.4355   24.7066 B   0  0  0  0  0  0  0  0  0  0  0  0
   -3.7378    5.9304   27.5710 C   0  0  0  0  0  0  0  0  0  0  0  0
    0.7497    5.0921   25.0061 C   0  0  0  0  0  0  0  0  0  0  0  0
   -4.1997    3.3435   25.5254 C   0  0  0  0  0  0  0  0  0  0  0  0
   -5.1575    3.0746   26.0845 O   0  0  0  0  0  0  0  0  0  0  0  0
   -1.5767    3.1952   26.1905 C   0  0  0  0  0  0  0  0  0  0  0  0
   -1.0151    2.5661   26.9589 O   0  0  0  0  0  0  0  0  0  0  0  0
   -1.5370    3.0940   23.4745 C   0  0  0  0  0  0  0  0  0  0  0  0
   -0.7754    2.6202   22.7537 O   0  0  0  0  0  0  0  0  0  0  0  0
   -4.9394    2.3943   22.3563 C   0  0  0  0  0  0  0  0  0  0  0  0
   -5.8132    1.7819   21.9296 O   0  0  0  0  0  0  0  0  0  0  0  0
   -2.7397   -1.0059   25.1730 C   0  0  0  0  0  0  0  0  0  0  0  0
   -3.3761   -1.7583   26.1004 C   0  0  0  0  0  0  0  0  0  0  0  0
   -2.7391   -2.2862   27.2160 C   0  0  0  0  0  0  0  0  0  0  0  0
   -1.3965   -1.9994   27.3856 C   0  0  0  0  0  0  0  0  0  0  0  0
   -0.7122   -1.2415   26.4661 C   0  0  0  0  0  0  0  0  0  0  0  0
   -1.3964   -0.7455   25.3638 C   0  0  0  0  0  0  0  0  0  0  0  0
   -5.1975   -1.1126   23.7395 C   0  0  0  0  0  0  0  0  0  0  0  0
   -5.3571   -2.4179   23.3102 C   0  0  0  0  0  0  0  0  0  0  0  0
   -6.5894   -3.0123   23.3314 C   0  0  0  0  0  0  0  0  0  0  0  0
   -7.6861   -2.3140   23.7659 C   0  0  0  0  0  0  0  0  0  0  0  0
   -7.5519   -1.0420   24.2403 C   0  0  0  0  0  0  0  0  0  0  0  0
   -6.3093   -0.4101   24.2138 C   0  0  0  0  0  0  0  0  0  0  0  0
   -2.7083   -0.9574   22.2953 C   0  0  0  0  0  0  0  0  0  0  0  0
   -2.6428   -0.2259   21.1347 C   0  0  0  0  0  0  0  0  0  0  0  0
   -2.0646   -0.7579   20.0165 C   0  0  0  0  0  0  0  0  0  0  0  0
   -1.5434   -2.0327   20.0138 C   0  0  0  0  0  0  0  0  0  0  0  0
   -1.5746   -2.7851   21.1665 C   0  0  0  0  0  0  0  0  0  0  0  0
   -2.1568   -2.2391   22.3033 C   0  0  0  0  0  0  0  0  0  0  0  0
   -5.0118    6.2657   19.7065 C   0  0  0  0  0  0  0  0  0  0  0  0
   -3.7094    6.6855   19.6323 C   0  0  0  0  0  0  0  0  0  0  0  0
   -3.2781    7.7926   18.9248 C   0  0  0  0  0  0  0  0  0  0  0  0
   -4.2319    8.5741   18.2994 C   0  0  0  0  0  0  0  0  0  0  0  0
   -5.5622    8.2208   18.3763 C   0  0  0  0  0  0  0  0  0  0  0  0
   -5.9441    7.1026   19.1394 C   0  0  0  0  0  0  0  0  0  0  0  0
   -5.2828    3.4931   19.1765 C   0  0  0  0  0  0  0  0  0  0  0  0
   -4.1663    3.5208   18.3524 C   0  0  0  0  0  0  0  0  0  0  0  0
   -3.9454    2.5509   17.4038 C   0  0  0  0  0  0  0  0  0  0  0  0
   -4.8294    1.5394   17.2554 C   0  0  0  0  0  0  0  0  0  0  0  0
   -5.9956    1.5048   17.9947 C   0  0  0  0  0  0  0  0  0  0  0  0
   -6.1760    2.4747   18.9619 C   0  0  0  0  0  0  0  0  0  0  0  0
   -7.1827    4.8205   20.9201 C   0  0  0  0  0  0  0  0  0  0  0  0
   -7.5992    4.8413   22.2450 C   0  0  0  0  0  0  0  0  0  0  0  0
   -8.9115    4.9203   22.6080 C   0  0  0  0  0  0  0  0  0  0  0  0
   -9.8905    4.9992   21.6329 C   0  0  0  0  0  0  0  0  0  0  0  0
   -9.5079    4.9715   20.3080 C   0  0  0  0  0  0  0  0  0  0  0  0
   -8.1703    4.8842   19.9423 C   0  0  0  0  0  0  0  0  0  0  0  0
   -0.9678    5.5369   27.0967 H   0  0  0  0  0  0  0  0  0  0  0  0
   -0.6622    5.4122   22.7246 H   0  0  0  0  0  0  0  0  0  0  0  0
   -3.2226    5.7211   22.1204 H   0  0  0  0  0  0  0  0  0  0  0  0
   -5.0861    5.7489   24.8842 H   0  0  0  0  0  0  0  0  0  0  0  0
   -2.0402    8.2083   27.1206 H   0  0  0  0  0  0  0  0  0  0  0  0
    0.0391    7.7898   24.7914 H   0  0  0  0  0  0  0  0  0  0  0  0
   -1.8147    8.0268   22.3324 H   0  0  0  0  0  0  0  0  0  0  0  0
   -4.5574    8.0711   23.3287 H   0  0  0  0  0  0  0  0  0  0  0  0
   -4.5362    8.2457   26.1137 H   0  0  0  0  0  0  0  0  0  0  0  0
   -2.4893    9.5315   24.6695 H   0  0  0  0  0  0  0  0  0  0  0  0
   -4.6831    6.1036   27.5498 H   0  0  0  0  0  0  0  0  0  0  0  0
   -3.3286    6.4763   28.2467 H   0  0  0  0  0  0  0  0  0  0  0  0
   -3.5880    5.0034   27.7724 H   0  0  0  0  0  0  0  0  0  0  0  0
    1.1114    4.9120   24.1369 H   0  0  0  0  0  0  0  0  0  0  0  0
    0.7477    4.2857   25.5254 H   0  0  0  0  0  0  0  0  0  0  0  0
    1.2880    5.7544   25.4459 H   0  0  0  0  0  0  0  0  0  0  0  0
   -4.3109   -1.9398   25.9759 H   0  0  0  0  0  0  0  0  0  0  0  0
   -3.2144   -2.8308   27.8493 H   0  0  0  0  0  0  0  0  0  0  0  0
   -0.9328   -2.3403   28.1540 H   0  0  0  0  0  0  0  0  0  0  0  0
    0.2200   -1.0461   26.5906 H   0  0  0  0  0  0  0  0  0  0  0  0
   -0.9234   -0.2162   24.7172 H   0  0  0  0  0  0  0  0  0  0  0  0
   -4.5946   -2.9098   22.9922 H   0  0  0  0  0  0  0  0  0  0  0  0
   -6.6865   -3.9226   23.0426 H   0  0  0  0  0  0  0  0  0  0  0  0
   -8.5560   -2.7185   23.7342 H   0  0  0  0  0  0  0  0  0  0  0  0
   -8.3150   -0.5806   24.5980 H   0  0  0  0  0  0  0  0  0  0  0  0
   -6.2170    0.4960   24.5185 H   0  0  0  0  0  0  0  0  0  0  0  0
   -2.9972    0.6665   21.1082 H   0  0  0  0  0  0  0  0  0  0  0  0
   -2.0245   -0.2383   19.2110 H   0  0  0  0  0  0  0  0  0  0  0  0
   -1.1608   -2.3929   19.2110 H   0  0  0  0  0  0  0  0  0  0  0  0
   -1.2004   -3.6691   21.1798 H   0  0  0  0  0  0  0  0  0  0  0  0
   -2.1798   -2.7560   23.1141 H   0  0  0  0  0  0  0  0  0  0  0  0
   -3.0399    6.1798   20.0986 H   0  0  0  0  0  0  0  0  0  0  0  0
   -2.3469    8.0212   18.8718 H   0  0  0  0  0  0  0  0  0  0  0  0
   -3.9560    9.3570   17.8172 H   0  0  0  0  0  0  0  0  0  0  0  0
   -6.2179    8.7307   17.8940 H   0  0  0  0  0  0  0  0  0  0  0  0
   -6.8777    6.9280   19.2825 H   0  0  0  0  0  0  0  0  0  0  0  0
   -3.5337    4.2344   18.4505 H   0  0  0  0  0  0  0  0  0  0  0  0
   -3.1671    2.5938   16.8421 H   0  0  0  0  0  0  0  0  0  0  0  0
   -4.6421    0.8327   16.6327 H   0  0  0  0  0  0  0  0  0  0  0  0
   -6.6600    0.8300   17.8384 H   0  0  0  0  0  0  0  0  0  0  0  0
   -6.9619    2.4345   19.5104 H   0  0  0  0  0  0  0  0  0  0  0  0
   -6.9319    4.8039   22.9339 H   0  0  0  0  0  0  0  0  0  0  0  0
   -9.1526    4.9230   23.5354 H   0  0  0  0  0  0  0  0  0  0  0  0
  -10.8178    5.0671   21.8740 H   0  0  0  0  0  0  0  0  0  0  0  0
  -10.1803    5.0173   19.6243 H   0  0  0  0  0  0  0  0  0  0  0  0
   -7.9279    4.8690   19.0149 H   0  0  0  0  0  0  0  0  0  0  0  0
  1  2  1  0  0  0  0
  2  3  1  0  0  0  0
  3  1  1  0  0  0  0
  4  2  1  0  0  0  0
  5  3  1  0  0  0  0
  6  1  1  0  0  0  0
  7  1  1  0  0  0  0
  8  1  1  0  0  0  0
  9  1  1  0  0  0  0
 10  1  1  0  0  0  0
 11  1  1  0  0  0  0
 12  6  1  0  0  0  0
 13  7  1  0  0  0  0
 14  9  1  0  0  0  0
 15 10  1  0  0  0  0
 16  6  1  0  0  0  0
 17 12  1  0  0  0  0
 18  6  1  0  0  0  0
 19  8  1  0  0  0  0
 20  1  1  0  0  0  0
 21 20  2  0  0  0  0
 22  1  1  0  0  0  0
 23 22  3  0  0  0  0
 24  1  1  0  0  0  0
 25 24  2  0  0  0  0
 26  2  1  0  0  0  0
 27 26  2  0  0  0  0
 28  4  1  0  0  0  0
 29 28  4  0  0  0  0
 30 29  4  0  0  0  0
 31 30  4  0  0  0  0
 32 31  4  0  0  0  0
 33 28  4  0  0  0  0
 34  4  1  0  0  0  0
 35 34  4  0  0  0  0
 36 35  4  0  0  0  0
 37 36  4  0  0  0  0
 38 37  4  0  0  0  0
 39 34  4  0  0  0  0
 40  4  1  0  0  0  0
 41 40  4  0  0  0  0
 42 41  4  0  0  0  0
 43 42  4  0  0  0  0
 44 43  4  0  0  0  0
 45 40  4  0  0  0  0
 46  5  1  0  0  0  0
 47 46  4  0  0  0  0
 48 47  4  0  0  0  0
 49 48  4  0  0  0  0
 50 49  4  0  0  0  0
 51 46  4  0  0  0  0
 52  5  1  0  0  0  0
 53 52  4  0  0  0  0
 54 53  4  0  0  0  0
 55 54  4  0  0  0  0
 56 55  4  0  0  0  0
 57 52  4  0  0  0  0
 58  5  1  0  0  0  0
 59 58  4  0  0  0  0
 60 59  4  0  0  0  0
 61 60  4  0  0  0  0
 62 61  4  0  0  0  0
 63 58  4  0  0  0  0
 64  7  1  0  0  0  0
 65  9  1  0  0  0  0
 66  3  1  0  0  0  0
 67 11  1  0  0  0  0
 68 12  1  0  0  0  0
 69 13  1  0  0  0  0
 70 14  1  0  0  0  0
 71 15  1  0  0  0  0
 72 16  1  0  0  0  0
 73 17  1  0  0  0  0
 74 18  1  0  0  0  0
 75 18  1  0  0  0  0
 76 18  1  0  0  0  0
 77 19  1  0  0  0  0
 78 19  1  0  0  0  0
 79 19  1  0  0  0  0
 80 29  1  0  0  0  0
 81 30  1  0  0  0  0
 82 31  1  0  0  0  0
 83 32  1  0  0  0  0
 84 33  1  0  0  0  0
 85 35  1  0  0  0  0
 86 36  1  0  0  0  0
 87 37  1  0  0  0  0
 88 38  1  0  0  0  0
 89 39  1  0  0  0  0
 90 41  1  0  0  0  0
 91 42  1  0  0  0  0
 92 43  1  0  0  0  0
 93 44  1  0  0  0  0
 94 45  1  0  0  0  0
 95 47  1  0  0  0  0
 96 48  1  0  0  0  0
 97 49  1  0  0  0  0
 98 50  1  0  0  0  0
 99 51  1  0  0  0  0
100 53  1  0  0  0  0
101 54  1  0  0  0  0
102 55  1  0  0  0  0
103 56  1  0  0  0  0
104 57  1  0  0  0  0
105 59  1  0  0  0  0
106 60  1  0  0  0  0
107 61  1  0  0  0  0
108 62  1  0  0  0  0
109 63  1  0  0  0  0
  2 20  1  0  0  0  0
  2 24  1  0  0  0  0
  3 10  1  0  0  0  0
  3 26  1  0  0  0  0
  6  7  1  0  0  0  0
  6 11  1  0  0  0  0
  7  8  1  0  0  0  0
  7 12  1  0  0  0  0
  8  9  1  0  0  0  0
  8 13  1  0  0  0  0
  9 10  1  0  0  0  0
  9 13  1  0  0  0  0
 10 11  1  0  0  0  0
 10 14  1  0  0  0  0
 10 66  1  0  0  0  0
 11 15  1  0  0  0  0
 11 16  1  0  0  0  0
 12 13  1  0  0  0  0
 12 16  1  0  0  0  0
 13 14  1  0  0  0  0
 13 17  1  0  0  0  0
 14 15  1  0  0  0  0
 14 17  1  0  0  0  0
 15 16  1  0  0  0  0
 15 17  1  0  0  0  0
 16 17  1  0  0  0  0
 32 33  4  0  0  0  0
 38 39  4  0  0  0  0
 44 45  4  0  0  0  0
 50 51  4  0  0  0  0
 56 57  4  0  0  0  0
 62 63  4  0  0  0  0
M  END
$$$$
HASSIG

From CSD data. Using bond type 'Any'. No disordered atoms. Largest molecule.
 83 88  0  0  0  0  0  0  0  0999 V2000
    4.8255    0.9917    8.8022 Mo  0  0  0  0  0  0  0  0  0  0  0  0
    4.1286    2.7684    6.9539 P   0  0  0  0  0  0  0  0  0  0  0  0
    6.2085    2.3567   10.5392 P   0  0  0  0  0  0  0  0  0  0  0  0
    5.0675   -1.5129   10.6484 O   0  0  0  0  0  0  0  0  0  0  0  0
    3.4234   -1.2513    7.1275 O   0  0  0  0  0  0  0  0  0  0  0  0
    7.5503   -0.0075    7.5759 O   0  0  0  0  0  0  0  0  0  0  0  0
    2.1042    1.7656   10.2753 O   0  0  0  0  0  0  0  0  0  0  0  0
    6.4280    3.2930    5.1659 N   0  0  0  0  0  0  0  0  0  0  0  0
    4.2360    2.9022   12.6768 N   0  0  0  0  0  0  0  0  0  0  0  0
    5.3144    3.8521    5.8540 B   0  0  0  0  0  0  0  0  0  0  0  0
    5.1956    3.4712   11.7833 B   0  0  0  0  0  0  0  0  0  0  0  0
    7.2299    4.0529    4.3563 C   0  0  0  0  0  0  0  0  0  0  0  0
    7.9556    3.6401    3.9044 H   0  0  0  0  0  0  0  0  0  0  0  0
    7.0151    5.3739    4.1885 C   0  0  0  0  0  0  0  0  0  0  0  0
    7.5990    5.8786    3.6339 H   0  0  0  0  0  0  0  0  0  0  0  0
    5.9356    6.0081    4.8235 C   0  0  0  0  0  0  0  0  0  0  0  0
    5.7898    6.9350    4.6832 H   0  0  0  0  0  0  0  0  0  0  0  0
    5.0888    5.3044    5.6434 C   0  0  0  0  0  0  0  0  0  0  0  0
    4.3646    5.7435    6.0731 H   0  0  0  0  0  0  0  0  0  0  0  0
    6.8693    1.9251    5.2395 C   0  0  0  0  0  0  0  0  0  0  0  0
    7.1361    1.6193    4.3477 H   0  0  0  0  0  0  0  0  0  0  0  0
    6.1386    1.3622    5.5716 H   0  0  0  0  0  0  0  0  0  0  0  0
    7.6338    1.8595    5.8489 H   0  0  0  0  0  0  0  0  0  0  0  0
    2.9885    4.0567    7.6085 C   0  0  0  0  0  0  0  0  0  0  0  0
    1.8978    4.5351    6.9135 C   0  0  0  0  0  0  0  0  0  0  0  0
    1.7138    4.2011    6.0440 H   0  0  0  0  0  0  0  0  0  0  0  0
    1.0648    5.4996    7.4647 C   0  0  0  0  0  0  0  0  0  0  0  0
    0.3170    5.8148    6.9700 H   0  0  0  0  0  0  0  0  0  0  0  0
    1.3129    6.0006    8.7176 C   0  0  0  0  0  0  0  0  0  0  0  0
    0.7351    6.6554    9.0942 H   0  0  0  0  0  0  0  0  0  0  0  0
    2.4117    5.5465    9.4280 C   0  0  0  0  0  0  0  0  0  0  0  0
    2.5911    5.8936   10.2941 H   0  0  0  0  0  0  0  0  0  0  0  0
    3.2507    4.5877    8.8785 C   0  0  0  0  0  0  0  0  0  0  0  0
    4.0079    4.2893    9.3681 H   0  0  0  0  0  0  0  0  0  0  0  0
    3.0832    1.9251    5.6537 C   0  0  0  0  0  0  0  0  0  0  0  0
    3.4765    1.8989    4.2724 C   0  0  0  0  0  0  0  0  0  0  0  0
    4.2535    2.3642    3.9882 H   0  0  0  0  0  0  0  0  0  0  0  0
    2.7240    1.1952    3.3686 C   0  0  0  0  0  0  0  0  0  0  0  0
    2.9741    1.1896    2.4511 H   0  0  0  0  0  0  0  0  0  0  0  0
    1.5956    0.4860    3.7777 C   0  0  0  0  0  0  0  0  0  0  0  0
    1.0955   -0.0206    3.1495 H   0  0  0  0  0  0  0  0  0  0  0  0
    1.2090    0.5235    5.0957 C   0  0  0  0  0  0  0  0  0  0  0  0
    0.4354    0.0450    5.3730 H   0  0  0  0  0  0  0  0  0  0  0  0
    1.9205    1.2365    6.0080 C   0  0  0  0  0  0  0  0  0  0  0  0
    1.6201    1.2684    6.9084 H   0  0  0  0  0  0  0  0  0  0  0  0
    3.4603    3.6983   13.4762 C   0  0  0  0  0  0  0  0  0  0  0  0
    2.8105    3.2930   14.0393 H   0  0  0  0  0  0  0  0  0  0  0  0
    3.5953    5.0624   13.4847 C   0  0  0  0  0  0  0  0  0  0  0  0
    3.0312    5.5878   14.0410 H   0  0  0  0  0  0  0  0  0  0  0  0
    4.5558    5.6853   12.6836 C   0  0  0  0  0  0  0  0  0  0  0  0
    4.6625    6.6273   12.7384 H   0  0  0  0  0  0  0  0  0  0  0  0
    5.3494    4.9723   11.8209 C   0  0  0  0  0  0  0  0  0  0  0  0
    5.9786    5.4133   11.2629 H   0  0  0  0  0  0  0  0  0  0  0  0
    4.0504    1.4523   12.8925 C   0  0  0  0  0  0  0  0  0  0  0  0
    4.5535    1.1727   13.6850 H   0  0  0  0  0  0  0  0  0  0  0  0
    4.3758    0.9607   12.1102 H   0  0  0  0  0  0  0  0  0  0  0  0
    3.0976    1.2609   13.0260 H   0  0  0  0  0  0  0  0  0  0  0  0
    7.2632    1.3059   11.6566 C   0  0  0  0  0  0  0  0  0  0  0  0
    7.9524    0.2083   11.1380 C   0  0  0  0  0  0  0  0  0  0  0  0
    7.8479   -0.0206   10.2222 H   0  0  0  0  0  0  0  0  0  0  0  0
    8.7873   -0.5460   11.9425 C   0  0  0  0  0  0  0  0  0  0  0  0
    9.2537   -1.2891   11.5779 H   0  0  0  0  0  0  0  0  0  0  0  0
    8.9425   -0.2195   13.2793 C   0  0  0  0  0  0  0  0  0  0  0  0
    9.4986   -0.7487   13.8390 H   0  0  0  0  0  0  0  0  0  0  0  0
    8.2885    0.8763   13.7962 C   0  0  0  0  0  0  0  0  0  0  0  0
    8.4084    1.1108   14.7086 H   0  0  0  0  0  0  0  0  0  0  0  0
    7.4553    1.6381   12.9883 C   0  0  0  0  0  0  0  0  0  0  0  0
    7.0128    2.3961   13.3512 H   0  0  0  0  0  0  0  0  0  0  0  0
    7.4811    3.5332    9.9039 C   0  0  0  0  0  0  0  0  0  0  0  0
    8.4612    4.0736   10.7238 C   0  0  0  0  0  0  0  0  0  0  0  0
    8.5009    3.8184   11.6395 H   0  0  0  0  0  0  0  0  0  0  0  0
    9.3773    4.9780   10.2274 C   0  0  0  0  0  0  0  0  0  0  0  0
   10.0492    5.3307   10.7991 H   0  0  0  0  0  0  0  0  0  0  0  0
    9.3229    5.3757    8.9025 C   0  0  0  0  0  0  0  0  0  0  0  0
    9.9527    5.9987    8.5585 H   0  0  0  0  0  0  0  0  0  0  0  0
    8.3447    4.8560    8.0963 C   0  0  0  0  0  0  0  0  0  0  0  0
    8.2836    5.1412    7.1925 H   0  0  0  0  0  0  0  0  0  0  0  0
    7.4375    3.9159    8.5824 C   0  0  0  0  0  0  0  0  0  0  0  0
    6.7883    3.5369    7.9987 H   0  0  0  0  0  0  0  0  0  0  0  0
    5.0042   -0.5404   10.0100 C   0  0  0  0  0  0  0  0  0  0  0  0
    3.9028   -0.3621    7.6821 C   0  0  0  0  0  0  0  0  0  0  0  0
    6.5718    0.4316    7.9731 C   0  0  0  0  0  0  0  0  0  0  0  0
    3.0714    1.5048    9.7293 C   0  0  0  0  0  0  0  0  0  0  0  0
  1  2  1  0  0  0  0
  2 10  1  0  0  0  0
  3  1  1  0  0  0  0
  4 80  3  0  0  0  0
  5 81  3  0  0  0  0
  6 82  3  0  0  0  0
  7 83  3  0  0  0  0
  8 10  1  0  0  0  0
  9 11  1  0  0  0  0
 10 18  1  0  0  0  0
 11  3  1  0  0  0  0
 12  8  1  0  0  0  0
 13 12  1  0  0  0  0
 14 12  2  0  0  0  0
 15 14  1  0  0  0  0
 16 14  1  0  0  0  0
 17 16  1  0  0  0  0
 18 16  2  0  0  0  0
 19 18  1  0  0  0  0
 20  8  1  0  0  0  0
 21 20  1  0  0  0  0
 22 20  1  0  0  0  0
 23 20  1  0  0  0  0
 24  2  1  0  0  0  0
 25 24  4  0  0  0  0
 26 25  1  0  0  0  0
 27 25  4  0  0  0  0
 28 27  1  0  0  0  0
 29 27  4  0  0  0  0
 30 29  1  0  0  0  0
 31 29  4  0  0  0  0
 32 31  1  0  0  0  0
 33 24  4  0  0  0  0
 34 33  1  0  0  0  0
 35  2  1  0  0  0  0
 36 35  4  0  0  0  0
 37 36  1  0  0  0  0
 38 36  4  0  0  0  0
 39 38  1  0  0  0  0
 40 38  4  0  0  0  0
 41 40  1  0  0  0  0
 42 40  4  0  0  0  0
 43 42  1  0  0  0  0
 44 35  4  0  0  0  0
 45 44  1  0  0  0  0
 46  9  1  0  0  0  0
 47 46  1  0  0  0  0
 48 46  2  0  0  0  0
 49 48  1  0  0  0  0
 50 48  1  0  0  0  0
 51 50  1  0  0  0  0
 52 11  1  0  0  0  0
 53 52  1  0  0  0  0
 54  9  1  0  0  0  0
 55 54  1  0  0  0  0
 56 54  1  0  0  0  0
 57 54  1  0  0  0  0
 58  3  1  0  0  0  0
 59 58  4  0  0  0  0
 60 59  1  0  0  0  0
 61 59  4  0  0  0  0
 62 61  1  0  0  0  0
 63 61  4  0  0  0  0
 64 63  1  0  0  0  0
 65 63  4  0  0  0  0
 66 65  1  0  0  0  0
 67 58  4  0  0  0  0
 68 67  1  0  0  0  0
 69  3  1  0  0  0  0
 70 69  4  0  0  0  0
 71 70  1  0  0  0  0
 72 70  4  0  0  0  0
 73 72  1  0  0  0  0
 74 72  4  0  0  0  0
 75 74  1  0  0  0  0
 76 74  4  0  0  0  0
 77 76  1  0  0  0  0
 78 69  4  0  0  0  0
 79 78  1  0  0  0  0
 80  1  1  0  0  0  0
 81  1  1  0  0  0  0
 82  1  1  0  0  0  0
 83  1  1  0  0  0  0
 31 33  4  0  0  0  0
 42 44  4  0  0  0  0
 50 52  2  0  0  0  0
 65 67  4  0  0  0  0
 76 78  4  0  0  0  0
M  END
$$$$
HAWKAU

From CSD data. Using bond type 'Any'. No disordered atoms. Largest molecule.
168178  0  0  0  0  0  0  0  0999 V2000
    8.0985    0.7376    1.6629 K   0  0  0  0  0  0  0  0  0  0  0  0
    5.4072    2.4677    2.1319 P   0  0  0  0  0  0  0  0  0  0  0  0
    2.2591    3.1381    2.1194 Si  0  0  0  0  0  0  0  0  0  0  0  0
    3.6994    1.2404    4.3068 Si  0  0  0  0  0  0  0  0  0  0  0  0
    5.1320    1.5545    0.4233 B   0  0  0  0  0  0  0  0  0  0  0  0
    4.3539    1.9902   -0.2731 H   0  0  0  0  0  0  0  0  0  0  0  0
    6.1490    1.5851   -0.1095 H   0  0  0  0  0  0  0  0  0  0  0  0
    4.8978    0.4817    0.6785 H   0  0  0  0  0  0  0  0  0  0  0  0
    5.9442    4.6986    4.0078 O   0  0  0  0  0  0  0  0  0  0  0  0
    8.7111   -0.6256    4.0686 N   0  0  0  0  0  0  0  0  0  0  0  0
    9.8497    2.0505    3.6218 N   0  0  0  0  0  0  0  0  0  0  0  0
   10.1660    2.4809    0.7464 N   0  0  0  0  0  0  0  0  0  0  0  0
    3.7930    2.6549    3.0719 C   0  0  0  0  0  0  0  0  0  0  0  0
    3.9599    3.4520    3.6530 H   0  0  0  0  0  0  0  0  0  0  0  0
    1.4463    1.6598    1.3049 C   0  0  0  0  0  0  0  0  0  0  0  0
    2.0299    1.3151    0.5960 H   0  0  0  0  0  0  0  0  0  0  0  0
    0.5880    1.9302    0.9189 H   0  0  0  0  0  0  0  0  0  0  0  0
    1.2966    0.9601    1.9744 H   0  0  0  0  0  0  0  0  0  0  0  0
    1.0093    3.9143    3.2756 C   0  0  0  0  0  0  0  0  0  0  0  0
    1.4116    4.6904    3.7184 H   0  0  0  0  0  0  0  0  0  0  0  0
    0.7377    3.2586    3.9503 H   0  0  0  0  0  0  0  0  0  0  0  0
    0.2235    4.2004    2.7639 H   0  0  0  0  0  0  0  0  0  0  0  0
    2.5998    4.4380    0.8225 C   0  0  0  0  0  0  0  0  0  0  0  0
    3.0518    5.2021    1.2376 H   0  0  0  0  0  0  0  0  0  0  0  0
    1.7533    4.7337    0.4268 H   0  0  0  0  0  0  0  0  0  0  0  0
    3.1727    4.0603    0.1238 H   0  0  0  0  0  0  0  0  0  0  0  0
    3.9427   -0.4287    3.5090 C   0  0  0  0  0  0  0  0  0  0  0  0
    4.7696   -0.4217    2.9844 H   0  0  0  0  0  0  0  0  0  0  0  0
    3.1834   -0.6234    2.9204 H   0  0  0  0  0  0  0  0  0  0  0  0
    4.0015   -1.1168    4.2035 H   0  0  0  0  0  0  0  0  0  0  0  0
    5.0138    1.5155    5.6105 C   0  0  0  0  0  0  0  0  0  0  0  0
    5.8859    1.6268    5.1765 H   0  0  0  0  0  0  0  0  0  0  0  0
    5.0440    0.7434    6.2121 H   0  0  0  0  0  0  0  0  0  0  0  0
    4.7996    2.3219    6.1253 H   0  0  0  0  0  0  0  0  0  0  0  0
    2.0643    1.1553    5.2041 C   0  0  0  0  0  0  0  0  0  0  0  0
    1.3408    1.0301    4.5549 H   0  0  0  0  0  0  0  0  0  0  0  0
    1.9192    1.9885    5.6986 H   0  0  0  0  0  0  0  0  0  0  0  0
    2.0744    0.4017    5.8308 H   0  0  0  0  0  0  0  0  0  0  0  0
    5.8815    4.1934    1.7154 C   0  0  0  0  0  0  0  0  0  0  0  0
    6.1392    4.5944    0.4048 C   0  0  0  0  0  0  0  0  0  0  0  0
    5.9640    3.9887   -0.3058 H   0  0  0  0  0  0  0  0  0  0  0  0
    6.6437    5.8502    0.1080 C   0  0  0  0  0  0  0  0  0  0  0  0
    6.8177    6.0905   -0.7952 H   0  0  0  0  0  0  0  0  0  0  0  0
    6.8912    6.7412    1.1071 C   0  0  0  0  0  0  0  0  0  0  0  0
    7.2361    7.6023    0.9004 H   0  0  0  0  0  0  0  0  0  0  0  0
    6.6406    6.3929    2.4262 C   0  0  0  0  0  0  0  0  0  0  0  0
    6.7973    7.0189    3.1238 H   0  0  0  0  0  0  0  0  0  0  0  0
    6.1625    5.1299    2.7214 C   0  0  0  0  0  0  0  0  0  0  0  0
    6.4027    5.5131    5.0739 C   0  0  0  0  0  0  0  0  0  0  0  0
    6.2232    5.0654    5.9276 H   0  0  0  0  0  0  0  0  0  0  0  0
    5.9343    6.3739    5.0513 H   0  0  0  0  0  0  0  0  0  0  0  0
    7.3670    5.6622    4.9788 H   0  0  0  0  0  0  0  0  0  0  0  0
    9.7872   -1.4536    3.5546 C   0  0  0  0  0  0  0  0  0  0  0  0
   10.4762   -0.8834    3.1551 H   0  0  0  0  0  0  0  0  0  0  0  0
    9.4336   -2.0635    2.8749 H   0  0  0  0  0  0  0  0  0  0  0  0
   10.1781   -1.9735    4.2874 H   0  0  0  0  0  0  0  0  0  0  0  0
    7.6067   -1.4660    4.5122 C   0  0  0  0  0  0  0  0  0  0  0  0
    7.2968   -2.0202    3.7654 H   0  0  0  0  0  0  0  0  0  0  0  0
    6.8708   -0.9001    4.8266 H   0  0  0  0  0  0  0  0  0  0  0  0
    7.9092   -2.0435    5.2434 H   0  0  0  0  0  0  0  0  0  0  0  0
    9.1622    0.2195    5.1633 C   0  0  0  0  0  0  0  0  0  0  0  0
    9.5181   -0.3567    5.8849 H   0  0  0  0  0  0  0  0  0  0  0  0
    8.3837    0.7101    5.5279 H   0  0  0  0  0  0  0  0  0  0  0  0
   10.2286    1.2199    4.7675 C   0  0  0  0  0  0  0  0  0  0  0  0
   10.4189    1.8085    5.5407 H   0  0  0  0  0  0  0  0  0  0  0  0
   11.0607    0.7317    4.5477 H   0  0  0  0  0  0  0  0  0  0  0  0
    8.8283    3.0184    4.0081 C   0  0  0  0  0  0  0  0  0  0  0  0
    8.5612    3.5420    3.2234 H   0  0  0  0  0  0  0  0  0  0  0  0
    9.1893    3.6186    4.6943 H   0  0  0  0  0  0  0  0  0  0  0  0
    8.0483    2.5452    4.3657 H   0  0  0  0  0  0  0  0  0  0  0  0
   11.0089    2.7342    3.0709 C   0  0  0  0  0  0  0  0  0  0  0  0
   11.7468    2.0818    2.9659 H   0  0  0  0  0  0  0  0  0  0  0  0
   11.3071    3.4270    3.7113 H   0  0  0  0  0  0  0  0  0  0  0  0
   10.7364    3.3858    1.7339 C   0  0  0  0  0  0  0  0  0  0  0  0
   10.1137    4.1437    1.8692 H   0  0  0  0  0  0  0  0  0  0  0  0
   11.5846    3.7520    1.3784 H   0  0  0  0  0  0  0  0  0  0  0  0
   11.1039    1.4296    0.3875 C   0  0  0  0  0  0  0  0  0  0  0  0
   11.2879    0.8734    1.1736 H   0  0  0  0  0  0  0  0  0  0  0  0
   11.9385    1.8318    0.0697 H   0  0  0  0  0  0  0  0  0  0  0  0
   10.7168    0.8751   -0.3215 H   0  0  0  0  0  0  0  0  0  0  0  0
    9.7718    3.2124   -0.4562 C   0  0  0  0  0  0  0  0  0  0  0  0
    9.3456    2.5969   -1.0882 H   0  0  0  0  0  0  0  0  0  0  0  0
   10.5655    3.6103   -0.8720 H   0  0  0  0  0  0  0  0  0  0  0  0
    9.1397    3.9220   -0.2148 H   0  0  0  0  0  0  0  0  0  0  0  0
    5.6139   -0.7376   -1.6629 K   0  0  0  0  0  0  0  0  0  0  0  0
    8.3052   -2.4677   -2.1319 P   0  0  0  0  0  0  0  0  0  0  0  0
   11.4533   -3.1381   -2.1194 Si  0  0  0  0  0  0  0  0  0  0  0  0
   10.0130   -1.2404   -4.3068 Si  0  0  0  0  0  0  0  0  0  0  0  0
    8.5804   -1.5545   -0.4233 B   0  0  0  0  0  0  0  0  0  0  0  0
    9.3585   -1.9902    0.2731 H   0  0  0  0  0  0  0  0  0  0  0  0
    7.5634   -1.5851    0.1095 H   0  0  0  0  0  0  0  0  0  0  0  0
    8.8146   -0.4817   -0.6785 H   0  0  0  0  0  0  0  0  0  0  0  0
    7.7682   -4.6986   -4.0078 O   0  0  0  0  0  0  0  0  0  0  0  0
    5.0013    0.6256   -4.0686 N   0  0  0  0  0  0  0  0  0  0  0  0
    3.8627   -2.0505   -3.6218 N   0  0  0  0  0  0  0  0  0  0  0  0
    3.5464   -2.4809   -0.7464 N   0  0  0  0  0  0  0  0  0  0  0  0
    9.9194   -2.6549   -3.0719 C   0  0  0  0  0  0  0  0  0  0  0  0
    9.7525   -3.4520   -3.6530 H   0  0  0  0  0  0  0  0  0  0  0  0
   12.2661   -1.6598   -1.3049 C   0  0  0  0  0  0  0  0  0  0  0  0
   11.6825   -1.3151   -0.5960 H   0  0  0  0  0  0  0  0  0  0  0  0
   13.1244   -1.9302   -0.9189 H   0  0  0  0  0  0  0  0  0  0  0  0
   12.4158   -0.9601   -1.9744 H   0  0  0  0  0  0  0  0  0  0  0  0
   12.7031   -3.9143   -3.2756 C   0  0  0  0  0  0  0  0  0  0  0  0
   12.3008   -4.6904   -3.7184 H   0  0  0  0  0  0  0  0  0  0  0  0
   12.9747   -3.2586   -3.9503 H   0  0  0  0  0  0  0  0  0  0  0  0
   13.4889   -4.2004   -2.7639 H   0  0  0  0  0  0  0  0  0  0  0  0
   11.1126   -4.4380   -0.8225 C   0  0  0  0  0  0  0  0  0  0  0  0
   10.6606   -5.2021   -1.2376 H   0  0  0  0  0  0  0  0  0  0  0  0
   11.9591   -4.7337   -0.4268 H   0  0  0  0  0  0  0  0  0  0  0  0
   10.5397   -4.0603   -0.1238 H   0  0  0  0  0  0  0  0  0  0  0  0
    9.7697    0.4287   -3.5090 C   0  0  0  0  0  0  0  0  0  0  0  0
    8.9428    0.4217   -2.9844 H   0  0  0  0  0  0  0  0  0  0  0  0
   10.5290    0.6234   -2.9204 H   0  0  0  0  0  0  0  0  0  0  0  0
    9.7109    1.1168   -4.2035 H   0  0  0  0  0  0  0  0  0  0  0  0
    8.6986   -1.5155   -5.6105 C   0  0  0  0  0  0  0  0  0  0  0  0
    7.8265   -1.6268   -5.1765 H   0  0  0  0  0  0  0  0  0  0  0  0
    8.6684   -0.7434   -6.2121 H   0  0  0  0  0  0  0  0  0  0  0  0
    8.9128   -2.3219   -6.1253 H   0  0  0  0  0  0  0  0  0  0  0  0
   11.6481   -1.1553   -5.2041 C   0  0  0  0  0  0  0  0  0  0  0  0
   12.3716   -1.0301   -4.5549 H   0  0  0  0  0  0  0  0  0  0  0  0
   11.7932   -1.9885   -5.6986 H   0  0  0  0  0  0  0  0  0  0  0  0
   11.6380   -0.4017   -5.8308 H   0  0  0  0  0  0  0  0  0  0  0  0
    7.8309   -4.1934   -1.7154 C   0  0  0  0  0  0  0  0  0  0  0  0
    7.5732   -4.5944   -0.4048 C   0  0  0  0  0  0  0  0  0  0  0  0
    7.7484   -3.9887    0.3058 H   0  0  0  0  0  0  0  0  0  0  0  0
    7.0687   -5.8502   -0.1080 C   0  0  0  0  0  0  0  0  0  0  0  0
    6.8947   -6.0905    0.7952 H   0  0  0  0  0  0  0  0  0  0  0  0
    6.8212   -6.7412   -1.1071 C   0  0  0  0  0  0  0  0  0  0  0  0
    6.4763   -7.6023   -0.9004 H   0  0  0  0  0  0  0  0  0  0  0  0
    7.0718   -6.3929   -2.4262 C   0  0  0  0  0  0  0  0  0  0  0  0
    6.9151   -7.0189   -3.1238 H   0  0  0  0  0  0  0  0  0  0  0  0
    7.5499   -5.1299   -2.7214 C   0  0  0  0  0  0  0  0  0  0  0  0
    7.3097   -5.5131   -5.0739 C   0  0  0  0  0  0  0  0  0  0  0  0
    7.4892   -5.0654   -5.9276 H   0  0  0  0  0  0  0  0  0  0  0  0
    7.7781   -6.3739   -5.0513 H   0  0  0  0  0  0  0  0  0  0  0  0
    6.3454   -5.6622   -4.9788 H   0  0  0  0  0  0  0  0  0  0  0  0
    3.9252    1.4536   -3.5546 C   0  0  0  0  0  0  0  0  0  0  0  0
    3.2362    0.8834   -3.1551 H   0  0  0  0  0  0  0  0  0  0  0  0
    4.2788    2.0635   -2.8749 H   0  0  0  0  0  0  0  0  0  0  0  0
    3.5343    1.9735   -4.2874 H   0  0  0  0  0  0  0  0  0  0  0  0
    6.1057    1.4660   -4.5122 C   0  0  0  0  0  0  0  0  0  0  0  0
    6.4156    2.0202   -3.7654 H   0  0  0  0  0  0  0  0  0  0  0  0
    6.8416    0.9001   -4.8266 H   0  0  0  0  0  0  0  0  0  0  0  0
    5.8032    2.0435   -5.2434 H   0  0  0  0  0  0  0  0  0  0  0  0
    4.5502   -0.2195   -5.1633 C   0  0  0  0  0  0  0  0  0  0  0  0
    4.1943    0.3567   -5.8849 H   0  0  0  0  0  0  0  0  0  0  0  0
    5.3287   -0.7101   -5.5279 H   0  0  0  0  0  0  0  0  0  0  0  0
    3.4838   -1.2199   -4.7675 C   0  0  0  0  0  0  0  0  0  0  0  0
    3.2935   -1.8085   -5.5407 H   0  0  0  0  0  0  0  0  0  0  0  0
    2.6517   -0.7317   -4.5477 H   0  0  0  0  0  0  0  0  0  0  0  0
    4.8841   -3.0184   -4.0081 C   0  0  0  0  0  0  0  0  0  0  0  0
    5.1512   -3.5420   -3.2234 H   0  0  0  0  0  0  0  0  0  0  0  0
    4.5231   -3.6186   -4.6943 H   0  0  0  0  0  0  0  0  0  0  0  0
    5.6641   -2.5452   -4.3657 H   0  0  0  0  0  0  0  0  0  0  0  0
    2.7035   -2.7342   -3.0709 C   0  0  0  0  0  0  0  0  0  0  0  0
    1.9656   -2.0818   -2.9659 H   0  0  0  0  0  0  0  0  0  0  0  0
    2.4053   -3.4270   -3.7113 H   0  0  0  0  0  0  0  0  0  0  0  0
    2.9760   -3.3858   -1.7339 C   0  0  0  0  0  0  0  0  0  0  0  0
    3.5987   -4.1437   -1.8692 H   0  0  0  0  0  0  0  0  0  0  0  0
    2.1278   -3.7520   -1.3784 H   0  0  0  0  0  0  0  0  0  0  0  0
    2.6085   -1.4296   -0.3875 C   0  0  0  0  0  0  0  0  0  0  0  0
    2.4245   -0.8734   -1.1736 H   0  0  0  0  0  0  0  0  0  0  0  0
    1.7739   -1.8318   -0.0697 H   0  0  0  0  0  0  0  0  0  0  0  0
    2.9956   -0.8751    0.3215 H   0  0  0  0  0  0  0  0  0  0  0  0
    3.9406   -3.2124    0.4562 C   0  0  0  0  0  0  0  0  0  0  0  0
    4.3668   -2.5969    1.0882 H   0  0  0  0  0  0  0  0  0  0  0  0
    3.1469   -3.6103    0.8720 H   0  0  0  0  0  0  0  0  0  0  0  0
    4.5727   -3.9220    0.2148 H   0  0  0  0  0  0  0  0  0  0  0  0
  1  2  1  0  0  0  0
  2  5  1  0  0  0  0
  3 13  1  0  0  0  0
  4 13  1  0  0  0  0
  5  6  1  0  0  0  0
  7  1  1  0  0  0  0
  8  5  1  0  0  0  0
  9 48  1  0  0  0  0
 10  1  1  0  0  0  0
 11  1  1  0  0  0  0
 12  1  1  0  0  0  0
 13  2  1  0  0  0  0
 14 13  1  0  0  0  0
 15  3  1  0  0  0  0
 16 15  1  0  0  0  0
 17 15  1  0  0  0  0
 18 15  1  0  0  0  0
 19  3  1  0  0  0  0
 20 19  1  0  0  0  0
 21 19  1  0  0  0  0
 22 19  1  0  0  0  0
 23  3  1  0  0  0  0
 24 23  1  0  0  0  0
 25 23  1  0  0  0  0
 26 23  1  0  0  0  0
 27  4  1  0  0  0  0
 28 27  1  0  0  0  0
 29 27  1  0  0  0  0
 30 27  1  0  0  0  0
 31  4  1  0  0  0  0
 32 31  1  0  0  0  0
 33 31  1  0  0  0  0
 34 31  1  0  0  0  0
 35  4  1  0  0  0  0
 36 35  1  0  0  0  0
 37 35  1  0  0  0  0
 38 35  1  0  0  0  0
 39  2  1  0  0  0  0
 40 39  4  0  0  0  0
 41 40  1  0  0  0  0
 42 40  4  0  0  0  0
 43 42  1  0  0  0  0
 44 42  4  0  0  0  0
 45 44  1  0  0  0  0
 46 44  4  0  0  0  0
 47 46  1  0  0  0  0
 48 39  4  0  0  0  0
 49  9  1  0  0  0  0
 50 49  1  0  0  0  0
 51 49  1  0  0  0  0
 52 49  1  0  0  0  0
 53 10  1  0  0  0  0
 54 53  1  0  0  0  0
 55 53  1  0  0  0  0
 56 53  1  0  0  0  0
 57 10  1  0  0  0  0
 58 57  1  0  0  0  0
 59 57  1  0  0  0  0
 60 57  1  0  0  0  0
 61 10  1  0  0  0  0
 62 61  1  0  0  0  0
 63 61  1  0  0  0  0
 64 11  1  0  0  0  0
 65 64  1  0  0  0  0
 66 64  1  0  0  0  0
 67 11  1  0  0  0  0
 68 67  1  0  0  0  0
 69 67  1  0  0  0  0
 70 67  1  0  0  0  0
 71 11  1  0  0  0  0
 72 71  1  0  0  0  0
 73 71  1  0  0  0  0
 74 12  1  0  0  0  0
 75 74  1  0  0  0  0
 76 74  1  0  0  0  0
 77 12  1  0  0  0  0
 78 77  1  0  0  0  0
 79 77  1  0  0  0  0
 80 77  1  0  0  0  0
 81 12  1  0  0  0  0
 82 81  1  0  0  0  0
 83 81  1  0  0  0  0
 84 81  1  0  0  0  0
 85  7  1  0  0  0  0
 86 85  1  0  0  0  0
 87 97  1  0  0  0  0
 88 97  1  0  0  0  0
 89 86  1  0  0  0  0
 90 89  1  0  0  0  0
 91  1  1  0  0  0  0
 92  1  1  0  0  0  0
 93132  1  0  0  0  0
 94 85  1  0  0  0  0
 95 85  1  0  0  0  0
 96 85  1  0  0  0  0
 97 86  1  0  0  0  0
 98 97  1  0  0  0  0
 99 87  1  0  0  0  0
100 99  1  0  0  0  0
101 99  1  0  0  0  0
102 99  1  0  0  0  0
103 87  1  0  0  0  0
104103  1  0  0  0  0
105103  1  0  0  0  0
106103  1  0  0  0  0
107 87  1  0  0  0  0
108107  1  0  0  0  0
109107  1  0  0  0  0
110107  1  0  0  0  0
111 88  1  0  0  0  0
112111  1  0  0  0  0
113111  1  0  0  0  0
114111  1  0  0  0  0
115 88  1  0  0  0  0
116115  1  0  0  0  0
117115  1  0  0  0  0
118115  1  0  0  0  0
119 88  1  0  0  0  0
120119  1  0  0  0  0
121119  1  0  0  0  0
122119  1  0  0  0  0
123 86  1  0  0  0  0
124123  4  0  0  0  0
125124  1  0  0  0  0
126124  4  0  0  0  0
127126  1  0  0  0  0
128126  4  0  0  0  0
129128  1  0  0  0  0
130128  4  0  0  0  0
131130  1  0  0  0  0
132123  4  0  0  0  0
133 93  1  0  0  0  0
134133  1  0  0  0  0
135133  1  0  0  0  0
136133  1  0  0  0  0
137 94  1  0  0  0  0
138137  1  0  0  0  0
139137  1  0  0  0  0
140137  1  0  0  0  0
141 94  1  0  0  0  0
142141  1  0  0  0  0
143141  1  0  0  0  0
144141  1  0  0  0  0
145 94  1  0  0  0  0
146145  1  0  0  0  0
147145  1  0  0  0  0
148 95  1  0  0  0  0
149148  1  0  0  0  0
150148  1  0  0  0  0
151 95  1  0  0  0  0
152151  1  0  0  0  0
153151  1  0  0  0  0
154151  1  0  0  0  0
155 95  1  0  0  0  0
156155  1  0  0  0  0
157155  1  0  0  0  0
158 96  1  0  0  0  0
159158  1  0  0  0  0
160158  1  0  0  0  0
161 96  1  0  0  0  0
162161  1  0  0  0  0
163161  1  0  0  0  0
164161  1  0  0  0  0
165 96  1  0  0  0  0
166165  1  0  0  0  0
167165  1  0  0  0  0
168165  1  0  0  0  0
  5  7  1  0  0  0  0
  8 85  1  0  0  0  0
 46 48  4  0  0  0  0
 61 64  1  0  0  0  0
 71 74  1  0  0  0  0
 85 91  1  0  0  0  0
 89 91  1  0  0  0  0
 89 92  1  0  0  0  0
130132  4  0  0  0  0
145148  1  0  0  0  0
155158  1  0  0  0  0
M  END
$$$$
HEQQEB

From CSD data. Using bond type 'Any'. Matching problem. No disordered atoms. Largest molecule.
110129  0  0  0  0  0  0  0  0999 V2000
   -0.2156    8.4710    5.0126 Au  0  0  0  0  0  0  0  0  0  0  0  0
    1.9353    9.0784    5.8858 P   0  0  0  0  0  0  0  0  0  0  0  0
   -0.9835    8.0815    7.2701 P   0  0  0  0  0  0  0  0  0  0  0  0
   -1.0670    7.9575    2.9212 P   0  0  0  0  0  0  0  0  0  0  0  0
   -3.1215    2.3510    3.0798 O   0  0  0  0  0  0  0  0  0  0  0  0
   -5.1011   11.8881    0.9296 O   0  0  0  0  0  0  0  0  0  0  0  0
    2.5541    8.2172   -1.8181 O   0  0  0  0  0  0  0  0  0  0  0  0
    1.8705    8.8389    7.7192 C   0  0  0  0  0  0  0  0  0  0  0  0
    0.4600    8.3606    8.3925 C   0  0  0  0  0  0  0  0  0  0  0  0
   -1.3936    6.2872    7.4354 C   0  0  0  0  0  0  0  0  0  0  0  0
   -1.6280    6.0973    8.3887 H   0  0  0  0  0  0  0  0  0  0  0  0
   -0.1968    5.4313    7.0458 C   0  0  0  0  0  0  0  0  0  0  0  0
   -0.4237    4.4835    7.1507 H   0  0  0  0  0  0  0  0  0  0  0  0
    0.5638    5.6509    7.6238 H   0  0  0  0  0  0  0  0  0  0  0  0
    0.0416    5.6087    6.1114 H   0  0  0  0  0  0  0  0  0  0  0  0
   -2.6067    5.9491    6.5506 C   0  0  0  0  0  0  0  0  0  0  0  0
   -2.4632    6.3059    5.6493 H   0  0  0  0  0  0  0  0  0  0  0  0
   -3.4141    6.3499    6.9362 H   0  0  0  0  0  0  0  0  0  0  0  0
   -2.7163    4.9765    6.5041 H   0  0  0  0  0  0  0  0  0  0  0  0
   -2.4128    9.0001    8.0295 C   0  0  0  0  0  0  0  0  0  0  0  0
   -2.0350    9.8419    8.4140 H   0  0  0  0  0  0  0  0  0  0  0  0
   -3.0986    8.2634    9.1901 C   0  0  0  0  0  0  0  0  0  0  0  0
   -3.6831    8.8849    9.6725 H   0  0  0  0  0  0  0  0  0  0  0  0
   -2.4188    7.9133    9.8018 H   0  0  0  0  0  0  0  0  0  0  0  0
   -3.6334    7.5221    8.8366 H   0  0  0  0  0  0  0  0  0  0  0  0
   -3.4327    9.4271    6.9737 C   0  0  0  0  0  0  0  0  0  0  0  0
   -3.7291    8.6406    6.4694 H   0  0  0  0  0  0  0  0  0  0  0  0
   -3.0190   10.0708    6.3621 H   0  0  0  0  0  0  0  0  0  0  0  0
   -4.2035    9.8427    7.4141 H   0  0  0  0  0  0  0  0  0  0  0  0
    2.4342   10.8563    5.5933 C   0  0  0  0  0  0  0  0  0  0  0  0
    2.0482   11.3814    6.3527 H   0  0  0  0  0  0  0  0  0  0  0  0
    1.7968   11.4170    4.3210 C   0  0  0  0  0  0  0  0  0  0  0  0
    2.0125   12.3696    4.2409 H   0  0  0  0  0  0  0  0  0  0  0  0
    0.8240   11.3053    4.3655 H   0  0  0  0  0  0  0  0  0  0  0  0
    2.1446   10.9362    3.5422 H   0  0  0  0  0  0  0  0  0  0  0  0
    3.9480   11.1245    5.6144 C   0  0  0  0  0  0  0  0  0  0  0  0
    4.3676   10.6907    4.8418 H   0  0  0  0  0  0  0  0  0  0  0  0
    4.3322   10.7631    6.4410 H   0  0  0  0  0  0  0  0  0  0  0  0
    4.1093   12.0900    5.5736 H   0  0  0  0  0  0  0  0  0  0  0  0
    3.3236    8.0138    5.2909 C   0  0  0  0  0  0  0  0  0  0  0  0
    4.1615    8.2824    5.7660 H   0  0  0  0  0  0  0  0  0  0  0  0
    3.5333    8.1935    3.7775 C   0  0  0  0  0  0  0  0  0  0  0  0
    4.2731    7.6242    3.4807 H   0  0  0  0  0  0  0  0  0  0  0  0
    3.7456    9.1303    3.5864 H   0  0  0  0  0  0  0  0  0  0  0  0
    2.7147    7.9396    3.3025 H   0  0  0  0  0  0  0  0  0  0  0  0
    3.0394    6.5350    5.5868 C   0  0  0  0  0  0  0  0  0  0  0  0
    2.2513    6.2461    5.0799 H   0  0  0  0  0  0  0  0  0  0  0  0
    2.8707    6.4206    6.5451 H   0  0  0  0  0  0  0  0  0  0  0  0
    3.8126    5.9950    5.3244 H   0  0  0  0  0  0  0  0  0  0  0  0
   -1.7612    6.2810    2.9051 C   0  0  0  0  0  0  0  0  0  0  0  0
   -0.9369    5.2138    3.2932 C   0  0  0  0  0  0  0  0  0  0  0  0
   -0.0319    5.3870    3.5249 H   0  0  0  0  0  0  0  0  0  0  0  0
   -1.4113    3.9195    3.3456 C   0  0  0  0  0  0  0  0  0  0  0  0
   -0.8360    3.2091    3.6037 H   0  0  0  0  0  0  0  0  0  0  0  0
   -2.7472    3.6607    3.0150 C   0  0  0  0  0  0  0  0  0  0  0  0
   -3.5841    4.7016    2.6494 C   0  0  0  0  0  0  0  0  0  0  0  0
   -4.4934    4.5285    2.4382 H   0  0  0  0  0  0  0  0  0  0  0  0
   -3.0886    6.0036    2.5926 C   0  0  0  0  0  0  0  0  0  0  0  0
   -3.6670    6.7126    2.3373 H   0  0  0  0  0  0  0  0  0  0  0  0
   -4.5060    2.0613    2.8188 C   0  0  0  0  0  0  0  0  0  0  0  0
   -5.0681    2.5577    3.4492 H   0  0  0  0  0  0  0  0  0  0  0  0
   -4.6643    1.0994    2.9287 H   0  0  0  0  0  0  0  0  0  0  0  0
   -4.7283    2.3264    1.9020 H   0  0  0  0  0  0  0  0  0  0  0  0
   -2.3546    9.0908    2.3270 C   0  0  0  0  0  0  0  0  0  0  0  0
   -2.8805   10.0379    3.1937 C   0  0  0  0  0  0  0  0  0  0  0  0
   -2.6056   10.0321    4.1037 H   0  0  0  0  0  0  0  0  0  0  0  0
   -3.7953   10.9922    2.7734 C   0  0  0  0  0  0  0  0  0  0  0  0
   -4.1327   11.6365    3.3861 H   0  0  0  0  0  0  0  0  0  0  0  0
   -4.2129   10.9983    1.4544 C   0  0  0  0  0  0  0  0  0  0  0  0
   -3.6988   10.0482    0.5637 C   0  0  0  0  0  0  0  0  0  0  0  0
   -3.9873   10.0458   -0.3407 H   0  0  0  0  0  0  0  0  0  0  0  0
   -2.7771    9.1175    0.9903 C   0  0  0  0  0  0  0  0  0  0  0  0
   -2.4244    8.4880    0.3722 H   0  0  0  0  0  0  0  0  0  0  0  0
   -5.5191   12.9783    1.7874 C   0  0  0  0  0  0  0  0  0  0  0  0
   -6.0430   12.6233    2.5360 H   0  0  0  0  0  0  0  0  0  0  0  0
   -6.0680   13.6068    1.2727 H   0  0  0  0  0  0  0  0  0  0  0  0
   -4.7284   13.4439    2.1339 H   0  0  0  0  0  0  0  0  0  0  0  0
    0.1041    7.9587    1.5281 C   0  0  0  0  0  0  0  0  0  0  0  0
    0.8369    9.1095    1.3051 C   0  0  0  0  0  0  0  0  0  0  0  0
    0.7626    9.8296    1.9194 H   0  0  0  0  0  0  0  0  0  0  0  0
    1.6815    9.2432    0.2039 C   0  0  0  0  0  0  0  0  0  0  0  0
    2.1673   10.0476    0.0615 H   0  0  0  0  0  0  0  0  0  0  0  0
    1.8011    8.1803   -0.6799 C   0  0  0  0  0  0  0  0  0  0  0  0
    1.1011    7.0074   -0.4534 C   0  0  0  0  0  0  0  0  0  0  0  0
    1.2019    6.2749   -1.0504 H   0  0  0  0  0  0  0  0  0  0  0  0
    0.2590    6.8965    0.6334 C   0  0  0  0  0  0  0  0  0  0  0  0
   -0.2215    6.0897    0.7744 H   0  0  0  0  0  0  0  0  0  0  0  0
    3.2007    9.4370   -2.1244 C   0  0  0  0  0  0  0  0  0  0  0  0
    2.5367   10.1563   -2.1670 H   0  0  0  0  0  0  0  0  0  0  0  0
    3.6522    9.3586   -2.9902 H   0  0  0  0  0  0  0  0  0  0  0  0
    3.8600    9.6403   -1.4289 H   0  0  0  0  0  0  0  0  0  0  0  0
    0.6794    7.4661    9.7345 B   0  0  0  0  0  0  0  0  0  0  0  0
   -0.0171    6.6989   10.0416 H   0  0  0  0  0  0  0  0  0  0  0  0
    2.4768    7.3578   10.0338 B   0  0  0  0  0  0  0  0  0  0  0  0
    3.0388    6.5907   10.5778 H   0  0  0  0  0  0  0  0  0  0  0  0
    2.2902    7.0194    8.9896 H   0  0  0  0  0  0  0  0  0  0  0  0
    3.1432    8.2558    8.5698 B   0  0  0  0  0  0  0  0  0  0  0  0
    4.0886    8.0210    8.0670 H   0  0  0  0  0  0  0  0  0  0  0  0
    0.9122   10.0246    8.5217 B   0  0  0  0  0  0  0  0  0  0  0  0
    0.3876   10.8697    8.0071 H   0  0  0  0  0  0  0  0  0  0  0  0
    0.2003    9.1822    9.9021 B   0  0  0  0  0  0  0  0  0  0  0  0
   -0.7827    9.5034   10.3318 H   0  0  0  0  0  0  0  0  0  0  0  0
    1.4740    8.5312   10.9028 B   0  0  0  0  0  0  0  0  0  0  0  0
    1.3206    8.4103   12.0051 H   0  0  0  0  0  0  0  0  0  0  0  0
    3.0541    9.0277   10.1605 B   0  0  0  0  0  0  0  0  0  0  0  0
    3.9781    9.2375   10.7576 H   0  0  0  0  0  0  0  0  0  0  0  0
    2.6756    9.9768    8.7392 B   0  0  0  0  0  0  0  0  0  0  0  0
    3.3283   10.8231    8.4045 H   0  0  0  0  0  0  0  0  0  0  0  0
    1.6448   10.1491   10.1370 B   0  0  0  0  0  0  0  0  0  0  0  0
    1.6280   11.0985   10.7308 H   0  0  0  0  0  0  0  0  0  0  0  0
  1  2  1  0  0  0  0
  2  8  1  0  0  0  0
  3  1  1  0  0  0  0
  4  1  1  0  0  0  0
  5 55  1  0  0  0  0
  6 69  1  0  0  0  0
  7 83  1  0  0  0  0
  8  9  1  0  0  0  0
  9  3  1  0  0  0  0
 10  3  1  0  0  0  0
 11 10  1  0  0  0  0
 12 10  1  0  0  0  0
 13 12  1  0  0  0  0
 14 12  1  0  0  0  0
 15 12  1  0  0  0  0
 16 10  1  0  0  0  0
 17 16  1  0  0  0  0
 18 16  1  0  0  0  0
 19 16  1  0  0  0  0
 20  3  1  0  0  0  0
 21 20  1  0  0  0  0
 22 20  1  0  0  0  0
 23 22  1  0  0  0  0
 24 22  1  0  0  0  0
 25 22  1  0  0  0  0
 26 20  1  0  0  0  0
 27 26  1  0  0  0  0
 28 26  1  0  0  0  0
 29 26  1  0  0  0  0
 30  2  1  0  0  0  0
 31 30  1  0  0  0  0
 32 30  1  0  0  0  0
 33 32  1  0  0  0  0
 34 32  1  0  0  0  0
 35 32  1  0  0  0  0
 36 30  1  0  0  0  0
 37 36  1  0  0  0  0
 38 36  1  0  0  0  0
 39 36  1  0  0  0  0
 40  2  1  0  0  0  0
 41 40  1  0  0  0  0
 42 40  1  0  0  0  0
 43 42  1  0  0  0  0
 44 42  1  0  0  0  0
 45 42  1  0  0  0  0
 46 40  1  0  0  0  0
 47 46  1  0  0  0  0
 48 46  1  0  0  0  0
 49 46  1  0  0  0  0
 50  4  1  0  0  0  0
 51 50  4  0  0  0  0
 52 51  1  0  0  0  0
 53 51  4  0  0  0  0
 54 53  1  0  0  0  0
 55 53  4  0  0  0  0
 56 55  4  0  0  0  0
 57 56  1  0  0  0  0
 58 50  4  0  0  0  0
 59 58  1  0  0  0  0
 60  5  1  0  0  0  0
 61 60  1  0  0  0  0
 62 60  1  0  0  0  0
 63 60  1  0  0  0  0
 64  4  1  0  0  0  0
 65 64  4  0  0  0  0
 66 65  1  0  0  0  0
 67 65  4  0  0  0  0
 68 67  1  0  0  0  0
 69 67  4  0  0  0  0
 70 69  4  0  0  0  0
 71 70  1  0  0  0  0
 72 64  4  0  0  0  0
 73 72  1  0  0  0  0
 74  6  1  0  0  0  0
 75 74  1  0  0  0  0
 76 74  1  0  0  0  0
 77 74  1  0  0  0  0
 78  4  1  0  0  0  0
 79 78  4  0  0  0  0
 80 79  1  0  0  0  0
 81 79  4  0  0  0  0
 82 81  1  0  0  0  0
 83 81  4  0  0  0  0
 84 83  4  0  0  0  0
 85 84  1  0  0  0  0
 86 78  4  0  0  0  0
 87 86  1  0  0  0  0
 88  7  1  0  0  0  0
 89 88  1  0  0  0  0
 90 88  1  0  0  0  0
 91 88  1  0  0  0  0
 92  9  1  0  0  0  0
 93 92  1  0  0  0  0
 94 92  1  0  0  0  0
 95 94  1  0  0  0  0
 96 94  1  0  0  0  0
 97  8  1  0  0  0  0
 98 97  1  0  0  0  0
 99  8  1  0  0  0  0
100 99  1  0  0  0  0
101  9  1  0  0  0  0
102101  1  0  0  0  0
103 92  1  0  0  0  0
104103  1  0  0  0  0
105 94  1  0  0  0  0
106105  1  0  0  0  0
107  8  1  0  0  0  0
108107  1  0  0  0  0
109 99  1  0  0  0  0
110109  1  0  0  0  0
  9 99  1  0  0  0  0
 56 58  4  0  0  0  0
 70 72  4  0  0  0  0
 84 86  4  0  0  0  0
 92101  1  0  0  0  0
 94 97  1  0  0  0  0
 94103  1  0  0  0  0
 96 97  1  0  0  0  0
 97105  1  0  0  0  0
 97107  1  0  0  0  0
 99101  1  0  0  0  0
 99107  1  0  0  0  0
101103  1  0  0  0  0
101109  1  0  0  0  0
103105  1  0  0  0  0
103109  1  0  0  0  0
105107  1  0  0  0  0
105109  1  0  0  0  0
107109  1  0  0  0  0
M  END
$$$$
HEVHEW

From CSD data. Using bond type 'Any'. No disordered atoms. Largest molecule.
128153  0  0  0  0  0  0  0  0999 V2000
    3.5443   -0.7401    1.2030 C   0  0  0  0  0  0  0  0  0  0  0  0
    3.5272   -1.2316    0.5026 H   0  0  0  0  0  0  0  0  0  0  0  0
    4.9281   -0.4613    1.9744 B   0  0  0  0  0  0  0  0  0  0  0  0
    5.8879   -0.8366    1.5956 H   0  0  0  0  0  0  0  0  0  0  0  0
    3.6017    0.8482    1.1499 B   0  0  0  0  0  0  0  0  0  0  0  0
    3.7200    1.3710    0.2104 H   0  0  0  0  0  0  0  0  0  0  0  0
    2.2482   -0.0895    1.8890 B   0  0  0  0  0  0  0  0  0  0  0  0
    1.3169   -0.3370    1.5202 H   0  0  0  0  0  0  0  0  0  0  0  0
    3.5493   -1.3571    2.7019 B   0  0  0  0  0  0  0  0  0  0  0  0
    3.3645   -2.4981    2.8143 H   0  0  0  0  0  0  0  0  0  0  0  0
    2.7206    1.4129    2.4854 B   0  0  0  0  0  0  0  0  0  0  0  0
    4.6628   -0.5322    3.7142 B   0  0  0  0  0  0  0  0  0  0  0  0
    5.3860   -1.0109    4.4068 H   0  0  0  0  0  0  0  0  0  0  0  0
    3.9441    2.8699    4.1115 H   0  0  0  0  0  0  0  0  0  0  0  0
    2.0474    1.4872    4.7648 H   0  0  0  0  0  0  0  0  0  0  0  0
    4.7702    1.5656    3.1071 Ir  0  0  0  0  0  0  0  0  0  0  0  0
    6.1454    1.4791    4.4325 C   0  0  0  0  0  0  0  0  0  0  0  0
    6.9585    1.3815    5.2241 O   0  0  0  0  0  0  0  0  0  0  0  0
    6.0818    2.9939    1.7816 P   0  0  0  0  0  0  0  0  0  0  0  0
    7.8703    2.6596    1.8997 C   0  0  0  0  0  0  0  0  0  0  0  0
    8.3354    1.3571    2.0284 C   0  0  0  0  0  0  0  0  0  0  0  0
    7.7162    0.6367    2.0699 H   0  0  0  0  0  0  0  0  0  0  0  0
    9.6991    1.1026    2.0991 C   0  0  0  0  0  0  0  0  0  0  0  0
   10.0103    0.2091    2.1830 H   0  0  0  0  0  0  0  0  0  0  0  0
   10.6012    2.1425    2.0489 C   0  0  0  0  0  0  0  0  0  0  0  0
   11.5337    1.9671    2.1044 H   0  0  0  0  0  0  0  0  0  0  0  0
   10.1491    3.4392    1.9185 C   0  0  0  0  0  0  0  0  0  0  0  0
   10.7693    4.1573    1.8877 H   0  0  0  0  0  0  0  0  0  0  0  0
    8.7942    3.6972    1.8334 C   0  0  0  0  0  0  0  0  0  0  0  0
    8.4918    4.5918    1.7275 H   0  0  0  0  0  0  0  0  0  0  0  0
    6.0172    4.7510    2.2841 C   0  0  0  0  0  0  0  0  0  0  0  0
    6.0838    5.0020    3.6520 C   0  0  0  0  0  0  0  0  0  0  0  0
    6.1880    4.2758    4.2560 H   0  0  0  0  0  0  0  0  0  0  0  0
    6.0005    6.2963    4.1486 C   0  0  0  0  0  0  0  0  0  0  0  0
    6.0493    6.4520    5.0852 H   0  0  0  0  0  0  0  0  0  0  0  0
    5.8469    7.3606    3.2726 C   0  0  0  0  0  0  0  0  0  0  0  0
    5.7655    8.2460    3.6058 H   0  0  0  0  0  0  0  0  0  0  0  0
    5.8156    7.1271    1.9128 C   0  0  0  0  0  0  0  0  0  0  0  0
    5.7265    7.8568    1.3098 H   0  0  0  0  0  0  0  0  0  0  0  0
    5.9127    5.8339    1.4163 C   0  0  0  0  0  0  0  0  0  0  0  0
    5.9071    5.6863    0.4774 H   0  0  0  0  0  0  0  0  0  0  0  0
    5.8080    3.0523   -0.0242 C   0  0  0  0  0  0  0  0  0  0  0  0
    4.6685    3.6902   -0.5368 C   0  0  0  0  0  0  0  0  0  0  0  0
    4.0390    4.0806    0.0597 H   0  0  0  0  0  0  0  0  0  0  0  0
    4.4555    3.7564   -1.9056 C   0  0  0  0  0  0  0  0  0  0  0  0
    3.6909    4.2084   -2.2427 H   0  0  0  0  0  0  0  0  0  0  0  0
    5.3466    3.1708   -2.7776 C   0  0  0  0  0  0  0  0  0  0  0  0
    5.1988    3.2208   -3.7158 H   0  0  0  0  0  0  0  0  0  0  0  0
    6.4577    2.5062   -2.2851 C   0  0  0  0  0  0  0  0  0  0  0  0
    7.0647    2.0856   -2.8834 H   0  0  0  0  0  0  0  0  0  0  0  0
    6.6823    2.4574   -0.9203 C   0  0  0  0  0  0  0  0  0  0  0  0
    7.4513    2.0078   -0.5905 H   0  0  0  0  0  0  0  0  0  0  0  0
    2.7580    0.1675    4.1231 Fe  0  0  0  0  0  0  0  0  0  0  0  0
    3.4501   -0.0755    5.7436 C   0  0  0  0  0  0  0  0  0  0  0  0
    3.8642   -0.2440    6.8093 O   0  0  0  0  0  0  0  0  0  0  0  0
    1.3870   -0.9133    4.3380 C   0  0  0  0  0  0  0  0  0  0  0  0
    0.5504   -1.6999    4.4614 O   0  0  0  0  0  0  0  0  0  0  0  0
    2.2558    2.9297    3.8350 Ir  0  0  0  0  0  0  0  0  0  0  0  0
    2.6111    4.4361    2.7845 C   0  0  0  0  0  0  0  0  0  0  0  0
    2.8413    5.3320    2.1164 O   0  0  0  0  0  0  0  0  0  0  0  0
    0.0460    2.9747    3.1240 P   0  0  0  0  0  0  0  0  0  0  0  0
   -0.1967    3.3288    1.3418 C   0  0  0  0  0  0  0  0  0  0  0  0
   -1.4764    3.6972    0.9118 C   0  0  0  0  0  0  0  0  0  0  0  0
   -2.1622    3.8424    1.5548 H   0  0  0  0  0  0  0  0  0  0  0  0
   -1.7590    3.8540   -0.4369 C   0  0  0  0  0  0  0  0  0  0  0  0
   -2.6354    4.0922   -0.7161 H   0  0  0  0  0  0  0  0  0  0  0  0
   -0.7707    3.6623   -1.3701 C   0  0  0  0  0  0  0  0  0  0  0  0
   -0.9667    3.7576   -2.2960 H   0  0  0  0  0  0  0  0  0  0  0  0
    0.5037    3.3347   -0.9731 C   0  0  0  0  0  0  0  0  0  0  0  0
    1.1904    3.2278   -1.6207 H   0  0  0  0  0  0  0  0  0  0  0  0
    0.7905    3.1580    0.3857 C   0  0  0  0  0  0  0  0  0  0  0  0
    1.6691    2.9187    0.6533 H   0  0  0  0  0  0  0  0  0  0  0  0
   -0.9946    4.3072    3.8464 C   0  0  0  0  0  0  0  0  0  0  0  0
   -2.3249    4.1352    4.1976 C   0  0  0  0  0  0  0  0  0  0  0  0
   -2.7099    3.2673    4.1806 H   0  0  0  0  0  0  0  0  0  0  0  0
   -3.0950    5.2262    4.5758 C   0  0  0  0  0  0  0  0  0  0  0  0
   -4.0060    5.0996    4.8182 H   0  0  0  0  0  0  0  0  0  0  0  0
   -2.5481    6.4927    4.6012 C   0  0  0  0  0  0  0  0  0  0  0  0
   -3.0808    7.2375    4.8559 H   0  0  0  0  0  0  0  0  0  0  0  0
   -1.2267    6.6740    4.2579 C   0  0  0  0  0  0  0  0  0  0  0  0
   -0.8463    7.5442    4.2749 H   0  0  0  0  0  0  0  0  0  0  0  0
   -0.4566    5.5934    3.8879 C   0  0  0  0  0  0  0  0  0  0  0  0
    0.4554    5.7258    3.6561 H   0  0  0  0  0  0  0  0  0  0  0  0
   -0.9451    1.4663    3.3611 C   0  0  0  0  0  0  0  0  0  0  0  0
   -1.3137    0.6495    2.2964 C   0  0  0  0  0  0  0  0  0  0  0  0
   -1.0141    0.8517    1.4166 H   0  0  0  0  0  0  0  0  0  0  0  0
   -2.1168   -0.4590    2.5178 C   0  0  0  0  0  0  0  0  0  0  0  0
   -2.3719   -1.0143    1.7904 H   0  0  0  0  0  0  0  0  0  0  0  0
   -2.5475   -0.7564    3.7990 C   0  0  0  0  0  0  0  0  0  0  0  0
   -3.1070   -1.5105    3.9451 H   0  0  0  0  0  0  0  0  0  0  0  0
   -2.1712    0.0337    4.8628 C   0  0  0  0  0  0  0  0  0  0  0  0
   -2.4630   -0.1801    5.7417 H   0  0  0  0  0  0  0  0  0  0  0  0
   -1.3692    1.1363    4.6471 C   0  0  0  0  0  0  0  0  0  0  0  0
   -1.1052    1.6766    5.3836 H   0  0  0  0  0  0  0  0  0  0  0  0
    2.1161    3.7831    6.1108 P   0  0  0  0  0  0  0  0  0  0  0  0
    2.1518    5.5748    6.5015 C   0  0  0  0  0  0  0  0  0  0  0  0
    1.9615    5.9791    7.8254 C   0  0  0  0  0  0  0  0  0  0  0  0
    1.7014    5.3413    8.4806 H   0  0  0  0  0  0  0  0  0  0  0  0
    2.1502    7.3037    8.1926 C   0  0  0  0  0  0  0  0  0  0  0  0
    2.0087    7.5756    9.0931 H   0  0  0  0  0  0  0  0  0  0  0  0
    2.5459    8.2297    7.2415 C   0  0  0  0  0  0  0  0  0  0  0  0
    2.6744    9.1372    7.4912 H   0  0  0  0  0  0  0  0  0  0  0  0
    2.7559    7.8405    5.9308 C   0  0  0  0  0  0  0  0  0  0  0  0
    3.0390    8.4749    5.2831 H   0  0  0  0  0  0  0  0  0  0  0  0
    2.5486    6.5124    5.5649 C   0  0  0  0  0  0  0  0  0  0  0  0
    2.6800    6.2475    4.6612 H   0  0  0  0  0  0  0  0  0  0  0  0
    0.6406    3.1592    6.9799 C   0  0  0  0  0  0  0  0  0  0  0  0
   -0.4860    3.9365    7.2066 C   0  0  0  0  0  0  0  0  0  0  0  0
   -0.4868    4.8498    6.9447 H   0  0  0  0  0  0  0  0  0  0  0  0
   -1.6090    3.3939    7.8100 C   0  0  0  0  0  0  0  0  0  0  0  0
   -2.3749    3.9365    7.9561 H   0  0  0  0  0  0  0  0  0  0  0  0
   -1.6233    2.0763    8.2001 C   0  0  0  0  0  0  0  0  0  0  0  0
   -2.3940    1.7126    8.6220 H   0  0  0  0  0  0  0  0  0  0  0  0
   -0.5156    1.2827    7.9765 C   0  0  0  0  0  0  0  0  0  0  0  0
   -0.5252    0.3706    8.2450 H   0  0  0  0  0  0  0  0  0  0  0  0
    0.6060    1.8102    7.3643 C   0  0  0  0  0  0  0  0  0  0  0  0
    1.3596    1.2549    7.2022 H   0  0  0  0  0  0  0  0  0  0  0  0
    3.5007    3.3103    7.2277 C   0  0  0  0  0  0  0  0  0  0  0  0
    4.7664    3.6147    6.7826 C   0  0  0  0  0  0  0  0  0  0  0  0
    4.8876    3.9261    5.8925 H   0  0  0  0  0  0  0  0  0  0  0  0
    5.8727    3.4706    7.6156 C   0  0  0  0  0  0  0  0  0  0  0  0
    6.7392    3.6902    7.2933 H   0  0  0  0  0  0  0  0  0  0  0  0
    5.7154    3.0163    8.8980 C   0  0  0  0  0  0  0  0  0  0  0  0
    6.4697    2.9175    9.4669 H   0  0  0  0  0  0  0  0  0  0  0  0
    4.4627    2.7049    9.3547 C   0  0  0  0  0  0  0  0  0  0  0  0
    4.3517    2.3796   10.2396 H   0  0  0  0  0  0  0  0  0  0  0  0
    3.3461    2.8606    8.5284 C   0  0  0  0  0  0  0  0  0  0  0  0
    2.4792    2.6561    8.8607 H   0  0  0  0  0  0  0  0  0  0  0  0
  1  2  1  0  0  0  0
  3  1  1  0  0  0  0
  4  3  1  0  0  0  0
  5  1  1  0  0  0  0
  6  5  1  0  0  0  0
  7  1  1  0  0  0  0
  8  7  1  0  0  0  0
  9  1  1  0  0  0  0
 10  9  1  0  0  0  0
 11  5  1  0  0  0  0
 12  3  1  0  0  0  0
 13 12  1  0  0  0  0
 14 16  1  0  0  0  0
 15 53  1  0  0  0  0
 16  3  1  0  0  0  0
 17 16  1  0  0  0  0
 18 17  3  0  0  0  0
 19 16  1  0  0  0  0
 20 19  1  0  0  0  0
 21 20  4  0  0  0  0
 22 21  1  0  0  0  0
 23 21  4  0  0  0  0
 24 23  1  0  0  0  0
 25 23  4  0  0  0  0
 26 25  1  0  0  0  0
 27 25  4  0  0  0  0
 28 27  1  0  0  0  0
 29 20  4  0  0  0  0
 30 29  1  0  0  0  0
 31 19  1  0  0  0  0
 32 31  4  0  0  0  0
 33 32  1  0  0  0  0
 34 32  4  0  0  0  0
 35 34  1  0  0  0  0
 36 34  4  0  0  0  0
 37 36  1  0  0  0  0
 38 36  4  0  0  0  0
 39 38  1  0  0  0  0
 40 31  4  0  0  0  0
 41 40  1  0  0  0  0
 42 19  1  0  0  0  0
 43 42  4  0  0  0  0
 44 43  1  0  0  0  0
 45 43  4  0  0  0  0
 46 45  1  0  0  0  0
 47 45  4  0  0  0  0
 48 47  1  0  0  0  0
 49 47  4  0  0  0  0
 50 49  1  0  0  0  0
 51 42  4  0  0  0  0
 52 51  1  0  0  0  0
 53  7  1  0  0  0  0
 54 53  1  0  0  0  0
 55 54  3  0  0  0  0
 56 53  1  0  0  0  0
 57 56  3  0  0  0  0
 58 11  1  0  0  0  0
 59 58  1  0  0  0  0
 60 59  3  0  0  0  0
 61 58  1  0  0  0  0
 62 61  1  0  0  0  0
 63 62  4  0  0  0  0
 64 63  1  0  0  0  0
 65 63  4  0  0  0  0
 66 65  1  0  0  0  0
 67 65  4  0  0  0  0
 68 67  1  0  0  0  0
 69 67  4  0  0  0  0
 70 69  1  0  0  0  0
 71 62  4  0  0  0  0
 72 71  1  0  0  0  0
 73 61  1  0  0  0  0
 74 73  4  0  0  0  0
 75 74  1  0  0  0  0
 76 74  4  0  0  0  0
 77 76  1  0  0  0  0
 78 76  4  0  0  0  0
 79 78  1  0  0  0  0
 80 78  4  0  0  0  0
 81 80  1  0  0  0  0
 82 73  4  0  0  0  0
 83 82  1  0  0  0  0
 84 61  1  0  0  0  0
 85 84  4  0  0  0  0
 86 85  1  0  0  0  0
 87 85  4  0  0  0  0
 88 87  1  0  0  0  0
 89 87  4  0  0  0  0
 90 89  1  0  0  0  0
 91 89  4  0  0  0  0
 92 91  1  0  0  0  0
 93 84  4  0  0  0  0
 94 93  1  0  0  0  0
 95 58  1  0  0  0  0
 96 95  1  0  0  0  0
 97 96  4  0  0  0  0
 98 97  1  0  0  0  0
 99 97  4  0  0  0  0
100 99  1  0  0  0  0
101 99  4  0  0  0  0
102101  1  0  0  0  0
103101  4  0  0  0  0
104103  1  0  0  0  0
105 96  4  0  0  0  0
106105  1  0  0  0  0
107 95  1  0  0  0  0
108107  4  0  0  0  0
109108  1  0  0  0  0
110108  4  0  0  0  0
111110  1  0  0  0  0
112110  4  0  0  0  0
113112  1  0  0  0  0
114112  4  0  0  0  0
115114  1  0  0  0  0
116107  4  0  0  0  0
117116  1  0  0  0  0
118 95  1  0  0  0  0
119118  4  0  0  0  0
120119  1  0  0  0  0
121119  4  0  0  0  0
122121  1  0  0  0  0
123121  4  0  0  0  0
124123  1  0  0  0  0
125123  4  0  0  0  0
126125  1  0  0  0  0
127118  4  0  0  0  0
128127  1  0  0  0  0
  3  5  1  0  0  0  0
  3  9  1  0  0  0  0
  5  7  1  0  0  0  0
  5 16  1  0  0  0  0
  7  9  1  0  0  0  0
  7 11  1  0  0  0  0
  9 12  1  0  0  0  0
  9 53  1  0  0  0  0
 11 16  1  0  0  0  0
 11 53  1  0  0  0  0
 12 16  1  0  0  0  0
 12 53  1  0  0  0  0
 14 58  1  0  0  0  0
 15 58  1  0  0  0  0
 16 53  1  0  0  0  0
 16 58  1  0  0  0  0
 27 29  4  0  0  0  0
 38 40  4  0  0  0  0
 49 51  4  0  0  0  0
 53 58  1  0  0  0  0
 69 71  4  0  0  0  0
 80 82  4  0  0  0  0
 91 93  4  0  0  0  0
103105  4  0  0  0  0
114116  4  0  0  0  0
125127  4  0  0  0  0
M  END
$$$$
HEVJAU

From CSD data. Using bond type 'Any'. No disordered atoms. Largest molecule.
133157  0  0  0  0  0  0  0  0999 V2000
   13.1570    8.8951    0.2981 C   0  0  0  0  0  0  0  0  0  0  0  0
   12.8204    9.5279   -0.2331 H   0  0  0  0  0  0  0  0  0  0  0  0
   12.7541    7.3450    0.2352 B   0  0  0  0  0  0  0  0  0  0  0  0
   11.9996    7.0528   -0.4983 H   0  0  0  0  0  0  0  0  0  0  0  0
   14.5604    8.1471    0.0632 B   0  0  0  0  0  0  0  0  0  0  0  0
   15.1526    8.5602   -0.7635 H   0  0  0  0  0  0  0  0  0  0  0  0
   14.1351    9.1873    1.5305 B   0  0  0  0  0  0  0  0  0  0  0  0
   14.4804   10.2164    1.7630 H   0  0  0  0  0  0  0  0  0  0  0  0
   12.4889    8.4374    1.6774 B   0  0  0  0  0  0  0  0  0  0  0  0
   11.6337    8.9138    2.0166 H   0  0  0  0  0  0  0  0  0  0  0  0
   15.2327    7.7321    1.6753 B   0  0  0  0  0  0  0  0  0  0  0  0
   16.2776    7.9461    1.7776 H   0  0  0  0  0  0  0  0  0  0  0  0
   13.8059    7.9573    2.7678 B   0  0  0  0  0  0  0  0  0  0  0  0
   13.6390    8.6104    3.8874 H   0  0  0  0  0  0  0  0  0  0  0  0
   12.8707    6.6546    1.8889 B   0  0  0  0  0  0  0  0  0  0  0  0
   11.9355    6.0666    2.2147 H   0  0  0  0  0  0  0  0  0  0  0  0
   14.4411    6.0195    0.5152 Fe  0  0  0  0  0  0  0  0  0  0  0  0
   14.0894    5.8563   -1.2038 C   0  0  0  0  0  0  0  0  0  0  0  0
   13.8850    5.7446   -2.3290 O   0  0  0  0  0  0  0  0  0  0  0  0
   13.9248    4.3917    0.9590 C   0  0  0  0  0  0  0  0  0  0  0  0
   13.5523    3.3189    1.1957 O   0  0  0  0  0  0  0  0  0  0  0  0
   16.2227    5.6497    0.1792 C   0  0  0  0  0  0  0  0  0  0  0  0
   17.3426    5.4785   -0.0393 N   0  0  0  0  0  0  0  0  0  0  0  0
   18.7219    5.2366   -0.1055 C   0  0  0  0  0  0  0  0  0  0  0  0
   19.5702    6.3029   -0.2693 C   0  0  0  0  0  0  0  0  0  0  0  0
   19.0420    7.6967   -0.4039 C   0  0  0  0  0  0  0  0  0  0  0  0
   19.7897    8.3201   -0.5071 H   0  0  0  0  0  0  0  0  0  0  0  0
   18.5298    7.9293    0.3992 H   0  0  0  0  0  0  0  0  0  0  0  0
   18.4589    7.7507   -1.1919 H   0  0  0  0  0  0  0  0  0  0  0  0
   20.9626    6.0238   -0.3121 C   0  0  0  0  0  0  0  0  0  0  0  0
   21.5914    6.7272   -0.4167 H   0  0  0  0  0  0  0  0  0  0  0  0
   21.3856    4.7230   -0.1979 C   0  0  0  0  0  0  0  0  0  0  0  0
   22.3185    4.5425   -0.2156 H   0  0  0  0  0  0  0  0  0  0  0  0
   20.5213    3.6772   -0.0603 C   0  0  0  0  0  0  0  0  0  0  0  0
   20.8597    2.7895   -0.0146 H   0  0  0  0  0  0  0  0  0  0  0  0
   19.1609    3.8893    0.0128 C   0  0  0  0  0  0  0  0  0  0  0  0
   18.1845    2.7728    0.1877 C   0  0  0  0  0  0  0  0  0  0  0  0
   17.2745    3.1356    0.2098 H   0  0  0  0  0  0  0  0  0  0  0  0
   18.3697    2.3057    1.0287 H   0  0  0  0  0  0  0  0  0  0  0  0
   18.2691    2.1456   -0.5595 H   0  0  0  0  0  0  0  0  0  0  0  0
   14.6615    6.1663    3.0858 Fe  0  0  0  0  0  0  0  0  0  0  0  0
   13.7732    4.8160    3.8350 C   0  0  0  0  0  0  0  0  0  0  0  0
   13.1972    3.9194    4.2686 O   0  0  0  0  0  0  0  0  0  0  0  0
   16.1820    5.2552    2.9159 C   0  0  0  0  0  0  0  0  0  0  0  0
   17.1780    4.6858    2.8599 O   0  0  0  0  0  0  0  0  0  0  0  0
   15.7297    7.1347    4.8097 P   0  0  0  0  0  0  0  0  0  0  0  0
   16.6487    6.0870    5.9780 C   0  0  0  0  0  0  0  0  0  0  0  0
   17.6575    6.6155    6.7817 C   0  0  0  0  0  0  0  0  0  0  0  0
   17.9170    7.5237    6.6704 H   0  0  0  0  0  0  0  0  0  0  0  0
   18.2874    5.8358    7.7410 C   0  0  0  0  0  0  0  0  0  0  0  0
   18.9757    6.2099    8.2790 H   0  0  0  0  0  0  0  0  0  0  0  0
   17.9147    4.5164    7.9121 C   0  0  0  0  0  0  0  0  0  0  0  0
   18.3309    3.9861    8.5791 H   0  0  0  0  0  0  0  0  0  0  0  0
   16.9338    3.9768    7.1098 C   0  0  0  0  0  0  0  0  0  0  0  0
   16.6937    3.0631    7.2153 H   0  0  0  0  0  0  0  0  0  0  0  0
   16.2954    4.7490    6.1514 C   0  0  0  0  0  0  0  0  0  0  0  0
   15.6145    4.3638    5.6126 H   0  0  0  0  0  0  0  0  0  0  0  0
   16.9722    8.3667    4.2800 C   0  0  0  0  0  0  0  0  0  0  0  0
   18.2287    7.9554    3.8283 C   0  0  0  0  0  0  0  0  0  0  0  0
   18.4886    7.0454    3.9136 H   0  0  0  0  0  0  0  0  0  0  0  0
   19.0877    8.8617    3.2618 C   0  0  0  0  0  0  0  0  0  0  0  0
   19.9314    8.5658    2.9374 H   0  0  0  0  0  0  0  0  0  0  0  0
   18.7447   10.2034    3.1542 C   0  0  0  0  0  0  0  0  0  0  0  0
   19.3484   10.8231    2.7597 H   0  0  0  0  0  0  0  0  0  0  0  0
   17.5123   10.6277    3.6310 C   0  0  0  0  0  0  0  0  0  0  0  0
   17.2745   11.5469    3.5873 H   0  0  0  0  0  0  0  0  0  0  0  0
   16.6279    9.7046    4.1736 C   0  0  0  0  0  0  0  0  0  0  0  0
   15.7746    9.9949    4.4761 H   0  0  0  0  0  0  0  0  0  0  0  0
   13.5191    7.6488    5.0827 Ir  0  0  0  0  0  0  0  0  0  0  0  0
   13.3202    6.4257    6.7913 C   0  0  0  0  0  0  0  0  0  0  0  0
   14.1854    6.5076    7.8900 C   0  0  0  0  0  0  0  0  0  0  0  0
   14.9377    7.0845    7.8331 H   0  0  0  0  0  0  0  0  0  0  0  0
   13.9865    5.7818    9.0582 C   0  0  0  0  0  0  0  0  0  0  0  0
   14.6176    5.8395    9.7652 H   0  0  0  0  0  0  0  0  0  0  0  0
   12.8730    4.9779    9.1923 C   0  0  0  0  0  0  0  0  0  0  0  0
   12.7129    4.5090   10.0012 H   0  0  0  0  0  0  0  0  0  0  0  0
   12.0041    4.8663    8.1391 C   0  0  0  0  0  0  0  0  0  0  0  0
   11.2359    4.3136    8.2207 H   0  0  0  0  0  0  0  0  0  0  0  0
   12.2328    5.5455    6.9598 C   0  0  0  0  0  0  0  0  0  0  0  0
   11.6337    5.4152    6.2333 H   0  0  0  0  0  0  0  0  0  0  0  0
   11.5944    7.4027    4.6911 C   0  0  0  0  0  0  0  0  0  0  0  0
   10.4911    7.2241    4.3986 N   0  0  0  0  0  0  0  0  0  0  0  0
    9.1904    6.9096    3.9684 C   0  0  0  0  0  0  0  0  0  0  0  0
    8.2908    7.9666    3.7548 C   0  0  0  0  0  0  0  0  0  0  0  0
    8.7116    9.3808    3.9463 C   0  0  0  0  0  0  0  0  0  0  0  0
    9.6605    9.4088    4.1934 H   0  0  0  0  0  0  0  0  0  0  0  0
    8.1765    9.7884    4.6597 H   0  0  0  0  0  0  0  0  0  0  0  0
    8.5767    9.8777    3.1123 H   0  0  0  0  0  0  0  0  0  0  0  0
    7.0058    7.6148    3.3877 C   0  0  0  0  0  0  0  0  0  0  0  0
    6.3633    8.2997    3.2434 H   0  0  0  0  0  0  0  0  0  0  0  0
    6.6309    6.2973    3.2233 C   0  0  0  0  0  0  0  0  0  0  0  0
    5.7345    6.0870    2.9840 H   0  0  0  0  0  0  0  0  0  0  0  0
    7.5455    5.2813    3.4019 C   0  0  0  0  0  0  0  0  0  0  0  0
    7.2825    4.3787    3.2638 H   0  0  0  0  0  0  0  0  0  0  0  0
    8.8533    5.5678    3.7831 C   0  0  0  0  0  0  0  0  0  0  0  0
    9.8342    4.4494    4.0098 C   0  0  0  0  0  0  0  0  0  0  0  0
   10.7008    4.8216    4.2721 H   0  0  0  0  0  0  0  0  0  0  0  0
    9.9371    3.9321    3.1822 H   0  0  0  0  0  0  0  0  0  0  0  0
    9.5027    3.8632    4.7209 H   0  0  0  0  0  0  0  0  0  0  0  0
   13.1300    9.4864    6.4110 P   0  0  0  0  0  0  0  0  0  0  0  0
   13.2951   11.0240    5.4237 C   0  0  0  0  0  0  0  0  0  0  0  0
   12.5270   11.1710    4.2645 C   0  0  0  0  0  0  0  0  0  0  0  0
   11.8967   10.4974    4.0390 H   0  0  0  0  0  0  0  0  0  0  0  0
   12.6626   12.2597    3.4459 C   0  0  0  0  0  0  0  0  0  0  0  0
   12.1207   12.3397    2.6693 H   0  0  0  0  0  0  0  0  0  0  0  0
   13.5887   13.2478    3.7505 C   0  0  0  0  0  0  0  0  0  0  0  0
   13.6961   13.9978    3.1764 H   0  0  0  0  0  0  0  0  0  0  0  0
   14.3524   13.1306    4.8954 C   0  0  0  0  0  0  0  0  0  0  0  0
   14.9857   13.8042    5.1113 H   0  0  0  0  0  0  0  0  0  0  0  0
   14.1994   12.0308    5.7358 C   0  0  0  0  0  0  0  0  0  0  0  0
   14.7182   11.9694    6.5305 H   0  0  0  0  0  0  0  0  0  0  0  0
   11.4421    9.6116    7.1139 C   0  0  0  0  0  0  0  0  0  0  0  0
   10.8632    8.5416    7.7620 C   0  0  0  0  0  0  0  0  0  0  0  0
   11.3548    7.7339    7.8564 H   0  0  0  0  0  0  0  0  0  0  0  0
    9.5759    8.6160    8.2816 C   0  0  0  0  0  0  0  0  0  0  0  0
    9.1940    7.8661    8.7190 H   0  0  0  0  0  0  0  0  0  0  0  0
    8.8602    9.7884    8.1566 C   0  0  0  0  0  0  0  0  0  0  0  0
    7.9776    9.8424    8.5034 H   0  0  0  0  0  0  0  0  0  0  0  0
    9.4067   10.8621    7.5420 C   0  0  0  0  0  0  0  0  0  0  0  0
    8.9128   11.6698    7.4659 H   0  0  0  0  0  0  0  0  0  0  0  0
   10.6985   10.7784    7.0183 C   0  0  0  0  0  0  0  0  0  0  0  0
   11.0758   11.5358    6.5888 H   0  0  0  0  0  0  0  0  0  0  0  0
   14.2243    9.7809    7.8500 C   0  0  0  0  0  0  0  0  0  0  0  0
   13.7396   10.1289    9.0999 C   0  0  0  0  0  0  0  0  0  0  0  0
   12.8044   10.2145    9.2319 H   0  0  0  0  0  0  0  0  0  0  0  0
   14.6084   10.3560   10.1641 C   0  0  0  0  0  0  0  0  0  0  0  0
   14.2609   10.5700   11.0212 H   0  0  0  0  0  0  0  0  0  0  0  0
   15.9689   10.2722    9.9744 C   0  0  0  0  0  0  0  0  0  0  0  0
   16.5611   10.4527   10.6948 H   0  0  0  0  0  0  0  0  0  0  0  0
   16.4674    9.9261    8.7412 C   0  0  0  0  0  0  0  0  0  0  0  0
   17.4048    9.8647    8.6112 H   0  0  0  0  0  0  0  0  0  0  0  0
   15.6145    9.6693    7.6918 C   0  0  0  0  0  0  0  0  0  0  0  0
   15.9712    9.4125    6.8511 H   0  0  0  0  0  0  0  0  0  0  0  0
  1  2  1  0  0  0  0
  3  1  1  0  0  0  0
  4  3  1  0  0  0  0
  5  1  1  0  0  0  0
  6  5  1  0  0  0  0
  7  1  1  0  0  0  0
  8  7  1  0  0  0  0
  9  1  1  0  0  0  0
 10  9  1  0  0  0  0
 11  5  1  0  0  0  0
 12 11  1  0  0  0  0
 13  7  1  0  0  0  0
 14 13  1  0  0  0  0
 15  3  1  0  0  0  0
 16 15  1  0  0  0  0
 17  3  1  0  0  0  0
 18 17  1  0  0  0  0
 19 18  3  0  0  0  0
 20 17  1  0  0  0  0
 21 20  3  0  0  0  0
 22 17  1  0  0  0  0
 23 22  3  0  0  0  0
 24 23  1  0  0  0  0
 25 24  4  0  0  0  0
 26 25  1  0  0  0  0
 27 26  1  0  0  0  0
 28 26  1  0  0  0  0
 29 26  1  0  0  0  0
 30 25  4  0  0  0  0
 31 30  1  0  0  0  0
 32 30  4  0  0  0  0
 33 32  1  0  0  0  0
 34 32  4  0  0  0  0
 35 34  1  0  0  0  0
 36 24  4  0  0  0  0
 37 36  1  0  0  0  0
 38 37  1  0  0  0  0
 39 37  1  0  0  0  0
 40 37  1  0  0  0  0
 41 11  1  0  0  0  0
 42 41  1  0  0  0  0
 43 42  3  0  0  0  0
 44 41  1  0  0  0  0
 45 44  3  0  0  0  0
 46 41  1  0  0  0  0
 47 46  1  0  0  0  0
 48 47  4  0  0  0  0
 49 48  1  0  0  0  0
 50 48  4  0  0  0  0
 51 50  1  0  0  0  0
 52 50  4  0  0  0  0
 53 52  1  0  0  0  0
 54 52  4  0  0  0  0
 55 54  1  0  0  0  0
 56 47  4  0  0  0  0
 57 56  1  0  0  0  0
 58 46  1  0  0  0  0
 59 58  4  0  0  0  0
 60 59  1  0  0  0  0
 61 59  4  0  0  0  0
 62 61  1  0  0  0  0
 63 61  4  0  0  0  0
 64 63  1  0  0  0  0
 65 63  4  0  0  0  0
 66 65  1  0  0  0  0
 67 58  4  0  0  0  0
 68 67  1  0  0  0  0
 69 14  1  0  0  0  0
 70 69  1  0  0  0  0
 71 70  4  0  0  0  0
 72 71  1  0  0  0  0
 73 71  4  0  0  0  0
 74 73  1  0  0  0  0
 75 73  4  0  0  0  0
 76 75  1  0  0  0  0
 77 75  4  0  0  0  0
 78 77  1  0  0  0  0
 79 70  4  0  0  0  0
 80 79  1  0  0  0  0
 81 69  1  0  0  0  0
 82 81  3  0  0  0  0
 83 82  1  0  0  0  0
 84 83  4  0  0  0  0
 85 84  1  0  0  0  0
 86 85  1  0  0  0  0
 87 85  1  0  0  0  0
 88 85  1  0  0  0  0
 89 84  4  0  0  0  0
 90 89  1  0  0  0  0
 91 89  4  0  0  0  0
 92 91  1  0  0  0  0
 93 91  4  0  0  0  0
 94 93  1  0  0  0  0
 95 83  4  0  0  0  0
 96 95  1  0  0  0  0
 97 96  1  0  0  0  0
 98 96  1  0  0  0  0
 99 96  1  0  0  0  0
100 69  1  0  0  0  0
101100  1  0  0  0  0
102101  4  0  0  0  0
103102  1  0  0  0  0
104102  4  0  0  0  0
105104  1  0  0  0  0
106104  4  0  0  0  0
107106  1  0  0  0  0
108106  4  0  0  0  0
109108  1  0  0  0  0
110101  4  0  0  0  0
111110  1  0  0  0  0
112100  1  0  0  0  0
113112  4  0  0  0  0
114113  1  0  0  0  0
115113  4  0  0  0  0
116115  1  0  0  0  0
117115  4  0  0  0  0
118117  1  0  0  0  0
119117  4  0  0  0  0
120119  1  0  0  0  0
121112  4  0  0  0  0
122121  1  0  0  0  0
123100  1  0  0  0  0
124123  4  0  0  0  0
125124  1  0  0  0  0
126124  4  0  0  0  0
127126  1  0  0  0  0
128126  4  0  0  0  0
129128  1  0  0  0  0
130128  4  0  0  0  0
131130  1  0  0  0  0
132123  4  0  0  0  0
133132  1  0  0  0  0
  3  5  1  0  0  0  0
  3  9  1  0  0  0  0
  5  7  1  0  0  0  0
  5 17  1  0  0  0  0
  7  9  1  0  0  0  0
  7 11  1  0  0  0  0
  9 13  1  0  0  0  0
  9 15  1  0  0  0  0
 11 13  1  0  0  0  0
 11 17  1  0  0  0  0
 13 15  1  0  0  0  0
 13 41  1  0  0  0  0
 15 17  1  0  0  0  0
 15 41  1  0  0  0  0
 17 41  1  0  0  0  0
 34 36  4  0  0  0  0
 41 69  1  0  0  0  0
 46 69  1  0  0  0  0
 54 56  4  0  0  0  0
 65 67  4  0  0  0  0
 77 79  4  0  0  0  0
 93 95  4  0  0  0  0
108110  4  0  0  0  0
119121  4  0  0  0  0
130132  4  0  0  0  0
M  END
$$$$
HEVQIL

From CSD data. Using bond type 'Any'. No disordered atoms. Largest molecule.
238249  0  0  0  0  0  0  0  0999 V2000
    7.0195   10.1739   18.2332 P   0  0  0  0  0  0  0  0  0  0  0  0
    4.6841   13.7613   11.5094 P   0  0  0  0  0  0  0  0  0  0  0  0
    5.0812   11.6889   16.3681 Si  0  0  0  0  0  0  0  0  0  0  0  0
    4.8399   13.2848   14.5021 Si  0  0  0  0  0  0  0  0  0  0  0  0
    9.1686    9.0295   19.1110 Si  0  0  0  0  0  0  0  0  0  0  0  0
    6.9156   14.7859   13.0224 Si  0  0  0  0  0  0  0  0  0  0  0  0
    4.0692   13.0069   15.9897 O   0  0  0  0  0  0  0  0  0  0  0  0
    5.7569   11.9180   14.8120 O   0  0  0  0  0  0  0  0  0  0  0  0
    4.1962   10.1217   16.3571 N   0  0  0  0  0  0  0  0  0  0  0  0
    8.5411    9.5675   17.5983 N   0  0  0  0  0  0  0  0  0  0  0  0
    7.7300    9.7791   19.7423 N   0  0  0  0  0  0  0  0  0  0  0  0
    7.7490   13.7388   18.9023 N   0  0  0  0  0  0  0  0  0  0  0  0
    5.6521   13.8087   19.4584 N   0  0  0  0  0  0  0  0  0  0  0  0
    2.3785   15.9358   10.5761 N   0  0  0  0  0  0  0  0  0  0  0  0
    6.3192   13.5484   11.9256 N   0  0  0  0  0  0  0  0  0  0  0  0
    5.8732   14.7305   14.4321 N   0  0  0  0  0  0  0  0  0  0  0  0
    1.3351   12.3716   12.0404 N   0  0  0  0  0  0  0  0  0  0  0  0
    1.1930   13.7942   13.6700 N   0  0  0  0  0  0  0  0  0  0  0  0
    5.7887    8.9562   17.8772 C   0  0  0  0  0  0  0  0  0  0  0  0
    4.6747    9.0490   17.1169 C   0  0  0  0  0  0  0  0  0  0  0  0
    3.9680    7.6836   17.2373 C   0  0  0  0  0  0  0  0  0  0  0  0
    3.0027    7.6670   16.9765 H   0  0  0  0  0  0  0  0  0  0  0  0
    4.8727    6.6084   16.5652 C   0  0  0  0  0  0  0  0  0  0  0  0
    4.4019    5.7394   16.5032 H   0  0  0  0  0  0  0  0  0  0  0  0
    5.1445    6.8925   15.6570 H   0  0  0  0  0  0  0  0  0  0  0  0
    6.0870    6.5090   17.4965 C   0  0  0  0  0  0  0  0  0  0  0  0
    6.1566    5.6092   17.9031 H   0  0  0  0  0  0  0  0  0  0  0  0
    6.9274    6.7149   17.0150 H   0  0  0  0  0  0  0  0  0  0  0  0
    5.7749    7.5726   18.5490 C   0  0  0  0  0  0  0  0  0  0  0  0
    6.3122    7.5056   19.3895 H   0  0  0  0  0  0  0  0  0  0  0  0
    4.2738    7.3673   18.7267 C   0  0  0  0  0  0  0  0  0  0  0  0
    3.8644    8.0157   19.3531 H   0  0  0  0  0  0  0  0  0  0  0  0
    4.0361    6.4411   18.9835 H   0  0  0  0  0  0  0  0  0  0  0  0
   10.7983    9.7199   19.7042 C   0  0  0  0  0  0  0  0  0  0  0  0
   11.5158    9.4212   19.1081 H   0  0  0  0  0  0  0  0  0  0  0  0
   10.9752    9.4021   20.6142 H   0  0  0  0  0  0  0  0  0  0  0  0
   10.7576   10.6992   19.7024 H   0  0  0  0  0  0  0  0  0  0  0  0
    9.3322    7.1679   19.3256 C   0  0  0  0  0  0  0  0  0  0  0  0
    8.4878    6.7353   19.0817 H   0  0  0  0  0  0  0  0  0  0  0  0
    9.5459    6.9644   20.2602 H   0  0  0  0  0  0  0  0  0  0  0  0
   10.0496    6.8341   18.7468 H   0  0  0  0  0  0  0  0  0  0  0  0
    8.9939    9.4992   16.1986 C   0  0  0  0  0  0  0  0  0  0  0  0
    9.5256   10.8623   15.7438 C   0  0  0  0  0  0  0  0  0  0  0  0
    9.8898   10.7849   14.8375 H   0  0  0  0  0  0  0  0  0  0  0  0
   10.2313   11.1585   16.3557 H   0  0  0  0  0  0  0  0  0  0  0  0
    8.7947   11.5154   15.7475 H   0  0  0  0  0  0  0  0  0  0  0  0
    7.8700    9.0946   15.2541 C   0  0  0  0  0  0  0  0  0  0  0  0
    8.2098    9.0626   14.3357 H   0  0  0  0  0  0  0  0  0  0  0  0
    7.1434    9.7504   15.3108 H   0  0  0  0  0  0  0  0  0  0  0  0
    7.5315    8.2104   15.5083 H   0  0  0  0  0  0  0  0  0  0  0  0
   10.1301    8.4766   16.1243 C   0  0  0  0  0  0  0  0  0  0  0  0
   10.4831    8.4476   15.2106 H   0  0  0  0  0  0  0  0  0  0  0  0
    9.7905    7.5926   16.3728 H   0  0  0  0  0  0  0  0  0  0  0  0
   10.8449    8.7385   16.7422 H   0  0  0  0  0  0  0  0  0  0  0  0
    7.2324    9.9897   21.1175 C   0  0  0  0  0  0  0  0  0  0  0  0
    7.8414    8.9009   21.9852 C   0  0  0  0  0  0  0  0  0  0  0  0
    7.5076    8.0258   21.6932 H   0  0  0  0  0  0  0  0  0  0  0  0
    7.5902    9.0492   22.9207 H   0  0  0  0  0  0  0  0  0  0  0  0
    8.8168    8.9224   21.9007 H   0  0  0  0  0  0  0  0  0  0  0  0
    7.6668   11.3624   21.6378 C   0  0  0  0  0  0  0  0  0  0  0  0
    8.6453   11.4065   21.6648 H   0  0  0  0  0  0  0  0  0  0  0  0
    7.3085   11.4983   22.5397 H   0  0  0  0  0  0  0  0  0  0  0  0
    7.3244   12.0609   21.0417 H   0  0  0  0  0  0  0  0  0  0  0  0
    5.7089    9.8908   21.1797 C   0  0  0  0  0  0  0  0  0  0  0  0
    5.3140   10.5164   20.5368 H   0  0  0  0  0  0  0  0  0  0  0  0
    5.4032   10.1153   22.0835 H   0  0  0  0  0  0  0  0  0  0  0  0
    5.4312    8.9771   20.9588 H   0  0  0  0  0  0  0  0  0  0  0  0
    2.9219    9.8953   15.6986 C   0  0  0  0  0  0  0  0  0  0  0  0
    1.7351   10.3620   16.2981 C   0  0  0  0  0  0  0  0  0  0  0  0
    0.5127   10.0126   15.6966 C   0  0  0  0  0  0  0  0  0  0  0  0
   -0.2986   10.3486   16.0604 H   0  0  0  0  0  0  0  0  0  0  0  0
    0.4673    9.1935   14.5930 C   0  0  0  0  0  0  0  0  0  0  0  0
   -0.3704    8.9430   14.2221 H   0  0  0  0  0  0  0  0  0  0  0  0
    1.6420    8.7370   14.0215 C   0  0  0  0  0  0  0  0  0  0  0  0
    1.5991    8.1709   13.2600 H   0  0  0  0  0  0  0  0  0  0  0  0
    2.8867    9.0912   14.5419 C   0  0  0  0  0  0  0  0  0  0  0  0
    1.7266   11.1752   17.5832 C   0  0  0  0  0  0  0  0  0  0  0  0
    2.4003   11.9059   17.4750 H   0  0  0  0  0  0  0  0  0  0  0  0
    2.1393   10.3570   18.8019 C   0  0  0  0  0  0  0  0  0  0  0  0
    1.5744    9.5592   18.8670 H   0  0  0  0  0  0  0  0  0  0  0  0
    2.0339   10.8996   19.6109 H   0  0  0  0  0  0  0  0  0  0  0  0
    3.0774   10.0862   18.7106 H   0  0  0  0  0  0  0  0  0  0  0  0
    0.3717   11.8459   17.8837 C   0  0  0  0  0  0  0  0  0  0  0  0
    0.0984   12.3885   17.1149 H   0  0  0  0  0  0  0  0  0  0  0  0
    0.4592   12.4186   18.6738 H   0  0  0  0  0  0  0  0  0  0  0  0
   -0.3035   11.1559   18.0532 H   0  0  0  0  0  0  0  0  0  0  0  0
    4.1359    8.5850   13.8533 C   0  0  0  0  0  0  0  0  0  0  0  0
    4.8725    8.5791   14.5299 H   0  0  0  0  0  0  0  0  0  0  0  0
    4.0033    7.1502   13.2954 C   0  0  0  0  0  0  0  0  0  0  0  0
    3.3895    7.1521   12.5317 H   0  0  0  0  0  0  0  0  0  0  0  0
    3.6538    6.5589   13.9944 H   0  0  0  0  0  0  0  0  0  0  0  0
    4.8833    6.8294   13.0064 H   0  0  0  0  0  0  0  0  0  0  0  0
    4.5603    9.5107   12.7193 C   0  0  0  0  0  0  0  0  0  0  0  0
    5.4081    9.1968   12.3411 H   0  0  0  0  0  0  0  0  0  0  0  0
    4.6738   10.4204   13.0655 H   0  0  0  0  0  0  0  0  0  0  0  0
    3.8715    9.5100   12.0222 H   0  0  0  0  0  0  0  0  0  0  0  0
    6.5672   13.0765   18.7320 C   0  0  0  0  0  0  0  0  0  0  0  0
    6.2628   14.9186   20.0313 C   0  0  0  0  0  0  0  0  0  0  0  0
    7.5633   14.8785   19.6883 C   0  0  0  0  0  0  0  0  0  0  0  0
    4.2838   13.3222   19.7497 C   0  0  0  0  0  0  0  0  0  0  0  0
    4.2116   12.4084   19.3501 H   0  0  0  0  0  0  0  0  0  0  0  0
    3.2157   14.1713   19.0912 C   0  0  0  0  0  0  0  0  0  0  0  0
    3.3688   14.1965   18.1235 H   0  0  0  0  0  0  0  0  0  0  0  0
    3.2533   15.0816   19.4519 H   0  0  0  0  0  0  0  0  0  0  0  0
    2.3333   13.7846   19.2720 H   0  0  0  0  0  0  0  0  0  0  0  0
    4.0557   13.1639   21.2571 C   0  0  0  0  0  0  0  0  0  0  0  0
    3.2735   12.5937   21.4111 H   0  0  0  0  0  0  0  0  0  0  0  0
    3.9017   14.0446   21.6586 H   0  0  0  0  0  0  0  0  0  0  0  0
    4.8455   12.7522   21.6654 H   0  0  0  0  0  0  0  0  0  0  0  0
    8.9947   13.3050   18.2476 C   0  0  0  0  0  0  0  0  0  0  0  0
    8.8491   12.3604   17.9534 H   0  0  0  0  0  0  0  0  0  0  0  0
    9.2441   14.1148   16.9950 C   0  0  0  0  0  0  0  0  0  0  0  0
   10.0158   13.7462   16.5161 H   0  0  0  0  0  0  0  0  0  0  0  0
    9.4266   15.0466   17.2392 H   0  0  0  0  0  0  0  0  0  0  0  0
    8.4532   14.0774   16.4180 H   0  0  0  0  0  0  0  0  0  0  0  0
   10.1846   13.2912   19.1812 C   0  0  0  0  0  0  0  0  0  0  0  0
   10.9065   12.7618   18.7817 H   0  0  0  0  0  0  0  0  0  0  0  0
    9.9229   12.8914   20.0374 H   0  0  0  0  0  0  0  0  0  0  0  0
   10.4946   14.2079   19.3296 H   0  0  0  0  0  0  0  0  0  0  0  0
    8.6339   15.8663   20.0183 C   0  0  0  0  0  0  0  0  0  0  0  0
    9.0968   16.1336   19.1969 H   0  0  0  0  0  0  0  0  0  0  0  0
    9.2746   15.4604   20.6378 H   0  0  0  0  0  0  0  0  0  0  0  0
    8.2309   16.6569   20.4368 H   0  0  0  0  0  0  0  0  0  0  0  0
    5.5693   15.9598   20.8689 C   0  0  0  0  0  0  0  0  0  0  0  0
    6.0689   16.8019   20.8224 H   0  0  0  0  0  0  0  0  0  0  0  0
    5.5285   15.6557   21.7997 H   0  0  0  0  0  0  0  0  0  0  0  0
    4.6609   16.0995   20.5304 H   0  0  0  0  0  0  0  0  0  0  0  0
    4.4327   14.6691   10.0726 C   0  0  0  0  0  0  0  0  0  0  0  0
    3.3820   15.5979    9.8102 C   0  0  0  0  0  0  0  0  0  0  0  0
    3.6418   16.0792    8.3716 C   0  0  0  0  0  0  0  0  0  0  0  0
    3.2063   16.9449    8.1254 H   0  0  0  0  0  0  0  0  0  0  0  0
    3.3205   14.8839    7.4339 C   0  0  0  0  0  0  0  0  0  0  0  0
    3.3057   15.1698    6.4861 H   0  0  0  0  0  0  0  0  0  0  0  0
    2.4460   14.4788    7.6618 H   0  0  0  0  0  0  0  0  0  0  0  0
    4.4836   13.8867    7.6986 C   0  0  0  0  0  0  0  0  0  0  0  0
    4.1451   13.0122    8.0157 H   0  0  0  0  0  0  0  0  0  0  0  0
    5.0335   13.7493    6.8868 H   0  0  0  0  0  0  0  0  0  0  0  0
    5.2815   14.6180    8.8037 C   0  0  0  0  0  0  0  0  0  0  0  0
    6.2172   14.2902    8.9352 H   0  0  0  0  0  0  0  0  0  0  0  0
    5.1654   16.0808    8.3279 C   0  0  0  0  0  0  0  0  0  0  0  0
    5.5696   16.7261    8.9606 H   0  0  0  0  0  0  0  0  0  0  0  0
    5.5257   16.2201    7.4163 H   0  0  0  0  0  0  0  0  0  0  0  0
    8.7037   14.5118   13.5354 C   0  0  0  0  0  0  0  0  0  0  0  0
    9.2766   14.5249   12.7410 H   0  0  0  0  0  0  0  0  0  0  0  0
    8.7851   13.6448   13.9839 H   0  0  0  0  0  0  0  0  0  0  0  0
    8.9795   15.2247   14.1492 H   0  0  0  0  0  0  0  0  0  0  0  0
    6.9256   16.3623   12.0024 C   0  0  0  0  0  0  0  0  0  0  0  0
    7.5155   16.2468   11.2283 H   0  0  0  0  0  0  0  0  0  0  0  0
    7.2504   17.1054   12.5526 H   0  0  0  0  0  0  0  0  0  0  0  0
    6.0162   16.5575   11.6937 H   0  0  0  0  0  0  0  0  0  0  0  0
    7.1312   12.4344   11.2842 C   0  0  0  0  0  0  0  0  0  0  0  0
    6.2731   11.6149   10.3382 C   0  0  0  0  0  0  0  0  0  0  0  0
    5.8821   12.2036    9.6594 H   0  0  0  0  0  0  0  0  0  0  0  0
    5.5570   11.1770   10.8432 H   0  0  0  0  0  0  0  0  0  0  0  0
    6.8276   10.9352    9.9007 H   0  0  0  0  0  0  0  0  0  0  0  0
    8.2977   13.0327   10.4790 C   0  0  0  0  0  0  0  0  0  0  0  0
    8.8215   12.3093   10.0754 H   0  0  0  0  0  0  0  0  0  0  0  0
    8.8719   13.5572   11.0760 H   0  0  0  0  0  0  0  0  0  0  0  0
    7.9442   13.6131    9.7732 H   0  0  0  0  0  0  0  0  0  0  0  0
    7.7024   11.4953   12.3607 C   0  0  0  0  0  0  0  0  0  0  0  0
    8.1452   10.7348   11.9292 H   0  0  0  0  0  0  0  0  0  0  0  0
    6.9743   11.1695   12.9298 H   0  0  0  0  0  0  0  0  0  0  0  0
    8.3522   11.9833   12.9086 H   0  0  0  0  0  0  0  0  0  0  0  0
    5.6493   15.9986   15.1998 C   0  0  0  0  0  0  0  0  0  0  0  0
    4.9682   15.7477   16.5065 C   0  0  0  0  0  0  0  0  0  0  0  0
    4.8402   16.5980   16.9767 H   0  0  0  0  0  0  0  0  0  0  0  0
    4.0971   15.3287   16.3458 H   0  0  0  0  0  0  0  0  0  0  0  0
    5.5214   15.1519   17.0538 H   0  0  0  0  0  0  0  0  0  0  0  0
    4.7670   16.9420   14.3391 C   0  0  0  0  0  0  0  0  0  0  0  0
    5.2087   17.1097   13.4806 H   0  0  0  0  0  0  0  0  0  0  0  0
    3.8959   16.5208   14.1812 H   0  0  0  0  0  0  0  0  0  0  0  0
    4.6381   17.7907   14.8117 H   0  0  0  0  0  0  0  0  0  0  0  0
    6.9778   16.7306   15.4613 C   0  0  0  0  0  0  0  0  0  0  0  0
    7.4314   16.8992   14.6089 H   0  0  0  0  0  0  0  0  0  0  0  0
    6.7989   17.5830   15.9102 H   0  0  0  0  0  0  0  0  0  0  0  0
    7.5502   16.1752   16.0312 H   0  0  0  0  0  0  0  0  0  0  0  0
    1.5898   17.0686   10.2707 C   0  0  0  0  0  0  0  0  0  0  0  0
    0.1958   16.9012   10.1390 C   0  0  0  0  0  0  0  0  0  0  0  0
   -0.6111   18.0107    9.9079 C   0  0  0  0  0  0  0  0  0  0  0  0
   -1.5485   17.8887    9.8091 H   0  0  0  0  0  0  0  0  0  0  0  0
   -0.0873   19.2806    9.8191 C   0  0  0  0  0  0  0  0  0  0  0  0
   -0.6516   20.0252    9.6457 H   0  0  0  0  0  0  0  0  0  0  0  0
    1.2708   19.4528    9.9861 C   0  0  0  0  0  0  0  0  0  0  0  0
    1.6322   20.3302    9.9362 H   0  0  0  0  0  0  0  0  0  0  0  0
    2.1328   18.3823   10.2261 C   0  0  0  0  0  0  0  0  0  0  0  0
   -0.4045   15.5201   10.1434 C   0  0  0  0  0  0  0  0  0  0  0  0
    0.2273   14.9166   10.6291 H   0  0  0  0  0  0  0  0  0  0  0  0
   -1.7570   15.4375   10.8512 C   0  0  0  0  0  0  0  0  0  0  0  0
   -2.4256   15.9357   10.3357 H   0  0  0  0  0  0  0  0  0  0  0  0
   -1.6798   15.8273   11.7475 H   0  0  0  0  0  0  0  0  0  0  0  0
   -2.0310   14.5007   10.9242 H   0  0  0  0  0  0  0  0  0  0  0  0
   -0.5071   15.0201    8.7066 C   0  0  0  0  0  0  0  0  0  0  0  0
   -1.1120   15.6026    8.2005 H   0  0  0  0  0  0  0  0  0  0  0  0
   -0.8569   14.1048    8.7031 H   0  0  0  0  0  0  0  0  0  0  0  0
    0.3806   15.0327    8.2923 H   0  0  0  0  0  0  0  0  0  0  0  0
    3.5817   18.6759   10.5369 C   0  0  0  0  0  0  0  0  0  0  0  0
    4.0642   17.8008   10.5779 H   0  0  0  0  0  0  0  0  0  0  0  0
    4.2746   19.5351    9.4681 C   0  0  0  0  0  0  0  0  0  0  0  0
    4.1615   19.1186    8.5888 H   0  0  0  0  0  0  0  0  0  0  0  0
    5.2304   19.6071    9.6751 H   0  0  0  0  0  0  0  0  0  0  0  0
    3.8753   20.4307    9.4591 H   0  0  0  0  0  0  0  0  0  0  0  0
    3.7114   19.3402   11.9162 C   0  0  0  0  0  0  0  0  0  0  0  0
    4.6598   19.4362   12.1448 H   0  0  0  0  0  0  0  0  0  0  0  0
    3.2680   18.7835   12.5899 H   0  0  0  0  0  0  0  0  0  0  0  0
    3.2898   20.2244   11.8940 H   0  0  0  0  0  0  0  0  0  0  0  0
    2.0740   13.1927   12.8250 C   0  0  0  0  0  0  0  0  0  0  0  0
   -0.0083   12.4558   12.4114 C   0  0  0  0  0  0  0  0  0  0  0  0
   -0.0962   13.3343   13.4244 C   0  0  0  0  0  0  0  0  0  0  0  0
    1.9033   11.6174   10.8958 C   0  0  0  0  0  0  0  0  0  0  0  0
    2.8948   11.5893   11.0228 H   0  0  0  0  0  0  0  0  0  0  0  0
    1.4185   10.1730   10.8140 C   0  0  0  0  0  0  0  0  0  0  0  0
    0.5161   10.1525   10.4315 H   0  0  0  0  0  0  0  0  0  0  0  0
    1.4008    9.7829   11.7129 H   0  0  0  0  0  0  0  0  0  0  0  0
    2.0260    9.6559   10.2452 H   0  0  0  0  0  0  0  0  0  0  0  0
    1.6379   12.3582    9.5939 C   0  0  0  0  0  0  0  0  0  0  0  0
    2.0955   11.9004    8.8581 H   0  0  0  0  0  0  0  0  0  0  0  0
    1.9725   13.2763    9.6661 H   0  0  0  0  0  0  0  0  0  0  0  0
    0.6735   12.3749    9.4184 H   0  0  0  0  0  0  0  0  0  0  0  0
    1.5705   14.9629   14.4956 C   0  0  0  0  0  0  0  0  0  0  0  0
    2.5687   15.0208   14.4584 H   0  0  0  0  0  0  0  0  0  0  0  0
    1.2080   14.8204   15.9675 C   0  0  0  0  0  0  0  0  0  0  0  0
    0.2340   14.8650   16.0696 H   0  0  0  0  0  0  0  0  0  0  0  0
    1.6234   15.5455   16.4787 H   0  0  0  0  0  0  0  0  0  0  0  0
    1.5316   13.9576   16.3019 H   0  0  0  0  0  0  0  0  0  0  0  0
    1.0445   16.2464   13.8554 C   0  0  0  0  0  0  0  0  0  0  0  0
    1.3069   16.2719   12.9114 H   0  0  0  0  0  0  0  0  0  0  0  0
    1.4222   17.0221   14.3203 H   0  0  0  0  0  0  0  0  0  0  0  0
    0.0673   16.2684   13.9236 H   0  0  0  0  0  0  0  0  0  0  0  0
   -1.1294   11.6802   11.7769 C   0  0  0  0  0  0  0  0  0  0  0  0
   -1.9863   11.9854   12.1425 H   0  0  0  0  0  0  0  0  0  0  0  0
   -1.0151   10.7258   11.9656 H   0  0  0  0  0  0  0  0  0  0  0  0
   -1.1190   11.8251   10.8072 H   0  0  0  0  0  0  0  0  0  0  0  0
   -1.3027   13.7200   14.2284 C   0  0  0  0  0  0  0  0  0  0  0  0
   -1.3858   14.6967   14.2443 H   0  0  0  0  0  0  0  0  0  0  0  0
   -1.2063   13.3858   15.1445 H   0  0  0  0  0  0  0  0  0  0  0  0
   -2.1052   13.3311   13.8216 H   0  0  0  0  0  0  0  0  0  0  0  0
    6.2371   11.7862   17.9218 B   0  0  0  0  0  0  0  0  0  0  0  0
    3.6358   13.3506   12.8899 B   0  0  0  0  0  0  0  0  0  0  0  0
  1 10  1  0  0  0  0
  2 15  1  0  0  0  0
  3  7  1  0  0  0  0
  4  7  1  0  0  0  0
  5 10  1  0  0  0  0
  6 15  1  0  0  0  0
  8  3  1  0  0  0  0
  9  3  1  0  0  0  0
 10 42  1  0  0  0  0
 11  1  1  0  0  0  0
 12 97  1  0  0  0  0
 13 97  1  0  0  0  0
 14129  2  0  0  0  0
 15151  1  0  0  0  0
 16  4  1  0  0  0  0
 17206  1  0  0  0  0
 18206  1  0  0  0  0
 19  1  1  0  0  0  0
 20  9  1  0  0  0  0
 21 20  1  0  0  0  0
 22 21  1  0  0  0  0
 23 21  1  0  0  0  0
 24 23  1  0  0  0  0
 25 23  1  0  0  0  0
 26 23  1  0  0  0  0
 27 26  1  0  0  0  0
 28 26  1  0  0  0  0
 29 19  1  0  0  0  0
 30 29  1  0  0  0  0
 31 21  1  0  0  0  0
 32 31  1  0  0  0  0
 33 31  1  0  0  0  0
 34  5  1  0  0  0  0
 35 34  1  0  0  0  0
 36 34  1  0  0  0  0
 37 34  1  0  0  0  0
 38  5  1  0  0  0  0
 39 38  1  0  0  0  0
 40 38  1  0  0  0  0
 41 38  1  0  0  0  0
 42 43  1  0  0  0  0
 43 44  1  0  0  0  0
 45 43  1  0  0  0  0
 46 43  1  0  0  0  0
 47 42  1  0  0  0  0
 48 47  1  0  0  0  0
 49 47  1  0  0  0  0
 50 47  1  0  0  0  0
 51 42  1  0  0  0  0
 52 51  1  0  0  0  0
 53 51  1  0  0  0  0
 54 51  1  0  0  0  0
 55 11  1  0  0  0  0
 56 55  1  0  0  0  0
 57 56  1  0  0  0  0
 58 56  1  0  0  0  0
 59 56  1  0  0  0  0
 60 55  1  0  0  0  0
 61 60  1  0  0  0  0
 62 60  1  0  0  0  0
 63 60  1  0  0  0  0
 64 55  1  0  0  0  0
 65 64  1  0  0  0  0
 66 64  1  0  0  0  0
 67 64  1  0  0  0  0
 68  9  1  0  0  0  0
 69 68  4  0  0  0  0
 70 69  4  0  0  0  0
 71 70  1  0  0  0  0
 72 70  4  0  0  0  0
 73 72  1  0  0  0  0
 74 72  4  0  0  0  0
 75 74  1  0  0  0  0
 76 68  4  0  0  0  0
 77 69  1  0  0  0  0
 78 77  1  0  0  0  0
 79 77  1  0  0  0  0
 80 79  1  0  0  0  0
 81 79  1  0  0  0  0
 82 79  1  0  0  0  0
 83 77  1  0  0  0  0
 84 83  1  0  0  0  0
 85 83  1  0  0  0  0
 86 83  1  0  0  0  0
 87 76  1  0  0  0  0
 88 87  1  0  0  0  0
 89 87  1  0  0  0  0
 90 89  1  0  0  0  0
 91 89  1  0  0  0  0
 92 89  1  0  0  0  0
 93 87  1  0  0  0  0
 94 93  1  0  0  0  0
 95 93  1  0  0  0  0
 96 93  1  0  0  0  0
 97237  1  0  0  0  0
 98 13  1  0  0  0  0
 99 12  1  0  0  0  0
100 13  1  0  0  0  0
101100  1  0  0  0  0
102100  1  0  0  0  0
103102  1  0  0  0  0
104102  1  0  0  0  0
105102  1  0  0  0  0
106100  1  0  0  0  0
107106  1  0  0  0  0
108106  1  0  0  0  0
109106  1  0  0  0  0
110 12  1  0  0  0  0
111110  1  0  0  0  0
112110  1  0  0  0  0
113112  1  0  0  0  0
114112  1  0  0  0  0
115112  1  0  0  0  0
116110  1  0  0  0  0
117116  1  0  0  0  0
118116  1  0  0  0  0
119116  1  0  0  0  0
120 99  1  0  0  0  0
121120  1  0  0  0  0
122120  1  0  0  0  0
123120  1  0  0  0  0
124 98  1  0  0  0  0
125124  1  0  0  0  0
126124  1  0  0  0  0
127124  1  0  0  0  0
128  2  2  0  0  0  0
129128  1  0  0  0  0
130129  1  0  0  0  0
131130  1  0  0  0  0
132130  1  0  0  0  0
133132  1  0  0  0  0
134132  1  0  0  0  0
135132  1  0  0  0  0
136135  1  0  0  0  0
137135  1  0  0  0  0
138128  1  0  0  0  0
139138  1  0  0  0  0
140130  1  0  0  0  0
141140  1  0  0  0  0
142140  1  0  0  0  0
143  6  1  0  0  0  0
144143  1  0  0  0  0
145143  1  0  0  0  0
146143  1  0  0  0  0
147  6  1  0  0  0  0
148147  1  0  0  0  0
149147  1  0  0  0  0
150147  1  0  0  0  0
151152  1  0  0  0  0
152153  1  0  0  0  0
154152  1  0  0  0  0
155152  1  0  0  0  0
156151  1  0  0  0  0
157156  1  0  0  0  0
158156  1  0  0  0  0
159156  1  0  0  0  0
160151  1  0  0  0  0
161160  1  0  0  0  0
162160  1  0  0  0  0
163160  1  0  0  0  0
164 16  1  0  0  0  0
165164  1  0  0  0  0
166165  1  0  0  0  0
167165  1  0  0  0  0
168165  1  0  0  0  0
169164  1  0  0  0  0
170169  1  0  0  0  0
171169  1  0  0  0  0
172169  1  0  0  0  0
173164  1  0  0  0  0
174173  1  0  0  0  0
175173  1  0  0  0  0
176173  1  0  0  0  0
177 14  1  0  0  0  0
178177  4  0  0  0  0
179178  4  0  0  0  0
180179  1  0  0  0  0
181179  4  0  0  0  0
182181  1  0  0  0  0
183181  4  0  0  0  0
184183  1  0  0  0  0
185177  4  0  0  0  0
186178  1  0  0  0  0
187186  1  0  0  0  0
188186  1  0  0  0  0
189188  1  0  0  0  0
190188  1  0  0  0  0
191188  1  0  0  0  0
192186  1  0  0  0  0
193192  1  0  0  0  0
194192  1  0  0  0  0
195192  1  0  0  0  0
196185  1  0  0  0  0
197196  1  0  0  0  0
198196  1  0  0  0  0
199198  1  0  0  0  0
200198  1  0  0  0  0
201198  1  0  0  0  0
202196  1  0  0  0  0
203202  1  0  0  0  0
204202  1  0  0  0  0
205202  1  0  0  0  0
206238  1  0  0  0  0
207 17  1  0  0  0  0
208 18  1  0  0  0  0
209 17  1  0  0  0  0
210209  1  0  0  0  0
211209  1  0  0  0  0
212211  1  0  0  0  0
213211  1  0  0  0  0
214211  1  0  0  0  0
215209  1  0  0  0  0
216215  1  0  0  0  0
217215  1  0  0  0  0
218215  1  0  0  0  0
219 18  1  0  0  0  0
220219  1  0  0  0  0
221219  1  0  0  0  0
222221  1  0  0  0  0
223221  1  0  0  0  0
224221  1  0  0  0  0
225219  1  0  0  0  0
226225  1  0  0  0  0
227225  1  0  0  0  0
228225  1  0  0  0  0
229207  1  0  0  0  0
230229  1  0  0  0  0
231229  1  0  0  0  0
232229  1  0  0  0  0
233208  1  0  0  0  0
234233  1  0  0  0  0
235233  1  0  0  0  0
236233  1  0  0  0  0
237  1  2  0  0  0  0
238  2  2  0  0  0  0
  3237  1  0  0  0  0
  4  8  1  0  0  0  0
  4238  1  0  0  0  0
  5 11  1  0  0  0  0
  6 16  1  0  0  0  0
 19 20  2  0  0  0  0
 26 29  1  0  0  0  0
 29 31  1  0  0  0  0
 74 76  4  0  0  0  0
 98 99  2  0  0  0  0
135138  1  0  0  0  0
138140  1  0  0  0  0
183185  4  0  0  0  0
207208  2  0  0  0  0
M  END
$$$$
HEYFIC

From CSD data. Using bond type 'Any'. No disordered atoms. Largest molecule.
 96137  0  0  0  0  0  0  0  0999 V2000
    0.3803    0.9335   18.1866 Rh  0  0  0  0  0  0  0  0  0  0  0  0
    2.1364   -0.6299   18.7031 Cl  0  0  0  0  0  0  0  0  0  0  0  0
   -0.9579    1.9748   17.7779 C   0  0  0  0  0  0  0  0  0  0  0  0
   -1.8700    2.6351   17.5289 O   0  0  0  0  0  0  0  0  0  0  0  0
    1.1805    1.0745   16.0050 P   0  0  0  0  0  0  0  0  0  0  0  0
    1.3401   -0.5233   15.1266 C   0  0  0  0  0  0  0  0  0  0  0  0
    0.9587   -1.7085   15.7488 C   0  0  0  0  0  0  0  0  0  0  0  0
    0.6380   -1.6908   16.6421 H   0  0  0  0  0  0  0  0  0  0  0  0
    1.0457   -2.9243   15.0659 C   0  0  0  0  0  0  0  0  0  0  0  0
    0.7954   -3.7306   15.5019 H   0  0  0  0  0  0  0  0  0  0  0  0
    1.4950   -2.9558   13.7562 C   0  0  0  0  0  0  0  0  0  0  0  0
    1.5597   -3.7836   13.2963 H   0  0  0  0  0  0  0  0  0  0  0  0
    1.8515   -1.7747   13.1163 C   0  0  0  0  0  0  0  0  0  0  0  0
    2.1497   -1.7952   12.2140 H   0  0  0  0  0  0  0  0  0  0  0  0
    1.7718   -0.5660   13.7938 C   0  0  0  0  0  0  0  0  0  0  0  0
    2.0115    0.2400   13.3518 H   0  0  0  0  0  0  0  0  0  0  0  0
    0.0758    2.0068   14.8764 C   0  0  0  0  0  0  0  0  0  0  0  0
   -0.0221    3.3999   14.9723 C   0  0  0  0  0  0  0  0  0  0  0  0
    0.5533    3.8724   15.5622 H   0  0  0  0  0  0  0  0  0  0  0  0
   -0.9554    4.0985   14.2113 C   0  0  0  0  0  0  0  0  0  0  0  0
   -1.0061    5.0442   14.2774 H   0  0  0  0  0  0  0  0  0  0  0  0
   -1.8101    3.4205   13.3600 C   0  0  0  0  0  0  0  0  0  0  0  0
   -2.4493    3.8989   12.8456 H   0  0  0  0  0  0  0  0  0  0  0  0
   -1.7314    2.0409   13.2614 C   0  0  0  0  0  0  0  0  0  0  0  0
   -2.3180    1.5739   12.6768 H   0  0  0  0  0  0  0  0  0  0  0  0
   -0.7953    1.3341   14.0156 C   0  0  0  0  0  0  0  0  0  0  0  0
   -0.7503    0.3880   13.9447 H   0  0  0  0  0  0  0  0  0  0  0  0
    2.9355    1.9395   15.9358 B   0  0  0  0  0  0  0  0  0  0  0  0
    3.8290    2.1741   17.4744 B   0  0  0  0  0  0  0  0  0  0  0  0
    3.4240    1.8326   18.4620 H   0  0  0  0  0  0  0  0  0  0  0  0
    3.1755    3.5754   16.6144 B   0  0  0  0  0  0  0  0  0  0  0  0
    2.3254    4.1825   17.0205 H   0  0  0  0  0  0  0  0  0  0  0  0
    3.3780    3.2907   14.8612 B   0  0  0  0  0  0  0  0  0  0  0  0
    2.6580    3.7119   14.1135 H   0  0  0  0  0  0  0  0  0  0  0  0
    4.1585    1.7121   14.6399 B   0  0  0  0  0  0  0  0  0  0  0  0
    3.9546    1.0706   13.7447 H   0  0  0  0  0  0  0  0  0  0  0  0
    4.4237    1.0187   16.2574 B   0  0  0  0  0  0  0  0  0  0  0  0
    4.4023   -0.0857   16.4468 H   0  0  0  0  0  0  0  0  0  0  0  0
    4.7894    3.6444   17.3272 B   0  0  0  0  0  0  0  0  0  0  0  0
    5.0124    4.2884   18.2161 H   0  0  0  0  0  0  0  0  0  0  0  0
    5.1203    3.1972   14.5160 B   0  0  0  0  0  0  0  0  0  0  0  0
    5.5431    3.5576   13.5446 H   0  0  0  0  0  0  0  0  0  0  0  0
    5.7724    1.7900   15.3771 B   0  0  0  0  0  0  0  0  0  0  0  0
    6.6367    1.1921   14.9933 H   0  0  0  0  0  0  0  0  0  0  0  0
    5.9914    3.4181   16.0303 B   0  0  0  0  0  0  0  0  0  0  0  0
    6.9955    3.9129   16.0636 H   0  0  0  0  0  0  0  0  0  0  0  0
    5.4769    2.1341   17.0196 C   0  0  0  0  0  0  0  0  0  0  0  0
    6.1304    1.7796   17.6882 H   0  0  0  0  0  0  0  0  0  0  0  0
    4.5122    4.2002   15.7533 C   0  0  0  0  0  0  0  0  0  0  0  0
    4.5361    5.1891   15.6008 H   0  0  0  0  0  0  0  0  0  0  0  0
   -0.5274    1.0077   20.3413 P   0  0  0  0  0  0  0  0  0  0  0  0
    0.0766   -0.0528   21.7073 C   0  0  0  0  0  0  0  0  0  0  0  0
    1.4508   -0.2666   21.8613 C   0  0  0  0  0  0  0  0  0  0  0  0
    2.0570    0.0779   21.2172 H   0  0  0  0  0  0  0  0  0  0  0  0
    1.9349   -0.9822   22.9569 C   0  0  0  0  0  0  0  0  0  0  0  0
    2.8676   -1.1407   23.0444 H   0  0  0  0  0  0  0  0  0  0  0  0
    1.0630   -1.4606   23.9148 C   0  0  0  0  0  0  0  0  0  0  0  0
    1.3978   -1.9354   24.6666 H   0  0  0  0  0  0  0  0  0  0  0  0
   -0.2943   -1.2490   23.7803 C   0  0  0  0  0  0  0  0  0  0  0  0
   -0.8921   -1.5754   24.4425 H   0  0  0  0  0  0  0  0  0  0  0  0
   -0.7940   -0.5558   22.6736 C   0  0  0  0  0  0  0  0  0  0  0  0
   -1.7301   -0.4270   22.5791 H   0  0  0  0  0  0  0  0  0  0  0  0
   -2.2747    0.4867   20.1964 C   0  0  0  0  0  0  0  0  0  0  0  0
   -2.4881   -0.7198   19.5178 C   0  0  0  0  0  0  0  0  0  0  0  0
   -1.7456   -1.2139   19.1900 H   0  0  0  0  0  0  0  0  0  0  0  0
   -3.7792   -1.2016   19.3209 C   0  0  0  0  0  0  0  0  0  0  0  0
   -3.9135   -2.0227   18.8622 H   0  0  0  0  0  0  0  0  0  0  0  0
   -4.8669   -0.4887   19.7914 C   0  0  0  0  0  0  0  0  0  0  0  0
   -5.7474   -0.8197   19.6576 H   0  0  0  0  0  0  0  0  0  0  0  0
   -4.6689    0.7090   20.4562 C   0  0  0  0  0  0  0  0  0  0  0  0
   -5.4161    1.2014   20.7761 H   0  0  0  0  0  0  0  0  0  0  0  0
   -3.3766    1.1986   20.6604 C   0  0  0  0  0  0  0  0  0  0  0  0
   -3.2498    2.0211   21.1184 H   0  0  0  0  0  0  0  0  0  0  0  0
   -0.3396    2.7837   21.1345 B   0  0  0  0  0  0  0  0  0  0  0  0
    0.2177    2.9918   22.8267 B   0  0  0  0  0  0  0  0  0  0  0  0
    0.3530    2.1255   23.5217 H   0  0  0  0  0  0  0  0  0  0  0  0
    1.3348    3.3190   21.4857 B   0  0  0  0  0  0  0  0  0  0  0  0
    2.2228    2.6694   21.2751 H   0  0  0  0  0  0  0  0  0  0  0  0
    0.4089    4.0919   20.1759 B   0  0  0  0  0  0  0  0  0  0  0  0
    0.6939    3.9550   19.1008 H   0  0  0  0  0  0  0  0  0  0  0  0
   -1.2908    4.2270   20.6891 B   0  0  0  0  0  0  0  0  0  0  0  0
   -2.1386    4.1700   19.9589 H   0  0  0  0  0  0  0  0  0  0  0  0
   -1.4002    3.5579   22.3405 B   0  0  0  0  0  0  0  0  0  0  0  0
   -2.3264    3.0605   22.7262 H   0  0  0  0  0  0  0  0  0  0  0  0
    1.2821    4.4014   22.8870 B   0  0  0  0  0  0  0  0  0  0  0  0
    2.1289    4.4630   23.6181 H   0  0  0  0  0  0  0  0  0  0  0  0
   -0.2038    5.6160   20.7932 B   0  0  0  0  0  0  0  0  0  0  0  0
   -0.3283    6.4966   20.1132 H   0  0  0  0  0  0  0  0  0  0  0  0
   -1.3322    5.3147   22.0999 B   0  0  0  0  0  0  0  0  0  0  0  0
   -2.2142    5.9698   22.3164 H   0  0  0  0  0  0  0  0  0  0  0  0
    0.3292    5.8393   22.4396 B   0  0  0  0  0  0  0  0  0  0  0  0
    0.5498    6.8487   22.8732 H   0  0  0  0  0  0  0  0  0  0  0  0
   -0.3616    4.5410   23.2748 C   0  0  0  0  0  0  0  0  0  0  0  0
   -0.5957    4.6889   24.2352 H   0  0  0  0  0  0  0  0  0  0  0  0
    1.3099    5.0370   21.2970 C   0  0  0  0  0  0  0  0  0  0  0  0
    2.1402    5.4961   20.9810 H   0  0  0  0  0  0  0  0  0  0  0  0
  1  2  1  0  0  0  0
  3  1  1  0  0  0  0
  4  3  3  0  0  0  0
  5  1  1  0  0  0  0
  6  5  1  0  0  0  0
  7  6  4  0  0  0  0
  8  7  1  0  0  0  0
  9  7  4  0  0  0  0
 10  9  1  0  0  0  0
 11  9  4  0  0  0  0
 12 11  1  0  0  0  0
 13 11  4  0  0  0  0
 14 13  1  0  0  0  0
 15  6  4  0  0  0  0
 16 15  1  0  0  0  0
 17  5  1  0  0  0  0
 18 17  4  0  0  0  0
 19 18  1  0  0  0  0
 20 18  4  0  0  0  0
 21 20  1  0  0  0  0
 22 20  4  0  0  0  0
 23 22  1  0  0  0  0
 24 22  4  0  0  0  0
 25 24  1  0  0  0  0
 26 17  4  0  0  0  0
 27 26  1  0  0  0  0
 28  5  1  0  0  0  0
 29 28  1  0  0  0  0
 30 29  1  0  0  0  0
 31 28  1  0  0  0  0
 32 31  1  0  0  0  0
 33 28  1  0  0  0  0
 34 33  1  0  0  0  0
 35 28  1  0  0  0  0
 36 35  1  0  0  0  0
 37 28  1  0  0  0  0
 38 37  1  0  0  0  0
 39 29  1  0  0  0  0
 40 39  1  0  0  0  0
 41 33  1  0  0  0  0
 42 41  1  0  0  0  0
 43 35  1  0  0  0  0
 44 43  1  0  0  0  0
 45 39  1  0  0  0  0
 46 45  1  0  0  0  0
 47 29  1  0  0  0  0
 48 47  1  0  0  0  0
 49 31  1  0  0  0  0
 50 49  1  0  0  0  0
 51  1  1  0  0  0  0
 52 51  1  0  0  0  0
 53 52  4  0  0  0  0
 54 53  1  0  0  0  0
 55 53  4  0  0  0  0
 56 55  1  0  0  0  0
 57 55  4  0  0  0  0
 58 57  1  0  0  0  0
 59 57  4  0  0  0  0
 60 59  1  0  0  0  0
 61 52  4  0  0  0  0
 62 61  1  0  0  0  0
 63 51  1  0  0  0  0
 64 63  4  0  0  0  0
 65 64  1  0  0  0  0
 66 64  4  0  0  0  0
 67 66  1  0  0  0  0
 68 66  4  0  0  0  0
 69 68  1  0  0  0  0
 70 68  4  0  0  0  0
 71 70  1  0  0  0  0
 72 63  4  0  0  0  0
 73 72  1  0  0  0  0
 74 51  1  0  0  0  0
 75 74  1  0  0  0  0
 76 75  1  0  0  0  0
 77 74  1  0  0  0  0
 78 77  1  0  0  0  0
 79 74  1  0  0  0  0
 80 79  1  0  0  0  0
 81 74  1  0  0  0  0
 82 81  1  0  0  0  0
 83 74  1  0  0  0  0
 84 83  1  0  0  0  0
 85 75  1  0  0  0  0
 86 85  1  0  0  0  0
 87 79  1  0  0  0  0
 88 87  1  0  0  0  0
 89 81  1  0  0  0  0
 90 89  1  0  0  0  0
 91 85  1  0  0  0  0
 92 91  1  0  0  0  0
 93 75  1  0  0  0  0
 94 93  1  0  0  0  0
 95 77  1  0  0  0  0
 96 95  1  0  0  0  0
 13 15  4  0  0  0  0
 24 26  4  0  0  0  0
 29 31  1  0  0  0  0
 29 37  1  0  0  0  0
 31 33  1  0  0  0  0
 31 39  1  0  0  0  0
 33 35  1  0  0  0  0
 33 49  1  0  0  0  0
 35 37  1  0  0  0  0
 35 41  1  0  0  0  0
 37 43  1  0  0  0  0
 37 47  1  0  0  0  0
 39 47  1  0  0  0  0
 39 49  1  0  0  0  0
 41 43  1  0  0  0  0
 41 45  1  0  0  0  0
 41 49  1  0  0  0  0
 43 45  1  0  0  0  0
 43 47  1  0  0  0  0
 45 47  1  0  0  0  0
 45 49  1  0  0  0  0
 59 61  4  0  0  0  0
 70 72  4  0  0  0  0
 75 77  1  0  0  0  0
 75 83  1  0  0  0  0
 77 79  1  0  0  0  0
 77 85  1  0  0  0  0
 79 81  1  0  0  0  0
 79 95  1  0  0  0  0
 81 83  1  0  0  0  0
 81 87  1  0  0  0  0
 83 89  1  0  0  0  0
 83 93  1  0  0  0  0
 85 93  1  0  0  0  0
 85 95  1  0  0  0  0
 87 89  1  0  0  0  0
 87 91  1  0  0  0  0
 87 95  1  0  0  0  0
 89 91  1  0  0  0  0
 89 93  1  0  0  0  0
 91 93  1  0  0  0  0
 91 95  1  0  0  0  0
M  END
$$$$
HEYFOI

From CSD data. Using bond type 'Any'. Matching problem. No disordered atoms. Largest molecule.
121162  0  0  0  0  0  0  0  0999 V2000
    3.4357    0.7572   11.3112 C   0  0  0  0  0  0  0  0  0  0  0  0
    2.6510    0.4441   10.5240 O   0  0  0  0  0  0  0  0  0  0  0  0
    4.6146    1.2079   12.4751 Rh  0  0  0  0  0  0  0  0  0  0  0  0
    5.7813    2.4223   10.8264 P   0  0  0  0  0  0  0  0  0  0  0  0
    6.8639    3.7720   11.4967 C   0  0  0  0  0  0  0  0  0  0  0  0
    7.5479    3.2974   12.0510 H   0  0  0  0  0  0  0  0  0  0  0  0
    6.1675    4.7320   12.4746 C   0  0  0  0  0  0  0  0  0  0  0  0
    5.5687    5.3420   11.9749 H   0  0  0  0  0  0  0  0  0  0  0  0
    5.6177    4.2154   13.1151 H   0  0  0  0  0  0  0  0  0  0  0  0
    7.2166    5.5478   13.2344 C   0  0  0  0  0  0  0  0  0  0  0  0
    6.7601    6.1817   13.8424 H   0  0  0  0  0  0  0  0  0  0  0  0
    7.7678    4.9382   13.7863 H   0  0  0  0  0  0  0  0  0  0  0  0
    8.1253    6.3270   12.2831 C   0  0  0  0  0  0  0  0  0  0  0  0
    8.8441    6.7668   12.8032 H   0  0  0  0  0  0  0  0  0  0  0  0
    7.5984    7.0335   11.8327 H   0  0  0  0  0  0  0  0  0  0  0  0
    8.7518    5.4093   11.2271 C   0  0  0  0  0  0  0  0  0  0  0  0
    9.2567    5.9568   10.5752 H   0  0  0  0  0  0  0  0  0  0  0  0
    9.3892    4.7910   11.6655 H   0  0  0  0  0  0  0  0  0  0  0  0
    7.6833    4.5964   10.4887 C   0  0  0  0  0  0  0  0  0  0  0  0
    8.1171    3.9905    9.8366 H   0  0  0  0  0  0  0  0  0  0  0  0
    7.0836    5.2070    9.9913 H   0  0  0  0  0  0  0  0  0  0  0  0
    4.6258    3.0441    9.5155 C   0  0  0  0  0  0  0  0  0  0  0  0
    4.1549    2.2316    9.1717 H   0  0  0  0  0  0  0  0  0  0  0  0
    3.5194    3.9250   10.1269 C   0  0  0  0  0  0  0  0  0  0  0  0
    3.1268    3.4670   10.9120 H   0  0  0  0  0  0  0  0  0  0  0  0
    3.9102    4.7816   10.4342 H   0  0  0  0  0  0  0  0  0  0  0  0
    2.4229    4.2029    9.0942 C   0  0  0  0  0  0  0  0  0  0  0  0
    1.9692    3.3547    8.8623 H   0  0  0  0  0  0  0  0  0  0  0  0
    1.7485    4.8116    9.4886 H   0  0  0  0  0  0  0  0  0  0  0  0
    2.9920    4.8336    7.8274 C   0  0  0  0  0  0  0  0  0  0  0  0
    2.2702    4.9336    7.1570 H   0  0  0  0  0  0  0  0  0  0  0  0
    3.3418    5.7359    8.0377 H   0  0  0  0  0  0  0  0  0  0  0  0
    4.1120    3.9800    7.2422 C   0  0  0  0  0  0  0  0  0  0  0  0
    4.5003    4.4417    6.4571 H   0  0  0  0  0  0  0  0  0  0  0  0
    3.7400    3.1154    6.9362 H   0  0  0  0  0  0  0  0  0  0  0  0
    5.2170    3.7201    8.2774 C   0  0  0  0  0  0  0  0  0  0  0  0
    5.9140    3.1392    7.8818 H   0  0  0  0  0  0  0  0  0  0  0  0
    5.6396    4.5773    8.5355 H   0  0  0  0  0  0  0  0  0  0  0  0
    7.0449    1.1784   10.0130 B   0  0  0  0  0  0  0  0  0  0  0  0
    6.6485   -0.5590   10.1902 B   0  0  0  0  0  0  0  0  0  0  0  0
    5.6932   -0.9101   10.6587 H   0  0  0  0  0  0  0  0  0  0  0  0
    7.9691    0.1365   11.1342 B   0  0  0  0  0  0  0  0  0  0  0  0
    7.9104    0.2631   12.2456 H   0  0  0  0  0  0  0  0  0  0  0  0
    8.8226    1.3108   10.0997 B   0  0  0  0  0  0  0  0  0  0  0  0
    9.3257    2.2110   10.5377 H   0  0  0  0  0  0  0  0  0  0  0  0
    8.0317    1.3564    8.5169 B   0  0  0  0  0  0  0  0  0  0  0  0
    7.9955    2.2880    7.8968 H   0  0  0  0  0  0  0  0  0  0  0  0
    6.6807    0.2038    8.5810 B   0  0  0  0  0  0  0  0  0  0  0  0
    5.7392    0.3585    7.9941 H   0  0  0  0  0  0  0  0  0  0  0  0
    8.1565   -1.4524   10.3924 B   0  0  0  0  0  0  0  0  0  0  0  0
    8.2115   -2.3855   11.0093 H   0  0  0  0  0  0  0  0  0  0  0  0
    9.5377    0.4337    8.7234 B   0  0  0  0  0  0  0  0  0  0  0  0
   10.5055    0.7523    8.2585 H   0  0  0  0  0  0  0  0  0  0  0  0
    8.2093   -0.2513    7.7797 B   0  0  0  0  0  0  0  0  0  0  0  0
    8.2711   -0.3973    6.6704 H   0  0  0  0  0  0  0  0  0  0  0  0
    9.1147   -1.2678    8.9000 B   0  0  0  0  0  0  0  0  0  0  0  0
    9.7929   -2.0813    8.5367 H   0  0  0  0  0  0  0  0  0  0  0  0
    7.4255   -1.3119    8.8712 C   0  0  0  0  0  0  0  0  0  0  0  0
    6.9932   -2.1289    8.4893 H   0  0  0  0  0  0  0  0  0  0  0  0
    9.3744   -0.2928   10.2588 C   0  0  0  0  0  0  0  0  0  0  0  0
   10.2118   -0.4469   10.7835 H   0  0  0  0  0  0  0  0  0  0  0  0
    5.7936    1.6587   13.6391 C   0  0  0  0  0  0  0  0  0  0  0  0
    6.5783    1.9717   14.4262 O   0  0  0  0  0  0  0  0  0  0  0  0
    3.4480   -0.0065   14.1238 P   0  0  0  0  0  0  0  0  0  0  0  0
    2.3654   -1.3562   13.4535 C   0  0  0  0  0  0  0  0  0  0  0  0
    1.6814   -0.8816   12.8993 H   0  0  0  0  0  0  0  0  0  0  0  0
    3.0618   -2.3162   12.4756 C   0  0  0  0  0  0  0  0  0  0  0  0
    3.6606   -2.9262   12.9754 H   0  0  0  0  0  0  0  0  0  0  0  0
    3.6116   -1.7996   11.8352 H   0  0  0  0  0  0  0  0  0  0  0  0
    2.0127   -3.1320   11.7159 C   0  0  0  0  0  0  0  0  0  0  0  0
    2.4692   -3.7659   11.1079 H   0  0  0  0  0  0  0  0  0  0  0  0
    1.4615   -2.5224   11.1640 H   0  0  0  0  0  0  0  0  0  0  0  0
    1.1040   -3.9112   12.6671 C   0  0  0  0  0  0  0  0  0  0  0  0
    0.3852   -4.3510   12.1470 H   0  0  0  0  0  0  0  0  0  0  0  0
    1.6309   -4.6177   13.1176 H   0  0  0  0  0  0  0  0  0  0  0  0
    0.4775   -2.9935   13.7231 C   0  0  0  0  0  0  0  0  0  0  0  0
   -0.0274   -3.5410   14.3751 H   0  0  0  0  0  0  0  0  0  0  0  0
   -0.1599   -2.3751   13.2848 H   0  0  0  0  0  0  0  0  0  0  0  0
    1.5460   -2.1806   14.4615 C   0  0  0  0  0  0  0  0  0  0  0  0
    1.1122   -1.5747   15.1136 H   0  0  0  0  0  0  0  0  0  0  0  0
    2.1457   -2.7912   14.9589 H   0  0  0  0  0  0  0  0  0  0  0  0
    4.6035   -0.6283   15.4347 C   0  0  0  0  0  0  0  0  0  0  0  0
    5.0744    0.1842   15.7785 H   0  0  0  0  0  0  0  0  0  0  0  0
    5.7099   -1.5092   14.8233 C   0  0  0  0  0  0  0  0  0  0  0  0
    6.1025   -1.0512   14.0383 H   0  0  0  0  0  0  0  0  0  0  0  0
    5.3191   -2.3657   14.5161 H   0  0  0  0  0  0  0  0  0  0  0  0
    6.8064   -1.7871   15.8560 C   0  0  0  0  0  0  0  0  0  0  0  0
    7.2601   -0.9389   16.0879 H   0  0  0  0  0  0  0  0  0  0  0  0
    7.4808   -2.3958   15.4617 H   0  0  0  0  0  0  0  0  0  0  0  0
    6.2373   -2.4178   17.1229 C   0  0  0  0  0  0  0  0  0  0  0  0
    6.9591   -2.5178   17.7933 H   0  0  0  0  0  0  0  0  0  0  0  0
    5.8875   -3.3201   16.9125 H   0  0  0  0  0  0  0  0  0  0  0  0
    5.1173   -1.5641   17.7081 C   0  0  0  0  0  0  0  0  0  0  0  0
    4.7289   -2.0259   18.4931 H   0  0  0  0  0  0  0  0  0  0  0  0
    5.4893   -0.6996   18.0141 H   0  0  0  0  0  0  0  0  0  0  0  0
    4.0123   -1.3042   16.6729 C   0  0  0  0  0  0  0  0  0  0  0  0
    3.3153   -0.7234   17.0685 H   0  0  0  0  0  0  0  0  0  0  0  0
    3.5897   -2.1614   16.4148 H   0  0  0  0  0  0  0  0  0  0  0  0
    2.1844    1.2374   14.9372 B   0  0  0  0  0  0  0  0  0  0  0  0
    2.5808    2.9748   14.7601 B   0  0  0  0  0  0  0  0  0  0  0  0
    3.5361    3.3259   14.2915 H   0  0  0  0  0  0  0  0  0  0  0  0
    1.2602    2.2793   13.8161 B   0  0  0  0  0  0  0  0  0  0  0  0
    1.3189    2.1528   12.7047 H   0  0  0  0  0  0  0  0  0  0  0  0
    0.4067    1.1050   14.8505 B   0  0  0  0  0  0  0  0  0  0  0  0
   -0.0964    0.2048   14.4125 H   0  0  0  0  0  0  0  0  0  0  0  0
    1.1976    1.0594   16.4334 B   0  0  0  0  0  0  0  0  0  0  0  0
    1.2338    0.1279   17.0535 H   0  0  0  0  0  0  0  0  0  0  0  0
    2.5486    2.2121   16.3692 B   0  0  0  0  0  0  0  0  0  0  0  0
    3.4901    2.0573   16.9562 H   0  0  0  0  0  0  0  0  0  0  0  0
    1.0728    3.8683   14.5578 B   0  0  0  0  0  0  0  0  0  0  0  0
    1.0178    4.8014   13.9410 H   0  0  0  0  0  0  0  0  0  0  0  0
   -0.3084    1.9821   16.2269 B   0  0  0  0  0  0  0  0  0  0  0  0
   -1.2762    1.6636   16.6917 H   0  0  0  0  0  0  0  0  0  0  0  0
    1.0200    2.6671   17.1705 B   0  0  0  0  0  0  0  0  0  0  0  0
    0.9582    2.8132   18.2798 H   0  0  0  0  0  0  0  0  0  0  0  0
    0.1146    3.6837   16.0502 B   0  0  0  0  0  0  0  0  0  0  0  0
   -0.5636    4.4971   16.4135 H   0  0  0  0  0  0  0  0  0  0  0  0
    1.8038    3.7277   16.0791 C   0  0  0  0  0  0  0  0  0  0  0  0
    2.2361    4.5447   16.4609 H   0  0  0  0  0  0  0  0  0  0  0  0
   -0.1451    2.7086   14.6915 C   0  0  0  0  0  0  0  0  0  0  0  0
   -0.9826    2.8628   14.1668 H   0  0  0  0  0  0  0  0  0  0  0  0
  1  2  1  0  0  0  0
  3  1  1  0  0  0  0
  4  3  1  0  0  0  0
  5  4  1  0  0  0  0
  6  5  1  0  0  0  0
  7  5  1  0  0  0  0
  8  7  1  0  0  0  0
  9  7  1  0  0  0  0
 10  7  1  0  0  0  0
 11 10  1  0  0  0  0
 12 10  1  0  0  0  0
 13 10  1  0  0  0  0
 14 13  1  0  0  0  0
 15 13  1  0  0  0  0
 16 13  1  0  0  0  0
 17 16  1  0  0  0  0
 18 16  1  0  0  0  0
 19  5  1  0  0  0  0
 20 19  1  0  0  0  0
 21 19  1  0  0  0  0
 22  4  1  0  0  0  0
 23 22  1  0  0  0  0
 24 22  1  0  0  0  0
 25 24  1  0  0  0  0
 26 24  1  0  0  0  0
 27 24  1  0  0  0  0
 28 27  1  0  0  0  0
 29 27  1  0  0  0  0
 30 27  1  0  0  0  0
 31 30  1  0  0  0  0
 32 30  1  0  0  0  0
 33 30  1  0  0  0  0
 34 33  1  0  0  0  0
 35 33  1  0  0  0  0
 36 22  1  0  0  0  0
 37 36  1  0  0  0  0
 38 36  1  0  0  0  0
 39  4  1  0  0  0  0
 40 39  1  0  0  0  0
 41 40  1  0  0  0  0
 42 39  1  0  0  0  0
 43 42  1  0  0  0  0
 44 39  1  0  0  0  0
 45 44  1  0  0  0  0
 46 39  1  0  0  0  0
 47 46  1  0  0  0  0
 48 39  1  0  0  0  0
 49 48  1  0  0  0  0
 50 40  1  0  0  0  0
 51 50  1  0  0  0  0
 52 44  1  0  0  0  0
 53 52  1  0  0  0  0
 54 46  1  0  0  0  0
 55 54  1  0  0  0  0
 56 50  1  0  0  0  0
 57 56  1  0  0  0  0
 58 40  1  0  0  0  0
 59 58  1  0  0  0  0
 60 42  1  0  0  0  0
 61 60  1  0  0  0  0
 62  3  1  0  0  0  0
 63 62  1  0  0  0  0
 64  3  1  0  0  0  0
 65 64  1  0  0  0  0
 66 65  1  0  0  0  0
 67 65  1  0  0  0  0
 68 67  1  0  0  0  0
 69 67  1  0  0  0  0
 70 67  1  0  0  0  0
 71 70  1  0  0  0  0
 72 70  1  0  0  0  0
 73 70  1  0  0  0  0
 74 73  1  0  0  0  0
 75 73  1  0  0  0  0
 76 73  1  0  0  0  0
 77 76  1  0  0  0  0
 78 76  1  0  0  0  0
 79 65  1  0  0  0  0
 80 79  1  0  0  0  0
 81 79  1  0  0  0  0
 82 64  1  0  0  0  0
 83 82  1  0  0  0  0
 84 82  1  0  0  0  0
 85 84  1  0  0  0  0
 86 84  1  0  0  0  0
 87 84  1  0  0  0  0
 88 87  1  0  0  0  0
 89 87  1  0  0  0  0
 90 87  1  0  0  0  0
 91 90  1  0  0  0  0
 92 90  1  0  0  0  0
 93 90  1  0  0  0  0
 94 93  1  0  0  0  0
 95 93  1  0  0  0  0
 96 82  1  0  0  0  0
 97 96  1  0  0  0  0
 98 96  1  0  0  0  0
 99 64  1  0  0  0  0
100 99  1  0  0  0  0
101100  1  0  0  0  0
102 99  1  0  0  0  0
103102  1  0  0  0  0
104 99  1  0  0  0  0
105104  1  0  0  0  0
106 99  1  0  0  0  0
107106  1  0  0  0  0
108 99  1  0  0  0  0
109108  1  0  0  0  0
110100  1  0  0  0  0
111110  1  0  0  0  0
112104  1  0  0  0  0
113112  1  0  0  0  0
114106  1  0  0  0  0
115114  1  0  0  0  0
116110  1  0  0  0  0
117116  1  0  0  0  0
118100  1  0  0  0  0
119118  1  0  0  0  0
120102  1  0  0  0  0
121120  1  0  0  0  0
 16 19  1  0  0  0  0
 33 36  1  0  0  0  0
 40 42  1  0  0  0  0
 40 48  1  0  0  0  0
 42 44  1  0  0  0  0
 42 50  1  0  0  0  0
 44 46  1  0  0  0  0
 44 60  1  0  0  0  0
 46 48  1  0  0  0  0
 46 52  1  0  0  0  0
 48 54  1  0  0  0  0
 48 58  1  0  0  0  0
 50 58  1  0  0  0  0
 50 60  1  0  0  0  0
 52 54  1  0  0  0  0
 52 56  1  0  0  0  0
 52 60  1  0  0  0  0
 54 56  1  0  0  0  0
 54 58  1  0  0  0  0
 56 58  1  0  0  0  0
 56 60  1  0  0  0  0
 76 79  1  0  0  0  0
 93 96  1  0  0  0  0
100102  1  0  0  0  0
100108  1  0  0  0  0
102104  1  0  0  0  0
102110  1  0  0  0  0
104106  1  0  0  0  0
104120  1  0  0  0  0
106108  1  0  0  0  0
106112  1  0  0  0  0
108114  1  0  0  0  0
108118  1  0  0  0  0
110118  1  0  0  0  0
110120  1  0  0  0  0
112114  1  0  0  0  0
112116  1  0  0  0  0
112120  1  0  0  0  0
114116  1  0  0  0  0
114118  1  0  0  0  0
116118  1  0  0  0  0
116120  1  0  0  0  0
M  END
$$$$
HIDREU

From CSD data. Using bond type 'Any'. No disordered atoms. Largest molecule.
166177  0  0  0  0  0  0  0  0999 V2000
   -2.3004    2.1302   12.0701 P   0  3  0  0  0  0  0  0  0  0  0  0
    1.9584    2.7878   11.8902 F   0  0  0  0  0  0  0  0  0  0  0  0
   -1.2739    0.1580    8.2342 F   0  0  0  0  0  0  0  0  0  0  0  0
    3.4346    0.4714    7.8538 F   0  0  0  0  0  0  0  0  0  0  0  0
    4.1783    1.3134   10.6737 F   0  0  0  0  0  0  0  0  0  0  0  0
    2.1730    2.7964    7.1472 F   0  0  0  0  0  0  0  0  0  0  0  0
    2.9201    5.2574   11.9109 F   0  0  0  0  0  0  0  0  0  0  0  0
   -1.3496   -1.1416    5.9524 F   0  0  0  0  0  0  0  0  0  0  0  0
    0.2986   -1.3920   10.5277 F   0  0  0  0  0  0  0  0  0  0  0  0
    3.3074   -0.7752    5.4932 F   0  0  0  0  0  0  0  0  0  0  0  0
    3.2908    5.1664    7.2310 F   0  0  0  0  0  0  0  0  0  0  0  0
   -0.0062    1.3727   10.4026 O   0  0  0  0  0  0  0  0  0  0  0  0
    0.9134   -1.6233    4.5275 F   0  0  0  0  0  0  0  0  0  0  0  0
    3.6280    6.4800    9.6007 F   0  0  0  0  0  0  0  0  0  0  0  0
    5.4217   -0.5674   12.0273 F   0  0  0  0  0  0  0  0  0  0  0  0
    1.5735   -3.2491   11.9442 F   0  0  0  0  0  0  0  0  0  0  0  0
    4.1583   -2.8780   12.6815 F   0  0  0  0  0  0  0  0  0  0  0  0
   -0.7555    2.3271    9.7749 N   0  0  0  0  0  0  0  0  0  0  0  0
   -2.7306    0.4031   12.1738 C   0  0  0  0  0  0  0  0  0  0  0  0
   -1.8240    2.6989   10.3838 C   0  0  0  0  0  0  0  0  0  0  0  0
   -3.6755    3.1613   12.5712 C   0  0  0  0  0  0  0  0  0  0  0  0
   -0.0862   -0.0480    7.6209 C   0  0  0  0  0  0  0  0  0  0  0  0
   -3.2871   -0.1093   13.3559 C   0  0  0  0  0  0  0  0  0  0  0  0
   -3.4896    0.4691   14.0818 H   0  0  0  0  0  0  0  0  0  0  0  0
   -2.4682   -0.4507   11.1076 C   0  0  0  0  0  0  0  0  0  0  0  0
   -2.0987   -0.1067   10.3030 H   0  0  0  0  0  0  0  0  0  0  0  0
   -2.6384    3.7814    9.7573 C   0  0  0  0  0  0  0  0  0  0  0  0
   -0.9265    2.4887   13.2005 C   0  0  0  0  0  0  0  0  0  0  0  0
   -0.1690    1.8895   12.9821 H   0  0  0  0  0  0  0  0  0  0  0  0
   -0.6260    3.4198   13.0526 H   0  0  0  0  0  0  0  0  0  0  0  0
    2.1410    0.0862   10.5503 C   0  0  0  0  0  0  0  0  0  0  0  0
    2.0078    2.6338    9.5210 C   0  0  0  0  0  0  0  0  0  0  0  0
   -0.1633   -0.7257    6.4260 C   0  0  0  0  0  0  0  0  0  0  0  0
    2.2425    3.3504   10.6857 C   0  0  0  0  0  0  0  0  0  0  0  0
   -4.9766    2.6731   12.5917 C   0  0  0  0  0  0  0  0  0  0  0  0
   -5.1426    1.7508   12.4379 H   0  0  0  0  0  0  0  0  0  0  0  0
    2.3675    3.3253    8.3790 C   0  0  0  0  0  0  0  0  0  0  0  0
    1.0934    0.4007    8.1805 C   0  0  0  0  0  0  0  0  0  0  0  0
   -3.9060    3.5030    9.2333 C   0  0  0  0  0  0  0  0  0  0  0  0
   -3.5374   -1.4623   13.4520 C   0  0  0  0  0  0  0  0  0  0  0  0
   -3.8970   -1.8202   14.2549 H   0  0  0  0  0  0  0  0  0  0  0  0
    2.7605    4.6158   10.7328 C   0  0  0  0  0  0  0  0  0  0  0  0
    3.1203    5.2397    9.5670 C   0  0  0  0  0  0  0  0  0  0  0  0
   -3.4465    4.5180   12.8180 C   0  0  0  0  0  0  0  0  0  0  0  0
   -2.5593    4.8572   12.8196 H   0  0  0  0  0  0  0  0  0  0  0  0
    3.4605    0.2042   10.9557 C   0  0  0  0  0  0  0  0  0  0  0  0
    2.2137    0.0959    7.4142 C   0  0  0  0  0  0  0  0  0  0  0  0
   -2.1200    5.0893    9.7091 C   0  0  0  0  0  0  0  0  0  0  0  0
    1.5693   -1.1250   10.9018 C   0  0  0  0  0  0  0  0  0  0  0  0
   -3.2665   -2.3015   12.3848 C   0  0  0  0  0  0  0  0  0  0  0  0
   -3.4406   -3.2327   12.4600 H   0  0  0  0  0  0  0  0  0  0  0  0
    4.1412   -0.7675   11.6504 C   0  0  0  0  0  0  0  0  0  0  0  0
    0.9769   -0.9713    5.7015 C   0  0  0  0  0  0  0  0  0  0  0  0
   -6.0310    3.5355   12.8365 C   0  0  0  0  0  0  0  0  0  0  0  0
   -6.9211    3.2025   12.8511 H   0  0  0  0  0  0  0  0  0  0  0  0
    2.9342    4.5830    8.3820 C   0  0  0  0  0  0  0  0  0  0  0  0
   -5.7953    4.8797   13.0603 C   0  0  0  0  0  0  0  0  0  0  0  0
   -6.5238    5.4686   13.2153 H   0  0  0  0  0  0  0  0  0  0  0  0
    2.1769   -0.5508    6.1992 C   0  0  0  0  0  0  0  0  0  0  0  0
    3.5151   -1.9354   11.9719 C   0  0  0  0  0  0  0  0  0  0  0  0
   -4.6502    4.5518    8.7078 C   0  0  0  0  0  0  0  0  0  0  0  0
   -5.5110    4.3710    8.3487 H   0  0  0  0  0  0  0  0  0  0  0  0
   -4.1752    5.8503    8.6914 C   0  0  0  0  0  0  0  0  0  0  0  0
   -2.7458   -1.7983   11.2190 C   0  0  0  0  0  0  0  0  0  0  0  0
   -2.5763   -2.3783   10.4863 H   0  0  0  0  0  0  0  0  0  0  0  0
    2.2071   -2.1133   11.6063 C   0  0  0  0  0  0  0  0  0  0  0  0
   -4.5085    5.3657   13.0594 C   0  0  0  0  0  0  0  0  0  0  0  0
   -4.3501    6.2879   13.2252 H   0  0  0  0  0  0  0  0  0  0  0  0
   -4.4355    2.0975    9.1840 C   0  0  0  0  0  0  0  0  0  0  0  0
   -3.7634    1.5098    8.7783 H   0  0  0  0  0  0  0  0  0  0  0  0
   -5.2549    2.0751    8.6478 H   0  0  0  0  0  0  0  0  0  0  0  0
   -4.6310    1.7897   10.0936 H   0  0  0  0  0  0  0  0  0  0  0  0
   -2.9106    6.0859    9.1699 C   0  0  0  0  0  0  0  0  0  0  0  0
   -2.5653    6.9698    9.1287 H   0  0  0  0  0  0  0  0  0  0  0  0
   -0.7360    5.4194   10.2004 C   0  0  0  0  0  0  0  0  0  0  0  0
   -0.6243    5.0830   11.1143 H   0  0  0  0  0  0  0  0  0  0  0  0
   -0.6093    6.3910   10.1923 H   0  0  0  0  0  0  0  0  0  0  0  0
   -0.0720    4.9986    9.6146 H   0  0  0  0  0  0  0  0  0  0  0  0
    1.2970    1.1516    9.6309 B   0  5  0  0  0  0  0  0  0  0  0  0
   -5.0149    6.9948    8.1638 C   0  0  0  0  0  0  0  0  0  0  0  0
   -5.8098    6.6371    7.7163 H   0  0  0  0  0  0  0  0  0  0  0  0
   -4.4875    7.5178    7.5242 H   0  0  0  0  0  0  0  0  0  0  0  0
   -5.2890    7.5689    8.9085 H   0  0  0  0  0  0  0  0  0  0  0  0
    0.0882    2.6706   15.8163 P   0  3  0  0  0  0  0  0  0  0  0  0
   -4.1706    2.0130   15.9962 F   0  0  0  0  0  0  0  0  0  0  0  0
   -0.9382    4.6428   19.6523 F   0  0  0  0  0  0  0  0  0  0  0  0
   -5.6468    4.3294   20.0326 F   0  0  0  0  0  0  0  0  0  0  0  0
   -6.3905    3.4873   17.2128 F   0  0  0  0  0  0  0  0  0  0  0  0
   -4.3852    2.0043   20.7393 F   0  0  0  0  0  0  0  0  0  0  0  0
   -5.1323   -0.4566   15.9756 F   0  0  0  0  0  0  0  0  0  0  0  0
   -0.8625    5.9424   21.9341 F   0  0  0  0  0  0  0  0  0  0  0  0
   -2.5108    6.1928   17.3587 F   0  0  0  0  0  0  0  0  0  0  0  0
   -5.5195    5.5759   22.3932 F   0  0  0  0  0  0  0  0  0  0  0  0
   -5.5030   -0.3656   20.6555 F   0  0  0  0  0  0  0  0  0  0  0  0
   -2.2060    3.4281   17.4838 O   0  0  0  0  0  0  0  0  0  0  0  0
   -3.1256    6.4240   23.3589 F   0  0  0  0  0  0  0  0  0  0  0  0
   -5.8402   -1.6792   18.2857 F   0  0  0  0  0  0  0  0  0  0  0  0
   -7.6339    5.3682   15.8592 F   0  0  0  0  0  0  0  0  0  0  0  0
   -3.7857    8.0499   15.9423 F   0  0  0  0  0  0  0  0  0  0  0  0
   -6.3704    7.6788   15.2049 F   0  0  0  0  0  0  0  0  0  0  0  0
   -1.4567    2.4737   18.1115 N   0  0  0  0  0  0  0  0  0  0  0  0
    0.5184    4.3977   15.7126 C   0  0  0  0  0  0  0  0  0  0  0  0
   -0.3882    2.1019   17.5026 C   0  0  0  0  0  0  0  0  0  0  0  0
    1.4633    1.6394   15.3152 C   0  0  0  0  0  0  0  0  0  0  0  0
   -2.1259    4.8488   20.2655 C   0  0  0  0  0  0  0  0  0  0  0  0
    1.0749    4.9101   14.5305 C   0  0  0  0  0  0  0  0  0  0  0  0
    1.2775    4.3316   13.8047 H   0  0  0  0  0  0  0  0  0  0  0  0
    0.2560    5.2515   16.7788 C   0  0  0  0  0  0  0  0  0  0  0  0
   -0.1135    4.9074   17.5834 H   0  0  0  0  0  0  0  0  0  0  0  0
    0.4263    1.0193   18.1291 C   0  0  0  0  0  0  0  0  0  0  0  0
   -1.2857    2.3121   14.6860 C   0  0  0  0  0  0  0  0  0  0  0  0
   -2.0432    2.9112   14.9043 H   0  0  0  0  0  0  0  0  0  0  0  0
   -1.5862    1.3809   14.8338 H   0  0  0  0  0  0  0  0  0  0  0  0
   -4.3531    4.7146   17.3362 C   0  0  0  0  0  0  0  0  0  0  0  0
   -4.2200    2.1670   18.3654 C   0  0  0  0  0  0  0  0  0  0  0  0
   -2.0489    5.5265   21.4604 C   0  0  0  0  0  0  0  0  0  0  0  0
   -4.4547    1.4504   17.2008 C   0  0  0  0  0  0  0  0  0  0  0  0
    2.7645    2.1277   15.2947 C   0  0  0  0  0  0  0  0  0  0  0  0
    2.9305    3.0499   15.4486 H   0  0  0  0  0  0  0  0  0  0  0  0
   -4.5797    1.4755   19.5074 C   0  0  0  0  0  0  0  0  0  0  0  0
   -3.3056    4.4001   19.7059 C   0  0  0  0  0  0  0  0  0  0  0  0
    1.6938    1.2978   18.6531 C   0  0  0  0  0  0  0  0  0  0  0  0
    1.3252    6.2630   14.4344 C   0  0  0  0  0  0  0  0  0  0  0  0
    1.6848    6.6209   13.6315 H   0  0  0  0  0  0  0  0  0  0  0  0
   -4.9727    0.1850   17.1536 C   0  0  0  0  0  0  0  0  0  0  0  0
   -5.3325   -0.4389   18.3194 C   0  0  0  0  0  0  0  0  0  0  0  0
    1.2343    0.2828   15.0684 C   0  0  0  0  0  0  0  0  0  0  0  0
    0.3471   -0.0565   15.0669 H   0  0  0  0  0  0  0  0  0  0  0  0
   -5.6727    4.5965   16.9307 C   0  0  0  0  0  0  0  0  0  0  0  0
   -4.4259    4.7049   20.4723 C   0  0  0  0  0  0  0  0  0  0  0  0
   -0.0922   -0.2886   18.1773 C   0  0  0  0  0  0  0  0  0  0  0  0
   -3.7815    5.9257   16.9846 C   0  0  0  0  0  0  0  0  0  0  0  0
    1.0543    7.1023   15.5016 C   0  0  0  0  0  0  0  0  0  0  0  0
    1.2285    8.0334   15.4264 H   0  0  0  0  0  0  0  0  0  0  0  0
   -6.3534    5.5683   16.2360 C   0  0  0  0  0  0  0  0  0  0  0  0
   -3.1891    5.7720   22.1849 C   0  0  0  0  0  0  0  0  0  0  0  0
    3.8188    1.2652   15.0499 C   0  0  0  0  0  0  0  0  0  0  0  0
    4.7090    1.5983   15.0353 H   0  0  0  0  0  0  0  0  0  0  0  0
   -5.1464    0.2178   19.5045 C   0  0  0  0  0  0  0  0  0  0  0  0
    3.5831   -0.0789   14.8261 C   0  0  0  0  0  0  0  0  0  0  0  0
    4.3117   -0.6679   14.6711 H   0  0  0  0  0  0  0  0  0  0  0  0
   -4.3890    5.3515   21.6873 C   0  0  0  0  0  0  0  0  0  0  0  0
   -5.7273    6.7361   15.9145 C   0  0  0  0  0  0  0  0  0  0  0  0
    2.4380    0.2490   19.1786 C   0  0  0  0  0  0  0  0  0  0  0  0
    3.2989    0.4297   19.5378 H   0  0  0  0  0  0  0  0  0  0  0  0
    1.9631   -1.0496   19.1951 C   0  0  0  0  0  0  0  0  0  0  0  0
    0.5336    6.5990   16.6674 C   0  0  0  0  0  0  0  0  0  0  0  0
    0.3641    7.1791   17.4001 H   0  0  0  0  0  0  0  0  0  0  0  0
   -4.4193    6.9141   16.2801 C   0  0  0  0  0  0  0  0  0  0  0  0
    2.2964   -0.5650   14.8271 C   0  0  0  0  0  0  0  0  0  0  0  0
    2.1379   -1.4871   14.6612 H   0  0  0  0  0  0  0  0  0  0  0  0
    2.2233    2.7033   18.7025 C   0  0  0  0  0  0  0  0  0  0  0  0
    1.5512    3.2909   19.1081 H   0  0  0  0  0  0  0  0  0  0  0  0
    3.0427    2.7257   19.2387 H   0  0  0  0  0  0  0  0  0  0  0  0
    2.4188    3.0111   17.7928 H   0  0  0  0  0  0  0  0  0  0  0  0
    0.6984   -1.2851   18.7165 C   0  0  0  0  0  0  0  0  0  0  0  0
    0.3532   -2.1690   18.7578 H   0  0  0  0  0  0  0  0  0  0  0  0
   -1.4761   -0.6186   17.6860 C   0  0  0  0  0  0  0  0  0  0  0  0
   -1.5878   -0.2822   16.7721 H   0  0  0  0  0  0  0  0  0  0  0  0
   -1.6029   -1.5902   17.6941 H   0  0  0  0  0  0  0  0  0  0  0  0
   -2.1401   -0.1978   18.2718 H   0  0  0  0  0  0  0  0  0  0  0  0
   -3.5092    3.6492   18.2556 B   0  5  0  0  0  0  0  0  0  0  0  0
    2.8027   -2.1940   19.7227 C   0  0  0  0  0  0  0  0  0  0  0  0
    3.5977   -1.8363   20.1701 H   0  0  0  0  0  0  0  0  0  0  0  0
    2.2754   -2.7171   20.3622 H   0  0  0  0  0  0  0  0  0  0  0  0
    3.0768   -2.7681   18.9779 H   0  0  0  0  0  0  0  0  0  0  0  0
  1 19  1  0  0  0  0
  2 34  1  0  0  0  0
  3 22  1  0  0  0  0
  4 47  1  0  0  0  0
  5 46  1  0  0  0  0
  6 37  1  0  0  0  0
  7 42  1  0  0  0  0
  8 33  1  0  0  0  0
  9 49  1  0  0  0  0
 10 59  1  0  0  0  0
 11 56  1  0  0  0  0
 12 18  1  0  0  0  0
 13 53  1  0  0  0  0
 14 43  1  0  0  0  0
 15 52  1  0  0  0  0
 16 66  1  0  0  0  0
 17 60  1  0  0  0  0
 18 20  2  0  0  0  0
 19 23  4  0  0  0  0
 20  1  1  0  0  0  0
 21  1  1  0  0  0  0
 22 33  4  0  0  0  0
 23 24  1  0  0  0  0
 25 19  4  0  0  0  0
 26 25  1  0  0  0  0
 27 20  1  0  0  0  0
 28  1  1  0  0  0  0
 29 28  1  0  0  0  0
 30 28  1  0  0  0  0
 31 46  4  0  0  0  0
 32 34  4  0  0  0  0
 33 53  4  0  0  0  0
 34 42  4  0  0  0  0
 35 21  4  0  0  0  0
 36 35  1  0  0  0  0
 37 32  4  0  0  0  0
 38 22  4  0  0  0  0
 39 27  4  0  0  0  0
 40 23  4  0  0  0  0
 41 40  1  0  0  0  0
 42 43  4  0  0  0  0
 43 56  4  0  0  0  0
 44 21  4  0  0  0  0
 45 44  1  0  0  0  0
 46 52  4  0  0  0  0
 47 38  4  0  0  0  0
 48 27  4  0  0  0  0
 49 31  4  0  0  0  0
 50 40  4  0  0  0  0
 51 50  1  0  0  0  0
 52 60  4  0  0  0  0
 53 59  4  0  0  0  0
 54 35  4  0  0  0  0
 55 54  1  0  0  0  0
 56 37  4  0  0  0  0
 57 54  4  0  0  0  0
 58 57  1  0  0  0  0
 59 47  4  0  0  0  0
 60 66  4  0  0  0  0
 61 39  4  0  0  0  0
 62 61  1  0  0  0  0
 63 61  4  0  0  0  0
 64 25  4  0  0  0  0
 65 64  1  0  0  0  0
 66 49  4  0  0  0  0
 67 44  4  0  0  0  0
 68 67  1  0  0  0  0
 69 39  1  0  0  0  0
 70 69  1  0  0  0  0
 71 69  1  0  0  0  0
 72 69  1  0  0  0  0
 73 48  4  0  0  0  0
 74 73  1  0  0  0  0
 75 48  1  0  0  0  0
 76 75  1  0  0  0  0
 77 75  1  0  0  0  0
 78 75  1  0  0  0  0
 79 12  1  0  0  0  0
 80 63  1  0  0  0  0
 81 80  1  0  0  0  0
 82 80  1  0  0  0  0
 83 80  1  0  0  0  0
 84102  1  0  0  0  0
 85117  1  0  0  0  0
 86105  1  0  0  0  0
 87130  1  0  0  0  0
 88129  1  0  0  0  0
 89120  1  0  0  0  0
 90125  1  0  0  0  0
 91116  1  0  0  0  0
 92132  1  0  0  0  0
 93142  1  0  0  0  0
 94139  1  0  0  0  0
 95101  1  0  0  0  0
 96136  1  0  0  0  0
 97126  1  0  0  0  0
 98135  1  0  0  0  0
 99149  1  0  0  0  0
100143  1  0  0  0  0
101103  2  0  0  0  0
102106  4  0  0  0  0
103 84  1  0  0  0  0
104 84  1  0  0  0  0
105116  4  0  0  0  0
106107  1  0  0  0  0
108102  4  0  0  0  0
109108  1  0  0  0  0
110103  1  0  0  0  0
111 28  1  0  0  0  0
112111  1  0  0  0  0
113111  1  0  0  0  0
114129  4  0  0  0  0
115117  4  0  0  0  0
116136  4  0  0  0  0
117125  4  0  0  0  0
118104  4  0  0  0  0
119118  1  0  0  0  0
120115  4  0  0  0  0
121105  4  0  0  0  0
122110  4  0  0  0  0
123106  4  0  0  0  0
124123  1  0  0  0  0
125126  4  0  0  0  0
126139  4  0  0  0  0
127104  4  0  0  0  0
128127  1  0  0  0  0
129135  4  0  0  0  0
130121  4  0  0  0  0
131110  4  0  0  0  0
132114  4  0  0  0  0
133123  4  0  0  0  0
134133  1  0  0  0  0
135143  4  0  0  0  0
136142  4  0  0  0  0
137118  4  0  0  0  0
138137  1  0  0  0  0
139120  4  0  0  0  0
140137  4  0  0  0  0
141140  1  0  0  0  0
142130  4  0  0  0  0
143149  4  0  0  0  0
144122  4  0  0  0  0
145144  1  0  0  0  0
146144  4  0  0  0  0
147108  4  0  0  0  0
148147  1  0  0  0  0
149132  4  0  0  0  0
150127  4  0  0  0  0
151150  1  0  0  0  0
152122  1  0  0  0  0
153152  1  0  0  0  0
154152  1  0  0  0  0
155152  1  0  0  0  0
156131  4  0  0  0  0
157156  1  0  0  0  0
158131  1  0  0  0  0
159158  1  0  0  0  0
160158  1  0  0  0  0
161158  1  0  0  0  0
162 95  1  0  0  0  0
163146  1  0  0  0  0
164163  1  0  0  0  0
165163  1  0  0  0  0
166163  1  0  0  0  0
 31 79  1  0  0  0  0
 32 79  1  0  0  0  0
 38 79  1  0  0  0  0
 50 64  4  0  0  0  0
 57 67  4  0  0  0  0
 63 73  4  0  0  0  0
 84111  1  0  0  0  0
114162  1  0  0  0  0
115162  1  0  0  0  0
121162  1  0  0  0  0
133147  4  0  0  0  0
140150  4  0  0  0  0
146156  4  0  0  0  0
M  CHG  4   1   1  79  -1  84   1 162  -1
M  END
$$$$
HIGYIF

From CSD data. Using bond type 'Any'. No disordered atoms. Largest molecule.
 83 93  0  0  0  0  0  0  0  0999 V2000
    6.0391    1.1305    3.5401 Os  0  0  0  0  0  0  0  0  0  0  0  0
    5.7461    2.0488    1.3884 P   0  0  0  0  0  0  0  0  0  0  0  0
    6.6036    0.3805    5.7039 P   0  0  0  0  0  0  0  0  0  0  0  0
    8.8687    0.3566    2.7505 O   0  0  0  0  0  0  0  0  0  0  0  0
    4.9001    0.9721    0.1888 C   0  0  0  0  0  0  0  0  0  0  0  0
    3.6328    1.2042   -0.2517 C   0  0  0  0  0  0  0  0  0  0  0  0
    3.0271    0.3137   -1.1327 C   0  0  0  0  0  0  0  0  0  0  0  0
    3.6986   -0.8038   -1.6076 C   0  0  0  0  0  0  0  0  0  0  0  0
    4.9670   -1.0209   -1.1753 C   0  0  0  0  0  0  0  0  0  0  0  0
    5.5638   -0.1823   -0.2781 C   0  0  0  0  0  0  0  0  0  0  0  0
    4.8512    3.6424    1.2504 C   0  0  0  0  0  0  0  0  0  0  0  0
    4.4048    4.3545    2.3485 C   0  0  0  0  0  0  0  0  0  0  0  0
    3.8402    5.6224    2.2105 C   0  0  0  0  0  0  0  0  0  0  0  0
    3.6873    6.1812    0.9601 C   0  0  0  0  0  0  0  0  0  0  0  0
    4.1306    5.4820   -0.1441 C   0  0  0  0  0  0  0  0  0  0  0  0
    4.6767    4.2230   -0.0325 C   0  0  0  0  0  0  0  0  0  0  0  0
    7.3176    2.5109    0.5785 C   0  0  0  0  0  0  0  0  0  0  0  0
    8.2433    3.2400    1.2869 C   0  0  0  0  0  0  0  0  0  0  0  0
    9.4453    3.6792    0.7206 C   0  0  0  0  0  0  0  0  0  0  0  0
    9.7087    3.3735   -0.5968 C   0  0  0  0  0  0  0  0  0  0  0  0
    8.8029    2.6802   -1.2930 C   0  0  0  0  0  0  0  0  0  0  0  0
    7.6012    2.2579   -0.7632 C   0  0  0  0  0  0  0  0  0  0  0  0
    6.3515   -1.4263    5.9394 C   0  0  0  0  0  0  0  0  0  0  0  0
    6.9377   -2.2659    5.0056 C   0  0  0  0  0  0  0  0  0  0  0  0
    6.7461   -3.6274    5.0564 C   0  0  0  0  0  0  0  0  0  0  0  0
    5.9661   -4.1872    6.0165 C   0  0  0  0  0  0  0  0  0  0  0  0
    5.3844   -3.3615    6.9421 C   0  0  0  0  0  0  0  0  0  0  0  0
    5.6079   -1.9850    6.9442 C   0  0  0  0  0  0  0  0  0  0  0  0
    5.8837    1.1832    7.1877 C   0  0  0  0  0  0  0  0  0  0  0  0
    6.3631    0.8556    8.4747 C   0  0  0  0  0  0  0  0  0  0  0  0
    5.8928    1.5030    9.5728 C   0  0  0  0  0  0  0  0  0  0  0  0
    4.9270    2.4860    9.4571 C   0  0  0  0  0  0  0  0  0  0  0  0
    4.4733    2.8506    8.2006 C   0  0  0  0  0  0  0  0  0  0  0  0
    4.9313    2.2032    7.0781 C   0  0  0  0  0  0  0  0  0  0  0  0
    8.3590    0.6763    6.0470 C   0  0  0  0  0  0  0  0  0  0  0  0
    9.3302   -0.3307    6.1261 C   0  0  0  0  0  0  0  0  0  0  0  0
   10.6685   -0.0100    6.2641 C   0  0  0  0  0  0  0  0  0  0  0  0
   11.0914    1.2550    6.4062 C   0  0  0  0  0  0  0  0  0  0  0  0
   10.1722    2.2290    6.3555 C   0  0  0  0  0  0  0  0  0  0  0  0
    8.8137    1.9791    6.1708 C   0  0  0  0  0  0  0  0  0  0  0  0
    7.7475    0.6653    3.0509 C   0  0  0  0  0  0  0  0  0  0  0  0
    3.6005    1.1245    3.6558 B   0  0  0  0  0  0  0  0  0  0  0  0
    4.2132   -0.4422    3.1727 B   0  0  0  0  0  0  0  0  0  0  0  0
    3.1376   -0.2878    4.6403 B   0  0  0  0  0  0  0  0  0  0  0  0
    3.1720    1.9591    0.0345 H   0  0  0  0  0  0  0  0  0  0  0  0
    2.1536    0.4711   -1.4108 H   0  0  0  0  0  0  0  0  0  0  0  0
    3.2924   -1.3884   -2.2065 H   0  0  0  0  0  0  0  0  0  0  0  0
    5.4377   -1.7559   -1.4960 H   0  0  0  0  0  0  0  0  0  0  0  0
    6.4185   -0.3755    0.0304 H   0  0  0  0  0  0  0  0  0  0  0  0
    4.4806    3.9800    3.1970 H   0  0  0  0  0  0  0  0  0  0  0  0
    3.5657    6.0925    2.9656 H   0  0  0  0  0  0  0  0  0  0  0  0
    3.2929    7.0178    0.8607 H   0  0  0  0  0  0  0  0  0  0  0  0
    4.0573    5.8704   -0.9845 H   0  0  0  0  0  0  0  0  0  0  0  0
    4.9317    3.7559   -0.7957 H   0  0  0  0  0  0  0  0  0  0  0  0
    8.0623    3.4491    2.1760 H   0  0  0  0  0  0  0  0  0  0  0  0
   10.0547    4.1693    1.2240 H   0  0  0  0  0  0  0  0  0  0  0  0
   10.5032    3.6454   -0.9946 H   0  0  0  0  0  0  0  0  0  0  0  0
    8.9934    2.4711   -2.1801 H   0  0  0  0  0  0  0  0  0  0  0  0
    6.9866    1.8087   -1.2971 H   0  0  0  0  0  0  0  0  0  0  0  0
    7.4694   -1.9034    4.3358 H   0  0  0  0  0  0  0  0  0  0  0  0
    7.1576   -4.1722    4.4231 H   0  0  0  0  0  0  0  0  0  0  0  0
    5.8299   -5.1065    6.0449 H   0  0  0  0  0  0  0  0  0  0  0  0
    4.8250   -3.7300    7.5876 H   0  0  0  0  0  0  0  0  0  0  0  0
    5.2567   -1.4532    7.6221 H   0  0  0  0  0  0  0  0  0  0  0  0
    7.0065    0.1922    8.5721 H   0  0  0  0  0  0  0  0  0  0  0  0
    6.2229    1.2819   10.4132 H   0  0  0  0  0  0  0  0  0  0  0  0
    4.5861    2.8994   10.2163 H   0  0  0  0  0  0  0  0  0  0  0  0
    3.8533    3.5388    8.1154 H   0  0  0  0  0  0  0  0  0  0  0  0
    4.6067    2.4442    6.2418 H   0  0  0  0  0  0  0  0  0  0  0  0
    9.0717   -1.2231    6.0855 H   0  0  0  0  0  0  0  0  0  0  0  0
   11.2970   -0.6982    6.2581 H   0  0  0  0  0  0  0  0  0  0  0  0
   11.9925    1.4452    6.5361 H   0  0  0  0  0  0  0  0  0  0  0  0
   10.4540    3.1115    6.4489 H   0  0  0  0  0  0  0  0  0  0  0  0
    8.2129    2.6872    6.1302 H   0  0  0  0  0  0  0  0  0  0  0  0
    6.9268    2.6504    3.9846 H   0  0  0  0  0  0  0  0  0  0  0  0
    2.8768    1.6314    2.8763 H   0  0  0  0  0  0  0  0  0  0  0  0
    4.7191    1.8356    3.8567 H   0  0  0  0  0  0  0  0  0  0  0  0
    2.9886    1.1663    4.5388 H   0  0  0  0  0  0  0  0  0  0  0  0
    3.8021   -0.7629    2.1456 H   0  0  0  0  0  0  0  0  0  0  0  0
    5.3877   -0.5657    3.2072 H   0  0  0  0  0  0  0  0  0  0  0  0
    3.6941   -0.9482    4.1308 H   0  0  0  0  0  0  0  0  0  0  0  0
    2.0945   -0.9472    4.2404 H   0  0  0  0  0  0  0  0  0  0  0  0
    3.6254   -0.1524    5.7445 H   0  0  0  0  0  0  0  0  0  0  0  0
  1  2  1  0  0  0  0
  2  5  1  0  0  0  0
  3  1  1  0  0  0  0
  4 41  3  0  0  0  0
  5  6  4  0  0  0  0
  6  7  4  0  0  0  0
  7  8  4  0  0  0  0
  8  9  4  0  0  0  0
  9 10  4  0  0  0  0
 10  5  4  0  0  0  0
 11  2  1  0  0  0  0
 12 11  4  0  0  0  0
 13 12  4  0  0  0  0
 14 13  4  0  0  0  0
 15 14  4  0  0  0  0
 16 11  4  0  0  0  0
 17  2  1  0  0  0  0
 18 17  4  0  0  0  0
 19 18  4  0  0  0  0
 20 19  4  0  0  0  0
 21 20  4  0  0  0  0
 22 17  4  0  0  0  0
 23  3  1  0  0  0  0
 24 23  4  0  0  0  0
 25 24  4  0  0  0  0
 26 25  4  0  0  0  0
 27 26  4  0  0  0  0
 28 23  4  0  0  0  0
 29  3  1  0  0  0  0
 30 29  4  0  0  0  0
 31 30  4  0  0  0  0
 32 31  4  0  0  0  0
 33 32  4  0  0  0  0
 34 29  4  0  0  0  0
 35  3  1  0  0  0  0
 36 35  4  0  0  0  0
 37 36  4  0  0  0  0
 38 37  4  0  0  0  0
 39 38  4  0  0  0  0
 40 35  4  0  0  0  0
 41  1  1  0  0  0  0
 42  1  1  0  0  0  0
 43  1  1  0  0  0  0
 44 42  1  0  0  0  0
 45  6  1  0  0  0  0
 46  7  1  0  0  0  0
 47  8  1  0  0  0  0
 48  9  1  0  0  0  0
 49 10  1  0  0  0  0
 50 12  1  0  0  0  0
 51 13  1  0  0  0  0
 52 14  1  0  0  0  0
 53 15  1  0  0  0  0
 54 16  1  0  0  0  0
 55 18  1  0  0  0  0
 56 19  1  0  0  0  0
 57 20  1  0  0  0  0
 58 21  1  0  0  0  0
 59 22  1  0  0  0  0
 60 24  1  0  0  0  0
 61 25  1  0  0  0  0
 62 26  1  0  0  0  0
 63 27  1  0  0  0  0
 64 28  1  0  0  0  0
 65 30  1  0  0  0  0
 66 31  1  0  0  0  0
 67 32  1  0  0  0  0
 68 33  1  0  0  0  0
 69 34  1  0  0  0  0
 70 36  1  0  0  0  0
 71 37  1  0  0  0  0
 72 38  1  0  0  0  0
 73 39  1  0  0  0  0
 74 40  1  0  0  0  0
 75  1  1  0  0  0  0
 76 42  1  0  0  0  0
 77  1  1  0  0  0  0
 78 42  1  0  0  0  0
 79 43  1  0  0  0  0
 80  1  1  0  0  0  0
 81 43  1  0  0  0  0
 82 44  1  0  0  0  0
 83 44  1  0  0  0  0
 15 16  4  0  0  0  0
 21 22  4  0  0  0  0
 27 28  4  0  0  0  0
 33 34  4  0  0  0  0
 39 40  4  0  0  0  0
 42 43  1  0  0  0  0
 42 77  1  0  0  0  0
 43 44  1  0  0  0  0
 43 80  1  0  0  0  0
 44 81  1  0  0  0  0
M  END
$$$$
HIHQOI

From CSD data. Using bond type 'Any'. No disordered atoms. Largest molecule.
 47 46  0  0  0  0  0  0  0  0999 V2000
    2.5194    2.5624   10.0862 W   0  0  0  0  0  0  0  0  0  0  0  0
    4.7244    2.1580    8.8905 P   0  0  0  0  0  0  0  0  0  0  0  0
    3.7698    4.3696   11.3525 P   0  0  0  0  0  0  0  0  0  0  0  0
   -0.1180    3.1351   11.6656 O   0  0  0  0  0  0  0  0  0  0  0  0
    1.1299    0.3438    8.3731 O   0  0  0  0  0  0  0  0  0  0  0  0
    7.0197    3.3571    7.3287 N   0  3  0  0  0  0  0  0  0  0  0  0
    3.2955    0.3665   12.2435 O   0  0  0  0  0  0  0  0  0  0  0  0
    1.5922    4.6704    7.9033 O   0  0  0  0  0  0  0  0  0  0  0  0
    6.1931    5.0703   13.0164 N   0  3  0  0  0  0  0  0  0  0  0  0
    1.6357    1.1580    9.0135 C   0  0  0  0  0  0  0  0  0  0  0  0
    0.8466    2.9321   11.0853 C   0  0  0  0  0  0  0  0  0  0  0  0
    3.0397    1.1736   11.4744 C   0  0  0  0  0  0  0  0  0  0  0  0
    1.9741    3.9266    8.6799 C   0  0  0  0  0  0  0  0  0  0  0  0
    8.0071    3.0551    8.3966 C   0  0  0  0  0  0  0  0  0  0  0  0
    7.7372    2.2636    8.8664 H   0  0  0  0  0  0  0  0  0  0  0  0
    8.0506    3.7929    9.0099 H   0  0  0  0  0  0  0  0  0  0  0  0
    8.8707    2.9154    8.0020 H   0  0  0  0  0  0  0  0  0  0  0  0
    7.1747    4.5140   13.9840 C   0  0  0  0  0  0  0  0  0  0  0  0
    7.7338    3.8717   13.5388 H   0  0  0  0  0  0  0  0  0  0  0  0
    6.7066    4.0854   14.7039 H   0  0  0  0  0  0  0  0  0  0  0  0
    7.7186    5.2231   14.3332 H   0  0  0  0  0  0  0  0  0  0  0  0
    6.9885    2.2170    6.3715 C   0  0  0  0  0  0  0  0  0  0  0  0
    7.8568    2.1060    5.9793 H   0  0  0  0  0  0  0  0  0  0  0  0
    6.3457    2.3961    5.6820 H   0  0  0  0  0  0  0  0  0  0  0  0
    6.7427    1.4147    6.8369 H   0  0  0  0  0  0  0  0  0  0  0  0
    6.9458    5.7365   11.9169 C   0  0  0  0  0  0  0  0  0  0  0  0
    7.4654    6.4588   12.2763 H   0  0  0  0  0  0  0  0  0  0  0  0
    6.3274    6.0779   11.2667 H   0  0  0  0  0  0  0  0  0  0  0  0
    7.5297    5.0990   11.4990 H   0  0  0  0  0  0  0  0  0  0  0  0
    7.4661    4.5665    6.6011 C   0  0  0  0  0  0  0  0  0  0  0  0
    7.4680    5.3175    7.2008 H   0  0  0  0  0  0  0  0  0  0  0  0
    6.8679    4.7408    5.8717 H   0  0  0  0  0  0  0  0  0  0  0  0
    8.3525    4.4256    6.2612 H   0  0  0  0  0  0  0  0  0  0  0  0
    5.3638    6.0970   13.7148 C   0  0  0  0  0  0  0  0  0  0  0  0
    4.8619    5.6780   14.4169 H   0  0  0  0  0  0  0  0  0  0  0  0
    4.7607    6.5018   13.0878 H   0  0  0  0  0  0  0  0  0  0  0  0
    5.9364    6.7704   14.0889 H   0  0  0  0  0  0  0  0  0  0  0  0
    5.5550    3.6472    7.9439 B   0  5  0  0  0  0  0  0  0  0  0  0
    5.3088    3.8550   12.4557 B   0  5  0  0  0  0  0  0  0  0  0  0
    4.9674    3.2831   13.2655 H   0  0  0  0  0  0  0  0  0  0  0  0
    5.9537    3.1637   11.7707 H   0  0  0  0  0  0  0  0  0  0  0  0
    4.1421    5.3485   10.5714 H   0  0  0  0  0  0  0  0  0  0  0  0
    3.0014    5.0500   12.0970 H   0  0  0  0  0  0  0  0  0  0  0  0
    5.5755    1.6236    9.6523 H   0  0  0  0  0  0  0  0  0  0  0  0
    5.7106    4.4770    8.6273 H   0  0  0  0  0  0  0  0  0  0  0  0
    4.8766    3.8442    7.1581 H   0  0  0  0  0  0  0  0  0  0  0  0
    4.6809    1.1461    8.0122 H   0  0  0  0  0  0  0  0  0  0  0  0
  1  2  1  0  0  0  0
  2 38  1  0  0  0  0
  3  1  1  0  0  0  0
  4 11  3  0  0  0  0
  5 10  3  0  0  0  0
  6 14  1  0  0  0  0
  7 12  3  0  0  0  0
  8 13  3  0  0  0  0
  9 18  1  0  0  0  0
 10  1  1  0  0  0  0
 11  1  1  0  0  0  0
 12  1  1  0  0  0  0
 13  1  1  0  0  0  0
 14 15  1  0  0  0  0
 16 14  1  0  0  0  0
 17 14  1  0  0  0  0
 18 19  1  0  0  0  0
 20 18  1  0  0  0  0
 21 18  1  0  0  0  0
 22  6  1  0  0  0  0
 23 22  1  0  0  0  0
 24 22  1  0  0  0  0
 25 22  1  0  0  0  0
 26  9  1  0  0  0  0
 27 26  1  0  0  0  0
 28 26  1  0  0  0  0
 29 26  1  0  0  0  0
 30  6  1  0  0  0  0
 31 30  1  0  0  0  0
 32 30  1  0  0  0  0
 33 30  1  0  0  0  0
 34  9  1  0  0  0  0
 35 34  1  0  0  0  0
 36 34  1  0  0  0  0
 37 34  1  0  0  0  0
 38  6  1  0  0  0  0
 39  3  1  0  0  0  0
 40 39  1  0  0  0  0
 41 39  1  0  0  0  0
 42  3  1  0  0  0  0
 43  3  1  0  0  0  0
 44  2  1  0  0  0  0
 45 38  1  0  0  0  0
 46 38  1  0  0  0  0
 47  2  1  0  0  0  0
  9 39  1  0  0  0  0
M  CHG  4   6   1   9   1  38  -1  39  -1
M  END
$$$$
HIHRID

From CSD data. Using bond type 'Any'. No disordered atoms. Largest molecule.
 71 70  0  0  0  0  0  0  0  0999 V2000
    1.8463    7.1151    2.5851 Cr  0  0  0  0  0  0  0  0  0  0  0  0
    1.7458    6.3235    4.8843 P   0  0  0  0  0  0  0  0  0  0  0  0
    2.6549    4.9590    1.8244 P   0  0  0  0  0  0  0  0  0  0  0  0
   -1.1623    6.8052    2.3808 O   0  0  0  0  0  0  0  0  0  0  0  0
    1.6923    7.7412   -0.3398 O   0  0  0  0  0  0  0  0  0  0  0  0
    4.6612    8.2505    2.5427 O   0  0  0  0  0  0  0  0  0  0  0  0
    5.5230    4.3703    0.9015 N   0  3  0  0  0  0  0  0  0  0  0  0
   -0.8371    5.7963    6.4804 N   0  3  0  0  0  0  0  0  0  0  0  0
    1.0696    9.9063    3.3742 O   0  0  0  0  0  0  0  0  0  0  0  0
    3.6178    7.7378    2.6061 C   0  0  0  0  0  0  0  0  0  0  0  0
   -0.0030    6.8298    2.4825 C   0  0  0  0  0  0  0  0  0  0  0  0
    3.2715    6.5689    5.9727 C   0  0  0  0  0  0  0  0  0  0  0  0
    0.3527    3.4758    2.2987 C   0  0  0  0  0  0  0  0  0  0  0  0
    0.8129    3.0772    3.0659 H   0  0  0  0  0  0  0  0  0  0  0  0
   -0.3396    2.8611    1.9769 H   0  0  0  0  0  0  0  0  0  0  0  0
   -0.0624    4.3216    2.5694 H   0  0  0  0  0  0  0  0  0  0  0  0
    4.4839    5.9156    5.2976 C   0  0  0  0  0  0  0  0  0  0  0  0
    4.3111    4.9591    5.1714 H   0  0  0  0  0  0  0  0  0  0  0  0
    5.2753    6.0326    5.8633 H   0  0  0  0  0  0  0  0  0  0  0  0
    4.6397    6.3368    4.4265 H   0  0  0  0  0  0  0  0  0  0  0  0
    1.9856    2.4078    0.7582 C   0  0  0  0  0  0  0  0  0  0  0  0
    2.6082    2.5565    0.0159 H   0  0  0  0  0  0  0  0  0  0  0  0
    1.2779    1.7931    0.4723 H   0  0  0  0  0  0  0  0  0  0  0  0
    2.4682    2.0209    1.5174 H   0  0  0  0  0  0  0  0  0  0  0  0
    5.4072    2.8926    1.0755 C   0  0  0  0  0  0  0  0  0  0  0  0
    5.1206    2.4863    0.2308 H   0  0  0  0  0  0  0  0  0  0  0  0
    4.7473    2.6966    1.7727 H   0  0  0  0  0  0  0  0  0  0  0  0
    6.2774    2.5252    1.3360 H   0  0  0  0  0  0  0  0  0  0  0  0
    1.3641    3.7403    1.1751 C   0  0  0  0  0  0  0  0  0  0  0  0
    3.0989    5.9365    7.3513 C   0  0  0  0  0  0  0  0  0  0  0  0
    2.3243    6.3356    7.7997 H   0  0  0  0  0  0  0  0  0  0  0  0
    3.9040    6.0947    7.8869 H   0  0  0  0  0  0  0  0  0  0  0  0
    2.9572    4.9714    7.2524 H   0  0  0  0  0  0  0  0  0  0  0  0
    0.6592    4.3690   -0.0274 C   0  0  0  0  0  0  0  0  0  0  0  0
    0.1883    5.1803    0.2583 H   0  0  0  0  0  0  0  0  0  0  0  0
    0.0142    3.7314   -0.3985 H   0  0  0  0  0  0  0  0  0  0  0  0
    1.3216    4.5998   -0.7111 H   0  0  0  0  0  0  0  0  0  0  0  0
    6.5083    4.6348   -0.1882 C   0  0  0  0  0  0  0  0  0  0  0  0
    7.3754    4.2490    0.0542 H   0  0  0  0  0  0  0  0  0  0  0  0
    6.6042    5.6020   -0.3143 H   0  0  0  0  0  0  0  0  0  0  0  0
    6.1905    4.2271   -1.0213 H   0  0  0  0  0  0  0  0  0  0  0  0
   -1.4883    5.0962    5.3392 C   0  0  0  0  0  0  0  0  0  0  0  0
   -0.8101    4.6109    4.8241 H   0  0  0  0  0  0  0  0  0  0  0  0
   -1.9298    5.7527    4.7618 H   0  0  0  0  0  0  0  0  0  0  0  0
   -2.1531    4.4623    5.6817 H   0  0  0  0  0  0  0  0  0  0  0  0
    3.5078    8.0700    6.1182 C   0  0  0  0  0  0  0  0  0  0  0  0
    3.6363    8.4681    5.2325 H   0  0  0  0  0  0  0  0  0  0  0  0
    4.3065    8.2229    6.6649 H   0  0  0  0  0  0  0  0  0  0  0  0
    2.7313    8.4817    6.5523 H   0  0  0  0  0  0  0  0  0  0  0  0
    1.3694    8.8144    3.1040 C   0  0  0  0  0  0  0  0  0  0  0  0
   -0.2094    4.7800    7.3655 C   0  0  0  0  0  0  0  0  0  0  0  0
   -0.8854    4.1285    7.6460 H   0  0  0  0  0  0  0  0  0  0  0  0
    0.1660    5.2219    8.1561 H   0  0  0  0  0  0  0  0  0  0  0  0
    0.5059    4.3198    6.8787 H   0  0  0  0  0  0  0  0  0  0  0  0
   -1.9060    6.4865    7.2659 C   0  0  0  0  0  0  0  0  0  0  0  0
   -2.3537    7.1471    6.6968 H   0  0  0  0  0  0  0  0  0  0  0  0
   -1.5042    6.9387    8.0369 H   0  0  0  0  0  0  0  0  0  0  0  0
   -2.5596    5.8268    7.5775 H   0  0  0  0  0  0  0  0  0  0  0  0
    1.7730    7.5077    0.7965 C   0  0  0  0  0  0  0  0  0  0  0  0
    4.1220    5.0593    0.4727 B   0  5  0  0  0  0  0  0  0  0  0  0
    6.0663    4.9485    2.1576 C   0  0  0  0  0  0  0  0  0  0  0  0
    5.4763    4.7193    2.9048 H   0  0  0  0  0  0  0  0  0  0  0  0
    6.1211    5.9235    2.0710 H   0  0  0  0  0  0  0  0  0  0  0  0
    6.9613    4.5851    2.3238 H   0  0  0  0  0  0  0  0  0  0  0  0
    0.1850    6.9454    5.9738 B   0  5  0  0  0  0  0  0  0  0  0  0
    1.6758    4.9830    4.9891 H   0  0  0  0  0  0  0  0  0  0  0  0
    3.1098    4.2325    2.7790 H   0  0  0  0  0  0  0  0  0  0  0  0
    4.3556    6.1395    0.2626 H   0  0  0  0  0  0  0  0  0  0  0  0
    0.5513    7.4806    6.9038 H   0  0  0  0  0  0  0  0  0  0  0  0
    3.8153    4.5155   -0.4486 H   0  0  0  0  0  0  0  0  0  0  0  0
   -0.3891    7.6283    5.2954 H   0  0  0  0  0  0  0  0  0  0  0  0
  1  2  1  0  0  0  0
  2 12  1  0  0  0  0
  3  1  1  0  0  0  0
  4 11  3  0  0  0  0
  5 59  3  0  0  0  0
  6 10  3  0  0  0  0
  7 25  1  0  0  0  0
  8 42  1  0  0  0  0
  9 50  3  0  0  0  0
 10  1  1  0  0  0  0
 11  1  1  0  0  0  0
 12 17  1  0  0  0  0
 13 14  1  0  0  0  0
 15 13  1  0  0  0  0
 16 13  1  0  0  0  0
 17 18  1  0  0  0  0
 19 17  1  0  0  0  0
 20 17  1  0  0  0  0
 21 22  1  0  0  0  0
 23 21  1  0  0  0  0
 24 21  1  0  0  0  0
 25 26  1  0  0  0  0
 27 25  1  0  0  0  0
 28 25  1  0  0  0  0
 29  3  1  0  0  0  0
 30 12  1  0  0  0  0
 31 30  1  0  0  0  0
 32 30  1  0  0  0  0
 33 30  1  0  0  0  0
 34 29  1  0  0  0  0
 35 34  1  0  0  0  0
 36 34  1  0  0  0  0
 37 34  1  0  0  0  0
 38  7  1  0  0  0  0
 39 38  1  0  0  0  0
 40 38  1  0  0  0  0
 41 38  1  0  0  0  0
 42 43  1  0  0  0  0
 44 42  1  0  0  0  0
 45 42  1  0  0  0  0
 46 12  1  0  0  0  0
 47 46  1  0  0  0  0
 48 46  1  0  0  0  0
 49 46  1  0  0  0  0
 50  1  1  0  0  0  0
 51  8  1  0  0  0  0
 52 51  1  0  0  0  0
 53 51  1  0  0  0  0
 54 51  1  0  0  0  0
 55  8  1  0  0  0  0
 56 55  1  0  0  0  0
 57 55  1  0  0  0  0
 58 55  1  0  0  0  0
 59  1  1  0  0  0  0
 60  3  1  0  0  0  0
 61  7  1  0  0  0  0
 62 61  1  0  0  0  0
 63 61  1  0  0  0  0
 64 61  1  0  0  0  0
 65  2  1  0  0  0  0
 66  2  1  0  0  0  0
 67  3  1  0  0  0  0
 68 60  1  0  0  0  0
 69 65  1  0  0  0  0
 70 60  1  0  0  0  0
 71 65  1  0  0  0  0
  7 60  1  0  0  0  0
  8 65  1  0  0  0  0
 13 29  1  0  0  0  0
 21 29  1  0  0  0  0
M  CHG  4   7   1   8   1  60  -1  65  -1
M  END
$$$$
HIHROJ

From CSD data. Using bond type 'Any'. No disordered atoms. Largest molecule.
 71 70  0  0  0  0  0  0  0  0999 V2000
    6.4983   11.9508   11.0616 W   0  0  0  0  0  0  0  0  0  0  0  0
    8.6154   10.7128   10.2655 P   0  0  0  0  0  0  0  0  0  0  0  0
    5.0415    9.9806   10.2670 P   0  0  0  0  0  0  0  0  0  0  0  0
    6.7845   10.7327   13.9859 O   0  0  0  0  0  0  0  0  0  0  0  0
    8.2097   14.2872   12.2646 O   0  0  0  0  0  0  0  0  0  0  0  0
    3.9373   13.3927   12.1165 O   0  0  0  0  0  0  0  0  0  0  0  0
    6.1009   13.9209    8.6159 O   0  0  0  0  0  0  0  0  0  0  0  0
   10.7463    9.6904   12.2081 N   0  3  0  0  0  0  0  0  0  0  0  0
    4.6780    7.5555   12.0784 N   0  3  0  0  0  0  0  0  0  0  0  0
    7.6137   13.4037   11.8052 C   0  0  0  0  0  0  0  0  0  0  0  0
    6.2687   13.1302    9.4109 C   0  0  0  0  0  0  0  0  0  0  0  0
    4.8677   12.8362   11.7274 C   0  0  0  0  0  0  0  0  0  0  0  0
   11.1689    8.5648   11.3215 C   0  0  0  0  0  0  0  0  0  0  0  0
   11.8507    8.8834   10.6923 H   0  0  0  0  0  0  0  0  0  0  0  0
   10.3939    8.2337   10.8220 H   0  0  0  0  0  0  0  0  0  0  0  0
   11.5411    7.8410   11.8664 H   0  0  0  0  0  0  0  0  0  0  0  0
    9.1735   10.9104    8.4846 C   0  0  0  0  0  0  0  0  0  0  0  0
    6.6925   11.0927   12.8948 C   0  0  0  0  0  0  0  0  0  0  0  0
   10.2946    9.9262    8.1413 C   0  0  0  0  0  0  0  0  0  0  0  0
   11.0513   10.0685    8.7463 H   0  0  0  0  0  0  0  0  0  0  0  0
   10.5840   10.0705    7.2157 H   0  0  0  0  0  0  0  0  0  0  0  0
    9.9648    9.0082    8.2400 H   0  0  0  0  0  0  0  0  0  0  0  0
    3.7347   10.2485    8.9028 C   0  0  0  0  0  0  0  0  0  0  0  0
    2.7000   11.2232    9.4369 C   0  0  0  0  0  0  0  0  0  0  0  0
    2.2690   10.8405   10.2294 H   0  0  0  0  0  0  0  0  0  0  0  0
    2.0235   11.3915    8.7471 H   0  0  0  0  0  0  0  0  0  0  0  0
    3.1375   12.0660    9.6772 H   0  0  0  0  0  0  0  0  0  0  0  0
    4.3909   10.8302    7.6499 C   0  0  0  0  0  0  0  0  0  0  0  0
    4.8328   11.6755    7.8759 H   0  0  0  0  0  0  0  0  0  0  0  0
    3.7065   10.9912    6.9680 H   0  0  0  0  0  0  0  0  0  0  0  0
    5.0543   10.1969    7.3051 H   0  0  0  0  0  0  0  0  0  0  0  0
   11.9304   10.1228   13.0169 C   0  0  0  0  0  0  0  0  0  0  0  0
   12.1648    9.4178   13.6562 H   0  0  0  0  0  0  0  0  0  0  0  0
   11.7103   10.9446   13.5038 H   0  0  0  0  0  0  0  0  0  0  0  0
   12.6903   10.2897   12.4214 H   0  0  0  0  0  0  0  0  0  0  0  0
    9.6598   12.3473    8.2679 C   0  0  0  0  0  0  0  0  0  0  0  0
    8.9574   12.9736    8.5407 H   0  0  0  0  0  0  0  0  0  0  0  0
    9.8670   12.4818    7.3193 H   0  0  0  0  0  0  0  0  0  0  0  0
   10.4644   12.5036    8.8038 H   0  0  0  0  0  0  0  0  0  0  0  0
   10.2337   10.9780   11.3764 B   0  5  0  0  0  0  0  0  0  0  0  0
    7.9818   10.6463    7.5553 C   0  0  0  0  0  0  0  0  0  0  0  0
    7.6775    9.7215    7.6690 H   0  0  0  0  0  0  0  0  0  0  0  0
    8.2540   10.7889    6.6253 H   0  0  0  0  0  0  0  0  0  0  0  0
    7.2508   11.2599    7.7798 H   0  0  0  0  0  0  0  0  0  0  0  0
    4.5640    6.6091   10.9476 C   0  0  0  0  0  0  0  0  0  0  0  0
    3.6333    6.5761   10.6421 H   0  0  0  0  0  0  0  0  0  0  0  0
    4.8447    5.7170   11.2384 H   0  0  0  0  0  0  0  0  0  0  0  0
    5.1384    6.9094   10.2122 H   0  0  0  0  0  0  0  0  0  0  0  0
    4.0751    9.0239   11.7244 B   0  5  0  0  0  0  0  0  0  0  0  0
    9.6966    9.2046   13.1436 C   0  0  0  0  0  0  0  0  0  0  0  0
    8.9329    8.8677   12.6304 H   0  0  0  0  0  0  0  0  0  0  0  0
    9.4047    9.9431   13.7176 H   0  0  0  0  0  0  0  0  0  0  0  0
   10.0614    8.4839   13.6981 H   0  0  0  0  0  0  0  0  0  0  0  0
    3.0625    8.9405    8.5121 C   0  0  0  0  0  0  0  0  0  0  0  0
    3.7350    8.3193    8.1613 H   0  0  0  0  0  0  0  0  0  0  0  0
    2.3865    9.1125    7.8245 H   0  0  0  0  0  0  0  0  0  0  0  0
    2.6339    8.5453    9.3003 H   0  0  0  0  0  0  0  0  0  0  0  0
    6.0895    7.6656   12.4919 C   0  0  0  0  0  0  0  0  0  0  0  0
    6.4634    6.7691   12.6183 H   0  0  0  0  0  0  0  0  0  0  0  0
    6.1450    8.1648   13.3335 H   0  0  0  0  0  0  0  0  0  0  0  0
    6.5964    8.1370   11.7984 H   0  0  0  0  0  0  0  0  0  0  0  0
    3.8735    7.0210   13.1909 C   0  0  0  0  0  0  0  0  0  0  0  0
    2.9400    6.9331   12.9063 H   0  0  0  0  0  0  0  0  0  0  0  0
    3.9260    7.6323   13.9552 H   0  0  0  0  0  0  0  0  0  0  0  0
    4.2199    6.1420   13.4515 H   0  0  0  0  0  0  0  0  0  0  0  0
    3.0410    8.6780   11.5824 H   0  0  0  0  0  0  0  0  0  0  0  0
   11.0660   11.2720   10.8042 H   0  0  0  0  0  0  0  0  0  0  0  0
    8.4723    9.3854   10.1938 H   0  0  0  0  0  0  0  0  0  0  0  0
    9.9770   11.7436   12.1928 H   0  0  0  0  0  0  0  0  0  0  0  0
    4.1411    9.5584   12.6964 H   0  0  0  0  0  0  0  0  0  0  0  0
    5.8435    8.9610    9.6139 H   0  0  0  0  0  0  0  0  0  0  0  0
  1  2  1  0  0  0  0
  2 17  1  0  0  0  0
  3  1  1  0  0  0  0
  4 18  3  0  0  0  0
  5 10  3  0  0  0  0
  6 12  3  0  0  0  0
  7 11  3  0  0  0  0
  8 13  1  0  0  0  0
  9 45  1  0  0  0  0
 10  1  1  0  0  0  0
 11  1  1  0  0  0  0
 12  1  1  0  0  0  0
 13 14  1  0  0  0  0
 15 13  1  0  0  0  0
 16 13  1  0  0  0  0
 17 19  1  0  0  0  0
 18  1  1  0  0  0  0
 19 20  1  0  0  0  0
 21 19  1  0  0  0  0
 22 19  1  0  0  0  0
 23  3  1  0  0  0  0
 24 23  1  0  0  0  0
 25 24  1  0  0  0  0
 26 24  1  0  0  0  0
 27 24  1  0  0  0  0
 28 23  1  0  0  0  0
 29 28  1  0  0  0  0
 30 28  1  0  0  0  0
 31 28  1  0  0  0  0
 32  8  1  0  0  0  0
 33 32  1  0  0  0  0
 34 32  1  0  0  0  0
 35 32  1  0  0  0  0
 36 17  1  0  0  0  0
 37 36  1  0  0  0  0
 38 36  1  0  0  0  0
 39 36  1  0  0  0  0
 40  2  1  0  0  0  0
 41 17  1  0  0  0  0
 42 41  1  0  0  0  0
 43 41  1  0  0  0  0
 44 41  1  0  0  0  0
 45 46  1  0  0  0  0
 47 45  1  0  0  0  0
 48 45  1  0  0  0  0
 49  3  1  0  0  0  0
 50  8  1  0  0  0  0
 51 50  1  0  0  0  0
 52 50  1  0  0  0  0
 53 50  1  0  0  0  0
 54 23  1  0  0  0  0
 55 54  1  0  0  0  0
 56 54  1  0  0  0  0
 57 54  1  0  0  0  0
 58  9  1  0  0  0  0
 59 58  1  0  0  0  0
 60 58  1  0  0  0  0
 61 58  1  0  0  0  0
 62  9  1  0  0  0  0
 63 62  1  0  0  0  0
 64 62  1  0  0  0  0
 65 62  1  0  0  0  0
 66 49  1  0  0  0  0
 67 40  1  0  0  0  0
 68  2  1  0  0  0  0
 69 40  1  0  0  0  0
 70 49  1  0  0  0  0
 71  3  1  0  0  0  0
  8 40  1  0  0  0  0
  9 49  1  0  0  0  0
M  CHG  4   8   1   9   1  40  -1  49  -1
M  END
$$$$
HIHZIJ

From CSD data. Using bond type 'Any'. No disordered atoms. Largest molecule.
 89113  0  0  0  0  0  0  0  0999 V2000
   11.3938    9.2381    2.4000 Ir  0  0  0  0  0  0  0  0  0  0  0  0
   14.3936    7.9602    2.0125 P   0  0  0  0  0  0  0  0  0  0  0  0
   11.9147    8.1119    4.3575 P   0  0  0  0  0  0  0  0  0  0  0  0
   13.1561    8.6601    1.4935 O   0  0  0  0  0  0  0  0  0  0  0  0
   11.2842   10.7720    0.8423 C   0  0  0  0  0  0  0  0  0  0  0  0
   12.2130   10.7989    0.8677 H   0  0  0  0  0  0  0  0  0  0  0  0
   10.7504    9.6422    0.3837 C   0  0  0  0  0  0  0  0  0  0  0  0
   11.3190    8.9585    0.1115 H   0  0  0  0  0  0  0  0  0  0  0  0
   16.6612    7.3776    0.4649 C   0  0  0  0  0  0  0  0  0  0  0  0
   17.1683    7.4284    1.2435 H   0  0  0  0  0  0  0  0  0  0  0  0
    9.3122    9.5559    2.8022 C   0  0  0  0  0  0  0  0  0  0  0  0
    9.3261    8.7272    3.2226 H   0  0  0  0  0  0  0  0  0  0  0  0
   14.0509    6.5335    3.0251 C   0  0  0  0  0  0  0  0  0  0  0  0
   12.9185    6.5536    4.1524 C   0  0  0  0  0  0  0  0  0  0  0  0
    9.4942    6.8202    4.6253 C   0  0  0  0  0  0  0  0  0  0  0  0
    9.6501    6.5622    3.7464 H   0  0  0  0  0  0  0  0  0  0  0  0
   12.5702    5.6699    2.6940 B   0  0  0  0  0  0  0  0  0  0  0  0
   11.7956    5.9396    1.9616 H   0  0  0  0  0  0  0  0  0  0  0  0
   10.0579   10.6185    3.3595 C   0  0  0  0  0  0  0  0  0  0  0  0
   10.4882   10.4628    4.1699 H   0  0  0  0  0  0  0  0  0  0  0  0
   10.4485    7.5788    5.2749 C   0  0  0  0  0  0  0  0  0  0  0  0
   10.1575    7.9752    6.5645 C   0  0  0  0  0  0  0  0  0  0  0  0
   10.7553    8.5298    7.0119 H   0  0  0  0  0  0  0  0  0  0  0  0
   12.8783    9.1839    5.4548 C   0  0  0  0  0  0  0  0  0  0  0  0
   15.4278    9.0912    2.9423 C   0  0  0  0  0  0  0  0  0  0  0  0
   14.5498    7.3637   -0.6528 C   0  0  0  0  0  0  0  0  0  0  0  0
   13.6215    7.3906   -0.6209 H   0  0  0  0  0  0  0  0  0  0  0  0
   17.2736    7.1642   -0.7547 C   0  0  0  0  0  0  0  0  0  0  0  0
   18.1985    7.0821   -0.7913 H   0  0  0  0  0  0  0  0  0  0  0  0
   15.2666    7.5168    0.5175 C   0  0  0  0  0  0  0  0  0  0  0  0
   16.9606   11.0578    4.1444 C   0  0  0  0  0  0  0  0  0  0  0  0
   17.4621   11.7131    4.5711 H   0  0  0  0  0  0  0  0  0  0  0  0
   15.4826   10.4054    2.4313 C   0  0  0  0  0  0  0  0  0  0  0  0
   14.9865   10.6260    1.6766 H   0  0  0  0  0  0  0  0  0  0  0  0
   16.5506    7.0723   -1.8979 C   0  0  0  0  0  0  0  0  0  0  0  0
   16.9836    6.9400   -2.7099 H   0  0  0  0  0  0  0  0  0  0  0  0
    9.0032    7.5706    7.2157 C   0  0  0  0  0  0  0  0  0  0  0  0
    8.8343    7.8048    8.1010 H   0  0  0  0  0  0  0  0  0  0  0  0
   13.3520    8.8087    6.7174 C   0  0  0  0  0  0  0  0  0  0  0  0
   13.2203    7.9370    7.0103 H   0  0  0  0  0  0  0  0  0  0  0  0
   13.0794   10.4796    5.0631 C   0  0  0  0  0  0  0  0  0  0  0  0
   12.7634   10.7604    4.2352 H   0  0  0  0  0  0  0  0  0  0  0  0
   12.2143    5.0048    4.2798 B   0  0  0  0  0  0  0  0  0  0  0  0
   11.1749    4.7954    4.5695 H   0  0  0  0  0  0  0  0  0  0  0  0
   14.2203   10.9884    7.1473 C   0  0  0  0  0  0  0  0  0  0  0  0
   14.6625   11.5844    7.7061 H   0  0  0  0  0  0  0  0  0  0  0  0
    8.1026    6.7938    6.4786 C   0  0  0  0  0  0  0  0  0  0  0  0
    7.3126    6.5192    6.8862 H   0  0  0  0  0  0  0  0  0  0  0  0
   15.3192    5.5999    3.3404 B   0  0  0  0  0  0  0  0  0  0  0  0
   16.2822    6.1279    3.2671 H   0  0  0  0  0  0  0  0  0  0  0  0
   15.1677    7.1750   -1.8597 C   0  0  0  0  0  0  0  0  0  0  0  0
   14.6673    7.1155   -2.6430 H   0  0  0  0  0  0  0  0  0  0  0  0
    8.4949    9.7265    1.5492 C   0  0  0  0  0  0  0  0  0  0  0  0
    7.7167    9.1505    1.6065 H   0  0  0  0  0  0  0  0  0  0  0  0
    8.1778   10.6428    1.5078 H   0  0  0  0  0  0  0  0  0  0  0  0
    8.3319    6.4362    5.2239 C   0  0  0  0  0  0  0  0  0  0  0  0
    7.7079    5.9293    4.7574 H   0  0  0  0  0  0  0  0  0  0  0  0
    9.2220    9.4183    0.2850 C   0  0  0  0  0  0  0  0  0  0  0  0
    8.8685    9.9772   -0.4251 H   0  0  0  0  0  0  0  0  0  0  0  0
    9.0558    8.4938    0.0430 H   0  0  0  0  0  0  0  0  0  0  0  0
   16.9386    9.7683    4.6539 C   0  0  0  0  0  0  0  0  0  0  0  0
   17.4525    9.5540    5.3991 H   0  0  0  0  0  0  0  0  0  0  0  0
   13.7624   11.4008    5.8974 C   0  0  0  0  0  0  0  0  0  0  0  0
   13.9042   12.2738    5.6124 H   0  0  0  0  0  0  0  0  0  0  0  0
   13.3678    5.6428    5.4166 B   0  0  0  0  0  0  0  0  0  0  0  0
   16.1425    8.7863    4.0505 C   0  0  0  0  0  0  0  0  0  0  0  0
   16.0958    7.9324    4.4151 H   0  0  0  0  0  0  0  0  0  0  0  0
   14.0116    9.7026    7.5374 C   0  0  0  0  0  0  0  0  0  0  0  0
   14.3164    9.4203    8.3701 H   0  0  0  0  0  0  0  0  0  0  0  0
   16.2651   11.3660    3.0426 C   0  0  0  0  0  0  0  0  0  0  0  0
   16.3096   12.2250    2.6876 H   0  0  0  0  0  0  0  0  0  0  0  0
   10.2105   11.9797    2.7449 C   0  0  0  0  0  0  0  0  0  0  0  0
    9.3730   12.4576    2.8580 H   0  0  0  0  0  0  0  0  0  0  0  0
   10.8878   12.4628    3.2449 H   0  0  0  0  0  0  0  0  0  0  0  0
   14.7235    3.9756    3.4900 B   0  0  0  0  0  0  0  0  0  0  0  0
   15.3404    3.0946    3.2640 H   0  0  0  0  0  0  0  0  0  0  0  0
   13.0146    4.0141    3.0729 B   0  0  0  0  0  0  0  0  0  0  0  0
   12.5207    3.1642    2.5809 H   0  0  0  0  0  0  0  0  0  0  0  0
   13.5170    3.9729    4.8450 B   0  0  0  0  0  0  0  0  0  0  0  0
   13.3443    3.1169    5.5137 H   0  0  0  0  0  0  0  0  0  0  0  0
   15.0444    4.9007    4.9994 B   0  0  0  0  0  0  0  0  0  0  0  0
   15.8536    5.0170    5.7366 H   0  0  0  0  0  0  0  0  0  0  0  0
   14.1432    5.0133    2.2195 B   0  0  0  0  0  0  0  0  0  0  0  0
   14.3785    4.8437    1.1591 H   0  0  0  0  0  0  0  0  0  0  0  0
   10.5718   12.0207    1.3279 C   0  0  0  0  0  0  0  0  0  0  0  0
   11.1458   12.7877    1.1734 H   0  0  0  0  0  0  0  0  0  0  0  0
    9.7660   12.1451    0.8025 H   0  0  0  0  0  0  0  0  0  0  0  0
   14.5818    6.0489    5.2383 H   0  0  0  0  0  0  0  0  0  0  0  0
   13.1751    5.7129    6.3369 H   0  0  0  0  0  0  0  0  0  0  0  0
  1  3  1  0  0  0  0
  2  4  2  0  0  0  0
  3 14  1  0  0  0  0
  4  1  1  0  0  0  0
  5  1  8  0  0  0  0
  6  5  1  0  0  0  0
  7  1  8  0  0  0  0
  8  7  1  0  0  0  0
  9 10  1  0  0  0  0
 11  1  8  0  0  0  0
 12 11  1  0  0  0  0
 13  2  1  0  0  0  0
 14 13  1  0  0  0  0
 15 16  1  0  0  0  0
 17 13  1  0  0  0  0
 18 17  1  0  0  0  0
 19  1  8  0  0  0  0
 20 19  1  0  0  0  0
 21  3  1  0  0  0  0
 22 21  4  0  0  0  0
 23 22  1  0  0  0  0
 24  3  1  0  0  0  0
 25  2  1  0  0  0  0
 26 27  1  0  0  0  0
 28  9  4  0  0  0  0
 29 28  1  0  0  0  0
 30  2  1  0  0  0  0
 31 32  1  0  0  0  0
 33 25  4  0  0  0  0
 34 33  1  0  0  0  0
 35 28  4  0  0  0  0
 36 35  1  0  0  0  0
 37 22  4  0  0  0  0
 38 37  1  0  0  0  0
 39 24  4  0  0  0  0
 40 39  1  0  0  0  0
 41 24  4  0  0  0  0
 42 41  1  0  0  0  0
 43 14  1  0  0  0  0
 44 43  1  0  0  0  0
 45 46  1  0  0  0  0
 47 37  4  0  0  0  0
 48 47  1  0  0  0  0
 49 13  1  0  0  0  0
 50 49  1  0  0  0  0
 51 26  4  0  0  0  0
 52 51  1  0  0  0  0
 53 11  1  0  0  0  0
 54 53  1  0  0  0  0
 55 53  1  0  0  0  0
 56 15  4  0  0  0  0
 57 56  1  0  0  0  0
 58  7  1  0  0  0  0
 59 58  1  0  0  0  0
 60 58  1  0  0  0  0
 61 31  4  0  0  0  0
 62 61  1  0  0  0  0
 63 41  4  0  0  0  0
 64 63  1  0  0  0  0
 65 14  1  0  0  0  0
 66 25  4  0  0  0  0
 67 66  1  0  0  0  0
 68 39  4  0  0  0  0
 69 68  1  0  0  0  0
 70 31  4  0  0  0  0
 71 70  1  0  0  0  0
 72 19  1  0  0  0  0
 73 72  1  0  0  0  0
 74 72  1  0  0  0  0
 75 49  1  0  0  0  0
 76 75  1  0  0  0  0
 77 17  1  0  0  0  0
 78 77  1  0  0  0  0
 79 43  1  0  0  0  0
 80 79  1  0  0  0  0
 81 49  1  0  0  0  0
 82 81  1  0  0  0  0
 83 13  1  0  0  0  0
 84 83  1  0  0  0  0
 85  5  1  0  0  0  0
 86 85  1  0  0  0  0
 87 85  1  0  0  0  0
 88 65  1  0  0  0  0
 89 65  1  0  0  0  0
  5  7  2  0  0  0  0
  9 30  4  0  0  0  0
 11 19  2  0  0  0  0
 14 17  1  0  0  0  0
 15 21  4  0  0  0  0
 17 43  1  0  0  0  0
 17 83  1  0  0  0  0
 26 30  4  0  0  0  0
 33 70  4  0  0  0  0
 35 51  4  0  0  0  0
 43 65  1  0  0  0  0
 43 77  1  0  0  0  0
 45 63  4  0  0  0  0
 45 68  4  0  0  0  0
 47 56  4  0  0  0  0
 49 83  1  0  0  0  0
 53 58  1  0  0  0  0
 61 66  4  0  0  0  0
 65 79  1  0  0  0  0
 65 81  1  0  0  0  0
 72 85  1  0  0  0  0
 75 77  1  0  0  0  0
 75 79  1  0  0  0  0
 75 81  1  0  0  0  0
 75 83  1  0  0  0  0
 77 79  1  0  0  0  0
 77 83  1  0  0  0  0
 79 81  1  0  0  0  0
 81 88  1  0  0  0  0
M  END
$$$$
HIHZOP

From CSD data. Using bond type 'Any'. No disordered atoms. Largest molecule.
137176  0  0  0  0  0  0  0  0999 V2000
   11.5552    9.4921    4.3455 Ni  0  0  0  0  0  0  0  0  0  0  0  0
   13.5772    9.8306    6.9022 P   0  0  0  0  0  0  0  0  0  0  0  0
   13.6180    6.9984    4.7939 P   0  0  0  0  0  0  0  0  0  0  0  0
   10.5100   11.3741    4.3115 P   0  0  0  0  0  0  0  0  0  0  0  0
   10.5287    8.9349    2.5459 P   0  0  0  0  0  0  0  0  0  0  0  0
   12.4389   10.0057    5.9368 O   0  0  0  0  0  0  0  0  0  0  0  0
   12.4564    7.8227    4.3041 O   0  0  0  0  0  0  0  0  0  0  0  0
   12.2794    7.1888    7.4946 B   0  0  0  0  0  0  0  0  0  0  0  0
   11.3168    7.5079    7.0701 H   0  0  0  0  0  0  0  0  0  0  0  0
    9.4512    7.5070    2.8478 C   0  0  0  0  0  0  0  0  0  0  0  0
   11.7410    8.3975    1.3036 C   0  0  0  0  0  0  0  0  0  0  0  0
    9.5722   10.3191    1.8426 C   0  0  0  0  0  0  0  0  0  0  0  0
    9.5515   11.5966    2.7749 C   0  0  0  0  0  0  0  0  0  0  0  0
   13.2499   10.9601    8.2729 C   0  0  0  0  0  0  0  0  0  0  0  0
   11.8835    3.6745    3.2744 C   0  0  0  0  0  0  0  0  0  0  0  0
   11.0149    3.3692    3.1404 H   0  0  0  0  0  0  0  0  0  0  0  0
   13.5554   13.9434    3.4145 C   0  0  0  0  0  0  0  0  0  0  0  0
   14.0517   14.1796    2.6644 H   0  0  0  0  0  0  0  0  0  0  0  0
    9.4332   11.6105    5.7571 C   0  0  0  0  0  0  0  0  0  0  0  0
   12.0357    7.0721    1.1282 C   0  0  0  0  0  0  0  0  0  0  0  0
   11.5616    6.4271    1.6011 H   0  0  0  0  0  0  0  0  0  0  0  0
   13.3876    5.3544    4.1028 C   0  0  0  0  0  0  0  0  0  0  0  0
   13.7452    6.8697    6.5931 C   0  0  0  0  0  0  0  0  0  0  0  0
   15.1320   10.3242    6.1589 C   0  0  0  0  0  0  0  0  0  0  0  0
   15.1626    7.5850    4.0984 C   0  0  0  0  0  0  0  0  0  0  0  0
   14.2271    3.3511    3.0827 C   0  0  0  0  0  0  0  0  0  0  0  0
   14.9446    2.8196    2.8231 H   0  0  0  0  0  0  0  0  0  0  0  0
   11.7544   12.6921    4.4115 C   0  0  0  0  0  0  0  0  0  0  0  0
   13.7178    8.1498    7.5533 C   0  0  0  0  0  0  0  0  0  0  0  0
    9.2135    7.1003    4.1477 C   0  0  0  0  0  0  0  0  0  0  0  0
    9.5728    7.5750    4.8611 H   0  0  0  0  0  0  0  0  0  0  0  0
    7.9779   11.5097    0.0227 B   0  0  0  0  0  0  0  0  0  0  0  0
    7.4572   11.4677   -0.9438 H   0  0  0  0  0  0  0  0  0  0  0  0
   12.0951    4.8883    3.8885 C   0  0  0  0  0  0  0  0  0  0  0  0
   11.3693    5.4008    4.1625 H   0  0  0  0  0  0  0  0  0  0  0  0
    8.0949    5.6851    2.0648 C   0  0  0  0  0  0  0  0  0  0  0  0
    7.7196    5.2116    1.3580 H   0  0  0  0  0  0  0  0  0  0  0  0
   12.5577   12.8387   10.1817 C   0  0  0  0  0  0  0  0  0  0  0  0
   12.3279   13.4786   10.8164 H   0  0  0  0  0  0  0  0  0  0  0  0
   14.4631    4.5623    3.6824 C   0  0  0  0  0  0  0  0  0  0  0  0
   15.3375    4.8576    3.8102 H   0  0  0  0  0  0  0  0  0  0  0  0
   12.4795    9.3552    0.6110 C   0  0  0  0  0  0  0  0  0  0  0  0
   12.3103   10.2601    0.7398 H   0  0  0  0  0  0  0  0  0  0  0  0
    8.1335   10.6278    2.7427 B   0  0  0  0  0  0  0  0  0  0  0  0
    7.7549   10.0130    3.5732 H   0  0  0  0  0  0  0  0  0  0  0  0
    8.8709    6.7963    1.8140 C   0  0  0  0  0  0  0  0  0  0  0  0
    9.0061    7.0729    0.9355 H   0  0  0  0  0  0  0  0  0  0  0  0
    8.9636   12.8625    6.1037 C   0  0  0  0  0  0  0  0  0  0  0  0
    9.1622   13.5998    5.5720 H   0  0  0  0  0  0  0  0  0  0  0  0
    9.1101   10.5191    6.5552 C   0  0  0  0  0  0  0  0  0  0  0  0
    9.4023    9.6685    6.3180 H   0  0  0  0  0  0  0  0  0  0  0  0
    8.0447   10.0947    1.0571 B   0  0  0  0  0  0  0  0  0  0  0  0
    7.5687    9.1415    0.7872 H   0  0  0  0  0  0  0  0  0  0  0  0
   12.5153   13.0450    3.3006 C   0  0  0  0  0  0  0  0  0  0  0  0
   12.3193   12.6705    2.4728 H   0  0  0  0  0  0  0  0  0  0  0  0
   11.5856   12.1146    9.5532 C   0  0  0  0  0  0  0  0  0  0  0  0
   10.6910   12.2538    9.7675 H   0  0  0  0  0  0  0  0  0  0  0  0
   15.1128    8.2448    2.8973 C   0  0  0  0  0  0  0  0  0  0  0  0
   14.2862    8.4440    2.5202 H   0  0  0  0  0  0  0  0  0  0  0  0
   11.9225   11.1820    8.6074 C   0  0  0  0  0  0  0  0  0  0  0  0
   11.2546   10.6914    8.1870 H   0  0  0  0  0  0  0  0  0  0  0  0
   17.4624   11.2845    5.0012 C   0  0  0  0  0  0  0  0  0  0  0  0
   18.2471   11.5985    4.6118 H   0  0  0  0  0  0  0  0  0  0  0  0
    9.5362   10.6974    0.2514 B   0  0  0  0  0  0  0  0  0  0  0  0
   10.0742    9.9921   -0.3998 H   0  0  0  0  0  0  0  0  0  0  0  0
   14.2357   11.6895    8.9103 C   0  0  0  0  0  0  0  0  0  0  0  0
   15.1295   11.5542    8.6960 H   0  0  0  0  0  0  0  0  0  0  0  0
   13.7286    7.6144   -0.4636 C   0  0  0  0  0  0  0  0  0  0  0  0
   14.3753    7.3475   -1.0757 H   0  0  0  0  0  0  0  0  0  0  0  0
   17.4858    8.3405    2.7716 C   0  0  0  0  0  0  0  0  0  0  0  0
   18.2626    8.5922    2.3265 H   0  0  0  0  0  0  0  0  0  0  0  0
   14.6580    7.9323    8.8938 B   0  0  0  0  0  0  0  0  0  0  0  0
   15.1015    8.8734    9.2585 H   0  0  0  0  0  0  0  0  0  0  0  0
   13.4705    8.9484   -0.2761 C   0  0  0  0  0  0  0  0  0  0  0  0
   13.9608    9.5840   -0.7439 H   0  0  0  0  0  0  0  0  0  0  0  0
   12.0988   13.2330    5.6400 C   0  0  0  0  0  0  0  0  0  0  0  0
   11.6248   12.9873    6.4004 H   0  0  0  0  0  0  0  0  0  0  0  0
   16.4033    7.3137    4.6468 C   0  0  0  0  0  0  0  0  0  0  0  0
   16.4676    6.8816    5.4669 H   0  0  0  0  0  0  0  0  0  0  0  0
    7.8745    5.2745    3.3568 C   0  0  0  0  0  0  0  0  0  0  0  0
    7.3499    4.5268    3.5278 H   0  0  0  0  0  0  0  0  0  0  0  0
    8.4294    5.9703    4.3789 C   0  0  0  0  0  0  0  0  0  0  0  0
    8.2846    5.6890    5.2526 H   0  0  0  0  0  0  0  0  0  0  0  0
    9.4919   12.9940    1.9597 B   0  0  0  0  0  0  0  0  0  0  0  0
   10.3040   13.6934    2.2049 H   0  0  0  0  0  0  0  0  0  0  0  0
   15.0936   11.0336    4.9641 C   0  0  0  0  0  0  0  0  0  0  0  0
   14.2776   11.1984    4.5520 H   0  0  0  0  0  0  0  0  0  0  0  0
   13.8594   14.4904    4.6344 C   0  0  0  0  0  0  0  0  0  0  0  0
   14.5538   15.1030    4.7086 H   0  0  0  0  0  0  0  0  0  0  0  0
    8.3492   10.6946    7.7110 C   0  0  0  0  0  0  0  0  0  0  0  0
    8.1379    9.9656    8.2468 H   0  0  0  0  0  0  0  0  0  0  0  0
   14.6807    5.6673    7.1773 B   0  0  0  0  0  0  0  0  0  0  0  0
   15.4638    5.3377    6.4787 H   0  0  0  0  0  0  0  0  0  0  0  0
   12.8817    7.8126    9.0484 B   0  0  0  0  0  0  0  0  0  0  0  0
   12.2864    8.5162    9.6480 H   0  0  0  0  0  0  0  0  0  0  0  0
   12.9463    2.9144    2.8623 C   0  0  0  0  0  0  0  0  0  0  0  0
   12.7987    2.1027    2.4316 H   0  0  0  0  0  0  0  0  0  0  0  0
   16.3681   10.1218    6.7713 C   0  0  0  0  0  0  0  0  0  0  0  0
   16.4168    9.6536    7.5750 H   0  0  0  0  0  0  0  0  0  0  0  0
    7.9196   11.9392    8.0448 C   0  0  0  0  0  0  0  0  0  0  0  0
    7.4317   12.0563    8.8279 H   0  0  0  0  0  0  0  0  0  0  0  0
   13.0423    6.6838    0.2452 C   0  0  0  0  0  0  0  0  0  0  0  0
   13.2439    5.7810    0.1422 H   0  0  0  0  0  0  0  0  0  0  0  0
   13.1346   14.1301    5.7472 C   0  0  0  0  0  0  0  0  0  0  0  0
   13.3470   14.4959    6.5756 H   0  0  0  0  0  0  0  0  0  0  0  0
    7.0839   11.4731    1.5826 B   0  0  0  0  0  0  0  0  0  0  0  0
    5.9861   11.4255    1.6362 H   0  0  0  0  0  0  0  0  0  0  0  0
   13.8849   12.6193    9.8685 C   0  0  0  0  0  0  0  0  0  0  0  0
   14.5473   13.1005   10.3074 H   0  0  0  0  0  0  0  0  0  0  0  0
   13.9212    6.6040    9.7675 B   0  0  0  0  0  0  0  0  0  0  0  0
   14.0029    6.5321   10.8638 H   0  0  0  0  0  0  0  0  0  0  0  0
   17.5180   10.6145    6.1882 C   0  0  0  0  0  0  0  0  0  0  0  0
   18.3386   10.4893    6.6085 H   0  0  0  0  0  0  0  0  0  0  0  0
   16.2706   11.4987    4.3830 C   0  0  0  0  0  0  0  0  0  0  0  0
   16.2406   11.9543    3.5732 H   0  0  0  0  0  0  0  0  0  0  0  0
   16.2718    8.6209    2.2317 C   0  0  0  0  0  0  0  0  0  0  0  0
   16.2162    9.0644    1.4177 H   0  0  0  0  0  0  0  0  0  0  0  0
   17.5646    7.6977    3.9544 C   0  0  0  0  0  0  0  0  0  0  0  0
   18.3992    7.5049    4.3171 H   0  0  0  0  0  0  0  0  0  0  0  0
    8.1878   13.0183    7.2638 C   0  0  0  0  0  0  0  0  0  0  0  0
    7.8585   13.8564    7.4946 H   0  0  0  0  0  0  0  0  0  0  0  0
    8.0227   12.3897    2.7427 B   0  0  0  0  0  0  0  0  0  0  0  0
    7.5324   12.9256    3.5691 H   0  0  0  0  0  0  0  0  0  0  0  0
   15.3253    6.2266    8.7970 B   0  0  0  0  0  0  0  0  0  0  0  0
   16.4071    6.1161    8.9597 H   0  0  0  0  0  0  0  0  0  0  0  0
    7.9561   12.9580    1.0901 B   0  0  0  0  0  0  0  0  0  0  0  0
    7.4220   13.8847    0.8325 H   0  0  0  0  0  0  0  0  0  0  0  0
   13.9444    5.1760    8.6712 B   0  0  0  0  0  0  0  0  0  0  0  0
   14.0441    4.1395    9.0257 H   0  0  0  0  0  0  0  0  0  0  0  0
    9.4014   12.5337    0.1772 B   0  0  0  0  0  0  0  0  0  0  0  0
   10.1077   13.0436   -0.4946 H   0  0  0  0  0  0  0  0  0  0  0  0
   12.4303    6.1227    8.8979 B   0  0  0  0  0  0  0  0  0  0  0  0
   11.5515    5.7168    9.4193 H   0  0  0  0  0  0  0  0  0  0  0  0
   12.9026    5.5404    7.3133 B   0  0  0  0  0  0  0  0  0  0  0  0
   12.3132    4.7730    6.7899 H   0  0  0  0  0  0  0  0  0  0  0  0
   15.6379    6.9652    7.9335 H   0  0  0  0  0  0  0  0  0  0  0  0
   10.2254   11.9689    0.7624 H   0  0  0  0  0  0  0  0  0  0  0  0
  1  4  1  0  0  0  0
  2  6  2  0  0  0  0
  3  7  2  0  0  0  0
  4 13  1  0  0  0  0
  5  1  1  0  0  0  0
  6  1  1  0  0  0  0
  7  1  1  0  0  0  0
  8  9  1  0  0  0  0
 10  5  1  0  0  0  0
 11  5  1  0  0  0  0
 12  5  1  0  0  0  0
 13 12  1  0  0  0  0
 14  2  1  0  0  0  0
 15 16  1  0  0  0  0
 17 18  1  0  0  0  0
 19  4  1  0  0  0  0
 20 11  4  0  0  0  0
 21 20  1  0  0  0  0
 22  3  1  0  0  0  0
 23  3  1  0  0  0  0
 24  2  1  0  0  0  0
 25  3  1  0  0  0  0
 26 27  1  0  0  0  0
 28  4  1  0  0  0  0
 29  2  1  0  0  0  0
 30 10  4  0  0  0  0
 31 30  1  0  0  0  0
 32 33  1  0  0  0  0
 34 15  4  0  0  0  0
 35 34  1  0  0  0  0
 36 37  1  0  0  0  0
 38 39  1  0  0  0  0
 40 22  4  0  0  0  0
 41 40  1  0  0  0  0
 42 11  4  0  0  0  0
 43 42  1  0  0  0  0
 44 12  1  0  0  0  0
 45 44  1  0  0  0  0
 46 10  4  0  0  0  0
 47 46  1  0  0  0  0
 48 19  4  0  0  0  0
 49 48  1  0  0  0  0
 50 19  4  0  0  0  0
 51 50  1  0  0  0  0
 52 12  1  0  0  0  0
 53 52  1  0  0  0  0
 54 17  4  0  0  0  0
 55 54  1  0  0  0  0
 56 38  4  0  0  0  0
 57 56  1  0  0  0  0
 58 25  4  0  0  0  0
 59 58  1  0  0  0  0
 60 14  4  0  0  0  0
 61 60  1  0  0  0  0
 62 63  1  0  0  0  0
 64 12  1  0  0  0  0
 65 64  1  0  0  0  0
 66 14  4  0  0  0  0
 67 66  1  0  0  0  0
 68 69  1  0  0  0  0
 70 71  1  0  0  0  0
 72 29  1  0  0  0  0
 73 72  1  0  0  0  0
 74 42  4  0  0  0  0
 75 74  1  0  0  0  0
 76 28  4  0  0  0  0
 77 76  1  0  0  0  0
 78 25  4  0  0  0  0
 79 78  1  0  0  0  0
 80 36  4  0  0  0  0
 81 80  1  0  0  0  0
 82 30  4  0  0  0  0
 83 82  1  0  0  0  0
 84 13  1  0  0  0  0
 85 84  1  0  0  0  0
 86 24  4  0  0  0  0
 87 86  1  0  0  0  0
 88 17  4  0  0  0  0
 89 88  1  0  0  0  0
 90 50  4  0  0  0  0
 91 90  1  0  0  0  0
 92 23  1  0  0  0  0
 93 92  1  0  0  0  0
 94  8  1  0  0  0  0
 95 94  1  0  0  0  0
 96 15  4  0  0  0  0
 97 96  1  0  0  0  0
 98 24  4  0  0  0  0
 99 98  1  0  0  0  0
100 90  4  0  0  0  0
101100  1  0  0  0  0
102 20  4  0  0  0  0
103102  1  0  0  0  0
104 76  4  0  0  0  0
105104  1  0  0  0  0
106 32  1  0  0  0  0
107106  1  0  0  0  0
108 38  4  0  0  0  0
109108  1  0  0  0  0
110 72  1  0  0  0  0
111110  1  0  0  0  0
112 62  4  0  0  0  0
113112  1  0  0  0  0
114 62  4  0  0  0  0
115114  1  0  0  0  0
116 58  4  0  0  0  0
117116  1  0  0  0  0
118 70  4  0  0  0  0
119118  1  0  0  0  0
120 48  4  0  0  0  0
121120  1  0  0  0  0
122 13  1  0  0  0  0
123122  1  0  0  0  0
124 72  1  0  0  0  0
125124  1  0  0  0  0
126 32  1  0  0  0  0
127126  1  0  0  0  0
128 92  1  0  0  0  0
129128  1  0  0  0  0
130 32  1  0  0  0  0
131130  1  0  0  0  0
132  8  1  0  0  0  0
133132  1  0  0  0  0
134  8  1  0  0  0  0
135134  1  0  0  0  0
136124  1  0  0  0  0
137130  1  0  0  0  0
  8 23  1  0  0  0  0
  8 29  1  0  0  0  0
 13 44  1  0  0  0  0
 22 34  4  0  0  0  0
 23 29  1  0  0  0  0
 23134  1  0  0  0  0
 26 40  4  0  0  0  0
 26 96  4  0  0  0  0
 28 54  4  0  0  0  0
 29 94  1  0  0  0  0
 32 52  1  0  0  0  0
 32 64  1  0  0  0  0
 36 46  4  0  0  0  0
 44 52  1  0  0  0  0
 44106  1  0  0  0  0
 44122  1  0  0  0  0
 52 64  1  0  0  0  0
 52106  1  0  0  0  0
 56 60  4  0  0  0  0
 64130  1  0  0  0  0
 66108  4  0  0  0  0
 68 74  4  0  0  0  0
 68102  4  0  0  0  0
 70116  4  0  0  0  0
 72 94  1  0  0  0  0
 78118  4  0  0  0  0
 80 82  4  0  0  0  0
 84122  1  0  0  0  0
 84126  1  0  0  0  0
 84130  1  0  0  0  0
 86114  4  0  0  0  0
 88104  4  0  0  0  0
 92124  1  0  0  0  0
 92134  1  0  0  0  0
 94110  1  0  0  0  0
 94132  1  0  0  0  0
 98112  4  0  0  0  0
100120  4  0  0  0  0
106122  1  0  0  0  0
106126  1  0  0  0  0
110124  1  0  0  0  0
110128  1  0  0  0  0
110132  1  0  0  0  0
122126  1  0  0  0  0
124128  1  0  0  0  0
126130  1  0  0  0  0
128132  1  0  0  0  0
128134  1  0  0  0  0
132134  1  0  0  0  0
M  END
$$$$
HIJFEP

From CSD data. Using bond type 'Any'. No disordered atoms. Largest molecule.
 47 46  0  0  0  0  0  0  0  0999 V2000
    6.2905    2.6085    6.9116 Cr  0  0  0  0  0  0  0  0  0  0  0  0
    5.1280    4.3308    5.7147 P   0  0  0  0  0  0  0  0  0  0  0  0
    4.2223    2.1927    8.0557 P   0  0  0  0  0  0  0  0  0  0  0  0
    7.6428    0.4645    8.5081 O   0  0  0  0  0  0  0  0  0  0  0  0
    5.5367    0.5118    4.8543 O   0  0  0  0  0  0  0  0  0  0  0  0
    7.1690    4.6096    9.0123 O   0  0  0  0  0  0  0  0  0  0  0  0
    2.7158    5.0799    4.0446 N   0  3  0  0  0  0  0  0  0  0  0  0
    8.8263    3.1604    5.4147 O   0  0  0  0  0  0  0  0  0  0  0  0
    1.8997    3.3238    9.6282 N   0  3  0  0  0  0  0  0  0  0  0  0
    7.1165    1.2902    7.8863 C   0  0  0  0  0  0  0  0  0  0  0  0
    5.7934    1.3316    5.6187 C   0  0  0  0  0  0  0  0  0  0  0  0
    6.7886    3.8716    8.2262 C   0  0  0  0  0  0  0  0  0  0  0  0
    7.8431    2.9592    5.9896 C   0  0  0  0  0  0  0  0  0  0  0  0
    0.9094    2.9786    8.5822 C   0  0  0  0  0  0  0  0  0  0  0  0
    1.1912    2.1823    8.1248 H   0  0  0  0  0  0  0  0  0  0  0  0
    0.0535    2.8273    8.9893 H   0  0  0  0  0  0  0  0  0  0  0  0
    0.8419    3.7016    7.9541 H   0  0  0  0  0  0  0  0  0  0  0  0
    1.7059    4.5297    3.0978 C   0  0  0  0  0  0  0  0  0  0  0  0
    1.1618    5.2448    2.7601 H   0  0  0  0  0  0  0  0  0  0  0  0
    2.1542    4.0958    2.3680 H   0  0  0  0  0  0  0  0  0  0  0  0
    1.1513    3.8939    3.5562 H   0  0  0  0  0  0  0  0  0  0  0  0
    3.5489    6.0832    3.3285 C   0  0  0  0  0  0  0  0  0  0  0  0
    4.0249    5.6521    2.6147 H   0  0  0  0  0  0  0  0  0  0  0  0
    2.9827    6.7701    2.9680 H   0  0  0  0  0  0  0  0  0  0  0  0
    4.1758    6.4751    3.9415 H   0  0  0  0  0  0  0  0  0  0  0  0
    1.9702    2.1952   10.5981 C   0  0  0  0  0  0  0  0  0  0  0  0
    1.1086    2.0652   11.0015 H   0  0  0  0  0  0  0  0  0  0  0  0
    2.2312    1.3939   10.1382 H   0  0  0  0  0  0  0  0  0  0  0  0
    2.6152    2.3985   11.2787 H   0  0  0  0  0  0  0  0  0  0  0  0
    1.9883    5.7707    5.1521 C   0  0  0  0  0  0  0  0  0  0  0  0
    1.4739    6.4978    4.7927 H   0  0  0  0  0  0  0  0  0  0  0  0
    1.4012    5.1481    5.5878 H   0  0  0  0  0  0  0  0  0  0  0  0
    2.6220    6.1108    5.7872 H   0  0  0  0  0  0  0  0  0  0  0  0
    1.4111    4.5337   10.3444 C   0  0  0  0  0  0  0  0  0  0  0  0
    1.3605    5.2699    9.7305 H   0  0  0  0  0  0  0  0  0  0  0  0
    0.5394    4.3597   10.7074 H   0  0  0  0  0  0  0  0  0  0  0  0
    2.0168    4.7515   11.0556 H   0  0  0  0  0  0  0  0  0  0  0  0
    3.5884    3.8452    4.6075 B   0  5  0  0  0  0  0  0  0  0  0  0
    3.3492    3.6613    9.0089 B   0  5  0  0  0  0  0  0  0  0  0  0
    3.9697    3.3194    3.7573 H   0  0  0  0  0  0  0  0  0  0  0  0
    5.9172    4.9928    4.9252 H   0  0  0  0  0  0  0  0  0  0  0  0
    2.8924    3.2501    5.2227 H   0  0  0  0  0  0  0  0  0  0  0  0
    4.0412    3.9297    9.8792 H   0  0  0  0  0  0  0  0  0  0  0  0
    3.2028    4.4935    8.3107 H   0  0  0  0  0  0  0  0  0  0  0  0
    4.7653    5.3081    6.4633 H   0  0  0  0  0  0  0  0  0  0  0  0
    3.3104    1.6304    7.3253 H   0  0  0  0  0  0  0  0  0  0  0  0
    4.3073    1.2171    8.9445 H   0  0  0  0  0  0  0  0  0  0  0  0
  1  2  1  0  0  0  0
  2 38  1  0  0  0  0
  3  1  1  0  0  0  0
  4 10  3  0  0  0  0
  5 11  3  0  0  0  0
  6 12  3  0  0  0  0
  7 18  1  0  0  0  0
  8 13  3  0  0  0  0
  9 14  1  0  0  0  0
 10  1  1  0  0  0  0
 11  1  1  0  0  0  0
 12  1  1  0  0  0  0
 13  1  1  0  0  0  0
 14 15  1  0  0  0  0
 16 14  1  0  0  0  0
 17 14  1  0  0  0  0
 18 19  1  0  0  0  0
 20 18  1  0  0  0  0
 21 18  1  0  0  0  0
 22  7  1  0  0  0  0
 23 22  1  0  0  0  0
 24 22  1  0  0  0  0
 25 22  1  0  0  0  0
 26  9  1  0  0  0  0
 27 26  1  0  0  0  0
 28 26  1  0  0  0  0
 29 26  1  0  0  0  0
 30  7  1  0  0  0  0
 31 30  1  0  0  0  0
 32 30  1  0  0  0  0
 33 30  1  0  0  0  0
 34  9  1  0  0  0  0
 35 34  1  0  0  0  0
 36 34  1  0  0  0  0
 37 34  1  0  0  0  0
 38  7  1  0  0  0  0
 39  3  1  0  0  0  0
 40 38  1  0  0  0  0
 41  2  1  0  0  0  0
 42 38  1  0  0  0  0
 43 39  1  0  0  0  0
 44 39  1  0  0  0  0
 45  2  1  0  0  0  0
 46  3  1  0  0  0  0
 47  3  1  0  0  0  0
  9 39  1  0  0  0  0
M  CHG  4   7   1   9   1  38  -1  39  -1
M  END
$$$$
HIJFIT

From CSD data. Using bond type 'Any'. No disordered atoms. Largest molecule.
 47 46  0  0  0  0  0  0  0  0999 V2000
    2.5374    2.5880   10.1127 Mo  0  0  0  0  0  0  0  0  0  0  0  0
    3.7966    4.4034   11.3844 P   0  0  0  0  0  0  0  0  0  0  0  0
    4.7481    2.1685    8.9080 P   0  0  0  0  0  0  0  0  0  0  0  0
    3.2967    0.3755   12.2653 O   0  0  0  0  0  0  0  0  0  0  0  0
    1.1232    0.3704    8.4240 O   0  0  0  0  0  0  0  0  0  0  0  0
    1.6062    4.6816    7.9104 O   0  0  0  0  0  0  0  0  0  0  0  0
    6.2182    5.1148   13.0513 N   0  3  0  0  0  0  0  0  0  0  0  0
    7.0498    3.3644    7.3441 N   0  3  0  0  0  0  0  0  0  0  0  0
   -0.1108    3.1681   11.6770 O   0  0  0  0  0  0  0  0  0  0  0  0
    3.0471    1.1938   11.5048 C   0  0  0  0  0  0  0  0  0  0  0  0
    1.6400    1.1808    9.0576 C   0  0  0  0  0  0  0  0  0  0  0  0
    1.9896    3.9497    8.6940 C   0  0  0  0  0  0  0  0  0  0  0  0
    0.8639    2.9649   11.1031 C   0  0  0  0  0  0  0  0  0  0  0  0
    7.2103    4.5472   14.0158 C   0  0  0  0  0  0  0  0  0  0  0  0
    7.7780    5.2497   14.3414 H   0  0  0  0  0  0  0  0  0  0  0  0
    7.7443    3.8840   13.5724 H   0  0  0  0  0  0  0  0  0  0  0  0
    6.7457    4.1439   14.7526 H   0  0  0  0  0  0  0  0  0  0  0  0
    5.3890    6.1301   13.7523 C   0  0  0  0  0  0  0  0  0  0  0  0
    4.8657    5.7012   14.4332 H   0  0  0  0  0  0  0  0  0  0  0  0
    4.8050    6.5574   13.1214 H   0  0  0  0  0  0  0  0  0  0  0  0
    5.9610    6.7877   14.1550 H   0  0  0  0  0  0  0  0  0  0  0  0
    7.0146    2.2217    6.3841 C   0  0  0  0  0  0  0  0  0  0  0  0
    6.3734    2.4037    5.6932 H   0  0  0  0  0  0  0  0  0  0  0  0
    6.7645    1.4202    6.8497 H   0  0  0  0  0  0  0  0  0  0  0  0
    7.8833    2.1062    5.9921 H   0  0  0  0  0  0  0  0  0  0  0  0
    7.4957    4.5750    6.6144 C   0  0  0  0  0  0  0  0  0  0  0  0
    8.3558    4.4122    6.2199 H   0  0  0  0  0  0  0  0  0  0  0  0
    7.5590    5.3123    7.2261 H   0  0  0  0  0  0  0  0  0  0  0  0
    6.8619    4.7848    5.9248 H   0  0  0  0  0  0  0  0  0  0  0  0
    5.3349    3.8848   12.4881 B   0  5  0  0  0  0  0  0  0  0  0  0
    6.9656    5.7855   11.9480 C   0  0  0  0  0  0  0  0  0  0  0  0
    7.4966    6.4992   12.3089 H   0  0  0  0  0  0  0  0  0  0  0  0
    6.3430    6.1411   11.3097 H   0  0  0  0  0  0  0  0  0  0  0  0
    7.5382    5.1477   11.5156 H   0  0  0  0  0  0  0  0  0  0  0  0
    8.0414    3.0534    8.4026 C   0  0  0  0  0  0  0  0  0  0  0  0
    7.7747    2.2566    8.8668 H   0  0  0  0  0  0  0  0  0  0  0  0
    8.0876    3.7848    9.0227 H   0  0  0  0  0  0  0  0  0  0  0  0
    8.9038    2.9176    8.0032 H   0  0  0  0  0  0  0  0  0  0  0  0
    5.5832    3.6545    7.9581 B   0  5  0  0  0  0  0  0  0  0  0  0
    3.0602    5.1045   12.1937 H   0  0  0  0  0  0  0  0  0  0  0  0
    4.9201    3.3611   13.3314 H   0  0  0  0  0  0  0  0  0  0  0  0
    4.1475    5.3526   10.6675 H   0  0  0  0  0  0  0  0  0  0  0  0
    5.6666    4.4934    8.6589 H   0  0  0  0  0  0  0  0  0  0  0  0
    6.0041    3.2724   11.8891 H   0  0  0  0  0  0  0  0  0  0  0  0
    4.9197    3.8943    7.0780 H   0  0  0  0  0  0  0  0  0  0  0  0
    5.6283    1.6416    9.6581 H   0  0  0  0  0  0  0  0  0  0  0  0
    4.7382    1.2102    8.0515 H   0  0  0  0  0  0  0  0  0  0  0  0
  1  2  1  0  0  0  0
  2 30  1  0  0  0  0
  3  1  1  0  0  0  0
  4 10  3  0  0  0  0
  5 11  3  0  0  0  0
  6 12  3  0  0  0  0
  7 14  1  0  0  0  0
  8 22  1  0  0  0  0
  9 13  3  0  0  0  0
 10  1  1  0  0  0  0
 11  1  1  0  0  0  0
 12  1  1  0  0  0  0
 13  1  1  0  0  0  0
 14 15  1  0  0  0  0
 16 14  1  0  0  0  0
 17 14  1  0  0  0  0
 18  7  1  0  0  0  0
 19 18  1  0  0  0  0
 20 18  1  0  0  0  0
 21 18  1  0  0  0  0
 22 23  1  0  0  0  0
 24 22  1  0  0  0  0
 25 22  1  0  0  0  0
 26  8  1  0  0  0  0
 27 26  1  0  0  0  0
 28 26  1  0  0  0  0
 29 26  1  0  0  0  0
 30  7  1  0  0  0  0
 31  7  1  0  0  0  0
 32 31  1  0  0  0  0
 33 31  1  0  0  0  0
 34 31  1  0  0  0  0
 35  8  1  0  0  0  0
 36 35  1  0  0  0  0
 37 35  1  0  0  0  0
 38 35  1  0  0  0  0
 39  3  1  0  0  0  0
 40  2  1  0  0  0  0
 41 30  1  0  0  0  0
 42  2  1  0  0  0  0
 43 39  1  0  0  0  0
 44 30  1  0  0  0  0
 45 39  1  0  0  0  0
 46  3  1  0  0  0  0
 47  3  1  0  0  0  0
  8 39  1  0  0  0  0
M  CHG  4   7   1   8   1  30  -1  39  -1
M  END
$$$$
HIMTII

From CSD data. Using bond type 'Any'. No disordered atoms. Largest molecule.
 83104  0  0  0  0  0  0  0  0999 V2000
    6.9224    6.0077    4.5968 Pt  0  0  0  0  0  0  0  0  0  0  0  0
    8.4244    3.7017    4.5958 Pt  0  0  0  0  0  0  0  0  0  0  0  0
    9.1120    5.8025    3.5546 S   0  0  0  0  0  0  0  0  0  0  0  0
    9.6943    2.3564    3.1502 P   0  0  0  0  0  0  0  0  0  0  0  0
    6.1959    7.7085    3.1595 P   0  0  0  0  0  0  0  0  0  0  0  0
   10.2006    6.4944    4.2507 O   0  0  0  0  0  0  0  0  0  0  0  0
    9.1662    5.8442    2.0882 O   0  0  0  0  0  0  0  0  0  0  0  0
   10.7412    3.9639    6.7606 N   0  0  0  0  0  0  0  0  0  0  0  0
    8.0472    7.9752    6.8096 N   0  0  0  0  0  0  0  0  0  0  0  0
    9.9293    3.8289    5.9438 C   0  0  0  0  0  0  0  0  0  0  0  0
   11.8115    4.1012    7.7245 C   0  0  0  0  0  0  0  0  0  0  0  0
   11.6723    3.4504    8.4577 H   0  0  0  0  0  0  0  0  0  0  0  0
   12.6721    3.8957    7.2883 H   0  0  0  0  0  0  0  0  0  0  0  0
   11.8461    5.3921    8.2469 C   0  0  0  0  0  0  0  0  0  0  0  0
   11.4063    5.4035    9.1259 H   0  0  0  0  0  0  0  0  0  0  0  0
   11.3912    6.0102    7.6449 H   0  0  0  0  0  0  0  0  0  0  0  0
   12.7843    5.6714    8.3582 H   0  0  0  0  0  0  0  0  0  0  0  0
    7.6427    7.3034    6.0035 C   0  0  0  0  0  0  0  0  0  0  0  0
    8.6453    8.7240    7.9777 C   0  0  0  0  0  0  0  0  0  0  0  0
    9.3263    9.3573    7.6409 H   0  0  0  0  0  0  0  0  0  0  0  0
    7.9335    9.2540    8.4192 H   0  0  0  0  0  0  0  0  0  0  0  0
    9.2499    7.8554    8.9509 C   0  0  0  0  0  0  0  0  0  0  0  0
    8.6682    7.0832    9.1073 H   0  0  0  0  0  0  0  0  0  0  0  0
    9.3795    8.3441    9.7902 H   0  0  0  0  0  0  0  0  0  0  0  0
   10.1185    7.5466    8.6155 H   0  0  0  0  0  0  0  0  0  0  0  0
    9.0954    2.3825    1.4173 C   0  0  0  0  0  0  0  0  0  0  0  0
    9.0749    3.3067    1.0925 H   0  0  0  0  0  0  0  0  0  0  0  0
    8.1928    2.0034    1.3776 H   0  0  0  0  0  0  0  0  0  0  0  0
    9.6972    1.8523    0.8552 H   0  0  0  0  0  0  0  0  0  0  0  0
    9.7269    0.5820    3.5838 C   0  0  0  0  0  0  0  0  0  0  0  0
   10.3102    0.1037    2.9580 H   0  0  0  0  0  0  0  0  0  0  0  0
    8.8197    0.2156    3.5294 H   0  0  0  0  0  0  0  0  0  0  0  0
   10.0693    0.4745    4.4960 H   0  0  0  0  0  0  0  0  0  0  0  0
    4.5727    8.4083    3.5904 C   0  0  0  0  0  0  0  0  0  0  0  0
    4.4139    9.2157    3.0588 H   0  0  0  0  0  0  0  0  0  0  0  0
    4.5588    8.6377    4.5437 H   0  0  0  0  0  0  0  0  0  0  0  0
    3.8729    7.7492    3.4022 H   0  0  0  0  0  0  0  0  0  0  0  0
    6.0231    7.1875    1.4054 C   0  0  0  0  0  0  0  0  0  0  0  0
    5.2947    6.5386    1.3272 H   0  0  0  0  0  0  0  0  0  0  0  0
    6.8601    6.7768    1.1031 H   0  0  0  0  0  0  0  0  0  0  0  0
    5.8243    7.9708    0.8512 H   0  0  0  0  0  0  0  0  0  0  0  0
   11.4705    2.8475    3.0733 C   0  0  0  0  0  0  0  0  0  0  0  0
   11.9080    3.7737    2.1492 C   0  0  0  0  0  0  0  0  0  0  0  0
   11.2841    4.1800    1.5592 H   0  0  0  0  0  0  0  0  0  0  0  0
   13.2770    4.1238    2.0697 C   0  0  0  0  0  0  0  0  0  0  0  0
   13.5730    4.7636    1.4333 H   0  0  0  0  0  0  0  0  0  0  0  0
   14.2045    3.5050    2.9527 C   0  0  0  0  0  0  0  0  0  0  0  0
   15.1322    3.6985    2.8944 H   0  0  0  0  0  0  0  0  0  0  0  0
   13.7310    2.6215    3.8954 C   0  0  0  0  0  0  0  0  0  0  0  0
   14.3404    2.2486    4.5225 H   0  0  0  0  0  0  0  0  0  0  0  0
   12.3816    2.2543    3.9630 C   0  0  0  0  0  0  0  0  0  0  0  0
   12.0881    1.6145    4.5994 H   0  0  0  0  0  0  0  0  0  0  0  0
    7.3159    9.1813    3.1078 C   0  0  0  0  0  0  0  0  0  0  0  0
    7.0857   10.2336    4.0571 C   0  0  0  0  0  0  0  0  0  0  0  0
    6.4118   10.1548    4.7227 H   0  0  0  0  0  0  0  0  0  0  0  0
    7.8706   11.3584    3.9749 C   0  0  0  0  0  0  0  0  0  0  0  0
    7.7327   12.0587    4.6021 H   0  0  0  0  0  0  0  0  0  0  0  0
    8.8690   11.5101    3.0031 C   0  0  0  0  0  0  0  0  0  0  0  0
    9.3737   12.3127    2.9553 H   0  0  0  0  0  0  0  0  0  0  0  0
    9.1139   10.4644    2.1015 C   0  0  0  0  0  0  0  0  0  0  0  0
    9.7865   10.5520    1.4372 H   0  0  0  0  0  0  0  0  0  0  0  0
    8.3475    9.2751    2.1877 C   0  0  0  0  0  0  0  0  0  0  0  0
    8.5428    8.5418    1.6162 H   0  0  0  0  0  0  0  0  0  0  0  0
    7.0284    4.4291    6.3509 B   0  0  0  0  0  0  0  0  0  0  0  0
    7.6397    4.8069    7.2100 H   0  0  0  0  0  0  0  0  0  0  0  0
    5.2947    5.1514    5.9544 B   0  0  0  0  0  0  0  0  0  0  0  0
    4.8127    5.9636    6.5551 H   0  0  0  0  0  0  0  0  0  0  0  0
    5.0088    4.9026    4.1075 B   0  0  0  0  0  0  0  0  0  0  0  0
    4.3356    5.5703    3.5109 H   0  0  0  0  0  0  0  0  0  0  0  0
    6.5009    4.0711    3.3306 B   0  0  0  0  0  0  0  0  0  0  0  0
    6.7666    4.2297    2.2540 H   0  0  0  0  0  0  0  0  0  0  0  0
    6.9254    2.5840    5.9452 B   0  0  0  0  0  0  0  0  0  0  0  0
    7.4557    1.8039    6.5484 H   0  0  0  0  0  0  0  0  0  0  0  0
    5.5590    3.4969    6.6320 B   0  0  0  0  0  0  0  0  0  0  0  0
    5.2675    3.3142    7.6980 H   0  0  0  0  0  0  0  0  0  0  0  0
    4.3459    3.7777    5.3273 B   0  0  0  0  0  0  0  0  0  0  0  0
    3.2421    3.7537    5.5222 H   0  0  0  0  0  0  0  0  0  0  0  0
    5.0573    3.1360    3.7800 B   0  0  0  0  0  0  0  0  0  0  0  0
    4.4241    2.7075    2.9620 H   0  0  0  0  0  0  0  0  0  0  0  0
    6.6277    2.3804    4.1287 B   0  0  0  0  0  0  0  0  0  0  0  0
    6.9640    1.4785    3.5560 H   0  0  0  0  0  0  0  0  0  0  0  0
    5.3239    2.2850    5.3485 B   0  0  0  0  0  0  0  0  0  0  0  0
    4.8396    1.3004    5.5713 H   0  0  0  0  0  0  0  0  0  0  0  0
  1  2  1  0  0  0  0
  2  3  1  0  0  0  0
  3  1  1  0  0  0  0
  4  2  1  0  0  0  0
  5  1  1  0  0  0  0
  6  3  2  0  0  0  0
  7  3  2  0  0  0  0
  8 10  3  0  0  0  0
  9 18  3  0  0  0  0
 10  2  1  0  0  0  0
 11  8  1  0  0  0  0
 12 11  1  0  0  0  0
 13 11  1  0  0  0  0
 14 11  1  0  0  0  0
 15 14  1  0  0  0  0
 16 14  1  0  0  0  0
 17 14  1  0  0  0  0
 18  1  1  0  0  0  0
 19  9  1  0  0  0  0
 20 19  1  0  0  0  0
 21 19  1  0  0  0  0
 22 19  1  0  0  0  0
 23 22  1  0  0  0  0
 24 22  1  0  0  0  0
 25 22  1  0  0  0  0
 26  4  1  0  0  0  0
 27 26  1  0  0  0  0
 28 26  1  0  0  0  0
 29 26  1  0  0  0  0
 30  4  1  0  0  0  0
 31 30  1  0  0  0  0
 32 30  1  0  0  0  0
 33 30  1  0  0  0  0
 34  5  1  0  0  0  0
 35 34  1  0  0  0  0
 36 34  1  0  0  0  0
 37 34  1  0  0  0  0
 38  5  1  0  0  0  0
 39 38  1  0  0  0  0
 40 38  1  0  0  0  0
 41 38  1  0  0  0  0
 42  4  1  0  0  0  0
 43 42  4  0  0  0  0
 44 43  1  0  0  0  0
 45 43  4  0  0  0  0
 46 45  1  0  0  0  0
 47 45  4  0  0  0  0
 48 47  1  0  0  0  0
 49 47  4  0  0  0  0
 50 49  1  0  0  0  0
 51 42  4  0  0  0  0
 52 51  1  0  0  0  0
 53  5  1  0  0  0  0
 54 53  4  0  0  0  0
 55 54  1  0  0  0  0
 56 54  4  0  0  0  0
 57 56  1  0  0  0  0
 58 56  4  0  0  0  0
 59 58  1  0  0  0  0
 60 58  4  0  0  0  0
 61 60  1  0  0  0  0
 62 53  4  0  0  0  0
 63 62  1  0  0  0  0
 64  1  1  0  0  0  0
 65 64  1  0  0  0  0
 66  1  1  0  0  0  0
 67 66  1  0  0  0  0
 68  1  1  0  0  0  0
 69 68  1  0  0  0  0
 70  1  1  0  0  0  0
 71 70  1  0  0  0  0
 72  2  1  0  0  0  0
 73 72  1  0  0  0  0
 74 64  1  0  0  0  0
 75 74  1  0  0  0  0
 76 66  1  0  0  0  0
 77 76  1  0  0  0  0
 78 68  1  0  0  0  0
 79 78  1  0  0  0  0
 80  2  1  0  0  0  0
 81 80  1  0  0  0  0
 82 72  1  0  0  0  0
 83 82  1  0  0  0  0
  2 64  1  0  0  0  0
  2 70  1  0  0  0  0
 49 51  4  0  0  0  0
 60 62  4  0  0  0  0
 64 66  1  0  0  0  0
 64 72  1  0  0  0  0
 66 68  1  0  0  0  0
 66 74  1  0  0  0  0
 68 70  1  0  0  0  0
 68 76  1  0  0  0  0
 70 78  1  0  0  0  0
 70 80  1  0  0  0  0
 72 74  1  0  0  0  0
 72 80  1  0  0  0  0
 74 76  1  0  0  0  0
 74 82  1  0  0  0  0
 76 78  1  0  0  0  0
 76 82  1  0  0  0  0
 78 80  1  0  0  0  0
 78 82  1  0  0  0  0
 80 82  1  0  0  0  0
M  END
$$$$
HIMTOO

From CSD data. Using bond type 'Any'. No disordered atoms. Largest molecule.
 94116  0  0  0  0  0  0  0  0999 V2000
   11.4217    2.6167    1.5324 Pt  0  0  0  0  0  0  0  0  0  0  0  0
    9.2049    4.1191    2.1286 Pt  0  0  0  0  0  0  0  0  0  0  0  0
   11.0102    3.6633    3.6340 S   0  0  0  0  0  0  0  0  0  0  0  0
   11.8694    4.8066    3.9589 O   0  0  0  0  0  0  0  0  0  0  0  0
   10.7555    2.7932    4.7713 O   0  0  0  0  0  0  0  0  0  0  0  0
   11.1106   -0.2369    2.8440 N   0  0  0  0  0  0  0  0  0  0  0  0
   13.7261    2.7009    1.7595 P   0  0  0  0  0  0  0  0  0  0  0  0
    8.8289    6.2241    3.0803 P   0  0  0  0  0  0  0  0  0  0  0  0
    7.5940    2.9341    3.4111 P   0  0  0  0  0  0  0  0  0  0  0  0
   10.9717    4.7476    0.7692 B   0  0  0  0  0  0  0  0  0  0  0  0
   11.6092    5.5027    1.2955 H   0  0  0  0  0  0  0  0  0  0  0  0
   11.6927    3.5615   -0.4755 B   0  0  0  0  0  0  0  0  0  0  0  0
   12.7809    3.5706   -0.7425 H   0  0  0  0  0  0  0  0  0  0  0  0
   10.6980    2.0323   -0.5009 B   0  0  0  0  0  0  0  0  0  0  0  0
   11.1230    1.0363   -0.7819 H   0  0  0  0  0  0  0  0  0  0  0  0
    9.2916    2.2378    0.7323 B   0  0  0  0  0  0  0  0  0  0  0  0
    8.8233    1.3543    1.2370 H   0  0  0  0  0  0  0  0  0  0  0  0
    9.2722    5.1581    0.1449 B   0  0  0  0  0  0  0  0  0  0  0  0
    8.8238    6.1783    0.2644 H   0  0  0  0  0  0  0  0  0  0  0  0
   10.6374    4.8986   -0.9599 B   0  0  0  0  0  0  0  0  0  0  0  0
   11.0753    5.7717   -1.5078 H   0  0  0  0  0  0  0  0  0  0  0  0
   10.4655    3.2955   -1.7163 B   0  0  0  0  0  0  0  0  0  0  0  0
   10.7653    3.1090   -2.7791 H   0  0  0  0  0  0  0  0  0  0  0  0
    9.0571    2.5049   -0.9865 B   0  0  0  0  0  0  0  0  0  0  0  0
    8.4350    1.7639   -1.5523 H   0  0  0  0  0  0  0  0  0  0  0  0
    8.2494    3.6544    0.1309 B   0  0  0  0  0  0  0  0  0  0  0  0
    7.1360    3.6715    0.2428 H   0  0  0  0  0  0  0  0  0  0  0  0
    9.0252    4.2444   -1.3540 B   0  0  0  0  0  0  0  0  0  0  0  0
    8.3996    4.6650   -2.1816 H   0  0  0  0  0  0  0  0  0  0  0  0
   14.3774    1.9473    3.2737 C   0  0  0  0  0  0  0  0  0  0  0  0
   14.6498    0.5848    3.3042 C   0  0  0  0  0  0  0  0  0  0  0  0
   14.4474    0.0459    2.5490 H   0  0  0  0  0  0  0  0  0  0  0  0
   15.2145    0.0101    4.4280 C   0  0  0  0  0  0  0  0  0  0  0  0
   15.3964   -0.9232    4.4420 H   0  0  0  0  0  0  0  0  0  0  0  0
   15.5109    0.7765    5.5163 C   0  0  0  0  0  0  0  0  0  0  0  0
   15.9164    0.3852    6.2816 H   0  0  0  0  0  0  0  0  0  0  0  0
   15.2207    2.1308    5.5036 C   0  0  0  0  0  0  0  0  0  0  0  0
   15.4196    2.6566    6.2689 H   0  0  0  0  0  0  0  0  0  0  0  0
   14.6445    2.7333    4.3962 C   0  0  0  0  0  0  0  0  0  0  0  0
   14.4363    3.6593    4.4001 H   0  0  0  0  0  0  0  0  0  0  0  0
   14.3964    4.3798    1.7328 C   0  0  0  0  0  0  0  0  0  0  0  0
   15.3616    4.3502    1.9032 H   0  0  0  0  0  0  0  0  0  0  0  0
   13.9604    4.9157    2.4270 H   0  0  0  0  0  0  0  0  0  0  0  0
   14.2319    4.7843    0.8556 H   0  0  0  0  0  0  0  0  0  0  0  0
   14.6039    1.8104    0.4513 C   0  0  0  0  0  0  0  0  0  0  0  0
   14.4686    2.2683   -0.4043 H   0  0  0  0  0  0  0  0  0  0  0  0
   14.2573    0.8957    0.3890 H   0  0  0  0  0  0  0  0  0  0  0  0
   15.5614    1.7853    0.6585 H   0  0  0  0  0  0  0  0  0  0  0  0
   11.2757    0.7783    2.3659 C   0  0  0  0  0  0  0  0  0  0  0  0
   10.9024   -1.4912    3.5216 C   0  0  0  0  0  0  0  0  0  0  0  0
   11.4742   -2.1888    3.1135 H   0  0  0  0  0  0  0  0  0  0  0  0
    9.9583   -1.7700    3.4237 H   0  0  0  0  0  0  0  0  0  0  0  0
   11.2387   -1.3512    4.9709 C   0  0  0  0  0  0  0  0  0  0  0  0
   12.2056   -1.2289    5.0726 H   0  0  0  0  0  0  0  0  0  0  0  0
   10.9592   -2.1583    5.4502 H   0  0  0  0  0  0  0  0  0  0  0  0
   10.7708   -0.5747    5.3421 H   0  0  0  0  0  0  0  0  0  0  0  0
    7.1228    6.8129    2.8745 C   0  0  0  0  0  0  0  0  0  0  0  0
    6.3443    6.3807    1.7938 C   0  0  0  0  0  0  0  0  0  0  0  0
    6.7133    5.7809    1.1556 H   0  0  0  0  0  0  0  0  0  0  0  0
    5.0333    6.8236    1.6515 C   0  0  0  0  0  0  0  0  0  0  0  0
    4.5135    6.5390    0.9090 H   0  0  0  0  0  0  0  0  0  0  0  0
    4.4895    7.6732    2.5821 C   0  0  0  0  0  0  0  0  0  0  0  0
    3.5867    7.9575    2.4943 H   0  0  0  0  0  0  0  0  0  0  0  0
    5.2569    8.1204    3.6525 C   0  0  0  0  0  0  0  0  0  0  0  0
    4.8814    8.7217    4.2844 H   0  0  0  0  0  0  0  0  0  0  0  0
    6.5528    7.6964    3.8000 C   0  0  0  0  0  0  0  0  0  0  0  0
    7.0672    8.0033    4.5361 H   0  0  0  0  0  0  0  0  0  0  0  0
    9.8643    7.5738    2.4486 C   0  0  0  0  0  0  0  0  0  0  0  0
    9.7750    7.6243    1.4747 H   0  0  0  0  0  0  0  0  0  0  0  0
   10.8005    7.4042    2.6825 H   0  0  0  0  0  0  0  0  0  0  0  0
    9.5753    8.4221    2.8490 H   0  0  0  0  0  0  0  0  0  0  0  0
    9.1447    6.3675    4.8654 C   0  0  0  0  0  0  0  0  0  0  0  0
   10.0256    5.9918    5.0726 H   0  0  0  0  0  0  0  0  0  0  0  0
    8.4553    5.8756    5.3586 H   0  0  0  0  0  0  0  0  0  0  0  0
    9.1231    7.3124    5.1247 H   0  0  0  0  0  0  0  0  0  0  0  0
    7.0495    3.6847    4.9772 C   0  0  0  0  0  0  0  0  0  0  0  0
    7.7686    3.4606    6.1545 C   0  0  0  0  0  0  0  0  0  0  0  0
    8.5170    2.8767    6.1443 H   0  0  0  0  0  0  0  0  0  0  0  0
    7.3995    4.0857    7.3381 C   0  0  0  0  0  0  0  0  0  0  0  0
    7.8914    3.9191    8.1339 H   0  0  0  0  0  0  0  0  0  0  0  0
    6.3173    4.9478    7.3661 C   0  0  0  0  0  0  0  0  0  0  0  0
    6.0740    5.3865    8.1733 H   0  0  0  0  0  0  0  0  0  0  0  0
    5.5902    5.1679    6.2066 C   0  0  0  0  0  0  0  0  0  0  0  0
    4.8383    5.7503    6.2257 H   0  0  0  0  0  0  0  0  0  0  0  0
    5.9507    4.5437    5.0128 C   0  0  0  0  0  0  0  0  0  0  0  0
    5.4483    4.7048    4.2233 H   0  0  0  0  0  0  0  0  0  0  0  0
    6.0363    2.6214    2.5274 C   0  0  0  0  0  0  0  0  0  0  0  0
    6.2089    2.0452    1.7544 H   0  0  0  0  0  0  0  0  0  0  0  0
    5.6586    3.4728    2.2210 H   0  0  0  0  0  0  0  0  0  0  0  0
    5.4016    2.1797    3.1300 H   0  0  0  0  0  0  0  0  0  0  0  0
    8.0828    1.2665    3.9398 C   0  0  0  0  0  0  0  0  0  0  0  0
    8.8441    1.3298    4.5539 H   0  0  0  0  0  0  0  0  0  0  0  0
    8.3393    0.7367    3.1554 H   0  0  0  0  0  0  0  0  0  0  0  0
    7.3310    0.8346    4.3937 H   0  0  0  0  0  0  0  0  0  0  0  0
  1  2  1  0  0  0  0
  2  3  1  0  0  0  0
  3  1  1  0  0  0  0
  4  3  2  0  0  0  0
  5  3  2  0  0  0  0
  6 49  3  0  0  0  0
  7  1  1  0  0  0  0
  8  2  1  0  0  0  0
  9  2  1  0  0  0  0
 10  1  1  0  0  0  0
 11 10  1  0  0  0  0
 12  1  1  0  0  0  0
 13 12  1  0  0  0  0
 14  1  1  0  0  0  0
 15 14  1  0  0  0  0
 16  1  1  0  0  0  0
 17 16  1  0  0  0  0
 18  2  1  0  0  0  0
 19 18  1  0  0  0  0
 20 10  1  0  0  0  0
 21 20  1  0  0  0  0
 22 12  1  0  0  0  0
 23 22  1  0  0  0  0
 24 14  1  0  0  0  0
 25 24  1  0  0  0  0
 26  2  1  0  0  0  0
 27 26  1  0  0  0  0
 28 18  1  0  0  0  0
 29 28  1  0  0  0  0
 30  7  1  0  0  0  0
 31 30  4  0  0  0  0
 32 31  1  0  0  0  0
 33 31  4  0  0  0  0
 34 33  1  0  0  0  0
 35 33  4  0  0  0  0
 36 35  1  0  0  0  0
 37 35  4  0  0  0  0
 38 37  1  0  0  0  0
 39 30  4  0  0  0  0
 40 39  1  0  0  0  0
 41  7  1  0  0  0  0
 42 41  1  0  0  0  0
 43 41  1  0  0  0  0
 44 41  1  0  0  0  0
 45  7  1  0  0  0  0
 46 45  1  0  0  0  0
 47 45  1  0  0  0  0
 48 45  1  0  0  0  0
 49  1  1  0  0  0  0
 50  6  1  0  0  0  0
 51 50  1  0  0  0  0
 52 50  1  0  0  0  0
 53 50  1  0  0  0  0
 54 53  1  0  0  0  0
 55 53  1  0  0  0  0
 56 53  1  0  0  0  0
 57  8  1  0  0  0  0
 58 57  4  0  0  0  0
 59 58  1  0  0  0  0
 60 58  4  0  0  0  0
 61 60  1  0  0  0  0
 62 60  4  0  0  0  0
 63 62  1  0  0  0  0
 64 62  4  0  0  0  0
 65 64  1  0  0  0  0
 66 57  4  0  0  0  0
 67 66  1  0  0  0  0
 68  8  1  0  0  0  0
 69 68  1  0  0  0  0
 70 68  1  0  0  0  0
 71 68  1  0  0  0  0
 72  8  1  0  0  0  0
 73 72  1  0  0  0  0
 74 72  1  0  0  0  0
 75 72  1  0  0  0  0
 76  9  1  0  0  0  0
 77 76  4  0  0  0  0
 78 77  1  0  0  0  0
 79 77  4  0  0  0  0
 80 79  1  0  0  0  0
 81 79  4  0  0  0  0
 82 81  1  0  0  0  0
 83 81  4  0  0  0  0
 84 83  1  0  0  0  0
 85 76  4  0  0  0  0
 86 85  1  0  0  0  0
 87  9  1  0  0  0  0
 88 87  1  0  0  0  0
 89 87  1  0  0  0  0
 90 87  1  0  0  0  0
 91  9  1  0  0  0  0
 92 91  1  0  0  0  0
 93 91  1  0  0  0  0
 94 91  1  0  0  0  0
  2 10  1  0  0  0  0
  2 16  1  0  0  0  0
 10 12  1  0  0  0  0
 10 18  1  0  0  0  0
 12 14  1  0  0  0  0
 12 20  1  0  0  0  0
 14 16  1  0  0  0  0
 14 22  1  0  0  0  0
 16 24  1  0  0  0  0
 16 26  1  0  0  0  0
 18 20  1  0  0  0  0
 18 26  1  0  0  0  0
 20 22  1  0  0  0  0
 20 28  1  0  0  0  0
 22 24  1  0  0  0  0
 22 28  1  0  0  0  0
 24 26  1  0  0  0  0
 24 28  1  0  0  0  0
 26 28  1  0  0  0  0
 37 39  4  0  0  0  0
 64 66  4  0  0  0  0
 83 85  4  0  0  0  0
M  END
$$$$
HIMTUU

From CSD data. Using bond type 'Any'. No disordered atoms. Largest molecule.
 93115  0  0  0  0  0  0  0  0999 V2000
    7.9395    5.3183    4.0942 Pt  0  0  0  0  0  0  0  0  0  0  0  0
    5.9646    3.6995    5.1104 Pt  0  0  0  0  0  0  0  0  0  0  0  0
   10.2471    5.0719    3.9484 P   0  0  0  0  0  0  0  0  0  0  0  0
    4.6833    4.7225    6.8214 P   0  0  0  0  0  0  0  0  0  0  0  0
    6.0312    1.5430    6.0061 P   0  0  0  0  0  0  0  0  0  0  0  0
    8.4271    4.1322    6.9171 O   0  0  0  0  0  0  0  0  0  0  0  0
    8.3521    8.3078    5.0303 N   0  0  0  0  0  0  0  0  0  0  0  0
    7.7934    4.3159    5.8650 C   0  0  0  0  0  0  0  0  0  0  0  0
    8.2021    7.1921    4.7818 C   0  0  0  0  0  0  0  0  0  0  0  0
    8.6496    9.7209    5.2658 C   0  0  0  0  0  0  0  0  0  0  0  0
    8.4763    9.9413    6.2144 H   0  0  0  0  0  0  0  0  0  0  0  0
    8.0598   10.2821    4.7042 H   0  0  0  0  0  0  0  0  0  0  0  0
   10.1084   10.0115    4.9306 C   0  0  0  0  0  0  0  0  0  0  0  0
   10.2973   10.9602    5.0963 H   0  0  0  0  0  0  0  0  0  0  0  0
   10.2714    9.8077    3.9846 H   0  0  0  0  0  0  0  0  0  0  0  0
   10.6904    9.4570    5.4897 H   0  0  0  0  0  0  0  0  0  0  0  0
    2.9461    5.1176    6.3529 C   0  0  0  0  0  0  0  0  0  0  0  0
    2.4262    4.2892    6.2946 H   0  0  0  0  0  0  0  0  0  0  0  0
    2.9358    5.5720    5.4832 H   0  0  0  0  0  0  0  0  0  0  0  0
    2.5504    5.7056    7.0310 H   0  0  0  0  0  0  0  0  0  0  0  0
    5.3387    6.3737    7.3558 C   0  0  0  0  0  0  0  0  0  0  0  0
    4.6843    6.8113    7.9395 H   0  0  0  0  0  0  0  0  0  0  0  0
    5.4991    6.9315    6.5664 H   0  0  0  0  0  0  0  0  0  0  0  0
    6.1794    6.2501    7.8424 H   0  0  0  0  0  0  0  0  0  0  0  0
    6.8622    0.2505    5.0148 C   0  0  0  0  0  0  0  0  0  0  0  0
    7.7598    0.5545    4.7676 H   0  0  0  0  0  0  0  0  0  0  0  0
    6.3423    0.0768    4.2033 H   0  0  0  0  0  0  0  0  0  0  0  0
    6.9321   -0.5746    5.5428 H   0  0  0  0  0  0  0  0  0  0  0  0
    6.9398    1.3362    7.6043 C   0  0  0  0  0  0  0  0  0  0  0  0
    6.4148    1.7270    8.3329 H   0  0  0  0  0  0  0  0  0  0  0  0
    7.8064    1.7905    7.5487 H   0  0  0  0  0  0  0  0  0  0  0  0
    7.0821    0.3808    7.7777 H   0  0  0  0  0  0  0  0  0  0  0  0
   11.1069    5.4550    5.5777 C   0  0  0  0  0  0  0  0  0  0  0  0
   11.9372    4.9406    5.6372 H   0  0  0  0  0  0  0  0  0  0  0  0
   10.5171    5.2145    6.3218 H   0  0  0  0  0  0  0  0  0  0  0  0
   11.3112    6.4138    5.6204 H   0  0  0  0  0  0  0  0  0  0  0  0
   10.8922    3.4507    3.4618 C   0  0  0  0  0  0  0  0  0  0  0  0
   10.4369    3.1501    2.6465 H   0  0  0  0  0  0  0  0  0  0  0  0
   10.7318    2.8060    4.1813 H   0  0  0  0  0  0  0  0  0  0  0  0
   11.8544    3.5209    3.2923 H   0  0  0  0  0  0  0  0  0  0  0  0
    4.4981    3.8449    8.4093 C   0  0  0  0  0  0  0  0  0  0  0  0
    5.4810    3.9552    9.4575 C   0  0  0  0  0  0  0  0  0  0  0  0
    6.2337    4.5130    9.3113 H   0  0  0  0  0  0  0  0  0  0  0  0
    5.3905    3.3171   10.6132 C   0  0  0  0  0  0  0  0  0  0  0  0
    6.0708    3.3839   11.2706 H   0  0  0  0  0  0  0  0  0  0  0  0
    4.2601    2.5521   10.8215 C   0  0  0  0  0  0  0  0  0  0  0  0
    4.1774    2.1145   11.6601 H   0  0  0  0  0  0  0  0  0  0  0  0
    3.2488    2.3751    9.9117 C   0  0  0  0  0  0  0  0  0  0  0  0
    2.4935    1.8339   10.1084 H   0  0  0  0  0  0  0  0  0  0  0  0
    3.3755    3.0399    8.6668 C   0  0  0  0  0  0  0  0  0  0  0  0
    2.7030    2.9396    8.0042 H   0  0  0  0  0  0  0  0  0  0  0  0
    4.3636    0.8451    6.3089 C   0  0  0  0  0  0  0  0  0  0  0  0
    4.1722   -0.0668    7.3080 C   0  0  0  0  0  0  0  0  0  0  0  0
    4.9145   -0.3441    7.8282 H   0  0  0  0  0  0  0  0  0  0  0  0
    2.8996   -0.6013    7.5875 C   0  0  0  0  0  0  0  0  0  0  0  0
    2.7677   -1.1892    8.3238 H   0  0  0  0  0  0  0  0  0  0  0  0
    1.8417   -0.2505    6.7592 C   0  0  0  0  0  0  0  0  0  0  0  0
    0.9933   -0.6648    6.8770 H   0  0  0  0  0  0  0  0  0  0  0  0
    2.0150    0.6915    5.7666 C   0  0  0  0  0  0  0  0  0  0  0  0
    1.2752    0.9454    5.2270 H   0  0  0  0  0  0  0  0  0  0  0  0
    3.2539    1.2727    5.5466 C   0  0  0  0  0  0  0  0  0  0  0  0
    3.3548    1.9542    4.8918 H   0  0  0  0  0  0  0  0  0  0  0  0
   10.9931    6.2133    2.6996 C   0  0  0  0  0  0  0  0  0  0  0  0
   12.4441    6.3102    2.5572 C   0  0  0  0  0  0  0  0  0  0  0  0
   13.0106    5.8024    3.1240 H   0  0  0  0  0  0  0  0  0  0  0  0
   12.9951    7.1420    1.5970 C   0  0  0  0  0  0  0  0  0  0  0  0
   13.9366    7.1253    1.4714 H   0  0  0  0  0  0  0  0  0  0  0  0
   12.2553    7.9805    0.8244 C   0  0  0  0  0  0  0  0  0  0  0  0
   12.6485    8.5784    0.2006 H   0  0  0  0  0  0  0  0  0  0  0  0
   10.8663    7.9003    1.0146 C   0  0  0  0  0  0  0  0  0  0  0  0
   10.2973    8.4515    0.4944 H   0  0  0  0  0  0  0  0  0  0  0  0
   10.2921    7.0117    1.9658 C   0  0  0  0  0  0  0  0  0  0  0  0
    9.3454    7.0084    2.0680 H   0  0  0  0  0  0  0  0  0  0  0  0
    5.6414    5.6655    3.8927 B   0  0  0  0  0  0  0  0  0  0  0  0
    5.3051    6.4806    4.5851 H   0  0  0  0  0  0  0  0  0  0  0  0
    6.6579    6.0329    2.3799 B   0  0  0  0  0  0  0  0  0  0  0  0
    6.9373    7.0785    2.0900 H   0  0  0  0  0  0  0  0  0  0  0  0
    7.7107    4.5264    2.0421 B   0  0  0  0  0  0  0  0  0  0  0  0
    8.7013    4.5765    1.5232 H   0  0  0  0  0  0  0  0  0  0  0  0
    7.3615    3.2436    3.3311 B   0  0  0  0  0  0  0  0  0  0  0  0
    8.1271    2.4753    3.6249 H   0  0  0  0  0  0  0  0  0  0  0  0
    4.4671    4.2458    3.3803 B   0  0  0  0  0  0  0  0  0  0  0  0
    3.3936    4.1856    3.6883 H   0  0  0  0  0  0  0  0  0  0  0  0
    4.9818    5.4851    2.2712 B   0  0  0  0  0  0  0  0  0  0  0  0
    4.2084    6.2300    1.9503 H   0  0  0  0  0  0  0  0  0  0  0  0
    6.1949    4.8270    1.1298 B   0  0  0  0  0  0  0  0  0  0  0  0
    6.2130    5.1009    0.0440 H   0  0  0  0  0  0  0  0  0  0  0  0
    6.6165    3.2503    1.7367 B   0  0  0  0  0  0  0  0  0  0  0  0
    6.9580    2.4586    1.0211 H   0  0  0  0  0  0  0  0  0  0  0  0
    5.5405    2.7726    3.1396 B   0  0  0  0  0  0  0  0  0  0  0  0
    5.1629    1.7371    3.3298 H   0  0  0  0  0  0  0  0  0  0  0  0
    4.9430    3.7547    1.7548 B   0  0  0  0  0  0  0  0  0  0  0  0
    4.1825    3.3205    1.0573 H   0  0  0  0  0  0  0  0  0  0  0  0
  1  2  1  0  0  0  0
  2  4  1  0  0  0  0
  3  1  1  0  0  0  0
  4 17  1  0  0  0  0
  5  2  1  0  0  0  0
  6  8  2  0  0  0  0
  7  9  3  0  0  0  0
  8  1  1  0  0  0  0
  9  1  1  0  0  0  0
 10  7  1  0  0  0  0
 11 10  1  0  0  0  0
 12 10  1  0  0  0  0
 13 10  1  0  0  0  0
 14 13  1  0  0  0  0
 15 13  1  0  0  0  0
 16 13  1  0  0  0  0
 17 18  1  0  0  0  0
 19 17  1  0  0  0  0
 20 17  1  0  0  0  0
 21  4  1  0  0  0  0
 22 21  1  0  0  0  0
 23 21  1  0  0  0  0
 24 21  1  0  0  0  0
 25  5  1  0  0  0  0
 26 25  1  0  0  0  0
 27 25  1  0  0  0  0
 28 25  1  0  0  0  0
 29  5  1  0  0  0  0
 30 29  1  0  0  0  0
 31 29  1  0  0  0  0
 32 29  1  0  0  0  0
 33  3  1  0  0  0  0
 34 33  1  0  0  0  0
 35 33  1  0  0  0  0
 36 33  1  0  0  0  0
 37  3  1  0  0  0  0
 38 37  1  0  0  0  0
 39 37  1  0  0  0  0
 40 37  1  0  0  0  0
 41  4  1  0  0  0  0
 42 41  4  0  0  0  0
 43 42  1  0  0  0  0
 44 42  4  0  0  0  0
 45 44  1  0  0  0  0
 46 44  4  0  0  0  0
 47 46  1  0  0  0  0
 48 46  4  0  0  0  0
 49 48  1  0  0  0  0
 50 41  4  0  0  0  0
 51 50  1  0  0  0  0
 52  5  1  0  0  0  0
 53 52  4  0  0  0  0
 54 53  1  0  0  0  0
 55 53  4  0  0  0  0
 56 55  1  0  0  0  0
 57 55  4  0  0  0  0
 58 57  1  0  0  0  0
 59 57  4  0  0  0  0
 60 59  1  0  0  0  0
 61 52  4  0  0  0  0
 62 61  1  0  0  0  0
 63  3  1  0  0  0  0
 64 63  4  0  0  0  0
 65 64  1  0  0  0  0
 66 64  4  0  0  0  0
 67 66  1  0  0  0  0
 68 66  4  0  0  0  0
 69 68  1  0  0  0  0
 70 68  4  0  0  0  0
 71 70  1  0  0  0  0
 72 63  4  0  0  0  0
 73 72  1  0  0  0  0
 74  1  1  0  0  0  0
 75 74  1  0  0  0  0
 76  1  1  0  0  0  0
 77 76  1  0  0  0  0
 78  1  1  0  0  0  0
 79 78  1  0  0  0  0
 80  1  1  0  0  0  0
 81 80  1  0  0  0  0
 82  2  1  0  0  0  0
 83 82  1  0  0  0  0
 84 74  1  0  0  0  0
 85 84  1  0  0  0  0
 86 76  1  0  0  0  0
 87 86  1  0  0  0  0
 88 78  1  0  0  0  0
 89 88  1  0  0  0  0
 90  2  1  0  0  0  0
 91 90  1  0  0  0  0
 92 82  1  0  0  0  0
 93 92  1  0  0  0  0
  2  8  1  0  0  0  0
  2 74  1  0  0  0  0
  2 80  1  0  0  0  0
 48 50  4  0  0  0  0
 59 61  4  0  0  0  0
 70 72  4  0  0  0  0
 74 76  1  0  0  0  0
 74 82  1  0  0  0  0
 76 78  1  0  0  0  0
 76 84  1  0  0  0  0
 78 80  1  0  0  0  0
 78 86  1  0  0  0  0
 80 88  1  0  0  0  0
 80 90  1  0  0  0  0
 82 84  1  0  0  0  0
 82 90  1  0  0  0  0
 84 86  1  0  0  0  0
 84 92  1  0  0  0  0
 86 88  1  0  0  0  0
 86 92  1  0  0  0  0
 88 90  1  0  0  0  0
 88 92  1  0  0  0  0
 90 92  1  0  0  0  0
M  END
$$$$
HIMXIO

From CSD data. Using bond type 'Any'. No disordered atoms. Largest molecule.
100122  0  0  0  0  0  0  0  0999 V2000
    4.9218   10.4591   15.1271 B   0  0  0  0  0  0  0  0  0  0  0  0
    4.2171   10.2737   15.9543 H   0  0  0  0  0  0  0  0  0  0  0  0
    6.0697    9.2315   14.5734 B   0  0  0  0  0  0  0  0  0  0  0  0
    6.0675    8.2214   15.0010 H   0  0  0  0  0  0  0  0  0  0  0  0
    4.7335    9.7952   13.5079 B   0  0  0  0  0  0  0  0  0  0  0  0
    3.7976    9.2722   13.2625 H   0  0  0  0  0  0  0  0  0  0  0  0
    4.5474   11.5520   13.7672 B   0  0  0  0  0  0  0  0  0  0  0  0
    3.6039   12.1034   13.6341 H   0  0  0  0  0  0  0  0  0  0  0  0
    5.7082   12.0317   15.0325 B   0  5  0  0  0  0  0  0  0  0  0  0
    5.4349   12.8105   15.7615 H   0  0  0  0  0  0  0  0  0  0  0  0
    6.6140   10.6050   15.5512 B   0  0  0  0  0  0  0  0  0  0  0  0
    6.8959   10.3726   16.5887 H   0  0  0  0  0  0  0  0  0  0  0  0
    6.5680    9.0582   12.4024 Ir  0  0  0  0  0  0  0  0  0  0  0  0
    5.4177   11.0105   12.3127 B   0  0  0  0  0  0  0  0  0  0  0  0
    4.8949   11.2751   11.3804 H   0  0  0  0  0  0  0  0  0  0  0  0
    5.9879   12.4397   13.3572 B   0  0  0  0  0  0  0  0  0  0  0  0
    6.0352   13.5177   13.1434 H   0  0  0  0  0  0  0  0  0  0  0  0
    7.3660   11.8586   14.5033 B   0  0  0  0  0  0  0  0  0  0  0  0
    7.6371   10.0078   14.1773 B   0  0  0  0  0  0  0  0  0  0  0  0
    8.6494    9.6802   14.4752 H   0  0  0  0  0  0  0  0  0  0  0  0
    6.4978   11.7201   12.4003 H   0  0  0  0  0  0  0  0  0  0  0  0
    7.7135   11.1143   13.4974 H   0  0  0  0  0  0  0  0  0  0  0  0
    5.3521    8.4847   11.0965 C   0  0  0  0  0  0  0  0  0  0  0  0
    4.5366    8.2066   10.3317 O   0  0  0  0  0  0  0  0  0  0  0  0
    8.4547   12.6375   15.0150 O   0  0  0  0  0  0  0  0  0  0  0  0
    8.4407   14.0580   14.8713 C   0  0  0  0  0  0  0  0  0  0  0  0
    7.7048   14.3247   14.2650 H   0  0  0  0  0  0  0  0  0  0  0  0
    9.2944   14.3618   14.4739 H   0  0  0  0  0  0  0  0  0  0  0  0
    8.2471   14.7132   16.2242 C   0  0  0  0  0  0  0  0  0  0  0  0
    8.2738   15.6876   16.1240 H   0  0  0  0  0  0  0  0  0  0  0  0
    8.9626   14.4282   16.8315 H   0  0  0  0  0  0  0  0  0  0  0  0
    7.3797   14.4472   16.5963 H   0  0  0  0  0  0  0  0  0  0  0  0
    8.2751    9.7144   10.9090 P   0  0  0  0  0  0  0  0  0  0  0  0
    8.8183   11.4679   11.0054 C   0  0  0  0  0  0  0  0  0  0  0  0
   10.0921   11.8240   11.4365 C   0  0  0  0  0  0  0  0  0  0  0  0
   10.7065   11.1379   11.6686 H   0  0  0  0  0  0  0  0  0  0  0  0
   10.4955   13.1555   11.5416 C   0  0  0  0  0  0  0  0  0  0  0  0
   11.3627   13.3909   11.8510 H   0  0  0  0  0  0  0  0  0  0  0  0
    9.5423   14.1383   11.1666 C   0  0  0  0  0  0  0  0  0  0  0  0
    9.7939   15.0551   11.2062 H   0  0  0  0  0  0  0  0  0  0  0  0
    8.3288   13.8218   10.7600 C   0  0  0  0  0  0  0  0  0  0  0  0
    7.7206   14.5138   10.5309 H   0  0  0  0  0  0  0  0  0  0  0  0
    7.9125   12.4730   10.6654 C   0  0  0  0  0  0  0  0  0  0  0  0
    7.0345   12.2563   10.3750 H   0  0  0  0  0  0  0  0  0  0  0  0
    7.9179    9.4948    9.1127 C   0  0  0  0  0  0  0  0  0  0  0  0
    8.3310   10.4245    8.1419 C   0  0  0  0  0  0  0  0  0  0  0  0
    8.7552   11.2344    8.4005 H   0  0  0  0  0  0  0  0  0  0  0  0
    8.1105   10.1426    6.8030 C   0  0  0  0  0  0  0  0  0  0  0  0
    8.3878   10.7714    6.1454 H   0  0  0  0  0  0  0  0  0  0  0  0
    7.5048    8.9830    6.3999 C   0  0  0  0  0  0  0  0  0  0  0  0
    7.3674    8.8126    5.4749 H   0  0  0  0  0  0  0  0  0  0  0  0
    7.0927    8.0582    7.3428 C   0  0  0  0  0  0  0  0  0  0  0  0
    6.6594    7.2555    7.0762 H   0  0  0  0  0  0  0  0  0  0  0  0
    7.3240    8.3252    8.6922 C   0  0  0  0  0  0  0  0  0  0  0  0
    7.0642    7.6817    9.3396 H   0  0  0  0  0  0  0  0  0  0  0  0
    9.8920    8.8507   11.0369 C   0  0  0  0  0  0  0  0  0  0  0  0
   10.6848    8.5626    9.9434 C   0  0  0  0  0  0  0  0  0  0  0  0
   10.3939    8.8052    9.0718 H   0  0  0  0  0  0  0  0  0  0  0  0
   11.8983    7.9222   10.1116 C   0  0  0  0  0  0  0  0  0  0  0  0
   12.4475    7.7457    9.3552 H   0  0  0  0  0  0  0  0  0  0  0  0
   12.3125    7.5414   11.3559 C   0  0  0  0  0  0  0  0  0  0  0  0
   13.1387    7.0832   11.4553 H   0  0  0  0  0  0  0  0  0  0  0  0
   11.5487    7.8122   12.4704 C   0  0  0  0  0  0  0  0  0  0  0  0
   11.8451    7.5562   13.3363 H   0  0  0  0  0  0  0  0  0  0  0  0
   10.3331    8.4674   12.3022 C   0  0  0  0  0  0  0  0  0  0  0  0
    9.7950    8.6562   13.0613 H   0  0  0  0  0  0  0  0  0  0  0  0
    7.1551    6.7603   12.8377 P   0  0  0  0  0  0  0  0  0  0  0  0
    7.4510    5.8168   11.2718 C   0  0  0  0  0  0  0  0  0  0  0  0
    8.6806    5.8106   10.6374 C   0  0  0  0  0  0  0  0  0  0  0  0
    9.4314    6.2124   11.0592 H   0  0  0  0  0  0  0  0  0  0  0  0
    8.8248    5.2258    9.3966 C   0  0  0  0  0  0  0  0  0  0  0  0
    9.6754    5.2107    8.9748 H   0  0  0  0  0  0  0  0  0  0  0  0
    7.7296    4.6633    8.7658 C   0  0  0  0  0  0  0  0  0  0  0  0
    7.8265    4.2748    7.9045 H   0  0  0  0  0  0  0  0  0  0  0  0
    6.5140    4.6633    9.3791 C   0  0  0  0  0  0  0  0  0  0  0  0
    5.7664    4.2743    8.9395 H   0  0  0  0  0  0  0  0  0  0  0  0
    6.3537    5.2246   10.6339 C   0  0  0  0  0  0  0  0  0  0  0  0
    5.5048    5.2078   11.0606 H   0  0  0  0  0  0  0  0  0  0  0  0
    5.7684    5.7710   13.5815 C   0  0  0  0  0  0  0  0  0  0  0  0
    4.4743    6.2050   13.5359 C   0  0  0  0  0  0  0  0  0  0  0  0
    4.2940    7.0666   13.1798 H   0  0  0  0  0  0  0  0  0  0  0  0
    3.4157    5.4348   13.9881 C   0  0  0  0  0  0  0  0  0  0  0  0
    2.5238    5.7555   13.9172 H   0  0  0  0  0  0  0  0  0  0  0  0
    3.6653    4.2170   14.5348 C   0  0  0  0  0  0  0  0  0  0  0  0
    2.9527    3.6923   14.8819 H   0  0  0  0  0  0  0  0  0  0  0  0
    4.9723    3.7448   14.5874 C   0  0  0  0  0  0  0  0  0  0  0  0
    5.1494    2.8875   14.9578 H   0  0  0  0  0  0  0  0  0  0  0  0
    6.0083    4.5051   14.1072 C   0  0  0  0  0  0  0  0  0  0  0  0
    6.8946    4.1648   14.1362 H   0  0  0  0  0  0  0  0  0  0  0  0
    8.5472    6.2470   13.9495 C   0  0  0  0  0  0  0  0  0  0  0  0
    9.3788    5.1850   13.6411 C   0  0  0  0  0  0  0  0  0  0  0  0
    9.2484    4.7001   12.8351 H   0  0  0  0  0  0  0  0  0  0  0  0
   10.4030    4.8240   14.5068 C   0  0  0  0  0  0  0  0  0  0  0  0
   10.9808    4.1072   14.2728 H   0  0  0  0  0  0  0  0  0  0  0  0
   10.5956    5.4855   15.6914 C   0  0  0  0  0  0  0  0  0  0  0  0
   11.3183    5.2524   16.2622 H   0  0  0  0  0  0  0  0  0  0  0  0
    9.7155    6.5029   16.0419 C   0  0  0  0  0  0  0  0  0  0  0  0
    9.7942    6.9341   16.8841 H   0  0  0  0  0  0  0  0  0  0  0  0
    8.7333    6.8788   15.1622 C   0  0  0  0  0  0  0  0  0  0  0  0
    8.1599    7.5991   15.3957 H   0  0  0  0  0  0  0  0  0  0  0  0
  1  2  1  0  0  0  0
  3  1  1  0  0  0  0
  4  3  1  0  0  0  0
  5  1  1  0  0  0  0
  6  5  1  0  0  0  0
  7  1  1  0  0  0  0
  8  7  1  0  0  0  0
  9  1  1  0  0  0  0
 10  9  1  0  0  0  0
 11  1  1  0  0  0  0
 12 11  1  0  0  0  0
 13  3  1  0  0  0  0
 14  5  1  0  0  0  0
 15 14  1  0  0  0  0
 16  7  1  0  0  0  0
 17 16  1  0  0  0  0
 18  9  1  0  0  0  0
 19  3  1  0  0  0  0
 20 19  1  0  0  0  0
 21 14  1  0  0  0  0
 22 18  1  0  0  0  0
 23 13  1  0  0  0  0
 24 23  3  0  0  0  0
 25 18  1  0  0  0  0
 26 25  1  0  0  0  0
 27 26  1  0  0  0  0
 28 26  1  0  0  0  0
 29 26  1  0  0  0  0
 30 29  1  0  0  0  0
 31 29  1  0  0  0  0
 32 29  1  0  0  0  0
 33 13  1  0  0  0  0
 34 33  1  0  0  0  0
 35 34  4  0  0  0  0
 36 35  1  0  0  0  0
 37 35  4  0  0  0  0
 38 37  1  0  0  0  0
 39 37  4  0  0  0  0
 40 39  1  0  0  0  0
 41 39  4  0  0  0  0
 42 41  1  0  0  0  0
 43 34  4  0  0  0  0
 44 43  1  0  0  0  0
 45 33  1  0  0  0  0
 46 45  4  0  0  0  0
 47 46  1  0  0  0  0
 48 46  4  0  0  0  0
 49 48  1  0  0  0  0
 50 48  4  0  0  0  0
 51 50  1  0  0  0  0
 52 50  4  0  0  0  0
 53 52  1  0  0  0  0
 54 45  4  0  0  0  0
 55 54  1  0  0  0  0
 56 33  1  0  0  0  0
 57 56  4  0  0  0  0
 58 57  1  0  0  0  0
 59 57  4  0  0  0  0
 60 59  1  0  0  0  0
 61 59  4  0  0  0  0
 62 61  1  0  0  0  0
 63 61  4  0  0  0  0
 64 63  1  0  0  0  0
 65 56  4  0  0  0  0
 66 65  1  0  0  0  0
 67 13  1  0  0  0  0
 68 67  1  0  0  0  0
 69 68  4  0  0  0  0
 70 69  1  0  0  0  0
 71 69  4  0  0  0  0
 72 71  1  0  0  0  0
 73 71  4  0  0  0  0
 74 73  1  0  0  0  0
 75 73  4  0  0  0  0
 76 75  1  0  0  0  0
 77 68  4  0  0  0  0
 78 77  1  0  0  0  0
 79 67  1  0  0  0  0
 80 79  4  0  0  0  0
 81 80  1  0  0  0  0
 82 80  4  0  0  0  0
 83 82  1  0  0  0  0
 84 82  4  0  0  0  0
 85 84  1  0  0  0  0
 86 84  4  0  0  0  0
 87 86  1  0  0  0  0
 88 79  4  0  0  0  0
 89 88  1  0  0  0  0
 90 67  1  0  0  0  0
 91 90  4  0  0  0  0
 92 91  1  0  0  0  0
 93 91  4  0  0  0  0
 94 93  1  0  0  0  0
 95 93  4  0  0  0  0
 96 95  1  0  0  0  0
 97 95  4  0  0  0  0
 98 97  1  0  0  0  0
 99 90  4  0  0  0  0
100 99  1  0  0  0  0
  3  5  1  0  0  0  0
  3 11  1  0  0  0  0
  5  7  1  0  0  0  0
  5 13  1  0  0  0  0
  7  9  1  0  0  0  0
  7 14  1  0  0  0  0
  9 11  1  0  0  0  0
  9 16  1  0  0  0  0
 11 18  1  0  0  0  0
 11 19  1  0  0  0  0
 13 14  1  0  0  0  0
 13 19  1  0  0  0  0
 14 16  1  0  0  0  0
 16 18  1  0  0  0  0
 16 21  1  0  0  0  0
 18 19  1  0  0  0  0
 19 22  1  0  0  0  0
 41 43  4  0  0  0  0
 52 54  4  0  0  0  0
 63 65  4  0  0  0  0
 75 77  4  0  0  0  0
 86 88  4  0  0  0  0
 97 99  4  0  0  0  0
M  CHG  1   9  -1
M  END
$$$$
HISNUV

From CSD data. Using bond type 'Any'. No disordered atoms. Largest molecule.
105110  0  0  0  0  0  0  0  0999 V2000
    1.2173   -1.5502   15.6481 P   0  0  0  0  0  0  0  0  0  0  0  0
    3.4214    1.1108   10.7406 P   0  0  0  0  0  0  0  0  0  0  0  0
    2.7911   -1.0627   12.8975 O   0  0  0  0  0  0  0  0  0  0  0  0
   -0.0519    2.0297   18.9245 O   0  0  0  0  0  0  0  0  0  0  0  0
   -0.2114    2.9950   19.0517 H   0  0  0  0  0  0  0  0  0  0  0  0
    4.2208    4.1533    7.3663 O   0  0  0  0  0  0  0  0  0  0  0  0
    3.3244    4.4744    7.3975 H   0  0  0  0  0  0  0  0  0  0  0  0
    1.1232    0.0650   15.9993 N   0  0  0  0  0  0  0  0  0  0  0  0
    3.5434    1.7862    9.2351 N   0  0  0  0  0  0  0  0  0  0  0  0
    2.9189   -1.9449   15.1298 C   0  0  0  0  0  0  0  0  0  0  0  0
    3.5050   -1.7212   13.8917 C   0  0  0  0  0  0  0  0  0  0  0  0
    4.8905   -1.9702   13.6840 C   0  0  0  0  0  0  0  0  0  0  0  0
    5.2959   -1.7447   12.8560 H   0  0  0  0  0  0  0  0  0  0  0  0
    5.6428   -2.5403   14.6885 C   0  0  0  0  0  0  0  0  0  0  0  0
    6.5661   -2.7171   14.5483 H   0  0  0  0  0  0  0  0  0  0  0  0
    5.0461   -2.8560   15.9110 C   0  0  0  0  0  0  0  0  0  0  0  0
    5.5544   -3.2818   16.5911 H   0  0  0  0  0  0  0  0  0  0  0  0
    3.7510   -2.5566   16.1239 C   0  0  0  0  0  0  0  0  0  0  0  0
    3.3724   -2.7586   16.9700 H   0  0  0  0  0  0  0  0  0  0  0  0
    0.1787   -1.8511   14.1927 C   0  0  0  0  0  0  0  0  0  0  0  0
    0.2527   -3.1231   13.5542 C   0  0  0  0  0  0  0  0  0  0  0  0
    0.8638   -3.7798   13.8657 H   0  0  0  0  0  0  0  0  0  0  0  0
   -0.5746   -3.3919   12.4719 C   0  0  0  0  0  0  0  0  0  0  0  0
   -0.5131   -4.2236   12.0176 H   0  0  0  0  0  0  0  0  0  0  0  0
   -1.4950   -2.4321   12.0618 C   0  0  0  0  0  0  0  0  0  0  0  0
   -2.0753   -2.6215   11.3350 H   0  0  0  0  0  0  0  0  0  0  0  0
   -1.5796   -1.2178   12.6951 C   0  0  0  0  0  0  0  0  0  0  0  0
   -2.2022   -0.5755   12.3758 H   0  0  0  0  0  0  0  0  0  0  0  0
   -0.7696   -0.8895   13.8034 C   0  0  0  0  0  0  0  0  0  0  0  0
   -0.8618   -0.0631   14.2602 H   0  0  0  0  0  0  0  0  0  0  0  0
    1.0271    0.5178   17.3879 C   0  0  0  0  0  0  0  0  0  0  0  0
    0.6072   -0.2237   17.9096 H   0  0  0  0  0  0  0  0  0  0  0  0
    0.0999    1.7284   17.4995 C   0  0  0  0  0  0  0  0  0  0  0  0
    0.5419    2.5096   17.0557 H   0  0  0  0  0  0  0  0  0  0  0  0
   -1.2625    1.5318   16.8766 C   0  0  0  0  0  0  0  0  0  0  0  0
   -1.7083    2.2733   15.7787 C   0  0  0  0  0  0  0  0  0  0  0  0
   -1.1597    2.9571   15.4127 H   0  0  0  0  0  0  0  0  0  0  0  0
   -2.9612    2.0099   15.2206 C   0  0  0  0  0  0  0  0  0  0  0  0
   -3.2542    2.5078   14.4653 H   0  0  0  0  0  0  0  0  0  0  0  0
   -3.7827    1.0230   15.7579 C   0  0  0  0  0  0  0  0  0  0  0  0
   -4.6282    0.8408   15.3660 H   0  0  0  0  0  0  0  0  0  0  0  0
   -3.3676    0.3157   16.8558 C   0  0  0  0  0  0  0  0  0  0  0  0
   -3.9508   -0.3211   17.2530 H   0  0  0  0  0  0  0  0  0  0  0  0
   -2.1109    0.5196   17.3905 C   0  0  0  0  0  0  0  0  0  0  0  0
   -1.8121   -0.0235   18.1121 H   0  0  0  0  0  0  0  0  0  0  0  0
    2.4010    0.8047   18.0316 C   0  0  0  0  0  0  0  0  0  0  0  0
    2.9631    0.0054   17.9719 H   0  0  0  0  0  0  0  0  0  0  0  0
    2.2761    1.0464   18.9738 H   0  0  0  0  0  0  0  0  0  0  0  0
    2.8353    1.5462   17.5592 H   0  0  0  0  0  0  0  0  0  0  0  0
    1.6795    1.0500   15.0337 C   0  0  0  0  0  0  0  0  0  0  0  0
    2.6201    1.2214   15.2466 H   0  0  0  0  0  0  0  0  0  0  0  0
    1.1741    1.8872   15.0934 H   0  0  0  0  0  0  0  0  0  0  0  0
    1.6103    0.6910   14.1253 H   0  0  0  0  0  0  0  0  0  0  0  0
    3.1043   -0.6892   10.5252 C   0  0  0  0  0  0  0  0  0  0  0  0
    2.9545   -1.5552   11.5842 C   0  0  0  0  0  0  0  0  0  0  0  0
    2.9141   -2.9463   11.3713 C   0  0  0  0  0  0  0  0  0  0  0  0
    2.7930   -3.5326   12.1085 H   0  0  0  0  0  0  0  0  0  0  0  0
    3.0505   -3.4605   10.0943 C   0  0  0  0  0  0  0  0  0  0  0  0
    3.0323   -4.4004    9.9515 H   0  0  0  0  0  0  0  0  0  0  0  0
    3.2177   -2.5818    9.0119 C   0  0  0  0  0  0  0  0  0  0  0  0
    3.3234   -2.9300    8.1346 H   0  0  0  0  0  0  0  0  0  0  0  0
    3.2312   -1.2269    9.2092 C   0  0  0  0  0  0  0  0  0  0  0  0
    3.3244   -0.6423    8.4668 H   0  0  0  0  0  0  0  0  0  0  0  0
    1.9053    1.8349   11.4284 C   0  0  0  0  0  0  0  0  0  0  0  0
    2.0052    3.0491   12.0903 C   0  0  0  0  0  0  0  0  0  0  0  0
    2.8574    3.4550   12.2019 H   0  0  0  0  0  0  0  0  0  0  0  0
    0.8628    3.6878   12.5990 C   0  0  0  0  0  0  0  0  0  0  0  0
    0.9368    4.5087   13.0714 H   0  0  0  0  0  0  0  0  0  0  0  0
   -0.3613    3.1050   12.3992 C   0  0  0  0  0  0  0  0  0  0  0  0
   -1.1395    3.5398   12.7262 H   0  0  0  0  0  0  0  0  0  0  0  0
   -0.4900    1.9088   11.7373 C   0  0  0  0  0  0  0  0  0  0  0  0
   -1.3490    1.5264   11.6023 H   0  0  0  0  0  0  0  0  0  0  0  0
    0.6428    1.2647   11.2727 C   0  0  0  0  0  0  0  0  0  0  0  0
    0.5582    0.4240   10.8418 H   0  0  0  0  0  0  0  0  0  0  0  0
    4.8770    2.1199    8.6745 C   0  0  0  0  0  0  0  0  0  0  0  0
    5.5534    1.8746    9.3675 H   0  0  0  0  0  0  0  0  0  0  0  0
    5.0298    3.6409    8.4175 C   0  0  0  0  0  0  0  0  0  0  0  0
    4.7271    4.0991    9.2559 H   0  0  0  0  0  0  0  0  0  0  0  0
    6.4950    4.0270    8.2229 C   0  0  0  0  0  0  0  0  0  0  0  0
    7.3126    4.2182    9.3753 C   0  0  0  0  0  0  0  0  0  0  0  0
    6.9543    4.0865   10.2448 H   0  0  0  0  0  0  0  0  0  0  0  0
    8.6405    4.5971    9.2144 C   0  0  0  0  0  0  0  0  0  0  0  0
    9.1804    4.7487    9.9801 H   0  0  0  0  0  0  0  0  0  0  0  0
    9.1814    4.7559    7.9685 C   0  0  0  0  0  0  0  0  0  0  0  0
   10.0826    5.0373    7.8699 H   0  0  0  0  0  0  0  0  0  0  0  0
    8.3993    4.5015    6.8498 C   0  0  0  0  0  0  0  0  0  0  0  0
    8.7894    4.5718    5.9855 H   0  0  0  0  0  0  0  0  0  0  0  0
    7.0878    4.1533    6.9614 C   0  0  0  0  0  0  0  0  0  0  0  0
    6.5728    3.9945    6.1775 H   0  0  0  0  0  0  0  0  0  0  0  0
    5.2219    1.3279    7.4208 C   0  0  0  0  0  0  0  0  0  0  0  0
    4.5782    1.5408    6.7122 H   0  0  0  0  0  0  0  0  0  0  0  0
    5.1835    0.3681    7.6207 H   0  0  0  0  0  0  0  0  0  0  0  0
    6.1251    1.5624    7.1249 H   0  0  0  0  0  0  0  0  0  0  0  0
    2.3559    1.9161    8.3449 C   0  0  0  0  0  0  0  0  0  0  0  0
    2.6047    1.6689    7.4286 H   0  0  0  0  0  0  0  0  0  0  0  0
    2.0369    2.8434    8.3578 H   0  0  0  0  0  0  0  0  0  0  0  0
    1.6439    1.3207    8.6615 H   0  0  0  0  0  0  0  0  0  0  0  0
    0.6360   -2.6973   17.0583 B   0  0  0  0  0  0  0  0  0  0  0  0
    0.7206   -3.6319   16.7754 H   0  0  0  0  0  0  0  0  0  0  0  0
    1.1895   -2.5439   17.8525 H   0  0  0  0  0  0  0  0  0  0  0  0
   -0.3017   -2.5042   17.2711 H   0  0  0  0  0  0  0  0  0  0  0  0
    4.9491    1.4253   11.8204 B   0  0  0  0  0  0  0  0  0  0  0  0
    4.8223    1.0067   12.6951 H   0  0  0  0  0  0  0  0  0  0  0  0
    5.7408    1.0446   11.3869 H   0  0  0  0  0  0  0  0  0  0  0  0
    5.0740    2.3906   11.9346 H   0  0  0  0  0  0  0  0  0  0  0  0
  1  8  2  0  0  0  0
  2  9  2  0  0  0  0
  3 11  1  0  0  0  0
  4  5  1  0  0  0  0
  6  7  1  0  0  0  0
  8 31  1  0  0  0  0
  9 75  1  0  0  0  0
 10  1  1  0  0  0  0
 11 10  4  0  0  0  0
 12 11  4  0  0  0  0
 13 12  1  0  0  0  0
 14 12  4  0  0  0  0
 15 14  1  0  0  0  0
 16 14  4  0  0  0  0
 17 16  1  0  0  0  0
 18 10  4  0  0  0  0
 19 18  1  0  0  0  0
 20  1  1  0  0  0  0
 21 20  4  0  0  0  0
 22 21  1  0  0  0  0
 23 21  4  0  0  0  0
 24 23  1  0  0  0  0
 25 23  4  0  0  0  0
 26 25  1  0  0  0  0
 27 25  4  0  0  0  0
 28 27  1  0  0  0  0
 29 20  4  0  0  0  0
 30 29  1  0  0  0  0
 31 32  1  0  0  0  0
 33  4  1  0  0  0  0
 34 33  1  0  0  0  0
 35 33  1  0  0  0  0
 36 35  4  0  0  0  0
 37 36  1  0  0  0  0
 38 36  4  0  0  0  0
 39 38  1  0  0  0  0
 40 38  4  0  0  0  0
 41 40  1  0  0  0  0
 42 40  4  0  0  0  0
 43 42  1  0  0  0  0
 44 35  4  0  0  0  0
 45 44  1  0  0  0  0
 46 31  1  0  0  0  0
 47 46  1  0  0  0  0
 48 46  1  0  0  0  0
 49 46  1  0  0  0  0
 50  8  1  0  0  0  0
 51 50  1  0  0  0  0
 52 50  1  0  0  0  0
 53 50  1  0  0  0  0
 54  2  1  0  0  0  0
 55  3  1  0  0  0  0
 56 55  4  0  0  0  0
 57 56  1  0  0  0  0
 58 56  4  0  0  0  0
 59 58  1  0  0  0  0
 60 58  4  0  0  0  0
 61 60  1  0  0  0  0
 62 54  4  0  0  0  0
 63 62  1  0  0  0  0
 64  2  1  0  0  0  0
 65 64  4  0  0  0  0
 66 65  1  0  0  0  0
 67 65  4  0  0  0  0
 68 67  1  0  0  0  0
 69 67  4  0  0  0  0
 70 69  1  0  0  0  0
 71 69  4  0  0  0  0
 72 71  1  0  0  0  0
 73 64  4  0  0  0  0
 74 73  1  0  0  0  0
 75 76  1  0  0  0  0
 77  6  1  0  0  0  0
 78 77  1  0  0  0  0
 79 77  1  0  0  0  0
 80 79  4  0  0  0  0
 81 80  1  0  0  0  0
 82 80  4  0  0  0  0
 83 82  1  0  0  0  0
 84 82  4  0  0  0  0
 85 84  1  0  0  0  0
 86 84  4  0  0  0  0
 87 86  1  0  0  0  0
 88 79  4  0  0  0  0
 89 88  1  0  0  0  0
 90 75  1  0  0  0  0
 91 90  1  0  0  0  0
 92 90  1  0  0  0  0
 93 90  1  0  0  0  0
 94  9  1  0  0  0  0
 95 94  1  0  0  0  0
 96 94  1  0  0  0  0
 97 94  1  0  0  0  0
 98  1  1  0  0  0  0
 99 98  1  0  0  0  0
100 98  1  0  0  0  0
101 98  1  0  0  0  0
102  2  1  0  0  0  0
103102  1  0  0  0  0
104102  1  0  0  0  0
105102  1  0  0  0  0
 16 18  4  0  0  0  0
 27 29  4  0  0  0  0
 31 33  1  0  0  0  0
 42 44  4  0  0  0  0
 54 55  4  0  0  0  0
 60 62  4  0  0  0  0
 71 73  4  0  0  0  0
 75 77  1  0  0  0  0
 86 88  4  0  0  0  0
M  END
$$$$
HISPAD

From CSD data. Using bond type 'Any'. No disordered atoms. Largest molecule.
 63 66  0  0  0  0  0  0  0  0999 V2000
    6.6718    2.9404   16.7141 P   0  0  0  0  0  0  0  0  0  0  0  0
    9.0551    0.7744   11.8949 P   0  0  0  0  0  0  0  0  0  0  0  0
    7.1012    2.3241   13.7669 O   0  0  0  0  0  0  0  0  0  0  0  0
    6.0811    3.8955   17.8601 O   0  0  0  0  0  0  0  0  0  0  0  0
    9.8713    0.3263   13.1956 O   0  0  0  0  0  0  0  0  0  0  0  0
    6.1404    3.9249   15.2863 C   0  0  0  0  0  0  0  0  0  0  0  0
    6.3712    3.5104   13.9694 C   0  0  0  0  0  0  0  0  0  0  0  0
    5.9479    4.2659   12.8909 C   0  0  0  0  0  0  0  0  0  0  0  0
    6.1238    3.9675   12.0070 H   0  0  0  0  0  0  0  0  0  0  0  0
    5.2728    5.4493   13.0934 C   0  0  0  0  0  0  0  0  0  0  0  0
    4.9827    5.9667   12.3517 H   0  0  0  0  0  0  0  0  0  0  0  0
    5.0175    5.8829   14.3803 C   0  0  0  0  0  0  0  0  0  0  0  0
    4.5419    6.6914   14.5266 H   0  0  0  0  0  0  0  0  0  0  0  0
    5.4627    5.1274   15.4627 C   0  0  0  0  0  0  0  0  0  0  0  0
    5.2980    5.4405   16.3427 H   0  0  0  0  0  0  0  0  0  0  0  0
    8.4854    3.1076   16.7957 C   0  0  0  0  0  0  0  0  0  0  0  0
    9.1230    4.2189   16.2385 C   0  0  0  0  0  0  0  0  0  0  0  0
    8.6178    4.8980   15.8055 H   0  0  0  0  0  0  0  0  0  0  0  0
   10.5081    4.3189   16.3226 C   0  0  0  0  0  0  0  0  0  0  0  0
   10.9550    5.0539   15.9217 H   0  0  0  0  0  0  0  0  0  0  0  0
   11.2363    3.3545   16.9901 C   0  0  0  0  0  0  0  0  0  0  0  0
   12.1815    3.4325   17.0423 H   0  0  0  0  0  0  0  0  0  0  0  0
   10.6117    2.2829   17.5755 C   0  0  0  0  0  0  0  0  0  0  0  0
   11.1213    1.6361   18.0505 H   0  0  0  0  0  0  0  0  0  0  0  0
    9.2232    2.1462   17.4732 C   0  0  0  0  0  0  0  0  0  0  0  0
    8.7877    1.3980   17.8661 H   0  0  0  0  0  0  0  0  0  0  0  0
    6.0602    3.4457   19.2312 C   0  0  0  0  0  0  0  0  0  0  0  0
    5.4313    2.7004   19.3194 H   0  0  0  0  0  0  0  0  0  0  0  0
    5.7780    4.1836   19.8125 H   0  0  0  0  0  0  0  0  0  0  0  0
    6.9575    3.1502   19.4918 H   0  0  0  0  0  0  0  0  0  0  0  0
    7.2789    0.5424   12.1533 C   0  0  0  0  0  0  0  0  0  0  0  0
    6.4819    1.3406   12.9731 C   0  0  0  0  0  0  0  0  0  0  0  0
    5.1099    1.1554   13.0894 C   0  0  0  0  0  0  0  0  0  0  0  0
    4.5977    1.6890   13.6847 H   0  0  0  0  0  0  0  0  0  0  0  0
    4.5018    0.1691   12.3156 C   0  0  0  0  0  0  0  0  0  0  0  0
    3.5611    0.0456   12.3638 H   0  0  0  0  0  0  0  0  0  0  0  0
    5.2649   -0.6365   11.4738 C   0  0  0  0  0  0  0  0  0  0  0  0
    4.8459   -1.3024   10.9406 H   0  0  0  0  0  0  0  0  0  0  0  0
    6.6247   -0.4601   11.4176 C   0  0  0  0  0  0  0  0  0  0  0  0
    7.1413   -1.0334   10.8624 H   0  0  0  0  0  0  0  0  0  0  0  0
    9.2964    2.5652   11.6842 C   0  0  0  0  0  0  0  0  0  0  0  0
    8.5708    3.1870   10.6519 C   0  0  0  0  0  0  0  0  0  0  0  0
    7.9732    2.6813   10.1147 H   0  0  0  0  0  0  0  0  0  0  0  0
    8.7345    4.5497   10.4294 C   0  0  0  0  0  0  0  0  0  0  0  0
    8.2606    4.9760    9.7258 H   0  0  0  0  0  0  0  0  0  0  0  0
    9.5847    5.2847   11.2292 C   0  0  0  0  0  0  0  0  0  0  0  0
    9.6675    6.2210   11.0929 H   0  0  0  0  0  0  0  0  0  0  0  0
   10.3243    4.6687   12.2355 C   0  0  0  0  0  0  0  0  0  0  0  0
   10.9253    5.1744   12.7707 H   0  0  0  0  0  0  0  0  0  0  0  0
   10.1701    3.3075   12.4479 C   0  0  0  0  0  0  0  0  0  0  0  0
   10.6745    2.8797   13.1295 H   0  0  0  0  0  0  0  0  0  0  0  0
    9.4915    0.6218   14.5607 C   0  0  0  0  0  0  0  0  0  0  0  0
   10.1431    0.2234   15.1761 H   0  0  0  0  0  0  0  0  0  0  0  0
    8.6030    0.2499   14.7411 H   0  0  0  0  0  0  0  0  0  0  0  0
    9.4706    1.5935   14.6930 H   0  0  0  0  0  0  0  0  0  0  0  0
    6.0306    1.1657   16.8458 B   0  0  0  0  0  0  0  0  0  0  0  0
    6.4662    0.5571   16.0400 H   0  0  0  0  0  0  0  0  0  0  0  0
    6.3190    0.7424   17.8200 H   0  0  0  0  0  0  0  0  0  0  0  0
    4.9339    1.1628   16.7556 H   0  0  0  0  0  0  0  0  0  0  0  0
    9.7084   -0.2411   10.4094 B   0  0  0  0  0  0  0  0  0  0  0  0
    9.1622    0.0485    9.4993 H   0  0  0  0  0  0  0  0  0  0  0  0
   10.7816   -0.0397   10.2711 H   0  0  0  0  0  0  0  0  0  0  0  0
    9.5568   -1.3127   10.6018 H   0  0  0  0  0  0  0  0  0  0  0  0
  1  4  1  0  0  0  0
  2  5  1  0  0  0  0
  3  7  1  0  0  0  0
  4 27  1  0  0  0  0
  5 52  1  0  0  0  0
  6  1  1  0  0  0  0
  7  6  4  0  0  0  0
  8  7  4  0  0  0  0
  9  8  1  0  0  0  0
 10  8  4  0  0  0  0
 11 10  1  0  0  0  0
 12 10  4  0  0  0  0
 13 12  1  0  0  0  0
 14  6  4  0  0  0  0
 15 14  1  0  0  0  0
 16  1  1  0  0  0  0
 17 16  4  0  0  0  0
 18 17  1  0  0  0  0
 19 17  4  0  0  0  0
 20 19  1  0  0  0  0
 21 19  4  0  0  0  0
 22 21  1  0  0  0  0
 23 21  4  0  0  0  0
 24 23  1  0  0  0  0
 25 16  4  0  0  0  0
 26 25  1  0  0  0  0
 27 28  1  0  0  0  0
 29 27  1  0  0  0  0
 30 27  1  0  0  0  0
 31  2  1  0  0  0  0
 32  3  1  0  0  0  0
 33 32  4  0  0  0  0
 34 33  1  0  0  0  0
 35 33  4  0  0  0  0
 36 35  1  0  0  0  0
 37 35  4  0  0  0  0
 38 37  1  0  0  0  0
 39 31  4  0  0  0  0
 40 39  1  0  0  0  0
 41  2  1  0  0  0  0
 42 41  4  0  0  0  0
 43 42  1  0  0  0  0
 44 42  4  0  0  0  0
 45 44  1  0  0  0  0
 46 44  4  0  0  0  0
 47 46  1  0  0  0  0
 48 46  4  0  0  0  0
 49 48  1  0  0  0  0
 50 41  4  0  0  0  0
 51 50  1  0  0  0  0
 52 53  1  0  0  0  0
 54 52  1  0  0  0  0
 55 52  1  0  0  0  0
 56  1  1  0  0  0  0
 57 56  1  0  0  0  0
 58 56  1  0  0  0  0
 59 56  1  0  0  0  0
 60  2  1  0  0  0  0
 61 60  1  0  0  0  0
 62 60  1  0  0  0  0
 63 60  1  0  0  0  0
 12 14  4  0  0  0  0
 23 25  4  0  0  0  0
 31 32  4  0  0  0  0
 37 39  4  0  0  0  0
 48 50  4  0  0  0  0
M  END
$$$$
HISPEH

From CSD data. Using bond type 'Any'. No disordered atoms. Largest molecule.
 61 64  0  0  0  0  0  0  0  0999 V2000
    2.8886    1.9666   12.7350 P   0  0  0  0  0  0  0  0  0  0  0  0
    6.6416    0.4441    8.7997 P   0  0  0  0  0  0  0  0  0  0  0  0
    4.1214    0.4368   10.4864 O   0  0  0  0  0  0  0  0  0  0  0  0
    2.0947    1.4800   11.1586 C   0  0  0  0  0  0  0  0  0  0  0  0
    2.7718    0.6850   10.2431 C   0  0  0  0  0  0  0  0  0  0  0  0
    2.1594    0.2170    9.0839 C   0  0  0  0  0  0  0  0  0  0  0  0
    2.6446   -0.3210    8.4693 H   0  0  0  0  0  0  0  0  0  0  0  0
    0.8398    0.5413    8.8354 C   0  0  0  0  0  0  0  0  0  0  0  0
    0.4140    0.2278    8.0470 H   0  0  0  0  0  0  0  0  0  0  0  0
    0.1369    1.3255    9.7388 C   0  0  0  0  0  0  0  0  0  0  0  0
   -0.7730    1.5438    9.5699 H   0  0  0  0  0  0  0  0  0  0  0  0
    0.7579    1.7934   10.8910 C   0  0  0  0  0  0  0  0  0  0  0  0
    0.2695    2.3323   11.5028 H   0  0  0  0  0  0  0  0  0  0  0  0
    1.7325    3.1596   13.4597 C   0  0  0  0  0  0  0  0  0  0  0  0
    1.6560    4.4731   12.9781 C   0  0  0  0  0  0  0  0  0  0  0  0
    2.2349    4.7579   12.2808 H   0  0  0  0  0  0  0  0  0  0  0  0
    0.7407    5.3529   13.5182 C   0  0  0  0  0  0  0  0  0  0  0  0
    0.6867    6.2404   13.1833 H   0  0  0  0  0  0  0  0  0  0  0  0
   -0.0970    4.9537   14.5409 C   0  0  0  0  0  0  0  0  0  0  0  0
   -0.7148    5.5691   14.9182 H   0  0  0  0  0  0  0  0  0  0  0  0
   -0.0345    3.6670   15.0112 C   0  0  0  0  0  0  0  0  0  0  0  0
   -0.6178    3.3886   15.7068 H   0  0  0  0  0  0  0  0  0  0  0  0
    0.8722    2.7732   14.4778 C   0  0  0  0  0  0  0  0  0  0  0  0
    0.9088    1.8848   14.8113 H   0  0  0  0  0  0  0  0  0  0  0  0
    4.3631    2.9208   12.3180 C   0  0  0  0  0  0  0  0  0  0  0  0
    4.1334    3.6031   11.6517 H   0  0  0  0  0  0  0  0  0  0  0  0
    5.0466    2.3217   11.9496 H   0  0  0  0  0  0  0  0  0  0  0  0
    4.7102    3.3553   13.1255 H   0  0  0  0  0  0  0  0  0  0  0  0
    5.8013   -0.9652    9.5660 C   0  0  0  0  0  0  0  0  0  0  0  0
    4.6078   -0.8518   10.2566 C   0  0  0  0  0  0  0  0  0  0  0  0
    3.9577   -1.9524   10.7788 C   0  0  0  0  0  0  0  0  0  0  0  0
    3.1340   -1.8488   11.2416 H   0  0  0  0  0  0  0  0  0  0  0  0
    4.5151   -3.2019   10.6223 C   0  0  0  0  0  0  0  0  0  0  0  0
    4.0644   -3.9667   10.9613 H   0  0  0  0  0  0  0  0  0  0  0  0
    5.7301   -3.3494    9.9727 C   0  0  0  0  0  0  0  0  0  0  0  0
    6.1215   -4.2105    9.8853 H   0  0  0  0  0  0  0  0  0  0  0  0
    6.3726   -2.2415    9.4521 C   0  0  0  0  0  0  0  0  0  0  0  0
    7.2093   -2.3457    9.0126 H   0  0  0  0  0  0  0  0  0  0  0  0
    7.1672    1.5074   10.1669 C   0  0  0  0  0  0  0  0  0  0  0  0
    7.5208    0.9642   11.3980 C   0  0  0  0  0  0  0  0  0  0  0  0
    7.4281    0.0306   11.5466 H   0  0  0  0  0  0  0  0  0  0  0  0
    8.0070    1.7782   12.4117 C   0  0  0  0  0  0  0  0  0  0  0  0
    8.2550    1.3999   13.2464 H   0  0  0  0  0  0  0  0  0  0  0  0
    8.1310    3.1345   12.2077 C   0  0  0  0  0  0  0  0  0  0  0  0
    8.4620    3.6910   12.9029 H   0  0  0  0  0  0  0  0  0  0  0  0
    7.7731    3.6875   10.9891 C   0  0  0  0  0  0  0  0  0  0  0  0
    7.8496    4.6247   10.8544 H   0  0  0  0  0  0  0  0  0  0  0  0
    7.3052    2.8834    9.9682 C   0  0  0  0  0  0  0  0  0  0  0  0
    7.0777    3.2661    9.1300 H   0  0  0  0  0  0  0  0  0  0  0  0
    5.3991    1.3737    7.8655 C   0  0  0  0  0  0  0  0  0  0  0  0
    4.7652    1.7875    8.4869 H   0  0  0  0  0  0  0  0  0  0  0  0
    4.9183    0.7659    7.2655 H   0  0  0  0  0  0  0  0  0  0  0  0
    5.8411    2.0713    7.3373 H   0  0  0  0  0  0  0  0  0  0  0  0
    3.1987    0.4555   13.8752 B   0  0  0  0  0  0  0  0  0  0  0  0
    2.3492   -0.0027   14.0490 H   0  0  0  0  0  0  0  0  0  0  0  0
    3.8186   -0.1638   13.4357 H   0  0  0  0  0  0  0  0  0  0  0  0
    3.5858    0.7592   14.7219 H   0  0  0  0  0  0  0  0  0  0  0  0
    8.0847   -0.0759    7.6457 B   0  0  0  0  0  0  0  0  0  0  0  0
    7.7397   -0.6474    6.9290 H   0  0  0  0  0  0  0  0  0  0  0  0
    8.4965    0.7233    7.2567 H   0  0  0  0  0  0  0  0  0  0  0  0
    8.7553   -0.5701    8.1627 H   0  0  0  0  0  0  0  0  0  0  0  0
  1  4  1  0  0  0  0
  2 29  1  0  0  0  0
  3  5  1  0  0  0  0
  4  5  4  0  0  0  0
  5  6  4  0  0  0  0
  6  7  1  0  0  0  0
  8  6  4  0  0  0  0
  9  8  1  0  0  0  0
 10  8  4  0  0  0  0
 11 10  1  0  0  0  0
 12  4  4  0  0  0  0
 13 12  1  0  0  0  0
 14  1  1  0  0  0  0
 15 14  4  0  0  0  0
 16 15  1  0  0  0  0
 17 15  4  0  0  0  0
 18 17  1  0  0  0  0
 19 17  4  0  0  0  0
 20 19  1  0  0  0  0
 21 19  4  0  0  0  0
 22 21  1  0  0  0  0
 23 14  4  0  0  0  0
 24 23  1  0  0  0  0
 25  1  1  0  0  0  0
 26 25  1  0  0  0  0
 27 25  1  0  0  0  0
 28 25  1  0  0  0  0
 29 30  4  0  0  0  0
 30  3  1  0  0  0  0
 31 30  4  0  0  0  0
 32 31  1  0  0  0  0
 33 31  4  0  0  0  0
 34 33  1  0  0  0  0
 35 33  4  0  0  0  0
 36 35  1  0  0  0  0
 37 29  4  0  0  0  0
 38 37  1  0  0  0  0
 39  2  1  0  0  0  0
 40 39  4  0  0  0  0
 41 40  1  0  0  0  0
 42 40  4  0  0  0  0
 43 42  1  0  0  0  0
 44 42  4  0  0  0  0
 45 44  1  0  0  0  0
 46 44  4  0  0  0  0
 47 46  1  0  0  0  0
 48 39  4  0  0  0  0
 49 48  1  0  0  0  0
 50  2  1  0  0  0  0
 51 50  1  0  0  0  0
 52 50  1  0  0  0  0
 53 50  1  0  0  0  0
 54  1  1  0  0  0  0
 55 54  1  0  0  0  0
 56 54  1  0  0  0  0
 57 54  1  0  0  0  0
 58  2  1  0  0  0  0
 59 58  1  0  0  0  0
 60 58  1  0  0  0  0
 61 58  1  0  0  0  0
 10 12  4  0  0  0  0
 21 23  4  0  0  0  0
 35 37  4  0  0  0  0
 46 48  4  0  0  0  0
M  END
$$$$
HIZKOU

From CSD data. Using bond type 'Any'. No disordered atoms. Largest molecule.
144151  0  0  0  0  0  0  0  0999 V2000
   -0.5700   11.2496   15.7461 C   0  0  0  0  0  0  0  0  0  0  0  0
   -0.6865   10.7016   16.5628 H   0  0  0  0  0  0  0  0  0  0  0  0
   -0.9788   10.7749   14.9806 H   0  0  0  0  0  0  0  0  0  0  0  0
   -1.2022   12.6368   15.9283 C   0  0  0  0  0  0  0  0  0  0  0  0
   -2.1703   12.6191   15.7217 H   0  0  0  0  0  0  0  0  0  0  0  0
   -1.0713   12.9729   16.8493 H   0  0  0  0  0  0  0  0  0  0  0  0
   -0.4687   13.4428   14.9599 C   0  0  0  0  0  0  0  0  0  0  0  0
   -0.5385   14.4062   15.1726 H   0  0  0  0  0  0  0  0  0  0  0  0
   -0.8017   13.2873   14.0408 H   0  0  0  0  0  0  0  0  0  0  0  0
    0.9446   12.9508   15.1171 C   0  0  0  0  0  0  0  0  0  0  0  0
    1.4419   13.0486   14.2665 H   0  0  0  0  0  0  0  0  0  0  0  0
    1.4144   13.4647   15.8204 H   0  0  0  0  0  0  0  0  0  0  0  0
    2.3784    8.2316   12.0623 C   0  0  0  0  0  0  0  0  0  0  0  0
    2.5272    8.4190   11.1009 H   0  0  0  0  0  0  0  0  0  0  0  0
    3.1738    7.7537   12.4065 H   0  0  0  0  0  0  0  0  0  0  0  0
    1.1969    7.3763   12.2118 C   0  0  0  0  0  0  0  0  0  0  0  0
    1.1371    7.0601   13.1367 H   0  0  0  0  0  0  0  0  0  0  0  0
    1.2708    6.6076   11.6075 H   0  0  0  0  0  0  0  0  0  0  0  0
    0.3918    7.8894   11.9887 H   0  0  0  0  0  0  0  0  0  0  0  0
    0.7244   10.6451   12.2521 C   0  0  0  0  0  0  0  0  0  0  0  0
   -0.0881   10.2145   12.6198 H   0  0  0  0  0  0  0  0  0  0  0  0
    0.7132   11.5923   12.5395 H   0  0  0  0  0  0  0  0  0  0  0  0
    0.6386   10.6052   10.7103 C   0  0  0  0  0  0  0  0  0  0  0  0
   -0.3011   10.6098   10.4337 H   0  0  0  0  0  0  0  0  0  0  0  0
    1.0717    9.7891   10.3800 H   0  0  0  0  0  0  0  0  0  0  0  0
    1.0935   11.3887   10.3367 H   0  0  0  0  0  0  0  0  0  0  0  0
    3.6497   10.5607   12.2118 C   0  0  0  0  0  0  0  0  0  0  0  0
    4.4133    9.9397   12.3207 H   0  0  0  0  0  0  0  0  0  0  0  0
    3.4891   10.6824   11.2433 H   0  0  0  0  0  0  0  0  0  0  0  0
    3.9960   11.8940   12.8351 C   0  0  0  0  0  0  0  0  0  0  0  0
    3.2905   12.5538   12.6199 H   0  0  0  0  0  0  0  0  0  0  0  0
    4.8513   12.2233   12.4596 H   0  0  0  0  0  0  0  0  0  0  0  0
    5.8288   11.1442   14.9675 C   0  0  0  0  0  0  0  0  0  0  0  0
    5.9784   11.1560   15.9468 H   0  0  0  0  0  0  0  0  0  0  0  0
    5.8782   10.1998   14.6776 H   0  0  0  0  0  0  0  0  0  0  0  0
    7.0064   11.9034   14.3040 C   0  0  0  0  0  0  0  0  0  0  0  0
    6.9011   11.8811   13.3297 H   0  0  0  0  0  0  0  0  0  0  0  0
    7.8519   11.4746   14.5511 H   0  0  0  0  0  0  0  0  0  0  0  0
    7.0098   12.8342   14.6106 H   0  0  0  0  0  0  0  0  0  0  0  0
    1.9268    8.7541   18.6188 C   0  0  0  0  0  0  0  0  0  0  0  0
    2.5641    7.9992   18.5585 H   0  0  0  0  0  0  0  0  0  0  0  0
    1.7529    8.9327   19.5775 H   0  0  0  0  0  0  0  0  0  0  0  0
    0.5983    8.3698   17.9150 C   0  0  0  0  0  0  0  0  0  0  0  0
   -0.0902    9.0585   18.0915 H   0  0  0  0  0  0  0  0  0  0  0  0
    0.2688    7.5037   18.2646 H   0  0  0  0  0  0  0  0  0  0  0  0
    1.6136    6.5796   16.0031 C   0  0  0  0  0  0  0  0  0  0  0  0
    1.8511    6.4440   15.0519 H   0  0  0  0  0  0  0  0  0  0  0  0
    2.4624    6.5774   16.5144 H   0  0  0  0  0  0  0  0  0  0  0  0
    0.8505    5.4174   16.4346 C   0  0  0  0  0  0  0  0  0  0  0  0
    1.2506    5.0448   17.2417 H   0  0  0  0  0  0  0  0  0  0  0  0
    0.8622    4.7427   15.7189 H   0  0  0  0  0  0  0  0  0  0  0  0
   -0.0738    5.6850   16.6116 H   0  0  0  0  0  0  0  0  0  0  0  0
   -0.8069    7.9973   15.3607 C   0  0  0  0  0  0  0  0  0  0  0  0
   -0.9443    8.7253   14.7063 H   0  0  0  0  0  0  0  0  0  0  0  0
   -0.7848    7.1468   14.8533 H   0  0  0  0  0  0  0  0  0  0  0  0
   -1.9789    7.9598   16.2505 C   0  0  0  0  0  0  0  0  0  0  0  0
   -2.0771    7.0605   16.6258 H   0  0  0  0  0  0  0  0  0  0  0  0
   -2.7830    8.1912   15.7402 H   0  0  0  0  0  0  0  0  0  0  0  0
   -1.8572    8.6061   16.9778 H   0  0  0  0  0  0  0  0  0  0  0  0
    4.2937   10.5537   18.6572 C   0  0  0  0  0  0  0  0  0  0  0  0
    4.9812   10.0748   18.1289 H   0  0  0  0  0  0  0  0  0  0  0  0
    4.4880   11.5204   18.5708 H   0  0  0  0  0  0  0  0  0  0  0  0
    4.5029   10.1788   20.1242 C   0  0  0  0  0  0  0  0  0  0  0  0
    3.6428    9.9823   20.5404 H   0  0  0  0  0  0  0  0  0  0  0  0
    4.9352   10.9246   20.5931 H   0  0  0  0  0  0  0  0  0  0  0  0
    5.0830    9.3862   20.1778 H   0  0  0  0  0  0  0  0  0  0  0  0
    1.6192   11.7651   18.4654 C   0  0  0  0  0  0  0  0  0  0  0  0
    2.1819   12.5750   18.3946 H   0  0  0  0  0  0  0  0  0  0  0  0
    0.8559   11.8819   17.8461 H   0  0  0  0  0  0  0  0  0  0  0  0
    1.0839   11.7065   19.8327 C   0  0  0  0  0  0  0  0  0  0  0  0
    0.6069   10.8594   19.9603 H   0  0  0  0  0  0  0  0  0  0  0  0
    0.4667   12.4535   19.9736 H   0  0  0  0  0  0  0  0  0  0  0  0
    1.8219   11.7653   20.4744 H   0  0  0  0  0  0  0  0  0  0  0  0
    6.8545    5.0191   11.6346 C   0  0  0  0  0  0  0  0  0  0  0  0
    4.5464    4.4942   11.7765 C   0  0  0  0  0  0  0  0  0  0  0  0
    4.5105    5.2042   12.9540 C   0  0  0  0  0  0  0  0  0  0  0  0
    8.3691    7.0741   14.7106 C   0  0  0  0  0  0  0  0  0  0  0  0
    8.7004    8.4003   15.0692 C   0  0  0  0  0  0  0  0  0  0  0  0
    8.7740    8.7377   16.4154 C   0  0  0  0  0  0  0  0  0  0  0  0
    8.7868    7.8497   17.3263 C   0  0  0  0  0  0  0  0  0  0  0  0
    8.3570    6.5656   17.1230 C   0  0  0  0  0  0  0  0  0  0  0  0
    8.2199    6.2165   15.7519 C   0  0  0  0  0  0  0  0  0  0  0  0
    9.6346    5.4526   13.1918 C   0  0  0  0  0  0  0  0  0  0  0  0
    9.6383    4.0654   13.1822 C   0  0  0  0  0  0  0  0  0  0  0  0
   10.7898    3.3273   13.2033 C   0  0  0  0  0  0  0  0  0  0  0  0
   12.0060    3.9131   13.2531 C   0  0  0  0  0  0  0  0  0  0  0  0
   12.0671    5.2768   13.2455 C   0  0  0  0  0  0  0  0  0  0  0  0
   10.9029    6.0243   13.2320 C   0  0  0  0  0  0  0  0  0  0  0  0
    8.4694    7.6153   11.9664 C   0  0  0  0  0  0  0  0  0  0  0  0
    9.3383    7.6083   10.8810 C   0  0  0  0  0  0  0  0  0  0  0  0
    9.3415    8.5409    9.8914 C   0  0  0  0  0  0  0  0  0  0  0  0
    8.4862    9.5672    9.9470 C   0  0  0  0  0  0  0  0  0  0  0  0
    7.5945    9.6281   10.9462 C   0  0  0  0  0  0  0  0  0  0  0  0
    7.5907    8.6487   11.9223 C   0  0  0  0  0  0  0  0  0  0  0  0
    5.1354    5.9423   16.2543 C   0  0  0  0  0  0  0  0  0  0  0  0
    5.2605    6.6312   17.4260 C   0  0  0  0  0  0  0  0  0  0  0  0
    5.1784    6.0641   18.7013 C   0  0  0  0  0  0  0  0  0  0  0  0
    5.0173    4.7332   18.8413 C   0  0  0  0  0  0  0  0  0  0  0  0
    4.8771    3.9904   17.7348 C   0  0  0  0  0  0  0  0  0  0  0  0
    4.9236    4.5692   16.4691 C   0  0  0  0  0  0  0  0  0  0  0  0
    6.8590    5.7361   12.8197 C   0  0  0  0  0  0  0  0  0  0  0  0
    5.5987    5.8298   13.5178 C   0  0  0  0  0  0  0  0  0  0  0  0
    5.7416    4.3958   11.0996 C   0  0  0  0  0  0  0  0  0  0  0  0
    3.7653    8.7752   15.1651 N   0  0  0  0  0  0  0  0  0  0  0  0
    4.5069    7.9059   14.6070 N   0  0  0  0  0  0  0  0  0  0  0  0
    5.8453    3.6671    9.9720 F   0  0  0  0  0  0  0  0  0  0  0  0
    3.4438    3.8826   11.2894 F   0  0  0  0  0  0  0  0  0  0  0  0
    3.2983    5.2464   13.5485 F   0  0  0  0  0  0  0  0  0  0  0  0
    7.9845    4.9136   10.9155 F   0  0  0  0  0  0  0  0  0  0  0  0
    9.1824   10.0054   16.6877 F   0  0  0  0  0  0  0  0  0  0  0  0
    8.7945    8.2292   18.6840 F   0  0  0  0  0  0  0  0  0  0  0  0
    8.2128    5.5908   18.0684 F   0  0  0  0  0  0  0  0  0  0  0  0
    7.9227    4.9090   15.5371 F   0  0  0  0  0  0  0  0  0  0  0  0
    8.9653    9.3188   14.1736 F   0  0  0  0  0  0  0  0  0  0  0  0
    8.5078    3.3695   13.1419 F   0  0  0  0  0  0  0  0  0  0  0  0
   10.7118    1.9964   13.1918 F   0  0  0  0  0  0  0  0  0  0  0  0
   13.2792    5.9072   13.2666 F   0  0  0  0  0  0  0  0  0  0  0  0
   11.0484    7.3365   13.2972 F   0  0  0  0  0  0  0  0  0  0  0  0
   13.1484    3.2148   13.2512 F   0  0  0  0  0  0  0  0  0  0  0  0
   10.2410    6.5843   10.7084 F   0  0  0  0  0  0  0  0  0  0  0  0
    6.6934   10.6404   10.9845 F   0  0  0  0  0  0  0  0  0  0  0  0
    6.6520    8.7776   12.8562 F   0  0  0  0  0  0  0  0  0  0  0  0
    8.5164   10.5256    9.0055 F   0  0  0  0  0  0  0  0  0  0  0  0
   10.2619    8.4800    8.8942 F   0  0  0  0  0  0  0  0  0  0  0  0
    5.5087    7.9692   17.3647 F   0  0  0  0  0  0  0  0  0  0  0  0
    5.3184    6.8304   19.7886 F   0  0  0  0  0  0  0  0  0  0  0  0
    4.9101    4.1498   20.0187 F   0  0  0  0  0  0  0  0  0  0  0  0
    4.7141    2.6361   17.8134 F   0  0  0  0  0  0  0  0  0  0  0  0
    4.7682    3.7538   15.4297 F   0  0  0  0  0  0  0  0  0  0  0  0
    2.1752    9.8439   12.9847 P   0  0  0  0  0  0  0  0  0  0  0  0
    4.1481   11.7192   14.6684 P   0  0  0  0  0  0  0  0  0  0  0  0
    2.6698   10.2491   17.8422 P   0  0  0  0  0  0  0  0  0  0  0  0
    0.8943    8.2417   16.1527 P   0  0  0  0  0  0  0  0  0  0  0  0
    2.5223    9.9609   15.4226 W   0  3  0  0  0  0  0  0  0  0  0  0
    0.8395   11.5167   15.4987 O   0  0  0  0  0  0  0  0  0  0  0  0
    5.1446    6.6523   14.8276 B   0  0  0  0  0  0  0  0  0  0  0  0
    8.2968    6.4578   13.1707 B   0  5  0  0  0  0  0  0  0  0  0  0
    4.4046   13.5904   15.8017 C   0  0  0  0  0  0  0  0  0  0  0  0
    3.6948   13.7768   16.4635 H   0  0  0  0  0  0  0  0  0  0  0  0
    5.3098   13.7286   16.1761 H   0  0  0  0  0  0  0  0  0  0  0  0
    4.2493   14.0356   14.8045 C   0  0  0  0  0  0  0  0  0  0  0  0
    4.9225   13.7110   14.1880 H   0  0  0  0  0  0  0  0  0  0  0  0
    4.3082   15.0152   14.8828 H   0  0  0  0  0  0  0  0  0  0  0  0
    3.3521   13.7952   14.4844 H   0  0  0  0  0  0  0  0  0  0  0  0
  1  2  1  0  0  0  0
  3  1  1  0  0  0  0
  4  1  1  0  0  0  0
  5  4  1  0  0  0  0
  6  4  1  0  0  0  0
  7  4  1  0  0  0  0
  8  7  1  0  0  0  0
  9  7  1  0  0  0  0
 10  7  1  0  0  0  0
 11 10  1  0  0  0  0
 12 10  1  0  0  0  0
 13 14  1  0  0  0  0
 15 13  1  0  0  0  0
 16 13  1  0  0  0  0
 17 16  1  0  0  0  0
 18 16  1  0  0  0  0
 19 16  1  0  0  0  0
 20 21  1  0  0  0  0
 22 20  1  0  0  0  0
 23 20  1  0  0  0  0
 24 23  1  0  0  0  0
 25 23  1  0  0  0  0
 26 23  1  0  0  0  0
 27 28  1  0  0  0  0
 29 27  1  0  0  0  0
 30 27  1  0  0  0  0
 31 30  1  0  0  0  0
 32 30  1  0  0  0  0
 33 34  1  0  0  0  0
 35 33  1  0  0  0  0
 36 33  1  0  0  0  0
 37 36  1  0  0  0  0
 38 36  1  0  0  0  0
 39 36  1  0  0  0  0
 40 41  1  0  0  0  0
 42 40  1  0  0  0  0
 43 40  1  0  0  0  0
 44 43  1  0  0  0  0
 45 43  1  0  0  0  0
 46 47  1  0  0  0  0
 48 46  1  0  0  0  0
 49 46  1  0  0  0  0
 50 49  1  0  0  0  0
 51 49  1  0  0  0  0
 52 49  1  0  0  0  0
 53 54  1  0  0  0  0
 55 53  1  0  0  0  0
 56 53  1  0  0  0  0
 57 56  1  0  0  0  0
 58 56  1  0  0  0  0
 59 56  1  0  0  0  0
 60 61  1  0  0  0  0
 62 60  1  0  0  0  0
 63 60  1  0  0  0  0
 64 63  1  0  0  0  0
 65 63  1  0  0  0  0
 66 63  1  0  0  0  0
 67 68  1  0  0  0  0
 69 67  1  0  0  0  0
 70 67  1  0  0  0  0
 71 70  1  0  0  0  0
 72 70  1  0  0  0  0
 73 70  1  0  0  0  0
 74101  4  0  0  0  0
 75 76  4  0  0  0  0
 76102  4  0  0  0  0
 77 78  4  0  0  0  0
 78 79  4  0  0  0  0
 79 80  4  0  0  0  0
 80 81  4  0  0  0  0
 81 82  4  0  0  0  0
 82 77  4  0  0  0  0
 83 84  4  0  0  0  0
 84 85  4  0  0  0  0
 85 86  4  0  0  0  0
 86 87  4  0  0  0  0
 87 88  4  0  0  0  0
 88 83  4  0  0  0  0
 89 90  4  0  0  0  0
 90 91  4  0  0  0  0
 91 92  4  0  0  0  0
 92 93  4  0  0  0  0
 93 94  4  0  0  0  0
 94 89  4  0  0  0  0
 95 96  4  0  0  0  0
 96 97  4  0  0  0  0
 97 98  4  0  0  0  0
 98 99  4  0  0  0  0
 99100  4  0  0  0  0
100 95  4  0  0  0  0
101102  4  0  0  0  0
102136  1  0  0  0  0
103 74  4  0  0  0  0
104105  2  0  0  0  0
105136  1  0  0  0  0
106103  1  0  0  0  0
107 75  1  0  0  0  0
108 76  1  0  0  0  0
109 74  1  0  0  0  0
110 79  1  0  0  0  0
111 80  1  0  0  0  0
112 81  1  0  0  0  0
113 82  1  0  0  0  0
114 78  1  0  0  0  0
115 84  1  0  0  0  0
116 85  1  0  0  0  0
117 87  1  0  0  0  0
118 88  1  0  0  0  0
119 86  1  0  0  0  0
120 90  1  0  0  0  0
121 93  1  0  0  0  0
122 94  1  0  0  0  0
123 92  1  0  0  0  0
124 91  1  0  0  0  0
125 96  1  0  0  0  0
126 97  1  0  0  0  0
127 98  1  0  0  0  0
128 99  1  0  0  0  0
129100  1  0  0  0  0
130 13  1  0  0  0  0
131 30  1  0  0  0  0
132 40  1  0  0  0  0
133 43  1  0  0  0  0
134104  1  0  0  0  0
135  1  1  0  0  0  0
136 95  1  0  0  0  0
137 77  1  0  0  0  0
138131  1  0  0  0  0
139138  1  0  0  0  0
140138  1  0  0  0  0
141138  1  0  0  0  0
142141  1  0  0  0  0
143141  1  0  0  0  0
144141  1  0  0  0  0
 10135  1  0  0  0  0
 20130  1  0  0  0  0
 27130  1  0  0  0  0
 33131  1  0  0  0  0
 46133  1  0  0  0  0
 53133  1  0  0  0  0
 60132  1  0  0  0  0
 67132  1  0  0  0  0
 75103  4  0  0  0  0
 83137  1  0  0  0  0
 89137  1  0  0  0  0
101137  1  0  0  0  0
130134  1  0  0  0  0
131134  1  0  0  0  0
132134  1  0  0  0  0
133134  1  0  0  0  0
134135  1  0  0  0  0
M  CHG  2 134   1 137  -1
M  END
$$$$
HIZQUC

From CSD data. Using bond type 'Any'. No disordered atoms. Largest molecule.
103144  0  0  0  0  0  0  0  0999 V2000
   12.9366   -1.7933   10.5563 Ru  0  0  0  0  0  0  0  0  0  0  0  0
   13.8574   -3.7694   11.0380 C   0  0  0  0  0  0  0  0  0  0  0  0
   13.4382   -3.6895    9.4763 C   0  0  0  0  0  0  0  0  0  0  0  0
   14.1476   -2.3599    8.7029 B   0  0  0  0  0  0  0  0  0  0  0  0
   15.1515   -1.5580    9.9714 B   0  0  0  0  0  0  0  0  0  0  0  0
   14.8910   -2.4741   11.4793 B   0  0  0  0  0  0  0  0  0  0  0  0
   15.5090   -4.1121   11.2145 B   0  0  0  0  0  0  0  0  0  0  0  0
   14.5491   -4.9185    9.9819 B   0  0  0  0  0  0  0  0  0  0  0  0
   14.7615   -4.0207    8.4756 B   0  0  0  0  0  0  0  0  0  0  0  0
   15.8843   -2.6866    8.8047 B   0  0  0  0  0  0  0  0  0  0  0  0
   16.3438   -2.7802   10.4920 B   0  0  0  0  0  0  0  0  0  0  0  0
   16.1167   -4.2652    9.5720 B   0  0  0  0  0  0  0  0  0  0  0  0
   12.8360   -0.7425   12.1195 C   0  0  0  0  0  0  0  0  0  0  0  0
   12.8233   -0.0937   13.0604 O   0  0  0  0  0  0  0  0  0  0  0  0
   12.3846   -0.3130    9.5361 C   0  0  0  0  0  0  0  0  0  0  0  0
   12.0894    0.5894    8.9034 O   0  0  0  0  0  0  0  0  0  0  0  0
    7.1312    1.3387   12.1270 Ru  0  0  0  0  0  0  0  0  0  0  0  0
    5.2220    0.7447   13.1621 C   0  0  0  0  0  0  0  0  0  0  0  0
    5.0104    0.8818   11.5526 C   0  0  0  0  0  0  0  0  0  0  0  0
    5.4909    2.4239   10.9662 B   0  0  0  0  0  0  0  0  0  0  0  0
    6.0286    3.3559   12.4621 B   0  0  0  0  0  0  0  0  0  0  0  0
    5.8554    2.1863   13.8293 B   0  0  0  0  0  0  0  0  0  0  0  0
    4.1254    1.7499   13.9863 B   0  0  0  0  0  0  0  0  0  0  0  0
    3.6010    0.8841   12.5473 B   0  0  0  0  0  0  0  0  0  0  0  0
    3.7700    1.9829   11.1681 B   0  0  0  0  0  0  0  0  0  0  0  0
    4.3691    3.5433   11.7680 B   0  0  0  0  0  0  0  0  0  0  0  0
    4.5872    3.3902   13.5331 B   0  0  0  0  0  0  0  0  0  0  0  0
    3.2079    2.5883   12.7223 B   0  0  0  0  0  0  0  0  0  0  0  0
    8.2428    2.0035   10.7568 C   0  0  0  0  0  0  0  0  0  0  0  0
    8.8623    2.4284    9.9026 O   0  0  0  0  0  0  0  0  0  0  0  0
    8.5366    1.4438   13.3850 C   0  0  0  0  0  0  0  0  0  0  0  0
    9.3719    1.5375   14.1584 O   0  0  0  0  0  0  0  0  0  0  0  0
   10.6542   -2.4239   10.7568 P   0  0  0  0  0  0  0  0  0  0  0  0
   10.0481   -2.9973    9.1382 C   0  0  0  0  0  0  0  0  0  0  0  0
   10.0225   -4.3405    8.7807 C   0  0  0  0  0  0  0  0  0  0  0  0
    9.6650   -4.7221    7.4883 C   0  0  0  0  0  0  0  0  0  0  0  0
    9.3595   -3.7808    6.5399 C   0  0  0  0  0  0  0  0  0  0  0  0
    9.4161   -2.4444    6.8690 C   0  0  0  0  0  0  0  0  0  0  0  0
    9.7492   -2.0469    8.1540 C   0  0  0  0  0  0  0  0  0  0  0  0
   10.3305   -3.7260   11.9834 C   0  0  0  0  0  0  0  0  0  0  0  0
   11.1505   -3.7900   13.1202 C   0  0  0  0  0  0  0  0  0  0  0  0
   10.8989   -4.7198   14.1210 C   0  0  0  0  0  0  0  0  0  0  0  0
    9.8289   -5.5902   13.9968 C   0  0  0  0  0  0  0  0  0  0  0  0
    9.0186   -5.5513   12.8779 C   0  0  0  0  0  0  0  0  0  0  0  0
    9.2684   -4.6284   11.8787 C   0  0  0  0  0  0  0  0  0  0  0  0
    9.6415   -0.9526   11.2594 C   0  0  0  0  0  0  0  0  0  0  0  0
    7.8122   -0.8544   11.5735 P   0  0  0  0  0  0  0  0  0  0  0  0
    7.4419   -1.9829   12.9542 C   0  0  0  0  0  0  0  0  0  0  0  0
    8.3658   -2.0835   13.9923 C   0  0  0  0  0  0  0  0  0  0  0  0
    8.0910   -2.8556   15.1038 C   0  0  0  0  0  0  0  0  0  0  0  0
    6.8940   -3.5136   15.1875 C   0  0  0  0  0  0  0  0  0  0  0  0
    5.9522   -3.3971   14.1928 C   0  0  0  0  0  0  0  0  0  0  0  0
    6.2173   -2.6249   13.0514 C   0  0  0  0  0  0  0  0  0  0  0  0
    7.0475   -1.5238   10.0657 C   0  0  0  0  0  0  0  0  0  0  0  0
    6.7647   -2.8762    9.9236 C   0  0  0  0  0  0  0  0  0  0  0  0
    6.3179   -3.3833    8.7194 C   0  0  0  0  0  0  0  0  0  0  0  0
    6.1415   -2.5449    7.6394 C   0  0  0  0  0  0  0  0  0  0  0  0
    6.3916   -1.1948    7.7620 C   0  0  0  0  0  0  0  0  0  0  0  0
    6.8303   -0.6694    8.9782 C   0  0  0  0  0  0  0  0  0  0  0  0
   13.1626   -4.2035   11.8009 H   0  0  0  0  0  0  0  0  0  0  0  0
   12.4426   -4.0504    9.1098 H   0  0  0  0  0  0  0  0  0  0  0  0
   13.7188   -1.8048    7.8294 H   0  0  0  0  0  0  0  0  0  0  0  0
   15.4173   -0.4706    9.9565 H   0  0  0  0  0  0  0  0  0  0  0  0
   14.9621   -1.9989   12.4920 H   0  0  0  0  0  0  0  0  0  0  0  0
   15.9518   -4.6855   12.0686 H   0  0  0  0  0  0  0  0  0  0  0  0
   14.3418   -6.0197   10.0044 H   0  0  0  0  0  0  0  0  0  0  0  0
   14.6969   -4.5347    7.4823 H   0  0  0  0  0  0  0  0  0  0  0  0
   16.5917   -2.3073    8.0223 H   0  0  0  0  0  0  0  0  0  0  0  0
   17.3639   -2.4764   10.8405 H   0  0  0  0  0  0  0  0  0  0  0  0
   16.9719   -4.9391    9.3043 H   0  0  0  0  0  0  0  0  0  0  0  0
    5.4774   -0.2330   13.6483 H   0  0  0  0  0  0  0  0  0  0  0  0
    5.1121   -0.0091   10.8809 H   0  0  0  0  0  0  0  0  0  0  0  0
    5.8886    2.6455    9.9415 H   0  0  0  0  0  0  0  0  0  0  0  0
    6.7599    4.2058   12.4561 H   0  0  0  0  0  0  0  0  0  0  0  0
    6.5025    2.2457   14.7418 H   0  0  0  0  0  0  0  0  0  0  0  0
    3.6787    1.5101   14.9856 H   0  0  0  0  0  0  0  0  0  0  0  0
    2.8268    0.0754   12.5802 H   0  0  0  0  0  0  0  0  0  0  0  0
    3.0913    1.8984   10.2811 H   0  0  0  0  0  0  0  0  0  0  0  0
    4.0752    4.5096   11.2833 H   0  0  0  0  0  0  0  0  0  0  0  0
    4.4292    4.2515   14.2302 H   0  0  0  0  0  0  0  0  0  0  0  0
    2.1518    2.9287   12.8734 H   0  0  0  0  0  0  0  0  0  0  0  0
   10.2518   -5.0031    9.4210 H   0  0  0  0  0  0  0  0  0  0  0  0
    9.6333   -5.6427    7.2624 H   0  0  0  0  0  0  0  0  0  0  0  0
    9.1107   -4.0481    5.6619 H   0  0  0  0  0  0  0  0  0  0  0  0
    9.2253   -1.7888    6.2093 H   0  0  0  0  0  0  0  0  0  0  0  0
    9.7751   -1.1217    8.3694 H   0  0  0  0  0  0  0  0  0  0  0  0
   11.8847   -3.1914   13.2055 H   0  0  0  0  0  0  0  0  0  0  0  0
   11.4584   -4.7586   14.8869 H   0  0  0  0  0  0  0  0  0  0  0  0
    9.6494   -6.2184   14.6864 H   0  0  0  0  0  0  0  0  0  0  0  0
    8.2922   -6.1590   12.7941 H   0  0  0  0  0  0  0  0  0  0  0  0
    8.7093   -4.6056   11.1113 H   0  0  0  0  0  0  0  0  0  0  0  0
    9.8227   -0.2673   10.5683 H   0  0  0  0  0  0  0  0  0  0  0  0
   10.0649   -0.6191   12.0896 H   0  0  0  0  0  0  0  0  0  0  0  0
    9.1932   -1.6197   13.9355 H   0  0  0  0  0  0  0  0  0  0  0  0
    8.7277   -2.9287   15.8053 H   0  0  0  0  0  0  0  0  0  0  0  0
    6.7118   -4.0573   15.9444 H   0  0  0  0  0  0  0  0  0  0  0  0
    5.1168   -3.8402   14.2795 H   0  0  0  0  0  0  0  0  0  0  0  0
    5.5714   -2.5449   12.3603 H   0  0  0  0  0  0  0  0  0  0  0  0
    6.8814   -3.4610   10.6640 H   0  0  0  0  0  0  0  0  0  0  0  0
    6.1305   -4.3109    8.6341 H   0  0  0  0  0  0  0  0  0  0  0  0
    5.8496   -2.8990    6.8077 H   0  0  0  0  0  0  0  0  0  0  0  0
    6.2636   -0.6191    7.0171 H   0  0  0  0  0  0  0  0  0  0  0  0
    6.9812    0.2627    9.0679 H   0  0  0  0  0  0  0  0  0  0  0  0
  1  2  1  0  0  0  0
  2  3  1  0  0  0  0
  3  1  1  0  0  0  0
  4  1  1  0  0  0  0
  5  1  1  0  0  0  0
  6  1  1  0  0  0  0
  7  2  1  0  0  0  0
  8  2  1  0  0  0  0
  9  3  1  0  0  0  0
 10  4  1  0  0  0  0
 11  5  1  0  0  0  0
 12  7  1  0  0  0  0
 13  1  1  0  0  0  0
 14 13  3  0  0  0  0
 15  1  1  0  0  0  0
 16 15  3  0  0  0  0
 17 18  1  0  0  0  0
 18 19  1  0  0  0  0
 19 17  1  0  0  0  0
 20 17  1  0  0  0  0
 21 17  1  0  0  0  0
 22 17  1  0  0  0  0
 23 18  1  0  0  0  0
 24 18  1  0  0  0  0
 25 19  1  0  0  0  0
 26 20  1  0  0  0  0
 27 21  1  0  0  0  0
 28 23  1  0  0  0  0
 29 17  1  0  0  0  0
 30 29  3  0  0  0  0
 31 17  1  0  0  0  0
 32 31  3  0  0  0  0
 33  1  1  0  0  0  0
 34 33  1  0  0  0  0
 35 34  4  0  0  0  0
 36 35  4  0  0  0  0
 37 36  4  0  0  0  0
 38 37  4  0  0  0  0
 39 34  4  0  0  0  0
 40 33  1  0  0  0  0
 41 40  4  0  0  0  0
 42 41  4  0  0  0  0
 43 42  4  0  0  0  0
 44 43  4  0  0  0  0
 45 40  4  0  0  0  0
 46 33  1  0  0  0  0
 47 17  1  0  0  0  0
 48 47  1  0  0  0  0
 49 48  4  0  0  0  0
 50 49  4  0  0  0  0
 51 50  4  0  0  0  0
 52 51  4  0  0  0  0
 53 48  4  0  0  0  0
 54 47  1  0  0  0  0
 55 54  4  0  0  0  0
 56 55  4  0  0  0  0
 57 56  4  0  0  0  0
 58 57  4  0  0  0  0
 59 54  4  0  0  0  0
 60  2  1  0  0  0  0
 61  3  1  0  0  0  0
 62  4  1  0  0  0  0
 63  5  1  0  0  0  0
 64  6  1  0  0  0  0
 65  7  1  0  0  0  0
 66  8  1  0  0  0  0
 67  9  1  0  0  0  0
 68 10  1  0  0  0  0
 69 11  1  0  0  0  0
 70 12  1  0  0  0  0
 71 18  1  0  0  0  0
 72 19  1  0  0  0  0
 73 20  1  0  0  0  0
 74 21  1  0  0  0  0
 75 22  1  0  0  0  0
 76 23  1  0  0  0  0
 77 24  1  0  0  0  0
 78 25  1  0  0  0  0
 79 26  1  0  0  0  0
 80 27  1  0  0  0  0
 81 28  1  0  0  0  0
 82 35  1  0  0  0  0
 83 36  1  0  0  0  0
 84 37  1  0  0  0  0
 85 38  1  0  0  0  0
 86 39  1  0  0  0  0
 87 41  1  0  0  0  0
 88 42  1  0  0  0  0
 89 43  1  0  0  0  0
 90 44  1  0  0  0  0
 91 45  1  0  0  0  0
 92 46  1  0  0  0  0
 93 46  1  0  0  0  0
 94 49  1  0  0  0  0
 95 50  1  0  0  0  0
 96 51  1  0  0  0  0
 97 52  1  0  0  0  0
 98 53  1  0  0  0  0
 99 55  1  0  0  0  0
100 56  1  0  0  0  0
101 57  1  0  0  0  0
102 58  1  0  0  0  0
103 59  1  0  0  0  0
  2  6  1  0  0  0  0
  3  4  1  0  0  0  0
  3  8  1  0  0  0  0
  4  5  1  0  0  0  0
  4  9  1  0  0  0  0
  5  6  1  0  0  0  0
  5 10  1  0  0  0  0
  6  7  1  0  0  0  0
  6 11  1  0  0  0  0
  7  8  1  0  0  0  0
  7 11  1  0  0  0  0
  8  9  1  0  0  0  0
  8 12  1  0  0  0  0
  9 10  1  0  0  0  0
  9 12  1  0  0  0  0
 10 11  1  0  0  0  0
 10 12  1  0  0  0  0
 11 12  1  0  0  0  0
 18 22  1  0  0  0  0
 19 20  1  0  0  0  0
 19 24  1  0  0  0  0
 20 21  1  0  0  0  0
 20 25  1  0  0  0  0
 21 22  1  0  0  0  0
 21 26  1  0  0  0  0
 22 23  1  0  0  0  0
 22 27  1  0  0  0  0
 23 24  1  0  0  0  0
 23 27  1  0  0  0  0
 24 25  1  0  0  0  0
 24 28  1  0  0  0  0
 25 26  1  0  0  0  0
 25 28  1  0  0  0  0
 26 27  1  0  0  0  0
 26 28  1  0  0  0  0
 27 28  1  0  0  0  0
 38 39  4  0  0  0  0
 44 45  4  0  0  0  0
 46 47  1  0  0  0  0
 52 53  4  0  0  0  0
 58 59  4  0  0  0  0
M  END
$$$$
HOBTIF

From CSD data. Using bond type 'Any'. Matching problem. No disordered atoms. Largest molecule.
137155  0  0  0  0  0  0  0  0999 V2000
   10.8996   11.6525    9.4818 Lu  0  0  0  0  0  0  0  0  0  0  0  0
    8.2353   12.7734   13.7690 Lu  0  0  0  0  0  0  0  0  0  0  0  0
   11.9137    9.6560    6.8765 B   0  0  0  0  0  0  0  0  0  0  0  0
   12.1936    9.0965    6.0955 H   0  0  0  0  0  0  0  0  0  0  0  0
    5.6060   11.7577   15.7120 B   0  0  0  0  0  0  0  0  0  0  0  0
    4.8392   11.4540   16.2775 H   0  0  0  0  0  0  0  0  0  0  0  0
    9.7477   11.2155   11.9854 P   0  0  0  0  0  0  0  0  0  0  0  0
    9.2528   13.2171   11.1613 P   0  0  0  0  0  0  0  0  0  0  0  0
   11.6383   11.7429   13.0497 P   0  0  0  0  0  0  0  0  0  0  0  0
   12.6838   12.7352   11.4228 P   0  0  0  0  0  0  0  0  0  0  0  0
   11.1922   14.3649   11.1972 P   0  0  0  0  0  0  0  0  0  0  0  0
   11.0508   15.1310   13.2542 P   0  0  0  0  0  0  0  0  0  0  0  0
   10.9389   13.3119   14.4282 P   0  0  0  0  0  0  0  0  0  0  0  0
   10.0756   13.3057    7.9145 O   0  0  0  0  0  0  0  0  0  0  0  0
    7.2205   14.9711   13.3560 O   0  0  0  0  0  0  0  0  0  0  0  0
   11.9385    9.4641    9.4513 N   0  0  0  0  0  0  0  0  0  0  0  0
   12.3771    8.9462    8.2029 N   0  0  0  0  0  0  0  0  0  0  0  0
    9.7126   10.4099    7.8636 N   0  0  0  0  0  0  0  0  0  0  0  0
   10.3831    9.7862    6.8697 N   0  0  0  0  0  0  0  0  0  0  0  0
   12.5964   11.9768    7.8060 N   0  0  0  0  0  0  0  0  0  0  0  0
   12.6044   11.0584    6.7662 N   0  0  0  0  0  0  0  0  0  0  0  0
    5.9328   12.3299   13.2525 N   0  0  0  0  0  0  0  0  0  0  0  0
    5.0671   12.1578   14.3500 N   0  0  0  0  0  0  0  0  0  0  0  0
    7.8987   10.7205   15.0437 N   0  0  0  0  0  0  0  0  0  0  0  0
    6.6296   10.5690   15.5831 N   0  0  0  0  0  0  0  0  0  0  0  0
    7.4171   13.5511   15.8935 N   0  0  0  0  0  0  0  0  0  0  0  0
    6.3003   12.8901   16.4227 N   0  0  0  0  0  0  0  0  0  0  0  0
   12.3277    8.4740   10.2960 C   0  0  0  0  0  0  0  0  0  0  0  0
   13.0144    7.5139    9.6498 C   0  0  0  0  0  0  0  0  0  0  0  0
   13.4241    6.7521   10.0426 H   0  0  0  0  0  0  0  0  0  0  0  0
   13.0116    7.8408    8.3131 C   0  0  0  0  0  0  0  0  0  0  0  0
   12.0609    8.5657   11.7734 C   0  0  0  0  0  0  0  0  0  0  0  0
   12.3676    7.7442   12.2117 H   0  0  0  0  0  0  0  0  0  0  0  0
   11.0986    8.6760   11.9247 H   0  0  0  0  0  0  0  0  0  0  0  0
   12.5407    9.3338   12.1452 H   0  0  0  0  0  0  0  0  0  0  0  0
   13.6798    7.0643    7.1716 C   0  0  0  0  0  0  0  0  0  0  0  0
   13.0671    7.0123    6.4092 H   0  0  0  0  0  0  0  0  0  0  0  0
   13.9000    6.1597    7.4771 H   0  0  0  0  0  0  0  0  0  0  0  0
   14.5009    7.5262    6.9003 H   0  0  0  0  0  0  0  0  0  0  0  0
    8.3950   10.2953    7.5651 C   0  0  0  0  0  0  0  0  0  0  0  0
    8.2623    9.6721    6.3286 C   0  0  0  0  0  0  0  0  0  0  0  0
    7.4473    9.4976    5.8721 H   0  0  0  0  0  0  0  0  0  0  0  0
    9.5217    9.3549    5.8926 C   0  0  0  0  0  0  0  0  0  0  0  0
    7.3430   10.8619    8.4370 C   0  0  0  0  0  0  0  0  0  0  0  0
    7.3936   10.4451    9.3222 H   0  0  0  0  0  0  0  0  0  0  0  0
    6.4633   10.6867    8.0426 H   0  0  0  0  0  0  0  0  0  0  0  0
    7.4761   11.8289    8.5226 H   0  0  0  0  0  0  0  0  0  0  0  0
    9.9797    8.6561    4.6544 C   0  0  0  0  0  0  0  0  0  0  0  0
   10.3232    7.7688    4.8873 H   0  0  0  0  0  0  0  0  0  0  0  0
   10.6888    9.1799    4.2268 H   0  0  0  0  0  0  0  0  0  0  0  0
    9.2254    8.5614    4.0343 H   0  0  0  0  0  0  0  0  0  0  0  0
   13.3361   12.9703    7.4057 C   0  0  0  0  0  0  0  0  0  0  0  0
   13.8229   12.7934    6.1284 C   0  0  0  0  0  0  0  0  0  0  0  0
   14.3659   13.3922    5.6301 H   0  0  0  0  0  0  0  0  0  0  0  0
   13.3379   11.5206    5.7145 C   0  0  0  0  0  0  0  0  0  0  0  0
   13.6208   14.2248    8.2809 C   0  0  0  0  0  0  0  0  0  0  0  0
   14.3355   14.0213    8.9207 H   0  0  0  0  0  0  0  0  0  0  0  0
   12.8084   14.4750    8.7681 H   0  0  0  0  0  0  0  0  0  0  0  0
   13.8996   14.9681    7.7064 H   0  0  0  0  0  0  0  0  0  0  0  0
   13.5467   10.8109    4.4322 C   0  0  0  0  0  0  0  0  0  0  0  0
   12.7080   10.7972    3.9261 H   0  0  0  0  0  0  0  0  0  0  0  0
   13.8366    9.8922    4.6104 H   0  0  0  0  0  0  0  0  0  0  0  0
   14.2351   11.2752    3.9107 H   0  0  0  0  0  0  0  0  0  0  0  0
    9.4733   14.6507    8.0808 C   0  0  0  0  0  0  0  0  0  0  0  0
   10.1322   15.3575    7.8644 H   0  0  0  0  0  0  0  0  0  0  0  0
    9.1614   14.7806    9.0115 H   0  0  0  0  0  0  0  0  0  0  0  0
    8.3209   14.6914    7.1258 C   0  0  0  0  0  0  0  0  0  0  0  0
    8.1571   15.6175    6.8161 H   0  0  0  0  0  0  0  0  0  0  0  0
    7.4979   14.3499    7.5574 H   0  0  0  0  0  0  0  0  0  0  0  0
    8.7207   13.8129    5.9775 C   0  0  0  0  0  0  0  0  0  0  0  0
    8.8528   14.3399    5.1506 H   0  0  0  0  0  0  0  0  0  0  0  0
    8.0432   13.1098    5.8108 H   0  0  0  0  0  0  0  0  0  0  0  0
   10.0728   13.1936    6.4829 C   0  0  0  0  0  0  0  0  0  0  0  0
   10.1376   12.2431    6.2121 H   0  0  0  0  0  0  0  0  0  0  0  0
   10.8407   13.6842    6.0966 H   0  0  0  0  0  0  0  0  0  0  0  0
    5.0973   12.6079   12.2297 C   0  0  0  0  0  0  0  0  0  0  0  0
    3.7652   12.6279   12.6436 C   0  0  0  0  0  0  0  0  0  0  0  0
    2.9950   12.8565   12.1364 H   0  0  0  0  0  0  0  0  0  0  0  0
    3.8301   12.2425   13.9514 C   0  0  0  0  0  0  0  0  0  0  0  0
    5.6093   12.9193   10.8999 C   0  0  0  0  0  0  0  0  0  0  0  0
    5.3265   13.8219   10.6442 H   0  0  0  0  0  0  0  0  0  0  0  0
    5.2575   12.2714   10.2542 H   0  0  0  0  0  0  0  0  0  0  0  0
    6.5883   12.8736   10.9080 H   0  0  0  0  0  0  0  0  0  0  0  0
    2.6258   12.1359   14.9097 C   0  0  0  0  0  0  0  0  0  0  0  0
    1.7938   12.1522   14.3911 H   0  0  0  0  0  0  0  0  0  0  0  0
    2.6367   12.8914   15.5331 H   0  0  0  0  0  0  0  0  0  0  0  0
    2.6813   11.2963   15.4114 H   0  0  0  0  0  0  0  0  0  0  0  0
    8.5421    9.6327   15.3151 C   0  0  0  0  0  0  0  0  0  0  0  0
    7.7115    8.7291   15.9682 C   0  0  0  0  0  0  0  0  0  0  0  0
    7.9452    7.8516   16.2467 H   0  0  0  0  0  0  0  0  0  0  0  0
    6.5238    9.3203   16.1344 C   0  0  0  0  0  0  0  0  0  0  0  0
    9.9822    9.3215   14.9097 C   0  0  0  0  0  0  0  0  0  0  0  0
   10.0047    9.0394   13.9724 H   0  0  0  0  0  0  0  0  0  0  0  0
   10.3325    8.6024   15.4766 H   0  0  0  0  0  0  0  0  0  0  0  0
   10.5342   10.1239   15.0234 H   0  0  0  0  0  0  0  0  0  0  0  0
    5.2841    8.8570   16.8502 C   0  0  0  0  0  0  0  0  0  0  0  0
    4.4972    9.0505   16.2999 H   0  0  0  0  0  0  0  0  0  0  0  0
    5.2075    9.3258   17.7073 H   0  0  0  0  0  0  0  0  0  0  0  0
    5.3417    7.8915   17.0102 H   0  0  0  0  0  0  0  0  0  0  0  0
    7.7357   14.4959   16.7128 C   0  0  0  0  0  0  0  0  0  0  0  0
    6.8038   14.5927   17.7831 C   0  0  0  0  0  0  0  0  0  0  0  0
    6.7743   15.2437   18.4740 H   0  0  0  0  0  0  0  0  0  0  0  0
    5.9596   13.5327   17.5863 C   0  0  0  0  0  0  0  0  0  0  0  0
    8.8888   15.4923   16.4143 C   0  0  0  0  0  0  0  0  0  0  0  0
    9.7428   15.0930   16.6818 H   0  0  0  0  0  0  0  0  0  0  0  0
    8.7429   16.3197   16.9196 H   0  0  0  0  0  0  0  0  0  0  0  0
    8.9073   15.6935   15.4560 H   0  0  0  0  0  0  0  0  0  0  0  0
    4.8259   12.9740   18.4633 C   0  0  0  0  0  0  0  0  0  0  0  0
    4.0673   13.5939   18.4500 H   0  0  0  0  0  0  0  0  0  0  0  0
    5.1462   12.8680   19.3829 H   0  0  0  0  0  0  0  0  0  0  0  0
    4.5421   12.1031   18.1136 H   0  0  0  0  0  0  0  0  0  0  0  0
    5.9825   15.4211   14.0396 C   0  0  0  0  0  0  0  0  0  0  0  0
    6.1949   15.9474   14.8509 H   0  0  0  0  0  0  0  0  0  0  0  0
    5.4156   14.6501   14.2939 H   0  0  0  0  0  0  0  0  0  0  0  0
    5.2970   16.2831   12.9896 C   0  0  0  0  0  0  0  0  0  0  0  0
    4.7932   17.0208   13.4179 H   0  0  0  0  0  0  0  0  0  0  0  0
    4.6706   15.7422   12.4472 H   0  0  0  0  0  0  0  0  0  0  0  0
    6.4366   16.8378   12.1161 C   0  0  0  0  0  0  0  0  0  0  0  0
    6.2209   16.7370   11.1547 H   0  0  0  0  0  0  0  0  0  0  0  0
    6.5902   17.7971   12.3083 H   0  0  0  0  0  0  0  0  0  0  0  0
    7.6176   16.0464   12.4655 C   0  0  0  0  0  0  0  0  0  0  0  0
    8.0256   15.6705   11.6455 H   0  0  0  0  0  0  0  0  0  0  0  0
    8.2886   16.6216   12.9110 H   0  0  0  0  0  0  0  0  0  0  0  0
   12.8516   15.7449   13.5544 C   0  0  0  0  0  0  0  0  0  0  0  0
   12.9481   16.0089   14.5029 H   0  0  0  0  0  0  0  0  0  0  0  0
   13.4784   14.9981   13.3825 H   0  0  0  0  0  0  0  0  0  0  0  0
   13.8637   19.1447   11.2561 C   0  0  0  0  0  0  0  0  0  0  0  0
   14.0852   19.9232   10.7582 H   0  0  0  0  0  0  0  0  0  0  0  0
   13.1811   19.2613   12.4621 C   0  0  0  0  0  0  0  0  0  0  0  0
   12.9370   20.1200   12.7876 H   0  0  0  0  0  0  0  0  0  0  0  0
   12.8575   18.1230   13.1898 C   0  0  0  0  0  0  0  0  0  0  0  0
   12.3916   18.2032   14.0139 H   0  0  0  0  0  0  0  0  0  0  0  0
   13.2154   16.8681   12.7131 C   0  0  0  0  0  0  0  0  0  0  0  0
   13.8979   16.7514   11.5071 C   0  0  0  0  0  0  0  0  0  0  0  0
   14.1426   15.8927   11.1815 H   0  0  0  0  0  0  0  0  0  0  0  0
   14.2215   17.8898   10.7794 C   0  0  0  0  0  0  0  0  0  0  0  0
   14.6880   17.8095    9.9551 H   0  0  0  0  0  0  0  0  0  0  0  0
  1  7  1  0  0  0  0
  2  7  1  0  0  0  0
  3  4  1  0  0  0  0
  5  6  1  0  0  0  0
  7  8  1  0  0  0  0
  8  1  1  0  0  0  0
  9  7  1  0  0  0  0
 10  1  1  0  0  0  0
 11  8  1  0  0  0  0
 12 11  1  0  0  0  0
 13  2  1  0  0  0  0
 14  1  1  0  0  0  0
 15  2  1  0  0  0  0
 16  1  1  0  0  0  0
 17  3  1  0  0  0  0
 18  1  1  0  0  0  0
 19  3  1  0  0  0  0
 20  1  1  0  0  0  0
 21  3  1  0  0  0  0
 22  2  1  0  0  0  0
 23  5  1  0  0  0  0
 24  2  1  0  0  0  0
 25  5  1  0  0  0  0
 26  2  1  0  0  0  0
 27  5  1  0  0  0  0
 28 16  2  0  0  0  0
 29 28  1  0  0  0  0
 30 29  1  0  0  0  0
 31 17  1  0  0  0  0
 32 28  1  0  0  0  0
 33 32  1  0  0  0  0
 34 32  1  0  0  0  0
 35 32  1  0  0  0  0
 36 31  1  0  0  0  0
 37 36  1  0  0  0  0
 38 36  1  0  0  0  0
 39 36  1  0  0  0  0
 40 18  2  0  0  0  0
 41 40  1  0  0  0  0
 42 41  1  0  0  0  0
 43 19  1  0  0  0  0
 44 40  1  0  0  0  0
 45 44  1  0  0  0  0
 46 44  1  0  0  0  0
 47 44  1  0  0  0  0
 48 43  1  0  0  0  0
 49 48  1  0  0  0  0
 50 48  1  0  0  0  0
 51 48  1  0  0  0  0
 52 20  2  0  0  0  0
 53 52  1  0  0  0  0
 54 53  1  0  0  0  0
 55 21  1  0  0  0  0
 56 52  1  0  0  0  0
 57 56  1  0  0  0  0
 58 56  1  0  0  0  0
 59 56  1  0  0  0  0
 60 55  1  0  0  0  0
 61 60  1  0  0  0  0
 62 60  1  0  0  0  0
 63 60  1  0  0  0  0
 64 14  1  0  0  0  0
 65 64  1  0  0  0  0
 66 64  1  0  0  0  0
 67 64  1  0  0  0  0
 68 67  1  0  0  0  0
 69 67  1  0  0  0  0
 70 67  1  0  0  0  0
 71 70  1  0  0  0  0
 72 70  1  0  0  0  0
 73 14  1  0  0  0  0
 74 73  1  0  0  0  0
 75 73  1  0  0  0  0
 76 22  2  0  0  0  0
 77 76  1  0  0  0  0
 78 77  1  0  0  0  0
 79 23  1  0  0  0  0
 80 76  1  0  0  0  0
 81 80  1  0  0  0  0
 82 80  1  0  0  0  0
 83 80  1  0  0  0  0
 84 79  1  0  0  0  0
 85 84  1  0  0  0  0
 86 84  1  0  0  0  0
 87 84  1  0  0  0  0
 88 24  2  0  0  0  0
 89 88  1  0  0  0  0
 90 89  1  0  0  0  0
 91 25  1  0  0  0  0
 92 88  1  0  0  0  0
 93 92  1  0  0  0  0
 94 92  1  0  0  0  0
 95 92  1  0  0  0  0
 96 91  1  0  0  0  0
 97 96  1  0  0  0  0
 98 96  1  0  0  0  0
 99 96  1  0  0  0  0
100 26  2  0  0  0  0
101100  1  0  0  0  0
102101  1  0  0  0  0
103 27  1  0  0  0  0
104100  1  0  0  0  0
105104  1  0  0  0  0
106104  1  0  0  0  0
107104  1  0  0  0  0
108103  1  0  0  0  0
109108  1  0  0  0  0
110108  1  0  0  0  0
111108  1  0  0  0  0
112 15  1  0  0  0  0
113112  1  0  0  0  0
114112  1  0  0  0  0
115112  1  0  0  0  0
116115  1  0  0  0  0
117115  1  0  0  0  0
118115  1  0  0  0  0
119118  1  0  0  0  0
120118  1  0  0  0  0
121 15  1  0  0  0  0
122121  1  0  0  0  0
123121  1  0  0  0  0
124 12  1  0  0  0  0
125124  1  0  0  0  0
126124  1  0  0  0  0
127128  1  0  0  0  0
129127  4  0  0  0  0
130129  1  0  0  0  0
131129  4  0  0  0  0
132131  1  0  0  0  0
133124  1  0  0  0  0
134133  4  0  0  0  0
135134  1  0  0  0  0
136127  4  0  0  0  0
137136  1  0  0  0  0
  2  8  1  0  0  0  0
  9 10  1  0  0  0  0
  9 13  1  0  0  0  0
 10 11  1  0  0  0  0
 12 13  1  0  0  0  0
 16 17  1  0  0  0  0
 18 19  1  0  0  0  0
 20 21  1  0  0  0  0
 22 23  1  0  0  0  0
 24 25  1  0  0  0  0
 26 27  1  0  0  0  0
 29 31  2  0  0  0  0
 41 43  2  0  0  0  0
 53 55  2  0  0  0  0
 70 73  1  0  0  0  0
 77 79  2  0  0  0  0
 89 91  2  0  0  0  0
101103  2  0  0  0  0
118121  1  0  0  0  0
131133  4  0  0  0  0
134136  4  0  0  0  0
M  END
$$$$
HOBTOL

From CSD data. Using bond type 'Any'. No disordered atoms. Largest molecule.
172191  0  0  0  0  0  0  0  0999 V2000
    8.3746   10.3222   12.3609 Y   0  0  0  0  0  0  0  0  0  0  0  0
    8.0032   10.0163    8.8970 B   0  0  0  0  0  0  0  0  0  0  0  0
    6.7958    8.7219   13.2512 O   0  0  0  0  0  0  0  0  0  0  0  0
    8.1266   11.7582   14.8101 P   0  0  0  0  0  0  0  0  0  0  0  0
   10.1860   11.0975   15.3031 P   0  0  0  0  0  0  0  0  0  0  0  0
   10.2447    9.2446   14.1747 P   0  0  0  0  0  0  0  0  0  0  0  0
    6.6895   10.6320    9.5132 N   0  0  0  0  0  0  0  0  0  0  0  0
    6.4844   10.6690   10.8631 N   0  0  0  0  0  0  0  0  0  0  0  0
    8.2513    8.6317    9.4685 N   0  0  0  0  0  0  0  0  0  0  0  0
    8.5602    8.4015   10.7876 N   0  0  0  0  0  0  0  0  0  0  0  0
    9.2242   10.9137    9.1960 N   0  0  0  0  0  0  0  0  0  0  0  0
    9.7105   11.0775   10.4620 N   0  0  0  0  0  0  0  0  0  0  0  0
    5.4957   11.0880    7.4018 C   0  0  0  0  0  0  0  0  0  0  0  0
    6.2316   11.6033    7.0651 H   0  0  0  0  0  0  0  0  0  0  0  0
    4.6701   11.5127    7.1601 H   0  0  0  0  0  0  0  0  0  0  0  0
    5.5234   10.2052    7.0231 H   0  0  0  0  0  0  0  0  0  0  0  0
    5.5921   10.9931    8.9040 C   0  0  0  0  0  0  0  0  0  0  0  0
    4.6368   11.2269    9.8318 C   0  0  0  0  0  0  0  0  0  0  0  0
    3.7575   11.4779    9.6613 H   0  0  0  0  0  0  0  0  0  0  0  0
    5.1979   11.0267   11.0699 C   0  0  0  0  0  0  0  0  0  0  0  0
    4.5910   11.0450   12.4421 C   0  0  0  0  0  0  0  0  0  0  0  0
    4.3728   10.1493   12.7076 H   0  0  0  0  0  0  0  0  0  0  0  0
    3.7948   11.5794   12.4337 H   0  0  0  0  0  0  0  0  0  0  0  0
    5.2194   11.4188   13.0653 H   0  0  0  0  0  0  0  0  0  0  0  0
    8.0108    7.3537    7.3250 C   0  0  0  0  0  0  0  0  0  0  0  0
    7.0940    7.5892    7.1713 H   0  0  0  0  0  0  0  0  0  0  0  0
    8.1615    6.4495    7.0385 H   0  0  0  0  0  0  0  0  0  0  0  0
    8.5815    7.9452    6.8275 H   0  0  0  0  0  0  0  0  0  0  0  0
    8.3165    7.4706    8.7614 C   0  0  0  0  0  0  0  0  0  0  0  0
    8.6862    6.5110    9.6697 C   0  0  0  0  0  0  0  0  0  0  0  0
    8.7999    5.6067    9.4839 H   0  0  0  0  0  0  0  0  0  0  0  0
    8.8616    7.0970   10.8896 C   0  0  0  0  0  0  0  0  0  0  0  0
    9.2415    6.4802   12.1431 C   0  0  0  0  0  0  0  0  0  0  0  0
   10.1965    6.4005   12.1836 H   0  0  0  0  0  0  0  0  0  0  0  0
    8.8443    5.6084   12.2045 H   0  0  0  0  0  0  0  0  0  0  0  0
    8.9346    7.0243   12.8725 H   0  0  0  0  0  0  0  0  0  0  0  0
    9.8724   11.4605    6.8317 C   0  0  0  0  0  0  0  0  0  0  0  0
    9.8098   10.5619    6.5019 H   0  0  0  0  0  0  0  0  0  0  0  0
   10.6003   11.9107    6.3985 H   0  0  0  0  0  0  0  0  0  0  0  0
    9.0531   11.9278    6.6486 H   0  0  0  0  0  0  0  0  0  0  0  0
   10.1134   11.4347    8.3325 C   0  0  0  0  0  0  0  0  0  0  0  0
   11.1742   11.9075    9.0283 C   0  0  0  0  0  0  0  0  0  0  0  0
   11.9421   12.3010    8.6818 H   0  0  0  0  0  0  0  0  0  0  0  0
   10.8858   11.6891   10.3251 C   0  0  0  0  0  0  0  0  0  0  0  0
   11.7441   11.9996   11.5003 C   0  0  0  0  0  0  0  0  0  0  0  0
   11.5519   11.3805   12.2101 H   0  0  0  0  0  0  0  0  0  0  0  0
   11.5661   12.8943   11.7993 H   0  0  0  0  0  0  0  0  0  0  0  0
   12.6686   11.9231   11.2515 H   0  0  0  0  0  0  0  0  0  0  0  0
    5.9145    7.8326   12.5134 C   0  0  0  0  0  0  0  0  0  0  0  0
    5.3419    8.3413   11.9181 H   0  0  0  0  0  0  0  0  0  0  0  0
    6.4340    7.2073   11.9824 H   0  0  0  0  0  0  0  0  0  0  0  0
    5.1301    7.1311   13.4761 C   0  0  0  0  0  0  0  0  0  0  0  0
    4.3218    6.6974   13.3280 H   0  0  0  0  0  0  0  0  0  0  0  0
    5.8664    7.2342   14.7701 C   0  0  0  0  0  0  0  0  0  0  0  0
    5.8360    6.6369   15.4828 H   0  0  0  0  0  0  0  0  0  0  0  0
    6.6454    8.4655   14.6835 C   0  0  0  0  0  0  0  0  0  0  0  0
    7.5121    8.3528   15.1055 H   0  0  0  0  0  0  0  0  0  0  0  0
    6.1792    9.1969   15.1166 H   0  0  0  0  0  0  0  0  0  0  0  0
    9.9948   10.5910   17.0869 C   0  0  0  0  0  0  0  0  0  0  0  0
   10.8381   10.2087   17.3748 H   0  0  0  0  0  0  0  0  0  0  0  0
    9.8545   11.3966   17.6067 H   0  0  0  0  0  0  0  0  0  0  0  0
    8.9068    9.6179   17.4530 C   0  0  0  0  0  0  0  0  0  0  0  0
    7.6732   10.0966   17.7618 C   0  0  0  0  0  0  0  0  0  0  0  0
    7.5022   11.0090   17.7227 H   0  0  0  0  0  0  0  0  0  0  0  0
    6.6595    9.2010   18.1391 C   0  0  0  0  0  0  0  0  0  0  0  0
    5.8305    9.5330   18.3976 H   0  0  0  0  0  0  0  0  0  0  0  0
    6.8628    7.8864   18.1321 C   0  0  0  0  0  0  0  0  0  0  0  0
    6.1755    7.2979   18.3431 H   0  0  0  0  0  0  0  0  0  0  0  0
    8.1413    7.4074   17.7982 C   0  0  0  0  0  0  0  0  0  0  0  0
    8.3067    6.4932   17.8135 H   0  0  0  0  0  0  0  0  0  0  0  0
    9.1185    8.2483   17.4586 C   0  0  0  0  0  0  0  0  0  0  0  0
    9.9533    7.9114   17.2225 H   0  0  0  0  0  0  0  0  0  0  0  0
   12.0998    9.0468   13.7095 C   0  0  0  0  0  0  0  0  0  0  0  0
   12.2367    8.2893   13.1198 H   0  0  0  0  0  0  0  0  0  0  0  0
   12.4442    9.8478   13.2847 H   0  0  0  0  0  0  0  0  0  0  0  0
   12.7884    8.8030   15.1404 C   0  0  0  0  0  0  0  0  0  0  0  0
   13.4819    9.6969   15.8447 C   0  0  0  0  0  0  0  0  0  0  0  0
   13.6520   10.4887   15.3863 H   0  0  0  0  0  0  0  0  0  0  0  0
   14.0034    9.6710   17.1470 C   0  0  0  0  0  0  0  0  0  0  0  0
   14.4418   10.3945   17.5341 H   0  0  0  0  0  0  0  0  0  0  0  0
   13.7980    8.4269   17.8191 C   0  0  0  0  0  0  0  0  0  0  0  0
   14.0229    8.3096   18.7148 H   0  0  0  0  0  0  0  0  0  0  0  0
   13.2297    7.3759   17.0436 C   0  0  0  0  0  0  0  0  0  0  0  0
   13.1725    6.5183   17.3985 H   0  0  0  0  0  0  0  0  0  0  0  0
   12.7857    7.6093   15.8335 C   0  0  0  0  0  0  0  0  0  0  0  0
   12.4242    6.8793   15.3863 H   0  0  0  0  0  0  0  0  0  0  0  0
    8.7887   13.1004   13.1371 P   0  0  0  0  0  0  0  0  0  0  0  0
    6.7293   13.7611   12.6442 P   0  0  0  0  0  0  0  0  0  0  0  0
    6.6706   15.6141   13.7725 P   0  0  0  0  0  0  0  0  0  0  0  0
    6.9205   14.2677   10.8603 C   0  0  0  0  0  0  0  0  0  0  0  0
    6.0772   14.6500   10.5724 H   0  0  0  0  0  0  0  0  0  0  0  0
    7.0608   13.4620   10.3405 H   0  0  0  0  0  0  0  0  0  0  0  0
    8.0085   15.2408   10.4942 C   0  0  0  0  0  0  0  0  0  0  0  0
    9.2421   14.7620   10.1854 C   0  0  0  0  0  0  0  0  0  0  0  0
    9.4131   13.8497   10.2245 H   0  0  0  0  0  0  0  0  0  0  0  0
   10.2558   15.6576    9.8081 C   0  0  0  0  0  0  0  0  0  0  0  0
   11.0848   15.3257    9.5496 H   0  0  0  0  0  0  0  0  0  0  0  0
   10.0525   16.9722    9.8151 C   0  0  0  0  0  0  0  0  0  0  0  0
   10.7398   17.5608    9.6041 H   0  0  0  0  0  0  0  0  0  0  0  0
    8.7740   17.4513   10.1490 C   0  0  0  0  0  0  0  0  0  0  0  0
    8.6086   18.3655   10.1337 H   0  0  0  0  0  0  0  0  0  0  0  0
    7.7968   16.6104   10.4886 C   0  0  0  0  0  0  0  0  0  0  0  0
    6.9620   16.9473   10.7247 H   0  0  0  0  0  0  0  0  0  0  0  0
    4.8155   15.8118   14.2377 C   0  0  0  0  0  0  0  0  0  0  0  0
    4.6786   16.5693   14.8274 H   0  0  0  0  0  0  0  0  0  0  0  0
    4.4711   15.0109   14.6625 H   0  0  0  0  0  0  0  0  0  0  0  0
    4.1269   16.0556   12.8068 C   0  0  0  0  0  0  0  0  0  0  0  0
    3.4334   15.1617   12.1025 C   0  0  0  0  0  0  0  0  0  0  0  0
    3.2633   14.3699   12.5609 H   0  0  0  0  0  0  0  0  0  0  0  0
    2.9119   15.1876   10.8002 C   0  0  0  0  0  0  0  0  0  0  0  0
    2.4735   14.4642   10.4131 H   0  0  0  0  0  0  0  0  0  0  0  0
    3.1173   16.4317   10.1281 C   0  0  0  0  0  0  0  0  0  0  0  0
    2.8924   16.5491    9.2324 H   0  0  0  0  0  0  0  0  0  0  0  0
    3.6856   17.4828   10.9036 C   0  0  0  0  0  0  0  0  0  0  0  0
    3.7428   18.3403   10.5487 H   0  0  0  0  0  0  0  0  0  0  0  0
    4.1296   17.2494   12.1137 C   0  0  0  0  0  0  0  0  0  0  0  0
    4.4911   17.9794   12.5609 H   0  0  0  0  0  0  0  0  0  0  0  0
    8.5407   14.5365   15.5863 Y   0  0  0  0  0  0  0  0  0  0  0  0
    8.9121   14.8424   19.0502 B   0  0  0  0  0  0  0  0  0  0  0  0
   10.1195   16.1368   14.6960 O   0  0  0  0  0  0  0  0  0  0  0  0
   10.2258   14.2267   18.4340 N   0  0  0  0  0  0  0  0  0  0  0  0
   10.4309   14.1896   17.0841 N   0  0  0  0  0  0  0  0  0  0  0  0
    8.6640   16.2270   18.4787 N   0  0  0  0  0  0  0  0  0  0  0  0
    8.3551   16.4572   17.1596 N   0  0  0  0  0  0  0  0  0  0  0  0
    7.6911   13.9449   18.7512 N   0  0  0  0  0  0  0  0  0  0  0  0
    7.2048   13.7812   17.4852 N   0  0  0  0  0  0  0  0  0  0  0  0
   11.4196   13.7706   20.5454 C   0  0  0  0  0  0  0  0  0  0  0  0
   10.6837   13.2554   20.8822 H   0  0  0  0  0  0  0  0  0  0  0  0
   12.2452   13.3459   20.7871 H   0  0  0  0  0  0  0  0  0  0  0  0
   11.3919   14.6534   20.9241 H   0  0  0  0  0  0  0  0  0  0  0  0
   11.3232   13.8656   19.0432 C   0  0  0  0  0  0  0  0  0  0  0  0
   12.2785   13.6317   18.1154 C   0  0  0  0  0  0  0  0  0  0  0  0
   13.1578   13.3808   18.2859 H   0  0  0  0  0  0  0  0  0  0  0  0
   11.7174   13.8320   16.8773 C   0  0  0  0  0  0  0  0  0  0  0  0
   12.3243   13.8136   15.5051 C   0  0  0  0  0  0  0  0  0  0  0  0
   12.5425   14.7094   15.2396 H   0  0  0  0  0  0  0  0  0  0  0  0
   13.1205   13.2793   15.5135 H   0  0  0  0  0  0  0  0  0  0  0  0
   11.6959   13.4399   14.8819 H   0  0  0  0  0  0  0  0  0  0  0  0
    8.9045   17.5049   20.6222 C   0  0  0  0  0  0  0  0  0  0  0  0
    9.8213   17.2694   20.7760 H   0  0  0  0  0  0  0  0  0  0  0  0
    8.7538   18.4091   20.9087 H   0  0  0  0  0  0  0  0  0  0  0  0
    8.3338   16.9134   21.1197 H   0  0  0  0  0  0  0  0  0  0  0  0
    8.5988   17.3881   19.1858 C   0  0  0  0  0  0  0  0  0  0  0  0
    8.2291   18.3477   18.2775 C   0  0  0  0  0  0  0  0  0  0  0  0
    8.1154   19.2520   18.4633 H   0  0  0  0  0  0  0  0  0  0  0  0
    8.0536   17.7617   17.0576 C   0  0  0  0  0  0  0  0  0  0  0  0
    7.6738   18.3784   15.8041 C   0  0  0  0  0  0  0  0  0  0  0  0
    6.7188   18.4582   15.7636 H   0  0  0  0  0  0  0  0  0  0  0  0
    8.0710   19.2502   15.7427 H   0  0  0  0  0  0  0  0  0  0  0  0
    7.9807   17.8344   15.0747 H   0  0  0  0  0  0  0  0  0  0  0  0
    7.0429   13.3981   21.1155 C   0  0  0  0  0  0  0  0  0  0  0  0
    7.1055   14.2967   21.4453 H   0  0  0  0  0  0  0  0  0  0  0  0
    6.3149   12.9479   21.5487 H   0  0  0  0  0  0  0  0  0  0  0  0
    7.8622   12.9309   21.2986 H   0  0  0  0  0  0  0  0  0  0  0  0
    6.8019   13.4240   19.6147 C   0  0  0  0  0  0  0  0  0  0  0  0
    5.7411   12.9512   18.9189 C   0  0  0  0  0  0  0  0  0  0  0  0
    4.9732   12.5576   19.2654 H   0  0  0  0  0  0  0  0  0  0  0  0
    6.0294   13.1695   17.6221 C   0  0  0  0  0  0  0  0  0  0  0  0
    5.1712   12.8591   16.4469 C   0  0  0  0  0  0  0  0  0  0  0  0
    5.3634   13.4781   15.7371 H   0  0  0  0  0  0  0  0  0  0  0  0
    5.3492   11.9644   16.1479 H   0  0  0  0  0  0  0  0  0  0  0  0
    4.2467   12.9355   16.6957 H   0  0  0  0  0  0  0  0  0  0  0  0
   11.0008   17.0260   15.4338 C   0  0  0  0  0  0  0  0  0  0  0  0
   11.5734   16.5174   16.0291 H   0  0  0  0  0  0  0  0  0  0  0  0
   10.4813   17.6514   15.9648 H   0  0  0  0  0  0  0  0  0  0  0  0
   11.7852   17.7276   14.4711 C   0  0  0  0  0  0  0  0  0  0  0  0
   12.5935   18.1613   14.6192 H   0  0  0  0  0  0  0  0  0  0  0  0
   11.0489   17.6245   13.1771 C   0  0  0  0  0  0  0  0  0  0  0  0
   11.0793   18.2217   12.4645 H   0  0  0  0  0  0  0  0  0  0  0  0
   10.2699   16.3931   13.2637 C   0  0  0  0  0  0  0  0  0  0  0  0
    9.4032   16.5058   12.8417 H   0  0  0  0  0  0  0  0  0  0  0  0
   10.7361   15.6618   12.8306 H   0  0  0  0  0  0  0  0  0  0  0  0
  1  3  1  0  0  0  0
  2  7  1  0  0  0  0
  3 49  1  0  0  0  0
  4  1  1  0  0  0  0
  5  4  1  0  0  0  0
  6  1  1  0  0  0  0
  7  8  1  0  0  0  0
  8  1  1  0  0  0  0
  9  2  1  0  0  0  0
 10  1  1  0  0  0  0
 11  2  1  0  0  0  0
 12  1  1  0  0  0  0
 13 14  1  0  0  0  0
 15 13  1  0  0  0  0
 16 13  1  0  0  0  0
 17  7  1  0  0  0  0
 18 17  2  0  0  0  0
 19 18  1  0  0  0  0
 20  8  2  0  0  0  0
 21 20  1  0  0  0  0
 22 21  1  0  0  0  0
 23 21  1  0  0  0  0
 24 21  1  0  0  0  0
 25 26  1  0  0  0  0
 27 25  1  0  0  0  0
 28 25  1  0  0  0  0
 29  9  1  0  0  0  0
 30 29  2  0  0  0  0
 31 30  1  0  0  0  0
 32 10  2  0  0  0  0
 33 32  1  0  0  0  0
 34 33  1  0  0  0  0
 35 33  1  0  0  0  0
 36 33  1  0  0  0  0
 37 38  1  0  0  0  0
 39 37  1  0  0  0  0
 40 37  1  0  0  0  0
 41 11  1  0  0  0  0
 42 41  2  0  0  0  0
 43 42  1  0  0  0  0
 44 12  2  0  0  0  0
 45 44  1  0  0  0  0
 46 45  1  0  0  0  0
 47 45  1  0  0  0  0
 48 45  1  0  0  0  0
 49 50  1  0  0  0  0
 51 49  1  0  0  0  0
 52 49  1  0  0  0  0
 53 52  1  0  0  0  0
 54 52  1  0  0  0  0
 55 54  1  0  0  0  0
 56  3  1  0  0  0  0
 57 56  1  0  0  0  0
 58 56  1  0  0  0  0
 59  5  1  0  0  0  0
 60 59  1  0  0  0  0
 61 59  1  0  0  0  0
 62 59  1  0  0  0  0
 63 62  4  0  0  0  0
 64 63  1  0  0  0  0
 65 63  4  0  0  0  0
 66 65  1  0  0  0  0
 67 65  4  0  0  0  0
 68 67  1  0  0  0  0
 69 67  4  0  0  0  0
 70 69  1  0  0  0  0
 71 62  4  0  0  0  0
 72 71  1  0  0  0  0
 73  6  1  0  0  0  0
 74 73  1  0  0  0  0
 75 73  1  0  0  0  0
 76 73  1  0  0  0  0
 77 76  4  0  0  0  0
 78 77  1  0  0  0  0
 79 77  4  0  0  0  0
 80 79  1  0  0  0  0
 81 79  4  0  0  0  0
 82 81  1  0  0  0  0
 83 81  4  0  0  0  0
 84 83  1  0  0  0  0
 85 76  4  0  0  0  0
 86 85  1  0  0  0  0
 87  1  1  0  0  0  0
 88 87  1  0  0  0  0
 89 88  1  0  0  0  0
 90 88  1  0  0  0  0
 91 90  1  0  0  0  0
 92 90  1  0  0  0  0
 93 90  1  0  0  0  0
 94 93  4  0  0  0  0
 95 94  1  0  0  0  0
 96 94  4  0  0  0  0
 97 96  1  0  0  0  0
 98 96  4  0  0  0  0
 99 98  1  0  0  0  0
100 98  4  0  0  0  0
101100  1  0  0  0  0
102 93  4  0  0  0  0
103102  1  0  0  0  0
104 89  1  0  0  0  0
105104  1  0  0  0  0
106104  1  0  0  0  0
107104  1  0  0  0  0
108107  4  0  0  0  0
109108  1  0  0  0  0
110108  4  0  0  0  0
111110  1  0  0  0  0
112110  4  0  0  0  0
113112  1  0  0  0  0
114112  4  0  0  0  0
115114  1  0  0  0  0
116107  4  0  0  0  0
117116  1  0  0  0  0
118  4  1  0  0  0  0
119121  1  0  0  0  0
120118  1  0  0  0  0
121122  1  0  0  0  0
122118  1  0  0  0  0
123119  1  0  0  0  0
124118  1  0  0  0  0
125119  1  0  0  0  0
126118  1  0  0  0  0
127128  1  0  0  0  0
129127  1  0  0  0  0
130127  1  0  0  0  0
131121  1  0  0  0  0
132131  2  0  0  0  0
133132  1  0  0  0  0
134122  2  0  0  0  0
135134  1  0  0  0  0
136135  1  0  0  0  0
137135  1  0  0  0  0
138135  1  0  0  0  0
139140  1  0  0  0  0
141139  1  0  0  0  0
142139  1  0  0  0  0
143123  1  0  0  0  0
144143  2  0  0  0  0
145144  1  0  0  0  0
146124  2  0  0  0  0
147146  1  0  0  0  0
148147  1  0  0  0  0
149147  1  0  0  0  0
150147  1  0  0  0  0
151152  1  0  0  0  0
153151  1  0  0  0  0
154151  1  0  0  0  0
155125  1  0  0  0  0
156155  2  0  0  0  0
157156  1  0  0  0  0
158126  2  0  0  0  0
159158  1  0  0  0  0
160159  1  0  0  0  0
161159  1  0  0  0  0
162159  1  0  0  0  0
163120  1  0  0  0  0
164163  1  0  0  0  0
165163  1  0  0  0  0
166163  1  0  0  0  0
167166  1  0  0  0  0
168166  1  0  0  0  0
169168  1  0  0  0  0
170120  1  0  0  0  0
171170  1  0  0  0  0
172170  1  0  0  0  0
  4 87  1  0  0  0  0
  5  6  1  0  0  0  0
  9 10  1  0  0  0  0
 11 12  1  0  0  0  0
 13 17  1  0  0  0  0
 18 20  1  0  0  0  0
 25 29  1  0  0  0  0
 30 32  1  0  0  0  0
 37 41  1  0  0  0  0
 42 44  1  0  0  0  0
 54 56  1  0  0  0  0
 69 71  4  0  0  0  0
 83 85  4  0  0  0  0
 87118  1  0  0  0  0
 89118  1  0  0  0  0
100102  4  0  0  0  0
114116  4  0  0  0  0
123124  1  0  0  0  0
125126  1  0  0  0  0
127131  1  0  0  0  0
132134  1  0  0  0  0
139143  1  0  0  0  0
144146  1  0  0  0  0
151155  1  0  0  0  0
156158  1  0  0  0  0
168170  1  0  0  0  0
M  END
$$$$
HOBVAZ

From CSD data. Using bond type 'Any'. Matching problem. No disordered atoms. Largest molecule.
137155  0  0  0  0  0  0  0  0999 V2000
    1.3511    6.4056    3.2370 Lu  0  0  0  0  0  0  0  0  0  0  0  0
    3.4103    1.6675    4.1027 Lu  0  0  0  0  0  0  0  0  0  0  0  0
    2.2236    3.7962    2.6556 P   0  0  0  0  0  0  0  0  0  0  0  0
    2.7542    4.3860    4.7147 P   0  0  0  0  0  0  0  0  0  0  0  0
    0.1765    3.0057    3.0179 P   0  0  0  0  0  0  0  0  0  0  0  0
   -0.7589    4.7061    4.0055 P   0  0  0  0  0  0  0  0  0  0  0  0
    0.5924    1.5297    4.5770 P   0  0  0  0  0  0  0  0  0  0  0  0
    1.0768    9.2066    1.2299 B   0  0  0  0  0  0  0  0  0  0  0  0
    0.9995   10.0264    0.6639 H   0  0  0  0  0  0  0  0  0  0  0  0
    5.5631   -0.8164    3.0764 B   0  0  0  0  0  0  0  0  0  0  0  0
    6.1930   -1.5356    2.7822 H   0  0  0  0  0  0  0  0  0  0  0  0
    4.2780    8.0305    2.4932 C   0  0  0  0  0  0  0  0  0  0  0  0
    4.7234    9.1204    1.7529 C   0  0  0  0  0  0  0  0  0  0  0  0
    5.6186    9.4292    1.6835 H   0  0  0  0  0  0  0  0  0  0  0  0
    3.6432    9.6511    1.1564 C   0  0  0  0  0  0  0  0  0  0  0  0
    5.0597    7.0943    3.3354 C   0  0  0  0  0  0  0  0  0  0  0  0
    4.7944    7.1991    4.2722 H   0  0  0  0  0  0  0  0  0  0  0  0
    6.0153    7.2903    3.2416 H   0  0  0  0  0  0  0  0  0  0  0  0
    4.8858    6.1734    3.0472 H   0  0  0  0  0  0  0  0  0  0  0  0
    3.5828   10.8148    0.2507 C   0  0  0  0  0  0  0  0  0  0  0  0
    2.9201   11.4550    0.5867 H   0  0  0  0  0  0  0  0  0  0  0  0
    3.3237   10.5177   -0.6461 H   0  0  0  0  0  0  0  0  0  0  0  0
    4.4618   11.2450    0.2123 H   0  0  0  0  0  0  0  0  0  0  0  0
    0.0766    5.9420   -0.0652 C   0  0  0  0  0  0  0  0  0  0  0  0
   -0.3879    6.7728   -1.0728 C   0  0  0  0  0  0  0  0  0  0  0  0
   -0.8056    6.4876   -1.8773 H   0  0  0  0  0  0  0  0  0  0  0  0
   -0.1514    8.0281   -0.7319 C   0  0  0  0  0  0  0  0  0  0  0  0
    0.0239    4.5256   -0.0167 C   0  0  0  0  0  0  0  0  0  0  0  0
    0.9064    4.1745    0.2242 H   0  0  0  0  0  0  0  0  0  0  0  0
   -0.2378    4.1783   -0.8946 H   0  0  0  0  0  0  0  0  0  0  0  0
   -0.6333    4.2458    0.6546 H   0  0  0  0  0  0  0  0  0  0  0  0
   -0.4674    9.3043   -1.4371 C   0  0  0  0  0  0  0  0  0  0  0  0
   -1.1003    9.8255   -0.9009 H   0  0  0  0  0  0  0  0  0  0  0  0
   -0.8650    9.1042   -2.3100 H   0  0  0  0  0  0  0  0  0  0  0  0
    0.3564    9.8195   -1.5634 H   0  0  0  0  0  0  0  0  0  0  0  0
   -0.8512    8.8709    4.3163 C   0  0  0  0  0  0  0  0  0  0  0  0
   -1.0243   10.1968    4.1492 C   0  0  0  0  0  0  0  0  0  0  0  0
   -1.5332   10.7795    4.6998 H   0  0  0  0  0  0  0  0  0  0  0  0
   -0.3092   10.5417    3.0095 C   0  0  0  0  0  0  0  0  0  0  0  0
   -1.4270    7.9976    5.4008 C   0  0  0  0  0  0  0  0  0  0  0  0
   -2.1994    8.4447    5.8057 H   0  0  0  0  0  0  0  0  0  0  0  0
   -0.7457    7.8379    6.0878 H   0  0  0  0  0  0  0  0  0  0  0  0
   -1.7091    7.1419    5.0161 H   0  0  0  0  0  0  0  0  0  0  0  0
   -0.1671   11.8581    2.3361 C   0  0  0  0  0  0  0  0  0  0  0  0
    0.7790   12.0302    2.1508 H   0  0  0  0  0  0  0  0  0  0  0  0
   -0.5191   12.5630    2.9203 H   0  0  0  0  0  0  0  0  0  0  0  0
   -0.6698   11.8509    1.4952 H   0  0  0  0  0  0  0  0  0  0  0  0
    2.5429    7.2498    6.4753 C   0  0  0  0  0  0  0  0  0  0  0  0
    3.5263    7.1449    6.5304 H   0  0  0  0  0  0  0  0  0  0  0  0
    2.1138    6.3909    6.7163 H   0  0  0  0  0  0  0  0  0  0  0  0
    2.0743    8.3470    7.3592 C   0  0  0  0  0  0  0  0  0  0  0  0
    2.6693    8.4492    8.1433 H   0  0  0  0  0  0  0  0  0  0  0  0
    1.1514    8.1765    7.6758 H   0  0  0  0  0  0  0  0  0  0  0  0
    2.1231    9.5673    6.4853 C   0  0  0  0  0  0  0  0  0  0  0  0
    1.2602   10.0504    6.5197 H   0  0  0  0  0  0  0  0  0  0  0  0
    2.8397   10.1793    6.7899 H   0  0  0  0  0  0  0  0  0  0  0  0
    2.3896    9.1148    5.1485 C   0  0  0  0  0  0  0  0  0  0  0  0
    3.3267    9.3073    4.8953 H   0  0  0  0  0  0  0  0  0  0  0  0
    1.7868    9.5622    4.5030 H   0  0  0  0  0  0  0  0  0  0  0  0
    2.7120    0.1113    0.9976 C   0  0  0  0  0  0  0  0  0  0  0  0
    3.3307   -0.7838    0.1704 C   0  0  0  0  0  0  0  0  0  0  0  0
    3.0137   -1.0727   -0.6766 H   0  0  0  0  0  0  0  0  0  0  0  0
    4.4740   -1.1912    0.7703 C   0  0  0  0  0  0  0  0  0  0  0  0
    1.4537    0.9028    0.7152 C   0  0  0  0  0  0  0  0  0  0  0  0
    0.8007    0.7444    1.4278 H   0  0  0  0  0  0  0  0  0  0  0  0
    1.0753    0.6201   -0.1439 H   0  0  0  0  0  0  0  0  0  0  0  0
    1.6701    1.8586    0.6768 H   0  0  0  0  0  0  0  0  0  0  0  0
    5.5129   -2.0867    0.2222 C   0  0  0  0  0  0  0  0  0  0  0  0
    6.3566   -1.5952    0.1401 H   0  0  0  0  0  0  0  0  0  0  0  0
    5.2340   -2.4082   -0.6598 H   0  0  0  0  0  0  0  0  0  0  0  0
    5.6365   -2.8496    0.8249 H   0  0  0  0  0  0  0  0  0  0  0  0
    6.7178    2.5739    3.6462 C   0  0  0  0  0  0  0  0  0  0  0  0
    7.9497    1.9754    3.5910 C   0  0  0  0  0  0  0  0  0  0  0  0
    8.7983    2.3957    3.6651 H   0  0  0  0  0  0  0  0  0  0  0  0
    7.6945    0.6452    3.4022 C   0  0  0  0  0  0  0  0  0  0  0  0
    6.3963    4.0377    3.7782 C   0  0  0  0  0  0  0  0  0  0  0  0
    5.9050    4.3366    2.9844 H   0  0  0  0  0  0  0  0  0  0  0  0
    7.2287    4.5487    3.8585 H   0  0  0  0  0  0  0  0  0  0  0  0
    5.8462    4.1813    4.5761 H   0  0  0  0  0  0  0  0  0  0  0  0
    8.6766   -0.4632    3.2602 C   0  0  0  0  0  0  0  0  0  0  0  0
    8.5257   -1.1279    3.9638 H   0  0  0  0  0  0  0  0  0  0  0  0
    9.5864   -0.1060    3.3380 H   0  0  0  0  0  0  0  0  0  0  0  0
    8.5674   -0.8865    2.3823 H   0  0  0  0  0  0  0  0  0  0  0  0
    3.3946   -1.2942    5.9739 C   0  0  0  0  0  0  0  0  0  0  0  0
    4.1432   -2.4123    6.0408 C   0  0  0  0  0  0  0  0  0  0  0  0
    4.0404   -3.0755    6.7132 H   0  0  0  0  0  0  0  0  0  0  0  0
    5.0739   -2.4854    5.0298 C   0  0  0  0  0  0  0  0  0  0  0  0
    2.3075   -0.7544    6.8579 C   0  0  0  0  0  0  0  0  0  0  0  0
    2.5051    0.1789    7.0841 H   0  0  0  0  0  0  0  0  0  0  0  0
    2.2589   -1.2864    7.6785 H   0  0  0  0  0  0  0  0  0  0  0  0
    1.4500   -0.8010    6.3858 H   0  0  0  0  0  0  0  0  0  0  0  0
    6.1089   -3.3775    4.6906 C   0  0  0  0  0  0  0  0  0  0  0  0
    6.1307   -4.1130    5.3374 H   0  0  0  0  0  0  0  0  0  0  0  0
    6.9659   -2.9029    4.7055 H   0  0  0  0  0  0  0  0  0  0  0  0
    5.9493   -3.7361    3.7927 H   0  0  0  0  0  0  0  0  0  0  0  0
    5.6670    1.1076    6.6440 C   0  0  0  0  0  0  0  0  0  0  0  0
    6.2462    0.9235    5.8635 H   0  0  0  0  0  0  0  0  0  0  0  0
    5.3319    0.2427    6.9907 H   0  0  0  0  0  0  0  0  0  0  0  0
    6.4221    1.7645    7.6533 C   0  0  0  0  0  0  0  0  0  0  0  0
    7.1783    2.2638    7.2560 H   0  0  0  0  0  0  0  0  0  0  0  0
    6.7779    1.1106    8.3062 H   0  0  0  0  0  0  0  0  0  0  0  0
    5.4935    2.6647    8.2883 C   0  0  0  0  0  0  0  0  0  0  0  0
    5.9450    3.5112    8.5333 H   0  0  0  0  0  0  0  0  0  0  0  0
    5.1218    2.2559    9.1102 H   0  0  0  0  0  0  0  0  0  0  0  0
    4.4085    2.9233    7.3007 C   0  0  0  0  0  0  0  0  0  0  0  0
    3.5200    2.8337    7.7291 H   0  0  0  0  0  0  0  0  0  0  0  0
    4.4897    3.8347    6.9250 H   0  0  0  0  0  0  0  0  0  0  0  0
    2.9475    7.9280    2.3495 N   0  0  0  0  0  0  0  0  0  0  0  0
    2.5468    8.9518    1.5474 N   0  0  0  0  0  0  0  0  0  0  0  0
    0.6096    6.7155    0.9007 N   0  0  0  0  0  0  0  0  0  0  0  0
    0.4801    8.0154    0.4762 N   0  0  0  0  0  0  0  0  0  0  0  0
   -0.0657    8.3553    3.3571 N   0  0  0  0  0  0  0  0  0  0  0  0
    0.2508    9.4101    2.5550 N   0  0  0  0  0  0  0  0  0  0  0  0
    3.4360    0.2677    2.1222 N   0  0  0  0  0  0  0  0  0  0  0  0
    4.5192   -0.5621    1.9518 N   0  0  0  0  0  0  0  0  0  0  0  0
    5.7254    1.6972    3.5025 N   0  0  0  0  0  0  0  0  0  0  0  0
    6.3568    0.4747    3.3320 N   0  0  0  0  0  0  0  0  0  0  0  0
    3.8287   -0.5837    4.8978 N   0  0  0  0  0  0  0  0  0  0  0  0
    4.8223   -1.2811    4.3447 N   0  0  0  0  0  0  0  0  0  0  0  0
    2.1465    7.6712    5.1652 O   0  0  0  0  0  0  0  0  0  0  0  0
    4.5760    1.9123    6.2463 O   0  0  0  0  0  0  0  0  0  0  0  0
   -1.7785    3.7160    6.5638 C   0  0  0  0  0  0  0  0  0  0  0  0
   -2.5968    3.9659    6.0661 H   0  0  0  0  0  0  0  0  0  0  0  0
   -1.6053    2.7519    6.4217 H   0  0  0  0  0  0  0  0  0  0  0  0
   -1.9521    4.0002    8.0176 C   0  0  0  0  0  0  0  0  0  0  0  0
   -2.3565    5.2066    8.5774 C   0  0  0  0  0  0  0  0  0  0  0  0
   -2.5302    5.9549    8.0184 H   0  0  0  0  0  0  0  0  0  0  0  0
   -2.5064    5.3182    9.9543 C   0  0  0  0  0  0  0  0  0  0  0  0
   -2.7833    6.1432   10.3370 H   0  0  0  0  0  0  0  0  0  0  0  0
   -2.2523    4.2231   10.7731 C   0  0  0  0  0  0  0  0  0  0  0  0
   -2.3557    4.3003   11.7141 H   0  0  0  0  0  0  0  0  0  0  0  0
   -1.8480    3.0166   10.2134 C   0  0  0  0  0  0  0  0  0  0  0  0
   -1.6750    2.2691   10.7726 H   0  0  0  0  0  0  0  0  0  0  0  0
   -1.6981    2.9050    8.8364 C   0  0  0  0  0  0  0  0  0  0  0  0
   -1.4219    2.0808    8.4539 H   0  0  0  0  0  0  0  0  0  0  0  0
   -0.2945    4.7514    5.9606 P   0  0  0  0  0  0  0  0  0  0  0  0
    1.2990    3.2824    6.0207 P   0  0  0  0  0  0  0  0  0  0  0  0
  1  3  1  0  0  0  0
  2  3  1  0  0  0  0
  3  4  1  0  0  0  0
  4  1  1  0  0  0  0
  5  3  1  0  0  0  0
  6  1  1  0  0  0  0
  7  2  1  0  0  0  0
  8  9  1  0  0  0  0
 10 11  1  0  0  0  0
 12 13  1  0  0  0  0
 13 14  1  0  0  0  0
 15 13  2  0  0  0  0
 16 12  1  0  0  0  0
 17 16  1  0  0  0  0
 18 16  1  0  0  0  0
 19 16  1  0  0  0  0
 20 15  1  0  0  0  0
 21 20  1  0  0  0  0
 22 20  1  0  0  0  0
 23 20  1  0  0  0  0
 24 25  1  0  0  0  0
 25 26  1  0  0  0  0
 27 25  2  0  0  0  0
 28 24  1  0  0  0  0
 29 28  1  0  0  0  0
 30 28  1  0  0  0  0
 31 28  1  0  0  0  0
 32 27  1  0  0  0  0
 33 32  1  0  0  0  0
 34 32  1  0  0  0  0
 35 32  1  0  0  0  0
 36 37  1  0  0  0  0
 37 38  1  0  0  0  0
 39 37  2  0  0  0  0
 40 36  1  0  0  0  0
 41 40  1  0  0  0  0
 42 40  1  0  0  0  0
 43 40  1  0  0  0  0
 44 39  1  0  0  0  0
 45 44  1  0  0  0  0
 46 44  1  0  0  0  0
 47 44  1  0  0  0  0
 48 49  1  0  0  0  0
 50 48  1  0  0  0  0
 51 48  1  0  0  0  0
 52 51  1  0  0  0  0
 53 51  1  0  0  0  0
 54 51  1  0  0  0  0
 55 54  1  0  0  0  0
 56 54  1  0  0  0  0
 57 54  1  0  0  0  0
 58 57  1  0  0  0  0
 59 57  1  0  0  0  0
 60 61  1  0  0  0  0
 61 62  1  0  0  0  0
 63 61  2  0  0  0  0
 64 60  1  0  0  0  0
 65 64  1  0  0  0  0
 66 64  1  0  0  0  0
 67 64  1  0  0  0  0
 68 63  1  0  0  0  0
 69 68  1  0  0  0  0
 70 68  1  0  0  0  0
 71 68  1  0  0  0  0
 72 73  1  0  0  0  0
 73 74  1  0  0  0  0
 75 73  2  0  0  0  0
 76 72  1  0  0  0  0
 77 76  1  0  0  0  0
 78 76  1  0  0  0  0
 79 76  1  0  0  0  0
 80 75  1  0  0  0  0
 81 80  1  0  0  0  0
 82 80  1  0  0  0  0
 83 80  1  0  0  0  0
 84 85  1  0  0  0  0
 85 86  1  0  0  0  0
 87 85  2  0  0  0  0
 88 84  1  0  0  0  0
 89 88  1  0  0  0  0
 90 88  1  0  0  0  0
 91 88  1  0  0  0  0
 92 87  1  0  0  0  0
 93 92  1  0  0  0  0
 94 92  1  0  0  0  0
 95 92  1  0  0  0  0
 96 97  1  0  0  0  0
 98 96  1  0  0  0  0
 99 96  1  0  0  0  0
100 99  1  0  0  0  0
101 99  1  0  0  0  0
102 99  1  0  0  0  0
103102  1  0  0  0  0
104102  1  0  0  0  0
105102  1  0  0  0  0
106105  1  0  0  0  0
107105  1  0  0  0  0
108  1  1  0  0  0  0
109  8  1  0  0  0  0
110  1  1  0  0  0  0
111  8  1  0  0  0  0
112  1  1  0  0  0  0
113  8  1  0  0  0  0
114  2  1  0  0  0  0
115 10  1  0  0  0  0
116  2  1  0  0  0  0
117 10  1  0  0  0  0
118  2  1  0  0  0  0
119 10  1  0  0  0  0
120  1  1  0  0  0  0
121  2  1  0  0  0  0
122123  1  0  0  0  0
124122  1  0  0  0  0
125122  1  0  0  0  0
126125  4  0  0  0  0
127126  1  0  0  0  0
128126  4  0  0  0  0
129128  1  0  0  0  0
130128  4  0  0  0  0
131130  1  0  0  0  0
132130  4  0  0  0  0
133132  1  0  0  0  0
134125  4  0  0  0  0
135134  1  0  0  0  0
136  6  1  0  0  0  0
137  4  1  0  0  0  0
  2  4  1  0  0  0  0
  5  6  1  0  0  0  0
  5  7  1  0  0  0  0
  7137  1  0  0  0  0
 12108  2  0  0  0  0
 15109  1  0  0  0  0
 24110  2  0  0  0  0
 27111  1  0  0  0  0
 36112  2  0  0  0  0
 39113  1  0  0  0  0
 48120  1  0  0  0  0
 57120  1  0  0  0  0
 60114  2  0  0  0  0
 63115  1  0  0  0  0
 72116  2  0  0  0  0
 75117  1  0  0  0  0
 84118  2  0  0  0  0
 87119  1  0  0  0  0
 96121  1  0  0  0  0
105121  1  0  0  0  0
108109  1  0  0  0  0
110111  1  0  0  0  0
112113  1  0  0  0  0
114115  1  0  0  0  0
116117  1  0  0  0  0
118119  1  0  0  0  0
122136  1  0  0  0  0
132134  4  0  0  0  0
136137  1  0  0  0  0
M  END
$$$$
HOBVED

From CSD data. Using bond type 'Any'. Matching problem. No disordered atoms. Largest molecule.
137155  0  0  0  0  0  0  0  0999 V2000
    1.3648    6.4701    3.2585 Y   0  0  0  0  0  0  0  0  0  0  0  0
    3.4276    1.6625    4.1295 Y   0  0  0  0  0  0  0  0  0  0  0  0
    2.2254    3.8216    2.6762 P   0  0  0  0  0  0  0  0  0  0  0  0
    2.7869    4.4225    4.7185 P   0  0  0  0  0  0  0  0  0  0  0  0
    0.1725    3.0463    3.0234 P   0  0  0  0  0  0  0  0  0  0  0  0
   -0.7813    4.7318    4.0179 P   0  0  0  0  0  0  0  0  0  0  0  0
    0.5471    1.5674    4.5889 P   0  0  0  0  0  0  0  0  0  0  0  0
    1.0983    9.2614    1.2037 B   0  0  0  0  0  0  0  0  0  0  0  0
    1.0234   10.0749    0.6254 H   0  0  0  0  0  0  0  0  0  0  0  0
    5.5909   -0.8378    3.0151 B   0  0  0  0  0  0  0  0  0  0  0  0
    6.2226   -1.5448    2.6978 H   0  0  0  0  0  0  0  0  0  0  0  0
    4.3173    8.1120    2.4672 C   0  0  0  0  0  0  0  0  0  0  0  0
    4.7799    9.1483    1.7167 C   0  0  0  0  0  0  0  0  0  0  0  0
    5.6841    9.4273    1.6274 H   0  0  0  0  0  0  0  0  0  0  0  0
    3.6958    9.7007    1.1207 C   0  0  0  0  0  0  0  0  0  0  0  0
    5.0784    7.1766    3.3488 C   0  0  0  0  0  0  0  0  0  0  0  0
    4.8561    7.3585    4.2856 H   0  0  0  0  0  0  0  0  0  0  0  0
    6.0398    7.3069    3.2099 H   0  0  0  0  0  0  0  0  0  0  0  0
    4.8384    6.2528    3.1288 H   0  0  0  0  0  0  0  0  0  0  0  0
    3.6460   10.8495    0.1760 C   0  0  0  0  0  0  0  0  0  0  0  0
    3.0161   10.6499   -0.5473 H   0  0  0  0  0  0  0  0  0  0  0  0
    4.5378   11.0023   -0.1990 H   0  0  0  0  0  0  0  0  0  0  0  0
    3.3503   11.6523    0.6545 H   0  0  0  0  0  0  0  0  0  0  0  0
    0.1068    6.0403   -0.0996 C   0  0  0  0  0  0  0  0  0  0  0  0
   -0.3641    6.8555   -1.1058 C   0  0  0  0  0  0  0  0  0  0  0  0
   -0.7907    6.5687   -1.9042 H   0  0  0  0  0  0  0  0  0  0  0  0
   -0.1205    8.1110   -0.7604 C   0  0  0  0  0  0  0  0  0  0  0  0
    0.0618    4.5752   -0.0498 C   0  0  0  0  0  0  0  0  0  0  0  0
    0.9714    4.2233    0.0487 H   0  0  0  0  0  0  0  0  0  0  0  0
   -0.3328    4.2320   -0.8787 H   0  0  0  0  0  0  0  0  0  0  0  0
   -0.4828    4.2904    0.7135 H   0  0  0  0  0  0  0  0  0  0  0  0
   -0.4348    9.3685   -1.4727 C   0  0  0  0  0  0  0  0  0  0  0  0
   -0.9931    9.9370   -0.9019 H   0  0  0  0  0  0  0  0  0  0  0  0
   -0.9184    9.1637   -2.3010 H   0  0  0  0  0  0  0  0  0  0  0  0
    0.3968    9.8398   -1.6892 H   0  0  0  0  0  0  0  0  0  0  0  0
   -0.8385    9.0097    4.2869 C   0  0  0  0  0  0  0  0  0  0  0  0
   -0.9642   10.3561    4.1042 C   0  0  0  0  0  0  0  0  0  0  0  0
   -1.4554   10.9623    4.6464 H   0  0  0  0  0  0  0  0  0  0  0  0
   -0.2326   10.6622    2.9703 C   0  0  0  0  0  0  0  0  0  0  0  0
   -1.4444    8.1542    5.3578 C   0  0  0  0  0  0  0  0  0  0  0  0
   -1.8739    7.3736    4.9490 H   0  0  0  0  0  0  0  0  0  0  0  0
   -2.1139    8.6735    5.8511 H   0  0  0  0  0  0  0  0  0  0  0  0
   -0.7436    7.8560    5.9741 H   0  0  0  0  0  0  0  0  0  0  0  0
   -0.0461   11.9786    2.2978 C   0  0  0  0  0  0  0  0  0  0  0  0
    0.9085   12.1271    2.1323 H   0  0  0  0  0  0  0  0  0  0  0  0
   -0.3925   12.6907    2.8746 H   0  0  0  0  0  0  0  0  0  0  0  0
   -0.5302   11.9813    1.4467 H   0  0  0  0  0  0  0  0  0  0  0  0
    2.5538    7.3876    6.5050 C   0  0  0  0  0  0  0  0  0  0  0  0
    3.5397    7.3481    6.5908 H   0  0  0  0  0  0  0  0  0  0  0  0
    2.1717    6.5071    6.7474 H   0  0  0  0  0  0  0  0  0  0  0  0
    1.9741    8.4896    7.3601 C   0  0  0  0  0  0  0  0  0  0  0  0
    1.0422    8.2809    7.6187 H   0  0  0  0  0  0  0  0  0  0  0  0
    2.5138    8.6203    8.1794 H   0  0  0  0  0  0  0  0  0  0  0  0
    2.0269    9.7052    6.4867 C   0  0  0  0  0  0  0  0  0  0  0  0
    1.1399   10.1439    6.4431 H   0  0  0  0  0  0  0  0  0  0  0  0
    2.6883   10.3564    6.8313 H   0  0  0  0  0  0  0  0  0  0  0  0
    2.4291    9.2011    5.1552 C   0  0  0  0  0  0  0  0  0  0  0  0
    1.9043    9.6429    4.4422 H   0  0  0  0  0  0  0  0  0  0  0  0
    3.3912    9.3717    4.9950 H   0  0  0  0  0  0  0  0  0  0  0  0
    2.7367    0.0892    0.9812 C   0  0  0  0  0  0  0  0  0  0  0  0
    3.3279   -0.7999    0.1345 C   0  0  0  0  0  0  0  0  0  0  0  0
    2.9982   -1.0851   -0.7103 H   0  0  0  0  0  0  0  0  0  0  0  0
    4.4668   -1.1956    0.7239 C   0  0  0  0  0  0  0  0  0  0  0  0
    1.4716    0.8742    0.7289 C   0  0  0  0  0  0  0  0  0  0  0  0
    0.8512    0.7427    1.4769 H   0  0  0  0  0  0  0  0  0  0  0  0
    1.0533    0.5642   -0.1006 H   0  0  0  0  0  0  0  0  0  0  0  0
    1.6887    1.8269    0.6497 H   0  0  0  0  0  0  0  0  0  0  0  0
    5.5036   -2.0805    0.1876 C   0  0  0  0  0  0  0  0  0  0  0  0
    6.3324   -1.5744    0.0605 H   0  0  0  0  0  0  0  0  0  0  0  0
    5.2081   -2.4461   -0.6725 H   0  0  0  0  0  0  0  0  0  0  0  0
    5.6626   -2.8156    0.8167 H   0  0  0  0  0  0  0  0  0  0  0  0
    6.7562    2.5626    3.6327 C   0  0  0  0  0  0  0  0  0  0  0  0
    7.9832    1.9414    3.5978 C   0  0  0  0  0  0  0  0  0  0  0  0
    8.8328    2.3539    3.6985 H   0  0  0  0  0  0  0  0  0  0  0  0
    7.7377    0.6042    3.3903 C   0  0  0  0  0  0  0  0  0  0  0  0
    6.4459    4.0183    3.7971 C   0  0  0  0  0  0  0  0  0  0  0  0
    5.8993    4.3223    3.0430 H   0  0  0  0  0  0  0  0  0  0  0  0
    7.2815    4.5289    3.8227 H   0  0  0  0  0  0  0  0  0  0  0  0
    5.9536    4.1544    4.6336 H   0  0  0  0  0  0  0  0  0  0  0  0
    8.7065   -0.5116    3.2492 C   0  0  0  0  0  0  0  0  0  0  0  0
    8.5285   -1.1874    3.9364 H   0  0  0  0  0  0  0  0  0  0  0  0
    9.6183   -0.1690    3.3565 H   0  0  0  0  0  0  0  0  0  0  0  0
    8.6121   -0.9162    2.3614 H   0  0  0  0  0  0  0  0  0  0  0  0
    3.4751   -1.3620    5.9455 C   0  0  0  0  0  0  0  0  0  0  0  0
    4.2473   -2.5017    6.0069 C   0  0  0  0  0  0  0  0  0  0  0  0
    4.1673   -3.1812    6.6646 H   0  0  0  0  0  0  0  0  0  0  0  0
    5.1361   -2.5048    4.9908 C   0  0  0  0  0  0  0  0  0  0  0  0
    2.3885   -0.8637    6.8188 C   0  0  0  0  0  0  0  0  0  0  0  0
    2.4446    0.1128    6.8867 H   0  0  0  0  0  0  0  0  0  0  0  0
    2.4790   -1.2581    7.7116 H   0  0  0  0  0  0  0  0  0  0  0  0
    1.5208   -1.1145    6.4380 H   0  0  0  0  0  0  0  0  0  0  0  0
    6.2033   -3.4574    4.6156 C   0  0  0  0  0  0  0  0  0  0  0  0
    7.0565   -2.9798    4.5423 H   0  0  0  0  0  0  0  0  0  0  0  0
    5.9853   -3.8690    3.7531 H   0  0  0  0  0  0  0  0  0  0  0  0
    6.2766   -4.1535    5.3007 H   0  0  0  0  0  0  0  0  0  0  0  0
    5.7179    1.0820    6.6445 C   0  0  0  0  0  0  0  0  0  0  0  0
    6.2633    0.8478    5.8525 H   0  0  0  0  0  0  0  0  0  0  0  0
    5.3857    0.2439    7.0552 H   0  0  0  0  0  0  0  0  0  0  0  0
    6.5254    1.8331    7.6124 C   0  0  0  0  0  0  0  0  0  0  0  0
    6.9746    1.2241    8.2500 H   0  0  0  0  0  0  0  0  0  0  0  0
    7.2102    2.3819    7.1531 H   0  0  0  0  0  0  0  0  0  0  0  0
    5.5430    2.6806    8.2948 C   0  0  0  0  0  0  0  0  0  0  0  0
    5.9514    3.5382    8.5720 H   0  0  0  0  0  0  0  0  0  0  0  0
    5.1831    2.2238    9.0963 H   0  0  0  0  0  0  0  0  0  0  0  0
    4.4709    2.9071    7.2953 C   0  0  0  0  0  0  0  0  0  0  0  0
    3.5813    2.8257    7.7207 H   0  0  0  0  0  0  0  0  0  0  0  0
    4.5516    3.8148    6.9063 H   0  0  0  0  0  0  0  0  0  0  0  0
    2.9811    8.0115    2.3526 N   0  0  0  0  0  0  0  0  0  0  0  0
    2.6006    9.0218    1.5225 N   0  0  0  0  0  0  0  0  0  0  0  0
    0.6468    6.8120    0.8816 N   0  0  0  0  0  0  0  0  0  0  0  0
    0.5188    8.0925    0.4549 N   0  0  0  0  0  0  0  0  0  0  0  0
   -0.0630    8.4603    3.3272 N   0  0  0  0  0  0  0  0  0  0  0  0
    0.3016    9.5147    2.5070 N   0  0  0  0  0  0  0  0  0  0  0  0
    3.4706    0.2430    2.1052 N   0  0  0  0  0  0  0  0  0  0  0  0
    4.5548   -0.5871    1.9293 N   0  0  0  0  0  0  0  0  0  0  0  0
    5.7705    1.6577    3.4733 N   0  0  0  0  0  0  0  0  0  0  0  0
    6.3943    0.4456    3.3106 N   0  0  0  0  0  0  0  0  0  0  0  0
    3.8761   -0.6326    4.8945 N   0  0  0  0  0  0  0  0  0  0  0  0
    4.8887   -1.3387    4.3068 N   0  0  0  0  0  0  0  0  0  0  0  0
    2.1609    7.7794    5.1801 O   0  0  0  0  0  0  0  0  0  0  0  0
    4.6260    1.9050    6.2626 O   0  0  0  0  0  0  0  0  0  0  0  0
   -1.7006    3.9665    6.6329 C   0  0  0  0  0  0  0  0  0  0  0  0
   -2.5089    4.2289    6.1330 H   0  0  0  0  0  0  0  0  0  0  0  0
   -1.5715    2.9910    6.5128 H   0  0  0  0  0  0  0  0  0  0  0  0
   -1.9014    4.2364    8.0242 C   0  0  0  0  0  0  0  0  0  0  0  0
   -1.6629    3.1236    8.8211 C   0  0  0  0  0  0  0  0  0  0  0  0
   -1.4081    2.2999    8.4238 H   0  0  0  0  0  0  0  0  0  0  0  0
   -1.7984    3.2167   10.2025 C   0  0  0  0  0  0  0  0  0  0  0  0
   -1.6349    2.4564   10.7475 H   0  0  0  0  0  0  0  0  0  0  0  0
   -2.1706    4.4232   10.7836 C   0  0  0  0  0  0  0  0  0  0  0  0
   -2.2632    4.4863   11.7276 H   0  0  0  0  0  0  0  0  0  0  0  0
   -2.4103    5.5360    9.9866 C   0  0  0  0  0  0  0  0  0  0  0  0
   -2.6647    6.3595   10.3840 H   0  0  0  0  0  0  0  0  0  0  0  0
   -2.2747    5.4429    8.6053 C   0  0  0  0  0  0  0  0  0  0  0  0
   -2.4379    6.2030    8.0603 H   0  0  0  0  0  0  0  0  0  0  0  0
    1.2991    3.3262    6.0235 P   0  0  0  0  0  0  0  0  0  0  0  0
   -0.2289    4.8536    5.9040 P   0  0  0  0  0  0  0  0  0  0  0  0
  1  3  1  0  0  0  0
  2  3  1  0  0  0  0
  3  4  1  0  0  0  0
  4  1  1  0  0  0  0
  5  3  1  0  0  0  0
  6  1  1  0  0  0  0
  7  2  1  0  0  0  0
  8  9  1  0  0  0  0
 10 11  1  0  0  0  0
 12 13  1  0  0  0  0
 13 14  1  0  0  0  0
 15 13  2  0  0  0  0
 16 12  1  0  0  0  0
 17 16  1  0  0  0  0
 18 16  1  0  0  0  0
 19 16  1  0  0  0  0
 20 15  1  0  0  0  0
 21 20  1  0  0  0  0
 22 20  1  0  0  0  0
 23 20  1  0  0  0  0
 24 25  1  0  0  0  0
 25 26  1  0  0  0  0
 27 25  2  0  0  0  0
 28 24  1  0  0  0  0
 29 28  1  0  0  0  0
 30 28  1  0  0  0  0
 31 28  1  0  0  0  0
 32 27  1  0  0  0  0
 33 32  1  0  0  0  0
 34 32  1  0  0  0  0
 35 32  1  0  0  0  0
 36 37  1  0  0  0  0
 37 38  1  0  0  0  0
 39 37  2  0  0  0  0
 40 36  1  0  0  0  0
 41 40  1  0  0  0  0
 42 40  1  0  0  0  0
 43 40  1  0  0  0  0
 44 39  1  0  0  0  0
 45 44  1  0  0  0  0
 46 44  1  0  0  0  0
 47 44  1  0  0  0  0
 48 49  1  0  0  0  0
 50 48  1  0  0  0  0
 51 48  1  0  0  0  0
 52 51  1  0  0  0  0
 53 51  1  0  0  0  0
 54 51  1  0  0  0  0
 55 54  1  0  0  0  0
 56 54  1  0  0  0  0
 57 54  1  0  0  0  0
 58 57  1  0  0  0  0
 59 57  1  0  0  0  0
 60 61  1  0  0  0  0
 61 62  1  0  0  0  0
 63 61  2  0  0  0  0
 64 60  1  0  0  0  0
 65 64  1  0  0  0  0
 66 64  1  0  0  0  0
 67 64  1  0  0  0  0
 68 63  1  0  0  0  0
 69 68  1  0  0  0  0
 70 68  1  0  0  0  0
 71 68  1  0  0  0  0
 72 73  1  0  0  0  0
 73 74  1  0  0  0  0
 75 73  2  0  0  0  0
 76 72  1  0  0  0  0
 77 76  1  0  0  0  0
 78 76  1  0  0  0  0
 79 76  1  0  0  0  0
 80 75  1  0  0  0  0
 81 80  1  0  0  0  0
 82 80  1  0  0  0  0
 83 80  1  0  0  0  0
 84 85  1  0  0  0  0
 85 86  1  0  0  0  0
 87 85  2  0  0  0  0
 88 84  1  0  0  0  0
 89 88  1  0  0  0  0
 90 88  1  0  0  0  0
 91 88  1  0  0  0  0
 92 87  1  0  0  0  0
 93 92  1  0  0  0  0
 94 92  1  0  0  0  0
 95 92  1  0  0  0  0
 96 97  1  0  0  0  0
 98 96  1  0  0  0  0
 99 96  1  0  0  0  0
100 99  1  0  0  0  0
101 99  1  0  0  0  0
102 99  1  0  0  0  0
103102  1  0  0  0  0
104102  1  0  0  0  0
105102  1  0  0  0  0
106105  1  0  0  0  0
107105  1  0  0  0  0
108  1  1  0  0  0  0
109  8  1  0  0  0  0
110  1  1  0  0  0  0
111  8  1  0  0  0  0
112  1  1  0  0  0  0
113  8  1  0  0  0  0
114  2  1  0  0  0  0
115 10  1  0  0  0  0
116  2  1  0  0  0  0
117 10  1  0  0  0  0
118  2  1  0  0  0  0
119 10  1  0  0  0  0
120  1  1  0  0  0  0
121  2  1  0  0  0  0
122123  1  0  0  0  0
124122  1  0  0  0  0
125122  1  0  0  0  0
126125  4  0  0  0  0
127126  1  0  0  0  0
128126  4  0  0  0  0
129128  1  0  0  0  0
130128  4  0  0  0  0
131130  1  0  0  0  0
132130  4  0  0  0  0
133132  1  0  0  0  0
134125  4  0  0  0  0
135134  1  0  0  0  0
136  4  1  0  0  0  0
137  6  1  0  0  0  0
  2  4  1  0  0  0  0
  5  6  1  0  0  0  0
  5  7  1  0  0  0  0
  7136  1  0  0  0  0
 12108  2  0  0  0  0
 15109  1  0  0  0  0
 24110  2  0  0  0  0
 27111  1  0  0  0  0
 36112  2  0  0  0  0
 39113  1  0  0  0  0
 48120  1  0  0  0  0
 57120  1  0  0  0  0
 60114  2  0  0  0  0
 63115  1  0  0  0  0
 72116  2  0  0  0  0
 75117  1  0  0  0  0
 84118  2  0  0  0  0
 87119  1  0  0  0  0
 96121  1  0  0  0  0
105121  1  0  0  0  0
108109  1  0  0  0  0
110111  1  0  0  0  0
112113  1  0  0  0  0
114115  1  0  0  0  0
116117  1  0  0  0  0
118119  1  0  0  0  0
122137  1  0  0  0  0
132134  4  0  0  0  0
136137  1  0  0  0  0
M  END
$$$$
HOCVED

From CSD data. Using bond type 'Any'. No disordered atoms. Largest molecule.
164168  0  0  0  0  0  0  0  0999 V2000
    9.1337    9.7812   12.5312 B   0  0  0  0  0  0  0  0  0  0  0  0
   10.2708   10.6461   11.8939 B   0  0  0  0  0  0  0  0  0  0  0  0
    8.6840    8.3442   12.1469 B   0  0  0  0  0  0  0  0  0  0  0  0
    6.4872    5.4665   13.2087 B   0  0  0  0  0  0  0  0  0  0  0  0
   11.4585   14.1921   12.1467 B   0  0  0  0  0  0  0  0  0  0  0  0
   11.0189   11.8881   11.7636 C   0  0  0  0  0  0  0  0  0  0  0  0
    8.0311    7.0630   12.3607 C   0  0  0  0  0  0  0  0  0  0  0  0
    6.7505    9.2398   16.1097 C   0  0  0  0  0  0  0  0  0  0  0  0
    7.2430    9.5057   16.8772 H   0  0  0  0  0  0  0  0  0  0  0  0
    5.5347    9.8464   15.8382 C   0  0  0  0  0  0  0  0  0  0  0  0
    5.2007   10.5236   16.4146 H   0  0  0  0  0  0  0  0  0  0  0  0
    4.8136    9.4648   14.7324 C   0  0  0  0  0  0  0  0  0  0  0  0
    3.9818    9.8863   14.5508 H   0  0  0  0  0  0  0  0  0  0  0  0
    5.2786    8.4706   13.8715 C   0  0  0  0  0  0  0  0  0  0  0  0
    4.4690    8.1148   12.6374 C   0  0  0  0  0  0  0  0  0  0  0  0
    4.7857    7.2265   12.3048 H   0  0  0  0  0  0  0  0  0  0  0  0
    2.9490    8.0135   12.8991 C   0  0  0  0  0  0  0  0  0  0  0  0
    2.7865    7.4040   13.6491 H   0  0  0  0  0  0  0  0  0  0  0  0
    2.5015    7.6714   12.0972 H   0  0  0  0  0  0  0  0  0  0  0  0
    2.5952    8.9011   13.1170 H   0  0  0  0  0  0  0  0  0  0  0  0
    4.7231    9.1389   11.5533 C   0  0  0  0  0  0  0  0  0  0  0  0
    4.3776   10.0102   11.8396 H   0  0  0  0  0  0  0  0  0  0  0  0
    4.2698    8.8622   10.7298 H   0  0  0  0  0  0  0  0  0  0  0  0
    5.6867    9.2078   11.3886 H   0  0  0  0  0  0  0  0  0  0  0  0
    8.5881    7.5879   15.6314 C   0  0  0  0  0  0  0  0  0  0  0  0
    8.8813    7.0452   14.8442 H   0  0  0  0  0  0  0  0  0  0  0  0
    9.6788    8.6204   15.9240 C   0  0  0  0  0  0  0  0  0  0  0  0
    9.7454    9.2468   15.1733 H   0  0  0  0  0  0  0  0  0  0  0  0
   10.5370    8.1634   16.0455 H   0  0  0  0  0  0  0  0  0  0  0  0
    9.4520    9.1123   16.7408 H   0  0  0  0  0  0  0  0  0  0  0  0
    8.4201    6.6395   16.8212 C   0  0  0  0  0  0  0  0  0  0  0  0
    8.1196    7.1471   17.6037 H   0  0  0  0  0  0  0  0  0  0  0  0
    9.2782    6.2099   17.0202 H   0  0  0  0  0  0  0  0  0  0  0  0
    7.7550    5.9541   16.6012 H   0  0  0  0  0  0  0  0  0  0  0  0
    8.3820    5.7236   11.7325 C   0  0  0  0  0  0  0  0  0  0  0  0
    9.2525    5.4061   12.0811 H   0  0  0  0  0  0  0  0  0  0  0  0
    8.4581    5.8223   10.7503 H   0  0  0  0  0  0  0  0  0  0  0  0
    7.2570    4.6835   12.0788 C   0  0  0  0  0  0  0  0  0  0  0  0
    8.6700    3.6055   14.5499 C   0  0  0  0  0  0  0  0  0  0  0  0
    7.9083    3.7634   15.1460 H   0  0  0  0  0  0  0  0  0  0  0  0
    9.2152    4.4179   14.4944 H   0  0  0  0  0  0  0  0  0  0  0  0
    9.2138    2.8705   14.9026 H   0  0  0  0  0  0  0  0  0  0  0  0
    9.4973    2.5586   11.8097 C   0  0  0  0  0  0  0  0  0  0  0  0
   10.0088    1.8970   12.3206 H   0  0  0  0  0  0  0  0  0  0  0  0
   10.0749    3.3192   11.5898 H   0  0  0  0  0  0  0  0  0  0  0  0
    9.1676    2.1490   10.9827 H   0  0  0  0  0  0  0  0  0  0  0  0
    6.8286    1.7431   13.0558 C   0  0  0  0  0  0  0  0  0  0  0  0
    6.5780    1.3886   12.1772 H   0  0  0  0  0  0  0  0  0  0  0  0
    6.0278    2.0694   13.5170 H   0  0  0  0  0  0  0  0  0  0  0  0
    7.2455    1.0334   13.5877 H   0  0  0  0  0  0  0  0  0  0  0  0
    7.0405    3.2461    9.3385 C   0  0  0  0  0  0  0  0  0  0  0  0
    7.0942    2.3329    9.6900 H   0  0  0  0  0  0  0  0  0  0  0  0
    7.9448    3.5882    9.1784 H   0  0  0  0  0  0  0  0  0  0  0  0
    6.5386    3.2431    8.4967 H   0  0  0  0  0  0  0  0  0  0  0  0
    4.5387    3.5437   11.0349 C   0  0  0  0  0  0  0  0  0  0  0  0
    3.9824    3.4576   10.2327 H   0  0  0  0  0  0  0  0  0  0  0  0
    4.0751    4.0996   11.6957 H   0  0  0  0  0  0  0  0  0  0  0  0
    4.7047    2.6555   11.4142 H   0  0  0  0  0  0  0  0  0  0  0  0
    5.7557    5.9622    9.7319 C   0  0  0  0  0  0  0  0  0  0  0  0
    5.7879    5.8391    8.7601 H   0  0  0  0  0  0  0  0  0  0  0  0
    6.4069    6.6453    9.9962 H   0  0  0  0  0  0  0  0  0  0  0  0
    4.8564    6.2490    9.9952 H   0  0  0  0  0  0  0  0  0  0  0  0
    4.8646    5.4051   15.0942 C   0  0  0  0  0  0  0  0  0  0  0  0
    5.5401    5.7384   15.7211 H   0  0  0  0  0  0  0  0  0  0  0  0
    4.3269    4.7121   15.5312 H   0  0  0  0  0  0  0  0  0  0  0  0
    4.2831    6.1437   14.8174 H   0  0  0  0  0  0  0  0  0  0  0  0
   12.0973   12.3161   10.7760 C   0  0  0  0  0  0  0  0  0  0  0  0
   11.8797   11.9817    9.8700 H   0  0  0  0  0  0  0  0  0  0  0  0
   12.9728   11.9407   11.0457 H   0  0  0  0  0  0  0  0  0  0  0  0
   12.1630   13.8782   10.7693 C   0  0  0  0  0  0  0  0  0  0  0  0
   10.9223   15.8964   13.8960 C   0  0  0  0  0  0  0  0  0  0  0  0
   10.4332   15.1577   14.3148 H   0  0  0  0  0  0  0  0  0  0  0  0
   10.3028   16.6313   13.7045 H   0  0  0  0  0  0  0  0  0  0  0  0
   11.6234   16.2106   14.5046 H   0  0  0  0  0  0  0  0  0  0  0  0
   14.6445   14.1936   12.4790 C   0  0  0  0  0  0  0  0  0  0  0  0
   14.6461   13.2310   12.6622 H   0  0  0  0  0  0  0  0  0  0  0  0
   14.1020   14.6536   13.1533 H   0  0  0  0  0  0  0  0  0  0  0  0
   15.5629   14.5339   12.5112 H   0  0  0  0  0  0  0  0  0  0  0  0
   14.0792   16.3558   10.4372 C   0  0  0  0  0  0  0  0  0  0  0  0
   15.0066   16.6407   10.5797 H   0  0  0  0  0  0  0  0  0  0  0  0
   13.4889   16.8531   11.0407 H   0  0  0  0  0  0  0  0  0  0  0  0
   13.8226   16.5336    9.5085 H   0  0  0  0  0  0  0  0  0  0  0  0
   14.9804   13.6253    9.5289 C   0  0  0  0  0  0  0  0  0  0  0  0
   15.9218   13.8607    9.6692 H   0  0  0  0  0  0  0  0  0  0  0  0
   14.7062   13.8969    8.6289 H   0  0  0  0  0  0  0  0  0  0  0  0
   14.8685   12.6566    9.6271 H   0  0  0  0  0  0  0  0  0  0  0  0
   12.0414   14.5207    7.7045 C   0  0  0  0  0  0  0  0  0  0  0  0
   11.4548   14.8474    6.9901 H   0  0  0  0  0  0  0  0  0  0  0  0
   12.3113   13.5990    7.5088 H   0  0  0  0  0  0  0  0  0  0  0  0
   12.8364   15.0896    7.7605 H   0  0  0  0  0  0  0  0  0  0  0  0
    9.5645   13.5614    9.1258 C   0  0  0  0  0  0  0  0  0  0  0  0
    8.8778   13.8863    9.7449 H   0  0  0  0  0  0  0  0  0  0  0  0
    9.7565   12.6194    9.3159 H   0  0  0  0  0  0  0  0  0  0  0  0
    9.2421   13.6497    8.2046 H   0  0  0  0  0  0  0  0  0  0  0  0
   10.5665   16.3250    9.6617 C   0  0  0  0  0  0  0  0  0  0  0  0
   10.0428   16.6477    8.8987 H   0  0  0  0  0  0  0  0  0  0  0  0
   11.3520   16.8981    9.7844 H   0  0  0  0  0  0  0  0  0  0  0  0
   10.0143   16.3500   10.4709 H   0  0  0  0  0  0  0  0  0  0  0  0
   13.9278   14.5024   10.7907 Si  0  0  0  0  0  0  0  0  0  0  0  0
   11.1206   14.5685    9.3392 Si  0  0  0  0  0  0  0  0  0  0  0  0
   10.1273   12.8082   13.8754 C   0  0  0  0  0  0  0  0  0  0  0  0
   10.8481   12.4716   15.0279 C   0  0  0  0  0  0  0  0  0  0  0  0
   10.1346   12.3276   16.2250 C   0  0  0  0  0  0  0  0  0  0  0  0
   10.6012   12.1265   17.0278 H   0  0  0  0  0  0  0  0  0  0  0  0
    8.7619   12.4740   16.2527 C   0  0  0  0  0  0  0  0  0  0  0  0
    8.2936   12.3730   17.0730 H   0  0  0  0  0  0  0  0  0  0  0  0
    8.0670   12.7652   15.1007 C   0  0  0  0  0  0  0  0  0  0  0  0
    7.1217   12.8537   15.1355 H   0  0  0  0  0  0  0  0  0  0  0  0
    8.7265   12.9323   13.8838 C   0  0  0  0  0  0  0  0  0  0  0  0
    7.9556   13.2448   12.6146 C   0  0  0  0  0  0  0  0  0  0  0  0
    8.5417   12.9965   11.8432 H   0  0  0  0  0  0  0  0  0  0  0  0
    6.6680   12.4310   12.4857 C   0  0  0  0  0  0  0  0  0  0  0  0
    6.8643   11.4827   12.6368 H   0  0  0  0  0  0  0  0  0  0  0  0
    6.2959   12.5483   11.5868 H   0  0  0  0  0  0  0  0  0  0  0  0
    6.0183   12.7399   13.1512 H   0  0  0  0  0  0  0  0  0  0  0  0
    7.6522   14.7341   12.4905 C   0  0  0  0  0  0  0  0  0  0  0  0
    7.0560   15.0077   13.2186 H   0  0  0  0  0  0  0  0  0  0  0  0
    7.2179   14.9084   11.6295 H   0  0  0  0  0  0  0  0  0  0  0  0
    8.4879   15.2433   12.5439 H   0  0  0  0  0  0  0  0  0  0  0  0
   12.3512   12.2693   15.0132 C   0  0  0  0  0  0  0  0  0  0  0  0
   12.6559   12.3211   14.0622 H   0  0  0  0  0  0  0  0  0  0  0  0
   12.7497   10.8940   15.5560 C   0  0  0  0  0  0  0  0  0  0  0  0
   12.4673   10.8176   16.4914 H   0  0  0  0  0  0  0  0  0  0  0  0
   13.7224   10.7896   15.4990 H   0  0  0  0  0  0  0  0  0  0  0  0
   12.3144   10.1946   15.0252 H   0  0  0  0  0  0  0  0  0  0  0  0
   13.0805   13.3565   15.7939 C   0  0  0  0  0  0  0  0  0  0  0  0
   12.8501   14.2344   15.4243 H   0  0  0  0  0  0  0  0  0  0  0  0
   14.0478   13.2161   15.7236 H   0  0  0  0  0  0  0  0  0  0  0  0
   12.8124   13.3181   16.7357 H   0  0  0  0  0  0  0  0  0  0  0  0
    6.5098    7.8579   14.1577 C   0  0  0  0  0  0  0  0  0  0  0  0
    7.2641    8.2471   15.2783 C   0  0  0  0  0  0  0  0  0  0  0  0
   10.8484   13.0059   12.6459 N   0  0  0  0  0  0  0  0  0  0  0  0
    6.9912    6.7990   13.3106 N   0  0  0  0  0  0  0  0  0  0  0  0
    5.5092    4.8546   13.9507 O   0  0  0  0  0  0  0  0  0  0  0  0
   11.5148   15.4458   12.6813 O   0  0  0  0  0  0  0  0  0  0  0  0
    8.0420    3.1541   12.8371 Si  0  0  0  0  0  0  0  0  0  0  0  0
    6.1690    4.3430   10.5810 Si  0  0  0  0  0  0  0  0  0  0  0  0
   10.0536    9.0100   11.0973 B   0  0  0  0  0  0  0  0  0  0  0  0
   13.1763    8.9068   10.9037 C   0  0  0  0  0  0  0  0  0  0  0  0
   13.2556    9.7038   11.4684 H   0  0  0  0  0  0  0  0  0  0  0  0
   13.1574    9.1749    9.9612 H   0  0  0  0  0  0  0  0  0  0  0  0
   13.9436    8.3177   11.0603 H   0  0  0  0  0  0  0  0  0  0  0  0
   11.8338    6.4772   10.3789 C   0  0  0  0  0  0  0  0  0  0  0  0
   11.8693    6.6738    9.4194 H   0  0  0  0  0  0  0  0  0  0  0  0
   11.0686    5.8940   10.5648 H   0  0  0  0  0  0  0  0  0  0  0  0
   12.6610    6.0277   10.6510 H   0  0  0  0  0  0  0  0  0  0  0  0
   11.8409    7.5271   13.0238 C   0  0  0  0  0  0  0  0  0  0  0  0
   12.6856    7.0420   13.1310 H   0  0  0  0  0  0  0  0  0  0  0  0
   11.0949    6.9439   13.2765 H   0  0  0  0  0  0  0  0  0  0  0  0
   11.8445    8.3205   13.5991 H   0  0  0  0  0  0  0  0  0  0  0  0
    8.9387    7.6390    8.4591 C   0  0  0  0  0  0  0  0  0  0  0  0
    8.2205    7.1887    8.9506 H   0  0  0  0  0  0  0  0  0  0  0  0
    9.7177    7.0469    8.4036 H   0  0  0  0  0  0  0  0  0  0  0  0
    8.6293    7.8572    7.5552 H   0  0  0  0  0  0  0  0  0  0  0  0
   10.4898    9.9636    8.1060 C   0  0  0  0  0  0  0  0  0  0  0  0
   10.0079   10.0668    7.2589 H   0  0  0  0  0  0  0  0  0  0  0  0
   11.2828    9.4053    7.9647 H   0  0  0  0  0  0  0  0  0  0  0  0
   10.7649   10.8447    8.4348 H   0  0  0  0  0  0  0  0  0  0  0  0
    7.8857   10.1163    9.3337 C   0  0  0  0  0  0  0  0  0  0  0  0
    8.0620   11.0160    9.6797 H   0  0  0  0  0  0  0  0  0  0  0  0
    7.2251    9.6705    9.9040 H   0  0  0  0  0  0  0  0  0  0  0  0
    7.5381   10.1800    8.4196 H   0  0  0  0  0  0  0  0  0  0  0  0
   11.6529    8.0309   11.3102 P   0  0  0  0  0  0  0  0  0  0  0  0
    9.4019    9.1725    9.3295 P   0  0  0  0  0  0  0  0  0  0  0  0
  1  2  8  0  0  0  0
  2  6  8  0  0  0  0
  3  1  8  0  0  0  0
  4 38  1  0  0  0  0
  5 70  1  0  0  0  0
  6 67  1  0  0  0  0
  7  3  8  0  0  0  0
  8  9  1  0  0  0  0
 10  8  4  0  0  0  0
 11 10  1  0  0  0  0
 12 10  4  0  0  0  0
 13 12  1  0  0  0  0
 14 12  4  0  0  0  0
 15 14  1  0  0  0  0
 16 15  1  0  0  0  0
 17 15  1  0  0  0  0
 18 17  1  0  0  0  0
 19 17  1  0  0  0  0
 20 17  1  0  0  0  0
 21 15  1  0  0  0  0
 22 21  1  0  0  0  0
 23 21  1  0  0  0  0
 24 21  1  0  0  0  0
 25 26  1  0  0  0  0
 27 25  1  0  0  0  0
 28 27  1  0  0  0  0
 29 27  1  0  0  0  0
 30 27  1  0  0  0  0
 31 25  1  0  0  0  0
 32 31  1  0  0  0  0
 33 31  1  0  0  0  0
 34 31  1  0  0  0  0
 35  7  1  0  0  0  0
 36 35  1  0  0  0  0
 37 35  1  0  0  0  0
 38 35  1  0  0  0  0
 39 40  1  0  0  0  0
 41 39  1  0  0  0  0
 42 39  1  0  0  0  0
 43 44  1  0  0  0  0
 45 43  1  0  0  0  0
 46 43  1  0  0  0  0
 47 48  1  0  0  0  0
 49 47  1  0  0  0  0
 50 47  1  0  0  0  0
 51 52  1  0  0  0  0
 53 51  1  0  0  0  0
 54 51  1  0  0  0  0
 55 56  1  0  0  0  0
 57 55  1  0  0  0  0
 58 55  1  0  0  0  0
 59 60  1  0  0  0  0
 61 59  1  0  0  0  0
 62 59  1  0  0  0  0
 63 64  1  0  0  0  0
 65 63  1  0  0  0  0
 66 63  1  0  0  0  0
 67 68  1  0  0  0  0
 69 67  1  0  0  0  0
 70 67  1  0  0  0  0
 71 72  1  0  0  0  0
 73 71  1  0  0  0  0
 74 71  1  0  0  0  0
 75 76  1  0  0  0  0
 77 75  1  0  0  0  0
 78 75  1  0  0  0  0
 79 80  1  0  0  0  0
 81 79  1  0  0  0  0
 82 79  1  0  0  0  0
 83 84  1  0  0  0  0
 85 83  1  0  0  0  0
 86 83  1  0  0  0  0
 87 88  1  0  0  0  0
 89 87  1  0  0  0  0
 90 87  1  0  0  0  0
 91 92  1  0  0  0  0
 93 91  1  0  0  0  0
 94 91  1  0  0  0  0
 95 96  1  0  0  0  0
 97 95  1  0  0  0  0
 98 95  1  0  0  0  0
 99 70  1  0  0  0  0
100 70  1  0  0  0  0
101102  4  0  0  0  0
102103  4  0  0  0  0
103104  1  0  0  0  0
105103  4  0  0  0  0
106105  1  0  0  0  0
107105  4  0  0  0  0
108107  1  0  0  0  0
109101  4  0  0  0  0
110109  1  0  0  0  0
111110  1  0  0  0  0
112110  1  0  0  0  0
113112  1  0  0  0  0
114112  1  0  0  0  0
115112  1  0  0  0  0
116110  1  0  0  0  0
117116  1  0  0  0  0
118116  1  0  0  0  0
119116  1  0  0  0  0
120102  1  0  0  0  0
121120  1  0  0  0  0
122120  1  0  0  0  0
123122  1  0  0  0  0
124122  1  0  0  0  0
125122  1  0  0  0  0
126120  1  0  0  0  0
127126  1  0  0  0  0
128126  1  0  0  0  0
129126  1  0  0  0  0
130 14  4  0  0  0  0
131  8  4  0  0  0  0
132  5  1  0  0  0  0
133  4  1  0  0  0  0
134  4  1  0  0  0  0
135  5  1  0  0  0  0
136 38  1  0  0  0  0
137 38  1  0  0  0  0
138  2  1  0  0  0  0
139140  1  0  0  0  0
141139  1  0  0  0  0
142139  1  0  0  0  0
143144  1  0  0  0  0
145143  1  0  0  0  0
146143  1  0  0  0  0
147148  1  0  0  0  0
149147  1  0  0  0  0
150147  1  0  0  0  0
151152  1  0  0  0  0
153151  1  0  0  0  0
154151  1  0  0  0  0
155156  1  0  0  0  0
157155  1  0  0  0  0
158155  1  0  0  0  0
159160  1  0  0  0  0
161159  1  0  0  0  0
162159  1  0  0  0  0
163138  1  0  0  0  0
164138  1  0  0  0  0
  3138  1  0  0  0  0
  6132  1  0  0  0  0
  7133  1  0  0  0  0
 25131  1  0  0  0  0
 39136  1  0  0  0  0
 43136  1  0  0  0  0
 47136  1  0  0  0  0
 51137  1  0  0  0  0
 55137  1  0  0  0  0
 59137  1  0  0  0  0
 63134  1  0  0  0  0
 71135  1  0  0  0  0
 75 99  1  0  0  0  0
 79 99  1  0  0  0  0
 83 99  1  0  0  0  0
 87100  1  0  0  0  0
 91100  1  0  0  0  0
 95100  1  0  0  0  0
101132  1  0  0  0  0
107109  4  0  0  0  0
130131  4  0  0  0  0
130133  1  0  0  0  0
139163  1  0  0  0  0
143163  1  0  0  0  0
147163  1  0  0  0  0
151164  1  0  0  0  0
155164  1  0  0  0  0
159164  1  0  0  0  0
M  END
$$$$
HOFVUX

From CSD data. Using bond type 'Any'. No disordered atoms. Largest molecule.
103116  0  0  0  0  0  0  0  0999 V2000
   21.6370    0.6832    6.1780 Fe  0  0  0  0  0  0  0  0  0  0  0  0
   25.0607    1.2796    5.4585 P   0  0  0  0  0  0  0  0  0  0  0  0
   18.2560    1.1874    5.1950 P   0  0  0  0  0  0  0  0  0  0  0  0
   13.6818   -0.7211    5.6779 O   0  0  0  0  0  0  0  0  0  0  0  0
   12.9241   -0.6775    5.3182 H   0  0  0  0  0  0  0  0  0  0  0  0
   29.4636    0.9850    7.6521 O   0  0  0  0  0  0  0  0  0  0  0  0
   30.1418    1.3594    7.9766 H   0  0  0  0  0  0  0  0  0  0  0  0
   26.1952    2.0579    6.4015 N   0  0  0  0  0  0  0  0  0  0  0  0
   17.1119    0.1092    4.5987 N   0  0  0  0  0  0  0  0  0  0  0  0
   22.5037    2.5533    6.0901 C   0  0  0  0  0  0  0  0  0  0  0  0
   22.4816    3.1573    5.3570 H   0  0  0  0  0  0  0  0  0  0  0  0
   23.4870    1.5302    6.3100 C   0  0  0  0  0  0  0  0  0  0  0  0
   20.8295    0.0770    4.3776 C   0  0  0  0  0  0  0  0  0  0  0  0
   20.8941    0.5324    3.5462 H   0  0  0  0  0  0  0  0  0  0  0  0
   19.7945    0.2580    5.3572 C   0  0  0  0  0  0  0  0  0  0  0  0
   27.1736    1.2833    7.1727 C   0  0  0  0  0  0  0  0  0  0  0  0
   27.2855    0.4041    6.7101 H   0  0  0  0  0  0  0  0  0  0  0  0
   21.5702    2.5057    7.1596 C   0  0  0  0  0  0  0  0  0  0  0  0
   20.8095    3.0659    7.2596 H   0  0  0  0  0  0  0  0  0  0  0  0
   21.7378   -0.8963    4.8643 C   0  0  0  0  0  0  0  0  0  0  0  0
   22.5157   -1.2044    4.4146 H   0  0  0  0  0  0  0  0  0  0  0  0
   18.5895    2.3217    3.8108 C   0  0  0  0  0  0  0  0  0  0  0  0
   20.0907   -0.6339    6.4479 C   0  0  0  0  0  0  0  0  0  0  0  0
   19.5751   -0.7372    7.2391 H   0  0  0  0  0  0  0  0  0  0  0  0
   24.9222    2.2690    3.9428 C   0  0  0  0  0  0  0  0  0  0  0  0
   19.7164    3.1345    3.8520 C   0  0  0  0  0  0  0  0  0  0  0  0
   20.3024    3.0896    4.5985 H   0  0  0  0  0  0  0  0  0  0  0  0
   16.0262   -0.3628    5.4871 C   0  0  0  0  0  0  0  0  0  0  0  0
   15.9365    0.2982    6.2323 H   0  0  0  0  0  0  0  0  0  0  0  0
   14.3584    0.9520    4.0443 C   0  0  0  0  0  0  0  0  0  0  0  0
   28.5538    1.9773    7.1767 C   0  0  0  0  0  0  0  0  0  0  0  0
   28.5316    2.7319    7.8323 H   0  0  0  0  0  0  0  0  0  0  0  0
   14.6958   -0.3723    4.7092 C   0  0  0  0  0  0  0  0  0  0  0  0
   14.7346   -1.0857    4.0097 H   0  0  0  0  0  0  0  0  0  0  0  0
   28.9627    2.5189    5.8297 C   0  0  0  0  0  0  0  0  0  0  0  0
   23.1399    0.8758    7.5320 C   0  0  0  0  0  0  0  0  0  0  0  0
   23.6173    0.1567    7.9285 H   0  0  0  0  0  0  0  0  0  0  0  0
   17.5296   -0.8054    3.5263 C   0  0  0  0  0  0  0  0  0  0  0  0
   18.1613   -0.3472    2.9337 H   0  0  0  0  0  0  0  0  0  0  0  0
   16.7440   -1.0861    3.0120 H   0  0  0  0  0  0  0  0  0  0  0  0
   17.9616   -1.5927    3.9185 H   0  0  0  0  0  0  0  0  0  0  0  0
   21.2870   -1.3324    6.1368 C   0  0  0  0  0  0  0  0  0  0  0  0
   21.7123   -1.9806    6.6860 H   0  0  0  0  0  0  0  0  0  0  0  0
   13.7758    3.2906    4.1908 C   0  0  0  0  0  0  0  0  0  0  0  0
   13.6171    4.0671    4.7145 H   0  0  0  0  0  0  0  0  0  0  0  0
   21.9694    1.4745    8.0554 C   0  0  0  0  0  0  0  0  0  0  0  0
   21.5284    1.2316    8.8609 H   0  0  0  0  0  0  0  0  0  0  0  0
   25.8185    3.3734    6.9459 C   0  0  0  0  0  0  0  0  0  0  0  0
   25.3668    3.8975    6.2517 H   0  0  0  0  0  0  0  0  0  0  0  0
   26.6237    3.8480    7.2409 H   0  0  0  0  0  0  0  0  0  0  0  0
   25.2142    3.2512    7.7077 H   0  0  0  0  0  0  0  0  0  0  0  0
   16.3251   -1.7259    6.1108 C   0  0  0  0  0  0  0  0  0  0  0  0
   16.3644   -2.4057    5.4061 H   0  0  0  0  0  0  0  0  0  0  0  0
   15.6167   -1.9558    6.7476 H   0  0  0  0  0  0  0  0  0  0  0  0
   17.1857   -1.6895    6.5782 H   0  0  0  0  0  0  0  0  0  0  0  0
   19.9935    4.0103    2.8139 C   0  0  0  0  0  0  0  0  0  0  0  0
   20.7761    4.5483    2.8393 H   0  0  0  0  0  0  0  0  0  0  0  0
   14.1378    2.0931    4.8088 C   0  0  0  0  0  0  0  0  0  0  0  0
   14.2341    2.0569    5.7533 H   0  0  0  0  0  0  0  0  0  0  0  0
   17.6988    2.4339    2.7441 C   0  0  0  0  0  0  0  0  0  0  0  0
   16.9099    1.9046    2.7235 H   0  0  0  0  0  0  0  0  0  0  0  0
   29.0500    3.8915    5.6227 C   0  0  0  0  0  0  0  0  0  0  0  0
   28.8710    4.4846    6.3443 H   0  0  0  0  0  0  0  0  0  0  0  0
   23.7326    2.8685    1.9258 C   0  0  0  0  0  0  0  0  0  0  0  0
   22.9578    2.8091    1.3791 H   0  0  0  0  0  0  0  0  0  0  0  0
   29.2442    1.6739    4.7554 C   0  0  0  0  0  0  0  0  0  0  0  0
   29.1996    0.7315    4.8706 H   0  0  0  0  0  0  0  0  0  0  0  0
   17.9708    3.3221    1.7118 C   0  0  0  0  0  0  0  0  0  0  0  0
   17.3643    3.3992    0.9845 H   0  0  0  0  0  0  0  0  0  0  0  0
   23.7971    2.1730    3.1211 C   0  0  0  0  0  0  0  0  0  0  0  0
   23.0683    1.6240    3.3851 H   0  0  0  0  0  0  0  0  0  0  0  0
   19.1195    4.0982    1.7340 C   0  0  0  0  0  0  0  0  0  0  0  0
   19.3100    4.6876    1.0140 H   0  0  0  0  0  0  0  0  0  0  0  0
   29.3953    4.4126    4.3766 C   0  0  0  0  0  0  0  0  0  0  0  0
   29.4504    5.3530    4.2523 H   0  0  0  0  0  0  0  0  0  0  0  0
   25.9944    3.0729    3.5392 C   0  0  0  0  0  0  0  0  0  0  0  0
   26.7616    3.1558    4.0931 H   0  0  0  0  0  0  0  0  0  0  0  0
   13.6481    3.3434    2.8161 C   0  0  0  0  0  0  0  0  0  0  0  0
   13.4134    4.1631    2.3968 H   0  0  0  0  0  0  0  0  0  0  0  0
   26.7348    0.9872    8.6115 C   0  0  0  0  0  0  0  0  0  0  0  0
   26.5334    1.8283    9.0717 H   0  0  0  0  0  0  0  0  0  0  0  0
   27.4566    0.5211    9.0834 H   0  0  0  0  0  0  0  0  0  0  0  0
   25.9346    0.4215    8.5990 H   0  0  0  0  0  0  0  0  0  0  0  0
   24.8138    3.6578    1.5298 C   0  0  0  0  0  0  0  0  0  0  0  0
   24.7761    4.1329    0.7081 H   0  0  0  0  0  0  0  0  0  0  0  0
   14.2099    1.0187    2.6679 C   0  0  0  0  0  0  0  0  0  0  0  0
   14.3484    0.2422    2.1384 H   0  0  0  0  0  0  0  0  0  0  0  0
   25.9349    3.7508    2.3243 C   0  0  0  0  0  0  0  0  0  0  0  0
   26.6713    4.2809    2.0422 H   0  0  0  0  0  0  0  0  0  0  0  0
   29.6560    3.5647    3.3307 C   0  0  0  0  0  0  0  0  0  0  0  0
   29.8822    3.9160    2.4766 H   0  0  0  0  0  0  0  0  0  0  0  0
   13.8557    2.2309    2.0537 C   0  0  0  0  0  0  0  0  0  0  0  0
   13.7603    2.2758    1.1100 H   0  0  0  0  0  0  0  0  0  0  0  0
   29.5894    2.2074    3.5189 C   0  0  0  0  0  0  0  0  0  0  0  0
   29.7821    1.6237    2.7953 H   0  0  0  0  0  0  0  0  0  0  0  0
   17.7511    2.0916    6.7991 B   0  0  0  0  0  0  0  0  0  0  0  0
   16.7375    2.4698    6.6972 H   0  0  0  0  0  0  0  0  0  0  0  0
   18.4330    2.9168    6.9783 H   0  0  0  0  0  0  0  0  0  0  0  0
   17.7968    1.3998    7.6359 H   0  0  0  0  0  0  0  0  0  0  0  0
   25.4952   -0.5482    5.0937 B   0  0  0  0  0  0  0  0  0  0  0  0
   26.5536   -0.6222    4.8007 H   0  0  0  0  0  0  0  0  0  0  0  0
   24.8605   -0.9161    4.2742 H   0  0  0  0  0  0  0  0  0  0  0  0
   25.3197   -1.1506    5.9943 H   0  0  0  0  0  0  0  0  0  0  0  0
  1 10  8  0  0  0  0
  2  8  1  0  0  0  0
  3  9  1  0  0  0  0
  4  5  1  0  0  0  0
  6  7  1  0  0  0  0
  8 16  1  0  0  0  0
  9 28  1  0  0  0  0
 10 11  1  0  0  0  0
 12  1  8  0  0  0  0
 13  1  8  0  0  0  0
 14 13  1  0  0  0  0
 15  1  8  0  0  0  0
 16 17  1  0  0  0  0
 18  1  8  0  0  0  0
 19 18  1  0  0  0  0
 20  1  8  0  0  0  0
 21 20  1  0  0  0  0
 22  3  1  0  0  0  0
 23  1  8  0  0  0  0
 24 23  1  0  0  0  0
 25  2  1  0  0  0  0
 26 22  4  0  0  0  0
 27 26  1  0  0  0  0
 28 29  1  0  0  0  0
 30 33  1  0  0  0  0
 31  6  1  0  0  0  0
 32 31  1  0  0  0  0
 33  4  1  0  0  0  0
 34 33  1  0  0  0  0
 35 31  1  0  0  0  0
 36  1  8  0  0  0  0
 37 36  1  0  0  0  0
 38  9  1  0  0  0  0
 39 38  1  0  0  0  0
 40 38  1  0  0  0  0
 41 38  1  0  0  0  0
 42  1  8  0  0  0  0
 43 42  1  0  0  0  0
 44 45  1  0  0  0  0
 46  1  8  0  0  0  0
 47 46  1  0  0  0  0
 48  8  1  0  0  0  0
 49 48  1  0  0  0  0
 50 48  1  0  0  0  0
 51 48  1  0  0  0  0
 52 28  1  0  0  0  0
 53 52  1  0  0  0  0
 54 52  1  0  0  0  0
 55 52  1  0  0  0  0
 56 26  4  0  0  0  0
 57 56  1  0  0  0  0
 58 30  4  0  0  0  0
 59 58  1  0  0  0  0
 60 22  4  0  0  0  0
 61 60  1  0  0  0  0
 62 35  4  0  0  0  0
 63 62  1  0  0  0  0
 64 65  1  0  0  0  0
 66 35  4  0  0  0  0
 67 66  1  0  0  0  0
 68 60  4  0  0  0  0
 69 68  1  0  0  0  0
 70 25  4  0  0  0  0
 71 70  1  0  0  0  0
 72 56  4  0  0  0  0
 73 72  1  0  0  0  0
 74 62  4  0  0  0  0
 75 74  1  0  0  0  0
 76 25  4  0  0  0  0
 77 76  1  0  0  0  0
 78 44  4  0  0  0  0
 79 78  1  0  0  0  0
 80 16  1  0  0  0  0
 81 80  1  0  0  0  0
 82 80  1  0  0  0  0
 83 80  1  0  0  0  0
 84 64  4  0  0  0  0
 85 84  1  0  0  0  0
 86 30  4  0  0  0  0
 87 86  1  0  0  0  0
 88 76  4  0  0  0  0
 89 88  1  0  0  0  0
 90 74  4  0  0  0  0
 91 90  1  0  0  0  0
 92 78  4  0  0  0  0
 93 92  1  0  0  0  0
 94 66  4  0  0  0  0
 95 94  1  0  0  0  0
 96  3  1  0  0  0  0
 97 96  1  0  0  0  0
 98 96  1  0  0  0  0
 99 96  1  0  0  0  0
100  2  1  0  0  0  0
101100  1  0  0  0  0
102100  1  0  0  0  0
103100  1  0  0  0  0
  2 12  1  0  0  0  0
  3 15  1  0  0  0  0
 10 12  4  0  0  0  0
 10 18  4  0  0  0  0
 12 36  4  0  0  0  0
 13 15  4  0  0  0  0
 13 20  4  0  0  0  0
 15 23  4  0  0  0  0
 16 31  1  0  0  0  0
 18 46  4  0  0  0  0
 20 42  4  0  0  0  0
 23 42  4  0  0  0  0
 28 33  1  0  0  0  0
 36 46  4  0  0  0  0
 44 58  4  0  0  0  0
 64 70  4  0  0  0  0
 68 72  4  0  0  0  0
 84 88  4  0  0  0  0
 86 92  4  0  0  0  0
 90 94  4  0  0  0  0
M  END
$$$$
HOSGOM

From CSD data. Using bond type 'Any'. No disordered atoms. Largest molecule.
100127  0  0  0  0  0  0  0  0999 V2000
   -0.4746    4.9786    5.8247 Ru  0  0  0  0  0  0  0  0  0  0  0  0
    1.1309    3.3354    6.0088 P   0  0  0  0  0  0  0  0  0  0  0  0
   -1.8990    4.0246    7.2327 P   0  0  0  0  0  0  0  0  0  0  0  0
   -0.1768    8.1185    6.9183 C   0  0  0  0  0  0  0  0  0  0  0  0
    1.4041    7.6611    6.8823 C   0  0  0  0  0  0  0  0  0  0  0  0
    1.9292    7.5265    5.9256 H   0  0  0  0  0  0  0  0  0  0  0  0
   -0.9903    8.2567    5.5941 C   0  0  0  0  0  0  0  0  0  0  0  0
   -2.4630    8.6274    5.8679 C   0  0  0  0  0  0  0  0  0  0  0  0
   -2.8585    7.9648    6.4391 H   0  0  0  0  0  0  0  0  0  0  0  0
   -2.9426    8.6641    5.0374 H   0  0  0  0  0  0  0  0  0  0  0  0
   -2.5019    9.4856    6.2985 H   0  0  0  0  0  0  0  0  0  0  0  0
   -0.4155    9.3449    4.6699 C   0  0  0  0  0  0  0  0  0  0  0  0
    0.5005    9.1431    4.4663 H   0  0  0  0  0  0  0  0  0  0  0  0
   -0.4640   10.1971    5.1095 H   0  0  0  0  0  0  0  0  0  0  0  0
   -0.9247    9.3755    3.8555 H   0  0  0  0  0  0  0  0  0  0  0  0
   -0.9466    6.9202    4.8446 C   0  0  0  0  0  0  0  0  0  0  0  0
    0.1919    6.3509    4.1690 C   0  0  0  0  0  0  0  0  0  0  0  0
    1.0770    6.7641    4.0915 H   0  0  0  0  0  0  0  0  0  0  0  0
   -0.2221    5.1352    3.5366 C   0  0  0  0  0  0  0  0  0  0  0  0
    0.3501    4.5583    2.9871 H   0  0  0  0  0  0  0  0  0  0  0  0
   -1.5817    4.9314    3.7762 C   0  0  0  0  0  0  0  0  0  0  0  0
   -2.1325    4.1995    3.4285 H   0  0  0  0  0  0  0  0  0  0  0  0
   -2.0334    6.0322    4.5942 C   0  0  0  0  0  0  0  0  0  0  0  0
   -2.9619    6.1831    4.8716 H   0  0  0  0  0  0  0  0  0  0  0  0
    2.1492    2.8871    7.4912 C   0  0  0  0  0  0  0  0  0  0  0  0
    3.3216    2.1487    7.3417 C   0  0  0  0  0  0  0  0  0  0  0  0
    3.6295    1.9346    6.4895 H   0  0  0  0  0  0  0  0  0  0  0  0
    4.0365    1.7328    8.4659 C   0  0  0  0  0  0  0  0  0  0  0  0
    4.8160    1.2374    8.3614 H   0  0  0  0  0  0  0  0  0  0  0  0
    3.5900    2.0508    9.7289 C   0  0  0  0  0  0  0  0  0  0  0  0
    4.0621    1.7593   10.4747 H   0  0  0  0  0  0  0  0  0  0  0  0
    2.4518    2.7990    9.8838 C   0  0  0  0  0  0  0  0  0  0  0  0
    2.1629    3.0334   10.7378 H   0  0  0  0  0  0  0  0  0  0  0  0
    1.7256    3.2075    8.7668 C   0  0  0  0  0  0  0  0  0  0  0  0
    0.9469    3.7021    8.8821 H   0  0  0  0  0  0  0  0  0  0  0  0
    2.4898    3.6513    4.8086 C   0  0  0  0  0  0  0  0  0  0  0  0
    2.7841    2.8479    3.7042 C   0  0  0  0  0  0  0  0  0  0  0  0
    2.2645    2.0957    3.5312 H   0  0  0  0  0  0  0  0  0  0  0  0
    3.8538    3.1639    2.8538 C   0  0  0  0  0  0  0  0  0  0  0  0
    4.0372    2.6237    2.1187 H   0  0  0  0  0  0  0  0  0  0  0  0
    4.6331    4.2709    3.1042 C   0  0  0  0  0  0  0  0  0  0  0  0
    5.3500    4.4706    2.5475 H   0  0  0  0  0  0  0  0  0  0  0  0
    4.3502    5.0863    4.1870 C   0  0  0  0  0  0  0  0  0  0  0  0
    4.8662    5.8426    4.3474 H   0  0  0  0  0  0  0  0  0  0  0  0
    3.3000    4.7785    5.0320 C   0  0  0  0  0  0  0  0  0  0  0  0
    3.1261    5.3269    5.7634 H   0  0  0  0  0  0  0  0  0  0  0  0
    0.5270    1.6470    5.5166 C   0  0  0  0  0  0  0  0  0  0  0  0
   -0.1282    1.4841    4.2951 C   0  0  0  0  0  0  0  0  0  0  0  0
   -0.2442    2.2221    3.7420 H   0  0  0  0  0  0  0  0  0  0  0  0
   -0.6105    0.2548    3.8825 C   0  0  0  0  0  0  0  0  0  0  0  0
   -1.0093    0.1692    3.0466 H   0  0  0  0  0  0  0  0  0  0  0  0
   -0.5022   -0.8440    4.7059 C   0  0  0  0  0  0  0  0  0  0  0  0
   -0.8359   -1.6676    4.4338 H   0  0  0  0  0  0  0  0  0  0  0  0
    0.1041   -0.7135    5.9292 C   0  0  0  0  0  0  0  0  0  0  0  0
    0.1639   -1.4515    6.4931 H   0  0  0  0  0  0  0  0  0  0  0  0
    0.6335    0.5198    6.3382 C   0  0  0  0  0  0  0  0  0  0  0  0
    1.0578    0.5871    7.1615 H   0  0  0  0  0  0  0  0  0  0  0  0
   -3.4689    2.6176    5.6211 C   0  0  0  0  0  0  0  0  0  0  0  0
   -2.8401    2.7705    4.8987 H   0  0  0  0  0  0  0  0  0  0  0  0
   -4.1319    3.3250    5.5725 H   0  0  0  0  0  0  0  0  0  0  0  0
   -4.1306    1.4026    5.3545 C   0  0  0  0  0  0  0  0  0  0  0  0
   -4.5637    1.4556    4.4987 H   0  0  0  0  0  0  0  0  0  0  0  0
   -4.7855    1.2374    6.0355 H   0  0  0  0  0  0  0  0  0  0  0  0
   -3.4911    0.6870    5.3455 H   0  0  0  0  0  0  0  0  0  0  0  0
   -1.9119    2.3485    9.3938 C   0  0  0  0  0  0  0  0  0  0  0  0
   -2.7665    2.6441    9.7433 H   0  0  0  0  0  0  0  0  0  0  0  0
   -2.0788    1.5779    8.8280 H   0  0  0  0  0  0  0  0  0  0  0  0
   -1.1168    1.9448   10.4585 C   0  0  0  0  0  0  0  0  0  0  0  0
   -1.5529    1.2354   10.9342 H   0  0  0  0  0  0  0  0  0  0  0  0
   -0.9765    2.6869   11.0513 H   0  0  0  0  0  0  0  0  0  0  0  0
   -0.2695    1.6370   10.1270 H   0  0  0  0  0  0  0  0  0  0  0  0
   -4.1623    4.8294    8.4839 C   0  0  0  0  0  0  0  0  0  0  0  0
   -3.8896    4.7071    9.4064 H   0  0  0  0  0  0  0  0  0  0  0  0
   -4.5978    4.0140    8.1867 H   0  0  0  0  0  0  0  0  0  0  0  0
   -5.0949    5.9446    8.3920 C   0  0  0  0  0  0  0  0  0  0  0  0
   -5.8532    5.7754    8.9560 H   0  0  0  0  0  0  0  0  0  0  0  0
   -5.3888    6.0424    7.4822 H   0  0  0  0  0  0  0  0  0  0  0  0
   -4.6583    6.7518    8.6749 H   0  0  0  0  0  0  0  0  0  0  0  0
    0.2176    6.3091    7.3345 B   0  0  0  0  0  0  0  0  0  0  0  0
   -0.8919    7.4531    8.2371 B   0  0  0  0  0  0  0  0  0  0  0  0
   -1.9548    7.1698    8.2029 H   0  0  0  0  0  0  0  0  0  0  0  0
   -0.5156    9.1655    8.2605 B   0  0  0  0  0  0  0  0  0  0  0  0
   -1.2689    9.9667    8.2497 H   0  0  0  0  0  0  0  0  0  0  0  0
    1.0077    9.3082    7.3957 B   0  0  0  0  0  0  0  0  0  0  0  0
    1.2647   10.2093    6.8192 H   0  0  0  0  0  0  0  0  0  0  0  0
    1.7395    6.6316    8.2569 B   0  0  0  0  0  0  0  0  0  0  0  0
    2.4969    5.8345    8.2497 H   0  0  0  0  0  0  0  0  0  0  0  0
    0.2217    6.4991    9.1397 B   0  0  0  0  0  0  0  0  0  0  0  0
   -0.0540    5.6143    9.7325 H   0  0  0  0  0  0  0  0  0  0  0  0
   -0.2336    8.1503    9.6856 B   0  0  0  0  0  0  0  0  0  0  0  0
   -0.8027    8.3032   10.6135 H   0  0  0  0  0  0  0  0  0  0  0  0
    1.0041    9.3164    9.1595 B   0  0  0  0  0  0  0  0  0  0  0  0
    1.2527   10.2175    9.7397 H   0  0  0  0  0  0  0  0  0  0  0  0
    2.2266    8.3766    8.2659 B   0  0  0  0  0  0  0  0  0  0  0  0
    3.2858    8.6763    8.2551 H   0  0  0  0  0  0  0  0  0  0  0  0
    1.4678    7.6611    9.6964 B   0  0  0  0  0  0  0  0  0  0  0  0
    2.0262    7.5041   10.6297 H   0  0  0  0  0  0  0  0  0  0  0  0
   -2.7997    2.7745    6.7760 O   0  0  0  0  0  0  0  0  0  0  0  0
   -1.3706    3.3820    8.5929 O   0  0  0  0  0  0  0  0  0  0  0  0
   -3.0216    5.0775    7.6804 O   0  0  0  0  0  0  0  0  0  0  0  0
  1  2  1  0  0  0  0
  2 25  1  0  0  0  0
  3  1  1  0  0  0  0
  4  5  1  0  0  0  0
  5  6  1  0  0  0  0
  7  4  1  0  0  0  0
  8  7  1  0  0  0  0
  9  8  1  0  0  0  0
 10  8  1  0  0  0  0
 11  8  1  0  0  0  0
 12  7  1  0  0  0  0
 13 12  1  0  0  0  0
 14 12  1  0  0  0  0
 15 12  1  0  0  0  0
 16  1  8  0  0  0  0
 17  1  8  0  0  0  0
 18 17  1  0  0  0  0
 19  1  8  0  0  0  0
 20 19  1  0  0  0  0
 21  1  8  0  0  0  0
 22 21  1  0  0  0  0
 23  1  8  0  0  0  0
 24 23  1  0  0  0  0
 25 26  4  0  0  0  0
 26 27  1  0  0  0  0
 28 26  4  0  0  0  0
 29 28  1  0  0  0  0
 30 28  4  0  0  0  0
 31 30  1  0  0  0  0
 32 30  4  0  0  0  0
 33 32  1  0  0  0  0
 34 25  4  0  0  0  0
 35 34  1  0  0  0  0
 36  2  1  0  0  0  0
 37 36  4  0  0  0  0
 38 37  1  0  0  0  0
 39 37  4  0  0  0  0
 40 39  1  0  0  0  0
 41 39  4  0  0  0  0
 42 41  1  0  0  0  0
 43 41  4  0  0  0  0
 44 43  1  0  0  0  0
 45 36  4  0  0  0  0
 46 45  1  0  0  0  0
 47  2  1  0  0  0  0
 48 47  4  0  0  0  0
 49 48  1  0  0  0  0
 50 48  4  0  0  0  0
 51 50  1  0  0  0  0
 52 50  4  0  0  0  0
 53 52  1  0  0  0  0
 54 52  4  0  0  0  0
 55 54  1  0  0  0  0
 56 47  4  0  0  0  0
 57 56  1  0  0  0  0
 58 59  1  0  0  0  0
 60 58  1  0  0  0  0
 61 58  1  0  0  0  0
 62 61  1  0  0  0  0
 63 61  1  0  0  0  0
 64 61  1  0  0  0  0
 65 66  1  0  0  0  0
 67 65  1  0  0  0  0
 68 65  1  0  0  0  0
 69 68  1  0  0  0  0
 70 68  1  0  0  0  0
 71 68  1  0  0  0  0
 72 73  1  0  0  0  0
 74 72  1  0  0  0  0
 75 72  1  0  0  0  0
 76 75  1  0  0  0  0
 77 75  1  0  0  0  0
 78 75  1  0  0  0  0
 79  1  1  0  0  0  0
 80  4  1  0  0  0  0
 81 80  1  0  0  0  0
 82  4  1  0  0  0  0
 83 82  1  0  0  0  0
 84  4  1  0  0  0  0
 85 84  1  0  0  0  0
 86  5  1  0  0  0  0
 87 86  1  0  0  0  0
 88 79  1  0  0  0  0
 89 88  1  0  0  0  0
 90 80  1  0  0  0  0
 91 90  1  0  0  0  0
 92 82  1  0  0  0  0
 93 92  1  0  0  0  0
 94  5  1  0  0  0  0
 95 94  1  0  0  0  0
 96 86  1  0  0  0  0
 97 96  1  0  0  0  0
 98  3  1  0  0  0  0
 99  3  1  0  0  0  0
100  3  1  0  0  0  0
  4 79  1  0  0  0  0
  5 79  1  0  0  0  0
  5 84  1  0  0  0  0
  7 16  1  0  0  0  0
 16 17  4  0  0  0  0
 16 23  4  0  0  0  0
 17 19  4  0  0  0  0
 19 21  4  0  0  0  0
 21 23  4  0  0  0  0
 32 34  4  0  0  0  0
 43 45  4  0  0  0  0
 54 56  4  0  0  0  0
 58 98  1  0  0  0  0
 65 99  1  0  0  0  0
 72100  1  0  0  0  0
 79 80  1  0  0  0  0
 79 86  1  0  0  0  0
 80 82  1  0  0  0  0
 80 88  1  0  0  0  0
 82 84  1  0  0  0  0
 82 90  1  0  0  0  0
 84 92  1  0  0  0  0
 84 94  1  0  0  0  0
 86 88  1  0  0  0  0
 86 94  1  0  0  0  0
 88 90  1  0  0  0  0
 88 96  1  0  0  0  0
 90 92  1  0  0  0  0
 90 96  1  0  0  0  0
 92 94  1  0  0  0  0
 92 96  1  0  0  0  0
 94 96  1  0  0  0  0
M  END
$$$$
HOSHAZ

From CSD data. Using bond type 'Any'. No disordered atoms. Largest molecule.
186254  0  0  0  0  0  0  0  0999 V2000
    7.1343   11.0816    3.3277 Ru  0  0  0  0  0  0  0  0  0  0  0  0
    6.8905   11.4982    6.6905 K   0  0  0  0  0  0  0  0  0  0  0  0
    7.0654    9.0885    2.3212 P   0  0  0  0  0  0  0  0  0  0  0  0
    4.3428   12.7705    2.9921 C   0  0  0  0  0  0  0  0  0  0  0  0
    3.9364   11.3768    2.3343 C   0  0  0  0  0  0  0  0  0  0  0  0
    4.3813   11.1245    1.3599 H   0  0  0  0  0  0  0  0  0  0  0  0
    5.4060   13.6712    2.2835 C   0  0  0  0  0  0  0  0  0  0  0  0
    5.3402   15.1190    2.8110 C   0  0  0  0  0  0  0  0  0  0  0  0
    6.0025   15.6527    2.3655 H   0  0  0  0  0  0  0  0  0  0  0  0
    5.5102   15.1237    3.7567 H   0  0  0  0  0  0  0  0  0  0  0  0
    4.4681   15.4821    2.6404 H   0  0  0  0  0  0  0  0  0  0  0  0
    5.1951   13.7300    0.7646 C   0  0  0  0  0  0  0  0  0  0  0  0
    5.8651   14.2930    0.3699 H   0  0  0  0  0  0  0  0  0  0  0  0
    4.3244   14.0876    0.5757 H   0  0  0  0  0  0  0  0  0  0  0  0
    5.2641   12.8450    0.3973 H   0  0  0  0  0  0  0  0  0  0  0  0
    6.8030   13.1193    2.5831 C   0  0  0  0  0  0  0  0  0  0  0  0
    7.5265   13.2265    3.8205 C   0  0  0  0  0  0  0  0  0  0  0  0
    7.2146   13.6236    4.6008 H   0  0  0  0  0  0  0  0  0  0  0  0
    8.7978   12.6202    3.6460 C   0  0  0  0  0  0  0  0  0  0  0  0
    9.5073   12.5691    4.3194 H   0  0  0  0  0  0  0  0  0  0  0  0
    8.8849   12.1688    2.3212 C   0  0  0  0  0  0  0  0  0  0  0  0
    9.6654   11.7410    1.9122 H   0  0  0  0  0  0  0  0  0  0  0  0
    7.6687   12.4787    1.6595 C   0  0  0  0  0  0  0  0  0  0  0  0
    7.4827   12.3311    0.7086 H   0  0  0  0  0  0  0  0  0  0  0  0
    6.0463    8.9940    0.7803 C   0  0  0  0  0  0  0  0  0  0  0  0
    6.4104    9.8028   -0.2944 C   0  0  0  0  0  0  0  0  0  0  0  0
    7.1944   10.3009   -0.2436 H   0  0  0  0  0  0  0  0  0  0  0  0
    5.6376    9.8820   -1.4263 C   0  0  0  0  0  0  0  0  0  0  0  0
    5.9096   10.4185   -2.1363 H   0  0  0  0  0  0  0  0  0  0  0  0
    4.4670    9.1748   -1.5149 C   0  0  0  0  0  0  0  0  0  0  0  0
    3.9328    9.2436   -2.2730 H   0  0  0  0  0  0  0  0  0  0  0  0
    4.0904    8.3639   -0.4768 C   0  0  0  0  0  0  0  0  0  0  0  0
    3.3037    7.8721   -0.5354 H   0  0  0  0  0  0  0  0  0  0  0  0
    4.8825    8.2754    0.6669 C   0  0  0  0  0  0  0  0  0  0  0  0
    4.6180    7.7195    1.3651 H   0  0  0  0  0  0  0  0  0  0  0  0
    8.7155    8.5262    1.6869 C   0  0  0  0  0  0  0  0  0  0  0  0
    9.8197    8.7393    2.5010 C   0  0  0  0  0  0  0  0  0  0  0  0
    9.7074    9.1547    3.3255 H   0  0  0  0  0  0  0  0  0  0  0  0
   11.0809    8.3446    2.1050 C   0  0  0  0  0  0  0  0  0  0  0  0
   11.8083    8.4768    2.6690 H   0  0  0  0  0  0  0  0  0  0  0  0
   11.2601    7.7527    0.8688 C   0  0  0  0  0  0  0  0  0  0  0  0
   12.1120    7.5029    0.5914 H   0  0  0  0  0  0  0  0  0  0  0  0
   10.1812    7.5332    0.0534 C   0  0  0  0  0  0  0  0  0  0  0  0
   10.3036    7.1319   -0.7763 H   0  0  0  0  0  0  0  0  0  0  0  0
    8.9135    7.9033    0.4520 C   0  0  0  0  0  0  0  0  0  0  0  0
    8.1878    7.7388   -0.1042 H   0  0  0  0  0  0  0  0  0  0  0  0
    6.5478    7.5505    3.2174 C   0  0  0  0  0  0  0  0  0  0  0  0
    5.9913    7.6222    4.4744 C   0  0  0  0  0  0  0  0  0  0  0  0
    5.9089    8.4512    4.8900 H   0  0  0  0  0  0  0  0  0  0  0  0
    5.5519    6.4810    5.1375 C   0  0  0  0  0  0  0  0  0  0  0  0
    5.1701    6.5507    5.9828 H   0  0  0  0  0  0  0  0  0  0  0  0
    5.6807    5.2546    4.5435 C   0  0  0  0  0  0  0  0  0  0  0  0
    5.3961    4.4902    4.9890 H   0  0  0  0  0  0  0  0  0  0  0  0
    6.2346    5.1543    3.2865 C   0  0  0  0  0  0  0  0  0  0  0  0
    6.3157    4.3237    2.8774 H   0  0  0  0  0  0  0  0  0  0  0  0
    6.6689    6.2954    2.6312 C   0  0  0  0  0  0  0  0  0  0  0  0
    7.0469    6.2205    1.7846 H   0  0  0  0  0  0  0  0  0  0  0  0
    5.9841    8.5157    8.6089 C   0  0  0  0  0  0  0  0  0  0  0  0
    6.2924    7.6955    9.0010 H   0  0  0  0  0  0  0  0  0  0  0  0
    5.3083    8.3242    7.9537 H   0  0  0  0  0  0  0  0  0  0  0  0
    5.6153    9.0783    9.2927 H   0  0  0  0  0  0  0  0  0  0  0  0
    8.2780    8.6399    8.1673 C   0  0  0  0  0  0  0  0  0  0  0  0
    8.2672    7.7300    7.8312 H   0  0  0  0  0  0  0  0  0  0  0  0
    8.4597    8.5920    9.1195 H   0  0  0  0  0  0  0  0  0  0  0  0
    9.3530    9.3121    7.5577 C   0  0  0  0  0  0  0  0  0  0  0  0
   10.1710    9.0304    7.9967 H   0  0  0  0  0  0  0  0  0  0  0  0
    9.4062    9.0180    6.6341 H   0  0  0  0  0  0  0  0  0  0  0  0
   10.4599   11.3609    7.1851 C   0  0  0  0  0  0  0  0  0  0  0  0
   11.2349   10.9356    7.5603 H   0  0  0  0  0  0  0  0  0  0  0  0
   10.4050   12.2645    7.5056 H   0  0  0  0  0  0  0  0  0  0  0  0
   10.5295   11.3656    6.2277 H   0  0  0  0  0  0  0  0  0  0  0  0
    5.1645   11.1517    3.7554 B   0  0  0  0  0  0  0  0  0  0  0  0
    4.3516   12.6026    4.6555 B   0  0  0  0  0  0  0  0  0  0  0  0
    5.0274   13.1927    5.2925 H   0  0  0  0  0  0  0  0  0  0  0  0
    7.3893   13.5897    9.1898 B   0  0  0  0  0  0  0  0  0  0  0  0
    7.5902   12.5150    9.0713 H   0  0  0  0  0  0  0  0  0  0  0  0
    2.7506   12.6286    2.2965 B   0  0  0  0  0  0  0  0  0  0  0  0
    2.3981   13.1688    1.4055 H   0  0  0  0  0  0  0  0  0  0  0  0
    3.6590   10.1503    3.4558 B   0  0  0  0  0  0  0  0  0  0  0  0
    3.8481    9.0820    3.2760 H   0  0  0  0  0  0  0  0  0  0  0  0
    3.8812   10.9426    5.0189 B   0  0  0  0  0  0  0  0  0  0  0  0
    4.2063   10.4151    5.9268 H   0  0  0  0  0  0  0  0  0  0  0  0
    7.7059   14.7548    7.8937 B   0  0  0  0  0  0  0  0  0  0  0  0
    8.1205   14.4410    6.9246 H   0  0  0  0  0  0  0  0  0  0  0  0
    8.6986   14.7625    9.3761 B   0  0  0  0  0  0  0  0  0  0  0  0
    9.7601   14.4723    9.3696 H   0  0  0  0  0  0  0  0  0  0  0  0
    2.3169   10.9595    2.6104 B   0  0  0  0  0  0  0  0  0  0  0  0
    1.6750   10.4110    1.9057 H   0  0  0  0  0  0  0  0  0  0  0  0
    2.2417   10.7120    4.3689 B   0  0  0  0  0  0  0  0  0  0  0  0
    1.5333   10.0102    4.8313 H   0  0  0  0  0  0  0  0  0  0  0  0
    7.0316    9.1544    8.0084 O   0  0  0  0  0  0  0  0  0  0  0  0
    9.3177   10.6622    7.5655 O   0  0  0  0  0  0  0  0  0  0  0  0
    7.3410   10.1771    4.5721 H   0  0  0  0  0  0  0  0  0  0  0  0
    3.2511   15.9240    9.6982 Ru  0  0  0  0  0  0  0  0  0  0  0  0
    3.4949   15.5075    6.3355 K   0  0  0  0  0  0  0  0  0  0  0  0
    3.3200   17.9172   10.7048 P   0  0  0  0  0  0  0  0  0  0  0  0
    6.0425   14.2352   10.0339 C   0  0  0  0  0  0  0  0  0  0  0  0
    6.4489   15.6289   10.6917 C   0  0  0  0  0  0  0  0  0  0  0  0
    6.0041   15.8812   11.6661 H   0  0  0  0  0  0  0  0  0  0  0  0
    4.9793   13.3344   10.7425 C   0  0  0  0  0  0  0  0  0  0  0  0
    5.0452   11.8866   10.2150 C   0  0  0  0  0  0  0  0  0  0  0  0
    4.3828   11.3529   10.6605 H   0  0  0  0  0  0  0  0  0  0  0  0
    4.8752   11.8820    9.2693 H   0  0  0  0  0  0  0  0  0  0  0  0
    5.9173   11.5236   10.3856 H   0  0  0  0  0  0  0  0  0  0  0  0
    5.1903   13.2757   12.2614 C   0  0  0  0  0  0  0  0  0  0  0  0
    4.5203   12.7127   12.6561 H   0  0  0  0  0  0  0  0  0  0  0  0
    6.0610   12.9180   12.4502 H   0  0  0  0  0  0  0  0  0  0  0  0
    5.1213   14.1606   12.6287 H   0  0  0  0  0  0  0  0  0  0  0  0
    3.5824   13.8864   10.4429 C   0  0  0  0  0  0  0  0  0  0  0  0
    2.8589   13.7792    9.2055 C   0  0  0  0  0  0  0  0  0  0  0  0
    3.1708   13.3820    8.4252 H   0  0  0  0  0  0  0  0  0  0  0  0
    1.5876   14.3854    9.3800 C   0  0  0  0  0  0  0  0  0  0  0  0
    0.8781   14.4366    8.7066 H   0  0  0  0  0  0  0  0  0  0  0  0
    1.5004   14.8368   10.7048 C   0  0  0  0  0  0  0  0  0  0  0  0
    0.7200   15.2647   11.1138 H   0  0  0  0  0  0  0  0  0  0  0  0
    2.7167   14.5270   11.3665 C   0  0  0  0  0  0  0  0  0  0  0  0
    2.9027   14.6746   12.3174 H   0  0  0  0  0  0  0  0  0  0  0  0
    4.3391   18.0117   12.2457 C   0  0  0  0  0  0  0  0  0  0  0  0
    3.9750   17.2028   13.3204 C   0  0  0  0  0  0  0  0  0  0  0  0
    3.1909   16.7048   13.2696 H   0  0  0  0  0  0  0  0  0  0  0  0
    4.7478   17.1236   14.4523 C   0  0  0  0  0  0  0  0  0  0  0  0
    4.4758   16.5871   15.1623 H   0  0  0  0  0  0  0  0  0  0  0  0
    5.9184   17.8309   14.5409 C   0  0  0  0  0  0  0  0  0  0  0  0
    6.4525   17.7620   15.2990 H   0  0  0  0  0  0  0  0  0  0  0  0
    6.2949   18.6418   13.5027 C   0  0  0  0  0  0  0  0  0  0  0  0
    7.0817   19.1336   13.5614 H   0  0  0  0  0  0  0  0  0  0  0  0
    5.5029   18.7303   12.3591 C   0  0  0  0  0  0  0  0  0  0  0  0
    5.7674   19.2861   11.6609 H   0  0  0  0  0  0  0  0  0  0  0  0
    1.6699   18.4795   11.3391 C   0  0  0  0  0  0  0  0  0  0  0  0
    0.5657   18.2664   10.5250 C   0  0  0  0  0  0  0  0  0  0  0  0
    0.6780   17.8510    9.7005 H   0  0  0  0  0  0  0  0  0  0  0  0
   -0.6955   18.6610   10.9210 C   0  0  0  0  0  0  0  0  0  0  0  0
   -1.4230   18.5289   10.3570 H   0  0  0  0  0  0  0  0  0  0  0  0
   -0.8747   19.2529   12.1572 C   0  0  0  0  0  0  0  0  0  0  0  0
   -1.7266   19.5028   12.4346 H   0  0  0  0  0  0  0  0  0  0  0  0
    0.2042   19.4724   12.9726 C   0  0  0  0  0  0  0  0  0  0  0  0
    0.0818   19.8738   13.8023 H   0  0  0  0  0  0  0  0  0  0  0  0
    1.4719   19.1023   12.5740 C   0  0  0  0  0  0  0  0  0  0  0  0
    2.1976   19.2669   13.1302 H   0  0  0  0  0  0  0  0  0  0  0  0
    3.8376   19.4551    9.8086 C   0  0  0  0  0  0  0  0  0  0  0  0
    4.3941   19.3835    8.5516 C   0  0  0  0  0  0  0  0  0  0  0  0
    4.4765   18.5544    8.1360 H   0  0  0  0  0  0  0  0  0  0  0  0
    4.8335   20.5246    7.8885 C   0  0  0  0  0  0  0  0  0  0  0  0
    5.2153   20.4549    7.0432 H   0  0  0  0  0  0  0  0  0  0  0  0
    4.7047   21.7511    8.4825 C   0  0  0  0  0  0  0  0  0  0  0  0
    4.9892   22.5155    8.0370 H   0  0  0  0  0  0  0  0  0  0  0  0
    4.1508   21.8514    9.7395 C   0  0  0  0  0  0  0  0  0  0  0  0
    4.0697   22.6819   10.1485 H   0  0  0  0  0  0  0  0  0  0  0  0
    3.7165   20.7103   10.3947 C   0  0  0  0  0  0  0  0  0  0  0  0
    3.3385   20.7852   11.2414 H   0  0  0  0  0  0  0  0  0  0  0  0
    4.4013   18.4900    4.4171 C   0  0  0  0  0  0  0  0  0  0  0  0
    4.0929   19.3102    4.0250 H   0  0  0  0  0  0  0  0  0  0  0  0
    5.0770   18.6815    5.0723 H   0  0  0  0  0  0  0  0  0  0  0  0
    4.7700   17.9274    3.7332 H   0  0  0  0  0  0  0  0  0  0  0  0
    2.1074   18.3658    4.8587 C   0  0  0  0  0  0  0  0  0  0  0  0
    2.1182   19.2757    5.1948 H   0  0  0  0  0  0  0  0  0  0  0  0
    1.9257   18.4137    3.9065 H   0  0  0  0  0  0  0  0  0  0  0  0
    1.0324   17.6936    5.4683 C   0  0  0  0  0  0  0  0  0  0  0  0
    0.2144   17.9753    5.0293 H   0  0  0  0  0  0  0  0  0  0  0  0
    0.9792   17.9877    6.3919 H   0  0  0  0  0  0  0  0  0  0  0  0
   -0.0745   15.6448    5.8409 C   0  0  0  0  0  0  0  0  0  0  0  0
   -0.8495   16.0700    5.4657 H   0  0  0  0  0  0  0  0  0  0  0  0
   -0.0196   14.7411    5.5204 H   0  0  0  0  0  0  0  0  0  0  0  0
   -0.1442   15.6401    6.7983 H   0  0  0  0  0  0  0  0  0  0  0  0
    5.2209   15.8540    9.2706 B   0  0  0  0  0  0  0  0  0  0  0  0
    6.0338   14.4030    8.3705 B   0  0  0  0  0  0  0  0  0  0  0  0
    5.3580   13.8130    7.7335 H   0  0  0  0  0  0  0  0  0  0  0  0
    2.9960   13.4159    3.8362 B   0  0  0  0  0  0  0  0  0  0  0  0
    2.7952   14.4907    3.9547 H   0  0  0  0  0  0  0  0  0  0  0  0
    7.6348   14.3770   10.7295 B   0  0  0  0  0  0  0  0  0  0  0  0
    7.9873   13.8369   11.6205 H   0  0  0  0  0  0  0  0  0  0  0  0
    6.7264   16.8554    9.5702 B   0  0  0  0  0  0  0  0  0  0  0  0
    6.5373   17.9237    9.7500 H   0  0  0  0  0  0  0  0  0  0  0  0
    6.5042   16.0631    8.0071 B   0  0  0  0  0  0  0  0  0  0  0  0
    6.1790   16.5905    7.0992 H   0  0  0  0  0  0  0  0  0  0  0  0
    2.6795   12.2509    5.1322 B   0  0  0  0  0  0  0  0  0  0  0  0
    2.2649   12.5647    6.1014 H   0  0  0  0  0  0  0  0  0  0  0  0
    1.6868   12.2431    3.6499 B   0  0  0  0  0  0  0  0  0  0  0  0
    0.6252   12.5334    3.6564 H   0  0  0  0  0  0  0  0  0  0  0  0
    8.0685   16.0462   10.4156 B   0  0  0  0  0  0  0  0  0  0  0  0
    8.7104   16.5946   11.1203 H   0  0  0  0  0  0  0  0  0  0  0  0
    8.1437   16.2937    8.6571 B   0  0  0  0  0  0  0  0  0  0  0  0
    8.8521   16.9955    8.1946 H   0  0  0  0  0  0  0  0  0  0  0  0
    3.3538   17.8512    5.0176 O   0  0  0  0  0  0  0  0  0  0  0  0
    1.0677   16.3435    5.4605 O   0  0  0  0  0  0  0  0  0  0  0  0
    3.0444   16.8286    8.4539 H   0  0  0  0  0  0  0  0  0  0  0  0
  1  3  1  0  0  0  0
  2 72  1  0  0  0  0
  3 25  1  0  0  0  0
  4  5  1  0  0  0  0
  5  6  1  0  0  0  0
  7  4  1  0  0  0  0
  8  7  1  0  0  0  0
  9  8  1  0  0  0  0
 10  8  1  0  0  0  0
 11  8  1  0  0  0  0
 12  7  1  0  0  0  0
 13 12  1  0  0  0  0
 14 12  1  0  0  0  0
 15 12  1  0  0  0  0
 16  1  8  0  0  0  0
 17  1  8  0  0  0  0
 18 17  1  0  0  0  0
 19  1  8  0  0  0  0
 20 19  1  0  0  0  0
 21  1  8  0  0  0  0
 22 21  1  0  0  0  0
 23  1  8  0  0  0  0
 24 23  1  0  0  0  0
 25 26  4  0  0  0  0
 26 27  1  0  0  0  0
 28 26  4  0  0  0  0
 29 28  1  0  0  0  0
 30 28  4  0  0  0  0
 31 30  1  0  0  0  0
 32 30  4  0  0  0  0
 33 32  1  0  0  0  0
 34 25  4  0  0  0  0
 35 34  1  0  0  0  0
 36  3  1  0  0  0  0
 37 36  4  0  0  0  0
 38 37  1  0  0  0  0
 39 37  4  0  0  0  0
 40 39  1  0  0  0  0
 41 39  4  0  0  0  0
 42 41  1  0  0  0  0
 43 41  4  0  0  0  0
 44 43  1  0  0  0  0
 45 36  4  0  0  0  0
 46 45  1  0  0  0  0
 47  3  1  0  0  0  0
 48 47  4  0  0  0  0
 49 48  1  0  0  0  0
 50 48  4  0  0  0  0
 51 50  1  0  0  0  0
 52 50  4  0  0  0  0
 53 52  1  0  0  0  0
 54 52  4  0  0  0  0
 55 54  1  0  0  0  0
 56 47  4  0  0  0  0
 57 56  1  0  0  0  0
 58 59  1  0  0  0  0
 60 58  1  0  0  0  0
 61 58  1  0  0  0  0
 62 63  1  0  0  0  0
 64 62  1  0  0  0  0
 65 62  1  0  0  0  0
 66 65  1  0  0  0  0
 67 65  1  0  0  0  0
 68 69  1  0  0  0  0
 70 68  1  0  0  0  0
 71 68  1  0  0  0  0
 72  1  1  0  0  0  0
 73  2  1  0  0  0  0
 74 73  1  0  0  0  0
 75  2  1  0  0  0  0
 76 75  1  0  0  0  0
 77  4  1  0  0  0  0
 78 77  1  0  0  0  0
 79  5  1  0  0  0  0
 80 79  1  0  0  0  0
 81  2  1  0  0  0  0
 82 81  1  0  0  0  0
 83  2  1  0  0  0  0
 84 83  1  0  0  0  0
 85 75  1  0  0  0  0
 86 85  1  0  0  0  0
 87  5  1  0  0  0  0
 88 87  1  0  0  0  0
 89 79  1  0  0  0  0
 90 89  1  0  0  0  0
 91  2  1  0  0  0  0
 92  2  1  0  0  0  0
 93  1  1  0  0  0  0
 94 96  1  0  0  0  0
 95 73  1  0  0  0  0
 96118  1  0  0  0  0
 97 75  1  0  0  0  0
 98 97  1  0  0  0  0
 99 98  1  0  0  0  0
100 97  1  0  0  0  0
101100  1  0  0  0  0
102101  1  0  0  0  0
103101  1  0  0  0  0
104101  1  0  0  0  0
105100  1  0  0  0  0
106105  1  0  0  0  0
107105  1  0  0  0  0
108105  1  0  0  0  0
109 94  8  0  0  0  0
110 94  8  0  0  0  0
111110  1  0  0  0  0
112 94  8  0  0  0  0
113112  1  0  0  0  0
114 94  8  0  0  0  0
115114  1  0  0  0  0
116 94  8  0  0  0  0
117116  1  0  0  0  0
118119  4  0  0  0  0
119120  1  0  0  0  0
121119  4  0  0  0  0
122121  1  0  0  0  0
123121  4  0  0  0  0
124123  1  0  0  0  0
125123  4  0  0  0  0
126125  1  0  0  0  0
127118  4  0  0  0  0
128127  1  0  0  0  0
129 96  1  0  0  0  0
130129  4  0  0  0  0
131130  1  0  0  0  0
132130  4  0  0  0  0
133132  1  0  0  0  0
134132  4  0  0  0  0
135134  1  0  0  0  0
136134  4  0  0  0  0
137136  1  0  0  0  0
138129  4  0  0  0  0
139138  1  0  0  0  0
140 96  1  0  0  0  0
141140  4  0  0  0  0
142141  1  0  0  0  0
143141  4  0  0  0  0
144143  1  0  0  0  0
145143  4  0  0  0  0
146145  1  0  0  0  0
147145  4  0  0  0  0
148147  1  0  0  0  0
149140  4  0  0  0  0
150149  1  0  0  0  0
151152  1  0  0  0  0
153151  1  0  0  0  0
154151  1  0  0  0  0
155156  1  0  0  0  0
157155  1  0  0  0  0
158155  1  0  0  0  0
159158  1  0  0  0  0
160158  1  0  0  0  0
161162  1  0  0  0  0
163161  1  0  0  0  0
164161  1  0  0  0  0
165 94  1  0  0  0  0
166  2  1  0  0  0  0
167166  1  0  0  0  0
168  4  1  0  0  0  0
169168  1  0  0  0  0
170 75  1  0  0  0  0
171170  1  0  0  0  0
172 98  1  0  0  0  0
173172  1  0  0  0  0
174 83  1  0  0  0  0
175174  1  0  0  0  0
176 73  1  0  0  0  0
177176  1  0  0  0  0
178 77  1  0  0  0  0
179178  1  0  0  0  0
180 85  1  0  0  0  0
181180  1  0  0  0  0
182 83  1  0  0  0  0
183182  1  0  0  0  0
184 95  1  0  0  0  0
185 95  1  0  0  0  0
186 94  1  0  0  0  0
  2 93  1  0  0  0  0
  4 72  1  0  0  0  0
  4 73  1  0  0  0  0
  5 72  1  0  0  0  0
  5 77  1  0  0  0  0
  7 16  1  0  0  0  0
 16 17  4  0  0  0  0
 16 23  4  0  0  0  0
 17 19  4  0  0  0  0
 19 21  4  0  0  0  0
 21 23  4  0  0  0  0
 32 34  4  0  0  0  0
 43 45  4  0  0  0  0
 54 56  4  0  0  0  0
 58 91  1  0  0  0  0
 62 91  1  0  0  0  0
 65 92  1  0  0  0  0
 68 92  1  0  0  0  0
 72 73  1  0  0  0  0
 72 79  1  0  0  0  0
 72 81  1  0  0  0  0
 73 81  1  0  0  0  0
 73168  1  0  0  0  0
 75 83  1  0  0  0  0
 75166  1  0  0  0  0
 77 87  1  0  0  0  0
 77168  1  0  0  0  0
 79 81  1  0  0  0  0
 79 87  1  0  0  0  0
 81 89  1  0  0  0  0
 81176  1  0  0  0  0
 83 85  1  0  0  0  0
 83166  1  0  0  0  0
 85170  1  0  0  0  0
 85182  1  0  0  0  0
 87 89  1  0  0  0  0
 87178  1  0  0  0  0
 89176  1  0  0  0  0
 89178  1  0  0  0  0
 95165  1  0  0  0  0
 95166  1  0  0  0  0
 95168  1  0  0  0  0
 95174  1  0  0  0  0
 95176  1  0  0  0  0
 95186  1  0  0  0  0
 97165  1  0  0  0  0
 97166  1  0  0  0  0
 97170  1  0  0  0  0
 98165  1  0  0  0  0
 98170  1  0  0  0  0
 98180  1  0  0  0  0
100109  1  0  0  0  0
109110  4  0  0  0  0
109116  4  0  0  0  0
110112  4  0  0  0  0
112114  4  0  0  0  0
114116  4  0  0  0  0
125127  4  0  0  0  0
136138  4  0  0  0  0
147149  4  0  0  0  0
151184  1  0  0  0  0
155184  1  0  0  0  0
158185  1  0  0  0  0
161185  1  0  0  0  0
165166  1  0  0  0  0
165172  1  0  0  0  0
165174  1  0  0  0  0
166174  1  0  0  0  0
168176  1  0  0  0  0
168178  1  0  0  0  0
170180  1  0  0  0  0
172174  1  0  0  0  0
172180  1  0  0  0  0
172182  1  0  0  0  0
174182  1  0  0  0  0
176178  1  0  0  0  0
180182  1  0  0  0  0
M  END
$$$$
HOVDUR

From CSD data. Using bond type 'Any'. No disordered atoms. Largest molecule.
 74 88  0  0  0  0  0  0  0  0999 V2000
    7.8669    0.8254    4.8807 Ir  0  0  0  0  0  0  0  0  0  0  0  0
    8.7361   -0.1965    6.7869 P   0  0  0  0  0  0  0  0  0  0  0  0
    9.8734    0.9202    3.7955 P   0  0  0  0  0  0  0  0  0  0  0  0
    7.8587    2.5909    6.0984 B   0  0  0  0  0  0  0  0  0  0  0  0
    7.7551    3.0838    4.4414 B   0  0  0  0  0  0  0  0  0  0  0  0
    6.6549    3.7183    5.7148 B   0  0  0  0  0  0  0  0  0  0  0  0
    6.1777    2.0996    6.3535 B   0  0  0  0  0  0  0  0  0  0  0  0
    7.3918   -1.7740    3.3821 O   0  0  0  0  0  0  0  0  0  0  0  0
    7.5223   -0.7853    3.9468 C   0  0  0  0  0  0  0  0  0  0  0  0
    7.7730   -0.0422    8.3376 C   0  0  0  0  0  0  0  0  0  0  0  0
    7.5862    0.8938    8.5089 H   0  0  0  0  0  0  0  0  0  0  0  0
    8.2860   -0.4100    9.0736 H   0  0  0  0  0  0  0  0  0  0  0  0
    6.9389   -0.5275    8.2480 H   0  0  0  0  0  0  0  0  0  0  0  0
    8.9743   -1.9835    6.6533 C   0  0  0  0  0  0  0  0  0  0  0  0
    8.1530   -2.3965    6.3418 H   0  0  0  0  0  0  0  0  0  0  0  0
    9.2084   -2.3452    7.5217 H   0  0  0  0  0  0  0  0  0  0  0  0
    9.6869   -2.1689    6.0224 H   0  0  0  0  0  0  0  0  0  0  0  0
   10.3726    0.3587    7.3737 C   0  0  0  0  0  0  0  0  0  0  0  0
   10.3662    1.3218    7.4847 H   0  0  0  0  0  0  0  0  0  0  0  0
   11.0493    0.1115    6.7254 H   0  0  0  0  0  0  0  0  0  0  0  0
   10.5709   -0.0633    8.2246 H   0  0  0  0  0  0  0  0  0  0  0  0
   10.8830   -0.5938    3.8144 C   0  0  0  0  0  0  0  0  0  0  0  0
   10.3367   -1.3505    3.5554 H   0  0  0  0  0  0  0  0  0  0  0  0
   11.2323   -0.7385    4.7081 H   0  0  0  0  0  0  0  0  0  0  0  0
   11.6212   -0.4989    3.1933 H   0  0  0  0  0  0  0  0  0  0  0  0
    9.7137    1.1892    2.0055 C   0  0  0  0  0  0  0  0  0  0  0  0
    9.0958    0.5411    1.6356 H   0  0  0  0  0  0  0  0  0  0  0  0
   10.5811    1.0867    1.5850 H   0  0  0  0  0  0  0  0  0  0  0  0
    9.3785    2.0845    1.8420 H   0  0  0  0  0  0  0  0  0  0  0  0
   11.0442    2.2006    4.2992 C   0  0  0  0  0  0  0  0  0  0  0  0
   11.1990    2.1403    5.2553 H   0  0  0  0  0  0  0  0  0  0  0  0
   10.6809    3.0732    4.0851 H   0  0  0  0  0  0  0  0  0  0  0  0
   11.8834    2.0755    3.8280 H   0  0  0  0  0  0  0  0  0  0  0  0
    8.5713    2.8110    6.8013 H   0  0  0  0  0  0  0  0  0  0  0  0
    8.5073    3.6490    4.0072 H   0  0  0  0  0  0  0  0  0  0  0  0
    6.7944    4.7779    6.3184 H   0  0  0  0  0  0  0  0  0  0  0  0
    5.8963    1.9232    7.3991 H   0  0  0  0  0  0  0  0  0  0  0  0
    4.9261    0.8254    4.8549 Ir  0  0  0  0  0  0  0  0  0  0  0  0
    4.0569   -0.1965    2.9487 P   0  0  0  0  0  0  0  0  0  0  0  0
    5.0200   -0.0422    1.3980 C   0  0  0  0  0  0  0  0  0  0  0  0
    5.2068    0.8938    1.2267 H   0  0  0  0  0  0  0  0  0  0  0  0
    4.5070   -0.4100    0.6620 H   0  0  0  0  0  0  0  0  0  0  0  0
    5.8541   -0.5275    1.4876 H   0  0  0  0  0  0  0  0  0  0  0  0
    3.8187   -1.9835    3.0823 C   0  0  0  0  0  0  0  0  0  0  0  0
    4.6400   -2.3965    3.3938 H   0  0  0  0  0  0  0  0  0  0  0  0
    3.5846   -2.3452    2.2139 H   0  0  0  0  0  0  0  0  0  0  0  0
    3.1061   -2.1689    3.7132 H   0  0  0  0  0  0  0  0  0  0  0  0
    2.4204    0.3587    2.3619 C   0  0  0  0  0  0  0  0  0  0  0  0
    2.4268    1.3218    2.2509 H   0  0  0  0  0  0  0  0  0  0  0  0
    1.7437    0.1115    3.0102 H   0  0  0  0  0  0  0  0  0  0  0  0
    2.2221   -0.0633    1.5110 H   0  0  0  0  0  0  0  0  0  0  0  0
    2.9196    0.9202    5.9401 P   0  0  0  0  0  0  0  0  0  0  0  0
    1.9100   -0.5938    5.9212 C   0  0  0  0  0  0  0  0  0  0  0  0
    2.4563   -1.3505    6.1802 H   0  0  0  0  0  0  0  0  0  0  0  0
    1.5607   -0.7385    5.0275 H   0  0  0  0  0  0  0  0  0  0  0  0
    1.1718   -0.4989    6.5423 H   0  0  0  0  0  0  0  0  0  0  0  0
    3.0793    1.1892    7.7301 C   0  0  0  0  0  0  0  0  0  0  0  0
    3.6972    0.5411    8.1000 H   0  0  0  0  0  0  0  0  0  0  0  0
    2.2119    1.0867    8.1506 H   0  0  0  0  0  0  0  0  0  0  0  0
    3.4145    2.0845    7.8936 H   0  0  0  0  0  0  0  0  0  0  0  0
    1.7488    2.2006    5.4364 C   0  0  0  0  0  0  0  0  0  0  0  0
    1.5940    2.1403    4.4803 H   0  0  0  0  0  0  0  0  0  0  0  0
    2.1121    3.0732    5.6505 H   0  0  0  0  0  0  0  0  0  0  0  0
    0.9096    2.0755    5.9076 H   0  0  0  0  0  0  0  0  0  0  0  0
    4.9343    2.5909    3.6372 B   0  0  0  0  0  0  0  0  0  0  0  0
    5.0379    3.0838    5.2942 B   0  0  0  0  0  0  0  0  0  0  0  0
    6.6153    2.0996    3.3821 B   0  0  0  0  0  0  0  0  0  0  0  0
    5.2707   -0.7853    5.7888 C   0  0  0  0  0  0  0  0  0  0  0  0
    5.4012   -1.7740    6.3535 O   0  0  0  0  0  0  0  0  0  0  0  0
    6.1381    3.7183    4.0208 B   0  0  0  0  0  0  0  0  0  0  0  0
    5.9986    4.7779    3.4172 H   0  0  0  0  0  0  0  0  0  0  0  0
    4.2857    3.6490    5.7284 H   0  0  0  0  0  0  0  0  0  0  0  0
    6.8967    1.9232    2.3365 H   0  0  0  0  0  0  0  0  0  0  0  0
    4.2217    2.8110    2.9343 H   0  0  0  0  0  0  0  0  0  0  0  0
  1  2  1  0  0  0  0
  2 10  1  0  0  0  0
  3  1  1  0  0  0  0
  4  1  1  0  0  0  0
  5  1  1  0  0  0  0
  6  4  1  0  0  0  0
  7  1  1  0  0  0  0
  8  9  3  0  0  0  0
  9  1  1  0  0  0  0
 10 11  1  0  0  0  0
 12 10  1  0  0  0  0
 13 10  1  0  0  0  0
 14  2  1  0  0  0  0
 15 14  1  0  0  0  0
 16 14  1  0  0  0  0
 17 14  1  0  0  0  0
 18  2  1  0  0  0  0
 19 18  1  0  0  0  0
 20 18  1  0  0  0  0
 21 18  1  0  0  0  0
 22  3  1  0  0  0  0
 23 22  1  0  0  0  0
 24 22  1  0  0  0  0
 25 22  1  0  0  0  0
 26  3  1  0  0  0  0
 27 26  1  0  0  0  0
 28 26  1  0  0  0  0
 29 26  1  0  0  0  0
 30  3  1  0  0  0  0
 31 30  1  0  0  0  0
 32 30  1  0  0  0  0
 33 30  1  0  0  0  0
 34  4  1  0  0  0  0
 35  5  1  0  0  0  0
 36  6  1  0  0  0  0
 37  7  1  0  0  0  0
 38  1  1  0  0  0  0
 39 38  1  0  0  0  0
 40 39  1  0  0  0  0
 41 40  1  0  0  0  0
 42 40  1  0  0  0  0
 43 40  1  0  0  0  0
 44 39  1  0  0  0  0
 45 44  1  0  0  0  0
 46 44  1  0  0  0  0
 47 44  1  0  0  0  0
 48 39  1  0  0  0  0
 49 48  1  0  0  0  0
 50 48  1  0  0  0  0
 51 48  1  0  0  0  0
 52 38  1  0  0  0  0
 53 52  1  0  0  0  0
 54 53  1  0  0  0  0
 55 53  1  0  0  0  0
 56 53  1  0  0  0  0
 57 52  1  0  0  0  0
 58 57  1  0  0  0  0
 59 57  1  0  0  0  0
 60 57  1  0  0  0  0
 61 52  1  0  0  0  0
 62 61  1  0  0  0  0
 63 61  1  0  0  0  0
 64 61  1  0  0  0  0
 65 38  1  0  0  0  0
 66  6  1  0  0  0  0
 67  1  1  0  0  0  0
 68 38  1  0  0  0  0
 69 68  3  0  0  0  0
 70  5  1  0  0  0  0
 71 70  1  0  0  0  0
 72 66  1  0  0  0  0
 73 67  1  0  0  0  0
 74 65  1  0  0  0  0
  4  5  1  0  0  0  0
  4  7  1  0  0  0  0
  5  6  1  0  0  0  0
  5 67  1  0  0  0  0
  6  7  1  0  0  0  0
  6 70  1  0  0  0  0
  7 38  1  0  0  0  0
  7 66  1  0  0  0  0
 38 66  1  0  0  0  0
 38 67  1  0  0  0  0
 65 66  1  0  0  0  0
 65 67  1  0  0  0  0
 65 70  1  0  0  0  0
 66 70  1  0  0  0  0
 67 70  1  0  0  0  0
M  END
$$$$
HOVNIP

From CSD data. Using bond type 'Any'. No disordered atoms. Largest molecule.
145150  0  0  0  0  0  0  0  0999 V2000
   -3.0726    7.1296   13.1958 P   0  0  0  0  0  0  0  0  0  0  0  0
   -3.4923   10.2935   12.5786 P   0  0  0  0  0  0  0  0  0  0  0  0
   -2.3665    5.4823   13.9280 B   0  0  0  0  0  0  0  0  0  0  0  0
   -1.0058    5.0242   13.8439 N   0  0  0  0  0  0  0  0  0  0  0  0
   -3.3616    4.6074   14.5392 N   0  0  0  0  0  0  0  0  0  0  0  0
   -2.2005   13.0267   12.4264 N   0  0  0  0  0  0  0  0  0  0  0  0
   -4.6810   12.9233   12.6924 N   0  0  0  0  0  0  0  0  0  0  0  0
   -3.3710   12.2205   12.5706 B   0  0  0  0  0  0  0  0  0  0  0  0
   -0.4761    4.0671   14.8352 C   0  0  0  0  0  0  0  0  0  0  0  0
   -1.2667    3.7071   15.2888 H   0  0  0  0  0  0  0  0  0  0  0  0
    0.3544    4.7094   15.9401 C   0  0  0  0  0  0  0  0  0  0  0  0
   -0.1233    5.4541   16.3090 H   0  0  0  0  0  0  0  0  0  0  0  0
    1.1898    5.0129   15.5765 H   0  0  0  0  0  0  0  0  0  0  0  0
    0.5219    4.0637   16.6302 H   0  0  0  0  0  0  0  0  0  0  0  0
    0.2448    2.8474   14.2686 C   0  0  0  0  0  0  0  0  0  0  0  0
   -0.2964    2.4479   13.5838 H   0  0  0  0  0  0  0  0  0  0  0  0
    0.3966    2.2105   14.9693 H   0  0  0  0  0  0  0  0  0  0  0  0
    1.0863    3.1197   13.8944 H   0  0  0  0  0  0  0  0  0  0  0  0
   -0.1610    5.5084   12.7507 C   0  0  0  0  0  0  0  0  0  0  0  0
   -0.5807    6.3430   12.4559 H   0  0  0  0  0  0  0  0  0  0  0  0
    1.2909    5.8898   13.0878 C   0  0  0  0  0  0  0  0  0  0  0  0
    1.2981    6.4877   13.8397 H   0  0  0  0  0  0  0  0  0  0  0  0
    1.6920    6.3227   12.3324 H   0  0  0  0  0  0  0  0  0  0  0  0
    1.7876    5.0978   13.3049 H   0  0  0  0  0  0  0  0  0  0  0  0
   -0.1880    4.6009   11.5293 C   0  0  0  0  0  0  0  0  0  0  0  0
   -1.0969    4.3726   11.3210 H   0  0  0  0  0  0  0  0  0  0  0  0
    0.3091    3.8008   11.7146 H   0  0  0  0  0  0  0  0  0  0  0  0
    0.2066    5.0583   10.7826 H   0  0  0  0  0  0  0  0  0  0  0  0
   -3.4423    3.2171   14.0762 C   0  0  0  0  0  0  0  0  0  0  0  0
   -2.5349    2.9962   13.7779 H   0  0  0  0  0  0  0  0  0  0  0  0
   -4.3125    3.0490   12.8460 C   0  0  0  0  0  0  0  0  0  0  0  0
   -4.0713    3.7081   12.1912 H   0  0  0  0  0  0  0  0  0  0  0  0
   -5.2349    3.1617   13.0878 H   0  0  0  0  0  0  0  0  0  0  0  0
   -4.1831    2.1707   12.4789 H   0  0  0  0  0  0  0  0  0  0  0  0
   -3.7749    2.1623   15.1335 C   0  0  0  0  0  0  0  0  0  0  0  0
   -3.1975    2.2766   15.8925 H   0  0  0  0  0  0  0  0  0  0  0  0
   -3.6465    1.2857   14.7628 H   0  0  0  0  0  0  0  0  0  0  0  0
   -4.6887    2.2617   15.4106 H   0  0  0  0  0  0  0  0  0  0  0  0
   -4.4018    5.1565   15.4282 C   0  0  0  0  0  0  0  0  0  0  0  0
   -4.2904    6.1264   15.3312 H   0  0  0  0  0  0  0  0  0  0  0  0
   -4.1345    4.9251   16.8826 C   0  0  0  0  0  0  0  0  0  0  0  0
   -3.2116    5.1089   17.0715 H   0  0  0  0  0  0  0  0  0  0  0  0
   -4.3310    4.0121   17.1033 H   0  0  0  0  0  0  0  0  0  0  0  0
   -4.6904    5.5073   17.4069 H   0  0  0  0  0  0  0  0  0  0  0  0
   -5.8406    4.9319   15.0240 C   0  0  0  0  0  0  0  0  0  0  0  0
   -5.9420    5.1130   14.0868 H   0  0  0  0  0  0  0  0  0  0  0  0
   -6.4095    5.5192   15.5253 H   0  0  0  0  0  0  0  0  0  0  0  0
   -6.0840    4.0202   15.2023 H   0  0  0  0  0  0  0  0  0  0  0  0
   -0.9511   12.4185   11.9211 C   0  0  0  0  0  0  0  0  0  0  0  0
   -0.9957   11.4741   12.1753 H   0  0  0  0  0  0  0  0  0  0  0  0
    0.3725   12.9382   12.4965 C   0  0  0  0  0  0  0  0  0  0  0  0
    0.3337   12.9193   13.4549 H   0  0  0  0  0  0  0  0  0  0  0  0
    0.5177   13.8404   12.2000 H   0  0  0  0  0  0  0  0  0  0  0  0
    1.0937   12.3820   12.1947 H   0  0  0  0  0  0  0  0  0  0  0  0
   -0.8774   12.4297   10.3926 C   0  0  0  0  0  0  0  0  0  0  0  0
   -1.6932   12.0745   10.0307 H   0  0  0  0  0  0  0  0  0  0  0  0
   -0.1383   11.8892   10.1031 H   0  0  0  0  0  0  0  0  0  0  0  0
   -0.7543   13.3302   10.0837 H   0  0  0  0  0  0  0  0  0  0  0  0
   -2.2679   14.4816   12.6801 C   0  0  0  0  0  0  0  0  0  0  0  0
   -3.2193   14.6774   12.8036 H   0  0  0  0  0  0  0  0  0  0  0  0
   -1.8208   15.3767   11.5328 C   0  0  0  0  0  0  0  0  0  0  0  0
   -2.2726   15.1139   10.7279 H   0  0  0  0  0  0  0  0  0  0  0  0
   -0.8729   15.2903   11.4110 H   0  0  0  0  0  0  0  0  0  0  0  0
   -2.0340   16.2891   11.7375 H   0  0  0  0  0  0  0  0  0  0  0  0
   -1.6003   14.8854   13.9986 C   0  0  0  0  0  0  0  0  0  0  0  0
   -1.9185   14.3169   14.7046 H   0  0  0  0  0  0  0  0  0  0  0  0
   -1.8161   15.7982   14.1998 H   0  0  0  0  0  0  0  0  0  0  0  0
   -0.6485   14.7922   13.9174 H   0  0  0  0  0  0  0  0  0  0  0  0
   -5.5061   12.5416   13.8732 C   0  0  0  0  0  0  0  0  0  0  0  0
   -5.7587   11.5998   13.7691 H   0  0  0  0  0  0  0  0  0  0  0  0
   -4.6705   12.6599   15.1247 C   0  0  0  0  0  0  0  0  0  0  0  0
   -3.8797   12.1225   15.0346 H   0  0  0  0  0  0  0  0  0  0  0  0
   -5.1800   12.3547   15.8801 H   0  0  0  0  0  0  0  0  0  0  0  0
   -4.4199   13.5765   15.2570 H   0  0  0  0  0  0  0  0  0  0  0  0
   -6.7829   13.3507   14.0427 C   0  0  0  0  0  0  0  0  0  0  0  0
   -7.3324   13.2525   13.2625 H   0  0  0  0  0  0  0  0  0  0  0  0
   -6.5605   14.2769   14.1627 H   0  0  0  0  0  0  0  0  0  0  0  0
   -7.2617   13.0343   14.8122 H   0  0  0  0  0  0  0  0  0  0  0  0
   -5.2970   13.1290   11.3581 C   0  0  0  0  0  0  0  0  0  0  0  0
   -4.5367   12.9042   10.7826 H   0  0  0  0  0  0  0  0  0  0  0  0
   -6.2761   11.9840   10.9750 C   0  0  0  0  0  0  0  0  0  0  0  0
   -5.9058   11.1418   11.2469 H   0  0  0  0  0  0  0  0  0  0  0  0
   -6.4098   11.9826   10.0237 H   0  0  0  0  0  0  0  0  0  0  0  0
   -7.1180   12.1208   11.4163 H   0  0  0  0  0  0  0  0  0  0  0  0
   -5.5656   14.3594   10.9203 C   0  0  0  0  0  0  0  0  0  0  0  0
   -4.8479   14.9495   11.1621 H   0  0  0  0  0  0  0  0  0  0  0  0
   -6.3827   14.6688   11.3192 H   0  0  0  0  0  0  0  0  0  0  0  0
   -5.6607   14.3457    9.9654 H   0  0  0  0  0  0  0  0  0  0  0  0
   -1.7919    8.9384   13.0400 Si  0  0  0  0  0  0  0  0  0  0  0  0
   -0.8764    9.4009   14.6364 C   0  0  0  0  0  0  0  0  0  0  0  0
   -0.2860    8.4220   15.4318 C   0  0  0  0  0  0  0  0  0  0  0  0
   -0.3276    7.5365   15.1529 H   0  0  0  0  0  0  0  0  0  0  0  0
    0.3601    8.7149   16.6214 C   0  0  0  0  0  0  0  0  0  0  0  0
    0.7406    8.0325   17.1262 H   0  0  0  0  0  0  0  0  0  0  0  0
    0.4376   10.0112   17.0503 C   0  0  0  0  0  0  0  0  0  0  0  0
    0.8774   10.2177   17.8428 H   0  0  0  0  0  0  0  0  0  0  0  0
   -0.1386   11.0021   16.3037 C   0  0  0  0  0  0  0  0  0  0  0  0
   -0.0939   11.8853   16.5914 H   0  0  0  0  0  0  0  0  0  0  0  0
   -0.7909   10.6925   15.1141 C   0  0  0  0  0  0  0  0  0  0  0  0
   -1.1826   11.3803   14.6251 H   0  0  0  0  0  0  0  0  0  0  0  0
   -0.4337    8.8600   11.6964 C   0  0  0  0  0  0  0  0  0  0  0  0
    0.8318    9.4144   11.8576 C   0  0  0  0  0  0  0  0  0  0  0  0
    1.0588    9.7850   12.6801 H   0  0  0  0  0  0  0  0  0  0  0  0
    1.7612    9.4294   10.8374 C   0  0  0  0  0  0  0  0  0  0  0  0
    2.6012    9.8000   10.9821 H   0  0  0  0  0  0  0  0  0  0  0  0
    1.4471    8.9049    9.6195 C   0  0  0  0  0  0  0  0  0  0  0  0
    2.0664    8.9345    8.9258 H   0  0  0  0  0  0  0  0  0  0  0  0
    0.2132    8.3291    9.4183 C   0  0  0  0  0  0  0  0  0  0  0  0
    0.0019    7.9487    8.5958 H   0  0  0  0  0  0  0  0  0  0  0  0
   -0.7106    8.3213   10.4508 C   0  0  0  0  0  0  0  0  0  0  0  0
   -1.5459    7.9398   10.3026 H   0  0  0  0  0  0  0  0  0  0  0  0
   -4.2685    8.2724   11.2274 Li  0  0  0  0  0  0  0  0  0  0  0  0
   -5.8833    7.2750   10.6125 O   0  0  0  0  0  0  0  0  0  0  0  0
   -4.1972    8.6959    9.2130 O   0  0  0  0  0  0  0  0  0  0  0  0
   -6.3751    6.1003   11.2133 C   0  0  0  0  0  0  0  0  0  0  0  0
   -6.2617    6.1564   12.1664 H   0  0  0  0  0  0  0  0  0  0  0  0
   -5.8918    5.3424   10.8780 H   0  0  0  0  0  0  0  0  0  0  0  0
   -7.3078    6.0023   11.0086 H   0  0  0  0  0  0  0  0  0  0  0  0
   -6.0473    7.2513    9.2259 C   0  0  0  0  0  0  0  0  0  0  0  0
   -6.9875    7.1776    9.0017 H   0  0  0  0  0  0  0  0  0  0  0  0
   -5.5801    6.4891    8.8482 H   0  0  0  0  0  0  0  0  0  0  0  0
   -5.4927    8.5056    8.6875 C   0  0  0  0  0  0  0  0  0  0  0  0
   -5.4521    8.4595    7.7185 H   0  0  0  0  0  0  0  0  0  0  0  0
   -6.0615    9.2509    8.9346 H   0  0  0  0  0  0  0  0  0  0  0  0
   -3.5430    9.8347    8.6787 C   0  0  0  0  0  0  0  0  0  0  0  0
   -2.6680    9.9120    9.0670 H   0  0  0  0  0  0  0  0  0  0  0  0
   -4.0551   10.6221    8.8835 H   0  0  0  0  0  0  0  0  0  0  0  0
   -3.4652    9.7419    7.7274 H   0  0  0  0  0  0  0  0  0  0  0  0
   -4.4377    8.8843   14.4910 Li  0  0  0  0  0  0  0  0  0  0  0  0
   -4.4090    9.1747   16.4987 O   0  0  0  0  0  0  0  0  0  0  0  0
   -6.3918    8.8332   14.8864 O   0  0  0  0  0  0  0  0  0  0  0  0
   -3.3087    9.1550   17.3645 C   0  0  0  0  0  0  0  0  0  0  0  0
   -2.5007    9.2605   16.8579 H   0  0  0  0  0  0  0  0  0  0  0  0
   -3.2845    8.3162   17.8322 H   0  0  0  0  0  0  0  0  0  0  0  0
   -3.3864    9.8712   17.9981 H   0  0  0  0  0  0  0  0  0  0  0  0
   -5.6295    9.0514   17.0874 C   0  0  0  0  0  0  0  0  0  0  0  0
   -5.7269    9.7506   17.7510 H   0  0  0  0  0  0  0  0  0  0  0  0
   -5.6697    8.1992   17.5481 H   0  0  0  0  0  0  0  0  0  0  0  0
   -6.7155    9.1300   16.1784 C   0  0  0  0  0  0  0  0  0  0  0  0
   -7.4115    8.5217   16.4714 H   0  0  0  0  0  0  0  0  0  0  0  0
   -7.0804   10.0287   16.2066 H   0  0  0  0  0  0  0  0  0  0  0  0
   -7.4369    8.8824   13.9474 C   0  0  0  0  0  0  0  0  0  0  0  0
   -7.0979    8.6566   13.0790 H   0  0  0  0  0  0  0  0  0  0  0  0
   -7.8064    9.7676   13.9262 H   0  0  0  0  0  0  0  0  0  0  0  0
   -8.1213    8.2571   14.1980 H   0  0  0  0  0  0  0  0  0  0  0  0
  1  3  1  0  0  0  0
  2  8  1  0  0  0  0
  3  4  1  0  0  0  0
  4  9  1  0  0  0  0
  5  3  1  0  0  0  0
  6  8  1  0  0  0  0
  7  8  1  0  0  0  0
  9 10  1  0  0  0  0
 11  9  1  0  0  0  0
 12 11  1  0  0  0  0
 13 11  1  0  0  0  0
 14 11  1  0  0  0  0
 15  9  1  0  0  0  0
 16 15  1  0  0  0  0
 17 15  1  0  0  0  0
 18 15  1  0  0  0  0
 19  4  1  0  0  0  0
 20 19  1  0  0  0  0
 21 19  1  0  0  0  0
 22 21  1  0  0  0  0
 23 21  1  0  0  0  0
 24 21  1  0  0  0  0
 25 19  1  0  0  0  0
 26 25  1  0  0  0  0
 27 25  1  0  0  0  0
 28 25  1  0  0  0  0
 29  5  1  0  0  0  0
 30 29  1  0  0  0  0
 31 29  1  0  0  0  0
 32 31  1  0  0  0  0
 33 31  1  0  0  0  0
 34 31  1  0  0  0  0
 35 29  1  0  0  0  0
 36 35  1  0  0  0  0
 37 35  1  0  0  0  0
 38 35  1  0  0  0  0
 39  5  1  0  0  0  0
 40 39  1  0  0  0  0
 41 39  1  0  0  0  0
 42 41  1  0  0  0  0
 43 41  1  0  0  0  0
 44 41  1  0  0  0  0
 45 39  1  0  0  0  0
 46 45  1  0  0  0  0
 47 45  1  0  0  0  0
 48 45  1  0  0  0  0
 49  6  1  0  0  0  0
 50 49  1  0  0  0  0
 51 49  1  0  0  0  0
 52 51  1  0  0  0  0
 53 51  1  0  0  0  0
 54 51  1  0  0  0  0
 55 49  1  0  0  0  0
 56 55  1  0  0  0  0
 57 55  1  0  0  0  0
 58 55  1  0  0  0  0
 59  6  1  0  0  0  0
 60 59  1  0  0  0  0
 61 59  1  0  0  0  0
 62 61  1  0  0  0  0
 63 61  1  0  0  0  0
 64 61  1  0  0  0  0
 65 59  1  0  0  0  0
 66 65  1  0  0  0  0
 67 65  1  0  0  0  0
 68 65  1  0  0  0  0
 69  7  1  0  0  0  0
 70 69  1  0  0  0  0
 71 69  1  0  0  0  0
 72 71  1  0  0  0  0
 73 71  1  0  0  0  0
 74 71  1  0  0  0  0
 75 69  1  0  0  0  0
 76 75  1  0  0  0  0
 77 75  1  0  0  0  0
 78 75  1  0  0  0  0
 79  7  1  0  0  0  0
 80 79  1  0  0  0  0
 81 79  1  0  0  0  0
 82 81  1  0  0  0  0
 83 81  1  0  0  0  0
 84 81  1  0  0  0  0
 85 79  1  0  0  0  0
 86 85  1  0  0  0  0
 87 85  1  0  0  0  0
 88 85  1  0  0  0  0
 89  1  1  0  0  0  0
 90 89  1  0  0  0  0
 91 90  4  0  0  0  0
 92 91  1  0  0  0  0
 93 91  4  0  0  0  0
 94 93  1  0  0  0  0
 95 93  4  0  0  0  0
 96 95  1  0  0  0  0
 97 95  4  0  0  0  0
 98 97  1  0  0  0  0
 99 90  4  0  0  0  0
100 99  1  0  0  0  0
101 89  1  0  0  0  0
102101  4  0  0  0  0
103102  1  0  0  0  0
104102  4  0  0  0  0
105104  1  0  0  0  0
106104  4  0  0  0  0
107106  1  0  0  0  0
108106  4  0  0  0  0
109108  1  0  0  0  0
110101  4  0  0  0  0
111110  1  0  0  0  0
112  1  1  0  0  0  0
113112  1  0  0  0  0
114112  1  0  0  0  0
115113  1  0  0  0  0
116115  1  0  0  0  0
117115  1  0  0  0  0
118115  1  0  0  0  0
119113  1  0  0  0  0
120119  1  0  0  0  0
121119  1  0  0  0  0
122114  1  0  0  0  0
123122  1  0  0  0  0
124122  1  0  0  0  0
125114  1  0  0  0  0
126125  1  0  0  0  0
127125  1  0  0  0  0
128125  1  0  0  0  0
129  1  1  0  0  0  0
130129  1  0  0  0  0
131129  1  0  0  0  0
132130  1  0  0  0  0
133132  1  0  0  0  0
134132  1  0  0  0  0
135132  1  0  0  0  0
136130  1  0  0  0  0
137136  1  0  0  0  0
138136  1  0  0  0  0
139131  1  0  0  0  0
140139  1  0  0  0  0
141139  1  0  0  0  0
142131  1  0  0  0  0
143142  1  0  0  0  0
144142  1  0  0  0  0
145142  1  0  0  0  0
  2 89  1  0  0  0  0
  2112  1  0  0  0  0
  2129  1  0  0  0  0
 97 99  4  0  0  0  0
108110  4  0  0  0  0
119122  1  0  0  0  0
136139  1  0  0  0  0
M  END
$$$$
HOVNOV

From CSD data. Using bond type 'Any'. No disordered atoms. Largest molecule.
145150  0  0  0  0  0  0  0  0999 V2000
    2.5221    2.7879    4.2311 Ge  0  0  0  0  0  0  0  0  0  0  0  0
    0.7494    4.1682    3.7605 P   0  0  0  0  0  0  0  0  0  0  0  0
    1.1728    0.9347    4.3967 P   0  0  0  0  0  0  0  0  0  0  0  0
    2.0524    6.8867    3.5969 N   0  0  0  0  0  0  0  0  0  0  0  0
   -0.4242    6.7823    3.8339 N   0  0  0  0  0  0  0  0  0  0  0  0
    0.9092   -1.5877    5.7412 N   0  0  0  0  0  0  0  0  0  0  0  0
    3.2559   -1.1307    5.0441 N   0  0  0  0  0  0  0  0  0  0  0  0
    0.8904    6.0880    3.7384 B   0  0  0  0  0  0  0  0  0  0  0  0
    1.8928   -0.6987    5.1308 B   0  0  0  0  0  0  0  0  0  0  0  0
    3.4735    3.2763    5.8880 C   0  0  0  0  0  0  0  0  0  0  0  0
    4.0325    2.3051    6.6948 C   0  0  0  0  0  0  0  0  0  0  0  0
    3.9847    1.4150    6.4259 H   0  0  0  0  0  0  0  0  0  0  0  0
    4.6605    2.6107    7.8890 C   0  0  0  0  0  0  0  0  0  0  0  0
    5.0305    1.9344    8.4092 H   0  0  0  0  0  0  0  0  0  0  0  0
    4.7338    3.9020    8.3012 C   0  0  0  0  0  0  0  0  0  0  0  0
    5.1520    4.1144    9.1045 H   0  0  0  0  0  0  0  0  0  0  0  0
    4.1946    4.8805    7.5352 C   0  0  0  0  0  0  0  0  0  0  0  0
    4.2519    5.7671    7.8112 H   0  0  0  0  0  0  0  0  0  0  0  0
    3.5551    4.5681    6.3392 C   0  0  0  0  0  0  0  0  0  0  0  0
    3.1732    5.2513    5.8349 H   0  0  0  0  0  0  0  0  0  0  0  0
    3.9199    2.7033    2.8414 C   0  0  0  0  0  0  0  0  0  0  0  0
    5.1695    3.2801    2.9882 C   0  0  0  0  0  0  0  0  0  0  0  0
    5.3918    3.6774    3.8003 H   0  0  0  0  0  0  0  0  0  0  0  0
    6.0980    3.2812    1.9550 C   0  0  0  0  0  0  0  0  0  0  0  0
    6.9372    3.6598    2.0859 H   0  0  0  0  0  0  0  0  0  0  0  0
    5.7841    2.7301    0.7537 C   0  0  0  0  0  0  0  0  0  0  0  0
    6.3959    2.7625    0.0531 H   0  0  0  0  0  0  0  0  0  0  0  0
    4.5741    2.1325    0.5750 C   0  0  0  0  0  0  0  0  0  0  0  0
    4.3659    1.7312   -0.2388 H   0  0  0  0  0  0  0  0  0  0  0  0
    3.6506    2.1251    1.6153 C   0  0  0  0  0  0  0  0  0  0  0  0
    2.8259    1.7171    1.4826 H   0  0  0  0  0  0  0  0  0  0  0  0
    1.9838    8.3470    3.8622 C   0  0  0  0  0  0  0  0  0  0  0  0
    1.0314    8.5477    3.9843 H   0  0  0  0  0  0  0  0  0  0  0  0
    2.4458    9.2327    2.7016 C   0  0  0  0  0  0  0  0  0  0  0  0
    1.9937    8.9684    1.8966 H   0  0  0  0  0  0  0  0  0  0  0  0
    3.3938    9.1358    2.5831 H   0  0  0  0  0  0  0  0  0  0  0  0
    2.2407   10.1495    2.8980 H   0  0  0  0  0  0  0  0  0  0  0  0
    2.6571    8.7607    5.1609 C   0  0  0  0  0  0  0  0  0  0  0  0
    2.3175    8.2239    5.8827 H   0  0  0  0  0  0  0  0  0  0  0  0
    2.4726    9.6865    5.3360 H   0  0  0  0  0  0  0  0  0  0  0  0
    3.6057    8.6315    5.0848 H   0  0  0  0  0  0  0  0  0  0  0  0
    3.3064    6.2848    3.0979 C   0  0  0  0  0  0  0  0  0  0  0  0
    3.2623    5.3411    3.3562 H   0  0  0  0  0  0  0  0  0  0  0  0
    4.6252    6.8070    3.6800 C   0  0  0  0  0  0  0  0  0  0  0  0
    4.5883    6.7708    4.6389 H   0  0  0  0  0  0  0  0  0  0  0  0
    4.7632    7.7149    3.3987 H   0  0  0  0  0  0  0  0  0  0  0  0
    5.3506    6.2615    3.3686 H   0  0  0  0  0  0  0  0  0  0  0  0
    3.3854    6.2859    1.5835 C   0  0  0  0  0  0  0  0  0  0  0  0
    2.5706    5.9311    1.2208 H   0  0  0  0  0  0  0  0  0  0  0  0
    4.1254    5.7418    1.3022 H   0  0  0  0  0  0  0  0  0  0  0  0
    3.5112    7.1842    1.2703 H   0  0  0  0  0  0  0  0  0  0  0  0
   -1.2723    6.4329    5.0211 C   0  0  0  0  0  0  0  0  0  0  0  0
   -1.5278    5.4907    4.9273 H   0  0  0  0  0  0  0  0  0  0  0  0
   -0.4529    6.5483    6.2755 C   0  0  0  0  0  0  0  0  0  0  0  0
    0.3367    6.0090    6.1923 H   0  0  0  0  0  0  0  0  0  0  0  0
   -0.9712    6.2468    7.0239 H   0  0  0  0  0  0  0  0  0  0  0  0
   -0.2020    7.4656    6.4082 H   0  0  0  0  0  0  0  0  0  0  0  0
   -2.5151    7.2110    5.1662 C   0  0  0  0  0  0  0  0  0  0  0  0
   -3.0663    7.0803    4.3912 H   0  0  0  0  0  0  0  0  0  0  0  0
   -2.3009    8.1424    5.2546 H   0  0  0  0  0  0  0  0  0  0  0  0
   -2.9884    6.9161    5.9482 H   0  0  0  0  0  0  0  0  0  0  0  0
   -0.9900    7.0028    2.4663 C   0  0  0  0  0  0  0  0  0  0  0  0
   -0.2213    6.8181    1.8860 H   0  0  0  0  0  0  0  0  0  0  0  0
   -1.3314    8.2334    2.1072 C   0  0  0  0  0  0  0  0  0  0  0  0
   -0.9693    8.4267    1.2402 H   0  0  0  0  0  0  0  0  0  0  0  0
   -0.9857    8.8612    2.7458 H   0  0  0  0  0  0  0  0  0  0  0  0
   -2.2887    8.3038    2.0771 H   0  0  0  0  0  0  0  0  0  0  0  0
   -1.9713    5.8679    2.0948 C   0  0  0  0  0  0  0  0  0  0  0  0
   -2.4527    6.1093    1.2986 H   0  0  0  0  0  0  0  0  0  0  0  0
   -2.5911    5.7324    2.8148 H   0  0  0  0  0  0  0  0  0  0  0  0
   -1.4788    5.0586    1.9373 H   0  0  0  0  0  0  0  0  0  0  0  0
    0.8457   -2.9638    5.2458 C   0  0  0  0  0  0  0  0  0  0  0  0
    1.7550   -3.1726    4.9450 H   0  0  0  0  0  0  0  0  0  0  0  0
    0.5109   -4.0306    6.2843 C   0  0  0  0  0  0  0  0  0  0  0  0
    1.1030   -3.9439    7.0345 H   0  0  0  0  0  0  0  0  0  0  0  0
    0.6151   -4.9018    5.8933 H   0  0  0  0  0  0  0  0  0  0  0  0
   -0.3969   -3.9182    6.5780 H   0  0  0  0  0  0  0  0  0  0  0  0
   -0.0284   -3.1226    4.0179 C   0  0  0  0  0  0  0  0  0  0  0  0
    0.2079   -2.4564    3.3686 H   0  0  0  0  0  0  0  0  0  0  0  0
   -0.9495   -3.0171    4.2656 H   0  0  0  0  0  0  0  0  0  0  0  0
    0.1040   -3.9968    3.6429 H   0  0  0  0  0  0  0  0  0  0  0  0
   -0.1347   -1.0616    6.6187 C   0  0  0  0  0  0  0  0  0  0  0  0
   -0.0143   -0.0944    6.5249 H   0  0  0  0  0  0  0  0  0  0  0  0
   -1.5614   -1.2374    6.2242 C   0  0  0  0  0  0  0  0  0  0  0  0
   -1.6637   -1.0267    5.2935 H   0  0  0  0  0  0  0  0  0  0  0  0
   -2.1127   -0.6520    6.7479 H   0  0  0  0  0  0  0  0  0  0  0  0
   -1.8265   -2.1470    6.3763 H   0  0  0  0  0  0  0  0  0  0  0  0
    0.1398   -1.2683    8.0624 C   0  0  0  0  0  0  0  0  0  0  0  0
    1.0610   -1.0692    8.2446 H   0  0  0  0  0  0  0  0  0  0  0  0
   -0.0415   -2.1815    8.2959 H   0  0  0  0  0  0  0  0  0  0  0  0
   -0.4206   -0.6880    8.5808 H   0  0  0  0  0  0  0  0  0  0  0  0
    3.7922   -2.0973    6.0366 C   0  0  0  0  0  0  0  0  0  0  0  0
    3.0046   -2.4726    6.4842 H   0  0  0  0  0  0  0  0  0  0  0  0
    4.6134   -1.4420    7.1495 C   0  0  0  0  0  0  0  0  0  0  0  0
    4.1217   -0.7066    7.5192 H   0  0  0  0  0  0  0  0  0  0  0  0
    5.4429   -1.1214    6.7868 H   0  0  0  0  0  0  0  0  0  0  0  0
    4.7922   -2.0867    7.8377 H   0  0  0  0  0  0  0  0  0  0  0  0
    4.5433   -3.2941    5.4758 C   0  0  0  0  0  0  0  0  0  0  0  0
    3.9954   -3.7393    4.8247 H   0  0  0  0  0  0  0  0  0  0  0  0
    4.7534   -3.9030    6.1870 H   0  0  0  0  0  0  0  0  0  0  0  0
    5.3549   -2.9950    5.0582 H   0  0  0  0  0  0  0  0  0  0  0  0
    4.0979   -0.6424    3.9489 C   0  0  0  0  0  0  0  0  0  0  0  0
    3.6695    0.1838    3.6393 H   0  0  0  0  0  0  0  0  0  0  0  0
    5.5371   -0.2543    4.2869 C   0  0  0  0  0  0  0  0  0  0  0  0
    5.5380    0.3552    5.0282 H   0  0  0  0  0  0  0  0  0  0  0  0
    5.9414    0.1682    3.5243 H   0  0  0  0  0  0  0  0  0  0  0  0
    6.0342   -1.0421    4.5186 H   0  0  0  0  0  0  0  0  0  0  0  0
    4.1012   -1.5745    2.7441 C   0  0  0  0  0  0  0  0  0  0  0  0
    5.0040   -1.7089    2.4451 H   0  0  0  0  0  0  0  0  0  0  0  0
    3.5837   -1.1855    2.0364 H   0  0  0  0  0  0  0  0  0  0  0  0
    3.7191   -2.4201    2.9918 H   0  0  0  0  0  0  0  0  0  0  0  0
   -0.1856    2.7429    5.6704 Li  0  0  0  0  0  0  0  0  0  0  0  0
   -0.0081    2.1231    2.4238 Li  0  0  0  0  0  0  0  0  0  0  0  0
   -0.1318    3.0406    7.6909 O   0  0  0  0  0  0  0  0  0  0  0  0
   -2.1327    2.6881    6.0791 O   0  0  0  0  0  0  0  0  0  0  0  0
    0.1208    2.4987    0.4103 O   0  0  0  0  0  0  0  0  0  0  0  0
   -1.6072    1.1298    1.7958 O   0  0  0  0  0  0  0  0  0  0  0  0
   -1.3351    2.9134    8.2659 C   0  0  0  0  0  0  0  0  0  0  0  0
   -1.4408    3.6228    8.9205 H   0  0  0  0  0  0  0  0  0  0  0  0
   -1.3627    2.0696    8.7435 H   0  0  0  0  0  0  0  0  0  0  0  0
   -2.4349    2.9602    7.3724 C   0  0  0  0  0  0  0  0  0  0  0  0
   -3.1042    2.3261    7.6732 H   0  0  0  0  0  0  0  0  0  0  0  0
   -2.8316    3.8451    7.4166 H   0  0  0  0  0  0  0  0  0  0  0  0
    0.9522    3.0379    8.5365 C   0  0  0  0  0  0  0  0  0  0  0  0
    1.7602    3.0945    8.0217 H   0  0  0  0  0  0  0  0  0  0  0  0
    0.9556    2.2258    9.0496 H   0  0  0  0  0  0  0  0  0  0  0  0
    0.8964    3.7896    9.1310 H   0  0  0  0  0  0  0  0  0  0  0  0
   -3.1836    2.7352    5.1520 C   0  0  0  0  0  0  0  0  0  0  0  0
   -2.8599    2.4639    4.2886 H   0  0  0  0  0  0  0  0  0  0  0  0
   -3.5244    3.6310    5.0989 H   0  0  0  0  0  0  0  0  0  0  0  0
   -3.8835    2.1413    5.4315 H   0  0  0  0  0  0  0  0  0  0  0  0
   -1.1583    2.3088   -0.1451 C   0  0  0  0  0  0  0  0  0  0  0  0
   -1.0948    2.2374   -1.1111 H   0  0  0  0  0  0  0  0  0  0  0  0
   -1.7296    3.0635    0.0690 H   0  0  0  0  0  0  0  0  0  0  0  0
   -1.7263    1.0685    0.4175 C   0  0  0  0  0  0  0  0  0  0  0  0
   -2.6603    0.9858    0.1663 H   0  0  0  0  0  0  0  0  0  0  0  0
   -1.2481    0.2982    0.0743 H   0  0  0  0  0  0  0  0  0  0  0  0
    0.8008    3.6327   -0.1433 C   0  0  0  0  0  0  0  0  0  0  0  0
    1.6833    3.6908    0.2318 H   0  0  0  0  0  0  0  0  0  0  0  0
    0.3111    4.4314    0.0655 H   0  0  0  0  0  0  0  0  0  0  0  0
    0.8640    3.5345   -1.0952 H   0  0  0  0  0  0  0  0  0  0  0  0
   -2.1363   -0.0064    2.4309 C   0  0  0  0  0  0  0  0  0  0  0  0
   -2.0157    0.0722    3.3810 H   0  0  0  0  0  0  0  0  0  0  0  0
   -1.6838   -0.7906    2.1142 H   0  0  0  0  0  0  0  0  0  0  0  0
   -3.0734   -0.0760    2.2328 H   0  0  0  0  0  0  0  0  0  0  0  0
  1  2  1  0  0  0  0
  2  8  1  0  0  0  0
  3  1  1  0  0  0  0
  4  8  1  0  0  0  0
  5  8  1  0  0  0  0
  6  9  1  0  0  0  0
  7  9  1  0  0  0  0
  9  3  1  0  0  0  0
 10  1  1  0  0  0  0
 11 10  4  0  0  0  0
 12 11  1  0  0  0  0
 13 11  4  0  0  0  0
 14 13  1  0  0  0  0
 15 13  4  0  0  0  0
 16 15  1  0  0  0  0
 17 15  4  0  0  0  0
 18 17  1  0  0  0  0
 19 10  4  0  0  0  0
 20 19  1  0  0  0  0
 21  1  1  0  0  0  0
 22 21  4  0  0  0  0
 23 22  1  0  0  0  0
 24 22  4  0  0  0  0
 25 24  1  0  0  0  0
 26 24  4  0  0  0  0
 27 26  1  0  0  0  0
 28 26  4  0  0  0  0
 29 28  1  0  0  0  0
 30 21  4  0  0  0  0
 31 30  1  0  0  0  0
 32  4  1  0  0  0  0
 33 32  1  0  0  0  0
 34 32  1  0  0  0  0
 35 34  1  0  0  0  0
 36 34  1  0  0  0  0
 37 34  1  0  0  0  0
 38 32  1  0  0  0  0
 39 38  1  0  0  0  0
 40 38  1  0  0  0  0
 41 38  1  0  0  0  0
 42  4  1  0  0  0  0
 43 42  1  0  0  0  0
 44 42  1  0  0  0  0
 45 44  1  0  0  0  0
 46 44  1  0  0  0  0
 47 44  1  0  0  0  0
 48 42  1  0  0  0  0
 49 48  1  0  0  0  0
 50 48  1  0  0  0  0
 51 48  1  0  0  0  0
 52  5  1  0  0  0  0
 53 52  1  0  0  0  0
 54 52  1  0  0  0  0
 55 54  1  0  0  0  0
 56 54  1  0  0  0  0
 57 54  1  0  0  0  0
 58 52  1  0  0  0  0
 59 58  1  0  0  0  0
 60 58  1  0  0  0  0
 61 58  1  0  0  0  0
 62  5  1  0  0  0  0
 63 62  1  0  0  0  0
 64 62  1  0  0  0  0
 65 64  1  0  0  0  0
 66 64  1  0  0  0  0
 67 64  1  0  0  0  0
 68 62  1  0  0  0  0
 69 68  1  0  0  0  0
 70 68  1  0  0  0  0
 71 68  1  0  0  0  0
 72  6  1  0  0  0  0
 73 72  1  0  0  0  0
 74 72  1  0  0  0  0
 75 74  1  0  0  0  0
 76 74  1  0  0  0  0
 77 74  1  0  0  0  0
 78 72  1  0  0  0  0
 79 78  1  0  0  0  0
 80 78  1  0  0  0  0
 81 78  1  0  0  0  0
 82  6  1  0  0  0  0
 83 82  1  0  0  0  0
 84 82  1  0  0  0  0
 85 84  1  0  0  0  0
 86 84  1  0  0  0  0
 87 84  1  0  0  0  0
 88 82  1  0  0  0  0
 89 88  1  0  0  0  0
 90 88  1  0  0  0  0
 91 88  1  0  0  0  0
 92  7  1  0  0  0  0
 93 92  1  0  0  0  0
 94 92  1  0  0  0  0
 95 94  1  0  0  0  0
 96 94  1  0  0  0  0
 97 94  1  0  0  0  0
 98 92  1  0  0  0  0
 99 98  1  0  0  0  0
100 98  1  0  0  0  0
101 98  1  0  0  0  0
102  7  1  0  0  0  0
103102  1  0  0  0  0
104102  1  0  0  0  0
105104  1  0  0  0  0
106104  1  0  0  0  0
107104  1  0  0  0  0
108102  1  0  0  0  0
109108  1  0  0  0  0
110108  1  0  0  0  0
111108  1  0  0  0  0
112  2  1  0  0  0  0
113  2  1  0  0  0  0
114112  1  0  0  0  0
115112  1  0  0  0  0
116113  1  0  0  0  0
117113  1  0  0  0  0
118114  1  0  0  0  0
119118  1  0  0  0  0
120118  1  0  0  0  0
121115  1  0  0  0  0
122121  1  0  0  0  0
123121  1  0  0  0  0
124114  1  0  0  0  0
125124  1  0  0  0  0
126124  1  0  0  0  0
127124  1  0  0  0  0
128115  1  0  0  0  0
129128  1  0  0  0  0
130128  1  0  0  0  0
131128  1  0  0  0  0
132116  1  0  0  0  0
133132  1  0  0  0  0
134132  1  0  0  0  0
135117  1  0  0  0  0
136135  1  0  0  0  0
137135  1  0  0  0  0
138116  1  0  0  0  0
139138  1  0  0  0  0
140138  1  0  0  0  0
141138  1  0  0  0  0
142117  1  0  0  0  0
143142  1  0  0  0  0
144142  1  0  0  0  0
145142  1  0  0  0  0
  3112  1  0  0  0  0
  3113  1  0  0  0  0
 17 19  4  0  0  0  0
 28 30  4  0  0  0  0
118121  1  0  0  0  0
132135  1  0  0  0  0
M  END
$$$$
HOVNUB

From CSD data. Using bond type 'Any'. No disordered atoms. Largest molecule.
157162  0  0  0  0  0  0  0  0999 V2000
    3.9505    7.3364    7.4879 P   0  0  0  0  0  0  0  0  0  0  0  0
    6.0525    4.7892    7.4528 P   0  0  0  0  0  0  0  0  0  0  0  0
    5.0171    6.0930    5.9751 Si  0  0  0  0  0  0  0  0  0  0  0  0
    2.2934   10.1526    9.3649 Si  0  0  0  0  0  0  0  0  0  0  0  0
    0.2745    8.1295    8.3134 Si  0  0  0  0  0  0  0  0  0  0  0  0
    9.0035    2.3928    8.7653 Si  0  0  0  0  0  0  0  0  0  0  0  0
    6.1933    1.3033    8.6160 Si  0  0  0  0  0  0  0  0  0  0  0  0
    2.6738    8.7252    7.0261 B   0  0  0  0  0  0  0  0  0  0  0  0
    7.1515    3.2900    6.8887 B   0  0  0  0  0  0  0  0  0  0  0  0
    1.7300    9.0516    8.1538 N   0  0  0  0  0  0  0  0  0  0  0  0
    2.5616    9.4441    5.8075 N   0  0  0  0  0  0  0  0  0  0  0  0
    7.4428    2.3312    8.0134 N   0  0  0  0  0  0  0  0  0  0  0  0
    7.6965    3.0106    5.5970 N   0  0  0  0  0  0  0  0  0  0  0  0
    6.0597    7.0410    3.4179 C   0  0  0  0  0  0  0  0  0  0  0  0
    5.3666    6.5629    3.0227 H   0  0  0  0  0  0  0  0  0  0  0  0
    6.9448    7.7495    2.6189 C   0  0  0  0  0  0  0  0  0  0  0  0
    6.8477    7.7299    1.6952 H   0  0  0  0  0  0  0  0  0  0  0  0
    7.9608    8.4776    3.1812 C   0  0  0  0  0  0  0  0  0  0  0  0
    8.5399    8.9655    2.6422 H   0  0  0  0  0  0  0  0  0  0  0  0
    8.1148    8.4801    4.5403 C   0  0  0  0  0  0  0  0  0  0  0  0
    8.8065    8.9680    4.9250 H   0  0  0  0  0  0  0  0  0  0  0  0
    7.2471    7.7569    5.3414 C   0  0  0  0  0  0  0  0  0  0  0  0
    7.3733    7.7569    6.2630 H   0  0  0  0  0  0  0  0  0  0  0  0
    6.1941    7.0336    4.8024 C   0  0  0  0  0  0  0  0  0  0  0  0
    4.0765    3.7902    4.4959 C   0  0  0  0  0  0  0  0  0  0  0  0
    4.8763    3.3955    4.7601 H   0  0  0  0  0  0  0  0  0  0  0  0
    3.1560    3.0522    3.7582 C   0  0  0  0  0  0  0  0  0  0  0  0
    3.3539    2.1770    3.5194 H   0  0  0  0  0  0  0  0  0  0  0  0
    1.9667    3.6014    3.3841 C   0  0  0  0  0  0  0  0  0  0  0  0
    1.3481    3.0988    2.9043 H   0  0  0  0  0  0  0  0  0  0  0  0
    1.6873    4.9057    3.7181 C   0  0  0  0  0  0  0  0  0  0  0  0
    0.8815    5.2881    3.4539 H   0  0  0  0  0  0  0  0  0  0  0  0
    2.5961    5.6460    4.4431 C   0  0  0  0  0  0  0  0  0  0  0  0
    2.3841    6.5237    4.6693 H   0  0  0  0  0  0  0  0  0  0  0  0
    3.8184    5.1248    4.8489 C   0  0  0  0  0  0  0  0  0  0  0  0
    3.4039   11.4196    8.6220 C   0  0  0  0  0  0  0  0  0  0  0  0
    4.1495   10.9856    8.2034 H   0  0  0  0  0  0  0  0  0  0  0  0
    3.7224   12.0079    9.3089 H   0  0  0  0  0  0  0  0  0  0  0  0
    2.9179   11.9246    7.9667 H   0  0  0  0  0  0  0  0  0  0  0  0
    3.2332    9.3038   10.7251 C   0  0  0  0  0  0  0  0  0  0  0  0
    3.9701    8.8160   10.3489 H   0  0  0  0  0  0  0  0  0  0  0  0
    2.6497    8.6958   11.1859 H   0  0  0  0  0  0  0  0  0  0  0  0
    3.5646    9.9584   11.3423 H   0  0  0  0  0  0  0  0  0  0  0  0
    0.8880   11.0788   10.1819 C   0  0  0  0  0  0  0  0  0  0  0  0
    0.2883   10.4512   10.5941 H   0  0  0  0  0  0  0  0  0  0  0  0
    0.4128   11.5863    9.5203 H   0  0  0  0  0  0  0  0  0  0  0  0
    1.2402   11.6721   10.8498 H   0  0  0  0  0  0  0  0  0  0  0  0
    0.1683    6.8204    7.0176 C   0  0  0  0  0  0  0  0  0  0  0  0
    0.2129    7.2273    6.1489 H   0  0  0  0  0  0  0  0  0  0  0  0
   -0.6616    6.3472    7.1064 H   0  0  0  0  0  0  0  0  0  0  0  0
    0.8994    6.2075    7.1212 H   0  0  0  0  0  0  0  0  0  0  0  0
    0.1800    7.2862    9.9769 C   0  0  0  0  0  0  0  0  0  0  0  0
    0.2234    7.9456   10.6723 H   0  0  0  0  0  0  0  0  0  0  0  0
    0.9144    6.6757   10.0699 H   0  0  0  0  0  0  0  0  0  0  0  0
   -0.6468    6.8032   10.0445 H   0  0  0  0  0  0  0  0  0  0  0  0
   -1.2549    9.2107    8.1252 C   0  0  0  0  0  0  0  0  0  0  0  0
   -1.2316    9.9118    8.7784 H   0  0  0  0  0  0  0  0  0  0  0  0
   -2.0414    8.6762    8.2584 H   0  0  0  0  0  0  0  0  0  0  0  0
   -1.2703    9.5907    7.2459 H   0  0  0  0  0  0  0  0  0  0  0  0
    1.4709   10.4340    5.6056 C   0  0  0  0  0  0  0  0  0  0  0  0
    1.0585   10.5492    6.4871 H   0  0  0  0  0  0  0  0  0  0  0  0
    1.9347   11.8339    5.1871 C   0  0  0  0  0  0  0  0  0  0  0  0
    2.6190   12.1379    5.7895 H   0  0  0  0  0  0  0  0  0  0  0  0
    1.1908   12.4394    5.2167 H   0  0  0  0  0  0  0  0  0  0  0  0
    2.2860   11.8020    4.2951 H   0  0  0  0  0  0  0  0  0  0  0  0
    0.3410    9.9461    4.6883 C   0  0  0  0  0  0  0  0  0  0  0  0
    0.0496    9.0783    4.9758 H   0  0  0  0  0  0  0  0  0  0  0  0
    0.6611    9.8947    3.7857 H   0  0  0  0  0  0  0  0  0  0  0  0
   -0.3939   10.5615    4.7327 H   0  0  0  0  0  0  0  0  0  0  0  0
    3.5926    9.2918    4.7559 C   0  0  0  0  0  0  0  0  0  0  0  0
    4.0054    8.4188    4.9271 H   0  0  0  0  0  0  0  0  0  0  0  0
    3.0768    9.2131    3.3207 C   0  0  0  0  0  0  0  0  0  0  0  0
    2.3928    8.5414    3.2615 H   0  0  0  0  0  0  0  0  0  0  0  0
    3.8007    8.9851    2.7331 H   0  0  0  0  0  0  0  0  0  0  0  0
    2.7139   10.0638    3.0628 H   0  0  0  0  0  0  0  0  0  0  0  0
    4.7182   10.2918    4.8743 C   0  0  0  0  0  0  0  0  0  0  0  0
    5.0424   10.3016    5.7790 H   0  0  0  0  0  0  0  0  0  0  0  0
    4.3954   11.1646    4.6418 H   0  0  0  0  0  0  0  0  0  0  0  0
    5.4302   10.0442    4.2803 H   0  0  0  0  0  0  0  0  0  0  0  0
    9.7901    4.0500    8.4402 C   0  0  0  0  0  0  0  0  0  0  0  0
    9.8662    4.1873    7.4932 H   0  0  0  0  0  0  0  0  0  0  0  0
   10.6643    4.0721    8.8376 H   0  0  0  0  0  0  0  0  0  0  0  0
    9.2470    4.7438    8.8207 H   0  0  0  0  0  0  0  0  0  0  0  0
    8.8936    2.1623   10.6131 C   0  0  0  0  0  0  0  0  0  0  0  0
    8.2945    2.8144   10.9809 H   0  0  0  0  0  0  0  0  0  0  0  0
    9.7651    2.2726   10.9999 H   0  0  0  0  0  0  0  0  0  0  0  0
    8.5678    1.2797   10.8055 H   0  0  0  0  0  0  0  0  0  0  0  0
   10.1996    1.0615    8.2119 C   0  0  0  0  0  0  0  0  0  0  0  0
   10.3115    1.1057    7.2586 H   0  0  0  0  0  0  0  0  0  0  0  0
    9.8520    0.1986    8.4529 H   0  0  0  0  0  0  0  0  0  0  0  0
   11.0486    1.1939    8.6389 H   0  0  0  0  0  0  0  0  0  0  0  0
    4.8245    1.1498    7.3812 C   0  0  0  0  0  0  0  0  0  0  0  0
    4.4405    2.0152    7.2205 H   0  0  0  0  0  0  0  0  0  0  0  0
    4.1506    0.5590    7.7236 H   0  0  0  0  0  0  0  0  0  0  0  0
    5.1735    0.7968    6.5589 H   0  0  0  0  0  0  0  0  0  0  0  0
    6.8621   -0.4266    8.8883 C   0  0  0  0  0  0  0  0  0  0  0  0
    7.5704   -0.3972    9.5372 H   0  0  0  0  0  0  0  0  0  0  0  0
    7.2017   -0.7723    8.0597 H   0  0  0  0  0  0  0  0  0  0  0  0
    6.1579   -0.9953    9.2096 H   0  0  0  0  0  0  0  0  0  0  0  0
    5.4360    1.8583   10.2326 C   0  0  0  0  0  0  0  0  0  0  0  0
    5.0691    2.7409   10.1291 H   0  0  0  0  0  0  0  0  0  0  0  0
    6.1111    1.8730   10.9154 H   0  0  0  0  0  0  0  0  0  0  0  0
    4.7384    1.2503   10.4863 H   0  0  0  0  0  0  0  0  0  0  0  0
    7.7499    4.0721    4.5678 C   0  0  0  0  0  0  0  0  0  0  0  0
    7.0526    4.7120    4.8257 H   0  0  0  0  0  0  0  0  0  0  0  0
    9.0373    4.8640    4.5889 C   0  0  0  0  0  0  0  0  0  0  0  0
    9.2291    5.1386    5.4873 H   0  0  0  0  0  0  0  0  0  0  0  0
    8.9462    5.6387    4.0288 H   0  0  0  0  0  0  0  0  0  0  0  0
    9.7548    4.3148    4.2613 H   0  0  0  0  0  0  0  0  0  0  0  0
    7.3949    3.6455    3.1347 C   0  0  0  0  0  0  0  0  0  0  0  0
    6.5753    3.1454    3.1431 H   0  0  0  0  0  0  0  0  0  0  0  0
    8.1000    3.0988    2.7796 H   0  0  0  0  0  0  0  0  0  0  0  0
    7.2884    4.4251    2.5851 H   0  0  0  0  0  0  0  0  0  0  0  0
    8.2857    1.6744    5.3013 C   0  0  0  0  0  0  0  0  0  0  0  0
    8.3666    1.2160    6.1637 H   0  0  0  0  0  0  0  0  0  0  0  0
    7.3659    0.7992    4.4367 C   0  0  0  0  0  0  0  0  0  0  0  0
    6.4883    0.7772    4.8236 H   0  0  0  0  0  0  0  0  0  0  0  0
    7.7195   -0.0932    4.3945 H   0  0  0  0  0  0  0  0  0  0  0  0
    7.3148    1.1645    3.5511 H   0  0  0  0  0  0  0  0  0  0  0  0
    9.7137    1.7235    4.7031 C   0  0  0  0  0  0  0  0  0  0  0  0
   10.2812    2.2506    5.2696 H   0  0  0  0  0  0  0  0  0  0  0  0
    9.6819    2.1157    3.8280 H   0  0  0  0  0  0  0  0  0  0  0  0
   10.0645    0.8311    4.6397 H   0  0  0  0  0  0  0  0  0  0  0  0
    3.6407    5.0454    8.5205 Li  0  0  0  0  0  0  0  0  0  0  0  0
    6.2115    7.0900    8.7065 Li  0  0  0  0  0  0  0  0  0  0  0  0
    3.5513    5.4867   11.6129 C   0  0  0  0  0  0  0  0  0  0  0  0
    4.2768    6.0800   11.4036 H   0  0  0  0  0  0  0  0  0  0  0  0
    3.8321    4.8615   12.2851 H   0  0  0  0  0  0  0  0  0  0  0  0
    2.8064    5.9966   11.9405 H   0  0  0  0  0  0  0  0  0  0  0  0
    3.1675    4.7870   10.4499 O   0  0  0  0  0  0  0  0  0  0  0  0
    2.1126    3.8637   10.6638 C   0  0  0  0  0  0  0  0  0  0  0  0
    1.3361    4.3320   11.0063 H   0  0  0  0  0  0  0  0  0  0  0  0
    2.3845    3.2091   11.3276 H   0  0  0  0  0  0  0  0  0  0  0  0
    1.7609    3.1846    9.4315 C   0  0  0  0  0  0  0  0  0  0  0  0
    2.1605    2.2996    9.4505 H   0  0  0  0  0  0  0  0  0  0  0  0
    0.7988    3.0645    9.4188 H   0  0  0  0  0  0  0  0  0  0  0  0
    2.1097    3.7554    8.3176 O   0  0  0  0  0  0  0  0  0  0  0  0
    1.6077    3.1822    7.1254 C   0  0  0  0  0  0  0  0  0  0  0  0
    1.9394    3.6749    6.3708 H   0  0  0  0  0  0  0  0  0  0  0  0
    0.6485    3.2165    7.1339 H   0  0  0  0  0  0  0  0  0  0  0  0
    1.8948    2.2702    7.0641 H   0  0  0  0  0  0  0  0  0  0  0  0
    7.1075    5.4818   11.0993 C   0  0  0  0  0  0  0  0  0  0  0  0
    6.4208    4.8787   10.8076 H   0  0  0  0  0  0  0  0  0  0  0  0
    7.1070    5.5308   12.0568 H   0  0  0  0  0  0  0  0  0  0  0  0
    7.9623    5.1655   10.7949 H   0  0  0  0  0  0  0  0  0  0  0  0
    6.8602    6.7841   10.5552 O   0  0  0  0  0  0  0  0  0  0  0  0
    7.8504    7.7201   10.9513 C   0  0  0  0  0  0  0  0  0  0  0  0
    8.7200    7.4504   10.6152 H   0  0  0  0  0  0  0  0  0  0  0  0
    7.8971    7.7716   11.9173 H   0  0  0  0  0  0  0  0  0  0  0  0
    7.4637    9.0317   10.3827 C   0  0  0  0  0  0  0  0  0  0  0  0
    6.6595    9.3602   10.8139 H   0  0  0  0  0  0  0  0  0  0  0  0
    8.1735    9.6789   10.5201 H   0  0  0  0  0  0  0  0  0  0  0  0
    7.2344    8.8434    8.9948 O   0  0  0  0  0  0  0  0  0  0  0  0
    7.0638   10.0712    8.3028 C   0  0  0  0  0  0  0  0  0  0  0  0
    6.9136    9.8971    7.3706 H   0  0  0  0  0  0  0  0  0  0  0  0
    7.8526   10.6081    8.4042 H   0  0  0  0  0  0  0  0  0  0  0  0
    6.3084   10.5419    8.6642 H   0  0  0  0  0  0  0  0  0  0  0  0
  1  3  1  0  0  0  0
  2  3  1  0  0  0  0
  3 24  1  0  0  0  0
  4 10  1  0  0  0  0
  5 10  1  0  0  0  0
  6 12  1  0  0  0  0
  7 12  1  0  0  0  0
  8  1  1  0  0  0  0
  9  2  1  0  0  0  0
 10  8  1  0  0  0  0
 11  8  1  0  0  0  0
 12  9  1  0  0  0  0
 13  9  1  0  0  0  0
 14 15  1  0  0  0  0
 16 14  4  0  0  0  0
 17 16  1  0  0  0  0
 18 16  4  0  0  0  0
 19 18  1  0  0  0  0
 20 18  4  0  0  0  0
 21 20  1  0  0  0  0
 22 20  4  0  0  0  0
 23 22  1  0  0  0  0
 24 14  4  0  0  0  0
 25 26  1  0  0  0  0
 27 25  4  0  0  0  0
 28 27  1  0  0  0  0
 29 27  4  0  0  0  0
 30 29  1  0  0  0  0
 31 29  4  0  0  0  0
 32 31  1  0  0  0  0
 33 31  4  0  0  0  0
 34 33  1  0  0  0  0
 35  3  1  0  0  0  0
 36  4  1  0  0  0  0
 37 36  1  0  0  0  0
 38 36  1  0  0  0  0
 39 36  1  0  0  0  0
 40  4  1  0  0  0  0
 41 40  1  0  0  0  0
 42 40  1  0  0  0  0
 43 40  1  0  0  0  0
 44  4  1  0  0  0  0
 45 44  1  0  0  0  0
 46 44  1  0  0  0  0
 47 44  1  0  0  0  0
 48  5  1  0  0  0  0
 49 48  1  0  0  0  0
 50 48  1  0  0  0  0
 51 48  1  0  0  0  0
 52  5  1  0  0  0  0
 53 52  1  0  0  0  0
 54 52  1  0  0  0  0
 55 52  1  0  0  0  0
 56  5  1  0  0  0  0
 57 56  1  0  0  0  0
 58 56  1  0  0  0  0
 59 56  1  0  0  0  0
 60 11  1  0  0  0  0
 61 60  1  0  0  0  0
 62 60  1  0  0  0  0
 63 62  1  0  0  0  0
 64 62  1  0  0  0  0
 65 62  1  0  0  0  0
 66 60  1  0  0  0  0
 67 66  1  0  0  0  0
 68 66  1  0  0  0  0
 69 66  1  0  0  0  0
 70 11  1  0  0  0  0
 71 70  1  0  0  0  0
 72 70  1  0  0  0  0
 73 72  1  0  0  0  0
 74 72  1  0  0  0  0
 75 72  1  0  0  0  0
 76 70  1  0  0  0  0
 77 76  1  0  0  0  0
 78 76  1  0  0  0  0
 79 76  1  0  0  0  0
 80  6  1  0  0  0  0
 81 80  1  0  0  0  0
 82 80  1  0  0  0  0
 83 80  1  0  0  0  0
 84  6  1  0  0  0  0
 85 84  1  0  0  0  0
 86 84  1  0  0  0  0
 87 84  1  0  0  0  0
 88  6  1  0  0  0  0
 89 88  1  0  0  0  0
 90 88  1  0  0  0  0
 91 88  1  0  0  0  0
 92  7  1  0  0  0  0
 93 92  1  0  0  0  0
 94 92  1  0  0  0  0
 95 92  1  0  0  0  0
 96  7  1  0  0  0  0
 97 96  1  0  0  0  0
 98 96  1  0  0  0  0
 99 96  1  0  0  0  0
100  7  1  0  0  0  0
101100  1  0  0  0  0
102100  1  0  0  0  0
103100  1  0  0  0  0
104 13  1  0  0  0  0
105104  1  0  0  0  0
106104  1  0  0  0  0
107106  1  0  0  0  0
108106  1  0  0  0  0
109106  1  0  0  0  0
110104  1  0  0  0  0
111110  1  0  0  0  0
112110  1  0  0  0  0
113110  1  0  0  0  0
114 13  1  0  0  0  0
115114  1  0  0  0  0
116114  1  0  0  0  0
117116  1  0  0  0  0
118116  1  0  0  0  0
119116  1  0  0  0  0
120114  1  0  0  0  0
121120  1  0  0  0  0
122120  1  0  0  0  0
123120  1  0  0  0  0
124  1  1  0  0  0  0
125  1  1  0  0  0  0
126127  1  0  0  0  0
128126  1  0  0  0  0
129126  1  0  0  0  0
130124  1  0  0  0  0
131130  1  0  0  0  0
132131  1  0  0  0  0
133131  1  0  0  0  0
134131  1  0  0  0  0
135134  1  0  0  0  0
136134  1  0  0  0  0
137124  1  0  0  0  0
138137  1  0  0  0  0
139138  1  0  0  0  0
140138  1  0  0  0  0
141138  1  0  0  0  0
142143  1  0  0  0  0
144142  1  0  0  0  0
145142  1  0  0  0  0
146125  1  0  0  0  0
147146  1  0  0  0  0
148147  1  0  0  0  0
149147  1  0  0  0  0
150147  1  0  0  0  0
151150  1  0  0  0  0
152150  1  0  0  0  0
153125  1  0  0  0  0
154153  1  0  0  0  0
155154  1  0  0  0  0
156154  1  0  0  0  0
157154  1  0  0  0  0
  2124  1  0  0  0  0
  2125  1  0  0  0  0
 22 24  4  0  0  0  0
 25 35  4  0  0  0  0
 33 35  4  0  0  0  0
126130  1  0  0  0  0
134137  1  0  0  0  0
142146  1  0  0  0  0
150153  1  0  0  0  0
M  END
$$$$
HOVYUM

From CSD data. Using bond type 'Any'. No disordered atoms. Largest molecule.
 79 86  0  0  0  0  0  0  0  0999 V2000
   -0.1095    0.2352   10.2538 P   0  0  0  0  0  0  0  0  0  0  0  0
    2.4009   -1.4442   10.3178 P   0  0  0  0  0  0  0  0  0  0  0  0
   -1.7254   -1.6021   13.4748 O   0  0  0  0  0  0  0  0  0  0  0  0
   -1.4370    0.6082   12.6429 O   0  0  0  0  0  0  0  0  0  0  0  0
    1.8443   -2.4235   14.2197 O   0  0  0  0  0  0  0  0  0  0  0  0
    2.3472   -3.4930   12.1670 O   0  0  0  0  0  0  0  0  0  0  0  0
    0.8008   -1.0867   11.1710 C   0  0  0  0  0  0  0  0  0  0  0  0
   -1.6737    0.1924   11.2908 C   0  0  0  0  0  0  0  0  0  0  0  0
   -2.2882   -1.1557   11.1612 C   0  0  0  0  0  0  0  0  0  0  0  0
   -2.2276   -2.0061   12.2376 C   0  0  0  0  0  0  0  0  0  0  0  0
   -2.8052   -1.6260    9.9715 C   0  0  0  0  0  0  0  0  0  0  0  0
   -3.2345   -2.9333    9.8517 C   0  0  0  0  0  0  0  0  0  0  0  0
   -3.1265   -3.7818   10.9380 C   0  0  0  0  0  0  0  0  0  0  0  0
   -2.6368   -3.3153   12.1243 C   0  0  0  0  0  0  0  0  0  0  0  0
    0.7278    1.7384   10.8248 C   0  0  0  0  0  0  0  0  0  0  0  0
    0.6567    2.8700   10.0322 C   0  0  0  0  0  0  0  0  0  0  0  0
    1.2628    4.0617   10.3998 C   0  0  0  0  0  0  0  0  0  0  0  0
    1.9475    4.1473   11.5386 C   0  0  0  0  0  0  0  0  0  0  0  0
    2.0682    3.0506   12.3377 C   0  0  0  0  0  0  0  0  0  0  0  0
    1.4552    1.8670   11.9898 C   0  0  0  0  0  0  0  0  0  0  0  0
   -0.8679    0.1569   15.0434 C   0  0  0  0  0  0  0  0  0  0  0  0
   -0.8209   -0.7600   16.0887 C   0  0  0  0  0  0  0  0  0  0  0  0
   -0.3273   -0.3929   17.3193 C   0  0  0  0  0  0  0  0  0  0  0  0
    0.1243    0.8706   17.5277 C   0  0  0  0  0  0  0  0  0  0  0  0
    0.1097    1.8048   16.5235 C   0  0  0  0  0  0  0  0  0  0  0  0
   -0.4015    1.4496   15.2896 C   0  0  0  0  0  0  0  0  0  0  0  0
    3.1847   -2.4030   11.7240 C   0  0  0  0  0  0  0  0  0  0  0  0
    3.5103   -1.4490   12.8135 C   0  0  0  0  0  0  0  0  0  0  0  0
    2.7971   -1.4523   13.9884 C   0  0  0  0  0  0  0  0  0  0  0  0
    4.4779   -0.4626   12.6593 C   0  0  0  0  0  0  0  0  0  0  0  0
    4.7018    0.4832   13.6208 C   0  0  0  0  0  0  0  0  0  0  0  0
    3.9606    0.4727   14.7760 C   0  0  0  0  0  0  0  0  0  0  0  0
    3.0242   -0.5135   14.9565 C   0  0  0  0  0  0  0  0  0  0  0  0
    1.9691   -2.7584    9.1380 C   0  0  0  0  0  0  0  0  0  0  0  0
    2.8997   -3.0332    8.1321 C   0  0  0  0  0  0  0  0  0  0  0  0
    2.6999   -4.0091    7.2034 C   0  0  0  0  0  0  0  0  0  0  0  0
    1.5114   -4.7350    7.2067 C   0  0  0  0  0  0  0  0  0  0  0  0
    0.6118   -4.4595    8.1617 C   0  0  0  0  0  0  0  0  0  0  0  0
    0.8175   -3.5095    9.1150 C   0  0  0  0  0  0  0  0  0  0  0  0
    0.6184   -4.5302   13.6438 C   0  0  0  0  0  0  0  0  0  0  0  0
   -0.1576   -4.4734   14.7875 C   0  0  0  0  0  0  0  0  0  0  0  0
   -1.1148   -5.4061   15.0845 C   0  0  0  0  0  0  0  0  0  0  0  0
   -1.2899   -6.4348   14.2050 C   0  0  0  0  0  0  0  0  0  0  0  0
   -0.5470   -6.5575   13.0695 C   0  0  0  0  0  0  0  0  0  0  0  0
    0.3817   -5.6043   12.7774 C   0  0  0  0  0  0  0  0  0  0  0  0
   -1.3644   -0.2681   13.6536 B   0  0  0  0  0  0  0  0  0  0  0  0
    1.6683   -3.4437   13.3123 B   0  0  0  0  0  0  0  0  0  0  0  0
   -2.2345    0.8393   10.9938 H   0  0  0  0  0  0  0  0  0  0  0  0
   -2.8606   -1.0178    9.1872 H   0  0  0  0  0  0  0  0  0  0  0  0
   -3.2884   -3.3513    8.9427 H   0  0  0  0  0  0  0  0  0  0  0  0
   -3.3838   -4.7076   10.7969 H   0  0  0  0  0  0  0  0  0  0  0  0
   -2.5433   -3.8073   12.7823 H   0  0  0  0  0  0  0  0  0  0  0  0
    0.9812   -0.8206   12.1260 H   0  0  0  0  0  0  0  0  0  0  0  0
    0.2260    2.8048    9.3037 H   0  0  0  0  0  0  0  0  0  0  0  0
    0.2958   -1.8228   11.2891 H   0  0  0  0  0  0  0  0  0  0  0  0
    1.2647    4.6046    9.7631 H   0  0  0  0  0  0  0  0  0  0  0  0
    2.3779    5.0576   11.9947 H   0  0  0  0  0  0  0  0  0  0  0  0
    2.5392    3.0617   13.2254 H   0  0  0  0  0  0  0  0  0  0  0  0
    1.3971    0.9468   12.6839 H   0  0  0  0  0  0  0  0  0  0  0  0
   -1.1581   -1.8172   15.9328 H   0  0  0  0  0  0  0  0  0  0  0  0
   -0.3260   -1.0749   18.0626 H   0  0  0  0  0  0  0  0  0  0  0  0
    0.5550    1.0543   18.3449 H   0  0  0  0  0  0  0  0  0  0  0  0
    0.4814    2.7173   16.6991 H   0  0  0  0  0  0  0  0  0  0  0  0
   -0.4480    2.0185   14.4560 H   0  0  0  0  0  0  0  0  0  0  0  0
    4.1741   -2.7727   11.3548 H   0  0  0  0  0  0  0  0  0  0  0  0
    4.8089   -0.3333   11.8963 H   0  0  0  0  0  0  0  0  0  0  0  0
    5.5439    1.1391   13.5535 H   0  0  0  0  0  0  0  0  0  0  0  0
    4.1317    1.2076   15.6703 H   0  0  0  0  0  0  0  0  0  0  0  0
    2.5072   -0.6341   15.7523 H   0  0  0  0  0  0  0  0  0  0  0  0
    3.4890   -2.6708    8.2207 H   0  0  0  0  0  0  0  0  0  0  0  0
    3.3838   -4.2117    6.5044 H   0  0  0  0  0  0  0  0  0  0  0  0
    1.3460   -5.4487    6.5093 H   0  0  0  0  0  0  0  0  0  0  0  0
   -0.2268   -4.9907    8.1288 H   0  0  0  0  0  0  0  0  0  0  0  0
    0.1050   -3.3829    9.8189 H   0  0  0  0  0  0  0  0  0  0  0  0
   -0.0382   -3.7350   15.2272 H   0  0  0  0  0  0  0  0  0  0  0  0
   -1.6475   -5.3253   15.9311 H   0  0  0  0  0  0  0  0  0  0  0  0
   -1.8948   -6.9196   14.3412 H   0  0  0  0  0  0  0  0  0  0  0  0
   -0.7512   -7.3812   12.4542 H   0  0  0  0  0  0  0  0  0  0  0  0
    0.8857   -5.6794   11.9898 H   0  0  0  0  0  0  0  0  0  0  0  0
  1  7  1  0  0  0  0
  2  7  1  0  0  0  0
  3 10  1  0  0  0  0
  4  8  1  0  0  0  0
  5 29  1  0  0  0  0
  6 27  1  0  0  0  0
  7 53  1  0  0  0  0
  8  1  1  0  0  0  0
  9  8  1  0  0  0  0
 10  9  4  0  0  0  0
 11  9  4  0  0  0  0
 12 11  4  0  0  0  0
 13 12  4  0  0  0  0
 14 10  4  0  0  0  0
 15  1  1  0  0  0  0
 16 15  4  0  0  0  0
 17 16  4  0  0  0  0
 18 17  4  0  0  0  0
 19 18  4  0  0  0  0
 20 15  4  0  0  0  0
 21 22  4  0  0  0  0
 22 23  4  0  0  0  0
 23 24  4  0  0  0  0
 24 25  4  0  0  0  0
 25 26  4  0  0  0  0
 26 21  4  0  0  0  0
 27  2  1  0  0  0  0
 28 27  1  0  0  0  0
 29 28  4  0  0  0  0
 30 28  4  0  0  0  0
 31 30  4  0  0  0  0
 32 31  4  0  0  0  0
 33 29  4  0  0  0  0
 34  2  1  0  0  0  0
 35 34  4  0  0  0  0
 36 35  4  0  0  0  0
 37 36  4  0  0  0  0
 38 37  4  0  0  0  0
 39 34  4  0  0  0  0
 40 41  4  0  0  0  0
 41 42  4  0  0  0  0
 42 43  4  0  0  0  0
 43 44  4  0  0  0  0
 44 45  4  0  0  0  0
 45 40  4  0  0  0  0
 46  3  1  0  0  0  0
 47  5  1  0  0  0  0
 48  8  1  0  0  0  0
 49 11  1  0  0  0  0
 50 12  1  0  0  0  0
 51 13  1  0  0  0  0
 52 14  1  0  0  0  0
 54 16  1  0  0  0  0
 55  7  1  0  0  0  0
 56 17  1  0  0  0  0
 57 18  1  0  0  0  0
 58 19  1  0  0  0  0
 59 20  1  0  0  0  0
 60 22  1  0  0  0  0
 61 23  1  0  0  0  0
 62 24  1  0  0  0  0
 63 25  1  0  0  0  0
 64 26  1  0  0  0  0
 65 27  1  0  0  0  0
 66 30  1  0  0  0  0
 67 31  1  0  0  0  0
 68 32  1  0  0  0  0
 69 33  1  0  0  0  0
 70 35  1  0  0  0  0
 71 36  1  0  0  0  0
 72 37  1  0  0  0  0
 73 38  1  0  0  0  0
 74 39  1  0  0  0  0
 75 41  1  0  0  0  0
 76 42  1  0  0  0  0
 77 43  1  0  0  0  0
 78 44  1  0  0  0  0
 79 45  1  0  0  0  0
  4 46  1  0  0  0  0
  6 47  1  0  0  0  0
 13 14  4  0  0  0  0
 19 20  4  0  0  0  0
 21 46  1  0  0  0  0
 32 33  4  0  0  0  0
 38 39  4  0  0  0  0
 40 47  1  0  0  0  0
M  END
$$$$
HUBGER

From CSD data. Using bond type 'Any'. No disordered atoms. Largest molecule.
 64 82  0  0  0  0  0  0  0  0999 V2000
    5.8295    7.0901    2.5622 P   0  0  0  0  0  0  0  0  0  0  0  0
    4.2887    6.8883    2.0736 O   0  0  0  0  0  0  0  0  0  0  0  0
    6.6607    7.3339    1.1528 N   0  0  0  0  0  0  0  0  0  0  0  0
    5.5280    8.8368    3.2552 C   0  0  0  0  0  0  0  0  0  0  0  0
    3.8237    5.5421    1.9797 C   0  0  0  0  0  0  0  0  0  0  0  0
    6.1557    8.0711   -0.0118 C   0  0  0  0  0  0  0  0  0  0  0  0
    5.9224    7.2013   -1.2243 C   0  0  0  0  0  0  0  0  0  0  0  0
    8.0170    6.7785    1.0568 C   0  0  0  0  0  0  0  0  0  0  0  0
    9.1152    7.8163    1.0717 C   0  0  0  0  0  0  0  0  0  0  0  0
    6.4635   10.1743    2.7596 B   0  0  0  0  0  0  0  0  0  0  0  0
    6.8700    9.2783    4.2435 B   0  0  0  0  0  0  0  0  0  0  0  0
    6.8816   11.0502    4.2432 B   0  0  0  0  0  0  0  0  0  0  0  0
    5.5255   11.6066    3.2135 B   0  0  0  0  0  0  0  0  0  0  0  0
    4.6942   10.1709    2.5744 B   0  0  0  0  0  0  0  0  0  0  0  0
    7.0861   10.0410    1.9091 H   0  0  0  0  0  0  0  0  0  0  0  0
    7.7165    8.5654    4.3082 H   0  0  0  0  0  0  0  0  0  0  0  0
    7.8267   11.5814    4.3426 H   0  0  0  0  0  0  0  0  0  0  0  0
    5.5639   12.5168    2.6515 H   0  0  0  0  0  0  0  0  0  0  0  0
    4.2319   10.0585    1.6223 H   0  0  0  0  0  0  0  0  0  0  0  0
    4.1922    5.0318    2.7318 H   0  0  0  0  0  0  0  0  0  0  0  0
    4.0944    5.1965    1.0684 H   0  0  0  0  0  0  0  0  0  0  0  0
    2.8059    5.6081    2.0484 H   0  0  0  0  0  0  0  0  0  0  0  0
    5.3382    8.4831    0.2655 H   0  0  0  0  0  0  0  0  0  0  0  0
    6.7491    8.7743   -0.2540 H   0  0  0  0  0  0  0  0  0  0  0  0
    5.2556    6.5630   -1.0062 H   0  0  0  0  0  0  0  0  0  0  0  0
    6.7061    6.7410   -1.4667 H   0  0  0  0  0  0  0  0  0  0  0  0
    5.5914    7.7278   -1.9271 H   0  0  0  0  0  0  0  0  0  0  0  0
    8.0747    6.2646    0.2606 H   0  0  0  0  0  0  0  0  0  0  0  0
    8.1574    6.1431    1.8714 H   0  0  0  0  0  0  0  0  0  0  0  0
    9.9913    7.4088    1.0258 H   0  0  0  0  0  0  0  0  0  0  0  0
    8.9777    8.3966    0.4244 H   0  0  0  0  0  0  0  0  0  0  0  0
    9.0853    8.3864    1.9288 H   0  0  0  0  0  0  0  0  0  0  0  0
    5.0501    7.0901    5.6314 P   0  0  0  0  0  0  0  0  0  0  0  0
    6.5909    6.8883    6.1200 O   0  0  0  0  0  0  0  0  0  0  0  0
    4.2189    7.3339    7.0408 N   0  0  0  0  0  0  0  0  0  0  0  0
    5.3516    8.8368    4.9385 C   0  0  0  0  0  0  0  0  0  0  0  0
    7.0558    5.5421    6.2139 C   0  0  0  0  0  0  0  0  0  0  0  0
    4.7239    8.0711    8.2054 C   0  0  0  0  0  0  0  0  0  0  0  0
    4.9571    7.2013    9.4179 C   0  0  0  0  0  0  0  0  0  0  0  0
    2.8626    6.7785    7.1368 C   0  0  0  0  0  0  0  0  0  0  0  0
    1.7644    7.8163    7.1219 C   0  0  0  0  0  0  0  0  0  0  0  0
    4.4161   10.1743    5.4340 B   0  0  0  0  0  0  0  0  0  0  0  0
    4.0096    9.2783    3.9501 B   0  0  0  0  0  0  0  0  0  0  0  0
    3.9980   11.0502    3.9505 B   0  0  0  0  0  0  0  0  0  0  0  0
    5.3541   11.6066    4.9801 B   0  0  0  0  0  0  0  0  0  0  0  0
    6.1853   10.1709    5.6192 B   0  0  0  0  0  0  0  0  0  0  0  0
    3.7934   10.0410    6.2845 H   0  0  0  0  0  0  0  0  0  0  0  0
    3.1631    8.5654    3.8854 H   0  0  0  0  0  0  0  0  0  0  0  0
    3.0529   11.5814    3.8510 H   0  0  0  0  0  0  0  0  0  0  0  0
    5.3156   12.5168    5.5422 H   0  0  0  0  0  0  0  0  0  0  0  0
    6.6477   10.0585    6.5713 H   0  0  0  0  0  0  0  0  0  0  0  0
    6.6874    5.0318    5.4619 H   0  0  0  0  0  0  0  0  0  0  0  0
    6.7852    5.1965    7.1252 H   0  0  0  0  0  0  0  0  0  0  0  0
    8.0736    5.6081    6.1452 H   0  0  0  0  0  0  0  0  0  0  0  0
    5.5414    8.4831    7.9282 H   0  0  0  0  0  0  0  0  0  0  0  0
    4.1305    8.7743    8.4476 H   0  0  0  0  0  0  0  0  0  0  0  0
    5.6239    6.5630    9.1998 H   0  0  0  0  0  0  0  0  0  0  0  0
    4.1734    6.7410    9.6603 H   0  0  0  0  0  0  0  0  0  0  0  0
    5.2881    7.7278   10.1208 H   0  0  0  0  0  0  0  0  0  0  0  0
    2.8049    6.2646    7.9331 H   0  0  0  0  0  0  0  0  0  0  0  0
    2.7222    6.1431    6.3222 H   0  0  0  0  0  0  0  0  0  0  0  0
    0.8882    7.4088    7.1678 H   0  0  0  0  0  0  0  0  0  0  0  0
    1.9019    8.3966    7.7692 H   0  0  0  0  0  0  0  0  0  0  0  0
    1.7943    8.3864    6.2648 H   0  0  0  0  0  0  0  0  0  0  0  0
  1  2  1  0  0  0  0
  2  5  1  0  0  0  0
  3  1  1  0  0  0  0
  4  1  1  0  0  0  0
  5 20  1  0  0  0  0
  6  3  1  0  0  0  0
  7  6  1  0  0  0  0
  8  3  1  0  0  0  0
  9  8  1  0  0  0  0
 10  4  1  0  0  0  0
 11  4  1  0  0  0  0
 12 10  1  0  0  0  0
 13 10  1  0  0  0  0
 14  4  1  0  0  0  0
 15 10  1  0  0  0  0
 16 11  1  0  0  0  0
 17 12  1  0  0  0  0
 18 13  1  0  0  0  0
 19 14  1  0  0  0  0
 21  5  1  0  0  0  0
 22  5  1  0  0  0  0
 23  6  1  0  0  0  0
 24  6  1  0  0  0  0
 25  7  1  0  0  0  0
 26  7  1  0  0  0  0
 27  7  1  0  0  0  0
 28  8  1  0  0  0  0
 29  8  1  0  0  0  0
 30  9  1  0  0  0  0
 31  9  1  0  0  0  0
 32  9  1  0  0  0  0
 33 34  1  0  0  0  0
 34 37  1  0  0  0  0
 35 33  1  0  0  0  0
 36  4  1  0  0  0  0
 37 52  1  0  0  0  0
 38 35  1  0  0  0  0
 39 38  1  0  0  0  0
 40 35  1  0  0  0  0
 41 40  1  0  0  0  0
 42 36  1  0  0  0  0
 43  4  1  0  0  0  0
 44 13  1  0  0  0  0
 45 12  1  0  0  0  0
 46 11  1  0  0  0  0
 47 42  1  0  0  0  0
 48 43  1  0  0  0  0
 49 44  1  0  0  0  0
 50 45  1  0  0  0  0
 51 46  1  0  0  0  0
 53 37  1  0  0  0  0
 54 37  1  0  0  0  0
 55 38  1  0  0  0  0
 56 38  1  0  0  0  0
 57 39  1  0  0  0  0
 58 39  1  0  0  0  0
 59 39  1  0  0  0  0
 60 40  1  0  0  0  0
 61 40  1  0  0  0  0
 62 41  1  0  0  0  0
 63 41  1  0  0  0  0
 64 41  1  0  0  0  0
 10 11  1  0  0  0  0
 10 14  1  0  0  0  0
 11 12  1  0  0  0  0
 11 36  1  0  0  0  0
 12 13  1  0  0  0  0
 12 46  1  0  0  0  0
 13 14  1  0  0  0  0
 13 45  1  0  0  0  0
 14 43  1  0  0  0  0
 14 44  1  0  0  0  0
 33 36  1  0  0  0  0
 36 43  1  0  0  0  0
 36 46  1  0  0  0  0
 42 43  1  0  0  0  0
 42 44  1  0  0  0  0
 42 45  1  0  0  0  0
 42 46  1  0  0  0  0
 43 44  1  0  0  0  0
 44 45  1  0  0  0  0
 45 46  1  0  0  0  0
M  END
$$$$
HUBGIV

From CSD data. Using bond type 'Any'. No disordered atoms. Largest molecule.
 76 94  0  0  0  0  0  0  0  0999 V2000
    2.0444    7.2799    9.0009 P   0  0  0  0  0  0  0  0  0  0  0  0
    4.4930    6.4893    7.1508 P   0  0  0  0  0  0  0  0  0  0  0  0
    1.2055    6.5559   10.2107 O   0  0  0  0  0  0  0  0  0  0  0  0
    3.9047    4.9592    7.2994 O   0  0  0  0  0  0  0  0  0  0  0  0
    1.5259    8.8621    9.0097 N   0  0  0  0  0  0  0  0  0  0  0  0
    5.9245    6.2789    6.3298 N   0  0  0  0  0  0  0  0  0  0  0  0
    3.6908    7.2452    9.9697 C   0  0  0  0  0  0  0  0  0  0  0  0
    4.9737    6.6436    8.9949 C   0  0  0  0  0  0  0  0  0  0  0  0
    1.1890    9.5998   10.2373 C   0  0  0  0  0  0  0  0  0  0  0  0
   -0.3291    9.7325   10.4212 C   0  0  0  0  0  0  0  0  0  0  0  0
    1.8854   10.9524   10.2979 C   0  0  0  0  0  0  0  0  0  0  0  0
    1.0649    9.4660    7.7252 C   0  0  0  0  0  0  0  0  0  0  0  0
    2.2093    9.7097    6.7636 C   0  0  0  0  0  0  0  0  0  0  0  0
   -0.0652    8.6934    7.0852 C   0  0  0  0  0  0  0  0  0  0  0  0
    0.1200    5.7161    9.8323 C   0  0  0  0  0  0  0  0  0  0  0  0
    6.1829    7.1957    5.1879 C   0  0  0  0  0  0  0  0  0  0  0  0
    6.5762    8.5858    5.6548 C   0  0  0  0  0  0  0  0  0  0  0  0
    5.0167    7.2732    4.2184 C   0  0  0  0  0  0  0  0  0  0  0  0
    6.7815    5.0672    6.4374 C   0  0  0  0  0  0  0  0  0  0  0  0
    6.5648    4.1093    5.2612 C   0  0  0  0  0  0  0  0  0  0  0  0
    8.2494    5.4113    6.5948 C   0  0  0  0  0  0  0  0  0  0  0  0
    2.8685    4.5941    6.3844 C   0  0  0  0  0  0  0  0  0  0  0  0
    4.3144    8.3478   11.1327 B   0  0  0  0  0  0  0  0  0  0  0  0
    4.9477    8.3156    9.4693 B   0  0  0  0  0  0  0  0  0  0  0  0
    6.0649    8.4186   10.8513 B   0  0  0  0  0  0  0  0  0  0  0  0
    5.4005    7.4005   12.1561 B   0  0  0  0  0  0  0  0  0  0  0  0
    3.8754    6.6904   11.5753 B   0  0  0  0  0  0  0  0  0  0  0  0
    6.4483    7.3491    9.4819 B   0  0  0  0  0  0  0  0  0  0  0  0
    6.7225    6.7806   11.1414 B   0  0  0  0  0  0  0  0  0  0  0  0
    5.3561    5.7061   11.5837 B   0  0  0  0  0  0  0  0  0  0  0  0
    4.2572    5.6278   10.1865 B   0  0  0  0  0  0  0  0  0  0  0  0
    6.0227    5.6813    9.9322 B   0  0  0  0  0  0  0  0  0  0  0  0
    3.7253    9.2062   11.4598 H   0  0  0  0  0  0  0  0  0  0  0  0
    4.7673    9.0119    8.7515 H   0  0  0  0  0  0  0  0  0  0  0  0
    6.7365    9.2944   10.9578 H   0  0  0  0  0  0  0  0  0  0  0  0
    5.5207    7.7007   13.1860 H   0  0  0  0  0  0  0  0  0  0  0  0
    2.9699    6.4719   12.1451 H   0  0  0  0  0  0  0  0  0  0  0  0
    7.1215    7.4944    8.7680 H   0  0  0  0  0  0  0  0  0  0  0  0
    7.7300    6.7006   11.5276 H   0  0  0  0  0  0  0  0  0  0  0  0
    5.4120    4.8244   12.1928 H   0  0  0  0  0  0  0  0  0  0  0  0
    3.5701    4.8588    9.8125 H   0  0  0  0  0  0  0  0  0  0  0  0
    6.5296    4.8289    9.5120 H   0  0  0  0  0  0  0  0  0  0  0  0
    1.5108    9.0836   10.9578 H   0  0  0  0  0  0  0  0  0  0  0  0
   -0.5898   10.1645   11.2454 H   0  0  0  0  0  0  0  0  0  0  0  0
   -0.7347    8.8639   10.4245 H   0  0  0  0  0  0  0  0  0  0  0  0
   -0.6933   10.2512    9.7136 H   0  0  0  0  0  0  0  0  0  0  0  0
    2.9181   10.8507   10.1552 H   0  0  0  0  0  0  0  0  0  0  0  0
    1.5832   11.6431    9.5963 H   0  0  0  0  0  0  0  0  0  0  0  0
    1.7385   11.3321   11.2143 H   0  0  0  0  0  0  0  0  0  0  0  0
    0.7244   10.3469    7.9709 H   0  0  0  0  0  0  0  0  0  0  0  0
    1.9247   10.2034    6.0231 H   0  0  0  0  0  0  0  0  0  0  0  0
    2.6387    8.9132    6.4574 H   0  0  0  0  0  0  0  0  0  0  0  0
    2.8664   10.1974    7.2325 H   0  0  0  0  0  0  0  0  0  0  0  0
    0.3104    7.8502    6.6919 H   0  0  0  0  0  0  0  0  0  0  0  0
   -0.3311    9.2825    6.3456 H   0  0  0  0  0  0  0  0  0  0  0  0
   -0.8692    8.4767    7.6283 H   0  0  0  0  0  0  0  0  0  0  0  0
   -0.6002    6.2940    9.7722 H   0  0  0  0  0  0  0  0  0  0  0  0
    0.0000    5.1637   10.5216 H   0  0  0  0  0  0  0  0  0  0  0  0
    0.1966    5.2594    9.0557 H   0  0  0  0  0  0  0  0  0  0  0  0
    6.9228    6.7858    4.7148 H   0  0  0  0  0  0  0  0  0  0  0  0
    5.7845    8.9864    6.0927 H   0  0  0  0  0  0  0  0  0  0  0  0
    7.3264    8.5260    6.2815 H   0  0  0  0  0  0  0  0  0  0  0  0
    6.8411    9.0821    4.8614 H   0  0  0  0  0  0  0  0  0  0  0  0
    5.3189    7.7830    3.4742 H   0  0  0  0  0  0  0  0  0  0  0  0
    4.6980    6.4449    3.9232 H   0  0  0  0  0  0  0  0  0  0  0  0
    4.3048    7.7620    4.6323 H   0  0  0  0  0  0  0  0  0  0  0  0
    6.5524    4.6973    7.2252 H   0  0  0  0  0  0  0  0  0  0  0  0
    7.1349    3.2442    5.3763 H   0  0  0  0  0  0  0  0  0  0  0  0
    6.8814    4.6091    4.3758 H   0  0  0  0  0  0  0  0  0  0  0  0
    5.5465    3.8586    5.1234 H   0  0  0  0  0  0  0  0  0  0  0  0
    8.7855    4.5852    6.7194 H   0  0  0  0  0  0  0  0  0  0  0  0
    8.5681    5.8320    5.7446 H   0  0  0  0  0  0  0  0  0  0  0  0
    8.3922    6.0413    7.3388 H   0  0  0  0  0  0  0  0  0  0  0  0
    2.0903    5.1279    6.4922 H   0  0  0  0  0  0  0  0  0  0  0  0
    2.5146    3.7375    6.4867 H   0  0  0  0  0  0  0  0  0  0  0  0
    3.0113    4.6495    5.4624 H   0  0  0  0  0  0  0  0  0  0  0  0
  1  3  1  0  0  0  0
  2  4  1  0  0  0  0
  3 15  1  0  0  0  0
  4 22  1  0  0  0  0
  5  1  1  0  0  0  0
  6  2  1  0  0  0  0
  7  1  1  0  0  0  0
  8  2  1  0  0  0  0
  9  5  1  0  0  0  0
 10  9  1  0  0  0  0
 11  9  1  0  0  0  0
 12  5  1  0  0  0  0
 13 12  1  0  0  0  0
 14 12  1  0  0  0  0
 15 57  1  0  0  0  0
 16  6  1  0  0  0  0
 17 16  1  0  0  0  0
 18 16  1  0  0  0  0
 19  6  1  0  0  0  0
 20 19  1  0  0  0  0
 21 19  1  0  0  0  0
 22 74  1  0  0  0  0
 23  7  1  0  0  0  0
 24  7  1  0  0  0  0
 25 23  1  0  0  0  0
 26 23  1  0  0  0  0
 27  7  1  0  0  0  0
 28  8  1  0  0  0  0
 29 25  1  0  0  0  0
 30 26  1  0  0  0  0
 31  7  1  0  0  0  0
 32  8  1  0  0  0  0
 33 23  1  0  0  0  0
 34 24  1  0  0  0  0
 35 25  1  0  0  0  0
 36 26  1  0  0  0  0
 37 27  1  0  0  0  0
 38 28  1  0  0  0  0
 39 29  1  0  0  0  0
 40 30  1  0  0  0  0
 41 31  1  0  0  0  0
 42 32  1  0  0  0  0
 43  9  1  0  0  0  0
 44 10  1  0  0  0  0
 45 10  1  0  0  0  0
 46 10  1  0  0  0  0
 47 11  1  0  0  0  0
 48 11  1  0  0  0  0
 49 11  1  0  0  0  0
 50 12  1  0  0  0  0
 51 13  1  0  0  0  0
 52 13  1  0  0  0  0
 53 13  1  0  0  0  0
 54 14  1  0  0  0  0
 55 14  1  0  0  0  0
 56 14  1  0  0  0  0
 58 15  1  0  0  0  0
 59 15  1  0  0  0  0
 60 16  1  0  0  0  0
 61 17  1  0  0  0  0
 62 17  1  0  0  0  0
 63 17  1  0  0  0  0
 64 18  1  0  0  0  0
 65 18  1  0  0  0  0
 66 18  1  0  0  0  0
 67 19  1  0  0  0  0
 68 20  1  0  0  0  0
 69 20  1  0  0  0  0
 70 20  1  0  0  0  0
 71 21  1  0  0  0  0
 72 21  1  0  0  0  0
 73 21  1  0  0  0  0
 75 22  1  0  0  0  0
 76 22  1  0  0  0  0
  7  8  1  0  0  0  0
  8 24  1  0  0  0  0
  8 31  1  0  0  0  0
 23 24  1  0  0  0  0
 23 27  1  0  0  0  0
 24 25  1  0  0  0  0
 24 28  1  0  0  0  0
 25 26  1  0  0  0  0
 25 28  1  0  0  0  0
 26 27  1  0  0  0  0
 26 29  1  0  0  0  0
 27 30  1  0  0  0  0
 27 31  1  0  0  0  0
 28 29  1  0  0  0  0
 28 32  1  0  0  0  0
 29 30  1  0  0  0  0
 29 32  1  0  0  0  0
 30 31  1  0  0  0  0
 30 32  1  0  0  0  0
 31 32  1  0  0  0  0
M  END
$$$$
HUDNEZ

From CSD data. Using bond type 'Any'. No disordered atoms. Largest molecule.
132142  0  0  0  0  0  0  0  0999 V2000
   12.7624   14.7830    9.4070 Mo  0  0  0  0  0  0  0  0  0  0  0  0
   10.4770   15.7634   11.6412 Zr  0  0  0  0  0  0  0  0  0  0  0  0
   13.0781   16.1773   11.5584 P   0  0  0  0  0  0  0  0  0  0  0  0
   13.5531   15.3647   12.4636 H   0  0  0  0  0  0  0  0  0  0  0  0
   10.2067   14.3883    9.4171 P   0  0  0  0  0  0  0  0  0  0  0  0
    9.6567   15.3033    8.4810 H   0  0  0  0  0  0  0  0  0  0  0  0
   14.3904   17.9306   14.7955 Si  0  0  0  0  0  0  0  0  0  0  0  0
   16.5858   16.7741   13.0114 Si  0  0  0  0  0  0  0  0  0  0  0  0
    8.3768   13.3928    6.1968 Si  0  0  0  0  0  0  0  0  0  0  0  0
    6.4778   13.7716    8.5432 Si  0  0  0  0  0  0  0  0  0  0  0  0
   12.8414   13.0100    6.8274 O   0  0  0  0  0  0  0  0  0  0  0  0
   15.7969   15.2068    8.8145 O   0  0  0  0  0  0  0  0  0  0  0  0
   13.7635   12.3628   11.1954 O   0  0  0  0  0  0  0  0  0  0  0  0
   11.9433   17.0836    7.3823 O   0  0  0  0  0  0  0  0  0  0  0  0
   15.0241   17.5676   13.2218 N   0  0  0  0  0  0  0  0  0  0  0  0
   14.2651   18.9019   11.2066 N   0  0  0  0  0  0  0  0  0  0  0  0
    8.0043   13.2391    7.9064 N   0  0  0  0  0  0  0  0  0  0  0  0
    9.3503   11.5276    9.2097 N   0  0  0  0  0  0  0  0  0  0  0  0
   14.2146   17.7449   11.9816 B   0  0  0  0  0  0  0  0  0  0  0  0
    9.1149   12.8408    8.8145 B   0  0  0  0  0  0  0  0  0  0  0  0
    9.5762   17.9654   12.4300 C   0  0  0  0  0  0  0  0  0  0  0  0
    9.6249   18.1492   13.3409 H   0  0  0  0  0  0  0  0  0  0  0  0
    8.5291   17.3411   11.7854 C   0  0  0  0  0  0  0  0  0  0  0  0
    7.7498   17.0320   12.1890 H   0  0  0  0  0  0  0  0  0  0  0  0
    8.8299   17.2507   10.4373 C   0  0  0  0  0  0  0  0  0  0  0  0
    8.2918   16.8763    9.7786 H   0  0  0  0  0  0  0  0  0  0  0  0
   10.0940   17.8284   10.2439 C   0  0  0  0  0  0  0  0  0  0  0  0
   10.5482   17.8998    9.4353 H   0  0  0  0  0  0  0  0  0  0  0  0
   10.5495   18.2757   11.4841 C   0  0  0  0  0  0  0  0  0  0  0  0
   11.3579   18.7047   11.6494 H   0  0  0  0  0  0  0  0  0  0  0  0
    8.9648   14.5894   13.2484 C   0  0  0  0  0  0  0  0  0  0  0  0
    8.0552   14.7866   13.2120 H   0  0  0  0  0  0  0  0  0  0  0  0
    9.9148   15.2538   14.0163 C   0  0  0  0  0  0  0  0  0  0  0  0
    9.7531   15.9807   14.5741 H   0  0  0  0  0  0  0  0  0  0  0  0
   11.1497   14.6458   13.8075 C   0  0  0  0  0  0  0  0  0  0  0  0
   11.9557   14.8812   14.2069 H   0  0  0  0  0  0  0  0  0  0  0  0
   10.9478   13.6104   12.8812 C   0  0  0  0  0  0  0  0  0  0  0  0
   11.6012   13.0388   12.5477 H   0  0  0  0  0  0  0  0  0  0  0  0
    9.6036   13.5898   12.5491 C   0  0  0  0  0  0  0  0  0  0  0  0
    9.2003   13.0000   11.9535 H   0  0  0  0  0  0  0  0  0  0  0  0
   14.5343   16.4627   15.9460 C   0  0  0  0  0  0  0  0  0  0  0  0
   15.4571   16.2117   16.0287 H   0  0  0  0  0  0  0  0  0  0  0  0
   14.0320   15.7265   15.5901 H   0  0  0  0  0  0  0  0  0  0  0  0
   14.1876   16.6988   16.8106 H   0  0  0  0  0  0  0  0  0  0  0  0
   12.5892   18.3557   14.6890 C   0  0  0  0  0  0  0  0  0  0  0  0
   12.4717   19.1076   14.1032 H   0  0  0  0  0  0  0  0  0  0  0  0
   12.2601   18.5755   15.5634 H   0  0  0  0  0  0  0  0  0  0  0  0
   12.1027   17.6018   14.3428 H   0  0  0  0  0  0  0  0  0  0  0  0
   15.2520   19.4100   15.5690 C   0  0  0  0  0  0  0  0  0  0  0  0
   16.1928   19.2312   15.6433 H   0  0  0  0  0  0  0  0  0  0  0  0
   14.8881   19.5726   16.4421 H   0  0  0  0  0  0  0  0  0  0  0  0
   15.1160   20.1843   15.0169 H   0  0  0  0  0  0  0  0  0  0  0  0
   16.4675   14.9152   13.1391 C   0  0  0  0  0  0  0  0  0  0  0  0
   15.8504   14.5873   12.4804 H   0  0  0  0  0  0  0  0  0  0  0  0
   16.1590   14.6737   14.0149 H   0  0  0  0  0  0  0  0  0  0  0  0
   17.3340   14.5291   12.9863 H   0  0  0  0  0  0  0  0  0  0  0  0
   17.3380   17.2167   11.3482 C   0  0  0  0  0  0  0  0  0  0  0  0
   16.7467   16.9393   10.6461 H   0  0  0  0  0  0  0  0  0  0  0  0
   18.1822   16.7715   11.2501 H   0  0  0  0  0  0  0  0  0  0  0  0
   17.4697   18.1669   11.2991 H   0  0  0  0  0  0  0  0  0  0  0  0
   17.7906   17.3452   14.3050 C   0  0  0  0  0  0  0  0  0  0  0  0
   17.8750   18.3009   14.2658 H   0  0  0  0  0  0  0  0  0  0  0  0
   18.6483   16.9432   14.1453 H   0  0  0  0  0  0  0  0  0  0  0  0
   17.4746   17.0878   15.1738 H   0  0  0  0  0  0  0  0  0  0  0  0
   13.6515   18.9356    9.8599 C   0  0  0  0  0  0  0  0  0  0  0  0
   13.0265   18.1810    9.8403 H   0  0  0  0  0  0  0  0  0  0  0  0
   12.8123   20.1671    9.5138 C   0  0  0  0  0  0  0  0  0  0  0  0
   12.1845   20.3358   10.2201 H   0  0  0  0  0  0  0  0  0  0  0  0
   12.3373   20.0117    8.6940 H   0  0  0  0  0  0  0  0  0  0  0  0
   13.3875   20.9280    9.4101 H   0  0  0  0  0  0  0  0  0  0  0  0
   14.6556   18.6559    8.7458 C   0  0  0  0  0  0  0  0  0  0  0  0
   15.1763   17.8816    8.9701 H   0  0  0  0  0  0  0  0  0  0  0  0
   15.2357   19.4134    8.6407 H   0  0  0  0  0  0  0  0  0  0  0  0
   14.1849   18.4965    7.9232 H   0  0  0  0  0  0  0  0  0  0  0  0
   15.0141   20.0984   11.7013 C   0  0  0  0  0  0  0  0  0  0  0  0
   15.5700   19.7739   12.4412 H   0  0  0  0  0  0  0  0  0  0  0  0
   14.1030   21.1552   12.3095 C   0  0  0  0  0  0  0  0  0  0  0  0
   13.4999   20.7380   12.9289 H   0  0  0  0  0  0  0  0  0  0  0  0
   13.5988   21.5811   11.6116 H   0  0  0  0  0  0  0  0  0  0  0  0
   14.6335   21.8102   12.7691 H   0  0  0  0  0  0  0  0  0  0  0  0
   15.9847   20.7369   10.7091 C   0  0  0  0  0  0  0  0  0  0  0  0
   16.5531   20.0593   10.3364 H   0  0  0  0  0  0  0  0  0  0  0  0
   16.5236   21.3911   11.1632 H   0  0  0  0  0  0  0  0  0  0  0  0
   15.4907   21.1634   10.0057 H   0  0  0  0  0  0  0  0  0  0  0  0
    9.0874   15.0407    5.7371 C   0  0  0  0  0  0  0  0  0  0  0  0
    9.8793   15.2046    6.2570 H   0  0  0  0  0  0  0  0  0  0  0  0
    8.4416   15.7285    5.9137 H   0  0  0  0  0  0  0  0  0  0  0  0
    9.3117   15.0438    4.8038 H   0  0  0  0  0  0  0  0  0  0  0  0
    9.6125   12.0794    5.6699 C   0  0  0  0  0  0  0  0  0  0  0  0
    9.2721   11.2112    5.8955 H   0  0  0  0  0  0  0  0  0  0  0  0
   10.4465   12.2243    6.1253 H   0  0  0  0  0  0  0  0  0  0  0  0
    9.7520   12.1334    4.7226 H   0  0  0  0  0  0  0  0  0  0  0  0
    6.8456   13.1238    5.1640 C   0  0  0  0  0  0  0  0  0  0  0  0
    6.4564   12.2731    5.3826 H   0  0  0  0  0  0  0  0  0  0  0  0
    7.0812   13.1362    4.2321 H   0  0  0  0  0  0  0  0  0  0  0  0
    6.2117   13.8214    5.3434 H   0  0  0  0  0  0  0  0  0  0  0  0
    6.5686   13.8950   10.3966 C   0  0  0  0  0  0  0  0  0  0  0  0
    6.7872   13.0358   10.7652 H   0  0  0  0  0  0  0  0  0  0  0  0
    5.7192   14.1831   10.7400 H   0  0  0  0  0  0  0  0  0  0  0  0
    7.2456   14.5300   10.6433 H   0  0  0  0  0  0  0  0  0  0  0  0
    6.0533   15.4565    7.8910 C   0  0  0  0  0  0  0  0  0  0  0  0
    5.9993   15.4246    6.9325 H   0  0  0  0  0  0  0  0  0  0  0  0
    6.7321   16.0818    8.1531 H   0  0  0  0  0  0  0  0  0  0  0  0
    5.2070   15.7348    8.2498 H   0  0  0  0  0  0  0  0  0  0  0  0
    5.0853   12.5757    8.1391 C   0  0  0  0  0  0  0  0  0  0  0  0
    5.3041   11.7039    8.4768 H   0  0  0  0  0  0  0  0  0  0  0  0
    4.9666   12.5308    7.1875 H   0  0  0  0  0  0  0  0  0  0  0  0
    4.2723   12.8819    8.5483 H   0  0  0  0  0  0  0  0  0  0  0  0
   10.5829   11.1617    9.9300 C   0  0  0  0  0  0  0  0  0  0  0  0
   10.9653   12.0127   10.2327 H   0  0  0  0  0  0  0  0  0  0  0  0
   11.6613   10.5289    9.0471 C   0  0  0  0  0  0  0  0  0  0  0  0
   11.7741   11.0562    8.2526 H   0  0  0  0  0  0  0  0  0  0  0  0
   11.3927    9.6394    8.8033 H   0  0  0  0  0  0  0  0  0  0  0  0
   12.4897   10.4929    9.5292 H   0  0  0  0  0  0  0  0  0  0  0  0
   10.3844   10.3443   11.1926 C   0  0  0  0  0  0  0  0  0  0  0  0
    9.7066   10.7526   11.7349 H   0  0  0  0  0  0  0  0  0  0  0  0
   11.2087   10.3074   11.6831 H   0  0  0  0  0  0  0  0  0  0  0  0
   10.1117    9.4539   10.9572 H   0  0  0  0  0  0  0  0  0  0  0  0
    8.3746   10.4588    8.8145 C   0  0  0  0  0  0  0  0  0  0  0  0
    7.7936   10.8827    8.1475 H   0  0  0  0  0  0  0  0  0  0  0  0
    8.9552    9.2774    8.1180 C   0  0  0  0  0  0  0  0  0  0  0  0
    9.5335    9.5764    7.4118 H   0  0  0  0  0  0  0  0  0  0  0  0
    8.2474    8.7432    7.7481 H   0  0  0  0  0  0  0  0  0  0  0  0
    9.4589    8.7527    8.7444 H   0  0  0  0  0  0  0  0  0  0  0  0
    7.4346   10.0704    9.9608 C   0  0  0  0  0  0  0  0  0  0  0  0
    7.0885   10.8648   10.3742 H   0  0  0  0  0  0  0  0  0  0  0  0
    7.9183    9.5568   10.6110 H   0  0  0  0  0  0  0  0  0  0  0  0
    6.7070    9.5465    9.6161 H   0  0  0  0  0  0  0  0  0  0  0  0
   12.7756   13.6306    7.7943 C   0  0  0  0  0  0  0  0  0  0  0  0
   14.6854   15.0922    9.0752 C   0  0  0  0  0  0  0  0  0  0  0  0
   13.3469   13.2220   10.5592 C   0  0  0  0  0  0  0  0  0  0  0  0
   12.2507   16.3072    8.1503 C   0  0  0  0  0  0  0  0  0  0  0  0
  1  3  1  0  0  0  0
  2  3  1  0  0  0  0
  3  4  1  0  0  0  0
  5  1  1  0  0  0  0
  6  5  1  0  0  0  0
  7 15  1  0  0  0  0
  8 15  1  0  0  0  0
  9 17  1  0  0  0  0
 10 17  1  0  0  0  0
 11129  3  0  0  0  0
 12130  3  0  0  0  0
 13131  3  0  0  0  0
 14132  3  0  0  0  0
 15 19  1  0  0  0  0
 16 19  1  0  0  0  0
 17 20  1  0  0  0  0
 18 20  1  0  0  0  0
 19  3  1  0  0  0  0
 20  5  1  0  0  0  0
 21  2  8  0  0  0  0
 22 21  1  0  0  0  0
 23  2  8  0  0  0  0
 24 23  1  0  0  0  0
 25  2  8  0  0  0  0
 26 25  1  0  0  0  0
 27  2  8  0  0  0  0
 28 27  1  0  0  0  0
 29  2  8  0  0  0  0
 30 29  1  0  0  0  0
 31  2  8  0  0  0  0
 32 31  1  0  0  0  0
 33  2  8  0  0  0  0
 34 33  1  0  0  0  0
 35  2  8  0  0  0  0
 36 35  1  0  0  0  0
 37  2  8  0  0  0  0
 38 37  1  0  0  0  0
 39  2  8  0  0  0  0
 40 39  1  0  0  0  0
 41  7  1  0  0  0  0
 42 41  1  0  0  0  0
 43 41  1  0  0  0  0
 44 41  1  0  0  0  0
 45  7  1  0  0  0  0
 46 45  1  0  0  0  0
 47 45  1  0  0  0  0
 48 45  1  0  0  0  0
 49  7  1  0  0  0  0
 50 49  1  0  0  0  0
 51 49  1  0  0  0  0
 52 49  1  0  0  0  0
 53  8  1  0  0  0  0
 54 53  1  0  0  0  0
 55 53  1  0  0  0  0
 56 53  1  0  0  0  0
 57  8  1  0  0  0  0
 58 57  1  0  0  0  0
 59 57  1  0  0  0  0
 60 57  1  0  0  0  0
 61  8  1  0  0  0  0
 62 61  1  0  0  0  0
 63 61  1  0  0  0  0
 64 61  1  0  0  0  0
 65 16  1  0  0  0  0
 66 65  1  0  0  0  0
 67 65  1  0  0  0  0
 68 67  1  0  0  0  0
 69 67  1  0  0  0  0
 70 67  1  0  0  0  0
 71 65  1  0  0  0  0
 72 71  1  0  0  0  0
 73 71  1  0  0  0  0
 74 71  1  0  0  0  0
 75 16  1  0  0  0  0
 76 75  1  0  0  0  0
 77 75  1  0  0  0  0
 78 77  1  0  0  0  0
 79 77  1  0  0  0  0
 80 77  1  0  0  0  0
 81 75  1  0  0  0  0
 82 81  1  0  0  0  0
 83 81  1  0  0  0  0
 84 81  1  0  0  0  0
 85  9  1  0  0  0  0
 86 85  1  0  0  0  0
 87 85  1  0  0  0  0
 88 85  1  0  0  0  0
 89  9  1  0  0  0  0
 90 89  1  0  0  0  0
 91 89  1  0  0  0  0
 92 89  1  0  0  0  0
 93  9  1  0  0  0  0
 94 93  1  0  0  0  0
 95 93  1  0  0  0  0
 96 93  1  0  0  0  0
 97 10  1  0  0  0  0
 98 97  1  0  0  0  0
 99 97  1  0  0  0  0
100 97  1  0  0  0  0
101 10  1  0  0  0  0
102101  1  0  0  0  0
103101  1  0  0  0  0
104101  1  0  0  0  0
105 10  1  0  0  0  0
106105  1  0  0  0  0
107105  1  0  0  0  0
108105  1  0  0  0  0
109 18  1  0  0  0  0
110109  1  0  0  0  0
111109  1  0  0  0  0
112111  1  0  0  0  0
113111  1  0  0  0  0
114111  1  0  0  0  0
115109  1  0  0  0  0
116115  1  0  0  0  0
117115  1  0  0  0  0
118115  1  0  0  0  0
119 18  1  0  0  0  0
120119  1  0  0  0  0
121119  1  0  0  0  0
122121  1  0  0  0  0
123121  1  0  0  0  0
124121  1  0  0  0  0
125119  1  0  0  0  0
126125  1  0  0  0  0
127125  1  0  0  0  0
128125  1  0  0  0  0
129  1  1  0  0  0  0
130  1  1  0  0  0  0
131  1  1  0  0  0  0
132  1  1  0  0  0  0
  2  5  1  0  0  0  0
 21 23  4  0  0  0  0
 21 29  4  0  0  0  0
 23 25  4  0  0  0  0
 25 27  4  0  0  0  0
 27 29  4  0  0  0  0
 31 33  4  0  0  0  0
 31 39  4  0  0  0  0
 33 35  4  0  0  0  0
 35 37  4  0  0  0  0
 37 39  4  0  0  0  0
M  END
$$$$
HULXAQ

From CSD data. Using bond type 'Any'. No disordered atoms. Largest molecule.
172188  0  0  0  0  0  0  0  0999 V2000
    6.3416    1.3689    1.0530 Pd  0  0  0  0  0  0  0  0  0  0  0  0
    4.3683    4.1721    2.4602 Mo  0  0  0  0  0  0  0  0  0  0  0  0
    4.0967    0.6851    0.1356 Br  0  0  0  0  0  0  0  0  0  0  0  0
    8.3683    1.9525    1.9035 P   0  0  0  0  0  0  0  0  0  0  0  0
    2.5130    1.7450    3.2093 O   0  0  0  0  0  0  0  0  0  0  0  0
    2.9794    3.9891   -0.3587 O   0  0  0  0  0  0  0  0  0  0  0  0
    2.8097    5.7133    3.2407 N   0  0  0  0  0  0  0  0  0  0  0  0
    3.2537    6.7901    3.9693 N   0  0  0  0  0  0  0  0  0  0  0  0
    5.4168    6.0685    1.9339 N   0  0  0  0  0  0  0  0  0  0  0  0
    5.4654    7.1127    2.8205 N   0  0  0  0  0  0  0  0  0  0  0  0
    5.1743    4.5279    4.5023 N   0  0  0  0  0  0  0  0  0  0  0  0
    5.3153    5.8028    4.9977 N   0  0  0  0  0  0  0  0  0  0  0  0
    4.7677    7.0099    4.1976 B   0  0  0  0  0  0  0  0  0  0  0  0
    4.9137    7.8521    4.7143 H   0  0  0  0  0  0  0  0  0  0  0  0
    0.6386    4.7767    2.4970 C   0  0  0  0  0  0  0  0  0  0  0  0
    1.2245    4.1492    2.0380 H   0  0  0  0  0  0  0  0  0  0  0  0
    0.0692    5.2287    1.8461 H   0  0  0  0  0  0  0  0  0  0  0  0
    0.0838    4.2909    3.1328 H   0  0  0  0  0  0  0  0  0  0  0  0
    1.4653    5.7874    3.2231 C   0  0  0  0  0  0  0  0  0  0  0  0
    1.0472    6.9046    3.9367 C   0  0  0  0  0  0  0  0  0  0  0  0
    0.1512    7.1887    4.0759 H   0  0  0  0  0  0  0  0  0  0  0  0
    2.1952    7.5249    4.4045 C   0  0  0  0  0  0  0  0  0  0  0  0
    2.3368    8.7495    5.2310 C   0  0  0  0  0  0  0  0  0  0  0  0
    2.7146    8.5215    6.0988 H   0  0  0  0  0  0  0  0  0  0  0  0
    1.4649    9.1638    5.3539 H   0  0  0  0  0  0  0  0  0  0  0  0
    2.9268    9.3748    4.7732 H   0  0  0  0  0  0  0  0  0  0  0  0
    6.1198    5.6128   -0.4114 C   0  0  0  0  0  0  0  0  0  0  0  0
    6.2987    4.6980   -0.1204 H   0  0  0  0  0  0  0  0  0  0  0  0
    6.8551    5.9283   -0.9644 H   0  0  0  0  0  0  0  0  0  0  0  0
    5.2940    5.6327   -0.9268 H   0  0  0  0  0  0  0  0  0  0  0  0
    5.9922    6.4976    0.7939 C   0  0  0  0  0  0  0  0  0  0  0  0
    6.4163    7.8129    0.9519 C   0  0  0  0  0  0  0  0  0  0  0  0
    6.8576    8.3496    0.3048 H   0  0  0  0  0  0  0  0  0  0  0  0
    6.0673    8.1805    2.2386 C   0  0  0  0  0  0  0  0  0  0  0  0
    6.2649    9.4903    2.9322 C   0  0  0  0  0  0  0  0  0  0  0  0
    5.3989    9.8905    3.1253 H   0  0  0  0  0  0  0  0  0  0  0  0
    6.7734   10.0895    2.3565 H   0  0  0  0  0  0  0  0  0  0  0  0
    6.7512    9.3477    3.7636 H   0  0  0  0  0  0  0  0  0  0  0  0
    5.5311    2.2018    5.2874 C   0  0  0  0  0  0  0  0  0  0  0  0
    4.6123    1.8876    5.2297 H   0  0  0  0  0  0  0  0  0  0  0  0
    5.9720    1.7791    6.0474 H   0  0  0  0  0  0  0  0  0  0  0  0
    6.0030    1.9690    4.4697 H   0  0  0  0  0  0  0  0  0  0  0  0
    5.5395    3.6851    5.4768 C   0  0  0  0  0  0  0  0  0  0  0  0
    5.9070    4.4136    6.6193 C   0  0  0  0  0  0  0  0  0  0  0  0
    6.2014    4.0647    7.4520 H   0  0  0  0  0  0  0  0  0  0  0  0
    5.7529    5.7540    6.2807 C   0  0  0  0  0  0  0  0  0  0  0  0
    6.0231    6.9749    7.0883 C   0  0  0  0  0  0  0  0  0  0  0  0
    6.6548    7.5385    6.6093 H   0  0  0  0  0  0  0  0  0  0  0  0
    6.4004    6.7243    7.9512 H   0  0  0  0  0  0  0  0  0  0  0  0
    5.1937    7.4661    7.2263 H   0  0  0  0  0  0  0  0  0  0  0  0
    3.1966    2.6361    2.9710 C   0  0  0  0  0  0  0  0  0  0  0  0
    3.4850    4.0650    0.6572 C   0  0  0  0  0  0  0  0  0  0  0  0
    5.4876    2.8948    1.8561 C   0  0  0  0  0  0  0  0  0  0  0  0
    8.5360    3.5527    2.7654 C   0  0  0  0  0  0  0  0  0  0  0  0
    8.5733    3.6390    4.1625 C   0  0  0  0  0  0  0  0  0  0  0  0
    8.5331    2.8465    4.6867 H   0  0  0  0  0  0  0  0  0  0  0  0
    8.6705    4.8759    4.7820 C   0  0  0  0  0  0  0  0  0  0  0  0
    8.7088    4.9271    5.7301 H   0  0  0  0  0  0  0  0  0  0  0  0
    8.7083    6.0326    4.0283 C   0  0  0  0  0  0  0  0  0  0  0  0
    8.7702    6.8781    4.4572 H   0  0  0  0  0  0  0  0  0  0  0  0
    8.6574    5.9578    2.6475 C   0  0  0  0  0  0  0  0  0  0  0  0
    8.6798    6.7515    2.1283 H   0  0  0  0  0  0  0  0  0  0  0  0
    8.5735    4.7176    2.0191 C   0  0  0  0  0  0  0  0  0  0  0  0
    8.5409    4.6708    1.0710 H   0  0  0  0  0  0  0  0  0  0  0  0
    9.0169    0.7403    3.0889 C   0  0  0  0  0  0  0  0  0  0  0  0
   10.2069    0.9598    3.7962 C   0  0  0  0  0  0  0  0  0  0  0  0
   10.7023    1.7580    3.6520 H   0  0  0  0  0  0  0  0  0  0  0  0
   10.6677    0.0115    4.7130 C   0  0  0  0  0  0  0  0  0  0  0  0
   11.4811    0.1598    5.1796 H   0  0  0  0  0  0  0  0  0  0  0  0
    9.9433   -1.1410    4.9413 C   0  0  0  0  0  0  0  0  0  0  0  0
   10.2598   -1.7851    5.5658 H   0  0  0  0  0  0  0  0  0  0  0  0
    8.7581   -1.3621    4.2653 C   0  0  0  0  0  0  0  0  0  0  0  0
    8.2553   -2.1500    4.4371 H   0  0  0  0  0  0  0  0  0  0  0  0
    8.2973   -0.4336    3.3322 C   0  0  0  0  0  0  0  0  0  0  0  0
    7.4907   -0.6001    2.8594 H   0  0  0  0  0  0  0  0  0  0  0  0
    9.5454    2.0695    0.5142 C   0  0  0  0  0  0  0  0  0  0  0  0
   10.8951    1.7091    0.6170 C   0  0  0  0  0  0  0  0  0  0  0  0
   11.2372    1.3599    1.4310 H   0  0  0  0  0  0  0  0  0  0  0  0
   11.7294    1.8677   -0.4816 C   0  0  0  0  0  0  0  0  0  0  0  0
   12.6449    1.6283   -0.4114 H   0  0  0  0  0  0  0  0  0  0  0  0
   11.2491    2.3659   -1.6630 C   0  0  0  0  0  0  0  0  0  0  0  0
   11.8342    2.4696   -2.4042 H   0  0  0  0  0  0  0  0  0  0  0  0
    9.9143    2.7205   -1.7821 C   0  0  0  0  0  0  0  0  0  0  0  0
    9.5828    3.0636   -2.6036 H   0  0  0  0  0  0  0  0  0  0  0  0
    9.0642    2.5721   -0.6935 C   0  0  0  0  0  0  0  0  0  0  0  0
    8.1499    2.8134   -0.7738 H   0  0  0  0  0  0  0  0  0  0  0  0
    5.0561   -1.3689   -1.0530 Pd  0  0  0  0  0  0  0  0  0  0  0  0
    7.0294   -4.1721   -2.4602 Mo  0  0  0  0  0  0  0  0  0  0  0  0
    7.3010   -0.6851   -0.1356 Br  0  0  0  0  0  0  0  0  0  0  0  0
    3.0294   -1.9525   -1.9035 P   0  0  0  0  0  0  0  0  0  0  0  0
    8.8847   -1.7450   -3.2093 O   0  0  0  0  0  0  0  0  0  0  0  0
    8.4183   -3.9891    0.3587 O   0  0  0  0  0  0  0  0  0  0  0  0
    8.5880   -5.7133   -3.2407 N   0  0  0  0  0  0  0  0  0  0  0  0
    8.1440   -6.7901   -3.9693 N   0  0  0  0  0  0  0  0  0  0  0  0
    5.9809   -6.0685   -1.9339 N   0  0  0  0  0  0  0  0  0  0  0  0
    5.9323   -7.1127   -2.8205 N   0  0  0  0  0  0  0  0  0  0  0  0
    6.2234   -4.5279   -4.5023 N   0  0  0  0  0  0  0  0  0  0  0  0
    6.0824   -5.8028   -4.9977 N   0  0  0  0  0  0  0  0  0  0  0  0
    6.6300   -7.0099   -4.1976 B   0  0  0  0  0  0  0  0  0  0  0  0
    6.4840   -7.8521   -4.7143 H   0  0  0  0  0  0  0  0  0  0  0  0
   10.7591   -4.7767   -2.4970 C   0  0  0  0  0  0  0  0  0  0  0  0
   10.1732   -4.1492   -2.0380 H   0  0  0  0  0  0  0  0  0  0  0  0
   11.3285   -5.2287   -1.8461 H   0  0  0  0  0  0  0  0  0  0  0  0
   11.3139   -4.2909   -3.1328 H   0  0  0  0  0  0  0  0  0  0  0  0
    9.9324   -5.7874   -3.2231 C   0  0  0  0  0  0  0  0  0  0  0  0
   10.3505   -6.9046   -3.9367 C   0  0  0  0  0  0  0  0  0  0  0  0
   11.2465   -7.1887   -4.0759 H   0  0  0  0  0  0  0  0  0  0  0  0
    9.2025   -7.5249   -4.4045 C   0  0  0  0  0  0  0  0  0  0  0  0
    9.0609   -8.7495   -5.2310 C   0  0  0  0  0  0  0  0  0  0  0  0
    8.6831   -8.5215   -6.0988 H   0  0  0  0  0  0  0  0  0  0  0  0
    9.9328   -9.1638   -5.3539 H   0  0  0  0  0  0  0  0  0  0  0  0
    8.4709   -9.3748   -4.7732 H   0  0  0  0  0  0  0  0  0  0  0  0
    5.2779   -5.6128    0.4114 C   0  0  0  0  0  0  0  0  0  0  0  0
    5.0990   -4.6980    0.1204 H   0  0  0  0  0  0  0  0  0  0  0  0
    4.5426   -5.9283    0.9644 H   0  0  0  0  0  0  0  0  0  0  0  0
    6.1037   -5.6327    0.9268 H   0  0  0  0  0  0  0  0  0  0  0  0
    5.4055   -6.4976   -0.7939 C   0  0  0  0  0  0  0  0  0  0  0  0
    4.9814   -7.8129   -0.9519 C   0  0  0  0  0  0  0  0  0  0  0  0
    4.5401   -8.3496   -0.3048 H   0  0  0  0  0  0  0  0  0  0  0  0
    5.3304   -8.1805   -2.2386 C   0  0  0  0  0  0  0  0  0  0  0  0
    5.1328   -9.4903   -2.9322 C   0  0  0  0  0  0  0  0  0  0  0  0
    5.9988   -9.8905   -3.1253 H   0  0  0  0  0  0  0  0  0  0  0  0
    4.6243  -10.0895   -2.3565 H   0  0  0  0  0  0  0  0  0  0  0  0
    4.6465   -9.3477   -3.7636 H   0  0  0  0  0  0  0  0  0  0  0  0
    5.8666   -2.2018   -5.2874 C   0  0  0  0  0  0  0  0  0  0  0  0
    6.7854   -1.8876   -5.2297 H   0  0  0  0  0  0  0  0  0  0  0  0
    5.4257   -1.7791   -6.0474 H   0  0  0  0  0  0  0  0  0  0  0  0
    5.3947   -1.9690   -4.4697 H   0  0  0  0  0  0  0  0  0  0  0  0
    5.8582   -3.6851   -5.4768 C   0  0  0  0  0  0  0  0  0  0  0  0
    5.4907   -4.4136   -6.6193 C   0  0  0  0  0  0  0  0  0  0  0  0
    5.1963   -4.0647   -7.4520 H   0  0  0  0  0  0  0  0  0  0  0  0
    5.6448   -5.7540   -6.2807 C   0  0  0  0  0  0  0  0  0  0  0  0
    5.3746   -6.9749   -7.0883 C   0  0  0  0  0  0  0  0  0  0  0  0
    4.7429   -7.5385   -6.6093 H   0  0  0  0  0  0  0  0  0  0  0  0
    4.9973   -6.7243   -7.9512 H   0  0  0  0  0  0  0  0  0  0  0  0
    6.2040   -7.4661   -7.2263 H   0  0  0  0  0  0  0  0  0  0  0  0
    8.2011   -2.6361   -2.9710 C   0  0  0  0  0  0  0  0  0  0  0  0
    7.9127   -4.0650   -0.6572 C   0  0  0  0  0  0  0  0  0  0  0  0
    5.9101   -2.8948   -1.8561 C   0  0  0  0  0  0  0  0  0  0  0  0
    2.8617   -3.5527   -2.7654 C   0  0  0  0  0  0  0  0  0  0  0  0
    2.8244   -3.6390   -4.1625 C   0  0  0  0  0  0  0  0  0  0  0  0
    2.8646   -2.8465   -4.6867 H   0  0  0  0  0  0  0  0  0  0  0  0
    2.7272   -4.8759   -4.7820 C   0  0  0  0  0  0  0  0  0  0  0  0
    2.6889   -4.9271   -5.7301 H   0  0  0  0  0  0  0  0  0  0  0  0
    2.6894   -6.0326   -4.0283 C   0  0  0  0  0  0  0  0  0  0  0  0
    2.6275   -6.8781   -4.4572 H   0  0  0  0  0  0  0  0  0  0  0  0
    2.7403   -5.9578   -2.6475 C   0  0  0  0  0  0  0  0  0  0  0  0
    2.7179   -6.7515   -2.1283 H   0  0  0  0  0  0  0  0  0  0  0  0
    2.8242   -4.7176   -2.0191 C   0  0  0  0  0  0  0  0  0  0  0  0
    2.8568   -4.6708   -1.0710 H   0  0  0  0  0  0  0  0  0  0  0  0
    2.3808   -0.7403   -3.0889 C   0  0  0  0  0  0  0  0  0  0  0  0
    1.1908   -0.9598   -3.7962 C   0  0  0  0  0  0  0  0  0  0  0  0
    0.6954   -1.7580   -3.6520 H   0  0  0  0  0  0  0  0  0  0  0  0
    0.7300   -0.0115   -4.7130 C   0  0  0  0  0  0  0  0  0  0  0  0
   -0.0834   -0.1598   -5.1796 H   0  0  0  0  0  0  0  0  0  0  0  0
    1.4544    1.1410   -4.9413 C   0  0  0  0  0  0  0  0  0  0  0  0
    1.1379    1.7851   -5.5658 H   0  0  0  0  0  0  0  0  0  0  0  0
    2.6396    1.3621   -4.2653 C   0  0  0  0  0  0  0  0  0  0  0  0
    3.1424    2.1500   -4.4371 H   0  0  0  0  0  0  0  0  0  0  0  0
    3.1004    0.4336   -3.3322 C   0  0  0  0  0  0  0  0  0  0  0  0
    3.9070    0.6001   -2.8594 H   0  0  0  0  0  0  0  0  0  0  0  0
    1.8523   -2.0695   -0.5142 C   0  0  0  0  0  0  0  0  0  0  0  0
    0.5026   -1.7091   -0.6170 C   0  0  0  0  0  0  0  0  0  0  0  0
    0.1605   -1.3599   -1.4310 H   0  0  0  0  0  0  0  0  0  0  0  0
   -0.3317   -1.8677    0.4816 C   0  0  0  0  0  0  0  0  0  0  0  0
   -1.2472   -1.6283    0.4114 H   0  0  0  0  0  0  0  0  0  0  0  0
    0.1486   -2.3659    1.6630 C   0  0  0  0  0  0  0  0  0  0  0  0
   -0.4365   -2.4696    2.4042 H   0  0  0  0  0  0  0  0  0  0  0  0
    1.4834   -2.7205    1.7821 C   0  0  0  0  0  0  0  0  0  0  0  0
    1.8149   -3.0636    2.6036 H   0  0  0  0  0  0  0  0  0  0  0  0
    2.3335   -2.5721    0.6935 C   0  0  0  0  0  0  0  0  0  0  0  0
    3.2478   -2.8134    0.7738 H   0  0  0  0  0  0  0  0  0  0  0  0
  1  3  1  0  0  0  0
  2  7  1  0  0  0  0
  3 87  1  0  0  0  0
  4  1  1  0  0  0  0
  5 51  3  0  0  0  0
  6 52  3  0  0  0  0
  7  8  4  0  0  0  0
  8 13  1  0  0  0  0
  9  2  1  0  0  0  0
 10  9  4  0  0  0  0
 11  2  1  0  0  0  0
 12 11  4  0  0  0  0
 13 10  1  0  0  0  0
 14 13  1  0  0  0  0
 15 16  1  0  0  0  0
 17 15  1  0  0  0  0
 18 15  1  0  0  0  0
 19  7  4  0  0  0  0
 20 19  4  0  0  0  0
 21 20  1  0  0  0  0
 22  8  4  0  0  0  0
 23 22  1  0  0  0  0
 24 23  1  0  0  0  0
 25 23  1  0  0  0  0
 26 23  1  0  0  0  0
 27 28  1  0  0  0  0
 29 27  1  0  0  0  0
 30 27  1  0  0  0  0
 31  9  4  0  0  0  0
 32 31  4  0  0  0  0
 33 32  1  0  0  0  0
 34 10  4  0  0  0  0
 35 34  1  0  0  0  0
 36 35  1  0  0  0  0
 37 35  1  0  0  0  0
 38 35  1  0  0  0  0
 39 40  1  0  0  0  0
 41 39  1  0  0  0  0
 42 39  1  0  0  0  0
 43 11  4  0  0  0  0
 44 43  4  0  0  0  0
 45 44  1  0  0  0  0
 46 12  4  0  0  0  0
 47 46  1  0  0  0  0
 48 47  1  0  0  0  0
 49 47  1  0  0  0  0
 50 47  1  0  0  0  0
 51  2  1  0  0  0  0
 52  2  1  0  0  0  0
 53  1  1  0  0  0  0
 54  4  1  0  0  0  0
 55 54  4  0  0  0  0
 56 55  1  0  0  0  0
 57 55  4  0  0  0  0
 58 57  1  0  0  0  0
 59 57  4  0  0  0  0
 60 59  1  0  0  0  0
 61 59  4  0  0  0  0
 62 61  1  0  0  0  0
 63 54  4  0  0  0  0
 64 63  1  0  0  0  0
 65  4  1  0  0  0  0
 66 65  4  0  0  0  0
 67 66  1  0  0  0  0
 68 66  4  0  0  0  0
 69 68  1  0  0  0  0
 70 68  4  0  0  0  0
 71 70  1  0  0  0  0
 72 70  4  0  0  0  0
 73 72  1  0  0  0  0
 74 65  4  0  0  0  0
 75 74  1  0  0  0  0
 76  4  1  0  0  0  0
 77 76  4  0  0  0  0
 78 77  1  0  0  0  0
 79 77  4  0  0  0  0
 80 79  1  0  0  0  0
 81 79  4  0  0  0  0
 82 81  1  0  0  0  0
 83 81  4  0  0  0  0
 84 83  1  0  0  0  0
 85 76  4  0  0  0  0
 86 85  1  0  0  0  0
 87 89  1  0  0  0  0
 88 93  1  0  0  0  0
 89  1  1  0  0  0  0
 90 87  1  0  0  0  0
 91137  3  0  0  0  0
 92138  3  0  0  0  0
 93 94  4  0  0  0  0
 94 99  1  0  0  0  0
 95 88  1  0  0  0  0
 96 95  4  0  0  0  0
 97 88  1  0  0  0  0
 98 97  4  0  0  0  0
 99 96  1  0  0  0  0
100 99  1  0  0  0  0
101102  1  0  0  0  0
103101  1  0  0  0  0
104101  1  0  0  0  0
105 93  4  0  0  0  0
106105  4  0  0  0  0
107106  1  0  0  0  0
108 94  4  0  0  0  0
109108  1  0  0  0  0
110109  1  0  0  0  0
111109  1  0  0  0  0
112109  1  0  0  0  0
113114  1  0  0  0  0
115113  1  0  0  0  0
116113  1  0  0  0  0
117 95  4  0  0  0  0
118117  4  0  0  0  0
119118  1  0  0  0  0
120 96  4  0  0  0  0
121120  1  0  0  0  0
122121  1  0  0  0  0
123121  1  0  0  0  0
124121  1  0  0  0  0
125126  1  0  0  0  0
127125  1  0  0  0  0
128125  1  0  0  0  0
129 97  4  0  0  0  0
130129  4  0  0  0  0
131130  1  0  0  0  0
132 98  4  0  0  0  0
133132  1  0  0  0  0
134133  1  0  0  0  0
135133  1  0  0  0  0
136133  1  0  0  0  0
137 88  1  0  0  0  0
138 88  1  0  0  0  0
139 87  1  0  0  0  0
140 90  1  0  0  0  0
141140  4  0  0  0  0
142141  1  0  0  0  0
143141  4  0  0  0  0
144143  1  0  0  0  0
145143  4  0  0  0  0
146145  1  0  0  0  0
147145  4  0  0  0  0
148147  1  0  0  0  0
149140  4  0  0  0  0
150149  1  0  0  0  0
151 90  1  0  0  0  0
152151  4  0  0  0  0
153152  1  0  0  0  0
154152  4  0  0  0  0
155154  1  0  0  0  0
156154  4  0  0  0  0
157156  1  0  0  0  0
158156  4  0  0  0  0
159158  1  0  0  0  0
160151  4  0  0  0  0
161160  1  0  0  0  0
162 90  1  0  0  0  0
163162  4  0  0  0  0
164163  1  0  0  0  0
165163  4  0  0  0  0
166165  1  0  0  0  0
167165  4  0  0  0  0
168167  1  0  0  0  0
169167  4  0  0  0  0
170169  1  0  0  0  0
171162  4  0  0  0  0
172171  1  0  0  0  0
  2 53  3  0  0  0  0
 12 13  1  0  0  0  0
 15 19  1  0  0  0  0
 20 22  4  0  0  0  0
 27 31  1  0  0  0  0
 32 34  4  0  0  0  0
 39 43  1  0  0  0  0
 44 46  4  0  0  0  0
 61 63  4  0  0  0  0
 72 74  4  0  0  0  0
 83 85  4  0  0  0  0
 88139  3  0  0  0  0
 98 99  1  0  0  0  0
101105  1  0  0  0  0
106108  4  0  0  0  0
113117  1  0  0  0  0
118120  4  0  0  0  0
125129  1  0  0  0  0
130132  4  0  0  0  0
147149  4  0  0  0  0
158160  4  0  0  0  0
169171  4  0  0  0  0
M  END
$$$$
HULXEU

From CSD data. Using bond type 'Any'. No disordered atoms. Largest molecule.
172188  0  0  0  0  0  0  0  0999 V2000
    2.9757    4.0433   12.8087 Pd  0  0  0  0  0  0  0  0  0  0  0  0
    3.7122    5.4768   16.1510 Pd  0  0  0  0  0  0  0  0  0  0  0  0
    2.0852    5.9746    9.7772 Mo  0  0  0  0  0  0  0  0  0  0  0  0
    4.1461    3.5933   19.3097 Mo  0  0  0  0  0  0  0  0  0  0  0  0
    3.5022    3.1779   15.1655 Br  0  0  0  0  0  0  0  0  0  0  0  0
    3.4846    6.3139   13.7351 Br  0  0  0  0  0  0  0  0  0  0  0  0
    2.5121    1.9793   11.9919 P   0  0  0  0  0  0  0  0  0  0  0  0
    3.9782    7.5481   17.0348 P   0  0  0  0  0  0  0  0  0  0  0  0
    4.6876    7.4611   10.6950 O   0  0  0  0  0  0  0  0  0  0  0  0
    0.5122    7.5606   11.9925 O   0  0  0  0  0  0  0  0  0  0  0  0
    5.8682    1.8284   17.3728 O   0  0  0  0  0  0  0  0  0  0  0  0
    1.6564    2.1423   18.0469 O   0  0  0  0  0  0  0  0  0  0  0  0
    1.6290    7.6098    8.1886 N   0  0  0  0  0  0  0  0  0  0  0  0
    1.3731    7.2221    6.8906 N   0  0  0  0  0  0  0  0  0  0  0  0
    0.2805    5.1103    8.8172 N   0  0  0  0  0  0  0  0  0  0  0  0
    0.1568    5.0998    7.4558 N   0  0  0  0  0  0  0  0  0  0  0  0
    3.1358    5.0236    8.0683 N   0  0  0  0  0  0  0  0  0  0  0  0
    2.5852    5.0131    6.8030 N   0  0  0  0  0  0  0  0  0  0  0  0
    4.4234    2.0041   20.9953 N   0  0  0  0  0  0  0  0  0  0  0  0
    4.5265    2.4480   22.3013 N   0  0  0  0  0  0  0  0  0  0  0  0
    5.8455    4.4731   20.4195 N   0  0  0  0  0  0  0  0  0  0  0  0
    5.8328    4.5481   21.8003 N   0  0  0  0  0  0  0  0  0  0  0  0
    2.9072    4.6055   20.8675 N   0  0  0  0  0  0  0  0  0  0  0  0
    3.3315    4.6570   22.1865 N   0  0  0  0  0  0  0  0  0  0  0  0
    2.4787    4.8468   11.1342 C   0  0  0  0  0  0  0  0  0  0  0  0
    3.9548    4.6933   17.8905 C   0  0  0  0  0  0  0  0  0  0  0  0
    3.7234    6.9141   10.3647 C   0  0  0  0  0  0  0  0  0  0  0  0
    1.0691    6.9914   11.1640 C   0  0  0  0  0  0  0  0  0  0  0  0
    5.2568    2.4855   18.0910 C   0  0  0  0  0  0  0  0  0  0  0  0
    2.5688    2.6565   18.5207 C   0  0  0  0  0  0  0  0  0  0  0  0
    1.8212    9.7521    9.4537 C   0  0  0  0  0  0  0  0  0  0  0  0
    1.0018    9.7885    9.9551 H   0  0  0  0  0  0  0  0  0  0  0  0
    2.0955   10.6433    9.2265 H   0  0  0  0  0  0  0  0  0  0  0  0
    2.5013    9.3321    9.9838 H   0  0  0  0  0  0  0  0  0  0  0  0
    1.6035    8.9579    8.1932 C   0  0  0  0  0  0  0  0  0  0  0  0
    1.3547    9.4183    6.9070 C   0  0  0  0  0  0  0  0  0  0  0  0
    1.2933   10.3063    6.6382 H   0  0  0  0  0  0  0  0  0  0  0  0
    1.2166    8.3161    6.1077 C   0  0  0  0  0  0  0  0  0  0  0  0
    0.9813    8.2423    4.6295 C   0  0  0  0  0  0  0  0  0  0  0  0
    1.6248    7.6525    4.2315 H   0  0  0  0  0  0  0  0  0  0  0  0
    1.0682    9.1179    4.2470 H   0  0  0  0  0  0  0  0  0  0  0  0
    0.0957    7.9078    4.4643 H   0  0  0  0  0  0  0  0  0  0  0  0
   -1.0867    4.4239   10.7973 C   0  0  0  0  0  0  0  0  0  0  0  0
   -0.2459    4.3478   11.2554 H   0  0  0  0  0  0  0  0  0  0  0  0
   -1.6176    3.6438   10.9715 H   0  0  0  0  0  0  0  0  0  0  0  0
   -1.5513    5.2038   11.1113 H   0  0  0  0  0  0  0  0  0  0  0  0
   -0.8408    4.5469    9.3105 C   0  0  0  0  0  0  0  0  0  0  0  0
   -1.6726    4.1440    8.2620 C   0  0  0  0  0  0  0  0  0  0  0  0
   -2.4941    3.7127    8.3316 H   0  0  0  0  0  0  0  0  0  0  0  0
   -1.0231    4.5153    7.1075 C   0  0  0  0  0  0  0  0  0  0  0  0
   -1.4740    4.3419    5.6866 C   0  0  0  0  0  0  0  0  0  0  0  0
   -1.5018    5.1981    5.2535 H   0  0  0  0  0  0  0  0  0  0  0  0
   -2.3487    3.9476    5.6736 H   0  0  0  0  0  0  0  0  0  0  0  0
   -0.8575    3.7692    5.2239 H   0  0  0  0  0  0  0  0  0  0  0  0
    5.2199    4.2061    9.1186 C   0  0  0  0  0  0  0  0  0  0  0  0
    5.7082    5.0190    9.2653 H   0  0  0  0  0  0  0  0  0  0  0  0
    5.8341    3.4927    8.9306 H   0  0  0  0  0  0  0  0  0  0  0  0
    4.7110    3.9917    9.9039 H   0  0  0  0  0  0  0  0  0  0  0  0
    4.2935    4.3841    7.9583 C   0  0  0  0  0  0  0  0  0  0  0  0
    4.5124    3.9870    6.6434 C   0  0  0  0  0  0  0  0  0  0  0  0
    5.2511    3.5288    6.3090 H   0  0  0  0  0  0  0  0  0  0  0  0
    3.4101    4.4146    5.9387 C   0  0  0  0  0  0  0  0  0  0  0  0
    3.0875    4.2517    4.4834 C   0  0  0  0  0  0  0  0  0  0  0  0
    2.2241    3.8422    4.3906 H   0  0  0  0  0  0  0  0  0  0  0  0
    3.7511    3.6956    4.0674 H   0  0  0  0  0  0  0  0  0  0  0  0
    3.0804    5.1125    4.0578 H   0  0  0  0  0  0  0  0  0  0  0  0
    4.3649   -0.1628   19.8185 C   0  0  0  0  0  0  0  0  0  0  0  0
    3.7067    0.1905   19.2180 H   0  0  0  0  0  0  0  0  0  0  0  0
    4.1372   -1.0665   20.0499 H   0  0  0  0  0  0  0  0  0  0  0  0
    5.2269   -0.1488   19.3956 H   0  0  0  0  0  0  0  0  0  0  0  0
    4.4082    0.6676   21.0532 C   0  0  0  0  0  0  0  0  0  0  0  0
    4.5009    0.2343   22.3767 C   0  0  0  0  0  0  0  0  0  0  0  0
    4.5202   -0.6447   22.6787 H   0  0  0  0  0  0  0  0  0  0  0  0
    4.5624    1.3739   23.1387 C   0  0  0  0  0  0  0  0  0  0  0  0
    4.6443    1.5262   24.6341 C   0  0  0  0  0  0  0  0  0  0  0  0
    5.4341    2.0217   24.8615 H   0  0  0  0  0  0  0  0  0  0  0  0
    4.6828    0.6576   25.0414 H   0  0  0  0  0  0  0  0  0  0  0  0
    3.8692    1.9945   24.9506 H   0  0  0  0  0  0  0  0  0  0  0  0
    7.4126    5.1103   18.5694 C   0  0  0  0  0  0  0  0  0  0  0  0
    7.6168    4.2311   18.2436 H   0  0  0  0  0  0  0  0  0  0  0  0
    8.1849    5.6725   18.4829 H   0  0  0  0  0  0  0  0  0  0  0  0
    6.6880    5.4804   18.0587 H   0  0  0  0  0  0  0  0  0  0  0  0
    7.0085    5.0271   20.0304 C   0  0  0  0  0  0  0  0  0  0  0  0
    7.7254    5.4816   21.1649 C   0  0  0  0  0  0  0  0  0  0  0  0
    8.5474    5.9169   21.1720 H   0  0  0  0  0  0  0  0  0  0  0  0
    6.9605    5.1489   22.2449 C   0  0  0  0  0  0  0  0  0  0  0  0
    7.2645    5.3844   23.6888 C   0  0  0  0  0  0  0  0  0  0  0  0
    6.5719    5.9248   24.0762 H   0  0  0  0  0  0  0  0  0  0  0  0
    8.1064    5.8378   23.7675 H   0  0  0  0  0  0  0  0  0  0  0  0
    7.3085    4.5429   24.1473 H   0  0  0  0  0  0  0  0  0  0  0  0
    0.9291    5.3153   19.5635 C   0  0  0  0  0  0  0  0  0  0  0  0
    1.5251    5.5027   18.8348 H   0  0  0  0  0  0  0  0  0  0  0  0
    0.2947    6.0302   19.6505 H   0  0  0  0  0  0  0  0  0  0  0  0
    0.4642    4.4931   19.3937 H   0  0  0  0  0  0  0  0  0  0  0  0
    1.7143    5.1911   20.8269 C   0  0  0  0  0  0  0  0  0  0  0  0
    1.3596    5.6069   22.1131 C   0  0  0  0  0  0  0  0  0  0  0  0
    0.5777    6.0449   22.3610 H   0  0  0  0  0  0  0  0  0  0  0  0
    2.3826    5.2485   22.9325 C   0  0  0  0  0  0  0  0  0  0  0  0
    2.5391    5.4394   24.4221 C   0  0  0  0  0  0  0  0  0  0  0  0
    2.5170    4.5843   24.8581 H   0  0  0  0  0  0  0  0  0  0  0  0
    1.8222    5.9856   24.7515 H   0  0  0  0  0  0  0  0  0  0  0  0
    3.3785    5.8691   24.6032 H   0  0  0  0  0  0  0  0  0  0  0  0
    3.7240    0.7414   12.5792 C   0  0  0  0  0  0  0  0  0  0  0  0
    3.4008   -0.6161   12.6852 C   0  0  0  0  0  0  0  0  0  0  0  0
    2.5369   -0.8988   12.4897 H   0  0  0  0  0  0  0  0  0  0  0  0
    4.3356   -1.5297   13.0748 C   0  0  0  0  0  0  0  0  0  0  0  0
    4.1086   -2.4299   13.1399 H   0  0  0  0  0  0  0  0  0  0  0  0
    5.6204   -1.1127   13.3699 C   0  0  0  0  0  0  0  0  0  0  0  0
    6.2583   -1.7341   13.6411 H   0  0  0  0  0  0  0  0  0  0  0  0
    5.9634    0.2167   13.2610 C   0  0  0  0  0  0  0  0  0  0  0  0
    6.8268    0.4960   13.4641 H   0  0  0  0  0  0  0  0  0  0  0  0
    5.0030    1.1455   12.8456 C   0  0  0  0  0  0  0  0  0  0  0  0
    5.2352    2.0410   12.7497 H   0  0  0  0  0  0  0  0  0  0  0  0
    2.4678    1.7136   10.1928 C   0  0  0  0  0  0  0  0  0  0  0  0
    3.6025    1.2568    9.5110 C   0  0  0  0  0  0  0  0  0  0  0  0
    4.3704    1.0381    9.9878 H   0  0  0  0  0  0  0  0  0  0  0  0
    3.5924    1.1268    8.1417 C   0  0  0  0  0  0  0  0  0  0  0  0
    4.3536    0.8287    7.6963 H   0  0  0  0  0  0  0  0  0  0  0  0
    2.4406    1.4454    7.4197 C   0  0  0  0  0  0  0  0  0  0  0  0
    2.4377    1.3724    6.4936 H   0  0  0  0  0  0  0  0  0  0  0  0
    1.3067    1.8670    8.0786 C   0  0  0  0  0  0  0  0  0  0  0  0
    0.5312    2.0495    7.5978 H   0  0  0  0  0  0  0  0  0  0  0  0
    1.3148    2.0181    9.4451 C   0  0  0  0  0  0  0  0  0  0  0  0
    0.5516    2.3242    9.8802 H   0  0  0  0  0  0  0  0  0  0  0  0
    0.8617    1.4524   12.5677 C   0  0  0  0  0  0  0  0  0  0  0  0
    0.1750    0.3631   12.0292 C   0  0  0  0  0  0  0  0  0  0  0  0
    0.5620   -0.1213   11.3347 H   0  0  0  0  0  0  0  0  0  0  0  0
   -1.0580   -0.0082   12.5018 C   0  0  0  0  0  0  0  0  0  0  0  0
   -1.4754   -0.7613   12.1513 H   0  0  0  0  0  0  0  0  0  0  0  0
   -1.6832    0.7133   13.4845 C   0  0  0  0  0  0  0  0  0  0  0  0
   -2.5316    0.4782   13.7794 H   0  0  0  0  0  0  0  0  0  0  0  0
   -1.0228    1.7956   14.0202 C   0  0  0  0  0  0  0  0  0  0  0  0
   -1.4302    2.2904   14.6939 H   0  0  0  0  0  0  0  0  0  0  0  0
    0.2253    2.1575   13.5819 C   0  0  0  0  0  0  0  0  0  0  0  0
    0.6523    2.8859   13.9719 H   0  0  0  0  0  0  0  0  0  0  0  0
    3.7211    7.8242   18.8255 C   0  0  0  0  0  0  0  0  0  0  0  0
    4.6986    7.5372   19.7440 C   0  0  0  0  0  0  0  0  0  0  0  0
    5.5155    7.2086   19.4428 H   0  0  0  0  0  0  0  0  0  0  0  0
    4.5111    7.7211   21.0933 C   0  0  0  0  0  0  0  0  0  0  0  0
    5.1918    7.5357   21.6994 H   0  0  0  0  0  0  0  0  0  0  0  0
    3.2738    8.1931   21.5316 C   0  0  0  0  0  0  0  0  0  0  0  0
    3.1281    8.3278   22.4389 H   0  0  0  0  0  0  0  0  0  0  0  0
    2.2820    8.4555   20.6464 C   0  0  0  0  0  0  0  0  0  0  0  0
    1.4588    8.7490   20.9599 H   0  0  0  0  0  0  0  0  0  0  0  0
    2.4725    8.2962   19.2656 C   0  0  0  0  0  0  0  0  0  0  0  0
    1.7950    8.4964   18.6629 H   0  0  0  0  0  0  0  0  0  0  0  0
    2.8712    8.7881   16.3063 C   0  0  0  0  0  0  0  0  0  0  0  0
    3.1545   10.1409   16.3091 C   0  0  0  0  0  0  0  0  0  0  0  0
    3.9826   10.4311   16.6210 H   0  0  0  0  0  0  0  0  0  0  0  0
    2.2396   11.0686   15.8651 C   0  0  0  0  0  0  0  0  0  0  0  0
    2.4417   11.9762   15.8994 H   0  0  0  0  0  0  0  0  0  0  0  0
    1.0374   10.6575   15.3723 C   0  0  0  0  0  0  0  0  0  0  0  0
    0.4293   11.2895   15.0607 H   0  0  0  0  0  0  0  0  0  0  0  0
    0.7107    9.3304   15.3294 C   0  0  0  0  0  0  0  0  0  0  0  0
   -0.1134    9.0620   14.9899 H   0  0  0  0  0  0  0  0  0  0  0  0
    1.6400    8.3594   15.8106 C   0  0  0  0  0  0  0  0  0  0  0  0
    1.4285    7.4537   15.7944 H   0  0  0  0  0  0  0  0  0  0  0  0
    5.6816    8.1463   16.7045 C   0  0  0  0  0  0  0  0  0  0  0  0
    6.4530    7.4950   15.7820 C   0  0  0  0  0  0  0  0  0  0  0  0
    6.1174    6.7532   15.3320 H   0  0  0  0  0  0  0  0  0  0  0  0
    7.7384    7.9483   15.5184 C   0  0  0  0  0  0  0  0  0  0  0  0
    8.2674    7.4896   14.9068 H   0  0  0  0  0  0  0  0  0  0  0  0
    8.2502    9.0798   16.1544 C   0  0  0  0  0  0  0  0  0  0  0  0
    9.1023    9.3922   15.9572 H   0  0  0  0  0  0  0  0  0  0  0  0
    7.4729    9.7123   17.0683 C   0  0  0  0  0  0  0  0  0  0  0  0
    7.7958   10.4723   17.4947 H   0  0  0  0  0  0  0  0  0  0  0  0
    6.2024    9.2461   17.3777 C   0  0  0  0  0  0  0  0  0  0  0  0
    5.6993    9.6699   18.0353 H   0  0  0  0  0  0  0  0  0  0  0  0
    1.2413    5.7182    6.5517 B   0  0  0  0  0  0  0  0  0  0  0  0
    0.9850    5.6134    5.6106 H   0  0  0  0  0  0  0  0  0  0  0  0
    4.6309    3.9531   22.5686 B   0  0  0  0  0  0  0  0  0  0  0  0
    4.7817    4.0857   23.5271 H   0  0  0  0  0  0  0  0  0  0  0  0
  1  5  1  0  0  0  0
  2  5  1  0  0  0  0
  3 13  1  0  0  0  0
  4 19  1  0  0  0  0
  6  1  1  0  0  0  0
  7  1  1  0  0  0  0
  8  2  1  0  0  0  0
  9 27  3  0  0  0  0
 10 28  3  0  0  0  0
 11 29  3  0  0  0  0
 12 30  3  0  0  0  0
 13 14  4  0  0  0  0
 14 38  4  0  0  0  0
 15  3  1  0  0  0  0
 16 15  4  0  0  0  0
 17  3  1  0  0  0  0
 18 17  4  0  0  0  0
 19 20  4  0  0  0  0
 20 74  4  0  0  0  0
 21  4  1  0  0  0  0
 22 21  4  0  0  0  0
 23  4  1  0  0  0  0
 24 23  4  0  0  0  0
 25  1  1  0  0  0  0
 26  2  1  0  0  0  0
 27  3  1  0  0  0  0
 28  3  1  0  0  0  0
 29  4  1  0  0  0  0
 30  4  1  0  0  0  0
 31 32  1  0  0  0  0
 33 31  1  0  0  0  0
 34 31  1  0  0  0  0
 35 13  4  0  0  0  0
 36 35  4  0  0  0  0
 37 36  1  0  0  0  0
 38 36  4  0  0  0  0
 39 38  1  0  0  0  0
 40 39  1  0  0  0  0
 41 39  1  0  0  0  0
 42 39  1  0  0  0  0
 43 44  1  0  0  0  0
 45 43  1  0  0  0  0
 46 43  1  0  0  0  0
 47 15  4  0  0  0  0
 48 47  4  0  0  0  0
 49 48  1  0  0  0  0
 50 16  4  0  0  0  0
 51 50  1  0  0  0  0
 52 51  1  0  0  0  0
 53 51  1  0  0  0  0
 54 51  1  0  0  0  0
 55 56  1  0  0  0  0
 57 55  1  0  0  0  0
 58 55  1  0  0  0  0
 59 17  4  0  0  0  0
 60 59  4  0  0  0  0
 61 60  1  0  0  0  0
 62 18  4  0  0  0  0
 63 62  1  0  0  0  0
 64 63  1  0  0  0  0
 65 63  1  0  0  0  0
 66 63  1  0  0  0  0
 67 68  1  0  0  0  0
 69 67  1  0  0  0  0
 70 67  1  0  0  0  0
 71 19  4  0  0  0  0
 72 71  4  0  0  0  0
 73 72  1  0  0  0  0
 74 72  4  0  0  0  0
 75 74  1  0  0  0  0
 76 75  1  0  0  0  0
 77 75  1  0  0  0  0
 78 75  1  0  0  0  0
 79 80  1  0  0  0  0
 81 79  1  0  0  0  0
 82 79  1  0  0  0  0
 83 21  4  0  0  0  0
 84 83  4  0  0  0  0
 85 84  1  0  0  0  0
 86 22  4  0  0  0  0
 87 86  1  0  0  0  0
 88 87  1  0  0  0  0
 89 87  1  0  0  0  0
 90 87  1  0  0  0  0
 91 92  1  0  0  0  0
 93 91  1  0  0  0  0
 94 91  1  0  0  0  0
 95 23  4  0  0  0  0
 96 95  4  0  0  0  0
 97 96  1  0  0  0  0
 98 24  4  0  0  0  0
 99 98  1  0  0  0  0
100 99  1  0  0  0  0
101 99  1  0  0  0  0
102 99  1  0  0  0  0
103  7  1  0  0  0  0
104103  4  0  0  0  0
105104  1  0  0  0  0
106104  4  0  0  0  0
107106  1  0  0  0  0
108106  4  0  0  0  0
109108  1  0  0  0  0
110108  4  0  0  0  0
111110  1  0  0  0  0
112103  4  0  0  0  0
113112  1  0  0  0  0
114  7  1  0  0  0  0
115114  4  0  0  0  0
116115  1  0  0  0  0
117115  4  0  0  0  0
118117  1  0  0  0  0
119117  4  0  0  0  0
120119  1  0  0  0  0
121119  4  0  0  0  0
122121  1  0  0  0  0
123114  4  0  0  0  0
124123  1  0  0  0  0
125  7  1  0  0  0  0
126125  4  0  0  0  0
127126  1  0  0  0  0
128126  4  0  0  0  0
129128  1  0  0  0  0
130128  4  0  0  0  0
131130  1  0  0  0  0
132130  4  0  0  0  0
133132  1  0  0  0  0
134125  4  0  0  0  0
135134  1  0  0  0  0
136  8  1  0  0  0  0
137136  4  0  0  0  0
138137  1  0  0  0  0
139137  4  0  0  0  0
140139  1  0  0  0  0
141139  4  0  0  0  0
142141  1  0  0  0  0
143141  4  0  0  0  0
144143  1  0  0  0  0
145136  4  0  0  0  0
146145  1  0  0  0  0
147  8  1  0  0  0  0
148147  4  0  0  0  0
149148  1  0  0  0  0
150148  4  0  0  0  0
151150  1  0  0  0  0
152150  4  0  0  0  0
153152  1  0  0  0  0
154152  4  0  0  0  0
155154  1  0  0  0  0
156147  4  0  0  0  0
157156  1  0  0  0  0
158  8  1  0  0  0  0
159158  4  0  0  0  0
160159  1  0  0  0  0
161159  4  0  0  0  0
162161  1  0  0  0  0
163161  4  0  0  0  0
164163  1  0  0  0  0
165163  4  0  0  0  0
166165  1  0  0  0  0
167158  4  0  0  0  0
168167  1  0  0  0  0
169 14  1  0  0  0  0
170169  1  0  0  0  0
171 20  1  0  0  0  0
172171  1  0  0  0  0
  2  6  1  0  0  0  0
  3 25  3  0  0  0  0
  4 26  3  0  0  0  0
 16169  1  0  0  0  0
 18169  1  0  0  0  0
 22171  1  0  0  0  0
 24171  1  0  0  0  0
 31 35  1  0  0  0  0
 43 47  1  0  0  0  0
 48 50  4  0  0  0  0
 55 59  1  0  0  0  0
 60 62  4  0  0  0  0
 67 71  1  0  0  0  0
 79 83  1  0  0  0  0
 84 86  4  0  0  0  0
 91 95  1  0  0  0  0
 96 98  4  0  0  0  0
110112  4  0  0  0  0
121123  4  0  0  0  0
132134  4  0  0  0  0
143145  4  0  0  0  0
154156  4  0  0  0  0
165167  4  0  0  0  0
M  END
$$$$
HULXIY

From CSD data. Using bond type 'Any'. No disordered atoms. Largest molecule.
172188  0  0  0  0  0  0  0  0999 V2000
    2.1299    0.3803   12.4838 Pt  0  0  0  0  0  0  0  0  0  0  0  0
    2.8812    1.8191   15.8734 Pt  0  0  0  0  0  0  0  0  0  0  0  0
    1.7235    2.3167    9.3325 Mo  0  0  0  0  0  0  0  0  0  0  0  0
    3.7145   -0.1645   18.9046 Mo  0  0  0  0  0  0  0  0  0  0  0  0
    2.3686    2.6617   13.5015 Br  0  0  0  0  0  0  0  0  0  0  0  0
    2.3616   -0.4327   14.9117 Br  0  0  0  0  0  0  0  0  0  0  0  0
    1.8399   -1.6756   11.6426 P   0  0  0  0  0  0  0  0  0  0  0  0
    3.3378    3.8653   16.6497 P   0  0  0  0  0  0  0  0  0  0  0  0
    4.2181    3.7249   10.6232 O   0  0  0  0  0  0  0  0  0  0  0  0
    0.0379    4.0738   11.3191 O   0  0  0  0  0  0  0  0  0  0  0  0
    1.1185   -1.6244   17.9151 O   0  0  0  0  0  0  0  0  0  0  0  0
    5.3168   -1.7236   16.6935 O   0  0  0  0  0  0  0  0  0  0  0  0
    1.2019    1.9290    6.0377 B   0  0  0  0  0  0  0  0  0  0  0  0
    1.0425    1.7831    5.0615 H   0  0  0  0  0  0  0  0  0  0  0  0
    4.5155    0.0945   22.1498 B   0  0  0  0  0  0  0  0  0  0  0  0
    4.7597    0.2030   23.1117 H   0  0  0  0  0  0  0  0  0  0  0  0
    1.4250    3.8836    7.6363 N   0  0  0  0  0  0  0  0  0  0  0  0
    1.3090    3.4448    6.3269 N   0  0  0  0  0  0  0  0  0  0  0  0
    0.0028    1.4260    8.2355 N   0  0  0  0  0  0  0  0  0  0  0  0
    0.0218    1.3431    6.8528 N   0  0  0  0  0  0  0  0  0  0  0  0
    2.9355    1.2953    7.7640 N   0  0  0  0  0  0  0  0  0  0  0  0
    2.5196    1.2545    6.4506 N   0  0  0  0  0  0  0  0  0  0  0  0
    4.1631   -1.7936   20.5085 N   0  0  0  0  0  0  0  0  0  0  0  0
    4.3927   -1.4085   21.8109 N   0  0  0  0  0  0  0  0  0  0  0  0
    5.5109    0.7200   19.8985 N   0  0  0  0  0  0  0  0  0  0  0  0
    5.6167    0.7223   21.2575 N   0  0  0  0  0  0  0  0  0  0  0  0
    2.6342    0.8005   20.6108 N   0  0  0  0  0  0  0  0  0  0  0  0
    3.1726    0.7970   21.8753 N   0  0  0  0  0  0  0  0  0  0  0  0
    1.4601    6.0693    8.8233 C   0  0  0  0  0  0  0  0  0  0  0  0
    0.5756    6.0856    9.2413 H   0  0  0  0  0  0  0  0  0  0  0  0
    1.7258    6.9830    8.5885 H   0  0  0  0  0  0  0  0  0  0  0  0
    2.1112    5.6900    9.4474 H   0  0  0  0  0  0  0  0  0  0  0  0
    1.4085    5.2267    7.5779 C   0  0  0  0  0  0  0  0  0  0  0  0
    1.2930    5.6515    6.2496 C   0  0  0  0  0  0  0  0  0  0  0  0
    1.2579    6.5489    5.9404 H   0  0  0  0  0  0  0  0  0  0  0  0
    1.2435    4.5184    5.4852 C   0  0  0  0  0  0  0  0  0  0  0  0
    1.1725    4.3655    4.0023 C   0  0  0  0  0  0  0  0  0  0  0  0
    1.1075    5.2489    3.5843 H   0  0  0  0  0  0  0  0  0  0  0  0
    0.3844    3.8322    3.7646 H   0  0  0  0  0  0  0  0  0  0  0  0
    1.9794    3.9127    3.6816 H   0  0  0  0  0  0  0  0  0  0  0  0
   -1.5229    0.7912   10.0887 C   0  0  0  0  0  0  0  0  0  0  0  0
   -0.7155    0.7573   10.6441 H   0  0  0  0  0  0  0  0  0  0  0  0
   -2.0583   -0.0140   10.2433 H   0  0  0  0  0  0  0  0  0  0  0  0
   -2.0484    1.5835   10.3263 H   0  0  0  0  0  0  0  0  0  0  0  0
   -1.1338    0.8659    8.6401 C   0  0  0  0  0  0  0  0  0  0  0  0
   -1.8599    0.4073    7.5350 C   0  0  0  0  0  0  0  0  0  0  0  0
   -2.7011   -0.0303    7.5436 H   0  0  0  0  0  0  0  0  0  0  0  0
   -1.0971    0.7223    6.4299 C   0  0  0  0  0  0  0  0  0  0  0  0
   -1.4078    0.4633    4.9957 C   0  0  0  0  0  0  0  0  0  0  0  0
   -0.7653   -0.1832    4.6349 H   0  0  0  0  0  0  0  0  0  0  0  0
   -1.3470    1.3011    4.4918 H   0  0  0  0  0  0  0  0  0  0  0  0
   -2.3147    0.1015    4.9184 H   0  0  0  0  0  0  0  0  0  0  0  0
    4.9374    0.5963    9.0609 C   0  0  0  0  0  0  0  0  0  0  0  0
    5.4285    1.4330    9.2098 H   0  0  0  0  0  0  0  0  0  0  0  0
    5.5733   -0.1447    8.9836 H   0  0  0  0  0  0  0  0  0  0  0  0
    4.3365    0.4329    9.8167 H   0  0  0  0  0  0  0  0  0  0  0  0
    4.1398    0.7025    7.8012 C   0  0  0  0  0  0  0  0  0  0  0  0
    4.5082    0.2964    6.5187 C   0  0  0  0  0  0  0  0  0  0  0  0
    5.3154   -0.1377    6.2668 H   0  0  0  0  0  0  0  0  0  0  0  0
    3.4666    0.6523    5.6827 C   0  0  0  0  0  0  0  0  0  0  0  0
    3.3135    0.4796    4.2141 C   0  0  0  0  0  0  0  0  0  0  0  0
    2.5061   -0.0432    4.0280 H   0  0  0  0  0  0  0  0  0  0  0  0
    4.0954    0.0093    3.8562 H   0  0  0  0  0  0  0  0  0  0  0  0
    3.2374    1.3595    3.7875 H   0  0  0  0  0  0  0  0  0  0  0  0
    3.3203    3.2313   10.1230 C   0  0  0  0  0  0  0  0  0  0  0  0
    0.6421    3.4250   10.5811 C   0  0  0  0  0  0  0  0  0  0  0  0
    1.9132    1.2043   10.7483 C   0  0  0  0  0  0  0  0  0  0  0  0
    2.1144   -1.9336    9.8548 C   0  0  0  0  0  0  0  0  0  0  0  0
    1.1112   -1.6547    8.9464 C   0  0  0  0  0  0  0  0  0  0  0  0
    0.2677   -1.3420    9.2527 H   0  0  0  0  0  0  0  0  0  0  0  0
    1.3333   -1.8298    7.5865 C   0  0  0  0  0  0  0  0  0  0  0  0
    0.6390   -1.6512    6.9624 H   0  0  0  0  0  0  0  0  0  0  0  0
    2.5646   -2.2627    7.1428 C   0  0  0  0  0  0  0  0  0  0  0  0
    2.7138   -2.3841    6.2124 H   0  0  0  0  0  0  0  0  0  0  0  0
    3.5811   -2.5206    8.0417 C   0  0  0  0  0  0  0  0  0  0  0  0
    4.4316   -2.8042    7.7297 H   0  0  0  0  0  0  0  0  0  0  0  0
    3.3535   -2.3654    9.4019 C   0  0  0  0  0  0  0  0  0  0  0  0
    4.0460   -2.5556   10.0228 H   0  0  0  0  0  0  0  0  0  0  0  0
    0.1521   -2.2685   11.9638 C   0  0  0  0  0  0  0  0  0  0  0  0
   -0.3796   -3.3795   11.2968 C   0  0  0  0  0  0  0  0  0  0  0  0
    0.1334   -3.8124   10.6269 H   0  0  0  0  0  0  0  0  0  0  0  0
   -1.6303   -3.8509   11.6031 C   0  0  0  0  0  0  0  0  0  0  0  0
   -1.9596   -4.6281   11.1651 H   0  0  0  0  0  0  0  0  0  0  0  0
   -2.4168   -3.2056   12.5364 C   0  0  0  0  0  0  0  0  0  0  0  0
   -3.2902   -3.5253   12.7339 H   0  0  0  0  0  0  0  0  0  0  0  0
   -1.9167   -2.0888   13.1805 C   0  0  0  0  0  0  0  0  0  0  0  0
   -2.4543   -1.6360   13.8218 H   0  0  0  0  0  0  0  0  0  0  0  0
   -0.6340   -1.6197   12.9057 C   0  0  0  0  0  0  0  0  0  0  0  0
   -0.2993   -0.8577   13.3638 H   0  0  0  0  0  0  0  0  0  0  0  0
    2.9663   -2.8952   12.3795 C   0  0  0  0  0  0  0  0  0  0  0  0
    2.6609   -4.2628   12.3417 C   0  0  0  0  0  0  0  0  0  0  0  0
    1.8202   -4.5499   12.0096 H   0  0  0  0  0  0  0  0  0  0  0  0
    3.5883   -5.1999   12.7826 C   0  0  0  0  0  0  0  0  0  0  0  0
    3.3814   -6.1264   12.7397 H   0  0  0  0  0  0  0  0  0  0  0  0
    4.8014   -4.7856   13.2836 C   0  0  0  0  0  0  0  0  0  0  0  0
    5.4322   -5.4298   13.5842 H   0  0  0  0  0  0  0  0  0  0  0  0
    5.1092   -3.4343   13.3523 C   0  0  0  0  0  0  0  0  0  0  0  0
    5.9395   -3.1484   13.7130 H   0  0  0  0  0  0  0  0  0  0  0  0
    4.1827   -2.5008   12.8885 C   0  0  0  0  0  0  0  0  0  0  0  0
    4.3965   -1.5765   12.9257 H   0  0  0  0  0  0  0  0  0  0  0  0
    4.0171   -3.9127   19.2354 C   0  0  0  0  0  0  0  0  0  0  0  0
    3.2474   -3.5568   18.7402 H   0  0  0  0  0  0  0  0  0  0  0  0
    3.8592   -4.8556   19.4502 H   0  0  0  0  0  0  0  0  0  0  0  0
    4.8231   -3.8322   18.6886 H   0  0  0  0  0  0  0  0  0  0  0  0
    4.1939   -3.1344   20.5065 C   0  0  0  0  0  0  0  0  0  0  0  0
    4.4350   -3.6023   21.7891 C   0  0  0  0  0  0  0  0  0  0  0  0
    4.5052   -4.5114   22.0582 H   0  0  0  0  0  0  0  0  0  0  0  0
    4.5488   -2.4879   22.6050 C   0  0  0  0  0  0  0  0  0  0  0  0
    4.7635   -2.4027   24.0851 C   0  0  0  0  0  0  0  0  0  0  0  0
    5.5582   -1.8589   24.2683 H   0  0  0  0  0  0  0  0  0  0  0  0
    4.8944   -3.3036   24.4487 H   0  0  0  0  0  0  0  0  0  0  0  0
    3.9807   -1.9908   24.5059 H   0  0  0  0  0  0  0  0  0  0  0  0
    6.8729    1.4038   17.9414 C   0  0  0  0  0  0  0  0  0  0  0  0
    7.2802    0.5753   17.6122 H   0  0  0  0  0  0  0  0  0  0  0  0
    7.4777    2.1553   17.7697 H   0  0  0  0  0  0  0  0  0  0  0  0
    6.0219    1.5555   17.4777 H   0  0  0  0  0  0  0  0  0  0  0  0
    6.6248    1.2871   19.4072 C   0  0  0  0  0  0  0  0  0  0  0  0
    7.4419    1.6874   20.4751 C   0  0  0  0  0  0  0  0  0  0  0  0
    8.2854    2.1238   20.4178 H   0  0  0  0  0  0  0  0  0  0  0  0
    6.7788    1.3186   21.6202 C   0  0  0  0  0  0  0  0  0  0  0  0
    7.2202    1.4785   23.0402 C   0  0  0  0  0  0  0  0  0  0  0  0
    6.5687    2.0281   23.5240 H   0  0  0  0  0  0  0  0  0  0  0  0
    8.0960    1.9149   23.0631 H   0  0  0  0  0  0  0  0  0  0  0  0
    7.2836    0.5975   23.4639 H   0  0  0  0  0  0  0  0  0  0  0  0
    0.5599    1.5975   19.5217 C   0  0  0  0  0  0  0  0  0  0  0  0
    1.0985    1.7539   18.7173 H   0  0  0  0  0  0  0  0  0  0  0  0
   -0.0333    2.3619   19.6706 H   0  0  0  0  0  0  0  0  0  0  0  0
    0.0233    0.7854   19.4015 H   0  0  0  0  0  0  0  0  0  0  0  0
    1.4609    1.4283   20.6984 C   0  0  0  0  0  0  0  0  0  0  0  0
    1.2334    1.8321   22.0181 C   0  0  0  0  0  0  0  0  0  0  0  0
    0.4793    2.3012   22.3531 H   0  0  0  0  0  0  0  0  0  0  0  0
    2.3313    1.4097   22.7258 C   0  0  0  0  0  0  0  0  0  0  0  0
    2.6113    1.5450   24.1939 C   0  0  0  0  0  0  0  0  0  0  0  0
    2.7595    0.6570   24.5832 H   0  0  0  0  0  0  0  0  0  0  0  0
    1.8466    1.9710   24.6376 H   0  0  0  0  0  0  0  0  0  0  0  0
    3.4118    2.0958   24.3256 H   0  0  0  0  0  0  0  0  0  0  0  0
    2.0777   -1.0958   18.2878 C   0  0  0  0  0  0  0  0  0  0  0  0
    4.7475   -1.1611   17.5321 C   0  0  0  0  0  0  0  0  0  0  0  0
    3.3329    0.9814   17.5464 C   0  0  0  0  0  0  0  0  0  0  0  0
    3.3491    4.1170   18.4439 C   0  0  0  0  0  0  0  0  0  0  0  0
    2.1973    4.5394   19.1123 C   0  0  0  0  0  0  0  0  0  0  0  0
    1.4134    4.7541   18.6199 H   0  0  0  0  0  0  0  0  0  0  0  0
    2.1936    4.6456   20.4922 C   0  0  0  0  0  0  0  0  0  0  0  0
    1.4058    4.9175   20.9417 H   0  0  0  0  0  0  0  0  0  0  0  0
    3.3429    4.3585   21.2194 C   0  0  0  0  0  0  0  0  0  0  0  0
    3.3402    4.4472   22.1670 H   0  0  0  0  0  0  0  0  0  0  0  0
    4.4863    3.9454   20.5724 C   0  0  0  0  0  0  0  0  0  0  0  0
    5.2686    3.7389   21.0705 H   0  0  0  0  0  0  0  0  0  0  0  0
    4.4933    3.8311   19.1802 C   0  0  0  0  0  0  0  0  0  0  0  0
    5.2854    3.5568   18.7344 H   0  0  0  0  0  0  0  0  0  0  0  0
    4.9909    4.3982   16.0835 C   0  0  0  0  0  0  0  0  0  0  0  0
    5.6445    5.5115   16.6388 C   0  0  0  0  0  0  0  0  0  0  0  0
    5.2290    6.0027   17.3374 H   0  0  0  0  0  0  0  0  0  0  0  0
    6.8893    5.8989   16.1751 C   0  0  0  0  0  0  0  0  0  0  0  0
    7.2993    6.6819   16.5243 H   0  0  0  0  0  0  0  0  0  0  0  0
    7.5302    5.1649   15.2217 C   0  0  0  0  0  0  0  0  0  0  0  0
    8.4006    5.4146   14.9355 H   0  0  0  0  0  0  0  0  0  0  0  0
    6.9147    4.0668   14.6749 C   0  0  0  0  0  0  0  0  0  0  0  0
    7.3564    3.5662   13.9993 H   0  0  0  0  0  0  0  0  0  0  0  0
    5.6557    3.6852   15.1015 C   0  0  0  0  0  0  0  0  0  0  0  0
    5.2424    2.9220   14.7150 H   0  0  0  0  0  0  0  0  0  0  0  0
    2.1385    5.1030   16.0585 C   0  0  0  0  0  0  0  0  0  0  0  0
    0.8456    4.6934   15.7428 C   0  0  0  0  0  0  0  0  0  0  0  0
    0.6178    3.7727   15.7972 H   0  0  0  0  0  0  0  0  0  0  0  0
   -0.1084    5.6118   15.3506 C   0  0  0  0  0  0  0  0  0  0  0  0
   -0.9925    5.3212   15.1588 H   0  0  0  0  0  0  0  0  0  0  0  0
    0.2077    6.9363   15.2389 C   0  0  0  0  0  0  0  0  0  0  0  0
   -0.4462    7.5583   14.9440 H   0  0  0  0  0  0  0  0  0  0  0  0
    1.4855    7.3716   15.5510 C   0  0  0  0  0  0  0  0  0  0  0  0
    1.7040    8.2934   15.4908 H   0  0  0  0  0  0  0  0  0  0  0  0
    2.4417    6.4555   15.9546 C   0  0  0  0  0  0  0  0  0  0  0  0
    3.3193    6.7554   16.1607 H   0  0  0  0  0  0  0  0  0  0  0  0
  1  5  1  0  0  0  0
  2  5  1  0  0  0  0
  3 17  1  0  0  0  0
  4 23  1  0  0  0  0
  6  1  1  0  0  0  0
  7  1  1  0  0  0  0
  8  2  1  0  0  0  0
  9 65  3  0  0  0  0
 10 66  3  0  0  0  0
 11137  3  0  0  0  0
 12138  3  0  0  0  0
 13 14  1  0  0  0  0
 15 16  1  0  0  0  0
 17 18  4  0  0  0  0
 18 13  1  0  0  0  0
 19  3  1  0  0  0  0
 20 13  1  0  0  0  0
 21  3  1  0  0  0  0
 22 13  1  0  0  0  0
 23 24  4  0  0  0  0
 24 15  1  0  0  0  0
 25  4  1  0  0  0  0
 26 15  1  0  0  0  0
 27  4  1  0  0  0  0
 28 15  1  0  0  0  0
 29 30  1  0  0  0  0
 31 29  1  0  0  0  0
 32 29  1  0  0  0  0
 33 17  4  0  0  0  0
 34 33  4  0  0  0  0
 35 34  1  0  0  0  0
 36 18  4  0  0  0  0
 37 36  1  0  0  0  0
 38 37  1  0  0  0  0
 39 37  1  0  0  0  0
 40 37  1  0  0  0  0
 41 42  1  0  0  0  0
 43 41  1  0  0  0  0
 44 41  1  0  0  0  0
 45 19  4  0  0  0  0
 46 45  4  0  0  0  0
 47 46  1  0  0  0  0
 48 20  4  0  0  0  0
 49 48  1  0  0  0  0
 50 49  1  0  0  0  0
 51 49  1  0  0  0  0
 52 49  1  0  0  0  0
 53 54  1  0  0  0  0
 55 53  1  0  0  0  0
 56 53  1  0  0  0  0
 57 21  4  0  0  0  0
 58 57  4  0  0  0  0
 59 58  1  0  0  0  0
 60 22  4  0  0  0  0
 61 60  1  0  0  0  0
 62 61  1  0  0  0  0
 63 61  1  0  0  0  0
 64 61  1  0  0  0  0
 65  3  1  0  0  0  0
 66  3  1  0  0  0  0
 67  1  1  0  0  0  0
 68  7  1  0  0  0  0
 69 68  4  0  0  0  0
 70 69  1  0  0  0  0
 71 69  4  0  0  0  0
 72 71  1  0  0  0  0
 73 71  4  0  0  0  0
 74 73  1  0  0  0  0
 75 73  4  0  0  0  0
 76 75  1  0  0  0  0
 77 68  4  0  0  0  0
 78 77  1  0  0  0  0
 79  7  1  0  0  0  0
 80 79  4  0  0  0  0
 81 80  1  0  0  0  0
 82 80  4  0  0  0  0
 83 82  1  0  0  0  0
 84 82  4  0  0  0  0
 85 84  1  0  0  0  0
 86 84  4  0  0  0  0
 87 86  1  0  0  0  0
 88 79  4  0  0  0  0
 89 88  1  0  0  0  0
 90  7  1  0  0  0  0
 91 90  4  0  0  0  0
 92 91  1  0  0  0  0
 93 91  4  0  0  0  0
 94 93  1  0  0  0  0
 95 93  4  0  0  0  0
 96 95  1  0  0  0  0
 97 95  4  0  0  0  0
 98 97  1  0  0  0  0
 99 90  4  0  0  0  0
100 99  1  0  0  0  0
101102  1  0  0  0  0
103101  1  0  0  0  0
104101  1  0  0  0  0
105 23  4  0  0  0  0
106105  4  0  0  0  0
107106  1  0  0  0  0
108 24  4  0  0  0  0
109108  1  0  0  0  0
110109  1  0  0  0  0
111109  1  0  0  0  0
112109  1  0  0  0  0
113114  1  0  0  0  0
115113  1  0  0  0  0
116113  1  0  0  0  0
117 25  4  0  0  0  0
118117  4  0  0  0  0
119118  1  0  0  0  0
120 26  4  0  0  0  0
121120  1  0  0  0  0
122121  1  0  0  0  0
123121  1  0  0  0  0
124121  1  0  0  0  0
125126  1  0  0  0  0
127125  1  0  0  0  0
128125  1  0  0  0  0
129 27  4  0  0  0  0
130129  4  0  0  0  0
131130  1  0  0  0  0
132 28  4  0  0  0  0
133132  1  0  0  0  0
134133  1  0  0  0  0
135133  1  0  0  0  0
136133  1  0  0  0  0
137  4  1  0  0  0  0
138  4  1  0  0  0  0
139  2  1  0  0  0  0
140  8  1  0  0  0  0
141140  4  0  0  0  0
142141  1  0  0  0  0
143141  4  0  0  0  0
144143  1  0  0  0  0
145143  4  0  0  0  0
146145  1  0  0  0  0
147145  4  0  0  0  0
148147  1  0  0  0  0
149140  4  0  0  0  0
150149  1  0  0  0  0
151  8  1  0  0  0  0
152151  4  0  0  0  0
153152  1  0  0  0  0
154152  4  0  0  0  0
155154  1  0  0  0  0
156154  4  0  0  0  0
157156  1  0  0  0  0
158156  4  0  0  0  0
159158  1  0  0  0  0
160151  4  0  0  0  0
161160  1  0  0  0  0
162  8  1  0  0  0  0
163162  4  0  0  0  0
164163  1  0  0  0  0
165163  4  0  0  0  0
166165  1  0  0  0  0
167165  4  0  0  0  0
168167  1  0  0  0  0
169167  4  0  0  0  0
170169  1  0  0  0  0
171162  4  0  0  0  0
172171  1  0  0  0  0
  2  6  1  0  0  0  0
  3 67  3  0  0  0  0
  4139  3  0  0  0  0
 19 20  4  0  0  0  0
 21 22  4  0  0  0  0
 25 26  4  0  0  0  0
 27 28  4  0  0  0  0
 29 33  1  0  0  0  0
 34 36  4  0  0  0  0
 41 45  1  0  0  0  0
 46 48  4  0  0  0  0
 53 57  1  0  0  0  0
 58 60  4  0  0  0  0
 75 77  4  0  0  0  0
 86 88  4  0  0  0  0
 97 99  4  0  0  0  0
101105  1  0  0  0  0
106108  4  0  0  0  0
113117  1  0  0  0  0
118120  4  0  0  0  0
125129  1  0  0  0  0
130132  4  0  0  0  0
147149  4  0  0  0  0
158160  4  0  0  0  0
169171  4  0  0  0  0
M  END
$$$$
HUNGUS

From CSD data. Using bond type 'Any'. No disordered atoms. Largest molecule.
204221  0  0  0  0  0  0  0  0999 V2000
    4.7217    4.9325    1.6200 Ir  0  0  0  0  0  0  0  0  0  0  0  0
    3.4955    1.9887   -4.3649 Ir  0  0  0  0  0  0  0  0  0  0  0  0
    3.9978    4.9717    3.8581 P   0  0  0  0  0  0  0  0  0  0  0  0
    3.4881    6.8807    1.1235 P   0  0  0  0  0  0  0  0  0  0  0  0
    6.5590    6.2578    2.2707 P   0  0  0  0  0  0  0  0  0  0  0  0
    3.3228    2.7108   -6.6092 P   0  0  0  0  0  0  0  0  0  0  0  0
    2.7995   -0.1500   -5.0784 P   0  0  0  0  0  0  0  0  0  0  0  0
    5.7590    1.5371   -4.7971 P   0  0  0  0  0  0  0  0  0  0  0  0
    4.7970    3.2126   -0.0621 Si  0  0  0  0  0  0  0  0  0  0  0  0
    2.6927    3.1953   -2.4186 Si  0  0  0  0  0  0  0  0  0  0  0  0
    3.9169    3.5846   -1.3902 O   0  0  0  0  0  0  0  0  0  0  0  0
    4.4816    9.1964    4.6601 C   0  0  0  0  0  0  0  0  0  0  0  0
    5.5164    9.5079    5.5387 C   0  0  0  0  0  0  0  0  0  0  0  0
    5.4530   10.5634    6.4284 C   0  0  0  0  0  0  0  0  0  0  0  0
    4.3502   11.3218    6.4813 C   0  0  0  0  0  0  0  0  0  0  0  0
    3.2775   11.0594    5.6812 C   0  0  0  0  0  0  0  0  0  0  0  0
    3.3569    9.9549    4.7916 C   0  0  0  0  0  0  0  0  0  0  0  0
    4.3972    6.5491    4.6546 C   0  0  0  0  0  0  0  0  0  0  0  0
    3.3035    7.9535    2.5538 C   0  0  0  0  0  0  0  0  0  0  0  0
    6.0180    7.8497    2.8607 C   0  0  0  0  0  0  0  0  0  0  0  0
    4.6450    3.6567    5.0035 C   0  0  0  0  0  0  0  0  0  0  0  0
    4.8212    3.9623    6.3389 C   0  0  0  0  0  0  0  0  0  0  0  0
    5.3796    3.0165    7.1956 C   0  0  0  0  0  0  0  0  0  0  0  0
    5.7037    1.7937    6.7389 C   0  0  0  0  0  0  0  0  0  0  0  0
    5.5079    1.4246    5.4182 C   0  0  0  0  0  0  0  0  0  0  0  0
    4.9882    2.4195    4.5486 C   0  0  0  0  0  0  0  0  0  0  0  0
    2.2093    4.6804    3.9896 C   0  0  0  0  0  0  0  0  0  0  0  0
    1.6996    3.4894    3.4672 C   0  0  0  0  0  0  0  0  0  0  0  0
    0.3599    3.2472    3.4051 C   0  0  0  0  0  0  0  0  0  0  0  0
   -0.5261    4.2046    3.8691 C   0  0  0  0  0  0  0  0  0  0  0  0
   -0.0677    5.3494    4.4427 C   0  0  0  0  0  0  0  0  0  0  0  0
    1.2929    5.5975    4.4993 C   0  0  0  0  0  0  0  0  0  0  0  0
    4.2326    7.8641   -0.2119 C   0  0  0  0  0  0  0  0  0  0  0  0
    4.9302    9.9549   -1.2568 C   0  0  0  0  0  0  0  0  0  0  0  0
    5.2383    9.2858   -2.3894 C   0  0  0  0  0  0  0  0  0  0  0  0
    5.0486    7.9420   -2.4862 C   0  0  0  0  0  0  0  0  0  0  0  0
    4.5429    7.2153   -1.4048 C   0  0  0  0  0  0  0  0  0  0  0  0
    4.4193    9.2426   -0.1662 C   0  0  0  0  0  0  0  0  0  0  0  0
    1.7769    6.7366    0.4677 C   0  0  0  0  0  0  0  0  0  0  0  0
    1.0030    5.6148    0.7837 C   0  0  0  0  0  0  0  0  0  0  0  0
   -0.3349    5.5340    0.3562 C   0  0  0  0  0  0  0  0  0  0  0  0
   -0.8518    6.5289   -0.4128 C   0  0  0  0  0  0  0  0  0  0  0  0
   -0.1262    7.6305   -0.7179 C   0  0  0  0  0  0  0  0  0  0  0  0
    1.2246    7.7603   -0.2923 C   0  0  0  0  0  0  0  0  0  0  0  0
    7.6341    5.5571    3.5878 C   0  0  0  0  0  0  0  0  0  0  0  0
    8.4612    6.3934    4.3386 C   0  0  0  0  0  0  0  0  0  0  0  0
    9.2434    5.8455    5.3688 C   0  0  0  0  0  0  0  0  0  0  0  0
    9.2118    4.5304    5.6301 C   0  0  0  0  0  0  0  0  0  0  0  0
    8.4495    3.6884    4.8975 C   0  0  0  0  0  0  0  0  0  0  0  0
    7.6711    4.2277    3.8526 C   0  0  0  0  0  0  0  0  0  0  0  0
    7.7927    6.4770    0.9079 C   0  0  0  0  0  0  0  0  0  0  0  0
    8.6288    5.4331    0.5937 C   0  0  0  0  0  0  0  0  0  0  0  0
    9.4818    5.4302   -0.5626 C   0  0  0  0  0  0  0  0  0  0  0  0
    9.4129    6.5606   -1.3207 C   0  0  0  0  0  0  0  0  0  0  0  0
    8.6370    7.6392   -1.0394 C   0  0  0  0  0  0  0  0  0  0  0  0
    7.7959    7.5959    0.0968 C   0  0  0  0  0  0  0  0  0  0  0  0
    4.1795    1.5486    0.5699 C   0  0  0  0  0  0  0  0  0  0  0  0
    6.5486    3.0049   -0.6394 C   0  0  0  0  0  0  0  0  0  0  0  0
    1.4220    2.2465   -1.4541 C   0  0  0  0  0  0  0  0  0  0  0  0
    1.8995    4.8044   -2.8625 C   0  0  0  0  0  0  0  0  0  0  0  0
    5.3691   -0.6258   -8.5273 C   0  0  0  0  0  0  0  0  0  0  0  0
    4.7169   -0.6719   -9.7549 C   0  0  0  0  0  0  0  0  0  0  0  0
    5.1214   -1.4967  -10.8162 C   0  0  0  0  0  0  0  0  0  0  0  0
    6.1903   -2.3186  -10.6774 C   0  0  0  0  0  0  0  0  0  0  0  0
    6.8632   -2.3359   -9.4918 C   0  0  0  0  0  0  0  0  0  0  0  0
    6.4770   -1.4967   -8.4506 C   0  0  0  0  0  0  0  0  0  0  0  0
    4.3520    1.7534   -7.7400 C   0  0  0  0  0  0  0  0  0  0  0  0
    3.5664   -0.5941   -6.6859 C   0  0  0  0  0  0  0  0  0  0  0  0
    5.9952    0.3576   -6.1525 C   0  0  0  0  0  0  0  0  0  0  0  0
    1.6135    2.6070   -7.1846 C   0  0  0  0  0  0  0  0  0  0  0  0
    1.2263    1.8254   -8.2369 C   0  0  0  0  0  0  0  0  0  0  0  0
   -0.1304    1.7303   -8.5876 C   0  0  0  0  0  0  0  0  0  0  0  0
   -1.0798    2.4137   -7.9080 C   0  0  0  0  0  0  0  0  0  0  0  0
   -0.7173    3.2241   -6.8339 C   0  0  0  0  0  0  0  0  0  0  0  0
    0.6408    3.3308   -6.5270 C   0  0  0  0  0  0  0  0  0  0  0  0
    3.7391    4.4641   -7.0111 C   0  0  0  0  0  0  0  0  0  0  0  0
    3.8366    4.8246   -8.3245 C   0  0  0  0  0  0  0  0  0  0  0  0
    4.1558    6.1223   -8.6881 C   0  0  0  0  0  0  0  0  0  0  0  0
    4.3565    7.0595   -7.6870 C   0  0  0  0  0  0  0  0  0  0  0  0
    4.2853    6.7452   -6.3937 C   0  0  0  0  0  0  0  0  0  0  0  0
    3.9483    5.4331   -6.0685 C   0  0  0  0  0  0  0  0  0  0  0  0
    0.9905   -0.4470   -5.3140 C   0  0  0  0  0  0  0  0  0  0  0  0
    0.0420    0.3864   -4.7989 C   0  0  0  0  0  0  0  0  0  0  0  0
   -1.3553    0.1355   -4.9925 C   0  0  0  0  0  0  0  0  0  0  0  0
   -1.6572   -0.9228   -5.7945 C   0  0  0  0  0  0  0  0  0  0  0  0
   -0.7701   -1.7562   -6.3334 C   0  0  0  0  0  0  0  0  0  0  0  0
    0.6217   -1.5515   -6.1196 C   0  0  0  0  0  0  0  0  0  0  0  0
    3.1913   -1.4477   -3.8398 C   0  0  0  0  0  0  0  0  0  0  0  0
    4.0893   -2.4772   -4.0554 C   0  0  0  0  0  0  0  0  0  0  0  0
    4.3841   -3.3856   -3.0068 C   0  0  0  0  0  0  0  0  0  0  0  0
    3.8019   -3.2673   -1.8395 C   0  0  0  0  0  0  0  0  0  0  0  0
    2.9147   -2.2378   -1.5655 C   0  0  0  0  0  0  0  0  0  0  0  0
    2.6174   -1.3439   -2.6342 C   0  0  0  0  0  0  0  0  0  0  0  0
    6.8211    0.8075   -3.5183 C   0  0  0  0  0  0  0  0  0  0  0  0
    8.1732    1.1016   -3.4891 C   0  0  0  0  0  0  0  0  0  0  0  0
    8.9732    0.4326   -2.5136 C   0  0  0  0  0  0  0  0  0  0  0  0
    8.4023   -0.4066   -1.6222 C   0  0  0  0  0  0  0  0  0  0  0  0
    7.0792   -0.7296   -1.6569 C   0  0  0  0  0  0  0  0  0  0  0  0
    6.2608   -0.0721   -2.6086 C   0  0  0  0  0  0  0  0  0  0  0  0
    6.6505    3.0914   -5.1898 C   0  0  0  0  0  0  0  0  0  0  0  0
    7.1589    3.3481   -6.4375 C   0  0  0  0  0  0  0  0  0  0  0  0
    7.7608    4.6054   -6.7188 C   0  0  0  0  0  0  0  0  0  0  0  0
    7.8199    5.5398   -5.7287 C   0  0  0  0  0  0  0  0  0  0  0  0
    7.3548    5.2889   -4.4865 C   0  0  0  0  0  0  0  0  0  0  0  0
    6.7049    4.0517   -4.2034 C   0  0  0  0  0  0  0  0  0  0  0  0
    4.5775    7.8814    3.6627 B   0  0  0  0  0  0  0  0  0  0  0  0
    4.8212    0.2278   -7.2906 B   0  0  0  0  0  0  0  0  0  0  0  0
    3.7657    1.6149   -3.1603 H   0  0  0  0  0  0  0  0  0  0  0  0
    4.0571    3.2010   -4.1833 H   0  0  0  0  0  0  0  0  0  0  0  0
    2.2381    2.0763   -4.1833 H   0  0  0  0  0  0  0  0  0  0  0  0
    2.5461    9.7472    4.2563 H   0  0  0  0  0  0  0  0  0  0  0  0
    6.3143    8.9686    5.5351 H   0  0  0  0  0  0  0  0  0  0  0  0
    2.4970   11.6506    5.6447 H   0  0  0  0  0  0  0  0  0  0  0  0
    4.2298   12.0254    7.1792 H   0  0  0  0  0  0  0  0  0  0  0  0
    6.1982   10.7566    7.0148 H   0  0  0  0  0  0  0  0  0  0  0  0
    7.1437    3.5759    3.2882 H   0  0  0  0  0  0  0  0  0  0  0  0
    8.4667    2.7396    5.1332 H   0  0  0  0  0  0  0  0  0  0  0  0
    8.5015    7.3537    4.1467 H   0  0  0  0  0  0  0  0  0  0  0  0
    9.8122    4.2103    6.3389 H   0  0  0  0  0  0  0  0  0  0  0  0
    9.7632    6.4886    5.9187 H   0  0  0  0  0  0  0  0  0  0  0  0
   -2.0398    0.7209   -4.5852 H   0  0  0  0  0  0  0  0  0  0  0  0
    1.8903    1.3842   -8.7867 H   0  0  0  0  0  0  0  0  0  0  0  0
    4.6564   -1.4707  -11.6547 H   0  0  0  0  0  0  0  0  0  0  0  0
   -1.3734    3.7201   -6.2840 H   0  0  0  0  0  0  0  0  0  0  0  0
    0.9068    3.9508   -5.7908 H   0  0  0  0  0  0  0  0  0  0  0  0
    7.6545   -2.8838   -9.3530 H   0  0  0  0  0  0  0  0  0  0  0  0
    0.3094    1.1824   -4.2381 H   0  0  0  0  0  0  0  0  0  0  0  0
   -2.0581    2.3359   -8.1291 H   0  0  0  0  0  0  0  0  0  0  0  0
    6.4829   -2.9126  -11.4172 H   0  0  0  0  0  0  0  0  0  0  0  0
    1.3303   -2.1340   -6.4850 H   0  0  0  0  0  0  0  0  0  0  0  0
    6.9543   -1.5284   -7.5993 H   0  0  0  0  0  0  0  0  0  0  0  0
   -0.4039    1.1535   -9.3347 H   0  0  0  0  0  0  0  0  0  0  0  0
    3.8904   -0.1154   -9.8462 H   0  0  0  0  0  0  0  0  0  0  0  0
   -2.6143   -1.0958   -5.9370 H   0  0  0  0  0  0  0  0  0  0  0  0
   -1.0011   -2.5377   -6.8869 H   0  0  0  0  0  0  0  0  0  0  0  0
    5.3033    7.4690   -3.3247 H   0  0  0  0  0  0  0  0  0  0  0  0
    5.7414    0.5479    5.0419 H   0  0  0  0  0  0  0  0  0  0  0  0
    4.5310   -2.5666   -4.9505 H   0  0  0  0  0  0  0  0  0  0  0  0
    6.3072    3.8643   -3.2882 H   0  0  0  0  0  0  0  0  0  0  0  0
    1.9860   -0.6056   -2.4661 H   0  0  0  0  0  0  0  0  0  0  0  0
    4.8351    2.1629    3.5987 H   0  0  0  0  0  0  0  0  0  0  0  0
    4.1572    9.7472    0.6576 H   0  0  0  0  0  0  0  0  0  0  0  0
    8.2179    6.4020   -5.8822 H   0  0  0  0  0  0  0  0  0  0  0  0
    7.4083    5.9695   -3.7449 H   0  0  0  0  0  0  0  0  0  0  0  0
    4.3604    6.2578   -1.4797 H   0  0  0  0  0  0  0  0  0  0  0  0
    2.4339   -2.1052   -0.6942 H   0  0  0  0  0  0  0  0  0  0  0  0
    5.0102   -4.1238   -3.1603 H   0  0  0  0  0  0  0  0  0  0  0  0
    3.9633   -3.8931   -1.0778 H   0  0  0  0  0  0  0  0  0  0  0  0
    5.0987   10.9296   -1.1509 H   0  0  0  0  0  0  0  0  0  0  0  0
    8.1510    4.8159   -7.5993 H   0  0  0  0  0  0  0  0  0  0  0  0
    5.5846    9.8049   -3.1603 H   0  0  0  0  0  0  0  0  0  0  0  0
    5.5040    3.2299    8.1473 H   0  0  0  0  0  0  0  0  0  0  0  0
    3.8667    5.1908   -5.1149 H   0  0  0  0  0  0  0  0  0  0  0  0
    4.4292    7.4402   -5.6812 H   0  0  0  0  0  0  0  0  0  0  0  0
    4.5406    7.9881   -7.9281 H   0  0  0  0  0  0  0  0  0  0  0  0
    4.2337    6.3732   -9.6270 H   0  0  0  0  0  0  0  0  0  0  0  0
    3.6392    4.1815   -9.0607 H   0  0  0  0  0  0  0  0  0  0  0  0
    7.1468    2.6819   -7.1792 H   0  0  0  0  0  0  0  0  0  0  0  0
    6.0915    1.0958    7.3253 H   0  0  0  0  0  0  0  0  0  0  0  0
    4.5983    4.8736    6.6859 H   0  0  0  0  0  0  0  0  0  0  0  0
    8.6693    4.6141    1.2057 H   0  0  0  0  0  0  0  0  0  0  0  0
    7.1858    8.3342    0.2923 H   0  0  0  0  0  0  0  0  0  0  0  0
   10.0647    4.7006   -0.8038 H   0  0  0  0  0  0  0  0  0  0  0  0
    9.9689    6.6616   -2.1556 H   0  0  0  0  0  0  0  0  0  0  0  0
    8.6252    8.5072   -1.6075 H   0  0  0  0  0  0  0  0  0  0  0  0
    0.0191    2.4224    3.0690 H   0  0  0  0  0  0  0  0  0  0  0  0
    2.3315    2.7973    3.1055 H   0  0  0  0  0  0  0  0  0  0  0  0
    1.6133    6.4309    4.9140 H   0  0  0  0  0  0  0  0  0  0  0  0
   -0.7303    5.9983    4.8592 H   0  0  0  0  0  0  0  0  0  0  0  0
   -1.4721    4.0373    3.7266 H   0  0  0  0  0  0  0  0  0  0  0  0
    5.2768   -0.2595   -2.5757 H   0  0  0  0  0  0  0  0  0  0  0  0
    9.9659    0.5768   -2.5209 H   0  0  0  0  0  0  0  0  0  0  0  0
    8.5554    1.7591   -4.1467 H   0  0  0  0  0  0  0  0  0  0  0  0
    6.6885   -1.3265   -0.9864 H   0  0  0  0  0  0  0  0  0  0  0  0
    8.9683   -0.8363   -0.9316 H   0  0  0  0  0  0  0  0  0  0  0  0
    7.1617    2.7684    0.0731 H   0  0  0  0  0  0  0  0  0  0  0  0
    6.6357    2.2782   -1.2970 H   0  0  0  0  0  0  0  0  0  0  0  0
    6.9145    3.8066   -1.0595 H   0  0  0  0  0  0  0  0  0  0  0  0
    3.2419    1.6149    0.8220 H   0  0  0  0  0  0  0  0  0  0  0  0
    4.2628    0.8651   -0.0731 H   0  0  0  0  0  0  0  0  0  0  0  0
    4.6586    1.2689    1.3701 H   0  0  0  0  0  0  0  0  0  0  0  0
    1.0623    2.7973   -0.7124 H   0  0  0  0  0  0  0  0  0  0  0  0
    0.6608    2.0187   -1.9912 H   0  0  0  0  0  0  0  0  0  0  0  0
    1.7767    1.4419   -1.0595 H   0  0  0  0  0  0  0  0  0  0  0  0
    2.5256    5.3927   -3.2882 H   0  0  0  0  0  0  0  0  0  0  0  0
    1.1599    4.7006   -3.4708 H   0  0  0  0  0  0  0  0  0  0  0  0
    1.5575    5.2485   -2.0825 H   0  0  0  0  0  0  0  0  0  0  0  0
    1.3736    4.8736    1.3153 H   0  0  0  0  0  0  0  0  0  0  0  0
   -1.7772    6.4309   -0.7307 H   0  0  0  0  0  0  0  0  0  0  0  0
   -0.8829    4.7583    0.6028 H   0  0  0  0  0  0  0  0  0  0  0  0
    1.7094    8.5937   -0.5115 H   0  0  0  0  0  0  0  0  0  0  0  0
   -0.5618    8.3342   -1.2605 H   0  0  0  0  0  0  0  0  0  0  0  0
    3.1590    8.8821    2.2652 H   0  0  0  0  0  0  0  0  0  0  0  0
    2.4457    7.7286    3.0324 H   0  0  0  0  0  0  0  0  0  0  0  0
    6.8396    0.5768   -6.6129 H   0  0  0  0  0  0  0  0  0  0  0  0
    6.1557   -0.5191   -5.7726 H   0  0  0  0  0  0  0  0  0  0  0  0
    3.7933   -1.5284   -6.6494 H   0  0  0  0  0  0  0  0  0  0  0  0
    2.8452   -0.5479   -7.3618 H   0  0  0  0  0  0  0  0  0  0  0  0
    6.7237    8.2477    3.4343 H   0  0  0  0  0  0  0  0  0  0  0  0
    5.9737    8.4784    2.0825 H   0  0  0  0  0  0  0  0  0  0  0  0
    3.9262    1.6726   -8.6040 H   0  0  0  0  0  0  0  0  0  0  0  0
    5.1941    2.2782   -7.9099 H   0  0  0  0  0  0  0  0  0  0  0  0
    3.6900    6.7481    5.2976 H   0  0  0  0  0  0  0  0  0  0  0  0
    5.1944    6.4597    5.1697 H   0  0  0  0  0  0  0  0  0  0  0  0
  1  3  1  0  0  0  0
  2  6  1  0  0  0  0
  3 18  1  0  0  0  0
  4  1  1  0  0  0  0
  5  1  1  0  0  0  0
  6 67  1  0  0  0  0
  7  2  1  0  0  0  0
  8  2  1  0  0  0  0
  9  1  1  0  0  0  0
 10  2  1  0  0  0  0
 11  9  1  0  0  0  0
 12 13  4  0  0  0  0
 13 14  4  0  0  0  0
 14 15  4  0  0  0  0
 15 16  4  0  0  0  0
 16 17  4  0  0  0  0
 17 12  4  0  0  0  0
 18106  1  0  0  0  0
 19  4  1  0  0  0  0
 20  5  1  0  0  0  0
 21  3  1  0  0  0  0
 22 21  4  0  0  0  0
 23 22  4  0  0  0  0
 24 23  4  0  0  0  0
 25 24  4  0  0  0  0
 26 21  4  0  0  0  0
 27  3  1  0  0  0  0
 28 27  4  0  0  0  0
 29 28  4  0  0  0  0
 30 29  4  0  0  0  0
 31 30  4  0  0  0  0
 32 27  4  0  0  0  0
 33  4  1  0  0  0  0
 34 35  4  0  0  0  0
 35 36  4  0  0  0  0
 36 37  4  0  0  0  0
 37 33  4  0  0  0  0
 38 33  4  0  0  0  0
 39  4  1  0  0  0  0
 40 39  4  0  0  0  0
 41 40  4  0  0  0  0
 42 41  4  0  0  0  0
 43 42  4  0  0  0  0
 44 39  4  0  0  0  0
 45  5  1  0  0  0  0
 46 45  4  0  0  0  0
 47 46  4  0  0  0  0
 48 47  4  0  0  0  0
 49 48  4  0  0  0  0
 50 45  4  0  0  0  0
 51  5  1  0  0  0  0
 52 51  4  0  0  0  0
 53 52  4  0  0  0  0
 54 53  4  0  0  0  0
 55 54  4  0  0  0  0
 56 51  4  0  0  0  0
 57  9  1  0  0  0  0
 58  9  1  0  0  0  0
 59 10  1  0  0  0  0
 60 10  1  0  0  0  0
 61 62  4  0  0  0  0
 62 63  4  0  0  0  0
 63 64  4  0  0  0  0
 64 65  4  0  0  0  0
 65 66  4  0  0  0  0
 66 61  4  0  0  0  0
 67107  1  0  0  0  0
 68  7  1  0  0  0  0
 69  8  1  0  0  0  0
 70  6  1  0  0  0  0
 71 70  4  0  0  0  0
 72 71  4  0  0  0  0
 73 72  4  0  0  0  0
 74 73  4  0  0  0  0
 75 70  4  0  0  0  0
 76  6  1  0  0  0  0
 77 76  4  0  0  0  0
 78 77  4  0  0  0  0
 79 78  4  0  0  0  0
 80 79  4  0  0  0  0
 81 76  4  0  0  0  0
 82  7  1  0  0  0  0
 83 82  4  0  0  0  0
 84 83  4  0  0  0  0
 85 84  4  0  0  0  0
 86 85  4  0  0  0  0
 87 82  4  0  0  0  0
 88  7  1  0  0  0  0
 89 88  4  0  0  0  0
 90 89  4  0  0  0  0
 91 90  4  0  0  0  0
 92 91  4  0  0  0  0
 93 88  4  0  0  0  0
 94  8  1  0  0  0  0
 95 94  4  0  0  0  0
 96 95  4  0  0  0  0
 97 96  4  0  0  0  0
 98 97  4  0  0  0  0
 99 94  4  0  0  0  0
100  8  1  0  0  0  0
101100  4  0  0  0  0
102101  4  0  0  0  0
103102  4  0  0  0  0
104103  4  0  0  0  0
105100  4  0  0  0  0
106 12  1  0  0  0  0
107 61  1  0  0  0  0
108  2  1  0  0  0  0
109  2  1  0  0  0  0
110  2  1  0  0  0  0
111 17  1  0  0  0  0
112 13  1  0  0  0  0
113 16  1  0  0  0  0
114 15  1  0  0  0  0
115 14  1  0  0  0  0
116 50  1  0  0  0  0
117 49  1  0  0  0  0
118 46  1  0  0  0  0
119 48  1  0  0  0  0
120 47  1  0  0  0  0
121 84  1  0  0  0  0
122 71  1  0  0  0  0
123 63  1  0  0  0  0
124 74  1  0  0  0  0
125 75  1  0  0  0  0
126 65  1  0  0  0  0
127 83  1  0  0  0  0
128 73  1  0  0  0  0
129 64  1  0  0  0  0
130 87  1  0  0  0  0
131 66  1  0  0  0  0
132 72  1  0  0  0  0
133 62  1  0  0  0  0
134 85  1  0  0  0  0
135 86  1  0  0  0  0
136 36  1  0  0  0  0
137 25  1  0  0  0  0
138 89  1  0  0  0  0
139105  1  0  0  0  0
140 93  1  0  0  0  0
141 26  1  0  0  0  0
142 38  1  0  0  0  0
143103  1  0  0  0  0
144104  1  0  0  0  0
145 37  1  0  0  0  0
146 92  1  0  0  0  0
147 90  1  0  0  0  0
148 91  1  0  0  0  0
149 34  1  0  0  0  0
150102  1  0  0  0  0
151 35  1  0  0  0  0
152 23  1  0  0  0  0
153 81  1  0  0  0  0
154 80  1  0  0  0  0
155 79  1  0  0  0  0
156 78  1  0  0  0  0
157 77  1  0  0  0  0
158101  1  0  0  0  0
159 24  1  0  0  0  0
160 22  1  0  0  0  0
161 52  1  0  0  0  0
162 56  1  0  0  0  0
163 53  1  0  0  0  0
164 54  1  0  0  0  0
165 55  1  0  0  0  0
166 29  1  0  0  0  0
167 28  1  0  0  0  0
168 32  1  0  0  0  0
169 31  1  0  0  0  0
170 30  1  0  0  0  0
171 99  1  0  0  0  0
172 96  1  0  0  0  0
173 95  1  0  0  0  0
174 98  1  0  0  0  0
175 97  1  0  0  0  0
176 58  1  0  0  0  0
177 58  1  0  0  0  0
178 58  1  0  0  0  0
179 57  1  0  0  0  0
180 57  1  0  0  0  0
181 57  1  0  0  0  0
182 59  1  0  0  0  0
183 59  1  0  0  0  0
184 59  1  0  0  0  0
185 60  1  0  0  0  0
186 60  1  0  0  0  0
187 60  1  0  0  0  0
188 40  1  0  0  0  0
189 42  1  0  0  0  0
190 41  1  0  0  0  0
191 44  1  0  0  0  0
192 43  1  0  0  0  0
193 19  1  0  0  0  0
194 19  1  0  0  0  0
195 69  1  0  0  0  0
196 69  1  0  0  0  0
197 68  1  0  0  0  0
198 68  1  0  0  0  0
199 20  1  0  0  0  0
200 20  1  0  0  0  0
201 67  1  0  0  0  0
202 67  1  0  0  0  0
203 18  1  0  0  0  0
204 18  1  0  0  0  0
 10 11  1  0  0  0  0
 19106  1  0  0  0  0
 20106  1  0  0  0  0
 25 26  4  0  0  0  0
 31 32  4  0  0  0  0
 34 38  4  0  0  0  0
 43 44  4  0  0  0  0
 49 50  4  0  0  0  0
 55 56  4  0  0  0  0
 68107  1  0  0  0  0
 69107  1  0  0  0  0
 74 75  4  0  0  0  0
 80 81  4  0  0  0  0
 86 87  4  0  0  0  0
 92 93  4  0  0  0  0
 98 99  4  0  0  0  0
104105  4  0  0  0  0
M  END
$$$$
HUQWIC

From CSD data. Using bond type 'Any'. Matching problem. No disordered atoms. Largest molecule.
144158  0  0  0  0  0  0  0  0999 V2000
    7.2648    1.1444    4.9034 W   0  0  0  0  0  0  0  0  0  0  0  0
    6.2153   -6.6061    2.8301 W   0  0  0  0  0  0  0  0  0  0  0  0
    7.4212   -1.2485    3.7322 Cu  0  0  0  0  0  0  0  0  0  0  0  0
    6.1723   -3.9241    2.6982 Cu  0  0  0  0  0  0  0  0  0  0  0  0
    5.4505   -1.7474    2.6481 Cl  0  0  0  0  0  0  0  0  0  0  0  0
    8.3109   -3.2422    3.0990 Cl  0  0  0  0  0  0  0  0  0  0  0  0
   10.2026   -0.8428    5.2287 P   0  3  0  0  0  0  0  0  0  0  0  0
    3.3577   -5.0358    1.5323 P   0  3  0  0  0  0  0  0  0  0  0  0
    5.3333    0.2312    5.3525 N   0  0  0  0  0  0  0  0  0  0  0  0
    4.2101    0.6607    4.7294 N   0  0  0  0  0  0  0  0  0  0  0  0
    6.4805    1.5025    2.8848 N   0  0  0  0  0  0  0  0  0  0  0  0
    5.1774    1.7446    2.7131 N   0  0  0  0  0  0  0  0  0  0  0  0
    5.2325   -8.0821    0.2077 O   0  0  0  0  0  0  0  0  0  0  0  0
    6.0995    3.0014    5.3705 N   0  0  0  0  0  0  0  0  0  0  0  0
    7.2935   -6.0729    4.6297 N   0  0  0  0  0  0  0  0  0  0  0  0
    9.7014    3.0804    4.4171 O   0  0  0  0  0  0  0  0  0  0  0  0
    4.8339    3.0622    4.8194 N   0  0  0  0  0  0  0  0  0  0  0  0
    8.1034   -6.1916    1.8169 N   0  0  0  0  0  0  0  0  0  0  0  0
    3.9171   -7.7503    4.6886 O   0  0  0  0  0  0  0  0  0  0  0  0
    8.6152   -6.4283    4.7916 N   0  0  0  0  0  0  0  0  0  0  0  0
    9.2806   -6.4855    2.3942 N   0  0  0  0  0  0  0  0  0  0  0  0
    7.1200   -8.5989    3.2494 N   0  0  0  0  0  0  0  0  0  0  0  0
    8.0111    1.1933    7.9822 O   0  0  0  0  0  0  0  0  0  0  0  0
    5.3159  -10.2743    2.9763 C   0  0  0  0  0  0  0  0  0  0  0  0
    4.7228   -9.9148    3.6394 H   0  0  0  0  0  0  0  0  0  0  0  0
    5.2823  -11.2326    3.0007 H   0  0  0  0  0  0  0  0  0  0  0  0
    5.0485   -9.9662    2.1068 H   0  0  0  0  0  0  0  0  0  0  0  0
    8.5951   -0.1709    4.8112 C   0  0  0  0  0  0  0  0  0  0  0  0
    5.5432   -7.5670    1.1464 C   0  0  0  0  0  0  0  0  0  0  0  0
    4.9230   -5.3223    2.3206 C   0  0  0  0  0  0  0  0  0  0  0  0
    4.7123   -7.3328    3.9935 C   0  0  0  0  0  0  0  0  0  0  0  0
    6.2537    4.0529    6.1538 C   0  0  0  0  0  0  0  0  0  0  0  0
    8.4758   -8.6080    3.5356 N   0  0  0  0  0  0  0  0  0  0  0  0
    3.6341   -1.0916    5.9314 C   0  0  0  0  0  0  0  0  0  0  0  0
    3.1381   -1.7736    6.3231 H   0  0  0  0  0  0  0  0  0  0  0  0
   11.2306   -0.9902    3.7662 C   0  0  0  0  0  0  0  0  0  0  0  0
   11.5092   -2.2231    3.2282 C   0  0  0  0  0  0  0  0  0  0  0  0
   11.1918   -2.9948    3.6398 H   0  0  0  0  0  0  0  0  0  0  0  0
    5.0001   -0.8399    6.0966 C   0  0  0  0  0  0  0  0  0  0  0  0
    5.0501    4.8229    6.1538 C   0  0  0  0  0  0  0  0  0  0  0  0
    4.8686    5.5936    6.6412 H   0  0  0  0  0  0  0  0  0  0  0  0
    7.7402    1.1662    6.9028 C   0  0  0  0  0  0  0  0  0  0  0  0
    3.1761   -0.1232    5.0745 C   0  0  0  0  0  0  0  0  0  0  0  0
    4.2454    4.1908    5.2953 C   0  0  0  0  0  0  0  0  0  0  0  0
   12.2706   -2.3134    2.0605 C   0  0  0  0  0  0  0  0  0  0  0  0
   12.4653   -3.1445    1.6909 H   0  0  0  0  0  0  0  0  0  0  0  0
    8.8101    2.3805    4.5986 C   0  0  0  0  0  0  0  0  0  0  0  0
   10.0325   -2.4479    6.0246 C   0  0  0  0  0  0  0  0  0  0  0  0
    9.6403   -3.0704    5.4076 H   0  0  0  0  0  0  0  0  0  0  0  0
    9.4681   -2.3639    6.7965 H   0  0  0  0  0  0  0  0  0  0  0  0
   10.8975   -2.7650    6.2929 H   0  0  0  0  0  0  0  0  0  0  0  0
    6.0780    1.5676    0.7212 C   0  0  0  0  0  0  0  0  0  0  0  0
    6.1984    1.5470   -0.2016 H   0  0  0  0  0  0  0  0  0  0  0  0
    7.5094    4.3671    6.9192 C   0  0  0  0  0  0  0  0  0  0  0  0
    7.4848    3.9260    7.7713 H   0  0  0  0  0  0  0  0  0  0  0  0
    7.5747    5.3162    7.0525 H   0  0  0  0  0  0  0  0  0  0  0  0
    8.2721    4.0615    6.4224 H   0  0  0  0  0  0  0  0  0  0  0  0
    6.0093   -1.5782    6.9437 C   0  0  0  0  0  0  0  0  0  0  0  0
    6.6282   -2.0401    6.3740 H   0  0  0  0  0  0  0  0  0  0  0  0
    5.5547   -2.2108    7.5037 H   0  0  0  0  0  0  0  0  0  0  0  0
    6.4861   -0.9499    7.4915 H   0  0  0  0  0  0  0  0  0  0  0  0
   11.6715    0.1975    3.1513 C   0  0  0  0  0  0  0  0  0  0  0  0
   11.4521    1.0271    3.5077 H   0  0  0  0  0  0  0  0  0  0  0  0
    6.8955   -5.4085    5.7434 C   0  0  0  0  0  0  0  0  0  0  0  0
   10.2886   -6.1070    1.6010 C   0  0  0  0  0  0  0  0  0  0  0  0
    4.8851    1.7795    1.3851 C   0  0  0  0  0  0  0  0  0  0  0  0
    7.0811    1.3873    1.6942 C   0  0  0  0  0  0  0  0  0  0  0  0
    8.3913   -5.5804    0.6672 C   0  0  0  0  0  0  0  0  0  0  0  0
   12.4443    0.0989    2.0000 C   0  0  0  0  0  0  0  0  0  0  0  0
   12.7660    0.8722    1.5961 H   0  0  0  0  0  0  0  0  0  0  0  0
    6.6621   -9.8333    3.2462 C   0  0  0  0  0  0  0  0  0  0  0  0
    2.2987   -6.4758    1.8005 C   0  0  0  0  0  0  0  0  0  0  0  0
    2.8015    4.5812    4.9142 C   0  0  0  0  0  0  0  0  0  0  0  0
    2.7492    4.7331    3.9682 H   0  0  0  0  0  0  0  0  0  0  0  0
    2.5525    5.3818    5.3817 H   0  0  0  0  0  0  0  0  0  0  0  0
    2.2030    3.8702    5.1576 H   0  0  0  0  0  0  0  0  0  0  0  0
    8.5205    1.1322    1.4440 C   0  0  0  0  0  0  0  0  0  0  0  0
    9.0470    1.7887    1.9060 H   0  0  0  0  0  0  0  0  0  0  0  0
    8.6958    1.1850    0.5024 H   0  0  0  0  0  0  0  0  0  0  0  0
    8.7499    0.2560    1.7640 H   0  0  0  0  0  0  0  0  0  0  0  0
   11.0682    0.2365    6.3844 C   0  0  0  0  0  0  0  0  0  0  0  0
   11.9260   -0.1397    6.5931 H   0  0  0  0  0  0  0  0  0  0  0  0
   10.5522    0.3228    7.1899 H   0  0  0  0  0  0  0  0  0  0  0  0
   11.1865    1.1025    5.9869 H   0  0  0  0  0  0  0  0  0  0  0  0
    4.2383    1.9583    3.9036 B   0  0  0  0  0  0  0  0  0  0  0  0
    7.7628  -10.6903    3.5275 C   0  0  0  0  0  0  0  0  0  0  0  0
    7.7409  -11.6180    3.5753 H   0  0  0  0  0  0  0  0  0  0  0  0
    5.4931   -4.8989    5.9183 C   0  0  0  0  0  0  0  0  0  0  0  0
    5.2871   -4.2817    5.2116 H   0  0  0  0  0  0  0  0  0  0  0  0
    5.4185   -4.4516    6.7645 H   0  0  0  0  0  0  0  0  0  0  0  0
    4.8788   -5.6351    5.8894 H   0  0  0  0  0  0  0  0  0  0  0  0
    8.8565   -9.8950    3.7106 C   0  0  0  0  0  0  0  0  0  0  0  0
    9.7830   -5.4947    0.5168 C   0  0  0  0  0  0  0  0  0  0  0  0
   10.2537   -5.1004   -0.1820 H   0  0  0  0  0  0  0  0  0  0  0  0
    1.7997    0.0473    4.5463 C   0  0  0  0  0  0  0  0  0  0  0  0
    1.4638    0.9092    4.8001 H   0  0  0  0  0  0  0  0  0  0  0  0
    1.2317   -0.6374    4.9090 H   0  0  0  0  0  0  0  0  0  0  0  0
    1.8137   -0.0231    3.5893 H   0  0  0  0  0  0  0  0  0  0  0  0
    7.3190   -5.0344   -0.2257 C   0  0  0  0  0  0  0  0  0  0  0  0
    6.7370   -5.7466   -0.4990 H   0  0  0  0  0  0  0  0  0  0  0  0
    7.7213   -4.6341   -0.9999 H   0  0  0  0  0  0  0  0  0  0  0  0
    6.8133   -4.3721    0.2508 H   0  0  0  0  0  0  0  0  0  0  0  0
    8.9966   -5.9639    6.0312 C   0  0  0  0  0  0  0  0  0  0  0  0
    1.6979   -6.5897    3.0369 C   0  0  0  0  0  0  0  0  0  0  0  0
    1.7740   -5.8763    3.6287 H   0  0  0  0  0  0  0  0  0  0  0  0
   12.7406   -1.1349    1.4473 C   0  0  0  0  0  0  0  0  0  0  0  0
   13.2498   -1.1868    0.6710 H   0  0  0  0  0  0  0  0  0  0  0  0
    2.1471   -7.5534    0.9338 C   0  0  0  0  0  0  0  0  0  0  0  0
    2.5189   -7.5109    0.0832 H   0  0  0  0  0  0  0  0  0  0  0  0
    3.4997    1.9629    0.8291 C   0  0  0  0  0  0  0  0  0  0  0  0
    3.0033    1.1474    0.9330 H   0  0  0  0  0  0  0  0  0  0  0  0
    3.5559    2.1864   -0.1026 H   0  0  0  0  0  0  0  0  0  0  0  0
    3.0561    2.6700    1.3023 H   0  0  0  0  0  0  0  0  0  0  0  0
   10.2720  -10.2579    4.0017 C   0  0  0  0  0  0  0  0  0  0  0  0
   10.8438   -9.8844    3.3277 H   0  0  0  0  0  0  0  0  0  0  0  0
   10.3635  -11.2141    4.0051 H   0  0  0  0  0  0  0  0  0  0  0  0
   10.5216   -9.9107    4.8617 H   0  0  0  0  0  0  0  0  0  0  0  0
    7.9316   -5.3396    6.5823 C   0  0  0  0  0  0  0  0  0  0  0  0
    7.9210   -4.9254    7.4147 H   0  0  0  0  0  0  0  0  0  0  0  0
    0.9937   -7.6996    3.4490 C   0  0  0  0  0  0  0  0  0  0  0  0
    0.5845   -7.7316    4.2839 H   0  0  0  0  0  0  0  0  0  0  0  0
    9.3151   -7.2947    3.7155 B   0  0  0  0  0  0  0  0  0  0  0  0
    2.5397   -3.6040    2.1423 C   0  0  0  0  0  0  0  0  0  0  0  0
    2.4198   -3.6855    3.0939 H   0  0  0  0  0  0  0  0  0  0  0  0
    1.6828   -3.5189    1.7203 H   0  0  0  0  0  0  0  0  0  0  0  0
    3.0698   -2.8269    1.9546 H   0  0  0  0  0  0  0  0  0  0  0  0
    1.4614   -8.6737    1.3083 C   0  0  0  0  0  0  0  0  0  0  0  0
    1.3556   -9.3830    0.7166 H   0  0  0  0  0  0  0  0  0  0  0  0
    0.9206   -8.7349    2.5953 C   0  0  0  0  0  0  0  0  0  0  0  0
    0.4974   -9.5165    2.8687 H   0  0  0  0  0  0  0  0  0  0  0  0
   11.7341   -6.2490    2.0197 C   0  0  0  0  0  0  0  0  0  0  0  0
   11.8625   -5.8306    2.8742 H   0  0  0  0  0  0  0  0  0  0  0  0
   12.3000   -5.8288    1.3688 H   0  0  0  0  0  0  0  0  0  0  0  0
   11.9580   -7.1812    2.0841 H   0  0  0  0  0  0  0  0  0  0  0  0
   10.4015   -6.2128    6.4875 C   0  0  0  0  0  0  0  0  0  0  0  0
   10.5543   -7.1581    6.5495 H   0  0  0  0  0  0  0  0  0  0  0  0
   10.5342   -5.8090    7.3476 H   0  0  0  0  0  0  0  0  0  0  0  0
   11.0150   -5.8299    5.8556 H   0  0  0  0  0  0  0  0  0  0  0  0
    3.6769   -4.8292   -0.2077 C   0  0  0  0  0  0  0  0  0  0  0  0
    4.0360   -5.6343   -0.5698 H   0  0  0  0  0  0  0  0  0  0  0  0
    4.3096   -4.1093   -0.3308 H   0  0  0  0  0  0  0  0  0  0  0  0
    2.8584   -4.6033   -0.6586 H   0  0  0  0  0  0  0  0  0  0  0  0
   10.3626   -7.5653    4.0393 H   0  0  0  0  0  0  0  0  0  0  0  0
    3.2135    2.1666    3.5487 H   0  0  0  0  0  0  0  0  0  0  0  0
  1  3  1  0  0  0  0
  2  4  1  0  0  0  0
  3  5  1  0  0  0  0
  4  5  1  0  0  0  0
  6  3  1  0  0  0  0
  7 28  1  0  0  0  0
  8 30  1  0  0  0  0
  9  1  1  0  0  0  0
 10  9  4  0  0  0  0
 11  1  1  0  0  0  0
 12 11  4  0  0  0  0
 13 29  3  0  0  0  0
 14  1  1  0  0  0  0
 15  2  1  0  0  0  0
 16 47  3  0  0  0  0
 17 14  4  0  0  0  0
 18  2  1  0  0  0  0
 19 31  3  0  0  0  0
 20 15  4  0  0  0  0
 21 18  4  0  0  0  0
 22  2  1  0  0  0  0
 23 42  3  0  0  0  0
 24 25  1  0  0  0  0
 26 24  1  0  0  0  0
 27 24  1  0  0  0  0
 28  1  2  0  0  0  0
 29  2  1  0  0  0  0
 30  2  2  0  0  0  0
 31  2  1  0  0  0  0
 32 14  4  0  0  0  0
 33 22  4  0  0  0  0
 34 35  1  0  0  0  0
 36  7  1  0  0  0  0
 37 36  4  0  0  0  0
 38 37  1  0  0  0  0
 39  9  4  0  0  0  0
 40 32  4  0  0  0  0
 41 40  1  0  0  0  0
 42  1  1  0  0  0  0
 43 10  4  0  0  0  0
 44 17  4  0  0  0  0
 45 37  4  0  0  0  0
 46 45  1  0  0  0  0
 47  1  1  0  0  0  0
 48  7  1  0  0  0  0
 49 48  1  0  0  0  0
 50 48  1  0  0  0  0
 51 48  1  0  0  0  0
 52 53  1  0  0  0  0
 54 32  1  0  0  0  0
 55 54  1  0  0  0  0
 56 54  1  0  0  0  0
 57 54  1  0  0  0  0
 58 39  1  0  0  0  0
 59 58  1  0  0  0  0
 60 58  1  0  0  0  0
 61 58  1  0  0  0  0
 62 36  4  0  0  0  0
 63 62  1  0  0  0  0
 64 15  4  0  0  0  0
 65 21  4  0  0  0  0
 66 12  4  0  0  0  0
 67 11  4  0  0  0  0
 68 18  4  0  0  0  0
 69 62  4  0  0  0  0
 70 69  1  0  0  0  0
 71 22  4  0  0  0  0
 72  8  1  0  0  0  0
 73 44  1  0  0  0  0
 74 73  1  0  0  0  0
 75 73  1  0  0  0  0
 76 73  1  0  0  0  0
 77 67  1  0  0  0  0
 78 77  1  0  0  0  0
 79 77  1  0  0  0  0
 80 77  1  0  0  0  0
 81  7  1  0  0  0  0
 82 81  1  0  0  0  0
 83 81  1  0  0  0  0
 84 81  1  0  0  0  0
 85 10  1  0  0  0  0
 86 71  4  0  0  0  0
 87 86  1  0  0  0  0
 88 64  1  0  0  0  0
 89 88  1  0  0  0  0
 90 88  1  0  0  0  0
 91 88  1  0  0  0  0
 92 33  4  0  0  0  0
 93 65  4  0  0  0  0
 94 93  1  0  0  0  0
 95 43  1  0  0  0  0
 96 95  1  0  0  0  0
 97 95  1  0  0  0  0
 98 95  1  0  0  0  0
 99 68  1  0  0  0  0
100 99  1  0  0  0  0
101 99  1  0  0  0  0
102 99  1  0  0  0  0
103 20  4  0  0  0  0
104 72  4  0  0  0  0
105104  1  0  0  0  0
106 45  4  0  0  0  0
107106  1  0  0  0  0
108 72  4  0  0  0  0
109108  1  0  0  0  0
110 66  1  0  0  0  0
111110  1  0  0  0  0
112110  1  0  0  0  0
113110  1  0  0  0  0
114 92  1  0  0  0  0
115114  1  0  0  0  0
116114  1  0  0  0  0
117114  1  0  0  0  0
118 64  4  0  0  0  0
119118  1  0  0  0  0
120104  4  0  0  0  0
121120  1  0  0  0  0
122 20  1  0  0  0  0
123  8  1  0  0  0  0
124123  1  0  0  0  0
125123  1  0  0  0  0
126123  1  0  0  0  0
127108  4  0  0  0  0
128127  1  0  0  0  0
129120  4  0  0  0  0
130129  1  0  0  0  0
131 65  1  0  0  0  0
132131  1  0  0  0  0
133131  1  0  0  0  0
134131  1  0  0  0  0
135103  1  0  0  0  0
136135  1  0  0  0  0
137135  1  0  0  0  0
138135  1  0  0  0  0
139  8  1  0  0  0  0
140139  1  0  0  0  0
141139  1  0  0  0  0
142139  1  0  0  0  0
143122  1  0  0  0  0
144 85  1  0  0  0  0
  3 28  1  0  0  0  0
  4  6  1  0  0  0  0
  4 30  1  0  0  0  0
 12 85  1  0  0  0  0
 17 85  1  0  0  0  0
 21122  1  0  0  0  0
 24 71  1  0  0  0  0
 33122  1  0  0  0  0
 34 39  4  0  0  0  0
 34 43  4  0  0  0  0
 40 44  4  0  0  0  0
 52 66  4  0  0  0  0
 52 67  4  0  0  0  0
 68 93  4  0  0  0  0
 69106  4  0  0  0  0
 86 92  4  0  0  0  0
103118  4  0  0  0  0
127129  4  0  0  0  0
M  CHG  2   7   1   8   1
M  END
$$$$
HUQYIE

From CSD data. Using bond type 'Any'. No disordered atoms. Largest molecule.
254283  0  0  0  0  0  0  0  0999 V2000
   -0.0899   22.6290   19.6145 W   0  0  0  0  0  0  0  0  0  0  0  0
    9.4797   15.0170   21.2326 W   0  0  0  0  0  0  0  0  0  0  0  0
    5.5868   20.0835   21.0889 Ag  0  3  0  0  0  0  0  0  0  0  0  0
    3.7914   17.8909   21.6993 Ag  0  0  0  0  0  0  0  0  0  0  0  0
    4.7194   18.3679   18.9172 Ag  0  0  0  0  0  0  0  0  0  0  0  0
    3.9008   16.1780   18.1098 P   0  0  0  0  0  0  0  0  0  0  0  0
    5.4027   19.9946   17.1967 P   0  0  0  0  0  0  0  0  0  0  0  0
    6.6759   21.6122   19.5133 P   0  0  0  0  0  0  0  0  0  0  0  0
    2.6795   15.8411   20.9547 P   0  0  0  0  0  0  0  0  0  0  0  0
    5.9966   20.5461   23.4694 P   0  0  0  0  0  0  0  0  0  0  0  0
    4.1153   18.2273   24.1370 P   0  0  0  0  0  0  0  0  0  0  0  0
   -1.6222   22.3088   16.8541 N   0  0  0  0  0  0  0  0  0  0  0  0
   -2.5221   24.2052   18.2567 N   0  0  0  0  0  0  0  0  0  0  0  0
    8.9357   13.1641   20.1810 N   0  0  0  0  0  0  0  0  0  0  0  0
   -0.9785   21.6165   17.8689 N   0  0  0  0  0  0  0  0  0  0  0  0
   -0.3141   24.4227   17.0365 N   0  0  0  0  0  0  0  0  0  0  0  0
   10.3003   15.5077   19.2601 N   0  0  0  0  0  0  0  0  0  0  0  0
    0.5330   24.0765   18.0172 N   0  0  0  0  0  0  0  0  0  0  0  0
   11.4785   13.9453   21.4581 N   0  0  0  0  0  0  0  0  0  0  0  0
   11.0044   14.6193   18.5246 N   0  0  0  0  0  0  0  0  0  0  0  0
    1.0456   24.3584   21.9713 O   0  0  0  0  0  0  0  0  0  0  0  0
   11.9873   13.2438   20.4176 N   0  0  0  0  0  0  0  0  0  0  0  0
    6.7792   19.4904   16.1214 C   0  0  0  0  0  0  0  0  0  0  0  0
    2.4754   16.1756   16.9937 C   0  0  0  0  0  0  0  0  0  0  0  0
   -1.3100   20.7403   21.8230 O   0  0  0  0  0  0  0  0  0  0  0  0
    5.1811   15.2596   17.2617 C   0  0  0  0  0  0  0  0  0  0  0  0
    7.2795   18.2527   16.2126 C   0  0  0  0  0  0  0  0  0  0  0  0
    6.9039   17.6544   16.8201 H   0  0  0  0  0  0  0  0  0  0  0  0
    9.8412   12.5300   19.3086 N   0  0  0  0  0  0  0  0  0  0  0  0
    4.0490   20.4064   16.0530 C   0  0  0  0  0  0  0  0  0  0  0  0
    5.0455   14.6745   15.9788 C   0  0  0  0  0  0  0  0  0  0  0  0
    4.2281   14.7273   15.5400 H   0  0  0  0  0  0  0  0  0  0  0  0
    7.4716   14.4416   17.2133 C   0  0  0  0  0  0  0  0  0  0  0  0
    8.2976   14.3916   17.6380 H   0  0  0  0  0  0  0  0  0  0  0  0
    1.3984   21.5460   19.8930 C   0  0  0  0  0  0  0  0  0  0  0  0
    6.4361   15.0635   17.8490 C   0  0  0  0  0  0  0  0  0  0  0  0
    6.5723   15.3750   18.7141 H   0  0  0  0  0  0  0  0  0  0  0  0
    6.0876   14.0311   15.3716 C   0  0  0  0  0  0  0  0  0  0  0  0
    5.9561   13.6740   14.5221 H   0  0  0  0  0  0  0  0  0  0  0  0
   -1.9985   23.8345   19.4939 N   0  0  0  0  0  0  0  0  0  0  0  0
   -2.1174   21.4296   15.9389 C   0  0  0  0  0  0  0  0  0  0  0  0
    1.9995   17.3949   16.5462 C   0  0  0  0  0  0  0  0  0  0  0  0
    2.4515   18.1802   16.7533 H   0  0  0  0  0  0  0  0  0  0  0  0
    5.8826   21.6012   17.8803 C   0  0  0  0  0  0  0  0  0  0  0  0
    5.0867   22.1544   17.9326 H   0  0  0  0  0  0  0  0  0  0  0  0
    6.4868   22.0262   17.2528 H   0  0  0  0  0  0  0  0  0  0  0  0
    3.4371   15.0421   19.4740 C   0  0  0  0  0  0  0  0  0  0  0  0
    4.2317   14.5643   19.7592 H   0  0  0  0  0  0  0  0  0  0  0  0
    2.8118   14.3863   19.1283 H   0  0  0  0  0  0  0  0  0  0  0  0
   -3.9828   24.8485   19.7191 C   0  0  0  0  0  0  0  0  0  0  0  0
   -4.7420   25.2016   20.1226 H   0  0  0  0  0  0  0  0  0  0  0  0
    6.9242   16.9782   21.0875 C   0  0  0  0  0  0  0  0  0  0  0  0
    8.4398   21.3132   19.2487 C   0  0  0  0  0  0  0  0  0  0  0  0
    8.3788   17.8238   15.4030 C   0  0  0  0  0  0  0  0  0  0  0  0
    8.7149   16.9574   15.4599 H   0  0  0  0  0  0  0  0  0  0  0  0
    2.9172   21.1110   16.5376 C   0  0  0  0  0  0  0  0  0  0  0  0
    2.9246   21.4628   17.3974 H   0  0  0  0  0  0  0  0  0  0  0  0
   11.4358   15.2381   17.3815 C   0  0  0  0  0  0  0  0  0  0  0  0
   10.6748   17.5082   22.7182 O   0  0  0  0  0  0  0  0  0  0  0  0
    0.6499   15.0758   15.8477 C   0  0  0  0  0  0  0  0  0  0  0  0
    0.1748   14.3046   15.6360 H   0  0  0  0  0  0  0  0  0  0  0  0
    7.8105   12.4411   20.1467 C   0  0  0  0  0  0  0  0  0  0  0  0
   -3.7345   24.8056   18.3878 C   0  0  0  0  0  0  0  0  0  0  0  0
   10.3152   16.6290   18.5474 C   0  0  0  0  0  0  0  0  0  0  0  0
   -1.7683   20.1705   16.3808 C   0  0  0  0  0  0  0  0  0  0  0  0
   -1.9771   19.3672   15.9620 H   0  0  0  0  0  0  0  0  0  0  0  0
    7.9328   16.0469   21.1303 C   0  0  0  0  0  0  0  0  0  0  0  0
    0.9072   16.1511   20.6342 C   0  0  0  0  0  0  0  0  0  0  0  0
    7.3284   13.8841   15.9617 C   0  0  0  0  0  0  0  0  0  0  0  0
    8.0256   13.4379   15.5397 H   0  0  0  0  0  0  0  0  0  0  0  0
    2.6561   14.4018   21.9998 C   0  0  0  0  0  0  0  0  0  0  0  0
    5.7385   19.0829   24.4885 C   0  0  0  0  0  0  0  0  0  0  0  0
    5.7636   19.3405   25.4220 H   0  0  0  0  0  0  0  0  0  0  0  0
    6.4639   18.4585   24.3321 H   0  0  0  0  0  0  0  0  0  0  0  0
   -2.9033   24.2756   20.3720 C   0  0  0  0  0  0  0  0  0  0  0  0
   13.4003   13.0385   22.0397 C   0  0  0  0  0  0  0  0  0  0  0  0
   14.1373   12.7848   22.5477 H   0  0  0  0  0  0  0  0  0  0  0  0
    6.1002   17.8146   20.8652 C   0  0  0  0  0  0  0  0  0  0  0  0
   13.1816   12.6862   20.7682 C   0  0  0  0  0  0  0  0  0  0  0  0
    5.0711   21.8524   24.3203 C   0  0  0  0  0  0  0  0  0  0  0  0
    2.4126   20.6637   20.2237 C   0  0  0  0  0  0  0  0  0  0  0  0
    9.2760   11.4363   18.8297 C   0  0  0  0  0  0  0  0  0  0  0  0
   -0.8988   21.4449   20.9763 C   0  0  0  0  0  0  0  0  0  0  0  0
    9.0792   21.5001   18.0086 C   0  0  0  0  0  0  0  0  0  0  0  0
    8.6091   21.7176   17.2373 H   0  0  0  0  0  0  0  0  0  0  0  0
    1.8118   14.9716   16.6203 C   0  0  0  0  0  0  0  0  0  0  0  0
    2.1404   14.1420   16.8831 H   0  0  0  0  0  0  0  0  0  0  0  0
    3.2585   19.8151   20.4860 C   0  0  0  0  0  0  0  0  0  0  0  0
    0.6004   23.7150   21.1873 C   0  0  0  0  0  0  0  0  0  0  0  0
    8.4339   20.0326   14.3938 C   0  0  0  0  0  0  0  0  0  0  0  0
    8.8260   20.6141   13.7829 H   0  0  0  0  0  0  0  0  0  0  0  0
    8.7168   20.0234   23.9326 C   0  0  0  0  0  0  0  0  0  0  0  0
    8.4800   19.1241   23.9582 H   0  0  0  0  0  0  0  0  0  0  0  0
   -2.8997   21.8585   14.7672 C   0  0  0  0  0  0  0  0  0  0  0  0
   -3.6159   22.4308   15.0546 H   0  0  0  0  0  0  0  0  0  0  0  0
   -3.2637   21.0877   14.3269 H   0  0  0  0  0  0  0  0  0  0  0  0
   -2.3313   22.3370   14.1609 H   0  0  0  0  0  0  0  0  0  0  0  0
   -1.0591   20.3083   17.5468 C   0  0  0  0  0  0  0  0  0  0  0  0
    5.6725   23.8437   20.7825 C   0  0  0  0  0  0  0  0  0  0  0  0
    5.0832   23.2268   21.1534 H   0  0  0  0  0  0  0  0  0  0  0  0
    0.1846   15.4557   19.6336 C   0  0  0  0  0  0  0  0  0  0  0  0
    0.6105   14.8436   19.0774 H   0  0  0  0  0  0  0  0  0  0  0  0
    8.3376   14.0525   23.9811 O   0  0  0  0  0  0  0  0  0  0  0  0
    7.7118   20.9486   23.8015 C   0  0  0  0  0  0  0  0  0  0  0  0
    7.3413   20.4370   15.1892 C   0  0  0  0  0  0  0  0  0  0  0  0
    6.9926   21.2953   15.1152 H   0  0  0  0  0  0  0  0  0  0  0  0
    6.6414   23.4056   19.9386 C   0  0  0  0  0  0  0  0  0  0  0  0
    3.2548   23.4883   24.3118 C   0  0  0  0  0  0  0  0  0  0  0  0
    2.5286   23.8685   23.8731 H   0  0  0  0  0  0  0  0  0  0  0  0
    7.9951   11.3229   19.3457 C   0  0  0  0  0  0  0  0  0  0  0  0
    7.3848   10.6409   19.1844 H   0  0  0  0  0  0  0  0  0  0  0  0
    1.7864   20.7801   14.4366 C   0  0  0  0  0  0  0  0  0  0  0  0
    1.0165   20.8528   13.9200 H   0  0  0  0  0  0  0  0  0  0  0  0
   12.3530   13.8412   22.4930 C   0  0  0  0  0  0  0  0  0  0  0  0
   -1.7965   16.5371   20.3634 C   0  0  0  0  0  0  0  0  0  0  0  0
   -2.7152   16.6566   20.2902 H   0  0  0  0  0  0  0  0  0  0  0  0
    9.4879   22.6734   23.7587 C   0  0  0  0  0  0  0  0  0  0  0  0
    9.7201   23.5692   23.6753 H   0  0  0  0  0  0  0  0  0  0  0  0
    4.0542   19.9928   14.7330 C   0  0  0  0  0  0  0  0  0  0  0  0
    4.8080   19.5874   14.3661 H   0  0  0  0  0  0  0  0  0  0  0  0
    8.1533   22.2476   23.6846 C   0  0  0  0  0  0  0  0  0  0  0  0
    7.5086   22.9023   23.5423 H   0  0  0  0  0  0  0  0  0  0  0  0
   11.0253   16.4666   17.3815 C   0  0  0  0  0  0  0  0  0  0  0  0
   11.1784   17.1099   16.7256 H   0  0  0  0  0  0  0  0  0  0  0  0
    8.9066   18.7306   14.5477 C   0  0  0  0  0  0  0  0  0  0  0  0
    9.6323   18.4662   14.0308 H   0  0  0  0  0  0  0  0  0  0  0  0
   -2.6903   24.1562   21.8401 C   0  0  0  0  0  0  0  0  0  0  0  0
   -2.8658   23.2522   22.1163 H   0  0  0  0  0  0  0  0  0  0  0  0
   -3.2852   24.7516   22.2998 H   0  0  0  0  0  0  0  0  0  0  0  0
   -1.7819   24.3829   22.0512 H   0  0  0  0  0  0  0  0  0  0  0  0
   -0.4993   19.2300   18.4306 C   0  0  0  0  0  0  0  0  0  0  0  0
    0.4554   19.1973   18.3311 H   0  0  0  0  0  0  0  0  0  0  0  0
   -0.8756   18.3827   18.1824 H   0  0  0  0  0  0  0  0  0  0  0  0
   -0.7178   19.4206   19.3466 H   0  0  0  0  0  0  0  0  0  0  0  0
   -1.1648   15.7038   19.5025 C   0  0  0  0  0  0  0  0  0  0  0  0
   -1.6447   15.2975   18.8180 H   0  0  0  0  0  0  0  0  0  0  0  0
   -4.5412   25.3019   17.2047 C   0  0  0  0  0  0  0  0  0  0  0  0
   -4.0138   25.9229   16.6973 H   0  0  0  0  0  0  0  0  0  0  0  0
   -5.3345   25.7401   17.5220 H   0  0  0  0  0  0  0  0  0  0  0  0
   -4.7850   24.5588   16.6500 H   0  0  0  0  0  0  0  0  0  0  0  0
    5.4660   22.3395   25.5861 C   0  0  0  0  0  0  0  0  0  0  0  0
    6.2004   21.9745   26.0266 H   0  0  0  0  0  0  0  0  0  0  0  0
    2.8746   19.2882   24.9675 C   0  0  0  0  0  0  0  0  0  0  0  0
    0.2441   16.9844   21.4268 C   0  0  0  0  0  0  0  0  0  0  0  0
    0.7091   17.4500   22.0838 H   0  0  0  0  0  0  0  0  0  0  0  0
    0.2964   25.3265   16.2155 C   0  0  0  0  0  0  0  0  0  0  0  0
    1.8297   21.2764   15.7508 C   0  0  0  0  0  0  0  0  0  0  0  0
    1.0906   21.7304   16.0878 H   0  0  0  0  0  0  0  0  0  0  0  0
    9.2265   20.9793   20.3691 C   0  0  0  0  0  0  0  0  0  0  0  0
    8.7995   20.7818   21.1726 H   0  0  0  0  0  0  0  0  0  0  0  0
    1.6889   24.8026   17.8518 C   0  0  0  0  0  0  0  0  0  0  0  0
   13.9889   11.8866   19.8104 C   0  0  0  0  0  0  0  0  0  0  0  0
   13.5236   11.0742   19.5996 H   0  0  0  0  0  0  0  0  0  0  0  0
   14.8379   11.6747   20.2076 H   0  0  0  0  0  0  0  0  0  0  0  0
   14.1284   12.3945   19.0092 H   0  0  0  0  0  0  0  0  0  0  0  0
    0.2013   16.2675   15.4030 C   0  0  0  0  0  0  0  0  0  0  0  0
   -0.5370   16.2942   14.8386 H   0  0  0  0  0  0  0  0  0  0  0  0
    4.7480   23.3505   26.1534 C   0  0  0  0  0  0  0  0  0  0  0  0
    5.0008   23.6614   26.9925 H   0  0  0  0  0  0  0  0  0  0  0  0
   10.0684   10.4896   17.9003 C   0  0  0  0  0  0  0  0  0  0  0  0
   10.2601   10.9376   17.0747 H   0  0  0  0  0  0  0  0  0  0  0  0
    9.5461    9.7028   17.7253 H   0  0  0  0  0  0  0  0  0  0  0  0
   10.8914   10.2373   18.3271 H   0  0  0  0  0  0  0  0  0  0  0  0
    2.9012   20.1981   13.9519 C   0  0  0  0  0  0  0  0  0  0  0  0
    2.9088   19.9190   13.0641 H   0  0  0  0  0  0  0  0  0  0  0  0
    0.8116   17.4317   15.7622 C   0  0  0  0  0  0  0  0  0  0  0  0
    0.4528   18.2464   15.4987 H   0  0  0  0  0  0  0  0  0  0  0  0
   11.1844   13.1917   19.0606 B   0  0  0  0  0  0  0  0  0  0  0  0
   11.7782   12.5698   18.2909 H   0  0  0  0  0  0  0  0  0  0  0  0
   11.2023   21.1171   19.0748 C   0  0  0  0  0  0  0  0  0  0  0  0
   12.1294   21.0816   19.0065 H   0  0  0  0  0  0  0  0  0  0  0  0
    3.9620   22.4222   23.7131 C   0  0  0  0  0  0  0  0  0  0  0  0
    3.6759   22.0947   22.8911 H   0  0  0  0  0  0  0  0  0  0  0  0
   10.4761   21.3316   18.0143 C   0  0  0  0  0  0  0  0  0  0  0  0
   10.9154   21.3788   17.1962 H   0  0  0  0  0  0  0  0  0  0  0  0
   12.2912   14.4569   16.3894 C   0  0  0  0  0  0  0  0  0  0  0  0
   13.1521   14.2837   16.7789 H   0  0  0  0  0  0  0  0  0  0  0  0
   12.4007   14.9719   15.5875 H   0  0  0  0  0  0  0  0  0  0  0  0
   11.8608   13.6254   16.1816 H   0  0  0  0  0  0  0  0  0  0  0  0
    6.4411   26.0219   20.6257 C   0  0  0  0  0  0  0  0  0  0  0  0
    6.3810   26.9236   20.8446 H   0  0  0  0  0  0  0  0  0  0  0  0
    9.5965   17.9004   19.0463 C   0  0  0  0  0  0  0  0  0  0  0  0
    8.6472   17.7796   18.9793 H   0  0  0  0  0  0  0  0  0  0  0  0
    9.8634   18.6500   18.5094 H   0  0  0  0  0  0  0  0  0  0  0  0
    9.8341   18.0640   19.9631 H   0  0  0  0  0  0  0  0  0  0  0  0
    4.2130   16.6750   25.1841 C   0  0  0  0  0  0  0  0  0  0  0  0
   -1.1327   17.1804   21.3042 C   0  0  0  0  0  0  0  0  0  0  0  0
   -1.5787   17.7584   21.8800 H   0  0  0  0  0  0  0  0  0  0  0  0
    1.8351   19.7569   24.2092 C   0  0  0  0  0  0  0  0  0  0  0  0
    1.7510   19.4956   23.3208 H   0  0  0  0  0  0  0  0  0  0  0  0
    7.5595   24.2940   19.4540 C   0  0  0  0  0  0  0  0  0  0  0  0
    8.2447   24.0237   18.8861 H   0  0  0  0  0  0  0  0  0  0  0  0
   -1.7469   23.8253   16.9709 B   0  0  0  0  0  0  0  0  0  0  0  0
   -2.2955   24.2389   16.0530 H   0  0  0  0  0  0  0  0  0  0  0  0
    5.5417   25.1671   21.0989 C   0  0  0  0  0  0  0  0  0  0  0  0
    4.8399   25.4633   21.6331 H   0  0  0  0  0  0  0  0  0  0  0  0
    1.5506   25.5225   16.7457 C   0  0  0  0  0  0  0  0  0  0  0  0
    2.2040   26.0769   16.3822 H   0  0  0  0  0  0  0  0  0  0  0  0
    3.0157   19.6190   26.3387 C   0  0  0  0  0  0  0  0  0  0  0  0
    3.6936   19.2679   26.8687 H   0  0  0  0  0  0  0  0  0  0  0  0
    6.5820   12.7720   20.9564 C   0  0  0  0  0  0  0  0  0  0  0  0
    6.6176   12.3095   21.7960 H   0  0  0  0  0  0  0  0  0  0  0  0
    5.7980   12.4991   20.4731 H   0  0  0  0  0  0  0  0  0  0  0  0
    6.5472   13.7187   21.1127 H   0  0  0  0  0  0  0  0  0  0  0  0
    3.7929   14.1291   22.7752 C   0  0  0  0  0  0  0  0  0  0  0  0
    4.4935   14.7403   22.7540 H   0  0  0  0  0  0  0  0  0  0  0  0
    2.8400   24.6433   18.7926 C   0  0  0  0  0  0  0  0  0  0  0  0
    2.5719   24.9105   19.6738 H   0  0  0  0  0  0  0  0  0  0  0  0
    3.5700   25.1936   18.4985 H   0  0  0  0  0  0  0  0  0  0  0  0
    3.1173   23.7245   18.8057 H   0  0  0  0  0  0  0  0  0  0  0  0
    7.4279   25.5960   19.8389 C   0  0  0  0  0  0  0  0  0  0  0  0
    8.0552   26.2127   19.5390 H   0  0  0  0  0  0  0  0  0  0  0  0
    8.8228   14.3344   22.9434 C   0  0  0  0  0  0  0  0  0  0  0  0
    0.8842   20.6484   24.7822 C   0  0  0  0  0  0  0  0  0  0  0  0
    0.1812   20.9806   24.2725 H   0  0  0  0  0  0  0  0  0  0  0  0
   10.2821   16.6351   22.1224 C   0  0  0  0  0  0  0  0  0  0  0  0
    3.2952   16.2614   25.9938 C   0  0  0  0  0  0  0  0  0  0  0  0
    2.5009   16.7381   26.0727 H   0  0  0  0  0  0  0  0  0  0  0  0
   10.0577   20.3420   24.0267 C   0  0  0  0  0  0  0  0  0  0  0  0
   10.6961   19.6748   24.1318 H   0  0  0  0  0  0  0  0  0  0  0  0
    3.6357   23.9478   25.5148 C   0  0  0  0  0  0  0  0  0  0  0  0
    3.1766   24.6477   25.9211 H   0  0  0  0  0  0  0  0  0  0  0  0
   10.5802   20.9394   20.3235 C   0  0  0  0  0  0  0  0  0  0  0  0
   11.0831   20.7974   21.0930 H   0  0  0  0  0  0  0  0  0  0  0  0
   10.4410   21.6900   23.9611 C   0  0  0  0  0  0  0  0  0  0  0  0
   11.3364   21.9237   24.0553 H   0  0  0  0  0  0  0  0  0  0  0  0
   -0.3977   25.9177   14.9982 C   0  0  0  0  0  0  0  0  0  0  0  0
   -0.5814   25.2212   14.3644 H   0  0  0  0  0  0  0  0  0  0  0  0
    0.1699   26.5776   14.5955 H   0  0  0  0  0  0  0  0  0  0  0  0
   -1.2230   26.3282   15.2702 H   0  0  0  0  0  0  0  0  0  0  0  0
   12.1676   14.4140   23.8044 C   0  0  0  0  0  0  0  0  0  0  0  0
   12.0991   15.3683   23.7292 H   0  0  0  0  0  0  0  0  0  0  0  0
   12.9176   14.1896   24.3603 H   0  0  0  0  0  0  0  0  0  0  0  0
   11.3636   14.0648   24.1955 H   0  0  0  0  0  0  0  0  0  0  0  0
    3.9392   12.9772   23.5848 C   0  0  0  0  0  0  0  0  0  0  0  0
    4.7099   12.8006   24.0746 H   0  0  0  0  0  0  0  0  0  0  0  0
    1.8109   12.3523   22.9434 C   0  0  0  0  0  0  0  0  0  0  0  0
    1.0556   11.8159   23.0259 H   0  0  0  0  0  0  0  0  0  0  0  0
    1.8026   13.4460   22.0739 C   0  0  0  0  0  0  0  0  0  0  0  0
    1.0936   13.4845   21.4732 H   0  0  0  0  0  0  0  0  0  0  0  0
    1.0217   21.0038   26.0936 C   0  0  0  0  0  0  0  0  0  0  0  0
    0.3945   21.5816   26.4652 H   0  0  0  0  0  0  0  0  0  0  0  0
    2.8044   12.1103   23.5848 C   0  0  0  0  0  0  0  0  0  0  0  0
    2.8313   11.3330   24.0966 H   0  0  0  0  0  0  0  0  0  0  0  0
    5.4243   16.0592   25.1870 C   0  0  0  0  0  0  0  0  0  0  0  0
    6.1010   16.4036   24.6560 H   0  0  0  0  0  0  0  0  0  0  0  0
    3.4851   15.0635   26.7778 C   0  0  0  0  0  0  0  0  0  0  0  0
    2.8138   14.7452   27.3291 H   0  0  0  0  0  0  0  0  0  0  0  0
    2.0099   20.5596   26.8661 C   0  0  0  0  0  0  0  0  0  0  0  0
    2.0689   20.8476   27.7476 H   0  0  0  0  0  0  0  0  0  0  0  0
    4.6031   14.4508   26.7036 C   0  0  0  0  0  0  0  0  0  0  0  0
    4.6997   13.6508   27.1691 H   0  0  0  0  0  0  0  0  0  0  0  0
    5.6926   14.9012   25.9824 C   0  0  0  0  0  0  0  0  0  0  0  0
    6.5181   14.4854   26.0060 H   0  0  0  0  0  0  0  0  0  0  0  0
  1 15  1  0  0  0  0
  2 14  1  0  0  0  0
  3  4  1  0  0  0  0
  4  5  1  0  0  0  0
  5  3  1  0  0  0  0
  6  5  1  0  0  0  0
  7  5  1  0  0  0  0
  8  3  1  0  0  0  0
  9  4  1  0  0  0  0
 10  3  1  0  0  0  0
 11  4  1  0  0  0  0
 12 15  1  0  0  0  0
 13 40  1  0  0  0  0
 14 29  1  0  0  0  0
 15 98  2  0  0  0  0
 16 18  1  0  0  0  0
 17  2  1  0  0  0  0
 18  1  1  0  0  0  0
 19  2  1  0  0  0  0
 20 17  1  0  0  0  0
 21 89  3  0  0  0  0
 22 19  1  0  0  0  0
 23  7  1  0  0  0  0
 24  6  1  0  0  0  0
 25 83  3  0  0  0  0
 26  6  1  0  0  0  0
 27 23  4  0  0  0  0
 28 27  1  0  0  0  0
 29 82  1  0  0  0  0
 30  7  1  0  0  0  0
 31 26  4  0  0  0  0
 32 31  1  0  0  0  0
 33 34  1  0  0  0  0
 35  1  3  0  0  0  0
 36 26  4  0  0  0  0
 37 36  1  0  0  0  0
 38 31  4  0  0  0  0
 39 38  1  0  0  0  0
 40  1  1  0  0  0  0
 41 12  1  0  0  0  0
 42 24  4  0  0  0  0
 43 42  1  0  0  0  0
 44  7  1  0  0  0  0
 45 44  1  0  0  0  0
 46 44  1  0  0  0  0
 47  6  1  0  0  0  0
 48 47  1  0  0  0  0
 49 47  1  0  0  0  0
 50 51  1  0  0  0  0
 52 67  1  0  0  0  0
 53  8  1  0  0  0  0
 54 27  4  0  0  0  0
 55 54  1  0  0  0  0
 56 30  4  0  0  0  0
 57 56  1  0  0  0  0
 58 20  1  0  0  0  0
 59216  3  0  0  0  0
 60 61  1  0  0  0  0
 62 14  2  0  0  0  0
 63 13  1  0  0  0  0
 64 17  2  0  0  0  0
 65 41  2  0  0  0  0
 66 65  1  0  0  0  0
 67  2  3  0  0  0  0
 68  9  1  0  0  0  0
 69 33  4  0  0  0  0
 70 69  1  0  0  0  0
 71  9  1  0  0  0  0
 72 10  1  0  0  0  0
 73 72  1  0  0  0  0
 74 72  1  0  0  0  0
 75 40  2  0  0  0  0
 76 77  1  0  0  0  0
 78  3  1  0  0  0  0
 79 22  1  0  0  0  0
 80 10  1  0  0  0  0
 81 35  1  0  0  0  0
 82110  2  0  0  0  0
 83  1  1  0  0  0  0
 84 53  4  0  0  0  0
 85 84  1  0  0  0  0
 86 24  4  0  0  0  0
 87 86  1  0  0  0  0
 88  3  1  0  0  0  0
 89  1  1  0  0  0  0
 90 91  1  0  0  0  0
 92 93  1  0  0  0  0
 94 41  1  0  0  0  0
 95 94  1  0  0  0  0
 96 94  1  0  0  0  0
 97 94  1  0  0  0  0
 98 65  1  0  0  0  0
 99100  1  0  0  0  0
101 68  4  0  0  0  0
102101  1  0  0  0  0
103213  3  0  0  0  0
104 10  1  0  0  0  0
105 23  4  0  0  0  0
106105  1  0  0  0  0
107  8  1  0  0  0  0
108109  1  0  0  0  0
110 62  1  0  0  0  0
111110  1  0  0  0  0
112113  1  0  0  0  0
114 19  2  0  0  0  0
115116  1  0  0  0  0
117118  1  0  0  0  0
119 30  4  0  0  0  0
120119  1  0  0  0  0
121104  4  0  0  0  0
122121  1  0  0  0  0
123 58  2  0  0  0  0
124123  1  0  0  0  0
125 54  4  0  0  0  0
126125  1  0  0  0  0
127 75  1  0  0  0  0
128127  1  0  0  0  0
129127  1  0  0  0  0
130127  1  0  0  0  0
131 98  1  0  0  0  0
132131  1  0  0  0  0
133131  1  0  0  0  0
134131  1  0  0  0  0
135101  4  0  0  0  0
136135  1  0  0  0  0
137 63  1  0  0  0  0
138137  1  0  0  0  0
139137  1  0  0  0  0
140137  1  0  0  0  0
141 80  4  0  0  0  0
142141  1  0  0  0  0
143 11  1  0  0  0  0
144 68  4  0  0  0  0
145144  1  0  0  0  0
146 16  1  0  0  0  0
147 56  4  0  0  0  0
148147  1  0  0  0  0
149 53  4  0  0  0  0
150149  1  0  0  0  0
151 18  2  0  0  0  0
152 79  1  0  0  0  0
153152  1  0  0  0  0
154152  1  0  0  0  0
155152  1  0  0  0  0
156 60  4  0  0  0  0
157156  1  0  0  0  0
158141  4  0  0  0  0
159158  1  0  0  0  0
160 82  1  0  0  0  0
161160  1  0  0  0  0
162160  1  0  0  0  0
163160  1  0  0  0  0
164112  4  0  0  0  0
165164  1  0  0  0  0
166 42  4  0  0  0  0
167166  1  0  0  0  0
168 20  1  0  0  0  0
169168  1  0  0  0  0
170171  1  0  0  0  0
172 80  4  0  0  0  0
173172  1  0  0  0  0
174 84  4  0  0  0  0
175174  1  0  0  0  0
176 58  1  0  0  0  0
177176  1  0  0  0  0
178176  1  0  0  0  0
179176  1  0  0  0  0
180181  1  0  0  0  0
182 64  1  0  0  0  0
183182  1  0  0  0  0
184182  1  0  0  0  0
185182  1  0  0  0  0
186 11  1  0  0  0  0
187115  4  0  0  0  0
188187  1  0  0  0  0
189143  4  0  0  0  0
190189  1  0  0  0  0
191107  4  0  0  0  0
192191  1  0  0  0  0
193 12  1  0  0  0  0
194193  1  0  0  0  0
195 99  4  0  0  0  0
196195  1  0  0  0  0
197146  2  0  0  0  0
198197  1  0  0  0  0
199143  4  0  0  0  0
200199  1  0  0  0  0
201 62  1  0  0  0  0
202201  1  0  0  0  0
203201  1  0  0  0  0
204201  1  0  0  0  0
205 71  4  0  0  0  0
206205  1  0  0  0  0
207151  1  0  0  0  0
208207  1  0  0  0  0
209207  1  0  0  0  0
210207  1  0  0  0  0
211180  4  0  0  0  0
212211  1  0  0  0  0
213  2  1  0  0  0  0
214189  4  0  0  0  0
215214  1  0  0  0  0
216  2  1  0  0  0  0
217186  4  0  0  0  0
218217  1  0  0  0  0
219 92  4  0  0  0  0
220219  1  0  0  0  0
221108  4  0  0  0  0
222221  1  0  0  0  0
223149  4  0  0  0  0
224223  1  0  0  0  0
225117  4  0  0  0  0
226225  1  0  0  0  0
227146  1  0  0  0  0
228227  1  0  0  0  0
229227  1  0  0  0  0
230227  1  0  0  0  0
231114  1  0  0  0  0
232231  1  0  0  0  0
233231  1  0  0  0  0
234231  1  0  0  0  0
235205  4  0  0  0  0
236235  1  0  0  0  0
237238  1  0  0  0  0
239 71  4  0  0  0  0
240239  1  0  0  0  0
241214  4  0  0  0  0
242241  1  0  0  0  0
243235  4  0  0  0  0
244243  1  0  0  0  0
245186  4  0  0  0  0
246245  1  0  0  0  0
247217  4  0  0  0  0
248247  1  0  0  0  0
249199  4  0  0  0  0
250249  1  0  0  0  0
251247  4  0  0  0  0
252251  1  0  0  0  0
253245  4  0  0  0  0
254253  1  0  0  0  0
  4 78  1  0  0  0  0
  4 88  1  0  0  0  0
  5 78  1  0  0  0  0
  5 88  1  0  0  0  0
  8 44  1  0  0  0  0
  9 47  1  0  0  0  0
 11 72  1  0  0  0  0
 13193  1  0  0  0  0
 16193  1  0  0  0  0
 22168  1  0  0  0  0
 29168  1  0  0  0  0
 33 36  4  0  0  0  0
 38 69  4  0  0  0  0
 50 63  2  0  0  0  0
 50 75  1  0  0  0  0
 52 78  3  0  0  0  0
 60 86  4  0  0  0  0
 64123  1  0  0  0  0
 76 79  2  0  0  0  0
 76114  1  0  0  0  0
 81 88  3  0  0  0  0
 90105  4  0  0  0  0
 90125  4  0  0  0  0
 92104  4  0  0  0  0
 99107  4  0  0  0  0
108172  4  0  0  0  0
112147  4  0  0  0  0
115135  4  0  0  0  0
117121  4  0  0  0  0
119164  4  0  0  0  0
144187  4  0  0  0  0
151197  1  0  0  0  0
156166  4  0  0  0  0
158221  4  0  0  0  0
170174  4  0  0  0  0
170223  4  0  0  0  0
180195  4  0  0  0  0
191211  4  0  0  0  0
219225  4  0  0  0  0
237239  4  0  0  0  0
237243  4  0  0  0  0
241249  4  0  0  0  0
251253  4  0  0  0  0
M  CHG  1   3   1
M  END
$$$$
HUQYIE01

From CSD data. Using bond type 'Any'. Matching problem. Disorder unknown. Sizes unknown.
  0  0  0  0  0  0  0  0  0  0999 V2000
M  END
$$$$
HUTGIM

From CSD data. Using bond type 'Any'. Matching problem. Disorder unknown. Sizes unknown.
  0  0  0  0  0  0  0  0  0  0999 V2000
M  END
$$$$
ICEJAC

From CSD data. Using bond type 'Any'. No disordered atoms. Largest molecule.
 97128  0  0  0  0  0  0  0  0999 V2000
    0.4257    3.0767    5.3390 Ru  0  0  0  0  0  0  0  0  0  0  0  0
   -0.8899    3.6338    7.9511 Ru  0  0  0  0  0  0  0  0  0  0  0  0
   -1.1673    3.6721    3.6349 Cl  0  0  0  0  0  0  0  0  0  0  0  0
    1.1681    5.1114    5.7430 P   0  0  0  0  0  0  0  0  0  0  0  0
    1.8140    2.2395    3.7715 P   0  0  0  0  0  0  0  0  0  0  0  0
   -3.4882    2.1638    8.4590 O   0  0  0  0  0  0  0  0  0  0  0  0
   -0.9206    2.2617    9.6190 C   0  0  0  0  0  0  0  0  0  0  0  0
   -1.2515    2.8234   10.4205 H   0  0  0  0  0  0  0  0  0  0  0  0
    0.6672    2.5850    9.0867 B   0  0  0  0  0  0  0  0  0  0  0  0
    1.3860    3.2090    9.6614 H   0  0  0  0  0  0  0  0  0  0  0  0
    0.2396    1.0806    9.9286 B   0  0  0  0  0  0  0  0  0  0  0  0
    0.5912    0.9444   10.9358 H   0  0  0  0  0  0  0  0  0  0  0  0
   -1.3902    0.6497    9.5257 B   0  0  0  0  0  0  0  0  0  0  0  0
   -2.0331    0.1265   10.2573 H   0  0  0  0  0  0  0  0  0  0  0  0
   -2.1265    1.8293    8.3424 B   0  0  0  0  0  0  0  0  0  0  0  0
    0.5953    2.1089    7.2948 B   0  0  0  0  0  0  0  0  0  0  0  0
    1.5145    2.6837    6.3914 H   0  0  0  0  0  0  0  0  0  0  0  0
    1.2360    0.9908    8.4844 B   0  0  0  0  0  0  0  0  0  0  0  0
    2.2358    0.6911    8.5968 H   0  0  0  0  0  0  0  0  0  0  0  0
   -0.0756   -0.1968    8.7728 B   0  0  0  0  0  0  0  0  0  0  0  0
    0.1151   -1.2575    9.0337 H   0  0  0  0  0  0  0  0  0  0  0  0
   -1.4969    0.2410    7.8016 B   0  0  0  0  0  0  0  0  0  0  0  0
   -2.2719   -0.5492    7.4814 H   0  0  0  0  0  0  0  0  0  0  0  0
   -1.0558    1.6794    6.8537 B   0  0  0  0  0  0  0  0  0  0  0  0
   -1.3098    1.6886    5.9525 H   0  0  0  0  0  0  0  0  0  0  0  0
    0.1552    0.4019    7.1591 B   0  0  0  0  0  0  0  0  0  0  0  0
    0.5545   -0.3272    6.1645 H   0  0  0  0  0  0  0  0  0  0  0  0
   -4.4010    1.2283    8.9976 C   0  0  0  0  0  0  0  0  0  0  0  0
   -5.3007    1.6176    9.0061 H   0  0  0  0  0  0  0  0  0  0  0  0
   -4.1337    0.9990    9.9116 H   0  0  0  0  0  0  0  0  0  0  0  0
   -4.4027    0.4177    8.4442 H   0  0  0  0  0  0  0  0  0  0  0  0
   -0.1831    5.4937    6.9216 C   0  0  0  0  0  0  0  0  0  0  0  0
    0.0544    5.6528    8.3000 C   0  0  0  0  0  0  0  0  0  0  0  0
    0.9988    5.6923    8.6244 H   0  0  0  0  0  0  0  0  0  0  0  0
   -0.9782    5.4788    9.2373 C   0  0  0  0  0  0  0  0  0  0  0  0
   -0.7596    5.4179   10.2127 H   0  0  0  0  0  0  0  0  0  0  0  0
   -2.2963    5.1544    8.7813 C   0  0  0  0  0  0  0  0  0  0  0  0
   -2.9944    4.8759    9.4387 H   0  0  0  0  0  0  0  0  0  0  0  0
   -2.5648    5.0795    7.4220 C   0  0  0  0  0  0  0  0  0  0  0  0
   -3.4465    4.7187    7.1124 H   0  0  0  0  0  0  0  0  0  0  0  0
   -1.5217    5.2460    6.4932 C   0  0  0  0  0  0  0  0  0  0  0  0
   -1.6822    4.9952    5.5390 H   0  0  0  0  0  0  0  0  0  0  0  0
    1.2221    6.4701    4.5465 C   0  0  0  0  0  0  0  0  0  0  0  0
    2.2397    6.4697    3.6114 C   0  0  0  0  0  0  0  0  0  0  0  0
    2.8379    5.7341    3.5711 H   0  0  0  0  0  0  0  0  0  0  0  0
    2.3975    7.5259    2.7377 C   0  0  0  0  0  0  0  0  0  0  0  0
    3.0824    7.5060    2.0803 H   0  0  0  0  0  0  0  0  0  0  0  0
    1.5534    8.6100    2.8289 C   0  0  0  0  0  0  0  0  0  0  0  0
    1.6880    9.3589    2.2605 H   0  0  0  0  0  0  0  0  0  0  0  0
    0.5293    8.6208    3.7216 C   0  0  0  0  0  0  0  0  0  0  0  0
   -0.0745    9.3536    3.7407 H   0  0  0  0  0  0  0  0  0  0  0  0
    0.3625    7.5590    4.6038 C   0  0  0  0  0  0  0  0  0  0  0  0
   -0.3380    7.5803    5.2463 H   0  0  0  0  0  0  0  0  0  0  0  0
    2.6789    5.4825    6.7032 C   0  0  0  0  0  0  0  0  0  0  0  0
    3.4651    4.4892    7.2630 C   0  0  0  0  0  0  0  0  0  0  0  0
    3.2293    3.5767    7.1442 H   0  0  0  0  0  0  0  0  0  0  0  0
    4.6044    4.8215    8.0031 C   0  0  0  0  0  0  0  0  0  0  0  0
    5.1691    4.1370    8.3402 H   0  0  0  0  0  0  0  0  0  0  0  0
    4.9012    6.1222    8.2385 C   0  0  0  0  0  0  0  0  0  0  0  0
    5.6621    6.3505    8.7601 H   0  0  0  0  0  0  0  0  0  0  0  0
    4.0954    7.1097    7.7189 C   0  0  0  0  0  0  0  0  0  0  0  0
    4.3008    8.0191    7.8992 H   0  0  0  0  0  0  0  0  0  0  0  0
    3.0071    6.8121    6.9534 C   0  0  0  0  0  0  0  0  0  0  0  0
    2.4746    7.5100    6.5908 H   0  0  0  0  0  0  0  0  0  0  0  0
    1.4487    0.4504    3.6771 C   0  0  0  0  0  0  0  0  0  0  0  0
    0.1262    0.1127    3.3442 C   0  0  0  0  0  0  0  0  0  0  0  0
   -0.5076    0.7986    3.1724 H   0  0  0  0  0  0  0  0  0  0  0  0
   -0.2547   -1.2114    3.2699 C   0  0  0  0  0  0  0  0  0  0  0  0
   -1.1435   -1.4341    3.0218 H   0  0  0  0  0  0  0  0  0  0  0  0
    0.6569   -2.2184    3.5541 C   0  0  0  0  0  0  0  0  0  0  0  0
    0.3875   -3.1273    3.5371 H   0  0  0  0  0  0  0  0  0  0  0  0
    1.9552   -1.8844    3.8637 C   0  0  0  0  0  0  0  0  0  0  0  0
    2.5920   -2.5693    4.0333 H   0  0  0  0  0  0  0  0  0  0  0  0
    2.3384   -0.5600    3.9294 C   0  0  0  0  0  0  0  0  0  0  0  0
    3.2367   -0.3436    4.1563 H   0  0  0  0  0  0  0  0  0  0  0  0
    1.7229    2.7177    2.0209 C   0  0  0  0  0  0  0  0  0  0  0  0
    2.1289    1.8082    1.0497 C   0  0  0  0  0  0  0  0  0  0  0  0
    2.4255    0.9449    1.3126 H   0  0  0  0  0  0  0  0  0  0  0  0
    2.1060    2.1421   -0.2736 C   0  0  0  0  0  0  0  0  0  0  0  0
    2.3431    1.4912   -0.9225 H   0  0  0  0  0  0  0  0  0  0  0  0
    1.7363    3.4441   -0.6913 C   0  0  0  0  0  0  0  0  0  0  0  0
    1.7637    3.6906   -1.6074 H   0  0  0  0  0  0  0  0  0  0  0  0
    1.3321    4.3456    0.2778 C   0  0  0  0  0  0  0  0  0  0  0  0
    1.0548    5.2185    0.0212 H   0  0  0  0  0  0  0  0  0  0  0  0
    1.3266    4.0010    1.6010 C   0  0  0  0  0  0  0  0  0  0  0  0
    1.0499    4.6386    2.2478 H   0  0  0  0  0  0  0  0  0  0  0  0
    3.6010    2.3343    4.1182 C   0  0  0  0  0  0  0  0  0  0  0  0
    4.4891    2.9582    3.2402 C   0  0  0  0  0  0  0  0  0  0  0  0
    4.1680    3.3148    2.4196 H   0  0  0  0  0  0  0  0  0  0  0  0
    5.8369    3.0607    3.5562 C   0  0  0  0  0  0  0  0  0  0  0  0
    6.4339    3.4725    2.9434 H   0  0  0  0  0  0  0  0  0  0  0  0
    6.3189    2.5691    4.7628 C   0  0  0  0  0  0  0  0  0  0  0  0
    7.2325    2.6833    4.9982 H   0  0  0  0  0  0  0  0  0  0  0  0
    5.4769    1.9336    5.5877 C   0  0  0  0  0  0  0  0  0  0  0  0
    5.8150    1.5518    6.3893 H   0  0  0  0  0  0  0  0  0  0  0  0
    4.1258    1.8185    5.3036 C   0  0  0  0  0  0  0  0  0  0  0  0
    3.5517    1.3823    5.9228 H   0  0  0  0  0  0  0  0  0  0  0  0
  1  3  1  0  0  0  0
  2  7  1  0  0  0  0
  4  1  1  0  0  0  0
  5  1  1  0  0  0  0
  6 15  1  0  0  0  0
  7  8  1  0  0  0  0
  9  2  1  0  0  0  0
 10  9  1  0  0  0  0
 11  7  1  0  0  0  0
 12 11  1  0  0  0  0
 13  7  1  0  0  0  0
 14 13  1  0  0  0  0
 15  2  1  0  0  0  0
 16  2  1  0  0  0  0
 17  1  1  0  0  0  0
 18  9  1  0  0  0  0
 19 18  1  0  0  0  0
 20 11  1  0  0  0  0
 21 20  1  0  0  0  0
 22 13  1  0  0  0  0
 23 22  1  0  0  0  0
 24  2  1  0  0  0  0
 25  1  1  0  0  0  0
 26 16  1  0  0  0  0
 27 26  1  0  0  0  0
 28  6  1  0  0  0  0
 29 28  1  0  0  0  0
 30 28  1  0  0  0  0
 31 28  1  0  0  0  0
 32  2  8  0  0  0  0
 33  2  8  0  0  0  0
 34 33  1  0  0  0  0
 35  2  8  0  0  0  0
 36 35  1  0  0  0  0
 37  2  8  0  0  0  0
 38 37  1  0  0  0  0
 39  2  8  0  0  0  0
 40 39  1  0  0  0  0
 41  2  8  0  0  0  0
 42 41  1  0  0  0  0
 43  4  1  0  0  0  0
 44 43  4  0  0  0  0
 45 44  1  0  0  0  0
 46 44  4  0  0  0  0
 47 46  1  0  0  0  0
 48 46  4  0  0  0  0
 49 48  1  0  0  0  0
 50 48  4  0  0  0  0
 51 50  1  0  0  0  0
 52 43  4  0  0  0  0
 53 52  1  0  0  0  0
 54  4  1  0  0  0  0
 55 54  4  0  0  0  0
 56 55  1  0  0  0  0
 57 55  4  0  0  0  0
 58 57  1  0  0  0  0
 59 57  4  0  0  0  0
 60 59  1  0  0  0  0
 61 59  4  0  0  0  0
 62 61  1  0  0  0  0
 63 54  4  0  0  0  0
 64 63  1  0  0  0  0
 65  5  1  0  0  0  0
 66 65  4  0  0  0  0
 67 66  1  0  0  0  0
 68 66  4  0  0  0  0
 69 68  1  0  0  0  0
 70 68  4  0  0  0  0
 71 70  1  0  0  0  0
 72 70  4  0  0  0  0
 73 72  1  0  0  0  0
 74 65  4  0  0  0  0
 75 74  1  0  0  0  0
 76  5  1  0  0  0  0
 77 76  4  0  0  0  0
 78 77  1  0  0  0  0
 79 77  4  0  0  0  0
 80 79  1  0  0  0  0
 81 79  4  0  0  0  0
 82 81  1  0  0  0  0
 83 81  4  0  0  0  0
 84 83  1  0  0  0  0
 85 76  4  0  0  0  0
 86 85  1  0  0  0  0
 87  5  1  0  0  0  0
 88 87  4  0  0  0  0
 89 88  1  0  0  0  0
 90 88  4  0  0  0  0
 91 90  1  0  0  0  0
 92 90  4  0  0  0  0
 93 92  1  0  0  0  0
 94 92  4  0  0  0  0
 95 94  1  0  0  0  0
 96 87  4  0  0  0  0
 97 96  1  0  0  0  0
  4 32  1  0  0  0  0
  7  9  1  0  0  0  0
  7 15  1  0  0  0  0
  9 11  1  0  0  0  0
  9 16  1  0  0  0  0
 11 13  1  0  0  0  0
 11 18  1  0  0  0  0
 13 15  1  0  0  0  0
 13 20  1  0  0  0  0
 15 22  1  0  0  0  0
 15 24  1  0  0  0  0
 16 17  1  0  0  0  0
 16 18  1  0  0  0  0
 16 24  1  0  0  0  0
 18 20  1  0  0  0  0
 18 26  1  0  0  0  0
 20 22  1  0  0  0  0
 20 26  1  0  0  0  0
 22 24  1  0  0  0  0
 22 26  1  0  0  0  0
 24 25  1  0  0  0  0
 24 26  1  0  0  0  0
 32 33  4  0  0  0  0
 32 41  4  0  0  0  0
 33 35  4  0  0  0  0
 35 37  4  0  0  0  0
 37 39  4  0  0  0  0
 39 41  4  0  0  0  0
 50 52  4  0  0  0  0
 61 63  4  0  0  0  0
 72 74  4  0  0  0  0
 83 85  4  0  0  0  0
 94 96  4  0  0  0  0
M  END
$$$$
ICEJEG

From CSD data. Using bond type 'Any'. No disordered atoms. Largest molecule.
 97128  0  0  0  0  0  0  0  0999 V2000
   -1.0517    7.4843    9.9251 Ru  0  0  0  0  0  0  0  0  0  0  0  0
    1.0187    6.6836   11.8650 Ru  0  0  0  0  0  0  0  0  0  0  0  0
   -2.5136    5.6024    9.6836 Cl  0  0  0  0  0  0  0  0  0  0  0  0
   -2.0488    8.1944   11.7694 P   0  0  0  0  0  0  0  0  0  0  0  0
   -2.1014    8.5338    8.2185 P   0  0  0  0  0  0  0  0  0  0  0  0
    2.2033    9.3058   12.6080 O   0  0  0  0  0  0  0  0  0  0  0  0
    3.1412    6.8801   11.5508 C   0  0  0  0  0  0  0  0  0  0  0  0
    2.2733    8.4527   11.4931 B   0  0  0  0  0  0  0  0  0  0  0  0
    3.8531    8.1568   10.6575 B   0  0  0  0  0  0  0  0  0  0  0  0
    3.9669    6.4898   10.1381 B   0  0  0  0  0  0  0  0  0  0  0  0
    2.4507    5.6503   10.5513 B   0  0  0  0  0  0  0  0  0  0  0  0
    1.0378    8.1339   10.1843 B   0  0  0  0  0  0  0  0  0  0  0  0
    2.5486    8.9742    9.7965 B   0  0  0  0  0  0  0  0  0  0  0  0
    3.6111    7.7805    8.9793 B   0  0  0  0  0  0  0  0  0  0  0  0
    2.7468    6.2238    8.8731 B   0  0  0  0  0  0  0  0  0  0  0  0
    1.1496    6.4332    9.6280 B   0  0  0  0  0  0  0  0  0  0  0  0
    1.8894    7.7686    8.6585 B   0  0  0  0  0  0  0  0  0  0  0  0
    2.8524   10.5200   12.7280 C   0  0  0  0  0  0  0  0  0  0  0  0
    2.6428   10.9188   13.5983 H   0  0  0  0  0  0  0  0  0  0  0  0
    2.5552   11.1202   12.0125 H   0  0  0  0  0  0  0  0  0  0  0  0
    3.8205   10.3819   12.6565 H   0  0  0  0  0  0  0  0  0  0  0  0
   -0.9970    7.0917   12.8065 C   0  0  0  0  0  0  0  0  0  0  0  0
    0.0279    7.6620   13.6375 C   0  0  0  0  0  0  0  0  0  0  0  0
    0.0792    8.6546   13.7483 H   0  0  0  0  0  0  0  0  0  0  0  0
    1.0787    6.8514   14.1061 C   0  0  0  0  0  0  0  0  0  0  0  0
    1.8695    7.2890   14.5354 H   0  0  0  0  0  0  0  0  0  0  0  0
    1.1520    5.4782   13.7829 C   0  0  0  0  0  0  0  0  0  0  0  0
    1.9837    4.9611   13.9907 H   0  0  0  0  0  0  0  0  0  0  0  0
    0.1322    4.8856   13.0258 C   0  0  0  0  0  0  0  0  0  0  0  0
    0.2568    3.9605   12.6680 H   0  0  0  0  0  0  0  0  0  0  0  0
   -0.9108    5.6918   12.5226 C   0  0  0  0  0  0  0  0  0  0  0  0
   -1.5130    5.3103   11.8209 H   0  0  0  0  0  0  0  0  0  0  0  0
   -3.7924    7.8462   12.1579 C   0  0  0  0  0  0  0  0  0  0  0  0
   -4.2417    6.6048   12.5549 C   0  0  0  0  0  0  0  0  0  0  0  0
   -3.6137    5.9136   12.7257 H   0  0  0  0  0  0  0  0  0  0  0  0
   -5.5858    6.3503   12.7119 C   0  0  0  0  0  0  0  0  0  0  0  0
   -5.8745    5.4917   12.9981 H   0  0  0  0  0  0  0  0  0  0  0  0
   -6.5229    7.3481   12.4533 C   0  0  0  0  0  0  0  0  0  0  0  0
   -7.4512    7.1732   12.5572 H   0  0  0  0  0  0  0  0  0  0  0  0
   -6.0873    8.6030   12.0448 C   0  0  0  0  0  0  0  0  0  0  0  0
   -6.7202    9.2882   11.8624 H   0  0  0  0  0  0  0  0  0  0  0  0
   -4.7293    8.8625   11.8970 C   0  0  0  0  0  0  0  0  0  0  0  0
   -4.4366    9.7241   11.6223 H   0  0  0  0  0  0  0  0  0  0  0  0
   -1.7909    9.8383   12.5134 C   0  0  0  0  0  0  0  0  0  0  0  0
   -2.2767   10.0950   13.7968 C   0  0  0  0  0  0  0  0  0  0  0  0
   -2.7820    9.4304   14.2492 H   0  0  0  0  0  0  0  0  0  0  0  0
   -2.0291   11.3037   14.4131 C   0  0  0  0  0  0  0  0  0  0  0  0
   -2.3282   11.4542   15.3018 H   0  0  0  0  0  0  0  0  0  0  0  0
   -1.3481   12.2942   13.7414 C   0  0  0  0  0  0  0  0  0  0  0  0
   -1.2013   13.1356   14.1569 H   0  0  0  0  0  0  0  0  0  0  0  0
   -0.8821   12.0649   12.4787 C   0  0  0  0  0  0  0  0  0  0  0  0
   -0.4052   12.7486   12.0217 H   0  0  0  0  0  0  0  0  0  0  0  0
   -1.0995   10.8383   11.8509 C   0  0  0  0  0  0  0  0  0  0  0  0
   -0.7743   10.6889   10.9691 H   0  0  0  0  0  0  0  0  0  0  0  0
   -1.3234    8.0244    6.6410 C   0  0  0  0  0  0  0  0  0  0  0  0
   -0.8377    8.8840    5.6808 C   0  0  0  0  0  0  0  0  0  0  0  0
   -0.9013    9.8222    5.8169 H   0  0  0  0  0  0  0  0  0  0  0  0
   -0.2528    8.3956    4.5127 C   0  0  0  0  0  0  0  0  0  0  0  0
    0.0959    9.0029    3.8733 H   0  0  0  0  0  0  0  0  0  0  0  0
   -0.1730    7.0413    4.2773 C   0  0  0  0  0  0  0  0  0  0  0  0
    0.2328    6.7138    3.4832 H   0  0  0  0  0  0  0  0  0  0  0  0
   -0.6933    6.1665    5.2099 C   0  0  0  0  0  0  0  0  0  0  0  0
   -0.6612    5.2299    5.0506 H   0  0  0  0  0  0  0  0  0  0  0  0
   -1.2596    6.6483    6.3802 C   0  0  0  0  0  0  0  0  0  0  0  0
   -1.6108    6.0363    7.0150 H   0  0  0  0  0  0  0  0  0  0  0  0
   -3.8870    8.3318    7.8159 C   0  0  0  0  0  0  0  0  0  0  0  0
   -4.7891    7.7918    8.7300 C   0  0  0  0  0  0  0  0  0  0  0  0
   -4.4878    7.4980    9.5818 H   0  0  0  0  0  0  0  0  0  0  0  0
   -6.1280    7.6867    8.3884 C   0  0  0  0  0  0  0  0  0  0  0  0
   -6.7436    7.3235    9.0140 H   0  0  0  0  0  0  0  0  0  0  0  0
   -6.5808    8.1010    7.1604 C   0  0  0  0  0  0  0  0  0  0  0  0
   -7.4980    8.0134    6.9296 H   0  0  0  0  0  0  0  0  0  0  0  0
   -5.6858    8.6437    6.2648 C   0  0  0  0  0  0  0  0  0  0  0  0
   -5.9973    8.9491    5.4199 H   0  0  0  0  0  0  0  0  0  0  0  0
   -4.3411    8.7563    6.5718 C   0  0  0  0  0  0  0  0  0  0  0  0
   -3.7331    9.1189    5.9370 H   0  0  0  0  0  0  0  0  0  0  0  0
   -1.8853   10.3415    8.2638 C   0  0  0  0  0  0  0  0  0  0  0  0
   -2.9549   11.2072    8.5177 C   0  0  0  0  0  0  0  0  0  0  0  0
   -3.8295   10.8530    8.6331 H   0  0  0  0  0  0  0  0  0  0  0  0
   -2.7525   12.5821    8.6054 C   0  0  0  0  0  0  0  0  0  0  0  0
   -3.4799   13.1632    8.7877 H   0  0  0  0  0  0  0  0  0  0  0  0
   -1.4948   13.0896    8.4230 C   0  0  0  0  0  0  0  0  0  0  0  0
   -1.3610   14.0285    8.4646 H   0  0  0  0  0  0  0  0  0  0  0  0
   -0.4148   12.2610    8.1760 C   0  0  0  0  0  0  0  0  0  0  0  0
    0.4506   12.6292    8.0468 H   0  0  0  0  0  0  0  0  0  0  0  0
   -0.6039   10.8932    8.1183 C   0  0  0  0  0  0  0  0  0  0  0  0
    0.1423   10.3200    7.9798 H   0  0  0  0  0  0  0  0  0  0  0  0
    3.7895    6.6981   12.6265 H   0  0  0  0  0  0  0  0  0  0  0  0
    4.6969    8.5678   11.1261 H   0  0  0  0  0  0  0  0  0  0  0  0
    4.8765    5.9890   10.2489 H   0  0  0  0  0  0  0  0  0  0  0  0
    2.4592    4.7067   10.7567 H   0  0  0  0  0  0  0  0  0  0  0  0
    0.0157    8.6293   10.2027 H   0  0  0  0  0  0  0  0  0  0  0  0
    2.5926   10.0311    9.6949 H   0  0  0  0  0  0  0  0  0  0  0  0
    4.4137    8.0597    8.2638 H   0  0  0  0  0  0  0  0  0  0  0  0
    2.9951    5.5781    8.1022 H   0  0  0  0  0  0  0  0  0  0  0  0
    0.2222    5.9494    9.1409 H   0  0  0  0  0  0  0  0  0  0  0  0
    1.4037    8.1088    7.6174 H   0  0  0  0  0  0  0  0  0  0  0  0
  1  3  1  0  0  0  0
  2  7  1  0  0  0  0
  4  1  1  0  0  0  0
  5  1  1  0  0  0  0
  6  8  1  0  0  0  0
  7  8  1  0  0  0  0
  8  2  1  0  0  0  0
  9  7  1  0  0  0  0
 10  7  1  0  0  0  0
 11  2  1  0  0  0  0
 12  2  1  0  0  0  0
 13  8  1  0  0  0  0
 14  9  1  0  0  0  0
 15 10  1  0  0  0  0
 16  2  1  0  0  0  0
 17 12  1  0  0  0  0
 18  6  1  0  0  0  0
 19 18  1  0  0  0  0
 20 18  1  0  0  0  0
 21 18  1  0  0  0  0
 22  2  8  0  0  0  0
 23  2  8  0  0  0  0
 24 23  1  0  0  0  0
 25  2  8  0  0  0  0
 26 25  1  0  0  0  0
 27  2  8  0  0  0  0
 28 27  1  0  0  0  0
 29  2  8  0  0  0  0
 30 29  1  0  0  0  0
 31  2  8  0  0  0  0
 32 31  1  0  0  0  0
 33  4  1  0  0  0  0
 34 33  4  0  0  0  0
 35 34  1  0  0  0  0
 36 34  4  0  0  0  0
 37 36  1  0  0  0  0
 38 36  4  0  0  0  0
 39 38  1  0  0  0  0
 40 38  4  0  0  0  0
 41 40  1  0  0  0  0
 42 33  4  0  0  0  0
 43 42  1  0  0  0  0
 44  4  1  0  0  0  0
 45 44  4  0  0  0  0
 46 45  1  0  0  0  0
 47 45  4  0  0  0  0
 48 47  1  0  0  0  0
 49 47  4  0  0  0  0
 50 49  1  0  0  0  0
 51 49  4  0  0  0  0
 52 51  1  0  0  0  0
 53 44  4  0  0  0  0
 54 53  1  0  0  0  0
 55  5  1  0  0  0  0
 56 55  4  0  0  0  0
 57 56  1  0  0  0  0
 58 56  4  0  0  0  0
 59 58  1  0  0  0  0
 60 58  4  0  0  0  0
 61 60  1  0  0  0  0
 62 60  4  0  0  0  0
 63 62  1  0  0  0  0
 64 55  4  0  0  0  0
 65 64  1  0  0  0  0
 66  5  1  0  0  0  0
 67 66  4  0  0  0  0
 68 67  1  0  0  0  0
 69 67  4  0  0  0  0
 70 69  1  0  0  0  0
 71 69  4  0  0  0  0
 72 71  1  0  0  0  0
 73 71  4  0  0  0  0
 74 73  1  0  0  0  0
 75 66  4  0  0  0  0
 76 75  1  0  0  0  0
 77  5  1  0  0  0  0
 78 77  4  0  0  0  0
 79 78  1  0  0  0  0
 80 78  4  0  0  0  0
 81 80  1  0  0  0  0
 82 80  4  0  0  0  0
 83 82  1  0  0  0  0
 84 82  4  0  0  0  0
 85 84  1  0  0  0  0
 86 77  4  0  0  0  0
 87 86  1  0  0  0  0
 88  7  1  0  0  0  0
 89  9  1  0  0  0  0
 90 10  1  0  0  0  0
 91 11  1  0  0  0  0
 92  1  1  0  0  0  0
 93 13  1  0  0  0  0
 94 14  1  0  0  0  0
 95 15  1  0  0  0  0
 96  1  1  0  0  0  0
 97 17  1  0  0  0  0
  4 22  1  0  0  0  0
  7 11  1  0  0  0  0
  8  9  1  0  0  0  0
  8 12  1  0  0  0  0
  9 10  1  0  0  0  0
  9 13  1  0  0  0  0
 10 11  1  0  0  0  0
 10 14  1  0  0  0  0
 11 15  1  0  0  0  0
 11 16  1  0  0  0  0
 12 13  1  0  0  0  0
 12 16  1  0  0  0  0
 12 92  1  0  0  0  0
 13 14  1  0  0  0  0
 13 17  1  0  0  0  0
 14 15  1  0  0  0  0
 14 17  1  0  0  0  0
 15 16  1  0  0  0  0
 15 17  1  0  0  0  0
 16 17  1  0  0  0  0
 16 96  1  0  0  0  0
 22 23  4  0  0  0  0
 22 31  4  0  0  0  0
 23 25  4  0  0  0  0
 25 27  4  0  0  0  0
 27 29  4  0  0  0  0
 29 31  4  0  0  0  0
 40 42  4  0  0  0  0
 51 53  4  0  0  0  0
 62 64  4  0  0  0  0
 73 75  4  0  0  0  0
 84 86  4  0  0  0  0
M  END
$$$$
ICEJIK

From CSD data. Using bond type 'Any'. No disordered atoms. Largest molecule.
109141  0  0  0  0  0  0  0  0999 V2000
   10.6301   -2.9309   11.8247 Ru  0  0  0  0  0  0  0  0  0  0  0  0
    8.0442   -6.5886   10.7857 Ru  0  0  0  0  0  0  0  0  0  0  0  0
    9.2808   -1.7913   13.4500 Cl  0  0  0  0  0  0  0  0  0  0  0  0
   11.7890   -1.0752   11.1304 P   0  0  0  0  0  0  0  0  0  0  0  0
   12.1796   -3.7414   13.2871 P   0  0  0  0  0  0  0  0  0  0  0  0
    7.7562   -5.5274    8.9054 C   0  0  0  0  0  0  0  0  0  0  0  0
    9.1537   -6.5578    8.8842 B   0  0  0  0  0  0  0  0  0  0  0  0
    9.0105   -5.1162    7.8029 B   0  0  0  0  0  0  0  0  0  0  0  0
    8.1027   -3.8836    8.6548 B   0  0  0  0  0  0  0  0  0  0  0  0
    7.6241   -4.4885   10.3223 B   0  0  0  0  0  0  0  0  0  0  0  0
   10.1582   -6.0983   10.3208 B   0  0  0  0  0  0  0  0  0  0  0  0
   10.5438   -5.4366    8.6791 B   0  0  0  0  0  0  0  0  0  0  0  0
    9.8677   -3.7734    8.5379 B   0  0  0  0  0  0  0  0  0  0  0  0
    9.0346   -3.4346   10.0687 B   0  0  0  0  0  0  0  0  0  0  0  0
    9.2035   -4.8064   11.1804 B   0  0  0  0  0  0  0  0  0  0  0  0
   10.4757   -4.3722   10.0778 B   0  0  0  0  0  0  0  0  0  0  0  0
    6.4009   -3.9938   10.7688 O   0  0  0  0  0  0  0  0  0  0  0  0
    6.2032   -2.5821   10.8721 C   0  0  0  0  0  0  0  0  0  0  0  0
    5.2987   -2.4022   11.2032 H   0  0  0  0  0  0  0  0  0  0  0  0
    6.3160   -2.1715    9.9898 H   0  0  0  0  0  0  0  0  0  0  0  0
    6.8596   -2.2061   11.4947 H   0  0  0  0  0  0  0  0  0  0  0  0
    9.4524   -7.3229    8.2296 H   0  0  0  0  0  0  0  0  0  0  0  0
    6.7806   -8.4080   10.4909 C   0  0  0  0  0  0  0  0  0  0  0  0
    6.5421   -8.6863    9.5615 H   0  0  0  0  0  0  0  0  0  0  0  0
    6.0113   -7.4340   11.1212 C   0  0  0  0  0  0  0  0  0  0  0  0
    5.2279   -7.0373   10.6443 H   0  0  0  0  0  0  0  0  0  0  0  0
    6.4527   -6.8616   12.3209 C   0  0  0  0  0  0  0  0  0  0  0  0
    5.9794   -6.0600   12.6869 H   0  0  0  0  0  0  0  0  0  0  0  0
    7.6833   -7.2406   12.8661 C   0  0  0  0  0  0  0  0  0  0  0  0
    8.0702   -6.7132   13.6224 H   0  0  0  0  0  0  0  0  0  0  0  0
    8.4779   -8.2109   12.2161 C   0  0  0  0  0  0  0  0  0  0  0  0
    9.4156   -8.3752   12.5183 H   0  0  0  0  0  0  0  0  0  0  0  0
    8.0049   -8.8023   11.0194 C   0  0  0  0  0  0  0  0  0  0  0  0
    8.6197   -9.3694   10.4712 H   0  0  0  0  0  0  0  0  0  0  0  0
   12.4135    0.0483   12.4409 C   0  0  0  0  0  0  0  0  0  0  0  0
   11.5962    1.0453   12.9846 C   0  0  0  0  0  0  0  0  0  0  0  0
   10.7300    1.1913   12.6231 H   0  0  0  0  0  0  0  0  0  0  0  0
   12.0396    1.8259   14.0446 C   0  0  0  0  0  0  0  0  0  0  0  0
   11.4690    2.4921   14.4106 H   0  0  0  0  0  0  0  0  0  0  0  0
   13.2966    1.6380   14.5670 C   0  0  0  0  0  0  0  0  0  0  0  0
   13.5990    2.1744   15.2899 H   0  0  0  0  0  0  0  0  0  0  0  0
   14.1208    0.6595   14.0324 C   0  0  0  0  0  0  0  0  0  0  0  0
   14.9910    0.5324   14.3908 H   0  0  0  0  0  0  0  0  0  0  0  0
   13.6865   -0.1454   12.9724 C   0  0  0  0  0  0  0  0  0  0  0  0
   14.2560   -0.8185   12.6170 H   0  0  0  0  0  0  0  0  0  0  0  0
   10.7066    0.0272   10.1188 C   0  0  0  0  0  0  0  0  0  0  0  0
   11.1403    0.5694    8.9039 C   0  0  0  0  0  0  0  0  0  0  0  0
   12.0012    0.3582    8.5637 H   0  0  0  0  0  0  0  0  0  0  0  0
   10.2875    1.4291    8.1932 C   0  0  0  0  0  0  0  0  0  0  0  0
   10.5792    1.7953    7.3670 H   0  0  0  0  0  0  0  0  0  0  0  0
    9.0558    1.7479    8.6624 C   0  0  0  0  0  0  0  0  0  0  0  0
    8.5008    2.3429    8.1734 H   0  0  0  0  0  0  0  0  0  0  0  0
    8.6115    1.2089    9.8500 C   0  0  0  0  0  0  0  0  0  0  0  0
    7.7437    1.4238   10.1720 H   0  0  0  0  0  0  0  0  0  0  0  0
    9.4398    0.3407   10.5851 C   0  0  0  0  0  0  0  0  0  0  0  0
    9.1302   -0.0299   11.4021 H   0  0  0  0  0  0  0  0  0  0  0  0
   13.2673   -1.2751   10.0459 C   0  0  0  0  0  0  0  0  0  0  0  0
   14.1958   -0.2395    9.9275 C   0  0  0  0  0  0  0  0  0  0  0  0
   14.0799    0.5581   10.4317 H   0  0  0  0  0  0  0  0  0  0  0  0
   15.2886   -0.3656    9.0725 C   0  0  0  0  0  0  0  0  0  0  0  0
   15.9066    0.3512    8.9935 H   0  0  0  0  0  0  0  0  0  0  0  0
   15.4821   -1.5045    8.3511 C   0  0  0  0  0  0  0  0  0  0  0  0
   16.2505   -1.5944    7.7998 H   0  0  0  0  0  0  0  0  0  0  0  0
   14.5473   -2.5406    8.4270 C   0  0  0  0  0  0  0  0  0  0  0  0
   14.6552   -3.3266    7.9061 H   0  0  0  0  0  0  0  0  0  0  0  0
   13.4474   -2.3993    9.2805 C   0  0  0  0  0  0  0  0  0  0  0  0
   12.8098   -3.1014    9.3337 H   0  0  0  0  0  0  0  0  0  0  0  0
   11.6168   -5.3473   13.9899 C   0  0  0  0  0  0  0  0  0  0  0  0
   10.4872   -5.2881   14.8024 C   0  0  0  0  0  0  0  0  0  0  0  0
   10.0080   -4.4728   14.8844 H   0  0  0  0  0  0  0  0  0  0  0  0
   10.0553   -6.4112   15.4903 C   0  0  0  0  0  0  0  0  0  0  0  0
    9.2958   -6.3533   16.0568 H   0  0  0  0  0  0  0  0  0  0  0  0
   10.7169   -7.6067   15.3582 C   0  0  0  0  0  0  0  0  0  0  0  0
   10.4177   -8.3781   15.8260 H   0  0  0  0  0  0  0  0  0  0  0  0
   11.8266   -7.6733   14.5321 C   0  0  0  0  0  0  0  0  0  0  0  0
   12.2810   -8.5004   14.4273 H   0  0  0  0  0  0  0  0  0  0  0  0
   12.2865   -6.5458   13.8517 C   0  0  0  0  0  0  0  0  0  0  0  0
   13.0574   -6.6027   13.2989 H   0  0  0  0  0  0  0  0  0  0  0  0
   12.5985   -2.9281   14.8844 C   0  0  0  0  0  0  0  0  0  0  0  0
   12.0923   -1.6837   15.2504 C   0  0  0  0  0  0  0  0  0  0  0  0
   11.5287   -1.2144   14.6475 H   0  0  0  0  0  0  0  0  0  0  0  0
   12.3988   -1.1137   16.4851 C   0  0  0  0  0  0  0  0  0  0  0  0
   12.0349   -0.2692   16.7235 H   0  0  0  0  0  0  0  0  0  0  0  0
   13.2390   -1.7876   17.3644 C   0  0  0  0  0  0  0  0  0  0  0  0
   13.4656   -1.3985   18.2012 H   0  0  0  0  0  0  0  0  0  0  0  0
   13.7445   -3.0350   17.0105 C   0  0  0  0  0  0  0  0  0  0  0  0
   14.3132   -3.5004   17.6134 H   0  0  0  0  0  0  0  0  0  0  0  0
   13.4268   -3.6055   15.7850 C   0  0  0  0  0  0  0  0  0  0  0  0
   13.7742   -4.4596   15.5556 H   0  0  0  0  0  0  0  0  0  0  0  0
   13.8065   -4.1160   12.5274 C   0  0  0  0  0  0  0  0  0  0  0  0
   15.0026   -3.5745   13.0028 C   0  0  0  0  0  0  0  0  0  0  0  0
   14.9957   -3.0313   13.7834 H   0  0  0  0  0  0  0  0  0  0  0  0
   16.1994   -3.8188   12.3482 C   0  0  0  0  0  0  0  0  0  0  0  0
   17.0090   -3.4545   12.6884 H   0  0  0  0  0  0  0  0  0  0  0  0
   16.2174   -4.5862   11.2062 C   0  0  0  0  0  0  0  0  0  0  0  0
   17.0331   -4.7249   10.7400 H   0  0  0  0  0  0  0  0  0  0  0  0
   15.0534   -5.1567   10.7354 C   0  0  0  0  0  0  0  0  0  0  0  0
   15.0724   -5.7059    9.9594 H   0  0  0  0  0  0  0  0  0  0  0  0
   13.8555   -4.9262   11.3930 C   0  0  0  0  0  0  0  0  0  0  0  0
   13.0570   -5.3266   11.0665 H   0  0  0  0  0  0  0  0  0  0  0  0
    6.8640   -5.7706    8.5804 H   0  0  0  0  0  0  0  0  0  0  0  0
    8.8107   -5.2517    6.5910 H   0  0  0  0  0  0  0  0  0  0  0  0
    7.3266   -3.3656    8.1248 H   0  0  0  0  0  0  0  0  0  0  0  0
   10.9139   -6.7580   10.7977 H   0  0  0  0  0  0  0  0  0  0  0  0
   11.4188   -5.6351    8.3374 H   0  0  0  0  0  0  0  0  0  0  0  0
   10.4305   -3.0425    8.0033 H   0  0  0  0  0  0  0  0  0  0  0  0
    9.0851   -2.4504   10.5243 H   0  0  0  0  0  0  0  0  0  0  0  0
    9.4345   -4.4467   12.2100 H   0  0  0  0  0  0  0  0  0  0  0  0
   11.4251   -3.9312   10.5243 H   0  0  0  0  0  0  0  0  0  0  0  0
  1  3  1  0  0  0  0
  2  6  1  0  0  0  0
  4  1  1  0  0  0  0
  5  1  1  0  0  0  0
  6  7  1  0  0  0  0
  7  2  1  0  0  0  0
  8  6  1  0  0  0  0
  9  6  1  0  0  0  0
 10  2  1  0  0  0  0
 11  2  1  0  0  0  0
 12  7  1  0  0  0  0
 13  8  1  0  0  0  0
 14  9  1  0  0  0  0
 15  2  1  0  0  0  0
 16 11  1  0  0  0  0
 17 10  1  0  0  0  0
 18 17  1  0  0  0  0
 19 18  1  0  0  0  0
 20 18  1  0  0  0  0
 21 18  1  0  0  0  0
 22  7  1  0  0  0  0
 23  2  8  0  0  0  0
 24 23  1  0  0  0  0
 25  2  8  0  0  0  0
 26 25  1  0  0  0  0
 27  2  8  0  0  0  0
 28 27  1  0  0  0  0
 29  2  8  0  0  0  0
 30 29  1  0  0  0  0
 31  2  8  0  0  0  0
 32 31  1  0  0  0  0
 33  2  8  0  0  0  0
 34 33  1  0  0  0  0
 35  4  1  0  0  0  0
 36 35  4  0  0  0  0
 37 36  1  0  0  0  0
 38 36  4  0  0  0  0
 39 38  1  0  0  0  0
 40 38  4  0  0  0  0
 41 40  1  0  0  0  0
 42 40  4  0  0  0  0
 43 42  1  0  0  0  0
 44 35  4  0  0  0  0
 45 44  1  0  0  0  0
 46  4  1  0  0  0  0
 47 46  4  0  0  0  0
 48 47  1  0  0  0  0
 49 47  4  0  0  0  0
 50 49  1  0  0  0  0
 51 49  4  0  0  0  0
 52 51  1  0  0  0  0
 53 51  4  0  0  0  0
 54 53  1  0  0  0  0
 55 46  4  0  0  0  0
 56 55  1  0  0  0  0
 57  4  1  0  0  0  0
 58 57  4  0  0  0  0
 59 58  1  0  0  0  0
 60 58  4  0  0  0  0
 61 60  1  0  0  0  0
 62 60  4  0  0  0  0
 63 62  1  0  0  0  0
 64 62  4  0  0  0  0
 65 64  1  0  0  0  0
 66 57  4  0  0  0  0
 67 66  1  0  0  0  0
 68  5  1  0  0  0  0
 69 68  4  0  0  0  0
 70 69  1  0  0  0  0
 71 69  4  0  0  0  0
 72 71  1  0  0  0  0
 73 71  4  0  0  0  0
 74 73  1  0  0  0  0
 75 73  4  0  0  0  0
 76 75  1  0  0  0  0
 77 68  4  0  0  0  0
 78 77  1  0  0  0  0
 79  5  1  0  0  0  0
 80 79  4  0  0  0  0
 81 80  1  0  0  0  0
 82 80  4  0  0  0  0
 83 82  1  0  0  0  0
 84 82  4  0  0  0  0
 85 84  1  0  0  0  0
 86 84  4  0  0  0  0
 87 86  1  0  0  0  0
 88 79  4  0  0  0  0
 89 88  1  0  0  0  0
 90  5  1  0  0  0  0
 91 90  4  0  0  0  0
 92 91  1  0  0  0  0
 93 91  4  0  0  0  0
 94 93  1  0  0  0  0
 95 93  4  0  0  0  0
 96 95  1  0  0  0  0
 97 95  4  0  0  0  0
 98 97  1  0  0  0  0
 99 90  4  0  0  0  0
100 99  1  0  0  0  0
101  6  1  0  0  0  0
102  8  1  0  0  0  0
103  9  1  0  0  0  0
104 11  1  0  0  0  0
105 12  1  0  0  0  0
106 13  1  0  0  0  0
107  1  1  0  0  0  0
108  1  1  0  0  0  0
109  1  1  0  0  0  0
  6 10  1  0  0  0  0
  7  8  1  0  0  0  0
  7 11  1  0  0  0  0
  8  9  1  0  0  0  0
  8 12  1  0  0  0  0
  9 10  1  0  0  0  0
  9 13  1  0  0  0  0
 10 14  1  0  0  0  0
 10 15  1  0  0  0  0
 11 12  1  0  0  0  0
 11 15  1  0  0  0  0
 12 13  1  0  0  0  0
 12 16  1  0  0  0  0
 13 14  1  0  0  0  0
 13 16  1  0  0  0  0
 14 15  1  0  0  0  0
 14 16  1  0  0  0  0
 14107  1  0  0  0  0
 15 16  1  0  0  0  0
 15108  1  0  0  0  0
 16109  1  0  0  0  0
 23 25  4  0  0  0  0
 23 33  4  0  0  0  0
 25 27  4  0  0  0  0
 27 29  4  0  0  0  0
 29 31  4  0  0  0  0
 31 33  4  0  0  0  0
 42 44  4  0  0  0  0
 53 55  4  0  0  0  0
 64 66  4  0  0  0  0
 75 77  4  0  0  0  0
 86 88  4  0  0  0  0
 97 99  4  0  0  0  0
M  END
$$$$
ICIGUX

From CSD data. Using bond type 'Any'. No disordered atoms. Largest molecule.
122140  0  0  0  0  0  0  0  0999 V2000
   -0.7629   14.2211    7.5694 C   0  0  0  0  0  0  0  0  0  0  0  0
   -0.8772   14.8780    6.8529 H   0  0  0  0  0  0  0  0  0  0  0  0
   -0.8030   14.6745    8.4384 H   0  0  0  0  0  0  0  0  0  0  0  0
   -1.4773   13.5534    7.5176 H   0  0  0  0  0  0  0  0  0  0  0  0
    4.7241   15.0669    5.3143 C   0  0  0  0  0  0  0  0  0  0  0  0
    4.6685   15.3775    6.2433 H   0  0  0  0  0  0  0  0  0  0  0  0
    4.6677   15.8364    4.7096 H   0  0  0  0  0  0  0  0  0  0  0  0
    5.5764   14.6044    5.1749 H   0  0  0  0  0  0  0  0  0  0  0  0
    3.5718   14.1074    5.0287 C   0  0  0  0  0  0  0  0  0  0  0  0
    2.7145   14.5977    5.1036 H   0  0  0  0  0  0  0  0  0  0  0  0
    3.6497   13.7726    4.1000 H   0  0  0  0  0  0  0  0  0  0  0  0
    0.6001   13.5274    7.4153 C   0  0  0  0  0  0  0  0  0  0  0  0
    1.3231   14.2021    7.4592 H   0  0  0  0  0  0  0  0  0  0  0  0
    0.7326   12.8865    8.1579 H   0  0  0  0  0  0  0  0  0  0  0  0
    3.2930   10.7028    8.1271 C   0  0  0  0  0  0  0  0  0  0  0  0
    3.1351   11.5484    8.6167 H   0  0  0  0  0  0  0  0  0  0  0  0
    4.1857   10.7572    7.7040 H   0  0  0  0  0  0  0  0  0  0  0  0
   -0.3096    6.7737    1.7554 B   0  0  0  0  0  0  0  0  0  0  0  0
    4.9033   10.7769    3.7315 C   0  0  0  0  0  0  0  0  0  0  0  0
    7.1967   10.3673    4.4235 C   0  0  0  0  0  0  0  0  0  0  0  0
    3.5565   12.9243    5.9850 C   0  0  0  0  0  0  0  0  0  0  0  0
    3.5157   13.2618    6.9145 H   0  0  0  0  0  0  0  0  0  0  0  0
    4.3995   12.4164    5.8834 H   0  0  0  0  0  0  0  0  0  0  0  0
    5.4567    8.8614    5.1105 C   0  0  0  0  0  0  0  0  0  0  0  0
    6.8082    9.2362    5.0971 C   0  0  0  0  0  0  0  0  0  0  0  0
    4.5026    9.5870    4.4039 C   0  0  0  0  0  0  0  0  0  0  0  0
    0.6722   12.7907    6.0880 C   0  0  0  0  0  0  0  0  0  0  0  0
    0.5655   13.4629    5.3695 H   0  0  0  0  0  0  0  0  0  0  0  0
   -0.1119   12.1881    6.0390 H   0  0  0  0  0  0  0  0  0  0  0  0
    6.2408   11.1585    3.7765 C   0  0  0  0  0  0  0  0  0  0  0  0
   -2.4279   12.7098    3.7152 B   0  0  0  0  0  0  0  0  0  0  0  0
    3.9631   11.4842    3.1416 O   0  0  0  0  0  0  0  0  0  0  0  0
    2.2472   10.5348    7.0682 C   0  0  0  0  0  0  0  0  0  0  0  0
    1.3659   10.5086    7.5192 H   0  0  0  0  0  0  0  0  0  0  0  0
    2.3855    9.6496    6.6486 H   0  0  0  0  0  0  0  0  0  0  0  0
    3.2260    9.2724    4.3718 O   0  0  0  0  0  0  0  0  0  0  0  0
    7.9745    8.2593    5.9237 Cl  0  0  0  0  0  0  0  0  0  0  0  0
    8.8681   10.8332    4.3531 Cl  0  0  0  0  0  0  0  0  0  0  0  0
    6.7001   12.6616    3.0304 Cl  0  0  0  0  0  0  0  0  0  0  0  0
    4.9135    7.4930    6.0149 Cl  0  0  0  0  0  0  0  0  0  0  0  0
    2.0077   10.6738    3.3618 Mo  0  0  0  0  0  0  0  0  0  0  0  0
    0.9733   11.2370    0.9109 Fe  0  0  0  0  0  0  0  0  0  0  0  0
    0.3091    8.9369    2.1773 Fe  0  0  0  0  0  0  0  0  0  0  0  0
   -0.6094   11.4108    3.0964 Fe  0  0  0  0  0  0  0  0  0  0  0  0
   -1.1859   10.3845    1.0854 S   0  0  0  0  0  0  0  0  0  0  0  0
    0.1445    9.6264    4.3427 S   0  5  0  0  0  0  0  0  0  0  0  0
    1.1636   12.7213    2.5714 S   0  0  0  0  0  0  0  0  0  0  0  0
    2.3314    9.4989    1.3033 S   0  5  0  0  0  0  0  0  0  0  0  0
    2.1453   11.8006    5.6971 P   0  0  0  0  0  0  0  0  0  0  0  0
    3.2655    9.5278    9.1145 C   0  0  0  0  0  0  0  0  0  0  0  0
    2.3997    9.5050    9.5716 H   0  0  0  0  0  0  0  0  0  0  0  0
    3.9820    9.6383    9.7743 H   0  0  0  0  0  0  0  0  0  0  0  0
    3.3989    8.6890    8.6265 H   0  0  0  0  0  0  0  0  0  0  0  0
   -3.3930   12.5836    3.4564 H   0  0  0  0  0  0  0  0  0  0  0  0
   -1.9755   11.8694    4.2087 H   0  0  0  0  0  0  0  0  0  0  0  0
   -0.6869    7.3734    2.4480 H   0  0  0  0  0  0  0  0  0  0  0  0
   -1.8247   12.8933    2.8387 H   0  0  0  0  0  0  0  0  0  0  0  0
   -2.3458   13.4132    4.3286 H   0  0  0  0  0  0  0  0  0  0  0  0
   -0.8832    6.2161    1.3618 H   0  0  0  0  0  0  0  0  0  0  0  0
    0.1322    6.3269    2.0427 H   0  0  0  0  0  0  0  0  0  0  0  0
    0.1166    7.3011    1.0700 H   0  0  0  0  0  0  0  0  0  0  0  0
   -0.9733   11.3670   -0.9109 Fe  0  0  0  0  0  0  0  0  0  0  0  0
   -0.3091   13.6671   -2.1773 Fe  0  0  0  0  0  0  0  0  0  0  0  0
    0.6094   11.1932   -3.0964 Fe  0  0  0  0  0  0  0  0  0  0  0  0
    1.1859   12.2195   -1.0854 S   0  0  0  0  0  0  0  0  0  0  0  0
   -1.1636    9.8827   -2.5714 S   0  0  0  0  0  0  0  0  0  0  0  0
   -2.0077   11.9302   -3.3618 Mo  0  0  0  0  0  0  0  0  0  0  0  0
   -3.9631   11.1198   -3.1416 O   0  0  0  0  0  0  0  0  0  0  0  0
   -4.9033   11.8271   -3.7315 C   0  0  0  0  0  0  0  0  0  0  0  0
   -4.5026   13.0170   -4.4039 C   0  0  0  0  0  0  0  0  0  0  0  0
   -5.4567   13.7426   -5.1105 C   0  0  0  0  0  0  0  0  0  0  0  0
   -6.8082   13.3678   -5.0971 C   0  0  0  0  0  0  0  0  0  0  0  0
   -7.1967   12.2367   -4.4235 C   0  0  0  0  0  0  0  0  0  0  0  0
   -6.2408   11.4455   -3.7765 C   0  0  0  0  0  0  0  0  0  0  0  0
   -6.7001    9.9424   -3.0304 Cl  0  0  0  0  0  0  0  0  0  0  0  0
   -8.8681   11.7708   -4.3531 Cl  0  0  0  0  0  0  0  0  0  0  0  0
   -7.9745   14.3447   -5.9237 Cl  0  0  0  0  0  0  0  0  0  0  0  0
   -4.9135   15.1110   -6.0149 Cl  0  0  0  0  0  0  0  0  0  0  0  0
   -3.2260   13.3316   -4.3718 O   0  0  0  0  0  0  0  0  0  0  0  0
   -0.1445   12.9776   -4.3427 S   0  5  0  0  0  0  0  0  0  0  0  0
    1.9755   10.7346   -4.2087 H   0  0  0  0  0  0  0  0  0  0  0  0
    2.4279    9.8942   -3.7152 B   0  0  0  0  0  0  0  0  0  0  0  0
    3.3930   10.0204   -3.4564 H   0  0  0  0  0  0  0  0  0  0  0  0
    1.8247    9.7107   -2.8387 H   0  0  0  0  0  0  0  0  0  0  0  0
    2.3458    9.1908   -4.3286 H   0  0  0  0  0  0  0  0  0  0  0  0
   -2.3314   13.1051   -1.3033 S   0  5  0  0  0  0  0  0  0  0  0  0
   -2.1453   10.8034   -5.6971 P   0  0  0  0  0  0  0  0  0  0  0  0
   -3.5565    9.6797   -5.9850 C   0  0  0  0  0  0  0  0  0  0  0  0
   -3.5718    8.4966   -5.0287 C   0  0  0  0  0  0  0  0  0  0  0  0
   -4.7241    7.5371   -5.3143 C   0  0  0  0  0  0  0  0  0  0  0  0
   -4.6685    7.2265   -6.2433 H   0  0  0  0  0  0  0  0  0  0  0  0
   -4.6677    6.7676   -4.7096 H   0  0  0  0  0  0  0  0  0  0  0  0
   -5.5764    7.9996   -5.1749 H   0  0  0  0  0  0  0  0  0  0  0  0
   -2.7145    8.0063   -5.1036 H   0  0  0  0  0  0  0  0  0  0  0  0
   -3.6497    8.8314   -4.1000 H   0  0  0  0  0  0  0  0  0  0  0  0
   -3.5157    9.3422   -6.9145 H   0  0  0  0  0  0  0  0  0  0  0  0
   -4.3995   10.1876   -5.8834 H   0  0  0  0  0  0  0  0  0  0  0  0
   -0.6722    9.8133   -6.0880 C   0  0  0  0  0  0  0  0  0  0  0  0
   -0.6001    9.0766   -7.4153 C   0  0  0  0  0  0  0  0  0  0  0  0
    0.7629    8.3829   -7.5694 C   0  0  0  0  0  0  0  0  0  0  0  0
    0.8772    7.7260   -6.8529 H   0  0  0  0  0  0  0  0  0  0  0  0
    0.8030    7.9295   -8.4384 H   0  0  0  0  0  0  0  0  0  0  0  0
    1.4773    9.0506   -7.5176 H   0  0  0  0  0  0  0  0  0  0  0  0
   -1.3231    8.4019   -7.4592 H   0  0  0  0  0  0  0  0  0  0  0  0
   -0.7326    9.7175   -8.1579 H   0  0  0  0  0  0  0  0  0  0  0  0
   -0.5655    9.1411   -5.3695 H   0  0  0  0  0  0  0  0  0  0  0  0
    0.1119   10.4159   -6.0390 H   0  0  0  0  0  0  0  0  0  0  0  0
   -2.2472   12.0692   -7.0682 C   0  0  0  0  0  0  0  0  0  0  0  0
   -3.2930   11.9012   -8.1271 C   0  0  0  0  0  0  0  0  0  0  0  0
   -3.1351   11.0556   -8.6167 H   0  0  0  0  0  0  0  0  0  0  0  0
   -4.1857   11.8468   -7.7040 H   0  0  0  0  0  0  0  0  0  0  0  0
   -3.2655   13.0762   -9.1145 C   0  0  0  0  0  0  0  0  0  0  0  0
   -2.3997   13.0990   -9.5716 H   0  0  0  0  0  0  0  0  0  0  0  0
   -3.9820   12.9657   -9.7743 H   0  0  0  0  0  0  0  0  0  0  0  0
   -3.3989   13.9150   -8.6265 H   0  0  0  0  0  0  0  0  0  0  0  0
   -1.3659   12.0954   -7.5192 H   0  0  0  0  0  0  0  0  0  0  0  0
   -2.3855   12.9544   -6.6486 H   0  0  0  0  0  0  0  0  0  0  0  0
    0.6869   15.2306   -2.4480 H   0  0  0  0  0  0  0  0  0  0  0  0
    0.3096   15.8303   -1.7554 B   0  0  0  0  0  0  0  0  0  0  0  0
    0.8832   16.3879   -1.3618 H   0  0  0  0  0  0  0  0  0  0  0  0
   -0.1322   16.2771   -2.0427 H   0  0  0  0  0  0  0  0  0  0  0  0
   -0.1166   15.3029   -1.0700 H   0  0  0  0  0  0  0  0  0  0  0  0
  1  2  1  0  0  0  0
  3  1  1  0  0  0  0
  4  1  1  0  0  0  0
  5  6  1  0  0  0  0
  7  5  1  0  0  0  0
  8  5  1  0  0  0  0
  9  5  1  0  0  0  0
 10  9  1  0  0  0  0
 11  9  1  0  0  0  0
 12  1  1  0  0  0  0
 13 12  1  0  0  0  0
 14 12  1  0  0  0  0
 15 16  1  0  0  0  0
 17 15  1  0  0  0  0
 18 56  1  0  0  0  0
 19 26  4  0  0  0  0
 20 25  4  0  0  0  0
 21  9  1  0  0  0  0
 22 21  1  0  0  0  0
 23 21  1  0  0  0  0
 24 25  4  0  0  0  0
 25 37  1  0  0  0  0
 26 24  4  0  0  0  0
 27 12  1  0  0  0  0
 28 27  1  0  0  0  0
 29 27  1  0  0  0  0
 30 19  4  0  0  0  0
 31 54  1  0  0  0  0
 32 19  1  0  0  0  0
 33 15  1  0  0  0  0
 34 33  1  0  0  0  0
 35 33  1  0  0  0  0
 36 26  1  0  0  0  0
 38 20  1  0  0  0  0
 39 30  1  0  0  0  0
 40 24  1  0  0  0  0
 41 32  1  0  0  0  0
 42 45  1  0  0  0  0
 43 45  1  0  0  0  0
 44 45  1  0  0  0  0
 45 62  1  0  0  0  0
 46 41  1  0  0  0  0
 47 41  1  0  0  0  0
 48 41  1  0  0  0  0
 49 21  1  0  0  0  0
 50 15  1  0  0  0  0
 51 50  1  0  0  0  0
 52 50  1  0  0  0  0
 53 50  1  0  0  0  0
 55 31  1  0  0  0  0
 56 43  1  0  0  0  0
 57 31  1  0  0  0  0
 58 31  1  0  0  0  0
 59 18  1  0  0  0  0
 60 18  1  0  0  0  0
 61 18  1  0  0  0  0
 62 65  1  0  0  0  0
 63 65  1  0  0  0  0
 64 65  1  0  0  0  0
 65 42  1  0  0  0  0
 66 62  1  0  0  0  0
 67 66  1  0  0  0  0
 68 67  1  0  0  0  0
 69 68  1  0  0  0  0
 70 69  4  0  0  0  0
 71 70  4  0  0  0  0
 72 71  4  0  0  0  0
 73 72  4  0  0  0  0
 74 69  4  0  0  0  0
 75 74  1  0  0  0  0
 76 73  1  0  0  0  0
 77 72  1  0  0  0  0
 78 71  1  0  0  0  0
 79 67  1  0  0  0  0
 80 63  1  0  0  0  0
 81 64  1  0  0  0  0
 82 81  1  0  0  0  0
 83 82  1  0  0  0  0
 84 64  1  0  0  0  0
 85 82  1  0  0  0  0
 86 62  1  0  0  0  0
 87 67  1  0  0  0  0
 88 87  1  0  0  0  0
 89 88  1  0  0  0  0
 90 89  1  0  0  0  0
 91 90  1  0  0  0  0
 92 90  1  0  0  0  0
 93 90  1  0  0  0  0
 94 89  1  0  0  0  0
 95 89  1  0  0  0  0
 96 88  1  0  0  0  0
 97 88  1  0  0  0  0
 98 87  1  0  0  0  0
 99 98  1  0  0  0  0
100 99  1  0  0  0  0
101100  1  0  0  0  0
102100  1  0  0  0  0
103100  1  0  0  0  0
104 99  1  0  0  0  0
105 99  1  0  0  0  0
106 98  1  0  0  0  0
107 98  1  0  0  0  0
108 87  1  0  0  0  0
109108  1  0  0  0  0
110109  1  0  0  0  0
111109  1  0  0  0  0
112109  1  0  0  0  0
113112  1  0  0  0  0
114112  1  0  0  0  0
115112  1  0  0  0  0
116108  1  0  0  0  0
117108  1  0  0  0  0
118 63  1  0  0  0  0
119118  1  0  0  0  0
120119  1  0  0  0  0
121119  1  0  0  0  0
122 63  1  0  0  0  0
 20 30  4  0  0  0  0
 27 49  1  0  0  0  0
 33 49  1  0  0  0  0
 36 41  1  0  0  0  0
 41 49  1  0  0  0  0
 42 47  1  0  0  0  0
 42 48  1  0  0  0  0
 43 46  1  0  0  0  0
 43 48  1  0  0  0  0
 43 61  1  0  0  0  0
 44 46  1  0  0  0  0
 44 47  1  0  0  0  0
 44 55  1  0  0  0  0
 44 57  1  0  0  0  0
 63 86  1  0  0  0  0
 64 66  1  0  0  0  0
 64 80  1  0  0  0  0
 67 80  1  0  0  0  0
 67 86  1  0  0  0  0
 70 79  1  0  0  0  0
 73 74  4  0  0  0  0
 82 84  1  0  0  0  0
119122  1  0  0  0  0
M  CHG  4  46  -1  48  -1  80  -1  86  -1
M  END
$$$$
ICIGUX01

From CSD data. Using bond type 'Any'. Matching problem. Disorder unknown. Sizes unknown.
  0  0  0  0  0  0  0  0  0  0999 V2000
M  END
$$$$
ICIREU

From CSD data. Using bond type 'Any'. No disordered atoms. Largest molecule.
166172  0  0  0  0  0  0  0  0999 V2000
    3.1412   -0.0882   20.0877 C   0  0  0  0  0  0  0  0  0  0  0  0
    2.5217    0.6923   21.0860 C   0  0  0  0  0  0  0  0  0  0  0  0
    2.2065    0.1047   22.3062 C   0  0  0  0  0  0  0  0  0  0  0  0
    1.7545    0.6158   22.9667 H   0  0  0  0  0  0  0  0  0  0  0  0
    2.5398   -1.2119   22.5740 C   0  0  0  0  0  0  0  0  0  0  0  0
    2.3351   -1.5917   23.4204 H   0  0  0  0  0  0  0  0  0  0  0  0
    3.1758   -1.9764   21.6009 C   0  0  0  0  0  0  0  0  0  0  0  0
    3.4216   -2.8745   21.7940 H   0  0  0  0  0  0  0  0  0  0  0  0
    3.4535   -1.4400   20.3495 C   0  0  0  0  0  0  0  0  0  0  0  0
    1.1069    2.7269   21.6892 C   0  0  0  0  0  0  0  0  0  0  0  0
    0.3109    2.1697   21.5610 H   0  0  0  0  0  0  0  0  0  0  0  0
    0.9138    3.6427   21.3999 H   0  0  0  0  0  0  0  0  0  0  0  0
    1.3546    2.7282   22.6370 H   0  0  0  0  0  0  0  0  0  0  0  0
    2.2589    2.1650   20.8644 C   0  0  0  0  0  0  0  0  0  0  0  0
    2.0315    2.2921   19.9000 H   0  0  0  0  0  0  0  0  0  0  0  0
    3.5230    2.9929   21.1594 C   0  0  0  0  0  0  0  0  0  0  0  0
    3.7748    2.8815   22.0990 H   0  0  0  0  0  0  0  0  0  0  0  0
    3.3425    3.9396   20.9809 H   0  0  0  0  0  0  0  0  0  0  0  0
    4.2552    2.6854   20.5867 H   0  0  0  0  0  0  0  0  0  0  0  0
    3.1529   -3.5250   18.9659 C   0  0  0  0  0  0  0  0  0  0  0  0
    3.0226   -4.0684   19.7711 H   0  0  0  0  0  0  0  0  0  0  0  0
    3.5588   -4.0749   18.2638 H   0  0  0  0  0  0  0  0  0  0  0  0
    2.2864   -3.1869   18.6579 H   0  0  0  0  0  0  0  0  0  0  0  0
    4.0746   -2.3459   19.2889 C   0  0  0  0  0  0  0  0  0  0  0  0
    4.1851   -1.8062   18.4547 H   0  0  0  0  0  0  0  0  0  0  0  0
    5.4609   -2.8490   19.7091 C   0  0  0  0  0  0  0  0  0  0  0  0
    6.0555   -2.0832   19.8578 H   0  0  0  0  0  0  0  0  0  0  0  0
    5.8300   -3.4177   19.0025 H   0  0  0  0  0  0  0  0  0  0  0  0
    5.3836   -3.3673   20.5371 H   0  0  0  0  0  0  0  0  0  0  0  0
    3.6328    0.9090   15.1834 C   0  0  0  0  0  0  0  0  0  0  0  0
    3.7308    2.0314   14.3400 C   0  0  0  0  0  0  0  0  0  0  0  0
    3.7981    1.8392   12.9577 C   0  0  0  0  0  0  0  0  0  0  0  0
    3.8674    2.5952   12.3882 H   0  0  0  0  0  0  0  0  0  0  0  0
    3.7652    0.5799   12.3999 C   0  0  0  0  0  0  0  0  0  0  0  0
    3.8283    0.4702   11.4585 H   0  0  0  0  0  0  0  0  0  0  0  0
    3.6390   -0.5297   13.2314 C   0  0  0  0  0  0  0  0  0  0  0  0
    3.5917   -1.3971   12.8469 H   0  0  0  0  0  0  0  0  0  0  0  0
    3.5808   -0.3954   14.6137 C   0  0  0  0  0  0  0  0  0  0  0  0
    2.8067    4.3881   14.1940 C   0  0  0  0  0  0  0  0  0  0  0  0
    3.0694    4.4904   13.2559 H   0  0  0  0  0  0  0  0  0  0  0  0
    2.8243    5.2628   14.6368 H   0  0  0  0  0  0  0  0  0  0  0  0
    1.9004    4.0177   14.2401 H   0  0  0  0  0  0  0  0  0  0  0  0
    3.7817    3.4398   14.8969 C   0  0  0  0  0  0  0  0  0  0  0  0
    3.5231    3.3956   15.8615 H   0  0  0  0  0  0  0  0  0  0  0  0
    5.2100    4.0094   14.8200 C   0  0  0  0  0  0  0  0  0  0  0  0
    5.8239    3.4213   15.3086 H   0  0  0  0  0  0  0  0  0  0  0  0
    5.2273    4.9037   15.2194 H   0  0  0  0  0  0  0  0  0  0  0  0
    5.4903    4.0646   13.8831 H   0  0  0  0  0  0  0  0  0  0  0  0
    2.5493   -2.6900   14.9187 C   0  0  0  0  0  0  0  0  0  0  0  0
    1.6918   -2.2675   14.7062 H   0  0  0  0  0  0  0  0  0  0  0  0
    2.4112   -3.3926   15.5888 H   0  0  0  0  0  0  0  0  0  0  0  0
    2.9301   -3.0827   14.1063 H   0  0  0  0  0  0  0  0  0  0  0  0
    3.5122   -1.6386   15.4745 C   0  0  0  0  0  0  0  0  0  0  0  0
    3.1768   -1.3660   16.3771 H   0  0  0  0  0  0  0  0  0  0  0  0
    4.8883   -2.2543   15.6612 C   0  0  0  0  0  0  0  0  0  0  0  0
    5.2376   -2.5437   14.7930 H   0  0  0  0  0  0  0  0  0  0  0  0
    4.8225   -3.0284   16.2606 H   0  0  0  0  0  0  0  0  0  0  0  0
    5.4935   -1.5889   16.0524 H   0  0  0  0  0  0  0  0  0  0  0  0
    4.9429    0.6923   18.5727 C   0  0  0  0  0  0  0  0  0  0  0  0
    5.4275   -0.1713   18.5910 H   0  0  0  0  0  0  0  0  0  0  0  0
    5.3422    1.2991   19.2455 H   0  0  0  0  0  0  0  0  0  0  0  0
    4.9985    1.3051   17.2054 C   0  0  0  0  0  0  0  0  0  0  0  0
    5.1775    2.2765   17.2672 H   0  0  0  0  0  0  0  0  0  0  0  0
    5.7126    0.8836   16.6647 H   0  0  0  0  0  0  0  0  0  0  0  0
   -0.7474    5.0397   15.5186 C   0  0  0  0  0  0  0  0  0  0  0  0
    0.1222    5.4958   16.5306 C   0  0  0  0  0  0  0  0  0  0  0  0
    0.8266    6.6727   16.2901 C   0  0  0  0  0  0  0  0  0  0  0  0
    1.4282    6.9943   16.9523 H   0  0  0  0  0  0  0  0  0  0  0  0
    0.6791    7.3870   15.1192 C   0  0  0  0  0  0  0  0  0  0  0  0
    1.1434    8.2082   15.0012 H   0  0  0  0  0  0  0  0  0  0  0  0
   -0.1470    6.9044   14.1179 C   0  0  0  0  0  0  0  0  0  0  0  0
   -0.2275    7.3871   13.3030 H   0  0  0  0  0  0  0  0  0  0  0  0
   -0.8578    5.7230   14.2910 C   0  0  0  0  0  0  0  0  0  0  0  0
    1.7234    4.8515   18.3766 C   0  0  0  0  0  0  0  0  0  0  0  0
    2.3505    4.5590   17.6812 H   0  0  0  0  0  0  0  0  0  0  0  0
    1.8195    4.2765   19.1662 H   0  0  0  0  0  0  0  0  0  0  0  0
    1.9179    5.7799   18.6232 H   0  0  0  0  0  0  0  0  0  0  0  0
    0.2946    4.7543   17.8468 C   0  0  0  0  0  0  0  0  0  0  0  0
    0.0994    3.7885   17.6787 H   0  0  0  0  0  0  0  0  0  0  0  0
   -0.7026    5.2540   18.8823 C   0  0  0  0  0  0  0  0  0  0  0  0
   -0.5101    6.1897   19.0968 H   0  0  0  0  0  0  0  0  0  0  0  0
   -0.6286    4.7119   19.6942 H   0  0  0  0  0  0  0  0  0  0  0  0
   -1.6110    5.1811   18.5216 H   0  0  0  0  0  0  0  0  0  0  0  0
   -0.7445    4.9005   11.9303 C   0  0  0  0  0  0  0  0  0  0  0  0
   -0.4109    5.7489   11.5676 H   0  0  0  0  0  0  0  0  0  0  0  0
   -1.2441    4.4225   11.2354 H   0  0  0  0  0  0  0  0  0  0  0  0
    0.0118    4.3514   12.2246 H   0  0  0  0  0  0  0  0  0  0  0  0
   -1.6652    5.1803   13.1186 C   0  0  0  0  0  0  0  0  0  0  0  0
   -2.0785    4.3138   13.4022 H   0  0  0  0  0  0  0  0  0  0  0  0
   -2.7919    6.1285   12.6884 C   0  0  0  0  0  0  0  0  0  0  0  0
   -3.3671    6.3203   13.4567 H   0  0  0  0  0  0  0  0  0  0  0  0
   -3.3219    5.7057   11.9816 H   0  0  0  0  0  0  0  0  0  0  0  0
   -2.4056    6.9642   12.3535 H   0  0  0  0  0  0  0  0  0  0  0  0
   -3.0177    0.5784   16.5224 C   0  0  0  0  0  0  0  0  0  0  0  0
   -2.9802    0.2780   17.8998 C   0  0  0  0  0  0  0  0  0  0  0  0
   -3.4066   -0.9761   18.3176 C   0  0  0  0  0  0  0  0  0  0  0  0
   -3.3766   -1.1947   19.2405 H   0  0  0  0  0  0  0  0  0  0  0  0
   -3.8769   -1.9155   17.4127 C   0  0  0  0  0  0  0  0  0  0  0  0
   -4.1487   -2.7756   17.7134 H   0  0  0  0  0  0  0  0  0  0  0  0
   -3.9470   -1.5919   16.0690 C   0  0  0  0  0  0  0  0  0  0  0  0
   -4.2955   -2.2295   15.4574 H   0  0  0  0  0  0  0  0  0  0  0  0
   -3.5182   -0.3555   15.5930 C   0  0  0  0  0  0  0  0  0  0  0  0
   -2.0459    0.8064   20.2337 C   0  0  0  0  0  0  0  0  0  0  0  0
   -2.7124    0.2415   20.6760 H   0  0  0  0  0  0  0  0  0  0  0  0
   -1.8100    1.5558   20.8197 H   0  0  0  0  0  0  0  0  0  0  0  0
   -1.2433    0.2764   20.0438 H   0  0  0  0  0  0  0  0  0  0  0  0
   -2.6193    1.3442   18.9294 C   0  0  0  0  0  0  0  0  0  0  0  0
   -1.9288    1.9372   18.5191 H   0  0  0  0  0  0  0  0  0  0  0  0
   -3.8373    2.2100   19.2527 C   0  0  0  0  0  0  0  0  0  0  0  0
   -4.1994    2.5881   18.4224 H   0  0  0  0  0  0  0  0  0  0  0  0
   -3.5714    2.9374   19.8529 H   0  0  0  0  0  0  0  0  0  0  0  0
   -4.5229    1.6617   19.6868 H   0  0  0  0  0  0  0  0  0  0  0  0
   -3.2367   -1.1366   13.1793 C   0  0  0  0  0  0  0  0  0  0  0  0
   -2.3109   -1.3823   13.3898 H   0  0  0  0  0  0  0  0  0  0  0  0
   -3.2905   -0.8295   12.2494 H   0  0  0  0  0  0  0  0  0  0  0  0
   -3.8174   -1.9172   13.3005 H   0  0  0  0  0  0  0  0  0  0  0  0
   -3.6909   -0.0128   14.1157 C   0  0  0  0  0  0  0  0  0  0  0  0
   -3.1425    0.7984   13.9178 H   0  0  0  0  0  0  0  0  0  0  0  0
   -5.1562    0.3138   13.8140 C   0  0  0  0  0  0  0  0  0  0  0  0
   -5.7021   -0.4892   13.9426 H   0  0  0  0  0  0  0  0  0  0  0  0
   -5.2376    0.6209   12.8865 H   0  0  0  0  0  0  0  0  0  0  0  0
   -5.4641    1.0186   14.4186 H   0  0  0  0  0  0  0  0  0  0  0  0
   -3.0379    4.2008   15.9594 C   0  0  0  0  0  0  0  0  0  0  0  0
   -3.3646    4.8678   15.3037 H   0  0  0  0  0  0  0  0  0  0  0  0
   -3.2067    4.5360   16.8755 H   0  0  0  0  0  0  0  0  0  0  0  0
   -3.6961    2.8463   15.7403 C   0  0  0  0  0  0  0  0  0  0  0  0
   -4.4817    2.7330   16.3325 H   0  0  0  0  0  0  0  0  0  0  0  0
   -3.9837    2.7378   14.8004 H   0  0  0  0  0  0  0  0  0  0  0  0
    0.1897    1.1491   10.4875 C   0  0  0  0  0  0  0  0  0  0  0  0
   -0.6144    1.6936   10.3603 H   0  0  0  0  0  0  0  0  0  0  0  0
    0.2747    0.5151    9.7455 H   0  0  0  0  0  0  0  0  0  0  0  0
    0.9779    1.7296   10.5140 H   0  0  0  0  0  0  0  0  0  0  0  0
    0.0809    0.3833   11.7989 C   0  0  0  0  0  0  0  0  0  0  0  0
   -0.7307   -0.1813   11.7759 H   0  0  0  0  0  0  0  0  0  0  0  0
    0.8648   -0.2167   11.8899 H   0  0  0  0  0  0  0  0  0  0  0  0
    0.0152    1.2992   13.0130 C   0  0  0  0  0  0  0  0  0  0  0  0
   -0.8329    1.8084   12.9783 H   0  0  0  0  0  0  0  0  0  0  0  0
    0.7585    1.9515   12.9584 H   0  0  0  0  0  0  0  0  0  0  0  0
    0.0981    0.5780   14.3564 C   0  0  0  0  0  0  0  0  0  0  0  0
    0.8159   -0.1032   14.3195 H   0  0  0  0  0  0  0  0  0  0  0  0
   -0.7579    0.1122   14.5302 H   0  0  0  0  0  0  0  0  0  0  0  0
   -1.6032    3.9099   15.7549 N   0  0  0  0  0  0  0  0  0  0  0  0
   -2.6245    1.8787   16.0844 N   0  0  0  0  0  0  0  0  0  0  0  0
    3.6811    1.0591   16.6032 N   0  0  0  0  0  0  0  0  0  0  0  0
    3.5045    0.4922   18.8325 N   0  0  0  0  0  0  0  0  0  0  0  0
   -1.3466    2.5177   15.9468 B   0  0  0  0  0  0  0  0  0  0  0  0
    0.4499    1.7726   15.7576 P   0  0  0  0  0  0  0  0  0  0  0  0
    2.7210    0.7000   17.6323 B   0  0  0  0  0  0  0  0  0  0  0  0
    0.8265    0.6016   17.5721 P   0  0  0  0  0  0  0  0  0  0  0  0
   -0.7065   -3.1439   16.6149 O   0  0  0  0  0  0  0  0  0  0  0  0
   -0.3386   -2.7669   19.1253 O   0  0  0  0  0  0  0  0  0  0  0  0
   -0.9414   -3.3397   15.2355 C   0  0  0  0  0  0  0  0  0  0  0  0
   -0.3838   -4.0765   14.9095 H   0  0  0  0  0  0  0  0  0  0  0  0
   -0.7185   -2.5195   14.7459 H   0  0  0  0  0  0  0  0  0  0  0  0
   -1.8861   -3.5581   15.0930 H   0  0  0  0  0  0  0  0  0  0  0  0
   -0.0439   -2.5256   20.4932 C   0  0  0  0  0  0  0  0  0  0  0  0
   -0.8396   -2.7098   21.0354 H   0  0  0  0  0  0  0  0  0  0  0  0
    0.2209   -1.5891   20.6090 H   0  0  0  0  0  0  0  0  0  0  0  0
    0.6883   -3.1107   20.7776 H   0  0  0  0  0  0  0  0  0  0  0  0
   -0.9499   -4.2556   17.4219 C   0  0  0  0  0  0  0  0  0  0  0  0
   -0.3935   -5.0077   17.0986 H   0  0  0  0  0  0  0  0  0  0  0  0
   -1.8990   -4.5196   17.3167 H   0  0  0  0  0  0  0  0  0  0  0  0
   -0.6927   -4.0657   18.7812 C   0  0  0  0  0  0  0  0  0  0  0  0
   -1.4994   -4.3213   19.2951 H   0  0  0  0  0  0  0  0  0  0  0  0
    0.0395   -4.6760   19.0521 H   0  0  0  0  0  0  0  0  0  0  0  0
   -0.3459   -1.5269   17.6365 Li  0  0  0  0  0  0  0  0  0  0  0  0
  1  2  4  0  0  0  0
  2  3  4  0  0  0  0
  3  4  1  0  0  0  0
  5  3  4  0  0  0  0
  6  5  1  0  0  0  0
  7  5  4  0  0  0  0
  8  7  1  0  0  0  0
  9  1  4  0  0  0  0
 10 11  1  0  0  0  0
 12 10  1  0  0  0  0
 13 10  1  0  0  0  0
 14  2  1  0  0  0  0
 15 14  1  0  0  0  0
 16 14  1  0  0  0  0
 17 16  1  0  0  0  0
 18 16  1  0  0  0  0
 19 16  1  0  0  0  0
 20 21  1  0  0  0  0
 22 20  1  0  0  0  0
 23 20  1  0  0  0  0
 24  9  1  0  0  0  0
 25 24  1  0  0  0  0
 26 24  1  0  0  0  0
 27 26  1  0  0  0  0
 28 26  1  0  0  0  0
 29 26  1  0  0  0  0
 30 31  4  0  0  0  0
 31 32  4  0  0  0  0
 32 33  1  0  0  0  0
 34 32  4  0  0  0  0
 35 34  1  0  0  0  0
 36 34  4  0  0  0  0
 37 36  1  0  0  0  0
 38 30  4  0  0  0  0
 39 40  1  0  0  0  0
 41 39  1  0  0  0  0
 42 39  1  0  0  0  0
 43 31  1  0  0  0  0
 44 43  1  0  0  0  0
 45 43  1  0  0  0  0
 46 45  1  0  0  0  0
 47 45  1  0  0  0  0
 48 45  1  0  0  0  0
 49 50  1  0  0  0  0
 51 49  1  0  0  0  0
 52 49  1  0  0  0  0
 53 38  1  0  0  0  0
 54 53  1  0  0  0  0
 55 53  1  0  0  0  0
 56 55  1  0  0  0  0
 57 55  1  0  0  0  0
 58 55  1  0  0  0  0
 59 60  1  0  0  0  0
 61 59  1  0  0  0  0
 62 59  1  0  0  0  0
 63 62  1  0  0  0  0
 64 62  1  0  0  0  0
 65 66  4  0  0  0  0
 66 67  4  0  0  0  0
 67 68  1  0  0  0  0
 69 67  4  0  0  0  0
 70 69  1  0  0  0  0
 71 69  4  0  0  0  0
 72 71  1  0  0  0  0
 73 65  4  0  0  0  0
 74 75  1  0  0  0  0
 76 74  1  0  0  0  0
 77 74  1  0  0  0  0
 78 66  1  0  0  0  0
 79 78  1  0  0  0  0
 80 78  1  0  0  0  0
 81 80  1  0  0  0  0
 82 80  1  0  0  0  0
 83 80  1  0  0  0  0
 84 85  1  0  0  0  0
 86 84  1  0  0  0  0
 87 84  1  0  0  0  0
 88 73  1  0  0  0  0
 89 88  1  0  0  0  0
 90 88  1  0  0  0  0
 91 90  1  0  0  0  0
 92 90  1  0  0  0  0
 93 90  1  0  0  0  0
 94 95  4  0  0  0  0
 95 96  4  0  0  0  0
 96 97  1  0  0  0  0
 98 96  4  0  0  0  0
 99 98  1  0  0  0  0
100 98  4  0  0  0  0
101100  1  0  0  0  0
102 94  4  0  0  0  0
103104  1  0  0  0  0
105103  1  0  0  0  0
106103  1  0  0  0  0
107 95  1  0  0  0  0
108107  1  0  0  0  0
109107  1  0  0  0  0
110109  1  0  0  0  0
111109  1  0  0  0  0
112109  1  0  0  0  0
113114  1  0  0  0  0
115113  1  0  0  0  0
116113  1  0  0  0  0
117102  1  0  0  0  0
118117  1  0  0  0  0
119117  1  0  0  0  0
120119  1  0  0  0  0
121119  1  0  0  0  0
122119  1  0  0  0  0
123124  1  0  0  0  0
125123  1  0  0  0  0
126123  1  0  0  0  0
127126  1  0  0  0  0
128126  1  0  0  0  0
129130  1  0  0  0  0
131129  1  0  0  0  0
132129  1  0  0  0  0
133129  1  0  0  0  0
134133  1  0  0  0  0
135133  1  0  0  0  0
136133  1  0  0  0  0
137136  1  0  0  0  0
138136  1  0  0  0  0
139136  1  0  0  0  0
140139  1  0  0  0  0
141139  1  0  0  0  0
142 65  1  0  0  0  0
143 94  1  0  0  0  0
144 30  1  0  0  0  0
145  1  1  0  0  0  0
146142  1  0  0  0  0
147139  1  0  0  0  0
148144  1  0  0  0  0
149147  1  0  0  0  0
150152  1  0  0  0  0
151156  1  0  0  0  0
152153  1  0  0  0  0
154152  1  0  0  0  0
155152  1  0  0  0  0
156157  1  0  0  0  0
158156  1  0  0  0  0
159156  1  0  0  0  0
160150  1  0  0  0  0
161160  1  0  0  0  0
162160  1  0  0  0  0
163151  1  0  0  0  0
164163  1  0  0  0  0
165163  1  0  0  0  0
166149  1  0  0  0  0
  7  9  4  0  0  0  0
 10 14  1  0  0  0  0
 20 24  1  0  0  0  0
 36 38  4  0  0  0  0
 39 43  1  0  0  0  0
 49 53  1  0  0  0  0
 59145  1  0  0  0  0
 62144  1  0  0  0  0
 71 73  4  0  0  0  0
 74 78  1  0  0  0  0
 84 88  1  0  0  0  0
100102  4  0  0  0  0
103107  1  0  0  0  0
113117  1  0  0  0  0
123142  1  0  0  0  0
126143  1  0  0  0  0
143146  1  0  0  0  0
145148  1  0  0  0  0
146147  1  0  0  0  0
148149  1  0  0  0  0
150166  1  0  0  0  0
151166  1  0  0  0  0
160163  1  0  0  0  0
M  END
$$$$
IDEJOR

From CSD data. Using bond type 'Any'. Matching problem. No disordered atoms. Largest molecule.
158172  0  0  0  0  0  0  0  0999 V2000
    6.7439    3.6175    1.5868 Mo  0  0  0  0  0  0  0  0  0  0  0  0
    6.9351    1.2969    0.2101 Fe  0  0  0  0  0  0  0  0  0  0  0  0
    6.7856    1.2824    2.8624 Fe  0  0  0  0  0  0  0  0  0  0  0  0
    4.6129    1.9444    1.3541 Fe  0  0  0  0  0  0  0  0  0  0  0  0
    5.6136    3.0022   -0.3862 S   0  0  0  0  0  0  0  0  0  0  0  0
    5.6409   -0.1857    1.5052 S   0  0  0  0  0  0  0  0  0  0  0  0
    5.3171    2.8958    3.3290 S   0  5  0  0  0  0  0  0  0  0  0  0
    9.5186    6.8556   -1.1924 Cl  0  0  0  0  0  0  0  0  0  0  0  0
    8.5053    1.9780    1.6430 S   0  0  0  0  0  0  0  0  0  0  0  0
    7.5523    0.1075    4.7356 P   0  0  0  0  0  0  0  0  0  0  0  0
    9.6251    6.0480    4.9789 Cl  0  0  0  0  0  0  0  0  0  0  0  0
   11.7043    8.3274    0.5132 Cl  0  0  0  0  0  0  0  0  0  0  0  0
    5.2804    5.7660    1.5876 P   0  0  0  0  0  0  0  0  0  0  0  0
   11.7263    7.9566    3.6325 Cl  0  0  0  0  0  0  0  0  0  0  0  0
    7.9409    4.8919    0.3939 O   0  0  0  0  0  0  0  0  0  0  0  0
    7.8768    4.6759    3.0099 O   0  0  0  0  0  0  0  0  0  0  0  0
    2.3768    1.8626    0.8136 B   0  0  0  0  0  0  0  0  0  0  0  0
    9.6615    6.5579    0.4944 C   0  0  0  0  0  0  0  0  0  0  0  0
    8.7867    5.6284    1.0943 C   0  0  0  0  0  0  0  0  0  0  0  0
    8.7808    5.4886    2.4950 C   0  0  0  0  0  0  0  0  0  0  0  0
    9.6723    6.2375    3.2648 C   0  0  0  0  0  0  0  0  0  0  0  0
   10.5941    7.1015    2.6572 C   0  0  0  0  0  0  0  0  0  0  0  0
   10.5819    7.2537    1.2719 C   0  0  0  0  0  0  0  0  0  0  0  0
    6.3241   -0.8658    5.6337 C   0  0  0  0  0  0  0  0  0  0  0  0
    6.0698   -1.6271    5.0543 H   0  0  0  0  0  0  0  0  0  0  0  0
    6.7743   -1.2482    6.4293 H   0  0  0  0  0  0  0  0  0  0  0  0
    5.1594   -0.2691    6.0662 C   0  0  0  0  0  0  0  0  0  0  0  0
    4.7182    0.1700    5.2964 H   0  0  0  0  0  0  0  0  0  0  0  0
    5.3836    0.4320    6.7279 H   0  0  0  0  0  0  0  0  0  0  0  0
    8.3576    1.0605    6.0019 C   0  0  0  0  0  0  0  0  0  0  0  0
    7.7668    1.0056    6.7949 H   0  0  0  0  0  0  0  0  0  0  0  0
    9.1777    0.5559    6.2362 H   0  0  0  0  0  0  0  0  0  0  0  0
    9.5338   -1.2854    3.3266 C   0  0  0  0  0  0  0  0  0  0  0  0
   10.0398   -0.4373    3.3936 H   0  0  0  0  0  0  0  0  0  0  0  0
    9.0116   -1.2287    2.4873 H   0  0  0  0  0  0  0  0  0  0  0  0
   10.5450   -2.3335    3.0923 C   0  0  0  0  0  0  0  0  0  0  0  0
   10.9530   -2.5885    3.9472 H   0  0  0  0  0  0  0  0  0  0  0  0
   11.2362   -1.9900    2.4898 H   0  0  0  0  0  0  0  0  0  0  0  0
   10.1157   -3.1161    2.6881 H   0  0  0  0  0  0  0  0  0  0  0  0
    8.6786   -1.2447    4.2613 C   0  0  0  0  0  0  0  0  0  0  0  0
    9.1891   -1.4518    5.0852 H   0  0  0  0  0  0  0  0  0  0  0  0
    8.0911   -2.0255    4.1068 H   0  0  0  0  0  0  0  0  0  0  0  0
    4.1390   -1.3031    6.7305 C   0  0  0  0  0  0  0  0  0  0  0  0
    3.9082   -1.9989    6.0791 H   0  0  0  0  0  0  0  0  0  0  0  0
    3.3250   -0.8286    7.0009 H   0  0  0  0  0  0  0  0  0  0  0  0
    4.5553   -1.7138    7.5158 H   0  0  0  0  0  0  0  0  0  0  0  0
    3.4729    5.5611    1.6607 C   0  0  0  0  0  0  0  0  0  0  0  0
    3.1979    5.5009    0.7106 H   0  0  0  0  0  0  0  0  0  0  0  0
    3.3462    4.6529    2.0315 H   0  0  0  0  0  0  0  0  0  0  0  0
    5.5999    7.0360    0.2678 C   0  0  0  0  0  0  0  0  0  0  0  0
    5.0150    7.8221    0.4094 H   0  0  0  0  0  0  0  0  0  0  0  0
    6.5422    7.3387    0.3167 H   0  0  0  0  0  0  0  0  0  0  0  0
    5.3520    6.4889   -0.9552 C   0  0  0  0  0  0  0  0  0  0  0  0
    4.4258    6.1401   -0.9913 H   0  0  0  0  0  0  0  0  0  0  0  0
    5.9771    5.7417   -1.1278 H   0  0  0  0  0  0  0  0  0  0  0  0
    9.4852    3.0258    7.0163 C   0  0  0  0  0  0  0  0  0  0  0  0
    9.1293    2.7655    7.8918 H   0  0  0  0  0  0  0  0  0  0  0  0
    9.3846    3.9942    6.8953 H   0  0  0  0  0  0  0  0  0  0  0  0
   10.4340    2.7868    6.9648 H   0  0  0  0  0  0  0  0  0  0  0  0
    1.1827    6.0303    2.2092 C   0  0  0  0  0  0  0  0  0  0  0  0
    0.8368    5.6939    1.3543 H   0  0  0  0  0  0  0  0  0  0  0  0
    0.7927    6.9103    2.3946 H   0  0  0  0  0  0  0  0  0  0  0  0
    0.9416    5.4089    2.9275 H   0  0  0  0  0  0  0  0  0  0  0  0
    8.7215    2.2999    5.9220 C   0  0  0  0  0  0  0  0  0  0  0  0
    7.8952    2.8239    5.7624 H   0  0  0  0  0  0  0  0  0  0  0  0
    9.2670    2.3796    5.1007 H   0  0  0  0  0  0  0  0  0  0  0  0
    5.5649    7.7229   -2.1294 C   0  0  0  0  0  0  0  0  0  0  0  0
    5.2138    8.5692   -1.7818 H   0  0  0  0  0  0  0  0  0  0  0  0
    5.0822    7.4804   -2.9481 H   0  0  0  0  0  0  0  0  0  0  0  0
    6.5180    7.8221   -2.3302 H   0  0  0  0  0  0  0  0  0  0  0  0
    2.6840    6.1436    2.1294 C   0  0  0  0  0  0  0  0  0  0  0  0
    2.8246    7.0625    1.7663 H   0  0  0  0  0  0  0  0  0  0  0  0
    2.9630    6.2038    3.0795 H   0  0  0  0  0  0  0  0  0  0  0  0
    5.6808    6.7810    3.2906 C   0  0  0  0  0  0  0  0  0  0  0  0
    4.8846    8.0204    3.3884 C   0  0  0  0  0  0  0  0  0  0  0  0
    5.9197    7.9673    4.9179 C   0  0  0  0  0  0  0  0  0  0  0  0
    5.3621    8.1620    5.6929 H   0  0  0  0  0  0  0  0  0  0  0  0
    6.6384    8.6223    4.8458 H   0  0  0  0  0  0  0  0  0  0  0  0
    6.3101    7.0661    5.0131 H   0  0  0  0  0  0  0  0  0  0  0  0
    6.7811   -3.6175   -1.5868 Mo  0  0  0  0  0  0  0  0  0  0  0  0
    6.5899   -1.2969   -0.2101 Fe  0  0  0  0  0  0  0  0  0  0  0  0
    6.7394   -1.2824   -2.8624 Fe  0  0  0  0  0  0  0  0  0  0  0  0
    8.9121   -1.9444   -1.3541 Fe  0  0  0  0  0  0  0  0  0  0  0  0
    7.9114   -3.0022    0.3862 S   0  0  0  0  0  0  0  0  0  0  0  0
    7.8841    0.1857   -1.5052 S   0  0  0  0  0  0  0  0  0  0  0  0
    8.2079   -2.8958   -3.3290 S   0  5  0  0  0  0  0  0  0  0  0  0
    4.0064   -6.8556    1.1924 Cl  0  0  0  0  0  0  0  0  0  0  0  0
    5.0197   -1.9780   -1.6430 S   0  0  0  0  0  0  0  0  0  0  0  0
    5.9727   -0.1075   -4.7356 P   0  0  0  0  0  0  0  0  0  0  0  0
    3.8999   -6.0480   -4.9789 Cl  0  0  0  0  0  0  0  0  0  0  0  0
    1.8207   -8.3274   -0.5132 Cl  0  0  0  0  0  0  0  0  0  0  0  0
    8.2446   -5.7660   -1.5876 P   0  0  0  0  0  0  0  0  0  0  0  0
    1.7987   -7.9566   -3.6325 Cl  0  0  0  0  0  0  0  0  0  0  0  0
    5.5841   -4.8919   -0.3939 O   0  0  0  0  0  0  0  0  0  0  0  0
    5.6482   -4.6759   -3.0099 O   0  0  0  0  0  0  0  0  0  0  0  0
   11.1482   -1.8626   -0.8136 B   0  0  0  0  0  0  0  0  0  0  0  0
    3.8635   -6.5579   -0.4944 C   0  0  0  0  0  0  0  0  0  0  0  0
    4.7383   -5.6284   -1.0943 C   0  0  0  0  0  0  0  0  0  0  0  0
    4.7442   -5.4886   -2.4950 C   0  0  0  0  0  0  0  0  0  0  0  0
    3.8527   -6.2375   -3.2648 C   0  0  0  0  0  0  0  0  0  0  0  0
    2.9309   -7.1015   -2.6572 C   0  0  0  0  0  0  0  0  0  0  0  0
    2.9431   -7.2537   -1.2719 C   0  0  0  0  0  0  0  0  0  0  0  0
    7.2009    0.8658   -5.6337 C   0  0  0  0  0  0  0  0  0  0  0  0
    7.4552    1.6271   -5.0543 H   0  0  0  0  0  0  0  0  0  0  0  0
    6.7507    1.2482   -6.4293 H   0  0  0  0  0  0  0  0  0  0  0  0
    8.3656    0.2691   -6.0662 C   0  0  0  0  0  0  0  0  0  0  0  0
    8.8068   -0.1700   -5.2964 H   0  0  0  0  0  0  0  0  0  0  0  0
    8.1414   -0.4320   -6.7279 H   0  0  0  0  0  0  0  0  0  0  0  0
    5.1674   -1.0605   -6.0019 C   0  0  0  0  0  0  0  0  0  0  0  0
    5.7582   -1.0056   -6.7949 H   0  0  0  0  0  0  0  0  0  0  0  0
    4.3473   -0.5559   -6.2362 H   0  0  0  0  0  0  0  0  0  0  0  0
    3.9912    1.2854   -3.3266 C   0  0  0  0  0  0  0  0  0  0  0  0
    3.4852    0.4373   -3.3936 H   0  0  0  0  0  0  0  0  0  0  0  0
    4.5134    1.2287   -2.4873 H   0  0  0  0  0  0  0  0  0  0  0  0
    2.9800    2.3335   -3.0923 C   0  0  0  0  0  0  0  0  0  0  0  0
    2.5720    2.5885   -3.9472 H   0  0  0  0  0  0  0  0  0  0  0  0
    2.2888    1.9900   -2.4898 H   0  0  0  0  0  0  0  0  0  0  0  0
    3.4093    3.1161   -2.6881 H   0  0  0  0  0  0  0  0  0  0  0  0
    4.8464    1.2447   -4.2613 C   0  0  0  0  0  0  0  0  0  0  0  0
    4.3359    1.4518   -5.0852 H   0  0  0  0  0  0  0  0  0  0  0  0
    5.4339    2.0255   -4.1068 H   0  0  0  0  0  0  0  0  0  0  0  0
    9.3860    1.3031   -6.7305 C   0  0  0  0  0  0  0  0  0  0  0  0
    9.6168    1.9989   -6.0791 H   0  0  0  0  0  0  0  0  0  0  0  0
   10.2000    0.8286   -7.0009 H   0  0  0  0  0  0  0  0  0  0  0  0
    8.9697    1.7138   -7.5158 H   0  0  0  0  0  0  0  0  0  0  0  0
   10.0521   -5.5611   -1.6607 C   0  0  0  0  0  0  0  0  0  0  0  0
   10.3271   -5.5009   -0.7106 H   0  0  0  0  0  0  0  0  0  0  0  0
   10.1788   -4.6529   -2.0315 H   0  0  0  0  0  0  0  0  0  0  0  0
    7.9251   -7.0360   -0.2678 C   0  0  0  0  0  0  0  0  0  0  0  0
    8.5100   -7.8221   -0.4094 H   0  0  0  0  0  0  0  0  0  0  0  0
    6.9828   -7.3387   -0.3167 H   0  0  0  0  0  0  0  0  0  0  0  0
    8.1730   -6.4889    0.9552 C   0  0  0  0  0  0  0  0  0  0  0  0
    9.0992   -6.1401    0.9913 H   0  0  0  0  0  0  0  0  0  0  0  0
    7.5479   -5.7417    1.1278 H   0  0  0  0  0  0  0  0  0  0  0  0
    4.0398   -3.0258   -7.0163 C   0  0  0  0  0  0  0  0  0  0  0  0
    4.3957   -2.7655   -7.8918 H   0  0  0  0  0  0  0  0  0  0  0  0
    4.1404   -3.9942   -6.8953 H   0  0  0  0  0  0  0  0  0  0  0  0
    3.0910   -2.7868   -6.9648 H   0  0  0  0  0  0  0  0  0  0  0  0
   12.3423   -6.0303   -2.2092 C   0  0  0  0  0  0  0  0  0  0  0  0
   12.6882   -5.6939   -1.3543 H   0  0  0  0  0  0  0  0  0  0  0  0
   12.7323   -6.9103   -2.3946 H   0  0  0  0  0  0  0  0  0  0  0  0
   12.5834   -5.4089   -2.9275 H   0  0  0  0  0  0  0  0  0  0  0  0
    4.8035   -2.2999   -5.9220 C   0  0  0  0  0  0  0  0  0  0  0  0
    5.6298   -2.8239   -5.7624 H   0  0  0  0  0  0  0  0  0  0  0  0
    4.2580   -2.3796   -5.1007 H   0  0  0  0  0  0  0  0  0  0  0  0
    7.9601   -7.7229    2.1294 C   0  0  0  0  0  0  0  0  0  0  0  0
    8.3112   -8.5692    1.7818 H   0  0  0  0  0  0  0  0  0  0  0  0
    8.4428   -7.4804    2.9481 H   0  0  0  0  0  0  0  0  0  0  0  0
    7.0070   -7.8221    2.3302 H   0  0  0  0  0  0  0  0  0  0  0  0
   10.8410   -6.1436   -2.1294 C   0  0  0  0  0  0  0  0  0  0  0  0
   10.7004   -7.0625   -1.7663 H   0  0  0  0  0  0  0  0  0  0  0  0
   10.5620   -6.2038   -3.0795 H   0  0  0  0  0  0  0  0  0  0  0  0
    7.8442   -6.7810   -3.2906 C   0  0  0  0  0  0  0  0  0  0  0  0
    8.6404   -8.0204   -3.3884 C   0  0  0  0  0  0  0  0  0  0  0  0
    7.6053   -7.9673   -4.9179 C   0  0  0  0  0  0  0  0  0  0  0  0
    8.1629   -8.1620   -5.6929 H   0  0  0  0  0  0  0  0  0  0  0  0
    6.8866   -8.6223   -4.8458 H   0  0  0  0  0  0  0  0  0  0  0  0
    7.2149   -7.0661   -5.0131 H   0  0  0  0  0  0  0  0  0  0  0  0
  1  5  1  0  0  0  0
  2  5  1  0  0  0  0
  3  6  1  0  0  0  0
  4  5  1  0  0  0  0
  6  2  1  0  0  0  0
  7  1  1  0  0  0  0
  8 18  1  0  0  0  0
  9  1  1  0  0  0  0
 10  3  1  0  0  0  0
 11 21  1  0  0  0  0
 12 23  1  0  0  0  0
 13  1  1  0  0  0  0
 14 22  1  0  0  0  0
 15  1  1  0  0  0  0
 16  1  1  0  0  0  0
 17  4  1  0  0  0  0
 18 19  4  0  0  0  0
 19 15  1  0  0  0  0
 20 16  1  0  0  0  0
 21 20  4  0  0  0  0
 22 21  4  0  0  0  0
 23 18  4  0  0  0  0
 24 10  1  0  0  0  0
 25 24  1  0  0  0  0
 26 24  1  0  0  0  0
 27 24  1  0  0  0  0
 28 27  1  0  0  0  0
 29 27  1  0  0  0  0
 30 10  1  0  0  0  0
 31 30  1  0  0  0  0
 32 30  1  0  0  0  0
 33 34  1  0  0  0  0
 35 33  1  0  0  0  0
 36 33  1  0  0  0  0
 37 36  1  0  0  0  0
 38 36  1  0  0  0  0
 39 36  1  0  0  0  0
 40 10  1  0  0  0  0
 41 40  1  0  0  0  0
 42 40  1  0  0  0  0
 43 27  1  0  0  0  0
 44 43  1  0  0  0  0
 45 43  1  0  0  0  0
 46 43  1  0  0  0  0
 47 13  1  0  0  0  0
 48 47  1  0  0  0  0
 49 47  1  0  0  0  0
 50 13  1  0  0  0  0
 51 50  1  0  0  0  0
 52 50  1  0  0  0  0
 53 50  1  0  0  0  0
 54 53  1  0  0  0  0
 55 53  1  0  0  0  0
 56 57  1  0  0  0  0
 58 56  1  0  0  0  0
 59 56  1  0  0  0  0
 60 61  1  0  0  0  0
 62 60  1  0  0  0  0
 63 60  1  0  0  0  0
 64 30  1  0  0  0  0
 65 64  1  0  0  0  0
 66 64  1  0  0  0  0
 67 53  1  0  0  0  0
 68 67  1  0  0  0  0
 69 67  1  0  0  0  0
 70 67  1  0  0  0  0
 71 47  1  0  0  0  0
 72 71  1  0  0  0  0
 73 71  1  0  0  0  0
 74 13  1  0  0  0  0
 75 74  1  0  0  0  0
 76 75  1  0  0  0  0
 77 76  1  0  0  0  0
 78 76  1  0  0  0  0
 79 76  1  0  0  0  0
 80 84  1  0  0  0  0
 81  6  1  0  0  0  0
 82 85  1  0  0  0  0
 83 84  1  0  0  0  0
 84 81  1  0  0  0  0
 85  2  1  0  0  0  0
 86 80  1  0  0  0  0
 87 97  1  0  0  0  0
 88 80  1  0  0  0  0
 89 82  1  0  0  0  0
 90100  1  0  0  0  0
 91102  1  0  0  0  0
 92 80  1  0  0  0  0
 93101  1  0  0  0  0
 94 80  1  0  0  0  0
 95 80  1  0  0  0  0
 96 83  1  0  0  0  0
 97 98  4  0  0  0  0
 98 94  1  0  0  0  0
 99 95  1  0  0  0  0
100 99  4  0  0  0  0
101100  4  0  0  0  0
102 97  4  0  0  0  0
103 89  1  0  0  0  0
104103  1  0  0  0  0
105103  1  0  0  0  0
106103  1  0  0  0  0
107106  1  0  0  0  0
108106  1  0  0  0  0
109 89  1  0  0  0  0
110109  1  0  0  0  0
111109  1  0  0  0  0
112113  1  0  0  0  0
114112  1  0  0  0  0
115112  1  0  0  0  0
116115  1  0  0  0  0
117115  1  0  0  0  0
118115  1  0  0  0  0
119 89  1  0  0  0  0
120119  1  0  0  0  0
121119  1  0  0  0  0
122106  1  0  0  0  0
123122  1  0  0  0  0
124122  1  0  0  0  0
125122  1  0  0  0  0
126 92  1  0  0  0  0
127126  1  0  0  0  0
128126  1  0  0  0  0
129 92  1  0  0  0  0
130129  1  0  0  0  0
131129  1  0  0  0  0
132129  1  0  0  0  0
133132  1  0  0  0  0
134132  1  0  0  0  0
135136  1  0  0  0  0
137135  1  0  0  0  0
138135  1  0  0  0  0
139140  1  0  0  0  0
141139  1  0  0  0  0
142139  1  0  0  0  0
143109  1  0  0  0  0
144143  1  0  0  0  0
145143  1  0  0  0  0
146132  1  0  0  0  0
147146  1  0  0  0  0
148146  1  0  0  0  0
149146  1  0  0  0  0
150126  1  0  0  0  0
151150  1  0  0  0  0
152150  1  0  0  0  0
153 92  1  0  0  0  0
154153  1  0  0  0  0
155154  1  0  0  0  0
156155  1  0  0  0  0
157155  1  0  0  0  0
158155  1  0  0  0  0
  2  9  1  0  0  0  0
  3  7  1  0  0  0  0
  3  9  1  0  0  0  0
  4  6  1  0  0  0  0
  4  7  1  0  0  0  0
 19 20  4  0  0  0  0
 22 23  4  0  0  0  0
 33 40  1  0  0  0  0
 56 64  1  0  0  0  0
 60 71  1  0  0  0  0
 81 85  1  0  0  0  0
 81 88  1  0  0  0  0
 82 86  1  0  0  0  0
 82 88  1  0  0  0  0
 83 85  1  0  0  0  0
 83 86  1  0  0  0  0
 98 99  4  0  0  0  0
101102  4  0  0  0  0
112119  1  0  0  0  0
135143  1  0  0  0  0
139150  1  0  0  0  0
M  CHG  2   7  -1  86  -1
M  END
$$$$
IDEYIZ

From CSD data. Using bond type 'Any'. No disordered atoms. Largest molecule.
 96112  0  0  0  0  0  0  0  0999 V2000
   -0.3763   -4.3586   -3.8487 Ru  0  0  0  0  0  0  0  0  0  0  0  0
    0.5251   -6.5421   -3.9066 P   0  0  0  0  0  0  0  0  0  0  0  0
    1.1915   -3.3144   -2.4242 P   0  0  0  0  0  0  0  0  0  0  0  0
   -1.9140   -2.1354   -1.7673 O   0  0  0  0  0  0  0  0  0  0  0  0
   -3.0255   -6.6180   -3.9992 O   0  0  0  0  0  0  0  0  0  0  0  0
   -0.0613   -3.0415   -6.7349 O   0  0  0  0  0  0  0  0  0  0  0  0
   -2.3616   -4.5054   -2.6934 C   0  0  0  0  0  0  0  0  0  0  0  0
   -1.8992   -3.0511   -2.8146 B   0  0  0  0  0  0  0  0  0  0  0  0
   -1.8704   -2.7120   -4.5250 B   0  0  0  0  0  0  0  0  0  0  0  0
   -2.2193   -4.2483   -5.2787 B   0  0  0  0  0  0  0  0  0  0  0  0
   -2.4577   -5.3462   -3.9773 B   0  0  0  0  0  0  0  0  0  0  0  0
   -3.2061   -3.6728   -3.9364 B   0  0  0  0  0  0  0  0  0  0  0  0
   -0.5800   -3.4770   -5.5883 B   0  0  0  0  0  0  0  0  0  0  0  0
   -2.2061   -0.7765   -2.0259 C   0  0  0  0  0  0  0  0  0  0  0  0
   -3.5769   -7.1610   -5.1823 C   0  0  0  0  0  0  0  0  0  0  0  0
   -0.8800   -2.3561   -7.7091 C   0  0  0  0  0  0  0  0  0  0  0  0
    2.2463   -6.8092   -4.5104 C   0  0  0  0  0  0  0  0  0  0  0  0
    2.8457   -8.0644   -4.3745 C   0  0  0  0  0  0  0  0  0  0  0  0
    4.0910   -8.3086   -4.9500 C   0  0  0  0  0  0  0  0  0  0  0  0
    4.7110   -7.3323   -5.6803 C   0  0  0  0  0  0  0  0  0  0  0  0
    4.1210   -6.1145   -5.8439 C   0  0  0  0  0  0  0  0  0  0  0  0
    2.8947   -5.8660   -5.2480 C   0  0  0  0  0  0  0  0  0  0  0  0
    0.4107   -7.4616   -2.3253 C   0  0  0  0  0  0  0  0  0  0  0  0
   -0.8583   -7.7945   -1.8579 C   0  0  0  0  0  0  0  0  0  0  0  0
   -1.0235   -8.4440   -0.6500 C   0  0  0  0  0  0  0  0  0  0  0  0
    0.0647   -8.7650    0.1081 C   0  0  0  0  0  0  0  0  0  0  0  0
    1.3206   -8.4373   -0.3257 C   0  0  0  0  0  0  0  0  0  0  0  0
    1.4919   -7.7903   -1.5395 C   0  0  0  0  0  0  0  0  0  0  0  0
   -0.2555   -7.6679   -5.1370 C   0  0  0  0  0  0  0  0  0  0  0  0
   -0.3760   -7.2087   -6.4369 C   0  0  0  0  0  0  0  0  0  0  0  0
   -0.7845   -8.0260   -7.4521 C   0  0  0  0  0  0  0  0  0  0  0  0
   -1.1005   -9.3324   -7.1892 C   0  0  0  0  0  0  0  0  0  0  0  0
   -0.9999   -9.8091   -5.9038 C   0  0  0  0  0  0  0  0  0  0  0  0
   -0.5678   -8.9881   -4.8858 C   0  0  0  0  0  0  0  0  0  0  0  0
    2.9553   -3.7494   -2.6817 C   0  0  0  0  0  0  0  0  0  0  0  0
    3.4730   -4.8504   -2.0069 C   0  0  0  0  0  0  0  0  0  0  0  0
    4.7729   -5.2817   -2.2172 C   0  0  0  0  0  0  0  0  0  0  0  0
    5.5665   -4.6208   -3.0658 C   0  0  0  0  0  0  0  0  0  0  0  0
    5.1100   -3.5293   -3.7304 C   0  0  0  0  0  0  0  0  0  0  0  0
    3.7874   -3.0863   -3.5391 C   0  0  0  0  0  0  0  0  0  0  0  0
    1.0830   -3.5837   -0.6178 C   0  0  0  0  0  0  0  0  0  0  0  0
    0.0767   -4.3336   -0.0686 C   0  0  0  0  0  0  0  0  0  0  0  0
    0.0176   -4.5877    1.2883 C   0  0  0  0  0  0  0  0  0  0  0  0
    0.9570   -4.0624    2.1062 C   0  0  0  0  0  0  0  0  0  0  0  0
    1.9811   -3.3079    1.5906 C   0  0  0  0  0  0  0  0  0  0  0  0
    2.0535   -3.0742    0.2454 C   0  0  0  0  0  0  0  0  0  0  0  0
    1.2046   -1.4903   -2.6145 C   0  0  0  0  0  0  0  0  0  0  0  0
    1.2324   -0.9522   -3.8852 C   0  0  0  0  0  0  0  0  0  0  0  0
    1.2764    0.4057   -4.0941 C   0  0  0  0  0  0  0  0  0  0  0  0
    1.2970    1.2733   -3.0249 C   0  0  0  0  0  0  0  0  0  0  0  0
    1.2193    0.7681   -1.7571 C   0  0  0  0  0  0  0  0  0  0  0  0
    1.1739   -0.6000   -1.5614 C   0  0  0  0  0  0  0  0  0  0  0  0
   -2.6314   -4.7962   -1.9426 H   0  0  0  0  0  0  0  0  0  0  0  0
    0.6639   -4.0342   -4.7324 H   0  0  0  0  0  0  0  0  0  0  0  0
   -1.6064   -0.3750   -2.4830 H   0  0  0  0  0  0  0  0  0  0  0  0
   -2.3896   -0.3289   -1.2853 H   0  0  0  0  0  0  0  0  0  0  0  0
   -2.9230   -0.6334   -2.5707 H   0  0  0  0  0  0  0  0  0  0  0  0
   -1.8166   -1.6015   -4.9077 H   0  0  0  0  0  0  0  0  0  0  0  0
   -2.4624   -4.5269   -6.2076 H   0  0  0  0  0  0  0  0  0  0  0  0
   -3.3872   -6.7020   -5.9739 H   0  0  0  0  0  0  0  0  0  0  0  0
   -3.5627   -8.1040   -5.1268 H   0  0  0  0  0  0  0  0  0  0  0  0
   -4.4561   -6.9957   -5.1560 H   0  0  0  0  0  0  0  0  0  0  0  0
   -4.2683   -3.4382   -3.9145 H   0  0  0  0  0  0  0  0  0  0  0  0
   -0.3412   -2.0110   -8.1795 H   0  0  0  0  0  0  0  0  0  0  0  0
   -1.2504   -1.6937   -7.3031 H   0  0  0  0  0  0  0  0  0  0  0  0
   -0.9586   -2.9167   -8.3109 H   0  0  0  0  0  0  0  0  0  0  0  0
    2.4009   -8.7425   -4.0021 H   0  0  0  0  0  0  0  0  0  0  0  0
    4.4590   -9.1081   -4.8639 H   0  0  0  0  0  0  0  0  0  0  0  0
    5.5315   -7.4609   -6.0908 H   0  0  0  0  0  0  0  0  0  0  0  0
    4.4731   -5.3712   -6.3245 H   0  0  0  0  0  0  0  0  0  0  0  0
    2.5504   -5.0396   -5.3751 H   0  0  0  0  0  0  0  0  0  0  0  0
   -1.5924   -7.5618   -2.3370 H   0  0  0  0  0  0  0  0  0  0  0  0
   -1.9165   -8.6996   -0.3359 H   0  0  0  0  0  0  0  0  0  0  0  0
   -0.0488   -9.2243    0.9348 H   0  0  0  0  0  0  0  0  0  0  0  0
    2.0251   -8.6263    0.1022 H   0  0  0  0  0  0  0  0  0  0  0  0
    2.2598   -7.6327   -1.8258 H   0  0  0  0  0  0  0  0  0  0  0  0
   -0.1312   -6.3305   -6.6312 H   0  0  0  0  0  0  0  0  0  0  0  0
   -0.8065   -7.7062   -8.2963 H   0  0  0  0  0  0  0  0  0  0  0  0
   -1.3914   -9.8507   -7.8435 H   0  0  0  0  0  0  0  0  0  0  0  0
   -1.1775  -10.6821   -5.7840 H   0  0  0  0  0  0  0  0  0  0  0  0
   -0.5220   -9.2796   -4.0313 H   0  0  0  0  0  0  0  0  0  0  0  0
    2.8658   -5.3781   -1.4022 H   0  0  0  0  0  0  0  0  0  0  0  0
    5.0795   -6.0681   -1.6651 H   0  0  0  0  0  0  0  0  0  0  0  0
    6.4524   -4.8952   -3.2864 H   0  0  0  0  0  0  0  0  0  0  0  0
    5.5513   -3.0602   -4.3380 H   0  0  0  0  0  0  0  0  0  0  0  0
    3.4639   -2.3815   -4.0459 H   0  0  0  0  0  0  0  0  0  0  0  0
   -0.3912   -4.6464   -0.5258 H   0  0  0  0  0  0  0  0  0  0  0  0
   -0.7382   -5.0369    1.6067 H   0  0  0  0  0  0  0  0  0  0  0  0
    0.9871   -4.1340    2.9358 H   0  0  0  0  0  0  0  0  0  0  0  0
    2.6465   -2.9168    2.0157 H   0  0  0  0  0  0  0  0  0  0  0  0
    2.7365   -2.5985   -0.0876 H   0  0  0  0  0  0  0  0  0  0  0  0
    1.2266   -1.4815   -4.5425 H   0  0  0  0  0  0  0  0  0  0  0  0
    1.4072    0.6646   -4.9369 H   0  0  0  0  0  0  0  0  0  0  0  0
    1.4141    2.1768   -3.1841 H   0  0  0  0  0  0  0  0  0  0  0  0
    1.2020    1.3374   -0.9786 H   0  0  0  0  0  0  0  0  0  0  0  0
    1.1712   -0.8856   -0.7157 H   0  0  0  0  0  0  0  0  0  0  0  0
  1  2  1  0  0  0  0
  2 17  1  0  0  0  0
  3  1  1  0  0  0  0
  4  8  1  0  0  0  0
  5 11  1  0  0  0  0
  6 13  1  0  0  0  0
  7  1  1  0  0  0  0
  8  1  1  0  0  0  0
  9  1  1  0  0  0  0
 10  1  1  0  0  0  0
 11  1  1  0  0  0  0
 12  7  1  0  0  0  0
 13  1  1  0  0  0  0
 14  4  1  0  0  0  0
 15  5  1  0  0  0  0
 16  6  1  0  0  0  0
 17 18  4  0  0  0  0
 18 19  4  0  0  0  0
 19 20  4  0  0  0  0
 20 21  4  0  0  0  0
 21 22  4  0  0  0  0
 22 17  4  0  0  0  0
 23  2  1  0  0  0  0
 24 23  4  0  0  0  0
 25 24  4  0  0  0  0
 26 25  4  0  0  0  0
 27 26  4  0  0  0  0
 28 23  4  0  0  0  0
 29  2  1  0  0  0  0
 30 29  4  0  0  0  0
 31 30  4  0  0  0  0
 32 31  4  0  0  0  0
 33 32  4  0  0  0  0
 34 29  4  0  0  0  0
 35  3  1  0  0  0  0
 36 35  4  0  0  0  0
 37 36  4  0  0  0  0
 38 37  4  0  0  0  0
 39 38  4  0  0  0  0
 40 35  4  0  0  0  0
 41  3  1  0  0  0  0
 42 41  4  0  0  0  0
 43 42  4  0  0  0  0
 44 43  4  0  0  0  0
 45 44  4  0  0  0  0
 46 41  4  0  0  0  0
 47  3  1  0  0  0  0
 48 47  4  0  0  0  0
 49 48  4  0  0  0  0
 50 49  4  0  0  0  0
 51 50  4  0  0  0  0
 52 47  4  0  0  0  0
 53  7  1  0  0  0  0
 54  1  1  0  0  0  0
 55 14  1  0  0  0  0
 56 14  1  0  0  0  0
 57 14  1  0  0  0  0
 58  9  1  0  0  0  0
 59 10  1  0  0  0  0
 60 15  1  0  0  0  0
 61 15  1  0  0  0  0
 62 15  1  0  0  0  0
 63 12  1  0  0  0  0
 64 16  1  0  0  0  0
 65 16  1  0  0  0  0
 66 16  1  0  0  0  0
 67 18  1  0  0  0  0
 68 19  1  0  0  0  0
 69 20  1  0  0  0  0
 70 21  1  0  0  0  0
 71 22  1  0  0  0  0
 72 24  1  0  0  0  0
 73 25  1  0  0  0  0
 74 26  1  0  0  0  0
 75 27  1  0  0  0  0
 76 28  1  0  0  0  0
 77 30  1  0  0  0  0
 78 31  1  0  0  0  0
 79 32  1  0  0  0  0
 80 33  1  0  0  0  0
 81 34  1  0  0  0  0
 82 36  1  0  0  0  0
 83 37  1  0  0  0  0
 84 38  1  0  0  0  0
 85 39  1  0  0  0  0
 86 40  1  0  0  0  0
 87 42  1  0  0  0  0
 88 43  1  0  0  0  0
 89 44  1  0  0  0  0
 90 45  1  0  0  0  0
 91 46  1  0  0  0  0
 92 48  1  0  0  0  0
 93 49  1  0  0  0  0
 94 50  1  0  0  0  0
 95 51  1  0  0  0  0
 96 52  1  0  0  0  0
  7  8  1  0  0  0  0
  7 11  1  0  0  0  0
  8  9  1  0  0  0  0
  8 12  1  0  0  0  0
  9 10  1  0  0  0  0
  9 12  1  0  0  0  0
  9 13  1  0  0  0  0
 10 11  1  0  0  0  0
 10 12  1  0  0  0  0
 10 13  1  0  0  0  0
 11 12  1  0  0  0  0
 27 28  4  0  0  0  0
 33 34  4  0  0  0  0
 39 40  4  0  0  0  0
 45 46  4  0  0  0  0
 51 52  4  0  0  0  0
M  END
$$$$
IFEHIO

From CSD data. Using bond type 'Any'. Matching problem. No disordered atoms. Largest molecule.
205219  0  0  0  0  0  0  0  0999 V2000
    5.5900   10.7522    4.7296 Br  0  0  0  0  0  0  0  0  0  0  0  0
    5.6467    6.8922   10.9424 Br  0  0  0  0  0  0  0  0  0  0  0  0
    3.8921    8.7704    7.8510 Br  0  0  0  0  0  0  0  0  0  0  0  0
    1.9013    9.9975    8.5464 Cu  0  3  0  0  0  0  0  0  0  0  0  0
    1.9396    7.4942    7.1603 Cu  0  0  0  0  0  0  0  0  0  0  0  0
    4.3104   12.5228    2.3829 N   0  0  0  0  0  0  0  0  0  0  0  0
    3.9552   13.8453    2.3655 N   0  0  0  0  0  0  0  0  0  0  0  0
    1.6415   12.1202    2.6903 N   0  0  0  0  0  0  0  0  0  0  0  0
    1.5140   13.4926    2.6919 N   0  0  0  0  0  0  0  0  0  0  0  0
    3.3964   13.0513    5.1033 N   0  0  0  0  0  0  0  0  0  0  0  0
    2.9898   14.2558    4.5916 N   0  0  0  0  0  0  0  0  0  0  0  0
    3.5745    4.4929   10.7041 N   0  0  0  0  0  0  0  0  0  0  0  0
    3.2712    3.2788   11.2666 N   0  0  0  0  0  0  0  0  0  0  0  0
    4.5243    5.1317   13.3453 N   0  0  0  0  0  0  0  0  0  0  0  0
    4.1760    3.8104   13.5085 N   0  0  0  0  0  0  0  0  0  0  0  0
    1.7910    5.3864   13.0696 N   0  0  0  0  0  0  0  0  0  0  0  0
    1.7300    4.0154   13.1029 N   0  0  0  0  0  0  0  0  0  0  0  0
    3.5934    8.9213    1.7032 O   0  0  0  0  0  0  0  0  0  0  0  0
    3.6069    8.6848   13.9822 O   0  0  0  0  0  0  0  0  0  0  0  0
    0.8770   10.8728    6.7034 P   0  0  0  0  0  0  0  0  0  0  0  0
    1.9862    7.6865    4.8832 P   0  0  0  0  0  0  0  0  0  0  0  0
    1.9698    9.8150   10.8266 P   0  0  0  0  0  0  0  0  0  0  0  0
    0.9612    6.6030    9.0196 P   0  0  0  0  0  0  0  0  0  0  0  0
    3.2370   11.1831    3.8285 W   0  0  0  0  0  0  0  0  0  0  0  0
    3.3461    6.3833   11.8942 W   0  0  0  0  0  0  0  0  0  0  0  0
    1.8981   10.5473    5.2554 C   0  0  0  0  0  0  0  0  0  0  0  0
    2.2630    9.4759    4.5773 C   0  0  0  0  0  0  0  0  0  0  0  0
    0.6005   12.7028    6.7511 C   0  0  0  0  0  0  0  0  0  0  0  0
    1.4953   13.1015    6.5483 H   0  0  0  0  0  0  0  0  0  0  0  0
    0.2753   13.1781    8.1739 C   0  0  0  0  0  0  0  0  0  0  0  0
    0.3234   14.1566    8.2103 H   0  0  0  0  0  0  0  0  0  0  0  0
    0.9234   12.7959    8.8013 H   0  0  0  0  0  0  0  0  0  0  0  0
   -0.6275   12.8864    8.4179 H   0  0  0  0  0  0  0  0  0  0  0  0
   -0.3354   13.3069    5.7181 C   0  0  0  0  0  0  0  0  0  0  0  0
   -0.1229   12.9430    4.8340 H   0  0  0  0  0  0  0  0  0  0  0  0
   -0.2275   14.2791    5.7086 H   0  0  0  0  0  0  0  0  0  0  0  0
   -1.2620   13.0833    5.9478 H   0  0  0  0  0  0  0  0  0  0  0  0
   -0.7254   10.0389    6.2631 C   0  0  0  0  0  0  0  0  0  0  0  0
   -0.5438    9.0553    6.2853 H   0  0  0  0  0  0  0  0  0  0  0  0
   -1.7736   10.3035    7.3452 C   0  0  0  0  0  0  0  0  0  0  0  0
   -2.0233   11.2510    7.3341 H   0  0  0  0  0  0  0  0  0  0  0  0
   -1.4027   10.0746    8.2230 H   0  0  0  0  0  0  0  0  0  0  0  0
   -2.5690    9.7546    7.1741 H   0  0  0  0  0  0  0  0  0  0  0  0
   -1.3174   10.3348    4.8736 C   0  0  0  0  0  0  0  0  0  0  0  0
   -0.5967   10.3564    4.2097 H   0  0  0  0  0  0  0  0  0  0  0  0
   -1.7734   11.2004    4.8910 H   0  0  0  0  0  0  0  0  0  0  0  0
   -1.9584    9.6328    4.6343 H   0  0  0  0  0  0  0  0  0  0  0  0
    3.3541    6.6980    4.1242 C   0  0  0  0  0  0  0  0  0  0  0  0
    3.3590    6.8679    3.1387 H   0  0  0  0  0  0  0  0  0  0  0  0
    4.7273    7.0728    4.6898 C   0  0  0  0  0  0  0  0  0  0  0  0
    5.4188    6.5281    4.2588 H   0  0  0  0  0  0  0  0  0  0  0  0
    4.7395    6.9089    5.6563 H   0  0  0  0  0  0  0  0  0  0  0  0
    4.9035    8.0219    4.5171 H   0  0  0  0  0  0  0  0  0  0  0  0
    3.0805    5.2067    4.3602 C   0  0  0  0  0  0  0  0  0  0  0  0
    2.2107    4.9687    3.9752 H   0  0  0  0  0  0  0  0  0  0  0  0
    3.0718    5.0240    5.3235 H   0  0  0  0  0  0  0  0  0  0  0  0
    3.7836    4.6740    3.9325 H   0  0  0  0  0  0  0  0  0  0  0  0
    0.4681    7.3033    3.8501 C   0  0  0  0  0  0  0  0  0  0  0  0
   -0.0594    8.1517    3.8025 H   0  0  0  0  0  0  0  0  0  0  0  0
    0.7387    6.8881    2.4051 C   0  0  0  0  0  0  0  0  0  0  0  0
   -0.0949    6.9272    1.8918 H   0  0  0  0  0  0  0  0  0  0  0  0
    1.0900    5.9725    2.3893 H   0  0  0  0  0  0  0  0  0  0  0  0
    1.3958    7.4966    2.0074 H   0  0  0  0  0  0  0  0  0  0  0  0
   -0.4397    6.2673    4.5298 C   0  0  0  0  0  0  0  0  0  0  0  0
   -1.2905    6.2100    4.0465 H   0  0  0  0  0  0  0  0  0  0  0  0
   -0.6101    6.5388    5.4566 H   0  0  0  0  0  0  0  0  0  0  0  0
   -0.0000    5.3919    4.5218 H   0  0  0  0  0  0  0  0  0  0  0  0
    3.4619    9.7584    2.4986 C   0  0  0  0  0  0  0  0  0  0  0  0
    5.4941   12.4315    1.7175 C   0  0  0  0  0  0  0  0  0  0  0  0
    5.9074   13.6967    1.3166 C   0  0  0  0  0  0  0  0  0  0  0  0
    4.9184   14.5707    1.7476 C   0  0  0  0  0  0  0  0  0  0  0  0
    6.1880   11.1565    1.3974 C   0  0  0  0  0  0  0  0  0  0  0  0
    5.9747   10.8896    0.4785 H   0  0  0  0  0  0  0  0  0  0  0  0
    5.8916   10.4583    2.0185 H   0  0  0  0  0  0  0  0  0  0  0  0
    7.1570   11.2799    1.4846 H   0  0  0  0  0  0  0  0  0  0  0  0
    7.1669   14.0057    0.5862 C   0  0  0  0  0  0  0  0  0  0  0  0
    7.0744   13.7387   -0.3533 H   0  0  0  0  0  0  0  0  0  0  0  0
    7.9107   13.5148    0.9934 H   0  0  0  0  0  0  0  0  0  0  0  0
    7.3465   14.9677    0.6353 H   0  0  0  0  0  0  0  0  0  0  0  0
    4.8318   16.0535    1.6288 C   0  0  0  0  0  0  0  0  0  0  0  0
    5.5906   16.3840    1.1027 H   0  0  0  0  0  0  0  0  0  0  0  0
    4.8528   16.4551    2.5223 H   0  0  0  0  0  0  0  0  0  0  0  0
    3.9943   16.2965    1.1804 H   0  0  0  0  0  0  0  0  0  0  0  0
    0.5856   11.6617    1.9567 C   0  0  0  0  0  0  0  0  0  0  0  0
   -0.2106   12.7085    1.5479 C   0  0  0  0  0  0  0  0  0  0  0  0
    0.4136   13.8585    2.0217 C   0  0  0  0  0  0  0  0  0  0  0  0
    0.4068   10.2247    1.6177 C   0  0  0  0  0  0  0  0  0  0  0  0
   -0.5376   10.0475    1.4260 H   0  0  0  0  0  0  0  0  0  0  0  0
    0.6949    9.6716    2.3750 H   0  0  0  0  0  0  0  0  0  0  0  0
    0.9476   10.0050    0.8302 H   0  0  0  0  0  0  0  0  0  0  0  0
   -1.4568   12.6248    0.7257 C   0  0  0  0  0  0  0  0  0  0  0  0
   -1.2763   12.9569   -0.1790 H   0  0  0  0  0  0  0  0  0  0  0  0
   -2.1581   13.1696    1.1392 H   0  0  0  0  0  0  0  0  0  0  0  0
   -1.7540   11.6916    0.6765 H   0  0  0  0  0  0  0  0  0  0  0  0
   -0.0013   15.2778    1.8284 C   0  0  0  0  0  0  0  0  0  0  0  0
    0.5549   15.6886    1.1360 H   0  0  0  0  0  0  0  0  0  0  0  0
    0.1082   15.7680    2.6697 H   0  0  0  0  0  0  0  0  0  0  0  0
   -0.9414   15.3084    1.5527 H   0  0  0  0  0  0  0  0  0  0  0  0
    3.7758   13.2861    6.3803 C   0  0  0  0  0  0  0  0  0  0  0  0
    3.6144   14.6364    6.6750 C   0  0  0  0  0  0  0  0  0  0  0  0
    3.1180   15.2183    5.5216 C   0  0  0  0  0  0  0  0  0  0  0  0
    4.1401   12.2172    7.3405 C   0  0  0  0  0  0  0  0  0  0  0  0
    4.1213   11.3497    6.8858 H   0  0  0  0  0  0  0  0  0  0  0  0
    3.4987   12.2117    8.0820 H   0  0  0  0  0  0  0  0  0  0  0  0
    5.0399   12.3849    7.6890 H   0  0  0  0  0  0  0  0  0  0  0  0
    3.8465   15.3085    7.9980 C   0  0  0  0  0  0  0  0  0  0  0  0
    4.6372   15.8848    7.9378 H   0  0  0  0  0  0  0  0  0  0  0  0
    3.9895   14.6286    8.6888 H   0  0  0  0  0  0  0  0  0  0  0  0
    3.0643   15.8507    8.2309 H   0  0  0  0  0  0  0  0  0  0  0  0
    2.7556   16.6496    5.2728 C   0  0  0  0  0  0  0  0  0  0  0  0
    3.5581   17.1503    5.0146 H   0  0  0  0  0  0  0  0  0  0  0  0
    2.3778   17.0378    6.0904 H   0  0  0  0  0  0  0  0  0  0  0  0
    2.0948   16.6993    4.5519 H   0  0  0  0  0  0  0  0  0  0  0  0
    2.3122    8.0367   11.1462 C   0  0  0  0  0  0  0  0  0  0  0  0
    1.9923    6.9481   10.4617 C   0  0  0  0  0  0  0  0  0  0  0  0
    0.4528   10.1609   11.8718 C   0  0  0  0  0  0  0  0  0  0  0  0
   -0.0574    9.3005   11.9162 H   0  0  0  0  0  0  0  0  0  0  0  0
    0.7424   10.5613   13.3295 C   0  0  0  0  0  0  0  0  0  0  0  0
    1.0788   11.4815   13.3532 H   0  0  0  0  0  0  0  0  0  0  0  0
    1.4150    9.9579   13.7065 H   0  0  0  0  0  0  0  0  0  0  0  0
   -0.0818   10.5024   13.8555 H   0  0  0  0  0  0  0  0  0  0  0  0
   -0.4805   11.1780   11.2064 C   0  0  0  0  0  0  0  0  0  0  0  0
   -0.7171   10.8652   10.3080 H   0  0  0  0  0  0  0  0  0  0  0  0
   -0.0263   12.0434   11.1414 H   0  0  0  0  0  0  0  0  0  0  0  0
   -1.2949   11.2749   11.7435 H   0  0  0  0  0  0  0  0  0  0  0  0
    3.3283   10.8522   11.5645 C   0  0  0  0  0  0  0  0  0  0  0  0
    3.3610   10.6823   12.5499 H   0  0  0  0  0  0  0  0  0  0  0  0
    3.0072   12.3410   11.3300 C   0  0  0  0  0  0  0  0  0  0  0  0
    2.9233   12.5110   10.3682 H   0  0  0  0  0  0  0  0  0  0  0  0
    3.7279   12.8932   11.6975 H   0  0  0  0  0  0  0  0  0  0  0  0
    2.1623   12.5663   11.7752 H   0  0  0  0  0  0  0  0  0  0  0  0
    4.6938   10.5124   10.9656 C   0  0  0  0  0  0  0  0  0  0  0  0
    4.8956    9.5671   11.1272 H   0  0  0  0  0  0  0  0  0  0  0  0
    5.3816   11.0702   11.3838 H   0  0  0  0  0  0  0  0  0  0  0  0
    4.6784   10.6831    9.9991 H   0  0  0  0  0  0  0  0  0  0  0  0
   -0.6591    7.3826    9.4731 C   0  0  0  0  0  0  0  0  0  0  0  0
   -0.4986    8.3697    9.4715 H   0  0  0  0  0  0  0  0  0  0  0  0
   -1.2579    7.0552   10.8404 C   0  0  0  0  0  0  0  0  0  0  0  0
   -1.8966    7.7553   11.0939 H   0  0  0  0  0  0  0  0  0  0  0  0
   -0.5421    7.0109   11.5090 H   0  0  0  0  0  0  0  0  0  0  0  0
   -1.7185    6.1919   10.7976 H   0  0  0  0  0  0  0  0  0  0  0  0
   -1.6893    7.1211    8.3640 C   0  0  0  0  0  0  0  0  0  0  0  0
   -1.3377    7.4426    7.5084 H   0  0  0  0  0  0  0  0  0  0  0  0
   -2.5228    7.5935    8.5731 H   0  0  0  0  0  0  0  0  0  0  0  0
   -1.8674    6.1585    8.3022 H   0  0  0  0  0  0  0  0  0  0  0  0
    0.7652    4.7726    8.9550 C   0  0  0  0  0  0  0  0  0  0  0  0
    1.6730    4.4181    9.1784 H   0  0  0  0  0  0  0  0  0  0  0  0
   -0.1616    4.1196    9.9769 C   0  0  0  0  0  0  0  0  0  0  0  0
   -1.0926    4.3326    9.7583 H   0  0  0  0  0  0  0  0  0  0  0  0
    0.0489    4.4577   10.8721 H   0  0  0  0  0  0  0  0  0  0  0  0
   -0.0361    3.1471    9.9595 H   0  0  0  0  0  0  0  0  0  0  0  0
    0.5079    4.2819    7.5290 C   0  0  0  0  0  0  0  0  0  0  0  0
   -0.3810    4.5749    7.2375 H   0  0  0  0  0  0  0  0  0  0  0  0
    0.5537    3.3040    7.5053 H   0  0  0  0  0  0  0  0  0  0  0  0
    1.1863    4.6549    6.9269 H   0  0  0  0  0  0  0  0  0  0  0  0
    3.5274    7.8378   13.1932 C   0  0  0  0  0  0  0  0  0  0  0  0
    3.9219    4.2342    9.4239 C   0  0  0  0  0  0  0  0  0  0  0  0
    3.8259    2.8643    9.1657 C   0  0  0  0  0  0  0  0  0  0  0  0
    3.4174    2.2929   10.3667 C   0  0  0  0  0  0  0  0  0  0  0  0
    4.2040    5.2885    8.4179 C   0  0  0  0  0  0  0  0  0  0  0  0
    5.1555    5.2681    8.1802 H   0  0  0  0  0  0  0  0  0  0  0  0
    3.9797    6.1668    8.7918 H   0  0  0  0  0  0  0  0  0  0  0  0
    3.6657    5.1292    7.6146 H   0  0  0  0  0  0  0  0  0  0  0  0
    4.0584    2.1520    7.8760 C   0  0  0  0  0  0  0  0  0  0  0  0
    3.3129    1.5402    7.7017 H   0  0  0  0  0  0  0  0  0  0  0  0
    4.8936    1.6434    7.9299 H   0  0  0  0  0  0  0  0  0  0  0  0
    4.1201    2.8057    7.1488 H   0  0  0  0  0  0  0  0  0  0  0  0
    3.1633    0.8565   10.6740 C   0  0  0  0  0  0  0  0  0  0  0  0
    2.2705    0.7579   11.0670 H   0  0  0  0  0  0  0  0  0  0  0  0
    3.8370    0.5349   11.3094 H   0  0  0  0  0  0  0  0  0  0  0  0
    3.2161    0.3313    9.8486 H   0  0  0  0  0  0  0  0  0  0  0  0
    5.6504    5.3129   14.0662 C   0  0  0  0  0  0  0  0  0  0  0  0
    6.0527    4.1300   14.6651 C   0  0  0  0  0  0  0  0  0  0  0  0
    5.0904    3.1990   14.2912 C   0  0  0  0  0  0  0  0  0  0  0  0
    6.3548    6.6310   14.2437 C   0  0  0  0  0  0  0  0  0  0  0  0
    7.3185    6.5080   14.1074 H   0  0  0  0  0  0  0  0  0  0  0  0
    6.1935    6.9687   15.1499 H   0  0  0  0  0  0  0  0  0  0  0  0
    6.0124    7.2759   13.5893 H   0  0  0  0  0  0  0  0  0  0  0  0
    7.2476    3.9205   15.5175 C   0  0  0  0  0  0  0  0  0  0  0  0
    8.0353    4.3013   15.0755 H   0  0  0  0  0  0  0  0  0  0  0  0
    7.3843    2.9598   15.6585 H   0  0  0  0  0  0  0  0  0  0  0  0
    7.1141    4.3599   16.3826 H   0  0  0  0  0  0  0  0  0  0  0  0
    5.0090    1.7460   14.6287 C   0  0  0  0  0  0  0  0  0  0  0  0
    4.1226    1.5444   14.9931 H   0  0  0  0  0  0  0  0  0  0  0  0
    5.6930    1.5268   15.2941 H   0  0  0  0  0  0  0  0  0  0  0  0
    5.1565    1.2147   13.8190 H   0  0  0  0  0  0  0  0  0  0  0  0
    0.7107    5.8372   13.7636 C   0  0  0  0  0  0  0  0  0  0  0  0
   -0.0607    4.7560   14.2009 C   0  0  0  0  0  0  0  0  0  0  0  0
    0.6210    3.6240   13.7905 C   0  0  0  0  0  0  0  0  0  0  0  0
    0.4320    7.2626   14.0298 C   0  0  0  0  0  0  0  0  0  0  0  0
    0.8092    7.8096   13.3089 H   0  0  0  0  0  0  0  0  0  0  0  0
    0.8380    7.5225   14.8837 H   0  0  0  0  0  0  0  0  0  0  0  0
   -0.5372    7.4045   14.0725 H   0  0  0  0  0  0  0  0  0  0  0  0
   -1.3331    4.8361   14.9994 C   0  0  0  0  0  0  0  0  0  0  0  0
   -1.9578    5.4496   14.5605 H   0  0  0  0  0  0  0  0  0  0  0  0
   -1.1318    5.1625   15.9009 H   0  0  0  0  0  0  0  0  0  0  0  0
   -1.7385    3.9449   15.0580 H   0  0  0  0  0  0  0  0  0  0  0  0
    0.2705    2.1884   13.9997 C   0  0  0  0  0  0  0  0  0  0  0  0
   -0.6301    2.1240   14.3783 H   0  0  0  0  0  0  0  0  0  0  0  0
    0.9150    1.7820   14.6176 H   0  0  0  0  0  0  0  0  0  0  0  0
    0.2992    1.7162   13.1425 H   0  0  0  0  0  0  0  0  0  0  0  0
    2.7140   14.3623    3.1006 B   0  0  0  0  0  0  0  0  0  0  0  0
    2.5443   15.3167    2.8519 H   0  0  0  0  0  0  0  0  0  0  0  0
    2.9743    3.2030   12.7638 B   0  0  0  0  0  0  0  0  0  0  0  0
    2.8464    2.2507   13.0395 H   0  0  0  0  0  0  0  0  0  0  0  0
  1 24  1  0  0  0  0
  2 25  1  0  0  0  0
  3  4  1  0  0  0  0
  4  5  1  0  0  0  0
  5  3  1  0  0  0  0
  6  7  4  0  0  0  0
  7 71  4  0  0  0  0
  8  9  4  0  0  0  0
  9 86  4  0  0  0  0
 10 11  4  0  0  0  0
 11101  4  0  0  0  0
 12 13  4  0  0  0  0
 13159  4  0  0  0  0
 14 15  4  0  0  0  0
 15174  4  0  0  0  0
 16 17  4  0  0  0  0
 17189  4  0  0  0  0
 18 68  3  0  0  0  0
 19156  3  0  0  0  0
 20  4  1  0  0  0  0
 21  5  1  0  0  0  0
 22  4  1  0  0  0  0
 23  5  1  0  0  0  0
 24  6  1  0  0  0  0
 25 12  1  0  0  0  0
 26 20  1  0  0  0  0
 27 21  1  0  0  0  0
 28 20  1  0  0  0  0
 29 28  1  0  0  0  0
 30 28  1  0  0  0  0
 31 30  1  0  0  0  0
 32 30  1  0  0  0  0
 33 30  1  0  0  0  0
 34 28  1  0  0  0  0
 35 34  1  0  0  0  0
 36 34  1  0  0  0  0
 37 34  1  0  0  0  0
 38 20  1  0  0  0  0
 39 38  1  0  0  0  0
 40 38  1  0  0  0  0
 41 40  1  0  0  0  0
 42 40  1  0  0  0  0
 43 40  1  0  0  0  0
 44 38  1  0  0  0  0
 45 44  1  0  0  0  0
 46 44  1  0  0  0  0
 47 44  1  0  0  0  0
 48 21  1  0  0  0  0
 49 48  1  0  0  0  0
 50 48  1  0  0  0  0
 51 50  1  0  0  0  0
 52 50  1  0  0  0  0
 53 50  1  0  0  0  0
 54 48  1  0  0  0  0
 55 54  1  0  0  0  0
 56 54  1  0  0  0  0
 57 54  1  0  0  0  0
 58 21  1  0  0  0  0
 59 58  1  0  0  0  0
 60 58  1  0  0  0  0
 61 60  1  0  0  0  0
 62 60  1  0  0  0  0
 63 60  1  0  0  0  0
 64 58  1  0  0  0  0
 65 64  1  0  0  0  0
 66 64  1  0  0  0  0
 67 64  1  0  0  0  0
 68 24  1  0  0  0  0
 69  6  4  0  0  0  0
 70 69  4  0  0  0  0
 71 70  4  0  0  0  0
 72 69  1  0  0  0  0
 73 72  1  0  0  0  0
 74 72  1  0  0  0  0
 75 72  1  0  0  0  0
 76 70  1  0  0  0  0
 77 76  1  0  0  0  0
 78 76  1  0  0  0  0
 79 76  1  0  0  0  0
 80 71  1  0  0  0  0
 81 80  1  0  0  0  0
 82 80  1  0  0  0  0
 83 80  1  0  0  0  0
 84  8  4  0  0  0  0
 85 84  4  0  0  0  0
 86 85  4  0  0  0  0
 87 84  1  0  0  0  0
 88 87  1  0  0  0  0
 89 87  1  0  0  0  0
 90 87  1  0  0  0  0
 91 85  1  0  0  0  0
 92 91  1  0  0  0  0
 93 91  1  0  0  0  0
 94 91  1  0  0  0  0
 95 86  1  0  0  0  0
 96 95  1  0  0  0  0
 97 95  1  0  0  0  0
 98 95  1  0  0  0  0
 99 10  4  0  0  0  0
100 99  4  0  0  0  0
101100  4  0  0  0  0
102 99  1  0  0  0  0
103102  1  0  0  0  0
104102  1  0  0  0  0
105102  1  0  0  0  0
106100  1  0  0  0  0
107106  1  0  0  0  0
108106  1  0  0  0  0
109106  1  0  0  0  0
110101  1  0  0  0  0
111110  1  0  0  0  0
112110  1  0  0  0  0
113110  1  0  0  0  0
114 22  1  0  0  0  0
115 23  1  0  0  0  0
116 22  1  0  0  0  0
117116  1  0  0  0  0
118116  1  0  0  0  0
119118  1  0  0  0  0
120118  1  0  0  0  0
121118  1  0  0  0  0
122116  1  0  0  0  0
123122  1  0  0  0  0
124122  1  0  0  0  0
125122  1  0  0  0  0
126 22  1  0  0  0  0
127126  1  0  0  0  0
128126  1  0  0  0  0
129128  1  0  0  0  0
130128  1  0  0  0  0
131128  1  0  0  0  0
132126  1  0  0  0  0
133132  1  0  0  0  0
134132  1  0  0  0  0
135132  1  0  0  0  0
136 23  1  0  0  0  0
137136  1  0  0  0  0
138136  1  0  0  0  0
139138  1  0  0  0  0
140138  1  0  0  0  0
141138  1  0  0  0  0
142136  1  0  0  0  0
143142  1  0  0  0  0
144142  1  0  0  0  0
145142  1  0  0  0  0
146 23  1  0  0  0  0
147146  1  0  0  0  0
148146  1  0  0  0  0
149148  1  0  0  0  0
150148  1  0  0  0  0
151148  1  0  0  0  0
152146  1  0  0  0  0
153152  1  0  0  0  0
154152  1  0  0  0  0
155152  1  0  0  0  0
156 25  1  0  0  0  0
157 12  4  0  0  0  0
158157  4  0  0  0  0
159158  4  0  0  0  0
160157  1  0  0  0  0
161160  1  0  0  0  0
162160  1  0  0  0  0
163160  1  0  0  0  0
164158  1  0  0  0  0
165164  1  0  0  0  0
166164  1  0  0  0  0
167164  1  0  0  0  0
168159  1  0  0  0  0
169168  1  0  0  0  0
170168  1  0  0  0  0
171168  1  0  0  0  0
172 14  4  0  0  0  0
173172  4  0  0  0  0
174173  4  0  0  0  0
175172  1  0  0  0  0
176175  1  0  0  0  0
177175  1  0  0  0  0
178175  1  0  0  0  0
179173  1  0  0  0  0
180179  1  0  0  0  0
181179  1  0  0  0  0
182179  1  0  0  0  0
183174  1  0  0  0  0
184183  1  0  0  0  0
185183  1  0  0  0  0
186183  1  0  0  0  0
187 16  4  0  0  0  0
188187  4  0  0  0  0
189188  4  0  0  0  0
190187  1  0  0  0  0
191190  1  0  0  0  0
192190  1  0  0  0  0
193190  1  0  0  0  0
194188  1  0  0  0  0
195194  1  0  0  0  0
196194  1  0  0  0  0
197194  1  0  0  0  0
198189  1  0  0  0  0
199198  1  0  0  0  0
200198  1  0  0  0  0
201198  1  0  0  0  0
202  7  1  0  0  0  0
203202  1  0  0  0  0
204 13  1  0  0  0  0
205204  1  0  0  0  0
  8 24  1  0  0  0  0
  9202  1  0  0  0  0
 10 24  1  0  0  0  0
 11202  1  0  0  0  0
 14 25  1  0  0  0  0
 15204  1  0  0  0  0
 16 25  1  0  0  0  0
 17204  1  0  0  0  0
 24 26  8  0  0  0  0
 24 27  8  0  0  0  0
 25114  8  0  0  0  0
 25115  8  0  0  0  0
 26 27  3  0  0  0  0
114115  3  0  0  0  0
M  CHG  1   4   1
M  END
$$$$
IHUHIF

From CSD data. Using bond type 'Any'. No disordered atoms. Largest molecule.
 77 80  0  0  0  0  0  0  0  0999 V2000
    1.1775    6.6460    8.5383 B   0  0  0  0  0  0  0  0  0  0  0  0
    1.8993    8.2195    8.7300 B   0  0  0  0  0  0  0  0  0  0  0  0
    1.1870    7.0398   10.9642 B   0  0  0  0  0  0  0  0  0  0  0  0
    0.4204    8.5579   10.6982 B   0  0  0  0  0  0  0  0  0  0  0  0
    0.2719    4.7619    9.9018 C   0  0  0  0  0  0  0  0  0  0  0  0
    1.1599    3.6929    9.9855 C   0  0  0  0  0  0  0  0  0  0  0  0
    0.6313    2.3979   10.1164 C   0  0  0  0  0  0  0  0  0  0  0  0
    1.2251    1.6611   10.2000 H   0  0  0  0  0  0  0  0  0  0  0  0
   -0.7423    2.1687   10.1259 C   0  0  0  0  0  0  0  0  0  0  0  0
   -1.5931    3.2500   10.0287 C   0  0  0  0  0  0  0  0  0  0  0  0
   -2.5315    3.1032   10.0470 H   0  0  0  0  0  0  0  0  0  0  0  0
   -1.1127    4.5543    9.9045 C   0  0  0  0  0  0  0  0  0  0  0  0
    2.6464    3.9067    9.8869 C   0  0  0  0  0  0  0  0  0  0  0  0
    2.8678    4.2623    9.0013 H   0  0  0  0  0  0  0  0  0  0  0  0
    3.1087    3.0538   10.0222 H   0  0  0  0  0  0  0  0  0  0  0  0
    2.9305    4.5449   10.5752 H   0  0  0  0  0  0  0  0  0  0  0  0
   -1.2997    0.7675   10.2811 C   0  0  0  0  0  0  0  0  0  0  0  0
   -1.5929    0.6336   11.2070 H   0  0  0  0  0  0  0  0  0  0  0  0
   -0.6055    0.1130   10.0603 H   0  0  0  0  0  0  0  0  0  0  0  0
   -2.0630    0.6515    9.6774 H   0  0  0  0  0  0  0  0  0  0  0  0
   -2.0854    5.7063    9.7546 C   0  0  0  0  0  0  0  0  0  0  0  0
   -1.8125    6.4412   10.3426 H   0  0  0  0  0  0  0  0  0  0  0  0
   -2.9855    5.4074   10.0016 H   0  0  0  0  0  0  0  0  0  0  0  0
   -2.0862    6.0139    8.8249 H   0  0  0  0  0  0  0  0  0  0  0  0
    0.3553   10.3605    8.9609 C   0  0  0  0  0  0  0  0  0  0  0  0
    0.9739   11.5864    9.2727 C   0  0  0  0  0  0  0  0  0  0  0  0
    0.4456   12.7461    8.7165 C   0  0  0  0  0  0  0  0  0  0  0  0
    0.8627   13.5792    8.9013 H   0  0  0  0  0  0  0  0  0  0  0  0
   -0.6805   12.7199    7.8958 C   0  0  0  0  0  0  0  0  0  0  0  0
   -1.2883   11.4987    7.6258 C   0  0  0  0  0  0  0  0  0  0  0  0
   -2.0585   11.4746    7.0699 H   0  0  0  0  0  0  0  0  0  0  0  0
   -0.7907   10.3113    8.1536 C   0  0  0  0  0  0  0  0  0  0  0  0
    2.1347   11.6248   10.2217 C   0  0  0  0  0  0  0  0  0  0  0  0
    2.5452   12.5138   10.2002 H   0  0  0  0  0  0  0  0  0  0  0  0
    2.7970   10.9525    9.9550 H   0  0  0  0  0  0  0  0  0  0  0  0
    1.8214   11.4309   11.1300 H   0  0  0  0  0  0  0  0  0  0  0  0
   -1.2749   13.9919    7.3234 C   0  0  0  0  0  0  0  0  0  0  0  0
   -1.5087   13.8499    6.3827 H   0  0  0  0  0  0  0  0  0  0  0  0
   -0.6196   14.7184    7.3908 H   0  0  0  0  0  0  0  0  0  0  0  0
   -2.0802   14.2319    7.8279 H   0  0  0  0  0  0  0  0  0  0  0  0
   -1.4667    8.9993    7.8647 C   0  0  0  0  0  0  0  0  0  0  0  0
   -2.1875    9.1397    7.2156 H   0  0  0  0  0  0  0  0  0  0  0  0
   -1.8406    8.6347    8.6940 H   0  0  0  0  0  0  0  0  0  0  0  0
   -0.8131    8.3693    7.4961 H   0  0  0  0  0  0  0  0  0  0  0  0
    3.5539    7.6858    6.2313 C   0  0  0  0  0  0  0  0  0  0  0  0
    2.9104    7.0637    5.8316 H   0  0  0  0  0  0  0  0  0  0  0  0
    4.1269    7.2024    6.8622 H   0  0  0  0  0  0  0  0  0  0  0  0
    4.1070    8.0811    5.5247 H   0  0  0  0  0  0  0  0  0  0  0  0
    3.8956   10.2928    7.3504 C   0  0  0  0  0  0  0  0  0  0  0  0
    4.3354   10.4961    6.4978 H   0  0  0  0  0  0  0  0  0  0  0  0
    4.5656    9.9916    7.9990 H   0  0  0  0  0  0  0  0  0  0  0  0
    3.4516   11.0979    7.6886 H   0  0  0  0  0  0  0  0  0  0  0  0
    1.5276    9.6838    5.8871 C   0  0  0  0  0  0  0  0  0  0  0  0
    1.9852    9.7824    5.0262 H   0  0  0  0  0  0  0  0  0  0  0  0
    1.2180   10.5604    6.1955 H   0  0  0  0  0  0  0  0  0  0  0  0
    0.7589    9.0843    5.7812 H   0  0  0  0  0  0  0  0  0  0  0  0
   -0.7606    5.7801   13.1254 C   0  0  0  0  0  0  0  0  0  0  0  0
   -0.9855    5.0136   12.5579 H   0  0  0  0  0  0  0  0  0  0  0  0
   -1.3838    6.5140   12.9468 H   0  0  0  0  0  0  0  0  0  0  0  0
   -0.8257    5.5181   14.0683 H   0  0  0  0  0  0  0  0  0  0  0  0
    2.0166    4.9542   13.2361 C   0  0  0  0  0  0  0  0  0  0  0  0
    1.9710    4.8122   14.2041 H   0  0  0  0  0  0  0  0  0  0  0  0
    2.9362    5.1804   12.9818 H   0  0  0  0  0  0  0  0  0  0  0  0
    1.7419    4.1362   12.7717 H   0  0  0  0  0  0  0  0  0  0  0  0
    1.2712    7.6366   13.9543 C   0  0  0  0  0  0  0  0  0  0  0  0
    0.5850    8.3335   13.8852 H   0  0  0  0  0  0  0  0  0  0  0  0
    2.1494    8.0232   13.7536 H   0  0  0  0  0  0  0  0  0  0  0  0
    1.2748    7.2705   14.8625 H   0  0  0  0  0  0  0  0  0  0  0  0
    3.1077    7.8534    9.7438 C   0  0  0  0  0  0  0  0  0  0  0  0
    0.9296    5.6543    7.0398 Cl  0  0  0  0  0  0  0  0  0  0  0  0
   -0.8406    9.4163   11.6657 Cl  0  0  0  0  0  0  0  0  0  0  0  0
    0.8083    6.1000    9.7641 N   0  0  0  0  0  0  0  0  0  0  0  0
    0.8736    9.1347    9.5117 N   0  0  0  0  0  0  0  0  0  0  0  0
    2.6915    7.3034   10.9129 O   0  0  0  0  0  0  0  0  0  0  0  0
    4.3258    7.9688    9.5791 O   0  0  0  0  0  0  0  0  0  0  0  0
    2.6699    8.9878    7.0993 P   0  0  0  0  0  0  0  0  0  0  0  0
    0.9094    6.3149   12.7707 P   0  0  0  0  0  0  0  0  0  0  0  0
  1  2  1  0  0  0  0
  2 69  1  0  0  0  0
  3  4  1  0  0  0  0
  4 71  1  0  0  0  0
  5  6  4  0  0  0  0
  6  7  4  0  0  0  0
  7  8  1  0  0  0  0
  9  7  4  0  0  0  0
 10  9  4  0  0  0  0
 11 10  1  0  0  0  0
 12  5  4  0  0  0  0
 13  6  1  0  0  0  0
 14 13  1  0  0  0  0
 15 13  1  0  0  0  0
 16 13  1  0  0  0  0
 17  9  1  0  0  0  0
 18 17  1  0  0  0  0
 19 17  1  0  0  0  0
 20 17  1  0  0  0  0
 21 12  1  0  0  0  0
 22 21  1  0  0  0  0
 23 21  1  0  0  0  0
 24 21  1  0  0  0  0
 25 26  4  0  0  0  0
 26 27  4  0  0  0  0
 27 28  1  0  0  0  0
 29 27  4  0  0  0  0
 30 29  4  0  0  0  0
 31 30  1  0  0  0  0
 32 25  4  0  0  0  0
 33 26  1  0  0  0  0
 34 33  1  0  0  0  0
 35 33  1  0  0  0  0
 36 33  1  0  0  0  0
 37 29  1  0  0  0  0
 38 37  1  0  0  0  0
 39 37  1  0  0  0  0
 40 37  1  0  0  0  0
 41 32  1  0  0  0  0
 42 41  1  0  0  0  0
 43 41  1  0  0  0  0
 44 41  1  0  0  0  0
 45 46  1  0  0  0  0
 47 45  1  0  0  0  0
 48 45  1  0  0  0  0
 49 50  1  0  0  0  0
 51 49  1  0  0  0  0
 52 49  1  0  0  0  0
 53 54  1  0  0  0  0
 55 53  1  0  0  0  0
 56 53  1  0  0  0  0
 57 58  1  0  0  0  0
 59 57  1  0  0  0  0
 60 57  1  0  0  0  0
 61 62  1  0  0  0  0
 63 61  1  0  0  0  0
 64 61  1  0  0  0  0
 65 66  1  0  0  0  0
 67 65  1  0  0  0  0
 68 65  1  0  0  0  0
 69 74  1  0  0  0  0
 70  1  1  0  0  0  0
 72  1  1  0  0  0  0
 73  2  1  0  0  0  0
 74  3  1  0  0  0  0
 75 69  2  0  0  0  0
 76  2  1  0  0  0  0
 77  3  1  0  0  0  0
  3 72  1  0  0  0  0
  4 73  1  0  0  0  0
  5 72  1  0  0  0  0
 10 12  4  0  0  0  0
 25 73  1  0  0  0  0
 30 32  4  0  0  0  0
 45 76  1  0  0  0  0
 49 76  1  0  0  0  0
 53 76  1  0  0  0  0
 57 77  1  0  0  0  0
 61 77  1  0  0  0  0
 65 77  1  0  0  0  0
M  END
$$$$
IKIJES

From CSD data. Using bond type 'Any'. No disordered atoms. Largest molecule.
128165  0  0  0  0  0  0  0  0999 V2000
   16.0011   -4.9359    3.5868 Br  0  0  0  0  0  0  0  0  0  0  0  0
   12.5722    2.4566    3.0803 C   0  0  0  0  0  0  0  0  0  0  0  0
   13.3322    1.3235    3.4976 O   0  0  0  0  0  0  0  0  0  0  0  0
   12.6489    0.1857    3.2633 C   0  0  0  0  0  0  0  0  0  0  0  0
   11.4445    0.3277    2.8394 N   0  0  0  0  0  0  0  0  0  0  0  0
   10.9135   -0.3693    2.7601 H   0  0  0  0  0  0  0  0  0  0  0  0
   10.8118    2.1249    2.3719 Fe  0  0  0  0  0  0  0  0  0  0  0  0
   11.6905    3.3938    4.0353 B   0  0  0  0  0  0  0  0  0  0  0  0
   11.5089    3.2008    5.1231 H   0  0  0  0  0  0  0  0  0  0  0  0
   13.2690    3.8880    3.1383 B   0  0  0  0  0  0  0  0  0  0  0  0
   14.3069    4.0575    3.5244 H   0  0  0  0  0  0  0  0  0  0  0  0
   12.6596    3.0362    1.5854 B   0  0  0  0  0  0  0  0  0  0  0  0
   13.2434    2.5534    0.7620 H   0  0  0  0  0  0  0  0  0  0  0  0
   10.4187    4.1713    2.9911 B   0  0  0  0  0  0  0  0  0  0  0  0
    9.3753    4.2981    3.3793 H   0  0  0  0  0  0  0  0  0  0  0  0
   11.9550    5.0668    3.4474 B   0  0  0  0  0  0  0  0  0  0  0  0
   12.1076    5.8892    4.1915 H   0  0  0  0  0  0  0  0  0  0  0  0
   12.6498    4.8257    1.7315 B   0  0  0  0  0  0  0  0  0  0  0  0
   13.3509    5.4440    1.1157 H   0  0  0  0  0  0  0  0  0  0  0  0
   11.1108    3.9391    1.2239 B   0  0  0  0  0  0  0  0  0  0  0  0
   10.6184    3.8933    0.2198 H   0  0  0  0  0  0  0  0  0  0  0  0
   11.1540    5.2962    2.0874 C   0  0  0  0  0  0  0  0  0  0  0  0
   10.7093    6.2201    1.7828 H   0  0  0  0  0  0  0  0  0  0  0  0
   13.4197   -1.0521    3.4485 C   0  0  0  0  0  0  0  0  0  0  0  0
   12.8507   -2.3030    3.1584 C   0  0  0  0  0  0  0  0  0  0  0  0
   11.9337   -2.3675    2.9208 H   0  0  0  0  0  0  0  0  0  0  0  0
   13.6313   -3.4347    3.2209 C   0  0  0  0  0  0  0  0  0  0  0  0
   13.2506   -4.2788    3.0089 H   0  0  0  0  0  0  0  0  0  0  0  0
   14.9484   -3.3585    3.5835 C   0  0  0  0  0  0  0  0  0  0  0  0
   15.5207   -2.1366    3.8858 C   0  0  0  0  0  0  0  0  0  0  0  0
   16.4366   -2.0820    4.1357 H   0  0  0  0  0  0  0  0  0  0  0  0
   14.7491   -0.9986    3.8222 C   0  0  0  0  0  0  0  0  0  0  0  0
   15.1376   -0.1591    4.0398 H   0  0  0  0  0  0  0  0  0  0  0  0
   10.3007    1.6525    0.7642 C   0  0  0  0  0  0  0  0  0  0  0  0
   10.0118    1.3801   -0.3280 O   0  0  0  0  0  0  0  0  0  0  0  0
    8.7126    1.6563    2.9938 P   0  0  0  0  0  0  0  0  0  0  0  0
    8.0152    2.2978    4.5742 C   0  0  0  0  0  0  0  0  0  0  0  0
    8.6258    2.0433    5.3117 H   0  0  0  0  0  0  0  0  0  0  0  0
    7.9974    3.2860    4.5307 H   0  0  0  0  0  0  0  0  0  0  0  0
    6.6082    1.8014    4.9167 C   0  0  0  0  0  0  0  0  0  0  0  0
    5.9841    2.0805    4.2005 H   0  0  0  0  0  0  0  0  0  0  0  0
    6.6135    0.8111    4.9424 H   0  0  0  0  0  0  0  0  0  0  0  0
    8.5712   -0.1650    3.1919 C   0  0  0  0  0  0  0  0  0  0  0  0
    8.4040   -1.0054    2.0829 C   0  0  0  0  0  0  0  0  0  0  0  0
    8.2587   -0.6381    1.2194 H   0  0  0  0  0  0  0  0  0  0  0  0
    8.4546   -2.3888    2.2603 C   0  0  0  0  0  0  0  0  0  0  0  0
    8.3425   -2.9639    1.5128 H   0  0  0  0  0  0  0  0  0  0  0  0
    8.6656   -2.9268    3.5121 C   0  0  0  0  0  0  0  0  0  0  0  0
    8.6716   -3.8702    3.6315 H   0  0  0  0  0  0  0  0  0  0  0  0
    8.8651   -2.0976    4.5820 C   0  0  0  0  0  0  0  0  0  0  0  0
    9.0380   -2.4669    5.4400 H   0  0  0  0  0  0  0  0  0  0  0  0
    8.8173   -0.7398    4.4258 C   0  0  0  0  0  0  0  0  0  0  0  0
    8.9566   -0.1789    5.1800 H   0  0  0  0  0  0  0  0  0  0  0  0
    7.4253    2.1151    1.7772 C   0  0  0  0  0  0  0  0  0  0  0  0
    7.5495    3.3120    1.0744 C   0  0  0  0  0  0  0  0  0  0  0  0
    8.3089    3.8632    1.2205 H   0  0  0  0  0  0  0  0  0  0  0  0
    6.5899    3.7061    0.1718 C   0  0  0  0  0  0  0  0  0  0  0  0
    6.6836    4.5323   -0.2856 H   0  0  0  0  0  0  0  0  0  0  0  0
    5.5019    2.9148   -0.0692 C   0  0  0  0  0  0  0  0  0  0  0  0
    4.8508    3.1853   -0.7062 H   0  0  0  0  0  0  0  0  0  0  0  0
    5.3460    1.7165    0.6147 C   0  0  0  0  0  0  0  0  0  0  0  0
    4.5909    1.1627    0.4496 H   0  0  0  0  0  0  0  0  0  0  0  0
    6.2986    1.3387    1.5374 C   0  0  0  0  0  0  0  0  0  0  0  0
    6.1828    0.5287    2.0205 H   0  0  0  0  0  0  0  0  0  0  0  0
   -3.2910    9.0615    7.5697 Br  0  0  0  0  0  0  0  0  0  0  0  0
    0.1379    1.6690    8.0763 C   0  0  0  0  0  0  0  0  0  0  0  0
   -0.6221    2.8021    7.6590 O   0  0  0  0  0  0  0  0  0  0  0  0
    0.0612    3.9398    7.8933 C   0  0  0  0  0  0  0  0  0  0  0  0
    1.2657    3.7979    8.3172 N   0  0  0  0  0  0  0  0  0  0  0  0
    1.7966    4.4948    8.3965 H   0  0  0  0  0  0  0  0  0  0  0  0
    1.8983    2.0006    8.7847 Fe  0  0  0  0  0  0  0  0  0  0  0  0
    1.0196    0.7318    7.1213 B   0  0  0  0  0  0  0  0  0  0  0  0
    1.2012    0.9248    6.0335 H   0  0  0  0  0  0  0  0  0  0  0  0
   -0.5589    0.2375    8.0182 B   0  0  0  0  0  0  0  0  0  0  0  0
   -1.5968    0.0681    7.6322 H   0  0  0  0  0  0  0  0  0  0  0  0
    0.0506    1.0894    9.5712 B   0  0  0  0  0  0  0  0  0  0  0  0
   -0.5333    1.5722   10.3946 H   0  0  0  0  0  0  0  0  0  0  0  0
    2.2915   -0.0457    8.1655 B   0  0  0  0  0  0  0  0  0  0  0  0
    3.3348   -0.1726    7.7773 H   0  0  0  0  0  0  0  0  0  0  0  0
    0.7552   -0.9412    7.7092 B   0  0  0  0  0  0  0  0  0  0  0  0
    0.6026   -1.7637    6.9651 H   0  0  0  0  0  0  0  0  0  0  0  0
    0.0604   -0.7001    9.4251 B   0  0  0  0  0  0  0  0  0  0  0  0
   -0.6408   -1.3184   10.0409 H   0  0  0  0  0  0  0  0  0  0  0  0
    1.5994    0.1864    9.9327 B   0  0  0  0  0  0  0  0  0  0  0  0
    2.0917    0.2323   10.9368 H   0  0  0  0  0  0  0  0  0  0  0  0
    1.5561   -1.1706    9.0692 C   0  0  0  0  0  0  0  0  0  0  0  0
    2.0008   -2.0946    9.3738 H   0  0  0  0  0  0  0  0  0  0  0  0
   -0.7096    5.1777    7.7081 C   0  0  0  0  0  0  0  0  0  0  0  0
   -0.1406    6.4286    7.9982 C   0  0  0  0  0  0  0  0  0  0  0  0
    0.7765    6.4930    8.2358 H   0  0  0  0  0  0  0  0  0  0  0  0
   -0.9211    7.5602    7.9357 C   0  0  0  0  0  0  0  0  0  0  0  0
   -0.5404    8.4043    8.1477 H   0  0  0  0  0  0  0  0  0  0  0  0
   -2.2383    7.4841    7.5731 C   0  0  0  0  0  0  0  0  0  0  0  0
   -2.8106    6.2621    7.2708 C   0  0  0  0  0  0  0  0  0  0  0  0
   -3.7264    6.2076    7.0208 H   0  0  0  0  0  0  0  0  0  0  0  0
   -2.0390    5.1242    7.3343 C   0  0  0  0  0  0  0  0  0  0  0  0
   -2.4275    4.2847    7.1168 H   0  0  0  0  0  0  0  0  0  0  0  0
    2.4094    2.4731   10.3924 C   0  0  0  0  0  0  0  0  0  0  0  0
    2.6983    2.7454   11.4846 O   0  0  0  0  0  0  0  0  0  0  0  0
    3.9976    2.4692    8.1628 P   0  0  0  0  0  0  0  0  0  0  0  0
    4.6949    1.8277    6.5824 C   0  0  0  0  0  0  0  0  0  0  0  0
    4.0844    2.0822    5.8449 H   0  0  0  0  0  0  0  0  0  0  0  0
    4.7127    0.8395    6.6259 H   0  0  0  0  0  0  0  0  0  0  0  0
    6.1019    2.3241    6.2399 C   0  0  0  0  0  0  0  0  0  0  0  0
    6.7260    2.0451    6.9561 H   0  0  0  0  0  0  0  0  0  0  0  0
    6.0967    3.3145    6.2142 H   0  0  0  0  0  0  0  0  0  0  0  0
    4.1389    4.2906    7.9647 C   0  0  0  0  0  0  0  0  0  0  0  0
    4.3062    5.1309    9.0737 C   0  0  0  0  0  0  0  0  0  0  0  0
    4.4515    4.7636    9.9372 H   0  0  0  0  0  0  0  0  0  0  0  0
    4.2555    6.5143    8.8963 C   0  0  0  0  0  0  0  0  0  0  0  0
    4.3676    7.0895    9.6438 H   0  0  0  0  0  0  0  0  0  0  0  0
    4.0446    7.0524    7.6445 C   0  0  0  0  0  0  0  0  0  0  0  0
    4.0385    7.9958    7.5251 H   0  0  0  0  0  0  0  0  0  0  0  0
    3.8450    6.2232    6.5746 C   0  0  0  0  0  0  0  0  0  0  0  0
    3.6721    6.5925    5.7166 H   0  0  0  0  0  0  0  0  0  0  0  0
    3.8928    4.8653    6.7308 C   0  0  0  0  0  0  0  0  0  0  0  0
    3.7535    4.3044    5.9766 H   0  0  0  0  0  0  0  0  0  0  0  0
    5.2849    2.0104    9.3793 C   0  0  0  0  0  0  0  0  0  0  0  0
    5.1606    0.8135   10.0822 C   0  0  0  0  0  0  0  0  0  0  0  0
    4.4012    0.2624    9.9361 H   0  0  0  0  0  0  0  0  0  0  0  0
    6.1202    0.4194   10.9848 C   0  0  0  0  0  0  0  0  0  0  0  0
    6.0265   -0.4068   11.4422 H   0  0  0  0  0  0  0  0  0  0  0  0
    7.2082    1.2108   11.2258 C   0  0  0  0  0  0  0  0  0  0  0  0
    7.8593    0.9403   11.8628 H   0  0  0  0  0  0  0  0  0  0  0  0
    7.3642    2.4091   10.5419 C   0  0  0  0  0  0  0  0  0  0  0  0
    8.1193    2.9628   10.7070 H   0  0  0  0  0  0  0  0  0  0  0  0
    6.4116    2.7869    9.6192 C   0  0  0  0  0  0  0  0  0  0  0  0
    6.5274    3.5969    9.1361 H   0  0  0  0  0  0  0  0  0  0  0  0
  1 29  1  0  0  0  0
  2  3  1  0  0  0  0
  3  4  1  0  0  0  0
  4  5  2  0  0  0  0
  5  6  1  0  0  0  0
  7  2  1  0  0  0  0
  8  2  1  0  0  0  0
  9  8  1  0  0  0  0
 10  2  1  0  0  0  0
 11 10  1  0  0  0  0
 12  2  1  0  0  0  0
 13 12  1  0  0  0  0
 14  7  1  0  0  0  0
 15 14  1  0  0  0  0
 16  8  1  0  0  0  0
 17 16  1  0  0  0  0
 18 10  1  0  0  0  0
 19 18  1  0  0  0  0
 20  7  1  0  0  0  0
 21 20  1  0  0  0  0
 22 14  1  0  0  0  0
 23 22  1  0  0  0  0
 24  4  1  0  0  0  0
 25 24  4  0  0  0  0
 26 25  1  0  0  0  0
 27 25  4  0  0  0  0
 28 27  1  0  0  0  0
 29 27  4  0  0  0  0
 30 29  4  0  0  0  0
 31 30  1  0  0  0  0
 32 24  4  0  0  0  0
 33 32  1  0  0  0  0
 34  7  1  0  0  0  0
 35 34  3  0  0  0  0
 36  7  1  0  0  0  0
 37 36  1  0  0  0  0
 38 37  1  0  0  0  0
 39 37  1  0  0  0  0
 40 37  1  0  0  0  0
 41 40  1  0  0  0  0
 42 40  1  0  0  0  0
 43 36  1  0  0  0  0
 44 43  4  0  0  0  0
 45 44  1  0  0  0  0
 46 44  4  0  0  0  0
 47 46  1  0  0  0  0
 48 46  4  0  0  0  0
 49 48  1  0  0  0  0
 50 48  4  0  0  0  0
 51 50  1  0  0  0  0
 52 43  4  0  0  0  0
 53 52  1  0  0  0  0
 54 36  1  0  0  0  0
 55 54  4  0  0  0  0
 56 55  1  0  0  0  0
 57 55  4  0  0  0  0
 58 57  1  0  0  0  0
 59 57  4  0  0  0  0
 60 59  1  0  0  0  0
 61 59  4  0  0  0  0
 62 61  1  0  0  0  0
 63 54  4  0  0  0  0
 64 63  1  0  0  0  0
 65 93  1  0  0  0  0
 66 67  1  0  0  0  0
 67 68  1  0  0  0  0
 68 69  2  0  0  0  0
 69 70  1  0  0  0  0
 71 66  1  0  0  0  0
 72 66  1  0  0  0  0
 73 72  1  0  0  0  0
 74 66  1  0  0  0  0
 75 74  1  0  0  0  0
 76 66  1  0  0  0  0
 77 76  1  0  0  0  0
 78 71  1  0  0  0  0
 79 78  1  0  0  0  0
 80 72  1  0  0  0  0
 81 80  1  0  0  0  0
 82 74  1  0  0  0  0
 83 82  1  0  0  0  0
 84 71  1  0  0  0  0
 85 84  1  0  0  0  0
 86 78  1  0  0  0  0
 87 86  1  0  0  0  0
 88 68  1  0  0  0  0
 89 88  4  0  0  0  0
 90 89  1  0  0  0  0
 91 89  4  0  0  0  0
 92 91  1  0  0  0  0
 93 91  4  0  0  0  0
 94 93  4  0  0  0  0
 95 94  1  0  0  0  0
 96 88  4  0  0  0  0
 97 96  1  0  0  0  0
 98 71  1  0  0  0  0
 99 98  3  0  0  0  0
100 71  1  0  0  0  0
101100  1  0  0  0  0
102101  1  0  0  0  0
103101  1  0  0  0  0
104 40  1  0  0  0  0
105104  1  0  0  0  0
106104  1  0  0  0  0
107100  1  0  0  0  0
108107  4  0  0  0  0
109108  1  0  0  0  0
110108  4  0  0  0  0
111110  1  0  0  0  0
112110  4  0  0  0  0
113112  1  0  0  0  0
114112  4  0  0  0  0
115114  1  0  0  0  0
116107  4  0  0  0  0
117116  1  0  0  0  0
118100  1  0  0  0  0
119118  4  0  0  0  0
120119  1  0  0  0  0
121119  4  0  0  0  0
122121  1  0  0  0  0
123121  4  0  0  0  0
124123  1  0  0  0  0
125123  4  0  0  0  0
126125  1  0  0  0  0
127118  4  0  0  0  0
128127  1  0  0  0  0
  5  7  1  0  0  0  0
  7  8  1  0  0  0  0
  7 12  1  0  0  0  0
  8 10  1  0  0  0  0
  8 14  1  0  0  0  0
 10 12  1  0  0  0  0
 10 16  1  0  0  0  0
 12 18  1  0  0  0  0
 12 20  1  0  0  0  0
 14 16  1  0  0  0  0
 14 20  1  0  0  0  0
 16 18  1  0  0  0  0
 16 22  1  0  0  0  0
 18 20  1  0  0  0  0
 18 22  1  0  0  0  0
 20 22  1  0  0  0  0
 30 32  4  0  0  0  0
 50 52  4  0  0  0  0
 61 63  4  0  0  0  0
 69 71  1  0  0  0  0
 71 72  1  0  0  0  0
 71 76  1  0  0  0  0
 72 74  1  0  0  0  0
 72 78  1  0  0  0  0
 74 76  1  0  0  0  0
 74 80  1  0  0  0  0
 76 82  1  0  0  0  0
 76 84  1  0  0  0  0
 78 80  1  0  0  0  0
 78 84  1  0  0  0  0
 80 82  1  0  0  0  0
 80 86  1  0  0  0  0
 82 84  1  0  0  0  0
 82 86  1  0  0  0  0
 84 86  1  0  0  0  0
 94 96  4  0  0  0  0
101104  1  0  0  0  0
114116  4  0  0  0  0
125127  4  0  0  0  0
M  END
$$$$
IKIKAP

From CSD data. Using bond type 'Any'. No disordered atoms. Largest molecule.
 76 95  0  0  0  0  0  0  0  0999 V2000
    3.1477    6.1897    6.3842 C   0  0  0  0  0  0  0  0  0  0  0  0
    3.9673    5.7112    5.3208 O   0  0  0  0  0  0  0  0  0  0  0  0
    3.9679    6.5951    4.3100 C   0  0  0  0  0  0  0  0  0  0  0  0
    4.6786    6.1199    3.0859 C   0  0  0  0  0  0  0  0  0  0  0  0
    4.6121    6.8011    2.3851 H   0  0  0  0  0  0  0  0  0  0  0  0
    4.2662    5.2875    2.7715 H   0  0  0  0  0  0  0  0  0  0  0  0
    5.6221    5.9590    3.2966 H   0  0  0  0  0  0  0  0  0  0  0  0
    3.3853    7.7161    4.5034 N   0  0  0  0  0  0  0  0  0  0  0  0
    3.3143    8.3147    3.8622 H   0  0  0  0  0  0  0  0  0  0  0  0
    2.6500    8.0443    6.3071 Fe  0  0  0  0  0  0  0  0  0  0  0  0
    3.6346    6.7732    7.8104 B   0  0  0  0  0  0  0  0  0  0  0  0
    4.7086    6.9105    8.0984 H   0  0  0  0  0  0  0  0  0  0  0  0
    2.6470    5.1866    7.5153 B   0  0  0  0  0  0  0  0  0  0  0  0
    2.9574    4.1118    7.5557 H   0  0  0  0  0  0  0  0  0  0  0  0
    1.5345    6.0877    6.3193 B   0  0  0  0  0  0  0  0  0  0  0  0
    0.9649    5.6973    5.4376 H   0  0  0  0  0  0  0  0  0  0  0  0
    2.3127    7.9103    8.4409 B   0  0  0  0  0  0  0  0  0  0  0  0
    2.5598    8.8586    8.9818 H   0  0  0  0  0  0  0  0  0  0  0  0
    2.4402    6.1789    9.0047 B   0  0  0  0  0  0  0  0  0  0  0  0
    2.8166    5.7895    9.9847 H   0  0  0  0  0  0  0  0  0  0  0  0
    0.9803    5.6780    7.9878 B   0  0  0  0  0  0  0  0  0  0  0  0
    0.1954    4.8981    8.1581 H   0  0  0  0  0  0  0  0  0  0  0  0
    0.8391    7.4115    7.3221 B   0  0  0  0  0  0  0  0  0  0  0  0
   -0.0645    7.9704    6.9673 H   0  0  0  0  0  0  0  0  0  0  0  0
    1.0721    6.9985    8.8694 C   0  0  0  0  0  0  0  0  0  0  0  0
    0.3995    7.2420    9.6651 H   0  0  0  0  0  0  0  0  0  0  0  0
    3.8749    9.2233    6.7566 C   0  0  0  0  0  0  0  0  0  0  0  0
    4.7003    9.9517    7.1042 O   0  0  0  0  0  0  0  0  0  0  0  0
    1.3680    9.7056    5.7275 P   0  0  0  0  0  0  0  0  0  0  0  0
    2.2133   10.9569    4.9932 O   0  0  0  0  0  0  0  0  0  0  0  0
   -0.0009    9.4508    4.5517 C   0  0  0  0  0  0  0  0  0  0  0  0
   -0.8447   10.5010    4.1994 C   0  0  0  0  0  0  0  0  0  0  0  0
   -0.7416   11.3548    4.6033 H   0  0  0  0  0  0  0  0  0  0  0  0
   -1.8420   10.2896    3.2439 C   0  0  0  0  0  0  0  0  0  0  0  0
   -2.4173   11.0041    2.9945 H   0  0  0  0  0  0  0  0  0  0  0  0
   -2.0000    9.0496    2.6626 C   0  0  0  0  0  0  0  0  0  0  0  0
   -2.6899    8.9101    2.0233 H   0  0  0  0  0  0  0  0  0  0  0  0
   -1.1562    8.0101    3.0033 C   0  0  0  0  0  0  0  0  0  0  0  0
   -1.2657    7.1594    2.5941 H   0  0  0  0  0  0  0  0  0  0  0  0
   -0.1474    8.2021    3.9447 C   0  0  0  0  0  0  0  0  0  0  0  0
    0.4380    7.4887    4.1713 H   0  0  0  0  0  0  0  0  0  0  0  0
    0.6802   10.7337    7.0666 C   0  0  0  0  0  0  0  0  0  0  0  0
    1.5321   11.5898    7.7594 C   0  0  0  0  0  0  0  0  0  0  0  0
    2.4489   11.6434    7.5153 H   0  0  0  0  0  0  0  0  0  0  0  0
    1.0458   12.3729    8.8115 C   0  0  0  0  0  0  0  0  0  0  0  0
    1.6246   12.9650    9.2751 H   0  0  0  0  0  0  0  0  0  0  0  0
   -0.2876   12.2763    9.1715 C   0  0  0  0  0  0  0  0  0  0  0  0
   -0.6220   12.8105    9.8828 H   0  0  0  0  0  0  0  0  0  0  0  0
   -1.1314   11.4181    8.5111 C   0  0  0  0  0  0  0  0  0  0  0  0
   -2.0393   11.3484    8.7781 H   0  0  0  0  0  0  0  0  0  0  0  0
   -0.6543   10.6458    7.4486 C   0  0  0  0  0  0  0  0  0  0  0  0
   -1.2435   10.0611    6.9849 H   0  0  0  0  0  0  0  0  0  0  0  0
    2.8641   11.1807    3.5595 P   0  0  0  0  0  0  0  0  0  0  0  0
    3.2260    9.9549    2.8131 O   0  0  0  0  0  0  0  0  0  0  0  0
    1.6568   12.1626    2.6766 C   0  0  0  0  0  0  0  0  0  0  0  0
    1.0639   13.2836    3.2387 C   0  0  0  0  0  0  0  0  0  0  0  0
    1.3151   13.5657    4.1098 H   0  0  0  0  0  0  0  0  0  0  0  0
    0.1021   13.9948    2.5274 C   0  0  0  0  0  0  0  0  0  0  0  0
   -0.3027   14.7586    2.9208 H   0  0  0  0  0  0  0  0  0  0  0  0
   -0.2714   13.5990    1.2523 C   0  0  0  0  0  0  0  0  0  0  0  0
   -0.9368   14.0817    0.7763 H   0  0  0  0  0  0  0  0  0  0  0  0
    0.3346   12.4930    0.6762 C   0  0  0  0  0  0  0  0  0  0  0  0
    0.0900   12.2259   -0.2020 H   0  0  0  0  0  0  0  0  0  0  0  0
    1.2898   11.7775    1.3752 C   0  0  0  0  0  0  0  0  0  0  0  0
    1.7002   11.0212    0.9730 H   0  0  0  0  0  0  0  0  0  0  0  0
    4.2685   12.2141    3.9552 C   0  0  0  0  0  0  0  0  0  0  0  0
    5.3014   12.2870    3.0297 C   0  0  0  0  0  0  0  0  0  0  0  0
    5.2497   11.7904    2.2218 H   0  0  0  0  0  0  0  0  0  0  0  0
    6.4052   13.0841    3.2861 C   0  0  0  0  0  0  0  0  0  0  0  0
    7.1082   13.1324    2.6485 H   0  0  0  0  0  0  0  0  0  0  0  0
    6.4961   13.8060    4.4505 C   0  0  0  0  0  0  0  0  0  0  0  0
    7.2558   14.3510    4.6174 H   0  0  0  0  0  0  0  0  0  0  0  0
    5.4797   13.7352    5.3744 C   0  0  0  0  0  0  0  0  0  0  0  0
    5.5453   14.2308    6.1823 H   0  0  0  0  0  0  0  0  0  0  0  0
    4.3613   12.9479    5.1390 C   0  0  0  0  0  0  0  0  0  0  0  0
    3.6602   12.9092    5.7801 H   0  0  0  0  0  0  0  0  0  0  0  0
  1  2  1  0  0  0  0
  2  3  1  0  0  0  0
  3  4  1  0  0  0  0
  4  5  1  0  0  0  0
  6  4  1  0  0  0  0
  7  4  1  0  0  0  0
  8  3  2  0  0  0  0
  9  8  1  0  0  0  0
 10  1  1  0  0  0  0
 11  1  1  0  0  0  0
 12 11  1  0  0  0  0
 13  1  1  0  0  0  0
 14 13  1  0  0  0  0
 15  1  1  0  0  0  0
 16 15  1  0  0  0  0
 17 10  1  0  0  0  0
 18 17  1  0  0  0  0
 19 11  1  0  0  0  0
 20 19  1  0  0  0  0
 21 13  1  0  0  0  0
 22 21  1  0  0  0  0
 23 10  1  0  0  0  0
 24 23  1  0  0  0  0
 25 17  1  0  0  0  0
 26 25  1  0  0  0  0
 27 10  1  0  0  0  0
 28 27  3  0  0  0  0
 29 10  1  0  0  0  0
 30 29  1  0  0  0  0
 31 29  1  0  0  0  0
 32 31  4  0  0  0  0
 33 32  1  0  0  0  0
 34 32  4  0  0  0  0
 35 34  1  0  0  0  0
 36 34  4  0  0  0  0
 37 36  1  0  0  0  0
 38 36  4  0  0  0  0
 39 38  1  0  0  0  0
 40 31  4  0  0  0  0
 41 40  1  0  0  0  0
 42 29  1  0  0  0  0
 43 42  4  0  0  0  0
 44 43  1  0  0  0  0
 45 43  4  0  0  0  0
 46 45  1  0  0  0  0
 47 45  4  0  0  0  0
 48 47  1  0  0  0  0
 49 47  4  0  0  0  0
 50 49  1  0  0  0  0
 51 42  4  0  0  0  0
 52 51  1  0  0  0  0
 53 30  1  0  0  0  0
 54 53  2  0  0  0  0
 55 53  1  0  0  0  0
 56 55  4  0  0  0  0
 57 56  1  0  0  0  0
 58 56  4  0  0  0  0
 59 58  1  0  0  0  0
 60 58  4  0  0  0  0
 61 60  1  0  0  0  0
 62 60  4  0  0  0  0
 63 62  1  0  0  0  0
 64 55  4  0  0  0  0
 65 64  1  0  0  0  0
 66 53  1  0  0  0  0
 67 66  4  0  0  0  0
 68 67  1  0  0  0  0
 69 67  4  0  0  0  0
 70 69  1  0  0  0  0
 71 69  4  0  0  0  0
 72 71  1  0  0  0  0
 73 71  4  0  0  0  0
 74 73  1  0  0  0  0
 75 66  4  0  0  0  0
 76 75  1  0  0  0  0
  8 10  1  0  0  0  0
 10 11  1  0  0  0  0
 10 15  1  0  0  0  0
 11 13  1  0  0  0  0
 11 17  1  0  0  0  0
 13 15  1  0  0  0  0
 13 19  1  0  0  0  0
 15 21  1  0  0  0  0
 15 23  1  0  0  0  0
 17 19  1  0  0  0  0
 17 23  1  0  0  0  0
 19 21  1  0  0  0  0
 19 25  1  0  0  0  0
 21 23  1  0  0  0  0
 21 25  1  0  0  0  0
 23 25  1  0  0  0  0
 38 40  4  0  0  0  0
 49 51  4  0  0  0  0
 62 64  4  0  0  0  0
 73 75  4  0  0  0  0
M  END
$$$$
IKIKOD

From CSD data. Using bond type 'Any'. No disordered atoms. Largest molecule.
 97117  0  0  0  0  0  0  0  0999 V2000
   16.6374    9.6216   14.2115 C   0  0  0  0  0  0  0  0  0  0  0  0
   15.5620    8.7337   14.3492 O   0  0  0  0  0  0  0  0  0  0  0  0
   14.9943    8.8853   13.7476 H   0  0  0  0  0  0  0  0  0  0  0  0
   17.0411   10.6464   12.6081 Fe  0  0  0  0  0  0  0  0  0  0  0  0
   16.6775   11.1535   14.7230 B   0  0  0  0  0  0  0  0  0  0  0  0
   15.7554   11.6973   15.0509 H   0  0  0  0  0  0  0  0  0  0  0  0
   17.5875    9.7172   15.4919 B   0  0  0  0  0  0  0  0  0  0  0  0
   17.3764    9.1203   16.4165 H   0  0  0  0  0  0  0  0  0  0  0  0
   18.1452    9.1996   13.8132 B   0  0  0  0  0  0  0  0  0  0  0  0
   18.3878    8.1800   13.4164 H   0  0  0  0  0  0  0  0  0  0  0  0
   18.0093   12.0698   13.9673 B   0  0  0  0  0  0  0  0  0  0  0  0
   17.8534   13.1401   13.6755 H   0  0  0  0  0  0  0  0  0  0  0  0
   18.2572   11.3657   15.6214 B   0  0  0  0  0  0  0  0  0  0  0  0
   18.2968   11.8792   16.6165 H   0  0  0  0  0  0  0  0  0  0  0  0
   19.2678   10.0045   14.9722 B   0  0  0  0  0  0  0  0  0  0  0  0
   20.1078    9.4372   15.4492 H   0  0  0  0  0  0  0  0  0  0  0  0
   19.1189   10.6158   13.2689 B   0  0  0  0  0  0  0  0  0  0  0  0
   19.8489   10.5312   12.4230 H   0  0  0  0  0  0  0  0  0  0  0  0
   19.3839   11.5242   14.5394 C   0  0  0  0  0  0  0  0  0  0  0  0
   20.2544   12.1389   14.6345 H   0  0  0  0  0  0  0  0  0  0  0  0
   17.5669   11.8927   11.4443 C   0  0  0  0  0  0  0  0  0  0  0  0
   17.8808   12.7071   10.7033 O   0  0  0  0  0  0  0  0  0  0  0  0
   17.0201    9.3516   11.3836 C   0  0  0  0  0  0  0  0  0  0  0  0
   17.0674    8.4914   10.6289 O   0  0  0  0  0  0  0  0  0  0  0  0
   15.2394   11.1314   12.2771 C   0  0  0  0  0  0  0  0  0  0  0  0
   14.1698   11.4707   12.0115 N   0  0  0  0  0  0  0  0  0  0  0  0
   12.3495   12.1296   11.3188 Ir  0  0  0  0  0  0  0  0  0  0  0  0
   10.7853   12.7350   10.5994 C   0  0  0  0  0  0  0  0  0  0  0  0
    9.8132   13.1217   10.1025 O   0  0  0  0  0  0  0  0  0  0  0  0
   12.3907   10.2951    9.9028 P   0  0  0  0  0  0  0  0  0  0  0  0
   12.6658    8.8709   11.0118 C   0  0  0  0  0  0  0  0  0  0  0  0
   13.7017    7.9700   10.8640 C   0  0  0  0  0  0  0  0  0  0  0  0
   14.2638    8.0174   10.1000 H   0  0  0  0  0  0  0  0  0  0  0  0
   13.9236    6.9926   11.8312 C   0  0  0  0  0  0  0  0  0  0  0  0
   14.6444    6.3837   11.7279 H   0  0  0  0  0  0  0  0  0  0  0  0
   13.1056    6.8999   12.9410 C   0  0  0  0  0  0  0  0  0  0  0  0
   13.2571    6.2243   13.5919 H   0  0  0  0  0  0  0  0  0  0  0  0
   12.0676    7.7989   13.1000 C   0  0  0  0  0  0  0  0  0  0  0  0
   11.5065    7.7432   13.8640 H   0  0  0  0  0  0  0  0  0  0  0  0
   11.8405    8.7851   12.1438 C   0  0  0  0  0  0  0  0  0  0  0  0
   11.1262    9.4003   12.2574 H   0  0  0  0  0  0  0  0  0  0  0  0
   13.7212   10.2313    8.6666 C   0  0  0  0  0  0  0  0  0  0  0  0
   13.6754    9.3389    7.5853 C   0  0  0  0  0  0  0  0  0  0  0  0
   12.9236    8.7704    7.4672 H   0  0  0  0  0  0  0  0  0  0  0  0
   14.7387    9.2898    6.6853 C   0  0  0  0  0  0  0  0  0  0  0  0
   14.6981    8.7020    5.9394 H   0  0  0  0  0  0  0  0  0  0  0  0
   15.8428   10.0844    6.8656 C   0  0  0  0  0  0  0  0  0  0  0  0
   16.5737   10.0203    6.2623 H   0  0  0  0  0  0  0  0  0  0  0  0
   15.8977   10.9765    7.9213 C   0  0  0  0  0  0  0  0  0  0  0  0
   16.6603   11.5293    8.0377 H   0  0  0  0  0  0  0  0  0  0  0  0
   14.8303   11.0595    8.8105 C   0  0  0  0  0  0  0  0  0  0  0  0
   14.8605   11.6871    9.5230 H   0  0  0  0  0  0  0  0  0  0  0  0
   10.9061    9.8573    8.9525 C   0  0  0  0  0  0  0  0  0  0  0  0
   10.3785   10.7819    8.0418 C   0  0  0  0  0  0  0  0  0  0  0  0
   10.8031   11.6240    7.9295 H   0  0  0  0  0  0  0  0  0  0  0  0
    9.2457   10.4805    7.3033 C   0  0  0  0  0  0  0  0  0  0  0  0
    8.8837   11.1195    6.7000 H   0  0  0  0  0  0  0  0  0  0  0  0
    8.6443    9.2442    7.4459 C   0  0  0  0  0  0  0  0  0  0  0  0
    7.8622    9.0400    6.9476 H   0  0  0  0  0  0  0  0  0  0  0  0
    9.1672    8.3058    8.3049 C   0  0  0  0  0  0  0  0  0  0  0  0
    8.7702    7.4464    8.3738 H   0  0  0  0  0  0  0  0  0  0  0  0
   10.2865    8.6251    9.0754 C   0  0  0  0  0  0  0  0  0  0  0  0
   10.6273    7.9892    9.6918 H   0  0  0  0  0  0  0  0  0  0  0  0
   12.3649   13.6735   13.0651 P   0  0  0  0  0  0  0  0  0  0  0  0
   13.9790   14.4717   13.3200 C   0  0  0  0  0  0  0  0  0  0  0  0
   14.7809   14.6866   12.1969 C   0  0  0  0  0  0  0  0  0  0  0  0
   14.4897   14.3990   11.3394 H   0  0  0  0  0  0  0  0  0  0  0  0
   16.0060   15.3239   12.3391 C   0  0  0  0  0  0  0  0  0  0  0  0
   16.5509   15.4805   11.5771 H   0  0  0  0  0  0  0  0  0  0  0  0
   16.4375   15.7292   13.5935 C   0  0  0  0  0  0  0  0  0  0  0  0
   17.2828   16.1542   13.6869 H   0  0  0  0  0  0  0  0  0  0  0  0
   15.6442   15.5212   14.7158 C   0  0  0  0  0  0  0  0  0  0  0  0
   15.9427   15.8072   15.5705 H   0  0  0  0  0  0  0  0  0  0  0  0
   14.4102   14.8901   14.5830 C   0  0  0  0  0  0  0  0  0  0  0  0
   13.8636   14.7442   15.3460 H   0  0  0  0  0  0  0  0  0  0  0  0
   11.9535   12.8562   14.6499 C   0  0  0  0  0  0  0  0  0  0  0  0
   12.3361   11.5286   14.8460 C   0  0  0  0  0  0  0  0  0  0  0  0
   12.8256   11.0747   14.1705 H   0  0  0  0  0  0  0  0  0  0  0  0
   12.0051   10.8630   16.0251 C   0  0  0  0  0  0  0  0  0  0  0  0
   12.2832    9.9653   16.1607 H   0  0  0  0  0  0  0  0  0  0  0  0
   11.2713   11.5162   16.9973 C   0  0  0  0  0  0  0  0  0  0  0  0
   11.0052   11.0517   17.7820 H   0  0  0  0  0  0  0  0  0  0  0  0
   10.9239   12.8351   16.8292 C   0  0  0  0  0  0  0  0  0  0  0  0
   10.4490   13.2883   17.5165 H   0  0  0  0  0  0  0  0  0  0  0  0
   11.2606   13.5154   15.6614 C   0  0  0  0  0  0  0  0  0  0  0  0
   11.0181   14.4284   15.5558 H   0  0  0  0  0  0  0  0  0  0  0  0
   11.1854   15.0658   12.9415 C   0  0  0  0  0  0  0  0  0  0  0  0
   11.5896   16.4035   12.9966 C   0  0  0  0  0  0  0  0  0  0  0  0
   12.4963   16.6189   13.1820 H   0  0  0  0  0  0  0  0  0  0  0  0
   10.6674   17.4193   12.7818 C   0  0  0  0  0  0  0  0  0  0  0  0
   10.9432   18.3269   12.8345 H   0  0  0  0  0  0  0  0  0  0  0  0
    9.3536   17.1167   12.4914 C   0  0  0  0  0  0  0  0  0  0  0  0
    8.7343   17.8145   12.3099 H   0  0  0  0  0  0  0  0  0  0  0  0
    8.9345   15.7905   12.4645 C   0  0  0  0  0  0  0  0  0  0  0  0
    8.0253   15.5831   12.2853 H   0  0  0  0  0  0  0  0  0  0  0  0
    9.8444   14.7719   12.6997 C   0  0  0  0  0  0  0  0  0  0  0  0
    9.5528   13.8672   12.6968 H   0  0  0  0  0  0  0  0  0  0  0  0
  1  2  1  0  0  0  0
  2  3  1  0  0  0  0
  4  1  1  0  0  0  0
  5  1  1  0  0  0  0
  6  5  1  0  0  0  0
  7  1  1  0  0  0  0
  8  7  1  0  0  0  0
  9  1  1  0  0  0  0
 10  9  1  0  0  0  0
 11  4  1  0  0  0  0
 12 11  1  0  0  0  0
 13  5  1  0  0  0  0
 14 13  1  0  0  0  0
 15  7  1  0  0  0  0
 16 15  1  0  0  0  0
 17  4  1  0  0  0  0
 18 17  1  0  0  0  0
 19 11  1  0  0  0  0
 20 19  1  0  0  0  0
 21  4  1  0  0  0  0
 22 21  3  0  0  0  0
 23  4  1  0  0  0  0
 24 23  3  0  0  0  0
 25  4  1  0  0  0  0
 26 25  3  0  0  0  0
 27 26  1  0  0  0  0
 28 27  1  0  0  0  0
 29 28  3  0  0  0  0
 30 27  1  0  0  0  0
 31 30  1  0  0  0  0
 32 31  4  0  0  0  0
 33 32  1  0  0  0  0
 34 32  4  0  0  0  0
 35 34  1  0  0  0  0
 36 34  4  0  0  0  0
 37 36  1  0  0  0  0
 38 36  4  0  0  0  0
 39 38  1  0  0  0  0
 40 31  4  0  0  0  0
 41 40  1  0  0  0  0
 42 30  1  0  0  0  0
 43 42  4  0  0  0  0
 44 43  1  0  0  0  0
 45 43  4  0  0  0  0
 46 45  1  0  0  0  0
 47 45  4  0  0  0  0
 48 47  1  0  0  0  0
 49 47  4  0  0  0  0
 50 49  1  0  0  0  0
 51 42  4  0  0  0  0
 52 51  1  0  0  0  0
 53 30  1  0  0  0  0
 54 53  4  0  0  0  0
 55 54  1  0  0  0  0
 56 54  4  0  0  0  0
 57 56  1  0  0  0  0
 58 56  4  0  0  0  0
 59 58  1  0  0  0  0
 60 58  4  0  0  0  0
 61 60  1  0  0  0  0
 62 53  4  0  0  0  0
 63 62  1  0  0  0  0
 64 27  1  0  0  0  0
 65 64  1  0  0  0  0
 66 65  4  0  0  0  0
 67 66  1  0  0  0  0
 68 66  4  0  0  0  0
 69 68  1  0  0  0  0
 70 68  4  0  0  0  0
 71 70  1  0  0  0  0
 72 70  4  0  0  0  0
 73 72  1  0  0  0  0
 74 65  4  0  0  0  0
 75 74  1  0  0  0  0
 76 64  1  0  0  0  0
 77 76  4  0  0  0  0
 78 77  1  0  0  0  0
 79 77  4  0  0  0  0
 80 79  1  0  0  0  0
 81 79  4  0  0  0  0
 82 81  1  0  0  0  0
 83 81  4  0  0  0  0
 84 83  1  0  0  0  0
 85 76  4  0  0  0  0
 86 85  1  0  0  0  0
 87 64  1  0  0  0  0
 88 87  4  0  0  0  0
 89 88  1  0  0  0  0
 90 88  4  0  0  0  0
 91 90  1  0  0  0  0
 92 90  4  0  0  0  0
 93 92  1  0  0  0  0
 94 92  4  0  0  0  0
 95 94  1  0  0  0  0
 96 87  4  0  0  0  0
 97 96  1  0  0  0  0
  4  5  1  0  0  0  0
  4  9  1  0  0  0  0
  5  7  1  0  0  0  0
  5 11  1  0  0  0  0
  7  9  1  0  0  0  0
  7 13  1  0  0  0  0
  9 15  1  0  0  0  0
  9 17  1  0  0  0  0
 11 13  1  0  0  0  0
 11 17  1  0  0  0  0
 13 15  1  0  0  0  0
 13 19  1  0  0  0  0
 15 17  1  0  0  0  0
 15 19  1  0  0  0  0
 17 19  1  0  0  0  0
 38 40  4  0  0  0  0
 49 51  4  0  0  0  0
 60 62  4  0  0  0  0
 72 74  4  0  0  0  0
 83 85  4  0  0  0  0
 94 96  4  0  0  0  0
M  END
$$$$
IKIKUJ

From CSD data. Using bond type 'Any'. No disordered atoms. Largest molecule.
102122  0  0  0  0  0  0  0  0999 V2000
    5.6123    5.8488    2.1786 C   0  0  0  0  0  0  0  0  0  0  0  0
    6.3599    6.9342    1.7257 O   0  0  0  0  0  0  0  0  0  0  0  0
    6.4143    6.9079    0.8893 H   0  0  0  0  0  0  0  0  0  0  0  0
    5.5102    5.4947    4.0933 Fe  0  0  0  0  0  0  0  0  0  0  0  0
    4.0912    5.8083    2.4817 B   0  0  0  0  0  0  0  0  0  0  0  0
    3.4772    6.7435    2.4342 H   0  0  0  0  0  0  0  0  0  0  0  0
    4.9422    4.8611    1.1432 B   0  0  0  0  0  0  0  0  0  0  0  0
    5.0298    5.0264    0.0383 H   0  0  0  0  0  0  0  0  0  0  0  0
    6.1877    4.3271    2.4032 B   0  0  0  0  0  0  0  0  0  0  0  0
    7.2713    4.0708    2.2808 H   0  0  0  0  0  0  0  0  0  0  0  0
    3.6000    4.5311    3.6103 B   0  0  0  0  0  0  0  0  0  0  0  0
    2.7847    4.7208    4.3553 H   0  0  0  0  0  0  0  0  0  0  0  0
    3.4425    4.2562    1.8572 B   0  0  0  0  0  0  0  0  0  0  0  0
    2.5103    4.2270    1.2363 H   0  0  0  0  0  0  0  0  0  0  0  0
    4.9189    3.2125    1.7987 B   0  0  0  0  0  0  0  0  0  0  0  0
    5.1718    2.3538    1.1249 H   0  0  0  0  0  0  0  0  0  0  0  0
    5.2174    3.3786    3.6121 B   0  0  0  0  0  0  0  0  0  0  0  0
    5.6852    2.6690    4.3425 H   0  0  0  0  0  0  0  0  0  0  0  0
    3.8140    3.1146    2.9200 C   0  0  0  0  0  0  0  0  0  0  0  0
    3.2349    2.2461    3.1574 H   0  0  0  0  0  0  0  0  0  0  0  0
    5.0851    4.9939    5.7158 C   0  0  0  0  0  0  0  0  0  0  0  0
    4.7863    4.7039    6.7968 O   0  0  0  0  0  0  0  0  0  0  0  0
    7.2304    5.6193    4.4357 C   0  0  0  0  0  0  0  0  0  0  0  0
    8.3704    5.6675    4.6475 O   0  0  0  0  0  0  0  0  0  0  0  0
    5.2084    7.2967    4.6128 C   0  0  0  0  0  0  0  0  0  0  0  0
    5.0676    8.3565    5.0018 N   0  0  0  0  0  0  0  0  0  0  0  0
    5.0448   10.3434    5.5045 Ir  0  0  0  0  0  0  0  0  0  0  0  0
    4.4072   10.1245    8.2220 I   0  0  0  0  0  0  0  0  0  0  0  0
    5.1222   12.2078    5.7523 C   0  0  0  0  0  0  0  0  0  0  0  0
    5.2183   13.3272    5.8144 O   0  0  0  0  0  0  0  0  0  0  0  0
    5.5416   10.8408    3.4130 C   0  0  0  0  0  0  0  0  0  0  0  0
    4.8441   11.4204    3.0405 H   0  0  0  0  0  0  0  0  0  0  0  0
    5.5969   10.0167    2.8853 H   0  0  0  0  0  0  0  0  0  0  0  0
    6.4034   11.3071    3.3838 H   0  0  0  0  0  0  0  0  0  0  0  0
    7.3407   10.0565    6.0558 P   0  0  0  0  0  0  0  0  0  0  0  0
    7.8098    8.5003    6.8626 C   0  0  0  0  0  0  0  0  0  0  0  0
    9.1850    8.1932    6.9174 C   0  0  0  0  0  0  0  0  0  0  0  0
    9.8029    8.7605    6.4718 H   0  0  0  0  0  0  0  0  0  0  0  0
    9.6519    7.1010    7.5930 C   0  0  0  0  0  0  0  0  0  0  0  0
   10.5846    6.9243    7.6350 H   0  0  0  0  0  0  0  0  0  0  0  0
    8.7447    6.2513    8.2231 C   0  0  0  0  0  0  0  0  0  0  0  0
    9.0532    5.4787    8.6814 H   0  0  0  0  0  0  0  0  0  0  0  0
    7.3790    6.5382    8.1737 C   0  0  0  0  0  0  0  0  0  0  0  0
    6.7580    5.9743    8.6193 H   0  0  0  0  0  0  0  0  0  0  0  0
    6.9460    7.6212    7.4926 C   0  0  0  0  0  0  0  0  0  0  0  0
    6.0121    7.7858    7.4433 H   0  0  0  0  0  0  0  0  0  0  0  0
    8.4892   10.1059    4.6384 C   0  0  0  0  0  0  0  0  0  0  0  0
    8.2750    9.1900    3.6048 C   0  0  0  0  0  0  0  0  0  0  0  0
    7.5298    8.6041    3.6541 H   0  0  0  0  0  0  0  0  0  0  0  0
    9.1126    9.1142    2.5237 C   0  0  0  0  0  0  0  0  0  0  0  0
    8.9568    8.4719    1.8407 H   0  0  0  0  0  0  0  0  0  0  0  0
   10.1980    9.9904    2.4342 C   0  0  0  0  0  0  0  0  0  0  0  0
   10.7953    9.9406    1.6965 H   0  0  0  0  0  0  0  0  0  0  0  0
   10.3916   10.9115    3.4057 C   0  0  0  0  0  0  0  0  0  0  0  0
   11.1140   11.5239    3.3254 H   0  0  0  0  0  0  0  0  0  0  0  0
    9.5701   10.9848    4.5087 C   0  0  0  0  0  0  0  0  0  0  0  0
    9.7382   11.6328    5.1826 H   0  0  0  0  0  0  0  0  0  0  0  0
    7.9316   11.3205    7.2351 C   0  0  0  0  0  0  0  0  0  0  0  0
    8.0369   12.6687    6.8845 C   0  0  0  0  0  0  0  0  0  0  0  0
    7.8343   12.9197    5.9915 H   0  0  0  0  0  0  0  0  0  0  0  0
    8.4214   13.6565    7.7720 C   0  0  0  0  0  0  0  0  0  0  0  0
    8.4908   14.5661    7.5036 H   0  0  0  0  0  0  0  0  0  0  0  0
    8.7004   13.2635    9.0667 C   0  0  0  0  0  0  0  0  0  0  0  0
    8.9748   13.9142    9.7004 H   0  0  0  0  0  0  0  0  0  0  0  0
    8.5881   11.9505    9.4593 C   0  0  0  0  0  0  0  0  0  0  0  0
    8.7774   11.7138   10.3596 H   0  0  0  0  0  0  0  0  0  0  0  0
    8.2007   10.9648    8.5572 C   0  0  0  0  0  0  0  0  0  0  0  0
    8.1198   10.0606    8.8385 H   0  0  0  0  0  0  0  0  0  0  0  0
    2.6955   10.3454    5.0675 P   0  0  0  0  0  0  0  0  0  0  0  0
    1.7236   11.5813    5.9787 C   0  0  0  0  0  0  0  0  0  0  0  0
    2.0628   12.9112    5.9477 C   0  0  0  0  0  0  0  0  0  0  0  0
    2.8047   13.1899    5.4236 H   0  0  0  0  0  0  0  0  0  0  0  0
    1.3432   13.8651    6.6727 C   0  0  0  0  0  0  0  0  0  0  0  0
    1.6012   14.7782    6.6508 H   0  0  0  0  0  0  0  0  0  0  0  0
    0.2393   13.4609    7.4250 C   0  0  0  0  0  0  0  0  0  0  0  0
   -0.2495   14.0923    7.9382 H   0  0  0  0  0  0  0  0  0  0  0  0
   -0.1280   12.1495    7.4159 C   0  0  0  0  0  0  0  0  0  0  0  0
   -0.9115   11.8799    7.8797 H   0  0  0  0  0  0  0  0  0  0  0  0
    0.6190   11.2050    6.7384 C   0  0  0  0  0  0  0  0  0  0  0  0
    0.3765   10.2874    6.7932 H   0  0  0  0  0  0  0  0  0  0  0  0
    1.8654    8.7400    5.3761 C   0  0  0  0  0  0  0  0  0  0  0  0
    0.7059    8.4404    4.6311 C   0  0  0  0  0  0  0  0  0  0  0  0
    0.3829    9.0600    3.9864 H   0  0  0  0  0  0  0  0  0  0  0  0
    0.0320    7.2326    4.8374 C   0  0  0  0  0  0  0  0  0  0  0  0
   -0.7566    7.0375    4.3444 H   0  0  0  0  0  0  0  0  0  0  0  0
    0.5083    6.3319    5.7505 C   0  0  0  0  0  0  0  0  0  0  0  0
    0.0644    5.4996    5.8619 H   0  0  0  0  0  0  0  0  0  0  0  0
    1.6188    6.6098    6.5083 C   0  0  0  0  0  0  0  0  0  0  0  0
    1.9216    5.9901    7.1621 H   0  0  0  0  0  0  0  0  0  0  0  0
    2.3100    7.8278    6.3111 C   0  0  0  0  0  0  0  0  0  0  0  0
    3.0862    8.0187    6.8242 H   0  0  0  0  0  0  0  0  0  0  0  0
    2.3262   10.6487    3.3126 C   0  0  0  0  0  0  0  0  0  0  0  0
    1.7990   11.8306    2.8049 C   0  0  0  0  0  0  0  0  0  0  0  0
    1.5618   12.5338    3.3984 H   0  0  0  0  0  0  0  0  0  0  0  0
    1.6118   11.9925    1.4262 C   0  0  0  0  0  0  0  0  0  0  0  0
    1.2713   12.8097    1.0811 H   0  0  0  0  0  0  0  0  0  0  0  0
    1.9226   10.9655    0.5825 C   0  0  0  0  0  0  0  0  0  0  0  0
    1.7763   11.0606   -0.3506 H   0  0  0  0  0  0  0  0  0  0  0  0
    2.4380    9.8123    1.0683 C   0  0  0  0  0  0  0  0  0  0  0  0
    2.6512    9.1073    0.4675 H   0  0  0  0  0  0  0  0  0  0  0  0
    2.6592    9.6379    2.4141 C   0  0  0  0  0  0  0  0  0  0  0  0
    3.0398    8.8275    2.7319 H   0  0  0  0  0  0  0  0  0  0  0  0
  1  2  1  0  0  0  0
  2  3  1  0  0  0  0
  4  1  1  0  0  0  0
  5  1  1  0  0  0  0
  6  5  1  0  0  0  0
  7  1  1  0  0  0  0
  8  7  1  0  0  0  0
  9  1  1  0  0  0  0
 10  9  1  0  0  0  0
 11  4  1  0  0  0  0
 12 11  1  0  0  0  0
 13  5  1  0  0  0  0
 14 13  1  0  0  0  0
 15  7  1  0  0  0  0
 16 15  1  0  0  0  0
 17  4  1  0  0  0  0
 18 17  1  0  0  0  0
 19 11  1  0  0  0  0
 20 19  1  0  0  0  0
 21  4  1  0  0  0  0
 22 21  3  0  0  0  0
 23  4  1  0  0  0  0
 24 23  3  0  0  0  0
 25  4  1  0  0  0  0
 26 25  3  0  0  0  0
 27 26  1  0  0  0  0
 28 27  1  0  0  0  0
 29 27  1  0  0  0  0
 30 29  3  0  0  0  0
 31 27  1  0  0  0  0
 32 31  1  0  0  0  0
 33 31  1  0  0  0  0
 34 31  1  0  0  0  0
 35 27  1  0  0  0  0
 36 35  1  0  0  0  0
 37 36  4  0  0  0  0
 38 37  1  0  0  0  0
 39 37  4  0  0  0  0
 40 39  1  0  0  0  0
 41 39  4  0  0  0  0
 42 41  1  0  0  0  0
 43 41  4  0  0  0  0
 44 43  1  0  0  0  0
 45 36  4  0  0  0  0
 46 45  1  0  0  0  0
 47 35  1  0  0  0  0
 48 47  4  0  0  0  0
 49 48  1  0  0  0  0
 50 48  4  0  0  0  0
 51 50  1  0  0  0  0
 52 50  4  0  0  0  0
 53 52  1  0  0  0  0
 54 52  4  0  0  0  0
 55 54  1  0  0  0  0
 56 47  4  0  0  0  0
 57 56  1  0  0  0  0
 58 35  1  0  0  0  0
 59 58  4  0  0  0  0
 60 59  1  0  0  0  0
 61 59  4  0  0  0  0
 62 61  1  0  0  0  0
 63 61  4  0  0  0  0
 64 63  1  0  0  0  0
 65 63  4  0  0  0  0
 66 65  1  0  0  0  0
 67 58  4  0  0  0  0
 68 67  1  0  0  0  0
 69 27  1  0  0  0  0
 70 69  1  0  0  0  0
 71 70  4  0  0  0  0
 72 71  1  0  0  0  0
 73 71  4  0  0  0  0
 74 73  1  0  0  0  0
 75 73  4  0  0  0  0
 76 75  1  0  0  0  0
 77 75  4  0  0  0  0
 78 77  1  0  0  0  0
 79 70  4  0  0  0  0
 80 79  1  0  0  0  0
 81 69  1  0  0  0  0
 82 81  4  0  0  0  0
 83 82  1  0  0  0  0
 84 82  4  0  0  0  0
 85 84  1  0  0  0  0
 86 84  4  0  0  0  0
 87 86  1  0  0  0  0
 88 86  4  0  0  0  0
 89 88  1  0  0  0  0
 90 81  4  0  0  0  0
 91 90  1  0  0  0  0
 92 69  1  0  0  0  0
 93 92  4  0  0  0  0
 94 93  1  0  0  0  0
 95 93  4  0  0  0  0
 96 95  1  0  0  0  0
 97 95  4  0  0  0  0
 98 97  1  0  0  0  0
 99 97  4  0  0  0  0
100 99  1  0  0  0  0
101 92  4  0  0  0  0
102101  1  0  0  0  0
  4  5  1  0  0  0  0
  4  9  1  0  0  0  0
  5  7  1  0  0  0  0
  5 11  1  0  0  0  0
  7  9  1  0  0  0  0
  7 13  1  0  0  0  0
  9 15  1  0  0  0  0
  9 17  1  0  0  0  0
 11 13  1  0  0  0  0
 11 17  1  0  0  0  0
 13 15  1  0  0  0  0
 13 19  1  0  0  0  0
 15 17  1  0  0  0  0
 15 19  1  0  0  0  0
 17 19  1  0  0  0  0
 43 45  4  0  0  0  0
 54 56  4  0  0  0  0
 65 67  4  0  0  0  0
 77 79  4  0  0  0  0
 88 90  4  0  0  0  0
 99101  4  0  0  0  0
M  END
$$$$
IKOXIQ

From CSD data. Using bond type 'Any'. No disordered atoms. Largest molecule.
 65 79  0  0  0  0  0  0  0  0999 V2000
   11.4230   10.2960    2.2115 P   0  0  0  0  0  0  0  0  0  0  0  0
   11.6091   10.2330    6.2475 C   0  0  0  0  0  0  0  0  0  0  0  0
   12.6748   10.1191    6.5744 H   0  0  0  0  0  0  0  0  0  0  0  0
    8.3801    8.2357    2.9570 P   0  0  0  0  0  0  0  0  0  0  0  0
   10.8627    9.1809    5.3177 B   0  0  0  0  0  0  0  0  0  0  0  0
   11.3679    8.2405    4.9822 H   0  0  0  0  0  0  0  0  0  0  0  0
   11.1521   11.0741    4.9611 B   0  0  0  0  0  0  0  0  0  0  0  0
   11.8877   11.6492    4.3418 H   0  0  0  0  0  0  0  0  0  0  0  0
   10.5891   11.4141    6.6528 B   0  0  0  0  0  0  0  0  0  0  0  0
   10.8752   12.2369    7.3570 H   0  0  0  0  0  0  0  0  0  0  0  0
   10.3097    9.6531    6.9900 B   0  0  0  0  0  0  0  0  0  0  0  0
   10.3718    9.0906    7.9563 H   0  0  0  0  0  0  0  0  0  0  0  0
    9.6033   10.0506    3.7126 Fe  0  0  0  0  0  0  0  0  0  0  0  0
    7.8153   11.7277    2.1091 O   0  0  0  0  0  0  0  0  0  0  0  0
    8.5416   11.0684    2.7175 C   0  0  0  0  0  0  0  0  0  0  0  0
    9.5269   11.7279    5.2144 B   0  0  0  0  0  0  0  0  0  0  0  0
    9.3269   12.7869    4.9094 H   0  0  0  0  0  0  0  0  0  0  0  0
    8.9323   10.7530    6.6591 B   0  0  0  0  0  0  0  0  0  0  0  0
    8.2320   11.0321    7.4883 H   0  0  0  0  0  0  0  0  0  0  0  0
    9.1241    9.1840    5.7122 B   0  0  0  0  0  0  0  0  0  0  0  0
    8.5965    8.2006    5.8138 H   0  0  0  0  0  0  0  0  0  0  0  0
    8.2184   10.5557    5.1205 B   0  0  0  0  0  0  0  0  0  0  0  0
    7.1386   10.6711    4.8446 H   0  0  0  0  0  0  0  0  0  0  0  0
   12.9805    9.4380    2.7186 C   0  0  0  0  0  0  0  0  0  0  0  0
   13.1276    9.6132    3.6825 H   0  0  0  0  0  0  0  0  0  0  0  0
   12.8401    8.4630    2.6152 H   0  0  0  0  0  0  0  0  0  0  0  0
   14.2607    9.8147    1.9684 C   0  0  0  0  0  0  0  0  0  0  0  0
   14.1363    9.6531    1.0103 H   0  0  0  0  0  0  0  0  0  0  0  0
   15.0045    9.2690    2.2990 H   0  0  0  0  0  0  0  0  0  0  0  0
   14.4594   10.7624    2.1171 H   0  0  0  0  0  0  0  0  0  0  0  0
   11.9920   12.0245    1.8725 C   0  0  0  0  0  0  0  0  0  0  0  0
   12.7030   12.2485    2.5251 H   0  0  0  0  0  0  0  0  0  0  0  0
   12.4018   12.0428    0.9724 H   0  0  0  0  0  0  0  0  0  0  0  0
   10.9306   13.1166    1.9336 C   0  0  0  0  0  0  0  0  0  0  0  0
   10.2104   12.9076    1.3029 H   0  0  0  0  0  0  0  0  0  0  0  0
   11.3332   13.9780    1.6950 H   0  0  0  0  0  0  0  0  0  0  0  0
   10.5651   13.1668    2.8413 H   0  0  0  0  0  0  0  0  0  0  0  0
   11.2282    9.6552    0.4958 C   0  0  0  0  0  0  0  0  0  0  0  0
   12.1187    9.6426    0.0617 H   0  0  0  0  0  0  0  0  0  0  0  0
   10.9057    8.7212    0.5439 H   0  0  0  0  0  0  0  0  0  0  0  0
   10.2700   10.4549   -0.3869 C   0  0  0  0  0  0  0  0  0  0  0  0
    9.4111   10.5578    0.0727 H   0  0  0  0  0  0  0  0  0  0  0  0
   10.1322    9.9806   -1.2333 H   0  0  0  0  0  0  0  0  0  0  0  0
   10.6523   11.3396   -0.5676 H   0  0  0  0  0  0  0  0  0  0  0  0
    9.1200    6.6124    3.3923 C   0  0  0  0  0  0  0  0  0  0  0  0
    9.2609    6.5813    4.3718 H   0  0  0  0  0  0  0  0  0  0  0  0
    8.4741    5.8981    3.1607 H   0  0  0  0  0  0  0  0  0  0  0  0
   10.4448    6.3147    2.7012 C   0  0  0  0  0  0  0  0  0  0  0  0
   10.2994    6.2392    1.7345 H   0  0  0  0  0  0  0  0  0  0  0  0
   10.8105    5.4720    3.0437 H   0  0  0  0  0  0  0  0  0  0  0  0
   11.0774    7.0420    2.8808 H   0  0  0  0  0  0  0  0  0  0  0  0
    8.0900    8.1209    1.1435 C   0  0  0  0  0  0  0  0  0  0  0  0
    7.5870    8.9248    0.8586 H   0  0  0  0  0  0  0  0  0  0  0  0
    8.9685    8.1440    0.6878 H   0  0  0  0  0  0  0  0  0  0  0  0
    7.3301    6.8835    0.6573 C   0  0  0  0  0  0  0  0  0  0  0  0
    7.8376    6.0765    0.8870 H   0  0  0  0  0  0  0  0  0  0  0  0
    7.2163    6.9308   -0.3146 H   0  0  0  0  0  0  0  0  0  0  0  0
    6.4506    6.8500    1.0878 H   0  0  0  0  0  0  0  0  0  0  0  0
    6.6772    8.0820    3.6246 C   0  0  0  0  0  0  0  0  0  0  0  0
    6.3676    7.1533    3.4801 H   0  0  0  0  0  0  0  0  0  0  0  0
    6.7094    8.2363    4.6027 H   0  0  0  0  0  0  0  0  0  0  0  0
    5.6479    9.0318    3.0209 C   0  0  0  0  0  0  0  0  0  0  0  0
    5.9642    9.9554    3.1085 H   0  0  0  0  0  0  0  0  0  0  0  0
    4.7958    8.9332    3.4943 H   0  0  0  0  0  0  0  0  0  0  0  0
    5.5226    8.8177    2.0729 H   0  0  0  0  0  0  0  0  0  0  0  0
  1 13  1  0  0  0  0
  2  3  1  0  0  0  0
  4 13  1  0  0  0  0
  5  2  1  0  0  0  0
  6  5  1  0  0  0  0
  7  2  1  0  0  0  0
  8  7  1  0  0  0  0
  9  2  1  0  0  0  0
 10  9  1  0  0  0  0
 11  2  1  0  0  0  0
 12 11  1  0  0  0  0
 13  5  1  0  0  0  0
 14 15  3  0  0  0  0
 15 13  1  0  0  0  0
 16  7  1  0  0  0  0
 17 16  1  0  0  0  0
 18  9  1  0  0  0  0
 19 18  1  0  0  0  0
 20  5  1  0  0  0  0
 21 20  1  0  0  0  0
 22 13  1  0  0  0  0
 23 22  1  0  0  0  0
 24  1  1  0  0  0  0
 25 24  1  0  0  0  0
 26 24  1  0  0  0  0
 27 24  1  0  0  0  0
 28 27  1  0  0  0  0
 29 27  1  0  0  0  0
 30 27  1  0  0  0  0
 31  1  1  0  0  0  0
 32 31  1  0  0  0  0
 33 31  1  0  0  0  0
 34 31  1  0  0  0  0
 35 34  1  0  0  0  0
 36 34  1  0  0  0  0
 37 34  1  0  0  0  0
 38  1  1  0  0  0  0
 39 38  1  0  0  0  0
 40 38  1  0  0  0  0
 41 38  1  0  0  0  0
 42 41  1  0  0  0  0
 43 41  1  0  0  0  0
 44 41  1  0  0  0  0
 45  4  1  0  0  0  0
 46 45  1  0  0  0  0
 47 45  1  0  0  0  0
 48 45  1  0  0  0  0
 49 48  1  0  0  0  0
 50 48  1  0  0  0  0
 51 48  1  0  0  0  0
 52  4  1  0  0  0  0
 53 52  1  0  0  0  0
 54 52  1  0  0  0  0
 55 52  1  0  0  0  0
 56 55  1  0  0  0  0
 57 55  1  0  0  0  0
 58 55  1  0  0  0  0
 59  4  1  0  0  0  0
 60 59  1  0  0  0  0
 61 59  1  0  0  0  0
 62 59  1  0  0  0  0
 63 62  1  0  0  0  0
 64 62  1  0  0  0  0
 65 62  1  0  0  0  0
  5  7  1  0  0  0  0
  5 11  1  0  0  0  0
  7  9  1  0  0  0  0
  7 13  1  0  0  0  0
  9 11  1  0  0  0  0
  9 16  1  0  0  0  0
 11 18  1  0  0  0  0
 11 20  1  0  0  0  0
 13 16  1  0  0  0  0
 13 20  1  0  0  0  0
 16 18  1  0  0  0  0
 16 22  1  0  0  0  0
 18 20  1  0  0  0  0
 18 22  1  0  0  0  0
 20 22  1  0  0  0  0
M  END
$$$$
IPABUZ

From CSD data. Using bond type 'Any'. No disordered atoms. Largest molecule.
 75 97  0  0  0  0  0  0  0  0999 V2000
    7.9674    4.8827    7.3532 Mn  0  0  0  0  0  0  0  0  0  0  0  0
    6.8441    6.9188    8.1542 Br  0  0  0  0  0  0  0  0  0  0  0  0
    6.5060    2.9083    7.3717 Br  0  0  0  0  0  0  0  0  0  0  0  0
   10.1001    3.5612   10.8217 C   0  0  0  0  0  0  0  0  0  0  0  0
    9.6965    3.3871   13.4307 C   0  0  0  0  0  0  0  0  0  0  0  0
    9.4799    4.4684   12.1268 B   0  0  0  0  0  0  0  0  0  0  0  0
    9.6161    5.5392   12.2330 H   0  0  0  0  0  0  0  0  0  0  0  0
   10.9637    3.4619   12.2900 B   0  0  0  0  0  0  0  0  0  0  0  0
   11.8790    4.0206   12.4772 H   0  0  0  0  0  0  0  0  0  0  0  0
    8.3853    3.6608   11.0078 B   0  0  0  0  0  0  0  0  0  0  0  0
    7.8205    4.2799   10.3086 H   0  0  0  0  0  0  0  0  0  0  0  0
    8.1133    3.5463   12.7561 B   0  0  0  0  0  0  0  0  0  0  0  0
    7.3431    4.0669   13.3225 H   0  0  0  0  0  0  0  0  0  0  0  0
    8.7340    1.9588   13.2981 B   0  0  0  0  0  0  0  0  0  0  0  0
    8.3347    1.5205   14.2159 H   0  0  0  0  0  0  0  0  0  0  0  0
   10.4932    1.9062   13.0078 B   0  0  0  0  0  0  0  0  0  0  0  0
   11.1755    1.4279   13.7170 H   0  0  0  0  0  0  0  0  0  0  0  0
   10.7544    2.0283   11.2694 B   0  0  0  0  0  0  0  0  0  0  0  0
   11.6193    1.6390   10.7386 H   0  0  0  0  0  0  0  0  0  0  0  0
    9.1672    2.1483   10.4689 B   0  0  0  0  0  0  0  0  0  0  0  0
    9.0935    1.8538    9.4174 H   0  0  0  0  0  0  0  0  0  0  0  0
    7.9123    2.1031   11.7258 B   0  0  0  0  0  0  0  0  0  0  0  0
    6.9227    1.6853   11.5505 H   0  0  0  0  0  0  0  0  0  0  0  0
    9.3817    1.0975   11.8859 B   0  0  0  0  0  0  0  0  0  0  0  0
    9.3531    0.0074   11.7843 H   0  0  0  0  0  0  0  0  0  0  0  0
   10.7964    4.4699    9.3681 P   0  0  0  0  0  0  0  0  0  0  0  0
    9.9167    4.1008   15.1152 P   0  0  0  0  0  0  0  0  0  0  0  0
    9.7574    4.4905    8.2897 O   0  0  0  0  0  0  0  0  0  0  0  0
    8.6441    3.8941   15.8829 O   0  0  0  0  0  0  0  0  0  0  0  0
   12.2694    3.6076    8.8246 C   0  0  0  0  0  0  0  0  0  0  0  0
   12.2674    3.1293    7.5143 C   0  0  0  0  0  0  0  0  0  0  0  0
   11.5055    3.2571    6.9614 H   0  0  0  0  0  0  0  0  0  0  0  0
   13.3858    2.4642    7.0196 C   0  0  0  0  0  0  0  0  0  0  0  0
   13.3931    2.1557    6.1212 H   0  0  0  0  0  0  0  0  0  0  0  0
   14.4802    2.2516    7.8251 C   0  0  0  0  0  0  0  0  0  0  0  0
   15.2378    1.7922    7.4823 H   0  0  0  0  0  0  0  0  0  0  0  0
   14.4819    2.7042    9.1331 C   0  0  0  0  0  0  0  0  0  0  0  0
   15.2369    2.5477    9.6880 H   0  0  0  0  0  0  0  0  0  0  0  0
   13.3854    3.3848    9.6347 C   0  0  0  0  0  0  0  0  0  0  0  0
   13.3921    3.7005   10.5306 H   0  0  0  0  0  0  0  0  0  0  0  0
   11.1708    6.1235    9.9417 C   0  0  0  0  0  0  0  0  0  0  0  0
   12.4278    6.5275   10.3844 C   0  0  0  0  0  0  0  0  0  0  0  0
   13.1582    5.9200   10.3692 H   0  0  0  0  0  0  0  0  0  0  0  0
   12.6069    7.8249   10.8486 C   0  0  0  0  0  0  0  0  0  0  0  0
   13.4637    8.1057   11.1477 H   0  0  0  0  0  0  0  0  0  0  0  0
   11.5466    8.7076   10.8770 C   0  0  0  0  0  0  0  0  0  0  0  0
   11.6727    9.5894   11.2075 H   0  0  0  0  0  0  0  0  0  0  0  0
   10.3031    8.3122   10.4263 C   0  0  0  0  0  0  0  0  0  0  0  0
    9.5779    8.9257   10.4398 H   0  0  0  0  0  0  0  0  0  0  0  0
   10.1093    7.0290    9.9561 C   0  0  0  0  0  0  0  0  0  0  0  0
    9.2532    6.7622    9.6423 H   0  0  0  0  0  0  0  0  0  0  0  0
   10.2373    5.8539   14.9134 C   0  0  0  0  0  0  0  0  0  0  0  0
    9.2065    6.7023   15.3045 C   0  0  0  0  0  0  0  0  0  0  0  0
    8.3942    6.3431   15.6416 H   0  0  0  0  0  0  0  0  0  0  0  0
    9.3722    8.0820   15.1987 C   0  0  0  0  0  0  0  0  0  0  0  0
    8.6727    8.6664   15.4667 H   0  0  0  0  0  0  0  0  0  0  0  0
   10.5482    8.5974   14.7065 C   0  0  0  0  0  0  0  0  0  0  0  0
   10.6591    9.5390   14.6459 H   0  0  0  0  0  0  0  0  0  0  0  0
   11.5639    7.7675   14.3018 C   0  0  0  0  0  0  0  0  0  0  0  0
   12.3693    8.1357   13.9577 H   0  0  0  0  0  0  0  0  0  0  0  0
   11.4150    6.3911   14.3947 C   0  0  0  0  0  0  0  0  0  0  0  0
   12.1137    5.8160   14.1058 H   0  0  0  0  0  0  0  0  0  0  0  0
   11.2673    3.2037   15.8831 C   0  0  0  0  0  0  0  0  0  0  0  0
   10.9024    2.1988   16.7745 C   0  0  0  0  0  0  0  0  0  0  0  0
    9.9849    2.0392   16.9617 H   0  0  0  0  0  0  0  0  0  0  0  0
   11.8805    1.4308   17.3894 C   0  0  0  0  0  0  0  0  0  0  0  0
   11.6329    0.7462   17.9997 H   0  0  0  0  0  0  0  0  0  0  0  0
   13.2184    1.6620   17.1133 C   0  0  0  0  0  0  0  0  0  0  0  0
   13.8861    1.1369   17.5389 H   0  0  0  0  0  0  0  0  0  0  0  0
   13.5864    2.6494   16.2244 C   0  0  0  0  0  0  0  0  0  0  0  0
   14.5054    2.8011   16.0369 H   0  0  0  0  0  0  0  0  0  0  0  0
   12.6156    3.4221   15.6032 C   0  0  0  0  0  0  0  0  0  0  0  0
   12.8694    4.0997   14.9876 H   0  0  0  0  0  0  0  0  0  0  0  0
    7.9674    4.3771   17.7891 Mn  0  0  0  0  0  0  0  0  0  0  0  0
    8.6441    5.3657    5.4469 O   0  0  0  0  0  0  0  0  0  0  0  0
  1  2  1  0  0  0  0
  3  1  1  0  0  0  0
  4  6  1  0  0  0  0
  5  6  1  0  0  0  0
  6  7  1  0  0  0  0
  8  4  1  0  0  0  0
  9  8  1  0  0  0  0
 10  4  1  0  0  0  0
 11 10  1  0  0  0  0
 12  5  1  0  0  0  0
 13 12  1  0  0  0  0
 14  5  1  0  0  0  0
 15 14  1  0  0  0  0
 16  5  1  0  0  0  0
 17 16  1  0  0  0  0
 18  4  1  0  0  0  0
 19 18  1  0  0  0  0
 20  4  1  0  0  0  0
 21 20  1  0  0  0  0
 22 10  1  0  0  0  0
 23 22  1  0  0  0  0
 24 14  1  0  0  0  0
 25 24  1  0  0  0  0
 26  4  1  0  0  0  0
 27  5  1  0  0  0  0
 28  1  1  0  0  0  0
 29 27  2  0  0  0  0
 30 26  1  0  0  0  0
 31 30  4  0  0  0  0
 32 31  1  0  0  0  0
 33 31  4  0  0  0  0
 34 33  1  0  0  0  0
 35 33  4  0  0  0  0
 36 35  1  0  0  0  0
 37 35  4  0  0  0  0
 38 37  1  0  0  0  0
 39 30  4  0  0  0  0
 40 39  1  0  0  0  0
 41 26  1  0  0  0  0
 42 41  4  0  0  0  0
 43 42  1  0  0  0  0
 44 42  4  0  0  0  0
 45 44  1  0  0  0  0
 46 44  4  0  0  0  0
 47 46  1  0  0  0  0
 48 46  4  0  0  0  0
 49 48  1  0  0  0  0
 50 41  4  0  0  0  0
 51 50  1  0  0  0  0
 52 27  1  0  0  0  0
 53 52  4  0  0  0  0
 54 53  1  0  0  0  0
 55 53  4  0  0  0  0
 56 55  1  0  0  0  0
 57 55  4  0  0  0  0
 58 57  1  0  0  0  0
 59 57  4  0  0  0  0
 60 59  1  0  0  0  0
 61 52  4  0  0  0  0
 62 61  1  0  0  0  0
 63 27  1  0  0  0  0
 64 63  4  0  0  0  0
 65 64  1  0  0  0  0
 66 64  4  0  0  0  0
 67 66  1  0  0  0  0
 68 66  4  0  0  0  0
 69 68  1  0  0  0  0
 70 68  4  0  0  0  0
 71 70  1  0  0  0  0
 72 63  4  0  0  0  0
 73 72  1  0  0  0  0
 74 29  8  0  0  0  0
 75  1  8  0  0  0  0
  5  8  1  0  0  0  0
  6  8  1  0  0  0  0
  6 10  1  0  0  0  0
  6 12  1  0  0  0  0
  8 16  1  0  0  0  0
  8 18  1  0  0  0  0
 10 12  1  0  0  0  0
 10 20  1  0  0  0  0
 12 14  1  0  0  0  0
 12 22  1  0  0  0  0
 14 16  1  0  0  0  0
 14 22  1  0  0  0  0
 16 18  1  0  0  0  0
 16 24  1  0  0  0  0
 18 20  1  0  0  0  0
 18 24  1  0  0  0  0
 20 22  1  0  0  0  0
 20 24  1  0  0  0  0
 22 24  1  0  0  0  0
 26 28  2  0  0  0  0
 37 39  4  0  0  0  0
 48 50  4  0  0  0  0
 59 61  4  0  0  0  0
 70 72  4  0  0  0  0
M  END
$$$$
IPACAG

From CSD data. Using bond type 'Any'. No disordered atoms. Largest molecule.
 75 97  0  0  0  0  0  0  0  0999 V2000
    5.9983    9.7497    6.4033 Mn  0  0  0  0  0  0  0  0  0  0  0  0
    8.6041    9.5000    6.9749 I   0  0  0  0  0  0  0  0  0  0  0  0
    4.6341   11.2521    8.1508 I   0  0  0  0  0  0  0  0  0  0  0  0
    5.3372    7.8259    6.2056 O   0  0  0  0  0  0  0  0  0  0  0  0
    4.5467    6.5832    6.4304 P   0  0  0  0  0  0  0  0  0  0  0  0
    2.8961    6.0200   13.0328 O   0  0  0  0  0  0  0  0  0  0  0  0
    2.4152    5.4868   11.7221 P   0  0  0  0  0  0  0  0  0  0  0  0
    4.8441    5.9971    8.1606 C   0  0  0  0  0  0  0  0  0  0  0  0
    3.8542    5.5014   10.5688 C   0  0  0  0  0  0  0  0  0  0  0  0
    3.7454    4.9720    8.9471 B   0  0  0  0  0  0  0  0  0  0  0  0
    2.8004    4.6684    8.4574 H   0  0  0  0  0  0  0  0  0  0  0  0
    3.8640    6.7198    9.3563 B   0  0  0  0  0  0  0  0  0  0  0  0
    3.0290    7.3843    9.0960 H   0  0  0  0  0  0  0  0  0  0  0  0
    5.5457    7.1992    9.1942 B   0  0  0  0  0  0  0  0  0  0  0  0
    5.7992    8.1870    8.7911 H   0  0  0  0  0  0  0  0  0  0  0  0
    4.8839    6.8716   10.7915 B   0  0  0  0  0  0  0  0  0  0  0  0
    4.5885    7.5956   11.5537 H   0  0  0  0  0  0  0  0  0  0  0  0
    4.7003    4.0624   10.1350 B   0  0  0  0  0  0  0  0  0  0  0  0
    4.2573    3.1107   10.4680 H   0  0  0  0  0  0  0  0  0  0  0  0
    5.3678    4.3916    8.5267 B   0  0  0  0  0  0  0  0  0  0  0  0
    5.5371    3.6807    7.7239 H   0  0  0  0  0  0  0  0  0  0  0  0
    6.4881    5.7774    8.6640 B   0  0  0  0  0  0  0  0  0  0  0  0
    7.2399    5.9461    7.8916 H   0  0  0  0  0  0  0  0  0  0  0  0
    6.5132    6.2983   10.3647 B   0  0  0  0  0  0  0  0  0  0  0  0
    7.4186    6.6832   10.8406 H   0  0  0  0  0  0  0  0  0  0  0  0
    5.4162    5.2303   11.2692 B   0  0  0  0  0  0  0  0  0  0  0  0
    5.4418    4.9961   12.3380 H   0  0  0  0  0  0  0  0  0  0  0  0
    6.4027    4.5587    9.9615 B   0  0  0  0  0  0  0  0  0  0  0  0
    7.1379    3.7675   10.1292 H   0  0  0  0  0  0  0  0  0  0  0  0
    2.7945    6.9240    6.2493 C   0  0  0  0  0  0  0  0  0  0  0  0
    2.3751    8.2312    6.4620 C   0  0  0  0  0  0  0  0  0  0  0  0
    3.0078    8.8925    6.7156 H   0  0  0  0  0  0  0  0  0  0  0  0
    1.0452    8.5785    6.3062 C   0  0  0  0  0  0  0  0  0  0  0  0
    0.7630    9.4722    6.4585 H   0  0  0  0  0  0  0  0  0  0  0  0
    0.1327    7.6153    5.9319 C   0  0  0  0  0  0  0  0  0  0  0  0
   -0.7762    7.8551    5.7909 H   0  0  0  0  0  0  0  0  0  0  0  0
    0.5330    6.3065    5.7591 C   0  0  0  0  0  0  0  0  0  0  0  0
   -0.1090    5.6414    5.5408 H   0  0  0  0  0  0  0  0  0  0  0  0
    1.8592    5.9576    5.8980 C   0  0  0  0  0  0  0  0  0  0  0  0
    2.1321    5.0584    5.7565 H   0  0  0  0  0  0  0  0  0  0  0  0
    5.0766    5.3024    5.3144 C   0  0  0  0  0  0  0  0  0  0  0  0
    4.5608    4.0050    5.3410 C   0  0  0  0  0  0  0  0  0  0  0  0
    3.8825    3.7773    5.9659 H   0  0  0  0  0  0  0  0  0  0  0  0
    5.0343    3.0533    4.4616 C   0  0  0  0  0  0  0  0  0  0  0  0
    4.6839    2.1701    4.4815 H   0  0  0  0  0  0  0  0  0  0  0  0
    6.0175    3.3858    3.5554 C   0  0  0  0  0  0  0  0  0  0  0  0
    6.3385    2.7269    2.9500 H   0  0  0  0  0  0  0  0  0  0  0  0
    6.5390    4.6586    3.5130 C   0  0  0  0  0  0  0  0  0  0  0  0
    7.2196    4.8762    2.8854 H   0  0  0  0  0  0  0  0  0  0  0  0
    6.0643    5.6283    4.3966 C   0  0  0  0  0  0  0  0  0  0  0  0
    6.4163    6.5096    4.3697 H   0  0  0  0  0  0  0  0  0  0  0  0
    1.1677    6.5386   11.0004 C   0  0  0  0  0  0  0  0  0  0  0  0
    0.2922    6.0723   10.0227 C   0  0  0  0  0  0  0  0  0  0  0  0
    0.3288    5.1646    9.7437 H   0  0  0  0  0  0  0  0  0  0  0  0
   -0.6279    6.9339    9.4601 C   0  0  0  0  0  0  0  0  0  0  0  0
   -1.2166    6.6229    8.7831 H   0  0  0  0  0  0  0  0  0  0  0  0
   -0.6933    8.2410    9.8785 C   0  0  0  0  0  0  0  0  0  0  0  0
   -1.3303    8.8286    9.4889 H   0  0  0  0  0  0  0  0  0  0  0  0
    0.1565    8.7095   10.8593 C   0  0  0  0  0  0  0  0  0  0  0  0
    0.0979    9.6127   11.1455 H   0  0  0  0  0  0  0  0  0  0  0  0
    1.0943    7.8643   11.4250 C   0  0  0  0  0  0  0  0  0  0  0  0
    1.6839    8.1849   12.0971 H   0  0  0  0  0  0  0  0  0  0  0  0
    1.7598    3.8322   11.8976 C   0  0  0  0  0  0  0  0  0  0  0  0
    1.6524    2.9003   10.8537 C   0  0  0  0  0  0  0  0  0  0  0  0
    1.9138    3.1394    9.9721 H   0  0  0  0  0  0  0  0  0  0  0  0
    1.1702    1.6413   11.1116 C   0  0  0  0  0  0  0  0  0  0  0  0
    1.0998    1.0083   10.4078 H   0  0  0  0  0  0  0  0  0  0  0  0
    0.7832    1.2903   12.3956 C   0  0  0  0  0  0  0  0  0  0  0  0
    0.4796    0.4079   12.5736 H   0  0  0  0  0  0  0  0  0  0  0  0
    0.8390    2.2212   13.4202 C   0  0  0  0  0  0  0  0  0  0  0  0
    0.5396    1.9894   14.2913 H   0  0  0  0  0  0  0  0  0  0  0  0
    1.3323    3.4940   13.1710 C   0  0  0  0  0  0  0  0  0  0  0  0
    1.3771    4.1321   13.8731 H   0  0  0  0  0  0  0  0  0  0  0  0
    3.5434    6.6308   14.8725 Mn  0  0  0  0  0  0  0  0  0  0  0  0
    5.3510   10.3605    4.5636 O   0  0  0  0  0  0  0  0  0  0  0  0
  1  2  1  0  0  0  0
  3  1  1  0  0  0  0
  4  1  1  0  0  0  0
  5  4  2  0  0  0  0
  6  7  2  0  0  0  0
  7  9  1  0  0  0  0
  8  5  1  0  0  0  0
  9 10  1  0  0  0  0
 10  8  1  0  0  0  0
 11 10  1  0  0  0  0
 12  8  1  0  0  0  0
 13 12  1  0  0  0  0
 14  8  1  0  0  0  0
 15 14  1  0  0  0  0
 16  9  1  0  0  0  0
 17 16  1  0  0  0  0
 18  9  1  0  0  0  0
 19 18  1  0  0  0  0
 20  8  1  0  0  0  0
 21 20  1  0  0  0  0
 22  8  1  0  0  0  0
 23 22  1  0  0  0  0
 24 14  1  0  0  0  0
 25 24  1  0  0  0  0
 26  9  1  0  0  0  0
 27 26  1  0  0  0  0
 28 18  1  0  0  0  0
 29 28  1  0  0  0  0
 30  5  1  0  0  0  0
 31 30  4  0  0  0  0
 32 31  1  0  0  0  0
 33 31  4  0  0  0  0
 34 33  1  0  0  0  0
 35 33  4  0  0  0  0
 36 35  1  0  0  0  0
 37 35  4  0  0  0  0
 38 37  1  0  0  0  0
 39 30  4  0  0  0  0
 40 39  1  0  0  0  0
 41  5  1  0  0  0  0
 42 41  4  0  0  0  0
 43 42  1  0  0  0  0
 44 42  4  0  0  0  0
 45 44  1  0  0  0  0
 46 44  4  0  0  0  0
 47 46  1  0  0  0  0
 48 46  4  0  0  0  0
 49 48  1  0  0  0  0
 50 41  4  0  0  0  0
 51 50  1  0  0  0  0
 52  7  1  0  0  0  0
 53 52  4  0  0  0  0
 54 53  1  0  0  0  0
 55 53  4  0  0  0  0
 56 55  1  0  0  0  0
 57 55  4  0  0  0  0
 58 57  1  0  0  0  0
 59 57  4  0  0  0  0
 60 59  1  0  0  0  0
 61 52  4  0  0  0  0
 62 61  1  0  0  0  0
 63  7  1  0  0  0  0
 64 63  4  0  0  0  0
 65 64  1  0  0  0  0
 66 64  4  0  0  0  0
 67 66  1  0  0  0  0
 68 66  4  0  0  0  0
 69 68  1  0  0  0  0
 70 68  4  0  0  0  0
 71 70  1  0  0  0  0
 72 63  4  0  0  0  0
 73 72  1  0  0  0  0
 74  6  8  0  0  0  0
 75  1  8  0  0  0  0
  9 12  1  0  0  0  0
 10 12  1  0  0  0  0
 10 18  1  0  0  0  0
 10 20  1  0  0  0  0
 12 14  1  0  0  0  0
 12 16  1  0  0  0  0
 14 16  1  0  0  0  0
 14 22  1  0  0  0  0
 16 24  1  0  0  0  0
 16 26  1  0  0  0  0
 18 20  1  0  0  0  0
 18 26  1  0  0  0  0
 20 22  1  0  0  0  0
 20 28  1  0  0  0  0
 22 24  1  0  0  0  0
 22 28  1  0  0  0  0
 24 26  1  0  0  0  0
 24 28  1  0  0  0  0
 26 28  1  0  0  0  0
 37 39  4  0  0  0  0
 48 50  4  0  0  0  0
 59 61  4  0  0  0  0
 70 72  4  0  0  0  0
M  END
$$$$
IPACEK

From CSD data. Using bond type 'Any'. No disordered atoms. Largest molecule.
 70 92  0  0  0  0  0  0  0  0999 V2000
   16.0913    4.6744    4.1050 B   0  0  0  0  0  0  0  0  0  0  0  0
   16.0977    4.6408    5.1805 H   0  0  0  0  0  0  0  0  0  0  0  0
   16.0832    3.1094    3.2367 B   0  0  0  0  0  0  0  0  0  0  0  0
   16.0882    2.2108    3.8396 H   0  0  0  0  0  0  0  0  0  0  0  0
   15.1853    3.3364    1.7310 B   0  0  0  0  0  0  0  0  0  0  0  0
   14.5482    2.5056    1.3813 H   0  0  0  0  0  0  0  0  0  0  0  0
   16.9552    3.3340    1.7173 B   0  0  0  0  0  0  0  0  0  0  0  0
   17.5895    2.5119    1.3585 H   0  0  0  0  0  0  0  0  0  0  0  0
   16.9679    5.8421    3.1252 B   0  0  0  0  0  0  0  0  0  0  0  0
   17.5930    6.5821    3.6249 H   0  0  0  0  0  0  0  0  0  0  0  0
   15.2006    5.8465    3.1407 B   0  0  0  0  0  0  0  0  0  0  0  0
   14.5903    6.5846    3.6619 H   0  0  0  0  0  0  0  0  0  0  0  0
   14.6458    5.0277    1.6604 B   0  0  0  0  0  0  0  0  0  0  0  0
   13.6632    5.2783    1.2406 H   0  0  0  0  0  0  0  0  0  0  0  0
   16.0609    4.5181    0.7408 B   0  0  0  0  0  0  0  0  0  0  0  0
   16.0513    4.4607   -0.3379 H   0  0  0  0  0  0  0  0  0  0  0  0
   17.4984    5.0236    1.6391 B   0  0  0  0  0  0  0  0  0  0  0  0
   18.4781    5.2430    1.2230 H   0  0  0  0  0  0  0  0  0  0  0  0
   16.0694    6.0738    1.6099 B   0  0  0  0  0  0  0  0  0  0  0  0
   16.0523    7.0255    1.0822 H   0  0  0  0  0  0  0  0  0  0  0  0
   17.4078    4.1861    3.1451 C   0  0  0  0  0  0  0  0  0  0  0  0
   14.7559    4.1890    3.1611 C   0  0  0  0  0  0  0  0  0  0  0  0
   18.9437    3.5857    3.9874 P   0  0  0  0  0  0  0  0  0  0  0  0
   19.1015    2.1313    3.7734 O   0  0  0  0  0  0  0  0  0  0  0  0
   13.2481    3.5920    4.0571 P   0  0  0  0  0  0  0  0  0  0  0  0
   13.1226    2.1260    3.9033 O   0  0  0  0  0  0  0  0  0  0  0  0
   20.3146    4.5246    3.2971 C   0  0  0  0  0  0  0  0  0  0  0  0
   20.4843    5.8963    3.4451 C   0  0  0  0  0  0  0  0  0  0  0  0
   19.8415    6.4076    3.9225 H   0  0  0  0  0  0  0  0  0  0  0  0
   21.5904    6.5126    2.8955 C   0  0  0  0  0  0  0  0  0  0  0  0
   21.7043    7.4508    2.9916 H   0  0  0  0  0  0  0  0  0  0  0  0
   22.5324    5.7745    2.2075 C   0  0  0  0  0  0  0  0  0  0  0  0
   23.2947    6.2044    1.8383 H   0  0  0  0  0  0  0  0  0  0  0  0
   22.3686    4.4172    2.0558 C   0  0  0  0  0  0  0  0  0  0  0  0
   23.0158    3.9117    1.5785 H   0  0  0  0  0  0  0  0  0  0  0  0
   21.2623    3.7876    2.5973 C   0  0  0  0  0  0  0  0  0  0  0  0
   21.1503    2.8504    2.4906 H   0  0  0  0  0  0  0  0  0  0  0  0
   18.7501    3.9865    5.7339 C   0  0  0  0  0  0  0  0  0  0  0  0
   18.5906    5.2769    6.2518 C   0  0  0  0  0  0  0  0  0  0  0  0
   18.5989    6.0291    5.6716 H   0  0  0  0  0  0  0  0  0  0  0  0
   18.4212    5.4493    7.6078 C   0  0  0  0  0  0  0  0  0  0  0  0
   18.3024    6.3238    7.9594 H   0  0  0  0  0  0  0  0  0  0  0  0
   18.4225    4.3626    8.4617 C   0  0  0  0  0  0  0  0  0  0  0  0
   18.3172    4.4952    9.3966 H   0  0  0  0  0  0  0  0  0  0  0  0
   18.5758    3.0882    7.9629 C   0  0  0  0  0  0  0  0  0  0  0  0
   18.5718    2.3420    8.5507 H   0  0  0  0  0  0  0  0  0  0  0  0
   18.7357    2.8998    6.6012 C   0  0  0  0  0  0  0  0  0  0  0  0
   18.8361    2.0204    6.2562 H   0  0  0  0  0  0  0  0  0  0  0  0
   11.8333    4.4560    3.3643 C   0  0  0  0  0  0  0  0  0  0  0  0
   10.8226    3.6385    2.8711 C   0  0  0  0  0  0  0  0  0  0  0  0
   10.9140    2.6937    2.9120 H   0  0  0  0  0  0  0  0  0  0  0  0
    9.6832    4.1993    2.3208 C   0  0  0  0  0  0  0  0  0  0  0  0
    8.9904    3.6383    1.9929 H   0  0  0  0  0  0  0  0  0  0  0  0
    9.5511    5.5650    2.2471 C   0  0  0  0  0  0  0  0  0  0  0  0
    8.7746    5.9453    1.8533 H   0  0  0  0  0  0  0  0  0  0  0  0
   10.5430    6.3849    2.7433 C   0  0  0  0  0  0  0  0  0  0  0  0
   10.4448    7.3287    2.6959 H   0  0  0  0  0  0  0  0  0  0  0  0
   11.6783    5.8382    3.3096 C   0  0  0  0  0  0  0  0  0  0  0  0
   12.3537    6.4060    3.6616 H   0  0  0  0  0  0  0  0  0  0  0  0
   13.5303    4.0924    5.7598 C   0  0  0  0  0  0  0  0  0  0  0  0
   13.4161    5.4040    6.2201 C   0  0  0  0  0  0  0  0  0  0  0  0
   13.0764    6.0828    5.6489 H   0  0  0  0  0  0  0  0  0  0  0  0
   13.7995    5.7105    7.5106 C   0  0  0  0  0  0  0  0  0  0  0  0
   13.7168    6.6020    7.8281 H   0  0  0  0  0  0  0  0  0  0  0  0
   14.2989    4.7365    8.3375 C   0  0  0  0  0  0  0  0  0  0  0  0
   14.5649    4.9559    9.2227 H   0  0  0  0  0  0  0  0  0  0  0  0
   14.4152    3.4406    7.8853 C   0  0  0  0  0  0  0  0  0  0  0  0
   14.7678    2.7694    8.4578 H   0  0  0  0  0  0  0  0  0  0  0  0
   14.0221    3.1138    6.6055 C   0  0  0  0  0  0  0  0  0  0  0  0
   14.0889    2.2156    6.3034 H   0  0  0  0  0  0  0  0  0  0  0  0
  1  2  1  0  0  0  0
  3  1  1  0  0  0  0
  4  3  1  0  0  0  0
  5  3  1  0  0  0  0
  6  5  1  0  0  0  0
  7  3  1  0  0  0  0
  8  7  1  0  0  0  0
  9  1  1  0  0  0  0
 10  9  1  0  0  0  0
 11  1  1  0  0  0  0
 12 11  1  0  0  0  0
 13  5  1  0  0  0  0
 14 13  1  0  0  0  0
 15  5  1  0  0  0  0
 16 15  1  0  0  0  0
 17  7  1  0  0  0  0
 18 17  1  0  0  0  0
 19  9  1  0  0  0  0
 20 19  1  0  0  0  0
 21  1  1  0  0  0  0
 22  1  1  0  0  0  0
 23 21  1  0  0  0  0
 24 23  2  0  0  0  0
 25 22  1  0  0  0  0
 26 25  2  0  0  0  0
 27 23  1  0  0  0  0
 28 27  4  0  0  0  0
 29 28  1  0  0  0  0
 30 28  4  0  0  0  0
 31 30  1  0  0  0  0
 32 30  4  0  0  0  0
 33 32  1  0  0  0  0
 34 32  4  0  0  0  0
 35 34  1  0  0  0  0
 36 27  4  0  0  0  0
 37 36  1  0  0  0  0
 38 23  1  0  0  0  0
 39 38  4  0  0  0  0
 40 39  1  0  0  0  0
 41 39  4  0  0  0  0
 42 41  1  0  0  0  0
 43 41  4  0  0  0  0
 44 43  1  0  0  0  0
 45 43  4  0  0  0  0
 46 45  1  0  0  0  0
 47 38  4  0  0  0  0
 48 47  1  0  0  0  0
 49 25  1  0  0  0  0
 50 49  4  0  0  0  0
 51 50  1  0  0  0  0
 52 50  4  0  0  0  0
 53 52  1  0  0  0  0
 54 52  4  0  0  0  0
 55 54  1  0  0  0  0
 56 54  4  0  0  0  0
 57 56  1  0  0  0  0
 58 49  4  0  0  0  0
 59 58  1  0  0  0  0
 60 25  1  0  0  0  0
 61 60  4  0  0  0  0
 62 61  1  0  0  0  0
 63 61  4  0  0  0  0
 64 63  1  0  0  0  0
 65 63  4  0  0  0  0
 66 65  1  0  0  0  0
 67 65  4  0  0  0  0
 68 67  1  0  0  0  0
 69 60  4  0  0  0  0
 70 69  1  0  0  0  0
  3 21  1  0  0  0  0
  3 22  1  0  0  0  0
  5  7  1  0  0  0  0
  5 22  1  0  0  0  0
  7 15  1  0  0  0  0
  7 21  1  0  0  0  0
  9 11  1  0  0  0  0
  9 17  1  0  0  0  0
  9 21  1  0  0  0  0
 11 13  1  0  0  0  0
 11 19  1  0  0  0  0
 11 22  1  0  0  0  0
 13 15  1  0  0  0  0
 13 19  1  0  0  0  0
 13 22  1  0  0  0  0
 15 17  1  0  0  0  0
 15 19  1  0  0  0  0
 17 19  1  0  0  0  0
 17 21  1  0  0  0  0
 34 36  4  0  0  0  0
 45 47  4  0  0  0  0
 56 58  4  0  0  0  0
 67 69  4  0  0  0  0
M  END
$$$$
IPACOU

From CSD data. Using bond type 'Any'. No disordered atoms. Largest molecule.
 75 97  0  0  0  0  0  0  0  0999 V2000
    7.7041    4.8862    7.3918 Mn  0  0  0  0  0  0  0  0  0  0  0  0
    6.2853    3.0591    7.3584 Cl  0  0  0  0  0  0  0  0  0  0  0  0
    6.7138    6.8394    8.1653 Cl  0  0  0  0  0  0  0  0  0  0  0  0
   10.5611    4.4758    9.3783 P   0  0  0  0  0  0  0  0  0  0  0  0
    9.6596    4.0895   15.1277 P   0  0  0  0  0  0  0  0  0  0  0  0
    9.5248    4.4954    8.3012 O   0  0  0  0  0  0  0  0  0  0  0  0
    8.3882    3.8685   15.8913 O   0  0  0  0  0  0  0  0  0  0  0  0
    9.8711    3.5606   10.8340 C   0  0  0  0  0  0  0  0  0  0  0  0
    9.4521    3.3840   13.4368 C   0  0  0  0  0  0  0  0  0  0  0  0
   12.0395    3.6120    8.8402 C   0  0  0  0  0  0  0  0  0  0  0  0
   13.1385    3.3630    9.6619 C   0  0  0  0  0  0  0  0  0  0  0  0
   13.1371    3.6702   10.5609 H   0  0  0  0  0  0  0  0  0  0  0  0
   14.2295    2.6704    9.1723 C   0  0  0  0  0  0  0  0  0  0  0  0
   14.9736    2.4973    9.7370 H   0  0  0  0  0  0  0  0  0  0  0  0
   14.2406    2.2269    7.8566 C   0  0  0  0  0  0  0  0  0  0  0  0
   14.9955    1.7579    7.5209 H   0  0  0  0  0  0  0  0  0  0  0  0
   13.1599    2.4650    7.0370 C   0  0  0  0  0  0  0  0  0  0  0  0
   13.1719    2.1635    6.1362 H   0  0  0  0  0  0  0  0  0  0  0  0
   12.0508    3.1464    7.5264 C   0  0  0  0  0  0  0  0  0  0  0  0
   11.2994    3.2948    6.9644 H   0  0  0  0  0  0  0  0  0  0  0  0
   10.9401    6.1271    9.9637 C   0  0  0  0  0  0  0  0  0  0  0  0
    9.8921    7.0545    9.9412 C   0  0  0  0  0  0  0  0  0  0  0  0
    9.0435    6.8087    9.5920 H   0  0  0  0  0  0  0  0  0  0  0  0
   10.0986    8.3255   10.4286 C   0  0  0  0  0  0  0  0  0  0  0  0
    9.3878    8.9556   10.4143 H   0  0  0  0  0  0  0  0  0  0  0  0
   11.3276    8.6936   10.9375 C   0  0  0  0  0  0  0  0  0  0  0  0
   11.4549    9.5692   11.2834 H   0  0  0  0  0  0  0  0  0  0  0  0
   12.3714    7.7914   10.9444 C   0  0  0  0  0  0  0  0  0  0  0  0
   13.2209    8.0529   11.2798 H   0  0  0  0  0  0  0  0  0  0  0  0
   12.1840    6.4999   10.4619 C   0  0  0  0  0  0  0  0  0  0  0  0
   12.9010    5.8768   10.4725 H   0  0  0  0  0  0  0  0  0  0  0  0
   11.0136    3.1866   15.8832 C   0  0  0  0  0  0  0  0  0  0  0  0
   12.3582    3.3755   15.5650 C   0  0  0  0  0  0  0  0  0  0  0  0
   12.6088    4.0502   14.9450 H   0  0  0  0  0  0  0  0  0  0  0  0
   13.3260    2.5827   16.1507 C   0  0  0  0  0  0  0  0  0  0  0  0
   14.2416    2.7145   15.9341 H   0  0  0  0  0  0  0  0  0  0  0  0
   12.9643    1.5963   17.0528 C   0  0  0  0  0  0  0  0  0  0  0  0
   13.6323    1.0535   17.4549 H   0  0  0  0  0  0  0  0  0  0  0  0
   11.6402    1.4007   17.3680 C   0  0  0  0  0  0  0  0  0  0  0  0
   11.3990    0.7238   17.9894 H   0  0  0  0  0  0  0  0  0  0  0  0
   10.6514    2.1853   16.7849 C   0  0  0  0  0  0  0  0  0  0  0  0
    9.7372    2.0408   16.9986 H   0  0  0  0  0  0  0  0  0  0  0  0
    9.9684    5.8422   14.9356 C   0  0  0  0  0  0  0  0  0  0  0  0
    8.9239    6.6894   15.3021 C   0  0  0  0  0  0  0  0  0  0  0  0
    8.1151    6.3259   15.6428 H   0  0  0  0  0  0  0  0  0  0  0  0
    9.0652    8.0661   15.1694 C   0  0  0  0  0  0  0  0  0  0  0  0
    8.3545    8.6428   15.4230 H   0  0  0  0  0  0  0  0  0  0  0  0
   10.2335    8.5941   14.6712 C   0  0  0  0  0  0  0  0  0  0  0  0
   10.3225    9.5352   14.5758 H   0  0  0  0  0  0  0  0  0  0  0  0
   11.2783    7.7691   14.3091 C   0  0  0  0  0  0  0  0  0  0  0  0
   12.0877    8.1431   13.9805 H   0  0  0  0  0  0  0  0  0  0  0  0
   11.1476    6.3959   14.4246 C   0  0  0  0  0  0  0  0  0  0  0  0
   11.8602    5.8278   14.1561 H   0  0  0  0  0  0  0  0  0  0  0  0
    8.9571    2.1376   10.4731 B   0  0  0  0  0  0  0  0  0  0  0  0
    8.7986    1.7271    9.4433 H   0  0  0  0  0  0  0  0  0  0  0  0
    8.1527    3.6423   11.0036 B   0  0  0  0  0  0  0  0  0  0  0  0
    7.4694    4.2109   10.3222 H   0  0  0  0  0  0  0  0  0  0  0  0
    9.2331    4.4681   12.1343 B   0  0  0  0  0  0  0  0  0  0  0  0
    9.2555    5.5850   12.2142 H   0  0  0  0  0  0  0  0  0  0  0  0
   10.7244    3.4681   12.3043 B   0  0  0  0  0  0  0  0  0  0  0  0
   11.7251    3.9329   12.4961 H   0  0  0  0  0  0  0  0  0  0  0  0
   10.5425    2.0282   11.2809 B   0  0  0  0  0  0  0  0  0  0  0  0
   11.4201    1.5441   10.7811 H   0  0  0  0  0  0  0  0  0  0  0  0
    7.8707    3.5294   12.7503 B   0  0  0  0  0  0  0  0  0  0  0  0
    6.9983    4.0214   13.2514 H   0  0  0  0  0  0  0  0  0  0  0  0
    7.6939    2.0791   11.7251 B   0  0  0  0  0  0  0  0  0  0  0  0
    6.6930    1.6137   11.5353 H   0  0  0  0  0  0  0  0  0  0  0  0
    9.1714    1.0887   11.8938 B   0  0  0  0  0  0  0  0  0  0  0  0
    9.1412   -0.0280   11.8140 H   0  0  0  0  0  0  0  0  0  0  0  0
   10.2709    1.9095   13.0210 B   0  0  0  0  0  0  0  0  0  0  0  0
   10.9642    1.3480   13.6980 H   0  0  0  0  0  0  0  0  0  0  0  0
    8.5070    1.9449   13.2970 B   0  0  0  0  0  0  0  0  0  0  0  0
    8.0457    1.4027   14.1617 H   0  0  0  0  0  0  0  0  0  0  0  0
    7.7041    4.3386   17.8089 Mn  0  0  0  0  0  0  0  0  0  0  0  0
    8.3882    5.3563    5.4742 O   0  0  0  0  0  0  0  0  0  0  0  0
  1  2  1  0  0  0  0
  3  1  1  0  0  0  0
  4  6  2  0  0  0  0
  5  7  2  0  0  0  0
  6  1  1  0  0  0  0
  7 74  8  0  0  0  0
  8  4  1  0  0  0  0
  9  5  1  0  0  0  0
 10  4  1  0  0  0  0
 11 10  4  0  0  0  0
 12 11  1  0  0  0  0
 13 11  4  0  0  0  0
 14 13  1  0  0  0  0
 15 13  4  0  0  0  0
 16 15  1  0  0  0  0
 17 15  4  0  0  0  0
 18 17  1  0  0  0  0
 19 10  4  0  0  0  0
 20 19  1  0  0  0  0
 21  4  1  0  0  0  0
 22 21  4  0  0  0  0
 23 22  1  0  0  0  0
 24 22  4  0  0  0  0
 25 24  1  0  0  0  0
 26 24  4  0  0  0  0
 27 26  1  0  0  0  0
 28 26  4  0  0  0  0
 29 28  1  0  0  0  0
 30 21  4  0  0  0  0
 31 30  1  0  0  0  0
 32  5  1  0  0  0  0
 33 32  4  0  0  0  0
 34 33  1  0  0  0  0
 35 33  4  0  0  0  0
 36 35  1  0  0  0  0
 37 35  4  0  0  0  0
 38 37  1  0  0  0  0
 39 37  4  0  0  0  0
 40 39  1  0  0  0  0
 41 32  4  0  0  0  0
 42 41  1  0  0  0  0
 43  5  1  0  0  0  0
 44 43  4  0  0  0  0
 45 44  1  0  0  0  0
 46 44  4  0  0  0  0
 47 46  1  0  0  0  0
 48 46  4  0  0  0  0
 49 48  1  0  0  0  0
 50 48  4  0  0  0  0
 51 50  1  0  0  0  0
 52 43  4  0  0  0  0
 53 52  1  0  0  0  0
 54  8  1  0  0  0  0
 55 54  1  0  0  0  0
 56  8  1  0  0  0  0
 57 56  1  0  0  0  0
 58  8  1  0  0  0  0
 59 58  1  0  0  0  0
 60  8  1  0  0  0  0
 61 60  1  0  0  0  0
 62  8  1  0  0  0  0
 63 62  1  0  0  0  0
 64  9  1  0  0  0  0
 65 64  1  0  0  0  0
 66 54  1  0  0  0  0
 67 66  1  0  0  0  0
 68 54  1  0  0  0  0
 69 68  1  0  0  0  0
 70  9  1  0  0  0  0
 71 70  1  0  0  0  0
 72  9  1  0  0  0  0
 73 72  1  0  0  0  0
 75  1  8  0  0  0  0
  9 58  1  0  0  0  0
  9 60  1  0  0  0  0
 17 19  4  0  0  0  0
 28 30  4  0  0  0  0
 39 41  4  0  0  0  0
 50 52  4  0  0  0  0
 54 56  1  0  0  0  0
 54 62  1  0  0  0  0
 56 58  1  0  0  0  0
 56 64  1  0  0  0  0
 56 66  1  0  0  0  0
 58 60  1  0  0  0  0
 58 64  1  0  0  0  0
 60 62  1  0  0  0  0
 60 70  1  0  0  0  0
 62 68  1  0  0  0  0
 62 70  1  0  0  0  0
 64 66  1  0  0  0  0
 64 72  1  0  0  0  0
 66 68  1  0  0  0  0
 66 72  1  0  0  0  0
 68 70  1  0  0  0  0
 68 72  1  0  0  0  0
 70 72  1  0  0  0  0
M  END
$$$$
IPAFAJ

From CSD data. Using bond type 'Any'. No disordered atoms. Largest molecule.
148193  0  0  0  0  0  0  0  0999 V2000
    6.4169    0.5977   13.6934 I   0  0  0  0  0  0  0  0  0  0  0  0
    3.6174    2.1246   10.3448 I   0  0  0  0  0  0  0  0  0  0  0  0
   12.0683    4.6971   13.2266 I   0  0  0  0  0  0  0  0  0  0  0  0
   13.9063    0.7977   11.3393 I   0  0  0  0  0  0  0  0  0  0  0  0
    5.5039    0.4140   11.1896 Mn  0  0  0  0  0  0  0  0  0  0  0  0
   13.6364    3.4339   11.4602 Mn  0  0  0  0  0  0  0  0  0  0  0  0
    8.4410    0.1377    9.2755 P   0  0  0  0  0  0  0  0  0  0  0  0
   12.5156    4.1876    8.2110 P   0  0  0  0  0  0  0  0  0  0  0  0
   16.7618    5.0473   11.3011 P   0  0  0  0  0  0  0  0  0  0  0  0
   22.1739    2.9155   10.8992 P   0  0  0  0  0  0  0  0  0  0  0  0
    7.1241    0.2887    9.9737 O   0  0  0  0  0  0  0  0  0  0  0  0
   13.0572    3.9899    9.5803 O   0  0  0  0  0  0  0  0  0  0  0  0
   15.4938    4.2945   11.5457 O   0  0  0  0  0  0  0  0  0  0  0  0
   22.5250    1.4710   10.8725 O   0  0  0  0  0  0  0  0  0  0  0  0
    8.9379    1.8369    8.7027 C   0  0  0  0  0  0  0  0  0  0  0  0
   10.7149    3.7287    8.2262 C   0  0  0  0  0  0  0  0  0  0  0  0
   18.1525    4.0893   12.0607 C   0  0  0  0  0  0  0  0  0  0  0  0
   20.6069    3.1037   11.8716 C   0  0  0  0  0  0  0  0  0  0  0  0
    8.2818   -0.9940    7.8906 C   0  0  0  0  0  0  0  0  0  0  0  0
    9.1507   -1.0776    6.8298 C   0  0  0  0  0  0  0  0  0  0  0  0
    9.8953   -0.4893    6.7782 H   0  0  0  0  0  0  0  0  0  0  0  0
    8.9450   -2.0230    5.8326 C   0  0  0  0  0  0  0  0  0  0  0  0
    9.5290   -2.0582    5.0847 H   0  0  0  0  0  0  0  0  0  0  0  0
    7.8952   -2.9070    5.9233 C   0  0  0  0  0  0  0  0  0  0  0  0
    7.7669   -3.5625    5.2479 H   0  0  0  0  0  0  0  0  0  0  0  0
    7.0298   -2.8468    6.9899 C   0  0  0  0  0  0  0  0  0  0  0  0
    6.3041   -3.4582    7.0528 H   0  0  0  0  0  0  0  0  0  0  0  0
    7.2177   -1.8887    7.9736 C   0  0  0  0  0  0  0  0  0  0  0  0
    6.6163   -1.8409    8.7082 H   0  0  0  0  0  0  0  0  0  0  0  0
    9.6650   -0.5192   10.4096 C   0  0  0  0  0  0  0  0  0  0  0  0
    9.7076   -0.0148   11.7000 C   0  0  0  0  0  0  0  0  0  0  0  0
    9.1869    0.7485   11.9219 H   0  0  0  0  0  0  0  0  0  0  0  0
   10.4879   -0.6038   12.6644 C   0  0  0  0  0  0  0  0  0  0  0  0
   10.5106   -0.2466   13.5437 H   0  0  0  0  0  0  0  0  0  0  0  0
   11.2434   -1.7163   12.3500 C   0  0  0  0  0  0  0  0  0  0  0  0
   11.7914   -2.1224   13.0097 H   0  0  0  0  0  0  0  0  0  0  0  0
   11.1972   -2.2376   11.0712 C   0  0  0  0  0  0  0  0  0  0  0  0
   11.6974   -3.0175   10.8638 H   0  0  0  0  0  0  0  0  0  0  0  0
   10.4311   -1.6391   10.0914 C   0  0  0  0  0  0  0  0  0  0  0  0
   10.4252   -1.9869    9.2074 H   0  0  0  0  0  0  0  0  0  0  0  0
   13.3856    3.1545    7.0227 C   0  0  0  0  0  0  0  0  0  0  0  0
   13.9283    1.9743    7.4991 C   0  0  0  0  0  0  0  0  0  0  0  0
   13.7805    1.7069    8.3986 H   0  0  0  0  0  0  0  0  0  0  0  0
   14.7015    1.1738    6.6350 C   0  0  0  0  0  0  0  0  0  0  0  0
   15.1024    0.3765    6.9605 H   0  0  0  0  0  0  0  0  0  0  0  0
   14.8717    1.5461    5.3138 C   0  0  0  0  0  0  0  0  0  0  0  0
   15.3632    0.9869    4.7226 H   0  0  0  0  0  0  0  0  0  0  0  0
   14.3255    2.7474    4.8509 C   0  0  0  0  0  0  0  0  0  0  0  0
   14.4663    3.0207    3.9512 H   0  0  0  0  0  0  0  0  0  0  0  0
   13.5772    3.5362    5.7073 C   0  0  0  0  0  0  0  0  0  0  0  0
   13.1961    4.3454    5.3897 H   0  0  0  0  0  0  0  0  0  0  0  0
   12.6550    5.9050    7.7113 C   0  0  0  0  0  0  0  0  0  0  0  0
   13.3395    6.7489    8.5715 C   0  0  0  0  0  0  0  0  0  0  0  0
   13.6998    6.4189    9.3867 H   0  0  0  0  0  0  0  0  0  0  0  0
   13.4920    8.1141    8.2147 C   0  0  0  0  0  0  0  0  0  0  0  0
   13.9599    8.7066    8.7936 H   0  0  0  0  0  0  0  0  0  0  0  0
   12.9813    8.5646    7.0690 C   0  0  0  0  0  0  0  0  0  0  0  0
   13.0918    9.4840    6.8549 H   0  0  0  0  0  0  0  0  0  0  0  0
   12.3038    7.7577    6.1837 C   0  0  0  0  0  0  0  0  0  0  0  0
   11.9648    8.1106    5.3685 H   0  0  0  0  0  0  0  0  0  0  0  0
   12.1230    6.4094    6.5058 C   0  0  0  0  0  0  0  0  0  0  0  0
   11.6469    5.8367    5.9182 H   0  0  0  0  0  0  0  0  0  0  0  0
   17.1381    5.1341    9.5648 C   0  0  0  0  0  0  0  0  0  0  0  0
   18.0284    6.0848    9.0460 C   0  0  0  0  0  0  0  0  0  0  0  0
   18.3441    6.7947    9.5937 H   0  0  0  0  0  0  0  0  0  0  0  0
   18.4505    5.9769    7.7151 C   0  0  0  0  0  0  0  0  0  0  0  0
   19.0795    6.5945    7.3643 H   0  0  0  0  0  0  0  0  0  0  0  0
   17.9397    4.9607    6.9031 C   0  0  0  0  0  0  0  0  0  0  0  0
   18.2118    4.8867    5.9956 H   0  0  0  0  0  0  0  0  0  0  0  0
   17.0424    4.0692    7.4374 C   0  0  0  0  0  0  0  0  0  0  0  0
   16.6813    3.3860    6.8834 H   0  0  0  0  0  0  0  0  0  0  0  0
   16.6522    4.1390    8.7374 C   0  0  0  0  0  0  0  0  0  0  0  0
   16.0427    3.4975    9.0817 H   0  0  0  0  0  0  0  0  0  0  0  0
   16.7054    6.6622   12.0568 C   0  0  0  0  0  0  0  0  0  0  0  0
   15.4711    7.0577   12.5911 C   0  0  0  0  0  0  0  0  0  0  0  0
   14.7391    6.4526   12.5886 H   0  0  0  0  0  0  0  0  0  0  0  0
   15.3115    8.3373   13.1292 C   0  0  0  0  0  0  0  0  0  0  0  0
   14.4786    8.6087   13.4925 H   0  0  0  0  0  0  0  0  0  0  0  0
   16.3898    9.1980   13.1215 C   0  0  0  0  0  0  0  0  0  0  0  0
   16.2908   10.0760   13.4720 H   0  0  0  0  0  0  0  0  0  0  0  0
   17.6134    8.8015   12.6123 C   0  0  0  0  0  0  0  0  0  0  0  0
   18.3504    9.4030   12.6321 H   0  0  0  0  0  0  0  0  0  0  0  0
   17.7766    7.5399   12.0761 C   0  0  0  0  0  0  0  0  0  0  0  0
   18.6171    7.2755   11.7216 H   0  0  0  0  0  0  0  0  0  0  0  0
   23.4692    3.8894   11.6614 C   0  0  0  0  0  0  0  0  0  0  0  0
   23.3344    5.2462   11.9623 C   0  0  0  0  0  0  0  0  0  0  0  0
   22.5149    5.6959   11.7936 H   0  0  0  0  0  0  0  0  0  0  0  0
   24.4126    5.9346   12.5159 C   0  0  0  0  0  0  0  0  0  0  0  0
   24.3194    6.8530   12.7379 H   0  0  0  0  0  0  0  0  0  0  0  0
   25.6079    5.2959   12.7396 C   0  0  0  0  0  0  0  0  0  0  0  0
   26.3344    5.7705   13.1285 H   0  0  0  0  0  0  0  0  0  0  0  0
   25.7569    3.9635   12.4021 C   0  0  0  0  0  0  0  0  0  0  0  0
   26.5946    3.5374   12.5348 H   0  0  0  0  0  0  0  0  0  0  0  0
   24.6999    3.2391   11.8736 C   0  0  0  0  0  0  0  0  0  0  0  0
   24.8043    2.3198   11.6593 H   0  0  0  0  0  0  0  0  0  0  0  0
   21.8341    3.5077    9.2369 C   0  0  0  0  0  0  0  0  0  0  0  0
   22.0930    4.8285    8.8512 C   0  0  0  0  0  0  0  0  0  0  0  0
   22.4312    5.4578    9.4777 H   0  0  0  0  0  0  0  0  0  0  0  0
   21.8447    5.1997    7.5357 C   0  0  0  0  0  0  0  0  0  0  0  0
   22.0251    6.0897    7.2559 H   0  0  0  0  0  0  0  0  0  0  0  0
   21.3375    4.2902    6.6273 C   0  0  0  0  0  0  0  0  0  0  0  0
   21.1724    4.5586    5.7321 H   0  0  0  0  0  0  0  0  0  0  0  0
   21.0715    2.9916    7.0169 C   0  0  0  0  0  0  0  0  0  0  0  0
   20.7105    2.3685    6.3975 H   0  0  0  0  0  0  0  0  0  0  0  0
   21.3411    2.6109    8.3265 C   0  0  0  0  0  0  0  0  0  0  0  0
   21.1794    1.7140    8.5947 H   0  0  0  0  0  0  0  0  0  0  0  0
    7.5902    2.8848    8.3998 B   0  0  0  0  0  0  0  0  0  0  0  0
    6.5122    2.5849    8.4663 H   0  0  0  0  0  0  0  0  0  0  0  0
    8.6294    2.3117    7.0690 B   0  0  0  0  0  0  0  0  0  0  0  0
    8.2373    1.6363    6.2669 H   0  0  0  0  0  0  0  0  0  0  0  0
   10.2964    2.1499    7.6997 B   0  0  0  0  0  0  0  0  0  0  0  0
   11.0063    1.3808    7.3040 H   0  0  0  0  0  0  0  0  0  0  0  0
   10.2609    2.6257    9.4452 B   0  0  0  0  0  0  0  0  0  0  0  0
   10.9540    2.1614   10.1913 H   0  0  0  0  0  0  0  0  0  0  0  0
    8.6081    3.0509    9.8715 B   0  0  0  0  0  0  0  0  0  0  0  0
    8.1984    2.8543   10.8952 H   0  0  0  0  0  0  0  0  0  0  0  0
    8.1754    4.0185    7.1847 B   0  0  0  0  0  0  0  0  0  0  0  0
    7.4867    4.4789    6.4317 H   0  0  0  0  0  0  0  0  0  0  0  0
    8.1435    4.4933    8.9032 B   0  0  0  0  0  0  0  0  0  0  0  0
    7.4368    5.2685    9.2978 H   0  0  0  0  0  0  0  0  0  0  0  0
    9.7998    4.3114    9.5417 B   0  0  0  0  0  0  0  0  0  0  0  0
   10.2042    4.9719   10.3510 H   0  0  0  0  0  0  0  0  0  0  0  0
    9.8353    3.5828    6.7739 B   0  0  0  0  0  0  0  0  0  0  0  0
   10.2683    3.7675    5.7578 H   0  0  0  0  0  0  0  0  0  0  0  0
    9.5054    4.9290    7.8868 B   0  0  0  0  0  0  0  0  0  0  0  0
    9.7083    5.9943    7.6075 H   0  0  0  0  0  0  0  0  0  0  0  0
   17.9255    2.3751   12.0259 B   0  0  0  0  0  0  0  0  0  0  0  0
   17.0305    1.8593   11.5923 H   0  0  0  0  0  0  0  0  0  0  0  0
   19.1421    3.1587   11.0018 B   0  0  0  0  0  0  0  0  0  0  0  0
   19.0589    3.1426    9.8844 H   0  0  0  0  0  0  0  0  0  0  0  0
   19.7841    4.5884   11.8890 B   0  0  0  0  0  0  0  0  0  0  0  0
   20.1156    5.5134   11.3514 H   0  0  0  0  0  0  0  0  0  0  0  0
   18.9754    4.6572   13.4706 B   0  0  0  0  0  0  0  0  0  0  0  0
   18.7682    5.6323   13.9805 H   0  0  0  0  0  0  0  0  0  0  0  0
   17.8298    3.2983   13.5478 B   0  0  0  0  0  0  0  0  0  0  0  0
   16.8609    3.3849   14.1052 H   0  0  0  0  0  0  0  0  0  0  0  0
   19.4081    3.1915   14.3887 B   0  0  0  0  0  0  0  0  0  0  0  0
   19.4940    3.1909   15.5064 H   0  0  0  0  0  0  0  0  0  0  0  0
   18.7732    1.7692   13.4976 B   0  0  0  0  0  0  0  0  0  0  0  0
   18.4459    0.8416   14.0332 H   0  0  0  0  0  0  0  0  0  0  0  0
   19.5783    1.7089   11.9064 B   0  0  0  0  0  0  0  0  0  0  0  0
   19.7949    0.7379   11.3911 H   0  0  0  0  0  0  0  0  0  0  0  0
   20.6069    3.9931   13.3491 B   0  0  0  0  0  0  0  0  0  0  0  0
   21.4961    4.5190   13.7784 H   0  0  0  0  0  0  0  0  0  0  0  0
   20.4863    2.2239   13.3452 B   0  0  0  0  0  0  0  0  0  0  0  0
   21.3085    1.5880   13.7642 H   0  0  0  0  0  0  0  0  0  0  0  0
   23.2379   -0.4140   11.1896 Mn  0  0  0  0  0  0  0  0  0  0  0  0
    4.7910   -1.4710   10.8725 O   0  0  0  0  0  0  0  0  0  0  0  0
  1  5  1  0  0  0  0
  2  5  1  0  0  0  0
  3  6  1  0  0  0  0
  4  6  1  0  0  0  0
  5 11  1  0  0  0  0
  6 12  1  0  0  0  0
  7 11  2  0  0  0  0
  8 12  2  0  0  0  0
  9 13  2  0  0  0  0
 10 14  2  0  0  0  0
 13  6  1  0  0  0  0
 14147  8  0  0  0  0
 15  7  1  0  0  0  0
 16  8  1  0  0  0  0
 17  9  1  0  0  0  0
 18 10  1  0  0  0  0
 19  7  1  0  0  0  0
 20 19  4  0  0  0  0
 21 20  1  0  0  0  0
 22 20  4  0  0  0  0
 23 22  1  0  0  0  0
 24 22  4  0  0  0  0
 25 24  1  0  0  0  0
 26 24  4  0  0  0  0
 27 26  1  0  0  0  0
 28 19  4  0  0  0  0
 29 28  1  0  0  0  0
 30  7  1  0  0  0  0
 31 30  4  0  0  0  0
 32 31  1  0  0  0  0
 33 31  4  0  0  0  0
 34 33  1  0  0  0  0
 35 33  4  0  0  0  0
 36 35  1  0  0  0  0
 37 35  4  0  0  0  0
 38 37  1  0  0  0  0
 39 30  4  0  0  0  0
 40 39  1  0  0  0  0
 41  8  1  0  0  0  0
 42 41  4  0  0  0  0
 43 42  1  0  0  0  0
 44 42  4  0  0  0  0
 45 44  1  0  0  0  0
 46 44  4  0  0  0  0
 47 46  1  0  0  0  0
 48 46  4  0  0  0  0
 49 48  1  0  0  0  0
 50 41  4  0  0  0  0
 51 50  1  0  0  0  0
 52  8  1  0  0  0  0
 53 52  4  0  0  0  0
 54 53  1  0  0  0  0
 55 53  4  0  0  0  0
 56 55  1  0  0  0  0
 57 55  4  0  0  0  0
 58 57  1  0  0  0  0
 59 57  4  0  0  0  0
 60 59  1  0  0  0  0
 61 52  4  0  0  0  0
 62 61  1  0  0  0  0
 63  9  1  0  0  0  0
 64 63  4  0  0  0  0
 65 64  1  0  0  0  0
 66 64  4  0  0  0  0
 67 66  1  0  0  0  0
 68 66  4  0  0  0  0
 69 68  1  0  0  0  0
 70 68  4  0  0  0  0
 71 70  1  0  0  0  0
 72 63  4  0  0  0  0
 73 72  1  0  0  0  0
 74  9  1  0  0  0  0
 75 74  4  0  0  0  0
 76 75  1  0  0  0  0
 77 75  4  0  0  0  0
 78 77  1  0  0  0  0
 79 77  4  0  0  0  0
 80 79  1  0  0  0  0
 81 79  4  0  0  0  0
 82 81  1  0  0  0  0
 83 74  4  0  0  0  0
 84 83  1  0  0  0  0
 85 10  1  0  0  0  0
 86 85  4  0  0  0  0
 87 86  1  0  0  0  0
 88 86  4  0  0  0  0
 89 88  1  0  0  0  0
 90 88  4  0  0  0  0
 91 90  1  0  0  0  0
 92 90  4  0  0  0  0
 93 92  1  0  0  0  0
 94 85  4  0  0  0  0
 95 94  1  0  0  0  0
 96 10  1  0  0  0  0
 97 96  4  0  0  0  0
 98 97  1  0  0  0  0
 99 97  4  0  0  0  0
100 99  1  0  0  0  0
101 99  4  0  0  0  0
102101  1  0  0  0  0
103101  4  0  0  0  0
104103  1  0  0  0  0
105 96  4  0  0  0  0
106105  1  0  0  0  0
107 15  1  0  0  0  0
108107  1  0  0  0  0
109 15  1  0  0  0  0
110109  1  0  0  0  0
111 15  1  0  0  0  0
112111  1  0  0  0  0
113 15  1  0  0  0  0
114113  1  0  0  0  0
115 15  1  0  0  0  0
116115  1  0  0  0  0
117107  1  0  0  0  0
118117  1  0  0  0  0
119107  1  0  0  0  0
120119  1  0  0  0  0
121 16  1  0  0  0  0
122121  1  0  0  0  0
123 16  1  0  0  0  0
124123  1  0  0  0  0
125 16  1  0  0  0  0
126125  1  0  0  0  0
127 17  1  0  0  0  0
128127  1  0  0  0  0
129 17  1  0  0  0  0
130129  1  0  0  0  0
131 17  1  0  0  0  0
132131  1  0  0  0  0
133 17  1  0  0  0  0
134133  1  0  0  0  0
135 17  1  0  0  0  0
136135  1  0  0  0  0
137133  1  0  0  0  0
138137  1  0  0  0  0
139127  1  0  0  0  0
140139  1  0  0  0  0
141 18  1  0  0  0  0
142141  1  0  0  0  0
143 18  1  0  0  0  0
144143  1  0  0  0  0
145 18  1  0  0  0  0
146145  1  0  0  0  0
148  5  8  0  0  0  0
 16111  1  0  0  0  0
 16113  1  0  0  0  0
 18129  1  0  0  0  0
 18131  1  0  0  0  0
 26 28  4  0  0  0  0
 37 39  4  0  0  0  0
 48 50  4  0  0  0  0
 59 61  4  0  0  0  0
 70 72  4  0  0  0  0
 81 83  4  0  0  0  0
 92 94  4  0  0  0  0
103105  4  0  0  0  0
107109  1  0  0  0  0
107115  1  0  0  0  0
109111  1  0  0  0  0
109117  1  0  0  0  0
109123  1  0  0  0  0
111113  1  0  0  0  0
111123  1  0  0  0  0
113115  1  0  0  0  0
113121  1  0  0  0  0
115119  1  0  0  0  0
115121  1  0  0  0  0
117119  1  0  0  0  0
117123  1  0  0  0  0
117125  1  0  0  0  0
119121  1  0  0  0  0
119125  1  0  0  0  0
121125  1  0  0  0  0
123125  1  0  0  0  0
127129  1  0  0  0  0
127135  1  0  0  0  0
127141  1  0  0  0  0
129131  1  0  0  0  0
129141  1  0  0  0  0
131133  1  0  0  0  0
131143  1  0  0  0  0
133135  1  0  0  0  0
133143  1  0  0  0  0
135137  1  0  0  0  0
135139  1  0  0  0  0
137139  1  0  0  0  0
137143  1  0  0  0  0
137145  1  0  0  0  0
139141  1  0  0  0  0
139145  1  0  0  0  0
141145  1  0  0  0  0
143145  1  0  0  0  0
M  END
$$$$
IPURUH

From CSD data. Using bond type 'Any'. No disordered atoms. Largest molecule.
 97119  0  0  0  0  0  0  0  0999 V2000
    2.0157   14.4170   16.4536 Pt  0  0  0  0  0  0  0  0  0  0  0  0
    2.7662   11.3723   16.8351 O   0  0  0  0  0  0  0  0  0  0  0  0
    4.9542   11.7767   16.5802 O   0  0  0  0  0  0  0  0  0  0  0  0
    3.1840   16.1719   15.3351 P   0  0  0  0  0  0  0  0  0  0  0  0
    1.2590   13.1872   14.5757 P   0  0  0  0  0  0  0  0  0  0  0  0
    0.7835   13.8189   19.6031 B   0  0  0  0  0  0  0  0  0  0  0  0
   -0.1477   13.7416   20.1833 H   0  0  0  0  0  0  0  0  0  0  0  0
    0.8488   13.2059   17.9284 B   0  0  0  0  0  0  0  0  0  0  0  0
   -0.0307   12.7529   17.4446 H   0  0  0  0  0  0  0  0  0  0  0  0
    1.7199   12.3664   19.2344 B   0  0  0  0  0  0  0  0  0  0  0  0
    1.4019   11.3758   19.5937 H   0  0  0  0  0  0  0  0  0  0  0  0
    2.3812   13.6122   20.3125 B   0  0  0  0  0  0  0  0  0  0  0  0
    2.5262   13.3821   21.3788 H   0  0  0  0  0  0  0  0  0  0  0  0
    1.8329   15.2193   19.8333 B   0  0  0  0  0  0  0  0  0  0  0  0
    1.5758   16.0067   20.5567 H   0  0  0  0  0  0  0  0  0  0  0  0
    0.9610   14.9892   18.3066 B   0  0  0  0  0  0  0  0  0  0  0  0
    0.1270   15.6562   18.0412 H   0  0  0  0  0  0  0  0  0  0  0  0
    2.4712   12.5048   17.6466 B   0  0  0  0  0  0  0  0  0  0  0  0
    3.4543   12.8176   19.1944 B   0  0  0  0  0  0  0  0  0  0  0  0
    4.4427   12.3358   19.1733 H   0  0  0  0  0  0  0  0  0  0  0  0
    3.5222   14.7106   19.6031 B   0  0  0  0  0  0  0  0  0  0  0  0
    4.5380   15.0935   19.7793 H   0  0  0  0  0  0  0  0  0  0  0  0
    2.5989   15.6777   18.3113 B   0  0  0  0  0  0  0  0  0  0  0  0
    3.1609   16.5424   17.9284 H   0  0  0  0  0  0  0  0  0  0  0  0
    3.5239   13.0333   18.0153 H   0  0  0  0  0  0  0  0  0  0  0  0
    3.6151   15.0647   18.4381 H   0  0  0  0  0  0  0  0  0  0  0  0
    4.0170   11.0648   16.4064 C   0  0  0  0  0  0  0  0  0  0  0  0
    4.0651    9.7651   15.6783 C   0  0  0  0  0  0  0  0  0  0  0  0
    3.8320    9.9035   14.7575 H   0  0  0  0  0  0  0  0  0  0  0  0
    3.4416    9.1521   16.0752 H   0  0  0  0  0  0  0  0  0  0  0  0
    4.9509    9.4002   15.7323 H   0  0  0  0  0  0  0  0  0  0  0  0
    4.8690   16.2638   16.0564 C   0  0  0  0  0  0  0  0  0  0  0  0
    5.4865   15.0665   16.3970 C   0  0  0  0  0  0  0  0  0  0  0  0
    5.0212   14.2665   16.3054 H   0  0  0  0  0  0  0  0  0  0  0  0
    6.7764   15.0503   16.8668 C   0  0  0  0  0  0  0  0  0  0  0  0
    7.1776   14.2450   17.1016 H   0  0  0  0  0  0  0  0  0  0  0  0
    7.4749   16.2350   16.9889 C   0  0  0  0  0  0  0  0  0  0  0  0
    8.3510   16.2242   17.3036 H   0  0  0  0  0  0  0  0  0  0  0  0
    6.8893   17.4161   16.6530 C   0  0  0  0  0  0  0  0  0  0  0  0
    7.3696   18.2089   16.7282 H   0  0  0  0  0  0  0  0  0  0  0  0
    5.5824   17.4449   16.1997 C   0  0  0  0  0  0  0  0  0  0  0  0
    5.1826   18.2574   15.9883 H   0  0  0  0  0  0  0  0  0  0  0  0
    3.5610   16.1451   13.5409 C   0  0  0  0  0  0  0  0  0  0  0  0
    2.5977   16.5119   12.6295 C   0  0  0  0  0  0  0  0  0  0  0  0
    1.7676   16.7959   12.9372 H   0  0  0  0  0  0  0  0  0  0  0  0
    2.8370   16.4687   11.2743 C   0  0  0  0  0  0  0  0  0  0  0  0
    2.1815   16.7402   10.6730 H   0  0  0  0  0  0  0  0  0  0  0  0
    4.0397   16.0229   10.8280 C   0  0  0  0  0  0  0  0  0  0  0  0
    4.1906   15.9564    9.9120 H   0  0  0  0  0  0  0  0  0  0  0  0
    5.0421   15.6706   11.7111 C   0  0  0  0  0  0  0  0  0  0  0  0
    5.8734   15.3955   11.3964 H   0  0  0  0  0  0  0  0  0  0  0  0
    4.7902   15.7335   13.0734 C   0  0  0  0  0  0  0  0  0  0  0  0
    5.4560   15.4962   13.6771 H   0  0  0  0  0  0  0  0  0  0  0  0
    2.3873   17.8116   15.4810 C   0  0  0  0  0  0  0  0  0  0  0  0
    1.2288   17.9878   16.2208 C   0  0  0  0  0  0  0  0  0  0  0  0
    0.8493   17.2651   16.6671 H   0  0  0  0  0  0  0  0  0  0  0  0
    0.6416   19.2246   16.2984 C   0  0  0  0  0  0  0  0  0  0  0  0
   -0.1410   19.3253   16.7893 H   0  0  0  0  0  0  0  0  0  0  0  0
    1.1797   20.3086   15.6689 C   0  0  0  0  0  0  0  0  0  0  0  0
    0.7807   21.1445   15.7511 H   0  0  0  0  0  0  0  0  0  0  0  0
    2.3105   20.1522   14.9173 C   0  0  0  0  0  0  0  0  0  0  0  0
    2.6845   20.8839   14.4827 H   0  0  0  0  0  0  0  0  0  0  0  0
    2.8978   18.9010   14.8045 C   0  0  0  0  0  0  0  0  0  0  0  0
    3.6476   18.7950   14.2643 H   0  0  0  0  0  0  0  0  0  0  0  0
   -0.0384   11.9241   14.9008 C   0  0  0  0  0  0  0  0  0  0  0  0
    0.2645   10.6046   15.1310 C   0  0  0  0  0  0  0  0  0  0  0  0
    1.1525   10.3296   15.1075 H   0  0  0  0  0  0  0  0  0  0  0  0
   -0.7155    9.6806   15.3964 C   0  0  0  0  0  0  0  0  0  0  0  0
   -0.4906    8.7890   15.5326 H   0  0  0  0  0  0  0  0  0  0  0  0
   -2.0231   10.0761   15.4645 C   0  0  0  0  0  0  0  0  0  0  0  0
   -2.6902    9.4559   15.6524 H   0  0  0  0  0  0  0  0  0  0  0  0
   -2.3412   11.3794   15.2578 C   0  0  0  0  0  0  0  0  0  0  0  0
   -3.2309   11.6455   15.3025 H   0  0  0  0  0  0  0  0  0  0  0  0
   -1.3754   12.3053   14.9830 C   0  0  0  0  0  0  0  0  0  0  0  0
   -1.6118   13.1951   14.8491 H   0  0  0  0  0  0  0  0  0  0  0  0
    2.4509   12.3178   13.5103 C   0  0  0  0  0  0  0  0  0  0  0  0
    3.7910   12.6378   13.6066 C   0  0  0  0  0  0  0  0  0  0  0  0
    4.0732   13.2688   14.2291 H   0  0  0  0  0  0  0  0  0  0  0  0
    4.7180   12.0230   12.7775 C   0  0  0  0  0  0  0  0  0  0  0  0
    5.6198   12.2387   12.8503 H   0  0  0  0  0  0  0  0  0  0  0  0
    4.3080   11.0990   11.8521 C   0  0  0  0  0  0  0  0  0  0  0  0
    4.9289   10.6891   11.2954 H   0  0  0  0  0  0  0  0  0  0  0  0
    2.9794   10.7826   11.7511 C   0  0  0  0  0  0  0  0  0  0  0  0
    2.7027   10.1570   11.1216 H   0  0  0  0  0  0  0  0  0  0  0  0
    2.0548   11.3740   12.5685 C   0  0  0  0  0  0  0  0  0  0  0  0
    1.1572   11.1439   12.4933 H   0  0  0  0  0  0  0  0  0  0  0  0
    0.3575   14.3564   13.5033 C   0  0  0  0  0  0  0  0  0  0  0  0
   -0.3944   15.3542   14.1116 C   0  0  0  0  0  0  0  0  0  0  0  0
   -0.3893   15.4333   15.0394 H   0  0  0  0  0  0  0  0  0  0  0  0
   -1.1489   16.2296   13.3553 C   0  0  0  0  0  0  0  0  0  0  0  0
   -1.6455   16.8984   13.7687 H   0  0  0  0  0  0  0  0  0  0  0  0
   -1.1627   16.1038   11.9813 C   0  0  0  0  0  0  0  0  0  0  0  0
   -1.6820   16.6791   11.4669 H   0  0  0  0  0  0  0  0  0  0  0  0
   -0.4181   15.1402   11.3706 C   0  0  0  0  0  0  0  0  0  0  0  0
   -0.4149   15.0755   10.4428 H   0  0  0  0  0  0  0  0  0  0  0  0
    0.3313   14.2594   12.1269 C   0  0  0  0  0  0  0  0  0  0  0  0
    0.8241   13.5942   11.7017 H   0  0  0  0  0  0  0  0  0  0  0  0
  1  4  1  0  0  0  0
  2 18  1  0  0  0  0
  3 27  2  0  0  0  0
  4 32  1  0  0  0  0
  5  1  1  0  0  0  0
  6  7  1  0  0  0  0
  8  1  1  0  0  0  0
  9  8  1  0  0  0  0
 10  6  1  0  0  0  0
 11 10  1  0  0  0  0
 12  6  1  0  0  0  0
 13 12  1  0  0  0  0
 14  6  1  0  0  0  0
 15 14  1  0  0  0  0
 16  1  1  0  0  0  0
 17 16  1  0  0  0  0
 18  1  1  0  0  0  0
 19 10  1  0  0  0  0
 20 19  1  0  0  0  0
 21 12  1  0  0  0  0
 22 21  1  0  0  0  0
 23  1  1  0  0  0  0
 24 23  1  0  0  0  0
 25 18  1  0  0  0  0
 26 21  1  0  0  0  0
 27  2  1  0  0  0  0
 28 27  1  0  0  0  0
 29 28  1  0  0  0  0
 30 28  1  0  0  0  0
 31 28  1  0  0  0  0
 32 33  4  0  0  0  0
 33 34  1  0  0  0  0
 35 33  4  0  0  0  0
 36 35  1  0  0  0  0
 37 35  4  0  0  0  0
 38 37  1  0  0  0  0
 39 37  4  0  0  0  0
 40 39  1  0  0  0  0
 41 32  4  0  0  0  0
 42 41  1  0  0  0  0
 43  4  1  0  0  0  0
 44 43  4  0  0  0  0
 45 44  1  0  0  0  0
 46 44  4  0  0  0  0
 47 46  1  0  0  0  0
 48 46  4  0  0  0  0
 49 48  1  0  0  0  0
 50 48  4  0  0  0  0
 51 50  1  0  0  0  0
 52 43  4  0  0  0  0
 53 52  1  0  0  0  0
 54  4  1  0  0  0  0
 55 54  4  0  0  0  0
 56 55  1  0  0  0  0
 57 55  4  0  0  0  0
 58 57  1  0  0  0  0
 59 57  4  0  0  0  0
 60 59  1  0  0  0  0
 61 59  4  0  0  0  0
 62 61  1  0  0  0  0
 63 54  4  0  0  0  0
 64 63  1  0  0  0  0
 65  5  1  0  0  0  0
 66 65  4  0  0  0  0
 67 66  1  0  0  0  0
 68 66  4  0  0  0  0
 69 68  1  0  0  0  0
 70 68  4  0  0  0  0
 71 70  1  0  0  0  0
 72 70  4  0  0  0  0
 73 72  1  0  0  0  0
 74 65  4  0  0  0  0
 75 74  1  0  0  0  0
 76  5  1  0  0  0  0
 77 76  4  0  0  0  0
 78 77  1  0  0  0  0
 79 77  4  0  0  0  0
 80 79  1  0  0  0  0
 81 79  4  0  0  0  0
 82 81  1  0  0  0  0
 83 81  4  0  0  0  0
 84 83  1  0  0  0  0
 85 76  4  0  0  0  0
 86 85  1  0  0  0  0
 87  5  1  0  0  0  0
 88 87  4  0  0  0  0
 89 88  1  0  0  0  0
 90 88  4  0  0  0  0
 91 90  1  0  0  0  0
 92 90  4  0  0  0  0
 93 92  1  0  0  0  0
 94 92  4  0  0  0  0
 95 94  1  0  0  0  0
 96 87  4  0  0  0  0
 97 96  1  0  0  0  0
  6  8  1  0  0  0  0
  6 16  1  0  0  0  0
  8 10  1  0  0  0  0
  8 16  1  0  0  0  0
  8 18  1  0  0  0  0
 10 12  1  0  0  0  0
 10 18  1  0  0  0  0
 12 14  1  0  0  0  0
 12 19  1  0  0  0  0
 14 16  1  0  0  0  0
 14 21  1  0  0  0  0
 14 23  1  0  0  0  0
 16 23  1  0  0  0  0
 18 19  1  0  0  0  0
 19 21  1  0  0  0  0
 19 25  1  0  0  0  0
 21 23  1  0  0  0  0
 23 26  1  0  0  0  0
 39 41  4  0  0  0  0
 50 52  4  0  0  0  0
 61 63  4  0  0  0  0
 72 74  4  0  0  0  0
 83 85  4  0  0  0  0
 94 96  4  0  0  0  0
M  END
$$$$
IRUREV

From CSD data. Using bond type 'Any'. Matching problem. No disordered atoms. Largest molecule.
116120  0  0  0  0  0  0  0  0999 V2000
    5.6430    6.0698    0.6505 P   0  0  0  0  0  0  0  0  0  0  0  0
    3.6037    7.8425    1.3238 O   0  0  0  0  0  0  0  0  0  0  0  0
    3.9936    6.9213    0.6524 C   0  0  0  0  0  0  0  0  0  0  0  0
    5.7600    5.1320    2.4259 B   0  0  0  0  0  0  0  0  0  0  0  0
    5.1259    4.1837    2.3615 H   0  0  0  0  0  0  0  0  0  0  0  0
    5.3620    5.8732    3.1265 H   0  0  0  0  0  0  0  0  0  0  0  0
    7.2511    4.7946    2.7344 C   0  0  0  0  0  0  0  0  0  0  0  0
    8.0569    5.3202    3.6078 N   0  0  0  0  0  0  0  0  0  0  0  0
    8.1088    3.6832    2.0033 C   0  0  0  0  0  0  0  0  0  0  0  0
    9.5592    3.9533    2.4361 C   0  0  0  0  0  0  0  0  0  0  0  0
   10.0438    4.4141    1.7335 H   0  0  0  0  0  0  0  0  0  0  0  0
   10.0158    3.1202    2.6335 H   0  0  0  0  0  0  0  0  0  0  0  0
    9.4684    4.8550    3.7298 C   0  0  0  0  0  0  0  0  0  0  0  0
    7.9598    3.7135    0.4949 C   0  0  0  0  0  0  0  0  0  0  0  0
    8.5149    3.0335    0.1049 H   0  0  0  0  0  0  0  0  0  0  0  0
    8.2279    4.5735    0.1635 H   0  0  0  0  0  0  0  0  0  0  0  0
    7.0434    3.5512    0.2605 H   0  0  0  0  0  0  0  0  0  0  0  0
    7.5878    2.3243    2.5231 C   0  0  0  0  0  0  0  0  0  0  0  0
    8.0832    1.6126    2.1106 H   0  0  0  0  0  0  0  0  0  0  0  0
    6.6573    2.2340    2.3060 H   0  0  0  0  0  0  0  0  0  0  0  0
    7.7000    2.2813    3.4757 H   0  0  0  0  0  0  0  0  0  0  0  0
   10.4710    6.0162    3.5671 C   0  0  0  0  0  0  0  0  0  0  0  0
   11.3655    5.6673    3.5538 H   0  0  0  0  0  0  0  0  0  0  0  0
   10.3764    6.6262    4.3019 H   0  0  0  0  0  0  0  0  0  0  0  0
   10.2956    6.4773    2.7434 H   0  0  0  0  0  0  0  0  0  0  0  0
    9.7436    4.1218    4.9784 C   0  0  0  0  0  0  0  0  0  0  0  0
   10.6574    3.8273    4.9821 H   0  0  0  0  0  0  0  0  0  0  0  0
    9.1616    3.3613    5.0384 H   0  0  0  0  0  0  0  0  0  0  0  0
    9.5918    4.7011    5.7294 H   0  0  0  0  0  0  0  0  0  0  0  0
    7.5758    6.3145    4.6115 C   0  0  0  0  0  0  0  0  0  0  0  0
    7.7314    7.6867    4.3603 C   0  0  0  0  0  0  0  0  0  0  0  0
    7.3984    8.5687    5.3908 C   0  0  0  0  0  0  0  0  0  0  0  0
    7.4825    9.4838    5.2478 H   0  0  0  0  0  0  0  0  0  0  0  0
    6.9483    8.1194    6.6152 C   0  0  0  0  0  0  0  0  0  0  0  0
    6.7776    8.7231    7.3017 H   0  0  0  0  0  0  0  0  0  0  0  0
    6.7521    6.7620    6.8147 C   0  0  0  0  0  0  0  0  0  0  0  0
    6.4302    6.4652    7.6351 H   0  0  0  0  0  0  0  0  0  0  0  0
    7.0260    5.8326    5.8146 C   0  0  0  0  0  0  0  0  0  0  0  0
    6.5905    4.3883    6.0329 C   0  0  0  0  0  0  0  0  0  0  0  0
    6.9548    3.8447    5.3034 H   0  0  0  0  0  0  0  0  0  0  0  0
    8.1285    8.2697    3.0109 C   0  0  0  0  0  0  0  0  0  0  0  0
    8.3870    7.5327    2.4187 H   0  0  0  0  0  0  0  0  0  0  0  0
    7.0794    3.7988    7.3607 C   0  0  0  0  0  0  0  0  0  0  0  0
    6.7747    2.8919    7.4396 H   0  0  0  0  0  0  0  0  0  0  0  0
    8.0389    3.8173    7.3851 H   0  0  0  0  0  0  0  0  0  0  0  0
    6.7307    4.3181    8.0890 H   0  0  0  0  0  0  0  0  0  0  0  0
    5.0568    4.3150    5.9678 C   0  0  0  0  0  0  0  0  0  0  0  0
    4.7737    3.4079    6.1044 H   0  0  0  0  0  0  0  0  0  0  0  0
    4.6803    4.8740    6.6516 H   0  0  0  0  0  0  0  0  0  0  0  0
    4.7581    4.6172    5.1070 H   0  0  0  0  0  0  0  0  0  0  0  0
    9.3097    9.2435    3.1182 C   0  0  0  0  0  0  0  0  0  0  0  0
    9.5237    9.5843    2.2466 H   0  0  0  0  0  0  0  0  0  0  0  0
    9.0724    9.9717    3.6970 H   0  0  0  0  0  0  0  0  0  0  0  0
   10.0717    8.7839    3.4780 H   0  0  0  0  0  0  0  0  0  0  0  0
    6.9294    8.9945    2.3882 C   0  0  0  0  0  0  0  0  0  0  0  0
    7.1832    9.3607    1.5378 H   0  0  0  0  0  0  0  0  0  0  0  0
    6.2078    8.3732    2.2665 H   0  0  0  0  0  0  0  0  0  0  0  0
    6.6465    9.7036    2.9703 H   0  0  0  0  0  0  0  0  0  0  0  0
    3.1362    5.8985   -0.6505 P   0  0  0  0  0  0  0  0  0  0  0  0
    5.1755    4.1258   -1.3238 O   0  0  0  0  0  0  0  0  0  0  0  0
    4.7856    5.0470   -0.6524 C   0  0  0  0  0  0  0  0  0  0  0  0
    3.0192    6.8363   -2.4259 B   0  0  0  0  0  0  0  0  0  0  0  0
    3.6534    7.7846   -2.3615 H   0  0  0  0  0  0  0  0  0  0  0  0
    3.4172    6.0951   -3.1265 H   0  0  0  0  0  0  0  0  0  0  0  0
    1.5281    7.1737   -2.7344 C   0  0  0  0  0  0  0  0  0  0  0  0
    0.7223    6.6481   -3.6078 N   0  0  0  0  0  0  0  0  0  0  0  0
    0.6704    8.2851   -2.0033 C   0  0  0  0  0  0  0  0  0  0  0  0
   -0.7800    8.0150   -2.4361 C   0  0  0  0  0  0  0  0  0  0  0  0
   -1.2646    7.5542   -1.7335 H   0  0  0  0  0  0  0  0  0  0  0  0
   -1.2366    8.8481   -2.6335 H   0  0  0  0  0  0  0  0  0  0  0  0
   -0.6891    7.1133   -3.7298 C   0  0  0  0  0  0  0  0  0  0  0  0
    0.8194    8.2548   -0.4949 C   0  0  0  0  0  0  0  0  0  0  0  0
    0.2644    8.9348   -0.1049 H   0  0  0  0  0  0  0  0  0  0  0  0
    0.5513    7.3948   -0.1635 H   0  0  0  0  0  0  0  0  0  0  0  0
    1.7359    8.4171   -0.2605 H   0  0  0  0  0  0  0  0  0  0  0  0
    1.1914    9.6440   -2.5231 C   0  0  0  0  0  0  0  0  0  0  0  0
    0.6960   10.3557   -2.1106 H   0  0  0  0  0  0  0  0  0  0  0  0
    2.1219    9.7343   -2.3060 H   0  0  0  0  0  0  0  0  0  0  0  0
    1.0792    9.6870   -3.4757 H   0  0  0  0  0  0  0  0  0  0  0  0
   -1.6918    5.9521   -3.5671 C   0  0  0  0  0  0  0  0  0  0  0  0
   -2.5863    6.3010   -3.5538 H   0  0  0  0  0  0  0  0  0  0  0  0
   -1.5972    5.3421   -4.3019 H   0  0  0  0  0  0  0  0  0  0  0  0
   -1.5164    5.4910   -2.7434 H   0  0  0  0  0  0  0  0  0  0  0  0
   -0.9643    7.8465   -4.9784 C   0  0  0  0  0  0  0  0  0  0  0  0
   -1.8781    8.1410   -4.9821 H   0  0  0  0  0  0  0  0  0  0  0  0
   -0.3824    8.6070   -5.0384 H   0  0  0  0  0  0  0  0  0  0  0  0
   -0.8125    7.2672   -5.7294 H   0  0  0  0  0  0  0  0  0  0  0  0
    1.2034    5.6538   -4.6115 C   0  0  0  0  0  0  0  0  0  0  0  0
    1.0478    4.2816   -4.3603 C   0  0  0  0  0  0  0  0  0  0  0  0
    1.3808    3.3996   -5.3908 C   0  0  0  0  0  0  0  0  0  0  0  0
    1.2967    2.4845   -5.2478 H   0  0  0  0  0  0  0  0  0  0  0  0
    1.8309    3.8489   -6.6152 C   0  0  0  0  0  0  0  0  0  0  0  0
    2.0016    3.2452   -7.3017 H   0  0  0  0  0  0  0  0  0  0  0  0
    2.0271    5.2063   -6.8147 C   0  0  0  0  0  0  0  0  0  0  0  0
    2.3490    5.5031   -7.6351 H   0  0  0  0  0  0  0  0  0  0  0  0
    1.7532    6.1357   -5.8146 C   0  0  0  0  0  0  0  0  0  0  0  0
    2.1887    7.5800   -6.0329 C   0  0  0  0  0  0  0  0  0  0  0  0
    1.8245    8.1236   -5.3034 H   0  0  0  0  0  0  0  0  0  0  0  0
    0.6507    3.6986   -3.0109 C   0  0  0  0  0  0  0  0  0  0  0  0
    0.3922    4.4356   -2.4187 H   0  0  0  0  0  0  0  0  0  0  0  0
    1.6998    8.1695   -7.3607 C   0  0  0  0  0  0  0  0  0  0  0  0
    2.0045    9.0764   -7.4396 H   0  0  0  0  0  0  0  0  0  0  0  0
    0.7403    8.1510   -7.3851 H   0  0  0  0  0  0  0  0  0  0  0  0
    2.0485    7.6503   -8.0890 H   0  0  0  0  0  0  0  0  0  0  0  0
    3.7225    7.6533   -5.9678 C   0  0  0  0  0  0  0  0  0  0  0  0
    4.0056    8.5604   -6.1044 H   0  0  0  0  0  0  0  0  0  0  0  0
    4.0989    7.0943   -6.6516 H   0  0  0  0  0  0  0  0  0  0  0  0
    4.0211    7.3511   -5.1070 H   0  0  0  0  0  0  0  0  0  0  0  0
   -0.5304    2.7248   -3.1182 C   0  0  0  0  0  0  0  0  0  0  0  0
   -0.7444    2.3840   -2.2466 H   0  0  0  0  0  0  0  0  0  0  0  0
   -0.2932    1.9966   -3.6970 H   0  0  0  0  0  0  0  0  0  0  0  0
   -1.2925    3.1844   -3.4780 H   0  0  0  0  0  0  0  0  0  0  0  0
    1.8498    2.9738   -2.3882 C   0  0  0  0  0  0  0  0  0  0  0  0
    1.5961    2.6076   -1.5378 H   0  0  0  0  0  0  0  0  0  0  0  0
    2.5715    3.5951   -2.2665 H   0  0  0  0  0  0  0  0  0  0  0  0
    2.1327    2.2648   -2.9703 H   0  0  0  0  0  0  0  0  0  0  0  0
  1  3  1  0  0  0  0
  2  3  2  0  0  0  0
  3 59  1  0  0  0  0
  4  1  1  0  0  0  0
  5  4  1  0  0  0  0
  6  4  1  0  0  0  0
  7  4  1  0  0  0  0
  8  7  1  0  0  0  0
  9  7  1  0  0  0  0
 10  9  1  0  0  0  0
 11 10  1  0  0  0  0
 12 10  1  0  0  0  0
 13  8  1  0  0  0  0
 14  9  1  0  0  0  0
 15 14  1  0  0  0  0
 16 14  1  0  0  0  0
 17 14  1  0  0  0  0
 18  9  1  0  0  0  0
 19 18  1  0  0  0  0
 20 18  1  0  0  0  0
 21 18  1  0  0  0  0
 22 13  1  0  0  0  0
 23 22  1  0  0  0  0
 24 22  1  0  0  0  0
 25 22  1  0  0  0  0
 26 13  1  0  0  0  0
 27 26  1  0  0  0  0
 28 26  1  0  0  0  0
 29 26  1  0  0  0  0
 30  8  1  0  0  0  0
 31 30  4  0  0  0  0
 32 31  4  0  0  0  0
 33 32  1  0  0  0  0
 34 32  4  0  0  0  0
 35 34  1  0  0  0  0
 36 34  4  0  0  0  0
 37 36  1  0  0  0  0
 38 30  4  0  0  0  0
 39 38  1  0  0  0  0
 40 39  1  0  0  0  0
 41 31  1  0  0  0  0
 42 41  1  0  0  0  0
 43 39  1  0  0  0  0
 44 43  1  0  0  0  0
 45 43  1  0  0  0  0
 46 43  1  0  0  0  0
 47 39  1  0  0  0  0
 48 47  1  0  0  0  0
 49 47  1  0  0  0  0
 50 47  1  0  0  0  0
 51 41  1  0  0  0  0
 52 51  1  0  0  0  0
 53 51  1  0  0  0  0
 54 51  1  0  0  0  0
 55 41  1  0  0  0  0
 56 55  1  0  0  0  0
 57 55  1  0  0  0  0
 58 55  1  0  0  0  0
 59 61  1  0  0  0  0
 60 61  2  0  0  0  0
 61  1  1  0  0  0  0
 62 59  1  0  0  0  0
 63 62  1  0  0  0  0
 64 62  1  0  0  0  0
 65 62  1  0  0  0  0
 66 65  1  0  0  0  0
 67 65  1  0  0  0  0
 68 67  1  0  0  0  0
 69 68  1  0  0  0  0
 70 68  1  0  0  0  0
 71 66  1  0  0  0  0
 72 67  1  0  0  0  0
 73 72  1  0  0  0  0
 74 72  1  0  0  0  0
 75 72  1  0  0  0  0
 76 67  1  0  0  0  0
 77 76  1  0  0  0  0
 78 76  1  0  0  0  0
 79 76  1  0  0  0  0
 80 71  1  0  0  0  0
 81 80  1  0  0  0  0
 82 80  1  0  0  0  0
 83 80  1  0  0  0  0
 84 71  1  0  0  0  0
 85 84  1  0  0  0  0
 86 84  1  0  0  0  0
 87 84  1  0  0  0  0
 88 66  1  0  0  0  0
 89 88  4  0  0  0  0
 90 89  4  0  0  0  0
 91 90  1  0  0  0  0
 92 90  4  0  0  0  0
 93 92  1  0  0  0  0
 94 92  4  0  0  0  0
 95 94  1  0  0  0  0
 96 88  4  0  0  0  0
 97 96  1  0  0  0  0
 98 97  1  0  0  0  0
 99 89  1  0  0  0  0
100 99  1  0  0  0  0
101 97  1  0  0  0  0
102101  1  0  0  0  0
103101  1  0  0  0  0
104101  1  0  0  0  0
105 97  1  0  0  0  0
106105  1  0  0  0  0
107105  1  0  0  0  0
108105  1  0  0  0  0
109 99  1  0  0  0  0
110109  1  0  0  0  0
111109  1  0  0  0  0
112109  1  0  0  0  0
113 99  1  0  0  0  0
114113  1  0  0  0  0
115113  1  0  0  0  0
116113  1  0  0  0  0
 10 13  1  0  0  0  0
 36 38  4  0  0  0  0
 68 71  1  0  0  0  0
 94 96  4  0  0  0  0
M  END
$$$$
IRUROF

From CSD data. Using bond type 'Any'. No disordered atoms. Largest molecule.
130136  0  0  0  0  0  0  0  0999 V2000
    3.9173    3.0684    6.5889 H   0  0  0  0  0  0  0  0  0  0  0  0
    2.3581    2.2647    5.9568 H   0  0  0  0  0  0  0  0  0  0  0  0
    3.3986    2.4248    5.7949 B   0  0  0  0  0  0  0  0  0  0  0  0
    4.1080    0.5723    5.8802 P   0  0  0  0  0  0  0  0  0  0  0  0
    5.5582    0.3856    7.0073 C   0  0  0  0  0  0  0  0  0  0  0  0
    6.7066    0.7807    6.9030 O   0  0  0  0  0  0  0  0  0  0  0  0
    3.6937    3.1226    4.3814 C   0  0  0  0  0  0  0  0  0  0  0  0
    2.7682    3.6094    3.6045 N   0  0  0  0  0  0  0  0  0  0  0  0
    3.2662    4.3056    2.3384 C   0  0  0  0  0  0  0  0  0  0  0  0
    4.7685    4.3956    2.6468 C   0  0  0  0  0  0  0  0  0  0  0  0
    5.0065    5.3163    2.9221 H   0  0  0  0  0  0  0  0  0  0  0  0
    5.2971    4.1615    1.8432 H   0  0  0  0  0  0  0  0  0  0  0  0
    5.0683    3.4047    3.7883 C   0  0  0  0  0  0  0  0  0  0  0  0
    2.9394    3.4621    1.1150 C   0  0  0  0  0  0  0  0  0  0  0  0
    1.9668    3.3944    1.0153 H   0  0  0  0  0  0  0  0  0  0  0  0
    3.3197    2.5657    1.2252 H   0  0  0  0  0  0  0  0  0  0  0  0
    3.3210    3.8831    0.3165 H   0  0  0  0  0  0  0  0  0  0  0  0
    2.6323    5.6765    2.1549 C   0  0  0  0  0  0  0  0  0  0  0  0
    2.8386    6.2384    2.9309 H   0  0  0  0  0  0  0  0  0  0  0  0
    1.6607    5.5786    2.0717 H   0  0  0  0  0  0  0  0  0  0  0  0
    2.9890    6.0955    1.3440 H   0  0  0  0  0  0  0  0  0  0  0  0
    5.9912    4.0155    4.8641 C   0  0  0  0  0  0  0  0  0  0  0  0
    5.6040    4.8695    5.1815 H   0  0  0  0  0  0  0  0  0  0  0  0
    6.0466    3.3991    5.6368 H   0  0  0  0  0  0  0  0  0  0  0  0
    7.3965    4.2690    4.3169 C   0  0  0  0  0  0  0  0  0  0  0  0
    7.3508    4.9288    3.5803 H   0  0  0  0  0  0  0  0  0  0  0  0
    7.9671    4.6462    5.0326 H   0  0  0  0  0  0  0  0  0  0  0  0
    8.0121    2.9753    3.8040 C   0  0  0  0  0  0  0  0  0  0  0  0
    8.1277    2.3440    4.5578 H   0  0  0  0  0  0  0  0  0  0  0  0
    8.9059    3.1644    3.4227 H   0  0  0  0  0  0  0  0  0  0  0  0
    7.1274    2.3334    2.7336 C   0  0  0  0  0  0  0  0  0  0  0  0
    7.5234    1.4712    2.4511 H   0  0  0  0  0  0  0  0  0  0  0  0
    7.0846    2.9258    1.9415 H   0  0  0  0  0  0  0  0  0  0  0  0
    5.7120    2.0947    3.2711 C   0  0  0  0  0  0  0  0  0  0  0  0
    5.7493    1.4353    4.0085 H   0  0  0  0  0  0  0  0  0  0  0  0
    5.1485    1.7156    2.5509 H   0  0  0  0  0  0  0  0  0  0  0  0
    1.3416    3.5011    3.9011 C   0  0  0  0  0  0  0  0  0  0  0  0
    0.6480    2.3459    3.5044 C   0  0  0  0  0  0  0  0  0  0  0  0
   -0.7167    2.2871    3.8053 C   0  0  0  0  0  0  0  0  0  0  0  0
   -1.2198    1.5281    3.5342 H   0  0  0  0  0  0  0  0  0  0  0  0
   -1.3493    3.3084    4.4881 C   0  0  0  0  0  0  0  0  0  0  0  0
   -2.2810    3.2546    4.6655 H   0  0  0  0  0  0  0  0  0  0  0  0
   -0.6266    4.4102    4.9139 C   0  0  0  0  0  0  0  0  0  0  0  0
   -1.0660    5.0967    5.4020 H   0  0  0  0  0  0  0  0  0  0  0  0
    0.7386    4.5290    4.6376 C   0  0  0  0  0  0  0  0  0  0  0  0
    1.5090    5.7023    5.2351 C   0  0  0  0  0  0  0  0  0  0  0  0
    2.4381    5.6788    4.8657 H   0  0  0  0  0  0  0  0  0  0  0  0
    0.8902    7.0553    4.8648 C   0  0  0  0  0  0  0  0  0  0  0  0
    1.4667    7.7781    5.1895 H   0  0  0  0  0  0  0  0  0  0  0  0
    0.0047    7.1334    5.2775 H   0  0  0  0  0  0  0  0  0  0  0  0
    0.8033    7.1192    3.8907 H   0  0  0  0  0  0  0  0  0  0  0  0
    1.6059    5.5715    6.7577 C   0  0  0  0  0  0  0  0  0  0  0  0
    0.7080    5.6188    7.1474 H   0  0  0  0  0  0  0  0  0  0  0  0
    2.1554    6.3006    7.1139 H   0  0  0  0  0  0  0  0  0  0  0  0
    2.0163    4.7114    6.9862 H   0  0  0  0  0  0  0  0  0  0  0  0
    1.3053    1.1177    2.8931 C   0  0  0  0  0  0  0  0  0  0  0  0
    2.2829    1.3035    2.7935 H   0  0  0  0  0  0  0  0  0  0  0  0
    1.1399   -0.0924    3.8191 C   0  0  0  0  0  0  0  0  0  0  0  0
    1.4547    0.1386    4.7180 H   0  0  0  0  0  0  0  0  0  0  0  0
    1.6651   -0.8435    3.4721 H   0  0  0  0  0  0  0  0  0  0  0  0
    0.1942   -0.3461    3.8594 H   0  0  0  0  0  0  0  0  0  0  0  0
    0.7373    0.7764    1.5056 C   0  0  0  0  0  0  0  0  0  0  0  0
   -0.2221    0.5917    1.5818 H   0  0  0  0  0  0  0  0  0  0  0  0
    1.1949   -0.0143    1.1507 H   0  0  0  0  0  0  0  0  0  0  0  0
    0.8772    1.5339    0.8999 H   0  0  0  0  0  0  0  0  0  0  0  0
    4.9189   -3.0684    7.6481 H   0  0  0  0  0  0  0  0  0  0  0  0
    6.4781   -2.2647    8.2802 H   0  0  0  0  0  0  0  0  0  0  0  0
    5.4377   -2.4248    8.4421 B   0  0  0  0  0  0  0  0  0  0  0  0
    4.7282   -0.5723    8.3568 P   0  0  0  0  0  0  0  0  0  0  0  0
    3.2780   -0.3856    7.2297 C   0  0  0  0  0  0  0  0  0  0  0  0
    2.1296   -0.7807    7.3340 O   0  0  0  0  0  0  0  0  0  0  0  0
    5.1425   -3.1226    9.8556 C   0  0  0  0  0  0  0  0  0  0  0  0
    6.0680   -3.6094   10.6325 N   0  0  0  0  0  0  0  0  0  0  0  0
    5.5700   -4.3056   11.8986 C   0  0  0  0  0  0  0  0  0  0  0  0
    4.0677   -4.3956   11.5902 C   0  0  0  0  0  0  0  0  0  0  0  0
    3.8297   -5.3163   11.3149 H   0  0  0  0  0  0  0  0  0  0  0  0
    3.5391   -4.1615   12.3938 H   0  0  0  0  0  0  0  0  0  0  0  0
    3.7679   -3.4047   10.4487 C   0  0  0  0  0  0  0  0  0  0  0  0
    5.8968   -3.4621   13.1220 C   0  0  0  0  0  0  0  0  0  0  0  0
    6.8694   -3.3944   13.2217 H   0  0  0  0  0  0  0  0  0  0  0  0
    5.5165   -2.5657   13.0118 H   0  0  0  0  0  0  0  0  0  0  0  0
    5.5152   -3.8831   13.9205 H   0  0  0  0  0  0  0  0  0  0  0  0
    6.2039   -5.6765   12.0821 C   0  0  0  0  0  0  0  0  0  0  0  0
    5.9976   -6.2384   11.3061 H   0  0  0  0  0  0  0  0  0  0  0  0
    7.1755   -5.5786   12.1653 H   0  0  0  0  0  0  0  0  0  0  0  0
    5.8472   -6.0955   12.8930 H   0  0  0  0  0  0  0  0  0  0  0  0
    2.8450   -4.0155    9.3729 C   0  0  0  0  0  0  0  0  0  0  0  0
    3.2322   -4.8695    9.0555 H   0  0  0  0  0  0  0  0  0  0  0  0
    2.7896   -3.3991    8.6002 H   0  0  0  0  0  0  0  0  0  0  0  0
    1.4397   -4.2690    9.9201 C   0  0  0  0  0  0  0  0  0  0  0  0
    1.4854   -4.9288   10.6567 H   0  0  0  0  0  0  0  0  0  0  0  0
    0.8691   -4.6462    9.2044 H   0  0  0  0  0  0  0  0  0  0  0  0
    0.8241   -2.9753   10.4330 C   0  0  0  0  0  0  0  0  0  0  0  0
    0.7085   -2.3440    9.6792 H   0  0  0  0  0  0  0  0  0  0  0  0
   -0.0697   -3.1644   10.8143 H   0  0  0  0  0  0  0  0  0  0  0  0
    1.7088   -2.3334   11.5034 C   0  0  0  0  0  0  0  0  0  0  0  0
    1.3128   -1.4712   11.7859 H   0  0  0  0  0  0  0  0  0  0  0  0
    1.7516   -2.9258   12.2955 H   0  0  0  0  0  0  0  0  0  0  0  0
    3.1242   -2.0947   10.9659 C   0  0  0  0  0  0  0  0  0  0  0  0
    3.0869   -1.4353   10.2285 H   0  0  0  0  0  0  0  0  0  0  0  0
    3.6877   -1.7156   11.6861 H   0  0  0  0  0  0  0  0  0  0  0  0
    7.4946   -3.5011   10.3359 C   0  0  0  0  0  0  0  0  0  0  0  0
    8.1882   -2.3459   10.7326 C   0  0  0  0  0  0  0  0  0  0  0  0
    9.5529   -2.2871   10.4317 C   0  0  0  0  0  0  0  0  0  0  0  0
   10.0560   -1.5281   10.7028 H   0  0  0  0  0  0  0  0  0  0  0  0
   10.1855   -3.3084    9.7489 C   0  0  0  0  0  0  0  0  0  0  0  0
   11.1172   -3.2546    9.5715 H   0  0  0  0  0  0  0  0  0  0  0  0
    9.4628   -4.4102    9.3231 C   0  0  0  0  0  0  0  0  0  0  0  0
    9.9022   -5.0967    8.8350 H   0  0  0  0  0  0  0  0  0  0  0  0
    8.0976   -4.5290    9.5994 C   0  0  0  0  0  0  0  0  0  0  0  0
    7.3272   -5.7023    9.0019 C   0  0  0  0  0  0  0  0  0  0  0  0
    6.3981   -5.6788    9.3713 H   0  0  0  0  0  0  0  0  0  0  0  0
    7.9460   -7.0553    9.3722 C   0  0  0  0  0  0  0  0  0  0  0  0
    7.3695   -7.7781    9.0475 H   0  0  0  0  0  0  0  0  0  0  0  0
    8.8315   -7.1334    8.9595 H   0  0  0  0  0  0  0  0  0  0  0  0
    8.0329   -7.1192   10.3463 H   0  0  0  0  0  0  0  0  0  0  0  0
    7.2304   -5.5715    7.4793 C   0  0  0  0  0  0  0  0  0  0  0  0
    8.1282   -5.6188    7.0896 H   0  0  0  0  0  0  0  0  0  0  0  0
    6.6808   -6.3006    7.1231 H   0  0  0  0  0  0  0  0  0  0  0  0
    6.8199   -4.7114    7.2508 H   0  0  0  0  0  0  0  0  0  0  0  0
    7.5309   -1.1177   11.3439 C   0  0  0  0  0  0  0  0  0  0  0  0
    6.5533   -1.3035   11.4435 H   0  0  0  0  0  0  0  0  0  0  0  0
    7.6963    0.0924   10.4179 C   0  0  0  0  0  0  0  0  0  0  0  0
    7.3815   -0.1386    9.5190 H   0  0  0  0  0  0  0  0  0  0  0  0
    7.1711    0.8435   10.7649 H   0  0  0  0  0  0  0  0  0  0  0  0
    8.6420    0.3461   10.3776 H   0  0  0  0  0  0  0  0  0  0  0  0
    8.0989   -0.7764   12.7314 C   0  0  0  0  0  0  0  0  0  0  0  0
    9.0583   -0.5917   12.6552 H   0  0  0  0  0  0  0  0  0  0  0  0
    7.6413    0.0143   13.0863 H   0  0  0  0  0  0  0  0  0  0  0  0
    7.9590   -1.5339   13.3371 H   0  0  0  0  0  0  0  0  0  0  0  0
  1  3  1  0  0  0  0
  2  3  1  0  0  0  0
  3  4  1  0  0  0  0
  4  5  1  0  0  0  0
  5  6  2  0  0  0  0
  7  3  1  0  0  0  0
  8  7  1  0  0  0  0
  9  8  1  0  0  0  0
 10  9  1  0  0  0  0
 11 10  1  0  0  0  0
 12 10  1  0  0  0  0
 13  7  1  0  0  0  0
 14  9  1  0  0  0  0
 15 14  1  0  0  0  0
 16 14  1  0  0  0  0
 17 14  1  0  0  0  0
 18  9  1  0  0  0  0
 19 18  1  0  0  0  0
 20 18  1  0  0  0  0
 21 18  1  0  0  0  0
 22 13  1  0  0  0  0
 23 22  1  0  0  0  0
 24 22  1  0  0  0  0
 25 22  1  0  0  0  0
 26 25  1  0  0  0  0
 27 25  1  0  0  0  0
 28 25  1  0  0  0  0
 29 28  1  0  0  0  0
 30 28  1  0  0  0  0
 31 28  1  0  0  0  0
 32 31  1  0  0  0  0
 33 31  1  0  0  0  0
 34 13  1  0  0  0  0
 35 34  1  0  0  0  0
 36 34  1  0  0  0  0
 37  8  1  0  0  0  0
 38 37  4  0  0  0  0
 39 38  4  0  0  0  0
 40 39  1  0  0  0  0
 41 39  4  0  0  0  0
 42 41  1  0  0  0  0
 43 41  4  0  0  0  0
 44 43  1  0  0  0  0
 45 37  4  0  0  0  0
 46 45  1  0  0  0  0
 47 46  1  0  0  0  0
 48 46  1  0  0  0  0
 49 48  1  0  0  0  0
 50 48  1  0  0  0  0
 51 48  1  0  0  0  0
 52 46  1  0  0  0  0
 53 52  1  0  0  0  0
 54 52  1  0  0  0  0
 55 52  1  0  0  0  0
 56 38  1  0  0  0  0
 57 56  1  0  0  0  0
 58 56  1  0  0  0  0
 59 58  1  0  0  0  0
 60 58  1  0  0  0  0
 61 58  1  0  0  0  0
 62 56  1  0  0  0  0
 63 62  1  0  0  0  0
 64 62  1  0  0  0  0
 65 62  1  0  0  0  0
 66 68  1  0  0  0  0
 67 68  1  0  0  0  0
 68 69  1  0  0  0  0
 69  5  1  0  0  0  0
 70  4  1  0  0  0  0
 71 70  2  0  0  0  0
 72 68  1  0  0  0  0
 73 72  1  0  0  0  0
 74 73  1  0  0  0  0
 75 74  1  0  0  0  0
 76 75  1  0  0  0  0
 77 75  1  0  0  0  0
 78 72  1  0  0  0  0
 79 74  1  0  0  0  0
 80 79  1  0  0  0  0
 81 79  1  0  0  0  0
 82 79  1  0  0  0  0
 83 74  1  0  0  0  0
 84 83  1  0  0  0  0
 85 83  1  0  0  0  0
 86 83  1  0  0  0  0
 87 78  1  0  0  0  0
 88 87  1  0  0  0  0
 89 87  1  0  0  0  0
 90 87  1  0  0  0  0
 91 90  1  0  0  0  0
 92 90  1  0  0  0  0
 93 90  1  0  0  0  0
 94 93  1  0  0  0  0
 95 93  1  0  0  0  0
 96 93  1  0  0  0  0
 97 96  1  0  0  0  0
 98 96  1  0  0  0  0
 99 78  1  0  0  0  0
100 99  1  0  0  0  0
101 99  1  0  0  0  0
102 73  1  0  0  0  0
103102  4  0  0  0  0
104103  4  0  0  0  0
105104  1  0  0  0  0
106104  4  0  0  0  0
107106  1  0  0  0  0
108106  4  0  0  0  0
109108  1  0  0  0  0
110102  4  0  0  0  0
111110  1  0  0  0  0
112111  1  0  0  0  0
113111  1  0  0  0  0
114113  1  0  0  0  0
115113  1  0  0  0  0
116113  1  0  0  0  0
117111  1  0  0  0  0
118117  1  0  0  0  0
119117  1  0  0  0  0
120117  1  0  0  0  0
121103  1  0  0  0  0
122121  1  0  0  0  0
123121  1  0  0  0  0
124123  1  0  0  0  0
125123  1  0  0  0  0
126123  1  0  0  0  0
127121  1  0  0  0  0
128127  1  0  0  0  0
129127  1  0  0  0  0
130127  1  0  0  0  0
 10 13  1  0  0  0  0
 31 34  1  0  0  0  0
 43 45  4  0  0  0  0
 69 70  1  0  0  0  0
 75 78  1  0  0  0  0
 96 99  1  0  0  0  0
108110  4  0  0  0  0
M  END
$$$$
IYANAY

From CSD data. Using bond type 'Any'. No disordered atoms. Largest molecule.
 36 35  0  0  0  0  0  0  0  0999 V2000
    5.0297    1.1684   11.1183 P   0  0  0  0  0  0  0  0  0  0  0  0
    3.5230    2.6337    9.4560 O   0  0  0  0  0  0  0  0  0  0  0  0
    3.7623   -0.9753   10.0335 O   0  0  0  0  0  0  0  0  0  0  0  0
    4.9396    2.3210   12.6344 B   0  0  0  0  0  0  0  0  0  0  0  0
    4.7834    1.9804    9.4966 C   0  0  0  0  0  0  0  0  0  0  0  0
    3.7453   -0.1241   11.1683 C   0  0  0  0  0  0  0  0  0  0  0  0
    6.6076    0.2972   10.8980 C   0  0  0  0  0  0  0  0  0  0  0  0
    3.6195    3.4992    9.7045 H   0  0  0  0  0  0  0  0  0  0  0  0
    3.1863   -0.6701    9.3926 H   0  0  0  0  0  0  0  0  0  0  0  0
    4.8369    1.5697   13.4824 H   0  0  0  0  0  0  0  0  0  0  0  0
    4.0261    3.0152   12.4773 H   0  0  0  0  0  0  0  0  0  0  0  0
    5.8378    2.9284   12.6275 H   0  0  0  0  0  0  0  0  0  0  0  0
    5.4518    2.5996    9.3811 H   0  0  0  0  0  0  0  0  0  0  0  0
    4.7832    1.2346    8.8496 H   0  0  0  0  0  0  0  0  0  0  0  0
    3.9061   -0.6701   11.9343 H   0  0  0  0  0  0  0  0  0  0  0  0
    2.9051    0.2854   11.2758 H   0  0  0  0  0  0  0  0  0  0  0  0
    7.2173    0.9679   10.5710 H   0  0  0  0  0  0  0  0  0  0  0  0
    6.5022   -0.3598   10.3053 H   0  0  0  0  0  0  0  0  0  0  0  0
    8.7014   -1.1684   11.9878 P   0  0  0  0  0  0  0  0  0  0  0  0
   10.2081   -2.6337   13.6500 O   0  0  0  0  0  0  0  0  0  0  0  0
    9.9688    0.9753   13.0726 O   0  0  0  0  0  0  0  0  0  0  0  0
    8.7914   -2.3210   10.4717 B   0  0  0  0  0  0  0  0  0  0  0  0
    8.9477   -1.9804   13.6095 C   0  0  0  0  0  0  0  0  0  0  0  0
    9.9858    0.1241   11.9378 C   0  0  0  0  0  0  0  0  0  0  0  0
    7.1235   -0.2972   12.2081 C   0  0  0  0  0  0  0  0  0  0  0  0
   10.1115   -3.4992   13.4015 H   0  0  0  0  0  0  0  0  0  0  0  0
   10.5448    0.6701   13.7135 H   0  0  0  0  0  0  0  0  0  0  0  0
    8.8941   -1.5697    9.6237 H   0  0  0  0  0  0  0  0  0  0  0  0
    9.7049   -3.0152   10.6288 H   0  0  0  0  0  0  0  0  0  0  0  0
    7.8933   -2.9284   10.4786 H   0  0  0  0  0  0  0  0  0  0  0  0
    8.2793   -2.5996   13.7250 H   0  0  0  0  0  0  0  0  0  0  0  0
    8.9479   -1.2346   14.2564 H   0  0  0  0  0  0  0  0  0  0  0  0
    9.8250    0.6701   11.1718 H   0  0  0  0  0  0  0  0  0  0  0  0
   10.8260   -0.2854   11.8303 H   0  0  0  0  0  0  0  0  0  0  0  0
    6.5138   -0.9679   12.5350 H   0  0  0  0  0  0  0  0  0  0  0  0
    7.2289    0.3598   12.8008 H   0  0  0  0  0  0  0  0  0  0  0  0
  1  4  1  0  0  0  0
  2  5  1  0  0  0  0
  3  6  1  0  0  0  0
  4 10  1  0  0  0  0
  5  1  1  0  0  0  0
  6  1  1  0  0  0  0
  7  1  1  0  0  0  0
  8  2  1  0  0  0  0
  9  3  1  0  0  0  0
 11  4  1  0  0  0  0
 12  4  1  0  0  0  0
 13  5  1  0  0  0  0
 14  5  1  0  0  0  0
 15  6  1  0  0  0  0
 16  6  1  0  0  0  0
 17  7  1  0  0  0  0
 18  7  1  0  0  0  0
 19 22  1  0  0  0  0
 20 23  1  0  0  0  0
 21 24  1  0  0  0  0
 22 28  1  0  0  0  0
 23 19  1  0  0  0  0
 24 19  1  0  0  0  0
 25  7  1  0  0  0  0
 26 20  1  0  0  0  0
 27 21  1  0  0  0  0
 29 22  1  0  0  0  0
 30 22  1  0  0  0  0
 31 23  1  0  0  0  0
 32 23  1  0  0  0  0
 33 24  1  0  0  0  0
 34 24  1  0  0  0  0
 35 25  1  0  0  0  0
 36 25  1  0  0  0  0
 19 25  1  0  0  0  0
M  END
$$$$
IYINIP

From CSD data. Using bond type 'Any'. No disordered atoms. Largest molecule.
 67 87  0  0  0  0  0  0  0  0999 V2000
    2.3697    5.1163    8.2898 Ni  0  0  0  0  0  0  0  0  0  0  0  0
    0.5015    5.9107    7.4406 Cl  0  0  0  0  0  0  0  0  0  0  0  0
    2.7304    3.4673    6.9112 P   0  0  0  0  0  0  0  0  0  0  0  0
    2.8176    6.7658    9.6235 P   0  0  0  0  0  0  0  0  0  0  0  0
    4.3666    3.0388    6.9408 O   0  0  0  0  0  0  0  0  0  0  0  0
    4.4598    6.7820   10.0288 O   0  0  0  0  0  0  0  0  0  0  0  0
    5.0454    3.5568    8.0465 C   0  0  0  0  0  0  0  0  0  0  0  0
    5.0954    5.5777    9.7115 C   0  0  0  0  0  0  0  0  0  0  0  0
    2.6112    3.8228    5.1119 C   0  0  0  0  0  0  0  0  0  0  0  0
    3.0899    3.0926    4.6241 H   0  0  0  0  0  0  0  0  0  0  0  0
    1.1566    3.8457    4.6172 C   0  0  0  0  0  0  0  0  0  0  0  0
    0.7720    2.9470    4.6882 H   0  0  0  0  0  0  0  0  0  0  0  0
    1.1345    4.1369    3.6820 H   0  0  0  0  0  0  0  0  0  0  0  0
    0.6355    4.4693    5.1659 H   0  0  0  0  0  0  0  0  0  0  0  0
    3.3207    5.1398    4.7997 C   0  0  0  0  0  0  0  0  0  0  0  0
    2.8419    5.8792    5.2322 H   0  0  0  0  0  0  0  0  0  0  0  0
    3.3341    5.2820    3.8302 H   0  0  0  0  0  0  0  0  0  0  0  0
    4.2398    5.1043    5.1372 H   0  0  0  0  0  0  0  0  0  0  0  0
    1.9315    1.8420    7.2188 C   0  0  0  0  0  0  0  0  0  0  0  0
    2.3074    1.5119    8.0850 H   0  0  0  0  0  0  0  0  0  0  0  0
    0.4163    1.9727    7.4408 C   0  0  0  0  0  0  0  0  0  0  0  0
    0.2394    2.7143    8.0562 H   0  0  0  0  0  0  0  0  0  0  0  0
    0.0702    1.1394    7.8240 H   0  0  0  0  0  0  0  0  0  0  0  0
   -0.0250    2.1458    6.5834 H   0  0  0  0  0  0  0  0  0  0  0  0
    2.2862    0.7852    6.1798 C   0  0  0  0  0  0  0  0  0  0  0  0
    1.8545    1.0064    5.3273 H   0  0  0  0  0  0  0  0  0  0  0  0
    1.9747   -0.0917    6.4861 H   0  0  0  0  0  0  0  0  0  0  0  0
    3.2582    0.7611    6.0571 H   0  0  0  0  0  0  0  0  0  0  0  0
    2.7563    8.4949    9.0036 C   0  0  0  0  0  0  0  0  0  0  0  0
    3.2534    9.0646    9.6573 H   0  0  0  0  0  0  0  0  0  0  0  0
    1.3325    9.0474    8.9028 C   0  0  0  0  0  0  0  0  0  0  0  0
    0.7835    8.4411    8.3636 H   0  0  0  0  0  0  0  0  0  0  0  0
    1.3537    9.9312    8.4786 H   0  0  0  0  0  0  0  0  0  0  0  0
    0.9470    9.1254    9.8011 H   0  0  0  0  0  0  0  0  0  0  0  0
    3.4889    8.5912    7.6653 C   0  0  0  0  0  0  0  0  0  0  0  0
    4.3946    8.2313    7.7621 H   0  0  0  0  0  0  0  0  0  0  0  0
    3.5380    9.5300    7.3862 H   0  0  0  0  0  0  0  0  0  0  0  0
    3.0025    8.0754    6.9881 H   0  0  0  0  0  0  0  0  0  0  0  0
    2.0026    6.7205   11.2688 C   0  0  0  0  0  0  0  0  0  0  0  0
    2.4016    5.9411   11.7538 H   0  0  0  0  0  0  0  0  0  0  0  0
    0.5047    6.4179   11.1368 C   0  0  0  0  0  0  0  0  0  0  0  0
    0.0500    7.1871   10.7321 H   0  0  0  0  0  0  0  0  0  0  0  0
    0.1269    6.2448   12.0235 H   0  0  0  0  0  0  0  0  0  0  0  0
    0.3788    5.6293   10.5684 H   0  0  0  0  0  0  0  0  0  0  0  0
    2.2747    7.9516   12.1432 C   0  0  0  0  0  0  0  0  0  0  0  0
    3.2418    8.0857   12.2270 H   0  0  0  0  0  0  0  0  0  0  0  0
    1.8872    7.8129   13.0320 H   0  0  0  0  0  0  0  0  0  0  0  0
    1.8699    8.7414   11.7294 H   0  0  0  0  0  0  0  0  0  0  0  0
    3.9994    4.4486    9.0591 B   0  0  0  0  0  0  0  0  0  0  0  0
    5.2723    5.2373    8.0542 B   0  0  0  0  0  0  0  0  0  0  0  0
    4.9320    5.8918    7.2336 H   0  0  0  0  0  0  0  0  0  0  0  0
    4.6974    4.2331   10.6925 B   0  0  0  0  0  0  0  0  0  0  0  0
    4.0763    4.4016   11.5746 H   0  0  0  0  0  0  0  0  0  0  0  0
    4.6580    2.8748    9.5823 B   0  0  0  0  0  0  0  0  0  0  0  0
    4.0475    2.0518    9.5888 H   0  0  0  0  0  0  0  0  0  0  0  0
    6.6990    5.5536    9.0357 B   0  0  0  0  0  0  0  0  0  0  0  0
    7.2297    6.5108    8.8922 H   0  0  0  0  0  0  0  0  0  0  0  0
    6.3462    4.9289   10.6748 B   0  0  0  0  0  0  0  0  0  0  0  0
    6.6817    5.4906   11.5790 H   0  0  0  0  0  0  0  0  0  0  0  0
    6.1030    3.1648   10.5669 B   0  0  0  0  0  0  0  0  0  0  0  0
    6.3356    2.5447   11.3822 H   0  0  0  0  0  0  0  0  0  0  0  0
    6.2876    2.6983    8.8517 B   0  0  0  0  0  0  0  0  0  0  0  0
    6.5856    1.7423    8.4300 H   0  0  0  0  0  0  0  0  0  0  0  0
    6.6596    4.1701    7.9076 B   0  0  0  0  0  0  0  0  0  0  0  0
    7.1336    4.1036    6.9483 H   0  0  0  0  0  0  0  0  0  0  0  0
    7.3307    3.9764    9.5359 B   0  0  0  0  0  0  0  0  0  0  0  0
    8.4123    3.8056    9.7214 H   0  0  0  0  0  0  0  0  0  0  0  0
  1  2  1  0  0  0  0
  3  1  1  0  0  0  0
  4  1  1  0  0  0  0
  5  3  1  0  0  0  0
  6  4  1  0  0  0  0
  7  5  1  0  0  0  0
  8  6  1  0  0  0  0
  9  3  1  0  0  0  0
 10  9  1  0  0  0  0
 11  9  1  0  0  0  0
 12 11  1  0  0  0  0
 13 11  1  0  0  0  0
 14 11  1  0  0  0  0
 15  9  1  0  0  0  0
 16 15  1  0  0  0  0
 17 15  1  0  0  0  0
 18 15  1  0  0  0  0
 19  3  1  0  0  0  0
 20 19  1  0  0  0  0
 21 19  1  0  0  0  0
 22 21  1  0  0  0  0
 23 21  1  0  0  0  0
 24 21  1  0  0  0  0
 25 19  1  0  0  0  0
 26 25  1  0  0  0  0
 27 25  1  0  0  0  0
 28 25  1  0  0  0  0
 29  4  1  0  0  0  0
 30 29  1  0  0  0  0
 31 29  1  0  0  0  0
 32 31  1  0  0  0  0
 33 31  1  0  0  0  0
 34 31  1  0  0  0  0
 35 29  1  0  0  0  0
 36 35  1  0  0  0  0
 37 35  1  0  0  0  0
 38 35  1  0  0  0  0
 39  4  1  0  0  0  0
 40 39  1  0  0  0  0
 41 39  1  0  0  0  0
 42 41  1  0  0  0  0
 43 41  1  0  0  0  0
 44 41  1  0  0  0  0
 45 39  1  0  0  0  0
 46 45  1  0  0  0  0
 47 45  1  0  0  0  0
 48 45  1  0  0  0  0
 49  1  1  0  0  0  0
 50  7  1  0  0  0  0
 51 50  1  0  0  0  0
 52  8  1  0  0  0  0
 53 52  1  0  0  0  0
 54  7  1  0  0  0  0
 55 54  1  0  0  0  0
 56  8  1  0  0  0  0
 57 56  1  0  0  0  0
 58  8  1  0  0  0  0
 59 58  1  0  0  0  0
 60 52  1  0  0  0  0
 61 60  1  0  0  0  0
 62  7  1  0  0  0  0
 63 62  1  0  0  0  0
 64  7  1  0  0  0  0
 65 64  1  0  0  0  0
 66 56  1  0  0  0  0
 67 66  1  0  0  0  0
  7 49  1  0  0  0  0
  8 49  1  0  0  0  0
  8 50  1  0  0  0  0
 49 50  1  0  0  0  0
 49 52  1  0  0  0  0
 49 54  1  0  0  0  0
 50 56  1  0  0  0  0
 50 64  1  0  0  0  0
 52 54  1  0  0  0  0
 52 58  1  0  0  0  0
 54 60  1  0  0  0  0
 54 62  1  0  0  0  0
 56 58  1  0  0  0  0
 56 64  1  0  0  0  0
 58 60  1  0  0  0  0
 58 66  1  0  0  0  0
 60 62  1  0  0  0  0
 60 66  1  0  0  0  0
 62 64  1  0  0  0  0
 62 66  1  0  0  0  0
 64 66  1  0  0  0  0
M  END
$$$$
IYINOV

From CSD data. Using bond type 'Any'. No disordered atoms. Largest molecule.
 67 87  0  0  0  0  0  0  0  0999 V2000
    3.1074    4.7765    6.5941 I   0  0  0  0  0  0  0  0  0  0  0  0
   -1.3039    4.9569    3.9465 I   0  0  0  0  0  0  0  0  0  0  0  0
    1.2191    4.9348    3.7197 Ni  0  0  0  0  0  0  0  0  0  0  0  0
    1.6335    7.0878    3.9220 P   0  0  0  0  0  0  0  0  0  0  0  0
    1.6029    2.7646    3.7456 P   0  0  0  0  0  0  0  0  0  0  0  0
    3.3053    7.3402    4.0282 O   0  0  0  0  0  0  0  0  0  0  0  0
    3.2715    2.4892    3.8253 O   0  0  0  0  0  0  0  0  0  0  0  0
    4.0515    6.2424    3.6383 C   0  0  0  0  0  0  0  0  0  0  0  0
    4.0367    3.6038    3.5232 C   0  0  0  0  0  0  0  0  0  0  0  0
    1.1963    7.9742    5.4941 C   0  0  0  0  0  0  0  0  0  0  0  0
    1.6087    7.4506    6.2408 H   0  0  0  0  0  0  0  0  0  0  0  0
   -0.2513    8.0417    5.7790 C   0  0  0  0  0  0  0  0  0  0  0  0
   -0.6881    8.6121    5.1143 H   0  0  0  0  0  0  0  0  0  0  0  0
   -0.3898    8.4159    6.6738 H   0  0  0  0  0  0  0  0  0  0  0  0
   -0.6337    7.1401    5.7387 H   0  0  0  0  0  0  0  0  0  0  0  0
    1.7967    9.3929    5.5661 C   0  0  0  0  0  0  0  0  0  0  0  0
    2.7475    9.3578    5.3316 H   0  0  0  0  0  0  0  0  0  0  0  0
    1.6989    9.7436    6.4767 H   0  0  0  0  0  0  0  0  0  0  0  0
    1.3260    9.9788    4.9374 H   0  0  0  0  0  0  0  0  0  0  0  0
    1.0597    8.1781    2.5449 C   0  0  0  0  0  0  0  0  0  0  0  0
    0.2430    8.6497    2.8773 H   0  0  0  0  0  0  0  0  0  0  0  0
    0.6302    7.3740    1.3207 C   0  0  0  0  0  0  0  0  0  0  0  0
    1.4214    6.9985    0.8819 H   0  0  0  0  0  0  0  0  0  0  0  0
    0.1569    7.9612    0.6949 H   0  0  0  0  0  0  0  0  0  0  0  0
    0.0342    6.6478    1.5998 H   0  0  0  0  0  0  0  0  0  0  0  0
    2.0671    9.2694    2.1522 C   0  0  0  0  0  0  0  0  0  0  0  0
    2.3021    9.7969    2.9449 H   0  0  0  0  0  0  0  0  0  0  0  0
    1.6661    9.8554    1.4775 H   0  0  0  0  0  0  0  0  0  0  0  0
    2.8734    8.8524    1.7868 H   0  0  0  0  0  0  0  0  0  0  0  0
    1.1615    1.7694    5.2323 C   0  0  0  0  0  0  0  0  0  0  0  0
    1.5748    2.2293    6.0178 H   0  0  0  0  0  0  0  0  0  0  0  0
   -0.3395    1.7084    5.5042 C   0  0  0  0  0  0  0  0  0  0  0  0
   -0.6976    2.6178    5.5733 H   0  0  0  0  0  0  0  0  0  0  0  0
   -0.5010    1.2290    6.3444 H   0  0  0  0  0  0  0  0  0  0  0  0
   -0.7860    1.2368    4.7705 H   0  0  0  0  0  0  0  0  0  0  0  0
    1.7491    0.3508    5.1949 C   0  0  0  0  0  0  0  0  0  0  0  0
    1.2983   -0.1715    4.4986 H   0  0  0  0  0  0  0  0  0  0  0  0
    1.6157   -0.0805    6.0638 H   0  0  0  0  0  0  0  0  0  0  0  0
    2.7071    0.4001    4.9978 H   0  0  0  0  0  0  0  0  0  0  0  0
    1.0302    1.7707    2.2946 C   0  0  0  0  0  0  0  0  0  0  0  0
    0.2369    1.2446    2.6054 H   0  0  0  0  0  0  0  0  0  0  0  0
    0.5378    2.6659    1.1480 C   0  0  0  0  0  0  0  0  0  0  0  0
   -0.1649    3.2635    1.4789 H   0  0  0  0  0  0  0  0  0  0  0  0
    0.1777    2.1059    0.4273 H   0  0  0  0  0  0  0  0  0  0  0  0
    1.2855    3.1985    0.8056 H   0  0  0  0  0  0  0  0  0  0  0  0
    2.0571    0.7496    1.7839 C   0  0  0  0  0  0  0  0  0  0  0  0
    2.8026    1.2225    1.3581 H   0  0  0  0  0  0  0  0  0  0  0  0
    1.6298    0.1559    1.1308 H   0  0  0  0  0  0  0  0  0  0  0  0
    2.3917    0.2209    2.5377 H   0  0  0  0  0  0  0  0  0  0  0  0
    3.0526    4.9472    3.1549 B   0  0  0  0  0  0  0  0  0  0  0  0
    4.0062    4.8770    4.6698 B   0  0  0  0  0  0  0  0  0  0  0  0
    4.0192    4.1131    1.8976 B   0  0  0  0  0  0  0  0  0  0  0  0
    3.5241    3.5610    1.0574 H   0  0  0  0  0  0  0  0  0  0  0  0
    4.0394    5.8618    1.9724 B   0  0  0  0  0  0  0  0  0  0  0  0
    3.5602    6.4906    1.1797 H   0  0  0  0  0  0  0  0  0  0  0  0
    5.4978    3.9767    4.3792 B   0  0  0  0  0  0  0  0  0  0  0  0
    5.9714    3.3336    5.1647 H   0  0  0  0  0  0  0  0  0  0  0  0
    5.5043    3.5025    2.6658 B   0  0  0  0  0  0  0  0  0  0  0  0
    5.9836    2.5463    2.3363 H   0  0  0  0  0  0  0  0  0  0  0  0
    5.5468    4.9861    1.6717 B   0  0  0  0  0  0  0  0  0  0  0  0
    6.0739    5.0199    0.6833 H   0  0  0  0  0  0  0  0  0  0  0  0
    5.5303    6.3827    2.7780 B   0  0  0  0  0  0  0  0  0  0  0  0
    6.0296    7.3506    2.5205 H   0  0  0  0  0  0  0  0  0  0  0  0
    5.5053    5.7747    4.4569 B   0  0  0  0  0  0  0  0  0  0  0  0
    5.9795    6.3463    5.2956 H   0  0  0  0  0  0  0  0  0  0  0  0
    6.4392    4.9160    3.2225 B   0  0  0  0  0  0  0  0  0  0  0  0
    7.5588    4.9069    3.2556 H   0  0  0  0  0  0  0  0  0  0  0  0
  1 51  1  0  0  0  0
  2  3  1  0  0  0  0
  3  4  1  0  0  0  0
  4  6  1  0  0  0  0
  5  3  1  0  0  0  0
  6  8  1  0  0  0  0
  7  5  1  0  0  0  0
  8 50  1  0  0  0  0
  9  7  1  0  0  0  0
 10  4  1  0  0  0  0
 11 10  1  0  0  0  0
 12 10  1  0  0  0  0
 13 12  1  0  0  0  0
 14 12  1  0  0  0  0
 15 12  1  0  0  0  0
 16 10  1  0  0  0  0
 17 16  1  0  0  0  0
 18 16  1  0  0  0  0
 19 16  1  0  0  0  0
 20  4  1  0  0  0  0
 21 20  1  0  0  0  0
 22 20  1  0  0  0  0
 23 22  1  0  0  0  0
 24 22  1  0  0  0  0
 25 22  1  0  0  0  0
 26 20  1  0  0  0  0
 27 26  1  0  0  0  0
 28 26  1  0  0  0  0
 29 26  1  0  0  0  0
 30  5  1  0  0  0  0
 31 30  1  0  0  0  0
 32 30  1  0  0  0  0
 33 32  1  0  0  0  0
 34 32  1  0  0  0  0
 35 32  1  0  0  0  0
 36 30  1  0  0  0  0
 37 36  1  0  0  0  0
 38 36  1  0  0  0  0
 39 36  1  0  0  0  0
 40  5  1  0  0  0  0
 41 40  1  0  0  0  0
 42 40  1  0  0  0  0
 43 42  1  0  0  0  0
 44 42  1  0  0  0  0
 45 42  1  0  0  0  0
 46 40  1  0  0  0  0
 47 46  1  0  0  0  0
 48 46  1  0  0  0  0
 49 46  1  0  0  0  0
 50  3  1  0  0  0  0
 51  8  1  0  0  0  0
 52  9  1  0  0  0  0
 53 52  1  0  0  0  0
 54  8  1  0  0  0  0
 55 54  1  0  0  0  0
 56  9  1  0  0  0  0
 57 56  1  0  0  0  0
 58  9  1  0  0  0  0
 59 58  1  0  0  0  0
 60 52  1  0  0  0  0
 61 60  1  0  0  0  0
 62  8  1  0  0  0  0
 63 62  1  0  0  0  0
 64  8  1  0  0  0  0
 65 64  1  0  0  0  0
 66 56  1  0  0  0  0
 67 66  1  0  0  0  0
  9 50  1  0  0  0  0
  9 51  1  0  0  0  0
 50 51  1  0  0  0  0
 50 52  1  0  0  0  0
 50 54  1  0  0  0  0
 51 56  1  0  0  0  0
 51 64  1  0  0  0  0
 52 54  1  0  0  0  0
 52 58  1  0  0  0  0
 54 60  1  0  0  0  0
 54 62  1  0  0  0  0
 56 58  1  0  0  0  0
 56 64  1  0  0  0  0
 58 60  1  0  0  0  0
 58 66  1  0  0  0  0
 60 62  1  0  0  0  0
 60 66  1  0  0  0  0
 62 64  1  0  0  0  0
 62 66  1  0  0  0  0
 64 66  1  0  0  0  0
M  END
$$$$
IYINUB

From CSD data. Using bond type 'Any'. No disordered atoms. Largest molecule.
 68 86  0  0  0  0  0  0  0  0999 V2000
    7.7410    0.3427    6.3024 I   0  0  0  0  0  0  0  0  0  0  0  0
   12.0539    2.3302    9.2327 I   0  0  0  0  0  0  0  0  0  0  0  0
   10.6242    3.8216    8.0284 P   0  3  0  0  0  0  0  0  0  0  0  0
    9.1847    3.1603    7.8376 O   0  0  0  0  0  0  0  0  0  0  0  0
    8.1924    2.7142    8.7365 C   0  0  0  0  0  0  0  0  0  0  0  0
   11.1832    4.0280    6.3096 C   0  0  0  0  0  0  0  0  0  0  0  0
   10.7360    4.8459    5.9457 H   0  0  0  0  0  0  0  0  0  0  0  0
   10.7751    2.8516    5.4224 C   0  0  0  0  0  0  0  0  0  0  0  0
   11.1916    2.0302    5.7578 H   0  0  0  0  0  0  0  0  0  0  0  0
   11.0714    3.0169    4.5033 H   0  0  0  0  0  0  0  0  0  0  0  0
    9.7996    2.7527    5.4408 H   0  0  0  0  0  0  0  0  0  0  0  0
   12.6953    4.2703    6.2509 C   0  0  0  0  0  0  0  0  0  0  0  0
   12.9413    4.9614    6.9017 H   0  0  0  0  0  0  0  0  0  0  0  0
   12.9441    4.5660    5.3503 H   0  0  0  0  0  0  0  0  0  0  0  0
   13.1677    3.4385    6.4639 H   0  0  0  0  0  0  0  0  0  0  0  0
   10.4145    5.4040    8.8959 C   0  0  0  0  0  0  0  0  0  0  0  0
    9.9534    5.2106    9.7613 H   0  0  0  0  0  0  0  0  0  0  0  0
    9.5005    6.3172    8.0875 C   0  0  0  0  0  0  0  0  0  0  0  0
   10.0204    6.7703    7.3914 H   0  0  0  0  0  0  0  0  0  0  0  0
    9.0981    6.9854    8.6812 H   0  0  0  0  0  0  0  0  0  0  0  0
    8.7906    5.7836    7.6698 H   0  0  0  0  0  0  0  0  0  0  0  0
   11.7422    6.0836    9.2296 C   0  0  0  0  0  0  0  0  0  0  0  0
   12.3460    5.4346    9.6473 H   0  0  0  0  0  0  0  0  0  0  0  0
   11.5829    6.8271    9.8468 H   0  0  0  0  0  0  0  0  0  0  0  0
   12.1503    6.4247    8.4061 H   0  0  0  0  0  0  0  0  0  0  0  0
    7.3651    1.3558    8.1244 B   0  0  0  0  0  0  0  0  0  0  0  0
    7.1918    3.8435    9.5735 B   0  0  0  0  0  0  0  0  0  0  0  0
    7.4909    4.8284    9.4259 H   0  0  0  0  0  0  0  0  0  0  0  0
    8.3909    1.2307    9.5449 B   0  0  0  0  0  0  0  0  0  0  0  0
    9.3077    0.8047    9.4259 H   0  0  0  0  0  0  0  0  0  0  0  0
    8.2987    2.7658   10.4456 B   0  0  0  0  0  0  0  0  0  0  0  0
    9.1959    3.1665   10.9186 H   0  0  0  0  0  0  0  0  0  0  0  0
    6.6244    3.0143   10.9890 B   0  0  0  0  0  0  0  0  0  0  0  0
    6.3169    3.6126   11.9920 H   0  0  0  0  0  0  0  0  0  0  0  0
    6.2345    4.0308    6.3024 I   0  0  0  0  0  0  0  0  0  0  0  0
    1.9216    2.0433    9.2327 I   0  0  0  0  0  0  0  0  0  0  0  0
    3.3513    0.5519    8.0284 P   0  3  0  0  0  0  0  0  0  0  0  0
    4.7908    1.2132    7.8376 O   0  0  0  0  0  0  0  0  0  0  0  0
    5.7831    1.6593    8.7365 C   0  0  0  0  0  0  0  0  0  0  0  0
    2.7923    0.3455    6.3096 C   0  0  0  0  0  0  0  0  0  0  0  0
    3.2395   -0.4723    5.9457 H   0  0  0  0  0  0  0  0  0  0  0  0
    3.2004    1.5220    5.4224 C   0  0  0  0  0  0  0  0  0  0  0  0
    2.7839    2.3433    5.7578 H   0  0  0  0  0  0  0  0  0  0  0  0
    2.9041    1.3567    4.5033 H   0  0  0  0  0  0  0  0  0  0  0  0
    4.1759    1.6208    5.4408 H   0  0  0  0  0  0  0  0  0  0  0  0
    1.2802    0.1032    6.2509 C   0  0  0  0  0  0  0  0  0  0  0  0
    1.0342   -0.5878    6.9017 H   0  0  0  0  0  0  0  0  0  0  0  0
    1.0314   -0.1924    5.3503 H   0  0  0  0  0  0  0  0  0  0  0  0
    0.8078    0.9351    6.4639 H   0  0  0  0  0  0  0  0  0  0  0  0
    3.5610   -1.0304    8.8959 C   0  0  0  0  0  0  0  0  0  0  0  0
    4.0221   -0.8371    9.7613 H   0  0  0  0  0  0  0  0  0  0  0  0
    4.4750   -1.9436    8.0875 C   0  0  0  0  0  0  0  0  0  0  0  0
    3.9551   -2.3967    7.3914 H   0  0  0  0  0  0  0  0  0  0  0  0
    4.8774   -2.6119    8.6812 H   0  0  0  0  0  0  0  0  0  0  0  0
    5.1849   -1.4100    7.6698 H   0  0  0  0  0  0  0  0  0  0  0  0
    2.2333   -1.7101    9.2296 C   0  0  0  0  0  0  0  0  0  0  0  0
    1.6295   -1.0610    9.6473 H   0  0  0  0  0  0  0  0  0  0  0  0
    2.3926   -2.4536    9.8468 H   0  0  0  0  0  0  0  0  0  0  0  0
    1.8252   -2.0512    8.4061 H   0  0  0  0  0  0  0  0  0  0  0  0
    6.6104    3.0177    8.1244 B   0  0  0  0  0  0  0  0  0  0  0  0
    6.7837    0.5301    9.5735 B   0  0  0  0  0  0  0  0  0  0  0  0
    6.4846   -0.4548    9.4259 H   0  0  0  0  0  0  0  0  0  0  0  0
    5.5846    3.1428    9.5449 B   0  0  0  0  0  0  0  0  0  0  0  0
    4.6678    3.5688    9.4259 H   0  0  0  0  0  0  0  0  0  0  0  0
    5.6768    1.6077   10.4456 B   0  0  0  0  0  0  0  0  0  0  0  0
    4.7796    1.2071   10.9186 H   0  0  0  0  0  0  0  0  0  0  0  0
    7.3511    1.3593   10.9890 B   0  0  0  0  0  0  0  0  0  0  0  0
    7.6586    0.7610   11.9920 H   0  0  0  0  0  0  0  0  0  0  0  0
  1 26  1  0  0  0  0
  2  3  1  0  0  0  0
  3  4  1  0  0  0  0
  4  5  1  0  0  0  0
  5 26  1  0  0  0  0
  6  3  1  0  0  0  0
  7  6  1  0  0  0  0
  8  6  1  0  0  0  0
  9  8  1  0  0  0  0
 10  8  1  0  0  0  0
 11  8  1  0  0  0  0
 12  6  1  0  0  0  0
 13 12  1  0  0  0  0
 14 12  1  0  0  0  0
 15 12  1  0  0  0  0
 16  3  1  0  0  0  0
 17 16  1  0  0  0  0
 18 16  1  0  0  0  0
 19 18  1  0  0  0  0
 20 18  1  0  0  0  0
 21 18  1  0  0  0  0
 22 16  1  0  0  0  0
 23 22  1  0  0  0  0
 24 22  1  0  0  0  0
 25 22  1  0  0  0  0
 26 29  1  0  0  0  0
 27  5  1  0  0  0  0
 28 27  1  0  0  0  0
 29  5  1  0  0  0  0
 30 29  1  0  0  0  0
 31  5  1  0  0  0  0
 32 31  1  0  0  0  0
 33 27  1  0  0  0  0
 34 33  1  0  0  0  0
 35 60  1  0  0  0  0
 36 37  1  0  0  0  0
 37 38  1  0  0  0  0
 38 39  1  0  0  0  0
 39 26  1  0  0  0  0
 40 37  1  0  0  0  0
 41 40  1  0  0  0  0
 42 40  1  0  0  0  0
 43 42  1  0  0  0  0
 44 42  1  0  0  0  0
 45 42  1  0  0  0  0
 46 40  1  0  0  0  0
 47 46  1  0  0  0  0
 48 46  1  0  0  0  0
 49 46  1  0  0  0  0
 50 37  1  0  0  0  0
 51 50  1  0  0  0  0
 52 50  1  0  0  0  0
 53 52  1  0  0  0  0
 54 52  1  0  0  0  0
 55 52  1  0  0  0  0
 56 50  1  0  0  0  0
 57 56  1  0  0  0  0
 58 56  1  0  0  0  0
 59 56  1  0  0  0  0
 60  5  1  0  0  0  0
 61 26  1  0  0  0  0
 62 61  1  0  0  0  0
 63 27  1  0  0  0  0
 64 63  1  0  0  0  0
 65 33  1  0  0  0  0
 66 65  1  0  0  0  0
 67 29  1  0  0  0  0
 68 67  1  0  0  0  0
 26 60  1  0  0  0  0
 27 31  1  0  0  0  0
 27 60  1  0  0  0  0
 29 31  1  0  0  0  0
 29 61  1  0  0  0  0
 31 33  1  0  0  0  0
 31 67  1  0  0  0  0
 33 63  1  0  0  0  0
 33 67  1  0  0  0  0
 39 60  1  0  0  0  0
 39 61  1  0  0  0  0
 39 63  1  0  0  0  0
 39 65  1  0  0  0  0
 60 63  1  0  0  0  0
 61 65  1  0  0  0  0
 61 67  1  0  0  0  0
 63 65  1  0  0  0  0
 65 67  1  0  0  0  0
M  CHG  2   3   1  37   1
M  END
$$$$
IZEFOL

From CSD data. Using bond type 'Any'. No disordered atoms. Largest molecule.
133148  0  0  0  0  0  0  0  0999 V2000
    1.8891    4.9913   11.8542 B   0  5  0  0  0  0  0  0  0  0  0  0
    2.4211    3.9198   11.9407 H   0  0  0  0  0  0  0  0  0  0  0  0
    2.6157    5.7537   11.2780 H   0  0  0  0  0  0  0  0  0  0  0  0
    0.8620    4.8800   11.2424 H   0  0  0  0  0  0  0  0  0  0  0  0
    3.2048    5.8233   14.5485 B   0  5  0  0  0  0  0  0  0  0  0  0
    3.0050    6.1604   15.6823 H   0  0  0  0  0  0  0  0  0  0  0  0
    3.8889    6.6450   14.0019 H   0  0  0  0  0  0  0  0  0  0  0  0
    3.7670    4.7641   14.5378 H   0  0  0  0  0  0  0  0  0  0  0  0
    0.6956    7.2906   13.5800 C   0  0  0  0  0  0  0  0  0  0  0  0
   -0.5949    7.4172   13.1232 C   0  0  0  0  0  0  0  0  0  0  0  0
   -1.0751    6.6518   12.8303 H   0  0  0  0  0  0  0  0  0  0  0  0
   -1.1949    8.6710   13.0940 C   0  0  0  0  0  0  0  0  0  0  0  0
   -2.0920    8.7513   12.7913 H   0  0  0  0  0  0  0  0  0  0  0  0
   -0.5228    9.7794   13.4873 C   0  0  0  0  0  0  0  0  0  0  0  0
   -0.9374   10.6329   13.4346 H   0  0  0  0  0  0  0  0  0  0  0  0
    0.7453    9.6638   13.9595 C   0  0  0  0  0  0  0  0  0  0  0  0
    1.2151   10.4347   14.2566 H   0  0  0  0  0  0  0  0  0  0  0  0
    1.3535    8.4174   14.0093 C   0  0  0  0  0  0  0  0  0  0  0  0
    2.2385    8.3430   14.3443 H   0  0  0  0  0  0  0  0  0  0  0  0
    0.4001    4.5281   14.4850 C   0  0  0  0  0  0  0  0  0  0  0  0
   -0.0821    3.3968   13.8616 C   0  0  0  0  0  0  0  0  0  0  0  0
    0.1712    3.2094   12.9659 H   0  0  0  0  0  0  0  0  0  0  0  0
   -0.9440    2.5200   14.5382 C   0  0  0  0  0  0  0  0  0  0  0  0
   -1.2808    1.7523   14.0922 H   0  0  0  0  0  0  0  0  0  0  0  0
   -1.2953    2.7632   15.8159 C   0  0  0  0  0  0  0  0  0  0  0  0
   -1.8793    2.1638   16.2667 H   0  0  0  0  0  0  0  0  0  0  0  0
   -0.8141    3.8802   16.4787 C   0  0  0  0  0  0  0  0  0  0  0  0
   -1.0568    4.0450   17.3821 H   0  0  0  0  0  0  0  0  0  0  0  0
    0.0320    4.7581   15.8038 C   0  0  0  0  0  0  0  0  0  0  0  0
    0.3620    5.5274   16.2525 H   0  0  0  0  0  0  0  0  0  0  0  0
    1.5164    5.6677   13.6145 P   0  3  0  0  0  0  0  0  0  0  0  0
    5.0032    2.3600   13.2486 B   0  5  0  0  0  0  0  0  0  0  0  0
    5.6757    2.5911   12.2813 H   0  0  0  0  0  0  0  0  0  0  0  0
    5.2561    3.1562   14.1102 H   0  0  0  0  0  0  0  0  0  0  0  0
    3.8421    2.4423   12.9564 H   0  0  0  0  0  0  0  0  0  0  0  0
    7.1670    0.3465   14.5794 B   0  5  0  0  0  0  0  0  0  0  0  0
    7.3239   -0.8019   14.8886 H   0  0  0  0  0  0  0  0  0  0  0  0
    7.3166    1.0447   15.5445 H   0  0  0  0  0  0  0  0  0  0  0  0
    7.9681    0.6487   13.7393 H   0  0  0  0  0  0  0  0  0  0  0  0
    5.1868    7.3511   11.1020 B   0  5  0  0  0  0  0  0  0  0  0  0
    4.0427    7.5698   11.3900 H   0  0  0  0  0  0  0  0  0  0  0  0
    5.7836    6.9918   12.0793 H   0  0  0  0  0  0  0  0  0  0  0  0
    5.2319    6.4904   10.2670 H   0  0  0  0  0  0  0  0  0  0  0  0
    7.8378    8.7739    9.9669 B   0  5  0  0  0  0  0  0  0  0  0  0
    7.9572    8.0432    9.0228 H   0  0  0  0  0  0  0  0  0  0  0  0
    8.4430    8.3249   10.9002 H   0  0  0  0  0  0  0  0  0  0  0  0
    8.2729    9.8580    9.6915 H   0  0  0  0  0  0  0  0  0  0  0  0
    5.0150   -0.4925   12.4415 C   0  0  0  0  0  0  0  0  0  0  0  0
    6.0468   -1.0739   11.7219 C   0  0  0  0  0  0  0  0  0  0  0  0
    6.9457   -0.9409   11.9997 H   0  0  0  0  0  0  0  0  0  0  0  0
    5.7813   -1.8513   10.5989 C   0  0  0  0  0  0  0  0  0  0  0  0
    6.4926   -2.2546   10.1152 H   0  0  0  0  0  0  0  0  0  0  0  0
    4.4611   -2.0313   10.1919 C   0  0  0  0  0  0  0  0  0  0  0  0
    4.2751   -2.5601    9.4248 H   0  0  0  0  0  0  0  0  0  0  0  0
    3.4179   -1.4489   10.8908 C   0  0  0  0  0  0  0  0  0  0  0  0
    2.5198   -1.5793   10.6096 H   0  0  0  0  0  0  0  0  0  0  0  0
    3.6970   -0.6665   12.0173 C   0  0  0  0  0  0  0  0  0  0  0  0
    2.9877   -0.2514   12.4930 H   0  0  0  0  0  0  0  0  0  0  0  0
    4.0638    0.1040   15.0585 C   0  0  0  0  0  0  0  0  0  0  0  0
    2.8318    0.7134   15.0706 C   0  0  0  0  0  0  0  0  0  0  0  0
    2.6561    1.4352   14.4793 H   0  0  0  0  0  0  0  0  0  0  0  0
    1.8253    0.2721   15.9584 C   0  0  0  0  0  0  0  0  0  0  0  0
    0.9665    0.6783   15.9551 H   0  0  0  0  0  0  0  0  0  0  0  0
    2.1068   -0.7446   16.8170 C   0  0  0  0  0  0  0  0  0  0  0  0
    1.4333   -1.0419   17.4166 H   0  0  0  0  0  0  0  0  0  0  0  0
    3.3212   -1.3485   16.8428 C   0  0  0  0  0  0  0  0  0  0  0  0
    3.4937   -2.0452   17.4644 H   0  0  0  0  0  0  0  0  0  0  0  0
    4.3125   -0.9442   15.9584 C   0  0  0  0  0  0  0  0  0  0  0  0
    5.1581   -1.3760   15.9625 H   0  0  0  0  0  0  0  0  0  0  0  0
    4.9770    9.4728    8.9245 C   0  0  0  0  0  0  0  0  0  0  0  0
    5.3941   10.5843    8.2102 C   0  0  0  0  0  0  0  0  0  0  0  0
    6.1344   11.0891    8.5272 H   0  0  0  0  0  0  0  0  0  0  0  0
    4.7648   10.9730    7.0562 C   0  0  0  0  0  0  0  0  0  0  0  0
    5.0570   11.7488    6.5920 H   0  0  0  0  0  0  0  0  0  0  0  0
    3.7026   10.2338    6.5702 C   0  0  0  0  0  0  0  0  0  0  0  0
    3.2638   10.4968    5.7696 H   0  0  0  0  0  0  0  0  0  0  0  0
    3.2800    9.1048    7.2588 C   0  0  0  0  0  0  0  0  0  0  0  0
    2.5497    8.5954    6.9288 H   0  0  0  0  0  0  0  0  0  0  0  0
    3.9194    8.7166    8.4248 C   0  0  0  0  0  0  0  0  0  0  0  0
    3.6352    7.9351    8.8835 H   0  0  0  0  0  0  0  0  0  0  0  0
    5.6985   10.1813   11.7133 C   0  0  0  0  0  0  0  0  0  0  0  0
    6.7752   10.7642   12.3642 C   0  0  0  0  0  0  0  0  0  0  0  0
    7.6582   10.5109   12.1236 H   0  0  0  0  0  0  0  0  0  0  0  0
    6.5842   11.7126   13.3636 C   0  0  0  0  0  0  0  0  0  0  0  0
    7.3271   12.1038   13.8079 H   0  0  0  0  0  0  0  0  0  0  0  0
    5.2947   12.0747   13.7002 C   0  0  0  0  0  0  0  0  0  0  0  0
    5.1547   12.7213   14.3810 H   0  0  0  0  0  0  0  0  0  0  0  0
    4.2103   11.5178   13.0665 C   0  0  0  0  0  0  0  0  0  0  0  0
    3.3289   11.7790   13.3043 H   0  0  0  0  0  0  0  0  0  0  0  0
    4.4183   10.5725   12.0808 C   0  0  0  0  0  0  0  0  0  0  0  0
    3.6698   10.1814   11.6447 H   0  0  0  0  0  0  0  0  0  0  0  0
    6.4145    5.4963   14.1364 O   0  0  0  0  0  0  0  0  0  0  0  0
    7.3970    6.6139   14.0660 C   0  0  0  0  0  0  0  0  0  0  0  0
    6.9463    7.4906   14.1598 H   0  0  0  0  0  0  0  0  0  0  0  0
    7.8939    6.5976   13.2091 H   0  0  0  0  0  0  0  0  0  0  0  0
    8.3382    6.3441   15.2560 C   0  0  0  0  0  0  0  0  0  0  0  0
    9.1324    5.8331   14.9613 H   0  0  0  0  0  0  0  0  0  0  0  0
    8.6407    7.1969   15.6585 H   0  0  0  0  0  0  0  0  0  0  0  0
    7.5779    5.5886   16.1971 C   0  0  0  0  0  0  0  0  0  0  0  0
    7.2062    6.1889   16.8925 H   0  0  0  0  0  0  0  0  0  0  0  0
    8.1564    4.9193   16.6409 H   0  0  0  0  0  0  0  0  0  0  0  0
    6.5026    4.9250   15.4913 C   0  0  0  0  0  0  0  0  0  0  0  0
    5.6479    5.0587   15.9717 H   0  0  0  0  0  0  0  0  0  0  0  0
    6.6825    3.9528   15.4380 H   0  0  0  0  0  0  0  0  0  0  0  0
    7.7126    4.9043   10.2537 C   0  0  0  0  0  0  0  0  0  0  0  0
    7.7692    5.8890   10.1671 H   0  0  0  0  0  0  0  0  0  0  0  0
    7.1378    4.5547    9.5275 H   0  0  0  0  0  0  0  0  0  0  0  0
    9.0785    4.2921   10.1816 C   0  0  0  0  0  0  0  0  0  0  0  0
    9.7725    4.9389   10.4662 H   0  0  0  0  0  0  0  0  0  0  0  0
    9.2820    3.9844    9.2636 H   0  0  0  0  0  0  0  0  0  0  0  0
    9.0012    3.1205   11.1449 C   0  0  0  0  0  0  0  0  0  0  0  0
    8.5292    2.3472   10.7444 H   0  0  0  0  0  0  0  0  0  0  0  0
    9.8990    2.8367   11.4510 H   0  0  0  0  0  0  0  0  0  0  0  0
    8.1974    3.7533   12.2646 C   0  0  0  0  0  0  0  0  0  0  0  0
    7.7862    3.0605   12.8409 H   0  0  0  0  0  0  0  0  0  0  0  0
    8.7675    4.3388   12.8231 H   0  0  0  0  0  0  0  0  0  0  0  0
    3.7391    4.3557    9.0035 C   0  0  0  0  0  0  0  0  0  0  0  0
    4.0116    5.2931    8.8374 H   0  0  0  0  0  0  0  0  0  0  0  0
    2.7687    4.3349    9.1971 H   0  0  0  0  0  0  0  0  0  0  0  0
    4.0631    3.4931    7.8203 C   0  0  0  0  0  0  0  0  0  0  0  0
    3.3262    3.5064    7.1597 H   0  0  0  0  0  0  0  0  0  0  0  0
    4.8970    3.7925    7.3806 H   0  0  0  0  0  0  0  0  0  0  0  0
    4.2272    2.1375    8.4059 C   0  0  0  0  0  0  0  0  0  0  0  0
    4.8367    1.5850    7.8557 H   0  0  0  0  0  0  0  0  0  0  0  0
    3.3550    1.6765    8.4846 H   0  0  0  0  0  0  0  0  0  0  0  0
    4.8162    2.4092    9.7557 C   0  0  0  0  0  0  0  0  0  0  0  0
    4.4357    1.7890   10.4258 H   0  0  0  0  0  0  0  0  0  0  0  0
    5.7982    2.2823    9.7315 H   0  0  0  0  0  0  0  0  0  0  0  0
    4.8374    4.8725   12.3372 Nd  0  1  0  0  0  0  0  0  0  0  0  0
    7.1685    4.5323   11.5657 O   0  0  0  0  0  0  0  0  0  0  0  0
    4.4950    3.7884   10.1043 O   0  0  0  0  0  0  0  0  0  0  0  0
    5.3806    0.5876   13.8824 P   0  3  0  0  0  0  0  0  0  0  0  0
    5.9791    8.9290   10.4244 P   0  3  0  0  0  0  0  0  0  0  0  0
  1  2  1  0  0  0  0
  2129  1  0  0  0  0
  3  1  1  0  0  0  0
  4  1  1  0  0  0  0
  5  6  1  0  0  0  0
  7  5  1  0  0  0  0
  8  5  1  0  0  0  0
  9 10  4  0  0  0  0
 10 11  1  0  0  0  0
 12 10  4  0  0  0  0
 13 12  1  0  0  0  0
 14 12  4  0  0  0  0
 15 14  1  0  0  0  0
 16 14  4  0  0  0  0
 17 16  1  0  0  0  0
 18  9  4  0  0  0  0
 19 18  1  0  0  0  0
 20 21  4  0  0  0  0
 21 22  1  0  0  0  0
 23 21  4  0  0  0  0
 24 23  1  0  0  0  0
 25 23  4  0  0  0  0
 26 25  1  0  0  0  0
 27 25  4  0  0  0  0
 28 27  1  0  0  0  0
 29 20  4  0  0  0  0
 30 29  1  0  0  0  0
 31  1  1  0  0  0  0
 32 33  1  0  0  0  0
 33129  1  0  0  0  0
 34 32  1  0  0  0  0
 35 32  1  0  0  0  0
 36 37  1  0  0  0  0
 38 36  1  0  0  0  0
 39 36  1  0  0  0  0
 40 41  1  0  0  0  0
 41129  1  0  0  0  0
 42 40  1  0  0  0  0
 43 40  1  0  0  0  0
 44 45  1  0  0  0  0
 46 44  1  0  0  0  0
 47 44  1  0  0  0  0
 48 49  4  0  0  0  0
 49 50  1  0  0  0  0
 51 49  4  0  0  0  0
 52 51  1  0  0  0  0
 53 51  4  0  0  0  0
 54 53  1  0  0  0  0
 55 53  4  0  0  0  0
 56 55  1  0  0  0  0
 57 48  4  0  0  0  0
 58 57  1  0  0  0  0
 59 60  4  0  0  0  0
 60 61  1  0  0  0  0
 62 60  4  0  0  0  0
 63 62  1  0  0  0  0
 64 62  4  0  0  0  0
 65 64  1  0  0  0  0
 66 64  4  0  0  0  0
 67 66  1  0  0  0  0
 68 59  4  0  0  0  0
 69 68  1  0  0  0  0
 70 71  4  0  0  0  0
 71 72  1  0  0  0  0
 73 71  4  0  0  0  0
 74 73  1  0  0  0  0
 75 73  4  0  0  0  0
 76 75  1  0  0  0  0
 77 75  4  0  0  0  0
 78 77  1  0  0  0  0
 79 70  4  0  0  0  0
 80 79  1  0  0  0  0
 81 82  4  0  0  0  0
 82 83  1  0  0  0  0
 84 82  4  0  0  0  0
 85 84  1  0  0  0  0
 86 84  4  0  0  0  0
 87 86  1  0  0  0  0
 88 86  4  0  0  0  0
 89 88  1  0  0  0  0
 90 81  4  0  0  0  0
 91 90  1  0  0  0  0
 92 93  1  0  0  0  0
 93 94  1  0  0  0  0
 95 93  1  0  0  0  0
 96 93  1  0  0  0  0
 97 96  1  0  0  0  0
 98 96  1  0  0  0  0
 99 96  1  0  0  0  0
100 99  1  0  0  0  0
101 99  1  0  0  0  0
102 92  1  0  0  0  0
103102  1  0  0  0  0
104102  1  0  0  0  0
105106  1  0  0  0  0
107105  1  0  0  0  0
108105  1  0  0  0  0
109108  1  0  0  0  0
110108  1  0  0  0  0
111108  1  0  0  0  0
112111  1  0  0  0  0
113111  1  0  0  0  0
114111  1  0  0  0  0
115114  1  0  0  0  0
116114  1  0  0  0  0
117118  1  0  0  0  0
119117  1  0  0  0  0
120117  1  0  0  0  0
121120  1  0  0  0  0
122120  1  0  0  0  0
123120  1  0  0  0  0
124123  1  0  0  0  0
125123  1  0  0  0  0
126123  1  0  0  0  0
127126  1  0  0  0  0
128126  1  0  0  0  0
129  3  1  0  0  0  0
130105  1  0  0  0  0
131117  1  0  0  0  0
132 32  1  0  0  0  0
133 40  1  0  0  0  0
  5 31  1  0  0  0  0
  7129  1  0  0  0  0
  8129  1  0  0  0  0
  9 31  1  0  0  0  0
 16 18  4  0  0  0  0
 20 31  1  0  0  0  0
 27 29  4  0  0  0  0
 34129  1  0  0  0  0
 35129  1  0  0  0  0
 36132  1  0  0  0  0
 42129  1  0  0  0  0
 43129  1  0  0  0  0
 44133  1  0  0  0  0
 48132  1  0  0  0  0
 55 57  4  0  0  0  0
 59132  1  0  0  0  0
 66 68  4  0  0  0  0
 70133  1  0  0  0  0
 77 79  4  0  0  0  0
 81133  1  0  0  0  0
 88 90  4  0  0  0  0
 92129  1  0  0  0  0
 99102  1  0  0  0  0
114130  1  0  0  0  0
126131  1  0  0  0  0
129130  1  0  0  0  0
129131  1  0  0  0  0
M  END
$$$$
JAFTES

From CSD data. Using bond type 'Any'. No disordered atoms. Largest molecule.
101144  0  0  0  0  0  0  0  0999 V2000
   -2.9491   -3.7997   11.8662 C   0  0  0  0  0  0  0  0  0  0  0  0
    1.4328   -1.4288   10.3645 P   0  0  0  0  0  0  0  0  0  0  0  0
    0.2679   -3.4581   10.8817 Ru  0  0  0  0  0  0  0  0  0  0  0  0
   -3.1454   -3.0766   10.3395 C   0  0  0  0  0  0  0  0  0  0  0  0
   -2.9228   -3.7355    9.3826 H   0  0  0  0  0  0  0  0  0  0  0  0
    2.3283   -4.5421   10.1754 P   0  0  0  0  0  0  0  0  0  0  0  0
   -1.7362   -2.5685   11.3487 B   0  0  0  0  0  0  0  0  0  0  0  0
   -2.3989   -2.6071   13.0034 B   0  0  0  0  0  0  0  0  0  0  0  0
   -1.7676   -2.9311   13.7628 H   0  0  0  0  0  0  0  0  0  0  0  0
   -4.1091   -3.1685   13.0149 B   0  0  0  0  0  0  0  0  0  0  0  0
   -4.4232   -3.7889   13.7881 H   0  0  0  0  0  0  0  0  0  0  0  0
   -4.5825   -3.4875   11.3015 B   0  0  0  0  0  0  0  0  0  0  0  0
   -5.1770   -4.3457   11.0063 H   0  0  0  0  0  0  0  0  0  0  0  0
   -2.7433   -1.3784   10.4255 B   0  0  0  0  0  0  0  0  0  0  0  0
   -2.2818   -0.9273    9.5542 H   0  0  0  0  0  0  0  0  0  0  0  0
   -2.2957   -1.0642   12.1220 B   0  0  0  0  0  0  0  0  0  0  0  0
   -1.5456   -0.3840   12.4375 H   0  0  0  0  0  0  0  0  0  0  0  0
   -3.7377   -1.4260   13.1651 B   0  0  0  0  0  0  0  0  0  0  0  0
   -3.9184   -0.9297   14.1045 H   0  0  0  0  0  0  0  0  0  0  0  0
   -5.0870   -1.9675   12.1037 B   0  0  0  0  0  0  0  0  0  0  0  0
   -6.1142   -1.7692   12.4017 H   0  0  0  0  0  0  0  0  0  0  0  0
   -4.4794   -1.9302   10.3998 B   0  0  0  0  0  0  0  0  0  0  0  0
   -5.0742   -1.7673    9.5095 H   0  0  0  0  0  0  0  0  0  0  0  0
   -3.9706   -0.6488   11.5506 B   0  0  0  0  0  0  0  0  0  0  0  0
   -4.2482    0.3665   11.4630 H   0  0  0  0  0  0  0  0  0  0  0  0
    2.8671   -1.9407    9.2770 C   0  0  0  0  0  0  0  0  0  0  0  0
    2.5373   -2.1644    8.3708 H   0  0  0  0  0  0  0  0  0  0  0  0
    3.5111   -1.1927    9.1961 H   0  0  0  0  0  0  0  0  0  0  0  0
    0.9024   -3.4614   12.7506 C   0  0  0  0  0  0  0  0  0  0  0  0
    1.2973   -3.5071   13.8326 O   0  0  0  0  0  0  0  0  0  0  0  0
   -0.4403   -3.3413    9.0562 C   0  0  0  0  0  0  0  0  0  0  0  0
   -0.8645   -3.1484    8.0001 O   0  0  0  0  0  0  0  0  0  0  0  0
    0.6139   -0.0883    9.3837 C   0  0  0  0  0  0  0  0  0  0  0  0
    0.0621    1.0420   10.0361 C   0  0  0  0  0  0  0  0  0  0  0  0
    0.1347    1.1249   10.9795 H   0  0  0  0  0  0  0  0  0  0  0  0
   -0.5943    2.0462    9.2913 C   0  0  0  0  0  0  0  0  0  0  0  0
   -0.9788    2.7901    9.7393 H   0  0  0  0  0  0  0  0  0  0  0  0
   -0.6821    1.9523    7.8890 C   0  0  0  0  0  0  0  0  0  0  0  0
   -1.1071    2.6391    7.3888 H   0  0  0  0  0  0  0  0  0  0  0  0
   -0.1351    0.8322    7.2352 C   0  0  0  0  0  0  0  0  0  0  0  0
   -0.1875    0.7664    6.2889 H   0  0  0  0  0  0  0  0  0  0  0  0
    0.4888   -0.1910    7.9731 C   0  0  0  0  0  0  0  0  0  0  0  0
    0.8285   -0.9564    7.5246 H   0  0  0  0  0  0  0  0  0  0  0  0
    2.1950   -0.5125   11.7924 C   0  0  0  0  0  0  0  0  0  0  0  0
    1.4693   -0.4024   13.0085 C   0  0  0  0  0  0  0  0  0  0  0  0
    0.6122   -0.8063   13.0822 H   0  0  0  0  0  0  0  0  0  0  0  0
    2.0068    0.3005   14.1091 C   0  0  0  0  0  0  0  0  0  0  0  0
    1.5108    0.3753   14.9164 H   0  0  0  0  0  0  0  0  0  0  0  0
    3.2768    0.8868   14.0057 C   0  0  0  0  0  0  0  0  0  0  0  0
    3.6485    1.3476   14.7492 H   0  0  0  0  0  0  0  0  0  0  0  0
    3.9950    0.7941   12.8115 C   0  0  0  0  0  0  0  0  0  0  0  0
    4.8501    1.2006   12.7450 H   0  0  0  0  0  0  0  0  0  0  0  0
    3.4602    0.1015   11.7025 C   0  0  0  0  0  0  0  0  0  0  0  0
    3.9558    0.0489   10.8929 H   0  0  0  0  0  0  0  0  0  0  0  0
    3.5714   -3.1736    9.8991 C   0  0  0  0  0  0  0  0  0  0  0  0
    3.9868   -2.9206   10.7616 H   0  0  0  0  0  0  0  0  0  0  0  0
    4.2871   -3.4909    9.2931 H   0  0  0  0  0  0  0  0  0  0  0  0
    2.3764   -5.4565    8.5494 C   0  0  0  0  0  0  0  0  0  0  0  0
    1.2146   -5.7241    7.7928 C   0  0  0  0  0  0  0  0  0  0  0  0
    0.3674   -5.4369    8.1141 H   0  0  0  0  0  0  0  0  0  0  0  0
    1.2996   -6.4155    6.5629 C   0  0  0  0  0  0  0  0  0  0  0  0
    0.5150   -6.5567    6.0471 H   0  0  0  0  0  0  0  0  0  0  0  0
    2.5333   -6.8956    6.0983 C   0  0  0  0  0  0  0  0  0  0  0  0
    2.5831   -7.3761    5.2801 H   0  0  0  0  0  0  0  0  0  0  0  0
    3.6976   -6.6602    6.8532 C   0  0  0  0  0  0  0  0  0  0  0  0
    4.5366   -6.9859    6.5486 H   0  0  0  0  0  0  0  0  0  0  0  0
    3.6167   -5.9420    8.0607 C   0  0  0  0  0  0  0  0  0  0  0  0
    4.4091   -5.7791    8.5588 H   0  0  0  0  0  0  0  0  0  0  0  0
    3.2591   -5.6964   11.2923 C   0  0  0  0  0  0  0  0  0  0  0  0
    3.9639   -5.1855   12.4136 C   0  0  0  0  0  0  0  0  0  0  0  0
    3.9390   -4.2547   12.6047 H   0  0  0  0  0  0  0  0  0  0  0  0
    4.7022   -6.0545   13.2465 C   0  0  0  0  0  0  0  0  0  0  0  0
    5.1905   -5.7009   13.9806 H   0  0  0  0  0  0  0  0  0  0  0  0
    4.7225   -7.4346   12.9991 C   0  0  0  0  0  0  0  0  0  0  0  0
    5.2239   -8.0123   13.5613 H   0  0  0  0  0  0  0  0  0  0  0  0
    3.9949   -7.9593   11.9104 C   0  0  0  0  0  0  0  0  0  0  0  0
    3.9888   -8.8960   11.7525 H   0  0  0  0  0  0  0  0  0  0  0  0
    3.2763   -7.0930   11.0529 C   0  0  0  0  0  0  0  0  0  0  0  0
    2.8017   -7.4503   10.3109 H   0  0  0  0  0  0  0  0  0  0  0  0
   -2.4057   -5.2373   11.9089 C   0  0  0  0  0  0  0  0  0  0  0  0
   -0.6880   -5.3549   11.4843 C   0  0  0  0  0  0  0  0  0  0  0  0
   -1.9341   -6.0600   10.4397 B   0  0  0  0  0  0  0  0  0  0  0  0
   -2.0730   -5.6360    9.4647 H   0  0  0  0  0  0  0  0  0  0  0  0
   -3.3043   -6.6656   11.4511 B   0  0  0  0  0  0  0  0  0  0  0  0
   -4.3512   -6.5682   11.0929 H   0  0  0  0  0  0  0  0  0  0  0  0
   -2.8971   -6.3461   13.1742 B   0  0  0  0  0  0  0  0  0  0  0  0
   -3.6185   -5.9765   13.9195 H   0  0  0  0  0  0  0  0  0  0  0  0
   -1.2976   -5.5859   13.1540 B   0  0  0  0  0  0  0  0  0  0  0  0
   -1.1119   -4.8798   13.8150 H   0  0  0  0  0  0  0  0  0  0  0  0
   -0.4630   -6.9849   10.8483 B   0  0  0  0  0  0  0  0  0  0  0  0
    0.2881   -7.0597   10.0676 H   0  0  0  0  0  0  0  0  0  0  0  0
   -2.0636   -7.8075   10.7986 B   0  0  0  0  0  0  0  0  0  0  0  0
   -2.3073   -8.4739   10.0243 H   0  0  0  0  0  0  0  0  0  0  0  0
   -2.6616   -7.9899   12.4971 B   0  0  0  0  0  0  0  0  0  0  0  0
   -3.2917   -8.7719   12.8181 H   0  0  0  0  0  0  0  0  0  0  0  0
   -1.4042   -7.2699   13.5874 B   0  0  0  0  0  0  0  0  0  0  0  0
   -1.2297   -7.5035   14.6522 H   0  0  0  0  0  0  0  0  0  0  0  0
   -0.0546   -6.6537   12.5566 B   0  0  0  0  0  0  0  0  0  0  0  0
    0.9573   -6.4911   12.9509 H   0  0  0  0  0  0  0  0  0  0  0  0
   -0.8955   -8.1927   12.1244 B   0  0  0  0  0  0  0  0  0  0  0  0
   -0.3910   -9.1498   12.1584 H   0  0  0  0  0  0  0  0  0  0  0  0
  1  4  1  0  0  0  0
  2  3  1  0  0  0  0
  3  6  1  0  0  0  0
  4  5  1  0  0  0  0
  6 55  1  0  0  0  0
  7  1  1  0  0  0  0
  8  1  1  0  0  0  0
  9  8  1  0  0  0  0
 10  1  1  0  0  0  0
 11 10  1  0  0  0  0
 12  1  1  0  0  0  0
 13 12  1  0  0  0  0
 14  4  1  0  0  0  0
 15 14  1  0  0  0  0
 16  7  1  0  0  0  0
 17 16  1  0  0  0  0
 18  8  1  0  0  0  0
 19 18  1  0  0  0  0
 20 10  1  0  0  0  0
 21 20  1  0  0  0  0
 22  4  1  0  0  0  0
 23 22  1  0  0  0  0
 24 14  1  0  0  0  0
 25 24  1  0  0  0  0
 26  2  1  0  0  0  0
 27 26  1  0  0  0  0
 28 26  1  0  0  0  0
 29  3  1  0  0  0  0
 30 29  3  0  0  0  0
 31  3  1  0  0  0  0
 32 31  3  0  0  0  0
 33  2  1  0  0  0  0
 34 33  4  0  0  0  0
 35 34  1  0  0  0  0
 36 34  4  0  0  0  0
 37 36  1  0  0  0  0
 38 36  4  0  0  0  0
 39 38  1  0  0  0  0
 40 38  4  0  0  0  0
 41 40  1  0  0  0  0
 42 33  4  0  0  0  0
 43 42  1  0  0  0  0
 44  2  1  0  0  0  0
 45 44  4  0  0  0  0
 46 45  1  0  0  0  0
 47 45  4  0  0  0  0
 48 47  1  0  0  0  0
 49 47  4  0  0  0  0
 50 49  1  0  0  0  0
 51 49  4  0  0  0  0
 52 51  1  0  0  0  0
 53 44  4  0  0  0  0
 54 53  1  0  0  0  0
 55 26  1  0  0  0  0
 56 55  1  0  0  0  0
 57 55  1  0  0  0  0
 58  6  1  0  0  0  0
 59 58  4  0  0  0  0
 60 59  1  0  0  0  0
 61 59  4  0  0  0  0
 62 61  1  0  0  0  0
 63 61  4  0  0  0  0
 64 63  1  0  0  0  0
 65 63  4  0  0  0  0
 66 65  1  0  0  0  0
 67 58  4  0  0  0  0
 68 67  1  0  0  0  0
 69  6  1  0  0  0  0
 70 69  4  0  0  0  0
 71 70  1  0  0  0  0
 72 70  4  0  0  0  0
 73 72  1  0  0  0  0
 74 72  4  0  0  0  0
 75 74  1  0  0  0  0
 76 74  4  0  0  0  0
 77 76  1  0  0  0  0
 78 69  4  0  0  0  0
 79 78  1  0  0  0  0
 80  1  1  0  0  0  0
 81  3  1  0  0  0  0
 82 80  1  0  0  0  0
 83 82  1  0  0  0  0
 84 80  1  0  0  0  0
 85 84  1  0  0  0  0
 86 80  1  0  0  0  0
 87 86  1  0  0  0  0
 88 80  1  0  0  0  0
 89 88  1  0  0  0  0
 90 81  1  0  0  0  0
 91 90  1  0  0  0  0
 92 82  1  0  0  0  0
 93 92  1  0  0  0  0
 94 84  1  0  0  0  0
 95 94  1  0  0  0  0
 96 86  1  0  0  0  0
 97 96  1  0  0  0  0
 98 81  1  0  0  0  0
 99 98  1  0  0  0  0
100 90  1  0  0  0  0
101100  1  0  0  0  0
  3  7  1  0  0  0  0
  4  7  1  0  0  0  0
  4 12  1  0  0  0  0
  7  8  1  0  0  0  0
  7 14  1  0  0  0  0
  8 10  1  0  0  0  0
  8 16  1  0  0  0  0
 10 12  1  0  0  0  0
 10 18  1  0  0  0  0
 12 20  1  0  0  0  0
 12 22  1  0  0  0  0
 14 16  1  0  0  0  0
 14 22  1  0  0  0  0
 16 18  1  0  0  0  0
 16 24  1  0  0  0  0
 18 20  1  0  0  0  0
 18 24  1  0  0  0  0
 20 22  1  0  0  0  0
 20 24  1  0  0  0  0
 22 24  1  0  0  0  0
 40 42  4  0  0  0  0
 51 53  4  0  0  0  0
 65 67  4  0  0  0  0
 76 78  4  0  0  0  0
 80 81  1  0  0  0  0
 81 82  1  0  0  0  0
 81 88  1  0  0  0  0
 82 84  1  0  0  0  0
 82 90  1  0  0  0  0
 84 86  1  0  0  0  0
 84 92  1  0  0  0  0
 86 88  1  0  0  0  0
 86 94  1  0  0  0  0
 88 96  1  0  0  0  0
 88 98  1  0  0  0  0
 90 92  1  0  0  0  0
 90 98  1  0  0  0  0
 92 94  1  0  0  0  0
 92100  1  0  0  0  0
 94 96  1  0  0  0  0
 94100  1  0  0  0  0
 96 98  1  0  0  0  0
 96100  1  0  0  0  0
 98100  1  0  0  0  0
M  END
$$$$
JAGCED

From CSD data. Using bond type 'Any'. No disordered atoms. Largest molecule.
156159  0  0  0  0  0  0  0  0999 V2000
    1.2788   12.0414    6.6726 P   0  0  0  0  0  0  0  0  0  0  0  0
    1.2975   10.8006    6.3504 H   0  0  0  0  0  0  0  0  0  0  0  0
   12.7148   13.2123    3.8269 P   0  0  0  0  0  0  0  0  0  0  0  0
   12.7032   12.6372    4.7654 H   0  0  0  0  0  0  0  0  0  0  0  0
    3.0106   12.4417    7.3066 C   0  0  0  0  0  0  0  0  0  0  0  0
    3.0118   13.3095    7.7831 H   0  0  0  0  0  0  0  0  0  0  0  0
    3.3202   11.7374    7.9312 H   0  0  0  0  0  0  0  0  0  0  0  0
    3.9356   12.5075    6.0709 C   0  0  0  0  0  0  0  0  0  0  0  0
    3.8155   13.3954    5.6507 H   0  0  0  0  0  0  0  0  0  0  0  0
    3.6190   11.8318    5.4192 H   0  0  0  0  0  0  0  0  0  0  0  0
   11.0457   12.7973    3.1961 C   0  0  0  0  0  0  0  0  0  0  0  0
   10.7504   13.4864    2.5475 H   0  0  0  0  0  0  0  0  0  0  0  0
   11.0680   11.9228    2.7320 H   0  0  0  0  0  0  0  0  0  0  0  0
   10.0784   12.7400    4.3639 C   0  0  0  0  0  0  0  0  0  0  0  0
   10.4171   13.3752    5.0438 H   0  0  0  0  0  0  0  0  0  0  0  0
   10.1628   11.8352    4.7560 H   0  0  0  0  0  0  0  0  0  0  0  0
    5.4590   12.2834    6.2826 B   0  0  0  0  0  0  0  0  0  0  0  0
    6.2825   12.7535    5.4411 O   0  0  0  0  0  0  0  0  0  0  0  0
    7.7815   12.6035    5.3806 C   0  0  0  0  0  0  0  0  0  0  0  0
    8.1548   13.0921    6.1523 H   0  0  0  0  0  0  0  0  0  0  0  0
    7.9826   11.6448    5.5214 H   0  0  0  0  0  0  0  0  0  0  0  0
    8.5484   13.0197    4.2117 B   0  0  0  0  0  0  0  0  0  0  0  0
    0.2676   12.2766    8.1930 C   0  0  0  0  0  0  0  0  0  0  0  0
    0.0864   11.2319    9.1189 C   0  0  0  0  0  0  0  0  0  0  0  0
   -0.3576   11.5403   10.3900 C   0  0  0  0  0  0  0  0  0  0  0  0
   -0.4441   10.8292   11.0147 H   0  0  0  0  0  0  0  0  0  0  0  0
   -0.6787   12.8006   10.8061 C   0  0  0  0  0  0  0  0  0  0  0  0
   -0.5696   13.8470    9.8530 C   0  0  0  0  0  0  0  0  0  0  0  0
   -0.7632   14.7367   10.1252 H   0  0  0  0  0  0  0  0  0  0  0  0
   -0.1854   13.6145    8.5318 C   0  0  0  0  0  0  0  0  0  0  0  0
    0.2919    9.7273    8.7540 C   0  0  0  0  0  0  0  0  0  0  0  0
   -0.3509    8.8073    9.8666 C   0  0  0  0  0  0  0  0  0  0  0  0
   -1.2899    9.0583    9.9948 H   0  0  0  0  0  0  0  0  0  0  0  0
    0.1355    8.9235   10.7091 H   0  0  0  0  0  0  0  0  0  0  0  0
   -0.2988    7.8704    9.5861 H   0  0  0  0  0  0  0  0  0  0  0  0
    1.7334    9.3145    8.5986 C   0  0  0  0  0  0  0  0  0  0  0  0
    2.2216    9.5167    9.4244 H   0  0  0  0  0  0  0  0  0  0  0  0
    2.1360    9.8048    7.8520 H   0  0  0  0  0  0  0  0  0  0  0  0
    1.7794    8.3523    8.4192 H   0  0  0  0  0  0  0  0  0  0  0  0
   -0.5700    9.4021    7.5016 C   0  0  0  0  0  0  0  0  0  0  0  0
   -0.3528   10.0323    6.7831 H   0  0  0  0  0  0  0  0  0  0  0  0
   -1.5198    9.4796    7.7300 H   0  0  0  0  0  0  0  0  0  0  0  0
   -0.3799    8.4871    7.2023 H   0  0  0  0  0  0  0  0  0  0  0  0
   -1.1871   13.1528   12.2222 C   0  0  0  0  0  0  0  0  0  0  0  0
   -1.1582   11.9784   13.1617 C   0  0  0  0  0  0  0  0  0  0  0  0
   -0.2457   11.6245   13.2159 H   0  0  0  0  0  0  0  0  0  0  0  0
   -1.7602   11.2791   12.8291 H   0  0  0  0  0  0  0  0  0  0  0  0
   -1.4500   12.2648   14.0522 H   0  0  0  0  0  0  0  0  0  0  0  0
   -0.1870   14.1250   12.8874 C   0  0  0  0  0  0  0  0  0  0  0  0
   -0.1961   14.9810   12.4088 H   0  0  0  0  0  0  0  0  0  0  0  0
    0.7139   13.7408   12.8530 H   0  0  0  0  0  0  0  0  0  0  0  0
   -0.4446   14.2716   13.8218 H   0  0  0  0  0  0  0  0  0  0  0  0
   -2.5442   13.7729   12.1909 C   0  0  0  0  0  0  0  0  0  0  0  0
   -3.1757   13.1545   11.7665 H   0  0  0  0  0  0  0  0  0  0  0  0
   -2.5102   14.6086   11.6789 H   0  0  0  0  0  0  0  0  0  0  0  0
   -2.8387   13.9633   13.1064 H   0  0  0  0  0  0  0  0  0  0  0  0
   -0.3505   14.7518    7.4964 C   0  0  0  0  0  0  0  0  0  0  0  0
   -1.1687   15.9128    8.1189 C   0  0  0  0  0  0  0  0  0  0  0  0
   -1.9774   15.5539    8.5423 H   0  0  0  0  0  0  0  0  0  0  0  0
   -1.4229   16.5463    7.4161 H   0  0  0  0  0  0  0  0  0  0  0  0
   -0.6240   16.3728    8.7925 H   0  0  0  0  0  0  0  0  0  0  0  0
   -1.2865   14.3070    6.3598 C   0  0  0  0  0  0  0  0  0  0  0  0
   -1.3598   15.0265    5.6976 H   0  0  0  0  0  0  0  0  0  0  0  0
   -2.1730   14.1082    6.7247 H   0  0  0  0  0  0  0  0  0  0  0  0
   -0.9203   13.5050    5.9312 H   0  0  0  0  0  0  0  0  0  0  0  0
    0.9709   15.3668    6.9750 C   0  0  0  0  0  0  0  0  0  0  0  0
    0.7857   16.2312    6.5548 H   0  0  0  0  0  0  0  0  0  0  0  0
    1.3752   14.7636    6.3160 H   0  0  0  0  0  0  0  0  0  0  0  0
    1.5915   15.4932    7.7237 H   0  0  0  0  0  0  0  0  0  0  0  0
    6.0167   11.3364    7.4224 C   0  0  0  0  0  0  0  0  0  0  0  0
    6.6306   11.8655    8.5850 C   0  0  0  0  0  0  0  0  0  0  0  0
    7.2157   10.9960    9.5777 C   0  0  0  0  0  0  0  0  0  0  0  0
    7.6331   11.3718   10.3452 H   0  0  0  0  0  0  0  0  0  0  0  0
    7.1764    9.6649    9.4244 C   0  0  0  0  0  0  0  0  0  0  0  0
    6.5442    9.0769    8.2597 C   0  0  0  0  0  0  0  0  0  0  0  0
    6.4792    8.1350    8.1554 H   0  0  0  0  0  0  0  0  0  0  0  0
    6.0446    9.9295    7.3170 C   0  0  0  0  0  0  0  0  0  0  0  0
    6.7411   13.3162    8.7957 C   0  0  0  0  0  0  0  0  0  0  0  0
    7.9103   13.8470    8.4151 F   0  0  0  0  0  0  0  0  0  0  0  0
    5.7871   13.9784    8.1366 F   0  0  0  0  0  0  0  0  0  0  0  0
    6.5759   13.6566   10.0856 F   0  0  0  0  0  0  0  0  0  0  0  0
    7.7052    8.8123   10.4432 C   0  0  0  0  0  0  0  0  0  0  0  0
    5.4493    9.3060    6.1387 C   0  0  0  0  0  0  0  0  0  0  0  0
    5.9328    8.0743    5.8499 F   0  0  0  0  0  0  0  0  0  0  0  0
    5.7014    9.9969    4.9979 F   0  0  0  0  0  0  0  0  0  0  0  0
    4.1419    9.1476    6.2169 F   0  0  0  0  0  0  0  0  0  0  0  0
   13.7282   12.9371    2.3003 C   0  0  0  0  0  0  0  0  0  0  0  0
   14.1866   11.6515    1.9437 C   0  0  0  0  0  0  0  0  0  0  0  0
   14.6272   11.4375    0.6507 C   0  0  0  0  0  0  0  0  0  0  0  0
   14.9258   10.5630    0.4265 H   0  0  0  0  0  0  0  0  0  0  0  0
   14.6622   12.3929   -0.3285 C   0  0  0  0  0  0  0  0  0  0  0  0
   14.3636   13.7122    0.0761 C   0  0  0  0  0  0  0  0  0  0  0  0
   14.4723   14.4165   -0.5537 H   0  0  0  0  0  0  0  0  0  0  0  0
   13.9109   14.0323    1.3858 C   0  0  0  0  0  0  0  0  0  0  0  0
   14.3931   10.4788    2.9677 C   0  0  0  0  0  0  0  0  0  0  0  0
   13.1041    9.8772    3.5224 C   0  0  0  0  0  0  0  0  0  0  0  0
   12.6066    9.4442    2.7967 H   0  0  0  0  0  0  0  0  0  0  0  0
   12.5552   10.5883    3.9156 H   0  0  0  0  0  0  0  0  0  0  0  0
   13.3220    9.2134    4.2096 H   0  0  0  0  0  0  0  0  0  0  0  0
   15.2436   11.0331    4.1418 C   0  0  0  0  0  0  0  0  0  0  0  0
   15.5037   10.2951    4.7331 H   0  0  0  0  0  0  0  0  0  0  0  0
   14.7163   11.6869    4.6465 H   0  0  0  0  0  0  0  0  0  0  0  0
   16.0479   11.4645    3.7873 H   0  0  0  0  0  0  0  0  0  0  0  0
   15.1042    9.2690    2.3368 C   0  0  0  0  0  0  0  0  0  0  0  0
   14.5445    8.8949    1.6236 H   0  0  0  0  0  0  0  0  0  0  0  0
   15.2573    8.5849    3.0230 H   0  0  0  0  0  0  0  0  0  0  0  0
   15.9644    9.5537    1.9625 H   0  0  0  0  0  0  0  0  0  0  0  0
   15.1014   12.1149   -1.7591 C   0  0  0  0  0  0  0  0  0  0  0  0
   14.1712   11.0432   -2.3629 C   0  0  0  0  0  0  0  0  0  0  0  0
   14.5432   10.7298   -3.2138 H   0  0  0  0  0  0  0  0  0  0  0  0
   13.2847   11.4274   -2.5162 H   0  0  0  0  0  0  0  0  0  0  0  0
   14.0977   10.2884   -1.7414 H   0  0  0  0  0  0  0  0  0  0  0  0
   16.5742   11.5504   -1.6976 C   0  0  0  0  0  0  0  0  0  0  0  0
   17.1748   12.2429   -1.3493 H   0  0  0  0  0  0  0  0  0  0  0  0
   16.8641   11.2909   -2.5986 H   0  0  0  0  0  0  0  0  0  0  0  0
   16.6017   10.7686   -1.1085 H   0  0  0  0  0  0  0  0  0  0  0  0
   15.2088   13.4359   -2.5975 C   0  0  0  0  0  0  0  0  0  0  0  0
   15.5061   13.2219   -3.5058 H   0  0  0  0  0  0  0  0  0  0  0  0
   15.8544   14.0391   -2.1742 H   0  0  0  0  0  0  0  0  0  0  0  0
   14.3318   13.8706   -2.6340 H   0  0  0  0  0  0  0  0  0  0  0  0
   13.7829   15.5269    1.7331 C   0  0  0  0  0  0  0  0  0  0  0  0
   14.5555   15.8976    2.9969 C   0  0  0  0  0  0  0  0  0  0  0  0
   14.0947   15.5303    3.7810 H   0  0  0  0  0  0  0  0  0  0  0  0
   14.6046   16.8732    3.0751 H   0  0  0  0  0  0  0  0  0  0  0  0
   15.4613   15.5269    2.9468 H   0  0  0  0  0  0  0  0  0  0  0  0
   12.2750   15.9229    1.9145 C   0  0  0  0  0  0  0  0  0  0  0  0
   12.1874   16.8985    1.8822 H   0  0  0  0  0  0  0  0  0  0  0  0
   11.9519   15.5926    2.7790 H   0  0  0  0  0  0  0  0  0  0  0  0
   11.7450   15.5219    1.1940 H   0  0  0  0  0  0  0  0  0  0  0  0
   14.2795   16.4300    0.6330 C   0  0  0  0  0  0  0  0  0  0  0  0
   15.2019   16.1891    0.4046 H   0  0  0  0  0  0  0  0  0  0  0  0
   14.2493   17.3601    0.9364 H   0  0  0  0  0  0  0  0  0  0  0  0
   13.7098   16.3256   -0.1575 H   0  0  0  0  0  0  0  0  0  0  0  0
    7.8979   13.9633    3.0834 C   0  0  0  0  0  0  0  0  0  0  0  0
    7.9462   15.3500    3.2190 C   0  0  0  0  0  0  0  0  0  0  0  0
    7.3696   16.1706    2.2159 C   0  0  0  0  0  0  0  0  0  0  0  0
    7.3526   17.1125    2.3410 H   0  0  0  0  0  0  0  0  0  0  0  0
    6.8603   15.6668    1.1241 C   0  0  0  0  0  0  0  0  0  0  0  0
    6.7865   14.2345    0.9604 C   0  0  0  0  0  0  0  0  0  0  0  0
    6.3797   13.8521    0.1919 H   0  0  0  0  0  0  0  0  0  0  0  0
    7.3020   13.4679    1.9124 C   0  0  0  0  0  0  0  0  0  0  0  0
    8.5930   16.0038    4.4411 C   0  0  0  0  0  0  0  0  0  0  0  0
    9.8804   16.1301    4.2847 F   0  0  0  0  0  0  0  0  0  0  0  0
    8.3913   15.2961    5.5579 F   0  0  0  0  0  0  0  0  0  0  0  0
    8.0267   17.2051    4.6768 F   0  0  0  0  0  0  0  0  0  0  0  0
    6.2353   16.5514    0.0292 C   0  0  0  0  0  0  0  0  0  0  0  0
    6.7386   17.7544    0.0594 F   0  0  0  0  0  0  0  0  0  0  0  0
    4.9604   16.6710    0.0313 F   0  0  0  0  0  0  0  0  0  0  0  0
    6.5793   16.0425   -1.2075 F   0  0  0  0  0  0  0  0  0  0  0  0
    7.3169    9.1628   11.6956 F   0  0  0  0  0  0  0  0  0  0  0  0
    7.2903    7.5031   10.3608 F   0  0  0  0  0  0  0  0  0  0  0  0
    9.0715    8.8410   10.4943 F   0  0  0  0  0  0  0  0  0  0  0  0
    7.2754   11.9632    1.6861 C   0  0  0  0  0  0  0  0  0  0  0  0
    6.1440   11.4678    2.2628 F   0  0  0  0  0  0  0  0  0  0  0  0
    7.2346   11.6431    0.3858 F   0  0  0  0  0  0  0  0  0  0  0  0
    8.3147   11.2909    2.2211 F   0  0  0  0  0  0  0  0  0  0  0  0
  1  2  1  0  0  0  0
  3  4  1  0  0  0  0
  5  1  1  0  0  0  0
  6  5  1  0  0  0  0
  7  5  1  0  0  0  0
  8  5  1  0  0  0  0
  9  8  1  0  0  0  0
 10  8  1  0  0  0  0
 11  3  1  0  0  0  0
 12 11  1  0  0  0  0
 13 11  1  0  0  0  0
 14 11  1  0  0  0  0
 15 14  1  0  0  0  0
 16 14  1  0  0  0  0
 17  8  1  0  0  0  0
 18 17  1  0  0  0  0
 19 18  1  0  0  0  0
 20 19  1  0  0  0  0
 21 19  1  0  0  0  0
 22 14  1  0  0  0  0
 23  1  1  0  0  0  0
 24 23  4  0  0  0  0
 25 24  4  0  0  0  0
 26 25  1  0  0  0  0
 27 25  4  0  0  0  0
 28 27  4  0  0  0  0
 29 28  1  0  0  0  0
 30 23  4  0  0  0  0
 31 24  1  0  0  0  0
 32 31  1  0  0  0  0
 33 32  1  0  0  0  0
 34 32  1  0  0  0  0
 35 32  1  0  0  0  0
 36 31  1  0  0  0  0
 37 36  1  0  0  0  0
 38 36  1  0  0  0  0
 39 36  1  0  0  0  0
 40 31  1  0  0  0  0
 41 40  1  0  0  0  0
 42 40  1  0  0  0  0
 43 40  1  0  0  0  0
 44 27  1  0  0  0  0
 45 44  1  0  0  0  0
 46 45  1  0  0  0  0
 47 45  1  0  0  0  0
 48 45  1  0  0  0  0
 49 44  1  0  0  0  0
 50 49  1  0  0  0  0
 51 49  1  0  0  0  0
 52 49  1  0  0  0  0
 53 44  1  0  0  0  0
 54 53  1  0  0  0  0
 55 53  1  0  0  0  0
 56 53  1  0  0  0  0
 57 30  1  0  0  0  0
 58 57  1  0  0  0  0
 59 58  1  0  0  0  0
 60 58  1  0  0  0  0
 61 58  1  0  0  0  0
 62 57  1  0  0  0  0
 63 62  1  0  0  0  0
 64 62  1  0  0  0  0
 65 62  1  0  0  0  0
 66 57  1  0  0  0  0
 67 66  1  0  0  0  0
 68 66  1  0  0  0  0
 69 66  1  0  0  0  0
 70 17  1  0  0  0  0
 71 70  4  0  0  0  0
 72 71  4  0  0  0  0
 73 72  1  0  0  0  0
 74 72  4  0  0  0  0
 75 74  4  0  0  0  0
 76 75  1  0  0  0  0
 77 70  4  0  0  0  0
 78 71  1  0  0  0  0
 79 78  1  0  0  0  0
 80 78  1  0  0  0  0
 81 78  1  0  0  0  0
 82 74  1  0  0  0  0
 83 77  1  0  0  0  0
 84 83  1  0  0  0  0
 85 83  1  0  0  0  0
 86 83  1  0  0  0  0
 87  3  1  0  0  0  0
 88 87  4  0  0  0  0
 89 88  4  0  0  0  0
 90 89  1  0  0  0  0
 91 89  4  0  0  0  0
 92 91  4  0  0  0  0
 93 92  1  0  0  0  0
 94 87  4  0  0  0  0
 95 88  1  0  0  0  0
 96 95  1  0  0  0  0
 97 96  1  0  0  0  0
 98 96  1  0  0  0  0
 99 96  1  0  0  0  0
100 95  1  0  0  0  0
101100  1  0  0  0  0
102100  1  0  0  0  0
103100  1  0  0  0  0
104 95  1  0  0  0  0
105104  1  0  0  0  0
106104  1  0  0  0  0
107104  1  0  0  0  0
108 91  1  0  0  0  0
109108  1  0  0  0  0
110109  1  0  0  0  0
111109  1  0  0  0  0
112109  1  0  0  0  0
113108  1  0  0  0  0
114113  1  0  0  0  0
115113  1  0  0  0  0
116113  1  0  0  0  0
117108  1  0  0  0  0
118117  1  0  0  0  0
119117  1  0  0  0  0
120117  1  0  0  0  0
121 94  1  0  0  0  0
122121  1  0  0  0  0
123122  1  0  0  0  0
124122  1  0  0  0  0
125122  1  0  0  0  0
126121  1  0  0  0  0
127126  1  0  0  0  0
128126  1  0  0  0  0
129126  1  0  0  0  0
130121  1  0  0  0  0
131130  1  0  0  0  0
132130  1  0  0  0  0
133130  1  0  0  0  0
134 22  1  0  0  0  0
135134  4  0  0  0  0
136135  4  0  0  0  0
137136  1  0  0  0  0
138136  4  0  0  0  0
139138  4  0  0  0  0
140139  1  0  0  0  0
141134  4  0  0  0  0
142135  1  0  0  0  0
143142  1  0  0  0  0
144142  1  0  0  0  0
145142  1  0  0  0  0
146138  1  0  0  0  0
147146  1  0  0  0  0
148146  1  0  0  0  0
149146  1  0  0  0  0
150 82  1  0  0  0  0
151 82  1  0  0  0  0
152 82  1  0  0  0  0
153141  1  0  0  0  0
154153  1  0  0  0  0
155153  1  0  0  0  0
156153  1  0  0  0  0
 19 22  1  0  0  0  0
 28 30  4  0  0  0  0
 75 77  4  0  0  0  0
 92 94  4  0  0  0  0
139141  4  0  0  0  0
M  END
$$$$
JAGCUT

From CSD data. Using bond type 'Any'. No disordered atoms. Largest molecule.
158164  0  0  0  0  0  0  0  0999 V2000
    1.0981    7.1497    3.0587 P   0  0  0  0  0  0  0  0  0  0  0  0
    2.6911    3.6505    3.4082 P   0  0  0  0  0  0  0  0  0  0  0  0
    3.6482    6.2710    2.5046 B   0  0  0  0  0  0  0  0  0  0  0  0
    0.0280    4.4002    3.4160 B   0  0  0  0  0  0  0  0  0  0  0  0
    0.2707    5.9269    3.4480 O   0  0  0  0  0  0  0  0  0  0  0  0
    3.6638    4.7464    2.9204 O   0  0  0  0  0  0  0  0  0  0  0  0
    1.5235    7.2307    1.2913 C   0  0  0  0  0  0  0  0  0  0  0  0
    0.7992    6.8307    0.7480 H   0  0  0  0  0  0  0  0  0  0  0  0
    1.6389    8.1739    1.0116 H   0  0  0  0  0  0  0  0  0  0  0  0
    2.8397    6.4490    1.0837 C   0  0  0  0  0  0  0  0  0  0  0  0
    3.4114    6.9320    0.4373 H   0  0  0  0  0  0  0  0  0  0  0  0
    2.6362    5.5564    0.7068 H   0  0  0  0  0  0  0  0  0  0  0  0
    2.7855    7.0545    3.6649 C   0  0  0  0  0  0  0  0  0  0  0  0
    3.1509    7.9624    3.8150 H   0  0  0  0  0  0  0  0  0  0  0  0
    2.8181    6.5546    4.5189 H   0  0  0  0  0  0  0  0  0  0  0  0
    1.9446    3.9360    5.0578 C   0  0  0  0  0  0  0  0  0  0  0  0
    2.2764    3.2694    5.7086 H   0  0  0  0  0  0  0  0  0  0  0  0
    2.1729    4.8416    5.3876 H   0  0  0  0  0  0  0  0  0  0  0  0
    0.4295    3.7987    4.8767 C   0  0  0  0  0  0  0  0  0  0  0  0
   -0.0428    4.2970    5.5908 H   0  0  0  0  0  0  0  0  0  0  0  0
    0.1671    2.8463    4.9356 H   0  0  0  0  0  0  0  0  0  0  0  0
    1.1595    3.6477    2.4840 C   0  0  0  0  0  0  0  0  0  0  0  0
    1.2740    4.1305    1.6270 H   0  0  0  0  0  0  0  0  0  0  0  0
    0.8794    2.7182    2.2867 H   0  0  0  0  0  0  0  0  0  0  0  0
    0.3556    8.7692    3.4690 C   0  0  0  0  0  0  0  0  0  0  0  0
    0.9500    9.5449    4.5071 C   0  0  0  0  0  0  0  0  0  0  0  0
    1.1782   10.8844    4.2671 C   0  0  0  0  0  0  0  0  0  0  0  0
    1.6250   11.3907    4.9356 H   0  0  0  0  0  0  0  0  0  0  0  0
    0.7884   11.5397    3.0980 C   0  0  0  0  0  0  0  0  0  0  0  0
   -0.0726   10.8318    2.2661 C   0  0  0  0  0  0  0  0  0  0  0  0
   -0.4890   11.2932    1.5475 H   0  0  0  0  0  0  0  0  0  0  0  0
   -0.3566    9.4679    2.4383 C   0  0  0  0  0  0  0  0  0  0  0  0
    1.1717    9.0623    5.9633 C   0  0  0  0  0  0  0  0  0  0  0  0
    0.3024    9.9866    6.8512 C   0  0  0  0  0  0  0  0  0  0  0  0
   -0.6270    9.9583    6.5405 H   0  0  0  0  0  0  0  0  0  0  0  0
    0.6380   10.9053    6.7937 H   0  0  0  0  0  0  0  0  0  0  0  0
    0.3438    9.6802    7.7817 H   0  0  0  0  0  0  0  0  0  0  0  0
    2.6241    9.1929    6.4566 C   0  0  0  0  0  0  0  0  0  0  0  0
    2.6666    8.9742    7.4107 H   0  0  0  0  0  0  0  0  0  0  0  0
    2.9368   10.1113    6.3167 H   0  0  0  0  0  0  0  0  0  0  0  0
    3.1969    8.5752    5.9545 H   0  0  0  0  0  0  0  0  0  0  0  0
    0.6394    7.6498    6.2254 C   0  0  0  0  0  0  0  0  0  0  0  0
    1.1967    6.9975    5.7527 H   0  0  0  0  0  0  0  0  0  0  0  0
   -0.2843    7.5840    5.9044 H   0  0  0  0  0  0  0  0  0  0  0  0
    0.6633    7.4646    7.1884 H   0  0  0  0  0  0  0  0  0  0  0  0
    1.2627   12.9659    2.8256 C   0  0  0  0  0  0  0  0  0  0  0  0
    2.7973   12.9277    2.7681 C   0  0  0  0  0  0  0  0  0  0  0  0
    3.1495   12.6229    3.6295 H   0  0  0  0  0  0  0  0  0  0  0  0
    3.1392   13.8267    2.5738 H   0  0  0  0  0  0  0  0  0  0  0  0
    3.0833   12.3111    2.0614 H   0  0  0  0  0  0  0  0  0  0  0  0
    0.8126   13.9013    3.9476 C   0  0  0  0  0  0  0  0  0  0  0  0
   -0.1656   13.9044    3.9961 H   0  0  0  0  0  0  0  0  0  0  0  0
    1.1334   14.8087    3.7650 H   0  0  0  0  0  0  0  0  0  0  0  0
    1.1822   13.5886    4.8001 H   0  0  0  0  0  0  0  0  0  0  0  0
    0.7537   13.5117    1.4975 C   0  0  0  0  0  0  0  0  0  0  0  0
    1.0239   12.9095    0.7730 H   0  0  0  0  0  0  0  0  0  0  0  0
    1.1338   14.4015    1.3428 H   0  0  0  0  0  0  0  0  0  0  0  0
   -0.2228   13.5734    1.5225 H   0  0  0  0  0  0  0  0  0  0  0  0
   -1.5284    8.8945    1.6152 C   0  0  0  0  0  0  0  0  0  0  0  0
   -2.7550    9.7472    2.0143 C   0  0  0  0  0  0  0  0  0  0  0  0
   -3.5393    9.4449    1.5107 H   0  0  0  0  0  0  0  0  0  0  0  0
   -2.5775   10.6895    1.8111 H   0  0  0  0  0  0  0  0  0  0  0  0
   -2.9249    9.6457    2.9743 H   0  0  0  0  0  0  0  0  0  0  0  0
   -1.3366    9.0191    0.1031 C   0  0  0  0  0  0  0  0  0  0  0  0
   -0.5815    8.4599   -0.1767 H   0  0  0  0  0  0  0  0  0  0  0  0
   -1.1551    9.9530   -0.1266 H   0  0  0  0  0  0  0  0  0  0  0  0
   -2.1512    8.7210   -0.3549 H   0  0  0  0  0  0  0  0  0  0  0  0
   -1.9174    7.4584    1.9642 C   0  0  0  0  0  0  0  0  0  0  0  0
   -2.7648    7.2338    1.5269 H   0  0  0  0  0  0  0  0  0  0  0  0
   -2.0184    7.3744    2.9360 H   0  0  0  0  0  0  0  0  0  0  0  0
   -1.2171    6.8464    1.6550 H   0  0  0  0  0  0  0  0  0  0  0  0
    5.2507    6.7351    2.5193 C   0  0  0  0  0  0  0  0  0  0  0  0
    5.7169    8.0368    2.8447 C   0  0  0  0  0  0  0  0  0  0  0  0
    7.0150    8.3090    3.2349 C   0  0  0  0  0  0  0  0  0  0  0  0
    7.2578    9.1944    3.4779 H   0  0  0  0  0  0  0  0  0  0  0  0
    7.9690    7.2992    3.2747 C   0  0  0  0  0  0  0  0  0  0  0  0
    7.6287    6.0659    2.7461 C   0  0  0  0  0  0  0  0  0  0  0  0
    8.2892    5.3903    2.6592 H   0  0  0  0  0  0  0  0  0  0  0  0
    6.3303    5.8169    2.3441 C   0  0  0  0  0  0  0  0  0  0  0  0
    4.8891    9.2927    2.7004 C   0  0  0  0  0  0  0  0  0  0  0  0
    3.8017    9.1581    1.9296 F   0  0  0  0  0  0  0  0  0  0  0  0
    4.4733    9.8004    3.8847 F   0  0  0  0  0  0  0  0  0  0  0  0
    5.6145   10.2799    2.1307 F   0  0  0  0  0  0  0  0  0  0  0  0
    9.3409    7.5779    3.7517 C   0  0  0  0  0  0  0  0  0  0  0  0
    9.4363    8.2362    4.8340 F   0  0  0  0  0  0  0  0  0  0  0  0
    9.9284    8.5209    2.8241 F   0  0  0  0  0  0  0  0  0  0  0  0
   10.1707    6.5994    3.6796 F   0  0  0  0  0  0  0  0  0  0  0  0
    6.1741    4.5593    1.5210 C   0  0  0  0  0  0  0  0  0  0  0  0
    7.3102    4.3193    0.8190 F   0  0  0  0  0  0  0  0  0  0  0  0
    5.9535    3.4180    2.2088 F   0  0  0  0  0  0  0  0  0  0  0  0
    5.2036    4.6757    0.6012 F   0  0  0  0  0  0  0  0  0  0  0  0
    3.4307    1.9764    3.5559 C   0  0  0  0  0  0  0  0  0  0  0  0
    3.9871    1.5577    4.7986 C   0  0  0  0  0  0  0  0  0  0  0  0
    3.8439    0.2244    5.1711 C   0  0  0  0  0  0  0  0  0  0  0  0
    4.1776   -0.0432    6.0193 H   0  0  0  0  0  0  0  0  0  0  0  0
    3.2419   -0.7335    4.3731 C   0  0  0  0  0  0  0  0  0  0  0  0
    2.9243   -0.3478    3.0759 C   0  0  0  0  0  0  0  0  0  0  0  0
    2.5991   -1.0095    2.4766 H   0  0  0  0  0  0  0  0  0  0  0  0
    3.0568    0.9526    2.6091 C   0  0  0  0  0  0  0  0  0  0  0  0
    4.9254    2.3730    5.7469 C   0  0  0  0  0  0  0  0  0  0  0  0
    5.1426    3.8631    5.4480 C   0  0  0  0  0  0  0  0  0  0  0  0
    5.8547    4.2110    6.0237 H   0  0  0  0  0  0  0  0  0  0  0  0
    4.3124    4.3554    5.6217 H   0  0  0  0  0  0  0  0  0  0  0  0
    5.3988    3.9733    4.5086 H   0  0  0  0  0  0  0  0  0  0  0  0
    4.4967    2.2595    7.2281 C   0  0  0  0  0  0  0  0  0  0  0  0
    5.1367    2.7421    7.7920 H   0  0  0  0  0  0  0  0  0  0  0  0
    4.4744    1.3171    7.4902 H   0  0  0  0  0  0  0  0  0  0  0  0
    3.6043    2.6501    7.3400 H   0  0  0  0  0  0  0  0  0  0  0  0
    6.3234    1.7226    5.6026 C   0  0  0  0  0  0  0  0  0  0  0  0
    6.6309    1.8081    4.6749 H   0  0  0  0  0  0  0  0  0  0  0  0
    6.2692    0.7739    5.8411 H   0  0  0  0  0  0  0  0  0  0  0  0
    6.9576    2.1727    6.1989 H   0  0  0  0  0  0  0  0  0  0  0  0
    3.0785   -2.1807    4.8663 C   0  0  0  0  0  0  0  0  0  0  0  0
    2.4624   -2.1947    6.2490 C   0  0  0  0  0  0  0  0  0  0  0  0
    1.5739   -1.7824    6.2166 H   0  0  0  0  0  0  0  0  0  0  0  0
    3.0338   -1.6907    6.8659 H   0  0  0  0  0  0  0  0  0  0  0  0
    2.3814   -3.1192    6.5611 H   0  0  0  0  0  0  0  0  0  0  0  0
    4.4789   -2.8270    4.9149 C   0  0  0  0  0  0  0  0  0  0  0  0
    5.0431   -2.3370    5.5481 H   0  0  0  0  0  0  0  0  0  0  0  0
    4.8844   -2.7976    4.0227 H   0  0  0  0  0  0  0  0  0  0  0  0
    4.3974   -3.7598    5.2050 H   0  0  0  0  0  0  0  0  0  0  0  0
    2.1933   -3.0098    3.9431 C   0  0  0  0  0  0  0  0  0  0  0  0
    2.1110   -3.9181    4.3009 H   0  0  0  0  0  0  0  0  0  0  0  0
    2.5958   -3.0466    3.0509 H   0  0  0  0  0  0  0  0  0  0  0  0
    1.3062   -2.5988    3.8857 H   0  0  0  0  0  0  0  0  0  0  0  0
    3.0311    1.0298    1.0498 C   0  0  0  0  0  0  0  0  0  0  0  0
    4.3096    0.2852    0.6228 C   0  0  0  0  0  0  0  0  0  0  0  0
    4.3171   -0.6081    1.0248 H   0  0  0  0  0  0  0  0  0  0  0  0
    5.0968    0.7864    0.9247 H   0  0  0  0  0  0  0  0  0  0  0  0
    4.3302    0.2033   -0.3534 H   0  0  0  0  0  0  0  0  0  0  0  0
    1.8030    0.3221    0.4535 C   0  0  0  0  0  0  0  0  0  0  0  0
    0.9886    0.6838    0.8614 H   0  0  0  0  0  0  0  0  0  0  0  0
    1.8593   -0.6396    0.6361 H   0  0  0  0  0  0  0  0  0  0  0  0
    1.7763    0.4695   -0.5139 H   0  0  0  0  0  0  0  0  0  0  0  0
    3.1192    2.4251    0.4064 C   0  0  0  0  0  0  0  0  0  0  0  0
    3.5352    2.3529   -0.4785 H   0  0  0  0  0  0  0  0  0  0  0  0
    3.6610    3.0138    0.9733 H   0  0  0  0  0  0  0  0  0  0  0  0
    2.2187    2.8002    0.3136 H   0  0  0  0  0  0  0  0  0  0  0  0
   -1.5678    4.1354    2.9772 C   0  0  0  0  0  0  0  0  0  0  0  0
   -2.6414    4.1667    3.9269 C   0  0  0  0  0  0  0  0  0  0  0  0
   -3.9108    3.6454    3.6811 C   0  0  0  0  0  0  0  0  0  0  0  0
   -4.5711    3.6669    4.3628 H   0  0  0  0  0  0  0  0  0  0  0  0
   -4.2134    3.0974    2.4457 C   0  0  0  0  0  0  0  0  0  0  0  0
   -3.2749    3.1643    1.4459 C   0  0  0  0  0  0  0  0  0  0  0  0
   -3.4878    2.8460    0.5772 H   0  0  0  0  0  0  0  0  0  0  0  0
   -2.0049    3.6959    1.6977 C   0  0  0  0  0  0  0  0  0  0  0  0
   -2.5552    4.8073    5.2978 C   0  0  0  0  0  0  0  0  0  0  0  0
   -3.7514    5.3294    5.6503 F   0  0  0  0  0  0  0  0  0  0  0  0
   -2.2559    3.9198    6.2731 F   0  0  0  0  0  0  0  0  0  0  0  0
   -1.6881    5.8065    5.3761 F   0  0  0  0  0  0  0  0  0  0  0  0
   -5.5328    2.4622    2.2219 C   0  0  0  0  0  0  0  0  0  0  0  0
   -5.5374    1.1728    2.5841 F   0  0  0  0  0  0  0  0  0  0  0  0
   -6.5190    3.0427    2.9228 F   0  0  0  0  0  0  0  0  0  0  0  0
   -5.9158    2.4806    0.9332 F   0  0  0  0  0  0  0  0  0  0  0  0
   -1.1647    3.7914    0.4476 C   0  0  0  0  0  0  0  0  0  0  0  0
   -1.9391    3.8844   -0.6624 F   0  0  0  0  0  0  0  0  0  0  0  0
   -0.3774    4.8774    0.3986 F   0  0  0  0  0  0  0  0  0  0  0  0
   -0.3817    2.7173    0.2242 F   0  0  0  0  0  0  0  0  0  0  0  0
  1  5  2  0  0  0  0
  2  6  2  0  0  0  0
  3  6  1  0  0  0  0
  4  5  1  0  0  0  0
  7  1  1  0  0  0  0
  8  7  1  0  0  0  0
  9  7  1  0  0  0  0
 10  3  1  0  0  0  0
 11 10  1  0  0  0  0
 12 10  1  0  0  0  0
 13  1  1  0  0  0  0
 14 13  1  0  0  0  0
 15 13  1  0  0  0  0
 16  2  1  0  0  0  0
 17 16  1  0  0  0  0
 18 16  1  0  0  0  0
 19  4  1  0  0  0  0
 20 19  1  0  0  0  0
 21 19  1  0  0  0  0
 22  2  1  0  0  0  0
 23 22  1  0  0  0  0
 24 22  1  0  0  0  0
 25  1  1  0  0  0  0
 26 25  4  0  0  0  0
 27 26  4  0  0  0  0
 28 27  1  0  0  0  0
 29 27  4  0  0  0  0
 30 29  4  0  0  0  0
 31 30  1  0  0  0  0
 32 25  4  0  0  0  0
 33 26  1  0  0  0  0
 34 33  1  0  0  0  0
 35 34  1  0  0  0  0
 36 34  1  0  0  0  0
 37 34  1  0  0  0  0
 38 33  1  0  0  0  0
 39 38  1  0  0  0  0
 40 38  1  0  0  0  0
 41 38  1  0  0  0  0
 42 33  1  0  0  0  0
 43 42  1  0  0  0  0
 44 42  1  0  0  0  0
 45 42  1  0  0  0  0
 46 29  1  0  0  0  0
 47 46  1  0  0  0  0
 48 47  1  0  0  0  0
 49 47  1  0  0  0  0
 50 47  1  0  0  0  0
 51 46  1  0  0  0  0
 52 51  1  0  0  0  0
 53 51  1  0  0  0  0
 54 51  1  0  0  0  0
 55 46  1  0  0  0  0
 56 55  1  0  0  0  0
 57 55  1  0  0  0  0
 58 55  1  0  0  0  0
 59 32  1  0  0  0  0
 60 59  1  0  0  0  0
 61 60  1  0  0  0  0
 62 60  1  0  0  0  0
 63 60  1  0  0  0  0
 64 59  1  0  0  0  0
 65 64  1  0  0  0  0
 66 64  1  0  0  0  0
 67 64  1  0  0  0  0
 68 59  1  0  0  0  0
 69 68  1  0  0  0  0
 70 68  1  0  0  0  0
 71 68  1  0  0  0  0
 72  3  1  0  0  0  0
 73 72  4  0  0  0  0
 74 73  4  0  0  0  0
 75 74  1  0  0  0  0
 76 74  4  0  0  0  0
 77 76  4  0  0  0  0
 78 77  1  0  0  0  0
 79 72  4  0  0  0  0
 80 73  1  0  0  0  0
 81 80  1  0  0  0  0
 82 80  1  0  0  0  0
 83 80  1  0  0  0  0
 84 76  1  0  0  0  0
 85 84  1  0  0  0  0
 86 84  1  0  0  0  0
 87 84  1  0  0  0  0
 88 79  1  0  0  0  0
 89 88  1  0  0  0  0
 90 88  1  0  0  0  0
 91 88  1  0  0  0  0
 92  2  1  0  0  0  0
 93 92  4  0  0  0  0
 94 93  4  0  0  0  0
 95 94  1  0  0  0  0
 96 94  4  0  0  0  0
 97 96  4  0  0  0  0
 98 97  1  0  0  0  0
 99 92  4  0  0  0  0
100 93  1  0  0  0  0
101100  1  0  0  0  0
102101  1  0  0  0  0
103101  1  0  0  0  0
104101  1  0  0  0  0
105100  1  0  0  0  0
106105  1  0  0  0  0
107105  1  0  0  0  0
108105  1  0  0  0  0
109100  1  0  0  0  0
110109  1  0  0  0  0
111109  1  0  0  0  0
112109  1  0  0  0  0
113 96  1  0  0  0  0
114113  1  0  0  0  0
115114  1  0  0  0  0
116114  1  0  0  0  0
117114  1  0  0  0  0
118113  1  0  0  0  0
119118  1  0  0  0  0
120118  1  0  0  0  0
121118  1  0  0  0  0
122113  1  0  0  0  0
123122  1  0  0  0  0
124122  1  0  0  0  0
125122  1  0  0  0  0
126 99  1  0  0  0  0
127126  1  0  0  0  0
128127  1  0  0  0  0
129127  1  0  0  0  0
130127  1  0  0  0  0
131126  1  0  0  0  0
132131  1  0  0  0  0
133131  1  0  0  0  0
134131  1  0  0  0  0
135126  1  0  0  0  0
136135  1  0  0  0  0
137135  1  0  0  0  0
138135  1  0  0  0  0
139  4  1  0  0  0  0
140139  4  0  0  0  0
141140  4  0  0  0  0
142141  1  0  0  0  0
143141  4  0  0  0  0
144143  4  0  0  0  0
145144  1  0  0  0  0
146139  4  0  0  0  0
147140  1  0  0  0  0
148147  1  0  0  0  0
149147  1  0  0  0  0
150147  1  0  0  0  0
151143  1  0  0  0  0
152151  1  0  0  0  0
153151  1  0  0  0  0
154151  1  0  0  0  0
155146  1  0  0  0  0
156155  1  0  0  0  0
157155  1  0  0  0  0
158155  1  0  0  0  0
  3 13  1  0  0  0  0
  4 22  1  0  0  0  0
  7 10  1  0  0  0  0
 16 19  1  0  0  0  0
 30 32  4  0  0  0  0
 77 79  4  0  0  0  0
 97 99  4  0  0  0  0
144146  4  0  0  0  0
M  END
$$$$
JAGDAA

From CSD data. Using bond type 'Any'. Matching problem. No disordered atoms. Largest molecule.
158163  0  0  0  0  0  0  0  0999 V2000
   -0.3875   13.7318   13.6088 P   0  0  0  0  0  0  0  0  0  0  0  0
   -2.6969   12.0937    9.9928 P   0  0  0  0  0  0  0  0  0  0  0  0
   -2.2473   14.7096   15.1638 B   0  0  0  0  0  0  0  0  0  0  0  0
   -0.8166   13.7766   10.7628 B   0  0  0  0  0  0  0  0  0  0  0  0
   -0.2804   13.3257   12.1006 O   0  0  0  0  0  0  0  0  0  0  0  0
   -1.1943   12.5117    9.9139 O   0  0  0  0  0  0  0  0  0  0  0  0
   -0.2526   15.5385   13.8643 C   0  0  0  0  0  0  0  0  0  0  0  0
    0.6736   15.7789   14.1161 H   0  0  0  0  0  0  0  0  0  0  0  0
   -0.4871   16.0198   13.0323 H   0  0  0  0  0  0  0  0  0  0  0  0
   -1.2225   15.9217   14.9881 C   0  0  0  0  0  0  0  0  0  0  0  0
   -1.7091   16.7504   14.7528 H   0  0  0  0  0  0  0  0  0  0  0  0
   -0.7268   16.0767   15.8302 H   0  0  0  0  0  0  0  0  0  0  0  0
   -1.8954   13.5067   14.4176 C   0  0  0  0  0  0  0  0  0  0  0  0
   -2.4191   12.7162   14.3817 H   0  0  0  0  0  0  0  0  0  0  0  0
   -3.2247   13.2560   11.2545 C   0  0  0  0  0  0  0  0  0  0  0  0
   -4.1755   13.5083   11.1411 H   0  0  0  0  0  0  0  0  0  0  0  0
   -3.0877   12.8908   12.1658 H   0  0  0  0  0  0  0  0  0  0  0  0
   -2.2785   14.4528   10.9701 C   0  0  0  0  0  0  0  0  0  0  0  0
   -2.2702   15.0838   11.7335 H   0  0  0  0  0  0  0  0  0  0  0  0
   -2.5610   14.9401   10.1543 H   0  0  0  0  0  0  0  0  0  0  0  0
   -2.6804   10.3481   10.4849 C   0  0  0  0  0  0  0  0  0  0  0  0
   -1.7543   10.0483   10.5971 H   0  0  0  0  0  0  0  0  0  0  0  0
   -3.1161    9.8103    9.7916 H   0  0  0  0  0  0  0  0  0  0  0  0
   -3.1625   10.2438   11.3308 H   0  0  0  0  0  0  0  0  0  0  0  0
    0.9794   12.9444   14.5671 C   0  0  0  0  0  0  0  0  0  0  0  0
    0.6631   11.8216   15.3759 C   0  0  0  0  0  0  0  0  0  0  0  0
    1.2114   11.7517   16.6622 C   0  0  0  0  0  0  0  0  0  0  0  0
    0.9703   11.0206   17.2176 H   0  0  0  0  0  0  0  0  0  0  0  0
    2.0896   12.6980   17.1611 C   0  0  0  0  0  0  0  0  0  0  0  0
    2.6045   13.6096   16.2435 C   0  0  0  0  0  0  0  0  0  0  0  0
    3.3124   14.1788   16.5197 H   0  0  0  0  0  0  0  0  0  0  0  0
    2.1304   13.7260   14.9386 C   0  0  0  0  0  0  0  0  0  0  0  0
   -0.1193   10.5582   14.9337 C   0  0  0  0  0  0  0  0  0  0  0  0
   -0.6488   10.5595   13.5000 C   0  0  0  0  0  0  0  0  0  0  0  0
   -0.9601    9.6597   13.2664 H   0  0  0  0  0  0  0  0  0  0  0  0
    0.0685   10.8259   12.8868 H   0  0  0  0  0  0  0  0  0  0  0  0
   -1.3933   11.1936   13.4266 H   0  0  0  0  0  0  0  0  0  0  0  0
   -1.2671   10.2239   15.8971 C   0  0  0  0  0  0  0  0  0  0  0  0
   -1.8902   10.9801   15.9378 H   0  0  0  0  0  0  0  0  0  0  0  0
   -0.9034   10.0513   16.7917 H   0  0  0  0  0  0  0  0  0  0  0  0
   -1.7397    9.4276   15.5772 H   0  0  0  0  0  0  0  0  0  0  0  0
    0.9104    9.4073   14.9875 C   0  0  0  0  0  0  0  0  0  0  0  0
    0.4871    8.5752   14.6875 H   0  0  0  0  0  0  0  0  0  0  0  0
    1.2294    9.2974   15.9083 H   0  0  0  0  0  0  0  0  0  0  0  0
    1.6672    9.6175   14.4028 H   0  0  0  0  0  0  0  0  0  0  0  0
    2.5458   12.7293   18.6237 C   0  0  0  0  0  0  0  0  0  0  0  0
    2.3127   14.1365   19.1793 C   0  0  0  0  0  0  0  0  0  0  0  0
    2.8307   14.7845   18.6577 H   0  0  0  0  0  0  0  0  0  0  0  0
    2.5976   14.1693   20.1167 H   0  0  0  0  0  0  0  0  0  0  0  0
    1.3590   14.3577   19.1194 H   0  0  0  0  0  0  0  0  0  0  0  0
    1.7672   11.7142   19.4671 C   0  0  0  0  0  0  0  0  0  0  0  0
    0.8059   11.8827   19.3767 H   0  0  0  0  0  0  0  0  0  0  0  0
    2.0259   11.8051   20.4077 H   0  0  0  0  0  0  0  0  0  0  0  0
    1.9703   10.8078   19.1574 H   0  0  0  0  0  0  0  0  0  0  0  0
    4.0358   12.3802   18.7205 C   0  0  0  0  0  0  0  0  0  0  0  0
    4.1808   11.4720   18.3836 H   0  0  0  0  0  0  0  0  0  0  0  0
    4.3237   12.4322   19.6550 H   0  0  0  0  0  0  0  0  0  0  0  0
    4.5561   13.0131   18.1833 H   0  0  0  0  0  0  0  0  0  0  0  0
    3.0577   14.5127   13.9666 C   0  0  0  0  0  0  0  0  0  0  0  0
    4.3899   13.7311   13.9615 C   0  0  0  0  0  0  0  0  0  0  0  0
    4.2210   12.8008   13.7070 H   0  0  0  0  0  0  0  0  0  0  0  0
    4.7880   13.7592   14.8561 H   0  0  0  0  0  0  0  0  0  0  0  0
    5.0046   14.1398   13.3170 H   0  0  0  0  0  0  0  0  0  0  0  0
    3.3582   15.9444   14.4376 C   0  0  0  0  0  0  0  0  0  0  0  0
    3.9868   16.3677   13.8167 H   0  0  0  0  0  0  0  0  0  0  0  0
    3.7525   15.9170   15.3348 H   0  0  0  0  0  0  0  0  0  0  0  0
    2.5255   16.4615   14.4640 H   0  0  0  0  0  0  0  0  0  0  0  0
    2.5812   14.5275   12.5153 C   0  0  0  0  0  0  0  0  0  0  0  0
    1.7953   15.1078   12.4356 H   0  0  0  0  0  0  0  0  0  0  0  0
    2.3442   13.6180   12.2396 H   0  0  0  0  0  0  0  0  0  0  0  0
    3.2979   14.8667   11.9402 H   0  0  0  0  0  0  0  0  0  0  0  0
   -3.5335   14.8636   16.1124 C   0  0  0  0  0  0  0  0  0  0  0  0
   -4.7911   15.2578   15.6059 C   0  0  0  0  0  0  0  0  0  0  0  0
   -5.9139   15.4444   16.4065 C   0  0  0  0  0  0  0  0  0  0  0  0
   -6.7358   15.7217   16.0200 H   0  0  0  0  0  0  0  0  0  0  0  0
   -5.8244   15.2240   17.7685 C   0  0  0  0  0  0  0  0  0  0  0  0
   -4.6218   14.8131   18.3229 C   0  0  0  0  0  0  0  0  0  0  0  0
   -4.5592   14.6503   19.2565 H   0  0  0  0  0  0  0  0  0  0  0  0
   -3.5051   14.6399   17.5071 C   0  0  0  0  0  0  0  0  0  0  0  0
   -4.9873   15.4327   14.1251 C   0  0  0  0  0  0  0  0  0  0  0  0
   -7.0149   15.4402   18.6537 C   0  0  0  0  0  0  0  0  0  0  0  0
   -2.2444   14.1579   18.1734 C   0  0  0  0  0  0  0  0  0  0  0  0
   -3.6128   12.5814    8.4888 C   0  0  0  0  0  0  0  0  0  0  0  0
   -2.8756   12.9137    7.3134 C   0  0  0  0  0  0  0  0  0  0  0  0
   -3.3215   13.9879    6.5493 C   0  0  0  0  0  0  0  0  0  0  0  0
   -2.7914   14.2633    5.8109 H   0  0  0  0  0  0  0  0  0  0  0  0
   -4.4977   14.6807    6.8059 C   0  0  0  0  0  0  0  0  0  0  0  0
   -5.3214   14.1619    7.7958 C   0  0  0  0  0  0  0  0  0  0  0  0
   -6.1851   14.5411    7.9109 H   0  0  0  0  0  0  0  0  0  0  0  0
   -4.9367   13.1037    8.6337 C   0  0  0  0  0  0  0  0  0  0  0  0
   -1.7034   12.1077    6.7194 C   0  0  0  0  0  0  0  0  0  0  0  0
   -1.4559   10.7510    7.4000 C   0  0  0  0  0  0  0  0  0  0  0  0
   -0.8366   10.2215    6.8567 H   0  0  0  0  0  0  0  0  0  0  0  0
   -2.3048   10.2710    7.4892 H   0  0  0  0  0  0  0  0  0  0  0  0
   -1.0684   10.8967    8.2883 H   0  0  0  0  0  0  0  0  0  0  0  0
   -0.4180   12.9401    6.7293 C   0  0  0  0  0  0  0  0  0  0  0  0
   -0.1843   13.1682    7.6537 H   0  0  0  0  0  0  0  0  0  0  0  0
   -0.5566   13.7621    6.2136 H   0  0  0  0  0  0  0  0  0  0  0  0
    0.3098   12.4213    6.3275 H   0  0  0  0  0  0  0  0  0  0  0  0
   -2.0721   11.7890    5.2494 C   0  0  0  0  0  0  0  0  0  0  0  0
   -2.1687   12.6247    4.7482 H   0  0  0  0  0  0  0  0  0  0  0  0
   -2.9172   11.2931    5.2247 H   0  0  0  0  0  0  0  0  0  0  0  0
   -1.3635   11.2467    4.8452 H   0  0  0  0  0  0  0  0  0  0  0  0
   -4.8639   15.9163    5.9654 C   0  0  0  0  0  0  0  0  0  0  0  0
   -3.8237   17.0117    6.2431 C   0  0  0  0  0  0  0  0  0  0  0  0
   -4.0021   17.7843    5.6675 H   0  0  0  0  0  0  0  0  0  0  0  0
   -2.9268   16.6645    6.0555 H   0  0  0  0  0  0  0  0  0  0  0  0
   -3.8793   17.2829    7.1835 H   0  0  0  0  0  0  0  0  0  0  0  0
   -4.8351   15.5488    4.4712 C   0  0  0  0  0  0  0  0  0  0  0  0
   -5.4951   14.8462    4.2949 H   0  0  0  0  0  0  0  0  0  0  0  0
   -3.9420   15.2252    4.2317 H   0  0  0  0  0  0  0  0  0  0  0  0
   -5.0501   16.3396    3.9365 H   0  0  0  0  0  0  0  0  0  0  0  0
   -6.2558   16.4559    6.2855 C   0  0  0  0  0  0  0  0  0  0  0  0
   -6.9265   15.7684    6.0892 H   0  0  0  0  0  0  0  0  0  0  0  0
   -6.4326   17.2504    5.7392 H   0  0  0  0  0  0  0  0  0  0  0  0
   -6.3023   16.6961    7.2341 H   0  0  0  0  0  0  0  0  0  0  0  0
   -6.0929   12.4899    9.4720 C   0  0  0  0  0  0  0  0  0  0  0  0
   -7.1074   11.9590    8.4283 C   0  0  0  0  0  0  0  0  0  0  0  0
   -6.6616   11.3185    7.8350 H   0  0  0  0  0  0  0  0  0  0  0  0
   -7.4546   12.7064    7.9004 H   0  0  0  0  0  0  0  0  0  0  0  0
   -7.8487   11.5138    8.8892 H   0  0  0  0  0  0  0  0  0  0  0  0
   -6.8107   13.5179   10.3603 C   0  0  0  0  0  0  0  0  0  0  0  0
   -7.5810   13.0942   10.7910 H   0  0  0  0  0  0  0  0  0  0  0  0
   -7.1159   14.2696    9.8085 H   0  0  0  0  0  0  0  0  0  0  0  0
   -6.1919   13.8464   11.0462 H   0  0  0  0  0  0  0  0  0  0  0  0
   -5.7172   11.2780   10.3268 C   0  0  0  0  0  0  0  0  0  0  0  0
   -5.1187   11.5618   11.0483 H   0  0  0  0  0  0  0  0  0  0  0  0
   -5.2634   10.6130    9.7685 H   0  0  0  0  0  0  0  0  0  0  0  0
   -6.5287   10.8843   10.7109 H   0  0  0  0  0  0  0  0  0  0  0  0
    0.4764   14.3835    9.9163 C   0  0  0  0  0  0  0  0  0  0  0  0
    0.6080   15.7158    9.4374 C   0  0  0  0  0  0  0  0  0  0  0  0
    1.7247   16.1892    8.7522 C   0  0  0  0  0  0  0  0  0  0  0  0
    1.7582   17.0941    8.4633 H   0  0  0  0  0  0  0  0  0  0  0  0
    2.7824   15.3411    8.4935 C   0  0  0  0  0  0  0  0  0  0  0  0
    2.7100   14.0292    8.9023 C   0  0  0  0  0  0  0  0  0  0  0  0
    3.4250   13.4357    8.7037 H   0  0  0  0  0  0  0  0  0  0  0  0
    1.6010   13.5573    9.6048 C   0  0  0  0  0  0  0  0  0  0  0  0
   -0.4881   16.7397    9.5878 C   0  0  0  0  0  0  0  0  0  0  0  0
    3.9844   15.8544    7.7612 C   0  0  0  0  0  0  0  0  0  0  0  0
    1.7659   12.0624    9.8878 C   0  0  0  0  0  0  0  0  0  0  0  0
   -5.0408   14.2459   13.4972 F   0  0  0  0  0  0  0  0  0  0  0  0
   -4.0218   16.1498   13.5398 F   0  0  0  0  0  0  0  0  0  0  0  0
   -6.1493   16.0516   13.8380 F   0  0  0  0  0  0  0  0  0  0  0  0
   -8.1537   15.5447   17.9638 F   0  0  0  0  0  0  0  0  0  0  0  0
   -6.8939   16.5480   19.3933 F   0  0  0  0  0  0  0  0  0  0  0  0
   -7.1815   14.4339   19.5215 F   0  0  0  0  0  0  0  0  0  0  0  0
   -2.3413   14.1195   19.5091 F   0  0  0  0  0  0  0  0  0  0  0  0
   -1.9341   12.9295   17.8143 F   0  0  0  0  0  0  0  0  0  0  0  0
   -1.2063   14.9096   17.9248 F   0  0  0  0  0  0  0  0  0  0  0  0
   -0.0839   17.9811    9.2384 F   0  0  0  0  0  0  0  0  0  0  0  0
   -1.5424   16.4667    8.7935 F   0  0  0  0  0  0  0  0  0  0  0  0
   -0.9485   16.8617   10.8429 F   0  0  0  0  0  0  0  0  0  0  0  0
    4.2887   17.1031    8.0821 F   0  0  0  0  0  0  0  0  0  0  0  0
    3.8099   15.8689    6.4350 F   0  0  0  0  0  0  0  0  0  0  0  0
    5.0641   15.0994    7.9687 F   0  0  0  0  0  0  0  0  0  0  0  0
    1.5219   11.3478    8.7701 F   0  0  0  0  0  0  0  0  0  0  0  0
    3.0470   11.7879   10.2188 F   0  0  0  0  0  0  0  0  0  0  0  0
    1.0363   11.5244   10.8492 F   0  0  0  0  0  0  0  0  0  0  0  0
  1  5  1  0  0  0  0
  2  6  2  0  0  0  0
  3 10  1  0  0  0  0
  4  5  1  0  0  0  0
  6  4  1  0  0  0  0
  7  1  1  0  0  0  0
  8  7  1  0  0  0  0
  9  7  1  0  0  0  0
 10  7  1  0  0  0  0
 11 10  1  0  0  0  0
 12 10  1  0  0  0  0
 13  1  2  0  0  0  0
 14 13  1  0  0  0  0
 15  2  1  0  0  0  0
 16 15  1  0  0  0  0
 17 15  1  0  0  0  0
 18  4  1  0  0  0  0
 19 18  1  0  0  0  0
 20 18  1  0  0  0  0
 21  2  1  0  0  0  0
 22 21  1  0  0  0  0
 23 21  1  0  0  0  0
 24 21  1  0  0  0  0
 25  1  1  0  0  0  0
 26 25  4  0  0  0  0
 27 26  4  0  0  0  0
 28 27  1  0  0  0  0
 29 27  4  0  0  0  0
 30 29  4  0  0  0  0
 31 30  1  0  0  0  0
 32 25  4  0  0  0  0
 33 26  1  0  0  0  0
 34 33  1  0  0  0  0
 35 34  1  0  0  0  0
 36 34  1  0  0  0  0
 37 34  1  0  0  0  0
 38 33  1  0  0  0  0
 39 38  1  0  0  0  0
 40 38  1  0  0  0  0
 41 38  1  0  0  0  0
 42 33  1  0  0  0  0
 43 42  1  0  0  0  0
 44 42  1  0  0  0  0
 45 42  1  0  0  0  0
 46 29  1  0  0  0  0
 47 46  1  0  0  0  0
 48 47  1  0  0  0  0
 49 47  1  0  0  0  0
 50 47  1  0  0  0  0
 51 46  1  0  0  0  0
 52 51  1  0  0  0  0
 53 51  1  0  0  0  0
 54 51  1  0  0  0  0
 55 46  1  0  0  0  0
 56 55  1  0  0  0  0
 57 55  1  0  0  0  0
 58 55  1  0  0  0  0
 59 32  1  0  0  0  0
 60 59  1  0  0  0  0
 61 60  1  0  0  0  0
 62 60  1  0  0  0  0
 63 60  1  0  0  0  0
 64 59  1  0  0  0  0
 65 64  1  0  0  0  0
 66 64  1  0  0  0  0
 67 64  1  0  0  0  0
 68 59  1  0  0  0  0
 69 68  1  0  0  0  0
 70 68  1  0  0  0  0
 71 68  1  0  0  0  0
 72  3  1  0  0  0  0
 73 72  4  0  0  0  0
 74 73  4  0  0  0  0
 75 74  1  0  0  0  0
 76 74  4  0  0  0  0
 77 76  4  0  0  0  0
 78 77  1  0  0  0  0
 79 72  4  0  0  0  0
 80 73  1  0  0  0  0
 81 76  1  0  0  0  0
 82 79  1  0  0  0  0
 83  2  1  0  0  0  0
 84 83  4  0  0  0  0
 85 84  4  0  0  0  0
 86 85  1  0  0  0  0
 87 85  4  0  0  0  0
 88 87  4  0  0  0  0
 89 88  1  0  0  0  0
 90 83  4  0  0  0  0
 91 84  1  0  0  0  0
 92 91  1  0  0  0  0
 93 92  1  0  0  0  0
 94 92  1  0  0  0  0
 95 92  1  0  0  0  0
 96 91  1  0  0  0  0
 97 96  1  0  0  0  0
 98 96  1  0  0  0  0
 99 96  1  0  0  0  0
100 91  1  0  0  0  0
101100  1  0  0  0  0
102100  1  0  0  0  0
103100  1  0  0  0  0
104 87  1  0  0  0  0
105104  1  0  0  0  0
106105  1  0  0  0  0
107105  1  0  0  0  0
108105  1  0  0  0  0
109104  1  0  0  0  0
110109  1  0  0  0  0
111109  1  0  0  0  0
112109  1  0  0  0  0
113104  1  0  0  0  0
114113  1  0  0  0  0
115113  1  0  0  0  0
116113  1  0  0  0  0
117 90  1  0  0  0  0
118117  1  0  0  0  0
119118  1  0  0  0  0
120118  1  0  0  0  0
121118  1  0  0  0  0
122117  1  0  0  0  0
123122  1  0  0  0  0
124122  1  0  0  0  0
125122  1  0  0  0  0
126117  1  0  0  0  0
127126  1  0  0  0  0
128126  1  0  0  0  0
129126  1  0  0  0  0
130  4  1  0  0  0  0
131130  4  0  0  0  0
132131  4  0  0  0  0
133132  1  0  0  0  0
134132  4  0  0  0  0
135134  4  0  0  0  0
136135  1  0  0  0  0
137130  4  0  0  0  0
138131  1  0  0  0  0
139134  1  0  0  0  0
140137  1  0  0  0  0
141 80  1  0  0  0  0
142 80  1  0  0  0  0
143 80  1  0  0  0  0
144 81  1  0  0  0  0
145 81  1  0  0  0  0
146 81  1  0  0  0  0
147 82  1  0  0  0  0
148 82  1  0  0  0  0
149 82  1  0  0  0  0
150138  1  0  0  0  0
151138  1  0  0  0  0
152138  1  0  0  0  0
153139  1  0  0  0  0
154139  1  0  0  0  0
155139  1  0  0  0  0
156140  1  0  0  0  0
157140  1  0  0  0  0
158140  1  0  0  0  0
  3 13  1  0  0  0  0
 15 18  1  0  0  0  0
 30 32  4  0  0  0  0
 77 79  4  0  0  0  0
 88 90  4  0  0  0  0
135137  4  0  0  0  0
M  END
$$$$
JAKTAU

From CSD data. Using bond type 'Any'. No disordered atoms. Largest molecule.
110132  0  0  0  0  0  0  0  0999 V2000
    2.3011    4.1976    8.1193 Pd  0  0  0  0  0  0  0  0  0  0  0  0
   -0.3188    4.9369    8.1499 Ru  0  0  0  0  0  0  0  0  0  0  0  0
    0.0527    6.1348    6.1906 P   0  0  0  0  0  0  0  0  0  0  0  0
   -0.6245    3.0943    9.5347 P   0  0  0  0  0  0  0  0  0  0  0  0
    4.7044    4.2509    8.4012 P   0  0  0  0  0  0  0  0  0  0  0  0
    0.4969    5.0321    5.0285 O   0  0  0  0  0  0  0  0  0  0  0  0
   -0.3282    1.7270    8.6323 O   0  0  0  0  0  0  0  0  0  0  0  0
    1.2114    6.9348    9.9147 O   0  0  0  0  0  0  0  0  0  0  0  0
   -3.0933    6.0440    8.6899 O   0  0  0  0  0  0  0  0  0  0  0  0
    0.2734    3.6917    5.3551 C   0  0  0  0  0  0  0  0  0  0  0  0
   -0.1499    1.9453    7.2647 C   0  0  0  0  0  0  0  0  0  0  0  0
    0.6854    6.1374    9.2768 C   0  0  0  0  0  0  0  0  0  0  0  0
   -2.0527    5.6269    8.4642 C   0  0  0  0  0  0  0  0  0  0  0  0
    1.5131    7.2415    6.0948 C   0  0  0  0  0  0  0  0  0  0  0  0
    2.2340    6.7547    6.5886 H   0  0  0  0  0  0  0  0  0  0  0  0
    2.0886    7.4745    4.7003 C   0  0  0  0  0  0  0  0  0  0  0  0
    2.1922    6.6149    4.2425 H   0  0  0  0  0  0  0  0  0  0  0  0
    2.9624    7.9115    4.7757 H   0  0  0  0  0  0  0  0  0  0  0  0
    1.4799    8.0469    4.1882 H   0  0  0  0  0  0  0  0  0  0  0  0
    1.3413    8.5566    6.8560 C   0  0  0  0  0  0  0  0  0  0  0  0
    0.7976    9.1731    6.3230 H   0  0  0  0  0  0  0  0  0  0  0  0
    2.2204    8.9561    7.0210 H   0  0  0  0  0  0  0  0  0  0  0  0
    0.8947    8.3824    7.7113 H   0  0  0  0  0  0  0  0  0  0  0  0
   -1.4084    6.9073    5.3713 C   0  0  0  0  0  0  0  0  0  0  0  0
   -2.1343    6.2214    5.4117 H   0  0  0  0  0  0  0  0  0  0  0  0
   -1.2136    7.2137    3.8849 C   0  0  0  0  0  0  0  0  0  0  0  0
   -0.6189    7.9862    3.7849 H   0  0  0  0  0  0  0  0  0  0  0  0
   -2.0817    7.4131    3.4766 H   0  0  0  0  0  0  0  0  0  0  0  0
   -0.8143    6.4368    3.4417 H   0  0  0  0  0  0  0  0  0  0  0  0
   -1.9531    8.1305    6.1099 C   0  0  0  0  0  0  0  0  0  0  0  0
   -1.9567    7.9554    7.0734 H   0  0  0  0  0  0  0  0  0  0  0  0
   -2.8674    8.3138    5.8072 H   0  0  0  0  0  0  0  0  0  0  0  0
   -1.3856    8.9057    5.9216 H   0  0  0  0  0  0  0  0  0  0  0  0
    0.3536    2.6947   11.0547 C   0  0  0  0  0  0  0  0  0  0  0  0
   -0.2273    2.1395   11.6493 H   0  0  0  0  0  0  0  0  0  0  0  0
    1.5864    1.8740   10.7190 C   0  0  0  0  0  0  0  0  0  0  0  0
    1.3128    1.0063   10.3580 H   0  0  0  0  0  0  0  0  0  0  0  0
    2.1183    1.7367   11.5311 H   0  0  0  0  0  0  0  0  0  0  0  0
    2.1245    2.3501   10.0536 H   0  0  0  0  0  0  0  0  0  0  0  0
    0.7306    3.9613   11.8277 C   0  0  0  0  0  0  0  0  0  0  0  0
    1.3842    4.4772   11.3100 H   0  0  0  0  0  0  0  0  0  0  0  0
    1.1205    3.7124   12.6925 H   0  0  0  0  0  0  0  0  0  0  0  0
   -0.0719    4.5048   11.9751 H   0  0  0  0  0  0  0  0  0  0  0  0
   -2.3628    2.7797   10.0648 C   0  0  0  0  0  0  0  0  0  0  0  0
   -2.9521    3.0430    9.3012 H   0  0  0  0  0  0  0  0  0  0  0  0
   -2.6548    1.3056   10.3636 C   0  0  0  0  0  0  0  0  0  0  0  0
   -2.4886    0.7701    9.5591 H   0  0  0  0  0  0  0  0  0  0  0  0
   -3.5917    1.2071   10.6333 H   0  0  0  0  0  0  0  0  0  0  0  0
   -2.0718    0.9970   11.0890 H   0  0  0  0  0  0  0  0  0  0  0  0
   -2.7304    3.6854   11.2418 C   0  0  0  0  0  0  0  0  0  0  0  0
   -2.2611    3.3824   12.0468 H   0  0  0  0  0  0  0  0  0  0  0  0
   -3.6983    3.6469   11.3934 H   0  0  0  0  0  0  0  0  0  0  0  0
   -2.4686    4.6074   11.0386 H   0  0  0  0  0  0  0  0  0  0  0  0
    5.2565    4.9361   10.1102 C   0  0  0  0  0  0  0  0  0  0  0  0
    4.2800    6.0524   10.5108 C   0  0  0  0  0  0  0  0  0  0  0  0
    4.3440    6.7887    9.8674 H   0  0  0  0  0  0  0  0  0  0  0  0
    4.5068    6.3791   11.4070 H   0  0  0  0  0  0  0  0  0  0  0  0
    3.3651    5.7007   10.5150 H   0  0  0  0  0  0  0  0  0  0  0  0
    6.6869    5.4701   10.1930 C   0  0  0  0  0  0  0  0  0  0  0  0
    7.3135    4.7724    9.9081 H   0  0  0  0  0  0  0  0  0  0  0  0
    6.8860    5.7297   11.1161 H   0  0  0  0  0  0  0  0  0  0  0  0
    6.7783    6.2501    9.6076 H   0  0  0  0  0  0  0  0  0  0  0  0
    5.0807    3.8423   11.1764 C   0  0  0  0  0  0  0  0  0  0  0  0
    4.1798    3.4625   11.1103 H   0  0  0  0  0  0  0  0  0  0  0  0
    5.2068    4.2315   12.0662 H   0  0  0  0  0  0  0  0  0  0  0  0
    5.7456    3.1363   11.0328 H   0  0  0  0  0  0  0  0  0  0  0  0
    5.3879    5.4127    7.0433 C   0  0  0  0  0  0  0  0  0  0  0  0
    4.6188    5.1108    5.7399 C   0  0  0  0  0  0  0  0  0  0  0  0
    4.9320    4.2603    5.3651 H   0  0  0  0  0  0  0  0  0  0  0  0
    4.7771    5.8310    5.0937 H   0  0  0  0  0  0  0  0  0  0  0  0
    3.6600    5.0490    5.9333 H   0  0  0  0  0  0  0  0  0  0  0  0
    6.8990    5.3526    6.7372 C   0  0  0  0  0  0  0  0  0  0  0  0
    7.4050    5.5550    7.5504 H   0  0  0  0  0  0  0  0  0  0  0  0
    7.1178    6.0091    6.0438 H   0  0  0  0  0  0  0  0  0  0  0  0
    7.1331    4.4554    6.4219 H   0  0  0  0  0  0  0  0  0  0  0  0
    5.0419    6.8567    7.4197 C   0  0  0  0  0  0  0  0  0  0  0  0
    4.1023    6.9069    7.6900 H   0  0  0  0  0  0  0  0  0  0  0  0
    5.1912    7.4398    6.6468 H   0  0  0  0  0  0  0  0  0  0  0  0
    5.6122    7.1453    8.1631 H   0  0  0  0  0  0  0  0  0  0  0  0
    5.5313    2.5412    8.1699 C   0  0  0  0  0  0  0  0  0  0  0  0
    4.7261    1.4804    8.9509 C   0  0  0  0  0  0  0  0  0  0  0  0
    4.7449    1.6944    9.9062 H   0  0  0  0  0  0  0  0  0  0  0  0
    5.1233    0.5958    8.8068 H   0  0  0  0  0  0  0  0  0  0  0  0
    3.7981    1.4764    8.6342 H   0  0  0  0  0  0  0  0  0  0  0  0
    7.0086    2.4416    8.5803 C   0  0  0  0  0  0  0  0  0  0  0  0
    7.5238    3.1317    8.1146 H   0  0  0  0  0  0  0  0  0  0  0  0
    7.3546    1.5571    8.3395 H   0  0  0  0  0  0  0  0  0  0  0  0
    7.0879    2.5710    9.5475 H   0  0  0  0  0  0  0  0  0  0  0  0
    5.4205    2.1263    6.6937 C   0  0  0  0  0  0  0  0  0  0  0  0
    4.5001    2.2567    6.3850 H   0  0  0  0  0  0  0  0  0  0  0  0
    5.6666    1.1813    6.6003 H   0  0  0  0  0  0  0  0  0  0  0  0
    6.0264    2.6767    6.1543 H   0  0  0  0  0  0  0  0  0  0  0  0
   -0.7612    3.4309    6.6904 B   0  0  0  0  0  0  0  0  0  0  0  0
    0.9841    3.2235    6.8882 B   0  0  0  0  0  0  0  0  0  0  0  0
   -1.5664    1.8883    6.2949 B   0  0  0  0  0  0  0  0  0  0  0  0
   -2.4620    1.6193    6.7360 H   0  0  0  0  0  0  0  0  0  0  0  0
   -1.2830    3.0554    5.0192 B   0  0  0  0  0  0  0  0  0  0  0  0
   -1.9924    3.6470    4.5256 H   0  0  0  0  0  0  0  0  0  0  0  0
    1.3093    1.4625    6.5531 B   0  0  0  0  0  0  0  0  0  0  0  0
    2.0038    0.9345    7.1121 H   0  0  0  0  0  0  0  0  0  0  0  0
   -0.2606    0.6413    6.2117 B   0  0  0  0  0  0  0  0  0  0  0  0
   -0.4634   -0.3522    6.5712 H   0  0  0  0  0  0  0  0  0  0  0  0
   -0.9479    1.3406    4.7214 B   0  0  0  0  0  0  0  0  0  0  0  0
   -1.5375    0.7548    4.0738 H   0  0  0  0  0  0  0  0  0  0  0  0
    0.1980    2.5642    4.1310 B   0  0  0  0  0  0  0  0  0  0  0  0
    0.3303    2.8632    3.1353 H   0  0  0  0  0  0  0  0  0  0  0  0
    1.5951    2.6336    5.2746 B   0  0  0  0  0  0  0  0  0  0  0  0
    2.4855    2.9868    4.8862 H   0  0  0  0  0  0  0  0  0  0  0  0
    0.8232    1.0831    4.8792 B   0  0  0  0  0  0  0  0  0  0  0  0
    1.3244    0.3732    4.3200 H   0  0  0  0  0  0  0  0  0  0  0  0
  1  2  1  0  0  0  0
  2  3  1  0  0  0  0
  3  6  1  0  0  0  0
  4  2  1  0  0  0  0
  5  1  1  0  0  0  0
  6 10  1  0  0  0  0
  7  4  1  0  0  0  0
  8 12  3  0  0  0  0
  9 13  3  0  0  0  0
 10 93  1  0  0  0  0
 11  7  1  0  0  0  0
 12  2  1  0  0  0  0
 13  2  1  0  0  0  0
 14  3  1  0  0  0  0
 15 14  1  0  0  0  0
 16 14  1  0  0  0  0
 17 16  1  0  0  0  0
 18 16  1  0  0  0  0
 19 16  1  0  0  0  0
 20 14  1  0  0  0  0
 21 20  1  0  0  0  0
 22 20  1  0  0  0  0
 23 20  1  0  0  0  0
 24  3  1  0  0  0  0
 25 24  1  0  0  0  0
 26 24  1  0  0  0  0
 27 26  1  0  0  0  0
 28 26  1  0  0  0  0
 29 26  1  0  0  0  0
 30 24  1  0  0  0  0
 31 30  1  0  0  0  0
 32 30  1  0  0  0  0
 33 30  1  0  0  0  0
 34  4  1  0  0  0  0
 35 34  1  0  0  0  0
 36 34  1  0  0  0  0
 37 36  1  0  0  0  0
 38 36  1  0  0  0  0
 39 36  1  0  0  0  0
 40 34  1  0  0  0  0
 41 40  1  0  0  0  0
 42 40  1  0  0  0  0
 43 40  1  0  0  0  0
 44  4  1  0  0  0  0
 45 44  1  0  0  0  0
 46 44  1  0  0  0  0
 47 46  1  0  0  0  0
 48 46  1  0  0  0  0
 49 46  1  0  0  0  0
 50 44  1  0  0  0  0
 51 50  1  0  0  0  0
 52 50  1  0  0  0  0
 53 50  1  0  0  0  0
 54  5  1  0  0  0  0
 55 54  1  0  0  0  0
 56 55  1  0  0  0  0
 57 55  1  0  0  0  0
 58 55  1  0  0  0  0
 59 54  1  0  0  0  0
 60 59  1  0  0  0  0
 61 59  1  0  0  0  0
 62 59  1  0  0  0  0
 63 54  1  0  0  0  0
 64 63  1  0  0  0  0
 65 63  1  0  0  0  0
 66 63  1  0  0  0  0
 67  5  1  0  0  0  0
 68 67  1  0  0  0  0
 69 68  1  0  0  0  0
 70 68  1  0  0  0  0
 71 68  1  0  0  0  0
 72 67  1  0  0  0  0
 73 72  1  0  0  0  0
 74 72  1  0  0  0  0
 75 72  1  0  0  0  0
 76 67  1  0  0  0  0
 77 76  1  0  0  0  0
 78 76  1  0  0  0  0
 79 76  1  0  0  0  0
 80  5  1  0  0  0  0
 81 80  1  0  0  0  0
 82 81  1  0  0  0  0
 83 81  1  0  0  0  0
 84 81  1  0  0  0  0
 85 80  1  0  0  0  0
 86 85  1  0  0  0  0
 87 85  1  0  0  0  0
 88 85  1  0  0  0  0
 89 80  1  0  0  0  0
 90 89  1  0  0  0  0
 91 89  1  0  0  0  0
 92 89  1  0  0  0  0
 93  2  1  0  0  0  0
 94  1  1  0  0  0  0
 95 11  1  0  0  0  0
 96 95  1  0  0  0  0
 97 10  1  0  0  0  0
 98 97  1  0  0  0  0
 99 11  1  0  0  0  0
100 99  1  0  0  0  0
101 11  1  0  0  0  0
102101  1  0  0  0  0
103 95  1  0  0  0  0
104103  1  0  0  0  0
105 10  1  0  0  0  0
106105  1  0  0  0  0
107 10  1  0  0  0  0
108107  1  0  0  0  0
109 99  1  0  0  0  0
110109  1  0  0  0  0
  2 94  1  0  0  0  0
 10 94  1  0  0  0  0
 11 93  1  0  0  0  0
 11 94  1  0  0  0  0
 93 94  1  0  0  0  0
 93 95  1  0  0  0  0
 93 97  1  0  0  0  0
 94 99  1  0  0  0  0
 94107  1  0  0  0  0
 95 97  1  0  0  0  0
 95101  1  0  0  0  0
 97103  1  0  0  0  0
 97105  1  0  0  0  0
 99101  1  0  0  0  0
 99107  1  0  0  0  0
101103  1  0  0  0  0
101109  1  0  0  0  0
103105  1  0  0  0  0
103109  1  0  0  0  0
105107  1  0  0  0  0
105109  1  0  0  0  0
107109  1  0  0  0  0
M  END
$$$$
JAKTAU01

From CSD data. Using bond type 'Any'. Matching problem. Disorder unknown. Sizes unknown.
  0  0  0  0  0  0  0  0  0  0999 V2000
M  END
$$$$
JAKTEY

From CSD data. Using bond type 'Any'. No disordered atoms. Largest molecule.
112136  0  0  0  0  0  0  0  0999 V2000
   -1.0972    5.1579    7.8983 Pd  0  0  0  0  0  0  0  0  0  0  0  0
    1.4118    5.0521    9.0297 Ru  0  0  0  0  0  0  0  0  0  0  0  0
    5.5651    3.2595   10.0944 Br  0  0  0  0  0  0  0  0  0  0  0  0
    3.7046    3.9428    8.9694 Cu  0  0  0  0  0  0  0  0  0  0  0  0
    0.7965    3.0147   10.0343 P   0  0  0  0  0  0  0  0  0  0  0  0
    2.1403    6.6064    7.4350 P   0  0  0  0  0  0  0  0  0  0  0  0
    0.7824    1.8988    8.7991 O   0  0  0  0  0  0  0  0  0  0  0  0
    2.1481    5.7804    5.9906 O   0  0  0  0  0  0  0  0  0  0  0  0
   -0.7989    6.7787   10.2452 O   0  0  0  0  0  0  0  0  0  0  0  0
    2.8523    6.3382   11.3760 O   0  0  0  0  0  0  0  0  0  0  0  0
    1.1328    2.3543    7.5303 C   0  0  0  0  0  0  0  0  0  0  0  0
    1.8509    4.4131    6.0432 C   0  0  0  0  0  0  0  0  0  0  0  0
   -0.2410    6.0481    9.5358 C   0  0  0  0  0  0  0  0  0  0  0  0
    2.3596    5.8129   10.4850 C   0  0  0  0  0  0  0  0  0  0  0  0
   -0.9444    2.9006   10.6075 C   0  0  0  0  0  0  0  0  0  0  0  0
   -1.4546    3.4819    9.9736 H   0  0  0  0  0  0  0  0  0  0  0  0
   -1.1309    3.5635   11.9719 C   0  0  0  0  0  0  0  0  0  0  0  0
   -0.6884    3.0249   12.6602 H   0  0  0  0  0  0  0  0  0  0  0  0
   -2.0873    3.6314   12.1740 H   0  0  0  0  0  0  0  0  0  0  0  0
   -0.7362    4.4607   11.9551 H   0  0  0  0  0  0  0  0  0  0  0  0
   -1.6200    1.5572   10.5137 C   0  0  0  0  0  0  0  0  0  0  0  0
   -1.4328    1.1577    9.6385 H   0  0  0  0  0  0  0  0  0  0  0  0
   -2.5886    1.6721   10.6187 H   0  0  0  0  0  0  0  0  0  0  0  0
   -1.2820    0.9711   11.2208 H   0  0  0  0  0  0  0  0  0  0  0  0
    1.9349    2.1210   11.1778 C   0  0  0  0  0  0  0  0  0  0  0  0
    2.7754    1.9937   10.6519 H   0  0  0  0  0  0  0  0  0  0  0  0
    2.3588    2.9356   12.3910 C   0  0  0  0  0  0  0  0  0  0  0  0
    2.8214    3.7470   12.0947 H   0  0  0  0  0  0  0  0  0  0  0  0
    2.9614    2.4018   12.9502 H   0  0  0  0  0  0  0  0  0  0  0  0
    1.5658    3.1841   12.9118 H   0  0  0  0  0  0  0  0  0  0  0  0
    1.4933    0.7154   11.5375 C   0  0  0  0  0  0  0  0  0  0  0  0
    0.7176    0.7604   12.1371 H   0  0  0  0  0  0  0  0  0  0  0  0
    2.2261    0.2470   11.9881 H   0  0  0  0  0  0  0  0  0  0  0  0
    1.2468    0.2313   10.7225 H   0  0  0  0  0  0  0  0  0  0  0  0
    1.0221    7.9825    6.9964 C   0  0  0  0  0  0  0  0  0  0  0  0
    0.1009    7.5942    6.9646 H   0  0  0  0  0  0  0  0  0  0  0  0
    0.9964    9.0556    8.0910 C   0  0  0  0  0  0  0  0  0  0  0  0
    0.8302    8.6331    8.9589 H   0  0  0  0  0  0  0  0  0  0  0  0
    0.2839    9.7002    7.8988 H   0  0  0  0  0  0  0  0  0  0  0  0
    1.8595    9.5195    8.1128 H   0  0  0  0  0  0  0  0  0  0  0  0
    1.2693    8.6104    5.6243 C   0  0  0  0  0  0  0  0  0  0  0  0
    2.1179    9.1002    5.6385 H   0  0  0  0  0  0  0  0  0  0  0  0
    0.5388    9.2279    5.4123 H   0  0  0  0  0  0  0  0  0  0  0  0
    1.3096    7.9053    4.9456 H   0  0  0  0  0  0  0  0  0  0  0  0
    3.8264    7.3681    7.4193 C   0  0  0  0  0  0  0  0  0  0  0  0
    3.7807    8.1636    6.8149 H   0  0  0  0  0  0  0  0  0  0  0  0
    4.2515    7.8814    8.8010 C   0  0  0  0  0  0  0  0  0  0  0  0
    3.5036    8.3603    9.2153 H   0  0  0  0  0  0  0  0  0  0  0  0
    5.0142    8.4885    8.7028 H   0  0  0  0  0  0  0  0  0  0  0  0
    4.5075    7.1231    9.3659 H   0  0  0  0  0  0  0  0  0  0  0  0
    4.8970    6.4466    6.8586 C   0  0  0  0  0  0  0  0  0  0  0  0
    4.9857    5.6604    7.4363 H   0  0  0  0  0  0  0  0  0  0  0  0
    5.7523    6.9246    6.8239 H   0  0  0  0  0  0  0  0  0  0  0  0
    4.6438    6.1635    5.9561 H   0  0  0  0  0  0  0  0  0  0  0  0
   -3.3954    5.8197    7.5571 P   0  0  0  0  0  0  0  0  0  0  0  0
   -4.4636    5.8692    9.1416 C   0  0  0  0  0  0  0  0  0  0  0  0
   -4.0163    4.7203   10.0449 C   0  0  0  0  0  0  0  0  0  0  0  0
   -4.0427    3.8795    9.5424 H   0  0  0  0  0  0  0  0  0  0  0  0
   -4.6161    4.6590   10.8171 H   0  0  0  0  0  0  0  0  0  0  0  0
   -3.1009    4.8863   10.3550 H   0  0  0  0  0  0  0  0  0  0  0  0
   -5.9861    5.7526    8.9196 C   0  0  0  0  0  0  0  0  0  0  0  0
   -6.2808    6.4575    8.3051 H   0  0  0  0  0  0  0  0  0  0  0  0
   -6.4494    5.8533    9.7773 H   0  0  0  0  0  0  0  0  0  0  0  0
   -6.1947    4.8763    8.5357 H   0  0  0  0  0  0  0  0  0  0  0  0
   -4.2147    7.1329    9.9377 C   0  0  0  0  0  0  0  0  0  0  0  0
   -3.2491    7.2587   10.0584 H   0  0  0  0  0  0  0  0  0  0  0  0
   -4.6447    7.0575   10.8152 H   0  0  0  0  0  0  0  0  0  0  0  0
   -4.5855    7.9018    9.4570 H   0  0  0  0  0  0  0  0  0  0  0  0
   -4.1759    4.5511    6.3496 C   0  0  0  0  0  0  0  0  0  0  0  0
   -4.4162    3.2292    7.1016 C   0  0  0  0  0  0  0  0  0  0  0  0
   -3.5901    2.9548    7.5522 H   0  0  0  0  0  0  0  0  0  0  0  0
   -4.6879    2.5359    6.4657 H   0  0  0  0  0  0  0  0  0  0  0  0
   -5.1239    3.3569    7.7684 H   0  0  0  0  0  0  0  0  0  0  0  0
   -3.1852    4.1973    5.2416 C   0  0  0  0  0  0  0  0  0  0  0  0
   -3.0247    4.9865    4.6830 H   0  0  0  0  0  0  0  0  0  0  0  0
   -3.5557    3.4768    4.6896 H   0  0  0  0  0  0  0  0  0  0  0  0
   -2.3402    3.9017    5.6400 H   0  0  0  0  0  0  0  0  0  0  0  0
   -5.4783    4.9652    5.6626 C   0  0  0  0  0  0  0  0  0  0  0  0
   -6.1246    5.2596    6.3386 H   0  0  0  0  0  0  0  0  0  0  0  0
   -5.8455    4.2013    5.1710 H   0  0  0  0  0  0  0  0  0  0  0  0
   -5.2993    5.6999    5.0400 H   0  0  0  0  0  0  0  0  0  0  0  0
   -3.4606    7.5412    6.7572 C   0  0  0  0  0  0  0  0  0  0  0  0
   -2.8033    7.4440    5.3793 C   0  0  0  0  0  0  0  0  0  0  0  0
   -1.9264    7.0158    5.4650 H   0  0  0  0  0  0  0  0  0  0  0  0
   -2.6936    8.3427    5.0048 H   0  0  0  0  0  0  0  0  0  0  0  0
   -3.3707    6.9096    4.7841 H   0  0  0  0  0  0  0  0  0  0  0  0
   -4.8697    8.1399    6.5869 C   0  0  0  0  0  0  0  0  0  0  0  0
   -5.4199    7.5349    6.0477 H   0  0  0  0  0  0  0  0  0  0  0  0
   -4.8047    9.0094    6.1391 H   0  0  0  0  0  0  0  0  0  0  0  0
   -5.2832    8.2581    7.4687 H   0  0  0  0  0  0  0  0  0  0  0  0
   -2.6118    8.5152    7.5743 C   0  0  0  0  0  0  0  0  0  0  0  0
   -3.1009    8.7761    8.3835 H   0  0  0  0  0  0  0  0  0  0  0  0
   -2.4204    9.3132    7.0384 H   0  0  0  0  0  0  0  0  0  0  0  0
   -1.7698    8.0827    7.8281 H   0  0  0  0  0  0  0  0  0  0  0  0
    2.3112    3.6141    7.4978 B   0  0  0  0  0  0  0  0  0  0  0  0
    0.6219    3.9854    7.1858 B   0  0  0  0  0  0  0  0  0  0  0  0
    3.1482    3.3127    5.9343 B   0  0  0  0  0  0  0  0  0  0  0  0
    4.2267    3.5823    5.7877 H   0  0  0  0  0  0  0  0  0  0  0  0
    2.6698    1.9519    6.9294 B   0  0  0  0  0  0  0  0  0  0  0  0
    3.4282    1.3160    7.4520 H   0  0  0  0  0  0  0  0  0  0  0  0
    0.3607    3.9368    5.4080 B   0  0  0  0  0  0  0  0  0  0  0  0
   -0.3843    4.6149    4.9193 H   0  0  0  0  0  0  0  0  0  0  0  0
    1.9250    3.5130    4.6407 B   0  0  0  0  0  0  0  0  0  0  0  0
    2.2041    3.9110    3.6315 H   0  0  0  0  0  0  0  0  0  0  0  0
    2.4003    1.8955    5.1803 B   0  0  0  0  0  0  0  0  0  0  0  0
    2.9886    1.2076    4.5204 H   0  0  0  0  0  0  0  0  0  0  0  0
    1.1382    1.2753    6.2481 B   0  0  0  0  0  0  0  0  0  0  0  0
    0.8918    0.1843    6.3150 H   0  0  0  0  0  0  0  0  0  0  0  0
   -0.1260    2.5409    6.4070 B   0  0  0  0  0  0  0  0  0  0  0  0
   -1.2018    2.2867    6.5856 H   0  0  0  0  0  0  0  0  0  0  0  0
    0.6777    2.2668    4.8550 B   0  0  0  0  0  0  0  0  0  0  0  0
    0.1246    1.8284    3.9854 H   0  0  0  0  0  0  0  0  0  0  0  0
  1  2  1  0  0  0  0
  2  4  1  0  0  0  0
  3  4  1  0  0  0  0
  4 95  1  0  0  0  0
  5  2  1  0  0  0  0
  6  2  1  0  0  0  0
  7  5  1  0  0  0  0
  8  6  1  0  0  0  0
  9 13  2  0  0  0  0
 10 14  3  0  0  0  0
 11  7  1  0  0  0  0
 12  8  1  0  0  0  0
 13  1  1  0  0  0  0
 14  2  1  0  0  0  0
 15  5  1  0  0  0  0
 16 15  1  0  0  0  0
 17 15  1  0  0  0  0
 18 17  1  0  0  0  0
 19 17  1  0  0  0  0
 20 17  1  0  0  0  0
 21 15  1  0  0  0  0
 22 21  1  0  0  0  0
 23 21  1  0  0  0  0
 24 21  1  0  0  0  0
 25  5  1  0  0  0  0
 26 25  1  0  0  0  0
 27 25  1  0  0  0  0
 28 27  1  0  0  0  0
 29 27  1  0  0  0  0
 30 27  1  0  0  0  0
 31 25  1  0  0  0  0
 32 31  1  0  0  0  0
 33 31  1  0  0  0  0
 34 31  1  0  0  0  0
 35  6  1  0  0  0  0
 36 35  1  0  0  0  0
 37 35  1  0  0  0  0
 38 37  1  0  0  0  0
 39 37  1  0  0  0  0
 40 37  1  0  0  0  0
 41 35  1  0  0  0  0
 42 41  1  0  0  0  0
 43 41  1  0  0  0  0
 44 41  1  0  0  0  0
 45  6  1  0  0  0  0
 46 45  1  0  0  0  0
 47 45  1  0  0  0  0
 48 47  1  0  0  0  0
 49 47  1  0  0  0  0
 50 47  1  0  0  0  0
 51 45  1  0  0  0  0
 52 51  1  0  0  0  0
 53 51  1  0  0  0  0
 54 51  1  0  0  0  0
 55  1  1  0  0  0  0
 56 55  1  0  0  0  0
 57 56  1  0  0  0  0
 58 57  1  0  0  0  0
 59 57  1  0  0  0  0
 60 57  1  0  0  0  0
 61 56  1  0  0  0  0
 62 61  1  0  0  0  0
 63 61  1  0  0  0  0
 64 61  1  0  0  0  0
 65 56  1  0  0  0  0
 66 65  1  0  0  0  0
 67 65  1  0  0  0  0
 68 65  1  0  0  0  0
 69 55  1  0  0  0  0
 70 69  1  0  0  0  0
 71 70  1  0  0  0  0
 72 70  1  0  0  0  0
 73 70  1  0  0  0  0
 74 69  1  0  0  0  0
 75 74  1  0  0  0  0
 76 74  1  0  0  0  0
 77 74  1  0  0  0  0
 78 69  1  0  0  0  0
 79 78  1  0  0  0  0
 80 78  1  0  0  0  0
 81 78  1  0  0  0  0
 82 55  1  0  0  0  0
 83 82  1  0  0  0  0
 84 83  1  0  0  0  0
 85 83  1  0  0  0  0
 86 83  1  0  0  0  0
 87 82  1  0  0  0  0
 88 87  1  0  0  0  0
 89 87  1  0  0  0  0
 90 87  1  0  0  0  0
 91 82  1  0  0  0  0
 92 91  1  0  0  0  0
 93 91  1  0  0  0  0
 94 91  1  0  0  0  0
 95  2  1  0  0  0  0
 96  1  1  0  0  0  0
 97 12  1  0  0  0  0
 98 97  1  0  0  0  0
 99 11  1  0  0  0  0
100 99  1  0  0  0  0
101 12  1  0  0  0  0
102101  1  0  0  0  0
103 12  1  0  0  0  0
104103  1  0  0  0  0
105 97  1  0  0  0  0
106105  1  0  0  0  0
107 11  1  0  0  0  0
108107  1  0  0  0  0
109 11  1  0  0  0  0
110109  1  0  0  0  0
111101  1  0  0  0  0
112111  1  0  0  0  0
  2 13  1  0  0  0  0
  2 96  1  0  0  0  0
 11 95  1  0  0  0  0
 11 96  1  0  0  0  0
 12 95  1  0  0  0  0
 12 96  1  0  0  0  0
 95 96  1  0  0  0  0
 95 97  1  0  0  0  0
 95 99  1  0  0  0  0
 96101  1  0  0  0  0
 96109  1  0  0  0  0
 97 99  1  0  0  0  0
 97103  1  0  0  0  0
 99105  1  0  0  0  0
 99107  1  0  0  0  0
101103  1  0  0  0  0
101109  1  0  0  0  0
103105  1  0  0  0  0
103111  1  0  0  0  0
105107  1  0  0  0  0
105111  1  0  0  0  0
107109  1  0  0  0  0
107111  1  0  0  0  0
109111  1  0  0  0  0
M  END
$$$$
JAKTEY01

From CSD data. Using bond type 'Any'. Matching problem. Disorder unknown. Sizes unknown.
  0  0  0  0  0  0  0  0  0  0999 V2000
M  END
$$$$
JANFIQ

From CSD data. Using bond type 'Any'. No disordered atoms. Largest molecule.
 81103  0  0  0  0  0  0  0  0999 V2000
    3.6217   11.2521    0.1865 Ag  0  0  0  0  0  0  0  0  0  0  0  0
    7.2631   10.9881    0.2562 S   0  0  0  0  0  0  0  0  0  0  0  0
    2.0538   12.8363   -2.7834 S   0  0  0  0  0  0  0  0  0  0  0  0
    1.7070    9.5978    2.9037 S   0  0  0  0  0  0  0  0  0  0  0  0
    2.0148   11.0689   -1.6727 P   0  0  0  0  0  0  0  0  0  0  0  0
    1.7849   11.3724    1.8168 P   0  0  0  0  0  0  0  0  0  0  0  0
    6.5191   11.4003   -2.2047 F   0  0  0  0  0  0  0  0  0  0  0  0
    7.5664   13.0470   -1.3170 F   0  0  0  0  0  0  0  0  0  0  0  0
    8.6345   11.2925   -1.9464 F   0  0  0  0  0  0  0  0  0  0  0  0
    5.9382   11.4321    0.6192 O   0  0  0  0  0  0  0  0  0  0  0  0
    8.2821   11.5709    1.0748 O   0  0  0  0  0  0  0  0  0  0  0  0
    7.3948    9.5821   -0.0173 O   0  0  0  0  0  0  0  0  0  0  0  0
    3.7258    8.9862    1.1674 N   0  0  0  0  0  0  0  0  0  0  0  0
    3.9426   13.4492   -0.8999 N   0  0  0  0  0  0  0  0  0  0  0  0
    0.1774   11.3225    0.8675 C   0  0  0  0  0  0  0  0  0  0  0  0
    0.2895   11.1079   -0.9330 C   0  0  0  0  0  0  0  0  0  0  0  0
    3.0663    8.6342    2.2548 C   0  0  0  0  0  0  0  0  0  0  0  0
    4.7145    8.1748    0.7520 C   0  0  0  0  0  0  0  0  0  0  0  0
    5.1912    8.4163   -0.0095 H   0  0  0  0  0  0  0  0  0  0  0  0
    3.7412   14.9029   -2.7818 C   0  0  0  0  0  0  0  0  0  0  0  0
    3.3197   15.1099   -3.5850 H   0  0  0  0  0  0  0  0  0  0  0  0
    1.8585    8.3916   -2.4091 C   0  0  0  0  0  0  0  0  0  0  0  0
    0.9260    8.2861   -2.2096 H   0  0  0  0  0  0  0  0  0  0  0  0
    2.3704    8.2953   -1.6023 H   0  0  0  0  0  0  0  0  0  0  0  0
    2.1293    7.7210   -3.0415 H   0  0  0  0  0  0  0  0  0  0  0  0
    3.3877   13.7917   -2.0574 C   0  0  0  0  0  0  0  0  0  0  0  0
    4.7442   15.7037   -2.2763 C   0  0  0  0  0  0  0  0  0  0  0  0
    5.0192   16.4596   -2.7437 H   0  0  0  0  0  0  0  0  0  0  0  0
    1.5990   14.0378    2.5183 C   0  0  0  0  0  0  0  0  0  0  0  0
    2.2290   14.1201    1.7984 H   0  0  0  0  0  0  0  0  0  0  0  0
    1.7778   14.7142    3.1762 H   0  0  0  0  0  0  0  0  0  0  0  0
    0.7074   14.1483    2.1789 H   0  0  0  0  0  0  0  0  0  0  0  0
    4.3534    6.6773    2.5239 C   0  0  0  0  0  0  0  0  0  0  0  0
    4.5658    5.9035    2.9918 H   0  0  0  0  0  0  0  0  0  0  0  0
    3.3415    7.4853    2.9623 C   0  0  0  0  0  0  0  0  0  0  0  0
    2.8518    7.2646    3.7221 H   0  0  0  0  0  0  0  0  0  0  0  0
    2.0985    9.7741   -3.0008 C   0  0  0  0  0  0  0  0  0  0  0  0
    1.7322   12.6733    3.1502 C   0  0  0  0  0  0  0  0  0  0  0  0
    1.2079   10.0457   -4.2061 C   0  0  0  0  0  0  0  0  0  0  0  0
    1.4283   10.9031   -4.5799 H   0  0  0  0  0  0  0  0  0  0  0  0
    0.2886   10.0439   -3.9324 H   0  0  0  0  0  0  0  0  0  0  0  0
    1.3466    9.3645   -4.8659 H   0  0  0  0  0  0  0  0  0  0  0  0
    0.6730   12.4675    4.2396 C   0  0  0  0  0  0  0  0  0  0  0  0
   -0.2029   12.5017    3.8450 H   0  0  0  0  0  0  0  0  0  0  0  0
    0.7532   13.1605    4.8990 H   0  0  0  0  0  0  0  0  0  0  0  0
    0.8035   11.6118    4.6556 H   0  0  0  0  0  0  0  0  0  0  0  0
    5.0549    7.0095    1.3934 C   0  0  0  0  0  0  0  0  0  0  0  0
    5.7374    6.4652    1.0729 H   0  0  0  0  0  0  0  0  0  0  0  0
    4.9183   14.2510   -0.4372 C   0  0  0  0  0  0  0  0  0  0  0  0
    5.3305   14.0230    0.3639 H   0  0  0  0  0  0  0  0  0  0  0  0
    3.5778    9.8336   -3.4352 C   0  0  0  0  0  0  0  0  0  0  0  0
    3.7581    9.1254   -4.0577 H   0  0  0  0  0  0  0  0  0  0  0  0
    4.1423    9.7346   -2.6657 H   0  0  0  0  0  0  0  0  0  0  0  0
    3.7545   10.6799   -3.8544 H   0  0  0  0  0  0  0  0  0  0  0  0
    3.0936   12.5364    3.7963 C   0  0  0  0  0  0  0  0  0  0  0  0
    3.7752   12.7314    3.1502 H   0  0  0  0  0  0  0  0  0  0  0  0
    3.2057   11.6404    4.1191 H   0  0  0  0  0  0  0  0  0  0  0  0
    3.1633   13.1530    4.5303 H   0  0  0  0  0  0  0  0  0  0  0  0
    7.5238   11.7098   -1.3801 C   0  0  0  0  0  0  0  0  0  0  0  0
    5.3339   15.3801   -1.0824 C   0  0  0  0  0  0  0  0  0  0  0  0
    6.0025   15.9172   -0.7208 H   0  0  0  0  0  0  0  0  0  0  0  0
   -1.9323   12.6406   -0.3448 B   0  0  0  0  0  0  0  0  0  0  0  0
   -2.4693   13.5899   -0.4868 H   0  0  0  0  0  0  0  0  0  0  0  0
   -1.1966   12.2486    1.1911 B   0  0  0  0  0  0  0  0  0  0  0  0
   -1.2716   12.9397    2.0442 H   0  0  0  0  0  0  0  0  0  0  0  0
   -0.1683   12.6065   -0.2384 B   0  0  0  0  0  0  0  0  0  0  0  0
    0.4711   13.4982   -0.3096 H   0  0  0  0  0  0  0  0  0  0  0  0
   -2.4658   11.1093   -1.0918 B   0  0  0  0  0  0  0  0  0  0  0  0
   -3.3690   11.0460   -1.7157 H   0  0  0  0  0  0  0  0  0  0  0  0
   -1.9511    9.7815   -0.0043 B   0  0  0  0  0  0  0  0  0  0  0  0
   -2.5100    8.8368    0.0733 H   0  0  0  0  0  0  0  0  0  0  0  0
   -0.1756    9.8316    0.0957 B   0  0  0  0  0  0  0  0  0  0  0  0
    0.4614    8.9462    0.2363 H   0  0  0  0  0  0  0  0  0  0  0  0
   -2.5759   11.3111    0.6617 B   0  0  0  0  0  0  0  0  0  0  0  0
   -3.5543   11.3723    1.1627 H   0  0  0  0  0  0  0  0  0  0  0  0
   -1.0066   11.9047   -1.6587 B   0  0  0  0  0  0  0  0  0  0  0  0
   -0.9601   12.3652   -2.6563 H   0  0  0  0  0  0  0  0  0  0  0  0
   -1.1923   10.5086    1.4156 B   0  0  0  0  0  0  0  0  0  0  0  0
   -1.2596   10.0386    2.4081 H   0  0  0  0  0  0  0  0  0  0  0  0
   -0.9995   10.1626   -1.4392 B   0  0  0  0  0  0  0  0  0  0  0  0
   -0.9437    9.4646   -2.2876 H   0  0  0  0  0  0  0  0  0  0  0  0
  1  5  1  0  0  0  0
  2 10  1  0  0  0  0
  3  5  1  0  0  0  0
  4  6  1  0  0  0  0
  5 16  1  0  0  0  0
  6  1  1  0  0  0  0
  7 59  1  0  0  0  0
  8 59  1  0  0  0  0
  9 59  1  0  0  0  0
 10  1  1  0  0  0  0
 11  2  2  0  0  0  0
 12  2  2  0  0  0  0
 13  1  1  0  0  0  0
 14  1  1  0  0  0  0
 15  6  1  0  0  0  0
 16 66  1  0  0  0  0
 17  4  1  0  0  0  0
 18 13  4  0  0  0  0
 19 18  1  0  0  0  0
 20 21  1  0  0  0  0
 22 23  1  0  0  0  0
 24 22  1  0  0  0  0
 25 22  1  0  0  0  0
 26  3  1  0  0  0  0
 27 20  4  0  0  0  0
 28 27  1  0  0  0  0
 29 30  1  0  0  0  0
 31 29  1  0  0  0  0
 32 29  1  0  0  0  0
 33 34  1  0  0  0  0
 35 17  4  0  0  0  0
 36 35  1  0  0  0  0
 37  5  1  0  0  0  0
 38  6  1  0  0  0  0
 39 37  1  0  0  0  0
 40 39  1  0  0  0  0
 41 39  1  0  0  0  0
 42 39  1  0  0  0  0
 43 38  1  0  0  0  0
 44 43  1  0  0  0  0
 45 43  1  0  0  0  0
 46 43  1  0  0  0  0
 47 18  4  0  0  0  0
 48 47  1  0  0  0  0
 49 14  4  0  0  0  0
 50 49  1  0  0  0  0
 51 37  1  0  0  0  0
 52 51  1  0  0  0  0
 53 51  1  0  0  0  0
 54 51  1  0  0  0  0
 55 38  1  0  0  0  0
 56 55  1  0  0  0  0
 57 55  1  0  0  0  0
 58 55  1  0  0  0  0
 59  2  1  0  0  0  0
 60 27  4  0  0  0  0
 61 60  1  0  0  0  0
 62 63  1  0  0  0  0
 64 15  1  0  0  0  0
 65 64  1  0  0  0  0
 66 15  1  0  0  0  0
 67 66  1  0  0  0  0
 68 62  1  0  0  0  0
 69 68  1  0  0  0  0
 70 68  1  0  0  0  0
 71 70  1  0  0  0  0
 72 15  1  0  0  0  0
 73 72  1  0  0  0  0
 74 62  1  0  0  0  0
 75 74  1  0  0  0  0
 76 16  1  0  0  0  0
 77 76  1  0  0  0  0
 78 15  1  0  0  0  0
 79 78  1  0  0  0  0
 80 16  1  0  0  0  0
 81 80  1  0  0  0  0
 13 17  4  0  0  0  0
 14 26  4  0  0  0  0
 16 72  1  0  0  0  0
 20 26  4  0  0  0  0
 22 37  1  0  0  0  0
 29 38  1  0  0  0  0
 33 35  4  0  0  0  0
 33 47  4  0  0  0  0
 49 60  4  0  0  0  0
 62 64  1  0  0  0  0
 62 66  1  0  0  0  0
 62 76  1  0  0  0  0
 64 66  1  0  0  0  0
 64 74  1  0  0  0  0
 64 78  1  0  0  0  0
 66 76  1  0  0  0  0
 68 74  1  0  0  0  0
 68 76  1  0  0  0  0
 68 80  1  0  0  0  0
 70 72  1  0  0  0  0
 70 74  1  0  0  0  0
 70 78  1  0  0  0  0
 70 80  1  0  0  0  0
 72 78  1  0  0  0  0
 72 80  1  0  0  0  0
 74 78  1  0  0  0  0
 76 80  1  0  0  0  0
M  END
$$$$
JASVIJ

From CSD data. Using bond type 'Any'. No disordered atoms. Largest molecule.
 69 92  0  0  0  0  0  0  0  0999 V2000
    4.6257    5.7676    6.1166 Os  0  0  0  0  0  0  0  0  0  0  0  0
    3.8418    5.0182    4.6373 C   0  0  0  0  0  0  0  0  0  0  0  0
    3.2786    4.5640    3.6760 O   0  0  0  0  0  0  0  0  0  0  0  0
    5.5712    3.9062    7.0169 C   0  0  0  0  0  0  0  0  0  0  0  0
    6.6665    4.6088    5.9282 B   0  0  0  0  0  0  0  0  0  0  0  0
    7.0452    4.1217    7.6512 B   0  0  0  0  0  0  0  0  0  0  0  0
    5.6224    5.1492    8.2357 B   0  0  0  0  0  0  0  0  0  0  0  0
    6.0779    6.9008    7.6928 B   0  0  0  0  0  0  0  0  0  0  0  0
    6.8004    6.4860    5.9559 B   0  0  0  0  0  0  0  0  0  0  0  0
    8.0746    5.3640    6.7925 B   0  0  0  0  0  0  0  0  0  0  0  0
    7.3446    5.7254    8.4435 B   0  0  0  0  0  0  0  0  0  0  0  0
    7.7334    6.9157    7.3576 B   0  0  0  0  0  0  0  0  0  0  0  0
    2.5941    5.3308    7.2634 P   0  0  0  0  0  0  0  0  0  0  0  0
    2.1506    6.2411    8.7981 C   0  0  0  0  0  0  0  0  0  0  0  0
    1.0444    5.8461    9.5460 C   0  0  0  0  0  0  0  0  0  0  0  0
    0.6997    6.5445   10.6984 C   0  0  0  0  0  0  0  0  0  0  0  0
    1.4574    7.6362   11.1057 C   0  0  0  0  0  0  0  0  0  0  0  0
    2.5652    8.0295   10.3605 C   0  0  0  0  0  0  0  0  0  0  0  0
    2.9126    7.3311    9.2081 C   0  0  0  0  0  0  0  0  0  0  0  0
    0.9657    5.6084    6.4185 C   0  0  0  0  0  0  0  0  0  0  0  0
    0.4809    4.6650    5.5182 C   0  0  0  0  0  0  0  0  0  0  0  0
   -0.7447    4.8696    4.8894 C   0  0  0  0  0  0  0  0  0  0  0  0
   -1.4814    6.0175    5.1608 C   0  0  0  0  0  0  0  0  0  0  0  0
   -0.9955    6.9576    6.0584 C   0  0  0  0  0  0  0  0  0  0  0  0
    0.2290    6.7538    6.6900 C   0  0  0  0  0  0  0  0  0  0  0  0
    2.6239    3.5638    7.7371 C   0  0  0  0  0  0  0  0  0  0  0  0
    2.6889    3.2046    9.0779 C   0  0  0  0  0  0  0  0  0  0  0  0
    2.7216    1.8605    9.4380 C   0  0  0  0  0  0  0  0  0  0  0  0
    2.6740    0.8765    8.4518 C   0  0  0  0  0  0  0  0  0  0  0  0
    2.6077    1.2357    7.1111 C   0  0  0  0  0  0  0  0  0  0  0  0
    2.5779    2.5806    6.7537 C   0  0  0  0  0  0  0  0  0  0  0  0
    4.2049    7.9102    5.1636 P   0  0  0  0  0  0  0  0  0  0  0  0
    4.8157    9.2376    6.2218 C   0  0  0  0  0  0  0  0  0  0  0  0
    6.1061    9.7312    6.0473 C   0  0  0  0  0  0  0  0  0  0  0  0
    6.5838   10.7378    6.8784 C   0  0  0  0  0  0  0  0  0  0  0  0
    5.7721   11.2575    7.8812 C   0  0  0  0  0  0  0  0  0  0  0  0
    4.4814   10.7682    8.0529 C   0  0  0  0  0  0  0  0  0  0  0  0
    4.0042    9.7556    7.2274 C   0  0  0  0  0  0  0  0  0  0  0  0
    2.5740    8.4458    4.4877 C   0  0  0  0  0  0  0  0  0  0  0  0
    2.0803    9.7135    4.7869 C   0  0  0  0  0  0  0  0  0  0  0  0
    0.8548   10.1233    4.2688 C   0  0  0  0  0  0  0  0  0  0  0  0
    0.1235    9.2619    3.4572 C   0  0  0  0  0  0  0  0  0  0  0  0
    0.6199    7.9967    3.1580 C   0  0  0  0  0  0  0  0  0  0  0  0
    1.8426    7.5895    3.6760 C   0  0  0  0  0  0  0  0  0  0  0  0
    4.9877    8.2039    3.5154 C   0  0  0  0  0  0  0  0  0  0  0  0
    5.5247    7.1378    2.8007 C   0  0  0  0  0  0  0  0  0  0  0  0
    6.1079    7.3584    1.5568 C   0  0  0  0  0  0  0  0  0  0  0  0
    6.1459    8.6440    1.0250 C   0  0  0  0  0  0  0  0  0  0  0  0
    5.6134    9.7091    1.7452 C   0  0  0  0  0  0  0  0  0  0  0  0
    5.0356    9.4886    2.9890 C   0  0  0  0  0  0  0  0  0  0  0  0
    7.2466    3.3061    4.5763 P   0  0  0  0  0  0  0  0  0  0  0  0
    5.9185    2.6937    3.5431 C   0  0  0  0  0  0  0  0  0  0  0  0
    4.8906    1.9437    4.1026 C   0  0  0  0  0  0  0  0  0  0  0  0
    3.8575    1.4685    3.3021 C   0  0  0  0  0  0  0  0  0  0  0  0
    3.8546    1.7477    1.9391 C   0  0  0  0  0  0  0  0  0  0  0  0
    4.8809    2.4968    1.3768 C   0  0  0  0  0  0  0  0  0  0  0  0
    5.9129    2.9728    2.1801 C   0  0  0  0  0  0  0  0  0  0  0  0
    8.4743    3.9090    3.3990 C   0  0  0  0  0  0  0  0  0  0  0  0
    8.5986    5.2713    3.1608 C   0  0  0  0  0  0  0  0  0  0  0  0
    9.5415    5.7381    2.2522 C   0  0  0  0  0  0  0  0  0  0  0  0
   10.3583    4.8357    1.5762 C   0  0  0  0  0  0  0  0  0  0  0  0
   10.2351    3.4700    1.8117 C   0  0  0  0  0  0  0  0  0  0  0  0
    9.2924    3.0066    2.7231 C   0  0  0  0  0  0  0  0  0  0  0  0
    8.0432    1.8342    5.3187 C   0  0  0  0  0  0  0  0  0  0  0  0
    9.1140    1.9883    6.1914 C   0  0  0  0  0  0  0  0  0  0  0  0
    9.7220    0.8714    6.7537 C   0  0  0  0  0  0  0  0  0  0  0  0
    9.2592   -0.4030    6.4407 C   0  0  0  0  0  0  0  0  0  0  0  0
    8.1909   -0.5579    5.5653 C   0  0  0  0  0  0  0  0  0  0  0  0
    7.5817    0.5598    5.0057 C   0  0  0  0  0  0  0  0  0  0  0  0
  1  2  1  0  0  0  0
  2  3  3  0  0  0  0
  4  1  1  0  0  0  0
  5  1  1  0  0  0  0
  6  4  1  0  0  0  0
  7  1  1  0  0  0  0
  8  1  1  0  0  0  0
  9  1  1  0  0  0  0
 10  5  1  0  0  0  0
 11  6  1  0  0  0  0
 12  8  1  0  0  0  0
 13  1  1  0  0  0  0
 14 13  1  0  0  0  0
 15 14  4  0  0  0  0
 16 15  4  0  0  0  0
 17 16  4  0  0  0  0
 18 17  4  0  0  0  0
 19 14  4  0  0  0  0
 20 13  1  0  0  0  0
 21 20  4  0  0  0  0
 22 21  4  0  0  0  0
 23 22  4  0  0  0  0
 24 23  4  0  0  0  0
 25 20  4  0  0  0  0
 26 13  1  0  0  0  0
 27 26  4  0  0  0  0
 28 27  4  0  0  0  0
 29 28  4  0  0  0  0
 30 29  4  0  0  0  0
 31 26  4  0  0  0  0
 32  1  1  0  0  0  0
 33 32  1  0  0  0  0
 34 33  4  0  0  0  0
 35 34  4  0  0  0  0
 36 35  4  0  0  0  0
 37 36  4  0  0  0  0
 38 33  4  0  0  0  0
 39 32  1  0  0  0  0
 40 39  4  0  0  0  0
 41 40  4  0  0  0  0
 42 41  4  0  0  0  0
 43 42  4  0  0  0  0
 44 39  4  0  0  0  0
 45 32  1  0  0  0  0
 46 45  4  0  0  0  0
 47 46  4  0  0  0  0
 48 47  4  0  0  0  0
 49 48  4  0  0  0  0
 50 45  4  0  0  0  0
 51  5  1  0  0  0  0
 52 51  1  0  0  0  0
 53 52  4  0  0  0  0
 54 53  4  0  0  0  0
 55 54  4  0  0  0  0
 56 55  4  0  0  0  0
 57 52  4  0  0  0  0
 58 51  1  0  0  0  0
 59 58  4  0  0  0  0
 60 59  4  0  0  0  0
 61 60  4  0  0  0  0
 62 61  4  0  0  0  0
 63 58  4  0  0  0  0
 64 51  1  0  0  0  0
 65 64  4  0  0  0  0
 66 65  4  0  0  0  0
 67 66  4  0  0  0  0
 68 67  4  0  0  0  0
 69 64  4  0  0  0  0
  4  5  1  0  0  0  0
  4  7  1  0  0  0  0
  5  6  1  0  0  0  0
  5  9  1  0  0  0  0
  6  7  1  0  0  0  0
  6 10  1  0  0  0  0
  7  8  1  0  0  0  0
  7 11  1  0  0  0  0
  8  9  1  0  0  0  0
  8 11  1  0  0  0  0
  9 10  1  0  0  0  0
  9 12  1  0  0  0  0
 10 11  1  0  0  0  0
 10 12  1  0  0  0  0
 11 12  1  0  0  0  0
 18 19  4  0  0  0  0
 24 25  4  0  0  0  0
 30 31  4  0  0  0  0
 37 38  4  0  0  0  0
 43 44  4  0  0  0  0
 49 50  4  0  0  0  0
 56 57  4  0  0  0  0
 62 63  4  0  0  0  0
 68 69  4  0  0  0  0
M  END
$$$$
JATHIZ

From CSD data. Using bond type 'Any'. No disordered atoms. Largest molecule.
121134  0  0  0  0  0  0  0  0999 V2000
    6.7595   11.9342    9.2035 Rh  0  0  0  0  0  0  0  0  0  0  0  0
    5.4786   13.5050   10.4855 Cl  0  0  0  0  0  0  0  0  0  0  0  0
    6.9577   13.6317    7.6260 P   0  0  0  0  0  0  0  0  0  0  0  0
    4.8415   10.7872    8.4420 P   0  0  0  0  0  0  0  0  0  0  0  0
    8.3813    9.5322    8.7366 P   0  0  0  0  0  0  0  0  0  0  0  0
    9.0406    7.0214    6.6723 F   0  0  0  0  0  0  0  0  0  0  0  0
    9.2209    8.1373   11.4296 F   0  0  0  0  0  0  0  0  0  0  0  0
    7.7491    6.5872    8.4722 F   0  0  0  0  0  0  0  0  0  0  0  0
    6.7820    7.0156    6.4483 F   0  0  0  0  0  0  0  0  0  0  0  0
    7.7624    8.7659    7.5830 O   0  0  0  0  0  0  0  0  0  0  0  0
   10.9387    9.5557   11.0446 F   0  0  0  0  0  0  0  0  0  0  0  0
    9.6483    8.8635    9.2359 O   0  0  0  0  0  0  0  0  0  0  0  0
   11.0654    7.4101   10.3396 F   0  0  0  0  0  0  0  0  0  0  0  0
    8.9841   12.0186    9.4492 C   0  0  0  0  0  0  0  0  0  0  0  0
    9.4182   12.8779    9.2676 H   0  0  0  0  0  0  0  0  0  0  0  0
    8.5763   11.2281    8.2965 C   0  0  0  0  0  0  0  0  0  0  0  0
    4.5871   10.4679    6.6259 C   0  0  0  0  0  0  0  0  0  0  0  0
    3.9808   11.1698    6.3092 H   0  0  0  0  0  0  0  0  0  0  0  0
    8.3145   12.9896    6.5667 C   0  0  0  0  0  0  0  0  0  0  0  0
    8.4547   15.1842    9.4750 C   0  0  0  0  0  0  0  0  0  0  0  0
    8.1214   14.5703   10.1485 H   0  0  0  0  0  0  0  0  0  0  0  0
    9.2982   14.8389    9.1436 H   0  0  0  0  0  0  0  0  0  0  0  0
    5.8550   10.5925    5.7813 C   0  0  0  0  0  0  0  0  0  0  0  0
    6.4798    9.8924    6.0275 H   0  0  0  0  0  0  0  0  0  0  0  0
    6.2777   11.4485    5.9538 H   0  0  0  0  0  0  0  0  0  0  0  0
    8.9007   11.7760    6.9650 C   0  0  0  0  0  0  0  0  0  0  0  0
    6.0166    8.9378   10.1118 C   0  0  0  0  0  0  0  0  0  0  0  0
    7.4739   10.8188   10.9917 C   0  0  0  0  0  0  0  0  0  0  0  0
    6.9534   10.8523   11.8215 H   0  0  0  0  0  0  0  0  0  0  0  0
   10.2099   13.2020   11.8878 C   0  0  0  0  0  0  0  0  0  0  0  0
   10.8424   12.8774   11.2882 H   0  0  0  0  0  0  0  0  0  0  0  0
    5.4111   13.9605    6.6220 C   0  0  0  0  0  0  0  0  0  0  0  0
    4.8963   13.1276    6.6620 H   0  0  0  0  0  0  0  0  0  0  0  0
    8.4864   11.8212   10.7458 C   0  0  0  0  0  0  0  0  0  0  0  0
    8.7154   13.5775    5.3729 C   0  0  0  0  0  0  0  0  0  0  0  0
    8.3678   14.4040    5.1258 H   0  0  0  0  0  0  0  0  0  0  0  0
    7.1656    9.8632   10.0261 C   0  0  0  0  0  0  0  0  0  0  0  0
    3.2781   11.5831    9.0388 C   0  0  0  0  0  0  0  0  0  0  0  0
    3.4305   12.5492    8.9786 H   0  0  0  0  0  0  0  0  0  0  0  0
    3.8798    7.1790   10.2006 C   0  0  0  0  0  0  0  0  0  0  0  0
    3.1684    6.5801   10.2167 H   0  0  0  0  0  0  0  0  0  0  0  0
    4.5133   15.0195    7.2683 C   0  0  0  0  0  0  0  0  0  0  0  0
    4.4006   14.8201    8.2114 H   0  0  0  0  0  0  0  0  0  0  0  0
    4.9297   15.8922    7.1919 H   0  0  0  0  0  0  0  0  0  0  0  0
    8.8944   12.7558   11.8224 C   0  0  0  0  0  0  0  0  0  0  0  0
    3.8847    9.1276    6.3206 C   0  0  0  0  0  0  0  0  0  0  0  0
    4.4458    8.3944    6.6173 H   0  0  0  0  0  0  0  0  0  0  0  0
    3.0483    9.0830    6.8088 H   0  0  0  0  0  0  0  0  0  0  0  0
    3.0375   11.2888   10.5317 C   0  0  0  0  0  0  0  0  0  0  0  0
    2.7864   10.3585   10.6429 H   0  0  0  0  0  0  0  0  0  0  0  0
    3.8562   11.4418   11.0288 H   0  0  0  0  0  0  0  0  0  0  0  0
    3.8199    8.2939    9.3897 C   0  0  0  0  0  0  0  0  0  0  0  0
    3.0677    8.4465    8.8647 H   0  0  0  0  0  0  0  0  0  0  0  0
    7.9552   13.2367   12.7582 C   0  0  0  0  0  0  0  0  0  0  0  0
    7.0799   12.9229   12.7414 H   0  0  0  0  0  0  0  0  0  0  0  0
    7.4486   15.2779    8.3231 C   0  0  0  0  0  0  0  0  0  0  0  0
    6.6340   15.6704    8.7003 H   0  0  0  0  0  0  0  0  0  0  0  0
    9.7996   11.1321    6.1204 C   0  0  0  0  0  0  0  0  0  0  0  0
   10.1722   10.3178    6.3711 H   0  0  0  0  0  0  0  0  0  0  0  0
    4.8887    9.1936    9.3564 C   0  0  0  0  0  0  0  0  0  0  0  0
    8.6758   16.5599   10.1015 C   0  0  0  0  0  0  0  0  0  0  0  0
    7.8382   16.8907   10.4627 H   0  0  0  0  0  0  0  0  0  0  0  0
    9.3101   16.4861   10.8321 H   0  0  0  0  0  0  0  0  0  0  0  0
   10.1397   11.7041    4.9030 C   0  0  0  0  0  0  0  0  0  0  0  0
   10.7131   11.2545    4.3260 H   0  0  0  0  0  0  0  0  0  0  0  0
    9.6405   14.6200   13.7515 C   0  0  0  0  0  0  0  0  0  0  0  0
    9.8899   15.2468   14.3922 H   0  0  0  0  0  0  0  0  0  0  0  0
   10.5768   14.1350   12.8514 C   0  0  0  0  0  0  0  0  0  0  0  0
   11.4558   14.4356   12.8930 H   0  0  0  0  0  0  0  0  0  0  0  0
    6.0747    7.8222   10.9540 C   0  0  0  0  0  0  0  0  0  0  0  0
    6.8260    7.6698   11.4808 H   0  0  0  0  0  0  0  0  0  0  0  0
    7.9524   16.2680    7.2643 C   0  0  0  0  0  0  0  0  0  0  0  0
    8.7726   15.9339    6.8696 H   0  0  0  0  0  0  0  0  0  0  0  0
    7.2915   16.3571    6.5605 H   0  0  0  0  0  0  0  0  0  0  0  0
    1.9823   11.3118    8.2457 C   0  0  0  0  0  0  0  0  0  0  0  0
    2.1266   11.4977    7.3038 H   0  0  0  0  0  0  0  0  0  0  0  0
    1.7280   10.3803    8.3360 H   0  0  0  0  0  0  0  0  0  0  0  0
    3.1533   15.0369    6.5823 C   0  0  0  0  0  0  0  0  0  0  0  0
    2.7133   14.1844    6.7210 H   0  0  0  0  0  0  0  0  0  0  0  0
    2.6014   15.7271    6.9832 H   0  0  0  0  0  0  0  0  0  0  0  0
    5.5795   14.2559    5.1251 C   0  0  0  0  0  0  0  0  0  0  0  0
    6.1289   13.5690    4.7154 H   0  0  0  0  0  0  0  0  0  0  0  0
    6.0249   15.1095    5.0077 H   0  0  0  0  0  0  0  0  0  0  0  0
    8.3318   14.1679   13.6960 C   0  0  0  0  0  0  0  0  0  0  0  0
    7.7034   14.4974   14.2971 H   0  0  0  0  0  0  0  0  0  0  0  0
    0.8633   12.2171    8.7929 C   0  0  0  0  0  0  0  0  0  0  0  0
    1.0954   13.1455    8.6336 H   0  0  0  0  0  0  0  0  0  0  0  0
    0.0384   12.0298    8.3184 H   0  0  0  0  0  0  0  0  0  0  0  0
    1.9303   12.1871   11.0789 C   0  0  0  0  0  0  0  0  0  0  0  0
    1.7637   11.9672   12.0090 H   0  0  0  0  0  0  0  0  0  0  0  0
    2.2123   13.1142   11.0343 H   0  0  0  0  0  0  0  0  0  0  0  0
    9.6314   12.9397    4.5442 C   0  0  0  0  0  0  0  0  0  0  0  0
    9.9018   13.3424    3.7505 H   0  0  0  0  0  0  0  0  0  0  0  0
    4.9996    6.9458   10.9976 C   0  0  0  0  0  0  0  0  0  0  0  0
    5.0265    6.2031   11.5560 H   0  0  0  0  0  0  0  0  0  0  0  0
    5.5107   10.4773    4.2924 C   0  0  0  0  0  0  0  0  0  0  0  0
    4.8974   11.1872    4.0455 H   0  0  0  0  0  0  0  0  0  0  0  0
    6.3184   10.5817    3.7643 H   0  0  0  0  0  0  0  0  0  0  0  0
    3.2777   15.2988    5.0934 C   0  0  0  0  0  0  0  0  0  0  0  0
    2.4012   15.2464    4.6812 H   0  0  0  0  0  0  0  0  0  0  0  0
    3.6233   16.1946    4.9502 H   0  0  0  0  0  0  0  0  0  0  0  0
    4.8761    9.1309    3.9851 C   0  0  0  0  0  0  0  0  0  0  0  0
    5.4979    8.4162    4.1956 H   0  0  0  0  0  0  0  0  0  0  0  0
    4.6576    9.0752    3.0411 H   0  0  0  0  0  0  0  0  0  0  0  0
    4.2025   14.2917    4.4450 C   0  0  0  0  0  0  0  0  0  0  0  0
    4.3148   14.5182    3.5077 H   0  0  0  0  0  0  0  0  0  0  0  0
    3.7993   13.4111    4.4922 H   0  0  0  0  0  0  0  0  0  0  0  0
    8.2091   17.6354    7.9067 C   0  0  0  0  0  0  0  0  0  0  0  0
    7.3710   18.0007    8.2301 H   0  0  0  0  0  0  0  0  0  0  0  0
    8.5617   18.2427    7.2371 H   0  0  0  0  0  0  0  0  0  0  0  0
    3.6074    8.9810    4.8217 C   0  0  0  0  0  0  0  0  0  0  0  0
    3.2156    8.1091    4.6552 H   0  0  0  0  0  0  0  0  0  0  0  0
    2.9640    9.6536    4.5502 H   0  0  0  0  0  0  0  0  0  0  0  0
    9.2023   17.5316    9.0705 C   0  0  0  0  0  0  0  0  0  0  0  0
   10.0617   17.2267    8.7422 H   0  0  0  0  0  0  0  0  0  0  0  0
    9.3238   18.4045    9.4759 H   0  0  0  0  0  0  0  0  0  0  0  0
    0.6476   12.0038   10.2720 C   0  0  0  0  0  0  0  0  0  0  0  0
    0.3062   11.1075   10.4181 H   0  0  0  0  0  0  0  0  0  0  0  0
   -0.0201   12.6315   10.5905 H   0  0  0  0  0  0  0  0  0  0  0  0
    7.8331    7.2705    7.2723 B   0  0  0  0  0  0  0  0  0  0  0  0
   10.2430    8.4618   10.5733 B   0  0  0  0  0  0  0  0  0  0  0  0
  1  2  1  0  0  0  0
  3  1  1  0  0  0  0
  4  1  1  0  0  0  0
  5 10  1  0  0  0  0
  6120  1  0  0  0  0
  7121  1  0  0  0  0
  8120  1  0  0  0  0
  9120  1  0  0  0  0
 10120  1  0  0  0  0
 11121  1  0  0  0  0
 12  5  1  0  0  0  0
 13121  1  0  0  0  0
 14  1  8  0  0  0  0
 15 14  1  0  0  0  0
 16  1  8  0  0  0  0
 17  4  1  0  0  0  0
 18 17  1  0  0  0  0
 19  3  1  0  0  0  0
 20 21  1  0  0  0  0
 22 20  1  0  0  0  0
 23 17  1  0  0  0  0
 24 23  1  0  0  0  0
 25 23  1  0  0  0  0
 26 16  1  0  0  0  0
 27 37  1  0  0  0  0
 28  1  8  0  0  0  0
 29 28  1  0  0  0  0
 30 31  1  0  0  0  0
 32  3  1  0  0  0  0
 33 32  1  0  0  0  0
 34  1  8  0  0  0  0
 35 19  4  0  0  0  0
 36 35  1  0  0  0  0
 37  1  8  0  0  0  0
 38  4  1  0  0  0  0
 39 38  1  0  0  0  0
 40 41  1  0  0  0  0
 42 32  1  0  0  0  0
 43 42  1  0  0  0  0
 44 42  1  0  0  0  0
 45 30  4  0  0  0  0
 46 17  1  0  0  0  0
 47 46  1  0  0  0  0
 48 46  1  0  0  0  0
 49 38  1  0  0  0  0
 50 49  1  0  0  0  0
 51 49  1  0  0  0  0
 52 40  4  0  0  0  0
 53 52  1  0  0  0  0
 54 45  4  0  0  0  0
 55 54  1  0  0  0  0
 56  3  1  0  0  0  0
 57 56  1  0  0  0  0
 58 26  4  0  0  0  0
 59 58  1  0  0  0  0
 60  4  1  0  0  0  0
 61 20  1  0  0  0  0
 62 61  1  0  0  0  0
 63 61  1  0  0  0  0
 64 58  4  0  0  0  0
 65 64  1  0  0  0  0
 66 67  1  0  0  0  0
 68 30  4  0  0  0  0
 69 68  1  0  0  0  0
 70 27  4  0  0  0  0
 71 70  1  0  0  0  0
 72 56  1  0  0  0  0
 73 72  1  0  0  0  0
 74 72  1  0  0  0  0
 75 38  1  0  0  0  0
 76 75  1  0  0  0  0
 77 75  1  0  0  0  0
 78 42  1  0  0  0  0
 79 78  1  0  0  0  0
 80 78  1  0  0  0  0
 81 32  1  0  0  0  0
 82 81  1  0  0  0  0
 83 81  1  0  0  0  0
 84 54  4  0  0  0  0
 85 84  1  0  0  0  0
 86 75  1  0  0  0  0
 87 86  1  0  0  0  0
 88 86  1  0  0  0  0
 89 49  1  0  0  0  0
 90 89  1  0  0  0  0
 91 89  1  0  0  0  0
 92 35  4  0  0  0  0
 93 92  1  0  0  0  0
 94 40  4  0  0  0  0
 95 94  1  0  0  0  0
 96 23  1  0  0  0  0
 97 96  1  0  0  0  0
 98 96  1  0  0  0  0
 99 78  1  0  0  0  0
100 99  1  0  0  0  0
101 99  1  0  0  0  0
102 96  1  0  0  0  0
103102  1  0  0  0  0
104102  1  0  0  0  0
105 81  1  0  0  0  0
106105  1  0  0  0  0
107105  1  0  0  0  0
108 72  1  0  0  0  0
109108  1  0  0  0  0
110108  1  0  0  0  0
111 46  1  0  0  0  0
112111  1  0  0  0  0
113111  1  0  0  0  0
114 61  1  0  0  0  0
115114  1  0  0  0  0
116114  1  0  0  0  0
117 86  1  0  0  0  0
118117  1  0  0  0  0
119117  1  0  0  0  0
121 12  1  0  0  0  0
  5 16  2  0  0  0  0
  5 37  1  0  0  0  0
 14 16  1  0  0  0  0
 14 34  2  0  0  0  0
 19 26  4  0  0  0  0
 20 56  1  0  0  0  0
 27 60  4  0  0  0  0
 28 34  1  0  0  0  0
 28 37  2  0  0  0  0
 34 45  1  0  0  0  0
 52 60  4  0  0  0  0
 64 92  4  0  0  0  0
 66 68  4  0  0  0  0
 66 84  4  0  0  0  0
 70 94  4  0  0  0  0
 89117  1  0  0  0  0
 99105  1  0  0  0  0
102111  1  0  0  0  0
108114  1  0  0  0  0
M  END
$$$$
JEBGIK

From CSD data. Using bond type 'Any'. No disordered atoms. Largest molecule.
195254  0  0  0  0  0  0  0  0999 V2000
    5.3548    5.1791   16.8751 Pd  0  0  0  0  0  0  0  0  0  0  0  0
    8.9686    9.1035   16.6497 Pd  0  0  0  0  0  0  0  0  0  0  0  0
    8.6706    8.8235   19.3630 Pd  0  0  0  0  0  0  0  0  0  0  0  0
    8.4531    8.8044   13.9724 Pd  0  0  0  0  0  0  0  0  0  0  0  0
    7.0897    6.1587   16.0470 B   0  0  0  0  0  0  0  0  0  0  0  0
    6.1738    7.0569   17.5939 B   0  0  0  0  0  0  0  0  0  0  0  0
    6.0067    5.6329   18.9885 B   0  0  0  0  0  0  0  0  0  0  0  0
    6.7924    4.1511   18.2479 B   0  0  0  0  0  0  0  0  0  0  0  0
    6.4409    3.1295   18.5444 H   0  0  0  0  0  0  0  0  0  0  0  0
    7.4762    4.4228   16.5775 B   0  0  0  0  0  0  0  0  0  0  0  0
    7.5793    3.5885   15.8384 H   0  0  0  0  0  0  0  0  0  0  0  0
    7.9887    7.2481   17.3969 B   0  0  0  0  0  0  0  0  0  0  0  0
    7.2820    6.9034   18.9596 B   0  0  0  0  0  0  0  0  0  0  0  0
    7.2906    7.8745   19.9077 H   0  0  0  0  0  0  0  0  0  0  0  0
    7.6670    5.2405   19.3956 B   0  0  0  0  0  0  0  0  0  0  0  0
    7.8888    4.9525   20.4556 H   0  0  0  0  0  0  0  0  0  0  0  0
    8.5108    4.4731   17.9905 B   0  0  0  0  0  0  0  0  0  0  0  0
    9.2662    3.6583   18.1320 H   0  0  0  0  0  0  0  0  0  0  0  0
    8.7236    5.7084   16.7325 B   0  0  0  0  0  0  0  0  0  0  0  0
    9.6085    5.7449   16.0472 H   0  0  0  0  0  0  0  0  0  0  0  0
    8.8521    6.1436   18.4632 B   0  0  0  0  0  0  0  0  0  0  0  0
    9.8395    6.4242   18.9099 H   0  0  0  0  0  0  0  0  0  0  0  0
    5.6743    5.7939   14.7312 B   0  0  0  0  0  0  0  0  0  0  0  0
    5.6913    4.9553   13.9881 H   0  0  0  0  0  0  0  0  0  0  0  0
    4.1460    6.3877   15.4508 B   0  0  0  0  0  0  0  0  0  0  0  0
    3.1817    5.8815   15.1874 H   0  0  0  0  0  0  0  0  0  0  0  0
    4.3766    7.1952   17.1238 B   0  0  0  0  0  0  0  0  0  0  0  0
    3.5621    7.2296   17.8931 H   0  0  0  0  0  0  0  0  0  0  0  0
    7.0775    8.0305   16.1626 B   0  0  0  0  0  0  0  0  0  0  0  0
    6.7547    7.2028   14.6288 B   0  0  0  0  0  0  0  0  0  0  0  0
    7.6227    7.2456   13.7883 H   0  0  0  0  0  0  0  0  0  0  0  0
    5.0316    7.3537   14.2821 B   0  0  0  0  0  0  0  0  0  0  0  0
    4.6476    7.4913   13.2397 H   0  0  0  0  0  0  0  0  0  0  0  0
    4.2774    8.1789   15.6399 B   0  0  0  0  0  0  0  0  0  0  0  0
    3.3832    8.8362   15.4903 H   0  0  0  0  0  0  0  0  0  0  0  0
    5.5119    8.5940   16.8428 B   0  0  0  0  0  0  0  0  0  0  0  0
    5.4664    9.5096   17.4864 H   0  0  0  0  0  0  0  0  0  0  0  0
    5.8463    8.6972   15.1330 B   0  0  0  0  0  0  0  0  0  0  0  0
    5.9978    9.6969   14.6535 H   0  0  0  0  0  0  0  0  0  0  0  0
    4.8917    5.7310   19.9261 O   0  0  0  0  0  0  0  0  0  0  0  0
    4.6223    7.0066   20.6379 C   0  0  0  0  0  0  0  0  0  0  0  0
    4.6711    7.7661   20.0055 H   0  0  0  0  0  0  0  0  0  0  0  0
    5.2938    7.1467   21.3505 H   0  0  0  0  0  0  0  0  0  0  0  0
    3.2413    6.9160   21.2367 C   0  0  0  0  0  0  0  0  0  0  0  0
    2.6325    6.5001   20.5910 H   0  0  0  0  0  0  0  0  0  0  0  0
    2.9212    7.8175   21.4525 H   0  0  0  0  0  0  0  0  0  0  0  0
    3.2736    6.3761   22.0520 H   0  0  0  0  0  0  0  0  0  0  0  0
    3.7475    3.4321   16.9812 P   0  0  0  0  0  0  0  0  0  0  0  0
    4.0805    2.1686   18.2479 C   0  0  0  0  0  0  0  0  0  0  0  0
    3.8318    2.5058   19.5742 C   0  0  0  0  0  0  0  0  0  0  0  0
    3.5205    3.3777   19.7874 H   0  0  0  0  0  0  0  0  0  0  0  0
    4.0340    1.5825   20.5880 C   0  0  0  0  0  0  0  0  0  0  0  0
    3.7991    1.7969   21.4844 H   0  0  0  0  0  0  0  0  0  0  0  0
    4.5861    0.3296   20.2833 C   0  0  0  0  0  0  0  0  0  0  0  0
    4.7380   -0.3045   20.9741 H   0  0  0  0  0  0  0  0  0  0  0  0
    4.9033    0.0252   18.9911 C   0  0  0  0  0  0  0  0  0  0  0  0
    5.3269   -0.8004   18.7901 H   0  0  0  0  0  0  0  0  0  0  0  0
    4.6093    0.9233   17.9669 C   0  0  0  0  0  0  0  0  0  0  0  0
    4.7746    0.6755   17.0658 H   0  0  0  0  0  0  0  0  0  0  0  0
    3.7155    2.4454   15.4246 C   0  0  0  0  0  0  0  0  0  0  0  0
    4.8870    2.2642   14.7286 C   0  0  0  0  0  0  0  0  0  0  0  0
    5.6822    2.6722   15.0478 H   0  0  0  0  0  0  0  0  0  0  0  0
    4.9391    1.5045   13.5730 C   0  0  0  0  0  0  0  0  0  0  0  0
    5.7679    1.3814   13.1251 H   0  0  0  0  0  0  0  0  0  0  0  0
    3.8080    0.9334   13.0766 C   0  0  0  0  0  0  0  0  0  0  0  0
    3.8446    0.4201   12.2774 H   0  0  0  0  0  0  0  0  0  0  0  0
    2.6154    1.0969   13.7332 C   0  0  0  0  0  0  0  0  0  0  0  0
    1.8222    0.6973   13.3955 H   0  0  0  0  0  0  0  0  0  0  0  0
    2.5780    1.8642   14.9072 C   0  0  0  0  0  0  0  0  0  0  0  0
    1.7490    1.9874   15.3566 H   0  0  0  0  0  0  0  0  0  0  0  0
    1.9683    3.7612   17.3602 C   0  0  0  0  0  0  0  0  0  0  0  0
    1.1260    2.7347   17.7646 C   0  0  0  0  0  0  0  0  0  0  0  0
    1.4854    1.8607   17.8698 H   0  0  0  0  0  0  0  0  0  0  0  0
   -0.2129    2.9360   18.0220 C   0  0  0  0  0  0  0  0  0  0  0  0
   -0.7665    2.2023   18.2656 H   0  0  0  0  0  0  0  0  0  0  0  0
   -0.7641    4.2341   17.9248 C   0  0  0  0  0  0  0  0  0  0  0  0
   -1.6797    4.3898   18.1235 H   0  0  0  0  0  0  0  0  0  0  0  0
    0.0701    5.2883   17.5256 C   0  0  0  0  0  0  0  0  0  0  0  0
   -0.2748    6.1680   17.4281 H   0  0  0  0  0  0  0  0  0  0  0  0
    1.4360    5.0191   17.2683 C   0  0  0  0  0  0  0  0  0  0  0  0
    2.0046    5.7389   17.0224 H   0  0  0  0  0  0  0  0  0  0  0  0
    8.9674    8.9837   11.7445 P   0  0  0  0  0  0  0  0  0  0  0  0
    7.7807    8.3852   10.5054 C   0  0  0  0  0  0  0  0  0  0  0  0
    8.1110    8.4708    9.1318 C   0  0  0  0  0  0  0  0  0  0  0  0
    8.9412    8.8431    8.8607 H   0  0  0  0  0  0  0  0  0  0  0  0
    7.2190    8.0104    8.1942 C   0  0  0  0  0  0  0  0  0  0  0  0
    7.4453    8.0600    7.2739 H   0  0  0  0  0  0  0  0  0  0  0  0
    6.0532    7.4997    8.5461 C   0  0  0  0  0  0  0  0  0  0  0  0
    5.4259    7.2374    7.8826 H   0  0  0  0  0  0  0  0  0  0  0  0
    5.7559    7.3563    9.8698 C   0  0  0  0  0  0  0  0  0  0  0  0
    4.9524    6.9181   10.1286 H   0  0  0  0  0  0  0  0  0  0  0  0
    6.6137    7.8393   10.8416 C   0  0  0  0  0  0  0  0  0  0  0  0
    6.3693    7.7794   11.7564 H   0  0  0  0  0  0  0  0  0  0  0  0
    9.2880   10.6897   11.1567 C   0  0  0  0  0  0  0  0  0  0  0  0
   10.4929   11.2784   11.2565 C   0  0  0  0  0  0  0  0  0  0  0  0
   11.2305   10.7935   11.6078 H   0  0  0  0  0  0  0  0  0  0  0  0
   10.6629   12.6470   10.8284 C   0  0  0  0  0  0  0  0  0  0  0  0
   11.5166   13.0616   10.8647 H   0  0  0  0  0  0  0  0  0  0  0  0
    9.6230   13.3087   10.3872 C   0  0  0  0  0  0  0  0  0  0  0  0
    9.7443   14.2209   10.1506 H   0  0  0  0  0  0  0  0  0  0  0  0
    8.3472   12.7628   10.2401 C   0  0  0  0  0  0  0  0  0  0  0  0
    7.6141   13.2524    9.8870 H   0  0  0  0  0  0  0  0  0  0  0  0
    8.2353   11.4218   10.6604 C   0  0  0  0  0  0  0  0  0  0  0  0
    7.3863   11.0009   10.5967 H   0  0  0  0  0  0  0  0  0  0  0  0
   10.4274    7.9852   11.4194 C   0  0  0  0  0  0  0  0  0  0  0  0
   10.5256    6.7977   12.1048 C   0  0  0  0  0  0  0  0  0  0  0  0
    9.8770    6.5766   12.7635 H   0  0  0  0  0  0  0  0  0  0  0  0
   11.5458    5.9399   11.8475 C   0  0  0  0  0  0  0  0  0  0  0  0
   11.5967    5.1293   12.3419 H   0  0  0  0  0  0  0  0  0  0  0  0
   12.4851    6.1914   10.9204 C   0  0  0  0  0  0  0  0  0  0  0  0
   13.1625    5.5502   10.7358 H   0  0  0  0  0  0  0  0  0  0  0  0
   12.4531    7.4116   10.2296 C   0  0  0  0  0  0  0  0  0  0  0  0
   13.1353    7.6364    9.6084 H   0  0  0  0  0  0  0  0  0  0  0  0
   11.3898    8.2972   10.4818 C   0  0  0  0  0  0  0  0  0  0  0  0
   11.3334    9.1138    9.9999 H   0  0  0  0  0  0  0  0  0  0  0  0
    9.9275   10.1760   14.9009 P   0  0  0  0  0  0  0  0  0  0  0  0
    9.7775   11.9703   14.7233 C   0  0  0  0  0  0  0  0  0  0  0  0
   10.6997   12.8735   15.2880 C   0  0  0  0  0  0  0  0  0  0  0  0
   11.4745   12.5404   15.7250 H   0  0  0  0  0  0  0  0  0  0  0  0
   10.4940   14.2244   15.2118 C   0  0  0  0  0  0  0  0  0  0  0  0
   11.1180   14.8226   15.6075 H   0  0  0  0  0  0  0  0  0  0  0  0
    9.3756   14.7226   14.5631 C   0  0  0  0  0  0  0  0  0  0  0  0
    9.2480   15.6610   14.4881 H   0  0  0  0  0  0  0  0  0  0  0  0
    8.4651   13.8672   14.0352 C   0  0  0  0  0  0  0  0  0  0  0  0
    7.6912   14.2160   13.6081 H   0  0  0  0  0  0  0  0  0  0  0  0
    8.6412   12.4760   14.1061 C   0  0  0  0  0  0  0  0  0  0  0  0
    7.9919   11.8901   13.7380 H   0  0  0  0  0  0  0  0  0  0  0  0
   11.6486    9.7438   14.5684 C   0  0  0  0  0  0  0  0  0  0  0  0
   12.0416    8.4330   14.8967 C   0  0  0  0  0  0  0  0  0  0  0  0
   11.4258    7.8535   15.3278 H   0  0  0  0  0  0  0  0  0  0  0  0
   13.2864    7.9902   14.6078 C   0  0  0  0  0  0  0  0  0  0  0  0
   13.5378    7.0978   14.8143 H   0  0  0  0  0  0  0  0  0  0  0  0
   14.2124    8.8683   13.9932 C   0  0  0  0  0  0  0  0  0  0  0  0
   15.0922    8.5701   13.7955 H   0  0  0  0  0  0  0  0  0  0  0  0
   13.8420   10.1337   13.6912 C   0  0  0  0  0  0  0  0  0  0  0  0
   14.4702   10.7178   13.2820 H   0  0  0  0  0  0  0  0  0  0  0  0
   12.5785   10.5916   13.9643 C   0  0  0  0  0  0  0  0  0  0  0  0
   12.3360   11.4843   13.7447 H   0  0  0  0  0  0  0  0  0  0  0  0
   10.1423   10.1010   18.3209 P   0  0  0  0  0  0  0  0  0  0  0  0
   10.0243   11.8898   18.4764 C   0  0  0  0  0  0  0  0  0  0  0  0
   11.0519   12.7074   18.9281 C   0  0  0  0  0  0  0  0  0  0  0  0
   11.8836   12.3212   19.1761 H   0  0  0  0  0  0  0  0  0  0  0  0
   10.8778   14.0735   19.0227 C   0  0  0  0  0  0  0  0  0  0  0  0
   11.5858   14.6253   19.3353 H   0  0  0  0  0  0  0  0  0  0  0  0
    9.6802   14.6295   18.6681 C   0  0  0  0  0  0  0  0  0  0  0  0
    9.5633   15.5719   18.7233 H   0  0  0  0  0  0  0  0  0  0  0  0
    8.6403   13.8395   18.2269 C   0  0  0  0  0  0  0  0  0  0  0  0
    7.8103   14.2395   17.9939 H   0  0  0  0  0  0  0  0  0  0  0  0
    8.7915   12.4810   18.1218 C   0  0  0  0  0  0  0  0  0  0  0  0
    8.0736   11.9420   17.8145 H   0  0  0  0  0  0  0  0  0  0  0  0
   11.8774    9.6457   18.5762 C   0  0  0  0  0  0  0  0  0  0  0  0
   12.2127    8.6922   19.5295 C   0  0  0  0  0  0  0  0  0  0  0  0
   11.5326    8.3437   20.0951 H   0  0  0  0  0  0  0  0  0  0  0  0
   13.5128    8.2368   19.6792 C   0  0  0  0  0  0  0  0  0  0  0  0
   13.7124    7.5623   20.3178 H   0  0  0  0  0  0  0  0  0  0  0  0
   14.4974    8.7576   18.9097 C   0  0  0  0  0  0  0  0  0  0  0  0
   15.4011    8.5057   19.0584 H   0  0  0  0  0  0  0  0  0  0  0  0
   14.1857    9.6557   17.9012 C   0  0  0  0  0  0  0  0  0  0  0  0
   14.8601    9.9441   17.2969 H   0  0  0  0  0  0  0  0  0  0  0  0
   12.9164   10.1287   17.7778 C   0  0  0  0  0  0  0  0  0  0  0  0
   12.7325   10.8033   17.1333 H   0  0  0  0  0  0  0  0  0  0  0  0
    8.6852    9.6311   21.4914 P   0  0  0  0  0  0  0  0  0  0  0  0
    9.0027    8.3877   22.7862 C   0  0  0  0  0  0  0  0  0  0  0  0
    8.8172    7.0669   22.4999 C   0  0  0  0  0  0  0  0  0  0  0  0
    8.5942    6.7955   21.6169 H   0  0  0  0  0  0  0  0  0  0  0  0
    8.9534    6.1260   23.5006 C   0  0  0  0  0  0  0  0  0  0  0  0
    8.8536    5.2029   23.3025 H   0  0  0  0  0  0  0  0  0  0  0  0
    9.2411    6.5361   24.8059 C   0  0  0  0  0  0  0  0  0  0  0  0
    9.2750    5.8937   25.5051 H   0  0  0  0  0  0  0  0  0  0  0  0
    9.4660    7.8141   25.0790 C   0  0  0  0  0  0  0  0  0  0  0  0
    9.7007    8.0728   25.9627 H   0  0  0  0  0  0  0  0  0  0  0  0
    9.3659    8.7626   24.1046 C   0  0  0  0  0  0  0  0  0  0  0  0
    9.5377    9.6744   24.3074 H   0  0  0  0  0  0  0  0  0  0  0  0
    9.7843   11.0042   21.9458 C   0  0  0  0  0  0  0  0  0  0  0  0
   11.0977   10.7929   22.2215 C   0  0  0  0  0  0  0  0  0  0  0  0
   11.4632    9.9158   22.1895 H   0  0  0  0  0  0  0  0  0  0  0  0
   11.9066   11.8973   22.5577 C   0  0  0  0  0  0  0  0  0  0  0  0
   12.8234   11.7453   22.7568 H   0  0  0  0  0  0  0  0  0  0  0  0
   11.4441   13.1477   22.6076 C   0  0  0  0  0  0  0  0  0  0  0  0
   12.0188   13.8627   22.8522 H   0  0  0  0  0  0  0  0  0  0  0  0
   10.1687   13.3816   22.3082 C   0  0  0  0  0  0  0  0  0  0  0  0
    9.8439   14.2740   22.3112 H   0  0  0  0  0  0  0  0  0  0  0  0
    9.2787   12.3099   21.9825 C   0  0  0  0  0  0  0  0  0  0  0  0
    8.3632   12.4819   21.7931 H   0  0  0  0  0  0  0  0  0  0  0  0
    7.0130   10.2545   21.8250 C   0  0  0  0  0  0  0  0  0  0  0  0
    6.2467   10.6998   20.7718 C   0  0  0  0  0  0  0  0  0  0  0  0
    6.5887   10.6368   19.8875 H   0  0  0  0  0  0  0  0  0  0  0  0
    4.9895   11.2382   20.9767 C   0  0  0  0  0  0  0  0  0  0  0  0
    4.4808   11.5585   20.2402 H   0  0  0  0  0  0  0  0  0  0  0  0
    4.4878   11.3061   22.2294 C   0  0  0  0  0  0  0  0  0  0  0  0
    3.6168   11.6610   22.3585 H   0  0  0  0  0  0  0  0  0  0  0  0
    5.2049   10.8709   23.3351 C   0  0  0  0  0  0  0  0  0  0  0  0
    4.8535   10.9460   24.2155 H   0  0  0  0  0  0  0  0  0  0  0  0
    6.4719   10.3199   23.0961 C   0  0  0  0  0  0  0  0  0  0  0  0
    6.9724    9.9786   23.8277 H   0  0  0  0  0  0  0  0  0  0  0  0
  1  5  1  0  0  0  0
  2  3  1  0  0  0  0
  3 12  1  0  0  0  0
  4  2  1  0  0  0  0
  5  6  1  0  0  0  0
  6  1  1  0  0  0  0
  7  1  1  0  0  0  0
  8  1  1  0  0  0  0
  9  8  1  0  0  0  0
 10  1  1  0  0  0  0
 11 10  1  0  0  0  0
 12  2  1  0  0  0  0
 13  3  1  0  0  0  0
 14  3  1  0  0  0  0
 15  7  1  0  0  0  0
 16 15  1  0  0  0  0
 17  8  1  0  0  0  0
 18 17  1  0  0  0  0
 19  5  1  0  0  0  0
 20 19  1  0  0  0  0
 21 12  1  0  0  0  0
 22 21  1  0  0  0  0
 23  1  1  0  0  0  0
 24 23  1  0  0  0  0
 25  1  1  0  0  0  0
 26 25  1  0  0  0  0
 27  1  1  0  0  0  0
 28 27  1  0  0  0  0
 29  2  1  0  0  0  0
 30  4  1  0  0  0  0
 31  4  1  0  0  0  0
 32 23  1  0  0  0  0
 33 32  1  0  0  0  0
 34 25  1  0  0  0  0
 35 34  1  0  0  0  0
 36  6  1  0  0  0  0
 37 36  1  0  0  0  0
 38 29  1  0  0  0  0
 39 38  1  0  0  0  0
 40  7  1  0  0  0  0
 41 40  1  0  0  0  0
 42 41  1  0  0  0  0
 43 41  1  0  0  0  0
 44 41  1  0  0  0  0
 45 44  1  0  0  0  0
 46 44  1  0  0  0  0
 47 44  1  0  0  0  0
 48  1  1  0  0  0  0
 49 48  1  0  0  0  0
 50 49  4  0  0  0  0
 51 50  1  0  0  0  0
 52 50  4  0  0  0  0
 53 52  1  0  0  0  0
 54 52  4  0  0  0  0
 55 54  1  0  0  0  0
 56 54  4  0  0  0  0
 57 56  1  0  0  0  0
 58 49  4  0  0  0  0
 59 58  1  0  0  0  0
 60 48  1  0  0  0  0
 61 60  4  0  0  0  0
 62 61  1  0  0  0  0
 63 61  4  0  0  0  0
 64 63  1  0  0  0  0
 65 63  4  0  0  0  0
 66 65  1  0  0  0  0
 67 65  4  0  0  0  0
 68 67  1  0  0  0  0
 69 60  4  0  0  0  0
 70 69  1  0  0  0  0
 71 48  1  0  0  0  0
 72 71  4  0  0  0  0
 73 72  1  0  0  0  0
 74 72  4  0  0  0  0
 75 74  1  0  0  0  0
 76 74  4  0  0  0  0
 77 76  1  0  0  0  0
 78 76  4  0  0  0  0
 79 78  1  0  0  0  0
 80 71  4  0  0  0  0
 81 80  1  0  0  0  0
 82  4  1  0  0  0  0
 83 82  1  0  0  0  0
 84 83  4  0  0  0  0
 85 84  1  0  0  0  0
 86 84  4  0  0  0  0
 87 86  1  0  0  0  0
 88 86  4  0  0  0  0
 89 88  1  0  0  0  0
 90 88  4  0  0  0  0
 91 90  1  0  0  0  0
 92 83  4  0  0  0  0
 93 92  1  0  0  0  0
 94 82  1  0  0  0  0
 95 94  4  0  0  0  0
 96 95  1  0  0  0  0
 97 95  4  0  0  0  0
 98 97  1  0  0  0  0
 99 97  4  0  0  0  0
100 99  1  0  0  0  0
101 99  4  0  0  0  0
102101  1  0  0  0  0
103 94  4  0  0  0  0
104103  1  0  0  0  0
105 82  1  0  0  0  0
106105  4  0  0  0  0
107106  1  0  0  0  0
108106  4  0  0  0  0
109108  1  0  0  0  0
110108  4  0  0  0  0
111110  1  0  0  0  0
112110  4  0  0  0  0
113112  1  0  0  0  0
114105  4  0  0  0  0
115114  1  0  0  0  0
116  2  1  0  0  0  0
117116  1  0  0  0  0
118117  4  0  0  0  0
119118  1  0  0  0  0
120118  4  0  0  0  0
121120  1  0  0  0  0
122120  4  0  0  0  0
123122  1  0  0  0  0
124122  4  0  0  0  0
125124  1  0  0  0  0
126117  4  0  0  0  0
127126  1  0  0  0  0
128116  1  0  0  0  0
129128  4  0  0  0  0
130129  1  0  0  0  0
131129  4  0  0  0  0
132131  1  0  0  0  0
133131  4  0  0  0  0
134133  1  0  0  0  0
135133  4  0  0  0  0
136135  1  0  0  0  0
137128  4  0  0  0  0
138137  1  0  0  0  0
139  2  1  0  0  0  0
140139  1  0  0  0  0
141140  4  0  0  0  0
142141  1  0  0  0  0
143141  4  0  0  0  0
144143  1  0  0  0  0
145143  4  0  0  0  0
146145  1  0  0  0  0
147145  4  0  0  0  0
148147  1  0  0  0  0
149140  4  0  0  0  0
150149  1  0  0  0  0
151139  1  0  0  0  0
152151  4  0  0  0  0
153152  1  0  0  0  0
154152  4  0  0  0  0
155154  1  0  0  0  0
156154  4  0  0  0  0
157156  1  0  0  0  0
158156  4  0  0  0  0
159158  1  0  0  0  0
160151  4  0  0  0  0
161160  1  0  0  0  0
162  3  1  0  0  0  0
163162  1  0  0  0  0
164163  4  0  0  0  0
165164  1  0  0  0  0
166164  4  0  0  0  0
167166  1  0  0  0  0
168166  4  0  0  0  0
169168  1  0  0  0  0
170168  4  0  0  0  0
171170  1  0  0  0  0
172163  4  0  0  0  0
173172  1  0  0  0  0
174162  1  0  0  0  0
175174  4  0  0  0  0
176175  1  0  0  0  0
177175  4  0  0  0  0
178177  1  0  0  0  0
179177  4  0  0  0  0
180179  1  0  0  0  0
181179  4  0  0  0  0
182181  1  0  0  0  0
183174  4  0  0  0  0
184183  1  0  0  0  0
185162  1  0  0  0  0
186185  4  0  0  0  0
187186  1  0  0  0  0
188186  4  0  0  0  0
189188  1  0  0  0  0
190188  4  0  0  0  0
191190  1  0  0  0  0
192190  4  0  0  0  0
193192  1  0  0  0  0
194185  4  0  0  0  0
195194  1  0  0  0  0
  3139  1  0  0  0  0
  4 29  1  0  0  0  0
  4116  1  0  0  0  0
  5 10  1  0  0  0  0
  5 12  1  0  0  0  0
  5 23  1  0  0  0  0
  5 29  1  0  0  0  0
  5 30  1  0  0  0  0
  6  7  1  0  0  0  0
  6 12  1  0  0  0  0
  6 13  1  0  0  0  0
  6 27  1  0  0  0  0
  6 29  1  0  0  0  0
  7  8  1  0  0  0  0
  7 13  1  0  0  0  0
  8 10  1  0  0  0  0
  8 15  1  0  0  0  0
 10 17  1  0  0  0  0
 10 19  1  0  0  0  0
 12 13  1  0  0  0  0
 12 19  1  0  0  0  0
 12 29  1  0  0  0  0
 13 14  1  0  0  0  0
 13 15  1  0  0  0  0
 13 21  1  0  0  0  0
 15 17  1  0  0  0  0
 15 21  1  0  0  0  0
 17 19  1  0  0  0  0
 17 21  1  0  0  0  0
 19 21  1  0  0  0  0
 23 25  1  0  0  0  0
 23 30  1  0  0  0  0
 25 27  1  0  0  0  0
 25 32  1  0  0  0  0
 27 34  1  0  0  0  0
 27 36  1  0  0  0  0
 29 30  1  0  0  0  0
 29 36  1  0  0  0  0
 30 31  1  0  0  0  0
 30 32  1  0  0  0  0
 30 38  1  0  0  0  0
 32 34  1  0  0  0  0
 32 38  1  0  0  0  0
 34 36  1  0  0  0  0
 34 38  1  0  0  0  0
 36 38  1  0  0  0  0
 56 58  4  0  0  0  0
 67 69  4  0  0  0  0
 78 80  4  0  0  0  0
 90 92  4  0  0  0  0
101103  4  0  0  0  0
112114  4  0  0  0  0
124126  4  0  0  0  0
135137  4  0  0  0  0
147149  4  0  0  0  0
158160  4  0  0  0  0
170172  4  0  0  0  0
181183  4  0  0  0  0
192194  4  0  0  0  0
M  END
$$$$
JEHKAI

From CSD data. Using bond type 'Any'. No disordered atoms. Largest molecule.
120143  0  0  0  0  0  0  0  0999 V2000
    5.0559    2.3602    0.3113 Ir  0  0  0  0  0  0  0  0  0  0  0  0
    3.6953    3.5664    1.8190 Cl  0  0  0  0  0  0  0  0  0  0  0  0
    4.5069    3.5954   -1.5711 P   0  0  0  0  0  0  0  0  0  0  0  0
    6.4577    0.8949    3.5914 P   0  0  0  0  0  0  0  0  0  0  0  0
    3.6891   -2.1699   -0.7590 P   0  0  0  0  0  0  0  0  0  0  0  0
    4.2546    2.4471   -2.9055 C   0  0  0  0  0  0  0  0  0  0  0  0
    4.5969    1.1193   -2.6466 C   0  0  0  0  0  0  0  0  0  0  0  0
    4.5473    0.1742   -3.6711 C   0  0  0  0  0  0  0  0  0  0  0  0
    4.1555    0.5557   -4.9546 C   0  0  0  0  0  0  0  0  0  0  0  0
    3.8125    1.8835   -5.2112 C   0  0  0  0  0  0  0  0  0  0  0  0
    3.8621    2.8285   -4.1867 C   0  0  0  0  0  0  0  0  0  0  0  0
    3.1026    4.7266   -1.7127 C   0  0  0  0  0  0  0  0  0  0  0  0
    1.9104    4.3319   -1.1086 C   0  0  0  0  0  0  0  0  0  0  0  0
    0.7576    5.0988   -1.2724 C   0  0  0  0  0  0  0  0  0  0  0  0
    0.7970    6.2616   -2.0402 C   0  0  0  0  0  0  0  0  0  0  0  0
    1.9898    6.6576   -2.6466 C   0  0  0  0  0  0  0  0  0  0  0  0
    3.1427    5.8894   -2.4828 C   0  0  0  0  0  0  0  0  0  0  0  0
    5.9494    4.5880   -1.9827 C   0  0  0  0  0  0  0  0  0  0  0  0
    6.3940    5.5304   -1.0555 C   0  0  0  0  0  0  0  0  0  0  0  0
    7.5930    6.2088   -1.2702 C   0  0  0  0  0  0  0  0  0  0  0  0
    8.3495    5.9448   -2.4120 C   0  0  0  0  0  0  0  0  0  0  0  0
    7.9068    5.0024   -3.3392 C   0  0  0  0  0  0  0  0  0  0  0  0
    6.7058    4.3227   -3.1245 C   0  0  0  0  0  0  0  0  0  0  0  0
    6.3430    2.4682    4.4655 C   0  0  0  0  0  0  0  0  0  0  0  0
    6.2913    2.4418    5.8574 C   0  0  0  0  0  0  0  0  0  0  0  0
    6.3691    3.6310    6.5832 C   0  0  0  0  0  0  0  0  0  0  0  0
    6.4981    4.8480    5.9127 C   0  0  0  0  0  0  0  0  0  0  0  0
    6.5505    4.8757    4.5186 C   0  0  0  0  0  0  0  0  0  0  0  0
    6.4720    3.6852    3.7950 C   0  0  0  0  0  0  0  0  0  0  0  0
    8.1745    0.3537    3.8304 C   0  0  0  0  0  0  0  0  0  0  0  0
    9.1290    1.2697    4.2686 C   0  0  0  0  0  0  0  0  0  0  0  0
   10.4818    0.9279    4.2553 C   0  0  0  0  0  0  0  0  0  0  0  0
   10.8800   -0.3300    3.8039 C   0  0  0  0  0  0  0  0  0  0  0  0
    9.9234   -1.2473    3.3657 C   0  0  0  0  0  0  0  0  0  0  0  0
    8.5707   -0.9055    3.3790 C   0  0  0  0  0  0  0  0  0  0  0  0
    5.3722   -0.1650    4.5607 C   0  0  0  0  0  0  0  0  0  0  0  0
    5.8227   -1.2077    5.3728 C   0  0  0  0  0  0  0  0  0  0  0  0
    4.9081   -1.9614    6.1097 C   0  0  0  0  0  0  0  0  0  0  0  0
    3.5468   -1.6750    6.0344 C   0  0  0  0  0  0  0  0  0  0  0  0
    3.0956   -0.6322    5.2245 C   0  0  0  0  0  0  0  0  0  0  0  0
    4.0082    0.1228    4.4876 C   0  0  0  0  0  0  0  0  0  0  0  0
    3.4919   -3.3987    0.5510 C   0  0  0  0  0  0  0  0  0  0  0  0
    3.2455   -2.9526    1.8499 C   0  0  0  0  0  0  0  0  0  0  0  0
    2.9963   -3.8726    2.8678 C   0  0  0  0  0  0  0  0  0  0  0  0
    2.9927   -5.2387    2.5890 C   0  0  0  0  0  0  0  0  0  0  0  0
    3.2410   -5.6848    1.2901 C   0  0  0  0  0  0  0  0  0  0  0  0
    3.4903   -4.7648    0.2722 C   0  0  0  0  0  0  0  0  0  0  0  0
    2.0145   -1.6882   -1.1706 C   0  0  0  0  0  0  0  0  0  0  0  0
    1.6941   -0.3419   -1.3520 C   0  0  0  0  0  0  0  0  0  0  0  0
    0.3980    0.0211   -1.7194 C   0  0  0  0  0  0  0  0  0  0  0  0
   -0.5749   -0.9596   -1.9075 C   0  0  0  0  0  0  0  0  0  0  0  0
   -0.2545   -2.3045   -1.7260 C   0  0  0  0  0  0  0  0  0  0  0  0
    1.0416   -2.6688   -1.3587 C   0  0  0  0  0  0  0  0  0  0  0  0
    4.3253   -3.0925   -2.1819 C   0  0  0  0  0  0  0  0  0  0  0  0
    5.6135   -3.6192   -2.0801 C   0  0  0  0  0  0  0  0  0  0  0  0
    6.1927   -4.2593   -3.1754 C   0  0  0  0  0  0  0  0  0  0  0  0
    5.4856   -4.3728   -4.3726 C   0  0  0  0  0  0  0  0  0  0  0  0
    4.1975   -3.8449   -4.4744 C   0  0  0  0  0  0  0  0  0  0  0  0
    3.6183   -3.2047   -3.3790 C   0  0  0  0  0  0  0  0  0  0  0  0
    7.9152    2.9619    1.1286 O   0  0  0  0  0  0  0  0  0  0  0  0
    9.2073    3.0490    0.4691 C   0  0  0  0  0  0  0  0  0  0  0  0
   10.1060    3.7987    1.1949 C   0  0  0  0  0  0  0  0  0  0  0  0
    7.3634    0.2983    0.5267 B   0  0  0  0  0  0  0  0  0  0  0  0
    6.7387    1.3080   -0.8342 B   0  0  0  0  0  0  0  0  0  0  0  0
    7.0232    1.9812    0.7568 B   0  0  0  0  0  0  0  0  0  0  0  0
    6.0627    0.8593    1.7017 B   0  0  0  0  0  0  0  0  0  0  0  0
    5.9754   -0.7748    0.9449 B   0  0  0  0  0  0  0  0  0  0  0  0
    6.4133   -0.4554   -0.8010 B   0  0  0  0  0  0  0  0  0  0  0  0
    4.5299    0.3379    1.0091 B   0  0  0  0  0  0  0  0  0  0  0  0
    4.7622   -0.7088   -0.3186 B   0  0  0  0  0  0  0  0  0  0  0  0
    5.0961    0.7246   -1.1817 B   0  0  0  0  0  0  0  0  0  0  0  0
    4.8105   -0.8540   -3.4697 H   0  0  0  0  0  0  0  0  0  0  0  0
    4.1167   -0.1755   -5.7468 H   0  0  0  0  0  0  0  0  0  0  0  0
    3.5086    2.1792   -6.2048 H   0  0  0  0  0  0  0  0  0  0  0  0
    3.5989    3.8567   -4.3881 H   0  0  0  0  0  0  0  0  0  0  0  0
    1.8793    3.4317   -0.5112 H   0  0  0  0  0  0  0  0  0  0  0  0
   -0.1661    4.7926   -0.8033 H   0  0  0  0  0  0  0  0  0  0  0  0
   -0.0957    6.8556   -2.1686 H   0  0  0  0  0  0  0  0  0  0  0  0
    2.0202    7.5577   -3.2418 H   0  0  0  0  0  0  0  0  0  0  0  0
    4.0664    6.1956   -2.9519 H   0  0  0  0  0  0  0  0  0  0  0  0
    5.8074    5.7350   -0.1726 H   0  0  0  0  0  0  0  0  0  0  0  0
    7.9369    6.9387   -0.5510 H   0  0  0  0  0  0  0  0  0  0  0  0
    9.2787    6.4701   -2.5780 H   0  0  0  0  0  0  0  0  0  0  0  0
    8.4915    4.7978   -4.2221 H   0  0  0  0  0  0  0  0  0  0  0  0
    6.3640    3.5928   -3.8437 H   0  0  0  0  0  0  0  0  0  0  0  0
    6.1914    1.4994    6.3774 H   0  0  0  0  0  0  0  0  0  0  0  0
    6.3292    3.6112    7.6609 H   0  0  0  0  0  0  0  0  0  0  0  0
    6.5593    5.7693    6.4726 H   0  0  0  0  0  0  0  0  0  0  0  0
    6.6497    5.8181    4.0008 H   0  0  0  0  0  0  0  0  0  0  0  0
    6.5126    3.7063    2.7152 H   0  0  0  0  0  0  0  0  0  0  0  0
    8.8224    2.2451    4.6182 H   0  0  0  0  0  0  0  0  0  0  0  0
   11.2217    1.6380    4.5961 H   0  0  0  0  0  0  0  0  0  0  0  0
   11.9272   -0.5953    3.7928 H   0  0  0  0  0  0  0  0  0  0  0  0
   10.2300   -2.2214    3.0161 H   0  0  0  0  0  0  0  0  0  0  0  0
    7.8308   -1.6142    3.0382 H   0  0  0  0  0  0  0  0  0  0  0  0
    6.8777   -1.4295    5.4281 H   0  0  0  0  0  0  0  0  0  0  0  0
    5.2585   -2.7692    6.7359 H   0  0  0  0  0  0  0  0  0  0  0  0
    2.8403   -2.2583    6.6053 H   0  0  0  0  0  0  0  0  0  0  0  0
    2.0413   -0.4092    5.1670 H   0  0  0  0  0  0  0  0  0  0  0  0
    3.6605    0.9292    3.8592 H   0  0  0  0  0  0  0  0  0  0  0  0
    3.2457   -1.8941    2.0668 H   0  0  0  0  0  0  0  0  0  0  0  0
    2.8034   -3.5268    3.8747 H   0  0  0  0  0  0  0  0  0  0  0  0
    2.8003   -5.9514    3.3768 H   0  0  0  0  0  0  0  0  0  0  0  0
    3.2389   -6.7434    1.0732 H   0  0  0  0  0  0  0  0  0  0  0  0
    3.6805   -5.1107   -0.7325 H   0  0  0  0  0  0  0  0  0  0  0  0
    2.4461    0.4171   -1.2060 H   0  0  0  0  0  0  0  0  0  0  0  0
    0.1480    1.0638   -1.8588 H   0  0  0  0  0  0  0  0  0  0  0  0
   -1.5796   -0.6771   -2.1907 H   0  0  0  0  0  0  0  0  0  0  0  0
   -1.0085   -3.0648   -1.8721 H   0  0  0  0  0  0  0  0  0  0  0  0
    1.2896   -3.7102   -1.2193 H   0  0  0  0  0  0  0  0  0  0  0  0
    6.1597   -3.5321   -1.1529 H   0  0  0  0  0  0  0  0  0  0  0  0
    7.1897   -4.6685   -3.0980 H   0  0  0  0  0  0  0  0  0  0  0  0
    5.9338   -4.8678   -5.2201 H   0  0  0  0  0  0  0  0  0  0  0  0
    3.6513   -3.9320   -5.4016 H   0  0  0  0  0  0  0  0  0  0  0  0
    2.6220   -2.7969   -3.4587 H   0  0  0  0  0  0  0  0  0  0  0  0
    8.5110    0.0462    0.9360 H   0  0  0  0  0  0  0  0  0  0  0  0
    7.3897    1.8795   -1.8256 H   0  0  0  0  0  0  0  0  0  0  0  0
    6.1974   -1.7555    1.4184 H   0  0  0  0  0  0  0  0  0  0  0  0
    6.8988   -1.3925   -1.4561 H   0  0  0  0  0  0  0  0  0  0  0  0
    3.6013    0.1135    1.7349 H   0  0  0  0  0  0  0  0  0  0  0  0
  1  2  1  0  0  0  0
  3  1  1  0  0  0  0
  4 24  1  0  0  0  0
  5 42  1  0  0  0  0
  6  3  1  0  0  0  0
  7  6  4  0  0  0  0
  8  7  4  0  0  0  0
  9  8  4  0  0  0  0
 10  9  4  0  0  0  0
 11  6  4  0  0  0  0
 12  3  1  0  0  0  0
 13 12  4  0  0  0  0
 14 13  4  0  0  0  0
 15 14  4  0  0  0  0
 16 15  4  0  0  0  0
 17 12  4  0  0  0  0
 18  3  1  0  0  0  0
 19 18  4  0  0  0  0
 20 19  4  0  0  0  0
 21 20  4  0  0  0  0
 22 21  4  0  0  0  0
 23 18  4  0  0  0  0
 24 25  4  0  0  0  0
 25 26  4  0  0  0  0
 26 27  4  0  0  0  0
 27 28  4  0  0  0  0
 28 29  4  0  0  0  0
 29 24  4  0  0  0  0
 30  4  1  0  0  0  0
 31 30  4  0  0  0  0
 32 31  4  0  0  0  0
 33 32  4  0  0  0  0
 34 33  4  0  0  0  0
 35 30  4  0  0  0  0
 36  4  1  0  0  0  0
 37 36  4  0  0  0  0
 38 37  4  0  0  0  0
 39 38  4  0  0  0  0
 40 39  4  0  0  0  0
 41 36  4  0  0  0  0
 42 43  4  0  0  0  0
 43 44  4  0  0  0  0
 44 45  4  0  0  0  0
 45 46  4  0  0  0  0
 46 47  4  0  0  0  0
 47 42  4  0  0  0  0
 48  5  1  0  0  0  0
 49 48  4  0  0  0  0
 50 49  4  0  0  0  0
 51 50  4  0  0  0  0
 52 51  4  0  0  0  0
 53 48  4  0  0  0  0
 54  5  1  0  0  0  0
 55 54  4  0  0  0  0
 56 55  4  0  0  0  0
 57 56  4  0  0  0  0
 58 57  4  0  0  0  0
 59 54  4  0  0  0  0
 60 61  1  0  0  0  0
 61 62  1  0  0  0  0
 63 64  1  0  0  0  0
 64  1  1  0  0  0  0
 65  1  1  0  0  0  0
 66  1  1  0  0  0  0
 67 63  1  0  0  0  0
 68 63  1  0  0  0  0
 69  1  1  0  0  0  0
 70  5  1  0  0  0  0
 71  1  1  0  0  0  0
 72  8  1  0  0  0  0
 73  9  1  0  0  0  0
 74 10  1  0  0  0  0
 75 11  1  0  0  0  0
 76 13  1  0  0  0  0
 77 14  1  0  0  0  0
 78 15  1  0  0  0  0
 79 16  1  0  0  0  0
 80 17  1  0  0  0  0
 81 19  1  0  0  0  0
 82 20  1  0  0  0  0
 83 21  1  0  0  0  0
 84 22  1  0  0  0  0
 85 23  1  0  0  0  0
 86 25  1  0  0  0  0
 87 26  1  0  0  0  0
 88 27  1  0  0  0  0
 89 28  1  0  0  0  0
 90 29  1  0  0  0  0
 91 31  1  0  0  0  0
 92 32  1  0  0  0  0
 93 33  1  0  0  0  0
 94 34  1  0  0  0  0
 95 35  1  0  0  0  0
 96 37  1  0  0  0  0
 97 38  1  0  0  0  0
 98 39  1  0  0  0  0
 99 40  1  0  0  0  0
100 41  1  0  0  0  0
101 43  1  0  0  0  0
102 44  1  0  0  0  0
103 45  1  0  0  0  0
104 46  1  0  0  0  0
105 47  1  0  0  0  0
106 49  1  0  0  0  0
107 50  1  0  0  0  0
108 51  1  0  0  0  0
109 52  1  0  0  0  0
110 53  1  0  0  0  0
111 55  1  0  0  0  0
112 56  1  0  0  0  0
113 57  1  0  0  0  0
114 58  1  0  0  0  0
115 59  1  0  0  0  0
116 63  1  0  0  0  0
117 64  1  0  0  0  0
118 67  1  0  0  0  0
119 68  1  0  0  0  0
120 69  1  0  0  0  0
  4 66  1  0  0  0  0
  7 71  1  0  0  0  0
 10 11  4  0  0  0  0
 16 17  4  0  0  0  0
 22 23  4  0  0  0  0
 34 35  4  0  0  0  0
 40 41  4  0  0  0  0
 52 53  4  0  0  0  0
 58 59  4  0  0  0  0
 60 65  1  0  0  0  0
 63 65  1  0  0  0  0
 63 66  1  0  0  0  0
 64 65  1  0  0  0  0
 64 68  1  0  0  0  0
 64 71  1  0  0  0  0
 65 66  1  0  0  0  0
 66 67  1  0  0  0  0
 66 69  1  0  0  0  0
 67 68  1  0  0  0  0
 67 69  1  0  0  0  0
 67 70  1  0  0  0  0
 68 70  1  0  0  0  0
 68 71  1  0  0  0  0
 69 70  1  0  0  0  0
 70 71  1  0  0  0  0
M  END
$$$$
JEJBUV

From CSD data. Using bond type 'Any'. No disordered atoms. Largest molecule.
 23 25  0  0  0  0  0  0  0  0999 V2000
    0.0000    2.4123    0.8269 Cr  0  0  0  0  0  0  0  0  0  0  0  0
   -0.2373    4.2570    4.2671 P   0  0  0  0  0  0  0  0  0  0  0  0
    3.0508    1.6507    3.1327 P   0  0  0  0  0  0  0  0  0  0  0  0
    0.2015    2.7241    3.2120 B   0  0  0  0  0  0  0  0  0  0  0  0
    1.7504    2.8863    2.4174 B   0  0  0  0  0  0  0  0  0  0  0  0
    0.9604    1.6749   -1.8980 O   0  0  0  0  0  0  0  0  0  0  0  0
   -2.7598    2.4460   -0.2934 O   0  0  0  0  0  0  0  0  0  0  0  0
    0.0320    5.2396   -0.2433 O   0  0  0  0  0  0  0  0  0  0  0  0
   -0.4812   -0.5541    1.2483 O   0  0  0  0  0  0  0  0  0  0  0  0
    0.6130    1.9783   -0.8255 C   0  0  0  0  0  0  0  0  0  0  0  0
   -1.6921    2.4291    0.1567 C   0  0  0  0  0  0  0  0  0  0  0  0
    0.0480    4.2010    0.2715 C   0  0  0  0  0  0  0  0  0  0  0  0
   -0.2335    0.5393    1.1718 C   0  0  0  0  0  0  0  0  0  0  0  0
    1.0593    4.7550    5.3843 C   0  0  0  0  0  0  0  0  0  0  0  0
   -1.6751    3.9545    5.3642 C   0  0  0  0  0  0  0  0  0  0  0  0
   -0.5857    5.7558    3.2976 C   0  0  0  0  0  0  0  0  0  0  0  0
    4.6289    1.7697    2.2425 C   0  0  0  0  0  0  0  0  0  0  0  0
    3.4585    1.9804    4.8695 C   0  0  0  0  0  0  0  0  0  0  0  0
    2.6082   -0.0801    3.0334 C   0  0  0  0  0  0  0  0  0  0  0  0
   -0.0471    2.0225    3.8817 H   0  0  0  0  0  0  0  0  0  0  0  0
   -0.7721    2.7810    2.5331 H   0  0  0  0  0  0  0  0  0  0  0  0
    2.3163    3.9186    2.5240 H   0  0  0  0  0  0  0  0  0  0  0  0
    1.7890    2.3385    1.4670 H   0  0  0  0  0  0  0  0  0  0  0  0
  1  4  1  0  0  0  0
  2  4  1  0  0  0  0
  3  5  1  0  0  0  0
  4  5  1  0  0  0  0
  5  1  1  0  0  0  0
  6 10  3  0  0  0  0
  7 11  3  0  0  0  0
  8 12  3  0  0  0  0
  9 13  3  0  0  0  0
 10  1  1  0  0  0  0
 11  1  1  0  0  0  0
 12  1  1  0  0  0  0
 13  1  1  0  0  0  0
 14  2  1  0  0  0  0
 15  2  1  0  0  0  0
 16  2  1  0  0  0  0
 17  3  1  0  0  0  0
 18  3  1  0  0  0  0
 19  3  1  0  0  0  0
 20  4  1  0  0  0  0
 21  1  1  0  0  0  0
 22  5  1  0  0  0  0
 23  1  1  0  0  0  0
  4 21  1  0  0  0  0
  5 23  1  0  0  0  0
M  END
$$$$
JEJBUV10

From CSD data. Using bond type 'Any'. No disordered atoms. Largest molecule.
 23 23  0  0  0  0  0  0  0  0999 V2000
    0.0000    2.4123    0.8269 Cr  0  0  0  0  0  0  0  0  0  0  0  0
   -0.2373    4.2570    4.2671 P   0  0  0  0  0  0  0  0  0  0  0  0
    3.0508    1.6507    3.1327 P   0  0  0  0  0  0  0  0  0  0  0  0
    0.2015    2.7241    3.2120 B   0  0  0  0  0  0  0  0  0  0  0  0
    1.7504    2.8863    2.4174 B   0  0  0  0  0  0  0  0  0  0  0  0
    0.9604    1.6749   -1.8980 O   0  0  0  0  0  0  0  0  0  0  0  0
   -2.7598    2.4460   -0.2934 O   0  0  0  0  0  0  0  0  0  0  0  0
    0.0320    5.2396   -0.2433 O   0  0  0  0  0  0  0  0  0  0  0  0
   -0.4812   -0.5541    1.2483 O   0  0  0  0  0  0  0  0  0  0  0  0
    0.6130    1.9783   -0.8255 C   0  0  0  0  0  0  0  0  0  0  0  0
   -1.6921    2.4291    0.1567 C   0  0  0  0  0  0  0  0  0  0  0  0
    0.0480    4.2010    0.2715 C   0  0  0  0  0  0  0  0  0  0  0  0
   -0.2335    0.5393    1.1718 C   0  0  0  0  0  0  0  0  0  0  0  0
    1.0593    4.7550    5.3843 C   0  0  0  0  0  0  0  0  0  0  0  0
   -1.6751    3.9545    5.3642 C   0  0  0  0  0  0  0  0  0  0  0  0
   -0.5857    5.7558    3.2976 C   0  0  0  0  0  0  0  0  0  0  0  0
    4.6289    1.7697    2.2425 C   0  0  0  0  0  0  0  0  0  0  0  0
    3.4585    1.9804    4.8695 C   0  0  0  0  0  0  0  0  0  0  0  0
    2.6082   -0.0801    3.0334 C   0  0  0  0  0  0  0  0  0  0  0  0
   -0.0471    2.0225    3.8817 H   0  0  0  0  0  0  0  0  0  0  0  0
   -0.7721    2.7810    2.5331 H   0  0  0  0  0  0  0  0  0  0  0  0
    2.3163    3.9186    2.5240 H   0  0  0  0  0  0  0  0  0  0  0  0
    1.7890    2.3385    1.4670 H   0  0  0  0  0  0  0  0  0  0  0  0
  1 10  1  0  0  0  0
  2  4  1  0  0  0  0
  3  5  1  0  0  0  0
  4  5  1  0  0  0  0
  5 22  1  0  0  0  0
  6 10  3  0  0  0  0
  7 11  3  0  0  0  0
  8 12  3  0  0  0  0
  9 13  3  0  0  0  0
 11  1  1  0  0  0  0
 12  1  1  0  0  0  0
 13  1  1  0  0  0  0
 14  2  1  0  0  0  0
 15  2  1  0  0  0  0
 16  2  1  0  0  0  0
 17  3  1  0  0  0  0
 18  3  1  0  0  0  0
 19  3  1  0  0  0  0
 20  4  1  0  0  0  0
 21  1  1  0  0  0  0
 23  1  1  0  0  0  0
  4 21  1  0  0  0  0
  5 23  1  0  0  0  0
M  END
$$$$
JEKNOG

From CSD data. Using bond type 'Any'. Matching problem. No disordered atoms. Largest molecule.
165177  0  0  0  0  0  0  0  0999 V2000
    7.2900    3.5065    4.5837 Br  0  0  0  0  0  0  0  0  0  0  0  0
    6.8291    6.0811    4.9334 W   0  0  0  0  0  0  0  0  0  0  0  0
    6.5236    7.8285    5.0747 N   0  0  0  0  0  0  0  0  0  0  0  0
    6.2497    9.0528    5.0421 N   0  0  0  0  0  0  0  0  0  0  0  0
    6.5031   10.2143    5.7093 B   0  0  0  0  0  0  0  0  0  0  0  0
    7.7149   10.1324    7.3468 Br  0  0  0  0  0  0  0  0  0  0  0  0
    5.7195   11.6943    5.4057 B   0  0  0  0  0  0  0  0  0  0  0  0
    4.6638   11.5896    3.6554 Br  0  0  0  0  0  0  0  0  0  0  0  0
    4.3438   11.8149    6.9400 Br  0  0  0  0  0  0  0  0  0  0  0  0
    6.6358   13.5015    5.3589 P   0  0  0  0  0  0  0  0  0  0  0  0
    5.4754   14.8006    5.9699 C   0  0  0  0  0  0  0  0  0  0  0  0
    5.2501   14.5327    6.9065 H   0  0  0  0  0  0  0  0  0  0  0  0
    4.1232   14.8494    5.2239 C   0  0  0  0  0  0  0  0  0  0  0  0
    4.2499   15.2097    4.3110 H   0  0  0  0  0  0  0  0  0  0  0  0
    3.7387   13.9408    5.1531 H   0  0  0  0  0  0  0  0  0  0  0  0
    3.1861   15.7539    6.0180 C   0  0  0  0  0  0  0  0  0  0  0  0
    3.0081   15.3389    6.8987 H   0  0  0  0  0  0  0  0  0  0  0  0
    2.3240   15.8254    5.5371 H   0  0  0  0  0  0  0  0  0  0  0  0
    3.7530   17.1578    6.2341 C   0  0  0  0  0  0  0  0  0  0  0  0
    3.8203   17.6233    5.3637 H   0  0  0  0  0  0  0  0  0  0  0  0
    3.1386   17.6749    6.8127 H   0  0  0  0  0  0  0  0  0  0  0  0
    5.1178   17.0969    6.8789 C   0  0  0  0  0  0  0  0  0  0  0  0
    5.0297   16.7421    7.7991 H   0  0  0  0  0  0  0  0  0  0  0  0
    5.4929   18.0104    6.9382 H   0  0  0  0  0  0  0  0  0  0  0  0
    6.0799   16.2046    6.0831 C   0  0  0  0  0  0  0  0  0  0  0  0
    6.9549   16.1591    6.5440 H   0  0  0  0  0  0  0  0  0  0  0  0
    6.2225   16.5851    5.1808 H   0  0  0  0  0  0  0  0  0  0  0  0
    8.1181   13.4698    6.4776 C   0  0  0  0  0  0  0  0  0  0  0  0
    8.4976   12.5473    6.3902 H   0  0  0  0  0  0  0  0  0  0  0  0
    7.6667   13.5947    7.9679 C   0  0  0  0  0  0  0  0  0  0  0  0
    7.3182   14.5047    8.1374 H   0  0  0  0  0  0  0  0  0  0  0  0
    6.9445   12.9442    8.1558 H   0  0  0  0  0  0  0  0  0  0  0  0
    8.8686   13.3175    8.8803 C   0  0  0  0  0  0  0  0  0  0  0  0
    8.5975   13.4468    9.8237 H   0  0  0  0  0  0  0  0  0  0  0  0
    9.1506   12.3746    8.7711 H   0  0  0  0  0  0  0  0  0  0  0  0
   10.0425   14.2312    8.5648 C   0  0  0  0  0  0  0  0  0  0  0  0
    9.7903   15.1697    8.7604 H   0  0  0  0  0  0  0  0  0  0  0  0
   10.8091   13.9947    9.1448 H   0  0  0  0  0  0  0  0  0  0  0  0
   10.4511   14.1154    7.1259 C   0  0  0  0  0  0  0  0  0  0  0  0
   10.7800   13.1978    6.9531 H   0  0  0  0  0  0  0  0  0  0  0  0
   11.1935   14.7446    6.9447 H   0  0  0  0  0  0  0  0  0  0  0  0
    9.2836   14.4230    6.1740 C   0  0  0  0  0  0  0  0  0  0  0  0
    9.5768   14.3069    5.2360 H   0  0  0  0  0  0  0  0  0  0  0  0
    8.9904   15.3599    6.2951 H   0  0  0  0  0  0  0  0  0  0  0  0
    7.3492   14.0241    3.7267 C   0  0  0  0  0  0  0  0  0  0  0  0
    7.9538   14.7927    3.9363 H   0  0  0  0  0  0  0  0  0  0  0  0
    6.3706   14.5570    2.6411 C   0  0  0  0  0  0  0  0  0  0  0  0
    5.7053   13.8560    2.4219 H   0  0  0  0  0  0  0  0  0  0  0  0
    5.8849   15.3451    2.9887 H   0  0  0  0  0  0  0  0  0  0  0  0
    7.1459   14.9438    1.3806 C   0  0  0  0  0  0  0  0  0  0  0  0
    7.7943   15.6602    1.5896 H   0  0  0  0  0  0  0  0  0  0  0  0
    6.5205   15.2799    0.6904 H   0  0  0  0  0  0  0  0  0  0  0  0
    7.9110   13.6678    0.8352 C   0  0  0  0  0  0  0  0  0  0  0  0
    7.3016   12.8902    0.7630 H   0  0  0  0  0  0  0  0  0  0  0  0
    8.3156   13.8453   -0.0498 H   0  0  0  0  0  0  0  0  0  0  0  0
    8.9868   13.4272    1.8985 C   0  0  0  0  0  0  0  0  0  0  0  0
    9.4764   14.2679    2.0869 H   0  0  0  0  0  0  0  0  0  0  0  0
    9.6347   12.7488    1.5844 H   0  0  0  0  0  0  0  0  0  0  0  0
    8.2553   12.9338    3.1642 C   0  0  0  0  0  0  0  0  0  0  0  0
    7.7221   12.1335    2.9436 H   0  0  0  0  0  0  0  0  0  0  0  0
    8.9290   12.6764    3.8473 H   0  0  0  0  0  0  0  0  0  0  0  0
    6.5850    5.6961    7.3850 P   0  0  0  0  0  0  0  0  0  0  0  0
    7.9131    6.6207    8.2406 C   0  0  0  0  0  0  0  0  0  0  0  0
    7.6977    7.5876    8.2346 H   0  0  0  0  0  0  0  0  0  0  0  0
    7.9677    6.3241    9.1825 H   0  0  0  0  0  0  0  0  0  0  0  0
    9.2603    6.3953    7.5546 C   0  0  0  0  0  0  0  0  0  0  0  0
    9.6053    5.5037    7.8133 H   0  0  0  0  0  0  0  0  0  0  0  0
    9.9037    7.0727    7.8824 H   0  0  0  0  0  0  0  0  0  0  0  0
    9.1822    6.4916    5.7009 P   0  0  0  0  0  0  0  0  0  0  0  0
    4.5131    5.4388    4.2347 P   0  0  0  0  0  0  0  0  0  0  0  0
    4.6042    4.7478    2.5331 C   0  0  0  0  0  0  0  0  0  0  0  0
    5.0849    3.8838    2.5385 H   0  0  0  0  0  0  0  0  0  0  0  0
    3.6931    4.6010    2.1738 H   0  0  0  0  0  0  0  0  0  0  0  0
    5.3517    5.7649    1.6807 C   0  0  0  0  0  0  0  0  0  0  0  0
    4.8242    6.6025    1.6246 H   0  0  0  0  0  0  0  0  0  0  0  0
    5.4648    5.4111    0.7644 H   0  0  0  0  0  0  0  0  0  0  0  0
    7.0141    6.1276    2.4197 P   0  0  0  0  0  0  0  0  0  0  0  0
    5.1159    6.3466    8.2612 C   0  0  0  0  0  0  0  0  0  0  0  0
    4.2950    5.5792    9.0724 C   0  0  0  0  0  0  0  0  0  0  0  0
    4.4887    4.6566    9.1950 H   0  0  0  0  0  0  0  0  0  0  0  0
    3.1964    6.1365    9.7052 C   0  0  0  0  0  0  0  0  0  0  0  0
    2.6351    5.5932   10.2465 H   0  0  0  0  0  0  0  0  0  0  0  0
    2.9179    7.4612    9.5578 C   0  0  0  0  0  0  0  0  0  0  0  0
    2.1686    7.8425    9.9989 H   0  0  0  0  0  0  0  0  0  0  0  0
    3.7330    8.2530    8.7586 C   0  0  0  0  0  0  0  0  0  0  0  0
    3.5397    9.1778    8.6563 H   0  0  0  0  0  0  0  0  0  0  0  0
    4.8105    7.7110    8.1171 C   0  0  0  0  0  0  0  0  0  0  0  0
    5.3590    8.2594    7.5688 H   0  0  0  0  0  0  0  0  0  0  0  0
    6.7401    3.9773    8.0125 C   0  0  0  0  0  0  0  0  0  0  0  0
    7.7302    3.5783    8.9009 C   0  0  0  0  0  0  0  0  0  0  0  0
    8.3539    4.2123    9.2348 H   0  0  0  0  0  0  0  0  0  0  0  0
    7.8049    2.2475    9.3039 C   0  0  0  0  0  0  0  0  0  0  0  0
    8.5014    1.9695    9.8881 H   0  0  0  0  0  0  0  0  0  0  0  0
    6.8768    1.3278    8.8649 C   0  0  0  0  0  0  0  0  0  0  0  0
    6.9216    0.4264    9.1571 H   0  0  0  0  0  0  0  0  0  0  0  0
    5.8959    1.7237    8.0057 C   0  0  0  0  0  0  0  0  0  0  0  0
    5.2516    1.0940    7.7047 H   0  0  0  0  0  0  0  0  0  0  0  0
    5.8320    3.0241    7.5701 C   0  0  0  0  0  0  0  0  0  0  0  0
    5.1524    3.2747    6.9560 H   0  0  0  0  0  0  0  0  0  0  0  0
    9.8789    8.1221    5.3114 C   0  0  0  0  0  0  0  0  0  0  0  0
    9.4306    8.8256    4.2069 C   0  0  0  0  0  0  0  0  0  0  0  0
    8.7282    8.4639    3.6785 H   0  0  0  0  0  0  0  0  0  0  0  0
    9.9828   10.0498    3.8536 C   0  0  0  0  0  0  0  0  0  0  0  0
    9.6484   10.5134    3.0952 H   0  0  0  0  0  0  0  0  0  0  0  0
   11.0137   10.6010    4.5928 C   0  0  0  0  0  0  0  0  0  0  0  0
   11.3860   11.4413    4.3533 H   0  0  0  0  0  0  0  0  0  0  0  0
   11.4887    9.9036    5.6835 C   0  0  0  0  0  0  0  0  0  0  0  0
   12.2006   10.2704    6.1964 H   0  0  0  0  0  0  0  0  0  0  0  0
   10.9522    8.6916    6.0454 C   0  0  0  0  0  0  0  0  0  0  0  0
   11.3040    8.2272    6.7964 H   0  0  0  0  0  0  0  0  0  0  0  0
   10.6140    5.4025    5.3388 C   0  0  0  0  0  0  0  0  0  0  0  0
   11.7423    5.8441    4.6803 C   0  0  0  0  0  0  0  0  0  0  0  0
   11.7582    6.7218    4.3141 H   0  0  0  0  0  0  0  0  0  0  0  0
   12.8541    5.0249    4.5448 C   0  0  0  0  0  0  0  0  0  0  0  0
   13.6253    5.3394    4.0850 H   0  0  0  0  0  0  0  0  0  0  0  0
   12.8360    3.7672    5.0747 C   0  0  0  0  0  0  0  0  0  0  0  0
   13.6088    3.2190    5.0137 H   0  0  0  0  0  0  0  0  0  0  0  0
   11.7282    3.2982    5.6835 C   0  0  0  0  0  0  0  0  0  0  0  0
   11.7203    2.4152    6.0303 H   0  0  0  0  0  0  0  0  0  0  0  0
   10.6006    4.0961    5.8053 C   0  0  0  0  0  0  0  0  0  0  0  0
    9.8159    3.7468    6.2110 H   0  0  0  0  0  0  0  0  0  0  0  0
    3.2799    6.7882    4.0611 C   0  0  0  0  0  0  0  0  0  0  0  0
    2.2834    6.7638    3.1042 C   0  0  0  0  0  0  0  0  0  0  0  0
    2.2542    6.0577    2.4685 H   0  0  0  0  0  0  0  0  0  0  0  0
    1.3229    7.7688    3.0750 C   0  0  0  0  0  0  0  0  0  0  0  0
    0.6471    7.7466    2.4074 H   0  0  0  0  0  0  0  0  0  0  0  0
    1.3323    8.7799    3.9720 C   0  0  0  0  0  0  0  0  0  0  0  0
    0.6594    9.4493    3.9464 H   0  0  0  0  0  0  0  0  0  0  0  0
    2.3232    8.8286    4.9238 C   0  0  0  0  0  0  0  0  0  0  0  0
    2.3364    9.5334    5.5592 H   0  0  0  0  0  0  0  0  0  0  0  0
    3.3030    7.8450    4.9581 C   0  0  0  0  0  0  0  0  0  0  0  0
    3.9986    7.8989    5.6028 H   0  0  0  0  0  0  0  0  0  0  0  0
    3.5238    4.1966    5.1622 C   0  0  0  0  0  0  0  0  0  0  0  0
    2.7490    4.5955    6.2426 C   0  0  0  0  0  0  0  0  0  0  0  0
    2.6636    5.5209    6.4435 H   0  0  0  0  0  0  0  0  0  0  0  0
    2.1134    3.6758    7.0127 C   0  0  0  0  0  0  0  0  0  0  0  0
    1.6045    3.9683    7.7610 H   0  0  0  0  0  0  0  0  0  0  0  0
    2.1917    2.3358    6.7331 C   0  0  0  0  0  0  0  0  0  0  0  0
    1.7286    1.7063    7.2739 H   0  0  0  0  0  0  0  0  0  0  0  0
    2.9498    1.9064    5.6595 C   0  0  0  0  0  0  0  0  0  0  0  0
    3.0041    0.9785    5.4622 H   0  0  0  0  0  0  0  0  0  0  0  0
    3.6293    2.8170    4.8723 C   0  0  0  0  0  0  0  0  0  0  0  0
    4.1618    2.5208    4.1434 H   0  0  0  0  0  0  0  0  0  0  0  0
    7.4092    7.6683    1.4955 C   0  0  0  0  0  0  0  0  0  0  0  0
    6.7371    8.8378    1.8299 C   0  0  0  0  0  0  0  0  0  0  0  0
    6.1226    8.8378    2.5543 H   0  0  0  0  0  0  0  0  0  0  0  0
    6.9572   10.0041    1.1182 C   0  0  0  0  0  0  0  0  0  0  0  0
    6.4949   10.7998    1.3485 H   0  0  0  0  0  0  0  0  0  0  0  0
    7.8625    9.9980    0.0583 C   0  0  0  0  0  0  0  0  0  0  0  0
    8.0189   10.8015   -0.4260 H   0  0  0  0  0  0  0  0  0  0  0  0
    8.5325    8.8530   -0.2950 C   0  0  0  0  0  0  0  0  0  0  0  0
    9.1408    8.8551   -1.0251 H   0  0  0  0  0  0  0  0  0  0  0  0
    8.3080    7.6957    0.4288 C   0  0  0  0  0  0  0  0  0  0  0  0
    8.7756    6.9020    0.1941 H   0  0  0  0  0  0  0  0  0  0  0  0
    8.1450    4.9275    1.6258 C   0  0  0  0  0  0  0  0  0  0  0  0
    7.7842    4.0930    0.5882 C   0  0  0  0  0  0  0  0  0  0  0  0
    6.8884    4.0823    0.2734 H   0  0  0  0  0  0  0  0  0  0  0  0
    8.7383    3.2677    0.0034 C   0  0  0  0  0  0  0  0  0  0  0  0
    8.4805    2.6808   -0.6987 H   0  0  0  0  0  0  0  0  0  0  0  0
   10.0617    3.2829    0.4270 C   0  0  0  0  0  0  0  0  0  0  0  0
   10.7168    2.7374    0.0108 H   0  0  0  0  0  0  0  0  0  0  0  0
   10.3896    4.1143    1.4646 C   0  0  0  0  0  0  0  0  0  0  0  0
   11.2874    4.1373    1.7739 H   0  0  0  0  0  0  0  0  0  0  0  0
    9.4541    4.9092    2.0632 C   0  0  0  0  0  0  0  0  0  0  0  0
    9.7085    5.4600    2.7938 H   0  0  0  0  0  0  0  0  0  0  0  0
  1  2  1  0  0  0  0
  2  3  1  0  0  0  0
  3  4  2  0  0  0  0
  4  5  1  0  0  0  0
  5  6  1  0  0  0  0
  7  5  1  0  0  0  0
  8  7  1  0  0  0  0
  9  7  1  0  0  0  0
 10  7  1  0  0  0  0
 11 10  1  0  0  0  0
 12 11  1  0  0  0  0
 13 11  1  0  0  0  0
 14 13  1  0  0  0  0
 15 13  1  0  0  0  0
 16 13  1  0  0  0  0
 17 16  1  0  0  0  0
 18 16  1  0  0  0  0
 19 16  1  0  0  0  0
 20 19  1  0  0  0  0
 21 19  1  0  0  0  0
 22 19  1  0  0  0  0
 23 22  1  0  0  0  0
 24 22  1  0  0  0  0
 25 11  1  0  0  0  0
 26 25  1  0  0  0  0
 27 25  1  0  0  0  0
 28 10  1  0  0  0  0
 29 28  1  0  0  0  0
 30 28  1  0  0  0  0
 31 30  1  0  0  0  0
 32 30  1  0  0  0  0
 33 30  1  0  0  0  0
 34 33  1  0  0  0  0
 35 33  1  0  0  0  0
 36 33  1  0  0  0  0
 37 36  1  0  0  0  0
 38 36  1  0  0  0  0
 39 36  1  0  0  0  0
 40 39  1  0  0  0  0
 41 39  1  0  0  0  0
 42 28  1  0  0  0  0
 43 42  1  0  0  0  0
 44 42  1  0  0  0  0
 45 10  1  0  0  0  0
 46 45  1  0  0  0  0
 47 45  1  0  0  0  0
 48 47  1  0  0  0  0
 49 47  1  0  0  0  0
 50 47  1  0  0  0  0
 51 50  1  0  0  0  0
 52 50  1  0  0  0  0
 53 50  1  0  0  0  0
 54 53  1  0  0  0  0
 55 53  1  0  0  0  0
 56 53  1  0  0  0  0
 57 56  1  0  0  0  0
 58 56  1  0  0  0  0
 59 45  1  0  0  0  0
 60 59  1  0  0  0  0
 61 59  1  0  0  0  0
 62  2  1  0  0  0  0
 63 62  1  0  0  0  0
 64 63  1  0  0  0  0
 65 63  1  0  0  0  0
 66 63  1  0  0  0  0
 67 66  1  0  0  0  0
 68 66  1  0  0  0  0
 69  2  1  0  0  0  0
 70  2  1  0  0  0  0
 71 70  1  0  0  0  0
 72 71  1  0  0  0  0
 73 71  1  0  0  0  0
 74 71  1  0  0  0  0
 75 74  1  0  0  0  0
 76 74  1  0  0  0  0
 77  2  1  0  0  0  0
 78 62  1  0  0  0  0
 79 78  4  0  0  0  0
 80 79  1  0  0  0  0
 81 79  4  0  0  0  0
 82 81  1  0  0  0  0
 83 81  4  0  0  0  0
 84 83  1  0  0  0  0
 85 83  4  0  0  0  0
 86 85  1  0  0  0  0
 87 78  4  0  0  0  0
 88 87  1  0  0  0  0
 89 62  1  0  0  0  0
 90 89  4  0  0  0  0
 91 90  1  0  0  0  0
 92 90  4  0  0  0  0
 93 92  1  0  0  0  0
 94 92  4  0  0  0  0
 95 94  1  0  0  0  0
 96 94  4  0  0  0  0
 97 96  1  0  0  0  0
 98 89  4  0  0  0  0
 99 98  1  0  0  0  0
100 69  1  0  0  0  0
101100  4  0  0  0  0
102101  1  0  0  0  0
103101  4  0  0  0  0
104103  1  0  0  0  0
105103  4  0  0  0  0
106105  1  0  0  0  0
107105  4  0  0  0  0
108107  1  0  0  0  0
109100  4  0  0  0  0
110109  1  0  0  0  0
111 69  1  0  0  0  0
112111  4  0  0  0  0
113112  1  0  0  0  0
114112  4  0  0  0  0
115114  1  0  0  0  0
116114  4  0  0  0  0
117116  1  0  0  0  0
118116  4  0  0  0  0
119118  1  0  0  0  0
120111  4  0  0  0  0
121120  1  0  0  0  0
122 70  1  0  0  0  0
123122  4  0  0  0  0
124123  1  0  0  0  0
125123  4  0  0  0  0
126125  1  0  0  0  0
127125  4  0  0  0  0
128127  1  0  0  0  0
129127  4  0  0  0  0
130129  1  0  0  0  0
131122  4  0  0  0  0
132131  1  0  0  0  0
133 70  1  0  0  0  0
134133  4  0  0  0  0
135134  1  0  0  0  0
136134  4  0  0  0  0
137136  1  0  0  0  0
138136  4  0  0  0  0
139138  1  0  0  0  0
140138  4  0  0  0  0
141140  1  0  0  0  0
142133  4  0  0  0  0
143142  1  0  0  0  0
144 77  1  0  0  0  0
145144  4  0  0  0  0
146145  1  0  0  0  0
147145  4  0  0  0  0
148147  1  0  0  0  0
149147  4  0  0  0  0
150149  1  0  0  0  0
151149  4  0  0  0  0
152151  1  0  0  0  0
153144  4  0  0  0  0
154153  1  0  0  0  0
155 77  1  0  0  0  0
156155  4  0  0  0  0
157156  1  0  0  0  0
158156  4  0  0  0  0
159158  1  0  0  0  0
160158  4  0  0  0  0
161160  1  0  0  0  0
162160  4  0  0  0  0
163162  1  0  0  0  0
164155  4  0  0  0  0
165164  1  0  0  0  0
 22 25  1  0  0  0  0
 39 42  1  0  0  0  0
 56 59  1  0  0  0  0
 66 69  1  0  0  0  0
 74 77  1  0  0  0  0
 85 87  4  0  0  0  0
 96 98  4  0  0  0  0
107109  4  0  0  0  0
118120  4  0  0  0  0
129131  4  0  0  0  0
140142  4  0  0  0  0
151153  4  0  0  0  0
162164  4  0  0  0  0
M  END
$$$$
JENBOT

From CSD data. Using bond type 'Any'. No disordered atoms. Largest molecule.
103145  0  0  0  0  0  0  0  0999 V2000
   -0.0836    0.1540    4.0038 Ru  0  0  0  0  0  0  0  0  0  0  0  0
   -0.9462    0.4597    1.7237 Cl  0  0  0  0  0  0  0  0  0  0  0  0
    1.6686    1.7039    3.4324 P   0  0  0  0  0  0  0  0  0  0  0  0
   -1.7815    1.7557    4.8206 P   0  0  0  0  0  0  0  0  0  0  0  0
   -1.9068   -2.2722    4.2679 O   0  0  0  0  0  0  0  0  0  0  0  0
    1.0868   -0.5200    6.6753 O   0  0  0  0  0  0  0  0  0  0  0  0
   -1.2531   -1.3512    4.1806 C   0  0  0  0  0  0  0  0  0  0  0  0
    0.6398   -0.2201    5.6714 C   0  0  0  0  0  0  0  0  0  0  0  0
    2.6693    0.8578    2.1346 C   0  0  0  0  0  0  0  0  0  0  0  0
    2.7579   -0.6215    2.3774 C   0  0  0  0  0  0  0  0  0  0  0  0
    1.6657   -1.5372    1.5863 C   0  0  0  0  0  0  0  0  0  0  0  0
    2.8593    2.1601    4.7439 C   0  0  0  0  0  0  0  0  0  0  0  0
    4.2017    2.3954    4.4643 C   0  0  0  0  0  0  0  0  0  0  0  0
    5.0577    2.7630    5.4777 C   0  0  0  0  0  0  0  0  0  0  0  0
    4.5965    2.9215    6.7449 C   0  0  0  0  0  0  0  0  0  0  0  0
    3.2928    2.7334    7.0354 C   0  0  0  0  0  0  0  0  0  0  0  0
    2.4080    2.3419    6.0356 C   0  0  0  0  0  0  0  0  0  0  0  0
    1.3308    3.3308    2.6638 C   0  0  0  0  0  0  0  0  0  0  0  0
    0.9111    3.4449    1.3476 C   0  0  0  0  0  0  0  0  0  0  0  0
    0.6485    4.6865    0.7925 C   0  0  0  0  0  0  0  0  0  0  0  0
    0.7720    5.8251    1.5508 C   0  0  0  0  0  0  0  0  0  0  0  0
    1.1559    5.7263    2.8493 C   0  0  0  0  0  0  0  0  0  0  0  0
    1.4464    4.4992    3.4195 C   0  0  0  0  0  0  0  0  0  0  0  0
   -2.0468    3.1382    3.6200 C   0  0  0  0  0  0  0  0  0  0  0  0
   -3.1621    4.1785    3.6432 C   0  0  0  0  0  0  0  0  0  0  0  0
   -4.7466    3.8448    4.0087 C   0  0  0  0  0  0  0  0  0  0  0  0
   -3.4549    1.0345    5.0167 C   0  0  0  0  0  0  0  0  0  0  0  0
   -4.2451    1.1694    6.1447 C   0  0  0  0  0  0  0  0  0  0  0  0
   -5.5417    0.6572    6.1515 C   0  0  0  0  0  0  0  0  0  0  0  0
   -6.0386    0.0324    5.0535 C   0  0  0  0  0  0  0  0  0  0  0  0
   -5.2779   -0.1290    3.9392 C   0  0  0  0  0  0  0  0  0  0  0  0
   -3.9650    0.3652    3.9146 C   0  0  0  0  0  0  0  0  0  0  0  0
   -1.3406    2.4405    6.4530 C   0  0  0  0  0  0  0  0  0  0  0  0
   -1.3221    1.5712    7.5428 C   0  0  0  0  0  0  0  0  0  0  0  0
   -0.8956    1.9879    8.7731 C   0  0  0  0  0  0  0  0  0  0  0  0
   -0.4581    3.2836    8.9477 C   0  0  0  0  0  0  0  0  0  0  0  0
   -0.4495    4.1383    7.8865 C   0  0  0  0  0  0  0  0  0  0  0  0
   -0.8809    3.7329    6.6453 C   0  0  0  0  0  0  0  0  0  0  0  0
    1.3829   -1.2541    3.3022 B   0  0  0  0  0  0  0  0  0  0  0  0
    3.0938   -1.2941    3.9078 B   0  0  0  0  0  0  0  0  0  0  0  0
    4.2226   -1.4906    2.5438 B   0  0  0  0  0  0  0  0  0  0  0  0
    3.2968   -1.5987    1.0475 B   0  0  0  0  0  0  0  0  0  0  0  0
    1.1478   -2.8492    2.4934 B   0  0  0  0  0  0  0  0  0  0  0  0
    2.0809   -2.7606    4.0019 B   0  0  0  0  0  0  0  0  0  0  0  0
    3.8071   -2.8818    3.5559 B   0  0  0  0  0  0  0  0  0  0  0  0
    3.9362   -3.0642    1.7991 B   0  0  0  0  0  0  0  0  0  0  0  0
    2.2874   -3.0481    1.1430 B   0  0  0  0  0  0  0  0  0  0  0  0
    2.6052   -3.8474    2.7034 B   0  0  0  0  0  0  0  0  0  0  0  0
   -4.3332    4.0755    2.3638 B   0  0  0  0  0  0  0  0  0  0  0  0
   -3.1266    5.3205    2.3883 B   0  0  0  0  0  0  0  0  0  0  0  0
   -2.7939    5.7893    4.0496 B   0  0  0  0  0  0  0  0  0  0  0  0
   -3.8263    4.8035    5.0931 B   0  0  0  0  0  0  0  0  0  0  0  0
   -5.8162    4.7561    3.0444 B   0  0  0  0  0  0  0  0  0  0  0  0
   -4.8009    5.7177    1.9955 B   0  0  0  0  0  0  0  0  0  0  0  0
   -3.8431    6.7994    3.0403 B   0  0  0  0  0  0  0  0  0  0  0  0
   -4.2730    6.4597    4.7425 B   0  0  0  0  0  0  0  0  0  0  0  0
   -5.5000    5.2045    4.7303 B   0  0  0  0  0  0  0  0  0  0  0  0
   -5.5115    6.4358    3.4672 B   0  0  0  0  0  0  0  0  0  0  0  0
    3.4421    1.2271    2.0732 H   0  0  0  0  0  0  0  0  0  0  0  0
    2.2340    0.9913    1.4049 H   0  0  0  0  0  0  0  0  0  0  0  0
    1.1247   -1.0489    0.9957 H   0  0  0  0  0  0  0  0  0  0  0  0
    4.4982    2.3071    3.5736 H   0  0  0  0  0  0  0  0  0  0  0  0
    5.8459    2.8513    5.2377 H   0  0  0  0  0  0  0  0  0  0  0  0
    5.1196    3.0430    7.2973 H   0  0  0  0  0  0  0  0  0  0  0  0
    3.0134    2.7361    7.7338 H   0  0  0  0  0  0  0  0  0  0  0  0
    1.6024    2.1725    6.2470 H   0  0  0  0  0  0  0  0  0  0  0  0
    0.8117    2.7021    0.8593 H   0  0  0  0  0  0  0  0  0  0  0  0
    0.4102    4.7364   -0.0682 H   0  0  0  0  0  0  0  0  0  0  0  0
    0.4862    6.6361    1.1730 H   0  0  0  0  0  0  0  0  0  0  0  0
    1.2302    6.3761    3.3008 H   0  0  0  0  0  0  0  0  0  0  0  0
    1.7516    4.3983    4.2829 H   0  0  0  0  0  0  0  0  0  0  0  0
   -2.0895    2.6827    2.8371 H   0  0  0  0  0  0  0  0  0  0  0  0
   -1.3228    3.5903    3.6145 H   0  0  0  0  0  0  0  0  0  0  0  0
   -4.9490    2.8705    4.2692 H   0  0  0  0  0  0  0  0  0  0  0  0
   -3.9303    1.6110    6.7653 H   0  0  0  0  0  0  0  0  0  0  0  0
   -6.0442    0.7957    6.9290 H   0  0  0  0  0  0  0  0  0  0  0  0
   -6.7830   -0.3120    5.0740 H   0  0  0  0  0  0  0  0  0  0  0  0
   -5.6452   -0.6702    3.1235 H   0  0  0  0  0  0  0  0  0  0  0  0
   -3.4299    0.2271    3.1644 H   0  0  0  0  0  0  0  0  0  0  0  0
   -1.5378    0.7765    7.3928 H   0  0  0  0  0  0  0  0  0  0  0  0
   -0.9831    1.4764    9.4387 H   0  0  0  0  0  0  0  0  0  0  0  0
   -0.1363    3.5381    9.8752 H   0  0  0  0  0  0  0  0  0  0  0  0
   -0.1262    5.0327    7.9793 H   0  0  0  0  0  0  0  0  0  0  0  0
   -0.8439    4.2645    6.0151 H   0  0  0  0  0  0  0  0  0  0  0  0
    3.3549   -0.5799    4.6512 H   0  0  0  0  0  0  0  0  0  0  0  0
    5.1184   -0.9484    2.4688 H   0  0  0  0  0  0  0  0  0  0  0  0
    3.5385   -1.0124    0.1500 H   0  0  0  0  0  0  0  0  0  0  0  0
    0.1480   -3.1555    2.3870 H   0  0  0  0  0  0  0  0  0  0  0  0
    1.8022   -3.0146    4.9376 H   0  0  0  0  0  0  0  0  0  0  0  0
    4.5374   -3.2637    4.2692 H   0  0  0  0  0  0  0  0  0  0  0  0
    4.7221   -3.5729    1.4049 H   0  0  0  0  0  0  0  0  0  0  0  0
    1.8969   -3.4335    0.2182 H   0  0  0  0  0  0  0  0  0  0  0  0
    2.6456   -4.9365    2.5916 H   0  0  0  0  0  0  0  0  0  0  0  0
   -4.3553    3.2080    1.6504 H   0  0  0  0  0  0  0  0  0  0  0  0
   -2.3286    5.3377    1.7186 H   0  0  0  0  0  0  0  0  0  0  0  0
   -1.7675    5.9957    4.3511 H   0  0  0  0  0  0  0  0  0  0  0  0
   -3.5365    4.3969    5.9469 H   0  0  0  0  0  0  0  0  0  0  0  0
   -6.7537    4.2781    2.7007 H   0  0  0  0  0  0  0  0  0  0  0  0
   -5.0039    5.9478    1.0093 H   0  0  0  0  0  0  0  0  0  0  0  0
   -3.4962    7.6572    2.6325 H   0  0  0  0  0  0  0  0  0  0  0  0
   -4.1904    7.2668    5.5377 H   0  0  0  0  0  0  0  0  0  0  0  0
   -6.2521    5.0813    5.4832 H   0  0  0  0  0  0  0  0  0  0  0  0
   -6.3118    7.1949    3.4781 H   0  0  0  0  0  0  0  0  0  0  0  0
  1  2  1  0  0  0  0
  3  1  1  0  0  0  0
  4  1  1  0  0  0  0
  5  7  3  0  0  0  0
  6  8  3  0  0  0  0
  7  1  1  0  0  0  0
  8  1  1  0  0  0  0
  9  3  1  0  0  0  0
 10  9  1  0  0  0  0
 11 10  1  0  0  0  0
 12  3  1  0  0  0  0
 13 12  4  0  0  0  0
 14 13  4  0  0  0  0
 15 14  4  0  0  0  0
 16 15  4  0  0  0  0
 17 12  4  0  0  0  0
 18  3  1  0  0  0  0
 19 18  4  0  0  0  0
 20 19  4  0  0  0  0
 21 20  4  0  0  0  0
 22 21  4  0  0  0  0
 23 18  4  0  0  0  0
 24  4  1  0  0  0  0
 25 24  1  0  0  0  0
 26 25  1  0  0  0  0
 27  4  1  0  0  0  0
 28 27  4  0  0  0  0
 29 28  4  0  0  0  0
 30 29  4  0  0  0  0
 31 30  4  0  0  0  0
 32 27  4  0  0  0  0
 33  4  1  0  0  0  0
 34 33  4  0  0  0  0
 35 34  4  0  0  0  0
 36 35  4  0  0  0  0
 37 36  4  0  0  0  0
 38 33  4  0  0  0  0
 39  1  1  0  0  0  0
 40 10  1  0  0  0  0
 41 10  1  0  0  0  0
 42 10  1  0  0  0  0
 43 11  1  0  0  0  0
 44 39  1  0  0  0  0
 45 40  1  0  0  0  0
 46 41  1  0  0  0  0
 47 11  1  0  0  0  0
 48 43  1  0  0  0  0
 49 25  1  0  0  0  0
 50 25  1  0  0  0  0
 51 25  1  0  0  0  0
 52 25  1  0  0  0  0
 53 26  1  0  0  0  0
 54 49  1  0  0  0  0
 55 50  1  0  0  0  0
 56 51  1  0  0  0  0
 57 26  1  0  0  0  0
 58 53  1  0  0  0  0
 59  9  1  0  0  0  0
 60  9  1  0  0  0  0
 61 11  1  0  0  0  0
 62 13  1  0  0  0  0
 63 14  1  0  0  0  0
 64 15  1  0  0  0  0
 65 16  1  0  0  0  0
 66 17  1  0  0  0  0
 67 19  1  0  0  0  0
 68 20  1  0  0  0  0
 69 21  1  0  0  0  0
 70 22  1  0  0  0  0
 71 23  1  0  0  0  0
 72 24  1  0  0  0  0
 73 24  1  0  0  0  0
 74 26  1  0  0  0  0
 75 28  1  0  0  0  0
 76 29  1  0  0  0  0
 77 30  1  0  0  0  0
 78 31  1  0  0  0  0
 79 32  1  0  0  0  0
 80 34  1  0  0  0  0
 81 35  1  0  0  0  0
 82 36  1  0  0  0  0
 83 37  1  0  0  0  0
 84 38  1  0  0  0  0
 85 40  1  0  0  0  0
 86 41  1  0  0  0  0
 87 42  1  0  0  0  0
 88 43  1  0  0  0  0
 89 44  1  0  0  0  0
 90 45  1  0  0  0  0
 91 46  1  0  0  0  0
 92 47  1  0  0  0  0
 93 48  1  0  0  0  0
 94 49  1  0  0  0  0
 95 50  1  0  0  0  0
 96 51  1  0  0  0  0
 97 52  1  0  0  0  0
 98 53  1  0  0  0  0
 99 54  1  0  0  0  0
100 55  1  0  0  0  0
101 56  1  0  0  0  0
102 57  1  0  0  0  0
103 58  1  0  0  0  0
 10 39  1  0  0  0  0
 11 39  1  0  0  0  0
 11 42  1  0  0  0  0
 16 17  4  0  0  0  0
 22 23  4  0  0  0  0
 26 49  1  0  0  0  0
 26 52  1  0  0  0  0
 31 32  4  0  0  0  0
 37 38  4  0  0  0  0
 39 40  1  0  0  0  0
 39 43  1  0  0  0  0
 40 41  1  0  0  0  0
 40 44  1  0  0  0  0
 41 42  1  0  0  0  0
 41 45  1  0  0  0  0
 42 46  1  0  0  0  0
 42 47  1  0  0  0  0
 43 44  1  0  0  0  0
 43 47  1  0  0  0  0
 44 45  1  0  0  0  0
 44 48  1  0  0  0  0
 45 46  1  0  0  0  0
 45 48  1  0  0  0  0
 46 47  1  0  0  0  0
 46 48  1  0  0  0  0
 47 48  1  0  0  0  0
 49 50  1  0  0  0  0
 49 53  1  0  0  0  0
 50 51  1  0  0  0  0
 50 54  1  0  0  0  0
 51 52  1  0  0  0  0
 51 55  1  0  0  0  0
 52 56  1  0  0  0  0
 52 57  1  0  0  0  0
 53 54  1  0  0  0  0
 53 57  1  0  0  0  0
 54 55  1  0  0  0  0
 54 58  1  0  0  0  0
 55 56  1  0  0  0  0
 55 58  1  0  0  0  0
 56 57  1  0  0  0  0
 56 58  1  0  0  0  0
 57 58  1  0  0  0  0
M  END
$$$$
JEPRIG

From CSD data. Using bond type 'Any'. No disordered atoms. Largest molecule.
 90110  0  0  0  0  0  0  0  0999 V2000
   -0.1299    8.1197   12.4667 Re  0  0  0  0  0  0  0  0  0  0  0  0
   -0.6338    9.0969   13.7557 H   0  0  0  0  0  0  0  0  0  0  0  0
   -2.5065    8.0971   11.8691 P   0  0  0  0  0  0  0  0  0  0  0  0
   -0.0602    6.4440   14.2697 P   0  0  0  0  0  0  0  0  0  0  0  0
    0.5293    5.9095   10.4268 O   0  0  0  0  0  0  0  0  0  0  0  0
    1.8076   10.4299   11.3946 B   0  0  0  0  0  0  0  0  0  0  0  0
    2.3243   10.9640   10.5937 H   0  0  0  0  0  0  0  0  0  0  0  0
   -0.0074   10.3952   11.7879 B   0  0  0  0  0  0  0  0  0  0  0  0
   -0.7444   11.0074   11.2999 H   0  0  0  0  0  0  0  0  0  0  0  0
    0.7540    9.1642   10.8184 B   0  0  0  0  0  0  0  0  0  0  0  0
    0.7745    8.8580    9.7269 H   0  0  0  0  0  0  0  0  0  0  0  0
    2.0922    8.7148   11.9532 B   0  0  0  0  0  0  0  0  0  0  0  0
    2.7912    7.9896   11.5728 H   0  0  0  0  0  0  0  0  0  0  0  0
    2.5838   10.1564   12.9452 B   0  0  0  0  0  0  0  0  0  0  0  0
    3.5325   10.3778   13.1779 H   0  0  0  0  0  0  0  0  0  0  0  0
    1.1933   11.1898   12.8489 B   0  0  0  0  0  0  0  0  0  0  0  0
    1.2357   12.1798   13.0495 H   0  0  0  0  0  0  0  0  0  0  0  0
   -0.1623   10.2606   13.5792 B   0  0  0  0  0  0  0  0  0  0  0  0
   -0.8433   10.8337   14.1249 H   0  0  0  0  0  0  0  0  0  0  0  0
    0.2592    6.7217   11.2036 C   0  0  0  0  0  0  0  0  0  0  0  0
    1.7510    8.7365   13.5326 C   0  0  0  0  0  0  0  0  0  0  0  0
    2.2259    8.2067   14.0928 H   0  0  0  0  0  0  0  0  0  0  0  0
    1.4048   10.1043   14.1008 C   0  0  0  0  0  0  0  0  0  0  0  0
    1.7030   10.3127   14.9756 H   0  0  0  0  0  0  0  0  0  0  0  0
   -3.0888    9.4073   10.7205 C   0  0  0  0  0  0  0  0  0  0  0  0
   -2.4315    9.5593    9.4974 C   0  0  0  0  0  0  0  0  0  0  0  0
   -1.6506    9.0491    9.3144 H   0  0  0  0  0  0  0  0  0  0  0  0
   -2.9082   10.4451    8.5488 C   0  0  0  0  0  0  0  0  0  0  0  0
   -2.4556   10.5363    7.7173 H   0  0  0  0  0  0  0  0  0  0  0  0
   -4.0357   11.2007    8.8008 C   0  0  0  0  0  0  0  0  0  0  0  0
   -4.3590   11.8086    8.1459 H   0  0  0  0  0  0  0  0  0  0  0  0
   -4.6912   11.0682   10.0046 C   0  0  0  0  0  0  0  0  0  0  0  0
   -5.4611   11.5936   10.1828 H   0  0  0  0  0  0  0  0  0  0  0  0
   -4.2349   10.1716   10.9596 C   0  0  0  0  0  0  0  0  0  0  0  0
   -4.7032   10.0760   11.7799 H   0  0  0  0  0  0  0  0  0  0  0  0
   -3.3416    6.6563   11.0977 C   0  0  0  0  0  0  0  0  0  0  0  0
   -4.6907    6.7651   10.7542 C   0  0  0  0  0  0  0  0  0  0  0  0
   -5.1296    7.6053   10.8377 H   0  0  0  0  0  0  0  0  0  0  0  0
   -5.3907    5.6752   10.2935 C   0  0  0  0  0  0  0  0  0  0  0  0
   -6.3102    5.7642   10.0704 H   0  0  0  0  0  0  0  0  0  0  0  0
   -4.7695    4.4659   10.1571 C   0  0  0  0  0  0  0  0  0  0  0  0
   -5.2542    3.7104    9.8441 H   0  0  0  0  0  0  0  0  0  0  0  0
   -3.4399    4.3487   10.4733 C   0  0  0  0  0  0  0  0  0  0  0  0
   -3.0031    3.5128   10.3706 H   0  0  0  0  0  0  0  0  0  0  0  0
   -2.7300    5.4386   10.9436 C   0  0  0  0  0  0  0  0  0  0  0  0
   -1.8096    5.3431   11.1603 H   0  0  0  0  0  0  0  0  0  0  0  0
   -3.5586    8.3533   13.3545 C   0  0  0  0  0  0  0  0  0  0  0  0
   -4.3310    7.3274   13.8809 C   0  0  0  0  0  0  0  0  0  0  0  0
   -4.3443    6.4764   13.4604 H   0  0  0  0  0  0  0  0  0  0  0  0
   -5.0843    7.5467   15.0270 C   0  0  0  0  0  0  0  0  0  0  0  0
   -5.6073    6.8411   15.3881 H   0  0  0  0  0  0  0  0  0  0  0  0
   -5.0791    8.7821   15.6433 C   0  0  0  0  0  0  0  0  0  0  0  0
   -5.6046    8.9275   16.4218 H   0  0  0  0  0  0  0  0  0  0  0  0
   -4.3109    9.8003   15.1313 C   0  0  0  0  0  0  0  0  0  0  0  0
   -4.3014   10.6492   15.5567 H   0  0  0  0  0  0  0  0  0  0  0  0
   -3.5527    9.5875   13.9933 C   0  0  0  0  0  0  0  0  0  0  0  0
   -3.0204   10.2931   13.6450 H   0  0  0  0  0  0  0  0  0  0  0  0
   -1.3033    5.0934   14.3272 C   0  0  0  0  0  0  0  0  0  0  0  0
   -1.1210    4.0578   13.4058 C   0  0  0  0  0  0  0  0  0  0  0  0
   -0.3849    4.0882   12.8071 H   0  0  0  0  0  0  0  0  0  0  0  0
   -1.9988    2.9939   13.3545 C   0  0  0  0  0  0  0  0  0  0  0  0
   -1.8679    2.2992   12.7188 H   0  0  0  0  0  0  0  0  0  0  0  0
   -3.0601    2.9375   14.2260 C   0  0  0  0  0  0  0  0  0  0  0  0
   -3.6749    2.2167   14.1779 H   0  0  0  0  0  0  0  0  0  0  0  0
   -3.2335    3.9210   15.1634 C   0  0  0  0  0  0  0  0  0  0  0  0
   -3.9619    3.8711   15.7717 H   0  0  0  0  0  0  0  0  0  0  0  0
   -2.3520    4.9957   15.2308 C   0  0  0  0  0  0  0  0  0  0  0  0
   -2.4681    5.6622   15.8969 H   0  0  0  0  0  0  0  0  0  0  0  0
   -0.1545    7.2610   15.9146 C   0  0  0  0  0  0  0  0  0  0  0  0
   -1.3475    7.8819   16.3078 C   0  0  0  0  0  0  0  0  0  0  0  0
   -2.0988    7.8767   15.7252 H   0  0  0  0  0  0  0  0  0  0  0  0
   -1.4361    8.5020   17.5454 C   0  0  0  0  0  0  0  0  0  0  0  0
   -2.2558    8.9036   17.8086 H   0  0  0  0  0  0  0  0  0  0  0  0
   -0.3553    8.5476   18.3961 C   0  0  0  0  0  0  0  0  0  0  0  0
   -0.4318    8.9623   19.2484 H   0  0  0  0  0  0  0  0  0  0  0  0
    0.8422    7.9831   17.9996 C   0  0  0  0  0  0  0  0  0  0  0  0
    1.6019    8.0374   18.5678 H   0  0  0  0  0  0  0  0  0  0  0  0
    0.9399    7.3383   16.7701 C   0  0  0  0  0  0  0  0  0  0  0  0
    1.7650    6.9431   16.5117 H   0  0  0  0  0  0  0  0  0  0  0  0
    1.4271    5.3691   14.4074 C   0  0  0  0  0  0  0  0  0  0  0  0
    1.4466    4.4203   15.4315 C   0  0  0  0  0  0  0  0  0  0  0  0
    0.7549    4.4138   16.0815 H   0  0  0  0  0  0  0  0  0  0  0  0
    2.4672    3.4824   15.5069 C   0  0  0  0  0  0  0  0  0  0  0  0
    2.4820    2.8506   16.2164 H   0  0  0  0  0  0  0  0  0  0  0  0
    3.4594    3.4694   14.5503 C   0  0  0  0  0  0  0  0  0  0  0  0
    4.1492    2.8181   14.5904 H   0  0  0  0  0  0  0  0  0  0  0  0
    3.4487    4.3986   13.5358 C   0  0  0  0  0  0  0  0  0  0  0  0
    4.1380    4.3899   12.8810 H   0  0  0  0  0  0  0  0  0  0  0  0
    2.4393    5.3517   13.4604 C   0  0  0  0  0  0  0  0  0  0  0  0
    2.4439    5.9922   12.7590 H   0  0  0  0  0  0  0  0  0  0  0  0
  1  2  1  0  0  0  0
  2 18  1  0  0  0  0
  3  1  1  0  0  0  0
  4  1  1  0  0  0  0
  5 20  3  0  0  0  0
  6  7  1  0  0  0  0
  8  1  1  0  0  0  0
  9  8  1  0  0  0  0
 10  1  1  0  0  0  0
 11 10  1  0  0  0  0
 12  1  1  0  0  0  0
 13 12  1  0  0  0  0
 14  6  1  0  0  0  0
 15 14  1  0  0  0  0
 16  6  1  0  0  0  0
 17 16  1  0  0  0  0
 18  1  1  0  0  0  0
 19 18  1  0  0  0  0
 20  1  1  0  0  0  0
 21  1  1  0  0  0  0
 22 21  1  0  0  0  0
 23 14  1  0  0  0  0
 24 23  1  0  0  0  0
 25  3  1  0  0  0  0
 26 25  4  0  0  0  0
 27 26  1  0  0  0  0
 28 26  4  0  0  0  0
 29 28  1  0  0  0  0
 30 28  4  0  0  0  0
 31 30  1  0  0  0  0
 32 30  4  0  0  0  0
 33 32  1  0  0  0  0
 34 25  4  0  0  0  0
 35 34  1  0  0  0  0
 36  3  1  0  0  0  0
 37 36  4  0  0  0  0
 38 37  1  0  0  0  0
 39 37  4  0  0  0  0
 40 39  1  0  0  0  0
 41 39  4  0  0  0  0
 42 41  1  0  0  0  0
 43 41  4  0  0  0  0
 44 43  1  0  0  0  0
 45 36  4  0  0  0  0
 46 45  1  0  0  0  0
 47  3  1  0  0  0  0
 48 47  4  0  0  0  0
 49 48  1  0  0  0  0
 50 48  4  0  0  0  0
 51 50  1  0  0  0  0
 52 50  4  0  0  0  0
 53 52  1  0  0  0  0
 54 52  4  0  0  0  0
 55 54  1  0  0  0  0
 56 47  4  0  0  0  0
 57 56  1  0  0  0  0
 58  4  1  0  0  0  0
 59 58  4  0  0  0  0
 60 59  1  0  0  0  0
 61 59  4  0  0  0  0
 62 61  1  0  0  0  0
 63 61  4  0  0  0  0
 64 63  1  0  0  0  0
 65 63  4  0  0  0  0
 66 65  1  0  0  0  0
 67 58  4  0  0  0  0
 68 67  1  0  0  0  0
 69  4  1  0  0  0  0
 70 69  4  0  0  0  0
 71 70  1  0  0  0  0
 72 70  4  0  0  0  0
 73 72  1  0  0  0  0
 74 72  4  0  0  0  0
 75 74  1  0  0  0  0
 76 74  4  0  0  0  0
 77 76  1  0  0  0  0
 78 69  4  0  0  0  0
 79 78  1  0  0  0  0
 80  4  1  0  0  0  0
 81 80  4  0  0  0  0
 82 81  1  0  0  0  0
 83 81  4  0  0  0  0
 84 83  1  0  0  0  0
 85 83  4  0  0  0  0
 86 85  1  0  0  0  0
 87 85  4  0  0  0  0
 88 87  1  0  0  0  0
 89 80  4  0  0  0  0
 90 89  1  0  0  0  0
  6  8  1  0  0  0  0
  6 10  1  0  0  0  0
  6 12  1  0  0  0  0
  8 10  1  0  0  0  0
  8 16  1  0  0  0  0
  8 18  1  0  0  0  0
 10 12  1  0  0  0  0
 12 14  1  0  0  0  0
 12 21  1  0  0  0  0
 14 16  1  0  0  0  0
 14 21  1  0  0  0  0
 16 18  1  0  0  0  0
 16 23  1  0  0  0  0
 18 23  1  0  0  0  0
 21 23  1  0  0  0  0
 32 34  4  0  0  0  0
 43 45  4  0  0  0  0
 54 56  4  0  0  0  0
 65 67  4  0  0  0  0
 76 78  4  0  0  0  0
 87 89  4  0  0  0  0
M  END
$$$$
JEVJOJ

From CSD data. Using bond type 'Any'. No disordered atoms. Largest molecule.
105128  0  0  0  0  0  0  0  0999 V2000
    3.5606   -1.7239   13.3865 Pt  0  0  0  0  0  0  0  0  0  0  0  0
    4.4763   -4.2119   14.0563 Rh  0  0  0  0  0  0  0  0  0  0  0  0
    2.9532   -5.5169   13.0217 P   0  0  0  0  0  0  0  0  0  0  0  0
    4.1650    0.0113   12.0433 P   0  0  0  0  0  0  0  0  0  0  0  0
    2.0630   -0.6353   14.8077 P   0  0  0  0  0  0  0  0  0  0  0  0
    5.1839   -3.2692   11.3681 O   0  0  0  0  0  0  0  0  0  0  0  0
    4.6545   -3.0850   12.4245 C   0  0  0  0  0  0  0  0  0  0  0  0
    3.1354   -3.1688   14.3521 H   0  0  0  0  0  0  0  0  0  0  0  0
    2.7885    0.3862   16.1328 C   0  0  0  0  0  0  0  0  0  0  0  0
    3.8955   -0.3318   16.9133 C   0  0  0  0  0  0  0  0  0  0  0  0
    0.9007    0.4927   13.9728 C   0  0  0  0  0  0  0  0  0  0  0  0
    0.0328   -0.2193   12.9345 C   0  0  0  0  0  0  0  0  0  0  0  0
    0.9716   -1.7905   15.6754 C   0  0  0  0  0  0  0  0  0  0  0  0
   -0.1505   -1.1825   16.5321 C   0  0  0  0  0  0  0  0  0  0  0  0
    2.9788    0.4645   10.7491 C   0  0  0  0  0  0  0  0  0  0  0  0
    2.6101   -0.6875    9.8434 C   0  0  0  0  0  0  0  0  0  0  0  0
    5.6955   -0.2270   11.0686 C   0  0  0  0  0  0  0  0  0  0  0  0
    6.9311   -0.4222   11.9453 C   0  0  0  0  0  0  0  0  0  0  0  0
    4.4213    1.5415   12.9545 C   0  0  0  0  0  0  0  0  0  0  0  0
    4.7083    2.8096   12.1558 C   0  0  0  0  0  0  0  0  0  0  0  0
    3.5716   -6.6325   11.7220 C   0  0  0  0  0  0  0  0  0  0  0  0
    2.6862   -7.4551   11.0141 C   0  0  0  0  0  0  0  0  0  0  0  0
    3.1500   -8.2521    9.9777 C   0  0  0  0  0  0  0  0  0  0  0  0
    4.4878   -8.2081    9.6510 C   0  0  0  0  0  0  0  0  0  0  0  0
    5.3491   -7.3843   10.3153 C   0  0  0  0  0  0  0  0  0  0  0  0
    4.8939   -6.6030   11.3772 C   0  0  0  0  0  0  0  0  0  0  0  0
    2.1018   -6.5945   14.2287 C   0  0  0  0  0  0  0  0  0  0  0  0
    1.3685   -5.9880   15.2361 C   0  0  0  0  0  0  0  0  0  0  0  0
    0.7284   -6.7663   16.1745 C   0  0  0  0  0  0  0  0  0  0  0  0
    0.8424   -8.1513   16.1654 C   0  0  0  0  0  0  0  0  0  0  0  0
    1.6022   -8.7418   15.1871 C   0  0  0  0  0  0  0  0  0  0  0  0
    2.2219   -7.9742   14.2069 C   0  0  0  0  0  0  0  0  0  0  0  0
    1.6102   -4.6824   12.0869 C   0  0  0  0  0  0  0  0  0  0  0  0
    1.8998   -4.2918   10.7764 C   0  0  0  0  0  0  0  0  0  0  0  0
    0.9230   -3.6832   10.0194 C   0  0  0  0  0  0  0  0  0  0  0  0
   -0.3402   -3.4788   10.5041 C   0  0  0  0  0  0  0  0  0  0  0  0
   -0.6344   -3.8465   11.8200 C   0  0  0  0  0  0  0  0  0  0  0  0
    0.3488   -4.4661   12.5915 C   0  0  0  0  0  0  0  0  0  0  0  0
    4.7883   -5.2752   16.1092 C   0  0  0  0  0  0  0  0  0  0  0  0
    5.2321   -3.7666   16.1781 C   0  0  0  0  0  0  0  0  0  0  0  0
    6.3630   -3.3485   14.9148 B   0  0  0  0  0  0  0  0  0  0  0  0
    6.6934   -4.8799   14.0254 B   0  0  0  0  0  0  0  0  0  0  0  0
    5.5666   -6.0403   14.7224 B   0  0  0  0  0  0  0  0  0  0  0  0
    6.8482   -3.5985   16.6301 B   0  0  0  0  0  0  0  0  0  0  0  0
    7.8129   -4.3448   15.3250 B   0  0  0  0  0  0  0  0  0  0  0  0
    7.2792   -6.0190   15.1907 B   0  0  0  0  0  0  0  0  0  0  0  0
    6.0602   -6.3158   16.4468 B   0  0  0  0  0  0  0  0  0  0  0  0
    5.8700   -4.8472   17.3888 B   0  0  0  0  0  0  0  0  0  0  0  0
    7.3892   -5.2650   16.7717 B   0  0  0  0  0  0  0  0  0  0  0  0
    2.0918    0.6295   16.7463 H   0  0  0  0  0  0  0  0  0  0  0  0
    3.1592    1.1786   15.7389 H   0  0  0  0  0  0  0  0  0  0  0  0
    4.2362    0.2532   17.5939 H   0  0  0  0  0  0  0  0  0  0  0  0
    4.6060   -0.5744   16.3143 H   0  0  0  0  0  0  0  0  0  0  0  0
    3.5376   -1.1235   17.3217 H   0  0  0  0  0  0  0  0  0  0  0  0
    1.4030    1.1815   13.5317 H   0  0  0  0  0  0  0  0  0  0  0  0
    0.3279    0.8882   14.6335 H   0  0  0  0  0  0  0  0  0  0  0  0
   -0.5592    0.4143   12.5243 H   0  0  0  0  0  0  0  0  0  0  0  0
   -0.4803   -0.9075   13.3647 H   0  0  0  0  0  0  0  0  0  0  0  0
    0.5954   -0.6131   12.2629 H   0  0  0  0  0  0  0  0  0  0  0  0
    1.5187   -2.3274   16.2544 H   0  0  0  0  0  0  0  0  0  0  0  0
    0.5603   -2.3515   15.0128 H   0  0  0  0  0  0  0  0  0  0  0  0
   -0.6583   -1.8881   16.9387 H   0  0  0  0  0  0  0  0  0  0  0  0
   -0.7263   -0.6535   15.9767 H   0  0  0  0  0  0  0  0  0  0  0  0
    0.2332   -0.6290   17.2164 H   0  0  0  0  0  0  0  0  0  0  0  0
    3.3661    1.1602   10.2118 H   0  0  0  0  0  0  0  0  0  0  0  0
    2.1802    0.7918   11.1684 H   0  0  0  0  0  0  0  0  0  0  0  0
    1.9822   -0.3841    9.1827 H   0  0  0  0  0  0  0  0  0  0  0  0
    2.2113   -1.3887   10.3643 H   0  0  0  0  0  0  0  0  0  0  0  0
    3.3972   -1.0204    9.4078 H   0  0  0  0  0  0  0  0  0  0  0  0
    5.8301    0.5453   10.5168 H   0  0  0  0  0  0  0  0  0  0  0  0
    5.5882   -1.0032   10.5150 H   0  0  0  0  0  0  0  0  0  0  0  0
    7.7031   -0.5420   11.3880 H   0  0  0  0  0  0  0  0  0  0  0  0
    6.8128   -1.1971   12.4989 H   0  0  0  0  0  0  0  0  0  0  0  0
    7.0548    0.3514   12.5007 H   0  0  0  0  0  0  0  0  0  0  0  0
    5.1649    1.4015   13.5444 H   0  0  0  0  0  0  0  0  0  0  0  0
    3.6285    1.7018   13.4718 H   0  0  0  0  0  0  0  0  0  0  0  0
    4.8247    3.5472   12.7585 H   0  0  0  0  0  0  0  0  0  0  0  0
    3.9723    2.9893   11.5677 H   0  0  0  0  0  0  0  0  0  0  0  0
    5.5088    2.6894   11.6385 H   0  0  0  0  0  0  0  0  0  0  0  0
    1.7543   -7.4672   11.2465 H   0  0  0  0  0  0  0  0  0  0  0  0
    2.5493   -8.8249    9.4949 H   0  0  0  0  0  0  0  0  0  0  0  0
    4.8186   -8.7667    8.9449 H   0  0  0  0  0  0  0  0  0  0  0  0
    6.2707   -7.3413   10.0485 H   0  0  0  0  0  0  0  0  0  0  0  0
    5.5067   -6.0485   11.8654 H   0  0  0  0  0  0  0  0  0  0  0  0
    1.3076   -5.0313   15.2797 H   0  0  0  0  0  0  0  0  0  0  0  0
    0.1919   -6.3428   16.8497 H   0  0  0  0  0  0  0  0  0  0  0  0
    0.3978   -8.6846   16.8280 H   0  0  0  0  0  0  0  0  0  0  0  0
    1.7091   -9.6947   15.1798 H   0  0  0  0  0  0  0  0  0  0  0  0
    2.7301   -8.4017   13.5135 H   0  0  0  0  0  0  0  0  0  0  0  0
    2.7715   -4.4463   10.4061 H   0  0  0  0  0  0  0  0  0  0  0  0
    1.1333   -3.3962    9.1264 H   0  0  0  0  0  0  0  0  0  0  0  0
   -1.0153   -3.0879    9.9468 H   0  0  0  0  0  0  0  0  0  0  0  0
   -1.5037   -3.6725   12.1885 H   0  0  0  0  0  0  0  0  0  0  0  0
    0.1398   -4.7489   13.4845 H   0  0  0  0  0  0  0  0  0  0  0  0
    3.8961   -5.5355   16.3615 H   0  0  0  0  0  0  0  0  0  0  0  0
    4.6045   -3.1056   16.4758 H   0  0  0  0  0  0  0  0  0  0  0  0
    6.4339   -2.3760   14.4084 H   0  0  0  0  0  0  0  0  0  0  0  0
    6.9801   -4.9030   12.9636 H   0  0  0  0  0  0  0  0  0  0  0  0
    5.1218   -6.8215   14.0908 H   0  0  0  0  0  0  0  0  0  0  0  0
    7.2400   -2.7782   17.2491 H   0  0  0  0  0  0  0  0  0  0  0  0
    8.8338   -4.0172   15.0873 H   0  0  0  0  0  0  0  0  0  0  0  0
    7.9693   -6.8044   14.8531 H   0  0  0  0  0  0  0  0  0  0  0  0
    5.9360   -7.2897   16.9459 H   0  0  0  0  0  0  0  0  0  0  0  0
    5.6297   -4.8468   18.4616 H   0  0  0  0  0  0  0  0  0  0  0  0
    8.1558   -5.5501   17.5032 H   0  0  0  0  0  0  0  0  0  0  0  0
  1  2  1  0  0  0  0
  2  3  1  0  0  0  0
  3 21  1  0  0  0  0
  4  1  1  0  0  0  0
  5  1  1  0  0  0  0
  6  7  2  0  0  0  0
  7  1  1  0  0  0  0
  8  1  1  0  0  0  0
  9  5  1  0  0  0  0
 10  9  1  0  0  0  0
 11  5  1  0  0  0  0
 12 11  1  0  0  0  0
 13  5  1  0  0  0  0
 14 13  1  0  0  0  0
 15  4  1  0  0  0  0
 16 15  1  0  0  0  0
 17  4  1  0  0  0  0
 18 17  1  0  0  0  0
 19  4  1  0  0  0  0
 20 19  1  0  0  0  0
 21 22  4  0  0  0  0
 22 23  4  0  0  0  0
 23 24  4  0  0  0  0
 24 25  4  0  0  0  0
 25 26  4  0  0  0  0
 26 21  4  0  0  0  0
 27  3  1  0  0  0  0
 28 27  4  0  0  0  0
 29 28  4  0  0  0  0
 30 29  4  0  0  0  0
 31 30  4  0  0  0  0
 32 27  4  0  0  0  0
 33  3  1  0  0  0  0
 34 33  4  0  0  0  0
 35 34  4  0  0  0  0
 36 35  4  0  0  0  0
 37 36  4  0  0  0  0
 38 33  4  0  0  0  0
 39  2  1  0  0  0  0
 40  2  1  0  0  0  0
 41  2  1  0  0  0  0
 42  2  1  0  0  0  0
 43  2  1  0  0  0  0
 44 40  1  0  0  0  0
 45 41  1  0  0  0  0
 46 42  1  0  0  0  0
 47 39  1  0  0  0  0
 48 39  1  0  0  0  0
 49 44  1  0  0  0  0
 50  9  1  0  0  0  0
 51  9  1  0  0  0  0
 52 10  1  0  0  0  0
 53 10  1  0  0  0  0
 54 10  1  0  0  0  0
 55 11  1  0  0  0  0
 56 11  1  0  0  0  0
 57 12  1  0  0  0  0
 58 12  1  0  0  0  0
 59 12  1  0  0  0  0
 60 13  1  0  0  0  0
 61 13  1  0  0  0  0
 62 14  1  0  0  0  0
 63 14  1  0  0  0  0
 64 14  1  0  0  0  0
 65 15  1  0  0  0  0
 66 15  1  0  0  0  0
 67 16  1  0  0  0  0
 68 16  1  0  0  0  0
 69 16  1  0  0  0  0
 70 17  1  0  0  0  0
 71 17  1  0  0  0  0
 72 18  1  0  0  0  0
 73 18  1  0  0  0  0
 74 18  1  0  0  0  0
 75 19  1  0  0  0  0
 76 19  1  0  0  0  0
 77 20  1  0  0  0  0
 78 20  1  0  0  0  0
 79 20  1  0  0  0  0
 80 22  1  0  0  0  0
 81 23  1  0  0  0  0
 82 24  1  0  0  0  0
 83 25  1  0  0  0  0
 84 26  1  0  0  0  0
 85 28  1  0  0  0  0
 86 29  1  0  0  0  0
 87 30  1  0  0  0  0
 88 31  1  0  0  0  0
 89 32  1  0  0  0  0
 90 34  1  0  0  0  0
 91 35  1  0  0  0  0
 92 36  1  0  0  0  0
 93 37  1  0  0  0  0
 94 38  1  0  0  0  0
 95 39  1  0  0  0  0
 96 40  1  0  0  0  0
 97 41  1  0  0  0  0
 98 42  1  0  0  0  0
 99 43  1  0  0  0  0
100 44  1  0  0  0  0
101 45  1  0  0  0  0
102 46  1  0  0  0  0
103 47  1  0  0  0  0
104 48  1  0  0  0  0
105 49  1  0  0  0  0
  2  7  1  0  0  0  0
  2  8  1  0  0  0  0
 31 32  4  0  0  0  0
 37 38  4  0  0  0  0
 39 40  1  0  0  0  0
 39 43  1  0  0  0  0
 40 41  1  0  0  0  0
 40 48  1  0  0  0  0
 41 42  1  0  0  0  0
 41 44  1  0  0  0  0
 42 43  1  0  0  0  0
 42 45  1  0  0  0  0
 43 46  1  0  0  0  0
 43 47  1  0  0  0  0
 44 45  1  0  0  0  0
 44 48  1  0  0  0  0
 45 46  1  0  0  0  0
 45 49  1  0  0  0  0
 46 47  1  0  0  0  0
 46 49  1  0  0  0  0
 47 48  1  0  0  0  0
 47 49  1  0  0  0  0
 48 49  1  0  0  0  0
M  END
$$$$
JEVJUP

From CSD data. Using bond type 'Any'. No disordered atoms. Largest molecule.
112137  0  0  0  0  0  0  0  0999 V2000
    2.8658    2.2291    2.5776 Pt  0  0  0  0  0  0  0  0  0  0  0  0
    2.3885    0.4886    4.6677 Rh  0  0  0  0  0  0  0  0  0  0  0  0
    0.1478    0.5382    5.1567 P   0  0  0  0  0  0  0  0  0  0  0  0
    3.2768    3.3186    0.6849 P   0  0  0  0  0  0  0  0  0  0  0  0
    2.6830    1.8638    5.8616 C   0  0  0  0  0  0  0  0  0  0  0  0
    2.8667    2.7246    6.6021 O   0  0  0  0  0  0  0  0  0  0  0  0
    2.7055    4.0400    3.4938 C   0  0  0  0  0  0  0  0  0  0  0  0
    1.5026    4.6057    3.6959 C   0  0  0  0  0  0  0  0  0  0  0  0
    2.1883    4.6995    0.2622 C   0  0  0  0  0  0  0  0  0  0  0  0
    0.7516    4.2663   -0.0077 C   0  0  0  0  0  0  0  0  0  0  0  0
    4.9502    4.0473    0.6371 C   0  0  0  0  0  0  0  0  0  0  0  0
    6.0237    3.0353    0.9194 C   0  0  0  0  0  0  0  0  0  0  0  0
    3.2164    2.1922   -0.7373 C   0  0  0  0  0  0  0  0  0  0  0  0
    3.4633    2.8337   -2.1102 C   0  0  0  0  0  0  0  0  0  0  0  0
    4.1695    6.0668    3.6774 C   0  0  0  0  0  0  0  0  0  0  0  0
    5.3733    6.6889    4.0106 C   0  0  0  0  0  0  0  0  0  0  0  0
    6.4119    5.9441    4.5690 C   0  0  0  0  0  0  0  0  0  0  0  0
    6.2459    4.5775    4.7957 C   0  0  0  0  0  0  0  0  0  0  0  0
    5.0426    3.9557    4.4641 C   0  0  0  0  0  0  0  0  0  0  0  0
    4.0035    4.7002    3.9042 C   0  0  0  0  0  0  0  0  0  0  0  0
    7.6864    6.6226    5.0210 C   0  0  0  0  0  0  0  0  0  0  0  0
    0.2961    6.7616    4.0399 C   0  0  0  0  0  0  0  0  0  0  0  0
   -0.0333    7.8741    4.8143 C   0  0  0  0  0  0  0  0  0  0  0  0
    0.5275    8.0312    6.0822 C   0  0  0  0  0  0  0  0  0  0  0  0
    1.4172    7.0755    6.5743 C   0  0  0  0  0  0  0  0  0  0  0  0
    1.7465    5.9631    5.7999 C   0  0  0  0  0  0  0  0  0  0  0  0
    1.1857    5.8059    4.5320 C   0  0  0  0  0  0  0  0  0  0  0  0
    0.2090    9.2795    6.8951 C   0  0  0  0  0  0  0  0  0  0  0  0
   -0.4186    3.0444    6.1393 C   0  0  0  0  0  0  0  0  0  0  0  0
   -1.0224    3.9779    6.9815 C   0  0  0  0  0  0  0  0  0  0  0  0
   -1.7317    3.5470    8.1029 C   0  0  0  0  0  0  0  0  0  0  0  0
   -1.8353    2.1839    8.3821 C   0  0  0  0  0  0  0  0  0  0  0  0
   -1.2310    1.2517    7.5399 C   0  0  0  0  0  0  0  0  0  0  0  0
   -0.5222    1.6813    6.4185 C   0  0  0  0  0  0  0  0  0  0  0  0
    0.2286   -1.5023    7.0340 C   0  0  0  0  0  0  0  0  0  0  0  0
   -0.0005   -2.7944    7.5106 C   0  0  0  0  0  0  0  0  0  0  0  0
   -0.7322   -3.7009    6.7440 C   0  0  0  0  0  0  0  0  0  0  0  0
   -1.2352   -3.3164    5.5007 C   0  0  0  0  0  0  0  0  0  0  0  0
   -1.0053   -2.0256    5.0240 C   0  0  0  0  0  0  0  0  0  0  0  0
   -0.2748   -1.1192    5.7907 C   0  0  0  0  0  0  0  0  0  0  0  0
   -0.6472    1.0414    2.5113 C   0  0  0  0  0  0  0  0  0  0  0  0
   -1.5951    1.2116    1.5024 C   0  0  0  0  0  0  0  0  0  0  0  0
   -2.9548    1.1534    1.8079 C   0  0  0  0  0  0  0  0  0  0  0  0
   -3.3663    0.9235    3.1206 C   0  0  0  0  0  0  0  0  0  0  0  0
   -2.4189    0.7520    4.1294 C   0  0  0  0  0  0  0  0  0  0  0  0
   -1.0587    0.8105    3.8255 C   0  0  0  0  0  0  0  0  0  0  0  0
    2.6985   -1.8328    4.7032 C   0  0  0  0  0  0  0  0  0  0  0  0
    4.0201   -1.1282    5.1104 C   0  0  0  0  0  0  0  0  0  0  0  0
    4.4934    0.0794    3.9782 B   0  0  0  0  0  0  0  0  0  0  0  0
    3.2668   -0.0291    2.6655 B   0  0  0  0  0  0  0  0  0  0  0  0
    2.0293   -1.2188    3.2224 B   0  0  0  0  0  0  0  0  0  0  0  0
    3.3067   -1.6806    2.0300 B   0  0  0  0  0  0  0  0  0  0  0  0
    2.8640   -2.7991    3.3458 B   0  0  0  0  0  0  0  0  0  0  0  0
    4.1461   -2.7526    4.5690 B   0  0  0  0  0  0  0  0  0  0  0  0
    5.2914   -1.5325    4.0723 B   0  0  0  0  0  0  0  0  0  0  0  0
    4.8076   -0.8803    2.4804 B   0  0  0  0  0  0  0  0  0  0  0  0
    4.5637   -2.6140    2.8799 B   0  0  0  0  0  0  0  0  0  0  0  0
    0.9738    4.1362    3.2470 H   0  0  0  0  0  0  0  0  0  0  0  0
    2.5310    5.1274   -0.5260 H   0  0  0  0  0  0  0  0  0  0  0  0
    2.1865    5.3218    0.9919 H   0  0  0  0  0  0  0  0  0  0  0  0
    0.2231    5.0374   -0.2268 H   0  0  0  0  0  0  0  0  0  0  0  0
    0.3914    3.8437    0.7744 H   0  0  0  0  0  0  0  0  0  0  0  0
    0.7359    3.6483   -0.7420 H   0  0  0  0  0  0  0  0  0  0  0  0
    5.0017    4.7444    1.2957 H   0  0  0  0  0  0  0  0  0  0  0  0
    5.0995    4.4196   -0.2360 H   0  0  0  0  0  0  0  0  0  0  0  0
    6.8834    3.4615    0.8839 H   0  0  0  0  0  0  0  0  0  0  0  0
    5.9862    2.3359    0.2622 H   0  0  0  0  0  0  0  0  0  0  0  0
    5.8878    2.6603    1.7924 H   0  0  0  0  0  0  0  0  0  0  0  0
    2.3468    1.7850   -0.7543 H   0  0  0  0  0  0  0  0  0  0  0  0
    3.8844    1.5147   -0.6062 H   0  0  0  0  0  0  0  0  0  0  0  0
    4.3356    3.2367   -2.1241 H   0  0  0  0  0  0  0  0  0  0  0  0
    2.7975    3.5057   -2.2722 H   0  0  0  0  0  0  0  0  0  0  0  0
    3.4551    6.5802    3.2933 H   0  0  0  0  0  0  0  0  0  0  0  0
    5.4868    7.6287    3.8533 H   0  0  0  0  0  0  0  0  0  0  0  0
    6.9613    4.0657    5.1814 H   0  0  0  0  0  0  0  0  0  0  0  0
    4.9298    3.0156    4.6199 H   0  0  0  0  0  0  0  0  0  0  0  0
    7.6494    7.5542    4.7957 H   0  0  0  0  0  0  0  0  0  0  0  0
    8.4376    6.2165    4.5829 H   0  0  0  0  0  0  0  0  0  0  0  0
    7.7802    6.5259    5.9712 H   0  0  0  0  0  0  0  0  0  0  0  0
   -0.0905    6.6522    3.1668 H   0  0  0  0  0  0  0  0  0  0  0  0
   -0.6451    8.5313    4.4749 H   0  0  0  0  0  0  0  0  0  0  0  0
    1.8037    7.1850    7.4474 H   0  0  0  0  0  0  0  0  0  0  0  0
    2.3584    5.3058    6.1393 H   0  0  0  0  0  0  0  0  0  0  0  0
    0.6676    9.2389    7.7374 H   0  0  0  0  0  0  0  0  0  0  0  0
   -0.7377    9.3251    7.0494 H   0  0  0  0  0  0  0  0  0  0  0  0
    0.4919   10.0581    6.4123 H   0  0  0  0  0  0  0  0  0  0  0  0
    0.0694    3.3403    5.3665 H   0  0  0  0  0  0  0  0  0  0  0  0
   -0.9523    4.9153    6.7887 H   0  0  0  0  0  0  0  0  0  0  0  0
   -2.1477    4.1898    8.6829 H   0  0  0  0  0  0  0  0  0  0  0  0
   -2.3232    1.8880    9.1550 H   0  0  0  0  0  0  0  0  0  0  0  0
   -1.3011    0.3144    7.7327 H   0  0  0  0  0  0  0  0  0  0  0  0
    0.7322   -0.8789    7.5615 H   0  0  0  0  0  0  0  0  0  0  0  0
    0.3456   -3.0576    8.3667 H   0  0  0  0  0  0  0  0  0  0  0  0
   -0.8902   -4.5887    7.0725 H   0  0  0  0  0  0  0  0  0  0  0  0
   -1.7381   -3.9411    4.9731 H   0  0  0  0  0  0  0  0  0  0  0  0
   -1.3521   -1.7611    4.1679 H   0  0  0  0  0  0  0  0  0  0  0  0
    0.2896    1.0823    2.3030 H   0  0  0  0  0  0  0  0  0  0  0  0
   -1.3112    1.3704    0.6000 H   0  0  0  0  0  0  0  0  0  0  0  0
   -3.6076    1.2714    1.1137 H   0  0  0  0  0  0  0  0  0  0  0  0
   -4.3030    0.8827    3.3288 H   0  0  0  0  0  0  0  0  0  0  0  0
   -2.7027    0.5932    5.0318 H   0  0  0  0  0  0  0  0  0  0  0  0
    2.0767   -2.1158    5.3773 H   0  0  0  0  0  0  0  0  0  0  0  0
    4.2202   -0.9744    6.0344 H   0  0  0  0  0  0  0  0  0  0  0  0
    5.0121    1.0197    4.2127 H   0  0  0  0  0  0  0  0  0  0  0  0
    3.0694    0.7218    1.5934 H   0  0  0  0  0  0  0  0  0  0  0  0
    0.9643   -1.1201    2.9694 H   0  0  0  0  0  0  0  0  0  0  0  0
    3.0510   -1.8832    0.9795 H   0  0  0  0  0  0  0  0  0  0  0  0
    2.3163   -3.7372    3.1637 H   0  0  0  0  0  0  0  0  0  0  0  0
    4.4335   -3.6257    5.1721 H   0  0  0  0  0  0  0  0  0  0  0  0
    6.3440   -1.6337    4.3746 H   0  0  0  0  0  0  0  0  0  0  0  0
    5.5411   -0.5528    1.7307 H   0  0  0  0  0  0  0  0  0  0  0  0
    5.1328   -3.4214    2.3971 H   0  0  0  0  0  0  0  0  0  0  0  0
  1  2  1  0  0  0  0
  2  3  1  0  0  0  0
  3 34  1  0  0  0  0
  4  1  1  0  0  0  0
  5  2  1  0  0  0  0
  6  5  3  0  0  0  0
  7  1  1  0  0  0  0
  8  7  2  0  0  0  0
  9  4  1  0  0  0  0
 10  9  1  0  0  0  0
 11  4  1  0  0  0  0
 12 11  1  0  0  0  0
 13  4  1  0  0  0  0
 14 13  1  0  0  0  0
 15 16  4  0  0  0  0
 16 17  4  0  0  0  0
 17 18  4  0  0  0  0
 18 19  4  0  0  0  0
 19 20  4  0  0  0  0
 20  7  1  0  0  0  0
 21 17  1  0  0  0  0
 22 23  4  0  0  0  0
 23 24  4  0  0  0  0
 24 25  4  0  0  0  0
 25 26  4  0  0  0  0
 26 27  4  0  0  0  0
 27  8  1  0  0  0  0
 28 24  1  0  0  0  0
 29 30  4  0  0  0  0
 30 31  4  0  0  0  0
 31 32  4  0  0  0  0
 32 33  4  0  0  0  0
 33 34  4  0  0  0  0
 34 29  4  0  0  0  0
 35 36  4  0  0  0  0
 36 37  4  0  0  0  0
 37 38  4  0  0  0  0
 38 39  4  0  0  0  0
 39 40  4  0  0  0  0
 40  3  1  0  0  0  0
 41 42  4  0  0  0  0
 42 43  4  0  0  0  0
 43 44  4  0  0  0  0
 44 45  4  0  0  0  0
 45 46  4  0  0  0  0
 46  3  1  0  0  0  0
 47  2  1  0  0  0  0
 48  2  1  0  0  0  0
 49  2  1  0  0  0  0
 50  1  1  0  0  0  0
 51  2  1  0  0  0  0
 52 50  1  0  0  0  0
 53 47  1  0  0  0  0
 54 47  1  0  0  0  0
 55 48  1  0  0  0  0
 56 49  1  0  0  0  0
 57 52  1  0  0  0  0
 58  8  1  0  0  0  0
 59  9  1  0  0  0  0
 60  9  1  0  0  0  0
 61 10  1  0  0  0  0
 62 10  1  0  0  0  0
 63 10  1  0  0  0  0
 64 11  1  0  0  0  0
 65 11  1  0  0  0  0
 66 12  1  0  0  0  0
 67 12  1  0  0  0  0
 68 12  1  0  0  0  0
 69 13  1  0  0  0  0
 70 13  1  0  0  0  0
 71 14  1  0  0  0  0
 72 14  1  0  0  0  0
 73 15  1  0  0  0  0
 74 16  1  0  0  0  0
 75 18  1  0  0  0  0
 76 19  1  0  0  0  0
 77 21  1  0  0  0  0
 78 21  1  0  0  0  0
 79 21  1  0  0  0  0
 80 22  1  0  0  0  0
 81 23  1  0  0  0  0
 82 25  1  0  0  0  0
 83 26  1  0  0  0  0
 84 28  1  0  0  0  0
 85 28  1  0  0  0  0
 86 28  1  0  0  0  0
 87 29  1  0  0  0  0
 88 30  1  0  0  0  0
 89 31  1  0  0  0  0
 90 32  1  0  0  0  0
 91 33  1  0  0  0  0
 92 35  1  0  0  0  0
 93 36  1  0  0  0  0
 94 37  1  0  0  0  0
 95 38  1  0  0  0  0
 96 39  1  0  0  0  0
 97 41  1  0  0  0  0
 98 42  1  0  0  0  0
 99 43  1  0  0  0  0
100 44  1  0  0  0  0
101 45  1  0  0  0  0
102 47  1  0  0  0  0
103 48  1  0  0  0  0
104 49  1  0  0  0  0
105  1  1  0  0  0  0
106 51  1  0  0  0  0
107 52  1  0  0  0  0
108 53  1  0  0  0  0
109 54  1  0  0  0  0
110 55  1  0  0  0  0
111 56  1  0  0  0  0
112 57  1  0  0  0  0
  2 50  1  0  0  0  0
 15 20  4  0  0  0  0
 22 27  4  0  0  0  0
 35 40  4  0  0  0  0
 41 46  4  0  0  0  0
 47 48  1  0  0  0  0
 47 51  1  0  0  0  0
 48 49  1  0  0  0  0
 48 54  1  0  0  0  0
 49 50  1  0  0  0  0
 49 55  1  0  0  0  0
 50 51  1  0  0  0  0
 50 56  1  0  0  0  0
 50105  1  0  0  0  0
 51 52  1  0  0  0  0
 51 53  1  0  0  0  0
 52 53  1  0  0  0  0
 52 56  1  0  0  0  0
 53 54  1  0  0  0  0
 53 57  1  0  0  0  0
 54 55  1  0  0  0  0
 54 57  1  0  0  0  0
 55 56  1  0  0  0  0
 55 57  1  0  0  0  0
 56 57  1  0  0  0  0
M  END
$$$$
JEVWIT

From CSD data. Using bond type 'Any'. No disordered atoms. Largest molecule.
103125  0  0  0  0  0  0  0  0999 V2000
   -0.3994    9.6043   10.6616 C   0  0  0  0  0  0  0  0  0  0  0  0
   -0.3303   11.2530   10.9454 C   0  0  0  0  0  0  0  0  0  0  0  0
   -0.0759    6.6890    8.4995 C   0  0  0  0  0  0  0  0  0  0  0  0
    0.1282    6.2117    7.6563 H   0  0  0  0  0  0  0  0  0  0  0  0
   -0.9612    6.3890    8.8232 H   0  0  0  0  0  0  0  0  0  0  0  0
    0.9541    6.3994    9.5033 C   0  0  0  0  0  0  0  0  0  0  0  0
    0.5623    5.8442   10.2237 H   0  0  0  0  0  0  0  0  0  0  0  0
    1.6867    5.8841    9.0835 H   0  0  0  0  0  0  0  0  0  0  0  0
   -0.4944    8.6883    6.9636 C   0  0  0  0  0  0  0  0  0  0  0  0
   -0.4253    9.6847    7.0211 H   0  0  0  0  0  0  0  0  0  0  0  0
    0.4382    8.2271    5.8611 C   0  0  0  0  0  0  0  0  0  0  0  0
    1.3571    8.4872    6.0807 H   0  0  0  0  0  0  0  0  0  0  0  0
    0.1741    8.6425    5.0141 H   0  0  0  0  0  0  0  0  0  0  0  0
    0.3863    7.2517    5.7768 H   0  0  0  0  0  0  0  0  0  0  0  0
   -1.9229    8.3499    6.6633 C   0  0  0  0  0  0  0  0  0  0  0  0
   -2.0351    7.3769    6.6621 H   0  0  0  0  0  0  0  0  0  0  0  0
   -2.1665    8.7089    5.7848 H   0  0  0  0  0  0  0  0  0  0  0  0
   -2.5029    8.7445    7.3490 H   0  0  0  0  0  0  0  0  0  0  0  0
    2.7994    7.6467   10.7581 C   0  0  0  0  0  0  0  0  0  0  0  0
    3.0153    8.5998   10.9675 H   0  0  0  0  0  0  0  0  0  0  0  0
    2.7380    6.8911   12.0732 C   0  0  0  0  0  0  0  0  0  0  0  0
    2.0473    7.2870   12.6456 H   0  0  0  0  0  0  0  0  0  0  0  0
    3.6062    6.9465   12.5237 H   0  0  0  0  0  0  0  0  0  0  0  0
    2.5188    5.9512   11.9009 H   0  0  0  0  0  0  0  0  0  0  0  0
    3.8993    7.1133    9.8530 C   0  0  0  0  0  0  0  0  0  0  0  0
    3.7872    6.1471    9.7382 H   0  0  0  0  0  0  0  0  0  0  0  0
    4.7720    7.2962   10.2586 H   0  0  0  0  0  0  0  0  0  0  0  0
    3.8448    7.5554    8.9803 H   0  0  0  0  0  0  0  0  0  0  0  0
    0.2727   14.7110    9.9312 C   0  0  0  0  0  0  0  0  0  0  0  0
   -0.6053   15.0343   10.2538 H   0  0  0  0  0  0  0  0  0  0  0  0
    0.6449   15.3883    9.3129 H   0  0  0  0  0  0  0  0  0  0  0  0
    1.1808   14.5259   11.0680 C   0  0  0  0  0  0  0  0  0  0  0  0
    0.6909   14.6770   11.9151 H   0  0  0  0  0  0  0  0  0  0  0  0
    1.9191   15.1832   11.0166 H   0  0  0  0  0  0  0  0  0  0  0  0
   -0.3512   13.4075    7.8234 C   0  0  0  0  0  0  0  0  0  0  0  0
   -0.3581   12.4492    7.5369 H   0  0  0  0  0  0  0  0  0  0  0  0
   -1.7860   13.9218    7.7206 C   0  0  0  0  0  0  0  0  0  0  0  0
   -2.3633   13.4021    8.3182 H   0  0  0  0  0  0  0  0  0  0  0  0
   -2.1018   13.8253    6.7971 H   0  0  0  0  0  0  0  0  0  0  0  0
   -1.8142   14.8663    7.9781 H   0  0  0  0  0  0  0  0  0  0  0  0
    0.6156   14.1471    6.9047 C   0  0  0  0  0  0  0  0  0  0  0  0
    0.6418   15.0948    7.1529 H   0  0  0  0  0  0  0  0  0  0  0  0
    0.3132   14.0615    5.9759 H   0  0  0  0  0  0  0  0  0  0  0  0
    1.5114   13.7609    6.9931 H   0  0  0  0  0  0  0  0  0  0  0  0
    3.0856   12.8669   11.5398 C   0  0  0  0  0  0  0  0  0  0  0  0
    3.2384   11.8879   11.4096 H   0  0  0  0  0  0  0  0  0  0  0  0
    3.1754   13.1422   13.0400 C   0  0  0  0  0  0  0  0  0  0  0  0
    2.9796   14.0869   13.2121 H   0  0  0  0  0  0  0  0  0  0  0  0
    4.0775   12.9317   13.3580 H   0  0  0  0  0  0  0  0  0  0  0  0
    2.5235   12.5830   13.5143 H   0  0  0  0  0  0  0  0  0  0  0  0
    4.1381   13.5940   10.7334 C   0  0  0  0  0  0  0  0  0  0  0  0
    3.9955   13.4219    9.7793 H   0  0  0  0  0  0  0  0  0  0  0  0
    5.0270   13.2760   10.9941 H   0  0  0  0  0  0  0  0  0  0  0  0
    4.0727   14.5575   10.9043 H   0  0  0  0  0  0  0  0  0  0  0  0
    3.6042   10.7603    7.2969 C   0  0  0  0  0  0  0  0  0  0  0  0
    3.4622   10.9235    5.8652 C   0  0  0  0  0  0  0  0  0  0  0  0
    2.2229   11.1037    5.2879 C   0  0  0  0  0  0  0  0  0  0  0  0
    1.4574   11.1687    5.8483 H   0  0  0  0  0  0  0  0  0  0  0  0
    2.0597   11.1949    3.9124 C   0  0  0  0  0  0  0  0  0  0  0  0
    1.1960   11.3410    3.5460 H   0  0  0  0  0  0  0  0  0  0  0  0
    3.1617   11.0701    3.0690 C   0  0  0  0  0  0  0  0  0  0  0  0
    3.0535   11.0998    2.1254 H   0  0  0  0  0  0  0  0  0  0  0  0
    4.4232   10.9041    3.6313 C   0  0  0  0  0  0  0  0  0  0  0  0
    5.1843   10.8509    3.0647 H   0  0  0  0  0  0  0  0  0  0  0  0
    4.5891   10.8129    5.0067 C   0  0  0  0  0  0  0  0  0  0  0  0
    5.4545   10.6767    5.3732 H   0  0  0  0  0  0  0  0  0  0  0  0
    4.9647   10.3873    7.7727 C   0  0  0  0  0  0  0  0  0  0  0  0
    6.9313   11.0557    8.8945 C   0  0  0  0  0  0  0  0  0  0  0  0
    6.8981   10.1626    9.3216 H   0  0  0  0  0  0  0  0  0  0  0  0
    7.1517   11.7224    9.5916 H   0  0  0  0  0  0  0  0  0  0  0  0
    7.9848   11.0658    7.8426 C   0  0  0  0  0  0  0  0  0  0  0  0
    7.7639   10.4057    7.1530 H   0  0  0  0  0  0  0  0  0  0  0  0
    8.8497   10.8417    8.2449 H   0  0  0  0  0  0  0  0  0  0  0  0
    8.0332   11.9571    7.4385 H   0  0  0  0  0  0  0  0  0  0  0  0
   -1.6452   10.6135   10.0573 B   0  0  0  0  0  0  0  0  0  0  0  0
   -1.8199   10.8142    8.9695 H   0  0  0  0  0  0  0  0  0  0  0  0
    0.3000   10.1675   12.1157 B   0  0  0  0  0  0  0  0  0  0  0  0
    1.3886   10.0809   12.3641 H   0  0  0  0  0  0  0  0  0  0  0  0
   -1.9954    9.0243   10.8006 B   0  0  0  0  0  0  0  0  0  0  0  0
   -2.4237    8.1771   10.2069 H   0  0  0  0  0  0  0  0  0  0  0  0
   -0.7878    8.7566   12.0855 B   0  0  0  0  0  0  0  0  0  0  0  0
   -0.4211    7.7294   12.3385 H   0  0  0  0  0  0  0  0  0  0  0  0
   -2.9616   10.4524   11.2394 B   0  0  0  0  0  0  0  0  0  0  0  0
   -4.0364   10.5485   10.9373 H   0  0  0  0  0  0  0  0  0  0  0  0
   -0.9949    9.9960   13.3225 B   0  0  0  0  0  0  0  0  0  0  0  0
   -0.7678    9.7907   14.4004 H   0  0  0  0  0  0  0  0  0  0  0  0
   -2.4164    9.3053   12.5052 B   0  0  0  0  0  0  0  0  0  0  0  0
   -3.1386    8.6432   13.0491 H   0  0  0  0  0  0  0  0  0  0  0  0
   -2.3586   11.0456   12.8124 B   0  0  0  0  0  0  0  0  0  0  0  0
   -3.0413   11.5290   13.5571 H   0  0  0  0  0  0  0  0  0  0  0  0
   -1.8867   11.8684   11.3080 B   0  0  0  0  0  0  0  0  0  0  0  0
   -2.2425   12.8998   11.0529 H   0  0  0  0  0  0  0  0  0  0  0  0
   -0.6786   11.5953   12.5861 B   0  0  0  0  0  0  0  0  0  0  0  0
   -0.2420   12.4468   13.1679 H   0  0  0  0  0  0  0  0  0  0  0  0
   -0.0881    8.1372    8.2672 N   0  0  0  0  0  0  0  0  0  0  0  0
    1.4901    7.6235   10.0759 N   0  0  0  0  0  0  0  0  0  0  0  0
    0.1048   13.4403    9.2307 N   0  0  0  0  0  0  0  0  0  0  0  0
    1.7310   13.1629   11.0520 N   0  0  0  0  0  0  0  0  0  0  0  0
    5.3650    9.2296    7.7096 O   0  0  0  0  0  0  0  0  0  0  0  0
    5.6166   11.3711    8.3048 O   0  0  0  0  0  0  0  0  0  0  0  0
    0.8078    8.9364    9.3725 P   0  0  0  0  0  0  0  0  0  0  0  0
    0.9412   12.2313    9.9523 P   0  0  0  0  0  0  0  0  0  0  0  0
    2.1431   10.7198    8.6043 Au  0  3  0  0  0  0  0  0  0  0  0  0
  1  2  1  0  0  0  0
  2 75  1  0  0  0  0
  3  4  1  0  0  0  0
  5  3  1  0  0  0  0
  6  3  1  0  0  0  0
  7  6  1  0  0  0  0
  8  6  1  0  0  0  0
  9 10  1  0  0  0  0
 11  9  1  0  0  0  0
 12 11  1  0  0  0  0
 13 11  1  0  0  0  0
 14 11  1  0  0  0  0
 15  9  1  0  0  0  0
 16 15  1  0  0  0  0
 17 15  1  0  0  0  0
 18 15  1  0  0  0  0
 19 20  1  0  0  0  0
 21 19  1  0  0  0  0
 22 21  1  0  0  0  0
 23 21  1  0  0  0  0
 24 21  1  0  0  0  0
 25 19  1  0  0  0  0
 26 25  1  0  0  0  0
 27 25  1  0  0  0  0
 28 25  1  0  0  0  0
 29 30  1  0  0  0  0
 31 29  1  0  0  0  0
 32 29  1  0  0  0  0
 33 32  1  0  0  0  0
 34 32  1  0  0  0  0
 35 36  1  0  0  0  0
 37 35  1  0  0  0  0
 38 37  1  0  0  0  0
 39 37  1  0  0  0  0
 40 37  1  0  0  0  0
 41 35  1  0  0  0  0
 42 41  1  0  0  0  0
 43 41  1  0  0  0  0
 44 41  1  0  0  0  0
 45 46  1  0  0  0  0
 47 45  1  0  0  0  0
 48 47  1  0  0  0  0
 49 47  1  0  0  0  0
 50 47  1  0  0  0  0
 51 45  1  0  0  0  0
 52 51  1  0  0  0  0
 53 51  1  0  0  0  0
 54 51  1  0  0  0  0
 55 56  1  0  0  0  0
 56 57  4  0  0  0  0
 57 58  1  0  0  0  0
 59 57  4  0  0  0  0
 60 59  1  0  0  0  0
 61 59  4  0  0  0  0
 62 61  1  0  0  0  0
 63 61  4  0  0  0  0
 64 63  1  0  0  0  0
 65 56  4  0  0  0  0
 66 65  1  0  0  0  0
 67 55  1  0  0  0  0
 68 69  1  0  0  0  0
 70 68  1  0  0  0  0
 71 68  1  0  0  0  0
 72 71  1  0  0  0  0
 73 71  1  0  0  0  0
 74 71  1  0  0  0  0
 75  1  1  0  0  0  0
 76 75  1  0  0  0  0
 77  1  1  0  0  0  0
 78 77  1  0  0  0  0
 79  1  1  0  0  0  0
 80 79  1  0  0  0  0
 81  1  1  0  0  0  0
 82 81  1  0  0  0  0
 83 75  1  0  0  0  0
 84 83  1  0  0  0  0
 85 77  1  0  0  0  0
 86 85  1  0  0  0  0
 87 79  1  0  0  0  0
 88 87  1  0  0  0  0
 89 83  1  0  0  0  0
 90 89  1  0  0  0  0
 91  2  1  0  0  0  0
 92 91  1  0  0  0  0
 93  2  1  0  0  0  0
 94 93  1  0  0  0  0
 95  3  1  0  0  0  0
 96  6  1  0  0  0  0
 97 29  1  0  0  0  0
 98 32  1  0  0  0  0
 99 67  2  0  0  0  0
100 67  1  0  0  0  0
101  1  1  0  0  0  0
102  2  1  0  0  0  0
103 55  2  0  0  0  0
  2 77  1  0  0  0  0
  9 95  1  0  0  0  0
 19 96  1  0  0  0  0
 35 97  1  0  0  0  0
 45 98  1  0  0  0  0
 63 65  4  0  0  0  0
 68100  1  0  0  0  0
 75 79  1  0  0  0  0
 75 91  1  0  0  0  0
 77 81  1  0  0  0  0
 77 93  1  0  0  0  0
 79 81  1  0  0  0  0
 79 83  1  0  0  0  0
 81 85  1  0  0  0  0
 81 87  1  0  0  0  0
 83 87  1  0  0  0  0
 83 91  1  0  0  0  0
 85 87  1  0  0  0  0
 85 89  1  0  0  0  0
 85 93  1  0  0  0  0
 87 89  1  0  0  0  0
 89 91  1  0  0  0  0
 89 93  1  0  0  0  0
 91 93  1  0  0  0  0
 95101  1  0  0  0  0
 96101  1  0  0  0  0
 97102  1  0  0  0  0
 98102  1  0  0  0  0
101103  1  0  0  0  0
102103  1  0  0  0  0
M  CHG  1 103   1
M  END
$$$$
JEYVIW

From CSD data. Using bond type 'Any'. No disordered atoms. Largest molecule.
244258  0  0  0  0  0  0  0  0999 V2000
    8.3812    5.5494   11.1283 P   0  3  0  0  0  0  0  0  0  0  0  0
    5.4494    8.3007    8.4747 F   0  0  0  0  0  0  0  0  0  0  0  0
    5.4514    9.2623    6.0299 F   0  0  0  0  0  0  0  0  0  0  0  0
    3.4518   10.9134    5.1821 F   0  0  0  0  0  0  0  0  0  0  0  0
    1.4621   11.5727    6.8988 F   0  0  0  0  0  0  0  0  0  0  0  0
    1.3890   10.5608    9.3496 F   0  0  0  0  0  0  0  0  0  0  0  0
    2.4549    8.2003   13.3185 F   0  0  0  0  0  0  0  0  0  0  0  0
    0.0866    7.3901   14.1528 F   0  0  0  0  0  0  0  0  0  0  0  0
   -1.8866    6.7984   12.3771 F   0  0  0  0  0  0  0  0  0  0  0  0
   -1.3979    7.0409    9.7348 F   0  0  0  0  0  0  0  0  0  0  0  0
    0.9579    7.8597    8.8402 F   0  0  0  0  0  0  0  0  0  0  0  0
    5.4415    7.0959   13.0838 F   0  0  0  0  0  0  0  0  0  0  0  0
    4.7093    7.5288   15.5648 F   0  0  0  0  0  0  0  0  0  0  0  0
    3.7250    5.5145   17.1030 F   0  0  0  0  0  0  0  0  0  0  0  0
    3.5699    2.9967   16.0570 F   0  0  0  0  0  0  0  0  0  0  0  0
    4.2826    2.5283   13.5764 F   0  0  0  0  0  0  0  0  0  0  0  0
    2.4434    5.1694   11.6999 F   0  0  0  0  0  0  0  0  0  0  0  0
    0.2940    3.9000   10.8221 F   0  0  0  0  0  0  0  0  0  0  0  0
    0.5231    1.4652    9.6174 F   0  0  0  0  0  0  0  0  0  0  0  0
    2.9886    0.3266    9.3671 F   0  0  0  0  0  0  0  0  0  0  0  0
    5.1460    1.5580   10.2521 F   0  0  0  0  0  0  0  0  0  0  0  0
    3.6101    6.1575    9.1531 O   0  0  0  0  0  0  0  0  0  0  0  0
    4.2969    7.5134   10.7532 O   0  0  0  0  0  0  0  0  0  0  0  0
    9.2039    4.6067    9.8072 C   0  0  0  0  0  0  0  0  0  0  0  0
    9.6618    3.2770   10.0813 C   0  0  0  0  0  0  0  0  0  0  0  0
    9.4086    2.2998    9.1195 C   0  0  0  0  0  0  0  0  0  0  0  0
    9.6036    1.4156    9.3298 H   0  0  0  0  0  0  0  0  0  0  0  0
    8.8868    2.5700    7.8791 C   0  0  0  0  0  0  0  0  0  0  0  0
    8.8034    3.9123    7.5415 C   0  0  0  0  0  0  0  0  0  0  0  0
    8.6004    4.1301    6.6604 H   0  0  0  0  0  0  0  0  0  0  0  0
    9.0035    4.9450    8.4401 C   0  0  0  0  0  0  0  0  0  0  0  0
    9.2585    6.3446    7.8136 C   0  0  0  0  0  0  0  0  0  0  0  0
    9.6374    7.4309    8.8121 C   0  0  0  0  0  0  0  0  0  0  0  0
    8.8981    7.5953    9.4025 H   0  0  0  0  0  0  0  0  0  0  0  0
    9.8540    8.2389    8.3396 H   0  0  0  0  0  0  0  0  0  0  0  0
   10.3979    7.1460    9.3231 H   0  0  0  0  0  0  0  0  0  0  0  0
    8.1054    6.8403    6.9293 C   0  0  0  0  0  0  0  0  0  0  0  0
    7.8519    6.1479    6.3152 H   0  0  0  0  0  0  0  0  0  0  0  0
    8.3888    7.6156    6.4381 H   0  0  0  0  0  0  0  0  0  0  0  0
    7.3541    7.0696    7.4815 H   0  0  0  0  0  0  0  0  0  0  0  0
   10.5020    6.1369    6.9159 C   0  0  0  0  0  0  0  0  0  0  0  0
   11.2264    5.7962    7.4447 H   0  0  0  0  0  0  0  0  0  0  0  0
   10.7584    6.9760    6.5246 H   0  0  0  0  0  0  0  0  0  0  0  0
   10.2924    5.5108    6.2184 H   0  0  0  0  0  0  0  0  0  0  0  0
    8.5155    1.4729    6.8943 C   0  0  0  0  0  0  0  0  0  0  0  0
    8.6312    0.0680    7.4678 C   0  0  0  0  0  0  0  0  0  0  0  0
    9.5577   -0.1519    7.5908 H   0  0  0  0  0  0  0  0  0  0  0  0
    8.2305   -0.5595    6.8629 H   0  0  0  0  0  0  0  0  0  0  0  0
    8.1791    0.0302    8.3145 H   0  0  0  0  0  0  0  0  0  0  0  0
    6.9872    1.6358    6.5703 C   0  0  0  0  0  0  0  0  0  0  0  0
    6.4781    1.5605    7.3796 H   0  0  0  0  0  0  0  0  0  0  0  0
    6.7155    0.9489    5.9558 H   0  0  0  0  0  0  0  0  0  0  0  0
    6.8338    2.4969    6.1737 H   0  0  0  0  0  0  0  0  0  0  0  0
    9.2280    1.5499    5.6536 C   0  0  0  0  0  0  0  0  0  0  0  0
    9.3442    2.4704    5.4072 H   0  0  0  0  0  0  0  0  0  0  0  0
    8.7308    1.0957    4.9695 H   0  0  0  0  0  0  0  0  0  0  0  0
   10.0883    1.1345    5.7527 H   0  0  0  0  0  0  0  0  0  0  0  0
   10.6099    2.8421   11.2355 C   0  0  0  0  0  0  0  0  0  0  0  0
   10.0849    1.6734   12.0706 C   0  0  0  0  0  0  0  0  0  0  0  0
    9.2775    1.9364   12.5176 H   0  0  0  0  0  0  0  0  0  0  0  0
   10.7450    1.4243   12.7221 H   0  0  0  0  0  0  0  0  0  0  0  0
    9.9044    0.9256   11.4965 H   0  0  0  0  0  0  0  0  0  0  0  0
   11.0780    3.9893   12.1501 C   0  0  0  0  0  0  0  0  0  0  0  0
   11.3243    4.7466   11.6130 H   0  0  0  0  0  0  0  0  0  0  0  0
   11.8359    3.7013   12.6633 H   0  0  0  0  0  0  0  0  0  0  0  0
   10.3650    4.2374   12.7436 H   0  0  0  0  0  0  0  0  0  0  0  0
   11.9011    2.3875   10.5130 C   0  0  0  0  0  0  0  0  0  0  0  0
   11.7090    1.6245    9.9644 H   0  0  0  0  0  0  0  0  0  0  0  0
   12.5664    2.1542   11.1652 H   0  0  0  0  0  0  0  0  0  0  0  0
   12.2289    3.1034    9.9640 H   0  0  0  0  0  0  0  0  0  0  0  0
    6.8608    6.3193   10.4861 C   0  0  0  0  0  0  0  0  0  0  0  0
    6.6531    7.0689   11.0654 H   0  0  0  0  0  0  0  0  0  0  0  0
    7.0734    6.6885    9.6146 H   0  0  0  0  0  0  0  0  0  0  0  0
    5.5525    5.4841   10.3261 C   0  0  0  0  0  0  0  0  0  0  0  0
    4.4539    6.4591   10.1130 C   0  0  0  0  0  0  0  0  0  0  0  0
    4.1513    5.0237    8.3545 C   0  0  0  0  0  0  0  0  0  0  0  0
    3.5781    4.2372    8.4677 H   0  0  0  0  0  0  0  0  0  0  0  0
    5.5260    4.7481    8.9465 C   0  0  0  0  0  0  0  0  0  0  0  0
    6.2221    5.0908    8.3646 H   0  0  0  0  0  0  0  0  0  0  0  0
    5.6602    3.7955    9.0660 H   0  0  0  0  0  0  0  0  0  0  0  0
    4.1457    5.4497    6.9195 C   0  0  0  0  0  0  0  0  0  0  0  0
    3.2444    5.6253    6.6407 H   0  0  0  0  0  0  0  0  0  0  0  0
    4.5182    4.7502    6.3773 H   0  0  0  0  0  0  0  0  0  0  0  0
    4.6727    6.2461    6.8201 H   0  0  0  0  0  0  0  0  0  0  0  0
    4.0150    9.8107   11.5578 C   0  0  0  0  0  0  0  0  0  0  0  0
    4.2341    9.3584   12.3877 H   0  0  0  0  0  0  0  0  0  0  0  0
    4.8532   10.0773   11.1480 H   0  0  0  0  0  0  0  0  0  0  0  0
    3.2378   11.0850   11.9086 C   0  0  0  0  0  0  0  0  0  0  0  0
    2.4524   10.8337   12.4189 H   0  0  0  0  0  0  0  0  0  0  0  0
    2.9310   11.4931   11.0839 H   0  0  0  0  0  0  0  0  0  0  0  0
    3.3627    9.2994    9.0379 C   0  0  0  0  0  0  0  0  0  0  0  0
    4.3795    9.0721    8.1375 C   0  0  0  0  0  0  0  0  0  0  0  0
    4.4166    9.5643    6.8511 C   0  0  0  0  0  0  0  0  0  0  0  0
    3.4112   10.3875    6.4239 C   0  0  0  0  0  0  0  0  0  0  0  0
    2.4234   10.7133    7.2950 C   0  0  0  0  0  0  0  0  0  0  0  0
    2.4069   10.1907    8.5457 C   0  0  0  0  0  0  0  0  0  0  0  0
    1.8257    8.1665   11.0217 C   0  0  0  0  0  0  0  0  0  0  0  0
    1.5170    7.9804   12.3677 C   0  0  0  0  0  0  0  0  0  0  0  0
    0.3012    7.5276   12.8287 C   0  0  0  0  0  0  0  0  0  0  0  0
   -0.6750    7.2233   11.9648 C   0  0  0  0  0  0  0  0  0  0  0  0
   -0.4313    7.3504   10.6258 C   0  0  0  0  0  0  0  0  0  0  0  0
    0.7951    7.7996   10.1770 C   0  0  0  0  0  0  0  0  0  0  0  0
    6.6127    3.4864   11.7231 C   0  0  0  0  0  0  0  0  0  0  0  0
    6.4673    2.7233   12.3032 H   0  0  0  0  0  0  0  0  0  0  0  0
    6.8858    3.1572   10.8530 H   0  0  0  0  0  0  0  0  0  0  0  0
    7.7215    4.3741   12.3084 C   0  0  0  0  0  0  0  0  0  0  0  0
    8.4423    3.8074   12.6255 H   0  0  0  0  0  0  0  0  0  0  0  0
    7.3679    4.8575   13.0711 H   0  0  0  0  0  0  0  0  0  0  0  0
    4.8250    4.7929   13.1214 C   0  0  0  0  0  0  0  0  0  0  0  0
    4.9148    6.0349   13.7564 C   0  0  0  0  0  0  0  0  0  0  0  0
    4.5554    6.2909   15.0438 C   0  0  0  0  0  0  0  0  0  0  0  0
    4.0876    5.2797   15.8273 C   0  0  0  0  0  0  0  0  0  0  0  0
    3.9904    4.0287   15.2955 C   0  0  0  0  0  0  0  0  0  0  0  0
    4.3676    3.8157   13.9877 C   0  0  0  0  0  0  0  0  0  0  0  0
    3.9175    3.4506   11.0280 C   0  0  0  0  0  0  0  0  0  0  0  0
    2.6359    3.9660   11.1338 C   0  0  0  0  0  0  0  0  0  0  0  0
    1.4983    3.3235   10.6786 C   0  0  0  0  0  0  0  0  0  0  0  0
    1.6224    2.1029   10.0762 C   0  0  0  0  0  0  0  0  0  0  0  0
    2.8625    1.5248    9.9587 C   0  0  0  0  0  0  0  0  0  0  0  0
    3.9641    2.1978   10.4247 C   0  0  0  0  0  0  0  0  0  0  0  0
    3.2958    8.7195   10.5660 B   0  0  0  0  0  0  0  0  0  0  0  0
    5.2287    4.3275   11.5760 B   0  5  0  0  0  0  0  0  0  0  0  0
    4.1756   12.3478   12.8685 P   0  3  0  0  0  0  0  0  0  0  0  0
    7.1074    9.5965   15.5221 F   0  0  0  0  0  0  0  0  0  0  0  0
    7.1054    8.6349   17.9669 F   0  0  0  0  0  0  0  0  0  0  0  0
    9.1050    6.9838   18.8147 F   0  0  0  0  0  0  0  0  0  0  0  0
   11.0947    6.3245   17.0979 F   0  0  0  0  0  0  0  0  0  0  0  0
   11.1678    7.3364   14.6472 F   0  0  0  0  0  0  0  0  0  0  0  0
   10.1019    9.6969   10.6783 F   0  0  0  0  0  0  0  0  0  0  0  0
   12.4702   10.5071    9.8440 F   0  0  0  0  0  0  0  0  0  0  0  0
   14.4434   11.0988   11.6197 F   0  0  0  0  0  0  0  0  0  0  0  0
   13.9547   10.8563   14.2620 F   0  0  0  0  0  0  0  0  0  0  0  0
   11.5989   10.0375   15.1566 F   0  0  0  0  0  0  0  0  0  0  0  0
    7.1153   10.8013   10.9130 F   0  0  0  0  0  0  0  0  0  0  0  0
    7.8475   10.3684    8.4320 F   0  0  0  0  0  0  0  0  0  0  0  0
    8.8318   12.3827    6.8938 F   0  0  0  0  0  0  0  0  0  0  0  0
    8.9869   14.9005    7.9398 F   0  0  0  0  0  0  0  0  0  0  0  0
    8.2742   15.3689   10.4204 F   0  0  0  0  0  0  0  0  0  0  0  0
   10.1134   12.7278   12.2969 F   0  0  0  0  0  0  0  0  0  0  0  0
   12.2628   13.9972   13.1747 F   0  0  0  0  0  0  0  0  0  0  0  0
   12.0337   16.4320   14.3794 F   0  0  0  0  0  0  0  0  0  0  0  0
    9.5682   17.5706   14.6296 F   0  0  0  0  0  0  0  0  0  0  0  0
    7.4108   16.3392   13.7446 F   0  0  0  0  0  0  0  0  0  0  0  0
    8.9467   11.7397   14.8437 O   0  0  0  0  0  0  0  0  0  0  0  0
    8.2599   10.3838   13.2436 O   0  0  0  0  0  0  0  0  0  0  0  0
    3.3529   13.2905   14.1895 C   0  0  0  0  0  0  0  0  0  0  0  0
    2.8950   14.6202   13.9155 C   0  0  0  0  0  0  0  0  0  0  0  0
    3.1482   15.5974   14.8773 C   0  0  0  0  0  0  0  0  0  0  0  0
    2.9532   16.4816   14.6670 H   0  0  0  0  0  0  0  0  0  0  0  0
    3.6700   15.3272   16.1177 C   0  0  0  0  0  0  0  0  0  0  0  0
    3.7534   13.9849   16.4553 C   0  0  0  0  0  0  0  0  0  0  0  0
    3.9564   13.7671   17.3364 H   0  0  0  0  0  0  0  0  0  0  0  0
    3.5533   12.9522   15.5566 C   0  0  0  0  0  0  0  0  0  0  0  0
    3.2983   11.5526   16.1832 C   0  0  0  0  0  0  0  0  0  0  0  0
    2.9194   10.4663   15.1847 C   0  0  0  0  0  0  0  0  0  0  0  0
    3.6587   10.3019   14.5943 H   0  0  0  0  0  0  0  0  0  0  0  0
    2.7028    9.6583   15.6572 H   0  0  0  0  0  0  0  0  0  0  0  0
    2.1589   10.7512   14.6736 H   0  0  0  0  0  0  0  0  0  0  0  0
    4.4514   11.0569   17.0675 C   0  0  0  0  0  0  0  0  0  0  0  0
    4.7049   11.7493   17.6816 H   0  0  0  0  0  0  0  0  0  0  0  0
    4.1680   10.2816   17.5586 H   0  0  0  0  0  0  0  0  0  0  0  0
    5.2027   10.8276   16.5153 H   0  0  0  0  0  0  0  0  0  0  0  0
    2.0548   11.7603   17.0809 C   0  0  0  0  0  0  0  0  0  0  0  0
    1.3304   12.1010   16.5521 H   0  0  0  0  0  0  0  0  0  0  0  0
    1.7984   10.9212   17.4722 H   0  0  0  0  0  0  0  0  0  0  0  0
    2.2644   12.3864   17.7784 H   0  0  0  0  0  0  0  0  0  0  0  0
    4.0413   16.4243   17.1025 C   0  0  0  0  0  0  0  0  0  0  0  0
    3.9256   17.8292   16.5290 C   0  0  0  0  0  0  0  0  0  0  0  0
    2.9991   18.0491   16.4060 H   0  0  0  0  0  0  0  0  0  0  0  0
    4.3263   18.4567   17.1338 H   0  0  0  0  0  0  0  0  0  0  0  0
    4.3777   17.8670   15.6822 H   0  0  0  0  0  0  0  0  0  0  0  0
    5.5696   16.2614   17.4265 C   0  0  0  0  0  0  0  0  0  0  0  0
    6.0787   16.3367   16.6171 H   0  0  0  0  0  0  0  0  0  0  0  0
    5.8413   16.9483   18.0409 H   0  0  0  0  0  0  0  0  0  0  0  0
    5.7230   15.4003   17.8231 H   0  0  0  0  0  0  0  0  0  0  0  0
    3.3288   16.3473   18.3431 C   0  0  0  0  0  0  0  0  0  0  0  0
    3.2126   15.4268   18.5896 H   0  0  0  0  0  0  0  0  0  0  0  0
    3.8260   16.8015   19.0272 H   0  0  0  0  0  0  0  0  0  0  0  0
    2.4685   16.7627   18.2441 H   0  0  0  0  0  0  0  0  0  0  0  0
    1.9469   15.0551   12.7612 C   0  0  0  0  0  0  0  0  0  0  0  0
    2.4719   16.2238   11.9262 C   0  0  0  0  0  0  0  0  0  0  0  0
    3.2793   15.9608   11.4791 H   0  0  0  0  0  0  0  0  0  0  0  0
    1.8118   16.4729   11.2747 H   0  0  0  0  0  0  0  0  0  0  0  0
    2.6524   16.9716   12.5003 H   0  0  0  0  0  0  0  0  0  0  0  0
    1.4788   13.9079   11.8467 C   0  0  0  0  0  0  0  0  0  0  0  0
    1.2325   13.1506   12.3838 H   0  0  0  0  0  0  0  0  0  0  0  0
    0.7209   14.1959   11.3335 H   0  0  0  0  0  0  0  0  0  0  0  0
    2.1918   13.6598   11.2532 H   0  0  0  0  0  0  0  0  0  0  0  0
    0.6557   15.5097   13.4838 C   0  0  0  0  0  0  0  0  0  0  0  0
    0.8478   16.2727   14.0324 H   0  0  0  0  0  0  0  0  0  0  0  0
   -0.0096   15.7430   12.8316 H   0  0  0  0  0  0  0  0  0  0  0  0
    0.3279   14.7938   14.0328 H   0  0  0  0  0  0  0  0  0  0  0  0
    5.6960   11.5779   13.5107 C   0  0  0  0  0  0  0  0  0  0  0  0
    5.9037   10.8283   12.9313 H   0  0  0  0  0  0  0  0  0  0  0  0
    5.4834   11.2087   14.3822 H   0  0  0  0  0  0  0  0  0  0  0  0
    7.0043   12.4131   13.6707 C   0  0  0  0  0  0  0  0  0  0  0  0
    8.1029   11.4381   13.8838 C   0  0  0  0  0  0  0  0  0  0  0  0
    8.4055   12.8735   15.6423 C   0  0  0  0  0  0  0  0  0  0  0  0
    8.9787   13.6600   15.5291 H   0  0  0  0  0  0  0  0  0  0  0  0
    7.0308   13.1491   15.0503 C   0  0  0  0  0  0  0  0  0  0  0  0
    6.3347   12.8064   15.6322 H   0  0  0  0  0  0  0  0  0  0  0  0
    6.8966   14.1017   14.9308 H   0  0  0  0  0  0  0  0  0  0  0  0
    8.4111   12.4475   17.0773 C   0  0  0  0  0  0  0  0  0  0  0  0
    9.3124   12.2719   17.3561 H   0  0  0  0  0  0  0  0  0  0  0  0
    8.0386   13.1470   17.6195 H   0  0  0  0  0  0  0  0  0  0  0  0
    7.8841   11.6511   17.1767 H   0  0  0  0  0  0  0  0  0  0  0  0
    8.5418    8.0865   12.4390 C   0  0  0  0  0  0  0  0  0  0  0  0
    8.3227    8.5388   11.6091 H   0  0  0  0  0  0  0  0  0  0  0  0
    7.7036    7.8199   12.8488 H   0  0  0  0  0  0  0  0  0  0  0  0
    9.3190    6.8122   12.0881 C   0  0  0  0  0  0  0  0  0  0  0  0
   10.1044    7.0635   11.5778 H   0  0  0  0  0  0  0  0  0  0  0  0
    9.6258    6.4041   12.9129 H   0  0  0  0  0  0  0  0  0  0  0  0
    9.1941    8.5978   14.9589 C   0  0  0  0  0  0  0  0  0  0  0  0
    8.1773    8.8251   15.8592 C   0  0  0  0  0  0  0  0  0  0  0  0
    8.1402    8.3329   17.1457 C   0  0  0  0  0  0  0  0  0  0  0  0
    9.1456    7.5097   17.5728 C   0  0  0  0  0  0  0  0  0  0  0  0
   10.1334    7.1839   16.7018 C   0  0  0  0  0  0  0  0  0  0  0  0
   10.1499    7.7065   15.4510 C   0  0  0  0  0  0  0  0  0  0  0  0
   10.7311    9.7307   12.9751 C   0  0  0  0  0  0  0  0  0  0  0  0
   11.0398    9.9168   11.6291 C   0  0  0  0  0  0  0  0  0  0  0  0
   12.2556   10.3696   11.1681 C   0  0  0  0  0  0  0  0  0  0  0  0
   13.2318   10.6739   12.0320 C   0  0  0  0  0  0  0  0  0  0  0  0
   12.9881   10.5468   13.3710 C   0  0  0  0  0  0  0  0  0  0  0  0
   11.7617   10.0976   13.8197 C   0  0  0  0  0  0  0  0  0  0  0  0
    5.9441   14.4108   12.2736 C   0  0  0  0  0  0  0  0  0  0  0  0
    6.0895   15.1739   11.6936 H   0  0  0  0  0  0  0  0  0  0  0  0
    5.6710   14.7400   13.1438 H   0  0  0  0  0  0  0  0  0  0  0  0
    4.8353   13.5231   11.6884 C   0  0  0  0  0  0  0  0  0  0  0  0
    4.1145   14.0898   11.3713 H   0  0  0  0  0  0  0  0  0  0  0  0
    5.1889   13.0397   10.9256 H   0  0  0  0  0  0  0  0  0  0  0  0
    7.7318   13.1043   10.8753 C   0  0  0  0  0  0  0  0  0  0  0  0
    7.6420   11.8623   10.2404 C   0  0  0  0  0  0  0  0  0  0  0  0
    8.0014   11.6063    8.9530 C   0  0  0  0  0  0  0  0  0  0  0  0
    8.4692   12.6175    8.1695 C   0  0  0  0  0  0  0  0  0  0  0  0
    8.5664   13.8685    8.7012 C   0  0  0  0  0  0  0  0  0  0  0  0
    8.1892   14.0815   10.0091 C   0  0  0  0  0  0  0  0  0  0  0  0
    8.6393   14.4466   12.9688 C   0  0  0  0  0  0  0  0  0  0  0  0
    9.9209   13.9312   12.8630 C   0  0  0  0  0  0  0  0  0  0  0  0
   11.0585   14.5737   13.3182 C   0  0  0  0  0  0  0  0  0  0  0  0
   10.9344   15.7943   13.9205 C   0  0  0  0  0  0  0  0  0  0  0  0
    9.6943   16.3724   14.0381 C   0  0  0  0  0  0  0  0  0  0  0  0
    8.5927   15.6994   13.5721 C   0  0  0  0  0  0  0  0  0  0  0  0
    9.2610    9.1777   13.4308 B   0  0  0  0  0  0  0  0  0  0  0  0
    7.3281   13.5697   12.4207 B   0  5  0  0  0  0  0  0  0  0  0  0
  1 24  1  0  0  0  0
  2 92  1  0  0  0  0
  3 93  1  0  0  0  0
  4 94  1  0  0  0  0
  5 95  1  0  0  0  0
  6 96  1  0  0  0  0
  7 98  1  0  0  0  0
  8 99  1  0  0  0  0
  9100  1  0  0  0  0
 10101  1  0  0  0  0
 11102  1  0  0  0  0
 12110  1  0  0  0  0
 13111  1  0  0  0  0
 14112  1  0  0  0  0
 15113  1  0  0  0  0
 16114  1  0  0  0  0
 17116  1  0  0  0  0
 18117  1  0  0  0  0
 19118  1  0  0  0  0
 20119  1  0  0  0  0
 21120  1  0  0  0  0
 22 75  1  0  0  0  0
 23 75  2  0  0  0  0
 24 25  4  0  0  0  0
 25 26  4  0  0  0  0
 26 27  1  0  0  0  0
 28 26  4  0  0  0  0
 29 28  4  0  0  0  0
 30 29  1  0  0  0  0
 31 24  4  0  0  0  0
 32 31  1  0  0  0  0
 33 32  1  0  0  0  0
 34 33  1  0  0  0  0
 35 33  1  0  0  0  0
 36 33  1  0  0  0  0
 37 32  1  0  0  0  0
 38 37  1  0  0  0  0
 39 37  1  0  0  0  0
 40 37  1  0  0  0  0
 41 32  1  0  0  0  0
 42 41  1  0  0  0  0
 43 41  1  0  0  0  0
 44 41  1  0  0  0  0
 45 28  1  0  0  0  0
 46 45  1  0  0  0  0
 47 46  1  0  0  0  0
 48 46  1  0  0  0  0
 49 46  1  0  0  0  0
 50 45  1  0  0  0  0
 51 50  1  0  0  0  0
 52 50  1  0  0  0  0
 53 50  1  0  0  0  0
 54 45  1  0  0  0  0
 55 54  1  0  0  0  0
 56 54  1  0  0  0  0
 57 54  1  0  0  0  0
 58 25  1  0  0  0  0
 59 58  1  0  0  0  0
 60 59  1  0  0  0  0
 61 59  1  0  0  0  0
 62 59  1  0  0  0  0
 63 58  1  0  0  0  0
 64 63  1  0  0  0  0
 65 63  1  0  0  0  0
 66 63  1  0  0  0  0
 67 58  1  0  0  0  0
 68 67  1  0  0  0  0
 69 67  1  0  0  0  0
 70 67  1  0  0  0  0
 71  1  1  0  0  0  0
 72 71  1  0  0  0  0
 73 71  1  0  0  0  0
 74 71  1  0  0  0  0
 75 74  1  0  0  0  0
 76 22  1  0  0  0  0
 77 76  1  0  0  0  0
 78 74  1  0  0  0  0
 79 78  1  0  0  0  0
 80 78  1  0  0  0  0
 81 76  1  0  0  0  0
 82 81  1  0  0  0  0
 83 81  1  0  0  0  0
 84 81  1  0  0  0  0
 85 86  1  0  0  0  0
 87 85  1  0  0  0  0
 88 85  1  0  0  0  0
 89 88  1  0  0  0  0
 90 88  1  0  0  0  0
 91 92  4  0  0  0  0
 92 93  4  0  0  0  0
 93 94  4  0  0  0  0
 94 95  4  0  0  0  0
 95 96  4  0  0  0  0
 96 91  4  0  0  0  0
 97 98  4  0  0  0  0
 98 99  4  0  0  0  0
 99100  4  0  0  0  0
100101  4  0  0  0  0
101102  4  0  0  0  0
102 97  4  0  0  0  0
103104  1  0  0  0  0
105103  1  0  0  0  0
106  1  1  0  0  0  0
107106  1  0  0  0  0
108106  1  0  0  0  0
109110  4  0  0  0  0
110111  4  0  0  0  0
111112  4  0  0  0  0
112113  4  0  0  0  0
113114  4  0  0  0  0
114109  4  0  0  0  0
115116  4  0  0  0  0
116117  4  0  0  0  0
117118  4  0  0  0  0
118119  4  0  0  0  0
119120  4  0  0  0  0
120115  4  0  0  0  0
121 23  1  0  0  0  0
122 74  1  0  0  0  0
123 88  1  0  0  0  0
124214  1  0  0  0  0
125215  1  0  0  0  0
126216  1  0  0  0  0
127217  1  0  0  0  0
128218  1  0  0  0  0
129220  1  0  0  0  0
130221  1  0  0  0  0
131222  1  0  0  0  0
132223  1  0  0  0  0
133224  1  0  0  0  0
134232  1  0  0  0  0
135233  1  0  0  0  0
136234  1  0  0  0  0
137235  1  0  0  0  0
138236  1  0  0  0  0
139238  1  0  0  0  0
140239  1  0  0  0  0
141240  1  0  0  0  0
142241  1  0  0  0  0
143242  1  0  0  0  0
144197  1  0  0  0  0
145197  2  0  0  0  0
146123  1  0  0  0  0
147146  4  0  0  0  0
148147  4  0  0  0  0
149148  1  0  0  0  0
150148  4  0  0  0  0
151150  4  0  0  0  0
152151  1  0  0  0  0
153146  4  0  0  0  0
154153  1  0  0  0  0
155154  1  0  0  0  0
156155  1  0  0  0  0
157155  1  0  0  0  0
158155  1  0  0  0  0
159154  1  0  0  0  0
160159  1  0  0  0  0
161159  1  0  0  0  0
162159  1  0  0  0  0
163154  1  0  0  0  0
164163  1  0  0  0  0
165163  1  0  0  0  0
166163  1  0  0  0  0
167150  1  0  0  0  0
168167  1  0  0  0  0
169168  1  0  0  0  0
170168  1  0  0  0  0
171168  1  0  0  0  0
172167  1  0  0  0  0
173172  1  0  0  0  0
174172  1  0  0  0  0
175172  1  0  0  0  0
176167  1  0  0  0  0
177176  1  0  0  0  0
178176  1  0  0  0  0
179176  1  0  0  0  0
180147  1  0  0  0  0
181180  1  0  0  0  0
182181  1  0  0  0  0
183181  1  0  0  0  0
184181  1  0  0  0  0
185180  1  0  0  0  0
186185  1  0  0  0  0
187185  1  0  0  0  0
188185  1  0  0  0  0
189180  1  0  0  0  0
190189  1  0  0  0  0
191189  1  0  0  0  0
192189  1  0  0  0  0
193123  1  0  0  0  0
194193  1  0  0  0  0
195193  1  0  0  0  0
196193  1  0  0  0  0
197196  1  0  0  0  0
198144  1  0  0  0  0
199198  1  0  0  0  0
200196  1  0  0  0  0
201200  1  0  0  0  0
202200  1  0  0  0  0
203198  1  0  0  0  0
204203  1  0  0  0  0
205203  1  0  0  0  0
206203  1  0  0  0  0
207208  1  0  0  0  0
209207  1  0  0  0  0
210  1  1  0  0  0  0
211210  1  0  0  0  0
212210  1  0  0  0  0
213214  4  0  0  0  0
214215  4  0  0  0  0
215216  4  0  0  0  0
216217  4  0  0  0  0
217218  4  0  0  0  0
218213  4  0  0  0  0
219220  4  0  0  0  0
220221  4  0  0  0  0
221222  4  0  0  0  0
222223  4  0  0  0  0
223224  4  0  0  0  0
224219  4  0  0  0  0
225226  1  0  0  0  0
227225  1  0  0  0  0
228123  1  0  0  0  0
229228  1  0  0  0  0
230228  1  0  0  0  0
231232  4  0  0  0  0
232233  4  0  0  0  0
233234  4  0  0  0  0
234235  4  0  0  0  0
235236  4  0  0  0  0
236231  4  0  0  0  0
237238  4  0  0  0  0
238239  4  0  0  0  0
239240  4  0  0  0  0
240241  4  0  0  0  0
241242  4  0  0  0  0
242237  4  0  0  0  0
243145  1  0  0  0  0
244196  1  0  0  0  0
 29 31  4  0  0  0  0
 76 78  1  0  0  0  0
 85121  1  0  0  0  0
 91121  1  0  0  0  0
 97121  1  0  0  0  0
103106  1  0  0  0  0
103122  1  0  0  0  0
109122  1  0  0  0  0
115122  1  0  0  0  0
151153  4  0  0  0  0
198200  1  0  0  0  0
207210  1  0  0  0  0
207243  1  0  0  0  0
213243  1  0  0  0  0
219243  1  0  0  0  0
225228  1  0  0  0  0
225244  1  0  0  0  0
231244  1  0  0  0  0
237244  1  0  0  0  0
M  CHG  4   1   1 122  -1 123   1 244  -1
M  END
$$$$
JIHMAO

From CSD data. Using bond type 'Any'. No disordered atoms. Largest molecule.
 66 82  0  0  0  0  0  0  0  0999 V2000
    3.0617    4.8070    1.1006 Pt  0  0  0  0  0  0  0  0  0  0  0  0
    5.6475    4.0795    1.2083 Os  0  0  0  0  0  0  0  0  0  0  0  0
    0.8944    5.3900    1.5264 P   0  0  0  0  0  0  0  0  0  0  0  0
    7.8722    3.5652    1.8769 P   0  0  0  0  0  0  0  0  0  0  0  0
    4.6424    5.7552    2.4690 P   0  0  0  0  0  0  0  0  0  0  0  0
    4.6695    2.1730    0.0073 B   0  0  0  0  0  0  0  0  0  0  0  0
    4.2195    3.8398   -0.4331 B   0  0  0  0  0  0  0  0  0  0  0  0
    2.9132    2.6896   -0.0879 B   0  0  0  0  0  0  0  0  0  0  0  0
    3.4824    1.3743    1.0514 B   0  0  0  0  0  0  0  0  0  0  0  0
    5.0329    1.9232    1.7618 B   0  0  0  0  0  0  0  0  0  0  0  0
    6.4251    5.2141   -0.0879 C   0  0  0  0  0  0  0  0  0  0  0  0
    6.9447    5.8461   -0.9008 O   0  0  0  0  0  0  0  0  0  0  0  0
    0.5686    6.8493    2.6333 C   0  0  0  0  0  0  0  0  0  0  0  0
    1.2221    8.0435    2.3246 C   0  0  0  0  0  0  0  0  0  0  0  0
    0.9785    9.1864    3.0852 C   0  0  0  0  0  0  0  0  0  0  0  0
    0.0827    9.1366    4.1534 C   0  0  0  0  0  0  0  0  0  0  0  0
   -0.5705    7.9423    4.4609 C   0  0  0  0  0  0  0  0  0  0  0  0
   -0.3272    6.7995    3.7014 C   0  0  0  0  0  0  0  0  0  0  0  0
   -0.0311    3.9455    2.2305 C   0  0  0  0  0  0  0  0  0  0  0  0
    0.6452    3.0967    3.1072 C   0  0  0  0  0  0  0  0  0  0  0  0
    0.0176    1.9460    3.5863 C   0  0  0  0  0  0  0  0  0  0  0  0
   -1.2848    1.6440    3.1888 C   0  0  0  0  0  0  0  0  0  0  0  0
   -1.9612    2.4928    2.3121 C   0  0  0  0  0  0  0  0  0  0  0  0
   -1.3336    3.6435    1.8329 C   0  0  0  0  0  0  0  0  0  0  0  0
   -0.0979    5.8916    0.0010 C   0  0  0  0  0  0  0  0  0  0  0  0
   -1.2666    6.6484    0.0973 C   0  0  0  0  0  0  0  0  0  0  0  0
   -1.9816    6.9782   -1.0546 C   0  0  0  0  0  0  0  0  0  0  0  0
   -1.5267    6.5529   -2.3037 C   0  0  0  0  0  0  0  0  0  0  0  0
   -0.3580    5.7961   -2.4000 C   0  0  0  0  0  0  0  0  0  0  0  0
    0.3556    5.4663   -1.2481 C   0  0  0  0  0  0  0  0  0  0  0  0
    8.9054    3.1866    0.3714 C   0  0  0  0  0  0  0  0  0  0  0  0
    8.4551    2.1733   -0.4739 C   0  0  0  0  0  0  0  0  0  0  0  0
    9.1778    1.8488   -1.6226 C   0  0  0  0  0  0  0  0  0  0  0  0
   10.3514    2.5393   -1.9250 C   0  0  0  0  0  0  0  0  0  0  0  0
   10.8034    3.5525   -1.0807 C   0  0  0  0  0  0  0  0  0  0  0  0
   10.0792    3.8770    0.0680 C   0  0  0  0  0  0  0  0  0  0  0  0
    8.8499    4.9336    2.7180 C   0  0  0  0  0  0  0  0  0  0  0  0
    9.7738    4.6530    3.7234 C   0  0  0  0  0  0  0  0  0  0  0  0
   10.4704    5.6915    4.3417 C   0  0  0  0  0  0  0  0  0  0  0  0
   10.2416    7.0107    3.9546 C   0  0  0  0  0  0  0  0  0  0  0  0
    9.3172    7.2931    2.9492 C   0  0  0  0  0  0  0  0  0  0  0  0
    8.6206    6.2546    2.3309 C   0  0  0  0  0  0  0  0  0  0  0  0
    8.1530    2.1187    3.0015 C   0  0  0  0  0  0  0  0  0  0  0  0
    8.9547    1.0310    2.6500 C   0  0  0  0  0  0  0  0  0  0  0  0
    9.1337   -0.0211    3.5476 C   0  0  0  0  0  0  0  0  0  0  0  0
    8.5109    0.0109    4.7947 C   0  0  0  0  0  0  0  0  0  0  0  0
    7.7096    1.0969    5.1462 C   0  0  0  0  0  0  0  0  0  0  0  0
    7.5299    2.1508    4.2496 C   0  0  0  0  0  0  0  0  0  0  0  0
    5.1060    7.5626    2.4983 C   0  0  0  0  0  0  0  0  0  0  0  0
    4.8354    8.3188    3.6386 C   0  0  0  0  0  0  0  0  0  0  0  0
    5.2268    9.6569    3.6972 C   0  0  0  0  0  0  0  0  0  0  0  0
    5.8861   10.2387    2.6144 C   0  0  0  0  0  0  0  0  0  0  0  0
    6.1559    9.4807    1.4730 C   0  0  0  0  0  0  0  0  0  0  0  0
    5.7652    8.1444    1.4155 C   0  0  0  0  0  0  0  0  0  0  0  0
    4.4839    5.3690    4.2674 C   0  0  0  0  0  0  0  0  0  0  0  0
    3.2417    5.0461    4.8146 C   0  0  0  0  0  0  0  0  0  0  0  0
    3.1418    4.7004    6.1620 C   0  0  0  0  0  0  0  0  0  0  0  0
    4.2830    4.6758    6.9624 C   0  0  0  0  0  0  0  0  0  0  0  0
    5.5249    4.9988    6.4163 C   0  0  0  0  0  0  0  0  0  0  0  0
    5.6263    5.3445    5.0688 C   0  0  0  0  0  0  0  0  0  0  0  0
    1.8040    2.2616   -1.1874 C   0  0  0  0  0  0  0  0  0  0  0  0
    2.0312    2.5442   -2.5339 C   0  0  0  0  0  0  0  0  0  0  0  0
    1.0413    2.2796   -3.4796 C   0  0  0  0  0  0  0  0  0  0  0  0
   -0.1774    1.7324   -3.0789 C   0  0  0  0  0  0  0  0  0  0  0  0
   -0.4049    1.4499   -1.7314 C   0  0  0  0  0  0  0  0  0  0  0  0
    0.5851    1.7145   -0.7857 C   0  0  0  0  0  0  0  0  0  0  0  0
  1  2  1  0  0  0  0
  2  4  1  0  0  0  0
  3  1  1  0  0  0  0
  4 31  1  0  0  0  0
  5  1  1  0  0  0  0
  6  2  1  0  0  0  0
  7  1  1  0  0  0  0
  8  1  1  0  0  0  0
  9  6  1  0  0  0  0
 10  2  1  0  0  0  0
 11  2  1  0  0  0  0
 12 11  3  0  0  0  0
 13  3  1  0  0  0  0
 14 13  4  0  0  0  0
 15 14  4  0  0  0  0
 16 15  4  0  0  0  0
 17 16  4  0  0  0  0
 18 13  4  0  0  0  0
 19  3  1  0  0  0  0
 20 19  4  0  0  0  0
 21 20  4  0  0  0  0
 22 21  4  0  0  0  0
 23 22  4  0  0  0  0
 24 19  4  0  0  0  0
 25  3  1  0  0  0  0
 26 25  4  0  0  0  0
 27 26  4  0  0  0  0
 28 27  4  0  0  0  0
 29 28  4  0  0  0  0
 30 25  4  0  0  0  0
 31 32  4  0  0  0  0
 32 33  4  0  0  0  0
 33 34  4  0  0  0  0
 34 35  4  0  0  0  0
 35 36  4  0  0  0  0
 36 31  4  0  0  0  0
 37  4  1  0  0  0  0
 38 37  4  0  0  0  0
 39 38  4  0  0  0  0
 40 39  4  0  0  0  0
 41 40  4  0  0  0  0
 42 37  4  0  0  0  0
 43  4  1  0  0  0  0
 44 43  4  0  0  0  0
 45 44  4  0  0  0  0
 46 45  4  0  0  0  0
 47 46  4  0  0  0  0
 48 43  4  0  0  0  0
 49  5  1  0  0  0  0
 50 49  4  0  0  0  0
 51 50  4  0  0  0  0
 52 51  4  0  0  0  0
 53 52  4  0  0  0  0
 54 49  4  0  0  0  0
 55  5  1  0  0  0  0
 56 55  4  0  0  0  0
 57 56  4  0  0  0  0
 58 57  4  0  0  0  0
 59 58  4  0  0  0  0
 60 55  4  0  0  0  0
 61  8  1  0  0  0  0
 62 61  4  0  0  0  0
 63 62  4  0  0  0  0
 64 63  4  0  0  0  0
 65 64  4  0  0  0  0
 66 61  4  0  0  0  0
  2  5  1  0  0  0  0
  2  7  1  0  0  0  0
  6  7  1  0  0  0  0
  6  8  1  0  0  0  0
  6 10  1  0  0  0  0
  7  8  1  0  0  0  0
  8  9  1  0  0  0  0
  9 10  1  0  0  0  0
 17 18  4  0  0  0  0
 23 24  4  0  0  0  0
 29 30  4  0  0  0  0
 41 42  4  0  0  0  0
 47 48  4  0  0  0  0
 53 54  4  0  0  0  0
 59 60  4  0  0  0  0
 65 66  4  0  0  0  0
M  END
$$$$
JILQUT

From CSD data. Using bond type 'Any'. No disordered atoms. Largest molecule.
196200  0  0  0  0  0  0  0  0999 V2000
    5.0734   11.1647   13.8874 B   0  0  0  0  0  0  0  0  0  0  0  0
    4.2330   11.5374   14.6477 H   0  0  0  0  0  0  0  0  0  0  0  0
    5.8986   12.3641   13.1618 B   0  0  0  0  0  0  0  0  0  0  0  0
    5.0820   10.9774    9.2225 Br  0  0  0  0  0  0  0  0  0  0  0  0
    1.9630   11.9056   11.7655 Br  0  0  0  0  0  0  0  0  0  0  0  0
    4.5769    9.2098   16.1182 C   0  0  0  0  0  0  0  0  0  0  0  0
    5.6204    9.3866   17.0190 C   0  0  0  0  0  0  0  0  0  0  0  0
    5.3168    9.8561   18.3029 C   0  0  0  0  0  0  0  0  0  0  0  0
    6.0129    9.9718   18.9384 H   0  0  0  0  0  0  0  0  0  0  0  0
    4.0369   10.1469   18.6474 C   0  0  0  0  0  0  0  0  0  0  0  0
    3.8458   10.4651   19.5221 H   0  0  0  0  0  0  0  0  0  0  0  0
    3.0238    9.9862   17.7505 C   0  0  0  0  0  0  0  0  0  0  0  0
    2.1340   10.1930   18.0106 H   0  0  0  0  0  0  0  0  0  0  0  0
    3.2645    9.5244   16.4609 C   0  0  0  0  0  0  0  0  0  0  0  0
    2.1353    9.3764   15.4715 C   0  0  0  0  0  0  0  0  0  0  0  0
    2.5441    9.2431   14.5679 H   0  0  0  0  0  0  0  0  0  0  0  0
    1.3073    8.1288   15.7852 C   0  0  0  0  0  0  0  0  0  0  0  0
    1.8623    7.3305   15.6659 H   0  0  0  0  0  0  0  0  0  0  0  0
    0.5384    8.0867   15.1797 H   0  0  0  0  0  0  0  0  0  0  0  0
    0.9918    8.1725   16.7121 H   0  0  0  0  0  0  0  0  0  0  0  0
    1.2551   10.6138   15.3926 C   0  0  0  0  0  0  0  0  0  0  0  0
    0.8268   10.7639   16.2616 H   0  0  0  0  0  0  0  0  0  0  0  0
    0.5674   10.4821   14.7078 H   0  0  0  0  0  0  0  0  0  0  0  0
    1.8046   11.3905   15.1607 H   0  0  0  0  0  0  0  0  0  0  0  0
    7.1006    9.3585   16.6360 C   0  0  0  0  0  0  0  0  0  0  0  0
    7.1753    9.0212   15.6981 H   0  0  0  0  0  0  0  0  0  0  0  0
    7.8326    8.3788   17.5599 C   0  0  0  0  0  0  0  0  0  0  0  0
    7.8064    8.7144   18.4809 H   0  0  0  0  0  0  0  0  0  0  0  0
    8.7652    8.2907   17.2716 H   0  0  0  0  0  0  0  0  0  0  0  0
    7.3952    7.5020   17.5207 H   0  0  0  0  0  0  0  0  0  0  0  0
    7.7284   10.7490   16.6976 C   0  0  0  0  0  0  0  0  0  0  0  0
    7.2604   11.3469   16.0776 H   0  0  0  0  0  0  0  0  0  0  0  0
    8.6736   10.6926   16.4463 H   0  0  0  0  0  0  0  0  0  0  0  0
    7.6534   11.1018   17.6094 H   0  0  0  0  0  0  0  0  0  0  0  0
    5.1245    9.6081   13.7084 C   0  0  0  0  0  0  0  0  0  0  0  0
    4.6216    7.3710   14.2897 B   0  0  0  0  0  0  0  0  0  0  0  0
    5.0719    8.8942   12.5497 C   0  0  0  0  0  0  0  0  0  0  0  0
    5.1992    9.2924   11.6961 H   0  0  0  0  0  0  0  0  0  0  0  0
    4.7953    7.4169   12.7287 C   0  0  0  0  0  0  0  0  0  0  0  0
    1.8483    8.1747   12.0685 C   0  0  0  0  0  0  0  0  0  0  0  0
    1.1219    8.0018   11.4338 H   0  0  0  0  0  0  0  0  0  0  0  0
    2.2058    9.0754   11.9171 H   0  0  0  0  0  0  0  0  0  0  0  0
    1.5043    8.1105   12.9839 H   0  0  0  0  0  0  0  0  0  0  0  0
    2.5359    5.2763   12.4419 C   0  0  0  0  0  0  0  0  0  0  0  0
    2.5177    5.2795   13.4225 H   0  0  0  0  0  0  0  0  0  0  0  0
    3.1121    4.5475   12.1294 H   0  0  0  0  0  0  0  0  0  0  0  0
    1.6270    5.1430   12.1000 H   0  0  0  0  0  0  0  0  0  0  0  0
    3.4983    6.7561    9.9839 C   0  0  0  0  0  0  0  0  0  0  0  0
    2.6473    6.5754    9.5321 H   0  0  0  0  0  0  0  0  0  0  0  0
    4.1217    6.0207    9.8144 H   0  0  0  0  0  0  0  0  0  0  0  0
    3.8780    7.5928    9.6400 H   0  0  0  0  0  0  0  0  0  0  0  0
    5.9836    4.5849   12.1897 C   0  0  0  0  0  0  0  0  0  0  0  0
    5.6075    4.2991   13.0483 H   0  0  0  0  0  0  0  0  0  0  0  0
    6.8175    4.1002   12.0200 H   0  0  0  0  0  0  0  0  0  0  0  0
    5.3429    4.3955   11.4729 H   0  0  0  0  0  0  0  0  0  0  0  0
    7.6911    6.7000   13.5371 C   0  0  0  0  0  0  0  0  0  0  0  0
    7.7961    7.6573   13.7149 H   0  0  0  0  0  0  0  0  0  0  0  0
    8.5369    6.3353   13.2004 H   0  0  0  0  0  0  0  0  0  0  0  0
    7.4445    6.2382   14.3659 H   0  0  0  0  0  0  0  0  0  0  0  0
    7.0298    6.9934   10.5921 C   0  0  0  0  0  0  0  0  0  0  0  0
    6.4074    6.7448    9.8769 H   0  0  0  0  0  0  0  0  0  0  0  0
    7.8939    6.5565   10.4392 H   0  0  0  0  0  0  0  0  0  0  0  0
    7.1513    7.9654   10.5965 H   0  0  0  0  0  0  0  0  0  0  0  0
    4.4485    6.1285   16.4050 C   0  0  0  0  0  0  0  0  0  0  0  0
    5.2168    6.6303   16.7484 H   0  0  0  0  0  0  0  0  0  0  0  0
    4.5210    5.1907   16.6805 H   0  0  0  0  0  0  0  0  0  0  0  0
    3.6210    6.5113   16.7646 H   0  0  0  0  0  0  0  0  0  0  0  0
    4.4280    6.2050   14.9884 O   0  0  0  0  0  0  0  0  0  0  0  0
    3.2055    6.9161   11.8221 Si  0  0  0  0  0  0  0  0  0  0  0  0
    6.3354    6.4423   12.2444 Si  0  0  0  0  0  0  0  0  0  0  0  0
    3.7370   14.3465   14.0491 C   0  0  0  0  0  0  0  0  0  0  0  0
    3.2426   13.5648   14.3744 H   0  0  0  0  0  0  0  0  0  0  0  0
    3.4458   14.5610   13.1385 H   0  0  0  0  0  0  0  0  0  0  0  0
    3.5619   15.1109   14.6369 H   0  0  0  0  0  0  0  0  0  0  0  0
    5.9464   13.9944   15.8006 C   0  0  0  0  0  0  0  0  0  0  0  0
    5.6674   14.8449   16.2023 H   0  0  0  0  0  0  0  0  0  0  0  0
    6.9168   13.8937   15.8934 H   0  0  0  0  0  0  0  0  0  0  0  0
    5.4955   13.2548   16.2578 H   0  0  0  0  0  0  0  0  0  0  0  0
    6.2361   15.4969   13.3870 C   0  0  0  0  0  0  0  0  0  0  0  0
    5.8812   16.2707   13.8718 H   0  0  0  0  0  0  0  0  0  0  0  0
    6.0162   15.5792   12.4349 H   0  0  0  0  0  0  0  0  0  0  0  0
    7.2099   15.4624   13.4944 H   0  0  0  0  0  0  0  0  0  0  0  0
    8.8948   12.9484   13.7026 C   0  0  0  0  0  0  0  0  0  0  0  0
    9.8011   12.7708   13.3756 H   0  0  0  0  0  0  0  0  0  0  0  0
    8.7881   12.5603   14.5965 H   0  0  0  0  0  0  0  0  0  0  0  0
    8.7483   13.9169   13.7485 H   0  0  0  0  0  0  0  0  0  0  0  0
    8.0992   12.9177   11.0021 C   0  0  0  0  0  0  0  0  0  0  0  0
    9.0570   12.7995   10.8290 H   0  0  0  0  0  0  0  0  0  0  0  0
    7.8833   13.8727   11.0070 H   0  0  0  0  0  0  0  0  0  0  0  0
    7.5831   12.4682   10.3009 H   0  0  0  0  0  0  0  0  0  0  0  0
    8.2463   10.5169   12.3995 C   0  0  0  0  0  0  0  0  0  0  0  0
    7.7247   10.0764   11.6973 H   0  0  0  0  0  0  0  0  0  0  0  0
    8.1197   10.0416   13.2477 H   0  0  0  0  0  0  0  0  0  0  0  0
    9.1954   10.5075   12.1583 H   0  0  0  0  0  0  0  0  0  0  0  0
    4.8411    8.6972   14.7922 N   0  0  0  0  0  0  0  0  0  0  0  0
    4.3535   12.2437   11.3492 Mg  0  0  0  0  0  0  0  0  0  0  0  0
    5.5024   13.9822   14.0462 P   0  0  0  0  0  0  0  0  0  0  0  0
    7.6934   12.2110   12.5791 P   0  0  0  0  0  0  0  0  0  0  0  0
    4.5063   14.3493    5.3606 B   0  0  0  0  0  0  0  0  0  0  0  0
    5.3467   13.9766    4.6003 H   0  0  0  0  0  0  0  0  0  0  0  0
    3.6812   13.1499    6.0862 B   0  0  0  0  0  0  0  0  0  0  0  0
    4.4977   14.5366   10.0255 Br  0  0  0  0  0  0  0  0  0  0  0  0
    7.6167   13.6084    7.4824 Br  0  0  0  0  0  0  0  0  0  0  0  0
    5.0028   16.3042    3.1297 C   0  0  0  0  0  0  0  0  0  0  0  0
    3.9593   16.1274    2.2289 C   0  0  0  0  0  0  0  0  0  0  0  0
    4.2629   15.6579    0.9451 C   0  0  0  0  0  0  0  0  0  0  0  0
    3.5669   15.5422    0.3096 H   0  0  0  0  0  0  0  0  0  0  0  0
    5.5428   15.3671    0.6005 C   0  0  0  0  0  0  0  0  0  0  0  0
    5.7339   15.0489   -0.2741 H   0  0  0  0  0  0  0  0  0  0  0  0
    6.5560   15.5278    1.4975 C   0  0  0  0  0  0  0  0  0  0  0  0
    7.4458   15.3210    1.2374 H   0  0  0  0  0  0  0  0  0  0  0  0
    6.3152   15.9896    2.7871 C   0  0  0  0  0  0  0  0  0  0  0  0
    7.4444   16.1376    3.7764 C   0  0  0  0  0  0  0  0  0  0  0  0
    7.0356   16.2709    4.6800 H   0  0  0  0  0  0  0  0  0  0  0  0
    8.2724   17.3852    3.4627 C   0  0  0  0  0  0  0  0  0  0  0  0
    7.7174   18.1835    3.5820 H   0  0  0  0  0  0  0  0  0  0  0  0
    9.0413   17.4273    4.0683 H   0  0  0  0  0  0  0  0  0  0  0  0
    8.5879   17.3415    2.5359 H   0  0  0  0  0  0  0  0  0  0  0  0
    8.3246   14.9002    3.8554 C   0  0  0  0  0  0  0  0  0  0  0  0
    8.7530   14.7501    2.9863 H   0  0  0  0  0  0  0  0  0  0  0  0
    9.0124   15.0319    4.5401 H   0  0  0  0  0  0  0  0  0  0  0  0
    7.7751   14.1235    4.0873 H   0  0  0  0  0  0  0  0  0  0  0  0
    2.4792   16.1555    2.6119 C   0  0  0  0  0  0  0  0  0  0  0  0
    2.4044   16.4928    3.5499 H   0  0  0  0  0  0  0  0  0  0  0  0
    1.7471   17.1352    1.6880 C   0  0  0  0  0  0  0  0  0  0  0  0
    1.7733   16.7996    0.7671 H   0  0  0  0  0  0  0  0  0  0  0  0
    0.8146   17.2233    1.9764 H   0  0  0  0  0  0  0  0  0  0  0  0
    2.1846   18.0120    1.7273 H   0  0  0  0  0  0  0  0  0  0  0  0
    1.8513   14.7650    2.5504 C   0  0  0  0  0  0  0  0  0  0  0  0
    2.3193   14.1671    3.1704 H   0  0  0  0  0  0  0  0  0  0  0  0
    0.9061   14.8214    2.8017 H   0  0  0  0  0  0  0  0  0  0  0  0
    1.9263   14.4122    1.6385 H   0  0  0  0  0  0  0  0  0  0  0  0
    4.4552   15.9059    5.5396 C   0  0  0  0  0  0  0  0  0  0  0  0
    4.9582   18.1430    4.9583 B   0  0  0  0  0  0  0  0  0  0  0  0
    4.5079   16.6198    6.6983 C   0  0  0  0  0  0  0  0  0  0  0  0
    4.3805   16.2216    7.5519 H   0  0  0  0  0  0  0  0  0  0  0  0
    4.7844   18.0971    6.5193 C   0  0  0  0  0  0  0  0  0  0  0  0
    7.7314   17.3393    7.1795 C   0  0  0  0  0  0  0  0  0  0  0  0
    8.4578   17.5122    7.8142 H   0  0  0  0  0  0  0  0  0  0  0  0
    7.3739   16.4386    7.3308 H   0  0  0  0  0  0  0  0  0  0  0  0
    8.0754   17.4035    6.2640 H   0  0  0  0  0  0  0  0  0  0  0  0
    7.0438   20.2377    6.8061 C   0  0  0  0  0  0  0  0  0  0  0  0
    7.0620   20.2345    5.8255 H   0  0  0  0  0  0  0  0  0  0  0  0
    6.4676   20.9665    7.1185 H   0  0  0  0  0  0  0  0  0  0  0  0
    7.9527   20.3710    7.1480 H   0  0  0  0  0  0  0  0  0  0  0  0
    6.0814   18.7579    9.2640 C   0  0  0  0  0  0  0  0  0  0  0  0
    6.9324   18.9386    9.7159 H   0  0  0  0  0  0  0  0  0  0  0  0
    5.4580   19.4933    9.4335 H   0  0  0  0  0  0  0  0  0  0  0  0
    5.7017   17.9212    9.6079 H   0  0  0  0  0  0  0  0  0  0  0  0
    3.5962   20.9291    7.0582 C   0  0  0  0  0  0  0  0  0  0  0  0
    3.9722   21.2149    6.1997 H   0  0  0  0  0  0  0  0  0  0  0  0
    2.7622   21.4138    7.2280 H   0  0  0  0  0  0  0  0  0  0  0  0
    4.2368   21.1185    7.7750 H   0  0  0  0  0  0  0  0  0  0  0  0
    1.8886   18.8140    5.7109 C   0  0  0  0  0  0  0  0  0  0  0  0
    1.7836   17.8567    5.5331 H   0  0  0  0  0  0  0  0  0  0  0  0
    1.0428   19.1787    6.0476 H   0  0  0  0  0  0  0  0  0  0  0  0
    2.1352   19.2758    4.8821 H   0  0  0  0  0  0  0  0  0  0  0  0
    2.5499   18.5206    8.6558 C   0  0  0  0  0  0  0  0  0  0  0  0
    3.1723   18.7692    9.3711 H   0  0  0  0  0  0  0  0  0  0  0  0
    1.6858   18.9575    8.8088 H   0  0  0  0  0  0  0  0  0  0  0  0
    2.4284   17.5486    8.6514 H   0  0  0  0  0  0  0  0  0  0  0  0
    5.1313   19.3855    2.8429 C   0  0  0  0  0  0  0  0  0  0  0  0
    4.3629   18.8837    2.4995 H   0  0  0  0  0  0  0  0  0  0  0  0
    5.0587   20.3233    2.5674 H   0  0  0  0  0  0  0  0  0  0  0  0
    5.9588   19.0027    2.4834 H   0  0  0  0  0  0  0  0  0  0  0  0
    5.1518   19.3090    4.2596 O   0  0  0  0  0  0  0  0  0  0  0  0
    6.3742   18.5979    7.4259 Si  0  0  0  0  0  0  0  0  0  0  0  0
    3.2444   19.0717    7.0036 Si  0  0  0  0  0  0  0  0  0  0  0  0
    5.8427   11.1675    5.1989 C   0  0  0  0  0  0  0  0  0  0  0  0
    6.3371   11.9492    4.8735 H   0  0  0  0  0  0  0  0  0  0  0  0
    6.1339   10.9530    6.1094 H   0  0  0  0  0  0  0  0  0  0  0  0
    6.0178   10.4031    4.6110 H   0  0  0  0  0  0  0  0  0  0  0  0
    3.6333   11.5196    3.4473 C   0  0  0  0  0  0  0  0  0  0  0  0
    3.9123   10.6691    3.0457 H   0  0  0  0  0  0  0  0  0  0  0  0
    2.6629   11.6203    3.3546 H   0  0  0  0  0  0  0  0  0  0  0  0
    4.0842   12.2592    2.9901 H   0  0  0  0  0  0  0  0  0  0  0  0
    3.3436   10.0171    5.8610 C   0  0  0  0  0  0  0  0  0  0  0  0
    3.6985    9.2433    5.3762 H   0  0  0  0  0  0  0  0  0  0  0  0
    3.5635    9.9348    6.8131 H   0  0  0  0  0  0  0  0  0  0  0  0
    2.3698   10.0516    5.7536 H   0  0  0  0  0  0  0  0  0  0  0  0
    0.6849   12.5656    5.5453 C   0  0  0  0  0  0  0  0  0  0  0  0
   -0.2214   12.7432    5.8724 H   0  0  0  0  0  0  0  0  0  0  0  0
    0.7916   12.9537    4.6515 H   0  0  0  0  0  0  0  0  0  0  0  0
    0.8314   11.5971    5.4995 H   0  0  0  0  0  0  0  0  0  0  0  0
    1.4805   12.5963    8.2458 C   0  0  0  0  0  0  0  0  0  0  0  0
    0.5227   12.7145    8.4189 H   0  0  0  0  0  0  0  0  0  0  0  0
    1.6965   11.6413    8.2410 H   0  0  0  0  0  0  0  0  0  0  0  0
    1.9966   13.0458    8.9470 H   0  0  0  0  0  0  0  0  0  0  0  0
    1.3334   14.9971    6.8484 C   0  0  0  0  0  0  0  0  0  0  0  0
    1.8550   15.4376    7.5507 H   0  0  0  0  0  0  0  0  0  0  0  0
    1.4600   15.4724    6.0002 H   0  0  0  0  0  0  0  0  0  0  0  0
    0.3843   15.0065    7.0897 H   0  0  0  0  0  0  0  0  0  0  0  0
    4.7386   16.8168    4.4557 N   0  0  0  0  0  0  0  0  0  0  0  0
    5.2262   13.2703    7.8988 Mg  0  0  0  0  0  0  0  0  0  0  0  0
    4.0773   11.5318    5.2018 P   0  0  0  0  0  0  0  0  0  0  0  0
    1.8863   13.3030    6.6688 P   0  0  0  0  0  0  0  0  0  0  0  0
  1  2  1  0  0  0  0
  3  1  1  0  0  0  0
  4 96  1  0  0  0  0
  5 96  1  0  0  0  0
  6  7  4  0  0  0  0
  7  8  4  0  0  0  0
  8  9  1  0  0  0  0
 10  8  4  0  0  0  0
 11 10  1  0  0  0  0
 12 10  4  0  0  0  0
 13 12  1  0  0  0  0
 14  6  4  0  0  0  0
 15 14  1  0  0  0  0
 16 15  1  0  0  0  0
 17 15  1  0  0  0  0
 18 17  1  0  0  0  0
 19 17  1  0  0  0  0
 20 17  1  0  0  0  0
 21 15  1  0  0  0  0
 22 21  1  0  0  0  0
 23 21  1  0  0  0  0
 24 21  1  0  0  0  0
 25  7  1  0  0  0  0
 26 25  1  0  0  0  0
 27 25  1  0  0  0  0
 28 27  1  0  0  0  0
 29 27  1  0  0  0  0
 30 27  1  0  0  0  0
 31 25  1  0  0  0  0
 32 31  1  0  0  0  0
 33 31  1  0  0  0  0
 34 31  1  0  0  0  0
 35  1  1  0  0  0  0
 36 39  1  0  0  0  0
 37 35  2  0  0  0  0
 38 37  1  0  0  0  0
 39 37  1  0  0  0  0
 40 41  1  0  0  0  0
 42 40  1  0  0  0  0
 43 40  1  0  0  0  0
 44 45  1  0  0  0  0
 46 44  1  0  0  0  0
 47 44  1  0  0  0  0
 48 49  1  0  0  0  0
 50 48  1  0  0  0  0
 51 48  1  0  0  0  0
 52 53  1  0  0  0  0
 54 52  1  0  0  0  0
 55 52  1  0  0  0  0
 56 57  1  0  0  0  0
 58 56  1  0  0  0  0
 59 56  1  0  0  0  0
 60 61  1  0  0  0  0
 62 60  1  0  0  0  0
 63 60  1  0  0  0  0
 64 65  1  0  0  0  0
 66 64  1  0  0  0  0
 67 64  1  0  0  0  0
 68 36  1  0  0  0  0
 69 39  1  0  0  0  0
 70 39  1  0  0  0  0
 71 72  1  0  0  0  0
 73 71  1  0  0  0  0
 74 71  1  0  0  0  0
 75 76  1  0  0  0  0
 77 75  1  0  0  0  0
 78 75  1  0  0  0  0
 79 80  1  0  0  0  0
 81 79  1  0  0  0  0
 82 79  1  0  0  0  0
 83 84  1  0  0  0  0
 85 83  1  0  0  0  0
 86 83  1  0  0  0  0
 87 88  1  0  0  0  0
 89 87  1  0  0  0  0
 90 87  1  0  0  0  0
 91 92  1  0  0  0  0
 93 91  1  0  0  0  0
 94 91  1  0  0  0  0
 95  6  1  0  0  0  0
 96  3  1  0  0  0  0
 97  3  1  0  0  0  0
 98  3  1  0  0  0  0
 99100  1  0  0  0  0
101 99  1  0  0  0  0
102 96  1  0  0  0  0
103194  1  0  0  0  0
104105  4  0  0  0  0
105106  4  0  0  0  0
106107  1  0  0  0  0
108106  4  0  0  0  0
109108  1  0  0  0  0
110108  4  0  0  0  0
111110  1  0  0  0  0
112104  4  0  0  0  0
113112  1  0  0  0  0
114113  1  0  0  0  0
115113  1  0  0  0  0
116115  1  0  0  0  0
117115  1  0  0  0  0
118115  1  0  0  0  0
119113  1  0  0  0  0
120119  1  0  0  0  0
121119  1  0  0  0  0
122119  1  0  0  0  0
123105  1  0  0  0  0
124123  1  0  0  0  0
125123  1  0  0  0  0
126125  1  0  0  0  0
127125  1  0  0  0  0
128125  1  0  0  0  0
129123  1  0  0  0  0
130129  1  0  0  0  0
131129  1  0  0  0  0
132129  1  0  0  0  0
133 99  1  0  0  0  0
134137  1  0  0  0  0
135133  2  0  0  0  0
136135  1  0  0  0  0
137135  1  0  0  0  0
138139  1  0  0  0  0
140138  1  0  0  0  0
141138  1  0  0  0  0
142143  1  0  0  0  0
144142  1  0  0  0  0
145142  1  0  0  0  0
146147  1  0  0  0  0
148146  1  0  0  0  0
149146  1  0  0  0  0
150151  1  0  0  0  0
152150  1  0  0  0  0
153150  1  0  0  0  0
154155  1  0  0  0  0
156154  1  0  0  0  0
157154  1  0  0  0  0
158159  1  0  0  0  0
160158  1  0  0  0  0
161158  1  0  0  0  0
162163  1  0  0  0  0
164162  1  0  0  0  0
165162  1  0  0  0  0
166134  1  0  0  0  0
167137  1  0  0  0  0
168137  1  0  0  0  0
169170  1  0  0  0  0
171169  1  0  0  0  0
172169  1  0  0  0  0
173174  1  0  0  0  0
175173  1  0  0  0  0
176173  1  0  0  0  0
177178  1  0  0  0  0
179177  1  0  0  0  0
180177  1  0  0  0  0
181182  1  0  0  0  0
183181  1  0  0  0  0
184181  1  0  0  0  0
185186  1  0  0  0  0
187185  1  0  0  0  0
188185  1  0  0  0  0
189190  1  0  0  0  0
191189  1  0  0  0  0
192189  1  0  0  0  0
193104  1  0  0  0  0
194  4  1  0  0  0  0
195101  1  0  0  0  0
196101  1  0  0  0  0
 12 14  4  0  0  0  0
 35 95  1  0  0  0  0
 36 95  1  0  0  0  0
 40 69  1  0  0  0  0
 44 69  1  0  0  0  0
 48 69  1  0  0  0  0
 52 70  1  0  0  0  0
 56 70  1  0  0  0  0
 60 70  1  0  0  0  0
 64 68  1  0  0  0  0
 71 97  1  0  0  0  0
 75 97  1  0  0  0  0
 79 97  1  0  0  0  0
 83 98  1  0  0  0  0
 87 98  1  0  0  0  0
 91 98  1  0  0  0  0
101194  1  0  0  0  0
102194  1  0  0  0  0
110112  4  0  0  0  0
133193  1  0  0  0  0
134193  1  0  0  0  0
138167  1  0  0  0  0
142167  1  0  0  0  0
146167  1  0  0  0  0
150168  1  0  0  0  0
154168  1  0  0  0  0
158168  1  0  0  0  0
162166  1  0  0  0  0
169195  1  0  0  0  0
173195  1  0  0  0  0
177195  1  0  0  0  0
181196  1  0  0  0  0
185196  1  0  0  0  0
189196  1  0  0  0  0
M  END
$$$$
JILRAA

From CSD data. Using bond type 'Any'. No disordered atoms. Largest molecule.
196200  0  0  0  0  0  0  0  0999 V2000
   -0.5246   10.3893    2.5941 B   0  0  0  0  0  0  0  0  0  0  0  0
    2.0215   13.0888    3.0278 B   0  0  0  0  0  0  0  0  0  0  0  0
    3.1166   14.1781    3.3321 B   0  0  0  0  0  0  0  0  0  0  0  0
    1.7998   14.5313   -0.8397 Br  0  0  0  0  0  0  0  0  0  0  0  0
   -0.0935   16.5003    2.2049 Br  0  0  0  0  0  0  0  0  0  0  0  0
    1.8087   10.1725    3.6782 C   0  0  0  0  0  0  0  0  0  0  0  0
    1.7793   10.1705    5.0787 C   0  0  0  0  0  0  0  0  0  0  0  0
    2.8410    9.5604    5.7655 C   0  0  0  0  0  0  0  0  0  0  0  0
    2.8405    9.5508    6.7154 H   0  0  0  0  0  0  0  0  0  0  0  0
    3.8732    8.9799    5.0881 C   0  0  0  0  0  0  0  0  0  0  0  0
    4.5900    8.5846    5.5712 H   0  0  0  0  0  0  0  0  0  0  0  0
    3.8871    8.9627    3.7054 C   0  0  0  0  0  0  0  0  0  0  0  0
    4.6056    8.5442    3.2459 H   0  0  0  0  0  0  0  0  0  0  0  0
    2.8514    9.5551    2.9785 C   0  0  0  0  0  0  0  0  0  0  0  0
    2.8318    9.4736    1.4670 C   0  0  0  0  0  0  0  0  0  0  0  0
    2.3568   10.2810    1.1166 H   0  0  0  0  0  0  0  0  0  0  0  0
    4.2220    9.4271    0.8343 C   0  0  0  0  0  0  0  0  0  0  0  0
    4.7563   10.1790    1.1652 H   0  0  0  0  0  0  0  0  0  0  0  0
    4.1387    9.4901   -0.1406 H   0  0  0  0  0  0  0  0  0  0  0  0
    4.6605    8.5843    1.0711 H   0  0  0  0  0  0  0  0  0  0  0  0
    2.0431    8.2339    1.0424 C   0  0  0  0  0  0  0  0  0  0  0  0
    2.4984    7.4296    1.3689 H   0  0  0  0  0  0  0  0  0  0  0  0
    1.9862    8.2020    0.0642 H   0  0  0  0  0  0  0  0  0  0  0  0
    1.1408    8.2753    1.4211 H   0  0  0  0  0  0  0  0  0  0  0  0
    0.6290   10.7769    5.8408 C   0  0  0  0  0  0  0  0  0  0  0  0
    0.1586   11.4052    5.2208 H   0  0  0  0  0  0  0  0  0  0  0  0
   -0.3846    9.7069    6.2594 C   0  0  0  0  0  0  0  0  0  0  0  0
   -0.6550    9.1881    5.4730 H   0  0  0  0  0  0  0  0  0  0  0  0
   -1.1703   10.1369    6.6542 H   0  0  0  0  0  0  0  0  0  0  0  0
    0.0270    9.1085    6.9186 H   0  0  0  0  0  0  0  0  0  0  0  0
    1.0713   11.5829    7.0540 C   0  0  0  0  0  0  0  0  0  0  0  0
    1.4485   10.9790    7.7280 H   0  0  0  0  0  0  0  0  0  0  0  0
    0.3001   12.0539    7.4333 H   0  0  0  0  0  0  0  0  0  0  0  0
    1.7513   12.2348    6.7834 H   0  0  0  0  0  0  0  0  0  0  0  0
    0.9922   12.2156    2.5652 C   0  0  0  0  0  0  0  0  0  0  0  0
   -0.0919   12.5295    1.5550 C   0  0  0  0  0  0  0  0  0  0  0  0
    0.2494   12.3955    0.6355 H   0  0  0  0  0  0  0  0  0  0  0  0
   -0.3818   13.4717    1.6475 H   0  0  0  0  0  0  0  0  0  0  0  0
   -1.3175   11.5472    1.8352 C   0  0  0  0  0  0  0  0  0  0  0  0
   -2.0726    8.4560    2.6135 C   0  0  0  0  0  0  0  0  0  0  0  0
   -2.7708    9.1305    2.4872 H   0  0  0  0  0  0  0  0  0  0  0  0
   -2.3283    7.8505    3.3397 H   0  0  0  0  0  0  0  0  0  0  0  0
   -1.9600    7.9428    1.7851 H   0  0  0  0  0  0  0  0  0  0  0  0
   -1.7470   13.3086    4.4042 C   0  0  0  0  0  0  0  0  0  0  0  0
   -0.9446   13.7829    4.1021 H   0  0  0  0  0  0  0  0  0  0  0  0
   -1.4988   12.6387    5.0741 H   0  0  0  0  0  0  0  0  0  0  0  0
   -2.3751   13.9494    4.7999 H   0  0  0  0  0  0  0  0  0  0  0  0
   -3.3968   13.8389    1.9973 C   0  0  0  0  0  0  0  0  0  0  0  0
   -3.9802   14.3423    2.6032 H   0  0  0  0  0  0  0  0  0  0  0  0
   -3.9314   13.4587    1.2698 H   0  0  0  0  0  0  0  0  0  0  0  0
   -2.7174   14.4390    1.6250 H   0  0  0  0  0  0  0  0  0  0  0  0
   -3.8890   11.3324    3.6344 C   0  0  0  0  0  0  0  0  0  0  0  0
   -4.5131   11.8582    4.1756 H   0  0  0  0  0  0  0  0  0  0  0  0
   -3.4728   10.6422    4.1914 H   0  0  0  0  0  0  0  0  0  0  0  0
   -4.3733   10.9082    2.8954 H   0  0  0  0  0  0  0  0  0  0  0  0
   -2.0143   12.5985   -1.0176 C   0  0  0  0  0  0  0  0  0  0  0  0
   -1.0943   12.9225   -1.1120 H   0  0  0  0  0  0  0  0  0  0  0  0
   -2.5759   13.3110   -0.6486 H   0  0  0  0  0  0  0  0  0  0  0  0
   -2.3584   12.3323   -1.8959 H   0  0  0  0  0  0  0  0  0  0  0  0
   -3.8202   10.5110    0.1305 C   0  0  0  0  0  0  0  0  0  0  0  0
   -4.0925   10.3112   -0.7893 H   0  0  0  0  0  0  0  0  0  0  0  0
   -4.4041   11.2076    0.4992 H   0  0  0  0  0  0  0  0  0  0  0  0
   -3.8951    9.7008    0.6768 H   0  0  0  0  0  0  0  0  0  0  0  0
   -0.9849    9.8000   -0.6691 C   0  0  0  0  0  0  0  0  0  0  0  0
   -0.0483   10.0853   -0.6661 H   0  0  0  0  0  0  0  0  0  0  0  0
   -1.2837    9.6655   -1.5927 H   0  0  0  0  0  0  0  0  0  0  0  0
   -1.0723    8.9590   -0.1724 H   0  0  0  0  0  0  0  0  0  0  0  0
    4.7918   13.1304    1.0072 C   0  0  0  0  0  0  0  0  0  0  0  0
    5.6018   12.6117    0.8166 H   0  0  0  0  0  0  0  0  0  0  0  0
    4.7467   13.8992    0.4014 H   0  0  0  0  0  0  0  0  0  0  0  0
    4.0033   12.5640    0.8765 H   0  0  0  0  0  0  0  0  0  0  0  0
    5.5641   12.3521    3.6559 C   0  0  0  0  0  0  0  0  0  0  0  0
    4.9835   11.5646    3.5931 H   0  0  0  0  0  0  0  0  0  0  0  0
    5.6543   12.6178    4.5941 H   0  0  0  0  0  0  0  0  0  0  0  0
    6.4476   12.1357    3.2905 H   0  0  0  0  0  0  0  0  0  0  0  0
    6.1267   14.9875    2.7621 C   0  0  0  0  0  0  0  0  0  0  0  0
    6.9619   14.6235    2.4011 H   0  0  0  0  0  0  0  0  0  0  0  0
    6.2688   15.2708    3.6902 H   0  0  0  0  0  0  0  0  0  0  0  0
    5.8458   15.7568    2.2253 H   0  0  0  0  0  0  0  0  0  0  0  0
    4.0562   14.6287    6.2693 C   0  0  0  0  0  0  0  0  0  0  0  0
    3.9339   15.2111    7.0487 H   0  0  0  0  0  0  0  0  0  0  0  0
    4.9967   14.6436    5.9953 H   0  0  0  0  0  0  0  0  0  0  0  0
    3.7976   13.7130    6.5025 H   0  0  0  0  0  0  0  0  0  0  0  0
    3.5086   16.9454    4.7197 C   0  0  0  0  0  0  0  0  0  0  0  0
    2.8542   17.4105    4.1578 H   0  0  0  0  0  0  0  0  0  0  0  0
    4.3923   16.9908    4.2963 H   0  0  0  0  0  0  0  0  0  0  0  0
    3.5466   17.3727    5.6001 H   0  0  0  0  0  0  0  0  0  0  0  0
    1.3525   15.2590    5.5674 C   0  0  0  0  0  0  0  0  0  0  0  0
    1.3207   15.8595    6.3408 H   0  0  0  0  0  0  0  0  0  0  0  0
    1.0896   14.3559    5.8440 H   0  0  0  0  0  0  0  0  0  0  0  0
    0.7360   15.5813    4.8773 H   0  0  0  0  0  0  0  0  0  0  0  0
    2.0087   15.3898    1.5748 Mg  0  0  0  0  0  0  0  0  0  0  0  0
    0.7679   10.8468    2.9463 N   0  0  0  0  0  0  0  0  0  0  0  0
   -0.8460    9.0980    2.9412 O   0  0  0  0  0  0  0  0  0  0  0  0
    4.8388   13.7107    2.7114 P   0  0  0  0  0  0  0  0  0  0  0  0
    3.0215   15.2198    4.9079 P   0  0  0  0  0  0  0  0  0  0  0  0
   -2.5596   12.4604    2.9419 Si  0  0  0  0  0  0  0  0  0  0  0  0
   -2.0404   11.1141    0.1419 Si  0  0  0  0  0  0  0  0  0  0  0  0
    5.9869   21.3895   -2.5941 B   0  0  0  0  0  0  0  0  0  0  0  0
    3.4409   18.6900   -3.0278 B   0  0  0  0  0  0  0  0  0  0  0  0
    2.3457   17.6006   -3.3321 B   0  0  0  0  0  0  0  0  0  0  0  0
    3.6626   17.2475    0.8397 Br  0  0  0  0  0  0  0  0  0  0  0  0
    5.5558   15.2784   -2.2049 Br  0  0  0  0  0  0  0  0  0  0  0  0
    3.6537   21.6063   -3.6782 C   0  0  0  0  0  0  0  0  0  0  0  0
    3.6830   21.6083   -5.0787 C   0  0  0  0  0  0  0  0  0  0  0  0
    2.6213   22.2184   -5.7655 C   0  0  0  0  0  0  0  0  0  0  0  0
    2.6218   22.2279   -6.7154 H   0  0  0  0  0  0  0  0  0  0  0  0
    1.5891   22.7989   -5.0881 C   0  0  0  0  0  0  0  0  0  0  0  0
    0.8724   23.1941   -5.5712 H   0  0  0  0  0  0  0  0  0  0  0  0
    1.5752   22.8160   -3.7054 C   0  0  0  0  0  0  0  0  0  0  0  0
    0.8567   23.2346   -3.2459 H   0  0  0  0  0  0  0  0  0  0  0  0
    2.6109   22.2237   -2.9785 C   0  0  0  0  0  0  0  0  0  0  0  0
    2.6305   22.3052   -1.4670 C   0  0  0  0  0  0  0  0  0  0  0  0
    3.1055   21.4978   -1.1166 H   0  0  0  0  0  0  0  0  0  0  0  0
    1.2403   22.3517   -0.8343 C   0  0  0  0  0  0  0  0  0  0  0  0
    0.7060   21.5998   -1.1652 H   0  0  0  0  0  0  0  0  0  0  0  0
    1.3236   22.2886    0.1406 H   0  0  0  0  0  0  0  0  0  0  0  0
    0.8018   23.1945   -1.0711 H   0  0  0  0  0  0  0  0  0  0  0  0
    3.4192   23.5448   -1.0424 C   0  0  0  0  0  0  0  0  0  0  0  0
    2.9639   24.3491   -1.3689 H   0  0  0  0  0  0  0  0  0  0  0  0
    3.4761   23.5767   -0.0642 H   0  0  0  0  0  0  0  0  0  0  0  0
    4.3215   23.5034   -1.4211 H   0  0  0  0  0  0  0  0  0  0  0  0
    4.8333   21.0019   -5.8408 C   0  0  0  0  0  0  0  0  0  0  0  0
    5.3037   20.3735   -5.2208 H   0  0  0  0  0  0  0  0  0  0  0  0
    5.8470   22.0719   -6.2594 C   0  0  0  0  0  0  0  0  0  0  0  0
    6.1174   22.5907   -5.4730 H   0  0  0  0  0  0  0  0  0  0  0  0
    6.6326   21.6418   -6.6542 H   0  0  0  0  0  0  0  0  0  0  0  0
    5.4353   22.6703   -6.9186 H   0  0  0  0  0  0  0  0  0  0  0  0
    4.3910   20.1959   -7.0540 C   0  0  0  0  0  0  0  0  0  0  0  0
    4.0139   20.7998   -7.7280 H   0  0  0  0  0  0  0  0  0  0  0  0
    5.1622   19.7248   -7.4333 H   0  0  0  0  0  0  0  0  0  0  0  0
    3.7110   19.5439   -6.7834 H   0  0  0  0  0  0  0  0  0  0  0  0
    4.4701   19.5632   -2.5652 C   0  0  0  0  0  0  0  0  0  0  0  0
    5.5542   19.2492   -1.5550 C   0  0  0  0  0  0  0  0  0  0  0  0
    5.2129   19.3833   -0.6355 H   0  0  0  0  0  0  0  0  0  0  0  0
    5.8442   18.3071   -1.6475 H   0  0  0  0  0  0  0  0  0  0  0  0
    6.7798   20.2316   -1.8352 C   0  0  0  0  0  0  0  0  0  0  0  0
    7.5349   23.3228   -2.6135 C   0  0  0  0  0  0  0  0  0  0  0  0
    8.2331   22.6482   -2.4872 H   0  0  0  0  0  0  0  0  0  0  0  0
    7.7906   23.9283   -3.3397 H   0  0  0  0  0  0  0  0  0  0  0  0
    7.4224   23.8360   -1.7851 H   0  0  0  0  0  0  0  0  0  0  0  0
    7.2093   18.4701   -4.4042 C   0  0  0  0  0  0  0  0  0  0  0  0
    6.4069   17.9959   -4.1021 H   0  0  0  0  0  0  0  0  0  0  0  0
    6.9611   19.1400   -5.0741 H   0  0  0  0  0  0  0  0  0  0  0  0
    7.8374   17.8293   -4.7999 H   0  0  0  0  0  0  0  0  0  0  0  0
    8.8592   17.9399   -1.9973 C   0  0  0  0  0  0  0  0  0  0  0  0
    9.4425   17.4365   -2.6032 H   0  0  0  0  0  0  0  0  0  0  0  0
    9.3937   18.3201   -1.2698 H   0  0  0  0  0  0  0  0  0  0  0  0
    8.1797   17.3398   -1.6250 H   0  0  0  0  0  0  0  0  0  0  0  0
    9.3513   20.4463   -3.6344 C   0  0  0  0  0  0  0  0  0  0  0  0
    9.9754   19.9205   -4.1756 H   0  0  0  0  0  0  0  0  0  0  0  0
    8.9352   21.1365   -4.1914 H   0  0  0  0  0  0  0  0  0  0  0  0
    9.8356   20.8706   -2.8954 H   0  0  0  0  0  0  0  0  0  0  0  0
    7.4766   19.1802    1.0176 C   0  0  0  0  0  0  0  0  0  0  0  0
    6.5566   18.8562    1.1120 H   0  0  0  0  0  0  0  0  0  0  0  0
    8.0383   18.4678    0.6486 H   0  0  0  0  0  0  0  0  0  0  0  0
    7.8208   19.4464    1.8959 H   0  0  0  0  0  0  0  0  0  0  0  0
    9.2825   21.2678   -0.1305 C   0  0  0  0  0  0  0  0  0  0  0  0
    9.5549   21.4676    0.7893 H   0  0  0  0  0  0  0  0  0  0  0  0
    9.8664   20.5711   -0.4992 H   0  0  0  0  0  0  0  0  0  0  0  0
    9.3574   22.0780   -0.6768 H   0  0  0  0  0  0  0  0  0  0  0  0
    6.4472   21.9788    0.6691 C   0  0  0  0  0  0  0  0  0  0  0  0
    5.5106   21.6934    0.6661 H   0  0  0  0  0  0  0  0  0  0  0  0
    6.7460   22.1133    1.5927 H   0  0  0  0  0  0  0  0  0  0  0  0
    6.5347   22.8197    0.1724 H   0  0  0  0  0  0  0  0  0  0  0  0
    0.6706   18.6483   -1.0072 C   0  0  0  0  0  0  0  0  0  0  0  0
   -0.1395   19.1670   -0.8166 H   0  0  0  0  0  0  0  0  0  0  0  0
    0.7156   17.8796   -0.4014 H   0  0  0  0  0  0  0  0  0  0  0  0
    1.4590   19.2148   -0.8765 H   0  0  0  0  0  0  0  0  0  0  0  0
   -0.1018   19.4266   -3.6559 C   0  0  0  0  0  0  0  0  0  0  0  0
    0.4788   20.2141   -3.5931 H   0  0  0  0  0  0  0  0  0  0  0  0
   -0.1920   19.1610   -4.5941 H   0  0  0  0  0  0  0  0  0  0  0  0
   -0.9853   19.6431   -3.2905 H   0  0  0  0  0  0  0  0  0  0  0  0
   -0.6644   16.7912   -2.7621 C   0  0  0  0  0  0  0  0  0  0  0  0
   -1.4996   17.1552   -2.4011 H   0  0  0  0  0  0  0  0  0  0  0  0
   -0.8065   16.5079   -3.6902 H   0  0  0  0  0  0  0  0  0  0  0  0
   -0.3835   16.0219   -2.2253 H   0  0  0  0  0  0  0  0  0  0  0  0
    1.4062   17.1500   -6.2693 C   0  0  0  0  0  0  0  0  0  0  0  0
    1.5284   16.5677   -7.0487 H   0  0  0  0  0  0  0  0  0  0  0  0
    0.4657   17.1352   -5.9953 H   0  0  0  0  0  0  0  0  0  0  0  0
    1.6648   18.0657   -6.5025 H   0  0  0  0  0  0  0  0  0  0  0  0
    1.9537   14.8333   -4.7197 C   0  0  0  0  0  0  0  0  0  0  0  0
    2.6081   14.3683   -4.1578 H   0  0  0  0  0  0  0  0  0  0  0  0
    1.0700   14.7879   -4.2963 H   0  0  0  0  0  0  0  0  0  0  0  0
    1.9157   14.4061   -5.6001 H   0  0  0  0  0  0  0  0  0  0  0  0
    4.1098   16.5197   -5.5674 C   0  0  0  0  0  0  0  0  0  0  0  0
    4.1417   15.9193   -6.3408 H   0  0  0  0  0  0  0  0  0  0  0  0
    4.3728   17.4229   -5.8440 H   0  0  0  0  0  0  0  0  0  0  0  0
    4.7263   16.1975   -4.8773 H   0  0  0  0  0  0  0  0  0  0  0  0
    3.4536   16.3889   -1.5748 Mg  0  0  0  0  0  0  0  0  0  0  0  0
    4.6944   20.9319   -2.9463 N   0  0  0  0  0  0  0  0  0  0  0  0
    6.3083   22.6808   -2.9412 O   0  0  0  0  0  0  0  0  0  0  0  0
    0.6235   18.0681   -2.7114 P   0  0  0  0  0  0  0  0  0  0  0  0
    2.4408   16.5590   -4.9079 P   0  0  0  0  0  0  0  0  0  0  0  0
    8.0219   19.3184   -2.9419 Si  0  0  0  0  0  0  0  0  0  0  0  0
    7.5027   20.6646   -0.1419 Si  0  0  0  0  0  0  0  0  0  0  0  0
  1 39  1  0  0  0  0
  2  3  1  0  0  0  0
  3 92  1  0  0  0  0
  4 92  1  0  0  0  0
  5 92  1  0  0  0  0
  6  7  4  0  0  0  0
  7  8  4  0  0  0  0
  8  9  1  0  0  0  0
 10  8  4  0  0  0  0
 11 10  1  0  0  0  0
 12 10  4  0  0  0  0
 13 12  1  0  0  0  0
 14  6  4  0  0  0  0
 15 14  1  0  0  0  0
 16 15  1  0  0  0  0
 17 15  1  0  0  0  0
 18 17  1  0  0  0  0
 19 17  1  0  0  0  0
 20 17  1  0  0  0  0
 21 15  1  0  0  0  0
 22 21  1  0  0  0  0
 23 21  1  0  0  0  0
 24 21  1  0  0  0  0
 25  7  1  0  0  0  0
 26 25  1  0  0  0  0
 27 25  1  0  0  0  0
 28 27  1  0  0  0  0
 29 27  1  0  0  0  0
 30 27  1  0  0  0  0
 31 25  1  0  0  0  0
 32 31  1  0  0  0  0
 33 31  1  0  0  0  0
 34 31  1  0  0  0  0
 35  2  2  0  0  0  0
 36 35  1  0  0  0  0
 37 36  1  0  0  0  0
 38 36  1  0  0  0  0
 39 36  1  0  0  0  0
 40 41  1  0  0  0  0
 42 40  1  0  0  0  0
 43 40  1  0  0  0  0
 44 45  1  0  0  0  0
 46 44  1  0  0  0  0
 47 44  1  0  0  0  0
 48 49  1  0  0  0  0
 50 48  1  0  0  0  0
 51 48  1  0  0  0  0
 52 53  1  0  0  0  0
 54 52  1  0  0  0  0
 55 52  1  0  0  0  0
 56 57  1  0  0  0  0
 58 56  1  0  0  0  0
 59 56  1  0  0  0  0
 60 61  1  0  0  0  0
 62 60  1  0  0  0  0
 63 60  1  0  0  0  0
 64 65  1  0  0  0  0
 66 64  1  0  0  0  0
 67 64  1  0  0  0  0
 68 69  1  0  0  0  0
 70 68  1  0  0  0  0
 71 68  1  0  0  0  0
 72 73  1  0  0  0  0
 74 72  1  0  0  0  0
 75 72  1  0  0  0  0
 76 77  1  0  0  0  0
 78 76  1  0  0  0  0
 79 76  1  0  0  0  0
 80 81  1  0  0  0  0
 82 80  1  0  0  0  0
 83 80  1  0  0  0  0
 84 85  1  0  0  0  0
 86 84  1  0  0  0  0
 87 84  1  0  0  0  0
 88 89  1  0  0  0  0
 90 88  1  0  0  0  0
 91 88  1  0  0  0  0
 92102  1  0  0  0  0
 93  1  1  0  0  0  0
 94  1  1  0  0  0  0
 95  3  1  0  0  0  0
 96  3  1  0  0  0  0
 97 39  1  0  0  0  0
 98 39  1  0  0  0  0
 99137  1  0  0  0  0
100101  1  0  0  0  0
101190  1  0  0  0  0
102190  1  0  0  0  0
103190  1  0  0  0  0
104105  4  0  0  0  0
105106  4  0  0  0  0
106107  1  0  0  0  0
108106  4  0  0  0  0
109108  1  0  0  0  0
110108  4  0  0  0  0
111110  1  0  0  0  0
112104  4  0  0  0  0
113112  1  0  0  0  0
114113  1  0  0  0  0
115113  1  0  0  0  0
116115  1  0  0  0  0
117115  1  0  0  0  0
118115  1  0  0  0  0
119113  1  0  0  0  0
120119  1  0  0  0  0
121119  1  0  0  0  0
122119  1  0  0  0  0
123105  1  0  0  0  0
124123  1  0  0  0  0
125123  1  0  0  0  0
126125  1  0  0  0  0
127125  1  0  0  0  0
128125  1  0  0  0  0
129123  1  0  0  0  0
130129  1  0  0  0  0
131129  1  0  0  0  0
132129  1  0  0  0  0
133100  2  0  0  0  0
134133  1  0  0  0  0
135134  1  0  0  0  0
136134  1  0  0  0  0
137134  1  0  0  0  0
138139  1  0  0  0  0
140138  1  0  0  0  0
141138  1  0  0  0  0
142143  1  0  0  0  0
144142  1  0  0  0  0
145142  1  0  0  0  0
146147  1  0  0  0  0
148146  1  0  0  0  0
149146  1  0  0  0  0
150151  1  0  0  0  0
152150  1  0  0  0  0
153150  1  0  0  0  0
154155  1  0  0  0  0
156154  1  0  0  0  0
157154  1  0  0  0  0
158159  1  0  0  0  0
160158  1  0  0  0  0
161158  1  0  0  0  0
162163  1  0  0  0  0
164162  1  0  0  0  0
165162  1  0  0  0  0
166167  1  0  0  0  0
168166  1  0  0  0  0
169166  1  0  0  0  0
170171  1  0  0  0  0
172170  1  0  0  0  0
173170  1  0  0  0  0
174175  1  0  0  0  0
176174  1  0  0  0  0
177174  1  0  0  0  0
178179  1  0  0  0  0
180178  1  0  0  0  0
181178  1  0  0  0  0
182183  1  0  0  0  0
184182  1  0  0  0  0
185182  1  0  0  0  0
186187  1  0  0  0  0
188186  1  0  0  0  0
189186  1  0  0  0  0
190  4  1  0  0  0  0
191 99  1  0  0  0  0
192 99  1  0  0  0  0
193101  1  0  0  0  0
194101  1  0  0  0  0
195137  1  0  0  0  0
196137  1  0  0  0  0
  6 93  1  0  0  0  0
 12 14  4  0  0  0  0
 35 93  1  0  0  0  0
 40 94  1  0  0  0  0
 44 97  1  0  0  0  0
 48 97  1  0  0  0  0
 52 97  1  0  0  0  0
 56 98  1  0  0  0  0
 60 98  1  0  0  0  0
 64 98  1  0  0  0  0
 68 95  1  0  0  0  0
 72 95  1  0  0  0  0
 76 95  1  0  0  0  0
 80 96  1  0  0  0  0
 84 96  1  0  0  0  0
 88 96  1  0  0  0  0
104191  1  0  0  0  0
110112  4  0  0  0  0
133191  1  0  0  0  0
138192  1  0  0  0  0
142195  1  0  0  0  0
146195  1  0  0  0  0
150195  1  0  0  0  0
154196  1  0  0  0  0
158196  1  0  0  0  0
162196  1  0  0  0  0
166193  1  0  0  0  0
170193  1  0  0  0  0
174193  1  0  0  0  0
178194  1  0  0  0  0
182194  1  0  0  0  0
186194  1  0  0  0  0
M  END
$$$$
JOHJEZ

From CSD data. Using bond type 'Any'. No disordered atoms. Largest molecule.
104110  0  0  0  0  0  0  0  0999 V2000
    2.9157    8.3205    4.8587 P   0  3  0  0  0  0  0  0  0  0  0  0
   -0.6603   10.2999    2.2713 O   0  0  0  0  0  0  0  0  0  0  0  0
    3.9733    6.8186    4.6583 C   0  0  0  0  0  0  0  0  0  0  0  0
    3.5740    6.2821    3.9424 H   0  0  0  0  0  0  0  0  0  0  0  0
    4.0982    5.9174    5.8697 C   0  0  0  0  0  0  0  0  0  0  0  0
    4.4658    6.4166    6.6026 H   0  0  0  0  0  0  0  0  0  0  0  0
    4.6771    5.1794    5.6616 H   0  0  0  0  0  0  0  0  0  0  0  0
    3.2308    5.5851    6.1118 H   0  0  0  0  0  0  0  0  0  0  0  0
    5.3442    7.2718    4.1628 C   0  0  0  0  0  0  0  0  0  0  0  0
    5.2400    7.7837    3.3580 H   0  0  0  0  0  0  0  0  0  0  0  0
    5.8906    6.5017    3.9831 H   0  0  0  0  0  0  0  0  0  0  0  0
    5.7647    7.8128    4.8342 H   0  0  0  0  0  0  0  0  0  0  0  0
    1.3918    7.7171    5.7278 C   0  0  0  0  0  0  0  0  0  0  0  0
    1.2310    6.7931    5.4460 H   0  0  0  0  0  0  0  0  0  0  0  0
    0.1707    8.5479    5.3344 C   0  0  0  0  0  0  0  0  0  0  0  0
    0.3501    9.4780    5.4952 H   0  0  0  0  0  0  0  0  0  0  0  0
   -0.5854    8.2723    5.8574 H   0  0  0  0  0  0  0  0  0  0  0  0
   -0.0195    8.4157    4.4030 H   0  0  0  0  0  0  0  0  0  0  0  0
    1.5618    7.7230    7.2503 C   0  0  0  0  0  0  0  0  0  0  0  0
    2.3832    7.2839    7.4820 H   0  0  0  0  0  0  0  0  0  0  0  0
    0.8254    7.2592    7.6560 H   0  0  0  0  0  0  0  0  0  0  0  0
    1.5827    8.6286    7.5662 H   0  0  0  0  0  0  0  0  0  0  0  0
    2.5589    8.9401    3.2691 C   0  0  0  0  0  0  0  0  0  0  0  0
    3.1811    9.6058    3.0261 H   0  0  0  0  0  0  0  0  0  0  0  0
    2.1363    8.1167    2.1490 C   0  0  0  0  0  0  0  0  0  0  0  0
    2.4229    8.4892    0.8199 C   0  0  0  0  0  0  0  0  0  0  0  0
    2.9393    9.2472    0.6686 H   0  0  0  0  0  0  0  0  0  0  0  0
    1.9654    7.7689   -0.2638 C   0  0  0  0  0  0  0  0  0  0  0  0
    2.1721    8.0571   -1.1234 H   0  0  0  0  0  0  0  0  0  0  0  0
    1.2063    6.6277   -0.0955 C   0  0  0  0  0  0  0  0  0  0  0  0
    0.8955    6.1476   -0.8303 H   0  0  0  0  0  0  0  0  0  0  0  0
    0.9224    6.2175    1.1887 C   0  0  0  0  0  0  0  0  0  0  0  0
    0.4188    5.4461    1.3211 H   0  0  0  0  0  0  0  0  0  0  0  0
    1.3725    6.9318    2.2866 C   0  0  0  0  0  0  0  0  0  0  0  0
    1.1666    6.6250    3.1396 H   0  0  0  0  0  0  0  0  0  0  0  0
   -2.4061    9.7582    0.8152 C   0  0  0  0  0  0  0  0  0  0  0  0
   -2.1764   10.1414   -0.0463 H   0  0  0  0  0  0  0  0  0  0  0  0
   -3.0769    9.0701    0.6865 H   0  0  0  0  0  0  0  0  0  0  0  0
   -2.8887   10.8113    1.7627 C   0  0  0  0  0  0  0  0  0  0  0  0
   -3.4188   11.4817    1.3031 H   0  0  0  0  0  0  0  0  0  0  0  0
   -3.4163   10.4238    2.4795 H   0  0  0  0  0  0  0  0  0  0  0  0
    3.7896    9.6573    5.9321 B   0  5  0  0  0  0  0  0  0  0  0  0
    2.9902   10.3431    6.3642 H   0  0  0  0  0  0  0  0  0  0  0  0
    4.4450   10.2468    5.2295 H   0  0  0  0  0  0  0  0  0  0  0  0
    4.3408    9.1956    6.7520 H   0  0  0  0  0  0  0  0  0  0  0  0
    1.0307   10.4729    3.1547 Li  0  0  0  0  0  0  0  0  0  0  0  0
   -1.1769    9.2024    1.5121 C   0  0  0  0  0  0  0  0  0  0  0  0
   -1.4160    8.4628    2.0937 H   0  0  0  0  0  0  0  0  0  0  0  0
   -0.5236    8.8931    0.8643 H   0  0  0  0  0  0  0  0  0  0  0  0
   -1.6383   11.3763    2.2686 C   0  0  0  0  0  0  0  0  0  0  0  0
   -1.3402   12.1025    1.6974 H   0  0  0  0  0  0  0  0  0  0  0  0
   -1.7633   11.7215    3.1670 H   0  0  0  0  0  0  0  0  0  0  0  0
    2.2416   14.0915    4.5979 P   0  3  0  0  0  0  0  0  0  0  0  0
    5.8175   12.1121    7.1853 O   0  0  0  0  0  0  0  0  0  0  0  0
    1.1839   15.5934    4.7982 C   0  0  0  0  0  0  0  0  0  0  0  0
    1.5832   16.1299    5.5141 H   0  0  0  0  0  0  0  0  0  0  0  0
    1.0590   16.4946    3.5869 C   0  0  0  0  0  0  0  0  0  0  0  0
    0.6914   15.9954    2.8540 H   0  0  0  0  0  0  0  0  0  0  0  0
    0.4801   17.2326    3.7949 H   0  0  0  0  0  0  0  0  0  0  0  0
    1.9265   16.8269    3.3448 H   0  0  0  0  0  0  0  0  0  0  0  0
   -0.1870   15.1402    5.2938 C   0  0  0  0  0  0  0  0  0  0  0  0
   -0.0827   14.6283    6.0985 H   0  0  0  0  0  0  0  0  0  0  0  0
   -0.7333   15.9103    5.4734 H   0  0  0  0  0  0  0  0  0  0  0  0
   -0.6074   14.5992    4.6224 H   0  0  0  0  0  0  0  0  0  0  0  0
    3.7654   14.6949    3.7287 C   0  0  0  0  0  0  0  0  0  0  0  0
    3.9262   15.6189    4.0105 H   0  0  0  0  0  0  0  0  0  0  0  0
    4.9865   13.8641    4.1221 C   0  0  0  0  0  0  0  0  0  0  0  0
    4.8072   12.9340    3.9613 H   0  0  0  0  0  0  0  0  0  0  0  0
    5.7426   14.1397    3.5992 H   0  0  0  0  0  0  0  0  0  0  0  0
    5.1768   13.9963    5.0536 H   0  0  0  0  0  0  0  0  0  0  0  0
    3.5954   14.6890    2.2062 C   0  0  0  0  0  0  0  0  0  0  0  0
    2.7740   15.1281    1.9745 H   0  0  0  0  0  0  0  0  0  0  0  0
    4.3318   15.1528    1.8005 H   0  0  0  0  0  0  0  0  0  0  0  0
    3.5745   13.7834    1.8904 H   0  0  0  0  0  0  0  0  0  0  0  0
    2.5983   13.4719    6.1874 C   0  0  0  0  0  0  0  0  0  0  0  0
    1.9761   12.8062    6.4304 H   0  0  0  0  0  0  0  0  0  0  0  0
    3.0209   14.2953    7.3075 C   0  0  0  0  0  0  0  0  0  0  0  0
    2.7343   13.9228    8.6367 C   0  0  0  0  0  0  0  0  0  0  0  0
    2.2179   13.1648    8.7880 H   0  0  0  0  0  0  0  0  0  0  0  0
    3.1919   14.6431    9.7204 C   0  0  0  0  0  0  0  0  0  0  0  0
    2.9852   14.3549   10.5800 H   0  0  0  0  0  0  0  0  0  0  0  0
    3.9509   15.7843    9.5520 C   0  0  0  0  0  0  0  0  0  0  0  0
    4.2617   16.2644   10.2868 H   0  0  0  0  0  0  0  0  0  0  0  0
    4.2348   16.1945    8.2678 C   0  0  0  0  0  0  0  0  0  0  0  0
    4.7385   16.9659    8.1355 H   0  0  0  0  0  0  0  0  0  0  0  0
    3.7847   15.4802    7.1699 C   0  0  0  0  0  0  0  0  0  0  0  0
    3.9906   15.7870    6.3170 H   0  0  0  0  0  0  0  0  0  0  0  0
    7.5633   12.6538    8.6414 C   0  0  0  0  0  0  0  0  0  0  0  0
    7.3336   12.2706    9.5029 H   0  0  0  0  0  0  0  0  0  0  0  0
    8.2341   13.3419    8.7700 H   0  0  0  0  0  0  0  0  0  0  0  0
    8.0460   11.6007    7.6938 C   0  0  0  0  0  0  0  0  0  0  0  0
    8.5761   10.9303    8.1534 H   0  0  0  0  0  0  0  0  0  0  0  0
    8.5735   11.9882    6.9770 H   0  0  0  0  0  0  0  0  0  0  0  0
    1.3676   12.7547    3.5245 B   0  5  0  0  0  0  0  0  0  0  0  0
    2.1670   12.0689    3.0923 H   0  0  0  0  0  0  0  0  0  0  0  0
    0.7122   12.1652    4.2271 H   0  0  0  0  0  0  0  0  0  0  0  0
    0.8164   13.2164    2.7046 H   0  0  0  0  0  0  0  0  0  0  0  0
    4.1265   11.9391    6.3018 Li  0  0  0  0  0  0  0  0  0  0  0  0
    6.3341   13.2096    7.9444 C   0  0  0  0  0  0  0  0  0  0  0  0
    6.5732   13.9492    7.3629 H   0  0  0  0  0  0  0  0  0  0  0  0
    5.6808   13.5189    8.5922 H   0  0  0  0  0  0  0  0  0  0  0  0
    6.7955   11.0357    7.1879 C   0  0  0  0  0  0  0  0  0  0  0  0
    6.4974   10.3095    7.7591 H   0  0  0  0  0  0  0  0  0  0  0  0
    6.9206   10.6905    6.2895 H   0  0  0  0  0  0  0  0  0  0  0  0
  1  3  1  0  0  0  0
  2 46  1  0  0  0  0
  3  4  1  0  0  0  0
  5  3  1  0  0  0  0
  6  5  1  0  0  0  0
  7  5  1  0  0  0  0
  8  5  1  0  0  0  0
  9  3  1  0  0  0  0
 10  9  1  0  0  0  0
 11  9  1  0  0  0  0
 12  9  1  0  0  0  0
 13  1  1  0  0  0  0
 14 13  1  0  0  0  0
 15 13  1  0  0  0  0
 16 15  1  0  0  0  0
 17 15  1  0  0  0  0
 18 15  1  0  0  0  0
 19 13  1  0  0  0  0
 20 19  1  0  0  0  0
 21 19  1  0  0  0  0
 22 19  1  0  0  0  0
 23  1  1  0  0  0  0
 24 23  1  0  0  0  0
 25 23  1  0  0  0  0
 26 25  4  0  0  0  0
 27 26  1  0  0  0  0
 28 26  4  0  0  0  0
 29 28  1  0  0  0  0
 30 28  4  0  0  0  0
 31 30  1  0  0  0  0
 32 30  4  0  0  0  0
 33 32  1  0  0  0  0
 34 25  4  0  0  0  0
 35 34  1  0  0  0  0
 36 37  1  0  0  0  0
 38 36  1  0  0  0  0
 39 36  1  0  0  0  0
 40 39  1  0  0  0  0
 41 39  1  0  0  0  0
 42  1  1  0  0  0  0
 43 42  1  0  0  0  0
 44 42  1  0  0  0  0
 45 42  1  0  0  0  0
 46 23  1  0  0  0  0
 47  2  1  0  0  0  0
 48 47  1  0  0  0  0
 49 47  1  0  0  0  0
 50  2  1  0  0  0  0
 51 50  1  0  0  0  0
 52 50  1  0  0  0  0
 53 55  1  0  0  0  0
 54 98  1  0  0  0  0
 55 56  1  0  0  0  0
 57 55  1  0  0  0  0
 58 57  1  0  0  0  0
 59 57  1  0  0  0  0
 60 57  1  0  0  0  0
 61 55  1  0  0  0  0
 62 61  1  0  0  0  0
 63 61  1  0  0  0  0
 64 61  1  0  0  0  0
 65 53  1  0  0  0  0
 66 65  1  0  0  0  0
 67 65  1  0  0  0  0
 68 67  1  0  0  0  0
 69 67  1  0  0  0  0
 70 67  1  0  0  0  0
 71 65  1  0  0  0  0
 72 71  1  0  0  0  0
 73 71  1  0  0  0  0
 74 71  1  0  0  0  0
 75 53  1  0  0  0  0
 76 75  1  0  0  0  0
 77 75  1  0  0  0  0
 78 77  4  0  0  0  0
 79 78  1  0  0  0  0
 80 78  4  0  0  0  0
 81 80  1  0  0  0  0
 82 80  4  0  0  0  0
 83 82  1  0  0  0  0
 84 82  4  0  0  0  0
 85 84  1  0  0  0  0
 86 77  4  0  0  0  0
 87 86  1  0  0  0  0
 88 89  1  0  0  0  0
 90 88  1  0  0  0  0
 91 88  1  0  0  0  0
 92 91  1  0  0  0  0
 93 91  1  0  0  0  0
 94 53  1  0  0  0  0
 95 46  1  0  0  0  0
 96 46  1  0  0  0  0
 97 94  1  0  0  0  0
 98 43  1  0  0  0  0
 99 54  1  0  0  0  0
100 99  1  0  0  0  0
101 99  1  0  0  0  0
102 54  1  0  0  0  0
103102  1  0  0  0  0
104102  1  0  0  0  0
 32 34  4  0  0  0  0
 36 47  1  0  0  0  0
 39 50  1  0  0  0  0
 44 98  1  0  0  0  0
 75 98  1  0  0  0  0
 84 86  4  0  0  0  0
 88 99  1  0  0  0  0
 91102  1  0  0  0  0
 94 95  1  0  0  0  0
 94 96  1  0  0  0  0
M  CHG  4   1   1  42  -1  53   1  94  -1
M  END
$$$$
JOHJID

From CSD data. Using bond type 'Any'. No disordered atoms. Largest molecule.
134144  0  0  0  0  0  0  0  0999 V2000
    6.3552    9.7051    3.7970 P   0  3  0  0  0  0  0  0  0  0  0  0
    8.4284    4.3242    6.4343 P   0  3  0  0  0  0  0  0  0  0  0  0
    5.3264    7.0180    5.5527 Na  0  0  0  0  0  0  0  0  0  0  0  0
    9.4448    6.9806    4.5186 Na  0  0  0  0  0  0  0  0  0  0  0  0
    4.6902    5.6032    3.8394 O   0  0  0  0  0  0  0  0  0  0  0  0
   10.0231    8.5769    6.0842 O   0  0  0  0  0  0  0  0  0  0  0  0
    6.2845    9.4659    5.5007 C   0  0  0  0  0  0  0  0  0  0  0  0
    5.5966   10.2303    6.5092 C   0  0  0  0  0  0  0  0  0  0  0  0
    4.7169   11.2932    6.2365 C   0  0  0  0  0  0  0  0  0  0  0  0
    4.5699   11.5478    5.3446 H   0  0  0  0  0  0  0  0  0  0  0  0
    4.0624   11.9746    7.2506 C   0  0  0  0  0  0  0  0  0  0  0  0
    3.4879   12.6854    7.0308 H   0  0  0  0  0  0  0  0  0  0  0  0
    4.2349   11.6290    8.5692 C   0  0  0  0  0  0  0  0  0  0  0  0
    3.7794   12.0879    9.2538 H   0  0  0  0  0  0  0  0  0  0  0  0
    5.0903   10.5922    8.8613 C   0  0  0  0  0  0  0  0  0  0  0  0
    5.2210   10.3431    9.7575 H   0  0  0  0  0  0  0  0  0  0  0  0
    5.7568    9.9135    7.8743 C   0  0  0  0  0  0  0  0  0  0  0  0
    6.3387    9.2153    8.1141 H   0  0  0  0  0  0  0  0  0  0  0  0
    6.8632   11.3949    3.3036 C   0  0  0  0  0  0  0  0  0  0  0  0
    6.9722   11.7997    1.9960 C   0  0  0  0  0  0  0  0  0  0  0  0
    6.7289   11.2050    1.3109 H   0  0  0  0  0  0  0  0  0  0  0  0
    7.4269   13.0548    1.6650 C   0  0  0  0  0  0  0  0  0  0  0  0
    7.4784   13.3025    0.7605 H   0  0  0  0  0  0  0  0  0  0  0  0
    7.8004   13.9433    2.6244 C   0  0  0  0  0  0  0  0  0  0  0  0
    8.0781   14.8122    2.3961 H   0  0  0  0  0  0  0  0  0  0  0  0
    7.7639   13.5431    3.9225 C   0  0  0  0  0  0  0  0  0  0  0  0
    8.0632   14.1266    4.5958 H   0  0  0  0  0  0  0  0  0  0  0  0
    7.2926   12.2824    4.2704 C   0  0  0  0  0  0  0  0  0  0  0  0
    7.2650   12.0320    5.1754 H   0  0  0  0  0  0  0  0  0  0  0  0
    4.6922    9.4671    3.0482 C   0  0  0  0  0  0  0  0  0  0  0  0
    3.5869    9.2018    3.8412 C   0  0  0  0  0  0  0  0  0  0  0  0
    3.6760    9.2055    4.7767 H   0  0  0  0  0  0  0  0  0  0  0  0
    2.3445    8.9285    3.2705 C   0  0  0  0  0  0  0  0  0  0  0  0
    1.6060    8.7452    3.8217 H   0  0  0  0  0  0  0  0  0  0  0  0
    2.1968    8.9257    1.9056 C   0  0  0  0  0  0  0  0  0  0  0  0
    1.3566    8.7466    1.5229 H   0  0  0  0  0  0  0  0  0  0  0  0
    3.2758    9.1859    1.1037 C   0  0  0  0  0  0  0  0  0  0  0  0
    3.1721    9.1943    0.1692 H   0  0  0  0  0  0  0  0  0  0  0  0
    4.5291    9.4378    1.6623 C   0  0  0  0  0  0  0  0  0  0  0  0
    5.2687    9.5875    1.1008 H   0  0  0  0  0  0  0  0  0  0  0  0
    8.4682    4.5178    4.7232 C   0  0  0  0  0  0  0  0  0  0  0  0
    9.1405    3.6954    3.7581 C   0  0  0  0  0  0  0  0  0  0  0  0
   10.0393    2.6711    4.0917 C   0  0  0  0  0  0  0  0  0  0  0  0
   10.1845    2.4668    4.9984 H   0  0  0  0  0  0  0  0  0  0  0  0
   10.7197    1.9505    3.1196 C   0  0  0  0  0  0  0  0  0  0  0  0
   11.3172    1.2719    3.3763 H   0  0  0  0  0  0  0  0  0  0  0  0
   10.5244    2.2192    1.7718 C   0  0  0  0  0  0  0  0  0  0  0  0
   10.9929    1.7406    1.1125 H   0  0  0  0  0  0  0  0  0  0  0  0
    9.6382    3.1958    1.4264 C   0  0  0  0  0  0  0  0  0  0  0  0
    9.4953    3.3805    0.5154 H   0  0  0  0  0  0  0  0  0  0  0  0
    8.9413    3.9206    2.3732 C   0  0  0  0  0  0  0  0  0  0  0  0
    8.3250    4.5741    2.0947 H   0  0  0  0  0  0  0  0  0  0  0  0
   10.0794    4.6536    7.1646 C   0  0  0  0  0  0  0  0  0  0  0  0
   11.1851    4.8904    6.3637 C   0  0  0  0  0  0  0  0  0  0  0  0
   11.1000    4.8399    5.4282 H   0  0  0  0  0  0  0  0  0  0  0  0
   12.4240    5.2023    6.9277 C   0  0  0  0  0  0  0  0  0  0  0  0
   13.1698    5.3563    6.3754 H   0  0  0  0  0  0  0  0  0  0  0  0
   12.5470    5.2849    8.2969 C   0  0  0  0  0  0  0  0  0  0  0  0
   13.3786    5.5046    8.6781 H   0  0  0  0  0  0  0  0  0  0  0  0
   11.4689    5.0498    9.1031 C   0  0  0  0  0  0  0  0  0  0  0  0
   11.5661    5.0974   10.0376 H   0  0  0  0  0  0  0  0  0  0  0  0
   10.2307    4.7434    8.5521 C   0  0  0  0  0  0  0  0  0  0  0  0
    9.4929    4.5951    9.1138 H   0  0  0  0  0  0  0  0  0  0  0  0
    8.0347    2.6203    6.9802 C   0  0  0  0  0  0  0  0  0  0  0  0
    6.8305    2.0821    6.5874 C   0  0  0  0  0  0  0  0  0  0  0  0
    6.2640    2.5928    6.0370 H   0  0  0  0  0  0  0  0  0  0  0  0
    6.4277    0.8213    6.9705 C   0  0  0  0  0  0  0  0  0  0  0  0
    5.5911    0.4953    6.6943 H   0  0  0  0  0  0  0  0  0  0  0  0
    7.2268    0.0474    7.7453 C   0  0  0  0  0  0  0  0  0  0  0  0
    6.9656   -0.8213    7.9896 H   0  0  0  0  0  0  0  0  0  0  0  0
    8.4128    0.5569    8.1588 C   0  0  0  0  0  0  0  0  0  0  0  0
    8.9691    0.0392    8.7112 H   0  0  0  0  0  0  0  0  0  0  0  0
    8.8181    1.8246    7.7809 C   0  0  0  0  0  0  0  0  0  0  0  0
    9.6492    2.1478    8.0791 H   0  0  0  0  0  0  0  0  0  0  0  0
    4.3842    4.2523    4.0979 C   0  0  0  0  0  0  0  0  0  0  0  0
    3.4151    4.1179    4.1485 H   0  0  0  0  0  0  0  0  0  0  0  0
    4.7877    3.9598    4.9420 H   0  0  0  0  0  0  0  0  0  0  0  0
    4.9606    3.5051    2.9543 C   0  0  0  0  0  0  0  0  0  0  0  0
    5.9000    3.2798    3.1196 H   0  0  0  0  0  0  0  0  0  0  0  0
    4.4588    2.6781    2.7890 H   0  0  0  0  0  0  0  0  0  0  0  0
    4.8332    4.4356    1.8165 C   0  0  0  0  0  0  0  0  0  0  0  0
    4.0198    4.2425    1.3031 H   0  0  0  0  0  0  0  0  0  0  0  0
    5.6080    4.3614    1.2214 H   0  0  0  0  0  0  0  0  0  0  0  0
    4.7613    5.7914    2.4159 C   0  0  0  0  0  0  0  0  0  0  0  0
    5.5586    6.3119    2.1783 H   0  0  0  0  0  0  0  0  0  0  0  0
    3.9691    6.2672    2.0927 H   0  0  0  0  0  0  0  0  0  0  0  0
   10.0213    8.3590    7.5040 C   0  0  0  0  0  0  0  0  0  0  0  0
   10.8187    7.8567    7.7718 H   0  0  0  0  0  0  0  0  0  0  0  0
    9.2260    7.8511    7.7699 H   0  0  0  0  0  0  0  0  0  0  0  0
   10.0156    9.6953    8.1472 C   0  0  0  0  0  0  0  0  0  0  0  0
    9.3900    9.7149    8.8998 H   0  0  0  0  0  0  0  0  0  0  0  0
   10.9106    9.9261    8.4739 H   0  0  0  0  0  0  0  0  0  0  0  0
    9.5957   10.6174    7.1066 C   0  0  0  0  0  0  0  0  0  0  0  0
    9.9808   11.5087    7.2447 H   0  0  0  0  0  0  0  0  0  0  0  0
    8.6182   10.6929    7.0736 H   0  0  0  0  0  0  0  0  0  0  0  0
   10.1453    9.9667    5.8288 C   0  0  0  0  0  0  0  0  0  0  0  0
    9.6181   10.2284    5.0451 H   0  0  0  0  0  0  0  0  0  0  0  0
   11.0826   10.2158    5.6830 H   0  0  0  0  0  0  0  0  0  0  0  0
    7.5910    8.4681    2.9802 B   0  5  0  0  0  0  0  0  0  0  0  0
    7.1123    5.5158    7.2097 B   0  5  0  0  0  0  0  0  0  0  0  0
    3.4902    6.8324    6.8480 O   0  0  0  0  0  0  0  0  0  0  0  0
    3.4644    6.9178    8.2288 C   0  0  0  0  0  0  0  0  0  0  0  0
    3.4493    7.8595    8.4992 H   0  0  0  0  0  0  0  0  0  0  0  0
    4.2732    6.5078    8.5984 H   0  0  0  0  0  0  0  0  0  0  0  0
    2.3450    6.2713    8.7229 C   0  0  0  0  0  0  0  0  0  0  0  0
    2.0003    6.7135    9.5280 H   0  0  0  0  0  0  0  0  0  0  0  0
    2.5328    5.3311    8.9251 H   0  0  0  0  0  0  0  0  0  0  0  0
    1.3131    6.4197    7.4723 C   0  0  0  0  0  0  0  0  0  0  0  0
    0.7869    5.6025    7.3498 H   0  0  0  0  0  0  0  0  0  0  0  0
    0.7028    7.1753    7.6065 H   0  0  0  0  0  0  0  0  0  0  0  0
    2.1331    6.6365    6.4104 C   0  0  0  0  0  0  0  0  0  0  0  0
    1.8303    7.4285    5.9183 H   0  0  0  0  0  0  0  0  0  0  0  0
    2.0924    5.8684    5.8036 H   0  0  0  0  0  0  0  0  0  0  0  0
   11.4969    8.3800    2.2483 C   0  0  0  0  0  0  0  0  0  0  0  0
   12.2685    8.8711    2.6023 H   0  0  0  0  0  0  0  0  0  0  0  0
   10.7163    8.9677    2.1880 H   0  0  0  0  0  0  0  0  0  0  0  0
   11.8252    7.6048    0.8421 C   0  0  0  0  0  0  0  0  0  0  0  0
   11.0432    7.6258    0.2509 H   0  0  0  0  0  0  0  0  0  0  0  0
   12.5774    8.0330    0.3831 H   0  0  0  0  0  0  0  0  0  0  0  0
   12.1315    6.3413    1.1650 C   0  0  0  0  0  0  0  0  0  0  0  0
   13.0498    6.1384    0.8849 H   0  0  0  0  0  0  0  0  0  0  0  0
   11.5272    5.7229    0.7041 H   0  0  0  0  0  0  0  0  0  0  0  0
   12.0063    6.1790    2.6120 C   0  0  0  0  0  0  0  0  0  0  0  0
   11.6966    5.2709    2.8182 H   0  0  0  0  0  0  0  0  0  0  0  0
   12.8791    6.3091    3.0379 H   0  0  0  0  0  0  0  0  0  0  0  0
   11.1939    7.0059    3.0593 O   0  0  0  0  0  0  0  0  0  0  0  0
    7.6471    5.0652    4.4538 H   0  0  0  0  0  0  0  0  0  0  0  0
    7.0436    8.9131    5.7958 H   0  0  0  0  0  0  0  0  0  0  0  0
    7.2775    6.5624    6.8849 H   0  0  0  0  0  0  0  0  0  0  0  0
    6.1536    5.1492    6.8460 H   0  0  0  0  0  0  0  0  0  0  0  0
    7.4824    8.5493    1.9254 H   0  0  0  0  0  0  0  0  0  0  0  0
    7.4154    7.4159    3.4814 H   0  0  0  0  0  0  0  0  0  0  0  0
    8.5929    8.7872    3.2869 H   0  0  0  0  0  0  0  0  0  0  0  0
    7.2563    5.4150    8.3047 H   0  0  0  0  0  0  0  0  0  0  0  0
  1  7  1  0  0  0  0
  2 41  1  0  0  0  0
  3  5  1  0  0  0  0
  4  6  1  0  0  0  0
  5 75  1  0  0  0  0
  6 87  1  0  0  0  0
  7  3  1  0  0  0  0
  8  7  1  0  0  0  0
  9  8  4  0  0  0  0
 10  9  1  0  0  0  0
 11  9  4  0  0  0  0
 12 11  1  0  0  0  0
 13 11  4  0  0  0  0
 14 13  1  0  0  0  0
 15 13  4  0  0  0  0
 16 15  1  0  0  0  0
 17  8  4  0  0  0  0
 18 17  1  0  0  0  0
 19  1  1  0  0  0  0
 20 19  4  0  0  0  0
 21 20  1  0  0  0  0
 22 20  4  0  0  0  0
 23 22  1  0  0  0  0
 24 22  4  0  0  0  0
 25 24  1  0  0  0  0
 26 24  4  0  0  0  0
 27 26  1  0  0  0  0
 28 19  4  0  0  0  0
 29 28  1  0  0  0  0
 30  1  1  0  0  0  0
 31 30  4  0  0  0  0
 32 31  1  0  0  0  0
 33 31  4  0  0  0  0
 34 33  1  0  0  0  0
 35 33  4  0  0  0  0
 36 35  1  0  0  0  0
 37 35  4  0  0  0  0
 38 37  1  0  0  0  0
 39 30  4  0  0  0  0
 40 39  1  0  0  0  0
 41  4  1  0  0  0  0
 42 41  1  0  0  0  0
 43 42  4  0  0  0  0
 44 43  1  0  0  0  0
 45 43  4  0  0  0  0
 46 45  1  0  0  0  0
 47 45  4  0  0  0  0
 48 47  1  0  0  0  0
 49 47  4  0  0  0  0
 50 49  1  0  0  0  0
 51 42  4  0  0  0  0
 52 51  1  0  0  0  0
 53  2  1  0  0  0  0
 54 53  4  0  0  0  0
 55 54  1  0  0  0  0
 56 54  4  0  0  0  0
 57 56  1  0  0  0  0
 58 56  4  0  0  0  0
 59 58  1  0  0  0  0
 60 58  4  0  0  0  0
 61 60  1  0  0  0  0
 62 53  4  0  0  0  0
 63 62  1  0  0  0  0
 64  2  1  0  0  0  0
 65 64  4  0  0  0  0
 66 65  1  0  0  0  0
 67 65  4  0  0  0  0
 68 67  1  0  0  0  0
 69 67  4  0  0  0  0
 70 69  1  0  0  0  0
 71 69  4  0  0  0  0
 72 71  1  0  0  0  0
 73 64  4  0  0  0  0
 74 73  1  0  0  0  0
 75 76  1  0  0  0  0
 77 75  1  0  0  0  0
 78 75  1  0  0  0  0
 79 78  1  0  0  0  0
 80 78  1  0  0  0  0
 81 78  1  0  0  0  0
 82 81  1  0  0  0  0
 83 81  1  0  0  0  0
 84  5  1  0  0  0  0
 85 84  1  0  0  0  0
 86 84  1  0  0  0  0
 87 88  1  0  0  0  0
 89 87  1  0  0  0  0
 90 87  1  0  0  0  0
 91 90  1  0  0  0  0
 92 90  1  0  0  0  0
 93 90  1  0  0  0  0
 94 93  1  0  0  0  0
 95 93  1  0  0  0  0
 96  6  1  0  0  0  0
 97 96  1  0  0  0  0
 98 96  1  0  0  0  0
 99  1  1  0  0  0  0
100  2  1  0  0  0  0
101  3  1  0  0  0  0
102101  1  0  0  0  0
103102  1  0  0  0  0
104102  1  0  0  0  0
105102  1  0  0  0  0
106105  1  0  0  0  0
107105  1  0  0  0  0
108105  1  0  0  0  0
109108  1  0  0  0  0
110108  1  0  0  0  0
111101  1  0  0  0  0
112111  1  0  0  0  0
113111  1  0  0  0  0
114115  1  0  0  0  0
116114  1  0  0  0  0
117114  1  0  0  0  0
118117  1  0  0  0  0
119117  1  0  0  0  0
120117  1  0  0  0  0
121120  1  0  0  0  0
122120  1  0  0  0  0
123120  1  0  0  0  0
124123  1  0  0  0  0
125123  1  0  0  0  0
126  4  1  0  0  0  0
127 41  1  0  0  0  0
128  7  1  0  0  0  0
129100  1  0  0  0  0
130100  1  0  0  0  0
131 99  1  0  0  0  0
132  4  1  0  0  0  0
133  4  1  0  0  0  0
134100  1  0  0  0  0
 15 17  4  0  0  0  0
 26 28  4  0  0  0  0
 37 39  4  0  0  0  0
 49 51  4  0  0  0  0
 60 62  4  0  0  0  0
 71 73  4  0  0  0  0
 81 84  1  0  0  0  0
 93 96  1  0  0  0  0
 99132  1  0  0  0  0
 99133  1  0  0  0  0
108111  1  0  0  0  0
114126  1  0  0  0  0
123126  1  0  0  0  0
M  CHG  4   1   1   2   1  99  -1 100  -1
M  END
$$$$
JOHJOJ

From CSD data. Using bond type 'Any'. No disordered atoms. Largest molecule.
 75 74  0  0  0  0  0  0  0  0999 V2000
    3.5742   13.3169   16.6297 P   0  3  0  0  0  0  0  0  0  0  0  0
   11.2085   10.4401   16.5566 P   0  3  0  0  0  0  0  0  0  0  0  0
   12.4295   11.8999   16.3866 B   0  5  0  0  0  0  0  0  0  0  0  0
   12.9571   11.7537   17.1481 H   0  0  0  0  0  0  0  0  0  0  0  0
    5.8102   11.4916   15.4808 Si  0  0  0  0  0  0  0  0  0  0  0  0
    4.5843   13.7922   13.6841 Si  0  0  0  0  0  0  0  0  0  0  0  0
    8.8703   12.0945   15.3179 Si  0  0  0  0  0  0  0  0  0  0  0  0
   10.1180    9.7368   13.6670 Si  0  0  0  0  0  0  0  0  0  0  0  0
    7.3267   11.7472   14.9067 O   0  0  0  0  0  0  0  0  0  0  0  0
    4.9534   13.1918   15.4458 C   0  0  0  0  0  0  0  0  0  0  0  0
    5.6429   13.8299   15.7927 H   0  0  0  0  0  0  0  0  0  0  0  0
    2.6883   14.8986   16.3623 C   0  0  0  0  0  0  0  0  0  0  0  0
    3.3197   15.6433   16.4384 H   0  0  0  0  0  0  0  0  0  0  0  0
    1.9838   14.9954   17.0354 H   0  0  0  0  0  0  0  0  0  0  0  0
    2.2868   14.9006   15.4668 H   0  0  0  0  0  0  0  0  0  0  0  0
    4.3519   13.5849   18.2583 C   0  0  0  0  0  0  0  0  0  0  0  0
    4.8654   12.7888   18.5096 H   0  0  0  0  0  0  0  0  0  0  0  0
    3.6572   13.7509   18.9299 H   0  0  0  0  0  0  0  0  0  0  0  0
    4.9528   14.3573   18.2111 H   0  0  0  0  0  0  0  0  0  0  0  0
    4.5752   15.6473   13.6728 C   0  0  0  0  0  0  0  0  0  0  0  0
    3.6839   15.9712   13.9165 H   0  0  0  0  0  0  0  0  0  0  0  0
    4.8040   15.9693   12.7773 H   0  0  0  0  0  0  0  0  0  0  0  0
    5.2320   15.9811   14.3185 H   0  0  0  0  0  0  0  0  0  0  0  0
    2.9408   13.1286   13.0761 C   0  0  0  0  0  0  0  0  0  0  0  0
    2.9038   12.1607   13.2281 H   0  0  0  0  0  0  0  0  0  0  0  0
    2.8479   13.3143   12.1194 H   0  0  0  0  0  0  0  0  0  0  0  0
    2.2121   13.5652   13.5631 H   0  0  0  0  0  0  0  0  0  0  0  0
    5.9458   13.2906   12.5142 C   0  0  0  0  0  0  0  0  0  0  0  0
    6.7915   13.6896   12.8078 H   0  0  0  0  0  0  0  0  0  0  0  0
    5.7320   13.6047   11.6108 H   0  0  0  0  0  0  0  0  0  0  0  0
    6.0299   12.3147   12.5093 H   0  0  0  0  0  0  0  0  0  0  0  0
    4.9809   10.2564   14.3520 C   0  0  0  0  0  0  0  0  0  0  0  0
    4.9488   10.6179   13.4413 H   0  0  0  0  0  0  0  0  0  0  0  0
    4.0693   10.0865   14.6688 H   0  0  0  0  0  0  0  0  0  0  0  0
    5.4901    9.4188   14.3551 H   0  0  0  0  0  0  0  0  0  0  0  0
    5.9349   10.7522   17.2133 C   0  0  0  0  0  0  0  0  0  0  0  0
    6.4224    9.9028   17.1725 H   0  0  0  0  0  0  0  0  0  0  0  0
    5.0355   10.5961   17.5684 H   0  0  0  0  0  0  0  0  0  0  0  0
    6.4124   11.3744   17.7999 H   0  0  0  0  0  0  0  0  0  0  0  0
    9.7892   10.4420   15.3977 C   0  0  0  0  0  0  0  0  0  0  0  0
    9.1318    9.8079   15.8049 H   0  0  0  0  0  0  0  0  0  0  0  0
   12.1004    8.8538   16.4201 C   0  0  0  0  0  0  0  0  0  0  0  0
   11.4590    8.1150   16.4537 H   0  0  0  0  0  0  0  0  0  0  0  0
   12.7340    8.7708   17.1633 H   0  0  0  0  0  0  0  0  0  0  0  0
   12.5890    8.8262   15.5704 H   0  0  0  0  0  0  0  0  0  0  0  0
   10.4867   10.3235   18.2303 C   0  0  0  0  0  0  0  0  0  0  0  0
   10.1735   11.2085   18.5126 H   0  0  0  0  0  0  0  0  0  0  0  0
   11.1676   10.0015   18.8568 H   0  0  0  0  0  0  0  0  0  0  0  0
    9.7319    9.6993   18.2172 H   0  0  0  0  0  0  0  0  0  0  0  0
   11.6193   10.5349   12.8687 C   0  0  0  0  0  0  0  0  0  0  0  0
   11.5337   11.5107   12.9144 H   0  0  0  0  0  0  0  0  0  0  0  0
   11.6780   10.2564   11.9306 H   0  0  0  0  0  0  0  0  0  0  0  0
   12.4289   10.2564   13.3438 H   0  0  0  0  0  0  0  0  0  0  0  0
    8.5838    9.9442   12.6323 C   0  0  0  0  0  0  0  0  0  0  0  0
    7.8187    9.5472   13.1002 H   0  0  0  0  0  0  0  0  0  0  0  0
    8.7080    9.4958   11.7691 H   0  0  0  0  0  0  0  0  0  0  0  0
    8.4157   10.8984   12.4819 H   0  0  0  0  0  0  0  0  0  0  0  0
   10.3563    7.8938   13.7581 C   0  0  0  0  0  0  0  0  0  0  0  0
   11.2506    7.6962   14.1084 H   0  0  0  0  0  0  0  0  0  0  0  0
   10.2612    7.5066   12.8626 H   0  0  0  0  0  0  0  0  0  0  0  0
    9.6801    7.5066   14.3551 H   0  0  0  0  0  0  0  0  0  0  0  0
    8.8270   12.9963   16.9562 C   0  0  0  0  0  0  0  0  0  0  0  0
    8.2701   13.7983   16.8709 H   0  0  0  0  0  0  0  0  0  0  0  0
    9.7365   13.2550   17.2121 H   0  0  0  0  0  0  0  0  0  0  0  0
    8.4499   12.4076   17.6415 H   0  0  0  0  0  0  0  0  0  0  0  0
    9.5654   13.2471   14.0322 C   0  0  0  0  0  0  0  0  0  0  0  0
    9.4855   12.8343   13.1489 H   0  0  0  0  0  0  0  0  0  0  0  0
   10.5104   13.4210   14.2271 H   0  0  0  0  0  0  0  0  0  0  0  0
    9.0691   14.0906   14.0474 H   0  0  0  0  0  0  0  0  0  0  0  0
    2.3003   11.8821   16.6638 B   0  5  0  0  0  0  0  0  0  0  0  0
    2.9008   11.0623   16.7826 H   0  0  0  0  0  0  0  0  0  0  0  0
    1.8515   11.8920   15.6252 H   0  0  0  0  0  0  0  0  0  0  0  0
    1.6484   12.0500   17.3918 H   0  0  0  0  0  0  0  0  0  0  0  0
   12.9879   11.5759   15.2901 H   0  0  0  0  0  0  0  0  0  0  0  0
   11.9101   12.8402   16.4476 H   0  0  0  0  0  0  0  0  0  0  0  0
  1 10  1  0  0  0  0
  2  3  1  0  0  0  0
  3  4  1  0  0  0  0
  5  9  1  0  0  0  0
  6 10  1  0  0  0  0
  7  9  1  0  0  0  0
  8 40  1  0  0  0  0
 10  5  1  0  0  0  0
 11 10  1  0  0  0  0
 12  1  1  0  0  0  0
 13 12  1  0  0  0  0
 14 12  1  0  0  0  0
 15 12  1  0  0  0  0
 16  1  1  0  0  0  0
 17 16  1  0  0  0  0
 18 16  1  0  0  0  0
 19 16  1  0  0  0  0
 20  6  1  0  0  0  0
 21 20  1  0  0  0  0
 22 20  1  0  0  0  0
 23 20  1  0  0  0  0
 24  6  1  0  0  0  0
 25 24  1  0  0  0  0
 26 24  1  0  0  0  0
 27 24  1  0  0  0  0
 28  6  1  0  0  0  0
 29 28  1  0  0  0  0
 30 28  1  0  0  0  0
 31 28  1  0  0  0  0
 32  5  1  0  0  0  0
 33 32  1  0  0  0  0
 34 32  1  0  0  0  0
 35 32  1  0  0  0  0
 36  5  1  0  0  0  0
 37 36  1  0  0  0  0
 38 36  1  0  0  0  0
 39 36  1  0  0  0  0
 40  2  1  0  0  0  0
 41 40  1  0  0  0  0
 42  2  1  0  0  0  0
 43 42  1  0  0  0  0
 44 42  1  0  0  0  0
 45 42  1  0  0  0  0
 46  2  1  0  0  0  0
 47 46  1  0  0  0  0
 48 46  1  0  0  0  0
 49 46  1  0  0  0  0
 50  8  1  0  0  0  0
 51 50  1  0  0  0  0
 52 50  1  0  0  0  0
 53 50  1  0  0  0  0
 54  8  1  0  0  0  0
 55 54  1  0  0  0  0
 56 54  1  0  0  0  0
 57 54  1  0  0  0  0
 58  8  1  0  0  0  0
 59 58  1  0  0  0  0
 60 58  1  0  0  0  0
 61 58  1  0  0  0  0
 62  7  1  0  0  0  0
 63 62  1  0  0  0  0
 64 62  1  0  0  0  0
 65 62  1  0  0  0  0
 66  7  1  0  0  0  0
 67 66  1  0  0  0  0
 68 66  1  0  0  0  0
 69 66  1  0  0  0  0
 70  1  1  0  0  0  0
 71 70  1  0  0  0  0
 72 70  1  0  0  0  0
 73 70  1  0  0  0  0
 74  3  1  0  0  0  0
 75  3  1  0  0  0  0
  7 40  1  0  0  0  0
M  CHG  4   1   1   2   1   3  -1  70  -1
M  END
$$$$
JOKZIS

From CSD data. Using bond type 'Any'. No disordered atoms. Largest molecule.
 95119  0  0  0  0  0  0  0  0999 V2000
    2.5512    3.0012    2.3246 W   0  0  0  0  0  0  0  0  0  0  0  0
    4.5688    2.5974    3.7124 P   0  0  0  0  0  0  0  0  0  0  0  0
    5.3224    4.9574    2.1280 P   0  0  0  0  0  0  0  0  0  0  0  0
    2.6798    3.6570    0.4649 C   0  0  0  0  0  0  0  0  0  0  0  0
    2.6872    3.9187   -0.6661 O   0  0  0  0  0  0  0  0  0  0  0  0
    3.5588    1.7203    1.2583 C   0  0  0  0  0  0  0  0  0  0  0  0
    4.0646    0.9659    0.5158 O   0  0  0  0  0  0  0  0  0  0  0  0
    3.6074    5.0624    2.6692 C   0  0  0  0  0  0  0  0  0  0  0  0
    5.9639    3.4051    2.7987 C   0  0  0  0  0  0  0  0  0  0  0  0
    1.0806    1.1824    2.9005 C   0  0  0  0  0  0  0  0  0  0  0  0
    1.7194   -0.1244    2.5443 C   0  0  0  0  0  0  0  0  0  0  0  0
    0.4021    2.1548    1.7579 C   0  0  0  0  0  0  0  0  0  0  0  0
    0.3592    1.7623    0.2591 C   0  0  0  0  0  0  0  0  0  0  0  0
    0.3225    3.7636    2.3061 B   0  0  0  0  0  0  0  0  0  0  0  0
    0.9295    3.8153    3.9391 B   0  0  0  0  0  0  0  0  0  0  0  0
    1.4985    2.1290    4.3045 B   0  0  0  0  0  0  0  0  0  0  0  0
   -0.6363    1.0742    2.6623 B   0  0  0  0  0  0  0  0  0  0  0  0
   -1.1328    2.7024    2.2922 B   0  0  0  0  0  0  0  0  0  0  0  0
   -0.8406    3.7265    3.6684 B   0  0  0  0  0  0  0  0  0  0  0  0
   -0.0925    2.7266    4.9013 B   0  0  0  0  0  0  0  0  0  0  0  0
    0.0811    1.0774    4.2814 B   0  0  0  0  0  0  0  0  0  0  0  0
   -1.3657    2.0579    3.9113 B   0  0  0  0  0  0  0  0  0  0  0  0
    5.1174    0.8706    3.9853 C   0  0  0  0  0  0  0  0  0  0  0  0
    4.6673    0.2035    5.0932 C   0  0  0  0  0  0  0  0  0  0  0  0
    4.9268   -1.1275    5.2852 C   0  0  0  0  0  0  0  0  0  0  0  0
    5.7061   -1.7994    4.4086 C   0  0  0  0  0  0  0  0  0  0  0  0
    6.1954   -1.1356    3.2868 C   0  0  0  0  0  0  0  0  0  0  0  0
    5.9005    0.1858    3.0671 C   0  0  0  0  0  0  0  0  0  0  0  0
    4.7915    3.3517    5.3870 C   0  0  0  0  0  0  0  0  0  0  0  0
    3.7839    4.0253    6.0323 C   0  0  0  0  0  0  0  0  0  0  0  0
    4.0065    4.6747    7.2235 C   0  0  0  0  0  0  0  0  0  0  0  0
    5.2755    4.6375    7.8064 C   0  0  0  0  0  0  0  0  0  0  0  0
    6.2701    3.9058    7.2120 C   0  0  0  0  0  0  0  0  0  0  0  0
    6.0432    3.3033    5.9745 C   0  0  0  0  0  0  0  0  0  0  0  0
    5.5955    4.9832    0.3331 C   0  0  0  0  0  0  0  0  0  0  0  0
    5.4120    6.1850   -0.3192 C   0  0  0  0  0  0  0  0  0  0  0  0
    5.6254    6.2205   -1.6908 C   0  0  0  0  0  0  0  0  0  0  0  0
    6.0786    5.1415   -2.3593 C   0  0  0  0  0  0  0  0  0  0  0  0
    6.2315    3.9559   -1.7417 C   0  0  0  0  0  0  0  0  0  0  0  0
    5.9867    3.8654   -0.3631 C   0  0  0  0  0  0  0  0  0  0  0  0
    6.3982    6.2480    2.7733 C   0  0  0  0  0  0  0  0  0  0  0  0
    7.5587    6.5985    2.1765 C   0  0  0  0  0  0  0  0  0  0  0  0
    8.4148    7.5208    2.7039 C   0  0  0  0  0  0  0  0  0  0  0  0
    8.0926    8.1556    3.8535 C   0  0  0  0  0  0  0  0  0  0  0  0
    6.9884    7.7841    4.5150 C   0  0  0  0  0  0  0  0  0  0  0  0
    6.0945    6.8327    3.9807 C   0  0  0  0  0  0  0  0  0  0  0  0
    2.8924    6.3627    2.3408 C   0  0  0  0  0  0  0  0  0  0  0  0
    2.4519    6.7245    1.1033 C   0  0  0  0  0  0  0  0  0  0  0  0
    1.7713    7.9408    0.8974 C   0  0  0  0  0  0  0  0  0  0  0  0
    1.5303    8.7953    1.9452 C   0  0  0  0  0  0  0  0  0  0  0  0
    1.8720    8.4303    3.1503 C   0  0  0  0  0  0  0  0  0  0  0  0
    2.5944    7.2285    3.3816 C   0  0  0  0  0  0  0  0  0  0  0  0
    0.8057   10.1005    1.6977 C   0  0  0  0  0  0  0  0  0  0  0  0
    2.6683   -0.0630    2.6785 H   0  0  0  0  0  0  0  0  0  0  0  0
    1.5387   -0.3295    1.6237 H   0  0  0  0  0  0  0  0  0  0  0  0
    1.3617   -0.8190    3.1041 H   0  0  0  0  0  0  0  0  0  0  0  0
    1.2278    1.4618   -0.0185 H   0  0  0  0  0  0  0  0  0  0  0  0
    0.1034    2.5247   -0.2637 H   0  0  0  0  0  0  0  0  0  0  0  0
   -0.2797    1.0580    0.1318 H   0  0  0  0  0  0  0  0  0  0  0  0
    4.1575    0.6800    5.7501 H   0  0  0  0  0  0  0  0  0  0  0  0
    4.5549   -1.5830    6.0439 H   0  0  0  0  0  0  0  0  0  0  0  0
    5.9196   -2.7234    4.5566 H   0  0  0  0  0  0  0  0  0  0  0  0
    6.7469   -1.6072    2.6576 H   0  0  0  0  0  0  0  0  0  0  0  0
    6.2304    0.6332    2.2853 H   0  0  0  0  0  0  0  0  0  0  0  0
    2.9071    4.0447    5.6437 H   0  0  0  0  0  0  0  0  0  0  0  0
    3.2926    5.1496    7.6538 H   0  0  0  0  0  0  0  0  0  0  0  0
    5.4507    5.1205    8.6183 H   0  0  0  0  0  0  0  0  0  0  0  0
    7.1218    3.8089    7.6445 H   0  0  0  0  0  0  0  0  0  0  0  0
    6.7603    2.8494    5.5281 H   0  0  0  0  0  0  0  0  0  0  0  0
    5.1455    6.9733    0.1619 H   0  0  0  0  0  0  0  0  0  0  0  0
    5.4477    7.0330   -2.1719 H   0  0  0  0  0  0  0  0  0  0  0  0
    6.2950    5.2206   -3.2914 H   0  0  0  0  0  0  0  0  0  0  0  0
    6.5043    3.1805   -2.2390 H   0  0  0  0  0  0  0  0  0  0  0  0
    6.0907    3.0255    0.0925 H   0  0  0  0  0  0  0  0  0  0  0  0
    7.7910    6.1785    1.3439 H   0  0  0  0  0  0  0  0  0  0  0  0
    9.2422    7.7195    2.2598 H   0  0  0  0  0  0  0  0  0  0  0  0
    8.6487    8.8632    4.1912 H   0  0  0  0  0  0  0  0  0  0  0  0
    6.8025    8.1750    5.3708 H   0  0  0  0  0  0  0  0  0  0  0  0
    5.2899    6.6001    4.4502 H   0  0  0  0  0  0  0  0  0  0  0  0
    2.6082    6.1398    0.3585 H   0  0  0  0  0  0  0  0  0  0  0  0
    1.4733    8.1750    0.0139 H   0  0  0  0  0  0  0  0  0  0  0  0
    1.6317    8.9859    3.8951 H   0  0  0  0  0  0  0  0  0  0  0  0
    2.8780    7.0120    4.2744 H   0  0  0  0  0  0  0  0  0  0  0  0
    0.6380   10.1974    0.7564 H   0  0  0  0  0  0  0  0  0  0  0  0
    1.3479   10.8306    2.0031 H   0  0  0  0  0  0  0  0  0  0  0  0
   -0.0290   10.0989    2.1719 H   0  0  0  0  0  0  0  0  0  0  0  0
    0.0966    4.7167    1.7648 H   0  0  0  0  0  0  0  0  0  0  0  0
    1.5527    4.7070    4.3531 H   0  0  0  0  0  0  0  0  0  0  0  0
    2.2149    1.8495    4.9522 H   0  0  0  0  0  0  0  0  0  0  0  0
   -1.1549    0.2261    2.0470 H   0  0  0  0  0  0  0  0  0  0  0  0
   -1.9551    2.9415    1.4456 H   0  0  0  0  0  0  0  0  0  0  0  0
   -1.7761    4.8782    3.8974 H   0  0  0  0  0  0  0  0  0  0  0  0
   -0.1745    2.8042    6.2127 H   0  0  0  0  0  0  0  0  0  0  0  0
    0.1280    0.0759    4.8458 H   0  0  0  0  0  0  0  0  0  0  0  0
   -2.4462    1.8156    4.2282 H   0  0  0  0  0  0  0  0  0  0  0  0
  1  2  1  0  0  0  0
  2  9  1  0  0  0  0
  3  8  1  0  0  0  0
  4  1  1  0  0  0  0
  5  4  3  0  0  0  0
  6  1  1  0  0  0  0
  7  6  3  0  0  0  0
  8  1  1  0  0  0  0
  9  3  1  0  0  0  0
 10  1  1  0  0  0  0
 11 10  1  0  0  0  0
 12  1  1  0  0  0  0
 13 12  1  0  0  0  0
 14  1  1  0  0  0  0
 15  1  1  0  0  0  0
 16  1  1  0  0  0  0
 17 10  1  0  0  0  0
 18 12  1  0  0  0  0
 19 14  1  0  0  0  0
 20 15  1  0  0  0  0
 21 10  1  0  0  0  0
 22 17  1  0  0  0  0
 23  2  1  0  0  0  0
 24 23  4  0  0  0  0
 25 24  4  0  0  0  0
 26 25  4  0  0  0  0
 27 26  4  0  0  0  0
 28 23  4  0  0  0  0
 29  2  1  0  0  0  0
 30 29  4  0  0  0  0
 31 30  4  0  0  0  0
 32 31  4  0  0  0  0
 33 32  4  0  0  0  0
 34 29  4  0  0  0  0
 35  3  1  0  0  0  0
 36 35  4  0  0  0  0
 37 36  4  0  0  0  0
 38 37  4  0  0  0  0
 39 38  4  0  0  0  0
 40 35  4  0  0  0  0
 41  3  1  0  0  0  0
 42 41  4  0  0  0  0
 43 42  4  0  0  0  0
 44 43  4  0  0  0  0
 45 44  4  0  0  0  0
 46 41  4  0  0  0  0
 47  8  1  0  0  0  0
 48 47  4  0  0  0  0
 49 48  4  0  0  0  0
 50 49  4  0  0  0  0
 51 50  4  0  0  0  0
 52 47  4  0  0  0  0
 53 50  1  0  0  0  0
 54 11  1  0  0  0  0
 55 11  1  0  0  0  0
 56 11  1  0  0  0  0
 57 13  1  0  0  0  0
 58 13  1  0  0  0  0
 59 13  1  0  0  0  0
 60 24  1  0  0  0  0
 61 25  1  0  0  0  0
 62 26  1  0  0  0  0
 63 27  1  0  0  0  0
 64 28  1  0  0  0  0
 65 30  1  0  0  0  0
 66 31  1  0  0  0  0
 67 32  1  0  0  0  0
 68 33  1  0  0  0  0
 69 34  1  0  0  0  0
 70 36  1  0  0  0  0
 71 37  1  0  0  0  0
 72 38  1  0  0  0  0
 73 39  1  0  0  0  0
 74 40  1  0  0  0  0
 75 42  1  0  0  0  0
 76 43  1  0  0  0  0
 77 44  1  0  0  0  0
 78 45  1  0  0  0  0
 79 46  1  0  0  0  0
 80 48  1  0  0  0  0
 81 49  1  0  0  0  0
 82 51  1  0  0  0  0
 83 52  1  0  0  0  0
 84 53  1  0  0  0  0
 85 53  1  0  0  0  0
 86 53  1  0  0  0  0
 87 14  1  0  0  0  0
 88 15  1  0  0  0  0
 89 16  1  0  0  0  0
 90 17  1  0  0  0  0
 91 18  1  0  0  0  0
 92 19  1  0  0  0  0
 93 20  1  0  0  0  0
 94 21  1  0  0  0  0
 95 22  1  0  0  0  0
 10 12  1  0  0  0  0
 10 16  1  0  0  0  0
 12 14  1  0  0  0  0
 12 17  1  0  0  0  0
 14 15  1  0  0  0  0
 14 18  1  0  0  0  0
 15 16  1  0  0  0  0
 15 19  1  0  0  0  0
 16 20  1  0  0  0  0
 16 21  1  0  0  0  0
 17 18  1  0  0  0  0
 17 21  1  0  0  0  0
 18 19  1  0  0  0  0
 18 22  1  0  0  0  0
 19 20  1  0  0  0  0
 19 22  1  0  0  0  0
 20 21  1  0  0  0  0
 20 22  1  0  0  0  0
 21 22  1  0  0  0  0
 27 28  4  0  0  0  0
 33 34  4  0  0  0  0
 39 40  4  0  0  0  0
 45 46  4  0  0  0  0
 51 52  4  0  0  0  0
M  END
$$$$
JOKZOY

From CSD data. Using bond type 'Any'. No disordered atoms. Largest molecule.
115140  0  0  0  0  0  0  0  0999 V2000
   12.5475    0.8295    2.9608 W   0  0  0  0  0  0  0  0  0  0  0  0
   15.0084    0.7938    3.7099 P   0  0  0  0  0  0  0  0  0  0  0  0
   10.7744    2.6292    3.4384 P   0  0  0  0  0  0  0  0  0  0  0  0
   10.9102   -1.0647    2.6463 C   0  0  0  0  0  0  0  0  0  0  0  0
   10.0698   -1.2411    3.8805 C   0  0  0  0  0  0  0  0  0  0  0  0
   12.4355   -1.6485    2.5677 C   0  0  0  0  0  0  0  0  0  0  0  0
   12.9345   -2.4213    3.7959 C   0  0  0  0  0  0  0  0  0  0  0  0
   13.3797   -0.7581    1.4300 B   0  0  0  0  0  0  0  0  0  0  0  0
   12.3086    0.4389    0.5385 B   0  0  0  0  0  0  0  0  0  0  0  0
   10.7473    0.2331    1.4937 B   0  0  0  0  0  0  0  0  0  0  0  0
   10.9584   -0.5376   -0.1038 B   0  0  0  0  0  0  0  0  0  0  0  0
   12.6039   -1.1802   -0.1350 B   0  0  0  0  0  0  0  0  0  0  0  0
   12.7352   -2.3898    1.1007 B   0  0  0  0  0  0  0  0  0  0  0  0
   11.1414   -2.5767    1.8260 B   0  0  0  0  0  0  0  0  0  0  0  0
   10.1322   -1.4196    1.1808 B   0  0  0  0  0  0  0  0  0  0  0  0
   11.2633   -2.2596    0.1498 B   0  0  0  0  0  0  0  0  0  0  0  0
   12.4336    0.7413    4.9025 C   0  0  0  0  0  0  0  0  0  0  0  0
   12.3031    0.6090    6.0729 O   0  0  0  0  0  0  0  0  0  0  0  0
   13.3613    2.5914    2.5291 C   0  0  0  0  0  0  0  0  0  0  0  0
   13.7847    3.6036    2.1909 O   0  0  0  0  0  0  0  0  0  0  0  0
   16.4676   -1.5834    3.5423 C   0  0  0  0  0  0  0  0  0  0  0  0
   16.8868   -2.8476    3.9591 C   0  0  0  0  0  0  0  0  0  0  0  0
   16.5127   -3.3264    5.2155 C   0  0  0  0  0  0  0  0  0  0  0  0
   15.7211   -2.5431    6.0551 C   0  0  0  0  0  0  0  0  0  0  0  0
   15.3019   -1.2789    5.6383 C   0  0  0  0  0  0  0  0  0  0  0  0
   15.6743   -0.8001    4.3819 C   0  0  0  0  0  0  0  0  0  0  0  0
   16.0330    1.4007    1.1214 C   0  0  0  0  0  0  0  0  0  0  0  0
   17.0519    1.7682    0.2448 C   0  0  0  0  0  0  0  0  0  0  0  0
   18.3578    1.9131    0.7135 C   0  0  0  0  0  0  0  0  0  0  0  0
   18.6440    1.6884    2.0604 C   0  0  0  0  0  0  0  0  0  0  0  0
   17.6243    1.3209    2.9385 C   0  0  0  0  0  0  0  0  0  0  0  0
   16.3192    1.1760    2.4683 C   0  0  0  0  0  0  0  0  0  0  0  0
   15.8862    3.3474    4.5065 C   0  0  0  0  0  0  0  0  0  0  0  0
   16.2341    4.3512    5.4098 C   0  0  0  0  0  0  0  0  0  0  0  0
   16.1429    4.1160    6.7819 C   0  0  0  0  0  0  0  0  0  0  0  0
   15.7056    2.8770    7.2507 C   0  0  0  0  0  0  0  0  0  0  0  0
   15.3602    1.8732    6.3458 C   0  0  0  0  0  0  0  0  0  0  0  0
   15.4497    2.1084    4.9737 C   0  0  0  0  0  0  0  0  0  0  0  0
    9.7268    3.4503    0.9167 C   0  0  0  0  0  0  0  0  0  0  0  0
    9.6162    4.3449   -0.1469 C   0  0  0  0  0  0  0  0  0  0  0  0
   10.2570    5.5839   -0.0875 C   0  0  0  0  0  0  0  0  0  0  0  0
   11.0077    5.9262    1.0369 C   0  0  0  0  0  0  0  0  0  0  0  0
   11.1175    5.0316    2.1019 C   0  0  0  0  0  0  0  0  0  0  0  0
   10.4775    3.7926    2.0411 C   0  0  0  0  0  0  0  0  0  0  0  0
   12.3802    3.9879    5.3816 C   0  0  0  0  0  0  0  0  0  0  0  0
   12.5596    4.9224    6.4022 C   0  0  0  0  0  0  0  0  0  0  0  0
   11.4848    5.7015    6.8309 C   0  0  0  0  0  0  0  0  0  0  0  0
   10.2314    5.5482    6.2375 C   0  0  0  0  0  0  0  0  0  0  0  0
   10.0512    4.6137    5.2185 C   0  0  0  0  0  0  0  0  0  0  0  0
   11.1260    3.8325    4.7898 C   0  0  0  0  0  0  0  0  0  0  0  0
    9.1359    1.6422    5.3905 C   0  0  0  0  0  0  0  0  0  0  0  0
    7.9454    1.2138    5.9765 C   0  0  0  0  0  0  0  0  0  0  0  0
    6.7677    1.1886    5.2289 C   0  0  0  0  0  0  0  0  0  0  0  0
    6.7820    1.5897    3.8923 C   0  0  0  0  0  0  0  0  0  0  0  0
    7.9733    2.0181    3.3049 C   0  0  0  0  0  0  0  0  0  0  0  0
    9.1502    2.0433    4.0540 C   0  0  0  0  0  0  0  0  0  0  0  0
   12.6824    1.8228   -0.2848 C   0  0  0  0  0  0  0  0  0  0  0  0
   12.7913    1.6506   -1.8038 C   0  0  0  0  0  0  0  0  0  0  0  0
   11.6995    1.9656   -2.5781 C   0  0  0  0  0  0  0  0  0  0  0  0
   11.7582    1.9572   -4.0021 C   0  0  0  0  0  0  0  0  0  0  0  0
   12.9288    1.5834   -4.5836 C   0  0  0  0  0  0  0  0  0  0  0  0
   13.0010    1.5162   -6.1278 C   0  0  0  0  0  0  0  0  0  0  0  0
   14.0030    1.2201   -3.8567 C   0  0  0  0  0  0  0  0  0  0  0  0
   13.9430    1.2516   -2.4653 C   0  0  0  0  0  0  0  0  0  0  0  0
   10.5833   -1.0143    4.6592 H   0  0  0  0  0  0  0  0  0  0  0  0
    9.7748   -2.1525    3.9457 H   0  0  0  0  0  0  0  0  0  0  0  0
    9.3063   -0.6615    3.8226 H   0  0  0  0  0  0  0  0  0  0  0  0
   13.6390   -1.9215    4.2127 H   0  0  0  0  0  0  0  0  0  0  0  0
   13.2697   -3.2760    3.5171 H   0  0  0  0  0  0  0  0  0  0  0  0
   12.2190   -2.5494    4.4234 H   0  0  0  0  0  0  0  0  0  0  0  0
   14.4481   -0.5313    1.5442 H   0  0  0  0  0  0  0  0  0  0  0  0
   10.1059    1.1109    1.6614 H   0  0  0  0  0  0  0  0  0  0  0  0
   10.4523   -0.1785   -1.0042 H   0  0  0  0  0  0  0  0  0  0  0  0
   13.1601   -1.2327   -1.0754 H   0  0  0  0  0  0  0  0  0  0  0  0
   13.3748   -3.2739    0.9746 H   0  0  0  0  0  0  0  0  0  0  0  0
   10.7376   -3.5511    2.1731 H   0  0  0  0  0  0  0  0  0  0  0  0
    9.0587   -1.6506    1.1585 H   0  0  0  0  0  0  0  0  0  0  0  0
   10.9833   -3.0450   -0.5755 H   0  0  0  0  0  0  0  0  0  0  0  0
   16.7241   -1.2537    2.6790 H   0  0  0  0  0  0  0  0  0  0  0  0
   17.4321   -3.3873    3.3821 H   0  0  0  0  0  0  0  0  0  0  0  0
   16.8006   -4.1958    5.5033 H   0  0  0  0  0  0  0  0  0  0  0  0
   15.4646   -2.8728    6.9184 H   0  0  0  0  0  0  0  0  0  0  0  0
   14.7566   -0.7392    6.2153 H   0  0  0  0  0  0  0  0  0  0  0  0
   15.1338    1.2999    0.7995 H   0  0  0  0  0  0  0  0  0  0  0  0
   16.8561    1.9236   -0.6823 H   0  0  0  0  0  0  0  0  0  0  0  0
   19.0604    2.1672    0.1098 H   0  0  0  0  0  0  0  0  0  0  0  0
   19.5423    1.7892    2.3838 H   0  0  0  0  0  0  0  0  0  0  0  0
   17.8200    1.1655    3.8656 H   0  0  0  0  0  0  0  0  0  0  0  0
   15.9490    3.5091    3.5616 H   0  0  0  0  0  0  0  0  0  0  0  0
   16.5355    5.2038    5.0879 H   0  0  0  0  0  0  0  0  0  0  0  0
   16.3815    4.8069    7.4049 H   0  0  0  0  0  0  0  0  0  0  0  0
   15.6436    2.7153    8.1941 H   0  0  0  0  0  0  0  0  0  0  0  0
   15.0589    1.0206    6.6677 H   0  0  0  0  0  0  0  0  0  0  0  0
    9.2850    2.5998    0.8752 H   0  0  0  0  0  0  0  0  0  0  0  0
    9.0985    4.1097   -0.9212 H   0  0  0  0  0  0  0  0  0  0  0  0
   10.1812    6.1992   -0.8203 H   0  0  0  0  0  0  0  0  0  0  0  0
   11.4495    6.7767    1.0784 H   0  0  0  0  0  0  0  0  0  0  0  0
   11.6352    5.2668    2.8762 H   0  0  0  0  0  0  0  0  0  0  0  0
   13.1193    3.4524    5.0864 H   0  0  0  0  0  0  0  0  0  0  0  0
   13.4221    5.0274    6.8101 H   0  0  0  0  0  0  0  0  0  0  0  0
   11.6090    6.3441    7.5325 H   0  0  0  0  0  0  0  0  0  0  0  0
    9.4923    6.0837    6.5327 H   0  0  0  0  0  0  0  0  0  0  0  0
    9.1887    4.5066    4.8105 H   0  0  0  0  0  0  0  0  0  0  0  0
    9.9451    1.6611    5.9053 H   0  0  0  0  0  0  0  0  0  0  0  0
    7.9347    0.9387    6.8962 H   0  0  0  0  0  0  0  0  0  0  0  0
    5.9485    0.8946    5.6323 H   0  0  0  0  0  0  0  0  0  0  0  0
    5.9727    1.5729    3.3776 H   0  0  0  0  0  0  0  0  0  0  0  0
    7.9832    2.2953    2.3867 H   0  0  0  0  0  0  0  0  0  0  0  0
   10.8770    2.2050   -2.1464 H   0  0  0  0  0  0  0  0  0  0  0  0
   10.9945    2.2008   -4.5302 H   0  0  0  0  0  0  0  0  0  0  0  0
   13.8764    1.2453   -6.4081 H   0  0  0  0  0  0  0  0  0  0  0  0
   12.8089    2.3898   -6.4764 H   0  0  0  0  0  0  0  0  0  0  0  0
   12.3522    0.8904   -6.4556 H   0  0  0  0  0  0  0  0  0  0  0  0
   14.8106    0.9366   -4.2899 H   0  0  0  0  0  0  0  0  0  0  0  0
   14.7166    1.0017   -1.9521 H   0  0  0  0  0  0  0  0  0  0  0  0
  1  2  1  0  0  0  0
  2 26  1  0  0  0  0
  3  1  1  0  0  0  0
  4  1  1  0  0  0  0
  5  4  1  0  0  0  0
  6  1  1  0  0  0  0
  7  6  1  0  0  0  0
  8  1  1  0  0  0  0
  9  1  1  0  0  0  0
 10  1  1  0  0  0  0
 11  9  1  0  0  0  0
 12  8  1  0  0  0  0
 13  6  1  0  0  0  0
 14  4  1  0  0  0  0
 15  4  1  0  0  0  0
 16 11  1  0  0  0  0
 17  1  1  0  0  0  0
 18 17  3  0  0  0  0
 19  1  1  0  0  0  0
 20 19  3  0  0  0  0
 21 22  4  0  0  0  0
 22 23  4  0  0  0  0
 23 24  4  0  0  0  0
 24 25  4  0  0  0  0
 25 26  4  0  0  0  0
 26 21  4  0  0  0  0
 27 28  4  0  0  0  0
 28 29  4  0  0  0  0
 29 30  4  0  0  0  0
 30 31  4  0  0  0  0
 31 32  4  0  0  0  0
 32  2  1  0  0  0  0
 33 34  4  0  0  0  0
 34 35  4  0  0  0  0
 35 36  4  0  0  0  0
 36 37  4  0  0  0  0
 37 38  4  0  0  0  0
 38  2  1  0  0  0  0
 39 40  4  0  0  0  0
 40 41  4  0  0  0  0
 41 42  4  0  0  0  0
 42 43  4  0  0  0  0
 43 44  4  0  0  0  0
 44  3  1  0  0  0  0
 45 46  4  0  0  0  0
 46 47  4  0  0  0  0
 47 48  4  0  0  0  0
 48 49  4  0  0  0  0
 49 50  4  0  0  0  0
 50  3  1  0  0  0  0
 51 52  4  0  0  0  0
 52 53  4  0  0  0  0
 53 54  4  0  0  0  0
 54 55  4  0  0  0  0
 55 56  4  0  0  0  0
 56  3  1  0  0  0  0
 57  9  1  0  0  0  0
 58 57  1  0  0  0  0
 59 58  4  0  0  0  0
 60 59  4  0  0  0  0
 61 60  4  0  0  0  0
 62 61  1  0  0  0  0
 63 61  4  0  0  0  0
 64 58  4  0  0  0  0
 65  5  1  0  0  0  0
 66  5  1  0  0  0  0
 67  5  1  0  0  0  0
 68  7  1  0  0  0  0
 69  7  1  0  0  0  0
 70  7  1  0  0  0  0
 71  8  1  0  0  0  0
 72 10  1  0  0  0  0
 73 11  1  0  0  0  0
 74 12  1  0  0  0  0
 75 13  1  0  0  0  0
 76 14  1  0  0  0  0
 77 15  1  0  0  0  0
 78 16  1  0  0  0  0
 79 21  1  0  0  0  0
 80 22  1  0  0  0  0
 81 23  1  0  0  0  0
 82 24  1  0  0  0  0
 83 25  1  0  0  0  0
 84 27  1  0  0  0  0
 85 28  1  0  0  0  0
 86 29  1  0  0  0  0
 87 30  1  0  0  0  0
 88 31  1  0  0  0  0
 89 33  1  0  0  0  0
 90 34  1  0  0  0  0
 91 35  1  0  0  0  0
 92 36  1  0  0  0  0
 93 37  1  0  0  0  0
 94 39  1  0  0  0  0
 95 40  1  0  0  0  0
 96 41  1  0  0  0  0
 97 42  1  0  0  0  0
 98 43  1  0  0  0  0
 99 45  1  0  0  0  0
100 46  1  0  0  0  0
101 47  1  0  0  0  0
102 48  1  0  0  0  0
103 49  1  0  0  0  0
104 51  1  0  0  0  0
105 52  1  0  0  0  0
106 53  1  0  0  0  0
107 54  1  0  0  0  0
108 55  1  0  0  0  0
109 59  1  0  0  0  0
110 60  1  0  0  0  0
111 62  1  0  0  0  0
112 62  1  0  0  0  0
113 62  1  0  0  0  0
114 63  1  0  0  0  0
115 64  1  0  0  0  0
  4  6  1  0  0  0  0
  4 10  1  0  0  0  0
  6  8  1  0  0  0  0
  6 14  1  0  0  0  0
  8  9  1  0  0  0  0
  8 13  1  0  0  0  0
  9 10  1  0  0  0  0
  9 12  1  0  0  0  0
 10 11  1  0  0  0  0
 10 15  1  0  0  0  0
 11 12  1  0  0  0  0
 11 15  1  0  0  0  0
 12 13  1  0  0  0  0
 12 16  1  0  0  0  0
 13 14  1  0  0  0  0
 13 16  1  0  0  0  0
 14 15  1  0  0  0  0
 14 16  1  0  0  0  0
 15 16  1  0  0  0  0
 27 32  4  0  0  0  0
 33 38  4  0  0  0  0
 39 44  4  0  0  0  0
 45 50  4  0  0  0  0
 51 56  4  0  0  0  0
 63 64  4  0  0  0  0
M  END
$$$$
JOLPUZ

From CSD data. Using bond type 'Any'. No disordered atoms. Largest molecule.
145156  0  0  0  0  0  0  0  0999 V2000
    3.2803    4.6409    5.4474 P   0  0  0  0  0  0  0  0  0  0  0  0
    4.9890    6.0332    5.6189 P   0  0  0  0  0  0  0  0  0  0  0  0
    3.0883    6.7179    4.7106 P   0  0  0  0  0  0  0  0  0  0  0  0
    4.0064    3.3938    3.7725 P   0  0  0  0  0  0  0  0  0  0  0  0
    6.2065    5.8743    3.7794 P   0  0  0  0  0  0  0  0  0  0  0  0
    3.2220    6.3440    2.5285 P   0  0  0  0  0  0  0  0  0  0  0  0
    4.8393    4.8817    2.3954 P   0  0  0  0  0  0  0  0  0  0  0  0
    2.8635    2.1821    1.7196 O   0  0  0  0  0  0  0  0  0  0  0  0
    8.0396    4.2408    2.8735 O   0  0  0  0  0  0  0  0  0  0  0  0
    4.1602    7.9148    0.5451 O   0  0  0  0  0  0  0  0  0  0  0  0
    2.4187    2.9543    2.8213 C   0  0  0  0  0  0  0  0  0  0  0  0
    2.0048    3.7975    2.4779 H   0  0  0  0  0  0  0  0  0  0  0  0
    1.3911    2.2091    3.6550 C   0  0  0  0  0  0  0  0  0  0  0  0
    0.2120    2.8691    4.0277 C   0  0  0  0  0  0  0  0  0  0  0  0
   -0.0460    4.3264    3.7216 C   0  0  0  0  0  0  0  0  0  0  0  0
    0.6334    4.8781    4.1618 H   0  0  0  0  0  0  0  0  0  0  0  0
   -0.9346    4.5769    4.0529 H   0  0  0  0  0  0  0  0  0  0  0  0
   -0.0069    4.4689    2.7534 H   0  0  0  0  0  0  0  0  0  0  0  0
   -0.7756    2.1608    4.7177 C   0  0  0  0  0  0  0  0  0  0  0  0
   -1.5744    2.6086    4.9684 H   0  0  0  0  0  0  0  0  0  0  0  0
   -0.6226    0.8175    5.0489 C   0  0  0  0  0  0  0  0  0  0  0  0
   -1.7014    0.0749    5.7905 C   0  0  0  0  0  0  0  0  0  0  0  0
   -1.4692    0.0230    6.7410 H   0  0  0  0  0  0  0  0  0  0  0  0
   -1.7856   -0.8312    5.4251 H   0  0  0  0  0  0  0  0  0  0  0  0
   -2.5544    0.5476    5.6882 H   0  0  0  0  0  0  0  0  0  0  0  0
    0.5658    0.2013    4.6935 C   0  0  0  0  0  0  0  0  0  0  0  0
    0.6959   -0.7076    4.9375 H   0  0  0  0  0  0  0  0  0  0  0  0
    1.5737    0.8493    3.9990 C   0  0  0  0  0  0  0  0  0  0  0  0
    2.8107    0.0637    3.6446 C   0  0  0  0  0  0  0  0  0  0  0  0
    2.7492   -0.2386    2.7148 H   0  0  0  0  0  0  0  0  0  0  0  0
    2.8830   -0.7136    4.2372 H   0  0  0  0  0  0  0  0  0  0  0  0
    3.6005    0.6324    3.7529 H   0  0  0  0  0  0  0  0  0  0  0  0
    2.9545    1.3879   -0.6511 C   0  0  0  0  0  0  0  0  0  0  0  0
    3.6223    0.7609   -0.2502 H   0  0  0  0  0  0  0  0  0  0  0  0
    3.6143    2.1799   -1.8030 C   0  0  0  0  0  0  0  0  0  0  0  0
    4.5836    1.9798   -1.8023 H   0  0  0  0  0  0  0  0  0  0  0  0
    3.2440    1.8490   -2.6592 H   0  0  0  0  0  0  0  0  0  0  0  0
    2.1736    4.2180   -1.3060 C   0  0  0  0  0  0  0  0  0  0  0  0
    1.5522    4.2568   -2.0759 H   0  0  0  0  0  0  0  0  0  0  0  0
    2.3498    5.1485   -1.0188 H   0  0  0  0  0  0  0  0  0  0  0  0
    1.4633    3.4659   -0.1368 C   0  0  0  0  0  0  0  0  0  0  0  0
    1.2064    4.1096    0.5840 H   0  0  0  0  0  0  0  0  0  0  0  0
    0.2217    2.6420   -0.5952 C   0  0  0  0  0  0  0  0  0  0  0  0
   -0.2309    2.2748    0.2052 H   0  0  0  0  0  0  0  0  0  0  0  0
   -0.4145    3.2497   -1.0487 H   0  0  0  0  0  0  0  0  0  0  0  0
    0.5663    1.4915   -1.5410 C   0  0  0  0  0  0  0  0  0  0  0  0
   -0.2408    0.9300   -1.6597 H   0  0  0  0  0  0  0  0  0  0  0  0
    0.7996    1.8694   -2.4248 H   0  0  0  0  0  0  0  0  0  0  0  0
    1.7037    0.6055   -1.0807 C   0  0  0  0  0  0  0  0  0  0  0  0
    1.9485   -0.0097   -1.8181 H   0  0  0  0  0  0  0  0  0  0  0  0
    1.3934    0.0536   -0.3199 H   0  0  0  0  0  0  0  0  0  0  0  0
    7.4314    4.4698    4.1123 C   0  0  0  0  0  0  0  0  0  0  0  0
    6.9266    3.6511    4.3867 H   0  0  0  0  0  0  0  0  0  0  0  0
    8.4403    4.8170    5.1883 C   0  0  0  0  0  0  0  0  0  0  0  0
    8.3124    4.2164    6.4510 C   0  0  0  0  0  0  0  0  0  0  0  0
    7.1722    3.2890    6.7960 C   0  0  0  0  0  0  0  0  0  0  0  0
    6.3276    3.6807    6.4887 H   0  0  0  0  0  0  0  0  0  0  0  0
    7.1374    3.1608    7.7674 H   0  0  0  0  0  0  0  0  0  0  0  0
    7.3093    2.4237    6.3573 H   0  0  0  0  0  0  0  0  0  0  0  0
    9.2864    4.4538    7.4169 C   0  0  0  0  0  0  0  0  0  0  0  0
    9.1861    4.0620    8.2761 H   0  0  0  0  0  0  0  0  0  0  0  0
   10.3983    5.2458    7.1674 C   0  0  0  0  0  0  0  0  0  0  0  0
   11.4955    5.4052    8.1810 C   0  0  0  0  0  0  0  0  0  0  0  0
   11.2138    5.0085    9.0324 H   0  0  0  0  0  0  0  0  0  0  0  0
   11.6829    6.3584    8.3120 H   0  0  0  0  0  0  0  0  0  0  0  0
   12.3040    4.9538    7.8621 H   0  0  0  0  0  0  0  0  0  0  0  0
   10.4685    5.8752    5.9315 C   0  0  0  0  0  0  0  0  0  0  0  0
   11.2015    6.4530    5.7564 H   0  0  0  0  0  0  0  0  0  0  0  0
    9.5115    5.6936    4.9394 C   0  0  0  0  0  0  0  0  0  0  0  0
    9.6872    6.4553    3.6411 C   0  0  0  0  0  0  0  0  0  0  0  0
   10.0743    5.8617    2.9642 H   0  0  0  0  0  0  0  0  0  0  0  0
   10.2837    7.2178    3.7877 H   0  0  0  0  0  0  0  0  0  0  0  0
    8.8144    6.7774    3.3315 H   0  0  0  0  0  0  0  0  0  0  0  0
    8.7335    2.9719    0.8495 C   0  0  0  0  0  0  0  0  0  0  0  0
    9.0634    3.8808    0.5933 H   0  0  0  0  0  0  0  0  0  0  0  0
    7.7216    2.4763   -0.1984 C   0  0  0  0  0  0  0  0  0  0  0  0
    7.0438    3.1846   -0.3414 H   0  0  0  0  0  0  0  0  0  0  0  0
    8.1977    2.3442   -1.0569 H   0  0  0  0  0  0  0  0  0  0  0  0
    7.0044    1.1935    0.1541 C   0  0  0  0  0  0  0  0  0  0  0  0
    6.2684    1.0525   -0.4925 H   0  0  0  0  0  0  0  0  0  0  0  0
    7.6386    0.4389    0.0559 H   0  0  0  0  0  0  0  0  0  0  0  0
    6.4395    1.1728    1.5430 C   0  0  0  0  0  0  0  0  0  0  0  0
    6.1615    0.2465    1.7541 H   0  0  0  0  0  0  0  0  0  0  0  0
    5.6283    1.7391    1.5598 H   0  0  0  0  0  0  0  0  0  0  0  0
    7.4065    1.6620    2.6525 C   0  0  0  0  0  0  0  0  0  0  0  0
    6.9136    1.7711    3.5161 H   0  0  0  0  0  0  0  0  0  0  0  0
    8.6155    0.6964    2.8375 C   0  0  0  0  0  0  0  0  0  0  0  0
    8.9646    0.8102    3.7576 H   0  0  0  0  0  0  0  0  0  0  0  0
    8.2846   -0.2335    2.7608 H   0  0  0  0  0  0  0  0  0  0  0  0
    9.7240    0.8669    1.9032 C   0  0  0  0  0  0  0  0  0  0  0  0
   10.5525    0.7576    2.4334 H   0  0  0  0  0  0  0  0  0  0  0  0
    9.6842    0.0966    1.2832 H   0  0  0  0  0  0  0  0  0  0  0  0
    9.9201    2.0413    1.0807 C   0  0  0  0  0  0  0  0  0  0  0  0
   10.2421    1.7370    0.1940 H   0  0  0  0  0  0  0  0  0  0  0  0
   10.6489    2.5751    1.4858 H   0  0  0  0  0  0  0  0  0  0  0  0
    4.0966    7.9299    1.9523 C   0  0  0  0  0  0  0  0  0  0  0  0
    5.0271    7.9378    2.3184 H   0  0  0  0  0  0  0  0  0  0  0  0
    3.3480    9.1433    2.4834 C   0  0  0  0  0  0  0  0  0  0  0  0
    4.0084    9.9767    3.4053 C   0  0  0  0  0  0  0  0  0  0  0  0
    5.4434    9.7682    3.8391 C   0  0  0  0  0  0  0  0  0  0  0  0
    5.5097    8.9409    4.3606 H   0  0  0  0  0  0  0  0  0  0  0  0
    5.7309   10.5256    4.3910 H   0  0  0  0  0  0  0  0  0  0  0  0
    6.0178    9.7032    3.0485 H   0  0  0  0  0  0  0  0  0  0  0  0
    3.3033   11.0394    3.9657 C   0  0  0  0  0  0  0  0  0  0  0  0
    3.7505   11.6122    4.5777 H   0  0  0  0  0  0  0  0  0  0  0  0
    1.9796   11.2920    3.6662 C   0  0  0  0  0  0  0  0  0  0  0  0
    1.2341   12.4118    4.3361 C   0  0  0  0  0  0  0  0  0  0  0  0
    1.4008   12.3841    5.3010 H   0  0  0  0  0  0  0  0  0  0  0  0
    0.2747   12.3135    4.1661 H   0  0  0  0  0  0  0  0  0  0  0  0
    1.5433   13.2704    3.9762 H   0  0  0  0  0  0  0  0  0  0  0  0
    1.3593   10.4793    2.7236 C   0  0  0  0  0  0  0  0  0  0  0  0
    0.4568   10.6559    2.4851 H   0  0  0  0  0  0  0  0  0  0  0  0
    2.0238    9.4118    2.1176 C   0  0  0  0  0  0  0  0  0  0  0  0
    1.2579    8.6081    1.0834 C   0  0  0  0  0  0  0  0  0  0  0  0
    1.8422    8.4161    0.3203 H   0  0  0  0  0  0  0  0  0  0  0  0
    0.4814    9.1223    0.7790 H   0  0  0  0  0  0  0  0  0  0  0  0
    0.9555    7.7655    1.4828 H   0  0  0  0  0  0  0  0  0  0  0  0
    6.8222    7.9038    0.3841 C   0  0  0  0  0  0  0  0  0  0  0  0
    6.8379    7.9337    1.3835 H   0  0  0  0  0  0  0  0  0  0  0  0
    7.6220    9.1100   -0.2292 C   0  0  0  0  0  0  0  0  0  0  0  0
    7.9809    9.6656    0.5071 H   0  0  0  0  0  0  0  0  0  0  0  0
    8.3913    8.7570   -0.7437 H   0  0  0  0  0  0  0  0  0  0  0  0
    6.7744    9.9833   -1.1423 C   0  0  0  0  0  0  0  0  0  0  0  0
    6.1003   10.4598   -0.5960 H   0  0  0  0  0  0  0  0  0  0  0  0
    7.3558   10.6645   -1.5654 H   0  0  0  0  0  0  0  0  0  0  0  0
    6.0664    9.2025   -2.2249 C   0  0  0  0  0  0  0  0  0  0  0  0
    6.7387    8.8763   -2.8742 H   0  0  0  0  0  0  0  0  0  0  0  0
    5.4521    9.8101   -2.7068 H   0  0  0  0  0  0  0  0  0  0  0  0
    5.2574    7.9930   -1.6932 C   0  0  0  0  0  0  0  0  0  0  0  0
    4.3028    8.0704   -1.9791 H   0  0  0  0  0  0  0  0  0  0  0  0
    5.8374    6.6306   -2.1555 C   0  0  0  0  0  0  0  0  0  0  0  0
    5.2495    5.9037   -1.8295 H   0  0  0  0  0  0  0  0  0  0  0  0
    5.8374    6.5997   -3.1446 H   0  0  0  0  0  0  0  0  0  0  0  0
    7.2499    6.3899   -1.6508 C   0  0  0  0  0  0  0  0  0  0  0  0
    7.5281    5.4754   -1.9063 H   0  0  0  0  0  0  0  0  0  0  0  0
    7.8614    7.0267   -2.0999 H   0  0  0  0  0  0  0  0  0  0  0  0
    7.4024    6.5461   -0.1464 C   0  0  0  0  0  0  0  0  0  0  0  0
    8.3621    6.4906    0.0879 H   0  0  0  0  0  0  0  0  0  0  0  0
    6.9365    5.7970    0.3034 H   0  0  0  0  0  0  0  0  0  0  0  0
    2.4688    2.3887    0.4257 B   0  0  0  0  0  0  0  0  0  0  0  0
    8.0112    3.0516    2.1864 B   0  0  0  0  0  0  0  0  0  0  0  0
    5.3434    7.9659   -0.1580 B   0  0  0  0  0  0  0  0  0  0  0  0
    3.4497    3.6204   -1.7645 C   0  0  0  0  0  0  0  0  0  0  0  0
    3.6195    3.9589   -2.6783 H   0  0  0  0  0  0  0  0  0  0  0  0
    4.1660    3.9813   -1.1854 H   0  0  0  0  0  0  0  0  0  0  0  0
  1  2  1  0  0  0  0
  2  3  1  0  0  0  0
  3  1  1  0  0  0  0
  4  1  1  0  0  0  0
  5  2  1  0  0  0  0
  6  3  1  0  0  0  0
  7  4  1  0  0  0  0
  8 11  1  0  0  0  0
  9 52  1  0  0  0  0
 10 96  1  0  0  0  0
 11  4  1  0  0  0  0
 12 11  1  0  0  0  0
 13 11  1  0  0  0  0
 14 13  4  0  0  0  0
 15 14  1  0  0  0  0
 16 15  1  0  0  0  0
 17 15  1  0  0  0  0
 18 15  1  0  0  0  0
 19 14  4  0  0  0  0
 20 19  1  0  0  0  0
 21 19  4  0  0  0  0
 22 21  1  0  0  0  0
 23 22  1  0  0  0  0
 24 22  1  0  0  0  0
 25 22  1  0  0  0  0
 26 21  4  0  0  0  0
 27 26  1  0  0  0  0
 28 13  4  0  0  0  0
 29 28  1  0  0  0  0
 30 29  1  0  0  0  0
 31 29  1  0  0  0  0
 32 29  1  0  0  0  0
 33 34  1  0  0  0  0
 35 33  1  0  0  0  0
 36 35  1  0  0  0  0
 37 35  1  0  0  0  0
 38 39  1  0  0  0  0
 40 38  1  0  0  0  0
 41 38  1  0  0  0  0
 42 41  1  0  0  0  0
 43 41  1  0  0  0  0
 44 43  1  0  0  0  0
 45 43  1  0  0  0  0
 46 43  1  0  0  0  0
 47 46  1  0  0  0  0
 48 46  1  0  0  0  0
 49 33  1  0  0  0  0
 50 49  1  0  0  0  0
 51 49  1  0  0  0  0
 52  5  1  0  0  0  0
 53 52  1  0  0  0  0
 54 52  1  0  0  0  0
 55 54  4  0  0  0  0
 56 55  1  0  0  0  0
 57 56  1  0  0  0  0
 58 56  1  0  0  0  0
 59 56  1  0  0  0  0
 60 55  4  0  0  0  0
 61 60  1  0  0  0  0
 62 60  4  0  0  0  0
 63 62  1  0  0  0  0
 64 63  1  0  0  0  0
 65 63  1  0  0  0  0
 66 63  1  0  0  0  0
 67 62  4  0  0  0  0
 68 67  1  0  0  0  0
 69 54  4  0  0  0  0
 70 69  1  0  0  0  0
 71 70  1  0  0  0  0
 72 70  1  0  0  0  0
 73 70  1  0  0  0  0
 74 75  1  0  0  0  0
 76 74  1  0  0  0  0
 77 76  1  0  0  0  0
 78 76  1  0  0  0  0
 79 76  1  0  0  0  0
 80 79  1  0  0  0  0
 81 79  1  0  0  0  0
 82 79  1  0  0  0  0
 83 82  1  0  0  0  0
 84 82  1  0  0  0  0
 85 82  1  0  0  0  0
 86 85  1  0  0  0  0
 87 85  1  0  0  0  0
 88 87  1  0  0  0  0
 89 87  1  0  0  0  0
 90 87  1  0  0  0  0
 91 90  1  0  0  0  0
 92 90  1  0  0  0  0
 93 74  1  0  0  0  0
 94 93  1  0  0  0  0
 95 93  1  0  0  0  0
 96  6  1  0  0  0  0
 97 96  1  0  0  0  0
 98 96  1  0  0  0  0
 99 98  4  0  0  0  0
100 99  1  0  0  0  0
101100  1  0  0  0  0
102100  1  0  0  0  0
103100  1  0  0  0  0
104 99  4  0  0  0  0
105104  1  0  0  0  0
106104  4  0  0  0  0
107106  1  0  0  0  0
108107  1  0  0  0  0
109107  1  0  0  0  0
110107  1  0  0  0  0
111106  4  0  0  0  0
112111  1  0  0  0  0
113 98  4  0  0  0  0
114113  1  0  0  0  0
115114  1  0  0  0  0
116114  1  0  0  0  0
117114  1  0  0  0  0
118119  1  0  0  0  0
120118  1  0  0  0  0
121120  1  0  0  0  0
122120  1  0  0  0  0
123120  1  0  0  0  0
124123  1  0  0  0  0
125123  1  0  0  0  0
126123  1  0  0  0  0
127126  1  0  0  0  0
128126  1  0  0  0  0
129126  1  0  0  0  0
130129  1  0  0  0  0
131129  1  0  0  0  0
132131  1  0  0  0  0
133131  1  0  0  0  0
134131  1  0  0  0  0
135134  1  0  0  0  0
136134  1  0  0  0  0
137118  1  0  0  0  0
138137  1  0  0  0  0
139137  1  0  0  0  0
140  8  1  0  0  0  0
141  9  1  0  0  0  0
142 10  1  0  0  0  0
143 35  1  0  0  0  0
144143  1  0  0  0  0
145143  1  0  0  0  0
  5  7  1  0  0  0  0
  6  7  1  0  0  0  0
 26 28  4  0  0  0  0
 33140  1  0  0  0  0
 38143  1  0  0  0  0
 41140  1  0  0  0  0
 46 49  1  0  0  0  0
 67 69  4  0  0  0  0
 74141  1  0  0  0  0
 85141  1  0  0  0  0
 90 93  1  0  0  0  0
111113  4  0  0  0  0
118142  1  0  0  0  0
129142  1  0  0  0  0
134137  1  0  0  0  0
M  END
$$$$
JOSSUI

From CSD data. Using bond type 'Any'. No disordered atoms. Largest molecule.
210227  0  0  0  0  0  0  0  0999 V2000
    5.4191    7.7441   15.8457 Au  0  3  0  0  0  0  0  0  0  0  0  0
    3.9382    5.7131   14.4083 W   0  0  0  0  0  0  0  0  0  0  0  0
    6.9167    9.4797   15.9440 P   0  0  0  0  0  0  0  0  0  0  0  0
    0.8904    5.8861   15.1812 O   0  0  0  0  0  0  0  0  0  0  0  0
    4.2297    7.3401   11.7795 N   0  0  0  0  0  0  0  0  0  0  0  0
    5.9363    5.4688   13.4987 N   0  0  0  0  0  0  0  0  0  0  0  0
    3.7397    7.4272   13.0467 N   0  0  0  0  0  0  0  0  0  0  0  0
    6.0899    5.6987   12.1678 N   0  0  0  0  0  0  0  0  0  0  0  0
    4.1510    2.9382   15.9017 O   0  0  0  0  0  0  0  0  0  0  0  0
    3.2747    4.5542   12.6603 N   0  0  0  0  0  0  0  0  0  0  0  0
    3.8395    4.8816   11.4414 N   0  0  0  0  0  0  0  0  0  0  0  0
    3.9090    8.4594   11.1015 C   0  0  0  0  0  0  0  0  0  0  0  0
    3.1149    8.6123   13.1587 C   0  0  0  0  0  0  0  0  0  0  0  0
    3.9983    6.2687   16.2069 C   0  0  0  0  0  0  0  0  0  0  0  0
    3.5427    6.2008   17.5302 C   0  0  0  0  0  0  0  0  0  0  0  0
    7.1087    5.0143   13.9739 C   0  0  0  0  0  0  0  0  0  0  0  0
    2.4494    9.0776   14.4221 C   0  0  0  0  0  0  0  0  0  0  0  0
    1.8523    8.3950   14.7369 H   0  0  0  0  0  0  0  0  0  0  0  0
    1.9532    9.8796   14.2443 H   0  0  0  0  0  0  0  0  0  0  0  0
    3.1154    9.2517   15.0885 H   0  0  0  0  0  0  0  0  0  0  0  0
    4.0648    3.9252   15.3338 C   0  0  0  0  0  0  0  0  0  0  0  0
    1.9978    5.8176   14.8644 C   0  0  0  0  0  0  0  0  0  0  0  0
    4.2735    8.6617    9.6662 C   0  0  0  0  0  0  0  0  0  0  0  0
    5.2206    8.5480    9.5561 H   0  0  0  0  0  0  0  0  0  0  0  0
    4.0234    9.5475    9.3938 H   0  0  0  0  0  0  0  0  0  0  0  0
    3.8095    8.0182    9.1234 H   0  0  0  0  0  0  0  0  0  0  0  0
    6.5201   10.1750   13.2959 C   0  0  0  0  0  0  0  0  0  0  0  0
    6.0877   10.9866   13.6030 H   0  0  0  0  0  0  0  0  0  0  0  0
    5.8523    9.4715   13.2708 H   0  0  0  0  0  0  0  0  0  0  0  0
    7.3578    5.3955   11.8201 C   0  0  0  0  0  0  0  0  0  0  0  0
    3.2102    9.2845   11.9591 C   0  0  0  0  0  0  0  0  0  0  0  0
    2.8697   10.1281   11.7660 H   0  0  0  0  0  0  0  0  0  0  0  0
    2.4690    3.5071   12.4788 C   0  0  0  0  0  0  0  0  0  0  0  0
    1.6940    2.8135   13.5315 C   0  0  0  0  0  0  0  0  0  0  0  0
    2.2790    2.2452   14.0376 H   0  0  0  0  0  0  0  0  0  0  0  0
    1.0058    2.2825   13.1259 H   0  0  0  0  0  0  0  0  0  0  0  0
    1.2942    3.4629   14.1149 H   0  0  0  0  0  0  0  0  0  0  0  0
    7.6128    9.7903   14.2772 C   0  0  0  0  0  0  0  0  0  0  0  0
    8.2499   10.5323   14.3390 H   0  0  0  0  0  0  0  0  0  0  0  0
    3.3958    4.0176   10.5104 C   0  0  0  0  0  0  0  0  0  0  0  0
    8.3610    8.5460   13.7672 C   0  0  0  0  0  0  0  0  0  0  0  0
    9.0949    8.3443   14.3699 H   0  0  0  0  0  0  0  0  0  0  0  0
    7.7578    7.7872   13.7672 H   0  0  0  0  0  0  0  0  0  0  0  0
    3.1696    6.1730   18.6795 C   0  0  0  0  0  0  0  0  0  0  0  0
    7.3032    4.6487   15.3995 C   0  0  0  0  0  0  0  0  0  0  0  0
    6.9820    5.3596   15.9597 H   0  0  0  0  0  0  0  0  0  0  0  0
    8.2373    4.5055   15.5675 H   0  0  0  0  0  0  0  0  0  0  0  0
    6.8168    3.8446   15.5927 H   0  0  0  0  0  0  0  0  0  0  0  0
    7.7853    9.1585   11.3951 C   0  0  0  0  0  0  0  0  0  0  0  0
    8.1591    9.3327   10.5162 H   0  0  0  0  0  0  0  0  0  0  0  0
    7.1526    8.4286   11.3140 H   0  0  0  0  0  0  0  0  0  0  0  0
    2.5299    3.1499   11.1266 C   0  0  0  0  0  0  0  0  0  0  0  0
    2.0671    2.4517   10.7209 H   0  0  0  0  0  0  0  0  0  0  0  0
    4.8593    6.0465   11.3043 B   0  0  0  0  0  0  0  0  0  0  0  0
    5.1309    6.1376   10.3674 H   0  0  0  0  0  0  0  0  0  0  0  0
    8.9073    8.7598   12.3590 C   0  0  0  0  0  0  0  0  0  0  0  0
    9.3256    7.9421   12.0461 H   0  0  0  0  0  0  0  0  0  0  0  0
    9.5819    9.4561   12.3745 H   0  0  0  0  0  0  0  0  0  0  0  0
    3.8639    4.0833    9.0828 C   0  0  0  0  0  0  0  0  0  0  0  0
    3.6282    4.9351    8.7081 H   0  0  0  0  0  0  0  0  0  0  0  0
    3.4444    3.3840    8.5767 H   0  0  0  0  0  0  0  0  0  0  0  0
    4.8162    3.9723    9.0519 H   0  0  0  0  0  0  0  0  0  0  0  0
    8.0163    4.9830   12.9346 C   0  0  0  0  0  0  0  0  0  0  0  0
    8.9091    4.7283   12.9868 H   0  0  0  0  0  0  0  0  0  0  0  0
    7.0673   10.3977   11.8935 C   0  0  0  0  0  0  0  0  0  0  0  0
    6.3361   10.6120   11.2908 H   0  0  0  0  0  0  0  0  0  0  0  0
    7.6819   11.1477   11.9012 H   0  0  0  0  0  0  0  0  0  0  0  0
    7.0098   12.3042   16.1007 C   0  0  0  0  0  0  0  0  0  0  0  0
    7.9718   12.2479   16.1799 H   0  0  0  0  0  0  0  0  0  0  0  0
    6.7862   12.3899   15.1600 H   0  0  0  0  0  0  0  0  0  0  0  0
    7.8664    5.5388   10.4022 C   0  0  0  0  0  0  0  0  0  0  0  0
    7.3634    4.9623    9.8227 H   0  0  0  0  0  0  0  0  0  0  0  0
    8.7942    5.2951   10.3694 H   0  0  0  0  0  0  0  0  0  0  0  0
    7.7641    6.4483   10.1163 H   0  0  0  0  0  0  0  0  0  0  0  0
    6.3609   10.9967   16.6686 C   0  0  0  0  0  0  0  0  0  0  0  0
    6.5806   10.9589   17.6229 H   0  0  0  0  0  0  0  0  0  0  0  0
    4.2925   12.3641   17.2694 C   0  0  0  0  0  0  0  0  0  0  0  0
    4.4669   12.2815   18.2198 H   0  0  0  0  0  0  0  0  0  0  0  0
    3.3315   12.4420   17.1477 H   0  0  0  0  0  0  0  0  0  0  0  0
    4.9835   13.6211   16.7285 C   0  0  0  0  0  0  0  0  0  0  0  0
    4.7457   13.7402   15.7955 H   0  0  0  0  0  0  0  0  0  0  0  0
    4.6639   14.3963   17.2172 H   0  0  0  0  0  0  0  0  0  0  0  0
    4.7902   11.1269   16.5566 C   0  0  0  0  0  0  0  0  0  0  0  0
    4.5354   11.1709   15.6216 H   0  0  0  0  0  0  0  0  0  0  0  0
    4.3738   10.3427   16.9448 H   0  0  0  0  0  0  0  0  0  0  0  0
    6.4952   13.5224   16.8599 C   0  0  0  0  0  0  0  0  0  0  0  0
    6.9109   14.3255   16.5044 H   0  0  0  0  0  0  0  0  0  0  0  0
    6.7415   13.4495   17.7967 H   0  0  0  0  0  0  0  0  0  0  0  0
    7.9117    8.3569   18.3221 C   0  0  0  0  0  0  0  0  0  0  0  0
    7.4286    9.0543   18.7916 H   0  0  0  0  0  0  0  0  0  0  0  0
    7.3027    7.6177   18.1676 H   0  0  0  0  0  0  0  0  0  0  0  0
    9.0839    7.8842   19.1682 C   0  0  0  0  0  0  0  0  0  0  0  0
    9.4842    7.1116   18.7452 H   0  0  0  0  0  0  0  0  0  0  0  0
    8.7520    7.6093   20.0356 H   0  0  0  0  0  0  0  0  0  0  0  0
   10.1640    8.9549   19.3711 C   0  0  0  0  0  0  0  0  0  0  0  0
    9.8036    9.7030   19.8675 H   0  0  0  0  0  0  0  0  0  0  0  0
   10.9055    8.5811   19.8791 H   0  0  0  0  0  0  0  0  0  0  0  0
   10.6646    9.4280   18.0227 C   0  0  0  0  0  0  0  0  0  0  0  0
   11.0758    8.6802   17.5630 H   0  0  0  0  0  0  0  0  0  0  0  0
   11.3506   10.0982   18.1637 H   0  0  0  0  0  0  0  0  0  0  0  0
    9.4387   10.1021   16.9970 C   0  0  0  0  0  0  0  0  0  0  0  0
    9.0404   10.9004   17.3814 H   0  0  0  0  0  0  0  0  0  0  0  0
    9.7726   10.2999   16.1084 H   0  0  0  0  0  0  0  0  0  0  0  0
    8.4240    8.8941   16.9854 C   0  0  0  0  0  0  0  0  0  0  0  0
    8.8494    8.1515   16.5064 H   0  0  0  0  0  0  0  0  0  0  0  0
    1.9141    6.0249   22.4270 C   0  0  0  0  0  0  0  0  0  0  0  0
    2.3697    6.0929   21.1038 C   0  0  0  0  0  0  0  0  0  0  0  0
    2.7428    6.1206   19.9544 C   0  0  0  0  0  0  0  0  0  0  0  0
    0.4933    4.5496   22.7882 Au  0  3  0  0  0  0  0  0  0  0  0  0
    1.9742    6.5805   24.2256 W   0  0  0  0  0  0  0  0  0  0  0  0
   -1.0043    2.8140   22.6899 P   0  0  0  0  0  0  0  0  0  0  0  0
    5.0220    6.4075   23.4527 O   0  0  0  0  0  0  0  0  0  0  0  0
    1.6827    4.9535   26.8545 N   0  0  0  0  0  0  0  0  0  0  0  0
   -0.0239    6.8249   25.1352 N   0  0  0  0  0  0  0  0  0  0  0  0
    2.1727    4.8665   25.5873 N   0  0  0  0  0  0  0  0  0  0  0  0
   -0.1776    6.5950   26.4662 N   0  0  0  0  0  0  0  0  0  0  0  0
    1.7613    9.3555   22.7322 O   0  0  0  0  0  0  0  0  0  0  0  0
    2.6377    7.7395   25.9736 N   0  0  0  0  0  0  0  0  0  0  0  0
    2.0729    7.4121   27.1925 N   0  0  0  0  0  0  0  0  0  0  0  0
    2.0034    3.8343   27.5325 C   0  0  0  0  0  0  0  0  0  0  0  0
    2.7975    3.6813   25.4752 C   0  0  0  0  0  0  0  0  0  0  0  0
   -1.1964    7.2793   24.6600 C   0  0  0  0  0  0  0  0  0  0  0  0
    3.4629    3.2161   24.2119 C   0  0  0  0  0  0  0  0  0  0  0  0
    4.0601    3.8986   23.8970 H   0  0  0  0  0  0  0  0  0  0  0  0
    3.9591    2.4140   24.3896 H   0  0  0  0  0  0  0  0  0  0  0  0
    2.7970    3.0420   23.5455 H   0  0  0  0  0  0  0  0  0  0  0  0
    1.8476    8.3685   23.3001 C   0  0  0  0  0  0  0  0  0  0  0  0
    3.9145    6.4760   23.7695 C   0  0  0  0  0  0  0  0  0  0  0  0
    1.6389    3.6319   28.9677 C   0  0  0  0  0  0  0  0  0  0  0  0
    0.6918    3.7457   29.0778 H   0  0  0  0  0  0  0  0  0  0  0  0
    1.8890    2.7462   29.2401 H   0  0  0  0  0  0  0  0  0  0  0  0
    2.1029    4.2754   29.5105 H   0  0  0  0  0  0  0  0  0  0  0  0
   -0.6077    2.1186   25.3381 C   0  0  0  0  0  0  0  0  0  0  0  0
   -0.1754    1.3070   25.0309 H   0  0  0  0  0  0  0  0  0  0  0  0
    0.0601    2.8222   25.3632 H   0  0  0  0  0  0  0  0  0  0  0  0
   -1.4454    6.8981   26.8139 C   0  0  0  0  0  0  0  0  0  0  0  0
    2.7022    3.0091   26.6748 C   0  0  0  0  0  0  0  0  0  0  0  0
    3.0427    2.1656   26.8680 H   0  0  0  0  0  0  0  0  0  0  0  0
    3.4434    8.7865   26.1552 C   0  0  0  0  0  0  0  0  0  0  0  0
    4.2184    9.4802   25.1024 C   0  0  0  0  0  0  0  0  0  0  0  0
    3.6334   10.0484   24.5963 H   0  0  0  0  0  0  0  0  0  0  0  0
    4.9066   10.0112   25.5081 H   0  0  0  0  0  0  0  0  0  0  0  0
    4.6182    8.8308   24.5190 H   0  0  0  0  0  0  0  0  0  0  0  0
   -1.7004    2.5034   24.3568 C   0  0  0  0  0  0  0  0  0  0  0  0
   -2.3375    1.7614   24.2950 H   0  0  0  0  0  0  0  0  0  0  0  0
    2.5165    8.2761   28.1236 C   0  0  0  0  0  0  0  0  0  0  0  0
   -2.4486    3.7477   24.8667 C   0  0  0  0  0  0  0  0  0  0  0  0
   -3.1825    3.9494   24.2640 H   0  0  0  0  0  0  0  0  0  0  0  0
   -1.8454    4.5065   24.8667 H   0  0  0  0  0  0  0  0  0  0  0  0
   -1.3909    7.6449   23.2345 C   0  0  0  0  0  0  0  0  0  0  0  0
   -1.0696    6.9341   22.6743 H   0  0  0  0  0  0  0  0  0  0  0  0
   -2.3249    7.7882   23.0664 H   0  0  0  0  0  0  0  0  0  0  0  0
   -0.9044    8.4491   23.0413 H   0  0  0  0  0  0  0  0  0  0  0  0
   -1.8729    3.1352   27.2389 C   0  0  0  0  0  0  0  0  0  0  0  0
   -2.2467    2.9610   28.1178 H   0  0  0  0  0  0  0  0  0  0  0  0
   -1.2402    3.8650   27.3200 H   0  0  0  0  0  0  0  0  0  0  0  0
    3.3825    9.1437   27.5074 C   0  0  0  0  0  0  0  0  0  0  0  0
    3.8453    9.8420   27.9130 H   0  0  0  0  0  0  0  0  0  0  0  0
    1.0531    6.2472   27.3297 B   0  0  0  0  0  0  0  0  0  0  0  0
    0.7815    6.1561   28.2665 H   0  0  0  0  0  0  0  0  0  0  0  0
   -2.9950    3.5339   26.2749 C   0  0  0  0  0  0  0  0  0  0  0  0
   -3.4132    4.3516   26.5879 H   0  0  0  0  0  0  0  0  0  0  0  0
   -3.6695    2.8376   26.2595 H   0  0  0  0  0  0  0  0  0  0  0  0
    2.0485    8.2104   29.5511 C   0  0  0  0  0  0  0  0  0  0  0  0
    2.2842    7.3586   29.9259 H   0  0  0  0  0  0  0  0  0  0  0  0
    2.4680    8.9096   30.0572 H   0  0  0  0  0  0  0  0  0  0  0  0
    1.0961    8.3214   29.5820 H   0  0  0  0  0  0  0  0  0  0  0  0
   -2.1039    7.3107   25.6993 C   0  0  0  0  0  0  0  0  0  0  0  0
   -2.9967    7.5653   25.6471 H   0  0  0  0  0  0  0  0  0  0  0  0
   -1.1549    1.8960   26.7405 C   0  0  0  0  0  0  0  0  0  0  0  0
   -0.4237    1.6816   27.3432 H   0  0  0  0  0  0  0  0  0  0  0  0
   -1.7695    1.1459   26.7328 H   0  0  0  0  0  0  0  0  0  0  0  0
   -1.0974   -0.0105   22.5332 C   0  0  0  0  0  0  0  0  0  0  0  0
   -2.0594    0.0458   22.4540 H   0  0  0  0  0  0  0  0  0  0  0  0
   -0.8738   -0.0962   23.4740 H   0  0  0  0  0  0  0  0  0  0  0  0
   -1.9541    6.7549   28.2318 C   0  0  0  0  0  0  0  0  0  0  0  0
   -1.4510    7.3313   28.8113 H   0  0  0  0  0  0  0  0  0  0  0  0
   -2.8818    6.9986   28.2646 H   0  0  0  0  0  0  0  0  0  0  0  0
   -1.8518    5.8453   28.5176 H   0  0  0  0  0  0  0  0  0  0  0  0
   -0.4485    1.2969   21.9653 C   0  0  0  0  0  0  0  0  0  0  0  0
   -0.6682    1.3347   21.0111 H   0  0  0  0  0  0  0  0  0  0  0  0
    1.6199   -0.0704   21.3646 C   0  0  0  0  0  0  0  0  0  0  0  0
    1.4455    0.0122   20.4142 H   0  0  0  0  0  0  0  0  0  0  0  0
    2.5808   -0.1483   21.4863 H   0  0  0  0  0  0  0  0  0  0  0  0
    0.9289   -1.3275   21.9054 C   0  0  0  0  0  0  0  0  0  0  0  0
    1.1667   -1.4465   22.8385 H   0  0  0  0  0  0  0  0  0  0  0  0
    1.2485   -2.1027   21.4167 H   0  0  0  0  0  0  0  0  0  0  0  0
    1.1222    1.1668   22.0774 C   0  0  0  0  0  0  0  0  0  0  0  0
    1.3769    1.1228   23.0123 H   0  0  0  0  0  0  0  0  0  0  0  0
    1.5386    1.9510   21.6891 H   0  0  0  0  0  0  0  0  0  0  0  0
   -0.5829   -1.2287   21.7741 C   0  0  0  0  0  0  0  0  0  0  0  0
   -0.9985   -2.0318   22.1295 H   0  0  0  0  0  0  0  0  0  0  0  0
   -0.8291   -1.1559   20.8372 H   0  0  0  0  0  0  0  0  0  0  0  0
   -1.9993    3.9368   20.3118 C   0  0  0  0  0  0  0  0  0  0  0  0
   -1.5162    3.2394   19.8424 H   0  0  0  0  0  0  0  0  0  0  0  0
   -1.3903    4.6759   20.4663 H   0  0  0  0  0  0  0  0  0  0  0  0
   -3.1715    4.4095   19.4657 C   0  0  0  0  0  0  0  0  0  0  0  0
   -3.5719    5.1821   19.8888 H   0  0  0  0  0  0  0  0  0  0  0  0
   -2.8396    4.6844   18.5984 H   0  0  0  0  0  0  0  0  0  0  0  0
   -4.2516    3.3388   19.2629 C   0  0  0  0  0  0  0  0  0  0  0  0
   -3.8913    2.5906   18.7664 H   0  0  0  0  0  0  0  0  0  0  0  0
   -4.9931    3.7125   18.7548 H   0  0  0  0  0  0  0  0  0  0  0  0
   -4.7522    2.8657   20.6112 C   0  0  0  0  0  0  0  0  0  0  0  0
   -5.1635    3.6134   21.0710 H   0  0  0  0  0  0  0  0  0  0  0  0
   -5.4382    2.1955   20.4702 H   0  0  0  0  0  0  0  0  0  0  0  0
   -3.5263    2.1916   21.6369 C   0  0  0  0  0  0  0  0  0  0  0  0
   -3.1280    1.3933   21.2525 H   0  0  0  0  0  0  0  0  0  0  0  0
   -3.8602    1.9937   22.5255 H   0  0  0  0  0  0  0  0  0  0  0  0
   -2.5116    3.3995   21.6485 C   0  0  0  0  0  0  0  0  0  0  0  0
   -2.9370    4.1422   22.1276 H   0  0  0  0  0  0  0  0  0  0  0  0
  1  2  1  0  0  0  0
  2  6  1  0  0  0  0
  3  1  1  0  0  0  0
  4 22  3  0  0  0  0
  5  7  1  0  0  0  0
  6  8  1  0  0  0  0
  7  2  1  0  0  0  0
  8 30  1  0  0  0  0
  9 21  3  0  0  0  0
 10  2  1  0  0  0  0
 11 10  1  0  0  0  0
 12  5  1  0  0  0  0
 13  7  2  0  0  0  0
 14  1  1  0  0  0  0
 15 14  1  0  0  0  0
 16  6  2  0  0  0  0
 17 13  1  0  0  0  0
 18 17  1  0  0  0  0
 19 17  1  0  0  0  0
 20 17  1  0  0  0  0
 21  2  1  0  0  0  0
 22  2  1  0  0  0  0
 23 12  1  0  0  0  0
 24 23  1  0  0  0  0
 25 23  1  0  0  0  0
 26 23  1  0  0  0  0
 27 28  1  0  0  0  0
 29 27  1  0  0  0  0
 30 63  2  0  0  0  0
 31 12  2  0  0  0  0
 32 31  1  0  0  0  0
 33 10  2  0  0  0  0
 34 33  1  0  0  0  0
 35 34  1  0  0  0  0
 36 34  1  0  0  0  0
 37 34  1  0  0  0  0
 38  3  1  0  0  0  0
 39 38  1  0  0  0  0
 40 11  1  0  0  0  0
 41 38  1  0  0  0  0
 42 41  1  0  0  0  0
 43 41  1  0  0  0  0
 44 15  3  0  0  0  0
 45 16  1  0  0  0  0
 46 45  1  0  0  0  0
 47 45  1  0  0  0  0
 48 45  1  0  0  0  0
 49 50  1  0  0  0  0
 51 49  1  0  0  0  0
 52 33  1  0  0  0  0
 53 52  1  0  0  0  0
 54  5  1  0  0  0  0
 55 54  1  0  0  0  0
 56 41  1  0  0  0  0
 57 56  1  0  0  0  0
 58 56  1  0  0  0  0
 59 40  1  0  0  0  0
 60 59  1  0  0  0  0
 61 59  1  0  0  0  0
 62 59  1  0  0  0  0
 63 16  1  0  0  0  0
 64 63  1  0  0  0  0
 65 27  1  0  0  0  0
 66 65  1  0  0  0  0
 67 65  1  0  0  0  0
 68 69  1  0  0  0  0
 70 68  1  0  0  0  0
 71 30  1  0  0  0  0
 72 71  1  0  0  0  0
 73 71  1  0  0  0  0
 74 71  1  0  0  0  0
 75  3  1  0  0  0  0
 76 75  1  0  0  0  0
 77 78  1  0  0  0  0
 79 77  1  0  0  0  0
 80 77  1  0  0  0  0
 81 80  1  0  0  0  0
 82 80  1  0  0  0  0
 83 75  1  0  0  0  0
 84 83  1  0  0  0  0
 85 83  1  0  0  0  0
 86 68  1  0  0  0  0
 87 86  1  0  0  0  0
 88 86  1  0  0  0  0
 89 90  1  0  0  0  0
 91 89  1  0  0  0  0
 92 89  1  0  0  0  0
 93 92  1  0  0  0  0
 94 92  1  0  0  0  0
 95 92  1  0  0  0  0
 96 95  1  0  0  0  0
 97 95  1  0  0  0  0
 98 95  1  0  0  0  0
 99 98  1  0  0  0  0
100 98  1  0  0  0  0
101 98  1  0  0  0  0
102101  1  0  0  0  0
103101  1  0  0  0  0
104  3  1  0  0  0  0
105104  1  0  0  0  0
106107  1  0  0  0  0
107108  3  0  0  0  0
108 44  1  0  0  0  0
109106  1  0  0  0  0
110106  2  0  0  0  0
111109  1  0  0  0  0
112128  3  0  0  0  0
113115  1  0  0  0  0
114110  1  0  0  0  0
115110  1  0  0  0  0
116114  1  0  0  0  0
117127  3  0  0  0  0
118110  1  0  0  0  0
119118  1  0  0  0  0
120113  1  0  0  0  0
121115  2  0  0  0  0
122114  2  0  0  0  0
123121  1  0  0  0  0
124123  1  0  0  0  0
125123  1  0  0  0  0
126123  1  0  0  0  0
127110  1  0  0  0  0
128110  1  0  0  0  0
129120  1  0  0  0  0
130129  1  0  0  0  0
131129  1  0  0  0  0
132129  1  0  0  0  0
133134  1  0  0  0  0
135133  1  0  0  0  0
136116  1  0  0  0  0
137120  2  0  0  0  0
138137  1  0  0  0  0
139118  2  0  0  0  0
140139  1  0  0  0  0
141140  1  0  0  0  0
142140  1  0  0  0  0
143140  1  0  0  0  0
144111  1  0  0  0  0
145144  1  0  0  0  0
146119  1  0  0  0  0
147144  1  0  0  0  0
148147  1  0  0  0  0
149147  1  0  0  0  0
150122  1  0  0  0  0
151150  1  0  0  0  0
152150  1  0  0  0  0
153150  1  0  0  0  0
154155  1  0  0  0  0
156154  1  0  0  0  0
157139  1  0  0  0  0
158157  1  0  0  0  0
159113  1  0  0  0  0
160159  1  0  0  0  0
161147  1  0  0  0  0
162161  1  0  0  0  0
163161  1  0  0  0  0
164146  1  0  0  0  0
165164  1  0  0  0  0
166164  1  0  0  0  0
167164  1  0  0  0  0
168122  1  0  0  0  0
169168  1  0  0  0  0
170133  1  0  0  0  0
171170  1  0  0  0  0
172170  1  0  0  0  0
173174  1  0  0  0  0
175173  1  0  0  0  0
176136  1  0  0  0  0
177176  1  0  0  0  0
178176  1  0  0  0  0
179176  1  0  0  0  0
180111  1  0  0  0  0
181180  1  0  0  0  0
182183  1  0  0  0  0
184182  1  0  0  0  0
185182  1  0  0  0  0
186185  1  0  0  0  0
187185  1  0  0  0  0
188180  1  0  0  0  0
189188  1  0  0  0  0
190188  1  0  0  0  0
191173  1  0  0  0  0
192191  1  0  0  0  0
193191  1  0  0  0  0
194195  1  0  0  0  0
196194  1  0  0  0  0
197194  1  0  0  0  0
198197  1  0  0  0  0
199197  1  0  0  0  0
200197  1  0  0  0  0
201200  1  0  0  0  0
202200  1  0  0  0  0
203200  1  0  0  0  0
204203  1  0  0  0  0
205203  1  0  0  0  0
206203  1  0  0  0  0
207206  1  0  0  0  0
208206  1  0  0  0  0
209111  1  0  0  0  0
210209  1  0  0  0  0
  2 14  2  0  0  0  0
  8 54  1  0  0  0  0
 11 54  1  0  0  0  0
 13 31  1  0  0  0  0
 27 38  1  0  0  0  0
 40 52  2  0  0  0  0
 49 56  1  0  0  0  0
 49 65  1  0  0  0  0
 68 75  1  0  0  0  0
 77 83  1  0  0  0  0
 80 86  1  0  0  0  0
 89104  1  0  0  0  0
101104  1  0  0  0  0
109110  1  0  0  0  0
116159  1  0  0  0  0
119159  1  0  0  0  0
121137  1  0  0  0  0
133144  1  0  0  0  0
136168  2  0  0  0  0
146157  2  0  0  0  0
154161  1  0  0  0  0
154170  1  0  0  0  0
173180  1  0  0  0  0
182188  1  0  0  0  0
185191  1  0  0  0  0
194209  1  0  0  0  0
206209  1  0  0  0  0
M  CHG  2   1   1 109   1
M  END
$$$$
JOSTIX

From CSD data. Using bond type 'Any'. No disordered atoms. Largest molecule.
174191  0  0  0  0  0  0  0  0999 V2000
   13.3737   12.8012    9.2622 Au  0  3  0  0  0  0  0  0  0  0  0  0
   11.0114   11.2483    9.5504 W   0  0  0  0  0  0  0  0  0  0  0  0
   15.5787   13.0943    9.7422 P   0  0  0  0  0  0  0  0  0  0  0  0
   12.5689    9.7225    9.2189 N   0  0  0  0  0  0  0  0  0  0  0  0
   11.7574   11.3913   11.5925 N   0  0  0  0  0  0  0  0  0  0  0  0
   12.3550   10.3039   12.1570 N   0  0  0  0  0  0  0  0  0  0  0  0
   12.7939    8.8003   10.2028 N   0  0  0  0  0  0  0  0  0  0  0  0
    8.4399   12.9684   10.1051 O   0  0  0  0  0  0  0  0  0  0  0  0
   10.5568    8.7914   11.3184 N   0  0  0  0  0  0  0  0  0  0  0  0
    9.8766    9.5960   10.4186 N   0  0  0  0  0  0  0  0  0  0  0  0
    9.7805   10.4644    6.7557 O   0  0  0  0  0  0  0  0  0  0  0  0
   12.6527   11.9846   13.5386 C   0  0  0  0  0  0  0  0  0  0  0  0
   12.9138   12.4890   14.2749 H   0  0  0  0  0  0  0  0  0  0  0  0
   11.9055   12.4370   12.4380 C   0  0  0  0  0  0  0  0  0  0  0  0
   12.9253   10.6473   13.3187 C   0  0  0  0  0  0  0  0  0  0  0  0
   15.8873   14.4772   10.8732 C   0  0  0  0  0  0  0  0  0  0  0  0
   10.2234   10.7400    7.7627 C   0  0  0  0  0  0  0  0  0  0  0  0
   17.0333   11.6744   11.6997 C   0  0  0  0  0  0  0  0  0  0  0  0
   17.1672   12.4844   12.1373 H   0  0  0  0  0  0  0  0  0  0  0  0
   16.6877   13.9744    5.9347 C   0  0  0  0  0  0  0  0  0  0  0  0
   16.2572   14.2392    5.1536 H   0  0  0  0  0  0  0  0  0  0  0  0
   16.2934   11.6245   10.5231 C   0  0  0  0  0  0  0  0  0  0  0  0
   11.3311   13.7990   12.1978 C   0  0  0  0  0  0  0  0  0  0  0  0
   11.6003   14.1114   11.3308 H   0  0  0  0  0  0  0  0  0  0  0  0
   11.6505   14.4045   12.8700 H   0  0  0  0  0  0  0  0  0  0  0  0
   10.3725   13.7533   12.2375 H   0  0  0  0  0  0  0  0  0  0  0  0
   11.3803   12.8559    8.5838 C   0  0  0  0  0  0  0  0  0  0  0  0
   17.1148   15.1440   10.8963 C   0  0  0  0  0  0  0  0  0  0  0  0
   17.7986   14.9008   10.3151 H   0  0  0  0  0  0  0  0  0  0  0  0
   17.2923   16.1801   11.8110 C   0  0  0  0  0  0  0  0  0  0  0  0
   18.1104   16.6229   11.8378 H   0  0  0  0  0  0  0  0  0  0  0  0
    9.3697   12.3488    9.9368 C   0  0  0  0  0  0  0  0  0  0  0  0
   13.2164    9.2729    8.1346 C   0  0  0  0  0  0  0  0  0  0  0  0
   16.6572    9.2512   10.4104 C   0  0  0  0  0  0  0  0  0  0  0  0
   16.5367    8.4392    9.9725 H   0  0  0  0  0  0  0  0  0  0  0  0
   14.8938   14.8573   11.7662 C   0  0  0  0  0  0  0  0  0  0  0  0
   14.0809   14.4046   11.7729 H   0  0  0  0  0  0  0  0  0  0  0  0
   18.0223   13.8183    5.9347 C   0  0  0  0  0  0  0  0  0  0  0  0
   18.5092   13.9983    5.1626 H   0  0  0  0  0  0  0  0  0  0  0  0
   13.8528    8.1261    8.4141 C   0  0  0  0  0  0  0  0  0  0  0  0
   14.3861    7.6295    7.8361 H   0  0  0  0  0  0  0  0  0  0  0  0
   17.9408   13.1518    8.2526 C   0  0  0  0  0  0  0  0  0  0  0  0
   18.3650   12.8617    9.0278 H   0  0  0  0  0  0  0  0  0  0  0  0
   13.5659    7.8304    9.7129 C   0  0  0  0  0  0  0  0  0  0  0  0
   15.1053   15.8958   12.6388 C   0  0  0  0  0  0  0  0  0  0  0  0
   14.4232   16.1481   13.2181 H   0  0  0  0  0  0  0  0  0  0  0  0
   15.9418   13.7461    7.0841 C   0  0  0  0  0  0  0  0  0  0  0  0
   15.0193   13.8629    7.0657 H   0  0  0  0  0  0  0  0  0  0  0  0
   11.0878   13.9424    7.8075 C   0  0  0  0  0  0  0  0  0  0  0  0
   16.1053   10.4020    9.8866 C   0  0  0  0  0  0  0  0  0  0  0  0
   15.6046   10.3600    9.1037 H   0  0  0  0  0  0  0  0  0  0  0  0
   16.5527   13.3530    8.2472 C   0  0  0  0  0  0  0  0  0  0  0  0
   17.5698   10.5072   12.2113 C   0  0  0  0  0  0  0  0  0  0  0  0
   18.0654   10.5329   12.9973 H   0  0  0  0  0  0  0  0  0  0  0  0
   17.3737    9.2993   11.5599 C   0  0  0  0  0  0  0  0  0  0  0  0
   17.7347    8.5189   11.9138 H   0  0  0  0  0  0  0  0  0  0  0  0
    8.5854    9.1663   10.3127 C   0  0  0  0  0  0  0  0  0  0  0  0
    9.6772    7.8571   11.7689 C   0  0  0  0  0  0  0  0  0  0  0  0
   18.6875   13.3873    7.0923 C   0  0  0  0  0  0  0  0  0  0  0  0
   19.6090   13.2582    7.0882 H   0  0  0  0  0  0  0  0  0  0  0  0
   13.7316    9.6957   14.1222 C   0  0  0  0  0  0  0  0  0  0  0  0
   13.1755    8.9649   14.4040 H   0  0  0  0  0  0  0  0  0  0  0  0
   14.0840   10.1452   14.8931 H   0  0  0  0  0  0  0  0  0  0  0  0
   14.4549    9.3593   13.5883 H   0  0  0  0  0  0  0  0  0  0  0  0
   13.3001   10.0590    6.8562 C   0  0  0  0  0  0  0  0  0  0  0  0
   12.4146   10.2556    6.5420 H   0  0  0  0  0  0  0  0  0  0  0  0
   13.7675    9.5445    6.1933 H   0  0  0  0  0  0  0  0  0  0  0  0
   13.7728   10.8797    7.0148 H   0  0  0  0  0  0  0  0  0  0  0  0
   16.2931   16.5687   12.6741 C   0  0  0  0  0  0  0  0  0  0  0  0
   16.4249   17.2722   13.2689 H   0  0  0  0  0  0  0  0  0  0  0  0
   10.1082    6.7742   12.7284 C   0  0  0  0  0  0  0  0  0  0  0  0
   10.7601    6.2124   12.3044 H   0  0  0  0  0  0  0  0  0  0  0  0
    9.3454    6.2479   12.9789 H   0  0  0  0  0  0  0  0  0  0  0  0
   10.4914    7.1752   13.5121 H   0  0  0  0  0  0  0  0  0  0  0  0
    8.4491    8.0791   11.2098 C   0  0  0  0  0  0  0  0  0  0  0  0
    7.6690    7.6046   11.3867 H   0  0  0  0  0  0  0  0  0  0  0  0
    7.5421    9.7433    9.5066 C   0  0  0  0  0  0  0  0  0  0  0  0
    7.9100   10.0371    8.6702 H   0  0  0  0  0  0  0  0  0  0  0  0
    7.1581   10.4920    9.9683 H   0  0  0  0  0  0  0  0  0  0  0  0
    6.8630    9.0846    9.3441 H   0  0  0  0  0  0  0  0  0  0  0  0
   13.9939    6.6708   10.5434 C   0  0  0  0  0  0  0  0  0  0  0  0
   14.2449    6.9790   11.4181 H   0  0  0  0  0  0  0  0  0  0  0  0
   14.7454    6.2403   10.1291 H   0  0  0  0  0  0  0  0  0  0  0  0
   13.2691    6.0471   10.6200 H   0  0  0  0  0  0  0  0  0  0  0  0
   10.8683   14.9357    7.1574 C   0  0  0  0  0  0  0  0  0  0  0  0
   12.0690    8.9252   11.5653 B   0  0  0  0  0  0  0  0  0  0  0  0
   12.3753    8.2242   12.1769 H   0  0  0  0  0  0  0  0  0  0  0  0
   10.1158   18.1200    4.9874 C   0  0  0  0  0  0  0  0  0  0  0  0
   10.4083   17.0335    5.7637 C   0  0  0  0  0  0  0  0  0  0  0  0
   10.6278   16.0402    6.4137 C   0  0  0  0  0  0  0  0  0  0  0  0
    8.1224   18.1747    4.3090 Au  0  3  0  0  0  0  0  0  0  0  0  0
   10.4847   19.7276    4.0207 W   0  0  0  0  0  0  0  0  0  0  0  0
    5.9174   17.8816    3.8290 P   0  0  0  0  0  0  0  0  0  0  0  0
    8.9272   21.2534    4.3523 N   0  0  0  0  0  0  0  0  0  0  0  0
    9.7387   19.5846    1.9787 N   0  0  0  0  0  0  0  0  0  0  0  0
    9.1410   20.6720    1.4141 N   0  0  0  0  0  0  0  0  0  0  0  0
    8.7022   22.1756    3.3684 N   0  0  0  0  0  0  0  0  0  0  0  0
   13.0562   18.0075    3.4661 O   0  0  0  0  0  0  0  0  0  0  0  0
   10.9393   22.1845    2.2528 N   0  0  0  0  0  0  0  0  0  0  0  0
   11.6194   21.3799    3.1526 N   0  0  0  0  0  0  0  0  0  0  0  0
   11.7156   20.5115    6.8154 O   0  0  0  0  0  0  0  0  0  0  0  0
    8.8433   18.9913    0.0326 C   0  0  0  0  0  0  0  0  0  0  0  0
    8.5822   18.4870   -0.7037 H   0  0  0  0  0  0  0  0  0  0  0  0
    9.5905   18.5389    1.1332 C   0  0  0  0  0  0  0  0  0  0  0  0
    8.5708   20.3286    0.2524 C   0  0  0  0  0  0  0  0  0  0  0  0
    5.6087   16.4987    2.6979 C   0  0  0  0  0  0  0  0  0  0  0  0
   11.2726   20.2359    5.8085 C   0  0  0  0  0  0  0  0  0  0  0  0
    4.4628   19.3015    1.8715 C   0  0  0  0  0  0  0  0  0  0  0  0
    4.3288   18.4916    1.4339 H   0  0  0  0  0  0  0  0  0  0  0  0
    4.8084   17.0015    7.6365 C   0  0  0  0  0  0  0  0  0  0  0  0
    5.2389   16.7367    8.4175 H   0  0  0  0  0  0  0  0  0  0  0  0
    5.2027   19.3514    3.0481 C   0  0  0  0  0  0  0  0  0  0  0  0
   10.1650   17.1769    1.3734 C   0  0  0  0  0  0  0  0  0  0  0  0
    9.8958   16.8646    2.2404 H   0  0  0  0  0  0  0  0  0  0  0  0
    9.8455   16.5714    0.7012 H   0  0  0  0  0  0  0  0  0  0  0  0
   11.1235   17.2226    1.3337 H   0  0  0  0  0  0  0  0  0  0  0  0
    4.3813   15.8319    2.6749 C   0  0  0  0  0  0  0  0  0  0  0  0
    3.6974   16.0751    3.2560 H   0  0  0  0  0  0  0  0  0  0  0  0
    4.2038   14.7958    1.7602 C   0  0  0  0  0  0  0  0  0  0  0  0
    3.3857   14.3530    1.7333 H   0  0  0  0  0  0  0  0  0  0  0  0
   12.1264   18.6271    3.6344 C   0  0  0  0  0  0  0  0  0  0  0  0
    8.2796   21.7030    5.4366 C   0  0  0  0  0  0  0  0  0  0  0  0
    4.8389   21.7247    3.1607 C   0  0  0  0  0  0  0  0  0  0  0  0
    4.9594   22.5367    3.5987 H   0  0  0  0  0  0  0  0  0  0  0  0
    6.6023   16.1187    1.8050 C   0  0  0  0  0  0  0  0  0  0  0  0
    7.4152   16.5713    1.7983 H   0  0  0  0  0  0  0  0  0  0  0  0
    3.4738   17.1576    7.6365 C   0  0  0  0  0  0  0  0  0  0  0  0
    2.9869   16.9777    8.4085 H   0  0  0  0  0  0  0  0  0  0  0  0
    7.6432   22.8498    5.1570 C   0  0  0  0  0  0  0  0  0  0  0  0
    7.1099   23.3464    5.7351 H   0  0  0  0  0  0  0  0  0  0  0  0
    3.5552   17.8241    5.3185 C   0  0  0  0  0  0  0  0  0  0  0  0
    3.1311   18.1142    4.5434 H   0  0  0  0  0  0  0  0  0  0  0  0
    7.9302   23.1455    3.8583 C   0  0  0  0  0  0  0  0  0  0  0  0
    6.3907   15.0801    0.9323 C   0  0  0  0  0  0  0  0  0  0  0  0
    7.0728   14.8278    0.3531 H   0  0  0  0  0  0  0  0  0  0  0  0
    5.5543   17.2298    6.4870 C   0  0  0  0  0  0  0  0  0  0  0  0
    6.4768   17.1131    6.5055 H   0  0  0  0  0  0  0  0  0  0  0  0
    5.3907   20.5739    3.6846 C   0  0  0  0  0  0  0  0  0  0  0  0
    5.8914   20.6159    4.4675 H   0  0  0  0  0  0  0  0  0  0  0  0
    4.9434   17.6229    5.3240 C   0  0  0  0  0  0  0  0  0  0  0  0
    3.9263   20.4687    1.3598 C   0  0  0  0  0  0  0  0  0  0  0  0
    3.4307   20.4430    0.5739 H   0  0  0  0  0  0  0  0  0  0  0  0
    4.1223   21.6767    2.0112 C   0  0  0  0  0  0  0  0  0  0  0  0
    3.7613   22.4570    1.6573 H   0  0  0  0  0  0  0  0  0  0  0  0
   12.9107   21.8096    3.2584 C   0  0  0  0  0  0  0  0  0  0  0  0
   11.8189   23.1188    1.8023 C   0  0  0  0  0  0  0  0  0  0  0  0
    2.8086   17.5887    6.4789 C   0  0  0  0  0  0  0  0  0  0  0  0
    1.8870   17.7177    6.4829 H   0  0  0  0  0  0  0  0  0  0  0  0
    7.7644   21.2802   -0.5510 C   0  0  0  0  0  0  0  0  0  0  0  0
    8.3205   22.0110   -0.8329 H   0  0  0  0  0  0  0  0  0  0  0  0
    7.4120   20.8307   -1.3219 H   0  0  0  0  0  0  0  0  0  0  0  0
    7.0412   21.6166   -0.0172 H   0  0  0  0  0  0  0  0  0  0  0  0
    8.1960   20.9169    6.7150 C   0  0  0  0  0  0  0  0  0  0  0  0
    9.0814   20.7203    7.0292 H   0  0  0  0  0  0  0  0  0  0  0  0
    7.7285   21.4314    7.3779 H   0  0  0  0  0  0  0  0  0  0  0  0
    7.7233   20.0962    6.5564 H   0  0  0  0  0  0  0  0  0  0  0  0
    5.2029   14.4072    0.8971 C   0  0  0  0  0  0  0  0  0  0  0  0
    5.0712   13.7037    0.3022 H   0  0  0  0  0  0  0  0  0  0  0  0
   11.3878   24.2017    0.8428 C   0  0  0  0  0  0  0  0  0  0  0  0
   10.7359   24.7635    1.2667 H   0  0  0  0  0  0  0  0  0  0  0  0
   12.1507   24.7280    0.5923 H   0  0  0  0  0  0  0  0  0  0  0  0
   11.0046   23.8007    0.0590 H   0  0  0  0  0  0  0  0  0  0  0  0
   13.0469   22.8968    2.3614 C   0  0  0  0  0  0  0  0  0  0  0  0
   13.8271   23.3713    2.1845 H   0  0  0  0  0  0  0  0  0  0  0  0
   13.9540   21.2326    4.0646 C   0  0  0  0  0  0  0  0  0  0  0  0
   13.5860   20.9388    4.9010 H   0  0  0  0  0  0  0  0  0  0  0  0
   14.3380   20.4839    3.6028 H   0  0  0  0  0  0  0  0  0  0  0  0
   14.6331   21.8913    4.2271 H   0  0  0  0  0  0  0  0  0  0  0  0
    7.5022   24.3051    3.0277 C   0  0  0  0  0  0  0  0  0  0  0  0
    7.2512   23.9969    2.1530 H   0  0  0  0  0  0  0  0  0  0  0  0
    6.7507   24.7356    3.4420 H   0  0  0  0  0  0  0  0  0  0  0  0
    8.2270   24.9288    2.9512 H   0  0  0  0  0  0  0  0  0  0  0  0
    9.4270   22.0507    2.0058 B   0  0  0  0  0  0  0  0  0  0  0  0
    9.1207   22.7517    1.3942 H   0  0  0  0  0  0  0  0  0  0  0  0
  1  2  1  0  0  0  0
  2  4  1  0  0  0  0
  3  1  1  0  0  0  0
  4  7  1  0  0  0  0
  5  2  1  0  0  0  0
  6  5  1  0  0  0  0
  7 44  1  0  0  0  0
  8 32  3  0  0  0  0
  9 10  1  0  0  0  0
 10  2  1  0  0  0  0
 11 17  3  0  0  0  0
 12 13  1  0  0  0  0
 14  5  2  0  0  0  0
 15  6  1  0  0  0  0
 16  3  1  0  0  0  0
 17  2  1  0  0  0  0
 18 19  1  0  0  0  0
 20 21  1  0  0  0  0
 22  3  1  0  0  0  0
 23 14  1  0  0  0  0
 24 23  1  0  0  0  0
 25 23  1  0  0  0  0
 26 23  1  0  0  0  0
 27  1  1  0  0  0  0
 28 16  4  0  0  0  0
 29 28  1  0  0  0  0
 30 28  4  0  0  0  0
 31 30  1  0  0  0  0
 32  2  1  0  0  0  0
 33  4  2  0  0  0  0
 34 35  1  0  0  0  0
 36 16  4  0  0  0  0
 37 36  1  0  0  0  0
 38 20  4  0  0  0  0
 39 38  1  0  0  0  0
 40 33  1  0  0  0  0
 41 40  1  0  0  0  0
 42 43  1  0  0  0  0
 44 40  2  0  0  0  0
 45 36  4  0  0  0  0
 46 45  1  0  0  0  0
 47 20  4  0  0  0  0
 48 47  1  0  0  0  0
 49 27  1  0  0  0  0
 50 22  4  0  0  0  0
 51 50  1  0  0  0  0
 52  3  1  0  0  0  0
 53 18  4  0  0  0  0
 54 53  1  0  0  0  0
 55 34  4  0  0  0  0
 56 55  1  0  0  0  0
 57 10  2  0  0  0  0
 58  9  1  0  0  0  0
 59 38  4  0  0  0  0
 60 59  1  0  0  0  0
 61 15  1  0  0  0  0
 62 61  1  0  0  0  0
 63 61  1  0  0  0  0
 64 61  1  0  0  0  0
 65 33  1  0  0  0  0
 66 65  1  0  0  0  0
 67 65  1  0  0  0  0
 68 65  1  0  0  0  0
 69 30  4  0  0  0  0
 70 69  1  0  0  0  0
 71 58  1  0  0  0  0
 72 71  1  0  0  0  0
 73 71  1  0  0  0  0
 74 71  1  0  0  0  0
 75 57  1  0  0  0  0
 76 75  1  0  0  0  0
 77 57  1  0  0  0  0
 78 77  1  0  0  0  0
 79 77  1  0  0  0  0
 80 77  1  0  0  0  0
 81 44  1  0  0  0  0
 82 81  1  0  0  0  0
 83 81  1  0  0  0  0
 84 81  1  0  0  0  0
 85 49  3  0  0  0  0
 86  6  1  0  0  0  0
 87 86  1  0  0  0  0
 88 89  1  0  0  0  0
 89 90  3  0  0  0  0
 90 85  1  0  0  0  0
 91 88  1  0  0  0  0
 92 88  2  0  0  0  0
 93 91  1  0  0  0  0
 94 92  1  0  0  0  0
 95 92  1  0  0  0  0
 96 95  1  0  0  0  0
 97 94  1  0  0  0  0
 98121  3  0  0  0  0
 99100  1  0  0  0  0
100 92  1  0  0  0  0
101107  3  0  0  0  0
102103  1  0  0  0  0
104 95  2  0  0  0  0
105 96  1  0  0  0  0
106 93  1  0  0  0  0
107 92  1  0  0  0  0
108109  1  0  0  0  0
110111  1  0  0  0  0
112 93  1  0  0  0  0
113104  1  0  0  0  0
114113  1  0  0  0  0
115113  1  0  0  0  0
116113  1  0  0  0  0
117106  4  0  0  0  0
118117  1  0  0  0  0
119117  4  0  0  0  0
120119  1  0  0  0  0
121 92  1  0  0  0  0
122 94  2  0  0  0  0
123124  1  0  0  0  0
125106  4  0  0  0  0
126125  1  0  0  0  0
127110  4  0  0  0  0
128127  1  0  0  0  0
129122  1  0  0  0  0
130129  1  0  0  0  0
131132  1  0  0  0  0
133 97  1  0  0  0  0
134125  4  0  0  0  0
135134  1  0  0  0  0
136110  4  0  0  0  0
137136  1  0  0  0  0
138112  4  0  0  0  0
139138  1  0  0  0  0
140 93  1  0  0  0  0
141108  4  0  0  0  0
142141  1  0  0  0  0
143123  4  0  0  0  0
144143  1  0  0  0  0
145100  2  0  0  0  0
146 99  1  0  0  0  0
147127  4  0  0  0  0
148147  1  0  0  0  0
149105  1  0  0  0  0
150149  1  0  0  0  0
151149  1  0  0  0  0
152149  1  0  0  0  0
153122  1  0  0  0  0
154153  1  0  0  0  0
155153  1  0  0  0  0
156153  1  0  0  0  0
157119  4  0  0  0  0
158157  1  0  0  0  0
159146  1  0  0  0  0
160159  1  0  0  0  0
161159  1  0  0  0  0
162159  1  0  0  0  0
163145  1  0  0  0  0
164163  1  0  0  0  0
165145  1  0  0  0  0
166165  1  0  0  0  0
167165  1  0  0  0  0
168165  1  0  0  0  0
169133  1  0  0  0  0
170169  1  0  0  0  0
171169  1  0  0  0  0
172169  1  0  0  0  0
173 96  1  0  0  0  0
174173  1  0  0  0  0
  2 27  2  0  0  0  0
  7 86  1  0  0  0  0
  9 86  1  0  0  0  0
 12 14  1  0  0  0  0
 12 15  2  0  0  0  0
 18 22  4  0  0  0  0
 34 50  4  0  0  0  0
 42 52  4  0  0  0  0
 42 59  4  0  0  0  0
 45 69  4  0  0  0  0
 47 52  4  0  0  0  0
 53 55  4  0  0  0  0
 58 75  2  0  0  0  0
 91 92  1  0  0  0  0
 97173  1  0  0  0  0
 99173  1  0  0  0  0
102104  1  0  0  0  0
102105  2  0  0  0  0
108112  4  0  0  0  0
123138  4  0  0  0  0
129133  2  0  0  0  0
131140  4  0  0  0  0
131147  4  0  0  0  0
134157  4  0  0  0  0
136140  4  0  0  0  0
141143  4  0  0  0  0
146163  2  0  0  0  0
M  CHG  2   1   1  91   1
M  END
$$$$
JOTLOW

From CSD data. Using bond type 'Any'. No disordered atoms. Largest molecule.
145153  0  0  0  0  0  0  0  0999 V2000
    2.6848    8.4503    5.3457 Lu  0  1  0  0  0  0  0  0  0  0  0  0
    3.6895    4.4710    3.6847 P   0  3  0  0  0  0  0  0  0  0  0  0
   -1.1744    9.4494    3.3521 P   0  3  0  0  0  0  0  0  0  0  0  0
    5.5721   11.2381    3.4379 P   0  3  0  0  0  0  0  0  0  0  0  0
    4.1499    7.6808    7.0035 O   0  0  0  0  0  0  0  0  0  0  0  0
    1.1971    7.7030    6.9705 O   0  0  0  0  0  0  0  0  0  0  0  0
    2.6680   10.2810    6.7831 O   0  0  0  0  0  0  0  0  0  0  0  0
    5.1098    4.6063    2.4874 C   0  0  0  0  0  0  0  0  0  0  0  0
    5.4491    3.2889    1.8329 C   0  0  0  0  0  0  0  0  0  0  0  0
    5.4704    2.5820    2.5110 H   0  0  0  0  0  0  0  0  0  0  0  0
    6.3280    3.3546    1.4025 H   0  0  0  0  0  0  0  0  0  0  0  0
    4.7714    3.0747    1.1583 H   0  0  0  0  0  0  0  0  0  0  0  0
    6.3623    4.9426    3.3968 C   0  0  0  0  0  0  0  0  0  0  0  0
    6.1790    5.7535    3.9168 H   0  0  0  0  0  0  0  0  0  0  0  0
    7.1478    5.0880    2.8307 H   0  0  0  0  0  0  0  0  0  0  0  0
    6.5324    4.1953    4.0077 H   0  0  0  0  0  0  0  0  0  0  0  0
    4.9964    5.7324    1.5246 C   0  0  0  0  0  0  0  0  0  0  0  0
    4.3494    5.5003    0.8254 H   0  0  0  0  0  0  0  0  0  0  0  0
    5.8704    5.9035    1.1167 H   0  0  0  0  0  0  0  0  0  0  0  0
    4.6925    6.5361    1.9961 H   0  0  0  0  0  0  0  0  0  0  0  0
    2.1476    3.7608    2.8886 C   0  0  0  0  0  0  0  0  0  0  0  0
    2.2876    2.2653    2.6338 C   0  0  0  0  0  0  0  0  0  0  0  0
    3.0517    2.1048    2.0434 H   0  0  0  0  0  0  0  0  0  0  0  0
    1.4698    1.9294    2.2101 H   0  0  0  0  0  0  0  0  0  0  0  0
    2.4278    1.8012    3.4855 H   0  0  0  0  0  0  0  0  0  0  0  0
    1.8584    4.4602    1.5293 C   0  0  0  0  0  0  0  0  0  0  0  0
    1.8282    5.4313    1.6603 H   0  0  0  0  0  0  0  0  0  0  0  0
    0.9960    4.1517    1.1795 H   0  0  0  0  0  0  0  0  0  0  0  0
    2.5675    4.2392    0.8899 H   0  0  0  0  0  0  0  0  0  0  0  0
    0.9907    4.0694    3.7980 C   0  0  0  0  0  0  0  0  0  0  0  0
    1.1037    3.5865    4.6437 H   0  0  0  0  0  0  0  0  0  0  0  0
    0.1559    3.7880    3.3702 H   0  0  0  0  0  0  0  0  0  0  0  0
    0.9613    5.0326    3.9731 H   0  0  0  0  0  0  0  0  0  0  0  0
   -1.7323    8.0682    2.2168 C   0  0  0  0  0  0  0  0  0  0  0  0
   -0.6374    7.5745    1.2933 C   0  0  0  0  0  0  0  0  0  0  0  0
   -0.3967    8.2847    0.6625 H   0  0  0  0  0  0  0  0  0  0  0  0
   -0.9561    6.7914    0.7975 H   0  0  0  0  0  0  0  0  0  0  0  0
    0.1501    7.3273    1.8223 H   0  0  0  0  0  0  0  0  0  0  0  0
   -2.0960    6.8843    3.1404 C   0  0  0  0  0  0  0  0  0  0  0  0
   -1.3029    6.6079    3.6460 H   0  0  0  0  0  0  0  0  0  0  0  0
   -2.4166    6.1334    2.5993 H   0  0  0  0  0  0  0  0  0  0  0  0
   -2.7998    7.1614    3.7644 H   0  0  0  0  0  0  0  0  0  0  0  0
   -3.0099    8.4154    1.4616 C   0  0  0  0  0  0  0  0  0  0  0  0
   -3.6876    8.7326    2.0940 H   0  0  0  0  0  0  0  0  0  0  0  0
   -3.3432    7.6176    0.9989 H   0  0  0  0  0  0  0  0  0  0  0  0
   -2.8211    9.1179    0.8049 H   0  0  0  0  0  0  0  0  0  0  0  0
   -0.9862   11.0653    2.4365 C   0  0  0  0  0  0  0  0  0  0  0  0
   -0.2398   10.8626    1.0762 C   0  0  0  0  0  0  0  0  0  0  0  0
    0.6363   10.4575    1.2421 H   0  0  0  0  0  0  0  0  0  0  0  0
   -0.1216   11.7302    0.6363 H   0  0  0  0  0  0  0  0  0  0  0  0
   -0.7689   10.2730    0.4989 H   0  0  0  0  0  0  0  0  0  0  0  0
   -0.1870   11.9877    3.3229 C   0  0  0  0  0  0  0  0  0  0  0  0
   -0.6916   12.1703    4.1432 H   0  0  0  0  0  0  0  0  0  0  0  0
   -0.0167   12.8288    2.8502 H   0  0  0  0  0  0  0  0  0  0  0  0
    0.6656   11.5626    3.5517 H   0  0  0  0  0  0  0  0  0  0  0  0
   -2.3491   11.6940    2.1334 C   0  0  0  0  0  0  0  0  0  0  0  0
   -2.8870   11.0694    1.6040 H   0  0  0  0  0  0  0  0  0  0  0  0
   -2.2212   12.5244    1.6286 H   0  0  0  0  0  0  0  0  0  0  0  0
   -2.8120   11.8920    2.9747 H   0  0  0  0  0  0  0  0  0  0  0  0
    7.0656   10.3360    2.7588 C   0  0  0  0  0  0  0  0  0  0  0  0
    6.8184    9.6588    1.4034 C   0  0  0  0  0  0  0  0  0  0  0  0
    6.0207    9.0916    1.4635 H   0  0  0  0  0  0  0  0  0  0  0  0
    7.5932    9.1087    1.1667 H   0  0  0  0  0  0  0  0  0  0  0  0
    6.6806   10.3440    0.7170 H   0  0  0  0  0  0  0  0  0  0  0  0
    7.4081    9.2385    3.7760 C   0  0  0  0  0  0  0  0  0  0  0  0
    7.4731    9.6311    4.6714 H   0  0  0  0  0  0  0  0  0  0  0  0
    8.2664    8.8278    3.5372 H   0  0  0  0  0  0  0  0  0  0  0  0
    6.7066    8.5547    3.7686 H   0  0  0  0  0  0  0  0  0  0  0  0
    8.2705   11.2957    2.6542 C   0  0  0  0  0  0  0  0  0  0  0  0
    8.0756   11.9940    1.9948 H   0  0  0  0  0  0  0  0  0  0  0  0
    9.0649   10.7947    2.3745 H   0  0  0  0  0  0  0  0  0  0  0  0
    8.4359   11.7088    3.5277 H   0  0  0  0  0  0  0  0  0  0  0  0
    4.7188   12.2594    2.1223 C   0  0  0  0  0  0  0  0  0  0  0  0
    3.9035   11.3934    1.1595 C   0  0  0  0  0  0  0  0  0  0  0  0
    4.5023   10.7775    0.6878 H   0  0  0  0  0  0  0  0  0  0  0  0
    3.4462   11.9668    0.5107 H   0  0  0  0  0  0  0  0  0  0  0  0
    3.2397   10.8787    1.6659 H   0  0  0  0  0  0  0  0  0  0  0  0
    3.7414   13.1965    2.8603 C   0  0  0  0  0  0  0  0  0  0  0  0
    3.1203   12.6631    3.3987 H   0  0  0  0  0  0  0  0  0  0  0  0
    3.2358   13.7227    2.2050 H   0  0  0  0  0  0  0  0  0  0  0  0
    4.2454   13.8003    3.4442 H   0  0  0  0  0  0  0  0  0  0  0  0
    5.7026   13.1401    1.3389 C   0  0  0  0  0  0  0  0  0  0  0  0
    6.2302   13.6767    1.9666 H   0  0  0  0  0  0  0  0  0  0  0  0
    5.2028   13.7345    0.7409 H   0  0  0  0  0  0  0  0  0  0  0  0
    6.3000   12.5716    0.8111 H   0  0  0  0  0  0  0  0  0  0  0  0
    3.8286    6.5717    7.9170 C   0  0  0  0  0  0  0  0  0  0  0  0
    3.3235    5.8677    7.4374 H   0  0  0  0  0  0  0  0  0  0  0  0
    3.2771    6.8967    8.6715 H   0  0  0  0  0  0  0  0  0  0  0  0
    5.1131    6.0335    8.4142 C   0  0  0  0  0  0  0  0  0  0  0  0
    5.3107    6.3793    9.3201 H   0  0  0  0  0  0  0  0  0  0  0  0
    5.0886    5.0441    8.4486 H   0  0  0  0  0  0  0  0  0  0  0  0
    6.1305    6.4947    7.4481 C   0  0  0  0  0  0  0  0  0  0  0  0
    6.2172    5.8601    6.6926 H   0  0  0  0  0  0  0  0  0  0  0  0
    7.0132    6.5997    7.8835 H   0  0  0  0  0  0  0  0  0  0  0  0
    5.6044    7.8041    6.9856 C   0  0  0  0  0  0  0  0  0  0  0  0
    5.8992    8.5306    7.5908 H   0  0  0  0  0  0  0  0  0  0  0  0
    5.9252    8.0048    6.0704 H   0  0  0  0  0  0  0  0  0  0  0  0
    0.8758    8.2534    8.2977 C   0  0  0  0  0  0  0  0  0  0  0  0
    1.4390    7.6747    9.0624 H   0  0  0  0  0  0  0  0  0  0  0  0
    1.0751    9.1533    8.1184 H   0  0  0  0  0  0  0  0  0  0  0  0
   -0.6085    8.1553    8.3560 C   0  0  0  0  0  0  0  0  0  0  0  0
   -0.8584    8.2168    9.2040 H   0  0  0  0  0  0  0  0  0  0  0  0
   -1.0460    8.9837    7.8509 H   0  0  0  0  0  0  0  0  0  0  0  0
   -0.9272    6.8736    7.6464 C   0  0  0  0  0  0  0  0  0  0  0  0
   -1.2741    6.1462    8.2128 H   0  0  0  0  0  0  0  0  0  0  0  0
   -1.8445    6.5794    7.1272 H   0  0  0  0  0  0  0  0  0  0  0  0
    0.3392    6.5027    6.8991 C   0  0  0  0  0  0  0  0  0  0  0  0
    0.1773    6.3075    5.9944 H   0  0  0  0  0  0  0  0  0  0  0  0
    0.8599    5.5226    7.1744 H   0  0  0  0  0  0  0  0  0  0  0  0
    3.6682   10.5756    7.8124 C   0  0  0  0  0  0  0  0  0  0  0  0
    4.5577   10.7220    7.4047 H   0  0  0  0  0  0  0  0  0  0  0  0
    3.7322    9.8305    8.4612 H   0  0  0  0  0  0  0  0  0  0  0  0
    3.1787   11.8262    8.4865 C   0  0  0  0  0  0  0  0  0  0  0  0
    2.5944   11.6077    9.2549 H   0  0  0  0  0  0  0  0  0  0  0  0
    3.9387   12.3740    8.8072 H   0  0  0  0  0  0  0  0  0  0  0  0
    2.4316   12.5327    7.4481 C   0  0  0  0  0  0  0  0  0  0  0  0
    3.0282   13.1390    6.9432 H   0  0  0  0  0  0  0  0  0  0  0  0
    1.7027   13.0695    7.8517 H   0  0  0  0  0  0  0  0  0  0  0  0
    1.8720   11.4914    6.5545 C   0  0  0  0  0  0  0  0  0  0  0  0
    0.9202   11.3245    6.7691 H   0  0  0  0  0  0  0  0  0  0  0  0
    1.9385   11.7750    5.6085 H   0  0  0  0  0  0  0  0  0  0  0  0
    3.2482    6.2692    4.2194 B   0  5  0  0  0  0  0  0  0  0  0  0
    4.2528    6.8552    4.5167 H   0  0  0  0  0  0  0  0  0  0  0  0
    2.5103    6.2354    5.1645 H   0  0  0  0  0  0  0  0  0  0  0  0
    2.7092    6.8357    3.3097 H   0  0  0  0  0  0  0  0  0  0  0  0
    4.1913    3.3720    5.1983 B   0  5  0  0  0  0  0  0  0  0  0  0
    4.6333    2.3273    4.8061 H   0  0  0  0  0  0  0  0  0  0  0  0
    3.2257    3.1658    5.8811 H   0  0  0  0  0  0  0  0  0  0  0  0
    5.0254    3.9404    5.8474 H   0  0  0  0  0  0  0  0  0  0  0  0
    0.5797    8.9594    3.9978 B   0  5  0  0  0  0  0  0  0  0  0  0
    1.3821    9.0899    3.1159 H   0  0  0  0  0  0  0  0  0  0  0  0
    0.5670    7.8153    4.3613 H   0  0  0  0  0  0  0  0  0  0  0  0
    0.8790    9.6676    4.9196 H   0  0  0  0  0  0  0  0  0  0  0  0
   -2.4346    9.6435    4.8034 B   0  5  0  0  0  0  0  0  0  0  0  0
   -2.1720   10.6317    5.4322 H   0  0  0  0  0  0  0  0  0  0  0  0
   -2.3705    8.6842    5.5209 H   0  0  0  0  0  0  0  0  0  0  0  0
   -3.5459    9.7369    4.3588 H   0  0  0  0  0  0  0  0  0  0  0  0
    4.2897    9.9103    3.9947 B   0  5  0  0  0  0  0  0  0  0  0  0
    3.2157   10.4276    4.1379 H   0  0  0  0  0  0  0  0  0  0  0  0
    4.6415    9.4251    5.0336 H   0  0  0  0  0  0  0  0  0  0  0  0
    4.2120    9.0537    3.1580 H   0  0  0  0  0  0  0  0  0  0  0  0
    6.1225   12.3571    4.9135 B   0  5  0  0  0  0  0  0  0  0  0  0
    6.7703   13.2779    4.4981 H   0  0  0  0  0  0  0  0  0  0  0  0
    6.7865   11.7137    5.6784 H   0  0  0  0  0  0  0  0  0  0  0  0
    5.1516   12.7761    5.4819 H   0  0  0  0  0  0  0  0  0  0  0  0
  1  5  1  0  0  0  0
  2  8  1  0  0  0  0
  3 34  1  0  0  0  0
  4 60  1  0  0  0  0
  5 86  1  0  0  0  0
  6  1  1  0  0  0  0
  7  1  1  0  0  0  0
  8  9  1  0  0  0  0
  9 10  1  0  0  0  0
 11  9  1  0  0  0  0
 12  9  1  0  0  0  0
 13  8  1  0  0  0  0
 14 13  1  0  0  0  0
 15 13  1  0  0  0  0
 16 13  1  0  0  0  0
 17  8  1  0  0  0  0
 18 17  1  0  0  0  0
 19 17  1  0  0  0  0
 20 17  1  0  0  0  0
 21  2  1  0  0  0  0
 22 21  1  0  0  0  0
 23 22  1  0  0  0  0
 24 22  1  0  0  0  0
 25 22  1  0  0  0  0
 26 21  1  0  0  0  0
 27 26  1  0  0  0  0
 28 26  1  0  0  0  0
 29 26  1  0  0  0  0
 30 21  1  0  0  0  0
 31 30  1  0  0  0  0
 32 30  1  0  0  0  0
 33 30  1  0  0  0  0
 34 35  1  0  0  0  0
 35 36  1  0  0  0  0
 37 35  1  0  0  0  0
 38 35  1  0  0  0  0
 39 34  1  0  0  0  0
 40 39  1  0  0  0  0
 41 39  1  0  0  0  0
 42 39  1  0  0  0  0
 43 34  1  0  0  0  0
 44 43  1  0  0  0  0
 45 43  1  0  0  0  0
 46 43  1  0  0  0  0
 47  3  1  0  0  0  0
 48 47  1  0  0  0  0
 49 48  1  0  0  0  0
 50 48  1  0  0  0  0
 51 48  1  0  0  0  0
 52 47  1  0  0  0  0
 53 52  1  0  0  0  0
 54 52  1  0  0  0  0
 55 52  1  0  0  0  0
 56 47  1  0  0  0  0
 57 56  1  0  0  0  0
 58 56  1  0  0  0  0
 59 56  1  0  0  0  0
 60 61  1  0  0  0  0
 61 62  1  0  0  0  0
 63 61  1  0  0  0  0
 64 61  1  0  0  0  0
 65 60  1  0  0  0  0
 66 65  1  0  0  0  0
 67 65  1  0  0  0  0
 68 65  1  0  0  0  0
 69 60  1  0  0  0  0
 70 69  1  0  0  0  0
 71 69  1  0  0  0  0
 72 69  1  0  0  0  0
 73  4  1  0  0  0  0
 74 73  1  0  0  0  0
 75 74  1  0  0  0  0
 76 74  1  0  0  0  0
 77 74  1  0  0  0  0
 78 73  1  0  0  0  0
 79 78  1  0  0  0  0
 80 78  1  0  0  0  0
 81 78  1  0  0  0  0
 82 73  1  0  0  0  0
 83 82  1  0  0  0  0
 84 82  1  0  0  0  0
 85 82  1  0  0  0  0
 86 87  1  0  0  0  0
 88 86  1  0  0  0  0
 89 86  1  0  0  0  0
 90 89  1  0  0  0  0
 91 89  1  0  0  0  0
 92 89  1  0  0  0  0
 93 92  1  0  0  0  0
 94 92  1  0  0  0  0
 95  5  1  0  0  0  0
 96 95  1  0  0  0  0
 97 95  1  0  0  0  0
 98  6  1  0  0  0  0
 99 98  1  0  0  0  0
100 98  1  0  0  0  0
101 98  1  0  0  0  0
102101  1  0  0  0  0
103101  1  0  0  0  0
104101  1  0  0  0  0
105104  1  0  0  0  0
106104  1  0  0  0  0
107  6  1  0  0  0  0
108107  1  0  0  0  0
109107  1  0  0  0  0
110  7  1  0  0  0  0
111110  1  0  0  0  0
112110  1  0  0  0  0
113110  1  0  0  0  0
114113  1  0  0  0  0
115113  1  0  0  0  0
116113  1  0  0  0  0
117116  1  0  0  0  0
118116  1  0  0  0  0
119  7  1  0  0  0  0
120119  1  0  0  0  0
121119  1  0  0  0  0
122  2  1  0  0  0  0
123  1  1  0  0  0  0
124  1  1  0  0  0  0
125  1  1  0  0  0  0
126  2  1  0  0  0  0
127126  1  0  0  0  0
128126  1  0  0  0  0
129126  1  0  0  0  0
130  3  1  0  0  0  0
131  1  1  0  0  0  0
132  1  1  0  0  0  0
133  1  1  0  0  0  0
134  3  1  0  0  0  0
135134  1  0  0  0  0
136134  1  0  0  0  0
137134  1  0  0  0  0
138  4  1  0  0  0  0
139  1  1  0  0  0  0
140  1  1  0  0  0  0
141  1  1  0  0  0  0
142  4  1  0  0  0  0
143142  1  0  0  0  0
144142  1  0  0  0  0
145142  1  0  0  0  0
 92 95  1  0  0  0  0
104107  1  0  0  0  0
116119  1  0  0  0  0
122123  1  0  0  0  0
122124  1  0  0  0  0
122125  1  0  0  0  0
130131  1  0  0  0  0
130132  1  0  0  0  0
130133  1  0  0  0  0
138139  1  0  0  0  0
138140  1  0  0  0  0
138141  1  0  0  0  0
M  END
$$$$
JOTLUC

From CSD data. Using bond type 'Any'. No disordered atoms. Largest molecule.
145153  0  0  0  0  0  0  0  0999 V2000
   -1.0940    1.9257   10.4001 Tb  0  1  0  0  0  0  0  0  0  0  0  0
   -3.8759    4.8373   12.4516 P   0  3  0  0  0  0  0  0  0  0  0  0
   -2.1170   -1.9977   12.3631 P   0  3  0  0  0  0  0  0  0  0  0  0
    2.9111    3.0113   12.1145 P   0  3  0  0  0  0  0  0  0  0  0  0
   -1.1462    3.6296    8.7267 O   0  0  0  0  0  0  0  0  0  0  0  0
   -2.7448    1.0376    8.9081 O   0  0  0  0  0  0  0  0  0  0  0  0
    0.3254    1.0124    8.6791 O   0  0  0  0  0  0  0  0  0  0  0  0
   -2.9234    5.9431   13.6398 C   0  0  0  0  0  0  0  0  0  0  0  0
   -1.9931    5.1634   14.5534 C   0  0  0  0  0  0  0  0  0  0  0  0
   -2.5242    4.6311   15.1821 H   0  0  0  0  0  0  0  0  0  0  0  0
   -1.4264    5.7882   15.0519 H   0  0  0  0  0  0  0  0  0  0  0  0
   -1.4308    4.5691   14.0152 H   0  0  0  0  0  0  0  0  0  0  0  0
   -2.0395    6.8567   12.7595 C   0  0  0  0  0  0  0  0  0  0  0  0
   -1.3625    6.3146   12.3029 H   0  0  0  0  0  0  0  0  0  0  0  0
   -1.5963    7.5251   13.3232 H   0  0  0  0  0  0  0  0  0  0  0  0
   -2.5981    7.3099   12.0939 H   0  0  0  0  0  0  0  0  0  0  0  0
   -3.8462    6.8652   14.4317 C   0  0  0  0  0  0  0  0  0  0  0  0
   -4.4334    7.3482   13.8138 H   0  0  0  0  0  0  0  0  0  0  0  0
   -3.3083    7.5063   14.9409 H   0  0  0  0  0  0  0  0  0  0  0  0
   -4.3895    6.3314   15.0488 H   0  0  0  0  0  0  0  0  0  0  0  0
   -5.2117    3.8691   13.3285 C   0  0  0  0  0  0  0  0  0  0  0  0
   -4.7093    3.2476   14.6577 C   0  0  0  0  0  0  0  0  0  0  0  0
   -3.9102    2.7081   14.4840 H   0  0  0  0  0  0  0  0  0  0  0  0
   -5.4113    2.6806   15.0380 H   0  0  0  0  0  0  0  0  0  0  0  0
   -4.4890    3.9642   15.2890 H   0  0  0  0  0  0  0  0  0  0  0  0
   -6.4113    4.7451   13.6541 C   0  0  0  0  0  0  0  0  0  0  0  0
   -6.1271    5.4916   14.2209 H   0  0  0  0  0  0  0  0  0  0  0  0
   -7.0855    4.2135   14.1265 H   0  0  0  0  0  0  0  0  0  0  0  0
   -6.7955    5.0942   12.8222 H   0  0  0  0  0  0  0  0  0  0  0  0
   -5.6367    2.7668   12.3881 C   0  0  0  0  0  0  0  0  0  0  0  0
   -5.9619    3.1590   11.5515 H   0  0  0  0  0  0  0  0  0  0  0  0
   -6.3534    2.2423   12.8035 H   0  0  0  0  0  0  0  0  0  0  0  0
   -4.8720    2.1835   12.2009 H   0  0  0  0  0  0  0  0  0  0  0  0
   -3.4044   -1.7150   13.6974 C   0  0  0  0  0  0  0  0  0  0  0  0
   -3.0259   -0.5456   14.6229 C   0  0  0  0  0  0  0  0  0  0  0  0
   -2.1899   -0.7554   15.0894 H   0  0  0  0  0  0  0  0  0  0  0  0
   -3.7398   -0.4055   15.2798 H   0  0  0  0  0  0  0  0  0  0  0  0
   -2.9078    0.2677   14.0900 H   0  0  0  0  0  0  0  0  0  0  0  0
   -4.7101   -1.3561   12.9776 C   0  0  0  0  0  0  0  0  0  0  0  0
   -4.5676   -0.5658   12.4170 H   0  0  0  0  0  0  0  0  0  0  0  0
   -5.4063   -1.1658   13.6408 H   0  0  0  0  0  0  0  0  0  0  0  0
   -4.9912   -2.1091   12.4164 H   0  0  0  0  0  0  0  0  0  0  0  0
   -3.6598   -2.9853   14.5265 C   0  0  0  0  0  0  0  0  0  0  0  0
   -3.8405   -3.7373   13.9253 H   0  0  0  0  0  0  0  0  0  0  0  0
   -4.4330   -2.8421   15.1122 H   0  0  0  0  0  0  0  0  0  0  0  0
   -2.8701   -3.1842   15.0714 H   0  0  0  0  0  0  0  0  0  0  0  0
   -0.5712   -2.8254   13.0285 C   0  0  0  0  0  0  0  0  0  0  0  0
   -0.0908   -2.2443   14.3590 C   0  0  0  0  0  0  0  0  0  0  0  0
    0.0077   -1.2734   14.2761 H   0  0  0  0  0  0  0  0  0  0  0  0
    0.7748   -2.6412   14.5952 H   0  0  0  0  0  0  0  0  0  0  0  0
   -0.7444   -2.4486   15.0599 H   0  0  0  0  0  0  0  0  0  0  0  0
   -0.8009   -4.3439   13.1688 C   0  0  0  0  0  0  0  0  0  0  0  0
   -1.4755   -4.5092   13.8603 H   0  0  0  0  0  0  0  0  0  0  0  0
    0.0399   -4.7793   13.4224 H   0  0  0  0  0  0  0  0  0  0  0  0
   -1.1125   -4.7075   12.3144 H   0  0  0  0  0  0  0  0  0  0  0  0
    0.5185   -2.6032   11.9787 C   0  0  0  0  0  0  0  0  0  0  0  0
    0.1947   -2.9034   11.1031 H   0  0  0  0  0  0  0  0  0  0  0  0
    1.3179   -3.1142   12.2233 H   0  0  0  0  0  0  0  0  0  0  0  0
    0.7410   -1.6498   11.9344 H   0  0  0  0  0  0  0  0  0  0  0  0
    3.4520    1.7069   13.3285 C   0  0  0  0  0  0  0  0  0  0  0  0
    2.3681    1.2549   14.2689 C   0  0  0  0  0  0  0  0  0  0  0  0
    2.2131    1.9466   14.9460 H   0  0  0  0  0  0  0  0  0  0  0  0
    2.6427    0.4232   14.7099 H   0  0  0  0  0  0  0  0  0  0  0  0
    1.5419    1.0998   13.7656 H   0  0  0  0  0  0  0  0  0  0  0  0
    3.7954    0.4555   12.4497 C   0  0  0  0  0  0  0  0  0  0  0  0
    3.0191    0.2209   11.9000 H   0  0  0  0  0  0  0  0  0  0  0  0
    4.0237   -0.2991   13.0320 H   0  0  0  0  0  0  0  0  0  0  0  0
    4.5568    0.6632   11.8697 H   0  0  0  0  0  0  0  0  0  0  0  0
    4.7480    2.0760   14.0239 C   0  0  0  0  0  0  0  0  0  0  0  0
    5.4044    2.3699   13.3579 H   0  0  0  0  0  0  0  0  0  0  0  0
    5.0967    1.2951   14.5029 H   0  0  0  0  0  0  0  0  0  0  0  0
    4.5819    2.8021   14.6608 H   0  0  0  0  0  0  0  0  0  0  0  0
    2.7466    4.7088   12.9049 C   0  0  0  0  0  0  0  0  0  0  0  0
    1.9576    4.6357   14.2483 C   0  0  0  0  0  0  0  0  0  0  0  0
    1.1352    4.1193   14.1165 H   0  0  0  0  0  0  0  0  0  0  0  0
    1.7308    5.5420   14.5437 H   0  0  0  0  0  0  0  0  0  0  0  0
    2.5114    4.1992   14.9294 H   0  0  0  0  0  0  0  0  0  0  0  0
    1.9366    5.5724   11.9708 C   0  0  0  0  0  0  0  0  0  0  0  0
    2.4024    5.6530   11.1129 H   0  0  0  0  0  0  0  0  0  0  0  0
    1.8213    6.4612   12.3660 H   0  0  0  0  0  0  0  0  0  0  0  0
    1.0576    5.1618   11.8281 H   0  0  0  0  0  0  0  0  0  0  0  0
    4.1048    5.3270   13.1926 C   0  0  0  0  0  0  0  0  0  0  0  0
    4.6045    4.7487   13.8050 H   0  0  0  0  0  0  0  0  0  0  0  0
    3.9819    6.2088   13.6019 H   0  0  0  0  0  0  0  0  0  0  0  0
    4.6042    5.4236   12.3540 H   0  0  0  0  0  0  0  0  0  0  0  0
   -1.9602    3.7191    7.5343 C   0  0  0  0  0  0  0  0  0  0  0  0
   -1.4387    3.4442    6.7387 H   0  0  0  0  0  0  0  0  0  0  0  0
   -2.7520    3.1301    7.6113 H   0  0  0  0  0  0  0  0  0  0  0  0
   -2.3713    5.0991    7.4110 C   0  0  0  0  0  0  0  0  0  0  0  0
   -3.2927    5.2152    7.7559 H   0  0  0  0  0  0  0  0  0  0  0  0
   -2.3537    5.3803    6.4619 H   0  0  0  0  0  0  0  0  0  0  0  0
   -1.4073    5.9230    8.2155 C   0  0  0  0  0  0  0  0  0  0  0  0
   -1.8827    6.4369    8.9157 H   0  0  0  0  0  0  0  0  0  0  0  0
   -0.9130    6.5532    7.6348 H   0  0  0  0  0  0  0  0  0  0  0  0
   -0.4712    4.9177    8.8335 C   0  0  0  0  0  0  0  0  0  0  0  0
    0.3906    4.9009    8.3469 H   0  0  0  0  0  0  0  0  0  0  0  0
   -0.2969    5.1421    9.7817 H   0  0  0  0  0  0  0  0  0  0  0  0
   -2.5188    0.0054    7.8931 C   0  0  0  0  0  0  0  0  0  0  0  0
   -2.2134   -0.8376    8.3132 H   0  0  0  0  0  0  0  0  0  0  0  0
   -1.8359    0.3010    7.2396 H   0  0  0  0  0  0  0  0  0  0  0  0
   -3.8449   -0.1881    7.2214 C   0  0  0  0  0  0  0  0  0  0  0  0
   -3.9421    0.4219    6.4479 H   0  0  0  0  0  0  0  0  0  0  0  0
   -3.9521   -1.1215    6.9112 H   0  0  0  0  0  0  0  0  0  0  0  0
   -4.8214    0.1324    8.2645 C   0  0  0  0  0  0  0  0  0  0  0  0
   -5.0489   -0.6790    8.7856 H   0  0  0  0  0  0  0  0  0  0  0  0
   -5.6511    0.4927    7.8632 H   0  0  0  0  0  0  0  0  0  0  0  0
   -4.1895    1.1433    9.1354 C   0  0  0  0  0  0  0  0  0  0  0  0
   -4.5110    2.0495    8.9040 H   0  0  0  0  0  0  0  0  0  0  0  0
   -4.4033    0.9638   10.0859 H   0  0  0  0  0  0  0  0  0  0  0  0
    1.1196    1.8243    7.7587 C   0  0  0  0  0  0  0  0  0  0  0  0
    1.4224    2.6530    8.2066 H   0  0  0  0  0  0  0  0  0  0  0  0
    0.5779    2.0741    6.9682 H   0  0  0  0  0  0  0  0  0  0  0  0
    2.2929    1.0086    7.3399 C   0  0  0  0  0  0  0  0  0  0  0  0
    2.1690    0.6655    6.4190 H   0  0  0  0  0  0  0  0  0  0  0  0
    3.1221    1.5486    7.3693 H   0  0  0  0  0  0  0  0  0  0  0  0
    2.3606   -0.1099    8.3103 C   0  0  0  0  0  0  0  0  0  0  0  0
    2.9213    0.1304    9.0904 H   0  0  0  0  0  0  0  0  0  0  0  0
    2.7304   -0.9255    7.8872 H   0  0  0  0  0  0  0  0  0  0  0  0
    0.9383   -0.3135    8.7134 C   0  0  0  0  0  0  0  0  0  0  0  0
    0.4809   -0.9249    8.0842 H   0  0  0  0  0  0  0  0  0  0  0  0
    0.8857   -0.6972    9.6250 H   0  0  0  0  0  0  0  0  0  0  0  0
   -2.6126    3.5498   11.7464 B   0  5  0  0  0  0  0  0  0  0  0  0
   -2.3533    2.7398   12.5935 H   0  0  0  0  0  0  0  0  0  0  0  0
   -1.6092    4.1156   11.4129 H   0  0  0  0  0  0  0  0  0  0  0  0
   -3.0948    2.9955   10.7976 H   0  0  0  0  0  0  0  0  0  0  0  0
   -4.6499    5.9039   11.0367 B   0  5  0  0  0  0  0  0  0  0  0  0
   -5.3896    5.2226   10.3808 H   0  0  0  0  0  0  0  0  0  0  0  0
   -3.7761    6.3338   10.3353 H   0  0  0  0  0  0  0  0  0  0  0  0
   -5.2654    6.8166   11.5138 H   0  0  0  0  0  0  0  0  0  0  0  0
   -1.6104   -0.2514   11.7227 B   0  5  0  0  0  0  0  0  0  0  0  0
   -2.5944    0.4165   11.5621 H   0  0  0  0  0  0  0  0  0  0  0  0
   -1.0276   -0.3618   10.6794 H   0  0  0  0  0  0  0  0  0  0  0  0
   -0.8945    0.2775   12.5270 H   0  0  0  0  0  0  0  0  0  0  0  0
   -2.8624   -3.0652   10.9214 B   0  5  0  0  0  0  0  0  0  0  0  0
   -3.3652   -4.0551   11.3755 H   0  0  0  0  0  0  0  0  0  0  0  0
   -1.9885   -3.3732   10.1591 H   0  0  0  0  0  0  0  0  0  0  0  0
   -3.6939   -2.4249   10.3390 H   0  0  0  0  0  0  0  0  0  0  0  0
    1.1490    2.5174   11.5235 B   0  5  0  0  0  0  0  0  0  0  0  0
    1.1392    1.3565   11.2196 H   0  0  0  0  0  0  0  0  0  0  0  0
    0.8447    3.1824   10.5720 H   0  0  0  0  0  0  0  0  0  0  0  0
    0.3621    2.7051   12.4103 H   0  0  0  0  0  0  0  0  0  0  0  0
    4.1483    3.1089   10.6290 B   0  5  0  0  0  0  0  0  0  0  0  0
    5.2613    3.2736   11.0449 H   0  0  0  0  0  0  0  0  0  0  0  0
    3.8472    4.0286    9.9179 H   0  0  0  0  0  0  0  0  0  0  0  0
    4.1019    2.0874   10.0015 H   0  0  0  0  0  0  0  0  0  0  0  0
  1  5  1  0  0  0  0
  2  8  1  0  0  0  0
  3 34  1  0  0  0  0
  4 60  1  0  0  0  0
  5 86  1  0  0  0  0
  6  1  1  0  0  0  0
  7  1  1  0  0  0  0
  8  9  1  0  0  0  0
  9 10  1  0  0  0  0
 11  9  1  0  0  0  0
 12  9  1  0  0  0  0
 13  8  1  0  0  0  0
 14 13  1  0  0  0  0
 15 13  1  0  0  0  0
 16 13  1  0  0  0  0
 17  8  1  0  0  0  0
 18 17  1  0  0  0  0
 19 17  1  0  0  0  0
 20 17  1  0  0  0  0
 21  2  1  0  0  0  0
 22 21  1  0  0  0  0
 23 22  1  0  0  0  0
 24 22  1  0  0  0  0
 25 22  1  0  0  0  0
 26 21  1  0  0  0  0
 27 26  1  0  0  0  0
 28 26  1  0  0  0  0
 29 26  1  0  0  0  0
 30 21  1  0  0  0  0
 31 30  1  0  0  0  0
 32 30  1  0  0  0  0
 33 30  1  0  0  0  0
 34 35  1  0  0  0  0
 35 36  1  0  0  0  0
 37 35  1  0  0  0  0
 38 35  1  0  0  0  0
 39 34  1  0  0  0  0
 40 39  1  0  0  0  0
 41 39  1  0  0  0  0
 42 39  1  0  0  0  0
 43 34  1  0  0  0  0
 44 43  1  0  0  0  0
 45 43  1  0  0  0  0
 46 43  1  0  0  0  0
 47  3  1  0  0  0  0
 48 47  1  0  0  0  0
 49 48  1  0  0  0  0
 50 48  1  0  0  0  0
 51 48  1  0  0  0  0
 52 47  1  0  0  0  0
 53 52  1  0  0  0  0
 54 52  1  0  0  0  0
 55 52  1  0  0  0  0
 56 47  1  0  0  0  0
 57 56  1  0  0  0  0
 58 56  1  0  0  0  0
 59 56  1  0  0  0  0
 60 61  1  0  0  0  0
 61 62  1  0  0  0  0
 63 61  1  0  0  0  0
 64 61  1  0  0  0  0
 65 60  1  0  0  0  0
 66 65  1  0  0  0  0
 67 65  1  0  0  0  0
 68 65  1  0  0  0  0
 69 60  1  0  0  0  0
 70 69  1  0  0  0  0
 71 69  1  0  0  0  0
 72 69  1  0  0  0  0
 73  4  1  0  0  0  0
 74 73  1  0  0  0  0
 75 74  1  0  0  0  0
 76 74  1  0  0  0  0
 77 74  1  0  0  0  0
 78 73  1  0  0  0  0
 79 78  1  0  0  0  0
 80 78  1  0  0  0  0
 81 78  1  0  0  0  0
 82 73  1  0  0  0  0
 83 82  1  0  0  0  0
 84 82  1  0  0  0  0
 85 82  1  0  0  0  0
 86 87  1  0  0  0  0
 88 86  1  0  0  0  0
 89 86  1  0  0  0  0
 90 89  1  0  0  0  0
 91 89  1  0  0  0  0
 92 89  1  0  0  0  0
 93 92  1  0  0  0  0
 94 92  1  0  0  0  0
 95  5  1  0  0  0  0
 96 95  1  0  0  0  0
 97 95  1  0  0  0  0
 98  6  1  0  0  0  0
 99 98  1  0  0  0  0
100 98  1  0  0  0  0
101 98  1  0  0  0  0
102101  1  0  0  0  0
103101  1  0  0  0  0
104101  1  0  0  0  0
105104  1  0  0  0  0
106104  1  0  0  0  0
107  6  1  0  0  0  0
108107  1  0  0  0  0
109107  1  0  0  0  0
110  7  1  0  0  0  0
111110  1  0  0  0  0
112110  1  0  0  0  0
113110  1  0  0  0  0
114113  1  0  0  0  0
115113  1  0  0  0  0
116113  1  0  0  0  0
117116  1  0  0  0  0
118116  1  0  0  0  0
119  7  1  0  0  0  0
120119  1  0  0  0  0
121119  1  0  0  0  0
122  2  1  0  0  0  0
123  1  1  0  0  0  0
124  1  1  0  0  0  0
125  1  1  0  0  0  0
126  2  1  0  0  0  0
127126  1  0  0  0  0
128126  1  0  0  0  0
129126  1  0  0  0  0
130  3  1  0  0  0  0
131  1  1  0  0  0  0
132  1  1  0  0  0  0
133  1  1  0  0  0  0
134  3  1  0  0  0  0
135134  1  0  0  0  0
136134  1  0  0  0  0
137134  1  0  0  0  0
138  4  1  0  0  0  0
139  1  1  0  0  0  0
140  1  1  0  0  0  0
141  1  1  0  0  0  0
142  4  1  0  0  0  0
143142  1  0  0  0  0
144142  1  0  0  0  0
145142  1  0  0  0  0
 92 95  1  0  0  0  0
104107  1  0  0  0  0
116119  1  0  0  0  0
122123  1  0  0  0  0
122124  1  0  0  0  0
122125  1  0  0  0  0
130131  1  0  0  0  0
130132  1  0  0  0  0
130133  1  0  0  0  0
138139  1  0  0  0  0
138140  1  0  0  0  0
138141  1  0  0  0  0
M  END
$$$$
JOTMAJ

From CSD data. Using bond type 'Any'. No disordered atoms. Largest molecule.
145153  0  0  0  0  0  0  0  0999 V2000
   -2.5834    3.5567   11.7493 B   0  5  0  0  0  0  0  0  0  0  0  0
   -2.3432    2.7430   12.5980 H   0  0  0  0  0  0  0  0  0  0  0  0
   -1.5708    4.1225   11.4402 H   0  0  0  0  0  0  0  0  0  0  0  0
   -3.0445    3.0080   10.7874 H   0  0  0  0  0  0  0  0  0  0  0  0
   -4.6379    5.8759   10.9949 B   0  5  0  0  0  0  0  0  0  0  0  0
   -5.4243    5.1975   10.3951 H   0  0  0  0  0  0  0  0  0  0  0  0
   -3.7728    6.2420   10.2481 H   0  0  0  0  0  0  0  0  0  0  0  0
   -5.2010    6.8315   11.4535 H   0  0  0  0  0  0  0  0  0  0  0  0
   -1.5914   -0.1941   11.7367 B   0  5  0  0  0  0  0  0  0  0  0  0
   -2.5770    0.4634   11.5410 H   0  0  0  0  0  0  0  0  0  0  0  0
   -0.9651   -0.2881   10.7182 H   0  0  0  0  0  0  0  0  0  0  0  0
   -0.9170    0.3374   12.5747 H   0  0  0  0  0  0  0  0  0  0  0  0
   -2.8300   -2.9991   10.8875 B   0  5  0  0  0  0  0  0  0  0  0  0
   -3.3112   -4.0076   11.3240 H   0  0  0  0  0  0  0  0  0  0  0  0
   -1.9522   -3.2763   10.1163 H   0  0  0  0  0  0  0  0  0  0  0  0
   -3.6750   -2.3648   10.3195 H   0  0  0  0  0  0  0  0  0  0  0  0
    1.1314    2.5347   11.5252 B   0  5  0  0  0  0  0  0  0  0  0  0
    1.1118    1.3660   11.2544 H   0  0  0  0  0  0  0  0  0  0  0  0
    0.8255    3.1750   10.5575 H   0  0  0  0  0  0  0  0  0  0  0  0
    0.3508    2.7527   12.4112 H   0  0  0  0  0  0  0  0  0  0  0  0
    4.1287    3.1339   10.5892 B   0  5  0  0  0  0  0  0  0  0  0  0
    5.2401    3.3347   10.9938 H   0  0  0  0  0  0  0  0  0  0  0  0
    3.7995    4.0314    9.8626 H   0  0  0  0  0  0  0  0  0  0  0  0
    4.1044    2.0993    9.9816 H   0  0  0  0  0  0  0  0  0  0  0  0
   -2.9139    5.9715   13.5976 C   0  0  0  0  0  0  0  0  0  0  0  0
   -2.0403    6.8710   12.6932 C   0  0  0  0  0  0  0  0  0  0  0  0
   -1.4173    6.3126   12.1812 H   0  0  0  0  0  0  0  0  0  0  0  0
   -1.5334    7.4997   13.2481 H   0  0  0  0  0  0  0  0  0  0  0  0
   -2.6140    7.3698   12.0749 H   0  0  0  0  0  0  0  0  0  0  0  0
   -1.9621    5.2169   14.5162 C   0  0  0  0  0  0  0  0  0  0  0  0
   -2.4787    4.6742   15.1477 H   0  0  0  0  0  0  0  0  0  0  0  0
   -1.4096    5.8574   15.0123 H   0  0  0  0  0  0  0  0  0  0  0  0
   -1.3840    4.6340   13.9810 H   0  0  0  0  0  0  0  0  0  0  0  0
   -3.8348    6.9066   14.3647 C   0  0  0  0  0  0  0  0  0  0  0  0
   -4.4667    7.3250   13.7433 H   0  0  0  0  0  0  0  0  0  0  0  0
   -3.3018    7.6011   14.8053 H   0  0  0  0  0  0  0  0  0  0  0  0
   -4.3290    6.3966   15.0395 H   0  0  0  0  0  0  0  0  0  0  0  0
   -5.1801    3.8770   13.3261 C   0  0  0  0  0  0  0  0  0  0  0  0
   -5.6051    2.7580   12.4154 C   0  0  0  0  0  0  0  0  0  0  0  0
   -5.9777    3.1322   11.5892 H   0  0  0  0  0  0  0  0  0  0  0  0
   -6.2850    2.2128   12.8626 H   0  0  0  0  0  0  0  0  0  0  0  0
   -4.8287    2.2000   12.1990 H   0  0  0  0  0  0  0  0  0  0  0  0
   -6.3931    4.7517   13.6402 C   0  0  0  0  0  0  0  0  0  0  0  0
   -6.1138    5.5123   14.1915 H   0  0  0  0  0  0  0  0  0  0  0  0
   -7.0593    4.2227   14.1279 H   0  0  0  0  0  0  0  0  0  0  0  0
   -6.7854    5.0802   12.8047 H   0  0  0  0  0  0  0  0  0  0  0  0
   -4.6700    3.2692   14.6567 C   0  0  0  0  0  0  0  0  0  0  0  0
   -3.8916    2.6998   14.4784 H   0  0  0  0  0  0  0  0  0  0  0  0
   -5.3806    2.7316   15.0641 H   0  0  0  0  0  0  0  0  0  0  0  0
   -4.4133    3.9900   15.2685 H   0  0  0  0  0  0  0  0  0  0  0  0
   -3.3966   -1.6813   13.6718 C   0  0  0  0  0  0  0  0  0  0  0  0
   -3.6683   -2.9632   14.4831 C   0  0  0  0  0  0  0  0  0  0  0  0
   -3.8988   -3.6941   13.8720 H   0  0  0  0  0  0  0  0  0  0  0  0
   -4.4124   -2.8072   15.1011 H   0  0  0  0  0  0  0  0  0  0  0  0
   -2.8660   -3.2045   14.9921 H   0  0  0  0  0  0  0  0  0  0  0  0
   -4.6956   -1.3116   12.9363 C   0  0  0  0  0  0  0  0  0  0  0  0
   -4.5374   -0.5326   12.3628 H   0  0  0  0  0  0  0  0  0  0  0  0
   -5.3928   -1.0968   13.5921 H   0  0  0  0  0  0  0  0  0  0  0  0
   -4.9879   -2.0680   12.3863 H   0  0  0  0  0  0  0  0  0  0  0  0
   -3.0337   -0.5304   14.6046 C   0  0  0  0  0  0  0  0  0  0  0  0
   -2.2126   -0.7495   15.0912 H   0  0  0  0  0  0  0  0  0  0  0  0
   -3.7636   -0.3853   15.2427 H   0  0  0  0  0  0  0  0  0  0  0  0
   -2.8943    0.2849   14.0781 H   0  0  0  0  0  0  0  0  0  0  0  0
   -0.5717   -2.7964   13.0183 C   0  0  0  0  0  0  0  0  0  0  0  0
   -0.7993   -4.3043   13.1493 C   0  0  0  0  0  0  0  0  0  0  0  0
   -1.4996   -4.4715   13.8142 H   0  0  0  0  0  0  0  0  0  0  0  0
    0.0318   -4.7371   13.4327 H   0  0  0  0  0  0  0  0  0  0  0  0
   -1.0791   -4.6681   12.2827 H   0  0  0  0  0  0  0  0  0  0  0  0
    0.5406   -2.5562   11.9813 C   0  0  0  0  0  0  0  0  0  0  0  0
    0.2251   -2.8292   11.0942 H   0  0  0  0  0  0  0  0  0  0  0  0
    1.3315   -3.0834   12.2222 H   0  0  0  0  0  0  0  0  0  0  0  0
    0.7747   -1.6051   11.9664 H   0  0  0  0  0  0  0  0  0  0  0  0
   -0.0866   -2.2250   14.3552 C   0  0  0  0  0  0  0  0  0  0  0  0
    0.0122   -1.2526   14.2780 H   0  0  0  0  0  0  0  0  0  0  0  0
    0.7763   -2.6241   14.5882 H   0  0  0  0  0  0  0  0  0  0  0  0
   -0.7424   -2.4309   15.0547 H   0  0  0  0  0  0  0  0  0  0  0  0
    3.4567    1.7291   13.3088 C   0  0  0  0  0  0  0  0  0  0  0  0
    2.4098    1.2862   14.2542 C   0  0  0  0  0  0  0  0  0  0  0  0
    2.3105    1.9521   14.9669 H   0  0  0  0  0  0  0  0  0  0  0  0
    2.6652    0.4252   14.6449 H   0  0  0  0  0  0  0  0  0  0  0  0
    1.5585    1.1896   13.7778 H   0  0  0  0  0  0  0  0  0  0  0  0
    3.7640    0.4791   12.4075 C   0  0  0  0  0  0  0  0  0  0  0  0
    3.0026    0.3070   11.8157 H   0  0  0  0  0  0  0  0  0  0  0  0
    3.9193   -0.3034   12.9767 H   0  0  0  0  0  0  0  0  0  0  0  0
    4.5640    0.6541   11.8683 H   0  0  0  0  0  0  0  0  0  0  0  0
    4.7701    2.0776   13.9685 C   0  0  0  0  0  0  0  0  0  0  0  0
    5.3970    2.4095   13.2921 H   0  0  0  0  0  0  0  0  0  0  0  0
    5.1425    1.2789   14.3958 H   0  0  0  0  0  0  0  0  0  0  0  0
    4.6216    2.7716   14.6444 H   0  0  0  0  0  0  0  0  0  0  0  0
    2.7525    4.7306   12.8668 C   0  0  0  0  0  0  0  0  0  0  0  0
    1.9467    5.5848   11.9482 C   0  0  0  0  0  0  0  0  0  0  0  0
    2.4255    5.6962   11.1012 H   0  0  0  0  0  0  0  0  0  0  0  0
    1.8022    6.4623   12.3604 H   0  0  0  0  0  0  0  0  0  0  0  0
    1.0807    5.1568   11.7807 H   0  0  0  0  0  0  0  0  0  0  0  0
    1.9753    4.6501   14.2289 C   0  0  0  0  0  0  0  0  0  0  0  0
    1.1202    4.1912   14.0896 H   0  0  0  0  0  0  0  0  0  0  0  0
    1.8082    5.5560   14.5638 H   0  0  0  0  0  0  0  0  0  0  0  0
    2.5101    4.1535   14.8819 H   0  0  0  0  0  0  0  0  0  0  0  0
    4.1178    5.3394   13.1572 C   0  0  0  0  0  0  0  0  0  0  0  0
    4.6179    4.7479   13.7586 H   0  0  0  0  0  0  0  0  0  0  0  0
    4.0024    6.2145   13.5820 H   0  0  0  0  0  0  0  0  0  0  0  0
    4.6132    5.4456   12.3184 H   0  0  0  0  0  0  0  0  0  0  0  0
   -1.9306    3.6946    7.5304 C   0  0  0  0  0  0  0  0  0  0  0  0
   -2.7349    3.1222    7.5973 H   0  0  0  0  0  0  0  0  0  0  0  0
   -1.3874    3.3925    6.7586 H   0  0  0  0  0  0  0  0  0  0  0  0
   -0.4594    4.9196    8.8451 C   0  0  0  0  0  0  0  0  0  0  0  0
    0.4038    4.8807    8.3618 H   0  0  0  0  0  0  0  0  0  0  0  0
   -0.2831    5.1572    9.7900 H   0  0  0  0  0  0  0  0  0  0  0  0
   -2.3103    5.1188    7.3773 C   0  0  0  0  0  0  0  0  0  0  0  0
   -3.2433    5.2559    7.6790 H   0  0  0  0  0  0  0  0  0  0  0  0
   -2.2457    5.3884    6.4271 H   0  0  0  0  0  0  0  0  0  0  0  0
   -1.3783    5.9355    8.2059 C   0  0  0  0  0  0  0  0  0  0  0  0
   -1.8739    6.4461    8.8951 H   0  0  0  0  0  0  0  0  0  0  0  0
   -0.8677    6.5692    7.6428 H   0  0  0  0  0  0  0  0  0  0  0  0
   -2.4819    0.0532    7.9186 C   0  0  0  0  0  0  0  0  0  0  0  0
   -2.1750   -0.7926    8.3319 H   0  0  0  0  0  0  0  0  0  0  0  0
   -1.7988    0.3559    7.2692 H   0  0  0  0  0  0  0  0  0  0  0  0
   -3.8018   -0.1399    7.2431 C   0  0  0  0  0  0  0  0  0  0  0  0
   -3.8979    0.4744    6.4726 H   0  0  0  0  0  0  0  0  0  0  0  0
   -3.9030   -1.0722    6.9246 H   0  0  0  0  0  0  0  0  0  0  0  0
   -4.7832    0.1655    8.2801 C   0  0  0  0  0  0  0  0  0  0  0  0
   -5.0125   -0.6502    8.7907 H   0  0  0  0  0  0  0  0  0  0  0  0
   -5.6107    0.5299    7.8761 H   0  0  0  0  0  0  0  0  0  0  0  0
   -4.1554    1.1714    9.1655 C   0  0  0  0  0  0  0  0  0  0  0  0
   -4.4789    2.0794    8.9420 H   0  0  0  0  0  0  0  0  0  0  0  0
   -4.3721    0.9813   10.1123 H   0  0  0  0  0  0  0  0  0  0  0  0
    1.1199    1.8719    7.8034 C   0  0  0  0  0  0  0  0  0  0  0  0
    1.4589    2.6749    8.2724 H   0  0  0  0  0  0  0  0  0  0  0  0
    0.5710    2.1641    7.0337 H   0  0  0  0  0  0  0  0  0  0  0  0
    2.2584    1.0264    7.3362 C   0  0  0  0  0  0  0  0  0  0  0  0
    2.0871    0.6807    6.4246 H   0  0  0  0  0  0  0  0  0  0  0  0
    3.1007    1.5462    7.3283 H   0  0  0  0  0  0  0  0  0  0  0  0
    2.3360   -0.0852    8.3132 C   0  0  0  0  0  0  0  0  0  0  0  0
    2.9144    0.1566    9.0798 H   0  0  0  0  0  0  0  0  0  0  0  0
    2.6898   -0.9062    7.8889 H   0  0  0  0  0  0  0  0  0  0  0  0
    0.9295   -0.2743    8.7473 C   0  0  0  0  0  0  0  0  0  0  0  0
    0.4557   -0.8892    8.1331 H   0  0  0  0  0  0  0  0  0  0  0  0
    0.8961   -0.6528    9.6622 H   0  0  0  0  0  0  0  0  0  0  0  0
   -1.0846    1.9532   10.4118 Er  0  1  0  0  0  0  0  0  0  0  0  0
   -1.1520    3.6360    8.7605 O   0  0  0  0  0  0  0  0  0  0  0  0
   -2.7077    1.0740    8.9422 O   0  0  0  0  0  0  0  0  0  0  0  0
    0.3152    1.0477    8.7203 O   0  0  0  0  0  0  0  0  0  0  0  0
   -3.8546    4.8400   12.4298 P   0  3  0  0  0  0  0  0  0  0  0  0
   -2.1020   -1.9490   12.3414 P   0  3  0  0  0  0  0  0  0  0  0  0
    2.8989    3.0329   12.0918 P   0  3  0  0  0  0  0  0  0  0  0  0
  1  2  1  0  0  0  0
  2139  1  0  0  0  0
  3  1  1  0  0  0  0
  4  1  1  0  0  0  0
  5  6  1  0  0  0  0
  7  5  1  0  0  0  0
  8  5  1  0  0  0  0
  9 10  1  0  0  0  0
 10139  1  0  0  0  0
 11  9  1  0  0  0  0
 12  9  1  0  0  0  0
 13 14  1  0  0  0  0
 15 13  1  0  0  0  0
 16 13  1  0  0  0  0
 17 18  1  0  0  0  0
 18139  1  0  0  0  0
 19 17  1  0  0  0  0
 20 17  1  0  0  0  0
 21 22  1  0  0  0  0
 23 21  1  0  0  0  0
 24 21  1  0  0  0  0
 25 26  1  0  0  0  0
 26 27  1  0  0  0  0
 28 26  1  0  0  0  0
 29 26  1  0  0  0  0
 30 25  1  0  0  0  0
 31 30  1  0  0  0  0
 32 30  1  0  0  0  0
 33 30  1  0  0  0  0
 34 25  1  0  0  0  0
 35 34  1  0  0  0  0
 36 34  1  0  0  0  0
 37 34  1  0  0  0  0
 38 39  1  0  0  0  0
 39 40  1  0  0  0  0
 41 39  1  0  0  0  0
 42 39  1  0  0  0  0
 43 38  1  0  0  0  0
 44 43  1  0  0  0  0
 45 43  1  0  0  0  0
 46 43  1  0  0  0  0
 47 38  1  0  0  0  0
 48 47  1  0  0  0  0
 49 47  1  0  0  0  0
 50 47  1  0  0  0  0
 51 52  1  0  0  0  0
 52 53  1  0  0  0  0
 54 52  1  0  0  0  0
 55 52  1  0  0  0  0
 56 51  1  0  0  0  0
 57 56  1  0  0  0  0
 58 56  1  0  0  0  0
 59 56  1  0  0  0  0
 60 51  1  0  0  0  0
 61 60  1  0  0  0  0
 62 60  1  0  0  0  0
 63 60  1  0  0  0  0
 64 65  1  0  0  0  0
 65 66  1  0  0  0  0
 67 65  1  0  0  0  0
 68 65  1  0  0  0  0
 69 64  1  0  0  0  0
 70 69  1  0  0  0  0
 71 69  1  0  0  0  0
 72 69  1  0  0  0  0
 73 64  1  0  0  0  0
 74 73  1  0  0  0  0
 75 73  1  0  0  0  0
 76 73  1  0  0  0  0
 77 78  1  0  0  0  0
 78 79  1  0  0  0  0
 80 78  1  0  0  0  0
 81 78  1  0  0  0  0
 82 77  1  0  0  0  0
 83 82  1  0  0  0  0
 84 82  1  0  0  0  0
 85 82  1  0  0  0  0
 86 77  1  0  0  0  0
 87 86  1  0  0  0  0
 88 86  1  0  0  0  0
 89 86  1  0  0  0  0
 90 91  1  0  0  0  0
 91 92  1  0  0  0  0
 93 91  1  0  0  0  0
 94 91  1  0  0  0  0
 95 90  1  0  0  0  0
 96 95  1  0  0  0  0
 97 95  1  0  0  0  0
 98 95  1  0  0  0  0
 99 90  1  0  0  0  0
100 99  1  0  0  0  0
101 99  1  0  0  0  0
102 99  1  0  0  0  0
103104  1  0  0  0  0
105103  1  0  0  0  0
106107  1  0  0  0  0
108106  1  0  0  0  0
109103  1  0  0  0  0
110109  1  0  0  0  0
111109  1  0  0  0  0
112106  1  0  0  0  0
113112  1  0  0  0  0
114112  1  0  0  0  0
115116  1  0  0  0  0
117115  1  0  0  0  0
118115  1  0  0  0  0
119118  1  0  0  0  0
120118  1  0  0  0  0
121118  1  0  0  0  0
122121  1  0  0  0  0
123121  1  0  0  0  0
124121  1  0  0  0  0
125124  1  0  0  0  0
126124  1  0  0  0  0
127128  1  0  0  0  0
129127  1  0  0  0  0
130127  1  0  0  0  0
131130  1  0  0  0  0
132130  1  0  0  0  0
133130  1  0  0  0  0
134133  1  0  0  0  0
135133  1  0  0  0  0
136133  1  0  0  0  0
137136  1  0  0  0  0
138136  1  0  0  0  0
139  3  1  0  0  0  0
140103  1  0  0  0  0
141115  1  0  0  0  0
142127  1  0  0  0  0
143  1  1  0  0  0  0
144  9  1  0  0  0  0
145 17  1  0  0  0  0
  4139  1  0  0  0  0
  5143  1  0  0  0  0
 11139  1  0  0  0  0
 12139  1  0  0  0  0
 13144  1  0  0  0  0
 19139  1  0  0  0  0
 20139  1  0  0  0  0
 21145  1  0  0  0  0
 25143  1  0  0  0  0
 38143  1  0  0  0  0
 51144  1  0  0  0  0
 64144  1  0  0  0  0
 77145  1  0  0  0  0
 90145  1  0  0  0  0
106140  1  0  0  0  0
109112  1  0  0  0  0
124141  1  0  0  0  0
136142  1  0  0  0  0
139140  1  0  0  0  0
139141  1  0  0  0  0
139142  1  0  0  0  0
M  END
$$$$
JOWDOR

From CSD data. Using bond type 'Any'. Matching problem. No disordered atoms. Largest molecule.
 97195  0  0  0  0  0  0  0  0999 V2000
    6.6331    5.6068   10.8588 Pd  0  0  0  0  0  0  0  0  0  0  0  0
    4.3697    5.8102   10.4654 P   0  0  0  0  0  0  0  0  0  0  0  0
    4.2487    6.6658    9.0683 O   0  0  0  0  0  0  0  0  0  0  0  0
    6.6331    6.6580    9.1306 C   0  0  0  0  0  0  0  0  0  0  0  0
    6.6331    4.4997   12.6922 C   0  0  0  0  0  0  0  0  0  0  0  0
    5.4550    7.0303    8.5061 C   0  0  0  0  0  0  0  0  0  0  0  0
    3.3590    6.8210   11.5972 C   0  0  0  0  0  0  0  0  0  0  0  0
    3.0874    6.2460   12.3428 H   0  0  0  0  0  0  0  0  0  0  0  0
    5.4311    7.7702    7.3276 C   0  0  0  0  0  0  0  0  0  0  0  0
    4.6252    8.0130    6.9331 H   0  0  0  0  0  0  0  0  0  0  0  0
    3.4518    4.2782   10.0554 C   0  0  0  0  0  0  0  0  0  0  0  0
    3.3755    3.7664   10.8876 H   0  0  0  0  0  0  0  0  0  0  0  0
    6.6331    8.1333    6.7603 C   0  0  0  0  0  0  0  0  0  0  0  0
    6.6330    8.6356    5.9772 H   0  0  0  0  0  0  0  0  0  0  0  0
    4.3155    3.4459    9.1080 C   0  0  0  0  0  0  0  0  0  0  0  0
    4.4694    3.9381    8.2986 H   0  0  0  0  0  0  0  0  0  0  0  0
    3.8632    2.6241    8.9015 H   0  0  0  0  0  0  0  0  0  0  0  0
    5.1561    3.2506    9.5288 H   0  0  0  0  0  0  0  0  0  0  0  0
    2.0934    7.4025   10.9838 C   0  0  0  0  0  0  0  0  0  0  0  0
    2.3307    8.0321   10.2984 H   0  0  0  0  0  0  0  0  0  0  0  0
    1.5837    7.8481   11.6643 H   0  0  0  0  0  0  0  0  0  0  0  0
    1.5691    6.6958   10.6014 H   0  0  0  0  0  0  0  0  0  0  0  0
    4.2120    7.9302   12.1678 C   0  0  0  0  0  0  0  0  0  0  0  0
    4.9835    7.5525   12.5951 H   0  0  0  0  0  0  0  0  0  0  0  0
    3.7014    8.4291   12.8081 H   0  0  0  0  0  0  0  0  0  0  0  0
    4.4930    8.5134   11.4577 H   0  0  0  0  0  0  0  0  0  0  0  0
    2.0523    4.4366    9.5150 C   0  0  0  0  0  0  0  0  0  0  0  0
    1.4908    4.8270   10.1889 H   0  0  0  0  0  0  0  0  0  0  0  0
    1.7046    3.5755    9.2692 H   0  0  0  0  0  0  0  0  0  0  0  0
    2.0691    5.0065    8.7429 H   0  0  0  0  0  0  0  0  0  0  0  0
    7.9159    4.4181   13.7884 B   0  0  0  0  0  0  0  0  0  0  0  0
    8.8619    4.9559   13.6285 H   0  0  0  0  0  0  0  0  0  0  0  0
    6.6331    2.7029   15.4873 B   0  0  0  0  0  0  0  0  0  0  0  0
    5.3661    2.5090   14.2610 B   0  0  0  0  0  0  0  0  0  0  0  0
    4.5485    1.7938   14.4319 H   0  0  0  0  0  0  0  0  0  0  0  0
    5.3582    3.9659   15.1452 B   0  0  0  0  0  0  0  0  0  0  0  0
    4.5512    4.2077   15.8511 H   0  0  0  0  0  0  0  0  0  0  0  0
    7.6864    3.1798   12.9274 B   0  0  0  0  0  0  0  0  0  0  0  0
    8.4194    2.9213   12.1481 H   0  0  0  0  0  0  0  0  0  0  0  0
    6.9077    1.9414   13.8638 B   0  0  0  0  0  0  0  0  0  0  0  0
    7.0916    0.8651   13.7263 H   0  0  0  0  0  0  0  0  0  0  0  0
    6.0706    5.1996   14.1450 C   0  0  0  0  0  0  0  0  0  0  0  0
    5.7411    6.2470   14.2157 H   0  0  0  0  0  0  0  0  0  0  0  0
    7.0735    4.3720   15.4438 B   0  0  0  0  0  0  0  0  0  0  0  0
    7.3898    4.9526   16.3235 H   0  0  0  0  0  0  0  0  0  0  0  0
    5.1977    3.9982   13.4144 B   0  0  0  0  0  0  0  0  0  0  0  0
    4.2369    4.2499   12.9400 H   0  0  0  0  0  0  0  0  0  0  0  0
    6.0971    2.8690   12.6867 B   0  0  0  0  0  0  0  0  0  0  0  0
    5.7584    2.3997   11.7498 H   0  0  0  0  0  0  0  0  0  0  0  0
    8.0167    3.0352   14.6234 B   0  0  0  0  0  0  0  0  0  0  0  0
    8.9714    2.6771   15.0364 H   0  0  0  0  0  0  0  0  0  0  0  0
    6.6331    1.9691   16.3803 H   0  0  0  0  0  0  0  0  0  0  0  0
    8.8964    5.8102   10.4654 P   0  0  0  0  0  0  0  0  0  0  0  0
    9.0174    6.6658    9.0683 O   0  0  0  0  0  0  0  0  0  0  0  0
    7.8111    7.0303    8.5061 C   0  0  0  0  0  0  0  0  0  0  0  0
    9.9071    6.8210   11.5972 C   0  0  0  0  0  0  0  0  0  0  0  0
   10.1787    6.2460   12.3428 H   0  0  0  0  0  0  0  0  0  0  0  0
    7.8350    7.7702    7.3276 C   0  0  0  0  0  0  0  0  0  0  0  0
    8.6409    8.0130    6.9331 H   0  0  0  0  0  0  0  0  0  0  0  0
    9.8143    4.2782   10.0554 C   0  0  0  0  0  0  0  0  0  0  0  0
    9.8906    3.7664   10.8876 H   0  0  0  0  0  0  0  0  0  0  0  0
    8.9506    3.4459    9.1080 C   0  0  0  0  0  0  0  0  0  0  0  0
    8.7967    3.9381    8.2986 H   0  0  0  0  0  0  0  0  0  0  0  0
    9.4029    2.6241    8.9015 H   0  0  0  0  0  0  0  0  0  0  0  0
    8.1100    3.2506    9.5288 H   0  0  0  0  0  0  0  0  0  0  0  0
   11.1727    7.4025   10.9838 C   0  0  0  0  0  0  0  0  0  0  0  0
   10.9354    8.0321   10.2984 H   0  0  0  0  0  0  0  0  0  0  0  0
   11.6824    7.8481   11.6643 H   0  0  0  0  0  0  0  0  0  0  0  0
   11.6970    6.6958   10.6014 H   0  0  0  0  0  0  0  0  0  0  0  0
    9.0541    7.9302   12.1678 C   0  0  0  0  0  0  0  0  0  0  0  0
    8.2826    7.5525   12.5951 H   0  0  0  0  0  0  0  0  0  0  0  0
    9.5647    8.4291   12.8081 H   0  0  0  0  0  0  0  0  0  0  0  0
    8.7731    8.5134   11.4577 H   0  0  0  0  0  0  0  0  0  0  0  0
   11.2138    4.4366    9.5150 C   0  0  0  0  0  0  0  0  0  0  0  0
   11.7753    4.8270   10.1889 H   0  0  0  0  0  0  0  0  0  0  0  0
   11.5615    3.5755    9.2692 H   0  0  0  0  0  0  0  0  0  0  0  0
   11.1970    5.0065    8.7429 H   0  0  0  0  0  0  0  0  0  0  0  0
    5.3502    4.4181   13.7884 B   0  0  0  0  0  0  0  0  0  0  0  0
    4.4042    4.9559   13.6285 H   0  0  0  0  0  0  0  0  0  0  0  0
    7.9000    2.5090   14.2610 B   0  0  0  0  0  0  0  0  0  0  0  0
    8.7176    1.7938   14.4319 H   0  0  0  0  0  0  0  0  0  0  0  0
    7.9079    3.9659   15.1452 B   0  0  0  0  0  0  0  0  0  0  0  0
    8.7149    4.2077   15.8511 H   0  0  0  0  0  0  0  0  0  0  0  0
    5.5797    3.1798   12.9274 B   0  0  0  0  0  0  0  0  0  0  0  0
    4.8467    2.9213   12.1481 H   0  0  0  0  0  0  0  0  0  0  0  0
    6.3584    1.9414   13.8638 B   0  0  0  0  0  0  0  0  0  0  0  0
    6.1745    0.8651   13.7263 H   0  0  0  0  0  0  0  0  0  0  0  0
    7.1955    5.1996   14.1450 C   0  0  0  0  0  0  0  0  0  0  0  0
    7.5250    6.2470   14.2157 H   0  0  0  0  0  0  0  0  0  0  0  0
    6.1926    4.3720   15.4438 B   0  0  0  0  0  0  0  0  0  0  0  0
    5.8763    4.9526   16.3235 H   0  0  0  0  0  0  0  0  0  0  0  0
    8.0684    3.9982   13.4144 B   0  0  0  0  0  0  0  0  0  0  0  0
    9.0292    4.2499   12.9400 H   0  0  0  0  0  0  0  0  0  0  0  0
    7.1690    2.8690   12.6867 B   0  0  0  0  0  0  0  0  0  0  0  0
    7.5077    2.3997   11.7498 H   0  0  0  0  0  0  0  0  0  0  0  0
    5.2494    3.0352   14.6234 B   0  0  0  0  0  0  0  0  0  0  0  0
    4.2947    2.6771   15.0364 H   0  0  0  0  0  0  0  0  0  0  0  0
  1  2  1  0  0  0  0
  2  3  1  0  0  0  0
  3  6  1  0  0  0  0
  4  1  1  0  0  0  0
  5  1  1  0  0  0  0
  6  4  1  0  0  0  0
  7  2  1  0  0  0  0
  8  7  1  0  0  0  0
  9  6  1  0  0  0  0
 10  9  1  0  0  0  0
 11  2  1  0  0  0  0
 12 11  1  0  0  0  0
 13  9  1  0  0  0  0
 14 13  1  0  0  0  0
 15 11  1  0  0  0  0
 16 15  1  0  0  0  0
 17 15  1  0  0  0  0
 18 15  1  0  0  0  0
 19  7  1  0  0  0  0
 20 19  1  0  0  0  0
 21 19  1  0  0  0  0
 22 19  1  0  0  0  0
 23  7  1  0  0  0  0
 24 23  1  0  0  0  0
 25 23  1  0  0  0  0
 26 23  1  0  0  0  0
 27 11  1  0  0  0  0
 28 27  1  0  0  0  0
 29 27  1  0  0  0  0
 30 27  1  0  0  0  0
 31  5  1  0  0  0  0
 32 31  1  0  0  0  0
 33 34  1  0  0  0  0
 34 35  1  0  0  0  0
 35 96  1  0  0  0  0
 36 33  1  0  0  0  0
 37 36  1  0  0  0  0
 38  5  1  0  0  0  0
 39 38  1  0  0  0  0
 40 33  1  0  0  0  0
 41 40  1  0  0  0  0
 42  5  1  0  0  0  0
 43 42  1  0  0  0  0
 44 31  1  0  0  0  0
 45 44  1  0  0  0  0
 46  5  1  0  0  0  0
 47 46  1  0  0  0  0
 48  5  1  0  0  0  0
 49 48  1  0  0  0  0
 50 31  1  0  0  0  0
 51 50  1  0  0  0  0
 52 33  1  0  0  0  0
 53  1  1  0  0  0  0
 54 53  1  0  0  0  0
 55  4  1  0  0  0  0
 56 53  1  0  0  0  0
 57 56  1  0  0  0  0
 58 13  1  0  0  0  0
 59 58  1  0  0  0  0
 60 53  1  0  0  0  0
 61 60  1  0  0  0  0
 62 60  1  0  0  0  0
 63 62  1  0  0  0  0
 64 62  1  0  0  0  0
 65 62  1  0  0  0  0
 66 56  1  0  0  0  0
 67 66  1  0  0  0  0
 68 66  1  0  0  0  0
 69 66  1  0  0  0  0
 70 56  1  0  0  0  0
 71 70  1  0  0  0  0
 72 70  1  0  0  0  0
 73 70  1  0  0  0  0
 74 60  1  0  0  0  0
 75 74  1  0  0  0  0
 76 74  1  0  0  0  0
 77 74  1  0  0  0  0
 78  5  1  0  0  0  0
 79 46  1  0  0  0  0
 80 31  1  0  0  0  0
 81 50  1  0  0  0  0
 82 31  1  0  0  0  0
 83 82  1  0  0  0  0
 84  5  1  0  0  0  0
 85 48  1  0  0  0  0
 86 33  1  0  0  0  0
 87 40  1  0  0  0  0
 88  5  1  0  0  0  0
 89 88  1  0  0  0  0
 90 33  1  0  0  0  0
 91 90  1  0  0  0  0
 92  5  1  0  0  0  0
 93 31  1  0  0  0  0
 94  5  1  0  0  0  0
 95 38  1  0  0  0  0
 96 33  1  0  0  0  0
 97 34  1  0  0  0  0
 31 38  1  0  0  0  0
 31 42  1  0  0  0  0
 31 88  1  0  0  0  0
 31 92  1  0  0  0  0
 31 94  1  0  0  0  0
 32 92  1  0  0  0  0
 32 93  1  0  0  0  0
 33 44  1  0  0  0  0
 33 50  1  0  0  0  0
 33 80  1  0  0  0  0
 33 82  1  0  0  0  0
 34 36  1  0  0  0  0
 34 40  1  0  0  0  0
 34 46  1  0  0  0  0
 34 48  1  0  0  0  0
 34 78  1  0  0  0  0
 34 84  1  0  0  0  0
 34 86  1  0  0  0  0
 34 96  1  0  0  0  0
 35 97  1  0  0  0  0
 36 42  1  0  0  0  0
 36 44  1  0  0  0  0
 36 46  1  0  0  0  0
 36 78  1  0  0  0  0
 36 90  1  0  0  0  0
 36 96  1  0  0  0  0
 38 40  1  0  0  0  0
 38 48  1  0  0  0  0
 38 50  1  0  0  0  0
 38 80  1  0  0  0  0
 38 84  1  0  0  0  0
 38 86  1  0  0  0  0
 38 92  1  0  0  0  0
 38 94  1  0  0  0  0
 39 94  1  0  0  0  0
 39 95  1  0  0  0  0
 40 48  1  0  0  0  0
 40 50  1  0  0  0  0
 40 80  1  0  0  0  0
 40 84  1  0  0  0  0
 40 94  1  0  0  0  0
 41 86  1  0  0  0  0
 41 87  1  0  0  0  0
 42 44  1  0  0  0  0
 42 46  1  0  0  0  0
 42 78  1  0  0  0  0
 42 88  1  0  0  0  0
 42 90  1  0  0  0  0
 44 50  1  0  0  0  0
 44 82  1  0  0  0  0
 44 88  1  0  0  0  0
 44 90  1  0  0  0  0
 46 48  1  0  0  0  0
 46 78  1  0  0  0  0
 46 84  1  0  0  0  0
 46 96  1  0  0  0  0
 47 78  1  0  0  0  0
 47 79  1  0  0  0  0
 48 78  1  0  0  0  0
 48 84  1  0  0  0  0
 48 86  1  0  0  0  0
 48 94  1  0  0  0  0
 49 84  1  0  0  0  0
 49 85  1  0  0  0  0
 50 80  1  0  0  0  0
 50 82  1  0  0  0  0
 50 92  1  0  0  0  0
 51 80  1  0  0  0  0
 51 81  1  0  0  0  0
 54 55  1  0  0  0  0
 55 58  1  0  0  0  0
 78 79  1  0  0  0  0
 78 84  1  0  0  0  0
 78 88  1  0  0  0  0
 78 90  1  0  0  0  0
 78 96  1  0  0  0  0
 80 81  1  0  0  0  0
 80 82  1  0  0  0  0
 80 86  1  0  0  0  0
 80 92  1  0  0  0  0
 80 94  1  0  0  0  0
 82 88  1  0  0  0  0
 82 90  1  0  0  0  0
 82 92  1  0  0  0  0
 84 85  1  0  0  0  0
 84 86  1  0  0  0  0
 84 94  1  0  0  0  0
 84 96  1  0  0  0  0
 86 87  1  0  0  0  0
 86 94  1  0  0  0  0
 86 96  1  0  0  0  0
 88 90  1  0  0  0  0
 88 92  1  0  0  0  0
 90 96  1  0  0  0  0
 92 93  1  0  0  0  0
 92 94  1  0  0  0  0
 94 95  1  0  0  0  0
 96 97  1  0  0  0  0
M  END
$$$$
JOWDUX

From CSD data. Using bond type 'Any'. Matching problem. No disordered atoms. Largest molecule.
 97197  0  0  0  0  0  0  0  0999 V2000
    6.5704    5.5699   10.7549 Pt  0  0  0  0  0  0  0  0  0  0  0  0
    4.3199    5.7669   10.3770 P   0  0  0  0  0  0  0  0  0  0  0  0
    4.1887    6.6236    8.9756 O   0  0  0  0  0  0  0  0  0  0  0  0
    6.5704    6.6132    9.0250 C   0  0  0  0  0  0  0  0  0  0  0  0
    6.5704    4.4765   12.5809 C   0  0  0  0  0  0  0  0  0  0  0  0
    5.3956    6.9965    8.3965 C   0  0  0  0  0  0  0  0  0  0  0  0
    3.3154    6.7842   11.5131 C   0  0  0  0  0  0  0  0  0  0  0  0
    3.0401    6.2081   12.2573 H   0  0  0  0  0  0  0  0  0  0  0  0
    5.3627    7.7311    7.2213 C   0  0  0  0  0  0  0  0  0  0  0  0
    4.5543    7.9768    6.8324 H   0  0  0  0  0  0  0  0  0  0  0  0
    3.4100    4.2367    9.9561 C   0  0  0  0  0  0  0  0  0  0  0  0
    3.3158    3.7220   10.7845 H   0  0  0  0  0  0  0  0  0  0  0  0
    6.5704    8.0901    6.6436 C   0  0  0  0  0  0  0  0  0  0  0  0
    6.5704    8.5791    5.8529 H   0  0  0  0  0  0  0  0  0  0  0  0
    4.2773    3.4074    9.0103 C   0  0  0  0  0  0  0  0  0  0  0  0
    4.4216    3.8972    8.1970 H   0  0  0  0  0  0  0  0  0  0  0  0
    3.8331    2.5805    8.8115 H   0  0  0  0  0  0  0  0  0  0  0  0
    5.1222    3.2254    9.4280 H   0  0  0  0  0  0  0  0  0  0  0  0
    2.0605    7.3783   10.9134 C   0  0  0  0  0  0  0  0  0  0  0  0
    2.3011    8.0253   10.2459 H   0  0  0  0  0  0  0  0  0  0  0  0
    1.5479    7.8061   11.6031 H   0  0  0  0  0  0  0  0  0  0  0  0
    1.5373    6.6821   10.5103 H   0  0  0  0  0  0  0  0  0  0  0  0
    4.1669    7.8915   12.0877 C   0  0  0  0  0  0  0  0  0  0  0  0
    4.9430    7.5127   12.5086 H   0  0  0  0  0  0  0  0  0  0  0  0
    3.6589    8.3824   12.7374 H   0  0  0  0  0  0  0  0  0  0  0  0
    4.4421    8.4823   11.3831 H   0  0  0  0  0  0  0  0  0  0  0  0
    2.0197    4.4108    9.3801 C   0  0  0  0  0  0  0  0  0  0  0  0
    1.4405    4.7842   10.0492 H   0  0  0  0  0  0  0  0  0  0  0  0
    1.6787    3.5574    9.1028 H   0  0  0  0  0  0  0  0  0  0  0  0
    2.0573    5.0015    8.6244 H   0  0  0  0  0  0  0  0  0  0  0  0
    5.9895    5.1653   14.0257 C   0  0  0  0  0  0  0  0  0  0  0  0
    5.6539    6.2106   14.0887 H   0  0  0  0  0  0  0  0  0  0  0  0
    7.8161    4.4139   13.7099 B   0  0  0  0  0  0  0  0  0  0  0  0
    8.7542    4.9746   13.5849 H   0  0  0  0  0  0  0  0  0  0  0  0
    6.5704    2.6712   15.3694 B   0  0  0  0  0  0  0  0  0  0  0  0
    6.5704    2.0007   16.2222 H   0  0  0  0  0  0  0  0  0  0  0  0
    5.2918    2.5002   14.1377 B   0  0  0  0  0  0  0  0  0  0  0  0
    4.4689    1.7903   14.3122 H   0  0  0  0  0  0  0  0  0  0  0  0
    5.2681    3.9343   15.0220 B   0  0  0  0  0  0  0  0  0  0  0  0
    4.4562    4.1736   15.7255 H   0  0  0  0  0  0  0  0  0  0  0  0
    7.5901    3.1661   12.8256 B   0  0  0  0  0  0  0  0  0  0  0  0
    8.3244    2.9242   12.0429 H   0  0  0  0  0  0  0  0  0  0  0  0
    6.8187    1.9183   13.7530 B   0  0  0  0  0  0  0  0  0  0  0  0
    6.9912    0.8405   13.6142 H   0  0  0  0  0  0  0  0  0  0  0  0
    6.9803    4.3528   15.3407 B   0  0  0  0  0  0  0  0  0  0  0  0
    7.2870    4.9379   16.2195 H   0  0  0  0  0  0  0  0  0  0  0  0
    5.0986    3.9389   13.2849 B   0  0  0  0  0  0  0  0  0  0  0  0
    4.1361    4.1640   12.8038 H   0  0  0  0  0  0  0  0  0  0  0  0
    6.0171    2.8377   12.5700 B   0  0  0  0  0  0  0  0  0  0  0  0
    5.6860    2.3661   11.6336 H   0  0  0  0  0  0  0  0  0  0  0  0
    7.9383    2.9645   14.5109 B   0  0  0  0  0  0  0  0  0  0  0  0
    8.8893    2.5726   14.9013 H   0  0  0  0  0  0  0  0  0  0  0  0
    8.8208    5.7669   10.3770 P   0  0  0  0  0  0  0  0  0  0  0  0
    8.9520    6.6236    8.9756 O   0  0  0  0  0  0  0  0  0  0  0  0
    7.7451    6.9965    8.3965 C   0  0  0  0  0  0  0  0  0  0  0  0
    9.8253    6.7842   11.5131 C   0  0  0  0  0  0  0  0  0  0  0  0
   10.1006    6.2081   12.2573 H   0  0  0  0  0  0  0  0  0  0  0  0
    7.7780    7.7311    7.2213 C   0  0  0  0  0  0  0  0  0  0  0  0
    8.5864    7.9768    6.8324 H   0  0  0  0  0  0  0  0  0  0  0  0
    9.7307    4.2367    9.9561 C   0  0  0  0  0  0  0  0  0  0  0  0
    9.8249    3.7220   10.7845 H   0  0  0  0  0  0  0  0  0  0  0  0
    8.8634    3.4074    9.0103 C   0  0  0  0  0  0  0  0  0  0  0  0
    8.7191    3.8972    8.1970 H   0  0  0  0  0  0  0  0  0  0  0  0
    9.3076    2.5805    8.8115 H   0  0  0  0  0  0  0  0  0  0  0  0
    8.0185    3.2254    9.4280 H   0  0  0  0  0  0  0  0  0  0  0  0
   11.0802    7.3783   10.9134 C   0  0  0  0  0  0  0  0  0  0  0  0
   10.8396    8.0253   10.2459 H   0  0  0  0  0  0  0  0  0  0  0  0
   11.5928    7.8061   11.6031 H   0  0  0  0  0  0  0  0  0  0  0  0
   11.6034    6.6821   10.5103 H   0  0  0  0  0  0  0  0  0  0  0  0
    8.9738    7.8915   12.0877 C   0  0  0  0  0  0  0  0  0  0  0  0
    8.1977    7.5127   12.5086 H   0  0  0  0  0  0  0  0  0  0  0  0
    9.4818    8.3824   12.7374 H   0  0  0  0  0  0  0  0  0  0  0  0
    8.6986    8.4823   11.3831 H   0  0  0  0  0  0  0  0  0  0  0  0
   11.1210    4.4108    9.3801 C   0  0  0  0  0  0  0  0  0  0  0  0
   11.7002    4.7842   10.0492 H   0  0  0  0  0  0  0  0  0  0  0  0
   11.4620    3.5574    9.1028 H   0  0  0  0  0  0  0  0  0  0  0  0
   11.0834    5.0015    8.6244 H   0  0  0  0  0  0  0  0  0  0  0  0
    7.1512    5.1653   14.0257 C   0  0  0  0  0  0  0  0  0  0  0  0
    7.4868    6.2106   14.0887 H   0  0  0  0  0  0  0  0  0  0  0  0
    5.3246    4.4139   13.7099 B   0  0  0  0  0  0  0  0  0  0  0  0
    4.3865    4.9746   13.5849 H   0  0  0  0  0  0  0  0  0  0  0  0
    7.8489    2.5002   14.1377 B   0  0  0  0  0  0  0  0  0  0  0  0
    8.6718    1.7903   14.3122 H   0  0  0  0  0  0  0  0  0  0  0  0
    7.8726    3.9343   15.0220 B   0  0  0  0  0  0  0  0  0  0  0  0
    8.6845    4.1736   15.7255 H   0  0  0  0  0  0  0  0  0  0  0  0
    5.5506    3.1661   12.8256 B   0  0  0  0  0  0  0  0  0  0  0  0
    4.8163    2.9242   12.0429 H   0  0  0  0  0  0  0  0  0  0  0  0
    6.3220    1.9183   13.7530 B   0  0  0  0  0  0  0  0  0  0  0  0
    6.1495    0.8405   13.6142 H   0  0  0  0  0  0  0  0  0  0  0  0
    6.1604    4.3528   15.3407 B   0  0  0  0  0  0  0  0  0  0  0  0
    5.8537    4.9379   16.2195 H   0  0  0  0  0  0  0  0  0  0  0  0
    8.0421    3.9389   13.2849 B   0  0  0  0  0  0  0  0  0  0  0  0
    9.0046    4.1640   12.8038 H   0  0  0  0  0  0  0  0  0  0  0  0
    7.1236    2.8377   12.5700 B   0  0  0  0  0  0  0  0  0  0  0  0
    7.4547    2.3661   11.6336 H   0  0  0  0  0  0  0  0  0  0  0  0
    5.2024    2.9645   14.5109 B   0  0  0  0  0  0  0  0  0  0  0  0
    4.2514    2.5726   14.9013 H   0  0  0  0  0  0  0  0  0  0  0  0
  1  2  1  0  0  0  0
  2  3  1  0  0  0  0
  3  6  1  0  0  0  0
  4  1  1  0  0  0  0
  5  1  1  0  0  0  0
  6  4  1  0  0  0  0
  7  2  1  0  0  0  0
  8  7  1  0  0  0  0
  9  6  1  0  0  0  0
 10  9  1  0  0  0  0
 11  2  1  0  0  0  0
 12 11  1  0  0  0  0
 13  9  1  0  0  0  0
 14 13  1  0  0  0  0
 15 11  1  0  0  0  0
 16 15  1  0  0  0  0
 17 15  1  0  0  0  0
 18 15  1  0  0  0  0
 19  7  1  0  0  0  0
 20 19  1  0  0  0  0
 21 19  1  0  0  0  0
 22 19  1  0  0  0  0
 23  7  1  0  0  0  0
 24 23  1  0  0  0  0
 25 23  1  0  0  0  0
 26 23  1  0  0  0  0
 27 11  1  0  0  0  0
 28 27  1  0  0  0  0
 29 27  1  0  0  0  0
 30 27  1  0  0  0  0
 31  5  1  0  0  0  0
 32 31  1  0  0  0  0
 33  5  1  0  0  0  0
 34 33  1  0  0  0  0
 35 36  1  0  0  0  0
 37 35  1  0  0  0  0
 38 37  1  0  0  0  0
 39 31  1  0  0  0  0
 40 39  1  0  0  0  0
 41  5  1  0  0  0  0
 42 41  1  0  0  0  0
 43 35  1  0  0  0  0
 44 43  1  0  0  0  0
 45 31  1  0  0  0  0
 46 45  1  0  0  0  0
 47  5  1  0  0  0  0
 48 47  1  0  0  0  0
 49  5  1  0  0  0  0
 50 49  1  0  0  0  0
 51 33  1  0  0  0  0
 52 51  1  0  0  0  0
 53  1  1  0  0  0  0
 54 53  1  0  0  0  0
 55  4  1  0  0  0  0
 56 53  1  0  0  0  0
 57 56  1  0  0  0  0
 58 13  1  0  0  0  0
 59 58  1  0  0  0  0
 60 53  1  0  0  0  0
 61 60  1  0  0  0  0
 62 60  1  0  0  0  0
 63 62  1  0  0  0  0
 64 62  1  0  0  0  0
 65 62  1  0  0  0  0
 66 56  1  0  0  0  0
 67 66  1  0  0  0  0
 68 66  1  0  0  0  0
 69 66  1  0  0  0  0
 70 56  1  0  0  0  0
 71 70  1  0  0  0  0
 72 70  1  0  0  0  0
 73 70  1  0  0  0  0
 74 60  1  0  0  0  0
 75 74  1  0  0  0  0
 76 74  1  0  0  0  0
 77 74  1  0  0  0  0
 78  5  1  0  0  0  0
 79 78  1  0  0  0  0
 80  5  1  0  0  0  0
 81 47  1  0  0  0  0
 82 33  1  0  0  0  0
 83 51  1  0  0  0  0
 84 33  1  0  0  0  0
 85 84  1  0  0  0  0
 86  5  1  0  0  0  0
 87 49  1  0  0  0  0
 88 35  1  0  0  0  0
 89 43  1  0  0  0  0
 90 31  1  0  0  0  0
 91 90  1  0  0  0  0
 92  5  1  0  0  0  0
 93 34  1  0  0  0  0
 94  5  1  0  0  0  0
 95 41  1  0  0  0  0
 96 35  1  0  0  0  0
 97 37  1  0  0  0  0
 31 33  1  0  0  0  0
 31 47  1  0  0  0  0
 31 78  1  0  0  0  0
 31 80  1  0  0  0  0
 33 41  1  0  0  0  0
 33 45  1  0  0  0  0
 33 78  1  0  0  0  0
 33 92  1  0  0  0  0
 33 94  1  0  0  0  0
 34 92  1  0  0  0  0
 35 39  1  0  0  0  0
 35 45  1  0  0  0  0
 35 51  1  0  0  0  0
 35 82  1  0  0  0  0
 35 84  1  0  0  0  0
 35 90  1  0  0  0  0
 37 39  1  0  0  0  0
 37 43  1  0  0  0  0
 37 47  1  0  0  0  0
 37 49  1  0  0  0  0
 37 80  1  0  0  0  0
 37 86  1  0  0  0  0
 37 88  1  0  0  0  0
 37 96  1  0  0  0  0
 38 96  1  0  0  0  0
 38 97  1  0  0  0  0
 39 45  1  0  0  0  0
 39 47  1  0  0  0  0
 39 80  1  0  0  0  0
 39 90  1  0  0  0  0
 39 96  1  0  0  0  0
 41 43  1  0  0  0  0
 41 49  1  0  0  0  0
 41 51  1  0  0  0  0
 41 82  1  0  0  0  0
 41 86  1  0  0  0  0
 41 88  1  0  0  0  0
 41 92  1  0  0  0  0
 41 94  1  0  0  0  0
 42 94  1  0  0  0  0
 42 95  1  0  0  0  0
 43 49  1  0  0  0  0
 43 51  1  0  0  0  0
 43 82  1  0  0  0  0
 43 86  1  0  0  0  0
 43 94  1  0  0  0  0
 43 96  1  0  0  0  0
 44 88  1  0  0  0  0
 44 89  1  0  0  0  0
 45 51  1  0  0  0  0
 45 78  1  0  0  0  0
 45 84  1  0  0  0  0
 45 90  1  0  0  0  0
 47 49  1  0  0  0  0
 47 80  1  0  0  0  0
 47 86  1  0  0  0  0
 47 96  1  0  0  0  0
 48 81  1  0  0  0  0
 49 80  1  0  0  0  0
 49 86  1  0  0  0  0
 49 88  1  0  0  0  0
 49 94  1  0  0  0  0
 49 96  1  0  0  0  0
 50 86  1  0  0  0  0
 50 87  1  0  0  0  0
 51 82  1  0  0  0  0
 51 84  1  0  0  0  0
 51 88  1  0  0  0  0
 51 92  1  0  0  0  0
 51 94  1  0  0  0  0
 52 82  1  0  0  0  0
 52 83  1  0  0  0  0
 54 55  1  0  0  0  0
 55 58  1  0  0  0  0
 78 80  1  0  0  0  0
 78 84  1  0  0  0  0
 78 90  1  0  0  0  0
 78 92  1  0  0  0  0
 80 81  1  0  0  0  0
 80 86  1  0  0  0  0
 80 90  1  0  0  0  0
 80 96  1  0  0  0  0
 82 83  1  0  0  0  0
 82 84  1  0  0  0  0
 82 88  1  0  0  0  0
 82 92  1  0  0  0  0
 82 94  1  0  0  0  0
 84 90  1  0  0  0  0
 84 92  1  0  0  0  0
 86 87  1  0  0  0  0
 86 88  1  0  0  0  0
 86 94  1  0  0  0  0
 86 96  1  0  0  0  0
 88 89  1  0  0  0  0
 88 94  1  0  0  0  0
 88 96  1  0  0  0  0
 90 96  1  0  0  0  0
 92 93  1  0  0  0  0
 92 94  1  0  0  0  0
 94 95  1  0  0  0  0
 96 97  1  0  0  0  0
M  END
$$$$
JOWFAF

From CSD data. Using bond type 'Any'. No disordered atoms. Largest molecule.
132156  0  0  0  0  0  0  0  0999 V2000
   12.2272   12.1551   11.2462 Ni  0  0  0  0  0  0  0  0  0  0  0  0
   14.0930   11.7970   12.2683 P   0  0  0  0  0  0  0  0  0  0  0  0
   10.7317   12.7422    9.7876 P   0  0  0  0  0  0  0  0  0  0  0  0
   10.7287   11.7408   12.8003 S   0  0  0  0  0  0  0  0  0  0  0  0
   15.2651   12.5047   11.3486 O   0  0  0  0  0  0  0  0  0  0  0  0
   11.5015   13.7752    8.7604 O   0  0  0  0  0  0  0  0  0  0  0  0
   10.1260    9.9775   12.9135 C   0  0  0  0  0  0  0  0  0  0  0  0
   13.3555   13.0940   10.0741 C   0  0  0  0  0  0  0  0  0  0  0  0
   15.5673   13.9389    9.4659 C   0  0  0  0  0  0  0  0  0  0  0  0
   16.4833   13.9697    9.6243 H   0  0  0  0  0  0  0  0  0  0  0  0
   14.7262   13.1906   10.2650 C   0  0  0  0  0  0  0  0  0  0  0  0
   12.8730   13.8298    9.0009 C   0  0  0  0  0  0  0  0  0  0  0  0
   15.0003   14.6358    8.4316 C   0  0  0  0  0  0  0  0  0  0  0  0
   15.5459   15.1522    7.8829 H   0  0  0  0  0  0  0  0  0  0  0  0
   14.6886   10.0789   12.3954 C   0  0  0  0  0  0  0  0  0  0  0  0
   14.0603    9.5958   12.9718 H   0  0  0  0  0  0  0  0  0  0  0  0
   13.6597   14.5937    8.1841 C   0  0  0  0  0  0  0  0  0  0  0  0
   13.2911   15.0721    7.4762 H   0  0  0  0  0  0  0  0  0  0  0  0
   14.4051   12.6341   13.8629 C   0  0  0  0  0  0  0  0  0  0  0  0
   15.3767   12.6637   13.9938 H   0  0  0  0  0  0  0  0  0  0  0  0
   14.6248    9.4397   11.0252 C   0  0  0  0  0  0  0  0  0  0  0  0
   13.7198    9.4581   10.7055 H   0  0  0  0  0  0  0  0  0  0  0  0
   14.9251    8.5295   11.0832 H   0  0  0  0  0  0  0  0  0  0  0  0
   15.1887    9.9249   10.4191 H   0  0  0  0  0  0  0  0  0  0  0  0
    9.7261    9.4537   14.5117 B   0  0  0  0  0  0  0  0  0  0  0  0
   10.0336    9.9815   15.4278 H   0  0  0  0  0  0  0  0  0  0  0  0
   10.2011   11.3354    8.6331 C   0  0  0  0  0  0  0  0  0  0  0  0
    9.5231   10.7480    9.0279 H   0  0  0  0  0  0  0  0  0  0  0  0
   13.9226   14.0559   13.7603 C   0  0  0  0  0  0  0  0  0  0  0  0
   14.3463   14.4854   13.0147 H   0  0  0  0  0  0  0  0  0  0  0  0
   14.1397   14.5270   14.5681 H   0  0  0  0  0  0  0  0  0  0  0  0
   12.9701   14.0612   13.6340 H   0  0  0  0  0  0  0  0  0  0  0  0
   16.0724    9.9510   13.0266 C   0  0  0  0  0  0  0  0  0  0  0  0
   16.7209   10.3844   12.4660 H   0  0  0  0  0  0  0  0  0  0  0  0
   16.2980    9.0231   13.1183 H   0  0  0  0  0  0  0  0  0  0  0  0
   16.0694   10.3673   13.8918 H   0  0  0  0  0  0  0  0  0  0  0  0
   10.5804    8.7880   11.8562 B   0  0  0  0  0  0  0  0  0  0  0  0
   11.2748    8.9110   11.0119 H   0  0  0  0  0  0  0  0  0  0  0  0
   13.8099   11.9185   15.0545 C   0  0  0  0  0  0  0  0  0  0  0  0
   12.8578   11.8596   14.9496 H   0  0  0  0  0  0  0  0  0  0  0  0
   14.0138   12.4069   15.8561 H   0  0  0  0  0  0  0  0  0  0  0  0
   14.1808   11.0352   15.1158 H   0  0  0  0  0  0  0  0  0  0  0  0
   10.9972    8.6914   13.5446 B   0  0  0  0  0  0  0  0  0  0  0  0
   12.0505    8.7266   13.8581 H   0  0  0  0  0  0  0  0  0  0  0  0
   11.4460   10.5746    8.1416 C   0  0  0  0  0  0  0  0  0  0  0  0
   11.1733    9.7968    7.6494 H   0  0  0  0  0  0  0  0  0  0  0  0
   11.9766   10.3067    8.8954 H   0  0  0  0  0  0  0  0  0  0  0  0
   11.9666   11.1467    7.5718 H   0  0  0  0  0  0  0  0  0  0  0  0
    9.7561    7.7139   14.4092 B   0  0  0  0  0  0  0  0  0  0  0  0
   10.0711    6.9825   15.1680 H   0  0  0  0  0  0  0  0  0  0  0  0
    9.8124   11.8530    7.2364 C   0  0  0  0  0  0  0  0  0  0  0  0
   10.5564   12.3243    6.8519 H   0  0  0  0  0  0  0  0  0  0  0  0
    9.0631   12.4480    7.3128 H   0  0  0  0  0  0  0  0  0  0  0  0
    9.5782   11.1124    6.6735 H   0  0  0  0  0  0  0  0  0  0  0  0
    9.9514   14.7730   11.2958 C   0  0  0  0  0  0  0  0  0  0  0  0
    9.1995   14.9297   11.8728 H   0  0  0  0  0  0  0  0  0  0  0  0
   10.3450   15.6119   11.0481 H   0  0  0  0  0  0  0  0  0  0  0  0
   10.6012   14.2372   11.7568 H   0  0  0  0  0  0  0  0  0  0  0  0
    9.4632   14.0044    9.9821 C   0  0  0  0  0  0  0  0  0  0  0  0
    9.3908   14.5935    9.2026 H   0  0  0  0  0  0  0  0  0  0  0  0
    8.0606   13.3621   10.4029 C   0  0  0  0  0  0  0  0  0  0  0  0
    7.4095   14.0586   10.5149 H   0  0  0  0  0  0  0  0  0  0  0  0
    8.1624   12.8838   11.2296 H   0  0  0  0  0  0  0  0  0  0  0  0
    7.7668   12.7567    9.7180 H   0  0  0  0  0  0  0  0  0  0  0  0
   10.2875    7.3132   12.7738 B   0  0  0  0  0  0  0  0  0  0  0  0
   10.8752    6.4531   12.4198 H   0  0  0  0  0  0  0  0  0  0  0  0
    8.0475   11.7408   13.7197 S   0  0  0  0  0  0  0  0  0  0  0  0
    8.6502    9.9775   13.6065 C   0  0  0  0  0  0  0  0  0  0  0  0
    9.0501    9.4537   12.0083 B   0  0  0  0  0  0  0  0  0  0  0  0
    8.7426    9.9815   11.0922 H   0  0  0  0  0  0  0  0  0  0  0  0
    8.1958    8.7880   14.6638 B   0  0  0  0  0  0  0  0  0  0  0  0
    7.5014    8.9110   15.5081 H   0  0  0  0  0  0  0  0  0  0  0  0
    7.7790    8.6914   12.9754 B   0  0  0  0  0  0  0  0  0  0  0  0
    6.7257    8.7266   12.6619 H   0  0  0  0  0  0  0  0  0  0  0  0
    9.0201    7.7139   12.1108 B   0  0  0  0  0  0  0  0  0  0  0  0
    8.7051    6.9825   11.3520 H   0  0  0  0  0  0  0  0  0  0  0  0
    8.4887    7.3132   13.7462 B   0  0  0  0  0  0  0  0  0  0  0  0
    7.9010    6.4531   14.1002 H   0  0  0  0  0  0  0  0  0  0  0  0
    6.5490   12.1551   15.2738 Ni  0  0  0  0  0  0  0  0  0  0  0  0
    4.6832   11.7970   14.2517 P   0  0  0  0  0  0  0  0  0  0  0  0
    8.0445   12.7422   16.7324 P   0  0  0  0  0  0  0  0  0  0  0  0
    3.5111   12.5047   15.1714 O   0  0  0  0  0  0  0  0  0  0  0  0
    7.2747   13.7752   17.7596 O   0  0  0  0  0  0  0  0  0  0  0  0
    5.4207   13.0940   16.4459 C   0  0  0  0  0  0  0  0  0  0  0  0
    3.2089   13.9389   17.0541 C   0  0  0  0  0  0  0  0  0  0  0  0
    2.2929   13.9697   16.8957 H   0  0  0  0  0  0  0  0  0  0  0  0
    4.0500   13.1906   16.2550 C   0  0  0  0  0  0  0  0  0  0  0  0
    5.9032   13.8298   17.5191 C   0  0  0  0  0  0  0  0  0  0  0  0
    3.7759   14.6358   18.0884 C   0  0  0  0  0  0  0  0  0  0  0  0
    3.2303   15.1522   18.6371 H   0  0  0  0  0  0  0  0  0  0  0  0
    4.0876   10.0789   14.1246 C   0  0  0  0  0  0  0  0  0  0  0  0
    4.7159    9.5958   13.5482 H   0  0  0  0  0  0  0  0  0  0  0  0
    5.1165   14.5937   18.3359 C   0  0  0  0  0  0  0  0  0  0  0  0
    5.4851   15.0721   19.0438 H   0  0  0  0  0  0  0  0  0  0  0  0
    4.3711   12.6341   12.6571 C   0  0  0  0  0  0  0  0  0  0  0  0
    3.3995   12.6637   12.5262 H   0  0  0  0  0  0  0  0  0  0  0  0
    4.1514    9.4397   15.4948 C   0  0  0  0  0  0  0  0  0  0  0  0
    5.0564    9.4581   15.8145 H   0  0  0  0  0  0  0  0  0  0  0  0
    3.8511    8.5295   15.4368 H   0  0  0  0  0  0  0  0  0  0  0  0
    3.5875    9.9249   16.1009 H   0  0  0  0  0  0  0  0  0  0  0  0
    8.5751   11.3354   17.8869 C   0  0  0  0  0  0  0  0  0  0  0  0
    9.2531   10.7480   17.4921 H   0  0  0  0  0  0  0  0  0  0  0  0
    4.8536   14.0559   12.7597 C   0  0  0  0  0  0  0  0  0  0  0  0
    4.4299   14.4854   13.5053 H   0  0  0  0  0  0  0  0  0  0  0  0
    4.6365   14.5270   11.9519 H   0  0  0  0  0  0  0  0  0  0  0  0
    5.8061   14.0612   12.8860 H   0  0  0  0  0  0  0  0  0  0  0  0
    2.7038    9.9510   13.4934 C   0  0  0  0  0  0  0  0  0  0  0  0
    2.0553   10.3844   14.0540 H   0  0  0  0  0  0  0  0  0  0  0  0
    2.4782    9.0231   13.4017 H   0  0  0  0  0  0  0  0  0  0  0  0
    2.7068   10.3673   12.6282 H   0  0  0  0  0  0  0  0  0  0  0  0
    4.9663   11.9185   11.4655 C   0  0  0  0  0  0  0  0  0  0  0  0
    5.9184   11.8596   11.5704 H   0  0  0  0  0  0  0  0  0  0  0  0
    4.7624   12.4069   10.6639 H   0  0  0  0  0  0  0  0  0  0  0  0
    4.5954   11.0352   11.4042 H   0  0  0  0  0  0  0  0  0  0  0  0
    7.3302   10.5746   18.3784 C   0  0  0  0  0  0  0  0  0  0  0  0
    7.6029    9.7968   18.8706 H   0  0  0  0  0  0  0  0  0  0  0  0
    6.7996   10.3067   17.6246 H   0  0  0  0  0  0  0  0  0  0  0  0
    6.8096   11.1467   18.9482 H   0  0  0  0  0  0  0  0  0  0  0  0
    8.9638   11.8530   19.2836 C   0  0  0  0  0  0  0  0  0  0  0  0
    8.2198   12.3243   19.6681 H   0  0  0  0  0  0  0  0  0  0  0  0
    9.7131   12.4480   19.2072 H   0  0  0  0  0  0  0  0  0  0  0  0
    9.1980   11.1124   19.8465 H   0  0  0  0  0  0  0  0  0  0  0  0
    8.8248   14.7730   15.2242 C   0  0  0  0  0  0  0  0  0  0  0  0
    9.5767   14.9297   14.6472 H   0  0  0  0  0  0  0  0  0  0  0  0
    8.4312   15.6119   15.4719 H   0  0  0  0  0  0  0  0  0  0  0  0
    8.1750   14.2372   14.7632 H   0  0  0  0  0  0  0  0  0  0  0  0
    9.3130   14.0044   16.5379 C   0  0  0  0  0  0  0  0  0  0  0  0
    9.3854   14.5935   17.3174 H   0  0  0  0  0  0  0  0  0  0  0  0
   10.7156   13.3621   16.1171 C   0  0  0  0  0  0  0  0  0  0  0  0
   11.3667   14.0586   16.0051 H   0  0  0  0  0  0  0  0  0  0  0  0
   10.6138   12.8838   15.2904 H   0  0  0  0  0  0  0  0  0  0  0  0
   11.0094   12.7567   16.8020 H   0  0  0  0  0  0  0  0  0  0  0  0
  1  2  1  0  0  0  0
  2  5  1  0  0  0  0
  3  1  1  0  0  0  0
  4  1  1  0  0  0  0
  5 11  1  0  0  0  0
  6  3  1  0  0  0  0
  7  4  1  0  0  0  0
  8  1  1  0  0  0  0
  9 10  1  0  0  0  0
 11  8  4  0  0  0  0
 12  6  1  0  0  0  0
 13  9  4  0  0  0  0
 14 13  1  0  0  0  0
 15  2  1  0  0  0  0
 16 15  1  0  0  0  0
 17 12  4  0  0  0  0
 18 17  1  0  0  0  0
 19  2  1  0  0  0  0
 20 19  1  0  0  0  0
 21 15  1  0  0  0  0
 22 21  1  0  0  0  0
 23 21  1  0  0  0  0
 24 21  1  0  0  0  0
 25  7  1  0  0  0  0
 26 25  1  0  0  0  0
 27  3  1  0  0  0  0
 28 27  1  0  0  0  0
 29 19  1  0  0  0  0
 30 29  1  0  0  0  0
 31 29  1  0  0  0  0
 32 29  1  0  0  0  0
 33 15  1  0  0  0  0
 34 33  1  0  0  0  0
 35 33  1  0  0  0  0
 36 33  1  0  0  0  0
 37  7  1  0  0  0  0
 38 37  1  0  0  0  0
 39 19  1  0  0  0  0
 40 39  1  0  0  0  0
 41 39  1  0  0  0  0
 42 39  1  0  0  0  0
 43  7  1  0  0  0  0
 44 43  1  0  0  0  0
 45 27  1  0  0  0  0
 46 45  1  0  0  0  0
 47 45  1  0  0  0  0
 48 45  1  0  0  0  0
 49 25  1  0  0  0  0
 50 49  1  0  0  0  0
 51 27  1  0  0  0  0
 52 51  1  0  0  0  0
 53 51  1  0  0  0  0
 54 51  1  0  0  0  0
 55 56  1  0  0  0  0
 57 55  1  0  0  0  0
 58 55  1  0  0  0  0
 59  3  1  0  0  0  0
 60 59  1  0  0  0  0
 61 59  1  0  0  0  0
 62 61  1  0  0  0  0
 63 61  1  0  0  0  0
 64 61  1  0  0  0  0
 65 37  1  0  0  0  0
 66 65  1  0  0  0  0
 67 68  1  0  0  0  0
 68  7  1  0  0  0  0
 69  7  1  0  0  0  0
 70 69  1  0  0  0  0
 71 25  1  0  0  0  0
 72 71  1  0  0  0  0
 73 68  1  0  0  0  0
 74 73  1  0  0  0  0
 75 37  1  0  0  0  0
 76 75  1  0  0  0  0
 77 49  1  0  0  0  0
 78 77  1  0  0  0  0
 79 67  1  0  0  0  0
 80 79  1  0  0  0  0
 81 79  1  0  0  0  0
 82 80  1  0  0  0  0
 83 81  1  0  0  0  0
 84 79  1  0  0  0  0
 85 86  1  0  0  0  0
 87 82  1  0  0  0  0
 88 83  1  0  0  0  0
 89 85  4  0  0  0  0
 90 89  1  0  0  0  0
 91 80  1  0  0  0  0
 92 91  1  0  0  0  0
 93 88  4  0  0  0  0
 94 93  1  0  0  0  0
 95 80  1  0  0  0  0
 96 95  1  0  0  0  0
 97 91  1  0  0  0  0
 98 97  1  0  0  0  0
 99 97  1  0  0  0  0
100 97  1  0  0  0  0
101 81  1  0  0  0  0
102101  1  0  0  0  0
103 95  1  0  0  0  0
104103  1  0  0  0  0
105103  1  0  0  0  0
106103  1  0  0  0  0
107 91  1  0  0  0  0
108107  1  0  0  0  0
109107  1  0  0  0  0
110107  1  0  0  0  0
111 95  1  0  0  0  0
112111  1  0  0  0  0
113111  1  0  0  0  0
114111  1  0  0  0  0
115101  1  0  0  0  0
116115  1  0  0  0  0
117115  1  0  0  0  0
118115  1  0  0  0  0
119101  1  0  0  0  0
120119  1  0  0  0  0
121119  1  0  0  0  0
122119  1  0  0  0  0
123124  1  0  0  0  0
125123  1  0  0  0  0
126123  1  0  0  0  0
127 81  1  0  0  0  0
128127  1  0  0  0  0
129127  1  0  0  0  0
130129  1  0  0  0  0
131129  1  0  0  0  0
132129  1  0  0  0  0
  8 12  4  0  0  0  0
  9 11  4  0  0  0  0
 13 17  4  0  0  0  0
 25 43  1  0  0  0  0
 25 68  1  0  0  0  0
 37 43  1  0  0  0  0
 37 69  1  0  0  0  0
 43 49  1  0  0  0  0
 43 65  1  0  0  0  0
 49 65  1  0  0  0  0
 49 71  1  0  0  0  0
 55 59  1  0  0  0  0
 65 75  1  0  0  0  0
 65 77  1  0  0  0  0
 68 69  1  0  0  0  0
 68 71  1  0  0  0  0
 69 73  1  0  0  0  0
 69 75  1  0  0  0  0
 71 73  1  0  0  0  0
 71 77  1  0  0  0  0
 73 75  1  0  0  0  0
 73 77  1  0  0  0  0
 75 77  1  0  0  0  0
 84 87  4  0  0  0  0
 84 88  4  0  0  0  0
 85 87  4  0  0  0  0
 89 93  4  0  0  0  0
123127  1  0  0  0  0
M  END
$$$$
JUGKAZ

From CSD data. Using bond type 'Any'. No disordered atoms. Largest molecule.
264308  0  0  0  0  0  0  0  0999 V2000
    1.1389   -0.4181    1.9809 Rh  0  0  0  0  0  0  0  0  0  0  0  0
    1.7613    0.5292    5.3901 Rh  0  0  0  0  0  0  0  0  0  0  0  0
    1.9374   -0.5902    7.3037 P   0  0  0  0  0  0  0  0  0  0  0  0
    0.9786    0.6949    0.0486 P   0  0  0  0  0  0  0  0  0  0  0  0
    1.4097   -1.4748    4.1017 Cl  0  0  0  0  0  0  0  0  0  0  0  0
    1.4151    1.5989    3.2816 Cl  0  0  0  0  0  0  0  0  0  0  0  0
    2.2460    3.0759    6.7826 O   0  0  0  0  0  0  0  0  0  0  0  0
    0.7701   -3.0057    0.6399 O   0  0  0  0  0  0  0  0  0  0  0  0
    2.0589    2.0576    6.2332 C   0  0  0  0  0  0  0  0  0  0  0  0
    2.7774   -2.2085    6.9772 C   0  0  0  0  0  0  0  0  0  0  0  0
    2.1862   -2.6890    6.3313 H   0  0  0  0  0  0  0  0  0  0  0  0
    4.1216   -1.9467    6.2060 C   0  0  0  0  0  0  0  0  0  0  0  0
    4.4409   -2.7845    5.8106 H   0  0  0  0  0  0  0  0  0  0  0  0
    4.7947   -1.6017    6.8293 H   0  0  0  0  0  0  0  0  0  0  0  0
    3.9682   -1.2875    5.4967 H   0  0  0  0  0  0  0  0  0  0  0  0
    3.0488   -3.2034    8.1062 C   0  0  0  0  0  0  0  0  0  0  0  0
    3.2508   -4.0813    7.7243 H   0  0  0  0  0  0  0  0  0  0  0  0
    2.2571   -3.2712    8.6797 H   0  0  0  0  0  0  0  0  0  0  0  0
    3.8123   -2.8954    8.6374 H   0  0  0  0  0  0  0  0  0  0  0  0
    2.7185    0.2772    8.7400 C   0  0  0  0  0  0  0  0  0  0  0  0
    2.1382    1.0657    8.9483 H   0  0  0  0  0  0  0  0  0  0  0  0
    4.0990    0.8409    8.3612 C   0  0  0  0  0  0  0  0  0  0  0  0
    4.4090    1.4477    9.0660 H   0  0  0  0  0  0  0  0  0  0  0  0
    4.0319    1.3306    7.5145 H   0  0  0  0  0  0  0  0  0  0  0  0
    4.7366    0.1016    8.2631 H   0  0  0  0  0  0  0  0  0  0  0  0
    2.8687   -0.5175   10.0531 C   0  0  0  0  0  0  0  0  0  0  0  0
    3.0457    0.1016   10.7926 H   0  0  0  0  0  0  0  0  0  0  0  0
    3.6145   -1.1489    9.9686 H   0  0  0  0  0  0  0  0  0  0  0  0
    2.0415   -1.0134   10.2312 H   0  0  0  0  0  0  0  0  0  0  0  0
    0.1766   -1.0195    7.8798 C   0  0  0  0  0  0  0  0  0  0  0  0
   -1.0858    0.2279    7.8949 C   0  0  0  0  0  0  0  0  0  0  0  0
   -0.8518    1.6972    7.6413 C   0  0  0  0  0  0  0  0  0  0  0  0
   -0.6809    2.5535    8.7144 C   0  0  0  0  0  0  0  0  0  0  0  0
   -0.5098    2.1900    9.5747 H   0  0  0  0  0  0  0  0  0  0  0  0
   -0.7534    3.9365    8.5574 C   0  0  0  0  0  0  0  0  0  0  0  0
   -0.9678    4.4540    7.2670 C   0  0  0  0  0  0  0  0  0  0  0  0
   -1.0067    5.3965    7.1418 H   0  0  0  0  0  0  0  0  0  0  0  0
   -1.1247    3.6069    6.1592 C   0  0  0  0  0  0  0  0  0  0  0  0
   -1.0288    2.2239    6.3554 C   0  0  0  0  0  0  0  0  0  0  0  0
   -1.0846    1.6356    5.6114 H   0  0  0  0  0  0  0  0  0  0  0  0
   -0.7343    4.8482    9.7467 C   0  0  0  0  0  0  0  0  0  0  0  0
    0.4685    5.1932   10.3715 C   0  0  0  0  0  0  0  0  0  0  0  0
    0.4313    6.0434   11.5035 C   0  0  0  0  0  0  0  0  0  0  0  0
    1.2488    6.3082   11.9095 H   0  0  0  0  0  0  0  0  0  0  0  0
   -0.7487    6.4931   12.0287 C   0  0  0  0  0  0  0  0  0  0  0  0
   -1.9379    6.1481   11.3873 C   0  0  0  0  0  0  0  0  0  0  0  0
   -2.7600    6.4777   11.7329 H   0  0  0  0  0  0  0  0  0  0  0  0
   -1.9584    5.3380   10.2523 C   0  0  0  0  0  0  0  0  0  0  0  0
    1.7809    4.7527    9.7860 C   0  0  0  0  0  0  0  0  0  0  0  0
    1.6194    3.8718    9.3407 H   0  0  0  0  0  0  0  0  0  0  0  0
    2.8710    4.5310   10.8228 C   0  0  0  0  0  0  0  0  0  0  0  0
    2.5268    3.9581   11.5397 H   0  0  0  0  0  0  0  0  0  0  0  0
    3.1477    5.3934   11.1971 H   0  0  0  0  0  0  0  0  0  0  0  0
    3.6407    4.0967   10.4002 H   0  0  0  0  0  0  0  0  0  0  0  0
    2.2861    5.7045    8.7129 C   0  0  0  0  0  0  0  0  0  0  0  0
    1.5879    5.8339    8.0367 H   0  0  0  0  0  0  0  0  0  0  0  0
    3.0841    5.3257    8.2903 H   0  0  0  0  0  0  0  0  0  0  0  0
    2.5106    6.5670    9.1204 H   0  0  0  0  0  0  0  0  0  0  0  0
   -0.8452    7.3740   13.2783 C   0  0  0  0  0  0  0  0  0  0  0  0
   -1.4412    8.1440   13.0505 H   0  0  0  0  0  0  0  0  0  0  0  0
   -1.5109    6.6132   14.4073 C   0  0  0  0  0  0  0  0  0  0  0  0
   -1.5762    7.1923   15.1966 H   0  0  0  0  0  0  0  0  0  0  0  0
   -0.9784    5.8216   14.6261 H   0  0  0  0  0  0  0  0  0  0  0  0
   -2.4092    6.3391   14.1296 H   0  0  0  0  0  0  0  0  0  0  0  0
    0.4751    7.9469   13.6889 C   0  0  0  0  0  0  0  0  0  0  0  0
    0.8602    8.4459   12.9388 H   0  0  0  0  0  0  0  0  0  0  0  0
    1.0822    7.2200   13.9424 H   0  0  0  0  0  0  0  0  0  0  0  0
    0.3479    8.5476   14.4510 H   0  0  0  0  0  0  0  0  0  0  0  0
   -3.2739    4.9961    9.6109 C   0  0  0  0  0  0  0  0  0  0  0  0
   -3.1047    4.8575    8.6359 H   0  0  0  0  0  0  0  0  0  0  0  0
   -3.8078    3.6531   10.1844 C   0  0  0  0  0  0  0  0  0  0  0  0
   -3.1075    2.9693   10.1225 H   0  0  0  0  0  0  0  0  0  0  0  0
   -4.5902    3.3667    9.6697 H   0  0  0  0  0  0  0  0  0  0  0  0
   -4.0627    3.7763   11.1231 H   0  0  0  0  0  0  0  0  0  0  0  0
   -4.3280    6.0772    9.7422 C   0  0  0  0  0  0  0  0  0  0  0  0
   -3.9418    6.9397    9.4886 H   0  0  0  0  0  0  0  0  0  0  0  0
   -4.6404    6.1173   10.6689 H   0  0  0  0  0  0  0  0  0  0  0  0
   -5.0828    5.8709    9.1521 H   0  0  0  0  0  0  0  0  0  0  0  0
   -1.4779    4.1922    4.8160 C   0  0  0  0  0  0  0  0  0  0  0  0
   -0.6036    5.0854    4.1806 C   0  0  0  0  0  0  0  0  0  0  0  0
   -1.0003    5.6737    2.9868 C   0  0  0  0  0  0  0  0  0  0  0  0
   -0.4057    6.2774    2.5552 H   0  0  0  0  0  0  0  0  0  0  0  0
   -2.2258    5.4150    2.4012 C   0  0  0  0  0  0  0  0  0  0  0  0
   -3.0492    4.5217    3.0215 C   0  0  0  0  0  0  0  0  0  0  0  0
   -3.8871    4.3215    2.6216 H   0  0  0  0  0  0  0  0  0  0  0  0
   -2.7088    3.8872    4.2274 C   0  0  0  0  0  0  0  0  0  0  0  0
    0.7533    5.4889    4.7254 C   0  0  0  0  0  0  0  0  0  0  0  0
    0.9330    4.9129    5.5238 H   0  0  0  0  0  0  0  0  0  0  0  0
    0.7442    6.9335    5.2054 C   0  0  0  0  0  0  0  0  0  0  0  0
    0.1185    7.0229    5.9540 H   0  0  0  0  0  0  0  0  0  0  0  0
    0.4634    7.5188    4.4719 H   0  0  0  0  0  0  0  0  0  0  0  0
    1.6435    7.1861    5.4997 H   0  0  0  0  0  0  0  0  0  0  0  0
    1.9042    5.2764    3.7475 C   0  0  0  0  0  0  0  0  0  0  0  0
    1.9407    4.3308    3.4864 H   0  0  0  0  0  0  0  0  0  0  0  0
    2.7482    5.5290    4.1761 H   0  0  0  0  0  0  0  0  0  0  0  0
    1.7624    5.8308    2.9521 H   0  0  0  0  0  0  0  0  0  0  0  0
   -2.6094    6.1881    1.1153 C   0  0  0  0  0  0  0  0  0  0  0  0
   -1.7801    6.6070    0.7456 H   0  0  0  0  0  0  0  0  0  0  0  0
   -3.5401    7.2847    1.5228 C   0  0  0  0  0  0  0  0  0  0  0  0
   -3.6719    7.8976    0.7697 H   0  0  0  0  0  0  0  0  0  0  0  0
   -3.1566    7.7744    2.2790 H   0  0  0  0  0  0  0  0  0  0  0  0
   -4.4029    6.9027    1.7869 H   0  0  0  0  0  0  0  0  0  0  0  0
   -3.2131    5.3657    0.0619 C   0  0  0  0  0  0  0  0  0  0  0  0
   -3.2321    5.8739   -0.7773 H   0  0  0  0  0  0  0  0  0  0  0  0
   -4.1282    5.1255    0.3185 H   0  0  0  0  0  0  0  0  0  0  0  0
   -2.6837    4.5525   -0.0619 H   0  0  0  0  0  0  0  0  0  0  0  0
   -3.6832    2.9108    4.8462 C   0  0  0  0  0  0  0  0  0  0  0  0
   -3.3839    2.7106    5.7804 H   0  0  0  0  0  0  0  0  0  0  0  0
   -3.7244    1.5709    4.0448 C   0  0  0  0  0  0  0  0  0  0  0  0
   -2.8286    1.1736    4.0267 H   0  0  0  0  0  0  0  0  0  0  0  0
   -4.0207    1.7465    3.1272 H   0  0  0  0  0  0  0  0  0  0  0  0
   -4.3479    0.9518    4.4749 H   0  0  0  0  0  0  0  0  0  0  0  0
   -5.1108    3.4683    4.9035 C   0  0  0  0  0  0  0  0  0  0  0  0
   -5.1428    4.2199    5.5299 H   0  0  0  0  0  0  0  0  0  0  0  0
   -5.7238    2.7660    5.2069 H   0  0  0  0  0  0  0  0  0  0  0  0
   -5.3782    3.7732    4.0116 H   0  0  0  0  0  0  0  0  0  0  0  0
    0.9301   -1.9898    1.1319 C   0  0  0  0  0  0  0  0  0  0  0  0
    0.1061    2.3101    0.3969 C   0  0  0  0  0  0  0  0  0  0  0  0
    0.6426    2.7568    1.1138 H   0  0  0  0  0  0  0  0  0  0  0  0
   -1.2190    1.9744    1.0323 C   0  0  0  0  0  0  0  0  0  0  0  0
   -1.5476    2.7506    1.5334 H   0  0  0  0  0  0  0  0  0  0  0  0
   -1.1052    1.2167    1.6436 H   0  0  0  0  0  0  0  0  0  0  0  0
   -1.8649    1.7372    0.3351 H   0  0  0  0  0  0  0  0  0  0  0  0
   -0.0593    3.3697   -0.7184 C   0  0  0  0  0  0  0  0  0  0  0  0
   -0.3747    4.2106   -0.3260 H   0  0  0  0  0  0  0  0  0  0  0  0
   -0.7110    3.0494   -1.3764 H   0  0  0  0  0  0  0  0  0  0  0  0
    0.8034    3.5176   -1.1576 H   0  0  0  0  0  0  0  0  0  0  0  0
    0.1979   -0.1787   -1.3764 C   0  0  0  0  0  0  0  0  0  0  0  0
    0.7912   -0.9518   -1.5907 H   0  0  0  0  0  0  0  0  0  0  0  0
    0.0069    0.5883   -2.6849 C   0  0  0  0  0  0  0  0  0  0  0  0
   -0.0831   -0.0462   -3.4260 H   0  0  0  0  0  0  0  0  0  0  0  0
    0.7838    1.1674   -2.8419 H   0  0  0  0  0  0  0  0  0  0  0  0
   -0.8019    1.1397   -2.6276 H   0  0  0  0  0  0  0  0  0  0  0  0
   -1.1416   -0.7639   -0.9946 C   0  0  0  0  0  0  0  0  0  0  0  0
   -1.3556   -1.5093   -1.5938 H   0  0  0  0  0  0  0  0  0  0  0  0
   -1.8336   -0.0739   -1.0716 H   0  0  0  0  0  0  0  0  0  0  0  0
   -1.1050   -1.0873   -0.0694 H   0  0  0  0  0  0  0  0  0  0  0  0
    2.7259    1.1366   -0.5147 C   0  0  0  0  0  0  0  0  0  0  0  0
    3.9889   -0.1109   -0.5041 C   0  0  0  0  0  0  0  0  0  0  0  0
    3.7613   -1.5832   -0.2264 C   0  0  0  0  0  0  0  0  0  0  0  0
    3.5527   -2.4364   -1.3070 C   0  0  0  0  0  0  0  0  0  0  0  0
    3.3693   -2.0730   -2.1643 H   0  0  0  0  0  0  0  0  0  0  0  0
    3.6081   -3.8102   -1.1485 C   0  0  0  0  0  0  0  0  0  0  0  0
    3.8945   -4.2969    0.1298 C   0  0  0  0  0  0  0  0  0  0  0  0
    3.9390   -5.2363    0.2536 H   0  0  0  0  0  0  0  0  0  0  0  0
    4.1171   -3.4806    1.2210 C   0  0  0  0  0  0  0  0  0  0  0  0
    4.0454   -2.1038    1.0323 C   0  0  0  0  0  0  0  0  0  0  0  0
    4.1916   -1.5185    1.7658 H   0  0  0  0  0  0  0  0  0  0  0  0
    3.5541   -4.6942   -2.3605 C   0  0  0  0  0  0  0  0  0  0  0  0
    4.7621   -5.1871   -2.8887 C   0  0  0  0  0  0  0  0  0  0  0  0
    4.7313   -5.9078   -4.0569 C   0  0  0  0  0  0  0  0  0  0  0  0
    5.5459   -6.2436   -4.4100 H   0  0  0  0  0  0  0  0  0  0  0  0
    3.5473   -6.1604   -4.7390 C   0  0  0  0  0  0  0  0  0  0  0  0
    2.3621   -5.7107   -4.1731 C   0  0  0  0  0  0  0  0  0  0  0  0
    1.5382   -5.9078   -4.6032 H   0  0  0  0  0  0  0  0  0  0  0  0
    2.3510   -4.9838   -3.0004 C   0  0  0  0  0  0  0  0  0  0  0  0
    6.1173   -4.8975   -2.2352 C   0  0  0  0  0  0  0  0  0  0  0  0
    5.9504   -4.7712   -1.2572 H   0  0  0  0  0  0  0  0  0  0  0  0
    7.1278   -6.0310   -2.3756 C   0  0  0  0  0  0  0  0  0  0  0  0
    6.7082   -6.8750   -2.1099 H   0  0  0  0  0  0  0  0  0  0  0  0
    7.8996   -5.8555   -1.7990 H   0  0  0  0  0  0  0  0  0  0  0  0
    7.4225   -6.0926   -3.3068 H   0  0  0  0  0  0  0  0  0  0  0  0
    6.6916   -3.6008   -2.7544 C   0  0  0  0  0  0  0  0  0  0  0  0
    7.4978   -3.3728   -2.2473 H   0  0  0  0  0  0  0  0  0  0  0  0
    6.0288   -2.8861   -2.6517 H   0  0  0  0  0  0  0  0  0  0  0  0
    6.9195   -3.6993   -3.7022 H   0  0  0  0  0  0  0  0  0  0  0  0
    3.5245   -6.9459   -6.0400 C   0  0  0  0  0  0  0  0  0  0  0  0
    2.5931   -6.9027   -6.4007 H   0  0  0  0  0  0  0  0  0  0  0  0
    3.8650   -8.4089   -5.8212 C   0  0  0  0  0  0  0  0  0  0  0  0
    3.1903   -8.8186   -5.2401 H   0  0  0  0  0  0  0  0  0  0  0  0
    4.7460   -8.4798   -5.3986 H   0  0  0  0  0  0  0  0  0  0  0  0
    3.8779   -8.8741   -6.6829 H   0  0  0  0  0  0  0  0  0  0  0  0
    4.4551   -6.3206   -7.0829 C   0  0  0  0  0  0  0  0  0  0  0  0
    4.2788   -6.7179   -7.9598 H   0  0  0  0  0  0  0  0  0  0  0  0
    5.3877   -6.4838   -6.8293 H   0  0  0  0  0  0  0  0  0  0  0  0
    4.2947   -5.3534   -7.1252 H   0  0  0  0  0  0  0  0  0  0  0  0
    1.0298   -4.5341   -2.3846 C   0  0  0  0  0  0  0  0  0  0  0  0
    1.1962   -3.6685   -1.9092 H   0  0  0  0  0  0  0  0  0  0  0  0
    0.5817   -5.5690   -1.3266 C   0  0  0  0  0  0  0  0  0  0  0  0
   -0.2362   -5.2548   -0.8874 H   0  0  0  0  0  0  0  0  0  0  0  0
    1.2888   -5.6799   -0.6565 H   0  0  0  0  0  0  0  0  0  0  0  0
    0.4078   -6.4284   -1.7643 H   0  0  0  0  0  0  0  0  0  0  0  0
   -0.0895   -4.2938   -3.3928 C   0  0  0  0  0  0  0  0  0  0  0  0
    0.2578   -3.7794   -4.1504 H   0  0  0  0  0  0  0  0  0  0  0  0
   -0.8159   -3.7979   -2.9642 H   0  0  0  0  0  0  0  0  0  0  0  0
   -0.4288   -5.1563   -3.7143 H   0  0  0  0  0  0  0  0  0  0  0  0
    4.6487   -4.0751    2.4993 C   0  0  0  0  0  0  0  0  0  0  0  0
    3.8301   -4.9838    3.2720 C   0  0  0  0  0  0  0  0  0  0  0  0
    4.4350   -5.6306    4.3496 C   0  0  0  0  0  0  0  0  0  0  0  0
    3.9146   -6.2312    4.8703 H   0  0  0  0  0  0  0  0  0  0  0  0
    5.7540   -5.4335    4.6877 C   0  0  0  0  0  0  0  0  0  0  0  0
    6.5013   -4.5618    3.9452 C   0  0  0  0  0  0  0  0  0  0  0  0
    7.4061   -4.4078    4.1897 H   0  0  0  0  0  0  0  0  0  0  0  0
    5.9678   -3.8780    2.8253 C   0  0  0  0  0  0  0  0  0  0  0  0
    2.4018   -5.2887    2.9204 C   0  0  0  0  0  0  0  0  0  0  0  0
    2.1088   -4.6449    2.2141 H   0  0  0  0  0  0  0  0  0  0  0  0
    2.2460   -6.7272    2.3590 C   0  0  0  0  0  0  0  0  0  0  0  0
    2.8518   -6.8473    1.5983 H   0  0  0  0  0  0  0  0  0  0  0  0
    1.3206   -6.8627    2.0646 H   0  0  0  0  0  0  0  0  0  0  0  0
    2.4658   -7.3771    3.0577 H   0  0  0  0  0  0  0  0  0  0  0  0
    1.4576   -5.1439    4.1263 C   0  0  0  0  0  0  0  0  0  0  0  0
    1.5808   -4.2630    4.5338 H   0  0  0  0  0  0  0  0  0  0  0  0
    1.6603   -5.8401    4.7858 H   0  0  0  0  0  0  0  0  0  0  0  0
    0.5296   -5.2394    3.8259 H   0  0  0  0  0  0  0  0  0  0  0  0
    6.3885   -6.2035    5.8619 C   0  0  0  0  0  0  0  0  0  0  0  0
    6.0719   -7.1491    5.7819 H   0  0  0  0  0  0  0  0  0  0  0  0
    7.8883   -6.2590    5.8483 C   0  0  0  0  0  0  0  0  0  0  0  0
    8.1975   -6.5454    4.9624 H   0  0  0  0  0  0  0  0  0  0  0  0
    8.1994   -6.8966    6.5245 H   0  0  0  0  0  0  0  0  0  0  0  0
    8.2495   -5.3719    6.0475 H   0  0  0  0  0  0  0  0  0  0  0  0
    5.8638   -5.6860    7.1900 C   0  0  0  0  0  0  0  0  0  0  0  0
    6.2855   -6.1820    7.9235 H   0  0  0  0  0  0  0  0  0  0  0  0
    4.8921   -5.8123    7.2278 H   0  0  0  0  0  0  0  0  0  0  0  0
    6.0738   -4.7343    7.2746 H   0  0  0  0  0  0  0  0  0  0  0  0
    6.9451   -3.0494    1.9952 C   0  0  0  0  0  0  0  0  0  0  0  0
    6.4201   -2.6182    1.2617 H   0  0  0  0  0  0  0  0  0  0  0  0
    7.9897   -3.9519    1.3387 C   0  0  0  0  0  0  0  0  0  0  0  0
    8.5322   -3.4221    0.7154 H   0  0  0  0  0  0  0  0  0  0  0  0
    7.5399   -4.6727    0.8497 H   0  0  0  0  0  0  0  0  0  0  0  0
    8.5687   -4.3369    2.0284 H   0  0  0  0  0  0  0  0  0  0  0  0
    7.6033   -1.9405    2.7830 C   0  0  0  0  0  0  0  0  0  0  0  0
    8.1542   -1.3953    2.1839 H   0  0  0  0  0  0  0  0  0  0  0  0
    8.1691   -2.3317    3.4833 H   0  0  0  0  0  0  0  0  0  0  0  0
    6.9152   -1.3799    3.1966 H   0  0  0  0  0  0  0  0  0  0  0  0
   -1.0520   -0.9056    6.6256 B   0  0  0  0  0  0  0  0  0  0  0  0
   -0.8064   -0.6130    5.5721 H   0  0  0  0  0  0  0  0  0  0  0  0
   -0.5540   -2.4580    7.3259 B   0  0  0  0  0  0  0  0  0  0  0  0
    0.0042   -3.2219    6.7267 H   0  0  0  0  0  0  0  0  0  0  0  0
   -0.2246   -2.1962    9.0313 B   0  0  0  0  0  0  0  0  0  0  0  0
    0.5443   -2.7937    9.5822 H   0  0  0  0  0  0  0  0  0  0  0  0
   -0.4898   -0.4528    9.3619 B   0  0  0  0  0  0  0  0  0  0  0  0
    0.1186    0.1294   10.0999 H   0  0  0  0  0  0  0  0  0  0  0  0
   -1.7695   -2.9169    8.5438 B   0  0  0  0  0  0  0  0  0  0  0  0
   -2.0280   -3.9827    8.7672 H   0  0  0  0  0  0  0  0  0  0  0  0
   -1.7086   -1.6633    9.8146 B   0  0  0  0  0  0  0  0  0  0  0  0
   -1.9190   -1.9005   10.8892 H   0  0  0  0  0  0  0  0  0  0  0  0
   -2.2069   -0.1417    9.1113 B   0  0  0  0  0  0  0  0  0  0  0  0
   -2.7479    0.6314    9.7165 H   0  0  0  0  0  0  0  0  0  0  0  0
   -2.5570   -0.4251    7.3847 B   0  0  0  0  0  0  0  0  0  0  0  0
   -3.3353    0.1633    6.8339 H   0  0  0  0  0  0  0  0  0  0  0  0
   -2.2701   -2.1315    7.0180 B   0  0  0  0  0  0  0  0  0  0  0  0
   -2.8436   -2.6767    6.2256 H   0  0  0  0  0  0  0  0  0  0  0  0
   -2.9913   -1.6602    8.5801 B   0  0  0  0  0  0  0  0  0  0  0  0
   -4.0574   -1.8974    8.8276 H   0  0  0  0  0  0  0  0  0  0  0  0
    3.9293    1.0627    0.7320 B   0  0  0  0  0  0  0  0  0  0  0  0
    3.6741    0.7947    1.7900 H   0  0  0  0  0  0  0  0  0  0  0  0
    3.4280    2.5997   -0.0045 B   0  0  0  0  0  0  0  0  0  0  0  0
    2.8581    3.3697    0.5750 H   0  0  0  0  0  0  0  0  0  0  0  0
    3.1284    2.2978   -1.7447 B   0  0  0  0  0  0  0  0  0  0  0  0
    2.3702    2.8707   -2.3378 H   0  0  0  0  0  0  0  0  0  0  0  0
    3.4189    0.5760   -2.0073 B   0  0  0  0  0  0  0  0  0  0  0  0
    2.8253   -0.0154   -2.7498 H   0  0  0  0  0  0  0  0  0  0  0  0
    5.4761    0.5822   -0.0196 B   0  0  0  0  0  0  0  0  0  0  0  0
    6.2680    0.0277    0.5433 H   0  0  0  0  0  0  0  0  0  0  0  0
    5.1423    2.2886    0.3018 B   0  0  0  0  0  0  0  0  0  0  0  0
    5.7096    2.8584    1.0821 H   0  0  0  0  0  0  0  0  0  0  0  0
    4.6207    3.0309   -1.2195 B   0  0  0  0  0  0  0  0  0  0  0  0
    4.8477    4.1028   -1.4459 H   0  0  0  0  0  0  0  0  0  0  0  0
    4.6063    1.7619   -2.4555 B   0  0  0  0  0  0  0  0  0  0  0  0
    4.8233    1.9775   -3.5316 H   0  0  0  0  0  0  0  0  0  0  0  0
    5.1333    0.2557   -1.7175 B   0  0  0  0  0  0  0  0  0  0  0  0
    5.6873   -0.5329   -2.2880 H   0  0  0  0  0  0  0  0  0  0  0  0
    5.9056    1.7927   -1.2572 B   0  0  0  0  0  0  0  0  0  0  0  0
    6.9653    2.0360   -1.5243 H   0  0  0  0  0  0  0  0  0  0  0  0
  1  4  1  0  0  0  0
  2  3  1  0  0  0  0
  3 10  1  0  0  0  0
  4118  1  0  0  0  0
  5  1  1  0  0  0  0
  6  1  1  0  0  0  0
  7  9  3  0  0  0  0
  8117  3  0  0  0  0
  9  2  1  0  0  0  0
 10 11  1  0  0  0  0
 12 10  1  0  0  0  0
 13 12  1  0  0  0  0
 14 12  1  0  0  0  0
 15 12  1  0  0  0  0
 16 10  1  0  0  0  0
 17 16  1  0  0  0  0
 18 16  1  0  0  0  0
 19 16  1  0  0  0  0
 20  3  1  0  0  0  0
 21 20  1  0  0  0  0
 22 20  1  0  0  0  0
 23 22  1  0  0  0  0
 24 22  1  0  0  0  0
 25 22  1  0  0  0  0
 26 20  1  0  0  0  0
 27 26  1  0  0  0  0
 28 26  1  0  0  0  0
 29 26  1  0  0  0  0
 30  3  1  0  0  0  0
 31 30  1  0  0  0  0
 32 31  1  0  0  0  0
 33 32  4  0  0  0  0
 34 33  1  0  0  0  0
 35 33  4  0  0  0  0
 36 35  4  0  0  0  0
 37 36  1  0  0  0  0
 38 36  4  0  0  0  0
 39 32  4  0  0  0  0
 40 39  1  0  0  0  0
 41 35  1  0  0  0  0
 42 41  4  0  0  0  0
 43 42  4  0  0  0  0
 44 43  1  0  0  0  0
 45 43  4  0  0  0  0
 46 45  4  0  0  0  0
 47 46  1  0  0  0  0
 48 41  4  0  0  0  0
 49 42  1  0  0  0  0
 50 49  1  0  0  0  0
 51 49  1  0  0  0  0
 52 51  1  0  0  0  0
 53 51  1  0  0  0  0
 54 51  1  0  0  0  0
 55 49  1  0  0  0  0
 56 55  1  0  0  0  0
 57 55  1  0  0  0  0
 58 55  1  0  0  0  0
 59 45  1  0  0  0  0
 60 59  1  0  0  0  0
 61 59  1  0  0  0  0
 62 61  1  0  0  0  0
 63 61  1  0  0  0  0
 64 61  1  0  0  0  0
 65 59  1  0  0  0  0
 66 65  1  0  0  0  0
 67 65  1  0  0  0  0
 68 65  1  0  0  0  0
 69 48  1  0  0  0  0
 70 69  1  0  0  0  0
 71 69  1  0  0  0  0
 72 71  1  0  0  0  0
 73 71  1  0  0  0  0
 74 71  1  0  0  0  0
 75 69  1  0  0  0  0
 76 75  1  0  0  0  0
 77 75  1  0  0  0  0
 78 75  1  0  0  0  0
 79 38  1  0  0  0  0
 80 79  4  0  0  0  0
 81 80  4  0  0  0  0
 82 81  1  0  0  0  0
 83 81  4  0  0  0  0
 84 83  4  0  0  0  0
 85 84  1  0  0  0  0
 86 79  4  0  0  0  0
 87 80  1  0  0  0  0
 88 87  1  0  0  0  0
 89 87  1  0  0  0  0
 90 89  1  0  0  0  0
 91 89  1  0  0  0  0
 92 89  1  0  0  0  0
 93 87  1  0  0  0  0
 94 93  1  0  0  0  0
 95 93  1  0  0  0  0
 96 93  1  0  0  0  0
 97 83  1  0  0  0  0
 98 97  1  0  0  0  0
 99 97  1  0  0  0  0
100 99  1  0  0  0  0
101 99  1  0  0  0  0
102 99  1  0  0  0  0
103 97  1  0  0  0  0
104103  1  0  0  0  0
105103  1  0  0  0  0
106103  1  0  0  0  0
107 86  1  0  0  0  0
108107  1  0  0  0  0
109107  1  0  0  0  0
110109  1  0  0  0  0
111109  1  0  0  0  0
112109  1  0  0  0  0
113107  1  0  0  0  0
114113  1  0  0  0  0
115113  1  0  0  0  0
116113  1  0  0  0  0
117  1  1  0  0  0  0
118119  1  0  0  0  0
120118  1  0  0  0  0
121120  1  0  0  0  0
122120  1  0  0  0  0
123120  1  0  0  0  0
124118  1  0  0  0  0
125124  1  0  0  0  0
126124  1  0  0  0  0
127124  1  0  0  0  0
128  4  1  0  0  0  0
129128  1  0  0  0  0
130128  1  0  0  0  0
131130  1  0  0  0  0
132130  1  0  0  0  0
133130  1  0  0  0  0
134128  1  0  0  0  0
135134  1  0  0  0  0
136134  1  0  0  0  0
137134  1  0  0  0  0
138  4  1  0  0  0  0
139138  1  0  0  0  0
140139  1  0  0  0  0
141140  4  0  0  0  0
142141  1  0  0  0  0
143141  4  0  0  0  0
144143  4  0  0  0  0
145144  1  0  0  0  0
146144  4  0  0  0  0
147140  4  0  0  0  0
148147  1  0  0  0  0
149143  1  0  0  0  0
150149  4  0  0  0  0
151150  4  0  0  0  0
152151  1  0  0  0  0
153151  4  0  0  0  0
154153  4  0  0  0  0
155154  1  0  0  0  0
156149  4  0  0  0  0
157150  1  0  0  0  0
158157  1  0  0  0  0
159157  1  0  0  0  0
160159  1  0  0  0  0
161159  1  0  0  0  0
162159  1  0  0  0  0
163157  1  0  0  0  0
164163  1  0  0  0  0
165163  1  0  0  0  0
166163  1  0  0  0  0
167153  1  0  0  0  0
168167  1  0  0  0  0
169167  1  0  0  0  0
170169  1  0  0  0  0
171169  1  0  0  0  0
172169  1  0  0  0  0
173167  1  0  0  0  0
174173  1  0  0  0  0
175173  1  0  0  0  0
176173  1  0  0  0  0
177156  1  0  0  0  0
178177  1  0  0  0  0
179177  1  0  0  0  0
180179  1  0  0  0  0
181179  1  0  0  0  0
182179  1  0  0  0  0
183177  1  0  0  0  0
184183  1  0  0  0  0
185183  1  0  0  0  0
186183  1  0  0  0  0
187146  1  0  0  0  0
188187  4  0  0  0  0
189188  4  0  0  0  0
190189  1  0  0  0  0
191189  4  0  0  0  0
192191  4  0  0  0  0
193192  1  0  0  0  0
194187  4  0  0  0  0
195188  1  0  0  0  0
196195  1  0  0  0  0
197195  1  0  0  0  0
198197  1  0  0  0  0
199197  1  0  0  0  0
200197  1  0  0  0  0
201195  1  0  0  0  0
202201  1  0  0  0  0
203201  1  0  0  0  0
204201  1  0  0  0  0
205191  1  0  0  0  0
206205  1  0  0  0  0
207205  1  0  0  0  0
208207  1  0  0  0  0
209207  1  0  0  0  0
210207  1  0  0  0  0
211205  1  0  0  0  0
212211  1  0  0  0  0
213211  1  0  0  0  0
214211  1  0  0  0  0
215194  1  0  0  0  0
216215  1  0  0  0  0
217215  1  0  0  0  0
218217  1  0  0  0  0
219217  1  0  0  0  0
220217  1  0  0  0  0
221215  1  0  0  0  0
222221  1  0  0  0  0
223221  1  0  0  0  0
224221  1  0  0  0  0
225 30  1  0  0  0  0
226225  1  0  0  0  0
227 30  1  0  0  0  0
228227  1  0  0  0  0
229 30  1  0  0  0  0
230229  1  0  0  0  0
231 30  1  0  0  0  0
232231  1  0  0  0  0
233227  1  0  0  0  0
234233  1  0  0  0  0
235229  1  0  0  0  0
236235  1  0  0  0  0
237 31  1  0  0  0  0
238237  1  0  0  0  0
239 31  1  0  0  0  0
240239  1  0  0  0  0
241225  1  0  0  0  0
242241  1  0  0  0  0
243233  1  0  0  0  0
244243  1  0  0  0  0
245138  1  0  0  0  0
246245  1  0  0  0  0
247138  1  0  0  0  0
248247  1  0  0  0  0
249138  1  0  0  0  0
250249  1  0  0  0  0
251138  1  0  0  0  0
252251  1  0  0  0  0
253139  1  0  0  0  0
254253  1  0  0  0  0
255245  1  0  0  0  0
256255  1  0  0  0  0
257247  1  0  0  0  0
258257  1  0  0  0  0
259249  1  0  0  0  0
260259  1  0  0  0  0
261139  1  0  0  0  0
262261  1  0  0  0  0
263253  1  0  0  0  0
264263  1  0  0  0  0
  2  5  1  0  0  0  0
  2  6  1  0  0  0  0
 31225  1  0  0  0  0
 31231  1  0  0  0  0
 38 39  4  0  0  0  0
 46 48  4  0  0  0  0
 84 86  4  0  0  0  0
139245  1  0  0  0  0
139251  1  0  0  0  0
146147  4  0  0  0  0
154156  4  0  0  0  0
192194  4  0  0  0  0
225227  1  0  0  0  0
225239  1  0  0  0  0
227229  1  0  0  0  0
227241  1  0  0  0  0
229231  1  0  0  0  0
229233  1  0  0  0  0
231235  1  0  0  0  0
231237  1  0  0  0  0
233235  1  0  0  0  0
233241  1  0  0  0  0
235237  1  0  0  0  0
235243  1  0  0  0  0
237239  1  0  0  0  0
237243  1  0  0  0  0
239241  1  0  0  0  0
239243  1  0  0  0  0
241243  1  0  0  0  0
245247  1  0  0  0  0
245253  1  0  0  0  0
247249  1  0  0  0  0
247255  1  0  0  0  0
249251  1  0  0  0  0
249257  1  0  0  0  0
251259  1  0  0  0  0
251261  1  0  0  0  0
253255  1  0  0  0  0
253261  1  0  0  0  0
255257  1  0  0  0  0
255263  1  0  0  0  0
257259  1  0  0  0  0
257263  1  0  0  0  0
259261  1  0  0  0  0
259263  1  0  0  0  0
261263  1  0  0  0  0
M  END
$$$$
JUHREM

From CSD data. Using bond type 'Any'. No disordered atoms. Largest molecule.
 89 90  0  0  0  0  0  0  0  0999 V2000
    5.8844    1.3716   14.5394 P   0  0  0  0  0  0  0  0  0  0  0  0
   11.4386    2.8316   14.3684 P   0  0  0  0  0  0  0  0  0  0  0  0
    6.7010    0.7429   15.8046 O   0  0  0  0  0  0  0  0  0  0  0  0
   10.5460    3.3101   15.6346 O   0  0  0  0  0  0  0  0  0  0  0  0
    8.6301    2.0141   15.7038 N   0  0  0  0  0  0  0  0  0  0  0  0
    7.7430    1.3769   16.4480 C   0  0  0  0  0  0  0  0  0  0  0  0
    7.7996    1.2381   17.8268 C   0  0  0  0  0  0  0  0  0  0  0  0
    7.1218    0.7791   18.3106 H   0  0  0  0  0  0  0  0  0  0  0  0
    8.8909    1.8012   18.4643 C   0  0  0  0  0  0  0  0  0  0  0  0
    8.9823    1.7272   19.4055 H   0  0  0  0  0  0  0  0  0  0  0  0
    9.8479    2.4716   17.7302 C   0  0  0  0  0  0  0  0  0  0  0  0
   10.6053    2.8642   18.1473 H   0  0  0  0  0  0  0  0  0  0  0  0
    9.6549    2.5464   16.3586 C   0  0  0  0  0  0  0  0  0  0  0  0
    4.3525    0.3672   14.7184 C   0  0  0  0  0  0  0  0  0  0  0  0
    3.6733    0.7969   16.0239 C   0  0  0  0  0  0  0  0  0  0  0  0
    4.2642    0.5978   16.7813 H   0  0  0  0  0  0  0  0  0  0  0  0
    2.8296    0.3078   16.1313 H   0  0  0  0  0  0  0  0  0  0  0  0
    3.4909    1.7596   15.9957 H   0  0  0  0  0  0  0  0  0  0  0  0
    3.4097    0.6395   13.5352 C   0  0  0  0  0  0  0  0  0  0  0  0
    3.2579    1.6045   13.4549 H   0  0  0  0  0  0  0  0  0  0  0  0
    2.5538    0.1859   13.6878 H   0  0  0  0  0  0  0  0  0  0  0  0
    3.8151    0.3024   12.7111 H   0  0  0  0  0  0  0  0  0  0  0  0
    4.6849   -1.1255   14.7848 C   0  0  0  0  0  0  0  0  0  0  0  0
    5.0825   -1.4093   13.9346 H   0  0  0  0  0  0  0  0  0  0  0  0
    3.8637   -1.6361   14.9495 H   0  0  0  0  0  0  0  0  0  0  0  0
    5.3208   -1.2867   15.5126 H   0  0  0  0  0  0  0  0  0  0  0  0
   13.1129    3.3633   14.9280 C   0  0  0  0  0  0  0  0  0  0  0  0
   13.5486    2.3960   16.0375 C   0  0  0  0  0  0  0  0  0  0  0  0
   12.9115    2.4438   16.7813 H   0  0  0  0  0  0  0  0  0  0  0  0
   14.4408    2.6451   16.3572 H   0  0  0  0  0  0  0  0  0  0  0  0
   13.5703    1.4819   15.6829 H   0  0  0  0  0  0  0  0  0  0  0  0
   14.0918    3.2599   13.7490 C   0  0  0  0  0  0  0  0  0  0  0  0
   14.0726    2.3497   13.3889 H   0  0  0  0  0  0  0  0  0  0  0  0
   14.9984    3.4705   14.0562 H   0  0  0  0  0  0  0  0  0  0  0  0
   13.8295    3.8948   13.0517 H   0  0  0  0  0  0  0  0  0  0  0  0
   13.0869    4.7819   15.4733 C   0  0  0  0  0  0  0  0  0  0  0  0
   12.8153    5.3998   14.7618 H   0  0  0  0  0  0  0  0  0  0  0  0
   13.9804    5.0257   15.7942 H   0  0  0  0  0  0  0  0  0  0  0  0
   12.4493    4.8351   16.2147 H   0  0  0  0  0  0  0  0  0  0  0  0
    6.8036    0.8138   13.0816 C   0  0  0  0  0  0  0  0  0  0  0  0
    7.7725    0.9326   13.2533 H   0  0  0  0  0  0  0  0  0  0  0  0
    6.6385   -0.1543   12.9579 H   0  0  0  0  0  0  0  0  0  0  0  0
    6.4447    1.5443   11.7789 C   0  0  0  0  0  0  0  0  0  0  0  0
    5.4848    1.4063   11.5849 H   0  0  0  0  0  0  0  0  0  0  0  0
    6.5935    2.5155   11.9012 H   0  0  0  0  0  0  0  0  0  0  0  0
    7.2687    1.0560   10.5974 C   0  0  0  0  0  0  0  0  0  0  0  0
    7.0929    0.0918   10.4588 H   0  0  0  0  0  0  0  0  0  0  0  0
    8.2303    1.1625   10.8063 H   0  0  0  0  0  0  0  0  0  0  0  0
    6.9542    1.8105    9.3086 C   0  0  0  0  0  0  0  0  0  0  0  0
    5.9923    1.6986    9.0997 H   0  0  0  0  0  0  0  0  0  0  0  0
    7.1205    2.7755    9.4542 H   0  0  0  0  0  0  0  0  0  0  0  0
    7.7788    1.3407    8.1157 C   0  0  0  0  0  0  0  0  0  0  0  0
    7.5483    0.3980    7.9214 H   0  0  0  0  0  0  0  0  0  0  0  0
    8.7368    1.3700    8.3594 H   0  0  0  0  0  0  0  0  0  0  0  0
    7.5708    2.1692    6.8442 C   0  0  0  0  0  0  0  0  0  0  0  0
    8.1194    1.7788    6.1209 H   0  0  0  0  0  0  0  0  0  0  0  0
    6.6222    2.0967    6.5728 H   0  0  0  0  0  0  0  0  0  0  0  0
    7.9269    3.6487    6.9833 C   0  0  0  0  0  0  0  0  0  0  0  0
    7.6775    4.1170    6.1487 H   0  0  0  0  0  0  0  0  0  0  0  0
    7.3877    4.0391    7.7163 H   0  0  0  0  0  0  0  0  0  0  0  0
    9.4043    3.9025    7.2693 C   0  0  0  0  0  0  0  0  0  0  0  0
    9.7171    3.2430    7.9388 H   0  0  0  0  0  0  0  0  0  0  0  0
    9.9200    3.7521    6.4372 H   0  0  0  0  0  0  0  0  0  0  0  0
    9.7047    5.3034    7.7858 C   0  0  0  0  0  0  0  0  0  0  0  0
    9.3264    5.9614    7.1498 H   0  0  0  0  0  0  0  0  0  0  0  0
   10.6866    5.4314    7.7998 H   0  0  0  0  0  0  0  0  0  0  0  0
    9.1549    5.6042    9.1831 C   0  0  0  0  0  0  0  0  0  0  0  0
    9.3831    6.5384    9.4195 H   0  0  0  0  0  0  0  0  0  0  0  0
    8.1669    5.5333    9.1588 H   0  0  0  0  0  0  0  0  0  0  0  0
    9.6824    4.6824   10.2756 C   0  0  0  0  0  0  0  0  0  0  0  0
   10.6658    4.7781   10.3302 H   0  0  0  0  0  0  0  0  0  0  0  0
    9.4847    3.7451   10.0278 H   0  0  0  0  0  0  0  0  0  0  0  0
    9.0829    4.9686   11.6506 C   0  0  0  0  0  0  0  0  0  0  0  0
    8.0962    4.9871   11.5710 H   0  0  0  0  0  0  0  0  0  0  0  0
    9.3785    5.8657   11.9464 H   0  0  0  0  0  0  0  0  0  0  0  0
    9.4745    3.9411   12.7153 C   0  0  0  0  0  0  0  0  0  0  0  0
    8.9335    4.0977   13.5314 H   0  0  0  0  0  0  0  0  0  0  0  0
    9.2662    3.0331   12.3809 H   0  0  0  0  0  0  0  0  0  0  0  0
   10.9558    4.0128   13.0750 C   0  0  0  0  0  0  0  0  0  0  0  0
   11.1687    4.9292   13.3819 H   0  0  0  0  0  0  0  0  0  0  0  0
   11.4916    3.8354   12.2627 H   0  0  0  0  0  0  0  0  0  0  0  0
    5.5908    3.2491   14.6409 B   0  0  0  0  0  0  0  0  0  0  0  0
    5.2824    3.5199   15.6690 H   0  0  0  0  0  0  0  0  0  0  0  0
    4.7946    3.5376   13.9276 H   0  0  0  0  0  0  0  0  0  0  0  0
    6.5249    3.7837   14.3830 H   0  0  0  0  0  0  0  0  0  0  0  0
   11.3220    1.0059   13.8626 B   0  0  0  0  0  0  0  0  0  0  0  0
   11.4103    0.3718   14.7549 H   0  0  0  0  0  0  0  0  0  0  0  0
   12.1343    0.7675   13.1595 H   0  0  0  0  0  0  0  0  0  0  0  0
   10.3521    0.8215   13.3785 H   0  0  0  0  0  0  0  0  0  0  0  0
  1  3  1  0  0  0  0
  2  4  1  0  0  0  0
  3  6  1  0  0  0  0
  4 13  1  0  0  0  0
  5  6  4  0  0  0  0
  6  7  4  0  0  0  0
  7  8  1  0  0  0  0
  9  7  4  0  0  0  0
 10  9  1  0  0  0  0
 11  9  4  0  0  0  0
 12 11  1  0  0  0  0
 13  5  4  0  0  0  0
 14  1  1  0  0  0  0
 15 14  1  0  0  0  0
 16 15  1  0  0  0  0
 17 15  1  0  0  0  0
 18 15  1  0  0  0  0
 19 14  1  0  0  0  0
 20 19  1  0  0  0  0
 21 19  1  0  0  0  0
 22 19  1  0  0  0  0
 23 14  1  0  0  0  0
 24 23  1  0  0  0  0
 25 23  1  0  0  0  0
 26 23  1  0  0  0  0
 27  2  1  0  0  0  0
 28 27  1  0  0  0  0
 29 28  1  0  0  0  0
 30 28  1  0  0  0  0
 31 28  1  0  0  0  0
 32 27  1  0  0  0  0
 33 32  1  0  0  0  0
 34 32  1  0  0  0  0
 35 32  1  0  0  0  0
 36 27  1  0  0  0  0
 37 36  1  0  0  0  0
 38 36  1  0  0  0  0
 39 36  1  0  0  0  0
 40  1  1  0  0  0  0
 41 40  1  0  0  0  0
 42 40  1  0  0  0  0
 43 40  1  0  0  0  0
 44 43  1  0  0  0  0
 45 43  1  0  0  0  0
 46 43  1  0  0  0  0
 47 46  1  0  0  0  0
 48 46  1  0  0  0  0
 49 46  1  0  0  0  0
 50 49  1  0  0  0  0
 51 49  1  0  0  0  0
 52 49  1  0  0  0  0
 53 52  1  0  0  0  0
 54 52  1  0  0  0  0
 55 52  1  0  0  0  0
 56 55  1  0  0  0  0
 57 55  1  0  0  0  0
 58 55  1  0  0  0  0
 59 58  1  0  0  0  0
 60 58  1  0  0  0  0
 61 58  1  0  0  0  0
 62 61  1  0  0  0  0
 63 61  1  0  0  0  0
 64 61  1  0  0  0  0
 65 64  1  0  0  0  0
 66 64  1  0  0  0  0
 67 64  1  0  0  0  0
 68 67  1  0  0  0  0
 69 67  1  0  0  0  0
 70 67  1  0  0  0  0
 71 70  1  0  0  0  0
 72 70  1  0  0  0  0
 73 70  1  0  0  0  0
 74 73  1  0  0  0  0
 75 73  1  0  0  0  0
 76 73  1  0  0  0  0
 77 76  1  0  0  0  0
 78 76  1  0  0  0  0
 79  2  1  0  0  0  0
 80 79  1  0  0  0  0
 81 79  1  0  0  0  0
 82  1  1  0  0  0  0
 83 82  1  0  0  0  0
 84 82  1  0  0  0  0
 85 82  1  0  0  0  0
 86  2  1  0  0  0  0
 87 86  1  0  0  0  0
 88 86  1  0  0  0  0
 89 86  1  0  0  0  0
 11 13  4  0  0  0  0
 76 79  1  0  0  0  0
M  END
$$$$
JUMTES

From CSD data. Using bond type 'Any'. No disordered atoms. Largest molecule.
110110  0  0  0  0  0  0  0  0999 V2000
    0.1542   -1.4412    3.2840 P   0  0  0  0  0  0  0  0  0  0  0  0
    1.6457   -0.4052    3.1506 C   0  0  0  0  0  0  0  0  0  0  0  0
    1.5094    0.4059    3.7019 H   0  0  0  0  0  0  0  0  0  0  0  0
    2.4038   -0.9044    3.5441 H   0  0  0  0  0  0  0  0  0  0  0  0
    2.0358    0.0279    1.7740 C   0  0  0  0  0  0  0  0  0  0  0  0
    2.2376   -0.7588    1.2090 H   0  0  0  0  0  0  0  0  0  0  0  0
    1.3013    0.5404    1.3510 H   0  0  0  0  0  0  0  0  0  0  0  0
    3.1946    0.8471    1.9225 O   0  0  0  0  0  0  0  0  0  0  0  0
    4.0623    0.8177    0.7814 C   0  0  0  0  0  0  0  0  0  0  0  0
    3.6895    1.3699    0.0493 H   0  0  0  0  0  0  0  0  0  0  0  0
    4.1675   -0.1103    0.4536 H   0  0  0  0  0  0  0  0  0  0  0  0
    5.4023    1.3757    1.2368 C   0  0  0  0  0  0  0  0  0  0  0  0
    5.2689    2.2993    1.5659 H   0  0  0  0  0  0  0  0  0  0  0  0
    6.0117    1.4184    0.4595 H   0  0  0  0  0  0  0  0  0  0  0  0
    6.1911    0.3846    2.5534 P   0  0  0  0  0  0  0  0  0  0  0  0
    5.4877    1.0581    4.1018 C   0  0  0  0  0  0  0  0  0  0  0  0
    5.9808    1.8831    4.3409 H   0  0  0  0  0  0  0  0  0  0  0  0
    4.5462    1.3103    3.9366 H   0  0  0  0  0  0  0  0  0  0  0  0
    5.5362    0.0949    5.2968 C   0  0  0  0  0  0  0  0  0  0  0  0
    6.4655   -0.2206    5.4197 H   0  0  0  0  0  0  0  0  0  0  0  0
    4.9725   -0.6941    5.1002 H   0  0  0  0  0  0  0  0  0  0  0  0
    4.9605    0.8681    6.8403 P   0  0  0  0  0  0  0  0  0  0  0  0
    3.2019    1.1485    6.4904 C   0  0  0  0  0  0  0  0  0  0  0  0
    3.1353    1.7022    5.6721 H   0  0  0  0  0  0  0  0  0  0  0  0
    2.7853    0.2735    6.2894 H   0  0  0  0  0  0  0  0  0  0  0  0
    2.3876    1.8206    7.5848 C   0  0  0  0  0  0  0  0  0  0  0  0
    2.3738    1.2618    8.4017 H   0  0  0  0  0  0  0  0  0  0  0  0
    2.7720    2.7044    7.8120 H   0  0  0  0  0  0  0  0  0  0  0  0
    1.0732    1.9691    7.0606 O   0  0  0  0  0  0  0  0  0  0  0  0
    0.1271    2.3559    8.0392 C   0  0  0  0  0  0  0  0  0  0  0  0
    0.2238    3.3199    8.2439 H   0  0  0  0  0  0  0  0  0  0  0  0
    0.2697    1.8419    8.8730 H   0  0  0  0  0  0  0  0  0  0  0  0
   -1.2605    2.0735    7.4775 C   0  0  0  0  0  0  0  0  0  0  0  0
   -1.3967    2.6191    6.6622 H   0  0  0  0  0  0  0  0  0  0  0  0
   -1.9401    2.3478    8.1433 H   0  0  0  0  0  0  0  0  0  0  0  0
   -1.5064    0.3125    7.0643 P   0  0  0  0  0  0  0  0  0  0  0  0
   -0.8399    0.1221    5.3637 C   0  0  0  0  0  0  0  0  0  0  0  0
   -1.5548    0.3449    4.7156 H   0  0  0  0  0  0  0  0  0  0  0  0
   -0.1056    0.7728    5.2363 H   0  0  0  0  0  0  0  0  0  0  0  0
   -0.3146   -1.2809    5.0550 C   0  0  0  0  0  0  0  0  0  0  0  0
   -1.0136   -1.9485    5.2718 H   0  0  0  0  0  0  0  0  0  0  0  0
    0.4733   -1.4684    5.6228 H   0  0  0  0  0  0  0  0  0  0  0  0
   -1.2851   -0.9103    2.1338 B   0  0  0  0  0  0  0  0  0  0  0  0
   -1.4040    0.0610    2.1872 H   0  0  0  0  0  0  0  0  0  0  0  0
   -2.1111   -1.3574    2.4160 H   0  0  0  0  0  0  0  0  0  0  0  0
   -1.0751   -1.1625    1.2109 H   0  0  0  0  0  0  0  0  0  0  0  0
    0.6928   -3.2030    3.0412 C   0  0  0  0  0  0  0  0  0  0  0  0
   -0.5680   -4.0736    3.0865 C   0  0  0  0  0  0  0  0  0  0  0  0
   -1.1766   -3.8015    2.3686 H   0  0  0  0  0  0  0  0  0  0  0  0
   -1.0100   -3.9625    3.9523 H   0  0  0  0  0  0  0  0  0  0  0  0
   -0.3194   -5.0140    2.9643 H   0  0  0  0  0  0  0  0  0  0  0  0
    1.3646   -3.3199    1.6721 C   0  0  0  0  0  0  0  0  0  0  0  0
    2.2245   -2.8486    1.6882 H   0  0  0  0  0  0  0  0  0  0  0  0
    0.7854   -2.9206    0.9901 H   0  0  0  0  0  0  0  0  0  0  0  0
    1.5131   -4.2647    1.4614 H   0  0  0  0  0  0  0  0  0  0  0  0
    1.6925   -3.6456    4.1083 C   0  0  0  0  0  0  0  0  0  0  0  0
    2.0250   -4.5427    3.8932 H   0  0  0  0  0  0  0  0  0  0  0  0
    1.2512   -3.6618    4.9838 H   0  0  0  0  0  0  0  0  0  0  0  0
    2.4444   -3.0177    4.1338 H   0  0  0  0  0  0  0  0  0  0  0  0
    5.9047   -1.5015    2.3826 B   0  0  0  0  0  0  0  0  0  0  0  0
    4.9576   -1.7037    2.5402 H   0  0  0  0  0  0  0  0  0  0  0  0
    6.4545   -1.9758    3.0412 H   0  0  0  0  0  0  0  0  0  0  0  0
    6.1544   -1.7890    1.4792 H   0  0  0  0  0  0  0  0  0  0  0  0
    7.9685    0.8868    2.5162 C   0  0  0  0  0  0  0  0  0  0  0  0
    8.6429    0.2515    1.2817 C   0  0  0  0  0  0  0  0  0  0  0  0
    8.1926    0.5610    0.4674 H   0  0  0  0  0  0  0  0  0  0  0  0
    8.5764   -0.7243    1.3411 H   0  0  0  0  0  0  0  0  0  0  0  0
    9.5857    0.5154    1.2524 H   0  0  0  0  0  0  0  0  0  0  0  0
    8.6660    0.3309    3.7713 C   0  0  0  0  0  0  0  0  0  0  0  0
    9.6358    0.4500    3.6861 H   0  0  0  0  0  0  0  0  0  0  0  0
    8.4620   -0.6228    3.8636 H   0  0  0  0  0  0  0  0  0  0  0  0
    8.3464    0.8125    4.5637 H   0  0  0  0  0  0  0  0  0  0  0  0
    8.1171    2.4081    2.4602 C   0  0  0  0  0  0  0  0  0  0  0  0
    7.6934    2.8074    3.2483 H   0  0  0  0  0  0  0  0  0  0  0  0
    7.6865    2.7493    1.6488 H   0  0  0  0  0  0  0  0  0  0  0  0
    9.0683    2.6434    2.4475 H   0  0  0  0  0  0  0  0  0  0  0  0
    5.9174    2.4728    7.2335 B   0  0  0  0  0  0  0  0  0  0  0  0
    5.8660    3.0809    6.4669 H   0  0  0  0  0  0  0  0  0  0  0  0
    6.8571    2.2574    7.4156 H   0  0  0  0  0  0  0  0  0  0  0  0
    5.5236    2.9044    8.0191 H   0  0  0  0  0  0  0  0  0  0  0  0
    5.1071   -0.4316    8.1486 C   0  0  0  0  0  0  0  0  0  0  0  0
    6.4673   -1.1162    8.0337 C   0  0  0  0  0  0  0  0  0  0  0  0
    7.1728   -0.4375    8.0230 H   0  0  0  0  0  0  0  0  0  0  0  0
    6.5010   -1.6375    7.2045 H   0  0  0  0  0  0  0  0  0  0  0  0
    6.6003   -1.7125    8.8001 H   0  0  0  0  0  0  0  0  0  0  0  0
    5.0153    0.2537    9.5286 C   0  0  0  0  0  0  0  0  0  0  0  0
    4.1508    0.7081    9.6107 H   0  0  0  0  0  0  0  0  0  0  0  0
    5.7388    0.9096    9.6166 H   0  0  0  0  0  0  0  0  0  0  0  0
    5.0998   -0.4206   10.2339 H   0  0  0  0  0  0  0  0  0  0  0  0
    3.9921   -1.4868    8.0169 C   0  0  0  0  0  0  0  0  0  0  0  0
    4.1414   -2.2030    8.6699 H   0  0  0  0  0  0  0  0  0  0  0  0
    4.0024   -1.8625    7.1118 H   0  0  0  0  0  0  0  0  0  0  0  0
    3.1213   -1.0669    8.1867 H   0  0  0  0  0  0  0  0  0  0  0  0
   -0.6918   -0.8434    8.3413 B   0  0  0  0  0  0  0  0  0  0  0  0
    0.2823   -0.8059    8.2419 H   0  0  0  0  0  0  0  0  0  0  0  0
   -1.0019   -1.7618    8.1946 H   0  0  0  0  0  0  0  0  0  0  0  0
   -0.9388   -0.5574    9.2458 H   0  0  0  0  0  0  0  0  0  0  0  0
   -3.3393    0.0890    6.9255 C   0  0  0  0  0  0  0  0  0  0  0  0
   -3.6162   -1.2860    6.3249 C   0  0  0  0  0  0  0  0  0  0  0  0
   -3.2091   -1.9765    6.8890 H   0  0  0  0  0  0  0  0  0  0  0  0
   -3.2343   -1.3324    5.4236 H   0  0  0  0  0  0  0  0  0  0  0  0
   -4.5853   -1.4331    6.2776 H   0  0  0  0  0  0  0  0  0  0  0  0
   -3.9821    1.1846    6.0711 C   0  0  0  0  0  0  0  0  0  0  0  0
   -3.5198    1.2390    5.2086 H   0  0  0  0  0  0  0  0  0  0  0  0
   -3.9126    2.0441    6.5360 H   0  0  0  0  0  0  0  0  0  0  0  0
   -4.9277    0.9706    5.9226 H   0  0  0  0  0  0  0  0  0  0  0  0
   -3.9402    0.1346    8.3346 C   0  0  0  0  0  0  0  0  0  0  0  0
   -4.9000   -0.0618    8.2873 H   0  0  0  0  0  0  0  0  0  0  0  0
   -3.8084    1.0272    8.7172 H   0  0  0  0  0  0  0  0  0  0  0  0
   -3.4978   -0.5316    8.9007 H   0  0  0  0  0  0  0  0  0  0  0  0
  1  2  1  0  0  0  0
  2  3  1  0  0  0  0
  4  2  1  0  0  0  0
  5  2  1  0  0  0  0
  6  5  1  0  0  0  0
  7  5  1  0  0  0  0
  8  5  1  0  0  0  0
  9  8  1  0  0  0  0
 10  9  1  0  0  0  0
 11  9  1  0  0  0  0
 12  9  1  0  0  0  0
 13 12  1  0  0  0  0
 14 12  1  0  0  0  0
 15 12  1  0  0  0  0
 16 15  1  0  0  0  0
 17 16  1  0  0  0  0
 18 16  1  0  0  0  0
 19 16  1  0  0  0  0
 20 19  1  0  0  0  0
 21 19  1  0  0  0  0
 22 19  1  0  0  0  0
 23 22  1  0  0  0  0
 24 23  1  0  0  0  0
 25 23  1  0  0  0  0
 26 23  1  0  0  0  0
 27 26  1  0  0  0  0
 28 26  1  0  0  0  0
 29 26  1  0  0  0  0
 30 29  1  0  0  0  0
 31 30  1  0  0  0  0
 32 30  1  0  0  0  0
 33 30  1  0  0  0  0
 34 33  1  0  0  0  0
 35 33  1  0  0  0  0
 36 33  1  0  0  0  0
 37 36  1  0  0  0  0
 38 37  1  0  0  0  0
 39 37  1  0  0  0  0
 40  1  1  0  0  0  0
 41 40  1  0  0  0  0
 42 40  1  0  0  0  0
 43  1  1  0  0  0  0
 44 43  1  0  0  0  0
 45 43  1  0  0  0  0
 46 43  1  0  0  0  0
 47  1  1  0  0  0  0
 48 47  1  0  0  0  0
 49 48  1  0  0  0  0
 50 48  1  0  0  0  0
 51 48  1  0  0  0  0
 52 47  1  0  0  0  0
 53 52  1  0  0  0  0
 54 52  1  0  0  0  0
 55 52  1  0  0  0  0
 56 47  1  0  0  0  0
 57 56  1  0  0  0  0
 58 56  1  0  0  0  0
 59 56  1  0  0  0  0
 60 15  1  0  0  0  0
 61 60  1  0  0  0  0
 62 60  1  0  0  0  0
 63 60  1  0  0  0  0
 64 15  1  0  0  0  0
 65 64  1  0  0  0  0
 66 65  1  0  0  0  0
 67 65  1  0  0  0  0
 68 65  1  0  0  0  0
 69 64  1  0  0  0  0
 70 69  1  0  0  0  0
 71 69  1  0  0  0  0
 72 69  1  0  0  0  0
 73 64  1  0  0  0  0
 74 73  1  0  0  0  0
 75 73  1  0  0  0  0
 76 73  1  0  0  0  0
 77 22  1  0  0  0  0
 78 77  1  0  0  0  0
 79 77  1  0  0  0  0
 80 77  1  0  0  0  0
 81 22  1  0  0  0  0
 82 81  1  0  0  0  0
 83 82  1  0  0  0  0
 84 82  1  0  0  0  0
 85 82  1  0  0  0  0
 86 81  1  0  0  0  0
 87 86  1  0  0  0  0
 88 86  1  0  0  0  0
 89 86  1  0  0  0  0
 90 81  1  0  0  0  0
 91 90  1  0  0  0  0
 92 90  1  0  0  0  0
 93 90  1  0  0  0  0
 94 36  1  0  0  0  0
 95 94  1  0  0  0  0
 96 94  1  0  0  0  0
 97 94  1  0  0  0  0
 98 36  1  0  0  0  0
 99 98  1  0  0  0  0
100 99  1  0  0  0  0
101 99  1  0  0  0  0
102 99  1  0  0  0  0
103 98  1  0  0  0  0
104103  1  0  0  0  0
105103  1  0  0  0  0
106103  1  0  0  0  0
107 98  1  0  0  0  0
108107  1  0  0  0  0
109107  1  0  0  0  0
110107  1  0  0  0  0
 37 40  1  0  0  0  0
M  END
$$$$
JUMTIW

From CSD data. Using bond type 'Any'. No disordered atoms. Largest molecule.
132134  0  0  0  0  0  0  0  0999 V2000
    1.4819    1.3295    4.7019 O   0  0  0  0  0  0  0  0  0  0  0  0
    2.4842    1.9528    5.4040 C   0  0  0  0  0  0  0  0  0  0  0  0
    2.9051    1.4906    6.6280 C   0  0  0  0  0  0  0  0  0  0  0  0
    2.5250    0.6974    6.9873 H   0  0  0  0  0  0  0  0  0  0  0  0
    3.8690    2.1664    7.3375 C   0  0  0  0  0  0  0  0  0  0  0  0
    4.1592    1.8352    8.1791 H   0  0  0  0  0  0  0  0  0  0  0  0
    4.4182    3.3307    6.8275 C   0  0  0  0  0  0  0  0  0  0  0  0
    5.0824    3.7989    7.3188 H   0  0  0  0  0  0  0  0  0  0  0  0
    3.9961    3.8131    5.5960 C   0  0  0  0  0  0  0  0  0  0  0  0
    4.3582    4.6222    5.2555 H   0  0  0  0  0  0  0  0  0  0  0  0
    3.0561    3.1250    4.8669 C   0  0  0  0  0  0  0  0  0  0  0  0
    2.5658    3.4953    3.6541 O   0  0  0  0  0  0  0  0  0  0  0  0
    2.9363    4.7734    3.1389 C   0  0  0  0  0  0  0  0  0  0  0  0
    3.9170    4.8191    3.0039 H   0  0  0  0  0  0  0  0  0  0  0  0
    2.6713    5.4891    3.7689 H   0  0  0  0  0  0  0  0  0  0  0  0
    2.2145    4.9402    1.8181 C   0  0  0  0  0  0  0  0  0  0  0  0
    2.3847    4.1353    1.2661 H   0  0  0  0  0  0  0  0  0  0  0  0
    2.6089    5.7134    1.3426 H   0  0  0  0  0  0  0  0  0  0  0  0
    0.4225    5.1894    1.9307 P   0  0  0  0  0  0  0  0  0  0  0  0
   -0.0084    6.5769    3.1629 B   0  0  0  0  0  0  0  0  0  0  0  0
    0.3165    6.3343    4.0547 H   0  0  0  0  0  0  0  0  0  0  0  0
   -0.9807    6.6980    3.1914 H   0  0  0  0  0  0  0  0  0  0  0  0
    0.4172    7.4119    2.8756 H   0  0  0  0  0  0  0  0  0  0  0  0
   -0.1031    5.5469    0.1980 C   0  0  0  0  0  0  0  0  0  0  0  0
    0.3333    4.4353   -0.7703 C   0  0  0  0  0  0  0  0  0  0  0  0
    0.0719    4.6769   -1.6831 H   0  0  0  0  0  0  0  0  0  0  0  0
   -0.1007    3.5938   -0.5175 H   0  0  0  0  0  0  0  0  0  0  0  0
    1.3069    4.3268   -0.7268 H   0  0  0  0  0  0  0  0  0  0  0  0
   -1.6402    5.6869    0.1448 C   0  0  0  0  0  0  0  0  0  0  0  0
   -1.9123    5.9541   -0.7575 H   0  0  0  0  0  0  0  0  0  0  0  0
   -1.9291    6.3671    0.7890 H   0  0  0  0  0  0  0  0  0  0  0  0
   -2.0538    4.8273    0.3683 H   0  0  0  0  0  0  0  0  0  0  0  0
    0.5144    6.8832   -0.2378 C   0  0  0  0  0  0  0  0  0  0  0  0
    1.4819    6.7746   -0.3533 H   0  0  0  0  0  0  0  0  0  0  0  0
    0.3417    7.5623    0.4478 H   0  0  0  0  0  0  0  0  0  0  0  0
    0.1139    7.1657   -1.0860 H   0  0  0  0  0  0  0  0  0  0  0  0
   -0.3105    3.5749    2.3828 C   0  0  0  0  0  0  0  0  0  0  0  0
   -0.4484    3.0413    1.5601 H   0  0  0  0  0  0  0  0  0  0  0  0
    0.3273    3.0823    2.9581 H   0  0  0  0  0  0  0  0  0  0  0  0
   -1.6342    3.7078    3.1134 C   0  0  0  0  0  0  0  0  0  0  0  0
   -2.1413    4.4635    2.7226 H   0  0  0  0  0  0  0  0  0  0  0  0
   -1.4555    3.9220    4.0629 H   0  0  0  0  0  0  0  0  0  0  0  0
   -2.6571    2.2044    3.0310 P   0  0  0  0  0  0  0  0  0  0  0  0
   -1.9051    1.0120    4.1927 C   0  0  0  0  0  0  0  0  0  0  0  0
   -0.9628    1.2690    4.3517 H   0  0  0  0  0  0  0  0  0  0  0  0
   -2.3823    1.0612    5.0582 H   0  0  0  0  0  0  0  0  0  0  0  0
   -1.9507   -0.4231    3.6811 C   0  0  0  0  0  0  0  0  0  0  0  0
   -2.8787   -0.6564    3.4291 H   0  0  0  0  0  0  0  0  0  0  0  0
   -1.3824   -0.5060    2.8749 H   0  0  0  0  0  0  0  0  0  0  0  0
   -2.7648    1.5535    1.2368 B   0  0  0  0  0  0  0  0  0  0  0  0
   -1.9051    1.1596    0.9803 H   0  0  0  0  0  0  0  0  0  0  0  0
   -2.9770    2.2947    0.6323 H   0  0  0  0  0  0  0  0  0  0  0  0
   -3.4674    0.8725    1.1783 H   0  0  0  0  0  0  0  0  0  0  0  0
   -4.2803    2.6997    3.7622 C   0  0  0  0  0  0  0  0  0  0  0  0
   -5.0188    3.5752    2.7354 C   0  0  0  0  0  0  0  0  0  0  0  0
   -5.8917    3.8372    3.0954 H   0  0  0  0  0  0  0  0  0  0  0  0
   -5.1459    3.0687    1.9058 H   0  0  0  0  0  0  0  0  0  0  0  0
   -4.4877    4.3787    2.5494 H   0  0  0  0  0  0  0  0  0  0  0  0
   -5.1052    1.4296    4.0089 C   0  0  0  0  0  0  0  0  0  0  0  0
   -4.6640    0.8807    4.6892 H   0  0  0  0  0  0  0  0  0  0  0  0
   -5.1783    0.9217    3.1749 H   0  0  0  0  0  0  0  0  0  0  0  0
   -6.0008    1.6766    4.3194 H   0  0  0  0  0  0  0  0  0  0  0  0
   -4.0849    3.4445    5.0740 C   0  0  0  0  0  0  0  0  0  0  0  0
   -3.6484    4.3049    4.8992 H   0  0  0  0  0  0  0  0  0  0  0  0
   -3.5237    2.9100    5.6732 H   0  0  0  0  0  0  0  0  0  0  0  0
   -4.9565    3.5993    5.4940 H   0  0  0  0  0  0  0  0  0  0  0  0
   -1.4819   -1.3295    4.7019 O   0  0  0  0  0  0  0  0  0  0  0  0
   -2.4842   -1.9528    5.4040 C   0  0  0  0  0  0  0  0  0  0  0  0
   -2.9051   -1.4906    6.6280 C   0  0  0  0  0  0  0  0  0  0  0  0
   -2.5250   -0.6974    6.9873 H   0  0  0  0  0  0  0  0  0  0  0  0
   -3.8690   -2.1664    7.3375 C   0  0  0  0  0  0  0  0  0  0  0  0
   -4.1592   -1.8352    8.1791 H   0  0  0  0  0  0  0  0  0  0  0  0
   -4.4182   -3.3307    6.8275 C   0  0  0  0  0  0  0  0  0  0  0  0
   -5.0824   -3.7989    7.3188 H   0  0  0  0  0  0  0  0  0  0  0  0
   -3.9961   -3.8131    5.5960 C   0  0  0  0  0  0  0  0  0  0  0  0
   -4.3582   -4.6222    5.2555 H   0  0  0  0  0  0  0  0  0  0  0  0
   -3.0561   -3.1250    4.8669 C   0  0  0  0  0  0  0  0  0  0  0  0
   -2.5658   -3.4953    3.6541 O   0  0  0  0  0  0  0  0  0  0  0  0
   -2.9363   -4.7734    3.1389 C   0  0  0  0  0  0  0  0  0  0  0  0
   -3.9170   -4.8191    3.0039 H   0  0  0  0  0  0  0  0  0  0  0  0
   -2.6713   -5.4891    3.7689 H   0  0  0  0  0  0  0  0  0  0  0  0
   -2.2145   -4.9402    1.8181 C   0  0  0  0  0  0  0  0  0  0  0  0
   -2.3847   -4.1353    1.2661 H   0  0  0  0  0  0  0  0  0  0  0  0
   -2.6089   -5.7134    1.3426 H   0  0  0  0  0  0  0  0  0  0  0  0
   -0.4225   -5.1894    1.9307 P   0  0  0  0  0  0  0  0  0  0  0  0
    0.0084   -6.5769    3.1629 B   0  0  0  0  0  0  0  0  0  0  0  0
   -0.3165   -6.3343    4.0547 H   0  0  0  0  0  0  0  0  0  0  0  0
    0.9807   -6.6980    3.1914 H   0  0  0  0  0  0  0  0  0  0  0  0
   -0.4172   -7.4119    2.8756 H   0  0  0  0  0  0  0  0  0  0  0  0
    0.1031   -5.5469    0.1980 C   0  0  0  0  0  0  0  0  0  0  0  0
   -0.3333   -4.4353   -0.7703 C   0  0  0  0  0  0  0  0  0  0  0  0
   -0.0719   -4.6769   -1.6831 H   0  0  0  0  0  0  0  0  0  0  0  0
    0.1007   -3.5938   -0.5175 H   0  0  0  0  0  0  0  0  0  0  0  0
   -1.3069   -4.3268   -0.7268 H   0  0  0  0  0  0  0  0  0  0  0  0
    1.6402   -5.6869    0.1448 C   0  0  0  0  0  0  0  0  0  0  0  0
    1.9123   -5.9541   -0.7575 H   0  0  0  0  0  0  0  0  0  0  0  0
    1.9291   -6.3671    0.7890 H   0  0  0  0  0  0  0  0  0  0  0  0
    2.0538   -4.8273    0.3683 H   0  0  0  0  0  0  0  0  0  0  0  0
   -0.5144   -6.8832   -0.2378 C   0  0  0  0  0  0  0  0  0  0  0  0
   -1.4819   -6.7746   -0.3533 H   0  0  0  0  0  0  0  0  0  0  0  0
   -0.3417   -7.5623    0.4478 H   0  0  0  0  0  0  0  0  0  0  0  0
   -0.1139   -7.1657   -1.0860 H   0  0  0  0  0  0  0  0  0  0  0  0
    0.3105   -3.5749    2.3828 C   0  0  0  0  0  0  0  0  0  0  0  0
    0.4484   -3.0413    1.5601 H   0  0  0  0  0  0  0  0  0  0  0  0
   -0.3273   -3.0823    2.9581 H   0  0  0  0  0  0  0  0  0  0  0  0
    1.6342   -3.7078    3.1134 C   0  0  0  0  0  0  0  0  0  0  0  0
    2.1413   -4.4635    2.7226 H   0  0  0  0  0  0  0  0  0  0  0  0
    1.4555   -3.9220    4.0629 H   0  0  0  0  0  0  0  0  0  0  0  0
    2.6571   -2.2044    3.0310 P   0  0  0  0  0  0  0  0  0  0  0  0
    1.9051   -1.0119    4.1927 C   0  0  0  0  0  0  0  0  0  0  0  0
    0.9628   -1.2690    4.3517 H   0  0  0  0  0  0  0  0  0  0  0  0
    2.3823   -1.0612    5.0582 H   0  0  0  0  0  0  0  0  0  0  0  0
    1.9507    0.4231    3.6811 C   0  0  0  0  0  0  0  0  0  0  0  0
    2.8787    0.6564    3.4291 H   0  0  0  0  0  0  0  0  0  0  0  0
    1.3824    0.5060    2.8749 H   0  0  0  0  0  0  0  0  0  0  0  0
    2.7648   -1.5535    1.2368 B   0  0  0  0  0  0  0  0  0  0  0  0
    1.9051   -1.1596    0.9803 H   0  0  0  0  0  0  0  0  0  0  0  0
    2.9770   -2.2947    0.6323 H   0  0  0  0  0  0  0  0  0  0  0  0
    3.4674   -0.8725    1.1783 H   0  0  0  0  0  0  0  0  0  0  0  0
    4.2803   -2.6997    3.7622 C   0  0  0  0  0  0  0  0  0  0  0  0
    5.0188   -3.5752    2.7354 C   0  0  0  0  0  0  0  0  0  0  0  0
    5.8917   -3.8372    3.0954 H   0  0  0  0  0  0  0  0  0  0  0  0
    5.1459   -3.0687    1.9058 H   0  0  0  0  0  0  0  0  0  0  0  0
    4.4877   -4.3787    2.5494 H   0  0  0  0  0  0  0  0  0  0  0  0
    5.1052   -1.4296    4.0089 C   0  0  0  0  0  0  0  0  0  0  0  0
    4.6640   -0.8807    4.6892 H   0  0  0  0  0  0  0  0  0  0  0  0
    5.1783   -0.9217    3.1749 H   0  0  0  0  0  0  0  0  0  0  0  0
    6.0008   -1.6766    4.3194 H   0  0  0  0  0  0  0  0  0  0  0  0
    4.0849   -3.4445    5.0740 C   0  0  0  0  0  0  0  0  0  0  0  0
    3.6484   -4.3049    4.8992 H   0  0  0  0  0  0  0  0  0  0  0  0
    3.5237   -2.9100    5.6732 H   0  0  0  0  0  0  0  0  0  0  0  0
    4.9565   -3.5993    5.4940 H   0  0  0  0  0  0  0  0  0  0  0  0
  1  2  1  0  0  0  0
  2  3  4  0  0  0  0
  3  4  1  0  0  0  0
  5  3  4  0  0  0  0
  6  5  1  0  0  0  0
  7  5  4  0  0  0  0
  8  7  1  0  0  0  0
  9  7  4  0  0  0  0
 10  9  1  0  0  0  0
 11  2  4  0  0  0  0
 12 11  1  0  0  0  0
 13 12  1  0  0  0  0
 14 13  1  0  0  0  0
 15 13  1  0  0  0  0
 16 13  1  0  0  0  0
 17 16  1  0  0  0  0
 18 16  1  0  0  0  0
 19 16  1  0  0  0  0
 20 19  1  0  0  0  0
 21 20  1  0  0  0  0
 22 20  1  0  0  0  0
 23 20  1  0  0  0  0
 24 19  1  0  0  0  0
 25 24  1  0  0  0  0
 26 25  1  0  0  0  0
 27 25  1  0  0  0  0
 28 25  1  0  0  0  0
 29 24  1  0  0  0  0
 30 29  1  0  0  0  0
 31 29  1  0  0  0  0
 32 29  1  0  0  0  0
 33 24  1  0  0  0  0
 34 33  1  0  0  0  0
 35 33  1  0  0  0  0
 36 33  1  0  0  0  0
 37 19  1  0  0  0  0
 38 37  1  0  0  0  0
 39 37  1  0  0  0  0
 40 37  1  0  0  0  0
 41 40  1  0  0  0  0
 42 40  1  0  0  0  0
 43 40  1  0  0  0  0
 44 43  1  0  0  0  0
 45 44  1  0  0  0  0
 46 44  1  0  0  0  0
 47 44  1  0  0  0  0
 48 47  1  0  0  0  0
 49 47  1  0  0  0  0
 50 43  1  0  0  0  0
 51 50  1  0  0  0  0
 52 50  1  0  0  0  0
 53 50  1  0  0  0  0
 54 43  1  0  0  0  0
 55 54  1  0  0  0  0
 56 55  1  0  0  0  0
 57 55  1  0  0  0  0
 58 55  1  0  0  0  0
 59 54  1  0  0  0  0
 60 59  1  0  0  0  0
 61 59  1  0  0  0  0
 62 59  1  0  0  0  0
 63 54  1  0  0  0  0
 64 63  1  0  0  0  0
 65 63  1  0  0  0  0
 66 63  1  0  0  0  0
 67 47  1  0  0  0  0
 68 67  1  0  0  0  0
 69 68  4  0  0  0  0
 70 69  1  0  0  0  0
 71 69  4  0  0  0  0
 72 71  1  0  0  0  0
 73 71  4  0  0  0  0
 74 73  1  0  0  0  0
 75 73  4  0  0  0  0
 76 75  1  0  0  0  0
 77 68  4  0  0  0  0
 78 77  1  0  0  0  0
 79 78  1  0  0  0  0
 80 79  1  0  0  0  0
 81 79  1  0  0  0  0
 82 79  1  0  0  0  0
 83 82  1  0  0  0  0
 84 82  1  0  0  0  0
 85 82  1  0  0  0  0
 86 85  1  0  0  0  0
 87 86  1  0  0  0  0
 88 86  1  0  0  0  0
 89 86  1  0  0  0  0
 90 85  1  0  0  0  0
 91 90  1  0  0  0  0
 92 91  1  0  0  0  0
 93 91  1  0  0  0  0
 94 91  1  0  0  0  0
 95 90  1  0  0  0  0
 96 95  1  0  0  0  0
 97 95  1  0  0  0  0
 98 95  1  0  0  0  0
 99 90  1  0  0  0  0
100 99  1  0  0  0  0
101 99  1  0  0  0  0
102 99  1  0  0  0  0
103 85  1  0  0  0  0
104103  1  0  0  0  0
105103  1  0  0  0  0
106103  1  0  0  0  0
107106  1  0  0  0  0
108106  1  0  0  0  0
109106  1  0  0  0  0
110109  1  0  0  0  0
111110  1  0  0  0  0
112110  1  0  0  0  0
113  1  1  0  0  0  0
114113  1  0  0  0  0
115113  1  0  0  0  0
116109  1  0  0  0  0
117116  1  0  0  0  0
118116  1  0  0  0  0
119116  1  0  0  0  0
120109  1  0  0  0  0
121120  1  0  0  0  0
122121  1  0  0  0  0
123121  1  0  0  0  0
124121  1  0  0  0  0
125120  1  0  0  0  0
126125  1  0  0  0  0
127125  1  0  0  0  0
128125  1  0  0  0  0
129120  1  0  0  0  0
130129  1  0  0  0  0
131129  1  0  0  0  0
132129  1  0  0  0  0
  9 11  4  0  0  0  0
 75 77  4  0  0  0  0
110113  1  0  0  0  0
M  END
$$$$
KABQAI

From CSD data. Using bond type 'Any'. No disordered atoms. Largest molecule.
 82 88  0  0  0  0  0  0  0  0999 V2000
   15.3423    7.1943    8.1066 Li  0  0  0  0  0  0  0  0  0  0  0  0
   16.9691    6.5916    5.4430 P   0  3  0  0  0  0  0  0  0  0  0  0
   15.9347    9.3165    6.2863 P   0  3  0  0  0  0  0  0  0  0  0  0
   14.0143    5.8032    8.2377 O   0  0  0  0  0  0  0  0  0  0  0  0
   16.3762    6.9057    9.6898 O   0  0  0  0  0  0  0  0  0  0  0  0
   16.2764    7.7291    6.3294 N   0  0  0  0  0  0  0  0  0  0  0  0
   18.3780    5.6971    6.3924 B   0  5  0  0  0  0  0  0  0  0  0  0
   18.0500    5.4010    7.2452 H   0  0  0  0  0  0  0  0  0  0  0  0
   19.1106    6.3030    6.5234 H   0  0  0  0  0  0  0  0  0  0  0  0
   18.6757    4.9395    5.8834 H   0  0  0  0  0  0  0  0  0  0  0  0
   14.7184    9.6699    7.7287 B   0  5  0  0  0  0  0  0  0  0  0  0
   15.6543    5.4138    4.9828 C   0  0  0  0  0  0  0  0  0  0  0  0
   14.2888    5.8170    5.0169 C   0  0  0  0  0  0  0  0  0  0  0  0
   14.0535    6.6903    5.2331 H   0  0  0  0  0  0  0  0  0  0  0  0
   13.3174    4.8705    4.7172 C   0  0  0  0  0  0  0  0  0  0  0  0
   12.4207    5.1156    4.7462 H   0  0  0  0  0  0  0  0  0  0  0  0
   13.6489    3.5876    4.3768 C   0  0  0  0  0  0  0  0  0  0  0  0
   12.9769    2.9732    4.1827 H   0  0  0  0  0  0  0  0  0  0  0  0
   14.9698    3.1971    4.3223 C   0  0  0  0  0  0  0  0  0  0  0  0
   15.1926    2.3291    4.0737 H   0  0  0  0  0  0  0  0  0  0  0  0
   15.9609    4.1033    4.6355 C   0  0  0  0  0  0  0  0  0  0  0  0
   16.8504    3.8327    4.6134 H   0  0  0  0  0  0  0  0  0  0  0  0
   17.5758    7.2018    3.8473 C   0  0  0  0  0  0  0  0  0  0  0  0
   16.8949    7.0776    2.6591 C   0  0  0  0  0  0  0  0  0  0  0  0
   16.0660    6.6542    2.6693 H   0  0  0  0  0  0  0  0  0  0  0  0
   17.3619    7.5328    1.4913 C   0  0  0  0  0  0  0  0  0  0  0  0
   16.8628    7.4150    0.7167 H   0  0  0  0  0  0  0  0  0  0  0  0
   18.6026    8.1886    1.4317 C   0  0  0  0  0  0  0  0  0  0  0  0
   18.9359    8.5271    0.6316 H   0  0  0  0  0  0  0  0  0  0  0  0
   19.2906    8.3042    2.5876 C   0  0  0  0  0  0  0  0  0  0  0  0
   20.1231    8.7202    2.5638 H   0  0  0  0  0  0  0  0  0  0  0  0
   18.8361    7.8480    3.7775 C   0  0  0  0  0  0  0  0  0  0  0  0
   19.3495    7.9583    4.5470 H   0  0  0  0  0  0  0  0  0  0  0  0
   17.4618   10.2960    6.4588 C   0  0  0  0  0  0  0  0  0  0  0  0
   18.6668    9.6879    6.7992 C   0  0  0  0  0  0  0  0  0  0  0  0
   18.7167    8.7626    6.8758 H   0  0  0  0  0  0  0  0  0  0  0  0
   19.7898   10.4647    7.0256 C   0  0  0  0  0  0  0  0  0  0  0  0
   20.5972   10.0604    7.2469 H   0  0  0  0  0  0  0  0  0  0  0  0
   19.7149   11.8155    6.9218 C   0  0  0  0  0  0  0  0  0  0  0  0
   20.4832   12.3216    7.0648 H   0  0  0  0  0  0  0  0  0  0  0  0
   18.5349   12.4627    6.6137 C   0  0  0  0  0  0  0  0  0  0  0  0
   18.5028   13.3901    6.5507 H   0  0  0  0  0  0  0  0  0  0  0  0
   17.3709   11.6754    6.3958 C   0  0  0  0  0  0  0  0  0  0  0  0
   16.5562   12.0839    6.2119 H   0  0  0  0  0  0  0  0  0  0  0  0
   15.3013    9.8758    4.6645 C   0  0  0  0  0  0  0  0  0  0  0  0
   13.8878    9.9659    4.4976 C   0  0  0  0  0  0  0  0  0  0  0  0
   13.3102    9.7909    5.2041 H   0  0  0  0  0  0  0  0  0  0  0  0
   13.4065   10.3161    3.2668 C   0  0  0  0  0  0  0  0  0  0  0  0
   12.4849   10.3936    3.1596 H   0  0  0  0  0  0  0  0  0  0  0  0
   14.1926   10.5559    2.2029 C   0  0  0  0  0  0  0  0  0  0  0  0
   13.8183   10.7522    1.3738 H   0  0  0  0  0  0  0  0  0  0  0  0
   15.5972   10.5039    2.3612 C   0  0  0  0  0  0  0  0  0  0  0  0
   16.1694   10.6907    1.6530 H   0  0  0  0  0  0  0  0  0  0  0  0
   16.0803   10.1739    3.5801 C   0  0  0  0  0  0  0  0  0  0  0  0
   17.0036   10.1474    3.6890 H   0  0  0  0  0  0  0  0  0  0  0  0
   12.5883    5.9666    8.4675 C   0  0  0  0  0  0  0  0  0  0  0  0
   12.1124    6.0303    7.6249 H   0  0  0  0  0  0  0  0  0  0  0  0
   12.4172    6.7699    8.9817 H   0  0  0  0  0  0  0  0  0  0  0  0
   12.1587    4.7856    9.2081 C   0  0  0  0  0  0  0  0  0  0  0  0
   11.2104    4.6180    9.0872 H   0  0  0  0  0  0  0  0  0  0  0  0
   12.3494    4.8737   10.1546 H   0  0  0  0  0  0  0  0  0  0  0  0
   12.9769    3.7149    8.5918 C   0  0  0  0  0  0  0  0  0  0  0  0
   12.5580    3.3775    7.7849 H   0  0  0  0  0  0  0  0  0  0  0  0
   13.1106    2.9796    9.2098 H   0  0  0  0  0  0  0  0  0  0  0  0
   14.2871    4.4025    8.2752 C   0  0  0  0  0  0  0  0  0  0  0  0
   14.9466    4.2052    8.9578 H   0  0  0  0  0  0  0  0  0  0  0  0
   14.6293    4.1012    7.4189 H   0  0  0  0  0  0  0  0  0  0  0  0
   15.8432    6.5248   10.9155 C   0  0  0  0  0  0  0  0  0  0  0  0
   16.3584    5.7862   11.2764 H   0  0  0  0  0  0  0  0  0  0  0  0
   14.9306    6.2213   10.7913 H   0  0  0  0  0  0  0  0  0  0  0  0
   15.8610    7.5986   11.8314 C   0  0  0  0  0  0  0  0  0  0  0  0
   16.0749    7.2919   12.7251 H   0  0  0  0  0  0  0  0  0  0  0  0
   15.0054    8.0549   11.8484 H   0  0  0  0  0  0  0  0  0  0  0  0
   16.9573    8.5069   11.2815 C   0  0  0  0  0  0  0  0  0  0  0  0
   16.5954    9.3707   11.0279 H   0  0  0  0  0  0  0  0  0  0  0  0
   17.6561    8.6406   11.9404 H   0  0  0  0  0  0  0  0  0  0  0  0
   17.4814    7.7779   10.0882 C   0  0  0  0  0  0  0  0  0  0  0  0
   17.7078    8.3966    9.3766 H   0  0  0  0  0  0  0  0  0  0  0  0
   18.2693    7.2591   10.3180 H   0  0  0  0  0  0  0  0  0  0  0  0
   14.4386   10.3140    7.4223 H   0  0  0  0  0  0  0  0  0  0  0  0
   15.6864    9.5712    8.8523 H   0  0  0  0  0  0  0  0  0  0  0  0
   15.9894    9.1362    7.3882 H   0  0  0  0  0  0  0  0  0  0  0  0
  1  4  1  0  0  0  0
  2  6  1  0  0  0  0
  3  6  1  0  0  0  0
  4 56  1  0  0  0  0
  5  1  1  0  0  0  0
  6  1  1  0  0  0  0
  7  2  1  0  0  0  0
  8  7  1  0  0  0  0
  9  7  1  0  0  0  0
 10  7  1  0  0  0  0
 11  3  1  0  0  0  0
 12  2  1  0  0  0  0
 13 12  4  0  0  0  0
 14 13  1  0  0  0  0
 15 13  4  0  0  0  0
 16 15  1  0  0  0  0
 17 15  4  0  0  0  0
 18 17  1  0  0  0  0
 19 17  4  0  0  0  0
 20 19  1  0  0  0  0
 21 12  4  0  0  0  0
 22 21  1  0  0  0  0
 23  2  1  0  0  0  0
 24 23  4  0  0  0  0
 25 24  1  0  0  0  0
 26 24  4  0  0  0  0
 27 26  1  0  0  0  0
 28 26  4  0  0  0  0
 29 28  1  0  0  0  0
 30 28  4  0  0  0  0
 31 30  1  0  0  0  0
 32 23  4  0  0  0  0
 33 32  1  0  0  0  0
 34  3  1  0  0  0  0
 35 34  4  0  0  0  0
 36 35  1  0  0  0  0
 37 35  4  0  0  0  0
 38 37  1  0  0  0  0
 39 37  4  0  0  0  0
 40 39  1  0  0  0  0
 41 39  4  0  0  0  0
 42 41  1  0  0  0  0
 43 34  4  0  0  0  0
 44 43  1  0  0  0  0
 45  3  1  0  0  0  0
 46 45  4  0  0  0  0
 47 46  1  0  0  0  0
 48 46  4  0  0  0  0
 49 48  1  0  0  0  0
 50 48  4  0  0  0  0
 51 50  1  0  0  0  0
 52 50  4  0  0  0  0
 53 52  1  0  0  0  0
 54 45  4  0  0  0  0
 55 54  1  0  0  0  0
 56 57  1  0  0  0  0
 58 56  1  0  0  0  0
 59 56  1  0  0  0  0
 60 59  1  0  0  0  0
 61 59  1  0  0  0  0
 62 59  1  0  0  0  0
 63 62  1  0  0  0  0
 64 62  1  0  0  0  0
 65  4  1  0  0  0  0
 66 65  1  0  0  0  0
 67 65  1  0  0  0  0
 68  5  1  0  0  0  0
 69 68  1  0  0  0  0
 70 68  1  0  0  0  0
 71 68  1  0  0  0  0
 72 71  1  0  0  0  0
 73 71  1  0  0  0  0
 74 71  1  0  0  0  0
 75 74  1  0  0  0  0
 76 74  1  0  0  0  0
 77  5  1  0  0  0  0
 78 77  1  0  0  0  0
 79 77  1  0  0  0  0
 80 11  1  0  0  0  0
 81 11  1  0  0  0  0
 82  1  1  0  0  0  0
 11 82  1  0  0  0  0
 19 21  4  0  0  0  0
 30 32  4  0  0  0  0
 41 43  4  0  0  0  0
 52 54  4  0  0  0  0
 62 65  1  0  0  0  0
 74 77  1  0  0  0  0
M  CHG  4   2   1   3   1   7  -1  11  -1
M  END
$$$$
KABQEM

From CSD data. Using bond type 'Any'. No disordered atoms. Largest molecule.
137152  0  0  0  0  0  0  0  0999 V2000
    3.7534    6.8658    2.0500 Ba  0  0  0  0  0  0  0  0  0  0  0  0
    3.7228    3.2363    2.7010 P   0  3  0  0  0  0  0  0  0  0  0  0
    1.5229    4.7890    4.1683 P   0  3  0  0  0  0  0  0  0  0  0  0
    4.9060    9.2948    4.5234 P   0  3  0  0  0  0  0  0  0  0  0  0
    3.3074   10.5466    2.2618 P   0  3  0  0  0  0  0  0  0  0  0  0
    2.7860    6.0929   -0.3749 O   0  0  0  0  0  0  0  0  0  0  0  0
    5.9965    7.4517    0.4900 O   0  0  0  0  0  0  0  0  0  0  0  0
    2.8381    4.4732    3.2687 N   0  0  0  0  0  0  0  0  0  0  0  0
    4.0381    9.3912    3.1505 N   0  0  0  0  0  0  0  0  0  0  0  0
    5.2974    3.9404    1.8611 B   0  5  0  0  0  0  0  0  0  0  0  0
    0.8739    6.5275    3.6618 B   0  5  0  0  0  0  0  0  0  0  0  0
    5.5230    7.4868    4.7297 B   0  5  0  0  0  0  0  0  0  0  0  0
    2.5315    9.6931    0.7234 B   0  5  0  0  0  0  0  0  0  0  0  0
    4.1638    2.0136    3.9740 C   0  0  0  0  0  0  0  0  0  0  0  0
    5.4391    2.0521    4.5388 C   0  0  0  0  0  0  0  0  0  0  0  0
    6.0569    2.6815    4.2388 H   0  0  0  0  0  0  0  0  0  0  0  0
    5.7973    1.1629    5.5418 C   0  0  0  0  0  0  0  0  0  0  0  0
    6.6504    1.1925    5.9099 H   0  0  0  0  0  0  0  0  0  0  0  0
    4.8792    0.2317    5.9922 C   0  0  0  0  0  0  0  0  0  0  0  0
    5.1161   -0.3645    6.6664 H   0  0  0  0  0  0  0  0  0  0  0  0
    3.6101    0.1845    5.4435 C   0  0  0  0  0  0  0  0  0  0  0  0
    2.9964   -0.4427    5.7497 H   0  0  0  0  0  0  0  0  0  0  0  0
    3.2505    1.0688    4.4373 C   0  0  0  0  0  0  0  0  0  0  0  0
    2.3961    1.0301    4.0697 H   0  0  0  0  0  0  0  0  0  0  0  0
    2.7756    2.2710    1.4703 C   0  0  0  0  0  0  0  0  0  0  0  0
    3.2229    1.0124    1.0756 C   0  0  0  0  0  0  0  0  0  0  0  0
    3.9685    0.6390    1.4864 H   0  0  0  0  0  0  0  0  0  0  0  0
    2.5633    0.3105    0.0737 C   0  0  0  0  0  0  0  0  0  0  0  0
    2.8729   -0.5269   -0.1869 H   0  0  0  0  0  0  0  0  0  0  0  0
    1.4530    0.8530   -0.5336 C   0  0  0  0  0  0  0  0  0  0  0  0
    1.0006    0.3734   -1.1882 H   0  0  0  0  0  0  0  0  0  0  0  0
    1.0131    2.1060   -0.1693 C   0  0  0  0  0  0  0  0  0  0  0  0
    0.2711    2.4779   -0.5897 H   0  0  0  0  0  0  0  0  0  0  0  0
    1.6778    2.8203    0.8284 C   0  0  0  0  0  0  0  0  0  0  0  0
    1.3818    3.6703    1.0636 H   0  0  0  0  0  0  0  0  0  0  0  0
    0.2101    3.5266    4.0277 C   0  0  0  0  0  0  0  0  0  0  0  0
   -0.7092    3.6128    2.9765 C   0  0  0  0  0  0  0  0  0  0  0  0
   -0.6637    4.3286    2.3831 H   0  0  0  0  0  0  0  0  0  0  0  0
   -1.6881    2.6417    2.8085 C   0  0  0  0  0  0  0  0  0  0  0  0
   -2.2766    2.6963    2.0916 H   0  0  0  0  0  0  0  0  0  0  0  0
   -1.7879    1.6027    3.6999 C   0  0  0  0  0  0  0  0  0  0  0  0
   -2.4441    0.9534    3.5824 H   0  0  0  0  0  0  0  0  0  0  0  0
   -0.9190    1.5171    4.7677 C   0  0  0  0  0  0  0  0  0  0  0  0
   -1.0057    0.8265    5.3825 H   0  0  0  0  0  0  0  0  0  0  0  0
    0.0912    2.4683    4.9255 C   0  0  0  0  0  0  0  0  0  0  0  0
    0.6881    2.3952    5.6340 H   0  0  0  0  0  0  0  0  0  0  0  0
    1.9099    4.7828    5.9484 C   0  0  0  0  0  0  0  0  0  0  0  0
    3.1129    4.3359    6.4710 C   0  0  0  0  0  0  0  0  0  0  0  0
    3.7757    4.0201    5.8987 H   0  0  0  0  0  0  0  0  0  0  0  0
    3.3382    4.3581    7.8461 C   0  0  0  0  0  0  0  0  0  0  0  0
    4.1423    4.0378    8.1884 H   0  0  0  0  0  0  0  0  0  0  0  0
    2.3757    4.8495    8.7053 C   0  0  0  0  0  0  0  0  0  0  0  0
    2.5255    4.8584    9.6236 H   0  0  0  0  0  0  0  0  0  0  0  0
    1.1956    5.3232    8.1933 C   0  0  0  0  0  0  0  0  0  0  0  0
    0.5507    5.6730    8.7647 H   0  0  0  0  0  0  0  0  0  0  0  0
    0.9573    5.2864    6.8262 C   0  0  0  0  0  0  0  0  0  0  0  0
    0.1489    5.6022    6.4928 H   0  0  0  0  0  0  0  0  0  0  0  0
    3.9079    9.8476    5.9432 C   0  0  0  0  0  0  0  0  0  0  0  0
    3.2762    8.8726    6.7185 C   0  0  0  0  0  0  0  0  0  0  0  0
    3.4505    7.9723    6.5663 H   0  0  0  0  0  0  0  0  0  0  0  0
    2.3830    9.2519    7.7224 C   0  0  0  0  0  0  0  0  0  0  0  0
    1.9610    8.5995    8.2329 H   0  0  0  0  0  0  0  0  0  0  0  0
    2.1243   10.5771    7.9610 C   0  0  0  0  0  0  0  0  0  0  0  0
    1.5298   10.8177    8.6334 H   0  0  0  0  0  0  0  0  0  0  0  0
    2.7415   11.5512    7.2100 C   0  0  0  0  0  0  0  0  0  0  0  0
    2.5651   12.4485    7.3762 H   0  0  0  0  0  0  0  0  0  0  0  0
    3.6302   11.1911    6.2014 C   0  0  0  0  0  0  0  0  0  0  0  0
    4.0441   11.8522    5.6940 H   0  0  0  0  0  0  0  0  0  0  0  0
    6.3629   10.3859    4.4484 C   0  0  0  0  0  0  0  0  0  0  0  0
    6.7848   11.2079    5.4971 C   0  0  0  0  0  0  0  0  0  0  0  0
    6.3050   11.2191    6.2926 H   0  0  0  0  0  0  0  0  0  0  0  0
    7.9148   12.0087    5.3632 C   0  0  0  0  0  0  0  0  0  0  0  0
    8.1738   12.5680    6.0612 H   0  0  0  0  0  0  0  0  0  0  0  0
    8.6491   11.9762    4.2032 C   0  0  0  0  0  0  0  0  0  0  0  0
    9.3993   12.5193    4.1098 H   0  0  0  0  0  0  0  0  0  0  0  0
    8.2675   11.1320    3.1694 C   0  0  0  0  0  0  0  0  0  0  0  0
    8.7779   11.0937    2.3920 H   0  0  0  0  0  0  0  0  0  0  0  0
    7.1350   10.3487    3.2867 C   0  0  0  0  0  0  0  0  0  0  0  0
    6.8861    9.7920    2.5856 H   0  0  0  0  0  0  0  0  0  0  0  0
    4.4877   11.8691    1.8328 C   0  0  0  0  0  0  0  0  0  0  0  0
    4.9503   12.7888    2.7696 C   0  0  0  0  0  0  0  0  0  0  0  0
    4.5828   12.7953    3.6247 H   0  0  0  0  0  0  0  0  0  0  0  0
    5.9536   13.6977    2.4503 C   0  0  0  0  0  0  0  0  0  0  0  0
    6.2582   14.3006    3.0907 H   0  0  0  0  0  0  0  0  0  0  0  0
    6.4948   13.7014    1.1795 C   0  0  0  0  0  0  0  0  0  0  0  0
    7.1685   14.3036    0.9612 H   0  0  0  0  0  0  0  0  0  0  0  0
    6.0330   12.8056    0.2319 C   0  0  0  0  0  0  0  0  0  0  0  0
    6.3915   12.8115   -0.6253 H   0  0  0  0  0  0  0  0  0  0  0  0
    5.0306   11.8965    0.5574 C   0  0  0  0  0  0  0  0  0  0  0  0
    4.7223   11.3018   -0.0868 H   0  0  0  0  0  0  0  0  0  0  0  0
    1.9874   11.3831    3.2039 C   0  0  0  0  0  0  0  0  0  0  0  0
    1.2163   10.6579    4.0993 C   0  0  0  0  0  0  0  0  0  0  0  0
    1.4062    9.7595    4.2455 H   0  0  0  0  0  0  0  0  0  0  0  0
    0.1668   11.2531    4.7793 C   0  0  0  0  0  0  0  0  0  0  0  0
   -0.3384   10.7601    5.3847 H   0  0  0  0  0  0  0  0  0  0  0  0
   -0.1258   12.5916    4.5530 C   0  0  0  0  0  0  0  0  0  0  0  0
   -0.8192   13.0004    5.0176 H   0  0  0  0  0  0  0  0  0  0  0  0
    0.6130   13.3118    3.6400 C   0  0  0  0  0  0  0  0  0  0  0  0
    0.4022   14.2032    3.4756 H   0  0  0  0  0  0  0  0  0  0  0  0
    1.6676   12.7202    2.9638 C   0  0  0  0  0  0  0  0  0  0  0  0
    2.1618   13.2129    2.3497 H   0  0  0  0  0  0  0  0  0  0  0  0
    1.4730    6.4153   -0.8767 C   0  0  0  0  0  0  0  0  0  0  0  0
    1.4142    7.3613   -1.0858 H   0  0  0  0  0  0  0  0  0  0  0  0
    0.7950    6.2014   -0.2158 H   0  0  0  0  0  0  0  0  0  0  0  0
    1.2784    5.6051   -2.0978 C   0  0  0  0  0  0  0  0  0  0  0  0
    0.8832    4.7447   -1.8891 H   0  0  0  0  0  0  0  0  0  0  0  0
    0.7163    6.0671   -2.7391 H   0  0  0  0  0  0  0  0  0  0  0  0
    3.4783    5.3144   -1.3704 C   0  0  0  0  0  0  0  0  0  0  0  0
    3.5417    4.3861   -1.0992 H   0  0  0  0  0  0  0  0  0  0  0  0
    4.3744    5.6597   -1.5131 H   0  0  0  0  0  0  0  0  0  0  0  0
    2.6549    5.4502   -2.6098 C   0  0  0  0  0  0  0  0  0  0  0  0
    2.9252    6.2264   -3.1240 H   0  0  0  0  0  0  0  0  0  0  0  0
    2.7327    4.6591   -3.1663 H   0  0  0  0  0  0  0  0  0  0  0  0
    7.2375    6.7843    0.5874 C   0  0  0  0  0  0  0  0  0  0  0  0
    7.1487    5.9564    1.0836 H   0  0  0  0  0  0  0  0  0  0  0  0
    7.9000    7.3436    1.0213 H   0  0  0  0  0  0  0  0  0  0  0  0
    5.9202    8.1022   -0.8277 C   0  0  0  0  0  0  0  0  0  0  0  0
    5.0807    7.8956   -1.2594 H   0  0  0  0  0  0  0  0  0  0  0  0
    6.0074    9.0585   -0.7387 H   0  0  0  0  0  0  0  0  0  0  0  0
    7.6130    6.5172   -0.8300 C   0  0  0  0  0  0  0  0  0  0  0  0
    6.9538    5.9888   -1.3084 H   0  0  0  0  0  0  0  0  0  0  0  0
    8.4957    6.1276   -0.9256 H   0  0  0  0  0  0  0  0  0  0  0  0
    7.0199    7.5694   -1.5998 C   0  0  0  0  0  0  0  0  0  0  0  0
    6.6966    7.2241   -2.4476 H   0  0  0  0  0  0  0  0  0  0  0  0
    7.6703    8.2645   -1.7756 H   0  0  0  0  0  0  0  0  0  0  0  0
    4.9352    4.5160    1.0102 H   0  0  0  0  0  0  0  0  0  0  0  0
    5.8017    4.5750    2.5856 H   0  0  0  0  0  0  0  0  0  0  0  0
    5.9464    3.1140    1.5175 H   0  0  0  0  0  0  0  0  0  0  0  0
    0.7615    6.5231    2.5633 H   0  0  0  0  0  0  0  0  0  0  0  0
    1.7140    7.2757    4.0341 H   0  0  0  0  0  0  0  0  0  0  0  0
   -0.0298    6.7445    4.1365 H   0  0  0  0  0  0  0  0  0  0  0  0
    4.6529    6.8182    4.7817 H   0  0  0  0  0  0  0  0  0  0  0  0
    6.1142    7.2757    3.8005 H   0  0  0  0  0  0  0  0  0  0  0  0
    6.1079    7.4381    5.6540 H   0  0  0  0  0  0  0  0  0  0  0  0
    3.2985    9.1795    0.2292 H   0  0  0  0  0  0  0  0  0  0  0  0
    1.8474    8.9582    1.1482 H   0  0  0  0  0  0  0  0  0  0  0  0
    1.9750   10.4340    0.1402 H   0  0  0  0  0  0  0  0  0  0  0  0
  1  6  1  0  0  0  0
  2  8  1  0  0  0  0
  3  8  1  0  0  0  0
  4  9  1  0  0  0  0
  5  9  1  0  0  0  0
  6102  1  0  0  0  0
  7  1  1  0  0  0  0
  8  1  1  0  0  0  0
  9  1  1  0  0  0  0
 10  2  1  0  0  0  0
 11  3  1  0  0  0  0
 12  4  1  0  0  0  0
 13  5  1  0  0  0  0
 14  2  1  0  0  0  0
 15 14  4  0  0  0  0
 16 15  1  0  0  0  0
 17 15  4  0  0  0  0
 18 17  1  0  0  0  0
 19 17  4  0  0  0  0
 20 19  1  0  0  0  0
 21 19  4  0  0  0  0
 22 21  1  0  0  0  0
 23 14  4  0  0  0  0
 24 23  1  0  0  0  0
 25  2  1  0  0  0  0
 26 25  4  0  0  0  0
 27 26  1  0  0  0  0
 28 26  4  0  0  0  0
 29 28  1  0  0  0  0
 30 28  4  0  0  0  0
 31 30  1  0  0  0  0
 32 30  4  0  0  0  0
 33 32  1  0  0  0  0
 34 25  4  0  0  0  0
 35 34  1  0  0  0  0
 36  3  1  0  0  0  0
 37 36  4  0  0  0  0
 38 37  1  0  0  0  0
 39 37  4  0  0  0  0
 40 39  1  0  0  0  0
 41 39  4  0  0  0  0
 42 41  1  0  0  0  0
 43 41  4  0  0  0  0
 44 43  1  0  0  0  0
 45 36  4  0  0  0  0
 46 45  1  0  0  0  0
 47  3  1  0  0  0  0
 48 47  4  0  0  0  0
 49 48  1  0  0  0  0
 50 48  4  0  0  0  0
 51 50  1  0  0  0  0
 52 50  4  0  0  0  0
 53 52  1  0  0  0  0
 54 52  4  0  0  0  0
 55 54  1  0  0  0  0
 56 47  4  0  0  0  0
 57 56  1  0  0  0  0
 58  4  1  0  0  0  0
 59 58  4  0  0  0  0
 60 59  1  0  0  0  0
 61 59  4  0  0  0  0
 62 61  1  0  0  0  0
 63 61  4  0  0  0  0
 64 63  1  0  0  0  0
 65 63  4  0  0  0  0
 66 65  1  0  0  0  0
 67 58  4  0  0  0  0
 68 67  1  0  0  0  0
 69  4  1  0  0  0  0
 70 69  4  0  0  0  0
 71 70  1  0  0  0  0
 72 70  4  0  0  0  0
 73 72  1  0  0  0  0
 74 72  4  0  0  0  0
 75 74  1  0  0  0  0
 76 74  4  0  0  0  0
 77 76  1  0  0  0  0
 78 69  4  0  0  0  0
 79 78  1  0  0  0  0
 80  5  1  0  0  0  0
 81 80  4  0  0  0  0
 82 81  1  0  0  0  0
 83 81  4  0  0  0  0
 84 83  1  0  0  0  0
 85 83  4  0  0  0  0
 86 85  1  0  0  0  0
 87 85  4  0  0  0  0
 88 87  1  0  0  0  0
 89 80  4  0  0  0  0
 90 89  1  0  0  0  0
 91  5  1  0  0  0  0
 92 91  4  0  0  0  0
 93 92  1  0  0  0  0
 94 92  4  0  0  0  0
 95 94  1  0  0  0  0
 96 94  4  0  0  0  0
 97 96  1  0  0  0  0
 98 96  4  0  0  0  0
 99 98  1  0  0  0  0
100 91  4  0  0  0  0
101100  1  0  0  0  0
102103  1  0  0  0  0
104102  1  0  0  0  0
105102  1  0  0  0  0
106105  1  0  0  0  0
107105  1  0  0  0  0
108  6  1  0  0  0  0
109108  1  0  0  0  0
110108  1  0  0  0  0
111105  1  0  0  0  0
112111  1  0  0  0  0
113111  1  0  0  0  0
114  7  1  0  0  0  0
115114  1  0  0  0  0
116114  1  0  0  0  0
117  7  1  0  0  0  0
118117  1  0  0  0  0
119117  1  0  0  0  0
120114  1  0  0  0  0
121120  1  0  0  0  0
122120  1  0  0  0  0
123117  1  0  0  0  0
124123  1  0  0  0  0
125123  1  0  0  0  0
126  1  1  0  0  0  0
127 10  1  0  0  0  0
128 10  1  0  0  0  0
129 11  1  0  0  0  0
130  1  1  0  0  0  0
131 11  1  0  0  0  0
132  1  1  0  0  0  0
133  1  1  0  0  0  0
134 12  1  0  0  0  0
135  1  1  0  0  0  0
136  1  1  0  0  0  0
137 13  1  0  0  0  0
 10126  1  0  0  0  0
 11130  1  0  0  0  0
 12132  1  0  0  0  0
 12133  1  0  0  0  0
 13135  1  0  0  0  0
 13136  1  0  0  0  0
 21 23  4  0  0  0  0
 32 34  4  0  0  0  0
 43 45  4  0  0  0  0
 54 56  4  0  0  0  0
 65 67  4  0  0  0  0
 76 78  4  0  0  0  0
 87 89  4  0  0  0  0
 98100  4  0  0  0  0
108111  1  0  0  0  0
120123  1  0  0  0  0
M  CHG  8   2   1   3   1   4   1   5   1  10  -1  11  -1  12  -1  13  -1
M  END
$$$$
KACHIG

From CSD data. Using bond type 'Any'. No disordered atoms. Largest molecule.
 72 75  0  0  0  0  0  0  0  0999 V2000
    3.8040    5.2712   22.6443 P   0  0  0  0  0  0  0  0  0  0  0  0
    2.7920    5.3405   17.1482 P   0  0  0  0  0  0  0  0  0  0  0  0
    4.3876    7.0627   22.3248 B   0  0  0  0  0  0  0  0  0  0  0  0
    5.4899    7.1433   22.5417 H   0  0  0  0  0  0  0  0  0  0  0  0
    3.8194    7.7695   22.9969 H   0  0  0  0  0  0  0  0  0  0  0  0
    4.1935    7.3342   21.2473 H   0  0  0  0  0  0  0  0  0  0  0  0
    2.5944    7.0900   17.8987 B   0  0  0  0  0  0  0  0  0  0  0  0
    2.0185    7.0243   18.8396 H   0  0  0  0  0  0  0  0  0  0  0  0
    2.0533    7.7372   17.1860 H   0  0  0  0  0  0  0  0  0  0  0  0
    3.5932    7.5165   18.1047 H   0  0  0  0  0  0  0  0  0  0  0  0
    4.6541    4.1621   21.7407 N   0  0  0  0  0  0  0  0  0  0  0  0
    4.4885    3.2412   22.0070 H   0  0  0  0  0  0  0  0  0  0  0  0
    3.6901    4.3167   18.0879 N   0  0  0  0  0  0  0  0  0  0  0  0
    2.0219    5.0565   22.3906 C   0  0  0  0  0  0  0  0  0  0  0  0
    1.2598    6.1389   21.9532 C   0  0  0  0  0  0  0  0  0  0  0  0
    1.6722    6.9846   21.8205 H   0  0  0  0  0  0  0  0  0  0  0  0
   -0.0948    5.9877   21.7127 C   0  0  0  0  0  0  0  0  0  0  0  0
   -0.6169    6.7267   21.4256 H   0  0  0  0  0  0  0  0  0  0  0  0
   -0.6717    4.7638   21.8942 C   0  0  0  0  0  0  0  0  0  0  0  0
   -1.6026    4.6671   21.7327 H   0  0  0  0  0  0  0  0  0  0  0  0
    0.0618    3.6491   22.3089 C   0  0  0  0  0  0  0  0  0  0  0  0
   -0.3619    2.8072   22.4265 H   0  0  0  0  0  0  0  0  0  0  0  0
    1.4277    3.7979   22.5455 C   0  0  0  0  0  0  0  0  0  0  0  0
    2.2743    2.7899   22.9160 O   0  0  0  0  0  0  0  0  0  0  0  0
    1.7427    1.4929   23.1121 C   0  0  0  0  0  0  0  0  0  0  0  0
    1.0762    1.5189   23.8306 H   0  0  0  0  0  0  0  0  0  0  0  0
    2.4657    0.8791   23.3589 H   0  0  0  0  0  0  0  0  0  0  0  0
    1.3198    1.1841   22.2839 H   0  0  0  0  0  0  0  0  0  0  0  0
    4.1022    4.7725   24.3563 C   0  0  0  0  0  0  0  0  0  0  0  0
    5.3585    4.2580   24.7314 C   0  0  0  0  0  0  0  0  0  0  0  0
    6.0284    4.1092   24.0747 H   0  0  0  0  0  0  0  0  0  0  0  0
    5.6117    3.9728   26.0557 C   0  0  0  0  0  0  0  0  0  0  0  0
    6.4548    3.6119   26.3014 H   0  0  0  0  0  0  0  0  0  0  0  0
    4.6599    4.2034   27.0341 C   0  0  0  0  0  0  0  0  0  0  0  0
    4.8530    4.0112   27.9440 H   0  0  0  0  0  0  0  0  0  0  0  0
    3.4253    4.7167   26.6793 C   0  0  0  0  0  0  0  0  0  0  0  0
    2.7719    4.8854   27.3490 H   0  0  0  0  0  0  0  0  0  0  0  0
    3.1408    4.9846   25.3463 C   0  0  0  0  0  0  0  0  0  0  0  0
    2.2838    5.3156   25.1058 H   0  0  0  0  0  0  0  0  0  0  0  0
    3.6254    5.3516   15.5414 C   0  0  0  0  0  0  0  0  0  0  0  0
    3.9404    6.5717   14.9466 C   0  0  0  0  0  0  0  0  0  0  0  0
    3.7490    7.3838   15.3980 H   0  0  0  0  0  0  0  0  0  0  0  0
    4.5381    6.5977   13.6849 C   0  0  0  0  0  0  0  0  0  0  0  0
    4.7495    7.4297   13.2782 H   0  0  0  0  0  0  0  0  0  0  0  0
    4.8191    5.4247   13.0328 C   0  0  0  0  0  0  0  0  0  0  0  0
    5.2150    5.4545   12.1703 H   0  0  0  0  0  0  0  0  0  0  0  0
    4.5381    4.2009   13.6054 C   0  0  0  0  0  0  0  0  0  0  0  0
    4.7521    3.3950   13.1521 H   0  0  0  0  0  0  0  0  0  0  0  0
    3.9360    4.1674   14.8597 C   0  0  0  0  0  0  0  0  0  0  0  0
    3.6176    3.0127   15.5203 O   0  0  0  0  0  0  0  0  0  0  0  0
    3.9743    1.7632   14.9187 C   0  0  0  0  0  0  0  0  0  0  0  0
    3.7202    1.0292   15.5159 H   0  0  0  0  0  0  0  0  0  0  0  0
    4.9418    1.7396   14.7645 H   0  0  0  0  0  0  0  0  0  0  0  0
    3.5036    1.6665   14.0653 H   0  0  0  0  0  0  0  0  0  0  0  0
    1.1389    4.6237   16.8492 C   0  0  0  0  0  0  0  0  0  0  0  0
    0.1705    5.3751   16.1897 C   0  0  0  0  0  0  0  0  0  0  0  0
    0.4028    6.2171   15.8176 H   0  0  0  0  0  0  0  0  0  0  0  0
   -1.1293    4.9077   16.0721 C   0  0  0  0  0  0  0  0  0  0  0  0
   -1.7879    5.4322   15.6339 H   0  0  0  0  0  0  0  0  0  0  0  0
   -1.4599    3.6727   16.5967 C   0  0  0  0  0  0  0  0  0  0  0  0
   -2.3526    3.3565   16.5251 H   0  0  0  0  0  0  0  0  0  0  0  0
   -0.5133    2.8990   17.2200 C   0  0  0  0  0  0  0  0  0  0  0  0
   -0.7465    2.0434   17.5589 H   0  0  0  0  0  0  0  0  0  0  0  0
    0.7917    3.3739   17.3533 C   0  0  0  0  0  0  0  0  0  0  0  0
    1.4469    2.8407   17.7893 H   0  0  0  0  0  0  0  0  0  0  0  0
    3.4827    4.2456   19.5394 C   0  0  0  0  0  0  0  0  0  0  0  0
    3.0599    3.3813   19.7692 H   0  0  0  0  0  0  0  0  0  0  0  0
    2.8694    4.9709   19.8186 H   0  0  0  0  0  0  0  0  0  0  0  0
    4.7965    4.3795   20.2908 C   0  0  0  0  0  0  0  0  0  0  0  0
    5.4429    3.7235   19.9283 H   0  0  0  0  0  0  0  0  0  0  0  0
    5.1654    5.2846   20.1367 H   0  0  0  0  0  0  0  0  0  0  0  0
    3.8194    3.5462   17.7646 H   0  0  0  0  0  0  0  0  0  0  0  0
  1  3  1  0  0  0  0
  2  7  1  0  0  0  0
  3  4  1  0  0  0  0
  5  3  1  0  0  0  0
  6  3  1  0  0  0  0
  7  8  1  0  0  0  0
  9  7  1  0  0  0  0
 10  7  1  0  0  0  0
 11  1  1  0  0  0  0
 12 11  1  0  0  0  0
 13  2  1  0  0  0  0
 14  1  1  0  0  0  0
 15 14  4  0  0  0  0
 16 15  1  0  0  0  0
 17 15  4  0  0  0  0
 18 17  1  0  0  0  0
 19 17  4  0  0  0  0
 20 19  1  0  0  0  0
 21 19  4  0  0  0  0
 22 21  1  0  0  0  0
 23 14  4  0  0  0  0
 24 23  1  0  0  0  0
 25 24  1  0  0  0  0
 26 25  1  0  0  0  0
 27 25  1  0  0  0  0
 28 25  1  0  0  0  0
 29  1  1  0  0  0  0
 30 29  4  0  0  0  0
 31 30  1  0  0  0  0
 32 30  4  0  0  0  0
 33 32  1  0  0  0  0
 34 32  4  0  0  0  0
 35 34  1  0  0  0  0
 36 34  4  0  0  0  0
 37 36  1  0  0  0  0
 38 29  4  0  0  0  0
 39 38  1  0  0  0  0
 40  2  1  0  0  0  0
 41 40  4  0  0  0  0
 42 41  1  0  0  0  0
 43 41  4  0  0  0  0
 44 43  1  0  0  0  0
 45 43  4  0  0  0  0
 46 45  1  0  0  0  0
 47 45  4  0  0  0  0
 48 47  1  0  0  0  0
 49 40  4  0  0  0  0
 50 49  1  0  0  0  0
 51 50  1  0  0  0  0
 52 51  1  0  0  0  0
 53 51  1  0  0  0  0
 54 51  1  0  0  0  0
 55  2  1  0  0  0  0
 56 55  4  0  0  0  0
 57 56  1  0  0  0  0
 58 56  4  0  0  0  0
 59 58  1  0  0  0  0
 60 58  4  0  0  0  0
 61 60  1  0  0  0  0
 62 60  4  0  0  0  0
 63 62  1  0  0  0  0
 64 55  4  0  0  0  0
 65 64  1  0  0  0  0
 66 13  1  0  0  0  0
 67 66  1  0  0  0  0
 68 66  1  0  0  0  0
 69 11  1  0  0  0  0
 70 69  1  0  0  0  0
 71 69  1  0  0  0  0
 72 13  1  0  0  0  0
 21 23  4  0  0  0  0
 36 38  4  0  0  0  0
 47 49  4  0  0  0  0
 62 64  4  0  0  0  0
 66 69  1  0  0  0  0
M  END
$$$$
KACJAA

From CSD data. Using bond type 'Any'. No disordered atoms. Largest molecule.
 46 48  0  0  0  0  0  0  0  0999 V2000
    0.1769    1.1188   -2.3143 P   0  0  0  0  0  0  0  0  0  0  0  0
    1.7416    0.2595   -3.0111 B   0  0  0  0  0  0  0  0  0  0  0  0
    0.3278    1.8373   -0.8523 O   0  0  0  0  0  0  0  0  0  0  0  0
   -0.4849    2.4110   -3.3857 C   0  0  0  0  0  0  0  0  0  0  0  0
    0.3415    2.9437   -4.3457 C   0  0  0  0  0  0  0  0  0  0  0  0
   -0.1434    3.9477   -5.1933 C   0  0  0  0  0  0  0  0  0  0  0  0
   -1.4206    4.3849   -5.0341 C   0  0  0  0  0  0  0  0  0  0  0  0
   -2.1856    3.8794   -4.0975 C   0  0  0  0  0  0  0  0  0  0  0  0
   -1.7621    2.8754   -3.2874 C   0  0  0  0  0  0  0  0  0  0  0  0
   -1.1748    0.0137   -1.9762 C   0  0  0  0  0  0  0  0  0  0  0  0
    1.5777    2.3154   -0.4355 C   0  0  0  0  0  0  0  0  0  0  0  0
    2.0080    3.5448   -0.8898 C   0  0  0  0  0  0  0  0  0  0  0  0
    3.2374    3.9887   -0.4542 C   0  0  0  0  0  0  0  0  0  0  0  0
    1.3093    2.5742   -4.4815 H   0  0  0  0  0  0  0  0  0  0  0  0
    0.4289    4.4149   -5.9286 H   0  0  0  0  0  0  0  0  0  0  0  0
   -1.7355    5.1730   -5.6663 H   0  0  0  0  0  0  0  0  0  0  0  0
   -3.1240    4.2551   -4.0648 H   0  0  0  0  0  0  0  0  0  0  0  0
   -2.4144    2.4684   -2.5896 H   0  0  0  0  0  0  0  0  0  0  0  0
   -1.9868    0.5614   -1.6109 H   0  0  0  0  0  0  0  0  0  0  0  0
   -1.5149   -0.4180   -2.8285 H   0  0  0  0  0  0  0  0  0  0  0  0
   -0.9589   -0.6728   -1.3159 H   0  0  0  0  0  0  0  0  0  0  0  0
    1.4404    4.1328   -1.5407 H   0  0  0  0  0  0  0  0  0  0  0  0
    3.6254    4.8452   -0.7961 H   0  0  0  0  0  0  0  0  0  0  0  0
    2.3154    1.5777    0.4355 C   0  0  0  0  0  0  0  0  0  0  0  0
    1.8373    0.3278    0.8523 O   0  0  0  0  0  0  0  0  0  0  0  0
    1.1188    0.1769    2.3143 P   0  0  0  0  0  0  0  0  0  0  0  0
    0.2595    1.7417    3.0111 B   0  0  0  0  0  0  0  0  0  0  0  0
    2.4110   -0.4849    3.3857 C   0  0  0  0  0  0  0  0  0  0  0  0
    2.9437    0.3415    4.3457 C   0  0  0  0  0  0  0  0  0  0  0  0
    3.9477   -0.1434    5.1933 C   0  0  0  0  0  0  0  0  0  0  0  0
    4.3849   -1.4206    5.0341 C   0  0  0  0  0  0  0  0  0  0  0  0
    3.8794   -2.1856    4.0975 C   0  0  0  0  0  0  0  0  0  0  0  0
    2.8754   -1.7621    3.2874 C   0  0  0  0  0  0  0  0  0  0  0  0
    2.4684   -2.4144    2.5896 H   0  0  0  0  0  0  0  0  0  0  0  0
    4.2551   -3.1240    4.0648 H   0  0  0  0  0  0  0  0  0  0  0  0
    5.1730   -1.7355    5.6663 H   0  0  0  0  0  0  0  0  0  0  0  0
    4.4149    0.4289    5.9286 H   0  0  0  0  0  0  0  0  0  0  0  0
    2.5742    1.3093    4.4815 H   0  0  0  0  0  0  0  0  0  0  0  0
    0.0137   -1.1748    1.9762 C   0  0  0  0  0  0  0  0  0  0  0  0
    0.5614   -1.9868    1.6109 H   0  0  0  0  0  0  0  0  0  0  0  0
   -0.4180   -1.5149    2.8285 H   0  0  0  0  0  0  0  0  0  0  0  0
   -0.6728   -0.9589    1.3159 H   0  0  0  0  0  0  0  0  0  0  0  0
    3.5448    2.0080    0.8898 C   0  0  0  0  0  0  0  0  0  0  0  0
    3.9887    3.2374    0.4542 C   0  0  0  0  0  0  0  0  0  0  0  0
    4.8452    3.6254    0.7961 H   0  0  0  0  0  0  0  0  0  0  0  0
    4.1328    1.4404    1.5407 H   0  0  0  0  0  0  0  0  0  0  0  0
  1  2  1  0  0  0  0
  3  1  1  0  0  0  0
  4  1  1  0  0  0  0
  5  4  4  0  0  0  0
  6  5  4  0  0  0  0
  7  6  4  0  0  0  0
  8  7  4  0  0  0  0
  9  4  4  0  0  0  0
 10  1  1  0  0  0  0
 11  3  1  0  0  0  0
 12 11  4  0  0  0  0
 13 12  4  0  0  0  0
 14  5  1  0  0  0  0
 15  6  1  0  0  0  0
 16  7  1  0  0  0  0
 17  8  1  0  0  0  0
 18  9  1  0  0  0  0
 19 10  1  0  0  0  0
 20 10  1  0  0  0  0
 21 10  1  0  0  0  0
 22 12  1  0  0  0  0
 23 13  1  0  0  0  0
 24 11  4  0  0  0  0
 25 24  1  0  0  0  0
 26 25  1  0  0  0  0
 27 26  1  0  0  0  0
 28 26  1  0  0  0  0
 29 28  4  0  0  0  0
 30 29  4  0  0  0  0
 31 30  4  0  0  0  0
 32 31  4  0  0  0  0
 33 28  4  0  0  0  0
 34 33  1  0  0  0  0
 35 32  1  0  0  0  0
 36 31  1  0  0  0  0
 37 30  1  0  0  0  0
 38 29  1  0  0  0  0
 39 26  1  0  0  0  0
 40 39  1  0  0  0  0
 41 39  1  0  0  0  0
 42 39  1  0  0  0  0
 43 24  4  0  0  0  0
 44 13  4  0  0  0  0
 45 44  1  0  0  0  0
 46 43  1  0  0  0  0
  8  9  4  0  0  0  0
 32 33  4  0  0  0  0
 43 44  4  0  0  0  0
M  END
$$$$
KAFNAH

From CSD data. Using bond type 'Any'. No disordered atoms. Largest molecule.
 90113  0  0  0  0  0  0  0  0999 V2000
   10.6075    3.7244    4.1824 Re  0  0  0  0  0  0  0  0  0  0  0  0
   10.2106    1.5722    4.4923 C   0  0  0  0  0  0  0  0  0  0  0  0
    9.3229    2.2337    5.6485 B   0  0  0  0  0  0  0  0  0  0  0  0
    8.2095    2.1595    5.5521 H   0  0  0  0  0  0  0  0  0  0  0  0
    9.9421    3.7526    6.6401 B   0  0  0  0  0  0  0  0  0  0  0  0
    9.1634    4.4192    7.0917 H   0  0  0  0  0  0  0  0  0  0  0  0
   11.4137    4.5099    6.1403 B   0  0  0  0  0  0  0  0  0  0  0  0
   11.6596    5.5436    6.2627 H   0  0  0  0  0  0  0  0  0  0  0  0
   12.4222    3.1747    5.7850 B   0  0  0  0  0  0  0  0  0  0  0  0
   13.4977    3.4215    5.5983 H   0  0  0  0  0  0  0  0  0  0  0  0
   11.7730    1.6937    4.8576 B   0  0  0  0  0  0  0  0  0  0  0  0
   12.5083    1.2024    4.1711 H   0  0  0  0  0  0  0  0  0  0  0  0
   10.5278    0.9022    5.9556 B   0  0  0  0  0  0  0  0  0  0  0  0
   10.3512   -0.1824    6.1704 H   0  0  0  0  0  0  0  0  0  0  0  0
   10.2320    2.0840    7.1981 B   0  0  0  0  0  0  0  0  0  0  0  0
    9.7146    1.7248    8.1235 H   0  0  0  0  0  0  0  0  0  0  0  0
   11.5218    3.2719    7.3607 B   0  0  0  0  0  0  0  0  0  0  0  0
   11.9145    3.5363    8.3744 H   0  0  0  0  0  0  0  0  0  0  0  0
   11.9153    1.7173    6.6642 B   0  0  0  0  0  0  0  0  0  0  0  0
   12.6780    1.0874    7.1901 H   0  0  0  0  0  0  0  0  0  0  0  0
   11.3986    5.4293    3.6011 C   0  0  0  0  0  0  0  0  0  0  0  0
   11.9483    6.3396    3.1414 O   0  0  0  0  0  0  0  0  0  0  0  0
   11.3522    3.2052    2.4228 C   0  0  0  0  0  0  0  0  0  0  0  0
   11.7996    2.9336    1.4312 O   0  0  0  0  0  0  0  0  0  0  0  0
    8.8310    3.9186    3.3762 C   0  0  0  0  0  0  0  0  0  0  0  0
    7.7795    3.9458    2.9447 O   0  0  0  0  0  0  0  0  0  0  0  0
    9.8083    5.9846    5.5241 Pt  0  0  0  0  0  0  0  0  0  0  0  0
    8.3949    7.3147    4.4204 P   0  0  0  0  0  0  0  0  0  0  0  0
    6.6718    6.7198    4.5244 C   0  0  0  0  0  0  0  0  0  0  0  0
    5.6605    7.4549    3.9383 C   0  0  0  0  0  0  0  0  0  0  0  0
    5.8721    8.2376    3.4425 H   0  0  0  0  0  0  0  0  0  0  0  0
    4.3410    7.0576    4.0647 C   0  0  0  0  0  0  0  0  0  0  0  0
    3.6470    7.5576    3.6533 H   0  0  0  0  0  0  0  0  0  0  0  0
    4.0410    5.9157    4.8034 C   0  0  0  0  0  0  0  0  0  0  0  0
    3.1385    5.6452    4.9219 H   0  0  0  0  0  0  0  0  0  0  0  0
    5.0675    5.1762    5.3635 C   0  0  0  0  0  0  0  0  0  0  0  0
    4.8697    4.3760    5.8352 H   0  0  0  0  0  0  0  0  0  0  0  0
    6.3607    5.5902    5.2430 C   0  0  0  0  0  0  0  0  0  0  0  0
    7.0538    5.0930    5.6605 H   0  0  0  0  0  0  0  0  0  0  0  0
    8.7449    7.6725    2.6817 C   0  0  0  0  0  0  0  0  0  0  0  0
    8.0767    7.0153    1.6600 C   0  0  0  0  0  0  0  0  0  0  0  0
    7.3881    6.3930    1.8628 H   0  0  0  0  0  0  0  0  0  0  0  0
    8.4159    7.2703    0.3553 C   0  0  0  0  0  0  0  0  0  0  0  0
    7.9733    6.7992   -0.3412 H   0  0  0  0  0  0  0  0  0  0  0  0
    9.3829    8.1952    0.0361 C   0  0  0  0  0  0  0  0  0  0  0  0
    9.5718    8.3924   -0.8732 H   0  0  0  0  0  0  0  0  0  0  0  0
   10.0639    8.8208    1.0217 C   0  0  0  0  0  0  0  0  0  0  0  0
   10.7622    9.4244    0.7969 H   0  0  0  0  0  0  0  0  0  0  0  0
    9.7537    8.5965    2.3606 C   0  0  0  0  0  0  0  0  0  0  0  0
   10.2194    9.0598    3.0471 H   0  0  0  0  0  0  0  0  0  0  0  0
   11.0616    8.6475    7.2262 C   0  0  0  0  0  0  0  0  0  0  0  0
   11.0605    9.6507    8.1837 C   0  0  0  0  0  0  0  0  0  0  0  0
   10.3441    9.7205    8.8019 H   0  0  0  0  0  0  0  0  0  0  0  0
   12.1231   10.5612    8.2298 C   0  0  0  0  0  0  0  0  0  0  0  0
   12.1329   11.2386    8.8943 H   0  0  0  0  0  0  0  0  0  0  0  0
   13.1396   10.4858    7.3326 C   0  0  0  0  0  0  0  0  0  0  0  0
   13.8540   11.1113    7.3707 H   0  0  0  0  0  0  0  0  0  0  0  0
   13.1331    9.5045    6.3711 C   0  0  0  0  0  0  0  0  0  0  0  0
   13.8370    9.4653    5.7348 H   0  0  0  0  0  0  0  0  0  0  0  0
   12.1103    8.5726    6.3229 C   0  0  0  0  0  0  0  0  0  0  0  0
   12.1272    7.8825    5.6686 H   0  0  0  0  0  0  0  0  0  0  0  0
    9.4263    6.8803    8.8340 C   0  0  0  0  0  0  0  0  0  0  0  0
   10.5428    6.5157    9.5727 C   0  0  0  0  0  0  0  0  0  0  0  0
   11.4157    6.6338    9.2174 H   0  0  0  0  0  0  0  0  0  0  0  0
   10.3647    5.9717   10.8514 C   0  0  0  0  0  0  0  0  0  0  0  0
   11.1219    5.7386   11.3753 H   0  0  0  0  0  0  0  0  0  0  0  0
    9.1040    5.7742   11.3492 C   0  0  0  0  0  0  0  0  0  0  0  0
    8.9966    5.3910   12.2103 H   0  0  0  0  0  0  0  0  0  0  0  0
    8.0211    6.1123   10.6446 C   0  0  0  0  0  0  0  0  0  0  0  0
    7.1544    5.9700   11.0059 H   0  0  0  0  0  0  0  0  0  0  0  0
    8.1657    6.6774    9.3720 C   0  0  0  0  0  0  0  0  0  0  0  0
    7.3946    6.9223    8.8742 H   0  0  0  0  0  0  0  0  0  0  0  0
    9.6718    0.7067    3.3783 C   0  0  0  0  0  0  0  0  0  0  0  0
   10.5273    0.1351    2.4449 C   0  0  0  0  0  0  0  0  0  0  0  0
   11.4605    0.3075    2.4850 H   0  0  0  0  0  0  0  0  0  0  0  0
   10.0039   -0.6994    1.4412 C   0  0  0  0  0  0  0  0  0  0  0  0
   10.5921   -1.0925    0.8069 H   0  0  0  0  0  0  0  0  0  0  0  0
    8.6658   -0.9562    1.3629 C   0  0  0  0  0  0  0  0  0  0  0  0
    8.3214   -1.5109    0.6744 H   0  0  0  0  0  0  0  0  0  0  0  0
    7.8212   -0.3994    2.2943 C   0  0  0  0  0  0  0  0  0  0  0  0
    6.8892   -0.5807    2.2562 H   0  0  0  0  0  0  0  0  0  0  0  0
    8.3209    0.4231    3.2859 C   0  0  0  0  0  0  0  0  0  0  0  0
    7.7229    0.8032    3.9202 H   0  0  0  0  0  0  0  0  0  0  0  0
    9.6483    7.5206    7.1624 P   0  0  0  0  0  0  0  0  0  0  0  0
    8.3133    8.9229    5.2812 C   0  0  0  0  0  0  0  0  0  0  0  0
    9.1118    9.4670    5.0704 H   0  0  0  0  0  0  0  0  0  0  0  0
    7.5077    9.4234    4.9961 H   0  0  0  0  0  0  0  0  0  0  0  0
    8.2517    8.6324    6.7846 C   0  0  0  0  0  0  0  0  0  0  0  0
    7.3929    8.1986    7.0175 H   0  0  0  0  0  0  0  0  0  0  0  0
    8.3316    9.4739    7.3005 H   0  0  0  0  0  0  0  0  0  0  0  0
  1  2  1  0  0  0  0
  2  3  1  0  0  0  0
  3  1  1  0  0  0  0
  4  3  1  0  0  0  0
  5  1  1  0  0  0  0
  6  5  1  0  0  0  0
  7  1  1  0  0  0  0
  8  7  1  0  0  0  0
  9  1  1  0  0  0  0
 10  9  1  0  0  0  0
 11  1  1  0  0  0  0
 12 11  1  0  0  0  0
 13  2  1  0  0  0  0
 14 13  1  0  0  0  0
 15  3  1  0  0  0  0
 16 15  1  0  0  0  0
 17  5  1  0  0  0  0
 18 17  1  0  0  0  0
 19  9  1  0  0  0  0
 20 19  1  0  0  0  0
 21  1  1  0  0  0  0
 22 21  3  0  0  0  0
 23  1  1  0  0  0  0
 24 23  3  0  0  0  0
 25  1  1  0  0  0  0
 26 25  3  0  0  0  0
 27  1  1  0  0  0  0
 28 27  1  0  0  0  0
 29 28  1  0  0  0  0
 30 29  4  0  0  0  0
 31 30  1  0  0  0  0
 32 30  4  0  0  0  0
 33 32  1  0  0  0  0
 34 32  4  0  0  0  0
 35 34  1  0  0  0  0
 36 34  4  0  0  0  0
 37 36  1  0  0  0  0
 38 29  4  0  0  0  0
 39 38  1  0  0  0  0
 40 28  1  0  0  0  0
 41 40  4  0  0  0  0
 42 41  1  0  0  0  0
 43 41  4  0  0  0  0
 44 43  1  0  0  0  0
 45 43  4  0  0  0  0
 46 45  1  0  0  0  0
 47 45  4  0  0  0  0
 48 47  1  0  0  0  0
 49 40  4  0  0  0  0
 50 49  1  0  0  0  0
 51 52  4  0  0  0  0
 52 53  1  0  0  0  0
 54 52  4  0  0  0  0
 55 54  1  0  0  0  0
 56 54  4  0  0  0  0
 57 56  1  0  0  0  0
 58 56  4  0  0  0  0
 59 58  1  0  0  0  0
 60 51  4  0  0  0  0
 61 60  1  0  0  0  0
 62 63  4  0  0  0  0
 63 64  1  0  0  0  0
 65 63  4  0  0  0  0
 66 65  1  0  0  0  0
 67 65  4  0  0  0  0
 68 67  1  0  0  0  0
 69 67  4  0  0  0  0
 70 69  1  0  0  0  0
 71 62  4  0  0  0  0
 72 71  1  0  0  0  0
 73  2  1  0  0  0  0
 74 73  4  0  0  0  0
 75 74  1  0  0  0  0
 76 74  4  0  0  0  0
 77 76  1  0  0  0  0
 78 76  4  0  0  0  0
 79 78  1  0  0  0  0
 80 78  4  0  0  0  0
 81 80  1  0  0  0  0
 82 73  4  0  0  0  0
 83 82  1  0  0  0  0
 84 27  1  0  0  0  0
 85 28  1  0  0  0  0
 86 85  1  0  0  0  0
 87 85  1  0  0  0  0
 88 84  1  0  0  0  0
 89 88  1  0  0  0  0
 90 88  1  0  0  0  0
  2 11  1  0  0  0  0
  3  5  1  0  0  0  0
  3 13  1  0  0  0  0
  5  7  1  0  0  0  0
  5 15  1  0  0  0  0
  7  9  1  0  0  0  0
  7 17  1  0  0  0  0
  8 27  1  0  0  0  0
  9 11  1  0  0  0  0
  9 17  1  0  0  0  0
 11 13  1  0  0  0  0
 11 19  1  0  0  0  0
 13 15  1  0  0  0  0
 13 19  1  0  0  0  0
 15 17  1  0  0  0  0
 15 19  1  0  0  0  0
 17 19  1  0  0  0  0
 36 38  4  0  0  0  0
 47 49  4  0  0  0  0
 51 84  1  0  0  0  0
 58 60  4  0  0  0  0
 62 84  1  0  0  0  0
 69 71  4  0  0  0  0
 80 82  4  0  0  0  0
 85 88  1  0  0  0  0
M  END
$$$$
KAFNEL

From CSD data. Using bond type 'Any'. No disordered atoms. Largest molecule.
107132  0  0  0  0  0  0  0  0999 V2000
   -4.5757    5.0454   14.7994 Re  0  0  0  0  0  0  0  0  0  0  0  0
   -4.7711    2.9909   13.9015 C   0  0  0  0  0  0  0  0  0  0  0  0
   -6.1498    3.6370   13.4047 B   0  0  0  0  0  0  0  0  0  0  0  0
   -6.2709    3.8019   12.3042 H   0  0  0  0  0  0  0  0  0  0  0  0
   -7.0586    4.8412   14.5639 B   0  0  0  0  0  0  0  0  0  0  0  0
   -7.7581    5.5581   13.8732 H   0  0  0  0  0  0  0  0  0  0  0  0
   -6.4169    5.3108   16.0925 B   0  0  0  0  0  0  0  0  0  0  0  0
   -6.5187    6.2807   16.6438 H   0  0  0  0  0  0  0  0  0  0  0  0
   -5.7630    3.7989   16.6176 B   0  0  0  0  0  0  0  0  0  0  0  0
   -5.4728    3.5476   17.7707 H   0  0  0  0  0  0  0  0  0  0  0  0
   -4.8700    2.6252   15.4524 B   0  0  0  0  0  0  0  0  0  0  0  0
   -4.0282    2.0314   15.8906 H   0  0  0  0  0  0  0  0  0  0  0  0
   -6.1139    2.0561   14.2630 B   0  0  0  0  0  0  0  0  0  0  0  0
   -6.2792    1.0288   13.8490 H   0  0  0  0  0  0  0  0  0  0  0  0
   -7.4854    3.1177   14.4851 B   0  0  0  0  0  0  0  0  0  0  0  0
   -8.4733    2.8084   14.0570 H   0  0  0  0  0  0  0  0  0  0  0  0
   -7.4679    3.9257   16.0723 B   0  0  0  0  0  0  0  0  0  0  0  0
   -8.4013    3.9596   16.6923 H   0  0  0  0  0  0  0  0  0  0  0  0
   -6.5872    2.3986   15.9027 B   0  0  0  0  0  0  0  0  0  0  0  0
   -6.8960    1.5350   16.5469 H   0  0  0  0  0  0  0  0  0  0  0  0
   -4.0847    6.8156   15.4383 C   0  0  0  0  0  0  0  0  0  0  0  0
   -3.6772    7.8418   15.7715 O   0  0  0  0  0  0  0  0  0  0  0  0
   -4.2147    5.6910   12.9928 C   0  0  0  0  0  0  0  0  0  0  0  0
   -4.0592    6.0370   11.9245 O   0  0  0  0  0  0  0  0  0  0  0  0
   -2.7002    4.6418   15.1737 C   0  0  0  0  0  0  0  0  0  0  0  0
   -1.6078    4.4264   15.4221 O   0  0  0  0  0  0  0  0  0  0  0  0
   -3.7310    2.4357   12.9807 C   0  0  0  0  0  0  0  0  0  0  0  0
   -3.8845    2.5068   11.5933 C   0  0  0  0  0  0  0  0  0  0  0  0
   -4.6538    2.9278   11.2258 H   0  0  0  0  0  0  0  0  0  0  0  0
   -2.9256    1.9706   10.7553 C   0  0  0  0  0  0  0  0  0  0  0  0
   -3.0458    2.0195    9.8142 H   0  0  0  0  0  0  0  0  0  0  0  0
   -1.8110    1.3723   11.2601 C   0  0  0  0  0  0  0  0  0  0  0  0
   -1.1585    1.0087   10.6725 H   0  0  0  0  0  0  0  0  0  0  0  0
   -1.6301    1.2950   12.6192 C   0  0  0  0  0  0  0  0  0  0  0  0
   -0.8492    0.8841   12.9706 H   0  0  0  0  0  0  0  0  0  0  0  0
   -2.5873    1.8168   13.4855 C   0  0  0  0  0  0  0  0  0  0  0  0
   -2.4612    1.7512   14.4265 H   0  0  0  0  0  0  0  0  0  0  0  0
   -6.5893    6.8701   14.3371 Cu  0  0  0  0  0  0  0  0  0  0  0  0
   -6.8479    8.9848   13.8114 P   0  0  0  0  0  0  0  0  0  0  0  0
   -7.8346    9.2451   12.2618 C   0  0  0  0  0  0  0  0  0  0  0  0
   -8.5553   10.3869   11.9407 C   0  0  0  0  0  0  0  0  0  0  0  0
   -8.7000   11.0534   12.6010 H   0  0  0  0  0  0  0  0  0  0  0  0
   -9.0666   10.5621   10.6624 C   0  0  0  0  0  0  0  0  0  0  0  0
   -9.5377   11.3546   10.4281 H   0  0  0  0  0  0  0  0  0  0  0  0
   -8.8710    9.5506    9.7395 C   0  0  0  0  0  0  0  0  0  0  0  0
   -9.3304    9.6053    8.9096 H   0  0  0  0  0  0  0  0  0  0  0  0
   -8.0400    8.4586    9.9576 C   0  0  0  0  0  0  0  0  0  0  0  0
   -7.7802    7.8789    9.2508 H   0  0  0  0  0  0  0  0  0  0  0  0
   -7.6141    8.2633   11.2500 C   0  0  0  0  0  0  0  0  0  0  0  0
   -7.1643    7.4568   11.4742 H   0  0  0  0  0  0  0  0  0  0  0  0
   -5.0057    9.8216   13.8268 C   0  0  0  0  0  0  0  0  0  0  0  0
   -4.7770   10.8729   14.6709 C   0  0  0  0  0  0  0  0  0  0  0  0
   -5.4840   11.2084   15.2121 H   0  0  0  0  0  0  0  0  0  0  0  0
   -3.5818   11.4302   14.7416 C   0  0  0  0  0  0  0  0  0  0  0  0
   -3.4268   12.1414   15.3514 H   0  0  0  0  0  0  0  0  0  0  0  0
   -2.4856   10.9681   13.8813 C   0  0  0  0  0  0  0  0  0  0  0  0
   -1.6328   11.3853   13.9136 H   0  0  0  0  0  0  0  0  0  0  0  0
   -2.7162    9.9396   13.0493 C   0  0  0  0  0  0  0  0  0  0  0  0
   -2.0228    9.6077   12.4920 H   0  0  0  0  0  0  0  0  0  0  0  0
   -3.9908    9.3615   13.0150 C   0  0  0  0  0  0  0  0  0  0  0  0
   -4.1589    8.6389   12.4213 H   0  0  0  0  0  0  0  0  0  0  0  0
   -8.1822    9.7934   15.0606 C   0  0  0  0  0  0  0  0  0  0  0  0
   -9.0514    9.0181   15.8522 C   0  0  0  0  0  0  0  0  0  0  0  0
   -8.9831    8.0715   15.8058 H   0  0  0  0  0  0  0  0  0  0  0  0
   -9.9906    9.5635   16.6802 C   0  0  0  0  0  0  0  0  0  0  0  0
  -10.5897    9.0166   17.1689 H   0  0  0  0  0  0  0  0  0  0  0  0
  -10.0281   10.9226   16.7812 C   0  0  0  0  0  0  0  0  0  0  0  0
  -10.6522   11.3141   17.3809 H   0  0  0  0  0  0  0  0  0  0  0  0
   -9.2162   11.7441   16.0622 C   0  0  0  0  0  0  0  0  0  0  0  0
   -9.2745   12.6869   16.1612 H   0  0  0  0  0  0  0  0  0  0  0  0
   -8.3063   11.1896   15.1818 C   0  0  0  0  0  0  0  0  0  0  0  0
   -7.7573   11.7575   14.6547 H   0  0  0  0  0  0  0  0  0  0  0  0
   -4.6948    5.3303   17.5689 Cu  0  0  0  0  0  0  0  0  0  0  0  0
   -3.8450    6.4171   19.2751 P   0  0  0  0  0  0  0  0  0  0  0  0
   -4.6590    5.9411   20.8321 C   0  0  0  0  0  0  0  0  0  0  0  0
   -5.3278    4.7179   20.8967 C   0  0  0  0  0  0  0  0  0  0  0  0
   -5.2766    4.1164   20.1616 H   0  0  0  0  0  0  0  0  0  0  0  0
   -6.0609    4.3732   22.0094 C   0  0  0  0  0  0  0  0  0  0  0  0
   -6.5034    3.5329   22.0396 H   0  0  0  0  0  0  0  0  0  0  0  0
   -6.1591    5.2379   23.0817 C   0  0  0  0  0  0  0  0  0  0  0  0
   -6.6962    5.0140   23.8329 H   0  0  0  0  0  0  0  0  0  0  0  0
   -5.4639    6.4296   23.0473 C   0  0  0  0  0  0  0  0  0  0  0  0
   -5.4961    7.0120   23.7985 H   0  0  0  0  0  0  0  0  0  0  0  0
   -4.7223    6.7843   21.9367 C   0  0  0  0  0  0  0  0  0  0  0  0
   -4.2537    7.6116   21.9245 H   0  0  0  0  0  0  0  0  0  0  0  0
   -2.0536    6.1889   19.4892 C   0  0  0  0  0  0  0  0  0  0  0  0
   -1.4631    5.7699   20.6786 C   0  0  0  0  0  0  0  0  0  0  0  0
   -1.9986    5.6182   21.4480 H   0  0  0  0  0  0  0  0  0  0  0  0
   -0.0976    5.5733   20.7351 C   0  0  0  0  0  0  0  0  0  0  0  0
    0.3034    5.2791   21.5449 H   0  0  0  0  0  0  0  0  0  0  0  0
    0.6854    5.8005   19.6325 C   0  0  0  0  0  0  0  0  0  0  0  0
    1.6234    5.6596   19.6790 H   0  0  0  0  0  0  0  0  0  0  0  0
    0.1146    6.2345   18.4552 C   0  0  0  0  0  0  0  0  0  0  0  0
    0.6610    6.4102   17.6980 H   0  0  0  0  0  0  0  0  0  0  0  0
   -1.2511    6.4146   18.3785 C   0  0  0  0  0  0  0  0  0  0  0  0
   -1.6459    6.6949   17.5586 H   0  0  0  0  0  0  0  0  0  0  0  0
   -4.0400    8.2368   19.1903 C   0  0  0  0  0  0  0  0  0  0  0  0
   -3.1226    9.1006   19.7355 C   0  0  0  0  0  0  0  0  0  0  0  0
   -2.3535    8.7568   20.1757 H   0  0  0  0  0  0  0  0  0  0  0  0
   -3.3132   10.4805   19.6487 C   0  0  0  0  0  0  0  0  0  0  0  0
   -2.6701   11.0763   20.0142 H   0  0  0  0  0  0  0  0  0  0  0  0
   -4.4320   10.9688   19.0308 C   0  0  0  0  0  0  0  0  0  0  0  0
   -4.5642   11.9072   18.9641 H   0  0  0  0  0  0  0  0  0  0  0  0
   -5.3667   10.1050   18.5037 C   0  0  0  0  0  0  0  0  0  0  0  0
   -6.1466   10.4484   18.0837 H   0  0  0  0  0  0  0  0  0  0  0  0
   -5.1681    8.7360   18.5865 C   0  0  0  0  0  0  0  0  0  0  0  0
   -5.8148    8.1409   18.2250 H   0  0  0  0  0  0  0  0  0  0  0  0
  1  2  1  0  0  0  0
  2  3  1  0  0  0  0
  3  1  1  0  0  0  0
  4  3  1  0  0  0  0
  5  1  1  0  0  0  0
  6  5  1  0  0  0  0
  7  1  1  0  0  0  0
  8  7  1  0  0  0  0
  9  1  1  0  0  0  0
 10  9  1  0  0  0  0
 11  1  1  0  0  0  0
 12 11  1  0  0  0  0
 13  2  1  0  0  0  0
 14 13  1  0  0  0  0
 15  3  1  0  0  0  0
 16 15  1  0  0  0  0
 17  5  1  0  0  0  0
 18 17  1  0  0  0  0
 19  9  1  0  0  0  0
 20 19  1  0  0  0  0
 21  1  1  0  0  0  0
 22 21  3  0  0  0  0
 23  1  1  0  0  0  0
 24 23  3  0  0  0  0
 25  1  1  0  0  0  0
 26 25  3  0  0  0  0
 27  2  1  0  0  0  0
 28 27  4  0  0  0  0
 29 28  1  0  0  0  0
 30 28  4  0  0  0  0
 31 30  1  0  0  0  0
 32 30  4  0  0  0  0
 33 32  1  0  0  0  0
 34 32  4  0  0  0  0
 35 34  1  0  0  0  0
 36 27  4  0  0  0  0
 37 36  1  0  0  0  0
 38  1  1  0  0  0  0
 39 38  1  0  0  0  0
 40 39  1  0  0  0  0
 41 40  4  0  0  0  0
 42 41  1  0  0  0  0
 43 41  4  0  0  0  0
 44 43  1  0  0  0  0
 45 43  4  0  0  0  0
 46 45  1  0  0  0  0
 47 45  4  0  0  0  0
 48 47  1  0  0  0  0
 49 40  4  0  0  0  0
 50 49  1  0  0  0  0
 51 39  1  0  0  0  0
 52 51  4  0  0  0  0
 53 52  1  0  0  0  0
 54 52  4  0  0  0  0
 55 54  1  0  0  0  0
 56 54  4  0  0  0  0
 57 56  1  0  0  0  0
 58 56  4  0  0  0  0
 59 58  1  0  0  0  0
 60 51  4  0  0  0  0
 61 60  1  0  0  0  0
 62 39  1  0  0  0  0
 63 62  4  0  0  0  0
 64 63  1  0  0  0  0
 65 63  4  0  0  0  0
 66 65  1  0  0  0  0
 67 65  4  0  0  0  0
 68 67  1  0  0  0  0
 69 67  4  0  0  0  0
 70 69  1  0  0  0  0
 71 62  4  0  0  0  0
 72 71  1  0  0  0  0
 73  1  1  0  0  0  0
 74 73  1  0  0  0  0
 75 74  1  0  0  0  0
 76 75  4  0  0  0  0
 77 76  1  0  0  0  0
 78 76  4  0  0  0  0
 79 78  1  0  0  0  0
 80 78  4  0  0  0  0
 81 80  1  0  0  0  0
 82 80  4  0  0  0  0
 83 82  1  0  0  0  0
 84 75  4  0  0  0  0
 85 84  1  0  0  0  0
 86 74  1  0  0  0  0
 87 86  4  0  0  0  0
 88 87  1  0  0  0  0
 89 87  4  0  0  0  0
 90 89  1  0  0  0  0
 91 89  4  0  0  0  0
 92 91  1  0  0  0  0
 93 91  4  0  0  0  0
 94 93  1  0  0  0  0
 95 86  4  0  0  0  0
 96 95  1  0  0  0  0
 97 74  1  0  0  0  0
 98 97  4  0  0  0  0
 99 98  1  0  0  0  0
100 98  4  0  0  0  0
101100  1  0  0  0  0
102100  4  0  0  0  0
103102  1  0  0  0  0
104102  4  0  0  0  0
105104  1  0  0  0  0
106 97  4  0  0  0  0
107106  1  0  0  0  0
  2 11  1  0  0  0  0
  3  5  1  0  0  0  0
  3 13  1  0  0  0  0
  5  7  1  0  0  0  0
  5 15  1  0  0  0  0
  6 38  1  0  0  0  0
  7  9  1  0  0  0  0
  7 17  1  0  0  0  0
  9 11  1  0  0  0  0
  9 17  1  0  0  0  0
 10 73  1  0  0  0  0
 11 13  1  0  0  0  0
 11 19  1  0  0  0  0
 13 15  1  0  0  0  0
 13 19  1  0  0  0  0
 15 17  1  0  0  0  0
 15 19  1  0  0  0  0
 17 19  1  0  0  0  0
 34 36  4  0  0  0  0
 47 49  4  0  0  0  0
 58 60  4  0  0  0  0
 69 71  4  0  0  0  0
 82 84  4  0  0  0  0
 93 95  4  0  0  0  0
104106  4  0  0  0  0
M  END
$$$$
KANQID

From CSD data. Using bond type 'Any'. No disordered atoms. Largest molecule.
230266  0  0  0  0  0  0  0  0999 V2000
   12.6810    6.9655    5.5470 Cl  0  0  0  0  0  0  0  0  0  0  0  0
   16.2281    2.9314    2.7580 P   0  0  0  0  0  0  0  0  0  0  0  0
   15.7751    5.7934    8.0214 P   0  0  0  0  0  0  0  0  0  0  0  0
   13.9126    5.0330    2.6355 B   0  5  0  0  0  0  0  0  0  0  0  0
   14.0317    0.7522    3.7167 B   0  5  0  0  0  0  0  0  0  0  0  0
   13.5934    0.2634    4.5263 H   0  0  0  0  0  0  0  0  0  0  0  0
   13.4770    0.4537    2.8467 H   0  0  0  0  0  0  0  0  0  0  0  0
   15.4053    6.1467    5.3051 H   0  0  0  0  0  0  0  0  0  0  0  0
   17.0561    5.6345    4.7238 H   0  0  0  0  0  0  0  0  0  0  0  0
   16.4149    7.2297    4.1181 H   0  0  0  0  0  0  0  0  0  0  0  0
   14.1406    2.0635    6.8472 H   0  0  0  0  0  0  0  0  0  0  0  0
   13.9766    3.4978    8.0276 H   0  0  0  0  0  0  0  0  0  0  0  0
   13.9182    3.7466    6.1194 H   0  0  0  0  0  0  0  0  0  0  0  0
   16.5047    6.6209    5.0418 B   0  5  0  0  0  0  0  0  0  0  0  0
   14.4936    3.0953    6.9637 B   0  5  0  0  0  0  0  0  0  0  0  0
   15.6276    4.3905    4.7194 Li  0  3  0  0  0  0  0  0  0  0  0  0
   13.4428    5.3842    7.1267 Li  0  0  0  0  0  0  0  0  0  0  0  0
   14.4814    7.2092    3.8252 Li  0  3  0  0  0  0  0  0  0  0  0  0
   13.0955    1.8396    8.6954 Li  0  3  0  0  0  0  0  0  0  0  0  0
   12.6810    1.6596    5.5470 Li  0  3  0  0  0  0  0  0  0  0  0  0
   14.9430    2.8948    1.4506 C   0  0  0  0  0  0  0  0  0  0  0  0
   13.9235    3.8689    1.5077 C   0  0  0  0  0  0  0  0  0  0  0  0
   12.8999    3.7714    0.5558 C   0  0  0  0  0  0  0  0  0  0  0  0
   12.1933    4.4051    0.5702 H   0  0  0  0  0  0  0  0  0  0  0  0
   12.8931    2.7675   -0.4134 C   0  0  0  0  0  0  0  0  0  0  0  0
   12.1833    2.7250   -1.0428 H   0  0  0  0  0  0  0  0  0  0  0  0
   13.9117    1.8338   -0.4633 C   0  0  0  0  0  0  0  0  0  0  0  0
   13.9136    1.1591   -1.1316 H   0  0  0  0  0  0  0  0  0  0  0  0
   14.9293    1.8948    0.4748 C   0  0  0  0  0  0  0  0  0  0  0  0
   15.6272    1.2498    0.4549 H   0  0  0  0  0  0  0  0  0  0  0  0
   16.6074    1.1704    3.0726 C   0  0  0  0  0  0  0  0  0  0  0  0
   15.5807    0.3407    3.5818 C   0  0  0  0  0  0  0  0  0  0  0  0
   15.9611   -0.9425    3.9796 C   0  0  0  0  0  0  0  0  0  0  0  0
   15.2957   -1.5308    4.3178 H   0  0  0  0  0  0  0  0  0  0  0  0
   17.2695   -1.3933    3.9028 C   0  0  0  0  0  0  0  0  0  0  0  0
   17.4863   -2.2757    4.1802 H   0  0  0  0  0  0  0  0  0  0  0  0
   18.2446   -0.5620    3.4236 C   0  0  0  0  0  0  0  0  0  0  0  0
   19.1472   -0.8605    3.3881 H   0  0  0  0  0  0  0  0  0  0  0  0
   17.9189    0.7157    2.9900 C   0  0  0  0  0  0  0  0  0  0  0  0
   18.5944    1.2820    2.6359 H   0  0  0  0  0  0  0  0  0  0  0  0
   17.7127    3.6075    1.9122 C   0  0  0  0  0  0  0  0  0  0  0  0
   17.9311    3.5563    0.5407 C   0  0  0  0  0  0  0  0  0  0  0  0
   17.2905    3.1363   -0.0222 H   0  0  0  0  0  0  0  0  0  0  0  0
   19.0883    4.1198   -0.0191 C   0  0  0  0  0  0  0  0  0  0  0  0
   19.2330    4.0597   -0.9563 H   0  0  0  0  0  0  0  0  0  0  0  0
   19.9931    4.7417    0.7557 C   0  0  0  0  0  0  0  0  0  0  0  0
   20.7770    5.1120    0.3683 H   0  0  0  0  0  0  0  0  0  0  0  0
   19.7841    4.8427    2.1012 C   0  0  0  0  0  0  0  0  0  0  0  0
   20.4163    5.2964    2.6448 H   0  0  0  0  0  0  0  0  0  0  0  0
   18.6483    4.2851    2.6814 C   0  0  0  0  0  0  0  0  0  0  0  0
   18.5108    4.3685    3.6188 H   0  0  0  0  0  0  0  0  0  0  0  0
   16.8608    7.2224    7.6180 C   0  0  0  0  0  0  0  0  0  0  0  0
   17.0798    7.5092    6.2608 C   0  0  0  0  0  0  0  0  0  0  0  0
   17.8662    8.6347    5.9921 C   0  0  0  0  0  0  0  0  0  0  0  0
   18.0402    8.8571    5.0855 H   0  0  0  0  0  0  0  0  0  0  0  0
   18.4011    9.4352    6.9761 C   0  0  0  0  0  0  0  0  0  0  0  0
   18.9203   10.1977    6.7451 H   0  0  0  0  0  0  0  0  0  0  0  0
   18.1759    9.1235    8.2998 C   0  0  0  0  0  0  0  0  0  0  0  0
   18.5401    9.6664    8.9905 H   0  0  0  0  0  0  0  0  0  0  0  0
   17.4177    8.0156    8.6129 C   0  0  0  0  0  0  0  0  0  0  0  0
   17.2746    7.7902    9.5253 H   0  0  0  0  0  0  0  0  0  0  0  0
   16.7667    4.3612    7.4571 C   0  0  0  0  0  0  0  0  0  0  0  0
   16.0968    3.2275    6.9537 C   0  0  0  0  0  0  0  0  0  0  0  0
   16.9015    2.2084    6.4318 C   0  0  0  0  0  0  0  0  0  0  0  0
   16.4860    1.4254    6.0906 H   0  0  0  0  0  0  0  0  0  0  0  0
   18.2871    2.3021    6.3954 C   0  0  0  0  0  0  0  0  0  0  0  0
   18.7980    1.5967    6.0174 H   0  0  0  0  0  0  0  0  0  0  0  0
   18.9124    3.3997    6.8989 C   0  0  0  0  0  0  0  0  0  0  0  0
   19.8598    3.4553    6.8871 H   0  0  0  0  0  0  0  0  0  0  0  0
   18.1659    4.4271    7.4238 C   0  0  0  0  0  0  0  0  0  0  0  0
   18.6043    5.1954    7.7702 H   0  0  0  0  0  0  0  0  0  0  0  0
   15.8113    5.7120    9.8470 C   0  0  0  0  0  0  0  0  0  0  0  0
   16.4852    4.7637   10.5621 C   0  0  0  0  0  0  0  0  0  0  0  0
   17.0037    4.1066   10.1110 H   0  0  0  0  0  0  0  0  0  0  0  0
   16.4136    4.7593   11.9482 C   0  0  0  0  0  0  0  0  0  0  0  0
   16.9026    4.1095   12.4385 H   0  0  0  0  0  0  0  0  0  0  0  0
   15.6538    5.6711   12.6123 C   0  0  0  0  0  0  0  0  0  0  0  0
   15.6115    5.6476   13.5612 H   0  0  0  0  0  0  0  0  0  0  0  0
   14.9563    6.6179   11.9267 C   0  0  0  0  0  0  0  0  0  0  0  0
   14.4239    7.2560   12.3875 H   0  0  0  0  0  0  0  0  0  0  0  0
   15.0359    6.6297   10.5475 C   0  0  0  0  0  0  0  0  0  0  0  0
   14.5471    7.2824   10.0622 H   0  0  0  0  0  0  0  0  0  0  0  0
   14.5626    0.6527    9.3846 O   0  0  0  0  0  0  0  0  0  0  0  0
   14.5435   -0.7566    9.1725 C   0  0  0  0  0  0  0  0  0  0  0  0
   13.6084   -1.0786    9.2213 H   0  0  0  0  0  0  0  0  0  0  0  0
   15.0574   -1.2015    9.8914 H   0  0  0  0  0  0  0  0  0  0  0  0
   15.1288   -1.1474    7.8323 C   0  0  0  0  0  0  0  0  0  0  0  0
   14.9498   -2.0957    7.6615 H   0  0  0  0  0  0  0  0  0  0  0  0
   16.0978   -0.9952    7.8434 H   0  0  0  0  0  0  0  0  0  0  0  0
   14.7197   -0.6059    7.1267 H   0  0  0  0  0  0  0  0  0  0  0  0
   15.7405    1.3640    9.9025 C   0  0  0  0  0  0  0  0  0  0  0  0
   15.9702    2.0548    9.2324 H   0  0  0  0  0  0  0  0  0  0  0  0
   15.4465    1.8469   10.7145 H   0  0  0  0  0  0  0  0  0  0  0  0
   16.8386    0.7596   10.2064 C   0  0  0  0  0  0  0  0  0  0  0  0
   16.6684    0.1171   10.9275 H   0  0  0  0  0  0  0  0  0  0  0  0
   17.5011    1.4167   10.5037 H   0  0  0  0  0  0  0  0  0  0  0  0
   17.1798    0.2854    9.4188 H   0  0  0  0  0  0  0  0  0  0  0  0
   14.1839    8.8966    2.9769 O   0  0  0  0  0  0  0  0  0  0  0  0
   13.3531    9.1264    1.7417 C   0  0  0  0  0  0  0  0  0  0  0  0
   12.3949    8.9844    1.9481 H   0  0  0  0  0  0  0  0  0  0  0  0
   13.4685   10.0557    1.4245 H   0  0  0  0  0  0  0  0  0  0  0  0
   13.7917    8.1649    0.6789 C   0  0  0  0  0  0  0  0  0  0  0  0
   13.3373    7.3058    0.8054 H   0  0  0  0  0  0  0  0  0  0  0  0
   14.7608    8.0317    0.7389 H   0  0  0  0  0  0  0  0  0  0  0  0
   13.5659    8.5264   -0.2041 H   0  0  0  0  0  0  0  0  0  0  0  0
   13.8175   10.1377    3.7187 C   0  0  0  0  0  0  0  0  0  0  0  0
   12.8773   10.1055    4.0204 H   0  0  0  0  0  0  0  0  0  0  0  0
   13.9475   10.9411    3.1551 H   0  0  0  0  0  0  0  0  0  0  0  0
   14.8303   10.1377    4.9723 C   0  0  0  0  0  0  0  0  0  0  0  0
   13.8844   10.3660    5.0877 H   0  0  0  0  0  0  0  0  0  0  0  0
   15.3880   10.8621    5.3251 H   0  0  0  0  0  0  0  0  0  0  0  0
   15.0274    9.3079    5.4538 H   0  0  0  0  0  0  0  0  0  0  0  0
   13.0052    5.7662    2.4540 H   0  0  0  0  0  0  0  0  0  0  0  0
   13.6622    4.5661    3.7120 H   0  0  0  0  0  0  0  0  0  0  0  0
   14.9649    5.6520    2.6670 H   0  0  0  0  0  0  0  0  0  0  0  0
   13.8885    1.8865    3.9361 H   0  0  0  0  0  0  0  0  0  0  0  0
    9.1338    2.9314    8.3360 P   0  0  0  0  0  0  0  0  0  0  0  0
    9.5868    5.7934    3.0726 P   0  0  0  0  0  0  0  0  0  0  0  0
   11.4493    5.0330    8.4585 B   0  5  0  0  0  0  0  0  0  0  0  0
   11.3302    0.7522    7.3772 B   0  5  0  0  0  0  0  0  0  0  0  0
   11.7685    0.2634    6.5676 H   0  0  0  0  0  0  0  0  0  0  0  0
   11.8850    0.4537    8.2472 H   0  0  0  0  0  0  0  0  0  0  0  0
    9.9566    6.1467    5.7888 H   0  0  0  0  0  0  0  0  0  0  0  0
    8.3058    5.6345    6.3701 H   0  0  0  0  0  0  0  0  0  0  0  0
    8.9470    7.2297    6.9759 H   0  0  0  0  0  0  0  0  0  0  0  0
   11.2213    2.0635    4.2468 H   0  0  0  0  0  0  0  0  0  0  0  0
   11.3854    3.4978    3.0664 H   0  0  0  0  0  0  0  0  0  0  0  0
   11.4438    3.7466    4.9745 H   0  0  0  0  0  0  0  0  0  0  0  0
    8.8572    6.6209    6.0522 B   0  5  0  0  0  0  0  0  0  0  0  0
   10.8684    3.0953    4.1303 B   0  5  0  0  0  0  0  0  0  0  0  0
    9.7344    4.3905    6.3746 Li  0  3  0  0  0  0  0  0  0  0  0  0
   11.9191    5.3842    3.9672 Li  0  0  0  0  0  0  0  0  0  0  0  0
   10.8806    7.2092    7.2688 Li  0  3  0  0  0  0  0  0  0  0  0  0
   12.2665    1.8396    2.3985 Li  0  3  0  0  0  0  0  0  0  0  0  0
   10.4189    2.8948    9.6433 C   0  0  0  0  0  0  0  0  0  0  0  0
   11.4385    3.8689    9.5863 C   0  0  0  0  0  0  0  0  0  0  0  0
   12.4621    3.7714   10.5381 C   0  0  0  0  0  0  0  0  0  0  0  0
   13.1686    4.4051   10.5237 H   0  0  0  0  0  0  0  0  0  0  0  0
   12.4688    2.7675   11.5073 C   0  0  0  0  0  0  0  0  0  0  0  0
   13.1787    2.7250   12.1368 H   0  0  0  0  0  0  0  0  0  0  0  0
   11.4502    1.8338   11.5572 C   0  0  0  0  0  0  0  0  0  0  0  0
   11.4484    1.1591   12.2255 H   0  0  0  0  0  0  0  0  0  0  0  0
   10.4326    1.8948   10.6191 C   0  0  0  0  0  0  0  0  0  0  0  0
    9.7348    1.2498   10.6391 H   0  0  0  0  0  0  0  0  0  0  0  0
    8.7546    1.1704    8.0214 C   0  0  0  0  0  0  0  0  0  0  0  0
    9.7813    0.3407    7.5122 C   0  0  0  0  0  0  0  0  0  0  0  0
    9.4008   -0.9425    7.1143 C   0  0  0  0  0  0  0  0  0  0  0  0
   10.0662   -1.5308    6.7762 H   0  0  0  0  0  0  0  0  0  0  0  0
    8.0924   -1.3933    7.1911 C   0  0  0  0  0  0  0  0  0  0  0  0
    7.8756   -2.2757    6.9137 H   0  0  0  0  0  0  0  0  0  0  0  0
    7.1174   -0.5620    7.6704 C   0  0  0  0  0  0  0  0  0  0  0  0
    6.2148   -0.8605    7.7059 H   0  0  0  0  0  0  0  0  0  0  0  0
    7.4431    0.7157    8.1039 C   0  0  0  0  0  0  0  0  0  0  0  0
    6.7676    1.2820    8.4580 H   0  0  0  0  0  0  0  0  0  0  0  0
    7.6492    3.6075    9.1818 C   0  0  0  0  0  0  0  0  0  0  0  0
    7.4309    3.5563   10.5532 C   0  0  0  0  0  0  0  0  0  0  0  0
    8.0714    3.1363   11.1161 H   0  0  0  0  0  0  0  0  0  0  0  0
    6.2736    4.1198   11.1130 C   0  0  0  0  0  0  0  0  0  0  0  0
    6.1290    4.0597   12.0502 H   0  0  0  0  0  0  0  0  0  0  0  0
    5.3688    4.7417   10.3382 C   0  0  0  0  0  0  0  0  0  0  0  0
    4.5850    5.1120   10.7256 H   0  0  0  0  0  0  0  0  0  0  0  0
    5.5779    4.8427    8.9927 C   0  0  0  0  0  0  0  0  0  0  0  0
    4.9457    5.2964    8.4491 H   0  0  0  0  0  0  0  0  0  0  0  0
    6.7136    4.2851    8.4125 C   0  0  0  0  0  0  0  0  0  0  0  0
    6.8511    4.3685    7.4751 H   0  0  0  0  0  0  0  0  0  0  0  0
    8.5012    7.2224    3.4760 C   0  0  0  0  0  0  0  0  0  0  0  0
    8.2821    7.5092    4.8332 C   0  0  0  0  0  0  0  0  0  0  0  0
    7.4957    8.6347    5.1019 C   0  0  0  0  0  0  0  0  0  0  0  0
    7.3217    8.8571    6.0085 H   0  0  0  0  0  0  0  0  0  0  0  0
    6.9608    9.4352    4.1178 C   0  0  0  0  0  0  0  0  0  0  0  0
    6.4416   10.1977    4.3488 H   0  0  0  0  0  0  0  0  0  0  0  0
    7.1861    9.1235    2.7941 C   0  0  0  0  0  0  0  0  0  0  0  0
    6.8219    9.6664    2.1034 H   0  0  0  0  0  0  0  0  0  0  0  0
    7.9443    8.0156    2.4810 C   0  0  0  0  0  0  0  0  0  0  0  0
    8.0873    7.7902    1.5687 H   0  0  0  0  0  0  0  0  0  0  0  0
    8.5953    4.3612    3.6368 C   0  0  0  0  0  0  0  0  0  0  0  0
    9.2652    3.2275    4.1403 C   0  0  0  0  0  0  0  0  0  0  0  0
    8.4604    2.2084    4.6621 C   0  0  0  0  0  0  0  0  0  0  0  0
    8.8759    1.4254    5.0034 H   0  0  0  0  0  0  0  0  0  0  0  0
    7.0749    2.3021    4.6985 C   0  0  0  0  0  0  0  0  0  0  0  0
    6.5640    1.5967    5.0766 H   0  0  0  0  0  0  0  0  0  0  0  0
    6.4496    3.3997    4.1951 C   0  0  0  0  0  0  0  0  0  0  0  0
    5.5021    3.4553    4.2068 H   0  0  0  0  0  0  0  0  0  0  0  0
    7.1960    4.4271    3.6701 C   0  0  0  0  0  0  0  0  0  0  0  0
    6.7577    5.1954    3.3237 H   0  0  0  0  0  0  0  0  0  0  0  0
    9.5507    5.7120    1.2470 C   0  0  0  0  0  0  0  0  0  0  0  0
    8.8767    4.7637    0.5318 C   0  0  0  0  0  0  0  0  0  0  0  0
    8.3582    4.1066    0.9829 H   0  0  0  0  0  0  0  0  0  0  0  0
    8.9483    4.7593   -0.8542 C   0  0  0  0  0  0  0  0  0  0  0  0
    8.4593    4.1095   -1.3446 H   0  0  0  0  0  0  0  0  0  0  0  0
    9.7082    5.6711   -1.5183 C   0  0  0  0  0  0  0  0  0  0  0  0
    9.7504    5.6476   -2.4673 H   0  0  0  0  0  0  0  0  0  0  0  0
   10.4056    6.6179   -0.8327 C   0  0  0  0  0  0  0  0  0  0  0  0
   10.9381    7.2560   -1.2936 H   0  0  0  0  0  0  0  0  0  0  0  0
   10.3260    6.6297    0.5465 C   0  0  0  0  0  0  0  0  0  0  0  0
   10.8148    7.2824    1.0317 H   0  0  0  0  0  0  0  0  0  0  0  0
   10.7994    0.6527    1.7094 O   0  0  0  0  0  0  0  0  0  0  0  0
   10.8184   -0.7566    1.9215 C   0  0  0  0  0  0  0  0  0  0  0  0
   11.7535   -1.0786    1.8727 H   0  0  0  0  0  0  0  0  0  0  0  0
   10.3046   -1.2015    1.2026 H   0  0  0  0  0  0  0  0  0  0  0  0
   10.2332   -1.1474    3.2616 C   0  0  0  0  0  0  0  0  0  0  0  0
   10.4121   -2.0957    3.4325 H   0  0  0  0  0  0  0  0  0  0  0  0
    9.2641   -0.9952    3.2505 H   0  0  0  0  0  0  0  0  0  0  0  0
   10.6423   -0.6059    3.9672 H   0  0  0  0  0  0  0  0  0  0  0  0
    9.6215    1.3640    1.1915 C   0  0  0  0  0  0  0  0  0  0  0  0
    9.3918    2.0548    1.8616 H   0  0  0  0  0  0  0  0  0  0  0  0
    9.9155    1.8469    0.3794 H   0  0  0  0  0  0  0  0  0  0  0  0
    8.5233    0.7596    0.8875 C   0  0  0  0  0  0  0  0  0  0  0  0
    8.6936    0.1171    0.1664 H   0  0  0  0  0  0  0  0  0  0  0  0
    7.8608    1.4167    0.5902 H   0  0  0  0  0  0  0  0  0  0  0  0
    8.1821    0.2854    1.6752 H   0  0  0  0  0  0  0  0  0  0  0  0
   11.1780    8.8966    8.1170 O   0  0  0  0  0  0  0  0  0  0  0  0
   12.0089    9.1264    9.3522 C   0  0  0  0  0  0  0  0  0  0  0  0
   12.9670    8.9844    9.1458 H   0  0  0  0  0  0  0  0  0  0  0  0
   11.8935   10.0557    9.6695 H   0  0  0  0  0  0  0  0  0  0  0  0
   11.5703    8.1649   10.4150 C   0  0  0  0  0  0  0  0  0  0  0  0
   12.0247    7.3058   10.2885 H   0  0  0  0  0  0  0  0  0  0  0  0
   10.6011    8.0317   10.3551 H   0  0  0  0  0  0  0  0  0  0  0  0
   11.7961    8.5264   11.2981 H   0  0  0  0  0  0  0  0  0  0  0  0
   11.5444   10.1377    7.3753 C   0  0  0  0  0  0  0  0  0  0  0  0
   12.4846   10.1055    7.0735 H   0  0  0  0  0  0  0  0  0  0  0  0
   11.4144   10.9411    7.9388 H   0  0  0  0  0  0  0  0  0  0  0  0
   10.5316   10.1377    6.1216 C   0  0  0  0  0  0  0  0  0  0  0  0
   11.4775   10.3660    6.0063 H   0  0  0  0  0  0  0  0  0  0  0  0
    9.9739   10.8621    5.7688 H   0  0  0  0  0  0  0  0  0  0  0  0
   10.3346    9.3079    5.6402 H   0  0  0  0  0  0  0  0  0  0  0  0
   12.3567    5.7662    8.6400 H   0  0  0  0  0  0  0  0  0  0  0  0
   11.6998    4.5661    7.3819 H   0  0  0  0  0  0  0  0  0  0  0  0
   10.3970    5.6520    8.4270 H   0  0  0  0  0  0  0  0  0  0  0  0
   11.4734    1.8865    7.1578 H   0  0  0  0  0  0  0  0  0  0  0  0
  1 17  1  0  0  0  0
  2 16  1  0  0  0  0
  3 17  1  0  0  0  0
  4 22  1  0  0  0  0
  5  6  1  0  0  0  0
  6 20  1  0  0  0  0
  7  5  1  0  0  0  0
  8 14  1  0  0  0  0
  9 14  1  0  0  0  0
 10 14  1  0  0  0  0
 11 15  1  0  0  0  0
 12 15  1  0  0  0  0
 13 15  1  0  0  0  0
 14 53  1  0  0  0  0
 15 63  1  0  0  0  0
 16  8  1  0  0  0  0
 17 12  1  0  0  0  0
 18  1  1  0  0  0  0
 19 11  1  0  0  0  0
 20 11  1  0  0  0  0
 21  2  1  0  0  0  0
 22 21  4  0  0  0  0
 23 22  4  0  0  0  0
 24 23  1  0  0  0  0
 25 23  4  0  0  0  0
 26 25  1  0  0  0  0
 27 25  4  0  0  0  0
 28 27  1  0  0  0  0
 29 21  4  0  0  0  0
 30 29  1  0  0  0  0
 31  2  1  0  0  0  0
 32  5  1  0  0  0  0
 33 32  4  0  0  0  0
 34 33  1  0  0  0  0
 35 33  4  0  0  0  0
 36 35  1  0  0  0  0
 37 35  4  0  0  0  0
 38 37  1  0  0  0  0
 39 31  4  0  0  0  0
 40 39  1  0  0  0  0
 41  2  1  0  0  0  0
 42 41  4  0  0  0  0
 43 42  1  0  0  0  0
 44 42  4  0  0  0  0
 45 44  1  0  0  0  0
 46 44  4  0  0  0  0
 47 46  1  0  0  0  0
 48 46  4  0  0  0  0
 49 48  1  0  0  0  0
 50 41  4  0  0  0  0
 51 50  1  0  0  0  0
 52  3  1  0  0  0  0
 53 52  4  0  0  0  0
 54 53  4  0  0  0  0
 55 54  1  0  0  0  0
 56 54  4  0  0  0  0
 57 56  1  0  0  0  0
 58 56  4  0  0  0  0
 59 58  1  0  0  0  0
 60 52  4  0  0  0  0
 61 60  1  0  0  0  0
 62  3  1  0  0  0  0
 63 62  4  0  0  0  0
 64 63  4  0  0  0  0
 65 64  1  0  0  0  0
 66 64  4  0  0  0  0
 67 66  1  0  0  0  0
 68 66  4  0  0  0  0
 69 68  1  0  0  0  0
 70 62  4  0  0  0  0
 71 70  1  0  0  0  0
 72  3  1  0  0  0  0
 73 72  4  0  0  0  0
 74 73  1  0  0  0  0
 75 73  4  0  0  0  0
 76 75  1  0  0  0  0
 77 75  4  0  0  0  0
 78 77  1  0  0  0  0
 79 77  4  0  0  0  0
 80 79  1  0  0  0  0
 81 72  4  0  0  0  0
 82 81  1  0  0  0  0
 83 19  1  0  0  0  0
 84 83  1  0  0  0  0
 85 84  1  0  0  0  0
 86 84  1  0  0  0  0
 87 84  1  0  0  0  0
 88 87  1  0  0  0  0
 89 87  1  0  0  0  0
 90 87  1  0  0  0  0
 91 83  1  0  0  0  0
 92 91  1  0  0  0  0
 93 91  1  0  0  0  0
 94 91  1  0  0  0  0
 95 94  1  0  0  0  0
 96 94  1  0  0  0  0
 97 94  1  0  0  0  0
 98 18  1  0  0  0  0
 99 98  1  0  0  0  0
100 99  1  0  0  0  0
101 99  1  0  0  0  0
102 99  1  0  0  0  0
103102  1  0  0  0  0
104102  1  0  0  0  0
105102  1  0  0  0  0
106 98  1  0  0  0  0
107106  1  0  0  0  0
108106  1  0  0  0  0
109106  1  0  0  0  0
110109  1  0  0  0  0
111109  1  0  0  0  0
112109  1  0  0  0  0
113  4  1  0  0  0  0
114  4  1  0  0  0  0
115  4  1  0  0  0  0
116  5  1  0  0  0  0
117131  1  0  0  0  0
118132  1  0  0  0  0
119136  1  0  0  0  0
120121  1  0  0  0  0
121 20  1  0  0  0  0
122 19  1  0  0  0  0
123129  1  0  0  0  0
124129  1  0  0  0  0
125129  1  0  0  0  0
126 20  1  0  0  0  0
127130  1  0  0  0  0
128130  1  0  0  0  0
129167  1  0  0  0  0
130126  1  0  0  0  0
131123  1  0  0  0  0
132  1  1  0  0  0  0
133  1  1  0  0  0  0
134  7  1  0  0  0  0
135117  1  0  0  0  0
136135  4  0  0  0  0
137136  4  0  0  0  0
138137  1  0  0  0  0
139137  4  0  0  0  0
140139  1  0  0  0  0
141139  4  0  0  0  0
142141  1  0  0  0  0
143135  4  0  0  0  0
144143  1  0  0  0  0
145117  1  0  0  0  0
146120  1  0  0  0  0
147146  4  0  0  0  0
148147  1  0  0  0  0
149147  4  0  0  0  0
150149  1  0  0  0  0
151149  4  0  0  0  0
152151  1  0  0  0  0
153145  4  0  0  0  0
154153  1  0  0  0  0
155117  1  0  0  0  0
156155  4  0  0  0  0
157156  1  0  0  0  0
158156  4  0  0  0  0
159158  1  0  0  0  0
160158  4  0  0  0  0
161160  1  0  0  0  0
162160  4  0  0  0  0
163162  1  0  0  0  0
164155  4  0  0  0  0
165164  1  0  0  0  0
166118  1  0  0  0  0
167166  4  0  0  0  0
168167  4  0  0  0  0
169168  1  0  0  0  0
170168  4  0  0  0  0
171170  1  0  0  0  0
172170  4  0  0  0  0
173172  1  0  0  0  0
174166  4  0  0  0  0
175174  1  0  0  0  0
176118  1  0  0  0  0
177130  1  0  0  0  0
178177  4  0  0  0  0
179178  1  0  0  0  0
180178  4  0  0  0  0
181180  1  0  0  0  0
182180  4  0  0  0  0
183182  1  0  0  0  0
184176  4  0  0  0  0
185184  1  0  0  0  0
186118  1  0  0  0  0
187186  4  0  0  0  0
188187  1  0  0  0  0
189187  4  0  0  0  0
190189  1  0  0  0  0
191189  4  0  0  0  0
192191  1  0  0  0  0
193191  4  0  0  0  0
194193  1  0  0  0  0
195186  4  0  0  0  0
196195  1  0  0  0  0
197134  1  0  0  0  0
198197  1  0  0  0  0
199198  1  0  0  0  0
200198  1  0  0  0  0
201198  1  0  0  0  0
202201  1  0  0  0  0
203201  1  0  0  0  0
204201  1  0  0  0  0
205197  1  0  0  0  0
206205  1  0  0  0  0
207205  1  0  0  0  0
208205  1  0  0  0  0
209208  1  0  0  0  0
210208  1  0  0  0  0
211208  1  0  0  0  0
212133  1  0  0  0  0
213212  1  0  0  0  0
214213  1  0  0  0  0
215213  1  0  0  0  0
216213  1  0  0  0  0
217216  1  0  0  0  0
218216  1  0  0  0  0
219216  1  0  0  0  0
220212  1  0  0  0  0
221220  1  0  0  0  0
222220  1  0  0  0  0
223220  1  0  0  0  0
224223  1  0  0  0  0
225223  1  0  0  0  0
226223  1  0  0  0  0
227 17  1  0  0  0  0
228 17  1  0  0  0  0
229119  1  0  0  0  0
230 20  1  0  0  0  0
  8 18  1  0  0  0  0
  9 16  1  0  0  0  0
 10 18  1  0  0  0  0
 12 19  1  0  0  0  0
 13 17  1  0  0  0  0
 18115  1  0  0  0  0
 20116  1  0  0  0  0
 27 29  4  0  0  0  0
 31 32  4  0  0  0  0
 37 39  4  0  0  0  0
 48 50  4  0  0  0  0
 58 60  4  0  0  0  0
 68 70  4  0  0  0  0
 79 81  4  0  0  0  0
113132  1  0  0  0  0
114132  1  0  0  0  0
119227  1  0  0  0  0
119228  1  0  0  0  0
120122  1  0  0  0  0
120230  1  0  0  0  0
123133  1  0  0  0  0
124131  1  0  0  0  0
125133  1  0  0  0  0
126134  1  0  0  0  0
127132  1  0  0  0  0
127134  1  0  0  0  0
128132  1  0  0  0  0
133229  1  0  0  0  0
141143  4  0  0  0  0
145146  4  0  0  0  0
151153  4  0  0  0  0
162164  4  0  0  0  0
172174  4  0  0  0  0
176177  4  0  0  0  0
182184  4  0  0  0  0
193195  4  0  0  0  0
M  END
$$$$
KAPWIJ

From CSD data. Using bond type 'Any'. No disordered atoms. Largest molecule.
162206  0  0  0  0  0  0  0  0999 V2000
   11.7136   13.2373   12.6925 Ni  0  0  0  0  0  0  0  0  0  0  0  0
    9.3980   15.7044   14.4372 Ni  0  0  0  0  0  0  0  0  0  0  0  0
   11.1384   14.2866   14.5730 Cl  0  0  0  0  0  0  0  0  0  0  0  0
   11.9675   11.8953   11.0226 P   0  0  0  0  0  0  0  0  0  0  0  0
   12.8432   11.7905   13.8434 P   0  0  0  0  0  0  0  0  0  0  0  0
    8.4830   14.8454   16.1813 P   0  0  0  0  0  0  0  0  0  0  0  0
    7.6000   16.9057   14.3041 P   0  0  0  0  0  0  0  0  0  0  0  0
   10.8074   16.0221   11.7039 P   0  0  0  0  0  0  0  0  0  0  0  0
   10.8775   14.5039   11.5594 O   0  0  0  0  0  0  0  0  0  0  0  0
   10.0894   16.5495   12.9102 O   0  0  0  0  0  0  0  0  0  0  0  0
   16.1326   10.7146   11.3137 B   0  0  0  0  0  0  0  0  0  0  0  0
   17.1301   11.1173   11.0818 H   0  0  0  0  0  0  0  0  0  0  0  0
   14.7913   11.7532   11.7267 B   0  0  0  0  0  0  0  0  0  0  0  0
   14.8459   12.8510   11.7755 H   0  0  0  0  0  0  0  0  0  0  0  0
   15.5593   10.7143   12.8998 B   0  0  0  0  0  0  0  0  0  0  0  0
   16.1618   11.1433   13.7155 H   0  0  0  0  0  0  0  0  0  0  0  0
   15.9477    9.1739   12.1834 B   0  0  0  0  0  0  0  0  0  0  0  0
   16.8029    8.5808   12.5390 H   0  0  0  0  0  0  0  0  0  0  0  0
   15.4544    9.2883   10.4125 B   0  0  0  0  0  0  0  0  0  0  0  0
   15.9719    8.7768    9.5864 H   0  0  0  0  0  0  0  0  0  0  0  0
   14.7842   10.9049   10.2138 B   0  0  0  0  0  0  0  0  0  0  0  0
   14.8809   11.4648    9.2726 H   0  0  0  0  0  0  0  0  0  0  0  0
   14.5001    9.3045   13.1229 B   0  0  0  0  0  0  0  0  0  0  0  0
   13.9938    8.7904   13.9525 H   0  0  0  0  0  0  0  0  0  0  0  0
   14.5368    8.3480   11.5768 B   0  0  0  0  0  0  0  0  0  0  0  0
   14.1249    7.3291   11.6256 H   0  0  0  0  0  0  0  0  0  0  0  0
   13.7440    9.5135   10.4073 B   0  0  0  0  0  0  0  0  0  0  0  0
   12.8623    9.0983    9.8966 H   0  0  0  0  0  0  0  0  0  0  0  0
    7.2716   18.3612   18.3710 B   0  0  0  0  0  0  0  0  0  0  0  0
    7.7478   19.1282   19.0002 H   0  0  0  0  0  0  0  0  0  0  0  0
    8.1494   17.5716   17.0428 B   0  0  0  0  0  0  0  0  0  0  0  0
    9.1953   17.7932   16.7796 H   0  0  0  0  0  0  0  0  0  0  0  0
    6.8094   18.6939   16.6977 B   0  0  0  0  0  0  0  0  0  0  0  0
    6.9974   19.6673   16.2219 H   0  0  0  0  0  0  0  0  0  0  0  0
    5.5501   18.4538   17.9021 B   0  0  0  0  0  0  0  0  0  0  0  0
    4.9070   19.2862   18.2228 H   0  0  0  0  0  0  0  0  0  0  0  0
    6.0983   17.1872   19.0438 B   0  0  0  0  0  0  0  0  0  0  0  0
    5.8131   17.1637   20.1052 H   0  0  0  0  0  0  0  0  0  0  0  0
    7.7043   16.6878   18.5069 B   0  0  0  0  0  0  0  0  0  0  0  0
    8.4779   16.3598   19.2180 H   0  0  0  0  0  0  0  0  0  0  0  0
    6.3013   15.6878   18.0973 B   0  0  0  0  0  0  0  0  0  0  0  0
    6.0266   14.6246   18.1513 H   0  0  0  0  0  0  0  0  0  0  0  0
    4.8872   16.8628   17.8080 B   0  0  0  0  0  0  0  0  0  0  0  0
    3.8886   16.4051   17.7679 H   0  0  0  0  0  0  0  0  0  0  0  0
    5.3779   17.7466   16.3143 B   0  0  0  0  0  0  0  0  0  0  0  0
    4.6461   17.7039   15.4933 H   0  0  0  0  0  0  0  0  0  0  0  0
   13.4234   10.8240   11.2370 C   0  0  0  0  0  0  0  0  0  0  0  0
   13.8653   10.7683   12.7429 C   0  0  0  0  0  0  0  0  0  0  0  0
    7.3681   16.0284   16.9295 C   0  0  0  0  0  0  0  0  0  0  0  0
    6.9022   17.1442   15.9413 C   0  0  0  0  0  0  0  0  0  0  0  0
   10.4434   10.9236   11.0121 C   0  0  0  0  0  0  0  0  0  0  0  0
    9.2736   11.6248   11.1219 C   0  0  0  0  0  0  0  0  0  0  0  0
    9.2994   12.5503   11.2038 H   0  0  0  0  0  0  0  0  0  0  0  0
    8.0405   10.9660   11.1097 C   0  0  0  0  0  0  0  0  0  0  0  0
    7.2472   11.4477   11.1725 H   0  0  0  0  0  0  0  0  0  0  0  0
    8.0162    9.6197   11.0069 C   0  0  0  0  0  0  0  0  0  0  0  0
    7.1996    9.1777   11.0034 H   0  0  0  0  0  0  0  0  0  0  0  0
    9.1706    8.8969   10.9110 C   0  0  0  0  0  0  0  0  0  0  0  0
    9.1243    7.9702   10.8483 H   0  0  0  0  0  0  0  0  0  0  0  0
   10.4136    9.5233   10.9006 C   0  0  0  0  0  0  0  0  0  0  0  0
   11.1986    9.0300   10.8239 H   0  0  0  0  0  0  0  0  0  0  0  0
   12.0413   12.6065    9.3877 C   0  0  0  0  0  0  0  0  0  0  0  0
   12.9715   13.6043    9.1332 C   0  0  0  0  0  0  0  0  0  0  0  0
   13.5299   13.8910    9.8182 H   0  0  0  0  0  0  0  0  0  0  0  0
   13.0882   14.1873    7.8608 C   0  0  0  0  0  0  0  0  0  0  0  0
   13.7211   14.8493    7.6918 H   0  0  0  0  0  0  0  0  0  0  0  0
   12.2345   13.7489    6.8708 C   0  0  0  0  0  0  0  0  0  0  0  0
   12.2900   14.1248    6.0220 H   0  0  0  0  0  0  0  0  0  0  0  0
   11.3200   12.7859    7.1096 C   0  0  0  0  0  0  0  0  0  0  0  0
   10.7518   12.5078    6.4281 H   0  0  0  0  0  0  0  0  0  0  0  0
   11.2258   12.2157    8.3471 C   0  0  0  0  0  0  0  0  0  0  0  0
   10.5964   11.5478    8.4935 H   0  0  0  0  0  0  0  0  0  0  0  0
   11.7613   10.6782   14.7926 C   0  0  0  0  0  0  0  0  0  0  0  0
   11.3260   11.0027   16.0284 C   0  0  0  0  0  0  0  0  0  0  0  0
   11.6043   11.8009   16.4153 H   0  0  0  0  0  0  0  0  0  0  0  0
   10.4649   10.1611   16.7343 C   0  0  0  0  0  0  0  0  0  0  0  0
   10.1595   10.3927   17.5814 H   0  0  0  0  0  0  0  0  0  0  0  0
   10.0764    8.9748   16.1417 C   0  0  0  0  0  0  0  0  0  0  0  0
    9.5171    8.3915   16.6018 H   0  0  0  0  0  0  0  0  0  0  0  0
   10.5014    8.6588   14.9077 C   0  0  0  0  0  0  0  0  0  0  0  0
   10.2057    7.8710   14.5103 H   0  0  0  0  0  0  0  0  0  0  0  0
   11.3657    9.4789   14.2175 C   0  0  0  0  0  0  0  0  0  0  0  0
   11.6788    9.2331   13.3773 H   0  0  0  0  0  0  0  0  0  0  0  0
   13.9569   12.5576   15.0628 C   0  0  0  0  0  0  0  0  0  0  0  0
   14.3668   11.8561   16.1644 C   0  0  0  0  0  0  0  0  0  0  0  0
   14.1093   10.9709   16.2811 H   0  0  0  0  0  0  0  0  0  0  0  0
   15.1779   12.4874   17.1125 C   0  0  0  0  0  0  0  0  0  0  0  0
   15.4651   12.0176   17.8620 H   0  0  0  0  0  0  0  0  0  0  0  0
   15.5445   13.7620   16.9435 C   0  0  0  0  0  0  0  0  0  0  0  0
   16.0841   14.1714   17.5814 H   0  0  0  0  0  0  0  0  0  0  0  0
   15.1374   14.4730   15.8524 C   0  0  0  0  0  0  0  0  0  0  0  0
   15.3942   15.3608   15.7443 H   0  0  0  0  0  0  0  0  0  0  0  0
   14.3341   13.8512   14.9007 C   0  0  0  0  0  0  0  0  0  0  0  0
   14.0542   14.3244   14.1512 H   0  0  0  0  0  0  0  0  0  0  0  0
    9.5921   14.2361   17.4768 C   0  0  0  0  0  0  0  0  0  0  0  0
   10.7990   14.8634   17.6842 C   0  0  0  0  0  0  0  0  0  0  0  0
   11.0384   15.5865   17.1526 H   0  0  0  0  0  0  0  0  0  0  0  0
    9.2182   13.2137   18.3187 C   0  0  0  0  0  0  0  0  0  0  0  0
    8.3928   12.7968   18.2124 H   0  0  0  0  0  0  0  0  0  0  0  0
   10.0742   12.8131   19.3191 C   0  0  0  0  0  0  0  0  0  0  0  0
    9.8237   12.1227   19.8908 H   0  0  0  0  0  0  0  0  0  0  0  0
   11.2914   13.4190   19.4830 C   0  0  0  0  0  0  0  0  0  0  0  0
   11.8652   13.1316   20.1558 H   0  0  0  0  0  0  0  0  0  0  0  0
   11.6587   14.4254   18.6760 C   0  0  0  0  0  0  0  0  0  0  0  0
   12.4899   14.8290   18.7823 H   0  0  0  0  0  0  0  0  0  0  0  0
    7.4974   13.4344   15.6188 C   0  0  0  0  0  0  0  0  0  0  0  0
    6.1280   13.4811   15.5613 C   0  0  0  0  0  0  0  0  0  0  0  0
    5.6708   14.1998   15.9343 H   0  0  0  0  0  0  0  0  0  0  0  0
    5.4280   12.4552   14.9478 C   0  0  0  0  0  0  0  0  0  0  0  0
    4.5042   12.5107   14.8641 H   0  0  0  0  0  0  0  0  0  0  0  0
    6.0861   11.3765   14.4719 C   0  0  0  0  0  0  0  0  0  0  0  0
    5.6066   10.6793   14.0832 H   0  0  0  0  0  0  0  0  0  0  0  0
    7.4309   11.2974   14.5521 C   0  0  0  0  0  0  0  0  0  0  0  0
    7.8829   10.5566   14.2192 H   0  0  0  0  0  0  0  0  0  0  0  0
    8.1262   12.3349   15.1360 C   0  0  0  0  0  0  0  0  0  0  0  0
    9.0520   12.2790   15.2005 H   0  0  0  0  0  0  0  0  0  0  0  0
    6.4689   15.9835   13.2414 C   0  0  0  0  0  0  0  0  0  0  0  0
    6.9930   15.2685   12.2270 C   0  0  0  0  0  0  0  0  0  0  0  0
    7.9127   15.2898   12.0893 H   0  0  0  0  0  0  0  0  0  0  0  0
    6.1988   14.4975   11.3816 C   0  0  0  0  0  0  0  0  0  0  0  0
    6.5867   14.0525   10.6618 H   0  0  0  0  0  0  0  0  0  0  0  0
    4.8682   14.3916   11.5943 C   0  0  0  0  0  0  0  0  0  0  0  0
    4.3424   13.8469   11.0540 H   0  0  0  0  0  0  0  0  0  0  0  0
    4.3197   15.0916   12.6087 C   0  0  0  0  0  0  0  0  0  0  0  0
    3.4028   15.0483   12.7568 H   0  0  0  0  0  0  0  0  0  0  0  0
    5.1216   15.8843   13.4401 C   0  0  0  0  0  0  0  0  0  0  0  0
    4.7284   16.3521   14.1408 H   0  0  0  0  0  0  0  0  0  0  0  0
    7.8014   18.5272   13.5586 C   0  0  0  0  0  0  0  0  0  0  0  0
    8.8996   19.2911   13.8148 C   0  0  0  0  0  0  0  0  0  0  0  0
    9.5996   18.9274   14.3081 H   0  0  0  0  0  0  0  0  0  0  0  0
    9.0005   20.5713   13.3669 C   0  0  0  0  0  0  0  0  0  0  0  0
    9.7593   21.0713   13.5638 H   0  0  0  0  0  0  0  0  0  0  0  0
    8.0024   21.1274   12.6313 C   0  0  0  0  0  0  0  0  0  0  0  0
    8.0672   22.0104   12.3438 H   0  0  0  0  0  0  0  0  0  0  0  0
    6.9060   20.3806   12.3194 C   0  0  0  0  0  0  0  0  0  0  0  0
    6.2349   20.7416   11.7860 H   0  0  0  0  0  0  0  0  0  0  0  0
    6.7896   19.0754   12.7969 C   0  0  0  0  0  0  0  0  0  0  0  0
    6.0301   18.5757   12.6017 H   0  0  0  0  0  0  0  0  0  0  0  0
    9.9797   16.6047   10.2156 C   0  0  0  0  0  0  0  0  0  0  0  0
    9.7256   15.7738    9.1436 C   0  0  0  0  0  0  0  0  0  0  0  0
   10.0146   14.8897    9.1663 H   0  0  0  0  0  0  0  0  0  0  0  0
    9.0534   16.2371    8.0508 C   0  0  0  0  0  0  0  0  0  0  0  0
    8.8807   15.6682    7.3362 H   0  0  0  0  0  0  0  0  0  0  0  0
    8.6367   17.5354    8.0055 C   0  0  0  0  0  0  0  0  0  0  0  0
    8.1577   17.8319    7.2647 H   0  0  0  0  0  0  0  0  0  0  0  0
    8.9043   18.4040    9.0129 C   0  0  0  0  0  0  0  0  0  0  0  0
    8.6484   19.2941    8.9397 H   0  0  0  0  0  0  0  0  0  0  0  0
    9.5656   17.9551   10.1615 C   0  0  0  0  0  0  0  0  0  0  0  0
    9.7288   18.5320   10.8727 H   0  0  0  0  0  0  0  0  0  0  0  0
   12.4583   16.6954   11.7093 C   0  0  0  0  0  0  0  0  0  0  0  0
   13.0393   17.1109   12.8823 C   0  0  0  0  0  0  0  0  0  0  0  0
   12.5579   17.0810   13.6771 H   0  0  0  0  0  0  0  0  0  0  0  0
   14.3454   17.5718   12.8771 C   0  0  0  0  0  0  0  0  0  0  0  0
   14.7329   17.8449   13.6789 H   0  0  0  0  0  0  0  0  0  0  0  0
   15.0662   17.6364   11.7511 C   0  0  0  0  0  0  0  0  0  0  0  0
   15.9493   17.9265   11.7773 H   0  0  0  0  0  0  0  0  0  0  0  0
   14.4938   17.2725   10.5642 C   0  0  0  0  0  0  0  0  0  0  0  0
   14.9699   17.3354    9.7676 H   0  0  0  0  0  0  0  0  0  0  0  0
   13.1842   16.8072   10.5746 C   0  0  0  0  0  0  0  0  0  0  0  0
   12.7913   16.5636    9.7694 H   0  0  0  0  0  0  0  0  0  0  0  0
   13.6171    8.8338   12.3054 H   0  0  0  0  0  0  0  0  0  0  0  0
    5.2876   16.5033   16.6454 H   0  0  0  0  0  0  0  0  0  0  0  0
  1  3  1  0  0  0  0
  2  3  1  0  0  0  0
  4  1  1  0  0  0  0
  5  1  1  0  0  0  0
  6  2  1  0  0  0  0
  7  2  1  0  0  0  0
  8  9  2  0  0  0  0
  9  1  1  0  0  0  0
 10  2  1  0  0  0  0
 11 12  1  0  0  0  0
 13 11  1  0  0  0  0
 14 13  1  0  0  0  0
 15 11  1  0  0  0  0
 16 15  1  0  0  0  0
 17 11  1  0  0  0  0
 18 17  1  0  0  0  0
 19 11  1  0  0  0  0
 20 19  1  0  0  0  0
 21 11  1  0  0  0  0
 22 21  1  0  0  0  0
 23 15  1  0  0  0  0
 24 23  1  0  0  0  0
 25 17  1  0  0  0  0
 26 25  1  0  0  0  0
 27 19  1  0  0  0  0
 28 27  1  0  0  0  0
 29 30  1  0  0  0  0
 31 29  1  0  0  0  0
 32 31  1  0  0  0  0
 33 29  1  0  0  0  0
 34 33  1  0  0  0  0
 35 29  1  0  0  0  0
 36 35  1  0  0  0  0
 37 29  1  0  0  0  0
 38 37  1  0  0  0  0
 39 29  1  0  0  0  0
 40 39  1  0  0  0  0
 41 37  1  0  0  0  0
 42 41  1  0  0  0  0
 43 35  1  0  0  0  0
 44 43  1  0  0  0  0
 45 33  1  0  0  0  0
 46 45  1  0  0  0  0
 47  4  1  0  0  0  0
 48  5  1  0  0  0  0
 49  6  1  0  0  0  0
 50  7  1  0  0  0  0
 51  4  1  0  0  0  0
 52 51  4  0  0  0  0
 53 52  1  0  0  0  0
 54 52  4  0  0  0  0
 55 54  1  0  0  0  0
 56 54  4  0  0  0  0
 57 56  1  0  0  0  0
 58 56  4  0  0  0  0
 59 58  1  0  0  0  0
 60 51  4  0  0  0  0
 61 60  1  0  0  0  0
 62  4  1  0  0  0  0
 63 62  4  0  0  0  0
 64 63  1  0  0  0  0
 65 63  4  0  0  0  0
 66 65  1  0  0  0  0
 67 65  4  0  0  0  0
 68 67  1  0  0  0  0
 69 67  4  0  0  0  0
 70 69  1  0  0  0  0
 71 62  4  0  0  0  0
 72 71  1  0  0  0  0
 73  5  1  0  0  0  0
 74 73  4  0  0  0  0
 75 74  1  0  0  0  0
 76 74  4  0  0  0  0
 77 76  1  0  0  0  0
 78 76  4  0  0  0  0
 79 78  1  0  0  0  0
 80 78  4  0  0  0  0
 81 80  1  0  0  0  0
 82 73  4  0  0  0  0
 83 82  1  0  0  0  0
 84  5  1  0  0  0  0
 85 84  4  0  0  0  0
 86 85  1  0  0  0  0
 87 85  4  0  0  0  0
 88 87  1  0  0  0  0
 89 87  4  0  0  0  0
 90 89  1  0  0  0  0
 91 89  4  0  0  0  0
 92 91  1  0  0  0  0
 93 84  4  0  0  0  0
 94 93  1  0  0  0  0
 95  6  1  0  0  0  0
 96 95  4  0  0  0  0
 97 96  1  0  0  0  0
 98 95  4  0  0  0  0
 99 98  1  0  0  0  0
100 98  4  0  0  0  0
101100  1  0  0  0  0
102100  4  0  0  0  0
103102  1  0  0  0  0
104 96  4  0  0  0  0
105104  1  0  0  0  0
106  6  1  0  0  0  0
107106  4  0  0  0  0
108107  1  0  0  0  0
109107  4  0  0  0  0
110109  1  0  0  0  0
111109  4  0  0  0  0
112111  1  0  0  0  0
113111  4  0  0  0  0
114113  1  0  0  0  0
115106  4  0  0  0  0
116115  1  0  0  0  0
117  7  1  0  0  0  0
118117  4  0  0  0  0
119118  1  0  0  0  0
120118  4  0  0  0  0
121120  1  0  0  0  0
122120  4  0  0  0  0
123122  1  0  0  0  0
124122  4  0  0  0  0
125124  1  0  0  0  0
126117  4  0  0  0  0
127126  1  0  0  0  0
128  7  1  0  0  0  0
129128  4  0  0  0  0
130129  1  0  0  0  0
131129  4  0  0  0  0
132131  1  0  0  0  0
133131  4  0  0  0  0
134133  1  0  0  0  0
135133  4  0  0  0  0
136135  1  0  0  0  0
137128  4  0  0  0  0
138137  1  0  0  0  0
139  8  1  0  0  0  0
140139  4  0  0  0  0
141140  1  0  0  0  0
142140  4  0  0  0  0
143142  1  0  0  0  0
144142  4  0  0  0  0
145144  1  0  0  0  0
146144  4  0  0  0  0
147146  1  0  0  0  0
148139  4  0  0  0  0
149148  1  0  0  0  0
150  8  1  0  0  0  0
151150  4  0  0  0  0
152151  1  0  0  0  0
153151  4  0  0  0  0
154153  1  0  0  0  0
155153  4  0  0  0  0
156155  1  0  0  0  0
157155  4  0  0  0  0
158157  1  0  0  0  0
159150  4  0  0  0  0
160159  1  0  0  0  0
161 23  1  0  0  0  0
162 43  1  0  0  0  0
  8 10  1  0  0  0  0
 13 15  1  0  0  0  0
 13 21  1  0  0  0  0
 13 47  1  0  0  0  0
 13 48  1  0  0  0  0
 15 17  1  0  0  0  0
 15 48  1  0  0  0  0
 17 19  1  0  0  0  0
 17 23  1  0  0  0  0
 19 21  1  0  0  0  0
 19 25  1  0  0  0  0
 21 27  1  0  0  0  0
 21 47  1  0  0  0  0
 23 25  1  0  0  0  0
 23 48  1  0  0  0  0
 25 27  1  0  0  0  0
 25161  1  0  0  0  0
 27 47  1  0  0  0  0
 31 33  1  0  0  0  0
 31 39  1  0  0  0  0
 31 49  1  0  0  0  0
 31 50  1  0  0  0  0
 33 35  1  0  0  0  0
 33 50  1  0  0  0  0
 35 37  1  0  0  0  0
 35 45  1  0  0  0  0
 37 39  1  0  0  0  0
 37 43  1  0  0  0  0
 39 41  1  0  0  0  0
 39 49  1  0  0  0  0
 41 43  1  0  0  0  0
 41 49  1  0  0  0  0
 43 45  1  0  0  0  0
 45 50  1  0  0  0  0
 45162  1  0  0  0  0
 47 48  1  0  0  0  0
 49 50  1  0  0  0  0
 58 60  4  0  0  0  0
 69 71  4  0  0  0  0
 80 82  4  0  0  0  0
 91 93  4  0  0  0  0
102104  4  0  0  0  0
113115  4  0  0  0  0
124126  4  0  0  0  0
135137  4  0  0  0  0
146148  4  0  0  0  0
157159  4  0  0  0  0
M  END
$$$$
KAWXOW

From CSD data. Using bond type 'Any'. No disordered atoms. Largest molecule.
 97123  0  0  0  0  0  0  0  0999 V2000
   10.7914    9.7742    8.4720 Co  0  0  0  0  0  0  0  0  0  0  0  0
   13.0132    9.5246    8.5314 P   0  0  0  0  0  0  0  0  0  0  0  0
    7.5321   11.0111    8.7915 Si  0  0  0  0  0  0  0  0  0  0  0  0
    9.9500    9.5792   12.3094 B   0  0  0  0  0  0  0  0  0  0  0  0
    9.6479    8.7090   11.7431 H   0  0  0  0  0  0  0  0  0  0  0  0
   11.6394   10.1259   12.3032 B   0  0  0  0  0  0  0  0  0  0  0  0
   12.3826    9.5884   11.7431 H   0  0  0  0  0  0  0  0  0  0  0  0
   11.9275   11.0111   13.8046 B   0  0  0  0  0  0  0  0  0  0  0  0
   10.8886    9.5702   13.8065 B   0  0  0  0  0  0  0  0  0  0  0  0
   11.1558    8.6796   14.3608 H   0  0  0  0  0  0  0  0  0  0  0  0
    9.2167   10.1316   13.8155 B   0  0  0  0  0  0  0  0  0  0  0  0
    8.5391    9.5870   14.3751 H   0  0  0  0  0  0  0  0  0  0  0  0
    8.9168   11.0111   12.3261 B   0  0  0  0  0  0  0  0  0  0  0  0
    8.0168   11.0111   11.8337 H   0  0  0  0  0  0  0  0  0  0  0  0
    9.9158    9.3895    5.6967 O   0  0  0  0  0  0  0  0  0  0  0  0
    9.9278    7.1661    9.4652 O   0  0  0  0  0  0  0  0  0  0  0  0
   10.4305   11.0111   11.4715 C   0  0  0  0  0  0  0  0  0  0  0  0
   10.3909   11.0111    9.9617 C   0  0  0  0  0  0  0  0  0  0  0  0
    9.3642   11.0111    9.0693 C   0  0  0  0  0  0  0  0  0  0  0  0
   12.8233   11.0111   14.3433 H   0  0  0  0  0  0  0  0  0  0  0  0
   10.4294   11.0111   14.5905 C   0  0  0  0  0  0  0  0  0  0  0  0
   10.4704   11.0111   15.5934 H   0  0  0  0  0  0  0  0  0  0  0  0
   10.3017    9.5202    6.7611 C   0  0  0  0  0  0  0  0  0  0  0  0
   10.2880    8.1896    9.1049 C   0  0  0  0  0  0  0  0  0  0  0  0
    7.0931   11.0111    6.9779 C   0  0  0  0  0  0  0  0  0  0  0  0
    6.1774   11.0111    6.9286 H   0  0  0  0  0  0  0  0  0  0  0  0
    7.4094   10.2564    6.5554 H   0  0  0  0  0  0  0  0  0  0  0  0
    6.8212    9.4473    9.5500 C   0  0  0  0  0  0  0  0  0  0  0  0
    6.8958    9.4343   10.4613 H   0  0  0  0  0  0  0  0  0  0  0  0
    7.2238    8.7751    9.2080 H   0  0  0  0  0  0  0  0  0  0  0  0
    5.8946    9.3242    9.3462 H   0  0  0  0  0  0  0  0  0  0  0  0
   13.7828   11.0111    9.2936 C   0  0  0  0  0  0  0  0  0  0  0  0
   14.7512   11.0111    9.2890 H   0  0  0  0  0  0  0  0  0  0  0  0
   13.5209   11.0111   10.2151 H   0  0  0  0  0  0  0  0  0  0  0  0
   13.9866    9.3079    6.9838 C   0  0  0  0  0  0  0  0  0  0  0  0
   15.5537    8.9924    4.6895 C   0  0  0  0  0  0  0  0  0  0  0  0
   16.0196    9.0922    3.8567 H   0  0  0  0  0  0  0  0  0  0  0  0
   15.3707    9.5737    6.9541 C   0  0  0  0  0  0  0  0  0  0  0  0
   15.7837    9.9217    7.7117 H   0  0  0  0  0  0  0  0  0  0  0  0
   16.1255    9.3418    5.8056 C   0  0  0  0  0  0  0  0  0  0  0  0
   17.0521    9.4255    5.8422 H   0  0  0  0  0  0  0  0  0  0  0  0
   14.1924    8.4521    4.7176 C   0  0  0  0  0  0  0  0  0  0  0  0
   13.8489    7.9691    3.9996 H   0  0  0  0  0  0  0  0  0  0  0  0
   13.4288    8.6899    5.8612 C   0  0  0  0  0  0  0  0  0  0  0  0
   12.5284    8.4609    5.8708 H   0  0  0  0  0  0  0  0  0  0  0  0
   13.7028    8.1135    9.4776 C   0  0  0  0  0  0  0  0  0  0  0  0
   13.3500    6.8355    9.0366 C   0  0  0  0  0  0  0  0  0  0  0  0
   12.7470    6.7490    8.3360 H   0  0  0  0  0  0  0  0  0  0  0  0
   13.8955    5.7084    9.6318 C   0  0  0  0  0  0  0  0  0  0  0  0
   13.6441    4.8375    9.2986 H   0  0  0  0  0  0  0  0  0  0  0  0
   14.7944    5.8401   10.6848 C   0  0  0  0  0  0  0  0  0  0  0  0
   15.1624    5.0607   11.0839 H   0  0  0  0  0  0  0  0  0  0  0  0
   15.1397    7.1010   11.1378 C   0  0  0  0  0  0  0  0  0  0  0  0
   15.7542    7.2042   11.8321 H   0  0  0  0  0  0  0  0  0  0  0  0
   14.5995    8.2348   10.5359 C   0  0  0  0  0  0  0  0  0  0  0  0
   14.8310    9.1157   10.8615 H   0  0  0  0  0  0  0  0  0  0  0  0
   10.7914   12.2479    8.4720 Co  0  0  0  0  0  0  0  0  0  0  0  0
   13.0132   12.4975    8.5314 P   0  0  0  0  0  0  0  0  0  0  0  0
    9.9500   12.4429   12.3094 B   0  0  0  0  0  0  0  0  0  0  0  0
    9.6479   13.3131   11.7431 H   0  0  0  0  0  0  0  0  0  0  0  0
   11.6394   11.8962   12.3032 B   0  0  0  0  0  0  0  0  0  0  0  0
   12.3826   12.4337   11.7431 H   0  0  0  0  0  0  0  0  0  0  0  0
   10.8886   12.4519   13.8065 B   0  0  0  0  0  0  0  0  0  0  0  0
   11.1558   13.3425   14.3608 H   0  0  0  0  0  0  0  0  0  0  0  0
    9.2167   11.8905   13.8155 B   0  0  0  0  0  0  0  0  0  0  0  0
    8.5391   12.4351   14.3751 H   0  0  0  0  0  0  0  0  0  0  0  0
    9.9158   12.6326    5.6967 O   0  0  0  0  0  0  0  0  0  0  0  0
    9.9278   14.8560    9.4652 O   0  0  0  0  0  0  0  0  0  0  0  0
   10.3017   12.5019    6.7611 C   0  0  0  0  0  0  0  0  0  0  0  0
   10.2880   13.8325    9.1049 C   0  0  0  0  0  0  0  0  0  0  0  0
    7.4094   11.7657    6.5554 H   0  0  0  0  0  0  0  0  0  0  0  0
    6.8212   12.5748    9.5500 C   0  0  0  0  0  0  0  0  0  0  0  0
    6.8958   12.5878   10.4613 H   0  0  0  0  0  0  0  0  0  0  0  0
    7.2238   13.2470    9.2080 H   0  0  0  0  0  0  0  0  0  0  0  0
    5.8946   12.6979    9.3462 H   0  0  0  0  0  0  0  0  0  0  0  0
   13.9866   12.7142    6.9838 C   0  0  0  0  0  0  0  0  0  0  0  0
   15.5537   13.0297    4.6895 C   0  0  0  0  0  0  0  0  0  0  0  0
   16.0196   12.9299    3.8567 H   0  0  0  0  0  0  0  0  0  0  0  0
   15.3707   12.4484    6.9541 C   0  0  0  0  0  0  0  0  0  0  0  0
   15.7837   12.1004    7.7117 H   0  0  0  0  0  0  0  0  0  0  0  0
   16.1255   12.6803    5.8056 C   0  0  0  0  0  0  0  0  0  0  0  0
   17.0521   12.5966    5.8422 H   0  0  0  0  0  0  0  0  0  0  0  0
   14.1924   13.5700    4.7176 C   0  0  0  0  0  0  0  0  0  0  0  0
   13.8489   14.0530    3.9996 H   0  0  0  0  0  0  0  0  0  0  0  0
   13.4288   13.3322    5.8612 C   0  0  0  0  0  0  0  0  0  0  0  0
   12.5284   13.5612    5.8708 H   0  0  0  0  0  0  0  0  0  0  0  0
   13.7028   13.9086    9.4776 C   0  0  0  0  0  0  0  0  0  0  0  0
   13.3500   15.1866    9.0366 C   0  0  0  0  0  0  0  0  0  0  0  0
   12.7470   15.2731    8.3360 H   0  0  0  0  0  0  0  0  0  0  0  0
   13.8955   16.3137    9.6318 C   0  0  0  0  0  0  0  0  0  0  0  0
   13.6441   17.1846    9.2986 H   0  0  0  0  0  0  0  0  0  0  0  0
   14.7944   16.1820   10.6848 C   0  0  0  0  0  0  0  0  0  0  0  0
   15.1624   16.9614   11.0839 H   0  0  0  0  0  0  0  0  0  0  0  0
   15.1397   14.9211   11.1378 C   0  0  0  0  0  0  0  0  0  0  0  0
   15.7542   14.8179   11.8321 H   0  0  0  0  0  0  0  0  0  0  0  0
   14.5995   13.7873   10.5359 C   0  0  0  0  0  0  0  0  0  0  0  0
   14.8310   12.9064   10.8615 H   0  0  0  0  0  0  0  0  0  0  0  0
  1  2  1  0  0  0  0
  2 32  1  0  0  0  0
  3 19  1  0  0  0  0
  4  5  1  0  0  0  0
  6  4  1  0  0  0  0
  7  6  1  0  0  0  0
  8  6  1  0  0  0  0
  9  4  1  0  0  0  0
 10  9  1  0  0  0  0
 11  4  1  0  0  0  0
 12 11  1  0  0  0  0
 13  4  1  0  0  0  0
 14 13  1  0  0  0  0
 15 23  3  0  0  0  0
 16 24  3  0  0  0  0
 17  4  1  0  0  0  0
 18  1  1  0  0  0  0
 19  1  1  0  0  0  0
 20  8  1  0  0  0  0
 21  8  1  0  0  0  0
 22 21  1  0  0  0  0
 23  1  1  0  0  0  0
 24  1  1  0  0  0  0
 25  3  1  0  0  0  0
 26 25  1  0  0  0  0
 27 25  1  0  0  0  0
 28  3  1  0  0  0  0
 29 28  1  0  0  0  0
 30 28  1  0  0  0  0
 31 28  1  0  0  0  0
 32 33  1  0  0  0  0
 34 32  1  0  0  0  0
 35  2  1  0  0  0  0
 36 37  1  0  0  0  0
 38 35  4  0  0  0  0
 39 38  1  0  0  0  0
 40 36  4  0  0  0  0
 41 40  1  0  0  0  0
 42 36  4  0  0  0  0
 43 42  1  0  0  0  0
 44 35  4  0  0  0  0
 45 44  1  0  0  0  0
 46  2  1  0  0  0  0
 47 46  4  0  0  0  0
 48 47  1  0  0  0  0
 49 47  4  0  0  0  0
 50 49  1  0  0  0  0
 51 49  4  0  0  0  0
 52 51  1  0  0  0  0
 53 51  4  0  0  0  0
 54 53  1  0  0  0  0
 55 46  4  0  0  0  0
 56 55  1  0  0  0  0
 57  1  1  0  0  0  0
 58 32  1  0  0  0  0
 59 13  1  0  0  0  0
 60 59  1  0  0  0  0
 61  6  1  0  0  0  0
 62 61  1  0  0  0  0
 63  8  1  0  0  0  0
 64 63  1  0  0  0  0
 65 11  1  0  0  0  0
 66 65  1  0  0  0  0
 67 69  3  0  0  0  0
 68 70  3  0  0  0  0
 69 57  1  0  0  0  0
 70 57  1  0  0  0  0
 71 25  1  0  0  0  0
 72  3  1  0  0  0  0
 73 72  1  0  0  0  0
 74 72  1  0  0  0  0
 75 72  1  0  0  0  0
 76 58  1  0  0  0  0
 77 78  1  0  0  0  0
 79 76  4  0  0  0  0
 80 79  1  0  0  0  0
 81 77  4  0  0  0  0
 82 81  1  0  0  0  0
 83 77  4  0  0  0  0
 84 83  1  0  0  0  0
 85 76  4  0  0  0  0
 86 85  1  0  0  0  0
 87 58  1  0  0  0  0
 88 87  4  0  0  0  0
 89 88  1  0  0  0  0
 90 88  4  0  0  0  0
 91 90  1  0  0  0  0
 92 90  4  0  0  0  0
 93 92  1  0  0  0  0
 94 92  4  0  0  0  0
 95 94  1  0  0  0  0
 96 87  4  0  0  0  0
 97 96  1  0  0  0  0
  6  9  1  0  0  0  0
  6 17  1  0  0  0  0
  8  9  1  0  0  0  0
  8 61  1  0  0  0  0
  9 11  1  0  0  0  0
  9 21  1  0  0  0  0
 11 13  1  0  0  0  0
 11 21  1  0  0  0  0
 13 17  1  0  0  0  0
 13 65  1  0  0  0  0
 17 18  1  0  0  0  0
 17 59  1  0  0  0  0
 17 61  1  0  0  0  0
 18 19  1  0  0  0  0
 18 57  1  0  0  0  0
 19 57  1  0  0  0  0
 21 63  1  0  0  0  0
 21 65  1  0  0  0  0
 38 40  4  0  0  0  0
 42 44  4  0  0  0  0
 53 55  4  0  0  0  0
 57 58  1  0  0  0  0
 59 61  1  0  0  0  0
 59 63  1  0  0  0  0
 59 65  1  0  0  0  0
 61 63  1  0  0  0  0
 63 65  1  0  0  0  0
 79 81  4  0  0  0  0
 83 85  4  0  0  0  0
 94 96  4  0  0  0  0
M  END
$$$$
KAXGOF

From CSD data. Using bond type 'Any'. No disordered atoms. Largest molecule.
 78104  0  0  0  0  0  0  0  0999 V2000
    2.9199    5.1836   10.0127 Rh  0  0  0  0  0  0  0  0  0  0  0  0
    0.3340    2.7001   12.0608 Co  0  0  0  0  0  0  0  0  0  0  0  0
    4.8247    4.4770   11.2851 P   0  0  0  0  0  0  0  0  0  0  0  0
    2.2965    3.6243   11.5774 P   0  0  0  0  0  0  0  0  0  0  0  0
    2.9211    7.2776    9.3116 C   0  0  0  0  0  0  0  0  0  0  0  0
    3.6534    6.2570    8.2991 C   0  0  0  0  0  0  0  0  0  0  0  0
    2.5971    5.0966    7.8291 B   0  0  0  0  0  0  0  0  0  0  0  0
    1.1916    5.3079    8.6697 B   0  0  0  0  0  0  0  0  0  0  0  0
    1.3298    6.6704    9.7606 B   0  0  0  0  0  0  0  0  0  0  0  0
    1.3484    5.7742    7.0611 B   0  0  0  0  0  0  0  0  0  0  0  0
    0.4492    6.9232    8.2074 B   0  0  0  0  0  0  0  0  0  0  0  0
    1.6103    8.0785    8.6640 B   0  0  0  0  0  0  0  0  0  0  0  0
    3.1472    7.8226    7.7431 B   0  0  0  0  0  0  0  0  0  0  0  0
    2.9207    6.3606    6.7115 B   0  0  0  0  0  0  0  0  0  0  0  0
    1.6008    7.5449    6.9751 B   0  0  0  0  0  0  0  0  0  0  0  0
   -0.6235    4.4366   12.0588 C   0  0  0  0  0  0  0  0  0  0  0  0
   -1.3153    5.5152   12.0474 O   0  0  0  0  0  0  0  0  0  0  0  0
   -0.2124    2.1851   10.5190 C   0  0  0  0  0  0  0  0  0  0  0  0
   -0.5086    1.6712    9.4492 O   0  0  0  0  0  0  0  0  0  0  0  0
    3.4061    4.9122   12.0951 C   0  0  0  0  0  0  0  0  0  0  0  0
    3.2567    5.8902   13.2777 C   0  0  0  0  0  0  0  0  0  0  0  0
    3.8819    5.4084   14.5329 C   0  0  0  0  0  0  0  0  0  0  0  0
    1.7732    6.2384   13.6827 C   0  0  0  0  0  0  0  0  0  0  0  0
    3.8829    7.2309   12.9338 C   0  0  0  0  0  0  0  0  0  0  0  0
    3.7051    3.2699   10.6279 C   0  0  0  0  0  0  0  0  0  0  0  0
    4.0767    2.0401    9.7243 C   0  0  0  0  0  0  0  0  0  0  0  0
    4.6408    0.9563   10.6260 C   0  0  0  0  0  0  0  0  0  0  0  0
    2.9371    1.4878    9.0002 C   0  0  0  0  0  0  0  0  0  0  0  0
    5.2101    2.4411    8.8378 C   0  0  0  0  0  0  0  0  0  0  0  0
    0.4795    0.8900   12.8899 C   0  0  0  0  0  0  0  0  0  0  0  0
    0.8032   -0.4372   12.1391 C   0  0  0  0  0  0  0  0  0  0  0  0
    1.1395    1.7313   13.7343 C   0  0  0  0  0  0  0  0  0  0  0  0
    2.5074    1.7023   14.2864 C   0  0  0  0  0  0  0  0  0  0  0  0
   -0.1402    2.2825   13.9598 C   0  0  0  0  0  0  0  0  0  0  0  0
   -0.5055    3.2047   15.0755 C   0  0  0  0  0  0  0  0  0  0  0  0
   -0.7919    1.4340   13.0829 C   0  0  0  0  0  0  0  0  0  0  0  0
   -2.1519    1.0071   12.9071 C   0  0  0  0  0  0  0  0  0  0  0  0
    3.4219    7.7272    9.9955 H   0  0  0  0  0  0  0  0  0  0  0  0
    4.5962    6.0767    8.3411 H   0  0  0  0  0  0  0  0  0  0  0  0
    2.9287    4.0812    7.5559 H   0  0  0  0  0  0  0  0  0  0  0  0
    0.5600    4.4583    8.9773 H   0  0  0  0  0  0  0  0  0  0  0  0
    0.8295    6.7429   10.7387 H   0  0  0  0  0  0  0  0  0  0  0  0
    0.8196    5.2364    6.2625 H   0  0  0  0  0  0  0  0  0  0  0  0
   -0.6241    7.1574    8.1940 H   0  0  0  0  0  0  0  0  0  0  0  0
    1.2787    9.0887    8.9524 H   0  0  0  0  0  0  0  0  0  0  0  0
    3.8140    8.6411    7.4298 H   0  0  0  0  0  0  0  0  0  0  0  0
    3.4332    6.2342    5.7448 H   0  0  0  0  0  0  0  0  0  0  0  0
    1.2644    8.1935    6.1536 H   0  0  0  0  0  0  0  0  0  0  0  0
    4.7982    5.1732   14.3667 H   0  0  0  0  0  0  0  0  0  0  0  0
    3.4052    4.6386   14.8500 H   0  0  0  0  0  0  0  0  0  0  0  0
    3.8457    6.1037   15.1920 H   0  0  0  0  0  0  0  0  0  0  0  0
    1.2983    6.5606   12.9128 H   0  0  0  0  0  0  0  0  0  0  0  0
    1.7800    6.9170   14.3610 H   0  0  0  0  0  0  0  0  0  0  0  0
    1.3395    5.4509   14.0190 H   0  0  0  0  0  0  0  0  0  0  0  0
    3.4981    7.5656   12.1200 H   0  0  0  0  0  0  0  0  0  0  0  0
    4.8294    7.1232   12.8173 H   0  0  0  0  0  0  0  0  0  0  0  0
    3.7159    7.8516   13.6464 H   0  0  0  0  0  0  0  0  0  0  0  0
    3.9579    0.6538   11.2278 H   0  0  0  0  0  0  0  0  0  0  0  0
    5.3778    1.3107   11.1304 H   0  0  0  0  0  0  0  0  0  0  0  0
    4.9441    0.2197   10.0911 H   0  0  0  0  0  0  0  0  0  0  0  0
    2.5663    2.1603    8.4232 H   0  0  0  0  0  0  0  0  0  0  0  0
    2.2689    1.1998    9.6249 H   0  0  0  0  0  0  0  0  0  0  0  0
    3.2259    0.7387    8.4729 H   0  0  0  0  0  0  0  0  0  0  0  0
    4.9189    3.1301    8.2360 H   0  0  0  0  0  0  0  0  0  0  0  0
    5.5027    1.6795    8.3315 H   0  0  0  0  0  0  0  0  0  0  0  0
    5.9359    2.7695    9.3727 H   0  0  0  0  0  0  0  0  0  0  0  0
    1.7507   -0.5875   12.1505 H   0  0  0  0  0  0  0  0  0  0  0  0
    0.4996   -0.3720   11.2297 H   0  0  0  0  0  0  0  0  0  0  0  0
    0.3574   -1.1687   12.5728 H   0  0  0  0  0  0  0  0  0  0  0  0
    2.6403    2.4638   14.8558 H   0  0  0  0  0  0  0  0  0  0  0  0
    3.1436    1.7282   13.5662 H   0  0  0  0  0  0  0  0  0  0  0  0
    2.6307    0.8973   14.7927 H   0  0  0  0  0  0  0  0  0  0  0  0
   -1.4326    3.4388   15.0048 H   0  0  0  0  0  0  0  0  0  0  0  0
    0.0311    3.9993   15.0239 H   0  0  0  0  0  0  0  0  0  0  0  0
   -0.3491    2.7664   15.9142 H   0  0  0  0  0  0  0  0  0  0  0  0
   -2.2063    0.3968   12.1697 H   0  0  0  0  0  0  0  0  0  0  0  0
   -2.7065    1.7707   12.7332 H   0  0  0  0  0  0  0  0  0  0  0  0
   -2.4520    0.5699   13.7076 H   0  0  0  0  0  0  0  0  0  0  0  0
  1  3  8  0  0  0  0
  2  4  1  0  0  0  0
  3 20  4  0  0  0  0
  4  1  8  0  0  0  0
  5  1  1  0  0  0  0
  6  1  1  0  0  0  0
  7  1  1  0  0  0  0
  8  1  1  0  0  0  0
  9  1  1  0  0  0  0
 10  7  1  0  0  0  0
 11  8  1  0  0  0  0
 12  5  1  0  0  0  0
 13  5  1  0  0  0  0
 14  6  1  0  0  0  0
 15 10  1  0  0  0  0
 16  2  1  0  0  0  0
 17 16  3  0  0  0  0
 18  2  1  0  0  0  0
 19 18  3  0  0  0  0
 20  1  8  0  0  0  0
 21 20  1  0  0  0  0
 22 21  1  0  0  0  0
 23 21  1  0  0  0  0
 24 21  1  0  0  0  0
 25  1  8  0  0  0  0
 26 25  1  0  0  0  0
 27 26  1  0  0  0  0
 28 26  1  0  0  0  0
 29 26  1  0  0  0  0
 30  2  8  0  0  0  0
 31 30  1  0  0  0  0
 32  2  8  0  0  0  0
 33 32  1  0  0  0  0
 34  2  8  0  0  0  0
 35 34  1  0  0  0  0
 36  2  8  0  0  0  0
 37 36  1  0  0  0  0
 38  5  1  0  0  0  0
 39  6  1  0  0  0  0
 40  7  1  0  0  0  0
 41  8  1  0  0  0  0
 42  9  1  0  0  0  0
 43 10  1  0  0  0  0
 44 11  1  0  0  0  0
 45 12  1  0  0  0  0
 46 13  1  0  0  0  0
 47 14  1  0  0  0  0
 48 15  1  0  0  0  0
 49 22  1  0  0  0  0
 50 22  1  0  0  0  0
 51 22  1  0  0  0  0
 52 23  1  0  0  0  0
 53 23  1  0  0  0  0
 54 23  1  0  0  0  0
 55 24  1  0  0  0  0
 56 24  1  0  0  0  0
 57 24  1  0  0  0  0
 58 27  1  0  0  0  0
 59 27  1  0  0  0  0
 60 27  1  0  0  0  0
 61 28  1  0  0  0  0
 62 28  1  0  0  0  0
 63 28  1  0  0  0  0
 64 29  1  0  0  0  0
 65 29  1  0  0  0  0
 66 29  1  0  0  0  0
 67 31  1  0  0  0  0
 68 31  1  0  0  0  0
 69 31  1  0  0  0  0
 70 33  1  0  0  0  0
 71 33  1  0  0  0  0
 72 33  1  0  0  0  0
 73 35  1  0  0  0  0
 74 35  1  0  0  0  0
 75 35  1  0  0  0  0
 76 37  1  0  0  0  0
 77 37  1  0  0  0  0
 78 37  1  0  0  0  0
  3 25  4  0  0  0  0
  4 20  4  0  0  0  0
  4 25  4  0  0  0  0
  5  6  1  0  0  0  0
  5  9  1  0  0  0  0
  6  7  1  0  0  0  0
  6 13  1  0  0  0  0
  7  8  1  0  0  0  0
  7 14  1  0  0  0  0
  8  9  1  0  0  0  0
  8 10  1  0  0  0  0
  9 11  1  0  0  0  0
  9 12  1  0  0  0  0
 10 11  1  0  0  0  0
 10 14  1  0  0  0  0
 11 12  1  0  0  0  0
 11 15  1  0  0  0  0
 12 13  1  0  0  0  0
 12 15  1  0  0  0  0
 13 14  1  0  0  0  0
 13 15  1  0  0  0  0
 14 15  1  0  0  0  0
 30 32  4  0  0  0  0
 30 36  4  0  0  0  0
 32 34  4  0  0  0  0
 34 36  4  0  0  0  0
M  END
$$$$
KAXGOF10

From CSD data. Using bond type 'Any'. No disordered atoms. Largest molecule.
 78104  0  0  0  0  0  0  0  0999 V2000
    2.9199    5.1836   10.0127 Rh  0  0  0  0  0  0  0  0  0  0  0  0
    0.3340    2.7001   12.0608 Co  0  0  0  0  0  0  0  0  0  0  0  0
    4.8247    4.4770   11.2851 P   0  0  0  0  0  0  0  0  0  0  0  0
    2.2965    3.6243   11.5774 P   0  0  0  0  0  0  0  0  0  0  0  0
    2.9211    7.2776    9.3116 C   0  0  0  0  0  0  0  0  0  0  0  0
    3.6534    6.2570    8.2991 C   0  0  0  0  0  0  0  0  0  0  0  0
    2.5971    5.0966    7.8291 B   0  0  0  0  0  0  0  0  0  0  0  0
    1.1916    5.3079    8.6697 B   0  0  0  0  0  0  0  0  0  0  0  0
    1.3298    6.6704    9.7606 B   0  0  0  0  0  0  0  0  0  0  0  0
    1.3484    5.7742    7.0611 B   0  0  0  0  0  0  0  0  0  0  0  0
    0.4492    6.9232    8.2074 B   0  0  0  0  0  0  0  0  0  0  0  0
    1.6103    8.0785    8.6640 B   0  0  0  0  0  0  0  0  0  0  0  0
    3.1472    7.8226    7.7431 B   0  0  0  0  0  0  0  0  0  0  0  0
    2.9207    6.3606    6.7115 B   0  0  0  0  0  0  0  0  0  0  0  0
    1.6008    7.5449    6.9751 B   0  0  0  0  0  0  0  0  0  0  0  0
   -0.6235    4.4366   12.0588 C   0  0  0  0  0  0  0  0  0  0  0  0
   -1.3153    5.5152   12.0474 O   0  0  0  0  0  0  0  0  0  0  0  0
   -0.2124    2.1851   10.5190 C   0  0  0  0  0  0  0  0  0  0  0  0
   -0.5086    1.6712    9.4492 O   0  0  0  0  0  0  0  0  0  0  0  0
    3.4061    4.9122   12.0951 C   0  0  0  0  0  0  0  0  0  0  0  0
    3.2567    5.8902   13.2777 C   0  0  0  0  0  0  0  0  0  0  0  0
    3.8819    5.4084   14.5329 C   0  0  0  0  0  0  0  0  0  0  0  0
    1.7732    6.2384   13.6827 C   0  0  0  0  0  0  0  0  0  0  0  0
    3.8829    7.2309   12.9338 C   0  0  0  0  0  0  0  0  0  0  0  0
    3.7051    3.2699   10.6279 C   0  0  0  0  0  0  0  0  0  0  0  0
    4.0767    2.0401    9.7243 C   0  0  0  0  0  0  0  0  0  0  0  0
    4.6408    0.9563   10.6260 C   0  0  0  0  0  0  0  0  0  0  0  0
    2.9371    1.4878    9.0002 C   0  0  0  0  0  0  0  0  0  0  0  0
    5.2101    2.4411    8.8378 C   0  0  0  0  0  0  0  0  0  0  0  0
    0.4795    0.8900   12.8899 C   0  0  0  0  0  0  0  0  0  0  0  0
    0.8032   -0.4372   12.1391 C   0  0  0  0  0  0  0  0  0  0  0  0
    1.1395    1.7313   13.7343 C   0  0  0  0  0  0  0  0  0  0  0  0
    2.5074    1.7023   14.2864 C   0  0  0  0  0  0  0  0  0  0  0  0
   -0.1402    2.2825   13.9598 C   0  0  0  0  0  0  0  0  0  0  0  0
   -0.5055    3.2047   15.0755 C   0  0  0  0  0  0  0  0  0  0  0  0
   -0.7919    1.4340   13.0829 C   0  0  0  0  0  0  0  0  0  0  0  0
   -2.1519    1.0071   12.9071 C   0  0  0  0  0  0  0  0  0  0  0  0
    3.4219    7.7272    9.9955 H   0  0  0  0  0  0  0  0  0  0  0  0
    4.5962    6.0767    8.3411 H   0  0  0  0  0  0  0  0  0  0  0  0
    2.9287    4.0812    7.5559 H   0  0  0  0  0  0  0  0  0  0  0  0
    0.5600    4.4583    8.9773 H   0  0  0  0  0  0  0  0  0  0  0  0
    0.8295    6.7429   10.7387 H   0  0  0  0  0  0  0  0  0  0  0  0
    0.8196    5.2364    6.2625 H   0  0  0  0  0  0  0  0  0  0  0  0
   -0.6241    7.1574    8.1940 H   0  0  0  0  0  0  0  0  0  0  0  0
    1.2787    9.0887    8.9524 H   0  0  0  0  0  0  0  0  0  0  0  0
    3.8140    8.6411    7.4298 H   0  0  0  0  0  0  0  0  0  0  0  0
    3.4332    6.2342    5.7448 H   0  0  0  0  0  0  0  0  0  0  0  0
    1.2644    8.1935    6.1536 H   0  0  0  0  0  0  0  0  0  0  0  0
    4.7982    5.1732   14.3667 H   0  0  0  0  0  0  0  0  0  0  0  0
    3.4052    4.6386   14.8500 H   0  0  0  0  0  0  0  0  0  0  0  0
    3.8457    6.1037   15.1920 H   0  0  0  0  0  0  0  0  0  0  0  0
    1.2983    6.5606   12.9128 H   0  0  0  0  0  0  0  0  0  0  0  0
    1.7800    6.9170   14.3610 H   0  0  0  0  0  0  0  0  0  0  0  0
    1.3395    5.4509   14.0190 H   0  0  0  0  0  0  0  0  0  0  0  0
    3.4981    7.5656   12.1200 H   0  0  0  0  0  0  0  0  0  0  0  0
    4.8294    7.1232   12.8173 H   0  0  0  0  0  0  0  0  0  0  0  0
    3.7159    7.8516   13.6464 H   0  0  0  0  0  0  0  0  0  0  0  0
    3.9579    0.6538   11.2278 H   0  0  0  0  0  0  0  0  0  0  0  0
    5.3778    1.3107   11.1304 H   0  0  0  0  0  0  0  0  0  0  0  0
    4.9441    0.2197   10.0911 H   0  0  0  0  0  0  0  0  0  0  0  0
    2.5663    2.1603    8.4232 H   0  0  0  0  0  0  0  0  0  0  0  0
    2.2689    1.1998    9.6249 H   0  0  0  0  0  0  0  0  0  0  0  0
    3.2259    0.7387    8.4729 H   0  0  0  0  0  0  0  0  0  0  0  0
    4.9189    3.1301    8.2360 H   0  0  0  0  0  0  0  0  0  0  0  0
    5.5027    1.6795    8.3315 H   0  0  0  0  0  0  0  0  0  0  0  0
    5.9359    2.7695    9.3727 H   0  0  0  0  0  0  0  0  0  0  0  0
    1.7507   -0.5875   12.1505 H   0  0  0  0  0  0  0  0  0  0  0  0
    0.4996   -0.3720   11.2297 H   0  0  0  0  0  0  0  0  0  0  0  0
    0.3574   -1.1687   12.5728 H   0  0  0  0  0  0  0  0  0  0  0  0
    2.6403    2.4638   14.8558 H   0  0  0  0  0  0  0  0  0  0  0  0
    3.1436    1.7282   13.5662 H   0  0  0  0  0  0  0  0  0  0  0  0
    2.6307    0.8973   14.7927 H   0  0  0  0  0  0  0  0  0  0  0  0
   -1.4326    3.4388   15.0048 H   0  0  0  0  0  0  0  0  0  0  0  0
    0.0311    3.9993   15.0239 H   0  0  0  0  0  0  0  0  0  0  0  0
   -0.3491    2.7664   15.9142 H   0  0  0  0  0  0  0  0  0  0  0  0
   -2.2063    0.3968   12.1697 H   0  0  0  0  0  0  0  0  0  0  0  0
   -2.7065    1.7707   12.7332 H   0  0  0  0  0  0  0  0  0  0  0  0
   -2.4520    0.5699   13.7076 H   0  0  0  0  0  0  0  0  0  0  0  0
  1  3  8  0  0  0  0
  2  4  1  0  0  0  0
  3 20  4  0  0  0  0
  4  1  8  0  0  0  0
  5  1  1  0  0  0  0
  6  1  1  0  0  0  0
  7  1  1  0  0  0  0
  8  1  1  0  0  0  0
  9  1  1  0  0  0  0
 10  7  1  0  0  0  0
 11  8  1  0  0  0  0
 12  5  1  0  0  0  0
 13  5  1  0  0  0  0
 14  6  1  0  0  0  0
 15 10  1  0  0  0  0
 16  2  1  0  0  0  0
 17 16  3  0  0  0  0
 18  2  1  0  0  0  0
 19 18  3  0  0  0  0
 20  1  8  0  0  0  0
 21 20  1  0  0  0  0
 22 21  1  0  0  0  0
 23 21  1  0  0  0  0
 24 21  1  0  0  0  0
 25  1  8  0  0  0  0
 26 25  1  0  0  0  0
 27 26  1  0  0  0  0
 28 26  1  0  0  0  0
 29 26  1  0  0  0  0
 30  2  8  0  0  0  0
 31 30  1  0  0  0  0
 32  2  8  0  0  0  0
 33 32  1  0  0  0  0
 34  2  8  0  0  0  0
 35 34  1  0  0  0  0
 36  2  8  0  0  0  0
 37 36  1  0  0  0  0
 38  5  1  0  0  0  0
 39  6  1  0  0  0  0
 40  7  1  0  0  0  0
 41  8  1  0  0  0  0
 42  9  1  0  0  0  0
 43 10  1  0  0  0  0
 44 11  1  0  0  0  0
 45 12  1  0  0  0  0
 46 13  1  0  0  0  0
 47 14  1  0  0  0  0
 48 15  1  0  0  0  0
 49 22  1  0  0  0  0
 50 22  1  0  0  0  0
 51 22  1  0  0  0  0
 52 23  1  0  0  0  0
 53 23  1  0  0  0  0
 54 23  1  0  0  0  0
 55 24  1  0  0  0  0
 56 24  1  0  0  0  0
 57 24  1  0  0  0  0
 58 27  1  0  0  0  0
 59 27  1  0  0  0  0
 60 27  1  0  0  0  0
 61 28  1  0  0  0  0
 62 28  1  0  0  0  0
 63 28  1  0  0  0  0
 64 29  1  0  0  0  0
 65 29  1  0  0  0  0
 66 29  1  0  0  0  0
 67 31  1  0  0  0  0
 68 31  1  0  0  0  0
 69 31  1  0  0  0  0
 70 33  1  0  0  0  0
 71 33  1  0  0  0  0
 72 33  1  0  0  0  0
 73 35  1  0  0  0  0
 74 35  1  0  0  0  0
 75 35  1  0  0  0  0
 76 37  1  0  0  0  0
 77 37  1  0  0  0  0
 78 37  1  0  0  0  0
  3 25  4  0  0  0  0
  4 20  4  0  0  0  0
  4 25  4  0  0  0  0
  5  6  1  0  0  0  0
  5  9  1  0  0  0  0
  6  7  1  0  0  0  0
  6 13  1  0  0  0  0
  7  8  1  0  0  0  0
  7 14  1  0  0  0  0
  8  9  1  0  0  0  0
  8 10  1  0  0  0  0
  9 11  1  0  0  0  0
  9 12  1  0  0  0  0
 10 11  1  0  0  0  0
 10 14  1  0  0  0  0
 11 12  1  0  0  0  0
 11 15  1  0  0  0  0
 12 13  1  0  0  0  0
 12 15  1  0  0  0  0
 13 14  1  0  0  0  0
 13 15  1  0  0  0  0
 14 15  1  0  0  0  0
 30 32  4  0  0  0  0
 30 36  4  0  0  0  0
 32 34  4  0  0  0  0
 34 36  4  0  0  0  0
M  END
$$$$
KAXROT

From CSD data. Using bond type 'Any'. No disordered atoms. Largest molecule.
 99125  0  0  0  0  0  0  0  0999 V2000
    6.4963    1.6894    4.6012 Pt  0  0  0  0  0  0  0  0  0  0  0  0
    8.6497    2.6574    3.7589 Sn  0  0  0  0  0  0  0  0  0  0  0  0
    6.7149    0.2150    2.7714 Cl  0  5  0  0  0  0  0  0  0  0  0  0
    4.5629    0.5040    5.3177 Cl  0  0  0  0  0  0  0  0  0  0  0  0
   10.7693    1.2627    6.3074 P   0  0  0  0  0  0  0  0  0  0  0  0
    6.1130    3.2770    6.0932 P   0  0  0  0  0  0  0  0  0  0  0  0
    8.9431    3.6111    7.2404 O   0  0  0  0  0  0  0  0  0  0  0  0
    9.7943    2.5551    1.7578 B   0  0  0  0  0  0  0  0  0  0  0  0
    9.0877    2.3337    0.9173 H   0  0  0  0  0  0  0  0  0  0  0  0
   10.7624    2.0947    4.5590 B   0  0  0  0  0  0  0  0  0  0  0  0
   12.1417    0.0621    6.4654 C   0  0  0  0  0  0  0  0  0  0  0  0
   13.4608    0.4454    6.1908 C   0  0  0  0  0  0  0  0  0  0  0  0
   13.6420    1.3324    5.9021 H   0  0  0  0  0  0  0  0  0  0  0  0
   14.4981   -0.4487    6.3333 C   0  0  0  0  0  0  0  0  0  0  0  0
   15.3926   -0.1705    6.1762 H   0  0  0  0  0  0  0  0  0  0  0  0
   14.2325   -1.7635    6.7079 C   0  0  0  0  0  0  0  0  0  0  0  0
   14.9476   -2.3847    6.8011 H   0  0  0  0  0  0  0  0  0  0  0  0
   12.9415   -2.1672    6.9418 C   0  0  0  0  0  0  0  0  0  0  0  0
   12.7653   -3.0705    7.1775 H   0  0  0  0  0  0  0  0  0  0  0  0
   11.8903   -1.2639    6.8375 C   0  0  0  0  0  0  0  0  0  0  0  0
   11.0013   -1.5460    7.0185 H   0  0  0  0  0  0  0  0  0  0  0  0
   11.0633    2.5444    7.5651 C   0  0  0  0  0  0  0  0  0  0  0  0
   10.2448    3.6695    7.7354 C   0  0  0  0  0  0  0  0  0  0  0  0
    8.3303    4.8226    6.9202 C   0  0  0  0  0  0  0  0  0  0  0  0
    8.8449    6.0281    7.3767 C   0  0  0  0  0  0  0  0  0  0  0  0
    9.7840    5.9940    8.5717 C   0  0  0  0  0  0  0  0  0  0  0  0
   10.7034    4.8034    8.4190 C   0  0  0  0  0  0  0  0  0  0  0  0
   11.9645    4.7517    9.0103 C   0  0  0  0  0  0  0  0  0  0  0  0
   12.2996    5.5218    9.4543 H   0  0  0  0  0  0  0  0  0  0  0  0
   12.7313    3.6211    8.9628 C   0  0  0  0  0  0  0  0  0  0  0  0
   13.5579    3.5858    9.4287 H   0  0  0  0  0  0  0  0  0  0  0  0
   12.2933    2.5291    8.2355 C   0  0  0  0  0  0  0  0  0  0  0  0
   12.8383    1.7518    8.1880 H   0  0  0  0  0  0  0  0  0  0  0  0
    8.9044    5.7118    9.8234 C   0  0  0  0  0  0  0  0  0  0  0  0
    8.2424    6.4270    9.9257 H   0  0  0  0  0  0  0  0  0  0  0  0
    9.4738    5.6766   10.6201 H   0  0  0  0  0  0  0  0  0  0  0  0
    8.4437    4.8536    9.7119 H   0  0  0  0  0  0  0  0  0  0  0  0
   10.5104    7.3068    8.7727 C   0  0  0  0  0  0  0  0  0  0  0  0
   11.0169    7.5282    7.9632 H   0  0  0  0  0  0  0  0  0  0  0  0
   11.1251    7.2284    9.5310 H   0  0  0  0  0  0  0  0  0  0  0  0
    9.8586    8.0162    8.9518 H   0  0  0  0  0  0  0  0  0  0  0  0
    8.3404    7.2049    6.8504 C   0  0  0  0  0  0  0  0  0  0  0  0
    8.7149    8.0357    7.1172 H   0  0  0  0  0  0  0  0  0  0  0  0
    7.3002    7.1873    5.9386 C   0  0  0  0  0  0  0  0  0  0  0  0
    7.0160    7.9907    5.5165 H   0  0  0  0  0  0  0  0  0  0  0  0
    6.6797    5.9885    5.6463 C   0  0  0  0  0  0  0  0  0  0  0  0
    5.9159    5.9881    5.0816 H   0  0  0  0  0  0  0  0  0  0  0  0
    7.1451    4.7805    6.1586 C   0  0  0  0  0  0  0  0  0  0  0  0
    4.4421    3.8776    5.6298 C   0  0  0  0  0  0  0  0  0  0  0  0
    4.2338    4.2168    4.2977 C   0  0  0  0  0  0  0  0  0  0  0  0
    4.9650    4.2344    3.6947 H   0  0  0  0  0  0  0  0  0  0  0  0
    2.9615    4.5322    3.8482 C   0  0  0  0  0  0  0  0  0  0  0  0
    2.8338    4.8085    2.9492 H   0  0  0  0  0  0  0  0  0  0  0  0
    1.9062    4.4460    4.6796 C   0  0  0  0  0  0  0  0  0  0  0  0
    1.0344    4.6439    4.3617 H   0  0  0  0  0  0  0  0  0  0  0  0
    2.0934    4.0678    6.0081 C   0  0  0  0  0  0  0  0  0  0  0  0
    1.3467    3.9895    6.5891 H   0  0  0  0  0  0  0  0  0  0  0  0
    3.3694    3.8014    6.4777 C   0  0  0  0  0  0  0  0  0  0  0  0
    3.4998    3.5682    7.3895 H   0  0  0  0  0  0  0  0  0  0  0  0
    5.9514    2.8941    7.8627 C   0  0  0  0  0  0  0  0  0  0  0  0
    5.7293    3.9385    8.7691 C   0  0  0  0  0  0  0  0  0  0  0  0
    5.7401    4.8379    8.4639 H   0  0  0  0  0  0  0  0  0  0  0  0
    5.4950    3.6701   10.0975 C   0  0  0  0  0  0  0  0  0  0  0  0
    5.3350    4.3853   10.7005 H   0  0  0  0  0  0  0  0  0  0  0  0
    5.4924    2.3572   10.5616 C   0  0  0  0  0  0  0  0  0  0  0  0
    5.3264    2.1711   11.4789 H   0  0  0  0  0  0  0  0  0  0  0  0
    5.7339    1.3285    9.6717 C   0  0  0  0  0  0  0  0  0  0  0  0
    5.7510    0.4311    9.9860 H   0  0  0  0  0  0  0  0  0  0  0  0
    5.9528    1.5879    8.3269 C   0  0  0  0  0  0  0  0  0  0  0  0
    6.1037    0.8700    7.7220 H   0  0  0  0  0  0  0  0  0  0  0  0
    9.3386    0.2659    6.7775 C   0  0  0  0  0  0  0  0  0  0  0  0
    8.7563   -0.5702    5.8125 C   0  0  0  0  0  0  0  0  0  0  0  0
    8.9652   -0.4546    4.8916 H   0  0  0  0  0  0  0  0  0  0  0  0
    7.8773   -1.5629    6.2054 C   0  0  0  0  0  0  0  0  0  0  0  0
    7.4815   -2.1280    5.5512 H   0  0  0  0  0  0  0  0  0  0  0  0
    7.5734   -1.7388    7.5411 C   0  0  0  0  0  0  0  0  0  0  0  0
    6.9894   -2.4395    7.8061 H   0  0  0  0  0  0  0  0  0  0  0  0
    8.1175   -0.8939    8.5005 C   0  0  0  0  0  0  0  0  0  0  0  0
    7.8830   -0.9993    9.4141 H   0  0  0  0  0  0  0  0  0  0  0  0
    9.0092    0.1086    8.1173 C   0  0  0  0  0  0  0  0  0  0  0  0
    9.3915    0.6819    8.7709 H   0  0  0  0  0  0  0  0  0  0  0  0
   11.1661    3.6622    1.5459 B   0  0  0  0  0  0  0  0  0  0  0  0
   11.4533    1.9007    1.7469 B   0  0  0  0  0  0  0  0  0  0  0  0
   10.3465    1.2403    2.9620 B   0  0  0  0  0  0  0  0  0  0  0  0
    9.9948    0.1783    2.9108 H   0  0  0  0  0  0  0  0  0  0  0  0
   12.0228    1.6087    3.3987 B   0  0  0  0  0  0  0  0  0  0  0  0
   12.1043    3.1861    4.2429 B   0  0  0  0  0  0  0  0  0  0  0  0
   10.5039    3.9424    4.3818 B   0  0  0  0  0  0  0  0  0  0  0  0
   10.2626    4.6184    5.2406 H   0  0  0  0  0  0  0  0  0  0  0  0
    9.8893    4.2501    2.6331 B   0  0  0  0  0  0  0  0  0  0  0  0
    9.2512    5.1299    2.3590 H   0  0  0  0  0  0  0  0  0  0  0  0
   11.5830    4.4617    3.0954 B   0  0  0  0  0  0  0  0  0  0  0  0
   12.5474    3.0685    2.5326 B   0  0  0  0  0  0  0  0  0  0  0  0
   11.2725    4.1541    0.6213 H   0  0  0  0  0  0  0  0  0  0  0  0
   11.7474    1.2541    0.9319 H   0  0  0  0  0  0  0  0  0  0  0  0
   12.6963    0.8034    3.6363 H   0  0  0  0  0  0  0  0  0  0  0  0
   12.8783    3.3703    5.0798 H   0  0  0  0  0  0  0  0  0  0  0  0
   12.0349    5.4669    3.1246 H   0  0  0  0  0  0  0  0  0  0  0  0
   13.6049    3.1743    2.1196 H   0  0  0  0  0  0  0  0  0  0  0  0
  1  2  1  0  0  0  0
  2  8  1  0  0  0  0
  3  1  1  0  0  0  0
  4  1  1  0  0  0  0
  5 10  1  0  0  0  0
  6  1  1  0  0  0  0
  7 23  1  0  0  0  0
  8  9  1  0  0  0  0
 10  2  1  0  0  0  0
 11  5  1  0  0  0  0
 12 11  4  0  0  0  0
 13 12  1  0  0  0  0
 14 12  4  0  0  0  0
 15 14  1  0  0  0  0
 16 14  4  0  0  0  0
 17 16  1  0  0  0  0
 18 16  4  0  0  0  0
 19 18  1  0  0  0  0
 20 11  4  0  0  0  0
 21 20  1  0  0  0  0
 22  5  1  0  0  0  0
 23 22  4  0  0  0  0
 24  7  1  0  0  0  0
 25 24  4  0  0  0  0
 26 25  1  0  0  0  0
 27 23  4  0  0  0  0
 28 27  4  0  0  0  0
 29 28  1  0  0  0  0
 30 28  4  0  0  0  0
 31 30  1  0  0  0  0
 32 22  4  0  0  0  0
 33 32  1  0  0  0  0
 34 26  1  0  0  0  0
 35 34  1  0  0  0  0
 36 34  1  0  0  0  0
 37 34  1  0  0  0  0
 38 26  1  0  0  0  0
 39 38  1  0  0  0  0
 40 38  1  0  0  0  0
 41 38  1  0  0  0  0
 42 25  4  0  0  0  0
 43 42  1  0  0  0  0
 44 42  4  0  0  0  0
 45 44  1  0  0  0  0
 46 44  4  0  0  0  0
 47 46  1  0  0  0  0
 48  6  1  0  0  0  0
 49  6  1  0  0  0  0
 50 49  4  0  0  0  0
 51 50  1  0  0  0  0
 52 50  4  0  0  0  0
 53 52  1  0  0  0  0
 54 52  4  0  0  0  0
 55 54  1  0  0  0  0
 56 54  4  0  0  0  0
 57 56  1  0  0  0  0
 58 49  4  0  0  0  0
 59 58  1  0  0  0  0
 60  6  1  0  0  0  0
 61 60  4  0  0  0  0
 62 61  1  0  0  0  0
 63 61  4  0  0  0  0
 64 63  1  0  0  0  0
 65 63  4  0  0  0  0
 66 65  1  0  0  0  0
 67 65  4  0  0  0  0
 68 67  1  0  0  0  0
 69 60  4  0  0  0  0
 70 69  1  0  0  0  0
 71  5  1  0  0  0  0
 72 71  4  0  0  0  0
 73 72  1  0  0  0  0
 74 72  4  0  0  0  0
 75 74  1  0  0  0  0
 76 74  4  0  0  0  0
 77 76  1  0  0  0  0
 78 76  4  0  0  0  0
 79 78  1  0  0  0  0
 80 71  4  0  0  0  0
 81 80  1  0  0  0  0
 82  8  1  0  0  0  0
 83  8  1  0  0  0  0
 84  2  1  0  0  0  0
 85 84  1  0  0  0  0
 86 10  1  0  0  0  0
 87 10  1  0  0  0  0
 88  2  1  0  0  0  0
 89 88  1  0  0  0  0
 90  2  1  0  0  0  0
 91 90  1  0  0  0  0
 92 82  1  0  0  0  0
 93 82  1  0  0  0  0
 94 82  1  0  0  0  0
 95 83  1  0  0  0  0
 96 86  1  0  0  0  0
 97 87  1  0  0  0  0
 98 92  1  0  0  0  0
 99 93  1  0  0  0  0
  8 84  1  0  0  0  0
  8 90  1  0  0  0  0
 10 84  1  0  0  0  0
 10 88  1  0  0  0  0
 18 20  4  0  0  0  0
 24 48  4  0  0  0  0
 26 27  1  0  0  0  0
 30 32  4  0  0  0  0
 46 48  4  0  0  0  0
 56 58  4  0  0  0  0
 67 69  4  0  0  0  0
 78 80  4  0  0  0  0
 82 83  1  0  0  0  0
 82 90  1  0  0  0  0
 83 84  1  0  0  0  0
 83 86  1  0  0  0  0
 83 93  1  0  0  0  0
 84 86  1  0  0  0  0
 86 87  1  0  0  0  0
 86 93  1  0  0  0  0
 87 88  1  0  0  0  0
 87 92  1  0  0  0  0
 87 93  1  0  0  0  0
 88 90  1  0  0  0  0
 88 92  1  0  0  0  0
 90 92  1  0  0  0  0
 92 93  1  0  0  0  0
M  CHG  1   3  -1
M  END
$$$$
KAXRUZ

From CSD data. Using bond type 'Any'. No disordered atoms. Largest molecule.
 97122  0  0  0  0  0  0  0  0999 V2000
    3.3254    3.2682    2.3201 Sn  0  0  0  0  0  0  0  0  0  0  0  0
    5.5214    3.9893    5.0914 P   0  0  0  0  0  0  0  0  0  0  0  0
    8.1591    0.2271    4.1297 P   0  3  0  0  0  0  0  0  0  0  0  0
    7.2520    2.8310    2.9750 O   0  0  0  0  0  0  0  0  0  0  0  0
    6.9182    3.3776    6.0683 C   0  0  0  0  0  0  0  0  0  0  0  0
    8.1893    3.9269    5.8832 C   0  0  0  0  0  0  0  0  0  0  0  0
    8.3452    4.5350    5.1702 H   0  0  0  0  0  0  0  0  0  0  0  0
    9.2259    3.5829    6.7435 C   0  0  0  0  0  0  0  0  0  0  0  0
   10.0886    3.9587    6.6181 H   0  0  0  0  0  0  0  0  0  0  0  0
    9.0055    2.6955    7.7824 C   0  0  0  0  0  0  0  0  0  0  0  0
    9.7164    2.4659    8.3688 H   0  0  0  0  0  0  0  0  0  0  0  0
    7.7477    2.1403    7.9682 C   0  0  0  0  0  0  0  0  0  0  0  0
    7.6032    1.5230    8.6747 H   0  0  0  0  0  0  0  0  0  0  0  0
    6.6982    2.4846    7.1229 C   0  0  0  0  0  0  0  0  0  0  0  0
    5.8343    2.1145    7.2609 H   0  0  0  0  0  0  0  0  0  0  0  0
    4.7968    5.2829    6.1511 C   0  0  0  0  0  0  0  0  0  0  0  0
    3.8131    6.1376    5.6342 C   0  0  0  0  0  0  0  0  0  0  0  0
    3.5374    6.0486    4.7298 H   0  0  0  0  0  0  0  0  0  0  0  0
    3.2398    7.1118    6.4340 C   0  0  0  0  0  0  0  0  0  0  0  0
    2.5982    7.7095    6.0664 H   0  0  0  0  0  0  0  0  0  0  0  0
    3.5989    7.2194    7.7695 C   0  0  0  0  0  0  0  0  0  0  0  0
    3.1872    7.8739    8.3224 H   0  0  0  0  0  0  0  0  0  0  0  0
    4.5557    6.3730    8.2923 C   0  0  0  0  0  0  0  0  0  0  0  0
    4.7986    6.4454    9.2078 H   0  0  0  0  0  0  0  0  0  0  0  0
    5.1652    5.4173    7.4915 C   0  0  0  0  0  0  0  0  0  0  0  0
    5.8352    4.8525    7.8573 H   0  0  0  0  0  0  0  0  0  0  0  0
    6.2373    4.8540    3.6538 C   0  0  0  0  0  0  0  0  0  0  0  0
    6.9010    4.1320    2.6461 C   0  0  0  0  0  0  0  0  0  0  0  0
    7.8245    2.0302    2.0089 C   0  0  0  0  0  0  0  0  0  0  0  0
    8.0340    2.4451    0.7038 C   0  0  0  0  0  0  0  0  0  0  0  0
    7.7577    3.8744    0.2560 C   0  0  0  0  0  0  0  0  0  0  0  0
    7.2012    4.6883    1.4077 C   0  0  0  0  0  0  0  0  0  0  0  0
    6.9120    6.0454    1.2292 C   0  0  0  0  0  0  0  0  0  0  0  0
    7.1014    6.4511    0.3909 H   0  0  0  0  0  0  0  0  0  0  0  0
    6.3607    6.8078    2.2319 C   0  0  0  0  0  0  0  0  0  0  0  0
    6.2159    7.7379    2.0999 H   0  0  0  0  0  0  0  0  0  0  0  0
    6.0150    6.2141    3.4396 C   0  0  0  0  0  0  0  0  0  0  0  0
    5.6238    6.7402    4.1272 H   0  0  0  0  0  0  0  0  0  0  0  0
    9.0700    4.5008   -0.2339 C   0  0  0  0  0  0  0  0  0  0  0  0
    8.9029    5.4212   -0.5285 H   0  0  0  0  0  0  0  0  0  0  0  0
    9.4224    3.9757   -0.9827 H   0  0  0  0  0  0  0  0  0  0  0  0
    9.7225    4.5067    0.4976 H   0  0  0  0  0  0  0  0  0  0  0  0
    6.7004    3.8502   -0.8750 C   0  0  0  0  0  0  0  0  0  0  0  0
    5.8491    3.5184   -0.5192 H   0  0  0  0  0  0  0  0  0  0  0  0
    7.0053    3.2595   -1.5946 H   0  0  0  0  0  0  0  0  0  0  0  0
    6.5775    4.7561   -1.2269 H   0  0  0  0  0  0  0  0  0  0  0  0
    8.5654    1.5164   -0.1941 C   0  0  0  0  0  0  0  0  0  0  0  0
    8.6800    1.7762   -1.1002 H   0  0  0  0  0  0  0  0  0  0  0  0
    8.9316    0.2398    0.1779 C   0  0  0  0  0  0  0  0  0  0  0  0
    9.2907   -0.3647   -0.4605 H   0  0  0  0  0  0  0  0  0  0  0  0
    8.7667   -0.1481    1.5015 C   0  0  0  0  0  0  0  0  0  0  0  0
    9.0316   -1.0166    1.7801 H   0  0  0  0  0  0  0  0  0  0  0  0
    8.2087    0.7443    2.4232 C   0  0  0  0  0  0  0  0  0  0  0  0
    9.7717    0.4875    4.8657 C   0  0  0  0  0  0  0  0  0  0  0  0
   10.0336   -0.0701    6.1169 C   0  0  0  0  0  0  0  0  0  0  0  0
    9.3494   -0.5272    6.5902 H   0  0  0  0  0  0  0  0  0  0  0  0
   11.2999    0.0501    6.6610 C   0  0  0  0  0  0  0  0  0  0  0  0
   11.4911   -0.3326    7.5096 H   0  0  0  0  0  0  0  0  0  0  0  0
   12.2878    0.7275    5.9688 C   0  0  0  0  0  0  0  0  0  0  0  0
   13.1566    0.8012    6.3461 H   0  0  0  0  0  0  0  0  0  0  0  0
   12.0310    1.2987    4.7363 C   0  0  0  0  0  0  0  0  0  0  0  0
   12.7142    1.7724    4.2771 H   0  0  0  0  0  0  0  0  0  0  0  0
   10.7674    1.1740    4.1737 C   0  0  0  0  0  0  0  0  0  0  0  0
   10.5839    1.5551    3.3222 H   0  0  0  0  0  0  0  0  0  0  0  0
    7.7184   -1.4975    4.2621 C   0  0  0  0  0  0  0  0  0  0  0  0
    6.3620   -1.8201    4.2510 C   0  0  0  0  0  0  0  0  0  0  0  0
    5.7081   -1.1319    4.2153 H   0  0  0  0  0  0  0  0  0  0  0  0
    5.9747   -3.1499    4.2927 C   0  0  0  0  0  0  0  0  0  0  0  0
    5.0524   -3.3786    4.2802 H   0  0  0  0  0  0  0  0  0  0  0  0
    6.9294   -4.1399    4.3517 C   0  0  0  0  0  0  0  0  0  0  0  0
    6.6602   -5.0509    4.3760 H   0  0  0  0  0  0  0  0  0  0  0  0
    8.2752   -3.8238    4.3761 C   0  0  0  0  0  0  0  0  0  0  0  0
    8.9222   -4.5180    4.4254 H   0  0  0  0  0  0  0  0  0  0  0  0
    8.6883   -2.4984    4.3285 C   0  0  0  0  0  0  0  0  0  0  0  0
    9.6128   -2.2788    4.3404 H   0  0  0  0  0  0  0  0  0  0  0  0
    2.6349    1.0073    2.6723 B   0  0  0  0  0  0  0  0  0  0  0  0
    2.4920    0.5442    1.6626 H   0  0  0  0  0  0  0  0  0  0  0  0
    1.4655    2.2184    3.3909 B   0  5  0  0  0  0  0  0  0  0  0  0
    0.5434    2.5585    2.8540 H   0  0  0  0  0  0  0  0  0  0  0  0
    1.5621    0.5708    4.0158 B   0  0  0  0  0  0  0  0  0  0  0  0
    1.4195    1.9425    5.1449 B   0  0  0  0  0  0  0  0  0  0  0  0
    2.3831    3.3032    4.5490 B   0  0  0  0  0  0  0  0  0  0  0  0
    2.0787    4.3555    4.7777 H   0  0  0  0  0  0  0  0  0  0  0  0
    3.0266    2.2586    5.8485 B   0  0  0  0  0  0  0  0  0  0  0  0
    3.1555    2.6530    6.8885 H   0  0  0  0  0  0  0  0  0  0  0  0
    4.1677    1.0697    5.1376 B   0  0  0  0  0  0  0  0  0  0  0  0
    5.0446    0.6840    5.7172 H   0  0  0  0  0  0  0  0  0  0  0  0
    4.3047    1.3237    3.3775 B   0  0  0  0  0  0  0  0  0  0  0  0
    5.2592    1.0771    2.8447 H   0  0  0  0  0  0  0  0  0  0  0  0
    3.2545    0.0359    4.0146 B   0  0  0  0  0  0  0  0  0  0  0  0
    2.4965    0.5850    5.5237 B   0  0  0  0  0  0  0  0  0  0  0  0
    4.1325    2.7378    4.5421 B   0  0  0  0  0  0  0  0  0  0  0  0
    0.7273   -0.1153    3.8460 H   0  0  0  0  0  0  0  0  0  0  0  0
    0.4737    2.1390    5.7234 H   0  0  0  0  0  0  0  0  0  0  0  0
    3.5127   -1.0109    3.8722 H   0  0  0  0  0  0  0  0  0  0  0  0
    2.2805   -0.0907    6.2858 H   0  0  0  0  0  0  0  0  0  0  0  0
    7.2595    0.8617    4.7221 H   0  0  0  0  0  0  0  0  0  0  0  0
  1 76  1  0  0  0  0
  2  5  1  0  0  0  0
  3 53  1  0  0  0  0
  4 28  1  0  0  0  0
  5  6  4  0  0  0  0
  6  7  1  0  0  0  0
  8  6  4  0  0  0  0
  9  8  1  0  0  0  0
 10  8  4  0  0  0  0
 11 10  1  0  0  0  0
 12 10  4  0  0  0  0
 13 12  1  0  0  0  0
 14  5  4  0  0  0  0
 15 14  1  0  0  0  0
 16  2  1  0  0  0  0
 17 16  4  0  0  0  0
 18 17  1  0  0  0  0
 19 17  4  0  0  0  0
 20 19  1  0  0  0  0
 21 19  4  0  0  0  0
 22 21  1  0  0  0  0
 23 21  4  0  0  0  0
 24 23  1  0  0  0  0
 25 16  4  0  0  0  0
 26 25  1  0  0  0  0
 27  2  1  0  0  0  0
 28 27  4  0  0  0  0
 29  4  1  0  0  0  0
 30 29  4  0  0  0  0
 31 30  1  0  0  0  0
 32 28  4  0  0  0  0
 33 32  4  0  0  0  0
 34 33  1  0  0  0  0
 35 33  4  0  0  0  0
 36 35  1  0  0  0  0
 37 27  4  0  0  0  0
 38 37  1  0  0  0  0
 39 31  1  0  0  0  0
 40 39  1  0  0  0  0
 41 39  1  0  0  0  0
 42 39  1  0  0  0  0
 43 31  1  0  0  0  0
 44 43  1  0  0  0  0
 45 43  1  0  0  0  0
 46 43  1  0  0  0  0
 47 30  4  0  0  0  0
 48 47  1  0  0  0  0
 49 47  4  0  0  0  0
 50 49  1  0  0  0  0
 51 49  4  0  0  0  0
 52 51  1  0  0  0  0
 53 29  4  0  0  0  0
 54  3  1  0  0  0  0
 55 54  4  0  0  0  0
 56 55  1  0  0  0  0
 57 55  4  0  0  0  0
 58 57  1  0  0  0  0
 59 57  4  0  0  0  0
 60 59  1  0  0  0  0
 61 59  4  0  0  0  0
 62 61  1  0  0  0  0
 63 54  4  0  0  0  0
 64 63  1  0  0  0  0
 65  3  1  0  0  0  0
 66 65  4  0  0  0  0
 67 66  1  0  0  0  0
 68 66  4  0  0  0  0
 69 68  1  0  0  0  0
 70 68  4  0  0  0  0
 71 70  1  0  0  0  0
 72 70  4  0  0  0  0
 73 72  1  0  0  0  0
 74 65  4  0  0  0  0
 75 74  1  0  0  0  0
 76 77  1  0  0  0  0
 78  1  1  0  0  0  0
 79 78  1  0  0  0  0
 80 76  1  0  0  0  0
 81 78  1  0  0  0  0
 82  1  1  0  0  0  0
 83 82  1  0  0  0  0
 84 81  1  0  0  0  0
 85 84  1  0  0  0  0
 86 84  1  0  0  0  0
 87 86  1  0  0  0  0
 88  1  1  0  0  0  0
 89 88  1  0  0  0  0
 90 76  1  0  0  0  0
 91 80  1  0  0  0  0
 92  1  1  0  0  0  0
 93 80  1  0  0  0  0
 94 81  1  0  0  0  0
 95 90  1  0  0  0  0
 96 91  1  0  0  0  0
 97  3  1  0  0  0  0
  2 92  1  0  0  0  0
 12 14  4  0  0  0  0
 23 25  4  0  0  0  0
 31 32  1  0  0  0  0
 35 37  4  0  0  0  0
 51 53  4  0  0  0  0
 61 63  4  0  0  0  0
 72 74  4  0  0  0  0
 76 78  1  0  0  0  0
 76 88  1  0  0  0  0
 78 80  1  0  0  0  0
 78 82  1  0  0  0  0
 80 81  1  0  0  0  0
 80 90  1  0  0  0  0
 81 82  1  0  0  0  0
 81 91  1  0  0  0  0
 82 84  1  0  0  0  0
 82 92  1  0  0  0  0
 84 91  1  0  0  0  0
 84 92  1  0  0  0  0
 86 88  1  0  0  0  0
 86 90  1  0  0  0  0
 86 91  1  0  0  0  0
 86 92  1  0  0  0  0
 88 90  1  0  0  0  0
 88 92  1  0  0  0  0
 90 91  1  0  0  0  0
M  CHG  2   3   1  78  -1
M  END
$$$$
KAXSAG

From CSD data. Using bond type 'Any'. No disordered atoms. Largest molecule.
198252  0  0  0  0  0  0  0  0999 V2000
    6.4996    7.2563    1.6409 Sn  0  0  0  0  0  0  0  0  0  0  0  0
    6.7105    5.3499    4.7138 Sn  0  0  0  0  0  0  0  0  0  0  0  0
    5.9536   11.1211   -0.8445 Rh  0  0  0  0  0  0  0  0  0  0  0  0
    8.0189    7.3952    3.6998 Rh  0  0  0  0  0  0  0  0  0  0  0  0
    3.8940    9.8620    1.9274 P   0  0  0  0  0  0  0  0  0  0  0  0
    4.8146   12.6803   -1.9746 P   0  0  0  0  0  0  0  0  0  0  0  0
    9.4129    3.0092    4.3097 P   0  0  0  0  0  0  0  0  0  0  0  0
    9.2780    7.8520    5.5546 P   0  0  0  0  0  0  0  0  0  0  0  0
    8.3005   12.9237   -0.5601 O   0  0  0  0  0  0  0  0  0  0  0  0
    9.5439    5.0180    6.6075 O   0  0  0  0  0  0  0  0  0  0  0  0
    9.2793    9.6443    2.1896 O   0  0  0  0  0  0  0  0  0  0  0  0
    2.5628   11.2351   -0.4943 O   0  0  0  0  0  0  0  0  0  0  0  0
    7.3805   12.2610   -0.6640 C   0  0  0  0  0  0  0  0  0  0  0  0
    1.6410   10.6232    0.3442 C   0  0  0  0  0  0  0  0  0  0  0  0
    2.8975   12.3425   -3.9558 C   0  0  0  0  0  0  0  0  0  0  0  0
    3.5609   12.7048   -4.5301 H   0  0  0  0  0  0  0  0  0  0  0  0
    6.0786   11.4521    2.3750 C   0  0  0  0  0  0  0  0  0  0  0  0
    6.5527   10.6302    2.4316 H   0  0  0  0  0  0  0  0  0  0  0  0
    8.3189    8.0624    8.1687 C   0  0  0  0  0  0  0  0  0  0  0  0
    8.0529    8.9378    7.9128 H   0  0  0  0  0  0  0  0  0  0  0  0
    3.9455    9.3214    3.6577 C   0  0  0  0  0  0  0  0  0  0  0  0
    4.0328   10.2654    4.6847 C   0  0  0  0  0  0  0  0  0  0  0  0
    4.1281   11.1871    4.4760 H   0  0  0  0  0  0  0  0  0  0  0  0
    3.9809    9.8544    6.0025 C   0  0  0  0  0  0  0  0  0  0  0  0
    4.0348   10.4977    6.6998 H   0  0  0  0  0  0  0  0  0  0  0  0
    3.8519    8.5187    6.3151 C   0  0  0  0  0  0  0  0  0  0  0  0
    3.8199    8.2437    7.2237 H   0  0  0  0  0  0  0  0  0  0  0  0
    3.7678    7.5797    5.3060 C   0  0  0  0  0  0  0  0  0  0  0  0
    3.6818    6.6589    5.5210 H   0  0  0  0  0  0  0  0  0  0  0  0
    3.8093    7.9788    3.9803 C   0  0  0  0  0  0  0  0  0  0  0  0
    3.7452    7.3312    3.2887 H   0  0  0  0  0  0  0  0  0  0  0  0
    2.1318   10.1259    1.5706 C   0  0  0  0  0  0  0  0  0  0  0  0
    3.1968   12.1218   -2.6139 C   0  0  0  0  0  0  0  0  0  0  0  0
    4.4338   14.2832   -1.1888 C   0  0  0  0  0  0  0  0  0  0  0  0
    5.4786   15.0737   -0.7127 C   0  0  0  0  0  0  0  0  0  0  0  0
    6.3706   14.7513   -0.7545 H   0  0  0  0  0  0  0  0  0  0  0  0
    5.2212   16.3342   -0.1765 C   0  0  0  0  0  0  0  0  0  0  0  0
    5.9375   16.8680    0.1481 H   0  0  0  0  0  0  0  0  0  0  0  0
    3.9264   16.8065   -0.1182 C   0  0  0  0  0  0  0  0  0  0  0  0
    3.7548   17.6744    0.2278 H   0  0  0  0  0  0  0  0  0  0  0  0
    2.8771   16.0196   -0.5609 C   0  0  0  0  0  0  0  0  0  0  0  0
    1.9855   16.3392   -0.4983 H   0  0  0  0  0  0  0  0  0  0  0  0
    3.1277   14.7594   -1.0974 C   0  0  0  0  0  0  0  0  0  0  0  0
    2.4064   14.2225   -1.4037 H   0  0  0  0  0  0  0  0  0  0  0  0
    5.7534   13.1239   -3.4760 C   0  0  0  0  0  0  0  0  0  0  0  0
    6.3993   12.1172   -4.1679 C   0  0  0  0  0  0  0  0  0  0  0  0
    6.3475   11.2199   -3.8610 H   0  0  0  0  0  0  0  0  0  0  0  0
    7.1244   12.4209   -5.3126 C   0  0  0  0  0  0  0  0  0  0  0  0
    7.5557   11.7268   -5.7972 H   0  0  0  0  0  0  0  0  0  0  0  0
    7.2201   13.7218   -5.7465 C   0  0  0  0  0  0  0  0  0  0  0  0
    7.7208   13.9262   -6.5290 H   0  0  0  0  0  0  0  0  0  0  0  0
    6.5955   14.7279   -5.0540 C   0  0  0  0  0  0  0  0  0  0  0  0
    6.6763   15.6264   -5.3530 H   0  0  0  0  0  0  0  0  0  0  0  0
    5.8484   14.4431   -3.9245 C   0  0  0  0  0  0  0  0  0  0  0  0
    5.4028   15.1397   -3.4567 H   0  0  0  0  0  0  0  0  0  0  0  0
    2.1967   11.5490   -1.7952 C   0  0  0  0  0  0  0  0  0  0  0  0
    0.9071   11.3265   -2.2699 C   0  0  0  0  0  0  0  0  0  0  0  0
   -0.2184   10.8196   -1.3861 C   0  0  0  0  0  0  0  0  0  0  0  0
   -1.3389   11.8820   -1.3092 C   0  0  0  0  0  0  0  0  0  0  0  0
   -2.0656   11.5490   -0.7432 H   0  0  0  0  0  0  0  0  0  0  0  0
   -1.6820   12.0606   -2.2095 H   0  0  0  0  0  0  0  0  0  0  0  0
   -0.9795   12.7095   -0.9254 H   0  0  0  0  0  0  0  0  0  0  0  0
    0.2970   10.5154    0.0057 C   0  0  0  0  0  0  0  0  0  0  0  0
   -0.5728   10.0213    0.9738 C   0  0  0  0  0  0  0  0  0  0  0  0
   -1.4963    9.9533    0.7659 H   0  0  0  0  0  0  0  0  0  0  0  0
   -0.1404    9.6273    2.2201 C   0  0  0  0  0  0  0  0  0  0  0  0
   -0.7653    9.3449    2.8758 H   0  0  0  0  0  0  0  0  0  0  0  0
    1.2140    9.6454    2.5091 C   0  0  0  0  0  0  0  0  0  0  0  0
    1.5201    9.3293    3.3513 H   0  0  0  0  0  0  0  0  0  0  0  0
   -0.7735    9.5069   -1.9812 C   0  0  0  0  0  0  0  0  0  0  0  0
   -0.0456    8.8583   -2.0786 H   0  0  0  0  0  0  0  0  0  0  0  0
   -1.1707    9.6881   -2.8587 H   0  0  0  0  0  0  0  0  0  0  0  0
   -1.4587    9.1406   -1.3838 H   0  0  0  0  0  0  0  0  0  0  0  0
    0.6600   11.5755   -3.6235 C   0  0  0  0  0  0  0  0  0  0  0  0
   -0.2088   11.4180   -3.9720 H   0  0  0  0  0  0  0  0  0  0  0  0
    1.6427   12.0411   -4.4632 C   0  0  0  0  0  0  0  0  0  0  0  0
    1.4627   12.1558   -5.3900 H   0  0  0  0  0  0  0  0  0  0  0  0
    4.7321   11.4576    2.0082 C   0  0  0  0  0  0  0  0  0  0  0  0
    6.7235   12.6446    2.6557 C   0  0  0  0  0  0  0  0  0  0  0  0
    7.6456   12.6455    2.8872 H   0  0  0  0  0  0  0  0  0  0  0  0
    6.0211   13.8346    2.5988 C   0  0  0  0  0  0  0  0  0  0  0  0
    6.4621   14.6515    2.8018 H   0  0  0  0  0  0  0  0  0  0  0  0
    4.6857   13.8444    2.2497 C   0  0  0  0  0  0  0  0  0  0  0  0
    4.2131   14.6671    2.2124 H   0  0  0  0  0  0  0  0  0  0  0  0
    4.0310   12.6619    1.9513 C   0  0  0  0  0  0  0  0  0  0  0  0
    3.1125   12.6705    1.7084 H   0  0  0  0  0  0  0  0  0  0  0  0
    9.8911    1.4898    3.4179 C   0  0  0  0  0  0  0  0  0  0  0  0
    9.4205    0.2486    3.8744 C   0  0  0  0  0  0  0  0  0  0  0  0
    8.8265    0.2075    4.6127 H   0  0  0  0  0  0  0  0  0  0  0  0
    9.8257   -0.9142    3.2428 C   0  0  0  0  0  0  0  0  0  0  0  0
    9.5177   -1.7548    3.5620 H   0  0  0  0  0  0  0  0  0  0  0  0
   10.6766   -0.8617    2.1492 C   0  0  0  0  0  0  0  0  0  0  0  0
   10.9320   -1.6628    1.7084 H   0  0  0  0  0  0  0  0  0  0  0  0
   11.1524    0.3595    1.7013 C   0  0  0  0  0  0  0  0  0  0  0  0
   11.7463    0.3946    0.9596 H   0  0  0  0  0  0  0  0  0  0  0  0
   10.7617    1.5352    2.3360 C   0  0  0  0  0  0  0  0  0  0  0  0
   11.0909    2.3709    2.0273 H   0  0  0  0  0  0  0  0  0  0  0  0
   10.2091    4.3022    3.3274 C   0  0  0  0  0  0  0  0  0  0  0  0
    9.5546    4.8269    2.2161 C   0  0  0  0  0  0  0  0  0  0  0  0
    8.6321    4.6483    2.0757 H   0  0  0  0  0  0  0  0  0  0  0  0
   10.2621    5.6155    1.3072 C   0  0  0  0  0  0  0  0  0  0  0  0
    9.8185    5.9851    0.5524 H   0  0  0  0  0  0  0  0  0  0  0  0
   11.6058    5.8604    1.5017 C   0  0  0  0  0  0  0  0  0  0  0  0
   12.0892    6.3828    0.8713 H   0  0  0  0  0  0  0  0  0  0  0  0
   12.2516    5.3466    2.6122 C   0  0  0  0  0  0  0  0  0  0  0  0
   13.1761    5.5249    2.7448 H   0  0  0  0  0  0  0  0  0  0  0  0
   11.5624    4.5733    3.5350 C   0  0  0  0  0  0  0  0  0  0  0  0
   12.0066    4.2318    4.3023 H   0  0  0  0  0  0  0  0  0  0  0  0
   10.2817    2.8748    5.9023 C   0  0  0  0  0  0  0  0  0  0  0  0
    9.1669    5.5291    8.9606 C   0  0  0  0  0  0  0  0  0  0  0  0
    9.1766    5.8924    7.6183 C   0  0  0  0  0  0  0  0  0  0  0  0
    8.8602    7.2025    7.2123 C   0  0  0  0  0  0  0  0  0  0  0  0
    9.1950    9.6535    5.8464 C   0  0  0  0  0  0  0  0  0  0  0  0
    8.0289   10.3401    5.5258 C   0  0  0  0  0  0  0  0  0  0  0  0
    7.2956    9.8690    5.1451 H   0  0  0  0  0  0  0  0  0  0  0  0
    7.9238   11.6972    5.7545 C   0  0  0  0  0  0  0  0  0  0  0  0
    7.1175   12.1526    5.5409 H   0  0  0  0  0  0  0  0  0  0  0  0
    8.9827   12.3899    6.2878 C   0  0  0  0  0  0  0  0  0  0  0  0
    8.9106   13.3272    6.4293 H   0  0  0  0  0  0  0  0  0  0  0  0
   10.1546   11.7270    6.6215 C   0  0  0  0  0  0  0  0  0  0  0  0
   10.8838   12.2088    6.9931 H   0  0  0  0  0  0  0  0  0  0  0  0
   10.2604   10.3554    6.4128 C   0  0  0  0  0  0  0  0  0  0  0  0
   11.0578    9.8971    6.6542 H   0  0  0  0  0  0  0  0  0  0  0  0
   11.0853    7.5890    5.4111 C   0  0  0  0  0  0  0  0  0  0  0  0
   11.7253    8.1832    4.3217 C   0  0  0  0  0  0  0  0  0  0  0  0
   11.2089    8.6477    3.6731 H   0  0  0  0  0  0  0  0  0  0  0  0
   13.0985    8.1053    4.1711 C   0  0  0  0  0  0  0  0  0  0  0  0
   13.5201    8.5307    3.4339 H   0  0  0  0  0  0  0  0  0  0  0  0
   13.8573    7.4101    5.0942 C   0  0  0  0  0  0  0  0  0  0  0  0
   14.7990    7.3452    4.9800 H   0  0  0  0  0  0  0  0  0  0  0  0
   13.2562    6.8141    6.1742 C   0  0  0  0  0  0  0  0  0  0  0  0
   13.7785    6.3345    6.8080 H   0  0  0  0  0  0  0  0  0  0  0  0
   11.8696    6.9168    6.3393 C   0  0  0  0  0  0  0  0  0  0  0  0
   11.4587    6.5201    7.0984 H   0  0  0  0  0  0  0  0  0  0  0  0
    8.1599    7.6653    9.4834 C   0  0  0  0  0  0  0  0  0  0  0  0
    7.7363    8.2390   10.1109 H   0  0  0  0  0  0  0  0  0  0  0  0
    8.6238    6.4276    9.8726 C   0  0  0  0  0  0  0  0  0  0  0  0
    8.5700    6.1816   10.7886 H   0  0  0  0  0  0  0  0  0  0  0  0
    9.8123    4.2440    9.4475 C   0  0  0  0  0  0  0  0  0  0  0  0
   10.9439    4.6193   10.4287 C   0  0  0  0  0  0  0  0  0  0  0  0
   11.3764    3.8029   10.7544 H   0  0  0  0  0  0  0  0  0  0  0  0
   10.5686    5.1147   11.1872 H   0  0  0  0  0  0  0  0  0  0  0  0
   11.6035    5.1771    9.9685 H   0  0  0  0  0  0  0  0  0  0  0  0
    8.7646    3.3708   10.1718 C   0  0  0  0  0  0  0  0  0  0  0  0
    8.0479    3.1321    9.5471 H   0  0  0  0  0  0  0  0  0  0  0  0
    8.3858    3.8715   10.9253 H   0  0  0  0  0  0  0  0  0  0  0  0
    9.1941    2.5550   10.5038 H   0  0  0  0  0  0  0  0  0  0  0  0
   10.3581    3.4535    8.2778 C   0  0  0  0  0  0  0  0  0  0  0  0
   10.0584    3.7826    6.9546 C   0  0  0  0  0  0  0  0  0  0  0  0
   11.0933    2.2841    8.4899 C   0  0  0  0  0  0  0  0  0  0  0  0
   11.3351    2.0481    9.3791 H   0  0  0  0  0  0  0  0  0  0  0  0
   11.4756    1.4703    7.4615 C   0  0  0  0  0  0  0  0  0  0  0  0
   12.0397    0.7253    7.6309 H   0  0  0  0  0  0  0  0  0  0  0  0
   11.0396    1.7336    6.1705 C   0  0  0  0  0  0  0  0  0  0  0  0
   11.2570    1.1340    5.4669 H   0  0  0  0  0  0  0  0  0  0  0  0
    8.8170    8.7811    2.7836 C   0  0  0  0  0  0  0  0  0  0  0  0
    5.9046    5.9330   -0.1600 B   0  0  0  0  0  0  0  0  0  0  0  0
    6.2437    4.8854    0.0456 H   0  0  0  0  0  0  0  0  0  0  0  0
    5.9491    6.5706   -1.8089 B   0  0  0  0  0  0  0  0  0  0  0  0
    6.3293    5.9242   -2.6395 H   0  0  0  0  0  0  0  0  0  0  0  0
    7.0903    7.2944   -0.6537 B   0  0  0  0  0  0  0  0  0  0  0  0
    8.1977    7.1612   -0.7602 H   0  0  0  0  0  0  0  0  0  0  0  0
    6.2225    8.3156   -1.7992 B   0  0  0  0  0  0  0  0  0  0  0  0
    6.7763    8.8286   -2.6281 H   0  0  0  0  0  0  0  0  0  0  0  0
    4.5800    7.6842   -2.0424 B   0  0  0  0  0  0  0  0  0  0  0  0
    4.0586    7.7820   -3.0296 H   0  0  0  0  0  0  0  0  0  0  0  0
    3.6648    7.8094   -0.5037 B   0  0  0  0  0  0  0  0  0  0  0  0
    2.5603    7.9926   -0.4897 H   0  0  0  0  0  0  0  0  0  0  0  0
    4.3851    6.2521   -1.0085 B   0  0  0  0  0  0  0  0  0  0  0  0
    3.7365    5.3923   -1.3183 H   0  0  0  0  0  0  0  0  0  0  0  0
    4.4211    6.7221    0.6953 B   0  0  0  0  0  0  0  0  0  0  0  0
    3.7862    6.2019    1.4578 H   0  0  0  0  0  0  0  0  0  0  0  0
    4.7197    8.5594    0.7298 B   0  0  0  0  0  0  0  0  0  0  0  0
    6.3507    8.8722   -0.1082 B   0  0  0  0  0  0  0  0  0  0  0  0
    6.9771    9.7645    0.1481 H   0  0  0  0  0  0  0  0  0  0  0  0
    4.8505    9.0522   -0.9598 B   0  0  0  0  0  0  0  0  0  0  0  0
    4.5126   10.0827   -1.2386 H   0  0  0  0  0  0  0  0  0  0  0  0
    5.0724    4.2474    5.9378 B   0  0  0  0  0  0  0  0  0  0  0  0
    4.5791    4.9696    6.6372 H   0  0  0  0  0  0  0  0  0  0  0  0
    6.7861    3.5628    6.2451 B   0  0  0  0  0  0  0  0  0  0  0  0
    7.4105    3.8341    7.1354 H   0  0  0  0  0  0  0  0  0  0  0  0
    6.7829    1.8952    5.6113 B   0  0  0  0  0  0  0  0  0  0  0  0
    7.4270    1.1168    6.0933 H   0  0  0  0  0  0  0  0  0  0  0  0
    5.1625    1.5165    4.9854 B   0  0  0  0  0  0  0  0  0  0  0  0
    4.7370    0.4835    5.0683 H   0  0  0  0  0  0  0  0  0  0  0  0
    6.4776    1.8908    3.8422 B   0  0  0  0  0  0  0  0  0  0  0  0
    6.9231    1.1137    3.1719 H   0  0  0  0  0  0  0  0  0  0  0  0
    7.5008    3.1449    4.5794 B   0  0  0  0  0  0  0  0  0  0  0  0
    6.2634    3.5464    3.2451 B   0  0  0  0  0  0  0  0  0  0  0  0
    6.5553    3.8122    2.1981 H   0  0  0  0  0  0  0  0  0  0  0  0
    4.7566    4.2315    4.0748 B   0  0  0  0  0  0  0  0  0  0  0  0
    4.0627    4.9447    3.5592 H   0  0  0  0  0  0  0  0  0  0  0  0
    4.1385    2.9632    5.1417 B   0  0  0  0  0  0  0  0  0  0  0  0
    3.0362    2.8919    5.3274 H   0  0  0  0  0  0  0  0  0  0  0  0
    5.3366    2.5594    6.4136 B   0  0  0  0  0  0  0  0  0  0  0  0
    5.0231    2.2165    7.4316 H   0  0  0  0  0  0  0  0  0  0  0  0
    4.8408    2.5403    3.5686 B   0  0  0  0  0  0  0  0  0  0  0  0
    4.2032    2.1806    2.7192 H   0  0  0  0  0  0  0  0  0  0  0  0
  1  4  1  0  0  0  0
  2  4  1  0  0  0  0
  3  6  1  0  0  0  0
  4  8  1  0  0  0  0
  5 21  1  0  0  0  0
  6 33  1  0  0  0  0
  7 87  1  0  0  0  0
  8112  1  0  0  0  0
  9 13  3  0  0  0  0
 10111  1  0  0  0  0
 11156  3  0  0  0  0
 12 14  1  0  0  0  0
 13  3  1  0  0  0  0
 14 32  4  0  0  0  0
 15 16  1  0  0  0  0
 17 18  1  0  0  0  0
 19 20  1  0  0  0  0
 21 22  4  0  0  0  0
 22 23  1  0  0  0  0
 24 22  4  0  0  0  0
 25 24  1  0  0  0  0
 26 24  4  0  0  0  0
 27 26  1  0  0  0  0
 28 26  4  0  0  0  0
 29 28  1  0  0  0  0
 30 21  4  0  0  0  0
 31 30  1  0  0  0  0
 32  5  1  0  0  0  0
 33 15  4  0  0  0  0
 34  6  1  0  0  0  0
 35 34  4  0  0  0  0
 36 35  1  0  0  0  0
 37 35  4  0  0  0  0
 38 37  1  0  0  0  0
 39 37  4  0  0  0  0
 40 39  1  0  0  0  0
 41 39  4  0  0  0  0
 42 41  1  0  0  0  0
 43 34  4  0  0  0  0
 44 43  1  0  0  0  0
 45  6  1  0  0  0  0
 46 45  4  0  0  0  0
 47 46  1  0  0  0  0
 48 46  4  0  0  0  0
 49 48  1  0  0  0  0
 50 48  4  0  0  0  0
 51 50  1  0  0  0  0
 52 50  4  0  0  0  0
 53 52  1  0  0  0  0
 54 45  4  0  0  0  0
 55 54  1  0  0  0  0
 56 12  1  0  0  0  0
 57 56  4  0  0  0  0
 58 57  1  0  0  0  0
 59 58  1  0  0  0  0
 60 59  1  0  0  0  0
 61 59  1  0  0  0  0
 62 59  1  0  0  0  0
 63 14  4  0  0  0  0
 64 63  4  0  0  0  0
 65 64  1  0  0  0  0
 66 64  4  0  0  0  0
 67 66  1  0  0  0  0
 68 32  4  0  0  0  0
 69 68  1  0  0  0  0
 70 58  1  0  0  0  0
 71 70  1  0  0  0  0
 72 70  1  0  0  0  0
 73 70  1  0  0  0  0
 74 57  4  0  0  0  0
 75 74  1  0  0  0  0
 76 15  4  0  0  0  0
 77 76  1  0  0  0  0
 78  5  1  0  0  0  0
 79 17  4  0  0  0  0
 80 79  1  0  0  0  0
 81 79  4  0  0  0  0
 82 81  1  0  0  0  0
 83 81  4  0  0  0  0
 84 83  1  0  0  0  0
 85 78  4  0  0  0  0
 86 85  1  0  0  0  0
 87 88  4  0  0  0  0
 88 89  1  0  0  0  0
 90 88  4  0  0  0  0
 91 90  1  0  0  0  0
 92 90  4  0  0  0  0
 93 92  1  0  0  0  0
 94 92  4  0  0  0  0
 95 94  1  0  0  0  0
 96 87  4  0  0  0  0
 97 96  1  0  0  0  0
 98  7  1  0  0  0  0
 99 98  4  0  0  0  0
100 99  1  0  0  0  0
101 99  4  0  0  0  0
102101  1  0  0  0  0
103101  4  0  0  0  0
104103  1  0  0  0  0
105103  4  0  0  0  0
106105  1  0  0  0  0
107 98  4  0  0  0  0
108107  1  0  0  0  0
109  7  1  0  0  0  0
110111  4  0  0  0  0
111112  4  0  0  0  0
112 19  4  0  0  0  0
113  8  1  0  0  0  0
114113  4  0  0  0  0
115114  1  0  0  0  0
116114  4  0  0  0  0
117116  1  0  0  0  0
118116  4  0  0  0  0
119118  1  0  0  0  0
120118  4  0  0  0  0
121120  1  0  0  0  0
122113  4  0  0  0  0
123122  1  0  0  0  0
124  8  1  0  0  0  0
125124  4  0  0  0  0
126125  1  0  0  0  0
127125  4  0  0  0  0
128127  1  0  0  0  0
129127  4  0  0  0  0
130129  1  0  0  0  0
131129  4  0  0  0  0
132131  1  0  0  0  0
133124  4  0  0  0  0
134133  1  0  0  0  0
135 19  4  0  0  0  0
136135  1  0  0  0  0
137110  4  0  0  0  0
138137  1  0  0  0  0
139110  1  0  0  0  0
140139  1  0  0  0  0
141140  1  0  0  0  0
142140  1  0  0  0  0
143140  1  0  0  0  0
144139  1  0  0  0  0
145144  1  0  0  0  0
146144  1  0  0  0  0
147144  1  0  0  0  0
148139  1  0  0  0  0
149 10  1  0  0  0  0
150148  4  0  0  0  0
151150  1  0  0  0  0
152150  4  0  0  0  0
153152  1  0  0  0  0
154109  4  0  0  0  0
155154  1  0  0  0  0
156  4  1  0  0  0  0
157  1  1  0  0  0  0
158157  1  0  0  0  0
159157  1  0  0  0  0
160159  1  0  0  0  0
161  1  1  0  0  0  0
162161  1  0  0  0  0
163159  1  0  0  0  0
164163  1  0  0  0  0
165159  1  0  0  0  0
166165  1  0  0  0  0
167165  1  0  0  0  0
168167  1  0  0  0  0
169157  1  0  0  0  0
170169  1  0  0  0  0
171  1  1  0  0  0  0
172171  1  0  0  0  0
173  1  1  0  0  0  0
174  1  1  0  0  0  0
175  3  1  0  0  0  0
176163  1  0  0  0  0
177  3  1  0  0  0  0
178  2  1  0  0  0  0
179178  1  0  0  0  0
180  2  1  0  0  0  0
181180  1  0  0  0  0
182180  1  0  0  0  0
183182  1  0  0  0  0
184182  1  0  0  0  0
185184  1  0  0  0  0
186182  1  0  0  0  0
187186  1  0  0  0  0
188  2  1  0  0  0  0
189  2  1  0  0  0  0
190189  1  0  0  0  0
191  2  1  0  0  0  0
192191  1  0  0  0  0
193178  1  0  0  0  0
194193  1  0  0  0  0
195178  1  0  0  0  0
196195  1  0  0  0  0
197184  1  0  0  0  0
198197  1  0  0  0  0
  5173  1  0  0  0  0
  7188  1  0  0  0  0
 17 78  4  0  0  0  0
 28 30  4  0  0  0  0
 33 56  4  0  0  0  0
 41 43  4  0  0  0  0
 52 54  4  0  0  0  0
 58 63  1  0  0  0  0
 66 68  4  0  0  0  0
 74 76  4  0  0  0  0
 83 85  4  0  0  0  0
 94 96  4  0  0  0  0
105107  4  0  0  0  0
109149  4  0  0  0  0
120122  4  0  0  0  0
131133  4  0  0  0  0
135137  4  0  0  0  0
148149  4  0  0  0  0
152154  4  0  0  0  0
157161  1  0  0  0  0
157171  1  0  0  0  0
159161  1  0  0  0  0
159169  1  0  0  0  0
161163  1  0  0  0  0
161174  1  0  0  0  0
163165  1  0  0  0  0
163174  1  0  0  0  0
165169  1  0  0  0  0
165176  1  0  0  0  0
167169  1  0  0  0  0
167171  1  0  0  0  0
167173  1  0  0  0  0
167176  1  0  0  0  0
169171  1  0  0  0  0
171173  1  0  0  0  0
173174  1  0  0  0  0
173176  1  0  0  0  0
174175  1  0  0  0  0
174176  1  0  0  0  0
176177  1  0  0  0  0
178180  1  0  0  0  0
178191  1  0  0  0  0
180188  1  0  0  0  0
180195  1  0  0  0  0
182188  1  0  0  0  0
182195  1  0  0  0  0
184186  1  0  0  0  0
184193  1  0  0  0  0
184195  1  0  0  0  0
186188  1  0  0  0  0
186189  1  0  0  0  0
186197  1  0  0  0  0
188189  1  0  0  0  0
189191  1  0  0  0  0
189197  1  0  0  0  0
191193  1  0  0  0  0
191197  1  0  0  0  0
193195  1  0  0  0  0
193197  1  0  0  0  0
M  END
$$$$
KAXSEK

From CSD data. Using bond type 'Any'. No disordered atoms. Largest molecule.
 96121  0  0  0  0  0  0  0  0999 V2000
    6.6935    7.1177    2.0346 Sn  0  0  0  0  0  0  0  0  0  0  0  0
    5.9185    4.9524    4.8256 P   0  0  0  0  0  0  0  0  0  0  0  0
    2.5174    2.1930    5.1149 P   0  0  0  0  0  0  0  0  0  0  0  0
    3.7422    4.3422    6.6840 O   0  0  0  0  0  0  0  0  0  0  0  0
    6.1623    3.2116    5.3270 C   0  0  0  0  0  0  0  0  0  0  0  0
    6.1738    2.1715    4.4017 C   0  0  0  0  0  0  0  0  0  0  0  0
    6.0128    2.3563    3.4835 H   0  0  0  0  0  0  0  0  0  0  0  0
    6.4177    0.8699    4.8085 C   0  0  0  0  0  0  0  0  0  0  0  0
    6.4087    0.1668    4.1709 H   0  0  0  0  0  0  0  0  0  0  0  0
    6.6757    0.5862    6.1406 C   0  0  0  0  0  0  0  0  0  0  0  0
    6.8290   -0.3095    6.4178 H   0  0  0  0  0  0  0  0  0  0  0  0
    6.7090    1.6136    7.0623 C   0  0  0  0  0  0  0  0  0  0  0  0
    6.9039    1.4266    7.9738 H   0  0  0  0  0  0  0  0  0  0  0  0
    6.4586    2.9193    6.6621 C   0  0  0  0  0  0  0  0  0  0  0  0
    6.4895    3.6207    7.3008 H   0  0  0  0  0  0  0  0  0  0  0  0
    4.4056    5.1796    3.8268 C   0  0  0  0  0  0  0  0  0  0  0  0
    3.5302    6.2214    4.1179 C   0  0  0  0  0  0  0  0  0  0  0  0
    3.6510    6.7294    4.9121 H   0  0  0  0  0  0  0  0  0  0  0  0
    2.4776    6.5268    3.2550 C   0  0  0  0  0  0  0  0  0  0  0  0
    1.8931    7.2494    3.4548 H   0  0  0  0  0  0  0  0  0  0  0  0
    2.2837    5.7755    2.1039 C   0  0  0  0  0  0  0  0  0  0  0  0
    1.5679    5.9827    1.5147 H   0  0  0  0  0  0  0  0  0  0  0  0
    3.1351    4.7233    1.8175 C   0  0  0  0  0  0  0  0  0  0  0  0
    2.9900    4.1948    1.0427 H   0  0  0  0  0  0  0  0  0  0  0  0
    4.2023    4.4380    2.6612 C   0  0  0  0  0  0  0  0  0  0  0  0
    4.7990    3.7323    2.4426 H   0  0  0  0  0  0  0  0  0  0  0  0
    5.5661    5.7961    6.3938 C   0  0  0  0  0  0  0  0  0  0  0  0
    6.4081    6.7911    6.8724 C   0  0  0  0  0  0  0  0  0  0  0  0
    7.1605    7.0630    6.3604 H   0  0  0  0  0  0  0  0  0  0  0  0
    6.1502    7.3915    8.1040 C   0  0  0  0  0  0  0  0  0  0  0  0
    6.7257    8.0732    8.4315 H   0  0  0  0  0  0  0  0  0  0  0  0
    5.0558    6.9937    8.8493 C   0  0  0  0  0  0  0  0  0  0  0  0
    4.8862    7.4174    9.6824 H   0  0  0  0  0  0  0  0  0  0  0  0
    4.1927    5.9848    8.4112 C   0  0  0  0  0  0  0  0  0  0  0  0
    3.0812    5.4551    9.3098 C   0  0  0  0  0  0  0  0  0  0  0  0
    2.1775    4.5016    8.5329 C   0  0  0  0  0  0  0  0  0  0  0  0
    0.9650    4.0583    9.0647 C   0  0  0  0  0  0  0  0  0  0  0  0
    0.6582    4.4203    9.8888 H   0  0  0  0  0  0  0  0  0  0  0  0
    0.1973    3.1017    8.4173 C   0  0  0  0  0  0  0  0  0  0  0  0
   -0.6333    2.8280    8.7886 H   0  0  0  0  0  0  0  0  0  0  0  0
    0.6413    2.5453    7.2267 C   0  0  0  0  0  0  0  0  0  0  0  0
    0.1182    1.8799    6.7947 H   0  0  0  0  0  0  0  0  0  0  0  0
    1.8507    2.9525    6.6538 C   0  0  0  0  0  0  0  0  0  0  0  0
    2.9528    0.5134    5.7064 C   0  0  0  0  0  0  0  0  0  0  0  0
    3.0550    0.1482    7.0471 C   0  0  0  0  0  0  0  0  0  0  0  0
    2.7984    0.7651    7.7226 H   0  0  0  0  0  0  0  0  0  0  0  0
    3.5277   -1.1056    7.4092 C   0  0  0  0  0  0  0  0  0  0  0  0
    3.5980   -1.3369    8.3274 H   0  0  0  0  0  0  0  0  0  0  0  0
    3.8983   -2.0202    6.4390 C   0  0  0  0  0  0  0  0  0  0  0  0
    4.2120   -2.8809    6.6906 H   0  0  0  0  0  0  0  0  0  0  0  0
    3.8075   -1.6755    5.0977 C   0  0  0  0  0  0  0  0  0  0  0  0
    4.0555   -2.3010    4.4275 H   0  0  0  0  0  0  0  0  0  0  0  0
    3.3538   -0.4168    4.7405 C   0  0  0  0  0  0  0  0  0  0  0  0
    3.3141   -0.1795    3.8209 H   0  0  0  0  0  0  0  0  0  0  0  0
    0.9490    1.9201    4.1919 C   0  0  0  0  0  0  0  0  0  0  0  0
    0.3207    3.0727    3.7034 C   0  0  0  0  0  0  0  0  0  0  0  0
    0.6953    3.9256    3.8891 H   0  0  0  0  0  0  0  0  0  0  0  0
   -0.8430    2.9842    2.9505 C   0  0  0  0  0  0  0  0  0  0  0  0
   -1.2789    3.7749    2.6526 H   0  0  0  0  0  0  0  0  0  0  0  0
   -1.3701    1.7411    2.6326 C   0  0  0  0  0  0  0  0  0  0  0  0
   -2.1627    1.6786    2.1124 H   0  0  0  0  0  0  0  0  0  0  0  0
   -0.7397    0.5926    3.0759 C   0  0  0  0  0  0  0  0  0  0  0  0
   -1.0865   -0.2589    2.8392 H   0  0  0  0  0  0  0  0  0  0  0  0
    0.4058    0.6800    3.8692 C   0  0  0  0  0  0  0  0  0  0  0  0
    0.8184   -0.1128    4.1906 H   0  0  0  0  0  0  0  0  0  0  0  0
    2.5806    3.9465    7.3182 C   0  0  0  0  0  0  0  0  0  0  0  0
    4.4740    5.3923    7.1867 C   0  0  0  0  0  0  0  0  0  0  0  0
    3.7661    4.6374   10.4292 C   0  0  0  0  0  0  0  0  0  0  0  0
    3.0831    4.2431   11.0105 H   0  0  0  0  0  0  0  0  0  0  0  0
    4.3442    5.2268   10.9584 H   0  0  0  0  0  0  0  0  0  0  0  0
    4.3071    3.9244   10.0288 H   0  0  0  0  0  0  0  0  0  0  0  0
    2.2709    6.6150    9.9204 C   0  0  0  0  0  0  0  0  0  0  0  0
    1.8464    7.1309    9.2032 H   0  0  0  0  0  0  0  0  0  0  0  0
    2.8709    7.1977   10.4326 H   0  0  0  0  0  0  0  0  0  0  0  0
    1.5804    6.2542   10.5151 H   0  0  0  0  0  0  0  0  0  0  0  0
    7.4153    5.6237    3.7873 B   0  0  0  0  0  0  0  0  0  0  0  0
    8.1960    7.2906    3.9096 B   0  0  0  0  0  0  0  0  0  0  0  0
    7.8197    8.1020    4.5855 H   0  0  0  0  0  0  0  0  0  0  0  0
    9.0103    7.6278    2.2995 B   0  5  0  0  0  0  0  0  0  0  0  0
    9.1801    8.6680    1.9203 H   0  0  0  0  0  0  0  0  0  0  0  0
   10.2364    6.3742    2.0580 B   0  0  0  0  0  0  0  0  0  0  0  0
   11.1757    6.6132    1.4968 H   0  0  0  0  0  0  0  0  0  0  0  0
    9.9388    7.0294    3.6926 B   0  0  0  0  0  0  0  0  0  0  0  0
   10.6769    7.6924    4.2104 H   0  0  0  0  0  0  0  0  0  0  0  0
   10.2366    5.2887    3.4672 B   0  0  0  0  0  0  0  0  0  0  0  0
   11.1364    4.8138    3.8335 H   0  0  0  0  0  0  0  0  0  0  0  0
    9.4701    4.7683    1.9442 B   0  0  0  0  0  0  0  0  0  0  0  0
    9.9019    3.9509    1.3101 H   0  0  0  0  0  0  0  0  0  0  0  0
    8.6975    4.4274    3.5119 B   0  0  0  0  0  0  0  0  0  0  0  0
    8.6181    3.3848    3.9124 H   0  0  0  0  0  0  0  0  0  0  0  0
    7.7111    4.9299    2.1111 B   0  0  0  0  0  0  0  0  0  0  0  0
    7.0203    4.1994    1.6188 H   0  0  0  0  0  0  0  0  0  0  0  0
    8.7083    6.1781    1.1798 B   0  0  0  0  0  0  0  0  0  0  0  0
    8.6762    6.2634    0.0628 H   0  0  0  0  0  0  0  0  0  0  0  0
    8.9726    5.8274    4.5960 B   0  0  0  0  0  0  0  0  0  0  0  0
    9.0647    5.7031    5.7053 H   0  0  0  0  0  0  0  0  0  0  0  0
  1 76  1  0  0  0  0
  2  5  1  0  0  0  0
  3 43  1  0  0  0  0
  4 66  1  0  0  0  0
  5  6  4  0  0  0  0
  6  7  1  0  0  0  0
  8  6  4  0  0  0  0
  9  8  1  0  0  0  0
 10  8  4  0  0  0  0
 11 10  1  0  0  0  0
 12 10  4  0  0  0  0
 13 12  1  0  0  0  0
 14  5  4  0  0  0  0
 15 14  1  0  0  0  0
 16  2  1  0  0  0  0
 17 16  4  0  0  0  0
 18 17  1  0  0  0  0
 19 17  4  0  0  0  0
 20 19  1  0  0  0  0
 21 19  4  0  0  0  0
 22 21  1  0  0  0  0
 23 21  4  0  0  0  0
 24 23  1  0  0  0  0
 25 16  4  0  0  0  0
 26 25  1  0  0  0  0
 27  2  1  0  0  0  0
 28 27  4  0  0  0  0
 29 28  1  0  0  0  0
 30 28  4  0  0  0  0
 31 30  1  0  0  0  0
 32 30  4  0  0  0  0
 33 32  1  0  0  0  0
 34 32  4  0  0  0  0
 35 34  1  0  0  0  0
 36 35  1  0  0  0  0
 37 36  4  0  0  0  0
 38 37  1  0  0  0  0
 39 37  4  0  0  0  0
 40 39  1  0  0  0  0
 41 39  4  0  0  0  0
 42 41  1  0  0  0  0
 43 41  4  0  0  0  0
 44  3  1  0  0  0  0
 45 44  4  0  0  0  0
 46 45  1  0  0  0  0
 47 45  4  0  0  0  0
 48 47  1  0  0  0  0
 49 47  4  0  0  0  0
 50 49  1  0  0  0  0
 51 49  4  0  0  0  0
 52 51  1  0  0  0  0
 53 44  4  0  0  0  0
 54 53  1  0  0  0  0
 55  3  1  0  0  0  0
 56 55  4  0  0  0  0
 57 56  1  0  0  0  0
 58 56  4  0  0  0  0
 59 58  1  0  0  0  0
 60 58  4  0  0  0  0
 61 60  1  0  0  0  0
 62 60  4  0  0  0  0
 63 62  1  0  0  0  0
 64 55  4  0  0  0  0
 65 64  1  0  0  0  0
 66 36  4  0  0  0  0
 67  4  1  0  0  0  0
 68 35  1  0  0  0  0
 69 68  1  0  0  0  0
 70 68  1  0  0  0  0
 71 68  1  0  0  0  0
 72 35  1  0  0  0  0
 73 72  1  0  0  0  0
 74 72  1  0  0  0  0
 75 72  1  0  0  0  0
 76  2  1  0  0  0  0
 77  1  1  0  0  0  0
 78 77  1  0  0  0  0
 79  1  1  0  0  0  0
 80 79  1  0  0  0  0
 81 79  1  0  0  0  0
 82 81  1  0  0  0  0
 83 77  1  0  0  0  0
 84 83  1  0  0  0  0
 85 81  1  0  0  0  0
 86 85  1  0  0  0  0
 87 81  1  0  0  0  0
 88 87  1  0  0  0  0
 89 76  1  0  0  0  0
 90 89  1  0  0  0  0
 91  1  1  0  0  0  0
 92 91  1  0  0  0  0
 93  1  1  0  0  0  0
 94 93  1  0  0  0  0
 95 76  1  0  0  0  0
 96 95  1  0  0  0  0
 12 14  4  0  0  0  0
 23 25  4  0  0  0  0
 27 67  4  0  0  0  0
 34 67  4  0  0  0  0
 43 66  4  0  0  0  0
 51 53  4  0  0  0  0
 62 64  4  0  0  0  0
 76 77  1  0  0  0  0
 76 91  1  0  0  0  0
 77 79  1  0  0  0  0
 77 95  1  0  0  0  0
 79 83  1  0  0  0  0
 79 93  1  0  0  0  0
 81 83  1  0  0  0  0
 81 93  1  0  0  0  0
 83 85  1  0  0  0  0
 83 95  1  0  0  0  0
 85 87  1  0  0  0  0
 85 89  1  0  0  0  0
 85 95  1  0  0  0  0
 87 89  1  0  0  0  0
 87 91  1  0  0  0  0
 87 93  1  0  0  0  0
 89 91  1  0  0  0  0
 89 95  1  0  0  0  0
 91 93  1  0  0  0  0
M  CHG  1  79  -1
M  END
$$$$
KAXSIO

From CSD data. Using bond type 'Any'. No disordered atoms. Largest molecule.
 97123  0  0  0  0  0  0  0  0999 V2000
   14.8242    9.1337   12.3940 Sn  0  0  0  0  0  0  0  0  0  0  0  0
   16.9047    7.4186   11.6282 I   0  0  0  0  0  0  0  0  0  0  0  0
   12.0063    9.3731   10.1880 P   0  0  0  0  0  0  0  0  0  0  0  0
   13.8018    7.1087   13.8034 P   0  0  0  0  0  0  0  0  0  0  0  0
   11.2061    8.1353   12.8538 O   0  0  0  0  0  0  0  0  0  0  0  0
   11.7413   10.0857    8.5277 C   0  0  0  0  0  0  0  0  0  0  0  0
   11.3430   11.4196    8.3992 C   0  0  0  0  0  0  0  0  0  0  0  0
   11.2068   11.9489    9.1767 H   0  0  0  0  0  0  0  0  0  0  0  0
   11.1455   11.9770    7.1456 C   0  0  0  0  0  0  0  0  0  0  0  0
   10.8623   12.8802    7.0637 H   0  0  0  0  0  0  0  0  0  0  0  0
   11.3646   11.2058    6.0052 C   0  0  0  0  0  0  0  0  0  0  0  0
   11.2411   11.5868    5.1443 H   0  0  0  0  0  0  0  0  0  0  0  0
   11.7601    9.8874    6.1257 C   0  0  0  0  0  0  0  0  0  0  0  0
   11.9036    9.3647    5.3445 H   0  0  0  0  0  0  0  0  0  0  0  0
   11.9501    9.3171    7.3822 C   0  0  0  0  0  0  0  0  0  0  0  0
   12.2213    8.4091    7.4592 H   0  0  0  0  0  0  0  0  0  0  0  0
   12.5490    7.6793    9.8505 C   0  0  0  0  0  0  0  0  0  0  0  0
   13.8371    7.4871    9.3392 C   0  0  0  0  0  0  0  0  0  0  0  0
   14.4475    8.2160    9.2958 H   0  0  0  0  0  0  0  0  0  0  0  0
   14.2228    6.2334    8.8967 C   0  0  0  0  0  0  0  0  0  0  0  0
   15.0949    6.1016    8.5463 H   0  0  0  0  0  0  0  0  0  0  0  0
   13.3348    5.1626    8.9626 C   0  0  0  0  0  0  0  0  0  0  0  0
   13.5982    4.3037    8.6522 H   0  0  0  0  0  0  0  0  0  0  0  0
   12.0599    5.3556    9.4840 C   0  0  0  0  0  0  0  0  0  0  0  0
   11.4563    4.6232    9.5391 H   0  0  0  0  0  0  0  0  0  0  0  0
   11.6635    6.6047    9.9218 C   0  0  0  0  0  0  0  0  0  0  0  0
   10.7891    6.7312   10.2704 H   0  0  0  0  0  0  0  0  0  0  0  0
   10.3617    9.3103   10.9654 C   0  0  0  0  0  0  0  0  0  0  0  0
   10.1445    8.7919   12.2570 C   0  0  0  0  0  0  0  0  0  0  0  0
    8.9076    8.9144   12.8924 C   0  0  0  0  0  0  0  0  0  0  0  0
    7.8625    9.4922   12.1840 C   0  0  0  0  0  0  0  0  0  0  0  0
    7.0143    9.5841   12.6018 H   0  0  0  0  0  0  0  0  0  0  0  0
    8.0279    9.9384   10.8841 C   0  0  0  0  0  0  0  0  0  0  0  0
    7.2910   10.3018   10.4078 H   0  0  0  0  0  0  0  0  0  0  0  0
    9.2712    9.8504   10.2825 C   0  0  0  0  0  0  0  0  0  0  0  0
    9.3851   10.1636    9.3935 H   0  0  0  0  0  0  0  0  0  0  0  0
    8.6911    8.3636   14.2977 C   0  0  0  0  0  0  0  0  0  0  0  0
    7.7570    9.2830   15.0871 C   0  0  0  0  0  0  0  0  0  0  0  0
    7.6694    8.9485   16.0038 H   0  0  0  0  0  0  0  0  0  0  0  0
    6.8754    9.2990   14.6602 H   0  0  0  0  0  0  0  0  0  0  0  0
    8.1287   10.1889   15.1037 H   0  0  0  0  0  0  0  0  0  0  0  0
   10.0389    8.2066   14.9885 C   0  0  0  0  0  0  0  0  0  0  0  0
   10.1519    8.1099   16.3761 C   0  0  0  0  0  0  0  0  0  0  0  0
    9.3846    8.2695   16.9138 H   0  0  0  0  0  0  0  0  0  0  0  0
   11.3481    7.7882   16.9891 C   0  0  0  0  0  0  0  0  0  0  0  0
   11.4083    7.7589   17.9364 H   0  0  0  0  0  0  0  0  0  0  0  0
   12.4581    7.5093   16.2111 C   0  0  0  0  0  0  0  0  0  0  0  0
   13.2693    7.2430   16.6276 H   0  0  0  0  0  0  0  0  0  0  0  0
   12.4003    7.6140   14.8325 C   0  0  0  0  0  0  0  0  0  0  0  0
   15.1200    6.6713   14.9776 C   0  0  0  0  0  0  0  0  0  0  0  0
   15.8725    7.7020   15.5488 C   0  0  0  0  0  0  0  0  0  0  0  0
   15.7181    8.6030   15.2890 H   0  0  0  0  0  0  0  0  0  0  0  0
   16.8420    7.4052   16.4919 C   0  0  0  0  0  0  0  0  0  0  0  0
   17.3429    8.1065   16.8907 H   0  0  0  0  0  0  0  0  0  0  0  0
   17.0813    6.0988   16.8526 C   0  0  0  0  0  0  0  0  0  0  0  0
   17.7493    5.8997   17.4963 H   0  0  0  0  0  0  0  0  0  0  0  0
   16.3498    5.0724   16.2785 C   0  0  0  0  0  0  0  0  0  0  0  0
   16.5198    4.1698   16.5250 H   0  0  0  0  0  0  0  0  0  0  0  0
   15.3637    5.3637   15.3386 C   0  0  0  0  0  0  0  0  0  0  0  0
   14.8587    4.6601   14.9465 H   0  0  0  0  0  0  0  0  0  0  0  0
   13.2946    5.5480   13.0229 C   0  0  0  0  0  0  0  0  0  0  0  0
   14.2125    4.8145   12.2891 C   0  0  0  0  0  0  0  0  0  0  0  0
   15.0779    5.1671   12.1203 H   0  0  0  0  0  0  0  0  0  0  0  0
   13.8647    3.5665   11.8043 C   0  0  0  0  0  0  0  0  0  0  0  0
   14.5006    3.0631   11.3095 H   0  0  0  0  0  0  0  0  0  0  0  0
   12.6081    3.0453   12.0277 C   0  0  0  0  0  0  0  0  0  0  0  0
   12.3790    2.1859   11.6918 H   0  0  0  0  0  0  0  0  0  0  0  0
   11.6881    3.7797   12.7425 C   0  0  0  0  0  0  0  0  0  0  0  0
   10.8190    3.4263   12.8963 H   0  0  0  0  0  0  0  0  0  0  0  0
   12.0198    5.0314   13.2389 C   0  0  0  0  0  0  0  0  0  0  0  0
   11.3790    5.5358   13.7270 H   0  0  0  0  0  0  0  0  0  0  0  0
   11.1869    8.0083   14.2355 C   0  0  0  0  0  0  0  0  0  0  0  0
    8.0588    6.9589   14.1936 C   0  0  0  0  0  0  0  0  0  0  0  0
    8.6640    6.3640   13.7038 H   0  0  0  0  0  0  0  0  0  0  0  0
    7.2045    7.0201   13.7187 H   0  0  0  0  0  0  0  0  0  0  0  0
    7.9073    6.6023   15.0937 H   0  0  0  0  0  0  0  0  0  0  0  0
   16.0672   11.1002   12.1997 B   0  0  0  0  0  0  0  0  0  0  0  0
   17.1640   10.8916   12.2808 H   0  0  0  0  0  0  0  0  0  0  0  0
   15.0850   10.6972   10.6692 B   0  0  0  0  0  0  0  0  0  0  0  0
   15.5383   10.2204    9.7624 H   0  0  0  0  0  0  0  0  0  0  0  0
   12.7061   11.9611   11.9085 B   0  0  0  0  0  0  0  0  0  0  0  0
   11.6366   12.2738   11.7894 H   0  0  0  0  0  0  0  0  0  0  0  0
   13.8561   11.9541   10.5153 B   0  0  0  0  0  0  0  0  0  0  0  0
   13.5258   12.2485    9.4861 H   0  0  0  0  0  0  0  0  0  0  0  0
   14.0476   13.1378   11.8357 B   0  0  0  0  0  0  0  0  0  0  0  0
   13.8479   14.2288   11.6851 H   0  0  0  0  0  0  0  0  0  0  0  0
   15.3634   12.5566   12.8914 B   0  0  0  0  0  0  0  0  0  0  0  0
   16.0369   13.2557   13.4473 H   0  0  0  0  0  0  0  0  0  0  0  0
   15.4692   12.3668   11.1226 B   0  0  0  0  0  0  0  0  0  0  0  0
   16.1928   12.9583   10.5070 H   0  0  0  0  0  0  0  0  0  0  0  0
   13.6561   12.3351   13.3729 B   0  0  0  0  0  0  0  0  0  0  0  0
   13.2126   12.9015   14.2317 H   0  0  0  0  0  0  0  0  0  0  0  0
   13.1218   10.6909   13.0612 B   0  0  0  0  0  0  0  0  0  0  0  0
   12.3262   10.2184   13.6906 H   0  0  0  0  0  0  0  0  0  0  0  0
   14.8518   11.0589   13.6906 B   0  0  0  0  0  0  0  0  0  0  0  0
   15.1636   10.8039   14.7363 H   0  0  0  0  0  0  0  0  0  0  0  0
   13.2691   10.4192   11.2213 B   0  0  0  0  0  0  0  0  0  0  0  0
  1  2  1  0  0  0  0
  3  6  1  0  0  0  0
  4  1  1  0  0  0  0
  5 29  1  0  0  0  0
  6  7  4  0  0  0  0
  7  8  1  0  0  0  0
  9  7  4  0  0  0  0
 10  9  1  0  0  0  0
 11  9  4  0  0  0  0
 12 11  1  0  0  0  0
 13 11  4  0  0  0  0
 14 13  1  0  0  0  0
 15  6  4  0  0  0  0
 16 15  1  0  0  0  0
 17  3  1  0  0  0  0
 18 17  4  0  0  0  0
 19 18  1  0  0  0  0
 20 18  4  0  0  0  0
 21 20  1  0  0  0  0
 22 20  4  0  0  0  0
 23 22  1  0  0  0  0
 24 22  4  0  0  0  0
 25 24  1  0  0  0  0
 26 17  4  0  0  0  0
 27 26  1  0  0  0  0
 28  3  1  0  0  0  0
 29 28  4  0  0  0  0
 30 29  4  0  0  0  0
 31 30  4  0  0  0  0
 32 31  1  0  0  0  0
 33 31  4  0  0  0  0
 34 33  1  0  0  0  0
 35 28  4  0  0  0  0
 36 35  1  0  0  0  0
 37 30  1  0  0  0  0
 38 37  1  0  0  0  0
 39 38  1  0  0  0  0
 40 38  1  0  0  0  0
 41 38  1  0  0  0  0
 42 37  1  0  0  0  0
 43 42  4  0  0  0  0
 44 43  1  0  0  0  0
 45 43  4  0  0  0  0
 46 45  1  0  0  0  0
 47 45  4  0  0  0  0
 48 47  1  0  0  0  0
 49  4  1  0  0  0  0
 50  4  1  0  0  0  0
 51 50  4  0  0  0  0
 52 51  1  0  0  0  0
 53 51  4  0  0  0  0
 54 53  1  0  0  0  0
 55 53  4  0  0  0  0
 56 55  1  0  0  0  0
 57 55  4  0  0  0  0
 58 57  1  0  0  0  0
 59 50  4  0  0  0  0
 60 59  1  0  0  0  0
 61  4  1  0  0  0  0
 62 61  4  0  0  0  0
 63 62  1  0  0  0  0
 64 62  4  0  0  0  0
 65 64  1  0  0  0  0
 66 64  4  0  0  0  0
 67 66  1  0  0  0  0
 68 66  4  0  0  0  0
 69 68  1  0  0  0  0
 70 61  4  0  0  0  0
 71 70  1  0  0  0  0
 72  5  1  0  0  0  0
 73 37  1  0  0  0  0
 74 73  1  0  0  0  0
 75 73  1  0  0  0  0
 76 73  1  0  0  0  0
 77  1  1  0  0  0  0
 78 77  1  0  0  0  0
 79  1  1  0  0  0  0
 80 79  1  0  0  0  0
 81 82  1  0  0  0  0
 83 79  1  0  0  0  0
 84 83  1  0  0  0  0
 85 81  1  0  0  0  0
 86 85  1  0  0  0  0
 87 77  1  0  0  0  0
 88 87  1  0  0  0  0
 89 77  1  0  0  0  0
 90 89  1  0  0  0  0
 91 81  1  0  0  0  0
 92 91  1  0  0  0  0
 93  1  1  0  0  0  0
 94 93  1  0  0  0  0
 95  1  1  0  0  0  0
 96 95  1  0  0  0  0
 97  1  1  0  0  0  0
  3 97  1  0  0  0  0
 13 15  4  0  0  0  0
 24 26  4  0  0  0  0
 33 35  4  0  0  0  0
 42 72  4  0  0  0  0
 47 49  4  0  0  0  0
 49 72  4  0  0  0  0
 57 59  4  0  0  0  0
 68 70  4  0  0  0  0
 77 79  1  0  0  0  0
 77 95  1  0  0  0  0
 79 89  1  0  0  0  0
 79 97  1  0  0  0  0
 81 83  1  0  0  0  0
 81 93  1  0  0  0  0
 81 97  1  0  0  0  0
 83 85  1  0  0  0  0
 83 89  1  0  0  0  0
 83 97  1  0  0  0  0
 85 87  1  0  0  0  0
 85 89  1  0  0  0  0
 85 91  1  0  0  0  0
 87 89  1  0  0  0  0
 87 91  1  0  0  0  0
 87 95  1  0  0  0  0
 91 93  1  0  0  0  0
 91 95  1  0  0  0  0
 93 95  1  0  0  0  0
 93 97  1  0  0  0  0
M  END
$$$$
KAXSOU

From CSD data. Using bond type 'Any'. No disordered atoms. Largest molecule.
101127  0  0  0  0  0  0  0  0999 V2000
    4.5406   16.0072    0.0357 Sn  0  0  0  0  0  0  0  0  0  0  0  0
    5.8044   15.6863    2.2766 Rh  0  0  0  0  0  0  0  0  0  0  0  0
    3.4018   12.6265   -0.1367 P   0  0  0  0  0  0  0  0  0  0  0  0
    3.9142   15.9059    3.6586 P   0  0  0  0  0  0  0  0  0  0  0  0
    7.7263   15.3007    4.5708 O   0  0  0  0  0  0  0  0  0  0  0  0
    8.2056   15.9608    0.4589 O   0  0  0  0  0  0  0  0  0  0  0  0
    1.9393   14.5662    1.6697 O   0  0  0  0  0  0  0  0  0  0  0  0
    3.7010   11.0729   -1.0298 C   0  0  0  0  0  0  0  0  0  0  0  0
    3.1830   10.9271   -2.3230 C   0  0  0  0  0  0  0  0  0  0  0  0
    2.6516   11.6191   -2.6996 H   0  0  0  0  0  0  0  0  0  0  0  0
    3.4392    9.7838   -3.0556 C   0  0  0  0  0  0  0  0  0  0  0  0
    3.0697    9.6868   -3.9262 H   0  0  0  0  0  0  0  0  0  0  0  0
    4.2309    8.7809   -2.5269 C   0  0  0  0  0  0  0  0  0  0  0  0
    4.4190    8.0038   -3.0388 H   0  0  0  0  0  0  0  0  0  0  0  0
    4.7501    8.9119   -1.2492 C   0  0  0  0  0  0  0  0  0  0  0  0
    5.2923    8.2221   -0.8874 H   0  0  0  0  0  0  0  0  0  0  0  0
    4.4812   10.0478   -0.4936 C   0  0  0  0  0  0  0  0  0  0  0  0
    4.8294   10.1253    0.3865 H   0  0  0  0  0  0  0  0  0  0  0  0
    1.6374   12.6589    0.2800 C   0  0  0  0  0  0  0  0  0  0  0  0
    1.0669   13.7469    0.9637 C   0  0  0  0  0  0  0  0  0  0  0  0
   -0.3031   13.9780    0.9280 C   0  0  0  0  0  0  0  0  0  0  0  0
   -0.9101   15.2960    1.3616 C   0  0  0  0  0  0  0  0  0  0  0  0
   -1.9818   15.0664    2.4533 C   0  0  0  0  0  0  0  0  0  0  0  0
   -2.6876   14.4847    2.1001 H   0  0  0  0  0  0  0  0  0  0  0  0
   -2.3696   15.9276    2.7174 H   0  0  0  0  0  0  0  0  0  0  0  0
   -1.5679   14.6430    3.2340 H   0  0  0  0  0  0  0  0  0  0  0  0
    0.1596   16.2125    1.9240 C   0  0  0  0  0  0  0  0  0  0  0  0
   -0.1730   17.5138    2.2954 C   0  0  0  0  0  0  0  0  0  0  0  0
   -1.0495   17.8343    2.1179 H   0  0  0  0  0  0  0  0  0  0  0  0
    0.7332   18.3480    2.9118 C   0  0  0  0  0  0  0  0  0  0  0  0
    0.5100   19.2535    3.0881 H   0  0  0  0  0  0  0  0  0  0  0  0
    1.9763   17.8473    3.2711 C   0  0  0  0  0  0  0  0  0  0  0  0
    2.5822   18.4020    3.7487 H   0  0  0  0  0  0  0  0  0  0  0  0
    2.3521   16.5438    2.9447 C   0  0  0  0  0  0  0  0  0  0  0  0
    4.2903   17.1482    4.9534 C   0  0  0  0  0  0  0  0  0  0  0  0
    5.3093   18.0803    4.7680 C   0  0  0  0  0  0  0  0  0  0  0  0
    5.8126   18.0782    3.9617 H   0  0  0  0  0  0  0  0  0  0  0  0
    5.5907   19.0115    5.7593 C   0  0  0  0  0  0  0  0  0  0  0  0
    6.2958   19.6356    5.6359 H   0  0  0  0  0  0  0  0  0  0  0  0
    4.8468   19.0334    6.9269 C   0  0  0  0  0  0  0  0  0  0  0  0
    5.0409   19.6720    7.6019 H   0  0  0  0  0  0  0  0  0  0  0  0
    3.8171   18.1211    7.1103 C   0  0  0  0  0  0  0  0  0  0  0  0
    3.3010   18.1437    7.9076 H   0  0  0  0  0  0  0  0  0  0  0  0
    3.5409   17.1797    6.1354 C   0  0  0  0  0  0  0  0  0  0  0  0
    2.8406   16.5516    6.2689 H   0  0  0  0  0  0  0  0  0  0  0  0
    6.9554   15.4485    3.7598 C   0  0  0  0  0  0  0  0  0  0  0  0
    7.3081   15.8437    1.1246 C   0  0  0  0  0  0  0  0  0  0  0  0
    3.4207   14.4862    4.7053 C   0  0  0  0  0  0  0  0  0  0  0  0
    2.1349   13.9436    4.7384 C   0  0  0  0  0  0  0  0  0  0  0  0
    1.4717   14.2609    4.1372 H   0  0  0  0  0  0  0  0  0  0  0  0
    1.8220   12.9405    5.6493 C   0  0  0  0  0  0  0  0  0  0  0  0
    0.9511   12.5616    5.6517 H   0  0  0  0  0  0  0  0  0  0  0  0
    2.7727   12.4893    6.5532 C   0  0  0  0  0  0  0  0  0  0  0  0
    2.5505   11.8101    7.1799 H   0  0  0  0  0  0  0  0  0  0  0  0
    4.0490   13.0339    6.5387 C   0  0  0  0  0  0  0  0  0  0  0  0
    4.6987   12.7380    7.1661 H   0  0  0  0  0  0  0  0  0  0  0  0
    4.3739   14.0073    5.6095 C   0  0  0  0  0  0  0  0  0  0  0  0
    5.2573   14.3555    5.5866 H   0  0  0  0  0  0  0  0  0  0  0  0
    1.4617   15.7782    2.1656 C   0  0  0  0  0  0  0  0  0  0  0  0
   -1.5408   15.9588    0.1156 C   0  0  0  0  0  0  0  0  0  0  0  0
   -0.8479   16.1059   -0.5620 H   0  0  0  0  0  0  0  0  0  0  0  0
   -1.9386   16.8173    0.3688 H   0  0  0  0  0  0  0  0  0  0  0  0
   -2.2355   15.3726   -0.2504 H   0  0  0  0  0  0  0  0  0  0  0  0
   -1.1137   12.9966    0.3408 C   0  0  0  0  0  0  0  0  0  0  0  0
   -2.0553   13.1238    0.3273 H   0  0  0  0  0  0  0  0  0  0  0  0
   -0.5870   11.8552   -0.2175 C   0  0  0  0  0  0  0  0  0  0  0  0
   -1.1619   11.1769   -0.5522 H   0  0  0  0  0  0  0  0  0  0  0  0
    0.7871   11.7028   -0.2877 C   0  0  0  0  0  0  0  0  0  0  0  0
    1.1554   10.9441   -0.7237 H   0  0  0  0  0  0  0  0  0  0  0  0
    4.3471   12.4094    1.3855 C   0  0  0  0  0  0  0  0  0  0  0  0
    5.7173   12.6704    1.3962 C   0  0  0  0  0  0  0  0  0  0  0  0
    6.1283   13.1001    0.6547 H   0  0  0  0  0  0  0  0  0  0  0  0
    6.4785   12.2957    2.5024 C   0  0  0  0  0  0  0  0  0  0  0  0
    7.4083   12.4906    2.5241 H   0  0  0  0  0  0  0  0  0  0  0  0
    5.8866   11.6402    3.5693 C   0  0  0  0  0  0  0  0  0  0  0  0
    6.4130   11.3734    4.3147 H   0  0  0  0  0  0  0  0  0  0  0  0
    4.5261   11.3729    3.5507 C   0  0  0  0  0  0  0  0  0  0  0  0
    4.1231   10.9168    4.2792 H   0  0  0  0  0  0  0  0  0  0  0  0
    3.7510   11.7699    2.4713 C   0  0  0  0  0  0  0  0  0  0  0  0
    2.8160   11.6063    2.4709 H   0  0  0  0  0  0  0  0  0  0  0  0
    5.5280   16.5067   -2.0177 B   0  0  0  0  0  0  0  0  0  0  0  0
    6.4346   17.1466   -1.8675 H   0  0  0  0  0  0  0  0  0  0  0  0
    3.7550   17.1359   -1.8081 B   0  0  0  0  0  0  0  0  0  0  0  0
    3.5078   18.1928   -1.5342 H   0  0  0  0  0  0  0  0  0  0  0  0
    2.7756   16.2338   -2.9802 B   0  0  0  0  0  0  0  0  0  0  0  0
    1.8785   16.7281   -3.4332 H   0  0  0  0  0  0  0  0  0  0  0  0
    2.7986   14.4773   -2.6452 B   0  0  0  0  0  0  0  0  0  0  0  0
    1.9278   13.8097   -2.8672 H   0  0  0  0  0  0  0  0  0  0  0  0
    2.6745   15.6557   -1.3141 B   0  0  0  0  0  0  0  0  0  0  0  0
    1.7298   15.7420   -0.7198 H   0  0  0  0  0  0  0  0  0  0  0  0
    3.8218   14.1718   -1.2291 B   0  0  0  0  0  0  0  0  0  0  0  0
    4.4864   13.9132   -2.8661 B   0  0  0  0  0  0  0  0  0  0  0  0
    4.7166   12.8818   -3.2380 H   0  0  0  0  0  0  0  0  0  0  0  0
    5.4798   15.3018   -3.3141 B   0  0  0  0  0  0  0  0  0  0  0  0
    6.3671   15.1779   -3.9873 H   0  0  0  0  0  0  0  0  0  0  0  0
    4.4443   16.7469   -3.3938 B   0  0  0  0  0  0  0  0  0  0  0  0
    4.6505   17.5796   -4.1135 H   0  0  0  0  0  0  0  0  0  0  0  0
    3.8215   15.1630   -3.9349 B   0  0  0  0  0  0  0  0  0  0  0  0
    3.6092   14.9578   -5.0147 H   0  0  0  0  0  0  0  0  0  0  0  0
    5.5417   14.6934   -1.6643 B   0  0  0  0  0  0  0  0  0  0  0  0
    6.4483   14.1645   -1.2759 H   0  0  0  0  0  0  0  0  0  0  0  0
  1  2  1  0  0  0  0
  2  4  1  0  0  0  0
  3  8  1  0  0  0  0
  4 34  1  0  0  0  0
  5 46  3  0  0  0  0
  6 47  3  0  0  0  0
  7 20  1  0  0  0  0
  8  9  4  0  0  0  0
  9 10  1  0  0  0  0
 11  9  4  0  0  0  0
 12 11  1  0  0  0  0
 13 11  4  0  0  0  0
 14 13  1  0  0  0  0
 15 13  4  0  0  0  0
 16 15  1  0  0  0  0
 17  8  4  0  0  0  0
 18 17  1  0  0  0  0
 19  3  1  0  0  0  0
 20 19  4  0  0  0  0
 21 20  4  0  0  0  0
 22 21  1  0  0  0  0
 23 22  1  0  0  0  0
 24 23  1  0  0  0  0
 25 23  1  0  0  0  0
 26 23  1  0  0  0  0
 27 22  1  0  0  0  0
 28 27  4  0  0  0  0
 29 28  1  0  0  0  0
 30 28  4  0  0  0  0
 31 30  1  0  0  0  0
 32 30  4  0  0  0  0
 33 32  1  0  0  0  0
 34 32  4  0  0  0  0
 35  4  1  0  0  0  0
 36 35  4  0  0  0  0
 37 36  1  0  0  0  0
 38 36  4  0  0  0  0
 39 38  1  0  0  0  0
 40 38  4  0  0  0  0
 41 40  1  0  0  0  0
 42 40  4  0  0  0  0
 43 42  1  0  0  0  0
 44 35  4  0  0  0  0
 45 44  1  0  0  0  0
 46  2  1  0  0  0  0
 47  2  1  0  0  0  0
 48  4  1  0  0  0  0
 49 48  4  0  0  0  0
 50 49  1  0  0  0  0
 51 49  4  0  0  0  0
 52 51  1  0  0  0  0
 53 51  4  0  0  0  0
 54 53  1  0  0  0  0
 55 53  4  0  0  0  0
 56 55  1  0  0  0  0
 57 48  4  0  0  0  0
 58 57  1  0  0  0  0
 59  7  1  0  0  0  0
 60 22  1  0  0  0  0
 61 60  1  0  0  0  0
 62 60  1  0  0  0  0
 63 60  1  0  0  0  0
 64 21  4  0  0  0  0
 65 64  1  0  0  0  0
 66 64  4  0  0  0  0
 67 66  1  0  0  0  0
 68 19  4  0  0  0  0
 69 68  1  0  0  0  0
 70  3  1  0  0  0  0
 71 70  4  0  0  0  0
 72 71  1  0  0  0  0
 73 71  4  0  0  0  0
 74 73  1  0  0  0  0
 75 73  4  0  0  0  0
 76 75  1  0  0  0  0
 77 75  4  0  0  0  0
 78 77  1  0  0  0  0
 79 70  4  0  0  0  0
 80 79  1  0  0  0  0
 81  1  1  0  0  0  0
 82 81  1  0  0  0  0
 83  1  1  0  0  0  0
 84 83  1  0  0  0  0
 85 83  1  0  0  0  0
 86 85  1  0  0  0  0
 87 85  1  0  0  0  0
 88 87  1  0  0  0  0
 89  1  1  0  0  0  0
 90 89  1  0  0  0  0
 91  1  1  0  0  0  0
 92 87  1  0  0  0  0
 93 92  1  0  0  0  0
 94 81  1  0  0  0  0
 95 94  1  0  0  0  0
 96 81  1  0  0  0  0
 97 96  1  0  0  0  0
 98 85  1  0  0  0  0
 99 98  1  0  0  0  0
100  1  1  0  0  0  0
101100  1  0  0  0  0
  3 91  1  0  0  0  0
 15 17  4  0  0  0  0
 27 59  4  0  0  0  0
 34 59  4  0  0  0  0
 42 44  4  0  0  0  0
 55 57  4  0  0  0  0
 66 68  4  0  0  0  0
 77 79  4  0  0  0  0
 81 83  1  0  0  0  0
 81100  1  0  0  0  0
 83 89  1  0  0  0  0
 83 96  1  0  0  0  0
 85 89  1  0  0  0  0
 85 96  1  0  0  0  0
 87 89  1  0  0  0  0
 87 91  1  0  0  0  0
 87 98  1  0  0  0  0
 89 91  1  0  0  0  0
 91 92  1  0  0  0  0
 91100  1  0  0  0  0
 92 94  1  0  0  0  0
 92 98  1  0  0  0  0
 92100  1  0  0  0  0
 94 96  1  0  0  0  0
 94 98  1  0  0  0  0
 94100  1  0  0  0  0
 96 98  1  0  0  0  0
M  END
$$$$
KAZFUQ

From CSD data. Using bond type 'Any'. No disordered atoms. Largest molecule.
107114  0  0  0  0  0  0  0  0999 V2000
    0.9410    4.4033    5.8871 Mn  0  0  0  0  0  0  0  0  0  0  0  0
   -0.5983    5.3549    4.7285 O   0  0  0  0  0  0  0  0  0  0  0  0
   -1.8998    4.7941    4.4012 C   0  0  0  0  0  0  0  0  0  0  0  0
   -2.4733    4.7393    5.2065 H   0  0  0  0  0  0  0  0  0  0  0  0
   -1.8053    3.8882    4.0138 H   0  0  0  0  0  0  0  0  0  0  0  0
   -2.4816    5.7507    3.3910 C   0  0  0  0  0  0  0  0  0  0  0  0
   -3.4708    5.7593    3.4333 H   0  0  0  0  0  0  0  0  0  0  0  0
   -2.1975    5.5185    2.4714 H   0  0  0  0  0  0  0  0  0  0  0  0
   -1.8974    7.0954    3.8301 C   0  0  0  0  0  0  0  0  0  0  0  0
   -1.8834    7.7427    3.0801 H   0  0  0  0  0  0  0  0  0  0  0  0
   -2.4104    7.4817    4.5825 H   0  0  0  0  0  0  0  0  0  0  0  0
   -0.5096    6.7239    4.2528 C   0  0  0  0  0  0  0  0  0  0  0  0
    0.1171    6.7866    3.4875 H   0  0  0  0  0  0  0  0  0  0  0  0
   -0.1920    7.3238    4.9734 H   0  0  0  0  0  0  0  0  0  0  0  0
    3.3534    6.3938    4.2999 B   0  0  0  0  0  0  0  0  0  0  0  0
    2.4081    5.4046    4.7191 F   0  0  0  0  0  0  0  0  0  0  0  0
    2.7489    7.2797    3.4675 F   0  0  0  0  0  0  0  0  0  0  0  0
    3.7988    7.0496    5.3985 F   0  0  0  0  0  0  0  0  0  0  0  0
    4.3801    5.7699    3.6594 F   0  0  0  0  0  0  0  0  0  0  0  0
    0.9693    2.8287    4.5566 O   0  0  0  0  0  0  0  0  0  0  0  0
    1.5890    2.0418    3.4395 P   0  0  0  0  0  0  0  0  0  0  0  0
    0.5835    0.5958    3.0801 C   0  0  0  0  0  0  0  0  0  0  0  0
    0.6642   -0.0888    1.8756 C   0  0  0  0  0  0  0  0  0  0  0  0
    1.2825    0.1953    1.2127 H   0  0  0  0  0  0  0  0  0  0  0  0
   -0.1566   -1.1907    1.6319 C   0  0  0  0  0  0  0  0  0  0  0  0
   -0.1027   -1.6578    0.8054 H   0  0  0  0  0  0  0  0  0  0  0  0
   -1.0587   -1.5988    2.6162 C   0  0  0  0  0  0  0  0  0  0  0  0
   -1.6213   -2.3480    2.4608 H   0  0  0  0  0  0  0  0  0  0  0  0
   -1.1376   -0.9206    3.8148 C   0  0  0  0  0  0  0  0  0  0  0  0
   -1.7498   -1.2104    4.4801 H   0  0  0  0  0  0  0  0  0  0  0  0
   -0.3235    0.1886    4.0586 C   0  0  0  0  0  0  0  0  0  0  0  0
   -0.3873    0.6593    4.8816 H   0  0  0  0  0  0  0  0  0  0  0  0
    1.7065    3.0102    1.9263 C   0  0  0  0  0  0  0  0  0  0  0  0
    2.6804    2.7715    0.9643 C   0  0  0  0  0  0  0  0  0  0  0  0
    3.3373    2.0991    1.0997 H   0  0  0  0  0  0  0  0  0  0  0  0
    2.6785    3.5369   -0.2060 C   0  0  0  0  0  0  0  0  0  0  0  0
    3.3363    3.3786   -0.8725 H   0  0  0  0  0  0  0  0  0  0  0  0
    1.7405    4.5082   -0.3980 C   0  0  0  0  0  0  0  0  0  0  0  0
    1.7510    5.0228   -1.1963 H   0  0  0  0  0  0  0  0  0  0  0  0
    0.7766    4.7455    0.5593 C   0  0  0  0  0  0  0  0  0  0  0  0
    0.1201    5.4171    0.4145 H   0  0  0  0  0  0  0  0  0  0  0  0
    0.7652    4.0117    1.7214 C   0  0  0  0  0  0  0  0  0  0  0  0
    0.1114    4.1901    2.3866 H   0  0  0  0  0  0  0  0  0  0  0  0
    3.2522    1.4859    3.8337 C   0  0  0  0  0  0  0  0  0  0  0  0
    4.2302    2.4600    4.0244 C   0  0  0  0  0  0  0  0  0  0  0  0
    4.0250    3.3773    3.8867 H   0  0  0  0  0  0  0  0  0  0  0  0
    5.5100    2.0797    4.4212 C   0  0  0  0  0  0  0  0  0  0  0  0
    6.1723    2.7413    4.5802 H   0  0  0  0  0  0  0  0  0  0  0  0
    5.8215    0.7390    4.5825 C   0  0  0  0  0  0  0  0  0  0  0  0
    6.6973    0.4856    4.8486 H   0  0  0  0  0  0  0  0  0  0  0  0
    4.8712   -0.2230    4.3588 C   0  0  0  0  0  0  0  0  0  0  0  0
    5.0951   -1.1421    4.4506 H   0  0  0  0  0  0  0  0  0  0  0  0
    3.5691    0.1462    3.9962 C   0  0  0  0  0  0  0  0  0  0  0  0
    2.9043   -0.5192    3.8631 H   0  0  0  0  0  0  0  0  0  0  0  0
    2.4803    3.4516    7.0457 O   0  0  0  0  0  0  0  0  0  0  0  0
    3.7818    4.0124    7.3730 C   0  0  0  0  0  0  0  0  0  0  0  0
    4.3553    4.0672    6.5676 H   0  0  0  0  0  0  0  0  0  0  0  0
    3.6873    4.9184    7.7604 H   0  0  0  0  0  0  0  0  0  0  0  0
    4.3636    3.0559    8.3832 C   0  0  0  0  0  0  0  0  0  0  0  0
    5.3528    3.0473    8.3408 H   0  0  0  0  0  0  0  0  0  0  0  0
    4.0795    3.2881    9.3028 H   0  0  0  0  0  0  0  0  0  0  0  0
    3.7794    1.7112    7.9440 C   0  0  0  0  0  0  0  0  0  0  0  0
    3.7654    1.0639    8.6940 H   0  0  0  0  0  0  0  0  0  0  0  0
    4.2924    1.3248    7.1917 H   0  0  0  0  0  0  0  0  0  0  0  0
    2.3916    2.0826    7.5213 C   0  0  0  0  0  0  0  0  0  0  0  0
    1.7649    2.0200    8.2867 H   0  0  0  0  0  0  0  0  0  0  0  0
    2.0740    1.4828    6.8008 H   0  0  0  0  0  0  0  0  0  0  0  0
   -1.4714    2.4127    7.4742 B   0  0  0  0  0  0  0  0  0  0  0  0
   -0.5261    3.4020    7.0551 F   0  0  0  0  0  0  0  0  0  0  0  0
   -0.8669    1.5268    8.3067 F   0  0  0  0  0  0  0  0  0  0  0  0
   -1.9168    1.7570    6.3757 F   0  0  0  0  0  0  0  0  0  0  0  0
   -2.4981    3.0367    8.1148 F   0  0  0  0  0  0  0  0  0  0  0  0
    0.9127    5.9779    7.2176 O   0  0  0  0  0  0  0  0  0  0  0  0
    0.2930    6.7648    8.3347 P   0  0  0  0  0  0  0  0  0  0  0  0
    1.2985    8.2107    8.6940 C   0  0  0  0  0  0  0  0  0  0  0  0
    1.2178    8.8954    9.8985 C   0  0  0  0  0  0  0  0  0  0  0  0
    0.5995    8.6112   10.5614 H   0  0  0  0  0  0  0  0  0  0  0  0
    2.0385    9.9973   10.1423 C   0  0  0  0  0  0  0  0  0  0  0  0
    1.9847   10.4644   10.9688 H   0  0  0  0  0  0  0  0  0  0  0  0
    2.9407   10.4053    9.1580 C   0  0  0  0  0  0  0  0  0  0  0  0
    3.5033   11.1546    9.3134 H   0  0  0  0  0  0  0  0  0  0  0  0
    3.0196    9.7272    7.9593 C   0  0  0  0  0  0  0  0  0  0  0  0
    3.6318   10.0169    7.2941 H   0  0  0  0  0  0  0  0  0  0  0  0
    2.2055    8.6179    7.7156 C   0  0  0  0  0  0  0  0  0  0  0  0
    2.2693    8.1472    6.8926 H   0  0  0  0  0  0  0  0  0  0  0  0
    0.1755    5.7964    9.8479 C   0  0  0  0  0  0  0  0  0  0  0  0
   -0.7984    6.0351   10.8099 C   0  0  0  0  0  0  0  0  0  0  0  0
   -1.4553    6.7075   10.6745 H   0  0  0  0  0  0  0  0  0  0  0  0
   -0.7965    5.2697   11.9802 C   0  0  0  0  0  0  0  0  0  0  0  0
   -1.4543    5.4280   12.6466 H   0  0  0  0  0  0  0  0  0  0  0  0
    0.1415    4.2984   12.1721 C   0  0  0  0  0  0  0  0  0  0  0  0
    0.1310    3.7837   12.9704 H   0  0  0  0  0  0  0  0  0  0  0  0
    1.1054    4.0611   11.2149 C   0  0  0  0  0  0  0  0  0  0  0  0
    1.7619    3.3894   11.3597 H   0  0  0  0  0  0  0  0  0  0  0  0
    1.1168    4.7949   10.0528 C   0  0  0  0  0  0  0  0  0  0  0  0
    1.7706    4.6164    9.3875 H   0  0  0  0  0  0  0  0  0  0  0  0
   -1.3703    7.3206    7.9405 C   0  0  0  0  0  0  0  0  0  0  0  0
   -2.3482    6.3466    7.7498 C   0  0  0  0  0  0  0  0  0  0  0  0
   -2.1430    5.4292    7.8875 H   0  0  0  0  0  0  0  0  0  0  0  0
   -3.6280    6.7269    7.3530 C   0  0  0  0  0  0  0  0  0  0  0  0
   -4.2904    6.0653    7.1940 H   0  0  0  0  0  0  0  0  0  0  0  0
   -3.9395    8.0675    7.1917 C   0  0  0  0  0  0  0  0  0  0  0  0
   -4.8153    8.3209    6.9256 H   0  0  0  0  0  0  0  0  0  0  0  0
   -2.9892    9.0295    7.4154 C   0  0  0  0  0  0  0  0  0  0  0  0
   -3.2131    9.9487    7.3235 H   0  0  0  0  0  0  0  0  0  0  0  0
   -1.6871    8.6604    7.7780 C   0  0  0  0  0  0  0  0  0  0  0  0
   -1.0223    9.3257    7.9111 H   0  0  0  0  0  0  0  0  0  0  0  0
  1  2  1  0  0  0  0
  2  3  1  0  0  0  0
  3  4  1  0  0  0  0
  5  3  1  0  0  0  0
  6  3  1  0  0  0  0
  7  6  1  0  0  0  0
  8  6  1  0  0  0  0
  9  6  1  0  0  0  0
 10  9  1  0  0  0  0
 11  9  1  0  0  0  0
 12  2  1  0  0  0  0
 13 12  1  0  0  0  0
 14 12  1  0  0  0  0
 15 16  1  0  0  0  0
 16  1  1  0  0  0  0
 17 15  1  0  0  0  0
 18 15  1  0  0  0  0
 19 15  1  0  0  0  0
 20  1  1  0  0  0  0
 21 20  2  0  0  0  0
 22 21  1  0  0  0  0
 23 22  4  0  0  0  0
 24 23  1  0  0  0  0
 25 23  4  0  0  0  0
 26 25  1  0  0  0  0
 27 25  4  0  0  0  0
 28 27  1  0  0  0  0
 29 27  4  0  0  0  0
 30 29  1  0  0  0  0
 31 22  4  0  0  0  0
 32 31  1  0  0  0  0
 33 21  1  0  0  0  0
 34 33  4  0  0  0  0
 35 34  1  0  0  0  0
 36 34  4  0  0  0  0
 37 36  1  0  0  0  0
 38 36  4  0  0  0  0
 39 38  1  0  0  0  0
 40 38  4  0  0  0  0
 41 40  1  0  0  0  0
 42 33  4  0  0  0  0
 43 42  1  0  0  0  0
 44 21  1  0  0  0  0
 45 44  4  0  0  0  0
 46 45  1  0  0  0  0
 47 45  4  0  0  0  0
 48 47  1  0  0  0  0
 49 47  4  0  0  0  0
 50 49  1  0  0  0  0
 51 49  4  0  0  0  0
 52 51  1  0  0  0  0
 53 44  4  0  0  0  0
 54 53  1  0  0  0  0
 55  1  1  0  0  0  0
 56 55  1  0  0  0  0
 57 56  1  0  0  0  0
 58 56  1  0  0  0  0
 59 56  1  0  0  0  0
 60 59  1  0  0  0  0
 61 59  1  0  0  0  0
 62 59  1  0  0  0  0
 63 62  1  0  0  0  0
 64 62  1  0  0  0  0
 65 55  1  0  0  0  0
 66 65  1  0  0  0  0
 67 65  1  0  0  0  0
 68 69  1  0  0  0  0
 69  1  1  0  0  0  0
 70 68  1  0  0  0  0
 71 68  1  0  0  0  0
 72 68  1  0  0  0  0
 73  1  1  0  0  0  0
 74 73  2  0  0  0  0
 75 74  1  0  0  0  0
 76 75  4  0  0  0  0
 77 76  1  0  0  0  0
 78 76  4  0  0  0  0
 79 78  1  0  0  0  0
 80 78  4  0  0  0  0
 81 80  1  0  0  0  0
 82 80  4  0  0  0  0
 83 82  1  0  0  0  0
 84 75  4  0  0  0  0
 85 84  1  0  0  0  0
 86 74  1  0  0  0  0
 87 86  4  0  0  0  0
 88 87  1  0  0  0  0
 89 87  4  0  0  0  0
 90 89  1  0  0  0  0
 91 89  4  0  0  0  0
 92 91  1  0  0  0  0
 93 91  4  0  0  0  0
 94 93  1  0  0  0  0
 95 86  4  0  0  0  0
 96 95  1  0  0  0  0
 97 74  1  0  0  0  0
 98 97  4  0  0  0  0
 99 98  1  0  0  0  0
100 98  4  0  0  0  0
101100  1  0  0  0  0
102100  4  0  0  0  0
103102  1  0  0  0  0
104102  4  0  0  0  0
105104  1  0  0  0  0
106 97  4  0  0  0  0
107106  1  0  0  0  0
  9 12  1  0  0  0  0
 29 31  4  0  0  0  0
 40 42  4  0  0  0  0
 51 53  4  0  0  0  0
 62 65  1  0  0  0  0
 82 84  4  0  0  0  0
 93 95  4  0  0  0  0
104106  4  0  0  0  0
M  END
$$$$
KEDDUT

From CSD data. Using bond type 'Any'. No disordered atoms. Largest molecule.
121126  0  0  0  0  0  0  0  0999 V2000
   10.8772    6.1989    4.4519 Li  0  0  0  0  0  0  0  0  0  0  0  0
    4.8722    5.5629    4.9834 Li  0  0  0  0  0  0  0  0  0  0  0  0
    3.6300    6.6928    7.3757 P   0  0  0  0  0  0  0  0  0  0  0  0
    6.9786    6.8055    3.0422 P   0  0  0  0  0  0  0  0  0  0  0  0
    6.1282    5.0872    8.2135 Si  0  0  0  0  0  0  0  0  0  0  0  0
    3.5624    3.6888    7.1764 Si  0  0  0  0  0  0  0  0  0  0  0  0
    4.2692    5.9701    1.8555 Si  0  0  0  0  0  0  0  0  0  0  0  0
    6.4853    3.8964    2.5341 Si  0  0  0  0  0  0  0  0  0  0  0  0
    2.7255    7.2250    5.7404 B   0  0  0  0  0  0  0  0  0  0  0  0
    2.4080    8.2086    5.9032 H   0  0  0  0  0  0  0  0  0  0  0  0
    2.0249    6.5974    5.5698 H   0  0  0  0  0  0  0  0  0  0  0  0
    3.5436    7.0893    4.9814 H   0  0  0  0  0  0  0  0  0  0  0  0
    8.7195    6.3651    3.7380 B   0  0  0  0  0  0  0  0  0  0  0  0
    9.2901    5.6986    3.1183 H   0  0  0  0  0  0  0  0  0  0  0  0
    9.1533    7.2589    3.8636 H   0  0  0  0  0  0  0  0  0  0  0  0
    8.6060    6.0038    4.7853 H   0  0  0  0  0  0  0  0  0  0  0  0
    5.7546    5.5612    2.9124 C   0  0  0  0  0  0  0  0  0  0  0  0
    7.3363    7.6507    1.4591 C   0  0  0  0  0  0  0  0  0  0  0  0
    7.6346    6.9909    0.7962 H   0  0  0  0  0  0  0  0  0  0  0  0
    8.0423    8.3172    1.5964 H   0  0  0  0  0  0  0  0  0  0  0  0
    6.5249    8.0950    1.1355 H   0  0  0  0  0  0  0  0  0  0  0  0
    6.3799    8.1747    4.0832 C   0  0  0  0  0  0  0  0  0  0  0  0
    5.5193    8.4953    3.7400 H   0  0  0  0  0  0  0  0  0  0  0  0
    7.0312    8.9074    4.0656 H   0  0  0  0  0  0  0  0  0  0  0  0
    6.2677    7.8593    5.0050 H   0  0  0  0  0  0  0  0  0  0  0  0
    4.5315    5.6494   -0.0059 C   0  0  0  0  0  0  0  0  0  0  0  0
    5.2046    6.2718   -0.3530 H   0  0  0  0  0  0  0  0  0  0  0  0
    3.6859    5.7834   -0.4825 H   0  0  0  0  0  0  0  0  0  0  0  0
    4.8393    4.7284   -0.1373 H   0  0  0  0  0  0  0  0  0  0  0  0
    3.7160    7.7643    1.9357 C   0  0  0  0  0  0  0  0  0  0  0  0
    3.4383    7.9797    2.8496 H   0  0  0  0  0  0  0  0  0  0  0  0
    2.9635    7.9017    1.3238 H   0  0  0  0  0  0  0  0  0  0  0  0
    4.4590    8.3477    1.6729 H   0  0  0  0  0  0  0  0  0  0  0  0
    2.7556    4.9812    2.3750 C   0  0  0  0  0  0  0  0  0  0  0  0
    2.9622    4.0229    2.3378 H   0  0  0  0  0  0  0  0  0  0  0  0
    2.0126    5.1779    1.7670 H   0  0  0  0  0  0  0  0  0  0  0  0
    2.5038    5.2254    3.2889 H   0  0  0  0  0  0  0  0  0  0  0  0
    7.4676    3.1732    3.9655 C   0  0  0  0  0  0  0  0  0  0  0  0
    8.2981    3.6820    4.0813 H   0  0  0  0  0  0  0  0  0  0  0  0
    7.6824    2.2370    3.7733 H   0  0  0  0  0  0  0  0  0  0  0  0
    6.9354    3.2258    4.7853 H   0  0  0  0  0  0  0  0  0  0  0  0
    5.1622    2.5796    2.1534 C   0  0  0  0  0  0  0  0  0  0  0  0
    4.5246    2.5338    2.8947 H   0  0  0  0  0  0  0  0  0  0  0  0
    5.5932    1.7079    2.0377 H   0  0  0  0  0  0  0  0  0  0  0  0
    4.6902    2.8204    1.3297 H   0  0  0  0  0  0  0  0  0  0  0  0
    7.6428    3.8550    1.0336 C   0  0  0  0  0  0  0  0  0  0  0  0
    7.1447    4.1145    0.2314 H   0  0  0  0  0  0  0  0  0  0  0  0
    7.9971    2.9493    0.9198 H   0  0  0  0  0  0  0  0  0  0  0  0
    8.3830    4.4808    1.1748 H   0  0  0  0  0  0  0  0  0  0  0  0
    4.5807    5.2288    7.1878 C   0  0  0  0  0  0  0  0  0  0  0  0
    4.6601    8.1289    7.8428 C   0  0  0  0  0  0  0  0  0  0  0  0
    5.1184    7.9424    8.6881 H   0  0  0  0  0  0  0  0  0  0  0  0
    4.0895    8.9193    7.9487 H   0  0  0  0  0  0  0  0  0  0  0  0
    5.3237    8.2985    7.1407 H   0  0  0  0  0  0  0  0  0  0  0  0
    2.4655    6.6449    8.7979 C   0  0  0  0  0  0  0  0  0  0  0  0
    1.8389    5.9004    8.6822 H   0  0  0  0  0  0  0  0  0  0  0  0
    1.9661    7.4878    8.8411 H   0  0  0  0  0  0  0  0  0  0  0  0
    2.9690    6.5211    9.6295 H   0  0  0  0  0  0  0  0  0  0  0  0
    5.8504    5.3237   10.0688 C   0  0  0  0  0  0  0  0  0  0  0  0
    5.5303    6.2345   10.2375 H   0  0  0  0  0  0  0  0  0  0  0  0
    6.6932    5.1813   10.5473 H   0  0  0  0  0  0  0  0  0  0  0  0
    5.1827    4.6793   10.3846 H   0  0  0  0  0  0  0  0  0  0  0  0
    7.4895    6.3074    7.7409 C   0  0  0  0  0  0  0  0  0  0  0  0
    7.6756    6.2345    6.7818 H   0  0  0  0  0  0  0  0  0  0  0  0
    8.3022    6.1022    8.2488 H   0  0  0  0  0  0  0  0  0  0  0  0
    7.1967    7.2199    7.9468 H   0  0  0  0  0  0  0  0  0  0  0  0
    6.9505    3.3988    8.0645 C   0  0  0  0  0  0  0  0  0  0  0  0
    6.3142    2.7017    8.3292 H   0  0  0  0  0  0  0  0  0  0  0  0
    7.7358    3.3649    8.6509 H   0  0  0  0  0  0  0  0  0  0  0  0
    7.2282    3.2529    7.1368 H   0  0  0  0  0  0  0  0  0  0  0  0
    3.2974    2.9205    8.8960 C   0  0  0  0  0  0  0  0  0  0  0  0
    4.1607    2.6373    9.2627 H   0  0  0  0  0  0  0  0  0  0  0  0
    2.7049    2.1437    8.8195 H   0  0  0  0  0  0  0  0  0  0  0  0
    2.8910    3.5836    9.4902 H   0  0  0  0  0  0  0  0  0  0  0  0
    1.8279    3.8838    6.4876 C   0  0  0  0  0  0  0  0  0  0  0  0
    1.3326    4.5334    7.0289 H   0  0  0  0  0  0  0  0  0  0  0  0
    1.3668    3.0189    6.5131 H   0  0  0  0  0  0  0  0  0  0  0  0
    1.8785    4.1993    5.5620 H   0  0  0  0  0  0  0  0  0  0  0  0
    4.2920    2.3218    6.1091 C   0  0  0  0  0  0  0  0  0  0  0  0
    4.2455    2.5830    5.1658 H   0  0  0  0  0  0  0  0  0  0  0  0
    3.7831    1.4942    6.2425 H   0  0  0  0  0  0  0  0  0  0  0  0
    5.2279    2.1743    6.3602 H   0  0  0  0  0  0  0  0  0  0  0  0
   11.5503    4.4130    4.6932 O   0  0  0  0  0  0  0  0  0  0  0  0
   12.0607    6.9943    3.1165 O   0  0  0  0  0  0  0  0  0  0  0  0
   11.3136    7.1012    6.1217 O   0  0  0  0  0  0  0  0  0  0  0  0
   11.1631    3.5158    5.6855 C   0  0  0  0  0  0  0  0  0  0  0  0
   11.5367    3.7923    6.5602 H   0  0  0  0  0  0  0  0  0  0  0  0
   10.1753    3.4938    5.7581 H   0  0  0  0  0  0  0  0  0  0  0  0
   11.6037    2.3795    5.3619 C   0  0  0  0  0  0  0  0  0  0  0  0
   10.8498    1.7842    5.1187 H   0  0  0  0  0  0  0  0  0  0  0  0
   12.0826    1.9758    6.1288 H   0  0  0  0  0  0  0  0  0  0  0  0
   12.6805    2.5423    4.0146 C   0  0  0  0  0  0  0  0  0  0  0  0
   13.6341    2.5355    4.2813 H   0  0  0  0  0  0  0  0  0  0  0  0
   12.5177    1.8707    3.3066 H   0  0  0  0  0  0  0  0  0  0  0  0
   12.2495    3.7431    3.6910 C   0  0  0  0  0  0  0  0  0  0  0  0
   11.6625    3.6617    2.8987 H   0  0  0  0  0  0  0  0  0  0  0  0
   13.0280    4.2960    3.4282 H   0  0  0  0  0  0  0  0  0  0  0  0
   13.2346    7.7473    3.4066 C   0  0  0  0  0  0  0  0  0  0  0  0
   13.9912    7.1402    3.6027 H   0  0  0  0  0  0  0  0  0  0  0  0
   13.0827    8.3257    4.1970 H   0  0  0  0  0  0  0  0  0  0  0  0
   13.5288    8.5580    2.2417 C   0  0  0  0  0  0  0  0  0  0  0  0
   14.5070    8.6242    2.1024 H   0  0  0  0  0  0  0  0  0  0  0  0
   13.1580    9.4688    2.3476 H   0  0  0  0  0  0  0  0  0  0  0  0
   12.8980    7.8745    1.1257 C   0  0  0  0  0  0  0  0  0  0  0  0
   13.5301    7.2453    0.6982 H   0  0  0  0  0  0  0  0  0  0  0  0
   12.5861    8.5258    0.4491 H   0  0  0  0  0  0  0  0  0  0  0  0
   11.7706    7.1571    1.7121 C   0  0  0  0  0  0  0  0  0  0  0  0
   10.9347    7.6727    1.5905 H   0  0  0  0  0  0  0  0  0  0  0  0
   11.6625    6.2735    1.2787 H   0  0  0  0  0  0  0  0  0  0  0  0
   10.6761    8.2816    6.6053 C   0  0  0  0  0  0  0  0  0  0  0  0
    9.6978    8.1442    6.6700 H   0  0  0  0  0  0  0  0  0  0  0  0
   10.8485    9.0431    5.9954 H   0  0  0  0  0  0  0  0  0  0  0  0
   11.2425    8.5444    7.9193 C   0  0  0  0  0  0  0  0  0  0  0  0
   10.6638    8.1730    8.6312 H   0  0  0  0  0  0  0  0  0  0  0  0
   11.3479    9.5180    8.0664 H   0  0  0  0  0  0  0  0  0  0  0  0
   12.5874    7.8576    7.9134 C   0  0  0  0  0  0  0  0  0  0  0  0
   13.2934    8.4529    7.5565 H   0  0  0  0  0  0  0  0  0  0  0  0
   12.8419    7.5591    8.8234 H   0  0  0  0  0  0  0  0  0  0  0  0
   12.3548    6.7162    7.0250 C   0  0  0  0  0  0  0  0  0  0  0  0
   13.1799    6.4940    6.5249 H   0  0  0  0  0  0  0  0  0  0  0  0
   12.0798    5.9207    7.5487 H   0  0  0  0  0  0  0  0  0  0  0  0
  1 14  1  0  0  0  0
  2 12  1  0  0  0  0
  3  9  1  0  0  0  0
  4 13  1  0  0  0  0
  5 50  1  0  0  0  0
  6 50  1  0  0  0  0
  7 17  1  0  0  0  0
  8 17  1  0  0  0  0
  9 10  1  0  0  0  0
 11  9  1  0  0  0  0
 12  9  1  0  0  0  0
 13 14  1  0  0  0  0
 15  1  1  0  0  0  0
 16  1  1  0  0  0  0
 17  2  1  0  0  0  0
 18  4  1  0  0  0  0
 19 18  1  0  0  0  0
 20 18  1  0  0  0  0
 21 18  1  0  0  0  0
 22  4  1  0  0  0  0
 23 22  1  0  0  0  0
 24 22  1  0  0  0  0
 25 22  1  0  0  0  0
 26  7  1  0  0  0  0
 27 26  1  0  0  0  0
 28 26  1  0  0  0  0
 29 26  1  0  0  0  0
 30  7  1  0  0  0  0
 31 30  1  0  0  0  0
 32 30  1  0  0  0  0
 33 30  1  0  0  0  0
 34  7  1  0  0  0  0
 35 34  1  0  0  0  0
 36 34  1  0  0  0  0
 37 34  1  0  0  0  0
 38  8  1  0  0  0  0
 39 38  1  0  0  0  0
 40 38  1  0  0  0  0
 41 38  1  0  0  0  0
 42  8  1  0  0  0  0
 43 42  1  0  0  0  0
 44 42  1  0  0  0  0
 45 42  1  0  0  0  0
 46  8  1  0  0  0  0
 47 46  1  0  0  0  0
 48 46  1  0  0  0  0
 49 46  1  0  0  0  0
 50  2  1  0  0  0  0
 51  3  1  0  0  0  0
 52 51  1  0  0  0  0
 53 51  1  0  0  0  0
 54 51  1  0  0  0  0
 55  3  1  0  0  0  0
 56 55  1  0  0  0  0
 57 55  1  0  0  0  0
 58 55  1  0  0  0  0
 59  5  1  0  0  0  0
 60 59  1  0  0  0  0
 61 59  1  0  0  0  0
 62 59  1  0  0  0  0
 63  5  1  0  0  0  0
 64 63  1  0  0  0  0
 65 63  1  0  0  0  0
 66 63  1  0  0  0  0
 67  5  1  0  0  0  0
 68 67  1  0  0  0  0
 69 67  1  0  0  0  0
 70 67  1  0  0  0  0
 71  6  1  0  0  0  0
 72 71  1  0  0  0  0
 73 71  1  0  0  0  0
 74 71  1  0  0  0  0
 75  6  1  0  0  0  0
 76 75  1  0  0  0  0
 77 75  1  0  0  0  0
 78 75  1  0  0  0  0
 79  6  1  0  0  0  0
 80 79  1  0  0  0  0
 81 79  1  0  0  0  0
 82 79  1  0  0  0  0
 83  1  1  0  0  0  0
 84  1  1  0  0  0  0
 85  1  1  0  0  0  0
 86 83  1  0  0  0  0
 87 86  1  0  0  0  0
 88 86  1  0  0  0  0
 89 86  1  0  0  0  0
 90 89  1  0  0  0  0
 91 89  1  0  0  0  0
 92 89  1  0  0  0  0
 93 92  1  0  0  0  0
 94 92  1  0  0  0  0
 95 83  1  0  0  0  0
 96 95  1  0  0  0  0
 97 95  1  0  0  0  0
 98 84  1  0  0  0  0
 99 98  1  0  0  0  0
100 98  1  0  0  0  0
101 98  1  0  0  0  0
102101  1  0  0  0  0
103101  1  0  0  0  0
104101  1  0  0  0  0
105104  1  0  0  0  0
106104  1  0  0  0  0
107 84  1  0  0  0  0
108107  1  0  0  0  0
109107  1  0  0  0  0
110 85  1  0  0  0  0
111110  1  0  0  0  0
112110  1  0  0  0  0
113110  1  0  0  0  0
114113  1  0  0  0  0
115113  1  0  0  0  0
116113  1  0  0  0  0
117116  1  0  0  0  0
118116  1  0  0  0  0
119 85  1  0  0  0  0
120119  1  0  0  0  0
121119  1  0  0  0  0
  3 50  1  0  0  0  0
  4 17  1  0  0  0  0
 13 15  1  0  0  0  0
 13 16  1  0  0  0  0
 92 95  1  0  0  0  0
104107  1  0  0  0  0
116119  1  0  0  0  0
M  END
$$$$
KEKXIL

From CSD data. Using bond type 'Any'. No disordered atoms. Largest molecule.
109112  0  0  0  0  0  0  0  0999 V2000
   15.9503    4.6879   18.6649 Os  0  3  0  0  0  0  0  0  0  0  0  0
   16.5445    6.1530   18.7084 H   0  0  0  0  0  0  0  0  0  0  0  0
   14.3772    4.5588   18.5228 H   0  0  0  0  0  0  0  0  0  0  0  0
   17.5254    4.5495   18.7826 H   0  0  0  0  0  0  0  0  0  0  0  0
   15.6789    3.1231   18.5970 H   0  0  0  0  0  0  0  0  0  0  0  0
   15.8678    4.1775   20.9593 P   0  0  0  0  0  0  0  0  0  0  0  0
   16.0107    4.4094   16.3197 P   0  0  0  0  0  0  0  0  0  0  0  0
   18.5990    6.2760   17.6727 O   0  0  0  0  0  0  0  0  0  0  0  0
   18.3586    6.4355   19.9367 O   0  0  0  0  0  0  0  0  0  0  0  0
   13.7366    6.7291   17.7432 O   0  0  0  0  0  0  0  0  0  0  0  0
   13.6071    6.3049   19.9786 O   0  0  0  0  0  0  0  0  0  0  0  0
   17.8030    5.9087   18.7715 B   0  5  0  0  0  0  0  0  0  0  0  0
   14.2481    5.9628   18.7974 B   0  0  0  0  0  0  0  0  0  0  0  0
   19.6822    6.9342   19.6401 C   0  0  0  0  0  0  0  0  0  0  0  0
   19.9874    8.1024   20.5495 C   0  0  0  0  0  0  0  0  0  0  0  0
   19.2959    8.7892   20.4407 H   0  0  0  0  0  0  0  0  0  0  0  0
   20.8610    8.4791   20.3168 H   0  0  0  0  0  0  0  0  0  0  0  0
   19.9998    7.7970   21.4805 H   0  0  0  0  0  0  0  0  0  0  0  0
   20.6718    5.8071   19.8925 C   0  0  0  0  0  0  0  0  0  0  0  0
   20.6184    5.5277   20.8285 H   0  0  0  0  0  0  0  0  0  0  0  0
   21.5801    6.1193   19.6944 H   0  0  0  0  0  0  0  0  0  0  0  0
   20.4556    5.0473   19.3107 H   0  0  0  0  0  0  0  0  0  0  0  0
   19.5427    7.2764   18.1293 C   0  0  0  0  0  0  0  0  0  0  0  0
   20.8143    7.1356   17.3015 C   0  0  0  0  0  0  0  0  0  0  0  0
   21.1429    6.2142   17.3641 H   0  0  0  0  0  0  0  0  0  0  0  0
   21.4967    7.7491   17.6470 H   0  0  0  0  0  0  0  0  0  0  0  0
   20.6220    7.3524   16.3669 H   0  0  0  0  0  0  0  0  0  0  0  0
   18.9215    8.6449   17.8843 C   0  0  0  0  0  0  0  0  0  0  0  0
   18.6919    8.7348   16.9355 H   0  0  0  0  0  0  0  0  0  0  0  0
   19.5631    9.3435   18.1320 H   0  0  0  0  0  0  0  0  0  0  0  0
   18.1113    8.7383   18.4268 H   0  0  0  0  0  0  0  0  0  0  0  0
   12.9970    7.8329   18.3149 C   0  0  0  0  0  0  0  0  0  0  0  0
   14.0120    8.9759   18.4337 C   0  0  0  0  0  0  0  0  0  0  0  0
   14.7146    8.7224   19.0692 H   0  0  0  0  0  0  0  0  0  0  0  0
   13.5585    9.7833   18.7546 H   0  0  0  0  0  0  0  0  0  0  0  0
   14.4122    9.1516   17.5575 H   0  0  0  0  0  0  0  0  0  0  0  0
   11.8968    8.2180   17.3683 C   0  0  0  0  0  0  0  0  0  0  0  0
   12.2827    8.4818   16.5064 H   0  0  0  0  0  0  0  0  0  0  0  0
   11.3911    8.9697   17.7425 H   0  0  0  0  0  0  0  0  0  0  0  0
   11.2963    7.4545   17.2362 H   0  0  0  0  0  0  0  0  0  0  0  0
   12.5554    7.2540   19.6735 C   0  0  0  0  0  0  0  0  0  0  0  0
   11.2538    6.4849   19.5918 C   0  0  0  0  0  0  0  0  0  0  0  0
   11.2900    5.8599   18.8373 H   0  0  0  0  0  0  0  0  0  0  0  0
   10.5118    7.1118   19.4604 H   0  0  0  0  0  0  0  0  0  0  0  0
   11.1164    5.9855   20.4232 H   0  0  0  0  0  0  0  0  0  0  0  0
   12.4914    8.2804   20.8131 C   0  0  0  0  0  0  0  0  0  0  0  0
   12.2125    7.8343   21.6384 H   0  0  0  0  0  0  0  0  0  0  0  0
   11.8445    8.9806   20.5841 H   0  0  0  0  0  0  0  0  0  0  0  0
   13.3760    8.6826   20.9401 H   0  0  0  0  0  0  0  0  0  0  0  0
   16.9468    2.7092   21.4070 C   0  0  0  0  0  0  0  0  0  0  0  0
   16.8172    2.5455   22.3862 H   0  0  0  0  0  0  0  0  0  0  0  0
   18.4340    2.9795   21.1991 C   0  0  0  0  0  0  0  0  0  0  0  0
   18.9461    2.1757   21.4262 H   0  0  0  0  0  0  0  0  0  0  0  0
   18.7149    3.7201   21.7762 H   0  0  0  0  0  0  0  0  0  0  0  0
   18.5940    3.2159   20.2622 H   0  0  0  0  0  0  0  0  0  0  0  0
   16.5158    1.4208   20.6794 C   0  0  0  0  0  0  0  0  0  0  0  0
   16.7769    1.4748   19.7382 H   0  0  0  0  0  0  0  0  0  0  0  0
   15.5427    1.3192   20.7450 H   0  0  0  0  0  0  0  0  0  0  0  0
   16.9525    0.6491   21.0978 H   0  0  0  0  0  0  0  0  0  0  0  0
   16.5279    5.4594   22.1531 C   0  0  0  0  0  0  0  0  0  0  0  0
   17.4889    5.5814   21.9037 H   0  0  0  0  0  0  0  0  0  0  0  0
   16.5422    5.1014   23.6304 C   0  0  0  0  0  0  0  0  0  0  0  0
   17.0030    5.8061   24.1344 H   0  0  0  0  0  0  0  0  0  0  0  0
   17.0126    4.2508   23.7576 H   0  0  0  0  0  0  0  0  0  0  0  0
   15.6219    5.0173   23.9568 H   0  0  0  0  0  0  0  0  0  0  0  0
   15.8803    6.8317   21.9415 C   0  0  0  0  0  0  0  0  0  0  0  0
   14.9194    6.7703   22.1227 H   0  0  0  0  0  0  0  0  0  0  0  0
   16.0205    7.1187   21.0148 H   0  0  0  0  0  0  0  0  0  0  0  0
   16.2872    7.4827   22.5502 H   0  0  0  0  0  0  0  0  0  0  0  0
   14.2056    3.7254   21.7076 C   0  0  0  0  0  0  0  0  0  0  0  0
   13.8115    4.5821   22.0397 H   0  0  0  0  0  0  0  0  0  0  0  0
   14.2448    2.7763   22.9215 C   0  0  0  0  0  0  0  0  0  0  0  0
   13.3606    2.7511   23.3443 H   0  0  0  0  0  0  0  0  0  0  0  0
   14.9066    3.0990   23.5677 H   0  0  0  0  0  0  0  0  0  0  0  0
   14.4900    1.8754   22.6241 H   0  0  0  0  0  0  0  0  0  0  0  0
   13.1928    3.1529   20.7091 C   0  0  0  0  0  0  0  0  0  0  0  0
   13.5428    2.3206   20.3279 H   0  0  0  0  0  0  0  0  0  0  0  0
   13.0387    3.8015   19.9904 H   0  0  0  0  0  0  0  0  0  0  0  0
   12.3468    2.9701   21.1698 H   0  0  0  0  0  0  0  0  0  0  0  0
   17.0872    2.9600   15.8316 C   0  0  0  0  0  0  0  0  0  0  0  0
   17.2197    3.0171   14.8429 H   0  0  0  0  0  0  0  0  0  0  0  0
   18.4730    3.0327   16.4700 C   0  0  0  0  0  0  0  0  0  0  0  0
   18.4006    2.8588   17.4320 H   0  0  0  0  0  0  0  0  0  0  0  0
   18.8528    3.9252   16.3278 H   0  0  0  0  0  0  0  0  0  0  0  0
   19.0577    2.3607   16.0604 H   0  0  0  0  0  0  0  0  0  0  0  0
   16.4551    1.5737   16.1211 C   0  0  0  0  0  0  0  0  0  0  0  0
   17.0956    0.8682   15.8941 H   0  0  0  0  0  0  0  0  0  0  0  0
   15.6437    1.4652   15.5831 H   0  0  0  0  0  0  0  0  0  0  0  0
   16.2256    1.5115   17.0732 H   0  0  0  0  0  0  0  0  0  0  0  0
   14.4151    3.9370   15.4567 C   0  0  0  0  0  0  0  0  0  0  0  0
   14.6742    3.3770   14.6697 H   0  0  0  0  0  0  0  0  0  0  0  0
   13.4942    3.0690   16.3178 C   0  0  0  0  0  0  0  0  0  0  0  0
   13.0091    3.6368   16.9531 H   0  0  0  0  0  0  0  0  0  0  0  0
   14.0308    2.4132   16.8118 H   0  0  0  0  0  0  0  0  0  0  0  0
   12.8537    2.6002   15.7438 H   0  0  0  0  0  0  0  0  0  0  0  0
   13.5766    5.0771   14.9110 C   0  0  0  0  0  0  0  0  0  0  0  0
   12.7368    4.7223   14.5513 H   0  0  0  0  0  0  0  0  0  0  0  0
   14.0701    5.5350   14.2006 H   0  0  0  0  0  0  0  0  0  0  0  0
   13.3793    5.7110   15.6334 H   0  0  0  0  0  0  0  0  0  0  0  0
   16.7823    5.7260   15.2488 C   0  0  0  0  0  0  0  0  0  0  0  0
   17.7423    5.7594   15.5296 H   0  0  0  0  0  0  0  0  0  0  0  0
   16.2347    7.1347   15.5383 C   0  0  0  0  0  0  0  0  0  0  0  0
   16.7230    7.7922   14.9988 H   0  0  0  0  0  0  0  0  0  0  0  0
   16.3494    7.3410   16.4880 H   0  0  0  0  0  0  0  0  0  0  0  0
   15.2824    7.1676   15.3080 H   0  0  0  0  0  0  0  0  0  0  0  0
   16.8227    5.4361   13.7306 C   0  0  0  0  0  0  0  0  0  0  0  0
   15.9088    5.3168   13.3957 H   0  0  0  0  0  0  0  0  0  0  0  0
   17.3394    4.6200   13.5656 H   0  0  0  0  0  0  0  0  0  0  0  0
   17.2442    6.1887   13.2637 H   0  0  0  0  0  0  0  0  0  0  0  0
  1  2  1  0  0  0  0
  2 12  1  0  0  0  0
  3  1  1  0  0  0  0
  4  1  1  0  0  0  0
  5  1  1  0  0  0  0
  6  1  1  0  0  0  0
  7  1  1  0  0  0  0
  8 12  1  0  0  0  0
  9 12  1  0  0  0  0
 10 13  1  0  0  0  0
 11 13  1  0  0  0  0
 12  4  1  0  0  0  0
 13  1  1  0  0  0  0
 14  9  1  0  0  0  0
 15 14  1  0  0  0  0
 16 15  1  0  0  0  0
 17 15  1  0  0  0  0
 18 15  1  0  0  0  0
 19 14  1  0  0  0  0
 20 19  1  0  0  0  0
 21 19  1  0  0  0  0
 22 19  1  0  0  0  0
 23  8  1  0  0  0  0
 24 23  1  0  0  0  0
 25 24  1  0  0  0  0
 26 24  1  0  0  0  0
 27 24  1  0  0  0  0
 28 23  1  0  0  0  0
 29 28  1  0  0  0  0
 30 28  1  0  0  0  0
 31 28  1  0  0  0  0
 32 10  1  0  0  0  0
 33 32  1  0  0  0  0
 34 33  1  0  0  0  0
 35 33  1  0  0  0  0
 36 33  1  0  0  0  0
 37 32  1  0  0  0  0
 38 37  1  0  0  0  0
 39 37  1  0  0  0  0
 40 37  1  0  0  0  0
 41 11  1  0  0  0  0
 42 41  1  0  0  0  0
 43 42  1  0  0  0  0
 44 42  1  0  0  0  0
 45 42  1  0  0  0  0
 46 41  1  0  0  0  0
 47 46  1  0  0  0  0
 48 46  1  0  0  0  0
 49 46  1  0  0  0  0
 50  6  1  0  0  0  0
 51 50  1  0  0  0  0
 52 50  1  0  0  0  0
 53 52  1  0  0  0  0
 54 52  1  0  0  0  0
 55 52  1  0  0  0  0
 56 50  1  0  0  0  0
 57 56  1  0  0  0  0
 58 56  1  0  0  0  0
 59 56  1  0  0  0  0
 60  6  1  0  0  0  0
 61 60  1  0  0  0  0
 62 60  1  0  0  0  0
 63 62  1  0  0  0  0
 64 62  1  0  0  0  0
 65 62  1  0  0  0  0
 66 60  1  0  0  0  0
 67 66  1  0  0  0  0
 68 66  1  0  0  0  0
 69 66  1  0  0  0  0
 70  6  1  0  0  0  0
 71 70  1  0  0  0  0
 72 70  1  0  0  0  0
 73 72  1  0  0  0  0
 74 72  1  0  0  0  0
 75 72  1  0  0  0  0
 76 70  1  0  0  0  0
 77 76  1  0  0  0  0
 78 76  1  0  0  0  0
 79 76  1  0  0  0  0
 80  7  1  0  0  0  0
 81 80  1  0  0  0  0
 82 80  1  0  0  0  0
 83 82  1  0  0  0  0
 84 82  1  0  0  0  0
 85 82  1  0  0  0  0
 86 80  1  0  0  0  0
 87 86  1  0  0  0  0
 88 86  1  0  0  0  0
 89 86  1  0  0  0  0
 90  7  1  0  0  0  0
 91 90  1  0  0  0  0
 92 90  1  0  0  0  0
 93 92  1  0  0  0  0
 94 92  1  0  0  0  0
 95 92  1  0  0  0  0
 96 90  1  0  0  0  0
 97 96  1  0  0  0  0
 98 96  1  0  0  0  0
 99 96  1  0  0  0  0
100  7  1  0  0  0  0
101100  1  0  0  0  0
102100  1  0  0  0  0
103102  1  0  0  0  0
104102  1  0  0  0  0
105102  1  0  0  0  0
106100  1  0  0  0  0
107106  1  0  0  0  0
108106  1  0  0  0  0
109106  1  0  0  0  0
  3 13  1  0  0  0  0
 14 23  1  0  0  0  0
 32 41  1  0  0  0  0
M  CHG  2   1   1  12  -1
M  END
$$$$
KEVZOA

From CSD data. Using bond type 'Any'. No disordered atoms. Largest molecule.
 90115  0  0  0  0  0  0  0  0999 V2000
    7.1104    5.6323   10.7384 Pt  0  0  0  0  0  0  0  0  0  0  0  0
    4.6874    4.3528   10.5590 W   0  0  0  0  0  0  0  0  0  0  0  0
    8.1301    7.2590   11.9882 P   0  0  0  0  0  0  0  0  0  0  0  0
    8.4786    5.9591    8.8322 P   0  0  0  0  0  0  0  0  0  0  0  0
    4.1859    1.3073    9.8837 O   0  0  0  0  0  0  0  0  0  0  0  0
    3.8903    5.2460    7.6422 O   0  0  0  0  0  0  0  0  0  0  0  0
    3.4878    3.5320   12.4904 B   0  0  0  0  0  0  0  0  0  0  0  0
    5.4519    5.7586   12.1173 B   0  0  0  0  0  0  0  0  0  0  0  0
    4.1278    6.6109   11.2531 B   0  0  0  0  0  0  0  0  0  0  0  0
    2.5909    5.7214   11.0784 B   0  0  0  0  0  0  0  0  0  0  0  0
    2.2960    5.1346   12.9720 B   0  0  0  0  0  0  0  0  0  0  0  0
    3.7560    4.5069   13.9795 B   0  0  0  0  0  0  0  0  0  0  0  0
    5.0254    5.6119   13.8519 B   0  0  0  0  0  0  0  0  0  0  0  0
    4.4990    7.0417   12.9343 B   0  0  0  0  0  0  0  0  0  0  0  0
    2.8257    6.8300   12.4416 B   0  0  0  0  0  0  0  0  0  0  0  0
    3.3361    6.1912   13.9716 B   0  0  0  0  0  0  0  0  0  0  0  0
    2.5362    4.1838   11.4074 C   0  0  0  0  0  0  0  0  0  0  0  0
    4.9873    4.2730   12.9264 C   0  0  0  0  0  0  0  0  0  0  0  0
    1.4037    3.3575   10.9084 C   0  0  0  0  0  0  0  0  0  0  0  0
    6.0716    3.2126   13.3026 C   0  0  0  0  0  0  0  0  0  0  0  0
    4.3410    2.4011   10.1340 C   0  0  0  0  0  0  0  0  0  0  0  0
    4.1695    4.8616    8.6732 C   0  0  0  0  0  0  0  0  0  0  0  0
    6.3890    3.8347    9.8254 C   0  0  0  0  0  0  0  0  0  0  0  0
    7.2029    2.8449    9.1439 C   0  0  0  0  0  0  0  0  0  0  0  0
    8.5006    2.5608    9.5893 C   0  0  0  0  0  0  0  0  0  0  0  0
    9.2377    1.5710    8.9235 C   0  0  0  0  0  0  0  0  0  0  0  0
    8.7373    0.9118    7.8106 C   0  0  0  0  0  0  0  0  0  0  0  0
    7.4582    1.2126    7.3935 C   0  0  0  0  0  0  0  0  0  0  0  0
    6.7092    2.1300    8.0672 C   0  0  0  0  0  0  0  0  0  0  0  0
    9.6136   -0.1281    7.1149 C   0  0  0  0  0  0  0  0  0  0  0  0
    7.5775    8.9526   11.6592 C   0  0  0  0  0  0  0  0  0  0  0  0
    8.0256    7.1959   13.8079 C   0  0  0  0  0  0  0  0  0  0  0  0
    9.9369    7.2423   11.7915 C   0  0  0  0  0  0  0  0  0  0  0  0
   10.6379    8.3788   11.3318 C   0  0  0  0  0  0  0  0  0  0  0  0
   12.0416    8.3026   11.2374 C   0  0  0  0  0  0  0  0  0  0  0  0
   12.6966    7.1643   11.5994 C   0  0  0  0  0  0  0  0  0  0  0  0
   12.0284    6.0984   12.0512 C   0  0  0  0  0  0  0  0  0  0  0  0
   10.6470    6.1448   12.1456 C   0  0  0  0  0  0  0  0  0  0  0  0
    7.8993    5.2497    7.2691 C   0  0  0  0  0  0  0  0  0  0  0  0
   10.2425    5.5487    8.7503 C   0  0  0  0  0  0  0  0  0  0  0  0
    8.3786    7.7177    8.3726 C   0  0  0  0  0  0  0  0  0  0  0  0
    7.1590    8.2878    8.3096 C   0  0  0  0  0  0  0  0  0  0  0  0
    6.9831    9.5487    7.8626 C   0  0  0  0  0  0  0  0  0  0  0  0
    8.0212   10.3156    7.5288 C   0  0  0  0  0  0  0  0  0  0  0  0
    9.2547    9.8272    7.6170 C   0  0  0  0  0  0  0  0  0  0  0  0
    9.4812    8.4976    8.0121 C   0  0  0  0  0  0  0  0  0  0  0  0
    3.2605    2.4178   12.4306 H   0  0  0  0  0  0  0  0  0  0  0  0
    4.2693    7.3017   10.3937 H   0  0  0  0  0  0  0  0  0  0  0  0
    1.8657    5.8366   10.2347 H   0  0  0  0  0  0  0  0  0  0  0  0
    1.2419    4.8839   13.2223 H   0  0  0  0  0  0  0  0  0  0  0  0
    3.6666    3.8551   14.8877 H   0  0  0  0  0  0  0  0  0  0  0  0
    5.7625    5.6973   14.6831 H   0  0  0  0  0  0  0  0  0  0  0  0
    4.8866    8.0668   13.1546 H   0  0  0  0  0  0  0  0  0  0  0  0
    2.1339    7.6991   12.3235 H   0  0  0  0  0  0  0  0  0  0  0  0
    2.9633    6.6518   14.9223 H   0  0  0  0  0  0  0  0  0  0  0  0
    0.8284    3.8997   10.3591 H   0  0  0  0  0  0  0  0  0  0  0  0
    0.9031    3.0139   11.6561 H   0  0  0  0  0  0  0  0  0  0  0  0
    1.7469    2.6239   10.3874 H   0  0  0  0  0  0  0  0  0  0  0  0
    5.9934    2.4512   12.7186 H   0  0  0  0  0  0  0  0  0  0  0  0
    5.9451    2.9341   14.2140 H   0  0  0  0  0  0  0  0  0  0  0  0
    6.9469    3.6026   13.2050 H   0  0  0  0  0  0  0  0  0  0  0  0
    8.8776    3.0343   10.3370 H   0  0  0  0  0  0  0  0  0  0  0  0
   10.1144    1.3426    9.2493 H   0  0  0  0  0  0  0  0  0  0  0  0
    7.0909    0.7707    6.6206 H   0  0  0  0  0  0  0  0  0  0  0  0
    5.8031    2.2860    7.7823 H   0  0  0  0  0  0  0  0  0  0  0  0
    9.1385   -0.4995    6.3640 H   0  0  0  0  0  0  0  0  0  0  0  0
    9.8322   -0.8319    7.7351 H   0  0  0  0  0  0  0  0  0  0  0  0
   10.4246    0.2897    6.8063 H   0  0  0  0  0  0  0  0  0  0  0  0
    7.5873    9.1160   10.7116 H   0  0  0  0  0  0  0  0  0  0  0  0
    8.1679    9.5747   12.0984 H   0  0  0  0  0  0  0  0  0  0  0  0
    6.6834    9.0696   11.9961 H   0  0  0  0  0  0  0  0  0  0  0  0
    7.1019    7.1977   14.0755 H   0  0  0  0  0  0  0  0  0  0  0  0
    8.4713    7.9628   14.1809 H   0  0  0  0  0  0  0  0  0  0  0  0
    8.4508    6.3918   14.1243 H   0  0  0  0  0  0  0  0  0  0  0  0
   10.1685    9.1847   11.0894 H   0  0  0  0  0  0  0  0  0  0  0  0
   12.5422    9.0584   10.9131 H   0  0  0  0  0  0  0  0  0  0  0  0
   13.6556    7.1290   11.5317 H   0  0  0  0  0  0  0  0  0  0  0  0
   12.5036    5.3017   12.3078 H   0  0  0  0  0  0  0  0  0  0  0  0
   10.1762    5.3723   12.4731 H   0  0  0  0  0  0  0  0  0  0  0  0
    7.8890    4.2897    7.3368 H   0  0  0  0  0  0  0  0  0  0  0  0
    8.4916    5.5153    6.5576 H   0  0  0  0  0  0  0  0  0  0  0  0
    7.0108    5.5673    7.0818 H   0  0  0  0  0  0  0  0  0  0  0  0
   10.6844    5.8755    9.5405 H   0  0  0  0  0  0  0  0  0  0  0  0
   10.6320    5.9591    7.9712 H   0  0  0  0  0  0  0  0  0  0  0  0
   10.3465    4.5924    8.6968 H   0  0  0  0  0  0  0  0  0  0  0  0
    6.3908    7.7808    8.5945 H   0  0  0  0  0  0  0  0  0  0  0  0
    6.0905    9.8997    7.7807 H   0  0  0  0  0  0  0  0  0  0  0  0
    7.8790   11.2181    7.2266 H   0  0  0  0  0  0  0  0  0  0  0  0
   10.0053   10.3918    7.4061 H   0  0  0  0  0  0  0  0  0  0  0  0
   10.3722    8.1337    8.0341 H   0  0  0  0  0  0  0  0  0  0  0  0
  1  2  1  0  0  0  0
  2  7  1  0  0  0  0
  3  1  1  0  0  0  0
  4  1  1  0  0  0  0
  5 21  3  0  0  0  0
  6 22  3  0  0  0  0
  7 11  1  0  0  0  0
  8  1  1  0  0  0  0
  9  2  1  0  0  0  0
 10  2  1  0  0  0  0
 11 10  1  0  0  0  0
 12  7  1  0  0  0  0
 13  8  1  0  0  0  0
 14  8  1  0  0  0  0
 15  9  1  0  0  0  0
 16 11  1  0  0  0  0
 17  2  1  0  0  0  0
 18  2  1  0  0  0  0
 19 17  1  0  0  0  0
 20 18  1  0  0  0  0
 21  2  1  0  0  0  0
 22  2  1  0  0  0  0
 23  1  1  0  0  0  0
 24 23  1  0  0  0  0
 25 24  4  0  0  0  0
 26 25  4  0  0  0  0
 27 26  4  0  0  0  0
 28 27  4  0  0  0  0
 29 24  4  0  0  0  0
 30 27  1  0  0  0  0
 31  3  1  0  0  0  0
 32  3  1  0  0  0  0
 33  3  1  0  0  0  0
 34 33  4  0  0  0  0
 35 34  4  0  0  0  0
 36 35  4  0  0  0  0
 37 36  4  0  0  0  0
 38 33  4  0  0  0  0
 39  4  1  0  0  0  0
 40  4  1  0  0  0  0
 41  4  1  0  0  0  0
 42 41  4  0  0  0  0
 43 42  4  0  0  0  0
 44 43  4  0  0  0  0
 45 44  4  0  0  0  0
 46 41  4  0  0  0  0
 47  7  1  0  0  0  0
 48  9  1  0  0  0  0
 49 10  1  0  0  0  0
 50 11  1  0  0  0  0
 51 12  1  0  0  0  0
 52 13  1  0  0  0  0
 53 14  1  0  0  0  0
 54 15  1  0  0  0  0
 55 16  1  0  0  0  0
 56 19  1  0  0  0  0
 57 19  1  0  0  0  0
 58 19  1  0  0  0  0
 59 20  1  0  0  0  0
 60 20  1  0  0  0  0
 61 20  1  0  0  0  0
 62 25  1  0  0  0  0
 63 26  1  0  0  0  0
 64 28  1  0  0  0  0
 65 29  1  0  0  0  0
 66 30  1  0  0  0  0
 67 30  1  0  0  0  0
 68 30  1  0  0  0  0
 69 31  1  0  0  0  0
 70 31  1  0  0  0  0
 71 31  1  0  0  0  0
 72 32  1  0  0  0  0
 73 32  1  0  0  0  0
 74 32  1  0  0  0  0
 75 34  1  0  0  0  0
 76 35  1  0  0  0  0
 77 36  1  0  0  0  0
 78 37  1  0  0  0  0
 79 38  1  0  0  0  0
 80 39  1  0  0  0  0
 81 39  1  0  0  0  0
 82 39  1  0  0  0  0
 83 40  1  0  0  0  0
 84 40  1  0  0  0  0
 85 40  1  0  0  0  0
 86 42  1  0  0  0  0
 87 43  1  0  0  0  0
 88 44  1  0  0  0  0
 89 45  1  0  0  0  0
 90 46  1  0  0  0  0
  2  8  1  0  0  0  0
  2 23  3  0  0  0  0
  7 17  1  0  0  0  0
  7 18  1  0  0  0  0
  8  9  1  0  0  0  0
  8 18  1  0  0  0  0
  9 10  1  0  0  0  0
  9 14  1  0  0  0  0
 10 15  1  0  0  0  0
 10 17  1  0  0  0  0
 11 12  1  0  0  0  0
 11 15  1  0  0  0  0
 11 17  1  0  0  0  0
 12 13  1  0  0  0  0
 12 16  1  0  0  0  0
 12 18  1  0  0  0  0
 13 14  1  0  0  0  0
 13 16  1  0  0  0  0
 13 18  1  0  0  0  0
 14 15  1  0  0  0  0
 14 16  1  0  0  0  0
 15 16  1  0  0  0  0
 28 29  4  0  0  0  0
 37 38  4  0  0  0  0
 45 46  4  0  0  0  0
M  END
$$$$
KEVZUG

From CSD data. Using bond type 'Any'. No disordered atoms. Largest molecule.
 88111  0  0  0  0  0  0  0  0999 V2000
    2.9028    3.8701    1.5704 Pt  0  0  0  0  0  0  0  0  0  0  0  0
    5.2754    2.7816    0.8065 W   0  0  0  0  0  0  0  0  0  0  0  0
    2.0205    5.5935    2.7582 P   0  0  0  0  0  0  0  0  0  0  0  0
    0.9651    2.5171    1.6948 P   0  0  0  0  0  0  0  0  0  0  0  0
    6.1710    2.2626   -2.1580 O   0  0  0  0  0  0  0  0  0  0  0  0
    4.9641   -0.3024    1.3319 O   0  0  0  0  0  0  0  0  0  0  0  0
    6.1507    4.9535    0.9402 B   0  0  0  0  0  0  0  0  0  0  0  0
    4.8931    4.4824    2.1672 B   0  0  0  0  0  0  0  0  0  0  0  0
    5.6107    3.1571    3.1177 B   0  0  0  0  0  0  0  0  0  0  0  0
    5.6255    4.8502    3.7583 B   0  0  0  0  0  0  0  0  0  0  0  0
    5.9488    5.9488    2.3872 B   0  0  0  0  0  0  0  0  0  0  0  0
    7.5456    5.5305    1.7651 B   0  0  0  0  0  0  0  0  0  0  0  0
    8.1931    4.2531    2.7732 B   0  0  0  0  0  0  0  0  0  0  0  0
    7.0109    3.8021    3.9530 B   0  0  0  0  0  0  0  0  0  0  0  0
    7.2406    5.4801    3.4737 B   0  0  0  0  0  0  0  0  0  0  0  0
    7.1365    2.9127    2.5025 C   0  0  0  0  0  0  0  0  0  0  0  0
    7.4551    3.8726    1.2501 C   0  0  0  0  0  0  0  0  0  0  0  0
    7.8219    1.5294    2.5750 C   0  0  0  0  0  0  0  0  0  0  0  0
    8.5043    3.4922    0.1878 C   0  0  0  0  0  0  0  0  0  0  0  0
    5.8984    2.4113   -1.0554 C   0  0  0  0  0  0  0  0  0  0  0  0
    5.0988    0.8365    1.1210 C   0  0  0  0  0  0  0  0  0  0  0  0
    3.5944    2.6582   -0.0553 C   0  0  0  0  0  0  0  0  0  0  0  0
    2.7575    2.2399   -1.1717 C   0  0  0  0  0  0  0  0  0  0  0  0
    1.8438    3.1142   -1.7420 C   0  0  0  0  0  0  0  0  0  0  0  0
    1.1060    2.7766   -2.8585 C   0  0  0  0  0  0  0  0  0  0  0  0
    1.2505    1.5344   -3.4564 C   0  0  0  0  0  0  0  0  0  0  0  0
    2.1854    0.6727   -2.9103 C   0  0  0  0  0  0  0  0  0  0  0  0
    2.9272    1.0179   -1.8043 C   0  0  0  0  0  0  0  0  0  0  0  0
    0.4234    1.1641   -4.6662 C   0  0  0  0  0  0  0  0  0  0  0  0
    1.8269    5.4197    4.5406 C   0  0  0  0  0  0  0  0  0  0  0  0
    2.7699    7.2514    2.6154 C   0  0  0  0  0  0  0  0  0  0  0  0
    0.3505    5.9891    2.1292 C   0  0  0  0  0  0  0  0  0  0  0  0
   -0.7984    5.9992    2.8850 C   0  0  0  0  0  0  0  0  0  0  0  0
   -1.9854    6.3595    2.3677 C   0  0  0  0  0  0  0  0  0  0  0  0
   -2.0828    6.7198    1.0531 C   0  0  0  0  0  0  0  0  0  0  0  0
   -0.9689    6.7450    0.2765 C   0  0  0  0  0  0  0  0  0  0  0  0
    0.2795    6.3695    0.8123 C   0  0  0  0  0  0  0  0  0  0  0  0
    1.2470    0.7584    1.3181 C   0  0  0  0  0  0  0  0  0  0  0  0
   -0.6100    2.7892    0.8330 C   0  0  0  0  0  0  0  0  0  0  0  0
    0.5289    2.4213    3.4564 C   0  0  0  0  0  0  0  0  0  0  0  0
    1.5361    2.0132    4.3459 C   0  0  0  0  0  0  0  0  0  0  0  0
    1.2602    1.9653    5.7192 C   0  0  0  0  0  0  0  0  0  0  0  0
    0.0400    2.3231    6.1962 C   0  0  0  0  0  0  0  0  0  0  0  0
   -0.9259    2.7161    5.3494 C   0  0  0  0  0  0  0  0  0  0  0  0
   -0.6920    2.7816    3.9634 C   0  0  0  0  0  0  0  0  0  0  0  0
    5.8830    5.3365   -0.0588 H   0  0  0  0  0  0  0  0  0  0  0  0
    4.9978    2.3558    3.5509 H   0  0  0  0  0  0  0  0  0  0  0  0
    5.0054    5.1677    4.6178 H   0  0  0  0  0  0  0  0  0  0  0  0
    5.5543    6.9793    2.3354 H   0  0  0  0  0  0  0  0  0  0  0  0
    8.1920    6.2864    1.2996 H   0  0  0  0  0  0  0  0  0  0  0  0
    9.2650    4.1674    2.9748 H   0  0  0  0  0  0  0  0  0  0  0  0
    7.3103    3.4166    4.9392 H   0  0  0  0  0  0  0  0  0  0  0  0
    7.6846    6.2209    4.1592 H   0  0  0  0  0  0  0  0  0  0  0  0
    7.5366    1.0759    3.3712 H   0  0  0  0  0  0  0  0  0  0  0  0
    8.7747    1.6428    2.5958 H   0  0  0  0  0  0  0  0  0  0  0  0
    7.5785    1.0104    1.8054 H   0  0  0  0  0  0  0  0  0  0  0  0
    8.0634    3.2906   -0.6406 H   0  0  0  0  0  0  0  0  0  0  0  0
    9.0001    2.7262    0.4816 H   0  0  0  0  0  0  0  0  0  0  0  0
    9.1038    4.2304    0.0588 H   0  0  0  0  0  0  0  0  0  0  0  0
    1.7197    3.9810   -1.3469 H   0  0  0  0  0  0  0  0  0  0  0  0
    0.4849    3.4115   -3.2249 H   0  0  0  0  0  0  0  0  0  0  0  0
    2.3233   -0.1865   -3.3136 H   0  0  0  0  0  0  0  0  0  0  0  0
    3.5691    0.3956   -1.4575 H   0  0  0  0  0  0  0  0  0  0  0  0
    0.6495    0.2772   -4.9519 H   0  0  0  0  0  0  0  0  0  0  0  0
    0.5982    1.7839   -5.3794 H   0  0  0  0  0  0  0  0  0  0  0  0
   -0.5075    1.1993   -4.4335 H   0  0  0  0  0  0  0  0  0  0  0  0
    1.4321    4.5680    4.7376 H   0  0  0  0  0  0  0  0  0  0  0  0
    1.2605    6.1201    4.8724 H   0  0  0  0  0  0  0  0  0  0  0  0
    2.6874    5.4776    4.9611 H   0  0  0  0  0  0  0  0  0  0  0  0
    3.6811    7.2161    2.9161 H   0  0  0  0  0  0  0  0  0  0  0  0
    2.2787    7.8738    3.1557 H   0  0  0  0  0  0  0  0  0  0  0  0
    2.7472    7.5336    1.6983 H   0  0  0  0  0  0  0  0  0  0  0  0
   -0.7538    5.7371    3.8078 H   0  0  0  0  0  0  0  0  0  0  0  0
   -2.7650    6.3695    2.9264 H   0  0  0  0  0  0  0  0  0  0  0  0
   -2.9375    6.9491    0.6809 H   0  0  0  0  0  0  0  0  0  0  0  0
   -1.0314    7.0171   -0.6417 H   0  0  0  0  0  0  0  0  0  0  0  0
    1.0681    6.3821    0.2650 H   0  0  0  0  0  0  0  0  0  0  0  0
    2.0685    0.4686    1.7213 H   0  0  0  0  0  0  0  0  0  0  0  0
    1.2990    0.6425    0.3664 H   0  0  0  0  0  0  0  0  0  0  0  0
    0.5200    0.2343    1.6637 H   0  0  0  0  0  0  0  0  0  0  0  0
   -0.8908    3.6988    0.9517 H   0  0  0  0  0  0  0  0  0  0  0  0
   -1.2762    2.1996    1.1948 H   0  0  0  0  0  0  0  0  0  0  0  0
   -0.4972    2.6078   -0.1025 H   0  0  0  0  0  0  0  0  0  0  0  0
    2.4058    1.7738    4.0164 H   0  0  0  0  0  0  0  0  0  0  0  0
    1.9429    1.6781    6.3299 H   0  0  0  0  0  0  0  0  0  0  0  0
   -0.1363    2.2878    7.1398 H   0  0  0  0  0  0  0  0  0  0  0  0
   -1.7874    2.9605    5.6962 H   0  0  0  0  0  0  0  0  0  0  0  0
   -1.3889    3.0790    3.3723 H   0  0  0  0  0  0  0  0  0  0  0  0
  1  2  1  0  0  0  0
  2  7  1  0  0  0  0
  3  1  1  0  0  0  0
  4  1  1  0  0  0  0
  5 20  3  0  0  0  0
  6 21  3  0  0  0  0
  7  8  1  0  0  0  0
  8  1  1  0  0  0  0
  9  2  1  0  0  0  0
 10  8  1  0  0  0  0
 11  7  1  0  0  0  0
 12  7  1  0  0  0  0
 13 12  1  0  0  0  0
 14  9  1  0  0  0  0
 15 10  1  0  0  0  0
 16  2  1  0  0  0  0
 17  2  1  0  0  0  0
 18 16  1  0  0  0  0
 19 17  1  0  0  0  0
 20  2  1  0  0  0  0
 21  2  1  0  0  0  0
 22  1  1  0  0  0  0
 23 22  1  0  0  0  0
 24 23  4  0  0  0  0
 25 24  4  0  0  0  0
 26 25  4  0  0  0  0
 27 26  4  0  0  0  0
 28 23  4  0  0  0  0
 29 26  1  0  0  0  0
 30  3  1  0  0  0  0
 31  3  1  0  0  0  0
 32  3  1  0  0  0  0
 33 32  4  0  0  0  0
 34 33  4  0  0  0  0
 35 34  4  0  0  0  0
 36 35  4  0  0  0  0
 37 32  4  0  0  0  0
 38  4  1  0  0  0  0
 39  4  1  0  0  0  0
 40  4  1  0  0  0  0
 41 40  4  0  0  0  0
 42 41  4  0  0  0  0
 43 42  4  0  0  0  0
 44 43  4  0  0  0  0
 45 40  4  0  0  0  0
 46  7  1  0  0  0  0
 47  9  1  0  0  0  0
 48 10  1  0  0  0  0
 49 11  1  0  0  0  0
 50 12  1  0  0  0  0
 51 13  1  0  0  0  0
 52 14  1  0  0  0  0
 53 15  1  0  0  0  0
 54 18  1  0  0  0  0
 55 18  1  0  0  0  0
 56 18  1  0  0  0  0
 57 19  1  0  0  0  0
 58 19  1  0  0  0  0
 59 19  1  0  0  0  0
 60 24  1  0  0  0  0
 61 25  1  0  0  0  0
 62 27  1  0  0  0  0
 63 28  1  0  0  0  0
 64 29  1  0  0  0  0
 65 29  1  0  0  0  0
 66 29  1  0  0  0  0
 67 30  1  0  0  0  0
 68 30  1  0  0  0  0
 69 30  1  0  0  0  0
 70 31  1  0  0  0  0
 71 31  1  0  0  0  0
 72 31  1  0  0  0  0
 73 33  1  0  0  0  0
 74 34  1  0  0  0  0
 75 35  1  0  0  0  0
 76 36  1  0  0  0  0
 77 37  1  0  0  0  0
 78 38  1  0  0  0  0
 79 38  1  0  0  0  0
 80 38  1  0  0  0  0
 81 39  1  0  0  0  0
 82 39  1  0  0  0  0
 83 39  1  0  0  0  0
 84 41  1  0  0  0  0
 85 42  1  0  0  0  0
 86 43  1  0  0  0  0
 87 44  1  0  0  0  0
 88 45  1  0  0  0  0
  2  8  1  0  0  0  0
  2 22  3  0  0  0  0
  7 17  1  0  0  0  0
  8  9  1  0  0  0  0
  8 11  1  0  0  0  0
  9 10  1  0  0  0  0
  9 16  1  0  0  0  0
 10 11  1  0  0  0  0
 10 14  1  0  0  0  0
 11 12  1  0  0  0  0
 11 15  1  0  0  0  0
 12 15  1  0  0  0  0
 12 17  1  0  0  0  0
 13 14  1  0  0  0  0
 13 15  1  0  0  0  0
 13 16  1  0  0  0  0
 13 17  1  0  0  0  0
 14 15  1  0  0  0  0
 14 16  1  0  0  0  0
 16 17  1  0  0  0  0
 27 28  4  0  0  0  0
 36 37  4  0  0  0  0
 44 45  4  0  0  0  0
M  END
$$$$
KIFVOK

From CSD data. Using bond type 'Any'. Matching problem. Disorder unknown. Sizes unknown.
  0  0  0  0  0  0  0  0  0  0999 V2000
M  END
$$$$
KIHWUU

From CSD data. Using bond type 'Any'. No disordered atoms. Largest molecule.
 66 83  0  0  0  0  0  0  0  0999 V2000
    3.7101    3.9986    3.7727 P   0  0  0  0  0  0  0  0  0  0  0  0
    6.6397    4.2501    1.9915 P   0  0  0  0  0  0  0  0  0  0  0  0
    1.9946    3.5496    4.1598 C   0  0  0  0  0  0  0  0  0  0  0  0
    1.7910    2.6743    3.7704 H   0  0  0  0  0  0  0  0  0  0  0  0
    1.3895    4.2223    3.7848 H   0  0  0  0  0  0  0  0  0  0  0  0
    1.8798    3.5110    5.1316 H   0  0  0  0  0  0  0  0  0  0  0  0
    3.8732    5.5815    4.6273 C   0  0  0  0  0  0  0  0  0  0  0  0
    3.5043    5.5044    5.5308 H   0  0  0  0  0  0  0  0  0  0  0  0
    3.3838    6.2722    4.1327 H   0  0  0  0  0  0  0  0  0  0  0  0
    4.8202    5.8283    4.6813 H   0  0  0  0  0  0  0  0  0  0  0  0
    7.6054    2.7446    2.2946 C   0  0  0  0  0  0  0  0  0  0  0  0
    8.5571    2.9734    2.3581 H   0  0  0  0  0  0  0  0  0  0  0  0
    7.4692    2.1146    1.5557 H   0  0  0  0  0  0  0  0  0  0  0  0
    7.3124    2.3324    3.1338 H   0  0  0  0  0  0  0  0  0  0  0  0
    7.5054    5.0246    0.5850 C   0  0  0  0  0  0  0  0  0  0  0  0
    8.4277    5.2314    0.8433 H   0  0  0  0  0  0  0  0  0  0  0  0
    7.0450    5.8504    0.3316 H   0  0  0  0  0  0  0  0  0  0  0  0
    7.5106    4.4071   -0.1760 H   0  0  0  0  0  0  0  0  0  0  0  0
    3.6652    5.7483    0.1883 H   0  0  0  0  0  0  0  0  0  0  0  0
    4.6620    2.7832    4.7368 C   0  0  0  0  0  0  0  0  0  0  0  0
    5.2142    3.0644    5.9737 C   0  0  0  0  0  0  0  0  0  0  0  0
    5.0984    3.9260    6.3557 H   0  0  0  0  0  0  0  0  0  0  0  0
    5.9357    2.0926    6.6627 C   0  0  0  0  0  0  0  0  0  0  0  0
    6.3224    2.2966    7.5061 H   0  0  0  0  0  0  0  0  0  0  0  0
    6.0882    0.8436    6.1223 C   0  0  0  0  0  0  0  0  0  0  0  0
    6.5814    0.1833    6.5952 H   0  0  0  0  0  0  0  0  0  0  0  0
    5.5314    0.5349    4.8962 C   0  0  0  0  0  0  0  0  0  0  0  0
    5.6317   -0.3364    4.5298 H   0  0  0  0  0  0  0  0  0  0  0  0
    4.8235    1.5122    4.2023 C   0  0  0  0  0  0  0  0  0  0  0  0
    4.4466    1.3068    3.3549 H   0  0  0  0  0  0  0  0  0  0  0  0
    7.0434    5.3913    3.3584 C   0  0  0  0  0  0  0  0  0  0  0  0
    6.8052    6.7533    3.1592 C   0  0  0  0  0  0  0  0  0  0  0  0
    6.5221    7.0621    2.3069 H   0  0  0  0  0  0  0  0  0  0  0  0
    6.9767    7.6576    4.1925 C   0  0  0  0  0  0  0  0  0  0  0  0
    6.8370    8.5839    4.0427 H   0  0  0  0  0  0  0  0  0  0  0  0
    7.3542    7.2082    5.4436 C   0  0  0  0  0  0  0  0  0  0  0  0
    7.4324    7.8216    6.1653 H   0  0  0  0  0  0  0  0  0  0  0  0
    7.6143    5.8641    5.6448 C   0  0  0  0  0  0  0  0  0  0  0  0
    7.8894    5.5609    6.5010 H   0  0  0  0  0  0  0  0  0  0  0  0
    7.4781    4.9571    4.6035 C   0  0  0  0  0  0  0  0  0  0  0  0
    7.6823    4.0390    4.7427 H   0  0  0  0  0  0  0  0  0  0  0  0
    2.2588    2.8756   -0.9191 B   0  0  0  0  0  0  0  0  0  0  0  0
    1.5132    2.1229   -1.2814 H   0  0  0  0  0  0  0  0  0  0  0  0
    2.3158    3.3153    0.8024 B   0  0  0  0  0  0  0  0  0  0  0  0
    1.6817    2.7997    1.5659 H   0  0  0  0  0  0  0  0  0  0  0  0
    3.6885    2.3641   -0.0287 B   0  0  0  0  0  0  0  0  0  0  0  0
    3.8857    1.2875    0.2088 H   0  0  0  0  0  0  0  0  0  0  0  0
    3.8377    2.9776   -1.6682 B   0  0  0  0  0  0  0  0  0  0  0  0
    4.0891    2.3421   -2.5566 H   0  0  0  0  0  0  0  0  0  0  0  0
    2.7922    4.3547   -1.8259 B   0  0  0  0  0  0  0  0  0  0  0  0
    2.4638    4.6359   -2.8575 H   0  0  0  0  0  0  0  0  0  0  0  0
    1.6796    4.4622   -0.4073 B   0  0  0  0  0  0  0  0  0  0  0  0
    0.5898    4.6993   -0.5097 H   0  0  0  0  0  0  0  0  0  0  0  0
    4.3568    3.8492    1.5998 Pt  0  0  0  0  0  0  0  0  0  0  0  0
    4.8871    3.4090   -0.4462 C   0  0  0  0  0  0  0  0  0  0  0  0
    5.8311    3.0603   -0.5322 H   0  0  0  0  0  0  0  0  0  0  0  0
    4.4572    4.6428   -1.3448 B   0  0  0  0  0  0  0  0  0  0  0  0
    5.2401    5.1969   -1.9487 H   0  0  0  0  0  0  0  0  0  0  0  0
    2.9413    5.6932   -0.6960 B   0  0  0  0  0  0  0  0  0  0  0  0
    2.7977    6.6719   -1.1053 H   0  0  0  0  0  0  0  0  0  0  0  0
    2.0586    5.9227    1.9755 O   0  0  0  0  0  0  0  0  0  0  0  0
    1.9669    7.3364    1.7481 C   0  0  0  0  0  0  0  0  0  0  0  0
    2.8133    7.6631    1.3755 H   0  0  0  0  0  0  0  0  0  0  0  0
    1.7863    7.7927    2.5955 H   0  0  0  0  0  0  0  0  0  0  0  0
    1.2406    7.5197    1.1176 H   0  0  0  0  0  0  0  0  0  0  0  0
    2.5218    5.1101    0.9682 B   0  0  0  0  0  0  0  0  0  0  0  0
  1  3  1  0  0  0  0
  2 11  1  0  0  0  0
  3  4  1  0  0  0  0
  5  3  1  0  0  0  0
  6  3  1  0  0  0  0
  7  1  1  0  0  0  0
  8  7  1  0  0  0  0
  9  7  1  0  0  0  0
 10  7  1  0  0  0  0
 11 12  1  0  0  0  0
 13 11  1  0  0  0  0
 14 11  1  0  0  0  0
 15  2  1  0  0  0  0
 16 15  1  0  0  0  0
 17 15  1  0  0  0  0
 18 15  1  0  0  0  0
 19 59  1  0  0  0  0
 20  1  1  0  0  0  0
 21 20  4  0  0  0  0
 22 21  1  0  0  0  0
 23 21  4  0  0  0  0
 24 23  1  0  0  0  0
 25 23  4  0  0  0  0
 26 25  1  0  0  0  0
 27 25  4  0  0  0  0
 28 27  1  0  0  0  0
 29 20  4  0  0  0  0
 30 29  1  0  0  0  0
 31  2  1  0  0  0  0
 32 31  4  0  0  0  0
 33 32  1  0  0  0  0
 34 32  4  0  0  0  0
 35 34  1  0  0  0  0
 36 34  4  0  0  0  0
 37 36  1  0  0  0  0
 38 36  4  0  0  0  0
 39 38  1  0  0  0  0
 40 31  4  0  0  0  0
 41 40  1  0  0  0  0
 42 43  1  0  0  0  0
 44 42  1  0  0  0  0
 45 44  1  0  0  0  0
 46 42  1  0  0  0  0
 47 46  1  0  0  0  0
 48 42  1  0  0  0  0
 49 48  1  0  0  0  0
 50 42  1  0  0  0  0
 51 50  1  0  0  0  0
 52 42  1  0  0  0  0
 53 52  1  0  0  0  0
 54  1  1  0  0  0  0
 55 46  1  0  0  0  0
 56 55  1  0  0  0  0
 57 48  1  0  0  0  0
 58 57  1  0  0  0  0
 59 50  1  0  0  0  0
 60 59  1  0  0  0  0
 61 62  1  0  0  0  0
 62 63  1  0  0  0  0
 64 62  1  0  0  0  0
 65 62  1  0  0  0  0
 66 19  1  0  0  0  0
  2 54  1  0  0  0  0
 27 29  4  0  0  0  0
 38 40  4  0  0  0  0
 44 46  1  0  0  0  0
 44 52  1  0  0  0  0
 44 54  1  0  0  0  0
 44 66  1  0  0  0  0
 46 48  1  0  0  0  0
 46 54  1  0  0  0  0
 48 50  1  0  0  0  0
 48 55  1  0  0  0  0
 50 52  1  0  0  0  0
 50 57  1  0  0  0  0
 52 59  1  0  0  0  0
 52 66  1  0  0  0  0
 54 55  1  0  0  0  0
 54 66  1  0  0  0  0
 55 57  1  0  0  0  0
 57 59  1  0  0  0  0
 59 66  1  0  0  0  0
 61 66  1  0  0  0  0
M  END
$$$$
KIKTEF

From CSD data. Using bond type 'Any'. No disordered atoms. Largest molecule.
 99126  0  0  0  0  0  0  0  0999 V2000
    1.4069  -16.3591    5.8448 Pd  0  0  0  0  0  0  0  0  0  0  0  0
    0.2488  -18.0656    4.7448 Ge  0  5  0  0  0  0  0  0  0  0  0  0
    3.5084  -15.7363    6.9873 Cl  0  0  0  0  0  0  0  0  0  0  0  0
    2.2059  -15.2824    4.0035 P   0  0  0  0  0  0  0  0  0  0  0  0
    0.3637  -16.6219    7.8452 P   0  0  0  0  0  0  0  0  0  0  0  0
    1.0961  -13.9945    6.5196 O   0  0  0  0  0  0  0  0  0  0  0  0
    2.4125  -13.5526    4.5873 C   0  0  0  0  0  0  0  0  0  0  0  0
    3.1114  -12.6445    3.7956 C   0  0  0  0  0  0  0  0  0  0  0  0
    3.4315  -12.9073    2.9615 H   0  0  0  0  0  0  0  0  0  0  0  0
    3.3306  -11.3568    4.2402 C   0  0  0  0  0  0  0  0  0  0  0  0
    3.7809  -10.7456    3.7046 H   0  0  0  0  0  0  0  0  0  0  0  0
    2.8737  -10.9798    5.4976 C   0  0  0  0  0  0  0  0  0  0  0  0
    3.0593  -10.1226    5.8024 H   0  0  0  0  0  0  0  0  0  0  0  0
    2.1509  -11.8400    6.3147 C   0  0  0  0  0  0  0  0  0  0  0  0
    1.9035  -13.1169    5.8151 C   0  0  0  0  0  0  0  0  0  0  0  0
    0.9778  -13.8509    7.8992 C   0  0  0  0  0  0  0  0  0  0  0  0
    1.1677  -12.6054    8.4909 C   0  0  0  0  0  0  0  0  0  0  0  0
    0.9029  -12.4904    9.8563 C   0  0  0  0  0  0  0  0  0  0  0  0
    1.0201  -11.6683   10.2775 H   0  0  0  0  0  0  0  0  0  0  0  0
    0.4666  -13.5889   10.5951 C   0  0  0  0  0  0  0  0  0  0  0  0
    0.2605  -13.4882   11.4969 H   0  0  0  0  0  0  0  0  0  0  0  0
    0.3386  -14.8276    9.9918 C   0  0  0  0  0  0  0  0  0  0  0  0
    0.0705  -15.5633   10.4935 H   0  0  0  0  0  0  0  0  0  0  0  0
    0.6121  -14.9766    8.6310 C   0  0  0  0  0  0  0  0  0  0  0  0
    1.6083  -11.3920    7.6611 C   0  0  0  0  0  0  0  0  0  0  0  0
    2.6957  -10.6121    8.4231 C   0  0  0  0  0  0  0  0  0  0  0  0
    2.3506  -10.3287    9.2741 H   0  0  0  0  0  0  0  0  0  0  0  0
    2.9551   -9.8415    7.9109 H   0  0  0  0  0  0  0  0  0  0  0  0
    3.4586  -11.1765    8.5586 H   0  0  0  0  0  0  0  0  0  0  0  0
    0.3777  -10.4903    7.4197 C   0  0  0  0  0  0  0  0  0  0  0  0
   -0.0054  -10.2397    8.2644 H   0  0  0  0  0  0  0  0  0  0  0  0
   -0.2735  -10.9704    6.9032 H   0  0  0  0  0  0  0  0  0  0  0  0
    0.6479   -9.7010    6.9455 H   0  0  0  0  0  0  0  0  0  0  0  0
    1.1569  -15.0527    2.5255 C   0  0  0  0  0  0  0  0  0  0  0  0
   -0.2051  -15.0131    2.7012 C   0  0  0  0  0  0  0  0  0  0  0  0
   -0.5708  -15.1089    3.5522 H   0  0  0  0  0  0  0  0  0  0  0  0
   -1.0342  -14.8278    1.5940 C   0  0  0  0  0  0  0  0  0  0  0  0
   -1.9556  -14.7716    1.7083 H   0  0  0  0  0  0  0  0  0  0  0  0
   -0.4884  -14.7271    0.3324 C   0  0  0  0  0  0  0  0  0  0  0  0
   -1.0494  -14.6334   -0.4043 H   0  0  0  0  0  0  0  0  0  0  0  0
    0.8704  -14.7623    0.1503 C   0  0  0  0  0  0  0  0  0  0  0  0
    1.2274  -14.6850   -0.7049 H   0  0  0  0  0  0  0  0  0  0  0  0
    1.7092  -14.9075    1.2426 C   0  0  0  0  0  0  0  0  0  0  0  0
    2.6328  -14.9122    1.1283 H   0  0  0  0  0  0  0  0  0  0  0  0
    3.8081  -15.8408    3.3680 C   0  0  0  0  0  0  0  0  0  0  0  0
    3.7940  -16.9894    2.5699 C   0  0  0  0  0  0  0  0  0  0  0  0
    2.9822  -17.3807    2.3413 H   0  0  0  0  0  0  0  0  0  0  0  0
    4.9714  -17.5447    2.1233 C   0  0  0  0  0  0  0  0  0  0  0  0
    4.9584  -18.3152    1.6025 H   0  0  0  0  0  0  0  0  0  0  0  0
    6.1782  -16.9451    2.4556 C   0  0  0  0  0  0  0  0  0  0  0  0
    6.9748  -17.3034    2.1360 H   0  0  0  0  0  0  0  0  0  0  0  0
    6.2010  -15.8349    3.2494 C   0  0  0  0  0  0  0  0  0  0  0  0
    7.0182  -15.4532    3.4781 H   0  0  0  0  0  0  0  0  0  0  0  0
    5.0192  -15.2635    3.7279 C   0  0  0  0  0  0  0  0  0  0  0  0
    5.0420  -14.5117    4.2761 H   0  0  0  0  0  0  0  0  0  0  0  0
   -1.4412  -16.7999    7.9807 C   0  0  0  0  0  0  0  0  0  0  0  0
   -2.0381  -17.2407    9.1641 C   0  0  0  0  0  0  0  0  0  0  0  0
   -1.5096  -17.5119    9.8796 H   0  0  0  0  0  0  0  0  0  0  0  0
   -3.4261  -17.2753    9.2678 C   0  0  0  0  0  0  0  0  0  0  0  0
   -3.8244  -17.5681   10.0553 H   0  0  0  0  0  0  0  0  0  0  0  0
   -4.2085  -16.8795    8.2178 C   0  0  0  0  0  0  0  0  0  0  0  0
   -5.1342  -16.9029    8.2940 H   0  0  0  0  0  0  0  0  0  0  0  0
   -3.6247  -16.4434    7.0408 C   0  0  0  0  0  0  0  0  0  0  0  0
   -4.1640  -16.1816    6.3295 H   0  0  0  0  0  0  0  0  0  0  0  0
   -2.2464  -16.3926    6.9117 C   0  0  0  0  0  0  0  0  0  0  0  0
   -1.8601  -16.0902    6.1221 H   0  0  0  0  0  0  0  0  0  0  0  0
    1.0711  -17.8763    8.9376 C   0  0  0  0  0  0  0  0  0  0  0  0
    2.2594  -17.6419    9.6277 C   0  0  0  0  0  0  0  0  0  0  0  0
    2.6360  -16.7905    9.6234 H   0  0  0  0  0  0  0  0  0  0  0  0
    2.8824  -18.6665   10.3178 C   0  0  0  0  0  0  0  0  0  0  0  0
    3.6768  -18.5096   10.7771 H   0  0  0  0  0  0  0  0  0  0  0  0
    2.3083  -19.9336   10.3178 C   0  0  0  0  0  0  0  0  0  0  0  0
    2.7011  -20.6152   10.8110 H   0  0  0  0  0  0  0  0  0  0  0  0
    1.1731  -20.1866    9.6001 C   0  0  0  0  0  0  0  0  0  0  0  0
    0.8248  -21.0485    9.5747 H   0  0  0  0  0  0  0  0  0  0  0  0
    0.5383  -19.1689    8.9079 C   0  0  0  0  0  0  0  0  0  0  0  0
   -0.2377  -19.3434    8.4274 H   0  0  0  0  0  0  0  0  0  0  0  0
   -1.5540  -18.3152    3.6665 B   0  0  0  0  0  0  0  0  0  0  0  0
   -2.1715  -17.4088    3.5987 H   0  0  0  0  0  0  0  0  0  0  0  0
    0.0098  -18.5377    2.6758 B   0  0  0  0  0  0  0  0  0  0  0  0
    0.3809  -17.7765    1.9730 H   0  0  0  0  0  0  0  0  0  0  0  0
    1.1590  -19.6591    3.6474 B   0  0  0  0  0  0  0  0  0  0  0  0
    2.2551  -19.6010    3.5627 H   0  0  0  0  0  0  0  0  0  0  0  0
    0.2735  -20.1421    5.2330 B   0  0  0  0  0  0  0  0  0  0  0  0
    0.8150  -20.3927    6.1559 H   0  0  0  0  0  0  0  0  0  0  0  0
   -1.3913  -19.3247    5.2457 B   0  0  0  0  0  0  0  0  0  0  0  0
   -1.9089  -19.0600    6.1792 H   0  0  0  0  0  0  0  0  0  0  0  0
   -1.4466  -19.4629    2.3244 B   0  0  0  0  0  0  0  0  0  0  0  0
   -2.0044  -19.2708    1.3950 H   0  0  0  0  0  0  0  0  0  0  0  0
    0.1617  -20.2756    2.3201 B   0  0  0  0  0  0  0  0  0  0  0  0
    0.6446  -20.6081    1.3908 H   0  0  0  0  0  0  0  0  0  0  0  0
    0.3104  -21.2124    3.8295 B   0  0  0  0  0  0  0  0  0  0  0  0
    0.8866  -22.1469    3.8739 H   0  0  0  0  0  0  0  0  0  0  0  0
   -1.1948  -21.0016    4.7546 B   0  0  0  0  0  0  0  0  0  0  0  0
   -1.5953  -21.8026    5.3917 H   0  0  0  0  0  0  0  0  0  0  0  0
   -2.2833  -19.9242    3.8316 B   0  0  0  0  0  0  0  0  0  0  0  0
   -3.3783  -20.0273    3.8718 H   0  0  0  0  0  0  0  0  0  0  0  0
   -1.2372  -21.1047    2.9954 B   0  0  0  0  0  0  0  0  0  0  0  0
   -1.6626  -21.9806    2.4874 H   0  0  0  0  0  0  0  0  0  0  0  0
  1  2  1  0  0  0  0
  2 78  1  0  0  0  0
  3  1  1  0  0  0  0
  4  1  1  0  0  0  0
  5  1  1  0  0  0  0
  6  1  1  0  0  0  0
  7  4  1  0  0  0  0
  8  7  4  0  0  0  0
  9  8  1  0  0  0  0
 10  8  4  0  0  0  0
 11 10  1  0  0  0  0
 12 10  4  0  0  0  0
 13 12  1  0  0  0  0
 14 12  4  0  0  0  0
 15  6  1  0  0  0  0
 16  6  1  0  0  0  0
 17 16  4  0  0  0  0
 18 17  4  0  0  0  0
 19 18  1  0  0  0  0
 20 18  4  0  0  0  0
 21 20  1  0  0  0  0
 22 20  4  0  0  0  0
 23 22  1  0  0  0  0
 24  5  1  0  0  0  0
 25 14  1  0  0  0  0
 26 25  1  0  0  0  0
 27 26  1  0  0  0  0
 28 26  1  0  0  0  0
 29 26  1  0  0  0  0
 30 25  1  0  0  0  0
 31 30  1  0  0  0  0
 32 30  1  0  0  0  0
 33 30  1  0  0  0  0
 34  4  1  0  0  0  0
 35 34  4  0  0  0  0
 36 35  1  0  0  0  0
 37 35  4  0  0  0  0
 38 37  1  0  0  0  0
 39 37  4  0  0  0  0
 40 39  1  0  0  0  0
 41 39  4  0  0  0  0
 42 41  1  0  0  0  0
 43 34  4  0  0  0  0
 44 43  1  0  0  0  0
 45  4  1  0  0  0  0
 46 45  4  0  0  0  0
 47 46  1  0  0  0  0
 48 46  4  0  0  0  0
 49 48  1  0  0  0  0
 50 48  4  0  0  0  0
 51 50  1  0  0  0  0
 52 50  4  0  0  0  0
 53 52  1  0  0  0  0
 54 45  4  0  0  0  0
 55 54  1  0  0  0  0
 56  5  1  0  0  0  0
 57 56  4  0  0  0  0
 58 57  1  0  0  0  0
 59 57  4  0  0  0  0
 60 59  1  0  0  0  0
 61 59  4  0  0  0  0
 62 61  1  0  0  0  0
 63 61  4  0  0  0  0
 64 63  1  0  0  0  0
 65 56  4  0  0  0  0
 66 65  1  0  0  0  0
 67  5  1  0  0  0  0
 68 67  4  0  0  0  0
 69 68  1  0  0  0  0
 70 68  4  0  0  0  0
 71 70  1  0  0  0  0
 72 70  4  0  0  0  0
 73 72  1  0  0  0  0
 74 72  4  0  0  0  0
 75 74  1  0  0  0  0
 76 67  4  0  0  0  0
 77 76  1  0  0  0  0
 78 79  1  0  0  0  0
 80  2  1  0  0  0  0
 81 80  1  0  0  0  0
 82  2  1  0  0  0  0
 83 82  1  0  0  0  0
 84  2  1  0  0  0  0
 85 84  1  0  0  0  0
 86  2  1  0  0  0  0
 87 86  1  0  0  0  0
 88 78  1  0  0  0  0
 89 88  1  0  0  0  0
 90 80  1  0  0  0  0
 91 90  1  0  0  0  0
 92 82  1  0  0  0  0
 93 92  1  0  0  0  0
 94 84  1  0  0  0  0
 95 94  1  0  0  0  0
 96 78  1  0  0  0  0
 97 96  1  0  0  0  0
 98 88  1  0  0  0  0
 99 98  1  0  0  0  0
  7 15  4  0  0  0  0
 14 15  4  0  0  0  0
 16 24  4  0  0  0  0
 17 25  1  0  0  0  0
 22 24  4  0  0  0  0
 41 43  4  0  0  0  0
 52 54  4  0  0  0  0
 63 65  4  0  0  0  0
 74 76  4  0  0  0  0
 78 80  1  0  0  0  0
 78 86  1  0  0  0  0
 80 82  1  0  0  0  0
 80 88  1  0  0  0  0
 82 84  1  0  0  0  0
 82 90  1  0  0  0  0
 84 86  1  0  0  0  0
 84 92  1  0  0  0  0
 86 94  1  0  0  0  0
 86 96  1  0  0  0  0
 88 90  1  0  0  0  0
 88 96  1  0  0  0  0
 90 92  1  0  0  0  0
 90 98  1  0  0  0  0
 92 94  1  0  0  0  0
 92 98  1  0  0  0  0
 94 96  1  0  0  0  0
 94 98  1  0  0  0  0
 96 98  1  0  0  0  0
M  CHG  1   2  -1
M  END
$$$$
KIKTIJ

From CSD data. Using bond type 'Any'. No disordered atoms. Largest molecule.
 98125  0  0  0  0  0  0  0  0999 V2000
    4.5563    9.1414    7.2568 B   0  0  0  0  0  0  0  0  0  0  0  0
    5.2287    8.4779    7.8200 H   0  0  0  0  0  0  0  0  0  0  0  0
    2.9459    8.5270    6.4940 B   0  0  0  0  0  0  0  0  0  0  0  0
    2.6037    7.4858    6.5783 H   0  0  0  0  0  0  0  0  0  0  0  0
    4.3640   10.9564    7.6711 B   0  0  0  0  0  0  0  0  0  0  0  0
    4.9086   11.4384    8.4971 H   0  0  0  0  0  0  0  0  0  0  0  0
    2.0928    9.1026   10.3870 Pd  0  0  0  0  0  0  0  0  0  0  0  0
    2.7682    9.6834    8.2357 Ge  0  0  0  0  0  0  0  0  0  0  0  0
    3.5535    7.3636   10.6359 P   0  0  0  0  0  0  0  0  0  0  0  0
    0.4822   10.7063   10.5458 P   0  0  0  0  0  0  0  0  0  0  0  0
    1.5762    8.6692   12.4191 O   0  0  0  0  0  0  0  0  0  0  0  0
    0.4707    9.3241   12.9950 C   0  0  0  0  0  0  0  0  0  0  0  0
    4.3613    8.9942    5.4981 B   0  0  0  0  0  0  0  0  0  0  0  0
    4.9128    8.2167    4.9502 H   0  0  0  0  0  0  0  0  0  0  0  0
    2.9665    6.7438   12.2435 C   0  0  0  0  0  0  0  0  0  0  0  0
    5.1869   10.4119    6.2046 B   0  0  0  0  0  0  0  0  0  0  0  0
    6.2743   10.5505    6.1147 H   0  0  0  0  0  0  0  0  0  0  0  0
    1.6957    7.1473   14.3140 C   0  0  0  0  0  0  0  0  0  0  0  0
    2.5284   11.2250    5.3997 B   0  0  0  0  0  0  0  0  0  0  0  0
    1.8959   11.8897    4.7929 H   0  0  0  0  0  0  0  0  0  0  0  0
    2.0627    7.4956   13.0133 C   0  0  0  0  0  0  0  0  0  0  0  0
    5.2916    7.7715   10.9301 C   0  0  0  0  0  0  0  0  0  0  0  0
    0.0976    9.0678   14.3098 C   0  0  0  0  0  0  0  0  0  0  0  0
    0.8549    8.0707   15.1751 C   0  0  0  0  0  0  0  0  0  0  0  0
   -0.9406   10.7504    9.4298 C   0  0  0  0  0  0  0  0  0  0  0  0
   -1.2627   10.9527   12.7450 C   0  0  0  0  0  0  0  0  0  0  0  0
   -1.7413   11.5573   12.2252 H   0  0  0  0  0  0  0  0  0  0  0  0
   -1.6406   10.7320   14.0485 C   0  0  0  0  0  0  0  0  0  0  0  0
   -2.3532   11.2078   14.4110 H   0  0  0  0  0  0  0  0  0  0  0  0
    3.0614    5.1581   14.0584 C   0  0  0  0  0  0  0  0  0  0  0  0
    3.3707    4.3524   14.4053 H   0  0  0  0  0  0  0  0  0  0  0  0
    2.2235    5.9516   14.8099 C   0  0  0  0  0  0  0  0  0  0  0  0
    2.0019    5.6842   15.6738 H   0  0  0  0  0  0  0  0  0  0  0  0
   -0.1696   10.2794   12.1943 C   0  0  0  0  0  0  0  0  0  0  0  0
    6.9492    9.5264   11.1548 C   0  0  0  0  0  0  0  0  0  0  0  0
    7.1913   10.4217   11.0832 H   0  0  0  0  0  0  0  0  0  0  0  0
    2.1303   14.9212   11.0368 C   0  0  0  0  0  0  0  0  0  0  0  0
    2.4745   15.7773   11.1562 H   0  0  0  0  0  0  0  0  0  0  0  0
    2.8804    3.8165    7.7891 C   0  0  0  0  0  0  0  0  0  0  0  0
    2.7165    3.0843    7.2399 H   0  0  0  0  0  0  0  0  0  0  0  0
    1.0934   12.3900   10.7095 C   0  0  0  0  0  0  0  0  0  0  0  0
   -0.9695    9.8122   14.8211 C   0  0  0  0  0  0  0  0  0  0  0  0
   -1.2334    9.6822   15.7033 H   0  0  0  0  0  0  0  0  0  0  0  0
    1.8037    8.8630   16.0980 C   0  0  0  0  0  0  0  0  0  0  0  0
    1.2901    9.4565   16.6515 H   0  0  0  0  0  0  0  0  0  0  0  0
    2.4162    9.3731   15.5642 H   0  0  0  0  0  0  0  0  0  0  0  0
    2.2938    8.2522   16.6529 H   0  0  0  0  0  0  0  0  0  0  0  0
    3.3742    5.9614    9.5029 C   0  0  0  0  0  0  0  0  0  0  0  0
   -2.9814    9.7668    8.6502 C   0  0  0  0  0  0  0  0  0  0  0  0
   -3.6380    9.1107    8.7163 H   0  0  0  0  0  0  0  0  0  0  0  0
    4.0530   11.7915    6.1302 B   0  0  0  0  0  0  0  0  0  0  0  0
    4.4083   12.8229    5.9897 H   0  0  0  0  0  0  0  0  0  0  0  0
    7.8619    8.5907   11.5903 C   0  0  0  0  0  0  0  0  0  0  0  0
    8.7211    8.8617   11.8165 H   0  0  0  0  0  0  0  0  0  0  0  0
    3.4448    5.5493   12.7927 C   0  0  0  0  0  0  0  0  0  0  0  0
    4.0267    5.0159   12.3011 H   0  0  0  0  0  0  0  0  0  0  0  0
   -3.0857   10.7418    7.6824 C   0  0  0  0  0  0  0  0  0  0  0  0
   -3.8208   10.7540    7.1135 H   0  0  0  0  0  0  0  0  0  0  0  0
    1.7582    9.9863    6.4097 B   0  0  0  0  0  0  0  0  0  0  0  0
    0.6665    9.8563    6.4364 H   0  0  0  0  0  0  0  0  0  0  0  0
    2.7254    9.5007    5.0008 B   0  0  0  0  0  0  0  0  0  0  0  0
    2.2248    9.0531    4.1299 H   0  0  0  0  0  0  0  0  0  0  0  0
    2.6365   11.4886    7.1402 B   0  0  0  0  0  0  0  0  0  0  0  0
    2.0952   12.3091    7.6332 H   0  0  0  0  0  0  0  0  0  0  0  0
    2.0823    5.6744    9.0787 C   0  0  0  0  0  0  0  0  0  0  0  0
    1.3747    6.2042    9.3652 H   0  0  0  0  0  0  0  0  0  0  0  0
   -1.9061    9.7545    9.5268 C   0  0  0  0  0  0  0  0  0  0  0  0
   -1.8310    9.0874   10.1715 H   0  0  0  0  0  0  0  0  0  0  0  0
    0.2400   13.4778   10.8851 C   0  0  0  0  0  0  0  0  0  0  0  0
   -0.6826   13.3576   10.8936 H   0  0  0  0  0  0  0  0  0  0  0  0
    1.8422    4.6112    8.2344 C   0  0  0  0  0  0  0  0  0  0  0  0
    0.9728    4.4272    7.9619 H   0  0  0  0  0  0  0  0  0  0  0  0
    4.0955   10.6069    4.8154 B   0  0  0  0  0  0  0  0  0  0  0  0
    4.4838   10.8742    3.8208 H   0  0  0  0  0  0  0  0  0  0  0  0
    2.4820   12.5973   10.7011 C   0  0  0  0  0  0  0  0  0  0  0  0
    3.0569   11.8762   10.5873 H   0  0  0  0  0  0  0  0  0  0  0  0
   -0.1274    7.2711   16.0503 C   0  0  0  0  0  0  0  0  0  0  0  0
   -0.6542    7.8782   16.5770 H   0  0  0  0  0  0  0  0  0  0  0  0
    0.3639    6.6874   16.6304 H   0  0  0  0  0  0  0  0  0  0  0  0
   -0.7065    6.7512   15.4870 H   0  0  0  0  0  0  0  0  0  0  0  0
    6.2347    6.8493   11.3712 C   0  0  0  0  0  0  0  0  0  0  0  0
    6.0022    5.9516   11.4470 H   0  0  0  0  0  0  0  0  0  0  0  0
    7.5194    7.2528   11.6971 C   0  0  0  0  0  0  0  0  0  0  0  0
    8.1469    6.6310   11.9864 H   0  0  0  0  0  0  0  0  0  0  0  0
   -1.0218   11.7008    8.4311 C   0  0  0  0  0  0  0  0  0  0  0  0
   -0.3546   12.3422    8.3412 H   0  0  0  0  0  0  0  0  0  0  0  0
    5.6611    9.1156   10.8205 C   0  0  0  0  0  0  0  0  0  0  0  0
    5.0403    9.7411   10.5227 H   0  0  0  0  0  0  0  0  0  0  0  0
    2.9939   13.8617   10.8570 C   0  0  0  0  0  0  0  0  0  0  0  0
    3.9139   14.0027   10.8416 H   0  0  0  0  0  0  0  0  0  0  0  0
    4.1645    4.1341    8.1782 C   0  0  0  0  0  0  0  0  0  0  0  0
    4.8716    3.6190    7.8608 H   0  0  0  0  0  0  0  0  0  0  0  0
   -2.1073   11.6934    7.5588 C   0  0  0  0  0  0  0  0  0  0  0  0
   -2.1692   12.3373    6.8901 H   0  0  0  0  0  0  0  0  0  0  0  0
    0.7827   14.7361   11.0453 C   0  0  0  0  0  0  0  0  0  0  0  0
    0.2198   15.4670   11.1605 H   0  0  0  0  0  0  0  0  0  0  0  0
    4.4322    5.1949    9.0253 C   0  0  0  0  0  0  0  0  0  0  0  0
    5.3058    5.3936    9.2711 H   0  0  0  0  0  0  0  0  0  0  0  0
  1  2  1  0  0  0  0
  3  1  1  0  0  0  0
  4  3  1  0  0  0  0
  5  1  1  0  0  0  0
  6  5  1  0  0  0  0
  7  8  1  0  0  0  0
  8  1  1  0  0  0  0
  9  7  1  0  0  0  0
 10  7  1  0  0  0  0
 11  7  1  0  0  0  0
 12 11  1  0  0  0  0
 13  1  1  0  0  0  0
 14 13  1  0  0  0  0
 15  9  1  0  0  0  0
 16  1  1  0  0  0  0
 17 16  1  0  0  0  0
 18 21  4  0  0  0  0
 19 20  1  0  0  0  0
 21 11  1  0  0  0  0
 22  9  1  0  0  0  0
 23 12  4  0  0  0  0
 24 18  1  0  0  0  0
 25 10  1  0  0  0  0
 26 27  1  0  0  0  0
 28 26  4  0  0  0  0
 29 28  1  0  0  0  0
 30 31  1  0  0  0  0
 32 18  4  0  0  0  0
 33 32  1  0  0  0  0
 34 10  1  0  0  0  0
 35 36  1  0  0  0  0
 37 38  1  0  0  0  0
 39 40  1  0  0  0  0
 41 10  1  0  0  0  0
 42 23  4  0  0  0  0
 43 42  1  0  0  0  0
 44 24  1  0  0  0  0
 45 44  1  0  0  0  0
 46 44  1  0  0  0  0
 47 44  1  0  0  0  0
 48  9  1  0  0  0  0
 49 50  1  0  0  0  0
 51  5  1  0  0  0  0
 52 51  1  0  0  0  0
 53 35  4  0  0  0  0
 54 53  1  0  0  0  0
 55 15  4  0  0  0  0
 56 55  1  0  0  0  0
 57 49  4  0  0  0  0
 58 57  1  0  0  0  0
 59  3  1  0  0  0  0
 60 59  1  0  0  0  0
 61  3  1  0  0  0  0
 62 61  1  0  0  0  0
 63  5  1  0  0  0  0
 64 63  1  0  0  0  0
 65 48  4  0  0  0  0
 66 65  1  0  0  0  0
 67 25  4  0  0  0  0
 68 67  1  0  0  0  0
 69 41  4  0  0  0  0
 70 69  1  0  0  0  0
 71 39  4  0  0  0  0
 72 71  1  0  0  0  0
 73 13  1  0  0  0  0
 74 73  1  0  0  0  0
 75 41  4  0  0  0  0
 76 75  1  0  0  0  0
 77 24  1  0  0  0  0
 78 77  1  0  0  0  0
 79 77  1  0  0  0  0
 80 77  1  0  0  0  0
 81 22  4  0  0  0  0
 82 81  1  0  0  0  0
 83 53  4  0  0  0  0
 84 83  1  0  0  0  0
 85 25  4  0  0  0  0
 86 85  1  0  0  0  0
 87 22  4  0  0  0  0
 88 87  1  0  0  0  0
 89 37  4  0  0  0  0
 90 89  1  0  0  0  0
 91 39  4  0  0  0  0
 92 91  1  0  0  0  0
 93 57  4  0  0  0  0
 94 93  1  0  0  0  0
 95 37  4  0  0  0  0
 96 95  1  0  0  0  0
 97 48  4  0  0  0  0
 98 97  1  0  0  0  0
  3  8  1  0  0  0  0
  3 13  1  0  0  0  0
  5  8  1  0  0  0  0
  5 16  1  0  0  0  0
  8 59  1  0  0  0  0
  8 63  1  0  0  0  0
 12 34  4  0  0  0  0
 13 16  1  0  0  0  0
 13 61  1  0  0  0  0
 15 21  4  0  0  0  0
 16 51  1  0  0  0  0
 16 73  1  0  0  0  0
 19 51  1  0  0  0  0
 19 59  1  0  0  0  0
 19 61  1  0  0  0  0
 19 63  1  0  0  0  0
 19 73  1  0  0  0  0
 23 24  1  0  0  0  0
 26 34  4  0  0  0  0
 28 42  4  0  0  0  0
 30 32  4  0  0  0  0
 30 55  4  0  0  0  0
 35 87  4  0  0  0  0
 49 67  4  0  0  0  0
 51 63  1  0  0  0  0
 51 73  1  0  0  0  0
 59 61  1  0  0  0  0
 59 63  1  0  0  0  0
 61 73  1  0  0  0  0
 65 71  4  0  0  0  0
 69 95  4  0  0  0  0
 75 89  4  0  0  0  0
 81 83  4  0  0  0  0
 85 93  4  0  0  0  0
 91 97  4  0  0  0  0
M  END
$$$$
KIKTOP

From CSD data. Using bond type 'Any'. No disordered atoms. Largest molecule.
 99125  0  0  0  0  0  0  0  0999 V2000
   15.7278    2.3165    3.2049 O   0  0  0  0  0  0  0  0  0  0  0  0
   13.5335    3.1269    2.5201 C   0  0  0  0  0  0  0  0  0  0  0  0
   14.9148    3.2786    2.6038 C   0  0  0  0  0  0  0  0  0  0  0  0
   15.1192    1.4145    4.0917 C   0  0  0  0  0  0  0  0  0  0  0  0
   13.7524    1.4188    4.3307 C   0  0  0  0  0  0  0  0  0  0  0  0
   16.3389    4.2465    5.6732 B   0  0  0  0  0  0  0  0  0  0  0  0
   15.4811    3.6108    5.4096 H   0  0  0  0  0  0  0  0  0  0  0  0
   12.7805    2.1562    3.4217 C   0  0  0  0  0  0  0  0  0  0  0  0
   14.7956    5.2186    1.1750 C   0  0  0  0  0  0  0  0  0  0  0  0
   15.1983    5.9359    0.7415 H   0  0  0  0  0  0  0  0  0  0  0  0
   18.3882    3.8914    1.5248 C   0  0  0  0  0  0  0  0  0  0  0  0
   17.4286    6.5859    1.7318 C   0  0  0  0  0  0  0  0  0  0  0  0
   20.5727    2.9737    1.1578 C   0  0  0  0  0  0  0  0  0  0  0  0
   21.4290    2.7818    1.4657 H   0  0  0  0  0  0  0  0  0  0  0  0
   18.0199   -1.4775    4.9120 C   0  0  0  0  0  0  0  0  0  0  0  0
   17.9810    0.0129    1.2662 C   0  0  0  0  0  0  0  0  0  0  0  0
   18.7255    0.5483    1.4165 H   0  0  0  0  0  0  0  0  0  0  0  0
   15.4265   -0.2763    5.7397 C   0  0  0  0  0  0  0  0  0  0  0  0
   15.9787   -0.8719    6.1930 H   0  0  0  0  0  0  0  0  0  0  0  0
   12.8174    3.9787    1.6825 C   0  0  0  0  0  0  0  0  0  0  0  0
   11.8956    3.8756    1.6012 H   0  0  0  0  0  0  0  0  0  0  0  0
   13.2697    0.6128    5.3554 C   0  0  0  0  0  0  0  0  0  0  0  0
   12.3593    0.6214    5.5476 H   0  0  0  0  0  0  0  0  0  0  0  0
   15.9796    0.4968    4.7297 C   0  0  0  0  0  0  0  0  0  0  0  0
   19.6852    3.6423    1.9757 C   0  0  0  0  0  0  0  0  0  0  0  0
   19.9490    3.9257    2.8206 H   0  0  0  0  0  0  0  0  0  0  0  0
   15.5592    4.3953    2.0298 C   0  0  0  0  0  0  0  0  0  0  0  0
   17.4972    5.0368    4.3824 B   0  0  0  0  0  0  0  0  0  0  0  0
   17.1725   -0.3737    2.3353 C   0  0  0  0  0  0  0  0  0  0  0  0
   18.3272    6.8293    0.7193 C   0  0  0  0  0  0  0  0  0  0  0  0
   18.8473    6.1306    0.3917 H   0  0  0  0  0  0  0  0  0  0  0  0
   18.4536   -1.4246    6.2078 C   0  0  0  0  0  0  0  0  0  0  0  0
   18.5906   -0.5970    6.6069 H   0  0  0  0  0  0  0  0  0  0  0  0
   14.1078   -0.2047    6.0994 C   0  0  0  0  0  0  0  0  0  0  0  0
   13.7822   -0.6901    6.8236 H   0  0  0  0  0  0  0  0  0  0  0  0
   20.2015    2.5900   -0.1035 C   0  0  0  0  0  0  0  0  0  0  0  0
   20.8170    2.1733   -0.6627 H   0  0  0  0  0  0  0  0  0  0  0  0
   16.6512    7.6382    2.1974 C   0  0  0  0  0  0  0  0  0  0  0  0
   16.0351    7.4835    2.8773 H   0  0  0  0  0  0  0  0  0  0  0  0
   13.4504    4.9623    0.9804 C   0  0  0  0  0  0  0  0  0  0  0  0
   12.9711    5.4663    0.3621 H   0  0  0  0  0  0  0  0  0  0  0  0
   17.3300    4.0045    7.2400 B   0  0  0  0  0  0  0  0  0  0  0  0
   17.1083    3.2113    7.9691 H   0  0  0  0  0  0  0  0  0  0  0  0
   11.7645    2.9508    4.2420 C   0  0  0  0  0  0  0  0  0  0  0  0
   11.1621    3.4060    3.6483 H   0  0  0  0  0  0  0  0  0  0  0  0
   12.2239    3.5936    4.7864 H   0  0  0  0  0  0  0  0  0  0  0  0
   11.2678    2.3509    4.8036 H   0  0  0  0  0  0  0  0  0  0  0  0
   16.3245    5.9788    5.3037 B   0  0  0  0  0  0  0  0  0  0  0  0
   15.4610    6.4169    4.7815 H   0  0  0  0  0  0  0  0  0  0  0  0
   16.7711    8.9124    1.6677 C   0  0  0  0  0  0  0  0  0  0  0  0
   16.2471    9.6096    1.9880 H   0  0  0  0  0  0  0  0  0  0  0  0
   18.0124    3.4561    0.2587 C   0  0  0  0  0  0  0  0  0  0  0  0
   17.1421    3.5993   -0.0370 H   0  0  0  0  0  0  0  0  0  0  0  0
   17.8329   -2.7546    4.3257 C   0  0  0  0  0  0  0  0  0  0  0  0
   17.5432   -2.8248    3.4463 H   0  0  0  0  0  0  0  0  0  0  0  0
   17.6803    9.1300    0.6602 C   0  0  0  0  0  0  0  0  0  0  0  0
   17.7666    9.9805    0.2931 H   0  0  0  0  0  0  0  0  0  0  0  0
   18.9052    2.8219   -0.5567 C   0  0  0  0  0  0  0  0  0  0  0  0
   18.6490    2.5470   -1.4066 H   0  0  0  0  0  0  0  0  0  0  0  0
   15.7704   -1.6049    0.8129 C   0  0  0  0  0  0  0  0  0  0  0  0
   15.0410   -2.1605    0.6528 H   0  0  0  0  0  0  0  0  0  0  0  0
   16.0388   -1.1711    2.0988 C   0  0  0  0  0  0  0  0  0  0  0  0
   15.4767   -1.4045    2.8009 H   0  0  0  0  0  0  0  0  0  0  0  0
   19.0740    4.6989    6.9542 B   0  0  0  0  0  0  0  0  0  0  0  0
   19.9569    4.3438    7.5060 H   0  0  0  0  0  0  0  0  0  0  0  0
   16.2269    5.3789    6.9764 B   0  0  0  0  0  0  0  0  0  0  0  0
   15.2881    5.4290    7.5454 H   0  0  0  0  0  0  0  0  0  0  0  0
   17.6702   -0.4037   -0.0271 C   0  0  0  0  0  0  0  0  0  0  0  0
   18.1963   -0.1331   -0.7439 H   0  0  0  0  0  0  0  0  0  0  0  0
   12.0607    1.0953    2.5496 C   0  0  0  0  0  0  0  0  0  0  0  0
   11.4350    1.5319    1.9658 H   0  0  0  0  0  0  0  0  0  0  0  0
   11.5909    0.4782    3.1162 H   0  0  0  0  0  0  0  0  0  0  0  0
   12.7083    0.6185    2.0249 H   0  0  0  0  0  0  0  0  0  0  0  0
   19.1935    5.3331    5.1904 B   0  0  0  0  0  0  0  0  0  0  0  0
   20.1357    5.3761    4.6238 H   0  0  0  0  0  0  0  0  0  0  0  0
   16.5883   -1.2127   -0.2340 C   0  0  0  0  0  0  0  0  0  0  0  0
   16.3947   -1.5047   -1.0962 H   0  0  0  0  0  0  0  0  0  0  0  0
   17.1781    6.8235    6.6315 B   0  0  0  0  0  0  0  0  0  0  0  0
   16.8531    7.8128    6.9838 H   0  0  0  0  0  0  0  0  0  0  0  0
   18.6888   -2.5699    6.9345 C   0  0  0  0  0  0  0  0  0  0  0  0
   19.0003   -2.5055    7.8090 H   0  0  0  0  0  0  0  0  0  0  0  0
   17.9878    6.6088    5.0500 B   0  0  0  0  0  0  0  0  0  0  0  0
   18.1855    7.4506    4.3725 H   0  0  0  0  0  0  0  0  0  0  0  0
   18.8832    6.3954    6.5453 B   0  0  0  0  0  0  0  0  0  0  0  0
   19.6678    7.1084    6.8360 H   0  0  0  0  0  0  0  0  0  0  0  0
   18.4717    8.0849    0.1823 C   0  0  0  0  0  0  0  0  0  0  0  0
   19.0903    8.2381   -0.4927 H   0  0  0  0  0  0  0  0  0  0  0  0
   17.8122    5.6481    7.7499 B   0  0  0  0  0  0  0  0  0  0  0  0
   17.9023    5.8686    8.8239 H   0  0  0  0  0  0  0  0  0  0  0  0
   18.0787   -3.8756    5.0574 C   0  0  0  0  0  0  0  0  0  0  0  0
   17.9810   -4.7089    4.6558 H   0  0  0  0  0  0  0  0  0  0  0  0
   18.4704   -3.8055    6.3778 C   0  0  0  0  0  0  0  0  0  0  0  0
   18.5810   -4.5800    6.8828 H   0  0  0  0  0  0  0  0  0  0  0  0
   18.3875    3.1200    5.4062 Sn  0  0  0  0  0  0  0  0  0  0  0  0
   19.5381    1.1973    4.3129 Pd  0  0  0  0  0  0  0  0  0  0  0  0
   17.2343    4.9234    2.4794 P   0  0  0  0  0  0  0  0  0  0  0  0
   17.6283    0.0630    4.0370 P   0  0  0  0  0  0  0  0  0  0  0  0
   20.7553   -0.5452    3.2340 Cl  0  5  0  0  0  0  0  0  0  0  0  0
   21.5648    2.2783    4.8721 Cl  0  0  0  0  0  0  0  0  0  0  0  0
  1  3  1  0  0  0  0
  2  3  4  0  0  0  0
  3 27  4  0  0  0  0
  4  1  1  0  0  0  0
  5  4  4  0  0  0  0
  6  7  1  0  0  0  0
  8  2  1  0  0  0  0
  9 10  1  0  0  0  0
 11 25  4  0  0  0  0
 12 30  4  0  0  0  0
 13 14  1  0  0  0  0
 15 32  4  0  0  0  0
 16 17  1  0  0  0  0
 18 19  1  0  0  0  0
 20  2  4  0  0  0  0
 21 20  1  0  0  0  0
 22  5  4  0  0  0  0
 23 22  1  0  0  0  0
 24  4  4  0  0  0  0
 25 13  4  0  0  0  0
 26 25  1  0  0  0  0
 27  9  4  0  0  0  0
 28  6  1  0  0  0  0
 29 16  4  0  0  0  0
 30 31  1  0  0  0  0
 32 33  1  0  0  0  0
 34 18  4  0  0  0  0
 35 34  1  0  0  0  0
 36 13  4  0  0  0  0
 37 36  1  0  0  0  0
 38 12  4  0  0  0  0
 39 38  1  0  0  0  0
 40  9  4  0  0  0  0
 41 40  1  0  0  0  0
 42  6  1  0  0  0  0
 43 42  1  0  0  0  0
 44  8  1  0  0  0  0
 45 44  1  0  0  0  0
 46 44  1  0  0  0  0
 47 44  1  0  0  0  0
 48  6  1  0  0  0  0
 49 48  1  0  0  0  0
 50 38  4  0  0  0  0
 51 50  1  0  0  0  0
 52 11  4  0  0  0  0
 53 52  1  0  0  0  0
 54 15  4  0  0  0  0
 55 54  1  0  0  0  0
 56 50  4  0  0  0  0
 57 56  1  0  0  0  0
 58 36  4  0  0  0  0
 59 58  1  0  0  0  0
 60 61  1  0  0  0  0
 62 29  4  0  0  0  0
 63 62  1  0  0  0  0
 64 42  1  0  0  0  0
 65 64  1  0  0  0  0
 66  6  1  0  0  0  0
 67 66  1  0  0  0  0
 68 16  4  0  0  0  0
 69 68  1  0  0  0  0
 70  8  1  0  0  0  0
 71 70  1  0  0  0  0
 72 70  1  0  0  0  0
 73 70  1  0  0  0  0
 74 28  1  0  0  0  0
 75 74  1  0  0  0  0
 76 60  4  0  0  0  0
 77 76  1  0  0  0  0
 78 48  1  0  0  0  0
 79 78  1  0  0  0  0
 80 32  4  0  0  0  0
 81 80  1  0  0  0  0
 82 28  1  0  0  0  0
 83 82  1  0  0  0  0
 84 64  1  0  0  0  0
 85 84  1  0  0  0  0
 86 30  4  0  0  0  0
 87 86  1  0  0  0  0
 88 42  1  0  0  0  0
 89 88  1  0  0  0  0
 90 54  4  0  0  0  0
 91 90  1  0  0  0  0
 92 80  4  0  0  0  0
 93 92  1  0  0  0  0
 94  6  1  0  0  0  0
 95 94  1  0  0  0  0
 96 11  1  0  0  0  0
 97 15  1  0  0  0  0
 98 95  1  0  0  0  0
 99 95  1  0  0  0  0
  5  8  1  0  0  0  0
 12 96  1  0  0  0  0
 18 24  4  0  0  0  0
 20 40  4  0  0  0  0
 22 34  4  0  0  0  0
 24 97  1  0  0  0  0
 27 96  1  0  0  0  0
 28 48  1  0  0  0  0
 28 94  1  0  0  0  0
 28 96  1  0  0  0  0
 29 97  1  0  0  0  0
 42 66  1  0  0  0  0
 42 94  1  0  0  0  0
 48 66  1  0  0  0  0
 48 82  1  0  0  0  0
 52 58  4  0  0  0  0
 56 86  4  0  0  0  0
 60 62  4  0  0  0  0
 64 74  1  0  0  0  0
 64 88  1  0  0  0  0
 64 94  1  0  0  0  0
 66 78  1  0  0  0  0
 66 88  1  0  0  0  0
 68 76  4  0  0  0  0
 74 82  1  0  0  0  0
 74 84  1  0  0  0  0
 74 94  1  0  0  0  0
 78 82  1  0  0  0  0
 78 84  1  0  0  0  0
 78 88  1  0  0  0  0
 82 84  1  0  0  0  0
 84 88  1  0  0  0  0
 90 92  4  0  0  0  0
 95 97  1  0  0  0  0
M  CHG  1  98  -1
M  END
$$$$
KIKTUV

From CSD data. Using bond type 'Any'. No disordered atoms. Largest molecule.
161197  0  0  0  0  0  0  0  0999 V2000
    5.6499    5.0461    8.6177 Sn  0  0  0  0  0  0  0  0  0  0  0  0
    3.5282    3.7114    7.1090 Pd  0  0  0  0  0  0  0  0  0  0  0  0
    3.3533    4.4690    9.5603 Pd  0  0  0  0  0  0  0  0  0  0  0  0
    5.2973    2.2167    7.0544 P   0  0  0  0  0  0  0  0  0  0  0  0
    2.1736    5.4694    6.5638 P   0  0  0  0  0  0  0  0  0  0  0  0
    1.7754    2.7260    9.9097 P   0  0  0  0  0  0  0  0  0  0  0  0
    3.5785    5.6821   11.5479 P   0  0  0  0  0  0  0  0  0  0  0  0
    6.3868    1.2111    4.6866 C   0  0  0  0  0  0  0  0  0  0  0  0
    7.0580    0.8517    5.2547 H   0  0  0  0  0  0  0  0  0  0  0  0
    6.4453    0.9742    3.3250 C   0  0  0  0  0  0  0  0  0  0  0  0
    7.1606    0.4686    2.9597 H   0  0  0  0  0  0  0  0  0  0  0  0
   -1.1031    2.5343    9.8811 C   0  0  0  0  0  0  0  0  0  0  0  0
   -1.0398    1.9412    9.1413 H   0  0  0  0  0  0  0  0  0  0  0  0
    1.0653    4.3496   12.1437 O   0  0  0  0  0  0  0  0  0  0  0  0
    3.3521    3.2206    4.9367 O   0  0  0  0  0  0  0  0  0  0  0  0
    5.3513    1.9747    5.2370 C   0  0  0  0  0  0  0  0  0  0  0  0
    1.4782    1.5092    8.5715 C   0  0  0  0  0  0  0  0  0  0  0  0
    0.0616    3.0367   10.4763 C   0  0  0  0  0  0  0  0  0  0  0  0
    5.3139    0.4922    7.6437 C   0  0  0  0  0  0  0  0  0  0  0  0
    7.2863    3.5213    9.3395 B   0  0  0  0  0  0  0  0  0  0  0  0
    6.8709    2.8951   10.1705 H   0  0  0  0  0  0  0  0  0  0  0  0
    6.8308    3.2577    7.5854 B   0  0  0  0  0  0  0  0  0  0  0  0
    5.4594    1.4730    2.4993 C   0  0  0  0  0  0  0  0  0  0  0  0
    5.5020    1.2941    1.5683 H   0  0  0  0  0  0  0  0  0  0  0  0
    4.4067    2.2317    2.9943 C   0  0  0  0  0  0  0  0  0  0  0  0
    3.2522    2.6879    2.1125 C   0  0  0  0  0  0  0  0  0  0  0  0
    3.7372    2.9808    0.6840 C   0  0  0  0  0  0  0  0  0  0  0  0
    2.9800    3.2734    0.1342 H   0  0  0  0  0  0  0  0  0  0  0  0
    4.1270    2.1696    0.2983 H   0  0  0  0  0  0  0  0  0  0  0  0
    4.4143    3.6897    0.7096 H   0  0  0  0  0  0  0  0  0  0  0  0
    2.2169    1.5558    2.0989 C   0  0  0  0  0  0  0  0  0  0  0  0
    1.4554    1.8151    1.5385 H   0  0  0  0  0  0  0  0  0  0  0  0
    1.9071    1.3845    3.0130 H   0  0  0  0  0  0  0  0  0  0  0  0
    2.6263    0.7422    1.7345 H   0  0  0  0  0  0  0  0  0  0  0  0
    2.5975    3.9293    2.7452 C   0  0  0  0  0  0  0  0  0  0  0  0
    1.9083    4.8644    2.0004 C   0  0  0  0  0  0  0  0  0  0  0  0
    1.8563    4.7602    1.0569 H   0  0  0  0  0  0  0  0  0  0  0  0
    1.2895    5.9552    2.5996 C   0  0  0  0  0  0  0  0  0  0  0  0
    0.8150    6.5825    2.0669 H   0  0  0  0  0  0  0  0  0  0  0  0
    1.3610    6.1267    3.9604 C   0  0  0  0  0  0  0  0  0  0  0  0
    0.9418    6.8775    4.3640 H   0  0  0  0  0  0  0  0  0  0  0  0
    2.0447    5.2084    4.7537 C   0  0  0  0  0  0  0  0  0  0  0  0
    0.4529    5.5541    7.1779 C   0  0  0  0  0  0  0  0  0  0  0  0
    0.2547    5.9694    8.4871 C   0  0  0  0  0  0  0  0  0  0  0  0
    0.9982    6.2066    9.0305 H   0  0  0  0  0  0  0  0  0  0  0  0
   -1.0325    6.0394    9.0007 C   0  0  0  0  0  0  0  0  0  0  0  0
   -1.1705    6.3493    9.8871 H   0  0  0  0  0  0  0  0  0  0  0  0
   -2.1082    5.6618    8.2357 C   0  0  0  0  0  0  0  0  0  0  0  0
   -2.9869    5.7070    8.5915 H   0  0  0  0  0  0  0  0  0  0  0  0
   -1.9091    5.2217    6.9593 C   0  0  0  0  0  0  0  0  0  0  0  0
   -2.6562    4.9482    6.4394 H   0  0  0  0  0  0  0  0  0  0  0  0
   -0.6381    5.1627    6.4096 C   0  0  0  0  0  0  0  0  0  0  0  0
   -0.5138    4.8578    5.5189 H   0  0  0  0  0  0  0  0  0  0  0  0
    2.7630    7.1979    6.6757 C   0  0  0  0  0  0  0  0  0  0  0  0
    1.9081    8.2646    6.9061 C   0  0  0  0  0  0  0  0  0  0  0  0
    0.9762    8.1145    7.0083 H   0  0  0  0  0  0  0  0  0  0  0  0
    2.4159    9.5428    6.9892 C   0  0  0  0  0  0  0  0  0  0  0  0
    1.8238   10.2674    7.1511 H   0  0  0  0  0  0  0  0  0  0  0  0
    3.7478    9.7945    6.8464 C   0  0  0  0  0  0  0  0  0  0  0  0
    4.0826   10.6790    6.9338 H   0  0  0  0  0  0  0  0  0  0  0  0
    4.6020    8.7520    6.5707 C   0  0  0  0  0  0  0  0  0  0  0  0
    5.5284    8.9186    6.4415 H   0  0  0  0  0  0  0  0  0  0  0  0
    4.1128    7.4589    6.4799 C   0  0  0  0  0  0  0  0  0  0  0  0
    4.7055    6.7442    6.2817 H   0  0  0  0  0  0  0  0  0  0  0  0
    2.4589    1.6850   11.2415 C   0  0  0  0  0  0  0  0  0  0  0  0
    1.6812    1.0884   12.2229 C   0  0  0  0  0  0  0  0  0  0  0  0
    0.7504    1.2727   12.2651 H   0  0  0  0  0  0  0  0  0  0  0  0
    2.2553    0.2243   13.1426 C   0  0  0  0  0  0  0  0  0  0  0  0
    1.7205   -0.1641   13.8249 H   0  0  0  0  0  0  0  0  0  0  0  0
    3.5950   -0.0735   13.0727 C   0  0  0  0  0  0  0  0  0  0  0  0
    3.9793   -0.6899   13.6843 H   0  0  0  0  0  0  0  0  0  0  0  0
    4.3769    0.5281   12.1096 C   0  0  0  0  0  0  0  0  0  0  0  0
    5.3033    0.3259   12.0606 H   0  0  0  0  0  0  0  0  0  0  0  0
    3.8221    1.4197   11.2189 C   0  0  0  0  0  0  0  0  0  0  0  0
    4.3774    1.8579   10.5839 H   0  0  0  0  0  0  0  0  0  0  0  0
    0.9957    1.9412    7.3456 C   0  0  0  0  0  0  0  0  0  0  0  0
    0.8208    2.8666    7.2129 H   0  0  0  0  0  0  0  0  0  0  0  0
    0.7648    1.0529    6.3130 C   0  0  0  0  0  0  0  0  0  0  0  0
    0.4445    1.3655    5.4763 H   0  0  0  0  0  0  0  0  0  0  0  0
    1.0058   -0.2957    6.5076 C   0  0  0  0  0  0  0  0  0  0  0  0
    0.8604   -0.9111    5.7980 H   0  0  0  0  0  0  0  0  0  0  0  0
    1.4503   -0.7465    7.7200 C   0  0  0  0  0  0  0  0  0  0  0  0
    1.5976   -1.6748    7.8564 H   0  0  0  0  0  0  0  0  0  0  0  0
    1.6873    0.1477    8.7505 C   0  0  0  0  0  0  0  0  0  0  0  0
    1.9969   -0.1737    9.5888 H   0  0  0  0  0  0  0  0  0  0  0  0
   -2.3437    2.8973   10.3650 C   0  0  0  0  0  0  0  0  0  0  0  0
   -3.1263    2.5621    9.9446 H   0  0  0  0  0  0  0  0  0  0  0  0
   -2.4641    3.7404   11.4496 C   0  0  0  0  0  0  0  0  0  0  0  0
   -3.3267    3.9847   11.7622 H   0  0  0  0  0  0  0  0  0  0  0  0
   -1.3325    4.2359   12.0923 C   0  0  0  0  0  0  0  0  0  0  0  0
   -1.3122    5.1294   13.3335 C   0  0  0  0  0  0  0  0  0  0  0  0
   -0.9275    4.2585   14.5570 C   0  0  0  0  0  0  0  0  0  0  0  0
   -0.9110    4.8173   15.3634 H   0  0  0  0  0  0  0  0  0  0  0  0
   -0.0407    3.8657   14.4130 H   0  0  0  0  0  0  0  0  0  0  0  0
   -1.5874    3.5422   14.6687 H   0  0  0  0  0  0  0  0  0  0  0  0
   -2.6554    5.7946   13.5841 C   0  0  0  0  0  0  0  0  0  0  0  0
   -2.5991    6.3541   14.3874 H   0  0  0  0  0  0  0  0  0  0  0  0
   -3.3416    5.1075   13.7120 H   0  0  0  0  0  0  0  0  0  0  0  0
   -2.8929    6.3517   12.8149 H   0  0  0  0  0  0  0  0  0  0  0  0
   -0.1987    6.1493   13.0957 C   0  0  0  0  0  0  0  0  0  0  0  0
    0.9766    5.6866   12.5131 C   0  0  0  0  0  0  0  0  0  0  0  0
   -0.1033    3.8731   11.5677 C   0  0  0  0  0  0  0  0  0  0  0  0
    2.0917    6.4688   12.2741 C   0  0  0  0  0  0  0  0  0  0  0  0
    4.2808    4.7683   12.9645 C   0  0  0  0  0  0  0  0  0  0  0  0
    3.7908    4.8808   14.2596 C   0  0  0  0  0  0  0  0  0  0  0  0
    3.0257    5.4168   14.4300 H   0  0  0  0  0  0  0  0  0  0  0  0
    4.4115    4.2202   15.2994 C   0  0  0  0  0  0  0  0  0  0  0  0
    4.0747    4.3082   16.1837 H   0  0  0  0  0  0  0  0  0  0  0  0
    5.5173    3.4304   15.0629 C   0  0  0  0  0  0  0  0  0  0  0  0
    5.9379    2.9689   15.7789 H   0  0  0  0  0  0  0  0  0  0  0  0
    6.0070    3.3124   13.7908 C   0  0  0  0  0  0  0  0  0  0  0  0
    6.7688    2.7691   13.6246 H   0  0  0  0  0  0  0  0  0  0  0  0
    5.3954    3.9802   12.7509 C   0  0  0  0  0  0  0  0  0  0  0  0
    5.7459    3.8967   11.8709 H   0  0  0  0  0  0  0  0  0  0  0  0
    4.6669    7.1560   11.4315 C   0  0  0  0  0  0  0  0  0  0  0  0
    4.5600    7.9798   10.3186 C   0  0  0  0  0  0  0  0  0  0  0  0
    3.9896    7.7315    9.5994 H   0  0  0  0  0  0  0  0  0  0  0  0
    5.2848    9.1681   10.2493 C   0  0  0  0  0  0  0  0  0  0  0  0
    5.2032    9.7298    9.4886 H   0  0  0  0  0  0  0  0  0  0  0  0
    6.1122    9.5290   11.2785 C   0  0  0  0  0  0  0  0  0  0  0  0
    6.6011   10.3435   11.2317 H   0  0  0  0  0  0  0  0  0  0  0  0
    6.2407    8.7099   12.3866 C   0  0  0  0  0  0  0  0  0  0  0  0
    6.8219    8.9590   13.0940 H   0  0  0  0  0  0  0  0  0  0  0  0
    5.5264    7.5331   12.4643 C   0  0  0  0  0  0  0  0  0  0  0  0
    5.6187    6.9750   13.2283 H   0  0  0  0  0  0  0  0  0  0  0  0
    2.0109    7.8105   12.6548 C   0  0  0  0  0  0  0  0  0  0  0  0
    2.7539    8.3857   12.5166 H   0  0  0  0  0  0  0  0  0  0  0  0
    0.8618    8.3060   13.2283 C   0  0  0  0  0  0  0  0  0  0  0  0
    0.8188    9.2231   13.4733 H   0  0  0  0  0  0  0  0  0  0  0  0
   -0.2300    7.4874   13.4507 C   0  0  0  0  0  0  0  0  0  0  0  0
   -1.0118    7.8481   13.8526 H   0  0  0  0  0  0  0  0  0  0  0  0
    2.6550    4.1286    4.1183 C   0  0  0  0  0  0  0  0  0  0  0  0
    4.4000    2.4653    4.3674 C   0  0  0  0  0  0  0  0  0  0  0  0
    4.6727   -0.5081    6.9487 C   0  0  0  0  0  0  0  0  0  0  0  0
    4.2018   -0.2950    6.1517 H   0  0  0  0  0  0  0  0  0  0  0  0
    4.7008   -1.8215    7.3940 C   0  0  0  0  0  0  0  0  0  0  0  0
    4.2732   -2.5026    6.8847 H   0  0  0  0  0  0  0  0  0  0  0  0
    5.3330   -2.1394    8.5511 C   0  0  0  0  0  0  0  0  0  0  0  0
    5.3285   -3.0355    8.8643 H   0  0  0  0  0  0  0  0  0  0  0  0
    5.9800   -1.1623    9.2628 C   0  0  0  0  0  0  0  0  0  0  0  0
    6.4293   -1.3845   10.0704 H   0  0  0  0  0  0  0  0  0  0  0  0
    5.9795    0.1532    8.8119 C   0  0  0  0  0  0  0  0  0  0  0  0
    6.4396    0.8231    9.3054 H   0  0  0  0  0  0  0  0  0  0  0  0
    6.9635    4.8261    6.6580 B   0  0  0  0  0  0  0  0  0  0  0  0
    6.3432    5.0433    5.7511 H   0  0  0  0  0  0  0  0  0  0  0  0
    8.6532    5.3131    6.7590 B   0  0  0  0  0  0  0  0  0  0  0  0
    9.1146    5.8854    5.9152 H   0  0  0  0  0  0  0  0  0  0  0  0
    9.5625    4.0798    7.6646 B   0  0  0  0  0  0  0  0  0  0  0  0
   10.6303    3.8491    7.4217 H   0  0  0  0  0  0  0  0  0  0  0  0
    8.4330    2.8024    8.1782 B   0  0  0  0  0  0  0  0  0  0  0  0
    8.7401    1.7295    8.2719 H   0  0  0  0  0  0  0  0  0  0  0  0
    8.9674    4.0561    9.3288 B   0  0  0  0  0  0  0  0  0  0  0  0
    9.6407    3.7920   10.1854 H   0  0  0  0  0  0  0  0  0  0  0  0
    7.7532    5.3240    9.5547 B   0  0  0  0  0  0  0  0  0  0  0  0
    7.6685    5.8688   10.5285 H   0  0  0  0  0  0  0  0  0  0  0  0
    7.5383    6.1547    7.8543 B   0  0  0  0  0  0  0  0  0  0  0  0
    7.3117    7.2414    7.7115 H   0  0  0  0  0  0  0  0  0  0  0  0
    8.2467    3.5905    6.5822 B   0  0  0  0  0  0  0  0  0  0  0  0
    8.4395    3.0284    5.6318 H   0  0  0  0  0  0  0  0  0  0  0  0
    9.1080    5.5976    8.4658 B   0  0  0  0  0  0  0  0  0  0  0  0
    9.8765    6.3589    8.7514 H   0  0  0  0  0  0  0  0  0  0  0  0
  1  2  1  0  0  0  0
  2  3  1  0  0  0  0
  3  1  1  0  0  0  0
  4  2  1  0  0  0  0
  5  2  1  0  0  0  0
  6  3  1  0  0  0  0
  7  3  1  0  0  0  0
  8  9  1  0  0  0  0
 10  8  4  0  0  0  0
 11 10  1  0  0  0  0
 12 13  1  0  0  0  0
 14101  1  0  0  0  0
 15  2  1  0  0  0  0
 16  4  1  0  0  0  0
 17  6  1  0  0  0  0
 18  6  1  0  0  0  0
 19  4  1  0  0  0  0
 20  1  1  0  0  0  0
 21 20  1  0  0  0  0
 22  1  1  0  0  0  0
 23 10  4  0  0  0  0
 24 23  1  0  0  0  0
 25 23  4  0  0  0  0
 26 25  1  0  0  0  0
 27 26  1  0  0  0  0
 28 27  1  0  0  0  0
 29 27  1  0  0  0  0
 30 27  1  0  0  0  0
 31 26  1  0  0  0  0
 32 31  1  0  0  0  0
 33 31  1  0  0  0  0
 34 31  1  0  0  0  0
 35 26  1  0  0  0  0
 36 35  4  0  0  0  0
 37 36  1  0  0  0  0
 38 36  4  0  0  0  0
 39 38  1  0  0  0  0
 40 38  4  0  0  0  0
 41 40  1  0  0  0  0
 42  5  1  0  0  0  0
 43  5  1  0  0  0  0
 44 43  4  0  0  0  0
 45 44  1  0  0  0  0
 46 44  4  0  0  0  0
 47 46  1  0  0  0  0
 48 46  4  0  0  0  0
 49 48  1  0  0  0  0
 50 48  4  0  0  0  0
 51 50  1  0  0  0  0
 52 43  4  0  0  0  0
 53 52  1  0  0  0  0
 54  5  1  0  0  0  0
 55 54  4  0  0  0  0
 56 55  1  0  0  0  0
 57 55  4  0  0  0  0
 58 57  1  0  0  0  0
 59 57  4  0  0  0  0
 60 59  1  0  0  0  0
 61 59  4  0  0  0  0
 62 61  1  0  0  0  0
 63 54  4  0  0  0  0
 64 63  1  0  0  0  0
 65  6  1  0  0  0  0
 66 65  4  0  0  0  0
 67 66  1  0  0  0  0
 68 66  4  0  0  0  0
 69 68  1  0  0  0  0
 70 68  4  0  0  0  0
 71 70  1  0  0  0  0
 72 70  4  0  0  0  0
 73 72  1  0  0  0  0
 74 65  4  0  0  0  0
 75 74  1  0  0  0  0
 76 17  4  0  0  0  0
 77 76  1  0  0  0  0
 78 76  4  0  0  0  0
 79 78  1  0  0  0  0
 80 78  4  0  0  0  0
 81 80  1  0  0  0  0
 82 80  4  0  0  0  0
 83 82  1  0  0  0  0
 84 17  4  0  0  0  0
 85 84  1  0  0  0  0
 86 12  4  0  0  0  0
 87 86  1  0  0  0  0
 88 86  4  0  0  0  0
 89 88  1  0  0  0  0
 90 88  4  0  0  0  0
 91 90  1  0  0  0  0
 92 91  1  0  0  0  0
 93 92  1  0  0  0  0
 94 92  1  0  0  0  0
 95 92  1  0  0  0  0
 96 91  1  0  0  0  0
 97 96  1  0  0  0  0
 98 96  1  0  0  0  0
 99 96  1  0  0  0  0
100 91  1  0  0  0  0
101100  4  0  0  0  0
102 14  1  0  0  0  0
103  7  1  0  0  0  0
104  7  1  0  0  0  0
105104  4  0  0  0  0
106105  1  0  0  0  0
107105  4  0  0  0  0
108107  1  0  0  0  0
109107  4  0  0  0  0
110109  1  0  0  0  0
111109  4  0  0  0  0
112111  1  0  0  0  0
113104  4  0  0  0  0
114113  1  0  0  0  0
115  7  1  0  0  0  0
116115  4  0  0  0  0
117116  1  0  0  0  0
118116  4  0  0  0  0
119118  1  0  0  0  0
120118  4  0  0  0  0
121120  1  0  0  0  0
122120  4  0  0  0  0
123122  1  0  0  0  0
124115  4  0  0  0  0
125124  1  0  0  0  0
126103  4  0  0  0  0
127126  1  0  0  0  0
128126  4  0  0  0  0
129128  1  0  0  0  0
130100  4  0  0  0  0
131130  1  0  0  0  0
132 15  1  0  0  0  0
133 15  1  0  0  0  0
134 19  4  0  0  0  0
135134  1  0  0  0  0
136134  4  0  0  0  0
137136  1  0  0  0  0
138136  4  0  0  0  0
139138  1  0  0  0  0
140138  4  0  0  0  0
141140  1  0  0  0  0
142 19  4  0  0  0  0
143142  1  0  0  0  0
144  1  1  0  0  0  0
145144  1  0  0  0  0
146144  1  0  0  0  0
147146  1  0  0  0  0
148146  1  0  0  0  0
149148  1  0  0  0  0
150 20  1  0  0  0  0
151150  1  0  0  0  0
152 20  1  0  0  0  0
153152  1  0  0  0  0
154  1  1  0  0  0  0
155154  1  0  0  0  0
156  1  1  0  0  0  0
157156  1  0  0  0  0
158 22  1  0  0  0  0
159158  1  0  0  0  0
160146  1  0  0  0  0
161160  1  0  0  0  0
  4 22  1  0  0  0  0
  8 16  4  0  0  0  0
 12 18  4  0  0  0  0
 16133  4  0  0  0  0
 18102  4  0  0  0  0
 20 22  1  0  0  0  0
 20154  1  0  0  0  0
 22144  1  0  0  0  0
 22150  1  0  0  0  0
 25133  4  0  0  0  0
 35132  4  0  0  0  0
 40 42  4  0  0  0  0
 42132  4  0  0  0  0
 50 52  4  0  0  0  0
 61 63  4  0  0  0  0
 72 74  4  0  0  0  0
 82 84  4  0  0  0  0
 90102  4  0  0  0  0
101103  4  0  0  0  0
111113  4  0  0  0  0
122124  4  0  0  0  0
128130  4  0  0  0  0
140142  4  0  0  0  0
144156  1  0  0  0  0
144158  1  0  0  0  0
146156  1  0  0  0  0
146158  1  0  0  0  0
148150  1  0  0  0  0
148152  1  0  0  0  0
148158  1  0  0  0  0
148160  1  0  0  0  0
150152  1  0  0  0  0
150158  1  0  0  0  0
152154  1  0  0  0  0
152160  1  0  0  0  0
154156  1  0  0  0  0
154160  1  0  0  0  0
156160  1  0  0  0  0
M  END
$$$$
KIKVAD

From CSD data. Using bond type 'Any'. No disordered atoms. Largest molecule.
 98125  0  0  0  0  0  0  0  0999 V2000
    3.6255   13.7716    2.0413 Sn  0  0  0  0  0  0  0  0  0  0  0  0
    4.2590   12.7027    4.2030 Pd  0  0  0  0  0  0  0  0  0  0  0  0
    6.4213   13.4198    4.2622 P   0  0  0  0  0  0  0  0  0  0  0  0
    2.2009   11.8158    4.6453 P   0  0  0  0  0  0  0  0  0  0  0  0
    4.9025   11.3935    5.8107 O   0  0  0  0  0  0  0  0  0  0  0  0
    7.5706   13.2792    2.8718 C   0  0  0  0  0  0  0  0  0  0  0  0
    7.3099   12.3721    1.8629 C   0  0  0  0  0  0  0  0  0  0  0  0
    6.5183   11.8480    1.8780 H   0  0  0  0  0  0  0  0  0  0  0  0
    8.2303   12.2384    0.8178 C   0  0  0  0  0  0  0  0  0  0  0  0
    8.0627   11.6185    0.1174 H   0  0  0  0  0  0  0  0  0  0  0  0
    9.3771   12.9995    0.7975 C   0  0  0  0  0  0  0  0  0  0  0  0
    9.9985   12.8935    0.0880 H   0  0  0  0  0  0  0  0  0  0  0  0
    9.6307   13.9020    1.7820 C   0  0  0  0  0  0  0  0  0  0  0  0
   10.4217   14.4275    1.7538 H   0  0  0  0  0  0  0  0  0  0  0  0
    8.7299   14.0518    2.8278 C   0  0  0  0  0  0  0  0  0  0  0  0
    8.9038   14.6825    3.5167 H   0  0  0  0  0  0  0  0  0  0  0  0
    6.6586   15.1074    4.8767 C   0  0  0  0  0  0  0  0  0  0  0  0
    6.5476   16.1582    3.9629 C   0  0  0  0  0  0  0  0  0  0  0  0
    6.3603   15.9732    3.0495 H   0  0  0  0  0  0  0  0  0  0  0  0
    6.7112   17.4715    4.3801 C   0  0  0  0  0  0  0  0  0  0  0  0
    6.6514   18.1820    3.7537 H   0  0  0  0  0  0  0  0  0  0  0  0
    6.9589   17.7389    5.7152 C   0  0  0  0  0  0  0  0  0  0  0  0
    7.0702   18.6371    6.0041 H   0  0  0  0  0  0  0  0  0  0  0  0
    7.0488   16.7008    6.6357 C   0  0  0  0  0  0  0  0  0  0  0  0
    7.2035   16.8932    7.5525 H   0  0  0  0  0  0  0  0  0  0  0  0
    6.9096   15.3851    6.2158 C   0  0  0  0  0  0  0  0  0  0  0  0
    6.9867   14.6747    6.8415 H   0  0  0  0  0  0  0  0  0  0  0  0
    7.0683   12.3141    5.5642 C   0  0  0  0  0  0  0  0  0  0  0  0
    6.2281   11.4398    6.2515 C   0  0  0  0  0  0  0  0  0  0  0  0
    3.9692   10.5526    6.4262 C   0  0  0  0  0  0  0  0  0  0  0  0
    2.6672   10.5985    5.9154 C   0  0  0  0  0  0  0  0  0  0  0  0
    1.0957   12.9961    5.4601 C   0  0  0  0  0  0  0  0  0  0  0  0
    0.5082   13.9701    4.6561 C   0  0  0  0  0  0  0  0  0  0  0  0
    0.6815   13.9803    3.7221 H   0  0  0  0  0  0  0  0  0  0  0  0
   -0.3253   14.9224    5.2152 C   0  0  0  0  0  0  0  0  0  0  0  0
   -0.7224   15.5868    4.6633 H   0  0  0  0  0  0  0  0  0  0  0  0
   -0.5838   14.9081    6.5727 C   0  0  0  0  0  0  0  0  0  0  0  0
   -1.1691   15.5534    6.9521 H   0  0  0  0  0  0  0  0  0  0  0  0
    0.0126   13.9534    7.3833 C   0  0  0  0  0  0  0  0  0  0  0  0
   -0.1572   13.9528    8.3177 H   0  0  0  0  0  0  0  0  0  0  0  0
    0.8550   12.9998    6.8327 C   0  0  0  0  0  0  0  0  0  0  0  0
    1.2670   12.3502    7.3900 H   0  0  0  0  0  0  0  0  0  0  0  0
    1.1612   10.9055    3.4831 C   0  0  0  0  0  0  0  0  0  0  0  0
   -0.2211   10.8962    3.5743 C   0  0  0  0  0  0  0  0  0  0  0  0
   -0.6604   11.4086    4.2435 H   0  0  0  0  0  0  0  0  0  0  0  0
   -0.9607   10.1297    2.6782 C   0  0  0  0  0  0  0  0  0  0  0  0
   -1.9089   10.1316    2.7335 H   0  0  0  0  0  0  0  0  0  0  0  0
   -0.3509    9.3837    1.7299 C   0  0  0  0  0  0  0  0  0  0  0  0
   -0.8660    8.8350    1.1512 H   0  0  0  0  0  0  0  0  0  0  0  0
    1.0142    9.4203    1.6080 C   0  0  0  0  0  0  0  0  0  0  0  0
    1.4369    8.9154    0.9232 H   0  0  0  0  0  0  0  0  0  0  0  0
    1.7865   10.1824    2.4691 C   0  0  0  0  0  0  0  0  0  0  0  0
    2.7309   10.2120    2.3700 H   0  0  0  0  0  0  0  0  0  0  0  0
    1.7221    9.7191    6.4337 C   0  0  0  0  0  0  0  0  0  0  0  0
    0.8374    9.7158    6.0876 H   0  0  0  0  0  0  0  0  0  0  0  0
    2.0668    8.8503    7.4521 C   0  0  0  0  0  0  0  0  0  0  0  0
    1.4241    8.2406    7.7963 H   0  0  0  0  0  0  0  0  0  0  0  0
    3.3488    8.8697    7.9701 C   0  0  0  0  0  0  0  0  0  0  0  0
    3.5605    8.2916    8.6924 H   0  0  0  0  0  0  0  0  0  0  0  0
    4.3418    9.7112    7.4663 C   0  0  0  0  0  0  0  0  0  0  0  0
    5.7514    9.7010    8.0563 C   0  0  0  0  0  0  0  0  0  0  0  0
    6.3378    8.2636    7.9735 C   0  0  0  0  0  0  0  0  0  0  0  0
    5.7571    7.6443    8.4622 H   0  0  0  0  0  0  0  0  0  0  0  0
    7.2342    8.2524    8.3696 H   0  0  0  0  0  0  0  0  0  0  0  0
    6.3921    7.9876    7.0356 H   0  0  0  0  0  0  0  0  0  0  0  0
    6.6666   10.6330    7.2941 C   0  0  0  0  0  0  0  0  0  0  0  0
    8.0152   10.7291    7.6361 C   0  0  0  0  0  0  0  0  0  0  0  0
    8.3473   10.2042    8.3538 H   0  0  0  0  0  0  0  0  0  0  0  0
    8.8790   11.5618    6.9645 C   0  0  0  0  0  0  0  0  0  0  0  0
    9.7958   11.5910    7.2095 H   0  0  0  0  0  0  0  0  0  0  0  0
    8.4148   12.3582    5.9287 C   0  0  0  0  0  0  0  0  0  0  0  0
    9.0129   12.9347    5.4669 H   0  0  0  0  0  0  0  0  0  0  0  0
    5.6784   10.1512    9.5109 C   0  0  0  0  0  0  0  0  0  0  0  0
    5.0879    9.5490   10.0106 H   0  0  0  0  0  0  0  0  0  0  0  0
    5.3250   11.0634    9.5524 H   0  0  0  0  0  0  0  0  0  0  0  0
    6.5761   10.1297    9.9045 H   0  0  0  0  0  0  0  0  0  0  0  0
    2.0770   15.4052    1.5243 B   0  0  0  0  0  0  0  0  0  0  0  0
    1.5887   15.8163    2.4445 H   0  0  0  0  0  0  0  0  0  0  0  0
    3.8597   15.8332    1.0245 B   0  0  0  0  0  0  0  0  0  0  0  0
    4.5128   16.5205    1.6207 H   0  0  0  0  0  0  0  0  0  0  0  0
    2.4522   16.4428    0.1427 B   0  0  0  0  0  0  0  0  0  0  0  0
    2.2094   17.5347    0.1964 H   0  0  0  0  0  0  0  0  0  0  0  0
    3.8848   15.8422   -0.7395 B   0  0  0  0  0  0  0  0  0  0  0  0
    4.5818   16.5401   -1.2708 H   0  0  0  0  0  0  0  0  0  0  0  0
    4.5509   14.3761    0.0111 B   0  0  0  0  0  0  0  0  0  0  0  0
    5.6428   14.1313   -0.0497 H   0  0  0  0  0  0  0  0  0  0  0  0
    3.4793   14.2239   -1.3936 B   0  0  0  0  0  0  0  0  0  0  0  0
    3.9141   13.8567   -2.3588 H   0  0  0  0  0  0  0  0  0  0  0  0
    3.1624   13.0407   -0.1027 B   0  0  0  0  0  0  0  0  0  0  0  0
    3.3681   11.9480   -0.2347 H   0  0  0  0  0  0  0  0  0  0  0  0
    1.6582   13.7013    0.8322 B   0  0  0  0  0  0  0  0  0  0  0  0
    0.9036   13.0210    1.3047 H   0  0  0  0  0  0  0  0  0  0  0  0
    1.1655   15.2068    0.0287 B   0  0  0  0  0  0  0  0  0  0  0  0
    0.0820   15.4887    0.0023 H   0  0  0  0  0  0  0  0  0  0  0  0
    1.8028   13.8359   -0.9135 B   0  0  0  0  0  0  0  0  0  0  0  0
    1.1311   13.2172   -1.5620 H   0  0  0  0  0  0  0  0  0  0  0  0
    2.2495   15.5062   -1.3527 B   0  0  0  0  0  0  0  0  0  0  0  0
    1.8761   15.9850   -2.2933 H   0  0  0  0  0  0  0  0  0  0  0  0
  1  2  2  0  0  0  0
  2  3  1  0  0  0  0
  3  6  1  0  0  0  0
  4  2  1  0  0  0  0
  5  2  1  0  0  0  0
  6  7  4  0  0  0  0
  7  8  1  0  0  0  0
  9  7  4  0  0  0  0
 10  9  1  0  0  0  0
 11  9  4  0  0  0  0
 12 11  1  0  0  0  0
 13 11  4  0  0  0  0
 14 13  1  0  0  0  0
 15  6  4  0  0  0  0
 16 15  1  0  0  0  0
 17  3  1  0  0  0  0
 18 17  4  0  0  0  0
 19 18  1  0  0  0  0
 20 18  4  0  0  0  0
 21 20  1  0  0  0  0
 22 20  4  0  0  0  0
 23 22  1  0  0  0  0
 24 22  4  0  0  0  0
 25 24  1  0  0  0  0
 26 17  4  0  0  0  0
 27 26  1  0  0  0  0
 28  3  1  0  0  0  0
 29  5  1  0  0  0  0
 30  5  1  0  0  0  0
 31  4  1  0  0  0  0
 32  4  1  0  0  0  0
 33 32  4  0  0  0  0
 34 33  1  0  0  0  0
 35 33  4  0  0  0  0
 36 35  1  0  0  0  0
 37 35  4  0  0  0  0
 38 37  1  0  0  0  0
 39 37  4  0  0  0  0
 40 39  1  0  0  0  0
 41 32  4  0  0  0  0
 42 41  1  0  0  0  0
 43  4  1  0  0  0  0
 44 43  4  0  0  0  0
 45 44  1  0  0  0  0
 46 44  4  0  0  0  0
 47 46  1  0  0  0  0
 48 46  4  0  0  0  0
 49 48  1  0  0  0  0
 50 48  4  0  0  0  0
 51 50  1  0  0  0  0
 52 43  4  0  0  0  0
 53 52  1  0  0  0  0
 54 31  4  0  0  0  0
 55 54  1  0  0  0  0
 56 54  4  0  0  0  0
 57 56  1  0  0  0  0
 58 56  4  0  0  0  0
 59 58  1  0  0  0  0
 60 30  4  0  0  0  0
 61 60  1  0  0  0  0
 62 61  1  0  0  0  0
 63 62  1  0  0  0  0
 64 62  1  0  0  0  0
 65 62  1  0  0  0  0
 66 29  4  0  0  0  0
 67 66  4  0  0  0  0
 68 67  1  0  0  0  0
 69 67  4  0  0  0  0
 70 69  1  0  0  0  0
 71 28  4  0  0  0  0
 72 71  1  0  0  0  0
 73 61  1  0  0  0  0
 74 73  1  0  0  0  0
 75 73  1  0  0  0  0
 76 73  1  0  0  0  0
 77  1  1  0  0  0  0
 78 77  1  0  0  0  0
 79  1  1  0  0  0  0
 80 79  1  0  0  0  0
 81 77  1  0  0  0  0
 82 81  1  0  0  0  0
 83 79  1  0  0  0  0
 84 83  1  0  0  0  0
 85  1  1  0  0  0  0
 86 85  1  0  0  0  0
 87 83  1  0  0  0  0
 88 87  1  0  0  0  0
 89  1  1  0  0  0  0
 90 89  1  0  0  0  0
 91  1  1  0  0  0  0
 92 91  1  0  0  0  0
 93 77  1  0  0  0  0
 94 93  1  0  0  0  0
 95 87  1  0  0  0  0
 96 95  1  0  0  0  0
 97 81  1  0  0  0  0
 98 97  1  0  0  0  0
 13 15  4  0  0  0  0
 24 26  4  0  0  0  0
 28 29  4  0  0  0  0
 30 31  4  0  0  0  0
 39 41  4  0  0  0  0
 50 52  4  0  0  0  0
 58 60  4  0  0  0  0
 61 66  1  0  0  0  0
 69 71  4  0  0  0  0
 77 79  1  0  0  0  0
 77 91  1  0  0  0  0
 79 81  1  0  0  0  0
 79 85  1  0  0  0  0
 81 83  1  0  0  0  0
 81 93  1  0  0  0  0
 83 85  1  0  0  0  0
 83 97  1  0  0  0  0
 85 87  1  0  0  0  0
 85 89  1  0  0  0  0
 87 89  1  0  0  0  0
 87 97  1  0  0  0  0
 89 91  1  0  0  0  0
 89 95  1  0  0  0  0
 91 93  1  0  0  0  0
 91 95  1  0  0  0  0
 93 95  1  0  0  0  0
 93 97  1  0  0  0  0
 95 97  1  0  0  0  0
M  END
$$$$
KIMHOF

From CSD data. Using bond type 'Any'. No disordered atoms. Largest molecule.
138146  0  0  0  0  0  0  0  0999 V2000
    8.3975    1.8504    2.7801 P   0  0  0  0  0  0  0  0  0  0  0  0
    5.5535    0.8329    3.2702 P   0  0  0  0  0  0  0  0  0  0  0  0
    8.4697    2.9042    3.8776 O   0  0  0  0  0  0  0  0  0  0  0  0
    7.2305    5.6703    3.2728 O   0  0  0  0  0  0  0  0  0  0  0  0
    6.8597    1.3346    2.2621 C   0  5  0  0  0  0  0  0  0  0  0  0
    6.7065    1.3218    1.3244 H   0  0  0  0  0  0  0  0  0  0  0  0
    9.4935    0.5196    3.3670 C   0  0  0  0  0  0  0  0  0  0  0  0
   10.7851    0.8649    3.7761 C   0  0  0  0  0  0  0  0  0  0  0  0
   11.0691    1.7698    3.7218 H   0  0  0  0  0  0  0  0  0  0  0  0
   11.6550   -0.0977    4.2599 C   0  0  0  0  0  0  0  0  0  0  0  0
   12.5322    0.1460    4.5304 H   0  0  0  0  0  0  0  0  0  0  0  0
   11.2435   -1.4180    4.3489 C   0  0  0  0  0  0  0  0  0  0  0  0
   11.8368   -2.0783    4.6875 H   0  0  0  0  0  0  0  0  0  0  0  0
    9.9741   -1.7757    3.9474 C   0  0  0  0  0  0  0  0  0  0  0  0
    9.6949   -2.6818    4.0116 H   0  0  0  0  0  0  0  0  0  0  0  0
    9.0987   -0.8115    3.4474 C   0  0  0  0  0  0  0  0  0  0  0  0
    8.2293   -1.0654    3.1605 H   0  0  0  0  0  0  0  0  0  0  0  0
    9.2110    2.4350    1.2717 C   0  0  0  0  0  0  0  0  0  0  0  0
    9.7179    1.5260    0.3442 C   0  0  0  0  0  0  0  0  0  0  0  0
    9.6844    0.5955    0.5310 H   0  0  0  0  0  0  0  0  0  0  0  0
   10.2715    1.9682   -0.8488 C   0  0  0  0  0  0  0  0  0  0  0  0
   10.6091    1.3421   -1.4784 H   0  0  0  0  0  0  0  0  0  0  0  0
   10.3310    3.3242   -1.1208 C   0  0  0  0  0  0  0  0  0  0  0  0
   10.7047    3.6288   -1.9394 H   0  0  0  0  0  0  0  0  0  0  0  0
    9.8472    4.2338   -0.2022 C   0  0  0  0  0  0  0  0  0  0  0  0
    9.8989    5.1640   -0.3861 H   0  0  0  0  0  0  0  0  0  0  0  0
    9.2841    3.7952    0.9931 C   0  0  0  0  0  0  0  0  0  0  0  0
    8.9489    4.4266    1.6192 H   0  0  0  0  0  0  0  0  0  0  0  0
    5.0807   -0.8850    2.8493 C   0  0  0  0  0  0  0  0  0  0  0  0
    5.7690   -1.5869    1.8668 C   0  0  0  0  0  0  0  0  0  0  0  0
    6.5168   -1.1862    1.4389 H   0  0  0  0  0  0  0  0  0  0  0  0
    5.3734   -2.8709    1.5035 C   0  0  0  0  0  0  0  0  0  0  0  0
    5.8508   -3.3430    0.8319 H   0  0  0  0  0  0  0  0  0  0  0  0
    4.2863   -3.4595    2.1193 C   0  0  0  0  0  0  0  0  0  0  0  0
    4.0178   -4.3368    1.8726 H   0  0  0  0  0  0  0  0  0  0  0  0
    3.5884   -2.7712    3.0956 C   0  0  0  0  0  0  0  0  0  0  0  0
    2.8392   -3.1760    3.5171 H   0  0  0  0  0  0  0  0  0  0  0  0
    3.9802   -1.4917    3.4598 C   0  0  0  0  0  0  0  0  0  0  0  0
    3.4966   -1.0234    4.1302 H   0  0  0  0  0  0  0  0  0  0  0  0
    4.0465    1.7118    2.7145 C   0  0  0  0  0  0  0  0  0  0  0  0
    3.4763    1.3933    1.4807 C   0  0  0  0  0  0  0  0  0  0  0  0
    3.8361    0.6811    0.9657 H   0  0  0  0  0  0  0  0  0  0  0  0
    2.3893    2.1087    1.0007 C   0  0  0  0  0  0  0  0  0  0  0  0
    2.0141    1.8887    0.1560 H   0  0  0  0  0  0  0  0  0  0  0  0
    1.8505    3.1348    1.7419 C   0  0  0  0  0  0  0  0  0  0  0  0
    1.1067    3.6229    1.4085 H   0  0  0  0  0  0  0  0  0  0  0  0
    2.3915    3.4549    2.9727 C   0  0  0  0  0  0  0  0  0  0  0  0
    2.0179    4.1617    3.4857 H   0  0  0  0  0  0  0  0  0  0  0  0
    3.4875    2.7418    3.4623 C   0  0  0  0  0  0  0  0  0  0  0  0
    3.8531    2.9609    4.3116 H   0  0  0  0  0  0  0  0  0  0  0  0
    5.9758    5.0076    3.0350 C   0  0  0  0  0  0  0  0  0  0  0  0
    5.2678    5.4621    3.5577 H   0  0  0  0  0  0  0  0  0  0  0  0
    6.0389    4.0747    3.3591 H   0  0  0  0  0  0  0  0  0  0  0  0
    5.5788    4.9958    1.5787 C   0  0  0  0  0  0  0  0  0  0  0  0
    5.4288    5.9153    1.2737 H   0  0  0  0  0  0  0  0  0  0  0  0
    4.7542    4.4768    1.4693 H   0  0  0  0  0  0  0  0  0  0  0  0
    6.2944    4.5878    1.0488 H   0  0  0  0  0  0  0  0  0  0  0  0
    7.1981    7.0871    3.0317 C   0  0  0  0  0  0  0  0  0  0  0  0
    7.5703    7.5633    3.8161 H   0  0  0  0  0  0  0  0  0  0  0  0
    6.2596    7.3789    2.9132 H   0  0  0  0  0  0  0  0  0  0  0  0
    7.9931    7.4468    1.8039 C   0  0  0  0  0  0  0  0  0  0  0  0
    8.9123    7.1206    1.9020 H   0  0  0  0  0  0  0  0  0  0  0  0
    8.0021    8.4208    1.6942 H   0  0  0  0  0  0  0  0  0  0  0  0
    7.5822    7.0334    1.0163 H   0  0  0  0  0  0  0  0  0  0  0  0
    5.8609    1.0366    5.1721 B   0  0  0  0  0  0  0  0  0  0  0  0
    6.8621    0.5452    5.3492 H   0  0  0  0  0  0  0  0  0  0  0  0
    5.0279    0.5431    5.7119 H   0  0  0  0  0  0  0  0  0  0  0  0
    5.8876    2.1630    5.4059 H   0  0  0  0  0  0  0  0  0  0  0  0
    8.5181    4.7266    4.4159 Li  0  3  0  0  0  0  0  0  0  0  0  0
    8.1086    5.3986    7.3529 P   0  0  0  0  0  0  0  0  0  0  0  0
   10.9526    6.4161    6.8627 P   0  0  0  0  0  0  0  0  0  0  0  0
    8.0364    4.3448    6.2554 O   0  0  0  0  0  0  0  0  0  0  0  0
    9.2755    1.5787    6.8601 O   0  0  0  0  0  0  0  0  0  0  0  0
    9.6464    5.9144    7.8709 C   0  5  0  0  0  0  0  0  0  0  0  0
    9.7996    5.9273    8.8086 H   0  0  0  0  0  0  0  0  0  0  0  0
    7.0125    6.7294    6.7660 C   0  0  0  0  0  0  0  0  0  0  0  0
    5.7210    6.3841    6.3568 C   0  0  0  0  0  0  0  0  0  0  0  0
    5.4370    5.4792    6.4111 H   0  0  0  0  0  0  0  0  0  0  0  0
    4.8511    7.3467    5.8731 C   0  0  0  0  0  0  0  0  0  0  0  0
    3.9739    7.1030    5.6025 H   0  0  0  0  0  0  0  0  0  0  0  0
    5.2625    8.6670    5.7841 C   0  0  0  0  0  0  0  0  0  0  0  0
    4.6693    9.3273    5.4454 H   0  0  0  0  0  0  0  0  0  0  0  0
    6.5320    9.0247    6.1856 C   0  0  0  0  0  0  0  0  0  0  0  0
    6.8112    9.9308    6.1213 H   0  0  0  0  0  0  0  0  0  0  0  0
    7.4074    8.0606    6.6855 C   0  0  0  0  0  0  0  0  0  0  0  0
    8.2767    8.3144    6.9725 H   0  0  0  0  0  0  0  0  0  0  0  0
    7.2951    4.8140    8.8613 C   0  0  0  0  0  0  0  0  0  0  0  0
    6.7881    5.7230    9.7887 C   0  0  0  0  0  0  0  0  0  0  0  0
    6.8217    6.6535    9.6020 H   0  0  0  0  0  0  0  0  0  0  0  0
    6.2346    5.2808   10.9818 C   0  0  0  0  0  0  0  0  0  0  0  0
    5.8969    5.9069   11.6113 H   0  0  0  0  0  0  0  0  0  0  0  0
    6.1751    3.9248   11.2537 C   0  0  0  0  0  0  0  0  0  0  0  0
    5.8013    3.6203   12.0724 H   0  0  0  0  0  0  0  0  0  0  0  0
    6.6589    3.0152   10.3351 C   0  0  0  0  0  0  0  0  0  0  0  0
    6.6072    2.0850   10.5190 H   0  0  0  0  0  0  0  0  0  0  0  0
    7.2219    3.4538    9.1398 C   0  0  0  0  0  0  0  0  0  0  0  0
    7.5571    2.8224    8.5137 H   0  0  0  0  0  0  0  0  0  0  0  0
   11.4253    8.1340    7.2837 C   0  0  0  0  0  0  0  0  0  0  0  0
   10.7370    8.8359    8.2661 C   0  0  0  0  0  0  0  0  0  0  0  0
    9.9893    8.4352    8.6941 H   0  0  0  0  0  0  0  0  0  0  0  0
   11.1327   10.1199    8.6294 C   0  0  0  0  0  0  0  0  0  0  0  0
   10.6553   10.5920    9.3010 H   0  0  0  0  0  0  0  0  0  0  0  0
   12.2198   10.7085    8.0136 C   0  0  0  0  0  0  0  0  0  0  0  0
   12.4883   11.5858    8.2604 H   0  0  0  0  0  0  0  0  0  0  0  0
   12.9176   10.0203    7.0373 C   0  0  0  0  0  0  0  0  0  0  0  0
   13.6669   10.4250    6.6158 H   0  0  0  0  0  0  0  0  0  0  0  0
   12.5258    8.7407    6.6731 C   0  0  0  0  0  0  0  0  0  0  0  0
   13.0095    8.2724    6.0028 H   0  0  0  0  0  0  0  0  0  0  0  0
   12.4595    5.5372    7.4184 C   0  0  0  0  0  0  0  0  0  0  0  0
   13.0297    5.8557    8.6522 C   0  0  0  0  0  0  0  0  0  0  0  0
   12.6699    6.5679    9.1673 H   0  0  0  0  0  0  0  0  0  0  0  0
   14.1167    5.1403    9.1322 C   0  0  0  0  0  0  0  0  0  0  0  0
   14.4919    5.3603    9.9769 H   0  0  0  0  0  0  0  0  0  0  0  0
   14.6555    4.1142    8.3911 C   0  0  0  0  0  0  0  0  0  0  0  0
   15.3994    3.6261    8.7245 H   0  0  0  0  0  0  0  0  0  0  0  0
   14.1146    3.7941    7.1602 C   0  0  0  0  0  0  0  0  0  0  0  0
   14.4882    3.0873    6.6472 H   0  0  0  0  0  0  0  0  0  0  0  0
   13.0185    4.5072    6.6706 C   0  0  0  0  0  0  0  0  0  0  0  0
   12.6529    4.2881    5.8214 H   0  0  0  0  0  0  0  0  0  0  0  0
   10.5302    2.2414    7.0979 C   0  0  0  0  0  0  0  0  0  0  0  0
   11.2382    1.7869    6.5753 H   0  0  0  0  0  0  0  0  0  0  0  0
   10.4671    3.1743    6.7739 H   0  0  0  0  0  0  0  0  0  0  0  0
   10.9272    2.2532    8.5542 C   0  0  0  0  0  0  0  0  0  0  0  0
   11.0773    1.3337    8.8592 H   0  0  0  0  0  0  0  0  0  0  0  0
   11.7518    2.7722    8.6637 H   0  0  0  0  0  0  0  0  0  0  0  0
   10.2116    2.6612    9.0842 H   0  0  0  0  0  0  0  0  0  0  0  0
    9.3079    0.1620    7.1013 C   0  0  0  0  0  0  0  0  0  0  0  0
    8.9357   -0.3143    6.3169 H   0  0  0  0  0  0  0  0  0  0  0  0
   10.2465   -0.1299    7.2197 H   0  0  0  0  0  0  0  0  0  0  0  0
    8.5129   -0.1978    8.3291 C   0  0  0  0  0  0  0  0  0  0  0  0
    7.5937    0.1284    8.2310 H   0  0  0  0  0  0  0  0  0  0  0  0
    8.5040   -1.1718    8.4387 H   0  0  0  0  0  0  0  0  0  0  0  0
    8.9239    0.2156    9.1166 H   0  0  0  0  0  0  0  0  0  0  0  0
   10.6451    6.2124    4.9609 B   0  0  0  0  0  0  0  0  0  0  0  0
    9.6439    6.7038    4.7838 H   0  0  0  0  0  0  0  0  0  0  0  0
   11.4782    6.7060    4.4210 H   0  0  0  0  0  0  0  0  0  0  0  0
   10.6184    5.0860    4.7270 H   0  0  0  0  0  0  0  0  0  0  0  0
    7.9879    2.5224    5.7170 Li  0  3  0  0  0  0  0  0  0  0  0  0
  1  3  2  0  0  0  0
  2  5  1  0  0  0  0
  3 69  1  0  0  0  0
  4 51  1  0  0  0  0
  5  1  1  0  0  0  0
  6  5  1  0  0  0  0
  7  1  1  0  0  0  0
  8  7  4  0  0  0  0
  9  8  1  0  0  0  0
 10  8  4  0  0  0  0
 11 10  1  0  0  0  0
 12 10  4  0  0  0  0
 13 12  1  0  0  0  0
 14 12  4  0  0  0  0
 15 14  1  0  0  0  0
 16  7  4  0  0  0  0
 17 16  1  0  0  0  0
 18  1  1  0  0  0  0
 19 18  4  0  0  0  0
 20 19  1  0  0  0  0
 21 19  4  0  0  0  0
 22 21  1  0  0  0  0
 23 21  4  0  0  0  0
 24 23  1  0  0  0  0
 25 23  4  0  0  0  0
 26 25  1  0  0  0  0
 27 18  4  0  0  0  0
 28 27  1  0  0  0  0
 29  2  1  0  0  0  0
 30 29  4  0  0  0  0
 31 30  1  0  0  0  0
 32 30  4  0  0  0  0
 33 32  1  0  0  0  0
 34 32  4  0  0  0  0
 35 34  1  0  0  0  0
 36 34  4  0  0  0  0
 37 36  1  0  0  0  0
 38 29  4  0  0  0  0
 39 38  1  0  0  0  0
 40  2  1  0  0  0  0
 41 40  4  0  0  0  0
 42 41  1  0  0  0  0
 43 41  4  0  0  0  0
 44 43  1  0  0  0  0
 45 43  4  0  0  0  0
 46 45  1  0  0  0  0
 47 45  4  0  0  0  0
 48 47  1  0  0  0  0
 49 40  4  0  0  0  0
 50 49  1  0  0  0  0
 51 52  1  0  0  0  0
 53 51  1  0  0  0  0
 54 51  1  0  0  0  0
 55 54  1  0  0  0  0
 56 54  1  0  0  0  0
 57 54  1  0  0  0  0
 58  4  1  0  0  0  0
 59 58  1  0  0  0  0
 60 58  1  0  0  0  0
 61 58  1  0  0  0  0
 62 61  1  0  0  0  0
 63 61  1  0  0  0  0
 64 61  1  0  0  0  0
 65  2  1  0  0  0  0
 66 65  1  0  0  0  0
 67 65  1  0  0  0  0
 68 65  1  0  0  0  0
 69  4  1  0  0  0  0
 70 72  2  0  0  0  0
 71 74  1  0  0  0  0
 72 69  1  0  0  0  0
 73120  1  0  0  0  0
 74 70  1  0  0  0  0
 75 74  1  0  0  0  0
 76 70  1  0  0  0  0
 77 76  4  0  0  0  0
 78 77  1  0  0  0  0
 79 77  4  0  0  0  0
 80 79  1  0  0  0  0
 81 79  4  0  0  0  0
 82 81  1  0  0  0  0
 83 81  4  0  0  0  0
 84 83  1  0  0  0  0
 85 76  4  0  0  0  0
 86 85  1  0  0  0  0
 87 70  1  0  0  0  0
 88 87  4  0  0  0  0
 89 88  1  0  0  0  0
 90 88  4  0  0  0  0
 91 90  1  0  0  0  0
 92 90  4  0  0  0  0
 93 92  1  0  0  0  0
 94 92  4  0  0  0  0
 95 94  1  0  0  0  0
 96 87  4  0  0  0  0
 97 96  1  0  0  0  0
 98 71  1  0  0  0  0
 99 98  4  0  0  0  0
100 99  1  0  0  0  0
101 99  4  0  0  0  0
102101  1  0  0  0  0
103101  4  0  0  0  0
104103  1  0  0  0  0
105103  4  0  0  0  0
106105  1  0  0  0  0
107 98  4  0  0  0  0
108107  1  0  0  0  0
109 71  1  0  0  0  0
110109  4  0  0  0  0
111110  1  0  0  0  0
112110  4  0  0  0  0
113112  1  0  0  0  0
114112  4  0  0  0  0
115114  1  0  0  0  0
116114  4  0  0  0  0
117116  1  0  0  0  0
118109  4  0  0  0  0
119118  1  0  0  0  0
120121  1  0  0  0  0
122120  1  0  0  0  0
123120  1  0  0  0  0
124123  1  0  0  0  0
125123  1  0  0  0  0
126123  1  0  0  0  0
127 73  1  0  0  0  0
128127  1  0  0  0  0
129127  1  0  0  0  0
130127  1  0  0  0  0
131130  1  0  0  0  0
132130  1  0  0  0  0
133130  1  0  0  0  0
134 71  1  0  0  0  0
135134  1  0  0  0  0
136134  1  0  0  0  0
137134  1  0  0  0  0
138  3  1  0  0  0  0
 14 16  4  0  0  0  0
 25 27  4  0  0  0  0
 36 38  4  0  0  0  0
 47 49  4  0  0  0  0
 72138  1  0  0  0  0
 73138  1  0  0  0  0
 83 85  4  0  0  0  0
 94 96  4  0  0  0  0
105107  4  0  0  0  0
116118  4  0  0  0  0
M  CHG  4   5  -1  69   1  74  -1 138   1
M  END
$$$$
KIMHUL

From CSD data. Using bond type 'Any'. No disordered atoms. Largest molecule.
134144  0  0  0  0  0  0  0  0999 V2000
   -1.5377    3.4473    3.6727 S   0  0  0  0  0  0  0  0  0  0  0  0
    2.1027    4.2861    4.1683 S   0  0  0  0  0  0  0  0  0  0  0  0
   -2.2334    3.0125    1.8133 P   0  0  0  0  0  0  0  0  0  0  0  0
    0.0308    3.8027   -0.1019 P   0  0  0  0  0  0  0  0  0  0  0  0
    2.8958    5.0415    5.8568 P   0  0  0  0  0  0  0  0  0  0  0  0
    0.6106    4.6321    7.9060 P   0  0  0  0  0  0  0  0  0  0  0  0
   -0.6390    7.0030    4.0380 O   0  0  0  0  0  0  0  0  0  0  0  0
    1.2045    0.8674    4.2418 O   0  0  0  0  0  0  0  0  0  0  0  0
   -1.1754    2.7388    0.5116 C   0  5  0  0  0  0  0  0  0  0  0  0
   -1.2020    1.9236    0.1931 H   0  0  0  0  0  0  0  0  0  0  0  0
    1.6550    2.9669    0.0068 C   0  0  0  0  0  0  0  0  0  0  0  0
    2.7578    3.5789    0.5722 C   0  0  0  0  0  0  0  0  0  0  0  0
    2.6909    4.4535    0.8792 H   0  0  0  0  0  0  0  0  0  0  0  0
    3.9726    2.8968    0.6891 C   0  0  0  0  0  0  0  0  0  0  0  0
    4.7029    3.3154    1.0841 H   0  0  0  0  0  0  0  0  0  0  0  0
    4.0871    1.6181    0.2228 C   0  0  0  0  0  0  0  0  0  0  0  0
    4.9007    1.1720    0.2926 H   0  0  0  0  0  0  0  0  0  0  0  0
    3.0007    0.9812   -0.3520 C   0  0  0  0  0  0  0  0  0  0  0  0
    3.0819    0.1099   -0.6653 H   0  0  0  0  0  0  0  0  0  0  0  0
    1.7841    1.6559   -0.4623 C   0  0  0  0  0  0  0  0  0  0  0  0
    1.0540    1.2302   -0.8495 H   0  0  0  0  0  0  0  0  0  0  0  0
   -0.1997    3.8956   -1.9200 C   0  0  0  0  0  0  0  0  0  0  0  0
   -1.2385    3.2290   -2.5563 C   0  0  0  0  0  0  0  0  0  0  0  0
   -1.8326    2.7173   -2.0554 H   0  0  0  0  0  0  0  0  0  0  0  0
   -1.4007    3.3187   -3.9384 C   0  0  0  0  0  0  0  0  0  0  0  0
   -2.0947    2.8628   -4.3573 H   0  0  0  0  0  0  0  0  0  0  0  0
   -0.5254    4.0901   -4.6841 C   0  0  0  0  0  0  0  0  0  0  0  0
   -0.6376    4.1641   -5.6048 H   0  0  0  0  0  0  0  0  0  0  0  0
    0.5157    4.7493   -4.0608 C   0  0  0  0  0  0  0  0  0  0  0  0
    1.1081    5.2601   -4.5638 H   0  0  0  0  0  0  0  0  0  0  0  0
    0.6813    4.6528   -2.6910 C   0  0  0  0  0  0  0  0  0  0  0  0
    1.3865    5.0968   -2.2797 H   0  0  0  0  0  0  0  0  0  0  0  0
   -3.2265    1.4907    2.0000 C   0  0  0  0  0  0  0  0  0  0  0  0
   -2.8285    0.2649    1.5104 C   0  0  0  0  0  0  0  0  0  0  0  0
   -2.0599    0.2021    0.9891 H   0  0  0  0  0  0  0  0  0  0  0  0
   -3.5740   -0.8875    1.7925 C   0  0  0  0  0  0  0  0  0  0  0  0
   -3.3004   -1.7086    1.4524 H   0  0  0  0  0  0  0  0  0  0  0  0
   -4.7029   -0.8168    2.5663 C   0  0  0  0  0  0  0  0  0  0  0  0
   -5.1849   -1.5858    2.7712 H   0  0  0  0  0  0  0  0  0  0  0  0
   -5.1111    0.4074    3.0341 C   0  0  0  0  0  0  0  0  0  0  0  0
   -5.8839    0.4672    3.5494 H   0  0  0  0  0  0  0  0  0  0  0  0
   -4.3871    1.5567    2.7504 C   0  0  0  0  0  0  0  0  0  0  0  0
   -4.6845    2.3795    3.0682 H   0  0  0  0  0  0  0  0  0  0  0  0
   -3.4588    4.3325    1.4811 C   0  0  0  0  0  0  0  0  0  0  0  0
   -4.1616    4.9373    2.5247 C   0  0  0  0  0  0  0  0  0  0  0  0
   -3.9846    4.6943    3.4054 H   0  0  0  0  0  0  0  0  0  0  0  0
   -5.1245    5.9018    2.2499 C   0  0  0  0  0  0  0  0  0  0  0  0
   -5.6094    6.2817    2.9465 H   0  0  0  0  0  0  0  0  0  0  0  0
   -5.3647    6.3027    0.9520 C   0  0  0  0  0  0  0  0  0  0  0  0
   -6.0072    6.9509    0.7723 H   0  0  0  0  0  0  0  0  0  0  0  0
   -4.6404    5.7305   -0.0817 C   0  0  0  0  0  0  0  0  0  0  0  0
   -4.7822    6.0118   -0.9564 H   0  0  0  0  0  0  0  0  0  0  0  0
   -3.7058    4.7428    0.1788 C   0  0  0  0  0  0  0  0  0  0  0  0
   -3.2410    4.3516   -0.5242 H   0  0  0  0  0  0  0  0  0  0  0  0
    1.8965    5.5052    7.1624 C   0  5  0  0  0  0  0  0  0  0  0  0
    2.1353    6.3609    7.4998 H   0  0  0  0  0  0  0  0  0  0  0  0
    4.2198    3.8576    6.3091 C   0  0  0  0  0  0  0  0  0  0  0  0
    5.4450    3.8630    5.6302 C   0  0  0  0  0  0  0  0  0  0  0  0
    5.5988    4.4890    4.9588 H   0  0  0  0  0  0  0  0  0  0  0  0
    6.4334    2.9420    5.9509 C   0  0  0  0  0  0  0  0  0  0  0  0
    7.2550    2.9727    5.5187 H   0  0  0  0  0  0  0  0  0  0  0  0
    6.1932    1.9721    6.9202 C   0  0  0  0  0  0  0  0  0  0  0  0
    6.8423    1.3352    7.1137 H   0  0  0  0  0  0  0  0  0  0  0  0
    4.9905    1.9611    7.5927 C   0  0  0  0  0  0  0  0  0  0  0  0
    4.8294    1.3174    8.2439 H   0  0  0  0  0  0  0  0  0  0  0  0
    4.0164    2.9123    7.2999 C   0  0  0  0  0  0  0  0  0  0  0  0
    3.2173    2.9129    7.7761 H   0  0  0  0  0  0  0  0  0  0  0  0
    3.8058    6.5627    5.4285 C   0  0  0  0  0  0  0  0  0  0  0  0
    3.5248    7.2547    4.2603 C   0  0  0  0  0  0  0  0  0  0  0  0
    2.8807    6.9299    3.6742 H   0  0  0  0  0  0  0  0  0  0  0  0
    4.2021    8.4297    3.9623 C   0  0  0  0  0  0  0  0  0  0  0  0
    3.9961    8.9037    3.1885 H   0  0  0  0  0  0  0  0  0  0  0  0
    5.1893    8.8959    4.8192 C   0  0  0  0  0  0  0  0  0  0  0  0
    5.6595    9.6699    4.6068 H   0  0  0  0  0  0  0  0  0  0  0  0
    5.4744    8.2128    5.9850 C   0  0  0  0  0  0  0  0  0  0  0  0
    6.1316    8.5303    6.5612 H   0  0  0  0  0  0  0  0  0  0  0  0
    4.7764    7.0481    6.2960 C   0  0  0  0  0  0  0  0  0  0  0  0
    4.9593    6.5953    7.0870 H   0  0  0  0  0  0  0  0  0  0  0  0
    1.0239    4.3067    9.6636 C   0  0  0  0  0  0  0  0  0  0  0  0
    2.3085    4.4738   10.1518 C   0  0  0  0  0  0  0  0  0  0  0  0
    2.9736    4.8091    9.5968 H   0  0  0  0  0  0  0  0  0  0  0  0
    2.6071    4.1423   11.4718 C   0  0  0  0  0  0  0  0  0  0  0  0
    3.4723    4.2579   11.7933 H   0  0  0  0  0  0  0  0  0  0  0  0
    1.6256    3.6423   12.3040 C   0  0  0  0  0  0  0  0  0  0  0  0
    1.8314    3.4076   13.1804 H   0  0  0  0  0  0  0  0  0  0  0  0
    0.3284    3.4921   11.8283 C   0  0  0  0  0  0  0  0  0  0  0  0
   -0.3378    3.1700   12.3918 H   0  0  0  0  0  0  0  0  0  0  0  0
    0.0284    3.8211   10.5177 C   0  0  0  0  0  0  0  0  0  0  0  0
   -0.8408    3.7180   10.2027 H   0  0  0  0  0  0  0  0  0  0  0  0
   -0.8344    5.7442    8.0817 C   0  0  0  0  0  0  0  0  0  0  0  0
   -0.7418    6.8669    8.9049 C   0  0  0  0  0  0  0  0  0  0  0  0
    0.0487    7.0399    9.3622 H   0  0  0  0  0  0  0  0  0  0  0  0
   -1.8209    7.7283    9.0475 C   0  0  0  0  0  0  0  0  0  0  0  0
   -1.7525    8.4737    9.5983 H   0  0  0  0  0  0  0  0  0  0  0  0
   -3.0023    7.4726    8.3645 C   0  0  0  0  0  0  0  0  0  0  0  0
   -3.7293    8.0453    8.4592 H   0  0  0  0  0  0  0  0  0  0  0  0
   -3.0935    6.3771    7.5531 C   0  0  0  0  0  0  0  0  0  0  0  0
   -3.8863    6.2122    7.0959 H   0  0  0  0  0  0  0  0  0  0  0  0
   -2.0176    5.4956    7.3972 C   0  0  0  0  0  0  0  0  0  0  0  0
   -2.0929    4.7525    6.8419 H   0  0  0  0  0  0  0  0  0  0  0  0
   -0.0158    7.9968    4.8741 C   0  0  0  0  0  0  0  0  0  0  0  0
    0.6271    8.5141    4.3633 H   0  0  0  0  0  0  0  0  0  0  0  0
    0.4451    7.5749    5.6152 H   0  0  0  0  0  0  0  0  0  0  0  0
   -1.1161    8.8827    5.3761 C   0  0  0  0  0  0  0  0  0  0  0  0
   -0.8086    9.7944    5.4890 H   0  0  0  0  0  0  0  0  0  0  0  0
   -1.4706    8.5578    6.2197 H   0  0  0  0  0  0  0  0  0  0  0  0
   -2.1407    8.7841    4.2831 C   0  0  0  0  0  0  0  0  0  0  0  0
   -3.0293    8.9813    4.6187 H   0  0  0  0  0  0  0  0  0  0  0  0
   -1.9348    9.3919    3.5554 H   0  0  0  0  0  0  0  0  0  0  0  0
   -2.0341    7.3567    3.8420 C   0  0  0  0  0  0  0  0  0  0  0  0
   -2.6109    6.7877    4.3766 H   0  0  0  0  0  0  0  0  0  0  0  0
   -2.2845    7.2662    2.9093 H   0  0  0  0  0  0  0  0  0  0  0  0
    2.5092    0.4785    4.6870 C   0  0  0  0  0  0  0  0  0  0  0  0
    2.5315    0.4171    5.6553 H   0  0  0  0  0  0  0  0  0  0  0  0
    3.1715    1.1267    4.4019 H   0  0  0  0  0  0  0  0  0  0  0  0
    2.7767   -0.8115    4.0930 C   0  0  0  0  0  0  0  0  0  0  0  0
    2.4748   -1.5260    4.6781 H   0  0  0  0  0  0  0  0  0  0  0  0
    3.7269   -0.9230    3.9296 H   0  0  0  0  0  0  0  0  0  0  0  0
    2.0068   -0.8293    2.7935 C   0  0  0  0  0  0  0  0  0  0  0  0
    1.6885   -1.7216    2.5886 H   0  0  0  0  0  0  0  0  0  0  0  0
    2.5573   -0.5140    2.0584 H   0  0  0  0  0  0  0  0  0  0  0  0
    0.8427    0.1245    3.0549 C   0  0  0  0  0  0  0  0  0  0  0  0
    0.7174    0.7226    2.3019 H   0  0  0  0  0  0  0  0  0  0  0  0
    0.0219   -0.3718    3.1989 H   0  0  0  0  0  0  0  0  0  0  0  0
    0.0819    5.5734    0.6713 B   0  0  0  0  0  0  0  0  0  0  0  0
    0.3117    6.0295    0.2079 H   0  0  0  0  0  0  0  0  0  0  0  0
    0.7209    5.5123    1.5445 H   0  0  0  0  0  0  0  0  0  0  0  0
   -0.8168    5.8517    0.9802 H   0  0  0  0  0  0  0  0  0  0  0  0
    0.0737    2.9542    7.1085 B   0  0  0  0  0  0  0  0  0  0  0  0
   -0.5021    2.3924    7.8563 H   0  0  0  0  0  0  0  0  0  0  0  0
   -0.4745    3.1683    6.2226 H   0  0  0  0  0  0  0  0  0  0  0  0
    0.8902    2.4732    6.8315 H   0  0  0  0  0  0  0  0  0  0  0  0
   -0.0037    5.3668    3.3489 Li  0  3  0  0  0  0  0  0  0  0  0  0
    0.4988    2.5444    4.7316 Li  0  3  0  0  0  0  0  0  0  0  0  0
  1  3  2  0  0  0  0
  2  5  2  0  0  0  0
  3  9  1  0  0  0  0
  4  9  1  0  0  0  0
  5 55  1  0  0  0  0
  6 55  1  0  0  0  0
  7101  1  0  0  0  0
  8113  1  0  0  0  0
  9 10  1  0  0  0  0
 11  4  1  0  0  0  0
 12 11  4  0  0  0  0
 13 12  1  0  0  0  0
 14 12  4  0  0  0  0
 15 14  1  0  0  0  0
 16 14  4  0  0  0  0
 17 16  1  0  0  0  0
 18 16  4  0  0  0  0
 19 18  1  0  0  0  0
 20 11  4  0  0  0  0
 21 20  1  0  0  0  0
 22  4  1  0  0  0  0
 23 22  4  0  0  0  0
 24 23  1  0  0  0  0
 25 23  4  0  0  0  0
 26 25  1  0  0  0  0
 27 25  4  0  0  0  0
 28 27  1  0  0  0  0
 29 27  4  0  0  0  0
 30 29  1  0  0  0  0
 31 22  4  0  0  0  0
 32 31  1  0  0  0  0
 33  3  1  0  0  0  0
 34 33  4  0  0  0  0
 35 34  1  0  0  0  0
 36 34  4  0  0  0  0
 37 36  1  0  0  0  0
 38 36  4  0  0  0  0
 39 38  1  0  0  0  0
 40 38  4  0  0  0  0
 41 40  1  0  0  0  0
 42 33  4  0  0  0  0
 43 42  1  0  0  0  0
 44  3  1  0  0  0  0
 45 44  4  0  0  0  0
 46 45  1  0  0  0  0
 47 45  4  0  0  0  0
 48 47  1  0  0  0  0
 49 47  4  0  0  0  0
 50 49  1  0  0  0  0
 51 49  4  0  0  0  0
 52 51  1  0  0  0  0
 53 44  4  0  0  0  0
 54 53  1  0  0  0  0
 55 56  1  0  0  0  0
 57  5  1  0  0  0  0
 58 57  4  0  0  0  0
 59 58  1  0  0  0  0
 60 58  4  0  0  0  0
 61 60  1  0  0  0  0
 62 60  4  0  0  0  0
 63 62  1  0  0  0  0
 64 62  4  0  0  0  0
 65 64  1  0  0  0  0
 66 57  4  0  0  0  0
 67 66  1  0  0  0  0
 68  5  1  0  0  0  0
 69 68  4  0  0  0  0
 70 69  1  0  0  0  0
 71 69  4  0  0  0  0
 72 71  1  0  0  0  0
 73 71  4  0  0  0  0
 74 73  1  0  0  0  0
 75 73  4  0  0  0  0
 76 75  1  0  0  0  0
 77 68  4  0  0  0  0
 78 77  1  0  0  0  0
 79  6  1  0  0  0  0
 80 79  4  0  0  0  0
 81 80  1  0  0  0  0
 82 80  4  0  0  0  0
 83 82  1  0  0  0  0
 84 82  4  0  0  0  0
 85 84  1  0  0  0  0
 86 84  4  0  0  0  0
 87 86  1  0  0  0  0
 88 79  4  0  0  0  0
 89 88  1  0  0  0  0
 90  6  1  0  0  0  0
 91 90  4  0  0  0  0
 92 91  1  0  0  0  0
 93 91  4  0  0  0  0
 94 93  1  0  0  0  0
 95 93  4  0  0  0  0
 96 95  1  0  0  0  0
 97 95  4  0  0  0  0
 98 97  1  0  0  0  0
 99 90  4  0  0  0  0
100 99  1  0  0  0  0
101102  1  0  0  0  0
103101  1  0  0  0  0
104101  1  0  0  0  0
105104  1  0  0  0  0
106104  1  0  0  0  0
107104  1  0  0  0  0
108107  1  0  0  0  0
109107  1  0  0  0  0
110  7  1  0  0  0  0
111110  1  0  0  0  0
112110  1  0  0  0  0
113114  1  0  0  0  0
115113  1  0  0  0  0
116113  1  0  0  0  0
117116  1  0  0  0  0
118116  1  0  0  0  0
119116  1  0  0  0  0
120119  1  0  0  0  0
121119  1  0  0  0  0
122  8  1  0  0  0  0
123122  1  0  0  0  0
124122  1  0  0  0  0
125  4  1  0  0  0  0
126125  1  0  0  0  0
127125  1  0  0  0  0
128125  1  0  0  0  0
129  6  1  0  0  0  0
130129  1  0  0  0  0
131129  1  0  0  0  0
132129  1  0  0  0  0
133  1  1  0  0  0  0
134  1  1  0  0  0  0
  2133  1  0  0  0  0
  2134  1  0  0  0  0
  7133  1  0  0  0  0
  8134  1  0  0  0  0
 18 20  4  0  0  0  0
 29 31  4  0  0  0  0
 40 42  4  0  0  0  0
 51 53  4  0  0  0  0
 64 66  4  0  0  0  0
 75 77  4  0  0  0  0
 86 88  4  0  0  0  0
 97 99  4  0  0  0  0
107110  1  0  0  0  0
119122  1  0  0  0  0
M  CHG  4   9  -1  55  -1 133   1 134   1
M  END
$$$$
KIQDAS

From CSD data. Using bond type 'Any'. No disordered atoms. Largest molecule.
121129  0  0  0  0  0  0  0  0999 V2000
    9.1038   11.0033    3.9171 P   0  0  0  0  0  0  0  0  0  0  0  0
   12.7986    6.2353    5.2135 Si  0  0  0  0  0  0  0  0  0  0  0  0
   11.9433    7.4726    4.5500 O   0  0  0  0  0  0  0  0  0  0  0  0
   10.4336    8.9786    5.7196 C   0  0  0  0  0  0  0  0  0  0  0  0
   11.2100    9.5772    5.5820 H   0  0  0  0  0  0  0  0  0  0  0  0
   10.4638    8.6674    6.6590 H   0  0  0  0  0  0  0  0  0  0  0  0
    9.0650    9.8601    5.5161 B   0  0  0  0  0  0  0  0  0  0  0  0
   10.5986    7.7870    4.8274 C   0  0  0  0  0  0  0  0  0  0  0  0
    6.7675    8.6473    6.7818 P   0  0  0  0  0  0  0  0  0  0  0  0
    7.6654    8.7867    5.0429 B   0  0  0  0  0  0  0  0  0  0  0  0
    9.6334    7.0801    4.2641 C   0  0  0  0  0  0  0  0  0  0  0  0
    9.8969    6.3475    3.7197 H   0  0  0  0  0  0  0  0  0  0  0  0
    8.1535    7.3293    4.4060 C   0  0  0  0  0  0  0  0  0  0  0  0
    7.7783    6.6099    4.9732 H   0  0  0  0  0  0  0  0  0  0  0  0
    7.7437    7.2380    3.5095 H   0  0  0  0  0  0  0  0  0  0  0  0
   13.0081    6.4689    7.0400 C   0  0  0  0  0  0  0  0  0  0  0  0
   13.5425    7.2731    7.2073 H   0  0  0  0  0  0  0  0  0  0  0  0
   13.4643    5.6888    7.4190 H   0  0  0  0  0  0  0  0  0  0  0  0
   12.1281    6.5684    7.4597 H   0  0  0  0  0  0  0  0  0  0  0  0
    8.9170   10.9386    6.7544 C   0  0  0  0  0  0  0  0  0  0  0  0
   11.6991   12.2001    4.0450 C   0  0  0  0  0  0  0  0  0  0  0  0
   11.8264   11.5906    4.8146 H   0  0  0  0  0  0  0  0  0  0  0  0
   12.0567   11.7545    3.2366 H   0  0  0  0  0  0  0  0  0  0  0  0
   12.4581   13.4987    4.2907 C   0  0  0  0  0  0  0  0  0  0  0  0
   13.4233   13.3013    4.3892 H   0  0  0  0  0  0  0  0  0  0  0  0
   12.1423   13.9091    5.1344 H   0  0  0  0  0  0  0  0  0  0  0  0
   14.4534    6.3014    4.3707 C   0  0  0  0  0  0  0  0  0  0  0  0
   14.3283    6.2445    3.4004 H   0  0  0  0  0  0  0  0  0  0  0  0
   15.0045    5.5498    4.6737 H   0  0  0  0  0  0  0  0  0  0  0  0
   14.9000    7.1447    4.5936 H   0  0  0  0  0  0  0  0  0  0  0  0
   11.9769    4.5986    4.8944 C   0  0  0  0  0  0  0  0  0  0  0  0
   11.7909    4.5077    3.9366 H   0  0  0  0  0  0  0  0  0  0  0  0
   11.1365    4.5516    5.3963 H   0  0  0  0  0  0  0  0  0  0  0  0
   12.5702    3.8736    5.1822 H   0  0  0  0  0  0  0  0  0  0  0  0
    6.4578    9.3931    4.0909 C   0  0  0  0  0  0  0  0  0  0  0  0
    5.4640    8.5270    3.6112 C   0  0  0  0  0  0  0  0  0  0  0  0
    5.5159    7.6093    3.8516 H   0  0  0  0  0  0  0  0  0  0  0  0
    7.4360   11.7458    3.9702 C   0  0  0  0  0  0  0  0  0  0  0  0
    7.2835   12.1375    4.8665 H   0  0  0  0  0  0  0  0  0  0  0  0
    7.3857   12.4784    3.3061 H   0  0  0  0  0  0  0  0  0  0  0  0
    4.4087    8.9335    2.8050 C   0  0  0  0  0  0  0  0  0  0  0  0
    3.7679    8.3038    2.4961 H   0  0  0  0  0  0  0  0  0  0  0  0
    5.2699   11.1578    2.8968 C   0  0  0  0  0  0  0  0  0  0  0  0
    5.1983   12.0754    2.6611 H   0  0  0  0  0  0  0  0  0  0  0  0
    4.3039   10.2710    2.4576 C   0  0  0  0  0  0  0  0  0  0  0  0
    3.5782   10.5746    1.9250 H   0  0  0  0  0  0  0  0  0  0  0  0
    9.8716    9.0739   -0.3444 C   0  0  0  0  0  0  0  0  0  0  0  0
    9.8211    8.3296   -0.9953 H   0  0  0  0  0  0  0  0  0  0  0  0
   10.3379    9.8309   -0.7796 H   0  0  0  0  0  0  0  0  0  0  0  0
    9.2241   10.0446    2.3547 C   0  0  0  0  0  0  0  0  0  0  0  0
    8.7890    9.1667    2.5541 H   0  0  0  0  0  0  0  0  0  0  0  0
    6.3484   10.7369    3.6786 C   0  0  0  0  0  0  0  0  0  0  0  0
   10.6643    8.6249    0.8812 C   0  0  0  0  0  0  0  0  0  0  0  0
   11.5960    8.4250    0.6128 H   0  0  0  0  0  0  0  0  0  0  0  0
   10.2657    7.7935    1.2419 H   0  0  0  0  0  0  0  0  0  0  0  0
   10.0181   13.4187    2.6465 C   0  0  0  0  0  0  0  0  0  0  0  0
   10.3566   12.9722    1.8303 H   0  0  0  0  0  0  0  0  0  0  0  0
    9.0553   13.6088    2.5162 H   0  0  0  0  0  0  0  0  0  0  0  0
   10.1995   12.4861    3.8559 C   0  0  0  0  0  0  0  0  0  0  0  0
    9.9376   13.0356    4.6492 H   0  0  0  0  0  0  0  0  0  0  0  0
   10.6718    9.6955    1.9722 C   0  0  0  0  0  0  0  0  0  0  0  0
   11.1366   10.5057    1.6438 H   0  0  0  0  0  0  0  0  0  0  0  0
   11.1573    9.3607    2.7674 H   0  0  0  0  0  0  0  0  0  0  0  0
    8.4791   10.5899    1.1259 C   0  0  0  0  0  0  0  0  0  0  0  0
    7.5535   10.8382    1.3741 H   0  0  0  0  0  0  0  0  0  0  0  0
    8.9375   11.3979    0.7833 H   0  0  0  0  0  0  0  0  0  0  0  0
    8.4582    9.5039    0.0478 C   0  0  0  0  0  0  0  0  0  0  0  0
    7.9584    8.7184    0.3843 H   0  0  0  0  0  0  0  0  0  0  0  0
    7.9862    9.8461   -0.7524 H   0  0  0  0  0  0  0  0  0  0  0  0
   10.7724   14.7273    2.8629 C   0  0  0  0  0  0  0  0  0  0  0  0
   10.3718   15.2128    3.6270 H   0  0  0  0  0  0  0  0  0  0  0  0
   10.6787   15.2955    2.0576 H   0  0  0  0  0  0  0  0  0  0  0  0
   12.2573   14.4855    3.1405 C   0  0  0  0  0  0  0  0  0  0  0  0
   12.6897   14.1297    2.3241 H   0  0  0  0  0  0  0  0  0  0  0  0
   12.6927   15.3454    3.3667 H   0  0  0  0  0  0  0  0  0  0  0  0
   10.0005   12.5876    8.2326 C   0  0  0  0  0  0  0  0  0  0  0  0
   10.7798   13.0766    8.4699 H   0  0  0  0  0  0  0  0  0  0  0  0
   10.0370   11.6793    7.1839 C   0  0  0  0  0  0  0  0  0  0  0  0
   10.8617   11.5496    6.7306 H   0  0  0  0  0  0  0  0  0  0  0  0
    8.8187   12.7758    8.9305 C   0  0  0  0  0  0  0  0  0  0  0  0
    8.7773   13.3927    9.6518 H   0  0  0  0  0  0  0  0  0  0  0  0
    7.7017   12.0522    8.5611 C   0  0  0  0  0  0  0  0  0  0  0  0
    6.8922   12.1681    9.0445 H   0  0  0  0  0  0  0  0  0  0  0  0
    7.7368   11.1560    7.4948 C   0  0  0  0  0  0  0  0  0  0  0  0
    6.4693   10.3883    7.2187 C   0  0  0  0  0  0  0  0  0  0  0  0
    5.9830   10.8271    6.4765 H   0  0  0  0  0  0  0  0  0  0  0  0
    5.8909   10.4236    8.0214 H   0  0  0  0  0  0  0  0  0  0  0  0
    5.0679    7.9054    6.8818 C   0  0  0  0  0  0  0  0  0  0  0  0
    4.6103    8.1872    6.0385 H   0  0  0  0  0  0  0  0  0  0  0  0
    4.1532    8.3931    8.0165 C   0  0  0  0  0  0  0  0  0  0  0  0
    4.5415    8.1273    8.8875 H   0  0  0  0  0  0  0  0  0  0  0  0
    4.1019    9.3816    7.9939 H   0  0  0  0  0  0  0  0  0  0  0  0
    2.7495    7.8128    7.8922 C   0  0  0  0  0  0  0  0  0  0  0  0
    2.2072    8.1001    8.6691 H   0  0  0  0  0  0  0  0  0  0  0  0
    2.3207    8.1671    7.0733 H   0  0  0  0  0  0  0  0  0  0  0  0
    2.7709    6.2936    7.8300 C   0  0  0  0  0  0  0  0  0  0  0  0
    1.8517    5.9541    7.6883 H   0  0  0  0  0  0  0  0  0  0  0  0
    3.1041    5.9307    8.6887 H   0  0  0  0  0  0  0  0  0  0  0  0
    3.6704    5.8231    6.6927 C   0  0  0  0  0  0  0  0  0  0  0  0
    3.7012    4.8335    6.6874 H   0  0  0  0  0  0  0  0  0  0  0  0
    3.2894    6.1212    5.8290 H   0  0  0  0  0  0  0  0  0  0  0  0
    5.0837    6.3697    6.8351 C   0  0  0  0  0  0  0  0  0  0  0  0
    5.6339    6.0678    6.0695 H   0  0  0  0  0  0  0  0  0  0  0  0
    5.4925    6.0178    7.6652 H   0  0  0  0  0  0  0  0  0  0  0  0
    7.8524    8.0058    8.1148 C   0  0  0  0  0  0  0  0  0  0  0  0
    8.6246    8.6403    8.1470 H   0  0  0  0  0  0  0  0  0  0  0  0
    8.4766    6.6374    7.8176 C   0  0  0  0  0  0  0  0  0  0  0  0
    7.7716    5.9425    7.8187 H   0  0  0  0  0  0  0  0  0  0  0  0
    8.8957    6.6505    6.9207 H   0  0  0  0  0  0  0  0  0  0  0  0
    9.5297    6.3020    8.8715 C   0  0  0  0  0  0  0  0  0  0  0  0
    9.8953    5.3996    8.6928 H   0  0  0  0  0  0  0  0  0  0  0  0
   10.2745    6.9512    8.8076 H   0  0  0  0  0  0  0  0  0  0  0  0
    8.9493    6.3400   10.2772 C   0  0  0  0  0  0  0  0  0  0  0  0
    8.2719    5.6244   10.3725 H   0  0  0  0  0  0  0  0  0  0  0  0
    9.6695    6.1693   10.9348 H   0  0  0  0  0  0  0  0  0  0  0  0
    8.3063    7.6868   10.5705 C   0  0  0  0  0  0  0  0  0  0  0  0
    9.0052    8.3879   10.5817 H   0  0  0  0  0  0  0  0  0  0  0  0
    7.8857    7.6607   11.4664 H   0  0  0  0  0  0  0  0  0  0  0  0
    7.2497    8.0430    9.5264 C   0  0  0  0  0  0  0  0  0  0  0  0
    6.8941    8.9484    9.7107 H   0  0  0  0  0  0  0  0  0  0  0  0
    6.4987    7.4005    9.5827 H   0  0  0  0  0  0  0  0  0  0  0  0
  1  7  1  0  0  0  0
  2  3  1  0  0  0  0
  3  8  1  0  0  0  0
  4  5  1  0  0  0  0
  6  4  1  0  0  0  0
  7  4  1  0  0  0  0
  8  4  1  0  0  0  0
  9 10  1  0  0  0  0
 10  7  1  0  0  0  0
 11  8  2  0  0  0  0
 12 11  1  0  0  0  0
 13 10  1  0  0  0  0
 14 13  1  0  0  0  0
 15 13  1  0  0  0  0
 16  2  1  0  0  0  0
 17 16  1  0  0  0  0
 18 16  1  0  0  0  0
 19 16  1  0  0  0  0
 20  7  1  0  0  0  0
 21 22  1  0  0  0  0
 23 21  1  0  0  0  0
 24 21  1  0  0  0  0
 25 24  1  0  0  0  0
 26 24  1  0  0  0  0
 27  2  1  0  0  0  0
 28 27  1  0  0  0  0
 29 27  1  0  0  0  0
 30 27  1  0  0  0  0
 31  2  1  0  0  0  0
 32 31  1  0  0  0  0
 33 31  1  0  0  0  0
 34 31  1  0  0  0  0
 35 10  1  0  0  0  0
 36 35  4  0  0  0  0
 37 36  1  0  0  0  0
 38  1  1  0  0  0  0
 39 38  1  0  0  0  0
 40 38  1  0  0  0  0
 41 36  4  0  0  0  0
 42 41  1  0  0  0  0
 43 44  1  0  0  0  0
 45 41  4  0  0  0  0
 46 45  1  0  0  0  0
 47 48  1  0  0  0  0
 49 47  1  0  0  0  0
 50  1  1  0  0  0  0
 51 50  1  0  0  0  0
 52 35  4  0  0  0  0
 53 47  1  0  0  0  0
 54 53  1  0  0  0  0
 55 53  1  0  0  0  0
 56 57  1  0  0  0  0
 58 56  1  0  0  0  0
 59  1  1  0  0  0  0
 60 59  1  0  0  0  0
 61 50  1  0  0  0  0
 62 61  1  0  0  0  0
 63 61  1  0  0  0  0
 64 50  1  0  0  0  0
 65 64  1  0  0  0  0
 66 64  1  0  0  0  0
 67 47  1  0  0  0  0
 68 67  1  0  0  0  0
 69 67  1  0  0  0  0
 70 56  1  0  0  0  0
 71 70  1  0  0  0  0
 72 70  1  0  0  0  0
 73 24  1  0  0  0  0
 74 73  1  0  0  0  0
 75 73  1  0  0  0  0
 76 77  1  0  0  0  0
 78 20  4  0  0  0  0
 79 78  1  0  0  0  0
 80 76  4  0  0  0  0
 81 80  1  0  0  0  0
 82 80  4  0  0  0  0
 83 82  1  0  0  0  0
 84 20  4  0  0  0  0
 85  9  1  0  0  0  0
 86 85  1  0  0  0  0
 87 85  1  0  0  0  0
 88  9  1  0  0  0  0
 89 88  1  0  0  0  0
 90 88  1  0  0  0  0
 91 90  1  0  0  0  0
 92 90  1  0  0  0  0
 93 90  1  0  0  0  0
 94 93  1  0  0  0  0
 95 93  1  0  0  0  0
 96 93  1  0  0  0  0
 97 96  1  0  0  0  0
 98 96  1  0  0  0  0
 99 96  1  0  0  0  0
100 99  1  0  0  0  0
101 99  1  0  0  0  0
102 88  1  0  0  0  0
103102  1  0  0  0  0
104102  1  0  0  0  0
105  9  1  0  0  0  0
106105  1  0  0  0  0
107105  1  0  0  0  0
108107  1  0  0  0  0
109107  1  0  0  0  0
110107  1  0  0  0  0
111110  1  0  0  0  0
112110  1  0  0  0  0
113110  1  0  0  0  0
114113  1  0  0  0  0
115113  1  0  0  0  0
116113  1  0  0  0  0
117116  1  0  0  0  0
118116  1  0  0  0  0
119105  1  0  0  0  0
120119  1  0  0  0  0
121119  1  0  0  0  0
 11 13  1  0  0  0  0
 21 59  1  0  0  0  0
 38 52  1  0  0  0  0
 43 45  4  0  0  0  0
 43 52  4  0  0  0  0
 53 61  1  0  0  0  0
 56 59  1  0  0  0  0
 64 67  1  0  0  0  0
 70 73  1  0  0  0  0
 76 78  4  0  0  0  0
 82 84  4  0  0  0  0
 84 85  1  0  0  0  0
 99102  1  0  0  0  0
116119  1  0  0  0  0
M  END
$$$$
KITNEH

From CSD data. Using bond type 'Any'. No disordered atoms. Largest molecule.
105142  0  0  0  0  0  0  0  0999 V2000
    6.6457   -2.4188    3.0330 P   0  0  0  0  0  0  0  0  0  0  0  0
   11.0345    4.1683    3.9739 P   0  0  0  0  0  0  0  0  0  0  0  0
    9.5193    0.2494    6.2905 B   0  0  0  0  0  0  0  0  0  0  0  0
    9.2089    0.9868    7.0748 H   0  0  0  0  0  0  0  0  0  0  0  0
    7.4263    3.2408    0.4058 B   0  0  0  0  0  0  0  0  0  0  0  0
    6.4467    3.7416    0.1986 H   0  0  0  0  0  0  0  0  0  0  0  0
    8.9978   -4.7570    4.1562 P   0  0  0  0  0  0  0  0  0  0  0  0
    9.0333   -1.4582    6.3408 B   0  0  0  0  0  0  0  0  0  0  0  0
    8.3764   -1.8473    7.1612 H   0  0  0  0  0  0  0  0  0  0  0  0
    8.5458    3.9436    1.5672 B   0  0  0  0  0  0  0  0  0  0  0  0
    8.2650    4.8770    2.1199 H   0  0  0  0  0  0  0  0  0  0  0  0
    8.3317   -0.3462    5.0946 B   0  0  0  0  0  0  0  0  0  0  0  0
    7.2643   -0.0105    5.1464 H   0  0  0  0  0  0  0  0  0  0  0  0
    7.6893    2.3675    1.9097 B   0  0  0  0  0  0  0  0  0  0  0  0
    6.8911    2.2846    2.6912 H   0  0  0  0  0  0  0  0  0  0  0  0
    9.6774    0.7343    4.5966 B   0  0  0  0  0  0  0  0  0  0  0  0
    7.5186    1.4847    0.3771 B   0  0  0  0  0  0  0  0  0  0  0  0
    6.6188    0.8647    0.1353 H   0  0  0  0  0  0  0  0  0  0  0  0
    9.4490    2.0400    4.3663 H   0  0  0  0  0  0  0  0  0  0  0  0
   11.1165    0.2731    5.5061 B   0  0  0  0  0  0  0  0  0  0  0  0
   11.8950    1.0375    5.7551 H   0  0  0  0  0  0  0  0  0  0  0  0
    8.3924    2.4236   -0.8534 B   0  0  0  0  0  0  0  0  0  0  0  0
    8.0697    2.3614   -1.9241 H   0  0  0  0  0  0  0  0  0  0  0  0
   10.7114   -1.0019    6.6733 B   0  0  0  0  0  0  0  0  0  0  0  0
   11.1585   -1.0582    7.6994 H   0  0  0  0  0  0  0  0  0  0  0  0
    8.9628    3.9912   -0.1727 B   0  0  0  0  0  0  0  0  0  0  0  0
    8.9723    4.9446   -0.7599 H   0  0  0  0  0  0  0  0  0  0  0  0
   10.2658    3.7065    0.9844 B   0  0  0  0  0  0  0  0  0  0  0  0
   11.0647    4.4763    1.0362 H   0  0  0  0  0  0  0  0  0  0  0  0
    8.5289   -2.4543    4.4127 Pt  0  0  0  0  0  0  0  0  0  0  0  0
    9.6858    2.6322    2.8573 Pt  0  0  0  0  0  0  0  0  0  0  0  0
    8.5972   -0.2928    2.2407 O   0  0  0  0  0  0  0  0  0  0  0  0
    9.1465   -0.5413    3.4971 B   0  0  0  0  0  0  0  0  0  0  0  0
    8.6893    0.9368    1.6075 B   0  0  0  0  0  0  0  0  0  0  0  0
   10.9903   -0.1660    3.8137 B   0  0  0  0  0  0  0  0  0  0  0  0
    9.1686    1.0122   -0.1756 B   0  0  0  0  0  0  0  0  0  0  0  0
   11.6987   -1.3401    5.2327 B   0  0  0  0  0  0  0  0  0  0  0  0
   10.1027    2.6754   -0.5512 B   0  0  0  0  0  0  0  0  0  0  0  0
   10.3657   -2.4897    5.7954 B   0  0  0  0  0  0  0  0  0  0  0  0
    9.2635    0.0704   -0.7095 H   0  0  0  0  0  0  0  0  0  0  0  0
   10.7835    2.9225   -1.4291 H   0  0  0  0  0  0  0  0  0  0  0  0
   11.5032    0.4660    3.1071 H   0  0  0  0  0  0  0  0  0  0  0  0
   12.8409   -1.7041    5.2788 H   0  0  0  0  0  0  0  0  0  0  0  0
   10.6697   -3.4827    6.2962 H   0  0  0  0  0  0  0  0  0  0  0  0
    6.8496   -2.7408    1.2549 C   0  0  0  0  0  0  0  0  0  0  0  0
    7.4909   -2.1025    0.8779 H   0  0  0  0  0  0  0  0  0  0  0  0
    5.9852   -2.6398    0.8030 H   0  0  0  0  0  0  0  0  0  0  0  0
    7.1815   -3.6527    1.1240 H   0  0  0  0  0  0  0  0  0  0  0  0
   10.7716    2.6520    0.5037 H   0  0  0  0  0  0  0  0  0  0  0  0
    5.6109   -0.9073    3.0870 C   0  0  0  0  0  0  0  0  0  0  0  0
    6.0979   -0.1633    2.6754 H   0  0  0  0  0  0  0  0  0  0  0  0
    5.4031   -0.6873    4.0181 H   0  0  0  0  0  0  0  0  0  0  0  0
    4.7777   -1.0642    2.5948 H   0  0  0  0  0  0  0  0  0  0  0  0
    8.5896   -5.6801    5.6659 C   0  0  0  0  0  0  0  0  0  0  0  0
    7.6277   -5.6163    5.8371 H   0  0  0  0  0  0  0  0  0  0  0  0
    9.0827   -5.3021    6.4229 H   0  0  0  0  0  0  0  0  0  0  0  0
    8.8394   -6.6210    5.5508 H   0  0  0  0  0  0  0  0  0  0  0  0
   10.7634   -5.1191    3.8886 C   0  0  0  0  0  0  0  0  0  0  0  0
   10.8678   -6.0564    3.6209 H   0  0  0  0  0  0  0  0  0  0  0  0
   11.2587   -4.9612    4.7189 H   0  0  0  0  0  0  0  0  0  0  0  0
   11.1140   -4.5354    3.1834 H   0  0  0  0  0  0  0  0  0  0  0  0
   10.3750    5.8402    3.7720 C   0  0  0  0  0  0  0  0  0  0  0  0
    9.4672    5.8807    4.1404 H   0  0  0  0  0  0  0  0  0  0  0  0
   10.3509    6.0705    2.8193 H   0  0  0  0  0  0  0  0  0  0  0  0
   10.9478    6.4775    4.2469 H   0  0  0  0  0  0  0  0  0  0  0  0
   11.0774    3.9790    5.7781 C   0  0  0  0  0  0  0  0  0  0  0  0
   11.6079    3.1889    6.0113 H   0  0  0  0  0  0  0  0  0  0  0  0
   10.1640    3.8713    6.1163 H   0  0  0  0  0  0  0  0  0  0  0  0
   11.4837    4.7753    6.1797 H   0  0  0  0  0  0  0  0  0  0  0  0
   10.3419   -1.1637    3.2812 H   0  0  0  0  0  0  0  0  0  0  0  0
    9.7653    0.8949    0.7771 H   0  0  0  0  0  0  0  0  0  0  0  0
   11.1199   -2.4067    4.8355 H   0  0  0  0  0  0  0  0  0  0  0  0
    5.4619   -3.6545    3.6684 C   0  0  0  0  0  0  0  0  0  0  0  0
    5.3789   -3.8296    5.0557 C   0  0  0  0  0  0  0  0  0  0  0  0
    5.9309   -3.3196    5.6371 H   0  0  0  0  0  0  0  0  0  0  0  0
    4.4883   -4.7481    5.5709 C   0  0  0  0  0  0  0  0  0  0  0  0
    4.4329   -4.8688    6.5121 H   0  0  0  0  0  0  0  0  0  0  0  0
    3.6701   -5.5004    4.7376 C   0  0  0  0  0  0  0  0  0  0  0  0
    3.0798   -6.1507    5.1003 H   0  0  0  0  0  0  0  0  0  0  0  0
    3.7257   -5.2922    3.3863 C   0  0  0  0  0  0  0  0  0  0  0  0
    3.1470   -5.7822    2.8135 H   0  0  0  0  0  0  0  0  0  0  0  0
    4.6142   -4.3776    2.8409 C   0  0  0  0  0  0  0  0  0  0  0  0
    4.6437   -4.2474    1.9011 H   0  0  0  0  0  0  0  0  0  0  0  0
    8.2264   -5.7136    2.8106 C   0  0  0  0  0  0  0  0  0  0  0  0
    7.0621   -6.4383    3.0049 C   0  0  0  0  0  0  0  0  0  0  0  0
    6.6489   -6.4479    3.8612 H   0  0  0  0  0  0  0  0  0  0  0  0
    6.4923   -7.1554    1.9500 C   0  0  0  0  0  0  0  0  0  0  0  0
    5.6923   -7.6479    2.0925 H   0  0  0  0  0  0  0  0  0  0  0  0
    7.0774   -7.1528    0.7167 C   0  0  0  0  0  0  0  0  0  0  0  0
    6.6962   -7.6595    0.0101 H   0  0  0  0  0  0  0  0  0  0  0  0
    8.2262   -6.4129    0.4951 C   0  0  0  0  0  0  0  0  0  0  0  0
    8.6223   -6.3916   -0.3684 H   0  0  0  0  0  0  0  0  0  0  0  0
    8.7953   -5.7016    1.5471 C   0  0  0  0  0  0  0  0  0  0  0  0
    9.5866   -5.1993    1.3960 H   0  0  0  0  0  0  0  0  0  0  0  0
   12.7924    4.2834    3.5158 C   0  0  0  0  0  0  0  0  0  0  0  0
   13.3936    3.3040    2.7358 C   0  0  0  0  0  0  0  0  0  0  0  0
   12.8850    2.5622    2.4278 H   0  0  0  0  0  0  0  0  0  0  0  0
   14.7297    3.4064    2.4062 C   0  0  0  0  0  0  0  0  0  0  0  0
   15.1451    2.7320    1.8824 H   0  0  0  0  0  0  0  0  0  0  0  0
   15.4631    4.4913    2.8394 C   0  0  0  0  0  0  0  0  0  0  0  0
   16.3733    4.5737    2.5818 H   0  0  0  0  0  0  0  0  0  0  0  0
   14.8937    5.4563    3.6381 C   0  0  0  0  0  0  0  0  0  0  0  0
   15.4189    6.1746    3.9677 H   0  0  0  0  0  0  0  0  0  0  0  0
   13.5418    5.3711    3.9591 C   0  0  0  0  0  0  0  0  0  0  0  0
   13.1318    6.0517    4.4800 H   0  0  0  0  0  0  0  0  0  0  0  0
  1 30  1  0  0  0  0
  2 31  1  0  0  0  0
  3  4  1  0  0  0  0
  5  6  1  0  0  0  0
  7 30  1  0  0  0  0
  8  3  1  0  0  0  0
  9  8  1  0  0  0  0
 10  5  1  0  0  0  0
 11 10  1  0  0  0  0
 12  3  1  0  0  0  0
 13 12  1  0  0  0  0
 14  5  1  0  0  0  0
 15 14  1  0  0  0  0
 16  3  1  0  0  0  0
 17  5  1  0  0  0  0
 18 17  1  0  0  0  0
 19 16  1  0  0  0  0
 20  3  1  0  0  0  0
 21 20  1  0  0  0  0
 22  5  1  0  0  0  0
 23 22  1  0  0  0  0
 24  3  1  0  0  0  0
 25 24  1  0  0  0  0
 26  5  1  0  0  0  0
 27 26  1  0  0  0  0
 28 10  1  0  0  0  0
 29 28  1  0  0  0  0
 30  8  1  0  0  0  0
 31 10  1  0  0  0  0
 32 33  1  0  0  0  0
 33 12  1  0  0  0  0
 34 14  1  0  0  0  0
 35 16  1  0  0  0  0
 36 17  1  0  0  0  0
 37 20  1  0  0  0  0
 38 22  1  0  0  0  0
 39  8  1  0  0  0  0
 40 36  1  0  0  0  0
 41 38  1  0  0  0  0
 42 35  1  0  0  0  0
 43 37  1  0  0  0  0
 44 39  1  0  0  0  0
 45  1  1  0  0  0  0
 46 45  1  0  0  0  0
 47 45  1  0  0  0  0
 48 45  1  0  0  0  0
 49 28  1  0  0  0  0
 50  1  1  0  0  0  0
 51 50  1  0  0  0  0
 52 50  1  0  0  0  0
 53 50  1  0  0  0  0
 54  7  1  0  0  0  0
 55 54  1  0  0  0  0
 56 54  1  0  0  0  0
 57 54  1  0  0  0  0
 58  7  1  0  0  0  0
 59 58  1  0  0  0  0
 60 58  1  0  0  0  0
 61 58  1  0  0  0  0
 62  2  1  0  0  0  0
 63 62  1  0  0  0  0
 64 62  1  0  0  0  0
 65 62  1  0  0  0  0
 66  2  1  0  0  0  0
 67 66  1  0  0  0  0
 68 66  1  0  0  0  0
 69 66  1  0  0  0  0
 70 33  1  0  0  0  0
 71 34  1  0  0  0  0
 72 37  1  0  0  0  0
 73  1  1  0  0  0  0
 74 73  4  0  0  0  0
 75 74  1  0  0  0  0
 76 74  4  0  0  0  0
 77 76  1  0  0  0  0
 78 76  4  0  0  0  0
 79 78  1  0  0  0  0
 80 78  4  0  0  0  0
 81 80  1  0  0  0  0
 82 73  4  0  0  0  0
 83 82  1  0  0  0  0
 84  7  1  0  0  0  0
 85 84  4  0  0  0  0
 86 85  1  0  0  0  0
 87 85  4  0  0  0  0
 88 87  1  0  0  0  0
 89 87  4  0  0  0  0
 90 89  1  0  0  0  0
 91 89  4  0  0  0  0
 92 91  1  0  0  0  0
 93 84  4  0  0  0  0
 94 93  1  0  0  0  0
 95  2  1  0  0  0  0
 96 95  4  0  0  0  0
 97 96  1  0  0  0  0
 98 96  4  0  0  0  0
 99 98  1  0  0  0  0
100 98  4  0  0  0  0
101100  1  0  0  0  0
102100  4  0  0  0  0
103102  1  0  0  0  0
104 95  4  0  0  0  0
105104  1  0  0  0  0
  8 12  1  0  0  0  0
  8 24  1  0  0  0  0
 10 14  1  0  0  0  0
 10 26  1  0  0  0  0
 12 16  1  0  0  0  0
 12 30  1  0  0  0  0
 14 17  1  0  0  0  0
 14 31  1  0  0  0  0
 16 20  1  0  0  0  0
 16 33  1  0  0  0  0
 17 22  1  0  0  0  0
 17 34  1  0  0  0  0
 19 31  1  0  0  0  0
 20 24  1  0  0  0  0
 20 35  1  0  0  0  0
 22 26  1  0  0  0  0
 22 36  1  0  0  0  0
 24 37  1  0  0  0  0
 24 39  1  0  0  0  0
 26 28  1  0  0  0  0
 26 38  1  0  0  0  0
 28 31  1  0  0  0  0
 28 38  1  0  0  0  0
 30 33  1  0  0  0  0
 30 39  1  0  0  0  0
 31 34  1  0  0  0  0
 32 34  1  0  0  0  0
 33 35  1  0  0  0  0
 34 36  1  0  0  0  0
 35 37  1  0  0  0  0
 35 70  1  0  0  0  0
 36 38  1  0  0  0  0
 36 71  1  0  0  0  0
 37 39  1  0  0  0  0
 38 49  1  0  0  0  0
 39 72  1  0  0  0  0
 80 82  4  0  0  0  0
 91 93  4  0  0  0  0
102104  4  0  0  0  0
M  END
$$$$
KOCQEZ

From CSD data. Using bond type 'Any'. No disordered atoms. Largest molecule.
101110  0  0  0  0  0  0  0  0999 V2000
    3.9691    0.0000    4.8359 Pd  0  0  0  0  0  0  0  0  0  0  0  0
    5.8964    1.0765    4.1963 Cl  0  0  0  0  0  0  0  0  0  0  0  0
    2.8749    1.3696    3.2984 P   0  0  0  0  0  0  0  0  0  0  0  0
    0.1620    6.0240    4.5032 B   0  0  0  0  0  0  0  0  0  0  0  0
    1.0502    5.1423    3.8871 O   0  0  0  0  0  0  0  0  0  0  0  0
    0.3015    5.9813    5.8969 O   0  0  0  0  0  0  0  0  0  0  0  0
    1.7873    4.5934    4.9123 C   0  0  0  0  0  0  0  0  0  0  0  0
    1.3318    5.0787    6.1329 C   0  0  0  0  0  0  0  0  0  0  0  0
    1.8902    4.7102    7.3264 C   0  0  0  0  0  0  0  0  0  0  0  0
    1.5583    5.0280    8.1572 H   0  0  0  0  0  0  0  0  0  0  0  0
    2.9777    3.8354    7.2490 C   0  0  0  0  0  0  0  0  0  0  0  0
    3.4116    3.5593    8.0479 H   0  0  0  0  0  0  0  0  0  0  0  0
    3.4386    3.3631    6.0265 C   0  0  0  0  0  0  0  0  0  0  0  0
    4.1871    2.7791    6.0178 H   0  0  0  0  0  0  0  0  0  0  0  0
    2.8500    3.7082    4.8204 C   0  0  0  0  0  0  0  0  0  0  0  0
    3.2731    3.1508    3.4818 C   0  0  0  0  0  0  0  0  0  0  0  0
    4.2484    3.2770    3.3735 H   0  0  0  0  0  0  0  0  0  0  0  0
    2.8206    3.6580    2.7632 H   0  0  0  0  0  0  0  0  0  0  0  0
    3.3618    0.9914    1.5842 C   0  0  0  0  0  0  0  0  0  0  0  0
    3.2929    1.9208    0.5697 C   0  0  0  0  0  0  0  0  0  0  0  0
    2.9592    2.7928    0.7505 H   0  0  0  0  0  0  0  0  0  0  0  0
    3.7035    1.5972   -0.7099 C   0  0  0  0  0  0  0  0  0  0  0  0
    3.6710    2.2535   -1.3956 H   0  0  0  0  0  0  0  0  0  0  0  0
    4.1623    0.3259   -1.0001 C   0  0  0  0  0  0  0  0  0  0  0  0
    4.4471    0.1056   -1.8783 H   0  0  0  0  0  0  0  0  0  0  0  0
    4.2006   -0.6104    0.0029 C   0  0  0  0  0  0  0  0  0  0  0  0
    4.4896   -1.4939   -0.1925 H   0  0  0  0  0  0  0  0  0  0  0  0
    3.8237   -0.2843    1.2922 C   0  0  0  0  0  0  0  0  0  0  0  0
    3.8813   -0.9363    1.9798 H   0  0  0  0  0  0  0  0  0  0  0  0
    1.0717    1.3317    3.3300 C   0  0  0  0  0  0  0  0  0  0  0  0
    0.3892    1.6016    4.5341 C   0  0  0  0  0  0  0  0  0  0  0  0
    0.8868    1.7946    5.3205 H   0  0  0  0  0  0  0  0  0  0  0  0
   -0.9794    1.5880    4.5893 C   0  0  0  0  0  0  0  0  0  0  0  0
   -1.4205    1.7785    5.4085 H   0  0  0  0  0  0  0  0  0  0  0  0
   -1.7144    1.3035    3.4751 C   0  0  0  0  0  0  0  0  0  0  0  0
   -2.6639    1.3081    3.5176 H   0  0  0  0  0  0  0  0  0  0  0  0
   -1.0751    1.0120    2.2883 C   0  0  0  0  0  0  0  0  0  0  0  0
   -1.5842    0.7917    1.5165 H   0  0  0  0  0  0  0  0  0  0  0  0
    0.3212    1.0350    2.2226 C   0  0  0  0  0  0  0  0  0  0  0  0
    0.7556    0.8445    1.3995 H   0  0  0  0  0  0  0  0  0  0  0  0
   -0.7977    6.9809    3.7643 C   0  0  0  0  0  0  0  0  0  0  0  0
   -0.7707    7.1209    2.3947 C   0  0  0  0  0  0  0  0  0  0  0  0
   -0.1604    6.6023    1.8831 H   0  0  0  0  0  0  0  0  0  0  0  0
   -1.6062    7.9907    1.7641 C   0  0  0  0  0  0  0  0  0  0  0  0
   -1.5808    8.0641    0.8173 H   0  0  0  0  0  0  0  0  0  0  0  0
   -2.4843    8.7594    2.4798 C   0  0  0  0  0  0  0  0  0  0  0  0
   -3.0435    9.3836    2.0330 H   0  0  0  0  0  0  0  0  0  0  0  0
   -2.5544    8.6286    3.8397 C   0  0  0  0  0  0  0  0  0  0  0  0
   -3.1833    9.1427    4.3330 H   0  0  0  0  0  0  0  0  0  0  0  0
   -1.7146    7.7543    4.4955 C   0  0  0  0  0  0  0  0  0  0  0  0
   -1.7573    7.6740    5.4414 H   0  0  0  0  0  0  0  0  0  0  0  0
    2.0418   -1.0765    5.4755 Cl  0  0  0  0  0  0  0  0  0  0  0  0
    5.0634   -1.3696    6.3734 P   0  0  0  0  0  0  0  0  0  0  0  0
    7.7763   -6.0240    5.1686 B   0  0  0  0  0  0  0  0  0  0  0  0
    6.8880   -5.1423    5.7847 O   0  0  0  0  0  0  0  0  0  0  0  0
    7.6368   -5.9813    3.7749 O   0  0  0  0  0  0  0  0  0  0  0  0
    6.1510   -4.5934    4.7595 C   0  0  0  0  0  0  0  0  0  0  0  0
    6.6065   -5.0787    3.5389 C   0  0  0  0  0  0  0  0  0  0  0  0
    6.0481   -4.7102    2.3454 C   0  0  0  0  0  0  0  0  0  0  0  0
    6.3800   -5.0280    1.5146 H   0  0  0  0  0  0  0  0  0  0  0  0
    4.9606   -3.8354    2.4228 C   0  0  0  0  0  0  0  0  0  0  0  0
    4.5266   -3.5593    1.6239 H   0  0  0  0  0  0  0  0  0  0  0  0
    4.4997   -3.3631    3.6453 C   0  0  0  0  0  0  0  0  0  0  0  0
    3.7512   -2.7791    3.6540 H   0  0  0  0  0  0  0  0  0  0  0  0
    5.0883   -3.7082    4.8514 C   0  0  0  0  0  0  0  0  0  0  0  0
    4.6651   -3.1508    6.1900 C   0  0  0  0  0  0  0  0  0  0  0  0
    3.6898   -3.2770    6.2983 H   0  0  0  0  0  0  0  0  0  0  0  0
    5.1177   -3.6580    6.9086 H   0  0  0  0  0  0  0  0  0  0  0  0
    4.5765   -0.9914    8.0876 C   0  0  0  0  0  0  0  0  0  0  0  0
    4.6453   -1.9208    9.1021 C   0  0  0  0  0  0  0  0  0  0  0  0
    4.9791   -2.7928    8.9213 H   0  0  0  0  0  0  0  0  0  0  0  0
    4.2348   -1.5972   10.3817 C   0  0  0  0  0  0  0  0  0  0  0  0
    4.2673   -2.2535   11.0674 H   0  0  0  0  0  0  0  0  0  0  0  0
    3.7760   -0.3259   10.6719 C   0  0  0  0  0  0  0  0  0  0  0  0
    3.4912   -0.1056   11.5501 H   0  0  0  0  0  0  0  0  0  0  0  0
    3.7377    0.6104    9.6689 C   0  0  0  0  0  0  0  0  0  0  0  0
    3.4487    1.4939    9.8643 H   0  0  0  0  0  0  0  0  0  0  0  0
    4.1145    0.2843    8.3796 C   0  0  0  0  0  0  0  0  0  0  0  0
    4.0570    0.9363    7.6920 H   0  0  0  0  0  0  0  0  0  0  0  0
    6.8666   -1.3317    6.3418 C   0  0  0  0  0  0  0  0  0  0  0  0
    7.5491   -1.6016    5.1377 C   0  0  0  0  0  0  0  0  0  0  0  0
    7.0515   -1.7946    4.3513 H   0  0  0  0  0  0  0  0  0  0  0  0
    8.9177   -1.5880    5.0825 C   0  0  0  0  0  0  0  0  0  0  0  0
    9.3588   -1.7785    4.2633 H   0  0  0  0  0  0  0  0  0  0  0  0
    9.6527   -1.3035    6.1967 C   0  0  0  0  0  0  0  0  0  0  0  0
   10.6022   -1.3081    6.1542 H   0  0  0  0  0  0  0  0  0  0  0  0
    9.0134   -1.0120    7.3835 C   0  0  0  0  0  0  0  0  0  0  0  0
    9.5225   -0.7917    8.1553 H   0  0  0  0  0  0  0  0  0  0  0  0
    7.6171   -1.0350    7.4492 C   0  0  0  0  0  0  0  0  0  0  0  0
    7.1827   -0.8445    8.2723 H   0  0  0  0  0  0  0  0  0  0  0  0
    8.7359   -6.9809    5.9075 C   0  0  0  0  0  0  0  0  0  0  0  0
    8.7090   -7.1209    7.2771 C   0  0  0  0  0  0  0  0  0  0  0  0
    8.0987   -6.6023    7.7887 H   0  0  0  0  0  0  0  0  0  0  0  0
    9.5445   -7.9907    7.9077 C   0  0  0  0  0  0  0  0  0  0  0  0
    9.5191   -8.0641    8.8545 H   0  0  0  0  0  0  0  0  0  0  0  0
   10.4226   -8.7594    7.1920 C   0  0  0  0  0  0  0  0  0  0  0  0
   10.9818   -9.3836    7.6388 H   0  0  0  0  0  0  0  0  0  0  0  0
   10.4927   -8.6286    5.8321 C   0  0  0  0  0  0  0  0  0  0  0  0
   11.1215   -9.1427    5.3388 H   0  0  0  0  0  0  0  0  0  0  0  0
    9.6529   -7.7543    5.1763 C   0  0  0  0  0  0  0  0  0  0  0  0
    9.6955   -7.6740    4.2304 H   0  0  0  0  0  0  0  0  0  0  0  0
  1  2  1  0  0  0  0
  3  1  1  0  0  0  0
  4  5  1  0  0  0  0
  5  7  1  0  0  0  0
  6  4  1  0  0  0  0
  7  8  4  0  0  0  0
  8  6  1  0  0  0  0
  9  8  4  0  0  0  0
 10  9  1  0  0  0  0
 11  9  4  0  0  0  0
 12 11  1  0  0  0  0
 13 11  4  0  0  0  0
 14 13  1  0  0  0  0
 15  7  4  0  0  0  0
 16  3  1  0  0  0  0
 17 16  1  0  0  0  0
 18 16  1  0  0  0  0
 19  3  1  0  0  0  0
 20 19  4  0  0  0  0
 21 20  1  0  0  0  0
 22 20  4  0  0  0  0
 23 22  1  0  0  0  0
 24 22  4  0  0  0  0
 25 24  1  0  0  0  0
 26 24  4  0  0  0  0
 27 26  1  0  0  0  0
 28 19  4  0  0  0  0
 29 28  1  0  0  0  0
 30  3  1  0  0  0  0
 31 30  4  0  0  0  0
 32 31  1  0  0  0  0
 33 31  4  0  0  0  0
 34 33  1  0  0  0  0
 35 33  4  0  0  0  0
 36 35  1  0  0  0  0
 37 35  4  0  0  0  0
 38 37  1  0  0  0  0
 39 30  4  0  0  0  0
 40 39  1  0  0  0  0
 41  4  1  0  0  0  0
 42 41  4  0  0  0  0
 43 42  1  0  0  0  0
 44 42  4  0  0  0  0
 45 44  1  0  0  0  0
 46 44  4  0  0  0  0
 47 46  1  0  0  0  0
 48 46  4  0  0  0  0
 49 48  1  0  0  0  0
 50 41  4  0  0  0  0
 51 50  1  0  0  0  0
 52  1  1  0  0  0  0
 53  1  1  0  0  0  0
 54 55  1  0  0  0  0
 55 57  1  0  0  0  0
 56 54  1  0  0  0  0
 57 58  4  0  0  0  0
 58 56  1  0  0  0  0
 59 58  4  0  0  0  0
 60 59  1  0  0  0  0
 61 59  4  0  0  0  0
 62 61  1  0  0  0  0
 63 61  4  0  0  0  0
 64 63  1  0  0  0  0
 65 57  4  0  0  0  0
 66 53  1  0  0  0  0
 67 66  1  0  0  0  0
 68 66  1  0  0  0  0
 69 53  1  0  0  0  0
 70 69  4  0  0  0  0
 71 70  1  0  0  0  0
 72 70  4  0  0  0  0
 73 72  1  0  0  0  0
 74 72  4  0  0  0  0
 75 74  1  0  0  0  0
 76 74  4  0  0  0  0
 77 76  1  0  0  0  0
 78 69  4  0  0  0  0
 79 78  1  0  0  0  0
 80 53  1  0  0  0  0
 81 80  4  0  0  0  0
 82 81  1  0  0  0  0
 83 81  4  0  0  0  0
 84 83  1  0  0  0  0
 85 83  4  0  0  0  0
 86 85  1  0  0  0  0
 87 85  4  0  0  0  0
 88 87  1  0  0  0  0
 89 80  4  0  0  0  0
 90 89  1  0  0  0  0
 91 54  1  0  0  0  0
 92 91  4  0  0  0  0
 93 92  1  0  0  0  0
 94 92  4  0  0  0  0
 95 94  1  0  0  0  0
 96 94  4  0  0  0  0
 97 96  1  0  0  0  0
 98 96  4  0  0  0  0
 99 98  1  0  0  0  0
100 91  4  0  0  0  0
101100  1  0  0  0  0
 13 15  4  0  0  0  0
 15 16  1  0  0  0  0
 26 28  4  0  0  0  0
 37 39  4  0  0  0  0
 48 50  4  0  0  0  0
 63 65  4  0  0  0  0
 65 66  1  0  0  0  0
 76 78  4  0  0  0  0
 87 89  4  0  0  0  0
 98100  4  0  0  0  0
M  END
$$$$
KOJHEZ

From CSD data. Using bond type 'Any'. No disordered atoms. Largest molecule.
128134  0  0  0  0  0  0  0  0999 V2000
    2.1010   10.0203    9.2282 Ca  0  0  0  0  0  0  0  0  0  0  0  0
    2.0857   13.3277   11.0508 P   0  0  0  0  0  0  0  0  0  0  0  0
    1.7244    8.2302   12.4039 P   0  0  0  0  0  0  0  0  0  0  0  0
    2.1626   12.1522   10.1704 O   0  0  0  0  0  0  0  0  0  0  0  0
    1.5346    9.1944   11.2969 O   0  0  0  0  0  0  0  0  0  0  0  0
    0.1424   10.7865    8.2774 O   0  0  0  0  0  0  0  0  0  0  0  0
    4.3242    9.9680    8.3109 N   0  0  0  0  0  0  0  0  0  0  0  0
    3.3982    6.2678    7.0095 N   0  0  0  0  0  0  0  0  0  0  0  0
    4.1719    6.0778    6.6853 H   0  0  0  0  0  0  0  0  0  0  0  0
    5.7592    8.3820    7.0747 N   0  0  0  0  0  0  0  0  0  0  0  0
    5.8452    7.6230    6.6797 H   0  0  0  0  0  0  0  0  0  0  0  0
    1.9282    7.8698    8.1563 N   0  0  0  0  0  0  0  0  0  0  0  0
    2.5291    8.8863   13.6450 N   0  0  0  0  0  0  0  0  0  0  0  0
    6.8429    9.2340    7.1045 C   0  0  0  0  0  0  0  0  0  0  0  0
    2.4037    5.3209    6.9311 C   0  0  0  0  0  0  0  0  0  0  0  0
    1.1364    5.6391    7.4774 C   0  0  0  0  0  0  0  0  0  0  0  0
    0.8792   13.1416   12.1325 N   0  0  0  0  0  0  0  0  0  0  0  0
    5.4053   10.8352    8.3313 C   0  0  0  0  0  0  0  0  0  0  0  0
    6.6747   10.4931    7.7507 C   0  0  0  0  0  0  0  0  0  0  0  0
    0.0766    4.6801    7.4194 C   0  0  0  0  0  0  0  0  0  0  0  0
    8.0585    8.9003    6.5166 C   0  0  0  0  0  0  0  0  0  0  0  0
    8.1666    8.0753    6.1014 H   0  0  0  0  0  0  0  0  0  0  0  0
    7.7796   11.4044    7.8022 C   0  0  0  0  0  0  0  0  0  0  0  0
    0.3354    3.4140    6.8388 C   0  0  0  0  0  0  0  0  0  0  0  0
   -0.3321    2.7668    6.8207 H   0  0  0  0  0  0  0  0  0  0  0  0
    7.6050   12.6523    8.4405 C   0  0  0  0  0  0  0  0  0  0  0  0
    8.3128   13.2539    8.4910 H   0  0  0  0  0  0  0  0  0  0  0  0
    8.9985   11.0203    7.1751 C   0  0  0  0  0  0  0  0  0  0  0  0
    9.7236   11.6018    7.1918 H   0  0  0  0  0  0  0  0  0  0  0  0
    9.1200    9.8145    6.5540 C   0  0  0  0  0  0  0  0  0  0  0  0
    9.9253    9.5938    6.1441 H   0  0  0  0  0  0  0  0  0  0  0  0
    5.3031   12.0957    8.9290 C   0  0  0  0  0  0  0  0  0  0  0  0
    4.4921   12.3586    9.3008 H   0  0  0  0  0  0  0  0  0  0  0  0
    2.5919    4.0730    6.3386 C   0  0  0  0  0  0  0  0  0  0  0  0
    3.4127    3.8589    5.9582 H   0  0  0  0  0  0  0  0  0  0  0  0
    3.2029    7.5726    7.6142 B   0  0  0  0  0  0  0  0  0  0  0  0
    4.4880    8.7041    7.6749 B   0  0  0  0  0  0  0  0  0  0  0  0
    0.9248    6.9248    8.0867 C   0  0  0  0  0  0  0  0  0  0  0  0
    3.4885   13.5692   11.8225 N   0  0  0  0  0  0  0  0  0  0  0  0
    6.3963   12.9720    8.9790 C   0  0  0  0  0  0  0  0  0  0  0  0
    6.2917   13.7980    9.3941 H   0  0  0  0  0  0  0  0  0  0  0  0
    1.5489    3.1448    6.3116 C   0  0  0  0  0  0  0  0  0  0  0  0
    1.6946    2.3147    5.9188 H   0  0  0  0  0  0  0  0  0  0  0  0
    1.7924   14.6937   10.2079 N   0  0  0  0  0  0  0  0  0  0  0  0
    3.3522    8.1867   14.6252 C   0  0  0  0  0  0  0  0  0  0  0  0
    2.8574    8.0840   15.4421 H   0  0  0  0  0  0  0  0  0  0  0  0
    4.1482    8.6942   14.7946 H   0  0  0  0  0  0  0  0  0  0  0  0
    3.5892    7.3214   14.2843 H   0  0  0  0  0  0  0  0  0  0  0  0
    0.8572   13.7305   13.4695 C   0  0  0  0  0  0  0  0  0  0  0  0
    1.7317   14.0627   13.6875 H   0  0  0  0  0  0  0  0  0  0  0  0
    0.6011   13.0620   14.1094 H   0  0  0  0  0  0  0  0  0  0  0  0
    0.2261   14.4531   13.4915 H   0  0  0  0  0  0  0  0  0  0  0  0
   -0.3641   12.4770   11.7387 C   0  0  0  0  0  0  0  0  0  0  0  0
   -1.0675   13.1255   11.6741 H   0  0  0  0  0  0  0  0  0  0  0  0
   -0.5950   11.8163   12.3955 H   0  0  0  0  0  0  0  0  0  0  0  0
   -0.2416   12.0508   10.8862 H   0  0  0  0  0  0  0  0  0  0  0  0
   -0.3336    7.1534    8.6501 C   0  0  0  0  0  0  0  0  0  0  0  0
   -0.5006    7.9691    9.0648 H   0  0  0  0  0  0  0  0  0  0  0  0
    2.0717   10.1973   14.1252 C   0  0  0  0  0  0  0  0  0  0  0  0
    1.5607   10.6286   13.4368 H   0  0  0  0  0  0  0  0  0  0  0  0
    2.8328   10.7390   14.3463 H   0  0  0  0  0  0  0  0  0  0  0  0
    1.5249   10.0791   14.9046 H   0  0  0  0  0  0  0  0  0  0  0  0
   -1.1716    4.9984    7.9655 C   0  0  0  0  0  0  0  0  0  0  0  0
   -1.8783    4.3983    7.8909 H   0  0  0  0  0  0  0  0  0  0  0  0
   -1.3560    6.1887    8.6059 C   0  0  0  0  0  0  0  0  0  0  0  0
   -2.1690    6.3651    9.0215 H   0  0  0  0  0  0  0  0  0  0  0  0
    4.2455   12.4602   12.3252 C   0  0  0  0  0  0  0  0  0  0  0  0
    3.8686   11.6411   11.9964 H   0  0  0  0  0  0  0  0  0  0  0  0
    4.2165   12.4630   13.2852 H   0  0  0  0  0  0  0  0  0  0  0  0
    5.1557   12.5352   12.0322 H   0  0  0  0  0  0  0  0  0  0  0  0
    2.6948   15.0596    9.1175 C   0  0  0  0  0  0  0  0  0  0  0  0
    3.4464   15.5406    9.4721 H   0  0  0  0  0  0  0  0  0  0  0  0
    2.2281   15.6153    8.4883 H   0  0  0  0  0  0  0  0  0  0  0  0
    3.0023   14.2651    8.6762 H   0  0  0  0  0  0  0  0  0  0  0  0
    3.9447   14.9138   12.2175 C   0  0  0  0  0  0  0  0  0  0  0  0
    3.2758   15.5608   11.9846 H   0  0  0  0  0  0  0  0  0  0  0  0
    4.7636   15.1208   11.7601 H   0  0  0  0  0  0  0  0  0  0  0  0
    4.0949   14.9350   13.1657 H   0  0  0  0  0  0  0  0  0  0  0  0
    0.8141   15.6934   10.4425 C   0  0  0  0  0  0  0  0  0  0  0  0
    0.0210   15.2881   10.8000 H   0  0  0  0  0  0  0  0  0  0  0  0
    0.6034   16.1356    9.6168 H   0  0  0  0  0  0  0  0  0  0  0  0
    1.1563   16.3348   11.0701 H   0  0  0  0  0  0  0  0  0  0  0  0
   -0.0103    7.3763   14.4637 C   0  0  0  0  0  0  0  0  0  0  0  0
    0.6841    6.7469   14.6707 H   0  0  0  0  0  0  0  0  0  0  0  0
   -0.8620    6.9340   14.4913 H   0  0  0  0  0  0  0  0  0  0  0  0
    0.0013    8.0892   15.1061 H   0  0  0  0  0  0  0  0  0  0  0  0
   -0.6659   11.0228    7.0876 P   0  0  0  0  0  0  0  0  0  0  0  0
   -2.3166   10.6305    7.6078 N   0  0  0  0  0  0  0  0  0  0  0  0
   -0.6446   12.4840    6.5693 N   0  0  0  0  0  0  0  0  0  0  0  0
   -0.0787   10.6417    5.5905 N   0  0  0  0  0  0  0  0  0  0  0  0
   -0.4737    9.3911    5.3059 C   0  0  0  0  0  0  0  0  0  0  0  0
    0.2220    8.7741    5.5459 H   0  0  0  0  0  0  0  0  0  0  0  0
   -0.6564    9.3183    4.3671 H   0  0  0  0  0  0  0  0  0  0  0  0
   -1.2685    9.1855    5.8042 H   0  0  0  0  0  0  0  0  0  0  0  0
    1.3112   10.8913    5.2078 C   0  0  0  0  0  0  0  0  0  0  0  0
    1.6671   11.6076    5.7395 H   0  0  0  0  0  0  0  0  0  0  0  0
    1.3499   11.1342    4.2791 H   0  0  0  0  0  0  0  0  0  0  0  0
    1.8313   10.0974    5.3519 H   0  0  0  0  0  0  0  0  0  0  0  0
   -1.2589   12.8149    5.2616 C   0  0  0  0  0  0  0  0  0  0  0  0
   -0.9218   13.6595    4.9526 H   0  0  0  0  0  0  0  0  0  0  0  0
   -2.2123   12.8681    5.3598 H   0  0  0  0  0  0  0  0  0  0  0  0
   -1.0410   12.1315    4.6228 H   0  0  0  0  0  0  0  0  0  0  0  0
   -2.6492   10.3753    8.8559 C   0  0  0  0  0  0  0  0  0  0  0  0
   -2.9398    9.4637    8.9312 H   0  0  0  0  0  0  0  0  0  0  0  0
   -3.3634   10.9609    9.1228 H   0  0  0  0  0  0  0  0  0  0  0  0
   -1.8906   10.5180    9.4264 H   0  0  0  0  0  0  0  0  0  0  0  0
   -3.4438   10.9291    6.6482 C   0  0  0  0  0  0  0  0  0  0  0  0
   -3.8522   11.7645    6.8841 H   0  0  0  0  0  0  0  0  0  0  0  0
   -4.0977   10.2278    6.6948 H   0  0  0  0  0  0  0  0  0  0  0  0
   -3.0966   10.9833    5.7543 H   0  0  0  0  0  0  0  0  0  0  0  0
   -0.4117   13.4879    7.3886 C   0  0  0  0  0  0  0  0  0  0  0  0
   -1.2360   13.7621    7.7993 H   0  0  0  0  0  0  0  0  0  0  0  0
   -0.0386   14.2231    6.8985 H   0  0  0  0  0  0  0  0  0  0  0  0
    0.2060   13.2092    8.0688 H   0  0  0  0  0  0  0  0  0  0  0  0
    1.4944    5.6938   11.7598 C   0  0  0  0  0  0  0  0  0  0  0  0
    0.6969    5.6434   12.2942 H   0  0  0  0  0  0  0  0  0  0  0  0
    1.9984    4.8842   11.8615 H   0  0  0  0  0  0  0  0  0  0  0  0
    1.2539    5.8096   10.8383 H   0  0  0  0  0  0  0  0  0  0  0  0
    2.3179    6.8519   12.2079 N   0  0  0  0  0  0  0  0  0  0  0  0
    3.5614    6.8856   11.5925 C   0  0  0  0  0  0  0  0  0  0  0  0
    3.4527    7.0830   10.6595 H   0  0  0  0  0  0  0  0  0  0  0  0
    3.9909    6.0320   11.6907 H   0  0  0  0  0  0  0  0  0  0  0  0
    4.1032    7.5643   12.0022 H   0  0  0  0  0  0  0  0  0  0  0  0
    0.2086    7.9161   13.1425 N   0  0  0  0  0  0  0  0  0  0  0  0
   -1.0020    7.9119   12.3079 C   0  0  0  0  0  0  0  0  0  0  0  0
   -0.8318    8.3917   11.4941 H   0  0  0  0  0  0  0  0  0  0  0  0
   -1.7210    8.3355   12.7840 H   0  0  0  0  0  0  0  0  0  0  0  0
   -1.2459    7.0068   12.1009 H   0  0  0  0  0  0  0  0  0  0  0  0
  1  4  1  0  0  0  0
  2  4  2  0  0  0  0
  3  5  2  0  0  0  0
  5  1  1  0  0  0  0
  6  1  1  0  0  0  0
  7  1  1  0  0  0  0
  8  9  1  0  0  0  0
 10 11  1  0  0  0  0
 12  1  1  0  0  0  0
 13  3  1  0  0  0  0
 14 10  1  0  0  0  0
 15  8  1  0  0  0  0
 16 15  4  0  0  0  0
 17  2  1  0  0  0  0
 18  7  1  0  0  0  0
 19 14  4  0  0  0  0
 20 16  4  0  0  0  0
 21 14  4  0  0  0  0
 22 21  1  0  0  0  0
 23 19  4  0  0  0  0
 24 20  4  0  0  0  0
 25 24  1  0  0  0  0
 26 23  4  0  0  0  0
 27 26  1  0  0  0  0
 28 23  4  0  0  0  0
 29 28  1  0  0  0  0
 30 21  4  0  0  0  0
 31 30  1  0  0  0  0
 32 18  4  0  0  0  0
 33 32  1  0  0  0  0
 34 15  4  0  0  0  0
 35 34  1  0  0  0  0
 36  8  1  0  0  0  0
 37  7  1  0  0  0  0
 38 12  1  0  0  0  0
 39  2  1  0  0  0  0
 40 26  4  0  0  0  0
 41 40  1  0  0  0  0
 42 24  4  0  0  0  0
 43 42  1  0  0  0  0
 44  2  1  0  0  0  0
 45 13  1  0  0  0  0
 46 45  1  0  0  0  0
 47 45  1  0  0  0  0
 48 45  1  0  0  0  0
 49 17  1  0  0  0  0
 50 49  1  0  0  0  0
 51 49  1  0  0  0  0
 52 49  1  0  0  0  0
 53 17  1  0  0  0  0
 54 53  1  0  0  0  0
 55 53  1  0  0  0  0
 56 53  1  0  0  0  0
 57 38  4  0  0  0  0
 58 57  1  0  0  0  0
 59 13  1  0  0  0  0
 60 59  1  0  0  0  0
 61 59  1  0  0  0  0
 62 59  1  0  0  0  0
 63 20  4  0  0  0  0
 64 63  1  0  0  0  0
 65 57  4  0  0  0  0
 66 65  1  0  0  0  0
 67 39  1  0  0  0  0
 68 67  1  0  0  0  0
 69 67  1  0  0  0  0
 70 67  1  0  0  0  0
 71 44  1  0  0  0  0
 72 71  1  0  0  0  0
 73 71  1  0  0  0  0
 74 71  1  0  0  0  0
 75 39  1  0  0  0  0
 76 75  1  0  0  0  0
 77 75  1  0  0  0  0
 78 75  1  0  0  0  0
 79 44  1  0  0  0  0
 80 79  1  0  0  0  0
 81 79  1  0  0  0  0
 82 79  1  0  0  0  0
 83 84  1  0  0  0  0
 85 83  1  0  0  0  0
 86 83  1  0  0  0  0
 87  6  2  0  0  0  0
 88 87  1  0  0  0  0
 89 87  1  0  0  0  0
 90 87  1  0  0  0  0
 91 90  1  0  0  0  0
 92 91  1  0  0  0  0
 93 91  1  0  0  0  0
 94 91  1  0  0  0  0
 95 90  1  0  0  0  0
 96 95  1  0  0  0  0
 97 95  1  0  0  0  0
 98 95  1  0  0  0  0
 99 89  1  0  0  0  0
100 99  1  0  0  0  0
101 99  1  0  0  0  0
102 99  1  0  0  0  0
103 88  1  0  0  0  0
104103  1  0  0  0  0
105103  1  0  0  0  0
106103  1  0  0  0  0
107 88  1  0  0  0  0
108107  1  0  0  0  0
109107  1  0  0  0  0
110107  1  0  0  0  0
111 89  1  0  0  0  0
112111  1  0  0  0  0
113111  1  0  0  0  0
114111  1  0  0  0  0
115116  1  0  0  0  0
117115  1  0  0  0  0
118115  1  0  0  0  0
119  3  1  0  0  0  0
120119  1  0  0  0  0
121120  1  0  0  0  0
122120  1  0  0  0  0
123120  1  0  0  0  0
124  3  1  0  0  0  0
125124  1  0  0  0  0
126125  1  0  0  0  0
127125  1  0  0  0  0
128125  1  0  0  0  0
 10 37  1  0  0  0  0
 12 36  1  0  0  0  0
 16 38  4  0  0  0  0
 18 19  4  0  0  0  0
 28 30  4  0  0  0  0
 32 40  4  0  0  0  0
 34 42  4  0  0  0  0
 36 37  1  0  0  0  0
 63 65  4  0  0  0  0
 83124  1  0  0  0  0
115119  1  0  0  0  0
M  END
$$$$
KOJHOJ

From CSD data. Using bond type 'Any'. No disordered atoms. Largest molecule.
157163  0  0  0  0  0  0  0  0999 V2000
    5.5233   12.6459   15.7841 Sr  0  0  0  0  0  0  0  0  0  0  0  0
    7.5017   15.4579   17.7817 P   0  0  0  0  0  0  0  0  0  0  0  0
    7.3588   11.9702   12.3918 P   0  0  0  0  0  0  0  0  0  0  0  0
    6.8870   14.4859   16.8443 O   0  0  0  0  0  0  0  0  0  0  0  0
    6.6672   12.6565   13.5095 O   0  0  0  0  0  0  0  0  0  0  0  0
    4.0103   10.6663   15.0692 N   0  0  0  0  0  0  0  0  0  0  0  0
    4.3697    8.2497   14.7314 N   0  0  0  0  0  0  0  0  0  0  0  0
    4.8292    7.5438   14.9054 H   0  0  0  0  0  0  0  0  0  0  0  0
    8.1592   14.7233   19.0941 N   0  0  0  0  0  0  0  0  0  0  0  0
    6.9432   10.4025   12.0702 N   0  0  0  0  0  0  0  0  0  0  0  0
    8.7799   16.3314   17.1882 N   0  0  0  0  0  0  0  0  0  0  0  0
    6.3474   16.5209   18.2670 N   0  0  0  0  0  0  0  0  0  0  0  0
    7.0145   12.7194   10.9563 N   0  0  0  0  0  0  0  0  0  0  0  0
    8.9777   11.9852   12.6727 N   0  0  0  0  0  0  0  0  0  0  0  0
    1.2771    9.2026   12.9198 C   0  0  0  0  0  0  0  0  0  0  0  0
    2.8577   10.5407   14.3271 C   0  0  0  0  0  0  0  0  0  0  0  0
    2.4655    9.2963   13.7149 C   0  0  0  0  0  0  0  0  0  0  0  0
    3.2600    8.1271   13.9148 C   0  0  0  0  0  0  0  0  0  0  0  0
    0.4739   10.3527   12.7590 C   0  0  0  0  0  0  0  0  0  0  0  0
   -0.3062   10.3099   12.2548 H   0  0  0  0  0  0  0  0  0  0  0  0
    1.7316    6.8495   12.5374 C   0  0  0  0  0  0  0  0  0  0  0  0
    1.4939    6.0389   12.1481 H   0  0  0  0  0  0  0  0  0  0  0  0
    0.9395    7.9473   12.3419 C   0  0  0  0  0  0  0  0  0  0  0  0
    0.1704    7.8723   11.8243 H   0  0  0  0  0  0  0  0  0  0  0  0
    2.8975    6.9258   13.3165 C   0  0  0  0  0  0  0  0  0  0  0  0
    3.4284    6.1709   13.4322 H   0  0  0  0  0  0  0  0  0  0  0  0
    0.8484   11.5352   13.3493 C   0  0  0  0  0  0  0  0  0  0  0  0
    0.3131   12.2867   13.2323 H   0  0  0  0  0  0  0  0  0  0  0  0
    7.4468   13.6061   19.7078 C   0  0  0  0  0  0  0  0  0  0  0  0
    7.0923   13.8804   20.5567 H   0  0  0  0  0  0  0  0  0  0  0  0
    8.0521   12.8722   19.8357 H   0  0  0  0  0  0  0  0  0  0  0  0
    6.7276   13.3316   19.1342 H   0  0  0  0  0  0  0  0  0  0  0  0
    2.0090   11.6434   14.1204 C   0  0  0  0  0  0  0  0  0  0  0  0
    2.2248   12.4621   14.5052 H   0  0  0  0  0  0  0  0  0  0  0  0
    4.7979    9.5132   15.3099 B   0  0  0  0  0  0  0  0  0  0  0  0
    5.5366   10.1235   11.7328 C   0  0  0  0  0  0  0  0  0  0  0  0
    5.0278   10.0222   12.5406 H   0  0  0  0  0  0  0  0  0  0  0  0
    5.4852    9.3144   11.2187 H   0  0  0  0  0  0  0  0  0  0  0  0
    5.1800   10.8521   11.2193 H   0  0  0  0  0  0  0  0  0  0  0  0
    7.5628    9.3338   12.8609 C   0  0  0  0  0  0  0  0  0  0  0  0
    8.4844    9.5484   13.0226 H   0  0  0  0  0  0  0  0  0  0  0  0
    7.5069    8.5055   12.3788 H   0  0  0  0  0  0  0  0  0  0  0  0
    7.1025    9.2479   13.6990 H   0  0  0  0  0  0  0  0  0  0  0  0
    5.1097   16.7317   17.5666 C   0  0  0  0  0  0  0  0  0  0  0  0
    5.1429   17.5721   17.1039 H   0  0  0  0  0  0  0  0  0  0  0  0
    4.3839   16.7407   18.1949 H   0  0  0  0  0  0  0  0  0  0  0  0
    4.9757   16.0228   16.9332 H   0  0  0  0  0  0  0  0  0  0  0  0
    9.2469   15.2462   19.9126 C   0  0  0  0  0  0  0  0  0  0  0  0
    9.6122   16.0303   19.4963 H   0  0  0  0  0  0  0  0  0  0  0  0
    9.9326   14.5798   19.9972 H   0  0  0  0  0  0  0  0  0  0  0  0
    8.9117   15.4728   20.7831 H   0  0  0  0  0  0  0  0  0  0  0  0
    9.9260   15.5551   16.7061 C   0  0  0  0  0  0  0  0  0  0  0  0
   10.0626   14.7971   17.2791 H   0  0  0  0  0  0  0  0  0  0  0  0
   10.7115   16.1069   16.7125 H   0  0  0  0  0  0  0  0  0  0  0  0
    9.7541   15.2531   15.8113 H   0  0  0  0  0  0  0  0  0  0  0  0
    7.0143   14.1758   10.9394 C   0  0  0  0  0  0  0  0  0  0  0  0
    6.8717   14.5059   11.8295 H   0  0  0  0  0  0  0  0  0  0  0  0
    6.3115   14.4890   10.3654 H   0  0  0  0  0  0  0  0  0  0  0  0
    7.8596   14.4922   10.6124 H   0  0  0  0  0  0  0  0  0  0  0  0
    9.5192   12.2339   14.0045 C   0  0  0  0  0  0  0  0  0  0  0  0
    8.8253   12.5747   14.5736 H   0  0  0  0  0  0  0  0  0  0  0  0
   10.2297   12.8769   13.9460 H   0  0  0  0  0  0  0  0  0  0  0  0
    9.8590   11.4139   14.3701 H   0  0  0  0  0  0  0  0  0  0  0  0
    9.9276   11.5099   11.6838 C   0  0  0  0  0  0  0  0  0  0  0  0
   10.2725   10.6562   11.9555 H   0  0  0  0  0  0  0  0  0  0  0  0
   10.6504   12.1372   11.6069 H   0  0  0  0  0  0  0  0  0  0  0  0
    9.4885   11.4221   10.8346 H   0  0  0  0  0  0  0  0  0  0  0  0
    8.5037   17.4889   16.3443 C   0  0  0  0  0  0  0  0  0  0  0  0
    8.2923   17.1939   15.4556 H   0  0  0  0  0  0  0  0  0  0  0  0
    9.2770   18.0572   16.3174 H   0  0  0  0  0  0  0  0  0  0  0  0
    7.7600   17.9775   16.7047 H   0  0  0  0  0  0  0  0  0  0  0  0
    6.5722   17.4257   19.3860 C   0  0  0  0  0  0  0  0  0  0  0  0
    7.3242   17.1199   19.8984 H   0  0  0  0  0  0  0  0  0  0  0  0
    5.7913   17.4449   19.9439 H   0  0  0  0  0  0  0  0  0  0  0  0
    6.7495   18.3084   19.0530 H   0  0  0  0  0  0  0  0  0  0  0  0
    7.1503   12.1259    9.6407 C   0  0  0  0  0  0  0  0  0  0  0  0
    7.9329   12.4776    9.2100 H   0  0  0  0  0  0  0  0  0  0  0  0
    6.3748   12.3336    9.1143 H   0  0  0  0  0  0  0  0  0  0  0  0
    7.2331   11.1733    9.7265 H   0  0  0  0  0  0  0  0  0  0  0  0
    7.0364   10.6663   16.4990 N   0  0  0  0  0  0  0  0  0  0  0  0
    6.6770    8.2497   16.8368 N   0  0  0  0  0  0  0  0  0  0  0  0
    6.2174    7.5438   16.6628 H   0  0  0  0  0  0  0  0  0  0  0  0
    9.7696    9.2026   18.6484 C   0  0  0  0  0  0  0  0  0  0  0  0
    8.1889   10.5407   17.2410 C   0  0  0  0  0  0  0  0  0  0  0  0
    8.5811    9.2963   17.8533 C   0  0  0  0  0  0  0  0  0  0  0  0
    7.7866    8.1271   17.6533 C   0  0  0  0  0  0  0  0  0  0  0  0
   10.5727   10.3527   18.8091 C   0  0  0  0  0  0  0  0  0  0  0  0
   11.3529   10.3099   19.3134 H   0  0  0  0  0  0  0  0  0  0  0  0
    9.3151    6.8495   19.0308 C   0  0  0  0  0  0  0  0  0  0  0  0
    9.5528    6.0389   19.4200 H   0  0  0  0  0  0  0  0  0  0  0  0
   10.1072    7.9473   19.2263 C   0  0  0  0  0  0  0  0  0  0  0  0
   10.8763    7.8723   19.7438 H   0  0  0  0  0  0  0  0  0  0  0  0
    8.1491    6.9258   18.2517 C   0  0  0  0  0  0  0  0  0  0  0  0
    7.6183    6.1709   18.1359 H   0  0  0  0  0  0  0  0  0  0  0  0
   10.1983   11.5352   18.2188 C   0  0  0  0  0  0  0  0  0  0  0  0
   10.7336   12.2867   18.3359 H   0  0  0  0  0  0  0  0  0  0  0  0
    9.0377   11.6434   17.4477 C   0  0  0  0  0  0  0  0  0  0  0  0
    8.8219   12.4621   17.0629 H   0  0  0  0  0  0  0  0  0  0  0  0
    6.2488    9.5132   16.2582 B   0  0  0  0  0  0  0  0  0  0  0  0
    3.5449   15.4579   13.7864 P   0  0  0  0  0  0  0  0  0  0  0  0
    3.6878   11.9702   19.1764 P   0  0  0  0  0  0  0  0  0  0  0  0
    4.1597   14.4859   14.7238 O   0  0  0  0  0  0  0  0  0  0  0  0
    4.3794   12.6565   18.0587 O   0  0  0  0  0  0  0  0  0  0  0  0
    2.8874   14.7233   12.4740 N   0  0  0  0  0  0  0  0  0  0  0  0
    4.1034   10.4025   19.4980 N   0  0  0  0  0  0  0  0  0  0  0  0
    2.2668   16.3314   14.3799 N   0  0  0  0  0  0  0  0  0  0  0  0
    4.6993   16.5209   13.3011 N   0  0  0  0  0  0  0  0  0  0  0  0
    4.0322   12.7194   20.6119 N   0  0  0  0  0  0  0  0  0  0  0  0
    2.0690   11.9852   18.8954 N   0  0  0  0  0  0  0  0  0  0  0  0
    3.5999   13.6061   11.8604 C   0  0  0  0  0  0  0  0  0  0  0  0
    3.9544   13.8804   11.0115 H   0  0  0  0  0  0  0  0  0  0  0  0
    2.9946   12.8722   11.7324 H   0  0  0  0  0  0  0  0  0  0  0  0
    4.3191   13.3316   12.4340 H   0  0  0  0  0  0  0  0  0  0  0  0
    5.5101   10.1235   19.8353 C   0  0  0  0  0  0  0  0  0  0  0  0
    6.0188   10.0222   19.0276 H   0  0  0  0  0  0  0  0  0  0  0  0
    5.5614    9.3144   20.3495 H   0  0  0  0  0  0  0  0  0  0  0  0
    5.8666   10.8521   20.3488 H   0  0  0  0  0  0  0  0  0  0  0  0
    3.4839    9.3338   18.7073 C   0  0  0  0  0  0  0  0  0  0  0  0
    2.5622    9.5484   18.5455 H   0  0  0  0  0  0  0  0  0  0  0  0
    3.5398    8.5055   19.1893 H   0  0  0  0  0  0  0  0  0  0  0  0
    3.9442    9.2479   17.8692 H   0  0  0  0  0  0  0  0  0  0  0  0
    5.9370   16.7317   14.0015 C   0  0  0  0  0  0  0  0  0  0  0  0
    5.9038   17.5721   14.4642 H   0  0  0  0  0  0  0  0  0  0  0  0
    6.6627   16.7407   13.3732 H   0  0  0  0  0  0  0  0  0  0  0  0
    6.0709   16.0228   14.6350 H   0  0  0  0  0  0  0  0  0  0  0  0
    1.7998   15.2462   11.6556 C   0  0  0  0  0  0  0  0  0  0  0  0
    1.4344   16.0303   12.0719 H   0  0  0  0  0  0  0  0  0  0  0  0
    1.1140   14.5798   11.5709 H   0  0  0  0  0  0  0  0  0  0  0  0
    2.1350   15.4728   10.7850 H   0  0  0  0  0  0  0  0  0  0  0  0
    1.1207   15.5551   14.8621 C   0  0  0  0  0  0  0  0  0  0  0  0
    0.9840   14.7971   14.2891 H   0  0  0  0  0  0  0  0  0  0  0  0
    0.3352   16.1069   14.8557 H   0  0  0  0  0  0  0  0  0  0  0  0
    1.2926   15.2531   15.7569 H   0  0  0  0  0  0  0  0  0  0  0  0
    4.0324   14.1758   20.6287 C   0  0  0  0  0  0  0  0  0  0  0  0
    4.1750   14.5059   19.7386 H   0  0  0  0  0  0  0  0  0  0  0  0
    4.7351   14.4890   21.2027 H   0  0  0  0  0  0  0  0  0  0  0  0
    3.1870   14.4922   20.9558 H   0  0  0  0  0  0  0  0  0  0  0  0
    1.5275   12.2339   17.5637 C   0  0  0  0  0  0  0  0  0  0  0  0
    2.2214   12.5747   16.9946 H   0  0  0  0  0  0  0  0  0  0  0  0
    0.8169   12.8769   17.6221 H   0  0  0  0  0  0  0  0  0  0  0  0
    1.1877   11.4139   17.1981 H   0  0  0  0  0  0  0  0  0  0  0  0
    1.1190   11.5099   19.8844 C   0  0  0  0  0  0  0  0  0  0  0  0
    0.7742   10.6562   19.6126 H   0  0  0  0  0  0  0  0  0  0  0  0
    0.3963   12.1372   19.9613 H   0  0  0  0  0  0  0  0  0  0  0  0
    1.5581   11.4221   20.7335 H   0  0  0  0  0  0  0  0  0  0  0  0
    2.5430   17.4889   15.2238 C   0  0  0  0  0  0  0  0  0  0  0  0
    2.7544   17.1939   16.1125 H   0  0  0  0  0  0  0  0  0  0  0  0
    1.7697   18.0572   15.2507 H   0  0  0  0  0  0  0  0  0  0  0  0
    3.2866   17.9775   14.8634 H   0  0  0  0  0  0  0  0  0  0  0  0
    4.4745   17.4257   12.1821 C   0  0  0  0  0  0  0  0  0  0  0  0
    3.7225   17.1199   11.6697 H   0  0  0  0  0  0  0  0  0  0  0  0
    5.2554   17.4449   11.6243 H   0  0  0  0  0  0  0  0  0  0  0  0
    4.2971   18.3084   12.5151 H   0  0  0  0  0  0  0  0  0  0  0  0
    3.8963   12.1259   21.9274 C   0  0  0  0  0  0  0  0  0  0  0  0
    3.1138   12.4776   22.3581 H   0  0  0  0  0  0  0  0  0  0  0  0
    4.6719   12.3336   22.4538 H   0  0  0  0  0  0  0  0  0  0  0  0
    3.8136   11.1733   21.8417 H   0  0  0  0  0  0  0  0  0  0  0  0
  1  4  1  0  0  0  0
  2  4  2  0  0  0  0
  3  5  2  0  0  0  0
  5  1  1  0  0  0  0
  6  1  1  0  0  0  0
  7  8  1  0  0  0  0
  9  2  1  0  0  0  0
 10  3  1  0  0  0  0
 11  2  1  0  0  0  0
 12  2  1  0  0  0  0
 13  3  1  0  0  0  0
 14  3  1  0  0  0  0
 15 17  4  0  0  0  0
 16  6  1  0  0  0  0
 17 16  4  0  0  0  0
 18  7  1  0  0  0  0
 19 15  4  0  0  0  0
 20 19  1  0  0  0  0
 21 22  1  0  0  0  0
 23 15  4  0  0  0  0
 24 23  1  0  0  0  0
 25 18  4  0  0  0  0
 26 25  1  0  0  0  0
 27 19  4  0  0  0  0
 28 27  1  0  0  0  0
 29  9  1  0  0  0  0
 30 29  1  0  0  0  0
 31 29  1  0  0  0  0
 32 29  1  0  0  0  0
 33 16  4  0  0  0  0
 34 33  1  0  0  0  0
 35  6  1  0  0  0  0
 36 10  1  0  0  0  0
 37 36  1  0  0  0  0
 38 36  1  0  0  0  0
 39 36  1  0  0  0  0
 40 10  1  0  0  0  0
 41 40  1  0  0  0  0
 42 40  1  0  0  0  0
 43 40  1  0  0  0  0
 44 12  1  0  0  0  0
 45 44  1  0  0  0  0
 46 44  1  0  0  0  0
 47 44  1  0  0  0  0
 48  9  1  0  0  0  0
 49 48  1  0  0  0  0
 50 48  1  0  0  0  0
 51 48  1  0  0  0  0
 52 11  1  0  0  0  0
 53 52  1  0  0  0  0
 54 52  1  0  0  0  0
 55 52  1  0  0  0  0
 56 13  1  0  0  0  0
 57 56  1  0  0  0  0
 58 56  1  0  0  0  0
 59 56  1  0  0  0  0
 60 14  1  0  0  0  0
 61 60  1  0  0  0  0
 62 60  1  0  0  0  0
 63 60  1  0  0  0  0
 64 14  1  0  0  0  0
 65 64  1  0  0  0  0
 66 64  1  0  0  0  0
 67 64  1  0  0  0  0
 68 11  1  0  0  0  0
 69 68  1  0  0  0  0
 70 68  1  0  0  0  0
 71 68  1  0  0  0  0
 72 12  1  0  0  0  0
 73 72  1  0  0  0  0
 74 72  1  0  0  0  0
 75 72  1  0  0  0  0
 76 13  1  0  0  0  0
 77 76  1  0  0  0  0
 78 76  1  0  0  0  0
 79 76  1  0  0  0  0
 80  1  1  0  0  0  0
 81 82  1  0  0  0  0
 83 85  4  0  0  0  0
 84 80  1  0  0  0  0
 85 84  4  0  0  0  0
 86 81  1  0  0  0  0
 87 83  4  0  0  0  0
 88 87  1  0  0  0  0
 89 90  1  0  0  0  0
 91 83  4  0  0  0  0
 92 91  1  0  0  0  0
 93 86  4  0  0  0  0
 94 93  1  0  0  0  0
 95 87  4  0  0  0  0
 96 95  1  0  0  0  0
 97 84  4  0  0  0  0
 98 97  1  0  0  0  0
 99 35  1  0  0  0  0
100102  2  0  0  0  0
101103  2  0  0  0  0
102  1  1  0  0  0  0
103  1  1  0  0  0  0
104100  1  0  0  0  0
105101  1  0  0  0  0
106100  1  0  0  0  0
107100  1  0  0  0  0
108101  1  0  0  0  0
109101  1  0  0  0  0
110104  1  0  0  0  0
111110  1  0  0  0  0
112110  1  0  0  0  0
113110  1  0  0  0  0
114105  1  0  0  0  0
115114  1  0  0  0  0
116114  1  0  0  0  0
117114  1  0  0  0  0
118105  1  0  0  0  0
119118  1  0  0  0  0
120118  1  0  0  0  0
121118  1  0  0  0  0
122107  1  0  0  0  0
123122  1  0  0  0  0
124122  1  0  0  0  0
125122  1  0  0  0  0
126104  1  0  0  0  0
127126  1  0  0  0  0
128126  1  0  0  0  0
129126  1  0  0  0  0
130106  1  0  0  0  0
131130  1  0  0  0  0
132130  1  0  0  0  0
133130  1  0  0  0  0
134108  1  0  0  0  0
135134  1  0  0  0  0
136134  1  0  0  0  0
137134  1  0  0  0  0
138109  1  0  0  0  0
139138  1  0  0  0  0
140138  1  0  0  0  0
141138  1  0  0  0  0
142109  1  0  0  0  0
143142  1  0  0  0  0
144142  1  0  0  0  0
145142  1  0  0  0  0
146106  1  0  0  0  0
147146  1  0  0  0  0
148146  1  0  0  0  0
149146  1  0  0  0  0
150107  1  0  0  0  0
151150  1  0  0  0  0
152150  1  0  0  0  0
153150  1  0  0  0  0
154108  1  0  0  0  0
155154  1  0  0  0  0
156154  1  0  0  0  0
157154  1  0  0  0  0
  7 35  1  0  0  0  0
 17 18  4  0  0  0  0
 21 23  4  0  0  0  0
 21 25  4  0  0  0  0
 27 33  4  0  0  0  0
 80 99  1  0  0  0  0
 81 99  1  0  0  0  0
 85 86  4  0  0  0  0
 89 91  4  0  0  0  0
 89 93  4  0  0  0  0
 95 97  4  0  0  0  0
M  END
$$$$
KOLFAU

From CSD data. Using bond type 'Any'. No disordered atoms. Largest molecule.
134142  0  0  0  0  0  0  0  0999 V2000
   -1.6045   -6.6618    8.5345 Ru  0  0  0  0  0  0  0  0  0  0  0  0
   -2.3438   -7.0363   10.5557 C   0  0  0  0  0  0  0  0  0  0  0  0
   -2.0248   -6.0233   11.5868 C   0  0  0  0  0  0  0  0  0  0  0  0
   -1.6514   -4.7263   11.1993 C   0  0  0  0  0  0  0  0  0  0  0  0
   -1.4133   -3.7433   12.1672 C   0  0  0  0  0  0  0  0  0  0  0  0
   -1.5280   -4.0354   13.5107 C   0  0  0  0  0  0  0  0  0  0  0  0
   -1.8714   -5.3267   13.9129 C   0  0  0  0  0  0  0  0  0  0  0  0
   -2.1151   -6.3029   12.9532 C   0  0  0  0  0  0  0  0  0  0  0  0
   -5.6525   -6.0588    8.4108 C   0  0  0  0  0  0  0  0  0  0  0  0
   -6.7579   -7.1184    8.2303 C   0  0  0  0  0  0  0  0  0  0  0  0
   -6.2100   -4.6367    8.2371 C   0  0  0  0  0  0  0  0  0  0  0  0
   -5.6259   -6.2044   10.8534 C   0  0  0  0  0  0  0  0  0  0  0  0
   -5.3563   -4.9490   11.6782 C   0  0  0  0  0  0  0  0  0  0  0  0
   -5.5643   -7.4873   11.7422 C   0  0  0  0  0  0  0  0  0  0  0  0
   -2.5665   -3.2017    8.8861 C   0  0  0  0  0  0  0  0  0  0  0  0
   -3.4199   -2.5442    9.7703 C   0  0  0  0  0  0  0  0  0  0  0  0
   -4.3143   -1.5779    9.2836 C   0  0  0  0  0  0  0  0  0  0  0  0
   -4.3436   -1.2599    7.9515 C   0  0  0  0  0  0  0  0  0  0  0  0
   -3.4942   -1.8971    7.0673 C   0  0  0  0  0  0  0  0  0  0  0  0
   -2.6145   -2.8789    7.5425 C   0  0  0  0  0  0  0  0  0  0  0  0
    0.2086   -3.6224    9.4047 C   0  0  0  0  0  0  0  0  0  0  0  0
    1.3626   -4.3321    9.6401 C   0  0  0  0  0  0  0  0  0  0  0  0
    2.5709   -3.6855    9.7749 C   0  0  0  0  0  0  0  0  0  0  0  0
    2.6463   -2.3097    9.6561 C   0  0  0  0  0  0  0  0  0  0  0  0
    1.5094   -1.5898    9.4116 C   0  0  0  0  0  0  0  0  0  0  0  0
    0.2914   -2.2436    9.2951 C   0  0  0  0  0  0  0  0  0  0  0  0
   -2.5682  -10.1156    8.9987 C   0  0  0  0  0  0  0  0  0  0  0  0
   -2.1688  -11.5854    9.2341 C   0  0  0  0  0  0  0  0  0  0  0  0
   -3.2090  -12.3095   10.0971 C   0  0  0  0  0  0  0  0  0  0  0  0
   -4.6151  -12.2180    9.4984 C   0  0  0  0  0  0  0  0  0  0  0  0
   -5.0040  -10.7601    9.2334 C   0  0  0  0  0  0  0  0  0  0  0  0
   -3.9618  -10.0705    8.3461 C   0  0  0  0  0  0  0  0  0  0  0  0
    0.2743   -9.6758    8.7560 C   0  0  0  0  0  0  0  0  0  0  0  0
    1.5000   -9.1411    7.9956 C   0  0  0  0  0  0  0  0  0  0  0  0
    2.7954   -9.7609    8.5109 C   0  0  0  0  0  0  0  0  0  0  0  0
    2.9637   -9.5266   10.0020 C   0  0  0  0  0  0  0  0  0  0  0  0
    1.7672  -10.0693   10.7666 C   0  0  0  0  0  0  0  0  0  0  0  0
    0.4507   -9.4533   10.2602 C   0  0  0  0  0  0  0  0  0  0  0  0
   -1.2986   -9.4746    6.3368 C   0  0  0  0  0  0  0  0  0  0  0  0
   -2.4777   -8.9539    5.4991 C   0  0  0  0  0  0  0  0  0  0  0  0
   -2.1940   -9.1091    4.0283 C   0  0  0  0  0  0  0  0  0  0  0  0
   -1.8782  -10.5617    3.6627 C   0  0  0  0  0  0  0  0  0  0  0  0
   -0.7400  -11.1014    4.5196 C   0  0  0  0  0  0  0  0  0  0  0  0
   -1.0306  -10.9483    5.9988 C   0  0  0  0  0  0  0  0  0  0  0  0
    1.3934   -6.0939    5.3675 C   0  0  0  0  0  0  0  0  0  0  0  0
    0.7859   -4.6644    5.4267 C   0  0  0  0  0  0  0  0  0  0  0  0
    1.6079   -6.6603    3.9849 C   0  0  0  0  0  0  0  0  0  0  0  0
    2.6693   -6.2245    6.1921 C   0  0  0  0  0  0  0  0  0  0  0  0
   -0.1765   -4.3816    4.2682 C   0  0  0  0  0  0  0  0  0  0  0  0
    1.8098   -3.5392    5.5546 C   0  0  0  0  0  0  0  0  0  0  0  0
   -4.8642   -6.3025    9.6028 N   0  0  0  0  0  0  0  0  0  0  0  0
    0.3619   -6.8783    6.0258 O   0  0  0  0  0  0  0  0  0  0  0  0
   -0.0096   -4.7143    6.6267 O   0  0  0  0  0  0  0  0  0  0  0  0
   -3.5429   -6.6915    9.5864 B   0  0  0  0  0  0  0  0  0  0  0  0
   -0.3513   -6.0416    6.8730 B   0  0  0  0  0  0  0  0  0  0  0  0
   -1.4052   -4.5232    9.4066 P   0  0  0  0  0  0  0  0  0  0  0  0
   -1.3370   -8.9873    8.1327 P   0  0  0  0  0  0  0  0  0  0  0  0
   -3.2244   -6.7057    8.2486 H   0  0  0  0  0  0  0  0  0  0  0  0
   -1.6582   -6.1997    7.0376 H   0  0  0  0  0  0  0  0  0  0  0  0
   -0.0671   -6.7169    8.9112 H   0  0  0  0  0  0  0  0  0  0  0  0
   -2.2870   -7.9218   10.8808 H   0  0  0  0  0  0  0  0  0  0  0  0
   -1.1651   -2.8855   11.8907 H   0  0  0  0  0  0  0  0  0  0  0  0
   -1.3536   -3.3661   14.1619 H   0  0  0  0  0  0  0  0  0  0  0  0
   -1.9433   -5.5356   14.8314 H   0  0  0  0  0  0  0  0  0  0  0  0
   -2.3498   -7.1743   13.2206 H   0  0  0  0  0  0  0  0  0  0  0  0
   -5.0694   -6.1758    7.6979 H   0  0  0  0  0  0  0  0  0  0  0  0
   -6.4000   -7.9759    8.2806 H   0  0  0  0  0  0  0  0  0  0  0  0
   -7.3590   -6.9910    8.9272 H   0  0  0  0  0  0  0  0  0  0  0  0
   -7.1978   -7.0134    7.4169 H   0  0  0  0  0  0  0  0  0  0  0  0
   -6.8145   -4.5196    8.9340 H   0  0  0  0  0  0  0  0  0  0  0  0
   -6.5274   -6.1642   10.6295 H   0  0  0  0  0  0  0  0  0  0  0  0
   -5.4927   -4.1645   11.1961 H   0  0  0  0  0  0  0  0  0  0  0  0
   -5.8978   -4.9442   12.4345 H   0  0  0  0  0  0  0  0  0  0  0  0
   -4.4651   -5.0038   11.9341 H   0  0  0  0  0  0  0  0  0  0  0  0
   -5.7686   -8.2493   11.2487 H   0  0  0  0  0  0  0  0  0  0  0  0
   -6.1033   -7.4538   12.4985 H   0  0  0  0  0  0  0  0  0  0  0  0
   -4.6707   -7.5134   11.9981 H   0  0  0  0  0  0  0  0  0  0  0  0
   -3.3902   -2.7529   10.6889 H   0  0  0  0  0  0  0  0  0  0  0  0
   -4.8993   -1.1428    9.8754 H   0  0  0  0  0  0  0  0  0  0  0  0
   -4.9369   -0.6212    7.6339 H   0  0  0  0  0  0  0  0  0  0  0  0
   -3.5124   -1.6713    6.1624 H   0  0  0  0  0  0  0  0  0  0  0  0
   -2.0465   -3.3154    6.9393 H   0  0  0  0  0  0  0  0  0  0  0  0
    1.3273   -5.2671    9.7201 H   0  0  0  0  0  0  0  0  0  0  0  0
    3.3385   -4.1724    9.9440 H   0  0  0  0  0  0  0  0  0  0  0  0
    3.4698   -1.8760    9.7315 H   0  0  0  0  0  0  0  0  0  0  0  0
    1.5515   -0.6655    9.3362 H   0  0  0  0  0  0  0  0  0  0  0  0
   -0.4884   -1.7402    9.1305 H   0  0  0  0  0  0  0  0  0  0  0  0
   -2.6738   -9.7319    9.9074 H   0  0  0  0  0  0  0  0  0  0  0  0
   -1.3194  -11.6173    9.7086 H   0  0  0  0  0  0  0  0  0  0  0  0
   -2.0844  -12.0439    8.3765 H   0  0  0  0  0  0  0  0  0  0  0  0
   -2.9427  -13.2374   10.1999 H   0  0  0  0  0  0  0  0  0  0  0  0
   -3.2412  -11.8713   10.9768 H   0  0  0  0  0  0  0  0  0  0  0  0
   -4.6172  -12.7018    8.6461 H   0  0  0  0  0  0  0  0  0  0  0  0
   -5.2548  -12.6275   10.1199 H   0  0  0  0  0  0  0  0  0  0  0  0
   -5.0477  -10.2773   10.0856 H   0  0  0  0  0  0  0  0  0  0  0  0
   -5.8772  -10.7220    8.7969 H   0  0  0  0  0  0  0  0  0  0  0  0
   -4.2221   -9.1473    8.1869 H   0  0  0  0  0  0  0  0  0  0  0  0
   -3.9258  -10.5487    7.4900 H   0  0  0  0  0  0  0  0  0  0  0  0
    0.2557  -10.6411    8.6050 H   0  0  0  0  0  0  0  0  0  0  0  0
    1.5562   -8.1823    8.1275 H   0  0  0  0  0  0  0  0  0  0  0  0
    1.4008   -9.3455    7.0421 H   0  0  0  0  0  0  0  0  0  0  0  0
    2.7822  -10.7212    8.3491 H   0  0  0  0  0  0  0  0  0  0  0  0
    3.5441   -9.3552    8.0292 H   0  0  0  0  0  0  0  0  0  0  0  0
    3.7694   -9.9671   10.3187 H   0  0  0  0  0  0  0  0  0  0  0  0
    3.0441   -8.5781   10.1633 H   0  0  0  0  0  0  0  0  0  0  0  0
    1.8714   -9.8839   11.7262 H   0  0  0  0  0  0  0  0  0  0  0  0
    1.7279  -11.0292   10.6295 H   0  0  0  0  0  0  0  0  0  0  0  0
   -0.3130   -9.8520   10.7414 H   0  0  0  0  0  0  0  0  0  0  0  0
    0.4547   -8.4915   10.4170 H   0  0  0  0  0  0  0  0  0  0  0  0
   -0.5106   -9.0038    5.9888 H   0  0  0  0  0  0  0  0  0  0  0  0
   -3.2725   -9.4617    5.7283 H   0  0  0  0  0  0  0  0  0  0  0  0
   -2.6381   -8.0198    5.6963 H   0  0  0  0  0  0  0  0  0  0  0  0
   -1.4190   -8.5622    3.7793 H   0  0  0  0  0  0  0  0  0  0  0  0
   -2.9775   -8.8124    3.5256 H   0  0  0  0  0  0  0  0  0  0  0  0
   -2.6702  -11.1008    3.8158 H   0  0  0  0  0  0  0  0  0  0  0  0
   -1.6362  -10.6166    2.7213 H   0  0  0  0  0  0  0  0  0  0  0  0
   -0.6014  -12.0374    4.3185 H   0  0  0  0  0  0  0  0  0  0  0  0
    0.0626  -10.5973    4.3002 H   0  0  0  0  0  0  0  0  0  0  0  0
   -1.8227  -11.4768    6.2218 H   0  0  0  0  0  0  0  0  0  0  0  0
   -0.2657  -11.2627    6.5166 H   0  0  0  0  0  0  0  0  0  0  0  0
    0.7716   -6.6626    3.4914 H   0  0  0  0  0  0  0  0  0  0  0  0
    1.9369   -7.5705    4.0694 H   0  0  0  0  0  0  0  0  0  0  0  0
    2.2551   -6.1276    3.5119 H   0  0  0  0  0  0  0  0  0  0  0  0
    2.5457   -5.8128    7.0650 H   0  0  0  0  0  0  0  0  0  0  0  0
    2.8958   -7.1559    6.2995 H   0  0  0  0  0  0  0  0  0  0  0  0
    3.3790   -5.7671    5.7489 H   0  0  0  0  0  0  0  0  0  0  0  0
   -0.6725   -3.5798    4.4442 H   0  0  0  0  0  0  0  0  0  0  0  0
    0.3267   -4.2771    3.4525 H   0  0  0  0  0  0  0  0  0  0  0  0
   -0.7801   -5.1306    4.1746 H   0  0  0  0  0  0  0  0  0  0  0  0
    1.3331   -2.7093    5.5615 H   0  0  0  0  0  0  0  0  0  0  0  0
    2.3912   -3.5747    4.7869 H   0  0  0  0  0  0  0  0  0  0  0  0
    2.3162   -3.6580    6.3681 H   0  0  0  0  0  0  0  0  0  0  0  0
   -5.5128   -4.1842    8.9340 H   0  0  0  0  0  0  0  0  0  0  0  0
   -5.2675   -4.7832    7.5608 H   0  0  0  0  0  0  0  0  0  0  0  0
  1  2  1  0  0  0  0
  2  3  1  0  0  0  0
  3  4  4  0  0  0  0
  4  5  4  0  0  0  0
  5  6  4  0  0  0  0
  6  7  4  0  0  0  0
  7  8  4  0  0  0  0
  8  3  4  0  0  0  0
  9 10  1  0  0  0  0
 10 67  1  0  0  0  0
 11  9  1  0  0  0  0
 12 13  1  0  0  0  0
 13 72  1  0  0  0  0
 14 12  1  0  0  0  0
 15 16  4  0  0  0  0
 16 17  4  0  0  0  0
 17 18  4  0  0  0  0
 18 19  4  0  0  0  0
 19 20  4  0  0  0  0
 20 15  4  0  0  0  0
 21 22  4  0  0  0  0
 22 23  4  0  0  0  0
 23 24  4  0  0  0  0
 24 25  4  0  0  0  0
 25 26  4  0  0  0  0
 26 21  4  0  0  0  0
 27 28  1  0  0  0  0
 28 29  1  0  0  0  0
 29 30  1  0  0  0  0
 30 31  1  0  0  0  0
 31 32  1  0  0  0  0
 32 27  1  0  0  0  0
 33 34  1  0  0  0  0
 34 35  1  0  0  0  0
 35 36  1  0  0  0  0
 36 37  1  0  0  0  0
 37 38  1  0  0  0  0
 38 33  1  0  0  0  0
 39 40  1  0  0  0  0
 40 41  1  0  0  0  0
 41 42  1  0  0  0  0
 42 43  1  0  0  0  0
 43 44  1  0  0  0  0
 44 39  1  0  0  0  0
 45 46  1  0  0  0  0
 46 49  1  0  0  0  0
 47 45  1  0  0  0  0
 48 45  1  0  0  0  0
 49127  1  0  0  0  0
 50 46  1  0  0  0  0
 51  9  1  0  0  0  0
 52 45  1  0  0  0  0
 53 46  1  0  0  0  0
 54  2  1  0  0  0  0
 55 52  1  0  0  0  0
 56  1  1  0  0  0  0
 57  1  1  0  0  0  0
 58  1  1  0  0  0  0
 59  1  1  0  0  0  0
 60  1  1  0  0  0  0
 61  2  1  0  0  0  0
 62  5  1  0  0  0  0
 63  6  1  0  0  0  0
 64  7  1  0  0  0  0
 65  8  1  0  0  0  0
 66  9  1  0  0  0  0
 68 10  1  0  0  0  0
 69 10  1  0  0  0  0
 70 11  1  0  0  0  0
 71 12  1  0  0  0  0
 73 13  1  0  0  0  0
 74 13  1  0  0  0  0
 75 14  1  0  0  0  0
 76 14  1  0  0  0  0
 77 14  1  0  0  0  0
 78 16  1  0  0  0  0
 79 17  1  0  0  0  0
 80 18  1  0  0  0  0
 81 19  1  0  0  0  0
 82 20  1  0  0  0  0
 83 22  1  0  0  0  0
 84 23  1  0  0  0  0
 85 24  1  0  0  0  0
 86 25  1  0  0  0  0
 87 26  1  0  0  0  0
 88 27  1  0  0  0  0
 89 28  1  0  0  0  0
 90 28  1  0  0  0  0
 91 29  1  0  0  0  0
 92 29  1  0  0  0  0
 93 30  1  0  0  0  0
 94 30  1  0  0  0  0
 95 31  1  0  0  0  0
 96 31  1  0  0  0  0
 97 32  1  0  0  0  0
 98 32  1  0  0  0  0
 99 33  1  0  0  0  0
100 34  1  0  0  0  0
101 34  1  0  0  0  0
102 35  1  0  0  0  0
103 35  1  0  0  0  0
104 36  1  0  0  0  0
105 36  1  0  0  0  0
106 37  1  0  0  0  0
107 37  1  0  0  0  0
108 38  1  0  0  0  0
109 38  1  0  0  0  0
110 39  1  0  0  0  0
111 40  1  0  0  0  0
112 40  1  0  0  0  0
113 41  1  0  0  0  0
114 41  1  0  0  0  0
115 42  1  0  0  0  0
116 42  1  0  0  0  0
117 43  1  0  0  0  0
118 43  1  0  0  0  0
119 44  1  0  0  0  0
120 44  1  0  0  0  0
121 47  1  0  0  0  0
122 47  1  0  0  0  0
123 47  1  0  0  0  0
124 48  1  0  0  0  0
125 48  1  0  0  0  0
126 48  1  0  0  0  0
128 49  1  0  0  0  0
129 49  1  0  0  0  0
130 50  1  0  0  0  0
131 50  1  0  0  0  0
132 50  1  0  0  0  0
133 11  1  0  0  0  0
134 11  1  0  0  0  0
  4 56  1  0  0  0  0
 12 51  1  0  0  0  0
 15 56  1  0  0  0  0
 21 56  1  0  0  0  0
 27 57  1  0  0  0  0
 33 57  1  0  0  0  0
 39 57  1  0  0  0  0
 51 54  1  0  0  0  0
 53 55  1  0  0  0  0
 54 58  1  0  0  0  0
 55 59  1  0  0  0  0
M  END
$$$$
KOZLAP

From CSD data. Using bond type 'Any'. No disordered atoms. Largest molecule.
155160  0  0  0  0  0  0  0  0999 V2000
    8.8043    9.4791    6.2065 Pt  0  0  0  0  0  0  0  0  0  0  0  0
    2.2383   12.7899   -0.2543 B   0  0  0  0  0  0  0  0  0  0  0  0
    1.7462   13.2009    0.9629 F   0  0  0  0  0  0  0  0  0  0  0  0
    3.1181   13.7139   -0.7731 F   0  0  0  0  0  0  0  0  0  0  0  0
    1.0531   12.5664   -1.2703 N   0  0  0  0  0  0  0  0  0  0  0  0
    0.8158   11.4464   -1.8912 N   0  0  0  0  0  0  0  0  0  0  0  0
    2.9456   11.3994   -0.0786 N   0  0  0  0  0  0  0  0  0  0  0  0
    2.6289   10.3227   -0.7401 N   0  0  0  0  0  0  0  0  0  0  0  0
    1.1508    8.1912   -2.8690 N   0  0  0  0  0  0  0  0  0  0  0  0
   -2.3407   16.7211   -2.7860 O   0  0  0  0  0  0  0  0  0  0  0  0
    1.6135   10.4063   -1.6109 C   0  0  0  0  0  0  0  0  0  0  0  0
    1.3380    9.1770   -2.3183 C   0  0  0  0  0  0  0  0  0  0  0  0
    0.1692   13.6345   -1.6039 C   0  0  0  0  0  0  0  0  0  0  0  0
    0.3881   14.9121   -1.0963 C   0  0  0  0  0  0  0  0  0  0  0  0
    1.1084   15.0615   -0.4952 H   0  0  0  0  0  0  0  0  0  0  0  0
   -0.4353   15.9725   -1.4592 C   0  0  0  0  0  0  0  0  0  0  0  0
   -0.2788   16.8400   -1.1049 H   0  0  0  0  0  0  0  0  0  0  0  0
   -1.4899   15.7590   -2.3430 C   0  0  0  0  0  0  0  0  0  0  0  0
   -1.7107   14.4801   -2.8385 C   0  0  0  0  0  0  0  0  0  0  0  0
   -2.4345   14.3283   -3.4347 H   0  0  0  0  0  0  0  0  0  0  0  0
   -0.8984   13.4308   -2.4794 C   0  0  0  0  0  0  0  0  0  0  0  0
   -1.0646   12.5631   -2.8288 H   0  0  0  0  0  0  0  0  0  0  0  0
   -2.1075   18.0623   -2.3366 C   0  0  0  0  0  0  0  0  0  0  0  0
   -2.7830   18.6583   -2.7225 H   0  0  0  0  0  0  0  0  0  0  0  0
   -2.1646   18.0938   -1.3587 H   0  0  0  0  0  0  0  0  0  0  0  0
   -1.2155   18.3519   -2.6211 H   0  0  0  0  0  0  0  0  0  0  0  0
    3.9865   11.2229    0.8777 C   0  0  0  0  0  0  0  0  0  0  0  0
    4.5952   12.3310    1.4735 C   0  0  0  0  0  0  0  0  0  0  0  0
    4.3284   13.2098    1.2306 H   0  0  0  0  0  0  0  0  0  0  0  0
    5.5903   12.1423    2.4209 C   0  0  0  0  0  0  0  0  0  0  0  0
    6.0044   12.9003    2.8166 H   0  0  0  0  0  0  0  0  0  0  0  0
    5.9995   10.8575    2.8085 C   0  0  0  0  0  0  0  0  0  0  0  0
    5.3840    9.7618    2.1755 C   0  0  0  0  0  0  0  0  0  0  0  0
    5.6519    8.8808    2.4090 H   0  0  0  0  0  0  0  0  0  0  0  0
    4.3983    9.9373    1.2220 C   0  0  0  0  0  0  0  0  0  0  0  0
    4.0026    9.1826    0.8020 H   0  0  0  0  0  0  0  0  0  0  0  0
    6.9739   10.6217    3.8230 C   0  0  0  0  0  0  0  0  0  0  0  0
    7.7102   10.2409    4.7215 C   0  0  0  0  0  0  0  0  0  0  0  0
    9.4665   11.5498    6.9820 P   0  0  0  0  0  0  0  0  0  0  0  0
    8.6586   13.0059    6.2493 C   0  0  0  0  0  0  0  0  0  0  0  0
    9.1355   13.8177    6.5551 H   0  0  0  0  0  0  0  0  0  0  0  0
    8.7537   12.9569    5.2652 H   0  0  0  0  0  0  0  0  0  0  0  0
    7.1784   13.1563    6.5872 C   0  0  0  0  0  0  0  0  0  0  0  0
    6.7091   12.3052    6.3980 H   0  0  0  0  0  0  0  0  0  0  0  0
    7.0789   13.3532    7.5522 H   0  0  0  0  0  0  0  0  0  0  0  0
    6.5461   14.2729    5.7759 C   0  0  0  0  0  0  0  0  0  0  0  0
    7.0668   15.1029    5.9175 H   0  0  0  0  0  0  0  0  0  0  0  0
    6.6063   14.0413    4.8152 H   0  0  0  0  0  0  0  0  0  0  0  0
    5.0934   14.5436    6.1219 C   0  0  0  0  0  0  0  0  0  0  0  0
    4.7544   15.2726    5.5615 H   0  0  0  0  0  0  0  0  0  0  0  0
    4.5632   13.7350    5.9620 H   0  0  0  0  0  0  0  0  0  0  0  0
    5.0243   14.7980    7.0659 H   0  0  0  0  0  0  0  0  0  0  0  0
   11.2353   11.7999    6.6100 C   0  0  0  0  0  0  0  0  0  0  0  0
   11.5040   12.7080    6.8981 H   0  0  0  0  0  0  0  0  0  0  0  0
   11.7723   11.1458    7.1236 H   0  0  0  0  0  0  0  0  0  0  0  0
   11.5332   11.6356    5.1179 C   0  0  0  0  0  0  0  0  0  0  0  0
   11.3526   10.6980    4.8563 H   0  0  0  0  0  0  0  0  0  0  0  0
   10.9185   12.2160    4.6026 H   0  0  0  0  0  0  0  0  0  0  0  0
   12.9699   11.9841    4.7446 C   0  0  0  0  0  0  0  0  0  0  0  0
   13.0649   11.9492    3.7598 H   0  0  0  0  0  0  0  0  0  0  0  0
   13.1627   12.9110    5.0344 H   0  0  0  0  0  0  0  0  0  0  0  0
   13.9700   11.0630    5.3630 C   0  0  0  0  0  0  0  0  0  0  0  0
   14.8727   11.3311    5.0915 H   0  0  0  0  0  0  0  0  0  0  0  0
   13.8956   11.1079    6.3391 H   0  0  0  0  0  0  0  0  0  0  0  0
   13.7978   10.1458    5.0640 H   0  0  0  0  0  0  0  0  0  0  0  0
    9.3328   11.7839    8.7912 C   0  0  0  0  0  0  0  0  0  0  0  0
    8.3754   11.8823    9.0234 H   0  0  0  0  0  0  0  0  0  0  0  0
    9.6638   10.9644    9.2373 H   0  0  0  0  0  0  0  0  0  0  0  0
   10.0944   12.9856    9.3608 C   0  0  0  0  0  0  0  0  0  0  0  0
   11.0585   12.8844    9.1598 H   0  0  0  0  0  0  0  0  0  0  0  0
    9.7766   13.8117    8.9171 H   0  0  0  0  0  0  0  0  0  0  0  0
    9.9103   13.1230   10.8593 C   0  0  0  0  0  0  0  0  0  0  0  0
   10.1741   12.2742   11.2951 H   0  0  0  0  0  0  0  0  0  0  0  0
    8.9512   13.2764   11.0528 H   0  0  0  0  0  0  0  0  0  0  0  0
   10.7222   14.2589   11.4582 C   0  0  0  0  0  0  0  0  0  0  0  0
   10.5641   14.2996   12.4244 H   0  0  0  0  0  0  0  0  0  0  0  0
   11.6750   14.1036   11.2892 H   0  0  0  0  0  0  0  0  0  0  0  0
   10.4515   15.1062   11.0468 H   0  0  0  0  0  0  0  0  0  0  0  0
   15.2088    5.9407   12.7161 B   0  0  0  0  0  0  0  0  0  0  0  0
   15.8263    5.6619   11.5189 F   0  0  0  0  0  0  0  0  0  0  0  0
   14.3151    4.9600   13.0537 F   0  0  0  0  0  0  0  0  0  0  0  0
   16.2654    6.0734   13.8741 N   0  0  0  0  0  0  0  0  0  0  0  0
   16.4551    7.1427   14.5842 N   0  0  0  0  0  0  0  0  0  0  0  0
   14.5169    7.3375   12.5911 N   0  0  0  0  0  0  0  0  0  0  0  0
   14.8089    8.3841   13.3134 N   0  0  0  0  0  0  0  0  0  0  0  0
   16.1860   10.3386   15.6914 N   0  0  0  0  0  0  0  0  0  0  0  0
   19.3912    1.7782   15.5469 O   0  0  0  0  0  0  0  0  0  0  0  0
   15.7319    8.2265   14.2744 C   0  0  0  0  0  0  0  0  0  0  0  0
   15.9922    9.4032   15.0685 C   0  0  0  0  0  0  0  0  0  0  0  0
   17.0483    4.9500   14.2751 C   0  0  0  0  0  0  0  0  0  0  0  0
   17.2604    3.8865   13.4064 C   0  0  0  0  0  0  0  0  0  0  0  0
   16.8789    3.9042   12.5364 H   0  0  0  0  0  0  0  0  0  0  0  0
   18.0280    2.7955   13.8024 C   0  0  0  0  0  0  0  0  0  0  0  0
   18.1596    2.0657   13.2088 H   0  0  0  0  0  0  0  0  0  0  0  0
   18.6032    2.7750   15.0717 C   0  0  0  0  0  0  0  0  0  0  0  0
   18.3578    3.8338   15.9514 C   0  0  0  0  0  0  0  0  0  0  0  0
   18.7304    3.8140   16.8251 H   0  0  0  0  0  0  0  0  0  0  0  0
   17.5825    4.9046   15.5667 C   0  0  0  0  0  0  0  0  0  0  0  0
   17.4108    5.6115   16.1777 H   0  0  0  0  0  0  0  0  0  0  0  0
   19.4609    0.5671   14.7845 C   0  0  0  0  0  0  0  0  0  0  0  0
   20.0589   -0.0671   15.2325 H   0  0  0  0  0  0  0  0  0  0  0  0
   18.5655    0.1756   14.7106 H   0  0  0  0  0  0  0  0  0  0  0  0
   19.8061    0.7645   13.8887 H   0  0  0  0  0  0  0  0  0  0  0  0
   13.5545    7.5870   11.5682 C   0  0  0  0  0  0  0  0  0  0  0  0
   12.7300    6.5532   11.1188 C   0  0  0  0  0  0  0  0  0  0  0  0
   12.8252    5.6767   11.4726 H   0  0  0  0  0  0  0  0  0  0  0  0
   11.7698    6.8166   10.1502 C   0  0  0  0  0  0  0  0  0  0  0  0
   11.2068    6.1130    9.8494 H   0  0  0  0  0  0  0  0  0  0  0  0
   11.6150    8.0981    9.6081 C   0  0  0  0  0  0  0  0  0  0  0  0
   12.4603    9.1214   10.0766 C   0  0  0  0  0  0  0  0  0  0  0  0
   12.3674    9.9997    9.7264 H   0  0  0  0  0  0  0  0  0  0  0  0
   13.4247    8.8720   11.0383 C   0  0  0  0  0  0  0  0  0  0  0  0
   13.9948    9.5713   11.3358 H   0  0  0  0  0  0  0  0  0  0  0  0
   10.6526    8.3806    8.5882 C   0  0  0  0  0  0  0  0  0  0  0  0
    9.9083    8.7337    7.6884 C   0  0  0  0  0  0  0  0  0  0  0  0
    8.1950    7.3673    5.5068 P   0  0  0  0  0  0  0  0  0  0  0  0
    9.2859    5.9897    6.0092 C   0  0  0  0  0  0  0  0  0  0  0  0
    9.3507    5.9806    6.9969 H   0  0  0  0  0  0  0  0  0  0  0  0
    8.8691    5.1366    5.7285 H   0  0  0  0  0  0  0  0  0  0  0  0
   10.6986    6.0600    5.4259 C   0  0  0  0  0  0  0  0  0  0  0  0
   11.1699    6.8383    5.8160 H   0  0  0  0  0  0  0  0  0  0  0  0
   10.6368    6.2029    4.4482 H   0  0  0  0  0  0  0  0  0  0  0  0
   11.5198    4.7944    5.6939 C   0  0  0  0  0  0  0  0  0  0  0  0
   11.0571    4.0213    5.2835 H   0  0  0  0  0  0  0  0  0  0  0  0
   12.4009    4.8865    5.2518 H   0  0  0  0  0  0  0  0  0  0  0  0
   11.7405    4.5059    7.1692 C   0  0  0  0  0  0  0  0  0  0  0  0
   12.2700    3.6869    7.2661 H   0  0  0  0  0  0  0  0  0  0  0  0
   12.2195    5.2553    7.5805 H   0  0  0  0  0  0  0  0  0  0  0  0
   10.8741    4.3891    7.6122 H   0  0  0  0  0  0  0  0  0  0  0  0
    7.9929    7.1509    3.7031 C   0  0  0  0  0  0  0  0  0  0  0  0
    7.4741    7.9197    3.3569 H   0  0  0  0  0  0  0  0  0  0  0  0
    8.8900    7.1891    3.2860 H   0  0  0  0  0  0  0  0  0  0  0  0
    7.3055    5.8639    3.2373 C   0  0  0  0  0  0  0  0  0  0  0  0
    7.7929    5.0851    3.6062 H   0  0  0  0  0  0  0  0  0  0  0  0
    6.3830    5.8417    3.5961 H   0  0  0  0  0  0  0  0  0  0  0  0
    7.2524    5.7447    1.7234 C   0  0  0  0  0  0  0  0  0  0  0  0
    8.1777    5.7164    1.3724 H   0  0  0  0  0  0  0  0  0  0  0  0
    6.8154    6.5529    1.3544 H   0  0  0  0  0  0  0  0  0  0  0  0
    6.5042    4.5152    1.2329 C   0  0  0  0  0  0  0  0  0  0  0  0
    6.5073    4.4998    0.2531 H   0  0  0  0  0  0  0  0  0  0  0  0
    6.9427    3.7080    1.5739 H   0  0  0  0  0  0  0  0  0  0  0  0
    5.5790    4.5454    1.5559 H   0  0  0  0  0  0  0  0  0  0  0  0
    6.6042    6.8949    6.2625 C   0  0  0  0  0  0  0  0  0  0  0  0
    6.3861    5.9713    5.9808 H   0  0  0  0  0  0  0  0  0  0  0  0
    6.7155    6.8870    7.2462 H   0  0  0  0  0  0  0  0  0  0  0  0
    5.4191    7.7976    5.9177 C   0  0  0  0  0  0  0  0  0  0  0  0
    5.5732    8.6980    6.2996 H   0  0  0  0  0  0  0  0  0  0  0  0
    5.3555    7.8908    4.9342 H   0  0  0  0  0  0  0  0  0  0  0  0
    4.1031    7.2417    6.4563 C   0  0  0  0  0  0  0  0  0  0  0  0
    3.3773    7.8804    6.2431 H   0  0  0  0  0  0  0  0  0  0  0  0
    3.9020    6.3923    5.9890 H   0  0  0  0  0  0  0  0  0  0  0  0
    4.1032    6.9894    7.9321 C   0  0  0  0  0  0  0  0  0  0  0  0
    3.2310    6.6359    8.2034 H   0  0  0  0  0  0  0  0  0  0  0  0
    4.8029    6.3394    8.1522 H   0  0  0  0  0  0  0  0  0  0  0  0
    4.2775    7.8295    8.4066 H   0  0  0  0  0  0  0  0  0  0  0  0
  1 38  1  0  0  0  0
  2  3  1  0  0  0  0
  4  2  1  0  0  0  0
  5  2  1  0  0  0  0
  6  5  2  0  0  0  0
  7  2  1  0  0  0  0
  8  7  1  0  0  0  0
  9 12  3  0  0  0  0
 10 18  1  0  0  0  0
 11  6  1  0  0  0  0
 12 11  1  0  0  0  0
 13  5  1  0  0  0  0
 14 13  4  0  0  0  0
 15 14  1  0  0  0  0
 16 14  4  0  0  0  0
 17 16  1  0  0  0  0
 18 16  4  0  0  0  0
 19 18  4  0  0  0  0
 20 19  1  0  0  0  0
 21 13  4  0  0  0  0
 22 21  1  0  0  0  0
 23 10  1  0  0  0  0
 24 23  1  0  0  0  0
 25 23  1  0  0  0  0
 26 23  1  0  0  0  0
 27  7  1  0  0  0  0
 28 27  4  0  0  0  0
 29 28  1  0  0  0  0
 30 28  4  0  0  0  0
 31 30  1  0  0  0  0
 32 30  4  0  0  0  0
 33 32  4  0  0  0  0
 34 33  1  0  0  0  0
 35 27  4  0  0  0  0
 36 35  1  0  0  0  0
 37 32  1  0  0  0  0
 38 37  3  0  0  0  0
 39  1  1  0  0  0  0
 40 39  1  0  0  0  0
 41 40  1  0  0  0  0
 42 40  1  0  0  0  0
 43 40  1  0  0  0  0
 44 43  1  0  0  0  0
 45 43  1  0  0  0  0
 46 43  1  0  0  0  0
 47 46  1  0  0  0  0
 48 46  1  0  0  0  0
 49 46  1  0  0  0  0
 50 49  1  0  0  0  0
 51 49  1  0  0  0  0
 52 49  1  0  0  0  0
 53 39  1  0  0  0  0
 54 53  1  0  0  0  0
 55 53  1  0  0  0  0
 56 53  1  0  0  0  0
 57 56  1  0  0  0  0
 58 56  1  0  0  0  0
 59 56  1  0  0  0  0
 60 59  1  0  0  0  0
 61 59  1  0  0  0  0
 62 59  1  0  0  0  0
 63 62  1  0  0  0  0
 64 62  1  0  0  0  0
 65 62  1  0  0  0  0
 66 39  1  0  0  0  0
 67 66  1  0  0  0  0
 68 66  1  0  0  0  0
 69 66  1  0  0  0  0
 70 69  1  0  0  0  0
 71 69  1  0  0  0  0
 72 69  1  0  0  0  0
 73 72  1  0  0  0  0
 74 72  1  0  0  0  0
 75 72  1  0  0  0  0
 76 75  1  0  0  0  0
 77 75  1  0  0  0  0
 78 75  1  0  0  0  0
 79 80  1  0  0  0  0
 81 79  1  0  0  0  0
 82 79  1  0  0  0  0
 83 82  2  0  0  0  0
 84 79  1  0  0  0  0
 85 84  1  0  0  0  0
 86 89  3  0  0  0  0
 87 95  1  0  0  0  0
 88 83  1  0  0  0  0
 89 88  1  0  0  0  0
 90 82  1  0  0  0  0
 91 90  4  0  0  0  0
 92 91  1  0  0  0  0
 93 91  4  0  0  0  0
 94 93  1  0  0  0  0
 95 93  4  0  0  0  0
 96 95  4  0  0  0  0
 97 96  1  0  0  0  0
 98 90  4  0  0  0  0
 99 98  1  0  0  0  0
100 87  1  0  0  0  0
101100  1  0  0  0  0
102100  1  0  0  0  0
103100  1  0  0  0  0
104 84  1  0  0  0  0
105104  4  0  0  0  0
106105  1  0  0  0  0
107105  4  0  0  0  0
108107  1  0  0  0  0
109107  4  0  0  0  0
110109  4  0  0  0  0
111110  1  0  0  0  0
112104  4  0  0  0  0
113112  1  0  0  0  0
114109  1  0  0  0  0
115  1  1  0  0  0  0
116  1  1  0  0  0  0
117116  1  0  0  0  0
118117  1  0  0  0  0
119117  1  0  0  0  0
120117  1  0  0  0  0
121120  1  0  0  0  0
122120  1  0  0  0  0
123120  1  0  0  0  0
124123  1  0  0  0  0
125123  1  0  0  0  0
126123  1  0  0  0  0
127126  1  0  0  0  0
128126  1  0  0  0  0
129126  1  0  0  0  0
130116  1  0  0  0  0
131130  1  0  0  0  0
132130  1  0  0  0  0
133130  1  0  0  0  0
134133  1  0  0  0  0
135133  1  0  0  0  0
136133  1  0  0  0  0
137136  1  0  0  0  0
138136  1  0  0  0  0
139136  1  0  0  0  0
140139  1  0  0  0  0
141139  1  0  0  0  0
142139  1  0  0  0  0
143116  1  0  0  0  0
144143  1  0  0  0  0
145143  1  0  0  0  0
146143  1  0  0  0  0
147146  1  0  0  0  0
148146  1  0  0  0  0
149146  1  0  0  0  0
150149  1  0  0  0  0
151149  1  0  0  0  0
152149  1  0  0  0  0
153152  1  0  0  0  0
154152  1  0  0  0  0
155152  1  0  0  0  0
  8 11  2  0  0  0  0
 19 21  4  0  0  0  0
 33 35  4  0  0  0  0
 85 88  2  0  0  0  0
 96 98  4  0  0  0  0
110112  4  0  0  0  0
114115  3  0  0  0  0
M  END
$$$$
KUBCIX

From CSD data. Using bond type 'Any'. Matching problem. No disordered atoms. Largest molecule.
134144  0  0  0  0  0  0  0  0999 V2000
   -3.6850    3.6404   18.1404 P   0  0  0  0  0  0  0  0  0  0  0  0
   -5.5104    4.9571   17.8469 P   0  0  0  0  0  0  0  0  0  0  0  0
   -4.2140    3.7178   20.2919 P   0  0  0  0  0  0  0  0  0  0  0  0
   -2.9745    5.3187   19.4022 P   0  0  0  0  0  0  0  0  0  0  0  0
   -6.8379    2.3057   19.0996 Si  0  0  0  0  0  0  0  0  0  0  0  0
   -3.3093    7.0616   16.7343 Si  0  0  0  0  0  0  0  0  0  0  0  0
   -7.0006    6.8136   19.3282 O   0  0  0  0  0  0  0  0  0  0  0  0
   -6.4552    1.4036   17.5354 N   0  0  0  0  0  0  0  0  0  0  0  0
   -6.0621    0.6628   19.4944 N   0  0  0  0  0  0  0  0  0  0  0  0
   -8.5080    2.1111   19.3802 N   0  0  0  0  0  0  0  0  0  0  0  0
   -3.0581    5.9126   15.3534 N   0  0  0  0  0  0  0  0  0  0  0  0
   -4.4312    7.5550   15.3716 N   0  0  0  0  0  0  0  0  0  0  0  0
   -2.0117    8.1302   16.8108 N   0  0  0  0  0  0  0  0  0  0  0  0
   -6.9912    4.8518   20.6953 C   0  0  0  0  0  0  0  0  0  0  0  0
   -7.3812    4.3121   21.9174 C   0  0  0  0  0  0  0  0  0  0  0  0
   -7.1959    3.3969   22.0981 H   0  0  0  0  0  0  0  0  0  0  0  0
   -8.0381    5.0708   22.8858 C   0  0  0  0  0  0  0  0  0  0  0  0
   -8.3016    4.6602   23.7015 H   0  0  0  0  0  0  0  0  0  0  0  0
   -8.3145    6.4119   22.6786 C   0  0  0  0  0  0  0  0  0  0  0  0
   -8.7465    6.9209   23.3544 H   0  0  0  0  0  0  0  0  0  0  0  0
   -7.3740    6.1806   20.5114 C   0  0  0  0  0  0  0  0  0  0  0  0
   -7.9531    7.0062   21.4755 C   0  0  0  0  0  0  0  0  0  0  0  0
   -7.9999    8.5091   21.1499 C   0  0  0  0  0  0  0  0  0  0  0  0
   -8.2484    9.3621   22.4080 C   0  0  0  0  0  0  0  0  0  0  0  0
   -7.5377    9.1962   23.0621 H   0  0  0  0  0  0  0  0  0  0  0  0
   -9.1148    9.1245   22.7997 H   0  0  0  0  0  0  0  0  0  0  0  0
   -8.2509   10.3118   22.1632 H   0  0  0  0  0  0  0  0  0  0  0  0
   -9.1299    8.7942   20.1139 C   0  0  0  0  0  0  0  0  0  0  0  0
   -9.1306    9.7461   19.8870 H   0  0  0  0  0  0  0  0  0  0  0  0
   -9.9963    8.5484   20.5011 H   0  0  0  0  0  0  0  0  0  0  0  0
   -8.9715    8.2637   19.3053 H   0  0  0  0  0  0  0  0  0  0  0  0
   -6.1293    7.8579   19.6403 C   0  0  0  0  0  0  0  0  0  0  0  0
   -6.6354    8.8155   20.5283 C   0  0  0  0  0  0  0  0  0  0  0  0
   -5.8118    9.8613   20.8645 C   0  0  0  0  0  0  0  0  0  0  0  0
   -6.1144   10.5405   21.4557 H   0  0  0  0  0  0  0  0  0  0  0  0
   -4.5292    9.9096   20.3317 C   0  0  0  0  0  0  0  0  0  0  0  0
   -3.9728   10.6549   20.5272 H   0  0  0  0  0  0  0  0  0  0  0  0
   -4.0443    8.8956   19.5176 C   0  0  0  0  0  0  0  0  0  0  0  0
   -3.1563    8.9545   19.1849 H   0  0  0  0  0  0  0  0  0  0  0  0
   -4.8386    7.7754   19.1667 C   0  0  0  0  0  0  0  0  0  0  0  0
   -4.0880    6.4682   14.6631 C   0  0  0  0  0  0  0  0  0  0  0  0
   -4.7297    5.8693   13.4854 C   0  0  0  0  0  0  0  0  0  0  0  0
   -4.3126    6.1524   12.1829 C   0  0  0  0  0  0  0  0  0  0  0  0
   -3.6137    6.7800   12.0335 H   0  0  0  0  0  0  0  0  0  0  0  0
   -4.9125    5.5217   11.1131 C   0  0  0  0  0  0  0  0  0  0  0  0
   -4.6096    5.6940   10.2305 H   0  0  0  0  0  0  0  0  0  0  0  0
   -5.9608    4.6364   11.3245 C   0  0  0  0  0  0  0  0  0  0  0  0
   -6.3740    4.2038   10.5869 H   0  0  0  0  0  0  0  0  0  0  0  0
   -6.4000    4.3882   12.6079 C   0  0  0  0  0  0  0  0  0  0  0  0
   -7.1294    3.7973   12.7560 H   0  0  0  0  0  0  0  0  0  0  0  0
   -5.7786    5.0026   13.6757 C   0  0  0  0  0  0  0  0  0  0  0  0
   -6.0797    4.8214   14.5576 H   0  0  0  0  0  0  0  0  0  0  0  0
   -2.0016    4.9819   14.8766 C   0  0  0  0  0  0  0  0  0  0  0  0
   -1.3506    5.5095   13.6017 C   0  0  0  0  0  0  0  0  0  0  0  0
   -0.5046    5.0390   13.4488 H   0  0  0  0  0  0  0  0  0  0  0  0
   -1.1795    6.4691   13.6951 H   0  0  0  0  0  0  0  0  0  0  0  0
   -1.9509    5.3566   12.8418 H   0  0  0  0  0  0  0  0  0  0  0  0
   -2.5473    3.5802   14.6589 C   0  0  0  0  0  0  0  0  0  0  0  0
   -3.2229    3.5991   13.9494 H   0  0  0  0  0  0  0  0  0  0  0  0
   -2.9553    3.2558   15.4894 H   0  0  0  0  0  0  0  0  0  0  0  0
   -1.8165    2.9819   14.3989 H   0  0  0  0  0  0  0  0  0  0  0  0
   -0.9231    4.9847   15.9761 C   0  0  0  0  0  0  0  0  0  0  0  0
   -0.2180    4.3447   15.7449 H   0  0  0  0  0  0  0  0  0  0  0  0
   -1.3275    4.7290   16.8323 H   0  0  0  0  0  0  0  0  0  0  0  0
   -0.5369    5.8822   16.0537 H   0  0  0  0  0  0  0  0  0  0  0  0
   -5.6004    8.4726   15.2170 C   0  0  0  0  0  0  0  0  0  0  0  0
   -5.8629    8.7765   13.7328 C   0  0  0  0  0  0  0  0  0  0  0  0
   -6.1888    7.9689   13.2845 H   0  0  0  0  0  0  0  0  0  0  0  0
   -5.0309    9.0734   13.3072 H   0  0  0  0  0  0  0  0  0  0  0  0
   -6.5368    9.4855   13.6585 H   0  0  0  0  0  0  0  0  0  0  0  0
   -5.2128    9.7520   15.9380 C   0  0  0  0  0  0  0  0  0  0  0  0
   -5.9487   10.3970   15.8791 H   0  0  0  0  0  0  0  0  0  0  0  0
   -4.4113   10.1330   15.5215 H   0  0  0  0  0  0  0  0  0  0  0  0
   -5.0277    9.5541   16.8802 H   0  0  0  0  0  0  0  0  0  0  0  0
   -6.8509    7.8450   15.8196 C   0  0  0  0  0  0  0  0  0  0  0  0
   -7.6070    8.4583   15.7127 H   0  0  0  0  0  0  0  0  0  0  0  0
   -6.7018    7.6712   16.7719 H   0  0  0  0  0  0  0  0  0  0  0  0
   -7.0462    7.0016   15.3599 H   0  0  0  0  0  0  0  0  0  0  0  0
   -1.5162    8.8445   15.6230 C   0  0  0  0  0  0  0  0  0  0  0  0
   -0.6748    8.4396   15.3262 H   0  0  0  0  0  0  0  0  0  0  0  0
   -1.3644    9.7859   15.8486 H   0  0  0  0  0  0  0  0  0  0  0  0
   -2.1802    8.7829   14.9055 H   0  0  0  0  0  0  0  0  0  0  0  0
   -1.0406    8.1757   17.9065 C   0  0  0  0  0  0  0  0  0  0  0  0
   -1.3445    7.5927   18.6351 H   0  0  0  0  0  0  0  0  0  0  0  0
   -0.9616    9.0944   18.2357 H   0  0  0  0  0  0  0  0  0  0  0  0
   -0.1689    7.8662   17.5843 H   0  0  0  0  0  0  0  0  0  0  0  0
   -5.9443    0.3818   18.2089 C   0  0  0  0  0  0  0  0  0  0  0  0
   -5.3895   -0.8402   17.5682 C   0  0  0  0  0  0  0  0  0  0  0  0
   -4.1458   -0.7901   16.9466 C   0  0  0  0  0  0  0  0  0  0  0  0
   -3.6135   -0.0040   16.9949 H   0  0  0  0  0  0  0  0  0  0  0  0
   -3.6933   -1.9152   16.2446 C   0  0  0  0  0  0  0  0  0  0  0  0
   -2.8561   -1.8905   15.7940 H   0  0  0  0  0  0  0  0  0  0  0  0
   -4.4545   -3.0464   16.2087 C   0  0  0  0  0  0  0  0  0  0  0  0
   -4.1376   -3.8085   15.7370 H   0  0  0  0  0  0  0  0  0  0  0  0
   -5.6682   -3.1010   16.8388 C   0  0  0  0  0  0  0  0  0  0  0  0
   -6.1885   -3.8961   16.8015 H   0  0  0  0  0  0  0  0  0  0  0  0
   -6.1347   -2.0090   17.5280 C   0  0  0  0  0  0  0  0  0  0  0  0
   -6.9700   -2.0535   17.9773 H   0  0  0  0  0  0  0  0  0  0  0  0
   -6.8789    1.4663   16.1008 C   0  0  0  0  0  0  0  0  0  0  0  0
   -7.8255    2.6636   16.0015 C   0  0  0  0  0  0  0  0  0  0  0  0
   -7.3665    3.4708   16.3168 H   0  0  0  0  0  0  0  0  0  0  0  0
   -8.6170    2.5015   16.5571 H   0  0  0  0  0  0  0  0  0  0  0  0
   -8.1001    2.7870   15.0697 H   0  0  0  0  0  0  0  0  0  0  0  0
   -7.6276    0.2268   15.6737 C   0  0  0  0  0  0  0  0  0  0  0  0
   -8.1561    0.4253   14.8721 H   0  0  0  0  0  0  0  0  0  0  0  0
   -8.2245   -0.0597   16.3957 H   0  0  0  0  0  0  0  0  0  0  0  0
   -6.9883   -0.4883   15.4742 H   0  0  0  0  0  0  0  0  0  0  0  0
   -5.6674    1.7340   15.2213 C   0  0  0  0  0  0  0  0  0  0  0  0
   -5.0654    0.9597   15.2536 H   0  0  0  0  0  0  0  0  0  0  0  0
   -5.1958    2.5275   15.5469 H   0  0  0  0  0  0  0  0  0  0  0  0
   -5.9606    1.8806   14.2988 H   0  0  0  0  0  0  0  0  0  0  0  0
   -5.4429   -0.0483   20.6636 C   0  0  0  0  0  0  0  0  0  0  0  0
   -5.8040    0.7780   21.8921 C   0  0  0  0  0  0  0  0  0  0  0  0
   -5.4139    1.6736   21.8097 H   0  0  0  0  0  0  0  0  0  0  0  0
   -5.4533    0.3413   22.6953 H   0  0  0  0  0  0  0  0  0  0  0  0
   -6.7794    0.8528   21.9599 H   0  0  0  0  0  0  0  0  0  0  0  0
   -6.0489   -1.4606   20.8264 C   0  0  0  0  0  0  0  0  0  0  0  0
   -7.0260   -1.3974   20.8257 H   0  0  0  0  0  0  0  0  0  0  0  0
   -5.7453   -1.8496   21.6721 H   0  0  0  0  0  0  0  0  0  0  0  0
   -5.7571   -2.0278   20.0817 H   0  0  0  0  0  0  0  0  0  0  0  0
   -3.9271   -0.1293   20.5051 C   0  0  0  0  0  0  0  0  0  0  0  0
   -3.7097   -0.6519   19.7054 H   0  0  0  0  0  0  0  0  0  0  0  0
   -3.5401   -0.5639   21.2942 H   0  0  0  0  0  0  0  0  0  0  0  0
   -3.5597    0.7740   20.4163 H   0  0  0  0  0  0  0  0  0  0  0  0
   -9.2078    0.8517   19.3147 C   0  0  0  0  0  0  0  0  0  0  0  0
   -9.7668    0.8298   18.5102 H   0  0  0  0  0  0  0  0  0  0  0  0
   -9.7743    0.7505   20.1086 H   0  0  0  0  0  0  0  0  0  0  0  0
   -8.5588    0.1180   19.2817 H   0  0  0  0  0  0  0  0  0  0  0  0
   -9.4342    3.2579   19.3548 C   0  0  0  0  0  0  0  0  0  0  0  0
   -8.9222    4.0900   19.2915 H   0  0  0  0  0  0  0  0  0  0  0  0
   -9.9698    3.2637   20.1752 H   0  0  0  0  0  0  0  0  0  0  0  0
  -10.0281    3.1794   18.5781 H   0  0  0  0  0  0  0  0  0  0  0  0
   -6.0451    4.0919   19.6107 B   0  0  0  0  0  0  0  0  0  0  0  0
   -4.2789    6.4422   18.4013 B   0  0  0  0  0  0  0  0  0  0  0  0
  1  2  1  0  0  0  0
  2133  1  0  0  0  0
  3  1  1  0  0  0  0
  4  1  1  0  0  0  0
  5  8  1  0  0  0  0
  6 11  1  0  0  0  0
  7 21  1  0  0  0  0
  8 87  8  0  0  0  0
  9  5  1  0  0  0  0
 10  5  1  0  0  0  0
 11 41  8  0  0  0  0
 12  6  1  0  0  0  0
 13  6  1  0  0  0  0
 14 15  4  0  0  0  0
 15 16  1  0  0  0  0
 17 15  4  0  0  0  0
 18 17  1  0  0  0  0
 19 17  4  0  0  0  0
 20 19  1  0  0  0  0
 21 14  4  0  0  0  0
 22 19  4  0  0  0  0
 23 22  1  0  0  0  0
 24 23  1  0  0  0  0
 25 24  1  0  0  0  0
 26 24  1  0  0  0  0
 27 24  1  0  0  0  0
 28 23  1  0  0  0  0
 29 28  1  0  0  0  0
 30 28  1  0  0  0  0
 31 28  1  0  0  0  0
 32  7  1  0  0  0  0
 33 23  1  0  0  0  0
 34 33  4  0  0  0  0
 35 34  1  0  0  0  0
 36 34  4  0  0  0  0
 37 36  1  0  0  0  0
 38 36  4  0  0  0  0
 39 38  1  0  0  0  0
 40 32  4  0  0  0  0
 41 12  8  0  0  0  0
 42 41  1  0  0  0  0
 43 42  4  0  0  0  0
 44 43  1  0  0  0  0
 45 43  4  0  0  0  0
 46 45  1  0  0  0  0
 47 45  4  0  0  0  0
 48 47  1  0  0  0  0
 49 47  4  0  0  0  0
 50 49  1  0  0  0  0
 51 42  4  0  0  0  0
 52 51  1  0  0  0  0
 53 11  1  0  0  0  0
 54 53  1  0  0  0  0
 55 54  1  0  0  0  0
 56 54  1  0  0  0  0
 57 54  1  0  0  0  0
 58 53  1  0  0  0  0
 59 58  1  0  0  0  0
 60 58  1  0  0  0  0
 61 58  1  0  0  0  0
 62 53  1  0  0  0  0
 63 62  1  0  0  0  0
 64 62  1  0  0  0  0
 65 62  1  0  0  0  0
 66 12  1  0  0  0  0
 67 66  1  0  0  0  0
 68 67  1  0  0  0  0
 69 67  1  0  0  0  0
 70 67  1  0  0  0  0
 71 66  1  0  0  0  0
 72 71  1  0  0  0  0
 73 71  1  0  0  0  0
 74 71  1  0  0  0  0
 75 66  1  0  0  0  0
 76 75  1  0  0  0  0
 77 75  1  0  0  0  0
 78 75  1  0  0  0  0
 79 13  1  0  0  0  0
 80 79  1  0  0  0  0
 81 79  1  0  0  0  0
 82 79  1  0  0  0  0
 83 13  1  0  0  0  0
 84 83  1  0  0  0  0
 85 83  1  0  0  0  0
 86 83  1  0  0  0  0
 87  9  8  0  0  0  0
 88 87  1  0  0  0  0
 89 88  4  0  0  0  0
 90 89  1  0  0  0  0
 91 89  4  0  0  0  0
 92 91  1  0  0  0  0
 93 91  4  0  0  0  0
 94 93  1  0  0  0  0
 95 93  4  0  0  0  0
 96 95  1  0  0  0  0
 97 88  4  0  0  0  0
 98 97  1  0  0  0  0
 99  8  1  0  0  0  0
100 99  1  0  0  0  0
101100  1  0  0  0  0
102100  1  0  0  0  0
103100  1  0  0  0  0
104 99  1  0  0  0  0
105104  1  0  0  0  0
106104  1  0  0  0  0
107104  1  0  0  0  0
108 99  1  0  0  0  0
109108  1  0  0  0  0
110108  1  0  0  0  0
111108  1  0  0  0  0
112  9  1  0  0  0  0
113112  1  0  0  0  0
114113  1  0  0  0  0
115113  1  0  0  0  0
116113  1  0  0  0  0
117112  1  0  0  0  0
118117  1  0  0  0  0
119117  1  0  0  0  0
120117  1  0  0  0  0
121112  1  0  0  0  0
122121  1  0  0  0  0
123121  1  0  0  0  0
124121  1  0  0  0  0
125 10  1  0  0  0  0
126125  1  0  0  0  0
127125  1  0  0  0  0
128125  1  0  0  0  0
129 10  1  0  0  0  0
130129  1  0  0  0  0
131129  1  0  0  0  0
132129  1  0  0  0  0
133  3  1  0  0  0  0
134  2  1  0  0  0  0
  3  4  1  0  0  0  0
  4134  1  0  0  0  0
  5133  1  0  0  0  0
  6134  1  0  0  0  0
 14133  1  0  0  0  0
 21 22  4  0  0  0  0
 32 33  4  0  0  0  0
 38 40  4  0  0  0  0
 40134  1  0  0  0  0
 49 51  4  0  0  0  0
 95 97  4  0  0  0  0
M  END
$$$$
KUCXUB

From CSD data. Using bond type 'Any'. No disordered atoms. Largest molecule.
 95119  0  0  0  0  0  0  0  0999 V2000
    9.3950    0.7670    4.7871 W   0  0  0  0  0  0  0  0  0  0  0  0
    8.6434    0.3120    2.4789 P   0  0  0  0  0  0  0  0  0  0  0  0
    8.6684   -0.2702    6.9287 P   0  0  0  0  0  0  0  0  0  0  0  0
   11.6239    1.4863    5.5186 C   0  0  0  0  0  0  0  0  0  0  0  0
   11.4296    1.8380    3.9500 C   0  0  0  0  0  0  0  0  0  0  0  0
   12.4374    0.2663    5.9595 C   0  0  0  0  0  0  0  0  0  0  0  0
   12.0909    0.9736    2.8710 C   0  0  0  0  0  0  0  0  0  0  0  0
   10.0063    2.7977    3.7183 B   0  0  0  0  0  0  0  0  0  0  0  0
    9.2856    3.1176    5.3459 B   0  0  0  0  0  0  0  0  0  0  0  0
   10.3551    2.1698    6.4288 B   0  0  0  0  0  0  0  0  0  0  0  0
   12.6658    2.7262    4.8298 B   0  0  0  0  0  0  0  0  0  0  0  0
   11.6436    3.5388    3.6818 B   0  0  0  0  0  0  0  0  0  0  0  0
   10.3522    4.3178    4.5575 B   0  0  0  0  0  0  0  0  0  0  0  0
   10.5458    3.9303    6.2907 B   0  0  0  0  0  0  0  0  0  0  0  0
   11.9805    2.9129    6.4187 B   0  0  0  0  0  0  0  0  0  0  0  0
   11.9589    4.2502    5.2747 B   0  0  0  0  0  0  0  0  0  0  0  0
   10.0031   -1.0988    4.5026 C   0  0  0  0  0  0  0  0  0  0  0  0
   10.4325   -2.1460    4.3116 O   0  0  0  0  0  0  0  0  0  0  0  0
    7.4264    0.7014    4.8115 C   0  0  0  0  0  0  0  0  0  0  0  0
    6.2728    0.7312    4.8643 O   0  0  0  0  0  0  0  0  0  0  0  0
    7.8487    3.7276    5.8233 C   0  0  0  0  0  0  0  0  0  0  0  0
    7.7228    3.6660    7.3147 C   0  0  0  0  0  0  0  0  0  0  0  0
    6.6445    3.0540    7.9304 C   0  0  0  0  0  0  0  0  0  0  0  0
    6.5691    2.9706    9.3263 C   0  0  0  0  0  0  0  0  0  0  0  0
    7.5696    3.4892   10.1004 C   0  0  0  0  0  0  0  0  0  0  0  0
    8.6514    4.1071    9.5031 C   0  0  0  0  0  0  0  0  0  0  0  0
    8.7444    4.2124    8.1133 C   0  0  0  0  0  0  0  0  0  0  0  0
    9.9482    4.8582    7.4529 C   0  0  0  0  0  0  0  0  0  0  0  0
    7.2598    1.2935    1.7352 C   0  0  0  0  0  0  0  0  0  0  0  0
    6.6969    0.8544    0.5567 C   0  0  0  0  0  0  0  0  0  0  0  0
    5.6676    1.5658   -0.0264 C   0  0  0  0  0  0  0  0  0  0  0  0
    5.2359    2.7301    0.5384 C   0  0  0  0  0  0  0  0  0  0  0  0
    5.7941    3.1871    1.7169 C   0  0  0  0  0  0  0  0  0  0  0  0
    6.8120    2.4679    2.3123 C   0  0  0  0  0  0  0  0  0  0  0  0
    8.2273   -1.4028    2.0116 C   0  0  0  0  0  0  0  0  0  0  0  0
    7.1396   -2.0526    2.5561 C   0  0  0  0  0  0  0  0  0  0  0  0
    6.8249   -3.3302    2.1985 C   0  0  0  0  0  0  0  0  0  0  0  0
    7.5972   -4.0018    1.2740 C   0  0  0  0  0  0  0  0  0  0  0  0
    8.6900   -3.3680    0.7030 C   0  0  0  0  0  0  0  0  0  0  0  0
    9.0210   -2.0705    1.0728 C   0  0  0  0  0  0  0  0  0  0  0  0
    9.8109   -1.1366    8.0747 C   0  0  0  0  0  0  0  0  0  0  0  0
   10.3147   -2.3745    7.7678 C   0  0  0  0  0  0  0  0  0  0  0  0
   11.1125   -3.0659    8.6741 C   0  0  0  0  0  0  0  0  0  0  0  0
   11.4300   -2.5056    9.8810 C   0  0  0  0  0  0  0  0  0  0  0  0
   10.9192   -1.2598   10.1898 C   0  0  0  0  0  0  0  0  0  0  0  0
   10.1190   -0.5663    9.2978 C   0  0  0  0  0  0  0  0  0  0  0  0
    7.2449   -1.4048    6.8880 C   0  0  0  0  0  0  0  0  0  0  0  0
    7.2502   -2.5652    6.1200 C   0  0  0  0  0  0  0  0  0  0  0  0
    6.1435   -3.3878    6.1098 C   0  0  0  0  0  0  0  0  0  0  0  0
    5.0309   -3.0719    6.8454 C   0  0  0  0  0  0  0  0  0  0  0  0
    5.0151   -1.9393    7.6094 C   0  0  0  0  0  0  0  0  0  0  0  0
    6.1196   -1.1048    7.6419 C   0  0  0  0  0  0  0  0  0  0  0  0
    9.5990    0.3497    1.5320 H   0  0  0  0  0  0  0  0  0  0  0  0
    8.1717    0.8127    7.7638 H   0  0  0  0  0  0  0  0  0  0  0  0
   11.8483   -0.3954    6.3313 H   0  0  0  0  0  0  0  0  0  0  0  0
   13.0777    0.5325    6.6239 H   0  0  0  0  0  0  0  0  0  0  0  0
   12.8964   -0.1033    5.2016 H   0  0  0  0  0  0  0  0  0  0  0  0
   11.4153    0.4868    2.3935 H   0  0  0  0  0  0  0  0  0  0  0  0
   12.6986    0.3557    3.2835 H   0  0  0  0  0  0  0  0  0  0  0  0
   12.5738    1.5360    2.2615 H   0  0  0  0  0  0  0  0  0  0  0  0
    9.6370    2.8414    2.7369 H   0  0  0  0  0  0  0  0  0  0  0  0
   10.1742    1.9095    7.3229 H   0  0  0  0  0  0  0  0  0  0  0  0
   13.6382    2.4698    4.6042 H   0  0  0  0  0  0  0  0  0  0  0  0
   11.9342    3.8846    2.6374 H   0  0  0  0  0  0  0  0  0  0  0  0
    9.8892    5.1483    4.2486 H   0  0  0  0  0  0  0  0  0  0  0  0
   12.6610    2.8653    7.3473 H   0  0  0  0  0  0  0  0  0  0  0  0
   12.6489    5.2775    5.4373 H   0  0  0  0  0  0  0  0  0  0  0  0
    7.1396    3.2170    5.4251 H   0  0  0  0  0  0  0  0  0  0  0  0
    7.7841    4.6416    5.5369 H   0  0  0  0  0  0  0  0  0  0  0  0
    5.9400    2.6805    7.3960 H   0  0  0  0  0  0  0  0  0  0  0  0
    5.8150    2.5473    9.7408 H   0  0  0  0  0  0  0  0  0  0  0  0
    7.5205    3.4256   11.0554 H   0  0  0  0  0  0  0  0  0  0  0  0
    9.3487    4.4727   10.0517 H   0  0  0  0  0  0  0  0  0  0  0  0
    9.6810    5.6987    7.0750 H   0  0  0  0  0  0  0  0  0  0  0  0
   10.6279    5.0053    8.1153 H   0  0  0  0  0  0  0  0  0  0  0  0
    7.0221    0.0536    0.1402 H   0  0  0  0  0  0  0  0  0  0  0  0
    5.2510    1.2379   -0.8270 H   0  0  0  0  0  0  0  0  0  0  0  0
    4.5425    3.2388    0.1138 H   0  0  0  0  0  0  0  0  0  0  0  0
    5.4765    3.9978    2.1213 H   0  0  0  0  0  0  0  0  0  0  0  0
    7.2092    2.7858    3.1271 H   0  0  0  0  0  0  0  0  0  0  0  0
    6.5902   -1.5975    3.1982 H   0  0  0  0  0  0  0  0  0  0  0  0
    6.0659   -3.7654    2.5927 H   0  0  0  0  0  0  0  0  0  0  0  0
    7.3781   -4.9039    1.0261 H   0  0  0  0  0  0  0  0  0  0  0  0
    9.2218   -3.8289    0.0508 H   0  0  0  0  0  0  0  0  0  0  0  0
    9.7833   -1.6353    0.6847 H   0  0  0  0  0  0  0  0  0  0  0  0
   10.1125   -2.7719    6.9165 H   0  0  0  0  0  0  0  0  0  0  0  0
   11.4424   -3.9402    8.4526 H   0  0  0  0  0  0  0  0  0  0  0  0
   11.9991   -2.9686   10.4987 H   0  0  0  0  0  0  0  0  0  0  0  0
   11.1213   -0.8663   11.0412 H   0  0  0  0  0  0  0  0  0  0  0  0
    9.7810    0.3040    9.5254 H   0  0  0  0  0  0  0  0  0  0  0  0
    8.0229   -2.7937    5.5998 H   0  0  0  0  0  0  0  0  0  0  0  0
    6.1526   -4.1926    5.5856 H   0  0  0  0  0  0  0  0  0  0  0  0
    4.2606   -3.6442    6.8210 H   0  0  0  0  0  0  0  0  0  0  0  0
    4.2358   -1.7207    8.1255 H   0  0  0  0  0  0  0  0  0  0  0  0
    6.1072   -0.3159    8.1884 H   0  0  0  0  0  0  0  0  0  0  0  0
  1  2  1  0  0  0  0
  2 29  1  0  0  0  0
  3  1  1  0  0  0  0
  4  1  1  0  0  0  0
  5  1  1  0  0  0  0
  6  4  1  0  0  0  0
  7  5  1  0  0  0  0
  8  1  1  0  0  0  0
  9  1  1  0  0  0  0
 10  1  1  0  0  0  0
 11  4  1  0  0  0  0
 12  5  1  0  0  0  0
 13  8  1  0  0  0  0
 14  9  1  0  0  0  0
 15  4  1  0  0  0  0
 16 11  1  0  0  0  0
 17  1  1  0  0  0  0
 18 17  3  0  0  0  0
 19  1  1  0  0  0  0
 20 19  3  0  0  0  0
 21  9  1  0  0  0  0
 22 21  1  0  0  0  0
 23 22  4  0  0  0  0
 24 23  4  0  0  0  0
 25 24  4  0  0  0  0
 26 25  4  0  0  0  0
 27 22  4  0  0  0  0
 28 14  1  0  0  0  0
 29 30  4  0  0  0  0
 30 31  4  0  0  0  0
 31 32  4  0  0  0  0
 32 33  4  0  0  0  0
 33 34  4  0  0  0  0
 34 29  4  0  0  0  0
 35  2  1  0  0  0  0
 36 35  4  0  0  0  0
 37 36  4  0  0  0  0
 38 37  4  0  0  0  0
 39 38  4  0  0  0  0
 40 35  4  0  0  0  0
 41  3  1  0  0  0  0
 42 41  4  0  0  0  0
 43 42  4  0  0  0  0
 44 43  4  0  0  0  0
 45 44  4  0  0  0  0
 46 41  4  0  0  0  0
 47  3  1  0  0  0  0
 48 47  4  0  0  0  0
 49 48  4  0  0  0  0
 50 49  4  0  0  0  0
 51 50  4  0  0  0  0
 52 47  4  0  0  0  0
 53  2  1  0  0  0  0
 54  3  1  0  0  0  0
 55  6  1  0  0  0  0
 56  6  1  0  0  0  0
 57  6  1  0  0  0  0
 58  7  1  0  0  0  0
 59  7  1  0  0  0  0
 60  7  1  0  0  0  0
 61  8  1  0  0  0  0
 62 10  1  0  0  0  0
 63 11  1  0  0  0  0
 64 12  1  0  0  0  0
 65 13  1  0  0  0  0
 66 15  1  0  0  0  0
 67 16  1  0  0  0  0
 68 21  1  0  0  0  0
 69 21  1  0  0  0  0
 70 23  1  0  0  0  0
 71 24  1  0  0  0  0
 72 25  1  0  0  0  0
 73 26  1  0  0  0  0
 74 28  1  0  0  0  0
 75 28  1  0  0  0  0
 76 30  1  0  0  0  0
 77 31  1  0  0  0  0
 78 32  1  0  0  0  0
 79 33  1  0  0  0  0
 80 34  1  0  0  0  0
 81 36  1  0  0  0  0
 82 37  1  0  0  0  0
 83 38  1  0  0  0  0
 84 39  1  0  0  0  0
 85 40  1  0  0  0  0
 86 42  1  0  0  0  0
 87 43  1  0  0  0  0
 88 44  1  0  0  0  0
 89 45  1  0  0  0  0
 90 46  1  0  0  0  0
 91 48  1  0  0  0  0
 92 49  1  0  0  0  0
 93 50  1  0  0  0  0
 94 51  1  0  0  0  0
 95 52  1  0  0  0  0
  4  5  1  0  0  0  0
  4 10  1  0  0  0  0
  5  8  1  0  0  0  0
  5 11  1  0  0  0  0
  8  9  1  0  0  0  0
  8 12  1  0  0  0  0
  9 10  1  0  0  0  0
  9 13  1  0  0  0  0
 10 14  1  0  0  0  0
 10 15  1  0  0  0  0
 11 12  1  0  0  0  0
 11 15  1  0  0  0  0
 12 13  1  0  0  0  0
 12 16  1  0  0  0  0
 13 14  1  0  0  0  0
 13 16  1  0  0  0  0
 14 15  1  0  0  0  0
 14 16  1  0  0  0  0
 15 16  1  0  0  0  0
 26 27  4  0  0  0  0
 27 28  1  0  0  0  0
 39 40  4  0  0  0  0
 45 46  4  0  0  0  0
 51 52  4  0  0  0  0
M  END
$$$$
KUGFUP

From CSD data. Using bond type 'Any'. No disordered atoms. Largest molecule.
 88 93  0  0  0  0  0  0  0  0999 V2000
    9.6250    8.2821    1.8843 Rh  0  0  0  0  0  0  0  0  0  0  0  0
    9.6223    9.3554   -0.1875 P   0  0  0  0  0  0  0  0  0  0  0  0
    9.4764    7.2092    3.9780 P   0  0  0  0  0  0  0  0  0  0  0  0
    8.5713   10.2257    2.7889 Cl  0  0  0  0  0  0  0  0  0  0  0  0
    8.8540   12.1621   -0.7907 N   0  0  0  0  0  0  0  0  0  0  0  0
    8.1846   11.8719   -1.2049 H   0  0  0  0  0  0  0  0  0  0  0  0
    7.1586    5.7219    5.1306 N   0  0  0  0  0  0  0  0  0  0  0  0
    7.6887    5.1095    5.3866 H   0  0  0  0  0  0  0  0  0  0  0  0
    6.6594    7.8788    4.1738 N   0  0  0  0  0  0  0  0  0  0  0  0
    6.8923    8.5743    3.7717 H   0  0  0  0  0  0  0  0  0  0  0  0
    9.4056    7.8716    6.7481 C   0  0  0  0  0  0  0  0  0  0  0  0
    9.6754    6.9473    6.9267 H   0  0  0  0  0  0  0  0  0  0  0  0
    8.4278    7.9279    6.7275 H   0  0  0  0  0  0  0  0  0  0  0  0
    9.7520    8.4565    7.4554 H   0  0  0  0  0  0  0  0  0  0  0  0
   10.8567    6.0050    0.4705 O   0  0  0  0  0  0  0  0  0  0  0  0
    5.8150    5.5362    5.4858 C   0  0  0  0  0  0  0  0  0  0  0  0
   10.3827    6.8739    1.0651 C   0  0  0  0  0  0  0  0  0  0  0  0
    3.0266    8.5504    4.5077 C   0  0  0  0  0  0  0  0  0  0  0  0
    2.3961    9.2220    4.2736 H   0  0  0  0  0  0  0  0  0  0  0  0
    9.9721    8.3165    5.3923 C   0  0  0  0  0  0  0  0  0  0  0  0
    9.5453    9.2001    5.2008 H   0  0  0  0  0  0  0  0  0  0  0  0
    4.8852    6.5639    5.1534 C   0  0  0  0  0  0  0  0  0  0  0  0
   10.9805    8.8377   -1.3457 C   0  0  0  0  0  0  0  0  0  0  0  0
   10.8411    7.8703   -1.5554 H   0  0  0  0  0  0  0  0  0  0  0  0
   11.0590   13.3193    0.5174 C   0  0  0  0  0  0  0  0  0  0  0  0
    5.3941    4.4046    6.1576 C   0  0  0  0  0  0  0  0  0  0  0  0
    6.0168    3.7208    6.3731 H   0  0  0  0  0  0  0  0  0  0  0  0
   10.8742   11.9260    0.4818 N   0  0  0  0  0  0  0  0  0  0  0  0
   11.4247   11.4871    0.9520 H   0  0  0  0  0  0  0  0  0  0  0  0
    8.0748    8.9808   -1.1348 C   0  0  0  0  0  0  0  0  0  0  0  0
    8.1041    9.4836   -1.9979 H   0  0  0  0  0  0  0  0  0  0  0  0
   12.1258   13.8923    1.1700 C   0  0  0  0  0  0  0  0  0  0  0  0
   12.7755   13.3441    1.5957 H   0  0  0  0  0  0  0  0  0  0  0  0
    8.9822   13.5627   -0.8103 C   0  0  0  0  0  0  0  0  0  0  0  0
   10.1043   14.1338   -0.1496 C   0  0  0  0  0  0  0  0  0  0  0  0
    3.1175    5.2300    6.2057 C   0  0  0  0  0  0  0  0  0  0  0  0
    2.2082    5.1150    6.4574 H   0  0  0  0  0  0  0  0  0  0  0  0
    5.3040    7.7578    4.4960 C   0  0  0  0  0  0  0  0  0  0  0  0
   10.3114    5.5685    4.2163 C   0  0  0  0  0  0  0  0  0  0  0  0
   10.1568    5.2875    5.1644 H   0  0  0  0  0  0  0  0  0  0  0  0
   12.2520   15.2931    1.2051 C   0  0  0  0  0  0  0  0  0  0  0  0
   12.9731   15.6832    1.6838 H   0  0  0  0  0  0  0  0  0  0  0  0
    8.2474   15.7701   -1.4530 C   0  0  0  0  0  0  0  0  0  0  0  0
    7.6189   16.3172   -1.9098 H   0  0  0  0  0  0  0  0  0  0  0  0
    3.5121    6.3980    5.5051 C   0  0  0  0  0  0  0  0  0  0  0  0
    7.6140    6.8842    4.4690 B   0  0  0  0  0  0  0  0  0  0  0  0
   12.3416    8.9651   -0.6620 C   0  0  0  0  0  0  0  0  0  0  0  0
   13.0402    8.6277   -1.2604 H   0  0  0  0  0  0  0  0  0  0  0  0
   12.3403    8.4428    0.1667 H   0  0  0  0  0  0  0  0  0  0  0  0
   12.5156    9.9067   -0.4540 H   0  0  0  0  0  0  0  0  0  0  0  0
    8.0611   14.3761   -1.4311 C   0  0  0  0  0  0  0  0  0  0  0  0
    7.2966   13.9946   -1.8466 H   0  0  0  0  0  0  0  0  0  0  0  0
   11.3556   16.1046    0.5634 C   0  0  0  0  0  0  0  0  0  0  0  0
   11.4684   17.0472    0.5919 H   0  0  0  0  0  0  0  0  0  0  0  0
    9.6798    4.5053    3.3114 C   0  0  0  0  0  0  0  0  0  0  0  0
    9.8854    4.7096    2.3753 H   0  0  0  0  0  0  0  0  0  0  0  0
    8.7082    4.5028    3.4404 H   0  0  0  0  0  0  0  0  0  0  0  0
   10.0427    3.6236    3.5400 H   0  0  0  0  0  0  0  0  0  0  0  0
    2.5979    7.4243    5.1550 C   0  0  0  0  0  0  0  0  0  0  0  0
    1.6772    7.3280    5.3732 H   0  0  0  0  0  0  0  0  0  0  0  0
   11.8263    5.6083    3.9878 C   0  0  0  0  0  0  0  0  0  0  0  0
   12.1793    4.6945    3.9805 H   0  0  0  0  0  0  0  0  0  0  0  0
   12.2529    6.1174    4.7085 H   0  0  0  0  0  0  0  0  0  0  0  0
   12.0153    6.0394    3.1281 H   0  0  0  0  0  0  0  0  0  0  0  0
    4.3818    8.7337    4.1830 C   0  0  0  0  0  0  0  0  0  0  0  0
    4.6627    9.5301    3.7468 H   0  0  0  0  0  0  0  0  0  0  0  0
    9.7785   11.3072   -0.1454 B   0  0  0  0  0  0  0  0  0  0  0  0
    4.0391    4.2658    6.5225 C   0  0  0  0  0  0  0  0  0  0  0  0
    3.7595    3.4908    6.9956 H   0  0  0  0  0  0  0  0  0  0  0  0
   11.4753    8.5942    5.4624 C   0  0  0  0  0  0  0  0  0  0  0  0
   11.6336    9.4110    5.9804 H   0  0  0  0  0  0  0  0  0  0  0  0
   11.8289    8.7098    4.5552 H   0  0  0  0  0  0  0  0  0  0  0  0
   11.9275    7.8402    5.8961 H   0  0  0  0  0  0  0  0  0  0  0  0
    9.3153   16.3504   -0.8300 C   0  0  0  0  0  0  0  0  0  0  0  0
    9.4248   17.2937   -0.8582 H   0  0  0  0  0  0  0  0  0  0  0  0
    6.8353    9.4248   -0.3594 C   0  0  0  0  0  0  0  0  0  0  0  0
    6.0353    9.2686   -0.9041 H   0  0  0  0  0  0  0  0  0  0  0  0
    6.9063   10.3792   -0.1494 H   0  0  0  0  0  0  0  0  0  0  0  0
    6.7690    8.9111    0.4731 H   0  0  0  0  0  0  0  0  0  0  0  0
   10.2625   15.5492   -0.1423 C   0  0  0  0  0  0  0  0  0  0  0  0
    7.9863    7.4861   -1.4482 C   0  0  0  0  0  0  0  0  0  0  0  0
    8.0302    6.9747   -0.6130 H   0  0  0  0  0  0  0  0  0  0  0  0
    8.7328    7.2294   -2.0286 H   0  0  0  0  0  0  0  0  0  0  0  0
    7.1381    7.2965   -1.9022 H   0  0  0  0  0  0  0  0  0  0  0  0
   10.9541    9.6031   -2.6718 C   0  0  0  0  0  0  0  0  0  0  0  0
   11.0785   10.5600   -2.4998 H   0  0  0  0  0  0  0  0  0  0  0  0
   10.0919    9.4603   -3.1147 H   0  0  0  0  0  0  0  0  0  0  0  0
   11.6755    9.2795   -3.2507 H   0  0  0  0  0  0  0  0  0  0  0  0
  1  2  1  0  0  0  0
  2 23  1  0  0  0  0
  3  1  1  0  0  0  0
  4  1  1  0  0  0  0
  5  6  1  0  0  0  0
  7  8  1  0  0  0  0
  9 10  1  0  0  0  0
 11 12  1  0  0  0  0
 13 11  1  0  0  0  0
 14 11  1  0  0  0  0
 15 17  3  0  0  0  0
 16  7  1  0  0  0  0
 17  1  1  0  0  0  0
 18 19  1  0  0  0  0
 20  3  1  0  0  0  0
 21 20  1  0  0  0  0
 22 16  4  0  0  0  0
 23 24  1  0  0  0  0
 25 28  1  0  0  0  0
 26 16  4  0  0  0  0
 27 26  1  0  0  0  0
 28 29  1  0  0  0  0
 30  2  1  0  0  0  0
 31 30  1  0  0  0  0
 32 25  4  0  0  0  0
 33 32  1  0  0  0  0
 34  5  1  0  0  0  0
 35 25  4  0  0  0  0
 36 37  1  0  0  0  0
 38  9  1  0  0  0  0
 39  3  1  0  0  0  0
 40 39  1  0  0  0  0
 41 32  4  0  0  0  0
 42 41  1  0  0  0  0
 43 44  1  0  0  0  0
 45 22  4  0  0  0  0
 46  3  1  0  0  0  0
 47 23  1  0  0  0  0
 48 47  1  0  0  0  0
 49 47  1  0  0  0  0
 50 47  1  0  0  0  0
 51 34  4  0  0  0  0
 52 51  1  0  0  0  0
 53 41  4  0  0  0  0
 54 53  1  0  0  0  0
 55 39  1  0  0  0  0
 56 55  1  0  0  0  0
 57 55  1  0  0  0  0
 58 55  1  0  0  0  0
 59 18  4  0  0  0  0
 60 59  1  0  0  0  0
 61 39  1  0  0  0  0
 62 61  1  0  0  0  0
 63 61  1  0  0  0  0
 64 61  1  0  0  0  0
 65 18  4  0  0  0  0
 66 65  1  0  0  0  0
 67  2  1  0  0  0  0
 68 26  4  0  0  0  0
 69 68  1  0  0  0  0
 70 20  1  0  0  0  0
 71 70  1  0  0  0  0
 72 70  1  0  0  0  0
 73 70  1  0  0  0  0
 74 43  4  0  0  0  0
 75 74  1  0  0  0  0
 76 30  1  0  0  0  0
 77 76  1  0  0  0  0
 78 76  1  0  0  0  0
 79 76  1  0  0  0  0
 80 35  4  0  0  0  0
 81 30  1  0  0  0  0
 82 81  1  0  0  0  0
 83 81  1  0  0  0  0
 84 81  1  0  0  0  0
 85 23  1  0  0  0  0
 86 85  1  0  0  0  0
 87 85  1  0  0  0  0
 88 85  1  0  0  0  0
  5 67  1  0  0  0  0
  7 46  1  0  0  0  0
  9 46  1  0  0  0  0
 11 20  1  0  0  0  0
 22 38  4  0  0  0  0
 28 67  1  0  0  0  0
 34 35  4  0  0  0  0
 36 45  4  0  0  0  0
 36 68  4  0  0  0  0
 38 65  4  0  0  0  0
 43 51  4  0  0  0  0
 45 59  4  0  0  0  0
 53 80  4  0  0  0  0
 74 80  4  0  0  0  0
M  END
$$$$
KUGGAW

From CSD data. Using bond type 'Any'. No disordered atoms. Largest molecule.
 90 95  0  0  0  0  0  0  0  0999 V2000
    0.4945   14.7729    9.1750 Rh  0  0  0  0  0  0  0  0  0  0  0  0
    0.8086   16.6002   10.5655 P   0  0  0  0  0  0  0  0  0  0  0  0
   -0.0848   12.9325    7.8725 P   0  0  0  0  0  0  0  0  0  0  0  0
   -0.0497   13.4520   11.0622 Cl  0  0  0  0  0  0  0  0  0  0  0  0
    1.1211   15.7531    7.7846 C   0  0  0  0  0  0  0  0  0  0  0  0
    1.5730   16.3994    6.9450 O   0  0  0  0  0  0  0  0  0  0  0  0
    0.8306   11.6012    7.9647 O   0  0  0  0  0  0  0  0  0  0  0  0
    0.5728   18.0734    9.9206 O   0  0  0  0  0  0  0  0  0  0  0  0
   -1.3079   17.6991    8.3627 N   0  0  0  0  0  0  0  0  0  0  0  0
   -1.3382   16.8724    8.4884 H   0  0  0  0  0  0  0  0  0  0  0  0
   -0.3510   18.5236    8.9922 B   0  0  0  0  0  0  0  0  0  0  0  0
   -0.3371   19.8956    8.6445 N   0  0  0  0  0  0  0  0  0  0  0  0
    0.1322   20.4724    9.0666 H   0  0  0  0  0  0  0  0  0  0  0  0
    2.5299   16.8073   11.1405 C   0  0  0  0  0  0  0  0  0  0  0  0
    2.5847   17.6531   11.6709 H   0  0  0  0  0  0  0  0  0  0  0  0
    3.4842   16.9221    9.9494 C   0  0  0  0  0  0  0  0  0  0  0  0
    3.4839   16.0808    9.4474 H   0  0  0  0  0  0  0  0  0  0  0  0
    4.3901   17.1088   10.2733 H   0  0  0  0  0  0  0  0  0  0  0  0
    3.1912   17.6510    9.3639 H   0  0  0  0  0  0  0  0  0  0  0  0
   -2.1471   19.5683    7.0752 C   0  0  0  0  0  0  0  0  0  0  0  0
   -2.1928   11.0950    7.5506 C   0  0  0  0  0  0  0  0  0  0  0  0
   -2.4630   11.4529    6.6797 H   0  0  0  0  0  0  0  0  0  0  0  0
   -2.9620   10.6634    7.9791 H   0  0  0  0  0  0  0  0  0  0  0  0
   -1.4775   10.4379    7.4258 H   0  0  0  0  0  0  0  0  0  0  0  0
   -1.7239   16.5206   11.7086 C   0  0  0  0  0  0  0  0  0  0  0  0
   -1.9923   17.2910   11.1662 H   0  0  0  0  0  0  0  0  0  0  0  0
   -2.2620   16.4951   12.5280 H   0  0  0  0  0  0  0  0  0  0  0  0
   -1.8671   15.6970   11.1983 H   0  0  0  0  0  0  0  0  0  0  0  0
   -1.0596   14.2643    5.6253 C   0  0  0  0  0  0  0  0  0  0  0  0
   -1.1125   14.2895    4.6471 H   0  0  0  0  0  0  0  0  0  0  0  0
   -0.6858   15.1093    5.9548 H   0  0  0  0  0  0  0  0  0  0  0  0
   -1.9570   14.1377    5.9970 H   0  0  0  0  0  0  0  0  0  0  0  0
   -0.2377   16.6438   12.0747 C   0  0  0  0  0  0  0  0  0  0  0  0
    0.0000   15.8423   12.6226 H   0  0  0  0  0  0  0  0  0  0  0  0
   -0.1627   13.1093    6.0557 C   0  0  0  0  0  0  0  0  0  0  0  0
   -0.5695   12.2704    5.6951 H   0  0  0  0  0  0  0  0  0  0  0  0
   -2.2028   18.1810    7.4074 C   0  0  0  0  0  0  0  0  0  0  0  0
   -1.6889   12.2349    8.4371 C   0  0  0  0  0  0  0  0  0  0  0  0
   -1.5127   11.8302    9.3345 H   0  0  0  0  0  0  0  0  0  0  0  0
   -3.0461   20.0840    6.0979 C   0  0  0  0  0  0  0  0  0  0  0  0
   -2.7726   13.2962    8.6555 C   0  0  0  0  0  0  0  0  0  0  0  0
   -3.5085   12.9102    9.1749 H   0  0  0  0  0  0  0  0  0  0  0  0
   -3.1101   13.6020    7.7883 H   0  0  0  0  0  0  0  0  0  0  0  0
   -2.3925   14.0553    9.1446 H   0  0  0  0  0  0  0  0  0  0  0  0
    2.9666   12.2540    9.0390 N   0  0  0  0  0  0  0  0  0  0  0  0
    2.6993   13.0512    9.1675 H   0  0  0  0  0  0  0  0  0  0  0  0
    2.5840   10.0031    8.2251 N   0  0  0  0  0  0  0  0  0  0  0  0
    2.0928    9.4251    7.8277 H   0  0  0  0  0  0  0  0  0  0  0  0
   -2.1397   22.2909    6.4613 C   0  0  0  0  0  0  0  0  0  0  0  0
   -2.1404   23.2202    6.2640 H   0  0  0  0  0  0  0  0  0  0  0  0
   -3.1344   17.3597    6.8082 C   0  0  0  0  0  0  0  0  0  0  0  0
   -3.1859   16.4430    7.0495 H   0  0  0  0  0  0  0  0  0  0  0  0
    2.1092   11.3264    8.4013 B   0  0  0  0  0  0  0  0  0  0  0  0
    2.9162   15.6402   12.0527 C   0  0  0  0  0  0  0  0  0  0  0  0
    3.8700   15.6948   12.2674 H   0  0  0  0  0  0  0  0  0  0  0  0
    2.7328   14.7926   11.5948 H   0  0  0  0  0  0  0  0  0  0  0  0
    2.3925   15.6840   12.8795 H   0  0  0  0  0  0  0  0  0  0  0  0
   -3.0032   21.4711    5.8043 C   0  0  0  0  0  0  0  0  0  0  0  0
   -3.5826   21.8300    5.1435 H   0  0  0  0  0  0  0  0  0  0  0  0
   -3.9629   19.1959    5.4767 C   0  0  0  0  0  0  0  0  0  0  0  0
   -4.5505   19.5182    4.8031 H   0  0  0  0  0  0  0  0  0  0  0  0
   -1.2312   20.4475    7.7204 C   0  0  0  0  0  0  0  0  0  0  0  0
    0.0088   17.8741   12.9474 C   0  0  0  0  0  0  0  0  0  0  0  0
   -0.6136   17.8678   13.7036 H   0  0  0  0  0  0  0  0  0  0  0  0
   -0.1322   18.6854   12.4152 H   0  0  0  0  0  0  0  0  0  0  0  0
    0.9291   17.8592   13.2814 H   0  0  0  0  0  0  0  0  0  0  0  0
   -4.0061   17.8808    5.8401 C   0  0  0  0  0  0  0  0  0  0  0  0
   -4.6405   17.3061    5.4289 H   0  0  0  0  0  0  0  0  0  0  0  0
    4.1505   11.8593    9.6677 C   0  0  0  0  0  0  0  0  0  0  0  0
    3.7512    9.5466    8.8399 C   0  0  0  0  0  0  0  0  0  0  0  0
    4.5246   10.4750    9.5860 C   0  0  0  0  0  0  0  0  0  0  0  0
   -1.2421   21.7936    7.4285 C   0  0  0  0  0  0  0  0  0  0  0  0
   -0.6471   22.3830    7.8773 H   0  0  0  0  0  0  0  0  0  0  0  0
    1.2435   13.2151    5.4666 C   0  0  0  0  0  0  0  0  0  0  0  0
    1.6996   13.9946    5.8483 H   0  0  0  0  0  0  0  0  0  0  0  0
    1.1830   13.3158    4.4938 H   0  0  0  0  0  0  0  0  0  0  0  0
    1.7490   12.4027    5.6804 H   0  0  0  0  0  0  0  0  0  0  0  0
    5.6600   10.0213   10.3128 C   0  0  0  0  0  0  0  0  0  0  0  0
    5.9860    8.6446   10.2843 C   0  0  0  0  0  0  0  0  0  0  0  0
    6.7280    8.3234   10.7826 H   0  0  0  0  0  0  0  0  0  0  0  0
    4.1270    8.2146    8.7977 C   0  0  0  0  0  0  0  0  0  0  0  0
    3.6373    7.5991    8.2664 H   0  0  0  0  0  0  0  0  0  0  0  0
    4.9180   12.7298   10.4036 C   0  0  0  0  0  0  0  0  0  0  0  0
    4.6916   13.6519   10.4275 H   0  0  0  0  0  0  0  0  0  0  0  0
    6.0336   12.2674   11.1194 C   0  0  0  0  0  0  0  0  0  0  0  0
    6.5446   12.8820   11.6333 H   0  0  0  0  0  0  0  0  0  0  0  0
    5.2348    7.7767    9.5429 C   0  0  0  0  0  0  0  0  0  0  0  0
    5.4673    6.8552    9.5309 H   0  0  0  0  0  0  0  0  0  0  0  0
    6.3991   10.9506   11.0900 C   0  0  0  0  0  0  0  0  0  0  0  0
    7.1493   10.6569   11.5920 H   0  0  0  0  0  0  0  0  0  0  0  0
  1  2  1  0  0  0  0
  2  8  1  0  0  0  0
  3  1  1  0  0  0  0
  4  1  1  0  0  0  0
  5  1  1  0  0  0  0
  6  5  3  0  0  0  0
  7  3  1  0  0  0  0
  8 11  1  0  0  0  0
  9 10  1  0  0  0  0
 11  9  1  0  0  0  0
 12 11  1  0  0  0  0
 13 12  1  0  0  0  0
 14  2  1  0  0  0  0
 15 14  1  0  0  0  0
 16 14  1  0  0  0  0
 17 16  1  0  0  0  0
 18 16  1  0  0  0  0
 19 16  1  0  0  0  0
 20 37  4  0  0  0  0
 21 22  1  0  0  0  0
 23 21  1  0  0  0  0
 24 21  1  0  0  0  0
 25 26  1  0  0  0  0
 27 25  1  0  0  0  0
 28 25  1  0  0  0  0
 29 30  1  0  0  0  0
 31 29  1  0  0  0  0
 32 29  1  0  0  0  0
 33  2  1  0  0  0  0
 34 33  1  0  0  0  0
 35  3  1  0  0  0  0
 36 35  1  0  0  0  0
 37  9  1  0  0  0  0
 38  3  1  0  0  0  0
 39 38  1  0  0  0  0
 40 20  4  0  0  0  0
 41 38  1  0  0  0  0
 42 41  1  0  0  0  0
 43 41  1  0  0  0  0
 44 41  1  0  0  0  0
 45 46  1  0  0  0  0
 47 48  1  0  0  0  0
 49 50  1  0  0  0  0
 51 37  4  0  0  0  0
 52 51  1  0  0  0  0
 53  7  1  0  0  0  0
 54 14  1  0  0  0  0
 55 54  1  0  0  0  0
 56 54  1  0  0  0  0
 57 54  1  0  0  0  0
 58 40  4  0  0  0  0
 59 58  1  0  0  0  0
 60 40  4  0  0  0  0
 61 60  1  0  0  0  0
 62 12  1  0  0  0  0
 63 33  1  0  0  0  0
 64 63  1  0  0  0  0
 65 63  1  0  0  0  0
 66 63  1  0  0  0  0
 67 51  4  0  0  0  0
 68 67  1  0  0  0  0
 69 45  1  0  0  0  0
 70 47  1  0  0  0  0
 71 69  4  0  0  0  0
 72 49  4  0  0  0  0
 73 72  1  0  0  0  0
 74 35  1  0  0  0  0
 75 74  1  0  0  0  0
 76 74  1  0  0  0  0
 77 74  1  0  0  0  0
 78 71  4  0  0  0  0
 79 78  4  0  0  0  0
 80 79  1  0  0  0  0
 81 70  4  0  0  0  0
 82 81  1  0  0  0  0
 83 69  4  0  0  0  0
 84 83  1  0  0  0  0
 85 83  4  0  0  0  0
 86 85  1  0  0  0  0
 87 79  4  0  0  0  0
 88 87  1  0  0  0  0
 89 78  4  0  0  0  0
 90 89  1  0  0  0  0
 20 62  4  0  0  0  0
 21 38  1  0  0  0  0
 25 33  1  0  0  0  0
 29 35  1  0  0  0  0
 45 53  1  0  0  0  0
 47 53  1  0  0  0  0
 49 58  4  0  0  0  0
 60 67  4  0  0  0  0
 62 72  4  0  0  0  0
 70 71  4  0  0  0  0
 81 87  4  0  0  0  0
 85 89  4  0  0  0  0
M  END
$$$$
KUGVUG

From CSD data. Using bond type 'Any'. No disordered atoms. Largest molecule.
 90 91  0  0  0  0  0  0  0  0999 V2000
   22.6537    0.2481    9.5454 P   0  0  0  0  0  0  0  0  0  0  0  0
   20.6439    3.2156    3.2834 P   0  0  0  0  0  0  0  0  0  0  0  0
   21.6434    1.2325    8.7553 O   0  0  0  0  0  0  0  0  0  0  0  0
   19.9765    3.1013    4.7663 O   0  0  0  0  0  0  0  0  0  0  0  0
   20.8654    2.1042    6.7268 C   0  0  0  0  0  0  0  0  0  0  0  0
   21.3124    2.9175    6.9309 H   0  0  0  0  0  0  0  0  0  0  0  0
   20.9578    1.0175    7.5761 C   0  0  0  0  0  0  0  0  0  0  0  0
   20.3151   -0.1798    7.3000 C   0  0  0  0  0  0  0  0  0  0  0  0
   20.3952   -0.9225    7.8863 H   0  0  0  0  0  0  0  0  0  0  0  0
   19.5534   -0.2673    6.1470 C   0  0  0  0  0  0  0  0  0  0  0  0
   19.0974   -1.0758    5.9494 H   0  0  0  0  0  0  0  0  0  0  0  0
   19.4469    0.8011    5.2780 C   0  0  0  0  0  0  0  0  0  0  0  0
   18.9270    0.7285    4.4863 H   0  0  0  0  0  0  0  0  0  0  0  0
   20.1114    1.9841    5.5777 C   0  0  0  0  0  0  0  0  0  0  0  0
   22.2658    0.6790   11.2706 C   0  0  0  0  0  0  0  0  0  0  0  0
   20.8556    0.1492   11.5847 C   0  0  0  0  0  0  0  0  0  0  0  0
   20.1994    0.6058   11.0180 H   0  0  0  0  0  0  0  0  0  0  0  0
   20.6453    0.3147   12.5283 H   0  0  0  0  0  0  0  0  0  0  0  0
   20.8230   -0.8160   11.4094 H   0  0  0  0  0  0  0  0  0  0  0  0
   23.2990    0.0000   12.1907 C   0  0  0  0  0  0  0  0  0  0  0  0
   23.3751   -0.9476   11.9538 H   0  0  0  0  0  0  0  0  0  0  0  0
   23.0126    0.0828   13.1238 H   0  0  0  0  0  0  0  0  0  0  0  0
   24.1726    0.4348   12.0781 H   0  0  0  0  0  0  0  0  0  0  0  0
   22.3057    2.1971   11.4787 C   0  0  0  0  0  0  0  0  0  0  0  0
   23.1902    2.5383   11.2261 H   0  0  0  0  0  0  0  0  0  0  0  0
   22.1317    2.4033   12.4210 H   0  0  0  0  0  0  0  0  0  0  0  0
   21.6205    2.6218   10.9199 H   0  0  0  0  0  0  0  0  0  0  0  0
   19.2275    3.7736    2.2601 C   0  0  0  0  0  0  0  0  0  0  0  0
   18.3470    2.5627    1.9474 C   0  0  0  0  0  0  0  0  0  0  0  0
   18.9089    1.8254    1.6280 H   0  0  0  0  0  0  0  0  0  0  0  0
   17.6981    2.8015    1.2537 H   0  0  0  0  0  0  0  0  0  0  0  0
   17.8757    2.2846    2.7588 H   0  0  0  0  0  0  0  0  0  0  0  0
   19.8406    4.3149    0.9226 C   0  0  0  0  0  0  0  0  0  0  0  0
   20.2937    5.1669    1.0915 H   0  0  0  0  0  0  0  0  0  0  0  0
   19.1264    4.4499    0.2670 H   0  0  0  0  0  0  0  0  0  0  0  0
   20.4858    3.6657    0.5732 H   0  0  0  0  0  0  0  0  0  0  0  0
   18.4521    4.8826    2.9446 C   0  0  0  0  0  0  0  0  0  0  0  0
   17.9265    4.5075    3.6814 H   0  0  0  0  0  0  0  0  0  0  0  0
   17.8540    5.3093    2.2981 H   0  0  0  0  0  0  0  0  0  0  0  0
   19.0793    5.5488    3.2980 H   0  0  0  0  0  0  0  0  0  0  0  0
   24.1944    1.1193    9.1440 C   0  0  0  0  0  0  0  0  0  0  0  0
   24.2161    1.9482    9.6792 H   0  0  0  0  0  0  0  0  0  0  0  0
   24.9448    0.5515    9.4554 H   0  0  0  0  0  0  0  0  0  0  0  0
   24.4771    1.4991    7.6743 C   0  0  0  0  0  0  0  0  0  0  0  0
   23.8645    2.2324    7.4139 H   0  0  0  0  0  0  0  0  0  0  0  0
   24.2741    0.7204    7.0985 H   0  0  0  0  0  0  0  0  0  0  0  0
   25.9345    1.9536    7.4073 C   0  0  0  0  0  0  0  0  0  0  0  0
   26.5507    1.1850    7.5303 H   0  0  0  0  0  0  0  0  0  0  0  0
   26.1919    2.6604    8.0486 H   0  0  0  0  0  0  0  0  0  0  0  0
   26.0432    2.4895    5.9481 C   0  0  0  0  0  0  0  0  0  0  0  0
   25.5901    1.8546    5.3395 H   0  0  0  0  0  0  0  0  0  0  0  0
   25.5647    3.3544    5.8918 H   0  0  0  0  0  0  0  0  0  0  0  0
   27.5078    2.6930    5.4534 C   0  0  0  0  0  0  0  0  0  0  0  0
   27.9972    1.8369    5.5437 H   0  0  0  0  0  0  0  0  0  0  0  0
   27.4897    2.9277    4.4915 H   0  0  0  0  0  0  0  0  0  0  0  0
   28.2908    3.7987    6.2203 C   0  0  0  0  0  0  0  0  0  0  0  0
   28.3307    3.5497    7.1783 H   0  0  0  0  0  0  0  0  0  0  0  0
   29.2189    3.8231    5.8800 H   0  0  0  0  0  0  0  0  0  0  0  0
   27.6854    5.2164    6.1038 C   0  0  0  0  0  0  0  0  0  0  0  0
   26.8951    5.2808    6.7006 H   0  0  0  0  0  0  0  0  0  0  0  0
   28.3525    5.8791    6.4127 H   0  0  0  0  0  0  0  0  0  0  0  0
   27.2577    5.5691    4.6708 C   0  0  0  0  0  0  0  0  0  0  0  0
   26.6341    4.8860    4.3122 H   0  0  0  0  0  0  0  0  0  0  0  0
   28.0443    5.6281    4.0740 H   0  0  0  0  0  0  0  0  0  0  0  0
   26.5544    6.9461    4.8095 C   0  0  0  0  0  0  0  0  0  0  0  0
   26.0613    6.9699    5.6680 H   0  0  0  0  0  0  0  0  0  0  0  0
   27.2432    7.6564    4.8422 H   0  0  0  0  0  0  0  0  0  0  0  0
   25.5719    7.2650    3.6631 C   0  0  0  0  0  0  0  0  0  0  0  0
   26.0758    7.3864    2.8203 H   0  0  0  0  0  0  0  0  0  0  0  0
   25.0934    8.1102    3.8607 H   0  0  0  0  0  0  0  0  0  0  0  0
   24.5424    6.1186    3.4916 C   0  0  0  0  0  0  0  0  0  0  0  0
   25.0463    5.3249    3.1841 H   0  0  0  0  0  0  0  0  0  0  0  0
   23.9406    6.3818    2.7522 H   0  0  0  0  0  0  0  0  0  0  0  0
   23.6470    5.6641    4.6760 C   0  0  0  0  0  0  0  0  0  0  0  0
   22.9074    6.3112    4.8213 H   0  0  0  0  0  0  0  0  0  0  0  0
   24.1763    5.5990    5.5097 H   0  0  0  0  0  0  0  0  0  0  0  0
   23.0561    4.2097    4.2572 C   0  0  0  0  0  0  0  0  0  0  0  0
   23.6941    3.7125    3.6853 H   0  0  0  0  0  0  0  0  0  0  0  0
   22.8349    3.6650    5.0529 H   0  0  0  0  0  0  0  0  0  0  0  0
   21.7699    4.6072    3.4642 C   0  0  0  0  0  0  0  0  0  0  0  0
   22.0265    4.9383    2.5677 H   0  0  0  0  0  0  0  0  0  0  0  0
   21.3087    5.3426    3.9392 H   0  0  0  0  0  0  0  0  0  0  0  0
   21.5154    1.6517    2.6580 B   0  0  0  0  0  0  0  0  0  0  0  0
   22.1933    1.3363    3.3503 H   0  0  0  0  0  0  0  0  0  0  0  0
   21.9975    1.8586    1.7798 H   0  0  0  0  0  0  0  0  0  0  0  0
   20.8194    0.9158    2.4996 H   0  0  0  0  0  0  0  0  0  0  0  0
   22.8712   -1.5629    8.9608 B   0  0  0  0  0  0  0  0  0  0  0  0
   22.0048   -2.0825    9.1217 H   0  0  0  0  0  0  0  0  0  0  0  0
   23.6397   -2.0011    9.4882 H   0  0  0  0  0  0  0  0  0  0  0  0
   23.0923   -1.5751    7.9570 H   0  0  0  0  0  0  0  0  0  0  0  0
  1  3  1  0  0  0  0
  2  4  1  0  0  0  0
  3  7  1  0  0  0  0
  4 14  1  0  0  0  0
  5  6  1  0  0  0  0
  7  5  4  0  0  0  0
  8  7  4  0  0  0  0
  9  8  1  0  0  0  0
 10  8  4  0  0  0  0
 11 10  1  0  0  0  0
 12 10  4  0  0  0  0
 13 12  1  0  0  0  0
 14  5  4  0  0  0  0
 15  1  1  0  0  0  0
 16 15  1  0  0  0  0
 17 16  1  0  0  0  0
 18 16  1  0  0  0  0
 19 16  1  0  0  0  0
 20 15  1  0  0  0  0
 21 20  1  0  0  0  0
 22 20  1  0  0  0  0
 23 20  1  0  0  0  0
 24 15  1  0  0  0  0
 25 24  1  0  0  0  0
 26 24  1  0  0  0  0
 27 24  1  0  0  0  0
 28  2  1  0  0  0  0
 29 28  1  0  0  0  0
 30 29  1  0  0  0  0
 31 29  1  0  0  0  0
 32 29  1  0  0  0  0
 33 28  1  0  0  0  0
 34 33  1  0  0  0  0
 35 33  1  0  0  0  0
 36 33  1  0  0  0  0
 37 28  1  0  0  0  0
 38 37  1  0  0  0  0
 39 37  1  0  0  0  0
 40 37  1  0  0  0  0
 41  1  1  0  0  0  0
 42 41  1  0  0  0  0
 43 41  1  0  0  0  0
 44 41  1  0  0  0  0
 45 44  1  0  0  0  0
 46 44  1  0  0  0  0
 47 44  1  0  0  0  0
 48 47  1  0  0  0  0
 49 47  1  0  0  0  0
 50 47  1  0  0  0  0
 51 50  1  0  0  0  0
 52 50  1  0  0  0  0
 53 50  1  0  0  0  0
 54 53  1  0  0  0  0
 55 53  1  0  0  0  0
 56 53  1  0  0  0  0
 57 56  1  0  0  0  0
 58 56  1  0  0  0  0
 59 56  1  0  0  0  0
 60 59  1  0  0  0  0
 61 59  1  0  0  0  0
 62 59  1  0  0  0  0
 63 62  1  0  0  0  0
 64 62  1  0  0  0  0
 65 62  1  0  0  0  0
 66 65  1  0  0  0  0
 67 65  1  0  0  0  0
 68 65  1  0  0  0  0
 69 68  1  0  0  0  0
 70 68  1  0  0  0  0
 71 68  1  0  0  0  0
 72 71  1  0  0  0  0
 73 71  1  0  0  0  0
 74 71  1  0  0  0  0
 75 74  1  0  0  0  0
 76 74  1  0  0  0  0
 77 74  1  0  0  0  0
 78 77  1  0  0  0  0
 79 77  1  0  0  0  0
 80  2  1  0  0  0  0
 81 80  1  0  0  0  0
 82 80  1  0  0  0  0
 83  2  1  0  0  0  0
 84 83  1  0  0  0  0
 85 83  1  0  0  0  0
 86 83  1  0  0  0  0
 87  1  1  0  0  0  0
 88 87  1  0  0  0  0
 89 87  1  0  0  0  0
 90 87  1  0  0  0  0
 12 14  4  0  0  0  0
 77 80  1  0  0  0  0
M  END
$$$$
KUGWAN

From CSD data. Using bond type 'Any'. No disordered atoms. Largest molecule.
 90 91  0  0  0  0  0  0  0  0999 V2000
   15.7523   11.0327   22.5985 P   0  0  0  0  0  0  0  0  0  0  0  0
   11.1939   10.2798   17.6262 P   0  0  0  0  0  0  0  0  0  0  0  0
   16.0098   11.3249   21.0134 O   0  0  0  0  0  0  0  0  0  0  0  0
   11.7207   11.2119   18.8512 O   0  0  0  0  0  0  0  0  0  0  0  0
   13.8293   11.2572   19.9386 C   0  0  0  0  0  0  0  0  0  0  0  0
   13.5322   10.5683   20.5216 H   0  0  0  0  0  0  0  0  0  0  0  0
   15.0933   11.8077   20.0716 C   0  0  0  0  0  0  0  0  0  0  0  0
   15.5470   12.7980   19.2166 C   0  0  0  0  0  0  0  0  0  0  0  0
   16.4222   13.1541   19.3133 H   0  0  0  0  0  0  0  0  0  0  0  0
   14.7031   13.2631   18.2157 C   0  0  0  0  0  0  0  0  0  0  0  0
   15.0062   13.9414   17.6249 H   0  0  0  0  0  0  0  0  0  0  0  0
   13.4201   12.7462   18.0694 C   0  0  0  0  0  0  0  0  0  0  0  0
   12.8380   13.0744   17.3930 H   0  0  0  0  0  0  0  0  0  0  0  0
   13.0103   11.7426   18.9292 C   0  0  0  0  0  0  0  0  0  0  0  0
   15.9856   12.6621   23.4179 C   0  0  0  0  0  0  0  0  0  0  0  0
   14.8573   13.5879   22.9555 C   0  0  0  0  0  0  0  0  0  0  0  0
   14.9097   13.7073   21.9846 H   0  0  0  0  0  0  0  0  0  0  0  0
   14.9474   14.4586   23.3986 H   0  0  0  0  0  0  0  0  0  0  0  0
   13.9925   13.1901   23.1896 H   0  0  0  0  0  0  0  0  0  0  0  0
   15.8942   12.4727   24.9420 C   0  0  0  0  0  0  0  0  0  0  0  0
   15.0299   12.0722   25.1686 H   0  0  0  0  0  0  0  0  0  0  0  0
   15.9787   13.3432   25.3842 H   0  0  0  0  0  0  0  0  0  0  0  0
   16.6170   11.8831   25.2405 H   0  0  0  0  0  0  0  0  0  0  0  0
   17.3446   13.2663   23.0423 C   0  0  0  0  0  0  0  0  0  0  0  0
   18.0629   12.6846   23.3692 H   0  0  0  0  0  0  0  0  0  0  0  0
   17.4313   14.1537   23.4509 H   0  0  0  0  0  0  0  0  0  0  0  0
   17.4084   13.3471   22.0662 H   0  0  0  0  0  0  0  0  0  0  0  0
    9.5309   10.9814   17.2970 C   0  0  0  0  0  0  0  0  0  0  0  0
    9.7089   12.4620   16.9290 C   0  0  0  0  0  0  0  0  0  0  0  0
   10.0563   12.9521   17.7033 H   0  0  0  0  0  0  0  0  0  0  0  0
    8.8437   12.8389   16.6648 H   0  0  0  0  0  0  0  0  0  0  0  0
   10.3411   12.5392   16.1847 H   0  0  0  0  0  0  0  0  0  0  0  0
    8.9289   10.2135   16.1135 C   0  0  0  0  0  0  0  0  0  0  0  0
    9.5312   10.2776   15.3422 H   0  0  0  0  0  0  0  0  0  0  0  0
    8.0589   10.6005   15.8810 H   0  0  0  0  0  0  0  0  0  0  0  0
    8.8135    9.2716   16.3611 H   0  0  0  0  0  0  0  0  0  0  0  0
    8.6132   10.8754   18.5145 C   0  0  0  0  0  0  0  0  0  0  0  0
    8.4511    9.9315   18.7189 H   0  0  0  0  0  0  0  0  0  0  0  0
    7.7606   11.3183   18.3205 H   0  0  0  0  0  0  0  0  0  0  0  0
    9.0388   11.3093   19.2839 H   0  0  0  0  0  0  0  0  0  0  0  0
   17.2211   10.0312   22.9274 C   0  0  0  0  0  0  0  0  0  0  0  0
   17.9611   10.3522   22.3536 H   0  0  0  0  0  0  0  0  0  0  0  0
   17.4921   10.1618   23.8689 H   0  0  0  0  0  0  0  0  0  0  0  0
   17.0115    8.5311   22.6746 C   0  0  0  0  0  0  0  0  0  0  0  0
   16.3593    8.1781   23.3301 H   0  0  0  0  0  0  0  0  0  0  0  0
   16.6325    8.4032   21.7691 H   0  0  0  0  0  0  0  0  0  0  0  0
   18.3084    7.7512   22.7879 C   0  0  0  0  0  0  0  0  0  0  0  0
   18.7806    8.0378   23.6109 H   0  0  0  0  0  0  0  0  0  0  0  0
   18.8850    7.9774   22.0140 H   0  0  0  0  0  0  0  0  0  0  0  0
   18.1187    6.2309   22.8333 C   0  0  0  0  0  0  0  0  0  0  0  0
   18.9866    5.8110   23.0590 H   0  0  0  0  0  0  0  0  0  0  0  0
   17.4830    6.0142   23.5586 H   0  0  0  0  0  0  0  0  0  0  0  0
   17.6071    5.6175   21.5427 C   0  0  0  0  0  0  0  0  0  0  0  0
   18.2311    5.8380   20.8057 H   0  0  0  0  0  0  0  0  0  0  0  0
   16.7258    6.0104   21.3217 H   0  0  0  0  0  0  0  0  0  0  0  0
   17.4705    4.1002   21.6515 C   0  0  0  0  0  0  0  0  0  0  0  0
   18.3503    3.7205   21.8997 H   0  0  0  0  0  0  0  0  0  0  0  0
   16.8363    3.8916   22.3830 H   0  0  0  0  0  0  0  0  0  0  0  0
   16.9867    3.4145   20.3766 C   0  0  0  0  0  0  0  0  0  0  0  0
   16.8751    2.4481   20.5608 H   0  0  0  0  0  0  0  0  0  0  0  0
   17.6880    3.5056   19.6855 H   0  0  0  0  0  0  0  0  0  0  0  0
   15.6695    3.9579   19.8103 C   0  0  0  0  0  0  0  0  0  0  0  0
   15.8105    4.8924   19.5157 H   0  0  0  0  0  0  0  0  0  0  0  0
   15.4214    3.4259   19.0128 H   0  0  0  0  0  0  0  0  0  0  0  0
   14.5144    3.9253   20.7991 C   0  0  0  0  0  0  0  0  0  0  0  0
   14.7775    4.4280   21.6090 H   0  0  0  0  0  0  0  0  0  0  0  0
   14.3556    2.9859   21.0669 H   0  0  0  0  0  0  0  0  0  0  0  0
   13.2078    4.5079   20.2681 C   0  0  0  0  0  0  0  0  0  0  0  0
   12.8900    3.9507   19.5125 H   0  0  0  0  0  0  0  0  0  0  0  0
   12.5241    4.4679   20.9820 H   0  0  0  0  0  0  0  0  0  0  0  0
   13.3448    5.9482   19.7959 C   0  0  0  0  0  0  0  0  0  0  0  0
   13.9348    5.9679   18.9998 H   0  0  0  0  0  0  0  0  0  0  0  0
   13.7829    6.4774   20.5085 H   0  0  0  0  0  0  0  0  0  0  0  0
   12.0198    6.6110   19.4396 C   0  0  0  0  0  0  0  0  0  0  0  0
   11.4670    6.6986   20.2570 H   0  0  0  0  0  0  0  0  0  0  0  0
   11.5294    6.0387   18.7973 H   0  0  0  0  0  0  0  0  0  0  0  0
   12.2349    7.9895   18.8250 C   0  0  0  0  0  0  0  0  0  0  0  0
   12.8093    7.8989   18.0233 H   0  0  0  0  0  0  0  0  0  0  0  0
   12.7137    8.5614   19.4765 H   0  0  0  0  0  0  0  0  0  0  0  0
   10.9296    8.6781   18.4247 C   0  0  0  0  0  0  0  0  0  0  0  0
   10.3736    8.8084   19.2316 H   0  0  0  0  0  0  0  0  0  0  0  0
   10.4296    8.0880   17.8078 H   0  0  0  0  0  0  0  0  0  0  0  0
   14.1312   10.1609   23.0988 B   0  0  0  0  0  0  0  0  0  0  0  0
   13.3002   10.8462   22.9806 H   0  0  0  0  0  0  0  0  0  0  0  0
   14.1947    9.8466   24.1334 H   0  0  0  0  0  0  0  0  0  0  0  0
   13.9768    9.2947   22.4679 H   0  0  0  0  0  0  0  0  0  0  0  0
   12.3401   10.1573   16.1099 B   0  0  0  0  0  0  0  0  0  0  0  0
   12.3093   11.0868   15.5610 H   0  0  0  0  0  0  0  0  0  0  0  0
   12.0098    9.3500   15.4728 H   0  0  0  0  0  0  0  0  0  0  0  0
   13.3513    9.9663   16.4378 H   0  0  0  0  0  0  0  0  0  0  0  0
  1  3  1  0  0  0  0
  2  4  1  0  0  0  0
  3  7  1  0  0  0  0
  4 14  1  0  0  0  0
  5  6  1  0  0  0  0
  7  5  4  0  0  0  0
  8  7  4  0  0  0  0
  9  8  1  0  0  0  0
 10  8  4  0  0  0  0
 11 10  1  0  0  0  0
 12 10  4  0  0  0  0
 13 12  1  0  0  0  0
 14  5  4  0  0  0  0
 15  1  1  0  0  0  0
 16 15  1  0  0  0  0
 17 16  1  0  0  0  0
 18 16  1  0  0  0  0
 19 16  1  0  0  0  0
 20 15  1  0  0  0  0
 21 20  1  0  0  0  0
 22 20  1  0  0  0  0
 23 20  1  0  0  0  0
 24 15  1  0  0  0  0
 25 24  1  0  0  0  0
 26 24  1  0  0  0  0
 27 24  1  0  0  0  0
 28  2  1  0  0  0  0
 29 28  1  0  0  0  0
 30 29  1  0  0  0  0
 31 29  1  0  0  0  0
 32 29  1  0  0  0  0
 33 28  1  0  0  0  0
 34 33  1  0  0  0  0
 35 33  1  0  0  0  0
 36 33  1  0  0  0  0
 37 28  1  0  0  0  0
 38 37  1  0  0  0  0
 39 37  1  0  0  0  0
 40 37  1  0  0  0  0
 41  1  1  0  0  0  0
 42 41  1  0  0  0  0
 43 41  1  0  0  0  0
 44 41  1  0  0  0  0
 45 44  1  0  0  0  0
 46 44  1  0  0  0  0
 47 44  1  0  0  0  0
 48 47  1  0  0  0  0
 49 47  1  0  0  0  0
 50 47  1  0  0  0  0
 51 50  1  0  0  0  0
 52 50  1  0  0  0  0
 53 50  1  0  0  0  0
 54 53  1  0  0  0  0
 55 53  1  0  0  0  0
 56 53  1  0  0  0  0
 57 56  1  0  0  0  0
 58 56  1  0  0  0  0
 59 56  1  0  0  0  0
 60 59  1  0  0  0  0
 61 59  1  0  0  0  0
 62 59  1  0  0  0  0
 63 62  1  0  0  0  0
 64 62  1  0  0  0  0
 65 62  1  0  0  0  0
 66 65  1  0  0  0  0
 67 65  1  0  0  0  0
 68 65  1  0  0  0  0
 69 68  1  0  0  0  0
 70 68  1  0  0  0  0
 71 68  1  0  0  0  0
 72 71  1  0  0  0  0
 73 71  1  0  0  0  0
 74 71  1  0  0  0  0
 75 74  1  0  0  0  0
 76 74  1  0  0  0  0
 77 74  1  0  0  0  0
 78 77  1  0  0  0  0
 79 77  1  0  0  0  0
 80  2  1  0  0  0  0
 81 80  1  0  0  0  0
 82 80  1  0  0  0  0
 83  1  1  0  0  0  0
 84 83  1  0  0  0  0
 85 83  1  0  0  0  0
 86 83  1  0  0  0  0
 87  2  1  0  0  0  0
 88 87  1  0  0  0  0
 89 87  1  0  0  0  0
 90 87  1  0  0  0  0
 12 14  4  0  0  0  0
 77 80  1  0  0  0  0
M  END
$$$$
KUPLOW

From CSD data. Using bond type 'Any'. No disordered atoms. Largest molecule.
 57 74  0  0  0  0  0  0  0  0999 V2000
    3.9354    7.8375    2.4918 Ir  0  0  0  0  0  0  0  0  0  0  0  0
    2.9218    5.8344    3.3978 P   0  0  0  0  0  0  0  0  0  0  0  0
    2.1726    9.4242    2.9118 P   0  0  0  0  0  0  0  0  0  0  0  0
    3.8675    4.2943    3.1849 C   0  0  0  0  0  0  0  0  0  0  0  0
    3.2800    3.1057    2.7483 C   0  0  0  0  0  0  0  0  0  0  0  0
    4.0450    1.9443    2.6516 C   0  0  0  0  0  0  0  0  0  0  0  0
    5.3976    1.9682    2.9913 C   0  0  0  0  0  0  0  0  0  0  0  0
    5.9862    3.1569    3.4279 C   0  0  0  0  0  0  0  0  0  0  0  0
    5.2201    4.3183    3.5247 C   0  0  0  0  0  0  0  0  0  0  0  0
    2.6819    5.6747    5.2322 C   0  0  0  0  0  0  0  0  0  0  0  0
    2.9408    6.7323    6.1031 C   0  0  0  0  0  0  0  0  0  0  0  0
    2.7981    6.5534    7.4794 C   0  0  0  0  0  0  0  0  0  0  0  0
    2.3966    5.3152    7.9827 C   0  0  0  0  0  0  0  0  0  0  0  0
    2.1377    4.2576    7.1117 C   0  0  0  0  0  0  0  0  0  0  0  0
    2.2804    4.4381    5.7354 C   0  0  0  0  0  0  0  0  0  0  0  0
    1.2723    5.4318    2.7247 C   0  0  0  0  0  0  0  0  0  0  0  0
    1.1539    5.1171    1.3699 C   0  0  0  0  0  0  0  0  0  0  0  0
   -0.1025    4.8567    0.8236 C   0  0  0  0  0  0  0  0  0  0  0  0
   -1.2395    4.9110    1.6279 C   0  0  0  0  0  0  0  0  0  0  0  0
   -1.1212    5.1395    2.9827 C   0  0  0  0  0  0  0  0  0  0  0  0
    0.1353    5.4862    3.5311 C   0  0  0  0  0  0  0  0  0  0  0  0
    1.0588    9.6367    1.4924 C   0  0  0  0  0  0  0  0  0  0  0  0
    0.4628    8.4769    0.9957 C   0  0  0  0  0  0  0  0  0  0  0  0
   -0.4396    8.5567   -0.0645 C   0  0  0  0  0  0  0  0  0  0  0  0
   -0.7460    9.7949   -0.6301 C   0  0  0  0  0  0  0  0  0  0  0  0
   -0.1490   10.9547   -0.1333 C   0  0  0  0  0  0  0  0  0  0  0  0
    0.7534   10.8749    0.9269 C   0  0  0  0  0  0  0  0  0  0  0  0
    2.6872   11.1097    3.3784 C   0  0  0  0  0  0  0  0  0  0  0  0
    4.0345   11.4548    3.4860 C   0  0  0  0  0  0  0  0  0  0  0  0
    4.3948   12.7473    3.8687 C   0  0  0  0  0  0  0  0  0  0  0  0
    3.4089   13.6946    4.1440 C   0  0  0  0  0  0  0  0  0  0  0  0
    2.0616   13.3495    4.0365 C   0  0  0  0  0  0  0  0  0  0  0  0
    1.7002   12.0571    3.6537 C   0  0  0  0  0  0  0  0  0  0  0  0
    0.9954    9.1527    4.2988 C   0  0  0  0  0  0  0  0  0  0  0  0
   -0.3244    8.7405    4.1075 C   0  0  0  0  0  0  0  0  0  0  0  0
   -1.1803    8.6127    5.2021 C   0  0  0  0  0  0  0  0  0  0  0  0
   -0.7186    8.8986    6.4859 C   0  0  0  0  0  0  0  0  0  0  0  0
    0.6002    9.3092    6.6795 C   0  0  0  0  0  0  0  0  0  0  0  0
    1.4572    9.4370    5.5848 C   0  0  0  0  0  0  0  0  0  0  0  0
    4.9295    8.2037    4.0322 C   0  0  0  0  0  0  0  0  0  0  0  0
    5.6798    8.3986    4.8644 O   0  0  0  0  0  0  0  0  0  0  0  0
    6.4807    8.0551    0.5441 C   0  0  0  0  0  0  0  0  0  0  0  0
    5.5213    6.9895   -0.1613 B   0  0  0  0  0  0  0  0  0  0  0  0
    5.9207    6.9224    1.5527 B   0  0  0  0  0  0  0  0  0  0  0  0
    5.7759    9.1063    1.4924 B   0  0  0  0  0  0  0  0  0  0  0  0
    5.3628    8.8539   -0.1634 B   0  0  0  0  0  0  0  0  0  0  0  0
    4.4244    6.3840    0.9290 B   0  0  0  0  0  0  0  0  0  0  0  0
    4.1560    9.3012    0.8925 B   0  0  0  0  0  0  0  0  0  0  0  0
    3.8200    7.7803    0.1462 B   0  0  0  0  0  0  0  0  0  0  0  0
    7.4371    8.3091    0.4086 H   0  0  0  0  0  0  0  0  0  0  0  0
    5.9165    6.5246   -1.1161 H   0  0  0  0  0  0  0  0  0  0  0  0
    6.5431    6.1811    2.1419 H   0  0  0  0  0  0  0  0  0  0  0  0
    6.2123    9.9419    1.9699 H   0  0  0  0  0  0  0  0  0  0  0  0
    5.2962    9.5105   -0.9183 H   0  0  0  0  0  0  0  0  0  0  0  0
    3.9214    5.3552    0.8645 H   0  0  0  0  0  0  0  0  0  0  0  0
    3.6129   10.3636    0.6946 H   0  0  0  0  0  0  0  0  0  0  0  0
    2.7569    7.6381   -0.4538 H   0  0  0  0  0  0  0  0  0  0  0  0
  1  2  1  0  0  0  0
  2  4  1  0  0  0  0
  3  1  1  0  0  0  0
  4  5  4  0  0  0  0
  5  6  4  0  0  0  0
  6  7  4  0  0  0  0
  7  8  4  0  0  0  0
  8  9  4  0  0  0  0
  9  4  4  0  0  0  0
 10  2  1  0  0  0  0
 11 10  4  0  0  0  0
 12 11  4  0  0  0  0
 13 12  4  0  0  0  0
 14 13  4  0  0  0  0
 15 10  4  0  0  0  0
 16  2  1  0  0  0  0
 17 16  4  0  0  0  0
 18 17  4  0  0  0  0
 19 18  4  0  0  0  0
 20 19  4  0  0  0  0
 21 16  4  0  0  0  0
 22  3  1  0  0  0  0
 23 22  4  0  0  0  0
 24 23  4  0  0  0  0
 25 24  4  0  0  0  0
 26 25  4  0  0  0  0
 27 22  4  0  0  0  0
 28  3  1  0  0  0  0
 29 28  4  0  0  0  0
 30 29  4  0  0  0  0
 31 30  4  0  0  0  0
 32 31  4  0  0  0  0
 33 28  4  0  0  0  0
 34  3  1  0  0  0  0
 35 34  4  0  0  0  0
 36 35  4  0  0  0  0
 37 36  4  0  0  0  0
 38 37  4  0  0  0  0
 39 34  4  0  0  0  0
 40  1  1  0  0  0  0
 41 40  3  0  0  0  0
 42 43  1  0  0  0  0
 43 44  1  0  0  0  0
 44  1  1  0  0  0  0
 45  1  1  0  0  0  0
 46 42  1  0  0  0  0
 47  1  1  0  0  0  0
 48  1  1  0  0  0  0
 49  1  1  0  0  0  0
 50 42  1  0  0  0  0
 51 43  1  0  0  0  0
 52 44  1  0  0  0  0
 53 45  1  0  0  0  0
 54 46  1  0  0  0  0
 55 47  1  0  0  0  0
 56 48  1  0  0  0  0
 57 49  1  0  0  0  0
 14 15  4  0  0  0  0
 20 21  4  0  0  0  0
 26 27  4  0  0  0  0
 32 33  4  0  0  0  0
 38 39  4  0  0  0  0
 42 44  1  0  0  0  0
 42 45  1  0  0  0  0
 43 46  1  0  0  0  0
 43 47  1  0  0  0  0
 43 49  1  0  0  0  0
 44 47  1  0  0  0  0
 45 46  1  0  0  0  0
 45 48  1  0  0  0  0
 46 48  1  0  0  0  0
 46 49  1  0  0  0  0
 47 49  1  0  0  0  0
 48 49  1  0  0  0  0
M  END
$$$$
KUWFOX

From CSD data. Using bond type 'Any'. No disordered atoms. Largest molecule.
 96120  0  0  0  0  0  0  0  0999 V2000
    1.2240    0.9879    2.2451 Te  0  0  0  0  0  0  0  0  0  0  0  0
    1.2546   -1.4635    3.3524 Pd  0  0  0  0  0  0  0  0  0  0  0  0
    0.2634   -1.8927    6.7628 P   0  0  0  0  0  0  0  0  0  0  0  0
    2.2089   -3.1943    2.0718 P   0  0  0  0  0  0  0  0  0  0  0  0
   -0.6925   -2.1920    2.9346 O   0  0  0  0  0  0  0  0  0  0  0  0
   -0.7101   -1.1869    0.9589 O   0  0  0  0  0  0  0  0  0  0  0  0
   -1.2056   -1.9125    1.8488 C   0  0  0  0  0  0  0  0  0  0  0  0
   -2.5957   -2.4647    1.6060 C   0  0  0  0  0  0  0  0  0  0  0  0
   -1.5149   -1.6208    6.8987 C   0  0  0  0  0  0  0  0  0  0  0  0
   -2.1399   -1.4667    8.1422 C   0  0  0  0  0  0  0  0  0  0  0  0
   -3.5142   -1.3125    8.2093 C   0  0  0  0  0  0  0  0  0  0  0  0
   -4.2768   -1.2768    7.0492 C   0  0  0  0  0  0  0  0  0  0  0  0
   -3.6668   -1.4623    5.8420 C   0  0  0  0  0  0  0  0  0  0  0  0
   -2.2909   -1.6180    5.7387 C   0  0  0  0  0  0  0  0  0  0  0  0
    0.9793   -1.6565    8.4123 C   0  0  0  0  0  0  0  0  0  0  0  0
    1.6699   -2.6561    9.0702 C   0  0  0  0  0  0  0  0  0  0  0  0
    2.2571   -2.4018   10.3010 C   0  0  0  0  0  0  0  0  0  0  0  0
    2.1675   -1.1552   10.8575 C   0  0  0  0  0  0  0  0  0  0  0  0
    1.4773   -0.1889   10.2575 C   0  0  0  0  0  0  0  0  0  0  0  0
    0.8405   -0.3958    9.0140 C   0  0  0  0  0  0  0  0  0  0  0  0
    0.4482   -3.6525    6.4057 C   0  0  0  0  0  0  0  0  0  0  0  0
   -0.6444   -4.5300    6.4655 C   0  0  0  0  0  0  0  0  0  0  0  0
   -0.4533   -5.8890    6.2245 C   0  0  0  0  0  0  0  0  0  0  0  0
    0.7994   -6.3963    5.9580 C   0  0  0  0  0  0  0  0  0  0  0  0
    1.8807   -5.5420    5.8891 C   0  0  0  0  0  0  0  0  0  0  0  0
    1.7102   -4.1786    6.0994 C   0  0  0  0  0  0  0  0  0  0  0  0
    2.9177   -2.6839    0.4749 C   0  0  0  0  0  0  0  0  0  0  0  0
    2.2344   -1.7546   -0.2973 C   0  0  0  0  0  0  0  0  0  0  0  0
    2.7522   -1.3641   -1.5498 C   0  0  0  0  0  0  0  0  0  0  0  0
    3.9174   -1.8858   -1.9920 C   0  0  0  0  0  0  0  0  0  0  0  0
    4.5856   -2.7977   -1.2308 C   0  0  0  0  0  0  0  0  0  0  0  0
    4.0830   -3.2134   -0.0254 C   0  0  0  0  0  0  0  0  0  0  0  0
    0.9427   -4.4413    1.6567 C   0  0  0  0  0  0  0  0  0  0  0  0
    0.1791   -4.9791    2.6917 C   0  0  0  0  0  0  0  0  0  0  0  0
   -0.7041   -5.9795    2.4488 C   0  0  0  0  0  0  0  0  0  0  0  0
   -0.8875   -6.4686    1.1528 C   0  0  0  0  0  0  0  0  0  0  0  0
   -0.1676   -5.9434    0.1287 C   0  0  0  0  0  0  0  0  0  0  0  0
    0.7546   -4.9164    0.3553 C   0  0  0  0  0  0  0  0  0  0  0  0
    3.5287   -4.2476    2.7642 C   0  0  0  0  0  0  0  0  0  0  0  0
    3.4900   -5.6376    2.6754 C   0  0  0  0  0  0  0  0  0  0  0  0
    4.5727   -6.4040    3.1376 C   0  0  0  0  0  0  0  0  0  0  0  0
    5.6580   -5.8194    3.6977 C   0  0  0  0  0  0  0  0  0  0  0  0
    5.7001   -4.4454    3.8083 C   0  0  0  0  0  0  0  0  0  0  0  0
    4.6563   -3.6536    3.3442 C   0  0  0  0  0  0  0  0  0  0  0  0
    3.0736   -0.1589    3.2192 B   0  0  0  0  0  0  0  0  0  0  0  0
    2.8511    1.7561    3.6596 B   0  0  0  0  0  0  0  0  0  0  0  0
    1.1103    2.0054    4.2904 B   0  0  0  0  0  0  0  0  0  0  0  0
    0.2058    0.3050    4.3085 B   0  0  0  0  0  0  0  0  0  0  0  0
    2.7934   -1.0371    4.8668 B   0  0  0  0  0  0  0  0  0  0  0  0
    3.6251    0.5642    4.7617 B   0  0  0  0  0  0  0  0  0  0  0  0
    2.4916    1.8334    5.3744 B   0  0  0  0  0  0  0  0  0  0  0  0
    0.9477    1.0115    5.7804 B   0  0  0  0  0  0  0  0  0  0  0  0
    1.1532   -0.7365    5.4813 B   0  0  0  0  0  0  0  0  0  0  0  0
    2.5058    0.2110    6.1030 B   0  0  0  0  0  0  0  0  0  0  0  0
   -2.8985   -2.1929    0.7468 H   0  0  0  0  0  0  0  0  0  0  0  0
   -3.1886   -2.1327    2.2694 H   0  0  0  0  0  0  0  0  0  0  0  0
   -2.5696   -3.4131    1.6440 H   0  0  0  0  0  0  0  0  0  0  0  0
   -1.6219   -1.4660    8.9379 H   0  0  0  0  0  0  0  0  0  0  0  0
   -3.9389   -1.2310    9.0539 H   0  0  0  0  0  0  0  0  0  0  0  0
   -5.2129   -1.1254    7.0945 H   0  0  0  0  0  0  0  0  0  0  0  0
   -4.1951   -1.4840    5.0517 H   0  0  0  0  0  0  0  0  0  0  0  0
   -1.8807   -1.7226    4.8850 H   0  0  0  0  0  0  0  0  0  0  0  0
    1.7412   -3.5206    8.6769 H   0  0  0  0  0  0  0  0  0  0  0  0
    2.7217   -3.0936   10.7560 H   0  0  0  0  0  0  0  0  0  0  0  0
    2.6027   -0.9741   11.6822 H   0  0  0  0  0  0  0  0  0  0  0  0
    1.4106    0.6628   10.6762 H   0  0  0  0  0  0  0  0  0  0  0  0
    0.3372    0.2954    8.6008 H   0  0  0  0  0  0  0  0  0  0  0  0
   -1.5106   -4.1960    6.6685 H   0  0  0  0  0  0  0  0  0  0  0  0
   -1.1997   -6.4752    6.2408 H   0  0  0  0  0  0  0  0  0  0  0  0
    0.9192   -7.3292    5.8221 H   0  0  0  0  0  0  0  0  0  0  0  0
    2.7450   -5.8883    5.6988 H   0  0  0  0  0  0  0  0  0  0  0  0
    2.4561   -3.5961    6.0323 H   0  0  0  0  0  0  0  0  0  0  0  0
    1.4163   -1.3828    0.0163 H   0  0  0  0  0  0  0  0  0  0  0  0
    2.2802   -0.7336   -2.0809 H   0  0  0  0  0  0  0  0  0  0  0  0
    4.2707   -1.6187   -2.8313 H   0  0  0  0  0  0  0  0  0  0  0  0
    5.4143   -3.1483   -1.5389 H   0  0  0  0  0  0  0  0  0  0  0  0
    4.5462   -3.8787    0.4677 H   0  0  0  0  0  0  0  0  0  0  0  0
    0.2771   -4.6412    3.5744 H   0  0  0  0  0  0  0  0  0  0  0  0
   -1.2016   -6.3507    3.1648 H   0  0  0  0  0  0  0  0  0  0  0  0
   -1.5131   -7.1624    0.9861 H   0  0  0  0  0  0  0  0  0  0  0  0
   -0.2916   -6.2785   -0.7522 H   0  0  0  0  0  0  0  0  0  0  0  0
    1.2463   -4.5465   -0.3661 H   0  0  0  0  0  0  0  0  0  0  0  0
    2.7300   -6.0684    2.3002 H   0  0  0  0  0  0  0  0  0  0  0  0
    4.5427   -7.3492    3.0542 H   0  0  0  0  0  0  0  0  0  0  0  0
    6.3807   -6.3502    4.0095 H   0  0  0  0  0  0  0  0  0  0  0  0
    6.4555   -4.0325    4.2070 H   0  0  0  0  0  0  0  0  0  0  0  0
    4.7076   -2.7066    3.4204 H   0  0  0  0  0  0  0  0  0  0  0  0
    3.8463   -0.2712    2.4724 H   0  0  0  0  0  0  0  0  0  0  0  0
    3.3742    2.6134    3.2645 H   0  0  0  0  0  0  0  0  0  0  0  0
    0.7583    3.0212    4.2052 H   0  0  0  0  0  0  0  0  0  0  0  0
   -0.8531    0.4885    4.2107 H   0  0  0  0  0  0  0  0  0  0  0  0
    3.5042   -1.7943    5.1587 H   0  0  0  0  0  0  0  0  0  0  0  0
    4.6477    0.8623    4.9321 H   0  0  0  0  0  0  0  0  0  0  0  0
    2.8414    2.7422    5.8366 H   0  0  0  0  0  0  0  0  0  0  0  0
    0.4548    1.5834    6.5507 H   0  0  0  0  0  0  0  0  0  0  0  0
    2.9315    0.3198    7.0891 H   0  0  0  0  0  0  0  0  0  0  0  0
  1  2  1  0  0  0  0
  2  4  1  0  0  0  0
  3  9  1  0  0  0  0
  4 27  1  0  0  0  0
  5  2  1  0  0  0  0
  6  7  2  0  0  0  0
  7  5  1  0  0  0  0
  8  7  1  0  0  0  0
  9 10  4  0  0  0  0
 10 11  4  0  0  0  0
 11 12  4  0  0  0  0
 12 13  4  0  0  0  0
 13 14  4  0  0  0  0
 14  9  4  0  0  0  0
 15  3  1  0  0  0  0
 16 15  4  0  0  0  0
 17 16  4  0  0  0  0
 18 17  4  0  0  0  0
 19 18  4  0  0  0  0
 20 15  4  0  0  0  0
 21  3  1  0  0  0  0
 22 21  4  0  0  0  0
 23 22  4  0  0  0  0
 24 23  4  0  0  0  0
 25 24  4  0  0  0  0
 26 21  4  0  0  0  0
 27 28  4  0  0  0  0
 28 29  4  0  0  0  0
 29 30  4  0  0  0  0
 30 31  4  0  0  0  0
 31 32  4  0  0  0  0
 32 27  4  0  0  0  0
 33  4  1  0  0  0  0
 34 33  4  0  0  0  0
 35 34  4  0  0  0  0
 36 35  4  0  0  0  0
 37 36  4  0  0  0  0
 38 33  4  0  0  0  0
 39  4  1  0  0  0  0
 40 39  4  0  0  0  0
 41 40  4  0  0  0  0
 42 41  4  0  0  0  0
 43 42  4  0  0  0  0
 44 39  4  0  0  0  0
 45  1  1  0  0  0  0
 46  1  1  0  0  0  0
 47  1  1  0  0  0  0
 48  1  1  0  0  0  0
 49  2  1  0  0  0  0
 50 45  1  0  0  0  0
 51 46  1  0  0  0  0
 52 47  1  0  0  0  0
 53  2  1  0  0  0  0
 54 49  1  0  0  0  0
 55  8  1  0  0  0  0
 56  8  1  0  0  0  0
 57  8  1  0  0  0  0
 58 10  1  0  0  0  0
 59 11  1  0  0  0  0
 60 12  1  0  0  0  0
 61 13  1  0  0  0  0
 62 14  1  0  0  0  0
 63 16  1  0  0  0  0
 64 17  1  0  0  0  0
 65 18  1  0  0  0  0
 66 19  1  0  0  0  0
 67 20  1  0  0  0  0
 68 22  1  0  0  0  0
 69 23  1  0  0  0  0
 70 24  1  0  0  0  0
 71 25  1  0  0  0  0
 72 26  1  0  0  0  0
 73 28  1  0  0  0  0
 74 29  1  0  0  0  0
 75 30  1  0  0  0  0
 76 31  1  0  0  0  0
 77 32  1  0  0  0  0
 78 34  1  0  0  0  0
 79 35  1  0  0  0  0
 80 36  1  0  0  0  0
 81 37  1  0  0  0  0
 82 38  1  0  0  0  0
 83 40  1  0  0  0  0
 84 41  1  0  0  0  0
 85 42  1  0  0  0  0
 86 43  1  0  0  0  0
 87 44  1  0  0  0  0
 88 45  1  0  0  0  0
 89 46  1  0  0  0  0
 90 47  1  0  0  0  0
 91 48  1  0  0  0  0
 92 49  1  0  0  0  0
 93 50  1  0  0  0  0
 94 51  1  0  0  0  0
 95 52  1  0  0  0  0
 96 54  1  0  0  0  0
  2 45  1  0  0  0  0
  2 48  1  0  0  0  0
  3 53  1  0  0  0  0
 19 20  4  0  0  0  0
 25 26  4  0  0  0  0
 37 38  4  0  0  0  0
 43 44  4  0  0  0  0
 45 46  1  0  0  0  0
 45 49  1  0  0  0  0
 46 47  1  0  0  0  0
 46 50  1  0  0  0  0
 47 48  1  0  0  0  0
 47 51  1  0  0  0  0
 48 52  1  0  0  0  0
 48 53  1  0  0  0  0
 49 50  1  0  0  0  0
 49 53  1  0  0  0  0
 50 51  1  0  0  0  0
 50 54  1  0  0  0  0
 51 52  1  0  0  0  0
 51 54  1  0  0  0  0
 52 53  1  0  0  0  0
 52 54  1  0  0  0  0
 53 54  1  0  0  0  0
M  END
$$$$
KUWFUD

From CSD data. Using bond type 'Any'. No disordered atoms. Largest molecule.
 92116  0  0  0  0  0  0  0  0999 V2000
    1.5436    9.6538   20.1423 Te  0  0  0  0  0  0  0  0  0  0  0  0
    1.8067   11.7169   18.4271 Pd  0  3  0  0  0  0  0  0  0  0  0  0
    3.1580   13.4598   19.2513 P   0  0  0  0  0  0  0  0  0  0  0  0
   -0.2379   11.6853   15.4648 P   0  0  0  0  0  0  0  0  0  0  0  0
    3.3339   10.9824   17.0109 O   0  0  0  0  0  0  0  0  0  0  0  0
    4.6613   13.5896   18.2304 C   0  0  0  0  0  0  0  0  0  0  0  0
    5.9556   13.5067   18.7372 C   0  0  0  0  0  0  0  0  0  0  0  0
    7.0481   13.5771   17.9114 C   0  0  0  0  0  0  0  0  0  0  0  0
    6.8674   13.7460   16.5606 C   0  0  0  0  0  0  0  0  0  0  0  0
    5.6018   13.8570   16.0296 C   0  0  0  0  0  0  0  0  0  0  0  0
    4.5035   13.7554   16.8574 C   0  0  0  0  0  0  0  0  0  0  0  0
    2.4644   15.1536   19.2702 C   0  0  0  0  0  0  0  0  0  0  0  0
    1.2809   15.4054   19.9567 C   0  0  0  0  0  0  0  0  0  0  0  0
    0.7204   16.6754   19.9446 C   0  0  0  0  0  0  0  0  0  0  0  0
    1.3447   17.6982   19.2480 C   0  0  0  0  0  0  0  0  0  0  0  0
    2.5270   17.4652   18.5918 C   0  0  0  0  0  0  0  0  0  0  0  0
    3.1000   16.2062   18.6059 C   0  0  0  0  0  0  0  0  0  0  0  0
    3.7899   13.1454   20.9319 C   0  0  0  0  0  0  0  0  0  0  0  0
    4.3450   11.9146   21.2086 C   0  0  0  0  0  0  0  0  0  0  0  0
    4.8519   11.6190   22.4624 C   0  0  0  0  0  0  0  0  0  0  0  0
    4.7668   12.5683   23.4599 C   0  0  0  0  0  0  0  0  0  0  0  0
    4.2138   13.7945   23.2075 C   0  0  0  0  0  0  0  0  0  0  0  0
    3.7250   14.0916   21.9395 C   0  0  0  0  0  0  0  0  0  0  0  0
   -1.8660   12.2148   14.8807 C   0  0  0  0  0  0  0  0  0  0  0  0
   -2.0011   13.2799   13.9762 C   0  0  0  0  0  0  0  0  0  0  0  0
   -3.2561   13.6037   13.5037 C   0  0  0  0  0  0  0  0  0  0  0  0
   -4.3566   12.8858   13.8712 C   0  0  0  0  0  0  0  0  0  0  0  0
   -4.2211   11.8348   14.7555 C   0  0  0  0  0  0  0  0  0  0  0  0
   -3.0010   11.5110   15.2583 C   0  0  0  0  0  0  0  0  0  0  0  0
    0.1643   10.2067   14.5011 C   0  0  0  0  0  0  0  0  0  0  0  0
   -0.7482    9.6483   13.6026 C   0  0  0  0  0  0  0  0  0  0  0  0
   -0.4569    8.4409   12.9828 C   0  0  0  0  0  0  0  0  0  0  0  0
    0.7148    7.7997   13.2412 C   0  0  0  0  0  0  0  0  0  0  0  0
    1.6466    8.3643   14.0771 C   0  0  0  0  0  0  0  0  0  0  0  0
    1.3798    9.5623   14.7071 C   0  0  0  0  0  0  0  0  0  0  0  0
    0.9105   13.0078   15.0160 C   0  0  0  0  0  0  0  0  0  0  0  0
    1.9208   12.8561   14.0791 C   0  0  0  0  0  0  0  0  0  0  0  0
    2.7384   13.9259   13.7621 C   0  0  0  0  0  0  0  0  0  0  0  0
    2.5239   15.1395   14.3214 C   0  0  0  0  0  0  0  0  0  0  0  0
    1.5066   15.3366   15.2583 C   0  0  0  0  0  0  0  0  0  0  0  0
    0.7205   14.2574   15.6036 C   0  0  0  0  0  0  0  0  0  0  0  0
    0.6251    9.8047   17.9457 B   0  0  0  0  0  0  0  0  0  0  0  0
   -0.5205    9.1025   19.3207 B   0  0  0  0  0  0  0  0  0  0  0  0
   -0.5515   10.3693   20.7119 B   0  0  0  0  0  0  0  0  0  0  0  0
    0.5812   11.8536   20.2455 B   0  0  0  0  0  0  0  0  0  0  0  0
   -0.1915   11.3265   17.3804 B   0  0  0  0  0  0  0  0  0  0  0  0
   -1.1347    9.9251   17.8872 B   0  0  0  0  0  0  0  0  0  0  0  0
   -1.8181   10.2833   19.5226 B   0  0  0  0  0  0  0  0  0  0  0  0
   -1.1400   11.8739   20.0112 B   0  0  0  0  0  0  0  0  0  0  0  0
   -0.2040   12.5620   18.6524 B   0  0  0  0  0  0  0  0  0  0  0  0
   -1.6473   11.5830   18.3435 B   0  0  0  0  0  0  0  0  0  0  0  0
    1.1839    9.1525   17.2915 H   0  0  0  0  0  0  0  0  0  0  0  0
   -0.6139    8.0468   19.5287 H   0  0  0  0  0  0  0  0  0  0  0  0
   -0.6874   10.0753   21.7436 H   0  0  0  0  0  0  0  0  0  0  0  0
    1.1096   12.4494   20.9743 H   0  0  0  0  0  0  0  0  0  0  0  0
   -1.6632    9.3293   17.1583 H   0  0  0  0  0  0  0  0  0  0  0  0
   -2.7856    9.9032   19.8154 H   0  0  0  0  0  0  0  0  0  0  0  0
   -1.6959   12.5292   20.6654 H   0  0  0  0  0  0  0  0  0  0  0  0
   -0.1079   13.6193   18.4464 H   0  0  0  0  0  0  0  0  0  0  0  0
   -2.4805   12.0866   17.8750 H   0  0  0  0  0  0  0  0  0  0  0  0
    3.8393   11.4641   16.7403 H   0  0  0  0  0  0  0  0  0  0  0  0
    3.7222   10.2958   17.3804 H   0  0  0  0  0  0  0  0  0  0  0  0
    6.0840   13.3957   19.6720 H   0  0  0  0  0  0  0  0  0  0  0  0
    7.9256   13.5161   18.2708 H   0  0  0  0  0  0  0  0  0  0  0  0
    7.6247   13.7835   15.9892 H   0  0  0  0  0  0  0  0  0  0  0  0
    5.4887   14.0009   15.0968 H   0  0  0  0  0  0  0  0  0  0  0  0
    3.6297   13.8007   16.4879 H   0  0  0  0  0  0  0  0  0  0  0  0
    0.8537   14.7047   20.4352 H   0  0  0  0  0  0  0  0  0  0  0  0
   -0.0887   16.8412   20.4130 H   0  0  0  0  0  0  0  0  0  0  0  0
    0.9495   18.5631   19.2278 H   0  0  0  0  0  0  0  0  0  0  0  0
    2.9572   18.1752   18.1274 H   0  0  0  0  0  0  0  0  0  0  0  0
    3.9256   16.0576   18.1597 H   0  0  0  0  0  0  0  0  0  0  0  0
    4.3798   11.2545   20.5261 H   0  0  0  0  0  0  0  0  0  0  0  0
    5.2542   10.7760   22.6320 H   0  0  0  0  0  0  0  0  0  0  0  0
    5.0963   12.3665   24.3281 H   0  0  0  0  0  0  0  0  0  0  0  0
    4.1639   14.4404   23.9020 H   0  0  0  0  0  0  0  0  0  0  0  0
    3.3439   14.9456   21.7679 H   0  0  0  0  0  0  0  0  0  0  0  0
   -1.2399   13.7726   13.6935 H   0  0  0  0  0  0  0  0  0  0  0  0
   -3.3572   14.3419   12.9141 H   0  0  0  0  0  0  0  0  0  0  0  0
   -5.2107   13.1079   13.5178 H   0  0  0  0  0  0  0  0  0  0  0  0
   -4.9857   11.3327   15.0120 H   0  0  0  0  0  0  0  0  0  0  0  0
   -2.9264   10.7947   15.8782 H   0  0  0  0  0  0  0  0  0  0  0  0
   -1.5689   10.0909   13.4209 H   0  0  0  0  0  0  0  0  0  0  0  0
   -1.0770    8.0593   12.3730 H   0  0  0  0  0  0  0  0  0  0  0  0
    0.8903    6.9567   12.8435 H   0  0  0  0  0  0  0  0  0  0  0  0
    2.4789    7.9295   14.2205 H   0  0  0  0  0  0  0  0  0  0  0  0
    2.0277    9.9470   15.2866 H   0  0  0  0  0  0  0  0  0  0  0  0
    2.0523   12.0178   13.6531 H   0  0  0  0  0  0  0  0  0  0  0  0
    3.4541   13.8101   13.1483 H   0  0  0  0  0  0  0  0  0  0  0  0
    3.0781   15.8715   14.0731 H   0  0  0  0  0  0  0  0  0  0  0  0
    1.3613   16.1905   15.6480 H   0  0  0  0  0  0  0  0  0  0  0  0
    0.0368   14.3685   16.2537 H   0  0  0  0  0  0  0  0  0  0  0  0
  1  2  1  0  0  0  0
  2  3  1  0  0  0  0
  3  6  1  0  0  0  0
  4 24  1  0  0  0  0
  5  2  1  0  0  0  0
  6  7  4  0  0  0  0
  7  8  4  0  0  0  0
  8  9  4  0  0  0  0
  9 10  4  0  0  0  0
 10 11  4  0  0  0  0
 11  6  4  0  0  0  0
 12  3  1  0  0  0  0
 13 12  4  0  0  0  0
 14 13  4  0  0  0  0
 15 14  4  0  0  0  0
 16 15  4  0  0  0  0
 17 12  4  0  0  0  0
 18  3  1  0  0  0  0
 19 18  4  0  0  0  0
 20 19  4  0  0  0  0
 21 20  4  0  0  0  0
 22 21  4  0  0  0  0
 23 18  4  0  0  0  0
 24 25  4  0  0  0  0
 25 26  4  0  0  0  0
 26 27  4  0  0  0  0
 27 28  4  0  0  0  0
 28 29  4  0  0  0  0
 29 24  4  0  0  0  0
 30  4  1  0  0  0  0
 31 30  4  0  0  0  0
 32 31  4  0  0  0  0
 33 32  4  0  0  0  0
 34 33  4  0  0  0  0
 35 30  4  0  0  0  0
 36  4  1  0  0  0  0
 37 36  4  0  0  0  0
 38 37  4  0  0  0  0
 39 38  4  0  0  0  0
 40 39  4  0  0  0  0
 41 36  4  0  0  0  0
 42  1  1  0  0  0  0
 43  1  1  0  0  0  0
 44  1  1  0  0  0  0
 45  1  1  0  0  0  0
 46  2  1  0  0  0  0
 47 42  1  0  0  0  0
 48 43  1  0  0  0  0
 49 44  1  0  0  0  0
 50  2  1  0  0  0  0
 51 46  1  0  0  0  0
 52 42  1  0  0  0  0
 53 43  1  0  0  0  0
 54 44  1  0  0  0  0
 55 45  1  0  0  0  0
 56 47  1  0  0  0  0
 57 48  1  0  0  0  0
 58 49  1  0  0  0  0
 59 50  1  0  0  0  0
 60 51  1  0  0  0  0
 61  5  1  0  0  0  0
 62  5  1  0  0  0  0
 63  7  1  0  0  0  0
 64  8  1  0  0  0  0
 65  9  1  0  0  0  0
 66 10  1  0  0  0  0
 67 11  1  0  0  0  0
 68 13  1  0  0  0  0
 69 14  1  0  0  0  0
 70 15  1  0  0  0  0
 71 16  1  0  0  0  0
 72 17  1  0  0  0  0
 73 19  1  0  0  0  0
 74 20  1  0  0  0  0
 75 21  1  0  0  0  0
 76 22  1  0  0  0  0
 77 23  1  0  0  0  0
 78 25  1  0  0  0  0
 79 26  1  0  0  0  0
 80 27  1  0  0  0  0
 81 28  1  0  0  0  0
 82 29  1  0  0  0  0
 83 31  1  0  0  0  0
 84 32  1  0  0  0  0
 85 33  1  0  0  0  0
 86 34  1  0  0  0  0
 87 35  1  0  0  0  0
 88 37  1  0  0  0  0
 89 38  1  0  0  0  0
 90 39  1  0  0  0  0
 91 40  1  0  0  0  0
 92 41  1  0  0  0  0
  2 42  1  0  0  0  0
  2 45  1  0  0  0  0
  4 46  1  0  0  0  0
 16 17  4  0  0  0  0
 22 23  4  0  0  0  0
 34 35  4  0  0  0  0
 40 41  4  0  0  0  0
 42 43  1  0  0  0  0
 42 46  1  0  0  0  0
 43 44  1  0  0  0  0
 43 47  1  0  0  0  0
 44 45  1  0  0  0  0
 44 48  1  0  0  0  0
 45 49  1  0  0  0  0
 45 50  1  0  0  0  0
 46 47  1  0  0  0  0
 46 50  1  0  0  0  0
 47 48  1  0  0  0  0
 47 51  1  0  0  0  0
 48 49  1  0  0  0  0
 48 51  1  0  0  0  0
 49 50  1  0  0  0  0
 49 51  1  0  0  0  0
 50 51  1  0  0  0  0
M  CHG  1   2   1
M  END
$$$$
KUWGAK

From CSD data. Using bond type 'Any'. No disordered atoms. Largest molecule.
 91115  0  0  0  0  0  0  0  0999 V2000
   -0.6415    4.8767   11.5655 Te  0  0  0  0  0  0  0  0  0  0  0  0
    0.1852    2.3602   12.0324 Pd  0  3  0  0  0  0  0  0  0  0  0  0
    3.4843    1.9137   13.4821 P   0  0  0  0  0  0  0  0  0  0  0  0
   -0.9607    0.5854   10.9642 P   0  0  0  0  0  0  0  0  0  0  0  0
   -1.1721    1.7633   14.6649 O   0  0  0  0  0  0  0  0  0  0  0  0
   -0.7086    1.9972   13.7876 C   0  0  0  0  0  0  0  0  0  0  0  0
    2.5542    1.3522   14.9262 C   0  0  0  0  0  0  0  0  0  0  0  0
    1.9645    2.2977   15.7475 C   0  0  0  0  0  0  0  0  0  0  0  0
    1.2515    1.9189   16.8892 C   0  0  0  0  0  0  0  0  0  0  0  0
    1.1357    0.5903   17.1848 C   0  0  0  0  0  0  0  0  0  0  0  0
    1.7405   -0.3531   16.4257 C   0  0  0  0  0  0  0  0  0  0  0  0
    2.4614    0.0064   15.2684 C   0  0  0  0  0  0  0  0  0  0  0  0
    4.9193    2.7935   14.1641 C   0  0  0  0  0  0  0  0  0  0  0  0
    5.1762    2.7914   15.5204 C   0  0  0  0  0  0  0  0  0  0  0  0
    6.2831    3.4815   16.0182 C   0  0  0  0  0  0  0  0  0  0  0  0
    7.1318    4.1361   15.1471 C   0  0  0  0  0  0  0  0  0  0  0  0
    6.8906    4.1458   13.8032 C   0  0  0  0  0  0  0  0  0  0  0  0
    5.8001    3.4782   13.3023 C   0  0  0  0  0  0  0  0  0  0  0  0
    4.1385    0.4282   12.6646 C   0  0  0  0  0  0  0  0  0  0  0  0
    5.4677    0.0805   12.7735 C   0  0  0  0  0  0  0  0  0  0  0  0
    5.9265   -1.0753   12.2197 C   0  0  0  0  0  0  0  0  0  0  0  0
    5.0605   -1.9253   11.5447 C   0  0  0  0  0  0  0  0  0  0  0  0
    3.7560   -1.5862   11.4140 C   0  0  0  0  0  0  0  0  0  0  0  0
    3.2835   -0.4261   11.9615 C   0  0  0  0  0  0  0  0  0  0  0  0
   -2.6885    0.9906   10.4838 C   0  0  0  0  0  0  0  0  0  0  0  0
   -3.3970    1.8201   11.3144 C   0  0  0  0  0  0  0  0  0  0  0  0
   -4.7459    2.0659   11.0905 C   0  0  0  0  0  0  0  0  0  0  0  0
   -5.3731    1.4649   10.0234 C   0  0  0  0  0  0  0  0  0  0  0  0
   -4.6423    0.6504    9.1772 C   0  0  0  0  0  0  0  0  0  0  0  0
   -3.3164    0.4185    9.4106 C   0  0  0  0  0  0  0  0  0  0  0  0
   -1.1697   -0.8468   12.0642 C   0  0  0  0  0  0  0  0  0  0  0  0
   -0.3213   -1.0603   13.1374 C   0  0  0  0  0  0  0  0  0  0  0  0
   -0.4656   -2.1679   13.9587 C   0  0  0  0  0  0  0  0  0  0  0  0
   -1.4706   -3.0500   13.7347 C   0  0  0  0  0  0  0  0  0  0  0  0
   -2.3155   -2.8880   12.6677 C   0  0  0  0  0  0  0  0  0  0  0  0
   -2.1679   -1.8073   11.8433 C   0  0  0  0  0  0  0  0  0  0  0  0
   -0.2022   -0.1234    9.4946 C   0  0  0  0  0  0  0  0  0  0  0  0
    0.5234   -1.3190    9.5599 C   0  0  0  0  0  0  0  0  0  0  0  0
    1.2063   -1.8008    8.4711 C   0  0  0  0  0  0  0  0  0  0  0  0
    1.1979   -1.1108    7.2765 C   0  0  0  0  0  0  0  0  0  0  0  0
    0.4940    0.0655    7.1676 C   0  0  0  0  0  0  0  0  0  0  0  0
   -0.2181    0.5516    8.2688 C   0  0  0  0  0  0  0  0  0  0  0  0
    0.3829    3.4396   10.0327 B   0  0  0  0  0  0  0  0  0  0  0  0
    0.9725    5.2608    9.9954 B   0  0  0  0  0  0  0  0  0  0  0  0
    1.4386    5.7481   11.7469 B   0  0  0  0  0  0  0  0  0  0  0  0
    1.2233    4.2241   12.9104 B   0  0  0  0  0  0  0  0  0  0  0  0
    1.8738    2.4480   10.6332 B   0  0  0  0  0  0  0  0  0  0  0  0
    2.0028    3.8614    9.5412 B   0  0  0  0  0  0  0  0  0  0  0  0
    2.6488    5.2630   10.5212 B   0  0  0  0  0  0  0  0  0  0  0  0
    2.8050    4.6802   12.2135 B   0  0  0  0  0  0  0  0  0  0  0  0
    2.3814    2.9631   12.2788 B   0  0  0  0  0  0  0  0  0  0  0  0
    3.2084    3.6231   10.8447 B   0  0  0  0  0  0  0  0  0  0  0  0
    2.0465    3.2196   15.5329 H   0  0  0  0  0  0  0  0  0  0  0  0
    0.8543    2.5746   17.4492 H   0  0  0  0  0  0  0  0  0  0  0  0
    0.6204    0.3241   17.9376 H   0  0  0  0  0  0  0  0  0  0  0  0
    1.6773   -1.2674   16.6746 H   0  0  0  0  0  0  0  0  0  0  0  0
    2.8785   -0.6589   14.7334 H   0  0  0  0  0  0  0  0  0  0  0  0
    4.6005    2.3224   16.1146 H   0  0  0  0  0  0  0  0  0  0  0  0
    6.4535    3.4997   16.9514 H   0  0  0  0  0  0  0  0  0  0  0  0
    7.8950    4.5858   15.4893 H   0  0  0  0  0  0  0  0  0  0  0  0
    7.4739    4.6137   13.2183 H   0  0  0  0  0  0  0  0  0  0  0  0
    5.6388    3.4782   12.3659 H   0  0  0  0  0  0  0  0  0  0  0  0
    6.0688    0.6536   13.2339 H   0  0  0  0  0  0  0  0  0  0  0  0
    6.8463   -1.3029   12.2975 H   0  0  0  0  0  0  0  0  0  0  0  0
    5.3816   -2.7410   11.1776 H   0  0  0  0  0  0  0  0  0  0  0  0
    3.1642   -2.1582   10.9380 H   0  0  0  0  0  0  0  0  0  0  0  0
    2.3666   -0.1975   11.8620 H   0  0  0  0  0  0  0  0  0  0  0  0
   -2.9604    2.2290   12.0548 H   0  0  0  0  0  0  0  0  0  0  0  0
   -5.2307    2.6444   11.6660 H   0  0  0  0  0  0  0  0  0  0  0  0
   -6.2986    1.6077    9.8679 H   0  0  0  0  0  0  0  0  0  0  0  0
   -5.0679    0.2490    8.4306 H   0  0  0  0  0  0  0  0  0  0  0  0
   -2.8256   -0.1449    8.8226 H   0  0  0  0  0  0  0  0  0  0  0  0
    0.3740   -0.4357   13.3117 H   0  0  0  0  0  0  0  0  0  0  0  0
    0.1407   -2.3085   14.6774 H   0  0  0  0  0  0  0  0  0  0  0  0
   -1.5914   -3.7862   14.3227 H   0  0  0  0  0  0  0  0  0  0  0  0
   -3.0018   -3.5244   12.5028 H   0  0  0  0  0  0  0  0  0  0  0  0
   -2.7558   -1.7042   11.1060 H   0  0  0  0  0  0  0  0  0  0  0  0
    0.5449   -1.8051   10.3781 H   0  0  0  0  0  0  0  0  0  0  0  0
    1.6873   -2.6165    8.5426 H   0  0  0  0  0  0  0  0  0  0  0  0
    1.6777   -1.4477    6.5298 H   0  0  0  0  0  0  0  0  0  0  0  0
    0.4928    0.5452    6.3494 H   0  0  0  0  0  0  0  0  0  0  0  0
   -0.7202    1.3522    8.1817 H   0  0  0  0  0  0  0  0  0  0  0  0
   -0.3670    3.0554    9.3577 H   0  0  0  0  0  0  0  0  0  0  0  0
    0.5422    5.9638    9.2955 H   0  0  0  0  0  0  0  0  0  0  0  0
    1.3037    6.7633   12.0891 H   0  0  0  0  0  0  0  0  0  0  0  0
    0.9814    4.3368   13.9556 H   0  0  0  0  0  0  0  0  0  0  0  0
    2.0087    1.4327   10.2909 H   0  0  0  0  0  0  0  0  0  0  0  0
    2.2447    3.7487    8.4959 H   0  0  0  0  0  0  0  0  0  0  0  0
    3.2975    6.0282   10.1230 H   0  0  0  0  0  0  0  0  0  0  0  0
    3.5548    5.0644   12.8886 H   0  0  0  0  0  0  0  0  0  0  0  0
    4.2185    3.2947   10.6549 H   0  0  0  0  0  0  0  0  0  0  0  0
  1  2  1  0  0  0  0
  2  4  1  0  0  0  0
  3  7  1  0  0  0  0
  4 25  1  0  0  0  0
  5  6  3  0  0  0  0
  6  2  1  0  0  0  0
  7  8  4  0  0  0  0
  8  9  4  0  0  0  0
  9 10  4  0  0  0  0
 10 11  4  0  0  0  0
 11 12  4  0  0  0  0
 12  7  4  0  0  0  0
 13  3  1  0  0  0  0
 14 13  4  0  0  0  0
 15 14  4  0  0  0  0
 16 15  4  0  0  0  0
 17 16  4  0  0  0  0
 18 13  4  0  0  0  0
 19  3  1  0  0  0  0
 20 19  4  0  0  0  0
 21 20  4  0  0  0  0
 22 21  4  0  0  0  0
 23 22  4  0  0  0  0
 24 19  4  0  0  0  0
 25 26  4  0  0  0  0
 26 27  4  0  0  0  0
 27 28  4  0  0  0  0
 28 29  4  0  0  0  0
 29 30  4  0  0  0  0
 30 25  4  0  0  0  0
 31  4  1  0  0  0  0
 32 31  4  0  0  0  0
 33 32  4  0  0  0  0
 34 33  4  0  0  0  0
 35 34  4  0  0  0  0
 36 31  4  0  0  0  0
 37  4  1  0  0  0  0
 38 37  4  0  0  0  0
 39 38  4  0  0  0  0
 40 39  4  0  0  0  0
 41 40  4  0  0  0  0
 42 37  4  0  0  0  0
 43  1  1  0  0  0  0
 44  1  1  0  0  0  0
 45  1  1  0  0  0  0
 46  1  1  0  0  0  0
 47  2  1  0  0  0  0
 48 43  1  0  0  0  0
 49 44  1  0  0  0  0
 50 45  1  0  0  0  0
 51  2  1  0  0  0  0
 52 47  1  0  0  0  0
 53  8  1  0  0  0  0
 54  9  1  0  0  0  0
 55 10  1  0  0  0  0
 56 11  1  0  0  0  0
 57 12  1  0  0  0  0
 58 14  1  0  0  0  0
 59 15  1  0  0  0  0
 60 16  1  0  0  0  0
 61 17  1  0  0  0  0
 62 18  1  0  0  0  0
 63 20  1  0  0  0  0
 64 21  1  0  0  0  0
 65 22  1  0  0  0  0
 66 23  1  0  0  0  0
 67 24  1  0  0  0  0
 68 26  1  0  0  0  0
 69 27  1  0  0  0  0
 70 28  1  0  0  0  0
 71 29  1  0  0  0  0
 72 30  1  0  0  0  0
 73 32  1  0  0  0  0
 74 33  1  0  0  0  0
 75 34  1  0  0  0  0
 76 35  1  0  0  0  0
 77 36  1  0  0  0  0
 78 38  1  0  0  0  0
 79 39  1  0  0  0  0
 80 40  1  0  0  0  0
 81 41  1  0  0  0  0
 82 42  1  0  0  0  0
 83 43  1  0  0  0  0
 84 44  1  0  0  0  0
 85 45  1  0  0  0  0
 86 46  1  0  0  0  0
 87 47  1  0  0  0  0
 88 48  1  0  0  0  0
 89 49  1  0  0  0  0
 90 50  1  0  0  0  0
 91 52  1  0  0  0  0
  2 43  1  0  0  0  0
  2 46  1  0  0  0  0
  3 51  1  0  0  0  0
 17 18  4  0  0  0  0
 23 24  4  0  0  0  0
 35 36  4  0  0  0  0
 41 42  4  0  0  0  0
 43 44  1  0  0  0  0
 43 47  1  0  0  0  0
 44 45  1  0  0  0  0
 44 48  1  0  0  0  0
 45 46  1  0  0  0  0
 45 49  1  0  0  0  0
 46 50  1  0  0  0  0
 46 51  1  0  0  0  0
 47 48  1  0  0  0  0
 47 51  1  0  0  0  0
 48 49  1  0  0  0  0
 48 52  1  0  0  0  0
 49 50  1  0  0  0  0
 49 52  1  0  0  0  0
 50 51  1  0  0  0  0
 50 52  1  0  0  0  0
 51 52  1  0  0  0  0
M  CHG  1   2   1
M  END
$$$$
LACYOD

From CSD data. Using bond type 'Any'. No disordered atoms. Largest molecule.
 80100  0  0  0  0  0  0  0  0999 V2000
    2.6834    4.7821    8.7460 W   0  0  0  0  0  0  0  0  0  0  0  0
    3.4937    5.1070   11.0341 C   0  0  0  0  0  0  0  0  0  0  0  0
    2.0567    6.0429   10.6159 C   0  0  0  0  0  0  0  0  0  0  0  0
    0.8365    4.9488   10.1467 B   0  0  0  0  0  0  0  0  0  0  0  0
    1.4300    3.4204   10.1026 B   0  0  0  0  0  0  0  0  0  0  0  0
    3.2418    3.4776   10.6392 B   0  0  0  0  0  0  0  0  0  0  0  0
    2.6881    5.6423   12.3164 B   0  0  0  0  0  0  0  0  0  0  0  0
    0.9451    5.5059   11.8820 B   0  0  0  0  0  0  0  0  0  0  0  0
    0.2498    3.8715   11.3802 B   0  0  0  0  0  0  0  0  0  0  0  0
    1.9184    3.0012   11.6590 B   0  0  0  0  0  0  0  0  0  0  0  0
    3.1429    3.8647   12.2467 B   0  0  0  0  0  0  0  0  0  0  0  0
    1.4587    4.3007   12.8390 B   0  0  0  0  0  0  0  0  0  0  0  0
    4.7364    5.7584   10.9412 C   0  0  0  0  0  0  0  0  0  0  0  0
    2.2441    7.4265   10.4812 C   0  0  0  0  0  0  0  0  0  0  0  0
    4.1141    3.7233    7.7819 C   0  0  0  0  0  0  0  0  0  0  0  0
    4.9583    3.0248    7.3080 O   0  0  0  0  0  0  0  0  0  0  0  0
    3.8011    6.1657    8.0049 C   0  0  0  0  0  0  0  0  0  0  0  0
    4.5433    7.0006    7.6100 O   0  0  0  0  0  0  0  0  0  0  0  0
    1.6281    5.3393    7.3754 C   0  0  0  0  0  0  0  0  0  0  0  0
    0.8740    5.8375    6.6088 O   0  0  0  0  0  0  0  0  0  0  0  0
    1.3902    2.4272    7.9283 Pt  0  0  0  0  0  0  0  0  0  0  0  0
    1.6157    2.2926    5.6634 P   0  0  0  0  0  0  0  0  0  0  0  0
    2.5770    3.6072    4.7505 C   0  0  0  0  0  0  0  0  0  0  0  0
    2.8035    3.3547    3.3892 C   0  0  0  0  0  0  0  0  0  0  0  0
    2.3817    0.7002    5.1291 C   0  0  0  0  0  0  0  0  0  0  0  0
    3.7645    0.5487    5.5101 C   0  0  0  0  0  0  0  0  0  0  0  0
    0.0372    2.2875    4.6645 C   0  0  0  0  0  0  0  0  0  0  0  0
   -0.8061    3.4961    5.0850 C   0  0  0  0  0  0  0  0  0  0  0  0
    0.4386    0.3333    8.2001 P   0  0  0  0  0  0  0  0  0  0  0  0
   -0.3338    0.1616    9.7913 C   0  0  0  0  0  0  0  0  0  0  0  0
   -1.6401    1.0689    9.9678 C   0  0  0  0  0  0  0  0  0  0  0  0
   -0.7462   -0.3838    7.0850 C   0  0  0  0  0  0  0  0  0  0  0  0
   -1.4106   -1.6984    7.3104 C   0  0  0  0  0  0  0  0  0  0  0  0
    1.7622   -1.0116    8.3813 C   0  0  0  0  0  0  0  0  0  0  0  0
    2.8729   -0.6279    9.3058 C   0  0  0  0  0  0  0  0  0  0  0  0
    0.0474    5.2602    9.4452 H   0  0  0  0  0  0  0  0  0  0  0  0
    1.0604    2.6781    9.3801 H   0  0  0  0  0  0  0  0  0  0  0  0
    4.0486    2.8211   10.2814 H   0  0  0  0  0  0  0  0  0  0  0  0
    3.0533    6.3762   13.0504 H   0  0  0  0  0  0  0  0  0  0  0  0
    0.2266    6.2011   12.3396 H   0  0  0  0  0  0  0  0  0  0  0  0
   -0.7666    3.4860   11.5498 H   0  0  0  0  0  0  0  0  0  0  0  0
    1.8426    1.9408   11.9424 H   0  0  0  0  0  0  0  0  0  0  0  0
    3.9529    3.3934   12.8228 H   0  0  0  0  0  0  0  0  0  0  0  0
    1.1033    4.1559   13.8704 H   0  0  0  0  0  0  0  0  0  0  0  0
    5.2122    5.4285   10.1769 H   0  0  0  0  0  0  0  0  0  0  0  0
    5.2488    5.5884   11.7356 H   0  0  0  0  0  0  0  0  0  0  0  0
    4.5942    6.7027   10.8459 H   0  0  0  0  0  0  0  0  0  0  0  0
    1.9580    7.7093    9.6101 H   0  0  0  0  0  0  0  0  0  0  0  0
    3.1742    7.6369   10.5974 H   0  0  0  0  0  0  0  0  0  0  0  0
    1.7279    7.8793   11.1526 H   0  0  0  0  0  0  0  0  0  0  0  0
    3.4329    3.6998    5.1756 H   0  0  0  0  0  0  0  0  0  0  0  0
    2.0889    4.4303    4.8318 H   0  0  0  0  0  0  0  0  0  0  0  0
    3.2980    4.0869    3.0129 H   0  0  0  0  0  0  0  0  0  0  0  0
    1.9597    3.2739    2.9386 H   0  0  0  0  0  0  0  0  0  0  0  0
    3.3037    2.5434    3.2823 H   0  0  0  0  0  0  0  0  0  0  0  0
    2.2900    0.6262    4.1767 H   0  0  0  0  0  0  0  0  0  0  0  0
    1.9018   -0.0151    5.5519 H   0  0  0  0  0  0  0  0  0  0  0  0
    4.0819   -0.3030    5.2011 H   0  0  0  0  0  0  0  0  0  0  0  0
    3.8772    0.6077    6.4602 H   0  0  0  0  0  0  0  0  0  0  0  0
    4.2654    1.2490    5.0850 H   0  0  0  0  0  0  0  0  0  0  0  0
   -0.4484    1.4779    4.8434 H   0  0  0  0  0  0  0  0  0  0  0  0
    0.2538    2.3330    3.7307 H   0  0  0  0  0  0  0  0  0  0  0  0
   -1.6148    3.4860    4.5669 H   0  0  0  0  0  0  0  0  0  0  0  0
   -0.3213    4.3058    4.9061 H   0  0  0  0  0  0  0  0  0  0  0  0
   -1.0235    3.4507    6.0188 H   0  0  0  0  0  0  0  0  0  0  0  0
    0.2886    0.3804   10.4882 H   0  0  0  0  0  0  0  0  0  0  0  0
   -0.6046   -0.7541    9.8796 H   0  0  0  0  0  0  0  0  0  0  0  0
   -2.0253    0.9073   10.8320 H   0  0  0  0  0  0  0  0  0  0  0  0
   -2.2822    0.8585    9.2872 H   0  0  0  0  0  0  0  0  0  0  0  0
   -1.3890    1.9930    9.8958 H   0  0  0  0  0  0  0  0  0  0  0  0
   -0.2816   -0.4747    6.2488 H   0  0  0  0  0  0  0  0  0  0  0  0
   -1.4412    0.2727    6.9944 H   0  0  0  0  0  0  0  0  0  0  0  0
   -1.9962   -1.8667    6.5693 H   0  0  0  0  0  0  0  0  0  0  0  0
   -1.9241   -1.6563    8.1211 H   0  0  0  0  0  0  0  0  0  0  0  0
   -0.7653   -2.4054    7.3754 H   0  0  0  0  0  0  0  0  0  0  0  0
    2.1426   -1.1766    7.5148 H   0  0  0  0  0  0  0  0  0  0  0  0
    1.3408   -1.8112    8.7041 H   0  0  0  0  0  0  0  0  0  0  0  0
    3.5031   -1.3516    9.3430 H   0  0  0  0  0  0  0  0  0  0  0  0
    2.5130   -0.4696   10.1816 H   0  0  0  0  0  0  0  0  0  0  0  0
    3.3148    0.1650    8.9922 H   0  0  0  0  0  0  0  0  0  0  0  0
  1  2  1  0  0  0  0
  2  3  1  0  0  0  0
  3  1  1  0  0  0  0
  4  1  1  0  0  0  0
  5  1  1  0  0  0  0
  6  1  1  0  0  0  0
  7  2  1  0  0  0  0
  8  3  1  0  0  0  0
  9  4  1  0  0  0  0
 10  5  1  0  0  0  0
 11  2  1  0  0  0  0
 12  7  1  0  0  0  0
 13  2  1  0  0  0  0
 14  3  1  0  0  0  0
 15  1  1  0  0  0  0
 16 15  3  0  0  0  0
 17  1  1  0  0  0  0
 18 17  3  0  0  0  0
 19  1  1  0  0  0  0
 20 19  3  0  0  0  0
 21  1  2  0  0  0  0
 22 21  1  0  0  0  0
 23 22  1  0  0  0  0
 24 23  1  0  0  0  0
 25 22  1  0  0  0  0
 26 25  1  0  0  0  0
 27 22  1  0  0  0  0
 28 27  1  0  0  0  0
 29 21  1  0  0  0  0
 30 29  1  0  0  0  0
 31 30  1  0  0  0  0
 32 29  1  0  0  0  0
 33 32  1  0  0  0  0
 34 29  1  0  0  0  0
 35 34  1  0  0  0  0
 36  4  1  0  0  0  0
 37  5  1  0  0  0  0
 38  6  1  0  0  0  0
 39  7  1  0  0  0  0
 40  8  1  0  0  0  0
 41  9  1  0  0  0  0
 42 10  1  0  0  0  0
 43 11  1  0  0  0  0
 44 12  1  0  0  0  0
 45 13  1  0  0  0  0
 46 13  1  0  0  0  0
 47 13  1  0  0  0  0
 48 14  1  0  0  0  0
 49 14  1  0  0  0  0
 50 14  1  0  0  0  0
 51 23  1  0  0  0  0
 52 23  1  0  0  0  0
 53 24  1  0  0  0  0
 54 24  1  0  0  0  0
 55 24  1  0  0  0  0
 56 25  1  0  0  0  0
 57 25  1  0  0  0  0
 58 26  1  0  0  0  0
 59 26  1  0  0  0  0
 60 26  1  0  0  0  0
 61 27  1  0  0  0  0
 62 27  1  0  0  0  0
 63 28  1  0  0  0  0
 64 28  1  0  0  0  0
 65 28  1  0  0  0  0
 66 30  1  0  0  0  0
 67 30  1  0  0  0  0
 68 31  1  0  0  0  0
 69 31  1  0  0  0  0
 70 31  1  0  0  0  0
 71 32  1  0  0  0  0
 72 32  1  0  0  0  0
 73 33  1  0  0  0  0
 74 33  1  0  0  0  0
 75 33  1  0  0  0  0
 76 34  1  0  0  0  0
 77 34  1  0  0  0  0
 78 35  1  0  0  0  0
 79 35  1  0  0  0  0
 80 35  1  0  0  0  0
  2  6  1  0  0  0  0
  3  4  1  0  0  0  0
  3  7  1  0  0  0  0
  4  5  1  0  0  0  0
  4  8  1  0  0  0  0
  5  6  1  0  0  0  0
  5  9  1  0  0  0  0
  5 21  1  0  0  0  0
  6 10  1  0  0  0  0
  6 11  1  0  0  0  0
  7  8  1  0  0  0  0
  7 11  1  0  0  0  0
  8  9  1  0  0  0  0
  8 12  1  0  0  0  0
  9 10  1  0  0  0  0
  9 12  1  0  0  0  0
 10 11  1  0  0  0  0
 10 12  1  0  0  0  0
 11 12  1  0  0  0  0
 21 37  1  0  0  0  0
M  END
$$$$
LAKXAX

From CSD data. Using bond type 'Any'. No disordered atoms. Largest molecule.
 90116  0  0  0  0  0  0  0  0999 V2000
    1.2305   -2.6283   14.2259 Mn  0  0  0  0  0  0  0  0  0  0  0  0
    0.8151   -4.6534   14.4316 C   0  0  0  0  0  0  0  0  0  0  0  0
    0.2381   -5.4934   13.3352 C   0  0  0  0  0  0  0  0  0  0  0  0
   -1.1342   -5.7595   13.2751 C   0  0  0  0  0  0  0  0  0  0  0  0
   -1.6999   -5.3842   13.9114 H   0  0  0  0  0  0  0  0  0  0  0  0
   -1.6627   -6.5711   12.2887 C   0  0  0  0  0  0  0  0  0  0  0  0
   -2.5780   -6.7407   12.2727 H   0  0  0  0  0  0  0  0  0  0  0  0
   -0.8447   -7.1325   11.3284 C   0  0  0  0  0  0  0  0  0  0  0  0
   -1.2049   -7.6708   10.6601 H   0  0  0  0  0  0  0  0  0  0  0  0
    0.5167   -6.8824   11.3664 C   0  0  0  0  0  0  0  0  0  0  0  0
    1.0752   -7.2628   10.7281 H   0  0  0  0  0  0  0  0  0  0  0  0
    1.0534   -6.0700   12.3548 C   0  0  0  0  0  0  0  0  0  0  0  0
    1.9688   -5.9061   12.3648 H   0  0  0  0  0  0  0  0  0  0  0  0
    2.3713   -4.5648   14.7717 B   0  0  0  0  0  0  0  0  0  0  0  0
    3.0745   -5.0335   14.0674 H   0  0  0  0  0  0  0  0  0  0  0  0
    3.0494   -3.1314   15.6861 B   0  0  0  0  0  0  0  0  0  0  0  0
    4.1010   -2.8906   15.4680 H   0  0  0  0  0  0  0  0  0  0  0  0
    2.0392   -1.7751   16.0922 B   0  0  0  0  0  0  0  0  0  0  0  0
    2.6923   -0.9080   16.2723 H   0  0  0  0  0  0  0  0  0  0  0  0
    0.5781   -2.5313   16.6024 B   0  0  0  0  0  0  0  0  0  0  0  0
   -0.1577   -2.0321   17.1266 H   0  0  0  0  0  0  0  0  0  0  0  0
   -0.0398   -4.0332   15.6380 B   0  0  0  0  0  0  0  0  0  0  0  0
   -1.1349   -4.1005   15.5740 H   0  0  0  0  0  0  0  0  0  0  0  0
    1.1575   -5.3948   15.8861 B   0  0  0  0  0  0  0  0  0  0  0  0
    0.9850   -6.4642   16.0762 H   0  0  0  0  0  0  0  0  0  0  0  0
    2.5667   -4.5883   16.5784 B   0  0  0  0  0  0  0  0  0  0  0  0
    3.3240   -5.2153   17.0726 H   0  0  0  0  0  0  0  0  0  0  0  0
    2.1923   -3.0392   17.2927 B   0  0  0  0  0  0  0  0  0  0  0  0
    2.6085   -2.7917   18.2811 H   0  0  0  0  0  0  0  0  0  0  0  0
    0.8938   -4.2175   17.1706 B   0  0  0  0  0  0  0  0  0  0  0  0
    0.4130   -4.5757   18.0930 H   0  0  0  0  0  0  0  0  0  0  0  0
   -0.4463   -2.4025   13.5032 C   0  0  0  0  0  0  0  0  0  0  0  0
   -1.4818   -2.3525   13.0392 O   0  0  0  0  0  0  0  0  0  0  0  0
    1.9302   -3.0371   12.5829 C   0  0  0  0  0  0  0  0  0  0  0  0
    2.3731   -3.2447   11.5613 O   0  0  0  0  0  0  0  0  0  0  0  0
    1.9813   -1.0038   13.7873 C   0  0  0  0  0  0  0  0  0  0  0  0
    2.5461   -0.1059   13.3594 O   0  0  0  0  0  0  0  0  0  0  0  0
    0.2965   -0.4760   15.4854 Pd  0  0  0  0  0  0  0  0  0  0  0  0
    0.1344    1.0802   17.1340 P   0  0  0  0  0  0  0  0  0  0  0  0
   -1.2680    2.1958   16.7285 C   0  0  0  0  0  0  0  0  0  0  0  0
   -2.1128    1.7547   16.9065 H   0  0  0  0  0  0  0  0  0  0  0  0
   -1.2215    3.0047   17.2607 H   0  0  0  0  0  0  0  0  0  0  0  0
    1.5583    2.2231   17.1906 C   0  0  0  0  0  0  0  0  0  0  0  0
    1.5598    3.2067   18.1530 C   0  0  0  0  0  0  0  0  0  0  0  0
    0.8632    3.2577   18.7673 H   0  0  0  0  0  0  0  0  0  0  0  0
    2.6052    4.1270   18.2070 C   0  0  0  0  0  0  0  0  0  0  0  0
    2.6111    4.7905   18.8573 H   0  0  0  0  0  0  0  0  0  0  0  0
    3.6343    4.0469   17.2847 C   0  0  0  0  0  0  0  0  0  0  0  0
    4.3382    4.6527   17.3247 H   0  0  0  0  0  0  0  0  0  0  0  0
    3.6234    3.0860   16.3163 C   0  0  0  0  0  0  0  0  0  0  0  0
    4.3110    3.0433   15.6921 H   0  0  0  0  0  0  0  0  0  0  0  0
    2.5793    2.1703   16.2703 C   0  0  0  0  0  0  0  0  0  0  0  0
    2.5705    1.5161   15.6100 H   0  0  0  0  0  0  0  0  0  0  0  0
   -0.0916    0.4665   18.8193 C   0  0  0  0  0  0  0  0  0  0  0  0
   -1.3534    0.3381   19.3595 C   0  0  0  0  0  0  0  0  0  0  0  0
   -2.1010    0.6154   18.8793 H   0  0  0  0  0  0  0  0  0  0  0  0
   -1.4998   -0.2106   20.6380 C   0  0  0  0  0  0  0  0  0  0  0  0
   -2.3494   -0.3018   21.0061 H   0  0  0  0  0  0  0  0  0  0  0  0
   -0.4130   -0.6145   21.3462 C   0  0  0  0  0  0  0  0  0  0  0  0
   -0.5187   -0.9667   22.2006 H   0  0  0  0  0  0  0  0  0  0  0  0
    0.8326   -0.5007   20.8040 C   0  0  0  0  0  0  0  0  0  0  0  0
    1.5751   -0.7787   21.2922 H   0  0  0  0  0  0  0  0  0  0  0  0
    1.0028    0.0290   19.5255 C   0  0  0  0  0  0  0  0  0  0  0  0
    1.8530    0.0857   19.1534 H   0  0  0  0  0  0  0  0  0  0  0  0
   -1.0926    0.9203   14.3567 P   0  0  0  0  0  0  0  0  0  0  0  0
   -1.1441    2.5291   15.2439 C   0  0  0  0  0  0  0  0  0  0  0  0
   -0.3328    3.0347   15.0758 H   0  0  0  0  0  0  0  0  0  0  0  0
   -1.9044    3.0554   14.9478 H   0  0  0  0  0  0  0  0  0  0  0  0
   -2.8185    0.3550   14.4916 C   0  0  0  0  0  0  0  0  0  0  0  0
   -3.8408    1.1106   13.9154 C   0  0  0  0  0  0  0  0  0  0  0  0
   -3.6395    1.8635   13.4072 H   0  0  0  0  0  0  0  0  0  0  0  0
   -5.1548    0.7306   14.1075 C   0  0  0  0  0  0  0  0  0  0  0  0
   -5.8400    1.2277   13.7233 H   0  0  0  0  0  0  0  0  0  0  0  0
   -5.4540   -0.3652   14.8557 C   0  0  0  0  0  0  0  0  0  0  0  0
   -6.3433   -0.6029   14.9898 H   0  0  0  0  0  0  0  0  0  0  0  0
   -4.4448   -1.1292   15.4180 C   0  0  0  0  0  0  0  0  0  0  0  0
   -4.6555   -1.8855   15.9182 H   0  0  0  0  0  0  0  0  0  0  0  0
   -3.1203   -0.7625   15.2339 C   0  0  0  0  0  0  0  0  0  0  0  0
   -2.4387   -1.2696   15.6120 H   0  0  0  0  0  0  0  0  0  0  0  0
   -0.7615    1.3029   12.6189 C   0  0  0  0  0  0  0  0  0  0  0  0
    0.2688    2.1689   12.3148 C   0  0  0  0  0  0  0  0  0  0  0  0
    0.7515    2.5740   12.9970 H   0  0  0  0  0  0  0  0  0  0  0  0
    0.5880    2.4389   10.9862 C   0  0  0  0  0  0  0  0  0  0  0  0
    1.2844    3.0225   10.7842 H   0  0  0  0  0  0  0  0  0  0  0  0
   -0.1211    1.8450    9.9739 C   0  0  0  0  0  0  0  0  0  0  0  0
    0.0827    2.0364    9.0875 H   0  0  0  0  0  0  0  0  0  0  0  0
   -1.1416    0.9583   10.2740 C   0  0  0  0  0  0  0  0  0  0  0  0
   -1.6205    0.5502    9.5897 H   0  0  0  0  0  0  0  0  0  0  0  0
   -1.4496    0.6807   11.5925 C   0  0  0  0  0  0  0  0  0  0  0  0
   -2.1239    0.0710   11.7906 H   0  0  0  0  0  0  0  0  0  0  0  0
  1  2  1  0  0  0  0
  2  3  1  0  0  0  0
  3  4  4  0  0  0  0
  4  5  1  0  0  0  0
  6  4  4  0  0  0  0
  7  6  1  0  0  0  0
  8  6  4  0  0  0  0
  9  8  1  0  0  0  0
 10  8  4  0  0  0  0
 11 10  1  0  0  0  0
 12  3  4  0  0  0  0
 13 12  1  0  0  0  0
 14  1  1  0  0  0  0
 15 14  1  0  0  0  0
 16  1  1  0  0  0  0
 17 16  1  0  0  0  0
 18  1  1  0  0  0  0
 19 18  1  0  0  0  0
 20  1  1  0  0  0  0
 21 20  1  0  0  0  0
 22  1  1  0  0  0  0
 23 22  1  0  0  0  0
 24  2  1  0  0  0  0
 25 24  1  0  0  0  0
 26 14  1  0  0  0  0
 27 26  1  0  0  0  0
 28 16  1  0  0  0  0
 29 28  1  0  0  0  0
 30 20  1  0  0  0  0
 31 30  1  0  0  0  0
 32  1  1  0  0  0  0
 33 32  3  0  0  0  0
 34  1  1  0  0  0  0
 35 34  3  0  0  0  0
 36  1  1  0  0  0  0
 37 36  3  0  0  0  0
 38  1  1  0  0  0  0
 39 38  1  0  0  0  0
 40 39  1  0  0  0  0
 41 40  1  0  0  0  0
 42 40  1  0  0  0  0
 43 39  1  0  0  0  0
 44 43  4  0  0  0  0
 45 44  1  0  0  0  0
 46 44  4  0  0  0  0
 47 46  1  0  0  0  0
 48 46  4  0  0  0  0
 49 48  1  0  0  0  0
 50 48  4  0  0  0  0
 51 50  1  0  0  0  0
 52 43  4  0  0  0  0
 53 52  1  0  0  0  0
 54 39  1  0  0  0  0
 55 54  4  0  0  0  0
 56 55  1  0  0  0  0
 57 55  4  0  0  0  0
 58 57  1  0  0  0  0
 59 57  4  0  0  0  0
 60 59  1  0  0  0  0
 61 59  4  0  0  0  0
 62 61  1  0  0  0  0
 63 54  4  0  0  0  0
 64 63  1  0  0  0  0
 65 38  1  0  0  0  0
 66 40  1  0  0  0  0
 67 66  1  0  0  0  0
 68 66  1  0  0  0  0
 69 65  1  0  0  0  0
 70 69  4  0  0  0  0
 71 70  1  0  0  0  0
 72 70  4  0  0  0  0
 73 72  1  0  0  0  0
 74 72  4  0  0  0  0
 75 74  1  0  0  0  0
 76 74  4  0  0  0  0
 77 76  1  0  0  0  0
 78 69  4  0  0  0  0
 79 78  1  0  0  0  0
 80 65  1  0  0  0  0
 81 80  4  0  0  0  0
 82 81  1  0  0  0  0
 83 81  4  0  0  0  0
 84 83  1  0  0  0  0
 85 83  4  0  0  0  0
 86 85  1  0  0  0  0
 87 85  4  0  0  0  0
 88 87  1  0  0  0  0
 89 80  4  0  0  0  0
 90 89  1  0  0  0  0
  2 14  1  0  0  0  0
  2 22  1  0  0  0  0
 10 12  4  0  0  0  0
 14 16  1  0  0  0  0
 14 24  1  0  0  0  0
 16 18  1  0  0  0  0
 16 26  1  0  0  0  0
 18 20  1  0  0  0  0
 18 28  1  0  0  0  0
 18 38  1  0  0  0  0
 19 38  1  0  0  0  0
 20 22  1  0  0  0  0
 20 28  1  0  0  0  0
 20 38  1  0  0  0  0
 21 38  1  0  0  0  0
 22 24  1  0  0  0  0
 22 30  1  0  0  0  0
 24 26  1  0  0  0  0
 24 30  1  0  0  0  0
 26 28  1  0  0  0  0
 26 30  1  0  0  0  0
 28 30  1  0  0  0  0
 50 52  4  0  0  0  0
 61 63  4  0  0  0  0
 65 66  1  0  0  0  0
 76 78  4  0  0  0  0
 87 89  4  0  0  0  0
M  END
$$$$
LAKXEB

From CSD data. Using bond type 'Any'. No disordered atoms. Largest molecule.
 90115  0  0  0  0  0  0  0  0999 V2000
   -4.1874    1.6568   20.5022 Mn  0  0  0  0  0  0  0  0  0  0  0  0
   -2.5918    0.6251   21.3548 C   0  0  0  0  0  0  0  0  0  0  0  0
   -5.5455    2.3886   22.0006 B   0  0  0  0  0  0  0  0  0  0  0  0
   -6.5625    2.9525   21.9740 H   0  0  0  0  0  0  0  0  0  0  0  0
   -3.8481   -0.2134   21.8219 B   0  0  0  0  0  0  0  0  0  0  0  0
   -3.9730   -1.2407   21.5494 H   0  0  0  0  0  0  0  0  0  0  0  0
   -2.4953    1.9806   22.1775 B   0  0  0  0  0  0  0  0  0  0  0  0
   -1.4871    2.6116   22.1156 H   0  0  0  0  0  0  0  0  0  0  0  0
   -4.0320    2.8147   22.5738 B   0  0  0  0  0  0  0  0  0  0  0  0
   -3.8866    3.8462   22.9117 H   0  0  0  0  0  0  0  0  0  0  0  0
   -5.4363    0.6858   22.2288 B   0  0  0  0  0  0  0  0  0  0  0  0
   -6.2918    0.1745   22.1156 H   0  0  0  0  0  0  0  0  0  0  0  0
   -2.6134    0.3577   23.0108 B   0  0  0  0  0  0  0  0  0  0  0  0
   -1.8720   -0.2303   23.4779 H   0  0  0  0  0  0  0  0  0  0  0  0
   -5.0775    1.7511   23.6194 B   0  0  0  0  0  0  0  0  0  0  0  0
   -5.7237    2.1354   24.3979 H   0  0  0  0  0  0  0  0  0  0  0  0
   -4.2823    0.2220   23.5168 B   0  0  0  0  0  0  0  0  0  0  0  0
   -4.4853   -0.4790   24.2563 H   0  0  0  0  0  0  0  0  0  0  0  0
   -3.3389    1.7368   23.7928 B   0  0  0  0  0  0  0  0  0  0  0  0
   -2.8846    2.1593   24.6810 H   0  0  0  0  0  0  0  0  0  0  0  0
   -2.9325    2.3399   19.3856 C   0  0  0  0  0  0  0  0  0  0  0  0
   -2.1627    2.7985   18.6673 O   0  0  0  0  0  0  0  0  0  0  0  0
   -5.3493    2.7116   19.6457 C   0  0  0  0  0  0  0  0  0  0  0  0
   -6.0659    3.3232   18.9787 O   0  0  0  0  0  0  0  0  0  0  0  0
   -4.7837    0.3760   19.4033 C   0  0  0  0  0  0  0  0  0  0  0  0
   -5.2389   -0.4459   18.7434 O   0  0  0  0  0  0  0  0  0  0  0  0
   -1.4168    0.0963   20.5869 C   0  0  0  0  0  0  0  0  0  0  0  0
   -0.1273    0.3652   20.9885 C   0  0  0  0  0  0  0  0  0  0  0  0
    0.0163    0.8896   21.7670 H   0  0  0  0  0  0  0  0  0  0  0  0
    0.9730   -0.1135   20.2808 C   0  0  0  0  0  0  0  0  0  0  0  0
    1.8501    0.0892   20.5852 H   0  0  0  0  0  0  0  0  0  0  0  0
    0.8039   -0.8756   19.1503 C   0  0  0  0  0  0  0  0  0  0  0  0
    1.5544   -1.2023   18.6673 H   0  0  0  0  0  0  0  0  0  0  0  0
   -0.5003   -1.1584   18.7257 C   0  0  0  0  0  0  0  0  0  0  0  0
   -0.6371   -1.6751   17.9401 H   0  0  0  0  0  0  0  0  0  0  0  0
   -1.5913   -0.6907   19.4369 C   0  0  0  0  0  0  0  0  0  0  0  0
   -2.4700   -0.9059   19.1450 H   0  0  0  0  0  0  0  0  0  0  0  0
   -5.1670    4.6937   22.3661 Pt  0  0  0  0  0  0  0  0  0  0  0  0
   -4.3290    6.7383   22.7065 P   0  0  0  0  0  0  0  0  0  0  0  0
   -5.5797    8.0105   22.3544 C   0  0  0  0  0  0  0  0  0  0  0  0
   -6.0760    8.2331   23.1824 H   0  0  0  0  0  0  0  0  0  0  0  0
   -5.1397    8.8344   22.0253 H   0  0  0  0  0  0  0  0  0  0  0  0
   -6.5394    7.4811   21.3035 C   0  0  0  0  0  0  0  0  0  0  0  0
   -6.0938    7.4578   20.4188 H   0  0  0  0  0  0  0  0  0  0  0  0
   -7.3309    8.0723   21.2380 H   0  0  0  0  0  0  0  0  0  0  0  0
   -2.9558    7.0196   21.5547 C   0  0  0  0  0  0  0  0  0  0  0  0
   -2.6370    6.0518   20.5958 C   0  0  0  0  0  0  0  0  0  0  0  0
   -3.1408    5.2481   20.5409 H   0  0  0  0  0  0  0  0  0  0  0  0
   -1.5803    6.2718   19.7271 C   0  0  0  0  0  0  0  0  0  0  0  0
   -1.3711    5.6241   19.0636 H   0  0  0  0  0  0  0  0  0  0  0  0
   -0.8336    7.4209   19.8173 C   0  0  0  0  0  0  0  0  0  0  0  0
   -0.1039    7.5583   19.2264 H   0  0  0  0  0  0  0  0  0  0  0  0
   -1.1366    8.3736   20.7603 C   0  0  0  0  0  0  0  0  0  0  0  0
   -0.6172    9.1663   20.8187 H   0  0  0  0  0  0  0  0  0  0  0  0
   -2.1912    8.1773   21.6202 C   0  0  0  0  0  0  0  0  0  0  0  0
   -2.3999    8.8420   22.2677 H   0  0  0  0  0  0  0  0  0  0  0  0
   -3.6727    7.0991   24.3430 C   0  0  0  0  0  0  0  0  0  0  0  0
   -3.6569    8.4386   24.7960 C   0  0  0  0  0  0  0  0  0  0  0  0
   -4.0195    9.1293   24.2563 H   0  0  0  0  0  0  0  0  0  0  0  0
   -3.1060    8.7354   26.0344 C   0  0  0  0  0  0  0  0  0  0  0  0
   -3.0953    9.6334   26.3440 H   0  0  0  0  0  0  0  0  0  0  0  0
   -2.5836    7.7479   26.8058 C   0  0  0  0  0  0  0  0  0  0  0  0
   -2.1781    7.9660   27.6374 H   0  0  0  0  0  0  0  0  0  0  0  0
   -2.6334    6.4402   26.4007 C   0  0  0  0  0  0  0  0  0  0  0  0
   -2.3005    5.7529   26.9651 H   0  0  0  0  0  0  0  0  0  0  0  0
   -3.1733    6.1223   25.1551 C   0  0  0  0  0  0  0  0  0  0  0  0
   -3.1943    5.2162   24.8685 H   0  0  0  0  0  0  0  0  0  0  0  0
   -7.0532    5.8040   21.7877 P   0  0  0  0  0  0  0  0  0  0  0  0
   -8.1354    5.9904   23.2319 C   0  0  0  0  0  0  0  0  0  0  0  0
   -7.8282    5.3440   24.4138 C   0  0  0  0  0  0  0  0  0  0  0  0
   -7.0625    4.7825   24.4616 H   0  0  0  0  0  0  0  0  0  0  0  0
   -8.6280    5.5127   25.5231 C   0  0  0  0  0  0  0  0  0  0  0  0
   -8.4241    5.0536   26.3299 H   0  0  0  0  0  0  0  0  0  0  0  0
   -9.7176    6.3416   25.4665 C   0  0  0  0  0  0  0  0  0  0  0  0
  -10.2554    6.4684   26.2397 H   0  0  0  0  0  0  0  0  0  0  0  0
  -10.0378    6.9929   24.2900 C   0  0  0  0  0  0  0  0  0  0  0  0
  -10.7980    7.5617   24.2546 H   0  0  0  0  0  0  0  0  0  0  0  0
   -9.2552    6.8160   23.1753 C   0  0  0  0  0  0  0  0  0  0  0  0
   -9.4778    7.2580   22.3632 H   0  0  0  0  0  0  0  0  0  0  0  0
   -8.0914    5.1951   20.4330 C   0  0  0  0  0  0  0  0  0  0  0  0
   -8.0419    5.7697   19.1574 C   0  0  0  0  0  0  0  0  0  0  0  0
   -7.4783    6.5169   18.9928 H   0  0  0  0  0  0  0  0  0  0  0  0
   -8.8134    5.2476   18.1365 C   0  0  0  0  0  0  0  0  0  0  0  0
   -8.7918    5.6435   17.2731 H   0  0  0  0  0  0  0  0  0  0  0  0
   -9.6128    4.1558   18.3718 C   0  0  0  0  0  0  0  0  0  0  0  0
  -10.1289    3.7901   17.6624 H   0  0  0  0  0  0  0  0  0  0  0  0
   -9.6756    3.5816   19.6315 C   0  0  0  0  0  0  0  0  0  0  0  0
  -10.2491    2.8404   19.7908 H   0  0  0  0  0  0  0  0  0  0  0  0
   -8.9000    4.0904   20.6595 C   0  0  0  0  0  0  0  0  0  0  0  0
   -8.9216    3.6846   21.5193 H   0  0  0  0  0  0  0  0  0  0  0  0
  1  2  1  0  0  0  0
  2  5  1  0  0  0  0
  3  1  1  0  0  0  0
  4  3  1  0  0  0  0
  5  1  1  0  0  0  0
  6  5  1  0  0  0  0
  7  1  1  0  0  0  0
  8  7  1  0  0  0  0
  9  1  1  0  0  0  0
 10  9  1  0  0  0  0
 11  1  1  0  0  0  0
 12 11  1  0  0  0  0
 13  2  1  0  0  0  0
 14 13  1  0  0  0  0
 15  3  1  0  0  0  0
 16 15  1  0  0  0  0
 17  5  1  0  0  0  0
 18 17  1  0  0  0  0
 19  7  1  0  0  0  0
 20 19  1  0  0  0  0
 21  1  1  0  0  0  0
 22 21  3  0  0  0  0
 23  1  1  0  0  0  0
 24 23  3  0  0  0  0
 25  1  1  0  0  0  0
 26 25  3  0  0  0  0
 27  2  1  0  0  0  0
 28 27  4  0  0  0  0
 29 28  1  0  0  0  0
 30 28  4  0  0  0  0
 31 30  1  0  0  0  0
 32 30  4  0  0  0  0
 33 32  1  0  0  0  0
 34 32  4  0  0  0  0
 35 34  1  0  0  0  0
 36 27  4  0  0  0  0
 37 36  1  0  0  0  0
 38  3  1  0  0  0  0
 39 38  1  0  0  0  0
 40 39  1  0  0  0  0
 41 40  1  0  0  0  0
 42 40  1  0  0  0  0
 43 40  1  0  0  0  0
 44 43  1  0  0  0  0
 45 43  1  0  0  0  0
 46 39  1  0  0  0  0
 47 46  4  0  0  0  0
 48 47  1  0  0  0  0
 49 47  4  0  0  0  0
 50 49  1  0  0  0  0
 51 49  4  0  0  0  0
 52 51  1  0  0  0  0
 53 51  4  0  0  0  0
 54 53  1  0  0  0  0
 55 46  4  0  0  0  0
 56 55  1  0  0  0  0
 57 39  1  0  0  0  0
 58 57  4  0  0  0  0
 59 58  1  0  0  0  0
 60 58  4  0  0  0  0
 61 60  1  0  0  0  0
 62 60  4  0  0  0  0
 63 62  1  0  0  0  0
 64 62  4  0  0  0  0
 65 64  1  0  0  0  0
 66 57  4  0  0  0  0
 67 66  1  0  0  0  0
 68 38  1  0  0  0  0
 69 68  1  0  0  0  0
 70 69  4  0  0  0  0
 71 70  1  0  0  0  0
 72 70  4  0  0  0  0
 73 72  1  0  0  0  0
 74 72  4  0  0  0  0
 75 74  1  0  0  0  0
 76 74  4  0  0  0  0
 77 76  1  0  0  0  0
 78 69  4  0  0  0  0
 79 78  1  0  0  0  0
 80 68  1  0  0  0  0
 81 80  4  0  0  0  0
 82 81  1  0  0  0  0
 83 81  4  0  0  0  0
 84 83  1  0  0  0  0
 85 83  4  0  0  0  0
 86 85  1  0  0  0  0
 87 85  4  0  0  0  0
 88 87  1  0  0  0  0
 89 80  4  0  0  0  0
 90 89  1  0  0  0  0
  2  7  1  0  0  0  0
  3  9  1  0  0  0  0
  3 11  1  0  0  0  0
  4 38  1  0  0  0  0
  5 11  1  0  0  0  0
  5 13  1  0  0  0  0
  7  9  1  0  0  0  0
  7 13  1  0  0  0  0
  9 15  1  0  0  0  0
  9 19  1  0  0  0  0
  9 38  1  0  0  0  0
 10 38  1  0  0  0  0
 11 15  1  0  0  0  0
 11 17  1  0  0  0  0
 13 17  1  0  0  0  0
 13 19  1  0  0  0  0
 15 17  1  0  0  0  0
 15 19  1  0  0  0  0
 17 19  1  0  0  0  0
 34 36  4  0  0  0  0
 43 68  1  0  0  0  0
 53 55  4  0  0  0  0
 64 66  4  0  0  0  0
 76 78  4  0  0  0  0
 87 89  4  0  0  0  0
M  END
$$$$
LAKXOL

From CSD data. Using bond type 'Any'. No disordered atoms. Largest molecule.
 88112  0  0  0  0  0  0  0  0999 V2000
   -8.0092   13.0367    6.2016 Mn  0  0  0  0  0  0  0  0  0  0  0  0
  -10.0451   15.3723    4.0432 C   0  0  0  0  0  0  0  0  0  0  0  0
   -8.8349   16.4714    4.2154 B   0  0  0  0  0  0  0  0  0  0  0  0
   -8.4280   16.8723    3.1493 H   0  0  0  0  0  0  0  0  0  0  0  0
   -8.9860   14.5342    4.8863 B   0  0  0  0  0  0  0  0  0  0  0  0
   -8.7896   13.5451    4.5381 H   0  0  0  0  0  0  0  0  0  0  0  0
  -10.6212   14.9756    5.5103 B   0  0  0  0  0  0  0  0  0  0  0  0
  -11.4477   14.2583    5.6335 H   0  0  0  0  0  0  0  0  0  0  0  0
  -10.4873   16.6742    4.9450 B   0  0  0  0  0  0  0  0  0  0  0  0
  -11.2281   17.2551    4.6359 H   0  0  0  0  0  0  0  0  0  0  0  0
   -9.2222   14.8036    6.6077 B   0  0  0  0  0  0  0  0  0  0  0  0
   -9.2563   13.8629    7.1984 H   0  0  0  0  0  0  0  0  0  0  0  0
  -10.2691   16.2777    6.6840 B   0  0  0  0  0  0  0  0  0  0  0  0
  -11.0747   16.5365    7.2962 H   0  0  0  0  0  0  0  0  0  0  0  0
   -9.0556   17.3210    5.8057 B   0  0  0  0  0  0  0  0  0  0  0  0
   -9.0114   18.4237    5.7900 H   0  0  0  0  0  0  0  0  0  0  0  0
   -8.6240   16.3300    7.2317 B   0  0  0  0  0  0  0  0  0  0  0  0
   -8.3109   16.5296    8.1373 H   0  0  0  0  0  0  0  0  0  0  0  0
  -10.6485   14.9757    2.7405 C   0  0  0  0  0  0  0  0  0  0  0  0
  -10.8985   13.6558    2.4471 C   0  0  0  0  0  0  0  0  0  0  0  0
  -10.7327   12.9842    3.0985 H   0  0  0  0  0  0  0  0  0  0  0  0
  -11.4016   13.2976    1.1795 C   0  0  0  0  0  0  0  0  0  0  0  0
  -11.5542   12.3829    0.9741 H   0  0  0  0  0  0  0  0  0  0  0  0
  -11.6692   14.2523    0.2543 C   0  0  0  0  0  0  0  0  0  0  0  0
  -12.0083   14.0071   -0.6005 H   0  0  0  0  0  0  0  0  0  0  0  0
  -11.4500   15.5770    0.5536 C   0  0  0  0  0  0  0  0  0  0  0  0
  -11.6518   16.2445   -0.0919 H   0  0  0  0  0  0  0  0  0  0  0  0
  -10.9387   15.9507    1.7840 C   0  0  0  0  0  0  0  0  0  0  0  0
  -10.7861   16.8679    1.9757 H   0  0  0  0  0  0  0  0  0  0  0  0
   -6.5719   12.3655    5.3675 C   0  0  0  0  0  0  0  0  0  0  0  0
   -5.6543   11.8591    4.9176 O   0  0  0  0  0  0  0  0  0  0  0  0
   -8.7979   11.4237    6.1715 C   0  0  0  0  0  0  0  0  0  0  0  0
   -9.2376   10.3806    6.1500 O   0  0  0  0  0  0  0  0  0  0  0  0
   -7.2678   12.6347    7.7950 C   0  0  0  0  0  0  0  0  0  0  0  0
   -6.8501   12.3099    8.8044 O   0  0  0  0  0  0  0  0  0  0  0  0
   -7.2922   15.7047    5.6951 Pt  0  0  0  0  0  0  0  0  0  0  0  0
   -5.7581   15.5646    3.9654 P   0  0  0  0  0  0  0  0  0  0  0  0
   -4.1156   15.2612    4.7024 C   0  0  0  0  0  0  0  0  0  0  0  0
   -4.0436   14.3203    5.0017 H   0  0  0  0  0  0  0  0  0  0  0  0
   -3.4037   15.4336    4.0354 H   0  0  0  0  0  0  0  0  0  0  0  0
   -3.9607   16.2153    5.9035 C   0  0  0  0  0  0  0  0  0  0  0  0
   -3.8328   17.1390    5.5729 H   0  0  0  0  0  0  0  0  0  0  0  0
   -3.1540   15.9626    6.4199 H   0  0  0  0  0  0  0  0  0  0  0  0
   -5.4502   17.1278    3.0672 C   0  0  0  0  0  0  0  0  0  0  0  0
   -5.8731   18.3295    3.6051 C   0  0  0  0  0  0  0  0  0  0  0  0
   -6.4191   18.3366    4.3836 H   0  0  0  0  0  0  0  0  0  0  0  0
   -5.4971   19.5301    3.0085 C   0  0  0  0  0  0  0  0  0  0  0  0
   -5.7820   20.3583    3.3782 H   0  0  0  0  0  0  0  0  0  0  0  0
   -4.7064   19.5084    1.8798 C   0  0  0  0  0  0  0  0  0  0  0  0
   -4.4416   20.3278    1.4788 H   0  0  0  0  0  0  0  0  0  0  0  0
   -4.2976   18.3200    1.3223 C   0  0  0  0  0  0  0  0  0  0  0  0
   -3.7668   18.3178    0.5340 H   0  0  0  0  0  0  0  0  0  0  0  0
   -4.6655   17.1226    1.9189 C   0  0  0  0  0  0  0  0  0  0  0  0
   -4.3808   16.2985    1.5434 H   0  0  0  0  0  0  0  0  0  0  0  0
   -5.9516   14.2955    2.6838 C   0  0  0  0  0  0  0  0  0  0  0  0
   -7.1807   14.1574    2.0422 C   0  0  0  0  0  0  0  0  0  0  0  0
   -7.8674   14.7938    2.2006 H   0  0  0  0  0  0  0  0  0  0  0  0
   -7.4134   13.1080    1.1795 C   0  0  0  0  0  0  0  0  0  0  0  0
   -8.2617   13.0123    0.7609 H   0  0  0  0  0  0  0  0  0  0  0  0
   -6.4082   12.1971    0.9252 C   0  0  0  0  0  0  0  0  0  0  0  0
   -6.5746   11.4596    0.3501 H   0  0  0  0  0  0  0  0  0  0  0  0
   -5.1748   12.3487    1.4945 C   0  0  0  0  0  0  0  0  0  0  0  0
   -4.4808   11.7337    1.2852 H   0  0  0  0  0  0  0  0  0  0  0  0
   -4.9282   13.3994    2.3786 C   0  0  0  0  0  0  0  0  0  0  0  0
   -4.0687   13.5034    2.7698 H   0  0  0  0  0  0  0  0  0  0  0  0
   -5.4343   16.1646    7.0134 P   0  0  0  0  0  0  0  0  0  0  0  0
   -4.9685   14.9779    8.3212 C   0  0  0  0  0  0  0  0  0  0  0  0
   -4.1287   13.9064    8.0552 C   0  0  0  0  0  0  0  0  0  0  0  0
   -3.7888   13.7834    7.1769 H   0  0  0  0  0  0  0  0  0  0  0  0
   -3.7807   13.0122    9.0548 C   0  0  0  0  0  0  0  0  0  0  0  0
   -3.2236   12.2690    8.8591 H   0  0  0  0  0  0  0  0  0  0  0  0
   -4.2512   13.2105   10.3419 C   0  0  0  0  0  0  0  0  0  0  0  0
   -4.0053   12.6132   11.0382 H   0  0  0  0  0  0  0  0  0  0  0  0
   -5.0711   14.2732   10.6079 C   0  0  0  0  0  0  0  0  0  0  0  0
   -5.3852   14.4120   11.4920 H   0  0  0  0  0  0  0  0  0  0  0  0
   -5.4504   15.1482    9.6005 C   0  0  0  0  0  0  0  0  0  0  0  0
   -6.0418   15.8660    9.7942 H   0  0  0  0  0  0  0  0  0  0  0  0
   -5.2932   17.7700    7.8694 C   0  0  0  0  0  0  0  0  0  0  0  0
   -4.1893   18.0104    8.6792 C   0  0  0  0  0  0  0  0  0  0  0  0
   -3.5349   17.3327    8.8005 H   0  0  0  0  0  0  0  0  0  0  0  0
   -4.0417   19.2361    9.3090 C   0  0  0  0  0  0  0  0  0  0  0  0
   -3.2919   19.3928    9.8704 H   0  0  0  0  0  0  0  0  0  0  0  0
   -4.9765   20.2209    9.1213 C   0  0  0  0  0  0  0  0  0  0  0  0
   -4.8690   21.0634    9.5477 H   0  0  0  0  0  0  0  0  0  0  0  0
   -6.0680   19.9899    8.3212 C   0  0  0  0  0  0  0  0  0  0  0  0
   -6.7172   20.6729    8.1960 H   0  0  0  0  0  0  0  0  0  0  0  0
   -6.2273   18.7643    7.6933 C   0  0  0  0  0  0  0  0  0  0  0  0
   -6.9833   18.6102    7.1397 H   0  0  0  0  0  0  0  0  0  0  0  0
  1  5  1  0  0  0  0
  2  3  1  0  0  0  0
  3  4  1  0  0  0  0
  5  2  1  0  0  0  0
  6  1  1  0  0  0  0
  7  2  1  0  0  0  0
  8  7  1  0  0  0  0
  9  2  1  0  0  0  0
 10  9  1  0  0  0  0
 11  1  1  0  0  0  0
 12  1  1  0  0  0  0
 13  7  1  0  0  0  0
 14 13  1  0  0  0  0
 15  3  1  0  0  0  0
 16 15  1  0  0  0  0
 17 11  1  0  0  0  0
 18 17  1  0  0  0  0
 19  2  1  0  0  0  0
 20 19  4  0  0  0  0
 21 20  1  0  0  0  0
 22 20  4  0  0  0  0
 23 22  1  0  0  0  0
 24 22  4  0  0  0  0
 25 24  1  0  0  0  0
 26 24  4  0  0  0  0
 27 26  1  0  0  0  0
 28 19  4  0  0  0  0
 29 28  1  0  0  0  0
 30  1  1  0  0  0  0
 31 30  3  0  0  0  0
 32  1  1  0  0  0  0
 33 32  3  0  0  0  0
 34  1  1  0  0  0  0
 35 34  3  0  0  0  0
 36  1  1  0  0  0  0
 37 36  1  0  0  0  0
 38 37  1  0  0  0  0
 39 38  1  0  0  0  0
 40 38  1  0  0  0  0
 41 38  1  0  0  0  0
 42 41  1  0  0  0  0
 43 41  1  0  0  0  0
 44 37  1  0  0  0  0
 45 44  4  0  0  0  0
 46 45  1  0  0  0  0
 47 45  4  0  0  0  0
 48 47  1  0  0  0  0
 49 47  4  0  0  0  0
 50 49  1  0  0  0  0
 51 49  4  0  0  0  0
 52 51  1  0  0  0  0
 53 44  4  0  0  0  0
 54 53  1  0  0  0  0
 55 37  1  0  0  0  0
 56 55  4  0  0  0  0
 57 56  1  0  0  0  0
 58 56  4  0  0  0  0
 59 58  1  0  0  0  0
 60 58  4  0  0  0  0
 61 60  1  0  0  0  0
 62 60  4  0  0  0  0
 63 62  1  0  0  0  0
 64 55  4  0  0  0  0
 65 64  1  0  0  0  0
 66 36  1  0  0  0  0
 67 66  1  0  0  0  0
 68 67  4  0  0  0  0
 69 68  1  0  0  0  0
 70 68  4  0  0  0  0
 71 70  1  0  0  0  0
 72 70  4  0  0  0  0
 73 72  1  0  0  0  0
 74 72  4  0  0  0  0
 75 74  1  0  0  0  0
 76 67  4  0  0  0  0
 77 76  1  0  0  0  0
 78 66  1  0  0  0  0
 79 78  4  0  0  0  0
 80 79  1  0  0  0  0
 81 79  4  0  0  0  0
 82 81  1  0  0  0  0
 83 81  4  0  0  0  0
 84 83  1  0  0  0  0
 85 83  4  0  0  0  0
 86 85  1  0  0  0  0
 87 78  4  0  0  0  0
 88 87  1  0  0  0  0
  3  5  1  0  0  0  0
  3  9  1  0  0  0  0
  3 36  1  0  0  0  0
  5  6  1  0  0  0  0
  5  7  1  0  0  0  0
  5 11  1  0  0  0  0
  5 36  1  0  0  0  0
  7  9  1  0  0  0  0
  7 11  1  0  0  0  0
  9 13  1  0  0  0  0
  9 15  1  0  0  0  0
 11 12  1  0  0  0  0
 11 13  1  0  0  0  0
 11 36  1  0  0  0  0
 13 15  1  0  0  0  0
 13 17  1  0  0  0  0
 15 17  1  0  0  0  0
 15 36  1  0  0  0  0
 17 36  1  0  0  0  0
 26 28  4  0  0  0  0
 41 66  1  0  0  0  0
 51 53  4  0  0  0  0
 62 64  4  0  0  0  0
 74 76  4  0  0  0  0
 85 87  4  0  0  0  0
M  END
$$$$
LAWXAI

From CSD data. Using bond type 'Any'. No disordered atoms. Largest molecule.
 61 83  0  0  0  0  0  0  0  0999 V2000
    6.5674    4.7401    2.5415 Cu  0  0  0  0  0  0  0  0  0  0  0  0
    8.6314    5.4482    2.8611 P   0  0  0  0  0  0  0  0  0  0  0  0
    7.5716    3.6892    0.6771 P   0  0  0  0  0  0  0  0  0  0  0  0
    4.8755    3.8604    4.0366 P   0  0  0  0  0  0  0  0  0  0  0  0
    5.5121    6.7550    1.9647 O   0  0  0  0  0  0  0  0  0  0  0  0
   10.6425    6.6078   -1.0781 B   0  0  0  0  0  0  0  0  0  0  0  0
   10.6757    6.7123    0.5786 B   0  0  0  0  0  0  0  0  0  0  0  0
    9.1674    6.1581    0.0781 B   0  0  0  0  0  0  0  0  0  0  0  0
    9.6874    5.2297   -1.3627 B   0  0  0  0  0  0  0  0  0  0  0  0
   11.4569    5.0786   -1.7009 B   0  0  0  0  0  0  0  0  0  0  0  0
   12.0952    6.0201   -0.4716 B   0  0  0  0  0  0  0  0  0  0  0  0
   10.4833    3.7559   -0.8880 B   0  0  0  0  0  0  0  0  0  0  0  0
   12.0782    4.2487   -0.4535 B   0  0  0  0  0  0  0  0  0  0  0  0
   11.4533    5.2223    1.0480 B   0  0  0  0  0  0  0  0  0  0  0  0
    9.8039    5.2957    1.2719 C   0  0  0  0  0  0  0  0  0  0  0  0
    9.2558    4.4393    0.1628 C   0  0  0  0  0  0  0  0  0  0  0  0
    8.9548    7.1094    3.4562 C   0  0  0  0  0  0  0  0  0  0  0  0
    7.9972    8.0946    3.4462 C   0  0  0  0  0  0  0  0  0  0  0  0
    8.2646    9.3820    3.8201 C   0  0  0  0  0  0  0  0  0  0  0  0
    9.4630    9.6814    4.2048 C   0  0  0  0  0  0  0  0  0  0  0  0
   10.3987    8.6958    4.2392 C   0  0  0  0  0  0  0  0  0  0  0  0
   10.1622    7.4028    3.8659 C   0  0  0  0  0  0  0  0  0  0  0  0
    9.2762    4.3751    4.0057 C   0  0  0  0  0  0  0  0  0  0  0  0
   10.1969    3.3471    3.6859 C   0  0  0  0  0  0  0  0  0  0  0  0
   10.5584    2.5405    4.6491 C   0  0  0  0  0  0  0  0  0  0  0  0
    9.9910    2.7661    5.9463 C   0  0  0  0  0  0  0  0  0  0  0  0
    9.0669    3.7817    6.2958 C   0  0  0  0  0  0  0  0  0  0  0  0
    8.6940    4.5798    5.3448 C   0  0  0  0  0  0  0  0  0  0  0  0
    6.7825    3.6747   -0.7452 C   0  0  0  0  0  0  0  0  0  0  0  0
    5.6502    4.4873   -0.7146 C   0  0  0  0  0  0  0  0  0  0  0  0
    5.0117    4.5212   -1.7859 C   0  0  0  0  0  0  0  0  0  0  0  0
    5.5151    3.7693   -2.8654 C   0  0  0  0  0  0  0  0  0  0  0  0
    6.6214    2.9659   -2.9108 C   0  0  0  0  0  0  0  0  0  0  0  0
    7.2586    2.8861   -1.8353 C   0  0  0  0  0  0  0  0  0  0  0  0
    7.8409    1.9168    0.9700 C   0  0  0  0  0  0  0  0  0  0  0  0
    6.7171    1.0767    1.1010 C   0  0  0  0  0  0  0  0  0  0  0  0
    6.8258   -0.2482    1.4476 C   0  0  0  0  0  0  0  0  0  0  0  0
    8.0425   -0.7385    1.6987 C   0  0  0  0  0  0  0  0  0  0  0  0
    9.1638    0.0681    1.5438 C   0  0  0  0  0  0  0  0  0  0  0  0
    9.0748    1.4092    1.1784 C   0  0  0  0  0  0  0  0  0  0  0  0
    5.5495    2.9006    5.2361 C   0  0  0  0  0  0  0  0  0  0  0  0
    6.4635    1.8861    4.7690 C   0  0  0  0  0  0  0  0  0  0  0  0
    6.9823    1.0657    5.6220 C   0  0  0  0  0  0  0  0  0  0  0  0
    6.6069    1.2916    6.9564 C   0  0  0  0  0  0  0  0  0  0  0  0
    5.7507    2.3051    7.4124 C   0  0  0  0  0  0  0  0  0  0  0  0
    5.1757    3.1258    6.5679 C   0  0  0  0  0  0  0  0  0  0  0  0
    3.7232    5.0719    4.9640 C   0  0  0  0  0  0  0  0  0  0  0  0
    2.3136    4.8996    5.2836 C   0  0  0  0  0  0  0  0  0  0  0  0
    1.4924    5.9025    5.9602 C   0  0  0  0  0  0  0  0  0  0  0  0
    2.0410    7.0593    6.3157 C   0  0  0  0  0  0  0  0  0  0  0  0
    3.4407    7.2270    6.0143 C   0  0  0  0  0  0  0  0  0  0  0  0
    4.2693    6.2502    5.3108 C   0  0  0  0  0  0  0  0  0  0  0  0
    3.7823    2.6380    3.4489 C   0  0  0  0  0  0  0  0  0  0  0  0
    3.4176    1.4477    4.0780 C   0  0  0  0  0  0  0  0  0  0  0  0
    2.6824    0.4938    3.5250 C   0  0  0  0  0  0  0  0  0  0  0  0
    2.3030    0.7494    2.3791 C   0  0  0  0  0  0  0  0  0  0  0  0
    2.6394    1.9390    1.7429 C   0  0  0  0  0  0  0  0  0  0  0  0
    3.3760    2.8935    2.2784 C   0  0  0  0  0  0  0  0  0  0  0  0
    5.0690    9.0333    1.7620 C   0  0  0  0  0  0  0  0  0  0  0  0
    3.2050    7.3650    2.1387 C   0  0  0  0  0  0  0  0  0  0  0  0
    4.6752    7.6174    1.9519 C   0  0  0  0  0  0  0  0  0  0  0  0
  1  2  1  0  0  0  0
  2 15  1  0  0  0  0
  3  1  1  0  0  0  0
  4  1  1  0  0  0  0
  5  1  1  0  0  0  0
  6  7  1  0  0  0  0
  7  8  1  0  0  0  0
  8  6  1  0  0  0  0
  9  6  1  0  0  0  0
 10  6  1  0  0  0  0
 11  6  1  0  0  0  0
 12  9  1  0  0  0  0
 13 10  1  0  0  0  0
 14  7  1  0  0  0  0
 15  7  1  0  0  0  0
 16  3  1  0  0  0  0
 17  2  1  0  0  0  0
 18 17  4  0  0  0  0
 19 18  4  0  0  0  0
 20 19  4  0  0  0  0
 21 20  4  0  0  0  0
 22 17  4  0  0  0  0
 23  2  1  0  0  0  0
 24 23  4  0  0  0  0
 25 24  4  0  0  0  0
 26 25  4  0  0  0  0
 27 26  4  0  0  0  0
 28 23  4  0  0  0  0
 29  3  1  0  0  0  0
 30 29  4  0  0  0  0
 31 30  4  0  0  0  0
 32 31  4  0  0  0  0
 33 32  4  0  0  0  0
 34 29  4  0  0  0  0
 35  3  1  0  0  0  0
 36 35  4  0  0  0  0
 37 36  4  0  0  0  0
 38 37  4  0  0  0  0
 39 38  4  0  0  0  0
 40 35  4  0  0  0  0
 41  4  1  0  0  0  0
 42 41  4  0  0  0  0
 43 42  4  0  0  0  0
 44 43  4  0  0  0  0
 45 44  4  0  0  0  0
 46 41  4  0  0  0  0
 47  4  1  0  0  0  0
 48 47  4  0  0  0  0
 49 48  4  0  0  0  0
 50 49  4  0  0  0  0
 51 50  4  0  0  0  0
 52 47  4  0  0  0  0
 53  4  1  0  0  0  0
 54 53  4  0  0  0  0
 55 54  4  0  0  0  0
 56 55  4  0  0  0  0
 57 56  4  0  0  0  0
 58 53  4  0  0  0  0
 59 61  1  0  0  0  0
 60 61  1  0  0  0  0
 61  5  2  0  0  0  0
  7 11  1  0  0  0  0
  8  9  1  0  0  0  0
  8 15  1  0  0  0  0
  8 16  1  0  0  0  0
  9 10  1  0  0  0  0
  9 16  1  0  0  0  0
 10 11  1  0  0  0  0
 10 12  1  0  0  0  0
 11 13  1  0  0  0  0
 11 14  1  0  0  0  0
 12 13  1  0  0  0  0
 12 16  1  0  0  0  0
 13 14  1  0  0  0  0
 14 15  1  0  0  0  0
 15 16  1  0  0  0  0
 21 22  4  0  0  0  0
 27 28  4  0  0  0  0
 33 34  4  0  0  0  0
 39 40  4  0  0  0  0
 45 46  4  0  0  0  0
 51 52  4  0  0  0  0
 57 58  4  0  0  0  0
M  END
$$$$
LEDNEO

From CSD data. Using bond type 'Any'. No disordered atoms. Largest molecule.
 97111  0  0  0  0  0  0  0  0999 V2000
   -5.7447   -0.8485    0.4810 Ru  0  0  0  0  0  0  0  0  0  0  0  0
   -7.4203   -2.0597    1.4046 P   0  0  0  0  0  0  0  0  0  0  0  0
   -9.0576   -4.2856    1.4437 N   0  0  0  0  0  0  0  0  0  0  0  0
   -8.8816   -3.0333    3.5396 N   0  0  0  0  0  0  0  0  0  0  0  0
  -10.2258   -2.1119    1.6768 N   0  0  0  0  0  0  0  0  0  0  0  0
  -11.7620   -1.1668   -0.0677 O   0  0  0  0  0  0  0  0  0  0  0  0
  -11.4894    0.0000    2.0559 O   0  0  0  0  0  0  0  0  0  0  0  0
  -11.6995   -1.2419    1.3775 B   0  0  0  0  0  0  0  0  0  0  0  0
  -11.4894   -0.0000   -0.7276 B   0  0  0  0  0  0  0  0  0  0  0  0
   -5.7447   -2.3024   -1.4839 Cl  0  0  0  0  0  0  0  0  0  0  0  0
   -7.8094   -3.7753    0.8566 C   0  0  0  0  0  0  0  0  0  0  0  0
   -7.8864   -3.7907   -0.1302 H   0  0  0  0  0  0  0  0  0  0  0  0
   -7.0637   -4.3737    1.1114 H   0  0  0  0  0  0  0  0  0  0  0  0
   -7.6228   -2.3382    3.2198 C   0  0  0  0  0  0  0  0  0  0  0  0
   -6.8615   -2.8751    3.5534 H   0  0  0  0  0  0  0  0  0  0  0  0
   -7.6060   -1.4650    3.6858 H   0  0  0  0  0  0  0  0  0  0  0  0
   -9.0854   -1.3309    1.0999 C   0  0  0  0  0  0  0  0  0  0  0  0
   -9.1042   -0.4166    1.4814 H   0  0  0  0  0  0  0  0  0  0  0  0
   -9.2214   -1.2498    0.1234 H   0  0  0  0  0  0  0  0  0  0  0  0
   -8.9703   -4.3612    2.9092 C   0  0  0  0  0  0  0  0  0  0  0  0
   -8.1736   -4.8925    3.1582 H   0  0  0  0  0  0  0  0  0  0  0  0
   -9.7683   -4.8315    3.2564 H   0  0  0  0  0  0  0  0  0  0  0  0
  -10.0409   -2.2552    3.1696 C   0  0  0  0  0  0  0  0  0  0  0  0
   -9.9614   -1.3536    3.5693 H   0  0  0  0  0  0  0  0  0  0  0  0
  -10.8483   -2.6828    3.5522 H   0  0  0  0  0  0  0  0  0  0  0  0
  -10.2180   -3.4996    1.0748 C   0  0  0  0  0  0  0  0  0  0  0  0
  -11.0345   -3.9784    1.3649 H   0  0  0  0  0  0  0  0  0  0  0  0
  -10.2509   -3.4199    0.0879 H   0  0  0  0  0  0  0  0  0  0  0  0
   -6.4612    1.0345    1.3135 C   0  0  0  0  0  0  0  0  0  0  0  0
   -7.0499    1.1369    2.1153 H   0  0  0  0  0  0  0  0  0  0  0  0
   -6.9017    0.9813   -0.0605 C   0  0  0  0  0  0  0  0  0  0  0  0
   -7.8496    1.0103   -0.3803 H   0  0  0  0  0  0  0  0  0  0  0  0
   -5.7447    0.9416   -0.8738 C   0  0  0  0  0  0  0  0  0  0  0  0
   -5.7447    0.9080   -1.8732 H   0  0  0  0  0  0  0  0  0  0  0  0
  -12.9164   -2.1121    2.0103 C   0  0  0  0  0  0  0  0  0  0  0  0
  -13.5821   -3.1071    1.2884 C   0  0  0  0  0  0  0  0  0  0  0  0
  -13.3232   -3.2765    0.3906 H   0  0  0  0  0  0  0  0  0  0  0  0
  -14.6155   -3.8586    1.8503 C   0  0  0  0  0  0  0  0  0  0  0  0
  -15.0420   -4.5355    1.3375 H   0  0  0  0  0  0  0  0  0  0  0  0
  -15.0241   -3.6197    3.1639 C   0  0  0  0  0  0  0  0  0  0  0  0
  -15.7176   -4.1402    3.5545 H   0  0  0  0  0  0  0  0  0  0  0  0
  -14.4039   -2.6096    3.8937 C   0  0  0  0  0  0  0  0  0  0  0  0
  -14.6881   -2.4219    4.7812 H   0  0  0  0  0  0  0  0  0  0  0  0
  -13.3657   -1.8751    3.3226 C   0  0  0  0  0  0  0  0  0  0  0  0
  -12.9486   -1.1919    3.8355 H   0  0  0  0  0  0  0  0  0  0  0  0
  -11.4894   -0.0000   -2.3038 C   0  0  0  0  0  0  0  0  0  0  0  0
  -12.1398   -1.0145   -3.0245 C   0  0  0  0  0  0  0  0  0  0  0  0
  -12.5764   -1.7153   -2.5551 H   0  0  0  0  0  0  0  0  0  0  0  0
  -12.1554   -1.0093   -4.4180 C   0  0  0  0  0  0  0  0  0  0  0  0
  -12.6177   -1.6909   -4.8920 H   0  0  0  0  0  0  0  0  0  0  0  0
  -11.4894   -0.0000   -5.1147 C   0  0  0  0  0  0  0  0  0  0  0  0
  -11.4894   -0.0000   -6.0650 H   0  0  0  0  0  0  0  0  0  0  0  0
  -17.2342    0.8485    0.4810 Ru  0  0  0  0  0  0  0  0  0  0  0  0
  -15.5586    2.0597    1.4046 P   0  0  0  0  0  0  0  0  0  0  0  0
   -4.0691   -2.0597    1.4046 P   0  0  0  0  0  0  0  0  0  0  0  0
  -13.9213    4.2856    1.4437 N   0  0  0  0  0  0  0  0  0  0  0  0
  -14.0973    3.0333    3.5396 N   0  0  0  0  0  0  0  0  0  0  0  0
  -12.7531    2.1119    1.6768 N   0  0  0  0  0  0  0  0  0  0  0  0
  -11.2169    1.1668   -0.0677 O   0  0  0  0  0  0  0  0  0  0  0  0
  -11.2794    1.2419    1.3775 B   0  0  0  0  0  0  0  0  0  0  0  0
  -15.1695    3.7753    0.8566 C   0  0  0  0  0  0  0  0  0  0  0  0
  -15.0925    3.7907   -0.1302 H   0  0  0  0  0  0  0  0  0  0  0  0
  -15.9152    4.3737    1.1114 H   0  0  0  0  0  0  0  0  0  0  0  0
  -15.3561    2.3382    3.2198 C   0  0  0  0  0  0  0  0  0  0  0  0
  -16.1174    2.8751    3.5534 H   0  0  0  0  0  0  0  0  0  0  0  0
  -15.3729    1.4650    3.6858 H   0  0  0  0  0  0  0  0  0  0  0  0
  -13.8935    1.3309    1.0999 C   0  0  0  0  0  0  0  0  0  0  0  0
  -13.8747    0.4166    1.4814 H   0  0  0  0  0  0  0  0  0  0  0  0
  -13.7575    1.2498    0.1234 H   0  0  0  0  0  0  0  0  0  0  0  0
  -14.0086    4.3612    2.9092 C   0  0  0  0  0  0  0  0  0  0  0  0
  -14.8053    4.8925    3.1582 H   0  0  0  0  0  0  0  0  0  0  0  0
  -13.2106    4.8315    3.2564 H   0  0  0  0  0  0  0  0  0  0  0  0
  -12.9380    2.2552    3.1696 C   0  0  0  0  0  0  0  0  0  0  0  0
  -13.0175    1.3536    3.5693 H   0  0  0  0  0  0  0  0  0  0  0  0
  -12.1306    2.6828    3.5522 H   0  0  0  0  0  0  0  0  0  0  0  0
  -12.7609    3.4996    1.0748 C   0  0  0  0  0  0  0  0  0  0  0  0
  -11.9444    3.9784    1.3649 H   0  0  0  0  0  0  0  0  0  0  0  0
  -12.7280    3.4199    0.0879 H   0  0  0  0  0  0  0  0  0  0  0  0
   -5.0282    1.0345    1.3135 C   0  0  0  0  0  0  0  0  0  0  0  0
   -4.4395    1.1369    2.1153 H   0  0  0  0  0  0  0  0  0  0  0  0
   -4.5877    0.9813   -0.0605 C   0  0  0  0  0  0  0  0  0  0  0  0
   -3.6399    1.0103   -0.3803 H   0  0  0  0  0  0  0  0  0  0  0  0
  -10.0625    2.1121    2.0103 C   0  0  0  0  0  0  0  0  0  0  0  0
   -9.3968    3.1071    1.2884 C   0  0  0  0  0  0  0  0  0  0  0  0
   -9.6557    3.2765    0.3906 H   0  0  0  0  0  0  0  0  0  0  0  0
   -8.3634    3.8586    1.8503 C   0  0  0  0  0  0  0  0  0  0  0  0
   -7.9369    4.5355    1.3375 H   0  0  0  0  0  0  0  0  0  0  0  0
   -7.9548    3.6197    3.1639 C   0  0  0  0  0  0  0  0  0  0  0  0
   -7.2613    4.1402    3.5545 H   0  0  0  0  0  0  0  0  0  0  0  0
   -8.5750    2.6096    3.8937 C   0  0  0  0  0  0  0  0  0  0  0  0
   -8.2908    2.4219    4.7812 H   0  0  0  0  0  0  0  0  0  0  0  0
   -9.6132    1.8751    3.3226 C   0  0  0  0  0  0  0  0  0  0  0  0
  -10.0303    1.1919    3.8355 H   0  0  0  0  0  0  0  0  0  0  0  0
  -10.8391    1.0145   -3.0245 C   0  0  0  0  0  0  0  0  0  0  0  0
  -10.4025    1.7153   -2.5551 H   0  0  0  0  0  0  0  0  0  0  0  0
  -10.8235    1.0093   -4.4180 C   0  0  0  0  0  0  0  0  0  0  0  0
  -10.3612    1.6909   -4.8920 H   0  0  0  0  0  0  0  0  0  0  0  0
  1  2  1  0  0  0  0
  2 11  1  0  0  0  0
  3 11  1  0  0  0  0
  4 14  1  0  0  0  0
  5  8  1  0  0  0  0
  6  8  1  0  0  0  0
  7  8  1  0  0  0  0
  8 35  1  0  0  0  0
  9  6  1  0  0  0  0
 10  1  1  0  0  0  0
 11 12  1  0  0  0  0
 13 11  1  0  0  0  0
 14  2  1  0  0  0  0
 15 14  1  0  0  0  0
 16 14  1  0  0  0  0
 17  2  1  0  0  0  0
 18 17  1  0  0  0  0
 19 17  1  0  0  0  0
 20  3  1  0  0  0  0
 21 20  1  0  0  0  0
 22 20  1  0  0  0  0
 23  4  1  0  0  0  0
 24 23  1  0  0  0  0
 25 23  1  0  0  0  0
 26  3  1  0  0  0  0
 27 26  1  0  0  0  0
 28 26  1  0  0  0  0
 29  1  8  0  0  0  0
 30 29  1  0  0  0  0
 31  1  8  0  0  0  0
 32 31  1  0  0  0  0
 33  1  8  0  0  0  0
 34 33  1  0  0  0  0
 35 36  4  0  0  0  0
 36 37  1  0  0  0  0
 38 36  4  0  0  0  0
 39 38  1  0  0  0  0
 40 38  4  0  0  0  0
 41 40  1  0  0  0  0
 42 40  4  0  0  0  0
 43 42  1  0  0  0  0
 44 35  4  0  0  0  0
 45 44  1  0  0  0  0
 46  9  1  0  0  0  0
 47 46  4  0  0  0  0
 48 47  1  0  0  0  0
 49 47  4  0  0  0  0
 50 49  1  0  0  0  0
 51 49  4  0  0  0  0
 52 51  1  0  0  0  0
 53 54  8  0  0  0  0
 54 61  1  0  0  0  0
 55  1  8  0  0  0  0
 56 61  1  0  0  0  0
 57 64  1  0  0  0  0
 58 60  1  0  0  0  0
 59  9  1  0  0  0  0
 60  7  1  0  0  0  0
 61 62  1  0  0  0  0
 63 61  1  0  0  0  0
 64 54  1  0  0  0  0
 65 64  1  0  0  0  0
 66 64  1  0  0  0  0
 67 54  1  0  0  0  0
 68 67  1  0  0  0  0
 69 67  1  0  0  0  0
 70 56  1  0  0  0  0
 71 70  1  0  0  0  0
 72 70  1  0  0  0  0
 73 57  1  0  0  0  0
 74 73  1  0  0  0  0
 75 73  1  0  0  0  0
 76 56  1  0  0  0  0
 77 76  1  0  0  0  0
 78 76  1  0  0  0  0
 79  1  8  0  0  0  0
 80 79  1  0  0  0  0
 81  1  8  0  0  0  0
 82 81  1  0  0  0  0
 83 60  1  0  0  0  0
 84 83  4  0  0  0  0
 85 84  1  0  0  0  0
 86 84  4  0  0  0  0
 87 86  1  0  0  0  0
 88 86  4  0  0  0  0
 89 88  1  0  0  0  0
 90 88  4  0  0  0  0
 91 90  1  0  0  0  0
 92 83  4  0  0  0  0
 93 92  1  0  0  0  0
 94 46  4  0  0  0  0
 95 94  1  0  0  0  0
 96 51  4  0  0  0  0
 97 96  1  0  0  0  0
  4 20  1  0  0  0  0
  5 17  1  0  0  0  0
  5 23  1  0  0  0  0
  5 26  1  0  0  0  0
 29 31  4  0  0  0  0
 29 79  4  0  0  0  0
 31 33  4  0  0  0  0
 33 81  4  0  0  0  0
 42 44  4  0  0  0  0
 57 70  1  0  0  0  0
 58 67  1  0  0  0  0
 58 73  1  0  0  0  0
 58 76  1  0  0  0  0
 59 60  1  0  0  0  0
 79 81  4  0  0  0  0
 90 92  4  0  0  0  0
 94 96  4  0  0  0  0
M  END
$$$$
LEGBEH

From CSD data. Using bond type 'Any'. Matching problem. No disordered atoms. Largest molecule.
179185  0  0  0  0  0  0  0  0999 V2000
    7.3459    1.6342   15.5564 P   0  3  0  0  0  0  0  0  0  0  0  0
    4.9688   -2.2969   16.9636 P   0  3  0  0  0  0  0  0  0  0  0  0
    5.2600   -1.4812   17.8393 H   0  0  0  0  0  0  0  0  0  0  0  0
    5.7917   -2.0418   16.0378 H   0  0  0  0  0  0  0  0  0  0  0  0
    3.5150   -0.0108   16.2531 B   0  5  0  0  0  0  0  0  0  0  0  0
    4.8700    2.4647   15.8251 O   0  0  0  0  0  0  0  0  0  0  0  0
    5.0120    0.2441   15.8906 O   0  0  0  0  0  0  0  0  0  0  0  0
    7.0897    3.3241   14.9503 C   0  0  0  0  0  0  0  0  0  0  0  0
    7.8466    4.2171   14.3132 C   0  0  0  0  0  0  0  0  0  0  0  0
    7.3844    5.0403   14.2055 H   0  0  0  0  0  0  0  0  0  0  0  0
    9.2330    4.2890   13.7090 C   0  0  0  0  0  0  0  0  0  0  0  0
   10.0093    3.0013   13.5398 C   0  0  0  0  0  0  0  0  0  0  0  0
   10.1246    2.5751   14.4142 H   0  0  0  0  0  0  0  0  0  0  0  0
   10.8829    3.1954   13.1488 H   0  0  0  0  0  0  0  0  0  0  0  0
    9.5103    2.3971   12.9488 H   0  0  0  0  0  0  0  0  0  0  0  0
    9.1205    5.0998   12.4150 C   0  0  0  0  0  0  0  0  0  0  0  0
    8.6052    4.5824   11.7559 H   0  0  0  0  0  0  0  0  0  0  0  0
   10.0162    5.2726   12.0613 H   0  0  0  0  0  0  0  0  0  0  0  0
    8.6647    5.9424   12.5951 H   0  0  0  0  0  0  0  0  0  0  0  0
    9.9892    5.1844   14.7635 C   0  0  0  0  0  0  0  0  0  0  0  0
    9.5440    6.0556   14.8316 H   0  0  0  0  0  0  0  0  0  0  0  0
   10.9170    5.3136   14.4779 H   0  0  0  0  0  0  0  0  0  0  0  0
    9.9758    4.7412   15.6379 H   0  0  0  0  0  0  0  0  0  0  0  0
    5.5529    1.3962   15.7148 C   0  0  0  0  0  0  0  0  0  0  0  0
    8.1863    0.3402   14.5307 C   0  0  0  0  0  0  0  0  0  0  0  0
    9.0699   -0.4932   12.4545 C   0  0  0  0  0  0  0  0  0  0  0  0
    8.9645   -0.6394   11.5208 H   0  0  0  0  0  0  0  0  0  0  0  0
   10.2292   -0.9075   13.0367 C   0  0  0  0  0  0  0  0  0  0  0  0
   10.3116   -0.8129   14.4186 C   0  0  0  0  0  0  0  0  0  0  0  0
   11.0850   -1.1605   14.8470 H   0  0  0  0  0  0  0  0  0  0  0  0
    9.3126   -0.2290   15.2117 C   0  0  0  0  0  0  0  0  0  0  0  0
    8.0317    0.1312   13.1356 C   0  0  0  0  0  0  0  0  0  0  0  0
    6.8703    0.6202   12.1689 C   0  0  0  0  0  0  0  0  0  0  0  0
    7.4018    1.4744   11.0331 C   0  0  0  0  0  0  0  0  0  0  0  0
    6.6610    1.7435   10.4509 H   0  0  0  0  0  0  0  0  0  0  0  0
    8.0535    0.9582   10.5124 H   0  0  0  0  0  0  0  0  0  0  0  0
    7.8376    2.2724   11.3978 H   0  0  0  0  0  0  0  0  0  0  0  0
    6.2689   -0.6647   11.5736 C   0  0  0  0  0  0  0  0  0  0  0  0
    5.5426   -0.4303   10.9584 H   0  0  0  0  0  0  0  0  0  0  0  0
    5.9169   -1.2249   12.2964 H   0  0  0  0  0  0  0  0  0  0  0  0
    6.9639   -1.1557   11.0880 H   0  0  0  0  0  0  0  0  0  0  0  0
    5.6982    1.3973   12.7643 C   0  0  0  0  0  0  0  0  0  0  0  0
    6.0198    2.2531   13.1180 H   0  0  0  0  0  0  0  0  0  0  0  0
    5.2951    0.8745   13.4893 H   0  0  0  0  0  0  0  0  0  0  0  0
    5.0290    1.5621   12.0679 H   0  0  0  0  0  0  0  0  0  0  0  0
   11.3890   -1.4135   12.1689 C   0  0  0  0  0  0  0  0  0  0  0  0
   10.9081   -2.5291   11.2748 C   0  0  0  0  0  0  0  0  0  0  0  0
   10.7445   -3.3320   11.8152 H   0  0  0  0  0  0  0  0  0  0  0  0
   11.5895   -2.7246   10.6003 H   0  0  0  0  0  0  0  0  0  0  0  0
   10.0762   -2.2593   10.8332 H   0  0  0  0  0  0  0  0  0  0  0  0
   11.8634   -0.2092   11.3275 C   0  0  0  0  0  0  0  0  0  0  0  0
   11.1646    0.0371   10.6860 H   0  0  0  0  0  0  0  0  0  0  0  0
   12.6793   -0.4503   10.8420 H   0  0  0  0  0  0  0  0  0  0  0  0
   12.0460    0.5507   11.9185 H   0  0  0  0  0  0  0  0  0  0  0  0
   12.5696   -1.8608   13.0389 C   0  0  0  0  0  0  0  0  0  0  0  0
   12.8738   -1.1091   13.5904 H   0  0  0  0  0  0  0  0  0  0  0  0
   13.3044   -2.1632   12.4655 H   0  0  0  0  0  0  0  0  0  0  0  0
   12.2866   -2.5971   13.6211 H   0  0  0  0  0  0  0  0  0  0  0  0
    9.5481   -0.2226   16.7496 C   0  0  0  0  0  0  0  0  0  0  0  0
   10.6318   -1.2678   17.1472 C   0  0  0  0  0  0  0  0  0  0  0  0
   11.4966   -1.0024   16.7693 H   0  0  0  0  0  0  0  0  0  0  0  0
   10.3796   -2.1488   16.8001 H   0  0  0  0  0  0  0  0  0  0  0  0
   10.7012   -1.3107   18.1249 H   0  0  0  0  0  0  0  0  0  0  0  0
   10.0858    1.1234   17.2439 C   0  0  0  0  0  0  0  0  0  0  0  0
   10.8916    1.3584   16.7386 H   0  0  0  0  0  0  0  0  0  0  0  0
   10.3057    1.0565   18.1974 H   0  0  0  0  0  0  0  0  0  0  0  0
    9.4037    1.8147   17.1143 H   0  0  0  0  0  0  0  0  0  0  0  0
    8.2978   -0.6716   17.5339 C   0  0  0  0  0  0  0  0  0  0  0  0
    8.5008   -0.6813   18.4940 H   0  0  0  0  0  0  0  0  0  0  0  0
    8.0389   -1.5723   17.2483 H   0  0  0  0  0  0  0  0  0  0  0  0
    7.5622   -0.0494   17.3625 H   0  0  0  0  0  0  0  0  0  0  0  0
    5.7399    3.7550   15.7434 B   0  5  0  0  0  0  0  0  0  0  0  0
    5.9622    4.0819   17.3735 C   0  0  0  0  0  0  0  0  0  0  0  0
    7.1357    4.3342   18.0765 C   0  0  0  0  0  0  0  0  0  0  0  0
    8.3386    4.2354   17.4900 F   0  0  0  0  0  0  0  0  0  0  0  0
    7.2043    4.6074   19.4408 C   0  0  0  0  0  0  0  0  0  0  0  0
    8.3907    4.7666   20.0472 F   0  0  0  0  0  0  0  0  0  0  0  0
    6.0532    4.7292   20.1834 C   0  0  0  0  0  0  0  0  0  0  0  0
    6.0915    4.9898   21.4994 F   0  0  0  0  0  0  0  0  0  0  0  0
    4.8513    4.5625   19.5397 C   0  0  0  0  0  0  0  0  0  0  0  0
    3.7081    4.6753   20.2405 F   0  0  0  0  0  0  0  0  0  0  0  0
    4.8433    4.2680   18.1820 C   0  0  0  0  0  0  0  0  0  0  0  0
    3.6176    4.1615   17.6306 F   0  0  0  0  0  0  0  0  0  0  0  0
    4.8886    5.0026   15.1063 C   0  0  0  0  0  0  0  0  0  0  0  0
    4.9665    6.3288   15.4578 C   0  0  0  0  0  0  0  0  0  0  0  0
    5.7274    6.6824   16.5123 F   0  0  0  0  0  0  0  0  0  0  0  0
    4.3239    7.3527   14.8207 C   0  0  0  0  0  0  0  0  0  0  0  0
    4.4440    8.6276   15.2447 F   0  0  0  0  0  0  0  0  0  0  0  0
    3.5389    7.0761   13.7310 C   0  0  0  0  0  0  0  0  0  0  0  0
    2.8847    8.0482   13.0763 F   0  0  0  0  0  0  0  0  0  0  0  0
    3.4062    5.7740   13.3311 C   0  0  0  0  0  0  0  0  0  0  0  0
    2.6032    5.4676   12.2766 F   0  0  0  0  0  0  0  0  0  0  0  0
    4.0608    4.7851   14.0056 C   0  0  0  0  0  0  0  0  0  0  0  0
    3.8807    3.5393   13.5135 F   0  0  0  0  0  0  0  0  0  0  0  0
    3.3856   -1.6651   16.3717 C   0  0  0  0  0  0  0  0  0  0  0  0
    2.2371   -2.2647   16.1212 C   0  0  0  0  0  0  0  0  0  0  0  0
    1.6230   -1.6452   15.7456 H   0  0  0  0  0  0  0  0  0  0  0  0
    1.5888   -3.6251   16.2421 C   0  0  0  0  0  0  0  0  0  0  0  0
    2.3731   -4.7417   16.9297 C   0  0  0  0  0  0  0  0  0  0  0  0
    3.2061   -4.9051   16.4420 H   0  0  0  0  0  0  0  0  0  0  0  0
    1.8340   -5.5606   16.9385 H   0  0  0  0  0  0  0  0  0  0  0  0
    2.5788   -4.4756   17.8503 H   0  0  0  0  0  0  0  0  0  0  0  0
    1.2439   -4.0948   14.8272 C   0  0  0  0  0  0  0  0  0  0  0  0
    0.7444   -3.3908   14.3615 H   0  0  0  0  0  0  0  0  0  0  0  0
    0.6950   -4.9054   14.8756 H   0  0  0  0  0  0  0  0  0  0  0  0
    2.0702   -4.2884   14.3351 H   0  0  0  0  0  0  0  0  0  0  0  0
    0.2814   -3.4000   17.0462 C   0  0  0  0  0  0  0  0  0  0  0  0
    0.4999   -3.0211   17.9249 H   0  0  0  0  0  0  0  0  0  0  0  0
   -0.1811   -4.2553   17.1670 H   0  0  0  0  0  0  0  0  0  0  0  0
   -0.3004   -2.7807   16.5584 H   0  0  0  0  0  0  0  0  0  0  0  0
    5.3985   -3.9575   17.5383 C   0  0  0  0  0  0  0  0  0  0  0  0
    5.3131   -5.6665   19.2233 C   0  0  0  0  0  0  0  0  0  0  0  0
    5.1194   -5.9375   20.1153 H   0  0  0  0  0  0  0  0  0  0  0  0
    5.7346   -6.6373   18.3204 C   0  0  0  0  0  0  0  0  0  0  0  0
    6.0570   -6.2090   17.0484 C   0  0  0  0  0  0  0  0  0  0  0  0
    6.4016   -6.8518   16.4398 H   0  0  0  0  0  0  0  0  0  0  0  0
    5.9163   -4.9128   16.6002 C   0  0  0  0  0  0  0  0  0  0  0  0
    5.1605   -4.3227   18.8960 C   0  0  0  0  0  0  0  0  0  0  0  0
    5.0039   -3.2340   20.0648 C   0  0  0  0  0  0  0  0  0  0  0  0
    4.8205   -3.9726   21.4247 C   0  0  0  0  0  0  0  0  0  0  0  0
    4.6793   -3.3143   22.1365 H   0  0  0  0  0  0  0  0  0  0  0  0
    5.6330   -4.4930   21.6224 H   0  0  0  0  0  0  0  0  0  0  0  0
    4.0542   -4.5729   21.3720 H   0  0  0  0  0  0  0  0  0  0  0  0
    6.2014   -2.2764   20.2252 C   0  0  0  0  0  0  0  0  0  0  0  0
    6.0245   -1.6530   20.9611 H   0  0  0  0  0  0  0  0  0  0  0  0
    6.3302   -1.7712   19.3947 H   0  0  0  0  0  0  0  0  0  0  0  0
    7.0097   -2.7941   20.4229 H   0  0  0  0  0  0  0  0  0  0  0  0
    3.7045   -2.4142   19.8627 C   0  0  0  0  0  0  0  0  0  0  0  0
    3.5709   -1.8227   20.6316 H   0  0  0  0  0  0  0  0  0  0  0  0
    2.9418   -3.0247   19.7836 H   0  0  0  0  0  0  0  0  0  0  0  0
    3.7815   -1.8782   19.0454 H   0  0  0  0  0  0  0  0  0  0  0  0
    5.8911   -8.0922   18.7290 C   0  0  0  0  0  0  0  0  0  0  0  0
    7.4115   -8.3878   18.7180 C   0  0  0  0  0  0  0  0  0  0  0  0
    7.7638   -8.2566   17.8151 H   0  0  0  0  0  0  0  0  0  0  0  0
    7.5658   -9.3149   18.9971 H   0  0  0  0  0  0  0  0  0  0  0  0
    7.8667   -7.7810   19.3398 H   0  0  0  0  0  0  0  0  0  0  0  0
    5.3426   -8.4586   20.1021 C   0  0  0  0  0  0  0  0  0  0  0  0
    5.8174   -7.9472   20.7898 H   0  0  0  0  0  0  0  0  0  0  0  0
    5.4699   -9.4164   20.2603 H   0  0  0  0  0  0  0  0  0  0  0  0
    4.3868   -8.2451   20.1373 H   0  0  0  0  0  0  0  0  0  0  0  0
    5.2353   -9.0330   17.6987 C   0  0  0  0  0  0  0  0  0  0  0  0
    4.2818   -8.8197   17.6218 H   0  0  0  0  0  0  0  0  0  0  0  0
    5.3398   -9.9622   17.9909 H   0  0  0  0  0  0  0  0  0  0  0  0
    5.6683   -8.9136   16.8265 H   0  0  0  0  0  0  0  0  0  0  0  0
    6.3538   -4.6060   15.1326 C   0  0  0  0  0  0  0  0  0  0  0  0
    7.5679   -3.6508   15.0975 C   0  0  0  0  0  0  0  0  0  0  0  0
    7.2923   -2.7617   15.4028 H   0  0  0  0  0  0  0  0  0  0  0  0
    7.9100   -3.5909   14.1813 H   0  0  0  0  0  0  0  0  0  0  0  0
    8.2718   -3.9949   15.6863 H   0  0  0  0  0  0  0  0  0  0  0  0
    5.1835   -4.0882   14.2582 C   0  0  0  0  0  0  0  0  0  0  0  0
    4.4900   -4.7771   14.1989 H   0  0  0  0  0  0  0  0  0  0  0  0
    5.5148   -3.8803   13.3575 H   0  0  0  0  0  0  0  0  0  0  0  0
    4.8076   -3.2787   14.6603 H   0  0  0  0  0  0  0  0  0  0  0  0
    6.8400   -5.8757   14.4164 C   0  0  0  0  0  0  0  0  0  0  0  0
    7.5744   -6.2781   14.9261 H   0  0  0  0  0  0  0  0  0  0  0  0
    7.1549   -5.6422   13.5179 H   0  0  0  0  0  0  0  0  0  0  0  0
    6.1003   -6.5152   14.3483 H   0  0  0  0  0  0  0  0  0  0  0  0
    3.1616    0.5920   17.7360 C   0  0  0  0  0  0  0  0  0  0  0  0
    4.0721    1.0518   18.6719 C   0  0  0  0  0  0  0  0  0  0  0  0
    5.3962    1.0639   18.4296 F   0  0  0  0  0  0  0  0  0  0  0  0
    3.7083    1.5476   19.9176 C   0  0  0  0  0  0  0  0  0  0  0  0
    4.6365    2.0168   20.7704 F   0  0  0  0  0  0  0  0  0  0  0  0
    2.3941    1.5705   20.2889 C   0  0  0  0  0  0  0  0  0  0  0  0
    2.0119    2.0684   21.4651 F   0  0  0  0  0  0  0  0  0  0  0  0
    1.4469    1.0717   19.4189 C   0  0  0  0  0  0  0  0  0  0  0  0
    0.1508    1.0750   19.7440 F   0  0  0  0  0  0  0  0  0  0  0  0
    1.8487    0.5975   18.1908 C   0  0  0  0  0  0  0  0  0  0  0  0
    0.8636    0.1387   17.3845 F   0  0  0  0  0  0  0  0  0  0  0  0
    2.6215    0.6142   15.0206 C   0  0  0  0  0  0  0  0  0  0  0  0
    1.8779    1.7879   15.0777 C   0  0  0  0  0  0  0  0  0  0  0  0
    1.8048    2.5107   16.2085 F   0  0  0  0  0  0  0  0  0  0  0  0
    1.2201    2.3543   13.9924 C   0  0  0  0  0  0  0  0  0  0  0  0
    0.5555    3.5030   14.1220 F   0  0  0  0  0  0  0  0  0  0  0  0
    1.2934    1.7334   12.7753 C   0  0  0  0  0  0  0  0  0  0  0  0
    0.7055    2.2791   11.6944 F   0  0  0  0  0  0  0  0  0  0  0  0
    1.9980    0.5614   12.6501 C   0  0  0  0  0  0  0  0  0  0  0  0
    2.0957   -0.0473   11.4571 F   0  0  0  0  0  0  0  0  0  0  0  0
    2.6360    0.0419   13.7617 C   0  0  0  0  0  0  0  0  0  0  0  0
    3.3298   -1.1092   13.5495 F   0  0  0  0  0  0  0  0  0  0  0  0
  1  8  1  0  0  0  0
  2  3  1  0  0  0  0
  4  2  1  0  0  0  0
  5  7  1  0  0  0  0
  6 24  1  0  0  0  0
  7 24  1  0  0  0  0
  8  9  2  0  0  0  0
  9 10  1  0  0  0  0
 11  9  1  0  0  0  0
 12 11  1  0  0  0  0
 13 12  1  0  0  0  0
 14 12  1  0  0  0  0
 15 12  1  0  0  0  0
 16 11  1  0  0  0  0
 17 16  1  0  0  0  0
 18 16  1  0  0  0  0
 19 16  1  0  0  0  0
 20 11  1  0  0  0  0
 21 20  1  0  0  0  0
 22 20  1  0  0  0  0
 23 20  1  0  0  0  0
 24  1  2  0  0  0  0
 25  1  1  0  0  0  0
 26 27  1  0  0  0  0
 28 26  4  0  0  0  0
 29 28  4  0  0  0  0
 30 29  1  0  0  0  0
 31 25  4  0  0  0  0
 32 25  4  0  0  0  0
 33 32  1  0  0  0  0
 34 33  1  0  0  0  0
 35 34  1  0  0  0  0
 36 34  1  0  0  0  0
 37 34  1  0  0  0  0
 38 33  1  0  0  0  0
 39 38  1  0  0  0  0
 40 38  1  0  0  0  0
 41 38  1  0  0  0  0
 42 33  1  0  0  0  0
 43 42  1  0  0  0  0
 44 42  1  0  0  0  0
 45 42  1  0  0  0  0
 46 28  1  0  0  0  0
 47 46  1  0  0  0  0
 48 47  1  0  0  0  0
 49 47  1  0  0  0  0
 50 47  1  0  0  0  0
 51 46  1  0  0  0  0
 52 51  1  0  0  0  0
 53 51  1  0  0  0  0
 54 51  1  0  0  0  0
 55 46  1  0  0  0  0
 56 55  1  0  0  0  0
 57 55  1  0  0  0  0
 58 55  1  0  0  0  0
 59 31  1  0  0  0  0
 60 59  1  0  0  0  0
 61 60  1  0  0  0  0
 62 60  1  0  0  0  0
 63 60  1  0  0  0  0
 64 59  1  0  0  0  0
 65 64  1  0  0  0  0
 66 64  1  0  0  0  0
 67 64  1  0  0  0  0
 68 59  1  0  0  0  0
 69 68  1  0  0  0  0
 70 68  1  0  0  0  0
 71 68  1  0  0  0  0
 72  6  1  0  0  0  0
 73 72  1  0  0  0  0
 74 73  4  0  0  0  0
 75 74  1  0  0  0  0
 76 74  4  0  0  0  0
 77 76  1  0  0  0  0
 78 76  4  0  0  0  0
 79 78  1  0  0  0  0
 80 78  4  0  0  0  0
 81 80  1  0  0  0  0
 82 73  4  0  0  0  0
 83 82  1  0  0  0  0
 84 72  1  0  0  0  0
 85 84  4  0  0  0  0
 86 85  1  0  0  0  0
 87 85  4  0  0  0  0
 88 87  1  0  0  0  0
 89 87  4  0  0  0  0
 90 89  1  0  0  0  0
 91 89  4  0  0  0  0
 92 91  1  0  0  0  0
 93 84  4  0  0  0  0
 94 93  1  0  0  0  0
 95  2  1  0  0  0  0
 96 95  2  0  0  0  0
 97 96  1  0  0  0  0
 98 96  1  0  0  0  0
 99 98  1  0  0  0  0
100 99  1  0  0  0  0
101 99  1  0  0  0  0
102 99  1  0  0  0  0
103 98  1  0  0  0  0
104103  1  0  0  0  0
105103  1  0  0  0  0
106103  1  0  0  0  0
107 98  1  0  0  0  0
108107  1  0  0  0  0
109107  1  0  0  0  0
110107  1  0  0  0  0
111  2  1  0  0  0  0
112113  1  0  0  0  0
114112  4  0  0  0  0
115114  4  0  0  0  0
116115  1  0  0  0  0
117111  4  0  0  0  0
118111  4  0  0  0  0
119118  1  0  0  0  0
120119  1  0  0  0  0
121120  1  0  0  0  0
122120  1  0  0  0  0
123120  1  0  0  0  0
124119  1  0  0  0  0
125124  1  0  0  0  0
126124  1  0  0  0  0
127124  1  0  0  0  0
128119  1  0  0  0  0
129128  1  0  0  0  0
130128  1  0  0  0  0
131128  1  0  0  0  0
132114  1  0  0  0  0
133132  1  0  0  0  0
134133  1  0  0  0  0
135133  1  0  0  0  0
136133  1  0  0  0  0
137132  1  0  0  0  0
138137  1  0  0  0  0
139137  1  0  0  0  0
140137  1  0  0  0  0
141132  1  0  0  0  0
142141  1  0  0  0  0
143141  1  0  0  0  0
144141  1  0  0  0  0
145117  1  0  0  0  0
146145  1  0  0  0  0
147146  1  0  0  0  0
148146  1  0  0  0  0
149146  1  0  0  0  0
150145  1  0  0  0  0
151150  1  0  0  0  0
152150  1  0  0  0  0
153150  1  0  0  0  0
154145  1  0  0  0  0
155154  1  0  0  0  0
156154  1  0  0  0  0
157154  1  0  0  0  0
158  5  1  0  0  0  0
159158  4  0  0  0  0
160159  1  0  0  0  0
161159  4  0  0  0  0
162161  1  0  0  0  0
163161  4  0  0  0  0
164163  1  0  0  0  0
165163  4  0  0  0  0
166165  1  0  0  0  0
167158  4  0  0  0  0
168167  1  0  0  0  0
169  5  1  0  0  0  0
170169  4  0  0  0  0
171170  1  0  0  0  0
172170  4  0  0  0  0
173172  1  0  0  0  0
174172  4  0  0  0  0
175174  1  0  0  0  0
176174  4  0  0  0  0
177176  1  0  0  0  0
178169  4  0  0  0  0
179178  1  0  0  0  0
  5 95  1  0  0  0  0
  8 72  1  0  0  0  0
 26 32  4  0  0  0  0
 29 31  4  0  0  0  0
 80 82  4  0  0  0  0
 91 93  4  0  0  0  0
112118  4  0  0  0  0
115117  4  0  0  0  0
165167  4  0  0  0  0
176178  4  0  0  0  0
M  CHG  4   1   1   2   1   5  -1  72  -1
M  END
$$$$
LEGBIL

From CSD data. Using bond type 'Any'. Matching problem. No disordered atoms. Largest molecule.
125131  0  0  0  0  0  0  0  0999 V2000
    4.0931    5.8477    1.1406 P   0  3  0  0  0  0  0  0  0  0  0  0
    2.3010    4.4866    2.5506 O   0  0  0  0  0  0  0  0  0  0  0  0
    3.0112    6.3227    3.5930 O   0  0  0  0  0  0  0  0  0  0  0  0
    3.9006    4.1305    0.6215 C   0  0  0  0  0  0  0  0  0  0  0  0
    4.5961    3.3638   -0.2145 C   0  0  0  0  0  0  0  0  0  0  0  0
    4.2492    2.4863   -0.3290 H   0  0  0  0  0  0  0  0  0  0  0  0
    5.8632    3.6621   -1.0236 C   0  0  0  0  0  0  0  0  0  0  0  0
    7.1345    3.3718   -0.1999 C   0  0  0  0  0  0  0  0  0  0  0  0
    7.9272    3.5499   -0.7507 H   0  0  0  0  0  0  0  0  0  0  0  0
    7.1369    2.4334    0.0804 H   0  0  0  0  0  0  0  0  0  0  0  0
    7.1506    3.9493    0.5922 H   0  0  0  0  0  0  0  0  0  0  0  0
    5.9100    5.1170   -1.5111 C   0  0  0  0  0  0  0  0  0  0  0  0
    6.0351    5.7154   -0.7458 H   0  0  0  0  0  0  0  0  0  0  0  0
    5.0683    5.3384   -1.9620 H   0  0  0  0  0  0  0  0  0  0  0  0
    6.6544    5.2277   -2.1375 H   0  0  0  0  0  0  0  0  0  0  0  0
    5.8545    2.7574   -2.2471 C   0  0  0  0  0  0  0  0  0  0  0  0
    6.6438    2.9435   -2.7955 H   0  0  0  0  0  0  0  0  0  0  0  0
    5.0436    2.9259   -2.7711 H   0  0  0  0  0  0  0  0  0  0  0  0
    5.8676    1.8206   -1.9595 H   0  0  0  0  0  0  0  0  0  0  0  0
    3.0546    5.5165    2.6078 C   0  0  0  0  0  0  0  0  0  0  0  0
    5.6982    6.2704    1.9035 C   0  0  0  0  0  0  0  0  0  0  0  0
    6.2363    7.5344    1.5525 C   0  0  0  0  0  0  0  0  0  0  0  0
    7.4419    7.9194    2.0960 C   0  0  0  0  0  0  0  0  0  0  0  0
    7.8010    8.7680    1.8645 H   0  0  0  0  0  0  0  0  0  0  0  0
    8.1438    7.1077    2.9685 C   0  0  0  0  0  0  0  0  0  0  0  0
    7.6115    5.8726    3.3000 C   0  0  0  0  0  0  0  0  0  0  0  0
    8.0941    5.3111    3.8947 H   0  0  0  0  0  0  0  0  0  0  0  0
    6.4102    5.4298    2.7955 C   0  0  0  0  0  0  0  0  0  0  0  0
    5.5525    8.4985    0.6361 C   0  0  0  0  0  0  0  0  0  0  0  0
    4.7609    8.8658    1.0797 H   0  0  0  0  0  0  0  0  0  0  0  0
    5.2814    8.0333   -0.1828 H   0  0  0  0  0  0  0  0  0  0  0  0
    6.1694    9.2267    0.4095 H   0  0  0  0  0  0  0  0  0  0  0  0
    9.4697    7.5761    3.6022 C   0  0  0  0  0  0  0  0  0  0  0  0
    9.2816    8.0798    4.4211 H   0  0  0  0  0  0  0  0  0  0  0  0
    9.9501    8.1504    2.9685 H   0  0  0  0  0  0  0  0  0  0  0  0
   10.0233    6.7965    3.8167 H   0  0  0  0  0  0  0  0  0  0  0  0
    5.8617    4.0936    3.2513 C   0  0  0  0  0  0  0  0  0  0  0  0
    5.0335    4.2348    3.7582 H   0  0  0  0  0  0  0  0  0  0  0  0
    6.5196    3.6477    3.8240 H   0  0  0  0  0  0  0  0  0  0  0  0
    5.6740    3.5322    2.4714 H   0  0  0  0  0  0  0  0  0  0  0  0
    2.4338    3.6814    1.1967 B   0  5  0  0  0  0  0  0  0  0  0  0
    1.1437    4.1995    0.3412 C   0  0  0  0  0  0  0  0  0  0  0  0
    2.2968    4.9743   -1.5871 F   0  0  0  0  0  0  0  0  0  0  0  0
    1.1496    4.7930   -0.9188 C   0  0  0  0  0  0  0  0  0  0  0  0
    0.0988    5.7860   -2.7845 F   0  0  0  0  0  0  0  0  0  0  0  0
    0.0208    5.2053   -1.5671 C   0  0  0  0  0  0  0  0  0  0  0  0
   -2.3219    5.4956   -1.6005 F   0  0  0  0  0  0  0  0  0  0  0  0
   -1.2160    5.0818   -0.9700 C   0  0  0  0  0  0  0  0  0  0  0  0
   -2.4737    4.3391    0.8733 F   0  0  0  0  0  0  0  0  0  0  0  0
   -1.2847    4.4786    0.2803 C   0  0  0  0  0  0  0  0  0  0  0  0
   -0.2633    3.4969    2.1026 F   0  0  0  0  0  0  0  0  0  0  0  0
   -0.1139    4.0744    0.8823 C   0  0  0  0  0  0  0  0  0  0  0  0
    2.3291    2.0965    1.5257 C   0  0  0  0  0  0  0  0  0  0  0  0
    1.5411    1.6200   -0.6637 F   0  0  0  0  0  0  0  0  0  0  0  0
    1.8848    1.1886    0.5727 C   0  0  0  0  0  0  0  0  0  0  0  0
    1.2853   -0.9820   -0.1735 F   0  0  0  0  0  0  0  0  0  0  0  0
    1.7346   -0.1508    0.8043 C   0  0  0  0  0  0  0  0  0  0  0  0
    1.8906   -1.9956    2.2630 F   0  0  0  0  0  0  0  0  0  0  0  0
    2.0489   -0.6753    2.0278 C   0  0  0  0  0  0  0  0  0  0  0  0
    2.8470   -0.3353    4.2050 F   0  0  0  0  0  0  0  0  0  0  0  0
    2.5185    0.1508    3.0100 C   0  0  0  0  0  0  0  0  0  0  0  0
    3.1857    2.2521    3.7346 F   0  0  0  0  0  0  0  0  0  0  0  0
    2.6713    1.5046    2.7297 C   0  0  0  0  0  0  0  0  0  0  0  0
    2.4219    9.0856    4.7541 P   0  3  0  0  0  0  0  0  0  0  0  0
    2.4392    8.7262    3.5145 H   0  0  0  0  0  0  0  0  0  0  0  0
    1.3504    9.8010    4.9232 H   0  0  0  0  0  0  0  0  0  0  0  0
    2.2183    7.5681    5.6836 C   0  0  0  0  0  0  0  0  0  0  0  0
    2.0053    7.4959    6.9973 C   0  0  0  0  0  0  0  0  0  0  0  0
    1.9232    6.5944    7.2873 H   0  0  0  0  0  0  0  0  0  0  0  0
    1.8563    8.4632    8.1501 C   0  0  0  0  0  0  0  0  0  0  0  0
    0.4092    8.3092    8.6546 C   0  0  0  0  0  0  0  0  0  0  0  0
   -0.2131    8.5883    7.9502 H   0  0  0  0  0  0  0  0  0  0  0  0
    0.2781    8.8690    9.4467 H   0  0  0  0  0  0  0  0  0  0  0  0
    0.2418    7.3708    8.8837 H   0  0  0  0  0  0  0  0  0  0  0  0
    2.8311    8.0349    9.2493 C   0  0  0  0  0  0  0  0  0  0  0  0
    2.7032    8.6011   10.0390 H   0  0  0  0  0  0  0  0  0  0  0  0
    3.7508    8.1295    8.9251 H   0  0  0  0  0  0  0  0  0  0  0  0
    2.6631    7.0997    9.4881 H   0  0  0  0  0  0  0  0  0  0  0  0
    2.1165    9.9197    7.8162 C   0  0  0  0  0  0  0  0  0  0  0  0
    1.4889   10.2132    7.1216 H   0  0  0  0  0  0  0  0  0  0  0  0
    3.0346   10.0224    7.4920 H   0  0  0  0  0  0  0  0  0  0  0  0
    1.9925   10.4667    8.6205 H   0  0  0  0  0  0  0  0  0  0  0  0
    3.8026   10.2309    4.9817 C   0  0  0  0  0  0  0  0  0  0  0  0
    5.1016    9.7208    5.1133 C   0  0  0  0  0  0  0  0  0  0  0  0
    6.1392   10.6335    5.1889 C   0  0  0  0  0  0  0  0  0  0  0  0
    7.0296   10.3095    5.2644 H   0  0  0  0  0  0  0  0  0  0  0  0
    5.9285   12.0130    5.1621 C   0  0  0  0  0  0  0  0  0  0  0  0
    4.6272   12.4477    5.0743 C   0  0  0  0  0  0  0  0  0  0  0  0
    4.4677   13.3845    5.0962 H   0  0  0  0  0  0  0  0  0  0  0  0
    3.5458   11.6152    4.9598 C   0  0  0  0  0  0  0  0  0  0  0  0
    5.4073    8.2482    5.1694 C   0  0  0  0  0  0  0  0  0  0  0  0
    5.0323    7.8681    5.9907 H   0  0  0  0  0  0  0  0  0  0  0  0
    6.3781    8.1167    5.1621 H   0  0  0  0  0  0  0  0  0  0  0  0
    5.0105    7.8039    4.3919 H   0  0  0  0  0  0  0  0  0  0  0  0
    7.0904   12.9562    5.2230 C   0  0  0  0  0  0  0  0  0  0  0  0
    7.3067   13.2674    4.3188 H   0  0  0  0  0  0  0  0  0  0  0  0
    7.8661   12.4959    5.6056 H   0  0  0  0  0  0  0  0  0  0  0  0
    6.8575   13.7262    5.7860 H   0  0  0  0  0  0  0  0  0  0  0  0
    2.1688   12.2023    4.8062 C   0  0  0  0  0  0  0  0  0  0  0  0
    2.2285   13.1808    4.8160 H   0  0  0  0  0  0  0  0  0  0  0  0
    1.6004   11.9023    5.5447 H   0  0  0  0  0  0  0  0  0  0  0  0
    1.7807   11.9088    3.9556 H   0  0  0  0  0  0  0  0  0  0  0  0
    1.9209    6.2848    4.7063 B   0  5  0  0  0  0  0  0  0  0  0  0
    0.4413    6.5687    4.0166 C   0  0  0  0  0  0  0  0  0  0  0  0
    1.2057    7.2096    1.8386 F   0  0  0  0  0  0  0  0  0  0  0  0
    0.1814    6.9922    2.7248 C   0  0  0  0  0  0  0  0  0  0  0  0
   -1.2154    7.6563    0.9359 F   0  0  0  0  0  0  0  0  0  0  0  0
   -1.0673    7.2521    2.2179 C   0  0  0  0  0  0  0  0  0  0  0  0
   -3.3921    7.2922    2.5281 F   0  0  0  0  0  0  0  0  0  0  0  0
   -2.1567    7.0676    3.0173 C   0  0  0  0  0  0  0  0  0  0  0  0
   -3.0424    6.5704    5.1257 F   0  0  0  0  0  0  0  0  0  0  0  0
   -1.9606    6.7163    4.3188 C   0  0  0  0  0  0  0  0  0  0  0  0
   -0.5990    6.1977    6.1062 F   0  0  0  0  0  0  0  0  0  0  0  0
   -0.7026    6.4998    4.8013 C   0  0  0  0  0  0  0  0  0  0  0  0
    2.1240    4.8476    5.4935 C   0  0  0  0  0  0  0  0  0  0  0  0
    0.0010    3.8668    5.0127 F   0  0  0  0  0  0  0  0  0  0  0  0
    1.2130    3.8209    5.6251 C   0  0  0  0  0  0  0  0  0  0  0  0
    0.5038    1.7209    6.4511 F   0  0  0  0  0  0  0  0  0  0  0  0
    1.4514    2.6660    6.3441 C   0  0  0  0  0  0  0  0  0  0  0  0
    2.9496    1.3458    7.6015 F   0  0  0  0  0  0  0  0  0  0  0  0
    2.6721    2.4799    6.9315 C   0  0  0  0  0  0  0  0  0  0  0  0
    4.8807    3.2242    7.2812 F   0  0  0  0  0  0  0  0  0  0  0  0
    3.6456    3.4344    6.7852 C   0  0  0  0  0  0  0  0  0  0  0  0
    4.3514    5.4955    6.0236 F   0  0  0  0  0  0  0  0  0  0  0  0
    3.3438    4.5989    6.0980 C   0  0  0  0  0  0  0  0  0  0  0  0
  1  4  1  0  0  0  0
  2 20  1  0  0  0  0
  3 20  1  0  0  0  0
  4  5  2  0  0  0  0
  5  6  1  0  0  0  0
  7  5  1  0  0  0  0
  8  7  1  0  0  0  0
  9  8  1  0  0  0  0
 10  8  1  0  0  0  0
 11  8  1  0  0  0  0
 12  7  1  0  0  0  0
 13 12  1  0  0  0  0
 14 12  1  0  0  0  0
 15 12  1  0  0  0  0
 16  7  1  0  0  0  0
 17 16  1  0  0  0  0
 18 16  1  0  0  0  0
 19 16  1  0  0  0  0
 20  1  2  0  0  0  0
 21  1  1  0  0  0  0
 22 21  4  0  0  0  0
 23 22  4  0  0  0  0
 24 23  1  0  0  0  0
 25 23  4  0  0  0  0
 26 25  4  0  0  0  0
 27 26  1  0  0  0  0
 28 21  4  0  0  0  0
 29 22  1  0  0  0  0
 30 29  1  0  0  0  0
 31 29  1  0  0  0  0
 32 29  1  0  0  0  0
 33 25  1  0  0  0  0
 34 33  1  0  0  0  0
 35 33  1  0  0  0  0
 36 33  1  0  0  0  0
 37 28  1  0  0  0  0
 38 37  1  0  0  0  0
 39 37  1  0  0  0  0
 40 37  1  0  0  0  0
 41  2  1  0  0  0  0
 42 41  1  0  0  0  0
 43 44  1  0  0  0  0
 44 42  4  0  0  0  0
 45 46  1  0  0  0  0
 46 44  4  0  0  0  0
 47 48  1  0  0  0  0
 48 46  4  0  0  0  0
 49 50  1  0  0  0  0
 50 48  4  0  0  0  0
 51 52  1  0  0  0  0
 52 42  4  0  0  0  0
 53 41  1  0  0  0  0
 54 55  1  0  0  0  0
 55 53  4  0  0  0  0
 56 57  1  0  0  0  0
 57 55  4  0  0  0  0
 58 59  1  0  0  0  0
 59 57  4  0  0  0  0
 60 61  1  0  0  0  0
 61 59  4  0  0  0  0
 62 63  1  0  0  0  0
 63 53  4  0  0  0  0
 64 65  1  0  0  0  0
 66 64  1  0  0  0  0
 67 64  1  0  0  0  0
 68 67  2  0  0  0  0
 69 68  1  0  0  0  0
 70 68  1  0  0  0  0
 71 70  1  0  0  0  0
 72 71  1  0  0  0  0
 73 71  1  0  0  0  0
 74 71  1  0  0  0  0
 75 70  1  0  0  0  0
 76 75  1  0  0  0  0
 77 75  1  0  0  0  0
 78 75  1  0  0  0  0
 79 70  1  0  0  0  0
 80 79  1  0  0  0  0
 81 79  1  0  0  0  0
 82 79  1  0  0  0  0
 83 64  1  0  0  0  0
 84 83  4  0  0  0  0
 85 84  4  0  0  0  0
 86 85  1  0  0  0  0
 87 85  4  0  0  0  0
 88 87  4  0  0  0  0
 89 88  1  0  0  0  0
 90 83  4  0  0  0  0
 91 84  1  0  0  0  0
 92 91  1  0  0  0  0
 93 91  1  0  0  0  0
 94 91  1  0  0  0  0
 95 87  1  0  0  0  0
 96 95  1  0  0  0  0
 97 95  1  0  0  0  0
 98 95  1  0  0  0  0
 99 90  1  0  0  0  0
100 99  1  0  0  0  0
101 99  1  0  0  0  0
102 99  1  0  0  0  0
103  3  1  0  0  0  0
104103  1  0  0  0  0
105106  1  0  0  0  0
106104  4  0  0  0  0
107108  1  0  0  0  0
108106  4  0  0  0  0
109110  1  0  0  0  0
110108  4  0  0  0  0
111112  1  0  0  0  0
112110  4  0  0  0  0
113114  1  0  0  0  0
114104  4  0  0  0  0
115103  1  0  0  0  0
116117  1  0  0  0  0
117115  4  0  0  0  0
118119  1  0  0  0  0
119117  4  0  0  0  0
120121  1  0  0  0  0
121119  4  0  0  0  0
122123  1  0  0  0  0
123121  4  0  0  0  0
124125  1  0  0  0  0
125115  4  0  0  0  0
  4 41  1  0  0  0  0
 26 28  4  0  0  0  0
 50 52  4  0  0  0  0
 61 63  4  0  0  0  0
 67103  1  0  0  0  0
 88 90  4  0  0  0  0
112114  4  0  0  0  0
123125  4  0  0  0  0
M  CHG  4   1   1  41  -1  64   1 103  -1
M  END
$$$$
LEMXOR

From CSD data. Using bond type 'Any'. Matching problem. No disordered atoms. Largest molecule.
 65 78  0  0  0  0  0  0  0  0999 V2000
    0.0000    0.0000    0.0000 Rh  0  0  0  0  0  0  0  0  0  0  0  0
    2.0001    0.6214    0.9828 P   0  0  0  0  0  0  0  0  0  0  0  0
   -1.6650    1.4058    0.8566 P   0  0  0  0  0  0  0  0  0  0  0  0
   -2.0065    1.8900    1.0813 B   0  0  0  0  0  0  0  0  0  0  0  0
    2.5327    0.8112    1.2254 B   0  0  0  0  0  0  0  0  0  0  0  0
    1.8798    0.8656    2.7597 C   0  0  0  0  0  0  0  0  0  0  0  0
    2.7382    1.1202    3.1081 H   0  0  0  0  0  0  0  0  0  0  0  0
    1.2428    1.5603    2.9423 H   0  0  0  0  0  0  0  0  0  0  0  0
    1.5937    0.0509    3.1790 H   0  0  0  0  0  0  0  0  0  0  0  0
    2.7021    2.1825    0.4601 C   0  0  0  0  0  0  0  0  0  0  0  0
    3.5262    2.3379    0.9275 H   0  0  0  0  0  0  0  0  0  0  0  0
    2.8699    2.1592   -0.4854 H   0  0  0  0  0  0  0  0  0  0  0  0
    2.0844    2.8893    0.6584 H   0  0  0  0  0  0  0  0  0  0  0  0
    3.4073   -0.4954    0.8494 C   0  0  0  0  0  0  0  0  0  0  0  0
    4.6492   -0.3202    1.6856 C   0  0  0  0  0  0  0  0  0  0  0  0
    5.2922   -1.0270    1.4681 H   0  0  0  0  0  0  0  0  0  0  0  0
    4.4133   -0.3728    2.6347 H   0  0  0  0  0  0  0  0  0  0  0  0
    5.0495    0.5540    1.4958 H   0  0  0  0  0  0  0  0  0  0  0  0
   -1.1131    3.1154    0.9407 C   0  0  0  0  0  0  0  0  0  0  0  0
   -1.5555    3.9163    1.2519 H   0  0  0  0  0  0  0  0  0  0  0  0
   -0.8748    3.2345    0.0156 H   0  0  0  0  0  0  0  0  0  0  0  0
   -0.2894    3.0136    1.4525 H   0  0  0  0  0  0  0  0  0  0  0  0
   -2.2083    1.0917    2.5026 C   0  0  0  0  0  0  0  0  0  0  0  0
   -2.8498    1.5241    3.0780 H   0  0  0  0  0  0  0  0  0  0  0  0
   -1.3726    1.0045    2.9999 H   0  0  0  0  0  0  0  0  0  0  0  0
   -2.5288    0.1830    2.3320 H   0  0  0  0  0  0  0  0  0  0  0  0
   -3.1973    1.5085   -0.0156 C   0  0  0  0  0  0  0  0  0  0  0  0
   -4.1724    2.6477    0.2018 C   0  0  0  0  0  0  0  0  0  0  0  0
   -3.7133    3.3890    0.6476 H   0  0  0  0  0  0  0  0  0  0  0  0
   -4.9161    2.3387    0.7605 H   0  0  0  0  0  0  0  0  0  0  0  0
   -4.5179    2.9506   -0.6644 H   0  0  0  0  0  0  0  0  0  0  0  0
    0.2330    1.0106   -1.2206 C   0  0  0  0  0  0  0  0  0  0  0  0
    0.0543    1.7493   -1.6940 O   0  0  0  0  0  0  0  0  0  0  0  0
   -2.0001   -0.6214   -0.9828 P   0  0  0  0  0  0  0  0  0  0  0  0
    1.6650   -1.4058   -0.8566 P   0  0  0  0  0  0  0  0  0  0  0  0
    2.0065   -1.8900   -1.0813 B   0  0  0  0  0  0  0  0  0  0  0  0
   -2.5327   -0.8112   -1.2254 B   0  0  0  0  0  0  0  0  0  0  0  0
   -1.8798   -0.8656   -2.7597 C   0  0  0  0  0  0  0  0  0  0  0  0
   -2.7382   -1.1202   -3.1081 H   0  0  0  0  0  0  0  0  0  0  0  0
   -1.2428   -1.5603   -2.9423 H   0  0  0  0  0  0  0  0  0  0  0  0
   -1.5937   -0.0509   -3.1790 H   0  0  0  0  0  0  0  0  0  0  0  0
   -2.7021   -2.1825   -0.4601 C   0  0  0  0  0  0  0  0  0  0  0  0
   -3.5262   -2.3379   -0.9275 H   0  0  0  0  0  0  0  0  0  0  0  0
   -2.8699   -2.1592    0.4854 H   0  0  0  0  0  0  0  0  0  0  0  0
   -2.0844   -2.8893   -0.6584 H   0  0  0  0  0  0  0  0  0  0  0  0
   -3.4073    0.4954   -0.8494 C   0  0  0  0  0  0  0  0  0  0  0  0
   -4.6492    0.3202   -1.6856 C   0  0  0  0  0  0  0  0  0  0  0  0
   -5.2922    1.0270   -1.4681 H   0  0  0  0  0  0  0  0  0  0  0  0
   -4.4133    0.3728   -2.6347 H   0  0  0  0  0  0  0  0  0  0  0  0
   -5.0495   -0.5540   -1.4958 H   0  0  0  0  0  0  0  0  0  0  0  0
    1.1131   -3.1154   -0.9407 C   0  0  0  0  0  0  0  0  0  0  0  0
    1.5555   -3.9163   -1.2519 H   0  0  0  0  0  0  0  0  0  0  0  0
    0.8748   -3.2345   -0.0156 H   0  0  0  0  0  0  0  0  0  0  0  0
    0.2894   -3.0136   -1.4525 H   0  0  0  0  0  0  0  0  0  0  0  0
    2.2083   -1.0917   -2.5026 C   0  0  0  0  0  0  0  0  0  0  0  0
    2.8498   -1.5241   -3.0780 H   0  0  0  0  0  0  0  0  0  0  0  0
    1.3726   -1.0045   -2.9999 H   0  0  0  0  0  0  0  0  0  0  0  0
    2.5288   -0.1830   -2.3320 H   0  0  0  0  0  0  0  0  0  0  0  0
    3.1973   -1.5085    0.0156 C   0  0  0  0  0  0  0  0  0  0  0  0
    4.1724   -2.6477   -0.2018 C   0  0  0  0  0  0  0  0  0  0  0  0
    3.7133   -3.3890   -0.6476 H   0  0  0  0  0  0  0  0  0  0  0  0
    4.9161   -2.3387   -0.7605 H   0  0  0  0  0  0  0  0  0  0  0  0
    4.5179   -2.9506    0.6644 H   0  0  0  0  0  0  0  0  0  0  0  0
   -0.2330   -1.0106    1.2206 C   0  0  0  0  0  0  0  0  0  0  0  0
   -0.0543   -1.7493    1.6940 O   0  0  0  0  0  0  0  0  0  0  0  0
  1  2  1  0  0  0  0
  2  5  1  0  0  0  0
  3  1  1  0  0  0  0
  4  3  1  0  0  0  0
  5  6  1  0  0  0  0
  6  2  1  0  0  0  0
  7  6  1  0  0  0  0
  8  6  1  0  0  0  0
  9  6  1  0  0  0  0
 10  2  1  0  0  0  0
 11 10  1  0  0  0  0
 12 10  1  0  0  0  0
 13 10  1  0  0  0  0
 14  2  1  0  0  0  0
 15 14  1  0  0  0  0
 16 15  1  0  0  0  0
 17 15  1  0  0  0  0
 18 15  1  0  0  0  0
 19  3  1  0  0  0  0
 20 19  1  0  0  0  0
 21 19  1  0  0  0  0
 22 19  1  0  0  0  0
 23  3  1  0  0  0  0
 24 23  1  0  0  0  0
 25 23  1  0  0  0  0
 26 23  1  0  0  0  0
 27  3  1  0  0  0  0
 28 27  1  0  0  0  0
 29 28  1  0  0  0  0
 30 28  1  0  0  0  0
 31 28  1  0  0  0  0
 32  1  1  0  0  0  0
 33 32  1  0  0  0  0
 34  1  1  0  0  0  0
 35  1  1  0  0  0  0
 36 35  1  0  0  0  0
 37 34  1  0  0  0  0
 38 34  1  0  0  0  0
 39 38  1  0  0  0  0
 40 38  1  0  0  0  0
 41 38  1  0  0  0  0
 42 34  1  0  0  0  0
 43 42  1  0  0  0  0
 44 42  1  0  0  0  0
 45 42  1  0  0  0  0
 46 27  1  0  0  0  0
 47 46  1  0  0  0  0
 48 47  1  0  0  0  0
 49 47  1  0  0  0  0
 50 47  1  0  0  0  0
 51 35  1  0  0  0  0
 52 51  1  0  0  0  0
 53 51  1  0  0  0  0
 54 51  1  0  0  0  0
 55 35  1  0  0  0  0
 56 55  1  0  0  0  0
 57 55  1  0  0  0  0
 58 55  1  0  0  0  0
 59 14  1  0  0  0  0
 60 59  1  0  0  0  0
 61 60  1  0  0  0  0
 62 60  1  0  0  0  0
 63 60  1  0  0  0  0
 64  1  1  0  0  0  0
 65 64  1  0  0  0  0
  4 19  1  0  0  0  0
  4 23  1  0  0  0  0
  4 27  1  0  0  0  0
  5 10  1  0  0  0  0
  5 14  1  0  0  0  0
 34 46  1  0  0  0  0
 35 59  1  0  0  0  0
 36 51  1  0  0  0  0
 36 55  1  0  0  0  0
 36 59  1  0  0  0  0
 37 38  1  0  0  0  0
 37 42  1  0  0  0  0
 37 46  1  0  0  0  0
M  END
$$$$
LEVQIN

From CSD data. Using bond type 'Any'. No disordered atoms. Largest molecule.
118132  0  0  0  0  0  0  0  0999 V2000
    6.8515    5.4837    6.5130 Ce  0  0  0  0  0  0  0  0  0  0  0  0
    8.9862    5.4753    4.3762 P   0  0  0  0  0  0  0  0  0  0  0  0
    7.1423    3.5617    2.9305 P   0  0  0  0  0  0  0  0  0  0  0  0
    9.1825    8.4558    4.9023 P   0  0  0  0  0  0  0  0  0  0  0  0
    6.8870    3.0023    4.8411 S   0  0  0  0  0  0  0  0  0  0  0  0
    8.5685    7.8694    6.7212 S   0  0  0  0  0  0  0  0  0  0  0  0
    4.8025    4.2521    7.3928 O   0  0  0  0  0  0  0  0  0  0  0  0
    5.9031    6.7859    8.5218 O   0  0  0  0  0  0  0  0  0  0  0  0
    5.2409    6.8289    4.8706 B   0  0  0  0  0  0  0  0  0  0  0  0
    5.4001    7.2322    5.9043 H   0  0  0  0  0  0  0  0  0  0  0  0
    4.9924    5.6544    4.8111 H   0  0  0  0  0  0  0  0  0  0  0  0
    6.3211    6.6381    4.2752 H   0  0  0  0  0  0  0  0  0  0  0  0
    4.6562    7.3478    4.0608 H   0  0  0  0  0  0  0  0  0  0  0  0
    8.5696    4.1992    8.1574 B   0  0  0  0  0  0  0  0  0  0  0  0
    8.3347    5.1465    8.7076 H   0  0  0  0  0  0  0  0  0  0  0  0
    7.7520    3.5155    7.8644 H   0  0  0  0  0  0  0  0  0  0  0  0
    9.0577    4.5000    7.1785 H   0  0  0  0  0  0  0  0  0  0  0  0
    9.4138    3.3937    8.6432 H   0  0  0  0  0  0  0  0  0  0  0  0
    8.4120    4.7864    2.7961 C   0  0  0  0  0  0  0  0  0  0  0  0
    9.0703    5.1683    1.6291 C   0  0  0  0  0  0  0  0  0  0  0  0
    9.9834    6.2535    1.5862 C   0  0  0  0  0  0  0  0  0  0  0  0
   10.5171    6.3284    0.8265 H   0  0  0  0  0  0  0  0  0  0  0  0
   10.1488    7.2145    2.5818 C   0  0  0  0  0  0  0  0  0  0  0  0
    9.5552    7.0884    3.8536 C   0  0  0  0  0  0  0  0  0  0  0  0
   10.5587    4.5837    4.6563 C   0  0  0  0  0  0  0  0  0  0  0  0
   11.1215    4.6800    3.8846 H   0  0  0  0  0  0  0  0  0  0  0  0
   10.3768    3.6527    4.8063 H   0  0  0  0  0  0  0  0  0  0  0  0
   11.0026    4.9517    5.4232 H   0  0  0  0  0  0  0  0  0  0  0  0
    5.5610    4.1395    2.2364 C   0  0  0  0  0  0  0  0  0  0  0  0
    4.4725    3.2958    2.2507 C   0  0  0  0  0  0  0  0  0  0  0  0
    4.5629    2.4201    2.5532 H   0  0  0  0  0  0  0  0  0  0  0  0
    3.2528    3.7544    1.8125 C   0  0  0  0  0  0  0  0  0  0  0  0
    2.5230    3.1772    1.7958 H   0  0  0  0  0  0  0  0  0  0  0  0
    3.1017    5.0621    1.3981 C   0  0  0  0  0  0  0  0  0  0  0  0
    2.2669    5.3736    1.1313 H   0  0  0  0  0  0  0  0  0  0  0  0
    4.1810    5.8925    1.3814 C   0  0  0  0  0  0  0  0  0  0  0  0
    4.0826    6.7622    1.0718 H   0  0  0  0  0  0  0  0  0  0  0  0
    5.4318    5.4584    1.8220 C   0  0  0  0  0  0  0  0  0  0  0  0
    6.1593    6.0379    1.8387 H   0  0  0  0  0  0  0  0  0  0  0  0
    7.6597    2.1018    1.9721 C   0  0  0  0  0  0  0  0  0  0  0  0
    6.9917    1.6314    0.8622 C   0  0  0  0  0  0  0  0  0  0  0  0
    6.2245    2.0651    0.5668 H   0  0  0  0  0  0  0  0  0  0  0  0
    7.4562    0.5119    0.1810 C   0  0  0  0  0  0  0  0  0  0  0  0
    7.0107    0.2038   -0.5764 H   0  0  0  0  0  0  0  0  0  0  0  0
    8.5765   -0.1372    0.6335 C   0  0  0  0  0  0  0  0  0  0  0  0
    8.8802   -0.8943    0.1905 H   0  0  0  0  0  0  0  0  0  0  0  0
    9.2645    0.3343    1.7553 C   0  0  0  0  0  0  0  0  0  0  0  0
   10.0459   -0.0863    2.0316 H   0  0  0  0  0  0  0  0  0  0  0  0
    8.7838    1.4173    2.4413 C   0  0  0  0  0  0  0  0  0  0  0  0
    9.2069    1.6986    3.2201 H   0  0  0  0  0  0  0  0  0  0  0  0
    8.8875    4.4806    0.2953 C   0  0  0  0  0  0  0  0  0  0  0  0
    9.9145    3.6463   -0.1643 C   0  0  0  0  0  0  0  0  0  0  0  0
   10.6321    3.4531    0.3954 H   0  0  0  0  0  0  0  0  0  0  0  0
    9.8751    3.1119   -1.4290 C   0  0  0  0  0  0  0  0  0  0  0  0
   10.5659    2.5584   -1.7172 H   0  0  0  0  0  0  0  0  0  0  0  0
    8.8292    3.3844   -2.2769 C   0  0  0  0  0  0  0  0  0  0  0  0
    8.8051    3.0228   -3.1343 H   0  0  0  0  0  0  0  0  0  0  0  0
    7.7986    4.2172   -1.8244 C   0  0  0  0  0  0  0  0  0  0  0  0
    7.0755    4.3987   -2.3793 H   0  0  0  0  0  0  0  0  0  0  0  0
    7.8484    4.7654   -0.5621 C   0  0  0  0  0  0  0  0  0  0  0  0
    7.1706    5.3380   -0.2858 H   0  0  0  0  0  0  0  0  0  0  0  0
   11.0173    8.3721    2.2293 C   0  0  0  0  0  0  0  0  0  0  0  0
   10.6380    9.3357    1.2909 C   0  0  0  0  0  0  0  0  0  0  0  0
    9.7886    9.3112    0.9122 H   0  0  0  0  0  0  0  0  0  0  0  0
   11.5504   10.3438    0.9241 C   0  0  0  0  0  0  0  0  0  0  0  0
   11.3021   10.9969    0.3120 H   0  0  0  0  0  0  0  0  0  0  0  0
   12.8186   10.3583    1.4790 C   0  0  0  0  0  0  0  0  0  0  0  0
   13.4233   11.0175    1.2266 H   0  0  0  0  0  0  0  0  0  0  0  0
   13.1850    9.4275    2.3793 C   0  0  0  0  0  0  0  0  0  0  0  0
   14.0368    9.4641    2.7509 H   0  0  0  0  0  0  0  0  0  0  0  0
   12.3183    8.4202    2.7628 C   0  0  0  0  0  0  0  0  0  0  0  0
   12.5954    7.7740    3.3725 H   0  0  0  0  0  0  0  0  0  0  0  0
   10.6118    9.5553    5.1874 C   0  0  0  0  0  0  0  0  0  0  0  0
   10.7054   10.8070    4.6039 C   0  0  0  0  0  0  0  0  0  0  0  0
   10.0292   11.1171    4.0465 H   0  0  0  0  0  0  0  0  0  0  0  0
   11.8165   11.5952    4.8635 C   0  0  0  0  0  0  0  0  0  0  0  0
   11.8838   12.4366    4.4729 H   0  0  0  0  0  0  0  0  0  0  0  0
   12.8192   11.1513    5.6899 C   0  0  0  0  0  0  0  0  0  0  0  0
   13.5495   11.6970    5.8709 H   0  0  0  0  0  0  0  0  0  0  0  0
   12.7373    9.9050    6.2401 C   0  0  0  0  0  0  0  0  0  0  0  0
   13.4315    9.5862    6.7712 H   0  0  0  0  0  0  0  0  0  0  0  0
   11.6159    9.1096    6.0091 C   0  0  0  0  0  0  0  0  0  0  0  0
   11.5479    8.2758    6.4140 H   0  0  0  0  0  0  0  0  0  0  0  0
    7.9204    9.4885    4.0727 C   0  0  0  0  0  0  0  0  0  0  0  0
    7.4282    9.1654    2.8128 C   0  0  0  0  0  0  0  0  0  0  0  0
    7.7317    8.4003    2.3817 H   0  0  0  0  0  0  0  0  0  0  0  0
    6.5103    9.9575    2.2079 C   0  0  0  0  0  0  0  0  0  0  0  0
    6.2016    9.7348    1.3576 H   0  0  0  0  0  0  0  0  0  0  0  0
    6.0283   11.0851    2.8271 C   0  0  0  0  0  0  0  0  0  0  0  0
    5.4096   11.6266    2.3936 H   0  0  0  0  0  0  0  0  0  0  0  0
    6.4704   11.4096    4.0966 C   0  0  0  0  0  0  0  0  0  0  0  0
    6.1370   12.1611    4.5276 H   0  0  0  0  0  0  0  0  0  0  0  0
    7.4159   10.6060    4.7277 C   0  0  0  0  0  0  0  0  0  0  0  0
    7.7080   10.8145    5.5851 H   0  0  0  0  0  0  0  0  0  0  0  0
    4.7136    2.9095    7.9835 C   0  0  0  0  0  0  0  0  0  0  0  0
    5.1596    2.8879    8.8457 H   0  0  0  0  0  0  0  0  0  0  0  0
    5.1277    2.2534    7.4024 H   0  0  0  0  0  0  0  0  0  0  0  0
    3.2326    2.6242    8.1407 C   0  0  0  0  0  0  0  0  0  0  0  0
    3.0630    2.1209    8.9529 H   0  0  0  0  0  0  0  0  0  0  0  0
    2.8952    2.1224    7.3833 H   0  0  0  0  0  0  0  0  0  0  0  0
    2.5866    4.0003    8.2122 C   0  0  0  0  0  0  0  0  0  0  0  0
    1.6607    3.9738    7.9240 H   0  0  0  0  0  0  0  0  0  0  0  0
    2.6318    4.3695    9.1077 H   0  0  0  0  0  0  0  0  0  0  0  0
    3.4480    4.7912    7.2428 C   0  0  0  0  0  0  0  0  0  0  0  0
    3.1331    4.6757    6.3306 H   0  0  0  0  0  0  0  0  0  0  0  0
    3.4301    5.7366    7.4595 H   0  0  0  0  0  0  0  0  0  0  0  0
    5.7186    6.1755    9.7936 C   0  0  0  0  0  0  0  0  0  0  0  0
    6.3908    5.4924    9.9413 H   0  0  0  0  0  0  0  0  0  0  0  0
    4.8415    5.7671    9.8484 H   0  0  0  0  0  0  0  0  0  0  0  0
    5.8493    7.2718   10.8106 C   0  0  0  0  0  0  0  0  0  0  0  0
    5.1132    7.2362   11.4418 H   0  0  0  0  0  0  0  0  0  0  0  0
    6.6810    7.1776   11.3012 H   0  0  0  0  0  0  0  0  0  0  0  0
    5.8324    8.5285   10.0818 C   0  0  0  0  0  0  0  0  0  0  0  0
    6.6902    8.9741   10.1556 H   0  0  0  0  0  0  0  0  0  0  0  0
    5.1470    9.1159   10.4391 H   0  0  0  0  0  0  0  0  0  0  0  0
    5.5323    8.1842    8.6194 C   0  0  0  0  0  0  0  0  0  0  0  0
    4.5920    8.3116    8.4170 H   0  0  0  0  0  0  0  0  0  0  0  0
    6.0619    8.7283    8.0169 H   0  0  0  0  0  0  0  0  0  0  0  0
  1  2  1  0  0  0  0
  2 19  1  0  0  0  0
  3  5  2  0  0  0  0
  4  6  2  0  0  0  0
  5  1  1  0  0  0  0
  6  1  1  0  0  0  0
  7  1  1  0  0  0  0
  8  1  1  0  0  0  0
  9 10  1  0  0  0  0
 10  1  1  0  0  0  0
 11  1  1  0  0  0  0
 12  1  1  0  0  0  0
 13  9  1  0  0  0  0
 14 15  1  0  0  0  0
 15  1  1  0  0  0  0
 16  1  1  0  0  0  0
 17  1  1  0  0  0  0
 18 14  1  0  0  0  0
 19  3  1  0  0  0  0
 20 19  8  0  0  0  0
 21 20  8  0  0  0  0
 22 21  1  0  0  0  0
 23 21  8  0  0  0  0
 24  2  1  0  0  0  0
 25  2  1  0  0  0  0
 26 25  1  0  0  0  0
 27 25  1  0  0  0  0
 28 25  1  0  0  0  0
 29  3  1  0  0  0  0
 30 29  4  0  0  0  0
 31 30  1  0  0  0  0
 32 30  4  0  0  0  0
 33 32  1  0  0  0  0
 34 32  4  0  0  0  0
 35 34  1  0  0  0  0
 36 34  4  0  0  0  0
 37 36  1  0  0  0  0
 38 29  4  0  0  0  0
 39 38  1  0  0  0  0
 40  3  1  0  0  0  0
 41 40  4  0  0  0  0
 42 41  1  0  0  0  0
 43 41  4  0  0  0  0
 44 43  1  0  0  0  0
 45 43  4  0  0  0  0
 46 45  1  0  0  0  0
 47 45  4  0  0  0  0
 48 47  1  0  0  0  0
 49 40  4  0  0  0  0
 50 49  1  0  0  0  0
 51 20  1  0  0  0  0
 52 51  4  0  0  0  0
 53 52  1  0  0  0  0
 54 52  4  0  0  0  0
 55 54  1  0  0  0  0
 56 54  4  0  0  0  0
 57 56  1  0  0  0  0
 58 56  4  0  0  0  0
 59 58  1  0  0  0  0
 60 51  4  0  0  0  0
 61 60  1  0  0  0  0
 62 23  1  0  0  0  0
 63 62  4  0  0  0  0
 64 63  1  0  0  0  0
 65 63  4  0  0  0  0
 66 65  1  0  0  0  0
 67 65  4  0  0  0  0
 68 67  1  0  0  0  0
 69 67  4  0  0  0  0
 70 69  1  0  0  0  0
 71 62  4  0  0  0  0
 72 71  1  0  0  0  0
 73  4  1  0  0  0  0
 74 73  4  0  0  0  0
 75 74  1  0  0  0  0
 76 74  4  0  0  0  0
 77 76  1  0  0  0  0
 78 76  4  0  0  0  0
 79 78  1  0  0  0  0
 80 78  4  0  0  0  0
 81 80  1  0  0  0  0
 82 73  4  0  0  0  0
 83 82  1  0  0  0  0
 84  4  1  0  0  0  0
 85 84  4  0  0  0  0
 86 85  1  0  0  0  0
 87 85  4  0  0  0  0
 88 87  1  0  0  0  0
 89 87  4  0  0  0  0
 90 89  1  0  0  0  0
 91 89  4  0  0  0  0
 92 91  1  0  0  0  0
 93 84  4  0  0  0  0
 94 93  1  0  0  0  0
 95  7  1  0  0  0  0
 96 95  1  0  0  0  0
 97 95  1  0  0  0  0
 98 95  1  0  0  0  0
 99 98  1  0  0  0  0
100 98  1  0  0  0  0
101 98  1  0  0  0  0
102101  1  0  0  0  0
103101  1  0  0  0  0
104  7  1  0  0  0  0
105104  1  0  0  0  0
106104  1  0  0  0  0
107  8  1  0  0  0  0
108107  1  0  0  0  0
109107  1  0  0  0  0
110107  1  0  0  0  0
111110  1  0  0  0  0
112110  1  0  0  0  0
113110  1  0  0  0  0
114113  1  0  0  0  0
115113  1  0  0  0  0
116  8  1  0  0  0  0
117116  1  0  0  0  0
118116  1  0  0  0  0
  4 24  1  0  0  0  0
  9 11  1  0  0  0  0
  9 12  1  0  0  0  0
 14 16  1  0  0  0  0
 14 17  1  0  0  0  0
 23 24  8  0  0  0  0
 36 38  4  0  0  0  0
 47 49  4  0  0  0  0
 58 60  4  0  0  0  0
 69 71  4  0  0  0  0
 80 82  4  0  0  0  0
 91 93  4  0  0  0  0
101104  1  0  0  0  0
113116  1  0  0  0  0
M  END
$$$$
LEVQOT

From CSD data. Using bond type 'Any'. No disordered atoms. Largest molecule.
118132  0  0  0  0  0  0  0  0999 V2000
    6.8724    5.5043    6.4912 Nd  0  0  0  0  0  0  0  0  0  0  0  0
    8.9779    5.4908    4.3829 P   0  0  0  0  0  0  0  0  0  0  0  0
    7.1406    3.5840    2.9383 P   0  0  0  0  0  0  0  0  0  0  0  0
    9.1785    8.4676    4.9108 P   0  0  0  0  0  0  0  0  0  0  0  0
    6.8861    3.0369    4.8521 S   0  0  0  0  0  0  0  0  0  0  0  0
    8.5621    7.8694    6.7266 S   0  0  0  0  0  0  0  0  0  0  0  0
    4.8296    4.2784    7.3535 O   0  0  0  0  0  0  0  0  0  0  0  0
    5.9427    6.7869    8.4901 O   0  0  0  0  0  0  0  0  0  0  0  0
    5.2815    6.7986    4.8611 B   0  0  0  0  0  0  0  0  0  0  0  0
    6.3118    7.1311    4.7232 H   0  0  0  0  0  0  0  0  0  0  0  0
    5.2972    7.3155    5.8600 H   0  0  0  0  0  0  0  0  0  0  0  0
    5.1034    5.6682    4.9634 H   0  0  0  0  0  0  0  0  0  0  0  0
    4.6651    7.4247    4.1809 H   0  0  0  0  0  0  0  0  0  0  0  0
    8.5423    4.2290    8.1122 B   0  0  0  0  0  0  0  0  0  0  0  0
    8.3021    5.2229    8.3881 H   0  0  0  0  0  0  0  0  0  0  0  0
    7.7402    3.6552    7.8934 H   0  0  0  0  0  0  0  0  0  0  0  0
    9.0092    4.5633    7.3036 H   0  0  0  0  0  0  0  0  0  0  0  0
    9.1550    3.7742    8.7662 H   0  0  0  0  0  0  0  0  0  0  0  0
    8.4172    4.8180    2.8087 C   0  0  0  0  0  0  0  0  0  0  0  0
    9.0621    5.1952    1.6362 C   0  0  0  0  0  0  0  0  0  0  0  0
    9.9821    6.2620    1.5887 C   0  0  0  0  0  0  0  0  0  0  0  0
   10.5163    6.3372    0.8300 H   0  0  0  0  0  0  0  0  0  0  0  0
   10.1512    7.2231    2.6018 C   0  0  0  0  0  0  0  0  0  0  0  0
    9.5593    7.0950    3.8551 C   0  0  0  0  0  0  0  0  0  0  0  0
   10.5537    4.6005    4.6590 C   0  0  0  0  0  0  0  0  0  0  0  0
   11.1046    4.6735    3.8765 H   0  0  0  0  0  0  0  0  0  0  0  0
   10.3710    3.6746    4.8373 H   0  0  0  0  0  0  0  0  0  0  0  0
   11.0112    4.9851    5.4105 H   0  0  0  0  0  0  0  0  0  0  0  0
    5.5593    4.1652    2.2546 C   0  0  0  0  0  0  0  0  0  0  0  0
    4.4788    3.3077    2.2546 C   0  0  0  0  0  0  0  0  0  0  0  0
    4.5781    2.4335    2.5542 H   0  0  0  0  0  0  0  0  0  0  0  0
    3.2455    3.7523    1.8075 C   0  0  0  0  0  0  0  0  0  0  0  0
    2.5175    3.1743    1.8027 H   0  0  0  0  0  0  0  0  0  0  0  0
    3.0968    5.0607    1.3651 C   0  0  0  0  0  0  0  0  0  0  0  0
    2.2700    5.3589    1.0631 H   0  0  0  0  0  0  0  0  0  0  0  0
    4.1694    5.9126    1.3770 C   0  0  0  0  0  0  0  0  0  0  0  0
    4.0672    6.7940    1.0964 H   0  0  0  0  0  0  0  0  0  0  0  0
    5.4223    5.4579    1.8122 C   0  0  0  0  0  0  0  0  0  0  0  0
    6.1562    6.0280    1.8051 H   0  0  0  0  0  0  0  0  0  0  0  0
    7.6348    2.1156    2.0049 C   0  0  0  0  0  0  0  0  0  0  0  0
    6.9953    1.6526    0.8633 C   0  0  0  0  0  0  0  0  0  0  0  0
    6.2423    2.0982    0.5494 H   0  0  0  0  0  0  0  0  0  0  0  0
    7.4582    0.5344    0.1831 C   0  0  0  0  0  0  0  0  0  0  0  0
    7.0120    0.2290   -0.5732 H   0  0  0  0  0  0  0  0  0  0  0  0
    8.5822   -0.1175    0.6326 C   0  0  0  0  0  0  0  0  0  0  0  0
    8.9002   -0.8652    0.1784 H   0  0  0  0  0  0  0  0  0  0  0  0
    9.2457    0.3327    1.7670 C   0  0  0  0  0  0  0  0  0  0  0  0
   10.0085   -0.1072    2.0667 H   0  0  0  0  0  0  0  0  0  0  0  0
    8.7735    1.4304    2.4496 C   0  0  0  0  0  0  0  0  0  0  0  0
    9.2156    1.7216    3.2130 H   0  0  0  0  0  0  0  0  0  0  0  0
    8.8692    4.5046    0.3044 C   0  0  0  0  0  0  0  0  0  0  0  0
    9.8677    3.6507   -0.1451 C   0  0  0  0  0  0  0  0  0  0  0  0
   10.5701    3.4354    0.4257 H   0  0  0  0  0  0  0  0  0  0  0  0
    9.8455    3.1097   -1.4151 C   0  0  0  0  0  0  0  0  0  0  0  0
   10.5357    2.5531   -1.6981 H   0  0  0  0  0  0  0  0  0  0  0  0
    8.8116    3.3925   -2.2522 C   0  0  0  0  0  0  0  0  0  0  0  0
    8.7827    3.0125   -3.1012 H   0  0  0  0  0  0  0  0  0  0  0  0
    7.8023    4.2455   -1.8408 C   0  0  0  0  0  0  0  0  0  0  0  0
    7.0939    4.4405   -2.4115 H   0  0  0  0  0  0  0  0  0  0  0  0
    7.8466    4.8158   -0.5708 C   0  0  0  0  0  0  0  0  0  0  0  0
    7.1818    5.4126   -0.3092 H   0  0  0  0  0  0  0  0  0  0  0  0
   11.0329    8.3671    2.2332 C   0  0  0  0  0  0  0  0  0  0  0  0
   10.6723    9.3363    1.3009 C   0  0  0  0  0  0  0  0  0  0  0  0
    9.8238    9.3178    0.9204 H   0  0  0  0  0  0  0  0  0  0  0  0
   11.5746   10.3315    0.9346 C   0  0  0  0  0  0  0  0  0  0  0  0
   11.3271   10.9768    0.3139 H   0  0  0  0  0  0  0  0  0  0  0  0
   12.8410   10.3622    1.4983 C   0  0  0  0  0  0  0  0  0  0  0  0
   13.4431   11.0265    1.2533 H   0  0  0  0  0  0  0  0  0  0  0  0
   13.2089    9.4074    2.4210 C   0  0  0  0  0  0  0  0  0  0  0  0
   14.0581    9.4284    2.7992 H   0  0  0  0  0  0  0  0  0  0  0  0
   12.3167    8.4219    2.7802 C   0  0  0  0  0  0  0  0  0  0  0  0
   12.5751    7.7788    3.4009 H   0  0  0  0  0  0  0  0  0  0  0  0
   10.5919    9.5704    5.1869 C   0  0  0  0  0  0  0  0  0  0  0  0
   10.7201   10.8179    4.6019 C   0  0  0  0  0  0  0  0  0  0  0  0
   10.0617   11.1218    4.0216 H   0  0  0  0  0  0  0  0  0  0  0  0
   11.8145   11.6141    4.8730 C   0  0  0  0  0  0  0  0  0  0  0  0
   11.8784   12.4562    4.4830 H   0  0  0  0  0  0  0  0  0  0  0  0
   12.8063   11.1762    5.7078 C   0  0  0  0  0  0  0  0  0  0  0  0
   13.5422   11.7157    5.8838 H   0  0  0  0  0  0  0  0  0  0  0  0
   12.7101    9.9220    6.2928 C   0  0  0  0  0  0  0  0  0  0  0  0
   13.3867    9.6241    6.8565 H   0  0  0  0  0  0  0  0  0  0  0  0
   11.6176    9.1078    6.0455 C   0  0  0  0  0  0  0  0  0  0  0  0
   11.5585    8.2677    6.4379 H   0  0  0  0  0  0  0  0  0  0  0  0
    7.9229    9.5045    4.0834 C   0  0  0  0  0  0  0  0  0  0  0  0
    7.4561    9.1831    2.8230 C   0  0  0  0  0  0  0  0  0  0  0  0
    7.7712    8.4222    2.3901 H   0  0  0  0  0  0  0  0  0  0  0  0
    6.5232    9.9876    2.2094 C   0  0  0  0  0  0  0  0  0  0  0  0
    6.2087    9.7694    1.3627 H   0  0  0  0  0  0  0  0  0  0  0  0
    6.0529   11.1165    2.8468 C   0  0  0  0  0  0  0  0  0  0  0  0
    5.4391   11.6676    2.4163 H   0  0  0  0  0  0  0  0  0  0  0  0
    6.4827   11.4377    4.1096 C   0  0  0  0  0  0  0  0  0  0  0  0
    6.1511   12.1921    4.5401 H   0  0  0  0  0  0  0  0  0  0  0  0
    7.4110   10.6315    4.7422 C   0  0  0  0  0  0  0  0  0  0  0  0
    7.6967   10.8393    5.6031 H   0  0  0  0  0  0  0  0  0  0  0  0
    4.7447    2.9563    7.9552 C   0  0  0  0  0  0  0  0  0  0  0  0
    5.1782    2.9473    8.8233 H   0  0  0  0  0  0  0  0  0  0  0  0
    5.1685    2.2958    7.3868 H   0  0  0  0  0  0  0  0  0  0  0  0
    3.2687    2.6708    8.0955 C   0  0  0  0  0  0  0  0  0  0  0  0
    3.0892    2.1529    8.8946 H   0  0  0  0  0  0  0  0  0  0  0  0
    2.9336    2.1892    7.3226 H   0  0  0  0  0  0  0  0  0  0  0  0
    2.6394    4.0462    8.1907 C   0  0  0  0  0  0  0  0  0  0  0  0
    1.7102    4.0316    7.9124 H   0  0  0  0  0  0  0  0  0  0  0  0
    2.6999    4.4035    9.0896 H   0  0  0  0  0  0  0  0  0  0  0  0
    3.4939    4.8319    7.2227 C   0  0  0  0  0  0  0  0  0  0  0  0
    3.1680    4.7253    6.3142 H   0  0  0  0  0  0  0  0  0  0  0  0
    3.4895    5.7741    7.4486 H   0  0  0  0  0  0  0  0  0  0  0  0
    5.7699    6.1862    9.7888 C   0  0  0  0  0  0  0  0  0  0  0  0
    4.8985    5.7658    9.8554 H   0  0  0  0  0  0  0  0  0  0  0  0
    6.4505    5.5143    9.9458 H   0  0  0  0  0  0  0  0  0  0  0  0
    5.8869    7.2537   10.7473 C   0  0  0  0  0  0  0  0  0  0  0  0
    6.7300    7.1801   11.2229 H   0  0  0  0  0  0  0  0  0  0  0  0
    5.1662    7.1979   11.3941 H   0  0  0  0  0  0  0  0  0  0  0  0
    5.8204    8.5525   10.0219 C   0  0  0  0  0  0  0  0  0  0  0  0
    6.6595    9.0315   10.0980 H   0  0  0  0  0  0  0  0  0  0  0  0
    5.1073    9.1071   10.3739 H   0  0  0  0  0  0  0  0  0  0  0  0
    5.5460    8.1705    8.5902 C   0  0  0  0  0  0  0  0  0  0  0  0
    4.6046    8.2733    8.3809 H   0  0  0  0  0  0  0  0  0  0  0  0
    6.0643    8.7222    7.9838 H   0  0  0  0  0  0  0  0  0  0  0  0
  1  2  1  0  0  0  0
  2 19  1  0  0  0  0
  3  5  2  0  0  0  0
  4  6  2  0  0  0  0
  5  1  1  0  0  0  0
  6  1  1  0  0  0  0
  7  1  1  0  0  0  0
  8  1  1  0  0  0  0
  9 10  1  0  0  0  0
 10  1  1  0  0  0  0
 11  1  1  0  0  0  0
 12  1  1  0  0  0  0
 13  9  1  0  0  0  0
 14 15  1  0  0  0  0
 15  1  1  0  0  0  0
 16  1  1  0  0  0  0
 17  1  1  0  0  0  0
 18 14  1  0  0  0  0
 19  3  1  0  0  0  0
 20 19  8  0  0  0  0
 21 20  8  0  0  0  0
 22 21  1  0  0  0  0
 23 21  8  0  0  0  0
 24  2  1  0  0  0  0
 25  2  1  0  0  0  0
 26 25  1  0  0  0  0
 27 25  1  0  0  0  0
 28 25  1  0  0  0  0
 29  3  1  0  0  0  0
 30 29  4  0  0  0  0
 31 30  1  0  0  0  0
 32 30  4  0  0  0  0
 33 32  1  0  0  0  0
 34 32  4  0  0  0  0
 35 34  1  0  0  0  0
 36 34  4  0  0  0  0
 37 36  1  0  0  0  0
 38 29  4  0  0  0  0
 39 38  1  0  0  0  0
 40  3  1  0  0  0  0
 41 40  4  0  0  0  0
 42 41  1  0  0  0  0
 43 41  4  0  0  0  0
 44 43  1  0  0  0  0
 45 43  4  0  0  0  0
 46 45  1  0  0  0  0
 47 45  4  0  0  0  0
 48 47  1  0  0  0  0
 49 40  4  0  0  0  0
 50 49  1  0  0  0  0
 51 20  1  0  0  0  0
 52 51  4  0  0  0  0
 53 52  1  0  0  0  0
 54 52  4  0  0  0  0
 55 54  1  0  0  0  0
 56 54  4  0  0  0  0
 57 56  1  0  0  0  0
 58 56  4  0  0  0  0
 59 58  1  0  0  0  0
 60 51  4  0  0  0  0
 61 60  1  0  0  0  0
 62 23  1  0  0  0  0
 63 62  4  0  0  0  0
 64 63  1  0  0  0  0
 65 63  4  0  0  0  0
 66 65  1  0  0  0  0
 67 65  4  0  0  0  0
 68 67  1  0  0  0  0
 69 67  4  0  0  0  0
 70 69  1  0  0  0  0
 71 62  4  0  0  0  0
 72 71  1  0  0  0  0
 73  4  1  0  0  0  0
 74 73  4  0  0  0  0
 75 74  1  0  0  0  0
 76 74  4  0  0  0  0
 77 76  1  0  0  0  0
 78 76  4  0  0  0  0
 79 78  1  0  0  0  0
 80 78  4  0  0  0  0
 81 80  1  0  0  0  0
 82 73  4  0  0  0  0
 83 82  1  0  0  0  0
 84  4  1  0  0  0  0
 85 84  4  0  0  0  0
 86 85  1  0  0  0  0
 87 85  4  0  0  0  0
 88 87  1  0  0  0  0
 89 87  4  0  0  0  0
 90 89  1  0  0  0  0
 91 89  4  0  0  0  0
 92 91  1  0  0  0  0
 93 84  4  0  0  0  0
 94 93  1  0  0  0  0
 95  7  1  0  0  0  0
 96 95  1  0  0  0  0
 97 95  1  0  0  0  0
 98 95  1  0  0  0  0
 99 98  1  0  0  0  0
100 98  1  0  0  0  0
101 98  1  0  0  0  0
102101  1  0  0  0  0
103101  1  0  0  0  0
104  7  1  0  0  0  0
105104  1  0  0  0  0
106104  1  0  0  0  0
107  8  1  0  0  0  0
108107  1  0  0  0  0
109107  1  0  0  0  0
110107  1  0  0  0  0
111110  1  0  0  0  0
112110  1  0  0  0  0
113110  1  0  0  0  0
114113  1  0  0  0  0
115113  1  0  0  0  0
116  8  1  0  0  0  0
117116  1  0  0  0  0
118116  1  0  0  0  0
  4 24  1  0  0  0  0
  9 11  1  0  0  0  0
  9 12  1  0  0  0  0
 14 16  1  0  0  0  0
 14 17  1  0  0  0  0
 23 24  8  0  0  0  0
 36 38  4  0  0  0  0
 47 49  4  0  0  0  0
 58 60  4  0  0  0  0
 69 71  4  0  0  0  0
 80 82  4  0  0  0  0
 91 93  4  0  0  0  0
101104  1  0  0  0  0
113116  1  0  0  0  0
M  END
$$$$
LIHWAC

From CSD data. Using bond type 'Any'. No disordered atoms. Largest molecule.
142157  0  0  0  0  0  0  0  0999 V2000
    0.8071    3.6200   10.2201 S   0  0  0  0  0  0  0  0  0  0  0  0
    3.8710    5.7863   11.0969 S   0  0  0  0  0  0  0  0  0  0  0  0
    0.4355    2.0140    9.1048 P   0  0  0  0  0  0  0  0  0  0  0  0
    5.6296    6.2083   10.2803 P   0  0  0  0  0  0  0  0  0  0  0  0
    2.5867   -0.1325   10.0139 Si  0  0  0  0  0  0  0  0  0  0  0  0
    4.7461    8.2949    8.0901 Si  0  0  0  0  0  0  0  0  0  0  0  0
    1.8958    1.0610    8.6876 C   0  0  0  0  0  0  0  0  0  0  0  0
    2.8660    0.7444   11.6457 C   0  0  0  0  0  0  0  0  0  0  0  0
    3.5121    0.2383   12.1819 H   0  0  0  0  0  0  0  0  0  0  0  0
    2.0175    0.8086   12.1307 H   0  0  0  0  0  0  0  0  0  0  0  0
    3.2167    1.6442   11.4768 H   0  0  0  0  0  0  0  0  0  0  0  0
    5.5283    6.6531    8.5632 C   0  0  0  0  0  0  0  0  0  0  0  0
    2.9238    8.3320    8.5530 C   0  0  0  0  0  0  0  0  0  0  0  0
    2.4608    7.5856    8.1172 H   0  0  0  0  0  0  0  0  0  0  0  0
    2.5283    9.1794    8.2587 H   0  0  0  0  0  0  0  0  0  0  0  0
    2.8325    8.2501    9.5250 H   0  0  0  0  0  0  0  0  0  0  0  0
    3.0626    2.1257    8.1928 B   0  5  0  0  0  0  0  0  0  0  0  0
    4.7279    5.4294    7.7561 B   0  5  0  0  0  0  0  0  0  0  0  0
    3.0794    4.2823    9.2761 Li  0  3  0  0  0  0  0  0  0  0  0  0
    4.2197    3.5102    6.4362 Li  0  3  0  0  0  0  0  0  0  0  0  0
    1.6116    0.4334    7.9318 H   0  0  0  0  0  0  0  0  0  0  0  0
    2.5953    2.9538    7.6878 H   0  0  0  0  0  0  0  0  0  0  0  0
    3.6954    2.5485    9.0687 H   0  0  0  0  0  0  0  0  0  0  0  0
    3.8787    1.5841    7.4902 H   0  0  0  0  0  0  0  0  0  0  0  0
    6.2517    6.7131    8.3392 H   0  0  0  0  0  0  0  0  0  0  0  0
    5.0517    5.4065    6.6363 H   0  0  0  0  0  0  0  0  0  0  0  0
    3.4275    5.5335    7.8903 H   0  0  0  0  0  0  0  0  0  0  0  0
    4.9627    4.4825    8.1928 H   0  0  0  0  0  0  0  0  0  0  0  0
   -0.7993    0.9526    9.9593 C   0  0  0  0  0  0  0  0  0  0  0  0
   -1.5590    0.0446    9.2590 C   0  0  0  0  0  0  0  0  0  0  0  0
   -1.4866    0.0012    8.3124 H   0  0  0  0  0  0  0  0  0  0  0  0
   -2.4274   -0.8108    9.9178 C   0  0  0  0  0  0  0  0  0  0  0  0
   -2.9448   -1.4328    9.4176 H   0  0  0  0  0  0  0  0  0  0  0  0
   -2.5422   -0.7693   11.2475 C   0  0  0  0  0  0  0  0  0  0  0  0
   -3.1458   -1.3489   11.6988 H   0  0  0  0  0  0  0  0  0  0  0  0
   -1.7781    0.1157   11.9477 C   0  0  0  0  0  0  0  0  0  0  0  0
   -1.8374    0.1272   12.8968 H   0  0  0  0  0  0  0  0  0  0  0  0
   -0.9255    0.9938   11.3231 C   0  0  0  0  0  0  0  0  0  0  0  0
   -0.4297    1.6223   11.8330 H   0  0  0  0  0  0  0  0  0  0  0  0
   -0.3602    2.4646    7.5226 C   0  0  0  0  0  0  0  0  0  0  0  0
   -0.4089    1.6007    6.4484 C   0  0  0  0  0  0  0  0  0  0  0  0
   -0.0072    0.7423    6.5191 H   0  0  0  0  0  0  0  0  0  0  0  0
   -1.0323    1.9681    5.2773 C   0  0  0  0  0  0  0  0  0  0  0  0
   -1.0511    1.3631    4.5453 H   0  0  0  0  0  0  0  0  0  0  0  0
   -1.6214    3.1899    5.1651 C   0  0  0  0  0  0  0  0  0  0  0  0
   -2.0590    3.4300    4.3550 H   0  0  0  0  0  0  0  0  0  0  0  0
   -1.5832    4.0753    6.2142 C   0  0  0  0  0  0  0  0  0  0  0  0
   -1.9798    4.9348    6.1263 H   0  0  0  0  0  0  0  0  0  0  0  0
   -0.9669    3.7134    7.3999 C   0  0  0  0  0  0  0  0  0  0  0  0
   -0.9558    4.3184    8.1319 H   0  0  0  0  0  0  0  0  0  0  0  0
    1.5023   -1.6310   10.1945 C   0  0  0  0  0  0  0  0  0  0  0  0
    1.4146   -2.3208   11.4329 C   0  0  0  0  0  0  0  0  0  0  0  0
    1.8532   -1.9737   12.2014 H   0  0  0  0  0  0  0  0  0  0  0  0
    0.6980   -3.4917   11.5305 C   0  0  0  0  0  0  0  0  0  0  0  0
    0.6330   -3.9276   12.3698 H   0  0  0  0  0  0  0  0  0  0  0  0
    0.0737   -4.0420   10.4350 C   0  0  0  0  0  0  0  0  0  0  0  0
   -0.4068   -4.8551   10.5204 H   0  0  0  0  0  0  0  0  0  0  0  0
    0.1460   -3.4146    9.2273 C   0  0  0  0  0  0  0  0  0  0  0  0
   -0.2776   -3.7877    8.4637 H   0  0  0  0  0  0  0  0  0  0  0  0
    0.8497   -2.2202    9.1273 C   0  0  0  0  0  0  0  0  0  0  0  0
    0.8839   -1.7854    8.2831 H   0  0  0  0  0  0  0  0  0  0  0  0
    4.2653   -0.7564    9.4127 C   0  0  0  0  0  0  0  0  0  0  0  0
    5.4301    0.0199    9.4542 C   0  0  0  0  0  0  0  0  0  0  0  0
    5.3691    0.9219    9.7470 H   0  0  0  0  0  0  0  0  0  0  0  0
    6.6682   -0.4824    9.0834 C   0  0  0  0  0  0  0  0  0  0  0  0
    7.4410    0.0690    9.1200 H   0  0  0  0  0  0  0  0  0  0  0  0
    6.7604   -1.7901    8.6588 C   0  0  0  0  0  0  0  0  0  0  0  0
    7.5964   -2.1342    8.3685 H   0  0  0  0  0  0  0  0  0  0  0  0
    5.6290   -2.6127    8.6515 C   0  0  0  0  0  0  0  0  0  0  0  0
    5.7023   -3.5251    8.4027 H   0  0  0  0  0  0  0  0  0  0  0  0
    4.4160   -2.0892    9.0102 C   0  0  0  0  0  0  0  0  0  0  0  0
    3.6497   -2.6492    8.9858 H   0  0  0  0  0  0  0  0  0  0  0  0
    6.7488    4.7642   10.3911 C   0  0  0  0  0  0  0  0  0  0  0  0
    7.9303    4.7022    9.6958 C   0  0  0  0  0  0  0  0  0  0  0  0
    8.1621    5.4086    9.1053 H   0  0  0  0  0  0  0  0  0  0  0  0
    8.7872    3.6312    9.8397 C   0  0  0  0  0  0  0  0  0  0  0  0
    9.6021    3.6050    9.3518 H   0  0  0  0  0  0  0  0  0  0  0  0
    8.4703    2.6246   10.6668 C   0  0  0  0  0  0  0  0  0  0  0  0
    9.0720    1.8977   10.7717 H   0  0  0  0  0  0  0  0  0  0  0  0
    7.2867    2.6292   11.3670 C   0  0  0  0  0  0  0  0  0  0  0  0
    7.0565    1.9039   11.9355 H   0  0  0  0  0  0  0  0  0  0  0  0
    6.4299    3.7227   11.2255 C   0  0  0  0  0  0  0  0  0  0  0  0
    5.6144    3.7452   11.7110 H   0  0  0  0  0  0  0  0  0  0  0  0
    6.5000    7.5010   11.2448 C   0  0  0  0  0  0  0  0  0  0  0  0
    7.7453    7.9491   10.8522 C   0  0  0  0  0  0  0  0  0  0  0  0
    8.1691    7.5667   10.0935 H   0  0  0  0  0  0  0  0  0  0  0  0
    8.3804    8.9581   11.5598 C   0  0  0  0  0  0  0  0  0  0  0  0
    9.2451    9.2472   11.2938 H   0  0  0  0  0  0  0  0  0  0  0  0
    7.7766    9.5345   12.6284 C   0  0  0  0  0  0  0  0  0  0  0  0
    8.2063   10.2430   13.0920 H   0  0  0  0  0  0  0  0  0  0  0  0
    6.5554    9.0958   13.0322 C   0  0  0  0  0  0  0  0  0  0  0  0
    6.1404    9.4910   13.7897 H   0  0  0  0  0  0  0  0  0  0  0  0
    5.9125    8.0831   12.3549 C   0  0  0  0  0  0  0  0  0  0  0  0
    5.0607    7.7842   12.6504 H   0  0  0  0  0  0  0  0  0  0  0  0
    5.5936    9.7846    8.8394 C   0  0  0  0  0  0  0  0  0  0  0  0
    6.7125   10.3670    8.2270 C   0  0  0  0  0  0  0  0  0  0  0  0
    7.0398   10.0083    7.4097 H   0  0  0  0  0  0  0  0  0  0  0  0
    7.3544   11.4697    8.8052 C   0  0  0  0  0  0  0  0  0  0  0  0
    8.1203   11.8478    8.3905 H   0  0  0  0  0  0  0  0  0  0  0  0
    6.8631   12.0096    9.9885 C   0  0  0  0  0  0  0  0  0  0  0  0
    7.2907   12.7608   10.3813 H   0  0  0  0  0  0  0  0  0  0  0  0
    5.7856   11.4668   10.5765 C   0  0  0  0  0  0  0  0  0  0  0  0
    5.4590   11.8369   11.3890 H   0  0  0  0  0  0  0  0  0  0  0  0
    5.1465   10.3854   10.0178 C   0  0  0  0  0  0  0  0  0  0  0  0
    4.3747   10.0355   10.4497 H   0  0  0  0  0  0  0  0  0  0  0  0
    4.9149    8.5254    6.2366 C   0  0  0  0  0  0  0  0  0  0  0  0
    4.0560    9.4115    5.5920 C   0  0  0  0  0  0  0  0  0  0  0  0
    3.3836    9.8506    6.0971 H   0  0  0  0  0  0  0  0  0  0  0  0
    4.1534    9.6732    4.2404 C   0  0  0  0  0  0  0  0  0  0  0  0
    3.5381   10.2635    3.8207 H   0  0  0  0  0  0  0  0  0  0  0  0
    5.1400    9.0766    3.5084 C   0  0  0  0  0  0  0  0  0  0  0  0
    5.2210    9.2658    2.5813 H   0  0  0  0  0  0  0  0  0  0  0  0
    6.0045    8.2191    4.1013 C   0  0  0  0  0  0  0  0  0  0  0  0
    6.6902    7.8137    3.5841 H   0  0  0  0  0  0  0  0  0  0  0  0
    5.9011    7.9235    5.4554 C   0  0  0  0  0  0  0  0  0  0  0  0
    6.5084    7.3086    5.8506 H   0  0  0  0  0  0  0  0  0  0  0  0
    3.4079    3.8824    4.8603 O   0  0  0  0  0  0  0  0  0  0  0  0
    1.8751    3.8814    4.7625 C   0  0  0  0  0  0  0  0  0  0  0  0
    1.5682    3.3924    3.9598 H   0  0  0  0  0  0  0  0  0  0  0  0
    1.4664    3.4708    5.5676 H   0  0  0  0  0  0  0  0  0  0  0  0
    1.5451    5.3248    4.6722 C   0  0  0  0  0  0  0  0  0  0  0  0
    0.7884    5.4664    4.0501 H   0  0  0  0  0  0  0  0  0  0  0  0
    1.2939    5.6779    5.5627 H   0  0  0  0  0  0  0  0  0  0  0  0
    2.7363    5.9959    4.1794 C   0  0  0  0  0  0  0  0  0  0  0  0
    2.5616    6.4126    3.2986 H   0  0  0  0  0  0  0  0  0  0  0  0
    3.0265    6.6995    4.8113 H   0  0  0  0  0  0  0  0  0  0  0  0
    3.7156    5.0031    4.0669 C   0  0  0  0  0  0  0  0  0  0  0  0
    4.5902    5.3741    4.3477 H   0  0  0  0  0  0  0  0  0  0  0  0
    3.7930    4.7234    3.1205 H   0  0  0  0  0  0  0  0  0  0  0  0
    5.7860    2.7329    5.7084 O   0  0  0  0  0  0  0  0  0  0  0  0
    7.1096    2.6344    6.7412 C   0  0  0  0  0  0  0  0  0  0  0  0
    7.5381    3.5243    6.8119 H   0  0  0  0  0  0  0  0  0  0  0  0
    6.8033    2.3683    7.6439 H   0  0  0  0  0  0  0  0  0  0  0  0
    7.9744    1.7768    6.3142 C   0  0  0  0  0  0  0  0  0  0  0  0
    7.9050    0.9310    6.8241 H   0  0  0  0  0  0  0  0  0  0  0  0
    8.8925    2.1325    6.4118 H   0  0  0  0  0  0  0  0  0  0  0  0
    7.6726    1.5669    4.9796 C   0  0  0  0  0  0  0  0  0  0  0  0
    7.7520    0.6035    4.7674 H   0  0  0  0  0  0  0  0  0  0  0  0
    8.3146    2.0621    4.4112 H   0  0  0  0  0  0  0  0  0  0  0  0
    6.2453    2.0439    4.6820 C   0  0  0  0  0  0  0  0  0  0  0  0
    6.2369    2.5810    3.8500 H   0  0  0  0  0  0  0  0  0  0  0  0
    5.6502    1.2634    4.5527 H   0  0  0  0  0  0  0  0  0  0  0  0
  1  3  2  0  0  0  0
  2  4  2  0  0  0  0
  3  7  1  0  0  0  0
  4 12  1  0  0  0  0
  5  7  1  0  0  0  0
  6 12  1  0  0  0  0
  7 17  1  0  0  0  0
  8  5  1  0  0  0  0
  9  8  1  0  0  0  0
 10  8  1  0  0  0  0
 11  8  1  0  0  0  0
 12 18  1  0  0  0  0
 13  6  1  0  0  0  0
 14 13  1  0  0  0  0
 15 13  1  0  0  0  0
 16 13  1  0  0  0  0
 17 22  1  0  0  0  0
 18 26  1  0  0  0  0
 19  1  1  0  0  0  0
 20 22  1  0  0  0  0
 21  7  1  0  0  0  0
 22 19  1  0  0  0  0
 23 17  1  0  0  0  0
 24 17  1  0  0  0  0
 25 12  1  0  0  0  0
 26 20  1  0  0  0  0
 27 18  1  0  0  0  0
 28 18  1  0  0  0  0
 29  3  1  0  0  0  0
 30 29  4  0  0  0  0
 31 30  1  0  0  0  0
 32 30  4  0  0  0  0
 33 32  1  0  0  0  0
 34 32  4  0  0  0  0
 35 34  1  0  0  0  0
 36 34  4  0  0  0  0
 37 36  1  0  0  0  0
 38 29  4  0  0  0  0
 39 38  1  0  0  0  0
 40  3  1  0  0  0  0
 41 40  4  0  0  0  0
 42 41  1  0  0  0  0
 43 41  4  0  0  0  0
 44 43  1  0  0  0  0
 45 43  4  0  0  0  0
 46 45  1  0  0  0  0
 47 45  4  0  0  0  0
 48 47  1  0  0  0  0
 49 40  4  0  0  0  0
 50 49  1  0  0  0  0
 51  5  1  0  0  0  0
 52 51  4  0  0  0  0
 53 52  1  0  0  0  0
 54 52  4  0  0  0  0
 55 54  1  0  0  0  0
 56 54  4  0  0  0  0
 57 56  1  0  0  0  0
 58 56  4  0  0  0  0
 59 58  1  0  0  0  0
 60 51  4  0  0  0  0
 61 60  1  0  0  0  0
 62  5  1  0  0  0  0
 63 62  4  0  0  0  0
 64 63  1  0  0  0  0
 65 63  4  0  0  0  0
 66 65  1  0  0  0  0
 67 65  4  0  0  0  0
 68 67  1  0  0  0  0
 69 67  4  0  0  0  0
 70 69  1  0  0  0  0
 71 62  4  0  0  0  0
 72 71  1  0  0  0  0
 73  4  1  0  0  0  0
 74 73  4  0  0  0  0
 75 74  1  0  0  0  0
 76 74  4  0  0  0  0
 77 76  1  0  0  0  0
 78 76  4  0  0  0  0
 79 78  1  0  0  0  0
 80 78  4  0  0  0  0
 81 80  1  0  0  0  0
 82 73  4  0  0  0  0
 83 82  1  0  0  0  0
 84  4  1  0  0  0  0
 85 84  4  0  0  0  0
 86 85  1  0  0  0  0
 87 85  4  0  0  0  0
 88 87  1  0  0  0  0
 89 87  4  0  0  0  0
 90 89  1  0  0  0  0
 91 89  4  0  0  0  0
 92 91  1  0  0  0  0
 93 84  4  0  0  0  0
 94 93  1  0  0  0  0
 95  6  1  0  0  0  0
 96 95  4  0  0  0  0
 97 96  1  0  0  0  0
 98 96  4  0  0  0  0
 99 98  1  0  0  0  0
100 98  4  0  0  0  0
101100  1  0  0  0  0
102100  4  0  0  0  0
103102  1  0  0  0  0
104 95  4  0  0  0  0
105104  1  0  0  0  0
106  6  1  0  0  0  0
107106  4  0  0  0  0
108107  1  0  0  0  0
109107  4  0  0  0  0
110109  1  0  0  0  0
111109  4  0  0  0  0
112111  1  0  0  0  0
113111  4  0  0  0  0
114113  1  0  0  0  0
115106  4  0  0  0  0
116115  1  0  0  0  0
117 20  1  0  0  0  0
118117  1  0  0  0  0
119118  1  0  0  0  0
120118  1  0  0  0  0
121118  1  0  0  0  0
122121  1  0  0  0  0
123121  1  0  0  0  0
124121  1  0  0  0  0
125124  1  0  0  0  0
126124  1  0  0  0  0
127117  1  0  0  0  0
128127  1  0  0  0  0
129127  1  0  0  0  0
130 20  1  0  0  0  0
131130  1  0  0  0  0
132131  1  0  0  0  0
133131  1  0  0  0  0
134131  1  0  0  0  0
135134  1  0  0  0  0
136134  1  0  0  0  0
137134  1  0  0  0  0
138137  1  0  0  0  0
139137  1  0  0  0  0
140130  1  0  0  0  0
141140  1  0  0  0  0
142140  1  0  0  0  0
  2 19  1  0  0  0  0
 19 23  1  0  0  0  0
 19 27  1  0  0  0  0
 19 28  1  0  0  0  0
 20 28  1  0  0  0  0
 36 38  4  0  0  0  0
 47 49  4  0  0  0  0
 58 60  4  0  0  0  0
 69 71  4  0  0  0  0
 80 82  4  0  0  0  0
 91 93  4  0  0  0  0
102104  4  0  0  0  0
113115  4  0  0  0  0
124127  1  0  0  0  0
137140  1  0  0  0  0
M  CHG  4  17  -1  18  -1  19   1  20   1
M  END
$$$$
LIRHOJ

From CSD data. Using bond type 'Any'. No disordered atoms. Largest molecule.
 99128  0  0  0  0  0  0  0  0999 V2000
   -4.6610    6.0097    6.1738 Re  0  0  0  0  0  0  0  0  0  0  0  0
   -5.0640    4.6575    7.4598 C   0  0  0  0  0  0  0  0  0  0  0  0
   -5.3405    3.8101    8.1917 O   0  0  0  0  0  0  0  0  0  0  0  0
   -5.5374    7.2995    7.3224 C   0  0  0  0  0  0  0  0  0  0  0  0
   -6.0673    8.0963    7.9588 O   0  0  0  0  0  0  0  0  0  0  0  0
   -3.0033    6.3670    7.0743 C   0  0  0  0  0  0  0  0  0  0  0  0
   -1.9804    6.5705    7.5535 O   0  0  0  0  0  0  0  0  0  0  0  0
   -6.2450    5.9661    4.4609 C   0  0  0  0  0  0  0  0  0  0  0  0
   -7.2092    6.0870    5.0178 H   0  0  0  0  0  0  0  0  0  0  0  0
   -5.2211    7.2169    4.2592 C   0  0  0  0  0  0  0  0  0  0  0  0
   -5.4605    8.2283    4.6787 H   0  0  0  0  0  0  0  0  0  0  0  0
   -3.6079    6.7482    4.2092 B   0  0  0  0  0  0  0  0  0  0  0  0
   -2.7313    7.3661    4.5341 H   0  0  0  0  0  0  0  0  0  0  0  0
   -3.7084    4.9325    4.3324 B   0  0  0  0  0  0  0  0  0  0  0  0
   -2.8009    4.1518    4.5662 H   0  0  0  0  0  0  0  0  0  0  0  0
   -5.4256    4.4786    4.5751 B   0  0  0  0  0  0  0  0  0  0  0  0
   -5.7672    3.5770    5.1464 H   0  0  0  0  0  0  0  0  0  0  0  0
   -6.3015    4.9671    3.0632 B   0  0  0  0  0  0  0  0  0  0  0  0
   -7.1953    4.3972    2.7044 H   0  0  0  0  0  0  0  0  0  0  0  0
   -6.1940    6.7346    2.9043 B   0  0  0  0  0  0  0  0  0  0  0  0
   -7.0237    7.3365    2.4545 H   0  0  0  0  0  0  0  0  0  0  0  0
   -4.4899    7.2058    2.7062 B   0  0  0  0  0  0  0  0  0  0  0  0
   -4.1884    8.1049    2.1082 H   0  0  0  0  0  0  0  0  0  0  0  0
   -3.5673    5.7121    2.7704 B   0  0  0  0  0  0  0  0  0  0  0  0
   -2.5964    5.4765    2.2117 H   0  0  0  0  0  0  0  0  0  0  0  0
   -4.6582    4.3627    2.9739 B   0  0  0  0  0  0  0  0  0  0  0  0
   -4.3560    3.4240    2.5491 H   0  0  0  0  0  0  0  0  0  0  0  0
   -5.1358    5.7145    1.9261 B   0  0  0  0  0  0  0  0  0  0  0  0
   -5.2432    5.6220    0.8158 H   0  0  0  0  0  0  0  0  0  0  0  0
   -2.2802    3.7229    2.9787 Ru  0  0  0  0  0  0  0  0  0  0  0  0
   -1.6493    3.2821    0.7247 Cl  0  0  0  0  0  0  0  0  0  0  0  0
   -2.1679    1.5025    3.6026 P   0  0  0  0  0  0  0  0  0  0  0  0
   -2.3346    1.0213    5.3677 C   0  0  0  0  0  0  0  0  0  0  0  0
   -3.1186    1.7614    6.2388 C   0  0  0  0  0  0  0  0  0  0  0  0
   -3.5710    2.5323    5.9193 H   0  0  0  0  0  0  0  0  0  0  0  0
   -3.2496    1.3950    7.5669 C   0  0  0  0  0  0  0  0  0  0  0  0
   -3.7829    1.9217    8.1524 H   0  0  0  0  0  0  0  0  0  0  0  0
   -2.6133    0.2701    8.0471 C   0  0  0  0  0  0  0  0  0  0  0  0
   -2.6934    0.0296    8.9629 H   0  0  0  0  0  0  0  0  0  0  0  0
   -1.8641   -0.4995    7.1921 C   0  0  0  0  0  0  0  0  0  0  0  0
   -1.4379   -1.2852    7.5134 H   0  0  0  0  0  0  0  0  0  0  0  0
   -1.7298   -0.1344    5.8693 C   0  0  0  0  0  0  0  0  0  0  0  0
   -1.2157   -0.6809    5.2874 H   0  0  0  0  0  0  0  0  0  0  0  0
   -3.5197    0.5341    2.7936 C   0  0  0  0  0  0  0  0  0  0  0  0
   -3.9306    0.8412    1.4995 C   0  0  0  0  0  0  0  0  0  0  0  0
   -3.5766    1.6072    1.0639 H   0  0  0  0  0  0  0  0  0  0  0  0
   -4.8546    0.0456    0.8390 C   0  0  0  0  0  0  0  0  0  0  0  0
   -5.1302    0.2775   -0.0411 H   0  0  0  0  0  0  0  0  0  0  0  0
   -5.3704   -1.0719    1.4370 C   0  0  0  0  0  0  0  0  0  0  0  0
   -5.9878   -1.6281    0.9747 H   0  0  0  0  0  0  0  0  0  0  0  0
   -4.9815   -1.3778    2.7240 C   0  0  0  0  0  0  0  0  0  0  0  0
   -5.3516   -2.1400    3.1524 H   0  0  0  0  0  0  0  0  0  0  0  0
   -4.0597   -0.5958    3.4059 C   0  0  0  0  0  0  0  0  0  0  0  0
   -3.7966   -0.8301    4.2878 H   0  0  0  0  0  0  0  0  0  0  0  0
   -0.6800    0.5686    3.0828 C   0  0  0  0  0  0  0  0  0  0  0  0
   -0.6601   -0.1307    1.8797 C   0  0  0  0  0  0  0  0  0  0  0  0
   -1.4523   -0.2048    1.3620 H   0  0  0  0  0  0  0  0  0  0  0  0
    0.5161   -0.7191    1.4316 C   0  0  0  0  0  0  0  0  0  0  0  0
    0.5210   -1.2051    0.6141 H   0  0  0  0  0  0  0  0  0  0  0  0
    1.6738   -0.6019    2.1671 C   0  0  0  0  0  0  0  0  0  0  0  0
    2.4842   -0.9732    1.8386 H   0  0  0  0  0  0  0  0  0  0  0  0
    1.6559    0.0555    3.3827 C   0  0  0  0  0  0  0  0  0  0  0  0
    2.4499    0.1147    3.9004 H   0  0  0  0  0  0  0  0  0  0  0  0
    0.4835    0.6303    3.8433 C   0  0  0  0  0  0  0  0  0  0  0  0
    0.4747    1.0682    4.6858 H   0  0  0  0  0  0  0  0  0  0  0  0
   -0.1531    4.3740    3.5098 P   0  0  0  0  0  0  0  0  0  0  0  0
    1.2618    4.1370    2.3563 C   0  0  0  0  0  0  0  0  0  0  0  0
    1.4222    2.9529    1.6267 C   0  0  0  0  0  0  0  0  0  0  0  0
    0.7514    2.2794    1.6614 H   0  0  0  0  0  0  0  0  0  0  0  0
    2.5580    2.7617    0.8533 C   0  0  0  0  0  0  0  0  0  0  0  0
    2.6612    1.9550    0.3624 H   0  0  0  0  0  0  0  0  0  0  0  0
    3.5400    3.7324    0.7908 C   0  0  0  0  0  0  0  0  0  0  0  0
    4.3152    3.5918    0.2588 H   0  0  0  0  0  0  0  0  0  0  0  0
    3.3923    4.9017    1.5012 C   0  0  0  0  0  0  0  0  0  0  0  0
    4.0659    5.5714    1.4566 H   0  0  0  0  0  0  0  0  0  0  0  0
    2.2658    5.1027    2.2760 C   0  0  0  0  0  0  0  0  0  0  0  0
    2.1731    5.9119    2.7651 H   0  0  0  0  0  0  0  0  0  0  0  0
   -0.1407    6.1968    3.6951 C   0  0  0  0  0  0  0  0  0  0  0  0
   -0.3886    6.9776    2.5562 C   0  0  0  0  0  0  0  0  0  0  0  0
   -0.5601    6.5545    1.7244 H   0  0  0  0  0  0  0  0  0  0  0  0
   -0.3825    8.3627    2.6348 C   0  0  0  0  0  0  0  0  0  0  0  0
   -0.5574    8.8832    1.8600 H   0  0  0  0  0  0  0  0  0  0  0  0
   -0.1246    8.9819    3.8397 C   0  0  0  0  0  0  0  0  0  0  0  0
   -0.1185    9.9304    3.8933 H   0  0  0  0  0  0  0  0  0  0  0  0
    0.1247    8.2270    4.9714 C   0  0  0  0  0  0  0  0  0  0  0  0
    0.2979    8.6600    5.7997 H   0  0  0  0  0  0  0  0  0  0  0  0
    0.1206    6.8357    4.9054 C   0  0  0  0  0  0  0  0  0  0  0  0
    0.2997    6.3226    5.6837 H   0  0  0  0  0  0  0  0  0  0  0  0
    0.4891    3.7398    5.1044 C   0  0  0  0  0  0  0  0  0  0  0  0
    1.7795    3.2402    5.2446 C   0  0  0  0  0  0  0  0  0  0  0  0
    2.3875    3.3019    4.5162 H   0  0  0  0  0  0  0  0  0  0  0  0
    2.1922    2.6568    6.4227 C   0  0  0  0  0  0  0  0  0  0  0  0
    3.0792    2.3226    6.5048 H   0  0  0  0  0  0  0  0  0  0  0  0
    1.3112    2.5582    7.4884 C   0  0  0  0  0  0  0  0  0  0  0  0
    1.5827    2.1240    8.2899 H   0  0  0  0  0  0  0  0  0  0  0  0
    0.0460    3.0861    7.3902 C   0  0  0  0  0  0  0  0  0  0  0  0
   -0.5462    3.0491    8.1346 H   0  0  0  0  0  0  0  0  0  0  0  0
   -0.3665    3.6757    6.2033 C   0  0  0  0  0  0  0  0  0  0  0  0
   -1.2422    4.0383    6.1387 H   0  0  0  0  0  0  0  0  0  0  0  0
  1  2  1  0  0  0  0
  2  3  3  0  0  0  0
  4  1  1  0  0  0  0
  5  4  3  0  0  0  0
  6  1  1  0  0  0  0
  7  6  3  0  0  0  0
  8  1  1  0  0  0  0
  9  8  1  0  0  0  0
 10  1  1  0  0  0  0
 11 10  1  0  0  0  0
 12  1  1  0  0  0  0
 13 12  1  0  0  0  0
 14  1  1  0  0  0  0
 15 14  1  0  0  0  0
 16  1  1  0  0  0  0
 17 16  1  0  0  0  0
 18  8  1  0  0  0  0
 19 18  1  0  0  0  0
 20  8  1  0  0  0  0
 21 20  1  0  0  0  0
 22 10  1  0  0  0  0
 23 22  1  0  0  0  0
 24 12  1  0  0  0  0
 25 24  1  0  0  0  0
 26 14  1  0  0  0  0
 27 26  1  0  0  0  0
 28 18  1  0  0  0  0
 29 28  1  0  0  0  0
 30 14  1  0  0  0  0
 31 30  1  0  0  0  0
 32 30  1  0  0  0  0
 33 32  1  0  0  0  0
 34 33  4  0  0  0  0
 35 34  1  0  0  0  0
 36 34  4  0  0  0  0
 37 36  1  0  0  0  0
 38 36  4  0  0  0  0
 39 38  1  0  0  0  0
 40 38  4  0  0  0  0
 41 40  1  0  0  0  0
 42 33  4  0  0  0  0
 43 42  1  0  0  0  0
 44 32  1  0  0  0  0
 45 44  4  0  0  0  0
 46 45  1  0  0  0  0
 47 45  4  0  0  0  0
 48 47  1  0  0  0  0
 49 47  4  0  0  0  0
 50 49  1  0  0  0  0
 51 49  4  0  0  0  0
 52 51  1  0  0  0  0
 53 44  4  0  0  0  0
 54 53  1  0  0  0  0
 55 32  1  0  0  0  0
 56 55  4  0  0  0  0
 57 56  1  0  0  0  0
 58 56  4  0  0  0  0
 59 58  1  0  0  0  0
 60 58  4  0  0  0  0
 61 60  1  0  0  0  0
 62 60  4  0  0  0  0
 63 62  1  0  0  0  0
 64 55  4  0  0  0  0
 65 64  1  0  0  0  0
 66 30  1  0  0  0  0
 67 66  1  0  0  0  0
 68 67  4  0  0  0  0
 69 68  1  0  0  0  0
 70 68  4  0  0  0  0
 71 70  1  0  0  0  0
 72 70  4  0  0  0  0
 73 72  1  0  0  0  0
 74 72  4  0  0  0  0
 75 74  1  0  0  0  0
 76 67  4  0  0  0  0
 77 76  1  0  0  0  0
 78 66  1  0  0  0  0
 79 78  4  0  0  0  0
 80 79  1  0  0  0  0
 81 79  4  0  0  0  0
 82 81  1  0  0  0  0
 83 81  4  0  0  0  0
 84 83  1  0  0  0  0
 85 83  4  0  0  0  0
 86 85  1  0  0  0  0
 87 78  4  0  0  0  0
 88 87  1  0  0  0  0
 89 66  1  0  0  0  0
 90 89  4  0  0  0  0
 91 90  1  0  0  0  0
 92 90  4  0  0  0  0
 93 92  1  0  0  0  0
 94 92  4  0  0  0  0
 95 94  1  0  0  0  0
 96 94  4  0  0  0  0
 97 96  1  0  0  0  0
 98 89  4  0  0  0  0
 99 98  1  0  0  0  0
  8 10  1  0  0  0  0
  8 16  1  0  0  0  0
 10 12  1  0  0  0  0
 10 20  1  0  0  0  0
 12 14  1  0  0  0  0
 12 22  1  0  0  0  0
 14 16  1  0  0  0  0
 14 24  1  0  0  0  0
 15 30  1  0  0  0  0
 16 18  1  0  0  0  0
 16 26  1  0  0  0  0
 18 20  1  0  0  0  0
 18 26  1  0  0  0  0
 20 22  1  0  0  0  0
 20 28  1  0  0  0  0
 22 24  1  0  0  0  0
 22 28  1  0  0  0  0
 24 26  1  0  0  0  0
 24 28  1  0  0  0  0
 24 30  1  0  0  0  0
 25 30  1  0  0  0  0
 26 28  1  0  0  0  0
 26 30  1  0  0  0  0
 27 30  1  0  0  0  0
 40 42  4  0  0  0  0
 51 53  4  0  0  0  0
 62 64  4  0  0  0  0
 74 76  4  0  0  0  0
 85 87  4  0  0  0  0
 96 98  4  0  0  0  0
M  END
$$$$
LIRTIR

From CSD data. Using bond type 'Any'. No disordered atoms. Largest molecule.
107115  0  0  0  0  0  0  0  0999 V2000
    5.1085   12.3885    5.1709 Rh  0  3  0  0  0  0  0  0  0  0  0  0
    4.1864   13.0756    7.1436 P   0  0  0  0  0  0  0  0  0  0  0  0
    4.9972   12.9032    8.7849 C   0  0  0  0  0  0  0  0  0  0  0  0
    5.6424   13.9228    9.4543 C   0  0  0  0  0  0  0  0  0  0  0  0
    6.1963   13.7110   10.7098 C   0  0  0  0  0  0  0  0  0  0  0  0
    6.1179   12.4935   11.3186 C   0  0  0  0  0  0  0  0  0  0  0  0
    5.4448   11.4602   10.6832 C   0  0  0  0  0  0  0  0  0  0  0  0
    4.9042   11.6621    9.4258 C   0  0  0  0  0  0  0  0  0  0  0  0
    2.5785   12.2954    7.5730 C   0  0  0  0  0  0  0  0  0  0  0  0
    1.9275   12.6601    8.7505 C   0  0  0  0  0  0  0  0  0  0  0  0
    0.7336   12.0621    9.1157 C   0  0  0  0  0  0  0  0  0  0  0  0
    0.1782   11.0680    8.3320 C   0  0  0  0  0  0  0  0  0  0  0  0
    0.8362   10.6602    7.1887 C   0  0  0  0  0  0  0  0  0  0  0  0
    2.0227   11.2641    6.8140 C   0  0  0  0  0  0  0  0  0  0  0  0
    3.7415   14.8463    7.0251 C   0  0  0  0  0  0  0  0  0  0  0  0
    2.4414   15.3796    7.0480 C   0  0  0  0  0  0  0  0  0  0  0  0
    2.2417   16.7187    6.7474 C   0  0  0  0  0  0  0  0  0  0  0  0
    3.2952   17.5422    6.3917 C   0  0  0  0  0  0  0  0  0  0  0  0
    4.6075   17.0677    6.3612 C   0  0  0  0  0  0  0  0  0  0  0  0
    4.7624   15.7188    6.6968 C   0  0  0  0  0  0  0  0  0  0  0  0
    6.0412   15.1706    6.6903 O   0  0  0  0  0  0  0  0  0  0  0  0
    6.8341   15.6051    5.6446 C   0  0  0  0  0  0  0  0  0  0  0  0
    7.6112   14.6345    5.0296 C   0  0  0  0  0  0  0  0  0  0  0  0
    7.3028   12.8776    5.4993 P   0  0  0  0  0  0  0  0  0  0  0  0
    8.1079   12.7111    7.1229 C   0  0  0  0  0  0  0  0  0  0  0  0
    7.9171   11.5170    7.8222 C   0  0  0  0  0  0  0  0  0  0  0  0
    8.5592   11.2935    9.0301 C   0  0  0  0  0  0  0  0  0  0  0  0
    9.3542   12.2778    9.5723 C   0  0  0  0  0  0  0  0  0  0  0  0
    9.5147   13.4816    8.9198 C   0  0  0  0  0  0  0  0  0  0  0  0
    8.9070   13.7012    7.6890 C   0  0  0  0  0  0  0  0  0  0  0  0
    8.4866   12.0190    4.3752 C   0  0  0  0  0  0  0  0  0  0  0  0
    8.2846   12.1209    2.9904 C   0  0  0  0  0  0  0  0  0  0  0  0
    9.1597   11.5210    2.0982 C   0  0  0  0  0  0  0  0  0  0  0  0
   10.2444   10.8092    2.5681 C   0  0  0  0  0  0  0  0  0  0  0  0
   10.4449   10.6877    3.9320 C   0  0  0  0  0  0  0  0  0  0  0  0
    9.5762   11.2955    4.8356 C   0  0  0  0  0  0  0  0  0  0  0  0
    8.4901   15.0796    4.0347 C   0  0  0  0  0  0  0  0  0  0  0  0
    8.5230   16.4187    3.6809 C   0  0  0  0  0  0  0  0  0  0  0  0
    7.6841   17.3363    4.2687 C   0  0  0  0  0  0  0  0  0  0  0  0
    6.8067   16.9403    5.2845 C   0  0  0  0  0  0  0  0  0  0  0  0
    5.8526   17.8716    6.0397 C   0  0  0  0  0  0  0  0  0  0  0  0
    5.5394   19.1245    5.2199 C   0  0  0  0  0  0  0  0  0  0  0  0
    6.5221   18.2833    7.3732 C   0  0  0  0  0  0  0  0  0  0  0  0
    4.7878   11.3367    3.0322 B   0  0  0  0  0  0  0  0  0  0  0  0
    3.3613   12.0582    3.5420 B   0  0  0  0  0  0  0  0  0  0  0  0
    2.9639   13.4209    2.7583 N   0  0  0  0  0  0  0  0  0  0  0  0
    2.4234   13.0228    1.4172 C   0  0  0  0  0  0  0  0  0  0  0  0
    4.1204   14.3385    2.5567 C   0  0  0  0  0  0  0  0  0  0  0  0
    1.8985   14.1836    3.4907 C   0  0  0  0  0  0  0  0  0  0  0  0
    4.8609    9.7218    3.1291 N   0  0  0  0  0  0  0  0  0  0  0  0
    6.2560    9.2309    2.8705 C   0  0  0  0  0  0  0  0  0  0  0  0
    4.4368    9.1936    4.4589 C   0  0  0  0  0  0  0  0  0  0  0  0
    3.9673    9.1368    2.0944 C   0  0  0  0  0  0  0  0  0  0  0  0
    5.7143   14.7580    9.0568 H   0  0  0  0  0  0  0  0  0  0  0  0
    6.6297   14.4149   11.1379 H   0  0  0  0  0  0  0  0  0  0  0  0
    6.5061   12.3621   12.1480 H   0  0  0  0  0  0  0  0  0  0  0  0
    5.3527   10.6230   11.0960 H   0  0  0  0  0  0  0  0  0  0  0  0
    4.4659   10.9641    9.0073 H   0  0  0  0  0  0  0  0  0  0  0  0
    2.3063   13.3032    9.3041 H   0  0  0  0  0  0  0  0  0  0  0  0
    0.3064   12.3346    9.8995 H   0  0  0  0  0  0  0  0  0  0  0  0
   -0.6306   10.6739    8.5793 H   0  0  0  0  0  0  0  0  0  0  0  0
    0.4726    9.9642    6.6732 H   0  0  0  0  0  0  0  0  0  0  0  0
    2.4603   10.9759    6.0340 H   0  0  0  0  0  0  0  0  0  0  0  0
    1.7190   14.8423    7.2591 H   0  0  0  0  0  0  0  0  0  0  0  0
    1.3902   17.0638    6.7873 H   0  0  0  0  0  0  0  0  0  0  0  0
    3.1291   18.4186    6.1691 H   0  0  0  0  0  0  0  0  0  0  0  0
    7.3533   10.8602    7.4798 H   0  0  0  0  0  0  0  0  0  0  0  0
    8.4596   10.4700    9.4772 H   0  0  0  0  0  0  0  0  0  0  0  0
    9.8077   12.1229   10.3827 H   0  0  0  0  0  0  0  0  0  0  0  0
   10.0537   14.1522    9.3022 H   0  0  0  0  0  0  0  0  0  0  0  0
    9.0271   14.5130    7.2458 H   0  0  0  0  0  0  0  0  0  0  0  0
    7.5604   12.6033    2.6727 H   0  0  0  0  0  0  0  0  0  0  0  0
    9.0116   11.6053    1.1813 H   0  0  0  0  0  0  0  0  0  0  0  0
   10.8410   10.4289    1.9689 H   0  0  0  0  0  0  0  0  0  0  0  0
   11.1725   10.2053    4.2630 H   0  0  0  0  0  0  0  0  0  0  0  0
    9.7275   11.2229    5.7544 H   0  0  0  0  0  0  0  0  0  0  0  0
    9.0556   14.4757    3.6029 H   0  0  0  0  0  0  0  0  0  0  0  0
    9.1216   16.7089    3.0341 H   0  0  0  0  0  0  0  0  0  0  0  0
    7.6927   18.2363    3.9739 H   0  0  0  0  0  0  0  0  0  0  0  0
    6.3405   19.6382    5.0829 H   0  0  0  0  0  0  0  0  0  0  0  0
    4.8957   19.6676    5.6878 H   0  0  0  0  0  0  0  0  0  0  0  0
    5.1873   18.8735    4.3562 H   0  0  0  0  0  0  0  0  0  0  0  0
    7.3158   18.7833    7.1830 H   0  0  0  0  0  0  0  0  0  0  0  0
    5.9129   18.8304    7.8697 H   0  0  0  0  0  0  0  0  0  0  0  0
    6.7422   17.5128    7.8926 H   0  0  0  0  0  0  0  0  0  0  0  0
    2.0957   13.8110    0.9911 H   0  0  0  0  0  0  0  0  0  0  0  0
    3.1304   12.6327    0.8903 H   0  0  0  0  0  0  0  0  0  0  0  0
    1.7022   12.3974    1.5466 H   0  0  0  0  0  0  0  0  0  0  0  0
    3.8115   15.0972    2.0545 H   0  0  0  0  0  0  0  0  0  0  0  0
    4.4459   14.6228    3.4241 H   0  0  0  0  0  0  0  0  0  0  0  0
    4.8131   13.8522    2.0773 H   0  0  0  0  0  0  0  0  0  0  0  0
    1.6323   14.9580    2.9733 H   0  0  0  0  0  0  0  0  0  0  0  0
    2.2473   14.4659    4.3448 H   0  0  0  0  0  0  0  0  0  0  0  0
    1.1335   13.6032    3.6372 H   0  0  0  0  0  0  0  0  0  0  0  0
    6.2726    8.2584    2.8782 H   0  0  0  0  0  0  0  0  0  0  0  0
    6.8381    9.5701    3.5630 H   0  0  0  0  0  0  0  0  0  0  0  0
    6.5438    9.5603    1.9955 H   0  0  0  0  0  0  0  0  0  0  0  0
    4.5114    8.2309    4.4494 H   0  0  0  0  0  0  0  0  0  0  0  0
    5.0051    9.5701    5.1343 H   0  0  0  0  0  0  0  0  0  0  0  0
    3.5223    9.4564    4.6130 H   0  0  0  0  0  0  0  0  0  0  0  0
    4.0481    8.1760    2.1287 H   0  0  0  0  0  0  0  0  0  0  0  0
    4.2265    9.4524    1.2270 H   0  0  0  0  0  0  0  0  0  0  0  0
    3.0472    9.3917    2.2751 H   0  0  0  0  0  0  0  0  0  0  0  0
    5.2139   11.6268    2.0640 H   0  0  0  0  0  0  0  0  0  0  0  0
    2.4392   11.4994    3.6752 H   0  0  0  0  0  0  0  0  0  0  0  0
    3.3403   12.4699    4.7747 H   0  0  0  0  0  0  0  0  0  0  0  0
    5.7047   11.6562    3.7912 H   0  0  0  0  0  0  0  0  0  0  0  0
  1  2  1  0  0  0  0
  2  3  1  0  0  0  0
  3  4  4  0  0  0  0
  4  5  4  0  0  0  0
  5  6  4  0  0  0  0
  6  7  4  0  0  0  0
  7  8  4  0  0  0  0
  8  3  4  0  0  0  0
  9  2  1  0  0  0  0
 10  9  4  0  0  0  0
 11 10  4  0  0  0  0
 12 11  4  0  0  0  0
 13 12  4  0  0  0  0
 14  9  4  0  0  0  0
 15  2  1  0  0  0  0
 16 15  4  0  0  0  0
 17 16  4  0  0  0  0
 18 17  4  0  0  0  0
 19 18  4  0  0  0  0
 20 15  4  0  0  0  0
 21 20  1  0  0  0  0
 22 21  1  0  0  0  0
 23 22  4  0  0  0  0
 24  1  1  0  0  0  0
 25 24  1  0  0  0  0
 26 25  4  0  0  0  0
 27 26  4  0  0  0  0
 28 27  4  0  0  0  0
 29 28  4  0  0  0  0
 30 25  4  0  0  0  0
 31 24  1  0  0  0  0
 32 31  4  0  0  0  0
 33 32  4  0  0  0  0
 34 33  4  0  0  0  0
 35 34  4  0  0  0  0
 36 31  4  0  0  0  0
 37 23  4  0  0  0  0
 38 37  4  0  0  0  0
 39 38  4  0  0  0  0
 40 22  4  0  0  0  0
 41 19  1  0  0  0  0
 42 41  1  0  0  0  0
 43 41  1  0  0  0  0
 44 45  1  0  0  0  0
 45 46  1  0  0  0  0
 46 47  1  0  0  0  0
 47 86  1  0  0  0  0
 48 46  1  0  0  0  0
 49 46  1  0  0  0  0
 50 44  1  0  0  0  0
 51 50  1  0  0  0  0
 52 50  1  0  0  0  0
 53 50  1  0  0  0  0
 54  4  1  0  0  0  0
 55  5  1  0  0  0  0
 56  6  1  0  0  0  0
 57  7  1  0  0  0  0
 58  8  1  0  0  0  0
 59 10  1  0  0  0  0
 60 11  1  0  0  0  0
 61 12  1  0  0  0  0
 62 13  1  0  0  0  0
 63 14  1  0  0  0  0
 64 16  1  0  0  0  0
 65 17  1  0  0  0  0
 66 18  1  0  0  0  0
 67 26  1  0  0  0  0
 68 27  1  0  0  0  0
 69 28  1  0  0  0  0
 70 29  1  0  0  0  0
 71 30  1  0  0  0  0
 72 32  1  0  0  0  0
 73 33  1  0  0  0  0
 74 34  1  0  0  0  0
 75 35  1  0  0  0  0
 76 36  1  0  0  0  0
 77 37  1  0  0  0  0
 78 38  1  0  0  0  0
 79 39  1  0  0  0  0
 80 42  1  0  0  0  0
 81 42  1  0  0  0  0
 82 42  1  0  0  0  0
 83 43  1  0  0  0  0
 84 43  1  0  0  0  0
 85 43  1  0  0  0  0
 87 47  1  0  0  0  0
 88 47  1  0  0  0  0
 89 48  1  0  0  0  0
 90 48  1  0  0  0  0
 91 48  1  0  0  0  0
 92 49  1  0  0  0  0
 93 49  1  0  0  0  0
 94 49  1  0  0  0  0
 95 51  1  0  0  0  0
 96 51  1  0  0  0  0
 97 51  1  0  0  0  0
 98 52  1  0  0  0  0
 99 52  1  0  0  0  0
100 52  1  0  0  0  0
101 53  1  0  0  0  0
102 53  1  0  0  0  0
103 53  1  0  0  0  0
104 44  1  0  0  0  0
105 45  1  0  0  0  0
106  1  1  0  0  0  0
107  1  1  0  0  0  0
 13 14  4  0  0  0  0
 19 20  4  0  0  0  0
 23 24  1  0  0  0  0
 29 30  4  0  0  0  0
 35 36  4  0  0  0  0
 39 40  4  0  0  0  0
 40 41  1  0  0  0  0
 44107  1  0  0  0  0
 45106  1  0  0  0  0
M  CHG  1   1   1
M  END
$$$$
LIRZAQ

From CSD data. Using bond type 'Any'. No disordered atoms. Largest molecule.
112118  0  0  0  0  0  0  0  0999 V2000
    5.1265    4.6333    3.2875 P   0  3  0  0  0  0  0  0  0  0  0  0
    5.5644    2.2713    4.4784 O   0  0  0  0  0  0  0  0  0  0  0  0
    4.7917    2.9583    5.3056 C   0  0  0  0  0  0  0  0  0  0  0  0
    4.6980    3.4050    2.0361 C   0  0  0  0  0  0  0  0  0  0  0  0
    4.4834    4.2357    4.8658 C   0  0  0  0  0  0  0  0  0  0  0  0
    6.9002    4.9757    3.2649 C   0  0  0  0  0  0  0  0  0  0  0  0
    4.4306    6.1862    2.6466 C   0  0  0  0  0  0  0  0  0  0  0  0
    3.4312    2.8332    2.0880 C   0  0  0  0  0  0  0  0  0  0  0  0
    2.8471    3.0429    2.8070 H   0  0  0  0  0  0  0  0  0  0  0  0
    3.7904    5.2894    5.7029 C   0  0  0  0  0  0  0  0  0  0  0  0
    4.4628    5.8517    6.1417 H   0  0  0  0  0  0  0  0  0  0  0  0
    3.2353    4.8536    6.3824 H   0  0  0  0  0  0  0  0  0  0  0  0
    3.2257    5.8452    5.1264 H   0  0  0  0  0  0  0  0  0  0  0  0
    7.7557    1.0187    4.6420 C   0  0  0  0  0  0  0  0  0  0  0  0
    7.9946    1.7007    5.3186 H   0  0  0  0  0  0  0  0  0  0  0  0
    8.1592    0.1615    4.9289 H   0  0  0  0  0  0  0  0  0  0  0  0
    5.5548    3.0867    0.9917 C   0  0  0  0  0  0  0  0  0  0  0  0
    6.4248    3.4665    0.9537 H   0  0  0  0  0  0  0  0  0  0  0  0
    3.7213    6.2126    1.4438 C   0  0  0  0  0  0  0  0  0  0  0  0
    3.5776    5.4064    0.9623 H   0  0  0  0  0  0  0  0  0  0  0  0
    7.6887    4.6111    4.3516 C   0  0  0  0  0  0  0  0  0  0  0  0
    7.3026    4.1471    5.0849 H   0  0  0  0  0  0  0  0  0  0  0  0
    5.5575    0.0228    3.3502 C   0  0  0  0  0  0  0  0  0  0  0  0
    5.6328    0.5986    2.5484 H   0  0  0  0  0  0  0  0  0  0  0  0
    6.1309   -0.7705    3.2027 H   0  0  0  0  0  0  0  0  0  0  0  0
    4.6450    7.3791    3.3261 C   0  0  0  0  0  0  0  0  0  0  0  0
    5.1529    7.3796    4.1289 H   0  0  0  0  0  0  0  0  0  0  0  0
    7.4787    5.6716    2.2008 C   0  0  0  0  0  0  0  0  0  0  0  0
    6.9456    5.9328    1.4592 H   0  0  0  0  0  0  0  0  0  0  0  0
    3.0182    1.9590    1.0958 C   0  0  0  0  0  0  0  0  0  0  0  0
    2.1552    1.5647    1.1354 H   0  0  0  0  0  0  0  0  0  0  0  0
    9.0365    4.9247    4.3637 C   0  0  0  0  0  0  0  0  0  0  0  0
    9.5759    4.6683    5.1023 H   0  0  0  0  0  0  0  0  0  0  0  0
    3.8728    1.6632    0.0447 C   0  0  0  0  0  0  0  0  0  0  0  0
    3.5863    1.0805   -0.6489 H   0  0  0  0  0  0  0  0  0  0  0  0
    5.1314    2.2094    0.0035 C   0  0  0  0  0  0  0  0  0  0  0  0
    5.7188    1.9856   -0.7089 H   0  0  0  0  0  0  0  0  0  0  0  0
    4.1048   -0.4446    3.4785 C   0  0  0  0  0  0  0  0  0  0  0  0
    3.7640   -0.6970    2.5953 H   0  0  0  0  0  0  0  0  0  0  0  0
    3.5591    0.2833    3.8436 H   0  0  0  0  0  0  0  0  0  0  0  0
    4.0626   -1.2175    4.0788 H   0  0  0  0  0  0  0  0  0  0  0  0
    3.2272    7.4060    0.9502 C   0  0  0  0  0  0  0  0  0  0  0  0
    2.7575    7.4197    0.1244 H   0  0  0  0  0  0  0  0  0  0  0  0
    4.1245    8.5654    2.8432 C   0  0  0  0  0  0  0  0  0  0  0  0
    4.2543    9.3727    3.3263 H   0  0  0  0  0  0  0  0  0  0  0  0
    8.3824    1.4236    3.3056 C   0  0  0  0  0  0  0  0  0  0  0  0
    8.2173    0.7230    2.6411 H   0  0  0  0  0  0  0  0  0  0  0  0
    9.3485    1.5435    3.4210 H   0  0  0  0  0  0  0  0  0  0  0  0
    7.9837    2.2652    2.9993 H   0  0  0  0  0  0  0  0  0  0  0  0
    9.5989    5.6102    3.3056 C   0  0  0  0  0  0  0  0  0  0  0  0
   10.5233    5.8269    3.3211 H   0  0  0  0  0  0  0  0  0  0  0  0
    8.8239    5.9802    2.2254 C   0  0  0  0  0  0  0  0  0  0  0  0
    9.2171    6.4487    1.4981 H   0  0  0  0  0  0  0  0  0  0  0  0
    3.4142    8.5745    1.6539 C   0  0  0  0  0  0  0  0  0  0  0  0
    3.0556    9.3898    1.3228 H   0  0  0  0  0  0  0  0  0  0  0  0
    6.1315    0.8465    4.6361 B   0  5  0  0  0  0  0  0  0  0  0  0
    5.2835   -1.4754    8.0562 P   0  3  0  0  0  0  0  0  0  0  0  0
    4.8456    0.8866    6.8654 O   0  0  0  0  0  0  0  0  0  0  0  0
    5.6183    0.1996    6.0382 C   0  0  0  0  0  0  0  0  0  0  0  0
    5.7120   -0.2470    9.3077 C   0  0  0  0  0  0  0  0  0  0  0  0
    5.9266   -1.0778    6.4780 C   0  0  0  0  0  0  0  0  0  0  0  0
    3.5098   -1.8178    8.0789 C   0  0  0  0  0  0  0  0  0  0  0  0
    5.9794   -3.0282    8.6972 C   0  0  0  0  0  0  0  0  0  0  0  0
    6.9788    0.3248    9.2557 C   0  0  0  0  0  0  0  0  0  0  0  0
    7.5629    0.1150    8.5368 H   0  0  0  0  0  0  0  0  0  0  0  0
    6.6196   -2.1315    5.6409 C   0  0  0  0  0  0  0  0  0  0  0  0
    5.9472   -2.6937    5.2021 H   0  0  0  0  0  0  0  0  0  0  0  0
    7.1746   -1.6956    4.9613 H   0  0  0  0  0  0  0  0  0  0  0  0
    7.1843   -2.6872    6.2173 H   0  0  0  0  0  0  0  0  0  0  0  0
    2.6543    2.1392    6.7018 C   0  0  0  0  0  0  0  0  0  0  0  0
    2.4154    1.4573    6.0252 H   0  0  0  0  0  0  0  0  0  0  0  0
    2.2507    2.9964    6.4148 H   0  0  0  0  0  0  0  0  0  0  0  0
    4.8552    0.0712   10.3521 C   0  0  0  0  0  0  0  0  0  0  0  0
    3.9852   -0.3086   10.3900 H   0  0  0  0  0  0  0  0  0  0  0  0
    6.6886   -3.0547    9.8999 C   0  0  0  0  0  0  0  0  0  0  0  0
    6.8323   -2.2484   10.3815 H   0  0  0  0  0  0  0  0  0  0  0  0
    2.7213   -1.4532    6.9922 C   0  0  0  0  0  0  0  0  0  0  0  0
    3.1074   -0.9891    6.2589 H   0  0  0  0  0  0  0  0  0  0  0  0
    4.8525    3.1351    7.9936 C   0  0  0  0  0  0  0  0  0  0  0  0
    4.7772    2.5593    8.7954 H   0  0  0  0  0  0  0  0  0  0  0  0
    4.2790    3.9284    8.1411 H   0  0  0  0  0  0  0  0  0  0  0  0
    5.7650   -4.2212    8.0177 C   0  0  0  0  0  0  0  0  0  0  0  0
    5.2570   -4.2217    7.2149 H   0  0  0  0  0  0  0  0  0  0  0  0
    2.9312   -2.5136    9.1430 C   0  0  0  0  0  0  0  0  0  0  0  0
    3.4644   -2.7749    9.8846 H   0  0  0  0  0  0  0  0  0  0  0  0
    7.3917    1.1989   10.2480 C   0  0  0  0  0  0  0  0  0  0  0  0
    8.2548    1.5932   10.2083 H   0  0  0  0  0  0  0  0  0  0  0  0
    1.3735   -1.7668    6.9801 C   0  0  0  0  0  0  0  0  0  0  0  0
    0.8341   -1.5104    6.2415 H   0  0  0  0  0  0  0  0  0  0  0  0
    6.5372    1.4948   11.2991 C   0  0  0  0  0  0  0  0  0  0  0  0
    6.8236    2.0775   11.9927 H   0  0  0  0  0  0  0  0  0  0  0  0
    5.2786    0.9485   11.3403 C   0  0  0  0  0  0  0  0  0  0  0  0
    4.6912    1.1724   12.0527 H   0  0  0  0  0  0  0  0  0  0  0  0
    6.3052    3.6025    7.8653 C   0  0  0  0  0  0  0  0  0  0  0  0
    6.6460    3.8549    8.7485 H   0  0  0  0  0  0  0  0  0  0  0  0
    6.8508    2.8747    7.5002 H   0  0  0  0  0  0  0  0  0  0  0  0
    6.3474    4.3755    7.2650 H   0  0  0  0  0  0  0  0  0  0  0  0
    7.1828   -4.2481   10.3936 C   0  0  0  0  0  0  0  0  0  0  0  0
    7.6525   -4.2617   11.2194 H   0  0  0  0  0  0  0  0  0  0  0  0
    6.2854   -5.4075    8.5006 C   0  0  0  0  0  0  0  0  0  0  0  0
    6.1557   -6.2147    8.0174 H   0  0  0  0  0  0  0  0  0  0  0  0
    2.0276    1.7344    8.0382 C   0  0  0  0  0  0  0  0  0  0  0  0
    2.1927    2.4349    8.7027 H   0  0  0  0  0  0  0  0  0  0  0  0
    1.0615    1.6144    7.9227 H   0  0  0  0  0  0  0  0  0  0  0  0
    2.4262    0.8927    8.3444 H   0  0  0  0  0  0  0  0  0  0  0  0
    0.8110   -2.4522    8.0382 C   0  0  0  0  0  0  0  0  0  0  0  0
   -0.1133   -2.6690    8.0227 H   0  0  0  0  0  0  0  0  0  0  0  0
    1.5860   -2.8223    9.1184 C   0  0  0  0  0  0  0  0  0  0  0  0
    1.1929   -3.2908    9.8457 H   0  0  0  0  0  0  0  0  0  0  0  0
    6.9957   -5.4166    9.6899 C   0  0  0  0  0  0  0  0  0  0  0  0
    7.3544   -6.2318   10.0210 H   0  0  0  0  0  0  0  0  0  0  0  0
    4.2785    2.3115    6.7077 B   0  5  0  0  0  0  0  0  0  0  0  0
  1  4  1  0  0  0  0
  2  3  1  0  0  0  0
  3  5  2  0  0  0  0
  4  8  4  0  0  0  0
  5  1  1  0  0  0  0
  6  1  1  0  0  0  0
  7  1  1  0  0  0  0
  8  9  1  0  0  0  0
 10  5  1  0  0  0  0
 11 10  1  0  0  0  0
 12 10  1  0  0  0  0
 13 10  1  0  0  0  0
 14 15  1  0  0  0  0
 16 14  1  0  0  0  0
 17  4  4  0  0  0  0
 18 17  1  0  0  0  0
 19  7  4  0  0  0  0
 20 19  1  0  0  0  0
 21  6  4  0  0  0  0
 22 21  1  0  0  0  0
 23 24  1  0  0  0  0
 25 23  1  0  0  0  0
 26  7  4  0  0  0  0
 27 26  1  0  0  0  0
 28  6  4  0  0  0  0
 29 28  1  0  0  0  0
 30  8  4  0  0  0  0
 31 30  1  0  0  0  0
 32 21  4  0  0  0  0
 33 32  1  0  0  0  0
 34 30  4  0  0  0  0
 35 34  1  0  0  0  0
 36 17  4  0  0  0  0
 37 36  1  0  0  0  0
 38 23  1  0  0  0  0
 39 38  1  0  0  0  0
 40 38  1  0  0  0  0
 41 38  1  0  0  0  0
 42 19  4  0  0  0  0
 43 42  1  0  0  0  0
 44 26  4  0  0  0  0
 45 44  1  0  0  0  0
 46 14  1  0  0  0  0
 47 46  1  0  0  0  0
 48 46  1  0  0  0  0
 49 46  1  0  0  0  0
 50 32  4  0  0  0  0
 51 50  1  0  0  0  0
 52 28  4  0  0  0  0
 53 52  1  0  0  0  0
 54 42  4  0  0  0  0
 55 54  1  0  0  0  0
 56  2  1  0  0  0  0
 57 60  1  0  0  0  0
 58 59  1  0  0  0  0
 59 56  1  0  0  0  0
 60 64  4  0  0  0  0
 61 57  1  0  0  0  0
 62 57  1  0  0  0  0
 63 57  1  0  0  0  0
 64 65  1  0  0  0  0
 66 61  1  0  0  0  0
 67 66  1  0  0  0  0
 68 66  1  0  0  0  0
 69 66  1  0  0  0  0
 70 71  1  0  0  0  0
 72 70  1  0  0  0  0
 73 60  4  0  0  0  0
 74 73  1  0  0  0  0
 75 63  4  0  0  0  0
 76 75  1  0  0  0  0
 77 62  4  0  0  0  0
 78 77  1  0  0  0  0
 79 80  1  0  0  0  0
 81 79  1  0  0  0  0
 82 63  4  0  0  0  0
 83 82  1  0  0  0  0
 84 62  4  0  0  0  0
 85 84  1  0  0  0  0
 86 64  4  0  0  0  0
 87 86  1  0  0  0  0
 88 77  4  0  0  0  0
 89 88  1  0  0  0  0
 90 86  4  0  0  0  0
 91 90  1  0  0  0  0
 92 73  4  0  0  0  0
 93 92  1  0  0  0  0
 94 79  1  0  0  0  0
 95 94  1  0  0  0  0
 96 94  1  0  0  0  0
 97 94  1  0  0  0  0
 98 75  4  0  0  0  0
 99 98  1  0  0  0  0
100 82  4  0  0  0  0
101100  1  0  0  0  0
102 70  1  0  0  0  0
103102  1  0  0  0  0
104102  1  0  0  0  0
105102  1  0  0  0  0
106 88  4  0  0  0  0
107106  1  0  0  0  0
108 84  4  0  0  0  0
109108  1  0  0  0  0
110 98  4  0  0  0  0
111110  1  0  0  0  0
112  3  1  0  0  0  0
 14 56  1  0  0  0  0
 23 56  1  0  0  0  0
 34 36  4  0  0  0  0
 44 54  4  0  0  0  0
 50 52  4  0  0  0  0
 58112  1  0  0  0  0
 59 61  2  0  0  0  0
 70112  1  0  0  0  0
 79112  1  0  0  0  0
 90 92  4  0  0  0  0
100110  4  0  0  0  0
106108  4  0  0  0  0
M  CHG  4   1   1  56  -1  57   1 112  -1
M  END
$$$$
LIRZIY

From CSD data. Using bond type 'Any'. No disordered atoms. Largest molecule.
191196  0  0  0  0  0  0  0  0999 V2000
    4.0231   -1.9956   13.4141 B   0  0  0  0  0  0  0  0  0  0  0  0
    3.1905   -1.4627    9.7191 B   0  0  0  0  0  0  0  0  0  0  0  0
    2.0453   -1.5263    9.7237 H   0  0  0  0  0  0  0  0  0  0  0  0
    3.7464   -0.7278    8.3762 B   0  0  0  0  0  0  0  0  0  0  0  0
    2.1818   -0.5466   12.3269 C   0  0  0  0  0  0  0  0  0  0  0  0
    2.3940    0.8210   12.4463 C   0  0  0  0  0  0  0  0  0  0  0  0
    1.3117    1.6927   12.4785 C   0  0  0  0  0  0  0  0  0  0  0  0
    1.4573    2.6279   12.5603 H   0  0  0  0  0  0  0  0  0  0  0  0
    0.0169    1.1951   12.3928 C   0  0  0  0  0  0  0  0  0  0  0  0
   -0.7231    1.7910   12.4148 H   0  0  0  0  0  0  0  0  0  0  0  0
   -0.1964   -0.1725   12.2733 C   0  0  0  0  0  0  0  0  0  0  0  0
   -1.0812   -0.5127   12.2141 H   0  0  0  0  0  0  0  0  0  0  0  0
    0.8862   -1.0437   12.2396 C   0  0  0  0  0  0  0  0  0  0  0  0
    0.6180   -2.5454   12.1814 C   0  0  0  0  0  0  0  0  0  0  0  0
    1.4524   -2.9871   11.8526 H   0  0  0  0  0  0  0  0  0  0  0  0
   -0.5091   -2.9226   11.2244 C   0  0  0  0  0  0  0  0  0  0  0  0
   -1.3633   -2.6008   11.5830 H   0  0  0  0  0  0  0  0  0  0  0  0
   -0.5430   -3.8973   11.1279 H   0  0  0  0  0  0  0  0  0  0  0  0
   -0.3470   -2.5126   10.3500 H   0  0  0  0  0  0  0  0  0  0  0  0
    0.3401   -3.0788   13.6101 C   0  0  0  0  0  0  0  0  0  0  0  0
    1.1051   -2.8777   14.1892 H   0  0  0  0  0  0  0  0  0  0  0  0
    0.2021   -4.0482   13.5763 H   0  0  0  0  0  0  0  0  0  0  0  0
   -0.4633   -2.6471   13.9700 H   0  0  0  0  0  0  0  0  0  0  0  0
    3.8052    1.4038   12.5734 C   0  0  0  0  0  0  0  0  0  0  0  0
    4.4556    0.7151   12.2538 H   0  0  0  0  0  0  0  0  0  0  0  0
    4.0060    2.6624   11.7481 C   0  0  0  0  0  0  0  0  0  0  0  0
    3.7712    2.4810   10.8142 H   0  0  0  0  0  0  0  0  0  0  0  0
    4.9447    2.9401   11.8007 H   0  0  0  0  0  0  0  0  0  0  0  0
    3.4337    3.3765   12.0968 H   0  0  0  0  0  0  0  0  0  0  0  0
    4.1094    1.6999   14.0450 C   0  0  0  0  0  0  0  0  0  0  0  0
    3.4722    2.3631   14.3830 H   0  0  0  0  0  0  0  0  0  0  0  0
    5.0205    2.0512   14.1253 H   0  0  0  0  0  0  0  0  0  0  0  0
    4.0299    0.8744   14.5669 H   0  0  0  0  0  0  0  0  0  0  0  0
    3.8809   -1.9295   11.0712 C   0  0  0  0  0  0  0  0  0  0  0  0
    4.9220   -2.7160   11.3469 C   0  0  0  0  0  0  0  0  0  0  0  0
    5.4668   -3.1084   10.6744 H   0  0  0  0  0  0  0  0  0  0  0  0
    5.1600   -2.9305   12.8521 C   0  0  0  0  0  0  0  0  0  0  0  0
    4.3577   -1.8603   15.8565 C   0  0  0  0  0  0  0  0  0  0  0  0
    5.0811   -2.4927   15.6672 H   0  0  0  0  0  0  0  0  0  0  0  0
    3.7685   -2.2328   16.5449 H   0  0  0  0  0  0  0  0  0  0  0  0
    4.7372   -1.0142   16.1740 H   0  0  0  0  0  0  0  0  0  0  0  0
    3.2015   -5.2720   12.5061 C   0  0  0  0  0  0  0  0  0  0  0  0
    3.1056   -4.8762   11.6149 H   0  0  0  0  0  0  0  0  0  0  0  0
    2.4722   -4.9602   13.0822 H   0  0  0  0  0  0  0  0  0  0  0  0
    3.1669   -6.2488   12.4355 H   0  0  0  0  0  0  0  0  0  0  0  0
    4.7067   -5.1498   15.0786 C   0  0  0  0  0  0  0  0  0  0  0  0
    4.5546   -6.1105   15.1959 H   0  0  0  0  0  0  0  0  0  0  0  0
    3.9565   -4.6505   15.4637 H   0  0  0  0  0  0  0  0  0  0  0  0
    5.5369   -4.8927   15.5324 H   0  0  0  0  0  0  0  0  0  0  0  0
    6.2013   -5.8425   12.5443 C   0  0  0  0  0  0  0  0  0  0  0  0
    5.9433   -6.7836   12.6334 H   0  0  0  0  0  0  0  0  0  0  0  0
    7.0340   -5.6839   13.0360 H   0  0  0  0  0  0  0  0  0  0  0  0
    6.3341   -5.6277   11.5979 H   0  0  0  0  0  0  0  0  0  0  0  0
    7.6994   -3.1635   14.7586 C   0  0  0  0  0  0  0  0  0  0  0  0
    8.6365   -2.8881   14.8383 H   0  0  0  0  0  0  0  0  0  0  0  0
    7.6501   -4.1406   14.6994 H   0  0  0  0  0  0  0  0  0  0  0  0
    7.2006   -2.8580   15.5443 H   0  0  0  0  0  0  0  0  0  0  0  0
    7.0591   -0.5344   13.3835 C   0  0  0  0  0  0  0  0  0  0  0  0
    6.5082   -0.2429   14.1400 H   0  0  0  0  0  0  0  0  0  0  0  0
    6.7302   -0.1154   12.5602 H   0  0  0  0  0  0  0  0  0  0  0  0
    7.9897   -0.2691   13.5354 H   0  0  0  0  0  0  0  0  0  0  0  0
    8.1170   -2.9060   11.8170 C   0  0  0  0  0  0  0  0  0  0  0  0
    9.0407   -2.6972   12.0685 H   0  0  0  0  0  0  0  0  0  0  0  0
    7.8790   -2.4115   11.0055 H   0  0  0  0  0  0  0  0  0  0  0  0
    8.0331   -3.8681   11.6503 H   0  0  0  0  0  0  0  0  0  0  0  0
    1.6588    1.5607    8.5829 C   0  0  0  0  0  0  0  0  0  0  0  0
    0.8912    1.9754    8.1368 H   0  0  0  0  0  0  0  0  0  0  0  0
    2.3498    2.2368    8.7410 H   0  0  0  0  0  0  0  0  0  0  0  0
    1.3720    1.1800    9.4395 H   0  0  0  0  0  0  0  0  0  0  0  0
    2.7262    1.0767    5.9766 C   0  0  0  0  0  0  0  0  0  0  0  0
    3.0536    0.4190    5.3278 H   0  0  0  0  0  0  0  0  0  0  0  0
    3.4198    1.7522    6.1338 H   0  0  0  0  0  0  0  0  0  0  0  0
    1.9224    1.5119    5.6230 H   0  0  0  0  0  0  0  0  0  0  0  0
    0.8962   -0.7772    7.1542 C   0  0  0  0  0  0  0  0  0  0  0  0
    0.1707   -0.2115    6.8168 H   0  0  0  0  0  0  0  0  0  0  0  0
    0.5993   -1.2373    7.9680 H   0  0  0  0  0  0  0  0  0  0  0  0
    1.1375   -1.4400    6.4746 H   0  0  0  0  0  0  0  0  0  0  0  0
    6.7039   -0.8365    9.0974 C   0  0  0  0  0  0  0  0  0  0  0  0
    6.7303   -1.7957    8.8969 H   0  0  0  0  0  0  0  0  0  0  0  0
    6.4757   -0.7066   10.0414 H   0  0  0  0  0  0  0  0  0  0  0  0
    7.5821   -0.4410    8.9160 H   0  0  0  0  0  0  0  0  0  0  0  0
    6.0674   -0.2985    6.3840 C   0  0  0  0  0  0  0  0  0  0  0  0
    6.9836    0.0428    6.3100 H   0  0  0  0  0  0  0  0  0  0  0  0
    5.4894    0.1788    5.7531 H   0  0  0  0  0  0  0  0  0  0  0  0
    6.0584   -1.2561    6.1755 H   0  0  0  0  0  0  0  0  0  0  0  0
    5.7004    1.7056    8.4145 C   0  0  0  0  0  0  0  0  0  0  0  0
    5.4228    1.8960    9.3341 H   0  0  0  0  0  0  0  0  0  0  0  0
    5.1608    2.2382    7.7929 H   0  0  0  0  0  0  0  0  0  0  0  0
    6.6468    1.9356    8.3040 H   0  0  0  0  0  0  0  0  0  0  0  0
    3.2899   -1.4591   12.3009 N   0  0  0  0  0  0  0  0  0  0  0  0
    3.6122   -1.6275   14.6728 O   0  0  0  0  0  0  0  0  0  0  0  0
    2.3293    0.2454    7.5327 P   0  0  0  0  0  0  0  0  0  0  0  0
    5.4643   -0.0426    8.0658 P   0  0  0  0  0  0  0  0  0  0  0  0
    4.8469   -4.7562   13.2463 Si  0  0  0  0  0  0  0  0  0  0  0  0
    6.9574   -2.4094   13.2181 Si  0  0  0  0  0  0  0  0  0  0  0  0
    3.7094   -2.8118    7.6565 Au  0  3  0  0  0  0  0  0  0  0  0  0
    3.3957   -3.6281    1.8988 B   0  0  0  0  0  0  0  0  0  0  0  0
    4.2284   -4.1610    5.5938 B   0  0  0  0  0  0  0  0  0  0  0  0
    5.3735   -4.0974    5.5892 H   0  0  0  0  0  0  0  0  0  0  0  0
    3.6724   -4.8959    6.9368 B   0  0  0  0  0  0  0  0  0  0  0  0
    5.2370   -5.0771    2.9860 C   0  0  0  0  0  0  0  0  0  0  0  0
    5.0248   -6.4447    2.8666 C   0  0  0  0  0  0  0  0  0  0  0  0
    6.1071   -7.3164    2.8344 C   0  0  0  0  0  0  0  0  0  0  0  0
    5.9615   -8.2515    2.7526 H   0  0  0  0  0  0  0  0  0  0  0  0
    7.4019   -6.8188    2.9202 C   0  0  0  0  0  0  0  0  0  0  0  0
    8.1419   -7.4147    2.8981 H   0  0  0  0  0  0  0  0  0  0  0  0
    7.6153   -5.4512    3.0396 C   0  0  0  0  0  0  0  0  0  0  0  0
    8.5000   -5.1110    3.0989 H   0  0  0  0  0  0  0  0  0  0  0  0
    6.5326   -4.5800    3.0733 C   0  0  0  0  0  0  0  0  0  0  0  0
    6.8008   -3.0783    3.1315 C   0  0  0  0  0  0  0  0  0  0  0  0
    5.9664   -2.6366    3.4604 H   0  0  0  0  0  0  0  0  0  0  0  0
    7.9280   -2.7011    4.0886 C   0  0  0  0  0  0  0  0  0  0  0  0
    8.7822   -3.0229    3.7299 H   0  0  0  0  0  0  0  0  0  0  0  0
    7.9618   -1.7264    4.1850 H   0  0  0  0  0  0  0  0  0  0  0  0
    7.7658   -3.1111    4.9629 H   0  0  0  0  0  0  0  0  0  0  0  0
    7.0788   -2.5449    1.7028 C   0  0  0  0  0  0  0  0  0  0  0  0
    6.3138   -2.7460    1.1237 H   0  0  0  0  0  0  0  0  0  0  0  0
    7.2167   -1.5754    1.7366 H   0  0  0  0  0  0  0  0  0  0  0  0
    7.8821   -2.9766    1.3429 H   0  0  0  0  0  0  0  0  0  0  0  0
    3.6136   -7.0275    2.7395 C   0  0  0  0  0  0  0  0  0  0  0  0
    2.9632   -6.3388    3.0592 H   0  0  0  0  0  0  0  0  0  0  0  0
    3.4128   -8.2861    3.5648 C   0  0  0  0  0  0  0  0  0  0  0  0
    3.6476   -8.1047    4.4988 H   0  0  0  0  0  0  0  0  0  0  0  0
    2.4742   -8.5638    3.5122 H   0  0  0  0  0  0  0  0  0  0  0  0
    3.9851   -9.0002    3.2161 H   0  0  0  0  0  0  0  0  0  0  0  0
    3.3094   -7.3236    1.2679 C   0  0  0  0  0  0  0  0  0  0  0  0
    3.9467   -7.9868    0.9300 H   0  0  0  0  0  0  0  0  0  0  0  0
    2.3983   -7.6749    1.1876 H   0  0  0  0  0  0  0  0  0  0  0  0
    3.3889   -6.4981    0.7460 H   0  0  0  0  0  0  0  0  0  0  0  0
    3.5380   -3.6942    4.2417 C   0  0  0  0  0  0  0  0  0  0  0  0
    2.4968   -2.9077    3.9660 C   0  0  0  0  0  0  0  0  0  0  0  0
    1.9520   -2.5153    4.6385 H   0  0  0  0  0  0  0  0  0  0  0  0
    2.2588   -2.6932    2.4608 C   0  0  0  0  0  0  0  0  0  0  0  0
    3.0612   -3.7634   -0.5436 C   0  0  0  0  0  0  0  0  0  0  0  0
    2.3377   -3.1310   -0.3543 H   0  0  0  0  0  0  0  0  0  0  0  0
    3.6504   -3.3909   -1.2320 H   0  0  0  0  0  0  0  0  0  0  0  0
    2.6816   -4.6095   -0.8611 H   0  0  0  0  0  0  0  0  0  0  0  0
    4.2173   -0.3517    2.8069 C   0  0  0  0  0  0  0  0  0  0  0  0
    4.3132   -0.7475    3.6980 H   0  0  0  0  0  0  0  0  0  0  0  0
    4.9466   -0.6635    2.2308 H   0  0  0  0  0  0  0  0  0  0  0  0
    4.2519    0.6251    2.8774 H   0  0  0  0  0  0  0  0  0  0  0  0
    2.7122   -0.4739    0.2343 C   0  0  0  0  0  0  0  0  0  0  0  0
    2.8642    0.4868    0.1170 H   0  0  0  0  0  0  0  0  0  0  0  0
    3.4623   -0.9732   -0.1508 H   0  0  0  0  0  0  0  0  0  0  0  0
    1.8819   -0.7310   -0.2194 H   0  0  0  0  0  0  0  0  0  0  0  0
    1.2175    0.2188    2.7686 C   0  0  0  0  0  0  0  0  0  0  0  0
    1.4755    1.1599    2.6795 H   0  0  0  0  0  0  0  0  0  0  0  0
    0.3848    0.0602    2.2770 H   0  0  0  0  0  0  0  0  0  0  0  0
    1.0848    0.0040    3.7150 H   0  0  0  0  0  0  0  0  0  0  0  0
   -0.2806   -2.4602    0.5543 C   0  0  0  0  0  0  0  0  0  0  0  0
   -1.2177   -2.7356    0.4746 H   0  0  0  0  0  0  0  0  0  0  0  0
   -0.2313   -1.4831    0.6135 H   0  0  0  0  0  0  0  0  0  0  0  0
    0.2182   -2.7657   -0.2314 H   0  0  0  0  0  0  0  0  0  0  0  0
    0.3598   -5.0893    1.9294 C   0  0  0  0  0  0  0  0  0  0  0  0
    0.9106   -5.3808    1.1730 H   0  0  0  0  0  0  0  0  0  0  0  0
    0.6886   -5.5083    2.7527 H   0  0  0  0  0  0  0  0  0  0  0  0
   -0.5709   -5.3546    1.7775 H   0  0  0  0  0  0  0  0  0  0  0  0
   -0.6982   -2.7177    3.4959 C   0  0  0  0  0  0  0  0  0  0  0  0
   -1.6219   -2.9265    3.2444 H   0  0  0  0  0  0  0  0  0  0  0  0
   -0.4602   -3.2122    4.3074 H   0  0  0  0  0  0  0  0  0  0  0  0
   -0.6143   -1.7556    3.6626 H   0  0  0  0  0  0  0  0  0  0  0  0
    5.7600   -7.1844    6.7300 C   0  0  0  0  0  0  0  0  0  0  0  0
    6.5277   -7.5991    7.1761 H   0  0  0  0  0  0  0  0  0  0  0  0
    5.0690   -7.8605    6.5719 H   0  0  0  0  0  0  0  0  0  0  0  0
    6.0469   -6.8037    5.8734 H   0  0  0  0  0  0  0  0  0  0  0  0
    4.6926   -6.7004    9.3363 C   0  0  0  0  0  0  0  0  0  0  0  0
    4.3653   -6.0427    9.9851 H   0  0  0  0  0  0  0  0  0  0  0  0
    3.9990   -7.3759    9.1791 H   0  0  0  0  0  0  0  0  0  0  0  0
    5.4965   -7.1356    9.6899 H   0  0  0  0  0  0  0  0  0  0  0  0
    6.5226   -4.8465    8.1587 C   0  0  0  0  0  0  0  0  0  0  0  0
    7.2482   -5.4122    8.4961 H   0  0  0  0  0  0  0  0  0  0  0  0
    6.8195   -4.3864    7.3450 H   0  0  0  0  0  0  0  0  0  0  0  0
    6.2813   -4.1837    8.8384 H   0  0  0  0  0  0  0  0  0  0  0  0
    0.7149   -4.7872    6.2155 C   0  0  0  0  0  0  0  0  0  0  0  0
    0.6885   -3.8280    6.4161 H   0  0  0  0  0  0  0  0  0  0  0  0
    0.9431   -4.9171    5.2715 H   0  0  0  0  0  0  0  0  0  0  0  0
   -0.1632   -5.1827    6.3969 H   0  0  0  0  0  0  0  0  0  0  0  0
    1.3514   -5.3252    8.9290 C   0  0  0  0  0  0  0  0  0  0  0  0
    0.4353   -5.6665    9.0029 H   0  0  0  0  0  0  0  0  0  0  0  0
    1.9294   -5.8025    9.5599 H   0  0  0  0  0  0  0  0  0  0  0  0
    1.3604   -4.3676    9.1374 H   0  0  0  0  0  0  0  0  0  0  0  0
    1.7184   -7.3293    6.8985 C   0  0  0  0  0  0  0  0  0  0  0  0
    1.9961   -7.5197    5.9788 H   0  0  0  0  0  0  0  0  0  0  0  0
    2.2580   -7.8619    7.5200 H   0  0  0  0  0  0  0  0  0  0  0  0
    0.7720   -7.5593    7.0089 H   0  0  0  0  0  0  0  0  0  0  0  0
    4.1290   -4.1646    3.0121 N   0  0  0  0  0  0  0  0  0  0  0  0
    3.8067   -3.9962    0.6401 O   0  0  0  0  0  0  0  0  0  0  0  0
    5.0895   -5.8691    7.7802 P   0  0  0  0  0  0  0  0  0  0  0  0
    1.9546   -5.5810    7.2471 P   0  0  0  0  0  0  0  0  0  0  0  0
    2.5719   -0.8675    2.0666 Si  0  0  0  0  0  0  0  0  0  0  0  0
    0.4614   -3.2143    2.0948 Si  0  0  0  0  0  0  0  0  0  0  0  0
  1 37  1  0  0  0  0
  2  3  1  0  0  0  0
  4  2  1  0  0  0  0
  5  6  4  0  0  0  0
  6  7  4  0  0  0  0
  7  8  1  0  0  0  0
  9  7  4  0  0  0  0
 10  9  1  0  0  0  0
 11  9  4  0  0  0  0
 12 11  1  0  0  0  0
 13  5  4  0  0  0  0
 14 13  1  0  0  0  0
 15 14  1  0  0  0  0
 16 14  1  0  0  0  0
 17 16  1  0  0  0  0
 18 16  1  0  0  0  0
 19 16  1  0  0  0  0
 20 14  1  0  0  0  0
 21 20  1  0  0  0  0
 22 20  1  0  0  0  0
 23 20  1  0  0  0  0
 24  6  1  0  0  0  0
 25 24  1  0  0  0  0
 26 24  1  0  0  0  0
 27 26  1  0  0  0  0
 28 26  1  0  0  0  0
 29 26  1  0  0  0  0
 30 24  1  0  0  0  0
 31 30  1  0  0  0  0
 32 30  1  0  0  0  0
 33 30  1  0  0  0  0
 34  2  1  0  0  0  0
 35 34  2  0  0  0  0
 36 35  1  0  0  0  0
 37 35  1  0  0  0  0
 38 39  1  0  0  0  0
 40 38  1  0  0  0  0
 41 38  1  0  0  0  0
 42 43  1  0  0  0  0
 44 42  1  0  0  0  0
 45 42  1  0  0  0  0
 46 47  1  0  0  0  0
 48 46  1  0  0  0  0
 49 46  1  0  0  0  0
 50 51  1  0  0  0  0
 52 50  1  0  0  0  0
 53 50  1  0  0  0  0
 54 55  1  0  0  0  0
 56 54  1  0  0  0  0
 57 54  1  0  0  0  0
 58 59  1  0  0  0  0
 60 58  1  0  0  0  0
 61 58  1  0  0  0  0
 62 63  1  0  0  0  0
 64 62  1  0  0  0  0
 65 62  1  0  0  0  0
 66 67  1  0  0  0  0
 68 66  1  0  0  0  0
 69 66  1  0  0  0  0
 70 71  1  0  0  0  0
 72 70  1  0  0  0  0
 73 70  1  0  0  0  0
 74 75  1  0  0  0  0
 76 74  1  0  0  0  0
 77 74  1  0  0  0  0
 78 79  1  0  0  0  0
 80 78  1  0  0  0  0
 81 78  1  0  0  0  0
 82 83  1  0  0  0  0
 84 82  1  0  0  0  0
 85 82  1  0  0  0  0
 86 87  1  0  0  0  0
 88 86  1  0  0  0  0
 89 86  1  0  0  0  0
 90  1  1  0  0  0  0
 91  1  1  0  0  0  0
 92  4  1  0  0  0  0
 93  4  1  0  0  0  0
 94 37  1  0  0  0  0
 95 37  1  0  0  0  0
 96  2  1  0  0  0  0
 97133  1  0  0  0  0
 98 96  1  0  0  0  0
 99 98  1  0  0  0  0
100 96  1  0  0  0  0
101102  4  0  0  0  0
102103  4  0  0  0  0
103104  1  0  0  0  0
105103  4  0  0  0  0
106105  1  0  0  0  0
107105  4  0  0  0  0
108107  1  0  0  0  0
109101  4  0  0  0  0
110109  1  0  0  0  0
111110  1  0  0  0  0
112110  1  0  0  0  0
113112  1  0  0  0  0
114112  1  0  0  0  0
115112  1  0  0  0  0
116110  1  0  0  0  0
117116  1  0  0  0  0
118116  1  0  0  0  0
119116  1  0  0  0  0
120102  1  0  0  0  0
121120  1  0  0  0  0
122120  1  0  0  0  0
123122  1  0  0  0  0
124122  1  0  0  0  0
125122  1  0  0  0  0
126120  1  0  0  0  0
127126  1  0  0  0  0
128126  1  0  0  0  0
129126  1  0  0  0  0
130 98  1  0  0  0  0
131130  2  0  0  0  0
132131  1  0  0  0  0
133131  1  0  0  0  0
134135  1  0  0  0  0
136134  1  0  0  0  0
137134  1  0  0  0  0
138139  1  0  0  0  0
140138  1  0  0  0  0
141138  1  0  0  0  0
142143  1  0  0  0  0
144142  1  0  0  0  0
145142  1  0  0  0  0
146147  1  0  0  0  0
148146  1  0  0  0  0
149146  1  0  0  0  0
150151  1  0  0  0  0
152150  1  0  0  0  0
153150  1  0  0  0  0
154155  1  0  0  0  0
156154  1  0  0  0  0
157154  1  0  0  0  0
158159  1  0  0  0  0
160158  1  0  0  0  0
161158  1  0  0  0  0
162163  1  0  0  0  0
164162  1  0  0  0  0
165162  1  0  0  0  0
166167  1  0  0  0  0
168166  1  0  0  0  0
169166  1  0  0  0  0
170171  1  0  0  0  0
172170  1  0  0  0  0
173170  1  0  0  0  0
174175  1  0  0  0  0
176174  1  0  0  0  0
177174  1  0  0  0  0
178179  1  0  0  0  0
180178  1  0  0  0  0
181178  1  0  0  0  0
182183  1  0  0  0  0
184182  1  0  0  0  0
185182  1  0  0  0  0
186 97  1  0  0  0  0
187 97  1  0  0  0  0
188100  1  0  0  0  0
189100  1  0  0  0  0
190133  1  0  0  0  0
191133  1  0  0  0  0
  4 96  1  0  0  0  0
  5 90  1  0  0  0  0
 11 13  4  0  0  0  0
 34 90  1  0  0  0  0
 38 91  1  0  0  0  0
 42 94  1  0  0  0  0
 46 94  1  0  0  0  0
 50 94  1  0  0  0  0
 54 95  1  0  0  0  0
 58 95  1  0  0  0  0
 62 95  1  0  0  0  0
 66 92  1  0  0  0  0
 70 92  1  0  0  0  0
 74 92  1  0  0  0  0
 78 93  1  0  0  0  0
 82 93  1  0  0  0  0
 86 93  1  0  0  0  0
 98100  1  0  0  0  0
101186  1  0  0  0  0
107109  4  0  0  0  0
130186  1  0  0  0  0
134187  1  0  0  0  0
138190  1  0  0  0  0
142190  1  0  0  0  0
146190  1  0  0  0  0
150191  1  0  0  0  0
154191  1  0  0  0  0
158191  1  0  0  0  0
162188  1  0  0  0  0
166188  1  0  0  0  0
170188  1  0  0  0  0
174189  1  0  0  0  0
178189  1  0  0  0  0
182189  1  0  0  0  0
M  CHG  1  96   1
M  END
$$$$
LISNOT

From CSD data. Using bond type 'Any'. No disordered atoms. Largest molecule.
191196  0  0  0  0  0  0  0  0999 V2000
    2.5578   23.5488    7.5911 Cu  0  3  0  0  0  0  0  0  0  0  0  0
    1.3140   18.0676    6.7509 B   0  0  0  0  0  0  0  0  0  0  0  0
    3.1983   21.2984    7.1312 B   0  0  0  0  0  0  0  0  0  0  0  0
    4.2967   22.4463    7.1570 B   0  0  0  0  0  0  0  0  0  0  0  0
    3.7999   29.0738    8.1876 B   0  0  0  0  0  0  0  0  0  0  0  0
    1.9408   25.8138    7.9804 B   0  0  0  0  0  0  0  0  0  0  0  0
    0.8414   24.6701    8.0268 B   0  0  0  0  0  0  0  0  0  0  0  0
    3.6942   18.3310    7.6487 C   0  0  0  0  0  0  0  0  0  0  0  0
    4.7983   18.0774    6.8245 C   0  0  0  0  0  0  0  0  0  0  0  0
    5.9475   17.5458    7.4145 C   0  0  0  0  0  0  0  0  0  0  0  0
    6.7030   17.3494    6.8727 H   0  0  0  0  0  0  0  0  0  0  0  0
    6.0035   17.3021    8.7707 C   0  0  0  0  0  0  0  0  0  0  0  0
    6.7989   16.9497    9.1533 H   0  0  0  0  0  0  0  0  0  0  0  0
    4.9193   17.5649    9.5736 C   0  0  0  0  0  0  0  0  0  0  0  0
    4.9730   17.3945   10.5066 H   0  0  0  0  0  0  0  0  0  0  0  0
    3.7368   18.0812    9.0304 C   0  0  0  0  0  0  0  0  0  0  0  0
    2.5466   18.3462    9.9260 C   0  0  0  0  0  0  0  0  0  0  0  0
    1.7537   18.4818    9.3323 H   0  0  0  0  0  0  0  0  0  0  0  0
    2.2261   17.1672   10.8479 C   0  0  0  0  0  0  0  0  0  0  0  0
    2.1111   16.3552   10.3118 H   0  0  0  0  0  0  0  0  0  0  0  0
    1.4002   17.3534   11.3410 H   0  0  0  0  0  0  0  0  0  0  0  0
    2.9630   17.0386   11.4815 H   0  0  0  0  0  0  0  0  0  0  0  0
    2.7304   19.6259   10.7345 C   0  0  0  0  0  0  0  0  0  0  0  0
    3.5115   19.5342   11.3185 H   0  0  0  0  0  0  0  0  0  0  0  0
    1.9314   19.7848   11.2799 H   0  0  0  0  0  0  0  0  0  0  0  0
    2.8646   20.3810   10.1246 H   0  0  0  0  0  0  0  0  0  0  0  0
    4.7369   18.3615    5.3330 C   0  0  0  0  0  0  0  0  0  0  0  0
    4.2134   19.2039    5.2025 H   0  0  0  0  0  0  0  0  0  0  0  0
    4.0260   17.2409    4.5597 C   0  0  0  0  0  0  0  0  0  0  0  0
    4.5172   16.4010    4.6769 H   0  0  0  0  0  0  0  0  0  0  0  0
    3.9942   17.4706    3.6075 H   0  0  0  0  0  0  0  0  0  0  0  0
    3.1135   17.1361    4.9012 H   0  0  0  0  0  0  0  0  0  0  0  0
    6.1265   18.5712    4.7219 C   0  0  0  0  0  0  0  0  0  0  0  0
    6.6379   19.1931    5.2803 H   0  0  0  0  0  0  0  0  0  0  0  0
    6.0334   18.9429    3.8199 H   0  0  0  0  0  0  0  0  0  0  0  0
    6.5952   17.7123    4.6749 H   0  0  0  0  0  0  0  0  0  0  0  0
    2.2153   20.2590    7.0587 C   0  0  0  0  0  0  0  0  0  0  0  0
    0.6989   20.4031    6.9526 C   0  0  0  0  0  0  0  0  0  0  0  0
    0.4699   21.1430    6.3360 H   0  0  0  0  0  0  0  0  0  0  0  0
    0.3136   20.6063    7.8417 H   0  0  0  0  0  0  0  0  0  0  0  0
    0.1161   19.0429    6.4074 C   0  0  0  0  0  0  0  0  0  0  0  0
    2.0361   15.7026    7.1880 C   0  0  0  0  0  0  0  0  0  0  0  0
    2.8617   15.7423    6.6611 H   0  0  0  0  0  0  0  0  0  0  0  0
    1.6226   14.8208    7.0812 H   0  0  0  0  0  0  0  0  0  0  0  0
    2.2451   15.8532    8.1337 H   0  0  0  0  0  0  0  0  0  0  0  0
   -1.0023   18.0838    9.1494 C   0  0  0  0  0  0  0  0  0  0  0  0
   -0.5439   18.8390    9.5737 H   0  0  0  0  0  0  0  0  0  0  0  0
   -0.4186   17.2966    9.1657 H   0  0  0  0  0  0  0  0  0  0  0  0
   -1.8291   17.8876    9.6373 H   0  0  0  0  0  0  0  0  0  0  0  0
   -2.2390   17.0206    6.6365 C   0  0  0  0  0  0  0  0  0  0  0  0
   -2.9088   16.6744    7.2629 H   0  0  0  0  0  0  0  0  0  0  0  0
   -1.5671   16.3295    6.4616 H   0  0  0  0  0  0  0  0  0  0  0  0
   -2.6771   17.2708    5.7960 H   0  0  0  0  0  0  0  0  0  0  0  0
   -2.6920   19.8823    7.5034 C   0  0  0  0  0  0  0  0  0  0  0  0
   -2.8666   20.2501    6.6119 H   0  0  0  0  0  0  0  0  0  0  0  0
   -2.3558   20.5923    8.0894 H   0  0  0  0  0  0  0  0  0  0  0  0
   -3.5219   19.5176    7.8748 H   0  0  0  0  0  0  0  0  0  0  0  0
   -0.2480   17.3935    3.7853 C   0  0  0  0  0  0  0  0  0  0  0  0
   -0.4981   17.4657    2.8404 H   0  0  0  0  0  0  0  0  0  0  0  0
   -0.9214   16.8637    4.2615 H   0  0  0  0  0  0  0  0  0  0  0  0
    0.6250   16.9556    3.8599 H   0  0  0  0  0  0  0  0  0  0  0  0
   -1.7018   20.0445    4.0612 C   0  0  0  0  0  0  0  0  0  0  0  0
   -1.6981   20.9207    4.4999 H   0  0  0  0  0  0  0  0  0  0  0  0
   -2.4920   19.5398    4.3457 H   0  0  0  0  0  0  0  0  0  0  0  0
   -1.7240   20.1659    3.0890 H   0  0  0  0  0  0  0  0  0  0  0  0
    1.2816   19.9816    3.7246 C   0  0  0  0  0  0  0  0  0  0  0  0
    1.3079   20.9132    4.0276 H   0  0  0  0  0  0  0  0  0  0  0  0
    1.1711   19.9578    2.7511 H   0  0  0  0  0  0  0  0  0  0  0  0
    2.1190   19.5349    3.9692 H   0  0  0  0  0  0  0  0  0  0  0  0
    6.0936   20.9912    9.1629 C   0  0  0  0  0  0  0  0  0  0  0  0
    6.6479   20.6681    8.4221 H   0  0  0  0  0  0  0  0  0  0  0  0
    5.3833   20.3414    9.3468 H   0  0  0  0  0  0  0  0  0  0  0  0
    6.6492   21.1029    9.9622 H   0  0  0  0  0  0  0  0  0  0  0  0
    4.4756   23.0927   10.1951 C   0  0  0  0  0  0  0  0  0  0  0  0
    5.0789   23.0591   10.9664 H   0  0  0  0  0  0  0  0  0  0  0  0
    3.7147   22.4941   10.3493 H   0  0  0  0  0  0  0  0  0  0  0  0
    4.1500   24.0095   10.0747 H   0  0  0  0  0  0  0  0  0  0  0  0
    6.7673   23.7024    8.6364 C   0  0  0  0  0  0  0  0  0  0  0  0
    6.4482   24.6058    8.4295 H   0  0  0  0  0  0  0  0  0  0  0  0
    7.3848   23.4056    7.9361 H   0  0  0  0  0  0  0  0  0  0  0  0
    7.2305   23.7094    9.4997 H   0  0  0  0  0  0  0  0  0  0  0  0
    6.7208   22.2654    5.1562 C   0  0  0  0  0  0  0  0  0  0  0  0
    6.6814   21.2878    5.2107 H   0  0  0  0  0  0  0  0  0  0  0  0
    7.3657   22.6039    5.8113 H   0  0  0  0  0  0  0  0  0  0  0  0
    7.0020   22.5305    4.2545 H   0  0  0  0  0  0  0  0  0  0  0  0
    5.3148   24.7218    5.2079 C   0  0  0  0  0  0  0  0  0  0  0  0
    5.6305   24.8601    4.2904 H   0  0  0  0  0  0  0  0  0  0  0  0
    5.9770   25.0754    5.8379 H   0  0  0  0  0  0  0  0  0  0  0  0
    4.4624   25.1883    5.3339 H   0  0  0  0  0  0  0  0  0  0  0  0
    4.0792   22.4317    4.1227 C   0  0  0  0  0  0  0  0  0  0  0  0
    3.2241   22.9100    4.1401 H   0  0  0  0  0  0  0  0  0  0  0  0
    3.9154   21.4674    4.1856 H   0  0  0  0  0  0  0  0  0  0  0  0
    4.5472   22.6294    3.2847 H   0  0  0  0  0  0  0  0  0  0  0  0
    1.4277   28.7215    7.2982 C   0  0  0  0  0  0  0  0  0  0  0  0
    1.3868   28.8444    5.9046 C   0  0  0  0  0  0  0  0  0  0  0  0
    0.2263   29.3702    5.3273 C   0  0  0  0  0  0  0  0  0  0  0  0
    0.1781   29.4677    4.3836 H   0  0  0  0  0  0  0  0  0  0  0  0
   -0.8433   29.7482    6.1010 C   0  0  0  0  0  0  0  0  0  0  0  0
   -1.6197   30.1099    5.6896 H   0  0  0  0  0  0  0  0  0  0  0  0
   -0.7965   29.6054    7.4729 C   0  0  0  0  0  0  0  0  0  0  0  0
   -1.5435   29.8722    7.9965 H   0  0  0  0  0  0  0  0  0  0  0  0
    0.3324   29.0741    8.1044 C   0  0  0  0  0  0  0  0  0  0  0  0
    0.3743   28.9107    9.6119 C   0  0  0  0  0  0  0  0  0  0  0  0
    0.8844   28.0735    9.8102 H   0  0  0  0  0  0  0  0  0  0  0  0
   -1.0193   28.7606   10.2305 C   0  0  0  0  0  0  0  0  0  0  0  0
   -1.4665   29.6325   10.2442 H   0  0  0  0  0  0  0  0  0  0  0  0
   -0.9357   28.4219   11.1464 H   0  0  0  0  0  0  0  0  0  0  0  0
   -1.5477   28.1309    9.6966 H   0  0  0  0  0  0  0  0  0  0  0  0
    1.0971   30.0684   10.3120 C   0  0  0  0  0  0  0  0  0  0  0  0
    2.0168   30.1282    9.9800 H   0  0  0  0  0  0  0  0  0  0  0  0
    1.1080   29.9095   11.2789 H   0  0  0  0  0  0  0  0  0  0  0  0
    0.6267   30.9077   10.1244 H   0  0  0  0  0  0  0  0  0  0  0  0
    2.5606   28.4416    5.0293 C   0  0  0  0  0  0  0  0  0  0  0  0
    3.2961   28.1357    5.6339 H   0  0  0  0  0  0  0  0  0  0  0  0
    3.0950   29.6044    4.2112 C   0  0  0  0  0  0  0  0  0  0  0  0
    2.4050   29.9074    3.5846 H   0  0  0  0  0  0  0  0  0  0  0  0
    3.8865   29.3155    3.7108 H   0  0  0  0  0  0  0  0  0  0  0  0
    3.3381   30.3410    4.8103 H   0  0  0  0  0  0  0  0  0  0  0  0
    2.2057   27.2804    4.1180 C   0  0  0  0  0  0  0  0  0  0  0  0
    1.9489   26.5056    4.6602 H   0  0  0  0  0  0  0  0  0  0  0  0
    2.9818   27.0495    3.5654 H   0  0  0  0  0  0  0  0  0  0  0  0
    1.4575   27.5362    3.5388 H   0  0  0  0  0  0  0  0  0  0  0  0
    2.9237   26.8513    8.0347 C   0  0  0  0  0  0  0  0  0  0  0  0
    4.4409   26.7336    8.1984 C   0  0  0  0  0  0  0  0  0  0  0  0
    4.8531   26.4484    7.3448 H   0  0  0  0  0  0  0  0  0  0  0  0
    4.6562   26.0589    8.8901 H   0  0  0  0  0  0  0  0  0  0  0  0
    5.0018   28.1395    8.6243 C   0  0  0  0  0  0  0  0  0  0  0  0
    3.0312   31.4090    7.6483 C   0  0  0  0  0  0  0  0  0  0  0  0
    3.4451   32.2964    7.6860 H   0  0  0  0  0  0  0  0  0  0  0  0
    2.7603   31.2135    6.7270 H   0  0  0  0  0  0  0  0  0  0  0  0
    2.2436   31.3909    8.2312 H   0  0  0  0  0  0  0  0  0  0  0  0
    3.7774   27.3997   11.3351 C   0  0  0  0  0  0  0  0  0  0  0  0
    3.8271   27.5506   12.3021 H   0  0  0  0  0  0  0  0  0  0  0  0
    3.8117   26.4374   11.1525 H   0  0  0  0  0  0  0  0  0  0  0  0
    2.9385   27.7685   10.9892 H   0  0  0  0  0  0  0  0  0  0  0  0
    5.2455   30.0148   11.0854 C   0  0  0  0  0  0  0  0  0  0  0  0
    6.0088   30.4819   10.6870 H   0  0  0  0  0  0  0  0  0  0  0  0
    5.3237   30.0336   12.0620 H   0  0  0  0  0  0  0  0  0  0  0  0
    4.4138   30.4588   10.8161 H   0  0  0  0  0  0  0  0  0  0  0  0
    6.7788   27.3823   11.0986 C   0  0  0  0  0  0  0  0  0  0  0  0
    7.5664   27.8729   10.7843 H   0  0  0  0  0  0  0  0  0  0  0  0
    6.8015   26.4677   10.7472 H   0  0  0  0  0  0  0  0  0  0  0  0
    6.7794   27.3559   12.0783 H   0  0  0  0  0  0  0  0  0  0  0  0
    7.3728   30.1522    8.2863 C   0  0  0  0  0  0  0  0  0  0  0  0
    8.0758   30.4270    7.6611 H   0  0  0  0  0  0  0  0  0  0  0  0
    7.7670   29.9839    9.1675 H   0  0  0  0  0  0  0  0  0  0  0  0
    6.7035   30.8645    8.3585 H   0  0  0  0  0  0  0  0  0  0  0  0
    6.1849   28.8777    5.8537 C   0  0  0  0  0  0  0  0  0  0  0  0
    5.5988   29.6578    5.7603 H   0  0  0  0  0  0  0  0  0  0  0  0
    5.7378   28.0877    5.4834 H   0  0  0  0  0  0  0  0  0  0  0  0
    7.0209   29.0371    5.3688 H   0  0  0  0  0  0  0  0  0  0  0  0
    7.8317   27.2175    7.6957 C   0  0  0  0  0  0  0  0  0  0  0  0
    7.5154   26.4640    7.1552 H   0  0  0  0  0  0  0  0  0  0  0  0
    7.9685   26.9222    8.6200 H   0  0  0  0  0  0  0  0  0  0  0  0
    8.6793   27.5483    7.3301 H   0  0  0  0  0  0  0  0  0  0  0  0
    0.5922   23.9709    5.0054 C   0  0  0  0  0  0  0  0  0  0  0  0
   -0.0041   24.0638    4.2333 H   0  0  0  0  0  0  0  0  0  0  0  0
    0.8505   23.0310    5.1075 H   0  0  0  0  0  0  0  0  0  0  0  0
    1.3943   24.5166    4.8661 H   0  0  0  0  0  0  0  0  0  0  0  0
   -1.6829   23.4101    6.5927 C   0  0  0  0  0  0  0  0  0  0  0  0
   -2.2834   23.7113    7.3062 H   0  0  0  0  0  0  0  0  0  0  0  0
   -1.3733   22.5011    6.7884 H   0  0  0  0  0  0  0  0  0  0  0  0
   -2.1628   23.4148    5.7382 H   0  0  0  0  0  0  0  0  0  0  0  0
   -1.0001   26.0963    6.0520 C   0  0  0  0  0  0  0  0  0  0  0  0
   -1.5951   25.9734    5.2827 H   0  0  0  0  0  0  0  0  0  0  0  0
   -0.2954   26.7366    5.8208 H   0  0  0  0  0  0  0  0  0  0  0  0
   -1.5159   26.4383    6.8120 H   0  0  0  0  0  0  0  0  0  0  0  0
   -1.5730   25.0201   10.0243 C   0  0  0  0  0  0  0  0  0  0  0  0
   -1.8674   24.7850   10.9298 H   0  0  0  0  0  0  0  0  0  0  0  0
   -2.2289   24.6957    9.3734 H   0  0  0  0  0  0  0  0  0  0  0  0
   -1.4926   25.9941    9.9506 H   0  0  0  0  0  0  0  0  0  0  0  0
    1.0561   24.7894   11.0680 C   0  0  0  0  0  0  0  0  0  0  0  0
    0.5856   24.6206   11.9107 H   0  0  0  0  0  0  0  0  0  0  0  0
    1.2415   25.7481   10.9835 H   0  0  0  0  0  0  0  0  0  0  0  0
    1.9007   24.2918   11.0602 H   0  0  0  0  0  0  0  0  0  0  0  0
   -0.2511   22.5047   10.0300 C   0  0  0  0  0  0  0  0  0  0  0  0
    0.5921   22.0128    9.9395 H   0  0  0  0  0  0  0  0  0  0  0  0
   -0.9047   22.1524    9.3907 H   0  0  0  0  0  0  0  0  0  0  0  0
   -0.5949   22.3982   10.9414 H   0  0  0  0  0  0  0  0  0  0  0  0
    2.4667   18.8248    7.0836 N   0  0  0  0  0  0  0  0  0  0  0  0
    2.6540   28.2804    7.9113 N   0  0  0  0  0  0  0  0  0  0  0  0
    1.1352   16.7080    6.7350 O   0  0  0  0  0  0  0  0  0  0  0  0
    3.9656   30.4315    8.0846 O   0  0  0  0  0  0  0  0  0  0  0  0
    5.3596   22.5710    8.7173 P   0  0  0  0  0  0  0  0  0  0  0  0
    5.0845   22.9569    5.5051 P   0  0  0  0  0  0  0  0  0  0  0  0
   -0.2592   24.5241    6.4916 P   0  0  0  0  0  0  0  0  0  0  0  0
    0.0352   24.2549    9.6954 P   0  0  0  0  0  0  0  0  0  0  0  0
   -1.4123   18.5195    7.3767 Si  0  0  0  0  0  0  0  0  0  0  0  0
   -0.1547   19.1019    4.5370 Si  0  0  0  0  0  0  0  0  0  0  0  0
    5.2230   28.2449   10.4972 Si  0  0  0  0  0  0  0  0  0  0  0  0
    6.5570   28.5920    7.6601 Si  0  0  0  0  0  0  0  0  0  0  0  0
  1  3  1  0  0  0  0
  2 41  1  0  0  0  0
  3  4  1  0  0  0  0
  4  1  1  0  0  0  0
  5127  1  0  0  0  0
  6  1  1  0  0  0  0
  7  1  1  0  0  0  0
  8  9  4  0  0  0  0
  9 10  4  0  0  0  0
 10 11  1  0  0  0  0
 12 10  4  0  0  0  0
 13 12  1  0  0  0  0
 14 12  4  0  0  0  0
 15 14  1  0  0  0  0
 16  8  4  0  0  0  0
 17 16  1  0  0  0  0
 18 17  1  0  0  0  0
 19 17  1  0  0  0  0
 20 19  1  0  0  0  0
 21 19  1  0  0  0  0
 22 19  1  0  0  0  0
 23 17  1  0  0  0  0
 24 23  1  0  0  0  0
 25 23  1  0  0  0  0
 26 23  1  0  0  0  0
 27  9  1  0  0  0  0
 28 27  1  0  0  0  0
 29 27  1  0  0  0  0
 30 29  1  0  0  0  0
 31 29  1  0  0  0  0
 32 29  1  0  0  0  0
 33 27  1  0  0  0  0
 34 33  1  0  0  0  0
 35 33  1  0  0  0  0
 36 33  1  0  0  0  0
 37  3  2  0  0  0  0
 38 37  1  0  0  0  0
 39 38  1  0  0  0  0
 40 38  1  0  0  0  0
 41 38  1  0  0  0  0
 42 43  1  0  0  0  0
 44 42  1  0  0  0  0
 45 42  1  0  0  0  0
 46 47  1  0  0  0  0
 48 46  1  0  0  0  0
 49 46  1  0  0  0  0
 50 51  1  0  0  0  0
 52 50  1  0  0  0  0
 53 50  1  0  0  0  0
 54 55  1  0  0  0  0
 56 54  1  0  0  0  0
 57 54  1  0  0  0  0
 58 59  1  0  0  0  0
 60 58  1  0  0  0  0
 61 58  1  0  0  0  0
 62 63  1  0  0  0  0
 64 62  1  0  0  0  0
 65 62  1  0  0  0  0
 66 67  1  0  0  0  0
 68 66  1  0  0  0  0
 69 66  1  0  0  0  0
 70 71  1  0  0  0  0
 72 70  1  0  0  0  0
 73 70  1  0  0  0  0
 74 75  1  0  0  0  0
 76 74  1  0  0  0  0
 77 74  1  0  0  0  0
 78 79  1  0  0  0  0
 80 78  1  0  0  0  0
 81 78  1  0  0  0  0
 82 83  1  0  0  0  0
 84 82  1  0  0  0  0
 85 82  1  0  0  0  0
 86 87  1  0  0  0  0
 88 86  1  0  0  0  0
 89 86  1  0  0  0  0
 90 91  1  0  0  0  0
 92 90  1  0  0  0  0
 93 90  1  0  0  0  0
 94 95  4  0  0  0  0
 95 96  4  0  0  0  0
 96 97  1  0  0  0  0
 98 96  4  0  0  0  0
 99 98  1  0  0  0  0
100 98  4  0  0  0  0
101100  1  0  0  0  0
102 94  4  0  0  0  0
103102  1  0  0  0  0
104103  1  0  0  0  0
105103  1  0  0  0  0
106105  1  0  0  0  0
107105  1  0  0  0  0
108105  1  0  0  0  0
109103  1  0  0  0  0
110109  1  0  0  0  0
111109  1  0  0  0  0
112109  1  0  0  0  0
113 95  1  0  0  0  0
114113  1  0  0  0  0
115113  1  0  0  0  0
116115  1  0  0  0  0
117115  1  0  0  0  0
118115  1  0  0  0  0
119113  1  0  0  0  0
120119  1  0  0  0  0
121119  1  0  0  0  0
122119  1  0  0  0  0
123  6  2  0  0  0  0
124123  1  0  0  0  0
125124  1  0  0  0  0
126124  1  0  0  0  0
127124  1  0  0  0  0
128129  1  0  0  0  0
130128  1  0  0  0  0
131128  1  0  0  0  0
132133  1  0  0  0  0
134132  1  0  0  0  0
135132  1  0  0  0  0
136137  1  0  0  0  0
138136  1  0  0  0  0
139136  1  0  0  0  0
140141  1  0  0  0  0
142140  1  0  0  0  0
143140  1  0  0  0  0
144145  1  0  0  0  0
146144  1  0  0  0  0
147144  1  0  0  0  0
148149  1  0  0  0  0
150148  1  0  0  0  0
151148  1  0  0  0  0
152153  1  0  0  0  0
154152  1  0  0  0  0
155152  1  0  0  0  0
156157  1  0  0  0  0
158156  1  0  0  0  0
159156  1  0  0  0  0
160161  1  0  0  0  0
162160  1  0  0  0  0
163160  1  0  0  0  0
164165  1  0  0  0  0
166164  1  0  0  0  0
167164  1  0  0  0  0
168169  1  0  0  0  0
170168  1  0  0  0  0
171168  1  0  0  0  0
172173  1  0  0  0  0
174172  1  0  0  0  0
175172  1  0  0  0  0
176177  1  0  0  0  0
178176  1  0  0  0  0
179176  1  0  0  0  0
180  2  1  0  0  0  0
181  5  1  0  0  0  0
182  2  1  0  0  0  0
183  5  1  0  0  0  0
184  4  1  0  0  0  0
185  4  1  0  0  0  0
186  7  1  0  0  0  0
187  7  1  0  0  0  0
188 41  1  0  0  0  0
189 41  1  0  0  0  0
190127  1  0  0  0  0
191127  1  0  0  0  0
  6  7  1  0  0  0  0
  8180  1  0  0  0  0
 14 16  4  0  0  0  0
 37180  1  0  0  0  0
 42182  1  0  0  0  0
 46188  1  0  0  0  0
 50188  1  0  0  0  0
 54188  1  0  0  0  0
 58189  1  0  0  0  0
 62189  1  0  0  0  0
 66189  1  0  0  0  0
 70184  1  0  0  0  0
 74184  1  0  0  0  0
 78184  1  0  0  0  0
 82185  1  0  0  0  0
 86185  1  0  0  0  0
 90185  1  0  0  0  0
 94181  1  0  0  0  0
100102  4  0  0  0  0
123181  1  0  0  0  0
128183  1  0  0  0  0
132190  1  0  0  0  0
136190  1  0  0  0  0
140190  1  0  0  0  0
144191  1  0  0  0  0
148191  1  0  0  0  0
152191  1  0  0  0  0
156186  1  0  0  0  0
160186  1  0  0  0  0
164186  1  0  0  0  0
168187  1  0  0  0  0
172187  1  0  0  0  0
176187  1  0  0  0  0
M  CHG  1   1   1
M  END
$$$$
LISNUZ

From CSD data. Using bond type 'Any'. No disordered atoms. Largest molecule.
130135  0  0  0  0  0  0  0  0999 V2000
    1.9354    1.9242   17.4586 Au  0  3  0  0  0  0  0  0  0  0  0  0
    3.6371    2.4347   12.2595 B   0  0  0  0  0  0  0  0  0  0  0  0
    1.8529    0.7605   15.2179 B   0  0  0  0  0  0  0  0  0  0  0  0
    0.9015    0.8615   14.8935 H   0  0  0  0  0  0  0  0  0  0  0  0
    2.0668   -0.0827   16.6186 B   0  0  0  0  0  0  0  0  0  0  0  0
    1.3024    1.3153   12.2983 C   0  0  0  0  0  0  0  0  0  0  0  0
    0.1712    2.1419   12.3757 C   0  0  0  0  0  0  0  0  0  0  0  0
   -0.9911    1.7273   11.7355 C   0  0  0  0  0  0  0  0  0  0  0  0
   -1.7499    2.2985   11.7276 H   0  0  0  0  0  0  0  0  0  0  0  0
   -1.0607    0.5003   11.1117 C   0  0  0  0  0  0  0  0  0  0  0  0
   -1.8673    0.2274   10.6901 H   0  0  0  0  0  0  0  0  0  0  0  0
    0.0261   -0.3230   11.0994 C   0  0  0  0  0  0  0  0  0  0  0  0
   -0.0377   -1.1719   10.6789 H   0  0  0  0  0  0  0  0  0  0  0  0
    1.2252    0.0546   11.6886 C   0  0  0  0  0  0  0  0  0  0  0  0
    2.4135   -0.8947   11.6968 C   0  0  0  0  0  0  0  0  0  0  0  0
    3.1969   -0.3944   12.0658 H   0  0  0  0  0  0  0  0  0  0  0  0
    2.7900   -1.3714   10.2961 C   0  0  0  0  0  0  0  0  0  0  0  0
    3.5911   -1.9341   10.3476 H   0  0  0  0  0  0  0  0  0  0  0  0
    2.9714   -0.5962    9.7254 H   0  0  0  0  0  0  0  0  0  0  0  0
    2.0500   -1.8904    9.9183 H   0  0  0  0  0  0  0  0  0  0  0  0
    2.1402   -2.0668   12.6245 C   0  0  0  0  0  0  0  0  0  0  0  0
    1.3264   -2.5294   12.3340 H   0  0  0  0  0  0  0  0  0  0  0  0
    2.0199   -1.7373   13.5394 H   0  0  0  0  0  0  0  0  0  0  0  0
    2.8969   -2.6882   12.5971 H   0  0  0  0  0  0  0  0  0  0  0  0
    0.1911    3.4463   13.1464 C   0  0  0  0  0  0  0  0  0  0  0  0
    0.9334    3.3886   13.8127 H   0  0  0  0  0  0  0  0  0  0  0  0
   -1.0995    3.6444   13.9191 C   0  0  0  0  0  0  0  0  0  0  0  0
   -1.8356    3.8031   13.2933 H   0  0  0  0  0  0  0  0  0  0  0  0
   -1.0069    4.4155   14.5177 H   0  0  0  0  0  0  0  0  0  0  0  0
   -1.2883    2.8416   14.4496 H   0  0  0  0  0  0  0  0  0  0  0  0
    0.4882    4.6249   12.2412 C   0  0  0  0  0  0  0  0  0  0  0  0
   -0.1988    4.6826   11.5450 H   0  0  0  0  0  0  0  0  0  0  0  0
    1.3665    4.5033   11.8256 H   0  0  0  0  0  0  0  0  0  0  0  0
    0.4875    5.4499   12.7703 H   0  0  0  0  0  0  0  0  0  0  0  0
    2.8903    1.4020   14.2433 C   0  0  0  0  0  0  0  0  0  0  0  0
    4.1380    1.8258   14.4880 C   0  0  0  0  0  0  0  0  0  0  0  0
    4.5816    1.6708   15.3142 H   0  0  0  0  0  0  0  0  0  0  0  0
    4.7770    2.5664   13.3462 C   0  0  0  0  0  0  0  0  0  0  0  0
    2.8782    2.6593    9.9067 C   0  0  0  0  0  0  0  0  0  0  0  0
    1.9621    2.8093   10.2205 H   0  0  0  0  0  0  0  0  0  0  0  0
    2.9667    1.7393    9.5826 H   0  0  0  0  0  0  0  0  0  0  0  0
    3.0795    3.2834    9.1775 H   0  0  0  0  0  0  0  0  0  0  0  0
    3.5089    4.8882   14.8876 C   0  0  0  0  0  0  0  0  0  0  0  0
    3.5921    5.8315   15.1395 H   0  0  0  0  0  0  0  0  0  0  0  0
    3.4654    4.3363   15.6958 H   0  0  0  0  0  0  0  0  0  0  0  0
    2.6912    4.7619   14.3614 H   0  0  0  0  0  0  0  0  0  0  0  0
    6.4910    4.6488   14.9487 C   0  0  0  0  0  0  0  0  0  0  0  0
    6.4629    5.5469   15.3390 H   0  0  0  0  0  0  0  0  0  0  0  0
    7.2994    4.5537   14.4035 H   0  0  0  0  0  0  0  0  0  0  0  0
    6.5008    3.9809   15.6665 H   0  0  0  0  0  0  0  0  0  0  0  0
    5.0640    5.5123   12.3900 C   0  0  0  0  0  0  0  0  0  0  0  0
    4.1780    5.5742   11.9754 H   0  0  0  0  0  0  0  0  0  0  0  0
    5.7032    5.1498   11.7414 H   0  0  0  0  0  0  0  0  0  0  0  0
    5.3555    6.4042   12.6723 H   0  0  0  0  0  0  0  0  0  0  0  0
    7.5216    1.3473   14.1495 C   0  0  0  0  0  0  0  0  0  0  0  0
    7.0762    0.7502   14.7849 H   0  0  0  0  0  0  0  0  0  0  0  0
    7.7717    2.1799   14.6022 H   0  0  0  0  0  0  0  0  0  0  0  0
    8.3266    0.9117   13.7992 H   0  0  0  0  0  0  0  0  0  0  0  0
    5.9867    0.1033   11.9129 C   0  0  0  0  0  0  0  0  0  0  0  0
    6.8259   -0.3319   11.6553 H   0  0  0  0  0  0  0  0  0  0  0  0
    5.4390    0.2563   11.1151 H   0  0  0  0  0  0  0  0  0  0  0  0
    5.4984   -0.4743   12.5377 H   0  0  0  0  0  0  0  0  0  0  0  0
    7.2113    2.7943   11.4501 C   0  0  0  0  0  0  0  0  0  0  0  0
    7.9239    2.2764   11.0219 H   0  0  0  0  0  0  0  0  0  0  0  0
    7.5955    3.5844   11.8835 H   0  0  0  0  0  0  0  0  0  0  0  0
    6.5594    3.0753   10.7752 H   0  0  0  0  0  0  0  0  0  0  0  0
    0.2633   -1.5239   18.8307 C   0  0  0  0  0  0  0  0  0  0  0  0
    0.2694   -0.7158   19.3861 H   0  0  0  0  0  0  0  0  0  0  0  0
    0.9915   -2.1170   19.1100 H   0  0  0  0  0  0  0  0  0  0  0  0
   -0.5940   -1.9862   18.9370 H   0  0  0  0  0  0  0  0  0  0  0  0
    0.3086   -2.6235   16.1945 C   0  0  0  0  0  0  0  0  0  0  0  0
   -0.5327   -3.0522   16.4570 H   0  0  0  0  0  0  0  0  0  0  0  0
    1.0588   -3.2141   16.4124 H   0  0  0  0  0  0  0  0  0  0  0  0
    0.2987   -2.4502   15.2293 H   0  0  0  0  0  0  0  0  0  0  0  0
   -1.0157   -0.1459   16.7205 C   0  0  0  0  0  0  0  0  0  0  0  0
   -1.0756    0.0144   15.7552 H   0  0  0  0  0  0  0  0  0  0  0  0
   -0.9986    0.7127   17.1930 H   0  0  0  0  0  0  0  0  0  0  0  0
   -1.7925   -0.6652   17.0142 H   0  0  0  0  0  0  0  0  0  0  0  0
    4.5117   -1.6578   15.5400 C   0  0  0  0  0  0  0  0  0  0  0  0
    5.3732   -2.0524   15.7886 H   0  0  0  0  0  0  0  0  0  0  0  0
    4.6560   -0.9448   14.8832 H   0  0  0  0  0  0  0  0  0  0  0  0
    3.9364   -2.3491   15.1495 H   0  0  0  0  0  0  0  0  0  0  0  0
    3.6171   -2.3680   18.1558 C   0  0  0  0  0  0  0  0  0  0  0  0
    2.9797   -3.0291   17.8139 H   0  0  0  0  0  0  0  0  0  0  0  0
    3.3169   -2.0455   19.0304 H   0  0  0  0  0  0  0  0  0  0  0  0
    4.5008   -2.7832   18.2461 H   0  0  0  0  0  0  0  0  0  0  0  0
    4.9771    0.0540   17.7888 C   0  0  0  0  0  0  0  0  0  0  0  0
    5.8174   -0.4457   17.8512 H   0  0  0  0  0  0  0  0  0  0  0  0
    4.6777    0.3032   18.6886 H   0  0  0  0  0  0  0  0  0  0  0  0
    5.1171    0.8643   17.2557 H   0  0  0  0  0  0  0  0  0  0  0  0
    1.4838    3.4389   20.4475 C   0  0  0  0  0  0  0  0  0  0  0  0
    0.7211    2.2904   20.6738 C   0  0  0  0  0  0  0  0  0  0  0  0
    0.3788    1.8009   19.9342 H   0  0  0  0  0  0  0  0  0  0  0  0
    0.4581    1.8580   21.9562 C   0  0  0  0  0  0  0  0  0  0  0  0
   -0.0304    1.0561   22.1007 H   0  0  0  0  0  0  0  0  0  0  0  0
    0.9212    2.6142   23.0552 C   0  0  0  0  0  0  0  0  0  0  0  0
    0.7304    2.3380   23.9434 H   0  0  0  0  0  0  0  0  0  0  0  0
    1.6523    3.7570   22.8227 C   0  0  0  0  0  0  0  0  0  0  0  0
    1.9612    4.2689   23.5612 H   0  0  0  0  0  0  0  0  0  0  0  0
    1.9452    4.1749   21.5362 C   0  0  0  0  0  0  0  0  0  0  0  0
    2.4610    4.9599   21.3964 H   0  0  0  0  0  0  0  0  0  0  0  0
    3.5322    4.6946   18.8735 C   0  0  0  0  0  0  0  0  0  0  0  0
    4.6450    3.8715   18.9143 C   0  0  0  0  0  0  0  0  0  0  0  0
    4.5342    2.9305   18.8543 H   0  0  0  0  0  0  0  0  0  0  0  0
    5.9069    4.3982   19.0407 C   0  0  0  0  0  0  0  0  0  0  0  0
    6.6619    3.8234   19.0759 H   0  0  0  0  0  0  0  0  0  0  0  0
    6.0753    5.7697   19.1161 C   0  0  0  0  0  0  0  0  0  0  0  0
    6.9475    6.1387   19.1828 H   0  0  0  0  0  0  0  0  0  0  0  0
    4.9854    6.5922   19.0917 C   0  0  0  0  0  0  0  0  0  0  0  0
    5.1045    7.5314   19.1617 H   0  0  0  0  0  0  0  0  0  0  0  0
    3.6984    6.0661   18.9693 C   0  0  0  0  0  0  0  0  0  0  0  0
    2.9441    6.6431   18.9508 H   0  0  0  0  0  0  0  0  0  0  0  0
    0.7581    5.2282   18.2578 C   0  0  0  0  0  0  0  0  0  0  0  0
    0.3241    6.1942   19.1753 C   0  0  0  0  0  0  0  0  0  0  0  0
    0.6079    6.1539   20.0805 H   0  0  0  0  0  0  0  0  0  0  0  0
   -0.5184    7.2060   18.7573 C   0  0  0  0  0  0  0  0  0  0  0  0
   -0.8116    7.8602   19.3811 H   0  0  0  0  0  0  0  0  0  0  0  0
   -0.9431    7.2821   17.4382 C   0  0  0  0  0  0  0  0  0  0  0  0
   -1.5314    7.9740   17.1604 H   0  0  0  0  0  0  0  0  0  0  0  0
   -0.5007    6.3417   16.5390 C   0  0  0  0  0  0  0  0  0  0  0  0
   -0.7729    6.3958   15.6308 H   0  0  0  0  0  0  0  0  0  0  0  0
    0.3425    5.3114   16.9448 C   0  0  0  0  0  0  0  0  0  0  0  0
    0.6318    4.6617   16.3150 H   0  0  0  0  0  0  0  0  0  0  0  0
    2.5468    1.7551   12.8712 N   0  0  0  0  0  0  0  0  0  0  0  0
    3.7889    2.8749   10.9802 O   0  0  0  0  0  0  0  0  0  0  0  0
    0.4920   -1.0614   17.0842 P   0  0  0  0  0  0  0  0  0  0  0  0
    3.7205   -0.9756   17.0006 P   0  0  0  0  0  0  0  0  0  0  0  0
    1.8949    3.8891   18.7269 P   0  0  0  0  0  0  0  0  0  0  0  0
    4.9786    4.3869   13.8743 Si  0  0  0  0  0  0  0  0  0  0  0  0
    6.3578    1.7335   12.7356 Si  0  0  0  0  0  0  0  0  0  0  0  0
  1  3  1  0  0  0  0
  2 38  1  0  0  0  0
  3  4  1  0  0  0  0
  5  1  1  0  0  0  0
  6  7  4  0  0  0  0
  7  8  4  0  0  0  0
  8  9  1  0  0  0  0
 10  8  4  0  0  0  0
 11 10  1  0  0  0  0
 12 10  4  0  0  0  0
 13 12  1  0  0  0  0
 14  6  4  0  0  0  0
 15 14  1  0  0  0  0
 16 15  1  0  0  0  0
 17 15  1  0  0  0  0
 18 17  1  0  0  0  0
 19 17  1  0  0  0  0
 20 17  1  0  0  0  0
 21 15  1  0  0  0  0
 22 21  1  0  0  0  0
 23 21  1  0  0  0  0
 24 21  1  0  0  0  0
 25  7  1  0  0  0  0
 26 25  1  0  0  0  0
 27 25  1  0  0  0  0
 28 27  1  0  0  0  0
 29 27  1  0  0  0  0
 30 27  1  0  0  0  0
 31 25  1  0  0  0  0
 32 31  1  0  0  0  0
 33 31  1  0  0  0  0
 34 31  1  0  0  0  0
 35  3  1  0  0  0  0
 36 35  2  0  0  0  0
 37 36  1  0  0  0  0
 38 36  1  0  0  0  0
 39 40  1  0  0  0  0
 41 39  1  0  0  0  0
 42 39  1  0  0  0  0
 43 44  1  0  0  0  0
 45 43  1  0  0  0  0
 46 43  1  0  0  0  0
 47 48  1  0  0  0  0
 49 47  1  0  0  0  0
 50 47  1  0  0  0  0
 51 52  1  0  0  0  0
 53 51  1  0  0  0  0
 54 51  1  0  0  0  0
 55 56  1  0  0  0  0
 57 55  1  0  0  0  0
 58 55  1  0  0  0  0
 59 60  1  0  0  0  0
 61 59  1  0  0  0  0
 62 59  1  0  0  0  0
 63 64  1  0  0  0  0
 65 63  1  0  0  0  0
 66 63  1  0  0  0  0
 67 68  1  0  0  0  0
 69 67  1  0  0  0  0
 70 67  1  0  0  0  0
 71 72  1  0  0  0  0
 73 71  1  0  0  0  0
 74 71  1  0  0  0  0
 75 76  1  0  0  0  0
 77 75  1  0  0  0  0
 78 75  1  0  0  0  0
 79 80  1  0  0  0  0
 81 79  1  0  0  0  0
 82 79  1  0  0  0  0
 83 84  1  0  0  0  0
 85 83  1  0  0  0  0
 86 83  1  0  0  0  0
 87 88  1  0  0  0  0
 89 87  1  0  0  0  0
 90 87  1  0  0  0  0
 91 92  4  0  0  0  0
 92 93  1  0  0  0  0
 94 92  4  0  0  0  0
 95 94  1  0  0  0  0
 96 94  4  0  0  0  0
 97 96  1  0  0  0  0
 98 96  4  0  0  0  0
 99 98  1  0  0  0  0
100 91  4  0  0  0  0
101100  1  0  0  0  0
102103  4  0  0  0  0
103104  1  0  0  0  0
105103  4  0  0  0  0
106105  1  0  0  0  0
107105  4  0  0  0  0
108107  1  0  0  0  0
109107  4  0  0  0  0
110109  1  0  0  0  0
111102  4  0  0  0  0
112111  1  0  0  0  0
113114  4  0  0  0  0
114115  1  0  0  0  0
116114  4  0  0  0  0
117116  1  0  0  0  0
118116  4  0  0  0  0
119118  1  0  0  0  0
120118  4  0  0  0  0
121120  1  0  0  0  0
122113  4  0  0  0  0
123122  1  0  0  0  0
124  2  1  0  0  0  0
125  2  1  0  0  0  0
126  5  1  0  0  0  0
127  5  1  0  0  0  0
128  1  1  0  0  0  0
129 38  1  0  0  0  0
130 38  1  0  0  0  0
  3  5  1  0  0  0  0
  6124  1  0  0  0  0
 12 14  4  0  0  0  0
 35124  1  0  0  0  0
 39125  1  0  0  0  0
 43129  1  0  0  0  0
 47129  1  0  0  0  0
 51129  1  0  0  0  0
 55130  1  0  0  0  0
 59130  1  0  0  0  0
 63130  1  0  0  0  0
 67126  1  0  0  0  0
 71126  1  0  0  0  0
 75126  1  0  0  0  0
 79127  1  0  0  0  0
 83127  1  0  0  0  0
 87127  1  0  0  0  0
 91128  1  0  0  0  0
 98100  4  0  0  0  0
102128  1  0  0  0  0
109111  4  0  0  0  0
113128  1  0  0  0  0
120122  4  0  0  0  0
M  CHG  1   1   1
M  END
$$$$
LISPAH

From CSD data. Using bond type 'Any'. No disordered atoms. Largest molecule.
191196  0  0  0  0  0  0  0  0999 V2000
   -1.2158    5.4849   44.0844 Ag  0  3  0  0  0  0  0  0  0  0  0  0
   -6.9161    4.6357   44.8237 B   0  0  0  0  0  0  0  0  0  0  0  0
   -3.5419    6.2533   44.9689 B   0  0  0  0  0  0  0  0  0  0  0  0
   -2.2456    7.0904   45.3259 B   0  0  0  0  0  0  0  0  0  0  0  0
    0.4812    4.1570   43.3299 B   0  0  0  0  0  0  0  0  0  0  0  0
   -0.4282    4.1779   42.0282 B   0  0  0  0  0  0  0  0  0  0  0  0
   -1.6978    4.1570   38.5146 B   0  0  0  0  0  0  0  0  0  0  0  0
   -6.4157    7.0744   45.4270 C   0  0  0  0  0  0  0  0  0  0  0  0
   -6.5991    8.1214   44.5127 C   0  0  0  0  0  0  0  0  0  0  0  0
   -6.9107    9.3905   44.9866 C   0  0  0  0  0  0  0  0  0  0  0  0
   -7.0335   10.1050   44.3726 H   0  0  0  0  0  0  0  0  0  0  0  0
   -7.0445    9.6249   46.3520 C   0  0  0  0  0  0  0  0  0  0  0  0
   -7.2453   10.4991   46.6659 H   0  0  0  0  0  0  0  0  0  0  0  0
   -6.8867    8.5976   47.2430 C   0  0  0  0  0  0  0  0  0  0  0  0
   -6.9881    8.7684   48.1722 H   0  0  0  0  0  0  0  0  0  0  0  0
   -6.5786    7.2978   46.8132 C   0  0  0  0  0  0  0  0  0  0  0  0
   -6.5373    6.1723   47.8241 C   0  0  0  0  0  0  0  0  0  0  0  0
   -6.1226    5.3808   47.3746 H   0  0  0  0  0  0  0  0  0  0  0  0
   -5.7049    6.4841   49.0570 C   0  0  0  0  0  0  0  0  0  0  0  0
   -4.8027    6.7504   48.7828 H   0  0  0  0  0  0  0  0  0  0  0  0
   -5.6518    5.6870   49.6250 H   0  0  0  0  0  0  0  0  0  0  0  0
   -6.1239    7.2147   49.5574 H   0  0  0  0  0  0  0  0  0  0  0  0
   -7.9385    5.7673   48.2585 C   0  0  0  0  0  0  0  0  0  0  0  0
   -8.3669    6.5173   48.7211 H   0  0  0  0  0  0  0  0  0  0  0  0
   -7.8834    4.9985   48.8643 H   0  0  0  0  0  0  0  0  0  0  0  0
   -8.4677    5.5241   47.4703 H   0  0  0  0  0  0  0  0  0  0  0  0
   -6.5587    7.8550   43.0138 C   0  0  0  0  0  0  0  0  0  0  0  0
   -5.8697    7.1500   42.8443 H   0  0  0  0  0  0  0  0  0  0  0  0
   -6.1898    9.0836   42.1815 C   0  0  0  0  0  0  0  0  0  0  0  0
   -6.9373    9.7177   42.1863 H   0  0  0  0  0  0  0  0  0  0  0  0
   -6.0001    8.8095   41.2600 H   0  0  0  0  0  0  0  0  0  0  0  0
   -5.3961    9.5119   42.5650 H   0  0  0  0  0  0  0  0  0  0  0  0
   -7.9089    7.3162   42.5425 C   0  0  0  0  0  0  0  0  0  0  0  0
   -8.5843    8.0236   42.6110 H   0  0  0  0  0  0  0  0  0  0  0  0
   -8.1722    6.5580   43.1041 H   0  0  0  0  0  0  0  0  0  0  0  0
   -7.8366    7.0234   41.6102 H   0  0  0  0  0  0  0  0  0  0  0  0
   -4.6810    5.4642   44.6710 C   0  0  0  0  0  0  0  0  0  0  0  0
   -4.7314    4.1227   43.9504 C   0  0  0  0  0  0  0  0  0  0  0  0
   -3.9393    3.5794   44.1900 H   0  0  0  0  0  0  0  0  0  0  0  0
   -4.7279    4.2644   42.9706 H   0  0  0  0  0  0  0  0  0  0  0  0
   -6.0618    3.3678   44.3863 C   0  0  0  0  0  0  0  0  0  0  0  0
   -9.2627    3.8453   44.9618 C   0  0  0  0  0  0  0  0  0  0  0  0
   -8.8543    2.9559   44.9038 H   0  0  0  0  0  0  0  0  0  0  0  0
   -9.7783    4.0211   44.1471 H   0  0  0  0  0  0  0  0  0  0  0  0
   -9.8579    3.8810   45.7393 H   0  0  0  0  0  0  0  0  0  0  0  0
   -4.4990    2.9812   47.0610 C   0  0  0  0  0  0  0  0  0  0  0  0
   -4.1849    2.2932   47.6843 H   0  0  0  0  0  0  0  0  0  0  0  0
   -4.9460    3.6956   47.5614 H   0  0  0  0  0  0  0  0  0  0  0  0
   -3.7352    3.3530   46.5727 H   0  0  0  0  0  0  0  0  0  0  0  0
   -7.2382    1.7784   46.8349 C   0  0  0  0  0  0  0  0  0  0  0  0
   -7.8483    1.2591   46.2707 H   0  0  0  0  0  0  0  0  0  0  0  0
   -7.6851    2.5992   47.1300 H   0  0  0  0  0  0  0  0  0  0  0  0
   -6.9826    1.2461   47.6167 H   0  0  0  0  0  0  0  0  0  0  0  0
   -4.8740    0.6174   45.3102 C   0  0  0  0  0  0  0  0  0  0  0  0
   -4.0755    0.8233   44.7809 H   0  0  0  0  0  0  0  0  0  0  0  0
   -5.4997    0.0934   44.7672 H   0  0  0  0  0  0  0  0  0  0  0  0
   -4.6165    0.0995   46.1017 H   0  0  0  0  0  0  0  0  0  0  0  0
   -7.9077    1.0248   43.1605 C   0  0  0  0  0  0  0  0  0  0  0  0
   -8.7875    1.4155   43.3430 H   0  0  0  0  0  0  0  0  0  0  0  0
   -7.6234    0.4866   43.9286 H   0  0  0  0  0  0  0  0  0  0  0  0
   -7.9624    0.4545   42.3649 H   0  0  0  0  0  0  0  0  0  0  0  0
   -5.1798    1.5759   42.0297 C   0  0  0  0  0  0  0  0  0  0  0  0
   -5.4289    1.3010   41.1227 H   0  0  0  0  0  0  0  0  0  0  0  0
   -4.9143    0.7890   42.5489 H   0  0  0  0  0  0  0  0  0  0  0  0
   -4.4305    2.2065   41.9854 H   0  0  0  0  0  0  0  0  0  0  0  0
   -7.4280    3.5961   41.6540 C   0  0  0  0  0  0  0  0  0  0  0  0
   -6.7921    4.3113   41.4447 H   0  0  0  0  0  0  0  0  0  0  0  0
   -8.2363    3.9824   42.0507 H   0  0  0  0  0  0  0  0  0  0  0  0
   -7.6643    3.1178   40.8315 H   0  0  0  0  0  0  0  0  0  0  0  0
    0.1123    7.1051   47.4129 C   0  0  0  0  0  0  0  0  0  0  0  0
    0.2847    7.1047   48.3777 H   0  0  0  0  0  0  0  0  0  0  0  0
    0.4760    7.9249   47.0170 H   0  0  0  0  0  0  0  0  0  0  0  0
    0.5421    6.3260   47.0036 H   0  0  0  0  0  0  0  0  0  0  0  0
   -2.3438    8.3411   48.1598 C   0  0  0  0  0  0  0  0  0  0  0  0
   -3.3158    8.3809   48.0410 H   0  0  0  0  0  0  0  0  0  0  0  0
   -1.9479    9.2003   47.9053 H   0  0  0  0  0  0  0  0  0  0  0  0
   -2.1374    8.1516   49.0991 H   0  0  0  0  0  0  0  0  0  0  0  0
   -2.1301    5.4887   47.9050 C   0  0  0  0  0  0  0  0  0  0  0  0
   -1.6761    4.7455   47.4567 H   0  0  0  0  0  0  0  0  0  0  0  0
   -3.1002    5.3680   47.8379 H   0  0  0  0  0  0  0  0  0  0  0  0
   -1.8681    5.5104   48.8492 H   0  0  0  0  0  0  0  0  0  0  0  0
   -2.8775   10.1085   44.9901 C   0  0  0  0  0  0  0  0  0  0  0  0
   -2.8021   10.8566   44.3613 H   0  0  0  0  0  0  0  0  0  0  0  0
   -2.4931   10.3675   45.8534 H   0  0  0  0  0  0  0  0  0  0  0  0
   -3.8221    9.8763   45.1094 H   0  0  0  0  0  0  0  0  0  0  0  0
   -0.2816    9.2874   44.1072 C   0  0  0  0  0  0  0  0  0  0  0  0
    0.2587    8.5933   43.6761 H   0  0  0  0  0  0  0  0  0  0  0  0
    0.1061    9.5091   44.9795 H   0  0  0  0  0  0  0  0  0  0  0  0
   -0.2947   10.0890   43.5428 H   0  0  0  0  0  0  0  0  0  0  0  0
   -2.5869    8.4589   42.6558 C   0  0  0  0  0  0  0  0  0  0  0  0
   -3.4475    7.9908   42.6766 H   0  0  0  0  0  0  0  0  0  0  0  0
   -1.9401    7.9315   42.1425 H   0  0  0  0  0  0  0  0  0  0  0  0
   -2.7023    9.3357   42.2330 H   0  0  0  0  0  0  0  0  0  0  0  0
    0.0451    2.5676   39.5751 C   0  0  0  0  0  0  0  0  0  0  0  0
   -0.3196    1.2556   39.9549 C   0  0  0  0  0  0  0  0  0  0  0  0
    0.6559    0.2602   39.8694 C   0  0  0  0  0  0  0  0  0  0  0  0
    0.4294   -0.6311   40.1071 H   0  0  0  0  0  0  0  0  0  0  0  0
    1.9389    0.5376   39.4497 C   0  0  0  0  0  0  0  0  0  0  0  0
    2.5797   -0.1608   39.3892 H   0  0  0  0  0  0  0  0  0  0  0  0
    2.2956    1.8349   39.1159 C   0  0  0  0  0  0  0  0  0  0  0  0
    3.1842    2.0209   38.8356 H   0  0  0  0  0  0  0  0  0  0  0  0
    1.3620    2.8732   39.1867 C   0  0  0  0  0  0  0  0  0  0  0  0
    1.7612    4.2908   38.8266 C   0  0  0  0  0  0  0  0  0  0  0  0
    1.1845    4.9118   39.3573 H   0  0  0  0  0  0  0  0  0  0  0  0
    3.2268    4.6087   39.1690 C   0  0  0  0  0  0  0  0  0  0  0  0
    3.4036    4.3692   40.1026 H   0  0  0  0  0  0  0  0  0  0  0  0
    3.3917    5.5664   39.0408 H   0  0  0  0  0  0  0  0  0  0  0  0
    3.8187    4.0940   38.5817 H   0  0  0  0  0  0  0  0  0  0  0  0
    1.5421    4.6099   37.3394 C   0  0  0  0  0  0  0  0  0  0  0  0
    2.0709    3.9921   36.7917 H   0  0  0  0  0  0  0  0  0  0  0  0
    1.8236    5.5303   37.1576 H   0  0  0  0  0  0  0  0  0  0  0  0
    0.5923    4.5087   37.1200 H   0  0  0  0  0  0  0  0  0  0  0  0
   -1.7322    0.9131   40.3938 C   0  0  0  0  0  0  0  0  0  0  0  0
   -2.1699    1.7535   40.7121 H   0  0  0  0  0  0  0  0  0  0  0  0
   -2.5562    0.3633   39.2160 C   0  0  0  0  0  0  0  0  0  0  0  0
   -2.1065   -0.4230   38.8414 H   0  0  0  0  0  0  0  0  0  0  0  0
   -2.6383    1.0528   38.5248 H   0  0  0  0  0  0  0  0  0  0  0  0
   -3.4485    0.1091   39.5318 H   0  0  0  0  0  0  0  0  0  0  0  0
   -1.7665   -0.0970   41.5342 C   0  0  0  0  0  0  0  0  0  0  0  0
   -2.6908   -0.2172   41.8368 H   0  0  0  0  0  0  0  0  0  0  0  0
   -1.2193    0.2312   42.2780 H   0  0  0  0  0  0  0  0  0  0  0  0
   -1.4112   -0.9554   41.2214 H   0  0  0  0  0  0  0  0  0  0  0  0
   -1.1945    4.2970   40.8353 C   0  0  0  0  0  0  0  0  0  0  0  0
   -2.4426    5.1401   40.5890 C   0  0  0  0  0  0  0  0  0  0  0  0
   -2.3689    6.0059   41.0631 H   0  0  0  0  0  0  0  0  0  0  0  0
   -3.2455    4.6667   40.9235 H   0  0  0  0  0  0  0  0  0  0  0  0
   -2.5600    5.3782   39.0340 C   0  0  0  0  0  0  0  0  0  0  0  0
   -0.2792    7.4574   39.4229 C   0  0  0  0  0  0  0  0  0  0  0  0
   -0.0952    8.4160   39.3407 H   0  0  0  0  0  0  0  0  0  0  0  0
    0.4677    6.9475   39.0448 H   0  0  0  0  0  0  0  0  0  0  0  0
   -0.3877    7.2249   40.3686 H   0  0  0  0  0  0  0  0  0  0  0  0
   -1.4504    7.1064   36.6592 C   0  0  0  0  0  0  0  0  0  0  0  0
   -1.0777    7.9847   36.4374 H   0  0  0  0  0  0  0  0  0  0  0  0
   -2.2676    6.9568   36.1392 H   0  0  0  0  0  0  0  0  0  0  0  0
   -0.7949    6.4095   36.4440 H   0  0  0  0  0  0  0  0  0  0  0  0
   -3.0330    8.4454   38.8676 C   0  0  0  0  0  0  0  0  0  0  0  0
   -3.2764    8.4227   39.8169 H   0  0  0  0  0  0  0  0  0  0  0  0
   -3.8405    8.3488   38.3211 H   0  0  0  0  0  0  0  0  0  0  0  0
   -2.5994    9.2998   38.6621 H   0  0  0  0  0  0  0  0  0  0  0  0
   -4.6343    5.5611   36.6749 C   0  0  0  0  0  0  0  0  0  0  0  0
   -5.5249    5.2574   36.4013 H   0  0  0  0  0  0  0  0  0  0  0  0
   -3.9551    5.1248   36.1197 H   0  0  0  0  0  0  0  0  0  0  0  0
   -4.5723    6.5330   36.5635 H   0  0  0  0  0  0  0  0  0  0  0  0
   -4.7820    3.3053   38.6906 C   0  0  0  0  0  0  0  0  0  0  0  0
   -4.4177    2.9768   39.5393 H   0  0  0  0  0  0  0  0  0  0  0  0
   -4.3988    2.7904   37.9499 H   0  0  0  0  0  0  0  0  0  0  0  0
   -5.7564    3.2006   38.6914 H   0  0  0  0  0  0  0  0  0  0  0  0
   -5.5370    6.1208   39.5265 C   0  0  0  0  0  0  0  0  0  0  0  0
   -6.4520    5.8037   39.3746 H   0  0  0  0  0  0  0  0  0  0  0  0
   -5.4729    7.0658   39.2775 H   0  0  0  0  0  0  0  0  0  0  0  0
   -5.3086    6.0159   40.4740 H   0  0  0  0  0  0  0  0  0  0  0  0
   -1.1894    2.0251   44.7524 C   0  0  0  0  0  0  0  0  0  0  0  0
   -1.6669    1.9491   43.9000 H   0  0  0  0  0  0  0  0  0  0  0  0
   -1.6646    2.6511   45.3381 H   0  0  0  0  0  0  0  0  0  0  0  0
   -1.1450    1.1455   45.1817 H   0  0  0  0  0  0  0  0  0  0  0  0
    1.2220    2.8475   46.0936 C   0  0  0  0  0  0  0  0  0  0  0  0
    0.7764    3.5872   46.5573 H   0  0  0  0  0  0  0  0  0  0  0  0
    2.1768    3.0480   46.0012 H   0  0  0  0  0  0  0  0  0  0  0  0
    1.1096    2.0229   46.6106 H   0  0  0  0  0  0  0  0  0  0  0  0
    1.3809    1.2261   43.7517 C   0  0  0  0  0  0  0  0  0  0  0  0
    1.2805    0.4498   44.3421 H   0  0  0  0  0  0  0  0  0  0  0  0
    2.3310    1.4504   43.6664 H   0  0  0  0  0  0  0  0  0  0  0  0
    1.0148    1.0133   42.8679 H   0  0  0  0  0  0  0  0  0  0  0  0
    3.5773    4.1411   43.0685 C   0  0  0  0  0  0  0  0  0  0  0  0
    4.3358    4.7209   42.8492 H   0  0  0  0  0  0  0  0  0  0  0  0
    3.4266    3.5085   42.3352 H   0  0  0  0  0  0  0  0  0  0  0  0
    3.7720    3.6456   43.8917 H   0  0  0  0  0  0  0  0  0  0  0  0
    2.0943    6.3933   41.9964 C   0  0  0  0  0  0  0  0  0  0  0  0
    1.3907    7.0529   42.1688 H   0  0  0  0  0  0  0  0  0  0  0  0
    1.9291    5.9567   41.1346 H   0  0  0  0  0  0  0  0  0  0  0  0
    2.9651    6.8423   41.9734 H   0  0  0  0  0  0  0  0  0  0  0  0
    2.4813    6.1282   44.7767 C   0  0  0  0  0  0  0  0  0  0  0  0
    3.3614    6.5451   44.6678 H   0  0  0  0  0  0  0  0  0  0  0  0
    2.4917    5.5443   45.5639 H   0  0  0  0  0  0  0  0  0  0  0  0
    1.8024    6.8249   44.8961 H   0  0  0  0  0  0  0  0  0  0  0  0
   -1.2302    2.5774   36.6213 C   0  0  0  0  0  0  0  0  0  0  0  0
   -0.6195    2.1531   37.2594 H   0  0  0  0  0  0  0  0  0  0  0  0
   -0.7403    2.8095   35.8049 H   0  0  0  0  0  0  0  0  0  0  0  0
   -1.9566    1.9579   36.4019 H   0  0  0  0  0  0  0  0  0  0  0  0
   -6.0684    5.7685   44.9572 N   0  0  0  0  0  0  0  0  0  0  0  0
   -0.9491    3.5937   39.5852 N   0  0  0  0  0  0  0  0  0  0  0  0
   -8.2462    4.8239   45.0983 O   0  0  0  0  0  0  0  0  0  0  0  0
   -1.7718    3.7556   37.1978 O   0  0  0  0  0  0  0  0  0  0  0  0
   -1.6648    7.0347   47.1206 P   0  0  0  0  0  0  0  0  0  0  0  0
   -1.9830    8.6788   44.3357 P   0  0  0  0  0  0  0  0  0  0  0  0
    0.4882    2.6355   44.4515 P   0  0  0  0  0  0  0  0  0  0  0  0
    2.0915    5.1529   43.3092 P   0  0  0  0  0  0  0  0  0  0  0  0
   -5.7019    2.2224   45.8508 Si  0  0  0  0  0  0  0  0  0  0  0  0
   -6.6519    2.4088   42.8596 Si  0  0  0  0  0  0  0  0  0  0  0  0
   -1.8538    7.0409   38.4924 Si  0  0  0  0  0  0  0  0  0  0  0  0
   -4.3475    5.1172   38.4833 Si  0  0  0  0  0  0  0  0  0  0  0  0
  1  3  1  0  0  0  0
  2 41  1  0  0  0  0
  3  4  1  0  0  0  0
  4  1  1  0  0  0  0
  5  1  1  0  0  0  0
  6  1  1  0  0  0  0
  7127  1  0  0  0  0
  8  9  4  0  0  0  0
  9 10  4  0  0  0  0
 10 11  1  0  0  0  0
 12 10  4  0  0  0  0
 13 12  1  0  0  0  0
 14 12  4  0  0  0  0
 15 14  1  0  0  0  0
 16  8  4  0  0  0  0
 17 16  1  0  0  0  0
 18 17  1  0  0  0  0
 19 17  1  0  0  0  0
 20 19  1  0  0  0  0
 21 19  1  0  0  0  0
 22 19  1  0  0  0  0
 23 17  1  0  0  0  0
 24 23  1  0  0  0  0
 25 23  1  0  0  0  0
 26 23  1  0  0  0  0
 27  9  1  0  0  0  0
 28 27  1  0  0  0  0
 29 27  1  0  0  0  0
 30 29  1  0  0  0  0
 31 29  1  0  0  0  0
 32 29  1  0  0  0  0
 33 27  1  0  0  0  0
 34 33  1  0  0  0  0
 35 33  1  0  0  0  0
 36 33  1  0  0  0  0
 37  3  2  0  0  0  0
 38 37  1  0  0  0  0
 39 38  1  0  0  0  0
 40 38  1  0  0  0  0
 41 38  1  0  0  0  0
 42 43  1  0  0  0  0
 44 42  1  0  0  0  0
 45 42  1  0  0  0  0
 46 47  1  0  0  0  0
 48 46  1  0  0  0  0
 49 46  1  0  0  0  0
 50 51  1  0  0  0  0
 52 50  1  0  0  0  0
 53 50  1  0  0  0  0
 54 55  1  0  0  0  0
 56 54  1  0  0  0  0
 57 54  1  0  0  0  0
 58 59  1  0  0  0  0
 60 58  1  0  0  0  0
 61 58  1  0  0  0  0
 62 63  1  0  0  0  0
 64 62  1  0  0  0  0
 65 62  1  0  0  0  0
 66 67  1  0  0  0  0
 68 66  1  0  0  0  0
 69 66  1  0  0  0  0
 70 71  1  0  0  0  0
 72 70  1  0  0  0  0
 73 70  1  0  0  0  0
 74 75  1  0  0  0  0
 76 74  1  0  0  0  0
 77 74  1  0  0  0  0
 78 79  1  0  0  0  0
 80 78  1  0  0  0  0
 81 78  1  0  0  0  0
 82 83  1  0  0  0  0
 84 82  1  0  0  0  0
 85 82  1  0  0  0  0
 86 87  1  0  0  0  0
 88 86  1  0  0  0  0
 89 86  1  0  0  0  0
 90 91  1  0  0  0  0
 92 90  1  0  0  0  0
 93 90  1  0  0  0  0
 94 95  4  0  0  0  0
 95 96  4  0  0  0  0
 96 97  1  0  0  0  0
 98 96  4  0  0  0  0
 99 98  1  0  0  0  0
100 98  4  0  0  0  0
101100  1  0  0  0  0
102 94  4  0  0  0  0
103102  1  0  0  0  0
104103  1  0  0  0  0
105103  1  0  0  0  0
106105  1  0  0  0  0
107105  1  0  0  0  0
108105  1  0  0  0  0
109103  1  0  0  0  0
110109  1  0  0  0  0
111109  1  0  0  0  0
112109  1  0  0  0  0
113 95  1  0  0  0  0
114113  1  0  0  0  0
115113  1  0  0  0  0
116115  1  0  0  0  0
117115  1  0  0  0  0
118115  1  0  0  0  0
119113  1  0  0  0  0
120119  1  0  0  0  0
121119  1  0  0  0  0
122119  1  0  0  0  0
123  6  2  0  0  0  0
124123  1  0  0  0  0
125124  1  0  0  0  0
126124  1  0  0  0  0
127124  1  0  0  0  0
128129  1  0  0  0  0
130128  1  0  0  0  0
131128  1  0  0  0  0
132133  1  0  0  0  0
134132  1  0  0  0  0
135132  1  0  0  0  0
136137  1  0  0  0  0
138136  1  0  0  0  0
139136  1  0  0  0  0
140141  1  0  0  0  0
142140  1  0  0  0  0
143140  1  0  0  0  0
144145  1  0  0  0  0
146144  1  0  0  0  0
147144  1  0  0  0  0
148149  1  0  0  0  0
150148  1  0  0  0  0
151148  1  0  0  0  0
152153  1  0  0  0  0
154152  1  0  0  0  0
155152  1  0  0  0  0
156157  1  0  0  0  0
158156  1  0  0  0  0
159156  1  0  0  0  0
160161  1  0  0  0  0
162160  1  0  0  0  0
163160  1  0  0  0  0
164165  1  0  0  0  0
166164  1  0  0  0  0
167164  1  0  0  0  0
168169  1  0  0  0  0
170168  1  0  0  0  0
171168  1  0  0  0  0
172173  1  0  0  0  0
174172  1  0  0  0  0
175172  1  0  0  0  0
176177  1  0  0  0  0
178176  1  0  0  0  0
179176  1  0  0  0  0
180  2  1  0  0  0  0
181  7  1  0  0  0  0
182  2  1  0  0  0  0
183  7  1  0  0  0  0
184  4  1  0  0  0  0
185  4  1  0  0  0  0
186  5  1  0  0  0  0
187  5  1  0  0  0  0
188 41  1  0  0  0  0
189 41  1  0  0  0  0
190127  1  0  0  0  0
191127  1  0  0  0  0
  5  6  1  0  0  0  0
  8180  1  0  0  0  0
 14 16  4  0  0  0  0
 37180  1  0  0  0  0
 42182  1  0  0  0  0
 46188  1  0  0  0  0
 50188  1  0  0  0  0
 54188  1  0  0  0  0
 58189  1  0  0  0  0
 62189  1  0  0  0  0
 66189  1  0  0  0  0
 70184  1  0  0  0  0
 74184  1  0  0  0  0
 78184  1  0  0  0  0
 82185  1  0  0  0  0
 86185  1  0  0  0  0
 90185  1  0  0  0  0
 94181  1  0  0  0  0
100102  4  0  0  0  0
123181  1  0  0  0  0
128190  1  0  0  0  0
132190  1  0  0  0  0
136190  1  0  0  0  0
140191  1  0  0  0  0
144191  1  0  0  0  0
148191  1  0  0  0  0
152186  1  0  0  0  0
156186  1  0  0  0  0
160186  1  0  0  0  0
164187  1  0  0  0  0
168187  1  0  0  0  0
172187  1  0  0  0  0
176183  1  0  0  0  0
M  CHG  1   1   1
M  END
$$$$
LISPEL

From CSD data. Using bond type 'Any'. No disordered atoms. Largest molecule.
191196  0  0  0  0  0  0  0  0999 V2000
    2.6977    6.7299   18.7922 Au  0  3  0  0  0  0  0  0  0  0  0  0
   -2.9609    7.5986   19.5709 B   0  0  0  0  0  0  0  0  0  0  0  0
    0.4381    6.0058   19.6032 B   0  0  0  0  0  0  0  0  0  0  0  0
    1.7090    5.1375   19.9625 B   0  0  0  0  0  0  0  0  0  0  0  0
    4.3179    8.0636   18.0680 B   0  0  0  0  0  0  0  0  0  0  0  0
    3.3800    8.0254   16.7880 B   0  0  0  0  0  0  0  0  0  0  0  0
    2.1363    8.0906   13.2432 B   0  0  0  0  0  0  0  0  0  0  0  0
   -2.4278    5.1682   20.1778 C   0  0  0  0  0  0  0  0  0  0  0  0
   -2.6177    4.1166   19.2621 C   0  0  0  0  0  0  0  0  0  0  0  0
   -2.9231    2.8547   19.7533 C   0  0  0  0  0  0  0  0  0  0  0  0
   -3.0548    2.1366   19.1452 H   0  0  0  0  0  0  0  0  0  0  0  0
   -3.0399    2.6223   21.1162 C   0  0  0  0  0  0  0  0  0  0  0  0
   -3.2243    1.7474   21.4375 H   0  0  0  0  0  0  0  0  0  0  0  0
   -2.8872    3.6665   22.0015 C   0  0  0  0  0  0  0  0  0  0  0  0
   -2.9831    3.5075   22.9331 H   0  0  0  0  0  0  0  0  0  0  0  0
   -2.5941    4.9530   21.5518 C   0  0  0  0  0  0  0  0  0  0  0  0
   -2.5555    6.0883   22.5574 C   0  0  0  0  0  0  0  0  0  0  0  0
   -2.1640    6.8845   22.0965 H   0  0  0  0  0  0  0  0  0  0  0  0
   -1.7059    5.8103   23.7894 C   0  0  0  0  0  0  0  0  0  0  0  0
   -2.0882    5.0574   24.2866 H   0  0  0  0  0  0  0  0  0  0  0  0
   -1.6903    6.6056   24.3615 H   0  0  0  0  0  0  0  0  0  0  0  0
   -0.7922    5.5888   23.5127 H   0  0  0  0  0  0  0  0  0  0  0  0
   -3.9696    6.4708   23.0157 C   0  0  0  0  0  0  0  0  0  0  0  0
   -4.3744    5.7149   23.4909 H   0  0  0  0  0  0  0  0  0  0  0  0
   -4.5164    6.6960   22.2346 H   0  0  0  0  0  0  0  0  0  0  0  0
   -3.9206    7.2445   23.6149 H   0  0  0  0  0  0  0  0  0  0  0  0
   -2.5968    4.3774   17.7598 C   0  0  0  0  0  0  0  0  0  0  0  0
   -1.9108    5.0822   17.5782 H   0  0  0  0  0  0  0  0  0  0  0  0
   -3.9554    4.9112   17.3004 C   0  0  0  0  0  0  0  0  0  0  0  0
   -4.6411    4.2263   17.4441 H   0  0  0  0  0  0  0  0  0  0  0  0
   -3.9126    5.1359   16.3472 H   0  0  0  0  0  0  0  0  0  0  0  0
   -4.1822    5.7139   17.8150 H   0  0  0  0  0  0  0  0  0  0  0  0
   -2.2359    3.1376   16.9270 C   0  0  0  0  0  0  0  0  0  0  0  0
   -1.4514    2.6990   17.3174 H   0  0  0  0  0  0  0  0  0  0  0  0
   -2.0348    3.4091   16.0073 H   0  0  0  0  0  0  0  0  0  0  0  0
   -2.9920    2.5139   16.9256 H   0  0  0  0  0  0  0  0  0  0  0  0
   -0.7247    6.7918   19.3566 C   0  0  0  0  0  0  0  0  0  0  0  0
   -0.8006    8.1398   18.6421 C   0  0  0  0  0  0  0  0  0  0  0  0
   -0.8171    8.0038   17.6615 H   0  0  0  0  0  0  0  0  0  0  0  0
   -0.0086    8.6890   18.8681 H   0  0  0  0  0  0  0  0  0  0  0  0
   -2.1260    8.8753   19.1126 C   0  0  0  0  0  0  0  0  0  0  0  0
   -5.3046    8.3661   19.7700 C   0  0  0  0  0  0  0  0  0  0  0  0
   -4.9067    9.2597   19.7163 H   0  0  0  0  0  0  0  0  0  0  0  0
   -5.8871    8.3142   20.5564 H   0  0  0  0  0  0  0  0  0  0  0  0
   -5.8310    8.1933   18.9617 H   0  0  0  0  0  0  0  0  0  0  0  0
   -3.2546   10.4669   21.5851 C   0  0  0  0  0  0  0  0  0  0  0  0
   -3.6838    9.6473   21.9071 H   0  0  0  0  0  0  0  0  0  0  0  0
   -3.8866   10.9709   21.0307 H   0  0  0  0  0  0  0  0  0  0  0  0
   -2.9821   11.0157   22.3502 H   0  0  0  0  0  0  0  0  0  0  0  0
   -0.5097    9.2640   21.7494 C   0  0  0  0  0  0  0  0  0  0  0  0
   -0.0101    9.9753   22.2015 H   0  0  0  0  0  0  0  0  0  0  0  0
    0.1127    8.6945   21.2498 H   0  0  0  0  0  0  0  0  0  0  0  0
   -0.9838    8.7233   22.4151 H   0  0  0  0  0  0  0  0  0  0  0  0
   -0.9438   11.6304   20.0060 C   0  0  0  0  0  0  0  0  0  0  0  0
   -1.5857   12.1497   19.4771 H   0  0  0  0  0  0  0  0  0  0  0  0
   -0.1568   11.4292   19.4577 H   0  0  0  0  0  0  0  0  0  0  0  0
   -0.6710   12.1509   20.7903 H   0  0  0  0  0  0  0  0  0  0  0  0
   -4.0345   11.1729   17.9240 C   0  0  0  0  0  0  0  0  0  0  0  0
   -4.1168   11.7405   17.1289 H   0  0  0  0  0  0  0  0  0  0  0  0
   -3.7410   11.7176   18.6843 H   0  0  0  0  0  0  0  0  0  0  0  0
   -4.9035   10.7688   18.1279 H   0  0  0  0  0  0  0  0  0  0  0  0
   -1.3379   10.6686   16.7335 C   0  0  0  0  0  0  0  0  0  0  0  0
   -0.5668   10.0639   16.7096 H   0  0  0  0  0  0  0  0  0  0  0  0
   -1.0985   11.4837   17.2217 H   0  0  0  0  0  0  0  0  0  0  0  0
   -1.5996   10.9005   15.8182 H   0  0  0  0  0  0  0  0  0  0  0  0
   -3.5662    8.6146   16.4101 C   0  0  0  0  0  0  0  0  0  0  0  0
   -4.3676    8.2288   16.8212 H   0  0  0  0  0  0  0  0  0  0  0  0
   -2.9312    7.8989   16.1976 H   0  0  0  0  0  0  0  0  0  0  0  0
   -3.8155    9.0847   15.5869 H   0  0  0  0  0  0  0  0  0  0  0  0
    4.0206    5.0612   22.1122 C   0  0  0  0  0  0  0  0  0  0  0  0
    4.4804    5.8261   21.7076 H   0  0  0  0  0  0  0  0  0  0  0  0
    4.3697    4.2297   21.7285 H   0  0  0  0  0  0  0  0  0  0  0  0
    4.1726    5.0632   23.0803 H   0  0  0  0  0  0  0  0  0  0  0  0
    1.5100    3.8756   22.7843 C   0  0  0  0  0  0  0  0  0  0  0  0
    1.6765    4.0581   23.7326 H   0  0  0  0  0  0  0  0  0  0  0  0
    1.9052    3.0125   22.5430 H   0  0  0  0  0  0  0  0  0  0  0  0
    0.5440    3.8503   22.6212 H   0  0  0  0  0  0  0  0  0  0  0  0
    1.8069    6.7401   22.5564 C   0  0  0  0  0  0  0  0  0  0  0  0
    2.0575    6.7187   23.5035 H   0  0  0  0  0  0  0  0  0  0  0  0
    0.8399    6.8786   22.4773 H   0  0  0  0  0  0  0  0  0  0  0  0
    2.2795    7.4736   22.1100 H   0  0  0  0  0  0  0  0  0  0  0  0
    1.0280    2.1266   19.6462 C   0  0  0  0  0  0  0  0  0  0  0  0
    0.0877    2.3799   19.7568 H   0  0  0  0  0  0  0  0  0  0  0  0
    1.3995    1.8633   20.5141 H   0  0  0  0  0  0  0  0  0  0  0  0
    1.0919    1.3737   19.0218 H   0  0  0  0  0  0  0  0  0  0  0  0
    3.6480    2.9015   18.8139 C   0  0  0  0  0  0  0  0  0  0  0  0
    3.6383    2.0880   18.2676 H   0  0  0  0  0  0  0  0  0  0  0  0
    4.0172    2.6972   19.6981 H   0  0  0  0  0  0  0  0  0  0  0  0
    4.2027    3.5814   18.3772 H   0  0  0  0  0  0  0  0  0  0  0  0
    1.3908    3.7600   17.3020 C   0  0  0  0  0  0  0  0  0  0  0  0
    1.3276    2.8901   16.8562 H   0  0  0  0  0  0  0  0  0  0  0  0
    2.0277    4.3287   16.8203 H   0  0  0  0  0  0  0  0  0  0  0  0
    0.5097    4.1895   17.3076 H   0  0  0  0  0  0  0  0  0  0  0  0
    3.8903    9.6539   14.3301 C   0  0  0  0  0  0  0  0  0  0  0  0
    5.2094    9.3415   13.9395 C   0  0  0  0  0  0  0  0  0  0  0  0
    6.1444   10.3709   13.8728 C   0  0  0  0  0  0  0  0  0  0  0  0
    7.0346   10.1767   13.6030 H   0  0  0  0  0  0  0  0  0  0  0  0
    5.7984   11.6661   14.1917 C   0  0  0  0  0  0  0  0  0  0  0  0
    6.4445   12.3598   14.1261 H   0  0  0  0  0  0  0  0  0  0  0  0
    4.5057   11.9600   14.6096 C   0  0  0  0  0  0  0  0  0  0  0  0
    4.2812   12.8541   14.8370 H   0  0  0  0  0  0  0  0  0  0  0  0
    3.5329   10.9675   14.7010 C   0  0  0  0  0  0  0  0  0  0  0  0
    2.1184   11.3155   15.1381 C   0  0  0  0  0  0  0  0  0  0  0  0
    1.6815   10.4761   15.4602 H   0  0  0  0  0  0  0  0  0  0  0  0
    1.2944   11.8555   13.9764 C   0  0  0  0  0  0  0  0  0  0  0  0
    0.4044   12.1104   14.2980 H   0  0  0  0  0  0  0  0  0  0  0  0
    1.2068   11.1624   13.2887 H   0  0  0  0  0  0  0  0  0  0  0  0
    1.7413   12.6394   13.5951 H   0  0  0  0  0  0  0  0  0  0  0  0
    2.0992   12.3192   16.2807 C   0  0  0  0  0  0  0  0  0  0  0  0
    2.4291   13.1851   15.9605 H   0  0  0  0  0  0  0  0  0  0  0  0
    2.6742   11.9990   17.0066 H   0  0  0  0  0  0  0  0  0  0  0  0
    1.1822   12.4213   16.6107 H   0  0  0  0  0  0  0  0  0  0  0  0
    5.6040    7.9196   13.5873 C   0  0  0  0  0  0  0  0  0  0  0  0
    5.0345    7.3034   14.1314 H   0  0  0  0  0  0  0  0  0  0  0  0
    7.0695    7.5999   13.9046 C   0  0  0  0  0  0  0  0  0  0  0  0
    7.6511    8.0687   13.2707 H   0  0  0  0  0  0  0  0  0  0  0  0
    7.2166    6.6334   13.8295 H   0  0  0  0  0  0  0  0  0  0  0  0
    7.2775    7.8915   14.8167 H   0  0  0  0  0  0  0  0  0  0  0  0
    5.3583    7.5949   12.1097 C   0  0  0  0  0  0  0  0  0  0  0  0
    4.4084    7.7166   11.9023 H   0  0  0  0  0  0  0  0  0  0  0  0
    5.6151    6.6659   11.9325 H   0  0  0  0  0  0  0  0  0  0  0  0
    5.8946    8.1946   11.5502 H   0  0  0  0  0  0  0  0  0  0  0  0
    2.6315    7.9073   15.5742 C   0  0  0  0  0  0  0  0  0  0  0  0
    1.3882    7.0771   15.3044 C   0  0  0  0  0  0  0  0  0  0  0  0
    0.5851    7.5463   15.6443 H   0  0  0  0  0  0  0  0  0  0  0  0
    1.4569    6.2023   15.7624 H   0  0  0  0  0  0  0  0  0  0  0  0
    1.2745    6.8668   13.7434 C   0  0  0  0  0  0  0  0  0  0  0  0
    2.6435    9.6822   11.3770 C   0  0  0  0  0  0  0  0  0  0  0  0
    1.9284   10.3061   11.1317 H   0  0  0  0  0  0  0  0  0  0  0  0
    3.1568    9.4433   10.5772 H   0  0  0  0  0  0  0  0  0  0  0  0
    3.2371   10.1074   12.0310 H   0  0  0  0  0  0  0  0  0  0  0  0
   -0.9406    8.9356   13.4433 C   0  0  0  0  0  0  0  0  0  0  0  0
   -0.5888    9.4610   12.6940 H   0  0  0  0  0  0  0  0  0  0  0  0
   -0.5432    9.2548   14.2803 H   0  0  0  0  0  0  0  0  0  0  0  0
   -1.9144    9.0374   13.4843 H   0  0  0  0  0  0  0  0  0  0  0  0
   -1.7060    6.1104   14.2230 C   0  0  0  0  0  0  0  0  0  0  0  0
   -2.6135    6.4645   14.1173 H   0  0  0  0  0  0  0  0  0  0  0  0
   -1.4461    6.1543   15.1670 H   0  0  0  0  0  0  0  0  0  0  0  0
   -1.6819    5.1782   13.9209 H   0  0  0  0  0  0  0  0  0  0  0  0
   -0.8006    6.7143   11.3947 C   0  0  0  0  0  0  0  0  0  0  0  0
   -1.6779    7.0519   11.1180 H   0  0  0  0  0  0  0  0  0  0  0  0
   -0.7727    5.7417   11.2767 H   0  0  0  0  0  0  0  0  0  0  0  0
   -0.1027    7.1300   10.8468 H   0  0  0  0  0  0  0  0  0  0  0  0
    2.3604    5.1510   11.3558 C   0  0  0  0  0  0  0  0  0  0  0  0
    3.0269    5.8365   11.1387 H   0  0  0  0  0  0  0  0  0  0  0  0
    1.5399    5.3216   10.8475 H   0  0  0  0  0  0  0  0  0  0  0  0
    2.7125    4.2675   11.1215 H   0  0  0  0  0  0  0  0  0  0  0  0
    0.8018    3.8005   13.5686 C   0  0  0  0  0  0  0  0  0  0  0  0
    0.0229    3.8582   12.9768 H   0  0  0  0  0  0  0  0  0  0  0  0
    0.5088    3.8636   14.5016 H   0  0  0  0  0  0  0  0  0  0  0  0
    1.2572    2.9443   13.4265 H   0  0  0  0  0  0  0  0  0  0  0  0
    3.5673    4.7968   14.1002 C   0  0  0  0  0  0  0  0  0  0  0  0
    3.7081    3.8266   14.0899 H   0  0  0  0  0  0  0  0  0  0  0  0
    3.5001    5.1069   15.0273 H   0  0  0  0  0  0  0  0  0  0  0  0
    4.3220    5.2409   13.6607 H   0  0  0  0  0  0  0  0  0  0  0  0
    5.2516   10.9982   18.4612 C   0  0  0  0  0  0  0  0  0  0  0  0
    4.8971   11.1891   17.5680 H   0  0  0  0  0  0  0  0  0  0  0  0
    6.2029   10.7730   18.3943 H   0  0  0  0  0  0  0  0  0  0  0  0
    5.1417   11.7870   19.0322 H   0  0  0  0  0  0  0  0  0  0  0  0
    5.0926    9.3870   20.8160 C   0  0  0  0  0  0  0  0  0  0  0  0
    5.0340   10.2287   21.3143 H   0  0  0  0  0  0  0  0  0  0  0  0
    6.0335    9.1314   20.7162 H   0  0  0  0  0  0  0  0  0  0  0  0
    4.6135    8.6847   21.3037 H   0  0  0  0  0  0  0  0  0  0  0  0
    2.6814   10.2086   19.4784 C   0  0  0  0  0  0  0  0  0  0  0  0
    2.2144    9.5980   20.0865 H   0  0  0  0  0  0  0  0  0  0  0  0
    2.1962   10.2577   18.6286 H   0  0  0  0  0  0  0  0  0  0  0  0
    2.7257   11.1005   19.8818 H   0  0  0  0  0  0  0  0  0  0  0  0
    7.4163    8.1041   17.7487 C   0  0  0  0  0  0  0  0  0  0  0  0
    7.6251    8.5995   18.5680 H   0  0  0  0  0  0  0  0  0  0  0  0
    7.2425    8.7363   17.0201 H   0  0  0  0  0  0  0  0  0  0  0  0
    8.1752    7.5319   17.5104 H   0  0  0  0  0  0  0  0  0  0  0  0
    6.3540    6.1165   19.4926 C   0  0  0  0  0  0  0  0  0  0  0  0
    5.6834    5.4136   19.6221 H   0  0  0  0  0  0  0  0  0  0  0  0
    6.3638    6.7065   20.2751 H   0  0  0  0  0  0  0  0  0  0  0  0
    7.2378    5.7079   19.3807 H   0  0  0  0  0  0  0  0  0  0  0  0
    5.9268    5.8361   16.7133 C   0  0  0  0  0  0  0  0  0  0  0  0
    6.7993    5.3915   16.6728 H   0  0  0  0  0  0  0  0  0  0  0  0
    5.7411    6.2699   15.8546 H   0  0  0  0  0  0  0  0  0  0  0  0
    5.2306    5.1722   16.9013 H   0  0  0  0  0  0  0  0  0  0  0  0
   -2.0956    6.4732   19.6856 N   0  0  0  0  0  0  0  0  0  0  0  0
    2.8943    8.6269   14.3367 N   0  0  0  0  0  0  0  0  0  0  0  0
   -4.2787    7.3994   19.8796 O   0  0  0  0  0  0  0  0  0  0  0  0
    2.0773    8.5125   11.9429 O   0  0  0  0  0  0  0  0  0  0  0  0
    2.2545    5.1792   21.7822 P   0  0  0  0  0  0  0  0  0  0  0  0
    1.9556    3.5279   18.9953 P   0  0  0  0  0  0  0  0  0  0  0  0
    4.3497    9.6004   19.1828 P   0  0  0  0  0  0  0  0  0  0  0  0
    5.9440    7.0752   18.0215 P   0  0  0  0  0  0  0  0  0  0  0  0
   -1.7465   10.0240   20.5664 Si  0  0  0  0  0  0  0  0  0  0  0  0
   -2.7734    9.8184   17.5991 Si  0  0  0  0  0  0  0  0  0  0  0  0
   -0.5110    7.1324   13.1962 Si  0  0  0  0  0  0  0  0  0  0  0  0
    1.9824    5.2072   13.1876 Si  0  0  0  0  0  0  0  0  0  0  0  0
  1  3  1  0  0  0  0
  2 41  1  0  0  0  0
  3  4  1  0  0  0  0
  4  1  1  0  0  0  0
  5  1  1  0  0  0  0
  6  1  1  0  0  0  0
  7127  1  0  0  0  0
  8  9  4  0  0  0  0
  9 10  4  0  0  0  0
 10 11  1  0  0  0  0
 12 10  4  0  0  0  0
 13 12  1  0  0  0  0
 14 12  4  0  0  0  0
 15 14  1  0  0  0  0
 16  8  4  0  0  0  0
 17 16  1  0  0  0  0
 18 17  1  0  0  0  0
 19 17  1  0  0  0  0
 20 19  1  0  0  0  0
 21 19  1  0  0  0  0
 22 19  1  0  0  0  0
 23 17  1  0  0  0  0
 24 23  1  0  0  0  0
 25 23  1  0  0  0  0
 26 23  1  0  0  0  0
 27  9  1  0  0  0  0
 28 27  1  0  0  0  0
 29 27  1  0  0  0  0
 30 29  1  0  0  0  0
 31 29  1  0  0  0  0
 32 29  1  0  0  0  0
 33 27  1  0  0  0  0
 34 33  1  0  0  0  0
 35 33  1  0  0  0  0
 36 33  1  0  0  0  0
 37  3  2  0  0  0  0
 38 37  1  0  0  0  0
 39 38  1  0  0  0  0
 40 38  1  0  0  0  0
 41 38  1  0  0  0  0
 42 43  1  0  0  0  0
 44 42  1  0  0  0  0
 45 42  1  0  0  0  0
 46 47  1  0  0  0  0
 48 46  1  0  0  0  0
 49 46  1  0  0  0  0
 50 51  1  0  0  0  0
 52 50  1  0  0  0  0
 53 50  1  0  0  0  0
 54 55  1  0  0  0  0
 56 54  1  0  0  0  0
 57 54  1  0  0  0  0
 58 59  1  0  0  0  0
 60 58  1  0  0  0  0
 61 58  1  0  0  0  0
 62 63  1  0  0  0  0
 64 62  1  0  0  0  0
 65 62  1  0  0  0  0
 66 67  1  0  0  0  0
 68 66  1  0  0  0  0
 69 66  1  0  0  0  0
 70 71  1  0  0  0  0
 72 70  1  0  0  0  0
 73 70  1  0  0  0  0
 74 75  1  0  0  0  0
 76 74  1  0  0  0  0
 77 74  1  0  0  0  0
 78 79  1  0  0  0  0
 80 78  1  0  0  0  0
 81 78  1  0  0  0  0
 82 83  1  0  0  0  0
 84 82  1  0  0  0  0
 85 82  1  0  0  0  0
 86 87  1  0  0  0  0
 88 86  1  0  0  0  0
 89 86  1  0  0  0  0
 90 91  1  0  0  0  0
 92 90  1  0  0  0  0
 93 90  1  0  0  0  0
 94 95  4  0  0  0  0
 95 96  4  0  0  0  0
 96 97  1  0  0  0  0
 98 96  4  0  0  0  0
 99 98  1  0  0  0  0
100 98  4  0  0  0  0
101100  1  0  0  0  0
102 94  4  0  0  0  0
103102  1  0  0  0  0
104103  1  0  0  0  0
105103  1  0  0  0  0
106105  1  0  0  0  0
107105  1  0  0  0  0
108105  1  0  0  0  0
109103  1  0  0  0  0
110109  1  0  0  0  0
111109  1  0  0  0  0
112109  1  0  0  0  0
113 95  1  0  0  0  0
114113  1  0  0  0  0
115113  1  0  0  0  0
116115  1  0  0  0  0
117115  1  0  0  0  0
118115  1  0  0  0  0
119113  1  0  0  0  0
120119  1  0  0  0  0
121119  1  0  0  0  0
122119  1  0  0  0  0
123  6  2  0  0  0  0
124123  1  0  0  0  0
125124  1  0  0  0  0
126124  1  0  0  0  0
127124  1  0  0  0  0
128129  1  0  0  0  0
130128  1  0  0  0  0
131128  1  0  0  0  0
132133  1  0  0  0  0
134132  1  0  0  0  0
135132  1  0  0  0  0
136137  1  0  0  0  0
138136  1  0  0  0  0
139136  1  0  0  0  0
140141  1  0  0  0  0
142140  1  0  0  0  0
143140  1  0  0  0  0
144145  1  0  0  0  0
146144  1  0  0  0  0
147144  1  0  0  0  0
148149  1  0  0  0  0
150148  1  0  0  0  0
151148  1  0  0  0  0
152153  1  0  0  0  0
154152  1  0  0  0  0
155152  1  0  0  0  0
156157  1  0  0  0  0
158156  1  0  0  0  0
159156  1  0  0  0  0
160161  1  0  0  0  0
162160  1  0  0  0  0
163160  1  0  0  0  0
164165  1  0  0  0  0
166164  1  0  0  0  0
167164  1  0  0  0  0
168169  1  0  0  0  0
170168  1  0  0  0  0
171168  1  0  0  0  0
172173  1  0  0  0  0
174172  1  0  0  0  0
175172  1  0  0  0  0
176177  1  0  0  0  0
178176  1  0  0  0  0
179176  1  0  0  0  0
180  2  1  0  0  0  0
181  7  1  0  0  0  0
182  2  1  0  0  0  0
183  7  1  0  0  0  0
184  4  1  0  0  0  0
185  4  1  0  0  0  0
186  5  1  0  0  0  0
187  5  1  0  0  0  0
188 41  1  0  0  0  0
189 41  1  0  0  0  0
190127  1  0  0  0  0
191127  1  0  0  0  0
  5  6  1  0  0  0  0
  8180  1  0  0  0  0
 14 16  4  0  0  0  0
 37180  1  0  0  0  0
 42182  1  0  0  0  0
 46188  1  0  0  0  0
 50188  1  0  0  0  0
 54188  1  0  0  0  0
 58189  1  0  0  0  0
 62189  1  0  0  0  0
 66189  1  0  0  0  0
 70184  1  0  0  0  0
 74184  1  0  0  0  0
 78184  1  0  0  0  0
 82185  1  0  0  0  0
 86185  1  0  0  0  0
 90185  1  0  0  0  0
 94181  1  0  0  0  0
100102  4  0  0  0  0
123181  1  0  0  0  0
128183  1  0  0  0  0
132190  1  0  0  0  0
136190  1  0  0  0  0
140190  1  0  0  0  0
144191  1  0  0  0  0
148191  1  0  0  0  0
152191  1  0  0  0  0
156186  1  0  0  0  0
160186  1  0  0  0  0
164186  1  0  0  0  0
168187  1  0  0  0  0
172187  1  0  0  0  0
176187  1  0  0  0  0
M  CHG  1   1   1
M  END
$$$$
LIWMUD

From CSD data. Using bond type 'Any'. No disordered atoms. Largest molecule.
163175  0  0  0  0  0  0  0  0999 V2000
    8.6367    5.0988    1.6737 Br  0  0  0  0  0  0  0  0  0  0  0  0
    8.0762    4.5152    4.1456 W   0  3  0  0  0  0  0  0  0  0  0  0
    7.5665    4.0757    5.7851 N   0  0  0  0  0  0  0  0  0  0  0  0
    6.9427    3.6130    7.0470 B   0  0  0  0  0  0  0  0  0  0  0  0
    5.4420    2.2772    9.2438 O   0  0  0  0  0  0  0  0  0  0  0  0
    6.4217    2.2857    7.0808 N   0  0  0  0  0  0  0  0  0  0  0  0
    6.5422    1.8287    6.3386 H   0  0  0  0  0  0  0  0  0  0  0  0
    5.7282    1.5585    8.1254 B   0  0  0  0  0  0  0  0  0  0  0  0
    6.8555    4.5156    8.3406 C   0  0  0  0  0  0  0  0  0  0  0  0
    7.8670    4.4583    9.3273 C   0  0  0  0  0  0  0  0  0  0  0  0
    7.6999    5.1429   10.5199 C   0  0  0  0  0  0  0  0  0  0  0  0
    8.3894    5.1068   11.1719 H   0  0  0  0  0  0  0  0  0  0  0  0
    6.5501    5.8835   10.7940 C   0  0  0  0  0  0  0  0  0  0  0  0
    5.5677    5.9276    9.8182 C   0  0  0  0  0  0  0  0  0  0  0  0
    4.7808    6.4342    9.9798 H   0  0  0  0  0  0  0  0  0  0  0  0
    5.6988    5.2543    8.6104 C   0  0  0  0  0  0  0  0  0  0  0  0
    9.0857    3.6030    9.1304 C   0  0  0  0  0  0  0  0  0  0  0  0
    9.7486    3.8149    9.8212 H   0  0  0  0  0  0  0  0  0  0  0  0
    9.4694    3.7795    8.2458 H   0  0  0  0  0  0  0  0  0  0  0  0
    8.8365    2.6580    9.1959 H   0  0  0  0  0  0  0  0  0  0  0  0
    6.3603    6.5121   12.1540 C   0  0  0  0  0  0  0  0  0  0  0  0
    5.5009    6.9827   12.1790 H   0  0  0  0  0  0  0  0  0  0  0  0
    7.0860    7.1474   12.3246 H   0  0  0  0  0  0  0  0  0  0  0  0
    6.3694    5.8129   12.8411 H   0  0  0  0  0  0  0  0  0  0  0  0
    4.5301    5.2396    7.6477 C   0  0  0  0  0  0  0  0  0  0  0  0
    4.1507    6.1406    7.5815 H   0  0  0  0  0  0  0  0  0  0  0  0
    3.8457    4.6196    7.9748 H   0  0  0  0  0  0  0  0  0  0  0  0
    4.8388    4.9493    6.7640 H   0  0  0  0  0  0  0  0  0  0  0  0
    5.3905    0.0353    7.9472 C   0  0  0  0  0  0  0  0  0  0  0  0
    6.1673   -0.9287    8.6141 C   0  0  0  0  0  0  0  0  0  0  0  0
    5.8585   -2.2740    8.4960 C   0  0  0  0  0  0  0  0  0  0  0  0
    6.3849   -2.9137    8.9622 H   0  0  0  0  0  0  0  0  0  0  0  0
    4.8004   -2.7089    7.7144 C   0  0  0  0  0  0  0  0  0  0  0  0
    4.0407   -1.7646    7.0494 C   0  0  0  0  0  0  0  0  0  0  0  0
    3.3221   -2.0536    6.4992 H   0  0  0  0  0  0  0  0  0  0  0  0
    4.3011   -0.3925    7.1654 C   0  0  0  0  0  0  0  0  0  0  0  0
    7.3252   -0.4978    9.4836 C   0  0  0  0  0  0  0  0  0  0  0  0
    7.8862   -1.2750    9.6894 H   0  0  0  0  0  0  0  0  0  0  0  0
    6.9828   -0.1126   10.3170 H   0  0  0  0  0  0  0  0  0  0  0  0
    7.8591    0.1731    9.0087 H   0  0  0  0  0  0  0  0  0  0  0  0
    4.4968   -4.1840    7.5984 C   0  0  0  0  0  0  0  0  0  0  0  0
    3.6402   -4.3062    7.1374 H   0  0  0  0  0  0  0  0  0  0  0  0
    4.4454   -4.5794    8.4932 H   0  0  0  0  0  0  0  0  0  0  0  0
    5.2075   -4.6253    7.0867 H   0  0  0  0  0  0  0  0  0  0  0  0
    3.3941    0.6130    6.5041 C   0  0  0  0  0  0  0  0  0  0  0  0
    2.7955    0.1523    5.8804 H   0  0  0  0  0  0  0  0  0  0  0  0
    3.9353    1.2676    6.0145 H   0  0  0  0  0  0  0  0  0  0  0  0
    2.8639    1.0733    7.1873 H   0  0  0  0  0  0  0  0  0  0  0  0
    4.7959    1.9161   10.4150 C   0  0  0  0  0  0  0  0  0  0  0  0
    5.1713    2.6070   11.5452 C   0  0  0  0  0  0  0  0  0  0  0  0
    5.8762    3.2427   11.5034 H   0  0  0  0  0  0  0  0  0  0  0  0
    4.5159    2.3705   12.7473 C   0  0  0  0  0  0  0  0  0  0  0  0
    4.7721    2.8515   13.5253 H   0  0  0  0  0  0  0  0  0  0  0  0
    3.5002    1.4461   12.8221 C   0  0  0  0  0  0  0  0  0  0  0  0
    3.0570    1.2857   13.6468 H   0  0  0  0  0  0  0  0  0  0  0  0
    3.1332    0.7570   11.6898 C   0  0  0  0  0  0  0  0  0  0  0  0
    2.4302    0.1209   11.7367 H   0  0  0  0  0  0  0  0  0  0  0  0
    3.7779    0.9785   10.4754 C   0  0  0  0  0  0  0  0  0  0  0  0
    3.5241    0.4942    9.6993 H   0  0  0  0  0  0  0  0  0  0  0  0
    4.5547    5.0247    3.7407 C   0  0  0  0  0  0  0  0  0  0  0  0
    3.9347    5.3636    4.4342 H   0  0  0  0  0  0  0  0  0  0  0  0
    4.1154    5.1453    2.8616 H   0  0  0  0  0  0  0  0  0  0  0  0
    4.7813    3.5331    3.9739 C   0  0  0  0  0  0  0  0  0  0  0  0
    4.0266    3.0290    3.5795 H   0  0  0  0  0  0  0  0  0  0  0  0
    4.7842    3.3585    4.9483 H   0  0  0  0  0  0  0  0  0  0  0  0
    6.1078    6.0486    3.7772 P   0  0  0  0  0  0  0  0  0  0  0  0
    6.3535    2.9073    3.2547 P   0  0  0  0  0  0  0  0  0  0  0  0
    9.8014    6.3735    4.4040 P   0  0  0  0  0  0  0  0  0  0  0  0
   11.3597    5.7975    3.6128 C   0  0  0  0  0  0  0  0  0  0  0  0
   11.2561    5.7974    2.6281 H   0  0  0  0  0  0  0  0  0  0  0  0
   12.1014    6.4098    3.8468 H   0  0  0  0  0  0  0  0  0  0  0  0
   10.2731    3.2099    3.8834 P   0  0  0  0  0  0  0  0  0  0  0  0
   11.6788    4.3931    4.0975 C   0  0  0  0  0  0  0  0  0  0  0  0
   11.9218    4.4320    5.0562 H   0  0  0  0  0  0  0  0  0  0  0  0
   12.4634    4.0523    3.6002 H   0  0  0  0  0  0  0  0  0  0  0  0
    5.7303    7.3058    5.0491 C   0  0  0  0  0  0  0  0  0  0  0  0
    4.6058    8.1229    4.9173 C   0  0  0  0  0  0  0  0  0  0  0  0
    4.0217    8.0107    4.1767 H   0  0  0  0  0  0  0  0  0  0  0  0
    4.3427    9.0923    5.8621 C   0  0  0  0  0  0  0  0  0  0  0  0
    3.5808    9.6520    5.7643 H   0  0  0  0  0  0  0  0  0  0  0  0
    5.1841    9.2594    6.9575 C   0  0  0  0  0  0  0  0  0  0  0  0
    5.0087    9.9398    7.5966 H   0  0  0  0  0  0  0  0  0  0  0  0
    6.2812    8.4277    7.1102 C   0  0  0  0  0  0  0  0  0  0  0  0
    6.8468    8.5198    7.8676 H   0  0  0  0  0  0  0  0  0  0  0  0
    6.5498    7.4602    6.1555 C   0  0  0  0  0  0  0  0  0  0  0  0
    7.3056    6.8952    6.2610 H   0  0  0  0  0  0  0  0  0  0  0  0
    5.9729    7.0447    2.2391 C   0  0  0  0  0  0  0  0  0  0  0  0
    5.4638    6.4979    1.0701 C   0  0  0  0  0  0  0  0  0  0  0  0
    5.2456    5.5743    1.0387 H   0  0  0  0  0  0  0  0  0  0  0  0
    5.2717    7.2853   -0.0501 C   0  0  0  0  0  0  0  0  0  0  0  0
    4.9069    6.9048   -0.8399 H   0  0  0  0  0  0  0  0  0  0  0  0
    5.6084    8.6193   -0.0246 C   0  0  0  0  0  0  0  0  0  0  0  0
    5.4385    9.1695   -0.7808 H   0  0  0  0  0  0  0  0  0  0  0  0
    6.1928    9.1556    1.1019 C   0  0  0  0  0  0  0  0  0  0  0  0
    6.4772   10.0617    1.1042 H   0  0  0  0  0  0  0  0  0  0  0  0
    6.3658    8.3736    2.2294 C   0  0  0  0  0  0  0  0  0  0  0  0
    6.7596    8.7522    3.0068 H   0  0  0  0  0  0  0  0  0  0  0  0
    6.2871    1.1401    3.7169 C   0  0  0  0  0  0  0  0  0  0  0  0
    7.3589    0.5188    4.3478 C   0  0  0  0  0  0  0  0  0  0  0  0
    8.1382    1.0210    4.5526 H   0  0  0  0  0  0  0  0  0  0  0  0
    7.3005   -0.8301    4.6826 C   0  0  0  0  0  0  0  0  0  0  0  0
    8.0405   -1.2493    5.1067 H   0  0  0  0  0  0  0  0  0  0  0  0
    6.1593   -1.5572    4.3936 C   0  0  0  0  0  0  0  0  0  0  0  0
    6.1118   -2.4760    4.6304 H   0  0  0  0  0  0  0  0  0  0  0  0
    5.0857   -0.9510    3.7602 C   0  0  0  0  0  0  0  0  0  0  0  0
    4.3068   -1.4574    3.5623 H   0  0  0  0  0  0  0  0  0  0  0  0
    5.1426    0.3846    3.4155 C   0  0  0  0  0  0  0  0  0  0  0  0
    4.4063    0.7927    2.9743 H   0  0  0  0  0  0  0  0  0  0  0  0
    6.0698    2.7689    1.4567 C   0  0  0  0  0  0  0  0  0  0  0  0
    7.1114    2.2709    0.6800 C   0  0  0  0  0  0  0  0  0  0  0  0
    7.9442    2.0605    1.0864 H   0  0  0  0  0  0  0  0  0  0  0  0
    6.9435    2.0801   -0.6777 C   0  0  0  0  0  0  0  0  0  0  0  0
    7.6528    1.7217   -1.1975 H   0  0  0  0  0  0  0  0  0  0  0  0
    5.7429    2.4126   -1.2830 C   0  0  0  0  0  0  0  0  0  0  0  0
    5.6375    2.3091   -2.2214 H   0  0  0  0  0  0  0  0  0  0  0  0
    4.6972    2.8956   -0.5133 C   0  0  0  0  0  0  0  0  0  0  0  0
    3.8727    3.1209   -0.9267 H   0  0  0  0  0  0  0  0  0  0  0  0
    4.8474    3.0528    0.8567 C   0  0  0  0  0  0  0  0  0  0  0  0
    4.1161    3.3536    1.3839 H   0  0  0  0  0  0  0  0  0  0  0  0
   10.3614    6.8496    6.0785 C   0  0  0  0  0  0  0  0  0  0  0  0
   11.4299    7.7506    6.1997 C   0  0  0  0  0  0  0  0  0  0  0  0
   11.9380    7.9845    5.4317 H   0  0  0  0  0  0  0  0  0  0  0  0
   11.7503    8.3014    7.4303 C   0  0  0  0  0  0  0  0  0  0  0  0
   12.4903    8.8939    7.5052 H   0  0  0  0  0  0  0  0  0  0  0  0
   10.9980    7.9945    8.5500 C   0  0  0  0  0  0  0  0  0  0  0  0
   11.1921    8.4097    9.3823 H   0  0  0  0  0  0  0  0  0  0  0  0
    9.9578    7.0765    8.4548 C   0  0  0  0  0  0  0  0  0  0  0  0
    9.4488    6.8489    9.2240 H   0  0  0  0  0  0  0  0  0  0  0  0
    9.6675    6.4922    7.2264 C   0  0  0  0  0  0  0  0  0  0  0  0
    8.9826    5.8365    7.1720 H   0  0  0  0  0  0  0  0  0  0  0  0
    9.5674    8.0519    3.6935 C   0  0  0  0  0  0  0  0  0  0  0  0
    9.9448    8.3430    2.3816 C   0  0  0  0  0  0  0  0  0  0  0  0
   10.2984    7.6565    1.8278 H   0  0  0  0  0  0  0  0  0  0  0  0
    9.8078    9.6308    1.8823 C   0  0  0  0  0  0  0  0  0  0  0  0
   10.0950    9.8272    0.9983 H   0  0  0  0  0  0  0  0  0  0  0  0
    9.2567   10.6286    2.6591 C   0  0  0  0  0  0  0  0  0  0  0  0
    9.1489   11.5037    2.3053 H   0  0  0  0  0  0  0  0  0  0  0  0
    8.8599   10.3506    3.9571 C   0  0  0  0  0  0  0  0  0  0  0  0
    8.4727   11.0339    4.4918 H   0  0  0  0  0  0  0  0  0  0  0  0
    9.0285    9.0713    4.4780 C   0  0  0  0  0  0  0  0  0  0  0  0
    8.7733    8.8908    5.3753 H   0  0  0  0  0  0  0  0  0  0  0  0
   10.7850    1.9565    5.1146 C   0  0  0  0  0  0  0  0  0  0  0  0
   12.0123    1.3094    4.9471 C   0  0  0  0  0  0  0  0  0  0  0  0
   12.5292    1.4642    4.1653 H   0  0  0  0  0  0  0  0  0  0  0  0
   12.4719    0.4443    5.9215 C   0  0  0  0  0  0  0  0  0  0  0  0
   13.3126    0.0156    5.8101 H   0  0  0  0  0  0  0  0  0  0  0  0
   11.7187    0.1939    7.0630 C   0  0  0  0  0  0  0  0  0  0  0  0
   12.0392   -0.4049    7.7267 H   0  0  0  0  0  0  0  0  0  0  0  0
   10.5020    0.8242    7.2237 C   0  0  0  0  0  0  0  0  0  0  0  0
    9.9800    0.6556    7.9989 H   0  0  0  0  0  0  0  0  0  0  0  0
   10.0385    1.7077    6.2532 C   0  0  0  0  0  0  0  0  0  0  0  0
    9.2022    2.1430    6.3734 H   0  0  0  0  0  0  0  0  0  0  0  0
   10.6332    2.3800    2.2945 C   0  0  0  0  0  0  0  0  0  0  0  0
   11.3190    3.0260    1.2711 C   0  0  0  0  0  0  0  0  0  0  0  0
   11.6369    3.9112    1.4046 H   0  0  0  0  0  0  0  0  0  0  0  0
   11.5447    2.3928    0.0597 C   0  0  0  0  0  0  0  0  0  0  0  0
   12.0037    2.8524   -0.6337 H   0  0  0  0  0  0  0  0  0  0  0  0
   11.1091    1.1057   -0.1470 C   0  0  0  0  0  0  0  0  0  0  0  0
   11.2689    0.6721   -0.9766 H   0  0  0  0  0  0  0  0  0  0  0  0
   10.4378    0.4528    0.8613 C   0  0  0  0  0  0  0  0  0  0  0  0
   10.1301   -0.4346    0.7218 H   0  0  0  0  0  0  0  0  0  0  0  0
   10.2058    1.0749    2.0769 C   0  0  0  0  0  0  0  0  0  0  0  0
    9.7512    0.6063    2.7671 H   0  0  0  0  0  0  0  0  0  0  0  0
  1  2  1  0  0  0  0
  2  3  1  0  0  0  0
  3  4  2  0  0  0  0
  4  6  1  0  0  0  0
  5  8  1  0  0  0  0
  6  7  1  0  0  0  0
  8  6  1  0  0  0  0
  9  4  1  0  0  0  0
 10  9  4  0  0  0  0
 11 10  4  0  0  0  0
 12 11  1  0  0  0  0
 13 11  4  0  0  0  0
 14 13  4  0  0  0  0
 15 14  1  0  0  0  0
 16  9  4  0  0  0  0
 17 10  1  0  0  0  0
 18 17  1  0  0  0  0
 19 17  1  0  0  0  0
 20 17  1  0  0  0  0
 21 13  1  0  0  0  0
 22 21  1  0  0  0  0
 23 21  1  0  0  0  0
 24 21  1  0  0  0  0
 25 16  1  0  0  0  0
 26 25  1  0  0  0  0
 27 25  1  0  0  0  0
 28 25  1  0  0  0  0
 29  8  1  0  0  0  0
 30 29  4  0  0  0  0
 31 30  4  0  0  0  0
 32 31  1  0  0  0  0
 33 31  4  0  0  0  0
 34 33  4  0  0  0  0
 35 34  1  0  0  0  0
 36 29  4  0  0  0  0
 37 30  1  0  0  0  0
 38 37  1  0  0  0  0
 39 37  1  0  0  0  0
 40 37  1  0  0  0  0
 41 33  1  0  0  0  0
 42 41  1  0  0  0  0
 43 41  1  0  0  0  0
 44 41  1  0  0  0  0
 45 36  1  0  0  0  0
 46 45  1  0  0  0  0
 47 45  1  0  0  0  0
 48 45  1  0  0  0  0
 49  5  1  0  0  0  0
 50 49  4  0  0  0  0
 51 50  1  0  0  0  0
 52 50  4  0  0  0  0
 53 52  1  0  0  0  0
 54 52  4  0  0  0  0
 55 54  1  0  0  0  0
 56 54  4  0  0  0  0
 57 56  1  0  0  0  0
 58 49  4  0  0  0  0
 59 58  1  0  0  0  0
 60 61  1  0  0  0  0
 62 60  1  0  0  0  0
 63 60  1  0  0  0  0
 64 63  1  0  0  0  0
 65 63  1  0  0  0  0
 66  2  1  0  0  0  0
 67  2  1  0  0  0  0
 68  2  1  0  0  0  0
 69 68  1  0  0  0  0
 70 69  1  0  0  0  0
 71 69  1  0  0  0  0
 72  2  1  0  0  0  0
 73 69  1  0  0  0  0
 74 73  1  0  0  0  0
 75 73  1  0  0  0  0
 76 66  1  0  0  0  0
 77 76  4  0  0  0  0
 78 77  1  0  0  0  0
 79 77  4  0  0  0  0
 80 79  1  0  0  0  0
 81 79  4  0  0  0  0
 82 81  1  0  0  0  0
 83 81  4  0  0  0  0
 84 83  1  0  0  0  0
 85 76  4  0  0  0  0
 86 85  1  0  0  0  0
 87 66  1  0  0  0  0
 88 87  4  0  0  0  0
 89 88  1  0  0  0  0
 90 88  4  0  0  0  0
 91 90  1  0  0  0  0
 92 90  4  0  0  0  0
 93 92  1  0  0  0  0
 94 92  4  0  0  0  0
 95 94  1  0  0  0  0
 96 87  4  0  0  0  0
 97 96  1  0  0  0  0
 98 67  1  0  0  0  0
 99 98  4  0  0  0  0
100 99  1  0  0  0  0
101 99  4  0  0  0  0
102101  1  0  0  0  0
103101  4  0  0  0  0
104103  1  0  0  0  0
105103  4  0  0  0  0
106105  1  0  0  0  0
107 98  4  0  0  0  0
108107  1  0  0  0  0
109 67  1  0  0  0  0
110109  4  0  0  0  0
111110  1  0  0  0  0
112110  4  0  0  0  0
113112  1  0  0  0  0
114112  4  0  0  0  0
115114  1  0  0  0  0
116114  4  0  0  0  0
117116  1  0  0  0  0
118109  4  0  0  0  0
119118  1  0  0  0  0
120 68  1  0  0  0  0
121120  4  0  0  0  0
122121  1  0  0  0  0
123121  4  0  0  0  0
124123  1  0  0  0  0
125123  4  0  0  0  0
126125  1  0  0  0  0
127125  4  0  0  0  0
128127  1  0  0  0  0
129120  4  0  0  0  0
130129  1  0  0  0  0
131 68  1  0  0  0  0
132131  4  0  0  0  0
133132  1  0  0  0  0
134132  4  0  0  0  0
135134  1  0  0  0  0
136134  4  0  0  0  0
137136  1  0  0  0  0
138136  4  0  0  0  0
139138  1  0  0  0  0
140131  4  0  0  0  0
141140  1  0  0  0  0
142 72  1  0  0  0  0
143142  4  0  0  0  0
144143  1  0  0  0  0
145143  4  0  0  0  0
146145  1  0  0  0  0
147145  4  0  0  0  0
148147  1  0  0  0  0
149147  4  0  0  0  0
150149  1  0  0  0  0
151142  4  0  0  0  0
152151  1  0  0  0  0
153 72  1  0  0  0  0
154153  4  0  0  0  0
155154  1  0  0  0  0
156154  4  0  0  0  0
157156  1  0  0  0  0
158156  4  0  0  0  0
159158  1  0  0  0  0
160158  4  0  0  0  0
161160  1  0  0  0  0
162153  4  0  0  0  0
163162  1  0  0  0  0
 14 16  4  0  0  0  0
 34 36  4  0  0  0  0
 56 58  4  0  0  0  0
 60 66  1  0  0  0  0
 63 67  1  0  0  0  0
 72 73  1  0  0  0  0
 83 85  4  0  0  0  0
 94 96  4  0  0  0  0
105107  4  0  0  0  0
116118  4  0  0  0  0
127129  4  0  0  0  0
138140  4  0  0  0  0
149151  4  0  0  0  0
160162  4  0  0  0  0
M  CHG  1   2   1
M  END
$$$$
LIWQEO

From CSD data. Using bond type 'Any'. No disordered atoms. Largest molecule.
110122  0  0  0  0  0  0  0  0999 V2000
    4.1408    9.1789    3.8749 Ir  0  0  0  0  0  0  0  0  0  0  0  0
    3.5346    6.5575    3.3186 Ir  0  0  0  0  0  0  0  0  0  0  0  0
    5.1844   11.2673    3.8346 P   0  0  0  0  0  0  0  0  0  0  0  0
    3.6231    4.2431    2.9500 P   0  0  0  0  0  0  0  0  0  0  0  0
    4.9624    8.8772    5.7928 N   0  0  0  0  0  0  0  0  0  0  0  0
    4.7691    9.7840    6.8378 N   0  0  0  0  0  0  0  0  0  0  0  0
    2.5291   10.2890    4.9228 N   0  0  0  0  0  0  0  0  0  0  0  0
    2.7788   11.1068    5.9917 N   0  0  0  0  0  0  0  0  0  0  0  0
    1.4099    6.4551    3.0190 N   0  0  0  0  0  0  0  0  0  0  0  0
    0.8134    5.8322    1.9739 N   0  0  0  0  0  0  0  0  0  0  0  0
    3.7151    6.6296    1.2090 N   0  0  0  0  0  0  0  0  0  0  0  0
    2.7956    6.0441    0.3867 N   0  0  0  0  0  0  0  0  0  0  0  0
    2.7859    9.5494    1.2440 O   0  0  0  0  0  0  0  0  0  0  0  0
    3.0258    6.3310    6.2565 O   0  0  0  0  0  0  0  0  0  0  0  0
    6.4673    7.4056    3.1787 O   0  0  0  0  0  0  0  0  0  0  0  0
    4.2239   11.2560    6.6011 B   0  0  0  0  0  0  0  0  0  0  0  0
    1.6690    5.0324    0.8938 B   0  0  0  0  0  0  0  0  0  0  0  0
    6.8416   11.4401    3.0862 C   0  0  0  0  0  0  0  0  0  0  0  0
    7.2733   10.5082    2.1616 C   0  0  0  0  0  0  0  0  0  0  0  0
    6.7537    9.7376    1.9641 H   0  0  0  0  0  0  0  0  0  0  0  0
    8.4739   10.7277    1.5396 C   0  0  0  0  0  0  0  0  0  0  0  0
    8.7859   10.0886    0.9092 H   0  0  0  0  0  0  0  0  0  0  0  0
    9.2356   11.8255    1.7918 C   0  0  0  0  0  0  0  0  0  0  0  0
   10.0500   11.9578    1.3211 H   0  0  0  0  0  0  0  0  0  0  0  0
    8.8269   12.7429    2.7262 C   0  0  0  0  0  0  0  0  0  0  0  0
    9.3737   13.4880    2.9447 H   0  0  0  0  0  0  0  0  0  0  0  0
    7.6196   12.5662    3.3370 C   0  0  0  0  0  0  0  0  0  0  0  0
    7.3032   13.2233    3.9450 H   0  0  0  0  0  0  0  0  0  0  0  0
    4.1498   12.4319    2.8004 C   0  0  0  0  0  0  0  0  0  0  0  0
    4.3043   12.4405    1.4373 C   0  0  0  0  0  0  0  0  0  0  0  0
    4.9931   11.9372    1.0227 H   0  0  0  0  0  0  0  0  0  0  0  0
    3.4337   13.2034    0.6864 C   0  0  0  0  0  0  0  0  0  0  0  0
    3.5550   13.2529   -0.2550 H   0  0  0  0  0  0  0  0  0  0  0  0
    2.3990   13.8923    1.2608 C   0  0  0  0  0  0  0  0  0  0  0  0
    1.7844   14.3742    0.7187 H   0  0  0  0  0  0  0  0  0  0  0  0
    2.2560   13.8817    2.6085 C   0  0  0  0  0  0  0  0  0  0  0  0
    1.5628   14.3899    3.0106 H   0  0  0  0  0  0  0  0  0  0  0  0
    3.1148   13.1317    3.4112 C   0  0  0  0  0  0  0  0  0  0  0  0
    2.9965   13.1022    4.3540 H   0  0  0  0  0  0  0  0  0  0  0  0
    5.2595   11.9399    5.5168 C   0  0  0  0  0  0  0  0  0  0  0  0
    6.1830   11.8328    5.8558 H   0  0  0  0  0  0  0  0  0  0  0  0
    5.0701   12.9110    5.4734 H   0  0  0  0  0  0  0  0  0  0  0  0
    5.6573    7.8703    6.3265 C   0  0  0  0  0  0  0  0  0  0  0  0
    5.9479    7.1067    5.8418 H   0  0  0  0  0  0  0  0  0  0  0  0
    5.8993    8.0726    7.6588 C   0  0  0  0  0  0  0  0  0  0  0  0
    6.3624    7.4976    8.2556 H   0  0  0  0  0  0  0  0  0  0  0  0
    5.3316    9.2772    7.9432 C   0  0  0  0  0  0  0  0  0  0  0  0
    5.3333    9.6945    8.7963 H   0  0  0  0  0  0  0  0  0  0  0  0
    1.2567   10.4394    4.5964 C   0  0  0  0  0  0  0  0  0  0  0  0
    0.8225    9.9900    3.8805 H   0  0  0  0  0  0  0  0  0  0  0  0
    0.6435   11.3529    5.4523 C   0  0  0  0  0  0  0  0  0  0  0  0
   -0.2648   11.6299    5.4467 H   0  0  0  0  0  0  0  0  0  0  0  0
    1.6273   11.7585    6.2957 C   0  0  0  0  0  0  0  0  0  0  0  0
    1.5246   12.4002    6.9905 H   0  0  0  0  0  0  0  0  0  0  0  0
    4.1692   12.0929    7.9796 C   0  0  0  0  0  0  0  0  0  0  0  0
    3.6035   12.8934    7.8353 H   0  0  0  0  0  0  0  0  0  0  0  0
    3.7233   11.5348    8.6646 H   0  0  0  0  0  0  0  0  0  0  0  0
    5.4955   12.5414    8.5217 C   0  0  0  0  0  0  0  0  0  0  0  0
    6.0120   13.1060    7.9572 H   0  0  0  0  0  0  0  0  0  0  0  0
    6.0076   12.2550    9.6467 C   0  0  0  0  0  0  0  0  0  0  0  0
    5.5374   11.6944   10.2533 H   0  0  0  0  0  0  0  0  0  0  0  0
    6.8608   12.6003    9.8820 H   0  0  0  0  0  0  0  0  0  0  0  0
    3.2999    9.3592    2.2302 C   0  0  0  0  0  0  0  0  0  0  0  0
    5.2329    3.5168    2.4306 C   0  0  0  0  0  0  0  0  0  0  0  0
    6.3481    4.2778    2.3661 C   0  0  0  0  0  0  0  0  0  0  0  0
    6.3204    5.1964    2.6071 H   0  0  0  0  0  0  0  0  0  0  0  0
    7.5430    3.6946    1.9403 C   0  0  0  0  0  0  0  0  0  0  0  0
    8.3249    4.2289    1.8632 H   0  0  0  0  0  0  0  0  0  0  0  0
    7.6009    2.3785    1.6363 C   0  0  0  0  0  0  0  0  0  0  0  0
    8.4295    1.9933    1.3785 H   0  0  0  0  0  0  0  0  0  0  0  0
    6.4900    1.5989    1.6937 C   0  0  0  0  0  0  0  0  0  0  0  0
    6.5316    0.6782    1.4654 H   0  0  0  0  0  0  0  0  0  0  0  0
    5.3083    2.1691    2.0874 C   0  0  0  0  0  0  0  0  0  0  0  0
    4.5240    1.6356    2.1266 H   0  0  0  0  0  0  0  0  0  0  0  0
    3.1513    3.2605    4.3834 C   0  0  0  0  0  0  0  0  0  0  0  0
    4.1053    2.7860    5.2786 C   0  0  0  0  0  0  0  0  0  0  0  0
    5.0253    2.9450    5.1049 H   0  0  0  0  0  0  0  0  0  0  0  0
    3.7381    2.0826    6.4274 C   0  0  0  0  0  0  0  0  0  0  0  0
    4.4053    1.7584    7.0214 H   0  0  0  0  0  0  0  0  0  0  0  0
    2.3934    1.8593    6.6977 C   0  0  0  0  0  0  0  0  0  0  0  0
    2.1350    1.3761    7.4739 H   0  0  0  0  0  0  0  0  0  0  0  0
    1.4631    2.3302    5.8572 C   0  0  0  0  0  0  0  0  0  0  0  0
    0.5466    2.1719    6.0463 H   0  0  0  0  0  0  0  0  0  0  0  0
    1.8003    3.0397    4.7267 C   0  0  0  0  0  0  0  0  0  0  0  0
    1.1125    3.3859    4.1691 H   0  0  0  0  0  0  0  0  0  0  0  0
    2.4334    3.8057    1.6377 C   0  0  0  0  0  0  0  0  0  0  0  0
    2.9154    3.2825    0.9484 H   0  0  0  0  0  0  0  0  0  0  0  0
    1.7472    3.2099    2.0313 H   0  0  0  0  0  0  0  0  0  0  0  0
    0.4132    6.9132    3.8007 C   0  0  0  0  0  0  0  0  0  0  0  0
    0.5405    7.3968    4.6090 H   0  0  0  0  0  0  0  0  0  0  0  0
   -0.8160    6.5839    3.2711 C   0  0  0  0  0  0  0  0  0  0  0  0
   -1.6739    6.7772    3.6298 H   0  0  0  0  0  0  0  0  0  0  0  0
   -0.5250    5.9104    2.1000 C   0  0  0  0  0  0  0  0  0  0  0  0
   -1.1614    5.5600    1.4878 H   0  0  0  0  0  0  0  0  0  0  0  0
    4.6748    7.1184    0.4105 C   0  0  0  0  0  0  0  0  0  0  0  0
    5.4424    7.5813    0.7285 H   0  0  0  0  0  0  0  0  0  0  0  0
    4.4278    6.8781   -0.8980 C   0  0  0  0  0  0  0  0  0  0  0  0
    4.9605    7.1096   -1.6503 H   0  0  0  0  0  0  0  0  0  0  0  0
    3.2136    6.2144   -0.8770 C   0  0  0  0  0  0  0  0  0  0  0  0
    2.7443    5.9202   -1.6475 H   0  0  0  0  0  0  0  0  0  0  0  0
    0.7034    4.5740   -0.2914 C   0  0  0  0  0  0  0  0  0  0  0  0
   -0.1205    4.2103    0.1177 H   0  0  0  0  0  0  0  0  0  0  0  0
    0.4437    5.3858   -0.7957 H   0  0  0  0  0  0  0  0  0  0  0  0
    1.1928    3.5898   -1.2580 C   0  0  0  0  0  0  0  0  0  0  0  0
    1.9963    3.7958   -1.7217 H   0  0  0  0  0  0  0  0  0  0  0  0
    0.6218    2.4597   -1.5312 C   0  0  0  0  0  0  0  0  0  0  0  0
   -0.1836    2.2152   -1.0899 H   0  0  0  0  0  0  0  0  0  0  0  0
    1.0069    1.8764   -2.1742 H   0  0  0  0  0  0  0  0  0  0  0  0
    3.2924    6.4485    5.1161 C   0  0  0  0  0  0  0  0  0  0  0  0
    5.2793    7.5905    3.3510 C   0  0  0  0  0  0  0  0  0  0  0  0
  1  2  1  0  0  0  0
  2  4  1  0  0  0  0
  3  1  1  0  0  0  0
  4 64  1  0  0  0  0
  5  1  1  0  0  0  0
  6  5  4  0  0  0  0
  7  1  1  0  0  0  0
  8  7  4  0  0  0  0
  9  2  1  0  0  0  0
 10  9  4  0  0  0  0
 11  2  1  0  0  0  0
 12 11  4  0  0  0  0
 13 63  3  0  0  0  0
 14109  3  0  0  0  0
 15110  2  0  0  0  0
 16  6  1  0  0  0  0
 17 10  1  0  0  0  0
 18  3  1  0  0  0  0
 19 18  4  0  0  0  0
 20 19  1  0  0  0  0
 21 19  4  0  0  0  0
 22 21  1  0  0  0  0
 23 21  4  0  0  0  0
 24 23  1  0  0  0  0
 25 23  4  0  0  0  0
 26 25  1  0  0  0  0
 27 18  4  0  0  0  0
 28 27  1  0  0  0  0
 29  3  1  0  0  0  0
 30 29  4  0  0  0  0
 31 30  1  0  0  0  0
 32 30  4  0  0  0  0
 33 32  1  0  0  0  0
 34 32  4  0  0  0  0
 35 34  1  0  0  0  0
 36 34  4  0  0  0  0
 37 36  1  0  0  0  0
 38 29  4  0  0  0  0
 39 38  1  0  0  0  0
 40  3  1  0  0  0  0
 41 40  1  0  0  0  0
 42 40  1  0  0  0  0
 43  5  4  0  0  0  0
 44 43  1  0  0  0  0
 45 43  4  0  0  0  0
 46 45  1  0  0  0  0
 47  6  4  0  0  0  0
 48 47  1  0  0  0  0
 49  7  4  0  0  0  0
 50 49  1  0  0  0  0
 51 49  4  0  0  0  0
 52 51  1  0  0  0  0
 53  8  4  0  0  0  0
 54 53  1  0  0  0  0
 55 16  1  0  0  0  0
 56 55  1  0  0  0  0
 57 55  1  0  0  0  0
 58 55  1  0  0  0  0
 59 58  1  0  0  0  0
 60 58  2  0  0  0  0
 61 60  1  0  0  0  0
 62 60  1  0  0  0  0
 63  1  1  0  0  0  0
 64 65  4  0  0  0  0
 65 66  1  0  0  0  0
 67 65  4  0  0  0  0
 68 67  1  0  0  0  0
 69 67  4  0  0  0  0
 70 69  1  0  0  0  0
 71 69  4  0  0  0  0
 72 71  1  0  0  0  0
 73 64  4  0  0  0  0
 74 73  1  0  0  0  0
 75  4  1  0  0  0  0
 76 75  4  0  0  0  0
 77 76  1  0  0  0  0
 78 76  4  0  0  0  0
 79 78  1  0  0  0  0
 80 78  4  0  0  0  0
 81 80  1  0  0  0  0
 82 80  4  0  0  0  0
 83 82  1  0  0  0  0
 84 75  4  0  0  0  0
 85 84  1  0  0  0  0
 86  4  1  0  0  0  0
 87 86  1  0  0  0  0
 88 86  1  0  0  0  0
 89  9  4  0  0  0  0
 90 89  1  0  0  0  0
 91 89  4  0  0  0  0
 92 91  1  0  0  0  0
 93 10  4  0  0  0  0
 94 93  1  0  0  0  0
 95 11  4  0  0  0  0
 96 95  1  0  0  0  0
 97 95  4  0  0  0  0
 98 97  1  0  0  0  0
 99 12  4  0  0  0  0
100 99  1  0  0  0  0
101 17  1  0  0  0  0
102101  1  0  0  0  0
103101  1  0  0  0  0
104101  1  0  0  0  0
105104  1  0  0  0  0
106104  2  0  0  0  0
107106  1  0  0  0  0
108106  1  0  0  0  0
109  2  1  0  0  0  0
110  1  1  0  0  0  0
  2110  1  0  0  0  0
  8 16  1  0  0  0  0
 12 17  1  0  0  0  0
 16 40  1  0  0  0  0
 17 86  1  0  0  0  0
 25 27  4  0  0  0  0
 36 38  4  0  0  0  0
 45 47  4  0  0  0  0
 51 53  4  0  0  0  0
 71 73  4  0  0  0  0
 82 84  4  0  0  0  0
 91 93  4  0  0  0  0
 97 99  4  0  0  0  0
M  END
$$$$
LIXJOS

From CSD data. Using bond type 'Any'. No disordered atoms. Largest molecule.
 94116  0  0  0  0  0  0  0  0999 V2000
    4.3819    4.5976    5.0389 Ir  0  0  0  0  0  0  0  0  0  0  0  0
    3.0073    6.4173    3.2545 Re  0  0  0  0  0  0  0  0  0  0  0  0
    5.9514    3.7485    6.5398 P   0  0  0  0  0  0  0  0  0  0  0  0
    5.3797    5.8076    3.3373 P   0  0  0  0  0  0  0  0  0  0  0  0
    2.1478    3.0710    6.4756 O   0  0  0  0  0  0  0  0  0  0  0  0
    1.2353    4.4389    1.9137 O   0  0  0  0  0  0  0  0  0  0  0  0
    3.8728    7.8489    0.6118 O   0  0  0  0  0  0  0  0  0  0  0  0
    2.0426    5.1824    2.3765 N   0  0  0  0  0  0  0  0  0  0  0  0
    0.8518    8.8831    4.2188 C   0  0  0  0  0  0  0  0  0  0  0  0
    2.9558    3.6750    5.9628 C   0  0  0  0  0  0  0  0  0  0  0  0
    4.4991    2.8823    3.8042 C   0  0  0  0  0  0  0  0  0  0  0  0
    3.3128    2.3481    3.2789 C   0  0  0  0  0  0  0  0  0  0  0  0
    2.4778    2.7346    3.5148 H   0  0  0  0  0  0  0  0  0  0  0  0
    3.3484    1.2515    2.4123 C   0  0  0  0  0  0  0  0  0  0  0  0
    2.5351    0.9210    2.0477 H   0  0  0  0  0  0  0  0  0  0  0  0
    4.5256    0.6437    2.0781 C   0  0  0  0  0  0  0  0  0  0  0  0
    4.5318   -0.1063    1.4956 H   0  0  0  0  0  0  0  0  0  0  0  0
    5.7075    1.1357    2.5999 C   0  0  0  0  0  0  0  0  0  0  0  0
    6.5309    0.7124    2.3873 H   0  0  0  0  0  0  0  0  0  0  0  0
    5.6971    2.2581    3.4433 C   0  0  0  0  0  0  0  0  0  0  0  0
    6.5194    2.5992    3.7756 H   0  0  0  0  0  0  0  0  0  0  0  0
    6.4836    7.2225    3.6524 C   0  0  0  0  0  0  0  0  0  0  0  0
    6.9268    7.4973    4.9407 C   0  0  0  0  0  0  0  0  0  0  0  0
    6.6837    6.9297    5.6626 H   0  0  0  0  0  0  0  0  0  0  0  0
    7.7392    8.6298    5.1694 C   0  0  0  0  0  0  0  0  0  0  0  0
    8.0715    8.8019    6.0432 H   0  0  0  0  0  0  0  0  0  0  0  0
    8.0605    9.4923    4.1312 C   0  0  0  0  0  0  0  0  0  0  0  0
    8.5855   10.2671    4.2956 H   0  0  0  0  0  0  0  0  0  0  0  0
    7.6015    9.2115    2.8411 C   0  0  0  0  0  0  0  0  0  0  0  0
    7.8175    9.7963    2.1246 H   0  0  0  0  0  0  0  0  0  0  0  0
    6.8361    8.0838    2.6035 C   0  0  0  0  0  0  0  0  0  0  0  0
    6.5451    7.8911    1.7208 H   0  0  0  0  0  0  0  0  0  0  0  0
    6.1360    4.9731    1.9066 C   0  0  0  0  0  0  0  0  0  0  0  0
    5.3403    4.3016    0.9864 C   0  0  0  0  0  0  0  0  0  0  0  0
    4.3939    4.3440    1.0560 H   0  0  0  0  0  0  0  0  0  0  0  0
    5.9324    3.5616   -0.0429 C   0  0  0  0  0  0  0  0  0  0  0  0
    5.3872    3.1021   -0.6701 H   0  0  0  0  0  0  0  0  0  0  0  0
    7.3049    3.4966   -0.1483 C   0  0  0  0  0  0  0  0  0  0  0  0
    7.7015    2.9907   -0.8470 H   0  0  0  0  0  0  0  0  0  0  0  0
    8.1076    4.1674    0.7594 C   0  0  0  0  0  0  0  0  0  0  0  0
    9.0544    4.1171    0.6826 H   0  0  0  0  0  0  0  0  0  0  0  0
    7.5364    4.9106    1.7815 C   0  0  0  0  0  0  0  0  0  0  0  0
    8.0890    5.3755    2.3980 H   0  0  0  0  0  0  0  0  0  0  0  0
    7.6206    3.2907    5.9503 C   0  0  0  0  0  0  0  0  0  0  0  0
    8.3455    4.1811    5.1497 C   0  0  0  0  0  0  0  0  0  0  0  0
    7.9750    5.0276    4.9318 H   0  0  0  0  0  0  0  0  0  0  0  0
    9.6056    3.8331    4.6691 C   0  0  0  0  0  0  0  0  0  0  0  0
   10.0880    4.4411    4.1205 H   0  0  0  0  0  0  0  0  0  0  0  0
   10.1574    2.6092    4.9854 C   0  0  0  0  0  0  0  0  0  0  0  0
   11.0212    2.3807    4.6619 H   0  0  0  0  0  0  0  0  0  0  0  0
    9.4557    1.7137    5.7734 C   0  0  0  0  0  0  0  0  0  0  0  0
    9.8350    0.8664    5.9753 H   0  0  0  0  0  0  0  0  0  0  0  0
    8.1911    2.0475    6.2755 C   0  0  0  0  0  0  0  0  0  0  0  0
    7.7214    1.4368    6.8330 H   0  0  0  0  0  0  0  0  0  0  0  0
    5.3963    2.2594    7.4620 C   0  0  0  0  0  0  0  0  0  0  0  0
    4.8139    1.1910    6.7686 C   0  0  0  0  0  0  0  0  0  0  0  0
    4.6738    1.2532    5.8305 H   0  0  0  0  0  0  0  0  0  0  0  0
    4.4423    0.0398    7.4548 C   0  0  0  0  0  0  0  0  0  0  0  0
    4.0442   -0.6839    6.9849 H   0  0  0  0  0  0  0  0  0  0  0  0
    4.6538   -0.0542    8.8271 C   0  0  0  0  0  0  0  0  0  0  0  0
    4.4034   -0.8433    9.2917 H   0  0  0  0  0  0  0  0  0  0  0  0
    5.2266    1.0003    9.5151 C   0  0  0  0  0  0  0  0  0  0  0  0
    5.3620    0.9338   10.4532 H   0  0  0  0  0  0  0  0  0  0  0  0
    5.6052    2.1556    8.8414 C   0  0  0  0  0  0  0  0  0  0  0  0
    6.0054    2.8738    9.3185 H   0  0  0  0  0  0  0  0  0  0  0  0
    6.2396    4.9938    7.8515 C   0  0  0  0  0  0  0  0  0  0  0  0
    5.1290    5.4808    8.5537 C   0  0  0  0  0  0  0  0  0  0  0  0
    4.2623    5.1393    8.3679 H   0  0  0  0  0  0  0  0  0  0  0  0
    5.2943    6.4584    9.5222 C   0  0  0  0  0  0  0  0  0  0  0  0
    4.5400    6.7775   10.0029 H   0  0  0  0  0  0  0  0  0  0  0  0
    6.5513    6.9728    9.7938 C   0  0  0  0  0  0  0  0  0  0  0  0
    6.6573    7.6539   10.4478 H   0  0  0  0  0  0  0  0  0  0  0  0
    7.6532    6.4882    9.1094 C   0  0  0  0  0  0  0  0  0  0  0  0
    8.5190    6.8337    9.2971 H   0  0  0  0  0  0  0  0  0  0  0  0
    7.4957    5.4996    8.1481 C   0  0  0  0  0  0  0  0  0  0  0  0
    8.2580    5.1647    7.6907 H   0  0  0  0  0  0  0  0  0  0  0  0
    3.5433    7.3383    1.5742 C   0  0  0  0  0  0  0  0  0  0  0  0
    0.8564    7.3403    3.8114 B   0  0  0  0  0  0  0  0  0  0  0  0
    0.0569    6.8923    3.1681 H   0  0  0  0  0  0  0  0  0  0  0  0
    2.2785    8.6696    3.4951 B   0  0  0  0  0  0  0  0  0  0  0  0
    2.5925    9.2628    2.5981 H   0  0  0  0  0  0  0  0  0  0  0  0
    2.0477    9.2159    5.2266 B   0  0  0  0  0  0  0  0  0  0  0  0
    2.1816   10.2326    5.6769 H   0  0  0  0  0  0  0  0  0  0  0  0
    0.7287    7.9650    5.5178 B   0  0  0  0  0  0  0  0  0  0  0  0
   -0.1616    7.9923    6.1969 H   0  0  0  0  0  0  0  0  0  0  0  0
    3.4982    8.2403    4.7799 B   0  0  0  0  0  0  0  0  0  0  0  0
    4.5005    8.7408    4.7745 H   0  0  0  0  0  0  0  0  0  0  0  0
    2.4005    7.7438    6.1897 B   0  0  0  0  0  0  0  0  0  0  0  0
    2.5689    7.8157    7.2958 H   0  0  0  0  0  0  0  0  0  0  0  0
    1.5825    6.4144    5.1891 B   0  0  0  0  0  0  0  0  0  0  0  0
    1.0868    5.4615    5.5071 H   0  0  0  0  0  0  0  0  0  0  0  0
    3.3351    6.6201    5.3731 B   0  0  0  0  0  0  0  0  0  0  0  0
    0.2520    9.3825    3.8596 H   0  0  0  0  0  0  0  0  0  0  0  0
    4.2601    6.0160    5.9681 H   0  0  0  0  0  0  0  0  0  0  0  0
  1  2  1  0  0  0  0
  2  4  1  0  0  0  0
  3  1  1  0  0  0  0
  4  1  1  0  0  0  0
  5 10  3  0  0  0  0
  6  8  2  0  0  0  0
  7 77  3  0  0  0  0
  8  2  1  0  0  0  0
  9 78  1  0  0  0  0
 10  1  1  0  0  0  0
 11  1  1  0  0  0  0
 12 11  4  0  0  0  0
 13 12  1  0  0  0  0
 14 12  4  0  0  0  0
 15 14  1  0  0  0  0
 16 14  4  0  0  0  0
 17 16  1  0  0  0  0
 18 16  4  0  0  0  0
 19 18  1  0  0  0  0
 20 11  4  0  0  0  0
 21 20  1  0  0  0  0
 22  4  1  0  0  0  0
 23 22  4  0  0  0  0
 24 23  1  0  0  0  0
 25 23  4  0  0  0  0
 26 25  1  0  0  0  0
 27 25  4  0  0  0  0
 28 27  1  0  0  0  0
 29 27  4  0  0  0  0
 30 29  1  0  0  0  0
 31 22  4  0  0  0  0
 32 31  1  0  0  0  0
 33  4  1  0  0  0  0
 34 33  4  0  0  0  0
 35 34  1  0  0  0  0
 36 34  4  0  0  0  0
 37 36  1  0  0  0  0
 38 36  4  0  0  0  0
 39 38  1  0  0  0  0
 40 38  4  0  0  0  0
 41 40  1  0  0  0  0
 42 33  4  0  0  0  0
 43 42  1  0  0  0  0
 44  3  1  0  0  0  0
 45 44  4  0  0  0  0
 46 45  1  0  0  0  0
 47 45  4  0  0  0  0
 48 47  1  0  0  0  0
 49 47  4  0  0  0  0
 50 49  1  0  0  0  0
 51 49  4  0  0  0  0
 52 51  1  0  0  0  0
 53 44  4  0  0  0  0
 54 53  1  0  0  0  0
 55  3  1  0  0  0  0
 56 55  4  0  0  0  0
 57 56  1  0  0  0  0
 58 56  4  0  0  0  0
 59 58  1  0  0  0  0
 60 58  4  0  0  0  0
 61 60  1  0  0  0  0
 62 60  4  0  0  0  0
 63 62  1  0  0  0  0
 64 55  4  0  0  0  0
 65 64  1  0  0  0  0
 66  3  1  0  0  0  0
 67 66  4  0  0  0  0
 68 67  1  0  0  0  0
 69 67  4  0  0  0  0
 70 69  1  0  0  0  0
 71 69  4  0  0  0  0
 72 71  1  0  0  0  0
 73 71  4  0  0  0  0
 74 73  1  0  0  0  0
 75 66  4  0  0  0  0
 76 75  1  0  0  0  0
 77  2  1  0  0  0  0
 78  2  1  0  0  0  0
 79 78  1  0  0  0  0
 80  2  1  0  0  0  0
 81 80  1  0  0  0  0
 82  9  1  0  0  0  0
 83 82  1  0  0  0  0
 84  9  1  0  0  0  0
 85 84  1  0  0  0  0
 86  2  1  0  0  0  0
 87 86  1  0  0  0  0
 88 82  1  0  0  0  0
 89 88  1  0  0  0  0
 90  2  1  0  0  0  0
 91 90  1  0  0  0  0
 92  2  1  0  0  0  0
 93  9  1  0  0  0  0
 94  1  1  0  0  0  0
  9 80  1  0  0  0  0
 18 20  4  0  0  0  0
 29 31  4  0  0  0  0
 40 42  4  0  0  0  0
 51 53  4  0  0  0  0
 62 64  4  0  0  0  0
 73 75  4  0  0  0  0
 78 80  1  0  0  0  0
 78 84  1  0  0  0  0
 78 90  1  0  0  0  0
 80 82  1  0  0  0  0
 80 86  1  0  0  0  0
 82 84  1  0  0  0  0
 82 86  1  0  0  0  0
 84 88  1  0  0  0  0
 84 90  1  0  0  0  0
 86 88  1  0  0  0  0
 86 92  1  0  0  0  0
 88 90  1  0  0  0  0
 88 92  1  0  0  0  0
 90 92  1  0  0  0  0
 92 94  1  0  0  0  0
M  END
$$$$
LIXJUY

From CSD data. Using bond type 'Any'. No disordered atoms. Largest molecule.
 92115  0  0  0  0  0  0  0  0999 V2000
    9.5040    6.9769    3.9973 Ir  0  0  0  0  0  0  0  0  0  0  0  0
    8.8106    4.3465    4.8414 Re  0  0  0  0  0  0  0  0  0  0  0  0
   10.9684    5.3535    4.4220 P   0  0  0  0  0  0  0  0  0  0  0  0
   10.5792    8.9210    3.5473 P   0  0  0  0  0  0  0  0  0  0  0  0
    7.3894    6.0881    4.5925 B   0  0  0  0  0  0  0  0  0  0  0  0
    9.7885   10.4231    4.2564 C   0  0  0  0  0  0  0  0  0  0  0  0
    7.1408    6.9457    3.2864 C   0  0  0  0  0  0  0  0  0  0  0  0
   10.8020    9.3560    1.7882 C   0  0  0  0  0  0  0  0  0  0  0  0
   12.0728    5.4091    5.8703 C   0  0  0  0  0  0  0  0  0  0  0  0
    8.1876    2.7811    2.3847 O   0  0  0  0  0  0  0  0  0  0  0  0
   12.2718    9.0278    4.2048 C   0  0  0  0  0  0  0  0  0  0  0  0
   11.4318    4.3830    1.8584 C   0  0  0  0  0  0  0  0  0  0  0  0
   10.4839    4.3468    1.7915 H   0  0  0  0  0  0  0  0  0  0  0  0
    9.8560    8.9551    0.8467 C   0  0  0  0  0  0  0  0  0  0  0  0
    9.1400    8.3900    1.1115 H   0  0  0  0  0  0  0  0  0  0  0  0
    8.9753   10.3422    5.3891 C   0  0  0  0  0  0  0  0  0  0  0  0
    8.7926    9.4959    5.7813 H   0  0  0  0  0  0  0  0  0  0  0  0
   12.0263    4.7927    3.0527 C   0  0  0  0  0  0  0  0  0  0  0  0
    6.9724    8.3480    3.3236 C   0  0  0  0  0  0  0  0  0  0  0  0
    7.1107    8.8105    4.1429 H   0  0  0  0  0  0  0  0  0  0  0  0
    8.4598    6.4367    6.0036 B   0  0  0  0  0  0  0  0  0  0  0  0
   11.8676   10.1668    1.3730 C   0  0  0  0  0  0  0  0  0  0  0  0
   12.5256   10.4417    2.0007 H   0  0  0  0  0  0  0  0  0  0  0  0
    7.3287    3.8325    6.6178 B   0  0  0  0  0  0  0  0  0  0  0  0
    7.1415    2.7297    6.6590 H   0  0  0  0  0  0  0  0  0  0  0  0
   12.5817    9.8364    5.2967 C   0  0  0  0  0  0  0  0  0  0  0  0
   11.9044   10.3726    5.6908 H   0  0  0  0  0  0  0  0  0  0  0  0
   12.1707    6.5447    6.6648 C   0  0  0  0  0  0  0  0  0  0  0  0
   11.7276    7.3450    6.4087 H   0  0  0  0  0  0  0  0  0  0  0  0
    6.9282    6.3195    2.0255 C   0  0  0  0  0  0  0  0  0  0  0  0
    7.0638    5.3825    1.9480 H   0  0  0  0  0  0  0  0  0  0  0  0
    8.4291   11.5012    5.9470 C   0  0  0  0  0  0  0  0  0  0  0  0
    7.8635   11.4389    6.7084 H   0  0  0  0  0  0  0  0  0  0  0  0
    8.7083   12.7406    5.3926 C   0  0  0  0  0  0  0  0  0  0  0  0
    8.3358   13.5279    5.7731 H   0  0  0  0  0  0  0  0  0  0  0  0
   10.1159    2.0138    6.4500 O   0  0  0  0  0  0  0  0  0  0  0  0
   12.9234    6.5067    7.8454 C   0  0  0  0  0  0  0  0  0  0  0  0
   13.0074    7.2875    8.3797 H   0  0  0  0  0  0  0  0  0  0  0  0
    6.6080    9.0734    2.1834 C   0  0  0  0  0  0  0  0  0  0  0  0
    6.5245   10.0189    2.2295 H   0  0  0  0  0  0  0  0  0  0  0  0
   13.4266    4.8413    3.1342 C   0  0  0  0  0  0  0  0  0  0  0  0
   13.8454    5.1113    3.9437 H   0  0  0  0  0  0  0  0  0  0  0  0
    9.9514    9.3731   -0.4721 C   0  0  0  0  0  0  0  0  0  0  0  0
    9.2928    9.1075   -1.1032 H   0  0  0  0  0  0  0  0  0  0  0  0
   12.7312    4.2313    6.2617 C   0  0  0  0  0  0  0  0  0  0  0  0
   12.6735    3.4547    5.7188 H   0  0  0  0  0  0  0  0  0  0  0  0
    7.6156    6.3346    7.5630 B   0  0  0  0  0  0  0  0  0  0  0  0
    7.6608    7.1506    8.3287 H   0  0  0  0  0  0  0  0  0  0  0  0
    9.5323   12.8264    4.2796 C   0  0  0  0  0  0  0  0  0  0  0  0
    9.7307   13.6766    3.9042 H   0  0  0  0  0  0  0  0  0  0  0  0
   11.9667   10.5718    0.0484 C   0  0  0  0  0  0  0  0  0  0  0  0
   12.6940   11.1182   -0.2256 H   0  0  0  0  0  0  0  0  0  0  0  0
   13.4652    4.1988    7.4382 C   0  0  0  0  0  0  0  0  0  0  0  0
   13.9122    3.4019    7.6980 H   0  0  0  0  0  0  0  0  0  0  0  0
   10.0700   11.6809    3.7138 C   0  0  0  0  0  0  0  0  0  0  0  0
   10.6340   11.7511    2.9524 H   0  0  0  0  0  0  0  0  0  0  0  0
   13.2843    8.2330    3.6358 C   0  0  0  0  0  0  0  0  0  0  0  0
   13.0853    7.6659    2.9014 H   0  0  0  0  0  0  0  0  0  0  0  0
   13.5467    5.3283    8.2348 C   0  0  0  0  0  0  0  0  0  0  0  0
   14.0314    5.2976    9.0516 H   0  0  0  0  0  0  0  0  0  0  0  0
    6.3697    8.4181    0.9913 C   0  0  0  0  0  0  0  0  0  0  0  0
    6.0962    8.9080    0.2256 H   0  0  0  0  0  0  0  0  0  0  0  0
    7.5897    4.7622    7.9290 C   0  0  0  0  0  0  0  0  0  0  0  0
    7.6673    4.3028    8.9478 H   0  0  0  0  0  0  0  0  0  0  0  0
    6.6484    6.5346    6.0646 B   0  0  0  0  0  0  0  0  0  0  0  0
    5.9580    7.4131    5.9872 H   0  0  0  0  0  0  0  0  0  0  0  0
    8.9068    5.1500    7.1151 B   0  0  0  0  0  0  0  0  0  0  0  0
    9.9414    5.0751    7.5366 H   0  0  0  0  0  0  0  0  0  0  0  0
    6.5309    7.0309    0.9139 C   0  0  0  0  0  0  0  0  0  0  0  0
    6.3668    6.5784    0.0939 H   0  0  0  0  0  0  0  0  0  0  0  0
    6.4774    4.8244    5.3878 B   0  0  0  0  0  0  0  0  0  0  0  0
    5.6478    4.3476    4.8049 H   0  0  0  0  0  0  0  0  0  0  0  0
   13.8704    9.8645    5.8143 C   0  0  0  0  0  0  0  0  0  0  0  0
   14.0690   10.4087    6.5668 H   0  0  0  0  0  0  0  0  0  0  0  0
    6.2480    5.1914    7.1579 B   0  0  0  0  0  0  0  0  0  0  0  0
    5.2343    5.1252    7.6305 H   0  0  0  0  0  0  0  0  0  0  0  0
   14.2030    4.4954    2.0303 C   0  0  0  0  0  0  0  0  0  0  0  0
   15.1506    4.5380    2.0846 H   0  0  0  0  0  0  0  0  0  0  0  0
   13.5925    4.0871    0.8480 C   0  0  0  0  0  0  0  0  0  0  0  0
   14.1239    3.8496    0.0972 H   0  0  0  0  0  0  0  0  0  0  0  0
   12.2114    4.0260    0.7667 C   0  0  0  0  0  0  0  0  0  0  0  0
   11.7973    3.7400   -0.0395 H   0  0  0  0  0  0  0  0  0  0  0  0
   14.8659    9.0946    5.2264 C   0  0  0  0  0  0  0  0  0  0  0  0
   15.7514    9.1284    5.5689 H   0  0  0  0  0  0  0  0  0  0  0  0
   14.5778    8.2771    4.1462 C   0  0  0  0  0  0  0  0  0  0  0  0
   15.2621    7.7472    3.7543 H   0  0  0  0  0  0  0  0  0  0  0  0
   11.0134   10.1851   -0.8727 C   0  0  0  0  0  0  0  0  0  0  0  0
   11.0807   10.4706   -1.7767 H   0  0  0  0  0  0  0  0  0  0  0  0
    8.4838    3.4073    3.3471 N   0  0  0  0  0  0  0  0  0  0  0  0
    9.6454    2.8774    5.8576 C   0  0  0  0  0  0  0  0  0  0  0  0
    9.8280    6.6679    2.7499 H   0  0  0  0  0  0  0  0  0  0  0  0
    9.2215    7.2527    5.8291 H   0  0  0  0  0  0  0  0  0  0  0  0
  1  2  1  0  0  0  0
  2  3  1  0  0  0  0
  3  1  1  0  0  0  0
  4  1  1  0  0  0  0
  5  1  1  0  0  0  0
  6  4  1  0  0  0  0
  7  5  1  0  0  0  0
  8  4  1  0  0  0  0
  9  3  1  0  0  0  0
 10 89  2  0  0  0  0
 11  4  1  0  0  0  0
 12 13  1  0  0  0  0
 14  8  4  0  0  0  0
 15 14  1  0  0  0  0
 16  6  4  0  0  0  0
 17 16  1  0  0  0  0
 18  3  1  0  0  0  0
 19  7  4  0  0  0  0
 20 19  1  0  0  0  0
 21  2  1  0  0  0  0
 22  8  4  0  0  0  0
 23 22  1  0  0  0  0
 24  2  1  0  0  0  0
 25 24  1  0  0  0  0
 26 11  4  0  0  0  0
 27 26  1  0  0  0  0
 28  9  4  0  0  0  0
 29 28  1  0  0  0  0
 30  7  4  0  0  0  0
 31 30  1  0  0  0  0
 32 16  4  0  0  0  0
 33 32  1  0  0  0  0
 34 32  4  0  0  0  0
 35 34  1  0  0  0  0
 36 90  3  0  0  0  0
 37 28  4  0  0  0  0
 38 37  1  0  0  0  0
 39 19  4  0  0  0  0
 40 39  1  0  0  0  0
 41 18  4  0  0  0  0
 42 41  1  0  0  0  0
 43 14  4  0  0  0  0
 44 43  1  0  0  0  0
 45  9  4  0  0  0  0
 46 45  1  0  0  0  0
 47 21  1  0  0  0  0
 48 47  1  0  0  0  0
 49 34  4  0  0  0  0
 50 49  1  0  0  0  0
 51 22  4  0  0  0  0
 52 51  1  0  0  0  0
 53 45  4  0  0  0  0
 54 53  1  0  0  0  0
 55  6  4  0  0  0  0
 56 55  1  0  0  0  0
 57 11  4  0  0  0  0
 58 57  1  0  0  0  0
 59 37  4  0  0  0  0
 60 59  1  0  0  0  0
 61 39  4  0  0  0  0
 62 61  1  0  0  0  0
 63 24  1  0  0  0  0
 64 63  1  0  0  0  0
 65  5  1  0  0  0  0
 66 65  1  0  0  0  0
 67  2  1  0  0  0  0
 68 67  1  0  0  0  0
 69 30  4  0  0  0  0
 70 69  1  0  0  0  0
 71  2  1  0  0  0  0
 72 71  1  0  0  0  0
 73 26  4  0  0  0  0
 74 73  1  0  0  0  0
 75 24  1  0  0  0  0
 76 75  1  0  0  0  0
 77 41  4  0  0  0  0
 78 77  1  0  0  0  0
 79 77  4  0  0  0  0
 80 79  1  0  0  0  0
 81 12  4  0  0  0  0
 82 81  1  0  0  0  0
 83 73  4  0  0  0  0
 84 83  1  0  0  0  0
 85 57  4  0  0  0  0
 86 85  1  0  0  0  0
 87 43  4  0  0  0  0
 88 87  1  0  0  0  0
 89  2  1  0  0  0  0
 90  2  1  0  0  0  0
 91  1  1  0  0  0  0
 92  1  1  0  0  0  0
  2  5  1  0  0  0  0
  5 21  1  0  0  0  0
  5 71  1  0  0  0  0
 12 18  4  0  0  0  0
 21 65  1  0  0  0  0
 21 67  1  0  0  0  0
 21 92  1  0  0  0  0
 24 67  1  0  0  0  0
 24 71  1  0  0  0  0
 47 63  1  0  0  0  0
 47 65  1  0  0  0  0
 47 67  1  0  0  0  0
 47 75  1  0  0  0  0
 49 55  4  0  0  0  0
 51 87  4  0  0  0  0
 53 59  4  0  0  0  0
 61 69  4  0  0  0  0
 63 67  1  0  0  0  0
 63 75  1  0  0  0  0
 65 71  1  0  0  0  0
 65 75  1  0  0  0  0
 71 75  1  0  0  0  0
 79 81  4  0  0  0  0
 83 85  4  0  0  0  0
M  END
$$$$
LIYCAB

From CSD data. Using bond type 'Any'. No disordered atoms. Largest molecule.
125162  0  0  0  0  0  0  0  0999 V2000
    6.0295   15.4516   13.0878 B   0  0  0  0  0  0  0  0  0  0  0  0
    6.7843   14.6915   13.4360 H   0  0  0  0  0  0  0  0  0  0  0  0
    4.4982   15.7370   13.9502 B   0  0  0  0  0  0  0  0  0  0  0  0
    4.3106   15.2375   14.9408 H   0  0  0  0  0  0  0  0  0  0  0  0
    5.8471   17.0150   13.9033 B   0  0  0  0  0  0  0  0  0  0  0  0
    6.3813   17.2632   14.8415 H   0  0  0  0  0  0  0  0  0  0  0  0
    6.5643   16.9747   12.2831 B   0  0  0  0  0  0  0  0  0  0  0  0
    7.6599   17.1453   12.0847 H   0  0  0  0  0  0  0  0  0  0  0  0
    5.6799   15.7059   11.3666 B   0  0  0  0  0  0  0  0  0  0  0  0
    6.2529   15.0948   10.5818 H   0  0  0  0  0  0  0  0  0  0  0  0
    4.4586   14.8932   12.3932 B   0  0  0  0  0  0  0  0  0  0  0  0
    4.2830   13.7764   12.3120 H   0  0  0  0  0  0  0  0  0  0  0  0
    3.7968   17.8262   14.1336 Pt  0  0  0  0  0  0  0  0  0  0  0  0
    5.4991   18.3365   12.6909 B   0  0  0  0  0  0  0  0  0  0  0  0
    5.2975   17.3873   11.1050 B   0  0  0  0  0  0  0  0  0  0  0  0
    5.4266   17.9239   10.1542 H   0  0  0  0  0  0  0  0  0  0  0  0
    3.9666   16.0410   11.1735 B   0  0  0  0  0  0  0  0  0  0  0  0
    3.3945   15.8610   10.2480 H   0  0  0  0  0  0  0  0  0  0  0  0
    3.1811   16.0317   12.8010 B   0  0  0  0  0  0  0  0  0  0  0  0
    2.1205   15.7463   12.9525 H   0  0  0  0  0  0  0  0  0  0  0  0
    4.5580   18.2093   11.7996 H   0  0  0  0  0  0  0  0  0  0  0  0
    3.2087   16.8785   11.8177 H   0  0  0  0  0  0  0  0  0  0  0  0
    6.2717   23.3867   10.8488 B   0  0  0  0  0  0  0  0  0  0  0  0
    6.3155   24.4632   11.1699 H   0  0  0  0  0  0  0  0  0  0  0  0
    4.8568   22.6981   10.0026 B   0  0  0  0  0  0  0  0  0  0  0  0
    4.0181   23.3681    9.6688 H   0  0  0  0  0  0  0  0  0  0  0  0
    6.4932   22.9121    9.1420 B   0  0  0  0  0  0  0  0  0  0  0  0
    6.5616   23.7094    8.3517 H   0  0  0  0  0  0  0  0  0  0  0  0
    7.7947   22.5678   10.3165 B   0  0  0  0  0  0  0  0  0  0  0  0
    8.7529   23.1696   10.3526 H   0  0  0  0  0  0  0  0  0  0  0  0
    6.9665   22.0621   11.8249 B   0  0  0  0  0  0  0  0  0  0  0  0
    7.4444   22.2948   12.8352 H   0  0  0  0  0  0  0  0  0  0  0  0
    5.1701   22.2452   11.6679 B   0  0  0  0  0  0  0  0  0  0  0  0
    4.5686   22.5709   12.5610 H   0  0  0  0  0  0  0  0  0  0  0  0
    5.2246   21.2345    8.3467 Pt  0  0  0  0  0  0  0  0  0  0  0  0
    7.4422   21.4293    9.0428 B   0  0  0  0  0  0  0  0  0  0  0  0
    8.1183   21.1532    8.2038 H   0  0  0  0  0  0  0  0  0  0  0  0
    7.6837   20.8802   10.7279 B   0  0  0  0  0  0  0  0  0  0  0  0
    8.4394   20.1512   11.0382 H   0  0  0  0  0  0  0  0  0  0  0  0
    5.9540   20.5948   11.6715 B   0  0  0  0  0  0  0  0  0  0  0  0
    4.5507   21.0322   10.5439 B   0  0  0  0  0  0  0  0  0  0  0  0
    3.5739   20.5390   10.6648 H   0  0  0  0  0  0  0  0  0  0  0  0
    7.1730   20.3250    9.6670 H   0  0  0  0  0  0  0  0  0  0  0  0
    5.5035   20.1637   10.5186 H   0  0  0  0  0  0  0  0  0  0  0  0
    5.8745   19.6565   12.7360 O   0  0  0  0  0  0  0  0  0  0  0  0
    4.4718   19.5625   15.5450 P   0  0  0  0  0  0  0  0  0  0  0  0
    3.8977   19.1120   17.2087 C   0  0  0  0  0  0  0  0  0  0  0  0
    3.6544   17.7657   17.5136 C   0  0  0  0  0  0  0  0  0  0  0  0
    3.7757   17.0959   16.8516 H   0  0  0  0  0  0  0  0  0  0  0  0
    3.2314   17.4121   18.8036 C   0  0  0  0  0  0  0  0  0  0  0  0
    3.0701   16.5022   19.0194 H   0  0  0  0  0  0  0  0  0  0  0  0
    3.0485   18.3892   19.7580 C   0  0  0  0  0  0  0  0  0  0  0  0
    2.7517   18.1522   20.6283 H   0  0  0  0  0  0  0  0  0  0  0  0
    3.2935   19.7045   19.4567 C   0  0  0  0  0  0  0  0  0  0  0  0
    3.1583   20.3715   20.1188 H   0  0  0  0  0  0  0  0  0  0  0  0
    3.7337   20.0675   18.2046 C   0  0  0  0  0  0  0  0  0  0  0  0
    3.9263   20.9804   18.0203 H   0  0  0  0  0  0  0  0  0  0  0  0
    6.2448   19.8876   15.7851 C   0  0  0  0  0  0  0  0  0  0  0  0
    6.3617   20.5439   16.5036 H   0  0  0  0  0  0  0  0  0  0  0  0
    6.6268   20.2416   14.9546 H   0  0  0  0  0  0  0  0  0  0  0  0
    6.7001   19.0546   16.0254 H   0  0  0  0  0  0  0  0  0  0  0  0
    3.8237   21.2339   15.2601 C   0  0  0  0  0  0  0  0  0  0  0  0
    2.8599   21.2433   15.4382 H   0  0  0  0  0  0  0  0  0  0  0  0
    3.9876   21.4924   14.3303 H   0  0  0  0  0  0  0  0  0  0  0  0
    4.2733   21.8637   15.8605 H   0  0  0  0  0  0  0  0  0  0  0  0
    1.4724   18.1485   14.2687 P   0  0  0  0  0  0  0  0  0  0  0  0
    0.7950   19.5587   15.2060 C   0  0  0  0  0  0  0  0  0  0  0  0
    0.6996   19.5246   16.5988 C   0  0  0  0  0  0  0  0  0  0  0  0
    0.9962   18.7623   17.0824 H   0  0  0  0  0  0  0  0  0  0  0  0
    0.1577   20.6321   17.2808 C   0  0  0  0  0  0  0  0  0  0  0  0
    0.0985   20.6190   18.2292 H   0  0  0  0  0  0  0  0  0  0  0  0
   -0.2801   21.7178   16.5880 C   0  0  0  0  0  0  0  0  0  0  0  0
   -0.6417   22.4604   17.0582 H   0  0  0  0  0  0  0  0  0  0  0  0
   -0.2066   21.7519   15.2312 C   0  0  0  0  0  0  0  0  0  0  0  0
   -0.5190   22.5187   14.7638 H   0  0  0  0  0  0  0  0  0  0  0  0
    0.3176   20.6879   14.5222 C   0  0  0  0  0  0  0  0  0  0  0  0
    0.3535   20.7189   13.5735 H   0  0  0  0  0  0  0  0  0  0  0  0
    0.5086   16.7824   14.9732 C   0  0  0  0  0  0  0  0  0  0  0  0
   -0.4353   17.0397   15.0259 H   0  0  0  0  0  0  0  0  0  0  0  0
    0.8416   16.5749   15.8711 H   0  0  0  0  0  0  0  0  0  0  0  0
    0.5985   15.9897   14.4016 H   0  0  0  0  0  0  0  0  0  0  0  0
    0.7540   18.3365   12.5971 C   0  0  0  0  0  0  0  0  0  0  0  0
   -0.2120   18.4842   12.6717 H   0  0  0  0  0  0  0  0  0  0  0  0
    0.9216   17.5243   12.0762 H   0  0  0  0  0  0  0  0  0  0  0  0
    1.1677   19.1039   12.1488 H   0  0  0  0  0  0  0  0  0  0  0  0
    6.2424   20.5902    6.3355 P   0  0  0  0  0  0  0  0  0  0  0  0
    7.2585   19.1058    6.5674 C   0  0  0  0  0  0  0  0  0  0  0  0
    7.0380   18.2714    7.6589 C   0  0  0  0  0  0  0  0  0  0  0  0
    6.3863   18.5090    8.3084 H   0  0  0  0  0  0  0  0  0  0  0  0
    7.7516   17.1143    7.8033 C   0  0  0  0  0  0  0  0  0  0  0  0
    7.5748   16.5463    8.5427 H   0  0  0  0  0  0  0  0  0  0  0  0
    8.7140   16.7637    6.9030 C   0  0  0  0  0  0  0  0  0  0  0  0
    9.2497   15.9920    7.0471 H   0  0  0  0  0  0  0  0  0  0  0  0
    8.8998   17.5424    5.7789 C   0  0  0  0  0  0  0  0  0  0  0  0
    9.5261   17.2717    5.1182 H   0  0  0  0  0  0  0  0  0  0  0  0
    8.1811   18.7119    5.6039 C   0  0  0  0  0  0  0  0  0  0  0  0
    8.3188   19.2459    4.8305 H   0  0  0  0  0  0  0  0  0  0  0  0
    7.3268   21.8884    5.6671 C   0  0  0  0  0  0  0  0  0  0  0  0
    8.0224   22.1015    6.3220 H   0  0  0  0  0  0  0  0  0  0  0  0
    6.7969   22.6898    5.4777 H   0  0  0  0  0  0  0  0  0  0  0  0
    7.7439   21.5690    4.8388 H   0  0  0  0  0  0  0  0  0  0  0  0
    5.2955   20.1637    4.8317 C   0  0  0  0  0  0  0  0  0  0  0  0
    4.7023   20.9068    4.5974 H   0  0  0  0  0  0  0  0  0  0  0  0
    4.7598   19.3593    5.0010 H   0  0  0  0  0  0  0  0  0  0  0  0
    5.9151   19.9928    4.0927 H   0  0  0  0  0  0  0  0  0  0  0  0
    3.0611   20.5582    7.8751 P   0  0  0  0  0  0  0  0  0  0  0  0
    2.4908   20.8616    6.1885 C   0  0  0  0  0  0  0  0  0  0  0  0
    1.9667   19.8876    5.3513 C   0  0  0  0  0  0  0  0  0  0  0  0
    1.8814   18.9947    5.6641 H   0  0  0  0  0  0  0  0  0  0  0  0
    1.5694   20.2040    4.0757 C   0  0  0  0  0  0  0  0  0  0  0  0
    1.2297   19.5230    3.5077 H   0  0  0  0  0  0  0  0  0  0  0  0
    1.6563   21.4976    3.6121 C   0  0  0  0  0  0  0  0  0  0  0  0
    1.3378   21.7113    2.7427 H   0  0  0  0  0  0  0  0  0  0  0  0
    2.2037   22.4840    4.4041 C   0  0  0  0  0  0  0  0  0  0  0  0
    2.3060   23.3680    4.0723 H   0  0  0  0  0  0  0  0  0  0  0  0
    2.6051   22.1645    5.6941 C   0  0  0  0  0  0  0  0  0  0  0  0
    2.9636   22.8444    6.2531 H   0  0  0  0  0  0  0  0  0  0  0  0
    1.7643   21.4603    8.7721 C   0  0  0  0  0  0  0  0  0  0  0  0
    0.8877   21.0875    8.5423 H   0  0  0  0  0  0  0  0  0  0  0  0
    1.7921   22.4076    8.5223 H   0  0  0  0  0  0  0  0  0  0  0  0
    1.9132   21.3731    9.7372 H   0  0  0  0  0  0  0  0  0  0  0  0
    2.7267   18.8204    8.2236 C   0  0  0  0  0  0  0  0  0  0  0  0
    1.7779   18.6321    8.0674 H   0  0  0  0  0  0  0  0  0  0  0  0
    2.9498   18.6249    9.1572 H   0  0  0  0  0  0  0  0  0  0  0  0
    3.2721   18.2579    7.6332 H   0  0  0  0  0  0  0  0  0  0  0  0
  1  2  1  0  0  0  0
  3  1  1  0  0  0  0
  4  3  1  0  0  0  0
  5  1  1  0  0  0  0
  6  5  1  0  0  0  0
  7  1  1  0  0  0  0
  8  7  1  0  0  0  0
  9  1  1  0  0  0  0
 10  9  1  0  0  0  0
 11  1  1  0  0  0  0
 12 11  1  0  0  0  0
 13  3  1  0  0  0  0
 14  5  1  0  0  0  0
 15  7  1  0  0  0  0
 16 15  1  0  0  0  0
 17  9  1  0  0  0  0
 18 17  1  0  0  0  0
 19  3  1  0  0  0  0
 20 19  1  0  0  0  0
 21 14  1  0  0  0  0
 22 17  1  0  0  0  0
 23 24  1  0  0  0  0
 25 23  1  0  0  0  0
 26 25  1  0  0  0  0
 27 23  1  0  0  0  0
 28 27  1  0  0  0  0
 29 23  1  0  0  0  0
 30 29  1  0  0  0  0
 31 23  1  0  0  0  0
 32 31  1  0  0  0  0
 33 23  1  0  0  0  0
 34 33  1  0  0  0  0
 35 25  1  0  0  0  0
 36 27  1  0  0  0  0
 37 36  1  0  0  0  0
 38 29  1  0  0  0  0
 39 38  1  0  0  0  0
 40 31  1  0  0  0  0
 41 25  1  0  0  0  0
 42 41  1  0  0  0  0
 43 36  1  0  0  0  0
 44 40  1  0  0  0  0
 45 14  1  0  0  0  0
 46 13  1  0  0  0  0
 47 46  1  0  0  0  0
 48 47  4  0  0  0  0
 49 48  1  0  0  0  0
 50 48  4  0  0  0  0
 51 50  1  0  0  0  0
 52 50  4  0  0  0  0
 53 52  1  0  0  0  0
 54 52  4  0  0  0  0
 55 54  1  0  0  0  0
 56 47  4  0  0  0  0
 57 56  1  0  0  0  0
 58 46  1  0  0  0  0
 59 58  1  0  0  0  0
 60 58  1  0  0  0  0
 61 58  1  0  0  0  0
 62 46  1  0  0  0  0
 63 62  1  0  0  0  0
 64 62  1  0  0  0  0
 65 62  1  0  0  0  0
 66 13  1  0  0  0  0
 67 66  1  0  0  0  0
 68 67  4  0  0  0  0
 69 68  1  0  0  0  0
 70 68  4  0  0  0  0
 71 70  1  0  0  0  0
 72 70  4  0  0  0  0
 73 72  1  0  0  0  0
 74 72  4  0  0  0  0
 75 74  1  0  0  0  0
 76 67  4  0  0  0  0
 77 76  1  0  0  0  0
 78 66  1  0  0  0  0
 79 78  1  0  0  0  0
 80 78  1  0  0  0  0
 81 78  1  0  0  0  0
 82 66  1  0  0  0  0
 83 82  1  0  0  0  0
 84 82  1  0  0  0  0
 85 82  1  0  0  0  0
 86 35  1  0  0  0  0
 87 86  1  0  0  0  0
 88 87  4  0  0  0  0
 89 88  1  0  0  0  0
 90 88  4  0  0  0  0
 91 90  1  0  0  0  0
 92 90  4  0  0  0  0
 93 92  1  0  0  0  0
 94 92  4  0  0  0  0
 95 94  1  0  0  0  0
 96 87  4  0  0  0  0
 97 96  1  0  0  0  0
 98 86  1  0  0  0  0
 99 98  1  0  0  0  0
100 98  1  0  0  0  0
101 98  1  0  0  0  0
102 86  1  0  0  0  0
103102  1  0  0  0  0
104102  1  0  0  0  0
105102  1  0  0  0  0
106 35  1  0  0  0  0
107106  1  0  0  0  0
108107  4  0  0  0  0
109108  1  0  0  0  0
110108  4  0  0  0  0
111110  1  0  0  0  0
112110  4  0  0  0  0
113112  1  0  0  0  0
114112  4  0  0  0  0
115114  1  0  0  0  0
116107  4  0  0  0  0
117116  1  0  0  0  0
118106  1  0  0  0  0
119118  1  0  0  0  0
120118  1  0  0  0  0
121118  1  0  0  0  0
122106  1  0  0  0  0
123122  1  0  0  0  0
124122  1  0  0  0  0
125122  1  0  0  0  0
  3  5  1  0  0  0  0
  3 11  1  0  0  0  0
  5  7  1  0  0  0  0
  5 13  1  0  0  0  0
  7  9  1  0  0  0  0
  7 14  1  0  0  0  0
  9 11  1  0  0  0  0
  9 15  1  0  0  0  0
 11 17  1  0  0  0  0
 11 19  1  0  0  0  0
 13 14  1  0  0  0  0
 13 19  1  0  0  0  0
 14 15  1  0  0  0  0
 15 17  1  0  0  0  0
 15 21  1  0  0  0  0
 17 19  1  0  0  0  0
 19 22  1  0  0  0  0
 25 27  1  0  0  0  0
 25 33  1  0  0  0  0
 27 29  1  0  0  0  0
 27 35  1  0  0  0  0
 29 31  1  0  0  0  0
 29 36  1  0  0  0  0
 31 33  1  0  0  0  0
 31 38  1  0  0  0  0
 33 40  1  0  0  0  0
 33 41  1  0  0  0  0
 35 36  1  0  0  0  0
 35 41  1  0  0  0  0
 36 38  1  0  0  0  0
 38 40  1  0  0  0  0
 38 43  1  0  0  0  0
 40 41  1  0  0  0  0
 40 45  1  0  0  0  0
 41 44  1  0  0  0  0
 54 56  4  0  0  0  0
 74 76  4  0  0  0  0
 94 96  4  0  0  0  0
114116  4  0  0  0  0
M  END
$$$$
LOBDEO

From CSD data. Using bond type 'Any'. No disordered atoms. Largest molecule.
 78 99  0  0  0  0  0  0  0  0999 V2000
    9.2054    9.4179   11.9244 Pd  0  0  0  0  0  0  0  0  0  0  0  0
    8.1901    8.9212   13.9309 P   0  0  0  0  0  0  0  0  0  0  0  0
    9.9905   10.6923   10.2127 P   0  0  0  0  0  0  0  0  0  0  0  0
   10.7139    7.6385   11.3710 S   0  0  0  0  0  0  0  0  0  0  0  0
    9.0898   12.0652   10.2547 O   0  0  0  0  0  0  0  0  0  0  0  0
    7.3317   10.2818   14.3151 O   0  0  0  0  0  0  0  0  0  0  0  0
    8.2205   11.1176   12.2705 C   0  0  0  0  0  0  0  0  0  0  0  0
    8.3265   12.2205   11.3967 C   0  0  0  0  0  0  0  0  0  0  0  0
    7.4554   11.3271   13.4101 C   0  0  0  0  0  0  0  0  0  0  0  0
    7.7057   13.4231   11.6237 C   0  0  0  0  0  0  0  0  0  0  0  0
    7.7916   14.1267   11.0217 H   0  0  0  0  0  0  0  0  0  0  0  0
    6.8142   12.5230   13.6819 C   0  0  0  0  0  0  0  0  0  0  0  0
    6.3073   12.6286   14.4546 H   0  0  0  0  0  0  0  0  0  0  0  0
    6.9515   13.5573   12.7709 C   0  0  0  0  0  0  0  0  0  0  0  0
    6.5219   14.3655   12.9364 H   0  0  0  0  0  0  0  0  0  0  0  0
    6.8975    7.6477   14.1080 C   0  0  0  0  0  0  0  0  0  0  0  0
    7.3159    6.7813   13.9248 H   0  0  0  0  0  0  0  0  0  0  0  0
   10.1430   11.2711    7.4933 C   0  0  0  0  0  0  0  0  0  0  0  0
    9.6941   12.0824    7.7441 H   0  0  0  0  0  0  0  0  0  0  0  0
    9.8676   11.0127    6.6113 H   0  0  0  0  0  0  0  0  0  0  0  0
   11.0920   11.4148    7.5039 H   0  0  0  0  0  0  0  0  0  0  0  0
    9.7822   10.1584    8.4892 C   0  0  0  0  0  0  0  0  0  0  0  0
   10.3911    9.4065    8.3330 H   0  0  0  0  0  0  0  0  0  0  0  0
    9.9553    6.1029   10.9319 C   0  0  0  0  0  0  0  0  0  0  0  0
    9.2998    8.7638   15.3742 C   0  0  0  0  0  0  0  0  0  0  0  0
    8.7434    8.7541   16.1811 H   0  0  0  0  0  0  0  0  0  0  0  0
    6.2712    7.5648   15.4946 C   0  0  0  0  0  0  0  0  0  0  0  0
    6.9434    7.3186   16.1347 H   0  0  0  0  0  0  0  0  0  0  0  0
    5.5747    6.9043   15.4923 H   0  0  0  0  0  0  0  0  0  0  0  0
    5.9020    8.4187   15.7312 H   0  0  0  0  0  0  0  0  0  0  0  0
    5.8299    7.8652   13.0488 C   0  0  0  0  0  0  0  0  0  0  0  0
    5.3522    8.6761   13.2383 H   0  0  0  0  0  0  0  0  0  0  0  0
    5.2194    7.1250   13.0538 H   0  0  0  0  0  0  0  0  0  0  0  0
    6.2451    7.9327   12.1859 H   0  0  0  0  0  0  0  0  0  0  0  0
   11.6819   11.3521   10.3776 C   0  0  0  0  0  0  0  0  0  0  0  0
   11.7593   12.1197    9.7727 H   0  0  0  0  0  0  0  0  0  0  0  0
   10.0828    7.4710   15.3371 C   0  0  0  0  0  0  0  0  0  0  0  0
    9.4744    6.7281   15.3637 H   0  0  0  0  0  0  0  0  0  0  0  0
   10.6712    7.4300   16.0936 H   0  0  0  0  0  0  0  0  0  0  0  0
   10.5981    7.4322   14.5276 H   0  0  0  0  0  0  0  0  0  0  0  0
    8.3614    9.6606    8.2715 C   0  0  0  0  0  0  0  0  0  0  0  0
    8.1669    8.9634    8.9026 H   0  0  0  0  0  0  0  0  0  0  0  0
    8.2762    9.3180    7.3794 H   0  0  0  0  0  0  0  0  0  0  0  0
    7.7459   10.3863    8.3969 H   0  0  0  0  0  0  0  0  0  0  0  0
   11.8661   11.8701   11.8089 C   0  0  0  0  0  0  0  0  0  0  0  0
   11.1182   12.4224   12.0480 H   0  0  0  0  0  0  0  0  0  0  0  0
   12.6742   12.3845   11.8614 H   0  0  0  0  0  0  0  0  0  0  0  0
   11.9201   11.1259   12.4134 H   0  0  0  0  0  0  0  0  0  0  0  0
    9.4507    5.8824    9.3477 B   0  0  0  0  0  0  0  0  0  0  0  0
    9.4938    6.6999    8.6130 H   0  0  0  0  0  0  0  0  0  0  0  0
   12.7505   10.3560    9.9885 C   0  0  0  0  0  0  0  0  0  0  0  0
   12.7311    9.6127   10.5968 H   0  0  0  0  0  0  0  0  0  0  0  0
   13.6115   10.7787   10.0285 H   0  0  0  0  0  0  0  0  0  0  0  0
   12.5881   10.0432    9.0962 H   0  0  0  0  0  0  0  0  0  0  0  0
    9.0663    5.1274   11.9664 B   0  0  0  0  0  0  0  0  0  0  0  0
    8.8533    5.4013   13.0100 H   0  0  0  0  0  0  0  0  0  0  0  0
   10.2106    9.9798   15.4545 C   0  0  0  0  0  0  0  0  0  0  0  0
   10.8776    9.9250   14.7657 H   0  0  0  0  0  0  0  0  0  0  0  0
   10.6382   10.0036   16.3130 H   0  0  0  0  0  0  0  0  0  0  0  0
    9.6904   10.7773   15.3328 H   0  0  0  0  0  0  0  0  0  0  0  0
    9.3478    3.4643   11.4940 B   0  0  0  0  0  0  0  0  0  0  0  0
    9.3099    2.6401   12.2228 H   0  0  0  0  0  0  0  0  0  0  0  0
   10.8707    5.1635    9.8434 B   0  0  0  0  0  0  0  0  0  0  0  0
   11.8556    5.4869    9.4746 H   0  0  0  0  0  0  0  0  0  0  0  0
   10.6538    4.6452   11.4831 B   0  0  0  0  0  0  0  0  0  0  0  0
   11.4940    4.6052   12.1933 H   0  0  0  0  0  0  0  0  0  0  0  0
    8.2949    5.9644   10.6108 C   0  0  0  0  0  0  0  0  0  0  0  0
    7.5834    6.7928   10.7417 H   0  0  0  0  0  0  0  0  0  0  0  0
   10.4840    3.4769   10.1800 B   0  0  0  0  0  0  0  0  0  0  0  0
   11.2045    2.6572   10.0428 H   0  0  0  0  0  0  0  0  0  0  0  0
    9.7794    4.2967    8.8181 B   0  0  0  0  0  0  0  0  0  0  0  0
   10.0405    4.0362    7.7822 H   0  0  0  0  0  0  0  0  0  0  0  0
    8.7964    3.2504    9.8403 B   0  0  0  0  0  0  0  0  0  0  0  0
    8.3995    2.2932    9.4716 H   0  0  0  0  0  0  0  0  0  0  0  0
    8.1310    4.7825    9.3014 B   0  0  0  0  0  0  0  0  0  0  0  0
    7.2990    4.8356    8.5834 H   0  0  0  0  0  0  0  0  0  0  0  0
    7.8923    4.2749   10.9566 B   0  0  0  0  0  0  0  0  0  0  0  0
    6.8989    3.9891   11.3336 H   0  0  0  0  0  0  0  0  0  0  0  0
  1  2  1  0  0  0  0
  2  6  1  0  0  0  0
  3  1  1  0  0  0  0
  4  1  1  0  0  0  0
  5  3  1  0  0  0  0
  6  9  1  0  0  0  0
  7  1  1  0  0  0  0
  8  5  1  0  0  0  0
  9  7  4  0  0  0  0
 10  8  4  0  0  0  0
 11 10  1  0  0  0  0
 12  9  4  0  0  0  0
 13 12  1  0  0  0  0
 14 10  4  0  0  0  0
 15 14  1  0  0  0  0
 16  2  1  0  0  0  0
 17 16  1  0  0  0  0
 18 19  1  0  0  0  0
 20 18  1  0  0  0  0
 21 18  1  0  0  0  0
 22  3  1  0  0  0  0
 23 22  1  0  0  0  0
 24  4  1  0  0  0  0
 25  2  1  0  0  0  0
 26 25  1  0  0  0  0
 27 16  1  0  0  0  0
 28 27  1  0  0  0  0
 29 27  1  0  0  0  0
 30 27  1  0  0  0  0
 31 16  1  0  0  0  0
 32 31  1  0  0  0  0
 33 31  1  0  0  0  0
 34 31  1  0  0  0  0
 35  3  1  0  0  0  0
 36 35  1  0  0  0  0
 37 25  1  0  0  0  0
 38 37  1  0  0  0  0
 39 37  1  0  0  0  0
 40 37  1  0  0  0  0
 41 22  1  0  0  0  0
 42 41  1  0  0  0  0
 43 41  1  0  0  0  0
 44 41  1  0  0  0  0
 45 35  1  0  0  0  0
 46 45  1  0  0  0  0
 47 45  1  0  0  0  0
 48 45  1  0  0  0  0
 49 24  1  0  0  0  0
 50 49  1  0  0  0  0
 51 35  1  0  0  0  0
 52 51  1  0  0  0  0
 53 51  1  0  0  0  0
 54 51  1  0  0  0  0
 55 24  1  0  0  0  0
 56 55  1  0  0  0  0
 57 25  1  0  0  0  0
 58 57  1  0  0  0  0
 59 57  1  0  0  0  0
 60 57  1  0  0  0  0
 61 55  1  0  0  0  0
 62 61  1  0  0  0  0
 63 24  1  0  0  0  0
 64 63  1  0  0  0  0
 65 24  1  0  0  0  0
 66 65  1  0  0  0  0
 67 24  1  0  0  0  0
 68 67  1  0  0  0  0
 69 61  1  0  0  0  0
 70 69  1  0  0  0  0
 71 49  1  0  0  0  0
 72 71  1  0  0  0  0
 73 61  1  0  0  0  0
 74 73  1  0  0  0  0
 75 49  1  0  0  0  0
 76 75  1  0  0  0  0
 77 55  1  0  0  0  0
 78 77  1  0  0  0  0
  7  8  4  0  0  0  0
 12 14  4  0  0  0  0
 18 22  1  0  0  0  0
 49 63  1  0  0  0  0
 49 67  1  0  0  0  0
 55 65  1  0  0  0  0
 55 67  1  0  0  0  0
 61 65  1  0  0  0  0
 61 77  1  0  0  0  0
 63 65  1  0  0  0  0
 63 69  1  0  0  0  0
 63 71  1  0  0  0  0
 65 69  1  0  0  0  0
 67 75  1  0  0  0  0
 67 77  1  0  0  0  0
 69 71  1  0  0  0  0
 69 73  1  0  0  0  0
 71 73  1  0  0  0  0
 71 75  1  0  0  0  0
 73 75  1  0  0  0  0
 73 77  1  0  0  0  0
 75 77  1  0  0  0  0
M  END
$$$$
LOBPEA

From CSD data. Using bond type 'Any'. No disordered atoms. Largest molecule.
 78 99  0  0  0  0  0  0  0  0999 V2000
    9.0937    9.5217   11.8440 Ni  0  0  0  0  0  0  0  0  0  0  0  0
    9.8705   10.6703   10.1787 P   0  0  0  0  0  0  0  0  0  0  0  0
    8.1955    9.0044   13.7705 P   0  0  0  0  0  0  0  0  0  0  0  0
   10.5289    7.8653   11.3638 S   0  0  0  0  0  0  0  0  0  0  0  0
    9.0183   12.0759   10.1420 O   0  0  0  0  0  0  0  0  0  0  0  0
    7.3318   10.3325   14.2352 O   0  0  0  0  0  0  0  0  0  0  0  0
    8.2574   12.2386   11.2916 C   0  0  0  0  0  0  0  0  0  0  0  0
    7.4243   11.3812   13.3208 C   0  0  0  0  0  0  0  0  0  0  0  0
    8.1748   11.1475   12.1718 C   0  0  0  0  0  0  0  0  0  0  0  0
    6.7855   12.5740   13.5896 C   0  0  0  0  0  0  0  0  0  0  0  0
    6.2874   12.6837   14.3667 H   0  0  0  0  0  0  0  0  0  0  0  0
    9.8731    6.2701   10.9291 C   0  0  0  0  0  0  0  0  0  0  0  0
   11.5754   11.3201   10.3085 C   0  0  0  0  0  0  0  0  0  0  0  0
   11.6370   12.0789    9.6904 H   0  0  0  0  0  0  0  0  0  0  0  0
    9.3337    8.8339   15.1901 C   0  0  0  0  0  0  0  0  0  0  0  0
    8.8009    8.8710   16.0121 H   0  0  0  0  0  0  0  0  0  0  0  0
    9.6520   10.0902    8.4699 C   0  0  0  0  0  0  0  0  0  0  0  0
   10.2259    9.3060    8.3475 H   0  0  0  0  0  0  0  0  0  0  0  0
    6.9168    7.7193   13.9705 C   0  0  0  0  0  0  0  0  0  0  0  0
    7.3263    6.8554   13.7559 H   0  0  0  0  0  0  0  0  0  0  0  0
    6.9040   13.6003   12.6741 C   0  0  0  0  0  0  0  0  0  0  0  0
    6.4767   14.4090   12.8402 H   0  0  0  0  0  0  0  0  0  0  0  0
    7.6437   13.4515   11.5190 C   0  0  0  0  0  0  0  0  0  0  0  0
    7.7254   14.1506   10.9101 H   0  0  0  0  0  0  0  0  0  0  0  0
   10.0949    7.5209   15.1871 C   0  0  0  0  0  0  0  0  0  0  0  0
    9.4733    6.7906   15.2310 H   0  0  0  0  0  0  0  0  0  0  0  0
   10.6816    7.4885   15.9455 H   0  0  0  0  0  0  0  0  0  0  0  0
   10.6111    7.4529   14.3798 H   0  0  0  0  0  0  0  0  0  0  0  0
    8.2157    9.6466    8.2594 C   0  0  0  0  0  0  0  0  0  0  0  0
    7.9695    9.0241    8.9477 H   0  0  0  0  0  0  0  0  0  0  0  0
    8.1338    9.2247    7.4016 H   0  0  0  0  0  0  0  0  0  0  0  0
    7.6360   10.4110    8.2975 H   0  0  0  0  0  0  0  0  0  0  0  0
   10.0702   11.1357    7.4361 C   0  0  0  0  0  0  0  0  0  0  0  0
    9.5951   11.9541    7.5986 H   0  0  0  0  0  0  0  0  0  0  0  0
    9.8634   10.8150    6.5556 H   0  0  0  0  0  0  0  0  0  0  0  0
   11.0143   11.2946    7.5059 H   0  0  0  0  0  0  0  0  0  0  0  0
    9.4247    6.0007    9.3408 B   0  0  0  0  0  0  0  0  0  0  0  0
    9.4256    6.8182    8.6051 H   0  0  0  0  0  0  0  0  0  0  0  0
    5.8068    7.9731   12.9536 C   0  0  0  0  0  0  0  0  0  0  0  0
    5.3375    8.7774   13.1862 H   0  0  0  0  0  0  0  0  0  0  0  0
    5.1951    7.2332   12.9565 H   0  0  0  0  0  0  0  0  0  0  0  0
    6.1905    8.0678   12.0789 H   0  0  0  0  0  0  0  0  0  0  0  0
   12.6628   10.3424    9.9092 C   0  0  0  0  0  0  0  0  0  0  0  0
   12.5996    9.5540   10.4539 H   0  0  0  0  0  0  0  0  0  0  0  0
   13.5226   10.7500   10.0353 H   0  0  0  0  0  0  0  0  0  0  0  0
   12.5546   10.1023    8.9859 H   0  0  0  0  0  0  0  0  0  0  0  0
    6.3373    7.6189   15.3745 C   0  0  0  0  0  0  0  0  0  0  0  0
    7.0374    7.4034   15.9952 H   0  0  0  0  0  0  0  0  0  0  0  0
    5.6676    6.9319   15.3962 H   0  0  0  0  0  0  0  0  0  0  0  0
    5.9417    8.4593   15.6182 H   0  0  0  0  0  0  0  0  0  0  0  0
   10.8706    5.3823    9.8523 B   0  0  0  0  0  0  0  0  0  0  0  0
   11.8314    5.7690    9.4828 H   0  0  0  0  0  0  0  0  0  0  0  0
   11.7837   11.8776   11.7094 C   0  0  0  0  0  0  0  0  0  0  0  0
   11.0569   12.4638   11.9323 H   0  0  0  0  0  0  0  0  0  0  0  0
   12.6098   12.3652   11.7411 H   0  0  0  0  0  0  0  0  0  0  0  0
   11.8153   11.1538   12.3401 H   0  0  0  0  0  0  0  0  0  0  0  0
    9.0613    5.2361   11.9567 B   0  0  0  0  0  0  0  0  0  0  0  0
    8.8137    5.5022   12.9948 H   0  0  0  0  0  0  0  0  0  0  0  0
    9.8569    4.4340    8.8293 B   0  0  0  0  0  0  0  0  0  0  0  0
   10.1356    4.1830    7.7954 H   0  0  0  0  0  0  0  0  0  0  0  0
   10.3053   10.0081   15.2055 C   0  0  0  0  0  0  0  0  0  0  0  0
   10.8731    9.9647   14.4331 H   0  0  0  0  0  0  0  0  0  0  0  0
   10.8428    9.9694   16.0005 H   0  0  0  0  0  0  0  0  0  0  0  0
    9.8117   10.8319   15.1939 H   0  0  0  0  0  0  0  0  0  0  0  0
    8.2588    5.9932   10.5850 B   0  0  0  0  0  0  0  0  0  0  0  0
    7.4813    6.7641   10.6936 H   0  0  0  0  0  0  0  0  0  0  0  0
   10.6935    4.8760   11.4959 C   0  0  0  0  0  0  0  0  0  0  0  0
   11.5287    4.9128   12.2105 H   0  0  0  0  0  0  0  0  0  0  0  0
   10.6285    3.6831   10.2025 B   0  0  0  0  0  0  0  0  0  0  0  0
   11.4151    2.9229   10.0843 H   0  0  0  0  0  0  0  0  0  0  0  0
    8.9631    3.3234    9.8370 B   0  0  0  0  0  0  0  0  0  0  0  0
    8.6411    2.3398    9.4655 H   0  0  0  0  0  0  0  0  0  0  0  0
    9.4832    3.5927   11.5005 B   0  0  0  0  0  0  0  0  0  0  0  0
    9.5043    2.7703   12.2311 H   0  0  0  0  0  0  0  0  0  0  0  0
    8.2049    4.7991    9.2886 B   0  0  0  0  0  0  0  0  0  0  0  0
    7.3813    4.7831    8.5597 H   0  0  0  0  0  0  0  0  0  0  0  0
    7.9868    4.2880   10.9629 B   0  0  0  0  0  0  0  0  0  0  0  0
    7.0200    3.9307   11.3477 H   0  0  0  0  0  0  0  0  0  0  0  0
  1  2  1  0  0  0  0
  2  5  1  0  0  0  0
  3  1  1  0  0  0  0
  4  1  1  0  0  0  0
  5  7  1  0  0  0  0
  6  3  1  0  0  0  0
  7  9  4  0  0  0  0
  8  6  1  0  0  0  0
  9  1  1  0  0  0  0
 10  8  4  0  0  0  0
 11 10  1  0  0  0  0
 12  4  1  0  0  0  0
 13  2  1  0  0  0  0
 14 13  1  0  0  0  0
 15  3  1  0  0  0  0
 16 15  1  0  0  0  0
 17  2  1  0  0  0  0
 18 17  1  0  0  0  0
 19  3  1  0  0  0  0
 20 19  1  0  0  0  0
 21 10  4  0  0  0  0
 22 21  1  0  0  0  0
 23  7  4  0  0  0  0
 24 23  1  0  0  0  0
 25 15  1  0  0  0  0
 26 25  1  0  0  0  0
 27 25  1  0  0  0  0
 28 25  1  0  0  0  0
 29 17  1  0  0  0  0
 30 29  1  0  0  0  0
 31 29  1  0  0  0  0
 32 29  1  0  0  0  0
 33 17  1  0  0  0  0
 34 33  1  0  0  0  0
 35 33  1  0  0  0  0
 36 33  1  0  0  0  0
 37 12  1  0  0  0  0
 38 37  1  0  0  0  0
 39 19  1  0  0  0  0
 40 39  1  0  0  0  0
 41 39  1  0  0  0  0
 42 39  1  0  0  0  0
 43 13  1  0  0  0  0
 44 43  1  0  0  0  0
 45 43  1  0  0  0  0
 46 43  1  0  0  0  0
 47 19  1  0  0  0  0
 48 47  1  0  0  0  0
 49 47  1  0  0  0  0
 50 47  1  0  0  0  0
 51 12  1  0  0  0  0
 52 51  1  0  0  0  0
 53 13  1  0  0  0  0
 54 53  1  0  0  0  0
 55 53  1  0  0  0  0
 56 53  1  0  0  0  0
 57 12  1  0  0  0  0
 58 57  1  0  0  0  0
 59 37  1  0  0  0  0
 60 59  1  0  0  0  0
 61 15  1  0  0  0  0
 62 61  1  0  0  0  0
 63 61  1  0  0  0  0
 64 61  1  0  0  0  0
 65 12  1  0  0  0  0
 66 65  1  0  0  0  0
 67 12  1  0  0  0  0
 68 67  1  0  0  0  0
 69 51  1  0  0  0  0
 70 69  1  0  0  0  0
 71 59  1  0  0  0  0
 72 71  1  0  0  0  0
 73 57  1  0  0  0  0
 74 73  1  0  0  0  0
 75 37  1  0  0  0  0
 76 75  1  0  0  0  0
 77 57  1  0  0  0  0
 78 77  1  0  0  0  0
  8  9  4  0  0  0  0
 21 23  4  0  0  0  0
 37 51  1  0  0  0  0
 37 65  1  0  0  0  0
 51 59  1  0  0  0  0
 51 67  1  0  0  0  0
 57 65  1  0  0  0  0
 57 67  1  0  0  0  0
 59 69  1  0  0  0  0
 59 75  1  0  0  0  0
 65 75  1  0  0  0  0
 65 77  1  0  0  0  0
 67 69  1  0  0  0  0
 67 73  1  0  0  0  0
 69 71  1  0  0  0  0
 69 73  1  0  0  0  0
 71 73  1  0  0  0  0
 71 75  1  0  0  0  0
 71 77  1  0  0  0  0
 73 77  1  0  0  0  0
 75 77  1  0  0  0  0
M  END
$$$$
LOBPIE

From CSD data. Using bond type 'Any'. No disordered atoms. Largest molecule.
 78 99  0  0  0  0  0  0  0  0999 V2000
    9.2285    9.4217   11.8947 Pt  0  0  0  0  0  0  0  0  0  0  0  0
    8.2160    8.9053   13.8739 P   0  0  0  0  0  0  0  0  0  0  0  0
   10.0128   10.6860   10.1845 P   0  0  0  0  0  0  0  0  0  0  0  0
   10.7161    7.6322   11.3469 S   0  0  0  0  0  0  0  0  0  0  0  0
    9.1196   12.0615   10.2292 O   0  0  0  0  0  0  0  0  0  0  0  0
    7.3575   10.2541   14.2704 O   0  0  0  0  0  0  0  0  0  0  0  0
    8.2434   11.1251   12.2385 C   0  0  0  0  0  0  0  0  0  0  0  0
    7.4737   11.3171   13.3727 C   0  0  0  0  0  0  0  0  0  0  0  0
    7.7244   13.4160   11.5968 C   0  0  0  0  0  0  0  0  0  0  0  0
    7.8102   14.1203   10.9954 H   0  0  0  0  0  0  0  0  0  0  0  0
    8.3453   12.2181   11.3722 C   0  0  0  0  0  0  0  0  0  0  0  0
    9.8045   10.1431    8.4683 C   0  0  0  0  0  0  0  0  0  0  0  0
   10.4064    9.3853    8.3159 H   0  0  0  0  0  0  0  0  0  0  0  0
    6.8151   12.5117   13.6481 C   0  0  0  0  0  0  0  0  0  0  0  0
    6.2941   12.6085   14.4124 H   0  0  0  0  0  0  0  0  0  0  0  0
    6.9620   13.5473   12.7464 C   0  0  0  0  0  0  0  0  0  0  0  0
    6.5366   14.3570   12.9161 H   0  0  0  0  0  0  0  0  0  0  0  0
    9.9553    6.0951   10.9090 C   0  0  0  0  0  0  0  0  0  0  0  0
    6.9140    7.6336   14.0113 C   0  0  0  0  0  0  0  0  0  0  0  0
    7.3264    6.7700   13.7980 H   0  0  0  0  0  0  0  0  0  0  0  0
    9.3176    8.7330   15.3178 C   0  0  0  0  0  0  0  0  0  0  0  0
    8.7531    8.6983   16.1180 H   0  0  0  0  0  0  0  0  0  0  0  0
   10.1665   11.2445    7.4635 C   0  0  0  0  0  0  0  0  0  0  0  0
    9.7053   12.0540    7.6959 H   0  0  0  0  0  0  0  0  0  0  0  0
    9.9067   10.9705    6.5809 H   0  0  0  0  0  0  0  0  0  0  0  0
   11.1137   11.3985    7.4851 H   0  0  0  0  0  0  0  0  0  0  0  0
   11.7043   11.3484   10.3442 C   0  0  0  0  0  0  0  0  0  0  0  0
   11.7820   12.1021    9.7237 H   0  0  0  0  0  0  0  0  0  0  0  0
    8.3631    9.6512    8.2652 C   0  0  0  0  0  0  0  0  0  0  0  0
    8.1679    8.9596    8.9008 H   0  0  0  0  0  0  0  0  0  0  0  0
    8.2662    9.3044    7.3746 H   0  0  0  0  0  0  0  0  0  0  0  0
    7.7543   10.3830    8.3906 H   0  0  0  0  0  0  0  0  0  0  0  0
   10.1126    7.4464   15.2639 C   0  0  0  0  0  0  0  0  0  0  0  0
    9.5130    6.6973   15.3037 H   0  0  0  0  0  0  0  0  0  0  0  0
   10.7171    7.4116   16.0089 H   0  0  0  0  0  0  0  0  0  0  0  0
   10.6122    7.4123   14.4447 H   0  0  0  0  0  0  0  0  0  0  0  0
    6.3040    7.5122   15.3947 C   0  0  0  0  0  0  0  0  0  0  0  0
    6.9932    7.3122   16.0319 H   0  0  0  0  0  0  0  0  0  0  0  0
    5.6524    6.8063   15.3962 H   0  0  0  0  0  0  0  0  0  0  0  0
    5.8792    8.3397   15.6307 H   0  0  0  0  0  0  0  0  0  0  0  0
    5.8482    7.8893   12.9726 C   0  0  0  0  0  0  0  0  0  0  0  0
    5.3568    8.6797   13.2067 H   0  0  0  0  0  0  0  0  0  0  0  0
    5.2498    7.1391   12.9368 H   0  0  0  0  0  0  0  0  0  0  0  0
    6.2605    8.0107   12.1143 H   0  0  0  0  0  0  0  0  0  0  0  0
   11.8881   11.9013   11.7584 C   0  0  0  0  0  0  0  0  0  0  0  0
   11.1208   12.4256   11.9985 H   0  0  0  0  0  0  0  0  0  0  0  0
   12.6738   12.4521   11.7860 H   0  0  0  0  0  0  0  0  0  0  0  0
   11.9852   11.1735   12.3763 H   0  0  0  0  0  0  0  0  0  0  0  0
    9.0833    5.1191   11.9385 B   0  0  0  0  0  0  0  0  0  0  0  0
    8.8707    5.3987   12.9803 H   0  0  0  0  0  0  0  0  0  0  0  0
    9.4468    5.8796    9.3286 C   0  0  0  0  0  0  0  0  0  0  0  0
    9.4759    6.6983    8.5944 H   0  0  0  0  0  0  0  0  0  0  0  0
   12.7730   10.3409    9.9672 C   0  0  0  0  0  0  0  0  0  0  0  0
   12.7093    9.5755   10.5430 H   0  0  0  0  0  0  0  0  0  0  0  0
   13.6395   10.7427   10.0637 H   0  0  0  0  0  0  0  0  0  0  0  0
   12.6472   10.0670    9.0557 H   0  0  0  0  0  0  0  0  0  0  0  0
   10.2190    9.9526   15.4440 C   0  0  0  0  0  0  0  0  0  0  0  0
   10.8765    9.9385   14.7444 H   0  0  0  0  0  0  0  0  0  0  0  0
   10.6583    9.9396   16.2968 H   0  0  0  0  0  0  0  0  0  0  0  0
    9.6896   10.7505   15.3685 H   0  0  0  0  0  0  0  0  0  0  0  0
   10.8783    5.1647    9.8071 B   0  0  0  0  0  0  0  0  0  0  0  0
   11.8572    5.4953    9.4294 H   0  0  0  0  0  0  0  0  0  0  0  0
   10.6679    4.6447   11.4429 B   0  0  0  0  0  0  0  0  0  0  0  0
   11.5107    4.6116   12.1491 H   0  0  0  0  0  0  0  0  0  0  0  0
    8.3028    5.9374   10.6166 B   0  0  0  0  0  0  0  0  0  0  0  0
    7.5825    6.7562   10.7581 H   0  0  0  0  0  0  0  0  0  0  0  0
   10.5159    3.4764   10.1395 B   0  0  0  0  0  0  0  0  0  0  0  0
   11.2481    2.6678    9.9972 H   0  0  0  0  0  0  0  0  0  0  0  0
    9.3876    3.4525   11.4645 B   0  0  0  0  0  0  0  0  0  0  0  0
    9.3641    2.6249   12.1894 H   0  0  0  0  0  0  0  0  0  0  0  0
    9.7785    4.2856    8.7961 B   0  0  0  0  0  0  0  0  0  0  0  0
   10.0232    4.0306    7.7542 H   0  0  0  0  0  0  0  0  0  0  0  0
    7.9379    4.2469   10.9690 B   0  0  0  0  0  0  0  0  0  0  0  0
    6.9607    3.9420   11.3714 H   0  0  0  0  0  0  0  0  0  0  0  0
    8.8422    3.2342    9.8025 B   0  0  0  0  0  0  0  0  0  0  0  0
    8.4638    2.2758    9.4178 H   0  0  0  0  0  0  0  0  0  0  0  0
    8.1324    4.7493    9.3085 B   0  0  0  0  0  0  0  0  0  0  0  0
    7.2818    4.7888    8.6113 H   0  0  0  0  0  0  0  0  0  0  0  0
  1  2  1  0  0  0  0
  2  6  1  0  0  0  0
  3  1  1  0  0  0  0
  4  1  1  0  0  0  0
  5  3  1  0  0  0  0
  6  8  1  0  0  0  0
  7  1  1  0  0  0  0
  8  7  4  0  0  0  0
  9 10  1  0  0  0  0
 11  5  1  0  0  0  0
 12  3  1  0  0  0  0
 13 12  1  0  0  0  0
 14  8  4  0  0  0  0
 15 14  1  0  0  0  0
 16  9  4  0  0  0  0
 17 16  1  0  0  0  0
 18  4  1  0  0  0  0
 19  2  1  0  0  0  0
 20 19  1  0  0  0  0
 21  2  1  0  0  0  0
 22 21  1  0  0  0  0
 23 12  1  0  0  0  0
 24 23  1  0  0  0  0
 25 23  1  0  0  0  0
 26 23  1  0  0  0  0
 27  3  1  0  0  0  0
 28 27  1  0  0  0  0
 29 12  1  0  0  0  0
 30 29  1  0  0  0  0
 31 29  1  0  0  0  0
 32 29  1  0  0  0  0
 33 21  1  0  0  0  0
 34 33  1  0  0  0  0
 35 33  1  0  0  0  0
 36 33  1  0  0  0  0
 37 19  1  0  0  0  0
 38 37  1  0  0  0  0
 39 37  1  0  0  0  0
 40 37  1  0  0  0  0
 41 19  1  0  0  0  0
 42 41  1  0  0  0  0
 43 41  1  0  0  0  0
 44 41  1  0  0  0  0
 45 27  1  0  0  0  0
 46 45  1  0  0  0  0
 47 45  1  0  0  0  0
 48 45  1  0  0  0  0
 49 18  1  0  0  0  0
 50 49  1  0  0  0  0
 51 18  1  0  0  0  0
 52 51  1  0  0  0  0
 53 27  1  0  0  0  0
 54 53  1  0  0  0  0
 55 53  1  0  0  0  0
 56 53  1  0  0  0  0
 57 21  1  0  0  0  0
 58 57  1  0  0  0  0
 59 57  1  0  0  0  0
 60 57  1  0  0  0  0
 61 18  1  0  0  0  0
 62 61  1  0  0  0  0
 63 18  1  0  0  0  0
 64 63  1  0  0  0  0
 65 18  1  0  0  0  0
 66 65  1  0  0  0  0
 67 61  1  0  0  0  0
 68 67  1  0  0  0  0
 69 49  1  0  0  0  0
 70 69  1  0  0  0  0
 71 51  1  0  0  0  0
 72 71  1  0  0  0  0
 73 49  1  0  0  0  0
 74 73  1  0  0  0  0
 75 67  1  0  0  0  0
 76 75  1  0  0  0  0
 77 51  1  0  0  0  0
 78 77  1  0  0  0  0
  7 11  4  0  0  0  0
  9 11  4  0  0  0  0
 14 16  4  0  0  0  0
 49 63  1  0  0  0  0
 49 65  1  0  0  0  0
 51 61  1  0  0  0  0
 51 65  1  0  0  0  0
 61 63  1  0  0  0  0
 61 71  1  0  0  0  0
 63 67  1  0  0  0  0
 63 69  1  0  0  0  0
 65 73  1  0  0  0  0
 65 77  1  0  0  0  0
 67 69  1  0  0  0  0
 67 71  1  0  0  0  0
 69 73  1  0  0  0  0
 69 75  1  0  0  0  0
 71 75  1  0  0  0  0
 71 77  1  0  0  0  0
 73 75  1  0  0  0  0
 73 77  1  0  0  0  0
 75 77  1  0  0  0  0
M  END
$$$$
LURHOW

From CSD data. Using bond type 'Any'. Matching problem. No disordered atoms. Largest molecule.
 77 78  0  0  0  0  0  0  0  0999 V2000
   -1.2834    3.4887    9.2572 B   0  5  0  0  0  0  0  0  0  0  0  0
   -2.2144    4.4149    9.7422 H   0  0  0  0  0  0  0  0  0  0  0  0
    0.7116    5.3856    9.9494 B   0  5  0  0  0  0  0  0  0  0  0  0
   -1.9768    2.1398    8.7154 C   0  0  0  0  0  0  0  0  0  0  0  0
   -3.0198    2.4437    7.6355 C   0  0  0  0  0  0  0  0  0  0  0  0
   -3.4385    1.6073    7.3434 H   0  0  0  0  0  0  0  0  0  0  0  0
   -2.5845    2.8741    6.8725 H   0  0  0  0  0  0  0  0  0  0  0  0
   -3.7034    3.0428    8.0020 H   0  0  0  0  0  0  0  0  0  0  0  0
   -0.9715    1.1248    8.0958 C   0  0  0  0  0  0  0  0  0  0  0  0
   -0.2873    0.8941    8.7597 H   0  0  0  0  0  0  0  0  0  0  0  0
   -0.5439    1.5286    7.3116 H   0  0  0  0  0  0  0  0  0  0  0  0
   -1.4497    0.3139    7.8250 H   0  0  0  0  0  0  0  0  0  0  0  0
   -2.6828    1.4110    9.8679 C   0  0  0  0  0  0  0  0  0  0  0  0
   -3.4037    1.9745   10.2185 H   0  0  0  0  0  0  0  0  0  0  0  0
   -2.0357    1.2258   10.5814 H   0  0  0  0  0  0  0  0  0  0  0  0
   -3.0586    0.5668    9.5404 H   0  0  0  0  0  0  0  0  0  0  0  0
   -0.3429    4.9445    8.2585 P   0  3  0  0  0  0  0  0  0  0  0  0
    0.6211    4.7155    6.6955 C   0  0  0  0  0  0  0  0  0  0  0  0
    1.0366    5.5996    6.4848 H   0  0  0  0  0  0  0  0  0  0  0  0
    1.7653    3.7150    6.8336 C   0  0  0  0  0  0  0  0  0  0  0  0
    1.3987    2.8165    6.9681 H   0  0  0  0  0  0  0  0  0  0  0  0
    2.3226    3.9601    7.6001 H   0  0  0  0  0  0  0  0  0  0  0  0
    2.3091    3.7261    6.0174 H   0  0  0  0  0  0  0  0  0  0  0  0
   -0.2760    4.3517    5.4916 C   0  0  0  0  0  0  0  0  0  0  0  0
    0.2839    4.2219    4.6967 H   0  0  0  0  0  0  0  0  0  0  0  0
   -0.9118    5.0772    5.3270 H   0  0  0  0  0  0  0  0  0  0  0  0
   -0.7632    3.5253    5.6846 H   0  0  0  0  0  0  0  0  0  0  0  0
   -1.4998    6.3617    7.9666 C   0  0  0  0  0  0  0  0  0  0  0  0
   -1.7965    6.6457    8.8783 H   0  0  0  0  0  0  0  0  0  0  0  0
   -2.7977    6.0434    7.2071 C   0  0  0  0  0  0  0  0  0  0  0  0
   -3.4099    6.8065    7.2744 H   0  0  0  0  0  0  0  0  0  0  0  0
   -3.2207    5.2513    7.6001 H   0  0  0  0  0  0  0  0  0  0  0  0
   -2.5922    5.8714    6.2653 H   0  0  0  0  0  0  0  0  0  0  0  0
   -0.7726    7.5830    7.3877 C   0  0  0  0  0  0  0  0  0  0  0  0
   -0.5551    7.4189    6.4458 H   0  0  0  0  0  0  0  0  0  0  0  0
    0.0513    7.7406    7.8922 H   0  0  0  0  0  0  0  0  0  0  0  0
   -1.3502    8.3706    7.4549 H   0  0  0  0  0  0  0  0  0  0  0  0
    1.3498    2.4116   11.1019 C   0  0  0  0  0  0  0  0  0  0  0  0
    1.8886    2.7854   11.8560 H   0  0  0  0  0  0  0  0  0  0  0  0
    2.3017    2.1853    9.9812 C   0  0  0  0  0  0  0  0  0  0  0  0
    2.9951    1.5519   10.2627 H   0  0  0  0  0  0  0  0  0  0  0  0
    2.7197    3.0361    9.7316 H   0  0  0  0  0  0  0  0  0  0  0  0
    1.8196    1.8203    9.2094 H   0  0  0  0  0  0  0  0  0  0  0  0
    0.7891    1.0616   11.6029 C   0  0  0  0  0  0  0  0  0  0  0  0
    0.2577    0.6467   10.8930 H   0  0  0  0  0  0  0  0  0  0  0  0
    0.2239    1.2147   12.3889 H   0  0  0  0  0  0  0  0  0  0  0  0
    1.5323    0.4692   11.8437 H   0  0  0  0  0  0  0  0  0  0  0  0
    0.0292    3.6482   10.7506 P   0  3  0  0  0  0  0  0  0  0  0  0
   -0.7629    3.6373   12.4261 C   0  0  0  0  0  0  0  0  0  0  0  0
   -1.0174    2.6833   12.5854 H   0  0  0  0  0  0  0  0  0  0  0  0
   -2.0872    4.4016   12.4031 C   0  0  0  0  0  0  0  0  0  0  0  0
   -2.6122    4.1709   13.1980 H   0  0  0  0  0  0  0  0  0  0  0  0
   -2.5884    4.1609   11.5976 H   0  0  0  0  0  0  0  0  0  0  0  0
   -1.9046    5.3656   12.3995 H   0  0  0  0  0  0  0  0  0  0  0  0
    0.2063    3.9712   13.5273 C   0  0  0  0  0  0  0  0  0  0  0  0
    0.7928    4.6967   13.2369 H   0  0  0  0  0  0  0  0  0  0  0  0
    0.7476    3.1759   13.7344 H   0  0  0  0  0  0  0  0  0  0  0  0
   -0.2879    4.2441   14.3257 H   0  0  0  0  0  0  0  0  0  0  0  0
    2.2854    5.6895    9.9317 C   0  0  0  0  0  0  0  0  0  0  0  0
    3.0780    5.4211   11.0452 C   0  0  0  0  0  0  0  0  0  0  0  0
    2.6807    5.0139   11.8065 H   0  0  0  0  0  0  0  0  0  0  0  0
    4.4273    5.7316   11.0735 C   0  0  0  0  0  0  0  0  0  0  0  0
    4.9472    5.5220   11.8401 H   0  0  0  0  0  0  0  0  0  0  0  0
    5.0163    6.3484    9.9830 C   0  0  0  0  0  0  0  0  0  0  0  0
    5.9393    6.5692   10.0043 H   0  0  0  0  0  0  0  0  0  0  0  0
    4.2696    6.6402    8.8695 C   0  0  0  0  0  0  0  0  0  0  0  0
    4.6723    7.0595    8.1188 H   0  0  0  0  0  0  0  0  0  0  0  0
    2.9191    6.3162    8.8535 C   0  0  0  0  0  0  0  0  0  0  0  0
    2.4075    6.5292    8.0817 H   0  0  0  0  0  0  0  0  0  0  0  0
   -0.0974    6.5270   10.5941 O   0  0  0  0  0  0  0  0  0  0  0  0
    0.4102    7.7761   11.2771 S   0  0  0  0  0  0  0  0  0  0  0  0
    1.1431    8.6258   10.4309 O   0  0  0  0  0  0  0  0  0  0  0  0
    0.8442    7.5320   12.6067 O   0  0  0  0  0  0  0  0  0  0  0  0
   -1.2027    8.6080   11.4382 C   0  0  0  0  0  0  0  0  0  0  0  0
   -1.5236    9.1737   10.2769 F   0  0  0  0  0  0  0  0  0  0  0  0
   -1.1142    9.5398   12.3677 F   0  0  0  0  0  0  0  0  0  0  0  0
   -2.2044    7.7905   11.7250 F   0  0  0  0  0  0  0  0  0  0  0  0
  1  2  1  0  0  0  0
  3 17  1  0  0  0  0
  4  1  1  0  0  0  0
  5  4  1  0  0  0  0
  6  5  1  0  0  0  0
  7  5  1  0  0  0  0
  8  5  1  0  0  0  0
  9  4  1  0  0  0  0
 10  9  1  0  0  0  0
 11  9  1  0  0  0  0
 12  9  1  0  0  0  0
 13  4  1  0  0  0  0
 14 13  1  0  0  0  0
 15 13  1  0  0  0  0
 16 13  1  0  0  0  0
 17  1  1  0  0  0  0
 18 17  1  0  0  0  0
 19 18  1  0  0  0  0
 20 18  1  0  0  0  0
 21 20  1  0  0  0  0
 22 20  1  0  0  0  0
 23 20  1  0  0  0  0
 24 18  1  0  0  0  0
 25 24  1  0  0  0  0
 26 24  1  0  0  0  0
 27 24  1  0  0  0  0
 28 17  1  0  0  0  0
 29 28  1  0  0  0  0
 30 28  1  0  0  0  0
 31 30  1  0  0  0  0
 32 30  1  0  0  0  0
 33 30  1  0  0  0  0
 34 28  1  0  0  0  0
 35 34  1  0  0  0  0
 36 34  1  0  0  0  0
 37 34  1  0  0  0  0
 38 39  1  0  0  0  0
 40 38  1  0  0  0  0
 41 40  1  0  0  0  0
 42 40  1  0  0  0  0
 43 40  1  0  0  0  0
 44 38  1  0  0  0  0
 45 44  1  0  0  0  0
 46 44  1  0  0  0  0
 47 44  1  0  0  0  0
 48  1  1  0  0  0  0
 49 48  1  0  0  0  0
 50 49  1  0  0  0  0
 51 49  1  0  0  0  0
 52 51  1  0  0  0  0
 53 51  1  0  0  0  0
 54 51  1  0  0  0  0
 55 49  1  0  0  0  0
 56 55  1  0  0  0  0
 57 55  1  0  0  0  0
 58 55  1  0  0  0  0
 59  3  1  0  0  0  0
 60 59  4  0  0  0  0
 61 60  1  0  0  0  0
 62 60  4  0  0  0  0
 63 62  1  0  0  0  0
 64 62  4  0  0  0  0
 65 64  1  0  0  0  0
 66 64  4  0  0  0  0
 67 66  1  0  0  0  0
 68 59  4  0  0  0  0
 69 68  1  0  0  0  0
 70  3  1  0  0  0  0
 71 70  1  0  0  0  0
 72 71  2  0  0  0  0
 73 71  2  0  0  0  0
 74 71  1  0  0  0  0
 75 74  1  0  0  0  0
 76 74  1  0  0  0  0
 77 74  1  0  0  0  0
  3 48  1  0  0  0  0
 38 48  1  0  0  0  0
 66 68  4  0  0  0  0
M  CHG  4   1  -1   3  -1  17   1  48   1
M  END
$$$$
LURHUC

From CSD data. Using bond type 'Any'. No disordered atoms. Largest molecule.
 79 79  0  0  0  0  0  0  0  0999 V2000
   -1.2377    6.4178    1.8206 B   0  5  0  0  0  0  0  0  0  0  0  0
   -2.0358    7.1312    0.6194 C   0  0  0  0  0  0  0  0  0  0  0  0
   -2.6024    7.8342    1.0256 H   0  0  0  0  0  0  0  0  0  0  0  0
   -1.3637    7.5950    0.0601 H   0  0  0  0  0  0  0  0  0  0  0  0
   -2.9424    6.3171   -0.3416 C   0  0  0  0  0  0  0  0  0  0  0  0
   -2.3378    5.7884   -0.9370 H   0  0  0  0  0  0  0  0  0  0  0  0
   -3.8773    5.3327    0.3304 C   0  0  0  0  0  0  0  0  0  0  0  0
   -4.5339    5.8207    0.8680 H   0  0  0  0  0  0  0  0  0  0  0  0
   -3.3601    4.7348    0.9100 H   0  0  0  0  0  0  0  0  0  0  0  0
   -4.3419    4.8042   -0.3529 H   0  0  0  0  0  0  0  0  0  0  0  0
   -3.7294    7.2718   -1.2359 C   0  0  0  0  0  0  0  0  0  0  0  0
   -4.2682    6.7547   -1.8711 H   0  0  0  0  0  0  0  0  0  0  0  0
   -3.1068    7.8471   -1.7284 H   0  0  0  0  0  0  0  0  0  0  0  0
   -4.3194    7.8261   -0.6833 H   0  0  0  0  0  0  0  0  0  0  0  0
   -3.1977    6.6663    3.7797 S   0  0  0  0  0  0  0  0  0  0  0  0
   -2.1610    5.9210    2.9622 O   0  0  0  0  0  0  0  0  0  0  0  0
   -2.6064    7.5255    4.7475 O   0  0  0  0  0  0  0  0  0  0  0  0
   -4.2923    7.1495    3.0290 O   0  0  0  0  0  0  0  0  0  0  0  0
   -3.8163    5.2166    4.7197 C   0  0  0  0  0  0  0  0  0  0  0  0
   -2.8372    4.6031    5.3516 F   0  0  0  0  0  0  0  0  0  0  0  0
   -4.7049    5.6282    5.5950 F   0  0  0  0  0  0  0  0  0  0  0  0
   -4.3890    4.3445    3.8968 F   0  0  0  0  0  0  0  0  0  0  0  0
    1.5211    6.2486    1.4694 B   0  5  0  0  0  0  0  0  0  0  0  0
    3.1210    6.0531    1.5781 C   0  0  0  0  0  0  0  0  0  0  0  0
    3.6169    5.0966    0.4805 C   0  0  0  0  0  0  0  0  0  0  0  0
    4.5936    5.0240    0.5271 H   0  0  0  0  0  0  0  0  0  0  0  0
    3.3566    5.4442   -0.3979 H   0  0  0  0  0  0  0  0  0  0  0  0
    3.2166    4.2112    0.6127 H   0  0  0  0  0  0  0  0  0  0  0  0
    3.7937    7.4218    1.3425 C   0  0  0  0  0  0  0  0  0  0  0  0
    3.4714    8.0636    2.0092 H   0  0  0  0  0  0  0  0  0  0  0  0
    3.5713    7.7453    0.4445 H   0  0  0  0  0  0  0  0  0  0  0  0
    4.7656    7.3268    1.4236 H   0  0  0  0  0  0  0  0  0  0  0  0
    3.6436    5.5292    2.9222 C   0  0  0  0  0  0  0  0  0  0  0  0
    3.2783    4.6346    3.0874 H   0  0  0  0  0  0  0  0  0  0  0  0
    3.3640    6.1358    3.6400 H   0  0  0  0  0  0  0  0  0  0  0  0
    4.6223    5.4830    2.8952 H   0  0  0  0  0  0  0  0  0  0  0  0
    0.0534    4.9136    1.3746 P   0  3  0  0  0  0  0  0  0  0  0  0
   -0.1646    4.1165   -0.2976 C   0  0  0  0  0  0  0  0  0  0  0  0
   -1.1401    3.9203   -0.4054 H   0  0  0  0  0  0  0  0  0  0  0  0
    0.2313    5.0706   -1.4275 C   0  0  0  0  0  0  0  0  0  0  0  0
    1.2061    5.1727   -1.4431 H   0  0  0  0  0  0  0  0  0  0  0  0
   -0.1853    5.9451   -1.2779 H   0  0  0  0  0  0  0  0  0  0  0  0
   -0.0718    4.7057   -2.2855 H   0  0  0  0  0  0  0  0  0  0  0  0
    0.5830    2.7909   -0.4610 C   0  0  0  0  0  0  0  0  0  0  0  0
    0.4697    2.4627   -1.3770 H   0  0  0  0  0  0  0  0  0  0  0  0
    0.2238    2.1331    0.1682 H   0  0  0  0  0  0  0  0  0  0  0  0
    1.5373    2.9297   -0.2808 H   0  0  0  0  0  0  0  0  0  0  0  0
   -0.1647    3.5815    2.6500 C   0  0  0  0  0  0  0  0  0  0  0  0
   -0.2769    4.0577    3.5214 H   0  0  0  0  0  0  0  0  0  0  0  0
   -1.4685    2.7984    2.4327 C   0  0  0  0  0  0  0  0  0  0  0  0
   -1.3914    2.2526    1.6233 H   0  0  0  0  0  0  0  0  0  0  0  0
   -2.2144    3.4258    2.3336 H   0  0  0  0  0  0  0  0  0  0  0  0
   -1.6323    2.2171    3.2045 H   0  0  0  0  0  0  0  0  0  0  0  0
    1.0157    2.6379    2.8456 C   0  0  0  0  0  0  0  0  0  0  0  0
    0.9083    2.1508    3.6896 H   0  0  0  0  0  0  0  0  0  0  0  0
    1.8469    3.1560    2.8712 H   0  0  0  0  0  0  0  0  0  0  0  0
    1.0501    1.9989    2.1038 H   0  0  0  0  0  0  0  0  0  0  0  0
    0.3680    7.4562    2.5231 P   0  3  0  0  0  0  0  0  0  0  0  0
    0.5476    7.5448    4.3772 C   0  0  0  0  0  0  0  0  0  0  0  0
   -0.2555    8.0281    4.7272 H   0  0  0  0  0  0  0  0  0  0  0  0
    1.7799    8.3552    4.7972 C   0  0  0  0  0  0  0  0  0  0  0  0
    1.9040    8.2818    5.7663 H   0  0  0  0  0  0  0  0  0  0  0  0
    1.6498    9.2950    4.5545 H   0  0  0  0  0  0  0  0  0  0  0  0
    2.5723    8.0055    4.3398 H   0  0  0  0  0  0  0  0  0  0  0  0
    0.5635    6.1654    5.0394 C   0  0  0  0  0  0  0  0  0  0  0  0
    1.2494    5.6074    4.6161 H   0  0  0  0  0  0  0  0  0  0  0  0
   -0.3141    5.7415    4.9329 H   0  0  0  0  0  0  0  0  0  0  0  0
    0.7646    6.2635    5.9931 H   0  0  0  0  0  0  0  0  0  0  0  0
    0.4776    9.2554    2.0523 C   0  0  0  0  0  0  0  0  0  0  0  0
    1.2933    9.6182    2.5033 H   0  0  0  0  0  0  0  0  0  0  0  0
   -0.7123   10.0309    2.6204 C   0  0  0  0  0  0  0  0  0  0  0  0
   -0.5891   10.9885    2.4492 H   0  0  0  0  0  0  0  0  0  0  0  0
   -0.7732    9.8751    3.5859 H   0  0  0  0  0  0  0  0  0  0  0  0
   -1.5377    9.7265    2.1879 H   0  0  0  0  0  0  0  0  0  0  0  0
    0.6495    9.5254    0.5616 C   0  0  0  0  0  0  0  0  0  0  0  0
   -0.1697    9.2756    0.0871 H   0  0  0  0  0  0  0  0  0  0  0  0
    1.4003    8.9960    0.2192 H   0  0  0  0  0  0  0  0  0  0  0  0
    0.8302   10.4779    0.4220 H   0  0  0  0  0  0  0  0  0  0  0  0
    1.2026    6.7709    0.5106 H   0  0  0  0  0  0  0  0  0  0  0  0
  1  2  1  0  0  0  0
  2  3  1  0  0  0  0
  4  2  1  0  0  0  0
  5  2  1  0  0  0  0
  6  5  1  0  0  0  0
  7  5  1  0  0  0  0
  8  7  1  0  0  0  0
  9  7  1  0  0  0  0
 10  7  1  0  0  0  0
 11  5  1  0  0  0  0
 12 11  1  0  0  0  0
 13 11  1  0  0  0  0
 14 11  1  0  0  0  0
 15 16  1  0  0  0  0
 16  1  1  0  0  0  0
 17 15  2  0  0  0  0
 18 15  2  0  0  0  0
 19 15  1  0  0  0  0
 20 19  1  0  0  0  0
 21 19  1  0  0  0  0
 22 19  1  0  0  0  0
 23 24  1  0  0  0  0
 24 25  1  0  0  0  0
 25 26  1  0  0  0  0
 27 25  1  0  0  0  0
 28 25  1  0  0  0  0
 29 24  1  0  0  0  0
 30 29  1  0  0  0  0
 31 29  1  0  0  0  0
 32 29  1  0  0  0  0
 33 24  1  0  0  0  0
 34 33  1  0  0  0  0
 35 33  1  0  0  0  0
 36 33  1  0  0  0  0
 37  1  1  0  0  0  0
 38 37  1  0  0  0  0
 39 38  1  0  0  0  0
 40 38  1  0  0  0  0
 41 40  1  0  0  0  0
 42 40  1  0  0  0  0
 43 40  1  0  0  0  0
 44 38  1  0  0  0  0
 45 44  1  0  0  0  0
 46 44  1  0  0  0  0
 47 44  1  0  0  0  0
 48 37  1  0  0  0  0
 49 48  1  0  0  0  0
 50 48  1  0  0  0  0
 51 50  1  0  0  0  0
 52 50  1  0  0  0  0
 53 50  1  0  0  0  0
 54 48  1  0  0  0  0
 55 54  1  0  0  0  0
 56 54  1  0  0  0  0
 57 54  1  0  0  0  0
 58  1  1  0  0  0  0
 59 58  1  0  0  0  0
 60 59  1  0  0  0  0
 61 59  1  0  0  0  0
 62 61  1  0  0  0  0
 63 61  1  0  0  0  0
 64 61  1  0  0  0  0
 65 59  1  0  0  0  0
 66 65  1  0  0  0  0
 67 65  1  0  0  0  0
 68 65  1  0  0  0  0
 69 58  1  0  0  0  0
 70 69  1  0  0  0  0
 71 69  1  0  0  0  0
 72 71  1  0  0  0  0
 73 71  1  0  0  0  0
 74 71  1  0  0  0  0
 75 69  1  0  0  0  0
 76 75  1  0  0  0  0
 77 75  1  0  0  0  0
 78 75  1  0  0  0  0
 79 23  1  0  0  0  0
 23 37  1  0  0  0  0
 23 58  1  0  0  0  0
M  CHG  4   1  -1  23  -1  37   1  58   1
M  END
$$$$
LURTIC

From CSD data. Using bond type 'Any'. No disordered atoms. Largest molecule.
 85 92  0  0  0  0  0  0  0  0999 V2000
    0.3343    6.2974   11.3864 Cu  0  2  0  0  0  0  0  0  0  0  0  0
    2.4380    4.3411   10.3366 P   0  0  0  0  0  0  0  0  0  0  0  0
    2.0905    5.7184   10.8805 O   0  0  0  0  0  0  0  0  0  0  0  0
   -0.5291    5.1434    9.9474 N   0  0  0  0  0  0  0  0  0  0  0  0
    0.9804    3.2724   10.4061 C   0  0  0  0  0  0  0  0  0  0  0  0
    1.2008    2.3824   10.0337 H   0  0  0  0  0  0  0  0  0  0  0  0
    0.6971    3.1540   11.3477 H   0  0  0  0  0  0  0  0  0  0  0  0
   -0.1335    3.8903    9.6159 C   0  0  0  0  0  0  0  0  0  0  0  0
   -0.7200    3.2005    8.5615 C   0  0  0  0  0  0  0  0  0  0  0  0
   -0.4346    2.3195    8.3497 H   0  0  0  0  0  0  0  0  0  0  0  0
   -1.7184    3.8021    7.8248 C   0  0  0  0  0  0  0  0  0  0  0  0
   -2.1228    3.3449    7.0972 H   0  0  0  0  0  0  0  0  0  0  0  0
   -2.1229    5.0881    8.1595 C   0  0  0  0  0  0  0  0  0  0  0  0
   -2.8137    5.5215    7.6722 H   0  0  0  0  0  0  0  0  0  0  0  0
   -1.5048    5.7227    9.2150 C   0  0  0  0  0  0  0  0  0  0  0  0
   -1.7764    6.6067    9.4359 H   0  0  0  0  0  0  0  0  0  0  0  0
    3.7457    3.5909   11.2976 C   0  0  0  0  0  0  0  0  0  0  0  0
    4.9595    4.2767   11.3728 C   0  0  0  0  0  0  0  0  0  0  0  0
    5.0943    5.0604   10.8536 H   0  0  0  0  0  0  0  0  0  0  0  0
    5.9648    3.8168   12.2017 C   0  0  0  0  0  0  0  0  0  0  0  0
    6.7869    4.2896   12.2598 H   0  0  0  0  0  0  0  0  0  0  0  0
    5.7735    2.6626   12.9509 C   0  0  0  0  0  0  0  0  0  0  0  0
    6.4691    2.3415   13.5134 H   0  0  0  0  0  0  0  0  0  0  0  0
    4.5722    1.9771   12.8815 C   0  0  0  0  0  0  0  0  0  0  0  0
    4.4464    1.1888   13.3962 H   0  0  0  0  0  0  0  0  0  0  0  0
    3.5547    2.4377   12.0628 C   0  0  0  0  0  0  0  0  0  0  0  0
    2.7281    1.9699   12.0229 H   0  0  0  0  0  0  0  0  0  0  0  0
    2.9143    4.4837    8.6173 C   0  0  0  0  0  0  0  0  0  0  0  0
    3.6063    3.4657    7.9557 C   0  0  0  0  0  0  0  0  0  0  0  0
    3.8857    2.6919    8.4317 H   0  0  0  0  0  0  0  0  0  0  0  0
    3.8846    3.5856    6.6076 C   0  0  0  0  0  0  0  0  0  0  0  0
    4.3501    2.8926    6.1532 H   0  0  0  0  0  0  0  0  0  0  0  0
    3.4835    4.7224    5.9153 C   0  0  0  0  0  0  0  0  0  0  0  0
    3.6865    4.8099    4.9918 H   0  0  0  0  0  0  0  0  0  0  0  0
    2.7877    5.7287    6.5666 C   0  0  0  0  0  0  0  0  0  0  0  0
    2.5024    6.4951    6.0826 H   0  0  0  0  0  0  0  0  0  0  0  0
    2.5070    5.6226    7.9215 C   0  0  0  0  0  0  0  0  0  0  0  0
    2.0419    6.3180    8.3713 H   0  0  0  0  0  0  0  0  0  0  0  0
    0.3562    3.6225   14.2592 B   0  5  0  0  0  0  0  0  0  0  0  0
    0.1954    4.5298   13.1782 F   0  0  0  0  0  0  0  0  0  0  0  0
    0.2956    2.3267   13.7273 F   0  0  0  0  0  0  0  0  0  0  0  0
    1.5738    3.8439   14.8401 F   0  0  0  0  0  0  0  0  0  0  0  0
   -0.6777    3.8075   15.1444 F   0  0  0  0  0  0  0  0  0  0  0  0
   -1.7695    8.2538   12.4363 P   0  0  0  0  0  0  0  0  0  0  0  0
   -1.4219    6.8765   11.8923 O   0  0  0  0  0  0  0  0  0  0  0  0
    1.1976    7.4515   12.8255 N   0  0  0  0  0  0  0  0  0  0  0  0
   -0.3118    9.3225   12.3668 C   0  0  0  0  0  0  0  0  0  0  0  0
   -0.5323   10.2125   12.7392 H   0  0  0  0  0  0  0  0  0  0  0  0
   -0.0286    9.4409   11.4252 H   0  0  0  0  0  0  0  0  0  0  0  0
    0.8021    8.7046   13.1570 C   0  0  0  0  0  0  0  0  0  0  0  0
    1.3885    9.3944   14.2114 C   0  0  0  0  0  0  0  0  0  0  0  0
    1.1031   10.2754   14.4232 H   0  0  0  0  0  0  0  0  0  0  0  0
    2.3870    8.7928   14.9481 C   0  0  0  0  0  0  0  0  0  0  0  0
    2.7914    9.2500   15.6757 H   0  0  0  0  0  0  0  0  0  0  0  0
    2.7914    7.5068   14.6134 C   0  0  0  0  0  0  0  0  0  0  0  0
    3.4822    7.0733   15.1007 H   0  0  0  0  0  0  0  0  0  0  0  0
    2.1734    6.8722   13.5578 C   0  0  0  0  0  0  0  0  0  0  0  0
    2.4449    5.9882   13.3369 H   0  0  0  0  0  0  0  0  0  0  0  0
   -3.0772    9.0039   11.4753 C   0  0  0  0  0  0  0  0  0  0  0  0
   -4.2910    8.3182   11.4001 C   0  0  0  0  0  0  0  0  0  0  0  0
   -4.4257    7.5345   11.9193 H   0  0  0  0  0  0  0  0  0  0  0  0
   -5.2962    8.7781   10.5712 C   0  0  0  0  0  0  0  0  0  0  0  0
   -6.1183    8.3053   10.5131 H   0  0  0  0  0  0  0  0  0  0  0  0
   -5.1050    9.9323    9.8219 C   0  0  0  0  0  0  0  0  0  0  0  0
   -5.8005   10.2533    9.2595 H   0  0  0  0  0  0  0  0  0  0  0  0
   -3.9036   10.6178    9.8914 C   0  0  0  0  0  0  0  0  0  0  0  0
   -3.7778   11.4061    9.3767 H   0  0  0  0  0  0  0  0  0  0  0  0
   -2.8861   10.1572   10.7101 C   0  0  0  0  0  0  0  0  0  0  0  0
   -2.0596   10.6250   10.7499 H   0  0  0  0  0  0  0  0  0  0  0  0
   -2.2457    8.1112   14.1556 C   0  0  0  0  0  0  0  0  0  0  0  0
   -2.9377    9.1292   14.8172 C   0  0  0  0  0  0  0  0  0  0  0  0
   -3.2172    9.9030   14.3412 H   0  0  0  0  0  0  0  0  0  0  0  0
   -3.2160    9.0093   16.1653 C   0  0  0  0  0  0  0  0  0  0  0  0
   -3.6815    9.7023   16.6197 H   0  0  0  0  0  0  0  0  0  0  0  0
   -2.8150    7.8725   16.8576 C   0  0  0  0  0  0  0  0  0  0  0  0
   -3.0179    7.7850   17.7811 H   0  0  0  0  0  0  0  0  0  0  0  0
   -2.1191    6.8662   16.2063 C   0  0  0  0  0  0  0  0  0  0  0  0
   -1.8339    6.0998   16.6903 H   0  0  0  0  0  0  0  0  0  0  0  0
   -1.8385    6.9723   14.8513 C   0  0  0  0  0  0  0  0  0  0  0  0
   -1.3734    6.2768   14.4016 H   0  0  0  0  0  0  0  0  0  0  0  0
    0.3124    8.9724    8.5136 B   0  5  0  0  0  0  0  0  0  0  0  0
    0.4732    8.0651    9.5947 F   0  0  0  0  0  0  0  0  0  0  0  0
    0.3730   10.2682    9.0456 F   0  0  0  0  0  0  0  0  0  0  0  0
   -0.9052    8.7509    7.9328 F   0  0  0  0  0  0  0  0  0  0  0  0
    1.3463    8.7874    7.6285 F   0  0  0  0  0  0  0  0  0  0  0  0
  1  3  1  0  0  0  0
  2  3  2  0  0  0  0
  4  1  1  0  0  0  0
  5  2  1  0  0  0  0
  6  5  1  0  0  0  0
  7  5  1  0  0  0  0
  8  4  4  0  0  0  0
  9  8  4  0  0  0  0
 10  9  1  0  0  0  0
 11  9  4  0  0  0  0
 12 11  1  0  0  0  0
 13 11  4  0  0  0  0
 14 13  1  0  0  0  0
 15  4  4  0  0  0  0
 16 15  1  0  0  0  0
 17  2  1  0  0  0  0
 18 17  4  0  0  0  0
 19 18  1  0  0  0  0
 20 18  4  0  0  0  0
 21 20  1  0  0  0  0
 22 20  4  0  0  0  0
 23 22  1  0  0  0  0
 24 22  4  0  0  0  0
 25 24  1  0  0  0  0
 26 17  4  0  0  0  0
 27 26  1  0  0  0  0
 28  2  1  0  0  0  0
 29 28  4  0  0  0  0
 30 29  1  0  0  0  0
 31 29  4  0  0  0  0
 32 31  1  0  0  0  0
 33 31  4  0  0  0  0
 34 33  1  0  0  0  0
 35 33  4  0  0  0  0
 36 35  1  0  0  0  0
 37 28  4  0  0  0  0
 38 37  1  0  0  0  0
 39 40  1  0  0  0  0
 40  1  1  0  0  0  0
 41 39  1  0  0  0  0
 42 39  1  0  0  0  0
 43 39  1  0  0  0  0
 44 45  2  0  0  0  0
 45  1  1  0  0  0  0
 46  1  1  0  0  0  0
 47 44  1  0  0  0  0
 48 47  1  0  0  0  0
 49 47  1  0  0  0  0
 50 46  4  0  0  0  0
 51 50  4  0  0  0  0
 52 51  1  0  0  0  0
 53 51  4  0  0  0  0
 54 53  1  0  0  0  0
 55 53  4  0  0  0  0
 56 55  1  0  0  0  0
 57 46  4  0  0  0  0
 58 57  1  0  0  0  0
 59 44  1  0  0  0  0
 60 59  4  0  0  0  0
 61 60  1  0  0  0  0
 62 60  4  0  0  0  0
 63 62  1  0  0  0  0
 64 62  4  0  0  0  0
 65 64  1  0  0  0  0
 66 64  4  0  0  0  0
 67 66  1  0  0  0  0
 68 59  4  0  0  0  0
 69 68  1  0  0  0  0
 70 44  1  0  0  0  0
 71 70  4  0  0  0  0
 72 71  1  0  0  0  0
 73 71  4  0  0  0  0
 74 73  1  0  0  0  0
 75 73  4  0  0  0  0
 76 75  1  0  0  0  0
 77 75  4  0  0  0  0
 78 77  1  0  0  0  0
 79 70  4  0  0  0  0
 80 79  1  0  0  0  0
 81 82  1  0  0  0  0
 82  1  1  0  0  0  0
 83 81  1  0  0  0  0
 84 81  1  0  0  0  0
 85 81  1  0  0  0  0
  5  8  1  0  0  0  0
 13 15  4  0  0  0  0
 24 26  4  0  0  0  0
 35 37  4  0  0  0  0
 47 50  1  0  0  0  0
 55 57  4  0  0  0  0
 66 68  4  0  0  0  0
 77 79  4  0  0  0  0
M  CHG  3   1   2  39  -1  81  -1
M  END
$$$$
LURTOI

From CSD data. Using bond type 'Any'. No disordered atoms. Largest molecule.
 89 96  0  0  0  0  0  0  0  0999 V2000
    3.3728    4.9985    0.0000 Cu  0  2  0  0  0  0  0  0  0  0  0  0
    5.6850    4.7381    2.0258 P   0  0  0  0  0  0  0  0  0  0  0  0
    4.2949    4.3365    1.5446 O   0  0  0  0  0  0  0  0  0  0  0  0
    4.2360    6.8616    0.2343 N   0  0  0  0  0  0  0  0  0  0  0  0
    5.5866    1.3404    2.3105 N   0  0  0  0  0  0  0  0  0  0  0  0
    6.4108    5.9403    0.8921 C   0  0  0  0  0  0  0  0  0  0  0  0
    7.2756    6.2581    1.2547 H   0  0  0  0  0  0  0  0  0  0  0  0
    6.5824    5.5103    0.0171 H   0  0  0  0  0  0  0  0  0  0  0  0
    5.4890    7.0990    0.7070 C   0  0  0  0  0  0  0  0  0  0  0  0
    5.9049    8.3864    1.0044 C   0  0  0  0  0  0  0  0  0  0  0  0
    6.7702    8.5366    1.3660 H   0  0  0  0  0  0  0  0  0  0  0  0
    5.0620    9.4466    0.7744 C   0  0  0  0  0  0  0  0  0  0  0  0
    5.3328   10.3342    0.9766 H   0  0  0  0  0  0  0  0  0  0  0  0
    3.8163    9.1950    0.2460 C   0  0  0  0  0  0  0  0  0  0  0  0
    3.2257    9.9137    0.0492 H   0  0  0  0  0  0  0  0  0  0  0  0
    3.4343    7.9084    0.0053 C   0  0  0  0  0  0  0  0  0  0  0  0
    2.5632    7.7491   -0.3391 H   0  0  0  0  0  0  0  0  0  0  0  0
    6.8531    3.3715    2.0388 C   0  0  0  0  0  0  0  0  0  0  0  0
    6.9866    3.0579    1.1092 H   0  0  0  0  0  0  0  0  0  0  0  0
    7.7256    3.7016    2.3714 H   0  0  0  0  0  0  0  0  0  0  0  0
    6.4194    2.2090    2.8849 C   0  0  0  0  0  0  0  0  0  0  0  0
    6.8594    2.0539    4.1642 C   0  0  0  0  0  0  0  0  0  0  0  0
    7.4301    2.7006    4.5632 H   0  0  0  0  0  0  0  0  0  0  0  0
    6.4544    0.9315    4.8713 C   0  0  0  0  0  0  0  0  0  0  0  0
    6.7448    0.8014    5.7666 H   0  0  0  0  0  0  0  0  0  0  0  0
    5.6461    0.0221    4.2819 C   0  0  0  0  0  0  0  0  0  0  0  0
    5.3768   -0.7648    4.7418 H   0  0  0  0  0  0  0  0  0  0  0  0
    5.2310    0.2669    3.0154 C   0  0  0  0  0  0  0  0  0  0  0  0
    4.6520   -0.3640    2.6046 H   0  0  0  0  0  0  0  0  0  0  0  0
    5.5393    5.4776    3.6518 C   0  0  0  0  0  0  0  0  0  0  0  0
    4.3163    6.0249    4.0348 C   0  0  0  0  0  0  0  0  0  0  0  0
    3.5740    5.9843    3.4454 H   0  0  0  0  0  0  0  0  0  0  0  0
    4.1835    6.6281    5.2788 C   0  0  0  0  0  0  0  0  0  0  0  0
    3.3599    7.0301    5.5291 H   0  0  0  0  0  0  0  0  0  0  0  0
    5.2506    6.6410    6.1474 C   0  0  0  0  0  0  0  0  0  0  0  0
    5.1494    7.0263    7.0095 H   0  0  0  0  0  0  0  0  0  0  0  0
    6.4584    6.1046    5.7815 C   0  0  0  0  0  0  0  0  0  0  0  0
    7.1860    6.1179    6.3934 H   0  0  0  0  0  0  0  0  0  0  0  0
    6.6237    5.5417    4.5268 C   0  0  0  0  0  0  0  0  0  0  0  0
    7.4714    5.2010    4.2637 H   0  0  0  0  0  0  0  0  0  0  0  0
    0.4435    6.5208    2.1939 B   0  5  0  0  0  0  0  0  0  0  0  0
    1.4624    5.8614    1.5168 F   0  0  0  0  0  0  0  0  0  0  0  0
   -0.5607    5.6302    2.4538 F   0  0  0  0  0  0  0  0  0  0  0  0
   -0.0562    7.5130    1.4120 F   0  0  0  0  0  0  0  0  0  0  0  0
    0.9384    7.0266    3.3491 F   0  0  0  0  0  0  0  0  0  0  0  0
    1.0605    5.2588   -2.0258 P   0  0  0  0  0  0  0  0  0  0  0  0
    2.4506    5.6604   -1.5446 O   0  0  0  0  0  0  0  0  0  0  0  0
    2.5095    3.1354   -0.2343 N   0  0  0  0  0  0  0  0  0  0  0  0
    1.1589    8.6565   -2.3105 N   0  0  0  0  0  0  0  0  0  0  0  0
    0.3347    4.0566   -0.8921 C   0  0  0  0  0  0  0  0  0  0  0  0
   -0.5300    3.7388   -1.2547 H   0  0  0  0  0  0  0  0  0  0  0  0
    0.1631    4.4867   -0.0171 H   0  0  0  0  0  0  0  0  0  0  0  0
    1.2565    2.8979   -0.7070 C   0  0  0  0  0  0  0  0  0  0  0  0
    0.8406    1.6106   -1.0044 C   0  0  0  0  0  0  0  0  0  0  0  0
   -0.0247    1.4603   -1.3660 H   0  0  0  0  0  0  0  0  0  0  0  0
    1.6835    0.5503   -0.7744 C   0  0  0  0  0  0  0  0  0  0  0  0
    1.4127   -0.3373   -0.9766 H   0  0  0  0  0  0  0  0  0  0  0  0
    2.9292    0.8019   -0.2460 C   0  0  0  0  0  0  0  0  0  0  0  0
    3.5198    0.0832   -0.0492 H   0  0  0  0  0  0  0  0  0  0  0  0
    3.3112    2.0886   -0.0053 C   0  0  0  0  0  0  0  0  0  0  0  0
    4.1823    2.2479    0.3391 H   0  0  0  0  0  0  0  0  0  0  0  0
   -0.1076    6.6254   -2.0388 C   0  0  0  0  0  0  0  0  0  0  0  0
   -0.2411    6.9390   -1.1092 H   0  0  0  0  0  0  0  0  0  0  0  0
   -0.9801    6.2953   -2.3714 H   0  0  0  0  0  0  0  0  0  0  0  0
    0.3261    7.7880   -2.8849 C   0  0  0  0  0  0  0  0  0  0  0  0
   -0.1139    7.9430   -4.1642 C   0  0  0  0  0  0  0  0  0  0  0  0
   -0.6845    7.2963   -4.5632 H   0  0  0  0  0  0  0  0  0  0  0  0
    0.2911    9.0654   -4.8713 C   0  0  0  0  0  0  0  0  0  0  0  0
    0.0008    9.1956   -5.7666 H   0  0  0  0  0  0  0  0  0  0  0  0
    1.0994    9.9748   -4.2819 C   0  0  0  0  0  0  0  0  0  0  0  0
    1.3687   10.7617   -4.7418 H   0  0  0  0  0  0  0  0  0  0  0  0
    1.5145    9.7300   -3.0154 C   0  0  0  0  0  0  0  0  0  0  0  0
    2.0935   10.3609   -2.6046 H   0  0  0  0  0  0  0  0  0  0  0  0
    1.2062    4.5194   -3.6518 C   0  0  0  0  0  0  0  0  0  0  0  0
    2.4293    3.9720   -4.0348 C   0  0  0  0  0  0  0  0  0  0  0  0
    3.1716    4.0126   -3.4454 H   0  0  0  0  0  0  0  0  0  0  0  0
    2.5620    3.3688   -5.2788 C   0  0  0  0  0  0  0  0  0  0  0  0
    3.3856    2.9668   -5.5291 H   0  0  0  0  0  0  0  0  0  0  0  0
    1.4950    3.3560   -6.1474 C   0  0  0  0  0  0  0  0  0  0  0  0
    1.5962    2.9706   -7.0095 H   0  0  0  0  0  0  0  0  0  0  0  0
    0.2871    3.8924   -5.7815 C   0  0  0  0  0  0  0  0  0  0  0  0
   -0.4405    3.8790   -6.3934 H   0  0  0  0  0  0  0  0  0  0  0  0
    0.1218    4.4552   -4.5268 C   0  0  0  0  0  0  0  0  0  0  0  0
   -0.7258    4.7959   -4.2637 H   0  0  0  0  0  0  0  0  0  0  0  0
    6.3020    3.4761   -2.1939 B   0  5  0  0  0  0  0  0  0  0  0  0
    5.2832    4.1355   -1.5168 F   0  0  0  0  0  0  0  0  0  0  0  0
    7.3063    4.3667   -2.4538 F   0  0  0  0  0  0  0  0  0  0  0  0
    6.8017    2.4839   -1.4120 F   0  0  0  0  0  0  0  0  0  0  0  0
    5.8071    2.9704   -3.3491 F   0  0  0  0  0  0  0  0  0  0  0  0
  1  3  1  0  0  0  0
  2  3  2  0  0  0  0
  4  1  1  0  0  0  0
  5 21  4  0  0  0  0
  6  2  1  0  0  0  0
  7  6  1  0  0  0  0
  8  6  1  0  0  0  0
  9  4  4  0  0  0  0
 10  9  4  0  0  0  0
 11 10  1  0  0  0  0
 12 10  4  0  0  0  0
 13 12  1  0  0  0  0
 14 12  4  0  0  0  0
 15 14  1  0  0  0  0
 16  4  4  0  0  0  0
 17 16  1  0  0  0  0
 18  2  1  0  0  0  0
 19 18  1  0  0  0  0
 20 18  1  0  0  0  0
 21 18  1  0  0  0  0
 22 21  4  0  0  0  0
 23 22  1  0  0  0  0
 24 22  4  0  0  0  0
 25 24  1  0  0  0  0
 26 24  4  0  0  0  0
 27 26  1  0  0  0  0
 28  5  4  0  0  0  0
 29 28  1  0  0  0  0
 30  2  1  0  0  0  0
 31 30  4  0  0  0  0
 32 31  1  0  0  0  0
 33 31  4  0  0  0  0
 34 33  1  0  0  0  0
 35 33  4  0  0  0  0
 36 35  1  0  0  0  0
 37 35  4  0  0  0  0
 38 37  1  0  0  0  0
 39 30  4  0  0  0  0
 40 39  1  0  0  0  0
 41 42  1  0  0  0  0
 42  1  1  0  0  0  0
 43 41  1  0  0  0  0
 44 41  1  0  0  0  0
 45 41  1  0  0  0  0
 46 47  2  0  0  0  0
 47  1  1  0  0  0  0
 48  1  1  0  0  0  0
 49 65  4  0  0  0  0
 50 46  1  0  0  0  0
 51 50  1  0  0  0  0
 52 50  1  0  0  0  0
 53 48  4  0  0  0  0
 54 53  4  0  0  0  0
 55 54  1  0  0  0  0
 56 54  4  0  0  0  0
 57 56  1  0  0  0  0
 58 56  4  0  0  0  0
 59 58  1  0  0  0  0
 60 48  4  0  0  0  0
 61 60  1  0  0  0  0
 62 46  1  0  0  0  0
 63 62  1  0  0  0  0
 64 62  1  0  0  0  0
 65 62  1  0  0  0  0
 66 65  4  0  0  0  0
 67 66  1  0  0  0  0
 68 66  4  0  0  0  0
 69 68  1  0  0  0  0
 70 68  4  0  0  0  0
 71 70  1  0  0  0  0
 72 49  4  0  0  0  0
 73 72  1  0  0  0  0
 74 46  1  0  0  0  0
 75 74  4  0  0  0  0
 76 75  1  0  0  0  0
 77 75  4  0  0  0  0
 78 77  1  0  0  0  0
 79 77  4  0  0  0  0
 80 79  1  0  0  0  0
 81 79  4  0  0  0  0
 82 81  1  0  0  0  0
 83 74  4  0  0  0  0
 84 83  1  0  0  0  0
 85 86  1  0  0  0  0
 86  1  1  0  0  0  0
 87 85  1  0  0  0  0
 88 85  1  0  0  0  0
 89 85  1  0  0  0  0
  6  9  1  0  0  0  0
 14 16  4  0  0  0  0
 26 28  4  0  0  0  0
 37 39  4  0  0  0  0
 50 53  1  0  0  0  0
 58 60  4  0  0  0  0
 70 72  4  0  0  0  0
 81 83  4  0  0  0  0
M  CHG  3   1   2  41  -1  85  -1
M  END
$$$$
MACJAC

From CSD data. Using bond type 'Any'. No disordered atoms. Largest molecule.
 82 92  0  0  0  0  0  0  0  0999 V2000
   12.5635   10.2672   12.8443 Ru  0  0  0  0  0  0  0  0  0  0  0  0
   13.1736   13.6577   12.7341 P   0  0  0  0  0  0  0  0  0  0  0  0
   11.6914   10.0476   10.7117 P   0  0  0  0  0  0  0  0  0  0  0  0
   12.6191   12.3273   12.4074 O   0  0  0  0  0  0  0  0  0  0  0  0
   14.3075   13.6683   13.7955 F   0  0  0  0  0  0  0  0  0  0  0  0
   15.8677   12.2416   12.7877 F   0  0  0  0  0  0  0  0  0  0  0  0
   15.7172   12.3634   15.0215 F   0  0  0  0  0  0  0  0  0  0  0  0
   16.5551   14.0867   13.8534 F   0  0  0  0  0  0  0  0  0  0  0  0
   12.9230   10.0840    9.7199 F   0  0  0  0  0  0  0  0  0  0  0  0
   14.3360   10.2791   11.6554 F   0  0  0  0  0  0  0  0  0  0  0  0
   14.6903    8.6088   10.0831 F   0  0  0  0  0  0  0  0  0  0  0  0
   15.1282   10.7483    9.5068 F   0  0  0  0  0  0  0  0  0  0  0  0
   15.6508   13.0717   13.8807 B   0  0  0  0  0  0  0  0  0  0  0  0
   14.3060    9.9464   10.2417 B   0  0  0  0  0  0  0  0  0  0  0  0
    9.9868   11.2728   14.7692 C   0  0  0  0  0  0  0  0  0  0  0  0
    9.7524   11.2355   15.6985 H   0  0  0  0  0  0  0  0  0  0  0  0
    9.2353   10.9998   14.2371 H   0  0  0  0  0  0  0  0  0  0  0  0
   10.2313   12.1716   14.5372 H   0  0  0  0  0  0  0  0  0  0  0  0
   11.1422   10.3547   14.5066 C   0  0  0  0  0  0  0  0  0  0  0  0
   10.9655    9.1445   13.7665 C   0  0  0  0  0  0  0  0  0  0  0  0
   10.1239    8.9257   13.4357 H   0  0  0  0  0  0  0  0  0  0  0  0
   12.0427    8.2896   13.5346 C   0  0  0  0  0  0  0  0  0  0  0  0
   11.9093    7.5069   13.0503 H   0  0  0  0  0  0  0  0  0  0  0  0
   13.3260    8.5885   14.0188 C   0  0  0  0  0  0  0  0  0  0  0  0
   13.4806    9.7423   14.8254 C   0  0  0  0  0  0  0  0  0  0  0  0
   14.3054    9.9227   15.2142 H   0  0  0  0  0  0  0  0  0  0  0  0
   12.4384   10.5904   15.0369 C   0  0  0  0  0  0  0  0  0  0  0  0
   12.5800   11.3528   15.5485 H   0  0  0  0  0  0  0  0  0  0  0  0
   14.4664    7.6625   13.7153 C   0  0  0  0  0  0  0  0  0  0  0  0
   14.4311    7.4223   12.7655 H   0  0  0  0  0  0  0  0  0  0  0  0
   14.2869    6.3791   14.5543 C   0  0  0  0  0  0  0  0  0  0  0  0
   14.6307    6.5246   15.4393 H   0  0  0  0  0  0  0  0  0  0  0  0
   14.7661    5.6561   14.1399 H   0  0  0  0  0  0  0  0  0  0  0  0
   13.3552    6.1580   14.6055 H   0  0  0  0  0  0  0  0  0  0  0  0
   15.8394    8.2626   14.0120 C   0  0  0  0  0  0  0  0  0  0  0  0
   15.9459    9.0780   13.5175 H   0  0  0  0  0  0  0  0  0  0  0  0
   16.5232    7.6400   13.7545 H   0  0  0  0  0  0  0  0  0  0  0  0
   15.9108    8.4475   14.9516 H   0  0  0  0  0  0  0  0  0  0  0  0
   11.9021   14.6958   13.4544 C   0  0  0  0  0  0  0  0  0  0  0  0
   11.0692   15.4435   12.6427 C   0  0  0  0  0  0  0  0  0  0  0  0
   11.1991   15.4616   11.7219 H   0  0  0  0  0  0  0  0  0  0  0  0
   10.0307   16.1710   13.2191 C   0  0  0  0  0  0  0  0  0  0  0  0
    9.4716   16.6909   12.6888 H   0  0  0  0  0  0  0  0  0  0  0  0
    9.8408   16.1180   14.5560 C   0  0  0  0  0  0  0  0  0  0  0  0
    9.1362   16.5950   14.9329 H   0  0  0  0  0  0  0  0  0  0  0  0
   10.6439   15.3916   15.3541 C   0  0  0  0  0  0  0  0  0  0  0  0
   10.4878   15.3567   16.2698 H   0  0  0  0  0  0  0  0  0  0  0  0
   11.6928   14.7082   14.8084 C   0  0  0  0  0  0  0  0  0  0  0  0
   12.2743   14.2424   15.3660 H   0  0  0  0  0  0  0  0  0  0  0  0
   13.7680   14.4138   11.2154 C   0  0  0  0  0  0  0  0  0  0  0  0
   13.3477   13.9559   10.0047 C   0  0  0  0  0  0  0  0  0  0  0  0
   12.7792   13.2194    9.9740 H   0  0  0  0  0  0  0  0  0  0  0  0
   13.7337   14.5435    8.8366 C   0  0  0  0  0  0  0  0  0  0  0  0
   13.3750   14.2615    8.0266 H   0  0  0  0  0  0  0  0  0  0  0  0
   14.6180   15.5089    8.8707 C   0  0  0  0  0  0  0  0  0  0  0  0
   14.9825   15.8146    8.0726 H   0  0  0  0  0  0  0  0  0  0  0  0
   15.0168   16.0807   10.0388 C   0  0  0  0  0  0  0  0  0  0  0  0
   15.5399   16.8499   10.0422 H   0  0  0  0  0  0  0  0  0  0  0  0
   14.6171   15.4740   11.2359 C   0  0  0  0  0  0  0  0  0  0  0  0
   14.9344   15.7977   12.0476 H   0  0  0  0  0  0  0  0  0  0  0  0
   10.5999   11.3844   10.1803 C   0  0  0  0  0  0  0  0  0  0  0  0
    9.7568   11.9867   11.0517 C   0  0  0  0  0  0  0  0  0  0  0  0
    9.7179   11.7013   11.9367 H   0  0  0  0  0  0  0  0  0  0  0  0
    8.9319   13.0536   10.6118 C   0  0  0  0  0  0  0  0  0  0  0  0
    8.3608   13.4777   11.2103 H   0  0  0  0  0  0  0  0  0  0  0  0
    8.9784   13.4495    9.3345 C   0  0  0  0  0  0  0  0  0  0  0  0
    8.4350   14.1488    9.0498 H   0  0  0  0  0  0  0  0  0  0  0  0
    9.7907   12.8585    8.4734 C   0  0  0  0  0  0  0  0  0  0  0  0
    9.8176   13.1517    7.5918 H   0  0  0  0  0  0  0  0  0  0  0  0
   10.6091   11.7916    8.8775 C   0  0  0  0  0  0  0  0  0  0  0  0
   11.1567   11.3641    8.2585 H   0  0  0  0  0  0  0  0  0  0  0  0
   10.8160    8.5141   10.2792 C   0  0  0  0  0  0  0  0  0  0  0  0
    9.4440    8.4024   10.3969 C   0  0  0  0  0  0  0  0  0  0  0  0
    8.9542    9.1287   10.7038 H   0  0  0  0  0  0  0  0  0  0  0  0
    8.7930    7.2419   10.0678 C   0  0  0  0  0  0  0  0  0  0  0  0
    7.8724    7.1742   10.1735 H   0  0  0  0  0  0  0  0  0  0  0  0
    9.5012    6.2031    9.5920 C   0  0  0  0  0  0  0  0  0  0  0  0
    9.0571    5.4283    9.3328 H   0  0  0  0  0  0  0  0  0  0  0  0
   10.8613    6.2674    9.4863 C   0  0  0  0  0  0  0  0  0  0  0  0
   11.3401    5.5332    9.1759 H   0  0  0  0  0  0  0  0  0  0  0  0
   11.5183    7.4223    9.8393 C   0  0  0  0  0  0  0  0  0  0  0  0
   12.4466    7.4629    9.7796 H   0  0  0  0  0  0  0  0  0  0  0  0
  1  3  1  0  0  0  0
  2  4  2  0  0  0  0
  3  9  1  0  0  0  0
  4  1  1  0  0  0  0
  5  2  1  0  0  0  0
  6 13  1  0  0  0  0
  7 13  1  0  0  0  0
  8 13  1  0  0  0  0
  9 14  1  0  0  0  0
 10  1  1  0  0  0  0
 11 14  1  0  0  0  0
 12 14  1  0  0  0  0
 13  5  1  0  0  0  0
 14 10  1  0  0  0  0
 15 16  1  0  0  0  0
 17 15  1  0  0  0  0
 18 15  1  0  0  0  0
 19  1  8  0  0  0  0
 20  1  8  0  0  0  0
 21 20  1  0  0  0  0
 22  1  8  0  0  0  0
 23 22  1  0  0  0  0
 24  1  8  0  0  0  0
 25  1  8  0  0  0  0
 26 25  1  0  0  0  0
 27  1  8  0  0  0  0
 28 27  1  0  0  0  0
 29 24  1  0  0  0  0
 30 29  1  0  0  0  0
 31 29  1  0  0  0  0
 32 31  1  0  0  0  0
 33 31  1  0  0  0  0
 34 31  1  0  0  0  0
 35 29  1  0  0  0  0
 36 35  1  0  0  0  0
 37 35  1  0  0  0  0
 38 35  1  0  0  0  0
 39  2  1  0  0  0  0
 40 39  4  0  0  0  0
 41 40  1  0  0  0  0
 42 40  4  0  0  0  0
 43 42  1  0  0  0  0
 44 42  4  0  0  0  0
 45 44  1  0  0  0  0
 46 44  4  0  0  0  0
 47 46  1  0  0  0  0
 48 39  4  0  0  0  0
 49 48  1  0  0  0  0
 50  2  1  0  0  0  0
 51 50  4  0  0  0  0
 52 51  1  0  0  0  0
 53 51  4  0  0  0  0
 54 53  1  0  0  0  0
 55 53  4  0  0  0  0
 56 55  1  0  0  0  0
 57 55  4  0  0  0  0
 58 57  1  0  0  0  0
 59 50  4  0  0  0  0
 60 59  1  0  0  0  0
 61  3  1  0  0  0  0
 62 61  4  0  0  0  0
 63 62  1  0  0  0  0
 64 62  4  0  0  0  0
 65 64  1  0  0  0  0
 66 64  4  0  0  0  0
 67 66  1  0  0  0  0
 68 66  4  0  0  0  0
 69 68  1  0  0  0  0
 70 61  4  0  0  0  0
 71 70  1  0  0  0  0
 72  3  1  0  0  0  0
 73 72  4  0  0  0  0
 74 73  1  0  0  0  0
 75 73  4  0  0  0  0
 76 75  1  0  0  0  0
 77 75  4  0  0  0  0
 78 77  1  0  0  0  0
 79 77  4  0  0  0  0
 80 79  1  0  0  0  0
 81 72  4  0  0  0  0
 82 81  1  0  0  0  0
 15 19  1  0  0  0  0
 19 20  4  0  0  0  0
 19 27  4  0  0  0  0
 20 22  4  0  0  0  0
 22 24  4  0  0  0  0
 24 25  4  0  0  0  0
 25 27  4  0  0  0  0
 46 48  4  0  0  0  0
 57 59  4  0  0  0  0
 68 70  4  0  0  0  0
 79 81  4  0  0  0  0
M  END
$$$$
MACVUI

From CSD data. Using bond type 'Any'. No disordered atoms. Largest molecule.
 60 72  0  0  0  0  0  0  0  0999 V2000
    5.6187    3.0102    1.9384 Fe  0  0  0  0  0  0  0  0  0  0  0  0
    5.0772    8.9217    5.3709 Fe  0  0  0  0  0  0  0  0  0  0  0  0
    7.4123    7.5194    1.5702 Cl  0  0  0  0  0  0  0  0  0  0  0  0
    4.5171    6.9874    2.0416 Cl  0  0  0  0  0  0  0  0  0  0  0  0
    3.7532    5.0411    4.6816 Cl  0  0  0  0  0  0  0  0  0  0  0  0
    6.0325    4.3037    6.4461 Cl  0  0  0  0  0  0  0  0  0  0  0  0
    6.4633    4.7389    3.1472 P   0  0  0  0  0  0  0  0  0  0  0  0
    6.1940    7.0962    4.6540 P   0  0  0  0  0  0  0  0  0  0  0  0
    6.8693    4.0740   -0.4549 O   0  0  0  0  0  0  0  0  0  0  0  0
    3.0379    4.1465    1.2462 O   0  0  0  0  0  0  0  0  0  0  0  0
    2.4196    8.0392    4.6182 O   0  0  0  0  0  0  0  0  0  0  0  0
    4.8650    7.8095    8.0604 O   0  0  0  0  0  0  0  0  0  0  0  0
    6.8775    1.4628    2.5558 C   0  0  0  0  0  0  0  0  0  0  0  0
    6.0896    1.8496    3.6242 C   0  0  0  0  0  0  0  0  0  0  0  0
    4.7298    1.6078    3.2038 C   0  0  0  0  0  0  0  0  0  0  0  0
    4.7735    1.0880    1.8583 C   0  0  0  0  0  0  0  0  0  0  0  0
    6.0615    1.0034    1.5054 C   0  0  0  0  0  0  0  0  0  0  0  0
    4.0607    3.7597    1.5523 C   0  0  0  0  0  0  0  0  0  0  0  0
    6.4050    3.6630    0.4728 C   0  0  0  0  0  0  0  0  0  0  0  0
    8.2700    4.4488    3.3458 C   0  0  0  0  0  0  0  0  0  0  0  0
    9.0966    4.7147    2.2415 C   0  0  0  0  0  0  0  0  0  0  0  0
   10.4608    4.4971    2.3174 C   0  0  0  0  0  0  0  0  0  0  0  0
   11.0466    4.0256    3.5002 C   0  0  0  0  0  0  0  0  0  0  0  0
   10.2250    3.7355    4.5561 C   0  0  0  0  0  0  0  0  0  0  0  0
    8.8206    3.9773    4.5051 C   0  0  0  0  0  0  0  0  0  0  0  0
    4.9881   10.4449    3.9289 C   0  0  0  0  0  0  0  0  0  0  0  0
    4.4820   10.9043    5.1696 C   0  0  0  0  0  0  0  0  0  0  0  0
    5.5607   10.8438    6.0877 C   0  0  0  0  0  0  0  0  0  0  0  0
    6.6681   10.3119    5.4660 C   0  0  0  0  0  0  0  0  0  0  0  0
    6.3376   10.0701    4.1370 C   0  0  0  0  0  0  0  0  0  0  0  0
    3.5292    8.3535    4.8663 C   0  0  0  0  0  0  0  0  0  0  0  0
    4.9402    8.2326    6.9714 C   0  0  0  0  0  0  0  0  0  0  0  0
    7.8809    7.1809    5.3405 C   0  0  0  0  0  0  0  0  0  0  0  0
    8.9733    7.5073    4.5920 C   0  0  0  0  0  0  0  0  0  0  0  0
   10.2444    7.5677    5.1282 C   0  0  0  0  0  0  0  0  0  0  0  0
   10.4425    7.3138    6.4640 C   0  0  0  0  0  0  0  0  0  0  0  0
    9.3669    6.9633    7.2402 C   0  0  0  0  0  0  0  0  0  0  0  0
    8.0774    6.8907    6.7163 C   0  0  0  0  0  0  0  0  0  0  0  0
    6.2261    6.6610    2.7061 B   0  0  0  0  0  0  0  0  0  0  0  0
    5.5912    5.2104    4.9021 B   0  0  0  0  0  0  0  0  0  0  0  0
    7.8311    1.5692    2.5324 H   0  0  0  0  0  0  0  0  0  0  0  0
    6.3821    2.2534    4.4610 H   0  0  0  0  0  0  0  0  0  0  0  0
    3.9483    1.8351    3.7180 H   0  0  0  0  0  0  0  0  0  0  0  0
    4.0289    0.9224    1.3220 H   0  0  0  0  0  0  0  0  0  0  0  0
    6.3743    0.7350    0.6714 H   0  0  0  0  0  0  0  0  0  0  0  0
    8.7179    5.1257    1.4392 H   0  0  0  0  0  0  0  0  0  0  0  0
   11.0066    4.7220    1.5578 H   0  0  0  0  0  0  0  0  0  0  0  0
   11.9872    3.9845    3.5691 H   0  0  0  0  0  0  0  0  0  0  0  0
   10.5992    3.4151    5.3419 H   0  0  0  0  0  0  0  0  0  0  0  0
    8.2759    3.8890    5.2688 H   0  0  0  0  0  0  0  0  0  0  0  0
    4.5082   10.4546    3.1100 H   0  0  0  0  0  0  0  0  0  0  0  0
    3.5972   11.2694    5.3516 H   0  0  0  0  0  0  0  0  0  0  0  0
    5.5209   11.1968    6.9934 H   0  0  0  0  0  0  0  0  0  0  0  0
    7.5129   10.2140    5.8713 H   0  0  0  0  0  0  0  0  0  0  0  0
    6.9147    9.7691    3.4795 H   0  0  0  0  0  0  0  0  0  0  0  0
    8.8556    7.7563    3.6683 H   0  0  0  0  0  0  0  0  0  0  0  0
   10.9837    7.8554    4.5713 H   0  0  0  0  0  0  0  0  0  0  0  0
   11.3105    7.4432    6.8431 H   0  0  0  0  0  0  0  0  0  0  0  0
    9.5053    6.8363    8.1597 H   0  0  0  0  0  0  0  0  0  0  0  0
    7.3429    6.7215    7.2719 H   0  0  0  0  0  0  0  0  0  0  0  0
  1  7  1  0  0  0  0
  2  8  1  0  0  0  0
  3 39  1  0  0  0  0
  4 39  1  0  0  0  0
  5 40  1  0  0  0  0
  6 40  1  0  0  0  0
  7 20  1  0  0  0  0
  8 33  1  0  0  0  0
  9 19  3  0  0  0  0
 10 18  3  0  0  0  0
 11 31  3  0  0  0  0
 12 32  3  0  0  0  0
 13  1  8  0  0  0  0
 14  1  8  0  0  0  0
 15  1  8  0  0  0  0
 16  1  8  0  0  0  0
 17  1  8  0  0  0  0
 18  1  1  0  0  0  0
 19  1  1  0  0  0  0
 20 21  4  0  0  0  0
 21 22  4  0  0  0  0
 22 23  4  0  0  0  0
 23 24  4  0  0  0  0
 24 25  4  0  0  0  0
 25 20  4  0  0  0  0
 26  2  8  0  0  0  0
 27  2  8  0  0  0  0
 28  2  8  0  0  0  0
 29  2  8  0  0  0  0
 30  2  8  0  0  0  0
 31  2  1  0  0  0  0
 32  2  1  0  0  0  0
 33 34  4  0  0  0  0
 34 35  4  0  0  0  0
 35 36  4  0  0  0  0
 36 37  4  0  0  0  0
 37 38  4  0  0  0  0
 38 33  4  0  0  0  0
 39  7  1  0  0  0  0
 40  7  1  0  0  0  0
 41 13  1  0  0  0  0
 42 14  1  0  0  0  0
 43 15  1  0  0  0  0
 44 16  1  0  0  0  0
 45 17  1  0  0  0  0
 46 21  1  0  0  0  0
 47 22  1  0  0  0  0
 48 23  1  0  0  0  0
 49 24  1  0  0  0  0
 50 25  1  0  0  0  0
 51 26  1  0  0  0  0
 52 27  1  0  0  0  0
 53 28  1  0  0  0  0
 54 29  1  0  0  0  0
 55 30  1  0  0  0  0
 56 34  1  0  0  0  0
 57 35  1  0  0  0  0
 58 36  1  0  0  0  0
 59 37  1  0  0  0  0
 60 38  1  0  0  0  0
  8 39  1  0  0  0  0
  8 40  1  0  0  0  0
 13 14  4  0  0  0  0
 13 17  4  0  0  0  0
 14 15  4  0  0  0  0
 15 16  4  0  0  0  0
 16 17  4  0  0  0  0
 26 27  4  0  0  0  0
 26 30  4  0  0  0  0
 27 28  4  0  0  0  0
 28 29  4  0  0  0  0
 29 30  4  0  0  0  0
M  END
$$$$
MECDIJ

From CSD data. Using bond type 'Any'. No disordered atoms. Largest molecule.
 97115  0  0  0  0  0  0  0  0999 V2000
   15.7450   14.0272   10.3023 Ir  0  0  0  0  0  0  0  0  0  0  0  0
   18.0363   13.7564   11.0176 P   0  0  0  0  0  0  0  0  0  0  0  0
   18.6589   15.1015   12.0913 C   0  0  0  0  0  0  0  0  0  0  0  0
   19.4011   14.8399   13.2344 C   0  0  0  0  0  0  0  0  0  0  0  0
   19.5723   13.9603   13.4833 H   0  0  0  0  0  0  0  0  0  0  0  0
   19.8896   15.8854   14.0048 C   0  0  0  0  0  0  0  0  0  0  0  0
   20.4142   15.7074   14.7516 H   0  0  0  0  0  0  0  0  0  0  0  0
   19.5982   17.1859   13.6613 C   0  0  0  0  0  0  0  0  0  0  0  0
   19.8989   17.8849   14.1967 H   0  0  0  0  0  0  0  0  0  0  0  0
   18.8597   17.4570   12.5266 C   0  0  0  0  0  0  0  0  0  0  0  0
   18.6632   18.3378   12.2999 H   0  0  0  0  0  0  0  0  0  0  0  0
   18.4119   16.4169   11.7270 C   0  0  0  0  0  0  0  0  0  0  0  0
   17.9459   16.6006   10.9441 H   0  0  0  0  0  0  0  0  0  0  0  0
   19.3586   13.8058    9.7398 C   0  0  0  0  0  0  0  0  0  0  0  0
   20.7090   13.8669   10.1459 C   0  0  0  0  0  0  0  0  0  0  0  0
   20.9171   13.8699   11.0512 H   0  0  0  0  0  0  0  0  0  0  0  0
   21.7249   13.9211    9.2100 C   0  0  0  0  0  0  0  0  0  0  0  0
   22.6110   13.9467    9.4923 H   0  0  0  0  0  0  0  0  0  0  0  0
   21.4335   13.9384    7.8583 C   0  0  0  0  0  0  0  0  0  0  0  0
   22.1203   13.9770    7.2325 H   0  0  0  0  0  0  0  0  0  0  0  0
   20.1118   13.8983    7.4411 C   0  0  0  0  0  0  0  0  0  0  0  0
   19.9112   13.9139    6.5331 H   0  0  0  0  0  0  0  0  0  0  0  0
   19.0851   13.8339    8.3742 C   0  0  0  0  0  0  0  0  0  0  0  0
   18.2024   13.8075    8.0822 H   0  0  0  0  0  0  0  0  0  0  0  0
   18.3531   12.2333   11.9773 C   0  0  0  0  0  0  0  0  0  0  0  0
   19.3578   11.3225   11.6366 C   0  0  0  0  0  0  0  0  0  0  0  0
   19.9084   11.4959   10.9065 H   0  0  0  0  0  0  0  0  0  0  0  0
   19.5399   10.1582   12.3764 C   0  0  0  0  0  0  0  0  0  0  0  0
   20.2021    9.5531   12.1317 H   0  0  0  0  0  0  0  0  0  0  0  0
   18.7414    9.9004   13.4708 C   0  0  0  0  0  0  0  0  0  0  0  0
   18.8663    9.1227   13.9659 H   0  0  0  0  0  0  0  0  0  0  0  0
   17.7532   10.8050   13.8310 C   0  0  0  0  0  0  0  0  0  0  0  0
   17.2223   10.6382   14.5763 H   0  0  0  0  0  0  0  0  0  0  0  0
   17.5517   11.9542   13.0856 C   0  0  0  0  0  0  0  0  0  0  0  0
   16.8765   12.5455   13.3248 H   0  0  0  0  0  0  0  0  0  0  0  0
   15.5313   12.0847    8.8712 P   0  0  0  0  0  0  0  0  0  0  0  0
   16.9787   11.4728    7.9042 C   0  0  0  0  0  0  0  0  0  0  0  0
   17.9492   10.7611    8.6176 C   0  0  0  0  0  0  0  0  0  0  0  0
   17.8360   10.6104    9.5284 H   0  0  0  0  0  0  0  0  0  0  0  0
   19.0780   10.2766    7.9737 C   0  0  0  0  0  0  0  0  0  0  0  0
   19.7220    9.8116    8.4577 H   0  0  0  0  0  0  0  0  0  0  0  0
   19.2533   10.4802    6.6276 C   0  0  0  0  0  0  0  0  0  0  0  0
   20.0163   10.1603    6.2035 H   0  0  0  0  0  0  0  0  0  0  0  0
   18.2911   11.1637    5.9045 C   0  0  0  0  0  0  0  0  0  0  0  0
   18.4065   11.2911    4.9909 H   0  0  0  0  0  0  0  0  0  0  0  0
   17.1511   11.6642    6.5345 C   0  0  0  0  0  0  0  0  0  0  0  0
   16.5080   12.1224    6.0422 H   0  0  0  0  0  0  0  0  0  0  0  0
   15.1286   10.4940    9.6856 C   0  0  0  0  0  0  0  0  0  0  0  0
   15.1300   10.3845   11.0762 C   0  0  0  0  0  0  0  0  0  0  0  0
   15.2507   11.1432   11.5991 H   0  0  0  0  0  0  0  0  0  0  0  0
   14.9513    9.1491   11.6839 C   0  0  0  0  0  0  0  0  0  0  0  0
   14.9516    9.0841   12.6114 H   0  0  0  0  0  0  0  0  0  0  0  0
   14.7720    8.0162   10.9107 C   0  0  0  0  0  0  0  0  0  0  0  0
   14.6422    7.1908   11.3182 H   0  0  0  0  0  0  0  0  0  0  0  0
   14.7890    8.1148    9.5298 C   0  0  0  0  0  0  0  0  0  0  0  0
   14.6694    7.3515    9.0125 H   0  0  0  0  0  0  0  0  0  0  0  0
   14.9794    9.3352    8.9166 C   0  0  0  0  0  0  0  0  0  0  0  0
   15.0093    9.3884    7.9890 H   0  0  0  0  0  0  0  0  0  0  0  0
   14.2709   12.3727    7.5677 C   0  0  0  0  0  0  0  0  0  0  0  0
   13.1295   11.5852    7.4370 C   0  0  0  0  0  0  0  0  0  0  0  0
   12.9850   10.8707    8.0155 H   0  0  0  0  0  0  0  0  0  0  0  0
   12.1991   11.8728    6.4316 C   0  0  0  0  0  0  0  0  0  0  0  0
   11.4261   11.3604    6.3579 H   0  0  0  0  0  0  0  0  0  0  0  0
   12.4183   12.9076    5.5499 C   0  0  0  0  0  0  0  0  0  0  0  0
   11.8062   13.0781    4.8713 H   0  0  0  0  0  0  0  0  0  0  0  0
   13.5468   13.6901    5.6737 C   0  0  0  0  0  0  0  0  0  0  0  0
   13.6962   14.3860    5.0757 H   0  0  0  0  0  0  0  0  0  0  0  0
   14.4617   13.4387    6.6930 C   0  0  0  0  0  0  0  0  0  0  0  0
   15.2064   13.9883    6.7903 H   0  0  0  0  0  0  0  0  0  0  0  0
   16.3060   15.2280    8.9708 C   0  0  0  0  0  0  0  0  0  0  0  0
   16.5404   16.0916    8.2584 O   0  0  0  0  0  0  0  0  0  0  0  0
   13.4134   16.0321   11.2222 C   0  0  0  0  0  0  0  0  0  0  0  0
   12.6117   17.2939   11.2055 C   0  0  0  0  0  0  0  0  0  0  0  0
   13.0320   18.3610   10.4087 C   0  0  0  0  0  0  0  0  0  0  0  0
   13.7759   18.2581    9.8608 H   0  0  0  0  0  0  0  0  0  0  0  0
   12.3569   19.5703   10.4212 C   0  0  0  0  0  0  0  0  0  0  0  0
   12.6513   20.2724    9.8858 H   0  0  0  0  0  0  0  0  0  0  0  0
   11.2406   19.7369   11.2333 C   0  0  0  0  0  0  0  0  0  0  0  0
   10.7937   20.5514   11.2542 H   0  0  0  0  0  0  0  0  0  0  0  0
   10.8023   18.6854   12.0037 C   0  0  0  0  0  0  0  0  0  0  0  0
   10.0449   18.7877   12.5349 H   0  0  0  0  0  0  0  0  0  0  0  0
   11.4793   17.4677   11.9968 C   0  0  0  0  0  0  0  0  0  0  0  0
   11.1745   16.7671   12.5252 H   0  0  0  0  0  0  0  0  0  0  0  0
   13.5866   15.0287    9.9707 B   0  0  0  0  0  0  0  0  0  0  0  0
   13.4073   15.5063    8.9958 H   0  0  0  0  0  0  0  0  0  0  0  0
   15.0179   16.0488   11.3557 B   0  0  0  0  0  0  0  0  0  0  0  0
   15.4716   16.9840   10.9927 H   0  0  0  0  0  0  0  0  0  0  0  0
   13.9807   15.3664   12.6198 B   0  0  0  0  0  0  0  0  0  0  0  0
   13.7134   15.7427   13.6196 H   0  0  0  0  0  0  0  0  0  0  0  0
   12.7941   14.5275   11.4795 B   0  0  0  0  0  0  0  0  0  0  0  0
   11.7342   14.3384   11.7089 H   0  0  0  0  0  0  0  0  0  0  0  0
   13.6557   13.4052   10.5311 B   0  0  0  0  0  0  0  0  0  0  0  0
   13.2969   12.4860   10.0430 H   0  0  0  0  0  0  0  0  0  0  0  0
   15.5553   14.7602   12.3569 B   0  0  0  0  0  0  0  0  0  0  0  0
   16.4142   14.7190   13.0425 H   0  0  0  0  0  0  0  0  0  0  0  0
   14.3015   13.5723   12.1400 B   0  0  0  0  0  0  0  0  0  0  0  0
   14.3033   12.6906   12.7978 H   0  0  0  0  0  0  0  0  0  0  0  0
  1  2  1  0  0  0  0
  2  3  1  0  0  0  0
  3  4  4  0  0  0  0
  4  5  1  0  0  0  0
  6  4  4  0  0  0  0
  7  6  1  0  0  0  0
  8  6  4  0  0  0  0
  9  8  1  0  0  0  0
 10  8  4  0  0  0  0
 11 10  1  0  0  0  0
 12  3  4  0  0  0  0
 13 12  1  0  0  0  0
 14  2  1  0  0  0  0
 15 14  4  0  0  0  0
 16 15  1  0  0  0  0
 17 15  4  0  0  0  0
 18 17  1  0  0  0  0
 19 17  4  0  0  0  0
 20 19  1  0  0  0  0
 21 19  4  0  0  0  0
 22 21  1  0  0  0  0
 23 14  4  0  0  0  0
 24 23  1  0  0  0  0
 25  2  1  0  0  0  0
 26 25  4  0  0  0  0
 27 26  1  0  0  0  0
 28 26  4  0  0  0  0
 29 28  1  0  0  0  0
 30 28  4  0  0  0  0
 31 30  1  0  0  0  0
 32 30  4  0  0  0  0
 33 32  1  0  0  0  0
 34 25  4  0  0  0  0
 35 34  1  0  0  0  0
 36  1  1  0  0  0  0
 37 36  1  0  0  0  0
 38 37  4  0  0  0  0
 39 38  1  0  0  0  0
 40 38  4  0  0  0  0
 41 40  1  0  0  0  0
 42 40  4  0  0  0  0
 43 42  1  0  0  0  0
 44 42  4  0  0  0  0
 45 44  1  0  0  0  0
 46 37  4  0  0  0  0
 47 46  1  0  0  0  0
 48 36  1  0  0  0  0
 49 48  4  0  0  0  0
 50 49  1  0  0  0  0
 51 49  4  0  0  0  0
 52 51  1  0  0  0  0
 53 51  4  0  0  0  0
 54 53  1  0  0  0  0
 55 53  4  0  0  0  0
 56 55  1  0  0  0  0
 57 48  4  0  0  0  0
 58 57  1  0  0  0  0
 59 36  1  0  0  0  0
 60 59  4  0  0  0  0
 61 60  1  0  0  0  0
 62 60  4  0  0  0  0
 63 62  1  0  0  0  0
 64 62  4  0  0  0  0
 65 64  1  0  0  0  0
 66 64  4  0  0  0  0
 67 66  1  0  0  0  0
 68 59  4  0  0  0  0
 69 68  1  0  0  0  0
 70  1  1  0  0  0  0
 71 70  3  0  0  0  0
 72 73  1  0  0  0  0
 73 74  4  0  0  0  0
 74 75  1  0  0  0  0
 76 74  4  0  0  0  0
 77 76  1  0  0  0  0
 78 76  4  0  0  0  0
 79 78  1  0  0  0  0
 80 78  4  0  0  0  0
 81 80  1  0  0  0  0
 82 73  4  0  0  0  0
 83 82  1  0  0  0  0
 84  1  1  0  0  0  0
 85 84  1  0  0  0  0
 86  1  1  0  0  0  0
 87 86  1  0  0  0  0
 88 72  1  0  0  0  0
 89 88  1  0  0  0  0
 90 72  1  0  0  0  0
 91 90  1  0  0  0  0
 92  1  1  0  0  0  0
 93 92  1  0  0  0  0
 94  1  1  0  0  0  0
 95 94  1  0  0  0  0
 96  1  1  0  0  0  0
 97 96  1  0  0  0  0
 10 12  4  0  0  0  0
 21 23  4  0  0  0  0
 32 34  4  0  0  0  0
 44 46  4  0  0  0  0
 55 57  4  0  0  0  0
 66 68  4  0  0  0  0
 72 84  1  0  0  0  0
 72 86  1  0  0  0  0
 80 82  4  0  0  0  0
 84 90  1  0  0  0  0
 84 92  1  0  0  0  0
 86 88  1  0  0  0  0
 86 94  1  0  0  0  0
 88 90  1  0  0  0  0
 88 94  1  0  0  0  0
 88 96  1  0  0  0  0
 90 92  1  0  0  0  0
 90 96  1  0  0  0  0
 92 96  1  0  0  0  0
 94 96  1  0  0  0  0
M  END
$$$$
MECGAE

From CSD data. Using bond type 'Any'. Matching problem. No disordered atoms. Largest molecule.
126149  0  0  0  0  0  0  0  0999 V2000
    7.5948    2.1996    4.2540 Pd  0  0  0  0  0  0  0  0  0  0  0  0
    8.7816    1.2005    6.0145 P   0  0  0  0  0  0  0  0  0  0  0  0
   10.6097    1.1487    6.0239 C   0  0  0  0  0  0  0  0  0  0  0  0
   11.3345    0.0458    6.4580 C   0  0  0  0  0  0  0  0  0  0  0  0
   10.8741   -0.7452    6.7133 H   0  0  0  0  0  0  0  0  0  0  0  0
   12.7235    0.0807    6.5228 C   0  0  0  0  0  0  0  0  0  0  0  0
   13.2052   -0.6765    6.8351 H   0  0  0  0  0  0  0  0  0  0  0  0
   13.4029    1.2204    6.1319 C   0  0  0  0  0  0  0  0  0  0  0  0
   14.3525    1.2404    6.1417 H   0  0  0  0  0  0  0  0  0  0  0  0
   12.6915    2.3233    5.7312 C   0  0  0  0  0  0  0  0  0  0  0  0
   13.1568    3.1133    5.4798 H   0  0  0  0  0  0  0  0  0  0  0  0
   11.3051    2.3034    5.6841 C   0  0  0  0  0  0  0  0  0  0  0  0
   10.8316    3.0825    5.4189 H   0  0  0  0  0  0  0  0  0  0  0  0
    8.2960   -0.5240    6.2949 C   0  0  0  0  0  0  0  0  0  0  0  0
    8.7577   -1.4954    5.4111 C   0  0  0  0  0  0  0  0  0  0  0  0
    9.3870   -1.2613    4.7394 H   0  0  0  0  0  0  0  0  0  0  0  0
    8.2991   -2.8105    5.5073 C   0  0  0  0  0  0  0  0  0  0  0  0
    8.6072   -3.4680    4.8945 H   0  0  0  0  0  0  0  0  0  0  0  0
    7.4010   -3.1522    6.4855 C   0  0  0  0  0  0  0  0  0  0  0  0
    7.0931   -4.0488    6.5522 H   0  0  0  0  0  0  0  0  0  0  0  0
    6.9408   -2.2107    7.3713 C   0  0  0  0  0  0  0  0  0  0  0  0
    6.3211   -2.4588    8.0469 H   0  0  0  0  0  0  0  0  0  0  0  0
    7.3819   -0.8837    7.2829 C   0  0  0  0  0  0  0  0  0  0  0  0
    7.0595   -0.2321    7.8937 H   0  0  0  0  0  0  0  0  0  0  0  0
    8.4218    2.0852    7.5657 C   0  0  0  0  0  0  0  0  0  0  0  0
    9.1043    1.7943    8.7559 C   0  0  0  0  0  0  0  0  0  0  0  0
    9.7409    1.0919    8.7756 H   0  0  0  0  0  0  0  0  0  0  0  0
    8.8497    2.5285    9.8991 C   0  0  0  0  0  0  0  0  0  0  0  0
    9.3226    2.3372   10.7004 H   0  0  0  0  0  0  0  0  0  0  0  0
    7.9044    3.5427    9.8794 C   0  0  0  0  0  0  0  0  0  0  0  0
    7.7361    4.0419   10.6690 H   0  0  0  0  0  0  0  0  0  0  0  0
    7.2109    3.8317    8.7304 C   0  0  0  0  0  0  0  0  0  0  0  0
    6.5509    4.5151    8.7265 H   0  0  0  0  0  0  0  0  0  0  0  0
    7.4843    3.1123    7.5637 C   0  0  0  0  0  0  0  0  0  0  0  0
    7.0255    3.3265    6.7604 H   0  0  0  0  0  0  0  0  0  0  0  0
    5.4449    1.5173    4.5738 P   0  0  0  0  0  0  0  0  0  0  0  0
    4.4872    2.0832    6.0082 C   0  0  0  0  0  0  0  0  0  0  0  0
    4.2224    1.2961    7.1140 C   0  0  0  0  0  0  0  0  0  0  0  0
    4.4714    0.3786    7.1179 H   0  0  0  0  0  0  0  0  0  0  0  0
    3.5845    1.8610    8.2256 C   0  0  0  0  0  0  0  0  0  0  0  0
    3.3644    1.3171    8.9740 H   0  0  0  0  0  0  0  0  0  0  0  0
    3.2736    3.2060    8.2374 C   0  0  0  0  0  0  0  0  0  0  0  0
    2.8540    3.5886    9.0015 H   0  0  0  0  0  0  0  0  0  0  0  0
    3.5625    3.9871    7.1572 C   0  0  0  0  0  0  0  0  0  0  0  0
    3.3425    4.9106    7.1670 H   0  0  0  0  0  0  0  0  0  0  0  0
    4.1805    3.4341    6.0396 C   0  0  0  0  0  0  0  0  0  0  0  0
    4.3923    3.9841    5.2932 H   0  0  0  0  0  0  0  0  0  0  0  0
    5.1107   -0.2391    4.3033 C   0  0  0  0  0  0  0  0  0  0  0  0
    3.9166   -0.8827    4.6903 C   0  0  0  0  0  0  0  0  0  0  0  0
    3.2478   -0.4055    5.1695 H   0  0  0  0  0  0  0  0  0  0  0  0
    3.7237   -2.2217    4.3662 C   0  0  0  0  0  0  0  0  0  0  0  0
    2.9235   -2.6580    4.6313 H   0  0  0  0  0  0  0  0  0  0  0  0
    4.6899   -2.9320    3.6552 C   0  0  0  0  0  0  0  0  0  0  0  0
    4.5489   -3.8476    3.4450 H   0  0  0  0  0  0  0  0  0  0  0  0
    5.8532   -2.2974    3.2604 C   0  0  0  0  0  0  0  0  0  0  0  0
    6.5156   -2.7716    2.7674 H   0  0  0  0  0  0  0  0  0  0  0  0
    6.0502   -0.9694    3.5845 C   0  0  0  0  0  0  0  0  0  0  0  0
    6.8508   -0.5420    3.3075 H   0  0  0  0  0  0  0  0  0  0  0  0
    5.5302    2.8388    2.6922 Pd  0  0  0  0  0  0  0  0  0  0  0  0
    3.3466    2.6566    1.9038 P   0  0  0  0  0  0  0  0  0  0  0  0
    2.7688    3.5975    0.4321 C   0  0  0  0  0  0  0  0  0  0  0  0
    1.5336    3.3255   -0.1395 C   0  0  0  0  0  0  0  0  0  0  0  0
    1.0007    2.6172    0.1964 H   0  0  0  0  0  0  0  0  0  0  0  0
    1.0793    4.1046   -1.2177 C   0  0  0  0  0  0  0  0  0  0  0  0
    0.2333    3.9163   -1.6066 H   0  0  0  0  0  0  0  0  0  0  0  0
    1.8392    5.1348   -1.7225 C   0  0  0  0  0  0  0  0  0  0  0  0
    1.5245    5.6608   -2.4492 H   0  0  0  0  0  0  0  0  0  0  0  0
    3.0499    5.3819   -1.1627 C   0  0  0  0  0  0  0  0  0  0  0  0
    3.5906    6.0842   -1.5084 H   0  0  0  0  0  0  0  0  0  0  0  0
    3.5162    4.6227   -0.0903 C   0  0  0  0  0  0  0  0  0  0  0  0
    4.3675    4.8180    0.2848 H   0  0  0  0  0  0  0  0  0  0  0  0
    2.1603    3.2658    3.1583 C   0  0  0  0  0  0  0  0  0  0  0  0
    1.6688    2.4379    4.1737 C   0  0  0  0  0  0  0  0  0  0  0  0
    1.8977    1.5163    4.1953 H   0  0  0  0  0  0  0  0  0  0  0  0
    0.8312    2.9888    5.1577 C   0  0  0  0  0  0  0  0  0  0  0  0
    0.4999    2.4319    5.8530 H   0  0  0  0  0  0  0  0  0  0  0  0
    0.4818    4.3218    5.1381 C   0  0  0  0  0  0  0  0  0  0  0  0
   -0.1062    4.6715    5.7961 H   0  0  0  0  0  0  0  0  0  0  0  0
    0.9941    5.1447    4.1580 C   0  0  0  0  0  0  0  0  0  0  0  0
    0.7835    6.0713    4.1600 H   0  0  0  0  0  0  0  0  0  0  0  0
    1.8135    4.6287    3.1759 C   0  0  0  0  0  0  0  0  0  0  0  0
    2.1472    5.2045    2.5003 H   0  0  0  0  0  0  0  0  0  0  0  0
    2.8380    0.9375    1.5399 C   0  0  0  0  0  0  0  0  0  0  0  0
    1.5126    0.4941    1.6381 C   0  0  0  0  0  0  0  0  0  0  0  0
    0.8379    1.0909    1.9386 H   0  0  0  0  0  0  0  0  0  0  0  0
    1.1805   -0.7990    1.3022 C   0  0  0  0  0  0  0  0  0  0  0  0
    0.2805   -1.0929    1.3867 H   0  0  0  0  0  0  0  0  0  0  0  0
    2.1478   -1.6707    0.8406 C   0  0  0  0  0  0  0  0  0  0  0  0
    1.9150   -2.5574    0.5892 H   0  0  0  0  0  0  0  0  0  0  0  0
    3.4532   -1.2324    0.7522 C   0  0  0  0  0  0  0  0  0  0  0  0
    4.1231   -1.8341    0.4537 H   0  0  0  0  0  0  0  0  0  0  0  0
    3.8056    0.0538    1.0881 C   0  0  0  0  0  0  0  0  0  0  0  0
    4.7080    0.3367    1.0095 H   0  0  0  0  0  0  0  0  0  0  0  0
    8.4177    4.6496    1.9327 B   0  0  0  0  0  0  0  0  0  0  0  0
    8.8156    5.6957    1.9012 H   0  0  0  0  0  0  0  0  0  0  0  0
    9.0289    3.5716    3.1759 B   0  0  0  0  0  0  0  0  0  0  0  0
    9.8070    3.9353    3.8948 H   0  0  0  0  0  0  0  0  0  0  0  0
    7.3305    4.1505    3.1956 B   0  0  0  0  0  0  0  0  0  0  0  0
    7.0161    4.8927    3.9734 H   0  0  0  0  0  0  0  0  0  0  0  0
    6.7363    4.3816    1.5025 B   0  0  0  0  0  0  0  0  0  0  0  0
    6.0835    5.2454    1.2138 H   0  0  0  0  0  0  0  0  0  0  0  0
    8.0466    3.7798    0.4282 B   0  0  0  0  0  0  0  0  0  0  0  0
    8.2400    4.2082   -0.5892 H   0  0  0  0  0  0  0  0  0  0  0  0
    9.4097    3.2458    1.4397 B   0  0  0  0  0  0  0  0  0  0  0  0
   10.4530    3.3136    1.0351 H   0  0  0  0  0  0  0  0  0  0  0  0
    8.3080    2.0693    0.7326 B   0  0  0  0  0  0  0  0  0  0  0  0
    8.6048    1.3340   -0.0354 H   0  0  0  0  0  0  0  0  0  0  0  0
    7.6547    1.6548    1.3925 H   0  0  0  0  0  0  0  0  0  0  0  0
    9.1087    1.9447    2.5474 B   0  0  0  0  0  0  0  0  0  0  0  0
    5.6808    2.4060   -0.2765 O   0  0  0  0  0  0  0  0  0  0  0  0
    6.0393    1.7724   -1.5124 C   0  0  0  0  0  0  0  0  0  0  0  0
    6.2715    0.8249   -1.3434 H   0  0  0  0  0  0  0  0  0  0  0  0
    6.8317    2.2227   -1.8993 H   0  0  0  0  0  0  0  0  0  0  0  0
    4.9346    1.8431   -2.4394 C   0  0  0  0  0  0  0  0  0  0  0  0
    5.1887    1.4087   -3.2800 H   0  0  0  0  0  0  0  0  0  0  0  0
    4.7131    2.7816   -2.6103 H   0  0  0  0  0  0  0  0  0  0  0  0
    4.1536    1.3868   -2.0564 H   0  0  0  0  0  0  0  0  0  0  0  0
    9.7530    0.7821    2.8601 O   0  0  0  0  0  0  0  0  0  0  0  0
   10.2908   -0.1176    1.8620 C   0  0  0  0  0  0  0  0  0  0  0  0
   11.1333   -0.5210    2.1959 H   0  0  0  0  0  0  0  0  0  0  0  0
   10.4987    0.3875    1.0370 H   0  0  0  0  0  0  0  0  0  0  0  0
    9.2900   -1.2125    1.5497 C   0  0  0  0  0  0  0  0  0  0  0  0
    9.6656   -1.8152    0.8740 H   0  0  0  0  0  0  0  0  0  0  0  0
    8.4639   -0.8120    1.2060 H   0  0  0  0  0  0  0  0  0  0  0  0
    9.0927   -1.7186    2.3648 H   0  0  0  0  0  0  0  0  0  0  0  0
    6.5861    2.8543    0.6658 B   0  0  0  0  0  0  0  0  0  0  0  0
  1  2  1  0  0  0  0
  2  3  1  0  0  0  0
  3  4  4  0  0  0  0
  4  5  1  0  0  0  0
  6  4  4  0  0  0  0
  7  6  1  0  0  0  0
  8  6  4  0  0  0  0
  9  8  1  0  0  0  0
 10  8  4  0  0  0  0
 11 10  1  0  0  0  0
 12  3  4  0  0  0  0
 13 12  1  0  0  0  0
 14  2  1  0  0  0  0
 15 14  4  0  0  0  0
 16 15  1  0  0  0  0
 17 15  4  0  0  0  0
 18 17  1  0  0  0  0
 19 17  4  0  0  0  0
 20 19  1  0  0  0  0
 21 19  4  0  0  0  0
 22 21  1  0  0  0  0
 23 14  4  0  0  0  0
 24 23  1  0  0  0  0
 25  2  1  0  0  0  0
 26 25  4  0  0  0  0
 27 26  1  0  0  0  0
 28 26  4  0  0  0  0
 29 28  1  0  0  0  0
 30 28  4  0  0  0  0
 31 30  1  0  0  0  0
 32 30  4  0  0  0  0
 33 32  1  0  0  0  0
 34 25  4  0  0  0  0
 35 34  1  0  0  0  0
 36  1  1  0  0  0  0
 37 36  1  0  0  0  0
 38 37  4  0  0  0  0
 39 38  1  0  0  0  0
 40 38  4  0  0  0  0
 41 40  1  0  0  0  0
 42 40  4  0  0  0  0
 43 42  1  0  0  0  0
 44 42  4  0  0  0  0
 45 44  1  0  0  0  0
 46 37  4  0  0  0  0
 47 46  1  0  0  0  0
 48 36  1  0  0  0  0
 49 48  4  0  0  0  0
 50 49  1  0  0  0  0
 51 49  4  0  0  0  0
 52 51  1  0  0  0  0
 53 51  4  0  0  0  0
 54 53  1  0  0  0  0
 55 53  4  0  0  0  0
 56 55  1  0  0  0  0
 57 48  4  0  0  0  0
 58 57  1  0  0  0  0
 59  1  1  0  0  0  0
 60 59  1  0  0  0  0
 61 60  1  0  0  0  0
 62 61  4  0  0  0  0
 63 62  1  0  0  0  0
 64 62  4  0  0  0  0
 65 64  1  0  0  0  0
 66 64  4  0  0  0  0
 67 66  1  0  0  0  0
 68 66  4  0  0  0  0
 69 68  1  0  0  0  0
 70 61  4  0  0  0  0
 71 70  1  0  0  0  0
 72 60  1  0  0  0  0
 73 72  4  0  0  0  0
 74 73  1  0  0  0  0
 75 73  4  0  0  0  0
 76 75  1  0  0  0  0
 77 75  4  0  0  0  0
 78 77  1  0  0  0  0
 79 77  4  0  0  0  0
 80 79  1  0  0  0  0
 81 72  4  0  0  0  0
 82 81  1  0  0  0  0
 83 60  1  0  0  0  0
 84 83  4  0  0  0  0
 85 84  1  0  0  0  0
 86 84  4  0  0  0  0
 87 86  1  0  0  0  0
 88 86  4  0  0  0  0
 89 88  1  0  0  0  0
 90 88  4  0  0  0  0
 91 90  1  0  0  0  0
 92 83  4  0  0  0  0
 93 92  1  0  0  0  0
 94 95  1  0  0  0  0
 96  1  1  0  0  0  0
 97 96  1  0  0  0  0
 98  1  1  0  0  0  0
 99 98  1  0  0  0  0
100 59  1  0  0  0  0
101100  1  0  0  0  0
102 94  1  0  0  0  0
103102  1  0  0  0  0
104 94  1  0  0  0  0
105104  1  0  0  0  0
106102  1  0  0  0  0
107106  1  0  0  0  0
108106  1  0  0  0  0
109  1  1  0  0  0  0
110111  1  0  0  0  0
111112  1  0  0  0  0
113111  1  0  0  0  0
114111  1  0  0  0  0
115114  1  0  0  0  0
116114  1  0  0  0  0
117114  1  0  0  0  0
118109  1  0  0  0  0
119118  1  0  0  0  0
120119  1  0  0  0  0
121119  1  0  0  0  0
122119  1  0  0  0  0
123122  1  0  0  0  0
124122  1  0  0  0  0
125122  1  0  0  0  0
126 59  1  0  0  0  0
 10 12  4  0  0  0  0
 21 23  4  0  0  0  0
 32 34  4  0  0  0  0
 36 59  1  0  0  0  0
 44 46  4  0  0  0  0
 55 57  4  0  0  0  0
 59 98  1  0  0  0  0
 68 70  4  0  0  0  0
 79 81  4  0  0  0  0
 90 92  4  0  0  0  0
 94 96  1  0  0  0  0
 94 98  1  0  0  0  0
 94100  1  0  0  0  0
 96 98  1  0  0  0  0
 96104  1  0  0  0  0
 96109  1  0  0  0  0
 98100  1  0  0  0  0
100102  1  0  0  0  0
100126  1  0  0  0  0
102104  1  0  0  0  0
102126  1  0  0  0  0
104106  1  0  0  0  0
104109  1  0  0  0  0
106109  1  0  0  0  0
106126  1  0  0  0  0
110126  1  0  0  0  0
M  END
$$$$
MECQUH

From CSD data. Using bond type 'Any'. No disordered atoms. Largest molecule.
 70 74  0  0  0  0  0  0  0  0999 V2000
   -0.6927    1.5003   10.4982 P   0  0  0  0  0  0  0  0  0  0  0  0
   -3.6426    1.8572   12.5034 O   0  0  0  0  0  0  0  0  0  0  0  0
   -4.1050    1.1746   10.2987 O   0  0  0  0  0  0  0  0  0  0  0  0
   -1.7758    0.6387   11.2242 N   0  0  0  0  0  0  0  0  0  0  0  0
   -0.5243    1.1100    8.8177 C   0  0  0  0  0  0  0  0  0  0  0  0
   -0.7877    1.8076    8.2610 H   0  0  0  0  0  0  0  0  0  0  0  0
   -1.2449    3.1728   10.3625 C   0  0  0  0  0  0  0  0  0  0  0  0
   -2.0557    3.1751    9.8302 H   0  0  0  0  0  0  0  0  0  0  0  0
   -1.4852    3.4789   11.2509 H   0  0  0  0  0  0  0  0  0  0  0  0
   -0.2923    4.1869    9.7629 C   0  0  0  0  0  0  0  0  0  0  0  0
   -0.7126    5.0497    9.7467 H   0  0  0  0  0  0  0  0  0  0  0  0
   -0.0667    3.9235    8.8676 H   0  0  0  0  0  0  0  0  0  0  0  0
    0.5066    4.2296   10.2941 H   0  0  0  0  0  0  0  0  0  0  0  0
   -0.1554    0.1652    8.2169 C   0  0  0  0  0  0  0  0  0  0  0  0
   -0.2383    0.3326    7.2752 H   0  0  0  0  0  0  0  0  0  0  0  0
   -0.6904   -0.5948    8.4559 H   0  0  0  0  0  0  0  0  0  0  0  0
    0.7639   -0.0104    8.4315 H   0  0  0  0  0  0  0  0  0  0  0  0
   -4.9030    2.2061   10.6617 C   0  0  0  0  0  0  0  0  0  0  0  0
   -5.8669    2.8240    9.9195 C   0  0  0  0  0  0  0  0  0  0  0  0
   -6.0556    2.5526    9.0497 H   0  0  0  0  0  0  0  0  0  0  0  0
   -6.5560    3.8739   10.5121 C   0  0  0  0  0  0  0  0  0  0  0  0
   -7.1986    4.3324   10.0204 H   0  0  0  0  0  0  0  0  0  0  0  0
   -6.3102    4.2435   11.7890 C   0  0  0  0  0  0  0  0  0  0  0  0
   -6.8151    4.9272   12.1671 H   0  0  0  0  0  0  0  0  0  0  0  0
   -5.3262    3.6336   12.5510 C   0  0  0  0  0  0  0  0  0  0  0  0
   -5.1427    3.9074   13.4208 H   0  0  0  0  0  0  0  0  0  0  0  0
   -4.6386    2.6034   11.9607 C   0  0  0  0  0  0  0  0  0  0  0  0
    1.0548    1.5985   12.5614 C   0  0  0  0  0  0  0  0  0  0  0  0
    1.9635    1.4230   12.8189 H   0  0  0  0  0  0  0  0  0  0  0  0
    0.4619    1.0718   13.1019 H   0  0  0  0  0  0  0  0  0  0  0  0
    0.8604    2.5306   12.6890 H   0  0  0  0  0  0  0  0  0  0  0  0
    0.8772    1.2601   11.1929 C   0  0  0  0  0  0  0  0  0  0  0  0
    1.1101    0.3246   11.0850 H   0  0  0  0  0  0  0  0  0  0  0  0
    1.5142    1.7752   10.6745 H   0  0  0  0  0  0  0  0  0  0  0  0
   -3.2786    0.8339   11.4805 B   0  0  0  0  0  0  0  0  0  0  0  0
   -4.4657   -1.5003   12.6971 P   0  0  0  0  0  0  0  0  0  0  0  0
   -1.5158   -1.8572   10.6919 O   0  0  0  0  0  0  0  0  0  0  0  0
   -1.0534   -1.1746   12.8966 O   0  0  0  0  0  0  0  0  0  0  0  0
   -3.3826   -0.6387   11.9711 N   0  0  0  0  0  0  0  0  0  0  0  0
   -4.6341   -1.1100   14.3776 C   0  0  0  0  0  0  0  0  0  0  0  0
   -4.3707   -1.8076   14.9343 H   0  0  0  0  0  0  0  0  0  0  0  0
   -3.9136   -3.1728   12.8328 C   0  0  0  0  0  0  0  0  0  0  0  0
   -3.1027   -3.1751   13.3651 H   0  0  0  0  0  0  0  0  0  0  0  0
   -3.6732   -3.4789   11.9444 H   0  0  0  0  0  0  0  0  0  0  0  0
   -4.8661   -4.1869   13.4324 C   0  0  0  0  0  0  0  0  0  0  0  0
   -4.4458   -5.0497   13.4487 H   0  0  0  0  0  0  0  0  0  0  0  0
   -5.0917   -3.9235   14.3278 H   0  0  0  0  0  0  0  0  0  0  0  0
   -5.6650   -4.2296   12.9012 H   0  0  0  0  0  0  0  0  0  0  0  0
   -5.0031   -0.1652   14.9784 C   0  0  0  0  0  0  0  0  0  0  0  0
   -4.9201   -0.3326   15.9201 H   0  0  0  0  0  0  0  0  0  0  0  0
   -4.4680    0.5948   14.7395 H   0  0  0  0  0  0  0  0  0  0  0  0
   -5.9223    0.0104   14.7638 H   0  0  0  0  0  0  0  0  0  0  0  0
   -0.2554   -2.2060   12.5336 C   0  0  0  0  0  0  0  0  0  0  0  0
    0.7085   -2.8240   13.2758 C   0  0  0  0  0  0  0  0  0  0  0  0
    0.8971   -2.5525   14.1457 H   0  0  0  0  0  0  0  0  0  0  0  0
    1.3976   -3.8739   12.6832 C   0  0  0  0  0  0  0  0  0  0  0  0
    2.0402   -4.3324   13.1749 H   0  0  0  0  0  0  0  0  0  0  0  0
    1.1518   -4.2435   11.4063 C   0  0  0  0  0  0  0  0  0  0  0  0
    1.6567   -4.9272   11.0282 H   0  0  0  0  0  0  0  0  0  0  0  0
    0.1678   -3.6336   10.6443 C   0  0  0  0  0  0  0  0  0  0  0  0
   -0.0157   -3.9074    9.7745 H   0  0  0  0  0  0  0  0  0  0  0  0
   -0.5198   -2.6034   11.2347 C   0  0  0  0  0  0  0  0  0  0  0  0
   -6.2133   -1.5985   10.6339 C   0  0  0  0  0  0  0  0  0  0  0  0
   -7.1219   -1.4230   10.3764 H   0  0  0  0  0  0  0  0  0  0  0  0
   -5.6203   -1.0718   10.0934 H   0  0  0  0  0  0  0  0  0  0  0  0
   -6.0188   -2.5306   10.5063 H   0  0  0  0  0  0  0  0  0  0  0  0
   -6.0357   -1.2601   12.0024 C   0  0  0  0  0  0  0  0  0  0  0  0
   -6.2685   -0.3246   12.1103 H   0  0  0  0  0  0  0  0  0  0  0  0
   -6.6726   -1.7752   12.5208 H   0  0  0  0  0  0  0  0  0  0  0  0
   -1.8798   -0.8339   11.7148 B   0  0  0  0  0  0  0  0  0  0  0  0
  1  4  2  0  0  0  0
  2 27  1  0  0  0  0
  3 18  1  0  0  0  0
  4 35  1  0  0  0  0
  5  1  1  0  0  0  0
  6  5  1  0  0  0  0
  7  1  1  0  0  0  0
  8  7  1  0  0  0  0
  9  7  1  0  0  0  0
 10  7  1  0  0  0  0
 11 10  1  0  0  0  0
 12 10  1  0  0  0  0
 13 10  1  0  0  0  0
 14  5  1  0  0  0  0
 15 14  1  0  0  0  0
 16 14  1  0  0  0  0
 17 14  1  0  0  0  0
 18 19  4  0  0  0  0
 19 20  1  0  0  0  0
 21 19  4  0  0  0  0
 22 21  1  0  0  0  0
 23 21  4  0  0  0  0
 24 23  1  0  0  0  0
 25 23  4  0  0  0  0
 26 25  1  0  0  0  0
 27 18  4  0  0  0  0
 28 29  1  0  0  0  0
 30 28  1  0  0  0  0
 31 28  1  0  0  0  0
 32  1  1  0  0  0  0
 33 32  1  0  0  0  0
 34 32  1  0  0  0  0
 35  2  1  0  0  0  0
 36 39  2  0  0  0  0
 37 62  1  0  0  0  0
 38 53  1  0  0  0  0
 39 35  1  0  0  0  0
 40 36  1  0  0  0  0
 41 40  1  0  0  0  0
 42 36  1  0  0  0  0
 43 42  1  0  0  0  0
 44 42  1  0  0  0  0
 45 42  1  0  0  0  0
 46 45  1  0  0  0  0
 47 45  1  0  0  0  0
 48 45  1  0  0  0  0
 49 40  1  0  0  0  0
 50 49  1  0  0  0  0
 51 49  1  0  0  0  0
 52 49  1  0  0  0  0
 53 54  4  0  0  0  0
 54 55  1  0  0  0  0
 56 54  4  0  0  0  0
 57 56  1  0  0  0  0
 58 56  4  0  0  0  0
 59 58  1  0  0  0  0
 60 58  4  0  0  0  0
 61 60  1  0  0  0  0
 62 53  4  0  0  0  0
 63 64  1  0  0  0  0
 65 63  1  0  0  0  0
 66 63  1  0  0  0  0
 67 36  1  0  0  0  0
 68 67  1  0  0  0  0
 69 67  1  0  0  0  0
 70  4  1  0  0  0  0
  3 35  1  0  0  0  0
 25 27  4  0  0  0  0
 28 32  1  0  0  0  0
 37 70  1  0  0  0  0
 38 70  1  0  0  0  0
 39 70  1  0  0  0  0
 60 62  4  0  0  0  0
 63 67  1  0  0  0  0
M  END
$$$$
MECRAO

From CSD data. Using bond type 'Any'. No disordered atoms. Largest molecule.
108112  0  0  0  0  0  0  0  0999 V2000
    4.3425    5.5746    3.6710 P   0  0  0  0  0  0  0  0  0  0  0  0
    3.2996    6.3719    6.1945 B   0  0  0  0  0  0  0  0  0  0  0  0
    4.6213    6.2148    6.8718 O   0  0  0  0  0  0  0  0  0  0  0  0
    2.4554    5.2939    6.8022 O   0  0  0  0  0  0  0  0  0  0  0  0
    3.3472    6.3832    4.6327 N   0  0  0  0  0  0  0  0  0  0  0  0
    4.5212    5.1675    7.7383 C   0  0  0  0  0  0  0  0  0  0  0  0
    3.2376    4.6134    7.6766 C   0  0  0  0  0  0  0  0  0  0  0  0
    2.9034    3.5278    8.4701 C   0  0  0  0  0  0  0  0  0  0  0  0
    2.0565    3.1460    8.4322 H   0  0  0  0  0  0  0  0  0  0  0  0
    3.8892    3.0275    9.3340 C   0  0  0  0  0  0  0  0  0  0  0  0
    3.6891    2.2970    9.8742 H   0  0  0  0  0  0  0  0  0  0  0  0
    5.1403    3.5860    9.4011 C   0  0  0  0  0  0  0  0  0  0  0  0
    5.7711    3.2364    9.9890 H   0  0  0  0  0  0  0  0  0  0  0  0
    5.4765    4.6749    8.5935 C   0  0  0  0  0  0  0  0  0  0  0  0
    6.3241    5.0567    8.6336 H   0  0  0  0  0  0  0  0  0  0  0  0
    1.8923    1.0123    4.9322 C   0  0  0  0  0  0  0  0  0  0  0  0
    2.0071    0.1772    5.3913 H   0  0  0  0  0  0  0  0  0  0  0  0
    1.6071    0.8463    4.0315 H   0  0  0  0  0  0  0  0  0  0  0  0
    1.2304    1.5384    5.3858 H   0  0  0  0  0  0  0  0  0  0  0  0
    3.2093    1.7642    4.9149 C   0  0  0  0  0  0  0  0  0  0  0  0
    3.8759    1.2190    4.4689 H   0  0  0  0  0  0  0  0  0  0  0  0
    3.5049    1.9011    5.8286 H   0  0  0  0  0  0  0  0  0  0  0  0
    3.1304    3.1086    4.2188 C   0  0  0  0  0  0  0  0  0  0  0  0
    2.4497    3.6493    4.6497 H   0  0  0  0  0  0  0  0  0  0  0  0
    2.8614    2.9722    3.2965 H   0  0  0  0  0  0  0  0  0  0  0  0
    4.4652    3.8702    4.2448 C   0  0  0  0  0  0  0  0  0  0  0  0
    5.1053    3.3994    3.6884 H   0  0  0  0  0  0  0  0  0  0  0  0
    4.8080    3.8701    5.1520 H   0  0  0  0  0  0  0  0  0  0  0  0
    9.4813    5.5958    1.9844 C   0  0  0  0  0  0  0  0  0  0  0  0
   10.2790    6.1289    1.9865 H   0  0  0  0  0  0  0  0  0  0  0  0
    9.2258    5.4055    1.0783 H   0  0  0  0  0  0  0  0  0  0  0  0
    9.6451    4.7715    2.4488 H   0  0  0  0  0  0  0  0  0  0  0  0
    8.3598    6.3566    2.6794 C   0  0  0  0  0  0  0  0  0  0  0  0
    8.6451    6.5813    3.5779 H   0  0  0  0  0  0  0  0  0  0  0  0
    8.2042    7.1871    2.2031 H   0  0  0  0  0  0  0  0  0  0  0  0
    7.0558    5.5924    2.7606 C   0  0  0  0  0  0  0  0  0  0  0  0
    7.2311    4.7094    3.1222 H   0  0  0  0  0  0  0  0  0  0  0  0
    6.6994    5.4797    1.8653 H   0  0  0  0  0  0  0  0  0  0  0  0
    6.0074    6.2860    3.6288 C   0  0  0  0  0  0  0  0  0  0  0  0
    5.9314    7.2044    3.3268 H   0  0  0  0  0  0  0  0  0  0  0  0
    6.3431    6.3104    4.5382 H   0  0  0  0  0  0  0  0  0  0  0  0
    3.0213    8.0948   -0.8422 C   0  0  0  0  0  0  0  0  0  0  0  0
    2.5952    8.0010   -1.6975 H   0  0  0  0  0  0  0  0  0  0  0  0
    3.9060    8.4473   -0.9635 H   0  0  0  0  0  0  0  0  0  0  0  0
    2.5103    8.6950   -0.2934 H   0  0  0  0  0  0  0  0  0  0  0  0
    3.1049    6.7467   -0.1710 C   0  0  0  0  0  0  0  0  0  0  0  0
    3.6115    6.1428   -0.7372 H   0  0  0  0  0  0  0  0  0  0  0  0
    2.2090    6.3840   -0.0790 H   0  0  0  0  0  0  0  0  0  0  0  0
    3.7562    6.8047    1.1952 C   0  0  0  0  0  0  0  0  0  0  0  0
    3.3039    7.4803    1.7235 H   0  0  0  0  0  0  0  0  0  0  0  0
    4.6767    7.0878    1.0858 H   0  0  0  0  0  0  0  0  0  0  0  0
    3.7401    5.4962    1.9670 C   0  0  0  0  0  0  0  0  0  0  0  0
    4.2791    4.8507    1.4831 H   0  0  0  0  0  0  0  0  0  0  0  0
    2.8299    5.1612    1.9800 H   0  0  0  0  0  0  0  0  0  0  0  0
    1.7030    8.6024    7.1548 P   0  0  0  0  0  0  0  0  0  0  0  0
    2.7458    7.8051    4.6313 B   0  0  0  0  0  0  0  0  0  0  0  0
    1.4242    7.9622    3.9540 O   0  0  0  0  0  0  0  0  0  0  0  0
    3.5901    8.8831    4.0236 O   0  0  0  0  0  0  0  0  0  0  0  0
    2.6982    7.7938    6.1931 N   0  0  0  0  0  0  0  0  0  0  0  0
    1.5243    9.0096    3.0875 C   0  0  0  0  0  0  0  0  0  0  0  0
    2.8078    9.5637    3.1492 C   0  0  0  0  0  0  0  0  0  0  0  0
    3.1421   10.6493    2.3557 C   0  0  0  0  0  0  0  0  0  0  0  0
    3.9889   11.0310    2.3936 H   0  0  0  0  0  0  0  0  0  0  0  0
    2.1562   11.1495    1.4918 C   0  0  0  0  0  0  0  0  0  0  0  0
    2.3564   11.8801    0.9516 H   0  0  0  0  0  0  0  0  0  0  0  0
    0.9051   10.5911    1.4247 C   0  0  0  0  0  0  0  0  0  0  0  0
    0.2743   10.9407    0.8368 H   0  0  0  0  0  0  0  0  0  0  0  0
    0.5690    9.5022    2.2323 C   0  0  0  0  0  0  0  0  0  0  0  0
   -0.2786    9.1203    2.1922 H   0  0  0  0  0  0  0  0  0  0  0  0
    4.1531   13.1648    5.8936 C   0  0  0  0  0  0  0  0  0  0  0  0
    4.0384   13.9998    5.4346 H   0  0  0  0  0  0  0  0  0  0  0  0
    4.4384   13.3308    6.7943 H   0  0  0  0  0  0  0  0  0  0  0  0
    4.8151   12.6386    5.4400 H   0  0  0  0  0  0  0  0  0  0  0  0
    2.8361   12.4128    5.9109 C   0  0  0  0  0  0  0  0  0  0  0  0
    2.1696   12.9580    6.3569 H   0  0  0  0  0  0  0  0  0  0  0  0
    2.5405   12.2760    4.9972 H   0  0  0  0  0  0  0  0  0  0  0  0
    2.9150   11.0684    6.6070 C   0  0  0  0  0  0  0  0  0  0  0  0
    3.5957   10.5277    6.1761 H   0  0  0  0  0  0  0  0  0  0  0  0
    3.1841   11.2049    7.5294 H   0  0  0  0  0  0  0  0  0  0  0  0
    1.5802   10.3068    6.5810 C   0  0  0  0  0  0  0  0  0  0  0  0
    0.9402   10.7776    7.1375 H   0  0  0  0  0  0  0  0  0  0  0  0
    1.2375   10.3070    5.6738 H   0  0  0  0  0  0  0  0  0  0  0  0
   -3.4359    8.5812    8.8414 C   0  0  0  0  0  0  0  0  0  0  0  0
   -4.2336    8.0481    8.8393 H   0  0  0  0  0  0  0  0  0  0  0  0
   -3.1803    8.7715    9.7476 H   0  0  0  0  0  0  0  0  0  0  0  0
   -3.5996    9.4056    8.3770 H   0  0  0  0  0  0  0  0  0  0  0  0
   -2.3144    7.8204    8.1464 C   0  0  0  0  0  0  0  0  0  0  0  0
   -2.5996    7.5957    7.2479 H   0  0  0  0  0  0  0  0  0  0  0  0
   -2.1587    6.9899    8.6228 H   0  0  0  0  0  0  0  0  0  0  0  0
   -1.0103    8.5846    8.0652 C   0  0  0  0  0  0  0  0  0  0  0  0
   -1.1857    9.4676    7.7036 H   0  0  0  0  0  0  0  0  0  0  0  0
   -0.6539    8.6974    8.9605 H   0  0  0  0  0  0  0  0  0  0  0  0
    0.0380    7.8910    7.1970 C   0  0  0  0  0  0  0  0  0  0  0  0
    0.1140    6.9726    7.4990 H   0  0  0  0  0  0  0  0  0  0  0  0
   -0.2976    7.8666    6.2876 H   0  0  0  0  0  0  0  0  0  0  0  0
    3.0241    6.0822   11.6681 C   0  0  0  0  0  0  0  0  0  0  0  0
    3.4503    6.1760   12.5233 H   0  0  0  0  0  0  0  0  0  0  0  0
    2.1395    5.7297   11.7893 H   0  0  0  0  0  0  0  0  0  0  0  0
    3.5351    5.4820   11.1192 H   0  0  0  0  0  0  0  0  0  0  0  0
    2.9405    7.4303   10.9969 C   0  0  0  0  0  0  0  0  0  0  0  0
    2.4340    8.0342   11.5630 H   0  0  0  0  0  0  0  0  0  0  0  0
    3.8364    7.7930   10.9048 H   0  0  0  0  0  0  0  0  0  0  0  0
    2.2893    7.3723    9.6306 C   0  0  0  0  0  0  0  0  0  0  0  0
    2.7415    6.6968    9.1023 H   0  0  0  0  0  0  0  0  0  0  0  0
    1.3688    7.0893    9.7400 H   0  0  0  0  0  0  0  0  0  0  0  0
    2.3053    8.6808    8.8588 C   0  0  0  0  0  0  0  0  0  0  0  0
    1.7663    9.3263    9.3427 H   0  0  0  0  0  0  0  0  0  0  0  0
    3.2155    9.0158    8.8458 H   0  0  0  0  0  0  0  0  0  0  0  0
  1  5  2  0  0  0  0
  2  3  1  0  0  0  0
  3  6  1  0  0  0  0
  4  2  1  0  0  0  0
  5  2  1  0  0  0  0
  6  7  4  0  0  0  0
  7  4  1  0  0  0  0
  8  7  4  0  0  0  0
  9  8  1  0  0  0  0
 10  8  4  0  0  0  0
 11 10  1  0  0  0  0
 12 10  4  0  0  0  0
 13 12  1  0  0  0  0
 14  6  4  0  0  0  0
 15 14  1  0  0  0  0
 16 17  1  0  0  0  0
 18 16  1  0  0  0  0
 19 16  1  0  0  0  0
 20 16  1  0  0  0  0
 21 20  1  0  0  0  0
 22 20  1  0  0  0  0
 23 20  1  0  0  0  0
 24 23  1  0  0  0  0
 25 23  1  0  0  0  0
 26  1  1  0  0  0  0
 27 26  1  0  0  0  0
 28 26  1  0  0  0  0
 29 30  1  0  0  0  0
 31 29  1  0  0  0  0
 32 29  1  0  0  0  0
 33 29  1  0  0  0  0
 34 33  1  0  0  0  0
 35 33  1  0  0  0  0
 36 33  1  0  0  0  0
 37 36  1  0  0  0  0
 38 36  1  0  0  0  0
 39  1  1  0  0  0  0
 40 39  1  0  0  0  0
 41 39  1  0  0  0  0
 42 43  1  0  0  0  0
 44 42  1  0  0  0  0
 45 42  1  0  0  0  0
 46 42  1  0  0  0  0
 47 46  1  0  0  0  0
 48 46  1  0  0  0  0
 49 46  1  0  0  0  0
 50 49  1  0  0  0  0
 51 49  1  0  0  0  0
 52  1  1  0  0  0  0
 53 52  1  0  0  0  0
 54 52  1  0  0  0  0
 55 59  2  0  0  0  0
 56  5  1  0  0  0  0
 57 56  1  0  0  0  0
 58 56  1  0  0  0  0
 59  2  1  0  0  0  0
 60 57  1  0  0  0  0
 61 58  1  0  0  0  0
 62 61  4  0  0  0  0
 63 62  1  0  0  0  0
 64 62  4  0  0  0  0
 65 64  1  0  0  0  0
 66 64  4  0  0  0  0
 67 66  1  0  0  0  0
 68 60  4  0  0  0  0
 69 68  1  0  0  0  0
 70 71  1  0  0  0  0
 72 70  1  0  0  0  0
 73 70  1  0  0  0  0
 74 70  1  0  0  0  0
 75 74  1  0  0  0  0
 76 74  1  0  0  0  0
 77 74  1  0  0  0  0
 78 77  1  0  0  0  0
 79 77  1  0  0  0  0
 80 55  1  0  0  0  0
 81 80  1  0  0  0  0
 82 80  1  0  0  0  0
 83 84  1  0  0  0  0
 85 83  1  0  0  0  0
 86 83  1  0  0  0  0
 87 83  1  0  0  0  0
 88 87  1  0  0  0  0
 89 87  1  0  0  0  0
 90 87  1  0  0  0  0
 91 90  1  0  0  0  0
 92 90  1  0  0  0  0
 93 55  1  0  0  0  0
 94 93  1  0  0  0  0
 95 93  1  0  0  0  0
 96 97  1  0  0  0  0
 98 96  1  0  0  0  0
 99 96  1  0  0  0  0
100 96  1  0  0  0  0
101100  1  0  0  0  0
102100  1  0  0  0  0
103100  1  0  0  0  0
104103  1  0  0  0  0
105103  1  0  0  0  0
106 55  1  0  0  0  0
107106  1  0  0  0  0
108106  1  0  0  0  0
 12 14  4  0  0  0  0
 23 26  1  0  0  0  0
 36 39  1  0  0  0  0
 49 52  1  0  0  0  0
 56 59  1  0  0  0  0
 60 61  4  0  0  0  0
 66 68  4  0  0  0  0
 77 80  1  0  0  0  0
 90 93  1  0  0  0  0
103106  1  0  0  0  0
M  END
$$$$
MECRES

From CSD data. Using bond type 'Any'. No disordered atoms. Largest molecule.
 96106  0  0  0  0  0  0  0  0999 V2000
    6.4160    0.8772    6.2955 P   0  0  0  0  0  0  0  0  0  0  0  0
    7.3563    1.6657    9.4449 O   0  0  0  0  0  0  0  0  0  0  0  0
    8.1348   -0.5237    9.1044 O   0  0  0  0  0  0  0  0  0  0  0  0
    6.0862    0.2412    7.7094 N   0  0  0  0  0  0  0  0  0  0  0  0
    5.6964   -0.0670    4.9350 C   0  0  0  0  0  0  0  0  0  0  0  0
    6.4160   -0.4241    3.8047 C   0  0  0  0  0  0  0  0  0  0  0  0
    7.3017   -0.1551    3.7188 H   0  0  0  0  0  0  0  0  0  0  0  0
    5.8322   -1.1718    2.8110 C   0  0  0  0  0  0  0  0  0  0  0  0
    6.3228   -1.3986    2.0539 H   0  0  0  0  0  0  0  0  0  0  0  0
    4.5239   -1.5872    2.9302 C   0  0  0  0  0  0  0  0  0  0  0  0
    4.1379   -2.1090    2.2642 H   0  0  0  0  0  0  0  0  0  0  0  0
    3.7954   -1.2292    4.0308 C   0  0  0  0  0  0  0  0  0  0  0  0
    2.9116   -1.5087    4.1114 H   0  0  0  0  0  0  0  0  0  0  0  0
    4.3645   -0.4566    5.0209 C   0  0  0  0  0  0  0  0  0  0  0  0
    3.8532   -0.1943    5.7535 H   0  0  0  0  0  0  0  0  0  0  0  0
    5.8375    2.5723    6.0899 C   0  0  0  0  0  0  0  0  0  0  0  0
    5.8416    3.1888    4.8457 C   0  0  0  0  0  0  0  0  0  0  0  0
    6.0764    2.7025    4.0868 H   0  0  0  0  0  0  0  0  0  0  0  0
    5.4997    4.5233    4.7300 C   0  0  0  0  0  0  0  0  0  0  0  0
    5.5048    4.9350    3.8958 H   0  0  0  0  0  0  0  0  0  0  0  0
    5.1506    5.2394    5.8481 C   0  0  0  0  0  0  0  0  0  0  0  0
    4.9307    6.1403    5.7727 H   0  0  0  0  0  0  0  0  0  0  0  0
    5.1240    4.6325    7.0713 C   0  0  0  0  0  0  0  0  0  0  0  0
    4.8766    5.1217    7.8214 H   0  0  0  0  0  0  0  0  0  0  0  0
    5.4613    3.3085    7.2045 C   0  0  0  0  0  0  0  0  0  0  0  0
    5.4364    2.9045    8.0422 H   0  0  0  0  0  0  0  0  0  0  0  0
    8.1968    0.9171    6.0759 C   0  0  0  0  0  0  0  0  0  0  0  0
    8.9013    2.1147    6.1408 C   0  0  0  0  0  0  0  0  0  0  0  0
    8.4430    2.9189    6.2336 H   0  0  0  0  0  0  0  0  0  0  0  0
   10.2690    2.1128    6.0672 C   0  0  0  0  0  0  0  0  0  0  0  0
   10.7335    2.9170    6.1232 H   0  0  0  0  0  0  0  0  0  0  0  0
   10.9617    0.9449    5.9112 C   0  0  0  0  0  0  0  0  0  0  0  0
   11.8889    0.9564    5.8481 H   0  0  0  0  0  0  0  0  0  0  0  0
   10.2828   -0.2403    5.8516 C   0  0  0  0  0  0  0  0  0  0  0  0
   10.7531   -1.0358    5.7500 H   0  0  0  0  0  0  0  0  0  0  0  0
    8.9135   -0.2642    5.9392 C   0  0  0  0  0  0  0  0  0  0  0  0
    8.4628   -1.0770    5.9059 H   0  0  0  0  0  0  0  0  0  0  0  0
    9.1702    0.3178    9.3671 C   0  0  0  0  0  0  0  0  0  0  0  0
    8.7117    1.6150    9.5932 C   0  0  0  0  0  0  0  0  0  0  0  0
    9.5681    2.6326    9.9419 C   0  0  0  0  0  0  0  0  0  0  0  0
    9.2532    3.4875   10.1295 H   0  0  0  0  0  0  0  0  0  0  0  0
   10.9248    2.3292    9.9998 C   0  0  0  0  0  0  0  0  0  0  0  0
   11.5295    3.0022   10.2136 H   0  0  0  0  0  0  0  0  0  0  0  0
   11.3925    1.0578    9.7527 C   0  0  0  0  0  0  0  0  0  0  0  0
   12.3055    0.8874    9.7895 H   0  0  0  0  0  0  0  0  0  0  0  0
   10.5107    0.0239    9.4460 C   0  0  0  0  0  0  0  0  0  0  0  0
   10.8194   -0.8415    9.3005 H   0  0  0  0  0  0  0  0  0  0  0  0
    6.9010    0.3044    9.0534 B   0  0  0  0  0  0  0  0  0  0  0  0
    5.3376   -0.8772   11.2295 P   0  0  0  0  0  0  0  0  0  0  0  0
    4.3973   -1.6657    8.0801 O   0  0  0  0  0  0  0  0  0  0  0  0
    3.6188    0.5237    8.4206 O   0  0  0  0  0  0  0  0  0  0  0  0
    5.6674   -0.2412    9.8156 N   0  0  0  0  0  0  0  0  0  0  0  0
    6.0572    0.0670   12.5900 C   0  0  0  0  0  0  0  0  0  0  0  0
    5.3376    0.4241   13.7203 C   0  0  0  0  0  0  0  0  0  0  0  0
    4.4519    0.1551   13.8062 H   0  0  0  0  0  0  0  0  0  0  0  0
    5.9214    1.1718   14.7140 C   0  0  0  0  0  0  0  0  0  0  0  0
    5.4308    1.3986   15.4711 H   0  0  0  0  0  0  0  0  0  0  0  0
    7.2297    1.5872   14.5948 C   0  0  0  0  0  0  0  0  0  0  0  0
    7.6157    2.1090   15.2608 H   0  0  0  0  0  0  0  0  0  0  0  0
    7.9582    1.2292   13.4943 C   0  0  0  0  0  0  0  0  0  0  0  0
    8.8420    1.5087   13.4137 H   0  0  0  0  0  0  0  0  0  0  0  0
    7.3891    0.4566   12.5041 C   0  0  0  0  0  0  0  0  0  0  0  0
    7.9004    0.1943   11.7716 H   0  0  0  0  0  0  0  0  0  0  0  0
    5.9161   -2.5723   11.4351 C   0  0  0  0  0  0  0  0  0  0  0  0
    5.9120   -3.1888   12.6794 C   0  0  0  0  0  0  0  0  0  0  0  0
    5.6772   -2.7025   13.4382 H   0  0  0  0  0  0  0  0  0  0  0  0
    6.2539   -4.5233   12.7950 C   0  0  0  0  0  0  0  0  0  0  0  0
    6.2488   -4.9350   13.6292 H   0  0  0  0  0  0  0  0  0  0  0  0
    6.6030   -5.2394   11.6769 C   0  0  0  0  0  0  0  0  0  0  0  0
    6.8229   -6.1403   11.7523 H   0  0  0  0  0  0  0  0  0  0  0  0
    6.6296   -4.6325   10.4537 C   0  0  0  0  0  0  0  0  0  0  0  0
    6.8770   -5.1217    9.7036 H   0  0  0  0  0  0  0  0  0  0  0  0
    6.2923   -3.3085   10.3205 C   0  0  0  0  0  0  0  0  0  0  0  0
    6.3172   -2.9045    9.4828 H   0  0  0  0  0  0  0  0  0  0  0  0
    3.5568   -0.9171   11.4491 C   0  0  0  0  0  0  0  0  0  0  0  0
    2.8523   -2.1147   11.3843 C   0  0  0  0  0  0  0  0  0  0  0  0
    3.3106   -2.9189   11.2914 H   0  0  0  0  0  0  0  0  0  0  0  0
    1.4846   -2.1128   11.4579 C   0  0  0  0  0  0  0  0  0  0  0  0
    1.0201   -2.9170   11.4018 H   0  0  0  0  0  0  0  0  0  0  0  0
    0.7919   -0.9449   11.6138 C   0  0  0  0  0  0  0  0  0  0  0  0
   -0.1353   -0.9564   11.6769 H   0  0  0  0  0  0  0  0  0  0  0  0
    1.4708    0.2403   11.6734 C   0  0  0  0  0  0  0  0  0  0  0  0
    1.0005    1.0358   11.7751 H   0  0  0  0  0  0  0  0  0  0  0  0
    2.8401    0.2642   11.5858 C   0  0  0  0  0  0  0  0  0  0  0  0
    3.2908    1.0770   11.6191 H   0  0  0  0  0  0  0  0  0  0  0  0
    2.5834   -0.3178    8.1579 C   0  0  0  0  0  0  0  0  0  0  0  0
    3.0419   -1.6150    7.9318 C   0  0  0  0  0  0  0  0  0  0  0  0
    2.1855   -2.6326    7.5831 C   0  0  0  0  0  0  0  0  0  0  0  0
    2.5004   -3.4875    7.3956 H   0  0  0  0  0  0  0  0  0  0  0  0
    0.8288   -2.3292    7.5252 C   0  0  0  0  0  0  0  0  0  0  0  0
    0.2241   -3.0022    7.3114 H   0  0  0  0  0  0  0  0  0  0  0  0
    0.3611   -1.0578    7.7723 C   0  0  0  0  0  0  0  0  0  0  0  0
   -0.5519   -0.8874    7.7355 H   0  0  0  0  0  0  0  0  0  0  0  0
    1.2429   -0.0239    8.0790 C   0  0  0  0  0  0  0  0  0  0  0  0
    0.9342    0.8415    8.2245 H   0  0  0  0  0  0  0  0  0  0  0  0
    4.8527   -0.3044    8.4716 B   0  0  0  0  0  0  0  0  0  0  0  0
  1  4  2  0  0  0  0
  2 39  1  0  0  0  0
  3 38  1  0  0  0  0
  4 48  1  0  0  0  0
  5  1  1  0  0  0  0
  6  5  4  0  0  0  0
  7  6  1  0  0  0  0
  8  6  4  0  0  0  0
  9  8  1  0  0  0  0
 10  8  4  0  0  0  0
 11 10  1  0  0  0  0
 12 10  4  0  0  0  0
 13 12  1  0  0  0  0
 14  5  4  0  0  0  0
 15 14  1  0  0  0  0
 16  1  1  0  0  0  0
 17 16  4  0  0  0  0
 18 17  1  0  0  0  0
 19 17  4  0  0  0  0
 20 19  1  0  0  0  0
 21 19  4  0  0  0  0
 22 21  1  0  0  0  0
 23 21  4  0  0  0  0
 24 23  1  0  0  0  0
 25 16  4  0  0  0  0
 26 25  1  0  0  0  0
 27  1  1  0  0  0  0
 28 27  4  0  0  0  0
 29 28  1  0  0  0  0
 30 28  4  0  0  0  0
 31 30  1  0  0  0  0
 32 30  4  0  0  0  0
 33 32  1  0  0  0  0
 34 32  4  0  0  0  0
 35 34  1  0  0  0  0
 36 27  4  0  0  0  0
 37 36  1  0  0  0  0
 38 39  4  0  0  0  0
 39 40  4  0  0  0  0
 40 41  1  0  0  0  0
 42 40  4  0  0  0  0
 43 42  1  0  0  0  0
 44 42  4  0  0  0  0
 45 44  1  0  0  0  0
 46 38  4  0  0  0  0
 47 46  1  0  0  0  0
 48  2  1  0  0  0  0
 49 52  2  0  0  0  0
 50 87  1  0  0  0  0
 51 86  1  0  0  0  0
 52 48  1  0  0  0  0
 53 49  1  0  0  0  0
 54 53  4  0  0  0  0
 55 54  1  0  0  0  0
 56 54  4  0  0  0  0
 57 56  1  0  0  0  0
 58 56  4  0  0  0  0
 59 58  1  0  0  0  0
 60 58  4  0  0  0  0
 61 60  1  0  0  0  0
 62 53  4  0  0  0  0
 63 62  1  0  0  0  0
 64 49  1  0  0  0  0
 65 64  4  0  0  0  0
 66 65  1  0  0  0  0
 67 65  4  0  0  0  0
 68 67  1  0  0  0  0
 69 67  4  0  0  0  0
 70 69  1  0  0  0  0
 71 69  4  0  0  0  0
 72 71  1  0  0  0  0
 73 64  4  0  0  0  0
 74 73  1  0  0  0  0
 75 49  1  0  0  0  0
 76 75  4  0  0  0  0
 77 76  1  0  0  0  0
 78 76  4  0  0  0  0
 79 78  1  0  0  0  0
 80 78  4  0  0  0  0
 81 80  1  0  0  0  0
 82 80  4  0  0  0  0
 83 82  1  0  0  0  0
 84 75  4  0  0  0  0
 85 84  1  0  0  0  0
 86 87  4  0  0  0  0
 87 88  4  0  0  0  0
 88 89  1  0  0  0  0
 90 88  4  0  0  0  0
 91 90  1  0  0  0  0
 92 90  4  0  0  0  0
 93 92  1  0  0  0  0
 94 86  4  0  0  0  0
 95 94  1  0  0  0  0
 96  4  1  0  0  0  0
  3 48  1  0  0  0  0
 12 14  4  0  0  0  0
 23 25  4  0  0  0  0
 34 36  4  0  0  0  0
 44 46  4  0  0  0  0
 50 96  1  0  0  0  0
 51 96  1  0  0  0  0
 52 96  1  0  0  0  0
 60 62  4  0  0  0  0
 71 73  4  0  0  0  0
 82 84  4  0  0  0  0
 92 94  4  0  0  0  0
M  END
$$$$
MECRIW

From CSD data. Using bond type 'Any'. No disordered atoms. Largest molecule.
 90 94  0  0  0  0  0  0  0  0999 V2000
    3.8109    0.4845   10.0704 P   0  0  0  0  0  0  0  0  0  0  0  0
    6.8093    0.1609    8.2160 O   0  0  0  0  0  0  0  0  0  0  0  0
    4.2541    0.2410    8.5589 N   0  0  0  0  0  0  0  0  0  0  0  0
    5.6678    2.0558    7.4466 O   0  0  0  0  0  0  0  0  0  0  0  0
    6.9865    2.3268    7.6167 C   0  0  0  0  0  0  0  0  0  0  0  0
    5.4776    0.5956    7.7117 B   0  0  0  0  0  0  0  0  0  0  0  0
    7.6632    1.2011    8.0482 C   0  0  0  0  0  0  0  0  0  0  0  0
    1.9872    0.5028   10.1440 C   0  0  0  0  0  0  0  0  0  0  0  0
    1.6978   -0.3492    9.7547 H   0  0  0  0  0  0  0  0  0  0  0  0
    9.0278    1.2120    8.2398 C   0  0  0  0  0  0  0  0  0  0  0  0
    9.4910    0.4510    8.5084 H   0  0  0  0  0  0  0  0  0  0  0  0
    7.6277    3.5161    7.4069 C   0  0  0  0  0  0  0  0  0  0  0  0
    7.1639    4.2753    7.1353 H   0  0  0  0  0  0  0  0  0  0  0  0
    4.3460   -0.8320   11.2047 C   0  0  0  0  0  0  0  0  0  0  0  0
    4.0601   -0.5774   12.1085 H   0  0  0  0  0  0  0  0  0  0  0  0
    1.4162    0.5174   11.5804 C   0  0  0  0  0  0  0  0  0  0  0  0
    0.4574    0.5183   11.5427 H   0  0  0  0  0  0  0  0  0  0  0  0
    1.7189    1.3057   12.0361 H   0  0  0  0  0  0  0  0  0  0  0  0
    1.7179   -0.2619   12.0527 H   0  0  0  0  0  0  0  0  0  0  0  0
    1.3466    1.5866    9.2839 C   0  0  0  0  0  0  0  0  0  0  0  0
    0.3905    1.5312    9.3579 H   0  0  0  0  0  0  0  0  0  0  0  0
    1.6045    1.4612    8.3666 H   0  0  0  0  0  0  0  0  0  0  0  0
    1.6421    2.4495    9.5842 H   0  0  0  0  0  0  0  0  0  0  0  0
    8.9984    3.5433    7.6167 C   0  0  0  0  0  0  0  0  0  0  0  0
    9.4628    4.3389    7.4884 H   0  0  0  0  0  0  0  0  0  0  0  0
    4.5766    2.0167   10.6736 C   0  0  0  0  0  0  0  0  0  0  0  0
    5.5320    1.9249   10.4790 H   0  0  0  0  0  0  0  0  0  0  0  0
    9.6823    2.4277    8.0075 C   0  0  0  0  0  0  0  0  0  0  0  0
   10.6039    2.4768    8.1236 H   0  0  0  0  0  0  0  0  0  0  0  0
    5.8493   -0.9511   11.2198 C   0  0  0  0  0  0  0  0  0  0  0  0
    6.1096   -1.6485   11.8264 H   0  0  0  0  0  0  0  0  0  0  0  0
    6.2341   -0.1191   11.5050 H   0  0  0  0  0  0  0  0  0  0  0  0
    6.1615   -1.1611   10.3371 H   0  0  0  0  0  0  0  0  0  0  0  0
    4.4852    2.2168   12.2111 C   0  0  0  0  0  0  0  0  0  0  0  0
    4.9194    3.0378   12.4540 H   0  0  0  0  0  0  0  0  0  0  0  0
    4.9168    1.4830   12.6562 H   0  0  0  0  0  0  0  0  0  0  0  0
    3.5622    2.2522   12.4752 H   0  0  0  0  0  0  0  0  0  0  0  0
    4.1317    3.2742    9.9373 C   0  0  0  0  0  0  0  0  0  0  0  0
    4.5872    4.0371   10.3024 H   0  0  0  0  0  0  0  0  0  0  0  0
    3.1841    3.3879   10.0414 H   0  0  0  0  0  0  0  0  0  0  0  0
    4.3436    3.1915    9.0048 H   0  0  0  0  0  0  0  0  0  0  0  0
    3.6754   -2.1731   10.8682 C   0  0  0  0  0  0  0  0  0  0  0  0
    3.9742   -2.8441   11.4854 H   0  0  0  0  0  0  0  0  0  0  0  0
    3.9111   -2.4332    9.9750 H   0  0  0  0  0  0  0  0  0  0  0  0
    2.7224   -2.0804   10.9331 H   0  0  0  0  0  0  0  0  0  0  0  0
    5.3568   -0.4845    5.0181 P   0  0  0  0  0  0  0  0  0  0  0  0
    2.3584   -0.1609    6.8725 O   0  0  0  0  0  0  0  0  0  0  0  0
    4.9136   -0.2410    6.5295 N   0  0  0  0  0  0  0  0  0  0  0  0
    3.4999   -2.0558    7.6419 O   0  0  0  0  0  0  0  0  0  0  0  0
    2.1812   -2.3268    7.4718 C   0  0  0  0  0  0  0  0  0  0  0  0
    3.6901   -0.5956    7.3768 B   0  0  0  0  0  0  0  0  0  0  0  0
    1.5045   -1.2011    7.0403 C   0  0  0  0  0  0  0  0  0  0  0  0
    7.1805   -0.5028    4.9445 C   0  0  0  0  0  0  0  0  0  0  0  0
    7.4699    0.3492    5.3338 H   0  0  0  0  0  0  0  0  0  0  0  0
    0.1399   -1.2120    6.8487 C   0  0  0  0  0  0  0  0  0  0  0  0
   -0.3233   -0.4510    6.5801 H   0  0  0  0  0  0  0  0  0  0  0  0
    1.5400   -3.5161    7.6816 C   0  0  0  0  0  0  0  0  0  0  0  0
    2.0038   -4.2753    7.9531 H   0  0  0  0  0  0  0  0  0  0  0  0
    4.8217    0.8320    3.8838 C   0  0  0  0  0  0  0  0  0  0  0  0
    5.1076    0.5774    2.9800 H   0  0  0  0  0  0  0  0  0  0  0  0
    7.7515   -0.5174    3.5081 C   0  0  0  0  0  0  0  0  0  0  0  0
    8.7103   -0.5183    3.5458 H   0  0  0  0  0  0  0  0  0  0  0  0
    7.4488   -1.3057    3.0524 H   0  0  0  0  0  0  0  0  0  0  0  0
    7.4498    0.2619    3.0358 H   0  0  0  0  0  0  0  0  0  0  0  0
    7.8211   -1.5866    5.8045 C   0  0  0  0  0  0  0  0  0  0  0  0
    8.7772   -1.5312    5.7306 H   0  0  0  0  0  0  0  0  0  0  0  0
    7.5632   -1.4612    6.7219 H   0  0  0  0  0  0  0  0  0  0  0  0
    7.5256   -2.4495    5.5043 H   0  0  0  0  0  0  0  0  0  0  0  0
    0.1693   -3.5433    7.4718 C   0  0  0  0  0  0  0  0  0  0  0  0
   -0.2951   -4.3389    7.6001 H   0  0  0  0  0  0  0  0  0  0  0  0
    4.5911   -2.0167    4.4149 C   0  0  0  0  0  0  0  0  0  0  0  0
    3.6357   -1.9249    4.6095 H   0  0  0  0  0  0  0  0  0  0  0  0
   -0.5146   -2.4277    7.0810 C   0  0  0  0  0  0  0  0  0  0  0  0
   -1.4362   -2.4768    6.9648 H   0  0  0  0  0  0  0  0  0  0  0  0
    3.3184    0.9511    3.8687 C   0  0  0  0  0  0  0  0  0  0  0  0
    3.0581    1.6485    3.2621 H   0  0  0  0  0  0  0  0  0  0  0  0
    2.9336    0.1191    3.5835 H   0  0  0  0  0  0  0  0  0  0  0  0
    3.0062    1.1611    4.7514 H   0  0  0  0  0  0  0  0  0  0  0  0
    4.6825   -2.2168    2.8774 C   0  0  0  0  0  0  0  0  0  0  0  0
    4.2484   -3.0378    2.6345 H   0  0  0  0  0  0  0  0  0  0  0  0
    4.2509   -1.4830    2.4323 H   0  0  0  0  0  0  0  0  0  0  0  0
    5.6055   -2.2522    2.6133 H   0  0  0  0  0  0  0  0  0  0  0  0
    5.0360   -3.2742    5.1512 C   0  0  0  0  0  0  0  0  0  0  0  0
    4.5805   -4.0371    4.7861 H   0  0  0  0  0  0  0  0  0  0  0  0
    5.9836   -3.3879    5.0471 H   0  0  0  0  0  0  0  0  0  0  0  0
    4.8241   -3.1915    6.0837 H   0  0  0  0  0  0  0  0  0  0  0  0
    5.4923    2.1731    4.2203 C   0  0  0  0  0  0  0  0  0  0  0  0
    5.1936    2.8441    3.6031 H   0  0  0  0  0  0  0  0  0  0  0  0
    5.2566    2.4332    5.1135 H   0  0  0  0  0  0  0  0  0  0  0  0
    6.4453    2.0804    4.1554 H   0  0  0  0  0  0  0  0  0  0  0  0
  1  3  2  0  0  0  0
  2  6  1  0  0  0  0
  3  6  1  0  0  0  0
  4  5  1  0  0  0  0
  5  7  4  0  0  0  0
  6  4  1  0  0  0  0
  7  2  1  0  0  0  0
  8  1  1  0  0  0  0
  9  8  1  0  0  0  0
 10  7  4  0  0  0  0
 11 10  1  0  0  0  0
 12  5  4  0  0  0  0
 13 12  1  0  0  0  0
 14  1  1  0  0  0  0
 15 14  1  0  0  0  0
 16  8  1  0  0  0  0
 17 16  1  0  0  0  0
 18 16  1  0  0  0  0
 19 16  1  0  0  0  0
 20  8  1  0  0  0  0
 21 20  1  0  0  0  0
 22 20  1  0  0  0  0
 23 20  1  0  0  0  0
 24 12  4  0  0  0  0
 25 24  1  0  0  0  0
 26  1  1  0  0  0  0
 27 26  1  0  0  0  0
 28 10  4  0  0  0  0
 29 28  1  0  0  0  0
 30 14  1  0  0  0  0
 31 30  1  0  0  0  0
 32 30  1  0  0  0  0
 33 30  1  0  0  0  0
 34 26  1  0  0  0  0
 35 34  1  0  0  0  0
 36 34  1  0  0  0  0
 37 34  1  0  0  0  0
 38 26  1  0  0  0  0
 39 38  1  0  0  0  0
 40 38  1  0  0  0  0
 41 38  1  0  0  0  0
 42 14  1  0  0  0  0
 43 42  1  0  0  0  0
 44 42  1  0  0  0  0
 45 42  1  0  0  0  0
 46 48  2  0  0  0  0
 47 51  1  0  0  0  0
 48  6  1  0  0  0  0
 49 50  1  0  0  0  0
 50 52  4  0  0  0  0
 51  3  1  0  0  0  0
 52 47  1  0  0  0  0
 53 46  1  0  0  0  0
 54 53  1  0  0  0  0
 55 52  4  0  0  0  0
 56 55  1  0  0  0  0
 57 50  4  0  0  0  0
 58 57  1  0  0  0  0
 59 46  1  0  0  0  0
 60 59  1  0  0  0  0
 61 53  1  0  0  0  0
 62 61  1  0  0  0  0
 63 61  1  0  0  0  0
 64 61  1  0  0  0  0
 65 53  1  0  0  0  0
 66 65  1  0  0  0  0
 67 65  1  0  0  0  0
 68 65  1  0  0  0  0
 69 57  4  0  0  0  0
 70 69  1  0  0  0  0
 71 46  1  0  0  0  0
 72 71  1  0  0  0  0
 73 55  4  0  0  0  0
 74 73  1  0  0  0  0
 75 59  1  0  0  0  0
 76 75  1  0  0  0  0
 77 75  1  0  0  0  0
 78 75  1  0  0  0  0
 79 71  1  0  0  0  0
 80 79  1  0  0  0  0
 81 79  1  0  0  0  0
 82 79  1  0  0  0  0
 83 71  1  0  0  0  0
 84 83  1  0  0  0  0
 85 83  1  0  0  0  0
 86 83  1  0  0  0  0
 87 59  1  0  0  0  0
 88 87  1  0  0  0  0
 89 87  1  0  0  0  0
 90 87  1  0  0  0  0
 24 28  4  0  0  0  0
 48 51  1  0  0  0  0
 49 51  1  0  0  0  0
 69 73  4  0  0  0  0
M  END
$$$$
MECROC

From CSD data. Using bond type 'Any'. No disordered atoms. Largest molecule.
106110  0  0  0  0  0  0  0  0999 V2000
    0.9224    8.0061    2.5214 P   0  0  0  0  0  0  0  0  0  0  0  0
   -0.5062   10.4848    0.2067 O   0  0  0  0  0  0  0  0  0  0  0  0
    1.6113    9.8099   -0.5222 O   0  0  0  0  0  0  0  0  0  0  0  0
    0.3692    8.1777    1.0230 N   0  0  0  0  0  0  0  0  0  0  0  0
    2.7894    7.8755    2.5399 C   0  0  0  0  0  0  0  0  0  0  0  0
    3.4557    9.1005    1.9117 C   0  0  0  0  0  0  0  0  0  0  0  0
    4.4101    8.9954    1.9385 H   0  0  0  0  0  0  0  0  0  0  0  0
    3.2063    9.8871    2.4017 H   0  0  0  0  0  0  0  0  0  0  0  0
    3.1692    9.1892    1.0001 H   0  0  0  0  0  0  0  0  0  0  0  0
    3.1674    6.6554    1.7358 C   0  0  0  0  0  0  0  0  0  0  0  0
    4.1230    6.5618    1.7251 H   0  0  0  0  0  0  0  0  0  0  0  0
    2.8454    6.7523    0.8364 H   0  0  0  0  0  0  0  0  0  0  0  0
    2.7747    5.8754    2.1345 H   0  0  0  0  0  0  0  0  0  0  0  0
    3.3804    7.7212    3.9576 C   0  0  0  0  0  0  0  0  0  0  0  0
    4.3365    7.6604    3.9012 H   0  0  0  0  0  0  0  0  0  0  0  0
    3.0330    6.9231    4.3644 H   0  0  0  0  0  0  0  0  0  0  0  0
    3.1392    8.4831    4.4892 H   0  0  0  0  0  0  0  0  0  0  0  0
    0.4040    6.3894    3.1884 C   0  0  0  0  0  0  0  0  0  0  0  0
    1.0290    5.7030    3.2380 H   0  0  0  0  0  0  0  0  0  0  0  0
   -1.0104    6.1250    3.6663 C   0  0  0  0  0  0  0  0  0  0  0  0
   -1.6333    6.3697    2.9628 H   0  0  0  0  0  0  0  0  0  0  0  0
   -1.1954    6.6866    4.4355 H   0  0  0  0  0  0  0  0  0  0  0  0
   -1.2323    4.6668    4.0475 C   0  0  0  0  0  0  0  0  0  0  0  0
   -1.1657    4.1200    3.2488 H   0  0  0  0  0  0  0  0  0  0  0  0
   -0.5289    4.3893    4.6543 H   0  0  0  0  0  0  0  0  0  0  0  0
   -2.5665    4.4205    4.6986 C   0  0  0  0  0  0  0  0  0  0  0  0
   -2.6496    3.4878    4.9148 H   0  0  0  0  0  0  0  0  0  0  0  0
   -3.2691    4.6718    4.0959 H   0  0  0  0  0  0  0  0  0  0  0  0
   -2.6314    4.9411    5.5014 H   0  0  0  0  0  0  0  0  0  0  0  0
    0.2380    9.3255    3.6529 C   0  0  0  0  0  0  0  0  0  0  0  0
    0.4174    8.9724    5.1430 C   0  0  0  0  0  0  0  0  0  0  0  0
    0.0528    9.6769    5.6840 H   0  0  0  0  0  0  0  0  0  0  0  0
    1.3517    8.8706    5.3377 H   0  0  0  0  0  0  0  0  0  0  0  0
   -0.0415    8.1514    5.3350 H   0  0  0  0  0  0  0  0  0  0  0  0
    0.9375   10.6884    3.3991 C   0  0  0  0  0  0  0  0  0  0  0  0
    0.5705   11.3502    3.9898 H   0  0  0  0  0  0  0  0  0  0  0  0
    0.7950   10.9577    2.4889 H   0  0  0  0  0  0  0  0  0  0  0  0
    1.8800   10.5998    3.5629 H   0  0  0  0  0  0  0  0  0  0  0  0
   -1.2490    9.4946    3.3065 C   0  0  0  0  0  0  0  0  0  0  0  0
   -1.6340   10.1695    3.8717 H   0  0  0  0  0  0  0  0  0  0  0  0
   -1.7066    8.6621    3.4461 H   0  0  0  0  0  0  0  0  0  0  0  0
   -1.3363    9.7574    2.3882 H   0  0  0  0  0  0  0  0  0  0  0  0
    1.5423   11.1614   -0.4484 C   0  0  0  0  0  0  0  0  0  0  0  0
    0.2834   11.5522   -0.0067 C   0  0  0  0  0  0  0  0  0  0  0  0
   -0.0364   12.8823    0.1316 C   0  0  0  0  0  0  0  0  0  0  0  0
   -0.8850   13.1483    0.4054 H   0  0  0  0  0  0  0  0  0  0  0  0
    0.9587   13.8150   -0.1544 C   0  0  0  0  0  0  0  0  0  0  0  0
    0.7711   14.7214   -0.0591 H   0  0  0  0  0  0  0  0  0  0  0  0
    2.1965   13.4324   -0.5692 C   0  0  0  0  0  0  0  0  0  0  0  0
    2.8377   14.0810   -0.7545 H   0  0  0  0  0  0  0  0  0  0  0  0
    2.5166   12.0974   -0.7196 C   0  0  0  0  0  0  0  0  0  0  0  0
    3.3655   11.8363   -0.9948 H   0  0  0  0  0  0  0  0  0  0  0  0
    0.3195    9.2516   -0.0792 B   0  0  0  0  0  0  0  0  0  0  0  0
   -0.9224    8.4149   -2.5214 P   0  0  0  0  0  0  0  0  0  0  0  0
    0.5062    5.9362   -0.2067 O   0  0  0  0  0  0  0  0  0  0  0  0
   -1.6113    6.6111    0.5222 O   0  0  0  0  0  0  0  0  0  0  0  0
   -0.3692    8.2433   -1.0230 N   0  0  0  0  0  0  0  0  0  0  0  0
   -2.7894    8.5455   -2.5399 C   0  0  0  0  0  0  0  0  0  0  0  0
   -3.4557    7.3205   -1.9117 C   0  0  0  0  0  0  0  0  0  0  0  0
   -4.4101    7.4256   -1.9385 H   0  0  0  0  0  0  0  0  0  0  0  0
   -3.2063    6.5339   -2.4017 H   0  0  0  0  0  0  0  0  0  0  0  0
   -3.1692    7.2318   -1.0001 H   0  0  0  0  0  0  0  0  0  0  0  0
   -3.1674    9.7656   -1.7358 C   0  0  0  0  0  0  0  0  0  0  0  0
   -4.1230    9.8592   -1.7251 H   0  0  0  0  0  0  0  0  0  0  0  0
   -2.8454    9.6687   -0.8364 H   0  0  0  0  0  0  0  0  0  0  0  0
   -2.7747   10.5456   -2.1345 H   0  0  0  0  0  0  0  0  0  0  0  0
   -3.3804    8.6998   -3.9576 C   0  0  0  0  0  0  0  0  0  0  0  0
   -4.3365    8.7606   -3.9012 H   0  0  0  0  0  0  0  0  0  0  0  0
   -3.0330    9.4979   -4.3644 H   0  0  0  0  0  0  0  0  0  0  0  0
   -3.1392    7.9379   -4.4892 H   0  0  0  0  0  0  0  0  0  0  0  0
   -0.4040   10.0316   -3.1884 C   0  0  0  0  0  0  0  0  0  0  0  0
   -1.0290   10.7180   -3.2380 H   0  0  0  0  0  0  0  0  0  0  0  0
    1.0104   10.2960   -3.6663 C   0  0  0  0  0  0  0  0  0  0  0  0
    1.6333   10.0513   -2.9628 H   0  0  0  0  0  0  0  0  0  0  0  0
    1.1954    9.7344   -4.4355 H   0  0  0  0  0  0  0  0  0  0  0  0
    1.2323   11.7542   -4.0475 C   0  0  0  0  0  0  0  0  0  0  0  0
    1.1657   12.3010   -3.2488 H   0  0  0  0  0  0  0  0  0  0  0  0
    0.5289   12.0317   -4.6543 H   0  0  0  0  0  0  0  0  0  0  0  0
    2.5665   12.0005   -4.6986 C   0  0  0  0  0  0  0  0  0  0  0  0
    2.6496   12.9332   -4.9148 H   0  0  0  0  0  0  0  0  0  0  0  0
    3.2691   11.7492   -4.0959 H   0  0  0  0  0  0  0  0  0  0  0  0
    2.6314   11.4799   -5.5014 H   0  0  0  0  0  0  0  0  0  0  0  0
   -0.2380    7.0955   -3.6529 C   0  0  0  0  0  0  0  0  0  0  0  0
   -0.4174    7.4486   -5.1430 C   0  0  0  0  0  0  0  0  0  0  0  0
   -0.0528    6.7441   -5.6840 H   0  0  0  0  0  0  0  0  0  0  0  0
   -1.3517    7.5504   -5.3377 H   0  0  0  0  0  0  0  0  0  0  0  0
    0.0415    8.2696   -5.3350 H   0  0  0  0  0  0  0  0  0  0  0  0
   -0.9375    5.7326   -3.3991 C   0  0  0  0  0  0  0  0  0  0  0  0
   -0.5705    5.0708   -3.9898 H   0  0  0  0  0  0  0  0  0  0  0  0
   -0.7950    5.4633   -2.4889 H   0  0  0  0  0  0  0  0  0  0  0  0
   -1.8800    5.8212   -3.5629 H   0  0  0  0  0  0  0  0  0  0  0  0
    1.2490    6.9264   -3.3065 C   0  0  0  0  0  0  0  0  0  0  0  0
    1.6340    6.2515   -3.8717 H   0  0  0  0  0  0  0  0  0  0  0  0
    1.7066    7.7589   -3.4461 H   0  0  0  0  0  0  0  0  0  0  0  0
    1.3363    6.6636   -2.3882 H   0  0  0  0  0  0  0  0  0  0  0  0
   -1.5423    5.2596    0.4484 C   0  0  0  0  0  0  0  0  0  0  0  0
   -0.2834    4.8688    0.0067 C   0  0  0  0  0  0  0  0  0  0  0  0
    0.0364    3.5387   -0.1316 C   0  0  0  0  0  0  0  0  0  0  0  0
    0.8850    3.2727   -0.4054 H   0  0  0  0  0  0  0  0  0  0  0  0
   -0.9587    2.6060    0.1544 C   0  0  0  0  0  0  0  0  0  0  0  0
   -0.7711    1.6996    0.0591 H   0  0  0  0  0  0  0  0  0  0  0  0
   -2.1965    2.9886    0.5692 C   0  0  0  0  0  0  0  0  0  0  0  0
   -2.8377    2.3400    0.7545 H   0  0  0  0  0  0  0  0  0  0  0  0
   -2.5166    4.3236    0.7196 C   0  0  0  0  0  0  0  0  0  0  0  0
   -3.3655    4.5847    0.9948 H   0  0  0  0  0  0  0  0  0  0  0  0
   -0.3195    7.1694    0.0792 B   0  0  0  0  0  0  0  0  0  0  0  0
  1  4  2  0  0  0  0
  2 44  1  0  0  0  0
  3 43  1  0  0  0  0
  4 53  1  0  0  0  0
  5  1  1  0  0  0  0
  6  5  1  0  0  0  0
  7  6  1  0  0  0  0
  8  6  1  0  0  0  0
  9  6  1  0  0  0  0
 10  5  1  0  0  0  0
 11 10  1  0  0  0  0
 12 10  1  0  0  0  0
 13 10  1  0  0  0  0
 14  5  1  0  0  0  0
 15 14  1  0  0  0  0
 16 14  1  0  0  0  0
 17 14  1  0  0  0  0
 18  1  1  0  0  0  0
 19 18  1  0  0  0  0
 20 18  1  0  0  0  0
 21 20  1  0  0  0  0
 22 20  1  0  0  0  0
 23 20  1  0  0  0  0
 24 23  1  0  0  0  0
 25 23  1  0  0  0  0
 26 23  1  0  0  0  0
 27 26  1  0  0  0  0
 28 26  1  0  0  0  0
 29 26  1  0  0  0  0
 30  1  1  0  0  0  0
 31 30  1  0  0  0  0
 32 31  1  0  0  0  0
 33 31  1  0  0  0  0
 34 31  1  0  0  0  0
 35 30  1  0  0  0  0
 36 35  1  0  0  0  0
 37 35  1  0  0  0  0
 38 35  1  0  0  0  0
 39 30  1  0  0  0  0
 40 39  1  0  0  0  0
 41 39  1  0  0  0  0
 42 39  1  0  0  0  0
 43 44  4  0  0  0  0
 44 45  4  0  0  0  0
 45 46  1  0  0  0  0
 47 45  4  0  0  0  0
 48 47  1  0  0  0  0
 49 47  4  0  0  0  0
 50 49  1  0  0  0  0
 51 43  4  0  0  0  0
 52 51  1  0  0  0  0
 53  2  1  0  0  0  0
 54 57  2  0  0  0  0
 55 97  1  0  0  0  0
 56 96  1  0  0  0  0
 57 53  1  0  0  0  0
 58 54  1  0  0  0  0
 59 58  1  0  0  0  0
 60 59  1  0  0  0  0
 61 59  1  0  0  0  0
 62 59  1  0  0  0  0
 63 58  1  0  0  0  0
 64 63  1  0  0  0  0
 65 63  1  0  0  0  0
 66 63  1  0  0  0  0
 67 58  1  0  0  0  0
 68 67  1  0  0  0  0
 69 67  1  0  0  0  0
 70 67  1  0  0  0  0
 71 54  1  0  0  0  0
 72 71  1  0  0  0  0
 73 71  1  0  0  0  0
 74 73  1  0  0  0  0
 75 73  1  0  0  0  0
 76 73  1  0  0  0  0
 77 76  1  0  0  0  0
 78 76  1  0  0  0  0
 79 76  1  0  0  0  0
 80 79  1  0  0  0  0
 81 79  1  0  0  0  0
 82 79  1  0  0  0  0
 83 54  1  0  0  0  0
 84 83  1  0  0  0  0
 85 84  1  0  0  0  0
 86 84  1  0  0  0  0
 87 84  1  0  0  0  0
 88 83  1  0  0  0  0
 89 88  1  0  0  0  0
 90 88  1  0  0  0  0
 91 88  1  0  0  0  0
 92 83  1  0  0  0  0
 93 92  1  0  0  0  0
 94 92  1  0  0  0  0
 95 92  1  0  0  0  0
 96 97  4  0  0  0  0
 97 98  4  0  0  0  0
 98 99  1  0  0  0  0
100 98  4  0  0  0  0
101100  1  0  0  0  0
102100  4  0  0  0  0
103102  1  0  0  0  0
104 96  4  0  0  0  0
105104  1  0  0  0  0
106  4  1  0  0  0  0
  3 53  1  0  0  0  0
 49 51  4  0  0  0  0
 55106  1  0  0  0  0
 56106  1  0  0  0  0
 57106  1  0  0  0  0
102104  4  0  0  0  0
M  END
$$$$
MEFNAM

From CSD data. Using bond type 'Any'. No disordered atoms. Largest molecule.
 95120  0  0  0  0  0  0  0  0999 V2000
    3.2436   14.6637   15.3066 Au  0  0  0  0  0  0  0  0  0  0  0  0
    1.8151   14.4139   14.3132 H   0  0  0  0  0  0  0  0  0  0  0  0
    0.5014   15.0678   15.3459 Ru  0  0  0  0  0  0  0  0  0  0  0  0
    5.4496   14.8477   15.8012 P   0  0  0  0  0  0  0  0  0  0  0  0
    0.1469   15.2907   13.0681 P   0  0  0  0  0  0  0  0  0  0  0  0
    1.2928   16.7690   15.4186 C   0  0  0  0  0  0  0  0  0  0  0  0
    1.6696   17.8443   15.5117 O   0  0  0  0  0  0  0  0  0  0  0  0
    0.3630   13.6786   17.1070 C   0  0  0  0  0  0  0  0  0  0  0  0
    1.3648   13.2263   17.1232 H   0  0  0  0  0  0  0  0  0  0  0  0
   -0.7732   13.2817   15.9612 C   0  0  0  0  0  0  0  0  0  0  0  0
   -0.5639   12.5110   15.2040 H   0  0  0  0  0  0  0  0  0  0  0  0
   -1.6946   14.6615   15.5542 B   0  0  0  0  0  0  0  0  0  0  0  0
   -2.1214   14.8723   14.5622 H   0  0  0  0  0  0  0  0  0  0  0  0
   -1.1667   16.0091   16.6637 B   0  0  0  0  0  0  0  0  0  0  0  0
   -1.2720   17.0844   16.4572 H   0  0  0  0  0  0  0  0  0  0  0  0
    0.1801   15.2292   17.6253 B   0  0  0  0  0  0  0  0  0  0  0  0
    1.0046   15.8445   18.0383 H   0  0  0  0  0  0  0  0  0  0  0  0
   -0.3880   13.8924   18.6153 B   0  0  0  0  0  0  0  0  0  0  0  0
    0.0762   13.6293   19.5789 H   0  0  0  0  0  0  0  0  0  0  0  0
   -1.0835   12.6633   17.5382 B   0  0  0  0  0  0  0  0  0  0  0  0
   -1.0849   11.5942   17.7994 H   0  0  0  0  0  0  0  0  0  0  0  0
   -2.3611   13.3140   16.5948 B   0  0  0  0  0  0  0  0  0  0  0  0
   -3.1966   12.6879   16.2466 H   0  0  0  0  0  0  0  0  0  0  0  0
   -2.6105   14.9630   17.0645 B   0  0  0  0  0  0  0  0  0  0  0  0
   -3.6233   15.3922   17.0483 H   0  0  0  0  0  0  0  0  0  0  0  0
   -1.3939   15.3384   18.2873 B   0  0  0  0  0  0  0  0  0  0  0  0
   -1.6212   16.0568   19.0890 H   0  0  0  0  0  0  0  0  0  0  0  0
   -2.1186   13.7216   18.3055 B   0  0  0  0  0  0  0  0  0  0  0  0
   -2.7851   13.3878   19.1113 H   0  0  0  0  0  0  0  0  0  0  0  0
    5.7793   16.3291   16.8479 C   0  0  0  0  0  0  0  0  0  0  0  0
    5.0339   17.4459   16.6353 C   0  0  0  0  0  0  0  0  0  0  0  0
    4.3633   17.4628   15.9915 H   0  0  0  0  0  0  0  0  0  0  0  0
    5.3207   18.5796   17.4269 C   0  0  0  0  0  0  0  0  0  0  0  0
    4.7637   19.3195   17.3075 H   0  0  0  0  0  0  0  0  0  0  0  0
    6.2768   18.6903   18.3177 C   0  0  0  0  0  0  0  0  0  0  0  0
    6.4735   19.4933   18.7550 H   0  0  0  0  0  0  0  0  0  0  0  0
    6.9557   17.5212   18.5363 C   0  0  0  0  0  0  0  0  0  0  0  0
    7.5889   17.5182   19.2105 H   0  0  0  0  0  0  0  0  0  0  0  0
    6.7645   16.3429   17.8460 C   0  0  0  0  0  0  0  0  0  0  0  0
    7.2730   15.5861   18.0342 H   0  0  0  0  0  0  0  0  0  0  0  0
    6.0717   13.4063   16.7365 C   0  0  0  0  0  0  0  0  0  0  0  0
    5.5369   13.1263   17.9431 C   0  0  0  0  0  0  0  0  0  0  0  0
    4.8953   13.7016   18.2934 H   0  0  0  0  0  0  0  0  0  0  0  0
    5.8999   12.0280   18.6679 C   0  0  0  0  0  0  0  0  0  0  0  0
    5.5272   11.8803   19.5081 H   0  0  0  0  0  0  0  0  0  0  0  0
    6.8310   11.1373   18.1517 C   0  0  0  0  0  0  0  0  0  0  0  0
    7.0638   10.3574   18.6092 H   0  0  0  0  0  0  0  0  0  0  0  0
    7.3852   11.4450   16.9430 C   0  0  0  0  0  0  0  0  0  0  0  0
    8.0406   10.8819   16.5867 H   0  0  0  0  0  0  0  0  0  0  0  0
    6.9959   12.5894   16.2223 C   0  0  0  0  0  0  0  0  0  0  0  0
    7.3783   12.7771   15.3963 H   0  0  0  0  0  0  0  0  0  0  0  0
    6.5123   14.9984   14.3497 C   0  0  0  0  0  0  0  0  0  0  0  0
    7.8647   15.4199   14.4974 C   0  0  0  0  0  0  0  0  0  0  0  0
    8.1889   15.6045   15.3498 H   0  0  0  0  0  0  0  0  0  0  0  0
    8.6974   15.5584   13.4305 C   0  0  0  0  0  0  0  0  0  0  0  0
    9.5787   15.8368   13.5459 H   0  0  0  0  0  0  0  0  0  0  0  0
    8.2014   15.2753   12.1672 C   0  0  0  0  0  0  0  0  0  0  0  0
    8.7514   15.3553   11.4202 H   0  0  0  0  0  0  0  0  0  0  0  0
    6.8906   14.8769   12.0215 C   0  0  0  0  0  0  0  0  0  0  0  0
    6.5650   14.6800   11.1732 H   0  0  0  0  0  0  0  0  0  0  0  0
    6.0620   14.7677   13.1046 C   0  0  0  0  0  0  0  0  0  0  0  0
    5.1711   14.5292   12.9770 H   0  0  0  0  0  0  0  0  0  0  0  0
    1.6281   15.5522   12.0417 C   0  0  0  0  0  0  0  0  0  0  0  0
    2.3957   16.6598   12.2826 C   0  0  0  0  0  0  0  0  0  0  0  0
    2.1754   17.2136   12.9953 H   0  0  0  0  0  0  0  0  0  0  0  0
    3.4765   16.9798   11.5052 C   0  0  0  0  0  0  0  0  0  0  0  0
    3.9739   17.7428   11.6915 H   0  0  0  0  0  0  0  0  0  0  0  0
    3.8187   16.1845   10.4667 C   0  0  0  0  0  0  0  0  0  0  0  0
    4.5503   16.3952    9.9322 H   0  0  0  0  0  0  0  0  0  0  0  0
    3.0677   15.0569   10.2096 C   0  0  0  0  0  0  0  0  0  0  0  0
    3.2866   14.4923    9.5030 H   0  0  0  0  0  0  0  0  0  0  0  0
    1.9828   14.7815   11.0234 C   0  0  0  0  0  0  0  0  0  0  0  0
    1.4784   14.0216   10.8452 H   0  0  0  0  0  0  0  0  0  0  0  0
   -0.6346   13.8232   12.3677 C   0  0  0  0  0  0  0  0  0  0  0  0
   -0.0540   12.6079   12.4648 C   0  0  0  0  0  0  0  0  0  0  0  0
    0.7704   12.5618   12.8920 H   0  0  0  0  0  0  0  0  0  0  0  0
   -0.5542   11.4819   12.0053 C   0  0  0  0  0  0  0  0  0  0  0  0
   -0.0984   10.6773   12.0802 H   0  0  0  0  0  0  0  0  0  0  0  0
   -1.8151   11.5465   11.4020 C   0  0  0  0  0  0  0  0  0  0  0  0
   -2.2280   10.7727   11.0943 H   0  0  0  0  0  0  0  0  0  0  0  0
   -2.4248   12.7217   11.2684 C   0  0  0  0  0  0  0  0  0  0  0  0
   -3.2409   12.7310   10.8351 H   0  0  0  0  0  0  0  0  0  0  0  0
   -1.9204   13.9247   11.7239 C   0  0  0  0  0  0  0  0  0  0  0  0
   -2.3749   14.7292   11.6247 H   0  0  0  0  0  0  0  0  0  0  0  0
   -0.9090   16.6813   12.4993 C   0  0  0  0  0  0  0  0  0  0  0  0
   -0.9464   16.9859   11.1348 C   0  0  0  0  0  0  0  0  0  0  0  0
   -0.4198   16.4875   10.5537 H   0  0  0  0  0  0  0  0  0  0  0  0
   -1.7306   17.9904   10.6165 C   0  0  0  0  0  0  0  0  0  0  0  0
   -1.7334   18.1766    9.7055 H   0  0  0  0  0  0  0  0  0  0  0  0
   -2.4899   18.6934   11.4728 C   0  0  0  0  0  0  0  0  0  0  0  0
   -3.0220   19.3780   11.1388 H   0  0  0  0  0  0  0  0  0  0  0  0
   -2.5093   18.4273   12.8677 C   0  0  0  0  0  0  0  0  0  0  0  0
   -3.0428   18.9165   13.4508 H   0  0  0  0  0  0  0  0  0  0  0  0
   -1.6752   17.3828   13.3212 C   0  0  0  0  0  0  0  0  0  0  0  0
   -1.6641   17.1797   14.2282 H   0  0  0  0  0  0  0  0  0  0  0  0
  1  2  1  0  0  0  0
  2  3  1  0  0  0  0
  3  1  1  0  0  0  0
  4  1  1  0  0  0  0
  5  3  1  0  0  0  0
  6  3  1  0  0  0  0
  7  6  3  0  0  0  0
  8  3  1  0  0  0  0
  9  8  1  0  0  0  0
 10  3  1  0  0  0  0
 11 10  1  0  0  0  0
 12  3  1  0  0  0  0
 13 12  1  0  0  0  0
 14  3  1  0  0  0  0
 15 14  1  0  0  0  0
 16  3  1  0  0  0  0
 17 16  1  0  0  0  0
 18  8  1  0  0  0  0
 19 18  1  0  0  0  0
 20  8  1  0  0  0  0
 21 20  1  0  0  0  0
 22 10  1  0  0  0  0
 23 22  1  0  0  0  0
 24 12  1  0  0  0  0
 25 24  1  0  0  0  0
 26 14  1  0  0  0  0
 27 26  1  0  0  0  0
 28 18  1  0  0  0  0
 29 28  1  0  0  0  0
 30  4  1  0  0  0  0
 31 30  4  0  0  0  0
 32 31  1  0  0  0  0
 33 31  4  0  0  0  0
 34 33  1  0  0  0  0
 35 33  4  0  0  0  0
 36 35  1  0  0  0  0
 37 35  4  0  0  0  0
 38 37  1  0  0  0  0
 39 30  4  0  0  0  0
 40 39  1  0  0  0  0
 41  4  1  0  0  0  0
 42 41  4  0  0  0  0
 43 42  1  0  0  0  0
 44 42  4  0  0  0  0
 45 44  1  0  0  0  0
 46 44  4  0  0  0  0
 47 46  1  0  0  0  0
 48 46  4  0  0  0  0
 49 48  1  0  0  0  0
 50 41  4  0  0  0  0
 51 50  1  0  0  0  0
 52  4  1  0  0  0  0
 53 52  4  0  0  0  0
 54 53  1  0  0  0  0
 55 53  4  0  0  0  0
 56 55  1  0  0  0  0
 57 55  4  0  0  0  0
 58 57  1  0  0  0  0
 59 57  4  0  0  0  0
 60 59  1  0  0  0  0
 61 52  4  0  0  0  0
 62 61  1  0  0  0  0
 63  5  1  0  0  0  0
 64 63  4  0  0  0  0
 65 64  1  0  0  0  0
 66 64  4  0  0  0  0
 67 66  1  0  0  0  0
 68 66  4  0  0  0  0
 69 68  1  0  0  0  0
 70 68  4  0  0  0  0
 71 70  1  0  0  0  0
 72 63  4  0  0  0  0
 73 72  1  0  0  0  0
 74  5  1  0  0  0  0
 75 74  4  0  0  0  0
 76 75  1  0  0  0  0
 77 75  4  0  0  0  0
 78 77  1  0  0  0  0
 79 77  4  0  0  0  0
 80 79  1  0  0  0  0
 81 79  4  0  0  0  0
 82 81  1  0  0  0  0
 83 74  4  0  0  0  0
 84 83  1  0  0  0  0
 85  5  1  0  0  0  0
 86 85  4  0  0  0  0
 87 86  1  0  0  0  0
 88 86  4  0  0  0  0
 89 88  1  0  0  0  0
 90 88  4  0  0  0  0
 91 90  1  0  0  0  0
 92 90  4  0  0  0  0
 93 92  1  0  0  0  0
 94 85  4  0  0  0  0
 95 94  1  0  0  0  0
  8 10  1  0  0  0  0
  8 16  1  0  0  0  0
 10 12  1  0  0  0  0
 10 20  1  0  0  0  0
 12 14  1  0  0  0  0
 12 22  1  0  0  0  0
 14 16  1  0  0  0  0
 14 24  1  0  0  0  0
 16 18  1  0  0  0  0
 16 26  1  0  0  0  0
 18 20  1  0  0  0  0
 18 26  1  0  0  0  0
 20 22  1  0  0  0  0
 20 28  1  0  0  0  0
 22 24  1  0  0  0  0
 22 28  1  0  0  0  0
 24 26  1  0  0  0  0
 24 28  1  0  0  0  0
 26 28  1  0  0  0  0
 37 39  4  0  0  0  0
 48 50  4  0  0  0  0
 59 61  4  0  0  0  0
 70 72  4  0  0  0  0
 81 83  4  0  0  0  0
 92 94  4  0  0  0  0
M  END
$$$$
MELYAD

From CSD data. Using bond type 'Any'. No disordered atoms. Largest molecule.
 82107  0  0  0  0  0  0  0  0999 V2000
    5.0879    5.2655    9.9528 Pt  0  0  0  0  0  0  0  0  0  0  0  0
    4.4828    7.5821    8.4770 Re  0  3  0  0  0  0  0  0  0  0  0  0
    6.0468    3.4954   10.9615 P   0  0  0  0  0  0  0  0  0  0  0  0
    3.1682    4.4740   10.8635 P   0  0  0  0  0  0  0  0  0  0  0  0
    6.0147    8.6323    7.0310 C   0  0  0  0  0  0  0  0  0  0  0  0
    5.3980    8.9704    6.1847 H   0  0  0  0  0  0  0  0  0  0  0  0
    5.9937    9.3593    8.5556 C   0  0  0  0  0  0  0  0  0  0  0  0
    5.3433   10.2213    8.7652 H   0  0  0  0  0  0  0  0  0  0  0  0
    6.2659    8.2831    9.8170 B   0  0  0  0  0  0  0  0  0  0  0  0
    5.8964    8.3738   10.8487 H   0  0  0  0  0  0  0  0  0  0  0  0
    6.5705    6.7179    8.8686 B   0  0  0  0  0  0  0  0  0  0  0  0
    6.8537    5.5341    9.6289 H   0  0  0  0  0  0  0  0  0  0  0  0
    6.3166    7.0491    7.1438 B   0  0  0  0  0  0  0  0  0  0  0  0
    5.9604    6.3020    6.4197 H   0  0  0  0  0  0  0  0  0  0  0  0
    7.9273    6.9467    7.8356 B   0  0  0  0  0  0  0  0  0  0  0  0
    8.5910    6.1023    7.5992 H   0  0  0  0  0  0  0  0  0  0  0  0
    7.5181    8.2036    6.6280 B   0  0  0  0  0  0  0  0  0  0  0  0
    7.8985    8.2214    5.5963 H   0  0  0  0  0  0  0  0  0  0  0  0
    7.3009    9.6862    7.5481 B   0  0  0  0  0  0  0  0  0  0  0  0
    7.5176   10.6783    7.1290 H   0  0  0  0  0  0  0  0  0  0  0  0
    7.5245    9.3897    9.1977 B   0  0  0  0  0  0  0  0  0  0  0  0
    7.9115   10.1825    9.8546 H   0  0  0  0  0  0  0  0  0  0  0  0
    7.9691    7.6745    9.4033 B   0  0  0  0  0  0  0  0  0  0  0  0
    8.6510    7.3180   10.1891 H   0  0  0  0  0  0  0  0  0  0  0  0
    8.5698    8.5876    8.0358 B   0  0  0  0  0  0  0  0  0  0  0  0
    9.6390    8.8229    7.9270 H   0  0  0  0  0  0  0  0  0  0  0  0
    3.6817    6.1354    7.4957 C   0  0  0  0  0  0  0  0  0  0  0  0
    3.2057    5.2467    6.9168 O   0  0  0  0  0  0  0  0  0  0  0  0
    3.6299    7.7759    9.7660 C   0  0  0  0  0  0  0  0  0  0  0  0
    2.9155    8.0216   10.9588 O   0  0  0  0  0  0  0  0  0  0  0  0
    2.9973    8.6039    7.6986 C   0  0  0  0  0  0  0  0  0  0  0  0
    2.1869    9.1611    7.1828 O   0  0  0  0  0  0  0  0  0  0  0  0
    4.7711    2.4644   11.7796 C   0  0  0  0  0  0  0  0  0  0  0  0
    5.0226    1.5283   11.7353 H   0  0  0  0  0  0  0  0  0  0  0  0
    4.6922    2.7154   12.7132 H   0  0  0  0  0  0  0  0  0  0  0  0
    3.4597    2.6783   11.0770 C   0  0  0  0  0  0  0  0  0  0  0  0
    2.7401    2.2896   11.5996 H   0  0  0  0  0  0  0  0  0  0  0  0
    3.4752    2.2430   10.2106 H   0  0  0  0  0  0  0  0  0  0  0  0
    7.3105    3.8907   12.1531 C   0  0  0  0  0  0  0  0  0  0  0  0
    7.9400    5.0682   12.2686 C   0  0  0  0  0  0  0  0  0  0  0  0
    7.7529    5.7620   11.6775 H   0  0  0  0  0  0  0  0  0  0  0  0
    8.9235    5.2514   13.3298 C   0  0  0  0  0  0  0  0  0  0  0  0
    9.3398    6.0810   13.3849 H   0  0  0  0  0  0  0  0  0  0  0  0
    9.2487    4.4121   14.1519 C   0  0  0  0  0  0  0  0  0  0  0  0
    9.8893    4.5761   14.8061 H   0  0  0  0  0  0  0  0  0  0  0  0
    8.6786    3.3535   14.0525 C   0  0  0  0  0  0  0  0  0  0  0  0
    8.8999    2.6709   14.6449 H   0  0  0  0  0  0  0  0  0  0  0  0
    7.6285    3.0912   13.0155 C   0  0  0  0  0  0  0  0  0  0  0  0
    7.1952    2.2695   13.0302 H   0  0  0  0  0  0  0  0  0  0  0  0
    6.9094    2.4333    9.7834 C   0  0  0  0  0  0  0  0  0  0  0  0
    8.2136    2.6423    9.4704 C   0  0  0  0  0  0  0  0  0  0  0  0
    8.6668    3.3502    9.8681 H   0  0  0  0  0  0  0  0  0  0  0  0
    8.8726    1.8431    8.5892 C   0  0  0  0  0  0  0  0  0  0  0  0
    9.7610    2.0189    8.3797 H   0  0  0  0  0  0  0  0  0  0  0  0
    8.2577    0.8167    8.0304 C   0  0  0  0  0  0  0  0  0  0  0  0
    8.6993    0.2457    7.4447 H   0  0  0  0  0  0  0  0  0  0  0  0
    7.0182    0.6403    8.3340 C   0  0  0  0  0  0  0  0  0  0  0  0
    6.5796   -0.0906    7.9605 H   0  0  0  0  0  0  0  0  0  0  0  0
    6.3135    1.4422    9.1574 C   0  0  0  0  0  0  0  0  0  0  0  0
    5.4045    1.2944    9.2824 H   0  0  0  0  0  0  0  0  0  0  0  0
    2.9455    5.0719   12.5440 C   0  0  0  0  0  0  0  0  0  0  0  0
    3.9002    5.8309   13.1686 C   0  0  0  0  0  0  0  0  0  0  0  0
    4.6546    6.0884   12.6890 H   0  0  0  0  0  0  0  0  0  0  0  0
    3.7774    6.2318   14.4998 C   0  0  0  0  0  0  0  0  0  0  0  0
    4.4296    6.7526   14.9109 H   0  0  0  0  0  0  0  0  0  0  0  0
    2.6389    5.8205   15.1863 C   0  0  0  0  0  0  0  0  0  0  0  0
    2.5381    6.0593   16.0796 H   0  0  0  0  0  0  0  0  0  0  0  0
    1.6431    5.0601   14.5683 C   0  0  0  0  0  0  0  0  0  0  0  0
    0.8766    4.8209   15.0385 H   0  0  0  0  0  0  0  0  0  0  0  0
    1.7993    4.6757   13.2895 C   0  0  0  0  0  0  0  0  0  0  0  0
    1.1508    4.1451   12.8865 H   0  0  0  0  0  0  0  0  0  0  0  0
    1.5688    4.6482   10.0024 C   0  0  0  0  0  0  0  0  0  0  0  0
    0.6596    5.6584   10.3033 C   0  0  0  0  0  0  0  0  0  0  0  0
    0.8369    6.2662   10.9844 H   0  0  0  0  0  0  0  0  0  0  0  0
   -0.5064    5.7414    9.5725 C   0  0  0  0  0  0  0  0  0  0  0  0
   -1.1243    6.4087    9.7660 H   0  0  0  0  0  0  0  0  0  0  0  0
   -0.7632    4.8519    8.5637 C   0  0  0  0  0  0  0  0  0  0  0  0
   -1.5364    4.9291    8.0519 H   0  0  0  0  0  0  0  0  0  0  0  0
    0.1376    3.8425    8.3152 C   0  0  0  0  0  0  0  0  0  0  0  0
   -0.0723    3.1958    7.6811 H   0  0  0  0  0  0  0  0  0  0  0  0
    1.2726    3.7683    8.9412 C   0  0  0  0  0  0  0  0  0  0  0  0
    1.8972    3.1276    8.6859 H   0  0  0  0  0  0  0  0  0  0  0  0
  1  2  1  0  0  0  0
  2  5  1  0  0  0  0
  3  1  1  0  0  0  0
  4  1  1  0  0  0  0
  5  6  1  0  0  0  0
  7  2  1  0  0  0  0
  8  7  1  0  0  0  0
  9  2  1  0  0  0  0
 10  9  1  0  0  0  0
 11  1  1  0  0  0  0
 12  1  1  0  0  0  0
 13  2  1  0  0  0  0
 14 13  1  0  0  0  0
 15 11  1  0  0  0  0
 16 15  1  0  0  0  0
 17  5  1  0  0  0  0
 18 17  1  0  0  0  0
 19  5  1  0  0  0  0
 20 19  1  0  0  0  0
 21  7  1  0  0  0  0
 22 21  1  0  0  0  0
 23  9  1  0  0  0  0
 24 23  1  0  0  0  0
 25 15  1  0  0  0  0
 26 25  1  0  0  0  0
 27  2  1  0  0  0  0
 28 27  3  0  0  0  0
 29  2  1  0  0  0  0
 30 29  3  0  0  0  0
 31  2  1  0  0  0  0
 32 31  3  0  0  0  0
 33  3  1  0  0  0  0
 34 33  1  0  0  0  0
 35 33  1  0  0  0  0
 36  4  1  0  0  0  0
 37 36  1  0  0  0  0
 38 36  1  0  0  0  0
 39  3  1  0  0  0  0
 40 39  4  0  0  0  0
 41 40  1  0  0  0  0
 42 40  4  0  0  0  0
 43 42  1  0  0  0  0
 44 42  4  0  0  0  0
 45 44  1  0  0  0  0
 46 44  4  0  0  0  0
 47 46  1  0  0  0  0
 48 39  4  0  0  0  0
 49 48  1  0  0  0  0
 50  3  1  0  0  0  0
 51 50  4  0  0  0  0
 52 51  1  0  0  0  0
 53 51  4  0  0  0  0
 54 53  1  0  0  0  0
 55 53  4  0  0  0  0
 56 55  1  0  0  0  0
 57 55  4  0  0  0  0
 58 57  1  0  0  0  0
 59 50  4  0  0  0  0
 60 59  1  0  0  0  0
 61  4  1  0  0  0  0
 62 61  4  0  0  0  0
 63 62  1  0  0  0  0
 64 62  4  0  0  0  0
 65 64  1  0  0  0  0
 66 64  4  0  0  0  0
 67 66  1  0  0  0  0
 68 66  4  0  0  0  0
 69 68  1  0  0  0  0
 70 61  4  0  0  0  0
 71 70  1  0  0  0  0
 72  4  1  0  0  0  0
 73 72  4  0  0  0  0
 74 73  1  0  0  0  0
 75 73  4  0  0  0  0
 76 75  1  0  0  0  0
 77 75  4  0  0  0  0
 78 77  1  0  0  0  0
 79 77  4  0  0  0  0
 80 79  1  0  0  0  0
 81 72  4  0  0  0  0
 82 81  1  0  0  0  0
  2 11  1  0  0  0  0
  5  7  1  0  0  0  0
  5 13  1  0  0  0  0
  7  9  1  0  0  0  0
  7 19  1  0  0  0  0
  9 11  1  0  0  0  0
  9 21  1  0  0  0  0
 11 12  1  0  0  0  0
 11 13  1  0  0  0  0
 11 23  1  0  0  0  0
 13 15  1  0  0  0  0
 13 17  1  0  0  0  0
 15 17  1  0  0  0  0
 15 23  1  0  0  0  0
 17 19  1  0  0  0  0
 17 25  1  0  0  0  0
 19 21  1  0  0  0  0
 19 25  1  0  0  0  0
 21 23  1  0  0  0  0
 21 25  1  0  0  0  0
 23 25  1  0  0  0  0
 33 36  1  0  0  0  0
 46 48  4  0  0  0  0
 57 59  4  0  0  0  0
 68 70  4  0  0  0  0
 79 81  4  0  0  0  0
M  CHG  1   2   1
M  END
$$$$
MELYEH

From CSD data. Using bond type 'Any'. No disordered atoms. Largest molecule.
 81106  0  0  0  0  0  0  0  0999 V2000
   -1.4094    1.2615    3.8529 Pt  0  0  0  0  0  0  0  0  0  0  0  0
    0.9392    1.4569    2.4198 Re  0  0  0  0  0  0  0  0  0  0  0  0
   -2.6419    0.2923    5.4000 P   0  0  0  0  0  0  0  0  0  0  0  0
   -3.2461    2.5963    3.4051 P   0  0  0  0  0  0  0  0  0  0  0  0
   -0.6151    1.1465    1.2869 C   0  0  0  0  0  0  0  0  0  0  0  0
   -1.4630    0.9245    0.5448 O   0  0  0  0  0  0  0  0  0  0  0  0
    0.5759    3.2986    2.6092 C   0  0  0  0  0  0  0  0  0  0  0  0
    0.4131    4.4530    2.7823 O   0  0  0  0  0  0  0  0  0  0  0  0
    1.8108    1.9452    0.7733 C   0  0  0  0  0  0  0  0  0  0  0  0
    2.3379    2.1826   -0.2582 O   0  0  0  0  0  0  0  0  0  0  0  0
   -4.0509    1.3477    5.6582 C   0  0  0  0  0  0  0  0  0  0  0  0
   -4.7364    0.8496    6.1293 H   0  0  0  0  0  0  0  0  0  0  0  0
   -3.7873    2.0951    6.2187 H   0  0  0  0  0  0  0  0  0  0  0  0
   -4.6159    1.8695    4.3912 C   0  0  0  0  0  0  0  0  0  0  0  0
   -5.2859    2.5458    4.5799 H   0  0  0  0  0  0  0  0  0  0  0  0
   -5.0386    1.1502    3.8946 H   0  0  0  0  0  0  0  0  0  0  0  0
    2.4606   -0.2513    2.6177 C   0  0  0  0  0  0  0  0  0  0  0  0
    2.7905   -0.3696    1.5749 H   0  0  0  0  0  0  0  0  0  0  0  0
    1.0249   -0.7538    3.0746 C   0  0  0  0  0  0  0  0  0  0  0  0
    0.3685   -1.2695    2.3595 H   0  0  0  0  0  0  0  0  0  0  0  0
    0.3490    0.2745    4.2791 B   0  0  0  0  0  0  0  0  0  0  0  0
    1.7359    1.5020    4.6736 B   0  0  0  0  0  0  0  0  0  0  0  0
    1.5934    2.4989    5.1148 H   0  0  0  0  0  0  0  0  0  0  0  0
    3.0077    1.0958    3.5257 B   0  0  0  0  0  0  0  0  0  0  0  0
    3.7014    1.8702    3.1668 H   0  0  0  0  0  0  0  0  0  0  0  0
    3.6055   -0.5112    3.8322 B   0  0  0  0  0  0  0  0  0  0  0  0
    4.6558   -0.7732    3.6364 H   0  0  0  0  0  0  0  0  0  0  0  0
    2.3535   -1.7019    3.5626 B   0  0  0  0  0  0  0  0  0  0  0  0
    2.5815   -2.7205    3.2136 H   0  0  0  0  0  0  0  0  0  0  0  0
    1.0093   -1.3179    4.6608 B   0  0  0  0  0  0  0  0  0  0  0  0
    0.3333   -2.1017    5.0354 H   0  0  0  0  0  0  0  0  0  0  0  0
    1.5131    0.0685    5.6313 B   0  0  0  0  0  0  0  0  0  0  0  0
    1.1740    0.2026    6.6684 H   0  0  0  0  0  0  0  0  0  0  0  0
    3.1441    0.5253    5.1049 B   0  0  0  0  0  0  0  0  0  0  0  0
    3.9169    0.9292    5.7746 H   0  0  0  0  0  0  0  0  0  0  0  0
    2.6778   -1.1914    5.2425 B   0  0  0  0  0  0  0  0  0  0  0  0
    3.0846   -1.8726    6.0044 H   0  0  0  0  0  0  0  0  0  0  0  0
   -1.9240    0.0051    7.0430 C   0  0  0  0  0  0  0  0  0  0  0  0
   -1.6297   -1.2720    7.5325 C   0  0  0  0  0  0  0  0  0  0  0  0
   -1.8439   -2.0186    7.0217 H   0  0  0  0  0  0  0  0  0  0  0  0
   -1.0427   -1.4358    8.7328 C   0  0  0  0  0  0  0  0  0  0  0  0
   -0.8336   -2.2882    9.0407 H   0  0  0  0  0  0  0  0  0  0  0  0
   -0.7472   -0.3025    9.5202 C   0  0  0  0  0  0  0  0  0  0  0  0
   -0.3741   -0.4124   10.3644 H   0  0  0  0  0  0  0  0  0  0  0  0
   -1.0039    0.9508    9.0520 C   0  0  0  0  0  0  0  0  0  0  0  0
   -0.7783    1.6982    9.5557 H   0  0  0  0  0  0  0  0  0  0  0  0
   -1.6029    1.0930    7.8219 C   0  0  0  0  0  0  0  0  0  0  0  0
   -1.7968    1.9468    7.5084 H   0  0  0  0  0  0  0  0  0  0  0  0
   -3.3679   -1.2472    4.8552 C   0  0  0  0  0  0  0  0  0  0  0  0
   -4.2619   -1.9635    5.6611 C   0  0  0  0  0  0  0  0  0  0  0  0
   -4.4655   -1.6353    6.5067 H   0  0  0  0  0  0  0  0  0  0  0  0
   -4.8455   -3.1306    5.2439 C   0  0  0  0  0  0  0  0  0  0  0  0
   -5.4318   -3.5821    5.8072 H   0  0  0  0  0  0  0  0  0  0  0  0
   -4.5669   -3.6336    4.0010 C   0  0  0  0  0  0  0  0  0  0  0  0
   -4.9708   -4.4205    3.7159 H   0  0  0  0  0  0  0  0  0  0  0  0
   -3.6637   -2.9524    3.1554 C   0  0  0  0  0  0  0  0  0  0  0  0
   -3.4461   -3.2849    2.3141 H   0  0  0  0  0  0  0  0  0  0  0  0
   -3.1110   -1.7668    3.6279 C   0  0  0  0  0  0  0  0  0  0  0  0
   -2.5298   -1.3010    3.0703 H   0  0  0  0  0  0  0  0  0  0  0  0
   -3.1252    4.2489    4.1004 C   0  0  0  0  0  0  0  0  0  0  0  0
   -2.0359    4.6175    4.9091 C   0  0  0  0  0  0  0  0  0  0  0  0
   -1.3652    3.9914    5.0609 H   0  0  0  0  0  0  0  0  0  0  0  0
   -1.9166    5.8412    5.4766 C   0  0  0  0  0  0  0  0  0  0  0  0
   -1.1906    6.0398    6.0229 H   0  0  0  0  0  0  0  0  0  0  0  0
   -2.8698    6.7694    5.2383 C   0  0  0  0  0  0  0  0  0  0  0  0
   -2.7776    7.6288    5.5816 H   0  0  0  0  0  0  0  0  0  0  0  0
   -3.9651    6.4457    4.4934 C   0  0  0  0  0  0  0  0  0  0  0  0
   -4.6450    7.0725    4.3884 H   0  0  0  0  0  0  0  0  0  0  0  0
   -4.0901    5.2225    3.8975 C   0  0  0  0  0  0  0  0  0  0  0  0
   -4.8228    5.0448    3.3555 H   0  0  0  0  0  0  0  0  0  0  0  0
   -3.8362    2.8644    1.7054 C   0  0  0  0  0  0  0  0  0  0  0  0
   -4.8168    2.0512    1.1095 C   0  0  0  0  0  0  0  0  0  0  0  0
   -5.2613    1.4284    1.6373 H   0  0  0  0  0  0  0  0  0  0  0  0
   -5.1323    2.1419   -0.1774 C   0  0  0  0  0  0  0  0  0  0  0  0
   -5.7468    1.5456   -0.5406 H   0  0  0  0  0  0  0  0  0  0  0  0
   -4.5875    3.0626   -0.9520 C   0  0  0  0  0  0  0  0  0  0  0  0
   -4.8340    3.1346   -1.8459 H   0  0  0  0  0  0  0  0  0  0  0  0
   -3.6648    3.9006   -0.4285 C   0  0  0  0  0  0  0  0  0  0  0  0
   -3.2835    4.5531   -0.9719 H   0  0  0  0  0  0  0  0  0  0  0  0
   -3.2542    3.8078    0.9577 C   0  0  0  0  0  0  0  0  0  0  0  0
   -2.6124    4.3809    1.3138 H   0  0  0  0  0  0  0  0  0  0  0  0
  1  2  1  0  0  0  0
  2  5  1  0  0  0  0
  3  1  1  0  0  0  0
  4  1  1  0  0  0  0
  5  6  3  0  0  0  0
  7  2  1  0  0  0  0
  8  7  3  0  0  0  0
  9  2  1  0  0  0  0
 10  9  3  0  0  0  0
 11  3  1  0  0  0  0
 12 11  1  0  0  0  0
 13 11  1  0  0  0  0
 14  4  1  0  0  0  0
 15 14  1  0  0  0  0
 16 14  1  0  0  0  0
 17  2  1  0  0  0  0
 18 17  1  0  0  0  0
 19  2  1  0  0  0  0
 20 19  1  0  0  0  0
 21  1  1  0  0  0  0
 22  2  1  0  0  0  0
 23 22  1  0  0  0  0
 24  2  1  0  0  0  0
 25 24  1  0  0  0  0
 26 17  1  0  0  0  0
 27 26  1  0  0  0  0
 28 17  1  0  0  0  0
 29 28  1  0  0  0  0
 30 19  1  0  0  0  0
 31 30  1  0  0  0  0
 32 21  1  0  0  0  0
 33  1  1  0  0  0  0
 34 22  1  0  0  0  0
 35 34  1  0  0  0  0
 36 26  1  0  0  0  0
 37 36  1  0  0  0  0
 38  3  1  0  0  0  0
 39 38  4  0  0  0  0
 40 39  1  0  0  0  0
 41 39  4  0  0  0  0
 42 41  1  0  0  0  0
 43 41  4  0  0  0  0
 44 43  1  0  0  0  0
 45 43  4  0  0  0  0
 46 45  1  0  0  0  0
 47 38  4  0  0  0  0
 48 47  1  0  0  0  0
 49  3  1  0  0  0  0
 50 49  4  0  0  0  0
 51 50  1  0  0  0  0
 52 50  4  0  0  0  0
 53 52  1  0  0  0  0
 54 52  4  0  0  0  0
 55 54  1  0  0  0  0
 56 54  4  0  0  0  0
 57 56  1  0  0  0  0
 58 49  4  0  0  0  0
 59 58  1  0  0  0  0
 60  4  1  0  0  0  0
 61 60  4  0  0  0  0
 62 61  1  0  0  0  0
 63 61  4  0  0  0  0
 64 63  1  0  0  0  0
 65 63  4  0  0  0  0
 66 65  1  0  0  0  0
 67 65  4  0  0  0  0
 68 67  1  0  0  0  0
 69 60  4  0  0  0  0
 70 69  1  0  0  0  0
 71  4  1  0  0  0  0
 72 71  4  0  0  0  0
 73 72  1  0  0  0  0
 74 72  4  0  0  0  0
 75 74  1  0  0  0  0
 76 74  4  0  0  0  0
 77 76  1  0  0  0  0
 78 76  4  0  0  0  0
 79 78  1  0  0  0  0
 80 71  4  0  0  0  0
 81 80  1  0  0  0  0
  2 21  1  0  0  0  0
 11 14  1  0  0  0  0
 17 19  1  0  0  0  0
 17 24  1  0  0  0  0
 19 21  1  0  0  0  0
 19 28  1  0  0  0  0
 21 22  1  0  0  0  0
 21 30  1  0  0  0  0
 22 24  1  0  0  0  0
 22 32  1  0  0  0  0
 24 26  1  0  0  0  0
 24 34  1  0  0  0  0
 26 28  1  0  0  0  0
 26 34  1  0  0  0  0
 28 30  1  0  0  0  0
 28 36  1  0  0  0  0
 30 32  1  0  0  0  0
 30 36  1  0  0  0  0
 32 33  1  0  0  0  0
 32 34  1  0  0  0  0
 32 36  1  0  0  0  0
 34 36  1  0  0  0  0
 45 47  4  0  0  0  0
 56 58  4  0  0  0  0
 67 69  4  0  0  0  0
 78 80  4  0  0  0  0
M  END
$$$$
MENRAB

From CSD data. Using bond type 'Any'. No disordered atoms. Largest molecule.
220236  0  0  0  0  0  0  0  0999 V2000
    6.2995    7.6872    6.9263 P   0  0  0  0  0  0  0  0  0  0  0  0
    6.5320   15.3353    6.6643 P   0  0  0  0  0  0  0  0  0  0  0  0
    8.3257    7.9359    6.7354 B   0  0  0  0  0  0  0  0  0  0  0  0
    4.5736   11.1449    8.8714 B   0  0  0  0  0  0  0  0  0  0  0  0
    5.5087   15.1377    8.4303 B   0  0  0  0  0  0  0  0  0  0  0  0
    9.0752   11.9193    6.0085 B   0  0  0  0  0  0  0  0  0  0  0  0
    8.8919   10.3613    6.4452 O   0  0  0  0  0  0  0  0  0  0  0  0
    5.0284   12.7061    8.8833 O   0  0  0  0  0  0  0  0  0  0  0  0
    6.0447    8.3850    5.2802 C   0  0  0  0  0  0  0  0  0  0  0  0
    6.2095    7.7005    4.5860 H   0  0  0  0  0  0  0  0  0  0  0  0
    5.1142    8.7103    5.1855 H   0  0  0  0  0  0  0  0  0  0  0  0
    7.0402    9.5559    5.1278 C   0  0  0  0  0  0  0  0  0  0  0  0
    7.3999    9.5714    4.2055 H   0  0  0  0  0  0  0  0  0  0  0  0
    6.5738   10.4139    5.2891 H   0  0  0  0  0  0  0  0  0  0  0  0
    8.1470    9.4041    6.0914 C   0  0  0  0  0  0  0  0  0  0  0  0
    5.3370    8.8094    8.0129 C   0  0  0  0  0  0  0  0  0  0  0  0
    4.3763    8.6452    7.8411 H   0  0  0  0  0  0  0  0  0  0  0  0
    5.5133    8.5461    8.9514 H   0  0  0  0  0  0  0  0  0  0  0  0
    5.5783   10.3210    7.8974 C   0  0  0  0  0  0  0  0  0  0  0  0
    5.4368   10.6060    6.9604 H   0  0  0  0  0  0  0  0  0  0  0  0
    6.5158   10.5223    8.1417 H   0  0  0  0  0  0  0  0  0  0  0  0
    5.6270    5.9875    7.1099 C   0  0  0  0  0  0  0  0  0  0  0  0
    5.8800    5.3061    8.3445 C   0  0  0  0  0  0  0  0  0  0  0  0
    5.5969    3.9184    8.3963 C   0  0  0  0  0  0  0  0  0  0  0  0
    5.8173    3.4321    9.1823 H   0  0  0  0  0  0  0  0  0  0  0  0
    5.0168    3.2617    7.3497 C   0  0  0  0  0  0  0  0  0  0  0  0
    4.8659    2.3263    7.4000 H   0  0  0  0  0  0  0  0  0  0  0  0
    4.6594    3.9494    6.2395 C   0  0  0  0  0  0  0  0  0  0  0  0
    4.1953    3.4909    5.5511 H   0  0  0  0  0  0  0  0  0  0  0  0
    4.9402    5.3123    6.0618 C   0  0  0  0  0  0  0  0  0  0  0  0
    6.3232    5.9163    9.6294 C   0  0  0  0  0  0  0  0  0  0  0  0
    7.6273    5.6964   10.1652 C   0  0  0  0  0  0  0  0  0  0  0  0
    7.8686    6.2230   11.4560 C   0  0  0  0  0  0  0  0  0  0  0  0
    8.7318    6.0960   11.8335 H   0  0  0  0  0  0  0  0  0  0  0  0
    6.9799    6.8796   12.1666 C   0  0  0  0  0  0  0  0  0  0  0  0
    5.6874    7.0252   11.6648 C   0  0  0  0  0  0  0  0  0  0  0  0
    5.0353    7.4929   12.1740 H   0  0  0  0  0  0  0  0  0  0  0  0
    5.3463    6.4924   10.4184 C   0  0  0  0  0  0  0  0  0  0  0  0
    8.6784    4.9034    9.4946 C   0  0  0  0  0  0  0  0  0  0  0  0
    9.3606    4.6463   10.1489 H   0  0  0  0  0  0  0  0  0  0  0  0
    9.0891    5.4424    8.7871 H   0  0  0  0  0  0  0  0  0  0  0  0
    8.2793    4.0980    9.1038 H   0  0  0  0  0  0  0  0  0  0  0  0
    7.3442    7.4186   13.5166 C   0  0  0  0  0  0  0  0  0  0  0  0
    7.9034    6.7650   13.9874 H   0  0  0  0  0  0  0  0  0  0  0  0
    6.5297    7.5828   14.0347 H   0  0  0  0  0  0  0  0  0  0  0  0
    7.8407    8.2549   13.4115 H   0  0  0  0  0  0  0  0  0  0  0  0
    3.8751    6.4893   10.0572 C   0  0  0  0  0  0  0  0  0  0  0  0
    3.7568    6.8580    9.1571 H   0  0  0  0  0  0  0  0  0  0  0  0
    3.3785    7.0345   10.7011 H   0  0  0  0  0  0  0  0  0  0  0  0
    3.5340    5.5694   10.0779 H   0  0  0  0  0  0  0  0  0  0  0  0
    4.3694    5.9597    4.8435 C   0  0  0  0  0  0  0  0  0  0  0  0
    3.1535    6.6071    4.9442 C   0  0  0  0  0  0  0  0  0  0  0  0
    2.6012    7.1646    3.7777 C   0  0  0  0  0  0  0  0  0  0  0  0
    1.7914    7.6540    3.8443 H   0  0  0  0  0  0  0  0  0  0  0  0
    3.1929    7.0252    2.5402 C   0  0  0  0  0  0  0  0  0  0  0  0
    4.3624    6.3314    2.4588 C   0  0  0  0  0  0  0  0  0  0  0  0
    4.7894    6.2230    1.6165 H   0  0  0  0  0  0  0  0  0  0  0  0
    4.9356    5.7800    3.5868 C   0  0  0  0  0  0  0  0  0  0  0  0
    2.3947    6.7155    6.2409 C   0  0  0  0  0  0  0  0  0  0  0  0
    2.3552    5.8389    6.6717 H   0  0  0  0  0  0  0  0  0  0  0  0
    1.4851    7.0345    6.0618 H   0  0  0  0  0  0  0  0  0  0  0  0
    2.8495    7.3505    6.8331 H   0  0  0  0  0  0  0  0  0  0  0  0
    2.4945    7.6261    1.3101 C   0  0  0  0  0  0  0  0  0  0  0  0
    2.8170    8.5399    1.1665 H   0  0  0  0  0  0  0  0  0  0  0  0
    1.5245    7.6416    1.4611 H   0  0  0  0  0  0  0  0  0  0  0  0
    2.6940    7.0810    0.5211 H   0  0  0  0  0  0  0  0  0  0  0  0
    6.2234    5.0304    3.3795 C   0  0  0  0  0  0  0  0  0  0  0  0
    6.4462    4.5317    4.1937 H   0  0  0  0  0  0  0  0  0  0  0  0
    6.9404    5.6654    3.1767 H   0  0  0  0  0  0  0  0  0  0  0  0
    6.1190    4.4047    2.6335 H   0  0  0  0  0  0  0  0  0  0  0  0
    8.8130    6.9354    5.5260 C   0  0  0  0  0  0  0  0  0  0  0  0
    8.7619    5.5167    5.5970 C   0  0  0  0  0  0  0  0  0  0  0  0
    9.3513    4.6680    4.6851 C   0  0  0  0  0  0  0  0  0  0  0  0
   10.0544    5.1946    3.6815 C   0  0  0  0  0  0  0  0  0  0  0  0
   10.1148    6.5761    3.5113 C   0  0  0  0  0  0  0  0  0  0  0  0
    9.5207    7.3814    4.4616 C   0  0  0  0  0  0  0  0  0  0  0  0
    9.3328    7.9917    8.0410 C   0  0  0  0  0  0  0  0  0  0  0  0
   10.6809    7.5797    7.9522 C   0  0  0  0  0  0  0  0  0  0  0  0
   11.5325    7.6819    8.9973 C   0  0  0  0  0  0  0  0  0  0  0  0
   11.1195    8.2116   10.2022 C   0  0  0  0  0  0  0  0  0  0  0  0
    9.8293    8.6081   10.3310 C   0  0  0  0  0  0  0  0  0  0  0  0
    8.9731    8.5027    9.2312 C   0  0  0  0  0  0  0  0  0  0  0  0
    3.0119   11.2255    8.4007 C   0  0  0  0  0  0  0  0  0  0  0  0
    2.4991   10.8104    7.2046 C   0  0  0  0  0  0  0  0  0  0  0  0
    1.1811   11.0272    6.7916 C   0  0  0  0  0  0  0  0  0  0  0  0
    0.3202   11.6684    7.6916 C   0  0  0  0  0  0  0  0  0  0  0  0
    0.7704   12.0587    8.9040 C   0  0  0  0  0  0  0  0  0  0  0  0
    2.0675   11.8388    9.2489 C   0  0  0  0  0  0  0  0  0  0  0  0
    4.8474   10.7794   10.4509 C   0  0  0  0  0  0  0  0  0  0  0  0
    3.9447   10.1321   11.3021 C   0  0  0  0  0  0  0  0  0  0  0  0
    4.2162    9.9772   12.6477 C   0  0  0  0  0  0  0  0  0  0  0  0
    5.3277   10.4232   13.2072 C   0  0  0  0  0  0  0  0  0  0  0  0
    6.3209   11.0118   12.3931 C   0  0  0  0  0  0  0  0  0  0  0  0
    6.0354   11.1666   11.0593 C   0  0  0  0  0  0  0  0  0  0  0  0
    8.1122    4.9251    6.6081 F   0  0  0  0  0  0  0  0  0  0  0  0
    9.2214    3.3515    4.7977 F   0  0  0  0  0  0  0  0  0  0  0  0
   10.6670    4.3830    2.7726 F   0  0  0  0  0  0  0  0  0  0  0  0
   10.8341    7.0965    2.4987 F   0  0  0  0  0  0  0  0  0  0  0  0
    9.7388    8.7134    4.2662 F   0  0  0  0  0  0  0  0  0  0  0  0
   11.1775    7.0283    6.8301 F   0  0  0  0  0  0  0  0  0  0  0  0
   12.8204    7.2328    8.8507 F   0  0  0  0  0  0  0  0  0  0  0  0
   11.9989    8.3076   11.2532 F   0  0  0  0  0  0  0  0  0  0  0  0
    9.4163    9.1532   11.4782 F   0  0  0  0  0  0  0  0  0  0  0  0
    7.7317    8.9240    9.4680 F   0  0  0  0  0  0  0  0  0  0  0  0
    3.2718   10.2343    6.2661 F   0  0  0  0  0  0  0  0  0  0  0  0
    0.7797   10.6648    5.5763 F   0  0  0  0  0  0  0  0  0  0  0  0
   -0.9630   11.8574    7.2875 F   0  0  0  0  0  0  0  0  0  0  0  0
   -0.1067   12.6535    9.7211 F   0  0  0  0  0  0  0  0  0  0  0  0
    2.4457   12.3344   10.4346 F   0  0  0  0  0  0  0  0  0  0  0  0
    2.8124    9.6303   10.8314 F   0  0  0  0  0  0  0  0  0  0  0  0
    3.2857    9.3422   13.4189 F   0  0  0  0  0  0  0  0  0  0  0  0
    5.5922   10.2869   14.5291 F   0  0  0  0  0  0  0  0  0  0  0  0
    7.4555   11.4609   12.9349 F   0  0  0  0  0  0  0  0  0  0  0  0
    7.0054   11.7459   10.3281 F   0  0  0  0  0  0  0  0  0  0  0  0
    5.1560   14.5677    5.7066 C   0  0  0  0  0  0  0  0  0  0  0  0
    4.4436   15.2337    5.5289 H   0  0  0  0  0  0  0  0  0  0  0  0
    5.4855   14.2177    4.8421 H   0  0  0  0  0  0  0  0  0  0  0  0
    4.6130   13.4062    6.5977 C   0  0  0  0  0  0  0  0  0  0  0  0
    3.6268   13.3628    6.5237 H   0  0  0  0  0  0  0  0  0  0  0  0
    4.9843   12.5419    6.2824 H   0  0  0  0  0  0  0  0  0  0  0  0
    4.9982   13.6261    8.0232 C   0  0  0  0  0  0  0  0  0  0  0  0
    7.9637   14.2456    6.3016 C   0  0  0  0  0  0  0  0  0  0  0  0
    8.2514   14.4252    5.3720 H   0  0  0  0  0  0  0  0  0  0  0  0
    8.7063   14.5182    6.8952 H   0  0  0  0  0  0  0  0  0  0  0  0
    7.7711   12.7495    6.4511 C   0  0  0  0  0  0  0  0  0  0  0  0
    7.0031   12.4645    5.8960 H   0  0  0  0  0  0  0  0  0  0  0  0
    7.5576   12.5388    7.3941 H   0  0  0  0  0  0  0  0  0  0  0  0
    6.9195   17.0365    6.0870 C   0  0  0  0  0  0  0  0  0  0  0  0
    6.1515   17.6962    5.1130 C   0  0  0  0  0  0  0  0  0  0  0  0
    6.3046   19.0685    4.9753 C   0  0  0  0  0  0  0  0  0  0  0  0
    5.7918   19.5207    4.3166 H   0  0  0  0  0  0  0  0  0  0  0  0
    7.1724   19.8026    5.7598 C   0  0  0  0  0  0  0  0  0  0  0  0
    7.2003   20.7473    5.6932 H   0  0  0  0  0  0  0  0  0  0  0  0
    7.9985   19.1366    6.6436 C   0  0  0  0  0  0  0  0  0  0  0  0
    8.6413   19.6291    7.1380 H   0  0  0  0  0  0  0  0  0  0  0  0
    7.9103   17.7706    6.8257 C   0  0  0  0  0  0  0  0  0  0  0  0
    5.3231   17.0674    4.0516 C   0  0  0  0  0  0  0  0  0  0  0  0
    5.9217   16.3240    3.0302 C   0  0  0  0  0  0  0  0  0  0  0  0
    5.1444   15.7665    1.9940 C   0  0  0  0  0  0  0  0  0  0  0  0
    5.5806   15.2709    1.3115 H   0  0  0  0  0  0  0  0  0  0  0  0
    3.7869   15.9059    1.9318 C   0  0  0  0  0  0  0  0  0  0  0  0
    3.1929   16.6926    2.9384 C   0  0  0  0  0  0  0  0  0  0  0  0
    2.2531   16.8320    2.9043 H   0  0  0  0  0  0  0  0  0  0  0  0
    3.9006   17.2657    3.9687 C   0  0  0  0  0  0  0  0  0  0  0  0
    7.4231   16.1320    2.9443 C   0  0  0  0  0  0  0  0  0  0  0  0
    7.8732   16.8723    3.3973 H   0  0  0  0  0  0  0  0  0  0  0  0
    7.6945   16.1072    2.0028 H   0  0  0  0  0  0  0  0  0  0  0  0
    7.6690   15.2864    3.3766 H   0  0  0  0  0  0  0  0  0  0  0  0
    2.9702   15.3390    0.8230 C   0  0  0  0  0  0  0  0  0  0  0  0
    3.0003   15.9461    0.0533 H   0  0  0  0  0  0  0  0  0  0  0  0
    2.0420   15.2368    1.1221 H   0  0  0  0  0  0  0  0  0  0  0  0
    3.3298   14.4655    0.5670 H   0  0  0  0  0  0  0  0  0  0  0  0
    3.1581   18.0308    4.9990 C   0  0  0  0  0  0  0  0  0  0  0  0
    2.3668   18.4428    4.5919 H   0  0  0  0  0  0  0  0  0  0  0  0
    3.7359   18.7277    5.3690 H   0  0  0  0  0  0  0  0  0  0  0  0
    2.8773   17.4237    5.7169 H   0  0  0  0  0  0  0  0  0  0  0  0
    9.0195   17.1697    7.6457 C   0  0  0  0  0  0  0  0  0  0  0  0
   10.1612   16.7267    6.9337 C   0  0  0  0  0  0  0  0  0  0  0  0
   11.2518   16.2900    7.6487 C   0  0  0  0  0  0  0  0  0  0  0  0
   12.0105   15.9771    7.1706 H   0  0  0  0  0  0  0  0  0  0  0  0
   11.2959   16.2869    9.0061 C   0  0  0  0  0  0  0  0  0  0  0  0
   10.2122   16.8165    9.6930 C   0  0  0  0  0  0  0  0  0  0  0  0
   10.2331   16.8413   10.6434 H   0  0  0  0  0  0  0  0  0  0  0  0
    9.0938   17.3214    9.0239 C   0  0  0  0  0  0  0  0  0  0  0  0
   10.2493   16.8320    5.4830 C   0  0  0  0  0  0  0  0  0  0  0  0
   11.1868   16.7608    5.2077 H   0  0  0  0  0  0  0  0  0  0  0  0
    9.8897   17.6962    5.1944 H   0  0  0  0  0  0  0  0  0  0  0  0
    9.7342   16.1072    5.0700 H   0  0  0  0  0  0  0  0  0  0  0  0
   12.4932   15.7820    9.7256 C   0  0  0  0  0  0  0  0  0  0  0  0
   13.2497   15.7324    9.1053 H   0  0  0  0  0  0  0  0  0  0  0  0
   12.3052   14.8899   10.0853 H   0  0  0  0  0  0  0  0  0  0  0  0
   12.7136   16.3891   10.4613 H   0  0  0  0  0  0  0  0  0  0  0  0
    8.0380   18.0370    9.8277 C   0  0  0  0  0  0  0  0  0  0  0  0
    8.1122   19.0034    9.6767 H   0  0  0  0  0  0  0  0  0  0  0  0
    8.1656   17.8418   10.7795 H   0  0  0  0  0  0  0  0  0  0  0  0
    7.1516   17.7303    9.5465 H   0  0  0  0  0  0  0  0  0  0  0  0
    4.1536   16.1320    8.3000 C   0  0  0  0  0  0  0  0  0  0  0  0
    4.2185   17.4980    8.2764 C   0  0  0  0  0  0  0  0  0  0  0  0
    3.1187   18.3622    8.2023 C   0  0  0  0  0  0  0  0  0  0  0  0
    1.8633   17.7923    8.1476 C   0  0  0  0  0  0  0  0  0  0  0  0
    1.7450   16.4665    8.2275 C   0  0  0  0  0  0  0  0  0  0  0  0
    2.8425   15.6581    8.2749 C   0  0  0  0  0  0  0  0  0  0  0  0
    6.1932   15.1501    9.8558 C   0  0  0  0  0  0  0  0  0  0  0  0
    5.5389   15.5558   11.0238 C   0  0  0  0  0  0  0  0  0  0  0  0
    6.0888   15.5063   12.2717 C   0  0  0  0  0  0  0  0  0  0  0  0
    7.3465   14.9859   12.4419 C   0  0  0  0  0  0  0  0  0  0  0  0
    8.0542   14.5646   11.3421 C   0  0  0  0  0  0  0  0  0  0  0  0
    7.4416   14.6545   10.1223 C   0  0  0  0  0  0  0  0  0  0  0  0
   10.3607   12.2879    6.9589 C   0  0  0  0  0  0  0  0  0  0  0  0
   10.4141   11.8636    8.2364 C   0  0  0  0  0  0  0  0  0  0  0  0
   11.5581   11.9596    9.0831 C   0  0  0  0  0  0  0  0  0  0  0  0
   12.6858   12.5419    8.5606 C   0  0  0  0  0  0  0  0  0  0  0  0
   12.6255   13.0778    7.3260 C   0  0  0  0  0  0  0  0  0  0  0  0
   11.5070   12.9601    6.5488 C   0  0  0  0  0  0  0  0  0  0  0  0
    9.4047   11.8512    4.3817 C   0  0  0  0  0  0  0  0  0  0  0  0
    8.5485   12.2663    3.3736 C   0  0  0  0  0  0  0  0  0  0  0  0
    8.8362   12.2074    2.0339 C   0  0  0  0  0  0  0  0  0  0  0  0
   10.0451   11.6746    1.6150 C   0  0  0  0  0  0  0  0  0  0  0  0
   10.9315   11.2317    2.5565 C   0  0  0  0  0  0  0  0  0  0  0  0
   10.5904   11.3029    3.8961 C   0  0  0  0  0  0  0  0  0  0  0  0
    5.4252   18.1268    8.3089 F   0  0  0  0  0  0  0  0  0  0  0  0
    3.2973   19.6818    8.1446 F   0  0  0  0  0  0  0  0  0  0  0  0
    0.8005   18.5883    7.9744 F   0  0  0  0  0  0  0  0  0  0  0  0
    0.5128   15.8904    8.2142 F   0  0  0  0  0  0  0  0  0  0  0  0
    2.6128   14.3447    8.4333 F   0  0  0  0  0  0  0  0  0  0  0  0
    4.2673   16.0484   10.9616 F   0  0  0  0  0  0  0  0  0  0  0  0
    5.3788   15.9028   13.3686 F   0  0  0  0  0  0  0  0  0  0  0  0
    7.8964   14.9116   13.6824 F   0  0  0  0  0  0  0  0  0  0  0  0
    9.2887   14.0907   11.5123 F   0  0  0  0  0  0  0  0  0  0  0  0
    8.2004   14.1836    9.0831 F   0  0  0  0  0  0  0  0  0  0  0  0
    9.3351   11.3029    8.8181 F   0  0  0  0  0  0  0  0  0  0  0  0
   11.5233   11.4423   10.3221 F   0  0  0  0  0  0  0  0  0  0  0  0
   13.7787   12.6008    9.3377 F   0  0  0  0  0  0  0  0  0  0  0  0
   13.7393   13.7221    6.8331 F   0  0  0  0  0  0  0  0  0  0  0  0
   11.5673   13.5517    5.3276 F   0  0  0  0  0  0  0  0  0  0  0  0
    7.3233   12.7681    3.6785 F   0  0  0  0  0  0  0  0  0  0  0  0
    7.9428   12.6596    1.1369 F   0  0  0  0  0  0  0  0  0  0  0  0
   10.3607   11.6158    0.3257 F   0  0  0  0  0  0  0  0  0  0  0  0
   12.1034   10.7082    2.1790 F   0  0  0  0  0  0  0  0  0  0  0  0
   11.4977   10.8197    4.7636 F   0  0  0  0  0  0  0  0  0  0  0  0
  1  3  1  0  0  0  0
  2  5  1  0  0  0  0
  3 15  1  0  0  0  0
  4  8  1  0  0  0  0
  5121  1  0  0  0  0
  6  7  1  0  0  0  0
  7 15  1  0  0  0  0
  8121  1  0  0  0  0
  9  1  1  0  0  0  0
 10  9  1  0  0  0  0
 11  9  1  0  0  0  0
 12  9  1  0  0  0  0
 13 12  1  0  0  0  0
 14 12  1  0  0  0  0
 15 12  1  0  0  0  0
 16  1  1  0  0  0  0
 17 16  1  0  0  0  0
 18 16  1  0  0  0  0
 19  4  1  0  0  0  0
 20 19  1  0  0  0  0
 21 19  1  0  0  0  0
 22  1  1  0  0  0  0
 23 22  4  0  0  0  0
 24 23  4  0  0  0  0
 25 24  1  0  0  0  0
 26 24  4  0  0  0  0
 27 26  1  0  0  0  0
 28 26  4  0  0  0  0
 29 28  1  0  0  0  0
 30 22  4  0  0  0  0
 31 23  1  0  0  0  0
 32 31  4  0  0  0  0
 33 32  4  0  0  0  0
 34 33  1  0  0  0  0
 35 33  4  0  0  0  0
 36 35  4  0  0  0  0
 37 36  1  0  0  0  0
 38 31  4  0  0  0  0
 39 32  1  0  0  0  0
 40 39  1  0  0  0  0
 41 39  1  0  0  0  0
 42 39  1  0  0  0  0
 43 35  1  0  0  0  0
 44 43  1  0  0  0  0
 45 43  1  0  0  0  0
 46 43  1  0  0  0  0
 47 38  1  0  0  0  0
 48 47  1  0  0  0  0
 49 47  1  0  0  0  0
 50 47  1  0  0  0  0
 51 30  1  0  0  0  0
 52 51  4  0  0  0  0
 53 52  4  0  0  0  0
 54 53  1  0  0  0  0
 55 53  4  0  0  0  0
 56 55  4  0  0  0  0
 57 56  1  0  0  0  0
 58 51  4  0  0  0  0
 59 52  1  0  0  0  0
 60 59  1  0  0  0  0
 61 59  1  0  0  0  0
 62 59  1  0  0  0  0
 63 55  1  0  0  0  0
 64 63  1  0  0  0  0
 65 63  1  0  0  0  0
 66 63  1  0  0  0  0
 67 58  1  0  0  0  0
 68 67  1  0  0  0  0
 69 67  1  0  0  0  0
 70 67  1  0  0  0  0
 71  3  1  0  0  0  0
 72 71  4  0  0  0  0
 73 72  4  0  0  0  0
 74 73  4  0  0  0  0
 75 74  4  0  0  0  0
 76 71  4  0  0  0  0
 77  3  1  0  0  0  0
 78 77  4  0  0  0  0
 79 78  4  0  0  0  0
 80 79  4  0  0  0  0
 81 80  4  0  0  0  0
 82 77  4  0  0  0  0
 83  4  1  0  0  0  0
 84 83  4  0  0  0  0
 85 84  4  0  0  0  0
 86 85  4  0  0  0  0
 87 86  4  0  0  0  0
 88 83  4  0  0  0  0
 89  4  1  0  0  0  0
 90 89  4  0  0  0  0
 91 90  4  0  0  0  0
 92 91  4  0  0  0  0
 93 92  4  0  0  0  0
 94 89  4  0  0  0  0
 95 72  1  0  0  0  0
 96 73  1  0  0  0  0
 97 74  1  0  0  0  0
 98 75  1  0  0  0  0
 99 76  1  0  0  0  0
100 78  1  0  0  0  0
101 79  1  0  0  0  0
102 80  1  0  0  0  0
103 81  1  0  0  0  0
104 82  1  0  0  0  0
105 84  1  0  0  0  0
106 85  1  0  0  0  0
107 86  1  0  0  0  0
108 87  1  0  0  0  0
109 88  1  0  0  0  0
110 90  1  0  0  0  0
111 91  1  0  0  0  0
112 92  1  0  0  0  0
113 93  1  0  0  0  0
114 94  1  0  0  0  0
115  2  1  0  0  0  0
116115  1  0  0  0  0
117115  1  0  0  0  0
118115  1  0  0  0  0
119118  1  0  0  0  0
120118  1  0  0  0  0
121118  1  0  0  0  0
122  2  1  0  0  0  0
123122  1  0  0  0  0
124122  1  0  0  0  0
125  6  1  0  0  0  0
126125  1  0  0  0  0
127125  1  0  0  0  0
128  2  1  0  0  0  0
129128  4  0  0  0  0
130129  4  0  0  0  0
131130  1  0  0  0  0
132130  4  0  0  0  0
133132  1  0  0  0  0
134132  4  0  0  0  0
135134  1  0  0  0  0
136128  4  0  0  0  0
137129  1  0  0  0  0
138137  4  0  0  0  0
139138  4  0  0  0  0
140139  1  0  0  0  0
141139  4  0  0  0  0
142141  4  0  0  0  0
143142  1  0  0  0  0
144137  4  0  0  0  0
145138  1  0  0  0  0
146145  1  0  0  0  0
147145  1  0  0  0  0
148145  1  0  0  0  0
149141  1  0  0  0  0
150149  1  0  0  0  0
151149  1  0  0  0  0
152149  1  0  0  0  0
153144  1  0  0  0  0
154153  1  0  0  0  0
155153  1  0  0  0  0
156153  1  0  0  0  0
157136  1  0  0  0  0
158157  4  0  0  0  0
159158  4  0  0  0  0
160159  1  0  0  0  0
161159  4  0  0  0  0
162161  4  0  0  0  0
163162  1  0  0  0  0
164157  4  0  0  0  0
165158  1  0  0  0  0
166165  1  0  0  0  0
167165  1  0  0  0  0
168165  1  0  0  0  0
169161  1  0  0  0  0
170169  1  0  0  0  0
171169  1  0  0  0  0
172169  1  0  0  0  0
173164  1  0  0  0  0
174173  1  0  0  0  0
175173  1  0  0  0  0
176173  1  0  0  0  0
177  5  1  0  0  0  0
178177  4  0  0  0  0
179178  4  0  0  0  0
180179  4  0  0  0  0
181180  4  0  0  0  0
182177  4  0  0  0  0
183  5  1  0  0  0  0
184183  4  0  0  0  0
185184  4  0  0  0  0
186185  4  0  0  0  0
187186  4  0  0  0  0
188183  4  0  0  0  0
189  6  1  0  0  0  0
190189  4  0  0  0  0
191190  4  0  0  0  0
192191  4  0  0  0  0
193192  4  0  0  0  0
194189  4  0  0  0  0
195  6  1  0  0  0  0
196195  4  0  0  0  0
197196  4  0  0  0  0
198197  4  0  0  0  0
199198  4  0  0  0  0
200195  4  0  0  0  0
201178  1  0  0  0  0
202179  1  0  0  0  0
203180  1  0  0  0  0
204181  1  0  0  0  0
205182  1  0  0  0  0
206184  1  0  0  0  0
207185  1  0  0  0  0
208186  1  0  0  0  0
209187  1  0  0  0  0
210188  1  0  0  0  0
211190  1  0  0  0  0
212191  1  0  0  0  0
213192  1  0  0  0  0
214193  1  0  0  0  0
215194  1  0  0  0  0
216196  1  0  0  0  0
217197  1  0  0  0  0
218198  1  0  0  0  0
219199  1  0  0  0  0
220200  1  0  0  0  0
 16 19  1  0  0  0  0
 28 30  4  0  0  0  0
 36 38  4  0  0  0  0
 56 58  4  0  0  0  0
 75 76  4  0  0  0  0
 81 82  4  0  0  0  0
 87 88  4  0  0  0  0
 93 94  4  0  0  0  0
122125  1  0  0  0  0
134136  4  0  0  0  0
142144  4  0  0  0  0
162164  4  0  0  0  0
181182  4  0  0  0  0
187188  4  0  0  0  0
193194  4  0  0  0  0
199200  4  0  0  0  0
M  END
$$$$
MENRUV

From CSD data. Using bond type 'Any'. No disordered atoms. Largest molecule.
198210  0  0  0  0  0  0  0  0999 V2000
    9.6596   15.8657    6.8127 P   0  0  0  0  0  0  0  0  0  0  0  0
    9.5391   16.1731    4.7763 B   0  0  0  0  0  0  0  0  0  0  0  0
   11.2245   13.0036    9.6077 B   0  0  0  0  0  0  0  0  0  0  0  0
    9.2386   14.0289    3.4936 O   0  0  0  0  0  0  0  0  0  0  0  0
    7.9805   15.0937    6.7801 C   0  0  0  0  0  0  0  0  0  0  0  0
    7.7937   14.6120    7.6241 H   0  0  0  0  0  0  0  0  0  0  0  0
    7.2782   15.7772    6.6367 H   0  0  0  0  0  0  0  0  0  0  0  0
    8.0504   14.1172    5.5938 C   0  0  0  0  0  0  0  0  0  0  0  0
    8.4233   13.2514    5.8956 H   0  0  0  0  0  0  0  0  0  0  0  0
    7.1396   13.9547    5.2413 H   0  0  0  0  0  0  0  0  0  0  0  0
    8.9159   14.6884    4.5105 C   0  0  0  0  0  0  0  0  0  0  0  0
   10.6930   14.4950    7.4798 C   0  0  0  0  0  0  0  0  0  0  0  0
   10.6963   13.7460    6.8323 H   0  0  0  0  0  0  0  0  0  0  0  0
   11.6248   14.8114    7.5831 H   0  0  0  0  0  0  0  0  0  0  0  0
   10.1822   13.9845    8.8354 C   0  0  0  0  0  0  0  0  0  0  0  0
    9.3330   13.4972    8.6912 H   0  0  0  0  0  0  0  0  0  0  0  0
    9.9878   14.7623    9.4155 H   0  0  0  0  0  0  0  0  0  0  0  0
    9.8978   17.3268    7.8912 C   0  0  0  0  0  0  0  0  0  0  0  0
   11.1152   18.0473    7.7359 C   0  0  0  0  0  0  0  0  0  0  0  0
   11.2847   19.2434    8.4245 C   0  0  0  0  0  0  0  0  0  0  0  0
   12.0962   19.7249    8.3122 H   0  0  0  0  0  0  0  0  0  0  0  0
   10.3130   19.7611    9.2690 C   0  0  0  0  0  0  0  0  0  0  0  0
    9.1652   19.0040    9.4563 C   0  0  0  0  0  0  0  0  0  0  0  0
    8.5010   19.3326   10.0504 H   0  0  0  0  0  0  0  0  0  0  0  0
    8.9345   17.7903    8.8206 C   0  0  0  0  0  0  0  0  0  0  0  0
   12.3070   17.5280    6.9342 C   0  0  0  0  0  0  0  0  0  0  0  0
   11.9913   16.7550    6.3832 H   0  0  0  0  0  0  0  0  0  0  0  0
   13.3781   17.0065    7.9081 C   0  0  0  0  0  0  0  0  0  0  0  0
   13.7673   17.7592    8.3991 H   0  0  0  0  0  0  0  0  0  0  0  0
   14.0815   16.5462    7.4044 H   0  0  0  0  0  0  0  0  0  0  0  0
   12.9670   16.3807    8.5415 H   0  0  0  0  0  0  0  0  0  0  0  0
   12.9446   18.5480    5.9866 C   0  0  0  0  0  0  0  0  0  0  0  0
   12.2769   18.8532    5.3379 H   0  0  0  0  0  0  0  0  0  0  0  0
   13.6932   18.1301    5.5117 H   0  0  0  0  0  0  0  0  0  0  0  0
   13.2724   19.3142    6.5039 H   0  0  0  0  0  0  0  0  0  0  0  0
   10.4468   21.0851   10.0017 C   0  0  0  0  0  0  0  0  0  0  0  0
   10.2041   20.9182   10.9582 H   0  0  0  0  0  0  0  0  0  0  0  0
   11.8487   21.6584    9.9932 C   0  0  0  0  0  0  0  0  0  0  0  0
   12.4790   20.9849   10.3257 H   0  0  0  0  0  0  0  0  0  0  0  0
   11.8807   22.4489   10.5695 H   0  0  0  0  0  0  0  0  0  0  0  0
   12.0930   21.9104    9.0775 H   0  0  0  0  0  0  0  0  0  0  0  0
    9.4305   22.0972    9.4483 C   0  0  0  0  0  0  0  0  0  0  0  0
    9.6118   22.2556    8.4981 H   0  0  0  0  0  0  0  0  0  0  0  0
    9.5069   22.9399    9.9418 H   0  0  0  0  0  0  0  0  0  0  0  0
    8.5242   21.7403    9.5531 H   0  0  0  0  0  0  0  0  0  0  0  0
    7.6723   17.0456    9.2356 C   0  0  0  0  0  0  0  0  0  0  0  0
    7.7055   16.1394    8.8168 H   0  0  0  0  0  0  0  0  0  0  0  0
    7.6231   16.8496   10.7523 C   0  0  0  0  0  0  0  0  0  0  0  0
    7.4704   17.7139   11.1875 H   0  0  0  0  0  0  0  0  0  0  0  0
    8.4746   16.4746   11.0620 H   0  0  0  0  0  0  0  0  0  0  0  0
    6.8939   16.2365   10.9799 H   0  0  0  0  0  0  0  0  0  0  0  0
    6.4166   17.7513    8.7110 C   0  0  0  0  0  0  0  0  0  0  0  0
    6.3276   18.6253    9.1451 H   0  0  0  0  0  0  0  0  0  0  0  0
    5.6273   17.2055    8.9085 H   0  0  0  0  0  0  0  0  0  0  0  0
    6.4927   17.8753    7.7424 H   0  0  0  0  0  0  0  0  0  0  0  0
    8.3962   17.3498    4.7036 C   0  0  0  0  0  0  0  0  0  0  0  0
    8.6981   18.6800    4.9996 C   0  0  0  0  0  0  0  0  0  0  0  0
    7.7880   19.7173    4.9337 C   0  0  0  0  0  0  0  0  0  0  0  0
    6.4882   19.4589    4.5503 C   0  0  0  0  0  0  0  0  0  0  0  0
    6.1292   18.1670    4.2481 C   0  0  0  0  0  0  0  0  0  0  0  0
    7.0761   17.1594    4.3200 C   0  0  0  0  0  0  0  0  0  0  0  0
   10.8572   16.4420    3.8888 C   0  0  0  0  0  0  0  0  0  0  0  0
   10.9401   17.3676    2.8495 C   0  0  0  0  0  0  0  0  0  0  0  0
   12.0934   17.6079    2.1332 C   0  0  0  0  0  0  0  0  0  0  0  0
   13.2504   16.9221    2.4280 C   0  0  0  0  0  0  0  0  0  0  0  0
   13.2184   15.9653    3.4210 C   0  0  0  0  0  0  0  0  0  0  0  0
   12.0336   15.7306    4.0805 C   0  0  0  0  0  0  0  0  0  0  0  0
   12.5400   13.8735   10.0509 C   0  0  0  0  0  0  0  0  0  0  0  0
   12.3572   14.8579   11.0212 C   0  0  0  0  0  0  0  0  0  0  0  0
   13.3365   15.7177   11.4649 C   0  0  0  0  0  0  0  0  0  0  0  0
   14.6019   15.6301   10.9314 C   0  0  0  0  0  0  0  0  0  0  0  0
   14.8559   14.6669    9.9843 C   0  0  0  0  0  0  0  0  0  0  0  0
   13.8363   13.8288    9.5635 C   0  0  0  0  0  0  0  0  0  0  0  0
   10.6313   12.2400   10.9345 C   0  0  0  0  0  0  0  0  0  0  0  0
    9.4086   12.4798   11.5487 C   0  0  0  0  0  0  0  0  0  0  0  0
    9.0150   11.8781   12.7300 C   0  0  0  0  0  0  0  0  0  0  0  0
    9.8470   10.9705   13.3442 C   0  0  0  0  0  0  0  0  0  0  0  0
   11.0709   10.6937   12.7812 C   0  0  0  0  0  0  0  0  0  0  0  0
   11.4399   11.3354   11.6204 C   0  0  0  0  0  0  0  0  0  0  0  0
   10.4821    9.7861    5.6124 P   0  0  0  0  0  0  0  0  0  0  0  0
   11.9107    9.7878    7.1060 B   0  0  0  0  0  0  0  0  0  0  0  0
    8.6579   12.6306    2.9502 B   0  0  0  0  0  0  0  0  0  0  0  0
   11.7662   11.8285    8.6369 O   0  0  0  0  0  0  0  0  0  0  0  0
    9.1643    9.8855    6.8996 C   0  0  0  0  0  0  0  0  0  0  0  0
    8.2964   10.1364    6.4943 H   0  0  0  0  0  0  0  0  0  0  0  0
    9.0617    9.0171    7.3634 H   0  0  0  0  0  0  0  0  0  0  0  0
    9.6440   10.9691    7.8728 C   0  0  0  0  0  0  0  0  0  0  0  0
    9.3385   11.8562    7.5565 H   0  0  0  0  0  0  0  0  0  0  0  0
    9.2504   10.8082    8.7661 H   0  0  0  0  0  0  0  0  0  0  0  0
   11.1461   10.9607    7.9757 C   0  0  0  0  0  0  0  0  0  0  0  0
   10.2438   11.3410    4.6578 C   0  0  0  0  0  0  0  0  0  0  0  0
   10.3892   12.1154    5.2582 H   0  0  0  0  0  0  0  0  0  0  0  0
   10.9195   11.3843    3.9352 H   0  0  0  0  0  0  0  0  0  0  0  0
    8.8424   11.4393    4.0421 C   0  0  0  0  0  0  0  0  0  0  0  0
    8.1865   11.5749    4.7705 H   0  0  0  0  0  0  0  0  0  0  0  0
    8.6291   10.5766    3.6069 H   0  0  0  0  0  0  0  0  0  0  0  0
   10.3372    8.4329    4.3756 C   0  0  0  0  0  0  0  0  0  0  0  0
   11.4492    8.2764    3.5030 C   0  0  0  0  0  0  0  0  0  0  0  0
   11.4015    7.2971    2.5195 C   0  0  0  0  0  0  0  0  0  0  0  0
   12.1623    7.1741    1.9628 H   0  0  0  0  0  0  0  0  0  0  0  0
    9.2093    6.6706    3.1593 C   0  0  0  0  0  0  0  0  0  0  0  0
    8.4442    6.1198    3.0395 H   0  0  0  0  0  0  0  0  0  0  0  0
    9.1903    7.6242    4.1798 C   0  0  0  0  0  0  0  0  0  0  0  0
   12.6494    9.2120    3.4507 C   0  0  0  0  0  0  0  0  0  0  0  0
   12.5713    9.8632    4.2056 H   0  0  0  0  0  0  0  0  0  0  0  0
   14.0072    8.5038    3.5656 C   0  0  0  0  0  0  0  0  0  0  0  0
   14.0477    8.0105    4.4108 H   0  0  0  0  0  0  0  0  0  0  0  0
   14.7256    9.1692    3.5417 H   0  0  0  0  0  0  0  0  0  0  0  0
   14.1148    7.8789    2.8174 H   0  0  0  0  0  0  0  0  0  0  0  0
   12.5689    9.9975    2.1281 C   0  0  0  0  0  0  0  0  0  0  0  0
   12.7294    9.3892    1.3761 H   0  0  0  0  0  0  0  0  0  0  0  0
   13.2467   10.7047    2.1269 H   0  0  0  0  0  0  0  0  0  0  0  0
   11.6791   10.3978    2.0400 H   0  0  0  0  0  0  0  0  0  0  0  0
   10.2905    6.4903    2.3124 C   0  0  0  0  0  0  0  0  0  0  0  0
   10.2174    5.5316    1.1315 C   0  0  0  0  0  0  0  0  0  0  0  0
    9.4001    4.9675    1.2409 H   0  0  0  0  0  0  0  0  0  0  0  0
   11.4342    4.6001    1.0835 C   0  0  0  0  0  0  0  0  0  0  0  0
   12.2444    5.1288    0.9271 H   0  0  0  0  0  0  0  0  0  0  0  0
   11.3203    3.9523    0.3573 H   0  0  0  0  0  0  0  0  0  0  0  0
   11.5143    4.1230    1.9362 H   0  0  0  0  0  0  0  0  0  0  0  0
   10.0814    6.3100   -0.1770 C   0  0  0  0  0  0  0  0  0  0  0  0
    9.2859    6.8796   -0.1376 H   0  0  0  0  0  0  0  0  0  0  0  0
    9.9960    5.6813   -0.9247 H   0  0  0  0  0  0  0  0  0  0  0  0
   10.8771    6.8672   -0.3090 H   0  0  0  0  0  0  0  0  0  0  0  0
    7.8958    7.7047    4.9866 C   0  0  0  0  0  0  0  0  0  0  0  0
    7.9171    8.5587    5.5069 H   0  0  0  0  0  0  0  0  0  0  0  0
    6.6447    7.7336    4.1018 C   0  0  0  0  0  0  0  0  0  0  0  0
    6.7468    8.4232    3.4137 H   0  0  0  0  0  0  0  0  0  0  0  0
    5.8588    7.9357    4.6522 H   0  0  0  0  0  0  0  0  0  0  0  0
    6.5274    6.8604    3.6745 H   0  0  0  0  0  0  0  0  0  0  0  0
    7.8245    6.5621    5.9842 C   0  0  0  0  0  0  0  0  0  0  0  0
    7.7823    5.7093    5.5020 H   0  0  0  0  0  0  0  0  0  0  0  0
    7.0236    6.6637    6.5402 H   0  0  0  0  0  0  0  0  0  0  0  0
    8.6213    6.5759    6.5546 H   0  0  0  0  0  0  0  0  0  0  0  0
   11.6837    8.3339    7.8421 C   0  0  0  0  0  0  0  0  0  0  0  0
   11.2466    8.1911    9.1485 C   0  0  0  0  0  0  0  0  0  0  0  0
   11.1369    6.9804    9.8117 C   0  0  0  0  0  0  0  0  0  0  0  0
   11.4466    5.8215    9.1456 C   0  0  0  0  0  0  0  0  0  0  0  0
   11.8804    5.8956    7.8414 C   0  0  0  0  0  0  0  0  0  0  0  0
   11.9991    7.1234    7.2260 C   0  0  0  0  0  0  0  0  0  0  0  0
   13.4610   10.1710    6.8241 C   0  0  0  0  0  0  0  0  0  0  0  0
   13.7906   11.3969    6.2502 C   0  0  0  0  0  0  0  0  0  0  0  0
   15.0699   11.8967    6.1331 C   0  0  0  0  0  0  0  0  0  0  0  0
   16.1213   11.1470    6.6073 C   0  0  0  0  0  0  0  0  0  0  0  0
   15.8728    9.9076    7.1502 C   0  0  0  0  0  0  0  0  0  0  0  0
   14.5729    9.4548    7.2618 C   0  0  0  0  0  0  0  0  0  0  0  0
    7.1242   13.0100    2.5451 C   0  0  0  0  0  0  0  0  0  0  0  0
    6.8856   14.1017    1.7073 C   0  0  0  0  0  0  0  0  0  0  0  0
    5.6317   14.5030    1.2967 C   0  0  0  0  0  0  0  0  0  0  0  0
    4.5300   13.7882    1.7018 C   0  0  0  0  0  0  0  0  0  0  0  0
    4.7032   12.7112    2.5400 C   0  0  0  0  0  0  0  0  0  0  0  0
    5.9761   12.3371    2.9268 C   0  0  0  0  0  0  0  0  0  0  0  0
    9.4983   12.2851    1.5905 C   0  0  0  0  0  0  0  0  0  0  0  0
    9.0396   11.2159    0.8211 C   0  0  0  0  0  0  0  0  0  0  0  0
    9.6293   10.7919   -0.3501 C   0  0  0  0  0  0  0  0  0  0  0  0
   10.7380   11.4553   -0.8177 C   0  0  0  0  0  0  0  0  0  0  0  0
   11.2342   12.5263   -0.1149 C   0  0  0  0  0  0  0  0  0  0  0  0
   10.6192   12.9150    1.0668 C   0  0  0  0  0  0  0  0  0  0  0  0
    9.9660   19.0184    5.3031 F   0  0  0  0  0  0  0  0  0  0  0  0
    8.1675   20.9766    5.2056 F   0  0  0  0  0  0  0  0  0  0  0  0
    5.6036   20.4551    4.4294 F   0  0  0  0  0  0  0  0  0  0  0  0
    4.8679   17.8901    3.8777 F   0  0  0  0  0  0  0  0  0  0  0  0
    6.6408   15.9184    3.9787 F   0  0  0  0  0  0  0  0  0  0  0  0
    9.8624   18.0965    2.4864 F   0  0  0  0  0  0  0  0  0  0  0  0
   12.0900   18.5231    1.1441 F   0  0  0  0  0  0  0  0  0  0  0  0
   14.3813   17.1743    1.7600 F   0  0  0  0  0  0  0  0  0  0  0  0
   14.3302   15.2905    3.7568 F   0  0  0  0  0  0  0  0  0  0  0  0
   12.0566   14.7398    5.0095 F   0  0  0  0  0  0  0  0  0  0  0  0
   11.1282   15.0248   11.5724 F   0  0  0  0  0  0  0  0  0  0  0  0
   13.0704   16.6550   12.3959 F   0  0  0  0  0  0  0  0  0  0  0  0
   15.5545   16.4914   11.3160 F   0  0  0  0  0  0  0  0  0  0  0  0
   16.0849   14.5649    9.4423 F   0  0  0  0  0  0  0  0  0  0  0  0
   14.1712   12.9501    8.5915 F   0  0  0  0  0  0  0  0  0  0  0  0
    8.5221   13.3573   11.0193 F   0  0  0  0  0  0  0  0  0  0  0  0
    7.8184   12.1556   13.2836 F   0  0  0  0  0  0  0  0  0  0  0  0
    9.4602   10.3565   14.4765 F   0  0  0  0  0  0  0  0  0  0  0  0
   11.8844    9.8016   13.3669 F   0  0  0  0  0  0  0  0  0  0  0  0
   12.6580   11.0430   11.1226 F   0  0  0  0  0  0  0  0  0  0  0  0
   10.9095    9.2828    9.8720 F   0  0  0  0  0  0  0  0  0  0  0  0
   10.7286    6.9525   11.0905 F   0  0  0  0  0  0  0  0  0  0  0  0
   11.3308    4.6311    9.7520 F   0  0  0  0  0  0  0  0  0  0  0  0
   12.2144    4.7653    7.1915 F   0  0  0  0  0  0  0  0  0  0  0  0
   12.5111    7.1373    5.9829 F   0  0  0  0  0  0  0  0  0  0  0  0
   12.7892   12.1996    5.8185 F   0  0  0  0  0  0  0  0  0  0  0  0
   15.2961   13.1211    5.6326 F   0  0  0  0  0  0  0  0  0  0  0  0
   17.3764   11.6233    6.5571 F   0  0  0  0  0  0  0  0  0  0  0  0
   16.9018    9.1609    7.5949 F   0  0  0  0  0  0  0  0  0  0  0  0
   14.4376    8.2459    7.8593 F   0  0  0  0  0  0  0  0  0  0  0  0
    7.9254   14.8365    1.2658 F   0  0  0  0  0  0  0  0  0  0  0  0
    5.4953   15.5774    0.5084 F   0  0  0  0  0  0  0  0  0  0  0  0
    3.3000   14.1274    1.2938 F   0  0  0  0  0  0  0  0  0  0  0  0
    3.6339   12.0303    2.9847 F   0  0  0  0  0  0  0  0  0  0  0  0
    6.0448   11.2342    3.7177 F   0  0  0  0  0  0  0  0  0  0  0  0
    7.9411   10.5321    1.2180 F   0  0  0  0  0  0  0  0  0  0  0  0
    9.1176    9.7588   -1.0480 F   0  0  0  0  0  0  0  0  0  0  0  0
   11.3266   11.0559   -1.9616 F   0  0  0  0  0  0  0  0  0  0  0  0
   12.3037   13.1860   -0.5799 F   0  0  0  0  0  0  0  0  0  0  0  0
   11.1921   13.9521    1.7112 F   0  0  0  0  0  0  0  0  0  0  0  0
  1  2  1  0  0  0  0
  2 11  1  0  0  0  0
  3 15  1  0  0  0  0
  4 11  1  0  0  0  0
  5  1  1  0  0  0  0
  6  5  1  0  0  0  0
  7  5  1  0  0  0  0
  8  5  1  0  0  0  0
  9  8  1  0  0  0  0
 10  8  1  0  0  0  0
 11  8  1  0  0  0  0
 12  1  1  0  0  0  0
 13 12  1  0  0  0  0
 14 12  1  0  0  0  0
 15 12  1  0  0  0  0
 16 15  1  0  0  0  0
 17 15  1  0  0  0  0
 18  1  1  0  0  0  0
 19 18  4  0  0  0  0
 20 19  4  0  0  0  0
 21 20  1  0  0  0  0
 22 20  4  0  0  0  0
 23 22  4  0  0  0  0
 24 23  1  0  0  0  0
 25 18  4  0  0  0  0
 26 19  1  0  0  0  0
 27 26  1  0  0  0  0
 28 26  1  0  0  0  0
 29 28  1  0  0  0  0
 30 28  1  0  0  0  0
 31 28  1  0  0  0  0
 32 26  1  0  0  0  0
 33 32  1  0  0  0  0
 34 32  1  0  0  0  0
 35 32  1  0  0  0  0
 36 22  1  0  0  0  0
 37 36  1  0  0  0  0
 38 36  1  0  0  0  0
 39 38  1  0  0  0  0
 40 38  1  0  0  0  0
 41 38  1  0  0  0  0
 42 36  1  0  0  0  0
 43 42  1  0  0  0  0
 44 42  1  0  0  0  0
 45 42  1  0  0  0  0
 46 25  1  0  0  0  0
 47 46  1  0  0  0  0
 48 46  1  0  0  0  0
 49 48  1  0  0  0  0
 50 48  1  0  0  0  0
 51 48  1  0  0  0  0
 52 46  1  0  0  0  0
 53 52  1  0  0  0  0
 54 52  1  0  0  0  0
 55 52  1  0  0  0  0
 56  2  1  0  0  0  0
 57 56  4  0  0  0  0
 58 57  4  0  0  0  0
 59 58  4  0  0  0  0
 60 59  4  0  0  0  0
 61 56  4  0  0  0  0
 62  2  1  0  0  0  0
 63 62  4  0  0  0  0
 64 63  4  0  0  0  0
 65 64  4  0  0  0  0
 66 65  4  0  0  0  0
 67 62  4  0  0  0  0
 68  3  1  0  0  0  0
 69 68  4  0  0  0  0
 70 69  4  0  0  0  0
 71 70  4  0  0  0  0
 72 71  4  0  0  0  0
 73 68  4  0  0  0  0
 74  3  1  0  0  0  0
 75 74  4  0  0  0  0
 76 75  4  0  0  0  0
 77 76  4  0  0  0  0
 78 77  4  0  0  0  0
 79 74  4  0  0  0  0
 80 81  1  0  0  0  0
 81 90  1  0  0  0  0
 82  4  1  0  0  0  0
 83  3  1  0  0  0  0
 84 80  1  0  0  0  0
 85 84  1  0  0  0  0
 86 84  1  0  0  0  0
 87 84  1  0  0  0  0
 88 87  1  0  0  0  0
 89 87  1  0  0  0  0
 90 83  1  0  0  0  0
 91 80  1  0  0  0  0
 92 91  1  0  0  0  0
 93 91  1  0  0  0  0
 94 82  1  0  0  0  0
 95 94  1  0  0  0  0
 96 94  1  0  0  0  0
 97 80  1  0  0  0  0
 98 97  4  0  0  0  0
 99 98  4  0  0  0  0
100 99  1  0  0  0  0
101102  1  0  0  0  0
103 97  4  0  0  0  0
104 98  1  0  0  0  0
105104  1  0  0  0  0
106104  1  0  0  0  0
107106  1  0  0  0  0
108106  1  0  0  0  0
109106  1  0  0  0  0
110104  1  0  0  0  0
111110  1  0  0  0  0
112110  1  0  0  0  0
113110  1  0  0  0  0
114 99  4  0  0  0  0
115114  1  0  0  0  0
116115  1  0  0  0  0
117115  1  0  0  0  0
118117  1  0  0  0  0
119117  1  0  0  0  0
120117  1  0  0  0  0
121115  1  0  0  0  0
122121  1  0  0  0  0
123121  1  0  0  0  0
124121  1  0  0  0  0
125103  1  0  0  0  0
126125  1  0  0  0  0
127125  1  0  0  0  0
128127  1  0  0  0  0
129127  1  0  0  0  0
130127  1  0  0  0  0
131125  1  0  0  0  0
132131  1  0  0  0  0
133131  1  0  0  0  0
134131  1  0  0  0  0
135 81  1  0  0  0  0
136135  4  0  0  0  0
137136  4  0  0  0  0
138137  4  0  0  0  0
139138  4  0  0  0  0
140135  4  0  0  0  0
141 81  1  0  0  0  0
142141  4  0  0  0  0
143142  4  0  0  0  0
144143  4  0  0  0  0
145144  4  0  0  0  0
146141  4  0  0  0  0
147 82  1  0  0  0  0
148147  4  0  0  0  0
149148  4  0  0  0  0
150149  4  0  0  0  0
151150  4  0  0  0  0
152147  4  0  0  0  0
153 82  1  0  0  0  0
154153  4  0  0  0  0
155154  4  0  0  0  0
156155  4  0  0  0  0
157156  4  0  0  0  0
158153  4  0  0  0  0
159 57  1  0  0  0  0
160 58  1  0  0  0  0
161 59  1  0  0  0  0
162 60  1  0  0  0  0
163 61  1  0  0  0  0
164 63  1  0  0  0  0
165 64  1  0  0  0  0
166 65  1  0  0  0  0
167 66  1  0  0  0  0
168 67  1  0  0  0  0
169 69  1  0  0  0  0
170 70  1  0  0  0  0
171 71  1  0  0  0  0
172 72  1  0  0  0  0
173 73  1  0  0  0  0
174 75  1  0  0  0  0
175 76  1  0  0  0  0
176 77  1  0  0  0  0
177 78  1  0  0  0  0
178 79  1  0  0  0  0
179136  1  0  0  0  0
180137  1  0  0  0  0
181138  1  0  0  0  0
182139  1  0  0  0  0
183140  1  0  0  0  0
184142  1  0  0  0  0
185143  1  0  0  0  0
186144  1  0  0  0  0
187145  1  0  0  0  0
188146  1  0  0  0  0
189148  1  0  0  0  0
190149  1  0  0  0  0
191150  1  0  0  0  0
192151  1  0  0  0  0
193152  1  0  0  0  0
194154  1  0  0  0  0
195155  1  0  0  0  0
196156  1  0  0  0  0
197157  1  0  0  0  0
198158  1  0  0  0  0
 23 25  4  0  0  0  0
 60 61  4  0  0  0  0
 66 67  4  0  0  0  0
 72 73  4  0  0  0  0
 78 79  4  0  0  0  0
 87 90  1  0  0  0  0
 91 94  1  0  0  0  0
101103  4  0  0  0  0
101114  4  0  0  0  0
139140  4  0  0  0  0
145146  4  0  0  0  0
151152  4  0  0  0  0
157158  4  0  0  0  0
M  END
$$$$
MENSAC

From CSD data. Using bond type 'Any'. Matching problem. No disordered atoms. Largest molecule.
324342  0  0  0  0  0  0  0  0999 V2000
    8.2301    9.4728   31.6087 P   0  0  0  0  0  0  0  0  0  0  0  0
    7.5448    9.2527   29.9143 C   0  0  0  0  0  0  0  0  0  0  0  0
    6.5787    9.4232   29.9143 H   0  0  0  0  0  0  0  0  0  0  0  0
    7.9681    9.8819   29.2948 H   0  0  0  0  0  0  0  0  0  0  0  0
    7.8271    7.8122   29.4824 C   0  0  0  0  0  0  0  0  0  0  0  0
    7.2324    7.1945   29.9562 H   0  0  0  0  0  0  0  0  0  0  0  0
    7.6791    7.7105   28.5179 H   0  0  0  0  0  0  0  0  0  0  0  0
    9.2353    7.5263   29.8163 C   0  0  0  0  0  0  0  0  0  0  0  0
    9.9262    6.6344   29.2700 O   0  0  0  0  0  0  0  0  0  0  0  0
    8.4736   11.3040   31.8376 C   0  0  0  0  0  0  0  0  0  0  0  0
    7.7324   11.6442   32.3814 H   0  0  0  0  0  0  0  0  0  0  0  0
    9.2972   11.4378   32.3499 H   0  0  0  0  0  0  0  0  0  0  0  0
    8.5607   12.1591   30.5589 C   0  0  0  0  0  0  0  0  0  0  0  0
    7.9123   11.8047   29.9143 H   0  0  0  0  0  0  0  0  0  0  0  0
    9.4525   12.0303   30.1732 H   0  0  0  0  0  0  0  0  0  0  0  0
    7.0386    8.6510   32.7597 C   0  0  0  0  0  0  0  0  0  0  0  0
    5.7184    8.3333   32.2474 C   0  0  0  0  0  0  0  0  0  0  0  0
    5.2068    7.0737   32.5669 C   0  0  0  0  0  0  0  0  0  0  0  0
    4.4308    6.7854   32.1225 H   0  0  0  0  0  0  0  0  0  0  0  0
    5.7740    6.2357   33.4919 C   0  0  0  0  0  0  0  0  0  0  0  0
    6.8375    6.7407   34.2198 C   0  0  0  0  0  0  0  0  0  0  0  0
    7.1438    6.2502   34.9606 H   0  0  0  0  0  0  0  0  0  0  0  0
    7.4806    7.9476   33.9034 C   0  0  0  0  0  0  0  0  0  0  0  0
    4.6825    9.3352   31.6647 C   0  0  0  0  0  0  0  0  0  0  0  0
    4.0508    8.8700   30.3381 C   0  0  0  0  0  0  0  0  0  0  0  0
    3.3637    9.4996   30.0682 H   0  0  0  0  0  0  0  0  0  0  0  0
    3.6556    7.9934   30.4602 H   0  0  0  0  0  0  0  0  0  0  0  0
    4.7349    8.8230   29.6518 H   0  0  0  0  0  0  0  0  0  0  0  0
    5.1415   10.7902   31.5562 C   0  0  0  0  0  0  0  0  0  0  0  0
    5.5432   11.0669   32.3954 H   0  0  0  0  0  0  0  0  0  0  0  0
    4.3779   11.3575   31.3596 H   0  0  0  0  0  0  0  0  0  0  0  0
    5.7950   10.8720   30.8451 H   0  0  0  0  0  0  0  0  0  0  0  0
    3.5663    9.3654   32.7496 C   0  0  0  0  0  0  0  0  0  0  0  0
    3.9592    9.5684   33.6133 H   0  0  0  0  0  0  0  0  0  0  0  0
    3.1297    8.4980   32.7874 H   0  0  0  0  0  0  0  0  0  0  0  0
    2.9134   10.0463   32.5214 H   0  0  0  0  0  0  0  0  0  0  0  0
    5.1813    4.8477   33.8117 C   0  0  0  0  0  0  0  0  0  0  0  0
    4.2549    4.3591   32.6835 C   0  0  0  0  0  0  0  0  0  0  0  0
    4.7063    4.4535   31.8320 H   0  0  0  0  0  0  0  0  0  0  0  0
    3.4424    4.8893   32.6789 H   0  0  0  0  0  0  0  0  0  0  0  0
    4.0330    3.4252   32.8294 H   0  0  0  0  0  0  0  0  0  0  0  0
    6.3076    3.8136   33.9877 C   0  0  0  0  0  0  0  0  0  0  0  0
    5.9208    2.9435   34.1662 H   0  0  0  0  0  0  0  0  0  0  0  0
    6.8720    4.0751   34.7332 H   0  0  0  0  0  0  0  0  0  0  0  0
    6.8400    3.7731   33.1793 H   0  0  0  0  0  0  0  0  0  0  0  0
    4.3665    4.9643   35.1111 C   0  0  0  0  0  0  0  0  0  0  0  0
    4.0150    4.0942   35.3526 H   0  0  0  0  0  0  0  0  0  0  0  0
    3.6320    5.5851   34.9781 H   0  0  0  0  0  0  0  0  0  0  0  0
    4.9384    5.2907   35.8250 H   0  0  0  0  0  0  0  0  0  0  0  0
    8.4257    8.4870   34.9883 C   0  0  0  0  0  0  0  0  0  0  0  0
    9.0802    9.8154   34.6128 C   0  0  0  0  0  0  0  0  0  0  0  0
    9.6590    9.6869   33.8443 H   0  0  0  0  0  0  0  0  0  0  0  0
    9.6052   10.1418   35.3631 H   0  0  0  0  0  0  0  0  0  0  0  0
    8.3941   10.4629   34.3937 H   0  0  0  0  0  0  0  0  0  0  0  0
    9.5262    7.4976   35.4331 C   0  0  0  0  0  0  0  0  0  0  0  0
   10.2055    7.4391   34.7436 H   0  0  0  0  0  0  0  0  0  0  0  0
    9.1346    6.6211   35.5765 H   0  0  0  0  0  0  0  0  0  0  0  0
    9.9304    7.8138   36.2555 H   0  0  0  0  0  0  0  0  0  0  0  0
    7.5215    8.7802   36.2089 C   0  0  0  0  0  0  0  0  0  0  0  0
    8.0223    9.2817   36.8714 H   0  0  0  0  0  0  0  0  0  0  0  0
    7.2222    7.9437   36.5984 H   0  0  0  0  0  0  0  0  0  0  0  0
    6.7521    9.2970   35.9230 H   0  0  0  0  0  0  0  0  0  0  0  0
    9.9242    8.3872   31.0233 B   0  0  0  0  0  0  0  0  0  0  0  0
   10.5932    7.2740   31.9996 C   0  0  0  0  0  0  0  0  0  0  0  0
   11.9323    7.1547   32.4014 C   0  0  0  0  0  0  0  0  0  0  0  0
   12.8436    8.0833   32.0371 F   0  0  0  0  0  0  0  0  0  0  0  0
   12.4204    6.1275   33.1769 C   0  0  0  0  0  0  0  0  0  0  0  0
   13.7080    6.1428   33.5492 F   0  0  0  0  0  0  0  0  0  0  0  0
   11.6136    5.0874   33.5195 C   0  0  0  0  0  0  0  0  0  0  0  0
   12.0859    4.0812   34.2621 F   0  0  0  0  0  0  0  0  0  0  0  0
   10.3090    5.0862   33.0940 C   0  0  0  0  0  0  0  0  0  0  0  0
    9.5013    4.0564   33.3904 F   0  0  0  0  0  0  0  0  0  0  0  0
    9.8479    6.1543   32.3531 C   0  0  0  0  0  0  0  0  0  0  0  0
    8.5792    6.0404   31.8852 F   0  0  0  0  0  0  0  0  0  0  0  0
   10.9348    9.5340   30.4430 C   0  0  0  0  0  0  0  0  0  0  0  0
   11.7323   10.3142   31.2864 C   0  0  0  0  0  0  0  0  0  0  0  0
   11.5797   10.2202   32.6226 F   0  0  0  0  0  0  0  0  0  0  0  0
   12.7078   11.1862   30.8409 C   0  0  0  0  0  0  0  0  0  0  0  0
   13.4757   11.8468   31.7099 F   0  0  0  0  0  0  0  0  0  0  0  0
   12.8727   11.3560   29.4943 C   0  0  0  0  0  0  0  0  0  0  0  0
   13.7967   12.2119   29.0390 F   0  0  0  0  0  0  0  0  0  0  0  0
   12.0729   10.6862   28.6184 C   0  0  0  0  0  0  0  0  0  0  0  0
   12.1958   10.9186   27.3032 F   0  0  0  0  0  0  0  0  0  0  0  0
   11.1217    9.8008   29.1038 C   0  0  0  0  0  0  0  0  0  0  0  0
   10.3468    9.1911   28.1711 F   0  0  0  0  0  0  0  0  0  0  0  0
    9.6366    5.5637   28.1302 B   0  0  0  0  0  0  0  0  0  0  0  0
   11.0590    4.7494   28.0598 C   0  0  0  0  0  0  0  0  0  0  0  0
   12.2635    5.1332   28.5984 C   0  0  0  0  0  0  0  0  0  0  0  0
   12.4332    6.3760   29.1178 F   0  0  0  0  0  0  0  0  0  0  0  0
   13.3816    4.3117   28.7073 C   0  0  0  0  0  0  0  0  0  0  0  0
   14.4861    4.7613   29.3281 F   0  0  0  0  0  0  0  0  0  0  0  0
   13.3767    3.0812   28.1617 C   0  0  0  0  0  0  0  0  0  0  0  0
   14.4459    2.2906   28.2128 F   0  0  0  0  0  0  0  0  0  0  0  0
   12.2280    2.6415   27.5346 C   0  0  0  0  0  0  0  0  0  0  0  0
   12.1925    1.4137   26.9757 F   0  0  0  0  0  0  0  0  0  0  0  0
   11.1108    3.4493   27.5038 C   0  0  0  0  0  0  0  0  0  0  0  0
    9.9925    2.9466   26.9274 F   0  0  0  0  0  0  0  0  0  0  0  0
    8.4695    4.6118   28.7695 C   0  0  0  0  0  0  0  0  0  0  0  0
    7.1413    4.5877   28.4028 C   0  0  0  0  0  0  0  0  0  0  0  0
    6.7157    5.4089   27.4219 F   0  0  0  0  0  0  0  0  0  0  0  0
    6.1862    3.7501   28.9372 C   0  0  0  0  0  0  0  0  0  0  0  0
    4.9308    3.7849   28.5046 F   0  0  0  0  0  0  0  0  0  0  0  0
    6.5331    2.9076   29.9318 C   0  0  0  0  0  0  0  0  0  0  0  0
    5.6296    2.0670   30.4808 F   0  0  0  0  0  0  0  0  0  0  0  0
    7.8215    2.8919   30.4070 C   0  0  0  0  0  0  0  0  0  0  0  0
    8.1954    2.0781   31.4103 F   0  0  0  0  0  0  0  0  0  0  0  0
    8.7547    3.7394   29.8292 C   0  0  0  0  0  0  0  0  0  0  0  0
    9.9936    3.6917   30.3590 F   0  0  0  0  0  0  0  0  0  0  0  0
   10.2428   14.7445   25.6990 P   0  0  0  0  0  0  0  0  0  0  0  0
   11.0478   13.7872   27.0376 C   0  0  0  0  0  0  0  0  0  0  0  0
   10.9380   12.8292   26.8626 H   0  0  0  0  0  0  0  0  0  0  0  0
   12.0078   13.9837   27.0446 H   0  0  0  0  0  0  0  0  0  0  0  0
   10.4527   14.1217   28.3968 C   0  0  0  0  0  0  0  0  0  0  0  0
   10.6231   13.3912   29.0289 H   0  0  0  0  0  0  0  0  0  0  0  0
   10.8579   14.9394   28.7524 H   0  0  0  0  0  0  0  0  0  0  0  0
    8.9650   14.3148   28.2149 C   0  0  0  0  0  0  0  0  0  0  0  0
    8.1409   14.2028   29.1328 O   0  0  0  0  0  0  0  0  0  0  0  0
   10.2056   13.6599   24.1935 C   0  0  0  0  0  0  0  0  0  0  0  0
    9.3226   13.7620   23.7830 H   0  0  0  0  0  0  0  0  0  0  0  0
   10.8601   14.0181   23.5590 H   0  0  0  0  0  0  0  0  0  0  0  0
   10.4779   12.1457   24.3262 C   0  0  0  0  0  0  0  0  0  0  0  0
    9.7137   11.7168   24.7664 H   0  0  0  0  0  0  0  0  0  0  0  0
   11.2668   12.0074   24.8889 H   0  0  0  0  0  0  0  0  0  0  0  0
   11.2174   16.2938   25.4684 C   0  0  0  0  0  0  0  0  0  0  0  0
   10.5712   17.5198   25.1349 C   0  0  0  0  0  0  0  0  0  0  0  0
   11.0601   18.6842   25.7256 C   0  0  0  0  0  0  0  0  0  0  0  0
   10.6247   19.4962   25.5328 H   0  0  0  0  0  0  0  0  0  0  0  0
   12.1342   18.7159   26.5641 C   0  0  0  0  0  0  0  0  0  0  0  0
   12.8984   17.5619   26.6226 C   0  0  0  0  0  0  0  0  0  0  0  0
   13.7124   17.5924   27.0901 H   0  0  0  0  0  0  0  0  0  0  0  0
   12.5312   16.3672   26.0301 C   0  0  0  0  0  0  0  0  0  0  0  0
    9.5342   17.7400   23.9951 C   0  0  0  0  0  0  0  0  0  0  0  0
    8.9987   16.4620   23.3799 C   0  0  0  0  0  0  0  0  0  0  0  0
    8.5236   15.9525   24.0560 H   0  0  0  0  0  0  0  0  0  0  0  0
    9.7378   15.9333   23.0376 H   0  0  0  0  0  0  0  0  0  0  0  0
    8.3937   16.6826   22.6527 H   0  0  0  0  0  0  0  0  0  0  0  0
   10.3113   18.4560   22.8885 C   0  0  0  0  0  0  0  0  0  0  0  0
   11.1015   17.9403   22.6632 H   0  0  0  0  0  0  0  0  0  0  0  0
   10.5766   19.3356   23.1986 H   0  0  0  0  0  0  0  0  0  0  0  0
    9.7471   18.5443   22.1032 H   0  0  0  0  0  0  0  0  0  0  0  0
    8.3252   18.5783   24.4157 C   0  0  0  0  0  0  0  0  0  0  0  0
    7.8003   18.8043   23.6325 H   0  0  0  0  0  0  0  0  0  0  0  0
    8.6305   19.3930   24.8469 H   0  0  0  0  0  0  0  0  0  0  0  0
    7.7790   18.0703   25.0359 H   0  0  0  0  0  0  0  0  0  0  0  0
   12.5657   19.9679   27.3386 C   0  0  0  0  0  0  0  0  0  0  0  0
   12.5783   19.6338   28.8434 C   0  0  0  0  0  0  0  0  0  0  0  0
   11.7019   19.3165   29.1129 H   0  0  0  0  0  0  0  0  0  0  0  0
   12.8045   20.4289   29.3508 H   0  0  0  0  0  0  0  0  0  0  0  0
   13.2375   18.9419   29.0149 H   0  0  0  0  0  0  0  0  0  0  0  0
   11.5883   21.1308   27.1216 C   0  0  0  0  0  0  0  0  0  0  0  0
   11.5705   21.3693   26.1837 H   0  0  0  0  0  0  0  0  0  0  0  0
   11.8771   21.8969   27.6465 H   0  0  0  0  0  0  0  0  0  0  0  0
   10.7007   20.8647   27.4051 H   0  0  0  0  0  0  0  0  0  0  0  0
   13.9567   20.4136   26.8836 C   0  0  0  0  0  0  0  0  0  0  0  0
   14.5987   19.7103   27.0796 H   0  0  0  0  0  0  0  0  0  0  0  0
   14.2077   21.2203   27.3596 H   0  0  0  0  0  0  0  0  0  0  0  0
   13.9464   20.5857   25.9318 H   0  0  0  0  0  0  0  0  0  0  0  0
   13.7382   15.4043   25.7743 C   0  0  0  0  0  0  0  0  0  0  0  0
   13.4388   14.1970   24.8714 C   0  0  0  0  0  0  0  0  0  0  0  0
   14.2722   13.7735   24.6089 H   0  0  0  0  0  0  0  0  0  0  0  0
   12.9656   14.4960   24.0805 H   0  0  0  0  0  0  0  0  0  0  0  0
   12.8908   13.5594   25.3543 H   0  0  0  0  0  0  0  0  0  0  0  0
   14.4463   14.9616   27.0695 C   0  0  0  0  0  0  0  0  0  0  0  0
   13.8193   14.4807   27.6325 H   0  0  0  0  0  0  0  0  0  0  0  0
   14.7747   15.7422   27.5416 H   0  0  0  0  0  0  0  0  0  0  0  0
   15.1910   14.3813   26.8486 H   0  0  0  0  0  0  0  0  0  0  0  0
   14.7500   16.2499   24.9375 C   0  0  0  0  0  0  0  0  0  0  0  0
   15.0647   16.9961   25.4698 H   0  0  0  0  0  0  0  0  0  0  0  0
   14.3100   16.5832   24.1400 H   0  0  0  0  0  0  0  0  0  0  0  0
   15.5035   15.6925   24.6824 H   0  0  0  0  0  0  0  0  0  0  0  0
    8.4384   14.8182   26.7597 B   0  0  0  0  0  0  0  0  0  0  0  0
    7.7471   16.2449   27.1227 C   0  0  0  0  0  0  0  0  0  0  0  0
    6.3901   16.5519   27.1402 C   0  0  0  0  0  0  0  0  0  0  0  0
    5.4585   15.6336   26.8374 F   0  0  0  0  0  0  0  0  0  0  0  0
    5.8854   17.7648   27.5559 C   0  0  0  0  0  0  0  0  0  0  0  0
    4.5580   17.9820   27.5370 F   0  0  0  0  0  0  0  0  0  0  0  0
    6.7153   18.7553   28.0255 C   0  0  0  0  0  0  0  0  0  0  0  0
    6.2353   19.9209   28.4311 F   0  0  0  0  0  0  0  0  0  0  0  0
    8.0634   18.4797   28.0882 C   0  0  0  0  0  0  0  0  0  0  0  0
    8.8981   19.3937   28.6051 F   0  0  0  0  0  0  0  0  0  0  0  0
    8.5288   17.2656   27.6738 C   0  0  0  0  0  0  0  0  0  0  0  0
    9.8404   17.0133   27.9283 F   0  0  0  0  0  0  0  0  0  0  0  0
    7.4691   13.6668   26.1158 C   0  0  0  0  0  0  0  0  0  0  0  0
    6.4865   13.9042   25.1779 C   0  0  0  0  0  0  0  0  0  0  0  0
    6.4120   15.1000   24.5536 F   0  0  0  0  0  0  0  0  0  0  0  0
    5.5184   13.0020   24.8245 C   0  0  0  0  0  0  0  0  0  0  0  0
    4.5527   13.3327   23.9374 F   0  0  0  0  0  0  0  0  0  0  0  0
    5.5269   11.7348   25.3589 C   0  0  0  0  0  0  0  0  0  0  0  0
    4.6040   10.8200   25.0478 F   0  0  0  0  0  0  0  0  0  0  0  0
    6.5529   11.4068   26.2173 C   0  0  0  0  0  0  0  0  0  0  0  0
    6.6452   10.1567   26.7363 F   0  0  0  0  0  0  0  0  0  0  0  0
    7.4842   12.3487   26.5778 C   0  0  0  0  0  0  0  0  0  0  0  0
    8.4747   11.9473   27.4096 F   0  0  0  0  0  0  0  0  0  0  0  0
    8.3008   13.7674   30.6905 B   0  0  0  0  0  0  0  0  0  0  0  0
    9.4242   14.7957   31.2308 C   0  0  0  0  0  0  0  0  0  0  0  0
   10.6692   14.4818   31.7764 C   0  0  0  0  0  0  0  0  0  0  0  0
   10.9929   13.1878   31.9440 F   0  0  0  0  0  0  0  0  0  0  0  0
   11.6350   15.4150   32.1004 C   0  0  0  0  0  0  0  0  0  0  0  0
   12.8252   15.0335   32.5578 F   0  0  0  0  0  0  0  0  0  0  0  0
   11.3604   16.7545   31.9545 C   0  0  0  0  0  0  0  0  0  0  0  0
   12.2907   17.6639   32.2471 F   0  0  0  0  0  0  0  0  0  0  0  0
   10.1261   17.1176   31.4684 C   0  0  0  0  0  0  0  0  0  0  0  0
    9.8477   18.4269   31.3333 F   0  0  0  0  0  0  0  0  0  0  0  0
    9.2096   16.1711   31.1192 C   0  0  0  0  0  0  0  0  0  0  0  0
    8.0455   16.6081   30.6156 F   0  0  0  0  0  0  0  0  0  0  0  0
    6.8557   14.0621   31.3830 C   0  0  0  0  0  0  0  0  0  0  0  0
    6.7584   14.2452   32.7370 C   0  0  0  0  0  0  0  0  0  0  0  0
    7.8771   14.1607   33.5024 F   0  0  0  0  0  0  0  0  0  0  0  0
    5.5839   14.4994   33.4033 C   0  0  0  0  0  0  0  0  0  0  0  0
    5.5740   14.6707   34.7366 F   0  0  0  0  0  0  0  0  0  0  0  0
    4.4269   14.5659   32.6894 C   0  0  0  0  0  0  0  0  0  0  0  0
    3.2625   14.8091   33.3071 F   0  0  0  0  0  0  0  0  0  0  0  0
    4.4431   14.3381   31.3351 C   0  0  0  0  0  0  0  0  0  0  0  0
    3.2935   14.3824   30.6166 F   0  0  0  0  0  0  0  0  0  0  0  0
    5.6383   14.0843   30.7174 C   0  0  0  0  0  0  0  0  0  0  0  0
    5.5707   13.8301   29.3932 F   0  0  0  0  0  0  0  0  0  0  0  0
    9.0582    6.4693   23.8835 P   0  0  0  0  0  0  0  0  0  0  0  0
    8.2202    8.0684   24.2600 C   0  0  0  0  0  0  0  0  0  0  0  0
    7.6325    8.3107   23.5136 H   0  0  0  0  0  0  0  0  0  0  0  0
    7.6646    7.9629   25.0604 H   0  0  0  0  0  0  0  0  0  0  0  0
    9.2222    9.1689   24.4864 C   0  0  0  0  0  0  0  0  0  0  0  0
    8.8125   10.0386   24.2905 H   0  0  0  0  0  0  0  0  0  0  0  0
    9.5103    9.1708   25.4243 H   0  0  0  0  0  0  0  0  0  0  0  0
   10.4014    8.9495   23.5933 C   0  0  0  0  0  0  0  0  0  0  0  0
   10.9783    9.8651   22.9771 O   0  0  0  0  0  0  0  0  0  0  0  0
    9.2434    5.5377   25.4709 C   0  0  0  0  0  0  0  0  0  0  0  0
    8.4735    4.9390   25.5643 H   0  0  0  0  0  0  0  0  0  0  0  0
   10.0439    4.9773   25.4033 H   0  0  0  0  0  0  0  0  0  0  0  0
    9.3542    6.3829   26.7454 C   0  0  0  0  0  0  0  0  0  0  0  0
    8.5203    6.8886   26.8521 H   0  0  0  0  0  0  0  0  0  0  0  0
   10.0763    7.0339   26.6212 H   0  0  0  0  0  0  0  0  0  0  0  0
    7.9701    5.7839   22.5484 C   0  0  0  0  0  0  0  0  0  0  0  0
    8.5136    5.0625   21.4460 C   0  0  0  0  0  0  0  0  0  0  0  0
    8.0317    5.3481   20.1638 C   0  0  0  0  0  0  0  0  0  0  0  0
    8.4333    4.9161   19.4331 H   0  0  0  0  0  0  0  0  0  0  0  0
    6.9954    6.2319   19.9153 C   0  0  0  0  0  0  0  0  0  0  0  0
    6.2810    6.6448   21.0334 C   0  0  0  0  0  0  0  0  0  0  0  0
    5.4912    7.1371   20.9029 H   0  0  0  0  0  0  0  0  0  0  0  0
    6.6743    6.3665   22.3398 C   0  0  0  0  0  0  0  0  0  0  0  0
    6.5275    6.6444   18.5253 C   0  0  0  0  0  0  0  0  0  0  0  0
    5.1151    6.0744   18.2740 C   0  0  0  0  0  0  0  0  0  0  0  0
    4.4878    6.4834   18.8906 H   0  0  0  0  0  0  0  0  0  0  0  0
    5.1243    5.1149   18.4077 H   0  0  0  0  0  0  0  0  0  0  0  0
    4.8452    6.2694   17.3648 H   0  0  0  0  0  0  0  0  0  0  0  0
    7.4569    6.0958   17.4257 C   0  0  0  0  0  0  0  0  0  0  0  0
    7.1648    6.4261   16.5599 H   0  0  0  0  0  0  0  0  0  0  0  0
    7.4250    5.1263   17.4278 H   0  0  0  0  0  0  0  0  0  0  0  0
    8.3657    6.3879   17.5958 H   0  0  0  0  0  0  0  0  0  0  0  0
    6.5020    8.1750   18.4539 C   0  0  0  0  0  0  0  0  0  0  0  0
    7.3848    8.5210   18.6562 H   0  0  0  0  0  0  0  0  0  0  0  0
    5.8635    8.5172   19.0971 H   0  0  0  0  0  0  0  0  0  0  0  0
    6.2419    8.4522   17.5608 H   0  0  0  0  0  0  0  0  0  0  0  0
    9.4289    3.8193   21.5500 C   0  0  0  0  0  0  0  0  0  0  0  0
   10.7234    3.9363   20.7234 C   0  0  0  0  0  0  0  0  0  0  0  0
   11.2111    3.1003   20.7664 H   0  0  0  0  0  0  0  0  0  0  0  0
   11.2724    4.6485   21.0814 H   0  0  0  0  0  0  0  0  0  0  0  0
   10.5003    4.1324   19.8005 H   0  0  0  0  0  0  0  0  0  0  0  0
    8.6092    2.6392   20.9953 C   0  0  0  0  0  0  0  0  0  0  0  0
    8.4636    2.7639   20.0455 H   0  0  0  0  0  0  0  0  0  0  0  0
    7.7540    2.5957   21.4523 H   0  0  0  0  0  0  0  0  0  0  0  0
    9.0952    1.8120   21.1409 H   0  0  0  0  0  0  0  0  0  0  0  0
    9.7651    3.4787   22.9939 C   0  0  0  0  0  0  0  0  0  0  0  0
   10.3463    2.7027   23.0166 H   0  0  0  0  0  0  0  0  0  0  0  0
    8.9466    3.2838   23.4786 H   0  0  0  0  0  0  0  0  0  0  0  0
   10.2142    4.2318   23.4086 H   0  0  0  0  0  0  0  0  0  0  0  0
    5.5190    6.4379   23.3673 C   0  0  0  0  0  0  0  0  0  0  0  0
    4.4571    5.4299   22.8367 C   0  0  0  0  0  0  0  0  0  0  0  0
    3.7227    5.3710   23.4681 H   0  0  0  0  0  0  0  0  0  0  0  0
    4.8644    4.5568   22.7332 H   0  0  0  0  0  0  0  0  0  0  0  0
    4.1231    5.7342   21.9772 H   0  0  0  0  0  0  0  0  0  0  0  0
    5.8689    5.9165   24.7636 C   0  0  0  0  0  0  0  0  0  0  0  0
    6.4458    6.5561   25.2108 H   0  0  0  0  0  0  0  0  0  0  0  0
    6.3266    5.0652   24.6859 H   0  0  0  0  0  0  0  0  0  0  0  0
    5.0553    5.7992   25.2773 H   0  0  0  0  0  0  0  0  0  0  0  0
    4.8756    7.8386   23.4912 C   0  0  0  0  0  0  0  0  0  0  0  0
    5.5254    8.4636   23.8495 H   0  0  0  0  0  0  0  0  0  0  0  0
    4.1095    7.7908   24.0840 H   0  0  0  0  0  0  0  0  0  0  0  0
    4.5872    8.1387   22.6142 H   0  0  0  0  0  0  0  0  0  0  0  0
   10.8831    7.3971   23.3729 B   0  0  0  0  0  0  0  0  0  0  0  0
   12.0334    6.9831   24.4539 C   0  0  0  0  0  0  0  0  0  0  0  0
   12.3472    4.8125   23.5961 F   0  0  0  0  0  0  0  0  0  0  0  0
   12.6933    5.7728   24.4808 C   0  0  0  0  0  0  0  0  0  0  0  0
   14.3392    4.2639   25.2584 F   0  0  0  0  0  0  0  0  0  0  0  0
   13.7551    5.4543   25.3246 C   0  0  0  0  0  0  0  0  0  0  0  0
   15.2605    6.1501   26.9676 F   0  0  0  0  0  0  0  0  0  0  0  0
   14.2170    6.3917   26.1736 C   0  0  0  0  0  0  0  0  0  0  0  0
   13.6083    7.6264   26.2159 C   0  0  0  0  0  0  0  0  0  0  0  0
   14.0382    8.5676   27.0800 F   0  0  0  0  0  0  0  0  0  0  0  0
   11.9867    9.1097   25.5052 F   0  0  0  0  0  0  0  0  0  0  0  0
   12.5379    7.8719   25.3802 C   0  0  0  0  0  0  0  0  0  0  0  0
   11.3586    7.2732   21.8173 C   0  0  0  0  0  0  0  0  0  0  0  0
   13.6420    6.6960   22.1655 F   0  0  0  0  0  0  0  0  0  0  0  0
   12.6171    6.9869   21.3312 C   0  0  0  0  0  0  0  0  0  0  0  0
   14.1900    6.6551   19.5944 F   0  0  0  0  0  0  0  0  0  0  0  0
   12.9454    6.9559   19.9895 C   0  0  0  0  0  0  0  0  0  0  0  0
   12.3069    7.3176   17.7463 F   0  0  0  0  0  0  0  0  0  0  0  0
   12.0058    7.2874   19.0604 C   0  0  0  0  0  0  0  0  0  0  0  0
    9.8594    8.1085   18.5872 F   0  0  0  0  0  0  0  0  0  0  0  0
   10.7501    7.6735   19.4747 C   0  0  0  0  0  0  0  0  0  0  0  0
    9.2536    8.1161   21.1860 F   0  0  0  0  0  0  0  0  0  0  0  0
   10.4783    7.6517   20.8182 C   0  0  0  0  0  0  0  0  0  0  0  0
   10.7257   11.4443   22.8605 B   0  0  0  0  0  0  0  0  0  0  0  0
    9.5066   11.4932   21.7435 C   0  0  0  0  0  0  0  0  0  0  0  0
   10.9701   10.8108   20.0094 F   0  0  0  0  0  0  0  0  0  0  0  0
    9.7403   11.1954   20.4052 C   0  0  0  0  0  0  0  0  0  0  0  0
    9.1031   10.9691   18.1393 F   0  0  0  0  0  0  0  0  0  0  0  0
    8.7985   11.2596   19.4159 C   0  0  0  0  0  0  0  0  0  0  0  0
    6.5668   11.6553   18.7793 F   0  0  0  0  0  0  0  0  0  0  0  0
    7.5150   11.5888   19.7316 C   0  0  0  0  0  0  0  0  0  0  0  0
    5.9487   12.1599   21.3813 F   0  0  0  0  0  0  0  0  0  0  0  0
    7.1967   11.8487   21.0331 C   0  0  0  0  0  0  0  0  0  0  0  0
    7.7885   12.0311   23.2626 F   0  0  0  0  0  0  0  0  0  0  0  0
    8.1817   11.7826   21.9951 C   0  0  0  0  0  0  0  0  0  0  0  0
   12.1236   12.0108   22.2474 C   0  0  0  0  0  0  0  0  0  0  0  0
   13.4672   10.3353   23.2798 F   0  0  0  0  0  0  0  0  0  0  0  0
   13.3713   11.4332   22.5022 C   0  0  0  0  0  0  0  0  0  0  0  0
   15.7042   11.2459   22.2436 F   0  0  0  0  0  0  0  0  0  0  0  0
   14.5573   11.8988   22.0035 C   0  0  0  0  0  0  0  0  0  0  0  0
   15.7221   13.5323   20.7713 F   0  0  0  0  0  0  0  0  0  0  0  0
   14.5657   13.0483   21.2504 C   0  0  0  0  0  0  0  0  0  0  0  0
   13.3633   14.8010   20.2509 F   0  0  0  0  0  0  0  0  0  0  0  0
   13.3907   13.6729   20.9785 C   0  0  0  0  0  0  0  0  0  0  0  0
   11.0643   13.8232   21.1521 F   0  0  0  0  0  0  0  0  0  0  0  0
   12.2060   13.1469   21.4628 C   0  0  0  0  0  0  0  0  0  0  0  0
  1  2  1  0  0  0  0
  2  3  1  0  0  0  0
  4  2  1  0  0  0  0
  5  2  1  0  0  0  0
  6  5  1  0  0  0  0
  7  5  1  0  0  0  0
  8  5  1  0  0  0  0
  9  8  1  0  0  0  0
 10  1  1  0  0  0  0
 11 10  1  0  0  0  0
 12 10  1  0  0  0  0
 13 10  1  0  0  0  0
 14 13  1  0  0  0  0
 15 13  1  0  0  0  0
 16  1  1  0  0  0  0
 17 16  4  0  0  0  0
 18 17  4  0  0  0  0
 19 18  1  0  0  0  0
 20 18  4  0  0  0  0
 21 20  4  0  0  0  0
 22 21  1  0  0  0  0
 23 16  4  0  0  0  0
 24 17  1  0  0  0  0
 25 24  1  0  0  0  0
 26 25  1  0  0  0  0
 27 25  1  0  0  0  0
 28 25  1  0  0  0  0
 29 24  1  0  0  0  0
 30 29  1  0  0  0  0
 31 29  1  0  0  0  0
 32 29  1  0  0  0  0
 33 24  1  0  0  0  0
 34 33  1  0  0  0  0
 35 33  1  0  0  0  0
 36 33  1  0  0  0  0
 37 20  1  0  0  0  0
 38 37  1  0  0  0  0
 39 38  1  0  0  0  0
 40 38  1  0  0  0  0
 41 38  1  0  0  0  0
 42 37  1  0  0  0  0
 43 42  1  0  0  0  0
 44 42  1  0  0  0  0
 45 42  1  0  0  0  0
 46 37  1  0  0  0  0
 47 46  1  0  0  0  0
 48 46  1  0  0  0  0
 49 46  1  0  0  0  0
 50 23  1  0  0  0  0
 51 50  1  0  0  0  0
 52 51  1  0  0  0  0
 53 51  1  0  0  0  0
 54 51  1  0  0  0  0
 55 50  1  0  0  0  0
 56 55  1  0  0  0  0
 57 55  1  0  0  0  0
 58 55  1  0  0  0  0
 59 50  1  0  0  0  0
 60 59  1  0  0  0  0
 61 59  1  0  0  0  0
 62 59  1  0  0  0  0
 63  1  1  0  0  0  0
 64 63  1  0  0  0  0
 65 64  4  0  0  0  0
 66 65  1  0  0  0  0
 67 65  4  0  0  0  0
 68 67  1  0  0  0  0
 69 67  4  0  0  0  0
 70 69  1  0  0  0  0
 71 69  4  0  0  0  0
 72 71  1  0  0  0  0
 73 64  4  0  0  0  0
 74 73  1  0  0  0  0
 75 63  1  0  0  0  0
 76 75  4  0  0  0  0
 77 76  1  0  0  0  0
 78 76  4  0  0  0  0
 79 78  1  0  0  0  0
 80 78  4  0  0  0  0
 81 80  1  0  0  0  0
 82 80  4  0  0  0  0
 83 82  1  0  0  0  0
 84 75  4  0  0  0  0
 85 84  1  0  0  0  0
 86  9  1  0  0  0  0
 87 86  1  0  0  0  0
 88 87  4  0  0  0  0
 89 88  1  0  0  0  0
 90 88  4  0  0  0  0
 91 90  1  0  0  0  0
 92 90  4  0  0  0  0
 93 92  1  0  0  0  0
 94 92  4  0  0  0  0
 95 94  1  0  0  0  0
 96 87  4  0  0  0  0
 97 96  1  0  0  0  0
 98 86  1  0  0  0  0
 99 98  4  0  0  0  0
100 99  1  0  0  0  0
101 99  4  0  0  0  0
102101  1  0  0  0  0
103101  4  0  0  0  0
104103  1  0  0  0  0
105103  4  0  0  0  0
106105  1  0  0  0  0
107 98  4  0  0  0  0
108107  1  0  0  0  0
109110  1  0  0  0  0
110111  1  0  0  0  0
112110  1  0  0  0  0
113110  1  0  0  0  0
114113  1  0  0  0  0
115113  1  0  0  0  0
116113  1  0  0  0  0
117116  1  0  0  0  0
118109  1  0  0  0  0
119118  1  0  0  0  0
120118  1  0  0  0  0
121118  1  0  0  0  0
122121  1  0  0  0  0
123121  1  0  0  0  0
124109  1  0  0  0  0
125124  4  0  0  0  0
126125  4  0  0  0  0
127126  1  0  0  0  0
128126  4  0  0  0  0
129128  4  0  0  0  0
130129  1  0  0  0  0
131124  4  0  0  0  0
132125  1  0  0  0  0
133132  1  0  0  0  0
134133  1  0  0  0  0
135133  1  0  0  0  0
136133  1  0  0  0  0
137132  1  0  0  0  0
138137  1  0  0  0  0
139137  1  0  0  0  0
140137  1  0  0  0  0
141132  1  0  0  0  0
142141  1  0  0  0  0
143141  1  0  0  0  0
144141  1  0  0  0  0
145128  1  0  0  0  0
146145  1  0  0  0  0
147146  1  0  0  0  0
148146  1  0  0  0  0
149146  1  0  0  0  0
150145  1  0  0  0  0
151150  1  0  0  0  0
152150  1  0  0  0  0
153150  1  0  0  0  0
154145  1  0  0  0  0
155154  1  0  0  0  0
156154  1  0  0  0  0
157154  1  0  0  0  0
158131  1  0  0  0  0
159158  1  0  0  0  0
160159  1  0  0  0  0
161159  1  0  0  0  0
162159  1  0  0  0  0
163158  1  0  0  0  0
164163  1  0  0  0  0
165163  1  0  0  0  0
166163  1  0  0  0  0
167158  1  0  0  0  0
168167  1  0  0  0  0
169167  1  0  0  0  0
170167  1  0  0  0  0
171109  1  0  0  0  0
172171  1  0  0  0  0
173172  4  0  0  0  0
174173  1  0  0  0  0
175173  4  0  0  0  0
176175  1  0  0  0  0
177175  4  0  0  0  0
178177  1  0  0  0  0
179177  4  0  0  0  0
180179  1  0  0  0  0
181172  4  0  0  0  0
182181  1  0  0  0  0
183171  1  0  0  0  0
184183  4  0  0  0  0
185184  1  0  0  0  0
186184  4  0  0  0  0
187186  1  0  0  0  0
188186  4  0  0  0  0
189188  1  0  0  0  0
190188  4  0  0  0  0
191190  1  0  0  0  0
192183  4  0  0  0  0
193192  1  0  0  0  0
194 13  1  0  0  0  0
195194  1  0  0  0  0
196195  4  0  0  0  0
197196  1  0  0  0  0
198196  4  0  0  0  0
199198  1  0  0  0  0
200198  4  0  0  0  0
201200  1  0  0  0  0
202200  4  0  0  0  0
203202  1  0  0  0  0
204195  4  0  0  0  0
205204  1  0  0  0  0
206194  1  0  0  0  0
207206  4  0  0  0  0
208207  1  0  0  0  0
209207  4  0  0  0  0
210209  1  0  0  0  0
211209  4  0  0  0  0
212211  1  0  0  0  0
213211  4  0  0  0  0
214213  1  0  0  0  0
215206  4  0  0  0  0
216215  1  0  0  0  0
217218  1  0  0  0  0
218219  1  0  0  0  0
220218  1  0  0  0  0
221218  1  0  0  0  0
222221  1  0  0  0  0
223221  1  0  0  0  0
224221  1  0  0  0  0
225224  1  0  0  0  0
226217  1  0  0  0  0
227226  1  0  0  0  0
228226  1  0  0  0  0
229 86  1  0  0  0  0
230229  1  0  0  0  0
231229  1  0  0  0  0
232217  1  0  0  0  0
233232  4  0  0  0  0
234233  4  0  0  0  0
235234  1  0  0  0  0
236234  4  0  0  0  0
237236  4  0  0  0  0
238237  1  0  0  0  0
239232  4  0  0  0  0
240236  1  0  0  0  0
241240  1  0  0  0  0
242241  1  0  0  0  0
243241  1  0  0  0  0
244241  1  0  0  0  0
245240  1  0  0  0  0
246245  1  0  0  0  0
247245  1  0  0  0  0
248245  1  0  0  0  0
249240  1  0  0  0  0
250249  1  0  0  0  0
251249  1  0  0  0  0
252249  1  0  0  0  0
253233  1  0  0  0  0
254253  1  0  0  0  0
255254  1  0  0  0  0
256254  1  0  0  0  0
257254  1  0  0  0  0
258253  1  0  0  0  0
259258  1  0  0  0  0
260258  1  0  0  0  0
261258  1  0  0  0  0
262253  1  0  0  0  0
263262  1  0  0  0  0
264262  1  0  0  0  0
265262  1  0  0  0  0
266239  1  0  0  0  0
267266  1  0  0  0  0
268267  1  0  0  0  0
269267  1  0  0  0  0
270267  1  0  0  0  0
271266  1  0  0  0  0
272271  1  0  0  0  0
273271  1  0  0  0  0
274271  1  0  0  0  0
275266  1  0  0  0  0
276275  1  0  0  0  0
277275  1  0  0  0  0
278275  1  0  0  0  0
279217  1  0  0  0  0
280279  1  0  0  0  0
281282  1  0  0  0  0
282280  4  0  0  0  0
283284  1  0  0  0  0
284282  4  0  0  0  0
285286  1  0  0  0  0
286284  4  0  0  0  0
287286  4  0  0  0  0
288287  1  0  0  0  0
289290  1  0  0  0  0
290280  4  0  0  0  0
291279  1  0  0  0  0
292293  1  0  0  0  0
293291  4  0  0  0  0
294295  1  0  0  0  0
295293  4  0  0  0  0
296297  1  0  0  0  0
297295  4  0  0  0  0
298299  1  0  0  0  0
299297  4  0  0  0  0
300301  1  0  0  0  0
301291  4  0  0  0  0
302121  1  0  0  0  0
303302  1  0  0  0  0
304305  1  0  0  0  0
305303  4  0  0  0  0
306307  1  0  0  0  0
307305  4  0  0  0  0
308309  1  0  0  0  0
309307  4  0  0  0  0
310311  1  0  0  0  0
311309  4  0  0  0  0
312313  1  0  0  0  0
313303  4  0  0  0  0
314302  1  0  0  0  0
315316  1  0  0  0  0
316314  4  0  0  0  0
317318  1  0  0  0  0
318316  4  0  0  0  0
319320  1  0  0  0  0
320318  4  0  0  0  0
321322  1  0  0  0  0
322320  4  0  0  0  0
323324  1  0  0  0  0
324314  4  0  0  0  0
  8 63  1  0  0  0  0
 21 23  4  0  0  0  0
 71 73  4  0  0  0  0
 82 84  4  0  0  0  0
 94 96  4  0  0  0  0
105107  4  0  0  0  0
116171  1  0  0  0  0
117194  1  0  0  0  0
129131  4  0  0  0  0
179181  4  0  0  0  0
190192  4  0  0  0  0
202204  4  0  0  0  0
213215  4  0  0  0  0
224279  1  0  0  0  0
225302  1  0  0  0  0
226229  1  0  0  0  0
237239  4  0  0  0  0
287290  4  0  0  0  0
299301  4  0  0  0  0
311313  4  0  0  0  0
322324  4  0  0  0  0
M  END
$$$$
MEQDEU

From CSD data. Using bond type 'Any'. No disordered atoms. Largest molecule.
157202  0  0  0  0  0  0  0  0999 V2000
   -1.2147    7.7597   -6.2018 C   0  0  0  0  0  0  0  0  0  0  0  0
   -0.7378    8.4440   -6.6970 H   0  0  0  0  0  0  0  0  0  0  0  0
   -0.7205    7.5679   -5.3903 H   0  0  0  0  0  0  0  0  0  0  0  0
   -2.5520    8.2314   -5.8686 C   0  0  0  0  0  0  0  0  0  0  0  0
   -2.6315    8.3576   -4.9102 H   0  0  0  0  0  0  0  0  0  0  0  0
   -2.7265    9.0798   -6.3072 H   0  0  0  0  0  0  0  0  0  0  0  0
   -3.4574    7.2828   -6.2978 C   0  0  0  0  0  0  0  0  0  0  0  0
   -4.2920    7.6854   -6.5821 H   0  0  0  0  0  0  0  0  0  0  0  0
   -3.6354    6.6211   -5.6125 H   0  0  0  0  0  0  0  0  0  0  0  0
   -2.6851    6.6816   -7.4821 C   0  0  0  0  0  0  0  0  0  0  0  0
   -3.0134    5.7969   -7.7043 H   0  0  0  0  0  0  0  0  0  0  0  0
   -2.7421    7.2500   -8.2653 H   0  0  0  0  0  0  0  0  0  0  0  0
    2.1614    7.2714    2.3764 C   0  0  0  0  0  0  0  0  0  0  0  0
    2.9529    7.8029    2.4796 H   0  0  0  0  0  0  0  0  0  0  0  0
    2.1667    6.5606    3.0218 H   0  0  0  0  0  0  0  0  0  0  0  0
    1.3857    7.8219    2.5116 H   0  0  0  0  0  0  0  0  0  0  0  0
    2.1330    7.8421   -0.0350 C   0  0  0  0  0  0  0  0  0  0  0  0
    2.0786    7.4954   -0.9282 H   0  0  0  0  0  0  0  0  0  0  0  0
    2.9442    8.3455    0.0640 H   0  0  0  0  0  0  0  0  0  0  0  0
    1.3805    8.4129    0.1318 H   0  0  0  0  0  0  0  0  0  0  0  0
    0.7084    5.6500   -4.6316 H   0  0  0  0  0  0  0  0  0  0  0  0
    2.1263    6.6783    0.9674 C   0  0  0  0  0  0  0  0  0  0  0  0
    3.3567    5.7829    0.7812 C   0  0  0  0  0  0  0  0  0  0  0  0
    3.3347    5.3874   -0.0941 H   0  0  0  0  0  0  0  0  0  0  0  0
    3.3520    5.0902    1.4460 H   0  0  0  0  0  0  0  0  0  0  0  0
    4.1537    6.3101    0.8736 H   0  0  0  0  0  0  0  0  0  0  0  0
    0.3855    5.0664   -0.9050 C   0  0  0  0  0  0  0  0  0  0  0  0
    1.4514    5.1801   -2.2512 B   0  0  0  0  0  0  0  0  0  0  0  0
    2.3982    5.7399   -2.2367 H   0  0  0  0  0  0  0  0  0  0  0  0
    0.4147    5.1058   -3.6887 B   0  0  0  0  0  0  0  0  0  0  0  0
    1.2703    3.6625   -1.3674 B   0  0  0  0  0  0  0  0  0  0  0  0
    2.0907    3.2380   -0.7719 H   0  0  0  0  0  0  0  0  0  0  0  0
    1.2769    3.6578   -3.1425 B   0  0  0  0  0  0  0  0  0  0  0  0
    2.1062    3.2259   -3.7203 H   0  0  0  0  0  0  0  0  0  0  0  0
   -0.1158    6.0042   -2.2589 B   0  0  0  0  0  0  0  0  0  0  0  0
   -0.1901    7.1014   -2.2537 H   0  0  0  0  0  0  0  0  0  0  0  0
    0.4705    5.7696    0.8463 P   0  0  0  0  0  0  0  0  0  0  0  0
    0.0000    4.3196    2.3535 Co  0  0  0  0  0  0  0  0  0  0  0  0
   -0.0000    4.3196   -7.0603 K   0  0  0  0  0  0  0  0  0  0  0  0
   -1.3204    6.6273   -6.9613 O   0  0  0  0  0  0  0  0  0  0  0  0
   -2.1614    1.3678    2.3764 C   0  0  0  0  0  0  0  0  0  0  0  0
   -2.9529    0.8363    2.4796 H   0  0  0  0  0  0  0  0  0  0  0  0
   -2.1667    2.0786    3.0218 H   0  0  0  0  0  0  0  0  0  0  0  0
   -1.3857    0.8173    2.5116 H   0  0  0  0  0  0  0  0  0  0  0  0
   -2.1330    0.7971   -0.0350 C   0  0  0  0  0  0  0  0  0  0  0  0
   -2.0786    1.1438   -0.9282 H   0  0  0  0  0  0  0  0  0  0  0  0
   -2.9442    0.2937    0.0640 H   0  0  0  0  0  0  0  0  0  0  0  0
   -1.3805    0.2263    0.1318 H   0  0  0  0  0  0  0  0  0  0  0  0
   -0.7084    2.9892   -4.6316 H   0  0  0  0  0  0  0  0  0  0  0  0
   -2.1263    1.9609    0.9674 C   0  0  0  0  0  0  0  0  0  0  0  0
   -3.3567    2.8563    0.7812 C   0  0  0  0  0  0  0  0  0  0  0  0
   -3.3347    3.2518   -0.0941 H   0  0  0  0  0  0  0  0  0  0  0  0
   -3.3520    3.5490    1.4460 H   0  0  0  0  0  0  0  0  0  0  0  0
   -4.1537    2.3291    0.8736 H   0  0  0  0  0  0  0  0  0  0  0  0
   -0.3855    3.5728   -0.9050 C   0  0  0  0  0  0  0  0  0  0  0  0
   -1.4514    3.4591   -2.2512 B   0  0  0  0  0  0  0  0  0  0  0  0
   -2.3982    2.8993   -2.2367 H   0  0  0  0  0  0  0  0  0  0  0  0
   -0.4147    3.5334   -3.6887 B   0  0  0  0  0  0  0  0  0  0  0  0
   -1.2703    4.9767   -1.3674 B   0  0  0  0  0  0  0  0  0  0  0  0
   -2.0907    5.4012   -0.7719 H   0  0  0  0  0  0  0  0  0  0  0  0
   -1.2769    4.9814   -3.1425 B   0  0  0  0  0  0  0  0  0  0  0  0
   -2.1062    5.4133   -3.7203 H   0  0  0  0  0  0  0  0  0  0  0  0
    0.1158    2.6350   -2.2589 B   0  0  0  0  0  0  0  0  0  0  0  0
    0.1901    1.5378   -2.2537 H   0  0  0  0  0  0  0  0  0  0  0  0
   -0.4705    2.8696    0.8463 P   0  0  0  0  0  0  0  0  0  0  0  0
    1.2147    0.8795   -6.2018 C   0  0  0  0  0  0  0  0  0  0  0  0
    0.7378    0.1952   -6.6970 H   0  0  0  0  0  0  0  0  0  0  0  0
    0.7205    1.0713   -5.3903 H   0  0  0  0  0  0  0  0  0  0  0  0
    2.5520    0.4078   -5.8686 C   0  0  0  0  0  0  0  0  0  0  0  0
    2.6315    0.2816   -4.9102 H   0  0  0  0  0  0  0  0  0  0  0  0
    2.7265   -0.4406   -6.3072 H   0  0  0  0  0  0  0  0  0  0  0  0
    3.4574    1.3564   -6.2978 C   0  0  0  0  0  0  0  0  0  0  0  0
    4.2920    0.9538   -6.5821 H   0  0  0  0  0  0  0  0  0  0  0  0
    3.6354    2.0181   -5.6125 H   0  0  0  0  0  0  0  0  0  0  0  0
    2.6851    1.9576   -7.4821 C   0  0  0  0  0  0  0  0  0  0  0  0
    3.0134    2.8423   -7.7043 H   0  0  0  0  0  0  0  0  0  0  0  0
    2.7421    1.3892   -8.2653 H   0  0  0  0  0  0  0  0  0  0  0  0
    1.3204    2.0119   -6.9613 O   0  0  0  0  0  0  0  0  0  0  0  0
   -3.4401    3.1049   -7.9189 C   0  0  0  0  0  0  0  0  0  0  0  0
   -4.1244    3.5818   -7.4237 H   0  0  0  0  0  0  0  0  0  0  0  0
   -3.2483    3.5991   -8.7304 H   0  0  0  0  0  0  0  0  0  0  0  0
   -3.9118    1.7676   -8.2521 C   0  0  0  0  0  0  0  0  0  0  0  0
   -4.0380    1.6881   -9.2105 H   0  0  0  0  0  0  0  0  0  0  0  0
   -4.7602    1.5931   -7.8135 H   0  0  0  0  0  0  0  0  0  0  0  0
   -2.9632    0.8622   -7.8229 C   0  0  0  0  0  0  0  0  0  0  0  0
   -3.3658    0.0276   -7.5386 H   0  0  0  0  0  0  0  0  0  0  0  0
   -2.3015    0.6842   -8.5082 H   0  0  0  0  0  0  0  0  0  0  0  0
   -2.3620    1.6345   -6.6386 C   0  0  0  0  0  0  0  0  0  0  0  0
   -1.4773    1.3062   -6.4164 H   0  0  0  0  0  0  0  0  0  0  0  0
   -2.9304    1.5775   -5.8554 H   0  0  0  0  0  0  0  0  0  0  0  0
   -2.9518    6.4810  -16.4971 C   0  0  0  0  0  0  0  0  0  0  0  0
   -3.4833    7.2725  -16.6003 H   0  0  0  0  0  0  0  0  0  0  0  0
   -2.2410    6.4863  -17.1425 H   0  0  0  0  0  0  0  0  0  0  0  0
   -3.5023    5.7053  -16.6323 H   0  0  0  0  0  0  0  0  0  0  0  0
   -3.5225    6.4526  -14.0857 C   0  0  0  0  0  0  0  0  0  0  0  0
   -3.1758    6.3982  -13.1925 H   0  0  0  0  0  0  0  0  0  0  0  0
   -4.0259    7.2638  -14.1847 H   0  0  0  0  0  0  0  0  0  0  0  0
   -4.0933    5.7001  -14.2525 H   0  0  0  0  0  0  0  0  0  0  0  0
   -1.3304    5.0280   -9.4891 H   0  0  0  0  0  0  0  0  0  0  0  0
   -2.3587    6.4459  -15.0881 C   0  0  0  0  0  0  0  0  0  0  0  0
   -1.4633    7.6763  -14.9019 C   0  0  0  0  0  0  0  0  0  0  0  0
   -1.0678    7.6543  -14.0266 H   0  0  0  0  0  0  0  0  0  0  0  0
   -0.7706    7.6716  -15.5667 H   0  0  0  0  0  0  0  0  0  0  0  0
   -1.9905    8.4733  -14.9943 H   0  0  0  0  0  0  0  0  0  0  0  0
   -0.7468    4.7051  -13.2157 C   0  0  0  0  0  0  0  0  0  0  0  0
   -0.8605    5.7710  -11.8695 B   0  0  0  0  0  0  0  0  0  0  0  0
   -1.4203    6.7178  -11.8840 H   0  0  0  0  0  0  0  0  0  0  0  0
   -0.7862    4.7343  -10.4320 B   0  0  0  0  0  0  0  0  0  0  0  0
    0.6571    5.5899  -12.7533 B   0  0  0  0  0  0  0  0  0  0  0  0
    1.0816    6.4103  -13.3488 H   0  0  0  0  0  0  0  0  0  0  0  0
    0.6618    5.5965  -10.9782 B   0  0  0  0  0  0  0  0  0  0  0  0
    1.0937    6.4258  -10.4004 H   0  0  0  0  0  0  0  0  0  0  0  0
   -1.6846    4.2038  -11.8618 B   0  0  0  0  0  0  0  0  0  0  0  0
   -2.7818    4.1295  -11.8670 H   0  0  0  0  0  0  0  0  0  0  0  0
   -1.4500    4.7901  -14.9670 P   0  0  0  0  0  0  0  0  0  0  0  0
   -2.3077    2.9992   -7.1594 O   0  0  0  0  0  0  0  0  0  0  0  0
    2.9518    2.1582  -16.4971 C   0  0  0  0  0  0  0  0  0  0  0  0
    3.4833    1.3667  -16.6003 H   0  0  0  0  0  0  0  0  0  0  0  0
    2.2410    2.1529  -17.1425 H   0  0  0  0  0  0  0  0  0  0  0  0
    3.5023    2.9339  -16.6323 H   0  0  0  0  0  0  0  0  0  0  0  0
    3.5225    2.1866  -14.0857 C   0  0  0  0  0  0  0  0  0  0  0  0
    3.1758    2.2410  -13.1925 H   0  0  0  0  0  0  0  0  0  0  0  0
    4.0259    1.3754  -14.1847 H   0  0  0  0  0  0  0  0  0  0  0  0
    4.0933    2.9391  -14.2525 H   0  0  0  0  0  0  0  0  0  0  0  0
    1.3304    3.6112   -9.4891 H   0  0  0  0  0  0  0  0  0  0  0  0
    2.3587    2.1933  -15.0881 C   0  0  0  0  0  0  0  0  0  0  0  0
    1.4633    0.9629  -14.9019 C   0  0  0  0  0  0  0  0  0  0  0  0
    1.0678    0.9849  -14.0266 H   0  0  0  0  0  0  0  0  0  0  0  0
    0.7706    0.9676  -15.5667 H   0  0  0  0  0  0  0  0  0  0  0  0
    1.9905    0.1659  -14.9943 H   0  0  0  0  0  0  0  0  0  0  0  0
    0.7468    3.9341  -13.2157 C   0  0  0  0  0  0  0  0  0  0  0  0
    0.8605    2.8682  -11.8695 B   0  0  0  0  0  0  0  0  0  0  0  0
    1.4203    1.9214  -11.8840 H   0  0  0  0  0  0  0  0  0  0  0  0
    0.7862    3.9049  -10.4320 B   0  0  0  0  0  0  0  0  0  0  0  0
   -0.6571    3.0493  -12.7533 B   0  0  0  0  0  0  0  0  0  0  0  0
   -1.0816    2.2289  -13.3488 H   0  0  0  0  0  0  0  0  0  0  0  0
   -0.6618    3.0427  -10.9782 B   0  0  0  0  0  0  0  0  0  0  0  0
   -1.0937    2.2134  -10.4004 H   0  0  0  0  0  0  0  0  0  0  0  0
    1.6846    4.4354  -11.8618 B   0  0  0  0  0  0  0  0  0  0  0  0
    2.7818    4.5097  -11.8670 H   0  0  0  0  0  0  0  0  0  0  0  0
    1.4500    3.8491  -14.9670 P   0  0  0  0  0  0  0  0  0  0  0  0
    3.4401    5.5343   -7.9189 C   0  0  0  0  0  0  0  0  0  0  0  0
    4.1244    5.0574   -7.4237 H   0  0  0  0  0  0  0  0  0  0  0  0
    3.2483    5.0401   -8.7304 H   0  0  0  0  0  0  0  0  0  0  0  0
    3.9118    6.8716   -8.2521 C   0  0  0  0  0  0  0  0  0  0  0  0
    4.0380    6.9511   -9.2105 H   0  0  0  0  0  0  0  0  0  0  0  0
    4.7602    7.0461   -7.8135 H   0  0  0  0  0  0  0  0  0  0  0  0
    2.9632    7.7770   -7.8229 C   0  0  0  0  0  0  0  0  0  0  0  0
    3.3658    8.6116   -7.5386 H   0  0  0  0  0  0  0  0  0  0  0  0
    2.3015    7.9550   -8.5082 H   0  0  0  0  0  0  0  0  0  0  0  0
    2.3620    7.0047   -6.6386 C   0  0  0  0  0  0  0  0  0  0  0  0
    1.4773    7.3330   -6.4164 H   0  0  0  0  0  0  0  0  0  0  0  0
    2.9304    7.0617   -5.8554 H   0  0  0  0  0  0  0  0  0  0  0  0
    2.3077    5.6400   -7.1594 O   0  0  0  0  0  0  0  0  0  0  0  0
   -1.4500    4.7901    3.8606 P   0  0  0  0  0  0  0  0  0  0  0  0
    1.4500    3.8491    3.8606 P   0  0  0  0  0  0  0  0  0  0  0  0
   -0.0000    4.3196  -16.4742 Co  0  0  0  0  0  0  0  0  0  0  0  0
  1  2  1  0  0  0  0
  3  1  1  0  0  0  0
  4  1  1  0  0  0  0
  5  4  1  0  0  0  0
  6  4  1  0  0  0  0
  7  4  1  0  0  0  0
  8  7  1  0  0  0  0
  9  7  1  0  0  0  0
 10  7  1  0  0  0  0
 11 10  1  0  0  0  0
 12 10  1  0  0  0  0
 13 14  1  0  0  0  0
 15 13  1  0  0  0  0
 16 13  1  0  0  0  0
 17 18  1  0  0  0  0
 19 17  1  0  0  0  0
 20 17  1  0  0  0  0
 21 30  1  0  0  0  0
 22 13  1  0  0  0  0
 23 22  1  0  0  0  0
 24 23  1  0  0  0  0
 25 23  1  0  0  0  0
 26 23  1  0  0  0  0
 27 28  1  0  0  0  0
 28 29  1  0  0  0  0
 30 28  1  0  0  0  0
 31 27  1  0  0  0  0
 32 31  1  0  0  0  0
 33 28  1  0  0  0  0
 34 33  1  0  0  0  0
 35 27  1  0  0  0  0
 36 35  1  0  0  0  0
 37 22  1  0  0  0  0
 38 37  1  0  0  0  0
 39 21  1  0  0  0  0
 40  1  1  0  0  0  0
 41 42  1  0  0  0  0
 43 41  1  0  0  0  0
 44 41  1  0  0  0  0
 45 46  1  0  0  0  0
 47 45  1  0  0  0  0
 48 45  1  0  0  0  0
 49 39  1  0  0  0  0
 50 41  1  0  0  0  0
 51 50  1  0  0  0  0
 52 51  1  0  0  0  0
 53 51  1  0  0  0  0
 54 51  1  0  0  0  0
 55 27  1  0  0  0  0
 56 55  1  0  0  0  0
 57 56  1  0  0  0  0
 58 30  1  0  0  0  0
 59 27  1  0  0  0  0
 60 59  1  0  0  0  0
 61 30  1  0  0  0  0
 62 61  1  0  0  0  0
 63 31  1  0  0  0  0
 64 63  1  0  0  0  0
 65 38  1  0  0  0  0
 66 67  1  0  0  0  0
 68 66  1  0  0  0  0
 69 66  1  0  0  0  0
 70 69  1  0  0  0  0
 71 69  1  0  0  0  0
 72 69  1  0  0  0  0
 73 72  1  0  0  0  0
 74 72  1  0  0  0  0
 75 72  1  0  0  0  0
 76 75  1  0  0  0  0
 77 75  1  0  0  0  0
 78 39  1  0  0  0  0
 79 80  1  0  0  0  0
 81 79  1  0  0  0  0
 82 79  1  0  0  0  0
 83 82  1  0  0  0  0
 84 82  1  0  0  0  0
 85 82  1  0  0  0  0
 86 85  1  0  0  0  0
 87 85  1  0  0  0  0
 88 85  1  0  0  0  0
 89 88  1  0  0  0  0
 90 88  1  0  0  0  0
 91 92  1  0  0  0  0
 93 91  1  0  0  0  0
 94 91  1  0  0  0  0
 95 96  1  0  0  0  0
 97 95  1  0  0  0  0
 98 95  1  0  0  0  0
 99 39  1  0  0  0  0
100 91  1  0  0  0  0
101100  1  0  0  0  0
102101  1  0  0  0  0
103101  1  0  0  0  0
104101  1  0  0  0  0
105106  1  0  0  0  0
106107  1  0  0  0  0
108 99  1  0  0  0  0
109105  1  0  0  0  0
110109  1  0  0  0  0
111106  1  0  0  0  0
112111  1  0  0  0  0
113105  1  0  0  0  0
114113  1  0  0  0  0
115100  1  0  0  0  0
116 39  1  0  0  0  0
117118  1  0  0  0  0
119117  1  0  0  0  0
120117  1  0  0  0  0
121122  1  0  0  0  0
123121  1  0  0  0  0
124121  1  0  0  0  0
125 39  1  0  0  0  0
126117  1  0  0  0  0
127126  1  0  0  0  0
128127  1  0  0  0  0
129127  1  0  0  0  0
130127  1  0  0  0  0
131105  1  0  0  0  0
132131  1  0  0  0  0
133132  1  0  0  0  0
134108  1  0  0  0  0
135105  1  0  0  0  0
136135  1  0  0  0  0
137108  1  0  0  0  0
138137  1  0  0  0  0
139109  1  0  0  0  0
140139  1  0  0  0  0
141126  1  0  0  0  0
142143  1  0  0  0  0
144142  1  0  0  0  0
145142  1  0  0  0  0
146145  1  0  0  0  0
147145  1  0  0  0  0
148145  1  0  0  0  0
149148  1  0  0  0  0
150148  1  0  0  0  0
151148  1  0  0  0  0
152151  1  0  0  0  0
153151  1  0  0  0  0
154 39  1  0  0  0  0
155 38  8  0  0  0  0
156 38  8  0  0  0  0
157115  8  0  0  0  0
 10 40  1  0  0  0  0
 17 22  1  0  0  0  0
 27 37  1  0  0  0  0
 28 31  1  0  0  0  0
 28 35  1  0  0  0  0
 30 33  1  0  0  0  0
 30 35  1  0  0  0  0
 31 33  1  0  0  0  0
 31 55  1  0  0  0  0
 33 58  1  0  0  0  0
 33 63  1  0  0  0  0
 35 59  1  0  0  0  0
 35 61  1  0  0  0  0
 39 40  1  0  0  0  0
 45 50  1  0  0  0  0
 49 58  1  0  0  0  0
 50 65  1  0  0  0  0
 55 59  1  0  0  0  0
 55 63  1  0  0  0  0
 55 65  1  0  0  0  0
 56 58  1  0  0  0  0
 56 59  1  0  0  0  0
 56 61  1  0  0  0  0
 56 63  1  0  0  0  0
 58 61  1  0  0  0  0
 58 63  1  0  0  0  0
 59 61  1  0  0  0  0
 66 78  1  0  0  0  0
 75 78  1  0  0  0  0
 79116  1  0  0  0  0
 88116  1  0  0  0  0
 95100  1  0  0  0  0
105115  1  0  0  0  0
106108  1  0  0  0  0
106109  1  0  0  0  0
106113  1  0  0  0  0
108111  1  0  0  0  0
108113  1  0  0  0  0
109111  1  0  0  0  0
109131  1  0  0  0  0
111134  1  0  0  0  0
111139  1  0  0  0  0
113135  1  0  0  0  0
113137  1  0  0  0  0
121126  1  0  0  0  0
125134  1  0  0  0  0
131135  1  0  0  0  0
131139  1  0  0  0  0
131141  1  0  0  0  0
132134  1  0  0  0  0
132135  1  0  0  0  0
132137  1  0  0  0  0
132139  1  0  0  0  0
134137  1  0  0  0  0
134139  1  0  0  0  0
135137  1  0  0  0  0
141157  8  0  0  0  0
142154  1  0  0  0  0
151154  1  0  0  0  0
M  END
$$$$
MESWIR

From CSD data. Using bond type 'Any'. No disordered atoms. Largest molecule.
149204  0  0  0  0  0  0  0  0999 V2000
   -2.0528    5.4231    7.0632 Co  0  0  0  0  0  0  0  0  0  0  0  0
    2.1047    5.3355   12.9970 Co  0  0  0  0  0  0  0  0  0  0  0  0
   -1.2554    6.3650    5.1998 P   0  0  0  0  0  0  0  0  0  0  0  0
    1.3516    6.4380   14.7908 P   0  0  0  0  0  0  0  0  0  0  0  0
   -3.3822    4.0830    5.8556 S   0  0  0  0  0  0  0  0  0  0  0  0
   -3.6757    6.9623    7.3136 S   0  0  0  0  0  0  0  0  0  0  0  0
    3.2277    3.8887   14.2876 S   0  0  0  0  0  0  0  0  0  0  0  0
    3.8994    6.6912   12.8129 S   0  0  0  0  0  0  0  0  0  0  0  0
   -1.0845    2.3017   10.8229 O   0  0  0  0  0  0  0  0  0  0  0  0
   -5.4945    4.6271    7.8898 B   0  0  0  0  0  0  0  0  0  0  0  0
   -4.8554    4.2501    8.7024 H   0  0  0  0  0  0  0  0  0  0  0  0
   -6.2572    3.5614    6.7408 B   0  0  0  0  0  0  0  0  0  0  0  0
   -6.1291    2.4703    6.8074 H   0  0  0  0  0  0  0  0  0  0  0  0
   -6.3463    4.3951    5.1589 B   0  0  0  0  0  0  0  0  0  0  0  0
   -6.2635    3.8495    4.2097 H   0  0  0  0  0  0  0  0  0  0  0  0
   -5.6687    6.0081    5.3520 B   0  0  0  0  0  0  0  0  0  0  0  0
   -5.1475    6.5192    4.5294 H   0  0  0  0  0  0  0  0  0  0  0  0
   -6.6189    6.8944    6.5377 B   0  0  0  0  0  0  0  0  0  0  0  0
   -6.7187    7.9872    6.4844 H   0  0  0  0  0  0  0  0  0  0  0  0
   -6.5139    6.0389    8.0763 B   0  0  0  0  0  0  0  0  0  0  0  0
   -6.5482    6.5881    9.0288 H   0  0  0  0  0  0  0  0  0  0  0  0
   -7.2155    4.4476    7.9131 B   0  0  0  0  0  0  0  0  0  0  0  0
   -7.7261    3.9402    8.7457 H   0  0  0  0  0  0  0  0  0  0  0  0
   -7.7891    4.3008    6.2113 B   0  0  0  0  0  0  0  0  0  0  0  0
   -8.6691    3.7027    5.9382 H   0  0  0  0  0  0  0  0  0  0  0  0
   -7.4062    5.8124    5.3787 B   0  0  0  0  0  0  0  0  0  0  0  0
   -8.0430    6.1912    4.5660 H   0  0  0  0  0  0  0  0  0  0  0  0
   -7.9335    5.8577    7.0739 B   0  0  0  0  0  0  0  0  0  0  0  0
   -8.9093    6.2709    7.3703 H   0  0  0  0  0  0  0  0  0  0  0  0
    5.4616    4.1631   12.3093 B   0  0  0  0  0  0  0  0  0  0  0  0
    4.8145    3.8604   11.4700 H   0  0  0  0  0  0  0  0  0  0  0  0
    6.0125    2.9524   13.4616 B   0  0  0  0  0  0  0  0  0  0  0  0
    5.7532    1.8867   13.3884 H   0  0  0  0  0  0  0  0  0  0  0  0
    6.1655    3.7952   15.0403 B   0  0  0  0  0  0  0  0  0  0  0  0
    5.9858    3.2533   15.9828 H   0  0  0  0  0  0  0  0  0  0  0  0
    5.6973    5.4861   14.8438 B   0  0  0  0  0  0  0  0  0  0  0  0
    5.2188    6.0480   15.6597 H   0  0  0  0  0  0  0  0  0  0  0  0
    6.7866    6.2691   13.6914 B   0  0  0  0  0  0  0  0  0  0  0  0
    7.0177    7.3420   13.7514 H   0  0  0  0  0  0  0  0  0  0  0  0
    6.6286    5.4336   12.1395 B   0  0  0  0  0  0  0  0  0  0  0  0
    6.7610    5.9700   11.1903 H   0  0  0  0  0  0  0  0  0  0  0  0
    7.1478    3.7952   12.3193 B   0  0  0  0  0  0  0  0  0  0  0  0
    7.6347    3.2569   11.4934 H   0  0  0  0  0  0  0  0  0  0  0  0
    7.6208    3.5741   14.0378 B   0  0  0  0  0  0  0  0  0  0  0  0
    8.4248    2.8853   14.3342 H   0  0  0  0  0  0  0  0  0  0  0  0
    7.3904    5.0783   14.8738 B   0  0  0  0  0  0  0  0  0  0  0  0
    8.0338    5.3701   15.7197 H   0  0  0  0  0  0  0  0  0  0  0  0
    7.9692    5.0657   13.2185 B   0  0  0  0  0  0  0  0  0  0  0  0
    9.0034    5.3520   12.9821 H   0  0  0  0  0  0  0  0  0  0  0  0
   -5.0528    4.6379    6.2293 C   0  0  0  0  0  0  0  0  0  0  0  0
   -5.2056    6.0806    7.0039 C   0  0  0  0  0  0  0  0  0  0  0  0
    4.9400    4.2102   13.9249 C   0  0  0  0  0  0  0  0  0  0  0  0
    5.2796    5.6456   13.1552 C   0  0  0  0  0  0  0  0  0  0  0  0
   -0.6314    4.0308    7.7766 C   0  0  0  0  0  0  0  0  0  0  0  0
   -0.2917    3.3239    7.2770 H   0  0  0  0  0  0  0  0  0  0  0  0
   -0.1466    5.2886    7.7799 C   0  0  0  0  0  0  0  0  0  0  0  0
    0.5950    5.5749    7.2937 H   0  0  0  0  0  0  0  0  0  0  0  0
   -0.9138    6.0951    8.6059 C   0  0  0  0  0  0  0  0  0  0  0  0
   -0.8082    7.0031    8.7724 H   0  0  0  0  0  0  0  0  0  0  0  0
   -1.9176    5.2070    9.1554 C   0  0  0  0  0  0  0  0  0  0  0  0
   -2.5849    5.4517    9.7549 H   0  0  0  0  0  0  0  0  0  0  0  0
   -1.7256    3.9547    8.6492 C   0  0  0  0  0  0  0  0  0  0  0  0
   -2.4474    2.7041    8.9655 C   0  0  0  0  0  0  0  0  0  0  0  0
   -2.7824    2.3108    8.1429 H   0  0  0  0  0  0  0  0  0  0  0  0
   -3.2077    2.9089    9.5317 H   0  0  0  0  0  0  0  0  0  0  0  0
   -1.5503    1.6964    9.6749 C   0  0  0  0  0  0  0  0  0  0  0  0
   -2.0521    0.8971    9.8947 H   0  0  0  0  0  0  0  0  0  0  0  0
   -0.8076    1.4463    9.1021 H   0  0  0  0  0  0  0  0  0  0  0  0
   -0.0280    1.6638   11.4534 C   0  0  0  0  0  0  0  0  0  0  0  0
    0.7094    1.5514   10.8339 H   0  0  0  0  0  0  0  0  0  0  0  0
   -0.3062    0.7884   11.7631 H   0  0  0  0  0  0  0  0  0  0  0  0
    0.3976    2.4975   12.6024 C   0  0  0  0  0  0  0  0  0  0  0  0
    1.1381    2.0679   13.0587 H   0  0  0  0  0  0  0  0  0  0  0  0
   -0.3364    2.5809   13.2318 H   0  0  0  0  0  0  0  0  0  0  0  0
    0.8161    3.8586   12.1395 C   0  0  0  0  0  0  0  0  0  0  0  0
    0.1626    5.0729   12.2860 C   0  0  0  0  0  0  0  0  0  0  0  0
   -0.5995    5.2070   12.8022 H   0  0  0  0  0  0  0  0  0  0  0  0
    0.8188    6.0734   11.5400 C   0  0  0  0  0  0  0  0  0  0  0  0
    0.5879    6.9705   11.4700 H   0  0  0  0  0  0  0  0  0  0  0  0
    1.8978    5.4155   10.9338 C   0  0  0  0  0  0  0  0  0  0  0  0
    2.5175    5.8178   10.3677 H   0  0  0  0  0  0  0  0  0  0  0  0
    1.9076    4.0906   11.2902 C   0  0  0  0  0  0  0  0  0  0  0  0
    2.5306    3.4581   11.0204 H   0  0  0  0  0  0  0  0  0  0  0  0
   -0.2287    7.8006    5.6351 C   0  0  0  0  0  0  0  0  0  0  0  0
    1.1202    7.8894    5.2921 C   0  0  0  0  0  0  0  0  0  0  0  0
    1.5237    7.2152    4.7958 H   0  0  0  0  0  0  0  0  0  0  0  0
    1.8507    8.9859    5.6984 C   0  0  0  0  0  0  0  0  0  0  0  0
    2.7455    9.0439    5.4519 H   0  0  0  0  0  0  0  0  0  0  0  0
    1.3237    9.9682    6.4244 C   0  0  0  0  0  0  0  0  0  0  0  0
    1.8431   10.6950    6.6875 H   0  0  0  0  0  0  0  0  0  0  0  0
   -0.0125    9.8903    6.7908 C   0  0  0  0  0  0  0  0  0  0  0  0
   -0.3973   10.5663    7.3003 H   0  0  0  0  0  0  0  0  0  0  0  0
   -0.7574    8.8191    6.3978 C   0  0  0  0  0  0  0  0  0  0  0  0
   -1.6511    8.7756    6.6542 H   0  0  0  0  0  0  0  0  0  0  0  0
   -2.4274    6.9904    3.9466 C   0  0  0  0  0  0  0  0  0  0  0  0
   -2.7831    8.3008    3.8333 C   0  0  0  0  0  0  0  0  0  0  0  0
   -2.4286    8.9279    4.4195 H   0  0  0  0  0  0  0  0  0  0  0  0
   -3.6778    8.7122    2.8375 C   0  0  0  0  0  0  0  0  0  0  0  0
   -3.9194    9.6075    2.7743 H   0  0  0  0  0  0  0  0  0  0  0  0
   -4.1885    7.8205    1.9716 C   0  0  0  0  0  0  0  0  0  0  0  0
   -4.8097    8.0942    1.3355 H   0  0  0  0  0  0  0  0  0  0  0  0
   -3.8036    6.5373    2.0249 C   0  0  0  0  0  0  0  0  0  0  0  0
   -4.1210    5.9320    1.3921 H   0  0  0  0  0  0  0  0  0  0  0  0
   -2.9361    6.1078    3.0140 C   0  0  0  0  0  0  0  0  0  0  0  0
   -2.6930    5.2107    3.0507 H   0  0  0  0  0  0  0  0  0  0  0  0
   -0.1925    5.3031    4.1564 C   0  0  0  0  0  0  0  0  0  0  0  0
    0.0329    3.9891    4.4761 C   0  0  0  0  0  0  0  0  0  0  0  0
   -0.3562    3.6212    5.2355 H   0  0  0  0  0  0  0  0  0  0  0  0
    0.8449    3.2025    3.6602 C   0  0  0  0  0  0  0  0  0  0  0  0
    1.0290    2.3181    3.8833 H   0  0  0  0  0  0  0  0  0  0  0  0
    1.3676    3.7553    2.5245 C   0  0  0  0  0  0  0  0  0  0  0  0
    1.9019    3.2369    1.9683 H   0  0  0  0  0  0  0  0  0  0  0  0
    1.1209    5.0367    2.1981 C   0  0  0  0  0  0  0  0  0  0  0  0
    1.4983    5.3955    1.4288 H   0  0  0  0  0  0  0  0  0  0  0  0
    0.3271    5.8142    2.9807 C   0  0  0  0  0  0  0  0  0  0  0  0
    0.1340    6.6878    2.7243 H   0  0  0  0  0  0  0  0  0  0  0  0
    0.4116    7.9003   14.2310 C   0  0  0  0  0  0  0  0  0  0  0  0
   -0.9604    8.0344   14.4375 C   0  0  0  0  0  0  0  0  0  0  0  0
   -1.4160    7.3928   14.9304 H   0  0  0  0  0  0  0  0  0  0  0  0
   -1.6446    9.1001   13.9212 C   0  0  0  0  0  0  0  0  0  0  0  0
   -2.5572    9.1907   14.0778 H   0  0  0  0  0  0  0  0  0  0  0  0
   -0.9850   10.0208   13.1819 C   0  0  0  0  0  0  0  0  0  0  0  0
   -1.4572   10.7421   12.8322 H   0  0  0  0  0  0  0  0  0  0  0  0
    0.3816    9.9229   12.9321 C   0  0  0  0  0  0  0  0  0  0  0  0
    0.8220   10.5645   12.4259 H   0  0  0  0  0  0  0  0  0  0  0  0
    1.0575    8.8554   13.4550 C   0  0  0  0  0  0  0  0  0  0  0  0
    1.9678    8.7666   13.2885 H   0  0  0  0  0  0  0  0  0  0  0  0
    2.5249    7.0792   16.0314 C   0  0  0  0  0  0  0  0  0  0  0  0
    3.0859    8.3407   15.9994 C   0  0  0  0  0  0  0  0  0  0  0  0
    2.8413    8.9297   15.3200 H   0  0  0  0  0  0  0  0  0  0  0  0
    4.0082    8.7485   16.9553 C   0  0  0  0  0  0  0  0  0  0  0  0
    4.3826    9.5967   16.8987 H   0  0  0  0  0  0  0  0  0  0  0  0
    4.3623    7.9274   17.9577 C   0  0  0  0  0  0  0  0  0  0  0  0
    4.9525    8.2210   18.6138 H   0  0  0  0  0  0  0  0  0  0  0  0
    3.8567    6.6696   18.0077 C   0  0  0  0  0  0  0  0  0  0  0  0
    4.1369    6.0897   18.6804 H   0  0  0  0  0  0  0  0  0  0  0  0
    2.9247    6.2347   17.0718 C   0  0  0  0  0  0  0  0  0  0  0  0
    2.5655    5.3792   17.1385 H   0  0  0  0  0  0  0  0  0  0  0  0
    0.2065    5.5278   15.8862 C   0  0  0  0  0  0  0  0  0  0  0  0
   -0.0543    4.1939   15.6531 C   0  0  0  0  0  0  0  0  0  0  0  0
    0.3191    3.7680   14.9170 H   0  0  0  0  0  0  0  0  0  0  0  0
   -0.8837    3.4762   16.5356 C   0  0  0  0  0  0  0  0  0  0  0  0
   -1.0640    2.5754   16.3924 H   0  0  0  0  0  0  0  0  0  0  0  0
   -1.4259    4.1341   17.6247 C   0  0  0  0  0  0  0  0  0  0  0  0
   -1.9796    3.6719   18.2109 H   0  0  0  0  0  0  0  0  0  0  0  0
   -1.1696    5.4245   17.8445 C   0  0  0  0  0  0  0  0  0  0  0  0
   -1.5572    5.8504   18.5739 H   0  0  0  0  0  0  0  0  0  0  0  0
   -0.3397    6.1313   17.0086 C   0  0  0  0  0  0  0  0  0  0  0  0
   -0.1433    7.0212   17.1951 H   0  0  0  0  0  0  0  0  0  0  0  0
  1  3  1  0  0  0  0
  2  4  1  0  0  0  0
  3 84  1  0  0  0  0
  4117  1  0  0  0  0
  5  1  1  0  0  0  0
  6  1  1  0  0  0  0
  7  2  1  0  0  0  0
  8  2  1  0  0  0  0
  9 66  1  0  0  0  0
 10 11  1  0  0  0  0
 12 10  1  0  0  0  0
 13 12  1  0  0  0  0
 14 12  1  0  0  0  0
 15 14  1  0  0  0  0
 16 14  1  0  0  0  0
 17 16  1  0  0  0  0
 18 16  1  0  0  0  0
 19 18  1  0  0  0  0
 20 10  1  0  0  0  0
 21 20  1  0  0  0  0
 22 10  1  0  0  0  0
 23 22  1  0  0  0  0
 24 12  1  0  0  0  0
 25 24  1  0  0  0  0
 26 14  1  0  0  0  0
 27 26  1  0  0  0  0
 28 18  1  0  0  0  0
 29 28  1  0  0  0  0
 30 31  1  0  0  0  0
 32 30  1  0  0  0  0
 33 32  1  0  0  0  0
 34 32  1  0  0  0  0
 35 34  1  0  0  0  0
 36 34  1  0  0  0  0
 37 36  1  0  0  0  0
 38 36  1  0  0  0  0
 39 38  1  0  0  0  0
 40 30  1  0  0  0  0
 41 40  1  0  0  0  0
 42 30  1  0  0  0  0
 43 42  1  0  0  0  0
 44 32  1  0  0  0  0
 45 44  1  0  0  0  0
 46 34  1  0  0  0  0
 47 46  1  0  0  0  0
 48 38  1  0  0  0  0
 49 48  1  0  0  0  0
 50  5  1  0  0  0  0
 51  6  1  0  0  0  0
 52  7  1  0  0  0  0
 53  8  1  0  0  0  0
 54  1  8  0  0  0  0
 55 54  1  0  0  0  0
 56  1  8  0  0  0  0
 57 56  1  0  0  0  0
 58  1  8  0  0  0  0
 59 58  1  0  0  0  0
 60  1  8  0  0  0  0
 61 60  1  0  0  0  0
 62  1  8  0  0  0  0
 63 62  1  0  0  0  0
 64 63  1  0  0  0  0
 65 63  1  0  0  0  0
 66 63  1  0  0  0  0
 67 66  1  0  0  0  0
 68 66  1  0  0  0  0
 69  9  1  0  0  0  0
 70 69  1  0  0  0  0
 71 69  1  0  0  0  0
 72 69  1  0  0  0  0
 73 72  1  0  0  0  0
 74 72  1  0  0  0  0
 75  2  8  0  0  0  0
 76  2  8  0  0  0  0
 77 76  1  0  0  0  0
 78  2  8  0  0  0  0
 79 78  1  0  0  0  0
 80  2  8  0  0  0  0
 81 80  1  0  0  0  0
 82  2  8  0  0  0  0
 83 82  1  0  0  0  0
 84 85  4  0  0  0  0
 85 86  1  0  0  0  0
 87 85  4  0  0  0  0
 88 87  1  0  0  0  0
 89 87  4  0  0  0  0
 90 89  1  0  0  0  0
 91 89  4  0  0  0  0
 92 91  1  0  0  0  0
 93 84  4  0  0  0  0
 94 93  1  0  0  0  0
 95  3  1  0  0  0  0
 96 95  4  0  0  0  0
 97 96  1  0  0  0  0
 98 96  4  0  0  0  0
 99 98  1  0  0  0  0
100 98  4  0  0  0  0
101100  1  0  0  0  0
102100  4  0  0  0  0
103102  1  0  0  0  0
104 95  4  0  0  0  0
105104  1  0  0  0  0
106  3  1  0  0  0  0
107106  4  0  0  0  0
108107  1  0  0  0  0
109107  4  0  0  0  0
110109  1  0  0  0  0
111109  4  0  0  0  0
112111  1  0  0  0  0
113111  4  0  0  0  0
114113  1  0  0  0  0
115106  4  0  0  0  0
116115  1  0  0  0  0
117118  4  0  0  0  0
118119  1  0  0  0  0
120118  4  0  0  0  0
121120  1  0  0  0  0
122120  4  0  0  0  0
123122  1  0  0  0  0
124122  4  0  0  0  0
125124  1  0  0  0  0
126117  4  0  0  0  0
127126  1  0  0  0  0
128  4  1  0  0  0  0
129128  4  0  0  0  0
130129  1  0  0  0  0
131129  4  0  0  0  0
132131  1  0  0  0  0
133131  4  0  0  0  0
134133  1  0  0  0  0
135133  4  0  0  0  0
136135  1  0  0  0  0
137128  4  0  0  0  0
138137  1  0  0  0  0
139  4  1  0  0  0  0
140139  4  0  0  0  0
141140  1  0  0  0  0
142140  4  0  0  0  0
143142  1  0  0  0  0
144142  4  0  0  0  0
145144  1  0  0  0  0
146144  4  0  0  0  0
147146  1  0  0  0  0
148139  4  0  0  0  0
149148  1  0  0  0  0
 10 50  1  0  0  0  0
 10 51  1  0  0  0  0
 12 22  1  0  0  0  0
 12 50  1  0  0  0  0
 14 24  1  0  0  0  0
 14 50  1  0  0  0  0
 16 26  1  0  0  0  0
 16 50  1  0  0  0  0
 16 51  1  0  0  0  0
 18 20  1  0  0  0  0
 18 26  1  0  0  0  0
 18 51  1  0  0  0  0
 20 22  1  0  0  0  0
 20 28  1  0  0  0  0
 20 51  1  0  0  0  0
 22 24  1  0  0  0  0
 22 28  1  0  0  0  0
 24 26  1  0  0  0  0
 24 28  1  0  0  0  0
 26 28  1  0  0  0  0
 30 52  1  0  0  0  0
 30 53  1  0  0  0  0
 32 42  1  0  0  0  0
 32 52  1  0  0  0  0
 34 44  1  0  0  0  0
 34 52  1  0  0  0  0
 36 46  1  0  0  0  0
 36 52  1  0  0  0  0
 36 53  1  0  0  0  0
 38 40  1  0  0  0  0
 38 46  1  0  0  0  0
 38 53  1  0  0  0  0
 40 42  1  0  0  0  0
 40 48  1  0  0  0  0
 40 53  1  0  0  0  0
 42 44  1  0  0  0  0
 42 48  1  0  0  0  0
 44 46  1  0  0  0  0
 44 48  1  0  0  0  0
 46 48  1  0  0  0  0
 50 51  1  0  0  0  0
 52 53  1  0  0  0  0
 54 56  4  0  0  0  0
 54 62  4  0  0  0  0
 56 58  4  0  0  0  0
 58 60  4  0  0  0  0
 60 62  4  0  0  0  0
 72 75  1  0  0  0  0
 75 76  4  0  0  0  0
 75 82  4  0  0  0  0
 76 78  4  0  0  0  0
 78 80  4  0  0  0  0
 80 82  4  0  0  0  0
 91 93  4  0  0  0  0
102104  4  0  0  0  0
113115  4  0  0  0  0
124126  4  0  0  0  0
135137  4  0  0  0  0
146148  4  0  0  0  0
M  END
$$$$
MESXAK

From CSD data. Using bond type 'Any'. No disordered atoms. Largest molecule.
149204  0  0  0  0  0  0  0  0999 V2000
    9.5223    5.3805   13.0794 Rh  0  0  0  0  0  0  0  0  0  0  0  0
   13.9539    5.4096    7.1483 Rh  0  0  0  0  0  0  0  0  0  0  0  0
    7.5215    6.7958   12.9063 Se  0  0  0  0  0  0  0  0  0  0  0  0
    8.3153    3.8466   14.5645 Se  0  0  0  0  0  0  0  0  0  0  0  0
   15.3573    3.8821    5.8319 Se  0  0  0  0  0  0  0  0  0  0  0  0
   15.7959    7.0153    7.3380 Se  0  0  0  0  0  0  0  0  0  0  0  0
   10.2569    6.5664   14.8940 P   0  0  0  0  0  0  0  0  0  0  0  0
   13.2034    6.3200    5.1869 P   0  0  0  0  0  0  0  0  0  0  0  0
   12.5393    2.1605   10.7605 O   0  0  0  0  0  0  0  0  0  0  0  0
    6.0321    4.0669   12.3914 B   0  0  0  0  0  0  0  0  0  0  0  0
    6.7292    3.7963   11.5859 H   0  0  0  0  0  0  0  0  0  0  0  0
    4.7911    5.2878   12.1684 B   0  0  0  0  0  0  0  0  0  0  0  0
    4.6645    5.8252   11.2165 H   0  0  0  0  0  0  0  0  0  0  0  0
    4.5372    6.1103   13.7061 B   0  0  0  0  0  0  0  0  0  0  0  0
    4.2511    7.1705   13.7560 H   0  0  0  0  0  0  0  0  0  0  0  0
    5.6238    5.3957   14.9076 B   0  0  0  0  0  0  0  0  0  0  0  0
    6.0505    5.9952   15.7264 H   0  0  0  0  0  0  0  0  0  0  0  0
    5.4699    2.8642   13.5530 B   0  0  0  0  0  0  0  0  0  0  0  0
    5.7897    1.8132   13.5030 H   0  0  0  0  0  0  0  0  0  0  0  0
    4.3713    3.6190   12.3381 B   0  0  0  0  0  0  0  0  0  0  0  0
    3.9545    3.0488   11.4927 H   0  0  0  0  0  0  0  0  0  0  0  0
    3.4535    4.8601   13.1636 B   0  0  0  0  0  0  0  0  0  0  0  0
    2.4229    5.1032   12.8607 H   0  0  0  0  0  0  0  0  0  0  0  0
    3.9427    4.8930   14.8477 B   0  0  0  0  0  0  0  0  0  0  0  0
    3.2299    5.1507   15.6465 H   0  0  0  0  0  0  0  0  0  0  0  0
    5.1881    3.7196   15.1140 B   0  0  0  0  0  0  0  0  0  0  0  0
    5.3241    3.2224   16.0858 H   0  0  0  0  0  0  0  0  0  0  0  0
    3.8447    3.3485   14.0389 B   0  0  0  0  0  0  0  0  0  0  0  0
    3.0892    2.5936   14.3018 H   0  0  0  0  0  0  0  0  0  0  0  0
   17.8242    5.8014    5.3586 B   0  0  0  0  0  0  0  0  0  0  0  0
   17.3327    6.3004    4.5099 H   0  0  0  0  0  0  0  0  0  0  0  0
   18.4533    4.1674    5.2122 B   0  0  0  0  0  0  0  0  0  0  0  0
   18.3614    3.5989    4.2769 H   0  0  0  0  0  0  0  0  0  0  0  0
   18.3292    3.3577    6.7798 B   0  0  0  0  0  0  0  0  0  0  0  0
   18.1514    2.2738    6.8464 H   0  0  0  0  0  0  0  0  0  0  0  0
   17.6023    4.5147    7.9081 B   0  0  0  0  0  0  0  0  0  0  0  0
   16.9400    4.1966    8.7269 H   0  0  0  0  0  0  0  0  0  0  0  0
   18.8000    6.6642    6.5601 B   0  0  0  0  0  0  0  0  0  0  0  0
   18.9246    7.7572    6.5069 H   0  0  0  0  0  0  0  0  0  0  0  0
   19.5521    5.5583    5.4352 B   0  0  0  0  0  0  0  0  0  0  0  0
   20.2047    5.9166    4.6264 H   0  0  0  0  0  0  0  0  0  0  0  0
   19.8978    4.0595    6.2906 B   0  0  0  0  0  0  0  0  0  0  0  0
   20.7701    3.4399    6.0376 H   0  0  0  0  0  0  0  0  0  0  0  0
   19.3560    4.2259    7.9381 B   0  0  0  0  0  0  0  0  0  0  0  0
   19.8562    3.6995    8.7635 H   0  0  0  0  0  0  0  0  0  0  0  0
   18.7090    5.8398    8.0745 B   0  0  0  0  0  0  0  0  0  0  0  0
   18.7886    6.3955    9.0198 H   0  0  0  0  0  0  0  0  0  0  0  0
   20.0595    5.5693    7.1027 B   0  0  0  0  0  0  0  0  0  0  0  0
   21.0517    5.9458    7.3922 H   0  0  0  0  0  0  0  0  0  0  0  0
    6.1030    5.5291   13.2534 C   0  0  0  0  0  0  0  0  0  0  0  0
    6.4477    4.1473   14.0789 C   0  0  0  0  0  0  0  0  0  0  0  0
   11.2505    7.9509   14.2353 C   0  0  0  0  0  0  0  0  0  0  0  0
   12.6327    8.0423   14.4350 C   0  0  0  0  0  0  0  0  0  0  0  0
   13.0800    7.4538   14.9975 H   0  0  0  0  0  0  0  0  0  0  0  0
   13.3056    9.0366   13.7627 C   0  0  0  0  0  0  0  0  0  0  0  0
   14.2209    9.1244   13.9091 H   0  0  0  0  0  0  0  0  0  0  0  0
   12.7260    9.8646   12.9306 C   0  0  0  0  0  0  0  0  0  0  0  0
   13.2354   10.4971   12.4746 H   0  0  0  0  0  0  0  0  0  0  0  0
   11.3788    9.8043   12.7242 C   0  0  0  0  0  0  0  0  0  0  0  0
   10.9665   10.4148   12.1584 H   0  0  0  0  0  0  0  0  0  0  0  0
   10.6280    8.8356   13.3566 C   0  0  0  0  0  0  0  0  0  0  0  0
    9.7140    8.7753   13.1968 H   0  0  0  0  0  0  0  0  0  0  0  0
    9.0729    7.3039   16.1091 C   0  0  0  0  0  0  0  0  0  0  0  0
    8.6378    8.5998   16.0060 C   0  0  0  0  0  0  0  0  0  0  0  0
    8.9579    9.1481   15.3270 H   0  0  0  0  0  0  0  0  0  0  0  0
    7.7338    9.0842   16.9046 C   0  0  0  0  0  0  0  0  0  0  0  0
    7.4536    9.9688   16.8480 H   0  0  0  0  0  0  0  0  0  0  0  0
    7.2287    8.2653   17.9031 C   0  0  0  0  0  0  0  0  0  0  0  0
    6.6058    8.5980   18.5089 H   0  0  0  0  0  0  0  0  0  0  0  0
    7.6494    6.9767   17.9896 C   0  0  0  0  0  0  0  0  0  0  0  0
    7.3187    6.4229   18.6586 H   0  0  0  0  0  0  0  0  0  0  0  0
    8.5584    6.4887   17.0877 C   0  0  0  0  0  0  0  0  0  0  0  0
    8.8301    5.6004   17.1409 H   0  0  0  0  0  0  0  0  0  0  0  0
   11.3919    5.6534   15.9960 C   0  0  0  0  0  0  0  0  0  0  0  0
   11.9106    6.2858   17.1343 C   0  0  0  0  0  0  0  0  0  0  0  0
   11.7100    7.1759   17.3173 H   0  0  0  0  0  0  0  0  0  0  0  0
   12.7357    5.5474   17.9830 C   0  0  0  0  0  0  0  0  0  0  0  0
   13.0944    5.9550   18.7385 H   0  0  0  0  0  0  0  0  0  0  0  0
   13.0238    4.2442   17.7267 C   0  0  0  0  0  0  0  0  0  0  0  0
   13.5576    3.7689   18.3225 H   0  0  0  0  0  0  0  0  0  0  0  0
   12.5352    3.6136   16.5984 C   0  0  0  0  0  0  0  0  0  0  0  0
   12.7575    2.7307   16.4087 H   0  0  0  0  0  0  0  0  0  0  0  0
   11.7112    4.3319   15.7530 C   0  0  0  0  0  0  0  0  0  0  0  0
   11.3609    3.9151   15.0008 H   0  0  0  0  0  0  0  0  0  0  0  0
   10.7807    3.8146   12.0586 C   0  0  0  0  0  0  0  0  0  0  0  0
   11.4841    4.9533   12.1950 C   0  0  0  0  0  0  0  0  0  0  0  0
   12.3469    5.0411   12.6510 H   0  0  0  0  0  0  0  0  0  0  0  0
   10.7940    6.0171   11.4595 C   0  0  0  0  0  0  0  0  0  0  0  0
   11.1175    6.9219   11.2697 H   0  0  0  0  0  0  0  0  0  0  0  0
    9.7059    5.3481   10.8737 C   0  0  0  0  0  0  0  0  0  0  0  0
    9.0664    5.7557   10.2546 H   0  0  0  0  0  0  0  0  0  0  0  0
    9.6937    4.0431   11.2564 C   0  0  0  0  0  0  0  0  0  0  0  0
    9.0387    3.3723   10.9735 H   0  0  0  0  0  0  0  0  0  0  0  0
   11.1644    2.4145   12.6011 C   0  0  0  0  0  0  0  0  0  0  0  0
   11.8686    2.5023   13.2601 H   0  0  0  0  0  0  0  0  0  0  0  0
   10.3951    2.0106   13.0304 H   0  0  0  0  0  0  0  0  0  0  0  0
   11.6224    1.5555   11.4994 C   0  0  0  0  0  0  0  0  0  0  0  0
   11.9934    0.7366   11.8655 H   0  0  0  0  0  0  0  0  0  0  0  0
   10.8654    1.3178   10.9402 H   0  0  0  0  0  0  0  0  0  0  0  0
   13.2780    1.6925    9.8951 C   0  0  0  0  0  0  0  0  0  0  0  0
   12.7249    1.1497    9.3127 H   0  0  0  0  0  0  0  0  0  0  0  0
   13.8916    1.0875   10.3411 H   0  0  0  0  0  0  0  0  0  0  0  0
   14.0780    2.5571    9.0431 C   0  0  0  0  0  0  0  0  0  0  0  0
   14.2095    2.1184    8.1877 H   0  0  0  0  0  0  0  0  0  0  0  0
   14.9510    2.6777    9.4491 H   0  0  0  0  0  0  0  0  0  0  0  0
   13.4636    3.8969    8.8101 C   0  0  0  0  0  0  0  0  0  0  0  0
   13.9024    5.0849    9.3759 C   0  0  0  0  0  0  0  0  0  0  0  0
   14.6820    5.1635    9.9650 H   0  0  0  0  0  0  0  0  0  0  0  0
   13.0917    6.1396    9.0131 C   0  0  0  0  0  0  0  0  0  0  0  0
   13.1352    7.0571    9.3593 H   0  0  0  0  0  0  0  0  0  0  0  0
   12.0854    5.5986    8.2110 C   0  0  0  0  0  0  0  0  0  0  0  0
   11.2922    6.0756    7.8915 H   0  0  0  0  0  0  0  0  0  0  0  0
   12.3338    4.1838    8.0579 C   0  0  0  0  0  0  0  0  0  0  0  0
   11.7614    3.5368    7.5953 H   0  0  0  0  0  0  0  0  0  0  0  0
   12.1572    7.7444    5.6016 C   0  0  0  0  0  0  0  0  0  0  0  0
   12.6543    8.7588    6.3738 C   0  0  0  0  0  0  0  0  0  0  0  0
   13.5555    8.7405    6.6067 H   0  0  0  0  0  0  0  0  0  0  0  0
   11.8873    9.7970    6.8164 C   0  0  0  0  0  0  0  0  0  0  0  0
   12.2749   10.4696    7.3290 H   0  0  0  0  0  0  0  0  0  0  0  0
   10.5639    9.8573    6.5169 C   0  0  0  0  0  0  0  0  0  0  0  0
   10.0343   10.5537    6.8331 H   0  0  0  0  0  0  0  0  0  0  0  0
   10.0367    8.8776    5.7447 C   0  0  0  0  0  0  0  0  0  0  0  0
    9.1342    8.9215    5.5217 H   0  0  0  0  0  0  0  0  0  0  0  0
   10.7992    7.7919    5.2688 C   0  0  0  0  0  0  0  0  0  0  0  0
   10.4117    7.1284    4.7462 H   0  0  0  0  0  0  0  0  0  0  0  0
   12.1619    5.2184    4.1737 C   0  0  0  0  0  0  0  0  0  0  0  0
   11.8691    3.9444    4.5398 C   0  0  0  0  0  0  0  0  0  0  0  0
   12.2213    3.6172    5.3386 H   0  0  0  0  0  0  0  0  0  0  0  0
   11.0588    3.1073    3.7710 C   0  0  0  0  0  0  0  0  0  0  0  0
   10.8740    2.2409    4.0572 H   0  0  0  0  0  0  0  0  0  0  0  0
   10.5440    3.5697    2.6028 C   0  0  0  0  0  0  0  0  0  0  0  0
    9.9889    3.0250    2.0935 H   0  0  0  0  0  0  0  0  0  0  0  0
   10.8350    4.8199    2.1767 C   0  0  0  0  0  0  0  0  0  0  0  0
   10.5083    5.1197    1.3580 H   0  0  0  0  0  0  0  0  0  0  0  0
   11.6378    5.6771    2.9689 C   0  0  0  0  0  0  0  0  0  0  0  0
   11.8129    6.5454    2.6860 H   0  0  0  0  0  0  0  0  0  0  0  0
   14.3751    6.9310    3.9141 C   0  0  0  0  0  0  0  0  0  0  0  0
   14.7649    8.2525    3.8476 C   0  0  0  0  0  0  0  0  0  0  0  0
   14.4109    8.8795    4.4333 H   0  0  0  0  0  0  0  0  0  0  0  0
   15.7144    8.6400    2.8657 C   0  0  0  0  0  0  0  0  0  0  0  0
   16.0099    9.5210    2.8224 H   0  0  0  0  0  0  0  0  0  0  0  0
   16.1881    7.7243    1.9903 C   0  0  0  0  0  0  0  0  0  0  0  0
   16.8018    7.9783    1.3413 H   0  0  0  0  0  0  0  0  0  0  0  0
   15.7754    6.4393    2.0602 C   0  0  0  0  0  0  0  0  0  0  0  0
   16.1081    5.8270    1.4445 H   0  0  0  0  0  0  0  0  0  0  0  0
   14.8830    6.0135    3.0022 C   0  0  0  0  0  0  0  0  0  0  0  0
   14.6188    5.1215    3.0354 H   0  0  0  0  0  0  0  0  0  0  0  0
   17.1512    4.5238    6.2706 C   0  0  0  0  0  0  0  0  0  0  0  0
   17.3776    5.9184    7.0061 C   0  0  0  0  0  0  0  0  0  0  0  0
  1  3  1  0  0  0  0
  2  5  1  0  0  0  0
  3 50  1  0  0  0  0
  4  1  1  0  0  0  0
  5148  1  0  0  0  0
  6  2  1  0  0  0  0
  7  1  1  0  0  0  0
  8  2  1  0  0  0  0
  9 97  1  0  0  0  0
 10 11  1  0  0  0  0
 12 10  1  0  0  0  0
 13 12  1  0  0  0  0
 14 12  1  0  0  0  0
 15 14  1  0  0  0  0
 16 14  1  0  0  0  0
 17 16  1  0  0  0  0
 18 10  1  0  0  0  0
 19 18  1  0  0  0  0
 20 10  1  0  0  0  0
 21 20  1  0  0  0  0
 22 12  1  0  0  0  0
 23 22  1  0  0  0  0
 24 14  1  0  0  0  0
 25 24  1  0  0  0  0
 26 16  1  0  0  0  0
 27 26  1  0  0  0  0
 28 18  1  0  0  0  0
 29 28  1  0  0  0  0
 30 31  1  0  0  0  0
 32 30  1  0  0  0  0
 33 32  1  0  0  0  0
 34 32  1  0  0  0  0
 35 34  1  0  0  0  0
 36 34  1  0  0  0  0
 37 36  1  0  0  0  0
 38 30  1  0  0  0  0
 39 38  1  0  0  0  0
 40 30  1  0  0  0  0
 41 40  1  0  0  0  0
 42 32  1  0  0  0  0
 43 42  1  0  0  0  0
 44 34  1  0  0  0  0
 45 44  1  0  0  0  0
 46 36  1  0  0  0  0
 47 46  1  0  0  0  0
 48 38  1  0  0  0  0
 49 48  1  0  0  0  0
 50 10  1  0  0  0  0
 51  4  1  0  0  0  0
 52  7  1  0  0  0  0
 53 52  4  0  0  0  0
 54 53  1  0  0  0  0
 55 53  4  0  0  0  0
 56 55  1  0  0  0  0
 57 55  4  0  0  0  0
 58 57  1  0  0  0  0
 59 57  4  0  0  0  0
 60 59  1  0  0  0  0
 61 52  4  0  0  0  0
 62 61  1  0  0  0  0
 63  7  1  0  0  0  0
 64 63  4  0  0  0  0
 65 64  1  0  0  0  0
 66 64  4  0  0  0  0
 67 66  1  0  0  0  0
 68 66  4  0  0  0  0
 69 68  1  0  0  0  0
 70 68  4  0  0  0  0
 71 70  1  0  0  0  0
 72 63  4  0  0  0  0
 73 72  1  0  0  0  0
 74  7  1  0  0  0  0
 75 74  4  0  0  0  0
 76 75  1  0  0  0  0
 77 75  4  0  0  0  0
 78 77  1  0  0  0  0
 79 77  4  0  0  0  0
 80 79  1  0  0  0  0
 81 79  4  0  0  0  0
 82 81  1  0  0  0  0
 83 74  4  0  0  0  0
 84 83  1  0  0  0  0
 85  1  8  0  0  0  0
 86  1  8  0  0  0  0
 87 86  1  0  0  0  0
 88  1  8  0  0  0  0
 89 88  1  0  0  0  0
 90  1  8  0  0  0  0
 91 90  1  0  0  0  0
 92  1  8  0  0  0  0
 93 92  1  0  0  0  0
 94 85  1  0  0  0  0
 95 94  1  0  0  0  0
 96 94  1  0  0  0  0
 97 94  1  0  0  0  0
 98 97  1  0  0  0  0
 99 97  1  0  0  0  0
100  9  1  0  0  0  0
101100  1  0  0  0  0
102100  1  0  0  0  0
103100  1  0  0  0  0
104103  1  0  0  0  0
105103  1  0  0  0  0
106  2  8  0  0  0  0
107  2  8  0  0  0  0
108107  1  0  0  0  0
109  2  8  0  0  0  0
110109  1  0  0  0  0
111  2  8  0  0  0  0
112111  1  0  0  0  0
113  2  8  0  0  0  0
114113  1  0  0  0  0
115  8  1  0  0  0  0
116115  4  0  0  0  0
117116  1  0  0  0  0
118116  4  0  0  0  0
119118  1  0  0  0  0
120118  4  0  0  0  0
121120  1  0  0  0  0
122120  4  0  0  0  0
123122  1  0  0  0  0
124115  4  0  0  0  0
125124  1  0  0  0  0
126  8  1  0  0  0  0
127126  4  0  0  0  0
128127  1  0  0  0  0
129127  4  0  0  0  0
130129  1  0  0  0  0
131129  4  0  0  0  0
132131  1  0  0  0  0
133131  4  0  0  0  0
134133  1  0  0  0  0
135126  4  0  0  0  0
136135  1  0  0  0  0
137  8  1  0  0  0  0
138137  4  0  0  0  0
139138  1  0  0  0  0
140138  4  0  0  0  0
141140  1  0  0  0  0
142140  4  0  0  0  0
143142  1  0  0  0  0
144142  4  0  0  0  0
145144  1  0  0  0  0
146137  4  0  0  0  0
147146  1  0  0  0  0
148 30  1  0  0  0  0
149  6  1  0  0  0  0
 10 51  1  0  0  0  0
 12 20  1  0  0  0  0
 12 50  1  0  0  0  0
 14 22  1  0  0  0  0
 14 50  1  0  0  0  0
 16 24  1  0  0  0  0
 16 50  1  0  0  0  0
 16 51  1  0  0  0  0
 18 20  1  0  0  0  0
 18 26  1  0  0  0  0
 18 51  1  0  0  0  0
 20 22  1  0  0  0  0
 20 28  1  0  0  0  0
 22 24  1  0  0  0  0
 22 28  1  0  0  0  0
 24 26  1  0  0  0  0
 24 28  1  0  0  0  0
 26 28  1  0  0  0  0
 26 51  1  0  0  0  0
 30149  1  0  0  0  0
 32 40  1  0  0  0  0
 32148  1  0  0  0  0
 34 42  1  0  0  0  0
 34148  1  0  0  0  0
 36 44  1  0  0  0  0
 36148  1  0  0  0  0
 36149  1  0  0  0  0
 38 40  1  0  0  0  0
 38 46  1  0  0  0  0
 38149  1  0  0  0  0
 40 42  1  0  0  0  0
 40 48  1  0  0  0  0
 42 44  1  0  0  0  0
 42 48  1  0  0  0  0
 44 46  1  0  0  0  0
 44 48  1  0  0  0  0
 46 48  1  0  0  0  0
 46149  1  0  0  0  0
 50 51  1  0  0  0  0
 59 61  4  0  0  0  0
 70 72  4  0  0  0  0
 81 83  4  0  0  0  0
 85 86  4  0  0  0  0
 85 92  4  0  0  0  0
 86 88  4  0  0  0  0
 88 90  4  0  0  0  0
 90 92  4  0  0  0  0
103106  1  0  0  0  0
106107  4  0  0  0  0
106113  4  0  0  0  0
107109  4  0  0  0  0
109111  4  0  0  0  0
111113  4  0  0  0  0
122124  4  0  0  0  0
133135  4  0  0  0  0
144146  4  0  0  0  0
148149  1  0  0  0  0
M  END
$$$$
MICXUT

From CSD data. Using bond type 'Any'. No disordered atoms. Largest molecule.
150164  0  0  0  0  0  0  0  0999 V2000
    5.8964    8.1570    8.6150 P   0  0  0  0  0  0  0  0  0  0  0  0
    7.2021    6.8307    8.0309 B   0  0  0  0  0  0  0  0  0  0  0  0
    8.1583    7.2811    7.7615 H   0  0  0  0  0  0  0  0  0  0  0  0
    6.6809    6.4086    7.1096 H   0  0  0  0  0  0  0  0  0  0  0  0
    7.3513    6.0389    8.7947 H   0  0  0  0  0  0  0  0  0  0  0  0
    5.5704    9.4375    7.1711 B   0  0  0  0  0  0  0  0  0  0  0  0
    5.3322    8.8282    6.3101 H   0  0  0  0  0  0  0  0  0  0  0  0
    6.6020    9.9868    7.0481 H   0  0  0  0  0  0  0  0  0  0  0  0
    4.6846   10.0858    7.4048 H   0  0  0  0  0  0  0  0  0  0  0  0
    5.0284   10.3070   10.7535 Si  0  0  0  0  0  0  0  0  0  0  0  0
    8.1459    9.3862   10.4710 Si  0  0  0  0  0  0  0  0  0  0  0  0
    6.2832    8.9553   10.2521 C   0  0  0  0  0  0  0  0  0  0  0  0
    6.1260    8.2256   10.9165 H   0  0  0  0  0  0  0  0  0  0  0  0
    3.2343    9.8935   10.3249 C   0  0  0  0  0  0  0  0  0  0  0  0
    2.6407   10.5707   10.7136 H   0  0  0  0  0  0  0  0  0  0  0  0
    3.0061    9.0121   10.6877 H   0  0  0  0  0  0  0  0  0  0  0  0
    3.1245    9.8829    9.3507 H   0  0  0  0  0  0  0  0  0  0  0  0
    5.0339   10.4727   12.6324 C   0  0  0  0  0  0  0  0  0  0  0  0
    4.4027   11.1738   12.8993 H   0  0  0  0  0  0  0  0  0  0  0  0
    5.9343   10.7101   12.9362 H   0  0  0  0  0  0  0  0  0  0  0  0
    4.7655    9.6211   13.0359 H   0  0  0  0  0  0  0  0  0  0  0  0
    5.4501   11.9484    9.9546 C   0  0  0  0  0  0  0  0  0  0  0  0
    4.8587   12.6452   10.3077 H   0  0  0  0  0  0  0  0  0  0  0  0
    5.3316   11.8801    8.9841 H   0  0  0  0  0  0  0  0  0  0  0  0
    6.3823   12.1783   10.1539 H   0  0  0  0  0  0  0  0  0  0  0  0
    9.1105    7.8415   10.9116 C   0  0  0  0  0  0  0  0  0  0  0  0
   10.0614    8.0636   10.9965 H   0  0  0  0  0  0  0  0  0  0  0  0
    8.9924    7.1714   10.2068 H   0  0  0  0  0  0  0  0  0  0  0  0
    8.7818    7.4835   11.7628 H   0  0  0  0  0  0  0  0  0  0  0  0
    8.4477   10.5878   11.9030 C   0  0  0  0  0  0  0  0  0  0  0  0
    9.4030   10.8013   11.9547 H   0  0  0  0  0  0  0  0  0  0  0  0
    8.1597   10.1728   12.7431 H   0  0  0  0  0  0  0  0  0  0  0  0
    7.9365   11.4105   11.7529 H   0  0  0  0  0  0  0  0  0  0  0  0
    8.8919   10.2108    8.9583 C   0  0  0  0  0  0  0  0  0  0  0  0
    9.8250   10.4450    9.1404 H   0  0  0  0  0  0  0  0  0  0  0  0
    8.3864   11.0238    8.7468 H   0  0  0  0  0  0  0  0  0  0  0  0
    8.8518    9.5940    8.1969 H   0  0  0  0  0  0  0  0  0  0  0  0
    4.3589    7.1785    8.9119 C   0  0  0  0  0  0  0  0  0  0  0  0
    3.3064    7.1956    7.9817 C   0  0  0  0  0  0  0  0  0  0  0  0
    3.3704    7.7485    7.2129 H   0  0  0  0  0  0  0  0  0  0  0  0
    2.1671    6.4077    8.1736 C   0  0  0  0  0  0  0  0  0  0  0  0
    1.4695    6.4176    7.5290 H   0  0  0  0  0  0  0  0  0  0  0  0
    2.0558    5.6143    9.3040 C   0  0  0  0  0  0  0  0  0  0  0  0
    1.2738    5.0928    9.4442 H   0  0  0  0  0  0  0  0  0  0  0  0
    3.0881    5.5825   10.2265 C   0  0  0  0  0  0  0  0  0  0  0  0
    3.0092    5.0345   10.9977 H   0  0  0  0  0  0  0  0  0  0  0  0
    4.2464    6.3483   10.0383 C   0  0  0  0  0  0  0  0  0  0  0  0
    4.9527    6.3060   10.6717 H   0  0  0  0  0  0  0  0  0  0  0  0
    7.5127    8.2832    5.4107 Na  0  0  0  0  0  0  0  0  0  0  0  0
    9.4675    9.5602    5.2640 O   0  0  0  0  0  0  0  0  0  0  0  0
   10.7715    8.9715    5.0997 C   0  0  0  0  0  0  0  0  0  0  0  0
   10.7934    8.4093    4.2854 H   0  0  0  0  0  0  0  0  0  0  0  0
   10.9896    8.4017    5.8795 H   0  0  0  0  0  0  0  0  0  0  0  0
   11.7697   10.0980    4.9829 C   0  0  0  0  0  0  0  0  0  0  0  0
   11.9047   10.3665    4.0394 H   0  0  0  0  0  0  0  0  0  0  0  0
   12.6423    9.8540    5.3826 H   0  0  0  0  0  0  0  0  0  0  0  0
   11.0805   11.1909    5.7775 C   0  0  0  0  0  0  0  0  0  0  0  0
   11.2427   11.0845    6.7492 H   0  0  0  0  0  0  0  0  0  0  0  0
   11.3873   12.0887    5.4945 H   0  0  0  0  0  0  0  0  0  0  0  0
    9.6196   10.9769    5.4380 C   0  0  0  0  0  0  0  0  0  0  0  0
    9.0394   11.3023    6.1698 H   0  0  0  0  0  0  0  0  0  0  0  0
    9.3811   11.4574    4.6052 H   0  0  0  0  0  0  0  0  0  0  0  0
    6.6302    9.4617    3.5545 O   0  0  0  0  0  0  0  0  0  0  0  0
    7.3907    9.6460    2.3481 C   0  0  0  0  0  0  0  0  0  0  0  0
    6.9755    9.1501    1.5990 H   0  0  0  0  0  0  0  0  0  0  0  0
    8.3162    9.3170    2.4711 H   0  0  0  0  0  0  0  0  0  0  0  0
    7.3929   11.1329    2.0603 C   0  0  0  0  0  0  0  0  0  0  0  0
    8.2704   11.5359    2.2817 H   0  0  0  0  0  0  0  0  0  0  0  0
    7.1896   11.3089    1.1070 H   0  0  0  0  0  0  0  0  0  0  0  0
    6.3068   11.6832    2.9533 C   0  0  0  0  0  0  0  0  0  0  0  0
    6.6937   12.2885    3.6335 H   0  0  0  0  0  0  0  0  0  0  0  0
    5.6455   12.1905    2.4195 H   0  0  0  0  0  0  0  0  0  0  0  0
    5.6573   10.5195    3.6077 C   0  0  0  0  0  0  0  0  0  0  0  0
    5.4224   10.7318    4.5450 H   0  0  0  0  0  0  0  0  0  0  0  0
    4.8332   10.2609    3.1230 H   0  0  0  0  0  0  0  0  0  0  0  0
    9.7326    4.5910    3.6853 P   0  0  0  0  0  0  0  0  0  0  0  0
    8.4269    5.9172    4.2694 B   0  0  0  0  0  0  0  0  0  0  0  0
    7.4708    5.4668    4.5388 H   0  0  0  0  0  0  0  0  0  0  0  0
    8.9482    6.3393    5.1907 H   0  0  0  0  0  0  0  0  0  0  0  0
    8.2777    6.7091    3.5056 H   0  0  0  0  0  0  0  0  0  0  0  0
   10.0586    3.3104    5.1292 B   0  0  0  0  0  0  0  0  0  0  0  0
   10.2969    3.9198    5.9903 H   0  0  0  0  0  0  0  0  0  0  0  0
    9.0271    2.7612    5.2522 H   0  0  0  0  0  0  0  0  0  0  0  0
   10.9445    2.6622    4.8955 H   0  0  0  0  0  0  0  0  0  0  0  0
   10.6007    2.4409    1.5468 Si  0  0  0  0  0  0  0  0  0  0  0  0
    7.4832    3.3617    1.8293 Si  0  0  0  0  0  0  0  0  0  0  0  0
    9.3459    3.7926    2.0482 C   0  0  0  0  0  0  0  0  0  0  0  0
    9.5031    4.5224    1.3838 H   0  0  0  0  0  0  0  0  0  0  0  0
   12.3948    2.8544    1.9754 C   0  0  0  0  0  0  0  0  0  0  0  0
   12.9883    2.1772    1.5867 H   0  0  0  0  0  0  0  0  0  0  0  0
   12.6229    3.7358    1.6126 H   0  0  0  0  0  0  0  0  0  0  0  0
   12.5045    2.8650    2.9496 H   0  0  0  0  0  0  0  0  0  0  0  0
   10.5952    2.2752   -0.3321 C   0  0  0  0  0  0  0  0  0  0  0  0
   11.2263    1.5741   -0.5990 H   0  0  0  0  0  0  0  0  0  0  0  0
    9.6947    2.0379   -0.6359 H   0  0  0  0  0  0  0  0  0  0  0  0
   10.8636    3.1269   -0.7356 H   0  0  0  0  0  0  0  0  0  0  0  0
   10.1789    0.7996    2.3457 C   0  0  0  0  0  0  0  0  0  0  0  0
   10.7704    0.1027    1.9927 H   0  0  0  0  0  0  0  0  0  0  0  0
   10.2975    0.8678    3.3162 H   0  0  0  0  0  0  0  0  0  0  0  0
    9.2468    0.5697    2.1464 H   0  0  0  0  0  0  0  0  0  0  0  0
    6.5186    4.9064    1.3887 C   0  0  0  0  0  0  0  0  0  0  0  0
    5.5677    4.6843    1.3038 H   0  0  0  0  0  0  0  0  0  0  0  0
    6.6367    5.5766    2.0935 H   0  0  0  0  0  0  0  0  0  0  0  0
    6.8472    5.2645    0.5375 H   0  0  0  0  0  0  0  0  0  0  0  0
    7.1814    2.1601    0.3973 C   0  0  0  0  0  0  0  0  0  0  0  0
    6.2261    1.9466    0.3456 H   0  0  0  0  0  0  0  0  0  0  0  0
    7.4694    2.5752   -0.4428 H   0  0  0  0  0  0  0  0  0  0  0  0
    7.6926    1.3375    0.5474 H   0  0  0  0  0  0  0  0  0  0  0  0
    6.7371    2.5372    3.3420 C   0  0  0  0  0  0  0  0  0  0  0  0
    5.8041    2.3030    3.1599 H   0  0  0  0  0  0  0  0  0  0  0  0
    7.2427    1.7241    3.5536 H   0  0  0  0  0  0  0  0  0  0  0  0
    6.7773    3.1540    4.1034 H   0  0  0  0  0  0  0  0  0  0  0  0
   11.2701    5.5695    3.3884 C   0  0  0  0  0  0  0  0  0  0  0  0
   12.3227    5.5524    4.3186 C   0  0  0  0  0  0  0  0  0  0  0  0
   12.2587    4.9994    5.0874 H   0  0  0  0  0  0  0  0  0  0  0  0
   13.4620    6.3403    4.1268 C   0  0  0  0  0  0  0  0  0  0  0  0
   14.1595    6.3303    4.7713 H   0  0  0  0  0  0  0  0  0  0  0  0
   13.5732    7.1336    2.9964 C   0  0  0  0  0  0  0  0  0  0  0  0
   14.3552    7.6551    2.8561 H   0  0  0  0  0  0  0  0  0  0  0  0
   12.5410    7.1655    2.0738 C   0  0  0  0  0  0  0  0  0  0  0  0
   12.6198    7.7134    1.3026 H   0  0  0  0  0  0  0  0  0  0  0  0
   11.3827    6.3996    2.2620 C   0  0  0  0  0  0  0  0  0  0  0  0
   10.6764    6.4420    1.6286 H   0  0  0  0  0  0  0  0  0  0  0  0
    8.1164    4.4647    6.8896 Na  0  0  0  0  0  0  0  0  0  0  0  0
    6.1615    3.1877    7.0363 O   0  0  0  0  0  0  0  0  0  0  0  0
    4.8575    3.7765    7.2006 C   0  0  0  0  0  0  0  0  0  0  0  0
    4.8357    4.3386    8.0149 H   0  0  0  0  0  0  0  0  0  0  0  0
    4.6394    4.3463    6.4208 H   0  0  0  0  0  0  0  0  0  0  0  0
    3.8594    2.6500    7.3175 C   0  0  0  0  0  0  0  0  0  0  0  0
    3.7243    2.3814    8.2609 H   0  0  0  0  0  0  0  0  0  0  0  0
    2.9867    2.8939    6.9177 H   0  0  0  0  0  0  0  0  0  0  0  0
    4.5486    1.5570    6.5229 C   0  0  0  0  0  0  0  0  0  0  0  0
    4.3864    1.6634    5.5511 H   0  0  0  0  0  0  0  0  0  0  0  0
    4.2417    0.6592    6.8058 H   0  0  0  0  0  0  0  0  0  0  0  0
    6.0095    1.7711    6.8623 C   0  0  0  0  0  0  0  0  0  0  0  0
    6.5896    1.4457    6.1305 H   0  0  0  0  0  0  0  0  0  0  0  0
    6.2480    1.2906    7.6951 H   0  0  0  0  0  0  0  0  0  0  0  0
    8.9988    3.2863    8.7458 O   0  0  0  0  0  0  0  0  0  0  0  0
    8.2383    3.1020    9.9522 C   0  0  0  0  0  0  0  0  0  0  0  0
    8.6536    3.5978   10.7013 H   0  0  0  0  0  0  0  0  0  0  0  0
    7.3129    3.4310    9.8292 H   0  0  0  0  0  0  0  0  0  0  0  0
    8.2361    1.6150   10.2400 C   0  0  0  0  0  0  0  0  0  0  0  0
    7.3587    1.2121   10.0186 H   0  0  0  0  0  0  0  0  0  0  0  0
    8.4395    1.4391   11.1933 H   0  0  0  0  0  0  0  0  0  0  0  0
    9.3223    1.0648    9.3470 C   0  0  0  0  0  0  0  0  0  0  0  0
    8.9353    0.4595    8.6668 H   0  0  0  0  0  0  0  0  0  0  0  0
    9.9836    0.5575    9.8808 H   0  0  0  0  0  0  0  0  0  0  0  0
    9.9718    2.2284    8.6926 C   0  0  0  0  0  0  0  0  0  0  0  0
   10.2066    2.0162    7.7553 H   0  0  0  0  0  0  0  0  0  0  0  0
   10.7959    2.4871    9.1773 H   0  0  0  0  0  0  0  0  0  0  0  0
  1  2  1  0  0  0  0
  2  3  1  0  0  0  0
  3 49  1  0  0  0  0
  4  2  1  0  0  0  0
  5  2  1  0  0  0  0
  6  1  1  0  0  0  0
  7  6  1  0  0  0  0
  8  6  1  0  0  0  0
  9  6  1  0  0  0  0
 10 12  1  0  0  0  0
 11 12  1  0  0  0  0
 12  1  1  0  0  0  0
 13 12  1  0  0  0  0
 14 10  1  0  0  0  0
 15 14  1  0  0  0  0
 16 14  1  0  0  0  0
 17 14  1  0  0  0  0
 18 10  1  0  0  0  0
 19 18  1  0  0  0  0
 20 18  1  0  0  0  0
 21 18  1  0  0  0  0
 22 10  1  0  0  0  0
 23 22  1  0  0  0  0
 24 22  1  0  0  0  0
 25 22  1  0  0  0  0
 26 11  1  0  0  0  0
 27 26  1  0  0  0  0
 28 26  1  0  0  0  0
 29 26  1  0  0  0  0
 30 11  1  0  0  0  0
 31 30  1  0  0  0  0
 32 30  1  0  0  0  0
 33 30  1  0  0  0  0
 34 11  1  0  0  0  0
 35 34  1  0  0  0  0
 36 34  1  0  0  0  0
 37 34  1  0  0  0  0
 38  1  1  0  0  0  0
 39 38  4  0  0  0  0
 40 39  1  0  0  0  0
 41 39  4  0  0  0  0
 42 41  1  0  0  0  0
 43 41  4  0  0  0  0
 44 43  1  0  0  0  0
 45 43  4  0  0  0  0
 46 45  1  0  0  0  0
 47 38  4  0  0  0  0
 48 47  1  0  0  0  0
 49  4  1  0  0  0  0
 50 49  1  0  0  0  0
 51 50  1  0  0  0  0
 52 51  1  0  0  0  0
 53 51  1  0  0  0  0
 54 51  1  0  0  0  0
 55 54  1  0  0  0  0
 56 54  1  0  0  0  0
 57 54  1  0  0  0  0
 58 57  1  0  0  0  0
 59 57  1  0  0  0  0
 60 50  1  0  0  0  0
 61 60  1  0  0  0  0
 62 60  1  0  0  0  0
 63 49  1  0  0  0  0
 64 63  1  0  0  0  0
 65 64  1  0  0  0  0
 66 64  1  0  0  0  0
 67 64  1  0  0  0  0
 68 67  1  0  0  0  0
 69 67  1  0  0  0  0
 70 67  1  0  0  0  0
 71 70  1  0  0  0  0
 72 70  1  0  0  0  0
 73 63  1  0  0  0  0
 74 73  1  0  0  0  0
 75 73  1  0  0  0  0
 76 77  1  0  0  0  0
 77 78  1  0  0  0  0
 78124  1  0  0  0  0
 79 49  1  0  0  0  0
 80 49  1  0  0  0  0
 81 76  1  0  0  0  0
 82 81  1  0  0  0  0
 83 81  1  0  0  0  0
 84 81  1  0  0  0  0
 85 87  1  0  0  0  0
 86 87  1  0  0  0  0
 87 76  1  0  0  0  0
 88 87  1  0  0  0  0
 89 85  1  0  0  0  0
 90 89  1  0  0  0  0
 91 89  1  0  0  0  0
 92 89  1  0  0  0  0
 93 85  1  0  0  0  0
 94 93  1  0  0  0  0
 95 93  1  0  0  0  0
 96 93  1  0  0  0  0
 97 85  1  0  0  0  0
 98 97  1  0  0  0  0
 99 97  1  0  0  0  0
100 97  1  0  0  0  0
101 86  1  0  0  0  0
102101  1  0  0  0  0
103101  1  0  0  0  0
104101  1  0  0  0  0
105 86  1  0  0  0  0
106105  1  0  0  0  0
107105  1  0  0  0  0
108105  1  0  0  0  0
109 86  1  0  0  0  0
110109  1  0  0  0  0
111109  1  0  0  0  0
112109  1  0  0  0  0
113 76  1  0  0  0  0
114113  4  0  0  0  0
115114  1  0  0  0  0
116114  4  0  0  0  0
117116  1  0  0  0  0
118116  4  0  0  0  0
119118  1  0  0  0  0
120118  4  0  0  0  0
121120  1  0  0  0  0
122113  4  0  0  0  0
123122  1  0  0  0  0
124  4  1  0  0  0  0
125124  1  0  0  0  0
126125  1  0  0  0  0
127126  1  0  0  0  0
128126  1  0  0  0  0
129126  1  0  0  0  0
130129  1  0  0  0  0
131129  1  0  0  0  0
132129  1  0  0  0  0
133132  1  0  0  0  0
134132  1  0  0  0  0
135125  1  0  0  0  0
136135  1  0  0  0  0
137135  1  0  0  0  0
138124  1  0  0  0  0
139138  1  0  0  0  0
140139  1  0  0  0  0
141139  1  0  0  0  0
142139  1  0  0  0  0
143142  1  0  0  0  0
144142  1  0  0  0  0
145142  1  0  0  0  0
146145  1  0  0  0  0
147145  1  0  0  0  0
148138  1  0  0  0  0
149148  1  0  0  0  0
150148  1  0  0  0  0
  5124  1  0  0  0  0
  7 49  1  0  0  0  0
  8 49  1  0  0  0  0
 45 47  4  0  0  0  0
 57 60  1  0  0  0  0
 70 73  1  0  0  0  0
 77 79  1  0  0  0  0
 77 80  1  0  0  0  0
 79124  1  0  0  0  0
 82124  1  0  0  0  0
 83124  1  0  0  0  0
120122  4  0  0  0  0
132135  1  0  0  0  0
145148  1  0  0  0  0
M  END
$$$$
MICYAA

From CSD data. Using bond type 'Any'. Matching problem. No disordered atoms. Largest molecule.
118129  0  0  0  0  0  0  0  0999 V2000
    2.2487    1.2102    7.5198 K   0  0  0  0  0  0  0  0  0  0  0  0
    2.1085    3.4051    4.3510 P   0  0  0  0  0  0  0  0  0  0  0  0
    3.8827    3.8285    1.7916 Si  0  0  0  0  0  0  0  0  0  0  0  0
    1.9575    1.2811    2.0271 Si  0  0  0  0  0  0  0  0  0  0  0  0
    0.5415    2.5942    5.1610 B   0  0  0  0  0  0  0  0  0  0  0  0
    0.5678    3.0383    6.1976 H   0  0  0  0  0  0  0  0  0  0  0  0
    0.6468    1.5127    5.2647 H   0  0  0  0  0  0  0  0  0  0  0  0
   -0.3443    2.8865    4.6063 H   0  0  0  0  0  0  0  0  0  0  0  0
    3.7190    3.0129    5.3594 B   0  0  0  0  0  0  0  0  0  0  0  0
    3.8856    1.9159    5.3287 H   0  0  0  0  0  0  0  0  0  0  0  0
    3.5048    3.3391    6.4365 H   0  0  0  0  0  0  0  0  0  0  0  0
    4.5681    3.5587    4.9732 H   0  0  0  0  0  0  0  0  0  0  0  0
    2.3156    3.0750    2.5517 C   0  0  0  0  0  0  0  0  0  0  0  0
    1.5746    3.5967    2.1289 H   0  0  0  0  0  0  0  0  0  0  0  0
    3.5543    4.1677   -0.0201 C   0  0  0  0  0  0  0  0  0  0  0  0
    4.3968    4.3888   -0.4693 H   0  0  0  0  0  0  0  0  0  0  0  0
    2.9325    4.9206   -0.1038 H   0  0  0  0  0  0  0  0  0  0  0  0
    3.1619    3.3718   -0.4352 H   0  0  0  0  0  0  0  0  0  0  0  0
    4.3789    5.4915    2.4874 C   0  0  0  0  0  0  0  0  0  0  0  0
    5.1675    5.8234    2.0095 H   0  0  0  0  0  0  0  0  0  0  0  0
    4.5887    5.3974    3.4401 H   0  0  0  0  0  0  0  0  0  0  0  0
    3.6398    6.1255    2.3778 H   0  0  0  0  0  0  0  0  0  0  0  0
    5.3318    2.6702    1.9779 C   0  0  0  0  0  0  0  0  0  0  0  0
    6.1257    3.0729    1.5686 H   0  0  0  0  0  0  0  0  0  0  0  0
    5.1299    1.8207    1.5331 H   0  0  0  0  0  0  0  0  0  0  0  0
    5.5005    2.5095    2.9296 H   0  0  0  0  0  0  0  0  0  0  0  0
    2.8058    0.0515    3.1331 C   0  0  0  0  0  0  0  0  0  0  0  0
    2.6470   -0.8556    2.7959 H   0  0  0  0  0  0  0  0  0  0  0  0
    2.4484    0.1287    4.0417 H   0  0  0  0  0  0  0  0  0  0  0  0
    3.7690    0.2312    3.1443 H   0  0  0  0  0  0  0  0  0  0  0  0
    2.4987    0.9475    0.2672 C   0  0  0  0  0  0  0  0  0  0  0  0
    2.2807    0.0219    0.0284 H   0  0  0  0  0  0  0  0  0  0  0  0
    3.4658    1.0848    0.1906 H   0  0  0  0  0  0  0  0  0  0  0  0
    2.0327    1.5592   -0.3399 H   0  0  0  0  0  0  0  0  0  0  0  0
    0.1294    0.9616    2.0250 C   0  0  0  0  0  0  0  0  0  0  0  0
   -0.0385    0.0276    1.7819 H   0  0  0  0  0  0  0  0  0  0  0  0
   -0.3040    1.5520    1.3738 H   0  0  0  0  0  0  0  0  0  0  0  0
   -0.2341    1.1381    2.9182 H   0  0  0  0  0  0  0  0  0  0  0  0
    1.7448    5.1998    4.4237 C   0  0  0  0  0  0  0  0  0  0  0  0
    2.3814    6.0308    5.3222 C   0  0  0  0  0  0  0  0  0  0  0  0
    3.0240    5.6719    5.9232 H   0  0  0  0  0  0  0  0  0  0  0  0
    2.0891    7.3873    5.3552 C   0  0  0  0  0  0  0  0  0  0  0  0
    2.5344    7.9501    5.9786 H   0  0  0  0  0  0  0  0  0  0  0  0
    1.1672    7.9206    4.4996 C   0  0  0  0  0  0  0  0  0  0  0  0
    0.9830    8.8520    4.5167 H   0  0  0  0  0  0  0  0  0  0  0  0
    0.5099    7.1043    3.6165 C   0  0  0  0  0  0  0  0  0  0  0  0
   -0.1369    7.4702    3.0249 H   0  0  0  0  0  0  0  0  0  0  0  0
    0.7861    5.7483    3.5856 C   0  0  0  0  0  0  0  0  0  0  0  0
    0.3131    5.1860    2.9822 H   0  0  0  0  0  0  0  0  0  0  0  0
    2.2313   -1.4785    6.8902 O   0  0  0  0  0  0  0  0  0  0  0  0
    3.2612   -2.0516    6.1422 C   0  0  0  0  0  0  0  0  0  0  0  0
    4.1235   -1.6123    6.3526 H   0  0  0  0  0  0  0  0  0  0  0  0
    3.0817   -1.9439    5.1737 H   0  0  0  0  0  0  0  0  0  0  0  0
    3.3179   -3.5038    6.5005 C   0  0  0  0  0  0  0  0  0  0  0  0
    4.2438   -3.8496    6.4522 H   0  0  0  0  0  0  0  0  0  0  0  0
    2.7384   -4.0427    5.9061 H   0  0  0  0  0  0  0  0  0  0  0  0
    3.3269   -4.1485    7.3311 O   0  0  0  0  0  0  0  0  0  0  0  0
    2.2970   -3.5755    8.0791 C   0  0  0  0  0  0  0  0  0  0  0  0
    1.4347   -4.0147    7.8686 H   0  0  0  0  0  0  0  0  0  0  0  0
    2.4765   -3.6831    9.0476 H   0  0  0  0  0  0  0  0  0  0  0  0
    2.2403   -2.1232    7.7207 C   0  0  0  0  0  0  0  0  0  0  0  0
    1.3144   -1.7774    7.7691 H   0  0  0  0  0  0  0  0  0  0  0  0
    2.8198   -1.5844    8.3152 H   0  0  0  0  0  0  0  0  0  0  0  0
   -2.0688    2.3781    6.7015 K   0  0  0  0  0  0  0  0  0  0  0  0
   -1.9285    0.1832    9.8703 P   0  0  0  0  0  0  0  0  0  0  0  0
   -3.7028   -0.2401   12.4297 Si  0  0  0  0  0  0  0  0  0  0  0  0
   -1.7775    2.3073   12.1942 Si  0  0  0  0  0  0  0  0  0  0  0  0
   -0.3615    0.9941    9.0602 B   0  0  0  0  0  0  0  0  0  0  0  0
   -0.3879    0.5501    8.0236 H   0  0  0  0  0  0  0  0  0  0  0  0
   -0.4668    2.0756    8.9566 H   0  0  0  0  0  0  0  0  0  0  0  0
    0.5243    0.7019    9.6150 H   0  0  0  0  0  0  0  0  0  0  0  0
   -3.5390    0.5754    8.8618 B   0  0  0  0  0  0  0  0  0  0  0  0
   -3.7057    1.6724    8.8926 H   0  0  0  0  0  0  0  0  0  0  0  0
   -3.3248    0.2493    7.7847 H   0  0  0  0  0  0  0  0  0  0  0  0
   -4.3881    0.0296    9.2481 H   0  0  0  0  0  0  0  0  0  0  0  0
   -2.1356    0.5134   11.6696 C   0  0  0  0  0  0  0  0  0  0  0  0
   -1.3946   -0.0083   12.0924 H   0  0  0  0  0  0  0  0  0  0  0  0
   -3.3743   -0.5793   14.2413 C   0  0  0  0  0  0  0  0  0  0  0  0
   -4.2168   -0.8005   14.6906 H   0  0  0  0  0  0  0  0  0  0  0  0
   -2.7525   -1.3323   14.3251 H   0  0  0  0  0  0  0  0  0  0  0  0
   -2.9820    0.2166   14.6564 H   0  0  0  0  0  0  0  0  0  0  0  0
   -4.1989   -1.9032   11.7338 C   0  0  0  0  0  0  0  0  0  0  0  0
   -4.9875   -2.2350   12.2118 H   0  0  0  0  0  0  0  0  0  0  0  0
   -4.4087   -1.8090   10.7811 H   0  0  0  0  0  0  0  0  0  0  0  0
   -3.4599   -2.5372   11.8435 H   0  0  0  0  0  0  0  0  0  0  0  0
   -5.1518    0.9181   12.2434 C   0  0  0  0  0  0  0  0  0  0  0  0
   -5.9458    0.5155   12.6527 H   0  0  0  0  0  0  0  0  0  0  0  0
   -4.9499    1.7676   12.6882 H   0  0  0  0  0  0  0  0  0  0  0  0
   -5.3206    1.0789   11.2917 H   0  0  0  0  0  0  0  0  0  0  0  0
   -2.6258    3.5369   11.0882 C   0  0  0  0  0  0  0  0  0  0  0  0
   -2.4671    4.4439   11.4254 H   0  0  0  0  0  0  0  0  0  0  0  0
   -2.2684    3.4596   10.1796 H   0  0  0  0  0  0  0  0  0  0  0  0
   -3.5890    3.3571   11.0770 H   0  0  0  0  0  0  0  0  0  0  0  0
   -2.3187    2.6408   13.9541 C   0  0  0  0  0  0  0  0  0  0  0  0
   -2.1007    3.5664   14.1928 H   0  0  0  0  0  0  0  0  0  0  0  0
   -3.2858    2.5035   14.0307 H   0  0  0  0  0  0  0  0  0  0  0  0
   -1.8527    2.0291   14.5612 H   0  0  0  0  0  0  0  0  0  0  0  0
    0.0506    2.6268   12.1963 C   0  0  0  0  0  0  0  0  0  0  0  0
    0.2184    3.5608   12.4394 H   0  0  0  0  0  0  0  0  0  0  0  0
    0.4840    2.0363   12.8475 H   0  0  0  0  0  0  0  0  0  0  0  0
    0.4140    2.4502   11.3031 H   0  0  0  0  0  0  0  0  0  0  0  0
   -1.5649   -1.6115    9.7976 C   0  0  0  0  0  0  0  0  0  0  0  0
   -2.2014   -2.4424    8.8991 C   0  0  0  0  0  0  0  0  0  0  0  0
   -2.8440   -2.0835    8.2981 H   0  0  0  0  0  0  0  0  0  0  0  0
   -1.9091   -3.7990    8.8661 C   0  0  0  0  0  0  0  0  0  0  0  0
   -2.3545   -4.3617    8.2427 H   0  0  0  0  0  0  0  0  0  0  0  0
   -0.9873   -4.3323    9.7217 C   0  0  0  0  0  0  0  0  0  0  0  0
   -0.8030   -5.2637    9.7046 H   0  0  0  0  0  0  0  0  0  0  0  0
   -0.3300   -3.5160   10.6048 C   0  0  0  0  0  0  0  0  0  0  0  0
    0.3169   -3.8819   11.1964 H   0  0  0  0  0  0  0  0  0  0  0  0
   -0.6062   -2.1600   10.6357 C   0  0  0  0  0  0  0  0  0  0  0  0
   -0.1332   -1.5977   11.2391 H   0  0  0  0  0  0  0  0  0  0  0  0
   -6.2414    1.2102    7.5198 K   0  0  0  0  0  0  0  0  0  0  0  0
    3.3094   -6.8372    6.7015 K   0  0  0  0  0  0  0  0  0  0  0  0
    6.4213    2.3781    6.7015 K   0  0  0  0  0  0  0  0  0  0  0  0
   -3.9220    3.5587    4.9732 H   0  0  0  0  0  0  0  0  0  0  0  0
    4.1020    0.0296    9.2481 H   0  0  0  0  0  0  0  0  0  0  0  0
   -2.0514    5.0669    7.3311 O   0  0  0  0  0  0  0  0  0  0  0  0
  1  6  1  0  0  0  0
  2  5  1  0  0  0  0
  3 13  1  0  0  0  0
  4 13  1  0  0  0  0
  5  6  1  0  0  0  0
  6 64  1  0  0  0  0
  7  1  1  0  0  0  0
  8  5  1  0  0  0  0
  9  2  1  0  0  0  0
 10  1  1  0  0  0  0
 11  1  1  0  0  0  0
 12  9  1  0  0  0  0
 13  2  1  0  0  0  0
 14 13  1  0  0  0  0
 15  3  1  0  0  0  0
 16 15  1  0  0  0  0
 17 15  1  0  0  0  0
 18 15  1  0  0  0  0
 19  3  1  0  0  0  0
 20 19  1  0  0  0  0
 21 19  1  0  0  0  0
 22 19  1  0  0  0  0
 23  3  1  0  0  0  0
 24 23  1  0  0  0  0
 25 23  1  0  0  0  0
 26 23  1  0  0  0  0
 27  4  1  0  0  0  0
 28 27  1  0  0  0  0
 29 27  1  0  0  0  0
 30 27  1  0  0  0  0
 31  4  1  0  0  0  0
 32 31  1  0  0  0  0
 33 31  1  0  0  0  0
 34 31  1  0  0  0  0
 35  4  1  0  0  0  0
 36 35  1  0  0  0  0
 37 35  1  0  0  0  0
 38 35  1  0  0  0  0
 39  2  1  0  0  0  0
 40 39  1  0  0  0  0
 41 40  1  0  0  0  0
 42 40  1  0  0  0  0
 43 42  1  0  0  0  0
 44 42  1  0  0  0  0
 45 44  1  0  0  0  0
 46 44  1  0  0  0  0
 47 46  1  0  0  0  0
 48 39  1  0  0  0  0
 49 48  1  0  0  0  0
 50  1  1  0  0  0  0
 51 50  1  0  0  0  0
 52 51  1  0  0  0  0
 53 51  1  0  0  0  0
 54 51  1  0  0  0  0
 55 54  1  0  0  0  0
 56 54  1  0  0  0  0
 57 54  1  0  0  0  0
 58 57  1  0  0  0  0
 59 58  1  0  0  0  0
 60 58  1  0  0  0  0
 61 50  1  0  0  0  0
 62 61  1  0  0  0  0
 63 61  1  0  0  0  0
 64  8  1  0  0  0  0
 65 68  1  0  0  0  0
 66 76  1  0  0  0  0
 67 76  1  0  0  0  0
 68 69  1  0  0  0  0
 69  1  1  0  0  0  0
 70 64  1  0  0  0  0
 71  1  1  0  0  0  0
 72 65  1  0  0  0  0
 73 64  1  0  0  0  0
 74 64  1  0  0  0  0
 75 72  1  0  0  0  0
 76 65  1  0  0  0  0
 77 76  1  0  0  0  0
 78 66  1  0  0  0  0
 79 78  1  0  0  0  0
 80 78  1  0  0  0  0
 81 78  1  0  0  0  0
 82 66  1  0  0  0  0
 83 82  1  0  0  0  0
 84 82  1  0  0  0  0
 85 82  1  0  0  0  0
 86 66  1  0  0  0  0
 87 86  1  0  0  0  0
 88 86  1  0  0  0  0
 89 86  1  0  0  0  0
 90 67  1  0  0  0  0
 91 90  1  0  0  0  0
 92 90  1  0  0  0  0
 93 90  1  0  0  0  0
 94 67  1  0  0  0  0
 95 94  1  0  0  0  0
 96 94  1  0  0  0  0
 97 94  1  0  0  0  0
 98 67  1  0  0  0  0
 99 98  1  0  0  0  0
100 98  1  0  0  0  0
101 98  1  0  0  0  0
102 65  1  0  0  0  0
103102  1  0  0  0  0
104103  1  0  0  0  0
105103  1  0  0  0  0
106105  1  0  0  0  0
107105  1  0  0  0  0
108107  1  0  0  0  0
109107  1  0  0  0  0
110109  1  0  0  0  0
111102  1  0  0  0  0
112111  1  0  0  0  0
113 75  1  0  0  0  0
114 57  1  0  0  0  0
115 12  1  0  0  0  0
116 64  1  0  0  0  0
117  1  1  0  0  0  0
118 64  1  0  0  0  0
  5  7  1  0  0  0  0
  9 10  1  0  0  0  0
  9 11  1  0  0  0  0
 46 48  1  0  0  0  0
 58 61  1  0  0  0  0
 64 69  1  0  0  0  0
 68 70  1  0  0  0  0
 68 71  1  0  0  0  0
 72 73  1  0  0  0  0
 72 74  1  0  0  0  0
109111  1  0  0  0  0
M  END
$$$$
MIDMIZ

From CSD data. Using bond type 'Any'. No disordered atoms. Largest molecule.
 87 91  0  0  0  0  0  0  0  0999 V2000
    2.6632    8.9431   11.4146 P   0  3  0  0  0  0  0  0  0  0  0  0
    2.5946    2.5801   10.9990 P   0  3  0  0  0  0  0  0  0  0  0  0
    4.3323    9.0849    8.9812 O   0  0  0  0  0  0  0  0  0  0  0  0
    2.5214    7.4322   10.8706 O   0  0  0  0  0  0  0  0  0  0  0  0
    3.7071    0.6590   13.1289 O   0  0  0  0  0  0  0  0  0  0  0  0
    3.0895    3.9397   11.8292 N   0  0  0  0  0  0  0  0  0  0  0  0
    1.7466    9.8548   10.1609 C   0  0  0  0  0  0  0  0  0  0  0  0
    1.4472   11.1901   10.4218 C   0  0  0  0  0  0  0  0  0  0  0  0
    1.7441   11.5955   11.2280 H   0  0  0  0  0  0  0  0  0  0  0  0
    0.7109   11.9300    9.4981 C   0  0  0  0  0  0  0  0  0  0  0  0
    0.5245   12.8466    9.6642 H   0  0  0  0  0  0  0  0  0  0  0  0
    0.2534   11.3294    8.3400 C   0  0  0  0  0  0  0  0  0  0  0  0
   -0.2636   11.8300    7.7198 H   0  0  0  0  0  0  0  0  0  0  0  0
    0.5450   10.0024    8.0814 C   0  0  0  0  0  0  0  0  0  0  0  0
    0.2322    9.5963    7.2816 H   0  0  0  0  0  0  0  0  0  0  0  0
    1.2935    9.2617    8.9867 C   0  0  0  0  0  0  0  0  0  0  0  0
    1.4958    8.3516    8.8045 H   0  0  0  0  0  0  0  0  0  0  0  0
    4.4054    9.3680   11.3013 C   0  0  0  0  0  0  0  0  0  0  0  0
    5.1166    9.6361   12.4737 C   0  0  0  0  0  0  0  0  0  0  0  0
    4.6604    9.6528   13.3067 H   0  0  0  0  0  0  0  0  0  0  0  0
    6.4872    9.8795   12.4338 C   0  0  0  0  0  0  0  0  0  0  0  0
    6.9677   10.0596   13.2331 H   0  0  0  0  0  0  0  0  0  0  0  0
    7.1392    9.8550   11.2119 C   0  0  0  0  0  0  0  0  0  0  0  0
    8.0752   10.0168   11.1831 H   0  0  0  0  0  0  0  0  0  0  0  0
    6.4628    9.6008   10.0325 C   0  0  0  0  0  0  0  0  0  0  0  0
    6.9273    9.5932    9.2041 H   0  0  0  0  0  0  0  0  0  0  0  0
    5.0901    9.3560   10.0727 C   0  0  0  0  0  0  0  0  0  0  0  0
    4.9711    9.1024    7.6999 C   0  0  0  0  0  0  0  0  0  0  0  0
    4.3097    8.9144    7.0021 H   0  0  0  0  0  0  0  0  0  0  0  0
    5.6743    8.4198    7.6761 H   0  0  0  0  0  0  0  0  0  0  0  0
    5.3681    9.9851    7.5448 H   0  0  0  0  0  0  0  0  0  0  0  0
    3.3189    6.3914   11.5080 C   0  0  0  0  0  0  0  0  0  0  0  0
    3.5776    6.6856   12.4280 H   0  0  0  0  0  0  0  0  0  0  0  0
    4.5630    6.1232   10.6964 C   0  0  0  0  0  0  0  0  0  0  0  0
    5.8032    6.1191   11.3196 C   0  0  0  0  0  0  0  0  0  0  0  0
    5.8632    6.3022   12.2500 H   0  0  0  0  0  0  0  0  0  0  0  0
    6.9615    5.8484   10.5922 C   0  0  0  0  0  0  0  0  0  0  0  0
    7.8066    5.8398   11.0268 H   0  0  0  0  0  0  0  0  0  0  0  0
    6.8763    5.5923    9.2346 C   0  0  0  0  0  0  0  0  0  0  0  0
    7.6631    5.4044    8.7359 H   0  0  0  0  0  0  0  0  0  0  0  0
    5.6430    5.6103    8.6032 C   0  0  0  0  0  0  0  0  0  0  0  0
    5.5892    5.4391    7.6703 H   0  0  0  0  0  0  0  0  0  0  0  0
    4.4878    5.8762    9.3219 C   0  0  0  0  0  0  0  0  0  0  0  0
    3.6464    5.8906    8.8812 H   0  0  0  0  0  0  0  0  0  0  0  0
    2.3516    5.1906   11.6033 C   0  0  0  0  0  0  0  0  0  0  0  0
    1.8922    5.1085   10.7190 H   0  0  0  0  0  0  0  0  0  0  0  0
    1.2695    5.4417   12.6554 C   0  0  0  0  0  0  0  0  0  0  0  0
    0.6034    4.7241   12.6167 H   0  0  0  0  0  0  0  0  0  0  0  0
    0.8344    6.3016   12.4776 H   0  0  0  0  0  0  0  0  0  0  0  0
    1.6781    5.4604   13.5461 H   0  0  0  0  0  0  0  0  0  0  0  0
    3.7560    3.7840   13.1310 C   0  0  0  0  0  0  0  0  0  0  0  0
    3.0894    3.5607   13.8141 H   0  0  0  0  0  0  0  0  0  0  0  0
    4.2021    4.6224   13.3717 H   0  0  0  0  0  0  0  0  0  0  0  0
    4.4191    3.0650   13.0743 H   0  0  0  0  0  0  0  0  0  0  0  0
    4.1037    1.7363   10.4640 C   0  0  0  0  0  0  0  0  0  0  0  0
    4.0398    0.4011   10.0654 C   0  0  0  0  0  0  0  0  0  0  0  0
    3.2206   -0.0755   10.1343 H   0  0  0  0  0  0  0  0  0  0  0  0
    5.1688   -0.2319    9.5683 C   0  0  0  0  0  0  0  0  0  0  0  0
    5.1258   -1.1453    9.3106 H   0  0  0  0  0  0  0  0  0  0  0  0
    6.3585    0.4658    9.4471 C   0  0  0  0  0  0  0  0  0  0  0  0
    7.1301    0.0293    9.1060 H   0  0  0  0  0  0  0  0  0  0  0  0
    6.4283    1.7965    9.8213 C   0  0  0  0  0  0  0  0  0  0  0  0
    7.2427    2.2756    9.7265 H   0  0  0  0  0  0  0  0  0  0  0  0
    5.2983    2.4331   10.3380 C   0  0  0  0  0  0  0  0  0  0  0  0
    5.3468    3.3440   10.6035 H   0  0  0  0  0  0  0  0  0  0  0  0
    1.7238    1.4437   12.1260 C   0  0  0  0  0  0  0  0  0  0  0  0
    0.3283    1.4201   12.0325 C   0  0  0  0  0  0  0  0  0  0  0  0
   -0.1103    2.0034   11.4242 H   0  0  0  0  0  0  0  0  0  0  0  0
   -0.4271    0.5538   12.8188 C   0  0  0  0  0  0  0  0  0  0  0  0
   -1.3743    0.5472   12.7514 H   0  0  0  0  0  0  0  0  0  0  0  0
    0.2158   -0.2948   13.6959 C   0  0  0  0  0  0  0  0  0  0  0  0
   -0.2959   -0.9012   14.2186 H   0  0  0  0  0  0  0  0  0  0  0  0
    1.5806   -0.2772   13.8258 C   0  0  0  0  0  0  0  0  0  0  0  0
    2.0048   -0.8568   14.4477 H   0  0  0  0  0  0  0  0  0  0  0  0
    2.3513    0.5911   13.0459 C   0  0  0  0  0  0  0  0  0  0  0  0
    4.3889   -0.4658   13.6554 C   0  0  0  0  0  0  0  0  0  0  0  0
    4.0814   -1.2771   13.1998 H   0  0  0  0  0  0  0  0  0  0  0  0
    4.2044   -0.5400   14.6150 H   0  0  0  0  0  0  0  0  0  0  0  0
    5.3530   -0.3583   13.5156 H   0  0  0  0  0  0  0  0  0  0  0  0
    1.9152    9.1968   13.1461 B   0  5  0  0  0  0  0  0  0  0  0  0
    0.8551    9.0042   13.1114 H   0  0  0  0  0  0  0  0  0  0  0  0
    2.0856   10.2123   13.4656 H   0  0  0  0  0  0  0  0  0  0  0  0
    2.3813    8.5181   13.8412 H   0  0  0  0  0  0  0  0  0  0  0  0
    1.4953    2.9755    9.4699 B   0  5  0  0  0  0  0  0  0  0  0  0
    0.5804    3.4624    9.7975 H   0  0  0  0  0  0  0  0  0  0  0  0
    1.2496    2.0524    8.9518 H   0  0  0  0  0  0  0  0  0  0  0  0
    2.0358    3.6362    8.7975 H   0  0  0  0  0  0  0  0  0  0  0  0
  1  4  1  0  0  0  0
  2  6  1  0  0  0  0
  3 27  1  0  0  0  0
  4 32  1  0  0  0  0
  5 75  1  0  0  0  0
  6 45  1  0  0  0  0
  7  1  1  0  0  0  0
  8  7  4  0  0  0  0
  9  8  1  0  0  0  0
 10  8  4  0  0  0  0
 11 10  1  0  0  0  0
 12 10  4  0  0  0  0
 13 12  1  0  0  0  0
 14 12  4  0  0  0  0
 15 14  1  0  0  0  0
 16  7  4  0  0  0  0
 17 16  1  0  0  0  0
 18  1  1  0  0  0  0
 19 18  4  0  0  0  0
 20 19  1  0  0  0  0
 21 19  4  0  0  0  0
 22 21  1  0  0  0  0
 23 21  4  0  0  0  0
 24 23  1  0  0  0  0
 25 23  4  0  0  0  0
 26 25  1  0  0  0  0
 27 18  4  0  0  0  0
 28  3  1  0  0  0  0
 29 28  1  0  0  0  0
 30 28  1  0  0  0  0
 31 28  1  0  0  0  0
 32 33  1  0  0  0  0
 34 32  1  0  0  0  0
 35 34  4  0  0  0  0
 36 35  1  0  0  0  0
 37 35  4  0  0  0  0
 38 37  1  0  0  0  0
 39 37  4  0  0  0  0
 40 39  1  0  0  0  0
 41 39  4  0  0  0  0
 42 41  1  0  0  0  0
 43 34  4  0  0  0  0
 44 43  1  0  0  0  0
 45 32  1  0  0  0  0
 46 45  1  0  0  0  0
 47 45  1  0  0  0  0
 48 47  1  0  0  0  0
 49 47  1  0  0  0  0
 50 47  1  0  0  0  0
 51  6  1  0  0  0  0
 52 51  1  0  0  0  0
 53 51  1  0  0  0  0
 54 51  1  0  0  0  0
 55  2  1  0  0  0  0
 56 55  4  0  0  0  0
 57 56  1  0  0  0  0
 58 56  4  0  0  0  0
 59 58  1  0  0  0  0
 60 58  4  0  0  0  0
 61 60  1  0  0  0  0
 62 60  4  0  0  0  0
 63 62  1  0  0  0  0
 64 55  4  0  0  0  0
 65 64  1  0  0  0  0
 66  2  1  0  0  0  0
 67 66  4  0  0  0  0
 68 67  1  0  0  0  0
 69 67  4  0  0  0  0
 70 69  1  0  0  0  0
 71 69  4  0  0  0  0
 72 71  1  0  0  0  0
 73 71  4  0  0  0  0
 74 73  1  0  0  0  0
 75 66  4  0  0  0  0
 76  5  1  0  0  0  0
 77 76  1  0  0  0  0
 78 76  1  0  0  0  0
 79 76  1  0  0  0  0
 80  1  1  0  0  0  0
 81 80  1  0  0  0  0
 82 80  1  0  0  0  0
 83 80  1  0  0  0  0
 84  2  1  0  0  0  0
 85 84  1  0  0  0  0
 86 84  1  0  0  0  0
 87 84  1  0  0  0  0
 14 16  4  0  0  0  0
 25 27  4  0  0  0  0
 41 43  4  0  0  0  0
 62 64  4  0  0  0  0
 73 75  4  0  0  0  0
M  CHG  4   1   1   2   1  80  -1  84  -1
M  END
$$$$
MIDMOF

From CSD data. Using bond type 'Any'. No disordered atoms. Largest molecule.
 89 94  0  0  0  0  0  0  0  0999 V2000
    6.0053    5.5338    4.5944 P   0  3  0  0  0  0  0  0  0  0  0  0
    6.8181   11.0692    1.4870 P   0  3  0  0  0  0  0  0  0  0  0  0
    6.5043    9.9622    2.6127 O   0  0  0  0  0  0  0  0  0  0  0  0
    5.3952    6.5567    3.4222 N   0  0  0  0  0  0  0  0  0  0  0  0
    8.5599   11.4830    1.7380 C   0  0  0  0  0  0  0  0  0  0  0  0
    8.9786   12.4063    2.6883 C   0  0  0  0  0  0  0  0  0  0  0  0
    8.3363   12.8685    3.2144 H   0  0  0  0  0  0  0  0  0  0  0  0
    5.8824   12.4770    2.1159 C   0  0  0  0  0  0  0  0  0  0  0  0
    3.3295    5.3502    5.2177 C   0  0  0  0  0  0  0  0  0  0  0  0
    3.3133    6.2246    4.8464 H   0  0  0  0  0  0  0  0  0  0  0  0
    6.7503    3.0785    7.0596 C   0  0  0  0  0  0  0  0  0  0  0  0
    6.6099    3.9102    7.4966 H   0  0  0  0  0  0  0  0  0  0  0  0
    5.5436    8.0115    3.4850 C   0  0  0  0  0  0  0  0  0  0  0  0
    6.0710    8.2236    4.3073 H   0  0  0  0  0  0  0  0  0  0  0  0
    5.8167    2.6119    6.1428 C   0  0  0  0  0  0  0  0  0  0  0  0
    4.5405    4.6646    5.2866 C   0  0  0  0  0  0  0  0  0  0  0  0
    6.9460    4.2514    3.7204 C   0  0  0  0  0  0  0  0  0  0  0  0
    5.4720   12.5568    3.4470 C   0  0  0  0  0  0  0  0  0  0  0  0
    5.7194   11.8739    4.0593 H   0  0  0  0  0  0  0  0  0  0  0  0
    7.8895    2.3335    7.3399 C   0  0  0  0  0  0  0  0  0  0  0  0
    8.5224    2.6557    7.9708 H   0  0  0  0  0  0  0  0  0  0  0  0
    6.3293    8.5543    2.2805 C   0  0  0  0  0  0  0  0  0  0  0  0
    5.7717    8.4734    1.4543 H   0  0  0  0  0  0  0  0  0  0  0  0
    8.7143    8.0988    2.9405 C   0  0  0  0  0  0  0  0  0  0  0  0
    8.5955    8.6724    3.6883 H   0  0  0  0  0  0  0  0  0  0  0  0
    2.1465    4.7888    5.6773 C   0  0  0  0  0  0  0  0  0  0  0  0
    1.3387    5.2882    5.6562 H   0  0  0  0  0  0  0  0  0  0  0  0
   10.3308   12.6552    2.8715 C   0  0  0  0  0  0  0  0  0  0  0  0
   10.6140   13.2864    3.5223 H   0  0  0  0  0  0  0  0  0  0  0  0
    7.6668    7.8922    2.0523 C   0  0  0  0  0  0  0  0  0  0  0  0
    4.5675    3.3862    5.8753 C   0  0  0  0  0  0  0  0  0  0  0  0
    9.5112   10.8093    0.9718 C   0  0  0  0  0  0  0  0  0  0  0  0
    9.2360   10.1756    0.3201 H   0  0  0  0  0  0  0  0  0  0  0  0
    5.5176   13.4936    1.2298 C   0  0  0  0  0  0  0  0  0  0  0  0
    5.8002   13.4561    0.3237 H   0  0  0  0  0  0  0  0  0  0  0  0
   10.1196    6.6485    1.6532 C   0  0  0  0  0  0  0  0  0  0  0  0
   10.9531    6.2108    1.5252 H   0  0  0  0  0  0  0  0  0  0  0  0
    2.1553    3.4946    6.1660 C   0  0  0  0  0  0  0  0  0  0  0  0
    1.3428    3.0807    6.4320 H   0  0  0  0  0  0  0  0  0  0  0  0
    3.3522    2.8034    6.2671 C   0  0  0  0  0  0  0  0  0  0  0  0
    3.3496    1.9168    6.6085 H   0  0  0  0  0  0  0  0  0  0  0  0
    8.3314    4.2859    3.7956 C   0  0  0  0  0  0  0  0  0  0  0  0
    8.7585    4.9727    4.2942 H   0  0  0  0  0  0  0  0  0  0  0  0
    4.7104    5.9897    2.2534 C   0  0  0  0  0  0  0  0  0  0  0  0
    5.3741    5.6297    1.6287 H   0  0  0  0  0  0  0  0  0  0  0  0
    4.1894    6.6904    1.8084 H   0  0  0  0  0  0  0  0  0  0  0  0
    4.1107    5.2708    2.5431 H   0  0  0  0  0  0  0  0  0  0  0  0
    4.7413   14.5594    1.6700 C   0  0  0  0  0  0  0  0  0  0  0  0
    4.4943   15.2481    1.0635 H   0  0  0  0  0  0  0  0  0  0  0  0
    7.8672    7.0766    0.9499 C   0  0  0  0  0  0  0  0  0  0  0  0
    7.1591    6.9410    0.3316 H   0  0  0  0  0  0  0  0  0  0  0  0
    6.3343    3.2546    2.9593 C   0  0  0  0  0  0  0  0  0  0  0  0
    5.3878    3.2309    2.8813 H   0  0  0  0  0  0  0  0  0  0  0  0
   10.8644   11.0676    1.1641 C   0  0  0  0  0  0  0  0  0  0  0  0
   11.5131   10.6085    0.6430 H   0  0  0  0  0  0  0  0  0  0  0  0
    8.4874    2.3285    2.4302 C   0  0  0  0  0  0  0  0  0  0  0  0
    9.0140    1.6579    2.0121 H   0  0  0  0  0  0  0  0  0  0  0  0
    4.3282   14.6195    2.9877 C   0  0  0  0  0  0  0  0  0  0  0  0
    3.7855   15.3414    3.2815 H   0  0  0  0  0  0  0  0  0  0  0  0
    9.9333    7.4707    2.7399 C   0  0  0  0  0  0  0  0  0  0  0  0
   10.6440    7.6091    3.3547 H   0  0  0  0  0  0  0  0  0  0  0  0
    4.7051   13.6274    3.8808 C   0  0  0  0  0  0  0  0  0  0  0  0
    4.4373   13.6817    4.7912 H   0  0  0  0  0  0  0  0  0  0  0  0
    7.1603    0.6410    5.8128 C   0  0  0  0  0  0  0  0  0  0  0  0
    7.2976   -0.1964    5.3860 H   0  0  0  0  0  0  0  0  0  0  0  0
    4.1954    8.7181    3.6114 C   0  0  0  0  0  0  0  0  0  0  0  0
    3.6457    8.5157    2.8260 H   0  0  0  0  0  0  0  0  0  0  0  0
    4.3387    9.6860    3.6694 H   0  0  0  0  0  0  0  0  0  0  0  0
    3.7380    8.4065    4.4199 H   0  0  0  0  0  0  0  0  0  0  0  0
    7.1087    2.2958    2.3140 C   0  0  0  0  0  0  0  0  0  0  0  0
    6.6914    1.6188    1.7949 H   0  0  0  0  0  0  0  0  0  0  0  0
   11.2654   11.9836    2.1049 C   0  0  0  0  0  0  0  0  0  0  0  0
   12.1909   12.1571    2.2312 H   0  0  0  0  0  0  0  0  0  0  0  0
    9.0852    6.4576    0.7421 C   0  0  0  0  0  0  0  0  0  0  0  0
    9.2158    5.9056   -0.0197 H   0  0  0  0  0  0  0  0  0  0  0  0
    8.1053    1.1229    6.7020 C   0  0  0  0  0  0  0  0  0  0  0  0
    8.8963    0.6264    6.8747 H   0  0  0  0  0  0  0  0  0  0  0  0
    6.9788    6.5167    5.9341 B   0  5  0  0  0  0  0  0  0  0  0  0
    7.7571    7.1203    5.4514 H   0  0  0  0  0  0  0  0  0  0  0  0
    7.4435    5.8147    6.6362 H   0  0  0  0  0  0  0  0  0  0  0  0
    6.2897    7.1753    6.4762 H   0  0  0  0  0  0  0  0  0  0  0  0
    6.0211    1.3703    5.5443 C   0  0  0  0  0  0  0  0  0  0  0  0
    5.3698    1.0232    4.9456 H   0  0  0  0  0  0  0  0  0  0  0  0
    9.0975    3.3319    3.1516 C   0  0  0  0  0  0  0  0  0  0  0  0
   10.0448    3.3667    3.2071 H   0  0  0  0  0  0  0  0  0  0  0  0
    6.3346   10.5780   -0.2968 B   0  5  0  0  0  0  0  0  0  0  0  0
    6.9022    9.6795   -0.5975 H   0  0  0  0  0  0  0  0  0  0  0  0
    6.5703   11.4096   -0.9847 H   0  0  0  0  0  0  0  0  0  0  0  0
    5.2521   10.3606   -0.3381 H   0  0  0  0  0  0  0  0  0  0  0  0
  1  4  1  0  0  0  0
  2  3  1  0  0  0  0
  3 22  1  0  0  0  0
  4 13  1  0  0  0  0
  5  2  1  0  0  0  0
  6  5  4  0  0  0  0
  7  6  1  0  0  0  0
  8  2  1  0  0  0  0
  9 10  1  0  0  0  0
 11 12  1  0  0  0  0
 13 14  1  0  0  0  0
 15 11  4  0  0  0  0
 16  1  1  0  0  0  0
 17  1  1  0  0  0  0
 18  8  4  0  0  0  0
 19 18  1  0  0  0  0
 20 11  4  0  0  0  0
 21 20  1  0  0  0  0
 22 13  1  0  0  0  0
 23 22  1  0  0  0  0
 24 25  1  0  0  0  0
 26  9  4  0  0  0  0
 27 26  1  0  0  0  0
 28  6  4  0  0  0  0
 29 28  1  0  0  0  0
 30 22  1  0  0  0  0
 31 15  1  0  0  0  0
 32  5  4  0  0  0  0
 33 32  1  0  0  0  0
 34  8  4  0  0  0  0
 35 34  1  0  0  0  0
 36 37  1  0  0  0  0
 38 26  4  0  0  0  0
 39 38  1  0  0  0  0
 40 31  4  0  0  0  0
 41 40  1  0  0  0  0
 42 17  4  0  0  0  0
 43 42  1  0  0  0  0
 44  4  1  0  0  0  0
 45 44  1  0  0  0  0
 46 44  1  0  0  0  0
 47 44  1  0  0  0  0
 48 34  4  0  0  0  0
 49 48  1  0  0  0  0
 50 30  4  0  0  0  0
 51 50  1  0  0  0  0
 52 17  4  0  0  0  0
 53 52  1  0  0  0  0
 54 32  4  0  0  0  0
 55 54  1  0  0  0  0
 56 57  1  0  0  0  0
 58 48  4  0  0  0  0
 59 58  1  0  0  0  0
 60 24  4  0  0  0  0
 61 60  1  0  0  0  0
 62 18  4  0  0  0  0
 63 62  1  0  0  0  0
 64 65  1  0  0  0  0
 66 13  1  0  0  0  0
 67 66  1  0  0  0  0
 68 66  1  0  0  0  0
 69 66  1  0  0  0  0
 70 52  4  0  0  0  0
 71 70  1  0  0  0  0
 72 28  4  0  0  0  0
 73 72  1  0  0  0  0
 74 36  4  0  0  0  0
 75 74  1  0  0  0  0
 76 20  4  0  0  0  0
 77 76  1  0  0  0  0
 78  1  1  0  0  0  0
 79 78  1  0  0  0  0
 80 78  1  0  0  0  0
 81 78  1  0  0  0  0
 82 15  4  0  0  0  0
 83 82  1  0  0  0  0
 84 42  4  0  0  0  0
 85 84  1  0  0  0  0
 86  2  1  0  0  0  0
 87 86  1  0  0  0  0
 88 86  1  0  0  0  0
 89 86  1  0  0  0  0
  9 16  4  0  0  0  0
 16 31  4  0  0  0  0
 24 30  4  0  0  0  0
 36 60  4  0  0  0  0
 38 40  4  0  0  0  0
 50 74  4  0  0  0  0
 54 72  4  0  0  0  0
 56 70  4  0  0  0  0
 56 84  4  0  0  0  0
 58 62  4  0  0  0  0
 64 76  4  0  0  0  0
 64 82  4  0  0  0  0
M  CHG  4   1   1   2   1  78  -1  86  -1
M  END
$$$$
MIDMUL

From CSD data. Using bond type 'Any'. No disordered atoms. Largest molecule.
 88101  0  0  0  0  0  0  0  0999 V2000
    5.4461    1.4418   22.8560 Fe  0  0  0  0  0  0  0  0  0  0  0  0
    4.0274    1.6161   19.6780 P   0  3  0  0  0  0  0  0  0  0  0  0
    4.4673    4.5230   13.8635 P   0  3  0  0  0  0  0  0  0  0  0  0
    4.5268    3.5349   15.1283 O   0  0  0  0  0  0  0  0  0  0  0  0
    3.6303    2.8662   18.6227 N   0  0  0  0  0  0  0  0  0  0  0  0
    5.1080    0.2416   18.8839 B   0  5  0  0  0  0  0  0  0  0  0  0
    4.5965   -0.1383   17.9029 H   0  0  0  0  0  0  0  0  0  0  0  0
    5.2177   -0.6476   19.6330 H   0  0  0  0  0  0  0  0  0  0  0  0
    6.1574    0.6767   18.6323 H   0  0  0  0  0  0  0  0  0  0  0  0
    3.9331    6.3035   14.1912 B   0  5  0  0  0  0  0  0  0  0  0  0
    2.8993    6.3239   14.4400 H   0  0  0  0  0  0  0  0  0  0  0  0
    4.1026    6.8908   13.3148 H   0  0  0  0  0  0  0  0  0  0  0  0
    4.5030    6.7016   14.9969 H   0  0  0  0  0  0  0  0  0  0  0  0
    4.8511   -0.5355   22.9094 C   0  0  0  0  0  0  0  0  0  0  0  0
    4.3388   -0.9946   22.2533 H   0  0  0  0  0  0  0  0  0  0  0  0
    4.3419    0.1775   24.0430 C   0  0  0  0  0  0  0  0  0  0  0  0
    3.4247    0.2813   24.2667 H   0  0  0  0  0  0  0  0  0  0  0  0
    5.4443    0.7051   24.7780 C   0  0  0  0  0  0  0  0  0  0  0  0
    5.3946    1.2157   25.5767 H   0  0  0  0  0  0  0  0  0  0  0  0
    6.6143    0.3311   24.0996 C   0  0  0  0  0  0  0  0  0  0  0  0
    7.4988    0.5498   24.3675 H   0  0  0  0  0  0  0  0  0  0  0  0
    6.2661   -0.4271   22.9490 C   0  0  0  0  0  0  0  0  0  0  0  0
    6.8742   -0.7956   22.3182 H   0  0  0  0  0  0  0  0  0  0  0  0
    4.8380    2.3234   21.1200 C   0  0  0  0  0  0  0  0  0  0  0  0
    4.2943    3.0270   22.2536 C   0  0  0  0  0  0  0  0  0  0  0  0
    3.3719    3.1544   22.4376 H   0  0  0  0  0  0  0  0  0  0  0  0
    5.3694    3.4956   23.0423 C   0  0  0  0  0  0  0  0  0  0  0  0
    5.2964    3.9967   23.8472 H   0  0  0  0  0  0  0  0  0  0  0  0
    6.5897    3.0786   22.4119 C   0  0  0  0  0  0  0  0  0  0  0  0
    7.4687    3.2488   22.7320 H   0  0  0  0  0  0  0  0  0  0  0  0
    6.2595    2.3714   21.2331 C   0  0  0  0  0  0  0  0  0  0  0  0
    6.8795    1.9926   20.6203 H   0  0  0  0  0  0  0  0  0  0  0  0
    2.4034    0.9518   20.1560 C   0  0  0  0  0  0  0  0  0  0  0  0
    1.9448    0.7393   21.4479 C   0  0  0  0  0  0  0  0  0  0  0  0
    2.4719    1.0090   22.1901 H   0  0  0  0  0  0  0  0  0  0  0  0
    0.7074    0.1266   21.6486 C   0  0  0  0  0  0  0  0  0  0  0  0
    0.3886    0.0043   22.5360 H   0  0  0  0  0  0  0  0  0  0  0  0
   -0.0503   -0.2983   20.6027 C   0  0  0  0  0  0  0  0  0  0  0  0
   -0.8874   -0.7191   20.7568 H   0  0  0  0  0  0  0  0  0  0  0  0
    0.4011   -0.1157   19.3221 C   0  0  0  0  0  0  0  0  0  0  0  0
   -0.1168   -0.4218   18.5886 H   0  0  0  0  0  0  0  0  0  0  0  0
    1.6185    0.5174   19.0987 C   0  0  0  0  0  0  0  0  0  0  0  0
    1.9162    0.6545   18.2061 H   0  0  0  0  0  0  0  0  0  0  0  0
    3.0054    4.0646   19.2175 C   0  0  0  0  0  0  0  0  0  0  0  0
    2.4110    3.7936   19.9486 H   0  0  0  0  0  0  0  0  0  0  0  0
    2.4874    4.5367   18.5333 H   0  0  0  0  0  0  0  0  0  0  0  0
    3.7030    4.6575   19.5671 H   0  0  0  0  0  0  0  0  0  0  0  0
    4.4685    3.0714   17.4337 C   0  0  0  0  0  0  0  0  0  0  0  0
    4.7492    2.1681   17.1099 H   0  0  0  0  0  0  0  0  0  0  0  0
    5.7468    3.8630   17.7362 C   0  0  0  0  0  0  0  0  0  0  0  0
    5.5102    4.7592   18.0523 H   0  0  0  0  0  0  0  0  0  0  0  0
    6.2855    3.9371   16.9191 H   0  0  0  0  0  0  0  0  0  0  0  0
    6.2647    3.3982   18.4258 H   0  0  0  0  0  0  0  0  0  0  0  0
    3.6664    3.7277   16.3114 C   0  0  0  0  0  0  0  0  0  0  0  0
    3.5886    4.7065   16.4985 H   0  0  0  0  0  0  0  0  0  0  0  0
    2.3063    3.1776   16.0372 C   0  0  0  0  0  0  0  0  0  0  0  0
    2.1203    1.8169   15.7290 C   0  0  0  0  0  0  0  0  0  0  0  0
    2.8654    1.2279   15.7318 H   0  0  0  0  0  0  0  0  0  0  0  0
    0.8696    1.3294   15.4237 C   0  0  0  0  0  0  0  0  0  0  0  0
    0.7633    0.4142   15.1921 H   0  0  0  0  0  0  0  0  0  0  0  0
   -0.2301    2.1596   15.4463 C   0  0  0  0  0  0  0  0  0  0  0  0
   -1.0923    1.8140   15.2497 H   0  0  0  0  0  0  0  0  0  0  0  0
   -0.0736    3.4912   15.7601 C   0  0  0  0  0  0  0  0  0  0  0  0
   -0.8301    4.0668   15.7703 H   0  0  0  0  0  0  0  0  0  0  0  0
    1.1807    3.9933   16.0598 C   0  0  0  0  0  0  0  0  0  0  0  0
    1.2734    4.9109   16.2877 H   0  0  0  0  0  0  0  0  0  0  0  0
    6.1497    4.3848   13.2385 C   0  0  0  0  0  0  0  0  0  0  0  0
    7.0661    3.4956   13.7898 C   0  0  0  0  0  0  0  0  0  0  0  0
    6.8037    2.9206   14.4990 H   0  0  0  0  0  0  0  0  0  0  0  0
    8.3616    3.4490   13.3035 C   0  0  0  0  0  0  0  0  0  0  0  0
    8.9940    2.8539   13.6887 H   0  0  0  0  0  0  0  0  0  0  0  0
    8.7357    4.2683   12.2576 C   0  0  0  0  0  0  0  0  0  0  0  0
    9.6278    4.2360   11.9301 H   0  0  0  0  0  0  0  0  0  0  0  0
    7.8372    5.1284   11.6809 C   0  0  0  0  0  0  0  0  0  0  0  0
    8.0973    5.6705   10.9464 H   0  0  0  0  0  0  0  0  0  0  0  0
    6.5396    5.2048   12.1812 C   0  0  0  0  0  0  0  0  0  0  0  0
    5.9200    5.8165   11.8004 H   0  0  0  0  0  0  0  0  0  0  0  0
    3.4452    3.6935   12.6194 C   0  0  0  0  0  0  0  0  0  0  0  0
    3.4270    2.2964   12.5346 C   0  0  0  0  0  0  0  0  0  0  0  0
    3.9321    1.7721   13.1440 H   0  0  0  0  0  0  0  0  0  0  0  0
    2.6706    1.6932   11.5621 C   0  0  0  0  0  0  0  0  0  0  0  0
    2.6586    0.7447   11.5092 H   0  0  0  0  0  0  0  0  0  0  0  0
    1.9377    2.4143   10.6745 C   0  0  0  0  0  0  0  0  0  0  0  0
    1.4176    1.9691   10.0162 H   0  0  0  0  0  0  0  0  0  0  0  0
    1.9464    3.8107   10.7339 C   0  0  0  0  0  0  0  0  0  0  0  0
    1.4436    4.3245   10.1119 H   0  0  0  0  0  0  0  0  0  0  0  0
    2.7025    4.4277   11.7120 C   0  0  0  0  0  0  0  0  0  0  0  0
    2.7122    5.3766   11.7627 H   0  0  0  0  0  0  0  0  0  0  0  0
  1 14  8  0  0  0  0
  2  5  1  0  0  0  0
  3  4  1  0  0  0  0
  4 54  1  0  0  0  0
  5 44  1  0  0  0  0
  6  2  1  0  0  0  0
  7  6  1  0  0  0  0
  8  6  1  0  0  0  0
  9  6  1  0  0  0  0
 10  3  1  0  0  0  0
 11 10  1  0  0  0  0
 12 10  1  0  0  0  0
 13 10  1  0  0  0  0
 14 15  1  0  0  0  0
 16  1  8  0  0  0  0
 17 16  1  0  0  0  0
 18  1  8  0  0  0  0
 19 18  1  0  0  0  0
 20  1  8  0  0  0  0
 21 20  1  0  0  0  0
 22  1  8  0  0  0  0
 23 22  1  0  0  0  0
 24  1  8  0  0  0  0
 25  1  8  0  0  0  0
 26 25  1  0  0  0  0
 27  1  8  0  0  0  0
 28 27  1  0  0  0  0
 29  1  8  0  0  0  0
 30 29  1  0  0  0  0
 31  1  8  0  0  0  0
 32 31  1  0  0  0  0
 33  2  1  0  0  0  0
 34 33  4  0  0  0  0
 35 34  1  0  0  0  0
 36 34  4  0  0  0  0
 37 36  1  0  0  0  0
 38 36  4  0  0  0  0
 39 38  1  0  0  0  0
 40 38  4  0  0  0  0
 41 40  1  0  0  0  0
 42 33  4  0  0  0  0
 43 42  1  0  0  0  0
 44 45  1  0  0  0  0
 46 44  1  0  0  0  0
 47 44  1  0  0  0  0
 48  5  1  0  0  0  0
 49 48  1  0  0  0  0
 50 48  1  0  0  0  0
 51 50  1  0  0  0  0
 52 50  1  0  0  0  0
 53 50  1  0  0  0  0
 54 48  1  0  0  0  0
 55 54  1  0  0  0  0
 56 54  1  0  0  0  0
 57 56  4  0  0  0  0
 58 57  1  0  0  0  0
 59 57  4  0  0  0  0
 60 59  1  0  0  0  0
 61 59  4  0  0  0  0
 62 61  1  0  0  0  0
 63 61  4  0  0  0  0
 64 63  1  0  0  0  0
 65 56  4  0  0  0  0
 66 65  1  0  0  0  0
 67  3  1  0  0  0  0
 68 67  4  0  0  0  0
 69 68  1  0  0  0  0
 70 68  4  0  0  0  0
 71 70  1  0  0  0  0
 72 70  4  0  0  0  0
 73 72  1  0  0  0  0
 74 72  4  0  0  0  0
 75 74  1  0  0  0  0
 76 67  4  0  0  0  0
 77 76  1  0  0  0  0
 78  3  1  0  0  0  0
 79 78  4  0  0  0  0
 80 79  1  0  0  0  0
 81 79  4  0  0  0  0
 82 81  1  0  0  0  0
 83 81  4  0  0  0  0
 84 83  1  0  0  0  0
 85 83  4  0  0  0  0
 86 85  1  0  0  0  0
 87 78  4  0  0  0  0
 88 87  1  0  0  0  0
  2 24  1  0  0  0  0
 14 16  4  0  0  0  0
 14 22  4  0  0  0  0
 16 18  4  0  0  0  0
 18 20  4  0  0  0  0
 20 22  4  0  0  0  0
 24 25  4  0  0  0  0
 24 31  4  0  0  0  0
 25 27  4  0  0  0  0
 27 29  4  0  0  0  0
 29 31  4  0  0  0  0
 40 42  4  0  0  0  0
 63 65  4  0  0  0  0
 74 76  4  0  0  0  0
 85 87  4  0  0  0  0
M  CHG  4   2   1   3   1   6  -1  10  -1
M  END
$$$$
MIDWUV

From CSD data. Using bond type 'Any'. No disordered atoms. Largest molecule.
 88101  0  0  0  0  0  0  0  0999 V2000
   -0.5615    2.5832   31.2482 Fe  0  0  0  0  0  0  0  0  0  0  0  0
    1.0641    5.5513   30.5690 P   0  3  0  0  0  0  0  0  0  0  0  0
    4.3285    5.2489   25.0622 P   0  3  0  0  0  0  0  0  0  0  0  0
    1.9024    4.9302   29.3335 O   0  0  0  0  0  0  0  0  0  0  0  0
   -2.5071    1.9536   31.2509 C   0  0  0  0  0  0  0  0  0  0  0  0
   -3.0790    1.9141   32.0085 H   0  0  0  0  0  0  0  0  0  0  0  0
   -2.3581    3.0642   30.3799 C   0  0  0  0  0  0  0  0  0  0  0  0
   -2.8101    3.8962   30.4510 H   0  0  0  0  0  0  0  0  0  0  0  0
   -1.4082    2.7066   29.3786 C   0  0  0  0  0  0  0  0  0  0  0  0
   -1.1157    3.2601   28.6640 H   0  0  0  0  0  0  0  0  0  0  0  0
   -0.9753    1.3780   29.6372 C   0  0  0  0  0  0  0  0  0  0  0  0
   -0.3429    0.8860   29.1268 H   0  0  0  0  0  0  0  0  0  0  0  0
   -1.6572    0.9158   30.7965 C   0  0  0  0  0  0  0  0  0  0  0  0
   -1.5598    0.0594   31.1965 H   0  0  0  0  0  0  0  0  0  0  0  0
   -0.0896    3.9819   32.6607 C   0  0  0  0  0  0  0  0  0  0  0  0
   -0.6552    4.6744   32.9820 H   0  0  0  0  0  0  0  0  0  0  0  0
    0.0262    2.6737   33.2063 C   0  0  0  0  0  0  0  0  0  0  0  0
   -0.4483    2.3427   33.9596 H   0  0  0  0  0  0  0  0  0  0  0  0
    0.9697    1.9478   32.4359 C   0  0  0  0  0  0  0  0  0  0  0  0
    1.2282    1.0452   32.5807 H   0  0  0  0  0  0  0  0  0  0  0  0
    1.4653    2.8026   31.4057 C   0  0  0  0  0  0  0  0  0  0  0  0
    2.1164    2.5747   30.7524 H   0  0  0  0  0  0  0  0  0  0  0  0
    0.8032    4.0692   31.5347 C   0  0  0  0  0  0  0  0  0  0  0  0
    2.2891    6.4889   31.5235 C   0  0  0  0  0  0  0  0  0  0  0  0
    3.3175    5.8173   32.1918 C   0  0  0  0  0  0  0  0  0  0  0  0
    3.3296    4.8676   32.2042 H   0  0  0  0  0  0  0  0  0  0  0  0
    4.3221    6.5296   32.8385 C   0  0  0  0  0  0  0  0  0  0  0  0
    5.0205    6.0666   33.2861 H   0  0  0  0  0  0  0  0  0  0  0  0
    4.3023    7.9134   32.8299 C   0  0  0  0  0  0  0  0  0  0  0  0
    4.9872    8.3994   33.2746 H   0  0  0  0  0  0  0  0  0  0  0  0
    3.2897    8.5918   32.1751 C   0  0  0  0  0  0  0  0  0  0  0  0
    3.2858    9.5419   32.1648 H   0  0  0  0  0  0  0  0  0  0  0  0
    2.2725    7.8834   31.5289 C   0  0  0  0  0  0  0  0  0  0  0  0
    1.5705    8.3524   31.0931 H   0  0  0  0  0  0  0  0  0  0  0  0
    1.9228    5.5923   28.0311 C   0  0  0  0  0  0  0  0  0  0  0  0
    0.9839    5.7112   27.7082 H   0  0  0  0  0  0  0  0  0  0  0  0
    2.5912    6.9444   28.1213 C   0  0  0  0  0  0  0  0  0  0  0  0
    3.8789    7.0761   28.6493 C   0  0  0  0  0  0  0  0  0  0  0  0
    4.3640    6.3010   28.9078 H   0  0  0  0  0  0  0  0  0  0  0  0
    4.4537    8.3282   28.7991 C   0  0  0  0  0  0  0  0  0  0  0  0
    5.3242    8.4098   29.1700 H   0  0  0  0  0  0  0  0  0  0  0  0
    3.7576    9.4659   28.4074 C   0  0  0  0  0  0  0  0  0  0  0  0
    4.1487   10.3248   28.5142 H   0  0  0  0  0  0  0  0  0  0  0  0
    2.4849    9.3418   27.8583 C   0  0  0  0  0  0  0  0  0  0  0  0
    2.0136   10.1157   27.5729 H   0  0  0  0  0  0  0  0  0  0  0  0
    1.9030    8.0879   27.7265 C   0  0  0  0  0  0  0  0  0  0  0  0
    1.0282    8.0099   27.3640 H   0  0  0  0  0  0  0  0  0  0  0  0
    2.6475    4.5834   27.1191 C   0  0  0  0  0  0  0  0  0  0  0  0
    3.5573    4.4259   27.5031 H   0  0  0  0  0  0  0  0  0  0  0  0
    1.9156    3.2454   27.0988 C   0  0  0  0  0  0  0  0  0  0  0  0
    1.0003    3.3791   26.7756 H   0  0  0  0  0  0  0  0  0  0  0  0
    1.8913    2.8732   28.0050 H   0  0  0  0  0  0  0  0  0  0  0  0
    2.3855    2.6253   26.5033 H   0  0  0  0  0  0  0  0  0  0  0  0
    2.8238    5.1246   25.7585 N   0  0  0  0  0  0  0  0  0  0  0  0
    4.1508    4.5081   23.4105 C   0  0  0  0  0  0  0  0  0  0  0  0
    3.3778    3.3501   23.2743 C   0  0  0  0  0  0  0  0  0  0  0  0
    2.8837    3.0198   24.0153 H   0  0  0  0  0  0  0  0  0  0  0  0
    3.3310    2.6804   22.0540 C   0  0  0  0  0  0  0  0  0  0  0  0
    2.7993    1.8987   21.9627 H   0  0  0  0  0  0  0  0  0  0  0  0
    4.0581    3.1534   20.9714 C   0  0  0  0  0  0  0  0  0  0  0  0
    4.0240    2.6937   20.1405 H   0  0  0  0  0  0  0  0  0  0  0  0
    4.8335    4.2901   21.0982 C   0  0  0  0  0  0  0  0  0  0  0  0
    5.3358    4.6069   20.3571 H   0  0  0  0  0  0  0  0  0  0  0  0
    4.8787    4.9742   22.3135 C   0  0  0  0  0  0  0  0  0  0  0  0
    5.4065    5.7600   22.3952 H   0  0  0  0  0  0  0  0  0  0  0  0
    4.6813    7.0054   24.7689 C   0  0  0  0  0  0  0  0  0  0  0  0
    5.5289    7.6595   25.6583 C   0  0  0  0  0  0  0  0  0  0  0  0
    5.9831    7.1667   26.3313 H   0  0  0  0  0  0  0  0  0  0  0  0
    5.7121    9.0405   25.5626 C   0  0  0  0  0  0  0  0  0  0  0  0
    6.2820    9.4865   26.1777 H   0  0  0  0  0  0  0  0  0  0  0  0
    5.0682    9.7566   24.5784 C   0  0  0  0  0  0  0  0  0  0  0  0
    5.1848   10.6981   24.5262 H   0  0  0  0  0  0  0  0  0  0  0  0
    4.2531    9.1141   23.6669 C   0  0  0  0  0  0  0  0  0  0  0  0
    3.8328    9.6106   22.9745 H   0  0  0  0  0  0  0  0  0  0  0  0
    4.0454    7.7390   23.7598 C   0  0  0  0  0  0  0  0  0  0  0  0
    3.4735    7.3014   23.1402 H   0  0  0  0  0  0  0  0  0  0  0  0
    5.7200    4.3405   26.0135 B   0  5  0  0  0  0  0  0  0  0  0  0
    5.8714    4.8357   27.0311 H   0  0  0  0  0  0  0  0  0  0  0  0
    6.6921    4.3976   25.4155 H   0  0  0  0  0  0  0  0  0  0  0  0
    5.4274    3.2444   26.1601 H   0  0  0  0  0  0  0  0  0  0  0  0
    1.6484    5.6691   25.0690 C   0  0  0  0  0  0  0  0  0  0  0  0
    0.8497    5.1720   25.3425 H   0  0  0  0  0  0  0  0  0  0  0  0
    1.7702    5.5845   24.1001 H   0  0  0  0  0  0  0  0  0  0  0  0
    1.5413    6.6147   25.3032 H   0  0  0  0  0  0  0  0  0  0  0  0
   -0.5146    6.5296   30.1683 B   0  5  0  0  0  0  0  0  0  0  0  0
   -0.2458    7.4870   29.7206 H   0  0  0  0  0  0  0  0  0  0  0  0
   -1.0783    6.7011   31.0835 H   0  0  0  0  0  0  0  0  0  0  0  0
   -1.1259    5.9607   29.4679 H   0  0  0  0  0  0  0  0  0  0  0  0
  1  5  8  0  0  0  0
  2  4  1  0  0  0  0
  3 54  1  0  0  0  0
  4 35  1  0  0  0  0
  5  6  1  0  0  0  0
  7  1  8  0  0  0  0
  8  7  1  0  0  0  0
  9  1  8  0  0  0  0
 10  9  1  0  0  0  0
 11  1  8  0  0  0  0
 12 11  1  0  0  0  0
 13  1  8  0  0  0  0
 14 13  1  0  0  0  0
 15  1  8  0  0  0  0
 16 15  1  0  0  0  0
 17  1  8  0  0  0  0
 18 17  1  0  0  0  0
 19  1  8  0  0  0  0
 20 19  1  0  0  0  0
 21  1  8  0  0  0  0
 22 21  1  0  0  0  0
 23  1  8  0  0  0  0
 24  2  1  0  0  0  0
 25 24  4  0  0  0  0
 26 25  1  0  0  0  0
 27 25  4  0  0  0  0
 28 27  1  0  0  0  0
 29 27  4  0  0  0  0
 30 29  1  0  0  0  0
 31 29  4  0  0  0  0
 32 31  1  0  0  0  0
 33 24  4  0  0  0  0
 34 33  1  0  0  0  0
 35 36  1  0  0  0  0
 37 35  1  0  0  0  0
 38 37  4  0  0  0  0
 39 38  1  0  0  0  0
 40 38  4  0  0  0  0
 41 40  1  0  0  0  0
 42 40  4  0  0  0  0
 43 42  1  0  0  0  0
 44 42  4  0  0  0  0
 45 44  1  0  0  0  0
 46 37  4  0  0  0  0
 47 46  1  0  0  0  0
 48 35  1  0  0  0  0
 49 48  1  0  0  0  0
 50 48  1  0  0  0  0
 51 50  1  0  0  0  0
 52 50  1  0  0  0  0
 53 50  1  0  0  0  0
 54 48  1  0  0  0  0
 55  3  1  0  0  0  0
 56 55  4  0  0  0  0
 57 56  1  0  0  0  0
 58 56  4  0  0  0  0
 59 58  1  0  0  0  0
 60 58  4  0  0  0  0
 61 60  1  0  0  0  0
 62 60  4  0  0  0  0
 63 62  1  0  0  0  0
 64 55  4  0  0  0  0
 65 64  1  0  0  0  0
 66  3  1  0  0  0  0
 67 66  4  0  0  0  0
 68 67  1  0  0  0  0
 69 67  4  0  0  0  0
 70 69  1  0  0  0  0
 71 69  4  0  0  0  0
 72 71  1  0  0  0  0
 73 71  4  0  0  0  0
 74 73  1  0  0  0  0
 75 66  4  0  0  0  0
 76 75  1  0  0  0  0
 77  3  1  0  0  0  0
 78 77  1  0  0  0  0
 79 77  1  0  0  0  0
 80 77  1  0  0  0  0
 81 54  1  0  0  0  0
 82 81  1  0  0  0  0
 83 81  1  0  0  0  0
 84 81  1  0  0  0  0
 85  2  1  0  0  0  0
 86 85  1  0  0  0  0
 87 85  1  0  0  0  0
 88 85  1  0  0  0  0
  2 23  1  0  0  0  0
  5  7  4  0  0  0  0
  5 13  4  0  0  0  0
  7  9  4  0  0  0  0
  9 11  4  0  0  0  0
 11 13  4  0  0  0  0
 15 17  4  0  0  0  0
 15 23  4  0  0  0  0
 17 19  4  0  0  0  0
 19 21  4  0  0  0  0
 21 23  4  0  0  0  0
 31 33  4  0  0  0  0
 44 46  4  0  0  0  0
 62 64  4  0  0  0  0
 73 75  4  0  0  0  0
M  CHG  4   2   1   3   1  77  -1  85  -1
M  END
$$$$
MIDXAC

From CSD data. Using bond type 'Any'. No disordered atoms. Largest molecule.
 81 84  0  0  0  0  0  0  0  0999 V2000
    1.2387   11.5466    5.1591 P   0  3  0  0  0  0  0  0  0  0  0  0
    2.6336   15.5217    0.2400 P   0  3  0  0  0  0  0  0  0  0  0  0
    2.5787   14.8664    1.7190 O   0  0  0  0  0  0  0  0  0  0  0  0
   -3.1222   10.4647    6.1819 C   0  0  0  0  0  0  0  0  0  0  0  0
   -4.0372   10.2718    6.3516 H   0  0  0  0  0  0  0  0  0  0  0  0
   -2.3002    9.4995    5.6424 C   0  0  0  0  0  0  0  0  0  0  0  0
   -2.6464    8.6356    5.4517 H   0  0  0  0  0  0  0  0  0  0  0  0
   -0.9642    9.7856    5.3755 C   0  0  0  0  0  0  0  0  0  0  0  0
   -0.4009    9.1109    5.0149 H   0  0  0  0  0  0  0  0  0  0  0  0
   -0.4475   11.0498    5.6321 C   0  0  0  0  0  0  0  0  0  0  0  0
    1.2041   11.9659    3.5427 N   0  0  0  0  0  0  0  0  0  0  0  0
    1.3814   13.3754    3.1532 C   0  0  0  0  0  0  0  0  0  0  0  0
    1.9009   13.8227    3.8814 H   0  0  0  0  0  0  0  0  0  0  0  0
    2.2281   13.4564    1.8687 C   0  0  0  0  0  0  0  0  0  0  0  0
    1.6731   13.1689    1.0881 H   0  0  0  0  0  0  0  0  0  0  0  0
    4.2865   15.1657   -0.4007 C   0  0  0  0  0  0  0  0  0  0  0  0
    5.3797   15.0347    0.4472 C   0  0  0  0  0  0  0  0  0  0  0  0
    5.2585   15.1117    1.3862 H   0  0  0  0  0  0  0  0  0  0  0  0
    6.6435   14.7932   -0.0633 C   0  0  0  0  0  0  0  0  0  0  0  0
    7.3860   14.7109    0.5232 H   0  0  0  0  0  0  0  0  0  0  0  0
    6.8227   14.6713   -1.4356 C   0  0  0  0  0  0  0  0  0  0  0  0
    7.6889   14.5084   -1.7894 H   0  0  0  0  0  0  0  0  0  0  0  0
    2.6017   17.3148    0.6472 C   0  0  0  0  0  0  0  0  0  0  0  0
    2.6301   18.0736   -0.6932 C   0  0  0  0  0  0  0  0  0  0  0  0
    2.6412   19.0385   -0.5223 H   0  0  0  0  0  0  0  0  0  0  0  0
    1.8334   17.8436   -1.2157 H   0  0  0  0  0  0  0  0  0  0  0  0
    3.4334   17.8214   -1.1947 H   0  0  0  0  0  0  0  0  0  0  0  0
    1.2989   17.6155    1.4011 C   0  0  0  0  0  0  0  0  0  0  0  0
    1.2015   18.5843    1.5117 H   0  0  0  0  0  0  0  0  0  0  0  0
    1.3248   17.1870    2.2821 H   0  0  0  0  0  0  0  0  0  0  0  0
    0.5382   17.2669    0.8907 H   0  0  0  0  0  0  0  0  0  0  0  0
    3.8029   17.7186    1.4927 C   0  0  0  0  0  0  0  0  0  0  0  0
    4.6269   17.5558    0.9881 H   0  0  0  0  0  0  0  0  0  0  0  0
    3.8145   17.1892    2.3172 H   0  0  0  0  0  0  0  0  0  0  0  0
    3.7393   18.6705    1.7165 H   0  0  0  0  0  0  0  0  0  0  0  0
    1.2430   14.9215   -0.9103 B   0  5  0  0  0  0  0  0  0  0  0  0
    1.4649   13.8951   -1.2504 H   0  0  0  0  0  0  0  0  0  0  0  0
    1.1728   15.5929   -1.7847 H   0  0  0  0  0  0  0  0  0  0  0  0
    0.2844   14.9288   -0.3637 H   0  0  0  0  0  0  0  0  0  0  0  0
   -2.6064   11.7258    6.4778 C   0  0  0  0  0  0  0  0  0  0  0  0
   -3.1628   12.3851    6.8755 H   0  0  0  0  0  0  0  0  0  0  0  0
   -1.2819   12.0182    6.1920 C   0  0  0  0  0  0  0  0  0  0  0  0
   -0.9388   12.8843    6.3789 H   0  0  0  0  0  0  0  0  0  0  0  0
    2.2196   10.0237    5.2509 C   0  0  0  0  0  0  0  0  0  0  0  0
    2.1779    9.2575    6.4203 C   0  0  0  0  0  0  0  0  0  0  0  0
    1.5905    9.4983    7.1272 H   0  0  0  0  0  0  0  0  0  0  0  0
    2.9961    8.1466    6.5440 C   0  0  0  0  0  0  0  0  0  0  0  0
    2.9672    7.6262    7.3381 H   0  0  0  0  0  0  0  0  0  0  0  0
    3.8532    7.7898    5.5201 C   0  0  0  0  0  0  0  0  0  0  0  0
    4.4059    7.0226    5.6098 H   0  0  0  0  0  0  0  0  0  0  0  0
    3.9063    8.5504    4.3621 C   0  0  0  0  0  0  0  0  0  0  0  0
    4.4960    8.3077    3.6580 H   0  0  0  0  0  0  0  0  0  0  0  0
    3.0947    9.6674    4.2380 C   0  0  0  0  0  0  0  0  0  0  0  0
    3.1383   10.1943    3.4487 H   0  0  0  0  0  0  0  0  0  0  0  0
    0.4589   11.1080    2.6151 C   0  0  0  0  0  0  0  0  0  0  0  0
   -0.4751   11.4027    2.5759 H   0  0  0  0  0  0  0  0  0  0  0  0
    0.4954   10.1797    2.9274 H   0  0  0  0  0  0  0  0  0  0  0  0
    0.8580   11.1681    1.7221 H   0  0  0  0  0  0  0  0  0  0  0  0
    0.0607   14.1201    3.0150 C   0  0  0  0  0  0  0  0  0  0  0  0
   -0.4795   13.6993    2.3139 H   0  0  0  0  0  0  0  0  0  0  0  0
    0.2359   15.0542    2.7760 H   0  0  0  0  0  0  0  0  0  0  0  0
   -0.4242   14.0859    3.8658 H   0  0  0  0  0  0  0  0  0  0  0  0
    3.4768   12.6198    1.9266 C   0  0  0  0  0  0  0  0  0  0  0  0
    3.6588   11.5686    1.0376 C   0  0  0  0  0  0  0  0  0  0  0  0
    3.0152   11.4078    0.3580 H   0  0  0  0  0  0  0  0  0  0  0  0
    4.7776   10.7510    1.1359 C   0  0  0  0  0  0  0  0  0  0  0  0
    4.8860   10.0221    0.5364 H   0  0  0  0  0  0  0  0  0  0  0  0
    5.7305   10.9955    2.1024 C   0  0  0  0  0  0  0  0  0  0  0  0
    6.4937   10.4336    2.1689 H   0  0  0  0  0  0  0  0  0  0  0  0
    5.5760   12.0638    2.9804 C   0  0  0  0  0  0  0  0  0  0  0  0
    6.2417   12.2469    3.6331 H   0  0  0  0  0  0  0  0  0  0  0  0
    4.4458   12.8581    2.8962 C   0  0  0  0  0  0  0  0  0  0  0  0
    4.3301   13.5753    3.5082 H   0  0  0  0  0  0  0  0  0  0  0  0
    4.4695   15.0335   -1.7807 C   0  0  0  0  0  0  0  0  0  0  0  0
    3.7287   15.1117   -2.3706 H   0  0  0  0  0  0  0  0  0  0  0  0
    5.7409   14.7867   -2.2840 C   0  0  0  0  0  0  0  0  0  0  0  0
    5.8672   14.6969   -3.2213 H   0  0  0  0  0  0  0  0  0  0  0  0
    1.9655   12.8968    6.3013 B   0  5  0  0  0  0  0  0  0  0  0  0
    2.9800   13.1367    5.9805 H   0  0  0  0  0  0  0  0  0  0  0  0
    1.9844   12.5315    7.3297 H   0  0  0  0  0  0  0  0  0  0  0  0
    1.3454   13.7935    6.2454 H   0  0  0  0  0  0  0  0  0  0  0  0
  1 10  1  0  0  0  0
  2  3  1  0  0  0  0
  3 14  1  0  0  0  0
  4  5  1  0  0  0  0
  6  4  4  0  0  0  0
  7  6  1  0  0  0  0
  8  6  4  0  0  0  0
  9  8  1  0  0  0  0
 10  8  4  0  0  0  0
 11  1  1  0  0  0  0
 12 11  1  0  0  0  0
 13 12  1  0  0  0  0
 14 12  1  0  0  0  0
 15 14  1  0  0  0  0
 16  2  1  0  0  0  0
 17 16  4  0  0  0  0
 18 17  1  0  0  0  0
 19 17  4  0  0  0  0
 20 19  1  0  0  0  0
 21 19  4  0  0  0  0
 22 21  1  0  0  0  0
 23  2  1  0  0  0  0
 24 23  1  0  0  0  0
 25 24  1  0  0  0  0
 26 24  1  0  0  0  0
 27 24  1  0  0  0  0
 28 23  1  0  0  0  0
 29 28  1  0  0  0  0
 30 28  1  0  0  0  0
 31 28  1  0  0  0  0
 32 23  1  0  0  0  0
 33 32  1  0  0  0  0
 34 32  1  0  0  0  0
 35 32  1  0  0  0  0
 36  2  1  0  0  0  0
 37 36  1  0  0  0  0
 38 36  1  0  0  0  0
 39 36  1  0  0  0  0
 40  4  4  0  0  0  0
 41 40  1  0  0  0  0
 42 10  4  0  0  0  0
 43 42  1  0  0  0  0
 44  1  1  0  0  0  0
 45 44  4  0  0  0  0
 46 45  1  0  0  0  0
 47 45  4  0  0  0  0
 48 47  1  0  0  0  0
 49 47  4  0  0  0  0
 50 49  1  0  0  0  0
 51 49  4  0  0  0  0
 52 51  1  0  0  0  0
 53 44  4  0  0  0  0
 54 53  1  0  0  0  0
 55 11  1  0  0  0  0
 56 55  1  0  0  0  0
 57 55  1  0  0  0  0
 58 55  1  0  0  0  0
 59 12  1  0  0  0  0
 60 59  1  0  0  0  0
 61 59  1  0  0  0  0
 62 59  1  0  0  0  0
 63 14  1  0  0  0  0
 64 63  4  0  0  0  0
 65 64  1  0  0  0  0
 66 64  4  0  0  0  0
 67 66  1  0  0  0  0
 68 66  4  0  0  0  0
 69 68  1  0  0  0  0
 70 68  4  0  0  0  0
 71 70  1  0  0  0  0
 72 63  4  0  0  0  0
 73 72  1  0  0  0  0
 74 16  4  0  0  0  0
 75 74  1  0  0  0  0
 76 21  4  0  0  0  0
 77 76  1  0  0  0  0
 78  1  1  0  0  0  0
 79 78  1  0  0  0  0
 80 78  1  0  0  0  0
 81 78  1  0  0  0  0
 40 42  4  0  0  0  0
 51 53  4  0  0  0  0
 70 72  4  0  0  0  0
 74 76  4  0  0  0  0
M  CHG  4   1   1   2   1  36  -1  78  -1
M  END
$$$$
MIDXIK

From CSD data. Using bond type 'Any'. No disordered atoms. Largest molecule.
 82 86  0  0  0  0  0  0  0  0999 V2000
   13.9683   10.3486   17.7805 P   0  3  0  0  0  0  0  0  0  0  0  0
   12.5698    4.3145   16.0984 P   0  3  0  0  0  0  0  0  0  0  0  0
   12.5467    5.6931   16.9199 O   0  0  0  0  0  0  0  0  0  0  0  0
   14.3701    8.8804   17.1063 N   0  0  0  0  0  0  0  0  0  0  0  0
   14.3051   11.6527   16.5531 C   0  0  0  0  0  0  0  0  0  0  0  0
   13.2997   11.9640   15.6388 C   0  0  0  0  0  0  0  0  0  0  0  0
   12.4719   11.4985   15.6765 H   0  0  0  0  0  0  0  0  0  0  0  0
   13.4904   12.9435   14.6739 C   0  0  0  0  0  0  0  0  0  0  0  0
   12.7964   13.1453   14.0581 H   0  0  0  0  0  0  0  0  0  0  0  0
   14.6818   13.6218   14.6089 C   0  0  0  0  0  0  0  0  0  0  0  0
   14.8067   14.3028   13.9584 H   0  0  0  0  0  0  0  0  0  0  0  0
   15.6972   13.3137   15.4882 C   0  0  0  0  0  0  0  0  0  0  0  0
   16.5256   13.7758   15.4343 H   0  0  0  0  0  0  0  0  0  0  0  0
   15.5158   12.3227   16.4601 C   0  0  0  0  0  0  0  0  0  0  0  0
   16.2239   12.1089   17.0570 H   0  0  0  0  0  0  0  0  0  0  0  0
   15.1301   10.6366   19.1376 C   0  0  0  0  0  0  0  0  0  0  0  0
   15.4608    5.8300   18.7992 C   0  0  0  0  0  0  0  0  0  0  0  0
   16.0171    5.5621   18.0776 H   0  0  0  0  0  0  0  0  0  0  0  0
   15.8210    9.5795   19.7210 C   0  0  0  0  0  0  0  0  0  0  0  0
   15.7471    8.7053   19.3562 H   0  0  0  0  0  0  0  0  0  0  0  0
   16.6188    9.8005   20.8359 C   0  0  0  0  0  0  0  0  0  0  0  0
   17.0880    9.0768   21.2335 H   0  0  0  0  0  0  0  0  0  0  0  0
   16.7327   11.0715   21.3695 C   0  0  0  0  0  0  0  0  0  0  0  0
   17.2809   11.2177   22.1314 H   0  0  0  0  0  0  0  0  0  0  0  0
   16.0504   12.1297   20.7961 C   0  0  0  0  0  0  0  0  0  0  0  0
   16.1332   13.0028   21.1619 H   0  0  0  0  0  0  0  0  0  0  0  0
   15.2445   11.9170   19.6894 C   0  0  0  0  0  0  0  0  0  0  0  0
   14.7691   12.6434   19.3036 H   0  0  0  0  0  0  0  0  0  0  0  0
   15.6676    8.7342   16.4396 C   0  0  0  0  0  0  0  0  0  0  0  0
   16.0423    7.8521   16.6437 H   0  0  0  0  0  0  0  0  0  0  0  0
   16.2790    9.4306   16.7585 H   0  0  0  0  0  0  0  0  0  0  0  0
   15.5488    8.8225   15.4708 H   0  0  0  0  0  0  0  0  0  0  0  0
   13.3136    7.9313   16.7258 C   0  0  0  0  0  0  0  0  0  0  0  0
   12.4963    8.1577   17.2556 H   0  0  0  0  0  0  0  0  0  0  0  0
   12.9464    8.0156   15.2468 C   0  0  0  0  0  0  0  0  0  0  0  0
   12.6849    8.9338   15.0266 H   0  0  0  0  0  0  0  0  0  0  0  0
   12.1983    7.4096   15.0610 H   0  0  0  0  0  0  0  0  0  0  0  0
   13.7191    7.7562   14.7028 H   0  0  0  0  0  0  0  0  0  0  0  0
   13.7451    6.5108   17.1173 C   0  0  0  0  0  0  0  0  0  0  0  0
   14.4680    6.1991   16.5007 H   0  0  0  0  0  0  0  0  0  0  0  0
   14.2039    6.3678   18.5432 C   0  0  0  0  0  0  0  0  0  0  0  0
   13.3923    6.7363   19.6119 C   0  0  0  0  0  0  0  0  0  0  0  0
   12.5300    7.0995   19.4504 H   0  0  0  0  0  0  0  0  0  0  0  0
   13.8436    6.5733   20.9124 C   0  0  0  0  0  0  0  0  0  0  0  0
   13.2916    6.8318   21.6408 H   0  0  0  0  0  0  0  0  0  0  0  0
   15.0887    6.0400   21.1526 C   0  0  0  0  0  0  0  0  0  0  0  0
   15.3872    5.9166   22.0461 H   0  0  0  0  0  0  0  0  0  0  0  0
   15.9013    5.6836   20.1035 C   0  0  0  0  0  0  0  0  0  0  0  0
   16.7694    5.3371   20.2736 H   0  0  0  0  0  0  0  0  0  0  0  0
   12.2876    3.0356   17.3482 C   0  0  0  0  0  0  0  0  0  0  0  0
   12.0506    3.3364   18.6836 C   0  0  0  0  0  0  0  0  0  0  0  0
   12.0433    4.2399   18.9760 H   0  0  0  0  0  0  0  0  0  0  0  0
   11.8222    2.3016   19.5931 C   0  0  0  0  0  0  0  0  0  0  0  0
   11.6619    2.5023   20.5078 H   0  0  0  0  0  0  0  0  0  0  0  0
   11.8303    0.9878   19.1658 C   0  0  0  0  0  0  0  0  0  0  0  0
   11.6576    0.2886   19.7849 H   0  0  0  0  0  0  0  0  0  0  0  0
   12.0868    0.6897   17.8537 C   0  0  0  0  0  0  0  0  0  0  0  0
   12.1044   -0.2162   17.5681 H   0  0  0  0  0  0  0  0  0  0  0  0
   12.3205    1.7082   16.9416 C   0  0  0  0  0  0  0  0  0  0  0  0
   12.5033    1.4966   16.0339 H   0  0  0  0  0  0  0  0  0  0  0  0
   11.0545    4.3905   15.1118 C   0  0  0  0  0  0  0  0  0  0  0  0
    9.8008    4.7560   15.6306 C   0  0  0  0  0  0  0  0  0  0  0  0
    8.7035    4.7510   14.7542 C   0  0  0  0  0  0  0  0  0  0  0  0
    7.8488    5.0045   15.0821 H   0  0  0  0  0  0  0  0  0  0  0  0
    8.8338    4.3891   13.4329 C   0  0  0  0  0  0  0  0  0  0  0  0
    8.0722    4.3880   12.8658 H   0  0  0  0  0  0  0  0  0  0  0  0
   10.0600    4.0299   12.9295 C   0  0  0  0  0  0  0  0  0  0  0  0
   10.1502    3.7781   12.0177 H   0  0  0  0  0  0  0  0  0  0  0  0
   11.1628    4.0382   13.7629 C   0  0  0  0  0  0  0  0  0  0  0  0
   12.0123    3.7980   13.4120 H   0  0  0  0  0  0  0  0  0  0  0  0
    9.5671    5.1448   17.0477 C   0  0  0  0  0  0  0  0  0  0  0  0
    9.7920    4.3936   17.6346 H   0  0  0  0  0  0  0  0  0  0  0  0
    8.6242    5.3839   17.1694 H   0  0  0  0  0  0  0  0  0  0  0  0
   10.1302    5.9153   17.2723 H   0  0  0  0  0  0  0  0  0  0  0  0
   12.1628   10.4277   18.3915 B   0  5  0  0  0  0  0  0  0  0  0  0
   11.4703   10.3255   17.5218 H   0  0  0  0  0  0  0  0  0  0  0  0
   11.9834   11.4072   18.8965 H   0  0  0  0  0  0  0  0  0  0  0  0
   11.9780    9.5974   19.1139 H   0  0  0  0  0  0  0  0  0  0  0  0
   14.1579    3.9884   15.0983 B   0  5  0  0  0  0  0  0  0  0  0  0
   14.3084    4.8118   14.3622 H   0  0  0  0  0  0  0  0  0  0  0  0
   14.0626    3.0172   14.5568 H   0  0  0  0  0  0  0  0  0  0  0  0
   15.0310    3.9429   15.7912 H   0  0  0  0  0  0  0  0  0  0  0  0
  1  4  1  0  0  0  0
  2  3  1  0  0  0  0
  3 39  1  0  0  0  0
  4 29  1  0  0  0  0
  5  1  1  0  0  0  0
  6  5  4  0  0  0  0
  7  6  1  0  0  0  0
  8  6  4  0  0  0  0
  9  8  1  0  0  0  0
 10  8  4  0  0  0  0
 11 10  1  0  0  0  0
 12 10  4  0  0  0  0
 13 12  1  0  0  0  0
 14  5  4  0  0  0  0
 15 14  1  0  0  0  0
 16  1  1  0  0  0  0
 17 18  1  0  0  0  0
 19 16  4  0  0  0  0
 20 19  1  0  0  0  0
 21 19  4  0  0  0  0
 22 21  1  0  0  0  0
 23 21  4  0  0  0  0
 24 23  1  0  0  0  0
 25 23  4  0  0  0  0
 26 25  1  0  0  0  0
 27 16  4  0  0  0  0
 28 27  1  0  0  0  0
 29 30  1  0  0  0  0
 31 29  1  0  0  0  0
 32 29  1  0  0  0  0
 33  4  1  0  0  0  0
 34 33  1  0  0  0  0
 35 33  1  0  0  0  0
 36 35  1  0  0  0  0
 37 35  1  0  0  0  0
 38 35  1  0  0  0  0
 39 33  1  0  0  0  0
 40 39  1  0  0  0  0
 41 17  4  0  0  0  0
 42 41  4  0  0  0  0
 43 42  1  0  0  0  0
 44 42  4  0  0  0  0
 45 44  1  0  0  0  0
 46 44  4  0  0  0  0
 47 46  1  0  0  0  0
 48 17  4  0  0  0  0
 49 48  1  0  0  0  0
 50  2  1  0  0  0  0
 51 50  4  0  0  0  0
 52 51  1  0  0  0  0
 53 51  4  0  0  0  0
 54 53  1  0  0  0  0
 55 53  4  0  0  0  0
 56 55  1  0  0  0  0
 57 55  4  0  0  0  0
 58 57  1  0  0  0  0
 59 50  4  0  0  0  0
 60 59  1  0  0  0  0
 61  2  1  0  0  0  0
 62 61  4  0  0  0  0
 63 62  4  0  0  0  0
 64 63  1  0  0  0  0
 65 63  4  0  0  0  0
 66 65  1  0  0  0  0
 67 65  4  0  0  0  0
 68 67  1  0  0  0  0
 69 61  4  0  0  0  0
 70 69  1  0  0  0  0
 71 62  1  0  0  0  0
 72 71  1  0  0  0  0
 73 71  1  0  0  0  0
 74 71  1  0  0  0  0
 75  1  1  0  0  0  0
 76 75  1  0  0  0  0
 77 75  1  0  0  0  0
 78 75  1  0  0  0  0
 79  2  1  0  0  0  0
 80 79  1  0  0  0  0
 81 79  1  0  0  0  0
 82 79  1  0  0  0  0
 12 14  4  0  0  0  0
 25 27  4  0  0  0  0
 39 41  1  0  0  0  0
 46 48  4  0  0  0  0
 57 59  4  0  0  0  0
 67 69  4  0  0  0  0
M  CHG  4   1   1   2   1  75  -1  79  -1
M  END
$$$$
MIDXOQ

From CSD data. Using bond type 'Any'. No disordered atoms. Largest molecule.
 82 86  0  0  0  0  0  0  0  0999 V2000
    6.0834   10.2199    9.0221 P   0  3  0  0  0  0  0  0  0  0  0  0
    7.5744    4.2122    7.3578 P   0  3  0  0  0  0  0  0  0  0  0  0
    7.5385    5.6078    8.1571 O   0  0  0  0  0  0  0  0  0  0  0  0
    5.6579    8.7601    8.3383 N   0  0  0  0  0  0  0  0  0  0  0  0
    4.9589   10.5047   10.4136 C   0  0  0  0  0  0  0  0  0  0  0  0
    6.7080    7.8125    7.9425 C   0  0  0  0  0  0  0  0  0  0  0  0
    7.5297    8.0422    8.4633 H   0  0  0  0  0  0  0  0  0  0  0  0
    4.2616    9.4454   10.9955 C   0  0  0  0  0  0  0  0  0  0  0  0
    4.3229    8.5735   10.6225 H   0  0  0  0  0  0  0  0  0  0  0  0
    7.5197    1.6449    8.3694 C   0  0  0  0  0  0  0  0  0  0  0  0
    7.0798    1.4256    7.5565 H   0  0  0  0  0  0  0  0  0  0  0  0
    7.8697    2.9604    8.6349 C   0  0  0  0  0  0  0  0  0  0  0  0
   10.4357    4.0809    4.4669 C   0  0  0  0  0  0  0  0  0  0  0  0
   10.4641    3.9321    3.5290 H   0  0  0  0  0  0  0  0  0  0  0  0
    4.3774    8.6716    7.6309 C   0  0  0  0  0  0  0  0  0  0  0  0
    3.7271    9.2681    8.0565 H   0  0  0  0  0  0  0  0  0  0  0  0
    4.0474    7.7493    7.6673 H   0  0  0  0  0  0  0  0  0  0  0  0
    4.5018    8.9371    6.6959 H   0  0  0  0  0  0  0  0  0  0  0  0
    9.2128    4.0945    5.1161 C   0  0  0  0  0  0  0  0  0  0  0  0
    8.4140    3.9430    4.6246 H   0  0  0  0  0  0  0  0  0  0  0  0
    4.4805   12.2166    7.7993 C   0  0  0  0  0  0  0  0  0  0  0  0
    3.8028   11.9977    8.4277 H   0  0  0  0  0  0  0  0  0  0  0  0
    4.8622   11.7750   10.9840 C   0  0  0  0  0  0  0  0  0  0  0  0
    5.3409   12.5016   10.6022 H   0  0  0  0  0  0  0  0  0  0  0  0
    3.4786    9.6669   12.1190 C   0  0  0  0  0  0  0  0  0  0  0  0
    3.0067    8.9427   12.5135 H   0  0  0  0  0  0  0  0  0  0  0  0
    3.3808   10.9247   12.6672 C   0  0  0  0  0  0  0  0  0  0  0  0
    2.8377   11.0676   13.4332 H   0  0  0  0  0  0  0  0  0  0  0  0
    5.8052    6.2193    9.7416 C   0  0  0  0  0  0  0  0  0  0  0  0
   11.6225    4.2791    5.1603 C   0  0  0  0  0  0  0  0  0  0  0  0
    8.4989    3.2770    9.8388 C   0  0  0  0  0  0  0  0  0  0  0  0
    8.7303    4.1786   10.0294 H   0  0  0  0  0  0  0  0  0  0  0  0
    5.6954   11.5437    7.8280 C   0  0  0  0  0  0  0  0  0  0  0  0
    6.4321   12.8482    5.9336 C   0  0  0  0  0  0  0  0  0  0  0  0
    7.0972   13.0575    5.2880 H   0  0  0  0  0  0  0  0  0  0  0  0
    9.1512    4.3290    6.4848 C   0  0  0  0  0  0  0  0  0  0  0  0
    4.2555   13.2091    6.8532 C   0  0  0  0  0  0  0  0  0  0  0  0
    3.4267   13.6728    6.8453 H   0  0  0  0  0  0  0  0  0  0  0  0
   10.3313    4.5771    7.1806 C   0  0  0  0  0  0  0  0  0  0  0  0
   10.2997    4.7588    8.1124 H   0  0  0  0  0  0  0  0  0  0  0  0
    6.3035    6.3715    8.3280 C   0  0  0  0  0  0  0  0  0  0  0  0
    5.6104    6.0354    7.6903 H   0  0  0  0  0  0  0  0  0  0  0  0
    3.9943    5.7392   11.2664 C   0  0  0  0  0  0  0  0  0  0  0  0
    3.0836    5.5105   11.4112 H   0  0  0  0  0  0  0  0  0  0  0  0
    6.6719   11.8693    6.8799 C   0  0  0  0  0  0  0  0  0  0  0  0
    7.5051   11.4147    6.8867 H   0  0  0  0  0  0  0  0  0  0  0  0
    8.7842    2.2817   10.7564 C   0  0  0  0  0  0  0  0  0  0  0  0
    9.2183    2.4974   11.5737 H   0  0  0  0  0  0  0  0  0  0  0  0
    6.6370    6.4473   10.8340 C   0  0  0  0  0  0  0  0  0  0  0  0
    7.5415    6.7023   10.6928 H   0  0  0  0  0  0  0  0  0  0  0  0
    8.4359    0.9597   10.4788 C   0  0  0  0  0  0  0  0  0  0  0  0
    8.6277    0.2741   11.1079 H   0  0  0  0  0  0  0  0  0  0  0  0
   11.5515    4.5607    6.5245 C   0  0  0  0  0  0  0  0  0  0  0  0
   12.3478    4.7421    7.0090 H   0  0  0  0  0  0  0  0  0  0  0  0
    4.0746   11.9814   12.1020 C   0  0  0  0  0  0  0  0  0  0  0  0
    4.0097   12.8497   12.4826 H   0  0  0  0  0  0  0  0  0  0  0  0
    4.4845    5.8484    9.9750 C   0  0  0  0  0  0  0  0  0  0  0  0
    3.9123    5.6673    9.2391 H   0  0  0  0  0  0  0  0  0  0  0  0
    4.8301    5.9647   12.3418 C   0  0  0  0  0  0  0  0  0  0  0  0
    4.4977    5.8863   13.2285 H   0  0  0  0  0  0  0  0  0  0  0  0
    7.8104    0.6494    9.2899 C   0  0  0  0  0  0  0  0  0  0  0  0
    7.5783   -0.2516    9.0997 H   0  0  0  0  0  0  0  0  0  0  0  0
   12.9566    4.1424    4.4795 C   0  0  0  0  0  0  0  0  0  0  0  0
   13.3450    3.2686    4.6929 H   0  0  0  0  0  0  0  0  0  0  0  0
   13.5573    4.8517    4.7923 H   0  0  0  0  0  0  0  0  0  0  0  0
   12.8386    4.2197    3.5097 H   0  0  0  0  0  0  0  0  0  0  0  0
    5.2239   13.5249    5.9271 C   0  0  0  0  0  0  0  0  0  0  0  0
    5.0626   14.2055    5.2844 H   0  0  0  0  0  0  0  0  0  0  0  0
    7.0643    7.9020    6.4638 C   0  0  0  0  0  0  0  0  0  0  0  0
    6.2864    7.6506    5.9239 H   0  0  0  0  0  0  0  0  0  0  0  0
    7.8076    7.2935    6.2696 H   0  0  0  0  0  0  0  0  0  0  0  0
    7.3295    8.8206    6.2468 H   0  0  0  0  0  0  0  0  0  0  0  0
    6.1575    6.3079   12.1220 C   0  0  0  0  0  0  0  0  0  0  0  0
    6.7392    6.4469   12.8605 H   0  0  0  0  0  0  0  0  0  0  0  0
    7.9095   10.2848    9.5750 B   0  5  0  0  0  0  0  0  0  0  0  0
    8.1386    9.3962   10.2101 H   0  0  0  0  0  0  0  0  0  0  0  0
    8.0877   11.2172   10.1623 H   0  0  0  0  0  0  0  0  0  0  0  0
    8.5712   10.2807    8.6749 H   0  0  0  0  0  0  0  0  0  0  0  0
    6.0584    3.8238    6.2669 B   0  5  0  0  0  0  0  0  0  0  0  0
    5.1690    3.6365    6.9183 H   0  0  0  0  0  0  0  0  0  0  0  0
    6.2660    2.9174    5.6487 H   0  0  0  0  0  0  0  0  0  0  0  0
    5.8508    4.6933    5.5956 H   0  0  0  0  0  0  0  0  0  0  0  0
  1  4  1  0  0  0  0
  2  3  1  0  0  0  0
  3 41  1  0  0  0  0
  4  6  1  0  0  0  0
  5  1  1  0  0  0  0
  6  7  1  0  0  0  0
  8  5  4  0  0  0  0
  9  8  1  0  0  0  0
 10 11  1  0  0  0  0
 12  2  1  0  0  0  0
 13 14  1  0  0  0  0
 15  4  1  0  0  0  0
 16 15  1  0  0  0  0
 17 15  1  0  0  0  0
 18 15  1  0  0  0  0
 19 13  4  0  0  0  0
 20 19  1  0  0  0  0
 21 22  1  0  0  0  0
 23  5  4  0  0  0  0
 24 23  1  0  0  0  0
 25  8  4  0  0  0  0
 26 25  1  0  0  0  0
 27 25  4  0  0  0  0
 28 27  1  0  0  0  0
 29 41  1  0  0  0  0
 30 13  4  0  0  0  0
 31 12  4  0  0  0  0
 32 31  1  0  0  0  0
 33  1  1  0  0  0  0
 34 35  1  0  0  0  0
 36  2  1  0  0  0  0
 37 21  4  0  0  0  0
 38 37  1  0  0  0  0
 39 36  4  0  0  0  0
 40 39  1  0  0  0  0
 41  6  1  0  0  0  0
 42 41  1  0  0  0  0
 43 44  1  0  0  0  0
 45 33  4  0  0  0  0
 46 45  1  0  0  0  0
 47 31  4  0  0  0  0
 48 47  1  0  0  0  0
 49 29  4  0  0  0  0
 50 49  1  0  0  0  0
 51 47  4  0  0  0  0
 52 51  1  0  0  0  0
 53 30  4  0  0  0  0
 54 53  1  0  0  0  0
 55 23  4  0  0  0  0
 56 55  1  0  0  0  0
 57 29  4  0  0  0  0
 58 57  1  0  0  0  0
 59 43  4  0  0  0  0
 60 59  1  0  0  0  0
 61 10  4  0  0  0  0
 62 61  1  0  0  0  0
 63 30  1  0  0  0  0
 64 63  1  0  0  0  0
 65 63  1  0  0  0  0
 66 63  1  0  0  0  0
 67 34  4  0  0  0  0
 68 67  1  0  0  0  0
 69  6  1  0  0  0  0
 70 69  1  0  0  0  0
 71 69  1  0  0  0  0
 72 69  1  0  0  0  0
 73 49  4  0  0  0  0
 74 73  1  0  0  0  0
 75  1  1  0  0  0  0
 76 75  1  0  0  0  0
 77 75  1  0  0  0  0
 78 75  1  0  0  0  0
 79  2  1  0  0  0  0
 80 79  1  0  0  0  0
 81 79  1  0  0  0  0
 82 79  1  0  0  0  0
 10 12  4  0  0  0  0
 19 36  4  0  0  0  0
 21 33  4  0  0  0  0
 27 55  4  0  0  0  0
 34 45  4  0  0  0  0
 37 67  4  0  0  0  0
 39 53  4  0  0  0  0
 43 57  4  0  0  0  0
 51 61  4  0  0  0  0
 59 73  4  0  0  0  0
M  CHG  4   1   1   2   1  75  -1  79  -1
M  END
$$$$
MIDXUW

From CSD data. Using bond type 'Any'. No disordered atoms. Largest molecule.
 89 94  0  0  0  0  0  0  0  0999 V2000
    6.6800    8.6799    3.7839 P   0  3  0  0  0  0  0  0  0  0  0  0
    9.0174    6.3772   -1.6876 P   0  3  0  0  0  0  0  0  0  0  0  0
    8.6164    6.2627   -0.1412 O   0  0  0  0  0  0  0  0  0  0  0  0
    8.6304    3.6300   -1.4354 C   0  0  0  0  0  0  0  0  0  0  0  0
    8.3600    3.8118   -0.5439 H   0  0  0  0  0  0  0  0  0  0  0  0
   10.8958    3.5430    1.3449 C   0  0  0  0  0  0  0  0  0  0  0  0
   10.8394    2.6066    1.1978 H   0  0  0  0  0  0  0  0  0  0  0  0
    5.5414    8.9561    1.3578 C   0  0  0  0  0  0  0  0  0  0  0  0
    4.7645    9.1617    1.9176 H   0  0  0  0  0  0  0  0  0  0  0  0
    5.2665    8.3751    0.6174 H   0  0  0  0  0  0  0  0  0  0  0  0
    5.9145    9.7881    0.9976 H   0  0  0  0  0  0  0  0  0  0  0  0
    2.7354    7.1931    5.5866 C   0  0  0  0  0  0  0  0  0  0  0  0
    1.9248    6.8721    5.9629 H   0  0  0  0  0  0  0  0  0  0  0  0
    3.2872    6.5392    4.5067 C   0  0  0  0  0  0  0  0  0  0  0  0
    2.8684    5.7634    4.1535 H   0  0  0  0  0  0  0  0  0  0  0  0
    4.4651    7.0223    3.9399 C   0  0  0  0  0  0  0  0  0  0  0  0
    4.8394    6.5813    3.1849 H   0  0  0  0  0  0  0  0  0  0  0  0
    5.0950    8.1406    4.4658 C   0  0  0  0  0  0  0  0  0  0  0  0
    6.5560    8.2742    2.1613 N   0  0  0  0  0  0  0  0  0  0  0  0
    7.7774    7.8176    1.4656 C   0  0  0  0  0  0  0  0  0  0  0  0
    8.3455    7.3317    2.1312 H   0  0  0  0  0  0  0  0  0  0  0  0
    7.3633    6.8126    0.3750 C   0  0  0  0  0  0  0  0  0  0  0  0
    6.8841    7.2953   -0.3587 H   0  0  0  0  0  0  0  0  0  0  0  0
   10.7363    6.9633   -1.6617 C   0  0  0  0  0  0  0  0  0  0  0  0
   11.6540    6.6806   -0.6358 C   0  0  0  0  0  0  0  0  0  0  0  0
   11.3414    5.7626    0.5043 C   0  0  0  0  0  0  0  0  0  0  0  0
   11.2638    4.4004    0.2888 C   0  0  0  0  0  0  0  0  0  0  0  0
   11.4578    4.0426   -0.5696 H   0  0  0  0  0  0  0  0  0  0  0  0
   10.6199    4.0540    2.5821 C   0  0  0  0  0  0  0  0  0  0  0  0
   10.3480    3.4767    3.2846 H   0  0  0  0  0  0  0  0  0  0  0  0
    6.5139    5.6741    0.8643 C   0  0  0  0  0  0  0  0  0  0  0  0
    6.9031    4.9021    1.9764 C   0  0  0  0  0  0  0  0  0  0  0  0
    7.7325    5.0697    2.4089 H   0  0  0  0  0  0  0  0  0  0  0  0
    6.0619    3.8863    2.4398 C   0  0  0  0  0  0  0  0  0  0  0  0
    6.3124    3.3769    3.2019 H   0  0  0  0  0  0  0  0  0  0  0  0
    4.8680    3.6206    1.7975 C   0  0  0  0  0  0  0  0  0  0  0  0
    4.3101    2.9171    2.1094 H   0  0  0  0  0  0  0  0  0  0  0  0
    5.3261    5.3852    0.2435 C   0  0  0  0  0  0  0  0  0  0  0  0
    5.0664    5.8871   -0.5208 H   0  0  0  0  0  0  0  0  0  0  0  0
   12.9174    7.3019   -0.6660 C   0  0  0  0  0  0  0  0  0  0  0  0
   13.5348    7.1474    0.0399 H   0  0  0  0  0  0  0  0  0  0  0  0
   13.2687    8.1344   -1.7156 C   0  0  0  0  0  0  0  0  0  0  0  0
   14.1295    8.5368   -1.7275 H   0  0  0  0  0  0  0  0  0  0  0  0
   12.3905    8.3829   -2.7329 C   0  0  0  0  0  0  0  0  0  0  0  0
   12.6474    8.9406   -3.4572 H   0  0  0  0  0  0  0  0  0  0  0  0
   10.7376    5.4209    2.8105 C   0  0  0  0  0  0  0  0  0  0  0  0
   10.5623    5.7743    3.6748 H   0  0  0  0  0  0  0  0  0  0  0  0
   11.1145    6.2783    1.7695 C   0  0  0  0  0  0  0  0  0  0  0  0
   11.2145    7.2095    1.9290 H   0  0  0  0  0  0  0  0  0  0  0  0
    9.0222    4.6691   -2.2717 C   0  0  0  0  0  0  0  0  0  0  0  0
    8.6348    2.3221   -1.9118 C   0  0  0  0  0  0  0  0  0  0  0  0
    8.3798    1.6080   -1.3405 H   0  0  0  0  0  0  0  0  0  0  0  0
    9.3746    4.4066   -3.5821 C   0  0  0  0  0  0  0  0  0  0  0  0
    9.6208    5.1171   -4.1631 H   0  0  0  0  0  0  0  0  0  0  0  0
    8.6032    8.9639    0.8945 C   0  0  0  0  0  0  0  0  0  0  0  0
    8.0540    9.4808    0.2672 H   0  0  0  0  0  0  0  0  0  0  0  0
    9.3828    8.6027    0.4233 H   0  0  0  0  0  0  0  0  0  0  0  0
    8.9023    9.5472    1.6226 H   0  0  0  0  0  0  0  0  0  0  0  0
    6.6770   10.5078    3.9140 C   0  0  0  0  0  0  0  0  0  0  0  0
    5.5268   11.2518    3.8020 C   0  0  0  0  0  0  0  0  0  0  0  0
    4.6855   10.8180    3.7251 H   0  0  0  0  0  0  0  0  0  0  0  0
    5.5960   12.6482    3.8020 C   0  0  0  0  0  0  0  0  0  0  0  0
    4.8012   13.1633    3.7204 H   0  0  0  0  0  0  0  0  0  0  0  0
    7.9071   11.1462    4.0067 C   0  0  0  0  0  0  0  0  0  0  0  0
    8.7051   10.6354    4.0744 H   0  0  0  0  0  0  0  0  0  0  0  0
    4.5308    8.7821    5.5801 C   0  0  0  0  0  0  0  0  0  0  0  0
    4.9600    9.5398    5.9616 H   0  0  0  0  0  0  0  0  0  0  0  0
    3.3394    8.3068    6.1254 C   0  0  0  0  0  0  0  0  0  0  0  0
    2.9458    8.7497    6.8675 H   0  0  0  0  0  0  0  0  0  0  0  0
    7.9037    7.4960   -2.7351 B   0  5  0  0  0  0  0  0  0  0  0  0
    7.9923    8.5740   -2.3644 H   0  0  0  0  0  0  0  0  0  0  0  0
    6.8095    7.1450   -2.6381 H   0  0  0  0  0  0  0  0  0  0  0  0
    8.2247    7.4401   -3.8364 H   0  0  0  0  0  0  0  0  0  0  0  0
    8.1688    7.8797    4.6792 B   0  5  0  0  0  0  0  0  0  0  0  0
    8.0774    6.6635    4.6124 H   0  0  0  0  0  0  0  0  0  0  0  0
    8.1710    8.2167    5.8409 H   0  0  0  0  0  0  0  0  0  0  0  0
    9.2064    8.2323    4.1468 H   0  0  0  0  0  0  0  0  0  0  0  0
   11.1241    7.8207   -2.7049 C   0  0  0  0  0  0  0  0  0  0  0  0
   10.5095    8.0186   -3.4015 H   0  0  0  0  0  0  0  0  0  0  0  0
    9.0104    2.0612   -3.2200 C   0  0  0  0  0  0  0  0  0  0  0  0
    9.0199    1.1663   -3.5412 H   0  0  0  0  0  0  0  0  0  0  0  0
    9.3661    3.0817   -4.0477 C   0  0  0  0  0  0  0  0  0  0  0  0
    9.6103    2.8956   -4.9477 H   0  0  0  0  0  0  0  0  0  0  0  0
    4.4865    4.3662    0.7113 C   0  0  0  0  0  0  0  0  0  0  0  0
    3.6574    4.1940    0.2805 H   0  0  0  0  0  0  0  0  0  0  0  0
    6.8093   13.2742    3.9205 C   0  0  0  0  0  0  0  0  0  0  0  0
    6.8498   14.2235    3.9449 H   0  0  0  0  0  0  0  0  0  0  0  0
    7.9704   12.5395    4.0024 C   0  0  0  0  0  0  0  0  0  0  0  0
    8.8105   12.9792    4.0551 H   0  0  0  0  0  0  0  0  0  0  0  0
  1 18  1  0  0  0  0
  2  3  1  0  0  0  0
  3 22  1  0  0  0  0
  4  5  1  0  0  0  0
  6  7  1  0  0  0  0
  8  9  1  0  0  0  0
 10  8  1  0  0  0  0
 11  8  1  0  0  0  0
 12 13  1  0  0  0  0
 14 12  4  0  0  0  0
 15 14  1  0  0  0  0
 16 14  4  0  0  0  0
 17 16  1  0  0  0  0
 18 16  4  0  0  0  0
 19  1  1  0  0  0  0
 20 19  1  0  0  0  0
 21 20  1  0  0  0  0
 22 20  1  0  0  0  0
 23 22  1  0  0  0  0
 24  2  1  0  0  0  0
 25 24  4  0  0  0  0
 26 25  1  0  0  0  0
 27  6  4  0  0  0  0
 28 27  1  0  0  0  0
 29  6  4  0  0  0  0
 30 29  1  0  0  0  0
 31 22  1  0  0  0  0
 32 31  4  0  0  0  0
 33 32  1  0  0  0  0
 34 32  4  0  0  0  0
 35 34  1  0  0  0  0
 36 34  4  0  0  0  0
 37 36  1  0  0  0  0
 38 31  4  0  0  0  0
 39 38  1  0  0  0  0
 40 25  4  0  0  0  0
 41 40  1  0  0  0  0
 42 40  4  0  0  0  0
 43 42  1  0  0  0  0
 44 42  4  0  0  0  0
 45 44  1  0  0  0  0
 46 29  4  0  0  0  0
 47 46  1  0  0  0  0
 48 26  4  0  0  0  0
 49 48  1  0  0  0  0
 50  2  1  0  0  0  0
 51  4  4  0  0  0  0
 52 51  1  0  0  0  0
 53 50  4  0  0  0  0
 54 53  1  0  0  0  0
 55 20  1  0  0  0  0
 56 55  1  0  0  0  0
 57 55  1  0  0  0  0
 58 55  1  0  0  0  0
 59  1  1  0  0  0  0
 60 59  4  0  0  0  0
 61 60  1  0  0  0  0
 62 60  4  0  0  0  0
 63 62  1  0  0  0  0
 64 59  4  0  0  0  0
 65 64  1  0  0  0  0
 66 18  4  0  0  0  0
 67 66  1  0  0  0  0
 68 12  4  0  0  0  0
 69 68  1  0  0  0  0
 70  2  1  0  0  0  0
 71 70  1  0  0  0  0
 72 70  1  0  0  0  0
 73 70  1  0  0  0  0
 74  1  1  0  0  0  0
 75 74  1  0  0  0  0
 76 74  1  0  0  0  0
 77 74  1  0  0  0  0
 78 24  4  0  0  0  0
 79 78  1  0  0  0  0
 80 51  4  0  0  0  0
 81 80  1  0  0  0  0
 82 53  4  0  0  0  0
 83 82  1  0  0  0  0
 84 36  4  0  0  0  0
 85 84  1  0  0  0  0
 86 62  4  0  0  0  0
 87 86  1  0  0  0  0
 88 64  4  0  0  0  0
 89 88  1  0  0  0  0
  4 50  4  0  0  0  0
  8 19  1  0  0  0  0
 26 27  4  0  0  0  0
 38 84  4  0  0  0  0
 44 78  4  0  0  0  0
 46 48  4  0  0  0  0
 66 68  4  0  0  0  0
 80 82  4  0  0  0  0
 86 88  4  0  0  0  0
M  CHG  4   1   1   2   1  70  -1  74  -1
M  END
$$$$
MIDYAD

From CSD data. Using bond type 'Any'. No disordered atoms. Largest molecule.
 85 90  0  0  0  0  0  0  0  0999 V2000
    0.9566    8.3731    8.1305 P   0  3  0  0  0  0  0  0  0  0  0  0
    2.4435    6.8978   14.2462 P   0  3  0  0  0  0  0  0  0  0  0  0
    2.4564    6.8730   12.6289 O   0  0  0  0  0  0  0  0  0  0  0  0
    0.9270    8.6462    9.7750 N   0  0  0  0  0  0  0  0  0  0  0  0
   -0.7339    8.5203    7.4768 C   0  0  0  0  0  0  0  0  0  0  0  0
   -1.5020    7.3670    7.3152 C   0  0  0  0  0  0  0  0  0  0  0  0
   -1.1322    6.5166    7.5220 H   0  0  0  0  0  0  0  0  0  0  0  0
   -2.8131    7.4649    6.8494 C   0  0  0  0  0  0  0  0  0  0  0  0
   -3.3344    6.6784    6.7378 H   0  0  0  0  0  0  0  0  0  0  0  0
   -3.3578    8.6951    6.5499 C   0  0  0  0  0  0  0  0  0  0  0  0
   -4.2540    8.7551    6.2412 H   0  0  0  0  0  0  0  0  0  0  0  0
   -2.6005    9.8409    6.6983 C   0  0  0  0  0  0  0  0  0  0  0  0
   -2.9767   10.6870    6.4864 H   0  0  0  0  0  0  0  0  0  0  0  0
   -1.2930    9.7616    7.1556 C   0  0  0  0  0  0  0  0  0  0  0  0
   -0.7753   10.5528    7.2507 H   0  0  0  0  0  0  0  0  0  0  0  0
    1.8354    9.7799    7.3989 C   0  0  0  0  0  0  0  0  0  0  0  0
    1.7816    9.9522    6.0079 C   0  0  0  0  0  0  0  0  0  0  0  0
    1.2303    9.3862    5.4806 H   0  0  0  0  0  0  0  0  0  0  0  0
    2.5326   10.9482    5.4022 C   0  0  0  0  0  0  0  0  0  0  0  0
    2.4961   11.0650    4.4599 H   0  0  0  0  0  0  0  0  0  0  0  0
    3.3370   11.7739    6.1743 C   0  0  0  0  0  0  0  0  0  0  0  0
    3.8463   12.4602    5.7591 H   0  0  0  0  0  0  0  0  0  0  0  0
    3.4022   11.6022    7.5524 C   0  0  0  0  0  0  0  0  0  0  0  0
    3.9604   12.1654    8.0753 H   0  0  0  0  0  0  0  0  0  0  0  0
    2.6502   10.6068    8.1649 C   0  0  0  0  0  0  0  0  0  0  0  0
    2.6931   10.4911    9.1069 H   0  0  0  0  0  0  0  0  0  0  0  0
    0.1511    9.7685   10.3130 C   0  0  0  0  0  0  0  0  0  0  0  0
   -0.6938    9.4353   10.6804 H   0  0  0  0  0  0  0  0  0  0  0  0
   -0.0348   10.4104    9.5960 H   0  0  0  0  0  0  0  0  0  0  0  0
    0.6642   10.2102   11.0216 H   0  0  0  0  0  0  0  0  0  0  0  0
    1.2224    7.5325   10.6999 C   0  0  0  0  0  0  0  0  0  0  0  0
    1.8063    6.8822   10.2142 H   0  0  0  0  0  0  0  0  0  0  0  0
   -0.0335    6.7827   11.1473 C   0  0  0  0  0  0  0  0  0  0  0  0
   -0.6176    7.3920   11.6449 H   0  0  0  0  0  0  0  0  0  0  0  0
    0.2225    6.0321   11.7232 H   0  0  0  0  0  0  0  0  0  0  0  0
   -0.5087    6.4436   10.3605 H   0  0  0  0  0  0  0  0  0  0  0  0
    2.0214    8.0705   11.8976 C   0  0  0  0  0  0  0  0  0  0  0  0
    1.4121    8.6066   12.4821 H   0  0  0  0  0  0  0  0  0  0  0  0
    3.2185    8.9110   11.5319 C   0  0  0  0  0  0  0  0  0  0  0  0
    3.4429   10.1141   12.1879 C   0  0  0  0  0  0  0  0  0  0  0  0
    2.8327   10.4095   12.8532 H   0  0  0  0  0  0  0  0  0  0  0  0
    4.5567   10.8902   11.8779 C   0  0  0  0  0  0  0  0  0  0  0  0
    4.6985   11.7156   12.3265 H   0  0  0  0  0  0  0  0  0  0  0  0
    5.4570   10.4626   10.9183 C   0  0  0  0  0  0  0  0  0  0  0  0
    6.2154   10.9938   10.7067 H   0  0  0  0  0  0  0  0  0  0  0  0
    5.2498    9.2571   10.2667 C   0  0  0  0  0  0  0  0  0  0  0  0
    5.8734    8.9548    9.6171 H   0  0  0  0  0  0  0  0  0  0  0  0
    4.1278    8.4898   10.5634 C   0  0  0  0  0  0  0  0  0  0  0  0
    3.9803    7.6724   10.1022 H   0  0  0  0  0  0  0  0  0  0  0  0
    3.9613    7.7515   14.7212 C   0  0  0  0  0  0  0  0  0  0  0  0
    5.1286    7.6516   13.9672 C   0  0  0  0  0  0  0  0  0  0  0  0
    5.1329    7.1202   13.1798 H   0  0  0  0  0  0  0  0  0  0  0  0
    6.2795    8.3135   14.3476 C   0  0  0  0  0  0  0  0  0  0  0  0
    7.0661    8.2449   13.8194 H   0  0  0  0  0  0  0  0  0  0  0  0
    6.2804    9.0762   15.5005 C   0  0  0  0  0  0  0  0  0  0  0  0
    7.0717    9.5312   15.7649 H   0  0  0  0  0  0  0  0  0  0  0  0
    5.1467    9.1794   16.2644 C   0  0  0  0  0  0  0  0  0  0  0  0
    5.1583    9.6962   17.0616 H   0  0  0  0  0  0  0  0  0  0  0  0
    3.9767    8.5290   15.8741 C   0  0  0  0  0  0  0  0  0  0  0  0
    3.1886    8.6171   16.3972 H   0  0  0  0  0  0  0  0  0  0  0  0
    2.7172    5.1531   14.6018 C   0  0  0  0  0  0  0  0  0  0  0  0
    3.5623    4.3687   13.7783 C   0  0  0  0  0  0  0  0  0  0  0  0
    3.9609    4.7543   13.0069 H   0  0  0  0  0  0  0  0  0  0  0  0
    3.8075    3.0602   14.0880 C   0  0  0  0  0  0  0  0  0  0  0  0
    4.3740    2.5454   13.5254 H   0  0  0  0  0  0  0  0  0  0  0  0
    3.2311    2.4580   15.2350 C   0  0  0  0  0  0  0  0  0  0  0  0
    3.4709    1.1019   15.5821 C   0  0  0  0  0  0  0  0  0  0  0  0
    4.0397    0.5695   15.0387 H   0  0  0  0  0  0  0  0  0  0  0  0
    2.8900    0.5582   16.6904 C   0  0  0  0  0  0  0  0  0  0  0  0
    3.0632   -0.3483   16.9157 H   0  0  0  0  0  0  0  0  0  0  0  0
    2.0386    1.3275   17.5016 C   0  0  0  0  0  0  0  0  0  0  0  0
    1.6367    0.9364   18.2686 H   0  0  0  0  0  0  0  0  0  0  0  0
    1.7843    2.6364   17.1937 C   0  0  0  0  0  0  0  0  0  0  0  0
    1.2061    3.1469   17.7486 H   0  0  0  0  0  0  0  0  0  0  0  0
    2.3761    3.2373   16.0537 C   0  0  0  0  0  0  0  0  0  0  0  0
    2.1291    4.5907   15.7107 C   0  0  0  0  0  0  0  0  0  0  0  0
    1.5512    5.1149   16.2528 H   0  0  0  0  0  0  0  0  0  0  0  0
    1.8024    6.7347    7.6313 B   0  5  0  0  0  0  0  0  0  0  0  0
    2.8385    6.7325    7.9964 H   0  0  0  0  0  0  0  0  0  0  0  0
    1.7988    6.6396    6.5366 H   0  0  0  0  0  0  0  0  0  0  0  0
    1.2568    5.8916    8.0747 H   0  0  0  0  0  0  0  0  0  0  0  0
    0.8732    7.6137   15.0309 B   0  5  0  0  0  0  0  0  0  0  0  0
    0.7845    8.6876   14.7678 H   0  0  0  0  0  0  0  0  0  0  0  0
    0.9293    7.5080   16.1323 H   0  0  0  0  0  0  0  0  0  0  0  0
   -0.0136    7.0647   14.6522 H   0  0  0  0  0  0  0  0  0  0  0  0
  1  4  1  0  0  0  0
  2  3  1  0  0  0  0
  3 37  1  0  0  0  0
  4 27  1  0  0  0  0
  5  1  1  0  0  0  0
  6  5  4  0  0  0  0
  7  6  1  0  0  0  0
  8  6  4  0  0  0  0
  9  8  1  0  0  0  0
 10  8  4  0  0  0  0
 11 10  1  0  0  0  0
 12 10  4  0  0  0  0
 13 12  1  0  0  0  0
 14  5  4  0  0  0  0
 15 14  1  0  0  0  0
 16  1  1  0  0  0  0
 17 16  4  0  0  0  0
 18 17  1  0  0  0  0
 19 17  4  0  0  0  0
 20 19  1  0  0  0  0
 21 19  4  0  0  0  0
 22 21  1  0  0  0  0
 23 21  4  0  0  0  0
 24 23  1  0  0  0  0
 25 16  4  0  0  0  0
 26 25  1  0  0  0  0
 27 28  1  0  0  0  0
 29 27  1  0  0  0  0
 30 27  1  0  0  0  0
 31  4  1  0  0  0  0
 32 31  1  0  0  0  0
 33 31  1  0  0  0  0
 34 33  1  0  0  0  0
 35 33  1  0  0  0  0
 36 33  1  0  0  0  0
 37 31  1  0  0  0  0
 38 37  1  0  0  0  0
 39 37  1  0  0  0  0
 40 39  4  0  0  0  0
 41 40  1  0  0  0  0
 42 40  4  0  0  0  0
 43 42  1  0  0  0  0
 44 42  4  0  0  0  0
 45 44  1  0  0  0  0
 46 44  4  0  0  0  0
 47 46  1  0  0  0  0
 48 39  4  0  0  0  0
 49 48  1  0  0  0  0
 50  2  1  0  0  0  0
 51 50  4  0  0  0  0
 52 51  1  0  0  0  0
 53 51  4  0  0  0  0
 54 53  1  0  0  0  0
 55 53  4  0  0  0  0
 56 55  1  0  0  0  0
 57 55  4  0  0  0  0
 58 57  1  0  0  0  0
 59 50  4  0  0  0  0
 60 59  1  0  0  0  0
 61  2  1  0  0  0  0
 62 61  4  0  0  0  0
 63 62  1  0  0  0  0
 64 62  4  0  0  0  0
 65 64  1  0  0  0  0
 66 64  4  0  0  0  0
 67 66  4  0  0  0  0
 68 67  1  0  0  0  0
 69 67  4  0  0  0  0
 70 69  1  0  0  0  0
 71 69  4  0  0  0  0
 72 71  1  0  0  0  0
 73 71  4  0  0  0  0
 74 73  1  0  0  0  0
 75 66  4  0  0  0  0
 76 61  4  0  0  0  0
 77 76  1  0  0  0  0
 78  1  1  0  0  0  0
 79 78  1  0  0  0  0
 80 78  1  0  0  0  0
 81 78  1  0  0  0  0
 82  2  1  0  0  0  0
 83 82  1  0  0  0  0
 84 82  1  0  0  0  0
 85 82  1  0  0  0  0
 12 14  4  0  0  0  0
 23 25  4  0  0  0  0
 46 48  4  0  0  0  0
 57 59  4  0  0  0  0
 73 75  4  0  0  0  0
 75 76  4  0  0  0  0
M  CHG  4   1   1   2   1  78  -1  82  -1
M  END
$$$$
MIDYEH

From CSD data. Using bond type 'Any'. No disordered atoms. Largest molecule.
 82 86  0  0  0  0  0  0  0  0999 V2000
    0.8645   -2.5962   16.1219 P   0  3  0  0  0  0  0  0  0  0  0  0
   -0.5369    3.4464   17.8018 P   0  3  0  0  0  0  0  0  0  0  0  0
    0.8927   -1.2116   16.9395 O   0  0  0  0  0  0  0  0  0  0  0  0
   -0.9396    1.9740   17.1330 N   0  0  0  0  0  0  0  0  0  0  0  0
    1.6017   -5.9181   19.2024 C   0  0  0  0  0  0  0  0  0  0  0  0
    1.7723   -6.6152   19.8249 H   0  0  0  0  0  0  0  0  0  0  0  0
   -2.2400    1.8224   16.4736 C   0  0  0  0  0  0  0  0  0  0  0  0
   -2.1223    1.8789   15.5024 H   0  0  0  0  0  0  0  0  0  0  0  0
   -2.8425    2.5355   16.7718 H   0  0  0  0  0  0  0  0  0  0  0  0
   -2.6245    0.9515   16.7060 H   0  0  0  0  0  0  0  0  0  0  0  0
    1.3451   -6.2235   17.8791 C   0  0  0  0  0  0  0  0  0  0  0  0
    1.3245   -7.1299   17.5952 H   0  0  0  0  0  0  0  0  0  0  0  0
    4.7240   -2.1653   14.7559 C   0  0  0  0  0  0  0  0  0  0  0  0
    5.5796   -1.9088   15.0794 H   0  0  0  0  0  0  0  0  0  0  0  0
    3.3562   -2.8929   12.9355 C   0  0  0  0  0  0  0  0  0  0  0  0
    3.2595   -3.1457   12.0249 H   0  0  0  0  0  0  0  0  0  0  0  0
    1.1181   -5.2055   16.9674 C   0  0  0  0  0  0  0  0  0  0  0  0
    0.9409   -5.4175   16.0584 H   0  0  0  0  0  0  0  0  0  0  0  0
    1.1475   -3.8733   17.3734 C   0  0  0  0  0  0  0  0  0  0  0  0
   -0.3064   -0.3979   17.1409 C   0  0  0  0  0  0  0  0  0  0  0  0
   -1.0307   -0.7116   16.5269 H   0  0  0  0  0  0  0  0  0  0  0  0
    0.1197    1.0279   16.7483 C   0  0  0  0  0  0  0  0  0  0  0  0
    0.9387    1.2570   17.2743 H   0  0  0  0  0  0  0  0  0  0  0  0
   -1.6943    3.7319   19.1673 C   0  0  0  0  0  0  0  0  0  0  0  0
   -1.8095    5.0140   19.7223 C   0  0  0  0  0  0  0  0  0  0  0  0
   -1.3387    5.7422   19.3342 H   0  0  0  0  0  0  0  0  0  0  0  0
   -2.6090    5.2219   20.8363 C   0  0  0  0  0  0  0  0  0  0  0  0
   -2.6912    6.0936   21.2050 H   0  0  0  0  0  0  0  0  0  0  0  0
   -3.2889    4.1592   21.4129 C   0  0  0  0  0  0  0  0  0  0  0  0
   -3.8359    4.3035   22.1760 H   0  0  0  0  0  0  0  0  0  0  0  0
   -1.2713    6.7207   14.6414 C   0  0  0  0  0  0  0  0  0  0  0  0
   -1.4021    7.3985   13.9887 H   0  0  0  0  0  0  0  0  0  0  0  0
   -2.2833    6.4169   15.5322 C   0  0  0  0  0  0  0  0  0  0  0  0
   -3.1099    6.8830   15.4862 H   0  0  0  0  0  0  0  0  0  0  0  0
   -2.0956    5.4280   16.4994 C   0  0  0  0  0  0  0  0  0  0  0  0
   -2.7973    5.2172   17.1043 H   0  0  0  0  0  0  0  0  0  0  0  0
   -0.8814    4.7496   16.5797 C   0  0  0  0  0  0  0  0  0  0  0  0
    0.4806    1.1089   15.2652 C   0  0  0  0  0  0  0  0  0  0  0  0
   -0.2903    0.8346   14.7259 H   0  0  0  0  0  0  0  0  0  0  0  0
    1.2371    0.5140   15.0802 H   0  0  0  0  0  0  0  0  0  0  0  0
    0.7265    2.0301   15.0387 H   0  0  0  0  0  0  0  0  0  0  0  0
    1.6111   -4.6012   19.6233 C   0  0  0  0  0  0  0  0  0  0  0  0
    1.7748   -4.3975   20.5367 H   0  0  0  0  0  0  0  0  0  0  0  0
    1.3812   -3.5716   18.7130 C   0  0  0  0  0  0  0  0  0  0  0  0
    1.3839   -2.6675   19.0049 H   0  0  0  0  0  0  0  0  0  0  0  0
    2.3725   -2.5232   15.1281 C   0  0  0  0  0  0  0  0  0  0  0  0
    3.6360   -2.1592   15.6367 C   0  0  0  0  0  0  0  0  0  0  0  0
    3.8764   -1.7682   17.0618 C   0  0  0  0  0  0  0  0  0  0  0  0
    4.8152   -1.5117   17.1762 H   0  0  0  0  0  0  0  0  0  0  0  0
    3.6712   -2.5266   17.6476 H   0  0  0  0  0  0  0  0  0  0  0  0
    3.3000   -1.0105   17.2943 H   0  0  0  0  0  0  0  0  0  0  0  0
    4.5916   -2.5333   13.4295 C   0  0  0  0  0  0  0  0  0  0  0  0
    5.3515   -2.5383   12.8594 H   0  0  0  0  0  0  0  0  0  0  0  0
    2.2556   -2.8824   13.7787 C   0  0  0  0  0  0  0  0  0  0  0  0
    1.4039   -3.1241   13.4342 H   0  0  0  0  0  0  0  0  0  0  0  0
   -0.7606   -0.5419   18.5724 C   0  0  0  0  0  0  0  0  0  0  0  0
   -2.0117   -1.0803   18.8369 C   0  0  0  0  0  0  0  0  0  0  0  0
   -2.5730   -1.3481   18.1187 H   0  0  0  0  0  0  0  0  0  0  0  0
   -2.4467   -1.2291   20.1463 C   0  0  0  0  0  0  0  0  0  0  0  0
   -3.3103   -1.5852   20.3202 H   0  0  0  0  0  0  0  0  0  0  0  0
   -1.6334   -0.8632   21.1939 C   0  0  0  0  0  0  0  0  0  0  0  0
   -1.9289   -0.9795   22.0890 H   0  0  0  0  0  0  0  0  0  0  0  0
   -0.3852   -0.3261   20.9424 C   0  0  0  0  0  0  0  0  0  0  0  0
    0.1740   -0.0674   21.6659 H   0  0  0  0  0  0  0  0  0  0  0  0
    0.0553   -0.1639   19.6361 C   0  0  0  0  0  0  0  0  0  0  0  0
    0.9141    0.2054   19.4674 H   0  0  0  0  0  0  0  0  0  0  0  0
   -2.3751    2.6683   19.7546 C   0  0  0  0  0  0  0  0  0  0  0  0
   -2.2970    1.7943   19.3906 H   0  0  0  0  0  0  0  0  0  0  0  0
   -3.1704    2.8885   20.8765 C   0  0  0  0  0  0  0  0  0  0  0  0
   -3.6345    2.1622   21.2761 H   0  0  0  0  0  0  0  0  0  0  0  0
    0.1267    5.0589   15.6608 C   0  0  0  0  0  0  0  0  0  0  0  0
    0.9541    4.5933   15.6949 H   0  0  0  0  0  0  0  0  0  0  0  0
   -0.0722    6.0420   14.6978 C   0  0  0  0  0  0  0  0  0  0  0  0
    0.6184    6.2464   14.0782 H   0  0  0  0  0  0  0  0  0  0  0  0
    1.2713    3.5287   18.4137 B   0  5  0  0  0  0  0  0  0  0  0  0
    1.4549    2.7045   19.1378 H   0  0  0  0  0  0  0  0  0  0  0  0
    1.4495    4.5066   18.9128 H   0  0  0  0  0  0  0  0  0  0  0  0
    1.9609    3.4232   17.5473 H   0  0  0  0  0  0  0  0  0  0  0  0
   -0.7307   -2.9237   15.1276 B   0  5  0  0  0  0  0  0  0  0  0  0
   -1.5904   -2.9505   15.8128 H   0  0  0  0  0  0  0  0  0  0  0  0
   -0.6469   -3.8889   14.6073 H   0  0  0  0  0  0  0  0  0  0  0  0
   -0.8737   -2.1200   14.3893 H   0  0  0  0  0  0  0  0  0  0  0  0
  1  3  1  0  0  0  0
  2  4  1  0  0  0  0
  3 20  1  0  0  0  0
  4  7  1  0  0  0  0
  5  6  1  0  0  0  0
  7  8  1  0  0  0  0
  9  7  1  0  0  0  0
 10  7  1  0  0  0  0
 11  5  4  0  0  0  0
 12 11  1  0  0  0  0
 13 14  1  0  0  0  0
 15 16  1  0  0  0  0
 17 11  4  0  0  0  0
 18 17  1  0  0  0  0
 19  1  1  0  0  0  0
 20 21  1  0  0  0  0
 22  4  1  0  0  0  0
 23 22  1  0  0  0  0
 24  2  1  0  0  0  0
 25 24  4  0  0  0  0
 26 25  1  0  0  0  0
 27 25  4  0  0  0  0
 28 27  1  0  0  0  0
 29 27  4  0  0  0  0
 30 29  1  0  0  0  0
 31 32  1  0  0  0  0
 33 31  4  0  0  0  0
 34 33  1  0  0  0  0
 35 33  4  0  0  0  0
 36 35  1  0  0  0  0
 37  2  1  0  0  0  0
 38 22  1  0  0  0  0
 39 38  1  0  0  0  0
 40 38  1  0  0  0  0
 41 38  1  0  0  0  0
 42  5  4  0  0  0  0
 43 42  1  0  0  0  0
 44 19  4  0  0  0  0
 45 44  1  0  0  0  0
 46  1  1  0  0  0  0
 47 13  4  0  0  0  0
 48 47  1  0  0  0  0
 49 48  1  0  0  0  0
 50 48  1  0  0  0  0
 51 48  1  0  0  0  0
 52 13  4  0  0  0  0
 53 52  1  0  0  0  0
 54 15  4  0  0  0  0
 55 54  1  0  0  0  0
 56 20  1  0  0  0  0
 57 56  4  0  0  0  0
 58 57  1  0  0  0  0
 59 57  4  0  0  0  0
 60 59  1  0  0  0  0
 61 59  4  0  0  0  0
 62 61  1  0  0  0  0
 63 61  4  0  0  0  0
 64 63  1  0  0  0  0
 65 56  4  0  0  0  0
 66 65  1  0  0  0  0
 67 24  4  0  0  0  0
 68 67  1  0  0  0  0
 69 29  4  0  0  0  0
 70 69  1  0  0  0  0
 71 37  4  0  0  0  0
 72 71  1  0  0  0  0
 73 31  4  0  0  0  0
 74 73  1  0  0  0  0
 75  2  1  0  0  0  0
 76 75  1  0  0  0  0
 77 75  1  0  0  0  0
 78 75  1  0  0  0  0
 79  1  1  0  0  0  0
 80 79  1  0  0  0  0
 81 79  1  0  0  0  0
 82 79  1  0  0  0  0
 15 52  4  0  0  0  0
 17 19  4  0  0  0  0
 20 22  1  0  0  0  0
 35 37  4  0  0  0  0
 42 44  4  0  0  0  0
 46 47  4  0  0  0  0
 46 54  4  0  0  0  0
 63 65  4  0  0  0  0
 67 69  4  0  0  0  0
 71 73  4  0  0  0  0
M  CHG  4   1   1   2   1  75  -1  79  -1
M  END
$$$$
MIDYIL

From CSD data. Using bond type 'Any'. No disordered atoms. Largest molecule.
 83 87  0  0  0  0  0  0  0  0999 V2000
   10.9516    9.2612   -2.3537 P   0  3  0  0  0  0  0  0  0  0  0  0
    9.0556    7.6714    3.6329 P   0  3  0  0  0  0  0  0  0  0  0  0
    9.8758    7.7986    2.2439 O   0  0  0  0  0  0  0  0  0  0  0  0
   10.7554    9.8384    4.5590 O   0  0  0  0  0  0  0  0  0  0  0  0
    9.7859    9.2110   -1.1542 N   0  0  0  0  0  0  0  0  0  0  0  0
   10.1977   12.9114   -4.0799 C   0  0  0  0  0  0  0  0  0  0  0  0
    9.5440   13.2981   -4.6502 H   0  0  0  0  0  0  0  0  0  0  0  0
   11.2142   13.6958   -3.5696 C   0  0  0  0  0  0  0  0  0  0  0  0
   11.2489   14.6223   -3.7776 H   0  0  0  0  0  0  0  0  0  0  0  0
    8.7492    6.6699   -4.6352 C   0  0  0  0  0  0  0  0  0  0  0  0
    8.0926    5.9988   -4.4889 H   0  0  0  0  0  0  0  0  0  0  0  0
   10.1286   11.5643   -3.7644 C   0  0  0  0  0  0  0  0  0  0  0  0
    9.4266   11.0313   -4.1196 H   0  0  0  0  0  0  0  0  0  0  0  0
   11.0856   10.9837   -2.9264 C   0  0  0  0  0  0  0  0  0  0  0  0
   10.2010    9.0523    0.2546 C   0  0  0  0  0  0  0  0  0  0  0  0
   11.0770    8.5699    0.2558 H   0  0  0  0  0  0  0  0  0  0  0  0
    9.1855    8.1673    1.0094 C   0  0  0  0  0  0  0  0  0  0  0  0
    8.3711    8.7048    1.2286 H   0  0  0  0  0  0  0  0  0  0  0  0
    8.2944    6.0330    3.6218 C   0  0  0  0  0  0  0  0  0  0  0  0
    8.9173    4.9376    3.0078 C   0  0  0  0  0  0  0  0  0  0  0  0
    9.7645    5.0453    2.5916 H   0  0  0  0  0  0  0  0  0  0  0  0
    8.2976    3.7013    3.0075 C   0  0  0  0  0  0  0  0  0  0  0  0
    8.7183    2.9629    2.5828 H   0  0  0  0  0  0  0  0  0  0  0  0
    7.0686    3.5341    3.6237 C   0  0  0  0  0  0  0  0  0  0  0  0
    6.6469    2.6829    3.6135 H   0  0  0  0  0  0  0  0  0  0  0  0
    9.1985    6.9301   -5.9202 C   0  0  0  0  0  0  0  0  0  0  0  0
    8.8437    6.4446   -6.6554 H   0  0  0  0  0  0  0  0  0  0  0  0
   10.1643    7.8996   -6.1316 C   0  0  0  0  0  0  0  0  0  0  0  0
   10.4793    8.0679   -7.0121 H   0  0  0  0  0  0  0  0  0  0  0  0
   10.6775    8.6267   -5.0645 C   0  0  0  0  0  0  0  0  0  0  0  0
   11.3391    9.2917   -5.2164 H   0  0  0  0  0  0  0  0  0  0  0  0
   10.2176    8.3787   -3.7624 C   0  0  0  0  0  0  0  0  0  0  0  0
   12.1809   13.1312   -2.7541 C   0  0  0  0  0  0  0  0  0  0  0  0
   12.8832   13.6698   -2.4077 H   0  0  0  0  0  0  0  0  0  0  0  0
   12.1241   11.7719   -2.4413 C   0  0  0  0  0  0  0  0  0  0  0  0
   12.7975   11.3835   -1.8951 H   0  0  0  0  0  0  0  0  0  0  0  0
    8.7841    6.9301    0.2443 C   0  0  0  0  0  0  0  0  0  0  0  0
    7.4835    6.7882   -0.2231 C   0  0  0  0  0  0  0  0  0  0  0  0
    6.8353    7.4539   -0.0235 H   0  0  0  0  0  0  0  0  0  0  0  0
    7.1231    5.6760   -0.9839 C   0  0  0  0  0  0  0  0  0  0  0  0
    6.2415    5.6020   -1.3302 H   0  0  0  0  0  0  0  0  0  0  0  0
    8.0529    4.6774   -1.2342 C   0  0  0  0  0  0  0  0  0  0  0  0
    7.8057    3.9137   -1.7423 H   0  0  0  0  0  0  0  0  0  0  0  0
    9.3476    4.7967   -0.7398 C   0  0  0  0  0  0  0  0  0  0  0  0
    9.9785    4.1023   -0.8906 H   0  0  0  0  0  0  0  0  0  0  0  0
    9.7186    5.9259   -0.0278 C   0  0  0  0  0  0  0  0  0  0  0  0
   10.6134    6.0181    0.2777 H   0  0  0  0  0  0  0  0  0  0  0  0
    6.4527    4.5985    4.2524 C   0  0  0  0  0  0  0  0  0  0  0  0
    5.6176    4.4753    4.6884 H   0  0  0  0  0  0  0  0  0  0  0  0
    7.0575    5.8526    4.2461 C   0  0  0  0  0  0  0  0  0  0  0  0
    6.6279    6.5873    4.6674 H   0  0  0  0  0  0  0  0  0  0  0  0
   10.4195    7.5370    4.8092 C   0  0  0  0  0  0  0  0  0  0  0  0
   10.7872    6.3063    5.3541 C   0  0  0  0  0  0  0  0  0  0  0  0
   10.3164    5.5216    5.1004 H   0  0  0  0  0  0  0  0  0  0  0  0
   11.8371    6.2152    6.2666 C   0  0  0  0  0  0  0  0  0  0  0  0
   12.0898    5.3743    6.6284 H   0  0  0  0  0  0  0  0  0  0  0  0
   12.5011    7.3604    6.6349 C   0  0  0  0  0  0  0  0  0  0  0  0
   13.2137    7.3012    7.2605 H   0  0  0  0  0  0  0  0  0  0  0  0
   12.1607    8.5985    6.1187 C   0  0  0  0  0  0  0  0  0  0  0  0
   12.6251    9.3785    6.3972 H   0  0  0  0  0  0  0  0  0  0  0  0
   11.1270    8.6896    5.1853 C   0  0  0  0  0  0  0  0  0  0  0  0
   11.4264   11.0645    4.8823 C   0  0  0  0  0  0  0  0  0  0  0  0
   11.3391   11.2402    5.8429 H   0  0  0  0  0  0  0  0  0  0  0  0
   11.0223   11.8005    4.3777 H   0  0  0  0  0  0  0  0  0  0  0  0
   12.3746   10.9890    4.6490 H   0  0  0  0  0  0  0  0  0  0  0  0
   10.4152   10.3890    0.9580 C   0  0  0  0  0  0  0  0  0  0  0  0
   11.1645   10.8624    0.5394 H   0  0  0  0  0  0  0  0  0  0  0  0
   10.6157   10.2323    1.9043 H   0  0  0  0  0  0  0  0  0  0  0  0
    9.6028   10.9323    0.8819 H   0  0  0  0  0  0  0  0  0  0  0  0
    8.5323    9.9419   -1.3824 C   0  0  0  0  0  0  0  0  0  0  0  0
    7.8426    9.6052   -0.7729 H   0  0  0  0  0  0  0  0  0  0  0  0
    8.2417    9.8104   -2.3090 H   0  0  0  0  0  0  0  0  0  0  0  0
    8.6762   10.8969   -1.2174 H   0  0  0  0  0  0  0  0  0  0  0  0
    9.2597    7.3904   -3.5584 C   0  0  0  0  0  0  0  0  0  0  0  0
    8.9516    7.2065   -2.6788 H   0  0  0  0  0  0  0  0  0  0  0  0
    7.7289    9.0203    3.9273 B   0  5  0  0  0  0  0  0  0  0  0  0
    8.1246    9.9973    3.6165 H   0  0  0  0  0  0  0  0  0  0  0  0
    7.4697    9.0523    4.9943 H   0  0  0  0  0  0  0  0  0  0  0  0
    6.8300    8.7845    3.3399 H   0  0  0  0  0  0  0  0  0  0  0  0
   12.6295    8.4867   -1.8501 B   0  5  0  0  0  0  0  0  0  0  0  0
   13.0282    9.0147   -0.9635 H   0  0  0  0  0  0  0  0  0  0  0  0
   13.3458    8.5807   -2.6868 H   0  0  0  0  0  0  0  0  0  0  0  0
   12.4849    7.4177   -1.6072 H   0  0  0  0  0  0  0  0  0  0  0  0
  1  5  1  0  0  0  0
  2  3  1  0  0  0  0
  3 17  1  0  0  0  0
  4 61  1  0  0  0  0
  5 15  1  0  0  0  0
  6  7  1  0  0  0  0
  8  6  4  0  0  0  0
  9  8  1  0  0  0  0
 10 11  1  0  0  0  0
 12  6  4  0  0  0  0
 13 12  1  0  0  0  0
 14  1  1  0  0  0  0
 15 16  1  0  0  0  0
 17 15  1  0  0  0  0
 18 17  1  0  0  0  0
 19  2  1  0  0  0  0
 20 19  4  0  0  0  0
 21 20  1  0  0  0  0
 22 20  4  0  0  0  0
 23 22  1  0  0  0  0
 24 22  4  0  0  0  0
 25 24  1  0  0  0  0
 26 10  4  0  0  0  0
 27 26  1  0  0  0  0
 28 26  4  0  0  0  0
 29 28  1  0  0  0  0
 30 28  4  0  0  0  0
 31 30  1  0  0  0  0
 32  1  1  0  0  0  0
 33  8  4  0  0  0  0
 34 33  1  0  0  0  0
 35 14  4  0  0  0  0
 36 35  1  0  0  0  0
 37 17  1  0  0  0  0
 38 37  4  0  0  0  0
 39 38  1  0  0  0  0
 40 38  4  0  0  0  0
 41 40  1  0  0  0  0
 42 40  4  0  0  0  0
 43 42  1  0  0  0  0
 44 42  4  0  0  0  0
 45 44  1  0  0  0  0
 46 37  4  0  0  0  0
 47 46  1  0  0  0  0
 48 24  4  0  0  0  0
 49 48  1  0  0  0  0
 50 19  4  0  0  0  0
 51 50  1  0  0  0  0
 52  2  1  0  0  0  0
 53 52  4  0  0  0  0
 54 53  1  0  0  0  0
 55 53  4  0  0  0  0
 56 55  1  0  0  0  0
 57 55  4  0  0  0  0
 58 57  1  0  0  0  0
 59 57  4  0  0  0  0
 60 59  1  0  0  0  0
 61 52  4  0  0  0  0
 62  4  1  0  0  0  0
 63 62  1  0  0  0  0
 64 62  1  0  0  0  0
 65 62  1  0  0  0  0
 66 15  1  0  0  0  0
 67 66  1  0  0  0  0
 68 66  1  0  0  0  0
 69 66  1  0  0  0  0
 70  5  1  0  0  0  0
 71 70  1  0  0  0  0
 72 70  1  0  0  0  0
 73 70  1  0  0  0  0
 74 10  4  0  0  0  0
 75 74  1  0  0  0  0
 76  2  1  0  0  0  0
 77 76  1  0  0  0  0
 78 76  1  0  0  0  0
 79 76  1  0  0  0  0
 80  1  1  0  0  0  0
 81 80  1  0  0  0  0
 82 80  1  0  0  0  0
 83 80  1  0  0  0  0
 12 14  4  0  0  0  0
 30 32  4  0  0  0  0
 32 74  4  0  0  0  0
 33 35  4  0  0  0  0
 44 46  4  0  0  0  0
 48 50  4  0  0  0  0
 59 61  4  0  0  0  0
M  CHG  4   1   1   2   1  76  -1  80  -1
M  END
$$$$
MIDYOR

From CSD data. Using bond type 'Any'. No disordered atoms. Largest molecule.
 85 90  0  0  0  0  0  0  0  0999 V2000
    4.5569   16.8058   13.0598 P   0  3  0  0  0  0  0  0  0  0  0  0
    2.1367   11.0548   11.3977 P   0  3  0  0  0  0  0  0  0  0  0  0
    2.9383   12.2443   12.1365 O   0  0  0  0  0  0  0  0  0  0  0  0
    3.2291   15.8589   12.7480 N   0  0  0  0  0  0  0  0  0  0  0  0
    3.9538   19.1031   17.0103 C   0  0  0  0  0  0  0  0  0  0  0  0
    3.8631   19.5444   17.8467 H   0  0  0  0  0  0  0  0  0  0  0  0
    3.0636   18.1031   16.6493 C   0  0  0  0  0  0  0  0  0  0  0  0
    2.3629   17.8590   17.2426 H   0  0  0  0  0  0  0  0  0  0  0  0
    3.1891   17.4549   15.4260 C   0  0  0  0  0  0  0  0  0  0  0  0
    2.5629   16.7845   15.1792 H   0  0  0  0  0  0  0  0  0  0  0  0
    4.2338   17.7860   14.5574 C   0  0  0  0  0  0  0  0  0  0  0  0
    3.2318   14.4108   13.0114 C   0  0  0  0  0  0  0  0  0  0  0  0
    4.1739   14.1337   13.2004 H   0  0  0  0  0  0  0  0  0  0  0  0
    2.7531   13.6449   11.7675 C   0  0  0  0  0  0  0  0  0  0  0  0
    1.7805   13.8248   11.6188 H   0  0  0  0  0  0  0  0  0  0  0  0
    2.3399    9.7692   12.6656 C   0  0  0  0  0  0  0  0  0  0  0  0
    1.6424    8.5107   12.6072 C   0  0  0  0  0  0  0  0  0  0  0  0
    0.8232    8.1187   11.5149 C   0  0  0  0  0  0  0  0  0  0  0  0
    0.7165    8.7028   10.7733 H   0  0  0  0  0  0  0  0  0  0  0  0
    0.1837    6.8995   11.5214 C   0  0  0  0  0  0  0  0  0  0  0  0
   -0.3552    6.6504   10.7798 H   0  0  0  0  0  0  0  0  0  0  0  0
    0.3141    6.0181   12.6077 C   0  0  0  0  0  0  0  0  0  0  0  0
   -0.1426    5.1853   12.6028 H   0  0  0  0  0  0  0  0  0  0  0  0
    4.6651   19.7401    9.5127 C   0  0  0  0  0  0  0  0  0  0  0  0
    4.6869   20.3308    8.7689 H   0  0  0  0  0  0  0  0  0  0  0  0
    5.1885   18.4574    9.3961 C   0  0  0  0  0  0  0  0  0  0  0  0
    5.5679   18.1736    8.5724 H   0  0  0  0  0  0  0  0  0  0  0  0
    5.1594   17.5888   10.4807 C   0  0  0  0  0  0  0  0  0  0  0  0
    5.5092   16.7099   10.3948 H   0  0  0  0  0  0  0  0  0  0  0  0
    4.6133   18.0086   11.6994 C   0  0  0  0  0  0  0  0  0  0  0  0
    1.9713   16.4906   12.3415 C   0  0  0  0  0  0  0  0  0  0  0  0
    1.9313   16.5383   11.3635 H   0  0  0  0  0  0  0  0  0  0  0  0
    1.9250   17.3955   12.7149 H   0  0  0  0  0  0  0  0  0  0  0  0
    1.2174   15.9607   12.6742 H   0  0  0  0  0  0  0  0  0  0  0  0
    3.1681   10.5658    9.9976 C   0  0  0  0  0  0  0  0  0  0  0  0
    4.3381    9.8298   10.1692 C   0  0  0  0  0  0  0  0  0  0  0  0
    4.5960    9.5321   11.0338 H   0  0  0  0  0  0  0  0  0  0  0  0
    5.1250    9.5359    9.0612 C   0  0  0  0  0  0  0  0  0  0  0  0
    5.9195    9.0269    9.1705 H   0  0  0  0  0  0  0  0  0  0  0  0
    4.7628    9.9771    7.8019 C   0  0  0  0  0  0  0  0  0  0  0  0
    5.3027    9.7613    7.0508 H   0  0  0  0  0  0  0  0  0  0  0  0
    3.6188   10.7295    7.6326 C   0  0  0  0  0  0  0  0  0  0  0  0
    3.3813   11.0492    6.7702 H   0  0  0  0  0  0  0  0  0  0  0  0
    2.8162   11.0175    8.7270 C   0  0  0  0  0  0  0  0  0  0  0  0
    2.0224   11.5257    8.6096 H   0  0  0  0  0  0  0  0  0  0  0  0
    3.1676   10.0378   13.7378 C   0  0  0  0  0  0  0  0  0  0  0  0
    3.6471   10.8577   13.7612 H   0  0  0  0  0  0  0  0  0  0  0  0
    3.3167    9.1206   14.7987 C   0  0  0  0  0  0  0  0  0  0  0  0
    3.8943    9.3265   15.5246 H   0  0  0  0  0  0  0  0  0  0  0  0
    2.6360    7.9409   14.7863 C   0  0  0  0  0  0  0  0  0  0  0  0
    2.7299    7.3364   15.5133 H   0  0  0  0  0  0  0  0  0  0  0  0
    1.7884    7.6050   13.6977 C   0  0  0  0  0  0  0  0  0  0  0  0
    1.0999    6.3611   13.6702 C   0  0  0  0  0  0  0  0  0  0  0  0
    1.1879    5.7606   14.4010 H   0  0  0  0  0  0  0  0  0  0  0  0
    3.5190   13.9415   10.5027 C   0  0  0  0  0  0  0  0  0  0  0  0
    4.8645   13.5871   10.3829 C   0  0  0  0  0  0  0  0  0  0  0  0
    5.3185   13.1932   11.1186 H   0  0  0  0  0  0  0  0  0  0  0  0
    5.5389   13.8093    9.1917 C   0  0  0  0  0  0  0  0  0  0  0  0
    6.4540   13.5673    9.1113 H   0  0  0  0  0  0  0  0  0  0  0  0
    4.8743   14.3875    8.1132 C   0  0  0  0  0  0  0  0  0  0  0  0
    5.3389   14.5392    7.2988 H   0  0  0  0  0  0  0  0  0  0  0  0
    3.5401   14.7431    8.2200 C   0  0  0  0  0  0  0  0  0  0  0  0
    3.0886   15.1361    7.4824 H   0  0  0  0  0  0  0  0  0  0  0  0
    2.8663   14.5194    9.4176 C   0  0  0  0  0  0  0  0  0  0  0  0
    1.9517   14.7639    9.4948 H   0  0  0  0  0  0  0  0  0  0  0  0
    2.3767   14.0438   14.2319 C   0  0  0  0  0  0  0  0  0  0  0  0
    2.7494   14.4703   15.0318 H   0  0  0  0  0  0  0  0  0  0  0  0
    2.3773   13.0710   14.3503 H   0  0  0  0  0  0  0  0  0  0  0  0
    1.4584   14.3558   14.0931 H   0  0  0  0  0  0  0  0  0  0  0  0
    4.9747   19.4547   16.1453 C   0  0  0  0  0  0  0  0  0  0  0  0
    5.5764   20.1506   16.3821 H   0  0  0  0  0  0  0  0  0  0  0  0
    5.1238   18.7937   14.9301 C   0  0  0  0  0  0  0  0  0  0  0  0
    5.8379   19.0302   14.3497 H   0  0  0  0  0  0  0  0  0  0  0  0
    4.0958   19.2958   11.8084 C   0  0  0  0  0  0  0  0  0  0  0  0
    3.7291   19.5908   12.6335 H   0  0  0  0  0  0  0  0  0  0  0  0
    4.1153   20.1556   10.7060 C   0  0  0  0  0  0  0  0  0  0  0  0
    3.7480   21.0286   10.7798 H   0  0  0  0  0  0  0  0  0  0  0  0
    6.2019   15.8671   13.2893 B   0  5  0  0  0  0  0  0  0  0  0  0
    6.0975   15.1296   14.1282 H   0  0  0  0  0  0  0  0  0  0  0  0
    7.0176   16.5968   13.5332 H   0  0  0  0  0  0  0  0  0  0  0  0
    6.4577   15.3237   12.3417 H   0  0  0  0  0  0  0  0  0  0  0  0
    0.3657   11.5745   10.8994 B   0  5  0  0  0  0  0  0  0  0  0  0
   -0.2234   11.7891   11.8056 H   0  0  0  0  0  0  0  0  0  0  0  0
   -0.1125   10.7574   10.3356 H   0  0  0  0  0  0  0  0  0  0  0  0
    0.4116   12.4773   10.2688 H   0  0  0  0  0  0  0  0  0  0  0  0
  1  4  1  0  0  0  0
  2  3  1  0  0  0  0
  3 14  1  0  0  0  0
  4 12  1  0  0  0  0
  5  6  1  0  0  0  0
  7  5  4  0  0  0  0
  8  7  1  0  0  0  0
  9  7  4  0  0  0  0
 10  9  1  0  0  0  0
 11  1  1  0  0  0  0
 12 13  1  0  0  0  0
 14 12  1  0  0  0  0
 15 14  1  0  0  0  0
 16  2  1  0  0  0  0
 17 16  4  0  0  0  0
 18 17  4  0  0  0  0
 19 18  1  0  0  0  0
 20 18  4  0  0  0  0
 21 20  1  0  0  0  0
 22 20  4  0  0  0  0
 23 22  1  0  0  0  0
 24 25  1  0  0  0  0
 26 24  4  0  0  0  0
 27 26  1  0  0  0  0
 28 26  4  0  0  0  0
 29 28  1  0  0  0  0
 30  1  1  0  0  0  0
 31  4  1  0  0  0  0
 32 31  1  0  0  0  0
 33 31  1  0  0  0  0
 34 31  1  0  0  0  0
 35  2  1  0  0  0  0
 36 35  4  0  0  0  0
 37 36  1  0  0  0  0
 38 36  4  0  0  0  0
 39 38  1  0  0  0  0
 40 38  4  0  0  0  0
 41 40  1  0  0  0  0
 42 40  4  0  0  0  0
 43 42  1  0  0  0  0
 44 35  4  0  0  0  0
 45 44  1  0  0  0  0
 46 16  4  0  0  0  0
 47 46  1  0  0  0  0
 48 46  4  0  0  0  0
 49 48  1  0  0  0  0
 50 48  4  0  0  0  0
 51 50  1  0  0  0  0
 52 17  4  0  0  0  0
 53 22  4  0  0  0  0
 54 53  1  0  0  0  0
 55 14  1  0  0  0  0
 56 55  4  0  0  0  0
 57 56  1  0  0  0  0
 58 56  4  0  0  0  0
 59 58  1  0  0  0  0
 60 58  4  0  0  0  0
 61 60  1  0  0  0  0
 62 60  4  0  0  0  0
 63 62  1  0  0  0  0
 64 55  4  0  0  0  0
 65 64  1  0  0  0  0
 66 12  1  0  0  0  0
 67 66  1  0  0  0  0
 68 66  1  0  0  0  0
 69 66  1  0  0  0  0
 70  5  4  0  0  0  0
 71 70  1  0  0  0  0
 72 11  4  0  0  0  0
 73 72  1  0  0  0  0
 74 30  4  0  0  0  0
 75 74  1  0  0  0  0
 76 24  4  0  0  0  0
 77 76  1  0  0  0  0
 78  1  1  0  0  0  0
 79 78  1  0  0  0  0
 80 78  1  0  0  0  0
 81 78  1  0  0  0  0
 82  2  1  0  0  0  0
 83 82  1  0  0  0  0
 84 82  1  0  0  0  0
 85 82  1  0  0  0  0
  9 11  4  0  0  0  0
 28 30  4  0  0  0  0
 42 44  4  0  0  0  0
 50 52  4  0  0  0  0
 52 53  4  0  0  0  0
 62 64  4  0  0  0  0
 70 72  4  0  0  0  0
 74 76  4  0  0  0  0
M  CHG  4   1   1   2   1  78  -1  82  -1
M  END
$$$$
MIDYUX

From CSD data. Using bond type 'Any'. No disordered atoms. Largest molecule.
 89 94  0  0  0  0  0  0  0  0999 V2000
    2.4729    6.7946   17.3156 P   0  3  0  0  0  0  0  0  0  0  0  0
    0.9677    5.6985   23.5054 P   0  3  0  0  0  0  0  0  0  0  0  0
    2.4136    6.9224   18.9241 O   0  0  0  0  0  0  0  0  0  0  0  0
    2.9007    8.4944   16.8779 C   0  0  0  0  0  0  0  0  0  0  0  0
    2.8377    8.8703   15.5415 C   0  0  0  0  0  0  0  0  0  0  0  0
    2.4890    8.2683   14.8945 H   0  0  0  0  0  0  0  0  0  0  0  0
    3.2836   10.1279   15.1516 C   0  0  0  0  0  0  0  0  0  0  0  0
    3.2398   10.3852   14.2382 H   0  0  0  0  0  0  0  0  0  0  0  0
    3.7927   11.0095   16.0983 C   0  0  0  0  0  0  0  0  0  0  0  0
    4.0975   11.8683   15.8320 H   0  0  0  0  0  0  0  0  0  0  0  0
    3.8567   10.6322   17.4350 C   0  0  0  0  0  0  0  0  0  0  0  0
    4.2045   11.2346   18.0820 H   0  0  0  0  0  0  0  0  0  0  0  0
    3.4107    9.3747   17.8247 C   0  0  0  0  0  0  0  0  0  0  0  0
    3.4537    9.1177   18.7382 H   0  0  0  0  0  0  0  0  0  0  0  0
    0.9733    5.2818   21.8871 N   0  0  0  0  0  0  0  0  0  0  0  0
    2.2308    6.3261   27.0891 C   0  0  0  0  0  0  0  0  0  0  0  0
    3.1353    6.3342   26.7991 H   0  0  0  0  0  0  0  0  0  0  0  0
    4.0111    5.8602   16.9391 C   0  0  0  0  0  0  0  0  0  0  0  0
    5.2522    6.4055   17.2483 C   0  0  0  0  0  0  0  0  0  0  0  0
    5.3104    7.2924   17.5841 H   0  0  0  0  0  0  0  0  0  0  0  0
    6.4074    5.6550   17.0613 C   0  0  0  0  0  0  0  0  0  0  0  0
    7.2549    6.0289   17.2710 H   0  0  0  0  0  0  0  0  0  0  0  0
    6.3214    4.3590   16.5685 C   0  0  0  0  0  0  0  0  0  0  0  0
    7.1107    3.8457   16.4414 H   0  0  0  0  0  0  0  0  0  0  0  0
    5.0804    3.8123   16.2617 C   0  0  0  0  0  0  0  0  0  0  0  0
    5.0220    2.9259   15.9248 H   0  0  0  0  0  0  0  0  0  0  0  0
    3.9252    4.5629   16.4475 C   0  0  0  0  0  0  0  0  0  0  0  0
    3.0775    4.1894   16.2379 H   0  0  0  0  0  0  0  0  0  0  0  0
    2.0252    5.7512   19.7126 C   0  0  0  0  0  0  0  0  0  0  0  0
    1.4489    5.1501   19.1589 H   0  0  0  0  0  0  0  0  0  0  0  0
    1.1990    6.3305   20.8739 C   0  0  0  0  0  0  0  0  0  0  0  0
    1.7508    7.0456   21.3035 H   0  0  0  0  0  0  0  0  0  0  0  0
    1.8735    4.3527   24.3505 C   0  0  0  0  0  0  0  0  0  0  0  0
    1.8991    4.2240   25.7552 C   0  0  0  0  0  0  0  0  0  0  0  0
    1.3846    5.3346   26.6576 C   0  0  0  0  0  0  0  0  0  0  0  0
    1.7730    7.3189   27.9462 C   0  0  0  0  0  0  0  0  0  0  0  0
    2.3492    8.0261   28.2138 H   0  0  0  0  0  0  0  0  0  0  0  0
    0.4643    7.2686   28.4145 C   0  0  0  0  0  0  0  0  0  0  0  0
    0.1428    7.9769   28.9593 H   0  0  0  0  0  0  0  0  0  0  0  0
    0.0868    5.2618   27.2085 C   0  0  0  0  0  0  0  0  0  0  0  0
   -0.4785    4.5391   26.9618 H   0  0  0  0  0  0  0  0  0  0  0  0
   -0.3893    6.2176   28.1054 C   0  0  0  0  0  0  0  0  0  0  0  0
   -1.2561    6.1519   28.4895 H   0  0  0  0  0  0  0  0  0  0  0  0
    2.6028    3.4486   23.5685 C   0  0  0  0  0  0  0  0  0  0  0  0
    2.6238    3.5588   22.6251 H   0  0  0  0  0  0  0  0  0  0  0  0
    3.2964    2.3920   24.1488 C   0  0  0  0  0  0  0  0  0  0  0  0
    3.7851    1.7855   23.6049 H   0  0  0  0  0  0  0  0  0  0  0  0
    3.2708    2.2292   25.5155 C   0  0  0  0  0  0  0  0  0  0  0  0
    3.7164    1.4920   25.9159 H   0  0  0  0  0  0  0  0  0  0  0  0
    2.5936    3.1465   26.3068 C   0  0  0  0  0  0  0  0  0  0  0  0
    2.6028    3.0384   27.2505 H   0  0  0  0  0  0  0  0  0  0  0  0
   -0.0932    6.9840   20.3854 C   0  0  0  0  0  0  0  0  0  0  0  0
   -0.6586    6.3096   19.9549 H   0  0  0  0  0  0  0  0  0  0  0  0
    0.1211    7.6906   19.7405 H   0  0  0  0  0  0  0  0  0  0  0  0
   -0.5715    7.3729   21.1478 H   0  0  0  0  0  0  0  0  0  0  0  0
    3.2599    5.0086   20.1458 C   0  0  0  0  0  0  0  0  0  0  0  0
    4.2067    5.6245   20.9679 C   0  0  0  0  0  0  0  0  0  0  0  0
    4.0551    6.5088   21.2789 H   0  0  0  0  0  0  0  0  0  0  0  0
    5.3646    4.9587   21.3343 C   0  0  0  0  0  0  0  0  0  0  0  0
    6.0079    5.3909   21.8834 H   0  0  0  0  0  0  0  0  0  0  0  0
    5.5812    3.6667   20.9003 C   0  0  0  0  0  0  0  0  0  0  0  0
    6.3691    3.2052   21.1620 H   0  0  0  0  0  0  0  0  0  0  0  0
    4.6563    3.0459   20.0870 C   0  0  0  0  0  0  0  0  0  0  0  0
    4.8140    2.1586   19.7846 H   0  0  0  0  0  0  0  0  0  0  0  0
    3.4948    3.7104   19.7077 C   0  0  0  0  0  0  0  0  0  0  0  0
    2.8613    3.2759   19.1485 H   0  0  0  0  0  0  0  0  0  0  0  0
    0.2166    4.1062   21.4289 C   0  0  0  0  0  0  0  0  0  0  0  0
    0.1765    3.4427   22.1490 H   0  0  0  0  0  0  0  0  0  0  0  0
    0.6620    3.7147   20.6486 H   0  0  0  0  0  0  0  0  0  0  0  0
   -0.6924    4.3781   21.1840 H   0  0  0  0  0  0  0  0  0  0  0  0
   -0.7430    5.5160   24.0953 C   0  0  0  0  0  0  0  0  0  0  0  0
   -1.5317    6.6584   24.2642 C   0  0  0  0  0  0  0  0  0  0  0  0
   -1.1584    7.5212   24.1249 H   0  0  0  0  0  0  0  0  0  0  0  0
   -2.8678    6.5247   24.6380 C   0  0  0  0  0  0  0  0  0  0  0  0
   -3.4019    7.3003   24.7624 H   0  0  0  0  0  0  0  0  0  0  0  0
   -3.4198    5.2790   24.8287 C   0  0  0  0  0  0  0  0  0  0  0  0
   -4.3346    5.1993   25.0728 H   0  0  0  0  0  0  0  0  0  0  0  0
   -2.6512    4.1472   24.6661 C   0  0  0  0  0  0  0  0  0  0  0  0
   -3.0375    3.2891   24.7963 H   0  0  0  0  0  0  0  0  0  0  0  0
   -1.3142    4.2571   24.3135 C   0  0  0  0  0  0  0  0  0  0  0  0
   -0.7839    3.4751   24.2197 H   0  0  0  0  0  0  0  0  0  0  0  0
    0.8618    6.1633   16.5446 B   0  5  0  0  0  0  0  0  0  0  0  0
    0.6434    5.1308   16.9269 H   0  0  0  0  0  0  0  0  0  0  0  0
    0.9678    6.1355   15.4270 H   0  0  0  0  0  0  0  0  0  0  0  0
    0.0183    6.8516   16.8228 H   0  0  0  0  0  0  0  0  0  0  0  0
    1.6816    7.4592   23.7717 B   0  5  0  0  0  0  0  0  0  0  0  0
    2.7508    7.4552   23.5507 H   0  0  0  0  0  0  0  0  0  0  0  0
    1.5262    7.7624   24.8057 H   0  0  0  0  0  0  0  0  0  0  0  0
    1.1789    8.1595   23.1099 H   0  0  0  0  0  0  0  0  0  0  0  0
  1  3  1  0  0  0  0
  2 15  1  0  0  0  0
  3 29  1  0  0  0  0
  4  1  1  0  0  0  0
  5  4  4  0  0  0  0
  6  5  1  0  0  0  0
  7  5  4  0  0  0  0
  8  7  1  0  0  0  0
  9  7  4  0  0  0  0
 10  9  1  0  0  0  0
 11  9  4  0  0  0  0
 12 11  1  0  0  0  0
 13  4  4  0  0  0  0
 14 13  1  0  0  0  0
 15 31  1  0  0  0  0
 16 17  1  0  0  0  0
 18  1  1  0  0  0  0
 19 18  4  0  0  0  0
 20 19  1  0  0  0  0
 21 19  4  0  0  0  0
 22 21  1  0  0  0  0
 23 21  4  0  0  0  0
 24 23  1  0  0  0  0
 25 23  4  0  0  0  0
 26 25  1  0  0  0  0
 27 18  4  0  0  0  0
 28 27  1  0  0  0  0
 29 30  1  0  0  0  0
 31 29  1  0  0  0  0
 32 31  1  0  0  0  0
 33  2  1  0  0  0  0
 34 33  4  0  0  0  0
 35 16  4  0  0  0  0
 36 16  4  0  0  0  0
 37 36  1  0  0  0  0
 38 36  4  0  0  0  0
 39 38  1  0  0  0  0
 40 35  4  0  0  0  0
 41 40  1  0  0  0  0
 42 38  4  0  0  0  0
 43 42  1  0  0  0  0
 44 33  4  0  0  0  0
 45 44  1  0  0  0  0
 46 44  4  0  0  0  0
 47 46  1  0  0  0  0
 48 46  4  0  0  0  0
 49 48  1  0  0  0  0
 50 34  4  0  0  0  0
 51 50  1  0  0  0  0
 52 31  1  0  0  0  0
 53 52  1  0  0  0  0
 54 52  1  0  0  0  0
 55 52  1  0  0  0  0
 56 29  1  0  0  0  0
 57 56  4  0  0  0  0
 58 57  1  0  0  0  0
 59 57  4  0  0  0  0
 60 59  1  0  0  0  0
 61 59  4  0  0  0  0
 62 61  1  0  0  0  0
 63 61  4  0  0  0  0
 64 63  1  0  0  0  0
 65 56  4  0  0  0  0
 66 65  1  0  0  0  0
 67 15  1  0  0  0  0
 68 67  1  0  0  0  0
 69 67  1  0  0  0  0
 70 67  1  0  0  0  0
 71  2  1  0  0  0  0
 72 71  4  0  0  0  0
 73 72  1  0  0  0  0
 74 72  4  0  0  0  0
 75 74  1  0  0  0  0
 76 74  4  0  0  0  0
 77 76  1  0  0  0  0
 78 76  4  0  0  0  0
 79 78  1  0  0  0  0
 80 71  4  0  0  0  0
 81 80  1  0  0  0  0
 82  1  1  0  0  0  0
 83 82  1  0  0  0  0
 84 82  1  0  0  0  0
 85 82  1  0  0  0  0
 86  2  1  0  0  0  0
 87 86  1  0  0  0  0
 88 86  1  0  0  0  0
 89 86  1  0  0  0  0
 11 13  4  0  0  0  0
 25 27  4  0  0  0  0
 34 35  1  0  0  0  0
 40 42  4  0  0  0  0
 48 50  4  0  0  0  0
 63 65  4  0  0  0  0
 78 80  4  0  0  0  0
M  CHG  4   1   1   2   1  82  -1  86  -1
M  END
$$$$
MIJKAS

From CSD data. Using bond type 'Any'. No disordered atoms. Largest molecule.
 71 72  0  0  0  0  0  0  0  0999 V2000
   10.2853   10.2853    0.0000 U   0  0  0  0  0  0  0  0  0  0  0  0
   12.9076    7.5665    0.2732 P   0  0  0  0  0  0  0  0  0  0  0  0
   10.4084   10.2163   -1.7547 O   0  0  0  0  0  0  0  0  0  0  0  0
   11.8709    8.6357    0.1867 O   0  0  0  0  0  0  0  0  0  0  0  0
    8.3666    8.3666    0.0000 B   0  0  0  0  0  0  0  0  0  0  0  0
    9.4355    8.1292    0.1671 H   0  0  0  0  0  0  0  0  0  0  0  0
    7.8263    8.1862    0.9213 H   0  0  0  0  0  0  0  0  0  0  0  0
   12.2887   12.2887    0.0000 B   0  0  0  0  0  0  0  0  0  0  0  0
   11.1681   12.3890   -0.0737 H   0  0  0  0  0  0  0  0  0  0  0  0
   12.8723   12.5842    0.7420 H   0  0  0  0  0  0  0  0  0  0  0  0
   14.0456    8.0606    1.3144 N   0  0  0  0  0  0  0  0  0  0  0  0
   13.5254    7.3082   -1.2162 N   0  0  0  0  0  0  0  0  0  0  0  0
   12.3098    6.1665    0.7813 N   0  0  0  0  0  0  0  0  0  0  0  0
   13.8177    8.9860    2.3734 C   0  0  0  0  0  0  0  0  0  0  0  0
   13.8800    8.5291    3.2161 H   0  0  0  0  0  0  0  0  0  0  0  0
   12.9430    9.3690    2.2825 H   0  0  0  0  0  0  0  0  0  0  0  0
   14.4783    9.6814    2.3365 H   0  0  0  0  0  0  0  0  0  0  0  0
   15.3530    7.4729    1.3538 C   0  0  0  0  0  0  0  0  0  0  0  0
   16.0030    8.1513    1.5503 H   0  0  0  0  0  0  0  0  0  0  0  0
   15.5514    7.0761    0.5012 H   0  0  0  0  0  0  0  0  0  0  0  0
   15.3804    6.7965    2.0343 H   0  0  0  0  0  0  0  0  0  0  0  0
   13.8156    8.4257   -2.0663 C   0  0  0  0  0  0  0  0  0  0  0  0
   13.4906    8.2463   -2.9507 H   0  0  0  0  0  0  0  0  0  0  0  0
   14.7642    8.5681   -2.0957 H   0  0  0  0  0  0  0  0  0  0  0  0
   13.3840    9.2108   -1.7198 H   0  0  0  0  0  0  0  0  0  0  0  0
   14.0952    6.0695   -1.6756 C   0  0  0  0  0  0  0  0  0  0  0  0
   13.7322    5.8510   -2.5380 H   0  0  0  0  0  0  0  0  0  0  0  0
   13.8842    5.3699   -1.0516 H   0  0  0  0  0  0  0  0  0  0  0  0
   15.0481    6.1602   -1.7419 H   0  0  0  0  0  0  0  0  0  0  0  0
   12.5241    5.5851    2.0638 C   0  0  0  0  0  0  0  0  0  0  0  0
   11.6788    5.3414    2.4495 H   0  0  0  0  0  0  0  0  0  0  0  0
   12.9641    6.2203    2.6314 H   0  0  0  0  0  0  0  0  0  0  0  0
   13.0717    4.8032    1.9729 H   0  0  0  0  0  0  0  0  0  0  0  0
   11.2040    5.5429    0.0565 C   0  0  0  0  0  0  0  0  0  0  0  0
   11.1882    4.6017    0.2457 H   0  0  0  0  0  0  0  0  0  0  0  0
   11.3211    5.6780   -0.8869 H   0  0  0  0  0  0  0  0  0  0  0  0
   10.3757    5.9386    0.3366 H   0  0  0  0  0  0  0  0  0  0  0  0
    7.5665   12.9076   -0.2732 P   0  0  0  0  0  0  0  0  0  0  0  0
   10.2163   10.4084    1.7547 O   0  0  0  0  0  0  0  0  0  0  0  0
    8.6357   11.8709   -0.1867 O   0  0  0  0  0  0  0  0  0  0  0  0
    8.1292    9.4355   -0.1671 H   0  0  0  0  0  0  0  0  0  0  0  0
    8.1862    7.8263   -0.9213 H   0  0  0  0  0  0  0  0  0  0  0  0
   12.3890   11.1681    0.0737 H   0  0  0  0  0  0  0  0  0  0  0  0
   12.5842   12.8723   -0.7420 H   0  0  0  0  0  0  0  0  0  0  0  0
    8.0606   14.0456   -1.3144 N   0  0  0  0  0  0  0  0  0  0  0  0
    7.3082   13.5254    1.2162 N   0  0  0  0  0  0  0  0  0  0  0  0
    6.1665   12.3098   -0.7813 N   0  0  0  0  0  0  0  0  0  0  0  0
    8.9860   13.8177   -2.3734 C   0  0  0  0  0  0  0  0  0  0  0  0
    8.5291   13.8800   -3.2161 H   0  0  0  0  0  0  0  0  0  0  0  0
    9.3690   12.9430   -2.2825 H   0  0  0  0  0  0  0  0  0  0  0  0
    9.6814   14.4783   -2.3365 H   0  0  0  0  0  0  0  0  0  0  0  0
    7.4729   15.3530   -1.3538 C   0  0  0  0  0  0  0  0  0  0  0  0
    8.1513   16.0030   -1.5503 H   0  0  0  0  0  0  0  0  0  0  0  0
    7.0761   15.5514   -0.5012 H   0  0  0  0  0  0  0  0  0  0  0  0
    6.7965   15.3804   -2.0343 H   0  0  0  0  0  0  0  0  0  0  0  0
    8.4257   13.8156    2.0663 C   0  0  0  0  0  0  0  0  0  0  0  0
    8.2463   13.4906    2.9507 H   0  0  0  0  0  0  0  0  0  0  0  0
    8.5681   14.7642    2.0957 H   0  0  0  0  0  0  0  0  0  0  0  0
    9.2108   13.3840    1.7198 H   0  0  0  0  0  0  0  0  0  0  0  0
    6.0695   14.0952    1.6756 C   0  0  0  0  0  0  0  0  0  0  0  0
    5.8510   13.7322    2.5380 H   0  0  0  0  0  0  0  0  0  0  0  0
    5.3699   13.8842    1.0516 H   0  0  0  0  0  0  0  0  0  0  0  0
    6.1602   15.0481    1.7419 H   0  0  0  0  0  0  0  0  0  0  0  0
    5.5851   12.5241   -2.0638 C   0  0  0  0  0  0  0  0  0  0  0  0
    5.3414   11.6788   -2.4495 H   0  0  0  0  0  0  0  0  0  0  0  0
    6.2203   12.9641   -2.6314 H   0  0  0  0  0  0  0  0  0  0  0  0
    4.8032   13.0717   -1.9729 H   0  0  0  0  0  0  0  0  0  0  0  0
    5.5429   11.2040   -0.0565 C   0  0  0  0  0  0  0  0  0  0  0  0
    4.6017   11.1882   -0.2457 H   0  0  0  0  0  0  0  0  0  0  0  0
    5.6780   11.3211    0.8869 H   0  0  0  0  0  0  0  0  0  0  0  0
    5.9386   10.3757   -0.3366 H   0  0  0  0  0  0  0  0  0  0  0  0
  1  3  2  0  0  0  0
  2  4  2  0  0  0  0
  4  1  1  0  0  0  0
  5  6  1  0  0  0  0
  6  1  1  0  0  0  0
  7  5  1  0  0  0  0
  8  9  1  0  0  0  0
  9  1  1  0  0  0  0
 10  8  1  0  0  0  0
 11  2  1  0  0  0  0
 12  2  1  0  0  0  0
 13  2  1  0  0  0  0
 14 11  1  0  0  0  0
 15 14  1  0  0  0  0
 16 14  1  0  0  0  0
 17 14  1  0  0  0  0
 18 11  1  0  0  0  0
 19 18  1  0  0  0  0
 20 18  1  0  0  0  0
 21 18  1  0  0  0  0
 22 12  1  0  0  0  0
 23 22  1  0  0  0  0
 24 22  1  0  0  0  0
 25 22  1  0  0  0  0
 26 12  1  0  0  0  0
 27 26  1  0  0  0  0
 28 26  1  0  0  0  0
 29 26  1  0  0  0  0
 30 13  1  0  0  0  0
 31 30  1  0  0  0  0
 32 30  1  0  0  0  0
 33 30  1  0  0  0  0
 34 13  1  0  0  0  0
 35 34  1  0  0  0  0
 36 34  1  0  0  0  0
 37 34  1  0  0  0  0
 38 40  2  0  0  0  0
 39  1  2  0  0  0  0
 40  1  1  0  0  0  0
 41  1  1  0  0  0  0
 42  5  1  0  0  0  0
 43  1  1  0  0  0  0
 44  8  1  0  0  0  0
 45 38  1  0  0  0  0
 46 38  1  0  0  0  0
 47 38  1  0  0  0  0
 48 45  1  0  0  0  0
 49 48  1  0  0  0  0
 50 48  1  0  0  0  0
 51 48  1  0  0  0  0
 52 45  1  0  0  0  0
 53 52  1  0  0  0  0
 54 52  1  0  0  0  0
 55 52  1  0  0  0  0
 56 46  1  0  0  0  0
 57 56  1  0  0  0  0
 58 56  1  0  0  0  0
 59 56  1  0  0  0  0
 60 46  1  0  0  0  0
 61 60  1  0  0  0  0
 62 60  1  0  0  0  0
 63 60  1  0  0  0  0
 64 47  1  0  0  0  0
 65 64  1  0  0  0  0
 66 64  1  0  0  0  0
 67 64  1  0  0  0  0
 68 47  1  0  0  0  0
 69 68  1  0  0  0  0
 70 68  1  0  0  0  0
 71 68  1  0  0  0  0
  5 41  1  0  0  0  0
  8 43  1  0  0  0  0
M  END
$$$$
MIWSAP

From CSD data. Using bond type 'Any'. No disordered atoms. Largest molecule.
134144  0  0  0  0  0  0  0  0999 V2000
    9.8460    9.9538   10.8990 B   0  5  0  0  0  0  0  0  0  0  0  0
   12.3086    8.3562   10.8149 C   0  0  0  0  0  0  0  0  0  0  0  0
   12.9951    8.3610   11.5295 H   0  0  0  0  0  0  0  0  0  0  0  0
   12.4982    7.5950   10.2103 H   0  0  0  0  0  0  0  0  0  0  0  0
   12.7929    6.6577   13.3321 O   0  0  0  0  0  0  0  0  0  0  0  0
   10.6457    8.1637   11.5516 P   0  3  0  0  0  0  0  0  0  0  0  0
   14.7451    2.4693   10.8685 B   0  5  0  0  0  0  0  0  0  0  0  0
   12.3701    9.6795   10.0231 C   0  0  0  0  0  0  0  0  0  0  0  0
   12.8089    9.5095    9.1511 H   0  0  0  0  0  0  0  0  0  0  0  0
   12.9327   10.3241   10.5229 H   0  0  0  0  0  0  0  0  0  0  0  0
   13.9507    4.2775   11.4911 P   0  3  0  0  0  0  0  0  0  0  0  0
   10.9813   10.3253    9.7656 C   0  0  0  0  0  0  0  0  0  0  0  0
   10.6528   10.0303    8.8801 H   0  0  0  0  0  0  0  0  0  0  0  0
   11.0878   11.3087    9.7347 H   0  0  0  0  0  0  0  0  0  0  0  0
   13.1889    6.9540   16.1156 C   0  0  0  0  0  0  0  0  0  0  0  0
   14.3961    7.8754   15.8733 C   0  0  0  0  0  0  0  0  0  0  0  0
   14.5158    8.0102   14.9090 H   0  0  0  0  0  0  0  0  0  0  0  0
   15.2022    7.4626   16.2475 H   0  0  0  0  0  0  0  0  0  0  0  0
   14.2393    8.7398   16.3083 H   0  0  0  0  0  0  0  0  0  0  0  0
   13.0074    6.8059   17.6267 C   0  0  0  0  0  0  0  0  0  0  0  0
   12.8483    7.6872   18.0257 H   0  0  0  0  0  0  0  0  0  0  0  0
   13.8150    6.4125   18.0174 H   0  0  0  0  0  0  0  0  0  0  0  0
   12.2402    6.2231   17.8073 H   0  0  0  0  0  0  0  0  0  0  0  0
   12.1910    3.8655   11.1548 C   0  0  0  0  0  0  0  0  0  0  0  0
   11.6651    3.9152   11.9914 H   0  0  0  0  0  0  0  0  0  0  0  0
   11.8097    4.5113   10.5090 H   0  0  0  0  0  0  0  0  0  0  0  0
   12.1249    2.4402   10.5754 C   0  0  0  0  0  0  0  0  0  0  0  0
   11.2966    1.9922   10.8824 H   0  0  0  0  0  0  0  0  0  0  0  0
   12.1080    2.4803    9.5853 H   0  0  0  0  0  0  0  0  0  0  0  0
   13.3519    1.6389   11.0428 C   0  0  0  0  0  0  0  0  0  0  0  0
   13.4081    0.8000   10.5201 H   0  0  0  0  0  0  0  0  0  0  0  0
   13.2379    1.3961   11.9941 H   0  0  0  0  0  0  0  0  0  0  0  0
   10.8538    8.0964   13.3525 C   0  0  0  0  0  0  0  0  0  0  0  0
   11.8721    7.4578   14.0475 C   0  0  0  0  0  0  0  0  0  0  0  0
   11.9848    7.5573   15.4419 C   0  0  0  0  0  0  0  0  0  0  0  0
   10.9964    8.2420   16.1289 C   0  0  0  0  0  0  0  0  0  0  0  0
   11.0425    8.2967   17.0772 H   0  0  0  0  0  0  0  0  0  0  0  0
    9.9506    8.8430   15.4768 C   0  0  0  0  0  0  0  0  0  0  0  0
    9.2724    9.2934   15.9654 H   0  0  0  0  0  0  0  0  0  0  0  0
    9.8978    8.7847   14.0934 C   0  0  0  0  0  0  0  0  0  0  0  0
    9.1919    9.2278   13.6396 H   0  0  0  0  0  0  0  0  0  0  0  0
    9.8815    6.5873   10.9446 C   0  0  0  0  0  0  0  0  0  0  0  0
    9.8040    6.3834    9.5469 C   0  0  0  0  0  0  0  0  0  0  0  0
    9.2980    5.1803    9.0544 C   0  0  0  0  0  0  0  0  0  0  0  0
    9.2762    5.0516    8.1113 H   0  0  0  0  0  0  0  0  0  0  0  0
    8.8295    4.1653    9.8674 C   0  0  0  0  0  0  0  0  0  0  0  0
    8.8554    4.4130   11.2372 C   0  0  0  0  0  0  0  0  0  0  0  0
    8.5114    3.7477   11.8199 H   0  0  0  0  0  0  0  0  0  0  0  0
    9.3558    5.5724   11.7931 C   0  0  0  0  0  0  0  0  0  0  0  0
   10.2055    7.3922    8.4977 C   0  0  0  0  0  0  0  0  0  0  0  0
   10.1258    6.9892    7.6080 H   0  0  0  0  0  0  0  0  0  0  0  0
   11.1334    7.6702    8.6478 H   0  0  0  0  0  0  0  0  0  0  0  0
    9.6164    8.1741    8.5538 H   0  0  0  0  0  0  0  0  0  0  0  0
    8.3173    2.8615    9.3005 C   0  0  0  0  0  0  0  0  0  0  0  0
    7.5066    3.0302    8.7750 H   0  0  0  0  0  0  0  0  0  0  0  0
    8.1087    2.2447   10.0334 H   0  0  0  0  0  0  0  0  0  0  0  0
    9.0025    2.4633    8.7253 H   0  0  0  0  0  0  0  0  0  0  0  0
    9.3192    5.5943   13.3130 C   0  0  0  0  0  0  0  0  0  0  0  0
    8.7788    4.8428   13.6368 H   0  0  0  0  0  0  0  0  0  0  0  0
    8.9240    6.4368   13.6175 H   0  0  0  0  0  0  0  0  0  0  0  0
   10.2310    5.5166   13.6617 H   0  0  0  0  0  0  0  0  0  0  0  0
    9.8933   11.1205   12.0729 C   0  0  0  0  0  0  0  0  0  0  0  0
   11.0340   11.3997   12.8243 C   0  0  0  0  0  0  0  0  0  0  0  0
   12.1214   10.6021   12.7098 F   0  0  0  0  0  0  0  0  0  0  0  0
   11.1607   12.4426   13.7217 C   0  0  0  0  0  0  0  0  0  0  0  0
   12.3000   12.6138   14.4073 F   0  0  0  0  0  0  0  0  0  0  0  0
   10.1220   13.3082   13.8913 C   0  0  0  0  0  0  0  0  0  0  0  0
   10.2224   14.3474   14.7455 F   0  0  0  0  0  0  0  0  0  0  0  0
    8.9676   13.1127   13.1805 C   0  0  0  0  0  0  0  0  0  0  0  0
    7.9211   13.9371   13.3420 F   0  0  0  0  0  0  0  0  0  0  0  0
    8.8723   12.0323   12.3047 C   0  0  0  0  0  0  0  0  0  0  0  0
    7.6833   11.9424   11.6664 F   0  0  0  0  0  0  0  0  0  0  0  0
    8.3533    9.6770   10.3295 C   0  0  0  0  0  0  0  0  0  0  0  0
    7.4224    8.8224   10.9012 C   0  0  0  0  0  0  0  0  0  0  0  0
    7.7432    8.2068   12.0798 F   0  0  0  0  0  0  0  0  0  0  0  0
    6.1914    8.5019   10.3956 C   0  0  0  0  0  0  0  0  0  0  0  0
    5.3782    7.6217   11.0206 F   0  0  0  0  0  0  0  0  0  0  0  0
    5.7645    9.1077    9.2396 C   0  0  0  0  0  0  0  0  0  0  0  0
    4.5661    8.8381    8.7172 F   0  0  0  0  0  0  0  0  0  0  0  0
    6.6145   10.0048    8.6561 C   0  0  0  0  0  0  0  0  0  0  0  0
    6.1904   10.6592    7.5336 F   0  0  0  0  0  0  0  0  0  0  0  0
    7.8480   10.2950    9.1835 C   0  0  0  0  0  0  0  0  0  0  0  0
    8.5701   11.2504    8.5521 F   0  0  0  0  0  0  0  0  0  0  0  0
   13.8618    4.5028   13.3003 C   0  0  0  0  0  0  0  0  0  0  0  0
   13.3688    5.5894   14.0315 C   0  0  0  0  0  0  0  0  0  0  0  0
   13.4443    5.6416   15.4303 C   0  0  0  0  0  0  0  0  0  0  0  0
   13.8355    4.4786   16.1001 C   0  0  0  0  0  0  0  0  0  0  0  0
   13.8641    4.4773   17.0495 H   0  0  0  0  0  0  0  0  0  0  0  0
   14.1766    3.3422   15.4206 C   0  0  0  0  0  0  0  0  0  0  0  0
   14.3704    2.5410   15.8908 H   0  0  0  0  0  0  0  0  0  0  0  0
   14.2373    3.3714   14.0367 C   0  0  0  0  0  0  0  0  0  0  0  0
   14.5406    2.6005   13.5732 H   0  0  0  0  0  0  0  0  0  0  0  0
   14.5074    5.7630   10.5779 C   0  0  0  0  0  0  0  0  0  0  0  0
   15.4406    6.6820   11.1199 C   0  0  0  0  0  0  0  0  0  0  0  0
   15.8442    7.7771   10.3691 C   0  0  0  0  0  0  0  0  0  0  0  0
   16.4339    8.4084   10.7635 H   0  0  0  0  0  0  0  0  0  0  0  0
   15.4129    7.9859    9.0607 C   0  0  0  0  0  0  0  0  0  0  0  0
   14.5758    7.0487    8.5062 C   0  0  0  0  0  0  0  0  0  0  0  0
   14.3000    7.1555    7.6025 H   0  0  0  0  0  0  0  0  0  0  0  0
   14.1164    5.9402    9.2311 C   0  0  0  0  0  0  0  0  0  0  0  0
   16.0911    6.5740   12.4803 C   0  0  0  0  0  0  0  0  0  0  0  0
   17.0227    6.8702   12.4228 H   0  0  0  0  0  0  0  0  0  0  0  0
   16.0617    5.6428   12.7823 H   0  0  0  0  0  0  0  0  0  0  0  0
   15.6079    7.1397   13.1197 H   0  0  0  0  0  0  0  0  0  0  0  0
   15.8521    9.2036    8.2772 C   0  0  0  0  0  0  0  0  0  0  0  0
   15.7596    9.0251    7.3176 H   0  0  0  0  0  0  0  0  0  0  0  0
   16.7891    9.4039    8.4819 H   0  0  0  0  0  0  0  0  0  0  0  0
   15.2925    9.9696    8.5234 H   0  0  0  0  0  0  0  0  0  0  0  0
   13.1865    5.0334    8.4592 C   0  0  0  0  0  0  0  0  0  0  0  0
   13.2649    4.1180    8.7999 H   0  0  0  0  0  0  0  0  0  0  0  0
   13.4273    5.0504    7.5084 H   0  0  0  0  0  0  0  0  0  0  0  0
   12.2626    5.3429    8.5676 H   0  0  0  0  0  0  0  0  0  0  0  0
   16.0100    1.7676   11.6122 C   0  0  0  0  0  0  0  0  0  0  0  0
   16.3197    0.4577   11.2613 C   0  0  0  0  0  0  0  0  0  0  0  0
   15.5576   -0.1894   10.3508 F   0  0  0  0  0  0  0  0  0  0  0  0
   17.3924   -0.2404   11.7452 C   0  0  0  0  0  0  0  0  0  0  0  0
   17.6360   -1.5018   11.3351 F   0  0  0  0  0  0  0  0  0  0  0  0
   18.2440    0.3472   12.6302 C   0  0  0  0  0  0  0  0  0  0  0  0
   19.2977   -0.3217   13.1321 F   0  0  0  0  0  0  0  0  0  0  0  0
   18.0044    1.6353   13.0276 C   0  0  0  0  0  0  0  0  0  0  0  0
   18.8104    2.2168   13.9482 F   0  0  0  0  0  0  0  0  0  0  0  0
   16.9317    2.3176   12.5052 C   0  0  0  0  0  0  0  0  0  0  0  0
   16.8092    3.6069   12.8935 F   0  0  0  0  0  0  0  0  0  0  0  0
   15.2887    2.7121    9.3279 C   0  0  0  0  0  0  0  0  0  0  0  0
   14.8617    2.0481    8.1860 C   0  0  0  0  0  0  0  0  0  0  0  0
   13.8106    1.1885    8.2524 F   0  0  0  0  0  0  0  0  0  0  0  0
   15.4318    2.2023    6.9470 C   0  0  0  0  0  0  0  0  0  0  0  0
   14.9622    1.4848    5.8972 F   0  0  0  0  0  0  0  0  0  0  0  0
   16.4853    3.0363    6.7811 C   0  0  0  0  0  0  0  0  0  0  0  0
   17.0578    3.1710    5.5648 F   0  0  0  0  0  0  0  0  0  0  0  0
   16.9725    3.7246    7.8541 C   0  0  0  0  0  0  0  0  0  0  0  0
   18.0301    4.5429    7.7230 F   0  0  0  0  0  0  0  0  0  0  0  0
   16.3762    3.5304    9.0881 C   0  0  0  0  0  0  0  0  0  0  0  0
   16.9561    4.1884   10.1290 F   0  0  0  0  0  0  0  0  0  0  0  0
  1  6  1  0  0  0  0
  2  3  1  0  0  0  0
  4  2  1  0  0  0  0
  5 34  1  0  0  0  0
  6  2  1  0  0  0  0
  7 11  1  0  0  0  0
  8  2  1  0  0  0  0
  9  8  1  0  0  0  0
 10  8  1  0  0  0  0
 11 24  1  0  0  0  0
 12  1  1  0  0  0  0
 13 12  1  0  0  0  0
 14 12  1  0  0  0  0
 15 16  1  0  0  0  0
 16 17  1  0  0  0  0
 18 16  1  0  0  0  0
 19 16  1  0  0  0  0
 20 15  1  0  0  0  0
 21 20  1  0  0  0  0
 22 20  1  0  0  0  0
 23 20  1  0  0  0  0
 24 25  1  0  0  0  0
 26 24  1  0  0  0  0
 27 24  1  0  0  0  0
 28 27  1  0  0  0  0
 29 27  1  0  0  0  0
 30  7  1  0  0  0  0
 31 30  1  0  0  0  0
 32 30  1  0  0  0  0
 33  6  1  0  0  0  0
 34 33  4  0  0  0  0
 35 15  1  0  0  0  0
 36 35  4  0  0  0  0
 37 36  1  0  0  0  0
 38 36  4  0  0  0  0
 39 38  1  0  0  0  0
 40 33  4  0  0  0  0
 41 40  1  0  0  0  0
 42  6  1  0  0  0  0
 43 42  4  0  0  0  0
 44 43  4  0  0  0  0
 45 44  1  0  0  0  0
 46 44  4  0  0  0  0
 47 46  4  0  0  0  0
 48 47  1  0  0  0  0
 49 42  4  0  0  0  0
 50 43  1  0  0  0  0
 51 50  1  0  0  0  0
 52 50  1  0  0  0  0
 53 50  1  0  0  0  0
 54 46  1  0  0  0  0
 55 54  1  0  0  0  0
 56 54  1  0  0  0  0
 57 54  1  0  0  0  0
 58 49  1  0  0  0  0
 59 58  1  0  0  0  0
 60 58  1  0  0  0  0
 61 58  1  0  0  0  0
 62  1  1  0  0  0  0
 63 62  4  0  0  0  0
 64 63  1  0  0  0  0
 65 63  4  0  0  0  0
 66 65  1  0  0  0  0
 67 65  4  0  0  0  0
 68 67  1  0  0  0  0
 69 67  4  0  0  0  0
 70 69  1  0  0  0  0
 71 62  4  0  0  0  0
 72 71  1  0  0  0  0
 73  1  1  0  0  0  0
 74 73  4  0  0  0  0
 75 74  1  0  0  0  0
 76 74  4  0  0  0  0
 77 76  1  0  0  0  0
 78 76  4  0  0  0  0
 79 78  1  0  0  0  0
 80 78  4  0  0  0  0
 81 80  1  0  0  0  0
 82 73  4  0  0  0  0
 83 82  1  0  0  0  0
 84 11  1  0  0  0  0
 85  5  1  0  0  0  0
 86 15  1  0  0  0  0
 87 86  4  0  0  0  0
 88 87  1  0  0  0  0
 89 87  4  0  0  0  0
 90 89  1  0  0  0  0
 91 84  4  0  0  0  0
 92 91  1  0  0  0  0
 93 11  1  0  0  0  0
 94 93  4  0  0  0  0
 95 94  4  0  0  0  0
 96 95  1  0  0  0  0
 97 95  4  0  0  0  0
 98 97  4  0  0  0  0
 99 98  1  0  0  0  0
100 93  4  0  0  0  0
101 94  1  0  0  0  0
102101  1  0  0  0  0
103101  1  0  0  0  0
104101  1  0  0  0  0
105 97  1  0  0  0  0
106105  1  0  0  0  0
107105  1  0  0  0  0
108105  1  0  0  0  0
109100  1  0  0  0  0
110109  1  0  0  0  0
111109  1  0  0  0  0
112109  1  0  0  0  0
113  7  1  0  0  0  0
114113  4  0  0  0  0
115114  1  0  0  0  0
116114  4  0  0  0  0
117116  1  0  0  0  0
118116  4  0  0  0  0
119118  1  0  0  0  0
120118  4  0  0  0  0
121120  1  0  0  0  0
122113  4  0  0  0  0
123122  1  0  0  0  0
124  7  1  0  0  0  0
125124  4  0  0  0  0
126125  1  0  0  0  0
127125  4  0  0  0  0
128127  1  0  0  0  0
129127  4  0  0  0  0
130129  1  0  0  0  0
131129  4  0  0  0  0
132131  1  0  0  0  0
133124  4  0  0  0  0
134133  1  0  0  0  0
  8 12  1  0  0  0  0
 27 30  1  0  0  0  0
 34 35  4  0  0  0  0
 38 40  4  0  0  0  0
 47 49  4  0  0  0  0
 69 71  4  0  0  0  0
 80 82  4  0  0  0  0
 84 85  4  0  0  0  0
 85 86  4  0  0  0  0
 89 91  4  0  0  0  0
 98100  4  0  0  0  0
120122  4  0  0  0  0
131133  4  0  0  0  0
M  CHG  4   1  -1   6   1   7  -1  11   1
M  END
$$$$
MIWSET

From CSD data. Using bond type 'Any'. Matching problem. No disordered atoms. Largest molecule.
172184  0  0  0  0  0  0  0  0999 V2000
    7.8946   12.7569    9.0457 P   0  3  0  0  0  0  0  0  0  0  0  0
   10.6944   12.3571   10.1888 O   0  0  0  0  0  0  0  0  0  0  0  0
   12.0707   12.4152    9.6081 B   0  5  0  0  0  0  0  0  0  0  0  0
    9.2751   12.2635    7.9433 C   0  0  0  0  0  0  0  0  0  0  0  0
    9.6565   11.4183    8.2912 H   0  0  0  0  0  0  0  0  0  0  0  0
    8.8961   12.0656    7.0503 H   0  0  0  0  0  0  0  0  0  0  0  0
   10.4332   13.2640    7.7556 C   0  0  0  0  0  0  0  0  0  0  0  0
   10.4042   13.6358    6.8382 H   0  0  0  0  0  0  0  0  0  0  0  0
   10.3304   14.0131    8.3933 H   0  0  0  0  0  0  0  0  0  0  0  0
    7.2352   14.5938    6.5450 O   0  0  0  0  0  0  0  0  0  0  0  0
   11.7879   12.5724    7.9878 C   0  0  0  0  0  0  0  0  0  0  0  0
   12.5103   13.1087    7.5739 H   0  0  0  0  0  0  0  0  0  0  0  0
   11.7831   11.6791    7.5634 H   0  0  0  0  0  0  0  0  0  0  0  0
   10.3683   12.1359   11.4491 C   0  0  0  0  0  0  0  0  0  0  0  0
    8.9493   12.1119   11.6844 C   0  0  0  0  0  0  0  0  0  0  0  0
    8.6939   11.8733   12.5690 H   0  0  0  0  0  0  0  0  0  0  0  0
    7.9091   12.3782   10.8359 C   0  0  0  0  0  0  0  0  0  0  0  0
   11.1973   11.9953   12.5012 C   0  0  0  0  0  0  0  0  0  0  0  0
   12.1374   12.0545   12.3753 H   0  0  0  0  0  0  0  0  0  0  0  0
   10.8444   11.8363   13.3675 H   0  0  0  0  0  0  0  0  0  0  0  0
    7.8514   14.5716    8.8729 C   0  0  0  0  0  0  0  0  0  0  0  0
    8.2890   15.2577    9.9966 C   0  0  0  0  0  0  0  0  0  0  0  0
    8.5083   14.7658   10.7809 H   0  0  0  0  0  0  0  0  0  0  0  0
    8.4172   16.6263   10.0079 C   0  0  0  0  0  0  0  0  0  0  0  0
    8.7367   17.0775   10.7809 H   0  0  0  0  0  0  0  0  0  0  0  0
    8.0732   17.3217    8.8907 C   0  0  0  0  0  0  0  0  0  0  0  0
    8.1265   18.2686    8.9065 H   0  0  0  0  0  0  0  0  0  0  0  0
    7.6455   16.6873    7.7168 C   0  0  0  0  0  0  0  0  0  0  0  0
    7.5802   15.3076    7.6988 C   0  0  0  0  0  0  0  0  0  0  0  0
    7.2352   17.5750    6.5450 C   0  0  0  0  0  0  0  0  0  0  0  0
    8.4261   18.4517    6.1209 C   0  0  0  0  0  0  0  0  0  0  0  0
    8.1836   18.9658    5.3224 H   0  0  0  0  0  0  0  0  0  0  0  0
    9.1970   17.8820    5.9219 H   0  0  0  0  0  0  0  0  0  0  0  0
    8.6517   19.0694    6.8487 H   0  0  0  0  0  0  0  0  0  0  0  0
    6.3522   11.9029    8.5627 C   0  0  0  0  0  0  0  0  0  0  0  0
    5.0908   12.5409    8.5926 C   0  0  0  0  0  0  0  0  0  0  0  0
    3.9672   11.7605    8.4038 C   0  0  0  0  0  0  0  0  0  0  0  0
    3.1171   12.1840    8.4221 H   0  0  0  0  0  0  0  0  0  0  0  0
    4.0154   10.3974    8.1839 C   0  0  0  0  0  0  0  0  0  0  0  0
    5.2386    9.7908    8.1690 C   0  0  0  0  0  0  0  0  0  0  0  0
    5.2846    8.8550    8.0111 H   0  0  0  0  0  0  0  0  0  0  0  0
    6.4291   10.4992    8.3766 C   0  0  0  0  0  0  0  0  0  0  0  0
    4.8449   14.0020    8.8724 C   0  0  0  0  0  0  0  0  0  0  0  0
    3.9045   14.1351    9.1133 H   0  0  0  0  0  0  0  0  0  0  0  0
    5.0544   14.5272    8.0713 H   0  0  0  0  0  0  0  0  0  0  0  0
    5.4157   14.2942    9.6133 H   0  0  0  0  0  0  0  0  0  0  0  0
    2.7530    9.5744    8.0163 C   0  0  0  0  0  0  0  0  0  0  0  0
    2.0196    9.9980    8.5111 H   0  0  0  0  0  0  0  0  0  0  0  0
    2.9041    8.6719    8.3645 H   0  0  0  0  0  0  0  0  0  0  0  0
    2.5207    9.5245    7.0660 H   0  0  0  0  0  0  0  0  0  0  0  0
    7.6871    9.6762    8.4666 C   0  0  0  0  0  0  0  0  0  0  0  0
    7.4528    8.7367    8.6159 H   0  0  0  0  0  0  0  0  0  0  0  0
    8.2375    9.9998    9.2101 H   0  0  0  0  0  0  0  0  0  0  0  0
    8.1906    9.7575    7.6289 H   0  0  0  0  0  0  0  0  0  0  0  0
    6.5362   12.3560   11.4627 C   0  0  0  0  0  0  0  0  0  0  0  0
    5.9893   13.4971   12.0130 C   0  0  0  0  0  0  0  0  0  0  0  0
    6.4747   14.3145   11.9800 H   0  0  0  0  0  0  0  0  0  0  0  0
    4.7280   13.4656   12.6188 C   0  0  0  0  0  0  0  0  0  0  0  0
    4.3502   14.2609   12.9748 H   0  0  0  0  0  0  0  0  0  0  0  0
    4.0380   12.2820   12.6973 C   0  0  0  0  0  0  0  0  0  0  0  0
    3.1778   12.2580   13.0953 H   0  0  0  0  0  0  0  0  0  0  0  0
    4.5998   11.1243   12.1921 C   0  0  0  0  0  0  0  0  0  0  0  0
    4.1283   10.3031   12.2601 H   0  0  0  0  0  0  0  0  0  0  0  0
    5.8451   11.1557   11.5852 C   0  0  0  0  0  0  0  0  0  0  0  0
    6.2294   10.3531   11.2522 H   0  0  0  0  0  0  0  0  0  0  0  0
   12.8792   13.7726   10.0594 C   0  0  0  0  0  0  0  0  0  0  0  0
   14.1941   13.9668    9.6293 C   0  0  0  0  0  0  0  0  0  0  0  0
   14.8102   12.9925    8.9462 F   0  0  0  0  0  0  0  0  0  0  0  0
   14.9237   15.1098    9.8856 C   0  0  0  0  0  0  0  0  0  0  0  0
   16.2162   15.1945    9.4913 F   0  0  0  0  0  0  0  0  0  0  0  0
   14.3508   16.1436   10.5532 C   0  0  0  0  0  0  0  0  0  0  0  0
   15.0591   17.2621   10.8087 F   0  0  0  0  0  0  0  0  0  0  0  0
   13.0465   16.0382   10.9506 C   0  0  0  0  0  0  0  0  0  0  0  0
   12.4450   17.0670   11.5907 F   0  0  0  0  0  0  0  0  0  0  0  0
   12.3526   14.8767   10.7087 C   0  0  0  0  0  0  0  0  0  0  0  0
   11.0621   14.8692   11.1394 F   0  0  0  0  0  0  0  0  0  0  0  0
   12.8368   10.9874   10.0165 C   0  0  0  0  0  0  0  0  0  0  0  0
   13.9304   10.8265   10.8401 C   0  0  0  0  0  0  0  0  0  0  0  0
   14.5254   11.8888   11.4187 F   0  0  0  0  0  0  0  0  0  0  0  0
   14.4658    9.6096   11.2103 C   0  0  0  0  0  0  0  0  0  0  0  0
   15.5217    9.5462   12.0475 F   0  0  0  0  0  0  0  0  0  0  0  0
   13.8892    8.4315   10.7521 C   0  0  0  0  0  0  0  0  0  0  0  0
   14.3577    7.2555   11.1441 F   0  0  0  0  0  0  0  0  0  0  0  0
   12.8171    8.5332    9.9092 C   0  0  0  0  0  0  0  0  0  0  0  0
   12.2378    7.4162    9.4675 F   0  0  0  0  0  0  0  0  0  0  0  0
   12.3157    9.7834    9.5793 C   0  0  0  0  0  0  0  0  0  0  0  0
   11.2120    9.7516    8.7808 F   0  0  0  0  0  0  0  0  0  0  0  0
    6.5758   12.7569    4.0443 P   0  3  0  0  0  0  0  0  0  0  0  0
    3.7760   12.3571    2.9013 O   0  0  0  0  0  0  0  0  0  0  0  0
    2.3997   12.4152    3.4819 B   0  5  0  0  0  0  0  0  0  0  0  0
    5.1953   12.2635    5.1467 C   0  0  0  0  0  0  0  0  0  0  0  0
    4.8139   11.4183    4.7988 H   0  0  0  0  0  0  0  0  0  0  0  0
    5.5743   12.0656    6.0397 H   0  0  0  0  0  0  0  0  0  0  0  0
    4.0372   13.2640    5.3344 C   0  0  0  0  0  0  0  0  0  0  0  0
    4.0662   13.6358    6.2518 H   0  0  0  0  0  0  0  0  0  0  0  0
    4.1400   14.0131    4.6967 H   0  0  0  0  0  0  0  0  0  0  0  0
    2.6825   12.5724    5.1022 C   0  0  0  0  0  0  0  0  0  0  0  0
    1.9600   13.1087    5.5161 H   0  0  0  0  0  0  0  0  0  0  0  0
    2.6873   11.6791    5.5266 H   0  0  0  0  0  0  0  0  0  0  0  0
    4.1021   12.1359    1.6410 C   0  0  0  0  0  0  0  0  0  0  0  0
    5.5211   12.1119    1.4056 C   0  0  0  0  0  0  0  0  0  0  0  0
    5.7765   11.8733    0.5210 H   0  0  0  0  0  0  0  0  0  0  0  0
    6.5612   12.3782    2.2541 C   0  0  0  0  0  0  0  0  0  0  0  0
    3.2731   11.9953    0.5888 C   0  0  0  0  0  0  0  0  0  0  0  0
    2.3330   12.0545    0.7147 H   0  0  0  0  0  0  0  0  0  0  0  0
    3.6260   11.8363   -0.2775 H   0  0  0  0  0  0  0  0  0  0  0  0
    6.6190   14.5716    4.2171 C   0  0  0  0  0  0  0  0  0  0  0  0
    6.1814   15.2577    3.0934 C   0  0  0  0  0  0  0  0  0  0  0  0
    5.9621   14.7658    2.3091 H   0  0  0  0  0  0  0  0  0  0  0  0
    6.0531   16.6263    3.0822 C   0  0  0  0  0  0  0  0  0  0  0  0
    5.7337   17.0775    2.3091 H   0  0  0  0  0  0  0  0  0  0  0  0
    6.3972   17.3217    4.1993 C   0  0  0  0  0  0  0  0  0  0  0  0
    6.3439   18.2686    4.1836 H   0  0  0  0  0  0  0  0  0  0  0  0
    6.8249   16.6873    5.3732 C   0  0  0  0  0  0  0  0  0  0  0  0
    6.8902   15.3076    5.3913 C   0  0  0  0  0  0  0  0  0  0  0  0
    6.0442   18.4517    6.9691 C   0  0  0  0  0  0  0  0  0  0  0  0
    6.2868   18.9658    7.7676 H   0  0  0  0  0  0  0  0  0  0  0  0
    5.2734   17.8820    7.1681 H   0  0  0  0  0  0  0  0  0  0  0  0
    5.8187   19.0694    6.2413 H   0  0  0  0  0  0  0  0  0  0  0  0
    8.1182   11.9029    4.5273 C   0  0  0  0  0  0  0  0  0  0  0  0
    9.3796   12.5409    4.4975 C   0  0  0  0  0  0  0  0  0  0  0  0
   10.5032   11.7605    4.6862 C   0  0  0  0  0  0  0  0  0  0  0  0
   11.3533   12.1840    4.6679 H   0  0  0  0  0  0  0  0  0  0  0  0
   10.4550   10.3974    4.9061 C   0  0  0  0  0  0  0  0  0  0  0  0
    9.2318    9.7908    4.9211 C   0  0  0  0  0  0  0  0  0  0  0  0
    9.1858    8.8550    5.0789 H   0  0  0  0  0  0  0  0  0  0  0  0
    8.0413   10.4992    4.7135 C   0  0  0  0  0  0  0  0  0  0  0  0
    9.6255   14.0020    4.2176 C   0  0  0  0  0  0  0  0  0  0  0  0
   10.5659   14.1351    3.9768 H   0  0  0  0  0  0  0  0  0  0  0  0
    9.4160   14.5272    5.0187 H   0  0  0  0  0  0  0  0  0  0  0  0
    9.0547   14.2942    3.4767 H   0  0  0  0  0  0  0  0  0  0  0  0
   11.7174    9.5744    5.0737 C   0  0  0  0  0  0  0  0  0  0  0  0
   12.4507    9.9980    4.5789 H   0  0  0  0  0  0  0  0  0  0  0  0
   11.5662    8.6719    4.7255 H   0  0  0  0  0  0  0  0  0  0  0  0
   11.9497    9.5245    6.0240 H   0  0  0  0  0  0  0  0  0  0  0  0
    6.7833    9.6762    4.6234 C   0  0  0  0  0  0  0  0  0  0  0  0
    7.0176    8.7367    4.4742 H   0  0  0  0  0  0  0  0  0  0  0  0
    6.2329    9.9998    3.8799 H   0  0  0  0  0  0  0  0  0  0  0  0
    6.2798    9.7575    5.4612 H   0  0  0  0  0  0  0  0  0  0  0  0
    7.9342   12.3560    1.6274 C   0  0  0  0  0  0  0  0  0  0  0  0
    8.4811   13.4971    1.0770 C   0  0  0  0  0  0  0  0  0  0  0  0
    7.9957   14.3145    1.1100 H   0  0  0  0  0  0  0  0  0  0  0  0
    9.7424   13.4656    0.4712 C   0  0  0  0  0  0  0  0  0  0  0  0
   10.1202   14.2609    0.1152 H   0  0  0  0  0  0  0  0  0  0  0  0
   10.4324   12.2820    0.3927 C   0  0  0  0  0  0  0  0  0  0  0  0
   11.2926   12.2580   -0.0052 H   0  0  0  0  0  0  0  0  0  0  0  0
    9.8706   11.1243    0.8980 C   0  0  0  0  0  0  0  0  0  0  0  0
   10.3421   10.3031    0.8299 H   0  0  0  0  0  0  0  0  0  0  0  0
    8.6253   11.1557    1.5048 C   0  0  0  0  0  0  0  0  0  0  0  0
    8.2410   10.3531    1.8378 H   0  0  0  0  0  0  0  0  0  0  0  0
    1.5911   13.7726    3.0306 C   0  0  0  0  0  0  0  0  0  0  0  0
    0.2763   13.9668    3.4607 C   0  0  0  0  0  0  0  0  0  0  0  0
   -0.3398   12.9925    4.1438 F   0  0  0  0  0  0  0  0  0  0  0  0
   -0.4534   15.1098    3.2044 C   0  0  0  0  0  0  0  0  0  0  0  0
   -1.7458   15.1945    3.5987 F   0  0  0  0  0  0  0  0  0  0  0  0
    0.1196   16.1436    2.5368 C   0  0  0  0  0  0  0  0  0  0  0  0
   -0.5887   17.2621    2.2813 F   0  0  0  0  0  0  0  0  0  0  0  0
    1.4238   16.0382    2.1394 C   0  0  0  0  0  0  0  0  0  0  0  0
    2.0254   17.0670    1.4993 F   0  0  0  0  0  0  0  0  0  0  0  0
    2.1178   14.8767    2.3813 C   0  0  0  0  0  0  0  0  0  0  0  0
    3.4083   14.8692    1.9507 F   0  0  0  0  0  0  0  0  0  0  0  0
    1.6336   10.9874    3.0735 C   0  0  0  0  0  0  0  0  0  0  0  0
    0.5400   10.8265    2.2499 C   0  0  0  0  0  0  0  0  0  0  0  0
   -0.0550   11.8888    1.6713 F   0  0  0  0  0  0  0  0  0  0  0  0
    0.0046    9.6096    1.8797 C   0  0  0  0  0  0  0  0  0  0  0  0
   -1.0513    9.5462    1.0425 F   0  0  0  0  0  0  0  0  0  0  0  0
    0.5812    8.4315    2.3379 C   0  0  0  0  0  0  0  0  0  0  0  0
    0.1127    7.2555    1.9460 F   0  0  0  0  0  0  0  0  0  0  0  0
    1.6533    8.5332    3.1809 C   0  0  0  0  0  0  0  0  0  0  0  0
    2.2325    7.4162    3.6225 F   0  0  0  0  0  0  0  0  0  0  0  0
    2.1546    9.7834    3.5107 C   0  0  0  0  0  0  0  0  0  0  0  0
    3.2583    9.7516    4.3092 F   0  0  0  0  0  0  0  0  0  0  0  0
  1  4  1  0  0  0  0
  2  3  1  0  0  0  0
  3 11  1  0  0  0  0
  4  5  1  0  0  0  0
  6  4  1  0  0  0  0
  7  4  1  0  0  0  0
  8  7  1  0  0  0  0
  9  7  1  0  0  0  0
 10 29  1  0  0  0  0
 11  7  1  0  0  0  0
 12 11  1  0  0  0  0
 13 11  1  0  0  0  0
 14  2  1  0  0  0  0
 15 14  1  0  0  0  0
 16 15  1  0  0  0  0
 17  1  1  0  0  0  0
 18 14  2  0  0  0  0
 19 18  1  0  0  0  0
 20 18  1  0  0  0  0
 21  1  1  0  0  0  0
 22 21  4  0  0  0  0
 23 22  1  0  0  0  0
 24 22  4  0  0  0  0
 25 24  1  0  0  0  0
 26 24  4  0  0  0  0
 27 26  1  0  0  0  0
 28 26  4  0  0  0  0
 29 21  4  0  0  0  0
 30 28  1  0  0  0  0
 31 30  1  0  0  0  0
 32 31  1  0  0  0  0
 33 31  1  0  0  0  0
 34 31  1  0  0  0  0
 35  1  1  0  0  0  0
 36 35  4  0  0  0  0
 37 36  4  0  0  0  0
 38 37  1  0  0  0  0
 39 37  4  0  0  0  0
 40 39  4  0  0  0  0
 41 40  1  0  0  0  0
 42 35  4  0  0  0  0
 43 36  1  0  0  0  0
 44 43  1  0  0  0  0
 45 43  1  0  0  0  0
 46 43  1  0  0  0  0
 47 39  1  0  0  0  0
 48 47  1  0  0  0  0
 49 47  1  0  0  0  0
 50 47  1  0  0  0  0
 51 42  1  0  0  0  0
 52 51  1  0  0  0  0
 53 51  1  0  0  0  0
 54 51  1  0  0  0  0
 55 17  1  0  0  0  0
 56 55  4  0  0  0  0
 57 56  1  0  0  0  0
 58 56  4  0  0  0  0
 59 58  1  0  0  0  0
 60 58  4  0  0  0  0
 61 60  1  0  0  0  0
 62 60  4  0  0  0  0
 63 62  1  0  0  0  0
 64 55  4  0  0  0  0
 65 64  1  0  0  0  0
 66  3  1  0  0  0  0
 67 66  4  0  0  0  0
 68 67  1  0  0  0  0
 69 67  4  0  0  0  0
 70 69  1  0  0  0  0
 71 69  4  0  0  0  0
 72 71  1  0  0  0  0
 73 71  4  0  0  0  0
 74 73  1  0  0  0  0
 75 66  4  0  0  0  0
 76 75  1  0  0  0  0
 77  3  1  0  0  0  0
 78 77  4  0  0  0  0
 79 78  1  0  0  0  0
 80 78  4  0  0  0  0
 81 80  1  0  0  0  0
 82 80  4  0  0  0  0
 83 82  1  0  0  0  0
 84 82  4  0  0  0  0
 85 84  1  0  0  0  0
 86 77  4  0  0  0  0
 87 86  1  0  0  0  0
 88 91  1  0  0  0  0
 89 90  1  0  0  0  0
 90 97  1  0  0  0  0
 91 92  1  0  0  0  0
 93 91  1  0  0  0  0
 94 91  1  0  0  0  0
 95 94  1  0  0  0  0
 96 94  1  0  0  0  0
 97 94  1  0  0  0  0
 98 97  1  0  0  0  0
 99 97  1  0  0  0  0
100 89  1  0  0  0  0
101100  1  0  0  0  0
102101  1  0  0  0  0
103 88  1  0  0  0  0
104100  2  0  0  0  0
105104  1  0  0  0  0
106104  1  0  0  0  0
107 88  1  0  0  0  0
108107  4  0  0  0  0
109108  1  0  0  0  0
110108  4  0  0  0  0
111110  1  0  0  0  0
112110  4  0  0  0  0
113112  1  0  0  0  0
114 30  1  0  0  0  0
115 10  1  0  0  0  0
116 30  1  0  0  0  0
117116  1  0  0  0  0
118116  1  0  0  0  0
119116  1  0  0  0  0
120 88  1  0  0  0  0
121120  4  0  0  0  0
122121  4  0  0  0  0
123122  1  0  0  0  0
124122  4  0  0  0  0
125124  4  0  0  0  0
126125  1  0  0  0  0
127120  4  0  0  0  0
128121  1  0  0  0  0
129128  1  0  0  0  0
130128  1  0  0  0  0
131128  1  0  0  0  0
132124  1  0  0  0  0
133132  1  0  0  0  0
134132  1  0  0  0  0
135132  1  0  0  0  0
136127  1  0  0  0  0
137136  1  0  0  0  0
138136  1  0  0  0  0
139136  1  0  0  0  0
140103  1  0  0  0  0
141140  4  0  0  0  0
142141  1  0  0  0  0
143141  4  0  0  0  0
144143  1  0  0  0  0
145143  4  0  0  0  0
146145  1  0  0  0  0
147145  4  0  0  0  0
148147  1  0  0  0  0
149140  4  0  0  0  0
150149  1  0  0  0  0
151 90  1  0  0  0  0
152151  4  0  0  0  0
153152  1  0  0  0  0
154152  4  0  0  0  0
155154  1  0  0  0  0
156154  4  0  0  0  0
157156  1  0  0  0  0
158156  4  0  0  0  0
159158  1  0  0  0  0
160151  4  0  0  0  0
161160  1  0  0  0  0
162 90  1  0  0  0  0
163162  4  0  0  0  0
164163  1  0  0  0  0
165163  4  0  0  0  0
166165  1  0  0  0  0
167165  4  0  0  0  0
168167  1  0  0  0  0
169167  4  0  0  0  0
170169  1  0  0  0  0
171162  4  0  0  0  0
172171  1  0  0  0  0
 15 17  2  0  0  0  0
 28 29  4  0  0  0  0
 40 42  4  0  0  0  0
 62 64  4  0  0  0  0
 73 75  4  0  0  0  0
 84 86  4  0  0  0  0
101103  2  0  0  0  0
107115  4  0  0  0  0
112114  4  0  0  0  0
114115  4  0  0  0  0
125127  4  0  0  0  0
147149  4  0  0  0  0
158160  4  0  0  0  0
169171  4  0  0  0  0
M  CHG  4   1   1   3  -1  88   1  90  -1
M  END
$$$$
MIWSIX

From CSD data. Using bond type 'Any'. Matching problem. No disordered atoms. Largest molecule.
148158  0  0  0  0  0  0  0  0999 V2000
   16.7444   13.5178    1.0818 P   0  3  0  0  0  0  0  0  0  0  0  0
   17.7102   13.3536    0.3216 H   0  0  0  0  0  0  0  0  0  0  0  0
   15.8328   10.2262   -1.7957 P   0  0  0  0  0  0  0  0  0  0  0  0
   15.3939   13.0970   -1.6093 O   0  0  0  0  0  0  0  0  0  0  0  0
   18.9717    8.6789    2.8033 O   0  3  0  0  0  0  0  0  0  0  0  0
   20.3499    7.4827   -1.5818 O   0  0  0  0  0  0  0  0  0  0  0  0
   16.1336   11.8668    1.4713 C   0  0  0  0  0  0  0  0  0  0  0  0
   15.2451   11.9455    1.8996 H   0  0  0  0  0  0  0  0  0  0  0  0
   16.0180   11.3594    0.6295 H   0  0  0  0  0  0  0  0  0  0  0  0
   17.0690   11.0802    2.4027 C   0  0  0  0  0  0  0  0  0  0  0  0
   16.9960   11.4597    3.3154 H   0  0  0  0  0  0  0  0  0  0  0  0
   16.7509   10.1421    2.4467 H   0  0  0  0  0  0  0  0  0  0  0  0
   18.5318   11.0762    1.9975 C   0  0  0  0  0  0  0  0  0  0  0  0
   18.8794   12.0025    2.0453 H   0  0  0  0  0  0  0  0  0  0  0  0
   18.6034   10.7773    1.0557 H   0  0  0  0  0  0  0  0  0  0  0  0
   13.6380   14.8640   -3.0488 C   0  0  0  0  0  0  0  0  0  0  0  0
   14.6866   15.4520   -4.0467 C   0  0  0  0  0  0  0  0  0  0  0  0
   15.5625   15.0430   -3.8817 H   0  0  0  0  0  0  0  0  0  0  0  0
   14.7483   16.4216   -3.9202 H   0  0  0  0  0  0  0  0  0  0  0  0
   14.4046   15.2613   -4.9649 H   0  0  0  0  0  0  0  0  0  0  0  0
   12.2802   15.5071   -3.2907 C   0  0  0  0  0  0  0  0  0  0  0  0
   12.0272   15.3891   -4.2309 H   0  0  0  0  0  0  0  0  0  0  0  0
   12.3312   16.4629   -3.0818 H   0  0  0  0  0  0  0  0  0  0  0  0
   11.6111   15.0803   -2.7161 H   0  0  0  0  0  0  0  0  0  0  0  0
   17.5132   10.7950   -2.3450 C   0  0  0  0  0  0  0  0  0  0  0  0
   17.4876   11.0507   -3.2989 H   0  0  0  0  0  0  0  0  0  0  0  0
   17.7936   11.5817   -1.8144 H   0  0  0  0  0  0  0  0  0  0  0  0
   18.5018    9.6347   -2.1333 C   0  0  0  0  0  0  0  0  0  0  0  0
   18.4378    9.0230   -2.9086 H   0  0  0  0  0  0  0  0  0  0  0  0
   18.2244    9.1273   -1.3306 H   0  0  0  0  0  0  0  0  0  0  0  0
   19.9906   10.0516   -1.9574 C   0  0  0  0  0  0  0  0  0  0  0  0
   20.1218   10.4371   -1.0557 H   0  0  0  0  0  0  0  0  0  0  0  0
   20.2209   10.7458   -2.6254 H   0  0  0  0  0  0  0  0  0  0  0  0
   15.5572   14.5828    0.2474 C   0  0  0  0  0  0  0  0  0  0  0  0
   15.0079   14.2898   -1.0265 C   0  0  0  0  0  0  0  0  0  0  0  0
   14.1450   15.1767   -1.6385 C   0  0  0  0  0  0  0  0  0  0  0  0
   13.8343   16.3528   -0.9704 C   0  0  0  0  0  0  0  0  0  0  0  0
   13.2413   16.9742   -1.3801 H   0  0  0  0  0  0  0  0  0  0  0  0
   14.3536   16.6419    0.2639 C   0  0  0  0  0  0  0  0  0  0  0  0
   14.0952   17.4384    0.7148 H   0  0  0  0  0  0  0  0  0  0  0  0
   15.2417   15.7864    0.8495 C   0  0  0  0  0  0  0  0  0  0  0  0
   15.6499   16.0204    1.6742 H   0  0  0  0  0  0  0  0  0  0  0  0
   17.4041   14.3999    2.4923 C   0  0  0  0  0  0  0  0  0  0  0  0
   16.6763   14.4766    3.6838 C   0  0  0  0  0  0  0  0  0  0  0  0
   17.2387   15.1531    4.7670 C   0  0  0  0  0  0  0  0  0  0  0  0
   16.7342   15.2298    5.5697 H   0  0  0  0  0  0  0  0  0  0  0  0
   18.4783   15.7057    4.7120 C   0  0  0  0  0  0  0  0  0  0  0  0
   19.1732   15.6762    3.5134 C   0  0  0  0  0  0  0  0  0  0  0  0
   20.0210   16.1010    3.4611 H   0  0  0  0  0  0  0  0  0  0  0  0
   18.6614   15.0390    2.3835 C   0  0  0  0  0  0  0  0  0  0  0  0
   15.2749   13.9122    3.8378 C   0  0  0  0  0  0  0  0  0  0  0  0
   14.7789   14.0459    3.0048 H   0  0  0  0  0  0  0  0  0  0  0  0
   14.8179   14.3743    4.5690 H   0  0  0  0  0  0  0  0  0  0  0  0
   15.3307   12.9544    4.0357 H   0  0  0  0  0  0  0  0  0  0  0  0
   19.0913   16.3882    5.9216 C   0  0  0  0  0  0  0  0  0  0  0  0
   18.4178   16.4688    6.6281 H   0  0  0  0  0  0  0  0  0  0  0  0
   19.4039   17.2810    5.6659 H   0  0  0  0  0  0  0  0  0  0  0  0
   19.8473   15.8572    6.2487 H   0  0  0  0  0  0  0  0  0  0  0  0
   19.4536   15.0587    1.1134 C   0  0  0  0  0  0  0  0  0  0  0  0
   20.1662   15.7274    1.1821 H   0  0  0  0  0  0  0  0  0  0  0  0
   18.8666   15.2829    0.3629 H   0  0  0  0  0  0  0  0  0  0  0  0
   19.8513   14.1737    0.9622 H   0  0  0  0  0  0  0  0  0  0  0  0
   19.4656   10.1204    2.9196 B   0  5  0  0  0  0  0  0  0  0  0  0
   19.3060   10.5000    4.5333 C   0  0  0  0  0  0  0  0  0  0  0  0
   20.2469   12.6055    4.0943 F   0  0  0  0  0  0  0  0  0  0  0  0
   19.7510   11.7272    4.9649 C   0  0  0  0  0  0  0  0  0  0  0  0
   20.2507   13.3281    6.6421 F   0  0  0  0  0  0  0  0  0  0  0  0
   19.7722   12.1225    6.2817 C   0  0  0  0  0  0  0  0  0  0  0  0
   19.3174   11.6092    8.5602 F   0  0  0  0  0  0  0  0  0  0  0  0
   19.2941   11.2631    7.2604 C   0  0  0  0  0  0  0  0  0  0  0  0
   18.3274    9.2217    7.8102 F   0  0  0  0  0  0  0  0  0  0  0  0
   18.8107   10.0634    6.8535 C   0  0  0  0  0  0  0  0  0  0  0  0
   18.3241    8.4547    5.2953 F   0  0  0  0  0  0  0  0  0  0  0  0
   18.8136    9.6937    5.5450 C   0  0  0  0  0  0  0  0  0  0  0  0
   21.0969   10.1755    2.6309 C   0  0  0  0  0  0  0  0  0  0  0  0
   21.0966   11.9901    1.0919 F   0  0  0  0  0  0  0  0  0  0  0  0
   21.7720   11.0821    1.8309 C   0  0  0  0  0  0  0  0  0  0  0  0
   23.7347   12.0596    0.9330 F   0  0  0  0  0  0  0  0  0  0  0  0
   23.1508   11.1470    1.7292 C   0  0  0  0  0  0  0  0  0  0  0  0
   25.2663   10.3210    2.3307 F   0  0  0  0  0  0  0  0  0  0  0  0
   23.9281   10.2660    2.4495 C   0  0  0  0  0  0  0  0  0  0  0  0
   24.0667    8.4547    3.9059 F   0  0  0  0  0  0  0  0  0  0  0  0
   23.3080    9.3416    3.2055 C   0  0  0  0  0  0  0  0  0  0  0  0
   21.4143    8.3760    4.1223 F   0  0  0  0  0  0  0  0  0  0  0  0
   21.9478    9.3082    3.3154 C   0  0  0  0  0  0  0  0  0  0  0  0
   14.6279   11.1765   -2.7821 C   0  0  0  0  0  0  0  0  0  0  0  0
   14.5146   12.5650   -2.5776 C   0  0  0  0  0  0  0  0  0  0  0  0
   13.5977   13.3615   -3.2247 C   0  0  0  0  0  0  0  0  0  0  0  0
   12.7001   12.7440   -4.0769 C   0  0  0  0  0  0  0  0  0  0  0  0
   12.0624   13.2651   -4.5498 H   0  0  0  0  0  0  0  0  0  0  0  0
   12.7191   11.3889   -4.2364 C   0  0  0  0  0  0  0  0  0  0  0  0
   12.0585   10.9720   -4.7780 H   0  0  0  0  0  0  0  0  0  0  0  0
   13.6955   10.6003   -3.6178 C   0  0  0  0  0  0  0  0  0  0  0  0
   13.7161    9.6642   -3.7745 H   0  0  0  0  0  0  0  0  0  0  0  0
   15.7134    8.4940   -2.4165 C   0  0  0  0  0  0  0  0  0  0  0  0
   15.9846    8.0889   -3.7498 C   0  0  0  0  0  0  0  0  0  0  0  0
   16.0037    6.7260   -4.0247 C   0  0  0  0  0  0  0  0  0  0  0  0
   16.1609    6.4506   -4.9209 H   0  0  0  0  0  0  0  0  0  0  0  0
   15.8077    5.7525   -3.0708 C   0  0  0  0  0  0  0  0  0  0  0  0
   15.5571    6.1694   -1.7787 C   0  0  0  0  0  0  0  0  0  0  0  0
   15.4129    5.5165   -1.1051 H   0  0  0  0  0  0  0  0  0  0  0  0
   15.5044    7.5126   -1.4323 C   0  0  0  0  0  0  0  0  0  0  0  0
   16.2934    9.0211   -4.8879 C   0  0  0  0  0  0  0  0  0  0  0  0
   17.2615    9.0407   -5.0391 H   0  0  0  0  0  0  0  0  0  0  0  0
   15.9796    9.9218   -4.6680 H   0  0  0  0  0  0  0  0  0  0  0  0
   15.8433    8.7064   -5.6989 H   0  0  0  0  0  0  0  0  0  0  0  0
   15.8750    4.2814   -3.4062 C   0  0  0  0  0  0  0  0  0  0  0  0
   15.8466    4.1674   -4.3793 H   0  0  0  0  0  0  0  0  0  0  0  0
   15.1161    3.8173   -3.0020 H   0  0  0  0  0  0  0  0  0  0  0  0
   16.7113    3.9058   -3.0598 H   0  0  0  0  0  0  0  0  0  0  0  0
   15.2787    7.8647    0.0137 C   0  0  0  0  0  0  0  0  0  0  0  0
   15.0503    7.0544    0.5168 H   0  0  0  0  0  0  0  0  0  0  0  0
   14.5428    8.5097    0.0825 H   0  0  0  0  0  0  0  0  0  0  0  0
   16.0932    8.2600    0.3849 H   0  0  0  0  0  0  0  0  0  0  0  0
   20.9603    8.7870   -2.1443 B   0  5  0  0  0  0  0  0  0  0  0  0
   21.2347    8.3131   -3.7223 C   0  0  0  0  0  0  0  0  0  0  0  0
   19.9563   10.0221   -4.7936 F   0  0  0  0  0  0  0  0  0  0  0  0
   20.7692    8.9503   -4.8632 C   0  0  0  0  0  0  0  0  0  0  0  0
   20.6525    9.2748   -7.2093 F   0  0  0  0  0  0  0  0  0  0  0  0
   21.1366    8.5786   -6.1498 C   0  0  0  0  0  0  0  0  0  0  0  0
   22.3437    7.2058   -7.5848 F   0  0  0  0  0  0  0  0  0  0  0  0
   21.9726    7.5264   -6.3285 C   0  0  0  0  0  0  0  0  0  0  0  0
   23.2304    5.7662   -5.4402 F   0  0  0  0  0  0  0  0  0  0  0  0
   22.4317    6.8282   -5.2563 C   0  0  0  0  0  0  0  0  0  0  0  0
   22.5686    6.5173   -2.9825 F   0  0  0  0  0  0  0  0  0  0  0  0
   22.0430    7.2334   -3.9972 C   0  0  0  0  0  0  0  0  0  0  0  0
   22.4723    9.0309   -1.5478 C   0  0  0  0  0  0  0  0  0  0  0  0
   22.7146   10.7922   -3.0936 F   0  0  0  0  0  0  0  0  0  0  0  0
   23.2621   10.0103   -2.1388 C   0  0  0  0  0  0  0  0  0  0  0  0
   25.2864   11.1647   -2.4948 F   0  0  0  0  0  0  0  0  0  0  0  0
   24.5954   10.2306   -1.8529 C   0  0  0  0  0  0  0  0  0  0  0  0
   26.4993    9.6347   -0.6048 F   0  0  0  0  0  0  0  0  0  0  0  0
   25.2096    9.4400   -0.8962 C   0  0  0  0  0  0  0  0  0  0  0  0
   25.0705    7.7191    0.6724 F   0  0  0  0  0  0  0  0  0  0  0  0
   24.4709    8.4684   -0.2694 C   0  0  0  0  0  0  0  0  0  0  0  0
   22.5499    7.2646    0.0605 F   0  0  0  0  0  0  0  0  0  0  0  0
   23.1673    8.2973   -0.6048 C   0  0  0  0  0  0  0  0  0  0  0  0
   19.0864    7.8922    1.8034 C   0  0  0  0  0  0  0  0  0  0  0  0
   19.7698    8.1872    0.6186 C   0  0  0  0  0  0  0  0  0  0  0  0
   20.2327    9.0132    0.5278 H   0  0  0  0  0  0  0  0  0  0  0  0
   19.7795    7.2589   -0.4426 C   0  0  0  0  0  0  0  0  0  0  0  0
   19.1001    5.9708   -0.2997 C   0  0  0  0  0  0  0  0  0  0  0  0
   18.4162    5.9098   -1.0117 H   0  0  0  0  0  0  0  0  0  0  0  0
   19.7637    5.2588   -0.4701 H   0  0  0  0  0  0  0  0  0  0  0  0
   18.4749    5.6876    0.9237 C   0  0  0  0  0  0  0  0  0  0  0  0
   18.0606    4.8400    1.0364 H   0  0  0  0  0  0  0  0  0  0  0  0
   18.4355    6.5962    1.9766 C   0  0  0  0  0  0  0  0  0  0  0  0
   17.9967    6.3779    2.7876 H   0  0  0  0  0  0  0  0  0  0  0  0
  1  2  1  0  0  0  0
  3 25  1  0  0  0  0
  4 35  1  0  0  0  0
  5 63  1  0  0  0  0
  6115  1  0  0  0  0
  7  1  1  0  0  0  0
  8  7  1  0  0  0  0
  9  7  1  0  0  0  0
 10  7  1  0  0  0  0
 11 10  1  0  0  0  0
 12 10  1  0  0  0  0
 13 10  1  0  0  0  0
 14 13  1  0  0  0  0
 15 13  1  0  0  0  0
 16 17  1  0  0  0  0
 17 18  1  0  0  0  0
 19 17  1  0  0  0  0
 20 17  1  0  0  0  0
 21 16  1  0  0  0  0
 22 21  1  0  0  0  0
 23 21  1  0  0  0  0
 24 21  1  0  0  0  0
 25 26  1  0  0  0  0
 27 25  1  0  0  0  0
 28 25  1  0  0  0  0
 29 28  1  0  0  0  0
 30 28  1  0  0  0  0
 31 28  1  0  0  0  0
 32 31  1  0  0  0  0
 33 31  1  0  0  0  0
 34  1  1  0  0  0  0
 35 34  4  0  0  0  0
 36 16  1  0  0  0  0
 37 36  4  0  0  0  0
 38 37  1  0  0  0  0
 39 37  4  0  0  0  0
 40 39  1  0  0  0  0
 41 34  4  0  0  0  0
 42 41  1  0  0  0  0
 43  1  1  0  0  0  0
 44 43  4  0  0  0  0
 45 44  4  0  0  0  0
 46 45  1  0  0  0  0
 47 45  4  0  0  0  0
 48 47  4  0  0  0  0
 49 48  1  0  0  0  0
 50 43  4  0  0  0  0
 51 44  1  0  0  0  0
 52 51  1  0  0  0  0
 53 51  1  0  0  0  0
 54 51  1  0  0  0  0
 55 47  1  0  0  0  0
 56 55  1  0  0  0  0
 57 55  1  0  0  0  0
 58 55  1  0  0  0  0
 59 50  1  0  0  0  0
 60 59  1  0  0  0  0
 61 59  1  0  0  0  0
 62 59  1  0  0  0  0
 63 13  1  0  0  0  0
 64 63  1  0  0  0  0
 65 66  1  0  0  0  0
 66 64  4  0  0  0  0
 67 68  1  0  0  0  0
 68 66  4  0  0  0  0
 69 70  1  0  0  0  0
 70 68  4  0  0  0  0
 71 72  1  0  0  0  0
 72 70  4  0  0  0  0
 73 74  1  0  0  0  0
 74 64  4  0  0  0  0
 75 63  1  0  0  0  0
 76 77  1  0  0  0  0
 77 75  4  0  0  0  0
 78 79  1  0  0  0  0
 79 77  4  0  0  0  0
 80 81  1  0  0  0  0
 81 79  4  0  0  0  0
 82 83  1  0  0  0  0
 83 81  4  0  0  0  0
 84 85  1  0  0  0  0
 85 75  4  0  0  0  0
 86  3  1  0  0  0  0
 87  4  1  0  0  0  0
 88 16  1  0  0  0  0
 89 88  4  0  0  0  0
 90 89  1  0  0  0  0
 91 89  4  0  0  0  0
 92 91  1  0  0  0  0
 93 86  4  0  0  0  0
 94 93  1  0  0  0  0
 95  3  1  0  0  0  0
 96 95  4  0  0  0  0
 97 96  4  0  0  0  0
 98 97  1  0  0  0  0
 99 97  4  0  0  0  0
100 99  4  0  0  0  0
101100  1  0  0  0  0
102 95  4  0  0  0  0
103 96  1  0  0  0  0
104103  1  0  0  0  0
105103  1  0  0  0  0
106103  1  0  0  0  0
107 99  1  0  0  0  0
108107  1  0  0  0  0
109107  1  0  0  0  0
110107  1  0  0  0  0
111102  1  0  0  0  0
112111  1  0  0  0  0
113111  1  0  0  0  0
114111  1  0  0  0  0
115 31  1  0  0  0  0
116115  1  0  0  0  0
117118  1  0  0  0  0
118116  4  0  0  0  0
119120  1  0  0  0  0
120118  4  0  0  0  0
121122  1  0  0  0  0
122120  4  0  0  0  0
123124  1  0  0  0  0
124122  4  0  0  0  0
125126  1  0  0  0  0
126116  4  0  0  0  0
127115  1  0  0  0  0
128129  1  0  0  0  0
129127  4  0  0  0  0
130131  1  0  0  0  0
131129  4  0  0  0  0
132133  1  0  0  0  0
133131  4  0  0  0  0
134135  1  0  0  0  0
135133  4  0  0  0  0
136137  1  0  0  0  0
137127  4  0  0  0  0
138  5  2  0  0  0  0
139138  1  0  0  0  0
140139  1  0  0  0  0
141  6  1  0  0  0  0
142141  1  0  0  0  0
143142  1  0  0  0  0
144142  1  0  0  0  0
145142  1  0  0  0  0
146145  1  0  0  0  0
147138  1  0  0  0  0
148147  1  0  0  0  0
 35 36  4  0  0  0  0
 39 41  4  0  0  0  0
 48 50  4  0  0  0  0
 72 74  4  0  0  0  0
 83 85  4  0  0  0  0
 86 87  4  0  0  0  0
 87 88  4  0  0  0  0
 91 93  4  0  0  0  0
100102  4  0  0  0  0
124126  4  0  0  0  0
135137  4  0  0  0  0
139141  2  0  0  0  0
145147  2  0  0  0  0
M  CHG  4   1   1   5   1  63  -1 115  -1
M  END
$$$$
MIWSOD

From CSD data. Using bond type 'Any'. Matching problem. No disordered atoms. Largest molecule.
162173  0  0  0  0  0  0  0  0999 V2000
   20.3072    9.3904   10.3089 P   0  3  0  0  0  0  0  0  0  0  0  0
   20.1146    9.7810   11.4534 H   0  0  0  0  0  0  0  0  0  0  0  0
   18.9593    6.3302   13.3799 P   0  0  0  0  0  0  0  0  0  0  0  0
   15.5346    9.8234   11.4041 B   0  5  0  0  0  0  0  0  0  0  0  0
   14.9831   12.5643   14.5054 B   0  0  0  0  0  0  0  0  0  0  0  0
   21.4423    7.2194   11.9751 O   0  0  0  0  0  0  0  0  0  0  0  0
   19.0026    8.1680   10.0701 C   0  0  0  0  0  0  0  0  0  0  0  0
   19.1652    7.6960    9.2154 H   0  0  0  0  0  0  0  0  0  0  0  0
   19.0633    7.4969   10.7957 H   0  0  0  0  0  0  0  0  0  0  0  0
   17.5691    8.7375   10.0497 C   0  0  0  0  0  0  0  0  0  0  0  0
   17.4804    9.3358    9.2664 H   0  0  0  0  0  0  0  0  0  0  0  0
   16.9354    7.9877    9.9223 H   0  0  0  0  0  0  0  0  0  0  0  0
   17.1554    9.5189   11.3106 C   0  0  0  0  0  0  0  0  0  0  0  0
   17.6435   10.3806   11.3259 H   0  0  0  0  0  0  0  0  0  0  0  0
   17.4308    9.0034   12.1093 H   0  0  0  0  0  0  0  0  0  0  0  0
   24.1260    6.0012   11.8697 C   0  0  0  0  0  0  0  0  0  0  0  0
   25.1512    6.6005   12.8349 C   0  0  0  0  0  0  0  0  0  0  0  0
   25.8754    7.0170   12.3251 H   0  0  0  0  0  0  0  0  0  0  0  0
   25.5193    5.8905   13.4025 H   0  0  0  0  0  0  0  0  0  0  0  0
   24.7161    7.2740   13.3974 H   0  0  0  0  0  0  0  0  0  0  0  0
   24.7857    4.8725   11.0455 C   0  0  0  0  0  0  0  0  0  0  0  0
   24.1078    4.4340   10.4899 H   0  0  0  0  0  0  0  0  0  0  0  0
   25.1853    4.2152   11.6522 H   0  0  0  0  0  0  0  0  0  0  0  0
   25.4822    5.2521   10.4695 H   0  0  0  0  0  0  0  0  0  0  0  0
   18.9845    7.6624   14.6804 C   0  0  0  0  0  0  0  0  0  0  0  0
   18.0584    7.8491   14.9778 H   0  0  0  0  0  0  0  0  0  0  0  0
   19.5024    7.3478   15.4638 H   0  0  0  0  0  0  0  0  0  0  0  0
   19.6086    8.9366   14.1383 C   0  0  0  0  0  0  0  0  0  0  0  0
   19.4173    8.9959   13.1680 H   0  0  0  0  0  0  0  0  0  0  0  0
   20.5908    8.8779   14.2454 H   0  0  0  0  0  0  0  0  0  0  0  0
   19.1155   10.2274   14.8163 C   0  0  0  0  0  0  0  0  0  0  0  0
   19.2105   10.1397   15.7985 H   0  0  0  0  0  0  0  0  0  0  0  0
   19.6769   10.9899   14.5223 H   0  0  0  0  0  0  0  0  0  0  0  0
   21.9386    8.6669   10.1908 C   0  0  0  0  0  0  0  0  0  0  0  0
   22.8254    9.1711    9.2307 C   0  0  0  0  0  0  0  0  0  0  0  0
   22.5461    9.8669    8.6478 H   0  0  0  0  0  0  0  0  0  0  0  0
   24.1070    8.6588    9.1287 C   0  0  0  0  0  0  0  0  0  0  0  0
   24.7103    9.0024    8.4796 H   0  0  0  0  0  0  0  0  0  0  0  0
   24.4983    7.6526    9.9682 C   0  0  0  0  0  0  0  0  0  0  0  0
   25.3832    7.3156    9.8934 H   0  0  0  0  0  0  0  0  0  0  0  0
   23.6438    7.0982   10.9351 C   0  0  0  0  0  0  0  0  0  0  0  0
   22.3654    7.6242   11.0286 C   0  0  0  0  0  0  0  0  0  0  0  0
   20.1784   10.8590    9.2919 C   0  0  0  0  0  0  0  0  0  0  0  0
   19.7970   10.7766    7.9392 C   0  0  0  0  0  0  0  0  0  0  0  0
   19.5156   11.9450    7.2663 C   0  0  0  0  0  0  0  0  0  0  0  0
   19.2325   11.8947    6.3605 H   0  0  0  0  0  0  0  0  0  0  0  0
   19.6301   13.1932    7.8593 C   0  0  0  0  0  0  0  0  0  0  0  0
   20.1048   13.2545    9.1610 C   0  0  0  0  0  0  0  0  0  0  0  0
   20.2379   14.1065    9.5586 H   0  0  0  0  0  0  0  0  0  0  0  0
   20.3928   12.1058    9.9104 C   0  0  0  0  0  0  0  0  0  0  0  0
   19.7289    9.4614    7.1966 C   0  0  0  0  0  0  0  0  0  0  0  0
   18.8911    9.0055    7.4175 H   0  0  0  0  0  0  0  0  0  0  0  0
   20.4863    8.8987    7.4583 H   0  0  0  0  0  0  0  0  0  0  0  0
   19.7662    9.6301    6.2314 H   0  0  0  0  0  0  0  0  0  0  0  0
   19.2473   14.4484    7.1116 C   0  0  0  0  0  0  0  0  0  0  0  0
   19.3807   14.3091    6.1498 H   0  0  0  0  0  0  0  0  0  0  0  0
   19.8052   15.1934    7.4158 H   0  0  0  0  0  0  0  0  0  0  0  0
   18.3034   14.6547    7.2816 H   0  0  0  0  0  0  0  0  0  0  0  0
   20.9603   12.2549   11.2919 C   0  0  0  0  0  0  0  0  0  0  0  0
   21.2253   13.1874   11.4381 H   0  0  0  0  0  0  0  0  0  0  0  0
   21.7433   11.6751   11.3871 H   0  0  0  0  0  0  0  0  0  0  0  0
   20.2826   12.0008   11.9530 H   0  0  0  0  0  0  0  0  0  0  0  0
   14.8842    8.2937   11.5978 C   0  0  0  0  0  0  0  0  0  0  0  0
   14.8276    7.6629   12.8366 C   0  0  0  0  0  0  0  0  0  0  0  0
   15.1815    8.3458   13.9534 F   0  0  0  0  0  0  0  0  0  0  0  0
   14.3855    6.3690   13.0575 C   0  0  0  0  0  0  0  0  0  0  0  0
   14.2820    5.8800   14.3019 F   0  0  0  0  0  0  0  0  0  0  0  0
   14.0072    5.5906   11.9887 C   0  0  0  0  0  0  0  0  0  0  0  0
   13.5489    4.3424   12.1577 F   0  0  0  0  0  0  0  0  0  0  0  0
   14.1008    6.1365   10.7261 C   0  0  0  0  0  0  0  0  0  0  0  0
   13.7610    5.3848    9.6528 F   0  0  0  0  0  0  0  0  0  0  0  0
   14.5248    7.4291   10.5578 C   0  0  0  0  0  0  0  0  0  0  0  0
   14.6071    7.8477    9.2643 F   0  0  0  0  0  0  0  0  0  0  0  0
   14.9460   10.5786   10.0141 C   0  0  0  0  0  0  0  0  0  0  0  0
   15.6875   11.4879    9.2681 C   0  0  0  0  0  0  0  0  0  0  0  0
   16.9887   11.7391    9.5615 F   0  0  0  0  0  0  0  0  0  0  0  0
   15.1903   12.2304    8.2043 C   0  0  0  0  0  0  0  0  0  0  0  0
   15.9832   13.1004    7.5487 F   0  0  0  0  0  0  0  0  0  0  0  0
   13.8800   12.0817    7.8406 C   0  0  0  0  0  0  0  0  0  0  0  0
   13.3574   12.7954    6.8194 F   0  0  0  0  0  0  0  0  0  0  0  0
   13.0758   11.1971    8.5391 C   0  0  0  0  0  0  0  0  0  0  0  0
   11.7943   11.0636    8.1864 F   0  0  0  0  0  0  0  0  0  0  0  0
   13.6300   10.4727    9.5705 C   0  0  0  0  0  0  0  0  0  0  0  0
   12.7617    9.6149   10.1665 F   0  0  0  0  0  0  0  0  0  0  0  0
   20.6318    5.5490   13.4484 C   0  0  0  0  0  0  0  0  0  0  0  0
   20.8403    4.3537   14.1332 C   0  0  0  0  0  0  0  0  0  0  0  0
   20.1258    3.9753   14.6311 H   0  0  0  0  0  0  0  0  0  0  0  0
   22.0627    3.7035   14.1077 C   0  0  0  0  0  0  0  0  0  0  0  0
   22.1795    2.8856   14.5767 H   0  0  0  0  0  0  0  0  0  0  0  0
   23.1110    4.2540   13.3923 C   0  0  0  0  0  0  0  0  0  0  0  0
   23.9561    3.8180   13.3872 H   0  0  0  0  0  0  0  0  0  0  0  0
   22.9451    5.4482   12.6752 C   0  0  0  0  0  0  0  0  0  0  0  0
   21.7097    6.0556   12.7126 C   0  0  0  0  0  0  0  0  0  0  0  0
   17.8421    4.9963   14.0193 C   0  0  0  0  0  0  0  0  0  0  0  0
   17.1627    4.2756   13.0168 C   0  0  0  0  0  0  0  0  0  0  0  0
   16.2093    3.3299   13.3651 C   0  0  0  0  0  0  0  0  0  0  0  0
   15.7633    2.8496   12.6769 H   0  0  0  0  0  0  0  0  0  0  0  0
   15.8840    3.0614   14.6940 C   0  0  0  0  0  0  0  0  0  0  0  0
   16.5851    3.7525   15.6643 C   0  0  0  0  0  0  0  0  0  0  0  0
   16.3885    3.5728   16.5751 H   0  0  0  0  0  0  0  0  0  0  0  0
   17.5696    4.7059   15.3720 C   0  0  0  0  0  0  0  0  0  0  0  0
   17.4191    4.4968   11.5468 C   0  0  0  0  0  0  0  0  0  0  0  0
   16.8695    3.8779   11.0218 H   0  0  0  0  0  0  0  0  0  0  0  0
   18.3673    4.3378   11.3531 H   0  0  0  0  0  0  0  0  0  0  0  0
   17.1885    5.4200   11.3089 H   0  0  0  0  0  0  0  0  0  0  0  0
   14.8082    2.0820   15.0729 C   0  0  0  0  0  0  0  0  0  0  0  0
   15.1982    1.3542   15.6014 H   0  0  0  0  0  0  0  0  0  0  0  0
   14.4017    1.7117   14.2606 H   0  0  0  0  0  0  0  0  0  0  0  0
   14.1209    2.5377   15.6031 H   0  0  0  0  0  0  0  0  0  0  0  0
   18.2942    5.3015   16.5598 C   0  0  0  0  0  0  0  0  0  0  0  0
   19.2351    5.4448   16.3287 H   0  0  0  0  0  0  0  0  0  0  0  0
   18.2338    4.6870   17.3194 H   0  0  0  0  0  0  0  0  0  0  0  0
   17.8819    6.1579   16.7977 H   0  0  0  0  0  0  0  0  0  0  0  0
   15.6149   13.9791   14.8860 C   0  0  0  0  0  0  0  0  0  0  0  0
   16.2017   14.1597   16.1214 C   0  0  0  0  0  0  0  0  0  0  0  0
   16.2099   13.1360   17.0157 F   0  0  0  0  0  0  0  0  0  0  0  0
   16.8175   15.3443   16.4952 C   0  0  0  0  0  0  0  0  0  0  0  0
   17.3615   15.4643   17.7171 F   0  0  0  0  0  0  0  0  0  0  0  0
   16.8642   16.3760   15.6014 C   0  0  0  0  0  0  0  0  0  0  0  0
   17.4777   17.5317   15.9362 F   0  0  0  0  0  0  0  0  0  0  0  0
   16.2919   16.2416   14.3796 C   0  0  0  0  0  0  0  0  0  0  0  0
   16.3369   17.2650   13.4824 F   0  0  0  0  0  0  0  0  0  0  0  0
   15.6722   15.0612   14.0244 C   0  0  0  0  0  0  0  0  0  0  0  0
   15.1111   14.9741   12.8035 F   0  0  0  0  0  0  0  0  0  0  0  0
   13.7082   12.1704   15.3397 C   0  0  0  0  0  0  0  0  0  0  0  0
   12.5899   12.9774   15.4009 C   0  0  0  0  0  0  0  0  0  0  0  0
   12.5962   14.1777   14.7681 F   0  0  0  0  0  0  0  0  0  0  0  0
   11.4386   12.6374   16.0738 C   0  0  0  0  0  0  0  0  0  0  0  0
   10.3642   13.4290   16.0375 F   0  0  0  0  0  0  0  0  0  0  0  0
   11.3982   11.4385   16.7349 C   0  0  0  0  0  0  0  0  0  0  0  0
   10.2913   11.0843   17.4214 F   0  0  0  0  0  0  0  0  0  0  0  0
   12.4865   10.5964   16.7433 C   0  0  0  0  0  0  0  0  0  0  0  0
   12.4392    9.4451   17.4061 F   0  0  0  0  0  0  0  0  0  0  0  0
   13.6140   10.9734   16.0398 C   0  0  0  0  0  0  0  0  0  0  0  0
   14.6613   10.1295   16.0692 F   0  0  0  0  0  0  0  0  0  0  0  0
   15.0104   10.8342   12.6106 C   0  0  0  0  0  0  0  0  0  0  0  0
   15.6904   11.5928   13.5214 C   0  0  0  0  0  0  0  0  0  0  0  0
   17.1764   11.5497   13.8086 C   0  0  0  0  0  0  0  0  0  0  0  0
   17.6855   10.5030   14.4765 C   0  0  0  0  0  0  0  0  0  0  0  0
   17.0570    9.8536   14.7704 H   0  0  0  0  0  0  0  0  0  0  0  0
   13.5308   11.1299   12.5749 C   0  0  0  0  0  0  0  0  0  0  0  0
   12.5702   10.2317   13.0354 C   0  0  0  0  0  0  0  0  0  0  0  0
   12.8461    9.3791   13.3515 H   0  0  0  0  0  0  0  0  0  0  0  0
   11.2182   10.5526   13.0439 C   0  0  0  0  0  0  0  0  0  0  0  0
   10.5852    9.9315   13.3821 H   0  0  0  0  0  0  0  0  0  0  0  0
   10.7965   11.7768   12.5613 C   0  0  0  0  0  0  0  0  0  0  0  0
    9.8740   11.9980   12.5630 H   0  0  0  0  0  0  0  0  0  0  0  0
   11.7202   12.6728   12.0787 C   0  0  0  0  0  0  0  0  0  0  0  0
   11.4311   13.5123   11.7389 H   0  0  0  0  0  0  0  0  0  0  0  0
   13.0753   12.3629   12.0855 C   0  0  0  0  0  0  0  0  0  0  0  0
   13.7015   12.9945   11.7525 H   0  0  0  0  0  0  0  0  0  0  0  0
   17.9413   12.7617   13.4161 C   0  0  0  0  0  0  0  0  0  0  0  0
   17.6862   13.3881   12.2011 C   0  0  0  0  0  0  0  0  0  0  0  0
   17.0603   12.9992   11.6029 H   0  0  0  0  0  0  0  0  0  0  0  0
   18.3282   14.5727   11.8391 C   0  0  0  0  0  0  0  0  0  0  0  0
   18.1300   14.9901   11.0082 H   0  0  0  0  0  0  0  0  0  0  0  0
   19.2626   15.1425   12.7024 C   0  0  0  0  0  0  0  0  0  0  0  0
   19.7224   15.9362   12.4543 H   0  0  0  0  0  0  0  0  0  0  0  0
   19.5188   14.5402   13.9293 C   0  0  0  0  0  0  0  0  0  0  0  0
   20.1412   14.9369   14.5291 H   0  0  0  0  0  0  0  0  0  0  0  0
   18.8735   13.3710   14.2827 C   0  0  0  0  0  0  0  0  0  0  0  0
   19.0597   12.9715   15.1239 H   0  0  0  0  0  0  0  0  0  0  0  0
  1  2  1  0  0  0  0
  3 25  1  0  0  0  0
  4 13  1  0  0  0  0
  5114  1  0  0  0  0
  6 42  1  0  0  0  0
  7  1  1  0  0  0  0
  8  7  1  0  0  0  0
  9  7  1  0  0  0  0
 10  7  1  0  0  0  0
 11 10  1  0  0  0  0
 12 10  1  0  0  0  0
 13 10  1  0  0  0  0
 14 13  1  0  0  0  0
 15 13  1  0  0  0  0
 16 17  1  0  0  0  0
 17 18  1  0  0  0  0
 19 17  1  0  0  0  0
 20 17  1  0  0  0  0
 21 16  1  0  0  0  0
 22 21  1  0  0  0  0
 23 21  1  0  0  0  0
 24 21  1  0  0  0  0
 25 26  1  0  0  0  0
 27 25  1  0  0  0  0
 28 25  1  0  0  0  0
 29 28  1  0  0  0  0
 30 28  1  0  0  0  0
 31 28  1  0  0  0  0
 32 31  1  0  0  0  0
 33 31  1  0  0  0  0
 34  1  1  0  0  0  0
 35 34  4  0  0  0  0
 36 35  1  0  0  0  0
 37 35  4  0  0  0  0
 38 37  1  0  0  0  0
 39 37  4  0  0  0  0
 40 39  1  0  0  0  0
 41 16  1  0  0  0  0
 42 34  4  0  0  0  0
 43  1  1  0  0  0  0
 44 43  4  0  0  0  0
 45 44  4  0  0  0  0
 46 45  1  0  0  0  0
 47 45  4  0  0  0  0
 48 47  4  0  0  0  0
 49 48  1  0  0  0  0
 50 43  4  0  0  0  0
 51 44  1  0  0  0  0
 52 51  1  0  0  0  0
 53 51  1  0  0  0  0
 54 51  1  0  0  0  0
 55 47  1  0  0  0  0
 56 55  1  0  0  0  0
 57 55  1  0  0  0  0
 58 55  1  0  0  0  0
 59 50  1  0  0  0  0
 60 59  1  0  0  0  0
 61 59  1  0  0  0  0
 62 59  1  0  0  0  0
 63  4  1  0  0  0  0
 64 63  4  0  0  0  0
 65 64  1  0  0  0  0
 66 64  4  0  0  0  0
 67 66  1  0  0  0  0
 68 66  4  0  0  0  0
 69 68  1  0  0  0  0
 70 68  4  0  0  0  0
 71 70  1  0  0  0  0
 72 63  4  0  0  0  0
 73 72  1  0  0  0  0
 74  4  1  0  0  0  0
 75 74  4  0  0  0  0
 76 75  1  0  0  0  0
 77 75  4  0  0  0  0
 78 77  1  0  0  0  0
 79 77  4  0  0  0  0
 80 79  1  0  0  0  0
 81 79  4  0  0  0  0
 82 81  1  0  0  0  0
 83 74  4  0  0  0  0
 84 83  1  0  0  0  0
 85  3  1  0  0  0  0
 86 85  4  0  0  0  0
 87 86  1  0  0  0  0
 88 86  4  0  0  0  0
 89 88  1  0  0  0  0
 90 88  4  0  0  0  0
 91 90  1  0  0  0  0
 92 16  1  0  0  0  0
 93  6  1  0  0  0  0
 94  3  1  0  0  0  0
 95 94  4  0  0  0  0
 96 95  4  0  0  0  0
 97 96  1  0  0  0  0
 98 96  4  0  0  0  0
 99 98  4  0  0  0  0
100 99  1  0  0  0  0
101 94  4  0  0  0  0
102 95  1  0  0  0  0
103102  1  0  0  0  0
104102  1  0  0  0  0
105102  1  0  0  0  0
106 98  1  0  0  0  0
107106  1  0  0  0  0
108106  1  0  0  0  0
109106  1  0  0  0  0
110101  1  0  0  0  0
111110  1  0  0  0  0
112110  1  0  0  0  0
113110  1  0  0  0  0
114115  4  0  0  0  0
115116  1  0  0  0  0
117115  4  0  0  0  0
118117  1  0  0  0  0
119117  4  0  0  0  0
120119  1  0  0  0  0
121119  4  0  0  0  0
122121  1  0  0  0  0
123114  4  0  0  0  0
124123  1  0  0  0  0
125  5  1  0  0  0  0
126125  4  0  0  0  0
127126  1  0  0  0  0
128126  4  0  0  0  0
129128  1  0  0  0  0
130128  4  0  0  0  0
131130  1  0  0  0  0
132130  4  0  0  0  0
133132  1  0  0  0  0
134125  4  0  0  0  0
135134  1  0  0  0  0
136  4  1  0  0  0  0
137  5  1  0  0  0  0
138137  1  0  0  0  0
139 31  1  0  0  0  0
140139  1  0  0  0  0
141136  1  0  0  0  0
142141  4  0  0  0  0
143142  1  0  0  0  0
144142  4  0  0  0  0
145144  1  0  0  0  0
146144  4  0  0  0  0
147146  1  0  0  0  0
148146  4  0  0  0  0
149148  1  0  0  0  0
150141  4  0  0  0  0
151150  1  0  0  0  0
152138  1  0  0  0  0
153152  4  0  0  0  0
154153  1  0  0  0  0
155153  4  0  0  0  0
156155  1  0  0  0  0
157155  4  0  0  0  0
158157  1  0  0  0  0
159157  4  0  0  0  0
160159  1  0  0  0  0
161152  4  0  0  0  0
162161  1  0  0  0  0
 39 41  4  0  0  0  0
 41 42  4  0  0  0  0
 48 50  4  0  0  0  0
 70 72  4  0  0  0  0
 81 83  4  0  0  0  0
 85 93  4  0  0  0  0
 90 92  4  0  0  0  0
 92 93  4  0  0  0  0
 99101  4  0  0  0  0
121123  4  0  0  0  0
132134  4  0  0  0  0
136137  2  0  0  0  0
138139  2  0  0  0  0
148150  4  0  0  0  0
159161  4  0  0  0  0
M  CHG  2   1   1   4  -1
M  END
$$$$
MIWSUJ

From CSD data. Using bond type 'Any'. Matching problem. No disordered atoms. Largest molecule.
168179  0  0  0  0  0  0  0  0999 V2000
   17.8000    1.3314   10.4368 P   0  3  0  0  0  0  0  0  0  0  0  0
   17.6613    1.7916   11.5154 H   0  0  0  0  0  0  0  0  0  0  0  0
   16.6840   -1.7044   13.6452 P   0  0  0  0  0  0  0  0  0  0  0  0
   13.0366    1.6206   11.6501 B   0  5  0  0  0  0  0  0  0  0  0  0
   12.4692    4.3108   14.8285 B   0  0  0  0  0  0  0  0  0  0  0  0
   19.0672   -0.8117   12.1111 O   0  0  0  0  0  0  0  0  0  0  0  0
   16.5299    0.0540   10.2879 C   0  0  0  0  0  0  0  0  0  0  0  0
   16.6904   -0.4562    9.4541 H   0  0  0  0  0  0  0  0  0  0  0  0
   16.6232   -0.5754   11.0458 H   0  0  0  0  0  0  0  0  0  0  0  0
   15.0887    0.5852   10.2672 C   0  0  0  0  0  0  0  0  0  0  0  0
   14.4748   -0.1802   10.1343 H   0  0  0  0  0  0  0  0  0  0  0  0
   14.9878    1.1875    9.4886 H   0  0  0  0  0  0  0  0  0  0  0  0
   14.6552    1.3472   11.5327 C   0  0  0  0  0  0  0  0  0  0  0  0
   15.1230    2.2182   11.5517 H   0  0  0  0  0  0  0  0  0  0  0  0
   14.9466    0.8325   12.3252 H   0  0  0  0  0  0  0  0  0  0  0  0
   21.7497   -2.0010   11.8728 C   0  0  0  0  0  0  0  0  0  0  0  0
   22.3510   -3.0911   10.9388 C   0  0  0  0  0  0  0  0  0  0  0  0
   21.6408   -3.4708   10.3812 H   0  0  0  0  0  0  0  0  0  0  0  0
   22.7537   -3.8009   11.4809 H   0  0  0  0  0  0  0  0  0  0  0  0
   23.0370   -2.6894   10.3656 H   0  0  0  0  0  0  0  0  0  0  0  0
   22.8418   -1.4510   12.7999 C   0  0  0  0  0  0  0  0  0  0  0  0
   23.5215   -0.9885   12.2665 H   0  0  0  0  0  0  0  0  0  0  0  0
   23.2585   -2.1931   13.2885 H   0  0  0  0  0  0  0  0  0  0  0  0
   22.4434   -0.8230   13.4387 H   0  0  0  0  0  0  0  0  0  0  0  0
   16.8030   -0.3154   14.8769 C   0  0  0  0  0  0  0  0  0  0  0  0
   15.9116   -0.1572   15.2791 H   0  0  0  0  0  0  0  0  0  0  0  0
   17.4241   -0.5737   15.6020 H   0  0  0  0  0  0  0  0  0  0  0  0
   17.2894    0.9441   14.2312 C   0  0  0  0  0  0  0  0  0  0  0  0
   17.0329    0.9248   13.2747 H   0  0  0  0  0  0  0  0  0  0  0  0
   18.2776    0.9573   14.2743 H   0  0  0  0  0  0  0  0  0  0  0  0
   16.7600    2.2383   14.8475 C   0  0  0  0  0  0  0  0  0  0  0  0
   16.9351    2.2303   15.8212 H   0  0  0  0  0  0  0  0  0  0  0  0
   17.2455    3.0069   14.4573 H   0  0  0  0  0  0  0  0  0  0  0  0
   19.4663    0.6688   10.3000 C   0  0  0  0  0  0  0  0  0  0  0  0
   20.3111    1.2201    9.3453 C   0  0  0  0  0  0  0  0  0  0  0  0
   20.0022    1.9281    8.7928 H   0  0  0  0  0  0  0  0  0  0  0  0
   21.5975    0.7408    9.1951 C   0  0  0  0  0  0  0  0  0  0  0  0
   22.1694    1.0999    8.5270 H   0  0  0  0  0  0  0  0  0  0  0  0
   22.0458   -0.2670   10.0290 C   0  0  0  0  0  0  0  0  0  0  0  0
   22.9447   -0.5619    9.9444 H   0  0  0  0  0  0  0  0  0  0  0  0
   21.2290   -0.8714   10.9941 C   0  0  0  0  0  0  0  0  0  0  0  0
   19.9267   -0.3569   11.1270 C   0  0  0  0  0  0  0  0  0  0  0  0
   17.5708    2.7202    9.3263 C   0  0  0  0  0  0  0  0  0  0  0  0
   17.2426    2.5111    7.9814 C   0  0  0  0  0  0  0  0  0  0  0  0
   16.9276    3.6155    7.2131 C   0  0  0  0  0  0  0  0  0  0  0  0
   16.7095    3.4811    6.2981 H   0  0  0  0  0  0  0  0  0  0  0  0
   16.9129    4.9018    7.7086 C   0  0  0  0  0  0  0  0  0  0  0  0
   17.2943    5.0909    9.0259 C   0  0  0  0  0  0  0  0  0  0  0  0
   17.3281    5.9748    9.3712 H   0  0  0  0  0  0  0  0  0  0  0  0
   17.6288    4.0243    9.8667 C   0  0  0  0  0  0  0  0  0  0  0  0
   17.2862    1.1640    7.3374 C   0  0  0  0  0  0  0  0  0  0  0  0
   18.0179    0.6405    7.7242 H   0  0  0  0  0  0  0  0  0  0  0  0
   17.4341    1.2679    6.3741 H   0  0  0  0  0  0  0  0  0  0  0  0
   16.4362    0.7006    7.4894 H   0  0  0  0  0  0  0  0  0  0  0  0
   16.5052    6.0747    6.8713 C   0  0  0  0  0  0  0  0  0  0  0  0
   16.4361    5.7989    5.9338 H   0  0  0  0  0  0  0  0  0  0  0  0
   17.1772    6.7840    6.9524 H   0  0  0  0  0  0  0  0  0  0  0  0
   15.6376    6.4101    7.1769 H   0  0  0  0  0  0  0  0  0  0  0  0
   18.0657    4.3286   11.2513 C   0  0  0  0  0  0  0  0  0  0  0  0
   18.2563    5.2860   11.3307 H   0  0  0  0  0  0  0  0  0  0  0  0
   18.8747    3.8157   11.4585 H   0  0  0  0  0  0  0  0  0  0  0  0
   17.3542    4.0844   11.8797 H   0  0  0  0  0  0  0  0  0  0  0  0
   12.4005    0.0843   11.8038 C   0  0  0  0  0  0  0  0  0  0  0  0
   12.3280   -0.5646   13.0278 C   0  0  0  0  0  0  0  0  0  0  0  0
   12.7216    0.0810   14.1623 F   0  0  0  0  0  0  0  0  0  0  0  0
   11.8714   -1.8374   13.2177 C   0  0  0  0  0  0  0  0  0  0  0  0
   11.7536   -2.3661   14.4470 F   0  0  0  0  0  0  0  0  0  0  0  0
   11.4963   -2.5967   12.1145 C   0  0  0  0  0  0  0  0  0  0  0  0
   11.0336   -3.8497   12.2595 F   0  0  0  0  0  0  0  0  0  0  0  0
   11.5839   -2.0241   10.8611 C   0  0  0  0  0  0  0  0  0  0  0  0
   11.2327   -2.7405    9.7755 F   0  0  0  0  0  0  0  0  0  0  0  0
   12.0317   -0.7172   10.7351 C   0  0  0  0  0  0  0  0  0  0  0  0
   12.0930   -0.2749    9.4746 F   0  0  0  0  0  0  0  0  0  0  0  0
   12.4303    2.4353   10.3190 C   0  0  0  0  0  0  0  0  0  0  0  0
   13.1248    3.4181    9.6302 C   0  0  0  0  0  0  0  0  0  0  0  0
   14.4497    3.6109    9.8736 F   0  0  0  0  0  0  0  0  0  0  0  0
   12.5792    4.2889    8.7151 C   0  0  0  0  0  0  0  0  0  0  0  0
   13.3223    5.2312    8.1333 F   0  0  0  0  0  0  0  0  0  0  0  0
   11.2388    4.1834    8.4268 C   0  0  0  0  0  0  0  0  0  0  0  0
   10.6397    5.0599    7.6016 F   0  0  0  0  0  0  0  0  0  0  0  0
   10.5093    3.2077    9.0121 C   0  0  0  0  0  0  0  0  0  0  0  0
    9.1854    3.1112    8.7272 F   0  0  0  0  0  0  0  0  0  0  0  0
   11.0989    2.3519    9.9081 C   0  0  0  0  0  0  0  0  0  0  0  0
   10.2508    1.4442   10.4525 F   0  0  0  0  0  0  0  0  0  0  0  0
   18.3528   -2.4926   13.6286 C   0  0  0  0  0  0  0  0  0  0  0  0
   18.6080   -3.6723   14.2881 C   0  0  0  0  0  0  0  0  0  0  0  0
   17.9259   -4.0568   14.8251 H   0  0  0  0  0  0  0  0  0  0  0  0
   19.8302   -4.3169   14.1914 C   0  0  0  0  0  0  0  0  0  0  0  0
   19.9865   -5.1312   14.6559 H   0  0  0  0  0  0  0  0  0  0  0  0
   20.8159   -3.7547   13.4076 C   0  0  0  0  0  0  0  0  0  0  0  0
   21.6548   -4.1952   13.3455 H   0  0  0  0  0  0  0  0  0  0  0  0
   20.6353   -2.5724   12.7032 C   0  0  0  0  0  0  0  0  0  0  0  0
   19.3750   -1.9620   12.8224 C   0  0  0  0  0  0  0  0  0  0  0  0
   15.6189   -2.9829   14.4504 C   0  0  0  0  0  0  0  0  0  0  0  0
   15.4938   -3.1987   15.8557 C   0  0  0  0  0  0  0  0  0  0  0  0
   14.5118   -4.0645   16.3064 C   0  0  0  0  0  0  0  0  0  0  0  0
   14.4062   -4.1808   17.2438 H   0  0  0  0  0  0  0  0  0  0  0  0
   13.6827   -4.7657   15.4569 C   0  0  0  0  0  0  0  0  0  0  0  0
   13.8670   -4.5926   14.0913 C   0  0  0  0  0  0  0  0  0  0  0  0
   13.3371   -5.0995   13.4871 H   0  0  0  0  0  0  0  0  0  0  0  0
   14.8030   -3.6982   13.5768 C   0  0  0  0  0  0  0  0  0  0  0  0
   16.4015   -2.5962   16.8985 C   0  0  0  0  0  0  0  0  0  0  0  0
   16.0614   -1.7156   17.1592 H   0  0  0  0  0  0  0  0  0  0  0  0
   17.3040   -2.5015   16.5291 H   0  0  0  0  0  0  0  0  0  0  0  0
   16.4308   -3.1806   17.6841 H   0  0  0  0  0  0  0  0  0  0  0  0
   12.6342   -5.6892   16.0025 C   0  0  0  0  0  0  0  0  0  0  0  0
   12.5945   -6.5012   15.4535 H   0  0  0  0  0  0  0  0  0  0  0  0
   11.7615   -5.2413   15.9835 H   0  0  0  0  0  0  0  0  0  0  0  0
   12.8583   -5.9291   16.9262 H   0  0  0  0  0  0  0  0  0  0  0  0
   14.9158   -3.5785   12.0662 C   0  0  0  0  0  0  0  0  0  0  0  0
   14.2792   -4.1886   11.6415 H   0  0  0  0  0  0  0  0  0  0  0  0
   15.8271   -3.8090   11.7865 H   0  0  0  0  0  0  0  0  0  0  0  0
   14.7151   -2.6575   11.7951 H   0  0  0  0  0  0  0  0  0  0  0  0
   13.0962    5.7140   15.2929 C   0  0  0  0  0  0  0  0  0  0  0  0
   13.7443    5.7734   16.5101 C   0  0  0  0  0  0  0  0  0  0  0  0
   13.7687    4.6746   17.3077 F   0  0  0  0  0  0  0  0  0  0  0  0
   14.3781    6.9031   16.9676 C   0  0  0  0  0  0  0  0  0  0  0  0
   14.9869    6.9095   18.1571 F   0  0  0  0  0  0  0  0  0  0  0  0
   14.3964    8.0303   16.1562 C   0  0  0  0  0  0  0  0  0  0  0  0
   15.0459    9.1167   16.5601 F   0  0  0  0  0  0  0  0  0  0  0  0
   13.7498    7.9956   14.9545 C   0  0  0  0  0  0  0  0  0  0  0  0
   13.7501    9.1028   14.1759 F   0  0  0  0  0  0  0  0  0  0  0  0
   13.1201    6.8540   14.5402 C   0  0  0  0  0  0  0  0  0  0  0  0
   12.4622    6.8884   13.3628 F   0  0  0  0  0  0  0  0  0  0  0  0
   11.1975    3.8620   15.6451 C   0  0  0  0  0  0  0  0  0  0  0  0
   10.0517    4.6535   15.7090 C   0  0  0  0  0  0  0  0  0  0  0  0
   10.0425    5.8615   15.0858 F   0  0  0  0  0  0  0  0  0  0  0  0
    8.9221    4.2709   16.3530 C   0  0  0  0  0  0  0  0  0  0  0  0
    7.8257    5.0519   16.3288 F   0  0  0  0  0  0  0  0  0  0  0  0
    8.9056    3.0710   17.0107 C   0  0  0  0  0  0  0  0  0  0  0  0
    7.8034    2.6790   17.6789 F   0  0  0  0  0  0  0  0  0  0  0  0
   10.0206    2.2589   17.0211 C   0  0  0  0  0  0  0  0  0  0  0  0
    9.9896    1.1072   17.6703 F   0  0  0  0  0  0  0  0  0  0  0  0
   11.1363    2.6659   16.3340 C   0  0  0  0  0  0  0  0  0  0  0  0
   12.1991    1.8599   16.3461 F   0  0  0  0  0  0  0  0  0  0  0  0
   12.5269    2.6180   12.8897 C   0  0  0  0  0  0  0  0  0  0  0  0
   13.1774    3.3949   13.7840 C   0  0  0  0  0  0  0  0  0  0  0  0
   14.6891    3.4522   13.9964 C   0  0  0  0  0  0  0  0  0  0  0  0
   15.2933    2.4158   14.6144 C   0  0  0  0  0  0  0  0  0  0  0  0
   14.7253    1.7235   14.9355 H   0  0  0  0  0  0  0  0  0  0  0  0
   11.0331    2.8615   12.8983 C   0  0  0  0  0  0  0  0  0  0  0  0
   10.1137    1.9245   13.3541 C   0  0  0  0  0  0  0  0  0  0  0  0
   10.4175    1.0718   13.6424 H   0  0  0  0  0  0  0  0  0  0  0  0
    8.7647    2.2171   13.3956 C   0  0  0  0  0  0  0  0  0  0  0  0
    8.1643    1.5708   13.7495 H   0  0  0  0  0  0  0  0  0  0  0  0
    8.2576    3.4164   12.9363 C   0  0  0  0  0  0  0  0  0  0  0  0
    9.1565    4.3346   12.4564 C   0  0  0  0  0  0  0  0  0  0  0  0
    8.8413    5.1664   12.1232 H   0  0  0  0  0  0  0  0  0  0  0  0
   10.5203    4.0721   12.4495 C   0  0  0  0  0  0  0  0  0  0  0  0
   11.1181    4.7374   12.1301 H   0  0  0  0  0  0  0  0  0  0  0  0
    6.7803    3.6842   12.9519 C   0  0  0  0  0  0  0  0  0  0  0  0
    6.3110    2.9109   13.3299 H   0  0  0  0  0  0  0  0  0  0  0  0
    6.5963    4.4779   13.4974 H   0  0  0  0  0  0  0  0  0  0  0  0
    6.4663    3.8401   12.0351 H   0  0  0  0  0  0  0  0  0  0  0  0
   15.3481    4.7244   13.6165 C   0  0  0  0  0  0  0  0  0  0  0  0
   14.9723    5.3968   12.4650 C   0  0  0  0  0  0  0  0  0  0  0  0
   14.3395    4.9920   11.8832 H   0  0  0  0  0  0  0  0  0  0  0  0
   15.4881    6.6406   12.1352 C   0  0  0  0  0  0  0  0  0  0  0  0
   15.2019    7.0769   11.3428 H   0  0  0  0  0  0  0  0  0  0  0  0
   16.4105    7.2378   12.9519 C   0  0  0  0  0  0  0  0  0  0  0  0
   16.8334    6.5840   14.1051 C   0  0  0  0  0  0  0  0  0  0  0  0
   17.4846    6.9883   14.6662 H   0  0  0  0  0  0  0  0  0  0  0  0
   16.3061    5.3462   14.4366 C   0  0  0  0  0  0  0  0  0  0  0  0
   16.5967    4.9099   15.2290 H   0  0  0  0  0  0  0  0  0  0  0  0
   16.9399    8.6407   12.6653 C   0  0  0  0  0  0  0  0  0  0  0  0
   16.3170    9.1107   12.0731 H   0  0  0  0  0  0  0  0  0  0  0  0
   17.8168    8.5759   12.2319 H   0  0  0  0  0  0  0  0  0  0  0  0
   17.0276    9.1357   13.5078 H   0  0  0  0  0  0  0  0  0  0  0  0
  1  2  1  0  0  0  0
  3 25  1  0  0  0  0
  4 13  1  0  0  0  0
  5114  1  0  0  0  0
  6 42  1  0  0  0  0
  7  1  1  0  0  0  0
  8  7  1  0  0  0  0
  9  7  1  0  0  0  0
 10  7  1  0  0  0  0
 11 10  1  0  0  0  0
 12 10  1  0  0  0  0
 13 10  1  0  0  0  0
 14 13  1  0  0  0  0
 15 13  1  0  0  0  0
 16 17  1  0  0  0  0
 17 18  1  0  0  0  0
 19 17  1  0  0  0  0
 20 17  1  0  0  0  0
 21 16  1  0  0  0  0
 22 21  1  0  0  0  0
 23 21  1  0  0  0  0
 24 21  1  0  0  0  0
 25 26  1  0  0  0  0
 27 25  1  0  0  0  0
 28 25  1  0  0  0  0
 29 28  1  0  0  0  0
 30 28  1  0  0  0  0
 31 28  1  0  0  0  0
 32 31  1  0  0  0  0
 33 31  1  0  0  0  0
 34  1  1  0  0  0  0
 35 34  4  0  0  0  0
 36 35  1  0  0  0  0
 37 35  4  0  0  0  0
 38 37  1  0  0  0  0
 39 37  4  0  0  0  0
 40 39  1  0  0  0  0
 41 16  1  0  0  0  0
 42 34  4  0  0  0  0
 43  1  1  0  0  0  0
 44 43  4  0  0  0  0
 45 44  4  0  0  0  0
 46 45  1  0  0  0  0
 47 45  4  0  0  0  0
 48 47  4  0  0  0  0
 49 48  1  0  0  0  0
 50 43  4  0  0  0  0
 51 44  1  0  0  0  0
 52 51  1  0  0  0  0
 53 51  1  0  0  0  0
 54 51  1  0  0  0  0
 55 47  1  0  0  0  0
 56 55  1  0  0  0  0
 57 55  1  0  0  0  0
 58 55  1  0  0  0  0
 59 50  1  0  0  0  0
 60 59  1  0  0  0  0
 61 59  1  0  0  0  0
 62 59  1  0  0  0  0
 63  4  1  0  0  0  0
 64 63  4  0  0  0  0
 65 64  1  0  0  0  0
 66 64  4  0  0  0  0
 67 66  1  0  0  0  0
 68 66  4  0  0  0  0
 69 68  1  0  0  0  0
 70 68  4  0  0  0  0
 71 70  1  0  0  0  0
 72 63  4  0  0  0  0
 73 72  1  0  0  0  0
 74  4  1  0  0  0  0
 75 74  4  0  0  0  0
 76 75  1  0  0  0  0
 77 75  4  0  0  0  0
 78 77  1  0  0  0  0
 79 77  4  0  0  0  0
 80 79  1  0  0  0  0
 81 79  4  0  0  0  0
 82 81  1  0  0  0  0
 83 74  4  0  0  0  0
 84 83  1  0  0  0  0
 85  3  1  0  0  0  0
 86 85  4  0  0  0  0
 87 86  1  0  0  0  0
 88 86  4  0  0  0  0
 89 88  1  0  0  0  0
 90 88  4  0  0  0  0
 91 90  1  0  0  0  0
 92 16  1  0  0  0  0
 93  6  1  0  0  0  0
 94  3  1  0  0  0  0
 95 94  4  0  0  0  0
 96 95  4  0  0  0  0
 97 96  1  0  0  0  0
 98 96  4  0  0  0  0
 99 98  4  0  0  0  0
100 99  1  0  0  0  0
101 94  4  0  0  0  0
102 95  1  0  0  0  0
103102  1  0  0  0  0
104102  1  0  0  0  0
105102  1  0  0  0  0
106 98  1  0  0  0  0
107106  1  0  0  0  0
108106  1  0  0  0  0
109106  1  0  0  0  0
110101  1  0  0  0  0
111110  1  0  0  0  0
112110  1  0  0  0  0
113110  1  0  0  0  0
114115  4  0  0  0  0
115116  1  0  0  0  0
117115  4  0  0  0  0
118117  1  0  0  0  0
119117  4  0  0  0  0
120119  1  0  0  0  0
121119  4  0  0  0  0
122121  1  0  0  0  0
123114  4  0  0  0  0
124123  1  0  0  0  0
125  5  1  0  0  0  0
126125  4  0  0  0  0
127126  1  0  0  0  0
128126  4  0  0  0  0
129128  1  0  0  0  0
130128  4  0  0  0  0
131130  1  0  0  0  0
132130  4  0  0  0  0
133132  1  0  0  0  0
134125  4  0  0  0  0
135134  1  0  0  0  0
136  4  1  0  0  0  0
137  5  1  0  0  0  0
138137  1  0  0  0  0
139 31  1  0  0  0  0
140139  1  0  0  0  0
141136  1  0  0  0  0
142141  4  0  0  0  0
143142  1  0  0  0  0
144142  4  0  0  0  0
145144  1  0  0  0  0
146144  4  0  0  0  0
147146  4  0  0  0  0
148147  1  0  0  0  0
149141  4  0  0  0  0
150149  1  0  0  0  0
151146  1  0  0  0  0
152151  1  0  0  0  0
153151  1  0  0  0  0
154151  1  0  0  0  0
155138  1  0  0  0  0
156155  4  0  0  0  0
157156  1  0  0  0  0
158156  4  0  0  0  0
159158  1  0  0  0  0
160158  4  0  0  0  0
161160  4  0  0  0  0
162161  1  0  0  0  0
163155  4  0  0  0  0
164163  1  0  0  0  0
165160  1  0  0  0  0
166165  1  0  0  0  0
167165  1  0  0  0  0
168165  1  0  0  0  0
 39 41  4  0  0  0  0
 41 42  4  0  0  0  0
 48 50  4  0  0  0  0
 70 72  4  0  0  0  0
 81 83  4  0  0  0  0
 85 93  4  0  0  0  0
 90 92  4  0  0  0  0
 92 93  4  0  0  0  0
 99101  4  0  0  0  0
121123  4  0  0  0  0
132134  4  0  0  0  0
136137  2  0  0  0  0
138139  2  0  0  0  0
147149  4  0  0  0  0
161163  4  0  0  0  0
M  CHG  2   1   1   4  -1
M  END
$$$$
MIWTAQ

From CSD data. Using bond type 'Any'. No disordered atoms. Largest molecule.
170181  0  0  0  0  0  0  0  0999 V2000
    5.5481   17.5905   12.9065 P   0  3  0  0  0  0  0  0  0  0  0  0
    6.1444   16.6507   12.1989 H   0  0  0  0  0  0  0  0  0  0  0  0
    9.5602   17.8296   11.1371 P   0  0  0  0  0  0  0  0  0  0  0  0
    4.0513   19.3509    8.4917 B   0  5  0  0  0  0  0  0  0  0  0  0
    5.5828   18.1841    4.7616 B   0  0  0  0  0  0  0  0  0  0  0  0
    8.3511   17.5355   13.7582 O   0  0  0  0  0  0  0  0  0  0  0  0
    0.1266   20.0015    3.2488 O   0  0  0  0  0  0  0  0  0  0  0  0
   10.7595   22.1218    5.8664 O   0  0  0  0  0  0  0  0  0  0  0  0
    5.9254   19.1571   12.1095 C   0  0  0  0  0  0  0  0  0  0  0  0
    5.9287   19.8692   12.7974 H   0  0  0  0  0  0  0  0  0  0  0  0
    6.8350   19.1075   11.7254 H   0  0  0  0  0  0  0  0  0  0  0  0
    4.9316   19.5554   10.9855 C   0  0  0  0  0  0  0  0  0  0  0  0
    4.0267   19.2564   11.2519 H   0  0  0  0  0  0  0  0  0  0  0  0
    4.9127   20.5421   10.9244 H   0  0  0  0  0  0  0  0  0  0  0  0
    5.2311   18.9936    9.5880 C   0  0  0  0  0  0  0  0  0  0  0  0
    5.3277   18.0108    9.6500 H   0  0  0  0  0  0  0  0  0  0  0  0
    6.0919   19.3624    9.2680 H   0  0  0  0  0  0  0  0  0  0  0  0
    9.5153   17.5948   16.4817 C   0  0  0  0  0  0  0  0  0  0  0  0
    9.7711   18.8083   17.3988 C   0  0  0  0  0  0  0  0  0  0  0  0
    9.4832   19.6287   16.9447 H   0  0  0  0  0  0  0  0  0  0  0  0
   10.7278   18.8670   17.6030 H   0  0  0  0  0  0  0  0  0  0  0  0
    9.2645   18.7009   18.2315 H   0  0  0  0  0  0  0  0  0  0  0  0
    9.9586   16.3002   17.1982 C   0  0  0  0  0  0  0  0  0  0  0  0
    9.4841   16.2212   18.0519 H   0  0  0  0  0  0  0  0  0  0  0  0
   10.9234   16.3329   17.3636 H   0  0  0  0  0  0  0  0  0  0  0  0
    9.7479   15.5254   16.6349 H   0  0  0  0  0  0  0  0  0  0  0  0
    8.9064   16.1127   10.8590 C   0  0  0  0  0  0  0  0  0  0  0  0
    9.6323   15.5311   10.5178 H   0  0  0  0  0  0  0  0  0  0  0  0
    8.5867   15.7344   11.7166 H   0  0  0  0  0  0  0  0  0  0  0  0
    7.7524   16.1436    9.8457 C   0  0  0  0  0  0  0  0  0  0  0  0
    7.3911   15.2276    9.7398 H   0  0  0  0  0  0  0  0  0  0  0  0
    7.0261   16.7166   10.2010 H   0  0  0  0  0  0  0  0  0  0  0  0
    8.1770   16.6742    8.4709 C   0  0  0  0  0  0  0  0  0  0  0  0
    8.7609   17.4668    8.5903 H   0  0  0  0  0  0  0  0  0  0  0  0
    8.6990   15.9778    7.9988 H   0  0  0  0  0  0  0  0  0  0  0  0
    6.1677   17.4763   14.6005 C   0  0  0  0  0  0  0  0  0  0  0  0
    5.2722   17.3700   15.6667 C   0  0  0  0  0  0  0  0  0  0  0  0
    4.3390   17.3150   15.4995 H   0  0  0  0  0  0  0  0  0  0  0  0
    5.7461   17.3465   16.9623 C   0  0  0  0  0  0  0  0  0  0  0  0
    5.1383   17.2778   17.6893 H   0  0  0  0  0  0  0  0  0  0  0  0
    7.1028   17.4233   17.2052 C   0  0  0  0  0  0  0  0  0  0  0  0
    7.4118   17.4181   18.1030 H   0  0  0  0  0  0  0  0  0  0  0  0
    8.0350   17.5092   16.1666 C   0  0  0  0  0  0  0  0  0  0  0  0
    7.5402   17.5155   14.8674 C   0  0  0  0  0  0  0  0  0  0  0  0
    3.8075   17.1793   12.9562 C   0  0  0  0  0  0  0  0  0  0  0  0
    2.8868   18.0549   13.5830 C   0  0  0  0  0  0  0  0  0  0  0  0
    1.6115   17.5742   13.8536 C   0  0  0  0  0  0  0  0  0  0  0  0
    0.9784   18.1597   14.2532 H   0  0  0  0  0  0  0  0  0  0  0  0
    1.2265   16.2756   13.5631 C   0  0  0  0  0  0  0  0  0  0  0  0
    2.1138   15.4610   12.8643 C   0  0  0  0  0  0  0  0  0  0  0  0
    1.8372   14.5891   12.6073 H   0  0  0  0  0  0  0  0  0  0  0  0
    3.3989   15.8914   12.5298 C   0  0  0  0  0  0  0  0  0  0  0  0
    3.2239   19.4703   13.9715 C   0  0  0  0  0  0  0  0  0  0  0  0
    2.5692   19.7948   14.6246 H   0  0  0  0  0  0  0  0  0  0  0  0
    3.1993   20.0410   13.1759 H   0  0  0  0  0  0  0  0  0  0  0  0
    4.1208   19.4970   14.3641 H   0  0  0  0  0  0  0  0  0  0  0  0
   -0.1382   15.7685   13.9663 C   0  0  0  0  0  0  0  0  0  0  0  0
   -0.3569   16.0952   14.8622 H   0  0  0  0  0  0  0  0  0  0  0  0
   -0.1351   14.7895   13.9663 H   0  0  0  0  0  0  0  0  0  0  0  0
   -0.8081   16.0924   13.3273 H   0  0  0  0  0  0  0  0  0  0  0  0
    4.2761   14.9645   11.7166 C   0  0  0  0  0  0  0  0  0  0  0  0
    3.7530   14.1882   11.4297 H   0  0  0  0  0  0  0  0  0  0  0  0
    5.0313   14.6635   12.2640 H   0  0  0  0  0  0  0  0  0  0  0  0
    4.6123   15.4395   10.9297 H   0  0  0  0  0  0  0  0  0  0  0  0
    3.7262   20.9845    8.3966 C   0  0  0  0  0  0  0  0  0  0  0  0
    2.4942   21.4962    7.9610 C   0  0  0  0  0  0  0  0  0  0  0  0
    1.4856   20.6472    7.6448 F   0  0  0  0  0  0  0  0  0  0  0  0
    2.1805   22.8274    7.8393 C   0  0  0  0  0  0  0  0  0  0  0  0
    0.9599   23.2039    7.3889 F   0  0  0  0  0  0  0  0  0  0  0  0
    3.0895   23.7798    8.1960 C   0  0  0  0  0  0  0  0  0  0  0  0
    2.8003   25.0952    8.1252 F   0  0  0  0  0  0  0  0  0  0  0  0
    4.3231   23.3623    8.6375 C   0  0  0  0  0  0  0  0  0  0  0  0
    5.2412   24.2863    9.0059 F   0  0  0  0  0  0  0  0  0  0  0  0
    4.6053   22.0211    8.7112 C   0  0  0  0  0  0  0  0  0  0  0  0
    5.8724   21.7390    9.1458 F   0  0  0  0  0  0  0  0  0  0  0  0
    2.7379   18.5056    9.0754 C   0  0  0  0  0  0  0  0  0  0  0  0
    1.7705   18.9904    9.9563 C   0  0  0  0  0  0  0  0  0  0  0  0
    1.7779   20.2907   10.3501 F   0  0  0  0  0  0  0  0  0  0  0  0
    0.7616   18.2296   10.5125 C   0  0  0  0  0  0  0  0  0  0  0  0
   -0.1439   18.7917   11.3411 F   0  0  0  0  0  0  0  0  0  0  0  0
    0.6825   16.8950   10.2256 C   0  0  0  0  0  0  0  0  0  0  0  0
   -0.2799   16.1199   10.7609 F   0  0  0  0  0  0  0  0  0  0  0  0
    1.6322   16.3369    9.3965 C   0  0  0  0  0  0  0  0  0  0  0  0
    1.5937   15.0137    9.1349 F   0  0  0  0  0  0  0  0  0  0  0  0
    2.6230   17.1352    8.8693 C   0  0  0  0  0  0  0  0  0  0  0  0
    3.5334   16.4858    8.0955 F   0  0  0  0  0  0  0  0  0  0  0  0
   10.4637   17.7500   12.7411 C   0  0  0  0  0  0  0  0  0  0  0  0
   11.8333   17.9917   12.8520 C   0  0  0  0  0  0  0  0  0  0  0  0
   12.3596   18.0796   12.0651 H   0  0  0  0  0  0  0  0  0  0  0  0
   12.4356   18.1062   14.1018 C   0  0  0  0  0  0  0  0  0  0  0  0
   13.3668   18.2829   14.1652 H   0  0  0  0  0  0  0  0  0  0  0  0
   11.6849   17.9659   15.2425 C   0  0  0  0  0  0  0  0  0  0  0  0
   12.1127   18.0252   16.0892 H   0  0  0  0  0  0  0  0  0  0  0  0
   10.3137   17.7405   15.1879 C   0  0  0  0  0  0  0  0  0  0  0  0
    9.7337   17.6664   13.9363 C   0  0  0  0  0  0  0  0  0  0  0  0
   10.9675   18.1257    9.9897 C   0  0  0  0  0  0  0  0  0  0  0  0
   11.9813   17.1936    9.6500 C   0  0  0  0  0  0  0  0  0  0  0  0
   13.0261   17.6188    8.8332 C   0  0  0  0  0  0  0  0  0  0  0  0
   13.6973   16.9915    8.5920 H   0  0  0  0  0  0  0  0  0  0  0  0
   13.1329   18.9011    8.3579 C   0  0  0  0  0  0  0  0  0  0  0  0
   12.1496   19.8099    8.7065 C   0  0  0  0  0  0  0  0  0  0  0  0
   12.2154   20.7053    8.3949 H   0  0  0  0  0  0  0  0  0  0  0  0
   11.0643   19.4443    9.5049 C   0  0  0  0  0  0  0  0  0  0  0  0
   12.0316   15.7777   10.1570 C   0  0  0  0  0  0  0  0  0  0  0  0
   11.4662   15.2104    9.5919 H   0  0  0  0  0  0  0  0  0  0  0  0
   11.7050   15.7488   11.0794 H   0  0  0  0  0  0  0  0  0  0  0  0
   12.9552   15.4510   10.1270 H   0  0  0  0  0  0  0  0  0  0  0  0
   14.2915   19.3137    7.4602 C   0  0  0  0  0  0  0  0  0  0  0  0
   15.0672   18.7439    7.6468 H   0  0  0  0  0  0  0  0  0  0  0  0
   14.5250   20.2500    7.6344 H   0  0  0  0  0  0  0  0  0  0  0  0
   14.0301   19.2135    6.5219 H   0  0  0  0  0  0  0  0  0  0  0  0
   10.0343   20.5109    9.8225 C   0  0  0  0  0  0  0  0  0  0  0  0
   10.2776   21.3439    9.3683 H   0  0  0  0  0  0  0  0  0  0  0  0
   10.0078   20.6624   10.7907 H   0  0  0  0  0  0  0  0  0  0  0  0
    9.1520   20.2157    9.5144 H   0  0  0  0  0  0  0  0  0  0  0  0
    6.9584   18.3928    3.9799 C   0  0  0  0  0  0  0  0  0  0  0  0
    7.7518   17.3039    3.6491 C   0  0  0  0  0  0  0  0  0  0  0  0
    7.3062   16.0488    3.9169 F   0  0  0  0  0  0  0  0  0  0  0  0
    9.0158   17.4267    3.1069 C   0  0  0  0  0  0  0  0  0  0  0  0
    9.7665   16.3358    2.8411 F   0  0  0  0  0  0  0  0  0  0  0  0
    9.5157   18.6757    2.8658 C   0  0  0  0  0  0  0  0  0  0  0  0
   10.7675   18.8249    2.3850 F   0  0  0  0  0  0  0  0  0  0  0  0
    8.7598   19.7870    3.1339 C   0  0  0  0  0  0  0  0  0  0  0  0
    9.2773   21.0065    2.9181 F   0  0  0  0  0  0  0  0  0  0  0  0
    7.5026   19.6229    3.6739 C   0  0  0  0  0  0  0  0  0  0  0  0
    6.7748   20.7334    3.9373 F   0  0  0  0  0  0  0  0  0  0  0  0
    4.4564   17.4851    3.8933 C   0  0  0  0  0  0  0  0  0  0  0  0
    3.9957   18.0776    2.7250 C   0  0  0  0  0  0  0  0  0  0  0  0
    4.4785   19.2770    2.3489 F   0  0  0  0  0  0  0  0  0  0  0  0
    3.0195   17.4986    1.9346 C   0  0  0  0  0  0  0  0  0  0  0  0
    2.5467   18.1383    0.8437 F   0  0  0  0  0  0  0  0  0  0  0  0
    2.5491   16.2582    2.2444 C   0  0  0  0  0  0  0  0  0  0  0  0
    1.6512   15.6571    1.4440 F   0  0  0  0  0  0  0  0  0  0  0  0
    2.9923   15.6170    3.3833 C   0  0  0  0  0  0  0  0  0  0  0  0
    2.5494   14.3829    3.6861 F   0  0  0  0  0  0  0  0  0  0  0  0
    3.9152   16.2550    4.1872 C   0  0  0  0  0  0  0  0  0  0  0  0
    4.3070   15.5973    5.3085 F   0  0  0  0  0  0  0  0  0  0  0  0
    4.3464   18.9180    6.8942 C   0  0  0  0  0  0  0  0  0  0  0  0
    5.5012   18.4996    6.2781 C   0  0  0  0  0  0  0  0  0  0  0  0
    6.8085   18.2156    6.9845 C   0  0  0  0  0  0  0  0  0  0  0  0
    6.9847   17.0559    7.6355 C   0  0  0  0  0  0  0  0  0  0  0  0
    6.2880   16.4131    7.5623 H   0  0  0  0  0  0  0  0  0  0  0  0
    3.2288   19.2012    5.9347 C   0  0  0  0  0  0  0  0  0  0  0  0
    2.0860   18.3988    5.8268 C   0  0  0  0  0  0  0  0  0  0  0  0
    1.9920   17.6415    6.3934 H   0  0  0  0  0  0  0  0  0  0  0  0
    1.0929   18.6883    4.9112 C   0  0  0  0  0  0  0  0  0  0  0  0
    0.3376   18.1168    4.8356 H   0  0  0  0  0  0  0  0  0  0  0  0
    1.1965   19.8088    4.1015 C   0  0  0  0  0  0  0  0  0  0  0  0
    2.3023   20.6329    4.1895 C   0  0  0  0  0  0  0  0  0  0  0  0
    2.3770   21.4069    3.6438 H   0  0  0  0  0  0  0  0  0  0  0  0
    3.3097   20.2976    5.0975 C   0  0  0  0  0  0  0  0  0  0  0  0
    4.0837   20.8456    5.1418 H   0  0  0  0  0  0  0  0  0  0  0  0
    0.1646   21.1775    2.4345 C   0  0  0  0  0  0  0  0  0  0  0  0
    0.2785   21.9652    3.0048 H   0  0  0  0  0  0  0  0  0  0  0  0
   -0.6742   21.2551    1.9346 H   0  0  0  0  0  0  0  0  0  0  0  0
    0.9139   21.1176    1.8078 H   0  0  0  0  0  0  0  0  0  0  0  0
    7.8838   19.2218    6.7784 C   0  0  0  0  0  0  0  0  0  0  0  0
    9.1863   18.8289    6.4179 C   0  0  0  0  0  0  0  0  0  0  0  0
    9.4021   17.9049    6.3899 H   0  0  0  0  0  0  0  0  0  0  0  0
   10.1613   19.7673    6.1023 C   0  0  0  0  0  0  0  0  0  0  0  0
   11.0270   19.4798    5.8372 H   0  0  0  0  0  0  0  0  0  0  0  0
    9.8739   21.1197    6.1734 C   0  0  0  0  0  0  0  0  0  0  0  0
    8.6043   21.5369    6.5705 C   0  0  0  0  0  0  0  0  0  0  0  0
    8.4100   22.4635    6.6557 H   0  0  0  0  0  0  0  0  0  0  0  0
    7.6239   20.5896    6.8391 C   0  0  0  0  0  0  0  0  0  0  0  0
    6.7494   20.8828    7.0711 H   0  0  0  0  0  0  0  0  0  0  0  0
   11.9863   21.7221    5.2369 C   0  0  0  0  0  0  0  0  0  0  0  0
   12.5106   21.1778    5.8601 H   0  0  0  0  0  0  0  0  0  0  0  0
   12.5004   22.5179    4.9887 H   0  0  0  0  0  0  0  0  0  0  0  0
   11.7859   21.1978    4.4342 H   0  0  0  0  0  0  0  0  0  0  0  0
  1  2  1  0  0  0  0
  3 27  1  0  0  0  0
  4 15  1  0  0  0  0
  5116  1  0  0  0  0
  6 44  1  0  0  0  0
  7148  1  0  0  0  0
  8162  1  0  0  0  0
  9  1  1  0  0  0  0
 10  9  1  0  0  0  0
 11  9  1  0  0  0  0
 12  9  1  0  0  0  0
 13 12  1  0  0  0  0
 14 12  1  0  0  0  0
 15 12  1  0  0  0  0
 16 15  1  0  0  0  0
 17 15  1  0  0  0  0
 18 19  1  0  0  0  0
 19 20  1  0  0  0  0
 21 19  1  0  0  0  0
 22 19  1  0  0  0  0
 23 18  1  0  0  0  0
 24 23  1  0  0  0  0
 25 23  1  0  0  0  0
 26 23  1  0  0  0  0
 27 28  1  0  0  0  0
 29 27  1  0  0  0  0
 30 27  1  0  0  0  0
 31 30  1  0  0  0  0
 32 30  1  0  0  0  0
 33 30  1  0  0  0  0
 34 33  1  0  0  0  0
 35 33  1  0  0  0  0
 36  1  1  0  0  0  0
 37 36  4  0  0  0  0
 38 37  1  0  0  0  0
 39 37  4  0  0  0  0
 40 39  1  0  0  0  0
 41 39  4  0  0  0  0
 42 41  1  0  0  0  0
 43 18  1  0  0  0  0
 44 36  4  0  0  0  0
 45  1  1  0  0  0  0
 46 45  4  0  0  0  0
 47 46  4  0  0  0  0
 48 47  1  0  0  0  0
 49 47  4  0  0  0  0
 50 49  4  0  0  0  0
 51 50  1  0  0  0  0
 52 45  4  0  0  0  0
 53 46  1  0  0  0  0
 54 53  1  0  0  0  0
 55 53  1  0  0  0  0
 56 53  1  0  0  0  0
 57 49  1  0  0  0  0
 58 57  1  0  0  0  0
 59 57  1  0  0  0  0
 60 57  1  0  0  0  0
 61 52  1  0  0  0  0
 62 61  1  0  0  0  0
 63 61  1  0  0  0  0
 64 61  1  0  0  0  0
 65  4  1  0  0  0  0
 66 65  4  0  0  0  0
 67 66  1  0  0  0  0
 68 66  4  0  0  0  0
 69 68  1  0  0  0  0
 70 68  4  0  0  0  0
 71 70  1  0  0  0  0
 72 70  4  0  0  0  0
 73 72  1  0  0  0  0
 74 65  4  0  0  0  0
 75 74  1  0  0  0  0
 76  4  1  0  0  0  0
 77 76  4  0  0  0  0
 78 77  1  0  0  0  0
 79 77  4  0  0  0  0
 80 79  1  0  0  0  0
 81 79  4  0  0  0  0
 82 81  1  0  0  0  0
 83 81  4  0  0  0  0
 84 83  1  0  0  0  0
 85 76  4  0  0  0  0
 86 85  1  0  0  0  0
 87  3  1  0  0  0  0
 88 87  4  0  0  0  0
 89 88  1  0  0  0  0
 90 88  4  0  0  0  0
 91 90  1  0  0  0  0
 92 90  4  0  0  0  0
 93 92  1  0  0  0  0
 94 18  1  0  0  0  0
 95  6  1  0  0  0  0
 96  3  1  0  0  0  0
 97 96  4  0  0  0  0
 98 97  4  0  0  0  0
 99 98  1  0  0  0  0
100 98  4  0  0  0  0
101100  4  0  0  0  0
102101  1  0  0  0  0
103 96  4  0  0  0  0
104 97  1  0  0  0  0
105104  1  0  0  0  0
106104  1  0  0  0  0
107104  1  0  0  0  0
108100  1  0  0  0  0
109108  1  0  0  0  0
110108  1  0  0  0  0
111108  1  0  0  0  0
112103  1  0  0  0  0
113112  1  0  0  0  0
114112  1  0  0  0  0
115112  1  0  0  0  0
116117  4  0  0  0  0
117118  1  0  0  0  0
119117  4  0  0  0  0
120119  1  0  0  0  0
121119  4  0  0  0  0
122121  1  0  0  0  0
123121  4  0  0  0  0
124123  1  0  0  0  0
125116  4  0  0  0  0
126125  1  0  0  0  0
127  5  1  0  0  0  0
128127  4  0  0  0  0
129128  1  0  0  0  0
130128  4  0  0  0  0
131130  1  0  0  0  0
132130  4  0  0  0  0
133132  1  0  0  0  0
134132  4  0  0  0  0
135134  1  0  0  0  0
136127  4  0  0  0  0
137136  1  0  0  0  0
138  4  1  0  0  0  0
139  5  1  0  0  0  0
140139  1  0  0  0  0
141 33  1  0  0  0  0
142141  1  0  0  0  0
143138  1  0  0  0  0
144143  4  0  0  0  0
145144  1  0  0  0  0
146144  4  0  0  0  0
147146  1  0  0  0  0
148146  4  0  0  0  0
149148  4  0  0  0  0
150149  1  0  0  0  0
151143  4  0  0  0  0
152151  1  0  0  0  0
153  7  1  0  0  0  0
154153  1  0  0  0  0
155153  1  0  0  0  0
156153  1  0  0  0  0
157140  1  0  0  0  0
158157  4  0  0  0  0
159158  1  0  0  0  0
160158  4  0  0  0  0
161160  1  0  0  0  0
162160  4  0  0  0  0
163162  4  0  0  0  0
164163  1  0  0  0  0
165157  4  0  0  0  0
166165  1  0  0  0  0
167  8  1  0  0  0  0
168167  1  0  0  0  0
169167  1  0  0  0  0
170167  1  0  0  0  0
 41 43  4  0  0  0  0
 43 44  4  0  0  0  0
 50 52  4  0  0  0  0
 72 74  4  0  0  0  0
 83 85  4  0  0  0  0
 87 95  4  0  0  0  0
 92 94  4  0  0  0  0
 94 95  4  0  0  0  0
101103  4  0  0  0  0
123125  4  0  0  0  0
134136  4  0  0  0  0
138139  2  0  0  0  0
140141  2  0  0  0  0
149151  4  0  0  0  0
163165  4  0  0  0  0
M  CHG  2   1   1   4  -1
M  END
$$$$
MOBNAT

From CSD data. Using bond type 'Any'. No disordered atoms. Largest molecule.
 87105  0  0  0  0  0  0  0  0999 V2000
   14.2103   10.7174   13.4831 Pt  0  0  0  0  0  0  0  0  0  0  0  0
   12.1920    9.7103   10.3273 I   0  0  0  0  0  0  0  0  0  0  0  0
   13.3422   17.0164   10.6155 I   0  0  0  0  0  0  0  0  0  0  0  0
   15.9652   11.4505   14.7642 P   0  0  0  0  0  0  0  0  0  0  0  0
   15.8474    9.8215   12.1632 P   0  0  0  0  0  0  0  0  0  0  0  0
   12.0908   12.6457   12.6934 O   0  0  0  0  0  0  0  0  0  0  0  0
   12.1332    8.4937   15.1756 C   0  0  0  0  0  0  0  0  0  0  0  0
   16.3021   13.2310   14.7363 C   0  0  0  0  0  0  0  0  0  0  0  0
   15.3908   14.0924   14.1360 C   0  0  0  0  0  0  0  0  0  0  0  0
   14.5771   13.7515   13.7850 H   0  0  0  0  0  0  0  0  0  0  0  0
   15.6703   15.4531   14.0513 C   0  0  0  0  0  0  0  0  0  0  0  0
   15.0446   16.0423   13.6460 H   0  0  0  0  0  0  0  0  0  0  0  0
   16.8626   15.9457   14.5566 C   0  0  0  0  0  0  0  0  0  0  0  0
   17.0532   16.8741   14.4905 H   0  0  0  0  0  0  0  0  0  0  0  0
   17.7838   15.0969   15.1603 C   0  0  0  0  0  0  0  0  0  0  0  0
   18.5956   15.4443   15.5113 H   0  0  0  0  0  0  0  0  0  0  0  0
   17.5084   13.7352   15.2468 C   0  0  0  0  0  0  0  0  0  0  0  0
   18.1363   13.1480   15.6504 H   0  0  0  0  0  0  0  0  0  0  0  0
   15.7964   10.9646   16.5101 C   0  0  0  0  0  0  0  0  0  0  0  0
   15.5196   11.8973   17.5056 C   0  0  0  0  0  0  0  0  0  0  0  0
   15.5292   12.8251   17.3021 H   0  0  0  0  0  0  0  0  0  0  0  0
   15.2266   11.4731   18.8011 C   0  0  0  0  0  0  0  0  0  0  0  0
   15.0443   12.1114   19.4811 H   0  0  0  0  0  0  0  0  0  0  0  0
   15.2047   10.1164   19.0945 C   0  0  0  0  0  0  0  0  0  0  0  0
   15.0170    9.8261   19.9797 H   0  0  0  0  0  0  0  0  0  0  0  0
   15.4554    9.1861   18.1008 C   0  0  0  0  0  0  0  0  0  0  0  0
   15.4220    8.2594   18.3043 H   0  0  0  0  0  0  0  0  0  0  0  0
   15.7553    9.5972   16.8137 C   0  0  0  0  0  0  0  0  0  0  0  0
   15.9332    8.9542   16.1388 H   0  0  0  0  0  0  0  0  0  0  0  0
   15.6241    8.2806   11.2464 C   0  0  0  0  0  0  0  0  0  0  0  0
   15.0400    7.2045   11.9213 C   0  0  0  0  0  0  0  0  0  0  0  0
   14.7851    7.2978   12.8303 H   0  0  0  0  0  0  0  0  0  0  0  0
   14.8301    5.9942   11.2617 C   0  0  0  0  0  0  0  0  0  0  0  0
   14.4313    5.2649   11.7196 H   0  0  0  0  0  0  0  0  0  0  0  0
   15.2036    5.8592    9.9373 C   0  0  0  0  0  0  0  0  0  0  0  0
   15.0582    5.0354    9.4862 H   0  0  0  0  0  0  0  0  0  0  0  0
   15.7860    6.9149    9.2658 C   0  0  0  0  0  0  0  0  0  0  0  0
   16.0430    6.8129    8.3568 H   0  0  0  0  0  0  0  0  0  0  0  0
   16.0000    8.1279    9.9135 C   0  0  0  0  0  0  0  0  0  0  0  0
   16.4035    8.8520    9.4489 H   0  0  0  0  0  0  0  0  0  0  0  0
   16.4937   11.0833   11.0243 C   0  0  0  0  0  0  0  0  0  0  0  0
   15.6930   12.2015   10.7835 C   0  0  0  0  0  0  0  0  0  0  0  0
   14.8324   12.2655   11.1786 H   0  0  0  0  0  0  0  0  0  0  0  0
   16.1621   13.2277    9.9559 C   0  0  0  0  0  0  0  0  0  0  0  0
   15.6211   13.9891    9.7898 H   0  0  0  0  0  0  0  0  0  0  0  0
   17.4128   13.1294    9.3862 C   0  0  0  0  0  0  0  0  0  0  0  0
   17.7266   13.8237    8.8181 H   0  0  0  0  0  0  0  0  0  0  0  0
   18.2197   12.0253    9.6337 C   0  0  0  0  0  0  0  0  0  0  0  0
   19.0827   11.9694    9.2420 H   0  0  0  0  0  0  0  0  0  0  0  0
   17.7635   10.9999   10.4596 C   0  0  0  0  0  0  0  0  0  0  0  0
   18.3160   10.2475   10.6359 H   0  0  0  0  0  0  0  0  0  0  0  0
   17.2477    9.4397   13.2898 C   0  0  0  0  0  0  0  0  0  0  0  0
   17.0172    8.6664   13.8630 H   0  0  0  0  0  0  0  0  0  0  0  0
   18.0523    9.2074   12.7625 H   0  0  0  0  0  0  0  0  0  0  0  0
   17.5326   10.6690   14.1632 C   0  0  0  0  0  0  0  0  0  0  0  0
   18.0478   11.3309   13.6375 H   0  0  0  0  0  0  0  0  0  0  0  0
   18.0834   10.3995   14.9398 H   0  0  0  0  0  0  0  0  0  0  0  0
   10.8617   13.0578   12.0926 C   0  0  0  0  0  0  0  0  0  0  0  0
   10.1727   13.1917   12.7913 H   0  0  0  0  0  0  0  0  0  0  0  0
   10.5409   12.3607   11.4686 H   0  0  0  0  0  0  0  0  0  0  0  0
   11.0980   14.3571   11.3414 C   0  0  0  0  0  0  0  0  0  0  0  0
   10.2360   14.6785   10.9751 H   0  0  0  0  0  0  0  0  0  0  0  0
   11.4301   15.0414   11.9756 H   0  0  0  0  0  0  0  0  0  0  0  0
   12.0866   14.2146   10.2137 C   0  0  0  0  0  0  0  0  0  0  0  0
   11.7504   13.5265    9.5846 H   0  0  0  0  0  0  0  0  0  0  0  0
   12.9435   13.8862   10.5851 H   0  0  0  0  0  0  0  0  0  0  0  0
   12.3522   15.5010    9.4336 C   0  0  0  0  0  0  0  0  0  0  0  0
   11.4912   15.8613    9.1030 H   0  0  0  0  0  0  0  0  0  0  0  0
   12.9142   15.2893    8.6468 H   0  0  0  0  0  0  0  0  0  0  0  0
   11.0951   11.1018   14.8279 B   0  0  0  0  0  0  0  0  0  0  0  0
   10.3396   11.8461   15.1874 H   0  0  0  0  0  0  0  0  0  0  0  0
   10.7806    9.4000   14.8805 B   0  0  0  0  0  0  0  0  0  0  0  0
    9.7912    9.0539   15.2739 H   0  0  0  0  0  0  0  0  0  0  0  0
   10.8622   10.1716   13.3187 B   0  0  0  0  0  0  0  0  0  0  0  0
    9.9565   10.3043   12.6743 H   0  0  0  0  0  0  0  0  0  0  0  0
   12.1422   11.4355   13.4086 B   0  0  0  0  0  0  0  0  0  0  0  0
   11.9795   10.0466   15.9794 B   0  0  0  0  0  0  0  0  0  0  0  0
   12.2910   10.0047   17.0545 H   0  0  0  0  0  0  0  0  0  0  0  0
   11.5797    8.5337   13.5476 B   0  0  0  0  0  0  0  0  0  0  0  0
   11.6150    7.5289   13.0524 H   0  0  0  0  0  0  0  0  0  0  0  0
   12.4310    9.8614   12.5234 B   0  0  0  0  0  0  0  0  0  0  0  0
   12.8165   11.4501   15.0755 B   0  0  0  0  0  0  0  0  0  0  0  0
   13.4219   12.1143   15.7453 H   0  0  0  0  0  0  0  0  0  0  0  0
   11.8703    7.6169   15.6182 H   0  0  0  0  0  0  0  0  0  0  0  0
   13.0909    8.4846   15.0246 H   0  0  0  0  0  0  0  0  0  0  0  0
   12.6975    8.7064   12.9388 H   0  0  0  0  0  0  0  0  0  0  0  0
   13.1626   10.4655   15.6690 H   0  0  0  0  0  0  0  0  0  0  0  0
  1  4  1  0  0  0  0
  2 81  1  0  0  0  0
  3 67  1  0  0  0  0
  4  8  1  0  0  0  0
  5  1  1  0  0  0  0
  6 58  1  0  0  0  0
  7 72  1  0  0  0  0
  8  9  4  0  0  0  0
  9 10  1  0  0  0  0
 11  9  4  0  0  0  0
 12 11  1  0  0  0  0
 13 11  4  0  0  0  0
 14 13  1  0  0  0  0
 15 13  4  0  0  0  0
 16 15  1  0  0  0  0
 17  8  4  0  0  0  0
 18 17  1  0  0  0  0
 19  4  1  0  0  0  0
 20 19  4  0  0  0  0
 21 20  1  0  0  0  0
 22 20  4  0  0  0  0
 23 22  1  0  0  0  0
 24 22  4  0  0  0  0
 25 24  1  0  0  0  0
 26 24  4  0  0  0  0
 27 26  1  0  0  0  0
 28 19  4  0  0  0  0
 29 28  1  0  0  0  0
 30  5  1  0  0  0  0
 31 30  4  0  0  0  0
 32 31  1  0  0  0  0
 33 31  4  0  0  0  0
 34 33  1  0  0  0  0
 35 33  4  0  0  0  0
 36 35  1  0  0  0  0
 37 35  4  0  0  0  0
 38 37  1  0  0  0  0
 39 30  4  0  0  0  0
 40 39  1  0  0  0  0
 41  5  1  0  0  0  0
 42 41  4  0  0  0  0
 43 42  1  0  0  0  0
 44 42  4  0  0  0  0
 45 44  1  0  0  0  0
 46 44  4  0  0  0  0
 47 46  1  0  0  0  0
 48 46  4  0  0  0  0
 49 48  1  0  0  0  0
 50 41  4  0  0  0  0
 51 50  1  0  0  0  0
 52  5  1  0  0  0  0
 53 52  1  0  0  0  0
 54 52  1  0  0  0  0
 55  4  1  0  0  0  0
 56 55  1  0  0  0  0
 57 55  1  0  0  0  0
 58 59  1  0  0  0  0
 60 58  1  0  0  0  0
 61 58  1  0  0  0  0
 62 61  1  0  0  0  0
 63 61  1  0  0  0  0
 64 61  1  0  0  0  0
 65 64  1  0  0  0  0
 66 64  1  0  0  0  0
 67 64  1  0  0  0  0
 68 67  1  0  0  0  0
 69 67  1  0  0  0  0
 70 71  1  0  0  0  0
 72 70  1  0  0  0  0
 73 72  1  0  0  0  0
 74 70  1  0  0  0  0
 75 74  1  0  0  0  0
 76  1  1  0  0  0  0
 77  7  1  0  0  0  0
 78 77  1  0  0  0  0
 79  7  1  0  0  0  0
 80 79  1  0  0  0  0
 81  1  1  0  0  0  0
 82  1  1  0  0  0  0
 83 82  1  0  0  0  0
 84  7  1  0  0  0  0
 85  7  1  0  0  0  0
 86 79  1  0  0  0  0
 87 77  1  0  0  0  0
  6 76  1  0  0  0  0
 15 17  4  0  0  0  0
 26 28  4  0  0  0  0
 37 39  4  0  0  0  0
 48 50  4  0  0  0  0
 52 55  1  0  0  0  0
 70 76  1  0  0  0  0
 70 77  1  0  0  0  0
 70 82  1  0  0  0  0
 72 74  1  0  0  0  0
 72 77  1  0  0  0  0
 72 79  1  0  0  0  0
 74 76  1  0  0  0  0
 74 79  1  0  0  0  0
 74 81  1  0  0  0  0
 76 81  1  0  0  0  0
 76 82  1  0  0  0  0
 77 82  1  0  0  0  0
 79 81  1  0  0  0  0
 81 86  1  0  0  0  0
 82 87  1  0  0  0  0
M  END
$$$$
MOWJUG

From CSD data. Using bond type 'Any'. No disordered atoms. Largest molecule.
207218  0  0  0  0  0  0  0  0999 V2000
   15.6691    8.8139   19.3597 W   0  0  0  0  0  0  0  0  0  0  0  0
   16.0296   11.2115   19.3511 P   0  0  0  0  0  0  0  0  0  0  0  0
   13.6952    9.0705   20.7763 P   0  0  0  0  0  0  0  0  0  0  0  0
   14.2013    9.0843   17.4412 P   0  0  0  0  0  0  0  0  0  0  0  0
   18.6029   10.0141   19.7680 O   0  0  0  0  0  0  0  0  0  0  0  0
   15.2155    6.9180   21.8677 O   0  0  0  0  0  0  0  0  0  0  0  0
   16.0238    6.9660   16.7876 O   0  0  0  0  0  0  0  0  0  0  0  0
   17.9211    6.6512   19.7447 O   0  0  0  0  0  0  0  0  0  0  0  0
   19.4863   11.0396   20.1141 B   0  0  0  0  0  0  0  0  0  0  0  0
   14.3914    6.1659   22.7123 B   0  0  0  0  0  0  0  0  0  0  0  0
   15.9053    6.7241   15.4239 B   0  0  0  0  0  0  0  0  0  0  0  0
   20.8934   10.7927   20.2225 N   0  0  0  0  0  0  0  0  0  0  0  0
   19.3124   12.4079   20.4653 N   0  0  0  0  0  0  0  0  0  0  0  0
   14.9685    5.1421   23.5387 N   0  0  0  0  0  0  0  0  0  0  0  0
   12.9882    6.1377   22.9576 N   0  0  0  0  0  0  0  0  0  0  0  0
   16.4468    5.5397   14.8634 N   0  0  0  0  0  0  0  0  0  0  0  0
   15.3638    7.4746   14.3546 N   0  0  0  0  0  0  0  0  0  0  0  0
   17.2590   10.1135   19.5769 C   0  0  0  0  0  0  0  0  0  0  0  0
   14.8677    7.9053   21.0413 C   0  0  0  0  0  0  0  0  0  0  0  0
   15.4389    7.9517   17.5030 C   0  0  0  0  0  0  0  0  0  0  0  0
   17.1464    7.4133   19.6027 C   0  0  0  0  0  0  0  0  0  0  0  0
   21.5397   11.9805   20.6229 C   0  0  0  0  0  0  0  0  0  0  0  0
   22.4722   12.0882   20.7655 H   0  0  0  0  0  0  0  0  0  0  0  0
   20.6345   12.9016   20.7649 C   0  0  0  0  0  0  0  0  0  0  0  0
   20.8216   13.7937   21.0324 H   0  0  0  0  0  0  0  0  0  0  0  0
   21.6682    9.6364   19.8661 C   0  0  0  0  0  0  0  0  0  0  0  0
   22.3638    9.6480   18.6781 C   0  0  0  0  0  0  0  0  0  0  0  0
   23.0950    8.5166   18.2933 C   0  0  0  0  0  0  0  0  0  0  0  0
   23.5588    8.4961   17.4647 H   0  0  0  0  0  0  0  0  0  0  0  0
   23.1267    7.4729   19.1197 C   0  0  0  0  0  0  0  0  0  0  0  0
   23.6532    6.7190   18.8807 H   0  0  0  0  0  0  0  0  0  0  0  0
   22.4330    7.4414   20.2949 C   0  0  0  0  0  0  0  0  0  0  0  0
   22.4699    6.6613   20.8366 H   0  0  0  0  0  0  0  0  0  0  0  0
   21.6602    8.5431   20.7262 C   0  0  0  0  0  0  0  0  0  0  0  0
   22.3045   10.8375   17.7070 C   0  0  0  0  0  0  0  0  0  0  0  0
   21.9951   11.6325   18.2280 H   0  0  0  0  0  0  0  0  0  0  0  0
   21.3045   10.5956   16.6248 C   0  0  0  0  0  0  0  0  0  0  0  0
   21.5239   11.1523   15.8485 H   0  0  0  0  0  0  0  0  0  0  0  0
   20.4099   10.8255   16.9499 H   0  0  0  0  0  0  0  0  0  0  0  0
   21.3264    9.6508   16.3657 H   0  0  0  0  0  0  0  0  0  0  0  0
   23.6504   11.1738   17.1285 C   0  0  0  0  0  0  0  0  0  0  0  0
   24.0203   10.3851   16.6811 H   0  0  0  0  0  0  0  0  0  0  0  0
   24.2535   11.4557   17.8475 H   0  0  0  0  0  0  0  0  0  0  0  0
   23.5532   11.9024   16.4796 H   0  0  0  0  0  0  0  0  0  0  0  0
   20.9191    8.5597   22.0278 C   0  0  0  0  0  0  0  0  0  0  0  0
   20.0355    9.0143   21.9106 H   0  0  0  0  0  0  0  0  0  0  0  0
   20.7037    7.1018   22.5521 C   0  0  0  0  0  0  0  0  0  0  0  0
   20.3355    6.5468   21.8332 H   0  0  0  0  0  0  0  0  0  0  0  0
   20.0780    7.1149   23.3070 H   0  0  0  0  0  0  0  0  0  0  0  0
   21.5612    6.7298   22.8457 H   0  0  0  0  0  0  0  0  0  0  0  0
   21.7749    9.3316   23.0609 C   0  0  0  0  0  0  0  0  0  0  0  0
   22.6390    8.8809   23.1713 H   0  0  0  0  0  0  0  0  0  0  0  0
   21.3072    9.3530   23.9225 H   0  0  0  0  0  0  0  0  0  0  0  0
   21.9223   10.2472   22.7465 H   0  0  0  0  0  0  0  0  0  0  0  0
   18.1464   13.2478   20.5402 C   0  0  0  0  0  0  0  0  0  0  0  0
   17.9369   14.1490   19.4761 C   0  0  0  0  0  0  0  0  0  0  0  0
   16.7966   14.9955   19.6053 C   0  0  0  0  0  0  0  0  0  0  0  0
   16.5983   15.6226   18.9193 H   0  0  0  0  0  0  0  0  0  0  0  0
   16.0140   14.9177   20.6616 C   0  0  0  0  0  0  0  0  0  0  0  0
   15.2759   15.5133   20.7248 H   0  0  0  0  0  0  0  0  0  0  0  0
   16.2215   14.0082   21.6843 C   0  0  0  0  0  0  0  0  0  0  0  0
   15.6275   13.9749   22.4253 H   0  0  0  0  0  0  0  0  0  0  0  0
   17.3223   13.1286   21.6120 C   0  0  0  0  0  0  0  0  0  0  0  0
   18.8144   14.1706   18.2752 C   0  0  0  0  0  0  0  0  0  0  0  0
   19.3011   13.2976   18.2617 H   0  0  0  0  0  0  0  0  0  0  0  0
   18.0061   14.2550   16.9373 C   0  0  0  0  0  0  0  0  0  0  0  0
   17.2789   13.5996   16.9507 H   0  0  0  0  0  0  0  0  0  0  0  0
   18.6035   14.0650   16.1827 H   0  0  0  0  0  0  0  0  0  0  0  0
   17.6327   15.1562   16.8368 H   0  0  0  0  0  0  0  0  0  0  0  0
   19.8994   15.2904   18.2494 C   0  0  0  0  0  0  0  0  0  0  0  0
   19.4641   16.1654   18.1846 H   0  0  0  0  0  0  0  0  0  0  0  0
   20.4851   15.1581   17.4747 H   0  0  0  0  0  0  0  0  0  0  0  0
   20.4307   15.2489   19.0715 H   0  0  0  0  0  0  0  0  0  0  0  0
   17.5001   12.0451   22.6529 C   0  0  0  0  0  0  0  0  0  0  0  0
   17.7580   11.2281   22.1376 H   0  0  0  0  0  0  0  0  0  0  0  0
   16.2274   11.6608   23.4070 C   0  0  0  0  0  0  0  0  0  0  0  0
   15.9464   12.4065   23.9756 H   0  0  0  0  0  0  0  0  0  0  0  0
   16.4033   10.8729   23.9626 H   0  0  0  0  0  0  0  0  0  0  0  0
   15.5174   11.4540   22.7633 H   0  0  0  0  0  0  0  0  0  0  0  0
   18.7096   12.3234   23.6110 C   0  0  0  0  0  0  0  0  0  0  0  0
   19.5270   12.4364   23.0810 H   0  0  0  0  0  0  0  0  0  0  0  0
   18.8203   11.5683   24.2248 H   0  0  0  0  0  0  0  0  0  0  0  0
   18.5386   13.1404   24.1243 H   0  0  0  0  0  0  0  0  0  0  0  0
   13.9171    4.4695   24.1612 C   0  0  0  0  0  0  0  0  0  0  0  0
   14.0188    3.7264   24.7438 H   0  0  0  0  0  0  0  0  0  0  0  0
   12.7491    5.0178   23.8177 C   0  0  0  0  0  0  0  0  0  0  0  0
   11.8941    4.7125   24.0983 H   0  0  0  0  0  0  0  0  0  0  0  0
   16.3440    4.7809   23.7867 C   0  0  0  0  0  0  0  0  0  0  0  0
   17.1404    5.6159   24.5563 C   0  0  0  0  0  0  0  0  0  0  0  0
   18.4428    5.1189   24.8301 C   0  0  0  0  0  0  0  0  0  0  0  0
   19.0537    5.6541   25.3205 H   0  0  0  0  0  0  0  0  0  0  0  0
   18.8262    3.8831   24.3962 C   0  0  0  0  0  0  0  0  0  0  0  0
   19.6867    3.5578   24.6389 H   0  0  0  0  0  0  0  0  0  0  0  0
   18.0337    3.1161   23.6446 C   0  0  0  0  0  0  0  0  0  0  0  0
   18.3438    2.2688   23.3463 H   0  0  0  0  0  0  0  0  0  0  0  0
   16.7669    3.5418   23.2985 C   0  0  0  0  0  0  0  0  0  0  0  0
   16.5831    6.9262   25.0961 C   0  0  0  0  0  0  0  0  0  0  0  0
   15.8247    7.2106   24.5086 H   0  0  0  0  0  0  0  0  0  0  0  0
   17.5456    7.9914   25.1348 C   0  0  0  0  0  0  0  0  0  0  0  0
   17.9066    8.1385   24.2356 H   0  0  0  0  0  0  0  0  0  0  0  0
   17.1122    8.8115   25.4510 H   0  0  0  0  0  0  0  0  0  0  0  0
   18.2740    7.7507   25.7441 H   0  0  0  0  0  0  0  0  0  0  0  0
   16.0673    6.7407   26.4288 C   0  0  0  0  0  0  0  0  0  0  0  0
   15.4162    6.0172   26.4287 H   0  0  0  0  0  0  0  0  0  0  0  0
   16.8160    6.5090   27.0286 H   0  0  0  0  0  0  0  0  0  0  0  0
   15.6543    7.5698   26.7354 H   0  0  0  0  0  0  0  0  0  0  0  0
   15.9053    2.6605   22.4101 C   0  0  0  0  0  0  0  0  0  0  0  0
   15.0159    3.1115   22.3426 H   0  0  0  0  0  0  0  0  0  0  0  0
   16.4191    2.5147   20.9948 C   0  0  0  0  0  0  0  0  0  0  0  0
   16.3422    3.3744   20.5308 H   0  0  0  0  0  0  0  0  0  0  0  0
   15.8914    1.8389   20.5236 H   0  0  0  0  0  0  0  0  0  0  0  0
   17.3601    2.2393   21.0171 H   0  0  0  0  0  0  0  0  0  0  0  0
   15.6503    1.3054   23.0583 C   0  0  0  0  0  0  0  0  0  0  0  0
   16.4956    0.8125   23.1274 H   0  0  0  0  0  0  0  0  0  0  0  0
   15.0188    0.7948   22.5111 H   0  0  0  0  0  0  0  0  0  0  0  0
   15.2759    1.4369   23.9542 H   0  0  0  0  0  0  0  0  0  0  0  0
   11.8598    6.9163   22.5392 C   0  0  0  0  0  0  0  0  0  0  0  0
   11.5594    8.0925   23.3089 C   0  0  0  0  0  0  0  0  0  0  0  0
   10.4230    8.7916   22.9473 C   0  0  0  0  0  0  0  0  0  0  0  0
   10.1664    9.5486   23.4605 H   0  0  0  0  0  0  0  0  0  0  0  0
    9.6443    8.4255   21.8600 C   0  0  0  0  0  0  0  0  0  0  0  0
    8.8664    8.9198   21.6304 H   0  0  0  0  0  0  0  0  0  0  0  0
   10.0258    7.3338   21.1187 C   0  0  0  0  0  0  0  0  0  0  0  0
    9.5070    7.0903   20.3609 H   0  0  0  0  0  0  0  0  0  0  0  0
   11.1463    6.5717   21.4442 C   0  0  0  0  0  0  0  0  0  0  0  0
   12.4171    8.5331   24.4762 C   0  0  0  0  0  0  0  0  0  0  0  0
   13.3318    8.1471   24.3597 H   0  0  0  0  0  0  0  0  0  0  0  0
   12.5436   10.0506   24.5744 C   0  0  0  0  0  0  0  0  0  0  0  0
   12.8446   10.4098   23.7149 H   0  0  0  0  0  0  0  0  0  0  0  0
   13.1959   10.2793   25.2707 H   0  0  0  0  0  0  0  0  0  0  0  0
   11.6731   10.4372   24.8048 H   0  0  0  0  0  0  0  0  0  0  0  0
   11.8420    8.0080   25.7624 C   0  0  0  0  0  0  0  0  0  0  0  0
   10.8929    8.2432   25.8175 H   0  0  0  0  0  0  0  0  0  0  0  0
   12.3211    8.4056   26.5209 H   0  0  0  0  0  0  0  0  0  0  0  0
   11.9400    7.0333   25.7911 H   0  0  0  0  0  0  0  0  0  0  0  0
   11.4428    5.2100   20.6280 C   0  0  0  0  0  0  0  0  0  0  0  0
   12.1370    4.6714   21.1055 H   0  0  0  0  0  0  0  0  0  0  0  0
   12.0100    5.7318   19.3108 C   0  0  0  0  0  0  0  0  0  0  0  0
   11.3743    5.5533   18.5864 H   0  0  0  0  0  0  0  0  0  0  0  0
   12.8587    5.2788   19.1176 H   0  0  0  0  0  0  0  0  0  0  0  0
   12.1643    6.6966   19.3799 H   0  0  0  0  0  0  0  0  0  0  0  0
   10.2451    4.3734   20.3749 C   0  0  0  0  0  0  0  0  0  0  0  0
    9.5964    4.8827   19.8456 H   0  0  0  0  0  0  0  0  0  0  0  0
    9.8394    4.1175   21.2299 H   0  0  0  0  0  0  0  0  0  0  0  0
   10.5065    3.5670   19.8835 H   0  0  0  0  0  0  0  0  0  0  0  0
   16.2393    5.5927   13.4920 C   0  0  0  0  0  0  0  0  0  0  0  0
   16.5221    4.9273   12.8757 H   0  0  0  0  0  0  0  0  0  0  0  0
   15.5811    6.7175   13.1589 C   0  0  0  0  0  0  0  0  0  0  0  0
   15.3104    6.9674   12.2831 H   0  0  0  0  0  0  0  0  0  0  0  0
   17.0950    4.4745   15.5401 C   0  0  0  0  0  0  0  0  0  0  0  0
   16.3282    3.3265   15.7803 C   0  0  0  0  0  0  0  0  0  0  0  0
   17.0318    2.3143   16.4828 C   0  0  0  0  0  0  0  0  0  0  0  0
   16.5544    1.5306   16.7334 H   0  0  0  0  0  0  0  0  0  0  0  0
   18.3203    2.3971   16.8160 C   0  0  0  0  0  0  0  0  0  0  0  0
   18.7486    1.6608   17.2360 H   0  0  0  0  0  0  0  0  0  0  0  0
   19.0021    3.5037   16.5603 C   0  0  0  0  0  0  0  0  0  0  0  0
   19.9103    3.5525   16.8354 H   0  0  0  0  0  0  0  0  0  0  0  0
   18.4389    4.6004   15.9017 C   0  0  0  0  0  0  0  0  0  0  0  0
   14.8341    3.2900   15.4290 C   0  0  0  0  0  0  0  0  0  0  0  0
   14.6880    3.8418   14.6092 H   0  0  0  0  0  0  0  0  0  0  0  0
   14.0159    3.8814   16.5577 C   0  0  0  0  0  0  0  0  0  0  0  0
   13.0629    3.8133   16.3407 H   0  0  0  0  0  0  0  0  0  0  0  0
   14.2575    4.8237   16.6770 H   0  0  0  0  0  0  0  0  0  0  0  0
   14.1983    3.3903   17.3862 H   0  0  0  0  0  0  0  0  0  0  0  0
   14.4092    1.8802   15.1346 C   0  0  0  0  0  0  0  0  0  0  0  0
   14.4390    1.3514   15.9600 H   0  0  0  0  0  0  0  0  0  0  0  0
   15.0154    1.4878   14.4734 H   0  0  0  0  0  0  0  0  0  0  0  0
   13.4954    1.8822   14.7815 H   0  0  0  0  0  0  0  0  0  0  0  0
   19.2492    5.8428   15.5272 C   0  0  0  0  0  0  0  0  0  0  0  0
   18.5937    6.5775   15.3453 H   0  0  0  0  0  0  0  0  0  0  0  0
   20.1859    6.3448   16.6455 C   0  0  0  0  0  0  0  0  0  0  0  0
   20.6861    5.5795   17.0132 H   0  0  0  0  0  0  0  0  0  0  0  0
   19.6558    6.7548   17.3572 H   0  0  0  0  0  0  0  0  0  0  0  0
   20.8140    6.9960   16.2796 H   0  0  0  0  0  0  0  0  0  0  0  0
   20.0021    5.6192   14.2875 C   0  0  0  0  0  0  0  0  0  0  0  0
   20.5621    4.8217   14.3846 H   0  0  0  0  0  0  0  0  0  0  0  0
   20.5704    6.3975   14.1054 H   0  0  0  0  0  0  0  0  0  0  0  0
   19.3770    5.4915   13.5433 H   0  0  0  0  0  0  0  0  0  0  0  0
   14.6839    8.7452   14.2901 C   0  0  0  0  0  0  0  0  0  0  0  0
   13.3104    8.7618   14.0731 C   0  0  0  0  0  0  0  0  0  0  0  0
   12.6918    9.9943   13.9879 C   0  0  0  0  0  0  0  0  0  0  0  0
   11.7558   10.0262   13.8305 H   0  0  0  0  0  0  0  0  0  0  0  0
   13.3578   11.1439   14.1196 C   0  0  0  0  0  0  0  0  0  0  0  0
   12.8984   11.9726   14.0553 H   0  0  0  0  0  0  0  0  0  0  0  0
   14.7531   11.1224   14.3572 C   0  0  0  0  0  0  0  0  0  0  0  0
   15.2258   11.9394   14.4611 H   0  0  0  0  0  0  0  0  0  0  0  0
   15.4349    9.9148   14.4399 C   0  0  0  0  0  0  0  0  0  0  0  0
   12.4744    7.4878   14.0060 C   0  0  0  0  0  0  0  0  0  0  0  0
   13.0790    6.7041   14.1479 H   0  0  0  0  0  0  0  0  0  0  0  0
   11.4013    7.4729   15.0830 C   0  0  0  0  0  0  0  0  0  0  0  0
   11.8236    7.4406   15.9654 H   0  0  0  0  0  0  0  0  0  0  0  0
   10.8311    6.6842   14.9635 H   0  0  0  0  0  0  0  0  0  0  0  0
   10.8550    8.2837   15.0105 H   0  0  0  0  0  0  0  0  0  0  0  0
   11.8380    7.3652   12.6320 C   0  0  0  0  0  0  0  0  0  0  0  0
   11.5828    8.2539   12.3088 H   0  0  0  0  0  0  0  0  0  0  0  0
   11.0402    6.7979   12.6920 H   0  0  0  0  0  0  0  0  0  0  0  0
   12.4784    6.9619   12.0096 H   0  0  0  0  0  0  0  0  0  0  0  0
   16.9349    9.8783   14.6878 C   0  0  0  0  0  0  0  0  0  0  0  0
   17.1150    9.0971   15.2844 H   0  0  0  0  0  0  0  0  0  0  0  0
   17.4725   11.1092   15.3877 C   0  0  0  0  0  0  0  0  0  0  0  0
   17.4652   11.8681   14.7669 H   0  0  0  0  0  0  0  0  0  0  0  0
   18.3914   10.9404   15.6847 H   0  0  0  0  0  0  0  0  0  0  0  0
   16.9113   11.3163   16.1632 H   0  0  0  0  0  0  0  0  0  0  0  0
   17.6938    9.6232   13.3577 C   0  0  0  0  0  0  0  0  0  0  0  0
   17.3701    8.7909   12.9525 H   0  0  0  0  0  0  0  0  0  0  0  0
   18.6531    9.5459   13.5400 H   0  0  0  0  0  0  0  0  0  0  0  0
   17.5356   10.3688   12.7431 H   0  0  0  0  0  0  0  0  0  0  0  0
  1  2  1  0  0  0  0
  2 18  2  0  0  0  0
  3  1  1  0  0  0  0
  4  1  1  0  0  0  0
  5  9  1  0  0  0  0
  6 10  1  0  0  0  0
  7 11  1  0  0  0  0
  8 21  3  0  0  0  0
  9 12  1  0  0  0  0
 10 14  1  0  0  0  0
 11 16  1  0  0  0  0
 12 22  1  0  0  0  0
 13  9  1  0  0  0  0
 14 84  1  0  0  0  0
 15 10  1  0  0  0  0
 16146  1  0  0  0  0
 17 11  1  0  0  0  0
 18  1  1  0  0  0  0
 19  1  1  0  0  0  0
 20  1  1  0  0  0  0
 21  1  1  0  0  0  0
 22 23  1  0  0  0  0
 24 13  1  0  0  0  0
 25 24  1  0  0  0  0
 26 12  1  0  0  0  0
 27 26  4  0  0  0  0
 28 27  4  0  0  0  0
 29 28  1  0  0  0  0
 30 28  4  0  0  0  0
 31 30  1  0  0  0  0
 32 30  4  0  0  0  0
 33 32  1  0  0  0  0
 34 26  4  0  0  0  0
 35 27  1  0  0  0  0
 36 35  1  0  0  0  0
 37 35  1  0  0  0  0
 38 37  1  0  0  0  0
 39 37  1  0  0  0  0
 40 37  1  0  0  0  0
 41 35  1  0  0  0  0
 42 41  1  0  0  0  0
 43 41  1  0  0  0  0
 44 41  1  0  0  0  0
 45 34  1  0  0  0  0
 46 45  1  0  0  0  0
 47 45  1  0  0  0  0
 48 47  1  0  0  0  0
 49 47  1  0  0  0  0
 50 47  1  0  0  0  0
 51 45  1  0  0  0  0
 52 51  1  0  0  0  0
 53 51  1  0  0  0  0
 54 51  1  0  0  0  0
 55 13  1  0  0  0  0
 56 55  4  0  0  0  0
 57 56  4  0  0  0  0
 58 57  1  0  0  0  0
 59 57  4  0  0  0  0
 60 59  1  0  0  0  0
 61 59  4  0  0  0  0
 62 61  1  0  0  0  0
 63 55  4  0  0  0  0
 64 56  1  0  0  0  0
 65 64  1  0  0  0  0
 66 64  1  0  0  0  0
 67 66  1  0  0  0  0
 68 66  1  0  0  0  0
 69 66  1  0  0  0  0
 70 64  1  0  0  0  0
 71 70  1  0  0  0  0
 72 70  1  0  0  0  0
 73 70  1  0  0  0  0
 74 63  1  0  0  0  0
 75 74  1  0  0  0  0
 76 74  1  0  0  0  0
 77 76  1  0  0  0  0
 78 76  1  0  0  0  0
 79 76  1  0  0  0  0
 80 74  1  0  0  0  0
 81 80  1  0  0  0  0
 82 80  1  0  0  0  0
 83 80  1  0  0  0  0
 84 85  1  0  0  0  0
 86 15  1  0  0  0  0
 87 86  1  0  0  0  0
 88 14  1  0  0  0  0
 89 88  4  0  0  0  0
 90 89  4  0  0  0  0
 91 90  1  0  0  0  0
 92 90  4  0  0  0  0
 93 92  1  0  0  0  0
 94 92  4  0  0  0  0
 95 94  1  0  0  0  0
 96 88  4  0  0  0  0
 97 89  1  0  0  0  0
 98 97  1  0  0  0  0
 99 97  1  0  0  0  0
100 99  1  0  0  0  0
101 99  1  0  0  0  0
102 99  1  0  0  0  0
103 97  1  0  0  0  0
104103  1  0  0  0  0
105103  1  0  0  0  0
106103  1  0  0  0  0
107 96  1  0  0  0  0
108107  1  0  0  0  0
109107  1  0  0  0  0
110109  1  0  0  0  0
111109  1  0  0  0  0
112109  1  0  0  0  0
113107  1  0  0  0  0
114113  1  0  0  0  0
115113  1  0  0  0  0
116113  1  0  0  0  0
117 15  1  0  0  0  0
118117  4  0  0  0  0
119118  4  0  0  0  0
120119  1  0  0  0  0
121119  4  0  0  0  0
122121  1  0  0  0  0
123121  4  0  0  0  0
124123  1  0  0  0  0
125117  4  0  0  0  0
126118  1  0  0  0  0
127126  1  0  0  0  0
128126  1  0  0  0  0
129128  1  0  0  0  0
130128  1  0  0  0  0
131128  1  0  0  0  0
132126  1  0  0  0  0
133132  1  0  0  0  0
134132  1  0  0  0  0
135132  1  0  0  0  0
136125  1  0  0  0  0
137136  1  0  0  0  0
138136  1  0  0  0  0
139138  1  0  0  0  0
140138  1  0  0  0  0
141138  1  0  0  0  0
142136  1  0  0  0  0
143142  1  0  0  0  0
144142  1  0  0  0  0
145142  1  0  0  0  0
146147  1  0  0  0  0
148 17  1  0  0  0  0
149148  1  0  0  0  0
150 16  1  0  0  0  0
151150  4  0  0  0  0
152151  4  0  0  0  0
153152  1  0  0  0  0
154152  4  0  0  0  0
155154  1  0  0  0  0
156154  4  0  0  0  0
157156  1  0  0  0  0
158150  4  0  0  0  0
159151  1  0  0  0  0
160159  1  0  0  0  0
161159  1  0  0  0  0
162161  1  0  0  0  0
163161  1  0  0  0  0
164161  1  0  0  0  0
165159  1  0  0  0  0
166165  1  0  0  0  0
167165  1  0  0  0  0
168165  1  0  0  0  0
169158  1  0  0  0  0
170169  1  0  0  0  0
171169  1  0  0  0  0
172171  1  0  0  0  0
173171  1  0  0  0  0
174171  1  0  0  0  0
175169  1  0  0  0  0
176175  1  0  0  0  0
177175  1  0  0  0  0
178175  1  0  0  0  0
179 17  1  0  0  0  0
180179  4  0  0  0  0
181180  4  0  0  0  0
182181  1  0  0  0  0
183181  4  0  0  0  0
184183  1  0  0  0  0
185183  4  0  0  0  0
186185  1  0  0  0  0
187179  4  0  0  0  0
188180  1  0  0  0  0
189188  1  0  0  0  0
190188  1  0  0  0  0
191190  1  0  0  0  0
192190  1  0  0  0  0
193190  1  0  0  0  0
194188  1  0  0  0  0
195194  1  0  0  0  0
196194  1  0  0  0  0
197194  1  0  0  0  0
198187  1  0  0  0  0
199198  1  0  0  0  0
200198  1  0  0  0  0
201200  1  0  0  0  0
202200  1  0  0  0  0
203200  1  0  0  0  0
204198  1  0  0  0  0
205204  1  0  0  0  0
206204  1  0  0  0  0
207204  1  0  0  0  0
  3 19  2  0  0  0  0
  4 20  2  0  0  0  0
  5 18  1  0  0  0  0
  6 19  1  0  0  0  0
  7 20  1  0  0  0  0
 22 24  2  0  0  0  0
 32 34  4  0  0  0  0
 61 63  4  0  0  0  0
 84 86  2  0  0  0  0
 94 96  4  0  0  0  0
123125  4  0  0  0  0
146148  2  0  0  0  0
156158  4  0  0  0  0
185187  4  0  0  0  0
M  END
$$$$
MOWKAN

From CSD data. Using bond type 'Any'. No disordered atoms. Largest molecule.
218229  0  0  0  0  0  0  0  0999 V2000
   15.7453    8.7896   19.2910 W   0  0  0  0  0  0  0  0  0  0  0  0
   14.3103    9.0166   21.2304 P   0  0  0  0  0  0  0  0  0  0  0  0
   15.6071    7.9356   21.1553 C   0  0  0  0  0  0  0  0  0  0  0  0
   15.9994   11.2088   19.3014 P   0  0  0  0  0  0  0  0  0  0  0  0
   17.2810   10.1492   19.0382 C   0  0  0  0  0  0  0  0  0  0  0  0
   13.7409    9.0225   17.9249 P   0  0  0  0  0  0  0  0  0  0  0  0
   14.9467    7.8826   17.6198 C   0  0  0  0  0  0  0  0  0  0  0  0
   17.4999    7.1675   19.0041 P   0  0  0  0  0  0  0  0  0  0  0  0
   18.3527    7.2021   17.3869 C   0  0  0  0  0  0  0  0  0  0  0  0
   18.9709    6.4439   17.3285 H   0  0  0  0  0  0  0  0  0  0  0  0
   18.8527    8.0396   17.2998 H   0  0  0  0  0  0  0  0  0  0  0  0
   17.6901    7.1397   16.6678 H   0  0  0  0  0  0  0  0  0  0  0  0
   16.9960    5.4239   19.1402 C   0  0  0  0  0  0  0  0  0  0  0  0
   16.4185    5.1906   18.3846 H   0  0  0  0  0  0  0  0  0  0  0  0
   16.5068    5.2902   19.9794 H   0  0  0  0  0  0  0  0  0  0  0  0
   17.7922    4.8525   19.1326 H   0  0  0  0  0  0  0  0  0  0  0  0
   18.9248    7.2452   20.1530 C   0  0  0  0  0  0  0  0  0  0  0  0
   18.6288    7.0115   21.0575 H   0  0  0  0  0  0  0  0  0  0  0  0
   19.2934    8.1541   20.1553 H   0  0  0  0  0  0  0  0  0  0  0  0
   19.6150    6.6142   19.8614 H   0  0  0  0  0  0  0  0  0  0  0  0
   16.1931    6.9786   21.9194 O   0  0  0  0  0  0  0  0  0  0  0  0
   16.0807    6.7584   23.2645 B   0  0  0  0  0  0  0  0  0  0  0  0
   18.6016   10.1360   18.8026 O   0  0  0  0  0  0  0  0  0  0  0  0
   19.4586   11.2138   18.5985 B   0  0  0  0  0  0  0  0  0  0  0  0
   15.2197    6.8958   16.7562 O   0  0  0  0  0  0  0  0  0  0  0  0
   14.4409    6.2104   15.8534 B   0  0  0  0  0  0  0  0  0  0  0  0
   16.6407    5.5763   23.8586 N   0  0  0  0  0  0  0  0  0  0  0  0
   15.5248    7.5051   24.3244 N   0  0  0  0  0  0  0  0  0  0  0  0
   20.8857   10.9969   18.5776 N   0  0  0  0  0  0  0  0  0  0  0  0
   19.2539   12.6045   18.4180 N   0  0  0  0  0  0  0  0  0  0  0  0
   15.0009    5.2153   15.0133 N   0  0  0  0  0  0  0  0  0  0  0  0
   13.0340    6.2153   15.5603 N   0  0  0  0  0  0  0  0  0  0  0  0
   16.3738    5.6441   25.2324 C   0  0  0  0  0  0  0  0  0  0  0  0
   16.6203    4.9786   25.8646 H   0  0  0  0  0  0  0  0  0  0  0  0
   15.7315    6.7650   25.5308 C   0  0  0  0  0  0  0  0  0  0  0  0
   15.4544    7.0330   26.3986 H   0  0  0  0  0  0  0  0  0  0  0  0
   17.3271    4.5216   23.1991 C   0  0  0  0  0  0  0  0  0  0  0  0
   18.7602    4.6143   23.0787 C   0  0  0  0  0  0  0  0  0  0  0  0
   19.4325    3.6673   22.3512 C   0  0  0  0  0  0  0  0  0  0  0  0
   20.3660    3.7439   22.1954 H   0  0  0  0  0  0  0  0  0  0  0  0
   18.7582    2.6623   21.8854 C   0  0  0  0  0  0  0  0  0  0  0  0
   19.2577    1.9923   21.4331 H   0  0  0  0  0  0  0  0  0  0  0  0
   17.4295    2.4653   21.9717 C   0  0  0  0  0  0  0  0  0  0  0  0
   17.0211    1.7086   21.5699 H   0  0  0  0  0  0  0  0  0  0  0  0
   16.6367    3.4487   22.6993 C   0  0  0  0  0  0  0  0  0  0  0  0
   19.5289    5.6872   23.7172 C   0  0  0  0  0  0  0  0  0  0  0  0
   18.9240    6.4808   23.7727 H   0  0  0  0  0  0  0  0  0  0  0  0
   20.7913    6.1541   23.0761 C   0  0  0  0  0  0  0  0  0  0  0  0
   21.4627    5.4419   23.1175 H   0  0  0  0  0  0  0  0  0  0  0  0
   21.1241    6.9459   23.5470 H   0  0  0  0  0  0  0  0  0  0  0  0
   20.6155    6.3823   22.1382 H   0  0  0  0  0  0  0  0  0  0  0  0
   19.8882    5.3213   25.1251 C   0  0  0  0  0  0  0  0  0  0  0  0
   19.0807    5.0472   25.6078 H   0  0  0  0  0  0  0  0  0  0  0  0
   20.2892    6.0957   25.5719 H   0  0  0  0  0  0  0  0  0  0  0  0
   20.5306    4.5807   25.1166 H   0  0  0  0  0  0  0  0  0  0  0  0
   15.1655    3.3295   22.8039 C   0  0  0  0  0  0  0  0  0  0  0  0
   14.8789    4.0424   23.4449 H   0  0  0  0  0  0  0  0  0  0  0  0
   14.3647    3.5580   21.5557 C   0  0  0  0  0  0  0  0  0  0  0  0
   14.8461    4.1775   20.9675 H   0  0  0  0  0  0  0  0  0  0  0  0
   13.4943    3.9421   21.7911 H   0  0  0  0  0  0  0  0  0  0  0  0
   14.2313    2.7053   21.0924 H   0  0  0  0  0  0  0  0  0  0  0  0
   14.7641    2.0133   23.4425 C   0  0  0  0  0  0  0  0  0  0  0  0
   15.1537    1.2715   22.9350 H   0  0  0  0  0  0  0  0  0  0  0  0
   13.7876    1.9334   23.4419 H   0  0  0  0  0  0  0  0  0  0  0  0
   15.0930    1.9850   24.3662 H   0  0  0  0  0  0  0  0  0  0  0  0
   14.8865    8.8048   24.3846 C   0  0  0  0  0  0  0  0  0  0  0  0
   15.6432    9.9605   24.2040 C   0  0  0  0  0  0  0  0  0  0  0  0
   14.9748   11.1823   24.3008 C   0  0  0  0  0  0  0  0  0  0  0  0
   15.4570   11.9895   24.1635 H   0  0  0  0  0  0  0  0  0  0  0  0
   13.6461   11.2370   24.5861 C   0  0  0  0  0  0  0  0  0  0  0  0
   13.2284   12.0850   24.6808 H   0  0  0  0  0  0  0  0  0  0  0  0
   12.8875   10.0863   24.7431 C   0  0  0  0  0  0  0  0  0  0  0  0
   11.9562   10.1489   24.9183 H   0  0  0  0  0  0  0  0  0  0  0  0
   13.4936    8.8445   24.6410 C   0  0  0  0  0  0  0  0  0  0  0  0
   17.1364    9.8942   23.9030 C   0  0  0  0  0  0  0  0  0  0  0  0
   17.2784    9.1022   23.3098 H   0  0  0  0  0  0  0  0  0  0  0  0
   17.6101   11.1310   23.1153 C   0  0  0  0  0  0  0  0  0  0  0  0
   17.1231   11.9220   23.4286 H   0  0  0  0  0  0  0  0  0  0  0  0
   17.4353   10.9958   22.1614 H   0  0  0  0  0  0  0  0  0  0  0  0
   18.5703   11.2605   23.2581 H   0  0  0  0  0  0  0  0  0  0  0  0
   17.8991    9.6376   25.1487 C   0  0  0  0  0  0  0  0  0  0  0  0
   17.9281   10.4554   25.6885 H   0  0  0  0  0  0  0  0  0  0  0  0
   18.8130    9.3644   24.9219 H   0  0  0  0  0  0  0  0  0  0  0  0
   17.4622    8.9246   25.6587 H   0  0  0  0  0  0  0  0  0  0  0  0
   12.6506    7.5846   24.7169 C   0  0  0  0  0  0  0  0  0  0  0  0
   13.2469    6.8055   24.5233 H   0  0  0  0  0  0  0  0  0  0  0  0
   11.5528    7.6111   23.6492 C   0  0  0  0  0  0  0  0  0  0  0  0
   11.1275    6.7300   23.5945 H   0  0  0  0  0  0  0  0  0  0  0  0
   11.9469    7.8381   22.7810 H   0  0  0  0  0  0  0  0  0  0  0  0
   10.8804    8.2837   23.8879 H   0  0  0  0  0  0  0  0  0  0  0  0
   12.0706    7.3859   26.0934 C   0  0  0  0  0  0  0  0  0  0  0  0
   12.7954    7.2215   26.7319 H   0  0  0  0  0  0  0  0  0  0  0  0
   11.4627    6.6180   26.0832 H   0  0  0  0  0  0  0  0  0  0  0  0
   11.5777    8.1903   26.3581 H   0  0  0  0  0  0  0  0  0  0  0  0
   21.4697   12.2867   18.4389 C   0  0  0  0  0  0  0  0  0  0  0  0
   22.4028   12.4628   18.4429 H   0  0  0  0  0  0  0  0  0  0  0  0
   20.5405   13.1906   18.3080 C   0  0  0  0  0  0  0  0  0  0  0  0
   20.7018   14.1145   18.1606 H   0  0  0  0  0  0  0  0  0  0  0  0
   21.6283    9.8131   18.7686 C   0  0  0  0  0  0  0  0  0  0  0  0
   22.1180    9.5333   20.0274 C   0  0  0  0  0  0  0  0  0  0  0  0
   22.8004    8.3081   20.2132 C   0  0  0  0  0  0  0  0  0  0  0  0
   23.1497    8.0866   21.0668 H   0  0  0  0  0  0  0  0  0  0  0  0
   22.9590    7.4389   19.1612 C   0  0  0  0  0  0  0  0  0  0  0  0
   23.3948    6.6075   19.3043 H   0  0  0  0  0  0  0  0  0  0  0  0
   22.4994    7.7535   17.9207 C   0  0  0  0  0  0  0  0  0  0  0  0
   22.6385    7.1458   17.2041 H   0  0  0  0  0  0  0  0  0  0  0  0
   21.8370    8.9339   17.6852 C   0  0  0  0  0  0  0  0  0  0  0  0
   21.9936   10.5019   21.1971 C   0  0  0  0  0  0  0  0  0  0  0  0
   21.3478   11.2229   20.9511 H   0  0  0  0  0  0  0  0  0  0  0  0
   21.4597    9.7634   22.4349 C   0  0  0  0  0  0  0  0  0  0  0  0
   20.9375    8.9854   22.1521 H   0  0  0  0  0  0  0  0  0  0  0  0
   20.8908   10.3686   22.9557 H   0  0  0  0  0  0  0  0  0  0  0  0
   22.2131    9.4679   22.9894 H   0  0  0  0  0  0  0  0  0  0  0  0
   23.3524   11.1426   21.5085 C   0  0  0  0  0  0  0  0  0  0  0  0
   23.9992   10.4421   21.7368 H   0  0  0  0  0  0  0  0  0  0  0  0
   23.2575   11.7584   22.2643 H   0  0  0  0  0  0  0  0  0  0  0  0
   23.6680   11.6348   20.7224 H   0  0  0  0  0  0  0  0  0  0  0  0
   21.3794    9.3644   16.2799 C   0  0  0  0  0  0  0  0  0  0  0  0
   20.4946    9.8223   16.3573 H   0  0  0  0  0  0  0  0  0  0  0  0
   21.2309    8.1574   15.3117 C   0  0  0  0  0  0  0  0  0  0  0  0
   20.5791    8.3759   14.6146 H   0  0  0  0  0  0  0  0  0  0  0  0
   20.9230    7.3732   15.8135 H   0  0  0  0  0  0  0  0  0  0  0  0
   22.0981    7.9604   14.8995 H   0  0  0  0  0  0  0  0  0  0  0  0
   22.4050   10.3661   15.7016 C   0  0  0  0  0  0  0  0  0  0  0  0
   22.7111   10.9667   16.4120 H   0  0  0  0  0  0  0  0  0  0  0  0
   21.9825   10.8905   14.9892 H   0  0  0  0  0  0  0  0  0  0  0  0
   23.1702    9.8753   15.3354 H   0  0  0  0  0  0  0  0  0  0  0  0
   18.0798   13.3810   18.2243 C   0  0  0  0  0  0  0  0  0  0  0  0
   17.6764   14.3165   19.2240 C   0  0  0  0  0  0  0  0  0  0  0  0
   16.5403   15.0864   18.9413 C   0  0  0  0  0  0  0  0  0  0  0  0
   16.2673   15.7396   19.5765 H   0  0  0  0  0  0  0  0  0  0  0  0
   15.8158   14.9473   17.8161 C   0  0  0  0  0  0  0  0  0  0  0  0
   15.0461   15.4850   17.6686 H   0  0  0  0  0  0  0  0  0  0  0  0
   16.2011   14.0168   16.8792 C   0  0  0  0  0  0  0  0  0  0  0  0
   15.6907   13.9270   16.0823 H   0  0  0  0  0  0  0  0  0  0  0  0
   17.3010   13.2138   17.0545 C   0  0  0  0  0  0  0  0  0  0  0  0
   18.3768   14.4208   20.5324 C   0  0  0  0  0  0  0  0  0  0  0  0
   18.9776   13.6263   20.6231 H   0  0  0  0  0  0  0  0  0  0  0  0
   17.4355   14.4324   21.7231 C   0  0  0  0  0  0  0  0  0  0  0  0
   16.9573   15.2875   21.7523 H   0  0  0  0  0  0  0  0  0  0  0  0
   17.9498   14.3161   22.5477 H   0  0  0  0  0  0  0  0  0  0  0  0
   16.7890   13.7004   21.6340 H   0  0  0  0  0  0  0  0  0  0  0  0
   19.2499   15.6791   20.5900 C   0  0  0  0  0  0  0  0  0  0  0  0
   20.1933   15.4279   20.4954 H   0  0  0  0  0  0  0  0  0  0  0  0
   19.1177   16.1304   21.4498 H   0  0  0  0  0  0  0  0  0  0  0  0
   18.9999   16.2852   19.8613 H   0  0  0  0  0  0  0  0  0  0  0  0
   17.6543   12.1128   16.0758 C   0  0  0  0  0  0  0  0  0  0  0  0
   17.8984   11.3090   16.6186 H   0  0  0  0  0  0  0  0  0  0  0  0
   16.5163   11.7022   15.1730 C   0  0  0  0  0  0  0  0  0  0  0  0
   15.7130   11.5408   15.7111 H   0  0  0  0  0  0  0  0  0  0  0  0
   16.7575   10.8809   14.6939 H   0  0  0  0  0  0  0  0  0  0  0  0
   16.3372   12.4159   14.5255 H   0  0  0  0  0  0  0  0  0  0  0  0
   18.8906   12.4771   15.2410 C   0  0  0  0  0  0  0  0  0  0  0  0
   18.7144   13.2966   14.7346 H   0  0  0  0  0  0  0  0  0  0  0  0
   19.0924   11.7458   14.6190 H   0  0  0  0  0  0  0  0  0  0  0  0
   19.6571   12.6186   15.8358 H   0  0  0  0  0  0  0  0  0  0  0  0
   13.9673    4.6491   14.2649 C   0  0  0  0  0  0  0  0  0  0  0  0
   14.0678    3.9462   13.6338 H   0  0  0  0  0  0  0  0  0  0  0  0
   12.8152    5.2518   14.5737 C   0  0  0  0  0  0  0  0  0  0  0  0
   11.9717    5.0535   14.1835 H   0  0  0  0  0  0  0  0  0  0  0  0
   16.3818    4.8147   14.8066 C   0  0  0  0  0  0  0  0  0  0  0  0
   17.2147    5.6971   14.1236 C   0  0  0  0  0  0  0  0  0  0  0  0
   18.5334    5.2683   13.8907 C   0  0  0  0  0  0  0  0  0  0  0  0
   19.1425    5.8327   13.4287 H   0  0  0  0  0  0  0  0  0  0  0  0
   18.9488    4.0117   14.3408 C   0  0  0  0  0  0  0  0  0  0  0  0
   19.8404    3.7314   14.1744 H   0  0  0  0  0  0  0  0  0  0  0  0
   18.1159    3.1921   15.0029 C   0  0  0  0  0  0  0  0  0  0  0  0
   18.4288    2.3438   15.2918 H   0  0  0  0  0  0  0  0  0  0  0  0
   16.7852    3.5679   15.2750 C   0  0  0  0  0  0  0  0  0  0  0  0
   16.7170    7.0415   13.5923 C   0  0  0  0  0  0  0  0  0  0  0  0
   16.0856    7.4183   14.2711 H   0  0  0  0  0  0  0  0  0  0  0  0
   17.8128    8.0482   13.3856 C   0  0  0  0  0  0  0  0  0  0  0  0
   18.2837    8.1960   14.2336 H   0  0  0  0  0  0  0  0  0  0  0  0
   17.4268    8.8932   13.0758 H   0  0  0  0  0  0  0  0  0  0  0  0
   18.4441    7.7111   12.7170 H   0  0  0  0  0  0  0  0  0  0  0  0
   15.9362    6.8412   12.3048 C   0  0  0  0  0  0  0  0  0  0  0  0
   15.6576    7.7120   11.9525 H   0  0  0  0  0  0  0  0  0  0  0  0
   15.1450    6.2922   12.4840 H   0  0  0  0  0  0  0  0  0  0  0  0
   16.5048    6.3894   11.6458 H   0  0  0  0  0  0  0  0  0  0  0  0
   15.8519    2.5994   16.0130 C   0  0  0  0  0  0  0  0  0  0  0  0
   14.9985    3.0817   16.2102 H   0  0  0  0  0  0  0  0  0  0  0  0
   16.4159    2.1259   17.2979 C   0  0  0  0  0  0  0  0  0  0  0  0
   15.7463    1.5884   17.7707 H   0  0  0  0  0  0  0  0  0  0  0  0
   16.6637    2.8973   17.8498 H   0  0  0  0  0  0  0  0  0  0  0  0
   17.2105    1.5796   17.1248 H   0  0  0  0  0  0  0  0  0  0  0  0
   15.5268    1.4156   15.1285 C   0  0  0  0  0  0  0  0  0  0  0  0
   16.3397    0.8920   14.9728 H   0  0  0  0  0  0  0  0  0  0  0  0
   15.1740    1.7360   14.2728 H   0  0  0  0  0  0  0  0  0  0  0  0
   14.8553    0.8540   15.5696 H   0  0  0  0  0  0  0  0  0  0  0  0
   11.9341    7.0068   16.0025 C   0  0  0  0  0  0  0  0  0  0  0  0
   11.5929    8.1657   15.3064 C   0  0  0  0  0  0  0  0  0  0  0  0
   10.4448    8.8412   15.6833 C   0  0  0  0  0  0  0  0  0  0  0  0
   10.1758    9.6163   15.2027 H   0  0  0  0  0  0  0  0  0  0  0  0
    9.6882    8.4025   16.7484 C   0  0  0  0  0  0  0  0  0  0  0  0
    8.9002    8.8730   16.9978 H   0  0  0  0  0  0  0  0  0  0  0  0
   10.0675    7.2981   17.4445 C   0  0  0  0  0  0  0  0  0  0  0  0
    9.5465    7.0194   18.1882 H   0  0  0  0  0  0  0  0  0  0  0  0
   11.2015    6.5597   17.0912 C   0  0  0  0  0  0  0  0  0  0  0  0
   12.4620    8.6889   14.1419 C   0  0  0  0  0  0  0  0  0  0  0  0
   13.3635    8.2641   14.2312 H   0  0  0  0  0  0  0  0  0  0  0  0
   12.6647   10.2303   14.2701 C   0  0  0  0  0  0  0  0  0  0  0  0
   13.3239   10.5299   13.6101 H   0  0  0  0  0  0  0  0  0  0  0  0
   12.9860   10.4432   15.1720 H   0  0  0  0  0  0  0  0  0  0  0  0
   11.8122   10.6862   14.1116 H   0  0  0  0  0  0  0  0  0  0  0  0
   11.9361    8.3280   12.7942 C   0  0  0  0  0  0  0  0  0  0  0  0
   11.7944    7.3589   12.7489 H   0  0  0  0  0  0  0  0  0  0  0  0
   12.5832    8.5953   12.1086 H   0  0  0  0  0  0  0  0  0  0  0  0
   11.0866    8.7901   12.6409 H   0  0  0  0  0  0  0  0  0  0  0  0
   11.6150    5.3279   17.9024 C   0  0  0  0  0  0  0  0  0  0  0  0
   12.4157    4.9181   17.4658 H   0  0  0  0  0  0  0  0  0  0  0  0
   11.9843    5.7137   19.3051 C   0  0  0  0  0  0  0  0  0  0  0  0
   11.1704    5.8763   19.8244 H   0  0  0  0  0  0  0  0  0  0  0  0
   12.5286    6.5295   19.2863 H   0  0  0  0  0  0  0  0  0  0  0  0
   12.4978    4.9888   19.7181 H   0  0  0  0  0  0  0  0  0  0  0  0
   10.5452    4.2948   17.9888 C   0  0  0  0  0  0  0  0  0  0  0  0
    9.7712    4.6647   18.4625 H   0  0  0  0  0  0  0  0  0  0  0  0
   10.8842    3.5149   18.4768 H   0  0  0  0  0  0  0  0  0  0  0  0
   10.2778    4.0244   17.0862 H   0  0  0  0  0  0  0  0  0  0  0  0
  1  2  1  0  0  0  0
  2  3  2  0  0  0  0
  3  1  1  0  0  0  0
  4  1  1  0  0  0  0
  5  1  1  0  0  0  0
  6  1  1  0  0  0  0
  7  1  1  0  0  0  0
  8  1  1  0  0  0  0
  9  8  1  0  0  0  0
 10  9  1  0  0  0  0
 11  9  1  0  0  0  0
 12  9  1  0  0  0  0
 13  8  1  0  0  0  0
 14 13  1  0  0  0  0
 15 13  1  0  0  0  0
 16 13  1  0  0  0  0
 17  8  1  0  0  0  0
 18 17  1  0  0  0  0
 19 17  1  0  0  0  0
 20 17  1  0  0  0  0
 21  3  1  0  0  0  0
 22 21  1  0  0  0  0
 23  5  1  0  0  0  0
 24 23  1  0  0  0  0
 25  7  1  0  0  0  0
 26 25  1  0  0  0  0
 27 22  1  0  0  0  0
 28 22  1  0  0  0  0
 29 24  1  0  0  0  0
 30 24  1  0  0  0  0
 31 26  1  0  0  0  0
 32 26  1  0  0  0  0
 33 27  1  0  0  0  0
 34 33  1  0  0  0  0
 35 28  1  0  0  0  0
 36 35  1  0  0  0  0
 37 27  1  0  0  0  0
 38 37  4  0  0  0  0
 39 38  4  0  0  0  0
 40 39  1  0  0  0  0
 41 39  4  0  0  0  0
 42 41  1  0  0  0  0
 43 41  4  0  0  0  0
 44 43  1  0  0  0  0
 45 37  4  0  0  0  0
 46 38  1  0  0  0  0
 47 46  1  0  0  0  0
 48 46  1  0  0  0  0
 49 48  1  0  0  0  0
 50 48  1  0  0  0  0
 51 48  1  0  0  0  0
 52 46  1  0  0  0  0
 53 52  1  0  0  0  0
 54 52  1  0  0  0  0
 55 52  1  0  0  0  0
 56 45  1  0  0  0  0
 57 56  1  0  0  0  0
 58 56  1  0  0  0  0
 59 58  1  0  0  0  0
 60 58  1  0  0  0  0
 61 58  1  0  0  0  0
 62 56  1  0  0  0  0
 63 62  1  0  0  0  0
 64 62  1  0  0  0  0
 65 62  1  0  0  0  0
 66 28  1  0  0  0  0
 67 66  4  0  0  0  0
 68 67  4  0  0  0  0
 69 68  1  0  0  0  0
 70 68  4  0  0  0  0
 71 70  1  0  0  0  0
 72 70  4  0  0  0  0
 73 72  1  0  0  0  0
 74 66  4  0  0  0  0
 75 67  1  0  0  0  0
 76 75  1  0  0  0  0
 77 75  1  0  0  0  0
 78 77  1  0  0  0  0
 79 77  1  0  0  0  0
 80 77  1  0  0  0  0
 81 75  1  0  0  0  0
 82 81  1  0  0  0  0
 83 81  1  0  0  0  0
 84 81  1  0  0  0  0
 85 74  1  0  0  0  0
 86 85  1  0  0  0  0
 87 85  1  0  0  0  0
 88 87  1  0  0  0  0
 89 87  1  0  0  0  0
 90 87  1  0  0  0  0
 91 85  1  0  0  0  0
 92 91  1  0  0  0  0
 93 91  1  0  0  0  0
 94 91  1  0  0  0  0
 95 29  1  0  0  0  0
 96 95  1  0  0  0  0
 97 30  1  0  0  0  0
 98 97  1  0  0  0  0
 99 29  1  0  0  0  0
100 99  4  0  0  0  0
101100  4  0  0  0  0
102101  1  0  0  0  0
103101  4  0  0  0  0
104103  1  0  0  0  0
105103  4  0  0  0  0
106105  1  0  0  0  0
107 99  4  0  0  0  0
108100  1  0  0  0  0
109108  1  0  0  0  0
110108  1  0  0  0  0
111110  1  0  0  0  0
112110  1  0  0  0  0
113110  1  0  0  0  0
114108  1  0  0  0  0
115114  1  0  0  0  0
116114  1  0  0  0  0
117114  1  0  0  0  0
118107  1  0  0  0  0
119118  1  0  0  0  0
120118  1  0  0  0  0
121120  1  0  0  0  0
122120  1  0  0  0  0
123120  1  0  0  0  0
124118  1  0  0  0  0
125124  1  0  0  0  0
126124  1  0  0  0  0
127124  1  0  0  0  0
128 30  1  0  0  0  0
129128  4  0  0  0  0
130129  4  0  0  0  0
131130  1  0  0  0  0
132130  4  0  0  0  0
133132  1  0  0  0  0
134132  4  0  0  0  0
135134  1  0  0  0  0
136128  4  0  0  0  0
137129  1  0  0  0  0
138137  1  0  0  0  0
139137  1  0  0  0  0
140139  1  0  0  0  0
141139  1  0  0  0  0
142139  1  0  0  0  0
143137  1  0  0  0  0
144143  1  0  0  0  0
145143  1  0  0  0  0
146143  1  0  0  0  0
147136  1  0  0  0  0
148147  1  0  0  0  0
149147  1  0  0  0  0
150149  1  0  0  0  0
151149  1  0  0  0  0
152149  1  0  0  0  0
153147  1  0  0  0  0
154153  1  0  0  0  0
155153  1  0  0  0  0
156153  1  0  0  0  0
157 31  1  0  0  0  0
158157  1  0  0  0  0
159 32  1  0  0  0  0
160159  1  0  0  0  0
161 31  1  0  0  0  0
162161  4  0  0  0  0
163162  4  0  0  0  0
164163  1  0  0  0  0
165163  4  0  0  0  0
166165  1  0  0  0  0
167165  4  0  0  0  0
168167  1  0  0  0  0
169161  4  0  0  0  0
170162  1  0  0  0  0
171170  1  0  0  0  0
172170  1  0  0  0  0
173172  1  0  0  0  0
174172  1  0  0  0  0
175172  1  0  0  0  0
176170  1  0  0  0  0
177176  1  0  0  0  0
178176  1  0  0  0  0
179176  1  0  0  0  0
180169  1  0  0  0  0
181180  1  0  0  0  0
182180  1  0  0  0  0
183182  1  0  0  0  0
184182  1  0  0  0  0
185182  1  0  0  0  0
186180  1  0  0  0  0
187186  1  0  0  0  0
188186  1  0  0  0  0
189186  1  0  0  0  0
190 32  1  0  0  0  0
191190  4  0  0  0  0
192191  4  0  0  0  0
193192  1  0  0  0  0
194192  4  0  0  0  0
195194  1  0  0  0  0
196194  4  0  0  0  0
197196  1  0  0  0  0
198190  4  0  0  0  0
199191  1  0  0  0  0
200199  1  0  0  0  0
201199  1  0  0  0  0
202201  1  0  0  0  0
203201  1  0  0  0  0
204201  1  0  0  0  0
205199  1  0  0  0  0
206205  1  0  0  0  0
207205  1  0  0  0  0
208205  1  0  0  0  0
209198  1  0  0  0  0
210209  1  0  0  0  0
211209  1  0  0  0  0
212211  1  0  0  0  0
213211  1  0  0  0  0
214211  1  0  0  0  0
215209  1  0  0  0  0
216215  1  0  0  0  0
217215  1  0  0  0  0
218215  1  0  0  0  0
  4  5  2  0  0  0  0
  6  7  2  0  0  0  0
 33 35  2  0  0  0  0
 43 45  4  0  0  0  0
 72 74  4  0  0  0  0
 95 97  2  0  0  0  0
105107  4  0  0  0  0
134136  4  0  0  0  0
157159  2  0  0  0  0
167169  4  0  0  0  0
196198  4  0  0  0  0
M  END
$$$$
MOWKER

From CSD data. Using bond type 'Any'. No disordered atoms. Largest molecule.
220231  0  0  0  0  0  0  0  0999 V2000
    5.5439    8.8669   19.1567 W   0  0  0  0  0  0  0  0  0  0  0  0
    4.7469    7.2619   17.5323 P   0  0  0  0  0  0  0  0  0  0  0  0
    4.9079    7.2393   20.8354 P   0  0  0  0  0  0  0  0  0  0  0  0
    7.6505    7.6686   18.9694 P   0  0  0  0  0  0  0  0  0  0  0  0
    3.6631    9.7611   16.6846 O   0  0  0  0  0  0  0  0  0  0  0  0
    4.1777    9.7657   21.9407 O   0  0  0  0  0  0  0  0  0  0  0  0
    8.3490   10.4254   18.9987 O   0  0  0  0  0  0  0  0  0  0  0  0
    5.0275   12.0743   19.2156 N   0  0  0  0  0  0  0  0  0  0  0  0
    2.6121   10.5219   14.6009 N   0  0  0  0  0  0  0  0  0  0  0  0
    2.6075    8.2465   14.8544 N   0  0  0  0  0  0  0  0  0  0  0  0
    2.6737   10.3864   23.7784 N   0  0  0  0  0  0  0  0  0  0  0  0
    3.5000    8.2693   23.9547 N   0  0  0  0  0  0  0  0  0  0  0  0
   10.4173   11.6631   19.3240 N   0  0  0  0  0  0  0  0  0  0  0  0
   10.7638    9.4812   18.7501 N   0  0  0  0  0  0  0  0  0  0  0  0
    3.0222    9.4716   15.4841 B   0  0  0  0  0  0  0  0  0  0  0  0
    3.5262    9.4425   23.1278 B   0  0  0  0  0  0  0  0  0  0  0  0
    9.7393   10.4436   19.0150 B   0  0  0  0  0  0  0  0  0  0  0  0
    4.3558    8.8911   17.4629 C   0  0  0  0  0  0  0  0  0  0  0  0
    4.6793    8.8829   21.0360 C   0  0  0  0  0  0  0  0  0  0  0  0
    7.5544    9.3369   19.0239 C   0  0  0  0  0  0  0  0  0  0  0  0
    5.2125   10.9417   19.1974 C   0  0  0  0  0  0  0  0  0  0  0  0
    4.8295   13.5166   19.2432 C   0  0  0  0  0  0  0  0  0  0  0  0
    4.8418   13.9440   20.7039 C   0  0  0  0  0  0  0  0  0  0  0  0
    4.7110   14.9136   20.7616 H   0  0  0  0  0  0  0  0  0  0  0  0
    4.1203   13.4875   21.1843 H   0  0  0  0  0  0  0  0  0  0  0  0
    5.7037   13.7065   21.1063 H   0  0  0  0  0  0  0  0  0  0  0  0
    5.9836   14.1449   18.4684 C   0  0  0  0  0  0  0  0  0  0  0  0
    5.8823   15.1197   18.4661 H   0  0  0  0  0  0  0  0  0  0  0  0
    6.8321   13.9054   18.8953 H   0  0  0  0  0  0  0  0  0  0  0  0
    5.9762   13.8136   17.5462 H   0  0  0  0  0  0  0  0  0  0  0  0
    3.4922   13.8090   18.5774 C   0  0  0  0  0  0  0  0  0  0  0  0
    3.3293   14.7754   18.5806 H   0  0  0  0  0  0  0  0  0  0  0  0
    3.5085   13.4837   17.6530 H   0  0  0  0  0  0  0  0  0  0  0  0
    2.7755   13.3559   19.0698 H   0  0  0  0  0  0  0  0  0  0  0  0
    1.9946    9.9270   13.4856 C   0  0  0  0  0  0  0  0  0  0  0  0
    1.6401   10.3958   12.7391 H   0  0  0  0  0  0  0  0  0  0  0  0
    1.9849    8.6018   13.6399 C   0  0  0  0  0  0  0  0  0  0  0  0
    1.6119    7.9857   13.0205 H   0  0  0  0  0  0  0  0  0  0  0  0
    2.7941   11.9395   14.6736 C   0  0  0  0  0  0  0  0  0  0  0  0
    1.6670   12.7519   14.8964 C   0  0  0  0  0  0  0  0  0  0  0  0
    1.8552   14.1346   14.8883 C   0  0  0  0  0  0  0  0  0  0  0  0
    1.1098   14.7077   15.0226 H   0  0  0  0  0  0  0  0  0  0  0  0
    3.1096   14.6866   14.6879 C   0  0  0  0  0  0  0  0  0  0  0  0
    3.2164   15.6304   14.6882 H   0  0  0  0  0  0  0  0  0  0  0  0
    4.2006   13.8726   14.4887 C   0  0  0  0  0  0  0  0  0  0  0  0
    5.0586   14.2619   14.3672 H   0  0  0  0  0  0  0  0  0  0  0  0
    4.0659   12.4783   14.4616 C   0  0  0  0  0  0  0  0  0  0  0  0
    0.3186   12.1443   15.2185 C   0  0  0  0  0  0  0  0  0  0  0  0
    0.2565   11.2748   14.7284 H   0  0  0  0  0  0  0  0  0  0  0  0
    0.2429   11.8346   16.7125 C   0  0  0  0  0  0  0  0  0  0  0  0
   -0.6302   11.4412   16.9208 H   0  0  0  0  0  0  0  0  0  0  0  0
    0.9518   11.2015   16.9512 H   0  0  0  0  0  0  0  0  0  0  0  0
    0.3585   12.6625   17.2240 H   0  0  0  0  0  0  0  0  0  0  0  0
   -0.8719   13.0040   14.7817 C   0  0  0  0  0  0  0  0  0  0  0  0
   -1.7075   12.5509   15.0210 H   0  0  0  0  0  0  0  0  0  0  0  0
   -0.8308   13.8728   15.2335 H   0  0  0  0  0  0  0  0  0  0  0  0
   -0.8397   13.1384   13.8116 H   0  0  0  0  0  0  0  0  0  0  0  0
    5.2773   11.6009   14.2083 C   0  0  0  0  0  0  0  0  0  0  0  0
    4.9508   10.6665   14.0655 H   0  0  0  0  0  0  0  0  0  0  0  0
    6.2171   11.5845   15.4080 C   0  0  0  0  0  0  0  0  0  0  0  0
    6.9871   11.0104   15.2121 H   0  0  0  0  0  0  0  0  0  0  0  0
    6.5280   12.4956   15.5921 H   0  0  0  0  0  0  0  0  0  0  0  0
    5.7416   11.2371   16.1911 H   0  0  0  0  0  0  0  0  0  0  0  0
    6.0320   12.0248   12.9523 C   0  0  0  0  0  0  0  0  0  0  0  0
    6.8054   11.4370   12.8220 H   0  0  0  0  0  0  0  0  0  0  0  0
    5.4376   11.9596   12.1761 H   0  0  0  0  0  0  0  0  0  0  0  0
    6.3386   12.9503   13.0523 H   0  0  0  0  0  0  0  0  0  0  0  0
    2.7136    6.8619   15.2130 C   0  0  0  0  0  0  0  0  0  0  0  0
    1.9478    6.3733   16.2744 C   0  0  0  0  0  0  0  0  0  0  0  0
    2.0946    5.0221   16.6054 C   0  0  0  0  0  0  0  0  0  0  0  0
    1.5905    4.6583   17.3237 H   0  0  0  0  0  0  0  0  0  0  0  0
    2.9593    4.2121   15.9057 C   0  0  0  0  0  0  0  0  0  0  0  0
    3.0485    3.2982   16.1496 H   0  0  0  0  0  0  0  0  0  0  0  0
    3.6948    4.7109   14.8568 C   0  0  0  0  0  0  0  0  0  0  0  0
    4.2782    4.1333   14.3786 H   0  0  0  0  0  0  0  0  0  0  0  0
    3.6000    6.0481   14.4846 C   0  0  0  0  0  0  0  0  0  0  0  0
    1.0060    7.2826   17.0506 C   0  0  0  0  0  0  0  0  0  0  0  0
    1.4514    8.1766   17.0989 H   0  0  0  0  0  0  0  0  0  0  0  0
    0.7729    6.8406   18.4814 C   0  0  0  0  0  0  0  0  0  0  0  0
    1.6353    6.7148   18.9292 H   0  0  0  0  0  0  0  0  0  0  0  0
    0.2561    7.5261   18.9547 H   0  0  0  0  0  0  0  0  0  0  0  0
    0.2758    5.9962   18.4858 H   0  0  0  0  0  0  0  0  0  0  0  0
   -0.2921    7.4924   16.3143 C   0  0  0  0  0  0  0  0  0  0  0  0
   -0.1040    7.7756   15.3953 H   0  0  0  0  0  0  0  0  0  0  0  0
   -0.7979    6.6524   16.2997 H   0  0  0  0  0  0  0  0  0  0  0  0
   -0.8177    8.1824   16.7687 H   0  0  0  0  0  0  0  0  0  0  0  0
    4.4814    6.6247   13.3812 C   0  0  0  0  0  0  0  0  0  0  0  0
    3.9535    7.3369   12.9183 H   0  0  0  0  0  0  0  0  0  0  0  0
    5.7272    7.2854   13.9625 C   0  0  0  0  0  0  0  0  0  0  0  0
    6.2747    7.6469   13.2349 H   0  0  0  0  0  0  0  0  0  0  0  0
    5.4605    8.0126   14.5633 H   0  0  0  0  0  0  0  0  0  0  0  0
    6.2453    6.6214   14.4632 H   0  0  0  0  0  0  0  0  0  0  0  0
    4.8863    5.5969   12.3250 C   0  0  0  0  0  0  0  0  0  0  0  0
    4.0831    5.1754   11.9546 H   0  0  0  0  0  0  0  0  0  0  0  0
    5.3814    6.0441   11.6071 H   0  0  0  0  0  0  0  0  0  0  0  0
    5.4545    4.9125   12.7364 H   0  0  0  0  0  0  0  0  0  0  0  0
    2.1354    9.7743   24.9165 C   0  0  0  0  0  0  0  0  0  0  0  0
    1.5172   10.1760   25.5155 H   0  0  0  0  0  0  0  0  0  0  0  0
    2.6270    8.5361   25.0285 C   0  0  0  0  0  0  0  0  0  0  0  0
    2.4191    7.9273   25.7275 H   0  0  0  0  0  0  0  0  0  0  0  0
    2.3200   11.7129   23.3826 C   0  0  0  0  0  0  0  0  0  0  0  0
    2.7803   12.7975   24.1555 C   0  0  0  0  0  0  0  0  0  0  0  0
    2.3937   14.0755   23.7549 C   0  0  0  0  0  0  0  0  0  0  0  0
    2.6739   14.8268   24.2642 H   0  0  0  0  0  0  0  0  0  0  0  0
    1.6117   14.2728   22.6325 C   0  0  0  0  0  0  0  0  0  0  0  0
    1.3746   15.1544   22.3697 H   0  0  0  0  0  0  0  0  0  0  0  0
    1.1746   13.1955   21.8935 C   0  0  0  0  0  0  0  0  0  0  0  0
    0.6374   13.3420   21.1237 H   0  0  0  0  0  0  0  0  0  0  0  0
    1.5103   11.8933   22.2603 C   0  0  0  0  0  0  0  0  0  0  0  0
    3.6802   12.5588   25.3571 C   0  0  0  0  0  0  0  0  0  0  0  0
    3.3636   11.7225   25.8049 H   0  0  0  0  0  0  0  0  0  0  0  0
    5.1106   12.3173   24.9070 C   0  0  0  0  0  0  0  0  0  0  0  0
    5.6784   12.1651   25.6910 H   0  0  0  0  0  0  0  0  0  0  0  0
    5.1410   11.5302   24.3238 H   0  0  0  0  0  0  0  0  0  0  0  0
    5.4350   13.1006   24.4156 H   0  0  0  0  0  0  0  0  0  0  0  0
    3.6173   13.6855   26.3959 C   0  0  0  0  0  0  0  0  0  0  0  0
    2.6865   13.8239   26.6716 H   0  0  0  0  0  0  0  0  0  0  0  0
    4.1558   13.4407   27.1769 H   0  0  0  0  0  0  0  0  0  0  0  0
    3.9674   14.5122   26.0033 H   0  0  0  0  0  0  0  0  0  0  0  0
    0.9185   10.7030   21.5232 C   0  0  0  0  0  0  0  0  0  0  0  0
    1.4474    9.8928   21.7752 H   0  0  0  0  0  0  0  0  0  0  0  0
    0.9716   10.8415   20.0159 C   0  0  0  0  0  0  0  0  0  0  0  0
    0.5764   10.0462   19.6007 H   0  0  0  0  0  0  0  0  0  0  0  0
    0.4675   11.6365   19.7428 H   0  0  0  0  0  0  0  0  0  0  0  0
    1.9038   10.9309   19.7284 H   0  0  0  0  0  0  0  0  0  0  0  0
   -0.5133   10.4939   22.0057 C   0  0  0  0  0  0  0  0  0  0  0  0
   -0.5199   10.4082   22.9819 H   0  0  0  0  0  0  0  0  0  0  0  0
   -1.0622   11.2625   21.7421 H   0  0  0  0  0  0  0  0  0  0  0  0
   -0.8782    9.6788   21.6033 H   0  0  0  0  0  0  0  0  0  0  0  0
    4.1505    7.0018   23.8647 C   0  0  0  0  0  0  0  0  0  0  0  0
    5.5358    6.9231   24.0750 C   0  0  0  0  0  0  0  0  0  0  0  0
    6.1375    5.6830   23.9487 C   0  0  0  0  0  0  0  0  0  0  0  0
    7.0757    5.6029   24.0747 H   0  0  0  0  0  0  0  0  0  0  0  0
    5.3924    4.5560   23.6410 C   0  0  0  0  0  0  0  0  0  0  0  0
    5.8236    3.7142   23.5548 H   0  0  0  0  0  0  0  0  0  0  0  0
    4.0341    4.6471   23.4599 C   0  0  0  0  0  0  0  0  0  0  0  0
    3.5345    3.8623   23.2666 H   0  0  0  0  0  0  0  0  0  0  0  0
    3.3772    5.8695   23.5551 C   0  0  0  0  0  0  0  0  0  0  0  0
    6.3398    8.1639   24.4307 C   0  0  0  0  0  0  0  0  0  0  0  0
    5.9815    8.9189   23.8816 H   0  0  0  0  0  0  0  0  0  0  0  0
    7.8189    8.0408   24.1206 C   0  0  0  0  0  0  0  0  0  0  0  0
    8.2758    8.8712   24.3728 H   0  0  0  0  0  0  0  0  0  0  0  0
    8.1985    7.2931   24.6273 H   0  0  0  0  0  0  0  0  0  0  0  0
    7.9400    7.8807   23.1614 H   0  0  0  0  0  0  0  0  0  0  0  0
    6.1291    8.5283   25.8995 C   0  0  0  0  0  0  0  0  0  0  0  0
    5.1697    8.6035   26.0832 H   0  0  0  0  0  0  0  0  0  0  0  0
    6.5171    7.8306   26.4680 H   0  0  0  0  0  0  0  0  0  0  0  0
    6.5663    9.3847   26.0894 H   0  0  0  0  0  0  0  0  0  0  0  0
    1.8973    5.9424   23.2598 C   0  0  0  0  0  0  0  0  0  0  0  0
    1.6270    6.9050   23.2758 H   0  0  0  0  0  0  0  0  0  0  0  0
    1.5939    5.3920   21.8696 C   0  0  0  0  0  0  0  0  0  0  0  0
    0.6299    5.4487   21.6992 H   0  0  0  0  0  0  0  0  0  0  0  0
    2.0754    5.9176   21.1975 H   0  0  0  0  0  0  0  0  0  0  0  0
    1.8794    4.4560   21.8190 H   0  0  0  0  0  0  0  0  0  0  0  0
    1.0784    5.2048   24.3231 C   0  0  0  0  0  0  0  0  0  0  0  0
    0.1251    5.2697   24.1044 H   0  0  0  0  0  0  0  0  0  0  0  0
    1.3447    4.2619   24.3449 H   0  0  0  0  0  0  0  0  0  0  0  0
    1.2405    5.6105   25.2002 H   0  0  0  0  0  0  0  0  0  0  0  0
   11.7925   11.4248   19.2367 C   0  0  0  0  0  0  0  0  0  0  0  0
   12.4716   12.0696   19.3964 H   0  0  0  0  0  0  0  0  0  0  0  0
   12.0039   10.1532   18.8946 C   0  0  0  0  0  0  0  0  0  0  0  0
   12.8578    9.7570   18.7670 H   0  0  0  0  0  0  0  0  0  0  0  0
    9.8799   12.9384   19.7060 C   0  0  0  0  0  0  0  0  0  0  0  0
    9.3426   13.0969   20.9772 C   0  0  0  0  0  0  0  0  0  0  0  0
    8.8481   14.3825   21.2927 C   0  0  0  0  0  0  0  0  0  0  0  0
    8.4778   14.5423   22.1525 H   0  0  0  0  0  0  0  0  0  0  0  0
    8.8960   15.4059   20.3759 C   0  0  0  0  0  0  0  0  0  0  0  0
    8.5546   16.2599   20.6137 H   0  0  0  0  0  0  0  0  0  0  0  0
    9.4217   15.2207   19.1369 C   0  0  0  0  0  0  0  0  0  0  0  0
    9.4435   15.9435   18.5207 H   0  0  0  0  0  0  0  0  0  0  0  0
    9.9284   13.9825   18.7647 C   0  0  0  0  0  0  0  0  0  0  0  0
    9.2905   11.9651   21.9748 C   0  0  0  0  0  0  0  0  0  0  0  0
    9.6246   11.1482   21.5047 H   0  0  0  0  0  0  0  0  0  0  0  0
    7.8755   11.6793   22.3956 C   0  0  0  0  0  0  0  0  0  0  0  0
    7.8690   10.9418   23.0412 H   0  0  0  0  0  0  0  0  0  0  0  0
    7.4887   12.4787   22.8081 H   0  0  0  0  0  0  0  0  0  0  0  0
    7.3456   11.4282   21.6093 H   0  0  0  0  0  0  0  0  0  0  0  0
   10.2252   12.2137   23.1384 C   0  0  0  0  0  0  0  0  0  0  0  0
   11.1268   12.3940   22.8003 H   0  0  0  0  0  0  0  0  0  0  0  0
    9.9082   12.9868   23.6517 H   0  0  0  0  0  0  0  0  0  0  0  0
   10.2441   11.4235   23.7168 H   0  0  0  0  0  0  0  0  0  0  0  0
   10.4016   13.7336   17.3469 C   0  0  0  0  0  0  0  0  0  0  0  0
   11.1223   13.0415   17.3845 H   0  0  0  0  0  0  0  0  0  0  0  0
    9.2490   13.1554   16.5447 C   0  0  0  0  0  0  0  0  0  0  0  0
    9.5418   12.9896   15.6244 H   0  0  0  0  0  0  0  0  0  0  0  0
    8.9578   12.3128   16.9518 H   0  0  0  0  0  0  0  0  0  0  0  0
    8.5027   13.7909   16.5405 H   0  0  0  0  0  0  0  0  0  0  0  0
   10.9730   14.9594   16.6388 C   0  0  0  0  0  0  0  0  0  0  0  0
   11.2533   14.7122   15.7329 H   0  0  0  0  0  0  0  0  0  0  0  0
   10.2867   15.6574   16.5893 H   0  0  0  0  0  0  0  0  0  0  0  0
   11.7452   15.2956   17.1395 H   0  0  0  0  0  0  0  0  0  0  0  0
   10.7846    8.1028   18.3551 C   0  0  0  0  0  0  0  0  0  0  0  0
   11.1459    7.1337   19.3037 C   0  0  0  0  0  0  0  0  0  0  0  0
   11.1956    5.8021   18.8827 C   0  0  0  0  0  0  0  0  0  0  0  0
   11.4294    5.1232   19.5047 H   0  0  0  0  0  0  0  0  0  0  0  0
   10.9100    5.4580   17.5778 C   0  0  0  0  0  0  0  0  0  0  0  0
   10.9527    4.5478   17.3093 H   0  0  0  0  0  0  0  0  0  0  0  0
   10.5647    6.4231   16.6651 C   0  0  0  0  0  0  0  0  0  0  0  0
   10.3710    6.1709   15.7700 H   0  0  0  0  0  0  0  0  0  0  0  0
   10.4931    7.7724   17.0302 C   0  0  0  0  0  0  0  0  0  0  0  0
   11.4284    7.4900   20.7532 C   0  0  0  0  0  0  0  0  0  0  0  0
   11.5996    8.4748   20.7897 H   0  0  0  0  0  0  0  0  0  0  0  0
   10.2575    7.2128   21.6232 C   0  0  0  0  0  0  0  0  0  0  0  0
    9.4658    7.6607   21.2582 H   0  0  0  0  0  0  0  0  0  0  0  0
   10.0981    6.2461   21.6584 H   0  0  0  0  0  0  0  0  0  0  0  0
   10.4346    7.5475   22.5269 H   0  0  0  0  0  0  0  0  0  0  0  0
   12.6464    6.8028   21.3104 C   0  0  0  0  0  0  0  0  0  0  0  0
   13.4171    6.9886   20.7346 H   0  0  0  0  0  0  0  0  0  0  0  0
   12.8249    7.1385   22.2137 H   0  0  0  0  0  0  0  0  0  0  0  0
   12.4884    5.8372   21.3452 H   0  0  0  0  0  0  0  0  0  0  0  0
   10.1390    8.8255   15.9941 C   0  0  0  0  0  0  0  0  0  0  0  0
    9.9548    9.6866   16.4682 H   0  0  0  0  0  0  0  0  0  0  0  0
    8.9208    8.4596   15.1764 C   0  0  0  0  0  0  0  0  0  0  0  0
    8.7385    9.1707   14.5269 H   0  0  0  0  0  0  0  0  0  0  0  0
    9.0867    7.6186   14.7022 H   0  0  0  0  0  0  0  0  0  0  0  0
    8.1488    8.3538   15.7703 H   0  0  0  0  0  0  0  0  0  0  0  0
   11.3225    9.0367   15.0488 C   0  0  0  0  0  0  0  0  0  0  0  0
   12.1182    9.2744   15.5694 H   0  0  0  0  0  0  0  0  0  0  0  0
   11.4937    8.2108   14.5497 H   0  0  0  0  0  0  0  0  0  0  0  0
   11.1148    9.7603   14.4213 H   0  0  0  0  0  0  0  0  0  0  0  0
  1  2  1  0  0  0  0
  2 18  2  0  0  0  0
  3  1  1  0  0  0  0
  4  1  1  0  0  0  0
  5 15  1  0  0  0  0
  6 16  1  0  0  0  0
  7 17  1  0  0  0  0
  8 21  3  0  0  0  0
  9 15  1  0  0  0  0
 10 15  1  0  0  0  0
 11 16  1  0  0  0  0
 12 16  1  0  0  0  0
 13 17  1  0  0  0  0
 14 17  1  0  0  0  0
 18  1  1  0  0  0  0
 19  1  1  0  0  0  0
 20  1  1  0  0  0  0
 21  1  1  0  0  0  0
 22  8  1  0  0  0  0
 23 22  1  0  0  0  0
 24 23  1  0  0  0  0
 25 23  1  0  0  0  0
 26 23  1  0  0  0  0
 27 22  1  0  0  0  0
 28 27  1  0  0  0  0
 29 27  1  0  0  0  0
 30 27  1  0  0  0  0
 31 22  1  0  0  0  0
 32 31  1  0  0  0  0
 33 31  1  0  0  0  0
 34 31  1  0  0  0  0
 35  9  1  0  0  0  0
 36 35  1  0  0  0  0
 37 10  1  0  0  0  0
 38 37  1  0  0  0  0
 39  9  1  0  0  0  0
 40 39  4  0  0  0  0
 41 40  4  0  0  0  0
 42 41  1  0  0  0  0
 43 41  4  0  0  0  0
 44 43  1  0  0  0  0
 45 43  4  0  0  0  0
 46 45  1  0  0  0  0
 47 39  4  0  0  0  0
 48 40  1  0  0  0  0
 49 48  1  0  0  0  0
 50 48  1  0  0  0  0
 51 50  1  0  0  0  0
 52 50  1  0  0  0  0
 53 50  1  0  0  0  0
 54 48  1  0  0  0  0
 55 54  1  0  0  0  0
 56 54  1  0  0  0  0
 57 54  1  0  0  0  0
 58 47  1  0  0  0  0
 59 58  1  0  0  0  0
 60 58  1  0  0  0  0
 61 60  1  0  0  0  0
 62 60  1  0  0  0  0
 63 60  1  0  0  0  0
 64 58  1  0  0  0  0
 65 64  1  0  0  0  0
 66 64  1  0  0  0  0
 67 64  1  0  0  0  0
 68 10  1  0  0  0  0
 69 68  4  0  0  0  0
 70 69  4  0  0  0  0
 71 70  1  0  0  0  0
 72 70  4  0  0  0  0
 73 72  1  0  0  0  0
 74 72  4  0  0  0  0
 75 74  1  0  0  0  0
 76 68  4  0  0  0  0
 77 69  1  0  0  0  0
 78 77  1  0  0  0  0
 79 77  1  0  0  0  0
 80 79  1  0  0  0  0
 81 79  1  0  0  0  0
 82 79  1  0  0  0  0
 83 77  1  0  0  0  0
 84 83  1  0  0  0  0
 85 83  1  0  0  0  0
 86 83  1  0  0  0  0
 87 76  1  0  0  0  0
 88 87  1  0  0  0  0
 89 87  1  0  0  0  0
 90 89  1  0  0  0  0
 91 89  1  0  0  0  0
 92 89  1  0  0  0  0
 93 87  1  0  0  0  0
 94 93  1  0  0  0  0
 95 93  1  0  0  0  0
 96 93  1  0  0  0  0
 97 11  1  0  0  0  0
 98 97  1  0  0  0  0
 99 12  1  0  0  0  0
100 99  1  0  0  0  0
101 11  1  0  0  0  0
102101  4  0  0  0  0
103102  4  0  0  0  0
104103  1  0  0  0  0
105103  4  0  0  0  0
106105  1  0  0  0  0
107105  4  0  0  0  0
108107  1  0  0  0  0
109101  4  0  0  0  0
110102  1  0  0  0  0
111110  1  0  0  0  0
112110  1  0  0  0  0
113112  1  0  0  0  0
114112  1  0  0  0  0
115112  1  0  0  0  0
116110  1  0  0  0  0
117116  1  0  0  0  0
118116  1  0  0  0  0
119116  1  0  0  0  0
120109  1  0  0  0  0
121120  1  0  0  0  0
122120  1  0  0  0  0
123122  1  0  0  0  0
124122  1  0  0  0  0
125122  1  0  0  0  0
126120  1  0  0  0  0
127126  1  0  0  0  0
128126  1  0  0  0  0
129126  1  0  0  0  0
130 12  1  0  0  0  0
131130  4  0  0  0  0
132131  4  0  0  0  0
133132  1  0  0  0  0
134132  4  0  0  0  0
135134  1  0  0  0  0
136134  4  0  0  0  0
137136  1  0  0  0  0
138130  4  0  0  0  0
139131  1  0  0  0  0
140139  1  0  0  0  0
141139  1  0  0  0  0
142141  1  0  0  0  0
143141  1  0  0  0  0
144141  1  0  0  0  0
145139  1  0  0  0  0
146145  1  0  0  0  0
147145  1  0  0  0  0
148145  1  0  0  0  0
149138  1  0  0  0  0
150149  1  0  0  0  0
151149  1  0  0  0  0
152151  1  0  0  0  0
153151  1  0  0  0  0
154151  1  0  0  0  0
155149  1  0  0  0  0
156155  1  0  0  0  0
157155  1  0  0  0  0
158155  1  0  0  0  0
159 13  1  0  0  0  0
160159  1  0  0  0  0
161 14  1  0  0  0  0
162161  1  0  0  0  0
163 13  1  0  0  0  0
164163  4  0  0  0  0
165164  4  0  0  0  0
166165  1  0  0  0  0
167165  4  0  0  0  0
168167  1  0  0  0  0
169167  4  0  0  0  0
170169  1  0  0  0  0
171163  4  0  0  0  0
172164  1  0  0  0  0
173172  1  0  0  0  0
174172  1  0  0  0  0
175174  1  0  0  0  0
176174  1  0  0  0  0
177174  1  0  0  0  0
178172  1  0  0  0  0
179178  1  0  0  0  0
180178  1  0  0  0  0
181178  1  0  0  0  0
182171  1  0  0  0  0
183182  1  0  0  0  0
184182  1  0  0  0  0
185184  1  0  0  0  0
186184  1  0  0  0  0
187184  1  0  0  0  0
188182  1  0  0  0  0
189188  1  0  0  0  0
190188  1  0  0  0  0
191188  1  0  0  0  0
192 14  1  0  0  0  0
193192  4  0  0  0  0
194193  4  0  0  0  0
195194  1  0  0  0  0
196194  4  0  0  0  0
197196  1  0  0  0  0
198196  4  0  0  0  0
199198  1  0  0  0  0
200192  4  0  0  0  0
201193  1  0  0  0  0
202201  1  0  0  0  0
203201  1  0  0  0  0
204203  1  0  0  0  0
205203  1  0  0  0  0
206203  1  0  0  0  0
207201  1  0  0  0  0
208207  1  0  0  0  0
209207  1  0  0  0  0
210207  1  0  0  0  0
211200  1  0  0  0  0
212211  1  0  0  0  0
213211  1  0  0  0  0
214213  1  0  0  0  0
215213  1  0  0  0  0
216213  1  0  0  0  0
217211  1  0  0  0  0
218217  1  0  0  0  0
219217  1  0  0  0  0
220217  1  0  0  0  0
  3 19  2  0  0  0  0
  4 20  2  0  0  0  0
  5 18  1  0  0  0  0
  6 19  1  0  0  0  0
  7 20  1  0  0  0  0
 35 37  2  0  0  0  0
 45 47  4  0  0  0  0
 74 76  4  0  0  0  0
 97 99  2  0  0  0  0
107109  4  0  0  0  0
136138  4  0  0  0  0
159161  2  0  0  0  0
169171  4  0  0  0  0
198200  4  0  0  0  0
M  END
$$$$
MPCIRB10

From CSD data. Using bond type 'Any'. No disordered atoms. Largest molecule.
 26 33  0  0  0  0  0  0  0  0999 V2000
    5.6288    0.6440    1.7552 Br  0  0  0  0  0  0  0  0  0  0  0  0
    2.1821    1.6399    0.6704 Br  0  0  0  0  0  0  0  0  0  0  0  0
    0.1823   -0.8155    4.0947 B   0  0  0  0  0  0  0  0  0  0  0  0
    1.2934    0.3422    3.5607 B   0  0  0  0  0  0  0  0  0  0  0  0
   -0.4506    0.3038    3.0753 B   0  0  0  0  0  0  0  0  0  0  0  0
   -1.0400    0.1151    4.7813 B   0  0  0  0  0  0  0  0  0  0  0  0
    0.6677    0.1908    5.3614 B   0  0  0  0  0  0  0  0  0  0  0  0
    3.8591   -0.3795    4.2775 C   0  0  0  0  0  0  0  0  0  0  0  0
    4.3445    2.7153    5.1654 C   0  0  0  0  0  0  0  0  0  0  0  0
    2.0155    3.6747    3.8185 C   0  0  0  0  0  0  0  0  0  0  0  0
    4.4997    3.7312    2.4676 C   0  0  0  0  0  0  0  0  0  0  0  0
    3.2369   -3.0329    2.5478 C   0  0  0  0  0  0  0  0  0  0  0  0
    3.9276   -1.6769    0.0250 C   0  0  0  0  0  0  0  0  0  0  0  0
    1.1987   -1.8880    0.8668 C   0  0  0  0  0  0  0  0  0  0  0  0
    0.0978   -1.8827    3.9290 H   0  0  0  0  0  0  0  0  0  0  0  0
   -1.0722    0.0714    2.2164 H   0  0  0  0  0  0  0  0  0  0  0  0
   -2.0306   -0.5650    5.7560 H   0  0  0  0  0  0  0  0  0  0  0  0
    1.2075    0.0000    6.4084 H   0  0  0  0  0  0  0  0  0  0  0  0
    0.6148    1.2046    3.1029 H   0  0  0  0  0  0  0  0  0  0  0  0
   -1.1891    1.0458    3.6896 H   0  0  0  0  0  0  0  0  0  0  0  0
   -0.4479    0.9062    5.0654 H   0  0  0  0  0  0  0  0  0  0  0  0
    1.1251    1.0714    4.2973 H   0  0  0  0  0  0  0  0  0  0  0  0
    3.1641    0.4969    2.6850 Ir  0  0  0  0  0  0  0  0  0  0  0  0
    4.1575   -0.8017    5.0623 O   0  0  0  0  0  0  0  0  0  0  0  0
    3.5055    2.6662    3.5534 P   0  0  0  0  0  0  0  0  0  0  0  0
    2.8495   -1.5362    1.5257 P   0  0  0  0  0  0  0  0  0  0  0  0
  1 23  1  0  0  0  0
  2 23  1  0  0  0  0
  3  4  1  0  0  0  0
  4  5  1  0  0  0  0
  5  3  1  0  0  0  0
  6  3  1  0  0  0  0
  7  3  1  0  0  0  0
  8 23  1  0  0  0  0
  9 25  1  0  0  0  0
 10 25  1  0  0  0  0
 11 25  1  0  0  0  0
 12 26  1  0  0  0  0
 13 26  1  0  0  0  0
 14 26  1  0  0  0  0
 15  3  1  0  0  0  0
 16  5  1  0  0  0  0
 17  6  1  0  0  0  0
 18  7  1  0  0  0  0
 19  4  1  0  0  0  0
 20  5  1  0  0  0  0
 21  6  1  0  0  0  0
 22  4  1  0  0  0  0
 23  4  1  0  0  0  0
 24  8  3  0  0  0  0
 25 23  1  0  0  0  0
 26 23  1  0  0  0  0
  4  7  1  0  0  0  0
  5  6  1  0  0  0  0
  5 19  1  0  0  0  0
  6  7  1  0  0  0  0
  6 20  1  0  0  0  0
  7 21  1  0  0  0  0
  7 22  1  0  0  0  0
M  END
$$$$
MURWAZ

From CSD data. Using bond type 'Any'. Matching problem. No disordered atoms. Largest molecule.
145163  0  0  0  0  0  0  0  0999 V2000
    6.4303   13.8053    9.1859 C   0  0  0  0  0  0  0  0  0  0  0  0
    6.2993   13.6130   10.5625 C   0  0  0  0  0  0  0  0  0  0  0  0
    5.6880   12.4564   11.0425 C   0  0  0  0  0  0  0  0  0  0  0  0
    5.1780   11.5247   10.1730 C   0  0  0  0  0  0  0  0  0  0  0  0
    5.3116   11.7091    8.8145 C   0  0  0  0  0  0  0  0  0  0  0  0
    5.9554   12.8462    8.3300 C   0  0  0  0  0  0  0  0  0  0  0  0
    5.8889   16.4495    8.2394 C   0  0  0  0  0  0  0  0  0  0  0  0
    4.5352   16.1861    8.4523 C   0  0  0  0  0  0  0  0  0  0  0  0
    3.5851   17.1638    8.1602 C   0  0  0  0  0  0  0  0  0  0  0  0
    3.9638   18.4091    7.6870 C   0  0  0  0  0  0  0  0  0  0  0  0
    5.3022   18.7311    7.4854 C   0  0  0  0  0  0  0  0  0  0  0  0
    6.2211   17.7184    7.7594 C   0  0  0  0  0  0  0  0  0  0  0  0
    8.1482   16.0090    9.9149 C   0  0  0  0  0  0  0  0  0  0  0  0
    7.5981   16.9974   10.6870 C   0  0  0  0  0  0  0  0  0  0  0  0
    8.2660   17.5479   11.7535 C   0  0  0  0  0  0  0  0  0  0  0  0
    9.5005   17.1374   12.0365 C   0  0  0  0  0  0  0  0  0  0  0  0
   10.0955   16.1592   11.3051 C   0  0  0  0  0  0  0  0  0  0  0  0
    9.4070   15.5672   10.2410 C   0  0  0  0  0  0  0  0  0  0  0  0
    5.8564   20.0956    7.0756 C   0  0  0  0  0  0  0  0  0  0  0  0
    4.8009   20.9520    6.3669 C   0  0  0  0  0  0  0  0  0  0  0  0
    6.3452   20.8149    8.3617 C   0  0  0  0  0  0  0  0  0  0  0  0
    7.0805   19.8396    6.1790 C   0  0  0  0  0  0  0  0  0  0  0  0
    7.4960   20.6440    5.1239 C   0  0  0  0  0  0  0  0  0  0  0  0
    8.6432   20.3376    4.3971 C   0  0  0  0  0  0  0  0  0  0  0  0
    9.3688   19.1735    4.6642 C   0  0  0  0  0  0  0  0  0  0  0  0
    8.9483   18.3343    5.6990 C   0  0  0  0  0  0  0  0  0  0  0  0
    7.8618   18.7206    6.4620 C   0  0  0  0  0  0  0  0  0  0  0  0
   11.0860   17.2550    7.2137 C   0  0  0  0  0  0  0  0  0  0  0  0
   10.9730   18.4608    7.9270 C   0  0  0  0  0  0  0  0  0  0  0  0
   11.9645   18.8343    8.8191 C   0  0  0  0  0  0  0  0  0  0  0  0
   13.0605   18.0149    9.0251 C   0  0  0  0  0  0  0  0  0  0  0  0
   13.1843   16.8312    8.3481 C   0  0  0  0  0  0  0  0  0  0  0  0
   12.1969   16.4587    7.4424 C   0  0  0  0  0  0  0  0  0  0  0  0
   13.0771   15.7846    2.7646 C   0  0  0  0  0  0  0  0  0  0  0  0
   13.6203   16.3987    3.8876 C   0  0  0  0  0  0  0  0  0  0  0  0
   14.9804   16.4322    4.0823 C   0  0  0  0  0  0  0  0  0  0  0  0
   15.8312   15.8080    3.1857 C   0  0  0  0  0  0  0  0  0  0  0  0
   15.2986   15.1784    2.0717 C   0  0  0  0  0  0  0  0  0  0  0  0
   13.9242   15.1804    1.8431 C   0  0  0  0  0  0  0  0  0  0  0  0
   10.9786   14.5611    1.1932 C   0  0  0  0  0  0  0  0  0  0  0  0
   11.2179   13.2070    1.3947 C   0  0  0  0  0  0  0  0  0  0  0  0
   11.0369   12.3082    0.3487 C   0  0  0  0  0  0  0  0  0  0  0  0
   10.6318   12.7585   -0.8989 C   0  0  0  0  0  0  0  0  0  0  0  0
   10.3955   14.0992   -1.0981 C   0  0  0  0  0  0  0  0  0  0  0  0
   10.5646   15.0052   -0.0589 C   0  0  0  0  0  0  0  0  0  0  0  0
   10.7949   17.3458    1.9042 C   0  0  0  0  0  0  0  0  0  0  0  0
   11.7137   18.3495    1.6166 C   0  0  0  0  0  0  0  0  0  0  0  0
   11.2558   19.5804    1.1593 C   0  0  0  0  0  0  0  0  0  0  0  0
    9.9059   19.8105    0.9510 C   0  0  0  0  0  0  0  0  0  0  0  0
    8.9630   18.8166    1.2159 C   0  0  0  0  0  0  0  0  0  0  0  0
    9.4465   17.6161    1.7095 C   0  0  0  0  0  0  0  0  0  0  0  0
    7.4531   18.9256    0.9691 C   0  0  0  0  0  0  0  0  0  0  0  0
    6.9936   20.3873    0.8536 C   0  0  0  0  0  0  0  0  0  0  0  0
    7.1137   18.1888   -0.3487 C   0  0  0  0  0  0  0  0  0  0  0  0
    6.7716   18.2209    2.1510 C   0  0  0  0  0  0  0  0  0  0  0  0
    5.5890   18.6188    2.7578 C   0  0  0  0  0  0  0  0  0  0  0  0
    5.0857   17.9482    3.8582 C   0  0  0  0  0  0  0  0  0  0  0  0
    5.7889   16.8782    4.4175 C   0  0  0  0  0  0  0  0  0  0  0  0
    6.9838   16.4537    3.8356 C   0  0  0  0  0  0  0  0  0  0  0  0
    7.4049   17.0956    2.6763 C   0  0  0  0  0  0  0  0  0  0  0  0
    7.1962   13.6403    3.8740 C   0  0  0  0  0  0  0  0  0  0  0  0
    7.8145   12.8885    2.8710 C   0  0  0  0  0  0  0  0  0  0  0  0
    7.1920   11.7493    2.3751 C   0  0  0  0  0  0  0  0  0  0  0  0
    5.9654   11.3652    2.8597 C   0  0  0  0  0  0  0  0  0  0  0  0
    5.3345   12.1059    3.8106 C   0  0  0  0  0  0  0  0  0  0  0  0
    5.9430   13.2623    4.3201 C   0  0  0  0  0  0  0  0  0  0  0  0
   12.0982   12.2198    7.2839 C   0  0  0  0  0  0  0  0  0  0  0  0
   10.4539   11.0396    5.9548 C   0  0  0  0  0  0  0  0  0  0  0  0
    8.6964   14.8643    6.6804 Rh  0  3  0  0  0  0  0  0  0  0  0  0
   10.2336   15.0745    4.6031 Rh  0  3  0  0  0  0  0  0  0  0  0  0
    9.7698   16.7434    6.0647 P   0  0  0  0  0  0  0  0  0  0  0  0
    7.5667   17.9408    7.5611 O   0  0  0  0  0  0  0  0  0  0  0  0
    7.2649   15.2747    8.4889 P   0  0  0  0  0  0  0  0  0  0  0  0
    7.9883   15.1234    4.5653 P   0  0  0  0  0  0  0  0  0  0  0  0
    8.5525   16.6165    2.0654 O   0  0  0  0  0  0  0  0  0  0  0  0
   11.2540   15.7120    2.6047 P   0  0  0  0  0  0  0  0  0  0  0  0
   11.3155   13.1966    5.1216 B   0  5  0  0  0  0  0  0  0  0  0  0
   10.8985   12.3830    6.4145 N   0  3  0  0  0  0  0  0  0  0  0  0
    9.7209   12.9837    7.3156 B   0  5  0  0  0  0  0  0  0  0  0  0
    6.6062   14.2664   11.1534 H   0  0  0  0  0  0  0  0  0  0  0  0
    5.6182   12.3082   11.9550 H   0  0  0  0  0  0  0  0  0  0  0  0
    4.7382   10.7574   10.5014 H   0  0  0  0  0  0  0  0  0  0  0  0
    4.9734   11.0767    8.2304 H   0  0  0  0  0  0  0  0  0  0  0  0
    6.0802   12.9585    7.4107 H   0  0  0  0  0  0  0  0  0  0  0  0
    4.2734   15.3499    8.7964 H   0  0  0  0  0  0  0  0  0  0  0  0
    2.6895   16.9819    8.2983 H   0  0  0  0  0  0  0  0  0  0  0  0
    3.3034   19.0521    7.5217 H   0  0  0  0  0  0  0  0  0  0  0  0
    6.7429   17.3093   10.4651 H   0  0  0  0  0  0  0  0  0  0  0  0
    7.8585   18.2072   12.2855 H   0  0  0  0  0  0  0  0  0  0  0  0
    9.9784   17.5459   12.7225 H   0  0  0  0  0  0  0  0  0  0  0  0
   10.9380   15.8537   11.5293 H   0  0  0  0  0  0  0  0  0  0  0  0
    9.8053   14.9093    9.7338 H   0  0  0  0  0  0  0  0  0  0  0  0
    5.1401   21.8417    6.2379 H   0  0  0  0  0  0  0  0  0  0  0  0
    4.0060   20.9881    6.9081 H   0  0  0  0  0  0  0  0  0  0  0  0
    4.5934   20.5646    5.5065 H   0  0  0  0  0  0  0  0  0  0  0  0
    6.7294   21.6669    8.1172 H   0  0  0  0  0  0  0  0  0  0  0  0
    5.6071   20.9746    8.9504 H   0  0  0  0  0  0  0  0  0  0  0  0
    7.0105   20.2751    8.8304 H   0  0  0  0  0  0  0  0  0  0  0  0
    7.0022   21.3845    4.8907 H   0  0  0  0  0  0  0  0  0  0  0  0
    8.9259   20.9142    3.7201 H   0  0  0  0  0  0  0  0  0  0  0  0
   10.1127   18.9638    4.1480 H   0  0  0  0  0  0  0  0  0  0  0  0
   10.2400   19.0152    7.7979 H   0  0  0  0  0  0  0  0  0  0  0  0
   11.8967   19.6340    9.2832 H   0  0  0  0  0  0  0  0  0  0  0  0
   13.7195   18.2737    9.6364 H   0  0  0  0  0  0  0  0  0  0  0  0
   13.9184   16.2697    8.4840 H   0  0  0  0  0  0  0  0  0  0  0  0
   12.2806   15.6451    6.9873 H   0  0  0  0  0  0  0  0  0  0  0  0
   13.0620   16.8062    4.5193 H   0  0  0  0  0  0  0  0  0  0  0  0
   15.3429   16.8848    4.8205 H   0  0  0  0  0  0  0  0  0  0  0  0
   16.7570   15.8165    3.3397 H   0  0  0  0  0  0  0  0  0  0  0  0
   15.8642   14.7419    1.4740 H   0  0  0  0  0  0  0  0  0  0  0  0
   13.5678   14.7742    1.0800 H   0  0  0  0  0  0  0  0  0  0  0  0
   11.4857   12.9055    2.2370 H   0  0  0  0  0  0  0  0  0  0  0  0
   11.1963   11.3969    0.5027 H   0  0  0  0  0  0  0  0  0  0  0  0
   10.5003   12.1566   -1.6053 H   0  0  0  0  0  0  0  0  0  0  0  0
   10.1226   14.3908   -1.9404 H   0  0  0  0  0  0  0  0  0  0  0  0
   10.4017   15.9142   -0.2038 H   0  0  0  0  0  0  0  0  0  0  0  0
   12.6343   18.2003    1.7366 H   0  0  0  0  0  0  0  0  0  0  0  0
   11.8731   20.2782    1.0121 H   0  0  0  0  0  0  0  0  0  0  0  0
    9.6292   20.6438    0.6227 H   0  0  0  0  0  0  0  0  0  0  0  0
    6.0333   20.4052    0.7676 H   0  0  0  0  0  0  0  0  0  0  0  0
    7.2544   20.8958    1.6393 H   0  0  0  0  0  0  0  0  0  0  0  0
    7.3795   20.7830    0.0566 H   0  0  0  0  0  0  0  0  0  0  0  0
    6.1675   18.1811   -0.4460 H   0  0  0  0  0  0  0  0  0  0  0  0
    7.5072   18.6741   -1.0846 H   0  0  0  0  0  0  0  0  0  0  0  0
    7.4418   17.2855   -0.3260 H   0  0  0  0  0  0  0  0  0  0  0  0
    5.1312   19.3572    2.4182 H   0  0  0  0  0  0  0  0  0  0  0  0
    4.2731   18.2080    4.2318 H   0  0  0  0  0  0  0  0  0  0  0  0
    5.4584   16.4396    5.1918 H   0  0  0  0  0  0  0  0  0  0  0  0
    8.6515   13.1447    2.5314 H   0  0  0  0  0  0  0  0  0  0  0  0
    7.5947   11.2386    1.7095 H   0  0  0  0  0  0  0  0  0  0  0  0
    5.5761   10.5898    2.5359 H   0  0  0  0  0  0  0  0  0  0  0  0
    4.4884   11.8386    4.1208 H   0  0  0  0  0  0  0  0  0  0  0  0
    5.4987   13.7815    4.9609 H   0  0  0  0  0  0  0  0  0  0  0  0
   12.3365   13.0658    7.6802 H   0  0  0  0  0  0  0  0  0  0  0  0
   12.8181   11.8929    6.7450 H   0  0  0  0  0  0  0  0  0  0  0  0
   11.9012   11.5882    7.9677 H   0  0  0  0  0  0  0  0  0  0  0  0
    9.6642   11.1626    5.4069 H   0  0  0  0  0  0  0  0  0  0  0  0
   11.1527   10.6421    5.4341 H   0  0  0  0  0  0  0  0  0  0  0  0
   10.2473   10.5032    6.7360 H   0  0  0  0  0  0  0  0  0  0  0  0
   12.1396   12.6483    4.5397 H   0  0  0  0  0  0  0  0  0  0  0  0
   10.0868   14.1656    7.7707 H   0  0  0  0  0  0  0  0  0  0  0  0
   10.4063   13.2984    4.3450 H   0  0  0  0  0  0  0  0  0  0  0  0
    8.6333   12.9057    6.7609 H   0  0  0  0  0  0  0  0  0  0  0  0
    9.5792   12.2530    8.2009 H   0  0  0  0  0  0  0  0  0  0  0  0
   11.7833   14.3542    5.5020 H   0  0  0  0  0  0  0  0  0  0  0  0
  1  2  4  0  0  0  0
  2  3  4  0  0  0  0
  3  4  4  0  0  0  0
  4  5  4  0  0  0  0
  5  6  4  0  0  0  0
  6  1  4  0  0  0  0
  7  8  4  0  0  0  0
  8  9  4  0  0  0  0
  9 10  4  0  0  0  0
 10 11  4  0  0  0  0
 11 12  4  0  0  0  0
 12  7  4  0  0  0  0
 13 14  4  0  0  0  0
 14 15  4  0  0  0  0
 15 16  4  0  0  0  0
 16 17  4  0  0  0  0
 17 18  4  0  0  0  0
 18 13  4  0  0  0  0
 19 11  1  0  0  0  0
 20 19  1  0  0  0  0
 21 19  1  0  0  0  0
 22 19  1  0  0  0  0
 23 22  4  0  0  0  0
 24 23  4  0  0  0  0
 25 24  4  0  0  0  0
 26 25  4  0  0  0  0
 27 22  4  0  0  0  0
 28 29  4  0  0  0  0
 29 30  4  0  0  0  0
 30 31  4  0  0  0  0
 31 32  4  0  0  0  0
 32 33  4  0  0  0  0
 33 28  4  0  0  0  0
 34 35  4  0  0  0  0
 35 36  4  0  0  0  0
 36 37  4  0  0  0  0
 37 38  4  0  0  0  0
 38 39  4  0  0  0  0
 39 34  4  0  0  0  0
 40 41  4  0  0  0  0
 41 42  4  0  0  0  0
 42 43  4  0  0  0  0
 43 44  4  0  0  0  0
 44 45  4  0  0  0  0
 45 40  4  0  0  0  0
 46 47  4  0  0  0  0
 47 48  4  0  0  0  0
 48 49  4  0  0  0  0
 49 50  4  0  0  0  0
 50 51  4  0  0  0  0
 51 46  4  0  0  0  0
 52 50  1  0  0  0  0
 53 52  1  0  0  0  0
 54 52  1  0  0  0  0
 55 52  1  0  0  0  0
 56 55  4  0  0  0  0
 57 56  4  0  0  0  0
 58 57  4  0  0  0  0
 59 58  4  0  0  0  0
 60 55  4  0  0  0  0
 61 62  4  0  0  0  0
 62 63  4  0  0  0  0
 63 64  4  0  0  0  0
 64 65  4  0  0  0  0
 65 66  4  0  0  0  0
 66 61  4  0  0  0  0
 67 78  1  0  0  0  0
 68 78  1  0  0  0  0
 69 70  1  0  0  0  0
 70 71  1  0  0  0  0
 71 26  1  0  0  0  0
 72 12  1  0  0  0  0
 73  1  1  0  0  0  0
 74 59  1  0  0  0  0
 75 51  1  0  0  0  0
 76 34  1  0  0  0  0
 77 78  1  0  0  0  0
 78 79  1  0  0  0  0
 79141  1  0  0  0  0
 80  2  1  0  0  0  0
 81  3  1  0  0  0  0
 82  4  1  0  0  0  0
 83  5  1  0  0  0  0
 84  6  1  0  0  0  0
 85  8  1  0  0  0  0
 86  9  1  0  0  0  0
 87 10  1  0  0  0  0
 88 14  1  0  0  0  0
 89 15  1  0  0  0  0
 90 16  1  0  0  0  0
 91 17  1  0  0  0  0
 92 18  1  0  0  0  0
 93 20  1  0  0  0  0
 94 20  1  0  0  0  0
 95 20  1  0  0  0  0
 96 21  1  0  0  0  0
 97 21  1  0  0  0  0
 98 21  1  0  0  0  0
 99 23  1  0  0  0  0
100 24  1  0  0  0  0
101 25  1  0  0  0  0
102 29  1  0  0  0  0
103 30  1  0  0  0  0
104 31  1  0  0  0  0
105 32  1  0  0  0  0
106 33  1  0  0  0  0
107 35  1  0  0  0  0
108 36  1  0  0  0  0
109 37  1  0  0  0  0
110 38  1  0  0  0  0
111 39  1  0  0  0  0
112 41  1  0  0  0  0
113 42  1  0  0  0  0
114 43  1  0  0  0  0
115 44  1  0  0  0  0
116 45  1  0  0  0  0
117 47  1  0  0  0  0
118 48  1  0  0  0  0
119 49  1  0  0  0  0
120 53  1  0  0  0  0
121 53  1  0  0  0  0
122 53  1  0  0  0  0
123 54  1  0  0  0  0
124 54  1  0  0  0  0
125 54  1  0  0  0  0
126 56  1  0  0  0  0
127 57  1  0  0  0  0
128 58  1  0  0  0  0
129 62  1  0  0  0  0
130 63  1  0  0  0  0
131 64  1  0  0  0  0
132 65  1  0  0  0  0
133 66  1  0  0  0  0
134 67  1  0  0  0  0
135 67  1  0  0  0  0
136 67  1  0  0  0  0
137 68  1  0  0  0  0
138 68  1  0  0  0  0
139 68  1  0  0  0  0
140 77  1  0  0  0  0
141 69  1  0  0  0  0
142 70  1  0  0  0  0
143 69  1  0  0  0  0
144 79  1  0  0  0  0
145 70  1  0  0  0  0
  7 73  1  0  0  0  0
 13 73  1  0  0  0  0
 26 27  4  0  0  0  0
 27 72  1  0  0  0  0
 28 71  1  0  0  0  0
 40 76  1  0  0  0  0
 46 76  1  0  0  0  0
 59 60  4  0  0  0  0
 60 75  1  0  0  0  0
 61 74  1  0  0  0  0
 69 71  1  0  0  0  0
 69 73  1  0  0  0  0
 69 74  1  0  0  0  0
 70 74  1  0  0  0  0
 70 76  1  0  0  0  0
 77142  1  0  0  0  0
 77145  1  0  0  0  0
 79143  1  0  0  0  0
M  CHG  5  69   1  70   1  77  -1  78   1  79  -1
M  END
$$$$
MURWED

From CSD data. Using bond type 'Any'. No disordered atoms. Largest molecule.
162179  0  0  0  0  0  0  0  0999 V2000
    2.7422   32.2882  -12.4389 C   0  0  0  0  0  0  0  0  0  0  0  0
    4.2941   33.4800  -11.0036 C   0  0  0  0  0  0  0  0  0  0  0  0
    3.0104   31.5913  -10.1552 C   0  0  0  0  0  0  0  0  0  0  0  0
    6.4376   26.1403  -10.3682 C   0  0  0  0  0  0  0  0  0  0  0  0
    7.2244   25.4237  -11.2765 C   0  0  0  0  0  0  0  0  0  0  0  0
    7.4758   24.0733  -11.0690 C   0  0  0  0  0  0  0  0  0  0  0  0
    6.9740   23.4503   -9.9702 C   0  0  0  0  0  0  0  0  0  0  0  0
    6.2127   24.1324   -9.0731 C   0  0  0  0  0  0  0  0  0  0  0  0
    5.9356   25.4762   -9.2619 C   0  0  0  0  0  0  0  0  0  0  0  0
    5.1735   28.5001   -9.2905 C   0  0  0  0  0  0  0  0  0  0  0  0
    5.6768   29.3997   -8.3796 C   0  0  0  0  0  0  0  0  0  0  0  0
    4.8615   29.8823   -7.3501 C   0  0  0  0  0  0  0  0  0  0  0  0
    3.5534   29.4598   -7.2436 C   0  0  0  0  0  0  0  0  0  0  0  0
    3.0438   28.5550   -8.1593 C   0  0  0  0  0  0  0  0  0  0  0  0
    3.8457   28.0694   -9.1796 C   0  0  0  0  0  0  0  0  0  0  0  0
    7.7473   28.6486  -10.6500 C   0  0  0  0  0  0  0  0  0  0  0  0
    8.6327   28.4447   -9.5889 C   0  0  0  0  0  0  0  0  0  0  0  0
    9.8924   29.0170   -9.6039 C   0  0  0  0  0  0  0  0  0  0  0  0
   10.2921   29.8020  -10.6915 C   0  0  0  0  0  0  0  0  0  0  0  0
    9.4488   30.0214  -11.7754 C   0  0  0  0  0  0  0  0  0  0  0  0
    8.1889   29.4147  -11.7145 C   0  0  0  0  0  0  0  0  0  0  0  0
    9.7880   30.8663  -13.0033 C   0  0  0  0  0  0  0  0  0  0  0  0
   11.3000   31.1037  -13.1322 C   0  0  0  0  0  0  0  0  0  0  0  0
    9.0530   32.2222  -12.8911 C   0  0  0  0  0  0  0  0  0  0  0  0
    8.0219   29.4373  -14.0562 C   0  0  0  0  0  0  0  0  0  0  0  0
    9.2397   30.0958  -14.1974 C   0  0  0  0  0  0  0  0  0  0  0  0
    9.8585   30.0123  -15.4477 C   0  0  0  0  0  0  0  0  0  0  0  0
    9.2740   29.2763  -16.4793 C   0  0  0  0  0  0  0  0  0  0  0  0
    8.1001   28.6006  -16.2924 C   0  0  0  0  0  0  0  0  0  0  0  0
    7.4432   28.6656  -15.0449 C   0  0  0  0  0  0  0  0  0  0  0  0
    6.3456   26.0539  -15.0463 C   0  0  0  0  0  0  0  0  0  0  0  0
    7.6513   25.6136  -14.8384 C   0  0  0  0  0  0  0  0  0  0  0  0
    7.9756   24.2673  -15.0048 C   0  0  0  0  0  0  0  0  0  0  0  0
    7.0041   23.3735  -15.3972 C   0  0  0  0  0  0  0  0  0  0  0  0
    5.7110   23.7990  -15.6159 C   0  0  0  0  0  0  0  0  0  0  0  0
    5.3753   25.1295  -15.4383 C   0  0  0  0  0  0  0  0  0  0  0  0
    5.2312   28.6722  -12.7620 Rh  0  3  0  0  0  0  0  0  0  0  0  0
    5.9016   27.7665  -14.6738 P   0  0  0  0  0  0  0  0  0  0  0  0
    6.0987   27.8870  -10.7420 P   0  0  0  0  0  0  0  0  0  0  0  0
    7.3407   29.5546  -12.8291 O   0  0  0  0  0  0  0  0  0  0  0  0
    3.7405   32.1431  -11.3475 N   0  3  0  0  0  0  0  0  0  0  0  0
    4.9478   31.1865  -11.7568 B   0  5  0  0  0  0  0  0  0  0  0  0
    2.3819   31.4312  -12.6743 H   0  0  0  0  0  0  0  0  0  0  0  0
    3.1783   32.6772  -13.2126 H   0  0  0  0  0  0  0  0  0  0  0  0
    2.0323   32.8693  -12.1567 H   0  0  0  0  0  0  0  0  0  0  0  0
    4.9202   33.3717  -10.2953 H   0  0  0  0  0  0  0  0  0  0  0  0
    4.7463   33.8248  -11.7773 H   0  0  0  0  0  0  0  0  0  0  0  0
    3.5773   34.0735  -10.7308 H   0  0  0  0  0  0  0  0  0  0  0  0
    3.6117   31.5445   -9.4095 H   0  0  0  0  0  0  0  0  0  0  0  0
    2.2963   32.1946   -9.9384 H   0  0  0  0  0  0  0  0  0  0  0  0
    2.6600   30.7073  -10.3402 H   0  0  0  0  0  0  0  0  0  0  0  0
    7.5663   25.8586  -12.0371 H   0  0  0  0  0  0  0  0  0  0  0  0
    7.9966   23.5907  -11.7007 H   0  0  0  0  0  0  0  0  0  0  0  0
    7.1384   22.5367   -9.8356 H   0  0  0  0  0  0  0  0  0  0  0  0
    5.8736   23.6768   -8.3200 H   0  0  0  0  0  0  0  0  0  0  0  0
    5.4227   25.9571   -8.6433 H   0  0  0  0  0  0  0  0  0  0  0  0
    6.5665   29.6829   -8.4545 H   0  0  0  0  0  0  0  0  0  0  0  0
    5.2192   30.4979   -6.7278 H   0  0  0  0  0  0  0  0  0  0  0  0
    3.0136   29.7764   -6.5521 H   0  0  0  0  0  0  0  0  0  0  0  0
    2.1584   28.2620   -8.1032 H   0  0  0  0  0  0  0  0  0  0  0  0
    3.4912   27.4469   -9.8057 H   0  0  0  0  0  0  0  0  0  0  0  0
    8.3724   27.9123   -8.8713 H   0  0  0  0  0  0  0  0  0  0  0  0
   10.4964   28.8801   -8.8881 H   0  0  0  0  0  0  0  0  0  0  0  0
   11.1513   30.1729  -10.6897 H   0  0  0  0  0  0  0  0  0  0  0  0
   11.4961   31.5962  -13.9358 H   0  0  0  0  0  0  0  0  0  0  0  0
   11.6317   31.5937  -12.3772 H   0  0  0  0  0  0  0  0  0  0  0  0
   11.7556   30.2492  -13.1696 H   0  0  0  0  0  0  0  0  0  0  0  0
    9.2589   32.7610  -13.6742 H   0  0  0  0  0  0  0  0  0  0  0  0
    9.3554   32.6920  -12.1156 H   0  0  0  0  0  0  0  0  0  0  0  0
    8.0906   32.0789  -12.8182 H   0  0  0  0  0  0  0  0  0  0  0  0
   10.6725   30.4364  -15.5729 H   0  0  0  0  0  0  0  0  0  0  0  0
    9.6862   29.2495  -17.3296 H   0  0  0  0  0  0  0  0  0  0  0  0
    7.7320   28.0724  -16.9969 H   0  0  0  0  0  0  0  0  0  0  0  0
    8.3196   26.2231  -14.5637 H   0  0  0  0  0  0  0  0  0  0  0  0
    8.8590   23.9699  -14.8459 H   0  0  0  0  0  0  0  0  0  0  0  0
    7.2143   22.4628  -15.5131 H   0  0  0  0  0  0  0  0  0  0  0  0
    5.0530   23.1967  -15.8981 H   0  0  0  0  0  0  0  0  0  0  0  0
    4.4936   25.4203  -15.6047 H   0  0  0  0  0  0  0  0  0  0  0  0
    5.4704   31.5543  -12.7099 H   0  0  0  0  0  0  0  0  0  0  0  0
    4.4204   30.0744  -11.8072 H   0  0  0  0  0  0  0  0  0  0  0  0
    5.6777   31.1406  -10.9532 H   0  0  0  0  0  0  0  0  0  0  0  0
    6.4836   32.2882  -15.5934 C   0  0  0  0  0  0  0  0  0  0  0  0
    4.9316   33.4800  -17.0287 C   0  0  0  0  0  0  0  0  0  0  0  0
    6.2154   31.5913  -17.8771 C   0  0  0  0  0  0  0  0  0  0  0  0
    2.7882   26.1403  -17.6641 C   0  0  0  0  0  0  0  0  0  0  0  0
    2.0014   25.4237  -16.7559 C   0  0  0  0  0  0  0  0  0  0  0  0
    1.7499   24.0733  -16.9633 C   0  0  0  0  0  0  0  0  0  0  0  0
    2.2517   23.4503  -18.0622 C   0  0  0  0  0  0  0  0  0  0  0  0
    3.0130   24.1324  -18.9592 C   0  0  0  0  0  0  0  0  0  0  0  0
    3.2902   25.4762  -18.7704 C   0  0  0  0  0  0  0  0  0  0  0  0
    4.0523   28.5001  -18.7418 C   0  0  0  0  0  0  0  0  0  0  0  0
    3.5490   29.3997  -19.6527 C   0  0  0  0  0  0  0  0  0  0  0  0
    4.3643   29.8823  -20.6822 C   0  0  0  0  0  0  0  0  0  0  0  0
    5.6724   29.4598  -20.7888 C   0  0  0  0  0  0  0  0  0  0  0  0
    6.1819   28.5550  -19.8730 C   0  0  0  0  0  0  0  0  0  0  0  0
    5.3800   28.0694  -18.8527 C   0  0  0  0  0  0  0  0  0  0  0  0
    1.4785   28.6486  -17.3823 C   0  0  0  0  0  0  0  0  0  0  0  0
    0.5931   28.4447  -18.4434 C   0  0  0  0  0  0  0  0  0  0  0  0
   -0.6667   29.0170  -18.4284 C   0  0  0  0  0  0  0  0  0  0  0  0
   -1.0663   29.8020  -17.3408 C   0  0  0  0  0  0  0  0  0  0  0  0
   -0.2230   30.0214  -16.2569 C   0  0  0  0  0  0  0  0  0  0  0  0
    1.0369   29.4147  -16.3178 C   0  0  0  0  0  0  0  0  0  0  0  0
   -0.5622   30.8663  -15.0291 C   0  0  0  0  0  0  0  0  0  0  0  0
   -2.0743   31.1037  -14.9001 C   0  0  0  0  0  0  0  0  0  0  0  0
    0.1728   32.2222  -15.1412 C   0  0  0  0  0  0  0  0  0  0  0  0
    1.2039   29.4373  -13.9762 C   0  0  0  0  0  0  0  0  0  0  0  0
   -0.0140   30.0958  -13.8349 C   0  0  0  0  0  0  0  0  0  0  0  0
   -0.6327   30.0123  -12.5846 C   0  0  0  0  0  0  0  0  0  0  0  0
   -0.0482   29.2763  -11.5531 C   0  0  0  0  0  0  0  0  0  0  0  0
    1.1256   28.6006  -11.7399 C   0  0  0  0  0  0  0  0  0  0  0  0
    1.7826   28.6656  -12.9874 C   0  0  0  0  0  0  0  0  0  0  0  0
    2.8802   26.0539  -12.9861 C   0  0  0  0  0  0  0  0  0  0  0  0
    1.5745   25.6136  -13.1939 C   0  0  0  0  0  0  0  0  0  0  0  0
    1.2502   24.2673  -13.0276 C   0  0  0  0  0  0  0  0  0  0  0  0
    2.2217   23.3735  -12.6351 C   0  0  0  0  0  0  0  0  0  0  0  0
    3.5147   23.7990  -12.4164 C   0  0  0  0  0  0  0  0  0  0  0  0
    3.8505   25.1295  -12.5940 C   0  0  0  0  0  0  0  0  0  0  0  0
    3.9945   28.6722  -15.2703 Rh  0  3  0  0  0  0  0  0  0  0  0  0
    3.3242   27.7665  -13.3585 P   0  0  0  0  0  0  0  0  0  0  0  0
    3.1270   27.8870  -17.2903 P   0  0  0  0  0  0  0  0  0  0  0  0
    1.8851   29.5546  -15.2032 O   0  0  0  0  0  0  0  0  0  0  0  0
    5.4853   32.1431  -16.6848 N   0  3  0  0  0  0  0  0  0  0  0  0
    4.2780   31.1865  -16.2756 B   0  5  0  0  0  0  0  0  0  0  0  0
    6.8438   31.4312  -15.3580 H   0  0  0  0  0  0  0  0  0  0  0  0
    6.0474   32.6772  -14.8198 H   0  0  0  0  0  0  0  0  0  0  0  0
    7.1935   32.8693  -15.8756 H   0  0  0  0  0  0  0  0  0  0  0  0
    4.3056   33.3717  -17.7370 H   0  0  0  0  0  0  0  0  0  0  0  0
    4.4795   33.8248  -16.2550 H   0  0  0  0  0  0  0  0  0  0  0  0
    5.6485   34.0735  -17.3015 H   0  0  0  0  0  0  0  0  0  0  0  0
    5.6140   31.5445  -18.6228 H   0  0  0  0  0  0  0  0  0  0  0  0
    6.9294   32.1946  -18.0939 H   0  0  0  0  0  0  0  0  0  0  0  0
    6.5658   30.7073  -17.6921 H   0  0  0  0  0  0  0  0  0  0  0  0
    1.6595   25.8586  -15.9952 H   0  0  0  0  0  0  0  0  0  0  0  0
    1.2292   23.5907  -16.3316 H   0  0  0  0  0  0  0  0  0  0  0  0
    2.0874   22.5367  -18.1967 H   0  0  0  0  0  0  0  0  0  0  0  0
    3.3522   23.6768  -19.7123 H   0  0  0  0  0  0  0  0  0  0  0  0
    3.8031   25.9571  -19.3890 H   0  0  0  0  0  0  0  0  0  0  0  0
    2.6593   29.6829  -19.5778 H   0  0  0  0  0  0  0  0  0  0  0  0
    4.0066   30.4979  -21.3046 H   0  0  0  0  0  0  0  0  0  0  0  0
    6.2122   29.7764  -21.4802 H   0  0  0  0  0  0  0  0  0  0  0  0
    7.0674   28.2620  -19.9291 H   0  0  0  0  0  0  0  0  0  0  0  0
    5.7346   27.4469  -18.2266 H   0  0  0  0  0  0  0  0  0  0  0  0
    0.8534   27.9123  -19.1610 H   0  0  0  0  0  0  0  0  0  0  0  0
   -1.2707   28.8801  -19.1442 H   0  0  0  0  0  0  0  0  0  0  0  0
   -1.9255   30.1729  -17.3427 H   0  0  0  0  0  0  0  0  0  0  0  0
   -2.2703   31.5962  -14.0965 H   0  0  0  0  0  0  0  0  0  0  0  0
   -2.4059   31.5937  -15.6551 H   0  0  0  0  0  0  0  0  0  0  0  0
   -2.5298   30.2492  -14.8627 H   0  0  0  0  0  0  0  0  0  0  0  0
   -0.0331   32.7610  -14.3582 H   0  0  0  0  0  0  0  0  0  0  0  0
   -0.1296   32.6920  -15.9167 H   0  0  0  0  0  0  0  0  0  0  0  0
    1.1351   32.0789  -15.2141 H   0  0  0  0  0  0  0  0  0  0  0  0
   -1.4467   30.4364  -12.4594 H   0  0  0  0  0  0  0  0  0  0  0  0
   -0.4604   29.2495  -10.7027 H   0  0  0  0  0  0  0  0  0  0  0  0
    1.4938   28.0724  -11.0354 H   0  0  0  0  0  0  0  0  0  0  0  0
    0.9062   26.2231  -13.4686 H   0  0  0  0  0  0  0  0  0  0  0  0
    0.3668   23.9699  -13.1864 H   0  0  0  0  0  0  0  0  0  0  0  0
    2.0115   22.4628  -12.5192 H   0  0  0  0  0  0  0  0  0  0  0  0
    4.1728   23.1967  -12.1343 H   0  0  0  0  0  0  0  0  0  0  0  0
    4.7322   25.4203  -12.4277 H   0  0  0  0  0  0  0  0  0  0  0  0
    3.7554   31.5543  -15.3225 H   0  0  0  0  0  0  0  0  0  0  0  0
    4.8054   30.0744  -16.2251 H   0  0  0  0  0  0  0  0  0  0  0  0
    3.5481   31.1406  -17.0792 H   0  0  0  0  0  0  0  0  0  0  0  0
  1 41  1  0  0  0  0
  2 41  1  0  0  0  0
  3 41  1  0  0  0  0
  4  5  4  0  0  0  0
  5  6  4  0  0  0  0
  6  7  4  0  0  0  0
  7  8  4  0  0  0  0
  8  9  4  0  0  0  0
  9  4  4  0  0  0  0
 10 11  4  0  0  0  0
 11 12  4  0  0  0  0
 12 13  4  0  0  0  0
 13 14  4  0  0  0  0
 14 15  4  0  0  0  0
 15 10  4  0  0  0  0
 16 17  4  0  0  0  0
 17 18  4  0  0  0  0
 18 19  4  0  0  0  0
 19 20  4  0  0  0  0
 20 21  4  0  0  0  0
 21 16  4  0  0  0  0
 22 20  1  0  0  0  0
 23 22  1  0  0  0  0
 24 22  1  0  0  0  0
 25 26  4  0  0  0  0
 26 22  1  0  0  0  0
 27 26  4  0  0  0  0
 28 27  4  0  0  0  0
 29 28  4  0  0  0  0
 30 25  4  0  0  0  0
 31 32  4  0  0  0  0
 32 33  4  0  0  0  0
 33 34  4  0  0  0  0
 34 35  4  0  0  0  0
 35 36  4  0  0  0  0
 36 31  4  0  0  0  0
 37 38  1  0  0  0  0
 38 30  1  0  0  0  0
 39  4  1  0  0  0  0
 40 21  1  0  0  0  0
 41 42  1  0  0  0  0
 42 79  1  0  0  0  0
 43  1  1  0  0  0  0
 44  1  1  0  0  0  0
 45  1  1  0  0  0  0
 46  2  1  0  0  0  0
 47  2  1  0  0  0  0
 48  2  1  0  0  0  0
 49  3  1  0  0  0  0
 50  3  1  0  0  0  0
 51  3  1  0  0  0  0
 52  5  1  0  0  0  0
 53  6  1  0  0  0  0
 54  7  1  0  0  0  0
 55  8  1  0  0  0  0
 56  9  1  0  0  0  0
 57 11  1  0  0  0  0
 58 12  1  0  0  0  0
 59 13  1  0  0  0  0
 60 14  1  0  0  0  0
 61 15  1  0  0  0  0
 62 17  1  0  0  0  0
 63 18  1  0  0  0  0
 64 19  1  0  0  0  0
 65 23  1  0  0  0  0
 66 23  1  0  0  0  0
 67 23  1  0  0  0  0
 68 24  1  0  0  0  0
 69 24  1  0  0  0  0
 70 24  1  0  0  0  0
 71 27  1  0  0  0  0
 72 28  1  0  0  0  0
 73 29  1  0  0  0  0
 74 32  1  0  0  0  0
 75 33  1  0  0  0  0
 76 34  1  0  0  0  0
 77 35  1  0  0  0  0
 78 36  1  0  0  0  0
 80 37  1  0  0  0  0
 81 42  1  0  0  0  0
 82122  1  0  0  0  0
 83122  1  0  0  0  0
 84122  1  0  0  0  0
 85 86  4  0  0  0  0
 86 87  4  0  0  0  0
 87 88  4  0  0  0  0
 88 89  4  0  0  0  0
 89 90  4  0  0  0  0
 90 85  4  0  0  0  0
 91 92  4  0  0  0  0
 92 93  4  0  0  0  0
 93 94  4  0  0  0  0
 94 95  4  0  0  0  0
 95 96  4  0  0  0  0
 96 91  4  0  0  0  0
 97 98  4  0  0  0  0
 98 99  4  0  0  0  0
 99100  4  0  0  0  0
100101  4  0  0  0  0
101102  4  0  0  0  0
102 97  4  0  0  0  0
103101  1  0  0  0  0
104103  1  0  0  0  0
105103  1  0  0  0  0
106107  4  0  0  0  0
107103  1  0  0  0  0
108107  4  0  0  0  0
109108  4  0  0  0  0
110109  4  0  0  0  0
111106  4  0  0  0  0
112113  4  0  0  0  0
113114  4  0  0  0  0
114115  4  0  0  0  0
115116  4  0  0  0  0
116117  4  0  0  0  0
117112  4  0  0  0  0
118 37  1  0  0  0  0
119 37  1  0  0  0  0
120 85  1  0  0  0  0
121102  1  0  0  0  0
122123  1  0  0  0  0
123160  1  0  0  0  0
124 82  1  0  0  0  0
125 82  1  0  0  0  0
126 82  1  0  0  0  0
127 83  1  0  0  0  0
128 83  1  0  0  0  0
129 83  1  0  0  0  0
130 84  1  0  0  0  0
131 84  1  0  0  0  0
132 84  1  0  0  0  0
133 86  1  0  0  0  0
134 87  1  0  0  0  0
135 88  1  0  0  0  0
136 89  1  0  0  0  0
137 90  1  0  0  0  0
138 92  1  0  0  0  0
139 93  1  0  0  0  0
140 94  1  0  0  0  0
141 95  1  0  0  0  0
142 96  1  0  0  0  0
143 98  1  0  0  0  0
144 99  1  0  0  0  0
145100  1  0  0  0  0
146104  1  0  0  0  0
147104  1  0  0  0  0
148104  1  0  0  0  0
149105  1  0  0  0  0
150105  1  0  0  0  0
151105  1  0  0  0  0
152108  1  0  0  0  0
153109  1  0  0  0  0
154110  1  0  0  0  0
155113  1  0  0  0  0
156114  1  0  0  0  0
157115  1  0  0  0  0
158116  1  0  0  0  0
159117  1  0  0  0  0
161118  1  0  0  0  0
162123  1  0  0  0  0
 10 39  1  0  0  0  0
 16 39  1  0  0  0  0
 25 40  1  0  0  0  0
 29 30  4  0  0  0  0
 31 38  1  0  0  0  0
 37 39  1  0  0  0  0
 37 40  1  0  0  0  0
 38118  1  0  0  0  0
 42 80  1  0  0  0  0
 91120  1  0  0  0  0
 97120  1  0  0  0  0
106121  1  0  0  0  0
110111  4  0  0  0  0
111119  1  0  0  0  0
112119  1  0  0  0  0
118119  1  0  0  0  0
118120  1  0  0  0  0
118121  1  0  0  0  0
123161  1  0  0  0  0
M  CHG  6  37   1  41   1  42  -1 118   1 122   1 123  -1
M  END
$$$$
MURYAB

From CSD data. Using bond type 'Any'. Matching problem. No disordered atoms. Largest molecule.
128173  0  0  0  0  0  0  0  0999 V2000
   22.4647   11.2324    7.6979 Rh  0  0  0  0  0  0  0  0  0  0  0  0
   17.7703   13.0558    5.5392 Fe  0  0  0  0  0  0  0  0  0  0  0  0
   18.8807    9.0425    8.8837 Fe  0  0  0  0  0  0  0  0  0  0  0  0
   20.2533   11.9836    7.7609 P   0  0  0  0  0  0  0  0  0  0  0  0
   22.4647   11.2324   10.0251 Cl  0  0  0  0  0  0  0  0  0  0  0  0
   17.3877   10.4191    6.7072 B   0  0  0  0  0  0  0  0  0  0  0  0
   22.4647   11.2324    4.7486 O   0  0  0  0  0  0  0  0  0  0  0  0
   19.4387   12.0321    6.1441 C   0  0  0  0  0  0  0  0  0  0  0  0
   18.3829   11.1358    5.7226 C   0  0  0  0  0  0  0  0  0  0  0  0
   18.0976   11.4211    4.3376 C   0  0  0  0  0  0  0  0  0  0  0  0
   17.4281   10.9605    3.7558 H   0  0  0  0  0  0  0  0  0  0  0  0
   18.9737   12.5083    3.9560 C   0  0  0  0  0  0  0  0  0  0  0  0
   18.9827   12.9531    3.0603 H   0  0  0  0  0  0  0  0  0  0  0  0
   19.7824   12.8858    5.0612 C   0  0  0  0  0  0  0  0  0  0  0  0
   20.4586   13.6203    5.0764 H   0  0  0  0  0  0  0  0  0  0  0  0
   16.7048   13.8383    7.0725 C   0  0  0  0  0  0  0  0  0  0  0  0
   16.7901   13.5777    8.0337 H   0  0  0  0  0  0  0  0  0  0  0  0
   15.8129   13.2969    6.1675 C   0  0  0  0  0  0  0  0  0  0  0  0
   15.1816   12.5488    6.3665 H   0  0  0  0  0  0  0  0  0  0  0  0
   15.9702   13.9079    4.9054 C   0  0  0  0  0  0  0  0  0  0  0  0
   15.4647   13.7147    4.0660 H   0  0  0  0  0  0  0  0  0  0  0  0
   17.0148   14.9076    5.1068 C   0  0  0  0  0  0  0  0  0  0  0  0
   17.3675   15.5231    4.4020 H   0  0  0  0  0  0  0  0  0  0  0  0
   17.4596   14.8604    6.4192 C   0  0  0  0  0  0  0  0  0  0  0  0
   18.1515   15.4490    6.8360 H   0  0  0  0  0  0  0  0  0  0  0  0
   19.0366   11.0661    8.7361 C   0  0  0  0  0  0  0  0  0  0  0  0
   17.7269   10.5921    8.2222 C   0  0  0  0  0  0  0  0  0  0  0  0
   17.0979    9.9227    9.3098 C   0  0  0  0  0  0  0  0  0  0  0  0
   16.2060    9.4711    9.2770 H   0  0  0  0  0  0  0  0  0  0  0  0
   17.9560    9.9968   10.4700 C   0  0  0  0  0  0  0  0  0  0  0  0
   17.7651    9.5902   11.3633 H   0  0  0  0  0  0  0  0  0  0  0  0
   19.1444   10.6954   10.1118 C   0  0  0  0  0  0  0  0  0  0  0  0
   19.9284   10.8684   10.7077 H   0  0  0  0  0  0  0  0  0  0  0  0
   20.3193    8.2445    7.6918 C   0  0  0  0  0  0  0  0  0  0  0  0
   20.9236    8.7635    7.0865 H   0  0  0  0  0  0  0  0  0  0  0  0
   19.0096    7.6987    7.3219 C   0  0  0  0  0  0  0  0  0  0  0  0
   18.5603    7.7728    6.4309 H   0  0  0  0  0  0  0  0  0  0  0  0
   18.4974    7.0809    8.4634 C   0  0  0  0  0  0  0  0  0  0  0  0
   17.6033    6.6383    8.5313 H   0  0  0  0  0  0  0  0  0  0  0  0
   19.3556    7.1932    9.4269 C   0  0  0  0  0  0  0  0  0  0  0  0
   19.2118    6.8270   10.3459 H   0  0  0  0  0  0  0  0  0  0  0  0
   20.5777    7.9480    9.0031 C   0  0  0  0  0  0  0  0  0  0  0  0
   21.4021    8.1390    9.5381 H   0  0  0  0  0  0  0  0  0  0  0  0
   20.1374   13.6855    8.4118 C   0  0  0  0  0  0  0  0  0  0  0  0
   20.9596   14.7099    7.9166 C   0  0  0  0  0  0  0  0  0  0  0  0
   21.6178   14.4920    7.2680 H   0  0  0  0  0  0  0  0  0  0  0  0
   20.8540   15.9949    8.3264 C   0  0  0  0  0  0  0  0  0  0  0  0
   21.4044   16.6643    7.9342 H   0  0  0  0  0  0  0  0  0  0  0  0
   19.9352   16.3431    9.3274 C   0  0  0  0  0  0  0  0  0  0  0  0
   19.8633   17.2417    9.6271 H   0  0  0  0  0  0  0  0  0  0  0  0
   19.1377   15.3591    9.8683 C   0  0  0  0  0  0  0  0  0  0  0  0
   18.5154   15.5815   10.5496 H   0  0  0  0  0  0  0  0  0  0  0  0
   19.2320   14.0539    9.4339 C   0  0  0  0  0  0  0  0  0  0  0  0
   18.6794   13.3890    9.8296 H   0  0  0  0  0  0  0  0  0  0  0  0
   16.1521    9.6239    6.2740 C   0  0  0  0  0  0  0  0  0  0  0  0
   14.9143    9.6845    6.8758 C   0  0  0  0  0  0  0  0  0  0  0  0
   14.8042   10.2417    7.6368 H   0  0  0  0  0  0  0  0  0  0  0  0
   13.8315    8.9724    6.4239 C   0  0  0  0  0  0  0  0  0  0  0  0
   12.9981    9.0578    6.8723 H   0  0  0  0  0  0  0  0  0  0  0  0
   13.9304    8.1255    5.3187 C   0  0  0  0  0  0  0  0  0  0  0  0
   13.1621    7.6874    4.9710 H   0  0  0  0  0  0  0  0  0  0  0  0
   15.1412    7.9480    4.7568 C   0  0  0  0  0  0  0  0  0  0  0  0
   15.2580    7.2898    4.0801 H   0  0  0  0  0  0  0  0  0  0  0  0
   16.1970    8.7051    5.1536 C   0  0  0  0  0  0  0  0  0  0  0  0
   17.0125    8.6264    4.6701 H   0  0  0  0  0  0  0  0  0  0  0  0
   22.4647   11.2324    5.9123 C   0  0  0  0  0  0  0  0  0  0  0  0
   27.1591    9.4089    5.5392 Fe  0  0  0  0  0  0  0  0  0  0  0  0
   26.0487   13.4222    8.8837 Fe  0  0  0  0  0  0  0  0  0  0  0  0
   24.6761   10.4811    7.7609 P   0  0  0  0  0  0  0  0  0  0  0  0
   27.5417   12.0456    6.7072 B   0  0  0  0  0  0  0  0  0  0  0  0
   25.4907   10.4326    6.1441 C   0  0  0  0  0  0  0  0  0  0  0  0
   26.5465   11.3289    5.7226 C   0  0  0  0  0  0  0  0  0  0  0  0
   26.8318   11.0436    4.3376 C   0  0  0  0  0  0  0  0  0  0  0  0
   27.5013   11.5042    3.7558 H   0  0  0  0  0  0  0  0  0  0  0  0
   25.9557    9.9564    3.9560 C   0  0  0  0  0  0  0  0  0  0  0  0
   25.9467    9.5116    3.0603 H   0  0  0  0  0  0  0  0  0  0  0  0
   25.1470    9.5789    5.0612 C   0  0  0  0  0  0  0  0  0  0  0  0
   24.4708    8.8444    5.0764 H   0  0  0  0  0  0  0  0  0  0  0  0
   28.2246    8.6264    7.0725 C   0  0  0  0  0  0  0  0  0  0  0  0
   28.1393    8.8870    8.0337 H   0  0  0  0  0  0  0  0  0  0  0  0
   29.1165    9.1678    6.1675 C   0  0  0  0  0  0  0  0  0  0  0  0
   29.7478    9.9159    6.3665 H   0  0  0  0  0  0  0  0  0  0  0  0
   28.9592    8.5568    4.9054 C   0  0  0  0  0  0  0  0  0  0  0  0
   29.4647    8.7500    4.0660 H   0  0  0  0  0  0  0  0  0  0  0  0
   27.9146    7.5571    5.1068 C   0  0  0  0  0  0  0  0  0  0  0  0
   27.5619    6.9416    4.4020 H   0  0  0  0  0  0  0  0  0  0  0  0
   27.4698    7.6043    6.4192 C   0  0  0  0  0  0  0  0  0  0  0  0
   26.7779    7.0157    6.8360 H   0  0  0  0  0  0  0  0  0  0  0  0
   25.8928   11.3986    8.7361 C   0  0  0  0  0  0  0  0  0  0  0  0
   27.2025   11.8726    8.2222 C   0  0  0  0  0  0  0  0  0  0  0  0
   27.8315   12.5420    9.3098 C   0  0  0  0  0  0  0  0  0  0  0  0
   28.7234   12.9936    9.2770 H   0  0  0  0  0  0  0  0  0  0  0  0
   26.9734   12.4679   10.4700 C   0  0  0  0  0  0  0  0  0  0  0  0
   27.1643   12.8745   11.3633 H   0  0  0  0  0  0  0  0  0  0  0  0
   25.7850   11.7693   10.1118 C   0  0  0  0  0  0  0  0  0  0  0  0
   25.0010   11.5963   10.7077 H   0  0  0  0  0  0  0  0  0  0  0  0
   24.6101   14.2202    7.6918 C   0  0  0  0  0  0  0  0  0  0  0  0
   24.0058   13.7012    7.0865 H   0  0  0  0  0  0  0  0  0  0  0  0
   25.9198   14.7660    7.3219 C   0  0  0  0  0  0  0  0  0  0  0  0
   26.3691   14.6919    6.4309 H   0  0  0  0  0  0  0  0  0  0  0  0
   26.4320   15.3838    8.4634 C   0  0  0  0  0  0  0  0  0  0  0  0
   27.3261   15.8264    8.5313 H   0  0  0  0  0  0  0  0  0  0  0  0
   25.5738   15.2715    9.4269 C   0  0  0  0  0  0  0  0  0  0  0  0
   25.7176   15.6377   10.3459 H   0  0  0  0  0  0  0  0  0  0  0  0
   24.3517   14.5167    9.0031 C   0  0  0  0  0  0  0  0  0  0  0  0
   23.5273   14.3257    9.5381 H   0  0  0  0  0  0  0  0  0  0  0  0
   24.7920    8.7792    8.4118 C   0  0  0  0  0  0  0  0  0  0  0  0
   23.9698    7.7548    7.9166 C   0  0  0  0  0  0  0  0  0  0  0  0
   23.3116    7.9727    7.2680 H   0  0  0  0  0  0  0  0  0  0  0  0
   24.0754    6.4698    8.3264 C   0  0  0  0  0  0  0  0  0  0  0  0
   23.5250    5.8004    7.9342 H   0  0  0  0  0  0  0  0  0  0  0  0
   24.9942    6.1216    9.3274 C   0  0  0  0  0  0  0  0  0  0  0  0
   25.0661    5.2230    9.6271 H   0  0  0  0  0  0  0  0  0  0  0  0
   25.7917    7.1056    9.8683 C   0  0  0  0  0  0  0  0  0  0  0  0
   26.4140    6.8832   10.5496 H   0  0  0  0  0  0  0  0  0  0  0  0
   25.6974    8.4108    9.4339 C   0  0  0  0  0  0  0  0  0  0  0  0
   26.2500    9.0757    9.8296 H   0  0  0  0  0  0  0  0  0  0  0  0
   28.7773   12.8408    6.2740 C   0  0  0  0  0  0  0  0  0  0  0  0
   30.0151   12.7802    6.8758 C   0  0  0  0  0  0  0  0  0  0  0  0
   30.1252   12.2230    7.6368 H   0  0  0  0  0  0  0  0  0  0  0  0
   31.0979   13.4923    6.4239 C   0  0  0  0  0  0  0  0  0  0  0  0
   31.9313   13.4069    6.8723 H   0  0  0  0  0  0  0  0  0  0  0  0
   30.9990   14.3392    5.3187 C   0  0  0  0  0  0  0  0  0  0  0  0
   31.7673   14.7773    4.9710 H   0  0  0  0  0  0  0  0  0  0  0  0
   29.7882   14.5167    4.7568 C   0  0  0  0  0  0  0  0  0  0  0  0
   29.6714   15.1749    4.0801 H   0  0  0  0  0  0  0  0  0  0  0  0
   28.7324   13.7596    5.1536 C   0  0  0  0  0  0  0  0  0  0  0  0
   27.9169   13.8383    4.6701 H   0  0  0  0  0  0  0  0  0  0  0  0
  1  4  1  0  0  0  0
  2  8  8  0  0  0  0
  3 26  8  0  0  0  0
  4  8  1  0  0  0  0
  5  1  1  0  0  0  0
  6  9  1  0  0  0  0
  7 66  3  0  0  0  0
  8  9  4  0  0  0  0
  9  2  8  0  0  0  0
 10  2  8  0  0  0  0
 11 10  1  0  0  0  0
 12  2  8  0  0  0  0
 13 12  1  0  0  0  0
 14  2  8  0  0  0  0
 15 14  1  0  0  0  0
 16  2  8  0  0  0  0
 17 16  1  0  0  0  0
 18  2  8  0  0  0  0
 19 18  1  0  0  0  0
 20  2  8  0  0  0  0
 21 20  1  0  0  0  0
 22  2  8  0  0  0  0
 23 22  1  0  0  0  0
 24  2  8  0  0  0  0
 25 24  1  0  0  0  0
 26  4  1  0  0  0  0
 27  3  8  0  0  0  0
 28  3  8  0  0  0  0
 29 28  1  0  0  0  0
 30  3  8  0  0  0  0
 31 30  1  0  0  0  0
 32  3  8  0  0  0  0
 33 32  1  0  0  0  0
 34  3  8  0  0  0  0
 35 34  1  0  0  0  0
 36  3  8  0  0  0  0
 37 36  1  0  0  0  0
 38  3  8  0  0  0  0
 39 38  1  0  0  0  0
 40  3  8  0  0  0  0
 41 40  1  0  0  0  0
 42  3  8  0  0  0  0
 43 42  1  0  0  0  0
 44  4  1  0  0  0  0
 45 44  4  0  0  0  0
 46 45  1  0  0  0  0
 47 45  4  0  0  0  0
 48 47  1  0  0  0  0
 49 47  4  0  0  0  0
 50 49  1  0  0  0  0
 51 49  4  0  0  0  0
 52 51  1  0  0  0  0
 53 44  4  0  0  0  0
 54 53  1  0  0  0  0
 55  6  1  0  0  0  0
 56 55  4  0  0  0  0
 57 56  1  0  0  0  0
 58 56  4  0  0  0  0
 59 58  1  0  0  0  0
 60 58  4  0  0  0  0
 61 60  1  0  0  0  0
 62 60  4  0  0  0  0
 63 62  1  0  0  0  0
 64 55  4  0  0  0  0
 65 64  1  0  0  0  0
 66  1  1  0  0  0  0
 67 71  8  0  0  0  0
 68 89  8  0  0  0  0
 69  1  1  0  0  0  0
 70 72  1  0  0  0  0
 71 69  1  0  0  0  0
 72 67  8  0  0  0  0
 73 67  8  0  0  0  0
 74 73  1  0  0  0  0
 75 67  8  0  0  0  0
 76 75  1  0  0  0  0
 77 67  8  0  0  0  0
 78 77  1  0  0  0  0
 79 67  8  0  0  0  0
 80 79  1  0  0  0  0
 81 67  8  0  0  0  0
 82 81  1  0  0  0  0
 83 67  8  0  0  0  0
 84 83  1  0  0  0  0
 85 67  8  0  0  0  0
 86 85  1  0  0  0  0
 87 67  8  0  0  0  0
 88 87  1  0  0  0  0
 89 69  1  0  0  0  0
 90 68  8  0  0  0  0
 91 68  8  0  0  0  0
 92 91  1  0  0  0  0
 93 68  8  0  0  0  0
 94 93  1  0  0  0  0
 95 68  8  0  0  0  0
 96 95  1  0  0  0  0
 97 68  8  0  0  0  0
 98 97  1  0  0  0  0
 99 68  8  0  0  0  0
100 99  1  0  0  0  0
101 68  8  0  0  0  0
102101  1  0  0  0  0
103 68  8  0  0  0  0
104103  1  0  0  0  0
105 68  8  0  0  0  0
106105  1  0  0  0  0
107 69  1  0  0  0  0
108107  4  0  0  0  0
109108  1  0  0  0  0
110108  4  0  0  0  0
111110  1  0  0  0  0
112110  4  0  0  0  0
113112  1  0  0  0  0
114112  4  0  0  0  0
115114  1  0  0  0  0
116107  4  0  0  0  0
117116  1  0  0  0  0
118 70  1  0  0  0  0
119118  4  0  0  0  0
120119  1  0  0  0  0
121119  4  0  0  0  0
122121  1  0  0  0  0
123121  4  0  0  0  0
124123  1  0  0  0  0
125123  4  0  0  0  0
126125  1  0  0  0  0
127118  4  0  0  0  0
128127  1  0  0  0  0
  6 27  1  0  0  0  0
  8 14  4  0  0  0  0
  9 10  4  0  0  0  0
 10 12  4  0  0  0  0
 12 14  4  0  0  0  0
 16 18  4  0  0  0  0
 16 24  4  0  0  0  0
 18 20  4  0  0  0  0
 20 22  4  0  0  0  0
 22 24  4  0  0  0  0
 26 27  4  0  0  0  0
 26 32  4  0  0  0  0
 27 28  4  0  0  0  0
 28 30  4  0  0  0  0
 30 32  4  0  0  0  0
 34 36  4  0  0  0  0
 34 42  4  0  0  0  0
 36 38  4  0  0  0  0
 38 40  4  0  0  0  0
 40 42  4  0  0  0  0
 51 53  4  0  0  0  0
 62 64  4  0  0  0  0
 70 90  1  0  0  0  0
 71 72  4  0  0  0  0
 71 77  4  0  0  0  0
 72 73  4  0  0  0  0
 73 75  4  0  0  0  0
 75 77  4  0  0  0  0
 79 81  4  0  0  0  0
 79 87  4  0  0  0  0
 81 83  4  0  0  0  0
 83 85  4  0  0  0  0
 85 87  4  0  0  0  0
 89 90  4  0  0  0  0
 89 95  4  0  0  0  0
 90 91  4  0  0  0  0
 91 93  4  0  0  0  0
 93 95  4  0  0  0  0
 97 99  4  0  0  0  0
 97105  4  0  0  0  0
 99101  4  0  0  0  0
101103  4  0  0  0  0
103105  4  0  0  0  0
114116  4  0  0  0  0
125127  4  0  0  0  0
M  END
$$$$
NAGBOQ

From CSD data. Using bond type 'Any'. No disordered atoms. Largest molecule.
 79100  0  0  0  0  0  0  0  0999 V2000
    6.8781    2.6795    4.3635 Ni  0  0  0  0  0  0  0  0  0  0  0  0
    7.7148    3.1363    6.3304 P   0  0  0  0  0  0  0  0  0  0  0  0
    6.1706    1.5874    2.6222 P   0  0  0  0  0  0  0  0  0  0  0  0
    5.4385    4.3819    4.0885 S   0  0  0  0  0  0  0  0  0  0  0  0
    3.5459    6.2857    2.0742 S   0  0  0  0  0  0  0  0  0  0  0  0
    3.5694    5.0860    2.0764 H   0  0  0  0  0  0  0  0  0  0  0  0
    7.0264    0.1837    2.5848 O   0  0  0  0  0  0  0  0  0  0  0  0
    8.5589    1.7901    6.7817 O   0  0  0  0  0  0  0  0  0  0  0  0
    7.7581   -0.0007    3.7317 C   0  0  0  0  0  0  0  0  0  0  0  0
    8.5211    0.7932    5.8291 C   0  0  0  0  0  0  0  0  0  0  0  0
    7.8016    1.0559    4.6626 C   0  0  0  0  0  0  0  0  0  0  0  0
    8.3936   -1.2195    3.9481 C   0  0  0  0  0  0  0  0  0  0  0  0
    8.3386   -1.9002    3.3163 H   0  0  0  0  0  0  0  0  0  0  0  0
    6.1391    5.9178    3.5598 C   0  0  0  0  0  0  0  0  0  0  0  0
    9.1671   -0.3973    6.0789 C   0  0  0  0  0  0  0  0  0  0  0  0
    9.6350   -0.5297    6.8714 H   0  0  0  0  0  0  0  0  0  0  0  0
    6.4476    2.1941    0.9309 C   0  0  0  0  0  0  0  0  0  0  0  0
    5.8988    2.9962    0.8106 H   0  0  0  0  0  0  0  0  0  0  0  0
    9.1009   -1.4023    5.1066 C   0  0  0  0  0  0  0  0  0  0  0  0
    9.5455   -2.2061    5.2496 H   0  0  0  0  0  0  0  0  0  0  0  0
    5.1325    6.9036    2.5159 C   0  0  0  0  0  0  0  0  0  0  0  0
    9.0017    4.4207    6.5722 C   0  0  0  0  0  0  0  0  0  0  0  0
    8.6056    5.2897    6.3530 H   0  0  0  0  0  0  0  0  0  0  0  0
    6.5465    3.2708    7.7276 C   0  0  0  0  0  0  0  0  0  0  0  0
    7.0479    3.1316    8.5587 H   0  0  0  0  0  0  0  0  0  0  0  0
    4.4636    0.9381    2.6846 C   0  0  0  0  0  0  0  0  0  0  0  0
    4.4104    0.1866    2.0585 H   0  0  0  0  0  0  0  0  0  0  0  0
    7.9053    2.6048    0.7734 C   0  0  0  0  0  0  0  0  0  0  0  0
    8.1583    3.1741    1.5036 H   0  0  0  0  0  0  0  0  0  0  0  0
    8.0167    3.0767   -0.0546 H   0  0  0  0  0  0  0  0  0  0  0  0
    8.4603    1.8208    0.7722 H   0  0  0  0  0  0  0  0  0  0  0  0
    5.8512    4.6115    7.8167 C   0  0  0  0  0  0  0  0  0  0  0  0
    6.5061    5.3047    7.9304 H   0  0  0  0  0  0  0  0  0  0  0  0
    5.2524    4.6120    8.5675 H   0  0  0  0  0  0  0  0  0  0  0  0
    5.3549    4.7688    7.0111 H   0  0  0  0  0  0  0  0  0  0  0  0
    6.4802    6.1224    1.8651 B   0  0  0  0  0  0  0  0  0  0  0  0
    6.4017    5.3040    1.1345 H   0  0  0  0  0  0  0  0  0  0  0  0
    6.0341    1.1831   -0.1416 C   0  0  0  0  0  0  0  0  0  0  0  0
    6.5146    0.3627   -0.0096 H   0  0  0  0  0  0  0  0  0  0  0  0
    6.2386    1.5380   -1.0097 H   0  0  0  0  0  0  0  0  0  0  0  0
    5.0914    1.0166   -0.0770 H   0  0  0  0  0  0  0  0  0  0  0  0
    9.5497    4.4990    7.9869 C   0  0  0  0  0  0  0  0  0  0  0  0
    8.8467    4.7552    8.5882 H   0  0  0  0  0  0  0  0  0  0  0  0
   10.2541    5.1497    8.0215 H   0  0  0  0  0  0  0  0  0  0  0  0
    9.8938    3.6404    8.2444 H   0  0  0  0  0  0  0  0  0  0  0  0
   10.1190    4.1457    5.5649 C   0  0  0  0  0  0  0  0  0  0  0  0
   10.5371    3.3062    5.7722 H   0  0  0  0  0  0  0  0  0  0  0  0
   10.7720    4.8478    5.6116 H   0  0  0  0  0  0  0  0  0  0  0  0
    9.7506    4.1093    4.6795 H   0  0  0  0  0  0  0  0  0  0  0  0
    5.3835    8.5490    2.8390 B   0  0  0  0  0  0  0  0  0  0  0  0
    4.6083    9.3241    2.7438 H   0  0  0  0  0  0  0  0  0  0  0  0
    7.7306    6.1745    3.1349 B   0  0  0  0  0  0  0  0  0  0  0  0
    8.5042    5.3968    3.2125 H   0  0  0  0  0  0  0  0  0  0  0  0
    6.0724    7.7849    1.4131 B   0  0  0  0  0  0  0  0  0  0  0  0
    5.7589    8.0453    0.3921 H   0  0  0  0  0  0  0  0  0  0  0  0
    5.3556    7.3450    4.1439 B   0  0  0  0  0  0  0  0  0  0  0  0
    4.5446    7.3096    4.8864 H   0  0  0  0  0  0  0  0  0  0  0  0
    5.5082    2.1587    7.6066 C   0  0  0  0  0  0  0  0  0  0  0  0
    4.9873    2.2920    6.8122 H   0  0  0  0  0  0  0  0  0  0  0  0
    4.9318    2.1740    8.3745 H   0  0  0  0  0  0  0  0  0  0  0  0
    5.9538    1.3091    7.5589 H   0  0  0  0  0  0  0  0  0  0  0  0
    4.1853    0.3943    4.0770 C   0  0  0  0  0  0  0  0  0  0  0  0
    4.8995   -0.1900    4.3415 H   0  0  0  0  0  0  0  0  0  0  0  0
    3.3583   -0.0935    4.0712 H   0  0  0  0  0  0  0  0  0  0  0  0
    4.1217    1.1233    4.6991 H   0  0  0  0  0  0  0  0  0  0  0  0
    3.4042    1.9536    2.2724 C   0  0  0  0  0  0  0  0  0  0  0  0
    3.3330    2.6332    2.9477 H   0  0  0  0  0  0  0  0  0  0  0  0
    2.5581    1.5114    2.1739 H   0  0  0  0  0  0  0  0  0  0  0  0
    3.6546    2.3567    1.4385 H   0  0  0  0  0  0  0  0  0  0  0  0
    6.9811    6.9568    4.5512 B   0  0  0  0  0  0  0  0  0  0  0  0
    7.2571    6.6948    5.5841 H   0  0  0  0  0  0  0  0  0  0  0  0
    8.0440    7.8870    3.5057 B   0  0  0  0  0  0  0  0  0  0  0  0
    9.0308    8.2303    3.8488 H   0  0  0  0  0  0  0  0  0  0  0  0
    7.0471    8.8778    2.4284 B   0  0  0  0  0  0  0  0  0  0  0  0
    7.3806    9.8592    2.0613 H   0  0  0  0  0  0  0  0  0  0  0  0
    7.7557    7.3688    1.8380 B   0  0  0  0  0  0  0  0  0  0  0  0
    8.5582    7.3668    1.0851 H   0  0  0  0  0  0  0  0  0  0  0  0
    6.5704    8.5947    4.1025 B   0  0  0  0  0  0  0  0  0  0  0  0
    6.5828    9.4110    4.8401 H   0  0  0  0  0  0  0  0  0  0  0  0
  1  2  1  0  0  0  0
  2  8  1  0  0  0  0
  3  1  1  0  0  0  0
  4  1  1  0  0  0  0
  5  6  1  0  0  0  0
  7  3  1  0  0  0  0
  8 10  1  0  0  0  0
  9  7  1  0  0  0  0
 10 11  4  0  0  0  0
 11  1  1  0  0  0  0
 12  9  4  0  0  0  0
 13 12  1  0  0  0  0
 14  4  1  0  0  0  0
 15 10  4  0  0  0  0
 16 15  1  0  0  0  0
 17  3  1  0  0  0  0
 18 17  1  0  0  0  0
 19 12  4  0  0  0  0
 20 19  1  0  0  0  0
 21  5  1  0  0  0  0
 22  2  1  0  0  0  0
 23 22  1  0  0  0  0
 24  2  1  0  0  0  0
 25 24  1  0  0  0  0
 26  3  1  0  0  0  0
 27 26  1  0  0  0  0
 28 17  1  0  0  0  0
 29 28  1  0  0  0  0
 30 28  1  0  0  0  0
 31 28  1  0  0  0  0
 32 24  1  0  0  0  0
 33 32  1  0  0  0  0
 34 32  1  0  0  0  0
 35 32  1  0  0  0  0
 36 14  1  0  0  0  0
 37 36  1  0  0  0  0
 38 17  1  0  0  0  0
 39 38  1  0  0  0  0
 40 38  1  0  0  0  0
 41 38  1  0  0  0  0
 42 22  1  0  0  0  0
 43 42  1  0  0  0  0
 44 42  1  0  0  0  0
 45 42  1  0  0  0  0
 46 22  1  0  0  0  0
 47 46  1  0  0  0  0
 48 46  1  0  0  0  0
 49 46  1  0  0  0  0
 50 21  1  0  0  0  0
 51 50  1  0  0  0  0
 52 14  1  0  0  0  0
 53 52  1  0  0  0  0
 54 21  1  0  0  0  0
 55 54  1  0  0  0  0
 56 14  1  0  0  0  0
 57 56  1  0  0  0  0
 58 24  1  0  0  0  0
 59 58  1  0  0  0  0
 60 58  1  0  0  0  0
 61 58  1  0  0  0  0
 62 26  1  0  0  0  0
 63 62  1  0  0  0  0
 64 62  1  0  0  0  0
 65 62  1  0  0  0  0
 66 26  1  0  0  0  0
 67 66  1  0  0  0  0
 68 66  1  0  0  0  0
 69 66  1  0  0  0  0
 70 14  1  0  0  0  0
 71 70  1  0  0  0  0
 72 52  1  0  0  0  0
 73 72  1  0  0  0  0
 74 50  1  0  0  0  0
 75 74  1  0  0  0  0
 76 36  1  0  0  0  0
 77 76  1  0  0  0  0
 78 50  1  0  0  0  0
 79 78  1  0  0  0  0
  9 11  4  0  0  0  0
 14 21  1  0  0  0  0
 15 19  4  0  0  0  0
 21 36  1  0  0  0  0
 21 56  1  0  0  0  0
 36 52  1  0  0  0  0
 36 54  1  0  0  0  0
 50 54  1  0  0  0  0
 50 56  1  0  0  0  0
 52 70  1  0  0  0  0
 52 76  1  0  0  0  0
 54 74  1  0  0  0  0
 54 76  1  0  0  0  0
 56 70  1  0  0  0  0
 56 78  1  0  0  0  0
 70 72  1  0  0  0  0
 70 78  1  0  0  0  0
 72 74  1  0  0  0  0
 72 76  1  0  0  0  0
 72 78  1  0  0  0  0
 74 76  1  0  0  0  0
 74 78  1  0  0  0  0
M  END
$$$$
NAGBUW

From CSD data. Using bond type 'Any'. No disordered atoms. Largest molecule.
 79100  0  0  0  0  0  0  0  0999 V2000
    3.7009    9.7469    3.0296 Pd  0  0  0  0  0  0  0  0  0  0  0  0
    2.8096    7.6632    2.8062 P   0  0  0  0  0  0  0  0  0  0  0  0
    4.8901    9.0522    5.0118 S   0  0  0  0  0  0  0  0  0  0  0  0
    4.4140   11.8564    2.4025 P   0  0  0  0  0  0  0  0  0  0  0  0
    7.4411   10.4958    6.7313 S   0  0  0  0  0  0  0  0  0  0  0  0
    7.3619   10.1469    5.5856 H   0  0  0  0  0  0  0  0  0  0  0  0
    2.0983    7.6492    1.3301 O   0  0  0  0  0  0  0  0  0  0  0  0
    3.6429   12.1435    0.9734 O   0  0  0  0  0  0  0  0  0  0  0  0
    2.8401    9.9195    1.2247 C   0  0  0  0  0  0  0  0  0  0  0  0
    2.1511    8.8506    0.6528 C   0  0  0  0  0  0  0  0  0  0  0  0
    4.4922    9.9036    6.5132 C   0  0  0  0  0  0  0  0  0  0  0  0
    2.9221   11.0801    0.4650 C   0  0  0  0  0  0  0  0  0  0  0  0
    2.3228   11.1942   -0.7669 C   0  0  0  0  0  0  0  0  0  0  0  0
    2.3823   11.9881   -1.2477 H   0  0  0  0  0  0  0  0  0  0  0  0
    1.5322    8.9400   -0.6008 C   0  0  0  0  0  0  0  0  0  0  0  0
    1.0665    8.2171   -0.9566 H   0  0  0  0  0  0  0  0  0  0  0  0
    1.6307   10.1157   -1.2839 C   0  0  0  0  0  0  0  0  0  0  0  0
    1.2226   10.1944   -2.1161 H   0  0  0  0  0  0  0  0  0  0  0  0
    4.0229   13.4058    3.2783 C   0  0  0  0  0  0  0  0  0  0  0  0
    4.5253   13.4146    4.1187 H   0  0  0  0  0  0  0  0  0  0  0  0
    6.1660   11.9373    1.8774 C   0  0  0  0  0  0  0  0  0  0  0  0
    6.2883   12.7481    1.3407 H   0  0  0  0  0  0  0  0  0  0  0  0
    4.0093    6.2963    2.7121 C   0  0  0  0  0  0  0  0  0  0  0  0
    4.2767    6.0750    3.6294 H   0  0  0  0  0  0  0  0  0  0  0  0
    4.3872   14.6508    2.4999 C   0  0  0  0  0  0  0  0  0  0  0  0
    5.3391   14.6853    2.3800 H   0  0  0  0  0  0  0  0  0  0  0  0
    4.0969   15.4267    2.9840 H   0  0  0  0  0  0  0  0  0  0  0  0
    3.9573   14.6289    1.6418 H   0  0  0  0  0  0  0  0  0  0  0  0
    5.8296   10.5680    7.4346 C   0  0  0  0  0  0  0  0  0  0  0  0
    1.4261    7.0825    3.8386 C   0  0  0  0  0  0  0  0  0  0  0  0
    0.9989    6.3308    3.3783 H   0  0  0  0  0  0  0  0  0  0  0  0
    5.2666    6.7715    1.9670 C   0  0  0  0  0  0  0  0  0  0  0  0
    5.0379    6.9861    1.0598 H   0  0  0  0  0  0  0  0  0  0  0  0
    5.9255    6.0729    1.9741 H   0  0  0  0  0  0  0  0  0  0  0  0
    5.6209    7.5502    2.4013 H   0  0  0  0  0  0  0  0  0  0  0  0
    7.0697   12.0374    3.1093 C   0  0  0  0  0  0  0  0  0  0  0  0
    6.8194   12.8057    3.6285 H   0  0  0  0  0  0  0  0  0  0  0  0
    7.9841   12.1257    2.8293 H   0  0  0  0  0  0  0  0  0  0  0  0
    6.9735   11.2457    3.6428 H   0  0  0  0  0  0  0  0  0  0  0  0
    3.4195    5.0309    2.0868 C   0  0  0  0  0  0  0  0  0  0  0  0
    2.6836    4.7232    2.6213 H   0  0  0  0  0  0  0  0  0  0  0  0
    4.0941    4.3485    2.0487 H   0  0  0  0  0  0  0  0  0  0  0  0
    3.1113    5.2265    1.1995 H   0  0  0  0  0  0  0  0  0  0  0  0
    5.1071    9.1283    7.9400 B   0  0  0  0  0  0  0  0  0  0  0  0
    5.6194    8.1564    7.8920 H   0  0  0  0  0  0  0  0  0  0  0  0
    6.5171   10.7434    1.0181 C   0  0  0  0  0  0  0  0  0  0  0  0
    6.4524    9.9421    1.5428 H   0  0  0  0  0  0  0  0  0  0  0  0
    7.4135   10.8391    0.6889 H   0  0  0  0  0  0  0  0  0  0  0  0
    5.9077   10.6920    0.2785 H   0  0  0  0  0  0  0  0  0  0  0  0
    5.3119   11.9570    8.2866 B   0  0  0  0  0  0  0  0  0  0  0  0
    5.9380   12.8382    8.4883 H   0  0  0  0  0  0  0  0  0  0  0  0
    4.7202   11.5786    6.6547 B   0  0  0  0  0  0  0  0  0  0  0  0
    4.9917   12.2014    5.7897 H   0  0  0  0  0  0  0  0  0  0  0  0
    3.4271    9.2726    7.6454 B   0  0  0  0  0  0  0  0  0  0  0  0
    2.8058    8.3859    7.4529 H   0  0  0  0  0  0  0  0  0  0  0  0
    4.0830    9.5980    9.2513 B   0  0  0  0  0  0  0  0  0  0  0  0
    3.9062    8.9255   10.1033 H   0  0  0  0  0  0  0  0  0  0  0  0
    3.1419   10.8021    6.8136 B   0  0  0  0  0  0  0  0  0  0  0  0
    2.3393   10.9388    6.0735 H   0  0  0  0  0  0  0  0  0  0  0  0
    5.5548   10.4015    9.0968 B   0  0  0  0  0  0  0  0  0  0  0  0
    6.3488   10.2622    9.8460 H   0  0  0  0  0  0  0  0  0  0  0  0
    4.1524   11.3616    9.4420 B   0  0  0  0  0  0  0  0  0  0  0  0
    3.9989   11.8615   10.4090 H   0  0  0  0  0  0  0  0  0  0  0  0
    1.8902    6.6054    5.1672 C   0  0  0  0  0  0  0  0  0  0  0  0
    2.3338    5.7598    5.0660 H   0  0  0  0  0  0  0  0  0  0  0  0
    1.1361    6.5034    5.7518 H   0  0  0  0  0  0  0  0  0  0  0  0
    2.5015    7.2443    5.5411 H   0  0  0  0  0  0  0  0  0  0  0  0
    2.5192   13.3959    3.6191 C   0  0  0  0  0  0  0  0  0  0  0  0
    2.0074   13.3301    2.8100 H   0  0  0  0  0  0  0  0  0  0  0  0
    2.2902   14.2080    4.0776 H   0  0  0  0  0  0  0  0  0  0  0  0
    2.3241   12.6443    4.1837 H   0  0  0  0  0  0  0  0  0  0  0  0
    3.6166   12.0974    7.9371 B   0  0  0  0  0  0  0  0  0  0  0  0
    3.1177   13.0781    7.9136 H   0  0  0  0  0  0  0  0  0  0  0  0
    2.8236   10.6418    8.5740 B   0  0  0  0  0  0  0  0  0  0  0  0
    1.8035   10.6610    8.9850 H   0  0  0  0  0  0  0  0  0  0  0  0
    0.4165    8.2082    3.9368 C   0  0  0  0  0  0  0  0  0  0  0  0
    0.8460    8.9949    4.2817 H   0  0  0  0  0  0  0  0  0  0  0  0
   -0.2962    7.9490    4.5249 H   0  0  0  0  0  0  0  0  0  0  0  0
    0.0599    8.3954    3.0650 H   0  0  0  0  0  0  0  0  0  0  0  0
  1  2  1  0  0  0  0
  2  7  1  0  0  0  0
  3  1  1  0  0  0  0
  4  1  1  0  0  0  0
  5  6  1  0  0  0  0
  7 10  1  0  0  0  0
  8  4  1  0  0  0  0
  9  1  1  0  0  0  0
 10  9  4  0  0  0  0
 11  3  1  0  0  0  0
 12  8  1  0  0  0  0
 13 12  4  0  0  0  0
 14 13  1  0  0  0  0
 15 10  4  0  0  0  0
 16 15  1  0  0  0  0
 17 13  4  0  0  0  0
 18 17  1  0  0  0  0
 19  4  1  0  0  0  0
 20 19  1  0  0  0  0
 21  4  1  0  0  0  0
 22 21  1  0  0  0  0
 23  2  1  0  0  0  0
 24 23  1  0  0  0  0
 25 19  1  0  0  0  0
 26 25  1  0  0  0  0
 27 25  1  0  0  0  0
 28 25  1  0  0  0  0
 29  5  1  0  0  0  0
 30  2  1  0  0  0  0
 31 30  1  0  0  0  0
 32 23  1  0  0  0  0
 33 32  1  0  0  0  0
 34 32  1  0  0  0  0
 35 32  1  0  0  0  0
 36 21  1  0  0  0  0
 37 36  1  0  0  0  0
 38 36  1  0  0  0  0
 39 36  1  0  0  0  0
 40 23  1  0  0  0  0
 41 40  1  0  0  0  0
 42 40  1  0  0  0  0
 43 40  1  0  0  0  0
 44 11  1  0  0  0  0
 45 44  1  0  0  0  0
 46 21  1  0  0  0  0
 47 46  1  0  0  0  0
 48 46  1  0  0  0  0
 49 46  1  0  0  0  0
 50 29  1  0  0  0  0
 51 50  1  0  0  0  0
 52 11  1  0  0  0  0
 53 52  1  0  0  0  0
 54 11  1  0  0  0  0
 55 54  1  0  0  0  0
 56 44  1  0  0  0  0
 57 56  1  0  0  0  0
 58 11  1  0  0  0  0
 59 58  1  0  0  0  0
 60 29  1  0  0  0  0
 61 60  1  0  0  0  0
 62 50  1  0  0  0  0
 63 62  1  0  0  0  0
 64 30  1  0  0  0  0
 65 64  1  0  0  0  0
 66 64  1  0  0  0  0
 67 64  1  0  0  0  0
 68 19  1  0  0  0  0
 69 68  1  0  0  0  0
 70 68  1  0  0  0  0
 71 68  1  0  0  0  0
 72 50  1  0  0  0  0
 73 72  1  0  0  0  0
 74 54  1  0  0  0  0
 75 74  1  0  0  0  0
 76 30  1  0  0  0  0
 77 76  1  0  0  0  0
 78 76  1  0  0  0  0
 79 76  1  0  0  0  0
  9 12  4  0  0  0  0
 11 29  1  0  0  0  0
 15 17  4  0  0  0  0
 29 44  1  0  0  0  0
 29 52  1  0  0  0  0
 44 54  1  0  0  0  0
 44 60  1  0  0  0  0
 50 52  1  0  0  0  0
 50 60  1  0  0  0  0
 52 58  1  0  0  0  0
 52 72  1  0  0  0  0
 54 56  1  0  0  0  0
 54 58  1  0  0  0  0
 56 60  1  0  0  0  0
 56 62  1  0  0  0  0
 56 74  1  0  0  0  0
 58 72  1  0  0  0  0
 58 74  1  0  0  0  0
 60 62  1  0  0  0  0
 62 72  1  0  0  0  0
 62 74  1  0  0  0  0
 72 74  1  0  0  0  0
M  END
$$$$
NATQOO

From CSD data. Using bond type 'Any'. No disordered atoms. Largest molecule.
 57 79  0  0  0  0  0  0  0  0999 V2000
    3.2814    3.1694   10.8322 Ru  0  0  0  0  0  0  0  0  0  0  0  0
    1.3182    4.1852   12.0926 P   0  0  0  0  0  0  0  0  0  0  0  0
    1.9272    1.6712    9.3325 P   0  0  0  0  0  0  0  0  0  0  0  0
    3.1049    5.1155    8.5743 O   0  0  0  0  0  0  0  0  0  0  0  0
    4.1133    1.4227   12.9845 O   0  0  0  0  0  0  0  0  0  0  0  0
    3.5364    5.9606    7.4292 C   0  0  0  0  0  0  0  0  0  0  0  0
    2.5446    7.1513    7.3884 C   0  0  0  0  0  0  0  0  0  0  0  0
    3.4266    5.1037    6.1870 C   0  0  0  0  0  0  0  0  0  0  0  0
    3.9735    1.6499   14.4349 C   0  0  0  0  0  0  0  0  0  0  0  0
    3.0283    0.6178   14.9442 C   0  0  0  0  0  0  0  0  0  0  0  0
    5.2897    1.6097   15.0975 C   0  0  0  0  0  0  0  0  0  0  0  0
    1.5438    4.1734   13.9186 C   0  0  0  0  0  0  0  0  0  0  0  0
    2.5057    5.0090   14.4448 C   0  0  0  0  0  0  0  0  0  0  0  0
    2.7355    5.0611   15.8290 C   0  0  0  0  0  0  0  0  0  0  0  0
    1.9521    4.2515   16.6562 C   0  0  0  0  0  0  0  0  0  0  0  0
    0.9819    3.4703   16.1639 C   0  0  0  0  0  0  0  0  0  0  0  0
    0.7451    3.4040   14.7894 C   0  0  0  0  0  0  0  0  0  0  0  0
    0.9190    5.9511   11.8577 C   0  0  0  0  0  0  0  0  0  0  0  0
    0.3800    6.7536   12.8678 C   0  0  0  0  0  0  0  0  0  0  0  0
   -0.0012    8.0414   12.6596 C   0  0  0  0  0  0  0  0  0  0  0  0
    0.1952    8.6237   11.4666 C   0  0  0  0  0  0  0  0  0  0  0  0
    0.7314    7.8922   10.4369 C   0  0  0  0  0  0  0  0  0  0  0  0
    1.0887    6.5571   10.6338 C   0  0  0  0  0  0  0  0  0  0  0  0
   -0.3039    3.3543   11.8816 C   0  0  0  0  0  0  0  0  0  0  0  0
   -0.4027    1.9955   12.1897 C   0  0  0  0  0  0  0  0  0  0  0  0
   -1.6160    1.3469   12.0659 C   0  0  0  0  0  0  0  0  0  0  0  0
   -2.7377    2.0263   11.5989 C   0  0  0  0  0  0  0  0  0  0  0  0
   -2.6160    3.3330   11.2739 C   0  0  0  0  0  0  0  0  0  0  0  0
   -1.4252    4.0195   11.4075 C   0  0  0  0  0  0  0  0  0  0  0  0
    0.3155    2.3412    8.7304 C   0  0  0  0  0  0  0  0  0  0  0  0
   -0.8572    1.6121    8.7333 C   0  0  0  0  0  0  0  0  0  0  0  0
   -2.0242    2.1613    8.1776 C   0  0  0  0  0  0  0  0  0  0  0  0
   -1.9892    3.4348    7.6233 C   0  0  0  0  0  0  0  0  0  0  0  0
   -0.8126    4.1615    7.6430 C   0  0  0  0  0  0  0  0  0  0  0  0
    0.3473    3.6479    8.2339 C   0  0  0  0  0  0  0  0  0  0  0  0
    2.7109    1.1292    7.7415 C   0  0  0  0  0  0  0  0  0  0  0  0
    3.7178    0.2012    7.8118 C   0  0  0  0  0  0  0  0  0  0  0  0
    4.3709   -0.2462    6.6118 C   0  0  0  0  0  0  0  0  0  0  0  0
    3.9962    0.3172    5.3922 C   0  0  0  0  0  0  0  0  0  0  0  0
    2.9619    1.2167    5.3246 C   0  0  0  0  0  0  0  0  0  0  0  0
    2.2927    1.6712    6.5120 C   0  0  0  0  0  0  0  0  0  0  0  0
    1.5536    0.0166   10.0458 C   0  0  0  0  0  0  0  0  0  0  0  0
    1.9404   -0.2509   11.3724 C   0  0  0  0  0  0  0  0  0  0  0  0
    1.6295   -1.4819   11.9126 C   0  0  0  0  0  0  0  0  0  0  0  0
    0.9879   -2.4595   11.1388 C   0  0  0  0  0  0  0  0  0  0  0  0
    0.6519   -2.1920    9.8052 C   0  0  0  0  0  0  0  0  0  0  0  0
    0.9362   -0.9540    9.2552 C   0  0  0  0  0  0  0  0  0  0  0  0
    3.9479    4.5143    9.4437 B   0  0  0  0  0  0  0  0  0  0  0  0
    4.6630    2.3317   12.1053 B   0  0  0  0  0  0  0  0  0  0  0  0
    4.5680    5.0895   11.0362 B   0  0  0  0  0  0  0  0  0  0  0  0
    4.9441    4.0029   12.3008 B   0  0  0  0  0  0  0  0  0  0  0  0
    5.2894    1.9979   10.5072 B   0  0  0  0  0  0  0  0  0  0  0  0
    4.9963    3.0774    9.2130 B   0  0  0  0  0  0  0  0  0  0  0  0
    5.6643    4.7107    9.6111 B   0  0  0  0  0  0  0  0  0  0  0  0
    6.2351    2.8714   11.8028 B   0  0  0  0  0  0  0  0  0  0  0  0
    6.2618    4.5687   11.2598 B   0  0  0  0  0  0  0  0  0  0  0  0
    6.5173    3.2289   10.0964 B   0  0  0  0  0  0  0  0  0  0  0  0
  1  2  1  0  0  0  0
  2 12  1  0  0  0  0
  3  1  1  0  0  0  0
  4  6  1  0  0  0  0
  5  9  1  0  0  0  0
  6  7  1  0  0  0  0
  8  6  1  0  0  0  0
  9 10  1  0  0  0  0
 11  9  1  0  0  0  0
 12 13  4  0  0  0  0
 13 14  4  0  0  0  0
 14 15  4  0  0  0  0
 15 16  4  0  0  0  0
 16 17  4  0  0  0  0
 17 12  4  0  0  0  0
 18  2  1  0  0  0  0
 19 18  4  0  0  0  0
 20 19  4  0  0  0  0
 21 20  4  0  0  0  0
 22 21  4  0  0  0  0
 23 18  4  0  0  0  0
 24  2  1  0  0  0  0
 25 24  4  0  0  0  0
 26 25  4  0  0  0  0
 27 26  4  0  0  0  0
 28 27  4  0  0  0  0
 29 24  4  0  0  0  0
 30  3  1  0  0  0  0
 31 30  4  0  0  0  0
 32 31  4  0  0  0  0
 33 32  4  0  0  0  0
 34 33  4  0  0  0  0
 35 30  4  0  0  0  0
 36  3  1  0  0  0  0
 37 36  4  0  0  0  0
 38 37  4  0  0  0  0
 39 38  4  0  0  0  0
 40 39  4  0  0  0  0
 41 36  4  0  0  0  0
 42  3  1  0  0  0  0
 43 42  4  0  0  0  0
 44 43  4  0  0  0  0
 45 44  4  0  0  0  0
 46 45  4  0  0  0  0
 47 42  4  0  0  0  0
 48  1  1  0  0  0  0
 49  1  1  0  0  0  0
 50  1  1  0  0  0  0
 51  1  1  0  0  0  0
 52  1  1  0  0  0  0
 53  1  1  0  0  0  0
 54 48  1  0  0  0  0
 55 49  1  0  0  0  0
 56 50  1  0  0  0  0
 57 52  1  0  0  0  0
  4 48  1  0  0  0  0
  5 49  1  0  0  0  0
 22 23  4  0  0  0  0
 28 29  4  0  0  0  0
 34 35  4  0  0  0  0
 40 41  4  0  0  0  0
 46 47  4  0  0  0  0
 48 50  1  0  0  0  0
 48 53  1  0  0  0  0
 49 51  1  0  0  0  0
 49 52  1  0  0  0  0
 50 51  1  0  0  0  0
 50 54  1  0  0  0  0
 51 55  1  0  0  0  0
 51 56  1  0  0  0  0
 52 53  1  0  0  0  0
 52 55  1  0  0  0  0
 53 54  1  0  0  0  0
 53 57  1  0  0  0  0
 54 56  1  0  0  0  0
 54 57  1  0  0  0  0
 55 56  1  0  0  0  0
 55 57  1  0  0  0  0
 56 57  1  0  0  0  0
M  END
$$$$
NECMAJ

From CSD data. Using bond type 'Any'. No disordered atoms. Largest molecule.
106154  0  0  0  0  0  0  0  0999 V2000
   13.2434   37.7904   25.5176 Ir  0  0  0  0  0  0  0  0  0  0  0  0
   17.6951   42.5603   27.5324 Ir  0  0  0  0  0  0  0  0  0  0  0  0
   11.1990   37.0382   24.7185 P   0  0  0  0  0  0  0  0  0  0  0  0
   13.4771   36.1324   27.2240 P   0  0  0  0  0  0  0  0  0  0  0  0
   19.8569   43.3132   26.9178 P   0  0  0  0  0  0  0  0  0  0  0  0
   18.0653   43.6080   29.6518 P   0  0  0  0  0  0  0  0  0  0  0  0
   16.9469   41.5319   25.8010 B   0  0  0  0  0  0  0  0  0  0  0  0
   15.7985   41.3600   27.4006 B   0  0  0  0  0  0  0  0  0  0  0  0
   17.2308   43.2912   25.4051 B   0  0  0  0  0  0  0  0  0  0  0  0
   18.1022   43.3880   24.6988 H   0  0  0  0  0  0  0  0  0  0  0  0
   16.0352   42.2845   24.5058 B   0  0  0  0  0  0  0  0  0  0  0  0
   16.1412   42.0159   23.5766 H   0  0  0  0  0  0  0  0  0  0  0  0
   15.2147   41.1277   25.6359 B   0  0  0  0  0  0  0  0  0  0  0  0
   15.4457   43.0903   27.8264 B   0  0  0  0  0  0  0  0  0  0  0  0
   15.0872   43.4049   28.9247 H   0  0  0  0  0  0  0  0  0  0  0  0
   16.3414   44.2350   26.6446 B   0  0  0  0  0  0  0  0  0  0  0  0
   16.5570   45.3216   27.0544 H   0  0  0  0  0  0  0  0  0  0  0  0
   15.6511   43.9107   25.0549 B   0  0  0  0  0  0  0  0  0  0  0  0
   15.6546   44.5327   24.5098 H   0  0  0  0  0  0  0  0  0  0  0  0
   14.4057   42.6209   25.1186 B   0  0  0  0  0  0  0  0  0  0  0  0
   13.4426   42.6354   24.4560 H   0  0  0  0  0  0  0  0  0  0  0  0
   14.2877   42.0764   26.8475 B   0  0  0  0  0  0  0  0  0  0  0  0
   13.1150   41.5004   27.4981 H   0  0  0  0  0  0  0  0  0  0  0  0
   14.5842   43.8091   26.4576 B   0  0  0  0  0  0  0  0  0  0  0  0
   13.8572   44.6512   26.4596 H   0  0  0  0  0  0  0  0  0  0  0  0
   16.4271   39.9347   26.2924 B   0  0  0  0  0  0  0  0  0  0  0  0
   18.1719   40.4816   26.3939 B   0  0  0  0  0  0  0  0  0  0  0  0
   19.1089   40.2299   25.8269 H   0  0  0  0  0  0  0  0  0  0  0  0
   16.8706   41.0019   28.9684 B   0  0  0  0  0  0  0  0  0  0  0  0
   16.4561   41.3625   29.6091 H   0  0  0  0  0  0  0  0  0  0  0  0
   15.9628   39.6903   28.0651 B   0  0  0  0  0  0  0  0  0  0  0  0
   14.9959   39.0925   28.2482 H   0  0  0  0  0  0  0  0  0  0  0  0
   17.5767   39.0780   27.3748 B   0  0  0  0  0  0  0  0  0  0  0  0
   17.8460   38.2697   27.1340 H   0  0  0  0  0  0  0  0  0  0  0  0
   18.4584   40.4477   28.2263 B   0  0  0  0  0  0  0  0  0  0  0  0
   19.3134   40.4380   28.5367 H   0  0  0  0  0  0  0  0  0  0  0  0
   17.3545   39.4168   28.9804 B   0  0  0  0  0  0  0  0  0  0  0  0
   17.4759   38.8602   29.8359 H   0  0  0  0  0  0  0  0  0  0  0  0
   13.6805   39.4386   24.1894 B   0  0  0  0  0  0  0  0  0  0  0  0
   12.8015   40.2275   23.9387 H   0  0  0  0  0  0  0  0  0  0  0  0
   13.8334   37.8680   23.3339 B   0  0  0  0  0  0  0  0  0  0  0  0
   13.1259   37.7518   22.5142 H   0  0  0  0  0  0  0  0  0  0  0  0
   15.1465   39.0707   23.3319 B   0  0  0  0  0  0  0  0  0  0  0  0
   15.6476   39.8935   22.5858 H   0  0  0  0  0  0  0  0  0  0  0  0
   15.2150   39.3369   25.1504 B   0  0  0  0  0  0  0  0  0  0  0  0
   14.5325   38.4149   25.8547 H   0  0  0  0  0  0  0  0  0  0  0  0
   14.4805   36.4233   24.1656 B   0  0  0  0  0  0  0  0  0  0  0  0
   14.2387   35.2641   23.9407 H   0  0  0  0  0  0  0  0  0  0  0  0
   15.5440   37.3598   23.0434 B   0  0  0  0  0  0  0  0  0  0  0  0
   16.0474   36.8177   22.0904 H   0  0  0  0  0  0  0  0  0  0  0  0
   16.5152   38.3520   24.1954 B   0  0  0  0  0  0  0  0  0  0  0  0
   17.5458   38.6956   24.0143 H   0  0  0  0  0  0  0  0  0  0  0  0
   16.7597   37.7736   25.0131 H   0  0  0  0  0  0  0  0  0  0  0  0
   16.3232   36.5660   24.3426 B   0  0  0  0  0  0  0  0  0  0  0  0
   17.1584   35.8497   24.5655 H   0  0  0  0  0  0  0  0  0  0  0  0
   15.4497   36.2369   25.2101 H   0  0  0  0  0  0  0  0  0  0  0  0
   11.6581   39.6661   27.3389 O   0  0  0  0  0  0  0  0  0  0  0  0
   12.2864   38.9909   26.6804 C   0  0  0  0  0  0  0  0  0  0  0  0
   11.1977   35.5956   23.6105 C   0  0  0  0  0  0  0  0  0  0  0  0
   11.6438   34.8430   24.0521 H   0  0  0  0  0  0  0  0  0  0  0  0
   11.6760   35.8183   22.7848 H   0  0  0  0  0  0  0  0  0  0  0  0
   10.2738   35.3488   23.3976 H   0  0  0  0  0  0  0  0  0  0  0  0
    9.9539   36.5878   25.9840 C   0  0  0  0  0  0  0  0  0  0  0  0
    9.8773   37.3114   26.6386 H   0  0  0  0  0  0  0  0  0  0  0  0
   10.2310   35.7650   26.4377 H   0  0  0  0  0  0  0  0  0  0  0  0
    9.0855   36.4450   25.5523 H   0  0  0  0  0  0  0  0  0  0  0  0
   10.3455   38.3399   23.7656 C   0  0  0  0  0  0  0  0  0  0  0  0
   10.3034   39.1603   24.2989 H   0  0  0  0  0  0  0  0  0  0  0  0
    9.4373   38.0447   23.5488 H   0  0  0  0  0  0  0  0  0  0  0  0
   10.8384   38.5141   22.9360 H   0  0  0  0  0  0  0  0  0  0  0  0
   15.1432   36.0070   27.9100 C   0  0  0  0  0  0  0  0  0  0  0  0
   15.4569   36.9000   28.1706 H   0  0  0  0  0  0  0  0  0  0  0  0
   15.7475   35.6319   27.2355 H   0  0  0  0  0  0  0  0  0  0  0  0
   15.1301   35.4238   28.6978 H   0  0  0  0  0  0  0  0  0  0  0  0
   13.0863   34.4340   26.8177 C   0  0  0  0  0  0  0  0  0  0  0  0
   12.1865   34.3905   26.4317 H   0  0  0  0  0  0  0  0  0  0  0  0
   13.1201   33.8871   27.6294 H   0  0  0  0  0  0  0  0  0  0  0  0
   13.7375   34.0952   26.1691 H   0  0  0  0  0  0  0  0  0  0  0  0
   12.5134   36.4838   28.7297 C   0  0  0  0  0  0  0  0  0  0  0  0
   12.6790   37.4082   29.0142 H   0  0  0  0  0  0  0  0  0  0  0  0
   12.7851   35.8691   29.4419 H   0  0  0  0  0  0  0  0  0  0  0  0
   11.5592   36.3676   28.5427 H   0  0  0  0  0  0  0  0  0  0  0  0
   20.6339   42.4708   25.4946 C   0  0  0  0  0  0  0  0  0  0  0  0
   20.0180   42.4829   24.7326 H   0  0  0  0  0  0  0  0  0  0  0  0
   20.8371   41.5440   25.7353 H   0  0  0  0  0  0  0  0  0  0  0  0
   21.4621   42.9355   25.2539 H   0  0  0  0  0  0  0  0  0  0  0  0
   21.2285   43.1170   28.1268 C   0  0  0  0  0  0  0  0  0  0  0  0
   20.9734   43.5259   28.9784 H   0  0  0  0  0  0  0  0  0  0  0  0
   22.0339   43.5550   27.7806 H   0  0  0  0  0  0  0  0  0  0  0  0
   21.4089   42.1635   28.2641 H   0  0  0  0  0  0  0  0  0  0  0  0
   19.9699   45.0747   26.3959 C   0  0  0  0  0  0  0  0  0  0  0  0
   19.5783   45.6459   27.0883 H   0  0  0  0  0  0  0  0  0  0  0  0
   19.4814   45.1982   25.5563 H   0  0  0  0  0  0  0  0  0  0  0  0
   20.9107   45.3167   26.2646 H   0  0  0  0  0  0  0  0  0  0  0  0
   18.8496   45.2780   29.6270 C   0  0  0  0  0  0  0  0  0  0  0  0
   19.6562   45.2514   29.0719 H   0  0  0  0  0  0  0  0  0  0  0  0
   19.0898   45.5394   30.5402 H   0  0  0  0  0  0  0  0  0  0  0  0
   18.2189   45.9314   29.2569 H   0  0  0  0  0  0  0  0  0  0  0  0
   16.6701   44.0511   30.7332 C   0  0  0  0  0  0  0  0  0  0  0  0
   16.0249   44.5907   30.2298 H   0  0  0  0  0  0  0  0  0  0  0  0
   17.0002   44.5665   31.4992 H   0  0  0  0  0  0  0  0  0  0  0  0
   16.2318   43.2355   31.0535 H   0  0  0  0  0  0  0  0  0  0  0  0
   19.1022   42.6209   30.8128 C   0  0  0  0  0  0  0  0  0  0  0  0
   19.9076   42.3111   30.3472 H   0  0  0  0  0  0  0  0  0  0  0  0
   18.5919   41.8489   31.1311 H   0  0  0  0  0  0  0  0  0  0  0  0
   19.3603   43.1799   31.5748 H   0  0  0  0  0  0  0  0  0  0  0  0
  1  3  1  0  0  0  0
  2  5  1  0  0  0  0
  3 59  1  0  0  0  0
  4  1  1  0  0  0  0
  5 83  1  0  0  0  0
  6  2  1  0  0  0  0
  7  2  1  0  0  0  0
  8  2  1  0  0  0  0
  9  2  1  0  0  0  0
 10  9  1  0  0  0  0
 11  7  1  0  0  0  0
 12 11  1  0  0  0  0
 13  7  1  0  0  0  0
 14  2  1  0  0  0  0
 15 14  1  0  0  0  0
 16  2  1  0  0  0  0
 17 16  1  0  0  0  0
 18  9  1  0  0  0  0
 19 18  1  0  0  0  0
 20 11  1  0  0  0  0
 21 20  1  0  0  0  0
 22  8  1  0  0  0  0
 23 22  1  0  0  0  0
 24 14  1  0  0  0  0
 25 24  1  0  0  0  0
 26  7  1  0  0  0  0
 27  2  1  0  0  0  0
 28 27  1  0  0  0  0
 29  2  1  0  0  0  0
 30 29  1  0  0  0  0
 31  8  1  0  0  0  0
 32 31  1  0  0  0  0
 33 26  1  0  0  0  0
 34 33  1  0  0  0  0
 35  2  1  0  0  0  0
 36 35  1  0  0  0  0
 37 29  1  0  0  0  0
 38 37  1  0  0  0  0
 39  1  1  0  0  0  0
 40 39  1  0  0  0  0
 41  1  1  0  0  0  0
 42 41  1  0  0  0  0
 43 39  1  0  0  0  0
 44 43  1  0  0  0  0
 45  1  1  0  0  0  0
 46  1  1  0  0  0  0
 47  1  1  0  0  0  0
 48 47  1  0  0  0  0
 49 41  1  0  0  0  0
 50 49  1  0  0  0  0
 51 43  1  0  0  0  0
 52 51  1  0  0  0  0
 53 51  1  0  0  0  0
 54 47  1  0  0  0  0
 55 54  1  0  0  0  0
 56 47  1  0  0  0  0
 57 58  3  0  0  0  0
 58  1  1  0  0  0  0
 59 60  1  0  0  0  0
 61 59  1  0  0  0  0
 62 59  1  0  0  0  0
 63  3  1  0  0  0  0
 64 63  1  0  0  0  0
 65 63  1  0  0  0  0
 66 63  1  0  0  0  0
 67  3  1  0  0  0  0
 68 67  1  0  0  0  0
 69 67  1  0  0  0  0
 70 67  1  0  0  0  0
 71  4  1  0  0  0  0
 72 71  1  0  0  0  0
 73 71  1  0  0  0  0
 74 71  1  0  0  0  0
 75  4  1  0  0  0  0
 76 75  1  0  0  0  0
 77 75  1  0  0  0  0
 78 75  1  0  0  0  0
 79  4  1  0  0  0  0
 80 79  1  0  0  0  0
 81 79  1  0  0  0  0
 82 79  1  0  0  0  0
 83 84  1  0  0  0  0
 85 83  1  0  0  0  0
 86 83  1  0  0  0  0
 87  5  1  0  0  0  0
 88 87  1  0  0  0  0
 89 87  1  0  0  0  0
 90 87  1  0  0  0  0
 91  5  1  0  0  0  0
 92 91  1  0  0  0  0
 93 91  1  0  0  0  0
 94 91  1  0  0  0  0
 95  6  1  0  0  0  0
 96 95  1  0  0  0  0
 97 95  1  0  0  0  0
 98 95  1  0  0  0  0
 99  6  1  0  0  0  0
100 99  1  0  0  0  0
101 99  1  0  0  0  0
102 99  1  0  0  0  0
103  6  1  0  0  0  0
104103  1  0  0  0  0
105103  1  0  0  0  0
106103  1  0  0  0  0
  7  8  1  0  0  0  0
  7  9  1  0  0  0  0
  7 27  1  0  0  0  0
  8 13  1  0  0  0  0
  8 14  1  0  0  0  0
  8 26  1  0  0  0  0
  8 29  1  0  0  0  0
  9 11  1  0  0  0  0
  9 16  1  0  0  0  0
 11 13  1  0  0  0  0
 11 18  1  0  0  0  0
 13 20  1  0  0  0  0
 13 22  1  0  0  0  0
 13 26  1  0  0  0  0
 13 45  1  0  0  0  0
 14 16  1  0  0  0  0
 14 22  1  0  0  0  0
 16 18  1  0  0  0  0
 16 24  1  0  0  0  0
 18 20  1  0  0  0  0
 18 24  1  0  0  0  0
 20 22  1  0  0  0  0
 20 24  1  0  0  0  0
 22 24  1  0  0  0  0
 26 27  1  0  0  0  0
 26 31  1  0  0  0  0
 26 45  1  0  0  0  0
 27 33  1  0  0  0  0
 27 35  1  0  0  0  0
 29 31  1  0  0  0  0
 29 35  1  0  0  0  0
 31 33  1  0  0  0  0
 31 37  1  0  0  0  0
 33 35  1  0  0  0  0
 33 37  1  0  0  0  0
 35 37  1  0  0  0  0
 39 41  1  0  0  0  0
 39 45  1  0  0  0  0
 41 43  1  0  0  0  0
 41 47  1  0  0  0  0
 43 45  1  0  0  0  0
 43 49  1  0  0  0  0
 45 46  1  0  0  0  0
 45 51  1  0  0  0  0
 47 49  1  0  0  0  0
 49 51  1  0  0  0  0
 49 54  1  0  0  0  0
 51 54  1  0  0  0  0
 53 54  1  0  0  0  0
 54 56  1  0  0  0  0
M  END
$$$$
NEKJUL

From CSD data. Using bond type 'Any'. No disordered atoms. Largest molecule.
211230  0  0  0  0  0  0  0  0999 V2000
    9.8043   11.3326   10.3437 I   0  0  0  0  0  0  0  0  0  0  0  0
    7.2626   10.3613   12.3976 C   0  0  0  0  0  0  0  0  0  0  0  0
    6.1982   10.0566   12.0800 O   0  0  0  0  0  0  0  0  0  0  0  0
    9.0709   10.8459   13.0118 W   0  0  0  0  0  0  0  0  0  0  0  0
    7.7260    8.4222    9.5569 Au  0  3  0  0  0  0  0  0  0  0  0  0
   11.6542    8.3097   13.9535 P   0  0  0  0  0  0  0  0  0  0  0  0
    8.4631    7.5586   11.5591 P   0  0  0  0  0  0  0  0  0  0  0  0
    9.4209   13.2515   15.2280 B   0  0  0  0  0  0  0  0  0  0  0  0
    9.5216   13.9757   15.9123 H   0  0  0  0  0  0  0  0  0  0  0  0
    8.4425   10.9463   15.0807 N   0  0  0  0  0  0  0  0  0  0  0  0
    8.8104   12.0087   15.8727 N   0  0  0  0  0  0  0  0  0  0  0  0
   10.8968   11.9598   13.6454 N   0  0  0  0  0  0  0  0  0  0  0  0
   10.7837   12.9132   14.6267 N   0  0  0  0  0  0  0  0  0  0  0  0
    8.1881   12.8913   13.0420 N   0  0  0  0  0  0  0  0  0  0  0  0
    8.4901   13.7223   14.1066 N   0  0  0  0  0  0  0  0  0  0  0  0
   10.1572    9.1315   13.4007 C   0  0  0  0  0  0  0  0  0  0  0  0
    9.1052    8.8352   12.6549 C   0  0  0  0  0  0  0  0  0  0  0  0
   12.3053    9.3589   15.2924 C   0  0  0  0  0  0  0  0  0  0  0  0
   11.5299   10.1046   16.1723 C   0  0  0  0  0  0  0  0  0  0  0  0
   10.5815   10.0625   16.1245 H   0  0  0  0  0  0  0  0  0  0  0  0
   12.1428   10.9153   17.1222 C   0  0  0  0  0  0  0  0  0  0  0  0
   11.6077   11.4156   17.7262 H   0  0  0  0  0  0  0  0  0  0  0  0
   13.5126   11.0036   17.1987 C   0  0  0  0  0  0  0  0  0  0  0  0
   13.9232   11.5624   17.8485 H   0  0  0  0  0  0  0  0  0  0  0  0
   14.2863   10.2688   16.3175 C   0  0  0  0  0  0  0  0  0  0  0  0
   15.2345   10.3318   16.3557 H   0  0  0  0  0  0  0  0  0  0  0  0
   13.6876    9.4438   15.3829 C   0  0  0  0  0  0  0  0  0  0  0  0
   14.2281    8.9305   14.7941 H   0  0  0  0  0  0  0  0  0  0  0  0
   11.0303    6.8105   14.8192 C   0  0  0  0  0  0  0  0  0  0  0  0
   10.2925    6.8319   16.0000 C   0  0  0  0  0  0  0  0  0  0  0  0
   10.0967    7.6629   16.4169 H   0  0  0  0  0  0  0  0  0  0  0  0
    9.8431    5.6546   16.5717 C   0  0  0  0  0  0  0  0  0  0  0  0
    9.3197    5.6807   17.3630 H   0  0  0  0  0  0  0  0  0  0  0  0
   10.1553    4.4434   15.9907 C   0  0  0  0  0  0  0  0  0  0  0  0
    9.8556    3.6367   16.3902 H   0  0  0  0  0  0  0  0  0  0  0  0
   10.9028    4.3997   14.8285 C   0  0  0  0  0  0  0  0  0  0  0  0
   11.1195    3.5647   14.4310 H   0  0  0  0  0  0  0  0  0  0  0  0
   11.3355    5.5837   14.2456 C   0  0  0  0  0  0  0  0  0  0  0  0
   11.8450    5.5533   13.4447 H   0  0  0  0  0  0  0  0  0  0  0  0
    9.8888    6.5001   11.2072 C   0  0  0  0  0  0  0  0  0  0  0  0
   11.0632    7.1282   10.7965 C   0  0  0  0  0  0  0  0  0  0  0  0
   11.1057    8.0763   10.7668 H   0  0  0  0  0  0  0  0  0  0  0  0
   12.1652    6.3803   10.4316 C   0  0  0  0  0  0  0  0  0  0  0  0
   12.9687    6.8126   10.1705 H   0  0  0  0  0  0  0  0  0  0  0  0
   12.0934    4.9998   10.4478 C   0  0  0  0  0  0  0  0  0  0  0  0
   12.8535    4.4837   10.2049 H   0  0  0  0  0  0  0  0  0  0  0  0
   10.9200    4.3650   10.8146 C   0  0  0  0  0  0  0  0  0  0  0  0
   10.8701    3.4162   10.8032 H   0  0  0  0  0  0  0  0  0  0  0  0
    9.8098    5.1167   11.2044 C   0  0  0  0  0  0  0  0  0  0  0  0
    9.0058    4.6829   11.4645 H   0  0  0  0  0  0  0  0  0  0  0  0
    7.2357    6.6581   12.5437 C   0  0  0  0  0  0  0  0  0  0  0  0
    7.6034    5.8894   13.6389 C   0  0  0  0  0  0  0  0  0  0  0  0
    8.5209    5.7270   13.8251 H   0  0  0  0  0  0  0  0  0  0  0  0
    6.6184    5.3629   14.4596 C   0  0  0  0  0  0  0  0  0  0  0  0
    6.8635    4.8296   15.2089 H   0  0  0  0  0  0  0  0  0  0  0  0
    5.2892    5.6048   14.2016 C   0  0  0  0  0  0  0  0  0  0  0  0
    4.6231    5.2517   14.7808 H   0  0  0  0  0  0  0  0  0  0  0  0
    4.9163    6.3554   13.1064 C   0  0  0  0  0  0  0  0  0  0  0  0
    3.9965    6.5135   12.9286 H   0  0  0  0  0  0  0  0  0  0  0  0
    5.8855    6.8817   12.2654 C   0  0  0  0  0  0  0  0  0  0  0  0
    5.6321    7.3909   11.5046 H   0  0  0  0  0  0  0  0  0  0  0  0
    7.7831   10.0764   15.8781 C   0  0  0  0  0  0  0  0  0  0  0  0
    7.7332   10.5738   17.1838 C   0  0  0  0  0  0  0  0  0  0  0  0
    8.3774   11.8013   17.1327 C   0  0  0  0  0  0  0  0  0  0  0  0
    7.2406    8.7779   15.3817 C   0  0  0  0  0  0  0  0  0  0  0  0
    6.6916    8.9363   14.5858 H   0  0  0  0  0  0  0  0  0  0  0  0
    6.6913    8.3650   16.0805 H   0  0  0  0  0  0  0  0  0  0  0  0
    7.9826    8.1804   15.1535 H   0  0  0  0  0  0  0  0  0  0  0  0
    7.0848    9.9552   18.3780 C   0  0  0  0  0  0  0  0  0  0  0  0
    7.6501   10.0966   19.1674 H   0  0  0  0  0  0  0  0  0  0  0  0
    6.9712    8.9935   18.2270 H   0  0  0  0  0  0  0  0  0  0  0  0
    6.2086   10.3676   18.5252 H   0  0  0  0  0  0  0  0  0  0  0  0
    8.5796   12.7979   18.2327 C   0  0  0  0  0  0  0  0  0  0  0  0
    9.5374   12.8927   18.4162 H   0  0  0  0  0  0  0  0  0  0  0  0
    8.1219   12.4870   19.0432 H   0  0  0  0  0  0  0  0  0  0  0  0
    8.2112   13.6645   17.9613 H   0  0  0  0  0  0  0  0  0  0  0  0
   12.2098   11.9228   13.3115 C   0  0  0  0  0  0  0  0  0  0  0  0
   12.9260   12.8357   14.0735 C   0  0  0  0  0  0  0  0  0  0  0  0
   11.9952   13.4506   14.8993 C   0  0  0  0  0  0  0  0  0  0  0  0
   12.7973   11.0405   12.2669 C   0  0  0  0  0  0  0  0  0  0  0  0
   13.5462   10.5374   12.6477 H   0  0  0  0  0  0  0  0  0  0  0  0
   13.1175   11.5880   11.5199 H   0  0  0  0  0  0  0  0  0  0  0  0
   12.1142   10.4164   11.9462 H   0  0  0  0  0  0  0  0  0  0  0  0
   14.3996   13.0955   14.0143 C   0  0  0  0  0  0  0  0  0  0  0  0
   14.6486   13.3532   13.1026 H   0  0  0  0  0  0  0  0  0  0  0  0
   14.8848   12.2816   14.2666 H   0  0  0  0  0  0  0  0  0  0  0  0
   14.6300   13.8195   14.6336 H   0  0  0  0  0  0  0  0  0  0  0  0
   12.2112   14.5239   15.9180 C   0  0  0  0  0  0  0  0  0  0  0  0
   11.6659   15.3053   15.6906 H   0  0  0  0  0  0  0  0  0  0  0  0
   13.1576   14.7777   15.9295 H   0  0  0  0  0  0  0  0  0  0  0  0
   11.9523   14.1910   16.8030 H   0  0  0  0  0  0  0  0  0  0  0  0
    7.3357   13.5894   12.2499 C   0  0  0  0  0  0  0  0  0  0  0  0
    7.1132   14.8511   12.7967 C   0  0  0  0  0  0  0  0  0  0  0  0
    7.8387   14.8848   13.9665 C   0  0  0  0  0  0  0  0  0  0  0  0
    6.7056   13.0872   11.0039 C   0  0  0  0  0  0  0  0  0  0  0  0
    7.1435   12.2541   10.7286 H   0  0  0  0  0  0  0  0  0  0  0  0
    6.8036   13.7561   10.2947 H   0  0  0  0  0  0  0  0  0  0  0  0
    5.7545   12.9181   11.1644 H   0  0  0  0  0  0  0  0  0  0  0  0
    6.2726   15.9590   12.2176 C   0  0  0  0  0  0  0  0  0  0  0  0
    6.5632   16.8178   12.5884 H   0  0  0  0  0  0  0  0  0  0  0  0
    5.3314   15.8068   12.4431 H   0  0  0  0  0  0  0  0  0  0  0  0
    6.3766   15.9732   11.2428 H   0  0  0  0  0  0  0  0  0  0  0  0
    7.9399   15.9853   14.9815 C   0  0  0  0  0  0  0  0  0  0  0  0
    7.6301   15.6571   15.8511 H   0  0  0  0  0  0  0  0  0  0  0  0
    7.3824   16.7405   14.7005 H   0  0  0  0  0  0  0  0  0  0  0  0
    8.8724   16.2766   15.0560 H   0  0  0  0  0  0  0  0  0  0  0  0
    5.6477    5.5119    8.7702 I   0  0  0  0  0  0  0  0  0  0  0  0
    8.1895    6.4831    6.7162 C   0  0  0  0  0  0  0  0  0  0  0  0
    9.2539    6.7879    7.0339 O   0  0  0  0  0  0  0  0  0  0  0  0
    6.3812    5.9986    6.1021 W   0  0  0  0  0  0  0  0  0  0  0  0
    3.7978    8.5347    5.1604 P   0  0  0  0  0  0  0  0  0  0  0  0
    6.9890    9.2858    7.5548 P   0  0  0  0  0  0  0  0  0  0  0  0
    6.0312    3.5930    3.8859 B   0  0  0  0  0  0  0  0  0  0  0  0
    5.9305    2.8688    3.2016 H   0  0  0  0  0  0  0  0  0  0  0  0
    7.0095    5.8981    4.0332 N   0  0  0  0  0  0  0  0  0  0  0  0
    6.6416    4.8358    3.2411 N   0  0  0  0  0  0  0  0  0  0  0  0
    4.5552    4.8847    5.4685 N   0  0  0  0  0  0  0  0  0  0  0  0
    4.6684    3.9313    4.4872 N   0  0  0  0  0  0  0  0  0  0  0  0
    7.2640    3.9531    6.0719 N   0  0  0  0  0  0  0  0  0  0  0  0
    6.9619    3.1221    5.0073 N   0  0  0  0  0  0  0  0  0  0  0  0
    5.2948    7.7130    5.7131 C   0  0  0  0  0  0  0  0  0  0  0  0
    6.3468    8.0093    6.4590 C   0  0  0  0  0  0  0  0  0  0  0  0
    3.1468    7.4855    3.8214 C   0  0  0  0  0  0  0  0  0  0  0  0
    3.9222    6.7399    2.9416 C   0  0  0  0  0  0  0  0  0  0  0  0
    4.8705    6.7820    2.9894 H   0  0  0  0  0  0  0  0  0  0  0  0
    3.3092    5.9291    1.9917 C   0  0  0  0  0  0  0  0  0  0  0  0
    3.8444    5.4289    1.3877 H   0  0  0  0  0  0  0  0  0  0  0  0
    1.9395    5.8409    1.9152 C   0  0  0  0  0  0  0  0  0  0  0  0
    1.5288    5.2821    1.2653 H   0  0  0  0  0  0  0  0  0  0  0  0
    1.1658    6.5756    2.7964 C   0  0  0  0  0  0  0  0  0  0  0  0
    0.2176    6.5127    2.7581 H   0  0  0  0  0  0  0  0  0  0  0  0
    1.7645    7.4007    3.7310 C   0  0  0  0  0  0  0  0  0  0  0  0
    1.2240    7.9139    4.3197 H   0  0  0  0  0  0  0  0  0  0  0  0
    4.4218   10.0340    4.2947 C   0  0  0  0  0  0  0  0  0  0  0  0
    5.1596   10.0125    3.1138 C   0  0  0  0  0  0  0  0  0  0  0  0
    5.3553    9.1815    2.6970 H   0  0  0  0  0  0  0  0  0  0  0  0
    5.6090   11.1899    2.5421 C   0  0  0  0  0  0  0  0  0  0  0  0
    6.1323   11.1638    1.7508 H   0  0  0  0  0  0  0  0  0  0  0  0
    5.2968   12.4011    3.1232 C   0  0  0  0  0  0  0  0  0  0  0  0
    5.5964   13.2078    2.7237 H   0  0  0  0  0  0  0  0  0  0  0  0
    4.5493   12.4448    4.2853 C   0  0  0  0  0  0  0  0  0  0  0  0
    4.3326   13.2798    4.6829 H   0  0  0  0  0  0  0  0  0  0  0  0
    4.1165   11.2608    4.8683 C   0  0  0  0  0  0  0  0  0  0  0  0
    3.6070   11.2911    5.6692 H   0  0  0  0  0  0  0  0  0  0  0  0
    5.5633   10.3444    7.9066 C   0  0  0  0  0  0  0  0  0  0  0  0
    4.3889    9.7163    8.3174 C   0  0  0  0  0  0  0  0  0  0  0  0
    4.3464    8.7682    8.3470 H   0  0  0  0  0  0  0  0  0  0  0  0
    3.2869   10.4641    8.6823 C   0  0  0  0  0  0  0  0  0  0  0  0
    2.4833   10.0319    8.9434 H   0  0  0  0  0  0  0  0  0  0  0  0
    3.3587   11.8446    8.6660 C   0  0  0  0  0  0  0  0  0  0  0  0
    2.5986   12.3608    8.9090 H   0  0  0  0  0  0  0  0  0  0  0  0
    4.5320   12.4794    8.2992 C   0  0  0  0  0  0  0  0  0  0  0  0
    4.5820   13.4282    8.3107 H   0  0  0  0  0  0  0  0  0  0  0  0
    5.6423   11.7278    7.9095 C   0  0  0  0  0  0  0  0  0  0  0  0
    6.4463   12.1616    7.6494 H   0  0  0  0  0  0  0  0  0  0  0  0
    8.2164   10.1863    6.5702 C   0  0  0  0  0  0  0  0  0  0  0  0
    7.8486   10.9551    5.4750 C   0  0  0  0  0  0  0  0  0  0  0  0
    6.9312   11.1175    5.2888 H   0  0  0  0  0  0  0  0  0  0  0  0
    8.8337   11.4816    4.6542 C   0  0  0  0  0  0  0  0  0  0  0  0
    8.5886   12.0148    3.9050 H   0  0  0  0  0  0  0  0  0  0  0  0
   10.1629   11.2397    4.9123 C   0  0  0  0  0  0  0  0  0  0  0  0
   10.8290   11.5927    4.3331 H   0  0  0  0  0  0  0  0  0  0  0  0
   10.5357   10.4890    6.0075 C   0  0  0  0  0  0  0  0  0  0  0  0
   11.4555   10.3309    6.1853 H   0  0  0  0  0  0  0  0  0  0  0  0
    9.5666    9.9628    6.8485 C   0  0  0  0  0  0  0  0  0  0  0  0
    9.8200    9.4536    7.6092 H   0  0  0  0  0  0  0  0  0  0  0  0
    7.6690    6.7680    3.2358 C   0  0  0  0  0  0  0  0  0  0  0  0
    7.7188    6.2707    1.9301 C   0  0  0  0  0  0  0  0  0  0  0  0
    7.0747    5.0432    1.9812 C   0  0  0  0  0  0  0  0  0  0  0  0
    8.2114    8.0666    3.7322 C   0  0  0  0  0  0  0  0  0  0  0  0
    8.7605    7.9081    4.5281 H   0  0  0  0  0  0  0  0  0  0  0  0
    8.7607    8.4794    3.0334 H   0  0  0  0  0  0  0  0  0  0  0  0
    7.4694    8.6641    3.9604 H   0  0  0  0  0  0  0  0  0  0  0  0
    8.3672    6.8892    0.7359 C   0  0  0  0  0  0  0  0  0  0  0  0
    7.8020    6.7479   -0.0535 H   0  0  0  0  0  0  0  0  0  0  0  0
    8.4809    7.8510    0.8869 H   0  0  0  0  0  0  0  0  0  0  0  0
    9.2435    6.4768    0.5887 H   0  0  0  0  0  0  0  0  0  0  0  0
    6.8725    4.0466    0.8811 C   0  0  0  0  0  0  0  0  0  0  0  0
    5.9147    3.9518    0.6977 H   0  0  0  0  0  0  0  0  0  0  0  0
    7.3302    4.3574    0.0707 H   0  0  0  0  0  0  0  0  0  0  0  0
    7.2409    3.1800    1.1526 H   0  0  0  0  0  0  0  0  0  0  0  0
    3.2423    4.9217    5.8024 C   0  0  0  0  0  0  0  0  0  0  0  0
    2.5260    4.0088    5.0403 C   0  0  0  0  0  0  0  0  0  0  0  0
    3.4569    3.3939    4.2146 C   0  0  0  0  0  0  0  0  0  0  0  0
    2.6547    5.8039    6.8470 C   0  0  0  0  0  0  0  0  0  0  0  0
    1.9059    6.3071    6.4662 H   0  0  0  0  0  0  0  0  0  0  0  0
    2.3345    5.2564    7.5939 H   0  0  0  0  0  0  0  0  0  0  0  0
    3.3379    6.4281    7.1677 H   0  0  0  0  0  0  0  0  0  0  0  0
    1.0525    3.7490    5.0996 C   0  0  0  0  0  0  0  0  0  0  0  0
    0.8035    3.4912    6.0113 H   0  0  0  0  0  0  0  0  0  0  0  0
    0.5673    4.5628    4.8473 H   0  0  0  0  0  0  0  0  0  0  0  0
    0.8221    3.0250    4.4803 H   0  0  0  0  0  0  0  0  0  0  0  0
    3.2409    2.3206    3.1958 C   0  0  0  0  0  0  0  0  0  0  0  0
    3.7861    1.5392    3.4233 H   0  0  0  0  0  0  0  0  0  0  0  0
    2.2944    2.0668    3.1844 H   0  0  0  0  0  0  0  0  0  0  0  0
    3.4998    2.6535    2.3109 H   0  0  0  0  0  0  0  0  0  0  0  0
    8.1164    3.2551    6.8640 C   0  0  0  0  0  0  0  0  0  0  0  0
    8.3388    1.9934    6.3171 C   0  0  0  0  0  0  0  0  0  0  0  0
    7.6133    1.9597    5.1474 C   0  0  0  0  0  0  0  0  0  0  0  0
    8.7464    3.7573    8.1100 C   0  0  0  0  0  0  0  0  0  0  0  0
    8.3086    4.5903    8.3853 H   0  0  0  0  0  0  0  0  0  0  0  0
    8.6485    3.0884    8.8191 H   0  0  0  0  0  0  0  0  0  0  0  0
    9.6976    3.9263    7.9495 H   0  0  0  0  0  0  0  0  0  0  0  0
    9.1795    0.8855    6.8963 C   0  0  0  0  0  0  0  0  0  0  0  0
    8.8889    0.0267    6.5255 H   0  0  0  0  0  0  0  0  0  0  0  0
   10.1207    1.0377    6.6707 H   0  0  0  0  0  0  0  0  0  0  0  0
    9.0754    0.8713    7.8711 H   0  0  0  0  0  0  0  0  0  0  0  0
    7.5122    0.8591    4.1324 C   0  0  0  0  0  0  0  0  0  0  0  0
    7.8220    1.1874    3.2627 H   0  0  0  0  0  0  0  0  0  0  0  0
    8.0696    0.1040    4.4134 H   0  0  0  0  0  0  0  0  0  0  0  0
    6.5797    0.5678    4.0579 H   0  0  0  0  0  0  0  0  0  0  0  0
  1  4  1  0  0  0  0
  2  3  3  0  0  0  0
  4  2  1  0  0  0  0
  5  7  1  0  0  0  0
  6 16  1  0  0  0  0
  7 17  1  0  0  0  0
  8  9  1  0  0  0  0
 10  4  1  0  0  0  0
 11  8  1  0  0  0  0
 12  4  1  0  0  0  0
 13  8  1  0  0  0  0
 14  4  1  0  0  0  0
 15  8  1  0  0  0  0
 16  4  8  0  0  0  0
 17  4  8  0  0  0  0
 18  6  1  0  0  0  0
 19 18  4  0  0  0  0
 20 19  1  0  0  0  0
 21 19  4  0  0  0  0
 22 21  1  0  0  0  0
 23 21  4  0  0  0  0
 24 23  1  0  0  0  0
 25 23  4  0  0  0  0
 26 25  1  0  0  0  0
 27 18  4  0  0  0  0
 28 27  1  0  0  0  0
 29  6  1  0  0  0  0
 30 29  4  0  0  0  0
 31 30  1  0  0  0  0
 32 30  4  0  0  0  0
 33 32  1  0  0  0  0
 34 32  4  0  0  0  0
 35 34  1  0  0  0  0
 36 34  4  0  0  0  0
 37 36  1  0  0  0  0
 38 29  4  0  0  0  0
 39 38  1  0  0  0  0
 40  7  1  0  0  0  0
 41 40  4  0  0  0  0
 42 41  1  0  0  0  0
 43 41  4  0  0  0  0
 44 43  1  0  0  0  0
 45 43  4  0  0  0  0
 46 45  1  0  0  0  0
 47 45  4  0  0  0  0
 48 47  1  0  0  0  0
 49 40  4  0  0  0  0
 50 49  1  0  0  0  0
 51  7  1  0  0  0  0
 52 51  4  0  0  0  0
 53 52  1  0  0  0  0
 54 52  4  0  0  0  0
 55 54  1  0  0  0  0
 56 54  4  0  0  0  0
 57 56  1  0  0  0  0
 58 56  4  0  0  0  0
 59 58  1  0  0  0  0
 60 51  4  0  0  0  0
 61 60  1  0  0  0  0
 62 10  4  0  0  0  0
 63 62  4  0  0  0  0
 64 11  4  0  0  0  0
 65 62  1  0  0  0  0
 66 65  1  0  0  0  0
 67 65  1  0  0  0  0
 68 65  1  0  0  0  0
 69 63  1  0  0  0  0
 70 69  1  0  0  0  0
 71 69  1  0  0  0  0
 72 69  1  0  0  0  0
 73 64  1  0  0  0  0
 74 73  1  0  0  0  0
 75 73  1  0  0  0  0
 76 73  1  0  0  0  0
 77 12  4  0  0  0  0
 78 77  4  0  0  0  0
 79 13  4  0  0  0  0
 80 77  1  0  0  0  0
 81 80  1  0  0  0  0
 82 80  1  0  0  0  0
 83 80  1  0  0  0  0
 84 78  1  0  0  0  0
 85 84  1  0  0  0  0
 86 84  1  0  0  0  0
 87 84  1  0  0  0  0
 88 79  1  0  0  0  0
 89 88  1  0  0  0  0
 90 88  1  0  0  0  0
 91 88  1  0  0  0  0
 92 14  4  0  0  0  0
 93 92  4  0  0  0  0
 94 15  4  0  0  0  0
 95 92  1  0  0  0  0
 96 95  1  0  0  0  0
 97 95  1  0  0  0  0
 98 95  1  0  0  0  0
 99 93  1  0  0  0  0
100 99  1  0  0  0  0
101 99  1  0  0  0  0
102 99  1  0  0  0  0
103 94  1  0  0  0  0
104103  1  0  0  0  0
105103  1  0  0  0  0
106103  1  0  0  0  0
107110  1  0  0  0  0
108109  3  0  0  0  0
110108  1  0  0  0  0
111121  1  0  0  0  0
112  5  1  0  0  0  0
113114  1  0  0  0  0
115110  1  0  0  0  0
116113  1  0  0  0  0
117110  1  0  0  0  0
118113  1  0  0  0  0
119110  1  0  0  0  0
120113  1  0  0  0  0
121110  8  0  0  0  0
122110  8  0  0  0  0
123111  1  0  0  0  0
124123  4  0  0  0  0
125124  1  0  0  0  0
126124  4  0  0  0  0
127126  1  0  0  0  0
128126  4  0  0  0  0
129128  1  0  0  0  0
130128  4  0  0  0  0
131130  1  0  0  0  0
132123  4  0  0  0  0
133132  1  0  0  0  0
134111  1  0  0  0  0
135134  4  0  0  0  0
136135  1  0  0  0  0
137135  4  0  0  0  0
138137  1  0  0  0  0
139137  4  0  0  0  0
140139  1  0  0  0  0
141139  4  0  0  0  0
142141  1  0  0  0  0
143134  4  0  0  0  0
144143  1  0  0  0  0
145112  1  0  0  0  0
146145  4  0  0  0  0
147146  1  0  0  0  0
148146  4  0  0  0  0
149148  1  0  0  0  0
150148  4  0  0  0  0
151150  1  0  0  0  0
152150  4  0  0  0  0
153152  1  0  0  0  0
154145  4  0  0  0  0
155154  1  0  0  0  0
156112  1  0  0  0  0
157156  4  0  0  0  0
158157  1  0  0  0  0
159157  4  0  0  0  0
160159  1  0  0  0  0
161159  4  0  0  0  0
162161  1  0  0  0  0
163161  4  0  0  0  0
164163  1  0  0  0  0
165156  4  0  0  0  0
166165  1  0  0  0  0
167115  4  0  0  0  0
168167  4  0  0  0  0
169116  4  0  0  0  0
170167  1  0  0  0  0
171170  1  0  0  0  0
172170  1  0  0  0  0
173170  1  0  0  0  0
174168  1  0  0  0  0
175174  1  0  0  0  0
176174  1  0  0  0  0
177174  1  0  0  0  0
178169  1  0  0  0  0
179178  1  0  0  0  0
180178  1  0  0  0  0
181178  1  0  0  0  0
182117  4  0  0  0  0
183182  4  0  0  0  0
184118  4  0  0  0  0
185182  1  0  0  0  0
186185  1  0  0  0  0
187185  1  0  0  0  0
188185  1  0  0  0  0
189183  1  0  0  0  0
190189  1  0  0  0  0
191189  1  0  0  0  0
192189  1  0  0  0  0
193184  1  0  0  0  0
194193  1  0  0  0  0
195193  1  0  0  0  0
196193  1  0  0  0  0
197119  4  0  0  0  0
198197  4  0  0  0  0
199120  4  0  0  0  0
200197  1  0  0  0  0
201200  1  0  0  0  0
202200  1  0  0  0  0
203200  1  0  0  0  0
204198  1  0  0  0  0
205204  1  0  0  0  0
206204  1  0  0  0  0
207204  1  0  0  0  0
208199  1  0  0  0  0
209208  1  0  0  0  0
210208  1  0  0  0  0
211208  1  0  0  0  0
 10 11  4  0  0  0  0
 12 13  4  0  0  0  0
 14 15  4  0  0  0  0
 16 17  3  0  0  0  0
 25 27  4  0  0  0  0
 36 38  4  0  0  0  0
 47 49  4  0  0  0  0
 58 60  4  0  0  0  0
 63 64  4  0  0  0  0
 78 79  4  0  0  0  0
 93 94  4  0  0  0  0
112122  1  0  0  0  0
115116  4  0  0  0  0
117118  4  0  0  0  0
119120  4  0  0  0  0
121122  3  0  0  0  0
130132  4  0  0  0  0
141143  4  0  0  0  0
152154  4  0  0  0  0
163165  4  0  0  0  0
168169  4  0  0  0  0
183184  4  0  0  0  0
198199  4  0  0  0  0
M  CHG  1   5   1
M  END
$$$$
NEKSUU

From CSD data. Using bond type 'Any'. No disordered atoms. Largest molecule.
135142  0  0  0  0  0  0  0  0999 V2000
    8.2492   11.0158    5.6087 Mo  0  0  0  0  0  0  0  0  0  0  0  0
    7.2711    9.5952    3.8381 P   0  0  0  0  0  0  0  0  0  0  0  0
    6.2990   10.0393    3.2498 H   0  0  0  0  0  0  0  0  0  0  0  0
    8.1447    9.4401    2.7535 H   0  0  0  0  0  0  0  0  0  0  0  0
    6.8361   10.0171    7.3894 P   0  0  0  0  0  0  0  0  0  0  0  0
    5.7115   10.5032    7.6522 H   0  0  0  0  0  0  0  0  0  0  0  0
    6.4499    8.7296    7.3161 H   0  0  0  0  0  0  0  0  0  0  0  0
    9.6286   12.6779    7.8940 O   0  0  0  0  0  0  0  0  0  0  0  0
   10.1325   12.4646    3.5572 O   0  0  0  0  0  0  0  0  0  0  0  0
   10.3219    8.6630    6.0081 O   0  0  0  0  0  0  0  0  0  0  0  0
    6.0643   13.2462    5.0140 O   0  0  0  0  0  0  0  0  0  0  0  0
    4.9325    1.6764    4.5577 N   0  0  0  0  0  0  0  0  0  0  0  0
    5.7919    2.0404    6.8950 N   0  0  0  0  0  0  0  0  0  0  0  0
    9.8206    8.8932   14.9891 N   0  0  0  0  0  0  0  0  0  0  0  0
   10.6989   11.2243   14.6129 N   0  0  0  0  0  0  0  0  0  0  0  0
    4.8952    3.2840    2.9120 C   0  0  0  0  0  0  0  0  0  0  0  0
    4.3379    2.1092    2.4157 C   0  0  0  0  0  0  0  0  0  0  0  0
    4.3715    1.1552    3.4547 C   0  0  0  0  0  0  0  0  0  0  0  0
    6.1950    1.8603    8.1565 C   0  0  0  0  0  0  0  0  0  0  0  0
    6.8347    3.0328    8.6368 C   0  0  0  0  0  0  0  0  0  0  0  0
    6.8119    3.9578    7.6170 C   0  0  0  0  0  0  0  0  0  0  0  0
    5.8947    3.7880    5.2189 C   0  0  0  0  0  0  0  0  0  0  0  0
    5.2950    3.0007    4.2504 C   0  0  0  0  0  0  0  0  0  0  0  0
    6.1594    3.3435    6.5092 C   0  0  0  0  0  0  0  0  0  0  0  0
    4.9365    4.5712    2.1676 C   0  0  0  0  0  0  0  0  0  0  0  0
    4.3716    5.2299    2.6223 H   0  0  0  0  0  0  0  0  0  0  0  0
    4.6073    4.4332    1.2551 H   0  0  0  0  0  0  0  0  0  0  0  0
    5.8605    4.8994    2.1356 H   0  0  0  0  0  0  0  0  0  0  0  0
    3.7684    1.8839    1.0742 C   0  0  0  0  0  0  0  0  0  0  0  0
    4.2466    2.4556    0.4242 H   0  0  0  0  0  0  0  0  0  0  0  0
    3.9231    0.9406    0.8165 H   0  0  0  0  0  0  0  0  0  0  0  0
    3.8361   -0.2392    3.3635 C   0  0  0  0  0  0  0  0  0  0  0  0
    4.3174   -0.7294    2.6639 H   0  0  0  0  0  0  0  0  0  0  0  0
    2.8815   -0.2102    3.1425 H   0  0  0  0  0  0  0  0  0  0  0  0
    3.9583   -0.6931    4.2231 H   0  0  0  0  0  0  0  0  0  0  0  0
    6.0240    0.5926    8.9170 C   0  0  0  0  0  0  0  0  0  0  0  0
    5.2490    0.1048    8.5680 H   0  0  0  0  0  0  0  0  0  0  0  0
    5.8835    0.7974    9.8647 H   0  0  0  0  0  0  0  0  0  0  0  0
    6.8287    0.0418    8.8177 H   0  0  0  0  0  0  0  0  0  0  0  0
    7.4194    3.1928   10.0104 C   0  0  0  0  0  0  0  0  0  0  0  0
    7.6910    2.3013   10.3449 H   0  0  0  0  0  0  0  0  0  0  0  0
    8.2343    3.7498    9.9447 H   0  0  0  0  0  0  0  0  0  0  0  0
    6.4867    3.8171   11.0045 C   0  0  0  0  0  0  0  0  0  0  0  0
    6.2721    4.7310   10.7228 H   0  0  0  0  0  0  0  0  0  0  0  0
    6.9157    3.8398   11.8850 H   0  0  0  0  0  0  0  0  0  0  0  0
    5.6625    3.2888   11.0557 H   0  0  0  0  0  0  0  0  0  0  0  0
    7.3898    5.3429    7.7099 C   0  0  0  0  0  0  0  0  0  0  0  0
    8.0043    5.4914    6.9607 H   0  0  0  0  0  0  0  0  0  0  0  0
    7.8763    5.4388    8.5552 H   0  0  0  0  0  0  0  0  0  0  0  0
    6.6652    6.0027    7.6731 H   0  0  0  0  0  0  0  0  0  0  0  0
    6.2377    5.2141    4.8635 C   0  0  0  0  0  0  0  0  0  0  0  0
    7.3989    5.5252    4.1975 C   0  0  0  0  0  0  0  0  0  0  0  0
    7.9995    4.8284    3.9606 H   0  0  0  0  0  0  0  0  0  0  0  0
    7.7114    6.8353    3.8613 C   0  0  0  0  0  0  0  0  0  0  0  0
    8.5217    7.0293    3.4051 H   0  0  0  0  0  0  0  0  0  0  0  0
    6.8430    7.8546    4.1911 C   0  0  0  0  0  0  0  0  0  0  0  0
    5.6650    7.5446    4.8667 C   0  0  0  0  0  0  0  0  0  0  0  0
    5.0593    8.2403    5.0956 H   0  0  0  0  0  0  0  0  0  0  0  0
    5.3644    6.2407    5.2045 C   0  0  0  0  0  0  0  0  0  0  0  0
    4.5595    6.0431    5.6703 H   0  0  0  0  0  0  0  0  0  0  0  0
    6.2342   -0.2516    5.7664 C   0  0  0  0  0  0  0  0  0  0  0  0
    6.0398   -0.7534    4.9483 H   0  0  0  0  0  0  0  0  0  0  0  0
    6.1914   -0.8539    6.5380 H   0  0  0  0  0  0  0  0  0  0  0  0
    7.1331    0.1371    5.7056 H   0  0  0  0  0  0  0  0  0  0  0  0
    3.6837    0.4865    6.5540 C   0  0  0  0  0  0  0  0  0  0  0  0
    3.4785    1.0285    7.3433 H   0  0  0  0  0  0  0  0  0  0  0  0
    3.7125   -0.4603    6.8054 H   0  0  0  0  0  0  0  0  0  0  0  0
    2.9904    0.6240    5.8737 H   0  0  0  0  0  0  0  0  0  0  0  0
    8.4227    7.8014   13.5451 C   0  0  0  0  0  0  0  0  0  0  0  0
    8.6605    6.9783   14.6481 C   0  0  0  0  0  0  0  0  0  0  0  0
    9.5322    7.6945   15.5062 C   0  0  0  0  0  0  0  0  0  0  0  0
   11.3503   12.3961   14.7410 C   0  0  0  0  0  0  0  0  0  0  0  0
   11.2476   13.1352   13.5371 C   0  0  0  0  0  0  0  0  0  0  0  0
   10.5314   12.3838   12.6358 C   0  0  0  0  0  0  0  0  0  0  0  0
    9.3807   10.1015   12.9320 C   0  0  0  0  0  0  0  0  0  0  0  0
    9.1747    8.9949   13.7420 C   0  0  0  0  0  0  0  0  0  0  0  0
   10.1602   11.1975   13.3194 C   0  0  0  0  0  0  0  0  0  0  0  0
    7.4946    7.4308   12.4181 C   0  0  0  0  0  0  0  0  0  0  0  0
    8.0193    7.1052   11.6577 H   0  0  0  0  0  0  0  0  0  0  0  0
    6.9786    8.2182   12.1475 H   0  0  0  0  0  0  0  0  0  0  0  0
    6.8833    6.7276   12.7175 H   0  0  0  0  0  0  0  0  0  0  0  0
    8.1586    5.6046   14.8803 C   0  0  0  0  0  0  0  0  0  0  0  0
    7.2669    5.5120   14.4640 H   0  0  0  0  0  0  0  0  0  0  0  0
    8.0558    5.4596   15.8552 H   0  0  0  0  0  0  0  0  0  0  0  0
    9.0777    4.5463   14.3200 C   0  0  0  0  0  0  0  0  0  0  0  0
    9.1834    4.6831   13.3546 H   0  0  0  0  0  0  0  0  0  0  0  0
    8.6929    3.6596   14.4832 H   0  0  0  0  0  0  0  0  0  0  0  0
    9.9525    4.6084   14.7570 H   0  0  0  0  0  0  0  0  0  0  0  0
   10.0453    7.1660   16.7965 C   0  0  0  0  0  0  0  0  0  0  0  0
   10.7925    6.5563   16.6268 H   0  0  0  0  0  0  0  0  0  0  0  0
    9.3290    6.6839   17.2608 H   0  0  0  0  0  0  0  0  0  0  0  0
   10.3516    7.9101   17.3552 H   0  0  0  0  0  0  0  0  0  0  0  0
   12.0765   12.8387   15.9609 C   0  0  0  0  0  0  0  0  0  0  0  0
   11.6499   13.6433   16.3227 H   0  0  0  0  0  0  0  0  0  0  0  0
   13.0089   13.0392   15.7319 H   0  0  0  0  0  0  0  0  0  0  0  0
   12.0509   12.1244   16.6316 H   0  0  0  0  0  0  0  0  0  0  0  0
   10.2820   12.7704   11.2174 C   0  0  0  0  0  0  0  0  0  0  0  0
   10.3873   11.9851   10.6411 H   0  0  0  0  0  0  0  0  0  0  0  0
   10.9249   13.4612   10.9501 H   0  0  0  0  0  0  0  0  0  0  0  0
    9.3721   13.1214   11.1294 H   0  0  0  0  0  0  0  0  0  0  0  0
    8.7751   10.1010   11.5744 C   0  0  0  0  0  0  0  0  0  0  0  0
    9.2636    9.2730   10.5787 C   0  0  0  0  0  0  0  0  0  0  0  0
   10.0203    8.7278   10.7596 H   0  0  0  0  0  0  0  0  0  0  0  0
    8.6798    9.2174    9.3348 C   0  0  0  0  0  0  0  0  0  0  0  0
    9.0293    8.6402    8.6672 H   0  0  0  0  0  0  0  0  0  0  0  0
    7.5677   10.0174    9.0610 C   0  0  0  0  0  0  0  0  0  0  0  0
    7.0878   10.8696   10.0392 C   0  0  0  0  0  0  0  0  0  0  0  0
    6.3412   11.4275    9.8519 H   0  0  0  0  0  0  0  0  0  0  0  0
    7.6821   10.9174   11.2831 C   0  0  0  0  0  0  0  0  0  0  0  0
    7.3452   11.5104   11.9458 H   0  0  0  0  0  0  0  0  0  0  0  0
   12.1612    9.5111   15.9192 C   0  0  0  0  0  0  0  0  0  0  0  0
   12.1401    8.7203   16.4972 H   0  0  0  0  0  0  0  0  0  0  0  0
   12.7006   10.2118   16.3419 H   0  0  0  0  0  0  0  0  0  0  0  0
   12.5552    9.2729   15.0548 H   0  0  0  0  0  0  0  0  0  0  0  0
    9.8211   10.5659   16.9902 C   0  0  0  0  0  0  0  0  0  0  0  0
    8.9588   10.9354   16.7053 H   0  0  0  0  0  0  0  0  0  0  0  0
   10.3368   11.2584   17.4545 H   0  0  0  0  0  0  0  0  0  0  0  0
    9.6677    9.8110   17.5970 H   0  0  0  0  0  0  0  0  0  0  0  0
    9.1230   12.1075    7.0455 C   0  0  0  0  0  0  0  0  0  0  0  0
    9.4510   11.9082    4.2776 C   0  0  0  0  0  0  0  0  0  0  0  0
    9.5770    9.5343    5.8737 C   0  0  0  0  0  0  0  0  0  0  0  0
    6.8393   12.4479    5.2493 C   0  0  0  0  0  0  0  0  0  0  0  0
    5.1430    0.9365    5.9457 B   0  0  0  0  0  0  0  0  0  0  0  0
   10.6451   10.0569   15.6935 B   0  0  0  0  0  0  0  0  0  0  0  0
    2.3571    2.1647    0.9910 C   0  0  0  0  0  0  0  0  0  0  0  0
    1.8779    1.6370    1.6633 H   0  0  0  0  0  0  0  0  0  0  0  0
    2.0291    1.9278    0.0977 H   0  0  0  0  0  0  0  0  0  0  0  0
    2.2029    3.1186    1.1542 H   0  0  0  0  0  0  0  0  0  0  0  0
   12.1254   14.3521   13.3002 C   0  0  0  0  0  0  0  0  0  0  0  0
   12.8059   14.4370   14.0142 H   0  0  0  0  0  0  0  0  0  0  0  0
   12.5861   14.2854   12.4261 H   0  0  0  0  0  0  0  0  0  0  0  0
   11.1945   15.5134   13.3178 C   0  0  0  0  0  0  0  0  0  0  0  0
   10.5739   15.4459   12.5638 H   0  0  0  0  0  0  0  0  0  0  0  0
   11.7085   16.3445   13.2458 H   0  0  0  0  0  0  0  0  0  0  0  0
   10.6898   15.5147   14.1583 H   0  0  0  0  0  0  0  0  0  0  0  0
  1  2  1  0  0  0  0
  2  3  1  0  0  0  0
  4  2  1  0  0  0  0
  5  1  1  0  0  0  0
  6  5  1  0  0  0  0
  7  5  1  0  0  0  0
  8119  3  0  0  0  0
  9120  3  0  0  0  0
 10121  3  0  0  0  0
 11122  3  0  0  0  0
 12 18  1  0  0  0  0
 13 19  2  0  0  0  0
 14 71  2  0  0  0  0
 15 72  1  0  0  0  0
 16 17  1  0  0  0  0
 17 18  2  0  0  0  0
 18 32  1  0  0  0  0
 19 20  1  0  0  0  0
 20 21  2  0  0  0  0
 21 24  1  0  0  0  0
 22 23  1  0  0  0  0
 23 12  1  0  0  0  0
 24 13  1  0  0  0  0
 25 16  1  0  0  0  0
 26 25  1  0  0  0  0
 27 25  1  0  0  0  0
 28 25  1  0  0  0  0
 29 17  1  0  0  0  0
 30 29  1  0  0  0  0
 31 29  1  0  0  0  0
 32 33  1  0  0  0  0
 34 32  1  0  0  0  0
 35 32  1  0  0  0  0
 36 19  1  0  0  0  0
 37 36  1  0  0  0  0
 38 36  1  0  0  0  0
 39 36  1  0  0  0  0
 40 20  1  0  0  0  0
 41 40  1  0  0  0  0
 42 40  1  0  0  0  0
 43 40  1  0  0  0  0
 44 43  1  0  0  0  0
 45 43  1  0  0  0  0
 46 43  1  0  0  0  0
 47 21  1  0  0  0  0
 48 47  1  0  0  0  0
 49 47  1  0  0  0  0
 50 47  1  0  0  0  0
 51 22  1  0  0  0  0
 52 51  4  0  0  0  0
 53 52  1  0  0  0  0
 54 52  4  0  0  0  0
 55 54  1  0  0  0  0
 56  2  1  0  0  0  0
 57 56  4  0  0  0  0
 58 57  1  0  0  0  0
 59 51  4  0  0  0  0
 60 59  1  0  0  0  0
 61 62  1  0  0  0  0
 63 61  1  0  0  0  0
 64 61  1  0  0  0  0
 65 66  1  0  0  0  0
 67 65  1  0  0  0  0
 68 65  1  0  0  0  0
 69 70  2  0  0  0  0
 70 71  1  0  0  0  0
 71 89  1  0  0  0  0
 72 73  2  0  0  0  0
 73 74  1  0  0  0  0
 74 77  2  0  0  0  0
 75 76  2  0  0  0  0
 76 14  1  0  0  0  0
 77 15  1  0  0  0  0
 78 69  1  0  0  0  0
 79 78  1  0  0  0  0
 80 78  1  0  0  0  0
 81 78  1  0  0  0  0
 82 70  1  0  0  0  0
 83 82  1  0  0  0  0
 84 82  1  0  0  0  0
 85 82  1  0  0  0  0
 86 85  1  0  0  0  0
 87 85  1  0  0  0  0
 88 85  1  0  0  0  0
 89 90  1  0  0  0  0
 91 89  1  0  0  0  0
 92 89  1  0  0  0  0
 93 72  1  0  0  0  0
 94 93  1  0  0  0  0
 95 93  1  0  0  0  0
 96 93  1  0  0  0  0
 97 74  1  0  0  0  0
 98 97  1  0  0  0  0
 99 97  1  0  0  0  0
100 97  1  0  0  0  0
101 75  1  0  0  0  0
102101  4  0  0  0  0
103102  1  0  0  0  0
104102  4  0  0  0  0
105104  1  0  0  0  0
106  5  1  0  0  0  0
107106  4  0  0  0  0
108107  1  0  0  0  0
109101  4  0  0  0  0
110109  1  0  0  0  0
111112  1  0  0  0  0
113111  1  0  0  0  0
114111  1  0  0  0  0
115116  1  0  0  0  0
117115  1  0  0  0  0
118115  1  0  0  0  0
119  1  1  0  0  0  0
120  1  1  0  0  0  0
121  1  1  0  0  0  0
122  1  1  0  0  0  0
123 12  1  0  0  0  0
124 14  1  0  0  0  0
125 29  1  0  0  0  0
126125  1  0  0  0  0
127125  1  0  0  0  0
128125  1  0  0  0  0
129 73  1  0  0  0  0
130129  1  0  0  0  0
131129  1  0  0  0  0
132129  1  0  0  0  0
133132  1  0  0  0  0
134132  1  0  0  0  0
135132  1  0  0  0  0
 13123  1  0  0  0  0
 15124  1  0  0  0  0
 16 23  2  0  0  0  0
 22 24  2  0  0  0  0
 54 56  4  0  0  0  0
 57 59  4  0  0  0  0
 61123  1  0  0  0  0
 65123  1  0  0  0  0
 69 76  1  0  0  0  0
 75 77  1  0  0  0  0
104106  4  0  0  0  0
107109  4  0  0  0  0
111124  1  0  0  0  0
115124  1  0  0  0  0
M  END
$$$$
NEMBOY

From CSD data. Using bond type 'Any'. Matching problem. No disordered atoms. Largest molecule.
203222  0  0  0  0  0  0  0  0999 V2000
   -3.2905   11.3379    3.6606 Ru  0  0  0  0  0  0  0  0  0  0  0  0
   -3.5732    9.7426    2.0068 P   0  0  0  0  0  0  0  0  0  0  0  0
   -5.0811   12.5536    2.6558 P   0  0  0  0  0  0  0  0  0  0  0  0
   -1.7652   12.4522    2.2495 P   0  0  0  0  0  0  0  0  0  0  0  0
   -0.2641   11.4861    1.7965 C   0  0  0  0  0  0  0  0  0  0  0  0
    0.2385   11.4398    0.5011 C   0  0  0  0  0  0  0  0  0  0  0  0
   -0.2204   11.8858   -0.2013 H   0  0  0  0  0  0  0  0  0  0  0  0
   -4.5318   11.4303   -2.3466 C   0  0  0  0  0  0  0  0  0  0  0  0
   -4.6199   10.5262   -2.0715 H   0  0  0  0  0  0  0  0  0  0  0  0
   -3.9379   13.6601   -1.9082 C   0  0  0  0  0  0  0  0  0  0  0  0
   -3.5973   14.3263   -1.3221 H   0  0  0  0  0  0  0  0  0  0  0  0
   -4.0564   12.3576   -1.4391 C   0  0  0  0  0  0  0  0  0  0  0  0
    1.4128   10.7410    0.2259 C   0  0  0  0  0  0  0  0  0  0  0  0
    1.7375   10.6961   -0.6644 H   0  0  0  0  0  0  0  0  0  0  0  0
    0.4415   10.8511    2.8029 C   0  0  0  0  0  0  0  0  0  0  0  0
    0.1086   10.8756    3.6933 H   0  0  0  0  0  0  0  0  0  0  0  0
   -2.5603   12.9830    0.7076 C   0  0  0  0  0  0  0  0  0  0  0  0
   -2.9556   13.8790    0.8523 H   0  0  0  0  0  0  0  0  0  0  0  0
   -1.8615   13.0727    0.0112 H   0  0  0  0  0  0  0  0  0  0  0  0
   -5.2619   15.0714    3.9259 C   0  0  0  0  0  0  0  0  0  0  0  0
   -5.2748   14.5724    4.7335 H   0  0  0  0  0  0  0  0  0  0  0  0
   -5.1441   14.4093    2.7045 C   0  0  0  0  0  0  0  0  0  0  0  0
   -5.1202   15.1693    1.5413 C   0  0  0  0  0  0  0  0  0  0  0  0
   -5.0477   14.7383    0.6979 H   0  0  0  0  0  0  0  0  0  0  0  0
   -5.2582    8.9640    1.9126 C   0  0  0  0  0  0  0  0  0  0  0  0
    0.4284   14.1346    2.9419 C   0  0  0  0  0  0  0  0  0  0  0  0
    0.9891   13.4127    2.6844 H   0  0  0  0  0  0  0  0  0  0  0  0
   -6.7095   12.2447    3.4383 C   0  0  0  0  0  0  0  0  0  0  0  0
   -0.9508   13.9715    2.8978 C   0  0  0  0  0  0  0  0  0  0  0  0
   -5.3598   16.4636    3.9684 C   0  0  0  0  0  0  0  0  0  0  0  0
   -5.4388   16.9082    4.8028 H   0  0  0  0  0  0  0  0  0  0  0  0
   -2.5503    8.1904    2.0343 C   0  0  0  0  0  0  0  0  0  0  0  0
   -3.2820   10.3984    0.3212 C   0  0  0  0  0  0  0  0  0  0  0  0
   -2.3167   10.3250    0.1118 H   0  0  0  0  0  0  0  0  0  0  0  0
   -3.7731    9.8369   -0.3288 H   0  0  0  0  0  0  0  0  0  0  0  0
   -4.2936   14.0258   -3.1899 C   0  0  0  0  0  0  0  0  0  0  0  0
   -4.2082   14.9327   -3.4606 H   0  0  0  0  0  0  0  0  0  0  0  0
   -5.2352   12.1808    0.8883 C   0  0  0  0  0  0  0  0  0  0  0  0
   -5.7722   11.3555    0.7785 H   0  0  0  0  0  0  0  0  0  0  0  0
   -5.7219   12.9191    0.4452 H   0  0  0  0  0  0  0  0  0  0  0  0
   -5.2028   16.5520    1.6017 C   0  0  0  0  0  0  0  0  0  0  0  0
   -5.1615   17.0564    0.7964 H   0  0  0  0  0  0  0  0  0  0  0  0
   -3.7516   11.9728    0.1297 B   0  0  0  0  0  0  0  0  0  0  0  0
    2.0956   10.1197    1.2326 C   0  0  0  0  0  0  0  0  0  0  0  0
    2.8943    9.6465    1.0357 H   0  0  0  0  0  0  0  0  0  0  0  0
   -4.7715   13.0877   -4.0847 C   0  0  0  0  0  0  0  0  0  0  0  0
   -5.0137   13.3392   -4.9684 H   0  0  0  0  0  0  0  0  0  0  0  0
   -1.7503   15.0388    3.2996 C   0  0  0  0  0  0  0  0  0  0  0  0
   -2.6959   14.9436    3.3040 H   0  0  0  0  0  0  0  0  0  0  0  0
    1.6362   10.1727    2.5300 C   0  0  0  0  0  0  0  0  0  0  0  0
    2.1232    9.7553    3.2302 H   0  0  0  0  0  0  0  0  0  0  0  0
   -6.8271   12.2420    4.8341 C   0  0  0  0  0  0  0  0  0  0  0  0
   -6.0543   12.3372    5.3800 H   0  0  0  0  0  0  0  0  0  0  0  0
   -3.1190    6.9449    2.3287 C   0  0  0  0  0  0  0  0  0  0  0  0
   -4.0258    6.8878    2.6039 H   0  0  0  0  0  0  0  0  0  0  0  0
   -5.3384   17.1965    2.7918 C   0  0  0  0  0  0  0  0  0  0  0  0
   -5.4211   18.1428    2.8164 H   0  0  0  0  0  0  0  0  0  0  0  0
   -4.8908   11.7757   -3.6664 C   0  0  0  0  0  0  0  0  0  0  0  0
   -5.2140   11.1108   -4.2637 H   0  0  0  0  0  0  0  0  0  0  0  0
   -9.0999   11.9293    3.2638 C   0  0  0  0  0  0  0  0  0  0  0  0
   -9.8742   11.8273    2.7224 H   0  0  0  0  0  0  0  0  0  0  0  0
   -0.4604    7.0782    1.5816 C   0  0  0  0  0  0  0  0  0  0  0  0
    0.4597    7.1366    1.3511 H   0  0  0  0  0  0  0  0  0  0  0  0
   -1.2395    8.2203    1.6576 C   0  0  0  0  0  0  0  0  0  0  0  0
   -0.8450    9.0564    1.4384 H   0  0  0  0  0  0  0  0  0  0  0  0
   -5.6067    8.1740    0.8098 C   0  0  0  0  0  0  0  0  0  0  0  0
   -5.0112    8.1061    0.0738 H   0  0  0  0  0  0  0  0  0  0  0  0
   -6.8130    7.4915    0.7807 C   0  0  0  0  0  0  0  0  0  0  0  0
   -7.0284    6.9422    0.0358 H   0  0  0  0  0  0  0  0  0  0  0  0
   -3.0648   12.9300    5.5925 Cl  0  0  0  0  0  0  0  0  0  0  0  0
   -3.0648   10.0483    5.5925 Si  0  0  0  0  0  0  0  0  0  0  0  0
   -3.0648    8.1768    5.5925 C   0  0  0  0  0  0  0  0  0  0  0  0
   -3.0648    5.4031    5.5925 C   0  0  0  0  0  0  0  0  0  0  0  0
   -3.0648    4.4528    5.5925 H   0  0  0  0  0  0  0  0  0  0  0  0
   -1.1782   16.2407    3.6955 C   0  0  0  0  0  0  0  0  0  0  0  0
   -1.7352   16.9626    3.9595 H   0  0  0  0  0  0  0  0  0  0  0  0
    1.0049   15.3297    3.3532 C   0  0  0  0  0  0  0  0  0  0  0  0
    1.9511   15.4154    3.3890 H   0  0  0  0  0  0  0  0  0  0  0  0
    0.1986   16.3929    3.7112 C   0  0  0  0  0  0  0  0  0  0  0  0
    0.5871   17.2237    3.9639 H   0  0  0  0  0  0  0  0  0  0  0  0
   -1.8695    7.4752    5.4576 C   0  0  0  0  0  0  0  0  0  0  0  0
   -1.8715    6.0870    5.4739 C   0  0  0  0  0  0  0  0  0  0  0  0
   -1.0529    5.6098    5.4046 H   0  0  0  0  0  0  0  0  0  0  0  0
   -1.0397    5.8504    1.8455 C   0  0  0  0  0  0  0  0  0  0  0  0
   -0.5287    5.0537    1.7695 H   0  0  0  0  0  0  0  0  0  0  0  0
   -8.0859   12.1020    5.4113 C   0  0  0  0  0  0  0  0  0  0  0  0
   -8.1682   12.1183    6.3575 H   0  0  0  0  0  0  0  0  0  0  0  0
   -9.2081   11.9388    4.6395 C   0  0  0  0  0  0  0  0  0  0  0  0
  -10.0573   11.8314    5.0511 H   0  0  0  0  0  0  0  0  0  0  0  0
   -2.3445    5.7893    2.2146 C   0  0  0  0  0  0  0  0  0  0  0  0
   -2.7412    4.9449    2.3981 H   0  0  0  0  0  0  0  0  0  0  0  0
   -7.3950    8.3725    2.8947 C   0  0  0  0  0  0  0  0  0  0  0  0
   -8.0160    8.4609    3.6083 H   0  0  0  0  0  0  0  0  0  0  0  0
   -7.6993    7.6044    1.8231 C   0  0  0  0  0  0  0  0  0  0  0  0
   -8.5294    7.1407    1.7918 H   0  0  0  0  0  0  0  0  0  0  0  0
   -0.7288    8.2012    5.3017 O   0  0  0  0  0  0  0  0  0  0  0  0
    0.5456    7.4915    5.1317 C   0  0  0  0  0  0  0  0  0  0  0  0
    1.2711    8.1428    5.0265 H   0  0  0  0  0  0  0  0  0  0  0  0
    0.4989    6.9218    4.3375 H   0  0  0  0  0  0  0  0  0  0  0  0
    0.7177    6.9368    5.9213 H   0  0  0  0  0  0  0  0  0  0  0  0
   -6.1594    9.0428    2.9484 C   0  0  0  0  0  0  0  0  0  0  0  0
   -5.9423    9.5595    3.7156 H   0  0  0  0  0  0  0  0  0  0  0  0
   -7.8451   12.0734    2.6732 C   0  0  0  0  0  0  0  0  0  0  0  0
   -7.7682   12.0517    1.7247 H   0  0  0  0  0  0  0  0  0  0  0  0
   -2.8392   11.3379    7.5244 Ru  0  0  0  0  0  0  0  0  0  0  0  0
   -2.5565    9.7426    9.1781 P   0  0  0  0  0  0  0  0  0  0  0  0
   -1.0486   12.5536    8.5292 P   0  0  0  0  0  0  0  0  0  0  0  0
   -4.3645   12.4522    8.9354 P   0  0  0  0  0  0  0  0  0  0  0  0
   -5.8655   11.4861    9.3884 C   0  0  0  0  0  0  0  0  0  0  0  0
   -6.3682   11.4398   10.6839 C   0  0  0  0  0  0  0  0  0  0  0  0
   -5.9093   11.8858   11.3863 H   0  0  0  0  0  0  0  0  0  0  0  0
   -1.5979   11.4303   13.5316 C   0  0  0  0  0  0  0  0  0  0  0  0
   -1.5098   10.5262   13.2564 H   0  0  0  0  0  0  0  0  0  0  0  0
   -2.1917   13.6601   13.0931 C   0  0  0  0  0  0  0  0  0  0  0  0
   -2.5324   14.3263   12.5070 H   0  0  0  0  0  0  0  0  0  0  0  0
   -2.0733   12.3576   12.6240 C   0  0  0  0  0  0  0  0  0  0  0  0
   -7.5424   10.7410   10.9590 C   0  0  0  0  0  0  0  0  0  0  0  0
   -7.8672   10.6961   11.8493 H   0  0  0  0  0  0  0  0  0  0  0  0
   -6.5712   10.8511    8.3820 C   0  0  0  0  0  0  0  0  0  0  0  0
   -6.2382   10.8756    7.4917 H   0  0  0  0  0  0  0  0  0  0  0  0
   -3.5693   12.9830   10.4774 C   0  0  0  0  0  0  0  0  0  0  0  0
   -3.1741   13.8790   10.3327 H   0  0  0  0  0  0  0  0  0  0  0  0
   -4.2682   13.0727   11.1738 H   0  0  0  0  0  0  0  0  0  0  0  0
   -0.8678   15.0714    7.2590 C   0  0  0  0  0  0  0  0  0  0  0  0
   -0.8549   14.5724    6.4515 H   0  0  0  0  0  0  0  0  0  0  0  0
   -0.9856   14.4093    8.4804 C   0  0  0  0  0  0  0  0  0  0  0  0
   -1.0095   15.1693    9.6437 C   0  0  0  0  0  0  0  0  0  0  0  0
   -1.0820   14.7383   10.4870 H   0  0  0  0  0  0  0  0  0  0  0  0
   -0.8715    8.9640    9.2723 C   0  0  0  0  0  0  0  0  0  0  0  0
   -6.5580   14.1346    8.2431 C   0  0  0  0  0  0  0  0  0  0  0  0
   -7.1187   13.4127    8.5006 H   0  0  0  0  0  0  0  0  0  0  0  0
    0.5798   12.2447    7.7467 C   0  0  0  0  0  0  0  0  0  0  0  0
   -5.1788   13.9715    8.2872 C   0  0  0  0  0  0  0  0  0  0  0  0
   -0.7699   16.4636    7.2165 C   0  0  0  0  0  0  0  0  0  0  0  0
   -0.6909   16.9082    6.3821 H   0  0  0  0  0  0  0  0  0  0  0  0
   -3.5793    8.1904    9.1506 C   0  0  0  0  0  0  0  0  0  0  0  0
   -2.8477   10.3984   10.8637 C   0  0  0  0  0  0  0  0  0  0  0  0
   -3.8130   10.3250   11.0731 H   0  0  0  0  0  0  0  0  0  0  0  0
   -2.3566    9.8369   11.5138 H   0  0  0  0  0  0  0  0  0  0  0  0
   -1.8361   14.0258   14.3749 C   0  0  0  0  0  0  0  0  0  0  0  0
   -1.9214   14.9327   14.6456 H   0  0  0  0  0  0  0  0  0  0  0  0
   -0.8945   12.1808   10.2966 C   0  0  0  0  0  0  0  0  0  0  0  0
   -0.3574   11.3555   10.4065 H   0  0  0  0  0  0  0  0  0  0  0  0
   -0.4078   12.9191   10.7398 H   0  0  0  0  0  0  0  0  0  0  0  0
   -0.9269   16.5520    9.5833 C   0  0  0  0  0  0  0  0  0  0  0  0
   -0.9682   17.0564   10.3886 H   0  0  0  0  0  0  0  0  0  0  0  0
   -2.3781   11.9728   11.0552 B   0  0  0  0  0  0  0  0  0  0  0  0
   -8.2253   10.1197    9.9524 C   0  0  0  0  0  0  0  0  0  0  0  0
   -9.0239    9.6465   10.1492 H   0  0  0  0  0  0  0  0  0  0  0  0
   -1.3582   13.0877   15.2697 C   0  0  0  0  0  0  0  0  0  0  0  0
   -1.1160   13.3392   16.1533 H   0  0  0  0  0  0  0  0  0  0  0  0
   -4.3794   15.0388    7.8854 C   0  0  0  0  0  0  0  0  0  0  0  0
   -3.4338   14.9436    7.8809 H   0  0  0  0  0  0  0  0  0  0  0  0
   -7.7659   10.1727    8.6549 C   0  0  0  0  0  0  0  0  0  0  0  0
   -8.2529    9.7553    7.9547 H   0  0  0  0  0  0  0  0  0  0  0  0
    0.6975   12.2420    6.3508 C   0  0  0  0  0  0  0  0  0  0  0  0
   -0.0754   12.3372    5.8050 H   0  0  0  0  0  0  0  0  0  0  0  0
   -3.0107    6.9449    8.8562 C   0  0  0  0  0  0  0  0  0  0  0  0
   -2.1039    6.8878    8.5811 H   0  0  0  0  0  0  0  0  0  0  0  0
   -0.7913   17.1965    8.3932 C   0  0  0  0  0  0  0  0  0  0  0  0
   -0.7085   18.1428    8.3686 H   0  0  0  0  0  0  0  0  0  0  0  0
   -1.2388   11.7757   14.8514 C   0  0  0  0  0  0  0  0  0  0  0  0
   -0.9157   11.1108   15.4487 H   0  0  0  0  0  0  0  0  0  0  0  0
    2.9702   11.9293    7.9212 C   0  0  0  0  0  0  0  0  0  0  0  0
    3.7445   11.8273    8.4625 H   0  0  0  0  0  0  0  0  0  0  0  0
   -5.6693    7.0782    9.6034 C   0  0  0  0  0  0  0  0  0  0  0  0
   -6.5894    7.1366    9.8338 H   0  0  0  0  0  0  0  0  0  0  0  0
   -4.8902    8.2203    9.5273 C   0  0  0  0  0  0  0  0  0  0  0  0
   -5.2847    9.0564    9.7466 H   0  0  0  0  0  0  0  0  0  0  0  0
   -0.5230    8.1740   10.3752 C   0  0  0  0  0  0  0  0  0  0  0  0
   -1.1185    8.1061   11.1111 H   0  0  0  0  0  0  0  0  0  0  0  0
    0.6833    7.4915   10.4042 C   0  0  0  0  0  0  0  0  0  0  0  0
    0.8988    6.9422   11.1492 H   0  0  0  0  0  0  0  0  0  0  0  0
   -4.9515   16.2407    7.4894 C   0  0  0  0  0  0  0  0  0  0  0  0
   -4.3945   16.9626    7.2255 H   0  0  0  0  0  0  0  0  0  0  0  0
   -7.1346   15.3297    7.8317 C   0  0  0  0  0  0  0  0  0  0  0  0
   -8.0808   15.4154    7.7959 H   0  0  0  0  0  0  0  0  0  0  0  0
   -6.3283   16.3929    7.4738 C   0  0  0  0  0  0  0  0  0  0  0  0
   -6.7167   17.2237    7.2210 H   0  0  0  0  0  0  0  0  0  0  0  0
   -4.2602    7.4752    5.7274 C   0  0  0  0  0  0  0  0  0  0  0  0
   -4.2582    6.0870    5.7110 C   0  0  0  0  0  0  0  0  0  0  0  0
   -5.0767    5.6098    5.7804 H   0  0  0  0  0  0  0  0  0  0  0  0
   -5.0899    5.8504    9.3394 C   0  0  0  0  0  0  0  0  0  0  0  0
   -5.6010    5.0537    9.4155 H   0  0  0  0  0  0  0  0  0  0  0  0
    1.9562   12.1020    5.7737 C   0  0  0  0  0  0  0  0  0  0  0  0
    2.0385   12.1183    4.8274 H   0  0  0  0  0  0  0  0  0  0  0  0
    3.0784   11.9388    6.5454 C   0  0  0  0  0  0  0  0  0  0  0  0
    3.9277   11.8314    6.1338 H   0  0  0  0  0  0  0  0  0  0  0  0
   -3.7851    5.7893    8.9703 C   0  0  0  0  0  0  0  0  0  0  0  0
   -3.3885    4.9449    8.7869 H   0  0  0  0  0  0  0  0  0  0  0  0
    1.2653    8.3725    8.2903 C   0  0  0  0  0  0  0  0  0  0  0  0
    1.8864    8.4609    7.5767 H   0  0  0  0  0  0  0  0  0  0  0  0
    1.5696    7.6044    9.3618 C   0  0  0  0  0  0  0  0  0  0  0  0
    2.3998    7.1407    9.3931 H   0  0  0  0  0  0  0  0  0  0  0  0
   -5.4009    8.2012    5.8833 O   0  0  0  0  0  0  0  0  0  0  0  0
   -6.6753    7.4915    6.0533 C   0  0  0  0  0  0  0  0  0  0  0  0
   -7.4007    8.1428    6.1584 H   0  0  0  0  0  0  0  0  0  0  0  0
   -6.6286    6.9218    6.8474 H   0  0  0  0  0  0  0  0  0  0  0  0
   -6.8474    6.9368    5.2636 H   0  0  0  0  0  0  0  0  0  0  0  0
    0.0297    9.0428    8.2366 C   0  0  0  0  0  0  0  0  0  0  0  0
   -0.1874    9.5595    7.4693 H   0  0  0  0  0  0  0  0  0  0  0  0
    1.7154   12.0734    8.5117 C   0  0  0  0  0  0  0  0  0  0  0  0
    1.6385   12.0517    9.4602 H   0  0  0  0  0  0  0  0  0  0  0  0
  1  2  1  0  0  0  0
  2 25  1  0  0  0  0
  3  1  1  0  0  0  0
  4  1  1  0  0  0  0
  5  4  1  0  0  0  0
  6  5  1  0  0  0  0
  7  6  1  0  0  0  0
  8  9  1  0  0  0  0
 10 11  1  0  0  0  0
 12  8  1  0  0  0  0
 13  6  1  0  0  0  0
 14 13  1  0  0  0  0
 15  5  1  0  0  0  0
 16 15  1  0  0  0  0
 17  4  1  0  0  0  0
 18 17  1  0  0  0  0
 19 17  1  0  0  0  0
 20 21  1  0  0  0  0
 22  3  1  0  0  0  0
 23 22  1  0  0  0  0
 24 23  1  0  0  0  0
 25 66  1  0  0  0  0
 26 27  1  0  0  0  0
 28  3  1  0  0  0  0
 29  4  1  0  0  0  0
 30 20  1  0  0  0  0
 31 30  1  0  0  0  0
 32  2  1  0  0  0  0
 33  2  1  0  0  0  0
 34 33  1  0  0  0  0
 35 33  1  0  0  0  0
 36 10  1  0  0  0  0
 37 36  1  0  0  0  0
 38  3  1  0  0  0  0
 39 38  1  0  0  0  0
 40 38  1  0  0  0  0
 41 23  1  0  0  0  0
 42 41  1  0  0  0  0
 43 12  1  0  0  0  0
 44 13  1  0  0  0  0
 45 44  1  0  0  0  0
 46 36  1  0  0  0  0
 47 46  1  0  0  0  0
 48 29  1  0  0  0  0
 49 48  1  0  0  0  0
 50 15  1  0  0  0  0
 51 50  1  0  0  0  0
 52 28  1  0  0  0  0
 53 52  1  0  0  0  0
 54 32  1  0  0  0  0
 55 54  1  0  0  0  0
 56 30  1  0  0  0  0
 57 56  1  0  0  0  0
 58  8  1  0  0  0  0
 59 58  1  0  0  0  0
 60 61  1  0  0  0  0
 62 63  1  0  0  0  0
 64 32  1  0  0  0  0
 65 64  1  0  0  0  0
 66 67  1  0  0  0  0
 68 66  1  0  0  0  0
 69 68  1  0  0  0  0
 70  1  1  0  0  0  0
 71  1  1  0  0  0  0
 72 71  1  0  0  0  0
 73 74  1  0  0  0  0
 75 48  1  0  0  0  0
 76 75  1  0  0  0  0
 77 26  1  0  0  0  0
 78 77  1  0  0  0  0
 79 75  1  0  0  0  0
 80 79  1  0  0  0  0
 81 72  1  0  0  0  0
 82 73  1  0  0  0  0
 83 82  1  0  0  0  0
 84 62  1  0  0  0  0
 85 84  1  0  0  0  0
 86 52  1  0  0  0  0
 87 86  1  0  0  0  0
 88 60  1  0  0  0  0
 89 88  1  0  0  0  0
 90 54  1  0  0  0  0
 91 90  1  0  0  0  0
 92 93  1  0  0  0  0
 94 68  1  0  0  0  0
 95 94  1  0  0  0  0
 96 81  1  0  0  0  0
 97 96  1  0  0  0  0
 98 97  1  0  0  0  0
 99 97  1  0  0  0  0
100 97  1  0  0  0  0
101 25  1  0  0  0  0
102101  1  0  0  0  0
103 28  1  0  0  0  0
104103  1  0  0  0  0
105 70  1  0  0  0  0
106105  1  0  0  0  0
107105  1  0  0  0  0
108105  1  0  0  0  0
109108  1  0  0  0  0
110109  1  0  0  0  0
111110  1  0  0  0  0
112113  1  0  0  0  0
114115  1  0  0  0  0
116112  1  0  0  0  0
117110  1  0  0  0  0
118117  1  0  0  0  0
119109  1  0  0  0  0
120119  1  0  0  0  0
121108  1  0  0  0  0
122121  1  0  0  0  0
123121  1  0  0  0  0
124125  1  0  0  0  0
126107  1  0  0  0  0
127126  1  0  0  0  0
128127  1  0  0  0  0
129106  1  0  0  0  0
130131  1  0  0  0  0
132107  1  0  0  0  0
133108  1  0  0  0  0
134124  1  0  0  0  0
135134  1  0  0  0  0
136106  1  0  0  0  0
137106  1  0  0  0  0
138137  1  0  0  0  0
139137  1  0  0  0  0
140114  1  0  0  0  0
141140  1  0  0  0  0
142107  1  0  0  0  0
143142  1  0  0  0  0
144142  1  0  0  0  0
145127  1  0  0  0  0
146145  1  0  0  0  0
147116  1  0  0  0  0
148117  1  0  0  0  0
149148  1  0  0  0  0
150140  1  0  0  0  0
151150  1  0  0  0  0
152133  1  0  0  0  0
153152  1  0  0  0  0
154119  1  0  0  0  0
155154  1  0  0  0  0
156132  1  0  0  0  0
157156  1  0  0  0  0
158136  1  0  0  0  0
159158  1  0  0  0  0
160134  1  0  0  0  0
161160  1  0  0  0  0
162112  1  0  0  0  0
163162  1  0  0  0  0
164165  1  0  0  0  0
166167  1  0  0  0  0
168136  1  0  0  0  0
169168  1  0  0  0  0
170129  1  0  0  0  0
171170  1  0  0  0  0
172170  1  0  0  0  0
173172  1  0  0  0  0
174152  1  0  0  0  0
175174  1  0  0  0  0
176130  1  0  0  0  0
177176  1  0  0  0  0
178174  1  0  0  0  0
179178  1  0  0  0  0
180 72  1  0  0  0  0
181 73  1  0  0  0  0
182181  1  0  0  0  0
183166  1  0  0  0  0
184183  1  0  0  0  0
185156  1  0  0  0  0
186185  1  0  0  0  0
187164  1  0  0  0  0
188187  1  0  0  0  0
189158  1  0  0  0  0
190189  1  0  0  0  0
191192  1  0  0  0  0
193172  1  0  0  0  0
194193  1  0  0  0  0
195180  1  0  0  0  0
196195  1  0  0  0  0
197196  1  0  0  0  0
198196  1  0  0  0  0
199196  1  0  0  0  0
200129  1  0  0  0  0
201200  1  0  0  0  0
202132  1  0  0  0  0
203202  1  0  0  0  0
 10 12  1  0  0  0  0
 17 43  1  0  0  0  0
 20 22  1  0  0  0  0
 26 29  1  0  0  0  0
 33 43  1  0  0  0  0
 38 43  1  0  0  0  0
 41 56  1  0  0  0  0
 44 50  1  0  0  0  0
 46 58  1  0  0  0  0
 60103  1  0  0  0  0
 62 64  1  0  0  0  0
 71105  1  0  0  0  0
 77 79  1  0  0  0  0
 81 82  1  0  0  0  0
 84 90  1  0  0  0  0
 86 88  1  0  0  0  0
 92 94  1  0  0  0  0
 92101  1  0  0  0  0
114116  1  0  0  0  0
121147  1  0  0  0  0
124126  1  0  0  0  0
130133  1  0  0  0  0
137147  1  0  0  0  0
142147  1  0  0  0  0
145160  1  0  0  0  0
148154  1  0  0  0  0
150162  1  0  0  0  0
164202  1  0  0  0  0
166168  1  0  0  0  0
176178  1  0  0  0  0
180181  1  0  0  0  0
183189  1  0  0  0  0
185187  1  0  0  0  0
191193  1  0  0  0  0
191200  1  0  0  0  0
M  END
$$$$
NEPJIE

From CSD data. Using bond type 'Any'. No disordered atoms. Largest molecule.
 98104  0  0  0  0  0  0  0  0999 V2000
    3.3541    5.7790    1.5467 P   0  0  0  0  0  0  0  0  0  0  0  0
    5.8005    6.8973    5.6902 P   0  0  0  0  0  0  0  0  0  0  0  0
    5.6835    4.0770    2.9736 B   0  0  0  0  0  0  0  0  0  0  0  0
    8.7843    6.9964    3.3671 B   0  0  0  0  0  0  0  0  0  0  0  0
    5.5474    5.4422    3.3374 N   0  0  0  0  0  0  0  0  0  0  0  0
    7.3661    7.0151    3.3971 N   0  0  0  0  0  0  0  0  0  0  0  0
    4.9074    3.4105    2.0623 O   0  0  0  0  0  0  0  0  0  0  0  0
    6.6411    3.2755    3.5603 O   0  0  0  0  0  0  0  0  0  0  0  0
    9.5565    6.1742    4.1465 O   0  0  0  0  0  0  0  0  0  0  0  0
    9.4909    7.7969    2.5006 O   0  0  0  0  0  0  0  0  0  0  0  0
    4.5659    6.4337    2.8255 C   0  0  0  0  0  0  0  0  0  0  0  0
    4.0391    6.7784    3.6029 H   0  0  0  0  0  0  0  0  0  0  0  0
    6.5794    6.0496    4.1699 C   0  0  0  0  0  0  0  0  0  0  0  0
    7.1915    5.3270    4.4906 H   0  0  0  0  0  0  0  0  0  0  0  0
    6.6260    7.8010    2.5058 C   0  0  0  0  0  0  0  0  0  0  0  0
    7.0659    8.5226    2.0694 H   0  0  0  0  0  0  0  0  0  0  0  0
    5.3395    7.5892    2.2357 C   0  0  0  0  0  0  0  0  0  0  0  0
    4.8911    8.1872    1.6489 H   0  0  0  0  0  0  0  0  0  0  0  0
    2.4360    7.3920    1.3857 C   0  0  0  0  0  0  0  0  0  0  0  0
    1.7380    7.9921    2.4069 C   0  0  0  0  0  0  0  0  0  0  0  0
    1.6064    7.5249    3.2237 H   0  0  0  0  0  0  0  0  0  0  0  0
    1.2237    9.2732    2.2585 C   0  0  0  0  0  0  0  0  0  0  0  0
    0.7872    9.6989    2.9873 H   0  0  0  0  0  0  0  0  0  0  0  0
    1.3485    9.9231    1.0553 C   0  0  0  0  0  0  0  0  0  0  0  0
    0.9951   10.7994    0.9564 H   0  0  0  0  0  0  0  0  0  0  0  0
    1.9806    9.3230   -0.0118 C   0  0  0  0  0  0  0  0  0  0  0  0
    2.0358    9.7643   -0.8520 H   0  0  0  0  0  0  0  0  0  0  0  0
    2.5513    8.0232    0.1674 C   0  0  0  0  0  0  0  0  0  0  0  0
    3.0073    7.5975   -0.5496 H   0  0  0  0  0  0  0  0  0  0  0  0
    2.1810    4.8152    2.5924 C   0  0  0  0  0  0  0  0  0  0  0  0
    1.1780    4.1113    1.8751 C   0  0  0  0  0  0  0  0  0  0  0  0
    1.0980    4.2161    0.9344 H   0  0  0  0  0  0  0  0  0  0  0  0
    0.3086    3.2610    2.5707 C   0  0  0  0  0  0  0  0  0  0  0  0
   -0.3490    2.7699    2.0914 H   0  0  0  0  0  0  0  0  0  0  0  0
    0.3925    3.1291    3.9272 C   0  0  0  0  0  0  0  0  0  0  0  0
   -0.2169    2.5664    4.3889 H   0  0  0  0  0  0  0  0  0  0  0  0
    1.3465    3.8009    4.6091 C   0  0  0  0  0  0  0  0  0  0  0  0
    1.4056    3.6960    5.5514 H   0  0  0  0  0  0  0  0  0  0  0  0
    2.2273    4.6304    3.9673 C   0  0  0  0  0  0  0  0  0  0  0  0
    2.8863    5.0903    4.4741 H   0  0  0  0  0  0  0  0  0  0  0  0
    5.0971    5.4246    6.5460 C   0  0  0  0  0  0  0  0  0  0  0  0
    5.6237    4.1310    6.4822 C   0  0  0  0  0  0  0  0  0  0  0  0
    6.4389    3.9763    6.0186 H   0  0  0  0  0  0  0  0  0  0  0  0
    4.9584    3.0627    7.0934 C   0  0  0  0  0  0  0  0  0  0  0  0
    5.3227    2.1875    7.0382 H   0  0  0  0  0  0  0  0  0  0  0  0
    3.7873    3.2724    7.7692 C   0  0  0  0  0  0  0  0  0  0  0  0
    3.3365    2.5415    8.1760 H   0  0  0  0  0  0  0  0  0  0  0  0
    3.2691    4.5266    7.8599 C   0  0  0  0  0  0  0  0  0  0  0  0
    2.4644    4.6646    8.3436 H   0  0  0  0  0  0  0  0  0  0  0  0
    3.9021    5.6135    7.2531 C   0  0  0  0  0  0  0  0  0  0  0  0
    3.5217    6.4815    7.3185 H   0  0  0  0  0  0  0  0  0  0  0  0
    7.3186    7.2591    6.6551 C   0  0  0  0  0  0  0  0  0  0  0  0
    7.8043    6.4763    7.6967 C   0  0  0  0  0  0  0  0  0  0  0  0
    7.3586    5.6686    7.9231 H   0  0  0  0  0  0  0  0  0  0  0  0
    8.9359    6.8594    8.4123 C   0  0  0  0  0  0  0  0  0  0  0  0
    9.2537    6.3143    9.1214 H   0  0  0  0  0  0  0  0  0  0  0  0
    9.5977    8.0274    8.0938 C   0  0  0  0  0  0  0  0  0  0  0  0
   10.3705    8.2859    8.5800 H   0  0  0  0  0  0  0  0  0  0  0  0
    9.1324    8.8154    7.0687 C   0  0  0  0  0  0  0  0  0  0  0  0
    9.5916    9.6168    6.8458 H   0  0  0  0  0  0  0  0  0  0  0  0
    8.0016    8.4499    6.3594 C   0  0  0  0  0  0  0  0  0  0  0  0
    7.6838    9.0126    5.6641 H   0  0  0  0  0  0  0  0  0  0  0  0
    5.1737    1.9830    2.2368 C   0  0  0  0  0  0  0  0  0  0  0  0
    6.6001    1.9861    2.8735 C   0  0  0  0  0  0  0  0  0  0  0  0
    4.0914    1.4587    3.1778 C   0  0  0  0  0  0  0  0  0  0  0  0
    4.1741    1.8989    4.0481 H   0  0  0  0  0  0  0  0  0  0  0  0
    4.1979    0.4911    3.2896 H   0  0  0  0  0  0  0  0  0  0  0  0
    3.2089    1.6476    2.7977 H   0  0  0  0  0  0  0  0  0  0  0  0
    5.0797    1.2998    0.8847 C   0  0  0  0  0  0  0  0  0  0  0  0
    4.1592    1.3528    0.5551 H   0  0  0  0  0  0  0  0  0  0  0  0
    5.3415    0.3592    0.9756 H   0  0  0  0  0  0  0  0  0  0  0  0
    5.6796    1.7463    0.2501 H   0  0  0  0  0  0  0  0  0  0  0  0
    6.8236    0.8939    3.9140 C   0  0  0  0  0  0  0  0  0  0  0  0
    7.7472    0.9365    4.2405 H   0  0  0  0  0  0  0  0  0  0  0  0
    6.6602    0.0176    3.5067 H   0  0  0  0  0  0  0  0  0  0  0  0
    6.2057    1.0268    4.6637 H   0  0  0  0  0  0  0  0  0  0  0  0
    7.7222    2.0027    1.8496 C   0  0  0  0  0  0  0  0  0  0  0  0
    7.5329    2.6827    1.1680 H   0  0  0  0  0  0  0  0  0  0  0  0
    7.7883    1.1233    1.4236 H   0  0  0  0  0  0  0  0  0  0  0  0
    8.5694    2.2145    2.2948 H   0  0  0  0  0  0  0  0  0  0  0  0
   10.8891    6.1960    3.5271 C   0  0  0  0  0  0  0  0  0  0  0  0
   10.9012    7.5872    2.8040 C   0  0  0  0  0  0  0  0  0  0  0  0
   11.9319    6.0413    4.6181 C   0  0  0  0  0  0  0  0  0  0  0  0
   11.7430    6.6746    5.3426 H   0  0  0  0  0  0  0  0  0  0  0  0
   12.8208    6.2230    4.2488 H   0  0  0  0  0  0  0  0  0  0  0  0
   11.9048    5.1266    4.9688 H   0  0  0  0  0  0  0  0  0  0  0  0
   10.9156    5.0228    2.5559 C   0  0  0  0  0  0  0  0  0  0  0  0
   10.7224    4.1933    3.0395 H   0  0  0  0  0  0  0  0  0  0  0  0
   11.8018    4.9616    2.1436 H   0  0  0  0  0  0  0  0  0  0  0  0
   10.2403    5.1599    1.8605 H   0  0  0  0  0  0  0  0  0  0  0  0
   11.3342    8.7354    3.7060 C   0  0  0  0  0  0  0  0  0  0  0  0
   11.1641    9.5878    3.2539 H   0  0  0  0  0  0  0  0  0  0  0  0
   12.2914    8.6544    3.8997 H   0  0  0  0  0  0  0  0  0  0  0  0
   10.8266    8.7022    4.5428 H   0  0  0  0  0  0  0  0  0  0  0  0
   11.6685    7.6027    1.4964 C   0  0  0  0  0  0  0  0  0  0  0  0
   11.2625    6.9663    0.8712 H   0  0  0  0  0  0  0  0  0  0  0  0
   12.6007    7.3473    1.6627 H   0  0  0  0  0  0  0  0  0  0  0  0
   11.6396    8.5029    1.1103 H   0  0  0  0  0  0  0  0  0  0  0  0
  1 11  1  0  0  0  0
  2 13  1  0  0  0  0
  3  5  1  0  0  0  0
  4  6  1  0  0  0  0
  5 11  1  0  0  0  0
  6 13  1  0  0  0  0
  7  3  1  0  0  0  0
  8  3  1  0  0  0  0
  9  4  1  0  0  0  0
 10  4  1  0  0  0  0
 11 12  1  0  0  0  0
 13  5  1  0  0  0  0
 14 13  1  0  0  0  0
 15  6  1  0  0  0  0
 16 15  1  0  0  0  0
 17 11  1  0  0  0  0
 18 17  1  0  0  0  0
 19  1  1  0  0  0  0
 20 19  4  0  0  0  0
 21 20  1  0  0  0  0
 22 20  4  0  0  0  0
 23 22  1  0  0  0  0
 24 22  4  0  0  0  0
 25 24  1  0  0  0  0
 26 24  4  0  0  0  0
 27 26  1  0  0  0  0
 28 19  4  0  0  0  0
 29 28  1  0  0  0  0
 30  1  1  0  0  0  0
 31 30  4  0  0  0  0
 32 31  1  0  0  0  0
 33 31  4  0  0  0  0
 34 33  1  0  0  0  0
 35 33  4  0  0  0  0
 36 35  1  0  0  0  0
 37 35  4  0  0  0  0
 38 37  1  0  0  0  0
 39 30  4  0  0  0  0
 40 39  1  0  0  0  0
 41  2  1  0  0  0  0
 42 41  4  0  0  0  0
 43 42  1  0  0  0  0
 44 42  4  0  0  0  0
 45 44  1  0  0  0  0
 46 44  4  0  0  0  0
 47 46  1  0  0  0  0
 48 46  4  0  0  0  0
 49 48  1  0  0  0  0
 50 41  4  0  0  0  0
 51 50  1  0  0  0  0
 52  2  1  0  0  0  0
 53 52  4  0  0  0  0
 54 53  1  0  0  0  0
 55 53  4  0  0  0  0
 56 55  1  0  0  0  0
 57 55  4  0  0  0  0
 58 57  1  0  0  0  0
 59 57  4  0  0  0  0
 60 59  1  0  0  0  0
 61 52  4  0  0  0  0
 62 61  1  0  0  0  0
 63  7  1  0  0  0  0
 64  8  1  0  0  0  0
 65 63  1  0  0  0  0
 66 65  1  0  0  0  0
 67 65  1  0  0  0  0
 68 65  1  0  0  0  0
 69 63  1  0  0  0  0
 70 69  1  0  0  0  0
 71 69  1  0  0  0  0
 72 69  1  0  0  0  0
 73 64  1  0  0  0  0
 74 73  1  0  0  0  0
 75 73  1  0  0  0  0
 76 73  1  0  0  0  0
 77 64  1  0  0  0  0
 78 77  1  0  0  0  0
 79 77  1  0  0  0  0
 80 77  1  0  0  0  0
 81  9  1  0  0  0  0
 82 10  1  0  0  0  0
 83 81  1  0  0  0  0
 84 83  1  0  0  0  0
 85 83  1  0  0  0  0
 86 83  1  0  0  0  0
 87 81  1  0  0  0  0
 88 87  1  0  0  0  0
 89 87  1  0  0  0  0
 90 87  1  0  0  0  0
 91 82  1  0  0  0  0
 92 91  1  0  0  0  0
 93 91  1  0  0  0  0
 94 91  1  0  0  0  0
 95 82  1  0  0  0  0
 96 95  1  0  0  0  0
 97 95  1  0  0  0  0
 98 95  1  0  0  0  0
 15 17  2  0  0  0  0
 26 28  4  0  0  0  0
 37 39  4  0  0  0  0
 48 50  4  0  0  0  0
 59 61  4  0  0  0  0
 63 64  1  0  0  0  0
 81 82  1  0  0  0  0
M  END
$$$$
NEPJOL

From CSD data. Using bond type 'Any'. No disordered atoms. Largest molecule.
127130  0  0  0  0  0  0  0  0999 V2000
   -3.4694   -1.0841   -6.8607 Si  0  0  0  0  0  0  0  0  0  0  0  0
   -0.3204   -1.0071   -6.5285 O   0  0  0  0  0  0  0  0  0  0  0  0
   -0.7798   -2.6228   -4.6466 N   0  0  0  0  0  0  0  0  0  0  0  0
   -1.8611   -2.8705   -3.7021 C   0  0  0  0  0  0  0  0  0  0  0  0
   -1.0762   -1.5553   -5.5213 B   0  0  0  0  0  0  0  0  0  0  0  0
   -2.4612   -2.9325    0.3779 P   0  0  0  0  0  0  0  0  0  0  0  0
   -2.4660    0.6717   -4.4066 Si  0  0  0  0  0  0  0  0  0  0  0  0
   -1.0463   -4.4655   -1.6105 N   0  0  0  0  0  0  0  0  0  0  0  0
   -3.0620   -2.1182   -4.2464 C   0  0  0  0  0  0  0  0  0  0  0  0
   -3.5578   -1.7098   -3.5193 H   0  0  0  0  0  0  0  0  0  0  0  0
   -3.6532   -2.7278   -4.7158 H   0  0  0  0  0  0  0  0  0  0  0  0
   -1.8056   -3.6395   -2.5017 B   0  0  0  0  0  0  0  0  0  0  0  0
   -3.6097   -5.6916   -0.8753 P   0  0  0  0  0  0  0  0  0  0  0  0
    0.0227   -5.2128   -1.3569 N   0  0  0  0  0  0  0  0  0  0  0  0
   -2.5332   -1.0075   -5.2335 C   0  0  0  0  0  0  0  0  0  0  0  0
   -2.4156   -4.2397   -1.0030 B   0  0  0  0  0  0  0  0  0  0  0  0
   -0.1041   -5.8968   -0.2716 N   0  0  0  0  0  0  0  0  0  0  0  0
    0.8559   -1.5764   -7.0864 C   0  0  0  0  0  0  0  0  0  0  0  0
    0.6374   -2.4096   -7.5107 H   0  0  0  0  0  0  0  0  0  0  0  0
    1.4979   -1.7305   -6.3900 H   0  0  0  0  0  0  0  0  0  0  0  0
    1.2257   -0.9740   -7.7358 H   0  0  0  0  0  0  0  0  0  0  0  0
    0.4205   -3.4055   -4.5886 C   0  0  0  0  0  0  0  0  0  0  0  0
    0.5063   -4.6037   -5.3098 C   0  0  0  0  0  0  0  0  0  0  0  0
    1.7316   -5.2495   -5.3871 C   0  0  0  0  0  0  0  0  0  0  0  0
    1.8031   -6.0367   -5.8771 H   0  0  0  0  0  0  0  0  0  0  0  0
    2.8480   -4.7432   -4.7485 C   0  0  0  0  0  0  0  0  0  0  0  0
    3.6708   -5.1683   -4.8332 H   0  0  0  0  0  0  0  0  0  0  0  0
    2.7303   -3.6018   -3.9847 C   0  0  0  0  0  0  0  0  0  0  0  0
    3.4790   -3.2713   -3.5438 H   0  0  0  0  0  0  0  0  0  0  0  0
    1.5211   -2.9342   -3.8581 C   0  0  0  0  0  0  0  0  0  0  0  0
   -0.7019   -5.2143   -5.9896 C   0  0  0  0  0  0  0  0  0  0  0  0
   -1.4471   -4.5860   -5.8900 H   0  0  0  0  0  0  0  0  0  0  0  0
   -1.1024   -6.5159   -5.3095 C   0  0  0  0  0  0  0  0  0  0  0  0
   -1.9421   -6.8174   -5.6651 H   0  0  0  0  0  0  0  0  0  0  0  0
   -1.1898   -6.3696   -4.3647 H   0  0  0  0  0  0  0  0  0  0  0  0
   -0.4298   -7.1814   -5.4697 H   0  0  0  0  0  0  0  0  0  0  0  0
   -0.4818   -5.4380   -7.4883 C   0  0  0  0  0  0  0  0  0  0  0  0
   -1.2981   -5.7471   -7.8886 H   0  0  0  0  0  0  0  0  0  0  0  0
    0.2061   -6.0950   -7.6163 H   0  0  0  0  0  0  0  0  0  0  0  0
   -0.2167   -4.6122   -7.8995 H   0  0  0  0  0  0  0  0  0  0  0  0
    1.4019   -1.7161   -2.9583 C   0  0  0  0  0  0  0  0  0  0  0  0
    0.4496   -1.5806   -2.7715 H   0  0  0  0  0  0  0  0  0  0  0  0
    1.9180   -0.4533   -3.6434 C   0  0  0  0  0  0  0  0  0  0  0  0
    2.8457   -0.5659   -3.8651 H   0  0  0  0  0  0  0  0  0  0  0  0
    1.8197    0.2954   -3.0508 H   0  0  0  0  0  0  0  0  0  0  0  0
    1.4147   -0.2954   -4.4453 H   0  0  0  0  0  0  0  0  0  0  0  0
    2.1039   -1.9453   -1.6194 C   0  0  0  0  0  0  0  0  0  0  0  0
    1.8058   -2.7749   -1.2395 H   0  0  0  0  0  0  0  0  0  0  0  0
    1.8939   -1.2251   -1.0205 H   0  0  0  0  0  0  0  0  0  0  0  0
    3.0535   -1.9798   -1.7577 H   0  0  0  0  0  0  0  0  0  0  0  0
   -5.3177   -1.0731   -6.6136 C   0  0  0  0  0  0  0  0  0  0  0  0
   -5.7548   -1.1374   -7.4658 H   0  0  0  0  0  0  0  0  0  0  0  0
   -5.5779   -0.2565   -6.1811 H   0  0  0  0  0  0  0  0  0  0  0  0
   -5.5718   -1.8200   -6.0664 H   0  0  0  0  0  0  0  0  0  0  0  0
   -3.0775    0.3174   -8.0301 C   0  0  0  0  0  0  0  0  0  0  0  0
   -3.5083    0.1589   -8.8737 H   0  0  0  0  0  0  0  0  0  0  0  0
   -2.1283    0.3689   -8.1603 H   0  0  0  0  0  0  0  0  0  0  0  0
   -3.3960    1.1425   -7.6581 H   0  0  0  0  0  0  0  0  0  0  0  0
   -3.0174   -2.6812   -7.7310 C   0  0  0  0  0  0  0  0  0  0  0  0
   -3.4851   -2.7329   -8.5679 H   0  0  0  0  0  0  0  0  0  0  0  0
   -3.2649   -3.4271   -7.1797 H   0  0  0  0  0  0  0  0  0  0  0  0
   -2.0713   -2.7016   -7.8914 H   0  0  0  0  0  0  0  0  0  0  0  0
   -4.1585    1.4502   -4.2151 C   0  0  0  0  0  0  0  0  0  0  0  0
   -4.5338    1.6169   -5.0828 H   0  0  0  0  0  0  0  0  0  0  0  0
   -4.0769    2.2788   -3.7371 H   0  0  0  0  0  0  0  0  0  0  0  0
   -4.7313    0.8543   -3.7275 H   0  0  0  0  0  0  0  0  0  0  0  0
   -1.3679    1.8689   -5.3387 C   0  0  0  0  0  0  0  0  0  0  0  0
   -1.7483    2.0460   -6.2022 H   0  0  0  0  0  0  0  0  0  0  0  0
   -0.4948    1.4847   -5.4465 H   0  0  0  0  0  0  0  0  0  0  0  0
   -1.2979    2.6894   -4.8455 H   0  0  0  0  0  0  0  0  0  0  0  0
   -1.7791    0.4890   -2.6790 C   0  0  0  0  0  0  0  0  0  0  0  0
   -0.8213    0.4446   -2.7184 H   0  0  0  0  0  0  0  0  0  0  0  0
   -2.1211   -0.3157   -2.2823 H   0  0  0  0  0  0  0  0  0  0  0  0
   -2.0432    1.2443   -2.1483 H   0  0  0  0  0  0  0  0  0  0  0  0
   -0.9334   -1.9924    0.3145 C   0  0  0  0  0  0  0  0  0  0  0  0
   -0.8058   -1.6485   -0.5726 H   0  0  0  0  0  0  0  0  0  0  0  0
   -0.1968   -2.5630    0.5455 H   0  0  0  0  0  0  0  0  0  0  0  0
   -0.9805   -1.2629    0.9369 H   0  0  0  0  0  0  0  0  0  0  0  0
   -3.8052   -1.7415    0.1943 C   0  0  0  0  0  0  0  0  0  0  0  0
   -3.7374   -1.3119   -0.6615 H   0  0  0  0  0  0  0  0  0  0  0  0
   -3.7454   -1.0818    0.8891 H   0  0  0  0  0  0  0  0  0  0  0  0
   -4.6477   -2.1975    0.2576 H   0  0  0  0  0  0  0  0  0  0  0  0
   -2.6226   -3.4762    2.0981 C   0  0  0  0  0  0  0  0  0  0  0  0
   -3.4622   -3.9274    2.2137 H   0  0  0  0  0  0  0  0  0  0  0  0
   -2.5867   -2.7133    2.6797 H   0  0  0  0  0  0  0  0  0  0  0  0
   -1.9048   -4.0764    2.3128 H   0  0  0  0  0  0  0  0  0  0  0  0
   -5.3303   -5.1735   -0.7358 C   0  0  0  0  0  0  0  0  0  0  0  0
   -5.5654   -4.6361   -1.4957 H   0  0  0  0  0  0  0  0  0  0  0  0
   -5.4459   -4.6602    0.0672 H   0  0  0  0  0  0  0  0  0  0  0  0
   -5.8963   -5.9483   -0.7044 H   0  0  0  0  0  0  0  0  0  0  0  0
   -3.3482   -6.8116    0.5156 C   0  0  0  0  0  0  0  0  0  0  0  0
   -3.9671   -7.5428    0.4585 H   0  0  0  0  0  0  0  0  0  0  0  0
   -3.4872   -6.3376    1.3387 H   0  0  0  0  0  0  0  0  0  0  0  0
   -2.4498   -7.1498    0.4893 H   0  0  0  0  0  0  0  0  0  0  0  0
   -3.5067   -6.7130   -2.3408 C   0  0  0  0  0  0  0  0  0  0  0  0
   -3.6597   -6.1722   -3.1191 H   0  0  0  0  0  0  0  0  0  0  0  0
   -4.1707   -7.4047   -2.2960 H   0  0  0  0  0  0  0  0  0  0  0  0
   -2.6341   -7.1099   -2.3935 H   0  0  0  0  0  0  0  0  0  0  0  0
    1.0166   -6.7213    0.0149 C   0  0  0  0  0  0  0  0  0  0  0  0
    1.5381   -7.6929   -0.8779 C   0  0  0  0  0  0  0  0  0  0  0  0
    2.5562   -8.5197   -0.4208 C   0  0  0  0  0  0  0  0  0  0  0  0
    2.9166   -9.1519   -0.9997 H   0  0  0  0  0  0  0  0  0  0  0  0
    3.0492   -8.4334    0.8611 C   0  0  0  0  0  0  0  0  0  0  0  0
    3.7264   -9.0063    1.1402 H   0  0  0  0  0  0  0  0  0  0  0  0
    2.5329   -7.4911    1.7335 C   0  0  0  0  0  0  0  0  0  0  0  0
    2.8708   -7.4321    2.5981 H   0  0  0  0  0  0  0  0  0  0  0  0
    1.5163   -6.6318    1.3339 C   0  0  0  0  0  0  0  0  0  0  0  0
    0.9629   -7.9124   -2.2611 C   0  0  0  0  0  0  0  0  0  0  0  0
    0.5185   -7.0834   -2.5359 H   0  0  0  0  0  0  0  0  0  0  0  0
    2.0039   -8.2467   -3.3064 C   0  0  0  0  0  0  0  0  0  0  0  0
    1.5992   -8.2358   -4.1767 H   0  0  0  0  0  0  0  0  0  0  0  0
    2.3636   -9.1201   -3.1321 H   0  0  0  0  0  0  0  0  0  0  0  0
    2.7107   -7.5979   -3.2738 H   0  0  0  0  0  0  0  0  0  0  0  0
   -0.0848   -9.0070   -2.2149 C   0  0  0  0  0  0  0  0  0  0  0  0
   -0.4999   -9.0884   -3.0764 H   0  0  0  0  0  0  0  0  0  0  0  0
   -0.7493   -8.7853   -1.5587 H   0  0  0  0  0  0  0  0  0  0  0  0
    0.3324   -9.8388   -1.9802 H   0  0  0  0  0  0  0  0  0  0  0  0
    0.9780   -5.5610    2.2650 C   0  0  0  0  0  0  0  0  0  0  0  0
    0.0775   -5.3363    1.9492 H   0  0  0  0  0  0  0  0  0  0  0  0
    1.7977   -4.3163    2.1603 C   0  0  0  0  0  0  0  0  0  0  0  0
    1.8641   -4.0535    1.2393 H   0  0  0  0  0  0  0  0  0  0  0  0
    2.6758   -4.4810    2.5105 H   0  0  0  0  0  0  0  0  0  0  0  0
    1.3787   -3.6140    2.6637 H   0  0  0  0  0  0  0  0  0  0  0  0
    0.8410   -5.9983    3.7026 C   0  0  0  0  0  0  0  0  0  0  0  0
    0.3982   -6.8503    3.7371 H   0  0  0  0  0  0  0  0  0  0  0  0
    0.3248   -5.3504    4.1871 H   0  0  0  0  0  0  0  0  0  0  0  0
    1.7120   -6.0750    4.0984 H   0  0  0  0  0  0  0  0  0  0  0  0
  1 15  1  0  0  0  0
  2  5  1  0  0  0  0
  3  4  1  0  0  0  0
  4  9  1  0  0  0  0
  5  3  1  0  0  0  0
  6 16  1  0  0  0  0
  7 15  1  0  0  0  0
  8 12  1  0  0  0  0
  9 10  1  0  0  0  0
 11  9  1  0  0  0  0
 12  4  2  0  0  0  0
 13 16  1  0  0  0  0
 14  8  1  0  0  0  0
 15  5  1  0  0  0  0
 16  8  1  0  0  0  0
 17 14  2  0  0  0  0
 18  2  1  0  0  0  0
 19 18  1  0  0  0  0
 20 18  1  0  0  0  0
 21 18  1  0  0  0  0
 22  3  1  0  0  0  0
 23 22  4  0  0  0  0
 24 23  4  0  0  0  0
 25 24  1  0  0  0  0
 26 24  4  0  0  0  0
 27 26  1  0  0  0  0
 28 26  4  0  0  0  0
 29 28  1  0  0  0  0
 30 22  4  0  0  0  0
 31 23  1  0  0  0  0
 32 31  1  0  0  0  0
 33 31  1  0  0  0  0
 34 33  1  0  0  0  0
 35 33  1  0  0  0  0
 36 33  1  0  0  0  0
 37 31  1  0  0  0  0
 38 37  1  0  0  0  0
 39 37  1  0  0  0  0
 40 37  1  0  0  0  0
 41 30  1  0  0  0  0
 42 41  1  0  0  0  0
 43 41  1  0  0  0  0
 44 43  1  0  0  0  0
 45 43  1  0  0  0  0
 46 43  1  0  0  0  0
 47 41  1  0  0  0  0
 48 47  1  0  0  0  0
 49 47  1  0  0  0  0
 50 47  1  0  0  0  0
 51  1  1  0  0  0  0
 52 51  1  0  0  0  0
 53 51  1  0  0  0  0
 54 51  1  0  0  0  0
 55  1  1  0  0  0  0
 56 55  1  0  0  0  0
 57 55  1  0  0  0  0
 58 55  1  0  0  0  0
 59  1  1  0  0  0  0
 60 59  1  0  0  0  0
 61 59  1  0  0  0  0
 62 59  1  0  0  0  0
 63  7  1  0  0  0  0
 64 63  1  0  0  0  0
 65 63  1  0  0  0  0
 66 63  1  0  0  0  0
 67  7  1  0  0  0  0
 68 67  1  0  0  0  0
 69 67  1  0  0  0  0
 70 67  1  0  0  0  0
 71  7  1  0  0  0  0
 72 71  1  0  0  0  0
 73 71  1  0  0  0  0
 74 71  1  0  0  0  0
 75  6  1  0  0  0  0
 76 75  1  0  0  0  0
 77 75  1  0  0  0  0
 78 75  1  0  0  0  0
 79  6  1  0  0  0  0
 80 79  1  0  0  0  0
 81 79  1  0  0  0  0
 82 79  1  0  0  0  0
 83  6  1  0  0  0  0
 84 83  1  0  0  0  0
 85 83  1  0  0  0  0
 86 83  1  0  0  0  0
 87 13  1  0  0  0  0
 88 87  1  0  0  0  0
 89 87  1  0  0  0  0
 90 87  1  0  0  0  0
 91 13  1  0  0  0  0
 92 91  1  0  0  0  0
 93 91  1  0  0  0  0
 94 91  1  0  0  0  0
 95 13  1  0  0  0  0
 96 95  1  0  0  0  0
 97 95  1  0  0  0  0
 98 95  1  0  0  0  0
 99 17  1  0  0  0  0
100 99  4  0  0  0  0
101100  4  0  0  0  0
102101  1  0  0  0  0
103101  4  0  0  0  0
104103  1  0  0  0  0
105103  4  0  0  0  0
106105  1  0  0  0  0
107 99  4  0  0  0  0
108100  1  0  0  0  0
109108  1  0  0  0  0
110108  1  0  0  0  0
111110  1  0  0  0  0
112110  1  0  0  0  0
113110  1  0  0  0  0
114108  1  0  0  0  0
115114  1  0  0  0  0
116114  1  0  0  0  0
117114  1  0  0  0  0
118107  1  0  0  0  0
119118  1  0  0  0  0
120118  1  0  0  0  0
121120  1  0  0  0  0
122120  1  0  0  0  0
123120  1  0  0  0  0
124118  1  0  0  0  0
125124  1  0  0  0  0
126124  1  0  0  0  0
127124  1  0  0  0  0
  9 15  1  0  0  0  0
 12 16  1  0  0  0  0
 28 30  4  0  0  0  0
105107  4  0  0  0  0
M  END
$$$$
NESQEH

From CSD data. Using bond type 'Any'. No disordered atoms. Largest molecule.
105126  0  0  0  0  0  0  0  0999 V2000
    9.1484   12.7076   11.6265 Pd  0  0  0  0  0  0  0  0  0  0  0  0
    7.0309   12.3342   10.7144 S   0  0  0  0  0  0  0  0  0  0  0  0
    7.9364   12.7170   13.7097 S   0  0  0  0  0  0  0  0  0  0  0  0
   11.2062   13.1959   12.6203 P   0  0  0  0  0  0  0  0  0  0  0  0
    9.8361   12.4286    9.4495 P   0  0  0  0  0  0  0  0  0  0  0  0
    8.5897   10.2980   15.5965 O   0  0  0  0  0  0  0  0  0  0  0  0
    8.8212    9.2738   13.6429 O   0  0  0  0  0  0  0  0  0  0  0  0
    7.2269   11.0513   13.8604 C   0  0  0  0  0  0  0  0  0  0  0  0
    8.2898   10.0953   14.3450 C   0  0  0  0  0  0  0  0  0  0  0  0
    9.6415    9.4661   16.1498 C   0  0  0  0  0  0  0  0  0  0  0  0
    9.7535    9.7667   17.5501 C   0  0  0  0  0  0  0  0  0  0  0  0
    6.0718   13.4598   11.7141 C   0  0  0  0  0  0  0  0  0  0  0  0
    6.4552   13.5769   13.2136 C   0  0  0  0  0  0  0  0  0  0  0  0
   11.9564   14.7759   12.1510 C   0  0  0  0  0  0  0  0  0  0  0  0
   11.3335   15.6411   11.2829 C   0  0  0  0  0  0  0  0  0  0  0  0
   11.8618   16.9205   11.0559 C   0  0  0  0  0  0  0  0  0  0  0  0
   13.0210   17.2962   11.6950 C   0  0  0  0  0  0  0  0  0  0  0  0
   13.6542   16.4765   12.5669 C   0  0  0  0  0  0  0  0  0  0  0  0
   13.1259   15.2181   12.7958 C   0  0  0  0  0  0  0  0  0  0  0  0
   11.0956   13.4948   14.4136 C   0  0  0  0  0  0  0  0  0  0  0  0
   10.3986   14.6273   14.8429 C   0  0  0  0  0  0  0  0  0  0  0  0
   10.3369   14.9419   16.1727 C   0  0  0  0  0  0  0  0  0  0  0  0
   10.9501   14.1414   17.1075 C   0  0  0  0  0  0  0  0  0  0  0  0
   11.6274   13.0298   16.7164 C   0  0  0  0  0  0  0  0  0  0  0  0
   11.7255   12.6838   15.3580 C   0  0  0  0  0  0  0  0  0  0  0  0
   12.4127   11.8623   12.4142 C   0  0  0  0  0  0  0  0  0  0  0  0
   11.9625   10.5689   12.6890 C   0  0  0  0  0  0  0  0  0  0  0  0
   12.8161    9.4871   12.6107 C   0  0  0  0  0  0  0  0  0  0  0  0
   14.1414    9.6985   12.2158 C   0  0  0  0  0  0  0  0  0  0  0  0
   14.5842   10.9570   11.9316 C   0  0  0  0  0  0  0  0  0  0  0  0
   13.7242   12.0301   12.0250 C   0  0  0  0  0  0  0  0  0  0  0  0
   11.6217   12.2259    9.0717 C   0  0  0  0  0  0  0  0  0  0  0  0
   12.1972   10.9937    8.9363 C   0  0  0  0  0  0  0  0  0  0  0  0
   13.5351   10.8766    8.6119 C   0  0  0  0  0  0  0  0  0  0  0  0
   14.3023   11.9550    8.4727 C   0  0  0  0  0  0  0  0  0  0  0  0
   13.7593   13.2274    8.6196 C   0  0  0  0  0  0  0  0  0  0  0  0
   12.4139   13.3654    8.9363 C   0  0  0  0  0  0  0  0  0  0  0  0
    9.3749   13.7919    8.3467 C   0  0  0  0  0  0  0  0  0  0  0  0
    9.8132   13.7971    7.0323 C   0  0  0  0  0  0  0  0  0  0  0  0
    9.5007   14.8388    6.1566 C   0  0  0  0  0  0  0  0  0  0  0  0
    8.7576   15.8927    6.6202 C   0  0  0  0  0  0  0  0  0  0  0  0
    8.3038   15.8892    7.9251 C   0  0  0  0  0  0  0  0  0  0  0  0
    8.6160   14.8476    8.7855 C   0  0  0  0  0  0  0  0  0  0  0  0
    9.0414   10.9028    8.8504 C   0  0  0  0  0  0  0  0  0  0  0  0
    8.9951    9.8139    9.7204 C   0  0  0  0  0  0  0  0  0  0  0  0
    8.3231    8.6534    9.2988 C   0  0  0  0  0  0  0  0  0  0  0  0
    7.7162    8.5642    8.1254 C   0  0  0  0  0  0  0  0  0  0  0  0
    7.7386    9.6269    7.2745 C   0  0  0  0  0  0  0  0  0  0  0  0
    8.4294   10.8084    7.6313 C   0  0  0  0  0  0  0  0  0  0  0  0
    5.4676   16.0186   12.5535 B   0  0  0  0  0  0  0  0  0  0  0  0
    5.4869   14.9786   11.1188 B   0  0  0  0  0  0  0  0  0  0  0  0
    6.8194   14.9367   12.2406 B   0  0  0  0  0  0  0  0  0  0  0  0
    6.1887   15.1097   13.8928 B   0  0  0  0  0  0  0  0  0  0  0  0
    4.4434   15.2268   13.7974 B   0  0  0  0  0  0  0  0  0  0  0  0
    3.9999   15.1377   12.0365 B   0  0  0  0  0  0  0  0  0  0  0  0
    5.1893   13.6556   14.2076 B   0  0  0  0  0  0  0  0  0  0  0  0
    3.7247   13.7762   13.1125 B   0  0  0  0  0  0  0  0  0  0  0  0
    4.4800   13.5437   11.4470 B   0  0  0  0  0  0  0  0  0  0  0  0
    5.6158   17.0585   12.3627 H   0  0  0  0  0  0  0  0  0  0  0  0
    5.6914   15.4156   10.1878 H   0  0  0  0  0  0  0  0  0  0  0  0
    7.9079   14.9961   11.8858 H   0  0  0  0  0  0  0  0  0  0  0  0
    6.9221   15.4331   14.5567 H   0  0  0  0  0  0  0  0  0  0  0  0
    3.8788   15.7477   14.5186 H   0  0  0  0  0  0  0  0  0  0  0  0
    3.1653   15.6603   11.5996 H   0  0  0  0  0  0  0  0  0  0  0  0
    5.2280   13.2658   15.2435 H   0  0  0  0  0  0  0  0  0  0  0  0
    2.7118   13.5280   13.4502 H   0  0  0  0  0  0  0  0  0  0  0  0
    4.3257   12.8289   12.9732 H   0  0  0  0  0  0  0  0  0  0  0  0
    4.0219   13.0910   10.7029 H   0  0  0  0  0  0  0  0  0  0  0  0
    6.5080   11.0688   14.4823 H   0  0  0  0  0  0  0  0  0  0  0  0
    6.9059   10.7664   13.0133 H   0  0  0  0  0  0  0  0  0  0  0  0
    9.4217    8.5485   16.0334 H   0  0  0  0  0  0  0  0  0  0  0  0
   10.4641    9.6514   15.7129 H   0  0  0  0  0  0  0  0  0  0  0  0
    9.9733   10.6826   17.6665 H   0  0  0  0  0  0  0  0  0  0  0  0
    8.9308    9.5797   17.9889 H   0  0  0  0  0  0  0  0  0  0  0  0
   10.4426    9.2214   17.9126 H   0  0  0  0  0  0  0  0  0  0  0  0
   10.5422   15.3702   10.8346 H   0  0  0  0  0  0  0  0  0  0  0  0
   11.4228   17.5217   10.4663 H   0  0  0  0  0  0  0  0  0  0  0  0
   13.3876   18.1544   11.5195 H   0  0  0  0  0  0  0  0  0  0  0  0
   14.4445   16.7597   13.0114 H   0  0  0  0  0  0  0  0  0  0  0  0
   13.5661   14.6361   13.4063 H   0  0  0  0  0  0  0  0  0  0  0  0
    9.9641   15.1831   14.2057 H   0  0  0  0  0  0  0  0  0  0  0  0
    9.8664   15.7197   16.4531 H   0  0  0  0  0  0  0  0  0  0  0  0
   10.9004   14.3669   18.0309 H   0  0  0  0  0  0  0  0  0  0  0  0
   12.0395   12.4793   17.3708 H   0  0  0  0  0  0  0  0  0  0  0  0
   12.2099   11.9130   15.0890 H   0  0  0  0  0  0  0  0  0  0  0  0
   11.0554   10.4326   12.9332 H   0  0  0  0  0  0  0  0  0  0  0  0
   12.5084    8.6132   12.8225 H   0  0  0  0  0  0  0  0  0  0  0  0
   14.7364    8.9610   12.1471 H   0  0  0  0  0  0  0  0  0  0  0  0
   15.4859   11.0950   11.6683 H   0  0  0  0  0  0  0  0  0  0  0  0
   14.0423   12.9005   11.8190 H   0  0  0  0  0  0  0  0  0  0  0  0
   11.6738   10.2106    9.0679 H   0  0  0  0  0  0  0  0  0  0  0  0
   13.9130   10.0149    8.4860 H   0  0  0  0  0  0  0  0  0  0  0  0
   15.2251   11.8553    8.2723 H   0  0  0  0  0  0  0  0  0  0  0  0
   14.3055   13.9964    8.5051 H   0  0  0  0  0  0  0  0  0  0  0  0
   12.0374   14.2288    9.0603 H   0  0  0  0  0  0  0  0  0  0  0  0
   10.3405   13.0718    6.7175 H   0  0  0  0  0  0  0  0  0  0  0  0
    9.7991   14.8178    5.2542 H   0  0  0  0  0  0  0  0  0  0  0  0
    8.5544   16.6233    6.0459 H   0  0  0  0  0  0  0  0  0  0  0  0
    7.7713   16.6111    8.2380 H   0  0  0  0  0  0  0  0  0  0  0  0
    8.3046   14.8650    9.6841 H   0  0  0  0  0  0  0  0  0  0  0  0
    9.4074    9.8541   10.5751 H   0  0  0  0  0  0  0  0  0  0  0  0
    8.3051    7.9018    9.8787 H   0  0  0  0  0  0  0  0  0  0  0  0
    7.2682    7.7655    7.8774 H   0  0  0  0  0  0  0  0  0  0  0  0
    7.2891    9.5762    6.4389 H   0  0  0  0  0  0  0  0  0  0  0  0
    8.4692   11.5355    7.0227 H   0  0  0  0  0  0  0  0  0  0  0  0
  1  2  1  0  0  0  0
  2 12  1  0  0  0  0
  3  1  1  0  0  0  0
  4  1  1  0  0  0  0
  5  1  1  0  0  0  0
  6  9  1  0  0  0  0
  7  9  2  0  0  0  0
  8  3  1  0  0  0  0
  9  8  1  0  0  0  0
 10  6  1  0  0  0  0
 11 10  1  0  0  0  0
 12 13  1  0  0  0  0
 13  3  1  0  0  0  0
 14  4  1  0  0  0  0
 15 14  4  0  0  0  0
 16 15  4  0  0  0  0
 17 16  4  0  0  0  0
 18 17  4  0  0  0  0
 19 14  4  0  0  0  0
 20  4  1  0  0  0  0
 21 20  4  0  0  0  0
 22 21  4  0  0  0  0
 23 22  4  0  0  0  0
 24 23  4  0  0  0  0
 25 20  4  0  0  0  0
 26  4  1  0  0  0  0
 27 26  4  0  0  0  0
 28 27  4  0  0  0  0
 29 28  4  0  0  0  0
 30 29  4  0  0  0  0
 31 26  4  0  0  0  0
 32  5  1  0  0  0  0
 33 32  4  0  0  0  0
 34 33  4  0  0  0  0
 35 34  4  0  0  0  0
 36 35  4  0  0  0  0
 37 32  4  0  0  0  0
 38  5  1  0  0  0  0
 39 38  4  0  0  0  0
 40 39  4  0  0  0  0
 41 40  4  0  0  0  0
 42 41  4  0  0  0  0
 43 38  4  0  0  0  0
 44  5  1  0  0  0  0
 45 44  4  0  0  0  0
 46 45  4  0  0  0  0
 47 46  4  0  0  0  0
 48 47  4  0  0  0  0
 49 44  4  0  0  0  0
 50 51  1  0  0  0  0
 51 12  1  0  0  0  0
 52 12  1  0  0  0  0
 53 13  1  0  0  0  0
 54 50  1  0  0  0  0
 55 50  1  0  0  0  0
 56 13  1  0  0  0  0
 57 54  1  0  0  0  0
 58 12  1  0  0  0  0
 59 50  1  0  0  0  0
 60 51  1  0  0  0  0
 61 52  1  0  0  0  0
 62 53  1  0  0  0  0
 63 54  1  0  0  0  0
 64 55  1  0  0  0  0
 65 56  1  0  0  0  0
 66 57  1  0  0  0  0
 67 57  1  0  0  0  0
 68 58  1  0  0  0  0
 69  8  1  0  0  0  0
 70  8  1  0  0  0  0
 71 10  1  0  0  0  0
 72 10  1  0  0  0  0
 73 11  1  0  0  0  0
 74 11  1  0  0  0  0
 75 11  1  0  0  0  0
 76 15  1  0  0  0  0
 77 16  1  0  0  0  0
 78 17  1  0  0  0  0
 79 18  1  0  0  0  0
 80 19  1  0  0  0  0
 81 21  1  0  0  0  0
 82 22  1  0  0  0  0
 83 23  1  0  0  0  0
 84 24  1  0  0  0  0
 85 25  1  0  0  0  0
 86 27  1  0  0  0  0
 87 28  1  0  0  0  0
 88 29  1  0  0  0  0
 89 30  1  0  0  0  0
 90 31  1  0  0  0  0
 91 33  1  0  0  0  0
 92 34  1  0  0  0  0
 93 35  1  0  0  0  0
 94 36  1  0  0  0  0
 95 37  1  0  0  0  0
 96 39  1  0  0  0  0
 97 40  1  0  0  0  0
 98 41  1  0  0  0  0
 99 42  1  0  0  0  0
100 43  1  0  0  0  0
101 45  1  0  0  0  0
102 46  1  0  0  0  0
103 47  1  0  0  0  0
104 48  1  0  0  0  0
105 49  1  0  0  0  0
 13 52  1  0  0  0  0
 18 19  4  0  0  0  0
 24 25  4  0  0  0  0
 30 31  4  0  0  0  0
 36 37  4  0  0  0  0
 42 43  4  0  0  0  0
 48 49  4  0  0  0  0
 50 52  1  0  0  0  0
 50 53  1  0  0  0  0
 51 52  1  0  0  0  0
 51 55  1  0  0  0  0
 51 58  1  0  0  0  0
 52 53  1  0  0  0  0
 53 54  1  0  0  0  0
 53 56  1  0  0  0  0
 54 55  1  0  0  0  0
 54 56  1  0  0  0  0
 55 57  1  0  0  0  0
 55 58  1  0  0  0  0
 56 57  1  0  0  0  0
 57 58  1  0  0  0  0
M  END
$$$$
NEWXOD

From CSD data. Using bond type 'Any'. No disordered atoms. Largest molecule.
154157  0  0  0  0  0  0  0  0999 V2000
   -2.0703    0.0000    7.7109 Mo  0  0  0  0  0  0  0  0  0  0  0  0
   -3.8796    1.6645    7.6272 P   0  0  0  0  0  0  0  0  0  0  0  0
   -0.8324    1.9169    6.7913 P   0  0  0  0  0  0  0  0  0  0  0  0
   -3.1313    3.3260    7.3948 C   0  0  0  0  0  0  0  0  0  0  0  0
   -3.8253    3.9622    7.0894 H   0  0  0  0  0  0  0  0  0  0  0  0
   -2.7709    3.6527    8.2568 H   0  0  0  0  0  0  0  0  0  0  0  0
   -2.0256    3.2624    6.3785 C   0  0  0  0  0  0  0  0  0  0  0  0
   -1.5489    4.1306    6.3538 H   0  0  0  0  0  0  0  0  0  0  0  0
   -2.4099    3.0990    5.4809 H   0  0  0  0  0  0  0  0  0  0  0  0
   -4.9657    1.9838    9.0452 C   0  0  0  0  0  0  0  0  0  0  0  0
   -5.5122    2.7769    8.8660 H   0  0  0  0  0  0  0  0  0  0  0  0
   -4.4208    2.1369    9.8453 H   0  0  0  0  0  0  0  0  0  0  0  0
   -5.5495    1.2106    9.1899 H   0  0  0  0  0  0  0  0  0  0  0  0
   -5.0656    1.5203    6.2751 C   0  0  0  0  0  0  0  0  0  0  0  0
   -5.6279    0.7305    6.4170 H   0  0  0  0  0  0  0  0  0  0  0  0
   -4.5843    1.4295    5.4269 H   0  0  0  0  0  0  0  0  0  0  0  0
   -5.6284    2.3222    6.2474 H   0  0  0  0  0  0  0  0  0  0  0  0
    0.0862    1.7569    5.2306 C   0  0  0  0  0  0  0  0  0  0  0  0
    0.3756    2.6443    4.9288 H   0  0  0  0  0  0  0  0  0  0  0  0
   -0.4929    1.3537    4.5510 H   0  0  0  0  0  0  0  0  0  0  0  0
    0.8712    1.1874    5.3714 H   0  0  0  0  0  0  0  0  0  0  0  0
    0.3726    2.7365    7.8836 C   0  0  0  0  0  0  0  0  0  0  0  0
    1.0791    2.1011    8.1258 H   0  0  0  0  0  0  0  0  0  0  0  0
   -0.0802    3.0443    8.6964 H   0  0  0  0  0  0  0  0  0  0  0  0
    0.7666    3.5033    7.4179 H   0  0  0  0  0  0  0  0  0  0  0  0
    0.3707    0.0000   15.4218 Mo  0  0  0  0  0  0  0  0  0  0  0  0
   -1.2384    0.1301   17.2746 P   0  0  0  0  0  0  0  0  0  0  0  0
    1.0784    2.1371   16.4014 P   0  0  0  0  0  0  0  0  0  0  0  0
   -1.1225    1.8102   18.0361 C   0  0  0  0  0  0  0  0  0  0  0  0
   -1.6678    2.4485   17.5130 H   0  0  0  0  0  0  0  0  0  0  0  0
   -1.4819    1.7811   18.9580 H   0  0  0  0  0  0  0  0  0  0  0  0
    0.3197    2.2803   18.0680 C   0  0  0  0  0  0  0  0  0  0  0  0
    0.8319    1.7327   18.7144 H   0  0  0  0  0  0  0  0  0  0  0  0
    0.3540    3.2232   18.3674 H   0  0  0  0  0  0  0  0  0  0  0  0
   -3.0213   -0.0099   16.9725 C   0  0  0  0  0  0  0  0  0  0  0  0
   -3.2429   -0.9390   16.7527 H   0  0  0  0  0  0  0  0  0  0  0  0
   -3.2727    0.5726   16.2253 H   0  0  0  0  0  0  0  0  0  0  0  0
   -3.5106    0.2611   17.7767 H   0  0  0  0  0  0  0  0  0  0  0  0
   -0.9806   -0.9771   18.6937 C   0  0  0  0  0  0  0  0  0  0  0  0
   -1.6540   -0.7895   19.3806 H   0  0  0  0  0  0  0  0  0  0  0  0
   -0.0849   -0.8295   19.0644 H   0  0  0  0  0  0  0  0  0  0  0  0
   -1.0623   -1.9095   18.3998 H   0  0  0  0  0  0  0  0  0  0  0  0
    2.8296    2.4049   16.8422 C   0  0  0  0  0  0  0  0  0  0  0  0
    3.3599    2.5159   16.0233 H   0  0  0  0  0  0  0  0  0  0  0  0
    3.1624    1.6316   17.3434 H   0  0  0  0  0  0  0  0  0  0  0  0
    2.9092    3.2106   17.3927 H   0  0  0  0  0  0  0  0  0  0  0  0
    0.6494    3.6525   15.5298 C   0  0  0  0  0  0  0  0  0  0  0  0
   -0.3252    3.7180   15.4496 H   0  0  0  0  0  0  0  0  0  0  0  0
    1.0506    3.6401   14.6368 H   0  0  0  0  0  0  0  0  0  0  0  0
    0.9876    4.4233   16.0310 H   0  0  0  0  0  0  0  0  0  0  0  0
   -1.3287    1.0581   13.9649 Cl  0  0  0  0  0  0  0  0  0  0  0  0
   -1.7708    0.5326    9.4381 N   0  0  0  0  0  0  0  0  0  0  0  0
   -1.5911    0.8674   10.6071 O   0  0  0  0  0  0  0  0  0  0  0  0
   -3.7125    2.8948   11.9118 H   0  0  0  0  0  0  0  0  0  0  0  0
   -3.5306    4.0281   12.3667 B   0  0  0  0  0  0  0  0  0  0  0  0
   -4.3468    5.0513   11.4044 C   0  0  0  0  0  0  0  0  0  0  0  0
   -4.1450    5.9770   11.6913 H   0  0  0  0  0  0  0  0  0  0  0  0
   -4.0109    4.9454   10.4791 H   0  0  0  0  0  0  0  0  0  0  0  0
   -5.8756    4.8700   11.3890 C   0  0  0  0  0  0  0  0  0  0  0  0
   -6.2760    5.5244   10.7798 H   0  0  0  0  0  0  0  0  0  0  0  0
   -6.2292    5.0043   12.2927 H   0  0  0  0  0  0  0  0  0  0  0  0
   -6.0936    3.9643   11.0852 H   0  0  0  0  0  0  0  0  0  0  0  0
   -1.9154    4.4064   12.3694 C   0  0  0  0  0  0  0  0  0  0  0  0
   -1.8188    5.3138   12.7523 H   0  0  0  0  0  0  0  0  0  0  0  0
   -1.4590    3.7812   12.9852 H   0  0  0  0  0  0  0  0  0  0  0  0
   -1.1737    4.3784   11.0454 C   0  0  0  0  0  0  0  0  0  0  0  0
   -0.2358    4.6212   11.1916 H   0  0  0  0  0  0  0  0  0  0  0  0
   -1.5841    5.0191   10.4267 H   0  0  0  0  0  0  0  0  0  0  0  0
   -1.2216    3.4780   10.6626 H   0  0  0  0  0  0  0  0  0  0  0  0
   -4.1508    4.5770   13.8904 C   0  0  0  0  0  0  0  0  0  0  0  0
   -4.1003    5.5644   13.9274 H   0  0  0  0  0  0  0  0  0  0  0  0
   -5.1027    4.3159   13.9675 H   0  0  0  0  0  0  0  0  0  0  0  0
   -3.3531    3.9748   15.0964 C   0  0  0  0  0  0  0  0  0  0  0  0
   -3.7240    4.3180   15.9369 H   0  0  0  0  0  0  0  0  0  0  0  0
   -2.4106    4.2338   15.0270 H   0  0  0  0  0  0  0  0  0  0  0  0
   -3.4261    2.9980   15.0825 H   0  0  0  0  0  0  0  0  0  0  0  0
   -2.1739    2.0514   12.0352 Li  0  0  0  0  0  0  0  0  0  0  0  0
   -0.2610   -1.6645    7.7946 P   0  0  0  0  0  0  0  0  0  0  0  0
   -3.3083   -1.9169    8.6305 P   0  0  0  0  0  0  0  0  0  0  0  0
   -1.0093   -3.3260    8.0271 C   0  0  0  0  0  0  0  0  0  0  0  0
   -0.3154   -3.9622    8.3324 H   0  0  0  0  0  0  0  0  0  0  0  0
   -1.3697   -3.6527    7.1650 H   0  0  0  0  0  0  0  0  0  0  0  0
   -2.1150   -3.2624    9.0433 C   0  0  0  0  0  0  0  0  0  0  0  0
   -2.5917   -4.1306    9.0680 H   0  0  0  0  0  0  0  0  0  0  0  0
   -1.7307   -3.0990    9.9409 H   0  0  0  0  0  0  0  0  0  0  0  0
    0.8251   -1.9838    6.3766 C   0  0  0  0  0  0  0  0  0  0  0  0
    1.3716   -2.7769    6.5558 H   0  0  0  0  0  0  0  0  0  0  0  0
    0.2802   -2.1369    5.5765 H   0  0  0  0  0  0  0  0  0  0  0  0
    1.4089   -1.2106    6.2320 H   0  0  0  0  0  0  0  0  0  0  0  0
    0.9250   -1.5203    9.1467 C   0  0  0  0  0  0  0  0  0  0  0  0
    1.4873   -0.7305    9.0048 H   0  0  0  0  0  0  0  0  0  0  0  0
    0.4437   -1.4295    9.9949 H   0  0  0  0  0  0  0  0  0  0  0  0
    1.4877   -2.3222    9.1744 H   0  0  0  0  0  0  0  0  0  0  0  0
   -4.2268   -1.7569   10.1912 C   0  0  0  0  0  0  0  0  0  0  0  0
   -4.5162   -2.6443   10.4930 H   0  0  0  0  0  0  0  0  0  0  0  0
   -3.6478   -1.3537   10.8708 H   0  0  0  0  0  0  0  0  0  0  0  0
   -5.0118   -1.1874   10.0504 H   0  0  0  0  0  0  0  0  0  0  0  0
   -4.5133   -2.7365    7.5382 C   0  0  0  0  0  0  0  0  0  0  0  0
   -5.2197   -2.1011    7.2961 H   0  0  0  0  0  0  0  0  0  0  0  0
   -4.0605   -3.0443    6.7255 H   0  0  0  0  0  0  0  0  0  0  0  0
   -4.9072   -3.5033    8.0039 H   0  0  0  0  0  0  0  0  0  0  0  0
   -4.5113    0.0000    0.0000 Mo  0  0  0  0  0  0  0  0  0  0  0  0
    1.9797   -0.1301   13.5690 P   0  0  0  0  0  0  0  0  0  0  0  0
   -0.3371   -2.1371   14.4422 P   0  0  0  0  0  0  0  0  0  0  0  0
    1.8639   -1.8102   12.8075 C   0  0  0  0  0  0  0  0  0  0  0  0
    2.4091   -2.4485   13.3306 H   0  0  0  0  0  0  0  0  0  0  0  0
    2.2233   -1.7811   11.8856 H   0  0  0  0  0  0  0  0  0  0  0  0
    0.4216   -2.2803   12.7756 C   0  0  0  0  0  0  0  0  0  0  0  0
   -0.0906   -1.7327   12.1293 H   0  0  0  0  0  0  0  0  0  0  0  0
    0.3874   -3.2232   12.4762 H   0  0  0  0  0  0  0  0  0  0  0  0
    3.7627    0.0099   13.8711 C   0  0  0  0  0  0  0  0  0  0  0  0
    3.9843    0.9390   14.0909 H   0  0  0  0  0  0  0  0  0  0  0  0
    4.0141   -0.5726   14.6183 H   0  0  0  0  0  0  0  0  0  0  0  0
    4.2520   -0.2611   13.0669 H   0  0  0  0  0  0  0  0  0  0  0  0
    1.7219    0.9771   12.1499 C   0  0  0  0  0  0  0  0  0  0  0  0
    2.3954    0.7895   11.4630 H   0  0  0  0  0  0  0  0  0  0  0  0
    0.8263    0.8295   11.7792 H   0  0  0  0  0  0  0  0  0  0  0  0
    1.8036    1.9095   12.4439 H   0  0  0  0  0  0  0  0  0  0  0  0
   -2.0883   -2.4049   14.0015 C   0  0  0  0  0  0  0  0  0  0  0  0
   -2.6185   -2.5159   14.8204 H   0  0  0  0  0  0  0  0  0  0  0  0
   -2.4211   -1.6316   13.5003 H   0  0  0  0  0  0  0  0  0  0  0  0
   -2.1678   -3.2106   13.4509 H   0  0  0  0  0  0  0  0  0  0  0  0
    0.0920   -3.6525   15.3139 C   0  0  0  0  0  0  0  0  0  0  0  0
    1.0665   -3.7180   15.3941 H   0  0  0  0  0  0  0  0  0  0  0  0
   -0.3093   -3.6401   16.2068 H   0  0  0  0  0  0  0  0  0  0  0  0
   -0.2462   -4.4233   14.8126 H   0  0  0  0  0  0  0  0  0  0  0  0
   -2.8119   -1.0581    1.4569 Cl  0  0  0  0  0  0  0  0  0  0  0  0
    2.0700   -1.0581   16.8787 Cl  0  0  0  0  0  0  0  0  0  0  0  0
   -2.3699   -0.5326    5.9837 N   0  0  0  0  0  0  0  0  0  0  0  0
   -2.5496   -0.8674    4.8147 O   0  0  0  0  0  0  0  0  0  0  0  0
   -0.4281   -2.8948    3.5100 H   0  0  0  0  0  0  0  0  0  0  0  0
   -0.6100   -4.0281    3.0551 B   0  0  0  0  0  0  0  0  0  0  0  0
    0.2062   -5.0513    4.0174 C   0  0  0  0  0  0  0  0  0  0  0  0
    0.0044   -5.9770    3.7305 H   0  0  0  0  0  0  0  0  0  0  0  0
   -0.1298   -4.9454    4.9427 H   0  0  0  0  0  0  0  0  0  0  0  0
    1.7350   -4.8700    4.0328 C   0  0  0  0  0  0  0  0  0  0  0  0
    2.1353   -5.5244    4.6420 H   0  0  0  0  0  0  0  0  0  0  0  0
    2.0886   -5.0043    3.1291 H   0  0  0  0  0  0  0  0  0  0  0  0
    1.9530   -3.9643    4.3366 H   0  0  0  0  0  0  0  0  0  0  0  0
   -2.2253   -4.4064    3.0524 C   0  0  0  0  0  0  0  0  0  0  0  0
   -2.3219   -5.3138    2.6695 H   0  0  0  0  0  0  0  0  0  0  0  0
   -2.6816   -3.7812    2.4366 H   0  0  0  0  0  0  0  0  0  0  0  0
   -2.9669   -4.3784    4.3764 C   0  0  0  0  0  0  0  0  0  0  0  0
   -3.9048   -4.6212    4.2302 H   0  0  0  0  0  0  0  0  0  0  0  0
   -2.5565   -5.0191    4.9951 H   0  0  0  0  0  0  0  0  0  0  0  0
   -2.9190   -3.4780    4.7592 H   0  0  0  0  0  0  0  0  0  0  0  0
    0.0102   -4.5770    1.5314 C   0  0  0  0  0  0  0  0  0  0  0  0
   -0.0403   -5.5644    1.4944 H   0  0  0  0  0  0  0  0  0  0  0  0
    0.9620   -4.3159    1.4543 H   0  0  0  0  0  0  0  0  0  0  0  0
   -0.7875   -3.9748    0.3254 C   0  0  0  0  0  0  0  0  0  0  0  0
   -0.4166   -4.3180   -0.5151 H   0  0  0  0  0  0  0  0  0  0  0  0
   -1.7301   -4.2338    0.3948 H   0  0  0  0  0  0  0  0  0  0  0  0
   -0.7146   -2.9980    0.3393 H   0  0  0  0  0  0  0  0  0  0  0  0
   -1.9667   -2.0514    3.3866 Li  0  0  0  0  0  0  0  0  0  0  0  0
  1  2  1  0  0  0  0
  2  4  1  0  0  0  0
  3  1  1  0  0  0  0
  4  5  1  0  0  0  0
  6  4  1  0  0  0  0
  7  3  1  0  0  0  0
  8  7  1  0  0  0  0
  9  7  1  0  0  0  0
 10  2  1  0  0  0  0
 11 10  1  0  0  0  0
 12 10  1  0  0  0  0
 13 10  1  0  0  0  0
 14  2  1  0  0  0  0
 15 14  1  0  0  0  0
 16 14  1  0  0  0  0
 17 14  1  0  0  0  0
 18  3  1  0  0  0  0
 19 18  1  0  0  0  0
 20 18  1  0  0  0  0
 21 18  1  0  0  0  0
 22  3  1  0  0  0  0
 23 22  1  0  0  0  0
 24 22  1  0  0  0  0
 25 22  1  0  0  0  0
 26 27  1  0  0  0  0
 27 29  1  0  0  0  0
 28 26  1  0  0  0  0
 29 30  1  0  0  0  0
 31 29  1  0  0  0  0
 32 28  1  0  0  0  0
 33 32  1  0  0  0  0
 34 32  1  0  0  0  0
 35 27  1  0  0  0  0
 36 35  1  0  0  0  0
 37 35  1  0  0  0  0
 38 35  1  0  0  0  0
 39 27  1  0  0  0  0
 40 39  1  0  0  0  0
 41 39  1  0  0  0  0
 42 39  1  0  0  0  0
 43 28  1  0  0  0  0
 44 43  1  0  0  0  0
 45 43  1  0  0  0  0
 46 43  1  0  0  0  0
 47 28  1  0  0  0  0
 48 47  1  0  0  0  0
 49 47  1  0  0  0  0
 50 47  1  0  0  0  0
 51 26  1  0  0  0  0
 52  1  1  0  0  0  0
 53 52  2  0  0  0  0
 54 55  1  0  0  0  0
 55 56  1  0  0  0  0
 56 57  1  0  0  0  0
 58 56  1  0  0  0  0
 59 56  1  0  0  0  0
 60 59  1  0  0  0  0
 61 59  1  0  0  0  0
 62 59  1  0  0  0  0
 63 55  1  0  0  0  0
 64 63  1  0  0  0  0
 65 63  1  0  0  0  0
 66 63  1  0  0  0  0
 67 66  1  0  0  0  0
 68 66  1  0  0  0  0
 69 66  1  0  0  0  0
 70 55  1  0  0  0  0
 71 70  1  0  0  0  0
 72 70  1  0  0  0  0
 73 70  1  0  0  0  0
 74 73  1  0  0  0  0
 75 73  1  0  0  0  0
 76 73  1  0  0  0  0
 77 51  1  0  0  0  0
 78  1  1  0  0  0  0
 79  1  1  0  0  0  0
 80 78  1  0  0  0  0
 81 80  1  0  0  0  0
 82 80  1  0  0  0  0
 83 79  1  0  0  0  0
 84 83  1  0  0  0  0
 85 83  1  0  0  0  0
 86 78  1  0  0  0  0
 87 86  1  0  0  0  0
 88 86  1  0  0  0  0
 89 86  1  0  0  0  0
 90 78  1  0  0  0  0
 91 90  1  0  0  0  0
 92 90  1  0  0  0  0
 93 90  1  0  0  0  0
 94 79  1  0  0  0  0
 95 94  1  0  0  0  0
 96 94  1  0  0  0  0
 97 94  1  0  0  0  0
 98 79  1  0  0  0  0
 99 98  1  0  0  0  0
100 98  1  0  0  0  0
101 98  1  0  0  0  0
102127  8  0  0  0  0
103 26  1  0  0  0  0
104 26  1  0  0  0  0
105103  1  0  0  0  0
106105  1  0  0  0  0
107105  1  0  0  0  0
108104  1  0  0  0  0
109108  1  0  0  0  0
110108  1  0  0  0  0
111103  1  0  0  0  0
112111  1  0  0  0  0
113111  1  0  0  0  0
114111  1  0  0  0  0
115103  1  0  0  0  0
116115  1  0  0  0  0
117115  1  0  0  0  0
118115  1  0  0  0  0
119104  1  0  0  0  0
120119  1  0  0  0  0
121119  1  0  0  0  0
122119  1  0  0  0  0
123104  1  0  0  0  0
124123  1  0  0  0  0
125123  1  0  0  0  0
126123  1  0  0  0  0
127154  1  0  0  0  0
128 26  8  0  0  0  0
129  1  1  0  0  0  0
130129  2  0  0  0  0
131132  1  0  0  0  0
132133  1  0  0  0  0
133134  1  0  0  0  0
135133  1  0  0  0  0
136133  1  0  0  0  0
137136  1  0  0  0  0
138136  1  0  0  0  0
139136  1  0  0  0  0
140132  1  0  0  0  0
141140  1  0  0  0  0
142140  1  0  0  0  0
143140  1  0  0  0  0
144143  1  0  0  0  0
145143  1  0  0  0  0
146143  1  0  0  0  0
147132  1  0  0  0  0
148147  1  0  0  0  0
149147  1  0  0  0  0
150147  1  0  0  0  0
151150  1  0  0  0  0
152150  1  0  0  0  0
153150  1  0  0  0  0
154130  1  0  0  0  0
  4  7  1  0  0  0  0
 29 32  1  0  0  0  0
 53 77  1  0  0  0  0
 54 77  1  0  0  0  0
 80 83  1  0  0  0  0
105108  1  0  0  0  0
131154  1  0  0  0  0
M  END
$$$$
NICZEE

From CSD data. Using bond type 'Any'. No disordered atoms. Largest molecule.
 96105  0  0  0  0  0  0  0  0999 V2000
    9.9650   10.4744   13.5941 Rh  0  0  0  0  0  0  0  0  0  0  0  0
   10.6925    8.9083   12.6805 B   0  0  0  0  0  0  0  0  0  0  0  0
   10.9949    8.7913   11.3180 O   0  0  0  0  0  0  0  0  0  0  0  0
   11.1477    7.7591   13.3533 O   0  0  0  0  0  0  0  0  0  0  0  0
   11.6257    7.5644   11.1659 C   0  0  0  0  0  0  0  0  0  0  0  0
   11.7182    6.9478   12.3938 C   0  0  0  0  0  0  0  0  0  0  0  0
   12.3225    5.7304   12.5598 C   0  0  0  0  0  0  0  0  0  0  0  0
   12.3910    5.3149   13.4123 H   0  0  0  0  0  0  0  0  0  0  0  0
   12.8492    5.1494   11.4111 C   0  0  0  0  0  0  0  0  0  0  0  0
   13.2711    4.3009   11.4734 H   0  0  0  0  0  0  0  0  0  0  0  0
   12.7562    5.7645   10.1814 C   0  0  0  0  0  0  0  0  0  0  0  0
   13.1452    5.3412    9.4250 H   0  0  0  0  0  0  0  0  0  0  0  0
   12.1275    6.9929   10.0192 C   0  0  0  0  0  0  0  0  0  0  0  0
   12.0401    7.4086    9.1685 H   0  0  0  0  0  0  0  0  0  0  0  0
    8.2810    9.5136   13.0710 B   0  0  0  0  0  0  0  0  0  0  0  0
    8.0556    8.2222   12.5692 O   0  0  0  0  0  0  0  0  0  0  0  0
    7.0518   10.1386   13.3145 O   0  0  0  0  0  0  0  0  0  0  0  0
    6.6884    8.0447   12.5806 C   0  0  0  0  0  0  0  0  0  0  0  0
    6.0789    9.1878   13.0219 C   0  0  0  0  0  0  0  0  0  0  0  0
    4.7180    9.2861   13.1766 C   0  0  0  0  0  0  0  0  0  0  0  0
    4.3037   10.0846   13.4802 H   0  0  0  0  0  0  0  0  0  0  0  0
    3.9884    8.1435   12.8559 C   0  0  0  0  0  0  0  0  0  0  0  0
    3.0425    8.1574   12.9333 H   0  0  0  0  0  0  0  0  0  0  0  0
    4.6004    6.9918   12.4221 C   0  0  0  0  0  0  0  0  0  0  0  0
    4.0644    6.2314   12.2278 H   0  0  0  0  0  0  0  0  0  0  0  0
    5.9760    6.8990   12.2693 C   0  0  0  0  0  0  0  0  0  0  0  0
    6.3978    6.0988   11.9770 H   0  0  0  0  0  0  0  0  0  0  0  0
   11.5063   12.0703   14.6034 Cl  0  0  0  0  0  0  0  0  0  0  0  0
    9.7832    9.3861   15.6540 P   0  0  0  0  0  0  0  0  0  0  0  0
    9.1211   10.6575   16.7848 C   0  0  0  0  0  0  0  0  0  0  0  0
    8.1034   11.4832   16.3038 C   0  0  0  0  0  0  0  0  0  0  0  0
    7.7745   11.3574   15.4211 H   0  0  0  0  0  0  0  0  0  0  0  0
    7.5836   12.4921   17.0941 C   0  0  0  0  0  0  0  0  0  0  0  0
    6.8824   13.0400   16.7640 H   0  0  0  0  0  0  0  0  0  0  0  0
    8.0749   12.6981   18.3672 C   0  0  0  0  0  0  0  0  0  0  0  0
    7.7199   13.3922   18.9104 H   0  0  0  0  0  0  0  0  0  0  0  0
    9.0837   11.8952   18.8501 C   0  0  0  0  0  0  0  0  0  0  0  0
    9.4180   12.0340   19.7290 H   0  0  0  0  0  0  0  0  0  0  0  0
    9.6189   10.8762   18.0654 C   0  0  0  0  0  0  0  0  0  0  0  0
   10.3226   10.3359   18.4050 H   0  0  0  0  0  0  0  0  0  0  0  0
   11.2703    8.7092   16.4566 C   0  0  0  0  0  0  0  0  0  0  0  0
   12.5303    8.9895   15.9435 C   0  0  0  0  0  0  0  0  0  0  0  0
   12.6160    9.5364   15.1721 H   0  0  0  0  0  0  0  0  0  0  0  0
   13.6619    8.4650   16.5547 C   0  0  0  0  0  0  0  0  0  0  0  0
   14.5239    8.6761   16.2151 H   0  0  0  0  0  0  0  0  0  0  0  0
   13.5378    7.6527   17.6694 C   0  0  0  0  0  0  0  0  0  0  0  0
   14.3136    7.2780   18.0692 H   0  0  0  0  0  0  0  0  0  0  0  0
   12.2924    7.3736   18.1805 C   0  0  0  0  0  0  0  0  0  0  0  0
   12.2120    6.8283   18.9557 H   0  0  0  0  0  0  0  0  0  0  0  0
   11.1602    7.8907   17.5769 C   0  0  0  0  0  0  0  0  0  0  0  0
   10.2999    7.6800   17.9202 H   0  0  0  0  0  0  0  0  0  0  0  0
    8.5871    8.0038   15.7776 C   0  0  0  0  0  0  0  0  0  0  0  0
    7.2744    8.2078   16.1812 C   0  0  0  0  0  0  0  0  0  0  0  0
    6.9971    9.0691   16.4717 H   0  0  0  0  0  0  0  0  0  0  0  0
    6.3650    7.1602   16.1661 C   0  0  0  0  0  0  0  0  0  0  0  0
    5.4689    7.3175   16.4396 H   0  0  0  0  0  0  0  0  0  0  0  0
    6.7462    5.9084   15.7606 C   0  0  0  0  0  0  0  0  0  0  0  0
    6.1149    5.1966   15.7455 H   0  0  0  0  0  0  0  0  0  0  0  0
    8.0425    5.6893   15.3664 C   0  0  0  0  0  0  0  0  0  0  0  0
    8.3181    4.8228   15.0910 H   0  0  0  0  0  0  0  0  0  0  0  0
    8.9591    6.7279   15.3702 C   0  0  0  0  0  0  0  0  0  0  0  0
    9.8518    6.5697   15.0872 H   0  0  0  0  0  0  0  0  0  0  0  0
    8.4883   11.3256   10.4473 C   0  0  0  0  0  0  0  0  0  0  0  0
    9.7965   11.7530   11.6554 P   0  0  0  0  0  0  0  0  0  0  0  0
    8.4981   10.0751    9.8400 C   0  0  0  0  0  0  0  0  0  0  0  0
    9.1927    9.4597   10.0456 H   0  0  0  0  0  0  0  0  0  0  0  0
    7.5073    9.7233    8.9346 C   0  0  0  0  0  0  0  0  0  0  0  0
    7.5230    8.8680    8.5216 H   0  0  0  0  0  0  0  0  0  0  0  0
    6.5100   10.6079    8.6291 C   0  0  0  0  0  0  0  0  0  0  0  0
    5.8253   10.3620    8.0180 H   0  0  0  0  0  0  0  0  0  0  0  0
    6.4865   11.8542    9.2195 C   0  0  0  0  0  0  0  0  0  0  0  0
    5.8025   12.4728    8.9912 H   0  0  0  0  0  0  0  0  0  0  0  0
    7.4667   12.2130   10.1286 C   0  0  0  0  0  0  0  0  0  0  0  0
    7.4308   13.0671   10.5435 H   0  0  0  0  0  0  0  0  0  0  0  0
   11.2761   12.0550   10.6378 C   0  0  0  0  0  0  0  0  0  0  0  0
   11.1546   12.4576    9.3024 C   0  0  0  0  0  0  0  0  0  0  0  0
   10.3013   12.4655    8.8837 H   0  0  0  0  0  0  0  0  0  0  0  0
   12.2828   12.8297    8.5857 C   0  0  0  0  0  0  0  0  0  0  0  0
   12.1954   13.1071    7.6822 H   0  0  0  0  0  0  0  0  0  0  0  0
   13.5235   12.8116    9.1817 C   0  0  0  0  0  0  0  0  0  0  0  0
   14.2880   13.0887    8.6913 H   0  0  0  0  0  0  0  0  0  0  0  0
   13.6547   12.3822   10.4869 C   0  0  0  0  0  0  0  0  0  0  0  0
   14.5163   12.3393   10.8868 H   0  0  0  0  0  0  0  0  0  0  0  0
   12.5330   11.9965   11.2150 C   0  0  0  0  0  0  0  0  0  0  0  0
   12.6288   11.7012   12.1128 H   0  0  0  0  0  0  0  0  0  0  0  0
    9.3404   13.4076   12.2750 C   0  0  0  0  0  0  0  0  0  0  0  0
   10.1213   14.5372   12.0392 C   0  0  0  0  0  0  0  0  0  0  0  0
   10.8923   14.4769   11.4885 H   0  0  0  0  0  0  0  0  0  0  0  0
    9.7724   15.7551   12.6107 C   0  0  0  0  0  0  0  0  0  0  0  0
   10.3102   16.5219   12.4580 H   0  0  0  0  0  0  0  0  0  0  0  0
    8.6682   15.8562   13.4142 C   0  0  0  0  0  0  0  0  0  0  0  0
    8.4195   16.6953   13.7820 H   0  0  0  0  0  0  0  0  0  0  0  0
    7.8912   14.7441   13.6670 C   0  0  0  0  0  0  0  0  0  0  0  0
    7.1336   14.8116   14.2366 H   0  0  0  0  0  0  0  0  0  0  0  0
    8.2192   13.5285   13.1049 C   0  0  0  0  0  0  0  0  0  0  0  0
    7.6792   12.7665   13.2822 H   0  0  0  0  0  0  0  0  0  0  0  0
  1  2  1  0  0  0  0
  2  3  1  0  0  0  0
  3  5  1  0  0  0  0
  4  2  1  0  0  0  0
  5  6  4  0  0  0  0
  6  4  1  0  0  0  0
  7  6  4  0  0  0  0
  8  7  1  0  0  0  0
  9  7  4  0  0  0  0
 10  9  1  0  0  0  0
 11  9  4  0  0  0  0
 12 11  1  0  0  0  0
 13  5  4  0  0  0  0
 14 13  1  0  0  0  0
 15  1  1  0  0  0  0
 16 15  1  0  0  0  0
 17 15  1  0  0  0  0
 18 16  1  0  0  0  0
 19 17  1  0  0  0  0
 20 19  4  0  0  0  0
 21 20  1  0  0  0  0
 22 20  4  0  0  0  0
 23 22  1  0  0  0  0
 24 22  4  0  0  0  0
 25 24  1  0  0  0  0
 26 18  4  0  0  0  0
 27 26  1  0  0  0  0
 28  1  1  0  0  0  0
 29  1  1  0  0  0  0
 30 29  1  0  0  0  0
 31 30  4  0  0  0  0
 32 31  1  0  0  0  0
 33 31  4  0  0  0  0
 34 33  1  0  0  0  0
 35 33  4  0  0  0  0
 36 35  1  0  0  0  0
 37 35  4  0  0  0  0
 38 37  1  0  0  0  0
 39 30  4  0  0  0  0
 40 39  1  0  0  0  0
 41 29  1  0  0  0  0
 42 41  4  0  0  0  0
 43 42  1  0  0  0  0
 44 42  4  0  0  0  0
 45 44  1  0  0  0  0
 46 44  4  0  0  0  0
 47 46  1  0  0  0  0
 48 46  4  0  0  0  0
 49 48  1  0  0  0  0
 50 41  4  0  0  0  0
 51 50  1  0  0  0  0
 52 29  1  0  0  0  0
 53 52  4  0  0  0  0
 54 53  1  0  0  0  0
 55 53  4  0  0  0  0
 56 55  1  0  0  0  0
 57 55  4  0  0  0  0
 58 57  1  0  0  0  0
 59 57  4  0  0  0  0
 60 59  1  0  0  0  0
 61 52  4  0  0  0  0
 62 61  1  0  0  0  0
 63 64  1  0  0  0  0
 64  1  1  0  0  0  0
 65 63  4  0  0  0  0
 66 65  1  0  0  0  0
 67 65  4  0  0  0  0
 68 67  1  0  0  0  0
 69 67  4  0  0  0  0
 70 69  1  0  0  0  0
 71 69  4  0  0  0  0
 72 71  1  0  0  0  0
 73 63  4  0  0  0  0
 74 73  1  0  0  0  0
 75 64  1  0  0  0  0
 76 75  4  0  0  0  0
 77 76  1  0  0  0  0
 78 76  4  0  0  0  0
 79 78  1  0  0  0  0
 80 78  4  0  0  0  0
 81 80  1  0  0  0  0
 82 80  4  0  0  0  0
 83 82  1  0  0  0  0
 84 75  4  0  0  0  0
 85 84  1  0  0  0  0
 86 64  1  0  0  0  0
 87 86  4  0  0  0  0
 88 87  1  0  0  0  0
 89 87  4  0  0  0  0
 90 89  1  0  0  0  0
 91 89  4  0  0  0  0
 92 91  1  0  0  0  0
 93 91  4  0  0  0  0
 94 93  1  0  0  0  0
 95 86  4  0  0  0  0
 96 95  1  0  0  0  0
 11 13  4  0  0  0  0
 18 19  4  0  0  0  0
 24 26  4  0  0  0  0
 37 39  4  0  0  0  0
 48 50  4  0  0  0  0
 59 61  4  0  0  0  0
 71 73  4  0  0  0  0
 82 84  4  0  0  0  0
 93 95  4  0  0  0  0
M  END
$$$$
NICZII

From CSD data. Using bond type 'Any'. Matching problem. No disordered atoms. Largest molecule.
102111  0  0  0  0  0  0  0  0999 V2000
   10.3709   11.4278   14.2194 Rh  0  0  0  0  0  0  0  0  0  0  0  0
   10.2072   12.6475   12.2414 P   0  0  0  0  0  0  0  0  0  0  0  0
   10.2258   10.3862   16.3112 P   0  0  0  0  0  0  0  0  0  0  0  0
    8.5588   10.6078   13.7948 B   0  0  0  0  0  0  0  0  0  0  0  0
   10.9558    9.8458   13.3303 B   0  0  0  0  0  0  0  0  0  0  0  0
    8.2258    9.3996   13.1897 O   0  0  0  0  0  0  0  0  0  0  0  0
    7.4350   11.3444   14.1208 O   0  0  0  0  0  0  0  0  0  0  0  0
   11.3742    8.6417   13.9920 O   0  0  0  0  0  0  0  0  0  0  0  0
   11.2358    9.6335   11.9600 O   0  0  0  0  0  0  0  0  0  0  0  0
   12.0530   12.9900   15.0972 Cl  0  0  0  0  0  0  0  0  0  0  0  0
    9.8600   14.3171   12.7837 C   0  0  0  0  0  0  0  0  0  0  0  0
    8.9672   14.4233   13.6992 C   0  0  0  0  0  0  0  0  0  0  0  0
    8.5447   13.6519   14.0603 H   0  0  0  0  0  0  0  0  0  0  0  0
    8.6075   15.7966   14.1833 C   0  0  0  0  0  0  0  0  0  0  0  0
    7.8808   15.9167   14.7826 H   0  0  0  0  0  0  0  0  0  0  0  0
    9.3693   16.9305   13.7382 C   0  0  0  0  0  0  0  0  0  0  0  0
    9.2030   17.8026   14.0759 H   0  0  0  0  0  0  0  0  0  0  0  0
   10.3703   16.6931   12.7857 C   0  0  0  0  0  0  0  0  0  0  0  0
   10.8771   17.4222   12.4499 H   0  0  0  0  0  0  0  0  0  0  0  0
   10.6200   15.4610   12.3426 C   0  0  0  0  0  0  0  0  0  0  0  0
   11.3222   15.3329   11.7160 H   0  0  0  0  0  0  0  0  0  0  0  0
    8.7916   12.2834   11.1128 C   0  0  0  0  0  0  0  0  0  0  0  0
    7.8512   13.2437   10.8239 C   0  0  0  0  0  0  0  0  0  0  0  0
    7.9185   14.1040   11.2201 H   0  0  0  0  0  0  0  0  0  0  0  0
    6.7955   12.9608    9.9494 C   0  0  0  0  0  0  0  0  0  0  0  0
    6.1639   13.6346    9.7269 H   0  0  0  0  0  0  0  0  0  0  0  0
    6.6816   11.7066    9.4184 C   0  0  0  0  0  0  0  0  0  0  0  0
    5.9540   11.4903    8.8465 H   0  0  0  0  0  0  0  0  0  0  0  0
    7.6141   10.7801    9.7171 C   0  0  0  0  0  0  0  0  0  0  0  0
    7.5308    9.9140    9.3365 H   0  0  0  0  0  0  0  0  0  0  0  0
    8.6843   11.0300   10.5506 C   0  0  0  0  0  0  0  0  0  0  0  0
    9.3305   10.3574   10.7341 H   0  0  0  0  0  0  0  0  0  0  0  0
   11.6563   12.7640   11.1265 C   0  0  0  0  0  0  0  0  0  0  0  0
   11.5022   13.0180    9.7835 C   0  0  0  0  0  0  0  0  0  0  0  0
   10.6351   13.0917    9.4028 H   0  0  0  0  0  0  0  0  0  0  0  0
   12.6485   13.1685    8.9792 C   0  0  0  0  0  0  0  0  0  0  0  0
   12.5535   13.3153    8.0462 H   0  0  0  0  0  0  0  0  0  0  0  0
   13.8844   13.1067    9.5258 C   0  0  0  0  0  0  0  0  0  0  0  0
   14.6456   13.2575    8.9773 H   0  0  0  0  0  0  0  0  0  0  0  0
   14.0581   12.8343   10.8356 C   0  0  0  0  0  0  0  0  0  0  0  0
   14.9342   12.7533   11.1928 H   0  0  0  0  0  0  0  0  0  0  0  0
   12.9074   12.6660   11.6945 C   0  0  0  0  0  0  0  0  0  0  0  0
   13.0102   12.4927   12.6217 H   0  0  0  0  0  0  0  0  0  0  0  0
   11.6725    9.5183   16.9786 C   0  0  0  0  0  0  0  0  0  0  0  0
   12.9572    9.8117   16.4906 C   0  0  0  0  0  0  0  0  0  0  0  0
   13.0661   10.4529   15.7976 H   0  0  0  0  0  0  0  0  0  0  0  0
   14.0673    9.1656   17.0176 C   0  0  0  0  0  0  0  0  0  0  0  0
   14.9314    9.3828   16.6858 H   0  0  0  0  0  0  0  0  0  0  0  0
   13.9499    8.2549   17.9702 C   0  0  0  0  0  0  0  0  0  0  0  0
   14.7206    7.8160   18.3118 H   0  0  0  0  0  0  0  0  0  0  0  0
   12.6477    7.9330   18.4855 C   0  0  0  0  0  0  0  0  0  0  0  0
   12.5493    7.2968   19.1843 H   0  0  0  0  0  0  0  0  0  0  0  0
   11.5653    8.5486   17.9624 C   0  0  0  0  0  0  0  0  0  0  0  0
   10.7029    8.3075   18.2786 H   0  0  0  0  0  0  0  0  0  0  0  0
    8.8357    9.2060   16.5569 C   0  0  0  0  0  0  0  0  0  0  0  0
    8.8716    7.9936   15.9030 C   0  0  0  0  0  0  0  0  0  0  0  0
    9.6150    7.7920   15.3486 H   0  0  0  0  0  0  0  0  0  0  0  0
    7.8330    7.0375   16.0338 C   0  0  0  0  0  0  0  0  0  0  0  0
    7.8603    6.2072   15.5731 H   0  0  0  0  0  0  0  0  0  0  0  0
    6.7580    7.3811   16.8790 C   0  0  0  0  0  0  0  0  0  0  0  0
    6.0422    6.7654   16.9883 H   0  0  0  0  0  0  0  0  0  0  0  0
    6.7145    8.5606   17.5388 C   0  0  0  0  0  0  0  0  0  0  0  0
    5.9657    8.7664   18.0854 H   0  0  0  0  0  0  0  0  0  0  0  0
    7.7699    9.4905   17.4236 C   0  0  0  0  0  0  0  0  0  0  0  0
    7.7583   10.2970   17.9253 H   0  0  0  0  0  0  0  0  0  0  0  0
    9.8491   11.7511   17.4783 C   0  0  0  0  0  0  0  0  0  0  0  0
   10.2535   12.9953   19.4693 C   0  0  0  0  0  0  0  0  0  0  0  0
   10.7266   13.1102   20.2853 H   0  0  0  0  0  0  0  0  0  0  0  0
   10.5719   11.9247   18.6456 C   0  0  0  0  0  0  0  0  0  0  0  0
   11.2699   11.3240   18.8779 H   0  0  0  0  0  0  0  0  0  0  0  0
    9.2417   13.9188   19.1219 C   0  0  0  0  0  0  0  0  0  0  0  0
    9.0409   14.6776   19.6587 H   0  0  0  0  0  0  0  0  0  0  0  0
    8.5493   13.6363   17.9214 C   0  0  0  0  0  0  0  0  0  0  0  0
    7.8444   14.2141   17.6520 H   0  0  0  0  0  0  0  0  0  0  0  0
    8.8768   12.4871   17.0781 C   0  0  0  0  0  0  0  0  0  0  0  0
    8.3977   12.2964   16.2798 H   0  0  0  0  0  0  0  0  0  0  0  0
    6.8150    9.4487   13.1546 C   0  0  0  0  0  0  0  0  0  0  0  0
    6.3527   10.5565   13.7207 C   0  0  0  0  0  0  0  0  0  0  0  0
    4.9837   10.8377   13.8515 C   0  0  0  0  0  0  0  0  0  0  0  0
    4.6465   11.6291   14.2575 H   0  0  0  0  0  0  0  0  0  0  0  0
    4.1607    9.8225   13.3186 C   0  0  0  0  0  0  0  0  0  0  0  0
    3.2191    9.9338   13.3869 H   0  0  0  0  0  0  0  0  0  0  0  0
    4.6091    8.7308   12.7330 C   0  0  0  0  0  0  0  0  0  0  0  0
    3.9848    8.1299   12.3445 H   0  0  0  0  0  0  0  0  0  0  0  0
    5.9795    8.4259   12.6627 C   0  0  0  0  0  0  0  0  0  0  0  0
    6.5418    7.2131   12.1005 C   0  0  0  0  0  0  0  0  0  0  0  0
    7.2579    6.8832   12.6822 H   0  0  0  0  0  0  0  0  0  0  0  0
    6.9064    7.4039   11.2104 H   0  0  0  0  0  0  0  0  0  0  0  0
    5.8405    6.5317   12.0263 H   0  0  0  0  0  0  0  0  0  0  0  0
   11.9511    7.7941   13.0453 C   0  0  0  0  0  0  0  0  0  0  0  0
   11.8166    8.4218   11.7804 C   0  0  0  0  0  0  0  0  0  0  0  0
   12.3221    7.8271   10.6658 C   0  0  0  0  0  0  0  0  0  0  0  0
   12.2458    8.2267    9.8069 H   0  0  0  0  0  0  0  0  0  0  0  0
   12.9675    6.5815   10.8512 C   0  0  0  0  0  0  0  0  0  0  0  0
   13.3398    6.1403   10.0977 H   0  0  0  0  0  0  0  0  0  0  0  0
   13.0763    5.9851   12.0986 C   0  0  0  0  0  0  0  0  0  0  0  0
   13.5248    5.1526   12.1864 H   0  0  0  0  0  0  0  0  0  0  0  0
   12.5374    6.5940   13.2092 C   0  0  0  0  0  0  0  0  0  0  0  0
   12.7191    6.0217   14.6518 C   0  0  0  0  0  0  0  0  0  0  0  0
   11.9187    6.2145   15.1827 H   0  0  0  0  0  0  0  0  0  0  0  0
   13.4991    6.4391   15.0715 H   0  0  0  0  0  0  0  0  0  0  0  0
   12.8521    5.0519   14.6030 H   0  0  0  0  0  0  0  0  0  0  0  0
  1  2  1  0  0  0  0
  2 11  1  0  0  0  0
  3  1  1  0  0  0  0
  4  1  1  0  0  0  0
  5  1  1  0  0  0  0
  6  4  1  0  0  0  0
  7  4  1  0  0  0  0
  8  5  1  0  0  0  0
  9  5  1  0  0  0  0
 10  1  1  0  0  0  0
 11 12  4  0  0  0  0
 12 13  1  0  0  0  0
 14 12  4  0  0  0  0
 15 14  1  0  0  0  0
 16 14  4  0  0  0  0
 17 16  1  0  0  0  0
 18 16  4  0  0  0  0
 19 18  1  0  0  0  0
 20 11  4  0  0  0  0
 21 20  1  0  0  0  0
 22  2  1  0  0  0  0
 23 22  4  0  0  0  0
 24 23  1  0  0  0  0
 25 23  4  0  0  0  0
 26 25  1  0  0  0  0
 27 25  4  0  0  0  0
 28 27  1  0  0  0  0
 29 27  4  0  0  0  0
 30 29  1  0  0  0  0
 31 22  4  0  0  0  0
 32 31  1  0  0  0  0
 33  2  1  0  0  0  0
 34 33  4  0  0  0  0
 35 34  1  0  0  0  0
 36 34  4  0  0  0  0
 37 36  1  0  0  0  0
 38 36  4  0  0  0  0
 39 38  1  0  0  0  0
 40 38  4  0  0  0  0
 41 40  1  0  0  0  0
 42 33  4  0  0  0  0
 43 42  1  0  0  0  0
 44  3  1  0  0  0  0
 45 44  4  0  0  0  0
 46 45  1  0  0  0  0
 47 45  4  0  0  0  0
 48 47  1  0  0  0  0
 49 47  4  0  0  0  0
 50 49  1  0  0  0  0
 51 49  4  0  0  0  0
 52 51  1  0  0  0  0
 53 44  4  0  0  0  0
 54 53  1  0  0  0  0
 55  3  1  0  0  0  0
 56 55  4  0  0  0  0
 57 56  1  0  0  0  0
 58 56  4  0  0  0  0
 59 58  1  0  0  0  0
 60 58  4  0  0  0  0
 61 60  1  0  0  0  0
 62 60  4  0  0  0  0
 63 62  1  0  0  0  0
 64 55  4  0  0  0  0
 65 64  1  0  0  0  0
 66  3  1  0  0  0  0
 67 68  1  0  0  0  0
 69 66  4  0  0  0  0
 70 69  1  0  0  0  0
 71 67  4  0  0  0  0
 72 71  1  0  0  0  0
 73 71  4  0  0  0  0
 74 73  1  0  0  0  0
 75 66  4  0  0  0  0
 76 75  1  0  0  0  0
 77  6  1  0  0  0  0
 78  7  1  0  0  0  0
 79 78  4  0  0  0  0
 80 79  1  0  0  0  0
 81 79  4  0  0  0  0
 82 81  1  0  0  0  0
 83 81  4  0  0  0  0
 84 83  1  0  0  0  0
 85 77  4  0  0  0  0
 86 85  1  0  0  0  0
 87 86  1  0  0  0  0
 88 86  1  0  0  0  0
 89 86  1  0  0  0  0
 90  8  1  0  0  0  0
 91  9  1  0  0  0  0
 92 91  4  0  0  0  0
 93 92  1  0  0  0  0
 94 92  4  0  0  0  0
 95 94  1  0  0  0  0
 96 94  4  0  0  0  0
 97 96  1  0  0  0  0
 98 90  4  0  0  0  0
 99 98  1  0  0  0  0
100 99  1  0  0  0  0
101 99  1  0  0  0  0
102 99  1  0  0  0  0
 18 20  4  0  0  0  0
 29 31  4  0  0  0  0
 40 42  4  0  0  0  0
 51 53  4  0  0  0  0
 62 64  4  0  0  0  0
 67 69  4  0  0  0  0
 73 75  4  0  0  0  0
 77 78  4  0  0  0  0
 83 85  4  0  0  0  0
 90 91  4  0  0  0  0
 96 98  4  0  0  0  0
M  END
$$$$
NICZOO

From CSD data. Using bond type 'Any'. No disordered atoms. Largest molecule.
 72 75  0  0  0  0  0  0  0  0999 V2000
   -7.6083    9.9700   14.1608 Rh  0  0  0  0  0  0  0  0  0  0  0  0
   -8.1203    8.3362   15.8772 Cl  0  0  0  0  0  0  0  0  0  0  0  0
   -6.0447   10.2110   12.9818 B   0  0  0  0  0  0  0  0  0  0  0  0
   -4.9066   10.9982   13.2466 O   0  0  0  0  0  0  0  0  0  0  0  0
   -5.8384    9.5021   11.7824 O   0  0  0  0  0  0  0  0  0  0  0  0
   -4.0285   10.7653   12.2045 C   0  0  0  0  0  0  0  0  0  0  0  0
   -4.5859    9.8565   11.3250 C   0  0  0  0  0  0  0  0  0  0  0  0
   -3.9341    9.4277   10.1935 C   0  0  0  0  0  0  0  0  0  0  0  0
   -4.3247    8.8002    9.5957 H   0  0  0  0  0  0  0  0  0  0  0  0
   -2.6669    9.9663    9.9737 C   0  0  0  0  0  0  0  0  0  0  0  0
   -2.1793    9.7069    9.2002 H   0  0  0  0  0  0  0  0  0  0  0  0
   -2.1056   10.8709   10.8558 C   0  0  0  0  0  0  0  0  0  0  0  0
   -1.2385   11.2139   10.6750 H   0  0  0  0  0  0  0  0  0  0  0  0
   -2.7760   11.2923   12.0003 C   0  0  0  0  0  0  0  0  0  0  0  0
   -2.3882   11.9114   12.6087 H   0  0  0  0  0  0  0  0  0  0  0  0
   -8.0805   11.5255   13.0058 B   0  0  0  0  0  0  0  0  0  0  0  0
   -7.4710   12.1352   11.8830 O   0  0  0  0  0  0  0  0  0  0  0  0
   -9.3210   12.1702   13.2307 O   0  0  0  0  0  0  0  0  0  0  0  0
   -8.3375   13.1089   11.4373 C   0  0  0  0  0  0  0  0  0  0  0  0
   -9.4644   13.1183   12.2364 C   0  0  0  0  0  0  0  0  0  0  0  0
  -10.5372   13.9382   11.9727 C   0  0  0  0  0  0  0  0  0  0  0  0
  -11.3198   13.9277   12.5108 H   0  0  0  0  0  0  0  0  0  0  0  0
  -10.4136   14.7863   10.8697 C   0  0  0  0  0  0  0  0  0  0  0  0
  -11.1296   15.3730   10.6558 H   0  0  0  0  0  0  0  0  0  0  0  0
   -9.2795   14.7936   10.0841 C   0  0  0  0  0  0  0  0  0  0  0  0
   -9.2303   15.3866    9.3423 H   0  0  0  0  0  0  0  0  0  0  0  0
   -8.2093   13.9518   10.3556 C   0  0  0  0  0  0  0  0  0  0  0  0
   -7.4250   13.9559    9.8204 H   0  0  0  0  0  0  0  0  0  0  0  0
   -8.7563    8.5707   12.6865 P   0  0  0  0  0  0  0  0  0  0  0  0
   -8.8598    9.0439   10.9254 C   0  0  0  0  0  0  0  0  0  0  0  0
   -9.1519    9.9882   10.8766 H   0  0  0  0  0  0  0  0  0  0  0  0
   -7.9486    8.9979   10.5405 H   0  0  0  0  0  0  0  0  0  0  0  0
   -9.7923    8.2115   10.0432 C   0  0  0  0  0  0  0  0  0  0  0  0
   -9.6050    7.2588   10.1776 H   0  0  0  0  0  0  0  0  0  0  0  0
   -9.6463    8.4436    9.1022 H   0  0  0  0  0  0  0  0  0  0  0  0
  -10.7236    8.3976   10.2851 H   0  0  0  0  0  0  0  0  0  0  0  0
  -10.5006    8.3474   13.1877 C   0  0  0  0  0  0  0  0  0  0  0  0
  -10.9177    7.6865   12.5799 H   0  0  0  0  0  0  0  0  0  0  0  0
  -10.5162    7.9626   14.0989 H   0  0  0  0  0  0  0  0  0  0  0  0
  -11.3512    9.6034   13.1840 C   0  0  0  0  0  0  0  0  0  0  0  0
  -10.9721   10.2560   13.8089 H   0  0  0  0  0  0  0  0  0  0  0  0
  -12.2646    9.3796   13.4594 H   0  0  0  0  0  0  0  0  0  0  0  0
  -11.3663    9.9851   12.2822 H   0  0  0  0  0  0  0  0  0  0  0  0
   -8.2099    6.8248   12.7412 C   0  0  0  0  0  0  0  0  0  0  0  0
   -8.5296    6.4284   13.5900 H   0  0  0  0  0  0  0  0  0  0  0  0
   -8.6561    6.3395   12.0038 H   0  0  0  0  0  0  0  0  0  0  0  0
   -6.7395    6.5811   12.6379 C   0  0  0  0  0  0  0  0  0  0  0  0
   -6.3965    6.9952   11.8175 H   0  0  0  0  0  0  0  0  0  0  0  0
   -6.5686    5.6169   12.6125 H   0  0  0  0  0  0  0  0  0  0  0  0
   -6.2886    6.9733   13.4152 H   0  0  0  0  0  0  0  0  0  0  0  0
   -6.7619   11.2943   15.8724 P   0  0  0  0  0  0  0  0  0  0  0  0
   -5.7064   10.3951   17.0598 C   0  0  0  0  0  0  0  0  0  0  0  0
   -5.3676   11.0330   17.7378 H   0  0  0  0  0  0  0  0  0  0  0  0
   -6.2555    9.7184   17.5304 H   0  0  0  0  0  0  0  0  0  0  0  0
   -4.5271    9.7017   16.4044 C   0  0  0  0  0  0  0  0  0  0  0  0
   -3.9565   10.3689   15.9692 H   0  0  0  0  0  0  0  0  0  0  0  0
   -4.8530    9.0648   15.7350 H   0  0  0  0  0  0  0  0  0  0  0  0
   -4.0104    9.2227   17.0849 H   0  0  0  0  0  0  0  0  0  0  0  0
   -8.2460   11.7703   16.8526 C   0  0  0  0  0  0  0  0  0  0  0  0
   -8.8426   12.3005   16.2650 H   0  0  0  0  0  0  0  0  0  0  0  0
   -8.7312   10.9420   17.0926 H   0  0  0  0  0  0  0  0  0  0  0  0
   -8.0180   12.5640   18.1242 C   0  0  0  0  0  0  0  0  0  0  0  0
   -7.6652   13.4498   17.8972 H   0  0  0  0  0  0  0  0  0  0  0  0
   -7.3738   12.0924   18.6922 H   0  0  0  0  0  0  0  0  0  0  0  0
   -8.8669   12.6634   18.6039 H   0  0  0  0  0  0  0  0  0  0  0  0
   -5.8500   12.8505   15.6145 C   0  0  0  0  0  0  0  0  0  0  0  0
   -5.7092   13.2793   16.4954 H   0  0  0  0  0  0  0  0  0  0  0  0
   -4.9574   12.6309   15.2472 H   0  0  0  0  0  0  0  0  0  0  0  0
   -6.5058   13.8503   14.7014 C   0  0  0  0  0  0  0  0  0  0  0  0
   -7.4125   14.0386   15.0225 H   0  0  0  0  0  0  0  0  0  0  0  0
   -6.5497   13.4832   13.7935 H   0  0  0  0  0  0  0  0  0  0  0  0
   -5.9834   14.6786   14.6941 H   0  0  0  0  0  0  0  0  0  0  0  0
  1  2  1  0  0  0  0
  3  1  1  0  0  0  0
  4  3  1  0  0  0  0
  5  3  1  0  0  0  0
  6  4  1  0  0  0  0
  7  5  1  0  0  0  0
  8  7  4  0  0  0  0
  9  8  1  0  0  0  0
 10  8  4  0  0  0  0
 11 10  1  0  0  0  0
 12 10  4  0  0  0  0
 13 12  1  0  0  0  0
 14  6  4  0  0  0  0
 15 14  1  0  0  0  0
 16  1  1  0  0  0  0
 17 16  1  0  0  0  0
 18 16  1  0  0  0  0
 19 17  1  0  0  0  0
 20 18  1  0  0  0  0
 21 20  4  0  0  0  0
 22 21  1  0  0  0  0
 23 21  4  0  0  0  0
 24 23  1  0  0  0  0
 25 23  4  0  0  0  0
 26 25  1  0  0  0  0
 27 19  4  0  0  0  0
 28 27  1  0  0  0  0
 29  1  1  0  0  0  0
 30 29  1  0  0  0  0
 31 30  1  0  0  0  0
 32 30  1  0  0  0  0
 33 30  1  0  0  0  0
 34 33  1  0  0  0  0
 35 33  1  0  0  0  0
 36 33  1  0  0  0  0
 37 29  1  0  0  0  0
 38 37  1  0  0  0  0
 39 37  1  0  0  0  0
 40 37  1  0  0  0  0
 41 40  1  0  0  0  0
 42 40  1  0  0  0  0
 43 40  1  0  0  0  0
 44 29  1  0  0  0  0
 45 44  1  0  0  0  0
 46 44  1  0  0  0  0
 47 44  1  0  0  0  0
 48 47  1  0  0  0  0
 49 47  1  0  0  0  0
 50 47  1  0  0  0  0
 51  1  1  0  0  0  0
 52 51  1  0  0  0  0
 53 52  1  0  0  0  0
 54 52  1  0  0  0  0
 55 52  1  0  0  0  0
 56 55  1  0  0  0  0
 57 55  1  0  0  0  0
 58 55  1  0  0  0  0
 59 51  1  0  0  0  0
 60 59  1  0  0  0  0
 61 59  1  0  0  0  0
 62 59  1  0  0  0  0
 63 62  1  0  0  0  0
 64 62  1  0  0  0  0
 65 62  1  0  0  0  0
 66 51  1  0  0  0  0
 67 66  1  0  0  0  0
 68 66  1  0  0  0  0
 69 66  1  0  0  0  0
 70 69  1  0  0  0  0
 71 69  1  0  0  0  0
 72 69  1  0  0  0  0
  6  7  4  0  0  0  0
 12 14  4  0  0  0  0
 19 20  4  0  0  0  0
 25 27  4  0  0  0  0
M  END
$$$$
NICZUU

From CSD data. Using bond type 'Any'. No disordered atoms. Largest molecule.
 72 75  0  0  0  0  0  0  0  0999 V2000
   -0.2502    0.4880    4.5674 Ir  0  0  0  0  0  0  0  0  0  0  0  0
   -0.7943    2.0954    6.2940 Cl  0  0  0  0  0  0  0  0  0  0  0  0
    1.3259    0.2659    3.3729 B   0  0  0  0  0  0  0  0  0  0  0  0
    2.4830   -0.5233    3.6197 O   0  0  0  0  0  0  0  0  0  0  0  0
    1.5483    0.9844    2.1753 O   0  0  0  0  0  0  0  0  0  0  0  0
    3.3487   -0.2891    2.5809 C   0  0  0  0  0  0  0  0  0  0  0  0
    2.7782    0.6162    1.7104 C   0  0  0  0  0  0  0  0  0  0  0  0
    3.4360    1.0625    0.5797 C   0  0  0  0  0  0  0  0  0  0  0  0
    3.0497    1.7071   -0.0019 H   0  0  0  0  0  0  0  0  0  0  0  0
    4.7124    0.5085    0.3348 C   0  0  0  0  0  0  0  0  0  0  0  0
    5.1935    0.7681   -0.4419 H   0  0  0  0  0  0  0  0  0  0  0  0
    5.2700   -0.4030    1.2091 C   0  0  0  0  0  0  0  0  0  0  0  0
    6.1341   -0.7512    1.0236 H   0  0  0  0  0  0  0  0  0  0  0  0
    4.5991   -0.8230    2.3513 C   0  0  0  0  0  0  0  0  0  0  0  0
    4.9846   -1.4528    2.9482 H   0  0  0  0  0  0  0  0  0  0  0  0
   -0.7539   -1.0783    3.4227 B   0  0  0  0  0  0  0  0  0  0  0  0
   -1.9914   -1.7493    3.6178 O   0  0  0  0  0  0  0  0  0  0  0  0
   -0.1125   -1.6987    2.3130 O   0  0  0  0  0  0  0  0  0  0  0  0
   -2.1049   -2.6978    2.6306 C   0  0  0  0  0  0  0  0  0  0  0  0
   -0.9656   -2.6767    1.8500 C   0  0  0  0  0  0  0  0  0  0  0  0
   -0.8049   -3.5208    0.7710 C   0  0  0  0  0  0  0  0  0  0  0  0
   -0.0135   -3.5176    0.2468 H   0  0  0  0  0  0  0  0  0  0  0  0
   -1.8696   -4.3807    0.4898 C   0  0  0  0  0  0  0  0  0  0  0  0
   -1.8066   -4.9747   -0.2506 H   0  0  0  0  0  0  0  0  0  0  0  0
   -3.0112   -4.3859    1.2627 C   0  0  0  0  0  0  0  0  0  0  0  0
   -3.7145   -4.9863    1.0465 H   0  0  0  0  0  0  0  0  0  0  0  0
   -3.1567   -3.5398    2.3436 C   0  0  0  0  0  0  0  0  0  0  0  0
   -3.9480   -3.5376    2.8679 H   0  0  0  0  0  0  0  0  0  0  0  0
   -1.3887    1.9096    3.1083 P   0  0  0  0  0  0  0  0  0  0  0  0
   -3.1225    2.1513    3.6063 C   0  0  0  0  0  0  0  0  0  0  0  0
   -3.1366    2.5396    4.5170 H   0  0  0  0  0  0  0  0  0  0  0  0
   -3.5353    2.8107    2.9960 H   0  0  0  0  0  0  0  0  0  0  0  0
   -3.9775    0.8958    3.6083 C   0  0  0  0  0  0  0  0  0  0  0  0
   -4.9046    1.1310    3.8245 H   0  0  0  0  0  0  0  0  0  0  0  0
   -3.6361    0.2680    4.2779 H   0  0  0  0  0  0  0  0  0  0  0  0
   -3.9451    0.4779    2.7225 H   0  0  0  0  0  0  0  0  0  0  0  0
   -0.8400    3.6653    3.1568 C   0  0  0  0  0  0  0  0  0  0  0  0
   -1.2840    4.1454    2.4144 H   0  0  0  0  0  0  0  0  0  0  0  0
   -1.1665    4.0652    4.0005 H   0  0  0  0  0  0  0  0  0  0  0  0
    0.6077    3.9228    3.0630 C   0  0  0  0  0  0  0  0  0  0  0  0
    0.7651    4.8892    3.0171 H   0  0  0  0  0  0  0  0  0  0  0  0
    0.9632    3.4954    2.2556 H   0  0  0  0  0  0  0  0  0  0  0  0
    1.0564    3.5545    3.8531 H   0  0  0  0  0  0  0  0  0  0  0  0
   -1.5005    1.4201    1.3641 C   0  0  0  0  0  0  0  0  0  0  0  0
   -0.5901    1.4571    0.9757 H   0  0  0  0  0  0  0  0  0  0  0  0
   -1.7977    0.4769    1.3277 H   0  0  0  0  0  0  0  0  0  0  0  0
   -2.4263    2.2420    0.4764 C   0  0  0  0  0  0  0  0  0  0  0  0
   -2.3118    1.9688   -0.4592 H   0  0  0  0  0  0  0  0  0  0  0  0
   -2.2086    3.1926    0.5663 H   0  0  0  0  0  0  0  0  0  0  0  0
   -3.3560    2.0933    0.7461 H   0  0  0  0  0  0  0  0  0  0  0  0
    0.6072   -0.8367    6.2678 P   0  0  0  0  0  0  0  0  0  0  0  0
    1.6276    0.0928    7.4595 C   0  0  0  0  0  0  0  0  0  0  0  0
    1.0534    0.7597    7.9148 H   0  0  0  0  0  0  0  0  0  0  0  0
    1.9625   -0.5349    8.1482 H   0  0  0  0  0  0  0  0  0  0  0  0
    2.8019    0.8071    6.8473 C   0  0  0  0  0  0  0  0  0  0  0  0
    3.2997    1.2787    7.5475 H   0  0  0  0  0  0  0  0  0  0  0  0
    2.4811    1.4528    6.1834 H   0  0  0  0  0  0  0  0  0  0  0  0
    3.3892    0.1551    6.4111 H   0  0  0  0  0  0  0  0  0  0  0  0
   -0.9244   -1.3136    7.2835 C   0  0  0  0  0  0  0  0  0  0  0  0
   -1.4021   -0.4843    7.5360 H   0  0  0  0  0  0  0  0  0  0  0  0
   -1.5302   -1.8422    6.7057 H   0  0  0  0  0  0  0  0  0  0  0  0
   -0.6516   -2.0954    8.5232 C   0  0  0  0  0  0  0  0  0  0  0  0
   -1.4801   -2.1924    9.0360 H   0  0  0  0  0  0  0  0  0  0  0  0
    0.0161   -1.6259    9.0647 H   0  0  0  0  0  0  0  0  0  0  0  0
   -0.3113   -2.9816    8.2803 H   0  0  0  0  0  0  0  0  0  0  0  0
    1.4775   -2.3866    5.9691 C   0  0  0  0  0  0  0  0  0  0  0  0
    2.3577   -2.1671    5.5693 H   0  0  0  0  0  0  0  0  0  0  0  0
    1.6536   -2.8086    6.8473 H   0  0  0  0  0  0  0  0  0  0  0  0
    0.8430   -3.3773    5.1235 C   0  0  0  0  0  0  0  0  0  0  0  0
   -0.0226   -3.6294    5.5081 H   0  0  0  0  0  0  0  0  0  0  0  0
    1.4160   -4.1707    5.0623 H   0  0  0  0  0  0  0  0  0  0  0  0
    0.7068   -3.0038    4.2281 H   0  0  0  0  0  0  0  0  0  0  0  0
  1  2  1  0  0  0  0
  3  1  1  0  0  0  0
  4  3  1  0  0  0  0
  5  3  1  0  0  0  0
  6  4  1  0  0  0  0
  7  5  1  0  0  0  0
  8  7  4  0  0  0  0
  9  8  1  0  0  0  0
 10  8  4  0  0  0  0
 11 10  1  0  0  0  0
 12 10  4  0  0  0  0
 13 12  1  0  0  0  0
 14  6  4  0  0  0  0
 15 14  1  0  0  0  0
 16  1  1  0  0  0  0
 17 16  1  0  0  0  0
 18 16  1  0  0  0  0
 19 17  1  0  0  0  0
 20 18  1  0  0  0  0
 21 20  4  0  0  0  0
 22 21  1  0  0  0  0
 23 21  4  0  0  0  0
 24 23  1  0  0  0  0
 25 23  4  0  0  0  0
 26 25  1  0  0  0  0
 27 19  4  0  0  0  0
 28 27  1  0  0  0  0
 29  1  1  0  0  0  0
 30 29  1  0  0  0  0
 31 30  1  0  0  0  0
 32 30  1  0  0  0  0
 33 30  1  0  0  0  0
 34 33  1  0  0  0  0
 35 33  1  0  0  0  0
 36 33  1  0  0  0  0
 37 29  1  0  0  0  0
 38 37  1  0  0  0  0
 39 37  1  0  0  0  0
 40 37  1  0  0  0  0
 41 40  1  0  0  0  0
 42 40  1  0  0  0  0
 43 40  1  0  0  0  0
 44 29  1  0  0  0  0
 45 44  1  0  0  0  0
 46 44  1  0  0  0  0
 47 44  1  0  0  0  0
 48 47  1  0  0  0  0
 49 47  1  0  0  0  0
 50 47  1  0  0  0  0
 51  1  1  0  0  0  0
 52 51  1  0  0  0  0
 53 52  1  0  0  0  0
 54 52  1  0  0  0  0
 55 52  1  0  0  0  0
 56 55  1  0  0  0  0
 57 55  1  0  0  0  0
 58 55  1  0  0  0  0
 59 51  1  0  0  0  0
 60 59  1  0  0  0  0
 61 59  1  0  0  0  0
 62 59  1  0  0  0  0
 63 62  1  0  0  0  0
 64 62  1  0  0  0  0
 65 62  1  0  0  0  0
 66 51  1  0  0  0  0
 67 66  1  0  0  0  0
 68 66  1  0  0  0  0
 69 66  1  0  0  0  0
 70 69  1  0  0  0  0
 71 69  1  0  0  0  0
 72 69  1  0  0  0  0
  6  7  4  0  0  0  0
 12 14  4  0  0  0  0
 19 20  4  0  0  0  0
 25 27  4  0  0  0  0
M  END
$$$$
NITPAJ

From CSD data. Using bond type 'Any'. No disordered atoms. Largest molecule.
136143  0  0  0  0  0  0  0  0999 V2000
   -3.3465    8.1549    3.3459 P   0  0  0  0  0  0  0  0  0  0  0  0
   -3.7258    5.8193    1.2174 Si  0  0  0  0  0  0  0  0  0  0  0  0
   -3.5169    7.2429    5.0312 B   0  0  0  0  0  0  0  0  0  0  0  0
   -4.3166    6.5517    4.8824 H   0  0  0  0  0  0  0  0  0  0  0  0
   -2.5960    6.7288    5.1725 H   0  0  0  0  0  0  0  0  0  0  0  0
   -3.6919    7.9778    5.7781 H   0  0  0  0  0  0  0  0  0  0  0  0
   -1.4464    6.0602    3.4013 Li  0  0  0  0  0  0  0  0  0  0  0  0
    0.3402    6.7077    3.3861 O   0  0  0  0  0  0  0  0  0  0  0  0
   -1.2901    4.2781    4.1178 O   0  0  0  0  0  0  0  0  0  0  0  0
   -2.7894    7.1512    2.0526 C   0  0  0  0  0  0  0  0  0  0  0  0
   -2.2668    7.6858    1.3890 H   0  0  0  0  0  0  0  0  0  0  0  0
   -2.4687    4.5653    0.5109 C   0  0  0  0  0  0  0  0  0  0  0  0
   -1.9402    4.1810    1.2553 H   0  0  0  0  0  0  0  0  0  0  0  0
   -2.9591    3.8249    0.0732 H   0  0  0  0  0  0  0  0  0  0  0  0
   -4.5660    4.6530    2.3907 C   0  0  0  0  0  0  0  0  0  0  0  0
   -3.8935    4.2106    2.9496 H   0  0  0  0  0  0  0  0  0  0  0  0
   -5.0626    3.9784    1.8823 H   0  0  0  0  0  0  0  0  0  0  0  0
   -5.1868    5.1540    2.9610 H   0  0  0  0  0  0  0  0  0  0  0  0
   -5.0178    6.3835    0.0076 C   0  0  0  0  0  0  0  0  0  0  0  0
   -5.4186    5.6026   -0.4289 H   0  0  0  0  0  0  0  0  0  0  0  0
   -4.6038    6.9594   -0.6674 H   0  0  0  0  0  0  0  0  0  0  0  0
   -5.7139    6.8847    0.4832 H   0  0  0  0  0  0  0  0  0  0  0  0
   -4.8611    9.1255    2.9900 C   0  0  0  0  0  0  0  0  0  0  0  0
   -5.1617    9.5166    1.6893 C   0  0  0  0  0  0  0  0  0  0  0  0
   -4.5774    9.2697    0.9815 H   0  0  0  0  0  0  0  0  0  0  0  0
   -6.2970   10.2570    1.4079 C   0  0  0  0  0  0  0  0  0  0  0  0
   -6.4772   10.5332    0.5185 H   0  0  0  0  0  0  0  0  0  0  0  0
   -7.1664   10.5918    2.4311 C   0  0  0  0  0  0  0  0  0  0  0  0
   -7.9478   11.0976    2.2431 H   0  0  0  0  0  0  0  0  0  0  0  0
   -6.8961   10.1891    3.7217 C   0  0  0  0  0  0  0  0  0  0  0  0
   -7.5014   10.4115    4.4194 H   0  0  0  0  0  0  0  0  0  0  0  0
   -5.7527    9.4658    4.0106 C   0  0  0  0  0  0  0  0  0  0  0  0
   -5.5733    9.1986    4.9038 H   0  0  0  0  0  0  0  0  0  0  0  0
   -2.0916    9.4800    3.5199 C   0  0  0  0  0  0  0  0  0  0  0  0
   -1.9069   10.4325    2.5245 C   0  0  0  0  0  0  0  0  0  0  0  0
   -2.4578   10.4121    1.7498 H   0  0  0  0  0  0  0  0  0  0  0  0
   -0.9377   11.4092    2.6393 C   0  0  0  0  0  0  0  0  0  0  0  0
   -0.8214   12.0490    1.9479 H   0  0  0  0  0  0  0  0  0  0  0  0
   -0.1405   11.4521    3.7633 C   0  0  0  0  0  0  0  0  0  0  0  0
    0.5195   12.1297    3.8529 H   0  0  0  0  0  0  0  0  0  0  0  0
   -0.3044   10.5114    4.7537 C   0  0  0  0  0  0  0  0  0  0  0  0
    0.2558   10.5304    5.5207 H   0  0  0  0  0  0  0  0  0  0  0  0
   -1.2818    9.5384    4.6402 C   0  0  0  0  0  0  0  0  0  0  0  0
   -1.3969    8.9032    5.3378 H   0  0  0  0  0  0  0  0  0  0  0  0
    1.2794    6.6369    4.4232 C   0  0  0  0  0  0  0  0  0  0  0  0
    0.9990    5.9608    5.0905 H   0  0  0  0  0  0  0  0  0  0  0  0
    1.3519    7.5130    4.8773 H   0  0  0  0  0  0  0  0  0  0  0  0
    2.5596    6.2662    3.8466 C   0  0  0  0  0  0  0  0  0  0  0  0
    2.6941    5.2852    3.8277 H   0  0  0  0  0  0  0  0  0  0  0  0
    3.3202    6.7020    4.3071 H   0  0  0  0  0  0  0  0  0  0  0  0
    2.3025    6.8794    2.3731 C   0  0  0  0  0  0  0  0  0  0  0  0
    2.9757    7.5756    2.1662 H   0  0  0  0  0  0  0  0  0  0  0  0
    2.3637    6.1676    1.6868 H   0  0  0  0  0  0  0  0  0  0  0  0
    0.9005    7.4834    2.3895 C   0  0  0  0  0  0  0  0  0  0  0  0
    0.9141    8.4429    2.6304 H   0  0  0  0  0  0  0  0  0  0  0  0
    0.4361    7.3637    1.5240 H   0  0  0  0  0  0  0  0  0  0  0  0
   -1.9740    3.6922    5.2369 C   0  0  0  0  0  0  0  0  0  0  0  0
   -2.6827    3.0734    4.9303 H   0  0  0  0  0  0  0  0  0  0  0  0
   -2.3842    4.3935    5.8033 H   0  0  0  0  0  0  0  0  0  0  0  0
   -0.9215    2.9578    5.9863 C   0  0  0  0  0  0  0  0  0  0  0  0
   -1.2743    2.0964    6.3206 H   0  0  0  0  0  0  0  0  0  0  0  0
   -0.6109    3.4940    6.7584 H   0  0  0  0  0  0  0  0  0  0  0  0
    0.1983    2.7248    5.0312 C   0  0  0  0  0  0  0  0  0  0  0  0
    0.3808    1.7571    4.9303 H   0  0  0  0  0  0  0  0  0  0  0  0
    1.0234    3.1774    5.3378 H   0  0  0  0  0  0  0  0  0  0  0  0
   -0.2877    3.3161    3.7368 C   0  0  0  0  0  0  0  0  0  0  0  0
    0.4536    3.7574    3.2524 H   0  0  0  0  0  0  0  0  0  0  0  0
   -0.6781    2.6156    3.1565 H   0  0  0  0  0  0  0  0  0  0  0  0
   -0.6328    1.6245   -3.3459 P   0  0  0  0  0  0  0  0  0  0  0  0
   -0.2535    3.9601   -1.2174 Si  0  0  0  0  0  0  0  0  0  0  0  0
   -0.4625    2.5365   -5.0312 B   0  0  0  0  0  0  0  0  0  0  0  0
    0.3373    3.2277   -4.8824 H   0  0  0  0  0  0  0  0  0  0  0  0
   -1.3834    3.0506   -5.1725 H   0  0  0  0  0  0  0  0  0  0  0  0
   -0.2874    1.8016   -5.7781 H   0  0  0  0  0  0  0  0  0  0  0  0
   -1.1899    2.6281   -2.0526 C   0  0  0  0  0  0  0  0  0  0  0  0
   -1.7125    2.0936   -1.3890 H   0  0  0  0  0  0  0  0  0  0  0  0
   -1.5107    5.2140   -0.5109 C   0  0  0  0  0  0  0  0  0  0  0  0
   -2.0391    5.5984   -1.2553 H   0  0  0  0  0  0  0  0  0  0  0  0
   -1.0202    5.9545   -0.0732 H   0  0  0  0  0  0  0  0  0  0  0  0
    0.5866    5.1264   -2.3907 C   0  0  0  0  0  0  0  0  0  0  0  0
   -0.0859    5.5688   -2.9496 H   0  0  0  0  0  0  0  0  0  0  0  0
    1.0833    5.8010   -1.8823 H   0  0  0  0  0  0  0  0  0  0  0  0
    1.2074    4.6254   -2.9610 H   0  0  0  0  0  0  0  0  0  0  0  0
    1.0385    3.3959   -0.0076 C   0  0  0  0  0  0  0  0  0  0  0  0
    1.4392    4.1767    0.4289 H   0  0  0  0  0  0  0  0  0  0  0  0
    0.6244    2.8200    0.6674 H   0  0  0  0  0  0  0  0  0  0  0  0
    1.7346    2.8947   -0.4832 H   0  0  0  0  0  0  0  0  0  0  0  0
    0.8818    0.6539   -2.9900 C   0  0  0  0  0  0  0  0  0  0  0  0
    1.1824    0.2628   -1.6893 C   0  0  0  0  0  0  0  0  0  0  0  0
    0.5980    0.5096   -0.9815 H   0  0  0  0  0  0  0  0  0  0  0  0
    2.3176   -0.4776   -1.4079 C   0  0  0  0  0  0  0  0  0  0  0  0
    2.4978   -0.7538   -0.5185 H   0  0  0  0  0  0  0  0  0  0  0  0
    3.1871   -0.8125   -2.4311 C   0  0  0  0  0  0  0  0  0  0  0  0
    3.9685   -1.3182   -2.2431 H   0  0  0  0  0  0  0  0  0  0  0  0
    2.9168   -0.4097   -3.7217 C   0  0  0  0  0  0  0  0  0  0  0  0
    3.5221   -0.6321   -4.4194 H   0  0  0  0  0  0  0  0  0  0  0  0
    1.7734    0.3136   -4.0106 C   0  0  0  0  0  0  0  0  0  0  0  0
    1.5940    0.5808   -4.9038 H   0  0  0  0  0  0  0  0  0  0  0  0
   -1.8878    0.2994   -3.5199 C   0  0  0  0  0  0  0  0  0  0  0  0
   -2.0725   -0.6531   -2.5245 C   0  0  0  0  0  0  0  0  0  0  0  0
   -1.5216   -0.6327   -1.7498 H   0  0  0  0  0  0  0  0  0  0  0  0
   -3.0417   -1.6298   -2.6393 C   0  0  0  0  0  0  0  0  0  0  0  0
   -3.1579   -2.2696   -1.9479 H   0  0  0  0  0  0  0  0  0  0  0  0
   -3.8388   -1.6728   -3.7633 C   0  0  0  0  0  0  0  0  0  0  0  0
   -4.4989   -2.3503   -3.8529 H   0  0  0  0  0  0  0  0  0  0  0  0
   -3.6749   -0.7321   -4.7537 C   0  0  0  0  0  0  0  0  0  0  0  0
   -4.2352   -0.7510   -5.5207 H   0  0  0  0  0  0  0  0  0  0  0  0
   -2.6976    0.2410   -4.6402 C   0  0  0  0  0  0  0  0  0  0  0  0
   -2.5825    0.8762   -5.3378 H   0  0  0  0  0  0  0  0  0  0  0  0
   -2.5330    3.7191   -3.4013 Li  0  0  0  0  0  0  0  0  0  0  0  0
   -4.3195    3.0717   -3.3861 O   0  0  0  0  0  0  0  0  0  0  0  0
   -2.6892    5.5013   -4.1178 O   0  0  0  0  0  0  0  0  0  0  0  0
   -5.2587    3.1425   -4.4232 C   0  0  0  0  0  0  0  0  0  0  0  0
   -4.9783    3.8186   -5.0905 H   0  0  0  0  0  0  0  0  0  0  0  0
   -5.3312    2.2664   -4.8773 H   0  0  0  0  0  0  0  0  0  0  0  0
   -6.5390    3.5131   -3.8466 C   0  0  0  0  0  0  0  0  0  0  0  0
   -6.6735    4.4942   -3.8277 H   0  0  0  0  0  0  0  0  0  0  0  0
   -7.2995    3.0774   -4.3071 H   0  0  0  0  0  0  0  0  0  0  0  0
   -6.2819    2.9000   -2.3731 C   0  0  0  0  0  0  0  0  0  0  0  0
   -6.9550    2.2038   -2.1662 H   0  0  0  0  0  0  0  0  0  0  0  0
   -6.3430    3.6117   -1.6868 H   0  0  0  0  0  0  0  0  0  0  0  0
   -4.8798    2.2960   -2.3895 C   0  0  0  0  0  0  0  0  0  0  0  0
   -4.8935    1.3365   -2.6304 H   0  0  0  0  0  0  0  0  0  0  0  0
   -4.4155    2.4157   -1.5240 H   0  0  0  0  0  0  0  0  0  0  0  0
   -2.0054    6.0871   -5.2369 C   0  0  0  0  0  0  0  0  0  0  0  0
   -1.2967    6.7060   -4.9303 H   0  0  0  0  0  0  0  0  0  0  0  0
   -1.5951    5.3859   -5.8033 H   0  0  0  0  0  0  0  0  0  0  0  0
   -3.0578    6.8216   -5.9863 C   0  0  0  0  0  0  0  0  0  0  0  0
   -2.7050    7.6830   -6.3206 H   0  0  0  0  0  0  0  0  0  0  0  0
   -3.3685    6.2853   -6.7584 H   0  0  0  0  0  0  0  0  0  0  0  0
   -4.1776    7.0546   -5.0312 C   0  0  0  0  0  0  0  0  0  0  0  0
   -4.3602    8.0223   -4.9303 H   0  0  0  0  0  0  0  0  0  0  0  0
   -5.0028    6.6020   -5.3378 H   0  0  0  0  0  0  0  0  0  0  0  0
   -3.6916    6.4633   -3.7368 C   0  0  0  0  0  0  0  0  0  0  0  0
   -4.4329    6.0220   -3.2524 H   0  0  0  0  0  0  0  0  0  0  0  0
   -3.3013    7.1638   -3.1565 H   0  0  0  0  0  0  0  0  0  0  0  0
  1  3  1  0  0  0  0
  2 10  1  0  0  0  0
  3  4  1  0  0  0  0
  5  3  1  0  0  0  0
  6  3  1  0  0  0  0
  7  8  1  0  0  0  0
  8 45  1  0  0  0  0
  9  7  1  0  0  0  0
 10  1  1  0  0  0  0
 11 10  1  0  0  0  0
 12  2  1  0  0  0  0
 13 12  1  0  0  0  0
 14 12  1  0  0  0  0
 15  2  1  0  0  0  0
 16 15  1  0  0  0  0
 17 15  1  0  0  0  0
 18 15  1  0  0  0  0
 19  2  1  0  0  0  0
 20 19  1  0  0  0  0
 21 19  1  0  0  0  0
 22 19  1  0  0  0  0
 23  1  1  0  0  0  0
 24 23  4  0  0  0  0
 25 24  1  0  0  0  0
 26 24  4  0  0  0  0
 27 26  1  0  0  0  0
 28 26  4  0  0  0  0
 29 28  1  0  0  0  0
 30 28  4  0  0  0  0
 31 30  1  0  0  0  0
 32 23  4  0  0  0  0
 33 32  1  0  0  0  0
 34  1  1  0  0  0  0
 35 34  4  0  0  0  0
 36 35  1  0  0  0  0
 37 35  4  0  0  0  0
 38 37  1  0  0  0  0
 39 37  4  0  0  0  0
 40 39  1  0  0  0  0
 41 39  4  0  0  0  0
 42 41  1  0  0  0  0
 43 34  4  0  0  0  0
 44 43  1  0  0  0  0
 45 46  1  0  0  0  0
 47 45  1  0  0  0  0
 48 45  1  0  0  0  0
 49 48  1  0  0  0  0
 50 48  1  0  0  0  0
 51 48  1  0  0  0  0
 52 51  1  0  0  0  0
 53 51  1  0  0  0  0
 54  8  1  0  0  0  0
 55 54  1  0  0  0  0
 56 54  1  0  0  0  0
 57  9  1  0  0  0  0
 58 57  1  0  0  0  0
 59 57  1  0  0  0  0
 60 57  1  0  0  0  0
 61 60  1  0  0  0  0
 62 60  1  0  0  0  0
 63 60  1  0  0  0  0
 64 63  1  0  0  0  0
 65 63  1  0  0  0  0
 66  9  1  0  0  0  0
 67 66  1  0  0  0  0
 68 66  1  0  0  0  0
 69 71  1  0  0  0  0
 70 75  1  0  0  0  0
 71 72  1  0  0  0  0
 73 71  1  0  0  0  0
 74 71  1  0  0  0  0
 75 69  1  0  0  0  0
 76 75  1  0  0  0  0
 77 12  1  0  0  0  0
 78 77  1  0  0  0  0
 79 77  1  0  0  0  0
 80 70  1  0  0  0  0
 81 80  1  0  0  0  0
 82 80  1  0  0  0  0
 83 80  1  0  0  0  0
 84 70  1  0  0  0  0
 85 84  1  0  0  0  0
 86 84  1  0  0  0  0
 87 84  1  0  0  0  0
 88 69  1  0  0  0  0
 89 88  4  0  0  0  0
 90 89  1  0  0  0  0
 91 89  4  0  0  0  0
 92 91  1  0  0  0  0
 93 91  4  0  0  0  0
 94 93  1  0  0  0  0
 95 93  4  0  0  0  0
 96 95  1  0  0  0  0
 97 88  4  0  0  0  0
 98 97  1  0  0  0  0
 99 69  1  0  0  0  0
100 99  4  0  0  0  0
101100  1  0  0  0  0
102100  4  0  0  0  0
103102  1  0  0  0  0
104102  4  0  0  0  0
105104  1  0  0  0  0
106104  4  0  0  0  0
107106  1  0  0  0  0
108 99  4  0  0  0  0
109108  1  0  0  0  0
110 75  1  0  0  0  0
111110  1  0  0  0  0
112110  1  0  0  0  0
113111  1  0  0  0  0
114113  1  0  0  0  0
115113  1  0  0  0  0
116113  1  0  0  0  0
117116  1  0  0  0  0
118116  1  0  0  0  0
119116  1  0  0  0  0
120119  1  0  0  0  0
121119  1  0  0  0  0
122111  1  0  0  0  0
123122  1  0  0  0  0
124122  1  0  0  0  0
125112  1  0  0  0  0
126125  1  0  0  0  0
127125  1  0  0  0  0
128125  1  0  0  0  0
129128  1  0  0  0  0
130128  1  0  0  0  0
131128  1  0  0  0  0
132131  1  0  0  0  0
133131  1  0  0  0  0
134112  1  0  0  0  0
135134  1  0  0  0  0
136134  1  0  0  0  0
  7 10  1  0  0  0  0
 30 32  4  0  0  0  0
 41 43  4  0  0  0  0
 51 54  1  0  0  0  0
 63 66  1  0  0  0  0
 70 77  1  0  0  0  0
 95 97  4  0  0  0  0
106108  4  0  0  0  0
119122  1  0  0  0  0
131134  1  0  0  0  0
M  END
$$$$
NIWRAP

From CSD data. Using bond type 'Any'. Matching problem. No disordered atoms. Largest molecule.
 83118  0  0  0  0  0  0  0  0999 V2000
    2.6076    4.5529    7.2353 Ru  0  0  0  0  0  0  0  0  0  0  0  0
    2.7973    6.8509    7.4689 P   0  0  0  0  0  0  0  0  0  0  0  0
    4.1848    7.0546    8.3926 O   0  0  0  0  0  0  0  0  0  0  0  0
    4.7642    5.8872    8.8791 C   0  0  0  0  0  0  0  0  0  0  0  0
    3.2824    7.9535    6.0783 C   0  0  0  0  0  0  0  0  0  0  0  0
    3.7082    8.7679    6.4723 H   0  0  0  0  0  0  0  0  0  0  0  0
    4.3236    7.2707    5.1908 C   0  0  0  0  0  0  0  0  0  0  0  0
    5.0794    6.9768    5.7410 H   0  0  0  0  0  0  0  0  0  0  0  0
    4.6398    7.9033    4.5125 H   0  0  0  0  0  0  0  0  0  0  0  0
    3.9188    6.4945    4.7503 H   0  0  0  0  0  0  0  0  0  0  0  0
    2.0846    8.4129    5.2504 C   0  0  0  0  0  0  0  0  0  0  0  0
    1.6148    7.6305    4.8933 H   0  0  0  0  0  0  0  0  0  0  0  0
    2.3956    8.9735    4.5091 H   0  0  0  0  0  0  0  0  0  0  0  0
    1.4747    8.9297    5.8172 H   0  0  0  0  0  0  0  0  0  0  0  0
    1.5729    7.8526    8.4141 C   0  0  0  0  0  0  0  0  0  0  0  0
    0.7772    7.9846    7.8229 H   0  0  0  0  0  0  0  0  0  0  0  0
    2.1085    9.2376    8.7699 C   0  0  0  0  0  0  0  0  0  0  0  0
    2.9315    9.1448    9.2935 H   0  0  0  0  0  0  0  0  0  0  0  0
    1.4386    9.7212    9.2970 H   0  0  0  0  0  0  0  0  0  0  0  0
    2.2987    9.7353    7.9475 H   0  0  0  0  0  0  0  0  0  0  0  0
    1.0900    7.1289    9.6707 C   0  0  0  0  0  0  0  0  0  0  0  0
    0.7018    6.2644    9.4209 H   0  0  0  0  0  0  0  0  0  0  0  0
    0.4115    7.6738   10.1212 H   0  0  0  0  0  0  0  0  0  0  0  0
    1.8473    6.9842   10.2757 H   0  0  0  0  0  0  0  0  0  0  0  0
    3.6513    4.5529    9.1066 B   0  0  0  0  0  0  0  0  0  0  0  0
    4.3436    4.5529    6.7414 H   0  0  0  0  0  0  0  0  0  0  0  0
    4.7971    4.5529    7.8139 B   0  0  0  0  0  0  0  0  0  0  0  0
    4.4213    5.4346   10.4809 B   0  0  0  0  0  0  0  0  0  0  0  0
    3.8738    6.0844   11.0909 H   0  0  0  0  0  0  0  0  0  0  0  0
    6.2838    5.4361    8.2229 B   0  0  0  0  0  0  0  0  0  0  0  0
    6.7407    6.0771    7.4821 H   0  0  0  0  0  0  0  0  0  0  0  0
    6.0552    5.9903    9.9241 B   0  0  0  0  0  0  0  0  0  0  0  0
    6.4042    6.9476   10.1836 H   0  0  0  0  0  0  0  0  0  0  0  0
    5.8873    4.5529   10.9591 B   0  0  0  0  0  0  0  0  0  0  0  0
    6.2421    4.5529   11.9546 H   0  0  0  0  0  0  0  0  0  0  0  0
    7.0332    4.5529    9.5654 B   0  0  0  0  0  0  0  0  0  0  0  0
    8.1119    4.5529    9.7059 H   0  0  0  0  0  0  0  0  0  0  0  0
    0.3155    4.9899    6.8690 B   0  0  0  0  0  0  0  0  0  0  0  0
    1.1027    4.5529    7.8416 H   0  0  0  0  0  0  0  0  0  0  0  0
   -0.4890    4.5529    7.1117 H   0  0  0  0  0  0  0  0  0  0  0  0
   -0.1630    5.9369    7.0495 H   0  0  0  0  0  0  0  0  0  0  0  0
    1.1103    4.8093    5.3237 B   0  0  0  0  0  0  0  0  0  0  0  0
    2.2821    4.5529    5.4280 H   0  0  0  0  0  0  0  0  0  0  0  0
    0.9205    5.4707    4.7028 H   0  0  0  0  0  0  0  0  0  0  0  0
   -0.2761    3.7406    5.7361 B   0  0  0  0  0  0  0  0  0  0  0  0
   -0.0767    2.6589    6.0380 H   0  0  0  0  0  0  0  0  0  0  0  0
   -1.1698    3.9883    5.2288 H   0  0  0  0  0  0  0  0  0  0  0  0
    2.7973    2.2548    7.4689 P   0  0  0  0  0  0  0  0  0  0  0  0
    4.1848    2.0511    8.3926 O   0  0  0  0  0  0  0  0  0  0  0  0
    4.7642    3.2185    8.8791 C   0  0  0  0  0  0  0  0  0  0  0  0
    3.2824    1.1522    6.0783 C   0  0  0  0  0  0  0  0  0  0  0  0
    3.7082    0.3378    6.4723 H   0  0  0  0  0  0  0  0  0  0  0  0
    4.3236    1.8350    5.1908 C   0  0  0  0  0  0  0  0  0  0  0  0
    5.0794    2.1289    5.7410 H   0  0  0  0  0  0  0  0  0  0  0  0
    4.6398    1.2024    4.5125 H   0  0  0  0  0  0  0  0  0  0  0  0
    3.9188    2.6112    4.7503 H   0  0  0  0  0  0  0  0  0  0  0  0
    2.0846    0.6928    5.2504 C   0  0  0  0  0  0  0  0  0  0  0  0
    1.6148    1.4752    4.8933 H   0  0  0  0  0  0  0  0  0  0  0  0
    2.3956    0.1322    4.5091 H   0  0  0  0  0  0  0  0  0  0  0  0
    1.4747    0.1760    5.8172 H   0  0  0  0  0  0  0  0  0  0  0  0
    1.5729    1.2531    8.4141 C   0  0  0  0  0  0  0  0  0  0  0  0
    0.7772    1.1211    7.8229 H   0  0  0  0  0  0  0  0  0  0  0  0
    2.1085   -0.1319    8.7699 C   0  0  0  0  0  0  0  0  0  0  0  0
    2.9315   -0.0391    9.2935 H   0  0  0  0  0  0  0  0  0  0  0  0
    1.4386   -0.6155    9.2970 H   0  0  0  0  0  0  0  0  0  0  0  0
    2.2987   -0.6296    7.9475 H   0  0  0  0  0  0  0  0  0  0  0  0
    1.0900    1.9768    9.6707 C   0  0  0  0  0  0  0  0  0  0  0  0
    0.7018    2.8413    9.4209 H   0  0  0  0  0  0  0  0  0  0  0  0
    0.4115    1.4319   10.1212 H   0  0  0  0  0  0  0  0  0  0  0  0
    1.8473    2.1215   10.2757 H   0  0  0  0  0  0  0  0  0  0  0  0
    4.4213    3.6711   10.4809 B   0  0  0  0  0  0  0  0  0  0  0  0
    3.8738    3.0213   11.0909 H   0  0  0  0  0  0  0  0  0  0  0  0
    6.2838    3.6696    8.2229 B   0  0  0  0  0  0  0  0  0  0  0  0
    6.7407    3.0286    7.4821 H   0  0  0  0  0  0  0  0  0  0  0  0
    6.0552    3.1154    9.9241 B   0  0  0  0  0  0  0  0  0  0  0  0
    6.4042    2.1581   10.1836 H   0  0  0  0  0  0  0  0  0  0  0  0
    0.3155    4.1158    6.8690 B   0  0  0  0  0  0  0  0  0  0  0  0
   -0.1630    3.1688    7.0495 H   0  0  0  0  0  0  0  0  0  0  0  0
    1.1103    4.2964    5.3237 B   0  0  0  0  0  0  0  0  0  0  0  0
    0.9205    3.6350    4.7028 H   0  0  0  0  0  0  0  0  0  0  0  0
   -0.2761    5.3651    5.7361 B   0  0  0  0  0  0  0  0  0  0  0  0
   -0.0767    6.4468    6.0380 H   0  0  0  0  0  0  0  0  0  0  0  0
   -1.1698    5.1174    5.2288 H   0  0  0  0  0  0  0  0  0  0  0  0
  1  2  1  0  0  0  0
  2  3  1  0  0  0  0
  3  4  1  0  0  0  0
  4 25  1  0  0  0  0
  5  2  1  0  0  0  0
  6  5  1  0  0  0  0
  7  5  1  0  0  0  0
  8  7  1  0  0  0  0
  9  7  1  0  0  0  0
 10  7  1  0  0  0  0
 11  5  1  0  0  0  0
 12 11  1  0  0  0  0
 13 11  1  0  0  0  0
 14 11  1  0  0  0  0
 15  2  1  0  0  0  0
 16 15  1  0  0  0  0
 17 15  1  0  0  0  0
 18 17  1  0  0  0  0
 19 17  1  0  0  0  0
 20 17  1  0  0  0  0
 21 15  1  0  0  0  0
 22 21  1  0  0  0  0
 23 21  1  0  0  0  0
 24 21  1  0  0  0  0
 25  1  1  0  0  0  0
 26  1  1  0  0  0  0
 27  4  1  0  0  0  0
 28  4  1  0  0  0  0
 29 28  1  0  0  0  0
 30  4  1  0  0  0  0
 31 30  1  0  0  0  0
 32  4  1  0  0  0  0
 33 32  1  0  0  0  0
 34 28  1  0  0  0  0
 35 34  1  0  0  0  0
 36 30  1  0  0  0  0
 37 36  1  0  0  0  0
 38 39  1  0  0  0  0
 39  1  1  0  0  0  0
 40 38  1  0  0  0  0
 41 38  1  0  0  0  0
 42 38  1  0  0  0  0
 43  1  1  0  0  0  0
 44 42  1  0  0  0  0
 45 42  1  0  0  0  0
 46 45  1  0  0  0  0
 47 45  1  0  0  0  0
 48  1  1  0  0  0  0
 49 48  1  0  0  0  0
 50 25  1  0  0  0  0
 51 48  1  0  0  0  0
 52 51  1  0  0  0  0
 53 51  1  0  0  0  0
 54 53  1  0  0  0  0
 55 53  1  0  0  0  0
 56 53  1  0  0  0  0
 57 51  1  0  0  0  0
 58 57  1  0  0  0  0
 59 57  1  0  0  0  0
 60 57  1  0  0  0  0
 61 48  1  0  0  0  0
 62 61  1  0  0  0  0
 63 61  1  0  0  0  0
 64 63  1  0  0  0  0
 65 63  1  0  0  0  0
 66 63  1  0  0  0  0
 67 61  1  0  0  0  0
 68 67  1  0  0  0  0
 69 67  1  0  0  0  0
 70 67  1  0  0  0  0
 71 25  1  0  0  0  0
 72 71  1  0  0  0  0
 73 27  1  0  0  0  0
 74 73  1  0  0  0  0
 75 34  1  0  0  0  0
 76 75  1  0  0  0  0
 77 38  1  0  0  0  0
 78 45  1  0  0  0  0
 79 38  1  0  0  0  0
 80 42  1  0  0  0  0
 81 41  1  0  0  0  0
 82 81  1  0  0  0  0
 83 47  1  0  0  0  0
 25 27  1  0  0  0  0
 25 28  1  0  0  0  0
 26 27  1  0  0  0  0
 27 30  1  0  0  0  0
 27 50  1  0  0  0  0
 28 32  1  0  0  0  0
 28 71  1  0  0  0  0
 30 32  1  0  0  0  0
 30 73  1  0  0  0  0
 32 34  1  0  0  0  0
 32 36  1  0  0  0  0
 34 36  1  0  0  0  0
 34 71  1  0  0  0  0
 36 73  1  0  0  0  0
 36 75  1  0  0  0  0
 39 77  1  0  0  0  0
 40 77  1  0  0  0  0
 42 43  1  0  0  0  0
 42 77  1  0  0  0  0
 42 81  1  0  0  0  0
 43 79  1  0  0  0  0
 44 79  1  0  0  0  0
 45 79  1  0  0  0  0
 45 81  1  0  0  0  0
 49 50  1  0  0  0  0
 50 71  1  0  0  0  0
 50 73  1  0  0  0  0
 50 75  1  0  0  0  0
 71 75  1  0  0  0  0
 73 75  1  0  0  0  0
 77 78  1  0  0  0  0
 77 79  1  0  0  0  0
 79 80  1  0  0  0  0
 79 81  1  0  0  0  0
 81 83  1  0  0  0  0
M  END
$$$$
NOJHIG

From CSD data. Using bond type 'Any'. No disordered atoms. Largest molecule.
118140  0  0  0  0  0  0  0  0999 V2000
    5.6966    3.6982    5.8140 K   0  0  0  0  0  0  0  0  0  0  0  0
    3.2288    2.8082    8.3538 P   0  0  0  0  0  0  0  0  0  0  0  0
    6.9856    2.0243    4.0754 O   0  0  0  0  0  0  0  0  0  0  0  0
    4.1254    1.5783    7.5585 C   0  0  0  0  0  0  0  0  0  0  0  0
    3.9432    1.5370    6.5771 H   0  0  0  0  0  0  0  0  0  0  0  0
    4.8648    0.4825    8.1290 C   0  0  0  0  0  0  0  0  0  0  0  0
    5.0042    0.2497    9.5165 C   0  0  0  0  0  0  0  0  0  0  0  0
    4.5754    0.8348   10.1299 H   0  0  0  0  0  0  0  0  0  0  0  0
    5.7523   -0.8132   10.0061 C   0  0  0  0  0  0  0  0  0  0  0  0
    5.8361   -0.9326   10.9450 H   0  0  0  0  0  0  0  0  0  0  0  0
    6.3779   -1.7020    9.1484 C   0  0  0  0  0  0  0  0  0  0  0  0
    6.8896   -2.4263    9.4880 H   0  0  0  0  0  0  0  0  0  0  0  0
    6.2424   -1.5114    7.7891 C   0  0  0  0  0  0  0  0  0  0  0  0
    6.6562   -2.1203    7.1888 H   0  0  0  0  0  0  0  0  0  0  0  0
    5.5152   -0.4507    7.2843 C   0  0  0  0  0  0  0  0  0  0  0  0
    5.4497   -0.3437    6.3422 H   0  0  0  0  0  0  0  0  0  0  0  0
    4.2470    3.7719    9.5783 C   0  0  0  0  0  0  0  0  0  0  0  0
    3.7005    4.5141    9.9399 H   0  0  0  0  0  0  0  0  0  0  0  0
    4.4895    3.1798   10.3334 H   0  0  0  0  0  0  0  0  0  0  0  0
    5.4986    4.3345    8.9765 C   0  0  0  0  0  0  0  0  0  0  0  0
    6.6634    3.5666    8.9134 C   0  0  0  0  0  0  0  0  0  0  0  0
    6.6640    2.6853    9.2676 H   0  0  0  0  0  0  0  0  0  0  0  0
    7.8196    4.0747    8.3398 C   0  0  0  0  0  0  0  0  0  0  0  0
    8.6090    3.5457    8.3164 H   0  0  0  0  0  0  0  0  0  0  0  0
    7.8272    5.3492    7.8017 C   0  0  0  0  0  0  0  0  0  0  0  0
    8.6152    5.6908    7.3956 H   0  0  0  0  0  0  0  0  0  0  0  0
    6.6813    6.1237    7.8584 C   0  0  0  0  0  0  0  0  0  0  0  0
    6.6832    7.0002    7.4934 H   0  0  0  0  0  0  0  0  0  0  0  0
    5.5316    5.6233    8.4460 C   0  0  0  0  0  0  0  0  0  0  0  0
    4.7538    6.1664    8.4885 H   0  0  0  0  0  0  0  0  0  0  0  0
    1.8767    2.1977    9.4348 C   0  0  0  0  0  0  0  0  0  0  0  0
    1.3125    0.9696    9.1465 C   0  0  0  0  0  0  0  0  0  0  0  0
    1.7012    0.4235    8.4727 H   0  0  0  0  0  0  0  0  0  0  0  0
    0.1904    0.5223    9.8241 C   0  0  0  0  0  0  0  0  0  0  0  0
   -0.1902   -0.3198    9.6049 H   0  0  0  0  0  0  0  0  0  0  0  0
   -0.3731    1.2914   10.8090 C   0  0  0  0  0  0  0  0  0  0  0  0
   -1.1451    0.9855   11.2688 H   0  0  0  0  0  0  0  0  0  0  0  0
    0.1855    2.5112   11.1300 C   0  0  0  0  0  0  0  0  0  0  0  0
   -0.1951    3.0404   11.8209 H   0  0  0  0  0  0  0  0  0  0  0  0
    1.2984    2.9630   10.4463 C   0  0  0  0  0  0  0  0  0  0  0  0
    1.6746    3.8065   10.6685 H   0  0  0  0  0  0  0  0  0  0  0  0
    7.8390    1.0228    4.6217 C   0  0  0  0  0  0  0  0  0  0  0  0
    8.6122    0.8764    4.0216 H   0  0  0  0  0  0  0  0  0  0  0  0
    7.3438    0.1692    4.7041 H   0  0  0  0  0  0  0  0  0  0  0  0
    8.3216    1.4665    5.9758 C   0  0  0  0  0  0  0  0  0  0  0  0
    7.5656    1.4928    6.5996 H   0  0  0  0  0  0  0  0  0  0  0  0
    8.7174    2.3594    5.9048 H   0  0  0  0  0  0  0  0  0  0  0  0
    8.9943    0.8360    6.3051 H   0  0  0  0  0  0  0  0  0  0  0  0
    6.5315    1.6608    2.7658 C   0  0  0  0  0  0  0  0  0  0  0  0
    5.9108    0.8927    2.8310 H   0  0  0  0  0  0  0  0  0  0  0  0
    7.3038    1.3864    2.2104 H   0  0  0  0  0  0  0  0  0  0  0  0
    5.8386    2.8110    2.1238 C   0  0  0  0  0  0  0  0  0  0  0  0
    6.4536    3.5720    2.0642 H   0  0  0  0  0  0  0  0  0  0  0  0
    5.0585    3.0636    2.6601 H   0  0  0  0  0  0  0  0  0  0  0  0
    5.5463    2.5565    1.2232 H   0  0  0  0  0  0  0  0  0  0  0  0
    2.4915    4.0292    7.0577 B   0  0  0  0  0  0  0  0  0  0  0  0
    1.7183    4.6277    7.5081 H   0  0  0  0  0  0  0  0  0  0  0  0
    3.3107    4.6956    6.7042 H   0  0  0  0  0  0  0  0  0  0  0  0
    1.9979    3.4320    6.2848 H   0  0  0  0  0  0  0  0  0  0  0  0
    1.8954    6.5537    5.4290 K   0  0  0  0  0  0  0  0  0  0  0  0
    4.3632    7.4437    2.8892 P   0  0  0  0  0  0  0  0  0  0  0  0
    0.6065    8.2276    7.1676 O   0  0  0  0  0  0  0  0  0  0  0  0
    3.4667    8.6736    3.6844 C   0  0  0  0  0  0  0  0  0  0  0  0
    3.6489    8.7149    4.6658 H   0  0  0  0  0  0  0  0  0  0  0  0
    2.7272    9.7694    3.1140 C   0  0  0  0  0  0  0  0  0  0  0  0
    2.5879   10.0021    1.7265 C   0  0  0  0  0  0  0  0  0  0  0  0
    3.0167    9.4170    1.1131 H   0  0  0  0  0  0  0  0  0  0  0  0
    1.8397   11.0651    1.2368 C   0  0  0  0  0  0  0  0  0  0  0  0
    1.7560   11.1845    0.2979 H   0  0  0  0  0  0  0  0  0  0  0  0
    1.2142   11.9539    2.0946 C   0  0  0  0  0  0  0  0  0  0  0  0
    0.7024   12.6782    1.7550 H   0  0  0  0  0  0  0  0  0  0  0  0
    1.3497   11.7633    3.4538 C   0  0  0  0  0  0  0  0  0  0  0  0
    0.9359   12.3722    4.0542 H   0  0  0  0  0  0  0  0  0  0  0  0
    2.0769   10.7026    3.9587 C   0  0  0  0  0  0  0  0  0  0  0  0
    2.1424   10.5955    4.9008 H   0  0  0  0  0  0  0  0  0  0  0  0
    3.3450    6.4800    1.6646 C   0  0  0  0  0  0  0  0  0  0  0  0
    3.8916    5.7378    1.3031 H   0  0  0  0  0  0  0  0  0  0  0  0
    3.1026    7.0721    0.9096 H   0  0  0  0  0  0  0  0  0  0  0  0
    2.0934    5.9174    2.2665 C   0  0  0  0  0  0  0  0  0  0  0  0
    0.9287    6.6853    2.3295 C   0  0  0  0  0  0  0  0  0  0  0  0
    0.9280    7.5666    1.9754 H   0  0  0  0  0  0  0  0  0  0  0  0
   -0.2276    6.1772    2.9032 C   0  0  0  0  0  0  0  0  0  0  0  0
   -1.0170    6.7062    2.9265 H   0  0  0  0  0  0  0  0  0  0  0  0
   -0.2352    4.9026    3.4413 C   0  0  0  0  0  0  0  0  0  0  0  0
   -1.0231    4.5611    3.8473 H   0  0  0  0  0  0  0  0  0  0  0  0
    0.9108    4.1282    3.3846 C   0  0  0  0  0  0  0  0  0  0  0  0
    0.9089    3.2517    3.7495 H   0  0  0  0  0  0  0  0  0  0  0  0
    2.0604    4.6286    2.7970 C   0  0  0  0  0  0  0  0  0  0  0  0
    2.8383    4.0855    2.7545 H   0  0  0  0  0  0  0  0  0  0  0  0
    5.7154    8.0542    1.8082 C   0  0  0  0  0  0  0  0  0  0  0  0
    6.2796    9.2823    2.0965 C   0  0  0  0  0  0  0  0  0  0  0  0
    5.8908    9.8284    2.7703 H   0  0  0  0  0  0  0  0  0  0  0  0
    7.4017    9.7296    1.4189 C   0  0  0  0  0  0  0  0  0  0  0  0
    7.7823   10.5717    1.6381 H   0  0  0  0  0  0  0  0  0  0  0  0
    7.9652    8.9604    0.4340 C   0  0  0  0  0  0  0  0  0  0  0  0
    8.7371    9.2664   -0.0259 H   0  0  0  0  0  0  0  0  0  0  0  0
    7.4066    7.7407    0.1130 C   0  0  0  0  0  0  0  0  0  0  0  0
    7.7872    7.2115   -0.5779 H   0  0  0  0  0  0  0  0  0  0  0  0
    6.2936    7.2889    0.7967 C   0  0  0  0  0  0  0  0  0  0  0  0
    5.9174    6.4454    0.5745 H   0  0  0  0  0  0  0  0  0  0  0  0
   -0.2469    9.2291    6.6213 C   0  0  0  0  0  0  0  0  0  0  0  0
   -1.0201    9.3754    7.2214 H   0  0  0  0  0  0  0  0  0  0  0  0
    0.2482   10.0827    6.5389 H   0  0  0  0  0  0  0  0  0  0  0  0
   -0.7295    8.7853    5.2672 C   0  0  0  0  0  0  0  0  0  0  0  0
    0.0265    8.7591    4.6434 H   0  0  0  0  0  0  0  0  0  0  0  0
   -1.1253    7.8925    5.3382 H   0  0  0  0  0  0  0  0  0  0  0  0
   -1.4022    9.4158    4.9379 H   0  0  0  0  0  0  0  0  0  0  0  0
    1.0606    8.5911    8.4772 C   0  0  0  0  0  0  0  0  0  0  0  0
    1.6813    9.3591    8.4120 H   0  0  0  0  0  0  0  0  0  0  0  0
    0.2883    8.8654    9.0326 H   0  0  0  0  0  0  0  0  0  0  0  0
    1.7535    7.4408    9.1192 C   0  0  0  0  0  0  0  0  0  0  0  0
    1.1385    6.6798    9.1788 H   0  0  0  0  0  0  0  0  0  0  0  0
    2.5335    7.1883    8.5829 H   0  0  0  0  0  0  0  0  0  0  0  0
    2.0457    7.6954   10.0197 H   0  0  0  0  0  0  0  0  0  0  0  0
    5.1006    6.2227    4.1853 B   0  0  0  0  0  0  0  0  0  0  0  0
    5.8737    5.6241    3.7349 H   0  0  0  0  0  0  0  0  0  0  0  0
    4.2814    5.5563    4.5388 H   0  0  0  0  0  0  0  0  0  0  0  0
    5.5941    6.8199    4.9582 H   0  0  0  0  0  0  0  0  0  0  0  0
  1  3  1  0  0  0  0
  2  4  1  0  0  0  0
  3 42  1  0  0  0  0
  4  1  1  0  0  0  0
  5  4  1  0  0  0  0
  6  4  1  0  0  0  0
  7  6  4  0  0  0  0
  8  7  1  0  0  0  0
  9  7  4  0  0  0  0
 10  9  1  0  0  0  0
 11  9  4  0  0  0  0
 12 11  1  0  0  0  0
 13 11  4  0  0  0  0
 14 13  1  0  0  0  0
 15  6  4  0  0  0  0
 16 15  1  0  0  0  0
 17  2  1  0  0  0  0
 18 17  1  0  0  0  0
 19 17  1  0  0  0  0
 20  1  8  0  0  0  0
 21  1  8  0  0  0  0
 22 21  1  0  0  0  0
 23  1  8  0  0  0  0
 24 23  1  0  0  0  0
 25  1  8  0  0  0  0
 26 25  1  0  0  0  0
 27  1  8  0  0  0  0
 28 27  1  0  0  0  0
 29  1  8  0  0  0  0
 30 29  1  0  0  0  0
 31  2  1  0  0  0  0
 32 31  4  0  0  0  0
 33 32  1  0  0  0  0
 34 32  4  0  0  0  0
 35 34  1  0  0  0  0
 36 34  4  0  0  0  0
 37 36  1  0  0  0  0
 38 36  4  0  0  0  0
 39 38  1  0  0  0  0
 40 31  4  0  0  0  0
 41 40  1  0  0  0  0
 42 43  1  0  0  0  0
 44 42  1  0  0  0  0
 45 42  1  0  0  0  0
 46 45  1  0  0  0  0
 47 45  1  0  0  0  0
 48 45  1  0  0  0  0
 49  3  1  0  0  0  0
 50 49  1  0  0  0  0
 51 49  1  0  0  0  0
 52 49  1  0  0  0  0
 53 52  1  0  0  0  0
 54 52  1  0  0  0  0
 55 52  1  0  0  0  0
 56  2  1  0  0  0  0
 57 56  1  0  0  0  0
 58  1  1  0  0  0  0
 59 56  1  0  0  0  0
 60 57  1  0  0  0  0
 61 63  1  0  0  0  0
 62 60  1  0  0  0  0
 63 60  1  0  0  0  0
 64 63  1  0  0  0  0
 65 63  1  0  0  0  0
 66 65  4  0  0  0  0
 67 66  1  0  0  0  0
 68 66  4  0  0  0  0
 69 68  1  0  0  0  0
 70 68  4  0  0  0  0
 71 70  1  0  0  0  0
 72 70  4  0  0  0  0
 73 72  1  0  0  0  0
 74 65  4  0  0  0  0
 75 74  1  0  0  0  0
 76 61  1  0  0  0  0
 77 76  1  0  0  0  0
 78 76  1  0  0  0  0
 79 60  8  0  0  0  0
 80 60  8  0  0  0  0
 81 80  1  0  0  0  0
 82 60  8  0  0  0  0
 83 82  1  0  0  0  0
 84 60  8  0  0  0  0
 85 84  1  0  0  0  0
 86 60  8  0  0  0  0
 87 86  1  0  0  0  0
 88 60  8  0  0  0  0
 89 88  1  0  0  0  0
 90 61  1  0  0  0  0
 91 90  4  0  0  0  0
 92 91  1  0  0  0  0
 93 91  4  0  0  0  0
 94 93  1  0  0  0  0
 95 93  4  0  0  0  0
 96 95  1  0  0  0  0
 97 95  4  0  0  0  0
 98 97  1  0  0  0  0
 99 90  4  0  0  0  0
100 99  1  0  0  0  0
101 62  1  0  0  0  0
102101  1  0  0  0  0
103101  1  0  0  0  0
104101  1  0  0  0  0
105104  1  0  0  0  0
106104  1  0  0  0  0
107104  1  0  0  0  0
108 62  1  0  0  0  0
109108  1  0  0  0  0
110108  1  0  0  0  0
111108  1  0  0  0  0
112111  1  0  0  0  0
113111  1  0  0  0  0
114111  1  0  0  0  0
115 61  1  0  0  0  0
116  1  1  0  0  0  0
117  1  1  0  0  0  0
118115  1  0  0  0  0
 13 15  4  0  0  0  0
 17 20  1  0  0  0  0
 20 21  4  0  0  0  0
 20 29  4  0  0  0  0
 21 23  4  0  0  0  0
 23 25  4  0  0  0  0
 25 27  4  0  0  0  0
 27 29  4  0  0  0  0
 38 40  4  0  0  0  0
 56 58  1  0  0  0  0
 58 60  1  0  0  0  0
 60117  1  0  0  0  0
 72 74  4  0  0  0  0
 76 79  1  0  0  0  0
 79 80  4  0  0  0  0
 79 88  4  0  0  0  0
 80 82  4  0  0  0  0
 82 84  4  0  0  0  0
 84 86  4  0  0  0  0
 86 88  4  0  0  0  0
 97 99  4  0  0  0  0
115116  1  0  0  0  0
115117  1  0  0  0  0
M  END
$$$$
NOMLEH

From CSD data. Using bond type 'Any'. No disordered atoms. Largest molecule.
 61 66  0  0  0  0  0  0  0  0999 V2000
    8.4933    2.2920    2.6413 Cr  0  0  0  0  0  0  0  0  0  0  0  0
    8.4990    5.8852    1.6057 P   0  0  0  0  0  0  0  0  0  0  0  0
    5.9758    1.0366    5.0832 P   0  0  0  0  0  0  0  0  0  0  0  0
    7.9164    4.4416    2.5515 C   0  0  0  0  0  0  0  0  0  0  0  0
    6.3141    2.6004    2.7413 C   0  0  0  0  0  0  0  0  0  0  0  0
    5.6146    2.0832    2.3603 H   0  0  0  0  0  0  0  0  0  0  0  0
    6.7745    2.3026    4.0459 C   0  0  0  0  0  0  0  0  0  0  0  0
    6.8810    3.6532    2.0063 C   0  0  0  0  0  0  0  0  0  0  0  0
    6.5638    3.8374    1.1294 H   0  0  0  0  0  0  0  0  0  0  0  0
    7.8400    3.0738    4.5866 C   0  0  0  0  0  0  0  0  0  0  0  0
    8.1767    2.8707    5.4522 H   0  0  0  0  0  0  0  0  0  0  0  0
    8.3947    4.1231    3.8617 C   0  0  0  0  0  0  0  0  0  0  0  0
    9.0999    4.6349    4.2400 H   0  0  0  0  0  0  0  0  0  0  0  0
    7.4325    7.2772    2.2201 C   0  0  0  0  0  0  0  0  0  0  0  0
    5.9766    6.9666    1.8701 C   0  0  0  0  0  0  0  0  0  0  0  0
    5.6789    6.1824    2.3763 H   0  0  0  0  0  0  0  0  0  0  0  0
    5.9034    6.7818    0.9105 H   0  0  0  0  0  0  0  0  0  0  0  0
    5.4137    7.7354    2.0986 H   0  0  0  0  0  0  0  0  0  0  0  0
    7.8644    8.5477    1.4608 C   0  0  0  0  0  0  0  0  0  0  0  0
    7.3089    9.3027    1.7462 H   0  0  0  0  0  0  0  0  0  0  0  0
    7.7538    8.4063    0.4966 H   0  0  0  0  0  0  0  0  0  0  0  0
    8.8046    8.7418    1.6581 H   0  0  0  0  0  0  0  0  0  0  0  0
    7.5667    7.4868    3.7218 C   0  0  0  0  0  0  0  0  0  0  0  0
    6.9412    8.1841    4.0104 H   0  0  0  0  0  0  0  0  0  0  0  0
    8.4833    7.7618    3.9330 H   0  0  0  0  0  0  0  0  0  0  0  0
    7.3609    6.6498    4.1893 H   0  0  0  0  0  0  0  0  0  0  0  0
   10.1800    6.2341    2.1865 C   0  0  0  0  0  0  0  0  0  0  0  0
   10.1743    6.3320    3.1613 H   0  0  0  0  0  0  0  0  0  0  0  0
   10.5013    7.0634    1.7756 H   0  0  0  0  0  0  0  0  0  0  0  0
   10.7721    5.4950    1.9358 H   0  0  0  0  0  0  0  0  0  0  0  0
    4.7272    2.0091    6.0564 C   0  0  0  0  0  0  0  0  0  0  0  0
    3.9001    2.9301    5.1558 C   0  0  0  0  0  0  0  0  0  0  0  0
    3.4511    2.3966    4.4670 H   0  0  0  0  0  0  0  0  0  0  0  0
    4.4897    3.5856    4.7286 H   0  0  0  0  0  0  0  0  0  0  0  0
    3.2282    3.3986    5.6952 H   0  0  0  0  0  0  0  0  0  0  0  0
    3.7813    1.0185    6.7456 C   0  0  0  0  0  0  0  0  0  0  0  0
    4.3051    0.3806    7.2732 H   0  0  0  0  0  0  0  0  0  0  0  0
    3.2648    0.5356    6.0690 H   0  0  0  0  0  0  0  0  0  0  0  0
    3.1705    1.5079    7.3346 H   0  0  0  0  0  0  0  0  0  0  0  0
    5.4707    2.8322    7.1055 C   0  0  0  0  0  0  0  0  0  0  0  0
    4.8232    3.2886    7.6817 H   0  0  0  0  0  0  0  0  0  0  0  0
    6.0359    3.4965    6.6591 H   0  0  0  0  0  0  0  0  0  0  0  0
    6.0311    2.2393    7.6496 H   0  0  0  0  0  0  0  0  0  0  0  0
    8.4484    5.6016   -0.2977 B   0  0  0  0  0  0  0  0  0  0  0  0
    7.1730    0.0198    6.1907 B   0  0  0  0  0  0  0  0  0  0  0  0
    5.0770   -0.0211    3.9276 C   0  0  0  0  0  0  0  0  0  0  0  0
    4.3564    0.4927    3.5084 H   0  0  0  0  0  0  0  0  0  0  0  0
    4.6963   -0.7842    4.4109 H   0  0  0  0  0  0  0  0  0  0  0  0
    5.6919   -0.3465    3.2361 H   0  0  0  0  0  0  0  0  0  0  0  0
    8.3150    1.2542    1.1129 C   0  0  0  0  0  0  0  0  0  0  0  0
    9.2731    0.7839    3.4051 C   0  0  0  0  0  0  0  0  0  0  0  0
   10.1979    2.7073    2.0519 C   0  0  0  0  0  0  0  0  0  0  0  0
    9.8042   -0.1517    3.8056 O   0  0  0  0  0  0  0  0  0  0  0  0
   11.2693    2.9494    1.7035 O   0  0  0  0  0  0  0  0  0  0  0  0
    8.2564    0.5877    0.1786 O   0  0  0  0  0  0  0  0  0  0  0  0
    9.1422    4.6964   -0.4139 H   0  0  0  0  0  0  0  0  0  0  0  0
    8.9470    6.5222   -0.8063 H   0  0  0  0  0  0  0  0  0  0  0  0
    7.4585    5.4444   -0.6008 H   0  0  0  0  0  0  0  0  0  0  0  0
    7.9059    0.7369    6.6617 H   0  0  0  0  0  0  0  0  0  0  0  0
    7.6537   -0.7479    5.4522 H   0  0  0  0  0  0  0  0  0  0  0  0
    6.5313   -0.4399    6.9180 H   0  0  0  0  0  0  0  0  0  0  0  0
  1  4  8  0  0  0  0
  2  4  1  0  0  0  0
  3  7  1  0  0  0  0
  4  8  4  0  0  0  0
  5  1  8  0  0  0  0
  6  5  1  0  0  0  0
  7  1  8  0  0  0  0
  8  1  8  0  0  0  0
  9  8  1  0  0  0  0
 10  1  8  0  0  0  0
 11 10  1  0  0  0  0
 12  1  8  0  0  0  0
 13 12  1  0  0  0  0
 14  2  1  0  0  0  0
 15 14  1  0  0  0  0
 16 15  1  0  0  0  0
 17 15  1  0  0  0  0
 18 15  1  0  0  0  0
 19 14  1  0  0  0  0
 20 19  1  0  0  0  0
 21 19  1  0  0  0  0
 22 19  1  0  0  0  0
 23 14  1  0  0  0  0
 24 23  1  0  0  0  0
 25 23  1  0  0  0  0
 26 23  1  0  0  0  0
 27  2  1  0  0  0  0
 28 27  1  0  0  0  0
 29 27  1  0  0  0  0
 30 27  1  0  0  0  0
 31  3  1  0  0  0  0
 32 31  1  0  0  0  0
 33 32  1  0  0  0  0
 34 32  1  0  0  0  0
 35 32  1  0  0  0  0
 36 31  1  0  0  0  0
 37 36  1  0  0  0  0
 38 36  1  0  0  0  0
 39 36  1  0  0  0  0
 40 31  1  0  0  0  0
 41 40  1  0  0  0  0
 42 40  1  0  0  0  0
 43 40  1  0  0  0  0
 44  2  1  0  0  0  0
 45  3  1  0  0  0  0
 46  3  1  0  0  0  0
 47 46  1  0  0  0  0
 48 46  1  0  0  0  0
 49 46  1  0  0  0  0
 50  1  1  0  0  0  0
 51  1  1  0  0  0  0
 52  1  1  0  0  0  0
 53 51  3  0  0  0  0
 54 52  3  0  0  0  0
 55 50  3  0  0  0  0
 56 44  1  0  0  0  0
 57 44  1  0  0  0  0
 58 44  1  0  0  0  0
 59 45  1  0  0  0  0
 60 45  1  0  0  0  0
 61 45  1  0  0  0  0
  4 12  4  0  0  0  0
  5  7  4  0  0  0  0
  5  8  4  0  0  0  0
  7 10  4  0  0  0  0
 10 12  4  0  0  0  0
M  END
$$$$
NOMSIV

From CSD data. Using bond type 'Any'. Matching problem. No disordered atoms. Largest molecule.
163178  0  0  0  0  0  0  0  0999 V2000
   -1.5713   28.2239    3.8921 Y   0  0  0  0  0  0  0  0  0  0  0  0
    3.2417   34.7226    1.3578 Y   0  0  0  0  0  0  0  0  0  0  0  0
   -0.4054   25.0646    2.8693 B   0  0  0  0  0  0  0  0  0  0  0  0
   -0.0854   24.1752    2.5745 H   0  0  0  0  0  0  0  0  0  0  0  0
    3.0656   37.1600   -1.0438 B   0  0  0  0  0  0  0  0  0  0  0  0
    3.0539   37.8551   -1.7491 H   0  0  0  0  0  0  0  0  0  0  0  0
   -0.4885   31.0722    4.5844 P   0  0  0  0  0  0  0  0  0  0  0  0
    1.9178   33.0314    4.0993 P   0  0  0  0  0  0  0  0  0  0  0  0
   -1.4348   28.3436    6.2574 O   0  0  0  0  0  0  0  0  0  0  0  0
   -0.3178   29.9101    1.9929 S   0  0  0  0  0  0  0  0  0  0  0  0
    2.2390   32.1871    1.2536 S   0  0  0  0  0  0  0  0  0  0  0  0
    0.7695   32.3859    5.7363 S   0  0  0  0  0  0  0  0  0  0  0  0
    1.6931   34.9712    3.6826 S   0  0  0  0  0  0  0  0  0  0  0  0
   -5.0510   28.7226    3.5510 Si  0  0  0  0  0  0  0  0  0  0  0  0
   -3.4810   31.1855    3.5060 Si  0  0  0  0  0  0  0  0  0  0  0  0
    6.7395   34.8024    1.9791 Si  0  0  0  0  0  0  0  0  0  0  0  0
    5.1653   32.7851    3.4483 Si  0  0  0  0  0  0  0  0  0  0  0  0
   -1.1420   25.7242    1.6859 N   0  0  0  0  0  0  0  0  0  0  0  0
   -1.7296   26.9911    1.7969 N   0  0  0  0  0  0  0  0  0  0  0  0
    0.8206   25.9104    3.2576 N   0  0  0  0  0  0  0  0  0  0  0  0
    0.7011   27.1603    3.8862 N   0  0  0  0  0  0  0  0  0  0  0  0
   -1.3221   24.8658    4.0442 N   0  0  0  0  0  0  0  0  0  0  0  0
   -2.0089   25.9260    4.6510 N   0  0  0  0  0  0  0  0  0  0  0  0
    3.9568   35.9622   -1.5481 N   0  0  0  0  0  0  0  0  0  0  0  0
    3.9528   34.7393   -0.9127 N   0  0  0  0  0  0  0  0  0  0  0  0
    1.6025   36.6217   -0.8606 N   0  0  0  0  0  0  0  0  0  0  0  0
    1.3439   35.6258    0.0756 N   0  0  0  0  0  0  0  0  0  0  0  0
    3.5973   37.7800    0.2185 N   0  0  0  0  0  0  0  0  0  0  0  0
    3.5895   37.1102    1.4052 N   0  0  0  0  0  0  0  0  0  0  0  0
   -3.4917   29.4745    3.7265 N   0  0  0  0  0  0  0  0  0  0  0  0
    5.1981   34.1296    2.3768 N   0  0  0  0  0  0  0  0  0  0  0  0
   -0.9210   23.8813   -0.0252 C   0  0  0  0  0  0  0  0  0  0  0  0
   -1.6073   23.4687   -0.5725 H   0  0  0  0  0  0  0  0  0  0  0  0
   -0.7331   23.3143    0.7394 H   0  0  0  0  0  0  0  0  0  0  0  0
   -0.1132   23.9941   -0.5501 H   0  0  0  0  0  0  0  0  0  0  0  0
   -1.4061   25.2403    0.4589 C   0  0  0  0  0  0  0  0  0  0  0  0
   -2.1515   26.1727   -0.2336 C   0  0  0  0  0  0  0  0  0  0  0  0
   -2.4769   26.0974   -1.1114 H   0  0  0  0  0  0  0  0  0  0  0  0
   -2.3234   27.2466    0.6337 C   0  0  0  0  0  0  0  0  0  0  0  0
   -3.0358   28.5231    0.3782 C   0  0  0  0  0  0  0  0  0  0  0  0
   -3.3263   28.9058    1.2214 H   0  0  0  0  0  0  0  0  0  0  0  0
   -3.8090   28.3551   -0.1832 H   0  0  0  0  0  0  0  0  0  0  0  0
   -2.4394   29.1427   -0.0695 H   0  0  0  0  0  0  0  0  0  0  0  0
    2.6026   24.3945    2.3734 C   0  0  0  0  0  0  0  0  0  0  0  0
    3.5696   24.3284    2.4197 H   0  0  0  0  0  0  0  0  0  0  0  0
    2.3259   24.4279    1.4438 H   0  0  0  0  0  0  0  0  0  0  0  0
    2.2049   23.6204    2.8012 H   0  0  0  0  0  0  0  0  0  0  0  0
    2.1515   25.6447    3.0760 C   0  0  0  0  0  0  0  0  0  0  0  0
    2.8652   26.6509    3.6005 C   0  0  0  0  0  0  0  0  0  0  0  0
    3.8030   26.7196    3.6019 H   0  0  0  0  0  0  0  0  0  0  0  0
    1.9618   27.5917    4.1484 C   0  0  0  0  0  0  0  0  0  0  0  0
    2.2489   28.8857    4.7603 C   0  0  0  0  0  0  0  0  0  0  0  0
    2.2674   29.5708    4.0741 H   0  0  0  0  0  0  0  0  0  0  0  0
    3.1100   28.8494    5.2048 H   0  0  0  0  0  0  0  0  0  0  0  0
    1.5590   29.0971    5.4093 H   0  0  0  0  0  0  0  0  0  0  0  0
   -1.0954   22.3954    4.2762 C   0  0  0  0  0  0  0  0  0  0  0  0
   -1.4202   22.1703    3.3905 H   0  0  0  0  0  0  0  0  0  0  0  0
   -1.3777   21.7137    4.9067 H   0  0  0  0  0  0  0  0  0  0  0  0
   -0.1272   22.4431    4.2638 H   0  0  0  0  0  0  0  0  0  0  0  0
   -1.6586   23.7285    4.6947 C   0  0  0  0  0  0  0  0  0  0  0  0
   -2.5532   24.0235    5.6612 C   0  0  0  0  0  0  0  0  0  0  0  0
   -2.9645   23.4126    6.2457 H   0  0  0  0  0  0  0  0  0  0  0  0
   -2.7497   25.3752    5.6326 C   0  0  0  0  0  0  0  0  0  0  0  0
   -3.6583   26.1913    6.4899 C   0  0  0  0  0  0  0  0  0  0  0  0
   -3.7745   27.0692    6.0949 H   0  0  0  0  0  0  0  0  0  0  0  0
   -3.2712   26.2839    7.3752 H   0  0  0  0  0  0  0  0  0  0  0  0
   -4.5199   25.7510    6.5593 H   0  0  0  0  0  0  0  0  0  0  0  0
    4.9863   37.0558   -3.5567 C   0  0  0  0  0  0  0  0  0  0  0  0
    4.1494   37.5121   -3.7335 H   0  0  0  0  0  0  0  0  0  0  0  0
    5.3649   36.7397   -4.3930 H   0  0  0  0  0  0  0  0  0  0  0  0
    5.6070   37.6701   -3.1341 H   0  0  0  0  0  0  0  0  0  0  0  0
    4.7404   35.8953   -2.6524 C   0  0  0  0  0  0  0  0  0  0  0  0
    5.2714   34.6488   -2.7281 C   0  0  0  0  0  0  0  0  0  0  0  0
    5.8620   34.3244   -3.3843 H   0  0  0  0  0  0  0  0  0  0  0  0
    4.7585   33.9407   -1.6237 C   0  0  0  0  0  0  0  0  0  0  0  0
    4.9470   32.5015   -1.2338 C   0  0  0  0  0  0  0  0  0  0  0  0
    5.8582   32.3645   -0.9324 H   0  0  0  0  0  0  0  0  0  0  0  0
    4.7698   31.9332   -1.9994 H   0  0  0  0  0  0  0  0  0  0  0  0
    4.3322   32.2778   -0.5166 H   0  0  0  0  0  0  0  0  0  0  0  0
    0.3941   38.0681   -2.5381 C   0  0  0  0  0  0  0  0  0  0  0  0
    0.7442   38.8997   -2.1811 H   0  0  0  0  0  0  0  0  0  0  0  0
   -0.5290   38.1955   -2.8073 H   0  0  0  0  0  0  0  0  0  0  0  0
    0.9211   37.7982   -3.3056 H   0  0  0  0  0  0  0  0  0  0  0  0
    0.4653   36.9969   -1.4775 C   0  0  0  0  0  0  0  0  0  0  0  0
   -0.5483   36.2693   -0.9598 C   0  0  0  0  0  0  0  0  0  0  0  0
   -1.4587   36.3323   -1.1855 H   0  0  0  0  0  0  0  0  0  0  0  0
    0.0151   35.4133   -0.0303 C   0  0  0  0  0  0  0  0  0  0  0  0
   -0.6415   34.3657    0.8236 C   0  0  0  0  0  0  0  0  0  0  0  0
   -0.1469   33.5341    0.7524 H   0  0  0  0  0  0  0  0  0  0  0  0
   -1.5525   34.2269    0.5211 H   0  0  0  0  0  0  0  0  0  0  0  0
   -0.6488   34.6594    1.7480 H   0  0  0  0  0  0  0  0  0  0  0  0
    4.2590   39.9851   -0.7026 C   0  0  0  0  0  0  0  0  0  0  0  0
    4.4860   40.8583   -0.3461 H   0  0  0  0  0  0  0  0  0  0  0  0
    3.4316   40.0459   -1.2047 H   0  0  0  0  0  0  0  0  0  0  0  0
    4.9706   39.6805   -1.2879 H   0  0  0  0  0  0  0  0  0  0  0  0
    4.0941   39.0394    0.3950 C   0  0  0  0  0  0  0  0  0  0  0  0
    4.3974   39.1306    1.7027 C   0  0  0  0  0  0  0  0  0  0  0  0
    4.7755   39.8853    2.1174 H   0  0  0  0  0  0  0  0  0  0  0  0
    4.0712   37.9495    2.3499 C   0  0  0  0  0  0  0  0  0  0  0  0
    4.1834   37.5584    3.7719 C   0  0  0  0  0  0  0  0  0  0  0  0
    3.3221   37.6623    4.2052 H   0  0  0  0  0  0  0  0  0  0  0  0
    4.8374   38.1238    4.2127 H   0  0  0  0  0  0  0  0  0  0  0  0
    4.4657   36.6320    3.8315 H   0  0  0  0  0  0  0  0  0  0  0  0
   -0.5225   27.6206    7.1337 C   0  0  0  0  0  0  0  0  0  0  0  0
    0.2851   27.3643    6.6409 H   0  0  0  0  0  0  0  0  0  0  0  0
   -0.9519   26.8060    7.4689 H   0  0  0  0  0  0  0  0  0  0  0  0
   -0.1699   28.4999    8.2515 C   0  0  0  0  0  0  0  0  0  0  0  0
    0.7588   28.7996    8.1708 H   0  0  0  0  0  0  0  0  0  0  0  0
   -0.2730   28.0260    9.1036 H   0  0  0  0  0  0  0  0  0  0  0  0
   -1.1138   29.6855    8.1909 C   0  0  0  0  0  0  0  0  0  0  0  0
   -1.5602   29.8295    9.0523 H   0  0  0  0  0  0  0  0  0  0  0  0
   -0.6412   30.5039    7.9332 H   0  0  0  0  0  0  0  0  0  0  0  0
   -2.0888   29.2677    7.1387 C   0  0  0  0  0  0  0  0  0  0  0  0
   -2.8677   28.8415    7.5541 H   0  0  0  0  0  0  0  0  0  0  0  0
   -2.3960   30.0508    6.6368 H   0  0  0  0  0  0  0  0  0  0  0  0
   -4.9357   26.9364    3.0861 C   0  0  0  0  0  0  0  0  0  0  0  0
   -4.5009   26.8545    2.2230 H   0  0  0  0  0  0  0  0  0  0  0  0
   -5.8274   26.5574    3.0362 H   0  0  0  0  0  0  0  0  0  0  0  0
   -4.4193   26.4609    3.7552 H   0  0  0  0  0  0  0  0  0  0  0  0
   -6.0817   28.8321    5.1132 C   0  0  0  0  0  0  0  0  0  0  0  0
   -5.5671   29.2683    5.8110 H   0  0  0  0  0  0  0  0  0  0  0  0
   -6.3266   27.9393    5.4034 H   0  0  0  0  0  0  0  0  0  0  0  0
   -6.8852   29.3459    4.9361 H   0  0  0  0  0  0  0  0  0  0  0  0
   -6.1301   29.4525    2.1767 C   0  0  0  0  0  0  0  0  0  0  0  0
   -6.3401   30.3761    2.3871 H   0  0  0  0  0  0  0  0  0  0  0  0
   -6.9528   28.9426    2.1069 H   0  0  0  0  0  0  0  0  0  0  0  0
   -5.6523   29.4128    1.3345 H   0  0  0  0  0  0  0  0  0  0  0  0
   -4.9118   32.0704    4.3619 C   0  0  0  0  0  0  0  0  0  0  0  0
   -5.7504   31.7890    3.9646 H   0  0  0  0  0  0  0  0  0  0  0  0
   -4.8089   33.0290    4.2564 H   0  0  0  0  0  0  0  0  0  0  0  0
   -4.9108   31.8475    5.3066 H   0  0  0  0  0  0  0  0  0  0  0  0
   -3.4809   31.8009    1.7448 C   0  0  0  0  0  0  0  0  0  0  0  0
   -2.6386   31.5699    1.3219 H   0  0  0  0  0  0  0  0  0  0  0  0
   -3.5918   32.7644    1.7388 H   0  0  0  0  0  0  0  0  0  0  0  0
   -4.2108   31.3879    1.2579 H   0  0  0  0  0  0  0  0  0  0  0  0
   -2.0186   32.0214    4.3669 C   0  0  0  0  0  0  0  0  0  0  0  0
   -1.7983   32.8313    3.8611 H   0  0  0  0  0  0  0  0  0  0  0  0
   -2.3201   32.3091    5.2542 H   0  0  0  0  0  0  0  0  0  0  0  0
    0.3738   31.1338    3.0121 C   0  0  0  0  0  0  0  0  0  0  0  0
    1.3671   31.9849    2.7550 C   0  0  0  0  0  0  0  0  0  0  0  0
    3.6124   32.6828    4.5686 C   0  0  0  0  0  0  0  0  0  0  0  0
    3.6047   31.7696    4.9240 H   0  0  0  0  0  0  0  0  0  0  0  0
    3.8003   33.2692    5.3314 H   0  0  0  0  0  0  0  0  0  0  0  0
    5.3692   31.1155    2.6323 C   0  0  0  0  0  0  0  0  0  0  0  0
    4.7528   31.0425    1.8873 H   0  0  0  0  0  0  0  0  0  0  0  0
    5.1815   30.4156    3.2774 H   0  0  0  0  0  0  0  0  0  0  0  0
    6.2793   31.0224    2.3100 H   0  0  0  0  0  0  0  0  0  0  0  0
    6.4513   32.8018    4.7956 C   0  0  0  0  0  0  0  0  0  0  0  0
    7.3359   32.7721    4.3990 H   0  0  0  0  0  0  0  0  0  0  0  0
    6.3284   32.0298    5.3701 H   0  0  0  0  0  0  0  0  0  0  0  0
    6.3594   33.6127    5.3204 H   0  0  0  0  0  0  0  0  0  0  0  0
    7.9035   33.4819    1.3968 C   0  0  0  0  0  0  0  0  0  0  0  0
    8.8020   33.8434    1.3432 H   0  0  0  0  0  0  0  0  0  0  0  0
    7.6274   33.1709    0.5203 H   0  0  0  0  0  0  0  0  0  0  0  0
    7.8900   32.7402    2.0218 H   0  0  0  0  0  0  0  0  0  0  0  0
    6.7076   36.0470    0.6018 C   0  0  0  0  0  0  0  0  0  0  0  0
    6.5628   35.5919   -0.2417 H   0  0  0  0  0  0  0  0  0  0  0  0
    7.5547   36.5191    0.5741 H   0  0  0  0  0  0  0  0  0  0  0  0
    5.9895   36.6805    0.7560 H   0  0  0  0  0  0  0  0  0  0  0  0
    7.5242   35.7482    3.4357 C   0  0  0  0  0  0  0  0  0  0  0  0
    6.8988   36.4128    3.7642 H   0  0  0  0  0  0  0  0  0  0  0  0
    8.3354   36.1881    3.1360 H   0  0  0  0  0  0  0  0  0  0  0  0
    7.7384   35.1256    4.1478 H   0  0  0  0  0  0  0  0  0  0  0  0
  1  7  1  0  0  0  0
  2 11  1  0  0  0  0
  3  4  1  0  0  0  0
  5  6  1  0  0  0  0
  7 12  1  0  0  0  0
  8 12  1  0  0  0  0
  9  1  1  0  0  0  0
 10  1  1  0  0  0  0
 11140  1  0  0  0  0
 13  2  1  0  0  0  0
 14 30  1  0  0  0  0
 15 30  1  0  0  0  0
 16 31  1  0  0  0  0
 17 31  1  0  0  0  0
 18  3  1  0  0  0  0
 19  1  1  0  0  0  0
 20  3  1  0  0  0  0
 21  1  1  0  0  0  0
 22  3  1  0  0  0  0
 23  1  1  0  0  0  0
 24  5  1  0  0  0  0
 25  2  1  0  0  0  0
 26  5  1  0  0  0  0
 27  2  1  0  0  0  0
 28  5  1  0  0  0  0
 29  2  1  0  0  0  0
 30  1  1  0  0  0  0
 31  2  1  0  0  0  0
 32 33  1  0  0  0  0
 34 32  1  0  0  0  0
 35 32  1  0  0  0  0
 36 18  1  0  0  0  0
 37 36  2  0  0  0  0
 38 37  1  0  0  0  0
 39 19  2  0  0  0  0
 40 39  1  0  0  0  0
 41 40  1  0  0  0  0
 42 40  1  0  0  0  0
 43 40  1  0  0  0  0
 44 45  1  0  0  0  0
 46 44  1  0  0  0  0
 47 44  1  0  0  0  0
 48 20  1  0  0  0  0
 49 48  2  0  0  0  0
 50 49  1  0  0  0  0
 51 21  2  0  0  0  0
 52 51  1  0  0  0  0
 53 52  1  0  0  0  0
 54 52  1  0  0  0  0
 55 52  1  0  0  0  0
 56 57  1  0  0  0  0
 58 56  1  0  0  0  0
 59 56  1  0  0  0  0
 60 22  1  0  0  0  0
 61 60  2  0  0  0  0
 62 61  1  0  0  0  0
 63 23  2  0  0  0  0
 64 63  1  0  0  0  0
 65 64  1  0  0  0  0
 66 64  1  0  0  0  0
 67 64  1  0  0  0  0
 68 69  1  0  0  0  0
 70 68  1  0  0  0  0
 71 68  1  0  0  0  0
 72 24  1  0  0  0  0
 73 72  2  0  0  0  0
 74 73  1  0  0  0  0
 75 25  2  0  0  0  0
 76 75  1  0  0  0  0
 77 76  1  0  0  0  0
 78 76  1  0  0  0  0
 79 76  1  0  0  0  0
 80 81  1  0  0  0  0
 82 80  1  0  0  0  0
 83 80  1  0  0  0  0
 84 26  1  0  0  0  0
 85 84  2  0  0  0  0
 86 85  1  0  0  0  0
 87 27  2  0  0  0  0
 88 87  1  0  0  0  0
 89 88  1  0  0  0  0
 90 88  1  0  0  0  0
 91 88  1  0  0  0  0
 92 93  1  0  0  0  0
 94 92  1  0  0  0  0
 95 92  1  0  0  0  0
 96 28  1  0  0  0  0
 97 96  2  0  0  0  0
 98 97  1  0  0  0  0
 99 29  2  0  0  0  0
100 99  1  0  0  0  0
101100  1  0  0  0  0
102100  1  0  0  0  0
103100  1  0  0  0  0
104  9  1  0  0  0  0
105104  1  0  0  0  0
106104  1  0  0  0  0
107104  1  0  0  0  0
108107  1  0  0  0  0
109107  1  0  0  0  0
110107  1  0  0  0  0
111110  1  0  0  0  0
112110  1  0  0  0  0
113  9  1  0  0  0  0
114113  1  0  0  0  0
115113  1  0  0  0  0
116 14  1  0  0  0  0
117116  1  0  0  0  0
118116  1  0  0  0  0
119116  1  0  0  0  0
120 14  1  0  0  0  0
121120  1  0  0  0  0
122120  1  0  0  0  0
123120  1  0  0  0  0
124 14  1  0  0  0  0
125124  1  0  0  0  0
126124  1  0  0  0  0
127124  1  0  0  0  0
128 15  1  0  0  0  0
129128  1  0  0  0  0
130128  1  0  0  0  0
131128  1  0  0  0  0
132 15  1  0  0  0  0
133132  1  0  0  0  0
134132  1  0  0  0  0
135132  1  0  0  0  0
136  7  1  0  0  0  0
137136  1  0  0  0  0
138136  1  0  0  0  0
139  7  1  0  0  0  0
140  8  1  0  0  0  0
141  8  1  0  0  0  0
142141  1  0  0  0  0
143141  1  0  0  0  0
144 17  1  0  0  0  0
145144  1  0  0  0  0
146144  1  0  0  0  0
147144  1  0  0  0  0
148 17  1  0  0  0  0
149148  1  0  0  0  0
150148  1  0  0  0  0
151148  1  0  0  0  0
152 16  1  0  0  0  0
153152  1  0  0  0  0
154152  1  0  0  0  0
155152  1  0  0  0  0
156 16  1  0  0  0  0
157156  1  0  0  0  0
158156  1  0  0  0  0
159156  1  0  0  0  0
160 16  1  0  0  0  0
161160  1  0  0  0  0
162160  1  0  0  0  0
163160  1  0  0  0  0
  8 13  2  0  0  0  0
 10139  1  0  0  0  0
 15136  1  0  0  0  0
 17141  1  0  0  0  0
 18 19  1  0  0  0  0
 20 21  1  0  0  0  0
 22 23  1  0  0  0  0
 24 25  1  0  0  0  0
 26 27  1  0  0  0  0
 28 29  1  0  0  0  0
 32 36  1  0  0  0  0
 37 39  1  0  0  0  0
 44 48  1  0  0  0  0
 49 51  1  0  0  0  0
 56 60  1  0  0  0  0
 61 63  1  0  0  0  0
 68 72  1  0  0  0  0
 73 75  1  0  0  0  0
 80 84  1  0  0  0  0
 85 87  1  0  0  0  0
 92 96  1  0  0  0  0
 97 99  1  0  0  0  0
110113  1  0  0  0  0
139140  2  0  0  0  0
M  END
$$$$
NOMSOB

From CSD data. Using bond type 'Any'. Matching problem. No disordered atoms. Largest molecule.
159172  0  0  0  0  0  0  0  0999 V2000
   -0.6821    5.8841    5.9116 Y   0  0  0  0  0  0  0  0  0  0  0  0
    5.7156    4.4674    6.2530 Y   0  0  0  0  0  0  0  0  0  0  0  0
   -2.9152    6.7029    3.3165 B   0  0  0  0  0  0  0  0  0  0  0  0
   -3.5482    6.9040    2.5825 H   0  0  0  0  0  0  0  0  0  0  0  0
    7.8823    1.9112    7.1079 B   0  0  0  0  0  0  0  0  0  0  0  0
    8.5210    1.1971    7.3551 H   0  0  0  0  0  0  0  0  0  0  0  0
    2.9476    4.1530    7.1013 P   0  0  0  0  0  0  0  0  0  0  0  0
    3.6738    5.2348    4.4480 P   0  0  0  0  0  0  0  0  0  0  0  0
   -2.1199    2.6357    6.5101 Si  0  0  0  0  0  0  0  0  0  0  0  0
   -0.0010    3.4869    8.3217 Si  0  0  0  0  0  0  0  0  0  0  0  0
    7.7303    7.2912    7.0491 Si  0  0  0  0  0  0  0  0  0  0  0  0
    5.0914    7.7736    5.7709 Si  0  0  0  0  0  0  0  0  0  0  0  0
    1.4656    6.0550    5.9008 O   0  0  0  0  0  0  0  0  0  0  0  0
   -0.7607    7.6322    7.5558 O   0  0  0  0  0  0  0  0  0  0  0  0
   -1.9674    7.8922    3.4832 N   0  0  0  0  0  0  0  0  0  0  0  0
   -0.9145    7.8406    4.3812 N   0  0  0  0  0  0  0  0  0  0  0  0
   -3.7244    6.5106    4.6299 N   0  0  0  0  0  0  0  0  0  0  0  0
   -3.0871    6.3402    5.8450 N   0  0  0  0  0  0  0  0  0  0  0  0
   -2.1196    5.4434    2.9459 N   0  0  0  0  0  0  0  0  0  0  0  0
   -1.0677    4.9881    3.7322 N   0  0  0  0  0  0  0  0  0  0  0  0
    6.6390    1.2668    6.4616 N   0  0  0  0  0  0  0  0  0  0  0  0
    5.6617    2.0304    5.8403 N   0  0  0  0  0  0  0  0  0  0  0  0
    7.4999    2.7022    8.3765 N   0  0  0  0  0  0  0  0  0  0  0  0
    6.4951    3.6445    8.3656 N   0  0  0  0  0  0  0  0  0  0  0  0
    8.5646    2.8652    6.0527 N   0  0  0  0  0  0  0  0  0  0  0  0
    7.8240    3.7870    5.3652 N   0  0  0  0  0  0  0  0  0  0  0  0
   -0.9562    3.8434    6.9314 N   0  0  0  0  0  0  0  0  0  0  0  0
    6.3087    6.6723    6.3162 N   0  0  0  0  0  0  0  0  0  0  0  0
   -2.9863    9.4447    1.8071 C   0  0  0  0  0  0  0  0  0  0  0  0
   -2.9657    8.7952    1.0872 H   0  0  0  0  0  0  0  0  0  0  0  0
   -2.7990   10.3277    1.4515 H   0  0  0  0  0  0  0  0  0  0  0  0
   -3.8631    9.4420    2.2210 H   0  0  0  0  0  0  0  0  0  0  0  0
   -1.9469    9.0879    2.8334 C   0  0  0  0  0  0  0  0  0  0  0  0
   -0.8966    9.8097    3.3099 C   0  0  0  0  0  0  0  0  0  0  0  0
   -0.6469   10.6774    3.0488 H   0  0  0  0  0  0  0  0  0  0  0  0
   -0.2602    9.0117    4.2647 C   0  0  0  0  0  0  0  0  0  0  0  0
    0.9531    9.3167    5.0650 C   0  0  0  0  0  0  0  0  0  0  0  0
    0.7546   10.0279    5.6947 H   0  0  0  0  0  0  0  0  0  0  0  0
    1.6683    9.5981    4.4741 H   0  0  0  0  0  0  0  0  0  0  0  0
    1.2279    8.5231    5.5509 H   0  0  0  0  0  0  0  0  0  0  0  0
   -6.0370    6.6991    3.7003 C   0  0  0  0  0  0  0  0  0  0  0  0
   -6.9405    6.6650    4.0508 H   0  0  0  0  0  0  0  0  0  0  0  0
   -5.9144    5.9881    3.0519 H   0  0  0  0  0  0  0  0  0  0  0  0
   -5.8884    7.5565    3.2715 H   0  0  0  0  0  0  0  0  0  0  0  0
   -5.0697    6.5277    4.8096 C   0  0  0  0  0  0  0  0  0  0  0  0
   -5.2955    6.3594    6.1531 C   0  0  0  0  0  0  0  0  0  0  0  0
   -6.1338    6.3276    6.5765 H   0  0  0  0  0  0  0  0  0  0  0  0
   -4.0613    6.2447    6.7695 C   0  0  0  0  0  0  0  0  0  0  0  0
   -3.7438    5.9921    8.1976 C   0  0  0  0  0  0  0  0  0  0  0  0
   -2.7807    5.9918    8.3180 H   0  0  0  0  0  0  0  0  0  0  0  0
   -4.1024    5.1304    8.4609 H   0  0  0  0  0  0  0  0  0  0  0  0
   -4.1378    6.6884    8.7448 H   0  0  0  0  0  0  0  0  0  0  0  0
   -3.2881    4.8261    0.8246 C   0  0  0  0  0  0  0  0  0  0  0  0
   -4.1669    4.7596    1.2312 H   0  0  0  0  0  0  0  0  0  0  0  0
   -3.1932    4.1384    0.1472 H   0  0  0  0  0  0  0  0  0  0  0  0
   -3.1877    5.6996    0.4147 H   0  0  0  0  0  0  0  0  0  0  0  0
   -2.2428    4.6435    1.8689 C   0  0  0  0  0  0  0  0  0  0  0  0
   -1.2559    3.6779    1.9242 C   0  0  0  0  0  0  0  0  0  0  0  0
   -1.0935    2.9980    1.2956 H   0  0  0  0  0  0  0  0  0  0  0  0
   -0.5515    3.9180    3.1001 C   0  0  0  0  0  0  0  0  0  0  0  0
    0.6387    3.1927    3.6564 C   0  0  0  0  0  0  0  0  0  0  0  0
    1.4467    3.6831    3.4400 H   0  0  0  0  0  0  0  0  0  0  0  0
    0.6857    2.3043    3.2704 H   0  0  0  0  0  0  0  0  0  0  0  0
    0.5520    3.1219    4.6205 H   0  0  0  0  0  0  0  0  0  0  0  0
    7.2167   -1.1301    6.8509 C   0  0  0  0  0  0  0  0  0  0  0  0
    8.0707   -1.1642    6.3923 H   0  0  0  0  0  0  0  0  0  0  0  0
    6.7547   -1.9756    6.7367 H   0  0  0  0  0  0  0  0  0  0  0  0
    7.3626   -0.9662    7.7953 H   0  0  0  0  0  0  0  0  0  0  0  0
    6.3981   -0.0434    6.2848 C   0  0  0  0  0  0  0  0  0  0  0  0
    5.2544   -0.1400    5.5090 C   0  0  0  0  0  0  0  0  0  0  0  0
    4.8460   -0.9312    5.2067 H   0  0  0  0  0  0  0  0  0  0  0  0
    4.8267    1.1513    5.2683 C   0  0  0  0  0  0  0  0  0  0  0  0
    3.6418    1.5870    4.4680 C   0  0  0  0  0  0  0  0  0  0  0  0
    2.9496    1.9109    5.0652 H   0  0  0  0  0  0  0  0  0  0  0  0
    3.3025    0.8355    3.9571 H   0  0  0  0  0  0  0  0  0  0  0  0
    3.9045    2.2975    3.8619 H   0  0  0  0  0  0  0  0  0  0  0  0
    9.0738    1.6006    9.9754 C   0  0  0  0  0  0  0  0  0  0  0  0
    8.7278    0.6994    9.8780 H   0  0  0  0  0  0  0  0  0  0  0  0
    9.3577    1.7409   10.8917 H   0  0  0  0  0  0  0  0  0  0  0  0
    9.8295    1.7226    9.3797 H   0  0  0  0  0  0  0  0  0  0  0  0
    8.0049    2.5822    9.6306 C   0  0  0  0  0  0  0  0  0  0  0  0
    7.3146    3.4543   10.4243 C   0  0  0  0  0  0  0  0  0  0  0  0
    7.4522    3.6011   11.3419 H   0  0  0  0  0  0  0  0  0  0  0  0
    6.3717    4.0832    9.6224 C   0  0  0  0  0  0  0  0  0  0  0  0
    5.3619    5.1151    9.9608 C   0  0  0  0  0  0  0  0  0  0  0  0
    5.4447    5.8622    9.3474 H   0  0  0  0  0  0  0  0  0  0  0  0
    5.5063    5.4240   10.8683 H   0  0  0  0  0  0  0  0  0  0  0  0
    4.4724    4.7339    9.8865 H   0  0  0  0  0  0  0  0  0  0  0  0
   10.8927    1.9235    6.0945 C   0  0  0  0  0  0  0  0  0  0  0  0
   11.2303    2.2914    6.9256 H   0  0  0  0  0  0  0  0  0  0  0  0
   11.6170    1.8560    5.4526 H   0  0  0  0  0  0  0  0  0  0  0  0
   10.5220    1.0421    6.2573 H   0  0  0  0  0  0  0  0  0  0  0  0
    9.8192    2.8259    5.5448 C   0  0  0  0  0  0  0  0  0  0  0  0
    9.8832    3.7156    4.5298 C   0  0  0  0  0  0  0  0  0  0  0  0
   10.6348    3.9025    3.9989 H   0  0  0  0  0  0  0  0  0  0  0  0
    8.6222    4.3041    4.4192 C   0  0  0  0  0  0  0  0  0  0  0  0
    8.0753    5.2928    3.4515 C   0  0  0  0  0  0  0  0  0  0  0  0
    7.4082    4.8642    2.8940 H   0  0  0  0  0  0  0  0  0  0  0  0
    8.7941    5.6311    2.8940 H   0  0  0  0  0  0  0  0  0  0  0  0
    7.6692    6.0281    3.9362 H   0  0  0  0  0  0  0  0  0  0  0  0
   -1.6854    8.7824    7.5535 C   0  0  0  0  0  0  0  0  0  0  0  0
   -1.8017    9.1163    6.6394 H   0  0  0  0  0  0  0  0  0  0  0  0
   -2.5621    8.5075    7.8949 H   0  0  0  0  0  0  0  0  0  0  0  0
   -1.1424    9.8032    8.3782 C   0  0  0  0  0  0  0  0  0  0  0  0
   -1.7201    9.9495    9.1560 H   0  0  0  0  0  0  0  0  0  0  0  0
   -1.0826   10.6435    7.8758 H   0  0  0  0  0  0  0  0  0  0  0  0
    0.2220    9.3726    8.8238 C   0  0  0  0  0  0  0  0  0  0  0  0
    0.3674    9.5926    9.7678 H   0  0  0  0  0  0  0  0  0  0  0  0
    0.9187    9.8057    8.2866 H   0  0  0  0  0  0  0  0  0  0  0  0
    0.2330    7.8813    8.6124 C   0  0  0  0  0  0  0  0  0  0  0  0
    1.1214    7.5775    8.3317 H   0  0  0  0  0  0  0  0  0  0  0  0
   -0.0140    7.4134    9.4378 H   0  0  0  0  0  0  0  0  0  0  0  0
   -3.4265    3.1564    5.2845 C   0  0  0  0  0  0  0  0  0  0  0  0
   -3.9827    3.8464    5.6783 H   0  0  0  0  0  0  0  0  0  0  0  0
   -3.9757    2.3913    5.0526 H   0  0  0  0  0  0  0  0  0  0  0  0
   -2.9999    3.5024    4.4847 H   0  0  0  0  0  0  0  0  0  0  0  0
   -3.1465    2.0418    7.9748 C   0  0  0  0  0  0  0  0  0  0  0  0
   -2.5586    1.6755    8.6542 H   0  0  0  0  0  0  0  0  0  0  0  0
   -3.7654    1.3561    7.6791 H   0  0  0  0  0  0  0  0  0  0  0  0
   -3.6431    2.7879    8.3454 H   0  0  0  0  0  0  0  0  0  0  0  0
   -1.3623    1.0788    5.7302 C   0  0  0  0  0  0  0  0  0  0  0  0
   -2.0020    0.3505    5.7767 H   0  0  0  0  0  0  0  0  0  0  0  0
   -0.5582    0.8337    6.2138 H   0  0  0  0  0  0  0  0  0  0  0  0
   -1.1415    1.2564    4.8031 H   0  0  0  0  0  0  0  0  0  0  0  0
   -0.8462    4.0200    9.9022 C   0  0  0  0  0  0  0  0  0  0  0  0
   -1.0035    4.9769    9.8771 H   0  0  0  0  0  0  0  0  0  0  0  0
   -0.2802    3.8048   10.6596 H   0  0  0  0  0  0  0  0  0  0  0  0
   -1.6930    3.5552    9.9882 H   0  0  0  0  0  0  0  0  0  0  0  0
    0.4483    1.6709    8.5441 C   0  0  0  0  0  0  0  0  0  0  0  0
   -0.3583    1.1335    8.5278 H   0  0  0  0  0  0  0  0  0  0  0  0
    0.9009    1.5512    9.3933 H   0  0  0  0  0  0  0  0  0  0  0  0
    1.0363    1.3931    7.8230 H   0  0  0  0  0  0  0  0  0  0  0  0
    1.6686    4.3760    8.4188 C   0  0  0  0  0  0  0  0  0  0  0  0
    1.4803    5.3358    8.4765 H   0  0  0  0  0  0  0  0  0  0  0  0
    2.0832    4.1173    9.2681 H   0  0  0  0  0  0  0  0  0  0  0  0
    8.8208    5.9660    7.8235 C   0  0  0  0  0  0  0  0  0  0  0  0
    8.3143    5.4805    8.4927 H   0  0  0  0  0  0  0  0  0  0  0  0
    9.5909    6.3836    8.2399 H   0  0  0  0  0  0  0  0  0  0  0  0
    9.1199    5.3509    7.1350 H   0  0  0  0  0  0  0  0  0  0  0  0
    8.9013    8.1627    5.8603 C   0  0  0  0  0  0  0  0  0  0  0  0
    9.0859    7.5825    5.1053 H   0  0  0  0  0  0  0  0  0  0  0  0
    9.7296    8.3725    6.3181 H   0  0  0  0  0  0  0  0  0  0  0  0
    8.4893    8.9826    5.5445 H   0  0  0  0  0  0  0  0  0  0  0  0
    7.3749    8.5287    8.4074 C   0  0  0  0  0  0  0  0  0  0  0  0
    6.8570    9.2656    8.0469 H   0  0  0  0  0  0  0  0  0  0  0  0
    8.2107    8.8657    8.7656 H   0  0  0  0  0  0  0  0  0  0  0  0
    6.8710    8.0964    9.1154 H   0  0  0  0  0  0  0  0  0  0  0  0
    5.7371    9.4461    5.1251 C   0  0  0  0  0  0  0  0  0  0  0  0
    6.1823    9.9206    5.8444 H   0  0  0  0  0  0  0  0  0  0  0  0
    4.9932    9.9763    4.7994 H   0  0  0  0  0  0  0  0  0  0  0  0
    6.3657    9.2926    4.4019 H   0  0  0  0  0  0  0  0  0  0  0  0
    3.9067    8.1890    7.1680 C   0  0  0  0  0  0  0  0  0  0  0  0
    3.4293    7.3883    7.4357 H   0  0  0  0  0  0  0  0  0  0  0  0
    3.2726    8.8579    6.8657 H   0  0  0  0  0  0  0  0  0  0  0  0
    4.4068    8.5354    7.9234 H   0  0  0  0  0  0  0  0  0  0  0  0
    4.1300    7.0519    4.3444 C   0  0  0  0  0  0  0  0  0  0  0  0
    4.6543    7.1861    3.5271 H   0  0  0  0  0  0  0  0  0  0  0  0
    3.3020    7.5668    4.2458 H   0  0  0  0  0  0  0  0  0  0  0  0
    2.5204    5.2589    5.8636 C   0  0  0  0  0  0  0  0  0  0  0  0
  1 13  1  0  0  0  0
  2  7  1  0  0  0  0
  3  4  1  0  0  0  0
  5  6  1  0  0  0  0
  7133  1  0  0  0  0
  8  2  1  0  0  0  0
  9 27  1  0  0  0  0
 10 27  1  0  0  0  0
 11 28  1  0  0  0  0
 12 28  1  0  0  0  0
 13159  1  0  0  0  0
 14  1  1  0  0  0  0
 15  3  1  0  0  0  0
 16  1  1  0  0  0  0
 17  3  1  0  0  0  0
 18  1  1  0  0  0  0
 19  3  1  0  0  0  0
 20  1  1  0  0  0  0
 21  5  1  0  0  0  0
 22  2  1  0  0  0  0
 23  5  1  0  0  0  0
 24  2  1  0  0  0  0
 25  5  1  0  0  0  0
 26  2  1  0  0  0  0
 27  1  1  0  0  0  0
 28  2  1  0  0  0  0
 29 30  1  0  0  0  0
 31 29  1  0  0  0  0
 32 29  1  0  0  0  0
 33 15  1  0  0  0  0
 34 33  2  0  0  0  0
 35 34  1  0  0  0  0
 36 16  2  0  0  0  0
 37 36  1  0  0  0  0
 38 37  1  0  0  0  0
 39 37  1  0  0  0  0
 40 37  1  0  0  0  0
 41 42  1  0  0  0  0
 43 41  1  0  0  0  0
 44 41  1  0  0  0  0
 45 17  1  0  0  0  0
 46 45  2  0  0  0  0
 47 46  1  0  0  0  0
 48 18  2  0  0  0  0
 49 48  1  0  0  0  0
 50 49  1  0  0  0  0
 51 49  1  0  0  0  0
 52 49  1  0  0  0  0
 53 54  1  0  0  0  0
 55 53  1  0  0  0  0
 56 53  1  0  0  0  0
 57 19  1  0  0  0  0
 58 57  2  0  0  0  0
 59 58  1  0  0  0  0
 60 20  2  0  0  0  0
 61 60  1  0  0  0  0
 62 61  1  0  0  0  0
 63 61  1  0  0  0  0
 64 61  1  0  0  0  0
 65 66  1  0  0  0  0
 67 65  1  0  0  0  0
 68 65  1  0  0  0  0
 69 21  2  0  0  0  0
 70 69  1  0  0  0  0
 71 70  1  0  0  0  0
 72 22  1  0  0  0  0
 73 72  1  0  0  0  0
 74 73  1  0  0  0  0
 75 73  1  0  0  0  0
 76 73  1  0  0  0  0
 77 78  1  0  0  0  0
 79 77  1  0  0  0  0
 80 77  1  0  0  0  0
 81 23  2  0  0  0  0
 82 81  1  0  0  0  0
 83 82  1  0  0  0  0
 84 24  1  0  0  0  0
 85 84  1  0  0  0  0
 86 85  1  0  0  0  0
 87 85  1  0  0  0  0
 88 85  1  0  0  0  0
 89 90  1  0  0  0  0
 91 89  1  0  0  0  0
 92 89  1  0  0  0  0
 93 25  2  0  0  0  0
 94 93  1  0  0  0  0
 95 94  1  0  0  0  0
 96 26  1  0  0  0  0
 97 96  1  0  0  0  0
 98 97  1  0  0  0  0
 99 97  1  0  0  0  0
100 97  1  0  0  0  0
101 14  1  0  0  0  0
102101  1  0  0  0  0
103101  1  0  0  0  0
104101  1  0  0  0  0
105104  1  0  0  0  0
106104  1  0  0  0  0
107104  1  0  0  0  0
108107  1  0  0  0  0
109107  1  0  0  0  0
110 14  1  0  0  0  0
111110  1  0  0  0  0
112110  1  0  0  0  0
113  9  1  0  0  0  0
114113  1  0  0  0  0
115113  1  0  0  0  0
116113  1  0  0  0  0
117  9  1  0  0  0  0
118117  1  0  0  0  0
119117  1  0  0  0  0
120117  1  0  0  0  0
121  9  1  0  0  0  0
122121  1  0  0  0  0
123121  1  0  0  0  0
124121  1  0  0  0  0
125 10  1  0  0  0  0
126125  1  0  0  0  0
127125  1  0  0  0  0
128125  1  0  0  0  0
129 10  1  0  0  0  0
130129  1  0  0  0  0
131129  1  0  0  0  0
132129  1  0  0  0  0
133 10  1  0  0  0  0
134133  1  0  0  0  0
135133  1  0  0  0  0
136 11  1  0  0  0  0
137136  1  0  0  0  0
138136  1  0  0  0  0
139136  1  0  0  0  0
140 11  1  0  0  0  0
141140  1  0  0  0  0
142140  1  0  0  0  0
143140  1  0  0  0  0
144 11  1  0  0  0  0
145144  1  0  0  0  0
146144  1  0  0  0  0
147144  1  0  0  0  0
148 12  1  0  0  0  0
149148  1  0  0  0  0
150148  1  0  0  0  0
151148  1  0  0  0  0
152 12  1  0  0  0  0
153152  1  0  0  0  0
154152  1  0  0  0  0
155152  1  0  0  0  0
156  8  1  0  0  0  0
157156  1  0  0  0  0
158156  1  0  0  0  0
159  7  2  0  0  0  0
  8159  1  0  0  0  0
 12156  1  0  0  0  0
 15 16  1  0  0  0  0
 17 18  1  0  0  0  0
 19 20  1  0  0  0  0
 21 22  1  0  0  0  0
 23 24  1  0  0  0  0
 25 26  1  0  0  0  0
 29 33  1  0  0  0  0
 34 36  1  0  0  0  0
 41 45  1  0  0  0  0
 46 48  1  0  0  0  0
 53 57  1  0  0  0  0
 58 60  1  0  0  0  0
 65 69  1  0  0  0  0
 70 72  2  0  0  0  0
 77 81  1  0  0  0  0
 82 84  2  0  0  0  0
 89 93  1  0  0  0  0
 94 96  2  0  0  0  0
107110  1  0  0  0  0
M  END
$$$$
NOMSUH

From CSD data. Using bond type 'Any'. No disordered atoms. Largest molecule.
183199  0  0  0  0  0  0  0  0999 V2000
    7.1634    1.3826   13.7490 Y   0  0  0  0  0  0  0  0  0  0  0  0
    6.9741   -5.1030   12.1285 Y   0  0  0  0  0  0  0  0  0  0  0  0
    7.9213    2.5766   16.9949 B   0  0  0  0  0  0  0  0  0  0  0  0
    9.5379   -7.4741   12.4177 B   0  0  0  0  0  0  0  0  0  0  0  0
    5.1639   -0.7270   10.7958 P   0  0  0  0  0  0  0  0  0  0  0  0
    5.6318   -2.4876   12.0173 P   0  0  0  0  0  0  0  0  0  0  0  0
    9.4974    3.2312   11.7202 Si  0  0  0  0  0  0  0  0  0  0  0  0
    7.4284    1.6211   10.3711 Si  0  0  0  0  0  0  0  0  0  0  0  0
    3.5568   -4.6624   12.6710 Si  0  0  0  0  0  0  0  0  0  0  0  0
    4.3982   -7.3825   13.3074 Si  0  0  0  0  0  0  0  0  0  0  0  0
    7.2210   -0.8333   13.5747 O   0  0  0  0  0  0  0  0  0  0  0  0
    5.2489    1.2707   12.7272 O   0  0  0  0  0  0  0  0  0  0  0  0
    7.1946   -4.6011    9.6949 O   0  0  0  0  0  0  0  0  0  0  0  0
    7.6368    3.7486   16.0321 N   0  0  0  0  0  0  0  0  0  0  0  0
    6.9894    3.5452   14.8231 N   0  0  0  0  0  0  0  0  0  0  0  0
    9.1011    1.7002   16.4761 N   0  0  0  0  0  0  0  0  0  0  0  0
    9.1452    1.2462   15.1805 N   0  0  0  0  0  0  0  0  0  0  0  0
    6.6609    1.7113   17.1156 N   0  0  0  0  0  0  0  0  0  0  0  0
    6.1771    0.9894   16.0275 N   0  0  0  0  0  0  0  0  0  0  0  0
    8.5714   -7.8971   11.2900 N   0  0  0  0  0  0  0  0  0  0  0  0
    7.3911   -7.2188   11.0516 N   0  0  0  0  0  0  0  0  0  0  0  0
   10.1868   -6.1070   12.0747 N   0  0  0  0  0  0  0  0  0  0  0  0
    9.4225   -5.0373   11.6731 N   0  0  0  0  0  0  0  0  0  0  0  0
    8.7938   -7.3368   13.7587 N   0  0  0  0  0  0  0  0  0  0  0  0
    7.8688   -6.3194   13.9888 N   0  0  0  0  0  0  0  0  0  0  0  0
    8.1731    2.1318   11.8273 N   0  0  0  0  0  0  0  0  0  0  0  0
    4.8632   -5.7804   12.7878 N   0  0  0  0  0  0  0  0  0  0  0  0
    3.1899    0.4864   11.9975 N   0  0  0  0  0  0  0  0  0  0  0  0
    7.5416   -3.1437   13.6684 N   0  0  0  0  0  0  0  0  0  0  0  0
    8.4856    5.6198   17.4366 C   0  0  0  0  0  0  0  0  0  0  0  0
    7.9402    5.4353   18.2287 H   0  0  0  0  0  0  0  0  0  0  0  0
    8.6026    6.5876   17.3382 H   0  0  0  0  0  0  0  0  0  0  0  0
    9.3624    5.1924   17.5367 H   0  0  0  0  0  0  0  0  0  0  0  0
    7.8099    5.0804   16.2350 C   0  0  0  0  0  0  0  0  0  0  0  0
    7.2463    5.7455   15.1676 C   0  0  0  0  0  0  0  0  0  0  0  0
    7.2064    6.6864   15.0407 H   0  0  0  0  0  0  0  0  0  0  0  0
    6.7460    4.7640   14.3129 C   0  0  0  0  0  0  0  0  0  0  0  0
    6.0008    4.9061   13.0149 C   0  0  0  0  0  0  0  0  0  0  0  0
    6.4911    4.4427   12.3032 H   0  0  0  0  0  0  0  0  0  0  0  0
    5.9182    5.8556   12.7878 H   0  0  0  0  0  0  0  0  0  0  0  0
    5.1087    4.5123   13.1043 H   0  0  0  0  0  0  0  0  0  0  0  0
   10.3986    1.5106   18.6077 C   0  0  0  0  0  0  0  0  0  0  0  0
   10.5069    2.4707   18.7704 H   0  0  0  0  0  0  0  0  0  0  0  0
   11.2033    1.0355   18.9027 H   0  0  0  0  0  0  0  0  0  0  0  0
    9.6230    1.1805   19.1084 H   0  0  0  0  0  0  0  0  0  0  0  0
   10.1868    1.2736   17.1469 C   0  0  0  0  0  0  0  0  0  0  0  0
   10.9748    0.5626   16.2565 C   0  0  0  0  0  0  0  0  0  0  0  0
   11.8215    0.1677   16.4317 H   0  0  0  0  0  0  0  0  0  0  0  0
   10.2743    0.5416   15.0496 C   0  0  0  0  0  0  0  0  0  0  0  0
   10.6541   -0.1201   13.7891 C   0  0  0  0  0  0  0  0  0  0  0  0
   10.6100   -1.0926   13.9035 H   0  0  0  0  0  0  0  0  0  0  0  0
   11.5670    0.1391   13.5459 H   0  0  0  0  0  0  0  0  0  0  0  0
   10.0376    0.1547   13.0774 H   0  0  0  0  0  0  0  0  0  0  0  0
    6.0988    2.1153   19.5214 C   0  0  0  0  0  0  0  0  0  0  0  0
    6.8709    1.6950   19.9523 H   0  0  0  0  0  0  0  0  0  0  0  0
    5.3023    1.9931   20.0792 H   0  0  0  0  0  0  0  0  0  0  0  0
    6.2713    3.0739   19.4052 H   0  0  0  0  0  0  0  0  0  0  0  0
    5.8729    1.4950   18.2018 C   0  0  0  0  0  0  0  0  0  0  0  0
    4.8747    0.6256   17.8013 C   0  0  0  0  0  0  0  0  0  0  0  0
    4.1701    0.2840   18.3413 H   0  0  0  0  0  0  0  0  0  0  0  0
    5.0977    0.3487   16.4657 C   0  0  0  0  0  0  0  0  0  0  0  0
    4.2923   -0.5209   15.5520 C   0  0  0  0  0  0  0  0  0  0  0  0
    3.5530   -0.0008   15.1748 H   0  0  0  0  0  0  0  0  0  0  0  0
    3.9342   -1.2799   16.0545 H   0  0  0  0  0  0  0  0  0  0  0  0
    4.8637   -0.8485   14.8261 H   0  0  0  0  0  0  0  0  0  0  0  0
    9.8911   -9.8226   10.3758 C   0  0  0  0  0  0  0  0  0  0  0  0
   10.6847   -9.3174   10.0986 H   0  0  0  0  0  0  0  0  0  0  0  0
    9.7322  -10.5531    9.7428 H   0  0  0  0  0  0  0  0  0  0  0  0
   10.0361  -10.1916   11.2716 H   0  0  0  0  0  0  0  0  0  0  0  0
    8.6988   -8.9103   10.3954 C   0  0  0  0  0  0  0  0  0  0  0  0
    7.5962   -8.8741    9.5730 C   0  0  0  0  0  0  0  0  0  0  0  0
    7.4134   -9.4564    8.8452 H   0  0  0  0  0  0  0  0  0  0  0  0
    6.8059   -7.8290   10.0092 C   0  0  0  0  0  0  0  0  0  0  0  0
    5.4688   -7.4017    9.4996 C   0  0  0  0  0  0  0  0  0  0  0  0
    5.0859   -6.7361   10.1076 H   0  0  0  0  0  0  0  0  0  0  0  0
    4.8743   -8.1798    9.4496 H   0  0  0  0  0  0  0  0  0  0  0  0
    5.5707   -7.0096    8.6074 H   0  0  0  0  0  0  0  0  0  0  0  0
   12.5497   -6.7061   12.5625 C   0  0  0  0  0  0  0  0  0  0  0  0
   12.4124   -6.9390   13.5030 H   0  0  0  0  0  0  0  0  0  0  0  0
   13.4258   -6.2787   12.4570 H   0  0  0  0  0  0  0  0  0  0  0  0
   12.5173   -7.5196   12.0154 H   0  0  0  0  0  0  0  0  0  0  0  0
   11.4827   -5.7675   12.1209 C   0  0  0  0  0  0  0  0  0  0  0  0
   11.5847   -4.4338   11.7168 C   0  0  0  0  0  0  0  0  0  0  0  0
   12.3743   -3.9115   11.6381 H   0  0  0  0  0  0  0  0  0  0  0  0
   10.2672   -4.0340   11.4486 C   0  0  0  0  0  0  0  0  0  0  0  0
    9.7655   -2.6882   11.0141 C   0  0  0  0  0  0  0  0  0  0  0  0
    9.0281   -2.8035   10.3793 H   0  0  0  0  0  0  0  0  0  0  0  0
   10.4929   -2.1914   10.5850 H   0  0  0  0  0  0  0  0  0  0  0  0
    9.4468   -2.1896   11.7972 H   0  0  0  0  0  0  0  0  0  0  0  0
    9.9378   -9.1607   14.9960 C   0  0  0  0  0  0  0  0  0  0  0  0
    9.6355   -9.8559   14.3737 H   0  0  0  0  0  0  0  0  0  0  0  0
    9.9242   -9.5110   15.9096 H   0  0  0  0  0  0  0  0  0  0  0  0
   10.8503   -8.8886   14.7635 H   0  0  0  0  0  0  0  0  0  0  0  0
    9.0379   -7.9923   14.9030 C   0  0  0  0  0  0  0  0  0  0  0  0
    8.2832   -7.4059   15.9007 C   0  0  0  0  0  0  0  0  0  0  0  0
    8.2564   -7.6571   16.8161 H   0  0  0  0  0  0  0  0  0  0  0  0
    7.5653   -6.3713   15.2963 C   0  0  0  0  0  0  0  0  0  0  0  0
    6.6344   -5.4074   15.9436 C   0  0  0  0  0  0  0  0  0  0  0  0
    7.1461   -4.6617   16.3227 H   0  0  0  0  0  0  0  0  0  0  0  0
    6.1413   -5.8615   16.6588 H   0  0  0  0  0  0  0  0  0  0  0  0
    6.0025   -5.0660   15.2785 H   0  0  0  0  0  0  0  0  0  0  0  0
   10.0688    3.9071   13.3671 C   0  0  0  0  0  0  0  0  0  0  0  0
    9.3272    4.3707   13.8052 H   0  0  0  0  0  0  0  0  0  0  0  0
   10.8077    4.5349   13.2241 H   0  0  0  0  0  0  0  0  0  0  0  0
   10.3758    3.1676   13.9339 H   0  0  0  0  0  0  0  0  0  0  0  0
    9.0843    4.7415   10.6744 C   0  0  0  0  0  0  0  0  0  0  0  0
    8.7256    4.4511    9.8108 H   0  0  0  0  0  0  0  0  0  0  0  0
    9.8975    5.2698   10.5313 H   0  0  0  0  0  0  0  0  0  0  0  0
    8.4168    5.2870   11.1392 H   0  0  0  0  0  0  0  0  0  0  0  0
   11.0696    2.4828   10.9819 C   0  0  0  0  0  0  0  0  0  0  0  0
   11.5403    1.9665   11.6685 H   0  0  0  0  0  0  0  0  0  0  0  0
   11.6517    3.2011   10.6565 H   0  0  0  0  0  0  0  0  0  0  0  0
   10.8323    1.8935   10.2345 H   0  0  0  0  0  0  0  0  0  0  0  0
    5.9717    2.6681    9.8322 C   0  0  0  0  0  0  0  0  0  0  0  0
    5.3936    2.8461   10.6028 H   0  0  0  0  0  0  0  0  0  0  0  0
    5.4615    2.1909    9.1456 H   0  0  0  0  0  0  0  0  0  0  0  0
    6.2967    3.5172    9.4657 H   0  0  0  0  0  0  0  0  0  0  0  0
    8.5798    1.5640    8.8703 C   0  0  0  0  0  0  0  0  0  0  0  0
    8.9083    2.4670    8.6754 H   0  0  0  0  0  0  0  0  0  0  0  0
    8.0875    1.2222    8.0943 H   0  0  0  0  0  0  0  0  0  0  0  0
    9.3383    0.9749    9.0616 H   0  0  0  0  0  0  0  0  0  0  0  0
    6.8968   -0.2126   10.4652 C   0  0  0  0  0  0  0  0  0  0  0  0
    7.1566   -0.6271    9.6033 H   0  0  0  0  0  0  0  0  0  0  0  0
    7.4575   -0.6357   11.1625 H   0  0  0  0  0  0  0  0  0  0  0  0
    4.4527    0.4893   12.0315 C   0  0  0  0  0  0  0  0  0  0  0  0
    1.4101    1.0807   13.5530 C   0  0  0  0  0  0  0  0  0  0  0  0
    1.3279    0.1710   13.8087 H   0  0  0  0  0  0  0  0  0  0  0  0
    0.5287    2.0347   14.0644 C   0  0  0  0  0  0  0  0  0  0  0  0
   -0.1362    1.7620   14.6866 H   0  0  0  0  0  0  0  0  0  0  0  0
    0.5950    3.3247   13.6997 C   0  0  0  0  0  0  0  0  0  0  0  0
   -0.0372    3.9498   14.0358 H   0  0  0  0  0  0  0  0  0  0  0  0
    1.5874    3.7341   12.8361 C   0  0  0  0  0  0  0  0  0  0  0  0
    1.6473    4.6502   12.5857 H   0  0  0  0  0  0  0  0  0  0  0  0
    2.5007    2.8229   12.3265 C   0  0  0  0  0  0  0  0  0  0  0  0
    3.1913    3.1188   11.7454 H   0  0  0  0  0  0  0  0  0  0  0  0
    2.4098    1.4696   12.6662 C   0  0  0  0  0  0  0  0  0  0  0  0
    6.9494   -2.0330   13.2527 C   0  0  0  0  0  0  0  0  0  0  0  0
    8.4982   -3.0119   14.7439 C   0  0  0  0  0  0  0  0  0  0  0  0
    8.2551   -2.1788   15.8417 C   0  0  0  0  0  0  0  0  0  0  0  0
    7.4615   -1.6586   15.8792 H   0  0  0  0  0  0  0  0  0  0  0  0
    9.1778   -2.1154   16.8716 C   0  0  0  0  0  0  0  0  0  0  0  0
    9.0027   -1.5571   17.6207 H   0  0  0  0  0  0  0  0  0  0  0  0
   10.3430   -2.8470   16.8322 C   0  0  0  0  0  0  0  0  0  0  0  0
   10.9829   -2.7693   17.5296 H   0  0  0  0  0  0  0  0  0  0  0  0
   10.5666   -3.6900   15.7737 C   0  0  0  0  0  0  0  0  0  0  0  0
   11.3564   -4.2192   15.7505 H   0  0  0  0  0  0  0  0  0  0  0  0
    9.6452   -3.7770   14.7313 C   0  0  0  0  0  0  0  0  0  0  0  0
    9.8099   -4.3678   14.0054 H   0  0  0  0  0  0  0  0  0  0  0  0
    4.1442   -2.9180   13.0309 C   0  0  0  0  0  0  0  0  0  0  0  0
    3.4150   -2.2781   12.8307 H   0  0  0  0  0  0  0  0  0  0  0  0
    4.3666   -2.8373   13.9911 H   0  0  0  0  0  0  0  0  0  0  0  0
    2.7521   -4.6679   10.9676 C   0  0  0  0  0  0  0  0  0  0  0  0
    3.3727   -4.2842   10.3114 H   0  0  0  0  0  0  0  0  0  0  0  0
    1.9310   -4.1328   10.9926 H   0  0  0  0  0  0  0  0  0  0  0  0
    2.5346   -5.5879   10.7119 H   0  0  0  0  0  0  0  0  0  0  0  0
    2.1984   -4.8212   13.9643 C   0  0  0  0  0  0  0  0  0  0  0  0
    1.7947   -5.7123   13.9053 H   0  0  0  0  0  0  0  0  0  0  0  0
    1.5132   -4.1416   13.8034 H   0  0  0  0  0  0  0  0  0  0  0  0
    2.5813   -4.6954   14.8583 H   0  0  0  0  0  0  0  0  0  0  0  0
    2.8762   -8.0114   12.3730 C   0  0  0  0  0  0  0  0  0  0  0  0
    2.1782   -7.3234   12.3855 H   0  0  0  0  0  0  0  0  0  0  0  0
    2.5399   -8.8233   12.8039 H   0  0  0  0  0  0  0  0  0  0  0  0
    3.1204   -8.2107   11.4450 H   0  0  0  0  0  0  0  0  0  0  0  0
    3.9743   -7.5117   15.1354 C   0  0  0  0  0  0  0  0  0  0  0  0
    4.7910   -7.6908   15.6468 H   0  0  0  0  0  0  0  0  0  0  0  0
    3.3359   -8.2433   15.2713 H   0  0  0  0  0  0  0  0  0  0  0  0
    3.5763   -6.6696   15.4376 H   0  0  0  0  0  0  0  0  0  0  0  0
    5.6489   -8.7729   13.1239 C   0  0  0  0  0  0  0  0  0  0  0  0
    5.8439   -8.9129   12.1745 H   0  0  0  0  0  0  0  0  0  0  0  0
    5.2800   -9.5963   13.5066 H   0  0  0  0  0  0  0  0  0  0  0  0
    6.4738   -8.5344   13.5960 H   0  0  0  0  0  0  0  0  0  0  0  0
    6.2515   -3.9237    8.8113 C   0  0  0  0  0  0  0  0  0  0  0  0
    5.9933   -3.0443    9.1885 H   0  0  0  0  0  0  0  0  0  0  0  0
    5.4337   -4.4685    8.6933 H   0  0  0  0  0  0  0  0  0  0  0  0
    6.9453   -3.7452    7.5150 C   0  0  0  0  0  0  0  0  0  0  0  0
    7.4673   -2.9026    7.4989 H   0  0  0  0  0  0  0  0  0  0  0  0
    6.3030   -3.7418    6.7604 H   0  0  0  0  0  0  0  0  0  0  0  0
    7.8559   -4.9519    7.4542 C   0  0  0  0  0  0  0  0  0  0  0  0
    7.3621   -5.7560    7.1538 H   0  0  0  0  0  0  0  0  0  0  0  0
    8.6184   -4.7947    6.8427 H   0  0  0  0  0  0  0  0  0  0  0  0
    8.3160   -5.0994    8.8631 C   0  0  0  0  0  0  0  0  0  0  0  0
    8.5105   -6.0462    9.0705 H   0  0  0  0  0  0  0  0  0  0  0  0
    9.1337   -4.5630    9.0205 H   0  0  0  0  0  0  0  0  0  0  0  0
  1 11  1  0  0  0  0
  2  6  1  0  0  0  0
  3 14  1  0  0  0  0
  4 20  1  0  0  0  0
  5  6  1  0  0  0  0
  6137  1  0  0  0  0
  7 26  1  0  0  0  0
  8 26  1  0  0  0  0
  9 27  1  0  0  0  0
 10 27  1  0  0  0  0
 11137  1  0  0  0  0
 12  1  1  0  0  0  0
 13  2  1  0  0  0  0
 14 15  1  0  0  0  0
 15  1  1  0  0  0  0
 16  3  1  0  0  0  0
 17  1  1  0  0  0  0
 18  3  1  0  0  0  0
 19  1  1  0  0  0  0
 20 21  1  0  0  0  0
 21  2  1  0  0  0  0
 22  4  1  0  0  0  0
 23  2  1  0  0  0  0
 24  4  1  0  0  0  0
 25  2  1  0  0  0  0
 26  1  1  0  0  0  0
 27  2  1  0  0  0  0
 28125  2  0  0  0  0
 29  2  1  0  0  0  0
 30 31  1  0  0  0  0
 32 30  1  0  0  0  0
 33 30  1  0  0  0  0
 34 14  1  0  0  0  0
 35 34  2  0  0  0  0
 36 35  1  0  0  0  0
 37 15  2  0  0  0  0
 38 37  1  0  0  0  0
 39 38  1  0  0  0  0
 40 38  1  0  0  0  0
 41 38  1  0  0  0  0
 42 43  1  0  0  0  0
 44 42  1  0  0  0  0
 45 42  1  0  0  0  0
 46 16  1  0  0  0  0
 47 46  2  0  0  0  0
 48 47  1  0  0  0  0
 49 17  2  0  0  0  0
 50 49  1  0  0  0  0
 51 50  1  0  0  0  0
 52 50  1  0  0  0  0
 53 50  1  0  0  0  0
 54 55  1  0  0  0  0
 56 54  1  0  0  0  0
 57 54  1  0  0  0  0
 58 18  1  0  0  0  0
 59 58  2  0  0  0  0
 60 59  1  0  0  0  0
 61 19  2  0  0  0  0
 62 61  1  0  0  0  0
 63 62  1  0  0  0  0
 64 62  1  0  0  0  0
 65 62  1  0  0  0  0
 66 67  1  0  0  0  0
 68 66  1  0  0  0  0
 69 66  1  0  0  0  0
 70 20  1  0  0  0  0
 71 70  2  0  0  0  0
 72 71  1  0  0  0  0
 73 21  2  0  0  0  0
 74 73  1  0  0  0  0
 75 74  1  0  0  0  0
 76 74  1  0  0  0  0
 77 74  1  0  0  0  0
 78 79  1  0  0  0  0
 80 78  1  0  0  0  0
 81 78  1  0  0  0  0
 82 22  1  0  0  0  0
 83 82  2  0  0  0  0
 84 83  1  0  0  0  0
 85 23  2  0  0  0  0
 86 85  1  0  0  0  0
 87 86  1  0  0  0  0
 88 86  1  0  0  0  0
 89 86  1  0  0  0  0
 90 91  1  0  0  0  0
 92 90  1  0  0  0  0
 93 90  1  0  0  0  0
 94 24  1  0  0  0  0
 95 94  2  0  0  0  0
 96 95  1  0  0  0  0
 97 25  2  0  0  0  0
 98 97  1  0  0  0  0
 99 98  1  0  0  0  0
100 98  1  0  0  0  0
101 98  1  0  0  0  0
102  7  1  0  0  0  0
103102  1  0  0  0  0
104102  1  0  0  0  0
105102  1  0  0  0  0
106  7  1  0  0  0  0
107106  1  0  0  0  0
108106  1  0  0  0  0
109106  1  0  0  0  0
110  7  1  0  0  0  0
111110  1  0  0  0  0
112110  1  0  0  0  0
113110  1  0  0  0  0
114  8  1  0  0  0  0
115114  1  0  0  0  0
116114  1  0  0  0  0
117114  1  0  0  0  0
118  8  1  0  0  0  0
119118  1  0  0  0  0
120118  1  0  0  0  0
121118  1  0  0  0  0
122  5  1  0  0  0  0
123122  1  0  0  0  0
124122  1  0  0  0  0
125  5  1  0  0  0  0
126127  1  0  0  0  0
128126  4  0  0  0  0
129128  1  0  0  0  0
130128  4  0  0  0  0
131130  1  0  0  0  0
132130  4  0  0  0  0
133132  1  0  0  0  0
134132  4  0  0  0  0
135134  1  0  0  0  0
136 28  1  0  0  0  0
137 29  2  0  0  0  0
138 29  1  0  0  0  0
139138  4  0  0  0  0
140139  1  0  0  0  0
141139  4  0  0  0  0
142141  1  0  0  0  0
143141  4  0  0  0  0
144143  1  0  0  0  0
145143  4  0  0  0  0
146145  1  0  0  0  0
147138  4  0  0  0  0
148147  1  0  0  0  0
149  6  1  0  0  0  0
150149  1  0  0  0  0
151149  1  0  0  0  0
152  9  1  0  0  0  0
153152  1  0  0  0  0
154152  1  0  0  0  0
155152  1  0  0  0  0
156  9  1  0  0  0  0
157156  1  0  0  0  0
158156  1  0  0  0  0
159156  1  0  0  0  0
160 10  1  0  0  0  0
161160  1  0  0  0  0
162160  1  0  0  0  0
163160  1  0  0  0  0
164 10  1  0  0  0  0
165164  1  0  0  0  0
166164  1  0  0  0  0
167164  1  0  0  0  0
168 10  1  0  0  0  0
169168  1  0  0  0  0
170168  1  0  0  0  0
171168  1  0  0  0  0
172 13  1  0  0  0  0
173172  1  0  0  0  0
174172  1  0  0  0  0
175172  1  0  0  0  0
176175  1  0  0  0  0
177175  1  0  0  0  0
178175  1  0  0  0  0
179178  1  0  0  0  0
180178  1  0  0  0  0
181 13  1  0  0  0  0
182181  1  0  0  0  0
183181  1  0  0  0  0
  8122  1  0  0  0  0
  9149  1  0  0  0  0
 12125  1  0  0  0  0
 16 17  1  0  0  0  0
 18 19  1  0  0  0  0
 22 23  1  0  0  0  0
 24 25  1  0  0  0  0
 30 34  1  0  0  0  0
 35 37  1  0  0  0  0
 42 46  1  0  0  0  0
 47 49  1  0  0  0  0
 54 58  1  0  0  0  0
 59 61  1  0  0  0  0
 66 70  1  0  0  0  0
 71 73  1  0  0  0  0
 78 82  1  0  0  0  0
 83 85  1  0  0  0  0
 90 94  1  0  0  0  0
 95 97  1  0  0  0  0
126136  4  0  0  0  0
134136  4  0  0  0  0
145147  4  0  0  0  0
178181  1  0  0  0  0
M  END
$$$$
NOMTAO

From CSD data. Using bond type 'Any'. Matching problem. No disordered atoms. Largest molecule.
216235  0  0  0  0  0  0  0  0999 V2000
    3.7183    4.0260   17.0836 Y   0  0  0  0  0  0  0  0  0  0  0  0
    0.9296    2.3926   18.6090 B   0  0  0  0  0  0  0  0  0  0  0  0
    4.9502    6.0630   15.0211 P   0  0  0  0  0  0  0  0  0  0  0  0
    6.6517    2.9526   18.7611 Si  0  0  0  0  0  0  0  0  0  0  0  0
    7.0166    5.4559   17.3610 Si  0  0  0  0  0  0  0  0  0  0  0  0
    2.8826    6.2971   17.7144 O   0  0  0  0  0  0  0  0  0  0  0  0
    0.3944    3.2627   17.4380 N   0  0  0  0  0  0  0  0  0  0  0  0
    1.2663    3.9395   16.6080 N   0  0  0  0  0  0  0  0  0  0  0  0
    1.8980    1.3334   18.0829 N   0  0  0  0  0  0  0  0  0  0  0  0
    3.0201    1.6577   17.3373 N   0  0  0  0  0  0  0  0  0  0  0  0
    1.6176    3.2681   19.6746 N   0  0  0  0  0  0  0  0  0  0  0  0
    2.7916    3.9179   19.4243 N   0  0  0  0  0  0  0  0  0  0  0  0
    5.9155    4.1947   17.7886 N   0  0  0  0  0  0  0  0  0  0  0  0
    4.1917    3.5896   14.8262 N   0  0  0  0  0  0  0  0  0  0  0  0
    5.2600    4.4894   14.4574 N   0  0  0  0  0  0  0  0  0  0  0  0
   -2.0563    2.8479   17.7449 C   0  0  0  0  0  0  0  0  0  0  0  0
   -2.0571    1.8880   17.6057 H   0  0  0  0  0  0  0  0  0  0  0  0
   -2.8733    3.2276   17.3864 H   0  0  0  0  0  0  0  0  0  0  0  0
   -2.0015    3.0365   18.6950 H   0  0  0  0  0  0  0  0  0  0  0  0
   -0.8658    3.4586   17.0408 C   0  0  0  0  0  0  0  0  0  0  0  0
   -0.8376    4.2570   15.9422 C   0  0  0  0  0  0  0  0  0  0  0  0
   -1.5781    4.5649   15.4508 H   0  0  0  0  0  0  0  0  0  0  0  0
    0.4808    4.5245   15.6934 C   0  0  0  0  0  0  0  0  0  0  0  0
    1.0862    5.3500   14.5912 C   0  0  0  0  0  0  0  0  0  0  0  0
    1.9856    5.6148   14.8421 H   0  0  0  0  0  0  0  0  0  0  0  0
    0.5458    6.1424   14.4452 H   0  0  0  0  0  0  0  0  0  0  0  0
    1.1196    4.8267   13.7754 H   0  0  0  0  0  0  0  0  0  0  0  0
    0.6823   -0.6836   18.9129 C   0  0  0  0  0  0  0  0  0  0  0  0
    0.4899   -0.1892   19.7249 H   0  0  0  0  0  0  0  0  0  0  0  0
    0.9371   -1.5916   19.1398 H   0  0  0  0  0  0  0  0  0  0  0  0
   -0.1080   -0.7009   18.3503 H   0  0  0  0  0  0  0  0  0  0  0  0
    1.7998   -0.0216   18.1799 C   0  0  0  0  0  0  0  0  0  0  0  0
    2.8431   -0.5701   17.4842 C   0  0  0  0  0  0  0  0  0  0  0  0
    3.0272   -1.4850   17.3733 H   0  0  0  0  0  0  0  0  0  0  0  0
    3.5746    0.4891   16.9759 C   0  0  0  0  0  0  0  0  0  0  0  0
    4.7830    0.4269   16.1287 C   0  0  0  0  0  0  0  0  0  0  0  0
    4.5226    0.4416   15.1941 H   0  0  0  0  0  0  0  0  0  0  0  0
    5.2681   -0.3907   16.3168 H   0  0  0  0  0  0  0  0  0  0  0  0
    5.3498    1.1911   16.3179 H   0  0  0  0  0  0  0  0  0  0  0  0
   -0.0462    2.9654   21.5280 C   0  0  0  0  0  0  0  0  0  0  0  0
   -0.8083    3.4486   21.1728 H   0  0  0  0  0  0  0  0  0  0  0  0
   -0.0239    3.0605   22.4930 H   0  0  0  0  0  0  0  0  0  0  0  0
   -0.1220    2.0265   21.2972 H   0  0  0  0  0  0  0  0  0  0  0  0
    1.2095    3.5207   20.9455 C   0  0  0  0  0  0  0  0  0  0  0  0
    2.1453    4.3381   21.5196 C   0  0  0  0  0  0  0  0  0  0  0  0
    2.1317    4.6754   22.3968 H   0  0  0  0  0  0  0  0  0  0  0  0
    3.1202    4.5718   20.5596 C   0  0  0  0  0  0  0  0  0  0  0  0
    4.3444    5.3756   20.7198 C   0  0  0  0  0  0  0  0  0  0  0  0
    4.9070    5.2672   19.9368 H   0  0  0  0  0  0  0  0  0  0  0  0
    4.8261    5.0772   21.5073 H   0  0  0  0  0  0  0  0  0  0  0  0
    4.1073    6.3104   20.8206 H   0  0  0  0  0  0  0  0  0  0  0  0
    5.4150    1.8482   19.6506 C   0  0  0  0  0  0  0  0  0  0  0  0
    4.9516    2.3623   20.3295 H   0  0  0  0  0  0  0  0  0  0  0  0
    5.8845    1.1090   20.0690 H   0  0  0  0  0  0  0  0  0  0  0  0
    4.7725    1.5019   19.0117 H   0  0  0  0  0  0  0  0  0  0  0  0
    7.7276    3.5883   20.1640 C   0  0  0  0  0  0  0  0  0  0  0  0
    8.4943    4.0562   19.7970 H   0  0  0  0  0  0  0  0  0  0  0  0
    8.0324    2.8411   20.7021 H   0  0  0  0  0  0  0  0  0  0  0  0
    7.2124    4.1962   20.7170 H   0  0  0  0  0  0  0  0  0  0  0  0
    7.7854    1.7928   17.7816 C   0  0  0  0  0  0  0  0  0  0  0  0
    7.5230    1.7962   16.8478 H   0  0  0  0  0  0  0  0  0  0  0  0
    7.7109    0.8927   18.1352 H   0  0  0  0  0  0  0  0  0  0  0  0
    8.7038    2.0957   17.8601 H   0  0  0  0  0  0  0  0  0  0  0  0
    7.3398    6.6902   18.7394 C   0  0  0  0  0  0  0  0  0  0  0  0
    6.4967    7.0541   19.0514 H   0  0  0  0  0  0  0  0  0  0  0  0
    7.8990    7.4084   18.4055 H   0  0  0  0  0  0  0  0  0  0  0  0
    7.7906    6.2437   19.4735 H   0  0  0  0  0  0  0  0  0  0  0  0
    8.7209    4.8731   16.8323 C   0  0  0  0  0  0  0  0  0  0  0  0
    9.1750    4.4735   17.5903 H   0  0  0  0  0  0  0  0  0  0  0  0
    9.2348    5.6293   16.5088 H   0  0  0  0  0  0  0  0  0  0  0  0
    8.6323    4.2156   16.1247 H   0  0  0  0  0  0  0  0  0  0  0  0
    6.4597    6.5672   15.9148 C   0  0  0  0  0  0  0  0  0  0  0  0
    6.3199    7.4720   16.2633 H   0  0  0  0  0  0  0  0  0  0  0  0
    7.1950    6.6147   15.2679 H   0  0  0  0  0  0  0  0  0  0  0  0
    3.5546    3.0330   13.6943 C   0  0  0  0  0  0  0  0  0  0  0  0
    3.9176    3.3302   12.3856 C   0  0  0  0  0  0  0  0  0  0  0  0
    4.6461    3.9037   12.2280 H   0  0  0  0  0  0  0  0  0  0  0  0
    3.2221    2.7952   11.3046 C   0  0  0  0  0  0  0  0  0  0  0  0
    3.4695    3.0300   10.4285 H   0  0  0  0  0  0  0  0  0  0  0  0
    2.1725    1.9252   11.5091 C   0  0  0  0  0  0  0  0  0  0  0  0
    1.7002    1.5633   10.7814 H   0  0  0  0  0  0  0  0  0  0  0  0
    1.8334    1.5969   12.7978 C   0  0  0  0  0  0  0  0  0  0  0  0
    1.1322    0.9877   12.9456 H   0  0  0  0  0  0  0  0  0  0  0  0
    2.4968    2.1413   13.8881 C   0  0  0  0  0  0  0  0  0  0  0  0
    2.2343    1.9086   14.7602 H   0  0  0  0  0  0  0  0  0  0  0  0
    6.4754    3.9517   14.0185 C   0  0  0  0  0  0  0  0  0  0  0  0
    6.7552    2.5764   14.0921 C   0  0  0  0  0  0  0  0  0  0  0  0
    6.1021    1.9895   14.4268 H   0  0  0  0  0  0  0  0  0  0  0  0
    7.9542    2.0819   13.6884 C   0  0  0  0  0  0  0  0  0  0  0  0
    8.1218    1.1600   13.7673 H   0  0  0  0  0  0  0  0  0  0  0  0
    8.9277    2.9033   13.1654 C   0  0  0  0  0  0  0  0  0  0  0  0
    9.7532    2.5494   12.8892 H   0  0  0  0  0  0  0  0  0  0  0  0
    8.6675    4.2584   13.0537 C   0  0  0  0  0  0  0  0  0  0  0  0
    9.3246    4.8337   12.7049 H   0  0  0  0  0  0  0  0  0  0  0  0
    7.4438    4.7717   13.4531 C   0  0  0  0  0  0  0  0  0  0  0  0
    7.2670    5.6885   13.3403 H   0  0  0  0  0  0  0  0  0  0  0  0
    1.5248    6.5929   18.1602 C   0  0  0  0  0  0  0  0  0  0  0  0
    1.1458    5.8284   18.6432 H   0  0  0  0  0  0  0  0  0  0  0  0
    0.9474    6.7987   17.3953 H   0  0  0  0  0  0  0  0  0  0  0  0
    1.6439    7.7547   19.0455 C   0  0  0  0  0  0  0  0  0  0  0  0
    0.8577    8.3323   18.9522 H   0  0  0  0  0  0  0  0  0  0  0  0
    1.7073    7.4637   19.9785 H   0  0  0  0  0  0  0  0  0  0  0  0
    2.8531    8.4829   18.6590 C   0  0  0  0  0  0  0  0  0  0  0  0
    3.3453    8.7804   19.4532 H   0  0  0  0  0  0  0  0  0  0  0  0
    2.6269    9.2665   18.1166 H   0  0  0  0  0  0  0  0  0  0  0  0
    3.6868    7.4899   17.8504 C   0  0  0  0  0  0  0  0  0  0  0  0
    3.9009    7.8611   16.9689 H   0  0  0  0  0  0  0  0  0  0  0  0
    4.5249    7.2868   18.3163 H   0  0  0  0  0  0  0  0  0  0  0  0
    5.0064    7.4470   13.1902 P   0  0  0  0  0  0  0  0  0  0  0  0
    3.3050   10.5574    9.4502 Si  0  0  0  0  0  0  0  0  0  0  0  0
    2.9400    8.0541   10.8503 Si  0  0  0  0  0  0  0  0  0  0  0  0
    4.0412    9.3153   10.4227 N   0  0  0  0  0  0  0  0  0  0  0  0
    5.7650    9.9204   13.3851 N   0  0  0  0  0  0  0  0  0  0  0  0
    4.6966    9.0206   13.7539 N   0  0  0  0  0  0  0  0  0  0  0  0
    4.5416   11.6618    8.5607 C   0  0  0  0  0  0  0  0  0  0  0  0
    5.0050   11.1477    7.8818 H   0  0  0  0  0  0  0  0  0  0  0  0
    4.0721   12.4010    8.1423 H   0  0  0  0  0  0  0  0  0  0  0  0
    5.1841   12.0081    9.1996 H   0  0  0  0  0  0  0  0  0  0  0  0
    2.2291    9.9217    8.0473 C   0  0  0  0  0  0  0  0  0  0  0  0
    1.4623    9.4538    8.4143 H   0  0  0  0  0  0  0  0  0  0  0  0
    1.9242   10.6689    7.5092 H   0  0  0  0  0  0  0  0  0  0  0  0
    2.7442    9.3138    7.4943 H   0  0  0  0  0  0  0  0  0  0  0  0
    2.1712   11.7172   10.4297 C   0  0  0  0  0  0  0  0  0  0  0  0
    2.4337   11.7138   11.3635 H   0  0  0  0  0  0  0  0  0  0  0  0
    2.2457   12.6173   10.0761 H   0  0  0  0  0  0  0  0  0  0  0  0
    1.2528   11.4143   10.3512 H   0  0  0  0  0  0  0  0  0  0  0  0
    2.6168    6.8198    9.4719 C   0  0  0  0  0  0  0  0  0  0  0  0
    3.4599    6.4559    9.1599 H   0  0  0  0  0  0  0  0  0  0  0  0
    2.0576    6.1016    9.8058 H   0  0  0  0  0  0  0  0  0  0  0  0
    2.1661    7.2663    8.7378 H   0  0  0  0  0  0  0  0  0  0  0  0
    1.2358    8.6369   11.3790 C   0  0  0  0  0  0  0  0  0  0  0  0
    0.7816    9.0365   10.6210 H   0  0  0  0  0  0  0  0  0  0  0  0
    0.7218    7.8807   11.7025 H   0  0  0  0  0  0  0  0  0  0  0  0
    1.3244    9.2944   12.0866 H   0  0  0  0  0  0  0  0  0  0  0  0
    3.4970    6.9428   12.2965 C   0  0  0  0  0  0  0  0  0  0  0  0
    3.6368    6.0380   11.9480 H   0  0  0  0  0  0  0  0  0  0  0  0
    2.7617    6.8953   12.9434 H   0  0  0  0  0  0  0  0  0  0  0  0
    6.4020   10.4770   14.5170 C   0  0  0  0  0  0  0  0  0  0  0  0
    6.0390   10.1798   15.8257 C   0  0  0  0  0  0  0  0  0  0  0  0
    5.3106    9.6063   15.9833 H   0  0  0  0  0  0  0  0  0  0  0  0
    6.7346   10.7148   16.9068 C   0  0  0  0  0  0  0  0  0  0  0  0
    6.4871   10.4800   17.7828 H   0  0  0  0  0  0  0  0  0  0  0  0
    7.7841   11.5848   16.7022 C   0  0  0  0  0  0  0  0  0  0  0  0
    8.2565   11.9467   17.4299 H   0  0  0  0  0  0  0  0  0  0  0  0
    8.1232   11.9131   15.4135 C   0  0  0  0  0  0  0  0  0  0  0  0
    8.8244   12.5223   15.2657 H   0  0  0  0  0  0  0  0  0  0  0  0
    7.4599   11.3687   14.3232 C   0  0  0  0  0  0  0  0  0  0  0  0
    7.7223   11.6014   13.4511 H   0  0  0  0  0  0  0  0  0  0  0  0
    3.4813    9.5583   14.1928 C   0  0  0  0  0  0  0  0  0  0  0  0
    3.2014   10.9336   14.1192 C   0  0  0  0  0  0  0  0  0  0  0  0
    3.8545   11.5205   13.7845 H   0  0  0  0  0  0  0  0  0  0  0  0
    2.0024   11.4281   14.5229 C   0  0  0  0  0  0  0  0  0  0  0  0
    1.8348   12.3500   14.4440 H   0  0  0  0  0  0  0  0  0  0  0  0
    1.0289   10.6067   15.0459 C   0  0  0  0  0  0  0  0  0  0  0  0
    0.2034   10.9606   15.3221 H   0  0  0  0  0  0  0  0  0  0  0  0
    1.2892    9.2516   15.1577 C   0  0  0  0  0  0  0  0  0  0  0  0
    0.6321    8.6763   15.5064 H   0  0  0  0  0  0  0  0  0  0  0  0
    2.5128    8.7383   14.7582 C   0  0  0  0  0  0  0  0  0  0  0  0
    2.6896    7.8215   14.8711 H   0  0  0  0  0  0  0  0  0  0  0  0
    6.2383    9.4840   11.1277 Y   0  0  0  0  0  0  0  0  0  0  0  0
    9.0270   11.1174    9.6023 B   0  0  0  0  0  0  0  0  0  0  0  0
    7.0741    7.2129   10.4969 O   0  0  0  0  0  0  0  0  0  0  0  0
    9.5622   10.2473   10.7733 N   0  0  0  0  0  0  0  0  0  0  0  0
    8.6903    9.5705   11.6033 N   0  0  0  0  0  0  0  0  0  0  0  0
    8.0587   12.1766   10.1284 N   0  0  0  0  0  0  0  0  0  0  0  0
    6.9365   11.8523   10.8740 N   0  0  0  0  0  0  0  0  0  0  0  0
    8.3390   10.2419    8.5367 N   0  0  0  0  0  0  0  0  0  0  0  0
    7.1650    9.5921    8.7870 N   0  0  0  0  0  0  0  0  0  0  0  0
   12.0129   10.6621   10.4664 C   0  0  0  0  0  0  0  0  0  0  0  0
   12.0138   11.6220   10.6056 H   0  0  0  0  0  0  0  0  0  0  0  0
   12.8300   10.2824   10.8249 H   0  0  0  0  0  0  0  0  0  0  0  0
   11.9582   10.4735    9.5163 H   0  0  0  0  0  0  0  0  0  0  0  0
   10.8224   10.0514   11.1705 C   0  0  0  0  0  0  0  0  0  0  0  0
   10.7942    9.2530   12.2691 C   0  0  0  0  0  0  0  0  0  0  0  0
   11.5348    8.9451   12.7605 H   0  0  0  0  0  0  0  0  0  0  0  0
    9.4759    8.9855   12.5179 C   0  0  0  0  0  0  0  0  0  0  0  0
    8.8705    8.1600   13.6201 C   0  0  0  0  0  0  0  0  0  0  0  0
    7.9710    7.8952   13.3693 H   0  0  0  0  0  0  0  0  0  0  0  0
    9.4109    7.3676   13.7661 H   0  0  0  0  0  0  0  0  0  0  0  0
    8.8371    8.6833   14.4359 H   0  0  0  0  0  0  0  0  0  0  0  0
    9.2743   14.1936    9.2984 C   0  0  0  0  0  0  0  0  0  0  0  0
    9.4667   13.6992    8.4864 H   0  0  0  0  0  0  0  0  0  0  0  0
    9.0195   15.1016    9.0715 H   0  0  0  0  0  0  0  0  0  0  0  0
   10.0647   14.2109    9.8610 H   0  0  0  0  0  0  0  0  0  0  0  0
    8.1569   13.5316   10.0314 C   0  0  0  0  0  0  0  0  0  0  0  0
    7.1135   14.0801   10.7271 C   0  0  0  0  0  0  0  0  0  0  0  0
    6.9294   14.9950   10.8380 H   0  0  0  0  0  0  0  0  0  0  0  0
    6.3820   13.0209   11.2354 C   0  0  0  0  0  0  0  0  0  0  0  0
    5.1737   13.0831   12.0826 C   0  0  0  0  0  0  0  0  0  0  0  0
    5.4341   13.0684   13.0172 H   0  0  0  0  0  0  0  0  0  0  0  0
    4.6886   13.9007   11.8945 H   0  0  0  0  0  0  0  0  0  0  0  0
    4.6068   12.3189   11.8934 H   0  0  0  0  0  0  0  0  0  0  0  0
   10.0028   10.5446    6.6833 C   0  0  0  0  0  0  0  0  0  0  0  0
   10.7649   10.0614    7.0385 H   0  0  0  0  0  0  0  0  0  0  0  0
    9.9805   10.4495    5.7183 H   0  0  0  0  0  0  0  0  0  0  0  0
   10.0787   11.4835    6.9141 H   0  0  0  0  0  0  0  0  0  0  0  0
    8.7471    9.9893    7.2658 C   0  0  0  0  0  0  0  0  0  0  0  0
    7.8114    9.1719    6.6917 C   0  0  0  0  0  0  0  0  0  0  0  0
    7.8250    8.8346    5.8145 H   0  0  0  0  0  0  0  0  0  0  0  0
    6.8365    8.9382    7.6518 C   0  0  0  0  0  0  0  0  0  0  0  0
    5.6122    8.1344    7.4915 C   0  0  0  0  0  0  0  0  0  0  0  0
    5.0496    8.2428    8.2745 H   0  0  0  0  0  0  0  0  0  0  0  0
    5.1306    8.4328    6.7040 H   0  0  0  0  0  0  0  0  0  0  0  0
    5.8494    7.1996    7.3907 H   0  0  0  0  0  0  0  0  0  0  0  0
    8.4318    6.9171   10.0511 C   0  0  0  0  0  0  0  0  0  0  0  0
    8.8108    7.6816    9.5681 H   0  0  0  0  0  0  0  0  0  0  0  0
    9.0092    6.7113   10.8160 H   0  0  0  0  0  0  0  0  0  0  0  0
    8.3127    5.7553    9.1659 C   0  0  0  0  0  0  0  0  0  0  0  0
    9.0990    5.1777    9.2591 H   0  0  0  0  0  0  0  0  0  0  0  0
    8.2493    6.0463    8.2328 H   0  0  0  0  0  0  0  0  0  0  0  0
    7.1036    5.0271    9.5523 C   0  0  0  0  0  0  0  0  0  0  0  0
    6.6114    4.7296    8.7581 H   0  0  0  0  0  0  0  0  0  0  0  0
    7.3298    4.2435   10.0947 H   0  0  0  0  0  0  0  0  0  0  0  0
    6.2698    6.0201   10.3609 C   0  0  0  0  0  0  0  0  0  0  0  0
    6.0557    5.6489   11.2424 H   0  0  0  0  0  0  0  0  0  0  0  0
    5.4317    6.2232    9.8950 H   0  0  0  0  0  0  0  0  0  0  0  0
  1  3  1  0  0  0  0
  2  7  1  0  0  0  0
  3 15  1  0  0  0  0
  4 13  1  0  0  0  0
  5 13  1  0  0  0  0
  6  1  1  0  0  0  0
  7  8  1  0  0  0  0
  8  1  1  0  0  0  0
  9  2  1  0  0  0  0
 10  1  1  0  0  0  0
 11  2  1  0  0  0  0
 12  1  1  0  0  0  0
 13  1  1  0  0  0  0
 14  1  1  0  0  0  0
 15 14  1  0  0  0  0
 16 17  1  0  0  0  0
 18 16  1  0  0  0  0
 19 16  1  0  0  0  0
 20  7  1  0  0  0  0
 21 20  2  0  0  0  0
 22 21  1  0  0  0  0
 23  8  2  0  0  0  0
 24 23  1  0  0  0  0
 25 24  1  0  0  0  0
 26 24  1  0  0  0  0
 27 24  1  0  0  0  0
 28 29  1  0  0  0  0
 30 28  1  0  0  0  0
 31 28  1  0  0  0  0
 32  9  1  0  0  0  0
 33 32  2  0  0  0  0
 34 33  1  0  0  0  0
 35 10  2  0  0  0  0
 36 35  1  0  0  0  0
 37 36  1  0  0  0  0
 38 36  1  0  0  0  0
 39 36  1  0  0  0  0
 40 41  1  0  0  0  0
 42 40  1  0  0  0  0
 43 40  1  0  0  0  0
 44 11  1  0  0  0  0
 45 44  2  0  0  0  0
 46 45  1  0  0  0  0
 47 12  2  0  0  0  0
 48 47  1  0  0  0  0
 49 48  1  0  0  0  0
 50 48  1  0  0  0  0
 51 48  1  0  0  0  0
 52  4  1  0  0  0  0
 53 52  1  0  0  0  0
 54 52  1  0  0  0  0
 55 52  1  0  0  0  0
 56  4  1  0  0  0  0
 57 56  1  0  0  0  0
 58 56  1  0  0  0  0
 59 56  1  0  0  0  0
 60  4  1  0  0  0  0
 61 60  1  0  0  0  0
 62 60  1  0  0  0  0
 63 60  1  0  0  0  0
 64  5  1  0  0  0  0
 65 64  1  0  0  0  0
 66 64  1  0  0  0  0
 67 64  1  0  0  0  0
 68  5  1  0  0  0  0
 69 68  1  0  0  0  0
 70 68  1  0  0  0  0
 71 68  1  0  0  0  0
 72  3  1  0  0  0  0
 73 72  1  0  0  0  0
 74 72  1  0  0  0  0
 75 14  1  0  0  0  0
 76 75  4  0  0  0  0
 77 76  1  0  0  0  0
 78 76  4  0  0  0  0
 79 78  1  0  0  0  0
 80 78  4  0  0  0  0
 81 80  1  0  0  0  0
 82 80  4  0  0  0  0
 83 82  1  0  0  0  0
 84 75  4  0  0  0  0
 85 84  1  0  0  0  0
 86 15  1  0  0  0  0
 87 86  4  0  0  0  0
 88 87  1  0  0  0  0
 89 87  4  0  0  0  0
 90 89  1  0  0  0  0
 91 89  4  0  0  0  0
 92 91  1  0  0  0  0
 93 91  4  0  0  0  0
 94 93  1  0  0  0  0
 95 86  4  0  0  0  0
 96 95  1  0  0  0  0
 97  6  1  0  0  0  0
 98 97  1  0  0  0  0
 99 97  1  0  0  0  0
100 97  1  0  0  0  0
101100  1  0  0  0  0
102100  1  0  0  0  0
103100  1  0  0  0  0
104103  1  0  0  0  0
105103  1  0  0  0  0
106  6  1  0  0  0  0
107106  1  0  0  0  0
108106  1  0  0  0  0
109  3  1  0  0  0  0
110112  1  0  0  0  0
111112  1  0  0  0  0
112160  1  0  0  0  0
113114  1  0  0  0  0
114109  1  0  0  0  0
115110  1  0  0  0  0
116115  1  0  0  0  0
117115  1  0  0  0  0
118115  1  0  0  0  0
119110  1  0  0  0  0
120119  1  0  0  0  0
121119  1  0  0  0  0
122119  1  0  0  0  0
123110  1  0  0  0  0
124123  1  0  0  0  0
125123  1  0  0  0  0
126123  1  0  0  0  0
127111  1  0  0  0  0
128127  1  0  0  0  0
129127  1  0  0  0  0
130127  1  0  0  0  0
131111  1  0  0  0  0
132131  1  0  0  0  0
133131  1  0  0  0  0
134131  1  0  0  0  0
135109  1  0  0  0  0
136135  1  0  0  0  0
137135  1  0  0  0  0
138113  1  0  0  0  0
139138  4  0  0  0  0
140139  1  0  0  0  0
141139  4  0  0  0  0
142141  1  0  0  0  0
143141  4  0  0  0  0
144143  1  0  0  0  0
145143  4  0  0  0  0
146145  1  0  0  0  0
147138  4  0  0  0  0
148147  1  0  0  0  0
149114  1  0  0  0  0
150149  4  0  0  0  0
151150  1  0  0  0  0
152150  4  0  0  0  0
153152  1  0  0  0  0
154152  4  0  0  0  0
155154  1  0  0  0  0
156154  4  0  0  0  0
157156  1  0  0  0  0
158149  4  0  0  0  0
159158  1  0  0  0  0
160109  1  0  0  0  0
161163  1  0  0  0  0
162160  1  0  0  0  0
163164  1  0  0  0  0
164160  1  0  0  0  0
165161  1  0  0  0  0
166160  1  0  0  0  0
167161  1  0  0  0  0
168160  1  0  0  0  0
169170  1  0  0  0  0
171169  1  0  0  0  0
172169  1  0  0  0  0
173163  1  0  0  0  0
174173  2  0  0  0  0
175174  1  0  0  0  0
176164  2  0  0  0  0
177176  1  0  0  0  0
178177  1  0  0  0  0
179177  1  0  0  0  0
180177  1  0  0  0  0
181182  1  0  0  0  0
183181  1  0  0  0  0
184181  1  0  0  0  0
185165  1  0  0  0  0
186185  2  0  0  0  0
187186  1  0  0  0  0
188166  2  0  0  0  0
189188  1  0  0  0  0
190189  1  0  0  0  0
191189  1  0  0  0  0
192189  1  0  0  0  0
193194  1  0  0  0  0
195193  1  0  0  0  0
196193  1  0  0  0  0
197167  1  0  0  0  0
198197  2  0  0  0  0
199198  1  0  0  0  0
200168  2  0  0  0  0
201200  1  0  0  0  0
202201  1  0  0  0  0
203201  1  0  0  0  0
204201  1  0  0  0  0
205162  1  0  0  0  0
206205  1  0  0  0  0
207205  1  0  0  0  0
208205  1  0  0  0  0
209208  1  0  0  0  0
210208  1  0  0  0  0
211208  1  0  0  0  0
212211  1  0  0  0  0
213211  1  0  0  0  0
214162  1  0  0  0  0
215214  1  0  0  0  0
216214  1  0  0  0  0
  5 72  1  0  0  0  0
  9 10  1  0  0  0  0
 11 12  1  0  0  0  0
 16 20  1  0  0  0  0
 21 23  1  0  0  0  0
 28 32  1  0  0  0  0
 33 35  1  0  0  0  0
 40 44  1  0  0  0  0
 45 47  1  0  0  0  0
 82 84  4  0  0  0  0
 93 95  4  0  0  0  0
103106  1  0  0  0  0
111135  1  0  0  0  0
113160  1  0  0  0  0
145147  4  0  0  0  0
156158  4  0  0  0  0
165166  1  0  0  0  0
167168  1  0  0  0  0
169173  1  0  0  0  0
174176  1  0  0  0  0
181185  1  0  0  0  0
186188  1  0  0  0  0
193197  1  0  0  0  0
198200  1  0  0  0  0
211214  1  0  0  0  0
M  END
$$$$
NOMTIW

From CSD data. Using bond type 'Any'. Matching problem. No disordered atoms. Largest molecule.
160173  0  0  0  0  0  0  0  0999 V2000
    5.9126    3.5401    5.1271 Y   0  0  0  0  0  0  0  0  0  0  0  0
    2.5135    3.5018   -2.4704 Y   0  0  0  0  0  0  0  0  0  0  0  0
    9.1048    2.7998    6.2470 B   0  0  0  0  0  0  0  0  0  0  0  0
   10.0112    2.5722    6.6028 H   0  0  0  0  0  0  0  0  0  0  0  0
    0.3273    2.6340   -5.0731 B   0  0  0  0  0  0  0  0  0  0  0  0
   -0.3008    2.4127   -5.8192 H   0  0  0  0  0  0  0  0  0  0  0  0
    3.6321    4.2095    2.9481 P   0  0  0  0  0  0  0  0  0  0  0  0
    2.8740    4.9365    1.0055 P   0  0  0  0  0  0  0  0  0  0  0  0
    5.0328    5.7877    3.5677 Se  0  0  0  0  0  0  0  0  0  0  0  0
    4.5465    2.2280    2.9489 Se  0  0  0  0  0  0  0  0  0  0  0  0
    1.7873    3.1391    0.2651 Se  0  0  0  0  0  0  0  0  0  0  0  0
    4.2086    3.2090    8.1787 Si  0  0  0  0  0  0  0  0  0  0  0  0
    2.6089    4.3058    5.9793 Si  0  0  0  0  0  0  0  0  0  0  0  0
    3.0412    6.8355   -3.7647 Si  0  0  0  0  0  0  0  0  0  0  0  0
    4.5640    6.0074   -1.4166 Si  0  0  0  0  0  0  0  0  0  0  0  0
    4.2438    1.8451   -2.3878 O   0  0  0  0  0  0  0  0  0  0  0  0
    8.6435    4.1172    6.9159 N   0  0  0  0  0  0  0  0  0  0  0  0
    7.4706    4.7340    6.5308 N   0  0  0  0  0  0  0  0  0  0  0  0
    9.2194    2.9827    4.7255 N   0  0  0  0  0  0  0  0  0  0  0  0
    8.1186    3.3484    3.9703 N   0  0  0  0  0  0  0  0  0  0  0  0
    8.1551    1.6205    6.5585 N   0  0  0  0  0  0  0  0  0  0  0  0
    6.9101    1.5223    5.9867 N   0  0  0  0  0  0  0  0  0  0  0  0
   -0.1838    3.9083   -4.3412 N   0  0  0  0  0  0  0  0  0  0  0  0
    0.3735    4.2936   -3.1400 N   0  0  0  0  0  0  0  0  0  0  0  0
    1.7547    2.8369   -5.6552 N   0  0  0  0  0  0  0  0  0  0  0  0
    2.8203    3.1928   -4.8384 N   0  0  0  0  0  0  0  0  0  0  0  0
    0.3207    1.4781   -4.0492 N   0  0  0  0  0  0  0  0  0  0  0  0
    1.1940    1.4169   -2.9863 N   0  0  0  0  0  0  0  0  0  0  0  0
    4.1106    3.6547    6.5112 N   0  0  0  0  0  0  0  0  0  0  0  0
    3.4030    5.5799   -2.6057 N   0  0  0  0  0  0  0  0  0  0  0  0
   10.6049    4.5052    8.4390 C   0  0  0  0  0  0  0  0  0  0  0  0
   10.5155    3.6621    8.9292 H   0  0  0  0  0  0  0  0  0  0  0  0
   10.8855    5.2140    9.0542 H   0  0  0  0  0  0  0  0  0  0  0  0
   11.2765    4.4022    7.7317 H   0  0  0  0  0  0  0  0  0  0  0  0
    9.2760    4.8723    7.8199 C   0  0  0  0  0  0  0  0  0  0  0  0
    8.5124    5.9999    8.0458 C   0  0  0  0  0  0  0  0  0  0  0  0
    8.7127    6.7150    8.6392 H   0  0  0  0  0  0  0  0  0  0  0  0
    7.4033    5.8803    7.2379 C   0  0  0  0  0  0  0  0  0  0  0  0
    6.2422    6.8200    7.0588 C   0  0  0  0  0  0  0  0  0  0  0  0
    6.3723    7.3480    6.2436 H   0  0  0  0  0  0  0  0  0  0  0  0
    6.1864    7.4200    7.8315 H   0  0  0  0  0  0  0  0  0  0  0  0
    5.4126    6.3038    6.9849 H   0  0  0  0  0  0  0  0  0  0  0  0
   11.6492    2.5098    4.4482 C   0  0  0  0  0  0  0  0  0  0  0  0
   11.9174    3.1506    5.1384 H   0  0  0  0  0  0  0  0  0  0  0  0
   12.2926    2.5360    3.7092 H   0  0  0  0  0  0  0  0  0  0  0  0
   11.6270    1.6074    4.8298 H   0  0  0  0  0  0  0  0  0  0  0  0
   10.2988    2.8648    3.9401 C   0  0  0  0  0  0  0  0  0  0  0  0
    9.9256    3.1274    2.6534 C   0  0  0  0  0  0  0  0  0  0  0  0
   10.4813    3.1182    1.8833 H   0  0  0  0  0  0  0  0  0  0  0  0
    8.5559    3.4098    2.7001 C   0  0  0  0  0  0  0  0  0  0  0  0
    7.6410    3.7904    1.5671 C   0  0  0  0  0  0  0  0  0  0  0  0
    6.9852    3.0770    1.4241 H   0  0  0  0  0  0  0  0  0  0  0  0
    8.1685    3.9185    0.7512 H   0  0  0  0  0  0  0  0  0  0  0  0
    7.1753    4.6235    1.7892 H   0  0  0  0  0  0  0  0  0  0  0  0
    9.6950    0.3028    8.0263 C   0  0  0  0  0  0  0  0  0  0  0  0
   10.4499    0.1631    7.4179 H   0  0  0  0  0  0  0  0  0  0  0  0
    9.5967   -0.4781    8.6104 H   0  0  0  0  0  0  0  0  0  0  0  0
    9.8598    1.1001    8.5733 H   0  0  0  0  0  0  0  0  0  0  0  0
    8.4330    0.4955    7.2281 C   0  0  0  0  0  0  0  0  0  0  0  0
    7.3477   -0.3539    7.0919 C   0  0  0  0  0  0  0  0  0  0  0  0
    7.2582   -1.2258    7.4577 H   0  0  0  0  0  0  0  0  0  0  0  0
    6.4159    0.3236    6.3151 C   0  0  0  0  0  0  0  0  0  0  0  0
    5.1041   -0.1428    5.7837 C   0  0  0  0  0  0  0  0  0  0  0  0
    4.4494    0.5840    5.8412 H   0  0  0  0  0  0  0  0  0  0  0  0
    4.7902   -0.9073    6.3111 H   0  0  0  0  0  0  0  0  0  0  0  0
    5.2080   -0.4145    4.8470 H   0  0  0  0  0  0  0  0  0  0  0  0
   -2.0619    4.5285   -5.8499 C   0  0  0  0  0  0  0  0  0  0  0  0
   -1.5182    4.7685   -6.6295 H   0  0  0  0  0  0  0  0  0  0  0  0
   -2.8456    5.1153   -5.8057 H   0  0  0  0  0  0  0  0  0  0  0  0
   -2.3562    3.5969   -5.9322 H   0  0  0  0  0  0  0  0  0  0  0  0
   -1.2533    4.6863   -4.6137 C   0  0  0  0  0  0  0  0  0  0  0  0
   -1.3735    5.6028   -3.5956 C   0  0  0  0  0  0  0  0  0  0  0  0
   -2.0168    6.2990   -3.5277 H   0  0  0  0  0  0  0  0  0  0  0  0
   -0.3679    5.3093   -2.6865 C   0  0  0  0  0  0  0  0  0  0  0  0
   -0.1155    5.9270   -1.3666 C   0  0  0  0  0  0  0  0  0  0  0  0
   -0.4897    5.3562   -0.6628 H   0  0  0  0  0  0  0  0  0  0  0  0
   -0.5409    6.8090   -1.3320 H   0  0  0  0  0  0  0  0  0  0  0  0
    0.8497    6.0236   -1.2301 H   0  0  0  0  0  0  0  0  0  0  0  0
    1.2606    2.4060   -8.0536 C   0  0  0  0  0  0  0  0  0  0  0  0
    1.7788    2.3363   -8.8830 H   0  0  0  0  0  0  0  0  0  0  0  0
    0.5663    3.0892   -8.1591 H   0  0  0  0  0  0  0  0  0  0  0  0
    0.8430    1.5425   -7.8558 H   0  0  0  0  0  0  0  0  0  0  0  0
    2.1614    2.7853   -6.9400 C   0  0  0  0  0  0  0  0  0  0  0  0
    3.4746    3.0961   -6.9809 C   0  0  0  0  0  0  0  0  0  0  0  0
    4.0336    3.1293   -7.7490 H   0  0  0  0  0  0  0  0  0  0  0  0
    3.8455    3.3598   -5.6435 C   0  0  0  0  0  0  0  0  0  0  0  0
    5.2139    3.7354   -5.1510 C   0  0  0  0  0  0  0  0  0  0  0  0
    5.1510    4.0599   -4.2289 H   0  0  0  0  0  0  0  0  0  0  0  0
    5.5842    4.4406   -5.7216 H   0  0  0  0  0  0  0  0  0  0  0  0
    5.7993    2.9495   -5.1817 H   0  0  0  0  0  0  0  0  0  0  0  0
   -1.6620    0.2265   -4.9330 C   0  0  0  0  0  0  0  0  0  0  0  0
   -2.2211   -0.5232   -4.6434 H   0  0  0  0  0  0  0  0  0  0  0  0
   -1.2709    0.0240   -5.8090 H   0  0  0  0  0  0  0  0  0  0  0  0
   -2.2095    1.0368   -5.0001 H   0  0  0  0  0  0  0  0  0  0  0  0
   -0.5825    0.4436   -3.9518 C   0  0  0  0  0  0  0  0  0  0  0  0
   -0.2589   -0.2757   -2.8325 C   0  0  0  0  0  0  0  0  0  0  0  0
   -0.7062   -1.0497   -2.5094 H   0  0  0  0  0  0  0  0  0  0  0  0
    0.8455    0.3389   -2.2601 C   0  0  0  0  0  0  0  0  0  0  0  0
    1.5995   -0.1252   -1.0512 C   0  0  0  0  0  0  0  0  0  0  0  0
    2.0419    0.6401   -0.6276 H   0  0  0  0  0  0  0  0  0  0  0  0
    2.2738   -0.7847   -1.3183 H   0  0  0  0  0  0  0  0  0  0  0  0
    0.9769   -0.5352   -0.4145 H   0  0  0  0  0  0  0  0  0  0  0  0
    5.9480    3.0819    8.8751 C   0  0  0  0  0  0  0  0  0  0  0  0
    6.4445    2.3912    8.3876 H   0  0  0  0  0  0  0  0  0  0  0  0
    5.9029    2.8434    9.8240 H   0  0  0  0  0  0  0  0  0  0  0  0
    6.4033    3.9434    8.7749 H   0  0  0  0  0  0  0  0  0  0  0  0
    3.4807    1.5080    8.5266 C   0  0  0  0  0  0  0  0  0  0  0  0
    2.5639    1.4689    8.1830 H   0  0  0  0  0  0  0  0  0  0  0  0
    3.4756    1.3464    9.4925 H   0  0  0  0  0  0  0  0  0  0  0  0
    4.0250    0.8236    8.0833 H   0  0  0  0  0  0  0  0  0  0  0  0
    3.3953    4.4771    9.3170 C   0  0  0  0  0  0  0  0  0  0  0  0
    3.8777    5.3277    9.2561 H   0  0  0  0  0  0  0  0  0  0  0  0
    3.4205    4.1514   10.2402 H   0  0  0  0  0  0  0  0  0  0  0  0
    2.4629    4.6107    9.0431 H   0  0  0  0  0  0  0  0  0  0  0  0
    1.0845    3.4669    6.6811 C   0  0  0  0  0  0  0  0  0  0  0  0
    1.1490    2.4993    6.5390 H   0  0  0  0  0  0  0  0  0  0  0  0
    0.2852    3.8104    6.2295 H   0  0  0  0  0  0  0  0  0  0  0  0
    1.0219    3.6524    7.6413 H   0  0  0  0  0  0  0  0  0  0  0  0
    2.4228    6.1550    6.3560 C   0  0  0  0  0  0  0  0  0  0  0  0
    2.6731    6.3258    7.2885 H   0  0  0  0  0  0  0  0  0  0  0  0
    1.4913    6.4258    6.2142 H   0  0  0  0  0  0  0  0  0  0  0  0
    3.0067    6.6707    5.7618 H   0  0  0  0  0  0  0  0  0  0  0  0
    2.2581    4.1725    4.1154 C   0  0  0  0  0  0  0  0  0  0  0  0
    1.7636    3.3277    3.9649 H   0  0  0  0  0  0  0  0  0  0  0  0
    1.6443    4.9119    3.8743 H   0  0  0  0  0  0  0  0  0  0  0  0
    4.4602    4.8796    0.1012 C   0  0  0  0  0  0  0  0  0  0  0  0
    4.6233    3.9476   -0.1894 H   0  0  0  0  0  0  0  0  0  0  0  0
    5.1872    5.1282    0.7260 H   0  0  0  0  0  0  0  0  0  0  0  0
    4.3835    7.7124   -0.6677 C   0  0  0  0  0  0  0  0  0  0  0  0
    4.4452    8.3878   -1.3740 H   0  0  0  0  0  0  0  0  0  0  0  0
    5.0988    7.8581   -0.0127 H   0  0  0  0  0  0  0  0  0  0  0  0
    3.5140    7.7828   -0.2218 H   0  0  0  0  0  0  0  0  0  0  0  0
    6.3397    5.8400   -1.9681 C   0  0  0  0  0  0  0  0  0  0  0  0
    6.4745    4.9577   -2.3726 H   0  0  0  0  0  0  0  0  0  0  0  0
    6.9331    5.9402   -1.1956 H   0  0  0  0  0  0  0  0  0  0  0  0
    6.5432    6.5359   -2.6288 H   0  0  0  0  0  0  0  0  0  0  0  0
    2.1656    6.2955   -5.3223 C   0  0  0  0  0  0  0  0  0  0  0  0
    2.7438    5.6856   -5.8264 H   0  0  0  0  0  0  0  0  0  0  0  0
    1.9616    7.0810   -5.8708 H   0  0  0  0  0  0  0  0  0  0  0  0
    1.3332    5.8361   -5.0857 H   0  0  0  0  0  0  0  0  0  0  0  0
    4.5955    7.6656   -4.4035 C   0  0  0  0  0  0  0  0  0  0  0  0
    4.9663    8.2450   -3.7060 H   0  0  0  0  0  0  0  0  0  0  0  0
    4.3774    8.2031   -5.1934 H   0  0  0  0  0  0  0  0  0  0  0  0
    5.2547    6.9820   -4.6454 H   0  0  0  0  0  0  0  0  0  0  0  0
    1.9123    8.1843   -3.1070 C   0  0  0  0  0  0  0  0  0  0  0  0
    0.9778    7.9052   -3.2028 H   0  0  0  0  0  0  0  0  0  0  0  0
    2.0597    9.0106   -3.6133 H   0  0  0  0  0  0  0  0  0  0  0  0
    2.1096    8.3432   -2.1597 H   0  0  0  0  0  0  0  0  0  0  0  0
    5.1902    1.5879   -1.2887 C   0  0  0  0  0  0  0  0  0  0  0  0
    4.7150    1.5591   -0.4203 H   0  0  0  0  0  0  0  0  0  0  0  0
    5.8787    2.2985   -1.2498 H   0  0  0  0  0  0  0  0  0  0  0  0
    5.8324    0.2328   -1.5944 C   0  0  0  0  0  0  0  0  0  0  0  0
    5.3411   -0.5057   -1.1554 H   0  0  0  0  0  0  0  0  0  0  0  0
    6.7794    0.2102   -1.3063 H   0  0  0  0  0  0  0  0  0  0  0  0
    5.7148    0.1466   -3.1245 C   0  0  0  0  0  0  0  0  0  0  0  0
    6.4288    0.6684   -3.5691 H   0  0  0  0  0  0  0  0  0  0  0  0
    5.7544   -0.7918   -3.4355 H   0  0  0  0  0  0  0  0  0  0  0  0
    4.3758    0.7423   -3.3717 C   0  0  0  0  0  0  0  0  0  0  0  0
    4.3146    1.0911   -4.2960 H   0  0  0  0  0  0  0  0  0  0  0  0
    3.6637    0.0682   -3.2375 H   0  0  0  0  0  0  0  0  0  0  0  0
  1  9  1  0  0  0  0
  2 11  1  0  0  0  0
  3  4  1  0  0  0  0
  5  6  1  0  0  0  0
  7  8  1  0  0  0  0
  8 11  2  0  0  0  0
  9  7  1  0  0  0  0
 10  1  1  0  0  0  0
 12 29  1  0  0  0  0
 13 29  1  0  0  0  0
 14 30  1  0  0  0  0
 15 30  1  0  0  0  0
 16  2  1  0  0  0  0
 17  3  1  0  0  0  0
 18  1  1  0  0  0  0
 19  3  1  0  0  0  0
 20  1  1  0  0  0  0
 21  3  1  0  0  0  0
 22  1  1  0  0  0  0
 23  5  1  0  0  0  0
 24  2  1  0  0  0  0
 25  5  1  0  0  0  0
 26  2  1  0  0  0  0
 27  5  1  0  0  0  0
 28  2  1  0  0  0  0
 29  1  1  0  0  0  0
 30  2  1  0  0  0  0
 31 32  1  0  0  0  0
 33 31  1  0  0  0  0
 34 31  1  0  0  0  0
 35 17  1  0  0  0  0
 36 35  2  0  0  0  0
 37 36  1  0  0  0  0
 38 18  2  0  0  0  0
 39 38  1  0  0  0  0
 40 39  1  0  0  0  0
 41 39  1  0  0  0  0
 42 39  1  0  0  0  0
 43 44  1  0  0  0  0
 45 43  1  0  0  0  0
 46 43  1  0  0  0  0
 47 19  1  0  0  0  0
 48 47  2  0  0  0  0
 49 48  1  0  0  0  0
 50 20  2  0  0  0  0
 51 50  1  0  0  0  0
 52 51  1  0  0  0  0
 53 51  1  0  0  0  0
 54 51  1  0  0  0  0
 55 56  1  0  0  0  0
 57 55  1  0  0  0  0
 58 55  1  0  0  0  0
 59 21  1  0  0  0  0
 60 59  2  0  0  0  0
 61 60  1  0  0  0  0
 62 22  2  0  0  0  0
 63 62  1  0  0  0  0
 64 63  1  0  0  0  0
 65 63  1  0  0  0  0
 66 63  1  0  0  0  0
 67 68  1  0  0  0  0
 69 67  1  0  0  0  0
 70 67  1  0  0  0  0
 71 23  1  0  0  0  0
 72 71  2  0  0  0  0
 73 72  1  0  0  0  0
 74 24  2  0  0  0  0
 75 74  1  0  0  0  0
 76 75  1  0  0  0  0
 77 75  1  0  0  0  0
 78 75  1  0  0  0  0
 79 80  1  0  0  0  0
 81 79  1  0  0  0  0
 82 79  1  0  0  0  0
 83 25  1  0  0  0  0
 84 83  2  0  0  0  0
 85 84  1  0  0  0  0
 86 26  2  0  0  0  0
 87 86  1  0  0  0  0
 88 87  1  0  0  0  0
 89 87  1  0  0  0  0
 90 87  1  0  0  0  0
 91 92  1  0  0  0  0
 93 91  1  0  0  0  0
 94 91  1  0  0  0  0
 95 27  1  0  0  0  0
 96 95  2  0  0  0  0
 97 96  1  0  0  0  0
 98 28  2  0  0  0  0
 99 98  1  0  0  0  0
100 99  1  0  0  0  0
101 99  1  0  0  0  0
102 99  1  0  0  0  0
103 12  1  0  0  0  0
104103  1  0  0  0  0
105103  1  0  0  0  0
106103  1  0  0  0  0
107 12  1  0  0  0  0
108107  1  0  0  0  0
109107  1  0  0  0  0
110107  1  0  0  0  0
111 12  1  0  0  0  0
112111  1  0  0  0  0
113111  1  0  0  0  0
114111  1  0  0  0  0
115 13  1  0  0  0  0
116115  1  0  0  0  0
117115  1  0  0  0  0
118115  1  0  0  0  0
119 13  1  0  0  0  0
120119  1  0  0  0  0
121119  1  0  0  0  0
122119  1  0  0  0  0
123  7  1  0  0  0  0
124123  1  0  0  0  0
125123  1  0  0  0  0
126  8  1  0  0  0  0
127126  1  0  0  0  0
128126  1  0  0  0  0
129 15  1  0  0  0  0
130129  1  0  0  0  0
131129  1  0  0  0  0
132129  1  0  0  0  0
133 15  1  0  0  0  0
134133  1  0  0  0  0
135133  1  0  0  0  0
136133  1  0  0  0  0
137 14  1  0  0  0  0
138137  1  0  0  0  0
139137  1  0  0  0  0
140137  1  0  0  0  0
141 14  1  0  0  0  0
142141  1  0  0  0  0
143141  1  0  0  0  0
144141  1  0  0  0  0
145 14  1  0  0  0  0
146145  1  0  0  0  0
147145  1  0  0  0  0
148145  1  0  0  0  0
149 16  1  0  0  0  0
150149  1  0  0  0  0
151149  1  0  0  0  0
152149  1  0  0  0  0
153152  1  0  0  0  0
154152  1  0  0  0  0
155152  1  0  0  0  0
156155  1  0  0  0  0
157155  1  0  0  0  0
158 16  1  0  0  0  0
159158  1  0  0  0  0
160158  1  0  0  0  0
  7 10  2  0  0  0  0
 13123  1  0  0  0  0
 15126  1  0  0  0  0
 17 18  1  0  0  0  0
 19 20  1  0  0  0  0
 21 22  1  0  0  0  0
 23 24  1  0  0  0  0
 25 26  1  0  0  0  0
 27 28  1  0  0  0  0
 31 35  1  0  0  0  0
 36 38  1  0  0  0  0
 43 47  1  0  0  0  0
 48 50  1  0  0  0  0
 55 59  1  0  0  0  0
 60 62  1  0  0  0  0
 67 71  1  0  0  0  0
 72 74  1  0  0  0  0
 79 83  1  0  0  0  0
 84 86  1  0  0  0  0
 91 95  1  0  0  0  0
 96 98  1  0  0  0  0
155158  1  0  0  0  0
M  END
$$$$
NONHAB

From CSD data. Using bond type 'Any'. No disordered atoms. Largest molecule.
 86 92  0  0  0  0  0  0  0  0999 V2000
    1.5162    7.1162    6.3675 Li  0  3  0  0  0  0  0  0  0  0  0  0
    3.0892    4.6122    7.3831 P   0  0  0  0  0  0  0  0  0  0  0  0
    0.7833    5.5581    4.9559 B   0  5  0  0  0  0  0  0  0  0  0  0
    0.2128    5.9128    5.8994 H   0  0  0  0  0  0  0  0  0  0  0  0
    1.6339    6.3217    4.7547 H   0  0  0  0  0  0  0  0  0  0  0  0
    0.0509    5.5889    4.0780 H   0  0  0  0  0  0  0  0  0  0  0  0
    2.5003    6.0078    7.4784 O   0  0  0  0  0  0  0  0  0  0  0  0
    2.7341    3.8024    9.0218 C   0  0  0  0  0  0  0  0  0  0  0  0
    1.2764    3.3639    8.9918 C   0  0  0  0  0  0  0  0  0  0  0  0
    1.1504    2.6955    8.2871 H   0  0  0  0  0  0  0  0  0  0  0  0
    0.7054    4.1407    8.8118 H   0  0  0  0  0  0  0  0  0  0  0  0
    1.0342    2.9755    9.8581 H   0  0  0  0  0  0  0  0  0  0  0  0
    2.8892    4.8473   10.1362 C   0  0  0  0  0  0  0  0  0  0  0  0
    3.8215    5.1447   10.1771 H   0  0  0  0  0  0  0  0  0  0  0  0
    2.6342    4.4485   10.9953 H   0  0  0  0  0  0  0  0  0  0  0  0
    2.3090    5.6152    9.9475 H   0  0  0  0  0  0  0  0  0  0  0  0
    3.6509    2.6125    9.3713 C   0  0  0  0  0  0  0  0  0  0  0  0
    3.5726    1.9245    8.6776 H   0  0  0  0  0  0  0  0  0  0  0  0
    3.3824    2.2353   10.2352 H   0  0  0  0  0  0  0  0  0  0  0  0
    4.5804    2.9198    9.4229 H   0  0  0  0  0  0  0  0  0  0  0  0
    4.8812    4.8415    6.9722 C   0  0  0  0  0  0  0  0  0  0  0  0
    4.8789    5.7529    5.7250 C   0  0  0  0  0  0  0  0  0  0  0  0
    4.3884    6.5782    5.9247 H   0  0  0  0  0  0  0  0  0  0  0  0
    4.4450    5.2869    4.9797 H   0  0  0  0  0  0  0  0  0  0  0  0
    5.8021    5.9729    5.4790 H   0  0  0  0  0  0  0  0  0  0  0  0
    5.6037    5.5735    8.1166 C   0  0  0  0  0  0  0  0  0  0  0  0
    5.1160    6.3936    8.3393 H   0  0  0  0  0  0  0  0  0  0  0  0
    6.5143    5.8014    7.8355 H   0  0  0  0  0  0  0  0  0  0  0  0
    5.6419    4.9908    8.9042 H   0  0  0  0  0  0  0  0  0  0  0  0
    5.6553    3.5612    6.6334 C   0  0  0  0  0  0  0  0  0  0  0  0
    5.2013    3.0883    5.9053 H   0  0  0  0  0  0  0  0  0  0  0  0
    5.6935    2.9842    7.4241 H   0  0  0  0  0  0  0  0  0  0  0  0
    6.5655    3.7948    6.3540 H   0  0  0  0  0  0  0  0  0  0  0  0
    1.3672    4.0567    5.1549 C   0  0  0  0  0  0  0  0  0  0  0  0
    2.3395    3.5930    6.0733 C   0  0  0  0  0  0  0  0  0  0  0  0
    2.7744    2.2542    6.0463 C   0  0  0  0  0  0  0  0  0  0  0  0
    3.4369    1.9685    6.6655 H   0  0  0  0  0  0  0  0  0  0  0  0
    2.2591    1.3431    5.1368 C   0  0  0  0  0  0  0  0  0  0  0  0
    2.5670    0.4441    5.1258 H   0  0  0  0  0  0  0  0  0  0  0  0
    1.2911    1.7630    4.2503 C   0  0  0  0  0  0  0  0  0  0  0  0
    0.9156    1.1506    3.6278 H   0  0  0  0  0  0  0  0  0  0  0  0
    0.8701    3.0801    4.2714 C   0  0  0  0  0  0  0  0  0  0  0  0
    0.2016    3.3434    3.6502 H   0  0  0  0  0  0  0  0  0  0  0  0
    2.6320    7.5412    8.5374 Li  0  3  0  0  0  0  0  0  0  0  0  0
    1.0590   10.0452    7.5218 P   0  0  0  0  0  0  0  0  0  0  0  0
    3.3649    9.0993    9.9490 B   0  5  0  0  0  0  0  0  0  0  0  0
    3.9353    8.7446    9.0055 H   0  0  0  0  0  0  0  0  0  0  0  0
    2.5142    8.3357   10.1502 H   0  0  0  0  0  0  0  0  0  0  0  0
    4.0972    9.0685   10.8269 H   0  0  0  0  0  0  0  0  0  0  0  0
    1.6479    8.6496    7.4265 O   0  0  0  0  0  0  0  0  0  0  0  0
    1.4141   10.8550    5.8831 C   0  0  0  0  0  0  0  0  0  0  0  0
    2.8718   11.2935    5.9131 C   0  0  0  0  0  0  0  0  0  0  0  0
    2.9977   11.9619    6.6178 H   0  0  0  0  0  0  0  0  0  0  0  0
    3.4428   10.5167    6.0931 H   0  0  0  0  0  0  0  0  0  0  0  0
    3.1140   11.6819    5.0468 H   0  0  0  0  0  0  0  0  0  0  0  0
    1.2590    9.8101    4.7687 C   0  0  0  0  0  0  0  0  0  0  0  0
    0.3266    9.5127    4.7278 H   0  0  0  0  0  0  0  0  0  0  0  0
    1.5140   10.2089    3.9096 H   0  0  0  0  0  0  0  0  0  0  0  0
    1.8391    9.0422    4.9574 H   0  0  0  0  0  0  0  0  0  0  0  0
    0.4972   12.0449    5.5336 C   0  0  0  0  0  0  0  0  0  0  0  0
    0.5755   12.7329    6.2273 H   0  0  0  0  0  0  0  0  0  0  0  0
    0.7658   12.4221    4.6697 H   0  0  0  0  0  0  0  0  0  0  0  0
   -0.4322   11.7376    5.4820 H   0  0  0  0  0  0  0  0  0  0  0  0
   -0.7330    9.8159    7.9327 C   0  0  0  0  0  0  0  0  0  0  0  0
   -0.7307    8.9045    9.1799 C   0  0  0  0  0  0  0  0  0  0  0  0
   -0.2402    8.0792    8.9802 H   0  0  0  0  0  0  0  0  0  0  0  0
   -0.2969    9.3705    9.9252 H   0  0  0  0  0  0  0  0  0  0  0  0
   -1.6539    8.6845    9.4259 H   0  0  0  0  0  0  0  0  0  0  0  0
   -1.4555    9.0839    6.7883 C   0  0  0  0  0  0  0  0  0  0  0  0
   -0.9678    8.2638    6.5656 H   0  0  0  0  0  0  0  0  0  0  0  0
   -2.3662    8.8560    7.0694 H   0  0  0  0  0  0  0  0  0  0  0  0
   -1.4937    9.6666    6.0007 H   0  0  0  0  0  0  0  0  0  0  0  0
   -1.5072   11.0962    8.2715 C   0  0  0  0  0  0  0  0  0  0  0  0
   -1.0532   11.5691    8.9996 H   0  0  0  0  0  0  0  0  0  0  0  0
   -1.5453   11.6732    7.4808 H   0  0  0  0  0  0  0  0  0  0  0  0
   -2.4174   10.8626    8.5509 H   0  0  0  0  0  0  0  0  0  0  0  0
    2.7810   10.6007    9.7500 C   0  0  0  0  0  0  0  0  0  0  0  0
    1.8086   11.0644    8.8316 C   0  0  0  0  0  0  0  0  0  0  0  0
    1.3737   12.4032    8.8586 C   0  0  0  0  0  0  0  0  0  0  0  0
    0.7112   12.6889    8.2394 H   0  0  0  0  0  0  0  0  0  0  0  0
    1.8891   13.3143    9.7681 C   0  0  0  0  0  0  0  0  0  0  0  0
    1.5812   14.2133    9.7791 H   0  0  0  0  0  0  0  0  0  0  0  0
    2.8570   12.8944   10.6546 C   0  0  0  0  0  0  0  0  0  0  0  0
    3.2325   13.5068   11.2770 H   0  0  0  0  0  0  0  0  0  0  0  0
    3.2780   11.5773   10.6334 C   0  0  0  0  0  0  0  0  0  0  0  0
    3.9465   11.3140   11.2547 H   0  0  0  0  0  0  0  0  0  0  0  0
  1  4  1  0  0  0  0
  2  7  2  0  0  0  0
  3  4  1  0  0  0  0
  5  1  1  0  0  0  0
  6  3  1  0  0  0  0
  7  1  1  0  0  0  0
  8  2  1  0  0  0  0
  9  8  1  0  0  0  0
 10  9  1  0  0  0  0
 11  9  1  0  0  0  0
 12  9  1  0  0  0  0
 13  8  1  0  0  0  0
 14 13  1  0  0  0  0
 15 13  1  0  0  0  0
 16 13  1  0  0  0  0
 17  8  1  0  0  0  0
 18 17  1  0  0  0  0
 19 17  1  0  0  0  0
 20 17  1  0  0  0  0
 21  2  1  0  0  0  0
 22 21  1  0  0  0  0
 23 22  1  0  0  0  0
 24 22  1  0  0  0  0
 25 22  1  0  0  0  0
 26 21  1  0  0  0  0
 27 26  1  0  0  0  0
 28 26  1  0  0  0  0
 29 26  1  0  0  0  0
 30 21  1  0  0  0  0
 31 30  1  0  0  0  0
 32 30  1  0  0  0  0
 33 30  1  0  0  0  0
 34  3  1  0  0  0  0
 35  2  1  0  0  0  0
 36 35  4  0  0  0  0
 37 36  1  0  0  0  0
 38 36  4  0  0  0  0
 39 38  1  0  0  0  0
 40 38  4  0  0  0  0
 41 40  1  0  0  0  0
 42 34  4  0  0  0  0
 43 42  1  0  0  0  0
 44  7  1  0  0  0  0
 45 50  2  0  0  0  0
 46 47  1  0  0  0  0
 47 44  1  0  0  0  0
 48 44  1  0  0  0  0
 49 46  1  0  0  0  0
 50  1  1  0  0  0  0
 51 45  1  0  0  0  0
 52 51  1  0  0  0  0
 53 52  1  0  0  0  0
 54 52  1  0  0  0  0
 55 52  1  0  0  0  0
 56 51  1  0  0  0  0
 57 56  1  0  0  0  0
 58 56  1  0  0  0  0
 59 56  1  0  0  0  0
 60 51  1  0  0  0  0
 61 60  1  0  0  0  0
 62 60  1  0  0  0  0
 63 60  1  0  0  0  0
 64 45  1  0  0  0  0
 65 64  1  0  0  0  0
 66 65  1  0  0  0  0
 67 65  1  0  0  0  0
 68 65  1  0  0  0  0
 69 64  1  0  0  0  0
 70 69  1  0  0  0  0
 71 69  1  0  0  0  0
 72 69  1  0  0  0  0
 73 64  1  0  0  0  0
 74 73  1  0  0  0  0
 75 73  1  0  0  0  0
 76 73  1  0  0  0  0
 77 46  1  0  0  0  0
 78 45  1  0  0  0  0
 79 78  4  0  0  0  0
 80 79  1  0  0  0  0
 81 79  4  0  0  0  0
 82 81  1  0  0  0  0
 83 81  4  0  0  0  0
 84 83  1  0  0  0  0
 85 77  4  0  0  0  0
 86 85  1  0  0  0  0
  3  5  1  0  0  0  0
 34 35  4  0  0  0  0
 40 42  4  0  0  0  0
 44 50  1  0  0  0  0
 46 48  1  0  0  0  0
 77 78  4  0  0  0  0
 83 85  4  0  0  0  0
M  CHG  4   1   1   3  -1  44   1  46  -1
M  END
$$$$
NONHEF

From CSD data. Using bond type 'Any'. No disordered atoms. Largest molecule.
 86 92  0  0  0  0  0  0  0  0999 V2000
    2.0402   12.4101    3.3911 Li  0  3  0  0  0  0  0  0  0  0  0  0
    3.3629   14.1869    5.6061 P   0  0  0  0  0  0  0  0  0  0  0  0
    1.2432   14.3861    2.8148 B   0  5  0  0  0  0  0  0  0  0  0  0
    0.7482   14.6912    1.9908 H   0  0  0  0  0  0  0  0  0  0  0  0
    0.6791   13.5413    3.2790 H   0  0  0  0  0  0  0  0  0  0  0  0
    2.2695   13.9332    2.4091 H   0  0  0  0  0  0  0  0  0  0  0  0
    2.9694   12.8757    4.9378 O   0  0  0  0  0  0  0  0  0  0  0  0
    2.9840   13.9879    7.4163 C   0  0  0  0  0  0  0  0  0  0  0  0
    3.4668   12.6025    7.8546 C   0  0  0  0  0  0  0  0  0  0  0  0
    3.2778   12.4781    8.8074 H   0  0  0  0  0  0  0  0  0  0  0  0
    4.4327   12.5298    7.6999 H   0  0  0  0  0  0  0  0  0  0  0  0
    3.0007   11.9149    7.3352 H   0  0  0  0  0  0  0  0  0  0  0  0
    1.4624   14.0200    7.5610 C   0  0  0  0  0  0  0  0  0  0  0  0
    1.2218   13.9144    8.5054 H   0  0  0  0  0  0  0  0  0  0  0  0
    1.0701   13.2878    7.0407 H   0  0  0  0  0  0  0  0  0  0  0  0
    1.1201   14.8766    7.2298 H   0  0  0  0  0  0  0  0  0  0  0  0
    3.5372   15.0761    8.3348 C   0  0  0  0  0  0  0  0  0  0  0  0
    3.2917   14.8766    9.2616 H   0  0  0  0  0  0  0  0  0  0  0  0
    3.1624   15.9421    8.0763 H   0  0  0  0  0  0  0  0  0  0  0  0
    4.5140   15.1043    8.2545 H   0  0  0  0  0  0  0  0  0  0  0  0
    5.1332   14.5279    5.1963 C   0  0  0  0  0  0  0  0  0  0  0  0
    5.9984   13.5460    5.8939 C   0  0  0  0  0  0  0  0  0  0  0  0
    6.7498   13.3042    5.3134 H   0  0  0  0  0  0  0  0  0  0  0  0
    5.4766   12.7457    6.1064 H   0  0  0  0  0  0  0  0  0  0  0  0
    6.3404   13.9426    6.7220 H   0  0  0  0  0  0  0  0  0  0  0  0
    5.1987   14.2359    3.6755 C   0  0  0  0  0  0  0  0  0  0  0  0
    6.0589   14.5434    3.3209 H   0  0  0  0  0  0  0  0  0  0  0  0
    4.4705   14.7076    3.2205 H   0  0  0  0  0  0  0  0  0  0  0  0
    5.1073   13.2714    3.5241 H   0  0  0  0  0  0  0  0  0  0  0  0
    5.4989   15.9796    5.5166 C   0  0  0  0  0  0  0  0  0  0  0  0
    6.4661   16.1017    5.4213 H   0  0  0  0  0  0  0  0  0  0  0  0
    5.2324   16.1885    6.4368 H   0  0  0  0  0  0  0  0  0  0  0  0
    5.0314   16.5781    4.8976 H   0  0  0  0  0  0  0  0  0  0  0  0
    1.5281   15.5603    3.8654 C   0  0  0  0  0  0  0  0  0  0  0  0
    2.3838   15.5802    4.9696 C   0  0  0  0  0  0  0  0  0  0  0  0
    2.5234   16.7815    5.6998 C   0  0  0  0  0  0  0  0  0  0  0  0
    3.1318   16.8057    6.4292 H   0  0  0  0  0  0  0  0  0  0  0  0
    1.8089   17.9200    5.3920 C   0  0  0  0  0  0  0  0  0  0  0  0
    1.9241   18.7137    5.8997 H   0  0  0  0  0  0  0  0  0  0  0  0
    0.9412   17.8869    4.3539 C   0  0  0  0  0  0  0  0  0  0  0  0
    0.4269   18.6550    4.1331 H   0  0  0  0  0  0  0  0  0  0  0  0
    0.8174   16.7609    3.6446 C   0  0  0  0  0  0  0  0  0  0  0  0
    0.1949   16.7682    2.9269 H   0  0  0  0  0  0  0  0  0  0  0  0
    3.3173   11.0583    4.9738 Li  0  3  0  0  0  0  0  0  0  0  0  0
    1.9946    9.2815    2.7587 P   0  0  0  0  0  0  0  0  0  0  0  0
    4.1144    9.0823    5.5501 B   0  5  0  0  0  0  0  0  0  0  0  0
    4.6094    8.7772    6.3740 H   0  0  0  0  0  0  0  0  0  0  0  0
    4.6785    9.9271    5.0858 H   0  0  0  0  0  0  0  0  0  0  0  0
    3.0881    9.5352    5.9558 H   0  0  0  0  0  0  0  0  0  0  0  0
    2.3882   10.5927    3.4271 O   0  0  0  0  0  0  0  0  0  0  0  0
    2.3735    9.4805    0.9486 C   0  0  0  0  0  0  0  0  0  0  0  0
    1.8908   10.8659    0.5103 C   0  0  0  0  0  0  0  0  0  0  0  0
    2.0797   10.9903   -0.4425 H   0  0  0  0  0  0  0  0  0  0  0  0
    0.9249   10.9386    0.6650 H   0  0  0  0  0  0  0  0  0  0  0  0
    2.3568   11.5535    1.0297 H   0  0  0  0  0  0  0  0  0  0  0  0
    3.8951    9.4484    0.8039 C   0  0  0  0  0  0  0  0  0  0  0  0
    4.1357    9.5540   -0.1405 H   0  0  0  0  0  0  0  0  0  0  0  0
    4.2874   10.1806    1.3242 H   0  0  0  0  0  0  0  0  0  0  0  0
    4.2374    8.5918    1.1351 H   0  0  0  0  0  0  0  0  0  0  0  0
    1.8204    8.3923    0.0301 C   0  0  0  0  0  0  0  0  0  0  0  0
    2.0658    8.5918   -0.8967 H   0  0  0  0  0  0  0  0  0  0  0  0
    2.1951    7.5263    0.2886 H   0  0  0  0  0  0  0  0  0  0  0  0
    0.8435    8.3641    0.1104 H   0  0  0  0  0  0  0  0  0  0  0  0
    0.2244    8.9405    3.1686 C   0  0  0  0  0  0  0  0  0  0  0  0
   -0.6408    9.9224    2.4710 C   0  0  0  0  0  0  0  0  0  0  0  0
   -1.3923   10.1642    3.0515 H   0  0  0  0  0  0  0  0  0  0  0  0
   -0.1190   10.7227    2.2585 H   0  0  0  0  0  0  0  0  0  0  0  0
   -0.9828    9.5258    1.6429 H   0  0  0  0  0  0  0  0  0  0  0  0
    0.1589    9.2325    4.6894 C   0  0  0  0  0  0  0  0  0  0  0  0
   -0.7013    8.9250    5.0440 H   0  0  0  0  0  0  0  0  0  0  0  0
    0.8870    8.7608    5.1444 H   0  0  0  0  0  0  0  0  0  0  0  0
    0.2503   10.1970    4.8408 H   0  0  0  0  0  0  0  0  0  0  0  0
   -0.1413    7.4888    2.8482 C   0  0  0  0  0  0  0  0  0  0  0  0
   -1.1085    7.3667    2.9436 H   0  0  0  0  0  0  0  0  0  0  0  0
    0.1252    7.2799    1.9281 H   0  0  0  0  0  0  0  0  0  0  0  0
    0.3262    6.8903    3.4672 H   0  0  0  0  0  0  0  0  0  0  0  0
    3.8295    7.9081    4.4995 C   0  0  0  0  0  0  0  0  0  0  0  0
    2.9738    7.8882    3.3953 C   0  0  0  0  0  0  0  0  0  0  0  0
    2.8342    6.6869    2.6651 C   0  0  0  0  0  0  0  0  0  0  0  0
    2.2257    6.6627    1.9356 H   0  0  0  0  0  0  0  0  0  0  0  0
    3.5487    5.5484    2.9729 C   0  0  0  0  0  0  0  0  0  0  0  0
    3.4335    4.7547    2.4651 H   0  0  0  0  0  0  0  0  0  0  0  0
    4.4164    5.5815    4.0110 C   0  0  0  0  0  0  0  0  0  0  0  0
    4.9306    4.8134    4.2318 H   0  0  0  0  0  0  0  0  0  0  0  0
    4.5402    6.7075    4.7203 C   0  0  0  0  0  0  0  0  0  0  0  0
    5.1627    6.7002    5.4380 H   0  0  0  0  0  0  0  0  0  0  0  0
  1  5  1  0  0  0  0
  2  7  2  0  0  0  0
  3  4  1  0  0  0  0
  5  3  1  0  0  0  0
  6  1  1  0  0  0  0
  7  1  1  0  0  0  0
  8  2  1  0  0  0  0
  9  8  1  0  0  0  0
 10  9  1  0  0  0  0
 11  9  1  0  0  0  0
 12  9  1  0  0  0  0
 13  8  1  0  0  0  0
 14 13  1  0  0  0  0
 15 13  1  0  0  0  0
 16 13  1  0  0  0  0
 17  8  1  0  0  0  0
 18 17  1  0  0  0  0
 19 17  1  0  0  0  0
 20 17  1  0  0  0  0
 21  2  1  0  0  0  0
 22 21  1  0  0  0  0
 23 22  1  0  0  0  0
 24 22  1  0  0  0  0
 25 22  1  0  0  0  0
 26 21  1  0  0  0  0
 27 26  1  0  0  0  0
 28 26  1  0  0  0  0
 29 26  1  0  0  0  0
 30 21  1  0  0  0  0
 31 30  1  0  0  0  0
 32 30  1  0  0  0  0
 33 30  1  0  0  0  0
 34  3  1  0  0  0  0
 35  2  1  0  0  0  0
 36 35  4  0  0  0  0
 37 36  1  0  0  0  0
 38 36  4  0  0  0  0
 39 38  1  0  0  0  0
 40 38  4  0  0  0  0
 41 40  1  0  0  0  0
 42 34  4  0  0  0  0
 43 42  1  0  0  0  0
 44  7  1  0  0  0  0
 45 50  2  0  0  0  0
 46 47  1  0  0  0  0
 48 44  1  0  0  0  0
 49 44  1  0  0  0  0
 50  1  1  0  0  0  0
 51 45  1  0  0  0  0
 52 51  1  0  0  0  0
 53 52  1  0  0  0  0
 54 52  1  0  0  0  0
 55 52  1  0  0  0  0
 56 51  1  0  0  0  0
 57 56  1  0  0  0  0
 58 56  1  0  0  0  0
 59 56  1  0  0  0  0
 60 51  1  0  0  0  0
 61 60  1  0  0  0  0
 62 60  1  0  0  0  0
 63 60  1  0  0  0  0
 64 45  1  0  0  0  0
 65 64  1  0  0  0  0
 66 65  1  0  0  0  0
 67 65  1  0  0  0  0
 68 65  1  0  0  0  0
 69 64  1  0  0  0  0
 70 69  1  0  0  0  0
 71 69  1  0  0  0  0
 72 69  1  0  0  0  0
 73 64  1  0  0  0  0
 74 73  1  0  0  0  0
 75 73  1  0  0  0  0
 76 73  1  0  0  0  0
 77 46  1  0  0  0  0
 78 45  1  0  0  0  0
 79 78  4  0  0  0  0
 80 79  1  0  0  0  0
 81 79  4  0  0  0  0
 82 81  1  0  0  0  0
 83 81  4  0  0  0  0
 84 83  1  0  0  0  0
 85 77  4  0  0  0  0
 86 85  1  0  0  0  0
  3  6  1  0  0  0  0
 34 35  4  0  0  0  0
 40 42  4  0  0  0  0
 44 50  1  0  0  0  0
 46 48  1  0  0  0  0
 46 49  1  0  0  0  0
 77 78  4  0  0  0  0
 83 85  4  0  0  0  0
M  CHG  4   1   1   3  -1  44   1  46  -1
M  END
$$$$
NONHOP

From CSD data. Using bond type 'Any'. No disordered atoms. Largest molecule.
120123  0  0  0  0  0  0  0  0999 V2000
    5.1916   12.7270   12.9188 Mg  0  2  0  0  0  0  0  0  0  0  0  0
    7.2614   13.0841   15.5271 P   0  0  0  0  0  0  0  0  0  0  0  0
    3.4003   11.0170   10.6621 P   0  0  0  0  0  0  0  0  0  0  0  0
    6.7077   13.0242   14.1202 O   0  0  0  0  0  0  0  0  0  0  0  0
    3.8045   11.9242   11.8063 O   0  0  0  0  0  0  0  0  0  0  0  0
    4.7625   14.7051   12.4090 O   0  0  0  0  0  0  0  0  0  0  0  0
    4.0055   12.2563   15.1327 B   0  5  0  0  0  0  0  0  0  0  0  0
    3.9791   13.1499   14.4846 H   0  0  0  0  0  0  0  0  0  0  0  0
    4.6768   11.4299   14.5705 H   0  0  0  0  0  0  0  0  0  0  0  0
    6.6706   11.6678   11.1313 B   0  5  0  0  0  0  0  0  0  0  0  0
    6.3113   11.1138   12.0992 H   0  0  0  0  0  0  0  0  0  0  0  0
    6.2839   12.7339   11.1538 H   0  0  0  0  0  0  0  0  0  0  0  0
    8.2356   11.5552   15.8641 C   0  0  0  0  0  0  0  0  0  0  0  0
    7.3127   10.3746   15.5131 C   0  0  0  0  0  0  0  0  0  0  0  0
    6.5131   10.4037   16.0803 H   0  0  0  0  0  0  0  0  0  0  0  0
    7.7888    9.5318   15.6646 H   0  0  0  0  0  0  0  0  0  0  0  0
    7.0488   10.4345   14.5705 H   0  0  0  0  0  0  0  0  0  0  0  0
    9.4704   11.4789   14.9666 C   0  0  0  0  0  0  0  0  0  0  0  0
    9.2016   11.5824   14.0293 H   0  0  0  0  0  0  0  0  0  0  0  0
    9.9067   10.6089   15.0862 H   0  0  0  0  0  0  0  0  0  0  0  0
   10.0961   12.1927   15.2093 H   0  0  0  0  0  0  0  0  0  0  0  0
    8.6569   11.3972   17.3444 C   0  0  0  0  0  0  0  0  0  0  0  0
    7.8636   11.4444   17.9176 H   0  0  0  0  0  0  0  0  0  0  0  0
    9.2788   12.1146   17.5855 H   0  0  0  0  0  0  0  0  0  0  0  0
    9.0969   10.5290   17.4670 H   0  0  0  0  0  0  0  0  0  0  0  0
    8.2463   14.6628   15.5856 C   0  0  0  0  0  0  0  0  0  0  0  0
    9.2514   14.8408   16.7497 C   0  0  0  0  0  0  0  0  0  0  0  0
    9.9067   14.1125   16.7307 H   0  0  0  0  0  0  0  0  0  0  0  0
    8.7705   14.8263   17.6040 H   0  0  0  0  0  0  0  0  0  0  0  0
    9.7149   15.6999   16.6517 H   0  0  0  0  0  0  0  0  0  0  0  0
    9.0583   14.7536   14.2679 C   0  0  0  0  0  0  0  0  0  0  0  0
    9.7223   14.0344   14.2430 H   0  0  0  0  0  0  0  0  0  0  0  0
    9.5130   15.6200   14.2245 H   0  0  0  0  0  0  0  0  0  0  0  0
    8.4516   14.6646   13.5044 H   0  0  0  0  0  0  0  0  0  0  0  0
    7.2195   15.7980   15.5967 C   0  0  0  0  0  0  0  0  0  0  0  0
    6.6925   15.7544   16.4218 H   0  0  0  0  0  0  0  0  0  0  0  0
    6.6252   15.7090   14.8237 H   0  0  0  0  0  0  0  0  0  0  0  0
    7.6842   16.6607   15.5531 H   0  0  0  0  0  0  0  0  0  0  0  0
    5.9802   13.1228   16.7969 C   0  0  0  0  0  0  0  0  0  0  0  0
    4.6506   12.6671   16.5709 C   0  0  0  0  0  0  0  0  0  0  0  0
    3.8386   12.6250   17.7065 C   0  0  0  0  0  0  0  0  0  0  0  0
    2.9501   12.3089   17.6017 H   0  0  0  0  0  0  0  0  0  0  0  0
    4.2375   13.0100   18.9649 C   0  0  0  0  0  0  0  0  0  0  0  0
    3.6378   12.9446   19.6968 H   0  0  0  0  0  0  0  0  0  0  0  0
    5.5095   13.4931   19.1561 C   0  0  0  0  0  0  0  0  0  0  0  0
    5.7905   13.7946   20.0127 H   0  0  0  0  0  0  0  0  0  0  0  0
    6.3629   13.5295   18.0890 C   0  0  0  0  0  0  0  0  0  0  0  0
    7.2506   13.8419   18.2242 H   0  0  0  0  0  0  0  0  0  0  0  0
    2.5036   11.6678   15.3015 C   0  0  0  0  0  0  0  0  0  0  0  0
    1.3410   12.4179   15.1661 C   0  0  0  0  0  0  0  0  0  0  0  0
    0.0738   11.9293   15.3758 C   0  0  0  0  0  0  0  0  0  0  0  0
   -0.0887   10.6180   15.7317 C   0  0  0  0  0  0  0  0  0  0  0  0
    1.0143    9.8243   15.8773 C   0  0  0  0  0  0  0  0  0  0  0  0
    2.2612   10.3637   15.6773 C   0  0  0  0  0  0  0  0  0  0  0  0
    1.4312   13.7313   14.8207 F   0  0  0  0  0  0  0  0  0  0  0  0
   -1.0031   12.7276   15.2627 F   0  0  0  0  0  0  0  0  0  0  0  0
   -1.3283   10.1183   15.9440 F   0  0  0  0  0  0  0  0  0  0  0  0
    0.8688    8.5316   16.2288 F   0  0  0  0  0  0  0  0  0  0  0  0
    3.3164    9.5331   15.8789 F   0  0  0  0  0  0  0  0  0  0  0  0
    5.7459   15.6304   11.8725 C   0  0  0  0  0  0  0  0  0  0  0  0
    6.6527   15.2640   12.0225 H   0  0  0  0  0  0  0  0  0  0  0  0
    5.6809   16.4900   12.3593 H   0  0  0  0  0  0  0  0  0  0  0  0
    5.5501   15.8816   10.3896 C   0  0  0  0  0  0  0  0  0  0  0  0
    6.2266   16.5154   10.0737 H   0  0  0  0  0  0  0  0  0  0  0  0
    4.6569   16.2557   10.2363 H   0  0  0  0  0  0  0  0  0  0  0  0
    5.6386   15.0370    9.8995 H   0  0  0  0  0  0  0  0  0  0  0  0
    3.4509   15.2967   12.6410 C   0  0  0  0  0  0  0  0  0  0  0  0
    2.7782   14.5738   12.7147 H   0  0  0  0  0  0  0  0  0  0  0  0
    3.2067   15.8598   11.8646 H   0  0  0  0  0  0  0  0  0  0  0  0
    3.4058   16.1376   13.8881 C   0  0  0  0  0  0  0  0  0  0  0  0
    2.5066   16.5136   13.9968 H   0  0  0  0  0  0  0  0  0  0  0  0
    4.0589   16.8642   13.8157 H   0  0  0  0  0  0  0  0  0  0  0  0
    3.6228   15.5800   14.6658 H   0  0  0  0  0  0  0  0  0  0  0  0
    2.7964    9.4428   11.4144 C   0  0  0  0  0  0  0  0  0  0  0  0
    3.9821    8.9688   12.2799 C   0  0  0  0  0  0  0  0  0  0  0  0
    4.7515    8.7744   11.7043 H   0  0  0  0  0  0  0  0  0  0  0  0
    3.7275    8.1569   12.7658 H   0  0  0  0  0  0  0  0  0  0  0  0
    4.2233    9.6699   12.9191 H   0  0  0  0  0  0  0  0  0  0  0  0
    2.4189    8.3295   10.4375 C   0  0  0  0  0  0  0  0  0  0  0  0
    1.6669    8.6237    9.8809 H   0  0  0  0  0  0  0  0  0  0  0  0
    2.1602    7.5285   10.9401 H   0  0  0  0  0  0  0  0  0  0  0  0
    3.1868    8.1224    9.8647 H   0  0  0  0  0  0  0  0  0  0  0  0
    1.6064    9.7407   12.3233 C   0  0  0  0  0  0  0  0  0  0  0  0
    0.8472   10.0422   11.7809 H   0  0  0  0  0  0  0  0  0  0  0  0
    1.8513   10.4436   12.9609 H   0  0  0  0  0  0  0  0  0  0  0  0
    1.3579    8.9288   12.8122 H   0  0  0  0  0  0  0  0  0  0  0  0
    2.1458   11.9893    9.6988 C   0  0  0  0  0  0  0  0  0  0  0  0
    2.9466   13.1426    9.0617 C   0  0  0  0  0  0  0  0  0  0  0  0
    3.6029   12.7757    8.4315 H   0  0  0  0  0  0  0  0  0  0  0  0
    3.4110   13.6439    9.7625 H   0  0  0  0  0  0  0  0  0  0  0  0
    2.3347   13.7402    8.5848 H   0  0  0  0  0  0  0  0  0  0  0  0
    1.3634   11.2428    8.6011 C   0  0  0  0  0  0  0  0  0  0  0  0
    1.9933   10.8486    7.9600 H   0  0  0  0  0  0  0  0  0  0  0  0
    0.7749   11.8712    8.1342 H   0  0  0  0  0  0  0  0  0  0  0  0
    0.8247   10.5326    9.0076 H   0  0  0  0  0  0  0  0  0  0  0  0
    1.1267   12.5923   10.6672 C   0  0  0  0  0  0  0  0  0  0  0  0
    0.6030   11.8730   11.0818 H   0  0  0  0  0  0  0  0  0  0  0  0
    0.5257   13.1916   10.1782 H   0  0  0  0  0  0  0  0  0  0  0  0
    1.5971   13.0972   11.3628 H   0  0  0  0  0  0  0  0  0  0  0  0
    4.7585   10.5738    9.5558 C   0  0  0  0  0  0  0  0  0  0  0  0
    6.1204   10.8831    9.8273 C   0  0  0  0  0  0  0  0  0  0  0  0
    7.0399   10.4454    8.8578 C   0  0  0  0  0  0  0  0  0  0  0  0
    7.9608   10.6416    8.9890 H   0  0  0  0  0  0  0  0  0  0  0  0
    6.6753    9.7425    7.7185 C   0  0  0  0  0  0  0  0  0  0  0  0
    7.3403    9.4792    7.0936 H   0  0  0  0  0  0  0  0  0  0  0  0
    5.3600    9.4229    7.4887 C   0  0  0  0  0  0  0  0  0  0  0  0
    5.1078    8.9252    6.7197 H   0  0  0  0  0  0  0  0  0  0  0  0
    4.4127    9.8442    8.3988 C   0  0  0  0  0  0  0  0  0  0  0  0
    3.4982    9.6354    8.2411 H   0  0  0  0  0  0  0  0  0  0  0  0
    8.2976   11.7112   11.2075 C   0  0  0  0  0  0  0  0  0  0  0  0
    9.0780   12.8342   10.9845 C   0  0  0  0  0  0  0  0  0  0  0  0
   10.4549   12.8484   11.0328 C   0  0  0  0  0  0  0  0  0  0  0  0
   11.1254   11.6823   11.3090 C   0  0  0  0  0  0  0  0  0  0  0  0
   10.4120   10.5435   11.5570 C   0  0  0  0  0  0  0  0  0  0  0  0
    9.0404   10.5780   11.5004 C   0  0  0  0  0  0  0  0  0  0  0  0
    8.4850   14.0190   10.6990 F   0  0  0  0  0  0  0  0  0  0  0  0
   11.1398   13.9750   10.8010 F   0  0  0  0  0  0  0  0  0  0  0  0
   12.4756   11.6636   11.3494 F   0  0  0  0  0  0  0  0  0  0  0  0
   11.0514    9.3992   11.8692 F   0  0  0  0  0  0  0  0  0  0  0  0
    8.3871    9.4187   11.7384 F   0  0  0  0  0  0  0  0  0  0  0  0
  1  4  1  0  0  0  0
  2  4  2  0  0  0  0
  3  5  2  0  0  0  0
  5  1  1  0  0  0  0
  6  1  1  0  0  0  0
  7  8  1  0  0  0  0
  9  7  1  0  0  0  0
 10 11  1  0  0  0  0
 12 10  1  0  0  0  0
 13  2  1  0  0  0  0
 14 13  1  0  0  0  0
 15 14  1  0  0  0  0
 16 14  1  0  0  0  0
 17 14  1  0  0  0  0
 18 13  1  0  0  0  0
 19 18  1  0  0  0  0
 20 18  1  0  0  0  0
 21 18  1  0  0  0  0
 22 13  1  0  0  0  0
 23 22  1  0  0  0  0
 24 22  1  0  0  0  0
 25 22  1  0  0  0  0
 26  2  1  0  0  0  0
 27 26  1  0  0  0  0
 28 27  1  0  0  0  0
 29 27  1  0  0  0  0
 30 27  1  0  0  0  0
 31 26  1  0  0  0  0
 32 31  1  0  0  0  0
 33 31  1  0  0  0  0
 34 31  1  0  0  0  0
 35 26  1  0  0  0  0
 36 35  1  0  0  0  0
 37 35  1  0  0  0  0
 38 35  1  0  0  0  0
 39  2  1  0  0  0  0
 40  7  1  0  0  0  0
 41 40  4  0  0  0  0
 42 41  1  0  0  0  0
 43 41  4  0  0  0  0
 44 43  1  0  0  0  0
 45 43  4  0  0  0  0
 46 45  1  0  0  0  0
 47 39  4  0  0  0  0
 48 47  1  0  0  0  0
 49  7  1  0  0  0  0
 50 49  4  0  0  0  0
 51 50  4  0  0  0  0
 52 51  4  0  0  0  0
 53 52  4  0  0  0  0
 54 49  4  0  0  0  0
 55 50  1  0  0  0  0
 56 51  1  0  0  0  0
 57 52  1  0  0  0  0
 58 53  1  0  0  0  0
 59 54  1  0  0  0  0
 60  6  1  0  0  0  0
 61 60  1  0  0  0  0
 62 60  1  0  0  0  0
 63 60  1  0  0  0  0
 64 63  1  0  0  0  0
 65 63  1  0  0  0  0
 66 63  1  0  0  0  0
 67  6  1  0  0  0  0
 68 67  1  0  0  0  0
 69 67  1  0  0  0  0
 70 67  1  0  0  0  0
 71 70  1  0  0  0  0
 72 70  1  0  0  0  0
 73 70  1  0  0  0  0
 74  3  1  0  0  0  0
 75 74  1  0  0  0  0
 76 75  1  0  0  0  0
 77 75  1  0  0  0  0
 78 75  1  0  0  0  0
 79 74  1  0  0  0  0
 80 79  1  0  0  0  0
 81 79  1  0  0  0  0
 82 79  1  0  0  0  0
 83 74  1  0  0  0  0
 84 83  1  0  0  0  0
 85 83  1  0  0  0  0
 86 83  1  0  0  0  0
 87  3  1  0  0  0  0
 88 87  1  0  0  0  0
 89 88  1  0  0  0  0
 90 88  1  0  0  0  0
 91 88  1  0  0  0  0
 92 87  1  0  0  0  0
 93 92  1  0  0  0  0
 94 92  1  0  0  0  0
 95 92  1  0  0  0  0
 96 87  1  0  0  0  0
 97 96  1  0  0  0  0
 98 96  1  0  0  0  0
 99 96  1  0  0  0  0
100  3  1  0  0  0  0
101 10  1  0  0  0  0
102101  4  0  0  0  0
103102  1  0  0  0  0
104102  4  0  0  0  0
105104  1  0  0  0  0
106104  4  0  0  0  0
107106  1  0  0  0  0
108100  4  0  0  0  0
109108  1  0  0  0  0
110 10  1  0  0  0  0
111110  4  0  0  0  0
112111  4  0  0  0  0
113112  4  0  0  0  0
114113  4  0  0  0  0
115110  4  0  0  0  0
116111  1  0  0  0  0
117112  1  0  0  0  0
118113  1  0  0  0  0
119114  1  0  0  0  0
120115  1  0  0  0  0
 39 40  4  0  0  0  0
 45 47  4  0  0  0  0
 53 54  4  0  0  0  0
100101  4  0  0  0  0
106108  4  0  0  0  0
114115  4  0  0  0  0
M  CHG  3   1   2   7  -1  10  -1
M  END
$$$$
NONHUV

From CSD data. Using bond type 'Any'. Matching problem. No disordered atoms. Largest molecule.
120123  0  0  0  0  0  0  0  0999 V2000
   20.7861    3.4190    9.5559 Mg  0  2  0  0  0  0  0  0  0  0  0  0
   22.4805    1.8020   11.9507 P   0  0  0  0  0  0  0  0  0  0  0  0
   18.8789    3.8259    6.8432 P   0  0  0  0  0  0  0  0  0  0  0  0
   22.1289    2.5879   10.7160 O   0  0  0  0  0  0  0  0  0  0  0  0
   19.3423    3.7385    8.2728 O   0  0  0  0  0  0  0  0  0  0  0  0
   21.1930    5.4143   10.0665 O   0  0  0  0  0  0  0  0  0  0  0  0
   19.2250    2.4752   11.2942 B   0  5  0  0  0  0  0  0  0  0  0  0
   19.6042    1.8661   10.3731 H   0  0  0  0  0  0  0  0  0  0  0  0
   19.6278    3.6302   11.2432 H   0  0  0  0  0  0  0  0  0  0  0  0
   22.0498    2.8524    7.4460 B   0  5  0  0  0  0  0  0  0  0  0  0
   21.3166    2.0398    8.0295 H   0  0  0  0  0  0  0  0  0  0  0  0
   22.1153    3.8200    8.0763 H   0  0  0  0  0  0  0  0  0  0  0  0
   23.7444    2.8456   12.8400 C   0  0  0  0  0  0  0  0  0  0  0  0
   24.5119    2.1706   13.9902 C   0  0  0  0  0  0  0  0  0  0  0  0
   23.8748    1.8034   14.6370 H   0  0  0  0  0  0  0  0  0  0  0  0
   25.0846    2.8314   14.4335 H   0  0  0  0  0  0  0  0  0  0  0  0
   25.0662    1.4471   13.6312 H   0  0  0  0  0  0  0  0  0  0  0  0
   22.9615    4.0473   13.3760 C   0  0  0  0  0  0  0  0  0  0  0  0
   22.4740    4.4737   12.6395 H   0  0  0  0  0  0  0  0  0  0  0  0
   23.5842    4.6922   13.7739 H   0  0  0  0  0  0  0  0  0  0  0  0
   22.3247    3.7448   14.0569 H   0  0  0  0  0  0  0  0  0  0  0  0
   24.7648    3.3546   11.8069 C   0  0  0  0  0  0  0  0  0  0  0  0
   24.2964    3.8469   11.1005 H   0  0  0  0  0  0  0  0  0  0  0  0
   25.2390    2.5932   11.4139 H   0  0  0  0  0  0  0  0  0  0  0  0
   25.4092    3.9472   12.2489 H   0  0  0  0  0  0  0  0  0  0  0  0
   23.0843    0.1356   11.4123 C   0  0  0  0  0  0  0  0  0  0  0  0
   23.2653   -0.9015   12.5235 C   0  0  0  0  0  0  0  0  0  0  0  0
   22.4085   -1.0513   12.9740 H   0  0  0  0  0  0  0  0  0  0  0  0
   23.9220   -0.5731   13.1728 H   0  0  0  0  0  0  0  0  0  0  0  0
   23.5816   -1.7443   12.1367 H   0  0  0  0  0  0  0  0  0  0  0  0
   21.9985   -0.3714   10.4526 C   0  0  0  0  0  0  0  0  0  0  0  0
   21.1438   -0.4316   10.9298 H   0  0  0  0  0  0  0  0  0  0  0  0
   22.2488   -1.2572   10.1158 H   0  0  0  0  0  0  0  0  0  0  0  0
   21.9110    0.2507    9.7018 H   0  0  0  0  0  0  0  0  0  0  0  0
   24.3975    0.2805   10.6409 C   0  0  0  0  0  0  0  0  0  0  0  0
   25.1055    0.5713   11.2525 H   0  0  0  0  0  0  0  0  0  0  0  0
   24.2859    0.9456    9.9287 H   0  0  0  0  0  0  0  0  0  0  0  0
   24.6420   -0.5820   10.2468 H   0  0  0  0  0  0  0  0  0  0  0  0
   21.0621    1.5013   13.0414 C   0  0  0  0  0  0  0  0  0  0  0  0
   19.7246    1.7995   12.6893 C   0  0  0  0  0  0  0  0  0  0  0  0
   18.7686    1.4689   13.6548 C   0  0  0  0  0  0  0  0  0  0  0  0
   17.8603    1.6745   13.4675 H   0  0  0  0  0  0  0  0  0  0  0  0
   19.0556    0.8682   14.8542 C   0  0  0  0  0  0  0  0  0  0  0  0
   18.3578    0.6608   15.4649 H   0  0  0  0  0  0  0  0  0  0  0  0
   20.3690    0.5661   15.1702 C   0  0  0  0  0  0  0  0  0  0  0  0
   20.5835    0.1397   15.9912 H   0  0  0  0  0  0  0  0  0  0  0  0
   21.3533    0.8960   14.2730 C   0  0  0  0  0  0  0  0  0  0  0  0
   22.2593    0.7092   14.4919 H   0  0  0  0  0  0  0  0  0  0  0  0
   17.6139    2.5390   11.1258 C   0  0  0  0  0  0  0  0  0  0  0  0
   16.8695    1.4240   10.7752 C   0  0  0  0  0  0  0  0  0  0  0  0
   15.5179    1.4354   10.5270 C   0  0  0  0  0  0  0  0  0  0  0  0
   14.8303    2.6086   10.6241 C   0  0  0  0  0  0  0  0  0  0  0  0
   15.5050    3.7455   10.9896 C   0  0  0  0  0  0  0  0  0  0  0  0
   16.8590    3.6911   11.2465 C   0  0  0  0  0  0  0  0  0  0  0  0
   17.5000    0.2368   10.6449 F   0  0  0  0  0  0  0  0  0  0  0  0
   14.8690    0.3043   10.1820 F   0  0  0  0  0  0  0  0  0  0  0  0
   13.5114    2.6502   10.3705 F   0  0  0  0  0  0  0  0  0  0  0  0
   14.8428    4.9162   11.0799 F   0  0  0  0  0  0  0  0  0  0  0  0
   17.4435    4.8561   11.6085 F   0  0  0  0  0  0  0  0  0  0  0  0
   22.4939    6.0192    9.8716 C   0  0  0  0  0  0  0  0  0  0  0  0
   23.1836    5.3100    9.8679 H   0  0  0  0  0  0  0  0  0  0  0  0
   22.6861    6.6264   10.6304 H   0  0  0  0  0  0  0  0  0  0  0  0
   22.5774    6.7942    8.5876 C   0  0  0  0  0  0  0  0  0  0  0  0
   23.4690    7.1923    8.5043 H   0  0  0  0  0  0  0  0  0  0  0  0
   21.9005    7.5039    8.5885 H   0  0  0  0  0  0  0  0  0  0  0  0
   22.4164    6.1912    7.8307 H   0  0  0  0  0  0  0  0  0  0  0  0
   20.1918    6.3289   10.5799 C   0  0  0  0  0  0  0  0  0  0  0  0
   19.2926    5.9691   10.3754 H   0  0  0  0  0  0  0  0  0  0  0  0
   20.2824    7.1995   10.1182 H   0  0  0  0  0  0  0  0  0  0  0  0
   20.3070    6.5465   12.0574 C   0  0  0  0  0  0  0  0  0  0  0  0
   19.5832    7.1350   12.3589 H   0  0  0  0  0  0  0  0  0  0  0  0
   21.1700    6.9613   12.2606 H   0  0  0  0  0  0  0  0  0  0  0  0
   20.2405    5.6861   12.5202 H   0  0  0  0  0  0  0  0  0  0  0  0
   17.9708    5.4528    6.7272 C   0  0  0  0  0  0  0  0  0  0  0  0
   17.0986    5.5885    7.9846 C   0  0  0  0  0  0  0  0  0  0  0  0
   16.3835    4.9196    7.9593 H   0  0  0  0  0  0  0  0  0  0  0  0
   16.7056    6.4867    8.0155 H   0  0  0  0  0  0  0  0  0  0  0  0
   17.6508    5.4462    8.7826 H   0  0  0  0  0  0  0  0  0  0  0  0
   17.0612    5.6752    5.5117 C   0  0  0  0  0  0  0  0  0  0  0  0
   16.3311    5.0199    5.5245 H   0  0  0  0  0  0  0  0  0  0  0  0
   17.5828    5.5661    4.6895 H   0  0  0  0  0  0  0  0  0  0  0  0
   16.6873    6.5798    5.5456 H   0  0  0  0  0  0  0  0  0  0  0  0
   19.0559    6.5359    6.7726 C   0  0  0  0  0  0  0  0  0  0  0  0
   19.6094    6.4759    5.9666 H   0  0  0  0  0  0  0  0  0  0  0  0
   19.6173    6.4043    7.5664 H   0  0  0  0  0  0  0  0  0  0  0  0
   18.6327    7.4197    6.8133 H   0  0  0  0  0  0  0  0  0  0  0  0
   17.8420    2.3402    6.4535 C   0  0  0  0  0  0  0  0  0  0  0  0
   17.4987    2.1917    4.9749 C   0  0  0  0  0  0  0  0  0  0  0  0
   18.3238    2.1025    4.4556 H   0  0  0  0  0  0  0  0  0  0  0  0
   17.0067    2.9837    4.6732 H   0  0  0  0  0  0  0  0  0  0  0  0
   16.9439    1.3933    4.8462 H   0  0  0  0  0  0  0  0  0  0  0  0
   16.5514    2.3622    7.2801 C   0  0  0  0  0  0  0  0  0  0  0  0
   16.7737    2.4607    8.2307 H   0  0  0  0  0  0  0  0  0  0  0  0
   16.0614    1.5241    7.1431 H   0  0  0  0  0  0  0  0  0  0  0  0
   15.9934    3.1162    6.9957 H   0  0  0  0  0  0  0  0  0  0  0  0
   18.6780    1.1254    6.8891 C   0  0  0  0  0  0  0  0  0  0  0  0
   18.9496    1.2339    7.8237 H   0  0  0  0  0  0  0  0  0  0  0  0
   19.4759    1.0584    6.3244 H   0  0  0  0  0  0  0  0  0  0  0  0
   18.1431    0.3098    6.7969 H   0  0  0  0  0  0  0  0  0  0  0  0
   20.2394    3.7758    5.6436 C   0  0  0  0  0  0  0  0  0  0  0  0
   21.5164    3.2369    5.9633 C   0  0  0  0  0  0  0  0  0  0  0  0
   22.3897    3.1058    4.8816 C   0  0  0  0  0  0  0  0  0  0  0  0
   23.2438    2.7204    5.0427 H   0  0  0  0  0  0  0  0  0  0  0  0
   22.0914    3.5000    3.5879 C   0  0  0  0  0  0  0  0  0  0  0  0
   22.7280    3.3812    2.8932 H   0  0  0  0  0  0  0  0  0  0  0  0
   20.8668    4.0646    3.3192 C   0  0  0  0  0  0  0  0  0  0  0  0
   20.6568    4.3662    2.4442 H   0  0  0  0  0  0  0  0  0  0  0  0
   19.9488    4.1850    4.3429 C   0  0  0  0  0  0  0  0  0  0  0  0
   19.0962    4.5579    4.1563 H   0  0  0  0  0  0  0  0  0  0  0  0
   23.5486    2.2259    7.4525 C   0  0  0  0  0  0  0  0  0  0  0  0
   23.7913    0.8910    7.1625 C   0  0  0  0  0  0  0  0  0  0  0  0
   25.0345    0.3030    7.2233 C   0  0  0  0  0  0  0  0  0  0  0  0
   26.1207    1.0627    7.5699 C   0  0  0  0  0  0  0  0  0  0  0  0
   25.9479    2.3925    7.8532 C   0  0  0  0  0  0  0  0  0  0  0  0
   24.6852    2.9417    7.7844 C   0  0  0  0  0  0  0  0  0  0  0  0
   22.7591    0.0947    6.8011 F   0  0  0  0  0  0  0  0  0  0  0  0
   25.1846   -1.0040    6.9632 F   0  0  0  0  0  0  0  0  0  0  0  0
   27.3456    0.5036    7.6338 F   0  0  0  0  0  0  0  0  0  0  0  0
   27.0028    3.1377    8.2176 F   0  0  0  0  0  0  0  0  0  0  0  0
   24.5952    4.2581    8.0707 F   0  0  0  0  0  0  0  0  0  0  0  0
  1  4  1  0  0  0  0
  2  4  2  0  0  0  0
  3  5  2  0  0  0  0
  5  1  1  0  0  0  0
  6  1  1  0  0  0  0
  7  8  1  0  0  0  0
  9  7  1  0  0  0  0
 10 11  1  0  0  0  0
 12 10  1  0  0  0  0
 13  2  1  0  0  0  0
 14 13  1  0  0  0  0
 15 14  1  0  0  0  0
 16 14  1  0  0  0  0
 17 14  1  0  0  0  0
 18 13  1  0  0  0  0
 19 18  1  0  0  0  0
 20 18  1  0  0  0  0
 21 18  1  0  0  0  0
 22 13  1  0  0  0  0
 23 22  1  0  0  0  0
 24 22  1  0  0  0  0
 25 22  1  0  0  0  0
 26  2  1  0  0  0  0
 27 26  1  0  0  0  0
 28 27  1  0  0  0  0
 29 27  1  0  0  0  0
 30 27  1  0  0  0  0
 31 26  1  0  0  0  0
 32 31  1  0  0  0  0
 33 31  1  0  0  0  0
 34 31  1  0  0  0  0
 35 26  1  0  0  0  0
 36 35  1  0  0  0  0
 37 35  1  0  0  0  0
 38 35  1  0  0  0  0
 39  2  1  0  0  0  0
 40  7  1  0  0  0  0
 41 40  4  0  0  0  0
 42 41  1  0  0  0  0
 43 41  4  0  0  0  0
 44 43  1  0  0  0  0
 45 43  4  0  0  0  0
 46 45  1  0  0  0  0
 47 39  4  0  0  0  0
 48 47  1  0  0  0  0
 49  7  1  0  0  0  0
 50 49  4  0  0  0  0
 51 50  4  0  0  0  0
 52 51  4  0  0  0  0
 53 52  4  0  0  0  0
 54 49  4  0  0  0  0
 55 50  1  0  0  0  0
 56 51  1  0  0  0  0
 57 52  1  0  0  0  0
 58 53  1  0  0  0  0
 59 54  1  0  0  0  0
 60  6  1  0  0  0  0
 61 60  1  0  0  0  0
 62 60  1  0  0  0  0
 63 60  1  0  0  0  0
 64 63  1  0  0  0  0
 65 63  1  0  0  0  0
 66 63  1  0  0  0  0
 67  6  1  0  0  0  0
 68 67  1  0  0  0  0
 69 67  1  0  0  0  0
 70 67  1  0  0  0  0
 71 70  1  0  0  0  0
 72 70  1  0  0  0  0
 73 70  1  0  0  0  0
 74  3  1  0  0  0  0
 75 74  1  0  0  0  0
 76 75  1  0  0  0  0
 77 75  1  0  0  0  0
 78 75  1  0  0  0  0
 79 74  1  0  0  0  0
 80 79  1  0  0  0  0
 81 79  1  0  0  0  0
 82 79  1  0  0  0  0
 83 74  1  0  0  0  0
 84 83  1  0  0  0  0
 85 83  1  0  0  0  0
 86 83  1  0  0  0  0
 87  3  1  0  0  0  0
 88 87  1  0  0  0  0
 89 88  1  0  0  0  0
 90 88  1  0  0  0  0
 91 88  1  0  0  0  0
 92 87  1  0  0  0  0
 93 92  1  0  0  0  0
 94 92  1  0  0  0  0
 95 92  1  0  0  0  0
 96 87  1  0  0  0  0
 97 96  1  0  0  0  0
 98 96  1  0  0  0  0
 99 96  1  0  0  0  0
100  3  1  0  0  0  0
101 10  1  0  0  0  0
102101  4  0  0  0  0
103102  1  0  0  0  0
104102  4  0  0  0  0
105104  1  0  0  0  0
106104  4  0  0  0  0
107106  1  0  0  0  0
108100  4  0  0  0  0
109108  1  0  0  0  0
110 10  1  0  0  0  0
111110  4  0  0  0  0
112111  4  0  0  0  0
113112  4  0  0  0  0
114113  4  0  0  0  0
115110  4  0  0  0  0
116111  1  0  0  0  0
117112  1  0  0  0  0
118113  1  0  0  0  0
119114  1  0  0  0  0
120115  1  0  0  0  0
 39 40  4  0  0  0  0
 45 47  4  0  0  0  0
 53 54  4  0  0  0  0
100101  4  0  0  0  0
106108  4  0  0  0  0
114115  4  0  0  0  0
M  CHG  3   1   2   7  -1  10  -1
M  END
$$$$
NONJIL

From CSD data. Using bond type 'Any'. No disordered atoms. Largest molecule.
125134  0  0  0  0  0  0  0  0999 V2000
    8.7869    4.4766    5.2187 Mg  0  2  0  0  0  0  0  0  0  0  0  0
   10.2599    6.4233    6.9653 B   0  5  0  0  0  0  0  0  0  0  0  0
    9.8530    5.8577    5.9952 H   0  0  0  0  0  0  0  0  0  0  0  0
   11.3642    3.0728    6.7693 P   0  0  0  0  0  0  0  0  0  0  0  0
   10.0193    3.3887    6.1555 O   0  0  0  0  0  0  0  0  0  0  0  0
   12.3756    2.2387    5.4397 C   0  0  0  0  0  0  0  0  0  0  0  0
   13.4226    1.2233    5.9255 C   0  0  0  0  0  0  0  0  0  0  0  0
   14.0649    1.6733    6.5129 H   0  0  0  0  0  0  0  0  0  0  0  0
   13.8930    0.8461    5.1540 H   0  0  0  0  0  0  0  0  0  0  0  0
   12.9758    0.5039    6.4190 H   0  0  0  0  0  0  0  0  0  0  0  0
   13.0620    3.3295    4.6087 C   0  0  0  0  0  0  0  0  0  0  0  0
   13.6962    3.8191    5.1728 H   0  0  0  0  0  0  0  0  0  0  0  0
   12.3857    3.9495    4.2626 H   0  0  0  0  0  0  0  0  0  0  0  0
   13.5412    2.9173    3.8597 H   0  0  0  0  0  0  0  0  0  0  0  0
   11.3844    1.4880    4.5277 C   0  0  0  0  0  0  0  0  0  0  0  0
   10.9311    0.7891    5.0433 H   0  0  0  0  0  0  0  0  0  0  0  0
   11.8704    1.0797    3.7825 H   0  0  0  0  0  0  0  0  0  0  0  0
   10.7194    2.1187    4.1791 H   0  0  0  0  0  0  0  0  0  0  0  0
   11.0144    2.0006    8.2353 C   0  0  0  0  0  0  0  0  0  0  0  0
   12.2219    1.6829    9.1266 C   0  0  0  0  0  0  0  0  0  0  0  0
   12.8923    1.1911    8.6067 H   0  0  0  0  0  0  0  0  0  0  0  0
   11.9329    1.1354    9.8863 H   0  0  0  0  0  0  0  0  0  0  0  0
   12.6139    2.5180    9.4563 H   0  0  0  0  0  0  0  0  0  0  0  0
   10.3592    0.6984    7.7654 C   0  0  0  0  0  0  0  0  0  0  0  0
   10.9973    0.1888    7.2227 H   0  0  0  0  0  0  0  0  0  0  0  0
    9.5670    0.9073    7.2268 H   0  0  0  0  0  0  0  0  0  0  0  0
   10.0953    0.1657    8.5440 H   0  0  0  0  0  0  0  0  0  0  0  0
    9.9935    2.7776    9.0759 C   0  0  0  0  0  0  0  0  0  0  0  0
    9.2125    2.9934    8.5252 H   0  0  0  0  0  0  0  0  0  0  0  0
   10.4020    3.6073    9.4020 H   0  0  0  0  0  0  0  0  0  0  0  0
    9.7143    2.2301    9.8383 H   0  0  0  0  0  0  0  0  0  0  0  0
   11.7586    5.8744    7.3654 C   0  0  0  0  0  0  0  0  0  0  0  0
   12.2557    4.5486    7.3316 C   0  0  0  0  0  0  0  0  0  0  0  0
   13.5773    4.2733    7.7255 C   0  0  0  0  0  0  0  0  0  0  0  0
   13.8932    3.3791    7.6819 H   0  0  0  0  0  0  0  0  0  0  0  0
   14.4273    5.2623    8.1723 C   0  0  0  0  0  0  0  0  0  0  0  0
   15.3183    5.0564    8.4271 H   0  0  0  0  0  0  0  0  0  0  0  0
   13.9578    6.5568    8.2422 C   0  0  0  0  0  0  0  0  0  0  0  0
   14.5202    7.2512    8.5649 H   0  0  0  0  0  0  0  0  0  0  0  0
   12.6649    6.8415    7.8426 C   0  0  0  0  0  0  0  0  0  0  0  0
   12.3713    7.7429    7.8927 H   0  0  0  0  0  0  0  0  0  0  0  0
    9.2172    6.1519    8.2017 C   0  0  0  0  0  0  0  0  0  0  0  0
    8.0539    5.4253    8.1034 C   0  0  0  0  0  0  0  0  0  0  0  0
    7.2384    5.0502    9.1494 C   0  0  0  0  0  0  0  0  0  0  0  0
    7.5966    5.4154   10.4205 C   0  0  0  0  0  0  0  0  0  0  0  0
    8.7317    6.1794   10.6031 C   0  0  0  0  0  0  0  0  0  0  0  0
    9.4977    6.5332    9.5170 C   0  0  0  0  0  0  0  0  0  0  0  0
    7.6277    4.9557    6.8711 F   0  0  0  0  0  0  0  0  0  0  0  0
    6.1346    4.3158    8.9373 F   0  0  0  0  0  0  0  0  0  0  0  0
    6.8444    5.0610   11.4667 F   0  0  0  0  0  0  0  0  0  0  0  0
    9.0582    6.5804   11.8395 F   0  0  0  0  0  0  0  0  0  0  0  0
   10.5752    7.2887    9.7704 F   0  0  0  0  0  0  0  0  0  0  0  0
   10.3441    7.9691    6.4269 C   0  0  0  0  0  0  0  0  0  0  0  0
    9.7818    9.1029    6.9832 C   0  0  0  0  0  0  0  0  0  0  0  0
    9.9405   10.3746    6.4664 C   0  0  0  0  0  0  0  0  0  0  0  0
   10.6881   10.5601    5.3293 C   0  0  0  0  0  0  0  0  0  0  0  0
   11.2399    9.4673    4.7085 C   0  0  0  0  0  0  0  0  0  0  0  0
   11.0581    8.2142    5.2569 C   0  0  0  0  0  0  0  0  0  0  0  0
    9.0215    9.0193    8.0919 F   0  0  0  0  0  0  0  0  0  0  0  0
    9.3551   11.4293    7.0561 F   0  0  0  0  0  0  0  0  0  0  0  0
   10.8614   11.7884    4.8189 F   0  0  0  0  0  0  0  0  0  0  0  0
   11.9413    9.6296    3.5715 F   0  0  0  0  0  0  0  0  0  0  0  0
   11.6277    7.1822    4.5995 F   0  0  0  0  0  0  0  0  0  0  0  0
    7.3138    6.4233    3.4721 B   0  5  0  0  0  0  0  0  0  0  0  0
    7.7207    5.8577    4.4421 H   0  0  0  0  0  0  0  0  0  0  0  0
    6.2095    3.0728    3.6681 P   0  0  0  0  0  0  0  0  0  0  0  0
    7.5545    3.3887    4.2818 O   0  0  0  0  0  0  0  0  0  0  0  0
    5.1981    2.2387    4.9976 C   0  0  0  0  0  0  0  0  0  0  0  0
    4.1512    1.2233    4.5119 C   0  0  0  0  0  0  0  0  0  0  0  0
    3.5089    1.6733    3.9245 H   0  0  0  0  0  0  0  0  0  0  0  0
    3.6808    0.8461    5.2834 H   0  0  0  0  0  0  0  0  0  0  0  0
    4.5980    0.5039    4.0184 H   0  0  0  0  0  0  0  0  0  0  0  0
    4.5118    3.3295    5.8286 C   0  0  0  0  0  0  0  0  0  0  0  0
    3.8776    3.8191    5.2646 H   0  0  0  0  0  0  0  0  0  0  0  0
    5.1880    3.9495    6.1747 H   0  0  0  0  0  0  0  0  0  0  0  0
    4.0325    2.9173    6.5776 H   0  0  0  0  0  0  0  0  0  0  0  0
    6.1894    1.4880    5.9096 C   0  0  0  0  0  0  0  0  0  0  0  0
    6.6427    0.7891    5.3940 H   0  0  0  0  0  0  0  0  0  0  0  0
    5.7034    1.0797    6.6549 H   0  0  0  0  0  0  0  0  0  0  0  0
    6.8544    2.1187    6.2582 H   0  0  0  0  0  0  0  0  0  0  0  0
    6.5594    2.0006    2.2021 C   0  0  0  0  0  0  0  0  0  0  0  0
    5.3519    1.6829    1.3107 C   0  0  0  0  0  0  0  0  0  0  0  0
    4.6814    1.1911    1.8307 H   0  0  0  0  0  0  0  0  0  0  0  0
    5.6408    1.1354    0.5511 H   0  0  0  0  0  0  0  0  0  0  0  0
    4.9598    2.5180    0.9811 H   0  0  0  0  0  0  0  0  0  0  0  0
    7.2146    0.6984    2.6720 C   0  0  0  0  0  0  0  0  0  0  0  0
    6.5764    0.1888    3.2147 H   0  0  0  0  0  0  0  0  0  0  0  0
    8.0067    0.9073    3.2105 H   0  0  0  0  0  0  0  0  0  0  0  0
    7.4784    0.1657    1.8933 H   0  0  0  0  0  0  0  0  0  0  0  0
    7.5802    2.7776    1.3615 C   0  0  0  0  0  0  0  0  0  0  0  0
    8.3613    2.9934    1.9121 H   0  0  0  0  0  0  0  0  0  0  0  0
    7.1717    3.6073    1.0354 H   0  0  0  0  0  0  0  0  0  0  0  0
    7.8594    2.2301    0.5991 H   0  0  0  0  0  0  0  0  0  0  0  0
    5.8151    5.8744    3.0719 C   0  0  0  0  0  0  0  0  0  0  0  0
    5.3180    4.5486    3.1057 C   0  0  0  0  0  0  0  0  0  0  0  0
    3.9965    4.2733    2.7118 C   0  0  0  0  0  0  0  0  0  0  0  0
    3.6805    3.3791    2.7555 H   0  0  0  0  0  0  0  0  0  0  0  0
    3.1465    5.2623    2.2651 C   0  0  0  0  0  0  0  0  0  0  0  0
    2.2555    5.0564    2.0102 H   0  0  0  0  0  0  0  0  0  0  0  0
    3.6159    6.5568    2.1952 C   0  0  0  0  0  0  0  0  0  0  0  0
    3.0536    7.2512    1.8725 H   0  0  0  0  0  0  0  0  0  0  0  0
    4.9089    6.8415    2.5947 C   0  0  0  0  0  0  0  0  0  0  0  0
    5.2025    7.7429    2.5446 H   0  0  0  0  0  0  0  0  0  0  0  0
    8.3566    6.1519    2.2357 C   0  0  0  0  0  0  0  0  0  0  0  0
    9.5199    5.4253    2.3340 C   0  0  0  0  0  0  0  0  0  0  0  0
   10.3353    5.0502    1.2880 C   0  0  0  0  0  0  0  0  0  0  0  0
    9.9772    5.4154    0.0169 C   0  0  0  0  0  0  0  0  0  0  0  0
    8.8421    6.1794   -0.1657 C   0  0  0  0  0  0  0  0  0  0  0  0
    8.0760    6.5332    0.9204 C   0  0  0  0  0  0  0  0  0  0  0  0
    9.9461    4.9557    3.5662 F   0  0  0  0  0  0  0  0  0  0  0  0
   11.4391    4.3158    1.5001 F   0  0  0  0  0  0  0  0  0  0  0  0
   10.7293    5.0610   -1.0293 F   0  0  0  0  0  0  0  0  0  0  0  0
    8.5155    6.5804   -1.4022 F   0  0  0  0  0  0  0  0  0  0  0  0
    6.9985    7.2887    0.6669 F   0  0  0  0  0  0  0  0  0  0  0  0
    7.2297    7.9691    4.0105 C   0  0  0  0  0  0  0  0  0  0  0  0
    7.7920    9.1029    3.4541 C   0  0  0  0  0  0  0  0  0  0  0  0
    7.6332   10.3746    3.9710 C   0  0  0  0  0  0  0  0  0  0  0  0
    6.8857   10.5601    5.1080 C   0  0  0  0  0  0  0  0  0  0  0  0
    6.3339    9.4673    5.7289 C   0  0  0  0  0  0  0  0  0  0  0  0
    6.5156    8.2142    5.1805 C   0  0  0  0  0  0  0  0  0  0  0  0
    8.5522    9.0193    2.3455 F   0  0  0  0  0  0  0  0  0  0  0  0
    8.2186   11.4293    3.3813 F   0  0  0  0  0  0  0  0  0  0  0  0
    6.7124   11.7884    5.6184 F   0  0  0  0  0  0  0  0  0  0  0  0
    5.6324    9.6296    6.8659 F   0  0  0  0  0  0  0  0  0  0  0  0
    5.9461    7.1822    5.8378 F   0  0  0  0  0  0  0  0  0  0  0  0
  1  3  1  0  0  0  0
  2  3  1  0  0  0  0
  4  5  2  0  0  0  0
  5  1  1  0  0  0  0
  6  4  1  0  0  0  0
  7  6  1  0  0  0  0
  8  7  1  0  0  0  0
  9  7  1  0  0  0  0
 10  7  1  0  0  0  0
 11  6  1  0  0  0  0
 12 11  1  0  0  0  0
 13 11  1  0  0  0  0
 14 11  1  0  0  0  0
 15  6  1  0  0  0  0
 16 15  1  0  0  0  0
 17 15  1  0  0  0  0
 18 15  1  0  0  0  0
 19  4  1  0  0  0  0
 20 19  1  0  0  0  0
 21 20  1  0  0  0  0
 22 20  1  0  0  0  0
 23 20  1  0  0  0  0
 24 19  1  0  0  0  0
 25 24  1  0  0  0  0
 26 24  1  0  0  0  0
 27 24  1  0  0  0  0
 28 19  1  0  0  0  0
 29 28  1  0  0  0  0
 30 28  1  0  0  0  0
 31 28  1  0  0  0  0
 32  2  1  0  0  0  0
 33  4  1  0  0  0  0
 34 33  4  0  0  0  0
 35 34  1  0  0  0  0
 36 34  4  0  0  0  0
 37 36  1  0  0  0  0
 38 36  4  0  0  0  0
 39 38  1  0  0  0  0
 40 32  4  0  0  0  0
 41 40  1  0  0  0  0
 42  2  1  0  0  0  0
 43 42  4  0  0  0  0
 44 43  4  0  0  0  0
 45 44  4  0  0  0  0
 46 45  4  0  0  0  0
 47 42  4  0  0  0  0
 48  1  1  0  0  0  0
 49 44  1  0  0  0  0
 50 45  1  0  0  0  0
 51 46  1  0  0  0  0
 52 47  1  0  0  0  0
 53  2  1  0  0  0  0
 54 53  4  0  0  0  0
 55 54  4  0  0  0  0
 56 55  4  0  0  0  0
 57 56  4  0  0  0  0
 58 53  4  0  0  0  0
 59 54  1  0  0  0  0
 60 55  1  0  0  0  0
 61 56  1  0  0  0  0
 62 57  1  0  0  0  0
 63 58  1  0  0  0  0
 64 65  1  0  0  0  0
 65  1  1  0  0  0  0
 66 67  2  0  0  0  0
 67  1  1  0  0  0  0
 68 66  1  0  0  0  0
 69 68  1  0  0  0  0
 70 69  1  0  0  0  0
 71 69  1  0  0  0  0
 72 69  1  0  0  0  0
 73 68  1  0  0  0  0
 74 73  1  0  0  0  0
 75 73  1  0  0  0  0
 76 73  1  0  0  0  0
 77 68  1  0  0  0  0
 78 77  1  0  0  0  0
 79 77  1  0  0  0  0
 80 77  1  0  0  0  0
 81 66  1  0  0  0  0
 82 81  1  0  0  0  0
 83 82  1  0  0  0  0
 84 82  1  0  0  0  0
 85 82  1  0  0  0  0
 86 81  1  0  0  0  0
 87 86  1  0  0  0  0
 88 86  1  0  0  0  0
 89 86  1  0  0  0  0
 90 81  1  0  0  0  0
 91 90  1  0  0  0  0
 92 90  1  0  0  0  0
 93 90  1  0  0  0  0
 94 64  1  0  0  0  0
 95 66  1  0  0  0  0
 96 95  4  0  0  0  0
 97 96  1  0  0  0  0
 98 96  4  0  0  0  0
 99 98  1  0  0  0  0
100 98  4  0  0  0  0
101100  1  0  0  0  0
102 94  4  0  0  0  0
103102  1  0  0  0  0
104 64  1  0  0  0  0
105104  4  0  0  0  0
106105  4  0  0  0  0
107106  4  0  0  0  0
108107  4  0  0  0  0
109104  4  0  0  0  0
110  1  1  0  0  0  0
111106  1  0  0  0  0
112107  1  0  0  0  0
113108  1  0  0  0  0
114109  1  0  0  0  0
115 64  1  0  0  0  0
116115  4  0  0  0  0
117116  4  0  0  0  0
118117  4  0  0  0  0
119118  4  0  0  0  0
120115  4  0  0  0  0
121116  1  0  0  0  0
122117  1  0  0  0  0
123118  1  0  0  0  0
124119  1  0  0  0  0
125120  1  0  0  0  0
 32 33  4  0  0  0  0
 38 40  4  0  0  0  0
 43 48  1  0  0  0  0
 46 47  4  0  0  0  0
 57 58  4  0  0  0  0
 94 95  4  0  0  0  0
100102  4  0  0  0  0
105110  1  0  0  0  0
108109  4  0  0  0  0
119120  4  0  0  0  0
M  CHG  3   1   2   2  -1  64  -1
M  END
$$$$
NONKEI

From CSD data. Using bond type 'Any'. No disordered atoms. Largest molecule.
160169  0  0  0  0  0  0  0  0999 V2000
    9.8446    5.8190    5.3500 Li  0  3  0  0  0  0  0  0  0  0  0  0
    7.6240    5.0042    3.3959 Li  0  3  0  0  0  0  0  0  0  0  0  0
   10.1148    3.4610    5.1885 B   0  5  0  0  0  0  0  0  0  0  0  0
   10.9300    4.2827    5.3815 H   0  0  0  0  0  0  0  0  0  0  0  0
    9.1331    4.0591    4.7877 H   0  0  0  0  0  0  0  0  0  0  0  0
    7.0451    7.1243    4.4314 B   0  5  0  0  0  0  0  0  0  0  0  0
    6.6535    6.7008    3.3774 H   0  0  0  0  0  0  0  0  0  0  0  0
    7.8819    6.4532    4.7135 H   0  0  0  0  0  0  0  0  0  0  0  0
    9.8619    4.8791    8.3373 P   0  0  0  0  0  0  0  0  0  0  0  0
    9.5035    2.9556    1.6757 P   0  0  0  0  0  0  0  0  0  0  0  0
   10.2158    8.7083    4.0280 P   0  0  0  0  0  0  0  0  0  0  0  0
    4.7217    4.5182    4.3869 P   0  0  0  0  0  0  0  0  0  0  0  0
    9.9494    5.8338    7.1862 O   0  0  0  0  0  0  0  0  0  0  0  0
    8.7482    4.0720    2.3001 O   0  0  0  0  0  0  0  0  0  0  0  0
   10.2751    7.2375    4.2586 O   0  0  0  0  0  0  0  0  0  0  0  0
    5.9424    4.3561    3.5425 O   0  0  0  0  0  0  0  0  0  0  0  0
   11.5379    4.8003    9.1672 C   0  0  0  0  0  0  0  0  0  0  0  0
   11.6358    3.7658   10.2843 C   0  0  0  0  0  0  0  0  0  0  0  0
   11.0106    4.0003   11.0024 H   0  0  0  0  0  0  0  0  0  0  0  0
   12.5490    3.7528   10.6387 H   0  0  0  0  0  0  0  0  0  0  0  0
   11.4099    2.8797    9.9317 H   0  0  0  0  0  0  0  0  0  0  0  0
   11.9120    6.1927    9.6868 C   0  0  0  0  0  0  0  0  0  0  0  0
   11.2979    6.4492   10.4068 H   0  0  0  0  0  0  0  0  0  0  0  0
   11.8490    6.8427    8.9556 H   0  0  0  0  0  0  0  0  0  0  0  0
   12.8292    6.1763   10.0319 H   0  0  0  0  0  0  0  0  0  0  0  0
   12.5081    4.4335    8.0519 C   0  0  0  0  0  0  0  0  0  0  0  0
   12.4443    5.0953    7.3319 H   0  0  0  0  0  0  0  0  0  0  0  0
   12.2832    3.5465    7.7012 H   0  0  0  0  0  0  0  0  0  0  0  0
   13.4218    4.4228    8.4045 H   0  0  0  0  0  0  0  0  0  0  0  0
    8.5100    5.5283    9.4678 C   0  0  0  0  0  0  0  0  0  0  0  0
    8.5561    7.0556    9.3397 C   0  0  0  0  0  0  0  0  0  0  0  0
    8.5150    7.3060    8.3933 H   0  0  0  0  0  0  0  0  0  0  0  0
    9.3906    7.3900    9.7313 H   0  0  0  0  0  0  0  0  0  0  0  0
    7.7942    7.4463    9.8167 H   0  0  0  0  0  0  0  0  0  0  0  0
    8.5833    5.1819   10.9561 C   0  0  0  0  0  0  0  0  0  0  0  0
    8.5695    4.2079   11.0655 H   0  0  0  0  0  0  0  0  0  0  0  0
    7.8150    5.5751   11.4200 H   0  0  0  0  0  0  0  0  0  0  0  0
    9.4121    5.5417   11.3346 H   0  0  0  0  0  0  0  0  0  0  0  0
    7.1770    5.0443    8.9148 C   0  0  0  0  0  0  0  0  0  0  0  0
    7.1194    5.2647    7.9610 H   0  0  0  0  0  0  0  0  0  0  0  0
    6.4450    5.4815    9.3954 H   0  0  0  0  0  0  0  0  0  0  0  0
    7.1082    4.0729    9.0298 H   0  0  0  0  0  0  0  0  0  0  0  0
    9.5634    2.6728    6.5154 C   0  0  0  0  0  0  0  0  0  0  0  0
    9.4541    3.1889    7.8459 C   0  0  0  0  0  0  0  0  0  0  0  0
    8.9723    2.3478    8.8684 C   0  0  0  0  0  0  0  0  0  0  0  0
    8.9234    2.6964    9.7517 H   0  0  0  0  0  0  0  0  0  0  0  0
    8.5658    1.0410    8.6550 C   0  0  0  0  0  0  0  0  0  0  0  0
    8.2670    0.4945    9.3731 H   0  0  0  0  0  0  0  0  0  0  0  0
    8.6112    0.5657    7.3634 C   0  0  0  0  0  0  0  0  0  0  0  0
    8.2981   -0.3121    7.1723 H   0  0  0  0  0  0  0  0  0  0  0  0
    9.1043    1.3501    6.3465 C   0  0  0  0  0  0  0  0  0  0  0  0
    9.1378    0.9770    5.4743 H   0  0  0  0  0  0  0  0  0  0  0  0
   10.3998    3.7223    0.2245 C   0  0  0  0  0  0  0  0  0  0  0  0
    9.3561    4.4652   -0.5994 C   0  0  0  0  0  0  0  0  0  0  0  0
    8.8123    5.0273   -0.0093 H   0  0  0  0  0  0  0  0  0  0  0  0
    8.7789    3.8177   -1.0559 H   0  0  0  0  0  0  0  0  0  0  0  0
    9.8039    5.0283   -1.2656 H   0  0  0  0  0  0  0  0  0  0  0  0
   11.2112    2.8590   -0.7033 C   0  0  0  0  0  0  0  0  0  0  0  0
   10.6270    2.1936   -1.1246 H   0  0  0  0  0  0  0  0  0  0  0  0
   11.9132    2.4015   -0.1948 H   0  0  0  0  0  0  0  0  0  0  0  0
   11.6215    3.4179   -1.3955 H   0  0  0  0  0  0  0  0  0  0  0  0
   11.3432    4.7598    0.8833 C   0  0  0  0  0  0  0  0  0  0  0  0
   10.8299    5.3222    1.4994 H   0  0  0  0  0  0  0  0  0  0  0  0
   11.7482    5.3210    0.1893 H   0  0  0  0  0  0  0  0  0  0  0  0
   12.0489    4.2924    1.3769 H   0  0  0  0  0  0  0  0  0  0  0  0
    8.3067    1.6106    1.2062 C   0  0  0  0  0  0  0  0  0  0  0  0
    8.7227    0.6297    0.1336 C   0  0  0  0  0  0  0  0  0  0  0  0
    8.9389    1.1171   -0.6885 H   0  0  0  0  0  0  0  0  0  0  0  0
    7.9876    0.0059   -0.0408 H   0  0  0  0  0  0  0  0  0  0  0  0
    9.5104    0.1309    0.4342 H   0  0  0  0  0  0  0  0  0  0  0  0
    7.9744    0.8476    2.4941 C   0  0  0  0  0  0  0  0  0  0  0  0
    7.7262    1.4842    3.1974 H   0  0  0  0  0  0  0  0  0  0  0  0
    8.7587    0.3339    2.7817 H   0  0  0  0  0  0  0  0  0  0  0  0
    7.2268    0.2362    2.3270 H   0  0  0  0  0  0  0  0  0  0  0  0
    6.9807    2.2906    0.7608 C   0  0  0  0  0  0  0  0  0  0  0  0
    6.6973    2.9325    1.4456 H   0  0  0  0  0  0  0  0  0  0  0  0
    6.2878    1.6080    0.6439 H   0  0  0  0  0  0  0  0  0  0  0  0
    7.1243    2.7602   -0.0872 H   0  0  0  0  0  0  0  0  0  0  0  0
   10.8466    2.4026    4.1623 C   0  0  0  0  0  0  0  0  0  0  0  0
   10.7231    2.1686    2.7724 C   0  0  0  0  0  0  0  0  0  0  0  0
   11.5182    1.2096    2.1470 C   0  0  0  0  0  0  0  0  0  0  0  0
   11.4054    1.0542    1.2173 H   0  0  0  0  0  0  0  0  0  0  0  0
   12.4651    0.4763    2.8355 C   0  0  0  0  0  0  0  0  0  0  0  0
   13.0060   -0.1615    2.3864 H   0  0  0  0  0  0  0  0  0  0  0  0
   12.6078    0.6905    4.1902 C   0  0  0  0  0  0  0  0  0  0  0  0
   13.2389    0.1883    4.6912 H   0  0  0  0  0  0  0  0  0  0  0  0
   11.8303    1.6388    4.8100 C   0  0  0  0  0  0  0  0  0  0  0  0
   11.9663    1.7871    5.7378 H   0  0  0  0  0  0  0  0  0  0  0  0
   11.3282    9.5097    5.2999 C   0  0  0  0  0  0  0  0  0  0  0  0
   11.9086   10.8843    4.9714 C   0  0  0  0  0  0  0  0  0  0  0  0
   11.1798   11.5110    4.7821 H   0  0  0  0  0  0  0  0  0  0  0  0
   12.4906   10.8130    4.1865 H   0  0  0  0  0  0  0  0  0  0  0  0
   12.4291   11.2111    5.7360 H   0  0  0  0  0  0  0  0  0  0  0  0
   12.4837    8.5530    5.5875 C   0  0  0  0  0  0  0  0  0  0  0  0
   12.1277    7.6654    5.8028 H   0  0  0  0  0  0  0  0  0  0  0  0
   13.0052    8.8889    6.3446 H   0  0  0  0  0  0  0  0  0  0  0  0
   13.0594    8.4899    4.7970 H   0  0  0  0  0  0  0  0  0  0  0  0
   10.4909    9.5977    6.6063 C   0  0  0  0  0  0  0  0  0  0  0  0
   10.1219    8.7146    6.8178 H   0  0  0  0  0  0  0  0  0  0  0  0
    9.7583   10.2358    6.4820 H   0  0  0  0  0  0  0  0  0  0  0  0
   11.0642    9.8964    7.3412 H   0  0  0  0  0  0  0  0  0  0  0  0
   10.7502    8.9704    2.2677 C   0  0  0  0  0  0  0  0  0  0  0  0
   12.1274    8.3349    2.0765 C   0  0  0  0  0  0  0  0  0  0  0  0
   12.1077    7.4094    2.3957 H   0  0  0  0  0  0  0  0  0  0  0  0
   12.7939    8.8429    2.5850 H   0  0  0  0  0  0  0  0  0  0  0  0
   12.3631    8.3470    1.1246 H   0  0  0  0  0  0  0  0  0  0  0  0
    9.7041    8.2244    1.4270 C   0  0  0  0  0  0  0  0  0  0  0  0
    9.6380    7.2968    1.7369 H   0  0  0  0  0  0  0  0  0  0  0  0
    9.9719    8.2376    0.4862 H   0  0  0  0  0  0  0  0  0  0  0  0
    8.8333    8.6633    1.5254 H   0  0  0  0  0  0  0  0  0  0  0  0
   10.8283   10.4168    1.7369 C   0  0  0  0  0  0  0  0  0  0  0  0
   11.4887   10.9195    2.2584 H   0  0  0  0  0  0  0  0  0  0  0  0
    9.9511   10.8434    1.8223 H   0  0  0  0  0  0  0  0  0  0  0  0
   11.0962   10.4053    0.7942 H   0  0  0  0  0  0  0  0  0  0  0  0
    7.3437    8.7031    4.2737 C   0  0  0  0  0  0  0  0  0  0  0  0
    8.5572    9.4363    4.1345 C   0  0  0  0  0  0  0  0  0  0  0  0
    8.5167   10.8416    3.9656 C   0  0  0  0  0  0  0  0  0  0  0  0
    9.3346   11.3204    3.8951 H   0  0  0  0  0  0  0  0  0  0  0  0
    7.3348   11.5317    3.9007 C   0  0  0  0  0  0  0  0  0  0  0  0
    7.3401   12.4755    3.7949 H   0  0  0  0  0  0  0  0  0  0  0  0
    6.1427   10.8568    3.9860 C   0  0  0  0  0  0  0  0  0  0  0  0
    5.3181   11.3239    3.9174 H   0  0  0  0  0  0  0  0  0  0  0  0
    6.1617    9.4913    4.1772 C   0  0  0  0  0  0  0  0  0  0  0  0
    5.3267    9.0448    4.2477 H   0  0  0  0  0  0  0  0  0  0  0  0
    3.2847    4.9127    3.2976 C   0  0  0  0  0  0  0  0  0  0  0  0
    3.1198    3.8009    2.2361 C   0  0  0  0  0  0  0  0  0  0  0  0
    3.9740    3.6603    1.7759 H   0  0  0  0  0  0  0  0  0  0  0  0
    2.4394    4.0697    1.5848 H   0  0  0  0  0  0  0  0  0  0  0  0
    2.8436    2.9699    2.6741 H   0  0  0  0  0  0  0  0  0  0  0  0
    1.9448    5.1042    3.9972 C   0  0  0  0  0  0  0  0  0  0  0  0
    1.6840    4.2686    4.4388 H   0  0  0  0  0  0  0  0  0  0  0  0
    1.2640    5.3512    3.3384 H   0  0  0  0  0  0  0  0  0  0  0  0
    2.0244    5.8156    4.6671 H   0  0  0  0  0  0  0  0  0  0  0  0
    3.6838    6.2254    2.5980 C   0  0  0  0  0  0  0  0  0  0  0  0
    4.5415    6.1044    2.1415 H   0  0  0  0  0  0  0  0  0  0  0  0
    3.7663    6.9387    3.2642 H   0  0  0  0  0  0  0  0  0  0  0  0
    2.9960    6.4678    1.9429 H   0  0  0  0  0  0  0  0  0  0  0  0
    4.5520    2.9060    5.3110 C   0  0  0  0  0  0  0  0  0  0  0  0
    4.7411    1.7892    4.3071 C   0  0  0  0  0  0  0  0  0  0  0  0
    5.5713    1.9386    3.8060 H   0  0  0  0  0  0  0  0  0  0  0  0
    3.9829    1.7763    3.6854 H   0  0  0  0  0  0  0  0  0  0  0  0
    4.7940    0.9314    4.7766 H   0  0  0  0  0  0  0  0  0  0  0  0
    5.7313    2.8651    6.2853 C   0  0  0  0  0  0  0  0  0  0  0  0
    6.5630    3.0464    5.8009 H   0  0  0  0  0  0  0  0  0  0  0  0
    5.7813    1.9780    6.7009 H   0  0  0  0  0  0  0  0  0  0  0  0
    5.6030    3.5431    6.9811 H   0  0  0  0  0  0  0  0  0  0  0  0
    3.2680    2.6130    6.0552 C   0  0  0  0  0  0  0  0  0  0  0  0
    2.5159    2.6258    5.4279 H   0  0  0  0  0  0  0  0  0  0  0  0
    3.1285    3.2939    6.7455 H   0  0  0  0  0  0  0  0  0  0  0  0
    3.3283    1.7298    6.4764 H   0  0  0  0  0  0  0  0  0  0  0  0
    5.8732    6.8418    5.5764 C   0  0  0  0  0  0  0  0  0  0  0  0
    4.8648    5.8575    5.5949 C   0  0  0  0  0  0  0  0  0  0  0  0
    3.9032    5.8387    6.6211 C   0  0  0  0  0  0  0  0  0  0  0  0
    3.2176    5.1807    6.5989 H   0  0  0  0  0  0  0  0  0  0  0  0
    3.9257    6.7530    7.6659 C   0  0  0  0  0  0  0  0  0  0  0  0
    3.2555    6.7418    8.3377 H   0  0  0  0  0  0  0  0  0  0  0  0
    4.9469    7.6741    7.6974 C   0  0  0  0  0  0  0  0  0  0  0  0
    5.0171    8.2837    8.4249 H   0  0  0  0  0  0  0  0  0  0  0  0
    5.8693    7.7122    6.6731 C   0  0  0  0  0  0  0  0  0  0  0  0
    6.5486    8.3742    6.7139 H   0  0  0  0  0  0  0  0  0  0  0  0
  1  4  1  0  0  0  0
  2  7  1  0  0  0  0
  3  4  1  0  0  0  0
  5  1  1  0  0  0  0
  6  7  1  0  0  0  0
  8  1  1  0  0  0  0
  9 13  2  0  0  0  0
 10 14  2  0  0  0  0
 11 15  2  0  0  0  0
 12 16  2  0  0  0  0
 13  1  1  0  0  0  0
 14  2  1  0  0  0  0
 15  1  1  0  0  0  0
 16  2  1  0  0  0  0
 17  9  1  0  0  0  0
 18 17  1  0  0  0  0
 19 18  1  0  0  0  0
 20 18  1  0  0  0  0
 21 18  1  0  0  0  0
 22 17  1  0  0  0  0
 23 22  1  0  0  0  0
 24 22  1  0  0  0  0
 25 22  1  0  0  0  0
 26 17  1  0  0  0  0
 27 26  1  0  0  0  0
 28 26  1  0  0  0  0
 29 26  1  0  0  0  0
 30  9  1  0  0  0  0
 31 30  1  0  0  0  0
 32 31  1  0  0  0  0
 33 31  1  0  0  0  0
 34 31  1  0  0  0  0
 35 30  1  0  0  0  0
 36 35  1  0  0  0  0
 37 35  1  0  0  0  0
 38 35  1  0  0  0  0
 39 30  1  0  0  0  0
 40 39  1  0  0  0  0
 41 39  1  0  0  0  0
 42 39  1  0  0  0  0
 43  3  1  0  0  0  0
 44  9  1  0  0  0  0
 45 44  4  0  0  0  0
 46 45  1  0  0  0  0
 47 45  4  0  0  0  0
 48 47  1  0  0  0  0
 49 47  4  0  0  0  0
 50 49  1  0  0  0  0
 51 43  4  0  0  0  0
 52 51  1  0  0  0  0
 53 10  1  0  0  0  0
 54 53  1  0  0  0  0
 55 54  1  0  0  0  0
 56 54  1  0  0  0  0
 57 54  1  0  0  0  0
 58 53  1  0  0  0  0
 59 58  1  0  0  0  0
 60 58  1  0  0  0  0
 61 58  1  0  0  0  0
 62 53  1  0  0  0  0
 63 62  1  0  0  0  0
 64 62  1  0  0  0  0
 65 62  1  0  0  0  0
 66 10  1  0  0  0  0
 67 66  1  0  0  0  0
 68 67  1  0  0  0  0
 69 67  1  0  0  0  0
 70 67  1  0  0  0  0
 71 66  1  0  0  0  0
 72 71  1  0  0  0  0
 73 71  1  0  0  0  0
 74 71  1  0  0  0  0
 75 66  1  0  0  0  0
 76 75  1  0  0  0  0
 77 75  1  0  0  0  0
 78 75  1  0  0  0  0
 79  3  1  0  0  0  0
 80 10  1  0  0  0  0
 81 80  4  0  0  0  0
 82 81  1  0  0  0  0
 83 81  4  0  0  0  0
 84 83  1  0  0  0  0
 85 83  4  0  0  0  0
 86 85  1  0  0  0  0
 87 79  4  0  0  0  0
 88 87  1  0  0  0  0
 89 11  1  0  0  0  0
 90 89  1  0  0  0  0
 91 90  1  0  0  0  0
 92 90  1  0  0  0  0
 93 90  1  0  0  0  0
 94 89  1  0  0  0  0
 95 94  1  0  0  0  0
 96 94  1  0  0  0  0
 97 94  1  0  0  0  0
 98 89  1  0  0  0  0
 99 98  1  0  0  0  0
100 98  1  0  0  0  0
101 98  1  0  0  0  0
102 11  1  0  0  0  0
103102  1  0  0  0  0
104103  1  0  0  0  0
105103  1  0  0  0  0
106103  1  0  0  0  0
107102  1  0  0  0  0
108107  1  0  0  0  0
109107  1  0  0  0  0
110107  1  0  0  0  0
111102  1  0  0  0  0
112111  1  0  0  0  0
113111  1  0  0  0  0
114111  1  0  0  0  0
115  6  1  0  0  0  0
116 11  1  0  0  0  0
117116  4  0  0  0  0
118117  1  0  0  0  0
119117  4  0  0  0  0
120119  1  0  0  0  0
121119  4  0  0  0  0
122121  1  0  0  0  0
123115  4  0  0  0  0
124123  1  0  0  0  0
125 12  1  0  0  0  0
126125  1  0  0  0  0
127126  1  0  0  0  0
128126  1  0  0  0  0
129126  1  0  0  0  0
130125  1  0  0  0  0
131130  1  0  0  0  0
132130  1  0  0  0  0
133130  1  0  0  0  0
134125  1  0  0  0  0
135134  1  0  0  0  0
136134  1  0  0  0  0
137134  1  0  0  0  0
138 12  1  0  0  0  0
139138  1  0  0  0  0
140139  1  0  0  0  0
141139  1  0  0  0  0
142139  1  0  0  0  0
143138  1  0  0  0  0
144143  1  0  0  0  0
145143  1  0  0  0  0
146143  1  0  0  0  0
147138  1  0  0  0  0
148147  1  0  0  0  0
149147  1  0  0  0  0
150147  1  0  0  0  0
151  6  1  0  0  0  0
152 12  1  0  0  0  0
153152  4  0  0  0  0
154153  1  0  0  0  0
155153  4  0  0  0  0
156155  1  0  0  0  0
157155  4  0  0  0  0
158157  1  0  0  0  0
159151  4  0  0  0  0
160159  1  0  0  0  0
  2  8  1  0  0  0  0
  3  5  1  0  0  0  0
  6  8  1  0  0  0  0
 43 44  4  0  0  0  0
 49 51  4  0  0  0  0
 79 80  4  0  0  0  0
 85 87  4  0  0  0  0
115116  4  0  0  0  0
121123  4  0  0  0  0
151152  4  0  0  0  0
157159  4  0  0  0  0
M  CHG  4   1   1   2   1   3  -1   6  -1
M  END
$$$$
NONRER

From CSD data. Using bond type 'Any'. No disordered atoms. Largest molecule.
196211  0  0  0  0  0  0  0  0999 V2000
    0.7218    8.1424   10.1737 Y   0  0  0  0  0  0  0  0  0  0  0  0
   -2.3340    9.6266   11.0720 B   0  0  0  0  0  0  0  0  0  0  0  0
   -3.2009   10.0415   11.3426 H   0  0  0  0  0  0  0  0  0  0  0  0
    1.5368    9.4326    8.3633 O   0  0  0  0  0  0  0  0  0  0  0  0
    2.0459    5.9476    7.9084 P   0  0  0  0  0  0  0  0  0  0  0  0
    0.0702    5.4806   10.0804 S   0  0  0  0  0  0  0  0  0  0  0  0
    3.3311    8.5399   12.5543 Si  0  0  0  0  0  0  0  0  0  0  0  0
    3.6923    6.3340   10.6996 Si  0  0  0  0  0  0  0  0  0  0  0  0
   -2.5328    9.0116    9.6475 N   0  0  0  0  0  0  0  0  0  0  0  0
   -1.4946    8.3757    9.0026 N   0  0  0  0  0  0  0  0  0  0  0  0
   -1.9992    8.5641   12.0955 N   0  0  0  0  0  0  0  0  0  0  0  0
   -0.8010    7.9193   12.0423 N   0  0  0  0  0  0  0  0  0  0  0  0
   -1.2889   10.7632   10.9669 N   0  0  0  0  0  0  0  0  0  0  0  0
    0.0640   10.4734   10.7187 N   0  0  0  0  0  0  0  0  0  0  0  0
    2.7633    7.6776   11.1744 N   0  0  0  0  0  0  0  0  0  0  0  0
    0.6892    3.6600    8.1824 N   0  0  0  0  0  0  0  0  0  0  0  0
   -4.9763    9.5546    9.3223 C   0  0  0  0  0  0  0  0  0  0  0  0
   -5.3295    9.0571   10.0892 H   0  0  0  0  0  0  0  0  0  0  0  0
   -5.6073    9.4969    8.5750 H   0  0  0  0  0  0  0  0  0  0  0  0
   -4.8496   10.4933    9.5718 H   0  0  0  0  0  0  0  0  0  0  0  0
   -3.6653    8.9698    8.9115 C   0  0  0  0  0  0  0  0  0  0  0  0
   -3.3914    8.2745    7.7351 C   0  0  0  0  0  0  0  0  0  0  0  0
   -3.9823    8.0692    7.0201 H   0  0  0  0  0  0  0  0  0  0  0  0
   -1.9659    7.9378    7.8711 C   0  0  0  0  0  0  0  0  0  0  0  0
   -1.1922    7.1730    6.8757 C   0  0  0  0  0  0  0  0  0  0  0  0
   -0.2490    7.1492    7.1421 H   0  0  0  0  0  0  0  0  0  0  0  0
   -1.2728    7.6031    5.9980 H   0  0  0  0  0  0  0  0  0  0  0  0
   -1.5399    6.2589    6.8238 H   0  0  0  0  0  0  0  0  0  0  0  0
   -4.1596    8.6206   13.3714 C   0  0  0  0  0  0  0  0  0  0  0  0
   -4.1489    9.5966   13.4597 H   0  0  0  0  0  0  0  0  0  0  0  0
   -4.4817    8.2205   14.2056 H   0  0  0  0  0  0  0  0  0  0  0  0
   -4.7573    8.3677   12.6353 H   0  0  0  0  0  0  0  0  0  0  0  0
   -2.7520    8.1221   13.0770 C   0  0  0  0  0  0  0  0  0  0  0  0
   -2.0331    7.1610   13.7037 C   0  0  0  0  0  0  0  0  0  0  0  0
   -2.3063    6.6594   14.4636 H   0  0  0  0  0  0  0  0  0  0  0  0
   -0.8530    7.0440   13.0503 C   0  0  0  0  0  0  0  0  0  0  0  0
    0.2790    6.1434   13.4079 C   0  0  0  0  0  0  0  0  0  0  0  0
    0.0761    5.2312   13.1134 H   0  0  0  0  0  0  0  0  0  0  0  0
    0.4085    6.1513   14.3795 H   0  0  0  0  0  0  0  0  0  0  0  0
    1.0957    6.4546   12.9662 H   0  0  0  0  0  0  0  0  0  0  0  0
   -2.7764   12.6924   11.4225 C   0  0  0  0  0  0  0  0  0  0  0  0
   -3.3523   12.5915   10.6360 H   0  0  0  0  0  0  0  0  0  0  0  0
   -2.6576   13.6449   11.6202 H   0  0  0  0  0  0  0  0  0  0  0  0
   -3.1936   12.2493   12.1909 H   0  0  0  0  0  0  0  0  0  0  0  0
   -1.4542   12.0761   11.1520 C   0  0  0  0  0  0  0  0  0  0  0  0
   -0.2407   12.6718   10.9753 C   0  0  0  0  0  0  0  0  0  0  0  0
   -0.0556   13.6016   11.0286 H   0  0  0  0  0  0  0  0  0  0  0  0
    0.6933   11.6416   10.6949 C   0  0  0  0  0  0  0  0  0  0  0  0
    2.1441   11.7736   10.4972 C   0  0  0  0  0  0  0  0  0  0  0  0
    2.5438   10.8827   10.4075 H   0  0  0  0  0  0  0  0  0  0  0  0
    2.5386   12.2329   11.2669 H   0  0  0  0  0  0  0  0  0  0  0  0
    2.3168   12.2917    9.6840 H   0  0  0  0  0  0  0  0  0  0  0  0
    1.9514    9.5539   13.3672 C   0  0  0  0  0  0  0  0  0  0  0  0
    1.5825   10.1864   12.7152 H   0  0  0  0  0  0  0  0  0  0  0  0
    2.3147   10.0478   14.1313 H   0  0  0  0  0  0  0  0  0  0  0  0
    1.2415    8.9520   13.6757 H   0  0  0  0  0  0  0  0  0  0  0  0
    4.7202    9.7667   12.1264 C   0  0  0  0  0  0  0  0  0  0  0  0
    5.5872    9.3641   12.3367 H   0  0  0  0  0  0  0  0  0  0  0  0
    4.6039   10.5875   12.6493 H   0  0  0  0  0  0  0  0  0  0  0  0
    4.6831    9.9817   11.1702 H   0  0  0  0  0  0  0  0  0  0  0  0
    3.9633    7.4806   13.9224 C   0  0  0  0  0  0  0  0  0  0  0  0
    3.2800    6.8219   14.1692 H   0  0  0  0  0  0  0  0  0  0  0  0
    4.1721    8.0399   14.6992 H   0  0  0  0  0  0  0  0  0  0  0  0
    4.7741    7.0149   13.6266 H   0  0  0  0  0  0  0  0  0  0  0  0
    3.3855    4.7788   11.7114 C   0  0  0  0  0  0  0  0  0  0  0  0
    3.4820    4.9850   12.6648 H   0  0  0  0  0  0  0  0  0  0  0  0
    4.0362    4.0916   11.4576 H   0  0  0  0  0  0  0  0  0  0  0  0
    2.4785    4.4498   11.5375 H   0  0  0  0  0  0  0  0  0  0  0  0
    5.5407    6.6726   10.8028 C   0  0  0  0  0  0  0  0  0  0  0  0
    5.8393    7.1128    9.9798 H   0  0  0  0  0  0  0  0  0  0  0  0
    6.0217    5.8254   10.9136 H   0  0  0  0  0  0  0  0  0  0  0  0
    5.7240    7.2535   11.5698 H   0  0  0  0  0  0  0  0  0  0  0  0
    3.5718    5.7926    8.9002 C   0  0  0  0  0  0  0  0  0  0  0  0
    4.2771    6.2858    8.4109 H   0  0  0  0  0  0  0  0  0  0  0  0
    3.8287    4.8367    8.8764 H   0  0  0  0  0  0  0  0  0  0  0  0
    0.8803    4.7739    8.7208 C   0  0  0  0  0  0  0  0  0  0  0  0
   -0.2103    2.6934    8.7572 C   0  0  0  0  0  0  0  0  0  0  0  0
   -1.2146    2.2313    7.9791 C   0  0  0  0  0  0  0  0  0  0  0  0
   -1.3670    2.6142    7.1238 H   0  0  0  0  0  0  0  0  0  0  0  0
   -2.0292    1.1847    8.4348 C   0  0  0  0  0  0  0  0  0  0  0  0
   -2.7253    0.8473    7.8838 H   0  0  0  0  0  0  0  0  0  0  0  0
   -1.8139    0.6519    9.6742 C   0  0  0  0  0  0  0  0  0  0  0  0
   -2.3633   -0.0563    9.9896 H   0  0  0  0  0  0  0  0  0  0  0  0
   -0.8017    1.1428   10.4663 C   0  0  0  0  0  0  0  0  0  0  0  0
   -0.6352    0.7683   11.3230 H   0  0  0  0  0  0  0  0  0  0  0  0
   -0.0454    2.1707   10.0037 C   0  0  0  0  0  0  0  0  0  0  0  0
    0.6242    2.5381   10.5701 H   0  0  0  0  0  0  0  0  0  0  0  0
    2.9347    9.4481    7.8950 C   0  0  0  0  0  0  0  0  0  0  0  0
    3.1797    8.5755    7.4982 H   0  0  0  0  0  0  0  0  0  0  0  0
    3.5521    9.6427    8.6437 H   0  0  0  0  0  0  0  0  0  0  0  0
    2.9933   10.5171    6.8799 C   0  0  0  0  0  0  0  0  0  0  0  0
    3.7317   11.0637    6.6373 H   0  0  0  0  0  0  0  0  0  0  0  0
    1.6372   10.5283    6.3359 C   0  0  0  0  0  0  0  0  0  0  0  0
    1.5236    9.8074    5.6671 H   0  0  0  0  0  0  0  0  0  0  0  0
    1.4416   11.3976    5.9041 H   0  0  0  0  0  0  0  0  0  0  0  0
    0.7479   10.3098    7.4912 C   0  0  0  0  0  0  0  0  0  0  0  0
    0.5341   11.1632    7.9440 H   0  0  0  0  0  0  0  0  0  0  0  0
   -0.0958    9.8712    7.2150 H   0  0  0  0  0  0  0  0  0  0  0  0
    2.5978    4.7388    6.1121 P   0  0  0  0  0  0  0  0  0  0  0  0
    4.5734    5.2058    3.9402 S   0  0  0  0  0  0  0  0  0  0  0  0
    1.3126    2.1465    1.4663 Si  0  0  0  0  0  0  0  0  0  0  0  0
    0.9514    4.3524    3.3209 Si  0  0  0  0  0  0  0  0  0  0  0  0
    1.8804    3.0088    2.8462 N   0  0  0  0  0  0  0  0  0  0  0  0
    3.9545    7.0264    5.8382 N   0  0  0  0  0  0  0  0  0  0  0  0
    2.6923    1.1324    0.6534 C   0  0  0  0  0  0  0  0  0  0  0  0
    3.0612    0.5000    1.3053 H   0  0  0  0  0  0  0  0  0  0  0  0
    2.3290    0.6386   -0.1108 H   0  0  0  0  0  0  0  0  0  0  0  0
    3.4022    1.7344    0.3449 H   0  0  0  0  0  0  0  0  0  0  0  0
   -0.0765    0.9197    1.8942 C   0  0  0  0  0  0  0  0  0  0  0  0
   -0.9435    1.3223    1.6839 H   0  0  0  0  0  0  0  0  0  0  0  0
    0.0398    0.0989    1.3712 H   0  0  0  0  0  0  0  0  0  0  0  0
   -0.0394    0.7047    2.8504 H   0  0  0  0  0  0  0  0  0  0  0  0
    0.6804    3.2058    0.0981 C   0  0  0  0  0  0  0  0  0  0  0  0
    1.3636    3.8644   -0.1486 H   0  0  0  0  0  0  0  0  0  0  0  0
    0.4716    2.6465   -0.6786 H   0  0  0  0  0  0  0  0  0  0  0  0
   -0.1305    3.6715    0.3940 H   0  0  0  0  0  0  0  0  0  0  0  0
    1.2582    5.9076    2.3092 C   0  0  0  0  0  0  0  0  0  0  0  0
    1.1617    5.7013    1.3558 H   0  0  0  0  0  0  0  0  0  0  0  0
    0.6075    6.5947    2.5630 H   0  0  0  0  0  0  0  0  0  0  0  0
    2.1652    6.2366    2.4830 H   0  0  0  0  0  0  0  0  0  0  0  0
   -0.8971    4.0138    3.2177 C   0  0  0  0  0  0  0  0  0  0  0  0
   -1.1956    3.5735    4.0407 H   0  0  0  0  0  0  0  0  0  0  0  0
   -1.3781    4.8610    3.1070 H   0  0  0  0  0  0  0  0  0  0  0  0
   -1.0803    3.4329    2.4508 H   0  0  0  0  0  0  0  0  0  0  0  0
    1.0718    4.8938    5.1203 C   0  0  0  0  0  0  0  0  0  0  0  0
    0.3666    4.4006    5.6096 H   0  0  0  0  0  0  0  0  0  0  0  0
    0.8150    5.8496    5.1441 H   0  0  0  0  0  0  0  0  0  0  0  0
    3.7634    5.9125    5.2998 C   0  0  0  0  0  0  0  0  0  0  0  0
    4.8540    7.9930    5.2633 C   0  0  0  0  0  0  0  0  0  0  0  0
    5.8582    8.4551    6.0415 C   0  0  0  0  0  0  0  0  0  0  0  0
    6.0107    8.0722    6.8967 H   0  0  0  0  0  0  0  0  0  0  0  0
    6.6728    9.5016    5.5858 C   0  0  0  0  0  0  0  0  0  0  0  0
    7.3689    9.8391    6.1368 H   0  0  0  0  0  0  0  0  0  0  0  0
    6.4576   10.0345    4.3464 C   0  0  0  0  0  0  0  0  0  0  0  0
    7.0069   10.7427    4.0309 H   0  0  0  0  0  0  0  0  0  0  0  0
    5.4454    9.5435    3.5542 C   0  0  0  0  0  0  0  0  0  0  0  0
    5.2789    9.9181    2.6976 H   0  0  0  0  0  0  0  0  0  0  0  0
    4.6891    8.5157    4.0169 C   0  0  0  0  0  0  0  0  0  0  0  0
    4.0195    8.1483    3.4505 H   0  0  0  0  0  0  0  0  0  0  0  0
    3.9219    2.5440    3.8468 Y   0  0  0  0  0  0  0  0  0  0  0  0
    6.9777    1.0597    2.9485 B   0  0  0  0  0  0  0  0  0  0  0  0
    7.8446    0.6448    2.6779 H   0  0  0  0  0  0  0  0  0  0  0  0
    3.1068    1.2538    5.6573 O   0  0  0  0  0  0  0  0  0  0  0  0
    7.1765    1.6748    4.3730 N   0  0  0  0  0  0  0  0  0  0  0  0
    6.1382    2.3107    5.0180 N   0  0  0  0  0  0  0  0  0  0  0  0
    6.6428    2.1223    1.9250 N   0  0  0  0  0  0  0  0  0  0  0  0
    5.4447    2.7670    1.9783 N   0  0  0  0  0  0  0  0  0  0  0  0
    5.9326   -0.0768    3.0537 N   0  0  0  0  0  0  0  0  0  0  0  0
    4.5797    0.2130    3.3018 N   0  0  0  0  0  0  0  0  0  0  0  0
    9.6200    1.1318    4.6983 C   0  0  0  0  0  0  0  0  0  0  0  0
    9.9732    1.6293    3.9314 H   0  0  0  0  0  0  0  0  0  0  0  0
   10.2510    1.1894    5.4456 H   0  0  0  0  0  0  0  0  0  0  0  0
    9.4933    0.1931    4.4487 H   0  0  0  0  0  0  0  0  0  0  0  0
    8.3090    1.7166    5.1091 C   0  0  0  0  0  0  0  0  0  0  0  0
    8.0351    2.4118    6.2854 C   0  0  0  0  0  0  0  0  0  0  0  0
    8.6260    2.6172    7.0005 H   0  0  0  0  0  0  0  0  0  0  0  0
    6.6096    2.7485    6.1494 C   0  0  0  0  0  0  0  0  0  0  0  0
    5.8359    3.5133    7.1449 C   0  0  0  0  0  0  0  0  0  0  0  0
    4.8927    3.5371    6.8785 H   0  0  0  0  0  0  0  0  0  0  0  0
    5.9165    3.0832    8.0226 H   0  0  0  0  0  0  0  0  0  0  0  0
    6.1836    4.4275    7.1968 H   0  0  0  0  0  0  0  0  0  0  0  0
    8.8032    2.0657    0.6492 C   0  0  0  0  0  0  0  0  0  0  0  0
    8.7926    1.0898    0.5608 H   0  0  0  0  0  0  0  0  0  0  0  0
    9.1254    2.4659   -0.1851 H   0  0  0  0  0  0  0  0  0  0  0  0
    9.4010    2.3186    1.3852 H   0  0  0  0  0  0  0  0  0  0  0  0
    7.3957    2.5643    0.9436 C   0  0  0  0  0  0  0  0  0  0  0  0
    6.6768    3.5253    0.3169 C   0  0  0  0  0  0  0  0  0  0  0  0
    6.9500    4.0270   -0.4430 H   0  0  0  0  0  0  0  0  0  0  0  0
    5.4967    3.6424    0.9702 C   0  0  0  0  0  0  0  0  0  0  0  0
    4.3647    4.5430    0.6127 C   0  0  0  0  0  0  0  0  0  0  0  0
    4.5676    5.4552    0.9071 H   0  0  0  0  0  0  0  0  0  0  0  0
    4.2351    4.5351   -0.3589 H   0  0  0  0  0  0  0  0  0  0  0  0
    3.5480    4.2318    1.0543 H   0  0  0  0  0  0  0  0  0  0  0  0
    7.4201   -2.0060    2.5980 C   0  0  0  0  0  0  0  0  0  0  0  0
    7.9960   -1.9051    3.3846 H   0  0  0  0  0  0  0  0  0  0  0  0
    7.3013   -2.9585    2.4003 H   0  0  0  0  0  0  0  0  0  0  0  0
    7.8373   -1.5629    1.8297 H   0  0  0  0  0  0  0  0  0  0  0  0
    6.0979   -1.3897    2.8686 C   0  0  0  0  0  0  0  0  0  0  0  0
    4.8844   -1.9854    3.0453 C   0  0  0  0  0  0  0  0  0  0  0  0
    4.6993   -2.9152    2.9920 H   0  0  0  0  0  0  0  0  0  0  0  0
    3.9504   -0.9552    3.3257 C   0  0  0  0  0  0  0  0  0  0  0  0
    2.4996   -1.0872    3.5234 C   0  0  0  0  0  0  0  0  0  0  0  0
    2.0999   -0.1963    3.6131 H   0  0  0  0  0  0  0  0  0  0  0  0
    2.1051   -1.5465    2.7536 H   0  0  0  0  0  0  0  0  0  0  0  0
    2.3269   -1.6053    4.3366 H   0  0  0  0  0  0  0  0  0  0  0  0
    1.7090    1.2383    6.1256 C   0  0  0  0  0  0  0  0  0  0  0  0
    1.4640    2.1108    6.5224 H   0  0  0  0  0  0  0  0  0  0  0  0
    1.0916    1.0437    5.3769 H   0  0  0  0  0  0  0  0  0  0  0  0
    1.6504    0.1693    7.1407 C   0  0  0  0  0  0  0  0  0  0  0  0
    0.9119   -0.3773    7.3832 H   0  0  0  0  0  0  0  0  0  0  0  0
    3.0065    0.1581    7.6847 C   0  0  0  0  0  0  0  0  0  0  0  0
    3.1201    0.8789    8.3534 H   0  0  0  0  0  0  0  0  0  0  0  0
    3.2021   -0.7113    8.1165 H   0  0  0  0  0  0  0  0  0  0  0  0
    3.8958    0.3766    6.5294 C   0  0  0  0  0  0  0  0  0  0  0  0
    4.1096   -0.4768    6.0765 H   0  0  0  0  0  0  0  0  0  0  0  0
    4.7395    0.8152    6.8056 H   0  0  0  0  0  0  0  0  0  0  0  0
  1  4  1  0  0  0  0
  2  3  1  0  0  0  0
  4 88  1  0  0  0  0
  5 73  1  0  0  0  0
  6  1  1  0  0  0  0
  7 15  1  0  0  0  0
  8 15  1  0  0  0  0
  9  2  1  0  0  0  0
 10  1  1  0  0  0  0
 11  2  1  0  0  0  0
 12  1  1  0  0  0  0
 13  2  1  0  0  0  0
 14  1  1  0  0  0  0
 15  1  1  0  0  0  0
 16 76  2  0  0  0  0
 17 18  1  0  0  0  0
 19 17  1  0  0  0  0
 20 17  1  0  0  0  0
 21  9  4  0  0  0  0
 22 21  4  0  0  0  0
 23 22  1  0  0  0  0
 24 10  4  0  0  0  0
 25 24  1  0  0  0  0
 26 25  1  0  0  0  0
 27 25  1  0  0  0  0
 28 25  1  0  0  0  0
 29 30  1  0  0  0  0
 31 29  1  0  0  0  0
 32 29  1  0  0  0  0
 33 11  4  0  0  0  0
 34 33  4  0  0  0  0
 35 34  1  0  0  0  0
 36 12  4  0  0  0  0
 37 36  1  0  0  0  0
 38 37  1  0  0  0  0
 39 37  1  0  0  0  0
 40 37  1  0  0  0  0
 41 42  1  0  0  0  0
 43 41  1  0  0  0  0
 44 41  1  0  0  0  0
 45 13  4  0  0  0  0
 46 45  4  0  0  0  0
 47 46  1  0  0  0  0
 48 14  4  0  0  0  0
 49 48  1  0  0  0  0
 50 49  1  0  0  0  0
 51 49  1  0  0  0  0
 52 49  1  0  0  0  0
 53  7  1  0  0  0  0
 54 53  1  0  0  0  0
 55 53  1  0  0  0  0
 56 53  1  0  0  0  0
 57  7  1  0  0  0  0
 58 57  1  0  0  0  0
 59 57  1  0  0  0  0
 60 57  1  0  0  0  0
 61  7  1  0  0  0  0
 62 61  1  0  0  0  0
 63 61  1  0  0  0  0
 64 61  1  0  0  0  0
 65  8  1  0  0  0  0
 66 65  1  0  0  0  0
 67 65  1  0  0  0  0
 68 65  1  0  0  0  0
 69  8  1  0  0  0  0
 70 69  1  0  0  0  0
 71 69  1  0  0  0  0
 72 69  1  0  0  0  0
 73  8  1  0  0  0  0
 74 73  1  0  0  0  0
 75 73  1  0  0  0  0
 76  5  1  0  0  0  0
 77 16  1  0  0  0  0
 78 77  4  0  0  0  0
 79 78  1  0  0  0  0
 80 78  4  0  0  0  0
 81 80  1  0  0  0  0
 82 80  4  0  0  0  0
 83 82  1  0  0  0  0
 84 82  4  0  0  0  0
 85 84  1  0  0  0  0
 86 77  4  0  0  0  0
 87 86  1  0  0  0  0
 88 89  1  0  0  0  0
 90 88  1  0  0  0  0
 91 88  1  0  0  0  0
 92 91  1  0  0  0  0
 93 91  1  0  0  0  0
 94 93  1  0  0  0  0
 95 93  1  0  0  0  0
 96  4  1  0  0  0  0
 97 96  1  0  0  0  0
 98 96  1  0  0  0  0
 99  5  1  0  0  0  0
100128  1  0  0  0  0
101103  1  0  0  0  0
102103  1  0  0  0  0
103140  1  0  0  0  0
104128  2  0  0  0  0
105101  1  0  0  0  0
106105  1  0  0  0  0
107105  1  0  0  0  0
108105  1  0  0  0  0
109101  1  0  0  0  0
110109  1  0  0  0  0
111109  1  0  0  0  0
112109  1  0  0  0  0
113101  1  0  0  0  0
114113  1  0  0  0  0
115113  1  0  0  0  0
116113  1  0  0  0  0
117102  1  0  0  0  0
118117  1  0  0  0  0
119117  1  0  0  0  0
120117  1  0  0  0  0
121102  1  0  0  0  0
122121  1  0  0  0  0
123121  1  0  0  0  0
124121  1  0  0  0  0
125 99  1  0  0  0  0
126125  1  0  0  0  0
127125  1  0  0  0  0
128 99  1  0  0  0  0
129104  1  0  0  0  0
130129  4  0  0  0  0
131130  1  0  0  0  0
132130  4  0  0  0  0
133132  1  0  0  0  0
134132  4  0  0  0  0
135134  1  0  0  0  0
136134  4  0  0  0  0
137136  1  0  0  0  0
138129  4  0  0  0  0
139138  1  0  0  0  0
140100  1  0  0  0  0
141142  1  0  0  0  0
143140  1  0  0  0  0
144141  1  0  0  0  0
145140  1  0  0  0  0
146141  1  0  0  0  0
147140  1  0  0  0  0
148141  1  0  0  0  0
149140  1  0  0  0  0
150151  1  0  0  0  0
152150  1  0  0  0  0
153150  1  0  0  0  0
154144  4  0  0  0  0
155154  4  0  0  0  0
156155  1  0  0  0  0
157145  4  0  0  0  0
158157  1  0  0  0  0
159158  1  0  0  0  0
160158  1  0  0  0  0
161158  1  0  0  0  0
162163  1  0  0  0  0
164162  1  0  0  0  0
165162  1  0  0  0  0
166146  4  0  0  0  0
167166  4  0  0  0  0
168167  1  0  0  0  0
169147  4  0  0  0  0
170169  1  0  0  0  0
171170  1  0  0  0  0
172170  1  0  0  0  0
173170  1  0  0  0  0
174175  1  0  0  0  0
176174  1  0  0  0  0
177174  1  0  0  0  0
178148  4  0  0  0  0
179178  4  0  0  0  0
180179  1  0  0  0  0
181149  4  0  0  0  0
182181  1  0  0  0  0
183182  1  0  0  0  0
184182  1  0  0  0  0
185182  1  0  0  0  0
186143  1  0  0  0  0
187186  1  0  0  0  0
188186  1  0  0  0  0
189186  1  0  0  0  0
190189  1  0  0  0  0
191189  1  0  0  0  0
192191  1  0  0  0  0
193191  1  0  0  0  0
194143  1  0  0  0  0
195194  1  0  0  0  0
196194  1  0  0  0  0
  6 76  1  0  0  0  0
  9 10  4  0  0  0  0
 11 12  4  0  0  0  0
 13 14  4  0  0  0  0
 17 21  1  0  0  0  0
 22 24  4  0  0  0  0
 29 33  1  0  0  0  0
 34 36  4  0  0  0  0
 41 45  1  0  0  0  0
 46 48  4  0  0  0  0
 84 86  4  0  0  0  0
 93 96  1  0  0  0  0
102125  1  0  0  0  0
136138  4  0  0  0  0
144145  4  0  0  0  0
146147  4  0  0  0  0
148149  4  0  0  0  0
150154  1  0  0  0  0
155157  4  0  0  0  0
162166  1  0  0  0  0
167169  4  0  0  0  0
174178  1  0  0  0  0
179181  4  0  0  0  0
191194  1  0  0  0  0
M  END
$$$$
NONRIV

From CSD data. Using bond type 'Any'. No disordered atoms. Largest molecule.
170185  0  0  0  0  0  0  0  0999 V2000
   15.9281    9.9353   13.0528 Y   0  0  0  0  0  0  0  0  0  0  0  0
   18.4200    7.4029   13.0553 B   0  0  0  0  0  0  0  0  0  0  0  0
   19.1272    6.6946   13.0584 H   0  0  0  0  0  0  0  0  0  0  0  0
   13.1736   10.4891   12.5739 P   0  0  0  0  0  0  0  0  0  0  0  0
   17.6577   13.0942   13.1051 Si  0  0  0  0  0  0  0  0  0  0  0  0
   14.7918   13.0472   13.8079 Si  0  0  0  0  0  0  0  0  0  0  0  0
   14.8916    9.3788   15.3346 O   0  0  0  0  0  0  0  0  0  0  0  0
   18.4764    8.1194   11.7038 N   0  0  0  0  0  0  0  0  0  0  0  0
   17.6898    9.2188   11.4090 N   0  0  0  0  0  0  0  0  0  0  0  0
   18.7338    8.3943   14.1910 N   0  0  0  0  0  0  0  0  0  0  0  0
   17.8161    9.3720   14.5727 N   0  0  0  0  0  0  0  0  0  0  0  0
   17.0632    6.7179   13.2601 N   0  0  0  0  0  0  0  0  0  0  0  0
   15.8649    7.4180   13.1670 N   0  0  0  0  0  0  0  0  0  0  0  0
   16.2015   12.2065   13.3206 N   0  0  0  0  0  0  0  0  0  0  0  0
   20.2646    6.7097   10.6037 C   0  0  0  0  0  0  0  0  0  0  0  0
   20.9177    6.8451   11.3237 H   0  0  0  0  0  0  0  0  0  0  0  0
   20.7261    6.7152    9.7395 H   0  0  0  0  0  0  0  0  0  0  0  0
   19.8152    5.8496   10.7294 H   0  0  0  0  0  0  0  0  0  0  0  0
   19.2453    7.8200   10.6347 C   0  0  0  0  0  0  0  0  0  0  0  0
   18.9929    8.7266    9.6448 C   0  0  0  0  0  0  0  0  0  0  0  0
   19.3813    8.7594    8.7790 H   0  0  0  0  0  0  0  0  0  0  0  0
   18.0293    9.6030   10.1910 C   0  0  0  0  0  0  0  0  0  0  0  0
   17.4730   10.8159    9.5052 C   0  0  0  0  0  0  0  0  0  0  0  0
   16.7962   10.5397    8.8535 H   0  0  0  0  0  0  0  0  0  0  0  0
   18.1966   11.2904    9.0443 H   0  0  0  0  0  0  0  0  0  0  0  0
   17.0633   11.4080   10.1708 H   0  0  0  0  0  0  0  0  0  0  0  0
   20.9847    7.5055   14.8489 C   0  0  0  0  0  0  0  0  0  0  0  0
   20.7169    6.5798   15.0274 H   0  0  0  0  0  0  0  0  0  0  0  0
   21.6815    7.7708   15.4835 H   0  0  0  0  0  0  0  0  0  0  0  0
   21.3316    7.5752   13.9350 H   0  0  0  0  0  0  0  0  0  0  0  0
   19.7856    8.4189   15.0072 C   0  0  0  0  0  0  0  0  0  0  0  0
   19.6028    9.4157   15.9630 C   0  0  0  0  0  0  0  0  0  0  0  0
   20.1960    9.6646   16.6627 H   0  0  0  0  0  0  0  0  0  0  0  0
   18.3587    9.9681   15.6666 C   0  0  0  0  0  0  0  0  0  0  0  0
   17.6545   11.0292   16.3990 C   0  0  0  0  0  0  0  0  0  0  0  0
   17.0497   11.4996   15.7876 H   0  0  0  0  0  0  0  0  0  0  0  0
   18.3074   11.6623   16.7636 H   0  0  0  0  0  0  0  0  0  0  0  0
   17.1372   10.6340   17.1313 H   0  0  0  0  0  0  0  0  0  0  0  0
   17.8763    4.3728   13.6293 C   0  0  0  0  0  0  0  0  0  0  0  0
   18.3423    4.2812   12.7729 H   0  0  0  0  0  0  0  0  0  0  0  0
   17.4731    3.5141   13.8776 H   0  0  0  0  0  0  0  0  0  0  0  0
   18.5136    4.6463   14.3214 H   0  0  0  0  0  0  0  0  0  0  0  0
   16.7967    5.4121   13.5052 C   0  0  0  0  0  0  0  0  0  0  0  0
   15.4338    5.2562   13.5642 C   0  0  0  0  0  0  0  0  0  0  0  0
   14.9600    4.4467   13.7085 H   0  0  0  0  0  0  0  0  0  0  0  0
   14.8860    6.5278   13.3671 C   0  0  0  0  0  0  0  0  0  0  0  0
   13.4501    6.9175   13.3920 C   0  0  0  0  0  0  0  0  0  0  0  0
   13.3776    7.8938   13.3547 H   0  0  0  0  0  0  0  0  0  0  0  0
   13.0369    6.5907   14.2174 H   0  0  0  0  0  0  0  0  0  0  0  0
   12.9936    6.5251   12.6193 H   0  0  0  0  0  0  0  0  0  0  0  0
   19.1663   12.0123   12.8411 C   0  0  0  0  0  0  0  0  0  0  0  0
   19.3055   11.4463   13.6293 H   0  0  0  0  0  0  0  0  0  0  0  0
   19.9536   12.5784   12.7030 H   0  0  0  0  0  0  0  0  0  0  0  0
   19.0291   11.4463   12.0529 H   0  0  0  0  0  0  0  0  0  0  0  0
   18.0865   14.2056   14.5820 C   0  0  0  0  0  0  0  0  0  0  0  0
   17.3394   14.8155   14.7605 H   0  0  0  0  0  0  0  0  0  0  0  0
   18.8922   14.7252   14.3772 H   0  0  0  0  0  0  0  0  0  0  0  0
   18.2475   13.6505   15.3734 H   0  0  0  0  0  0  0  0  0  0  0  0
   17.6393   14.2439   11.6169 C   0  0  0  0  0  0  0  0  0  0  0  0
   17.1216   13.8337   10.8923 H   0  0  0  0  0  0  0  0  0  0  0  0
   18.5606   14.3998   11.3128 H   0  0  0  0  0  0  0  0  0  0  0  0
   17.2284   15.0971   11.8683 H   0  0  0  0  0  0  0  0  0  0  0  0
   14.6947   13.1281   15.7023 C   0  0  0  0  0  0  0  0  0  0  0  0
   14.8279   12.2311   16.0747 H   0  0  0  0  0  0  0  0  0  0  0  0
   13.8142   13.4659   15.9707 H   0  0  0  0  0  0  0  0  0  0  0  0
   15.3911   13.7270   16.0406 H   0  0  0  0  0  0  0  0  0  0  0  0
   14.6859   14.8797   13.2849 C   0  0  0  0  0  0  0  0  0  0  0  0
   15.3700   15.3966   13.7628 H   0  0  0  0  0  0  0  0  0  0  0  0
   13.7970   15.2325   13.5052 H   0  0  0  0  0  0  0  0  0  0  0  0
   14.8343   14.9536   12.3198 H   0  0  0  0  0  0  0  0  0  0  0  0
   13.1793   12.2639   13.1608 C   0  0  0  0  0  0  0  0  0  0  0  0
   12.5041   12.3378   13.8807 H   0  0  0  0  0  0  0  0  0  0  0  0
   12.8601   12.8232   12.4082 H   0  0  0  0  0  0  0  0  0  0  0  0
   15.2964    8.3027   16.2112 C   0  0  0  0  0  0  0  0  0  0  0  0
   16.2766    8.1646   16.1600 H   0  0  0  0  0  0  0  0  0  0  0  0
   14.8465    7.4590   15.9537 H   0  0  0  0  0  0  0  0  0  0  0  0
   14.8887    8.7156   17.6216 C   0  0  0  0  0  0  0  0  0  0  0  0
   15.6514    9.1108   18.1135 H   0  0  0  0  0  0  0  0  0  0  0  0
   14.5392    7.9431   18.1337 H   0  0  0  0  0  0  0  0  0  0  0  0
   13.7628    9.7835   17.3656 C   0  0  0  0  0  0  0  0  0  0  0  0
   12.9269    9.5374   17.8342 H   0  0  0  0  0  0  0  0  0  0  0  0
   14.0505   10.6805   17.6713 H   0  0  0  0  0  0  0  0  0  0  0  0
   13.5704    9.7589   15.8575 C   0  0  0  0  0  0  0  0  0  0  0  0
   12.8827    9.0944   15.5999 H   0  0  0  0  0  0  0  0  0  0  0  0
   13.2977   10.6491   15.5208 H   0  0  0  0  0  0  0  0  0  0  0  0
   14.3078   10.4891   10.7002 P   0  0  0  0  0  0  0  0  0  0  0  0
    9.8238   13.0942   10.1691 Si  0  0  0  0  0  0  0  0  0  0  0  0
   12.6896   13.0472    9.4662 Si  0  0  0  0  0  0  0  0  0  0  0  0
   11.2799   12.2065    9.9536 N   0  0  0  0  0  0  0  0  0  0  0  0
    8.3152   12.0123   10.4330 C   0  0  0  0  0  0  0  0  0  0  0  0
    8.1759   11.4463    9.6448 H   0  0  0  0  0  0  0  0  0  0  0  0
    7.5278   12.5784   10.5711 H   0  0  0  0  0  0  0  0  0  0  0  0
    8.4523   11.4463   11.2212 H   0  0  0  0  0  0  0  0  0  0  0  0
    9.3950   14.2056    8.6921 C   0  0  0  0  0  0  0  0  0  0  0  0
   10.1420   14.8155    8.5137 H   0  0  0  0  0  0  0  0  0  0  0  0
    8.5893   14.7252    8.8969 H   0  0  0  0  0  0  0  0  0  0  0  0
    9.2340   13.6505    7.9008 H   0  0  0  0  0  0  0  0  0  0  0  0
    9.8421   14.2439   11.6573 C   0  0  0  0  0  0  0  0  0  0  0  0
   10.3599   13.8337   12.3819 H   0  0  0  0  0  0  0  0  0  0  0  0
    8.9208   14.3998   11.9614 H   0  0  0  0  0  0  0  0  0  0  0  0
   10.2531   15.0971   11.4059 H   0  0  0  0  0  0  0  0  0  0  0  0
   12.7868   13.1281    7.5719 C   0  0  0  0  0  0  0  0  0  0  0  0
   12.6535   12.2311    7.1995 H   0  0  0  0  0  0  0  0  0  0  0  0
   13.6673   13.4659    7.3034 H   0  0  0  0  0  0  0  0  0  0  0  0
   12.0903   13.7270    7.2336 H   0  0  0  0  0  0  0  0  0  0  0  0
   12.7955   14.8797    9.9893 C   0  0  0  0  0  0  0  0  0  0  0  0
   12.1114   15.3966    9.5114 H   0  0  0  0  0  0  0  0  0  0  0  0
   13.6845   15.2325    9.7689 H   0  0  0  0  0  0  0  0  0  0  0  0
   12.6471   14.9536   10.9544 H   0  0  0  0  0  0  0  0  0  0  0  0
   14.3022   12.2639   10.1134 C   0  0  0  0  0  0  0  0  0  0  0  0
   14.9773   12.3378    9.3935 H   0  0  0  0  0  0  0  0  0  0  0  0
   14.6213   12.8232   10.8659 H   0  0  0  0  0  0  0  0  0  0  0  0
   11.5533    9.9353   10.2214 Y   0  0  0  0  0  0  0  0  0  0  0  0
    9.0614    7.4029   10.2189 B   0  0  0  0  0  0  0  0  0  0  0  0
    8.3543    6.6946   10.2158 H   0  0  0  0  0  0  0  0  0  0  0  0
   12.5898    9.3788    7.9396 O   0  0  0  0  0  0  0  0  0  0  0  0
    9.0051    8.1194   11.5704 N   0  0  0  0  0  0  0  0  0  0  0  0
    9.7917    9.2188   11.8652 N   0  0  0  0  0  0  0  0  0  0  0  0
    8.7476    8.3943    9.0831 N   0  0  0  0  0  0  0  0  0  0  0  0
    9.6654    9.3720    8.7014 N   0  0  0  0  0  0  0  0  0  0  0  0
   10.4182    6.7179   10.0141 N   0  0  0  0  0  0  0  0  0  0  0  0
   11.6166    7.4180   10.1072 N   0  0  0  0  0  0  0  0  0  0  0  0
    7.2168    6.7097   12.6705 C   0  0  0  0  0  0  0  0  0  0  0  0
    6.5637    6.8451   11.9505 H   0  0  0  0  0  0  0  0  0  0  0  0
    6.7554    6.7152   13.5347 H   0  0  0  0  0  0  0  0  0  0  0  0
    7.6662    5.8496   12.5448 H   0  0  0  0  0  0  0  0  0  0  0  0
    8.2361    7.8200   12.6394 C   0  0  0  0  0  0  0  0  0  0  0  0
    8.4885    8.7266   13.6293 C   0  0  0  0  0  0  0  0  0  0  0  0
    8.1002    8.7594   14.4951 H   0  0  0  0  0  0  0  0  0  0  0  0
    9.4521    9.6030   13.0832 C   0  0  0  0  0  0  0  0  0  0  0  0
   10.0085   10.8159   13.7690 C   0  0  0  0  0  0  0  0  0  0  0  0
   10.6852   10.5397   14.4207 H   0  0  0  0  0  0  0  0  0  0  0  0
    9.2848   11.2904   14.2298 H   0  0  0  0  0  0  0  0  0  0  0  0
   10.4181   11.4080   13.1034 H   0  0  0  0  0  0  0  0  0  0  0  0
    6.4968    7.5055    8.4252 C   0  0  0  0  0  0  0  0  0  0  0  0
    6.7646    6.5798    8.2468 H   0  0  0  0  0  0  0  0  0  0  0  0
    5.7999    7.7708    7.7906 H   0  0  0  0  0  0  0  0  0  0  0  0
    6.1498    7.5752    9.3391 H   0  0  0  0  0  0  0  0  0  0  0  0
    7.6959    8.4189    8.2670 C   0  0  0  0  0  0  0  0  0  0  0  0
    7.8786    9.4157    7.3112 C   0  0  0  0  0  0  0  0  0  0  0  0
    7.2855    9.6646    6.6114 H   0  0  0  0  0  0  0  0  0  0  0  0
    9.1227    9.9681    7.6075 C   0  0  0  0  0  0  0  0  0  0  0  0
    9.8269   11.0292    6.8752 C   0  0  0  0  0  0  0  0  0  0  0  0
   10.4317   11.4996    7.4865 H   0  0  0  0  0  0  0  0  0  0  0  0
    9.1740   11.6623    6.5106 H   0  0  0  0  0  0  0  0  0  0  0  0
   10.3443   10.6340    6.1428 H   0  0  0  0  0  0  0  0  0  0  0  0
    9.6052    4.3728    9.6448 C   0  0  0  0  0  0  0  0  0  0  0  0
    9.1391    4.2812   10.5013 H   0  0  0  0  0  0  0  0  0  0  0  0
   10.0083    3.5141    9.3966 H   0  0  0  0  0  0  0  0  0  0  0  0
    8.9679    4.6463    8.9528 H   0  0  0  0  0  0  0  0  0  0  0  0
   10.6848    5.4121    9.7689 C   0  0  0  0  0  0  0  0  0  0  0  0
   12.0476    5.2562    9.7100 C   0  0  0  0  0  0  0  0  0  0  0  0
   12.5214    4.4467    9.5657 H   0  0  0  0  0  0  0  0  0  0  0  0
   12.5954    6.5278    9.9070 C   0  0  0  0  0  0  0  0  0  0  0  0
   14.0313    6.9175    9.8822 C   0  0  0  0  0  0  0  0  0  0  0  0
   14.1038    7.8938    9.9194 H   0  0  0  0  0  0  0  0  0  0  0  0
   14.4446    6.5907    9.0568 H   0  0  0  0  0  0  0  0  0  0  0  0
   14.4878    6.5251   10.6549 H   0  0  0  0  0  0  0  0  0  0  0  0
   12.1850    8.3027    7.0629 C   0  0  0  0  0  0  0  0  0  0  0  0
   11.2048    8.1646    7.1141 H   0  0  0  0  0  0  0  0  0  0  0  0
   12.6350    7.4590    7.3205 H   0  0  0  0  0  0  0  0  0  0  0  0
   12.5928    8.7156    5.6525 C   0  0  0  0  0  0  0  0  0  0  0  0
   11.8300    9.1108    5.1607 H   0  0  0  0  0  0  0  0  0  0  0  0
   12.9423    7.9431    5.1405 H   0  0  0  0  0  0  0  0  0  0  0  0
   13.7186    9.7835    5.9085 C   0  0  0  0  0  0  0  0  0  0  0  0
   14.5545    9.5374    5.4399 H   0  0  0  0  0  0  0  0  0  0  0  0
   13.4310   10.6805    5.6029 H   0  0  0  0  0  0  0  0  0  0  0  0
   13.9111    9.7589    7.4167 C   0  0  0  0  0  0  0  0  0  0  0  0
   14.5987    9.0944    7.6743 H   0  0  0  0  0  0  0  0  0  0  0  0
   14.1837   10.6491    7.7534 H   0  0  0  0  0  0  0  0  0  0  0  0
  1  4  1  0  0  0  0
  2  3  1  0  0  0  0
  4 71  1  0  0  0  0
  5 14  1  0  0  0  0
  6 14  1  0  0  0  0
  7  1  1  0  0  0  0
  8  2  1  0  0  0  0
  9  1  1  0  0  0  0
 10  2  1  0  0  0  0
 11  1  1  0  0  0  0
 12  2  1  0  0  0  0
 13  1  1  0  0  0  0
 14  1  1  0  0  0  0
 15 16  1  0  0  0  0
 17 15  1  0  0  0  0
 18 15  1  0  0  0  0
 19  8  4  0  0  0  0
 20 19  4  0  0  0  0
 21 20  1  0  0  0  0
 22  9  4  0  0  0  0
 23 22  1  0  0  0  0
 24 23  1  0  0  0  0
 25 23  1  0  0  0  0
 26 23  1  0  0  0  0
 27 28  1  0  0  0  0
 29 27  1  0  0  0  0
 30 27  1  0  0  0  0
 31 10  4  0  0  0  0
 32 31  4  0  0  0  0
 33 32  1  0  0  0  0
 34 11  4  0  0  0  0
 35 34  1  0  0  0  0
 36 35  1  0  0  0  0
 37 35  1  0  0  0  0
 38 35  1  0  0  0  0
 39 40  1  0  0  0  0
 41 39  1  0  0  0  0
 42 39  1  0  0  0  0
 43 12  4  0  0  0  0
 44 43  4  0  0  0  0
 45 44  1  0  0  0  0
 46 13  4  0  0  0  0
 47 46  1  0  0  0  0
 48 47  1  0  0  0  0
 49 47  1  0  0  0  0
 50 47  1  0  0  0  0
 51  5  1  0  0  0  0
 52 51  1  0  0  0  0
 53 51  1  0  0  0  0
 54 51  1  0  0  0  0
 55  5  1  0  0  0  0
 56 55  1  0  0  0  0
 57 55  1  0  0  0  0
 58 55  1  0  0  0  0
 59  5  1  0  0  0  0
 60 59  1  0  0  0  0
 61 59  1  0  0  0  0
 62 59  1  0  0  0  0
 63  6  1  0  0  0  0
 64 63  1  0  0  0  0
 65 63  1  0  0  0  0
 66 63  1  0  0  0  0
 67  6  1  0  0  0  0
 68 67  1  0  0  0  0
 69 67  1  0  0  0  0
 70 67  1  0  0  0  0
 71  6  1  0  0  0  0
 72 71  1  0  0  0  0
 73 71  1  0  0  0  0
 74  7  1  0  0  0  0
 75 74  1  0  0  0  0
 76 74  1  0  0  0  0
 77 74  1  0  0  0  0
 78 77  1  0  0  0  0
 79 77  1  0  0  0  0
 80 77  1  0  0  0  0
 81 80  1  0  0  0  0
 82 80  1  0  0  0  0
 83  7  1  0  0  0  0
 84 83  1  0  0  0  0
 85 83  1  0  0  0  0
 86  1  1  0  0  0  0
 87 89  1  0  0  0  0
 88 89  1  0  0  0  0
 89113  1  0  0  0  0
 90 87  1  0  0  0  0
 91 90  1  0  0  0  0
 92 90  1  0  0  0  0
 93 90  1  0  0  0  0
 94 87  1  0  0  0  0
 95 94  1  0  0  0  0
 96 94  1  0  0  0  0
 97 94  1  0  0  0  0
 98 87  1  0  0  0  0
 99 98  1  0  0  0  0
100 98  1  0  0  0  0
101 98  1  0  0  0  0
102 88  1  0  0  0  0
103102  1  0  0  0  0
104102  1  0  0  0  0
105102  1  0  0  0  0
106 88  1  0  0  0  0
107106  1  0  0  0  0
108106  1  0  0  0  0
109106  1  0  0  0  0
110 86  1  0  0  0  0
111110  1  0  0  0  0
112110  1  0  0  0  0
113  4  1  0  0  0  0
114115  1  0  0  0  0
116113  1  0  0  0  0
117114  1  0  0  0  0
118113  1  0  0  0  0
119114  1  0  0  0  0
120113  1  0  0  0  0
121114  1  0  0  0  0
122113  1  0  0  0  0
123124  1  0  0  0  0
125123  1  0  0  0  0
126123  1  0  0  0  0
127117  4  0  0  0  0
128127  4  0  0  0  0
129128  1  0  0  0  0
130118  4  0  0  0  0
131130  1  0  0  0  0
132131  1  0  0  0  0
133131  1  0  0  0  0
134131  1  0  0  0  0
135136  1  0  0  0  0
137135  1  0  0  0  0
138135  1  0  0  0  0
139119  4  0  0  0  0
140139  4  0  0  0  0
141140  1  0  0  0  0
142120  4  0  0  0  0
143142  1  0  0  0  0
144143  1  0  0  0  0
145143  1  0  0  0  0
146143  1  0  0  0  0
147148  1  0  0  0  0
149147  1  0  0  0  0
150147  1  0  0  0  0
151121  4  0  0  0  0
152151  4  0  0  0  0
153152  1  0  0  0  0
154122  4  0  0  0  0
155154  1  0  0  0  0
156155  1  0  0  0  0
157155  1  0  0  0  0
158155  1  0  0  0  0
159116  1  0  0  0  0
160159  1  0  0  0  0
161159  1  0  0  0  0
162159  1  0  0  0  0
163162  1  0  0  0  0
164162  1  0  0  0  0
165162  1  0  0  0  0
166165  1  0  0  0  0
167165  1  0  0  0  0
168116  1  0  0  0  0
169168  1  0  0  0  0
170168  1  0  0  0  0
  4 86  1  0  0  0  0
  8  9  4  0  0  0  0
 10 11  4  0  0  0  0
 12 13  4  0  0  0  0
 15 19  1  0  0  0  0
 20 22  4  0  0  0  0
 27 31  1  0  0  0  0
 32 34  4  0  0  0  0
 39 43  1  0  0  0  0
 44 46  4  0  0  0  0
 80 83  1  0  0  0  0
 86113  1  0  0  0  0
 88110  1  0  0  0  0
117118  4  0  0  0  0
119120  4  0  0  0  0
121122  4  0  0  0  0
123127  1  0  0  0  0
128130  4  0  0  0  0
135139  1  0  0  0  0
140142  4  0  0  0  0
147151  1  0  0  0  0
152154  4  0  0  0  0
165168  1  0  0  0  0
M  END
$$$$
NONROB

From CSD data. Using bond type 'Any'. No disordered atoms. Largest molecule.
198213  0  0  0  0  0  0  0  0999 V2000
   -1.5484   10.8919    3.8084 Y   0  0  0  0  0  0  0  0  0  0  0  0
   -1.5699    8.2775    6.1225 B   0  0  0  0  0  0  0  0  0  0  0  0
   -1.5774    7.5579    6.7873 H   0  0  0  0  0  0  0  0  0  0  0  0
   -3.8963   13.0303    1.1041 P   0  0  0  0  0  0  0  0  0  0  0  0
   -2.2438   13.5864    6.0628 Si  0  0  0  0  0  0  0  0  0  0  0  0
   -1.8963   14.2125    3.2158 Si  0  0  0  0  0  0  0  0  0  0  0  0
   -2.8151   10.7704    2.1154 O   0  0  0  0  0  0  0  0  0  0  0  0
    0.5540   10.8217    2.6343 O   0  0  0  0  0  0  0  0  0  0  0  0
   -1.2985    7.6443    4.7465 N   0  0  0  0  0  0  0  0  0  0  0  0
   -1.3311    8.4346    3.6374 N   0  0  0  0  0  0  0  0  0  0  0  0
   -0.4269    9.2500    6.4939 N   0  0  0  0  0  0  0  0  0  0  0  0
   -0.1003   10.2866    5.6782 N   0  0  0  0  0  0  0  0  0  0  0  0
   -2.9330    8.9617    6.1606 N   0  0  0  0  0  0  0  0  0  0  0  0
   -3.2181    9.9843    5.2455 N   0  0  0  0  0  0  0  0  0  0  0  0
   -1.9197   13.0418    4.4679 N   0  0  0  0  0  0  0  0  0  0  0  0
   -4.7404   10.5046    0.8007 N   0  0  0  0  0  0  0  0  0  0  0  0
   -1.0610    5.2795    5.4312 C   0  0  0  0  0  0  0  0  0  0  0  0
   -0.3909    5.5079    6.0794 H   0  0  0  0  0  0  0  0  0  0  0  0
   -0.8240    4.4533    5.0034 H   0  0  0  0  0  0  0  0  0  0  0  0
   -1.9101    5.1821    5.8672 H   0  0  0  0  0  0  0  0  0  0  0  0
   -1.1478    6.3408    4.4248 C   0  0  0  0  0  0  0  0  0  0  0  0
   -1.0769    6.2625    3.0604 C   0  0  0  0  0  0  0  0  0  0  0  0
   -0.9904    5.4928    2.5465 H   0  0  0  0  0  0  0  0  0  0  0  0
   -1.1628    7.5826    2.6012 C   0  0  0  0  0  0  0  0  0  0  0  0
   -1.1747    8.0600    1.1854 C   0  0  0  0  0  0  0  0  0  0  0  0
   -1.9721    8.5711    1.0262 H   0  0  0  0  0  0  0  0  0  0  0  0
   -1.1561    7.3042    0.5935 H   0  0  0  0  0  0  0  0  0  0  0  0
   -0.4049    8.6102    1.0262 H   0  0  0  0  0  0  0  0  0  0  0  0
    0.3195    8.2012    8.6358 C   0  0  0  0  0  0  0  0  0  0  0  0
   -0.4898    8.3370    9.1315 H   0  0  0  0  0  0  0  0  0  0  0  0
    1.0743    8.2946    9.2210 H   0  0  0  0  0  0  0  0  0  0  0  0
    0.3184    7.3197    8.2545 H   0  0  0  0  0  0  0  0  0  0  0  0
    0.4101    9.2275    7.5300 C   0  0  0  0  0  0  0  0  0  0  0  0
    1.3305   10.2839    7.3874 C   0  0  0  0  0  0  0  0  0  0  0  0
    2.0339   10.5056    7.9544 H   0  0  0  0  0  0  0  0  0  0  0  0
    0.9596   10.9147    6.2269 C   0  0  0  0  0  0  0  0  0  0  0  0
    1.5622   12.1656    5.6434 C   0  0  0  0  0  0  0  0  0  0  0  0
    2.5203   12.1029    5.6716 H   0  0  0  0  0  0  0  0  0  0  0  0
    1.2765   12.9266    6.1523 H   0  0  0  0  0  0  0  0  0  0  0  0
    1.2756   12.2637    4.7315 H   0  0  0  0  0  0  0  0  0  0  0  0
   -4.1049    7.4791    7.7986 C   0  0  0  0  0  0  0  0  0  0  0  0
   -3.9058    6.6472    7.3626 H   0  0  0  0  0  0  0  0  0  0  0  0
   -4.9861    7.4394    8.1766 H   0  0  0  0  0  0  0  0  0  0  0  0
   -3.4638    7.6350    8.4949 H   0  0  0  0  0  0  0  0  0  0  0  0
   -4.0399    8.5958    6.7989 C   0  0  0  0  0  0  0  0  0  0  0  0
   -5.0781    9.3499    6.3480 C   0  0  0  0  0  0  0  0  0  0  0  0
   -5.9642    9.3004    6.6232 H   0  0  0  0  0  0  0  0  0  0  0  0
   -4.5359   10.2311    5.3682 C   0  0  0  0  0  0  0  0  0  0  0  0
   -5.2342   11.2213    4.5475 C   0  0  0  0  0  0  0  0  0  0  0  0
   -4.6615   11.9789    4.4033 H   0  0  0  0  0  0  0  0  0  0  0  0
   -6.0327   11.5049    4.9985 H   0  0  0  0  0  0  0  0  0  0  0  0
   -5.4649   10.8302    3.7020 H   0  0  0  0  0  0  0  0  0  0  0  0
   -1.8945   12.3523    7.4057 C   0  0  0  0  0  0  0  0  0  0  0  0
   -2.4566   11.5831    7.2863 H   0  0  0  0  0  0  0  0  0  0  0  0
   -2.0730   12.7490    8.2611 H   0  0  0  0  0  0  0  0  0  0  0  0
   -0.9734   12.0849    7.3626 H   0  0  0  0  0  0  0  0  0  0  0  0
   -1.1923   15.0951    6.4789 C   0  0  0  0  0  0  0  0  0  0  0  0
   -0.2760   14.9195    6.2518 H   0  0  0  0  0  0  0  0  0  0  0  0
   -1.2582   15.2827    7.4189 H   0  0  0  0  0  0  0  0  0  0  0  0
   -1.5061   15.8526    5.9783 H   0  0  0  0  0  0  0  0  0  0  0  0
   -4.0459   14.1096    6.3413 C   0  0  0  0  0  0  0  0  0  0  0  0
   -4.2715   14.8172    5.7329 H   0  0  0  0  0  0  0  0  0  0  0  0
   -4.1538   14.4182    7.2449 H   0  0  0  0  0  0  0  0  0  0  0  0
   -4.6241   13.3591    6.1888 H   0  0  0  0  0  0  0  0  0  0  0  0
   -0.2661   15.0926    3.1019 C   0  0  0  0  0  0  0  0  0  0  0  0
   -0.1565   15.6623    3.8678 H   0  0  0  0  0  0  0  0  0  0  0  0
   -0.2450   15.6239    2.3028 H   0  0  0  0  0  0  0  0  0  0  0  0
    0.4444   14.4476    3.0770 H   0  0  0  0  0  0  0  0  0  0  0  0
   -3.2076   15.5691    3.3489 C   0  0  0  0  0  0  0  0  0  0  0  0
   -4.0726   15.1687    3.4566 H   0  0  0  0  0  0  0  0  0  0  0  0
   -3.1988   16.1017    2.5498 H   0  0  0  0  0  0  0  0  0  0  0  0
   -3.0152   16.1265    4.1065 H   0  0  0  0  0  0  0  0  0  0  0  0
   -2.1701   13.4918    1.4821 C   0  0  0  0  0  0  0  0  0  0  0  0
   -1.8763   14.1438    0.8273 H   0  0  0  0  0  0  0  0  0  0  0  0
   -1.6122   12.7050    1.3827 H   0  0  0  0  0  0  0  0  0  0  0  0
   -3.7834   11.1990    1.3528 C   0  0  0  0  0  0  0  0  0  0  0  0
   -4.8642    9.0993    0.9748 C   0  0  0  0  0  0  0  0  0  0  0  0
   -5.4640    8.4284   -0.0995 C   0  0  0  0  0  0  0  0  0  0  0  0
   -5.7150    8.8864   -0.8687 H   0  0  0  0  0  0  0  0  0  0  0  0
   -5.6764    7.0412    0.0216 C   0  0  0  0  0  0  0  0  0  0  0  0
   -6.0412    6.5794   -0.6980 H   0  0  0  0  0  0  0  0  0  0  0  0
   -5.3591    6.3445    1.1754 C   0  0  0  0  0  0  0  0  0  0  0  0
   -5.5465    5.4368    1.2500 H   0  0  0  0  0  0  0  0  0  0  0  0
   -4.7656    7.0211    2.2033 C   0  0  0  0  0  0  0  0  0  0  0  0
   -4.5382    6.5688    2.9825 H   0  0  0  0  0  0  0  0  0  0  0  0
   -4.5024    8.3626    2.0972 C   0  0  0  0  0  0  0  0  0  0  0  0
   -4.0683    8.7936    2.7968 H   0  0  0  0  0  0  0  0  0  0  0  0
    1.5856    9.8032    2.8863 C   0  0  0  0  0  0  0  0  0  0  0  0
    2.1224   10.0460    3.6572 H   0  0  0  0  0  0  0  0  0  0  0  0
    1.1760    8.9401    3.0554 H   0  0  0  0  0  0  0  0  0  0  0  0
    2.3986    9.7507    1.7043 C   0  0  0  0  0  0  0  0  0  0  0  0
    3.3217    9.5800    1.9496 H   0  0  0  0  0  0  0  0  0  0  0  0
    2.0987    9.0285    1.1307 H   0  0  0  0  0  0  0  0  0  0  0  0
    2.3077   10.9895    1.0014 C   0  0  0  0  0  0  0  0  0  0  0  0
    2.2822   10.8427    0.0431 H   0  0  0  0  0  0  0  0  0  0  0  0
    3.0652   11.5610    1.2102 H   0  0  0  0  0  0  0  0  0  0  0  0
    0.9512   11.6308    1.5203 C   0  0  0  0  0  0  0  0  0  0  0  0
    1.0902   12.5497    1.7955 H   0  0  0  0  0  0  0  0  0  0  0  0
    0.2764   11.6106    0.8240 H   0  0  0  0  0  0  0  0  0  0  0  0
   -3.8414   13.0751   -1.1041 P   0  0  0  0  0  0  0  0  0  0  0  0
   -5.4940   12.5190   -6.0628 Si  0  0  0  0  0  0  0  0  0  0  0  0
   -5.8414   11.8929   -3.2158 Si  0  0  0  0  0  0  0  0  0  0  0  0
   -4.9226   15.3350   -2.1154 O   0  0  0  0  0  0  0  0  0  0  0  0
   -5.8180   13.0636   -4.4679 N   0  0  0  0  0  0  0  0  0  0  0  0
   -2.9973   15.6007   -0.8007 N   0  0  0  0  0  0  0  0  0  0  0  0
   -5.8432   13.7531   -7.4057 C   0  0  0  0  0  0  0  0  0  0  0  0
   -5.2812   14.5223   -7.2863 H   0  0  0  0  0  0  0  0  0  0  0  0
   -5.6647   13.3564   -8.2611 H   0  0  0  0  0  0  0  0  0  0  0  0
   -6.7644   14.0205   -7.3626 H   0  0  0  0  0  0  0  0  0  0  0  0
   -6.5454   11.0103   -6.4789 C   0  0  0  0  0  0  0  0  0  0  0  0
   -7.4617   11.1859   -6.2518 H   0  0  0  0  0  0  0  0  0  0  0  0
   -6.4795   10.8227   -7.4189 H   0  0  0  0  0  0  0  0  0  0  0  0
   -6.2317   10.2528   -5.9783 H   0  0  0  0  0  0  0  0  0  0  0  0
   -3.6918   11.9958   -6.3413 C   0  0  0  0  0  0  0  0  0  0  0  0
   -3.4662   11.2882   -5.7329 H   0  0  0  0  0  0  0  0  0  0  0  0
   -3.5840   11.6872   -7.2449 H   0  0  0  0  0  0  0  0  0  0  0  0
   -3.1136   12.7463   -6.1888 H   0  0  0  0  0  0  0  0  0  0  0  0
   -7.4716   11.0128   -3.1019 C   0  0  0  0  0  0  0  0  0  0  0  0
   -7.5813   10.4431   -3.8678 H   0  0  0  0  0  0  0  0  0  0  0  0
   -7.4927   10.4815   -2.3028 H   0  0  0  0  0  0  0  0  0  0  0  0
   -8.1822   11.6578   -3.0770 H   0  0  0  0  0  0  0  0  0  0  0  0
   -4.5301   10.5363   -3.3489 C   0  0  0  0  0  0  0  0  0  0  0  0
   -3.6651   10.9367   -3.4566 H   0  0  0  0  0  0  0  0  0  0  0  0
   -4.5389   10.0037   -2.5498 H   0  0  0  0  0  0  0  0  0  0  0  0
   -4.7226    9.9789   -4.1065 H   0  0  0  0  0  0  0  0  0  0  0  0
   -5.5676   12.6136   -1.4821 C   0  0  0  0  0  0  0  0  0  0  0  0
   -5.8614   11.9616   -0.8273 H   0  0  0  0  0  0  0  0  0  0  0  0
   -6.1255   13.4004   -1.3827 H   0  0  0  0  0  0  0  0  0  0  0  0
   -3.9543   14.9064   -1.3528 C   0  0  0  0  0  0  0  0  0  0  0  0
   -2.8735   17.0060   -0.9748 C   0  0  0  0  0  0  0  0  0  0  0  0
   -2.2737   17.6770    0.0995 C   0  0  0  0  0  0  0  0  0  0  0  0
   -2.0227   17.2190    0.8687 H   0  0  0  0  0  0  0  0  0  0  0  0
   -2.0613   19.0642   -0.0216 C   0  0  0  0  0  0  0  0  0  0  0  0
   -1.6965   19.5260    0.6980 H   0  0  0  0  0  0  0  0  0  0  0  0
   -2.3787   19.7609   -1.1754 C   0  0  0  0  0  0  0  0  0  0  0  0
   -2.1912   20.6686   -1.2500 H   0  0  0  0  0  0  0  0  0  0  0  0
   -2.9721   19.0843   -2.2033 C   0  0  0  0  0  0  0  0  0  0  0  0
   -3.1995   19.5366   -2.9825 H   0  0  0  0  0  0  0  0  0  0  0  0
   -3.2353   17.7428   -2.0972 C   0  0  0  0  0  0  0  0  0  0  0  0
   -3.6694   17.3118   -2.7968 H   0  0  0  0  0  0  0  0  0  0  0  0
   -6.1893   15.2135   -3.8084 Y   0  0  0  0  0  0  0  0  0  0  0  0
   -6.1678   17.8279   -6.1225 B   0  0  0  0  0  0  0  0  0  0  0  0
   -6.1603   18.5475   -6.7873 H   0  0  0  0  0  0  0  0  0  0  0  0
   -8.2917   15.2837   -2.6343 O   0  0  0  0  0  0  0  0  0  0  0  0
   -6.4392   18.4611   -4.7465 N   0  0  0  0  0  0  0  0  0  0  0  0
   -6.4066   17.6708   -3.6374 N   0  0  0  0  0  0  0  0  0  0  0  0
   -7.3108   16.8554   -6.4939 N   0  0  0  0  0  0  0  0  0  0  0  0
   -7.6374   15.8188   -5.6782 N   0  0  0  0  0  0  0  0  0  0  0  0
   -4.8047   17.1437   -6.1606 N   0  0  0  0  0  0  0  0  0  0  0  0
   -4.5196   16.1211   -5.2455 N   0  0  0  0  0  0  0  0  0  0  0  0
   -6.6767   20.8259   -5.4312 C   0  0  0  0  0  0  0  0  0  0  0  0
   -7.3468   20.5975   -6.0794 H   0  0  0  0  0  0  0  0  0  0  0  0
   -6.9137   21.6521   -5.0034 H   0  0  0  0  0  0  0  0  0  0  0  0
   -5.8276   20.9233   -5.8672 H   0  0  0  0  0  0  0  0  0  0  0  0
   -6.5900   19.7646   -4.4248 C   0  0  0  0  0  0  0  0  0  0  0  0
   -6.6608   19.8429   -3.0604 C   0  0  0  0  0  0  0  0  0  0  0  0
   -6.7473   20.6126   -2.5465 H   0  0  0  0  0  0  0  0  0  0  0  0
   -6.5750   18.5228   -2.6012 C   0  0  0  0  0  0  0  0  0  0  0  0
   -6.5630   18.0454   -1.1854 C   0  0  0  0  0  0  0  0  0  0  0  0
   -5.7656   17.5343   -1.0262 H   0  0  0  0  0  0  0  0  0  0  0  0
   -6.5816   18.8012   -0.5935 H   0  0  0  0  0  0  0  0  0  0  0  0
   -7.3328   17.4952   -1.0262 H   0  0  0  0  0  0  0  0  0  0  0  0
   -8.0572   17.9042   -8.6358 C   0  0  0  0  0  0  0  0  0  0  0  0
   -7.2479   17.7684   -9.1315 H   0  0  0  0  0  0  0  0  0  0  0  0
   -8.8120   17.8108   -9.2210 H   0  0  0  0  0  0  0  0  0  0  0  0
   -8.0561   18.7857   -8.2545 H   0  0  0  0  0  0  0  0  0  0  0  0
   -8.1479   16.8779   -7.5300 C   0  0  0  0  0  0  0  0  0  0  0  0
   -9.0682   15.8215   -7.3874 C   0  0  0  0  0  0  0  0  0  0  0  0
   -9.7716   15.5998   -7.9544 H   0  0  0  0  0  0  0  0  0  0  0  0
   -8.6973   15.1907   -6.2269 C   0  0  0  0  0  0  0  0  0  0  0  0
   -9.3000   13.9398   -5.6434 C   0  0  0  0  0  0  0  0  0  0  0  0
  -10.2580   14.0025   -5.6716 H   0  0  0  0  0  0  0  0  0  0  0  0
   -9.0142   13.1788   -6.1523 H   0  0  0  0  0  0  0  0  0  0  0  0
   -9.0133   13.8417   -4.7315 H   0  0  0  0  0  0  0  0  0  0  0  0
   -3.6328   18.6263   -7.7986 C   0  0  0  0  0  0  0  0  0  0  0  0
   -3.8319   19.4582   -7.3626 H   0  0  0  0  0  0  0  0  0  0  0  0
   -2.7517   18.6660   -8.1766 H   0  0  0  0  0  0  0  0  0  0  0  0
   -4.2739   18.4704   -8.4949 H   0  0  0  0  0  0  0  0  0  0  0  0
   -3.6978   17.5096   -6.7989 C   0  0  0  0  0  0  0  0  0  0  0  0
   -2.6596   16.7555   -6.3480 C   0  0  0  0  0  0  0  0  0  0  0  0
   -1.7735   16.8050   -6.6232 H   0  0  0  0  0  0  0  0  0  0  0  0
   -3.2018   15.8743   -5.3682 C   0  0  0  0  0  0  0  0  0  0  0  0
   -2.5035   14.8841   -4.5475 C   0  0  0  0  0  0  0  0  0  0  0  0
   -3.0762   14.1264   -4.4033 H   0  0  0  0  0  0  0  0  0  0  0  0
   -1.7051   14.6005   -4.9985 H   0  0  0  0  0  0  0  0  0  0  0  0
   -2.2729   15.2752   -3.7020 H   0  0  0  0  0  0  0  0  0  0  0  0
   -9.3233   16.3022   -2.8863 C   0  0  0  0  0  0  0  0  0  0  0  0
   -9.8601   16.0593   -3.6572 H   0  0  0  0  0  0  0  0  0  0  0  0
   -8.9137   17.1653   -3.0554 H   0  0  0  0  0  0  0  0  0  0  0  0
  -10.1363   16.3547   -1.7043 C   0  0  0  0  0  0  0  0  0  0  0  0
  -11.0595   16.5254   -1.9496 H   0  0  0  0  0  0  0  0  0  0  0  0
   -9.8364   17.0769   -1.1307 H   0  0  0  0  0  0  0  0  0  0  0  0
  -10.0454   15.1159   -1.0014 C   0  0  0  0  0  0  0  0  0  0  0  0
  -10.0200   15.2627   -0.0431 H   0  0  0  0  0  0  0  0  0  0  0  0
  -10.8029   14.5444   -1.2102 H   0  0  0  0  0  0  0  0  0  0  0  0
   -8.6889   14.4746   -1.5203 C   0  0  0  0  0  0  0  0  0  0  0  0
   -8.8279   13.5557   -1.7955 H   0  0  0  0  0  0  0  0  0  0  0  0
   -8.0141   14.4948   -0.8240 H   0  0  0  0  0  0  0  0  0  0  0  0
  1  7  1  0  0  0  0
  2  3  1  0  0  0  0
  4 73  1  0  0  0  0
  5 15  1  0  0  0  0
  6 15  1  0  0  0  0
  7 76  1  0  0  0  0
  8  1  1  0  0  0  0
  9  2  1  0  0  0  0
 10  1  1  0  0  0  0
 11  2  1  0  0  0  0
 12  1  1  0  0  0  0
 13  2  1  0  0  0  0
 14  1  1  0  0  0  0
 15  1  1  0  0  0  0
 16 76  2  0  0  0  0
 17 18  1  0  0  0  0
 19 17  1  0  0  0  0
 20 17  1  0  0  0  0
 21  9  4  0  0  0  0
 22 21  4  0  0  0  0
 23 22  1  0  0  0  0
 24 10  4  0  0  0  0
 25 24  1  0  0  0  0
 26 25  1  0  0  0  0
 27 25  1  0  0  0  0
 28 25  1  0  0  0  0
 29 30  1  0  0  0  0
 31 29  1  0  0  0  0
 32 29  1  0  0  0  0
 33 11  4  0  0  0  0
 34 33  4  0  0  0  0
 35 34  1  0  0  0  0
 36 12  4  0  0  0  0
 37 36  1  0  0  0  0
 38 37  1  0  0  0  0
 39 37  1  0  0  0  0
 40 37  1  0  0  0  0
 41 42  1  0  0  0  0
 43 41  1  0  0  0  0
 44 41  1  0  0  0  0
 45 13  4  0  0  0  0
 46 45  4  0  0  0  0
 47 46  1  0  0  0  0
 48 14  4  0  0  0  0
 49 48  1  0  0  0  0
 50 49  1  0  0  0  0
 51 49  1  0  0  0  0
 52 49  1  0  0  0  0
 53  5  1  0  0  0  0
 54 53  1  0  0  0  0
 55 53  1  0  0  0  0
 56 53  1  0  0  0  0
 57  5  1  0  0  0  0
 58 57  1  0  0  0  0
 59 57  1  0  0  0  0
 60 57  1  0  0  0  0
 61  5  1  0  0  0  0
 62 61  1  0  0  0  0
 63 61  1  0  0  0  0
 64 61  1  0  0  0  0
 65  6  1  0  0  0  0
 66 65  1  0  0  0  0
 67 65  1  0  0  0  0
 68 65  1  0  0  0  0
 69  6  1  0  0  0  0
 70 69  1  0  0  0  0
 71 69  1  0  0  0  0
 72 69  1  0  0  0  0
 73  6  1  0  0  0  0
 74 73  1  0  0  0  0
 75 73  1  0  0  0  0
 76  4  1  0  0  0  0
 77 16  1  0  0  0  0
 78 77  4  0  0  0  0
 79 78  1  0  0  0  0
 80 78  4  0  0  0  0
 81 80  1  0  0  0  0
 82 80  4  0  0  0  0
 83 82  1  0  0  0  0
 84 82  4  0  0  0  0
 85 84  1  0  0  0  0
 86 77  4  0  0  0  0
 87 86  1  0  0  0  0
 88  8  1  0  0  0  0
 89 88  1  0  0  0  0
 90 88  1  0  0  0  0
 91 88  1  0  0  0  0
 92 91  1  0  0  0  0
 93 91  1  0  0  0  0
 94 91  1  0  0  0  0
 95 94  1  0  0  0  0
 96 94  1  0  0  0  0
 97  8  1  0  0  0  0
 98 97  1  0  0  0  0
 99 97  1  0  0  0  0
100  4  1  0  0  0  0
101104  1  0  0  0  0
102104  1  0  0  0  0
103129  1  0  0  0  0
104141  1  0  0  0  0
105129  2  0  0  0  0
106101  1  0  0  0  0
107106  1  0  0  0  0
108106  1  0  0  0  0
109106  1  0  0  0  0
110101  1  0  0  0  0
111110  1  0  0  0  0
112110  1  0  0  0  0
113110  1  0  0  0  0
114101  1  0  0  0  0
115114  1  0  0  0  0
116114  1  0  0  0  0
117114  1  0  0  0  0
118102  1  0  0  0  0
119118  1  0  0  0  0
120118  1  0  0  0  0
121118  1  0  0  0  0
122102  1  0  0  0  0
123122  1  0  0  0  0
124122  1  0  0  0  0
125122  1  0  0  0  0
126100  1  0  0  0  0
127126  1  0  0  0  0
128126  1  0  0  0  0
129100  1  0  0  0  0
130105  1  0  0  0  0
131130  4  0  0  0  0
132131  1  0  0  0  0
133131  4  0  0  0  0
134133  1  0  0  0  0
135133  4  0  0  0  0
136135  1  0  0  0  0
137135  4  0  0  0  0
138137  1  0  0  0  0
139130  4  0  0  0  0
140139  1  0  0  0  0
141103  1  0  0  0  0
142143  1  0  0  0  0
144141  1  0  0  0  0
145142  1  0  0  0  0
146141  1  0  0  0  0
147142  1  0  0  0  0
148141  1  0  0  0  0
149142  1  0  0  0  0
150141  1  0  0  0  0
151152  1  0  0  0  0
153151  1  0  0  0  0
154151  1  0  0  0  0
155145  4  0  0  0  0
156155  4  0  0  0  0
157156  1  0  0  0  0
158146  4  0  0  0  0
159158  1  0  0  0  0
160159  1  0  0  0  0
161159  1  0  0  0  0
162159  1  0  0  0  0
163164  1  0  0  0  0
165163  1  0  0  0  0
166163  1  0  0  0  0
167147  4  0  0  0  0
168167  4  0  0  0  0
169168  1  0  0  0  0
170148  4  0  0  0  0
171170  1  0  0  0  0
172171  1  0  0  0  0
173171  1  0  0  0  0
174171  1  0  0  0  0
175176  1  0  0  0  0
177175  1  0  0  0  0
178175  1  0  0  0  0
179149  4  0  0  0  0
180179  4  0  0  0  0
181180  1  0  0  0  0
182150  4  0  0  0  0
183182  1  0  0  0  0
184183  1  0  0  0  0
185183  1  0  0  0  0
186183  1  0  0  0  0
187144  1  0  0  0  0
188187  1  0  0  0  0
189187  1  0  0  0  0
190187  1  0  0  0  0
191190  1  0  0  0  0
192190  1  0  0  0  0
193190  1  0  0  0  0
194193  1  0  0  0  0
195193  1  0  0  0  0
196144  1  0  0  0  0
197196  1  0  0  0  0
198196  1  0  0  0  0
  9 10  4  0  0  0  0
 11 12  4  0  0  0  0
 13 14  4  0  0  0  0
 17 21  1  0  0  0  0
 22 24  4  0  0  0  0
 29 33  1  0  0  0  0
 34 36  4  0  0  0  0
 41 45  1  0  0  0  0
 46 48  4  0  0  0  0
 84 86  4  0  0  0  0
 94 97  1  0  0  0  0
102126  1  0  0  0  0
137139  4  0  0  0  0
145146  4  0  0  0  0
147148  4  0  0  0  0
149150  4  0  0  0  0
151155  1  0  0  0  0
156158  4  0  0  0  0
163167  1  0  0  0  0
168170  4  0  0  0  0
175179  1  0  0  0  0
180182  4  0  0  0  0
193196  1  0  0  0  0
M  END
$$$$
NOZBEL

From CSD data. Using bond type 'Any'. No disordered atoms. Largest molecule.
 81 85  0  0  0  0  0  0  0  0999 V2000
    7.4193    3.5419    0.8624 Ru  0  0  0  0  0  0  0  0  0  0  0  0
    7.6437    5.0022    2.7482 P   0  0  0  0  0  0  0  0  0  0  0  0
    7.5463    3.0397   -1.4758 P   0  0  0  0  0  0  0  0  0  0  0  0
    9.1151    2.9021    1.0835 C   0  0  0  0  0  0  0  0  0  0  0  0
   10.1785    2.4894    1.2309 O   0  0  0  0  0  0  0  0  0  0  0  0
    8.7013    4.9756    0.1592 B   0  0  0  0  0  0  0  0  0  0  0  0
    5.2283    2.7635    1.2977 B   0  0  0  0  0  0  0  0  0  0  0  0
    4.6233    2.2733    0.6779 H   0  0  0  0  0  0  0  0  0  0  0  0
    6.5150    2.2089    1.4311 H   0  0  0  0  0  0  0  0  0  0  0  0
    5.9215    3.9824    0.6671 H   0  0  0  0  0  0  0  0  0  0  0  0
    4.8406    2.9989    2.1628 H   0  0  0  0  0  0  0  0  0  0  0  0
    9.3920    5.9494    0.9587 N   0  0  0  0  0  0  0  0  0  0  0  0
   10.5166    6.3783    0.2464 C   0  0  0  0  0  0  0  0  0  0  0  0
   11.5100    7.2699    0.5875 C   0  0  0  0  0  0  0  0  0  0  0  0
   11.4894    7.7358    1.4149 H   0  0  0  0  0  0  0  0  0  0  0  0
   12.5547    7.4649   -0.3260 C   0  0  0  0  0  0  0  0  0  0  0  0
   13.2558    8.0663   -0.1065 H   0  0  0  0  0  0  0  0  0  0  0  0
   12.5904    6.8039   -1.5376 C   0  0  0  0  0  0  0  0  0  0  0  0
   13.3233    6.9361   -2.1283 H   0  0  0  0  0  0  0  0  0  0  0  0
   11.5502    5.9429   -1.8991 C   0  0  0  0  0  0  0  0  0  0  0  0
   11.5562    5.5092   -2.7449 H   0  0  0  0  0  0  0  0  0  0  0  0
   10.5168    5.7317   -1.0114 C   0  0  0  0  0  0  0  0  0  0  0  0
    9.3865    4.9207   -1.0857 N   0  0  0  0  0  0  0  0  0  0  0  0
    9.1928    5.9929    2.3930 C   0  0  0  0  0  0  0  0  0  0  0  0
    9.0829    6.9281    2.6975 H   0  0  0  0  0  0  0  0  0  0  0  0
    9.9704    5.5963    2.8611 H   0  0  0  0  0  0  0  0  0  0  0  0
    6.3513    6.4008    2.8955 C   0  0  0  0  0  0  0  0  0  0  0  0
    6.4671    7.2279    1.6011 C   0  0  0  0  0  0  0  0  0  0  0  0
    6.2724    6.6556    0.8296 H   0  0  0  0  0  0  0  0  0  0  0  0
    7.3791    7.5826    1.5204 H   0  0  0  0  0  0  0  0  0  0  0  0
    5.8296    7.9696    1.6280 H   0  0  0  0  0  0  0  0  0  0  0  0
    4.9421    5.8704    2.9730 C   0  0  0  0  0  0  0  0  0  0  0  0
    4.8442    5.3206    3.7789 H   0  0  0  0  0  0  0  0  0  0  0  0
    4.7528    5.3254    2.1810 H   0  0  0  0  0  0  0  0  0  0  0  0
    4.3122    6.6201    3.0106 H   0  0  0  0  0  0  0  0  0  0  0  0
    6.6147    7.3279    4.0866 C   0  0  0  0  0  0  0  0  0  0  0  0
    6.0465    8.1228    4.0124 H   0  0  0  0  0  0  0  0  0  0  0  0
    7.5555    7.6004    4.0866 H   0  0  0  0  0  0  0  0  0  0  0  0
    6.4101    6.8555    4.9205 H   0  0  0  0  0  0  0  0  0  0  0  0
    8.0121    4.2645    4.4589 C   0  0  0  0  0  0  0  0  0  0  0  0
    8.8549    3.0053    4.2222 C   0  0  0  0  0  0  0  0  0  0  0  0
    9.6838    3.2488    3.7617 H   0  0  0  0  0  0  0  0  0  0  0  0
    8.3487    2.3733    3.6713 H   0  0  0  0  0  0  0  0  0  0  0  0
    9.0691    2.5894    5.0841 H   0  0  0  0  0  0  0  0  0  0  0  0
    6.6925    3.8228    5.1174 C   0  0  0  0  0  0  0  0  0  0  0  0
    6.1468    3.3391    4.4622 H   0  0  0  0  0  0  0  0  0  0  0  0
    6.2028    4.6128    5.4305 H   0  0  0  0  0  0  0  0  0  0  0  0
    6.8873    3.2375    5.8782 H   0  0  0  0  0  0  0  0  0  0  0  0
    8.7918    5.1916    5.3972 C   0  0  0  0  0  0  0  0  0  0  0  0
    8.8801    4.7676    6.2763 H   0  0  0  0  0  0  0  0  0  0  0  0
    8.3118    6.0413    5.4908 H   0  0  0  0  0  0  0  0  0  0  0  0
    9.6832    5.3593    5.0260 H   0  0  0  0  0  0  0  0  0  0  0  0
    9.1307    3.8421   -2.0250 C   0  0  0  0  0  0  0  0  0  0  0  0
    9.8733    3.1875   -2.0110 H   0  0  0  0  0  0  0  0  0  0  0  0
    9.0395    4.1984   -2.9439 H   0  0  0  0  0  0  0  0  0  0  0  0
    6.2944    3.9356   -2.5802 C   0  0  0  0  0  0  0  0  0  0  0  0
    6.4327    3.6567   -4.0597 C   0  0  0  0  0  0  0  0  0  0  0  0
    6.1815    2.7264   -4.2416 H   0  0  0  0  0  0  0  0  0  0  0  0
    7.3628    3.8034   -4.3352 H   0  0  0  0  0  0  0  0  0  0  0  0
    5.8456    4.2581   -4.5633 H   0  0  0  0  0  0  0  0  0  0  0  0
    4.8579    3.5954   -2.1810 C   0  0  0  0  0  0  0  0  0  0  0  0
    4.2363    4.0404   -2.7922 H   0  0  0  0  0  0  0  0  0  0  0  0
    4.6934    3.9018   -1.2654 H   0  0  0  0  0  0  0  0  0  0  0  0
    4.7270    2.6264   -2.2305 H   0  0  0  0  0  0  0  0  0  0  0  0
    6.4736    5.4480   -2.3543 C   0  0  0  0  0  0  0  0  0  0  0  0
    7.3706    5.7172   -2.6448 H   0  0  0  0  0  0  0  0  0  0  0  0
    6.3635    5.6511   -1.4020 H   0  0  0  0  0  0  0  0  0  0  0  0
    5.8012    5.9365   -2.8729 H   0  0  0  0  0  0  0  0  0  0  0  0
    7.7754    1.2592   -2.0433 C   0  0  0  0  0  0  0  0  0  0  0  0
    8.4284    1.0964   -3.4184 C   0  0  0  0  0  0  0  0  0  0  0  0
    8.5934    0.1467   -3.5917 H   0  0  0  0  0  0  0  0  0  0  0  0
    9.2773    1.5849   -3.4367 H   0  0  0  0  0  0  0  0  0  0  0  0
    7.8294    1.4559   -4.1081 H   0  0  0  0  0  0  0  0  0  0  0  0
    6.4239    0.5385   -2.0347 C   0  0  0  0  0  0  0  0  0  0  0  0
    5.8993    0.8207   -2.8127 H   0  0  0  0  0  0  0  0  0  0  0  0
    5.9381    0.7642   -1.2137 H   0  0  0  0  0  0  0  0  0  0  0  0
    6.5692   -0.4289   -2.0734 H   0  0  0  0  0  0  0  0  0  0  0  0
    8.6871    0.5756   -1.0211 C   0  0  0  0  0  0  0  0  0  0  0  0
    8.8928   -0.3337   -1.3235 H   0  0  0  0  0  0  0  0  0  0  0  0
    8.2344    0.5369   -0.1528 H   0  0  0  0  0  0  0  0  0  0  0  0
    9.5210    1.0851   -0.9340 H   0  0  0  0  0  0  0  0  0  0  0  0
  1  2  1  0  0  0  0
  2 24  1  0  0  0  0
  3  1  1  0  0  0  0
  4  1  1  0  0  0  0
  5  4  3  0  0  0  0
  6  1  1  0  0  0  0
  7  8  1  0  0  0  0
  9  1  1  0  0  0  0
 10  1  1  0  0  0  0
 11  7  1  0  0  0  0
 12  6  1  0  0  0  0
 13 12  1  0  0  0  0
 14 13  4  0  0  0  0
 15 14  1  0  0  0  0
 16 14  4  0  0  0  0
 17 16  1  0  0  0  0
 18 16  4  0  0  0  0
 19 18  1  0  0  0  0
 20 18  4  0  0  0  0
 21 20  1  0  0  0  0
 22 13  4  0  0  0  0
 23  6  1  0  0  0  0
 24 12  1  0  0  0  0
 25 24  1  0  0  0  0
 26 24  1  0  0  0  0
 27  2  1  0  0  0  0
 28 27  1  0  0  0  0
 29 28  1  0  0  0  0
 30 28  1  0  0  0  0
 31 28  1  0  0  0  0
 32 27  1  0  0  0  0
 33 32  1  0  0  0  0
 34 32  1  0  0  0  0
 35 32  1  0  0  0  0
 36 27  1  0  0  0  0
 37 36  1  0  0  0  0
 38 36  1  0  0  0  0
 39 36  1  0  0  0  0
 40  2  1  0  0  0  0
 41 40  1  0  0  0  0
 42 41  1  0  0  0  0
 43 41  1  0  0  0  0
 44 41  1  0  0  0  0
 45 40  1  0  0  0  0
 46 45  1  0  0  0  0
 47 45  1  0  0  0  0
 48 45  1  0  0  0  0
 49 40  1  0  0  0  0
 50 49  1  0  0  0  0
 51 49  1  0  0  0  0
 52 49  1  0  0  0  0
 53  3  1  0  0  0  0
 54 53  1  0  0  0  0
 55 53  1  0  0  0  0
 56  3  1  0  0  0  0
 57 56  1  0  0  0  0
 58 57  1  0  0  0  0
 59 57  1  0  0  0  0
 60 57  1  0  0  0  0
 61 56  1  0  0  0  0
 62 61  1  0  0  0  0
 63 61  1  0  0  0  0
 64 61  1  0  0  0  0
 65 56  1  0  0  0  0
 66 65  1  0  0  0  0
 67 65  1  0  0  0  0
 68 65  1  0  0  0  0
 69  3  1  0  0  0  0
 70 69  1  0  0  0  0
 71 70  1  0  0  0  0
 72 70  1  0  0  0  0
 73 70  1  0  0  0  0
 74 69  1  0  0  0  0
 75 74  1  0  0  0  0
 76 74  1  0  0  0  0
 77 74  1  0  0  0  0
 78 69  1  0  0  0  0
 79 78  1  0  0  0  0
 80 78  1  0  0  0  0
 81 78  1  0  0  0  0
  7  9  1  0  0  0  0
  7 10  1  0  0  0  0
 20 22  4  0  0  0  0
 22 23  1  0  0  0  0
 23 53  1  0  0  0  0
M  END
$$$$
NUDTIR

From CSD data. Using bond type 'Any'. No disordered atoms. Largest molecule.
117126  0  0  0  0  0  0  0  0999 V2000
    7.5180    6.3569    8.6952 Ba  0  0  0  0  0  0  0  0  0  0  0  0
    6.3784    3.6918    6.7072 P   0  0  0  0  0  0  0  0  0  0  0  0
   10.6621    7.0761   10.0782 P   0  0  0  0  0  0  0  0  0  0  0  0
    6.4356    8.4634    7.2790 O   0  0  0  0  0  0  0  0  0  0  0  0
    5.8991    7.3072   10.6321 O   0  0  0  0  0  0  0  0  0  0  0  0
    7.7026    4.6070    6.6817 N   0  0  0  0  0  0  0  0  0  0  0  0
    9.6540    5.8372   10.2351 N   0  0  0  0  0  0  0  0  0  0  0  0
    9.9712    8.3390    8.8022 B   0  0  0  0  0  0  0  0  0  0  0  0
    5.0628    4.4249    7.9130 B   0  0  0  0  0  0  0  0  0  0  0  0
    8.6805    4.4397    5.5799 C   0  0  0  0  0  0  0  0  0  0  0  0
    8.6673    3.5026    5.2928 H   0  0  0  0  0  0  0  0  0  0  0  0
   10.0769    4.7669    6.1051 C   0  0  0  0  0  0  0  0  0  0  0  0
   10.0733    5.6418    6.5009 H   0  0  0  0  0  0  0  0  0  0  0  0
   10.7051    4.7461    5.3783 H   0  0  0  0  0  0  0  0  0  0  0  0
   10.3304    4.1170    6.7647 H   0  0  0  0  0  0  0  0  0  0  0  0
    8.3376    5.3176    4.3840 C   0  0  0  0  0  0  0  0  0  0  0  0
    8.3438    4.8113    3.1063 C   0  0  0  0  0  0  0  0  0  0  0  0
    8.5938    3.9260    2.9671 H   0  0  0  0  0  0  0  0  0  0  0  0
    7.9819    5.6062    2.0106 C   0  0  0  0  0  0  0  0  0  0  0  0
    7.9772    5.2391    1.1556 H   0  0  0  0  0  0  0  0  0  0  0  0
    7.6333    6.9238    2.1902 C   0  0  0  0  0  0  0  0  0  0  0  0
    7.3930    7.4508    1.4622 H   0  0  0  0  0  0  0  0  0  0  0  0
    7.6462    7.4552    3.4691 C   0  0  0  0  0  0  0  0  0  0  0  0
    7.4238    8.3494    3.6035 H   0  0  0  0  0  0  0  0  0  0  0  0
    7.9921    6.6529    4.5526 C   0  0  0  0  0  0  0  0  0  0  0  0
    7.9915    7.0185    5.4076 H   0  0  0  0  0  0  0  0  0  0  0  0
    5.6541    3.5011    5.0412 C   0  0  0  0  0  0  0  0  0  0  0  0
    5.7398    2.3109    4.3168 C   0  0  0  0  0  0  0  0  0  0  0  0
    6.1278    1.5603    4.7065 H   0  0  0  0  0  0  0  0  0  0  0  0
    5.2504    2.2369    3.0171 C   0  0  0  0  0  0  0  0  0  0  0  0
    5.2947    1.4345    2.5505 H   0  0  0  0  0  0  0  0  0  0  0  0
    4.6979    3.3516    2.4162 C   0  0  0  0  0  0  0  0  0  0  0  0
    4.3893    3.3057    1.5403 H   0  0  0  0  0  0  0  0  0  0  0  0
    4.6067    4.5433    3.1259 C   0  0  0  0  0  0  0  0  0  0  0  0
    4.2258    5.2924    2.7301 H   0  0  0  0  0  0  0  0  0  0  0  0
    5.0829    4.6099    4.4280 C   0  0  0  0  0  0  0  0  0  0  0  0
    5.0203    5.4108    4.8970 H   0  0  0  0  0  0  0  0  0  0  0  0
    6.7387    1.9778    7.2228 C   0  0  0  0  0  0  0  0  0  0  0  0
    5.6996    1.0496    7.4439 C   0  0  0  0  0  0  0  0  0  0  0  0
    4.8198    1.2820    7.2509 H   0  0  0  0  0  0  0  0  0  0  0  0
    5.9920   -0.2161    7.9496 C   0  0  0  0  0  0  0  0  0  0  0  0
    5.3044   -0.8231    8.1023 H   0  0  0  0  0  0  0  0  0  0  0  0
    7.3016   -0.5759    8.2281 C   0  0  0  0  0  0  0  0  0  0  0  0
    7.4897   -1.4212    8.5665 H   0  0  0  0  0  0  0  0  0  0  0  0
    8.3215    0.3124    8.0034 C   0  0  0  0  0  0  0  0  0  0  0  0
    9.1985    0.0666    8.1890 H   0  0  0  0  0  0  0  0  0  0  0  0
    8.0509    1.5855    7.4989 C   0  0  0  0  0  0  0  0  0  0  0  0
    8.7509    2.1791    7.3450 H   0  0  0  0  0  0  0  0  0  0  0  0
    9.9956    4.6632   11.0804 C   0  0  0  0  0  0  0  0  0  0  0  0
   10.5564    4.9637   11.8255 H   0  0  0  0  0  0  0  0  0  0  0  0
   10.7588    3.5944   10.2888 C   0  0  0  0  0  0  0  0  0  0  0  0
   10.2302    3.3146    9.5376 H   0  0  0  0  0  0  0  0  0  0  0  0
   10.9333    2.8394   10.8568 H   0  0  0  0  0  0  0  0  0  0  0  0
   11.5905    3.9586    9.9773 H   0  0  0  0  0  0  0  0  0  0  0  0
    8.6982    4.1170   11.6374 C   0  0  0  0  0  0  0  0  0  0  0  0
    7.7618    3.4952   10.8141 C   0  0  0  0  0  0  0  0  0  0  0  0
    7.9483    3.4064    9.9077 H   0  0  0  0  0  0  0  0  0  0  0  0
    6.5623    3.0052   11.2990 C   0  0  0  0  0  0  0  0  0  0  0  0
    5.9502    2.6203   10.7139 H   0  0  0  0  0  0  0  0  0  0  0  0
    6.2695    3.0851   12.6366 C   0  0  0  0  0  0  0  0  0  0  0  0
    5.4723    2.7358   12.9651 H   0  0  0  0  0  0  0  0  0  0  0  0
    7.1764    3.6936   13.4965 C   0  0  0  0  0  0  0  0  0  0  0  0
    6.9806    3.7646   14.4029 H   0  0  0  0  0  0  0  0  0  0  0  0
    8.3862    4.1999   12.9994 C   0  0  0  0  0  0  0  0  0  0  0  0
    8.9910    4.5966   13.5832 H   0  0  0  0  0  0  0  0  0  0  0  0
   10.9453    7.9763   11.6569 C   0  0  0  0  0  0  0  0  0  0  0  0
   10.1139    7.7602   12.7428 C   0  0  0  0  0  0  0  0  0  0  0  0
    9.4386    7.1222   12.6915 H   0  0  0  0  0  0  0  0  0  0  0  0
   10.2872    8.5019   13.9155 C   0  0  0  0  0  0  0  0  0  0  0  0
    9.7349    8.3509   14.6484 H   0  0  0  0  0  0  0  0  0  0  0  0
   11.2888    9.4641   13.9827 C   0  0  0  0  0  0  0  0  0  0  0  0
   11.4065    9.9586   14.7620 H   0  0  0  0  0  0  0  0  0  0  0  0
   12.1064    9.6877   12.8980 C   0  0  0  0  0  0  0  0  0  0  0  0
   12.7745   10.3316   12.9456 H   0  0  0  0  0  0  0  0  0  0  0  0
   11.9354    8.9564   11.7387 C   0  0  0  0  0  0  0  0  0  0  0  0
   12.4851    9.1192   11.0058 H   0  0  0  0  0  0  0  0  0  0  0  0
   13.2732    6.1244   10.6211 C   0  0  0  0  0  0  0  0  0  0  0  0
   13.0338    6.1392   11.5201 H   0  0  0  0  0  0  0  0  0  0  0  0
   14.5166    5.6595   10.2522 C   0  0  0  0  0  0  0  0  0  0  0  0
   15.1070    5.3531   10.9020 H   0  0  0  0  0  0  0  0  0  0  0  0
   14.8970    5.6477    8.9134 C   0  0  0  0  0  0  0  0  0  0  0  0
   15.7413    5.3412    8.6691 H   0  0  0  0  0  0  0  0  0  0  0  0
   14.0136    6.0918    7.9496 C   0  0  0  0  0  0  0  0  0  0  0  0
   14.2702    6.0888    7.0555 H   0  0  0  0  0  0  0  0  0  0  0  0
   12.7467    6.5433    8.2977 C   0  0  0  0  0  0  0  0  0  0  0  0
   12.1548    6.8231    7.6381 H   0  0  0  0  0  0  0  0  0  0  0  0
   12.3640    6.5744    9.6512 C   0  0  0  0  0  0  0  0  0  0  0  0
    5.1474    8.5359    6.6646 C   0  0  0  0  0  0  0  0  0  0  0  0
    4.4717    8.1747    7.2595 H   0  0  0  0  0  0  0  0  0  0  0  0
    5.1394    8.0222    5.8413 H   0  0  0  0  0  0  0  0  0  0  0  0
    4.8802    9.9142    6.3897 C   0  0  0  0  0  0  0  0  0  0  0  0
    4.5551   10.0148    5.4822 H   0  0  0  0  0  0  0  0  0  0  0  0
    4.1995   10.2473    6.9968 H   0  0  0  0  0  0  0  0  0  0  0  0
    6.0796   10.6425    6.5608 C   0  0  0  0  0  0  0  0  0  0  0  0
    5.9580   11.3265    7.2375 H   0  0  0  0  0  0  0  0  0  0  0  0
    6.3243   11.0748    5.7277 H   0  0  0  0  0  0  0  0  0  0  0  0
    7.1378    9.7099    6.9712 C   0  0  0  0  0  0  0  0  0  0  0  0
    7.7774    9.5781    6.2554 H   0  0  0  0  0  0  0  0  0  0  0  0
    7.6058   10.0444    7.7529 H   0  0  0  0  0  0  0  0  0  0  0  0
    4.5803    7.8846   10.4476 C   0  0  0  0  0  0  0  0  0  0  0  0
    4.0666    7.3635    9.8124 H   0  0  0  0  0  0  0  0  0  0  0  0
    4.6498    8.7950   10.1202 H   0  0  0  0  0  0  0  0  0  0  0  0
    3.9354    7.8594   11.7937 C   0  0  0  0  0  0  0  0  0  0  0  0
    2.9843    7.6847   11.7180 H   0  0  0  0  0  0  0  0  0  0  0  0
    4.0655    8.7017   12.2567 H   0  0  0  0  0  0  0  0  0  0  0  0
    4.6373    6.7254   12.5205 C   0  0  0  0  0  0  0  0  0  0  0  0
    4.5981    6.8394   13.4831 H   0  0  0  0  0  0  0  0  0  0  0  0
    4.2649    5.8623   12.2811 H   0  0  0  0  0  0  0  0  0  0  0  0
    6.0513    6.8883   11.9953 C   0  0  0  0  0  0  0  0  0  0  0  0
    6.5335    7.5559   12.5083 H   0  0  0  0  0  0  0  0  0  0  0  0
    6.5343    6.0474   12.0441 H   0  0  0  0  0  0  0  0  0  0  0  0
    4.1944    3.6862    7.8910 H   0  0  0  0  0  0  0  0  0  0  0  0
    9.8158    7.8313    7.7933 H   0  0  0  0  0  0  0  0  0  0  0  0
    5.5112    4.5892    8.8315 H   0  0  0  0  0  0  0  0  0  0  0  0
    4.8032    5.2998    7.4024 H   0  0  0  0  0  0  0  0  0  0  0  0
    9.0352    8.6751    9.1980 H   0  0  0  0  0  0  0  0  0  0  0  0
   10.7745    9.1636    8.6117 H   0  0  0  0  0  0  0  0  0  0  0  0
  1  4  1  0  0  0  0
  2  6  1  0  0  0  0
  3  7  1  0  0  0  0
  4 88  1  0  0  0  0
  5  1  1  0  0  0  0
  6  1  1  0  0  0  0
  7  1  1  0  0  0  0
  8  3  1  0  0  0  0
  9  2  1  0  0  0  0
 10  6  1  0  0  0  0
 11 10  1  0  0  0  0
 12 10  1  0  0  0  0
 13 12  1  0  0  0  0
 14 12  1  0  0  0  0
 15 12  1  0  0  0  0
 16 10  1  0  0  0  0
 17 16  4  0  0  0  0
 18 17  1  0  0  0  0
 19 17  4  0  0  0  0
 20 19  1  0  0  0  0
 21 19  4  0  0  0  0
 22 21  1  0  0  0  0
 23 21  4  0  0  0  0
 24 23  1  0  0  0  0
 25 16  4  0  0  0  0
 26 25  1  0  0  0  0
 27  2  1  0  0  0  0
 28 27  4  0  0  0  0
 29 28  1  0  0  0  0
 30 28  4  0  0  0  0
 31 30  1  0  0  0  0
 32 30  4  0  0  0  0
 33 32  1  0  0  0  0
 34 32  4  0  0  0  0
 35 34  1  0  0  0  0
 36 27  4  0  0  0  0
 37 36  1  0  0  0  0
 38  2  1  0  0  0  0
 39 38  4  0  0  0  0
 40 39  1  0  0  0  0
 41 39  4  0  0  0  0
 42 41  1  0  0  0  0
 43 41  4  0  0  0  0
 44 43  1  0  0  0  0
 45 43  4  0  0  0  0
 46 45  1  0  0  0  0
 47 38  4  0  0  0  0
 48 47  1  0  0  0  0
 49  7  1  0  0  0  0
 50 49  1  0  0  0  0
 51 49  1  0  0  0  0
 52 51  1  0  0  0  0
 53 51  1  0  0  0  0
 54 51  1  0  0  0  0
 55 49  1  0  0  0  0
 56 55  4  0  0  0  0
 57 56  1  0  0  0  0
 58 56  4  0  0  0  0
 59 58  1  0  0  0  0
 60 58  4  0  0  0  0
 61 60  1  0  0  0  0
 62 60  4  0  0  0  0
 63 62  1  0  0  0  0
 64 55  4  0  0  0  0
 65 64  1  0  0  0  0
 66  3  1  0  0  0  0
 67 66  4  0  0  0  0
 68 67  1  0  0  0  0
 69 67  4  0  0  0  0
 70 69  1  0  0  0  0
 71 69  4  0  0  0  0
 72 71  1  0  0  0  0
 73 71  4  0  0  0  0
 74 73  1  0  0  0  0
 75 66  4  0  0  0  0
 76 75  1  0  0  0  0
 77 78  1  0  0  0  0
 79 77  4  0  0  0  0
 80 79  1  0  0  0  0
 81 79  4  0  0  0  0
 82 81  1  0  0  0  0
 83 81  4  0  0  0  0
 84 83  1  0  0  0  0
 85 83  4  0  0  0  0
 86 85  1  0  0  0  0
 87  3  1  0  0  0  0
 88 89  1  0  0  0  0
 90 88  1  0  0  0  0
 91 88  1  0  0  0  0
 92 91  1  0  0  0  0
 93 91  1  0  0  0  0
 94 91  1  0  0  0  0
 95 94  1  0  0  0  0
 96 94  1  0  0  0  0
 97  4  1  0  0  0  0
 98 97  1  0  0  0  0
 99 97  1  0  0  0  0
100  5  1  0  0  0  0
101100  1  0  0  0  0
102100  1  0  0  0  0
103100  1  0  0  0  0
104103  1  0  0  0  0
105103  1  0  0  0  0
106103  1  0  0  0  0
107106  1  0  0  0  0
108106  1  0  0  0  0
109  5  1  0  0  0  0
110109  1  0  0  0  0
111109  1  0  0  0  0
112  9  1  0  0  0  0
113  8  1  0  0  0  0
114  1  1  0  0  0  0
115  9  1  0  0  0  0
116  1  1  0  0  0  0
117  8  1  0  0  0  0
  8116  1  0  0  0  0
  9114  1  0  0  0  0
 23 25  4  0  0  0  0
 34 36  4  0  0  0  0
 45 47  4  0  0  0  0
 62 64  4  0  0  0  0
 73 75  4  0  0  0  0
 77 87  4  0  0  0  0
 85 87  4  0  0  0  0
 94 97  1  0  0  0  0
106109  1  0  0  0  0
M  END
$$$$
NUDTOX

From CSD data. Using bond type 'Any'. No disordered atoms. Largest molecule.
117126  0  0  0  0  0  0  0  0999 V2000
   -3.8261    8.8962    9.6292 Ba  0  0  0  0  0  0  0  0  0  0  0  0
   -2.6794   11.5581   11.6210 P   0  0  0  0  0  0  0  0  0  0  0  0
   -6.9648    8.1791    8.2409 P   0  0  0  0  0  0  0  0  0  0  0  0
   -2.2084    7.9482    7.6941 O   0  0  0  0  0  0  0  0  0  0  0  0
   -2.7405    6.7648   11.0406 O   0  0  0  0  0  0  0  0  0  0  0  0
   -4.0064   10.6494   11.6437 N   0  0  0  0  0  0  0  0  0  0  0  0
   -5.9545    9.4186    8.0824 N   0  0  0  0  0  0  0  0  0  0  0  0
   -1.3643   10.8240   10.4301 B   0  0  0  0  0  0  0  0  0  0  0  0
   -6.2781    6.9157    9.5132 B   0  0  0  0  0  0  0  0  0  0  0  0
   -4.9802   10.8121   12.7425 C   0  0  0  0  0  0  0  0  0  0  0  0
   -4.9705   11.7485   13.0343 H   0  0  0  0  0  0  0  0  0  0  0  0
   -6.3783   10.4808   12.2017 C   0  0  0  0  0  0  0  0  0  0  0  0
   -6.6332   11.1376   11.5497 H   0  0  0  0  0  0  0  0  0  0  0  0
   -7.0106   10.4867   12.9244 H   0  0  0  0  0  0  0  0  0  0  0  0
   -6.3649    9.6124   11.7939 H   0  0  0  0  0  0  0  0  0  0  0  0
   -4.6478    9.9275   13.9317 C   0  0  0  0  0  0  0  0  0  0  0  0
   -4.2910    8.5932   13.7779 C   0  0  0  0  0  0  0  0  0  0  0  0
   -4.2748    8.2234   12.9244 H   0  0  0  0  0  0  0  0  0  0  0  0
   -3.9596    7.8033   14.8620 C   0  0  0  0  0  0  0  0  0  0  0  0
   -3.7397    6.9098   14.7265 H   0  0  0  0  0  0  0  0  0  0  0  0
   -3.9496    8.3136   16.1305 C   0  0  0  0  0  0  0  0  0  0  0  0
   -3.7115    7.7811   16.8557 H   0  0  0  0  0  0  0  0  0  0  0  0
   -4.2967    9.6272   16.3088 C   0  0  0  0  0  0  0  0  0  0  0  0
   -4.3016    9.9882   17.1658 H   0  0  0  0  0  0  0  0  0  0  0  0
   -4.6446   10.4349   15.2210 C   0  0  0  0  0  0  0  0  0  0  0  0
   -4.8754   11.3240   15.3650 H   0  0  0  0  0  0  0  0  0  0  0  0
   -1.9584   11.7544   13.2834 C   0  0  0  0  0  0  0  0  0  0  0  0
   -1.3910   10.6376   13.8902 C   0  0  0  0  0  0  0  0  0  0  0  0
   -1.3258    9.8388   13.4177 H   0  0  0  0  0  0  0  0  0  0  0  0
   -0.9152   10.7056   15.2087 C   0  0  0  0  0  0  0  0  0  0  0  0
   -0.5402    9.9571   15.6129 H   0  0  0  0  0  0  0  0  0  0  0  0
   -1.0084   11.9009   15.9034 C   0  0  0  0  0  0  0  0  0  0  0  0
   -0.6980   11.9527   16.7788 H   0  0  0  0  0  0  0  0  0  0  0  0
   -1.5598   13.0118   15.3064 C   0  0  0  0  0  0  0  0  0  0  0  0
   -1.6055   13.8151   15.7740 H   0  0  0  0  0  0  0  0  0  0  0  0
   -2.0490   12.9393   14.0086 C   0  0  0  0  0  0  0  0  0  0  0  0
   -2.4401   13.6893   13.6204 H   0  0  0  0  0  0  0  0  0  0  0  0
   -3.0375   13.2825   11.1041 C   0  0  0  0  0  0  0  0  0  0  0  0
   -2.0097   14.2041   10.8807 C   0  0  0  0  0  0  0  0  0  0  0  0
   -1.1294   13.9719   11.0675 H   0  0  0  0  0  0  0  0  0  0  0  0
   -2.3014   15.4660   10.3813 C   0  0  0  0  0  0  0  0  0  0  0  0
   -1.6151   16.0754   10.2336 H   0  0  0  0  0  0  0  0  0  0  0  0
   -3.5991   15.8195   10.1042 C   0  0  0  0  0  0  0  0  0  0  0  0
   -3.7880   16.6627    9.7599 H   0  0  0  0  0  0  0  0  0  0  0  0
   -4.6142   14.9320   10.3337 C   0  0  0  0  0  0  0  0  0  0  0  0
   -5.4935   15.1805   10.1628 H   0  0  0  0  0  0  0  0  0  0  0  0
   -4.3388   13.6731   10.8159 C   0  0  0  0  0  0  0  0  0  0  0  0
   -5.0378   13.0740   10.9527 H   0  0  0  0  0  0  0  0  0  0  0  0
   -6.3008   10.5843    7.2460 C   0  0  0  0  0  0  0  0  0  0  0  0
   -6.8620   10.2811    6.5025 H   0  0  0  0  0  0  0  0  0  0  0  0
   -7.0614   11.6672    8.0262 C   0  0  0  0  0  0  0  0  0  0  0  0
   -7.8911   11.3062    8.3473 H   0  0  0  0  0  0  0  0  0  0  0  0
   -7.2383   12.4127    7.4499 H   0  0  0  0  0  0  0  0  0  0  0  0
   -6.5297   11.9586    8.7709 H   0  0  0  0  0  0  0  0  0  0  0  0
   -5.0019   11.1376    6.6783 C   0  0  0  0  0  0  0  0  0  0  0  0
   -4.0680   11.7485    7.5098 C   0  0  0  0  0  0  0  0  0  0  0  0
   -4.2566   11.8447    8.4144 H   0  0  0  0  0  0  0  0  0  0  0  0
   -2.8563   12.2204    7.0141 C   0  0  0  0  0  0  0  0  0  0  0  0
   -2.2302   12.5858    7.5964 H   0  0  0  0  0  0  0  0  0  0  0  0
   -2.5787   12.1509    5.6699 C   0  0  0  0  0  0  0  0  0  0  0  0
   -1.7848   12.5000    5.3341 H   0  0  0  0  0  0  0  0  0  0  0  0
   -3.4925   11.5518    4.8274 C   0  0  0  0  0  0  0  0  0  0  0  0
   -3.3033   11.4822    3.9191 H   0  0  0  0  0  0  0  0  0  0  0  0
   -4.6918   11.0547    5.3195 C   0  0  0  0  0  0  0  0  0  0  0  0
   -5.2988   10.6598    4.7359 H   0  0  0  0  0  0  0  0  0  0  0  0
   -8.6597    8.6864    8.6672 C   0  0  0  0  0  0  0  0  0  0  0  0
   -9.0504    8.7115   10.0089 C   0  0  0  0  0  0  0  0  0  0  0  0
   -8.4614    8.4216   10.6682 H   0  0  0  0  0  0  0  0  0  0  0  0
  -10.3120    9.1642   10.3593 C   0  0  0  0  0  0  0  0  0  0  0  0
  -10.5685    9.1627   11.2530 H   0  0  0  0  0  0  0  0  0  0  0  0
  -11.1902    9.6169    9.3997 C   0  0  0  0  0  0  0  0  0  0  0  0
  -12.0314    9.9290    9.6463 H   0  0  0  0  0  0  0  0  0  0  0  0
  -10.8145    9.6050    8.0640 C   0  0  0  0  0  0  0  0  0  0  0  0
  -11.4026    9.9127    7.4133 H   0  0  0  0  0  0  0  0  0  0  0  0
   -9.5644    9.1376    7.7002 C   0  0  0  0  0  0  0  0  0  0  0  0
   -9.3231    9.1228    6.8029 H   0  0  0  0  0  0  0  0  0  0  0  0
   -7.2458    7.2825    6.6576 C   0  0  0  0  0  0  0  0  0  0  0  0
   -8.2388    6.3033    6.5770 C   0  0  0  0  0  0  0  0  0  0  0  0
   -8.7940    6.1524    7.3083 H   0  0  0  0  0  0  0  0  0  0  0  0
   -8.4092    5.5592    5.4306 C   0  0  0  0  0  0  0  0  0  0  0  0
   -9.0648    4.9024    5.3891 H   0  0  0  0  0  0  0  0  0  0  0  0
   -7.5847    5.8062    4.3305 C   0  0  0  0  0  0  0  0  0  0  0  0
   -7.7078    5.3299    3.5406 H   0  0  0  0  0  0  0  0  0  0  0  0
   -6.5949    6.7456    4.4148 C   0  0  0  0  0  0  0  0  0  0  0  0
   -6.0331    6.8861    3.6859 H   0  0  0  0  0  0  0  0  0  0  0  0
   -6.4142    7.4970    5.5795 C   0  0  0  0  0  0  0  0  0  0  0  0
   -5.7394    8.1346    5.6271 H   0  0  0  0  0  0  0  0  0  0  0  0
   -2.3666    8.3624    6.3206 C   0  0  0  0  0  0  0  0  0  0  0  0
   -2.8457    9.2041    6.2681 H   0  0  0  0  0  0  0  0  0  0  0  0
   -2.8536    7.6923    5.8151 H   0  0  0  0  0  0  0  0  0  0  0  0
   -0.9740    8.5118    5.7981 C   0  0  0  0  0  0  0  0  0  0  0  0
   -0.6044    9.3817    6.0166 H   0  0  0  0  0  0  0  0  0  0  0  0
   -0.9405    8.3817    4.8372 H   0  0  0  0  0  0  0  0  0  0  0  0
   -0.2459    7.3920    6.5391 C   0  0  0  0  0  0  0  0  0  0  0  0
   -0.3649    6.5414    6.0898 H   0  0  0  0  0  0  0  0  0  0  0  0
    0.7023    7.5814    6.6148 H   0  0  0  0  0  0  0  0  0  0  0  0
   -0.8977    7.3876    7.8724 C   0  0  0  0  0  0  0  0  0  0  0  0
   -0.9612    6.4822    8.2142 H   0  0  0  0  0  0  0  0  0  0  0  0
   -0.3844    7.9216    8.4999 H   0  0  0  0  0  0  0  0  0  0  0  0
   -3.4438    5.5192   11.3409 C   0  0  0  0  0  0  0  0  0  0  0  0
   -4.0942    5.6494   12.0478 H   0  0  0  0  0  0  0  0  0  0  0  0
   -3.8949    5.1746   10.5547 H   0  0  0  0  0  0  0  0  0  0  0  0
   -2.3795    4.6257   11.7670 C   0  0  0  0  0  0  0  0  0  0  0  0
   -2.6403    4.1731   12.5850 H   0  0  0  0  0  0  0  0  0  0  0  0
   -2.2222    3.9556   11.0858 H   0  0  0  0  0  0  0  0  0  0  0  0
   -1.2323    5.3462   11.9819 C   0  0  0  0  0  0  0  0  0  0  0  0
   -0.5146    4.9867   11.4374 H   0  0  0  0  0  0  0  0  0  0  0  0
   -0.9720    5.2751   12.9135 H   0  0  0  0  0  0  0  0  0  0  0  0
   -1.4519    6.7071   11.6486 C   0  0  0  0  0  0  0  0  0  0  0  0
   -0.7713    7.0192   11.0333 H   0  0  0  0  0  0  0  0  0  0  0  0
   -1.4273    7.2604   12.4459 H   0  0  0  0  0  0  0  0  0  0  0  0
   -1.8507   10.7101    9.4376 H   0  0  0  0  0  0  0  0  0  0  0  0
   -0.5930   11.4645   10.4387 H   0  0  0  0  0  0  0  0  0  0  0  0
   -1.0068    9.8669   10.7561 H   0  0  0  0  0  0  0  0  0  0  0  0
   -5.2505    6.4349    9.0713 H   0  0  0  0  0  0  0  0  0  0  0  0
   -6.9468    6.2870    9.6573 H   0  0  0  0  0  0  0  0  0  0  0  0
   -6.0278    7.5740   10.4997 H   0  0  0  0  0  0  0  0  0  0  0  0
  1  4  1  0  0  0  0
  2  6  1  0  0  0  0
  3  7  1  0  0  0  0
  4 88  1  0  0  0  0
  5  1  1  0  0  0  0
  6  1  1  0  0  0  0
  7  1  1  0  0  0  0
  8  2  1  0  0  0  0
  9  3  1  0  0  0  0
 10  6  1  0  0  0  0
 11 10  1  0  0  0  0
 12 10  1  0  0  0  0
 13 12  1  0  0  0  0
 14 12  1  0  0  0  0
 15 12  1  0  0  0  0
 16 10  1  0  0  0  0
 17 16  4  0  0  0  0
 18 17  1  0  0  0  0
 19 17  4  0  0  0  0
 20 19  1  0  0  0  0
 21 19  4  0  0  0  0
 22 21  1  0  0  0  0
 23 21  4  0  0  0  0
 24 23  1  0  0  0  0
 25 16  4  0  0  0  0
 26 25  1  0  0  0  0
 27  2  1  0  0  0  0
 28 27  4  0  0  0  0
 29 28  1  0  0  0  0
 30 28  4  0  0  0  0
 31 30  1  0  0  0  0
 32 30  4  0  0  0  0
 33 32  1  0  0  0  0
 34 32  4  0  0  0  0
 35 34  1  0  0  0  0
 36 27  4  0  0  0  0
 37 36  1  0  0  0  0
 38  2  1  0  0  0  0
 39 38  4  0  0  0  0
 40 39  1  0  0  0  0
 41 39  4  0  0  0  0
 42 41  1  0  0  0  0
 43 41  4  0  0  0  0
 44 43  1  0  0  0  0
 45 43  4  0  0  0  0
 46 45  1  0  0  0  0
 47 38  4  0  0  0  0
 48 47  1  0  0  0  0
 49  7  1  0  0  0  0
 50 49  1  0  0  0  0
 51 49  1  0  0  0  0
 52 51  1  0  0  0  0
 53 51  1  0  0  0  0
 54 51  1  0  0  0  0
 55 49  1  0  0  0  0
 56 55  4  0  0  0  0
 57 56  1  0  0  0  0
 58 56  4  0  0  0  0
 59 58  1  0  0  0  0
 60 58  4  0  0  0  0
 61 60  1  0  0  0  0
 62 60  4  0  0  0  0
 63 62  1  0  0  0  0
 64 55  4  0  0  0  0
 65 64  1  0  0  0  0
 66  3  1  0  0  0  0
 67 66  4  0  0  0  0
 68 67  1  0  0  0  0
 69 67  4  0  0  0  0
 70 69  1  0  0  0  0
 71 69  4  0  0  0  0
 72 71  1  0  0  0  0
 73 71  4  0  0  0  0
 74 73  1  0  0  0  0
 75 66  4  0  0  0  0
 76 75  1  0  0  0  0
 77  3  1  0  0  0  0
 78 77  4  0  0  0  0
 79 78  1  0  0  0  0
 80 78  4  0  0  0  0
 81 80  1  0  0  0  0
 82 80  4  0  0  0  0
 83 82  1  0  0  0  0
 84 82  4  0  0  0  0
 85 84  1  0  0  0  0
 86 77  4  0  0  0  0
 87 86  1  0  0  0  0
 88 89  1  0  0  0  0
 90 88  1  0  0  0  0
 91 88  1  0  0  0  0
 92 91  1  0  0  0  0
 93 91  1  0  0  0  0
 94 91  1  0  0  0  0
 95 94  1  0  0  0  0
 96 94  1  0  0  0  0
 97  4  1  0  0  0  0
 98 97  1  0  0  0  0
 99 97  1  0  0  0  0
100  5  1  0  0  0  0
101100  1  0  0  0  0
102100  1  0  0  0  0
103100  1  0  0  0  0
104103  1  0  0  0  0
105103  1  0  0  0  0
106103  1  0  0  0  0
107106  1  0  0  0  0
108106  1  0  0  0  0
109  5  1  0  0  0  0
110109  1  0  0  0  0
111109  1  0  0  0  0
112  1  1  0  0  0  0
113  8  1  0  0  0  0
114  8  1  0  0  0  0
115  9  1  0  0  0  0
116  9  1  0  0  0  0
117  1  1  0  0  0  0
  8112  1  0  0  0  0
  9117  1  0  0  0  0
 23 25  4  0  0  0  0
 34 36  4  0  0  0  0
 45 47  4  0  0  0  0
 62 64  4  0  0  0  0
 73 75  4  0  0  0  0
 84 86  4  0  0  0  0
 94 97  1  0  0  0  0
106109  1  0  0  0  0
M  END
$$$$
NUFCEW

From CSD data. Using bond type 'Any'. No disordered atoms. Largest molecule.
107116  0  0  0  0  0  0  0  0999 V2000
   23.7427   -0.0246    7.5071 Pt  0  0  0  0  0  0  0  0  0  0  0  0
   25.4077    0.6161    9.0302 P   0  0  0  0  0  0  0  0  0  0  0  0
   23.7173   -2.3653    7.7209 P   0  0  0  0  0  0  0  0  0  0  0  0
   22.3758   -0.0915    5.9544 B   0  0  0  0  0  0  0  0  0  0  0  0
   23.6013    1.9212    6.8646 B   0  0  0  0  0  0  0  0  0  0  0  0
   21.0188    0.1793    6.0708 O   0  0  0  0  0  0  0  0  0  0  0  0
   22.6916   -0.4294    4.6518 O   0  0  0  0  0  0  0  0  0  0  0  0
   22.6358    2.8434    7.2027 O   0  0  0  0  0  0  0  0  0  0  0  0
   24.5483    2.4982    6.0520 O   0  0  0  0  0  0  0  0  0  0  0  0
   25.8864    2.3884    9.0231 C   0  0  0  0  0  0  0  0  0  0  0  0
   24.9900    3.3057    9.5297 C   0  0  0  0  0  0  0  0  0  0  0  0
   24.1448    3.0179    9.8546 H   0  0  0  0  0  0  0  0  0  0  0  0
   25.3372    4.6817    9.5619 C   0  0  0  0  0  0  0  0  0  0  0  0
   24.7297    5.3136    9.9277 H   0  0  0  0  0  0  0  0  0  0  0  0
   26.5358    5.0989    9.0708 C   0  0  0  0  0  0  0  0  0  0  0  0
   26.7643    6.0211    9.0974 H   0  0  0  0  0  0  0  0  0  0  0  0
   27.4110    4.1926    8.5409 C   0  0  0  0  0  0  0  0  0  0  0  0
   28.2443    4.4878    8.1927 H   0  0  0  0  0  0  0  0  0  0  0  0
   27.0851    2.8385    8.5109 C   0  0  0  0  0  0  0  0  0  0  0  0
   27.6963    2.2177    8.1318 H   0  0  0  0  0  0  0  0  0  0  0  0
   25.1645    0.3745   10.8279 C   0  0  0  0  0  0  0  0  0  0  0  0
   25.9816    0.9734   11.7814 C   0  0  0  0  0  0  0  0  0  0  0  0
   26.7035    1.5211   11.4987 H   0  0  0  0  0  0  0  0  0  0  0  0
   25.7621    0.7856   13.1306 C   0  0  0  0  0  0  0  0  0  0  0  0
   26.3382    1.1954   13.7647 H   0  0  0  0  0  0  0  0  0  0  0  0
   24.7292    0.0171   13.5563 C   0  0  0  0  0  0  0  0  0  0  0  0
   24.5747   -0.0951   14.4864 H   0  0  0  0  0  0  0  0  0  0  0  0
   23.8966   -0.6050   12.6383 C   0  0  0  0  0  0  0  0  0  0  0  0
   23.1898   -1.1649   12.9377 H   0  0  0  0  0  0  0  0  0  0  0  0
   24.1015   -0.4074   11.2803 C   0  0  0  0  0  0  0  0  0  0  0  0
   23.5111   -0.8075   10.6528 H   0  0  0  0  0  0  0  0  0  0  0  0
   26.9636   -0.2513    8.6085 C   0  0  0  0  0  0  0  0  0  0  0  0
   27.9499   -0.6172    9.5153 C   0  0  0  0  0  0  0  0  0  0  0  0
   27.8768   -0.3489   10.4233 H   0  0  0  0  0  0  0  0  0  0  0  0
   29.0312   -1.3662    9.1118 C   0  0  0  0  0  0  0  0  0  0  0  0
   29.7034   -1.5980    9.7415 H   0  0  0  0  0  0  0  0  0  0  0  0
   29.1518   -1.7871    7.7970 C   0  0  0  0  0  0  0  0  0  0  0  0
   29.8889   -2.3250    7.5309 H   0  0  0  0  0  0  0  0  0  0  0  0
   28.1896   -1.4162    6.8757 C   0  0  0  0  0  0  0  0  0  0  0  0
   28.2707   -1.6882    5.9688 H   0  0  0  0  0  0  0  0  0  0  0  0
   27.1162   -0.6563    7.2715 C   0  0  0  0  0  0  0  0  0  0  0  0
   26.4648   -0.3989    6.6296 H   0  0  0  0  0  0  0  0  0  0  0  0
   24.2199   -3.1520    9.2980 C   0  0  0  0  0  0  0  0  0  0  0  0
   25.5627   -3.1569    9.6705 C   0  0  0  0  0  0  0  0  0  0  0  0
   26.2146   -2.8202    9.0675 H   0  0  0  0  0  0  0  0  0  0  0  0
   25.9635   -3.6388   10.8978 C   0  0  0  0  0  0  0  0  0  0  0  0
   26.8828   -3.6278   11.1361 H   0  0  0  0  0  0  0  0  0  0  0  0
   25.0288   -4.1377   11.7769 C   0  0  0  0  0  0  0  0  0  0  0  0
   25.3025   -4.4878   12.6162 H   0  0  0  0  0  0  0  0  0  0  0  0
   23.7165   -4.1267   11.4399 C   0  0  0  0  0  0  0  0  0  0  0  0
   23.0725   -4.4499   12.0585 H   0  0  0  0  0  0  0  0  0  0  0  0
   23.2970   -3.6473   10.2016 C   0  0  0  0  0  0  0  0  0  0  0  0
   22.3743   -3.6619    9.9765 H   0  0  0  0  0  0  0  0  0  0  0  0
   24.7821   -3.2179    6.5010 C   0  0  0  0  0  0  0  0  0  0  0  0
   25.3987   -4.4475    6.7737 C   0  0  0  0  0  0  0  0  0  0  0  0
   25.2645   -4.8635    7.6174 H   0  0  0  0  0  0  0  0  0  0  0  0
   26.1940   -5.0574    5.8358 C   0  0  0  0  0  0  0  0  0  0  0  0
   26.6234   -5.8796    6.0398 H   0  0  0  0  0  0  0  0  0  0  0  0
   26.3718   -4.4780    4.5930 C   0  0  0  0  0  0  0  0  0  0  0  0
   26.9150   -4.9049    3.9412 H   0  0  0  0  0  0  0  0  0  0  0  0
   25.7631   -3.2826    4.3026 C   0  0  0  0  0  0  0  0  0  0  0  0
   25.8810   -2.8861    3.4478 H   0  0  0  0  0  0  0  0  0  0  0  0
   24.9732   -2.6519    5.2593 C   0  0  0  0  0  0  0  0  0  0  0  0
   24.5607   -1.8212    5.0542 H   0  0  0  0  0  0  0  0  0  0  0  0
   22.0634   -3.1130    7.4455 C   0  0  0  0  0  0  0  0  0  0  0  0
   21.9046   -4.3731    6.8779 C   0  0  0  0  0  0  0  0  0  0  0  0
   22.6624   -4.8635    6.5819 H   0  0  0  0  0  0  0  0  0  0  0  0
   20.6396   -4.9013    6.7460 C   0  0  0  0  0  0  0  0  0  0  0  0
   20.5282   -5.7454    6.3247 H   0  0  0  0  0  0  0  0  0  0  0  0
   19.5388   -4.2316    7.2127 C   0  0  0  0  0  0  0  0  0  0  0  0
   18.6787   -4.6305    7.1495 H   0  0  0  0  0  0  0  0  0  0  0  0
   19.6758   -2.9996    7.7648 C   0  0  0  0  0  0  0  0  0  0  0  0
   18.9109   -2.5238    8.0675 H   0  0  0  0  0  0  0  0  0  0  0  0
   20.9504   -2.4336    7.8868 C   0  0  0  0  0  0  0  0  0  0  0  0
   21.0479   -1.5736    8.2759 H   0  0  0  0  0  0  0  0  0  0  0  0
   20.3739   -0.2001    4.8480 C   0  0  0  0  0  0  0  0  0  0  0  0
   19.7162    0.4867    4.5720 H   0  0  0  0  0  0  0  0  0  0  0  0
   19.9071   -1.0661    4.9522 H   0  0  0  0  0  0  0  0  0  0  0  0
   21.5058   -0.3123    3.8214 C   0  0  0  0  0  0  0  0  0  0  0  0
   21.5555    0.5306    3.2860 H   0  0  0  0  0  0  0  0  0  0  0  0
   21.3676   -1.4821    2.9013 C   0  0  0  0  0  0  0  0  0  0  0  0
   21.4630   -2.7678    3.3791 C   0  0  0  0  0  0  0  0  0  0  0  0
   21.6754   -2.9020    4.2959 H   0  0  0  0  0  0  0  0  0  0  0  0
   21.2637   -3.8571    2.5831 C   0  0  0  0  0  0  0  0  0  0  0  0
   21.3328   -4.7354    2.9390 H   0  0  0  0  0  0  0  0  0  0  0  0
   20.9540   -3.6558    1.2306 C   0  0  0  0  0  0  0  0  0  0  0  0
   20.7938   -4.4024    0.6652 H   0  0  0  0  0  0  0  0  0  0  0  0
   20.8827   -2.3970    0.7284 C   0  0  0  0  0  0  0  0  0  0  0  0
   20.6971   -2.2640   -0.1929 H   0  0  0  0  0  0  0  0  0  0  0  0
   21.0800   -1.2979    1.5598 C   0  0  0  0  0  0  0  0  0  0  0  0
   21.0177   -0.4184    1.2051 H   0  0  0  0  0  0  0  0  0  0  0  0
   22.9730    4.1218    6.6462 C   0  0  0  0  0  0  0  0  0  0  0  0
   23.2331    4.7586    7.3580 H   0  0  0  0  0  0  0  0  0  0  0  0
   22.2080    4.5000    6.1429 H   0  0  0  0  0  0  0  0  0  0  0  0
   24.1406    3.8449    5.7194 C   0  0  0  0  0  0  0  0  0  0  0  0
   24.8865    4.4743    5.9378 H   0  0  0  0  0  0  0  0  0  0  0  0
   23.8363    3.9388    4.2604 C   0  0  0  0  0  0  0  0  0  0  0  0
   23.8074    2.8361    3.4700 C   0  0  0  0  0  0  0  0  0  0  0  0
   23.9847    1.9834    3.8480 H   0  0  0  0  0  0  0  0  0  0  0  0
   23.5209    2.9398    2.1053 C   0  0  0  0  0  0  0  0  0  0  0  0
   23.4991    2.1640    1.5587 H   0  0  0  0  0  0  0  0  0  0  0  0
   23.2724    4.1816    1.5665 C   0  0  0  0  0  0  0  0  0  0  0  0
   23.0971    4.2682    0.6364 H   0  0  0  0  0  0  0  0  0  0  0  0
   23.2763    5.2489    2.3392 C   0  0  0  0  0  0  0  0  0  0  0  0
   23.0296    6.0906    1.9722 H   0  0  0  0  0  0  0  0  0  0  0  0
   23.6260    5.1660    3.6795 C   0  0  0  0  0  0  0  0  0  0  0  0
   23.7269    5.9576    4.1950 H   0  0  0  0  0  0  0  0  0  0  0  0
  1  2  1  0  0  0  0
  2 10  1  0  0  0  0
  3  1  1  0  0  0  0
  4  1  1  0  0  0  0
  5  1  1  0  0  0  0
  6  4  1  0  0  0  0
  7  4  1  0  0  0  0
  8  5  1  0  0  0  0
  9  5  1  0  0  0  0
 10 11  4  0  0  0  0
 11 12  1  0  0  0  0
 13 11  4  0  0  0  0
 14 13  1  0  0  0  0
 15 13  4  0  0  0  0
 16 15  1  0  0  0  0
 17 15  4  0  0  0  0
 18 17  1  0  0  0  0
 19 10  4  0  0  0  0
 20 19  1  0  0  0  0
 21  2  1  0  0  0  0
 22 21  4  0  0  0  0
 23 22  1  0  0  0  0
 24 22  4  0  0  0  0
 25 24  1  0  0  0  0
 26 24  4  0  0  0  0
 27 26  1  0  0  0  0
 28 26  4  0  0  0  0
 29 28  1  0  0  0  0
 30 21  4  0  0  0  0
 31 30  1  0  0  0  0
 32  2  1  0  0  0  0
 33 32  4  0  0  0  0
 34 33  1  0  0  0  0
 35 33  4  0  0  0  0
 36 35  1  0  0  0  0
 37 35  4  0  0  0  0
 38 37  1  0  0  0  0
 39 37  4  0  0  0  0
 40 39  1  0  0  0  0
 41 32  4  0  0  0  0
 42 41  1  0  0  0  0
 43  3  1  0  0  0  0
 44 43  4  0  0  0  0
 45 44  1  0  0  0  0
 46 44  4  0  0  0  0
 47 46  1  0  0  0  0
 48 46  4  0  0  0  0
 49 48  1  0  0  0  0
 50 48  4  0  0  0  0
 51 50  1  0  0  0  0
 52 43  4  0  0  0  0
 53 52  1  0  0  0  0
 54  3  1  0  0  0  0
 55 54  4  0  0  0  0
 56 55  1  0  0  0  0
 57 55  4  0  0  0  0
 58 57  1  0  0  0  0
 59 57  4  0  0  0  0
 60 59  1  0  0  0  0
 61 59  4  0  0  0  0
 62 61  1  0  0  0  0
 63 54  4  0  0  0  0
 64 63  1  0  0  0  0
 65  3  1  0  0  0  0
 66 65  4  0  0  0  0
 67 66  1  0  0  0  0
 68 66  4  0  0  0  0
 69 68  1  0  0  0  0
 70 68  4  0  0  0  0
 71 70  1  0  0  0  0
 72 70  4  0  0  0  0
 73 72  1  0  0  0  0
 74 65  4  0  0  0  0
 75 74  1  0  0  0  0
 76  6  1  0  0  0  0
 77 76  1  0  0  0  0
 78 76  1  0  0  0  0
 79  7  1  0  0  0  0
 80 79  1  0  0  0  0
 81 79  1  0  0  0  0
 82 81  4  0  0  0  0
 83 82  1  0  0  0  0
 84 82  4  0  0  0  0
 85 84  1  0  0  0  0
 86 84  4  0  0  0  0
 87 86  1  0  0  0  0
 88 86  4  0  0  0  0
 89 88  1  0  0  0  0
 90 81  4  0  0  0  0
 91 90  1  0  0  0  0
 92  8  1  0  0  0  0
 93 92  1  0  0  0  0
 94 92  1  0  0  0  0
 95  9  1  0  0  0  0
 96 95  1  0  0  0  0
 97 95  1  0  0  0  0
 98 97  4  0  0  0  0
 99 98  1  0  0  0  0
100 98  4  0  0  0  0
101100  1  0  0  0  0
102100  4  0  0  0  0
103102  1  0  0  0  0
104102  4  0  0  0  0
105104  1  0  0  0  0
106 97  4  0  0  0  0
107106  1  0  0  0  0
 17 19  4  0  0  0  0
 28 30  4  0  0  0  0
 39 41  4  0  0  0  0
 50 52  4  0  0  0  0
 61 63  4  0  0  0  0
 72 74  4  0  0  0  0
 76 79  1  0  0  0  0
 88 90  4  0  0  0  0
 92 95  1  0  0  0  0
104106  4  0  0  0  0
M  END
$$$$
NUJRER

From CSD data. Using bond type 'Any'. No disordered atoms. Largest molecule.
 66 84  0  0  0  0  0  0  0  0999 V2000
   10.7607    6.0735    2.5050 P   0  0  0  0  0  0  0  0  0  0  0  0
   11.8571    4.0901    5.3506 P   0  0  0  0  0  0  0  0  0  0  0  0
   10.8031    4.5976    2.3371 O   0  0  0  0  0  0  0  0  0  0  0  0
   10.4175    4.4491    5.3553 O   0  0  0  0  0  0  0  0  0  0  0  0
   12.8692    5.5818    4.7660 C   0  0  0  0  0  0  0  0  0  0  0  0
   12.3003    6.5745    3.4640 C   0  0  0  0  0  0  0  0  0  0  0  0
   10.7484    6.8843    0.8617 C   0  0  0  0  0  0  0  0  0  0  0  0
    9.8040    6.7698    0.5518 H   0  0  0  0  0  0  0  0  0  0  0  0
   11.5620    6.0851   -0.1620 C   0  0  0  0  0  0  0  0  0  0  0  0
   11.3567    6.4070   -1.0654 H   0  0  0  0  0  0  0  0  0  0  0  0
   11.3317    5.1355   -0.0939 H   0  0  0  0  0  0  0  0  0  0  0  0
   12.5179    6.2029    0.0176 H   0  0  0  0  0  0  0  0  0  0  0  0
   10.9835    8.3905    0.7468 C   0  0  0  0  0  0  0  0  0  0  0  0
   11.9143    8.5945    0.9745 H   0  0  0  0  0  0  0  0  0  0  0  0
   10.3861    8.8627    1.3648 H   0  0  0  0  0  0  0  0  0  0  0  0
   10.8001    8.6807   -0.1717 H   0  0  0  0  0  0  0  0  0  0  0  0
    9.2916    6.6008    3.4347 C   0  0  0  0  0  0  0  0  0  0  0  0
    9.4060    6.2597    4.3674 H   0  0  0  0  0  0  0  0  0  0  0  0
    8.0806    5.8643    2.8437 C   0  0  0  0  0  0  0  0  0  0  0  0
    7.3127    5.9642    3.4444 H   0  0  0  0  0  0  0  0  0  0  0  0
    8.2946    4.9135    2.7429 H   0  0  0  0  0  0  0  0  0  0  0  0
    7.8626    6.2450    1.9680 H   0  0  0  0  0  0  0  0  0  0  0  0
    8.9936    8.0927    3.5496 C   0  0  0  0  0  0  0  0  0  0  0  0
    8.7499    8.4462    2.6680 H   0  0  0  0  0  0  0  0  0  0  0  0
    9.7890    8.5598    3.8802 H   0  0  0  0  0  0  0  0  0  0  0  0
    8.2510    8.2306    4.1737 H   0  0  0  0  0  0  0  0  0  0  0  0
   12.4695    3.7663    7.0441 C   0  0  0  0  0  0  0  0  0  0  0  0
   13.4551    3.9313    7.0736 H   0  0  0  0  0  0  0  0  0  0  0  0
   11.7700    4.7127    8.0265 C   0  0  0  0  0  0  0  0  0  0  0  0
   10.8556    4.3993    8.1860 H   0  0  0  0  0  0  0  0  0  0  0  0
   11.7446    5.6161    7.6474 H   0  0  0  0  0  0  0  0  0  0  0  0
   12.2633    4.7274    8.8728 H   0  0  0  0  0  0  0  0  0  0  0  0
   12.1840    2.3179    7.4870 C   0  0  0  0  0  0  0  0  0  0  0  0
   12.4702    2.1981    8.4164 H   0  0  0  0  0  0  0  0  0  0  0  0
   12.6753    1.6974    6.9107 H   0  0  0  0  0  0  0  0  0  0  0  0
   11.2228    2.1381    7.4156 H   0  0  0  0  0  0  0  0  0  0  0  0
   12.2572    2.7082    4.2257 C   0  0  0  0  0  0  0  0  0  0  0  0
   12.2070    3.0846    3.3005 H   0  0  0  0  0  0  0  0  0  0  0  0
   11.1456    1.6468    4.3096 C   0  0  0  0  0  0  0  0  0  0  0  0
   11.2466    1.0096    3.5720 H   0  0  0  0  0  0  0  0  0  0  0  0
   10.2717    2.0845    4.2456 H   0  0  0  0  0  0  0  0  0  0  0  0
   11.2118    1.1705    5.1643 H   0  0  0  0  0  0  0  0  0  0  0  0
   13.6677    2.1171    4.3622 C   0  0  0  0  0  0  0  0  0  0  0  0
   13.8414    1.8973    5.3008 H   0  0  0  0  0  0  0  0  0  0  0  0
   14.3280    2.7723    4.0534 H   0  0  0  0  0  0  0  0  0  0  0  0
   13.7348    1.3041    3.8186 H   0  0  0  0  0  0  0  0  0  0  0  0
   12.1941    7.1474    5.0956 B   0  0  0  0  0  0  0  0  0  0  0  0
   11.2245    7.2914    5.6354 H   0  0  0  0  0  0  0  0  0  0  0  0
   13.6785    6.5836    5.9178 B   0  0  0  0  0  0  0  0  0  0  0  0
   13.6956    6.3807    7.0193 H   0  0  0  0  0  0  0  0  0  0  0  0
   14.5783    5.5740    4.7804 B   0  0  0  0  0  0  0  0  0  0  0  0
   15.1843    4.6979    5.1262 H   0  0  0  0  0  0  0  0  0  0  0  0
   13.6791    5.5435    3.2327 B   0  0  0  0  0  0  0  0  0  0  0  0
   13.6721    4.6506    2.5565 H   0  0  0  0  0  0  0  0  0  0  0  0
   12.7216    8.2064    3.7471 B   0  0  0  0  0  0  0  0  0  0  0  0
   12.1019    9.0741    3.4033 H   0  0  0  0  0  0  0  0  0  0  0  0
   13.5974    8.2338    5.2908 B   0  0  0  0  0  0  0  0  0  0  0  0
   13.5557    9.1214    5.9729 H   0  0  0  0  0  0  0  0  0  0  0  0
   15.0775    7.2536    5.0807 B   0  0  0  0  0  0  0  0  0  0  0  0
   16.0276    7.4976    5.6207 H   0  0  0  0  0  0  0  0  0  0  0  0
   15.0909    6.6047    3.4262 B   0  0  0  0  0  0  0  0  0  0  0  0
   16.0436    6.4101    2.8705 H   0  0  0  0  0  0  0  0  0  0  0  0
   13.6470    7.2136    2.6139 B   0  0  0  0  0  0  0  0  0  0  0  0
   13.6427    7.4261    1.5145 H   0  0  0  0  0  0  0  0  0  0  0  0
   14.4977    8.2601    3.7503 B   0  0  0  0  0  0  0  0  0  0  0  0
   15.0620    9.1677    3.4150 H   0  0  0  0  0  0  0  0  0  0  0  0
  1  3  2  0  0  0  0
  2  4  2  0  0  0  0
  5  2  1  0  0  0  0
  6  1  1  0  0  0  0
  7  1  1  0  0  0  0
  8  7  1  0  0  0  0
  9  7  1  0  0  0  0
 10  9  1  0  0  0  0
 11  9  1  0  0  0  0
 12  9  1  0  0  0  0
 13  7  1  0  0  0  0
 14 13  1  0  0  0  0
 15 13  1  0  0  0  0
 16 13  1  0  0  0  0
 17  1  1  0  0  0  0
 18 17  1  0  0  0  0
 19 17  1  0  0  0  0
 20 19  1  0  0  0  0
 21 19  1  0  0  0  0
 22 19  1  0  0  0  0
 23 17  1  0  0  0  0
 24 23  1  0  0  0  0
 25 23  1  0  0  0  0
 26 23  1  0  0  0  0
 27  2  1  0  0  0  0
 28 27  1  0  0  0  0
 29 27  1  0  0  0  0
 30 29  1  0  0  0  0
 31 29  1  0  0  0  0
 32 29  1  0  0  0  0
 33 27  1  0  0  0  0
 34 33  1  0  0  0  0
 35 33  1  0  0  0  0
 36 33  1  0  0  0  0
 37  2  1  0  0  0  0
 38 37  1  0  0  0  0
 39 37  1  0  0  0  0
 40 39  1  0  0  0  0
 41 39  1  0  0  0  0
 42 39  1  0  0  0  0
 43 37  1  0  0  0  0
 44 43  1  0  0  0  0
 45 43  1  0  0  0  0
 46 43  1  0  0  0  0
 47  5  1  0  0  0  0
 48 47  1  0  0  0  0
 49  5  1  0  0  0  0
 50 49  1  0  0  0  0
 51  5  1  0  0  0  0
 52 51  1  0  0  0  0
 53  5  1  0  0  0  0
 54 53  1  0  0  0  0
 55  6  1  0  0  0  0
 56 55  1  0  0  0  0
 57 47  1  0  0  0  0
 58 57  1  0  0  0  0
 59 49  1  0  0  0  0
 60 59  1  0  0  0  0
 61 51  1  0  0  0  0
 62 61  1  0  0  0  0
 63  6  1  0  0  0  0
 64 63  1  0  0  0  0
 65 55  1  0  0  0  0
 66 65  1  0  0  0  0
  5  6  1  0  0  0  0
  6 47  1  0  0  0  0
  6 53  1  0  0  0  0
 47 49  1  0  0  0  0
 47 55  1  0  0  0  0
 49 51  1  0  0  0  0
 49 57  1  0  0  0  0
 51 53  1  0  0  0  0
 51 59  1  0  0  0  0
 53 61  1  0  0  0  0
 53 63  1  0  0  0  0
 55 57  1  0  0  0  0
 55 63  1  0  0  0  0
 57 59  1  0  0  0  0
 57 65  1  0  0  0  0
 59 61  1  0  0  0  0
 59 65  1  0  0  0  0
 61 63  1  0  0  0  0
 61 65  1  0  0  0  0
 63 65  1  0  0  0  0
M  END
$$$$
NUTVUV

From CSD data. Using bond type 'Any'. No disordered atoms. Largest molecule.
 96117  0  0  0  0  0  0  0  0999 V2000
   12.5922    4.6496    0.2533 Au  0  0  0  0  0  0  0  0  0  0  0  0
   12.5740    6.7693   -0.4100 N   0  0  0  0  0  0  0  0  0  0  0  0
   13.8195    7.7101    0.0117 S   0  0  0  0  0  0  0  0  0  0  0  0
   14.9806    6.9038    0.1189 O   0  0  0  0  0  0  0  0  0  0  0  0
   13.8840    8.9525   -0.6737 O   0  0  0  0  0  0  0  0  0  0  0  0
   13.3701    8.1074    1.7430 C   0  0  0  0  0  0  0  0  0  0  0  0
   13.1966    7.0102    2.4572 F   0  0  0  0  0  0  0  0  0  0  0  0
   14.3560    8.8067    2.2992 F   0  0  0  0  0  0  0  0  0  0  0  0
   12.2650    8.8236    1.7909 F   0  0  0  0  0  0  0  0  0  0  0  0
   11.3039    7.3345   -1.2345 S   0  0  0  0  0  0  0  0  0  0  0  0
   10.1678    6.5449   -0.9243 O   0  0  0  0  0  0  0  0  0  0  0  0
   11.1902    8.7482   -1.2512 O   0  0  0  0  0  0  0  0  0  0  0  0
   11.7444    6.8590   -2.9393 C   0  0  0  0  0  0  0  0  0  0  0  0
   11.8994    5.5578   -3.0484 F   0  0  0  0  0  0  0  0  0  0  0  0
   10.7784    7.2486   -3.7586 F   0  0  0  0  0  0  0  0  0  0  0  0
   12.8658    7.4420   -3.3121 F   0  0  0  0  0  0  0  0  0  0  0  0
   14.3941    3.2347    0.6287 P   0  0  0  0  0  0  0  0  0  0  0  0
   10.8263    3.2556    0.8080 P   0  0  0  0  0  0  0  0  0  0  0  0
   15.3548    2.7313   -0.6322 N   0  0  0  0  0  0  0  0  0  0  0  0
   15.6223    3.4127    1.7013 N   0  0  0  0  0  0  0  0  0  0  0  0
   12.7157    1.6563    2.6636 B   0  0  0  0  0  0  0  0  0  0  0  0
   12.7689    2.5359    3.3547 H   0  0  0  0  0  0  0  0  0  0  0  0
   14.1267    0.6112    2.3320 B   0  0  0  0  0  0  0  0  0  0  0  0
   15.1150    0.7740    2.8318 H   0  0  0  0  0  0  0  0  0  0  0  0
   14.0172    0.0924    0.6424 B   0  0  0  0  0  0  0  0  0  0  0  0
   14.9294   -0.0909    0.0204 H   0  0  0  0  0  0  0  0  0  0  0  0
   13.5327   -1.0066    1.9490 B   0  0  0  0  0  0  0  0  0  0  0  0
   14.1234   -1.9250    2.1975 H   0  0  0  0  0  0  0  0  0  0  0  0
   11.7634   -0.9956    2.0610 B   0  0  0  0  0  0  0  0  0  0  0  0
   11.1942   -1.9049    2.3793 H   0  0  0  0  0  0  0  0  0  0  0  0
   11.1435    0.1168    0.8269 B   0  0  0  0  0  0  0  0  0  0  0  0
   10.1559   -0.0495    0.3264 H   0  0  0  0  0  0  0  0  0  0  0  0
   11.2515    0.6427    2.5200 B   0  0  0  0  0  0  0  0  0  0  0  0
   10.3389    0.8288    3.1415 H   0  0  0  0  0  0  0  0  0  0  0  0
   12.5389    0.8265   -0.0504 B   0  0  0  0  0  0  0  0  0  0  0  0
   12.4768    1.1643   -1.1164 H   0  0  0  0  0  0  0  0  0  0  0  0
   12.7337   -0.0361    3.2242 B   0  0  0  0  0  0  0  0  0  0  0  0
   12.7985   -0.2968    4.3116 H   0  0  0  0  0  0  0  0  0  0  0  0
   12.5507   -0.8888    0.4454 B   0  0  0  0  0  0  0  0  0  0  0  0
   12.4941   -1.7164   -0.3078 H   0  0  0  0  0  0  0  0  0  0  0  0
   13.4873    1.6290    1.1364 C   0  0  0  0  0  0  0  0  0  0  0  0
   11.7592    1.6417    1.2419 C   0  0  0  0  0  0  0  0  0  0  0  0
   16.7781    2.7671   -0.2689 C   0  0  0  0  0  0  0  0  0  0  0  0
   17.1990    3.5959   -0.6083 H   0  0  0  0  0  0  0  0  0  0  0  0
   17.2529    1.9905   -0.6565 H   0  0  0  0  0  0  0  0  0  0  0  0
   16.8443    2.7242    1.2393 C   0  0  0  0  0  0  0  0  0  0  0  0
   16.8621    1.7886    1.5615 H   0  0  0  0  0  0  0  0  0  0  0  0
   17.6541    3.1909    1.5670 H   0  0  0  0  0  0  0  0  0  0  0  0
   14.9707    2.9816   -2.0304 C   0  0  0  0  0  0  0  0  0  0  0  0
   13.9721    2.9797   -2.0677 H   0  0  0  0  0  0  0  0  0  0  0  0
   15.4576    1.8488   -2.9180 C   0  0  0  0  0  0  0  0  0  0  0  0
   16.4337    1.7846   -2.8614 H   0  0  0  0  0  0  0  0  0  0  0  0
   15.1957    2.0239   -3.8462 H   0  0  0  0  0  0  0  0  0  0  0  0
   15.0581    1.0053   -2.6204 H   0  0  0  0  0  0  0  0  0  0  0  0
   15.4409    4.3499   -2.5310 C   0  0  0  0  0  0  0  0  0  0  0  0
   15.1974    5.0383   -1.8767 H   0  0  0  0  0  0  0  0  0  0  0  0
   15.0126    4.5477   -3.3900 H   0  0  0  0  0  0  0  0  0  0  0  0
   16.4142    4.3379   -2.6463 H   0  0  0  0  0  0  0  0  0  0  0  0
   15.6217    4.2677    2.8961 C   0  0  0  0  0  0  0  0  0  0  0  0
   14.6949    4.6226    3.0154 H   0  0  0  0  0  0  0  0  0  0  0  0
   15.9782    3.4850    4.1418 C   0  0  0  0  0  0  0  0  0  0  0  0
   15.3452    2.7457    4.2560 H   0  0  0  0  0  0  0  0  0  0  0  0
   15.9357    4.0758    4.9217 H   0  0  0  0  0  0  0  0  0  0  0  0
   16.8860    3.1267    4.0539 H   0  0  0  0  0  0  0  0  0  0  0  0
   16.5596    5.4674    2.7142 C   0  0  0  0  0  0  0  0  0  0  0  0
   17.4905    5.1626    2.7483 H   0  0  0  0  0  0  0  0  0  0  0  0
   16.4027    6.1171    3.4308 H   0  0  0  0  0  0  0  0  0  0  0  0
   16.3849    5.8899    1.8470 H   0  0  0  0  0  0  0  0  0  0  0  0
    9.9569    3.5481    2.1872 N   0  0  0  0  0  0  0  0  0  0  0  0
    8.5051    3.4115    1.9490 C   0  0  0  0  0  0  0  0  0  0  0  0
    8.0955    4.3031    1.8174 H   0  0  0  0  0  0  0  0  0  0  0  0
    8.0702    2.9770    2.7242 H   0  0  0  0  0  0  0  0  0  0  0  0
    8.3263    2.5773    0.7251 C   0  0  0  0  0  0  0  0  0  0  0  0
    8.2181    1.6242    0.9662 H   0  0  0  0  0  0  0  0  0  0  0  0
    7.5284    2.8701    0.2188 H   0  0  0  0  0  0  0  0  0  0  0  0
    9.5578    2.7738   -0.0835 N   0  0  0  0  0  0  0  0  0  0  0  0
    9.3570    3.0492   -1.5114 C   0  0  0  0  0  0  0  0  0  0  0  0
   10.1857    3.4783   -1.8656 H   0  0  0  0  0  0  0  0  0  0  0  0
    9.1346    1.7552   -2.2587 C   0  0  0  0  0  0  0  0  0  0  0  0
    9.8172    1.1042   -1.9935 H   0  0  0  0  0  0  0  0  0  0  0  0
    9.1994    1.9210   -3.2231 H   0  0  0  0  0  0  0  0  0  0  0  0
    8.2454    1.4036   -2.0473 H   0  0  0  0  0  0  0  0  0  0  0  0
    8.1889    4.0170   -1.7228 C   0  0  0  0  0  0  0  0  0  0  0  0
    7.3449    3.5598   -1.5244 H   0  0  0  0  0  0  0  0  0  0  0  0
    8.1832    4.3218   -2.6537 H   0  0  0  0  0  0  0  0  0  0  0  0
    8.2903    4.7870   -1.1257 H   0  0  0  0  0  0  0  0  0  0  0  0
   10.3386    4.6221    3.1231 C   0  0  0  0  0  0  0  0  0  0  0  0
   11.3364    4.6908    3.1044 H   0  0  0  0  0  0  0  0  0  0  0  0
    9.9366    4.2496    4.5490 C   0  0  0  0  0  0  0  0  0  0  0  0
    8.9615    4.1708    4.6028 H   0  0  0  0  0  0  0  0  0  0  0  0
   10.2428    4.9461    5.1665 H   0  0  0  0  0  0  0  0  0  0  0  0
   10.3486    3.3941    4.7919 H   0  0  0  0  0  0  0  0  0  0  0  0
    9.7835    5.9869    2.7173 C   0  0  0  0  0  0  0  0  0  0  0  0
   10.0120    6.1666    1.7821 H   0  0  0  0  0  0  0  0  0  0  0  0
   10.1734    6.6812    3.2880 H   0  0  0  0  0  0  0  0  0  0  0  0
    8.8090    5.9874    2.8225 H   0  0  0  0  0  0  0  0  0  0  0  0
  1  2  1  0  0  0  0
  2  3  1  0  0  0  0
  3  4  2  0  0  0  0
  5  3  2  0  0  0  0
  6  3  1  0  0  0  0
  7  6  1  0  0  0  0
  8  6  1  0  0  0  0
  9  6  1  0  0  0  0
 10  2  1  0  0  0  0
 11 10  2  0  0  0  0
 12 10  2  0  0  0  0
 13 10  1  0  0  0  0
 14 13  1  0  0  0  0
 15 13  1  0  0  0  0
 16 13  1  0  0  0  0
 17  1  1  0  0  0  0
 18  1  1  0  0  0  0
 19 17  1  0  0  0  0
 20 17  1  0  0  0  0
 21 22  1  0  0  0  0
 23 21  1  0  0  0  0
 24 23  1  0  0  0  0
 25 23  1  0  0  0  0
 26 25  1  0  0  0  0
 27 23  1  0  0  0  0
 28 27  1  0  0  0  0
 29 27  1  0  0  0  0
 30 29  1  0  0  0  0
 31 29  1  0  0  0  0
 32 31  1  0  0  0  0
 33 21  1  0  0  0  0
 34 33  1  0  0  0  0
 35 25  1  0  0  0  0
 36 35  1  0  0  0  0
 37 21  1  0  0  0  0
 38 37  1  0  0  0  0
 39 25  1  0  0  0  0
 40 39  1  0  0  0  0
 41 17  1  0  0  0  0
 42 18  1  0  0  0  0
 43 19  1  0  0  0  0
 44 43  1  0  0  0  0
 45 43  1  0  0  0  0
 46 20  1  0  0  0  0
 47 46  1  0  0  0  0
 48 46  1  0  0  0  0
 49 19  1  0  0  0  0
 50 49  1  0  0  0  0
 51 49  1  0  0  0  0
 52 51  1  0  0  0  0
 53 51  1  0  0  0  0
 54 51  1  0  0  0  0
 55 49  1  0  0  0  0
 56 55  1  0  0  0  0
 57 55  1  0  0  0  0
 58 55  1  0  0  0  0
 59 20  1  0  0  0  0
 60 59  1  0  0  0  0
 61 59  1  0  0  0  0
 62 61  1  0  0  0  0
 63 61  1  0  0  0  0
 64 61  1  0  0  0  0
 65 59  1  0  0  0  0
 66 65  1  0  0  0  0
 67 65  1  0  0  0  0
 68 65  1  0  0  0  0
 69 18  1  0  0  0  0
 70 69  1  0  0  0  0
 71 70  1  0  0  0  0
 72 70  1  0  0  0  0
 73 70  1  0  0  0  0
 74 73  1  0  0  0  0
 75 73  1  0  0  0  0
 76 18  1  0  0  0  0
 77 76  1  0  0  0  0
 78 77  1  0  0  0  0
 79 77  1  0  0  0  0
 80 79  1  0  0  0  0
 81 79  1  0  0  0  0
 82 79  1  0  0  0  0
 83 77  1  0  0  0  0
 84 83  1  0  0  0  0
 85 83  1  0  0  0  0
 86 83  1  0  0  0  0
 87 69  1  0  0  0  0
 88 87  1  0  0  0  0
 89 87  1  0  0  0  0
 90 89  1  0  0  0  0
 91 89  1  0  0  0  0
 92 89  1  0  0  0  0
 93 87  1  0  0  0  0
 94 93  1  0  0  0  0
 95 93  1  0  0  0  0
 96 93  1  0  0  0  0
 21 41  1  0  0  0  0
 21 42  1  0  0  0  0
 23 37  1  0  0  0  0
 23 41  1  0  0  0  0
 25 27  1  0  0  0  0
 25 41  1  0  0  0  0
 27 37  1  0  0  0  0
 27 39  1  0  0  0  0
 29 33  1  0  0  0  0
 29 37  1  0  0  0  0
 29 39  1  0  0  0  0
 31 33  1  0  0  0  0
 31 35  1  0  0  0  0
 31 39  1  0  0  0  0
 31 42  1  0  0  0  0
 33 37  1  0  0  0  0
 33 42  1  0  0  0  0
 35 39  1  0  0  0  0
 35 41  1  0  0  0  0
 35 42  1  0  0  0  0
 41 42  1  0  0  0  0
 43 46  1  0  0  0  0
 73 76  1  0  0  0  0
M  END
$$$$
OBUNUU

From CSD data. Using bond type 'Any'. No disordered atoms. Largest molecule.
 70 88  0  0  0  0  0  0  0  0999 V2000
   12.2517   -0.2591    3.9880 P   0  0  0  0  0  0  0  0  0  0  0  0
    8.9658    0.8891    3.5245 P   0  0  0  0  0  0  0  0  0  0  0  0
   11.2874   -1.3668    3.5840 O   0  0  0  0  0  0  0  0  0  0  0  0
    9.0378   -0.5926    3.1345 O   0  0  0  0  0  0  0  0  0  0  0  0
   10.1600   -1.0276    3.3224 H   0  0  0  0  0  0  0  0  0  0  0  0
   11.8344    2.6010    0.7120 B   0  0  0  0  0  0  0  0  0  0  0  0
   12.0075    2.6120   -0.3749 H   0  0  0  0  0  0  0  0  0  0  0  0
   12.8794    1.7219    1.7765 B   0  0  0  0  0  0  0  0  0  0  0  0
   13.7276    1.1429    1.3803 H   0  0  0  0  0  0  0  0  0  0  0  0
   11.2164    1.1625    1.5372 B   0  0  0  0  0  0  0  0  0  0  0  0
   10.9679    0.2196    1.0277 H   0  0  0  0  0  0  0  0  0  0  0  0
   10.2015    2.6267    1.3948 B   0  0  0  0  0  0  0  0  0  0  0  0
    9.3087    2.6331    0.7536 H   0  0  0  0  0  0  0  0  0  0  0  0
   11.2085    4.0350    1.6118 B   0  0  0  0  0  0  0  0  0  0  0  0
   10.9521    4.9775    1.1052 H   0  0  0  0  0  0  0  0  0  0  0  0
   12.9084    3.4704    1.8482 B   0  0  0  0  0  0  0  0  0  0  0  0
   13.7877    4.0344    1.5053 H   0  0  0  0  0  0  0  0  0  0  0  0
   11.8930    1.3003    3.1403 C   0  0  0  0  0  0  0  0  0  0  0  0
   10.3895    1.8334    2.9321 C   0  0  0  0  0  0  0  0  0  0  0  0
   10.2631    3.4534    2.9737 B   0  0  0  0  0  0  0  0  0  0  0  0
    9.3686    3.9706    3.3418 H   0  0  0  0  0  0  0  0  0  0  0  0
   11.9628    4.1068    3.1985 B   0  0  0  0  0  0  0  0  0  0  0  0
   12.2442    5.0458    3.7002 H   0  0  0  0  0  0  0  0  0  0  0  0
   11.7832    3.3694    4.0005 H   0  0  0  0  0  0  0  0  0  0  0  0
   12.9391    2.5455    3.3670 B   0  0  0  0  0  0  0  0  0  0  0  0
   13.8248    2.4321    4.0102 H   0  0  0  0  0  0  0  0  0  0  0  0
   13.9014   -0.8183    3.5462 C   0  0  0  0  0  0  0  0  0  0  0  0
   14.0071   -1.6978    2.4884 C   0  0  0  0  0  0  0  0  0  0  0  0
   13.2454   -1.9470    2.0157 H   0  0  0  0  0  0  0  0  0  0  0  0
   15.2420   -2.2095    2.1300 C   0  0  0  0  0  0  0  0  0  0  0  0
   15.3075   -2.8160    1.4278 H   0  0  0  0  0  0  0  0  0  0  0  0
   16.3630   -1.8241    2.8062 C   0  0  0  0  0  0  0  0  0  0  0  0
   17.1901   -2.1713    2.5611 H   0  0  0  0  0  0  0  0  0  0  0  0
   16.2827   -0.9338    3.8416 C   0  0  0  0  0  0  0  0  0  0  0  0
   17.0541   -0.6632    4.2862 H   0  0  0  0  0  0  0  0  0  0  0  0
   15.0447   -0.4359    4.2233 C   0  0  0  0  0  0  0  0  0  0  0  0
   14.9840    0.1585    4.9372 H   0  0  0  0  0  0  0  0  0  0  0  0
   12.1789   -0.0334    5.7760 C   0  0  0  0  0  0  0  0  0  0  0  0
   11.4271   -0.9587    6.4996 C   0  0  0  0  0  0  0  0  0  0  0  0
   10.9565   -1.6234    6.0511 H   0  0  0  0  0  0  0  0  0  0  0  0
   11.3782   -0.8944    7.8702 C   0  0  0  0  0  0  0  0  0  0  0  0
   10.8578   -1.5041    8.3439 H   0  0  0  0  0  0  0  0  0  0  0  0
   12.0925    0.0638    8.5454 C   0  0  0  0  0  0  0  0  0  0  0  0
   12.0661    0.0908    9.4752 H   0  0  0  0  0  0  0  0  0  0  0  0
   12.8443    0.9815    7.8586 C   0  0  0  0  0  0  0  0  0  0  0  0
   13.3289    1.6259    8.3226 H   0  0  0  0  0  0  0  0  0  0  0  0
   12.8809    0.9489    6.4725 C   0  0  0  0  0  0  0  0  0  0  0  0
   13.3762    1.5842    6.0065 H   0  0  0  0  0  0  0  0  0  0  0  0
    8.8309    1.0735    5.2965 C   0  0  0  0  0  0  0  0  0  0  0  0
    8.0333    0.1513    5.9794 C   0  0  0  0  0  0  0  0  0  0  0  0
    7.6556   -0.5663    5.5242 H   0  0  0  0  0  0  0  0  0  0  0  0
    7.8087    0.3064    7.3316 C   0  0  0  0  0  0  0  0  0  0  0  0
    7.2590   -0.2965    7.7782 H   0  0  0  0  0  0  0  0  0  0  0  0
    8.3827    1.3348    8.0252 C   0  0  0  0  0  0  0  0  0  0  0  0
    8.2255    1.4295    8.9367 H   0  0  0  0  0  0  0  0  0  0  0  0
    9.1918    2.2293    7.3704 C   0  0  0  0  0  0  0  0  0  0  0  0
    9.5994    2.9175    7.8441 H   0  0  0  0  0  0  0  0  0  0  0  0
    9.4032    2.1079    6.0172 C   0  0  0  0  0  0  0  0  0  0  0  0
    9.9378    2.7308    5.5794 H   0  0  0  0  0  0  0  0  0  0  0  0
    7.4355    1.5096    2.8071 C   0  0  0  0  0  0  0  0  0  0  0  0
    7.0918    1.1155    1.5208 C   0  0  0  0  0  0  0  0  0  0  0  0
    7.6683    0.5728    1.0316 H   0  0  0  0  0  0  0  0  0  0  0  0
    5.8897    1.5307    0.9638 C   0  0  0  0  0  0  0  0  0  0  0  0
    5.6706    1.2837    0.0949 H   0  0  0  0  0  0  0  0  0  0  0  0
    5.0309    2.3005    1.6874 C   0  0  0  0  0  0  0  0  0  0  0  0
    4.2216    2.5700    1.3144 H   0  0  0  0  0  0  0  0  0  0  0  0
    5.3529    2.6804    2.9660 C   0  0  0  0  0  0  0  0  0  0  0  0
    4.7608    3.2035    3.4561 H   0  0  0  0  0  0  0  0  0  0  0  0
    6.5606    2.2855    3.5365 C   0  0  0  0  0  0  0  0  0  0  0  0
    6.7755    2.5450    4.4034 H   0  0  0  0  0  0  0  0  0  0  0  0
  1  3  1  0  0  0  0
  2  4  2  0  0  0  0
  3  5  1  0  0  0  0
  6  7  1  0  0  0  0
  8  6  1  0  0  0  0
  9  8  1  0  0  0  0
 10  6  1  0  0  0  0
 11 10  1  0  0  0  0
 12  6  1  0  0  0  0
 13 12  1  0  0  0  0
 14  6  1  0  0  0  0
 15 14  1  0  0  0  0
 16  6  1  0  0  0  0
 17 16  1  0  0  0  0
 18  1  1  0  0  0  0
 19  2  1  0  0  0  0
 20 12  1  0  0  0  0
 21 20  1  0  0  0  0
 22 14  1  0  0  0  0
 23 22  1  0  0  0  0
 24 22  1  0  0  0  0
 25  8  1  0  0  0  0
 26 25  1  0  0  0  0
 27  1  1  0  0  0  0
 28 27  4  0  0  0  0
 29 28  1  0  0  0  0
 30 28  4  0  0  0  0
 31 30  1  0  0  0  0
 32 30  4  0  0  0  0
 33 32  1  0  0  0  0
 34 32  4  0  0  0  0
 35 34  1  0  0  0  0
 36 27  4  0  0  0  0
 37 36  1  0  0  0  0
 38  1  1  0  0  0  0
 39 38  4  0  0  0  0
 40 39  1  0  0  0  0
 41 39  4  0  0  0  0
 42 41  1  0  0  0  0
 43 41  4  0  0  0  0
 44 43  1  0  0  0  0
 45 43  4  0  0  0  0
 46 45  1  0  0  0  0
 47 38  4  0  0  0  0
 48 47  1  0  0  0  0
 49  2  1  0  0  0  0
 50 49  4  0  0  0  0
 51 50  1  0  0  0  0
 52 50  4  0  0  0  0
 53 52  1  0  0  0  0
 54 52  4  0  0  0  0
 55 54  1  0  0  0  0
 56 54  4  0  0  0  0
 57 56  1  0  0  0  0
 58 49  4  0  0  0  0
 59 58  1  0  0  0  0
 60  2  1  0  0  0  0
 61 60  4  0  0  0  0
 62 61  1  0  0  0  0
 63 61  4  0  0  0  0
 64 63  1  0  0  0  0
 65 63  4  0  0  0  0
 66 65  1  0  0  0  0
 67 65  4  0  0  0  0
 68 67  1  0  0  0  0
 69 60  4  0  0  0  0
 70 69  1  0  0  0  0
  8 10  1  0  0  0  0
  8 16  1  0  0  0  0
  8 18  1  0  0  0  0
 10 12  1  0  0  0  0
 10 18  1  0  0  0  0
 10 19  1  0  0  0  0
 12 14  1  0  0  0  0
 12 19  1  0  0  0  0
 14 16  1  0  0  0  0
 14 20  1  0  0  0  0
 16 22  1  0  0  0  0
 16 25  1  0  0  0  0
 18 19  1  0  0  0  0
 18 25  1  0  0  0  0
 19 20  1  0  0  0  0
 20 22  1  0  0  0  0
 22 25  1  0  0  0  0
 34 36  4  0  0  0  0
 45 47  4  0  0  0  0
 56 58  4  0  0  0  0
 67 69  4  0  0  0  0
M  END
$$$$
OCEXUQ

From CSD data. Using bond type 'Any'. No disordered atoms. Largest molecule.
 68 81  0  0  0  0  0  0  0  0999 V2000
   11.7983    3.8439    0.5267 B   0  0  0  0  0  0  0  0  0  0  0  0
   11.9107    4.7045   -0.1799 H   0  0  0  0  0  0  0  0  0  0  0  0
   13.2673    3.0192    1.0330 B   0  0  0  0  0  0  0  0  0  0  0  0
   14.2788    3.4081    0.7516 H   0  0  0  0  0  0  0  0  0  0  0  0
   12.2903    3.7954    2.2750 B   0  0  0  0  0  0  0  0  0  0  0  0
   12.7705    4.6290    2.8496 H   0  0  0  0  0  0  0  0  0  0  0  0
   10.5589    3.9066    1.8441 B   0  0  0  0  0  0  0  0  0  0  0  0
   12.0851    2.1828   -0.0087 B   0  0  0  0  0  0  0  0  0  0  0  0
   12.0819    1.5500   -0.9329 H   0  0  0  0  0  0  0  0  0  0  0  0
   12.7253    1.4211    1.1636 C   0  0  0  0  0  0  0  0  0  0  0  0
   13.2933    0.9700    0.9431 H   0  0  0  0  0  0  0  0  0  0  0  0
   12.7997    2.1049    2.5202 B   0  0  0  0  0  0  0  0  0  0  0  0
   13.2679    1.4249    3.2761 H   0  0  0  0  0  0  0  0  0  0  0  0
   11.1064    2.8233    3.1528 B   0  0  0  0  0  0  0  0  0  0  0  0
   11.0649    3.0199    4.2555 H   0  0  0  0  0  0  0  0  0  0  0  0
   10.7260    1.7659    2.7422 H   0  0  0  0  0  0  0  0  0  0  0  0
   10.3141    2.8736    0.3859 B   0  0  0  0  0  0  0  0  0  0  0  0
    9.7248    3.1103   -0.5368 H   0  0  0  0  0  0  0  0  0  0  0  0
   10.0549    1.7894    0.8270 H   0  0  0  0  0  0  0  0  0  0  0  0
    9.2915    2.1271    2.1697 Fe  0  0  0  0  0  0  0  0  0  0  0  0
    8.8496   -0.0344    2.3793 P   0  0  0  0  0  0  0  0  0  0  0  0
    7.0723   -0.4735    2.2895 C   0  0  0  0  0  0  0  0  0  0  0  0
    6.5803    0.0670    2.9555 H   0  0  0  0  0  0  0  0  0  0  0  0
    6.7328   -0.2258    1.3929 H   0  0  0  0  0  0  0  0  0  0  0  0
    6.7558   -1.9783    2.5405 C   0  0  0  0  0  0  0  0  0  0  0  0
    5.7894   -2.1235    2.4723 H   0  0  0  0  0  0  0  0  0  0  0  0
    7.0623   -2.2307    3.4357 H   0  0  0  0  0  0  0  0  0  0  0  0
    7.2173   -2.5249    1.8702 H   0  0  0  0  0  0  0  0  0  0  0  0
    9.3669   -0.8361    3.9566 C   0  0  0  0  0  0  0  0  0  0  0  0
    8.7427   -0.5507    4.6719 H   0  0  0  0  0  0  0  0  0  0  0  0
    9.2727   -1.8161    3.8550 H   0  0  0  0  0  0  0  0  0  0  0  0
   10.8048   -0.5301    4.4165 C   0  0  0  0  0  0  0  0  0  0  0  0
   10.9817   -0.9907    5.2638 H   0  0  0  0  0  0  0  0  0  0  0  0
   10.9102    0.4354    4.5413 H   0  0  0  0  0  0  0  0  0  0  0  0
   11.4388   -0.8421    3.7360 H   0  0  0  0  0  0  0  0  0  0  0  0
    9.6723   -1.0448    1.0998 C   0  0  0  0  0  0  0  0  0  0  0  0
   10.6359   -0.8210    1.0867 H   0  0  0  0  0  0  0  0  0  0  0  0
    9.5883   -2.0003    1.3435 H   0  0  0  0  0  0  0  0  0  0  0  0
    9.0988   -0.8406   -0.2989 C   0  0  0  0  0  0  0  0  0  0  0  0
    9.5803   -1.4104   -0.9358 H   0  0  0  0  0  0  0  0  0  0  0  0
    9.1995    0.0986   -0.5600 H   0  0  0  0  0  0  0  0  0  0  0  0
    8.1482   -1.0800   -0.3018 H   0  0  0  0  0  0  0  0  0  0  0  0
    9.7606    5.5859    2.1795 P   0  0  0  0  0  0  0  0  0  0  0  0
   10.7654    6.9541    1.5075 C   0  0  0  0  0  0  0  0  0  0  0  0
   11.6677    6.9160    1.9166 H   0  0  0  0  0  0  0  0  0  0  0  0
   10.8724    6.8204    0.5325 H   0  0  0  0  0  0  0  0  0  0  0  0
   10.1619    8.3813    1.7556 C   0  0  0  0  0  0  0  0  0  0  0  0
   10.7465    9.0583    1.3551 H   0  0  0  0  0  0  0  0  0  0  0  0
   10.0881    8.5411    2.7204 H   0  0  0  0  0  0  0  0  0  0  0  0
    9.2723    8.4348    1.3479 H   0  0  0  0  0  0  0  0  0  0  0  0
    8.0951    5.8099    1.4770 C   0  0  0  0  0  0  0  0  0  0  0  0
    7.5103    5.0832    1.8093 H   0  0  0  0  0  0  0  0  0  0  0  0
    7.7254    6.6668    1.8049 H   0  0  0  0  0  0  0  0  0  0  0  0
    8.0571    5.8107   -0.0392 C   0  0  0  0  0  0  0  0  0  0  0  0
    7.1329    5.9338   -0.3424 H   0  0  0  0  0  0  0  0  0  0  0  0
    8.4003    4.9563   -0.3758 H   0  0  0  0  0  0  0  0  0  0  0  0
    8.6128    6.5427   -0.3801 H   0  0  0  0  0  0  0  0  0  0  0  0
    9.5379    5.9236    3.9363 C   0  0  0  0  0  0  0  0  0  0  0  0
    8.9812    6.7375    4.0248 H   0  0  0  0  0  0  0  0  0  0  0  0
    9.0247    5.1726    4.3309 H   0  0  0  0  0  0  0  0  0  0  0  0
   10.8044    6.1213    4.7705 C   0  0  0  0  0  0  0  0  0  0  0  0
   10.5571    6.2990    5.7020 H   0  0  0  0  0  0  0  0  0  0  0  0
   11.3120    6.8821    4.4165 H   0  0  0  0  0  0  0  0  0  0  0  0
   11.3541    5.3112    4.7270 H   0  0  0  0  0  0  0  0  0  0  0  0
    7.8501    2.4132    1.1854 C   0  0  0  0  0  0  0  0  0  0  0  0
    6.9115    2.5919    0.5499 O   0  0  0  0  0  0  0  0  0  0  0  0
    8.5213    2.4980    3.7056 C   0  0  0  0  0  0  0  0  0  0  0  0
    8.0224    2.7201    4.7227 O   0  0  0  0  0  0  0  0  0  0  0  0
  1  2  1  0  0  0  0
  3  1  1  0  0  0  0
  4  3  1  0  0  0  0
  5  1  1  0  0  0  0
  6  5  1  0  0  0  0
  7  1  1  0  0  0  0
  8  1  1  0  0  0  0
  9  8  1  0  0  0  0
 10  3  1  0  0  0  0
 11 10  1  0  0  0  0
 12  3  1  0  0  0  0
 13 12  1  0  0  0  0
 14  5  1  0  0  0  0
 15 14  1  0  0  0  0
 16 14  1  0  0  0  0
 17  1  1  0  0  0  0
 18 17  1  0  0  0  0
 19 17  1  0  0  0  0
 20  7  1  0  0  0  0
 21 20  1  0  0  0  0
 22 21  1  0  0  0  0
 23 22  1  0  0  0  0
 24 22  1  0  0  0  0
 25 22  1  0  0  0  0
 26 25  1  0  0  0  0
 27 25  1  0  0  0  0
 28 25  1  0  0  0  0
 29 21  1  0  0  0  0
 30 29  1  0  0  0  0
 31 29  1  0  0  0  0
 32 29  1  0  0  0  0
 33 32  1  0  0  0  0
 34 32  1  0  0  0  0
 35 32  1  0  0  0  0
 36 21  1  0  0  0  0
 37 36  1  0  0  0  0
 38 36  1  0  0  0  0
 39 36  1  0  0  0  0
 40 39  1  0  0  0  0
 41 39  1  0  0  0  0
 42 39  1  0  0  0  0
 43  7  1  0  0  0  0
 44 43  1  0  0  0  0
 45 44  1  0  0  0  0
 46 44  1  0  0  0  0
 47 44  1  0  0  0  0
 48 47  1  0  0  0  0
 49 47  1  0  0  0  0
 50 47  1  0  0  0  0
 51 43  1  0  0  0  0
 52 51  1  0  0  0  0
 53 51  1  0  0  0  0
 54 51  1  0  0  0  0
 55 54  1  0  0  0  0
 56 54  1  0  0  0  0
 57 54  1  0  0  0  0
 58 43  1  0  0  0  0
 59 58  1  0  0  0  0
 60 58  1  0  0  0  0
 61 58  1  0  0  0  0
 62 61  1  0  0  0  0
 63 61  1  0  0  0  0
 64 61  1  0  0  0  0
 65 20  1  0  0  0  0
 66 65  3  0  0  0  0
 67 20  1  0  0  0  0
 68 67  3  0  0  0  0
  3  5  1  0  0  0  0
  3  8  1  0  0  0  0
  5  7  1  0  0  0  0
  5 12  1  0  0  0  0
  7 14  1  0  0  0  0
  7 17  1  0  0  0  0
  8 10  1  0  0  0  0
  8 17  1  0  0  0  0
 10 12  1  0  0  0  0
 12 14  1  0  0  0  0
 14 20  1  0  0  0  0
 16 20  1  0  0  0  0
 17 20  1  0  0  0  0
 19 20  1  0  0  0  0
M  END
$$$$
OCICEK

From CSD data. Using bond type 'Any'. No disordered atoms. Largest molecule.
124132  0  0  0  0  0  0  0  0999 V2000
    7.7469    8.6789    6.0794 P   0  0  0  0  0  0  0  0  0  0  0  0
    5.9475   10.9134    7.5137 S   0  0  0  0  0  0  0  0  0  0  0  0
   10.1709    7.9465    7.9386 Si  0  0  0  0  0  0  0  0  0  0  0  0
    9.1253    5.9222    5.7444 Si  0  0  0  0  0  0  0  0  0  0  0  0
    5.8690    7.7431    9.4124 O   0  0  0  0  0  0  0  0  0  0  0  0
    7.1571    8.6332    4.2089 B   0  0  0  0  0  0  0  0  0  0  0  0
    6.2732    9.3693    4.1393 H   0  0  0  0  0  0  0  0  0  0  0  0
    6.7878    7.5920    3.9653 H   0  0  0  0  0  0  0  0  0  0  0  0
    7.9775    8.9839    3.5058 H   0  0  0  0  0  0  0  0  0  0  0  0
    5.7557    8.3133    7.5925 Li  0  0  0  0  0  0  0  0  0  0  0  0
    9.3492    7.7328    6.2469 C   0  0  0  0  0  0  0  0  0  0  0  0
    9.9792    8.1303    5.5792 H   0  0  0  0  0  0  0  0  0  0  0  0
   12.0152    7.7218    7.7194 C   0  0  0  0  0  0  0  0  0  0  0  0
   12.4677    7.8863    8.5729 H   0  0  0  0  0  0  0  0  0  0  0  0
   12.3441    8.3546    7.0476 H   0  0  0  0  0  0  0  0  0  0  0  0
   12.1999    6.8066    7.4229 H   0  0  0  0  0  0  0  0  0  0  0  0
    9.4988    6.7260    9.1888 C   0  0  0  0  0  0  0  0  0  0  0  0
    9.8032    6.9758   10.0861 H   0  0  0  0  0  0  0  0  0  0  0  0
    9.8209    5.8261    8.9734 H   0  0  0  0  0  0  0  0  0  0  0  0
    8.5187    6.7367    9.1616 H   0  0  0  0  0  0  0  0  0  0  0  0
    9.9761    9.6238    8.7437 C   0  0  0  0  0  0  0  0  0  0  0  0
   10.3860    9.6083    9.6332 H   0  0  0  0  0  0  0  0  0  0  0  0
    9.0229    9.8376    8.8267 H   0  0  0  0  0  0  0  0  0  0  0  0
   10.4167   10.3043    8.1921 H   0  0  0  0  0  0  0  0  0  0  0  0
    9.1615    5.7196    3.8921 C   0  0  0  0  0  0  0  0  0  0  0  0
    8.9989    4.7806    3.6633 H   0  0  0  0  0  0  0  0  0  0  0  0
   10.0392    5.9920    3.5506 H   0  0  0  0  0  0  0  0  0  0  0  0
    8.4660    6.2798    3.4882 H   0  0  0  0  0  0  0  0  0  0  0  0
   10.5291    4.8216    6.3320 C   0  0  0  0  0  0  0  0  0  0  0  0
   10.3791    3.9058    6.0180 H   0  0  0  0  0  0  0  0  0  0  0  0
   10.5620    4.8294    7.3113 H   0  0  0  0  0  0  0  0  0  0  0  0
   11.3773    5.1546    5.9731 H   0  0  0  0  0  0  0  0  0  0  0  0
    7.5236    5.2580    6.4138 C   0  0  0  0  0  0  0  0  0  0  0  0
    7.4582    4.3009    6.2138 H   0  0  0  0  0  0  0  0  0  0  0  0
    6.7730    5.7302    5.9961 H   0  0  0  0  0  0  0  0  0  0  0  0
    7.4936    5.3920    7.3846 H   0  0  0  0  0  0  0  0  0  0  0  0
    8.2999   10.4349    6.2118 C   0  0  0  0  0  0  0  0  0  0  0  0
    9.4878   10.8654    5.6215 C   0  0  0  0  0  0  0  0  0  0  0  0
    9.9850   10.2571    5.0879 H   0  0  0  0  0  0  0  0  0  0  0  0
    9.9639   12.1570    5.7916 C   0  0  0  0  0  0  0  0  0  0  0  0
   10.7779   12.4263    5.3823 H   0  0  0  0  0  0  0  0  0  0  0  0
    9.2441   13.0466    6.5605 C   0  0  0  0  0  0  0  0  0  0  0  0
    9.5836   13.9206    6.7139 H   0  0  0  0  0  0  0  0  0  0  0  0
    8.0360   12.6770    7.1079 C   0  0  0  0  0  0  0  0  0  0  0  0
    7.5324   13.3060    7.6111 H   0  0  0  0  0  0  0  0  0  0  0  0
    7.5497   11.3846    6.9265 C   0  0  0  0  0  0  0  0  0  0  0  0
    5.6528   11.9703    8.9270 C   0  0  0  0  0  0  0  0  0  0  0  0
    5.5962   12.9027    8.6320 H   0  0  0  0  0  0  0  0  0  0  0  0
    6.3887   11.8734    9.5664 H   0  0  0  0  0  0  0  0  0  0  0  0
    4.8110   11.7124    9.3574 H   0  0  0  0  0  0  0  0  0  0  0  0
    6.4919    8.5158   10.4619 C   0  0  0  0  0  0  0  0  0  0  0  0
    5.9468    9.3140   10.6759 H   0  0  0  0  0  0  0  0  0  0  0  0
    7.3955    8.8132   10.1857 H   0  0  0  0  0  0  0  0  0  0  0  0
    6.5789    7.5966   11.6565 C   0  0  0  0  0  0  0  0  0  0  0  0
    6.5526    8.1042   12.5065 H   0  0  0  0  0  0  0  0  0  0  0  0
    7.4003    7.0457   11.6300 H   0  0  0  0  0  0  0  0  0  0  0  0
    5.3330    6.7436   11.4818 C   0  0  0  0  0  0  0  0  0  0  0  0
    5.4249    5.8749   11.9473 H   0  0  0  0  0  0  0  0  0  0  0  0
    4.5278    7.2099   11.8204 H   0  0  0  0  0  0  0  0  0  0  0  0
    5.2678    6.5570    9.9835 C   0  0  0  0  0  0  0  0  0  0  0  0
    5.7681    5.7481    9.7119 H   0  0  0  0  0  0  0  0  0  0  0  0
    4.3289    6.4652    9.6846 H   0  0  0  0  0  0  0  0  0  0  0  0
    3.0295    7.5816    4.8624 P   0  0  0  0  0  0  0  0  0  0  0  0
    4.8289    5.3471    3.4281 S   0  0  0  0  0  0  0  0  0  0  0  0
    0.6055    8.3140    3.0032 Si  0  0  0  0  0  0  0  0  0  0  0  0
    1.6511   10.3383    5.1974 Si  0  0  0  0  0  0  0  0  0  0  0  0
    4.9074    8.5174    1.5294 O   0  0  0  0  0  0  0  0  0  0  0  0
    3.6193    7.6273    6.7329 B   0  0  0  0  0  0  0  0  0  0  0  0
    4.5032    6.8912    6.8025 H   0  0  0  0  0  0  0  0  0  0  0  0
    3.9886    8.6685    6.9765 H   0  0  0  0  0  0  0  0  0  0  0  0
    2.7989    7.2766    7.4360 H   0  0  0  0  0  0  0  0  0  0  0  0
    5.0207    7.9472    3.3493 Li  0  0  0  0  0  0  0  0  0  0  0  0
    1.4272    8.5277    4.6949 C   0  0  0  0  0  0  0  0  0  0  0  0
    0.7972    8.1303    5.3626 H   0  0  0  0  0  0  0  0  0  0  0  0
   -1.2388    8.5387    3.2224 C   0  0  0  0  0  0  0  0  0  0  0  0
   -1.6913    8.3742    2.3689 H   0  0  0  0  0  0  0  0  0  0  0  0
   -1.5677    7.9059    3.8942 H   0  0  0  0  0  0  0  0  0  0  0  0
   -1.4235    9.4539    3.5189 H   0  0  0  0  0  0  0  0  0  0  0  0
    1.2776    9.5345    1.7530 C   0  0  0  0  0  0  0  0  0  0  0  0
    0.9732    9.2847    0.8556 H   0  0  0  0  0  0  0  0  0  0  0  0
    0.9555   10.4344    1.9684 H   0  0  0  0  0  0  0  0  0  0  0  0
    2.2577    9.5238    1.7802 H   0  0  0  0  0  0  0  0  0  0  0  0
    0.8003    6.6367    2.1981 C   0  0  0  0  0  0  0  0  0  0  0  0
    0.3904    6.6522    1.3086 H   0  0  0  0  0  0  0  0  0  0  0  0
    1.7535    6.4229    2.1150 H   0  0  0  0  0  0  0  0  0  0  0  0
    0.3597    5.9562    2.7497 H   0  0  0  0  0  0  0  0  0  0  0  0
    1.6149   10.5409    7.0497 C   0  0  0  0  0  0  0  0  0  0  0  0
    1.7775   11.4799    7.2785 H   0  0  0  0  0  0  0  0  0  0  0  0
    0.7372   10.2685    7.3912 H   0  0  0  0  0  0  0  0  0  0  0  0
    2.3104    9.9807    7.4536 H   0  0  0  0  0  0  0  0  0  0  0  0
    0.2473   11.4389    4.6098 C   0  0  0  0  0  0  0  0  0  0  0  0
    0.3973   12.3547    4.9238 H   0  0  0  0  0  0  0  0  0  0  0  0
    0.2144   11.4311    3.6305 H   0  0  0  0  0  0  0  0  0  0  0  0
   -0.6009   11.1059    4.9687 H   0  0  0  0  0  0  0  0  0  0  0  0
    3.2528   11.0025    4.5280 C   0  0  0  0  0  0  0  0  0  0  0  0
    3.3182   11.9596    4.7280 H   0  0  0  0  0  0  0  0  0  0  0  0
    4.0034   10.5303    4.9457 H   0  0  0  0  0  0  0  0  0  0  0  0
    3.2828   10.8685    3.5572 H   0  0  0  0  0  0  0  0  0  0  0  0
    2.4765    5.8256    4.7300 C   0  0  0  0  0  0  0  0  0  0  0  0
    1.2886    5.3951    5.3203 C   0  0  0  0  0  0  0  0  0  0  0  0
    0.7914    6.0034    5.8539 H   0  0  0  0  0  0  0  0  0  0  0  0
    0.8125    4.1035    5.1502 C   0  0  0  0  0  0  0  0  0  0  0  0
   -0.0015    3.8342    5.5595 H   0  0  0  0  0  0  0  0  0  0  0  0
    1.5323    3.2139    4.3813 C   0  0  0  0  0  0  0  0  0  0  0  0
    1.1928    2.3399    4.2279 H   0  0  0  0  0  0  0  0  0  0  0  0
    2.7404    3.5835    3.8339 C   0  0  0  0  0  0  0  0  0  0  0  0
    3.2440    2.9545    3.3307 H   0  0  0  0  0  0  0  0  0  0  0  0
    3.2267    4.8759    4.0153 C   0  0  0  0  0  0  0  0  0  0  0  0
    5.1236    4.2902    2.0148 C   0  0  0  0  0  0  0  0  0  0  0  0
    5.1802    3.3578    2.3098 H   0  0  0  0  0  0  0  0  0  0  0  0
    4.3877    4.3871    1.3754 H   0  0  0  0  0  0  0  0  0  0  0  0
    5.9654    4.5481    1.5844 H   0  0  0  0  0  0  0  0  0  0  0  0
    4.2845    7.7447    0.4799 C   0  0  0  0  0  0  0  0  0  0  0  0
    4.8296    6.9465    0.2659 H   0  0  0  0  0  0  0  0  0  0  0  0
    3.3809    7.4473    0.7561 H   0  0  0  0  0  0  0  0  0  0  0  0
    4.1975    8.6639   -0.7147 C   0  0  0  0  0  0  0  0  0  0  0  0
    4.2238    8.1563   -1.5647 H   0  0  0  0  0  0  0  0  0  0  0  0
    3.3761    9.2148   -0.6882 H   0  0  0  0  0  0  0  0  0  0  0  0
    5.4434    9.5169   -0.5400 C   0  0  0  0  0  0  0  0  0  0  0  0
    5.3515   10.3856   -1.0056 H   0  0  0  0  0  0  0  0  0  0  0  0
    6.2486    9.0506   -0.8786 H   0  0  0  0  0  0  0  0  0  0  0  0
    5.5086    9.7035    0.9583 C   0  0  0  0  0  0  0  0  0  0  0  0
    5.0083   10.5124    1.2299 H   0  0  0  0  0  0  0  0  0  0  0  0
    6.4475    9.7953    1.2572 H   0  0  0  0  0  0  0  0  0  0  0  0
  1  6  1  0  0  0  0
  2 10  1  0  0  0  0
  3 11  1  0  0  0  0
  4 11  1  0  0  0  0
  5 10  1  0  0  0  0
  6  7  1  0  0  0  0
  7 72  1  0  0  0  0
  8  6  1  0  0  0  0
  9  6  1  0  0  0  0
 10  1  1  0  0  0  0
 11  1  1  0  0  0  0
 12 11  1  0  0  0  0
 13  3  1  0  0  0  0
 14 13  1  0  0  0  0
 15 13  1  0  0  0  0
 16 13  1  0  0  0  0
 17  3  1  0  0  0  0
 18 17  1  0  0  0  0
 19 17  1  0  0  0  0
 20 17  1  0  0  0  0
 21  3  1  0  0  0  0
 22 21  1  0  0  0  0
 23 21  1  0  0  0  0
 24 21  1  0  0  0  0
 25  4  1  0  0  0  0
 26 25  1  0  0  0  0
 27 25  1  0  0  0  0
 28 25  1  0  0  0  0
 29  4  1  0  0  0  0
 30 29  1  0  0  0  0
 31 29  1  0  0  0  0
 32 29  1  0  0  0  0
 33  4  1  0  0  0  0
 34 33  1  0  0  0  0
 35 33  1  0  0  0  0
 36 33  1  0  0  0  0
 37  1  1  0  0  0  0
 38 37  4  0  0  0  0
 39 38  1  0  0  0  0
 40 38  4  0  0  0  0
 41 40  1  0  0  0  0
 42 40  4  0  0  0  0
 43 42  1  0  0  0  0
 44 42  4  0  0  0  0
 45 44  1  0  0  0  0
 46  2  1  0  0  0  0
 47  2  1  0  0  0  0
 48 47  1  0  0  0  0
 49 47  1  0  0  0  0
 50 47  1  0  0  0  0
 51  5  1  0  0  0  0
 52 51  1  0  0  0  0
 53 51  1  0  0  0  0
 54 51  1  0  0  0  0
 55 54  1  0  0  0  0
 56 54  1  0  0  0  0
 57 54  1  0  0  0  0
 58 57  1  0  0  0  0
 59 57  1  0  0  0  0
 60  5  1  0  0  0  0
 61 60  1  0  0  0  0
 62 60  1  0  0  0  0
 63 68  1  0  0  0  0
 64 72  1  0  0  0  0
 65 73  1  0  0  0  0
 66 73  1  0  0  0  0
 67 72  1  0  0  0  0
 68 69  1  0  0  0  0
 69 10  1  0  0  0  0
 70 10  1  0  0  0  0
 71 68  1  0  0  0  0
 72  8  1  0  0  0  0
 73 63  1  0  0  0  0
 74 73  1  0  0  0  0
 75 65  1  0  0  0  0
 76 75  1  0  0  0  0
 77 75  1  0  0  0  0
 78 75  1  0  0  0  0
 79 65  1  0  0  0  0
 80 79  1  0  0  0  0
 81 79  1  0  0  0  0
 82 79  1  0  0  0  0
 83 65  1  0  0  0  0
 84 83  1  0  0  0  0
 85 83  1  0  0  0  0
 86 83  1  0  0  0  0
 87 66  1  0  0  0  0
 88 87  1  0  0  0  0
 89 87  1  0  0  0  0
 90 87  1  0  0  0  0
 91 66  1  0  0  0  0
 92 91  1  0  0  0  0
 93 91  1  0  0  0  0
 94 91  1  0  0  0  0
 95 66  1  0  0  0  0
 96 95  1  0  0  0  0
 97 95  1  0  0  0  0
 98 95  1  0  0  0  0
 99 63  1  0  0  0  0
100 99  4  0  0  0  0
101100  1  0  0  0  0
102100  4  0  0  0  0
103102  1  0  0  0  0
104102  4  0  0  0  0
105104  1  0  0  0  0
106104  4  0  0  0  0
107106  1  0  0  0  0
108 64  1  0  0  0  0
109 64  1  0  0  0  0
110109  1  0  0  0  0
111109  1  0  0  0  0
112109  1  0  0  0  0
113 67  1  0  0  0  0
114113  1  0  0  0  0
115113  1  0  0  0  0
116113  1  0  0  0  0
117116  1  0  0  0  0
118116  1  0  0  0  0
119116  1  0  0  0  0
120119  1  0  0  0  0
121119  1  0  0  0  0
122 67  1  0  0  0  0
123122  1  0  0  0  0
124122  1  0  0  0  0
 37 46  4  0  0  0  0
 44 46  4  0  0  0  0
 57 60  1  0  0  0  0
 63 72  1  0  0  0  0
 68 70  1  0  0  0  0
 99108  4  0  0  0  0
106108  4  0  0  0  0
119122  1  0  0  0  0
M  END
$$$$
ODOMUS

From CSD data. Using bond type 'Any'. Matching problem. No disordered atoms. Largest molecule.
139158  0  0  0  0  0  0  0  0999 V2000
   10.1593   16.8239    5.4866 C   0  0  0  0  0  0  0  0  0  0  0  0
    9.7470   17.0165    6.2984 H   0  0  0  0  0  0  0  0  0  0  0  0
   10.8377   16.9512    3.3343 C   0  0  0  0  0  0  0  0  0  0  0  0
   10.9466   17.2433    2.4592 H   0  0  0  0  0  0  0  0  0  0  0  0
   11.3662   15.7862    3.8828 C   0  0  0  0  0  0  0  0  0  0  0  0
   11.9092   15.1710    3.4412 H   0  0  0  0  0  0  0  0  0  0  0  0
   10.9357   15.6961    5.2074 C   0  0  0  0  0  0  0  0  0  0  0  0
   11.1316   15.0063    5.8014 H   0  0  0  0  0  0  0  0  0  0  0  0
   10.1134   17.6068    4.3342 C   0  0  0  0  0  0  0  0  0  0  0  0
    9.6768   18.4239    4.2471 H   0  0  0  0  0  0  0  0  0  0  0  0
   12.0930   17.5440    4.9500 V   0  2  0  0  0  0  0  0  0  0  0  0
   10.8140   19.8394    7.2205 P   0  0  0  0  0  0  0  0  0  0  0  0
    9.3140   21.5765    9.8485 F   0  0  0  0  0  0  0  0  0  0  0  0
    7.1917   20.2983   11.1316 F   0  0  0  0  0  0  0  0  0  0  0  0
   10.7833   22.7978   11.6978 F   0  0  0  0  0  0  0  0  0  0  0  0
   10.6044   17.3825   11.6681 F   0  0  0  0  0  0  0  0  0  0  0  0
   11.6323   19.0295    6.2469 O   0  0  0  0  0  0  0  0  0  0  0  0
   11.0639   16.5849    8.4922 F   0  0  0  0  0  0  0  0  0  0  0  0
   12.2381   21.3410   13.4878 F   0  0  0  0  0  0  0  0  0  0  0  0
    7.0127   17.2573   10.8484 F   0  0  0  0  0  0  0  0  0  0  0  0
    7.6283   18.1698    6.9241 F   0  0  0  0  0  0  0  0  0  0  0  0
    9.9271   18.9751    8.1061 O   0  0  0  0  0  0  0  0  0  0  0  0
   12.0773   18.6200   13.4462 F   0  0  0  0  0  0  0  0  0  0  0  0
    4.8166   21.2198   10.4049 F   0  0  0  0  0  0  0  0  0  0  0  0
   10.8172   13.9720    8.8407 F   0  0  0  0  0  0  0  0  0  0  0  0
    8.7142   12.9545   10.2247 F   0  0  0  0  0  0  0  0  0  0  0  0
    6.8301   14.6441   11.2306 F   0  0  0  0  0  0  0  0  0  0  0  0
    5.2447   19.1065    6.2271 F   0  0  0  0  0  0  0  0  0  0  0  0
    3.8069   20.6488    7.9418 F   0  0  0  0  0  0  0  0  0  0  0  0
    9.9646   20.7945   10.7435 C   0  0  0  0  0  0  0  0  0  0  0  0
   10.5910   18.7315   11.5988 C   0  0  0  0  0  0  0  0  0  0  0  0
   12.7400   20.0364    9.1694 C   0  0  0  0  0  0  0  0  0  0  0  0
   12.6759   19.1105    9.2110 H   0  0  0  0  0  0  0  0  0  0  0  0
   11.9539   20.7575    8.2685 C   0  0  0  0  0  0  0  0  0  0  0  0
    8.9996   17.0600    9.5693 C   0  0  0  0  0  0  0  0  0  0  0  0
   10.1400   21.3413    4.9975 C   0  0  0  0  0  0  0  0  0  0  0  0
   10.8813   20.9436    4.5995 H   0  0  0  0  0  0  0  0  0  0  0  0
    9.8195   21.0154    6.2944 C   0  0  0  0  0  0  0  0  0  0  0  0
   12.0906   22.1460    8.2012 C   0  0  0  0  0  0  0  0  0  0  0  0
   11.5742   22.6338    7.6032 H   0  0  0  0  0  0  0  0  0  0  0  0
   11.4472   20.7230   12.5888 C   0  0  0  0  0  0  0  0  0  0  0  0
    9.9392   16.1435    9.1238 C   0  0  0  0  0  0  0  0  0  0  0  0
   13.6191   20.7137   10.0049 C   0  0  0  0  0  0  0  0  0  0  0  0
   14.1222   20.2383   10.6247 H   0  0  0  0  0  0  0  0  0  0  0  0
    7.5847   19.2441    9.0427 C   0  0  0  0  0  0  0  0  0  0  0  0
    9.8606   19.4026   10.6187 C   0  0  0  0  0  0  0  0  0  0  0  0
    6.7963   19.9960    9.8703 C   0  0  0  0  0  0  0  0  0  0  0  0
    5.0283   20.2011    8.2744 C   0  0  0  0  0  0  0  0  0  0  0  0
   10.7180   21.4407   11.6662 C   0  0  0  0  0  0  0  0  0  0  0  0
    7.9753   16.4790   10.2722 C   0  0  0  0  0  0  0  0  0  0  0  0
    5.5338   20.4838    9.5218 C   0  0  0  0  0  0  0  0  0  0  0  0
    7.8532   15.1275   10.5098 C   0  0  0  0  0  0  0  0  0  0  0  0
   12.9867   22.7891    9.0209 C   0  0  0  0  0  0  0  0  0  0  0  0
   13.0774   23.7150    8.9654 H   0  0  0  0  0  0  0  0  0  0  0  0
    8.6876   21.6178    6.8706 C   0  0  0  0  0  0  0  0  0  0  0  0
    8.4518   21.4159    7.7477 H   0  0  0  0  0  0  0  0  0  0  0  0
   11.3783   19.3436   12.5433 C   0  0  0  0  0  0  0  0  0  0  0  0
    5.7454   19.4243    7.4329 C   0  0  0  0  0  0  0  0  0  0  0  0
   13.7558   22.0745    9.9277 C   0  0  0  0  0  0  0  0  0  0  0  0
   14.3604   22.5157   10.4782 H   0  0  0  0  0  0  0  0  0  0  0  0
    9.8594   14.7951    9.3100 C   0  0  0  0  0  0  0  0  0  0  0  0
    6.9873   18.9614    7.8131 C   0  0  0  0  0  0  0  0  0  0  0  0
    8.8231   14.2762   10.0109 C   0  0  0  0  0  0  0  0  0  0  0  0
    7.9270   22.5033    6.1439 C   0  0  0  0  0  0  0  0  0  0  0  0
    7.1711   22.8885    6.5241 H   0  0  0  0  0  0  0  0  0  0  0  0
    9.3902   22.2423    4.2728 C   0  0  0  0  0  0  0  0  0  0  0  0
    9.6297   22.4598    3.3997 H   0  0  0  0  0  0  0  0  0  0  0  0
    8.2885   22.8171    4.8530 C   0  0  0  0  0  0  0  0  0  0  0  0
    7.7782   23.4260    4.3679 H   0  0  0  0  0  0  0  0  0  0  0  0
    9.0794   18.6911    9.3595 B   0  5  0  0  0  0  0  0  0  0  0  0
   14.0267   16.8239    4.4134 C   0  0  0  0  0  0  0  0  0  0  0  0
   14.4390   17.0165    3.6016 H   0  0  0  0  0  0  0  0  0  0  0  0
   13.3483   16.9512    6.5657 C   0  0  0  0  0  0  0  0  0  0  0  0
   13.2394   17.2433    7.4408 H   0  0  0  0  0  0  0  0  0  0  0  0
   12.8198   15.7862    6.0172 C   0  0  0  0  0  0  0  0  0  0  0  0
   12.2768   15.1710    6.4588 H   0  0  0  0  0  0  0  0  0  0  0  0
   13.2503   15.6961    4.6926 C   0  0  0  0  0  0  0  0  0  0  0  0
   13.0544   15.0063    4.0986 H   0  0  0  0  0  0  0  0  0  0  0  0
   14.0726   17.6068    5.5658 C   0  0  0  0  0  0  0  0  0  0  0  0
   14.5092   18.4239    5.6529 H   0  0  0  0  0  0  0  0  0  0  0  0
   13.3720   19.8394    2.6795 P   0  0  0  0  0  0  0  0  0  0  0  0
   14.8720   21.5765    0.0515 F   0  0  0  0  0  0  0  0  0  0  0  0
   16.9943   20.2983   -1.2316 F   0  0  0  0  0  0  0  0  0  0  0  0
   13.4027   22.7978   -1.7978 F   0  0  0  0  0  0  0  0  0  0  0  0
   13.5816   17.3825   -1.7681 F   0  0  0  0  0  0  0  0  0  0  0  0
   12.5537   19.0295    3.6531 O   0  0  0  0  0  0  0  0  0  0  0  0
   13.1221   16.5849    1.4078 F   0  0  0  0  0  0  0  0  0  0  0  0
   11.9479   21.3410   -3.5878 F   0  0  0  0  0  0  0  0  0  0  0  0
   17.1733   17.2573   -0.9484 F   0  0  0  0  0  0  0  0  0  0  0  0
   16.5577   18.1698    2.9759 F   0  0  0  0  0  0  0  0  0  0  0  0
   14.2589   18.9751    1.7939 O   0  0  0  0  0  0  0  0  0  0  0  0
   12.1087   18.6200   -3.5462 F   0  0  0  0  0  0  0  0  0  0  0  0
   19.3694   21.2198   -0.5049 F   0  0  0  0  0  0  0  0  0  0  0  0
   13.3688   13.9720    1.0593 F   0  0  0  0  0  0  0  0  0  0  0  0
   15.4718   12.9545   -0.3247 F   0  0  0  0  0  0  0  0  0  0  0  0
   17.3559   14.6441   -1.3306 F   0  0  0  0  0  0  0  0  0  0  0  0
   18.9413   19.1065    3.6729 F   0  0  0  0  0  0  0  0  0  0  0  0
   20.3791   20.6488    1.9582 F   0  0  0  0  0  0  0  0  0  0  0  0
   14.2214   20.7945   -0.8435 C   0  0  0  0  0  0  0  0  0  0  0  0
   13.5950   18.7315   -1.6988 C   0  0  0  0  0  0  0  0  0  0  0  0
   11.4460   20.0364    0.7306 C   0  0  0  0  0  0  0  0  0  0  0  0
   11.5101   19.1105    0.6890 H   0  0  0  0  0  0  0  0  0  0  0  0
   12.2321   20.7575    1.6315 C   0  0  0  0  0  0  0  0  0  0  0  0
   15.1864   17.0600    0.3307 C   0  0  0  0  0  0  0  0  0  0  0  0
   14.0460   21.3413    4.9025 C   0  0  0  0  0  0  0  0  0  0  0  0
   13.3047   20.9436    5.3005 H   0  0  0  0  0  0  0  0  0  0  0  0
   14.3665   21.0154    3.6056 C   0  0  0  0  0  0  0  0  0  0  0  0
   12.0954   22.1460    1.6988 C   0  0  0  0  0  0  0  0  0  0  0  0
   12.6118   22.6338    2.2968 H   0  0  0  0  0  0  0  0  0  0  0  0
   12.7388   20.7230   -2.6888 C   0  0  0  0  0  0  0  0  0  0  0  0
   14.2468   16.1435    0.7762 C   0  0  0  0  0  0  0  0  0  0  0  0
   10.5669   20.7137   -0.1049 C   0  0  0  0  0  0  0  0  0  0  0  0
   10.0638   20.2383   -0.7247 H   0  0  0  0  0  0  0  0  0  0  0  0
   16.6013   19.2441    0.8573 C   0  0  0  0  0  0  0  0  0  0  0  0
   14.3254   19.4026   -0.7187 C   0  0  0  0  0  0  0  0  0  0  0  0
   17.3897   19.9960    0.0297 C   0  0  0  0  0  0  0  0  0  0  0  0
   19.1577   20.2011    1.6256 C   0  0  0  0  0  0  0  0  0  0  0  0
   13.4680   21.4407   -1.7662 C   0  0  0  0  0  0  0  0  0  0  0  0
   16.2107   16.4790   -0.3722 C   0  0  0  0  0  0  0  0  0  0  0  0
   18.6522   20.4838    0.3782 C   0  0  0  0  0  0  0  0  0  0  0  0
   16.3328   15.1275   -0.6098 C   0  0  0  0  0  0  0  0  0  0  0  0
   11.1993   22.7891    0.8791 C   0  0  0  0  0  0  0  0  0  0  0  0
   11.1086   23.7150    0.9346 H   0  0  0  0  0  0  0  0  0  0  0  0
   15.4984   21.6178    3.0294 C   0  0  0  0  0  0  0  0  0  0  0  0
   15.7342   21.4159    2.1523 H   0  0  0  0  0  0  0  0  0  0  0  0
   12.8077   19.3436   -2.6433 C   0  0  0  0  0  0  0  0  0  0  0  0
   18.4406   19.4243    2.4671 C   0  0  0  0  0  0  0  0  0  0  0  0
   10.4302   22.0745   -0.0277 C   0  0  0  0  0  0  0  0  0  0  0  0
    9.8256   22.5157   -0.5782 H   0  0  0  0  0  0  0  0  0  0  0  0
   14.3266   14.7951    0.5900 C   0  0  0  0  0  0  0  0  0  0  0  0
   17.1987   18.9614    2.0869 C   0  0  0  0  0  0  0  0  0  0  0  0
   15.3629   14.2762   -0.1109 C   0  0  0  0  0  0  0  0  0  0  0  0
   16.2590   22.5033    3.7561 C   0  0  0  0  0  0  0  0  0  0  0  0
   17.0149   22.8885    3.3759 H   0  0  0  0  0  0  0  0  0  0  0  0
   14.7958   22.2423    5.6272 C   0  0  0  0  0  0  0  0  0  0  0  0
   14.5563   22.4598    6.5003 H   0  0  0  0  0  0  0  0  0  0  0  0
   15.8975   22.8171    5.0470 C   0  0  0  0  0  0  0  0  0  0  0  0
   16.4078   23.4260    5.5321 H   0  0  0  0  0  0  0  0  0  0  0  0
   15.1066   18.6911    0.5405 B   0  5  0  0  0  0  0  0  0  0  0  0
  1  2  1  0  0  0  0
  3  4  1  0  0  0  0
  5  3  4  0  0  0  0
  6  5  1  0  0  0  0
  7  1  4  0  0  0  0
  8  7  1  0  0  0  0
  9  1  4  0  0  0  0
 10  9  1  0  0  0  0
 11  1  8  0  0  0  0
 12 17  2  0  0  0  0
 13 30  1  0  0  0  0
 14 47  1  0  0  0  0
 15 49  1  0  0  0  0
 16 31  1  0  0  0  0
 17 11  1  0  0  0  0
 18 42  1  0  0  0  0
 19 41  1  0  0  0  0
 20 50  1  0  0  0  0
 21 62  1  0  0  0  0
 22 12  1  0  0  0  0
 23 57  1  0  0  0  0
 24 51  1  0  0  0  0
 25 61  1  0  0  0  0
 26 63  1  0  0  0  0
 27 52  1  0  0  0  0
 28 58  1  0  0  0  0
 29 48  1  0  0  0  0
 30 46  4  0  0  0  0
 31 46  4  0  0  0  0
 32 33  1  0  0  0  0
 34 12  1  0  0  0  0
 35 42  4  0  0  0  0
 36 37  1  0  0  0  0
 38 12  1  0  0  0  0
 39 34  4  0  0  0  0
 40 39  1  0  0  0  0
 41 49  4  0  0  0  0
 42 61  4  0  0  0  0
 43 32  4  0  0  0  0
 44 43  1  0  0  0  0
 45 47  4  0  0  0  0
 46 70  1  0  0  0  0
 47 51  4  0  0  0  0
 48 51  4  0  0  0  0
 49 30  4  0  0  0  0
 50 35  4  0  0  0  0
 52 50  4  0  0  0  0
 53 39  4  0  0  0  0
 54 53  1  0  0  0  0
 55 38  4  0  0  0  0
 56 55  1  0  0  0  0
 57 31  4  0  0  0  0
 58 48  4  0  0  0  0
 59 43  4  0  0  0  0
 60 59  1  0  0  0  0
 61 63  4  0  0  0  0
 62 45  4  0  0  0  0
 63 52  4  0  0  0  0
 64 55  4  0  0  0  0
 65 64  1  0  0  0  0
 66 36  4  0  0  0  0
 67 66  1  0  0  0  0
 68 64  4  0  0  0  0
 69 68  1  0  0  0  0
 70 22  1  0  0  0  0
 71 11  8  0  0  0  0
 72 71  1  0  0  0  0
 73 11  8  0  0  0  0
 74 73  1  0  0  0  0
 75 11  8  0  0  0  0
 76 75  1  0  0  0  0
 77 11  8  0  0  0  0
 78 77  1  0  0  0  0
 79 11  8  0  0  0  0
 80 79  1  0  0  0  0
 81 86  2  0  0  0  0
 82 99  1  0  0  0  0
 83116  1  0  0  0  0
 84118  1  0  0  0  0
 85100  1  0  0  0  0
 86 11  1  0  0  0  0
 87111  1  0  0  0  0
 88110  1  0  0  0  0
 89119  1  0  0  0  0
 90131  1  0  0  0  0
 91 81  1  0  0  0  0
 92126  1  0  0  0  0
 93120  1  0  0  0  0
 94130  1  0  0  0  0
 95132  1  0  0  0  0
 96121  1  0  0  0  0
 97127  1  0  0  0  0
 98117  1  0  0  0  0
 99115  4  0  0  0  0
100115  4  0  0  0  0
101102  1  0  0  0  0
103 81  1  0  0  0  0
104111  4  0  0  0  0
105106  1  0  0  0  0
107 81  1  0  0  0  0
108103  4  0  0  0  0
109108  1  0  0  0  0
110118  4  0  0  0  0
111130  4  0  0  0  0
112101  4  0  0  0  0
113112  1  0  0  0  0
114116  4  0  0  0  0
115139  1  0  0  0  0
116120  4  0  0  0  0
117120  4  0  0  0  0
118 99  4  0  0  0  0
119104  4  0  0  0  0
121119  4  0  0  0  0
122108  4  0  0  0  0
123122  1  0  0  0  0
124107  4  0  0  0  0
125124  1  0  0  0  0
126100  4  0  0  0  0
127117  4  0  0  0  0
128112  4  0  0  0  0
129128  1  0  0  0  0
130132  4  0  0  0  0
131114  4  0  0  0  0
132121  4  0  0  0  0
133124  4  0  0  0  0
134133  1  0  0  0  0
135105  4  0  0  0  0
136135  1  0  0  0  0
137133  4  0  0  0  0
138137  1  0  0  0  0
139 91  1  0  0  0  0
  3  9  4  0  0  0  0
  3 11  8  0  0  0  0
  5  7  4  0  0  0  0
  5 11  8  0  0  0  0
  7 11  8  0  0  0  0
  9 11  8  0  0  0  0
 32 34  4  0  0  0  0
 35 70  1  0  0  0  0
 36 38  4  0  0  0  0
 41 57  4  0  0  0  0
 45 70  1  0  0  0  0
 53 59  4  0  0  0  0
 58 62  4  0  0  0  0
 66 68  4  0  0  0  0
 71 77  4  0  0  0  0
 71 79  4  0  0  0  0
 73 75  4  0  0  0  0
 73 79  4  0  0  0  0
 75 77  4  0  0  0  0
101103  4  0  0  0  0
104139  1  0  0  0  0
105107  4  0  0  0  0
110126  4  0  0  0  0
114139  1  0  0  0  0
122128  4  0  0  0  0
127131  4  0  0  0  0
135137  4  0  0  0  0
M  CHG  3  11   2  70  -1 139  -1
M  END
$$$$
OFILUL

From CSD data. Using bond type 'Any'. No disordered atoms. Largest molecule.
 87112  0  0  0  0  0  0  0  0999 V2000
   10.4929    2.3704    2.1073 Pd  0  0  0  0  0  0  0  0  0  0  0  0
   12.0341    3.6554    0.7614 S   0  0  0  0  0  0  0  0  0  0  0  0
   12.7768    2.9563   -0.3036 O   0  0  0  0  0  0  0  0  0  0  0  0
   10.2671    0.7669    0.5859 N   0  0  0  0  0  0  0  0  0  0  0  0
   12.8587    3.5052    3.0498 Pt  0  0  0  0  0  0  0  0  0  0  0  0
   11.5020    4.9673    0.3500 O   0  0  0  0  0  0  0  0  0  0  0  0
   10.9418   -0.3747    0.4676 C   0  0  0  0  0  0  0  0  0  0  0  0
   11.6762   -0.5294    1.0504 H   0  0  0  0  0  0  0  0  0  0  0  0
   10.6125   -1.3716   -0.4862 C   0  0  0  0  0  0  0  0  0  0  0  0
   11.1111   -2.1794   -0.5326 H   0  0  0  0  0  0  0  0  0  0  0  0
   10.6479    3.9945    3.6484 B   0  0  0  0  0  0  0  0  0  0  0  0
   10.3579    4.9673    3.1752 H   0  0  0  0  0  0  0  0  0  0  0  0
    9.5442   -1.1499   -1.3566 C   0  0  0  0  0  0  0  0  0  0  0  0
    9.3184   -1.7979   -2.0135 H   0  0  0  0  0  0  0  0  0  0  0  0
    9.3487    2.6538    4.0066 B   0  0  0  0  0  0  0  0  0  0  0  0
    8.2560    2.7673    3.7876 H   0  0  0  0  0  0  0  0  0  0  0  0
    8.7983    0.0516   -1.2545 C   0  0  0  0  0  0  0  0  0  0  0  0
   10.1621    1.0605    3.9156 B   0  0  0  0  0  0  0  0  0  0  0  0
    9.6118    0.1272    3.6317 H   0  0  0  0  0  0  0  0  0  0  0  0
    9.1928    0.9900   -0.2630 C   0  0  0  0  0  0  0  0  0  0  0  0
   11.9900    1.3664    3.4962 B   0  0  0  0  0  0  0  0  0  0  0  0
   12.5830    0.6136    2.9172 H   0  0  0  0  0  0  0  0  0  0  0  0
    7.6307    0.3317   -2.0766 C   0  0  0  0  0  0  0  0  0  0  0  0
    7.3583   -0.2956   -2.7372 H   0  0  0  0  0  0  0  0  0  0  0  0
   11.8842    3.9051    5.0551 B   0  0  0  0  0  0  0  0  0  0  0  0
   12.3667    4.8144    5.4967 H   0  0  0  0  0  0  0  0  0  0  0  0
    6.9226    1.4816   -1.9096 C   0  0  0  0  0  0  0  0  0  0  0  0
    6.1572    1.6397   -2.4496 H   0  0  0  0  0  0  0  0  0  0  0  0
   10.1359    3.6026    5.3167 B   0  0  0  0  0  0  0  0  0  0  0  0
    9.5335    4.3606    5.8790 H   0  0  0  0  0  0  0  0  0  0  0  0
    7.3129    2.4716   -0.9297 C   0  0  0  0  0  0  0  0  0  0  0  0
    9.8621    1.8271    5.5079 B   0  0  0  0  0  0  0  0  0  0  0  0
    9.1113    1.4077    6.2260 H   0  0  0  0  0  0  0  0  0  0  0  0
    6.6005    3.6731   -0.7219 C   0  0  0  0  0  0  0  0  0  0  0  0
    5.8238    3.8639   -1.2341 H   0  0  0  0  0  0  0  0  0  0  0  0
   11.4382    1.0244    5.1757 B   0  0  0  0  0  0  0  0  0  0  0  0
   11.7085    0.0430    5.6433 H   0  0  0  0  0  0  0  0  0  0  0  0
    7.0468    4.5754    0.2357 C   0  0  0  0  0  0  0  0  0  0  0  0
    6.5919    5.3988    0.3674 H   0  0  0  0  0  0  0  0  0  0  0  0
   12.7244    2.2774    4.9716 B   0  0  0  0  0  0  0  0  0  0  0  0
   13.7601    2.0918    5.3557 H   0  0  0  0  0  0  0  0  0  0  0  0
    8.1849    4.2540    1.0170 C   0  0  0  0  0  0  0  0  0  0  0  0
    8.4798    4.8745    1.6739 H   0  0  0  0  0  0  0  0  0  0  0  0
   11.3687    2.5541    6.1036 B   0  0  0  0  0  0  0  0  0  0  0  0
   11.5654    2.5885    7.2059 H   0  0  0  0  0  0  0  0  0  0  0  0
    8.8598    3.1083    0.8670 N   0  0  0  0  0  0  0  0  0  0  0  0
    8.4468    2.2224   -0.0980 C   0  0  0  0  0  0  0  0  0  0  0  0
   14.9406    2.5249    2.4088 P   0  0  0  0  0  0  0  0  0  0  0  0
   13.5896    5.7559    3.0611 P   0  0  0  0  0  0  0  0  0  0  0  0
   14.8404    1.1035    1.2563 C   0  0  0  0  0  0  0  0  0  0  0  0
   14.3080    1.3561    0.4714 H   0  0  0  0  0  0  0  0  0  0  0  0
   14.4151    0.3455    1.7091 H   0  0  0  0  0  0  0  0  0  0  0  0
   15.7416    0.8508    0.9706 H   0  0  0  0  0  0  0  0  0  0  0  0
   15.9403    1.8236    3.7839 C   0  0  0  0  0  0  0  0  0  0  0  0
   16.8277    1.5761    3.4498 H   0  0  0  0  0  0  0  0  0  0  0  0
   15.4933    1.0278    4.1402 H   0  0  0  0  0  0  0  0  0  0  0  0
   16.0322    2.4923    4.4946 H   0  0  0  0  0  0  0  0  0  0  0  0
   16.1250    3.6387    1.5625 C   0  0  0  0  0  0  0  0  0  0  0  0
   17.1114    4.3365    2.2844 C   0  0  0  0  0  0  0  0  0  0  0  0
   17.1841    4.2179    3.2253 H   0  0  0  0  0  0  0  0  0  0  0  0
   17.9927    5.2114    1.6201 C   0  0  0  0  0  0  0  0  0  0  0  0
   18.6512    5.6824    2.1156 H   0  0  0  0  0  0  0  0  0  0  0  0
   17.9020    5.3902    0.2357 C   0  0  0  0  0  0  0  0  0  0  0  0
   18.4981    5.9814   -0.2097 H   0  0  0  0  0  0  0  0  0  0  0  0
   16.9286    4.6940   -0.4955 C   0  0  0  0  0  0  0  0  0  0  0  0
   16.8692    4.8092   -1.4364 H   0  0  0  0  0  0  0  0  0  0  0  0
   16.0455    3.8243    0.1615 C   0  0  0  0  0  0  0  0  0  0  0  0
   15.3860    3.3568   -0.3377 H   0  0  0  0  0  0  0  0  0  0  0  0
   12.3026    6.9869    3.4981 C   0  0  0  0  0  0  0  0  0  0  0  0
   11.8911    6.7394    4.3517 H   0  0  0  0  0  0  0  0  0  0  0  0
   11.6171    7.0058    2.7985 H   0  0  0  0  0  0  0  0  0  0  0  0
   12.7126    7.8738    3.5797 H   0  0  0  0  0  0  0  0  0  0  0  0
   14.1979    6.4696    1.4790 C   0  0  0  0  0  0  0  0  0  0  0  0
   13.5603    6.2685    0.7627 H   0  0  0  0  0  0  0  0  0  0  0  0
   15.0691    6.0794    1.2601 H   0  0  0  0  0  0  0  0  0  0  0  0
   14.2888    7.4407    1.5737 H   0  0  0  0  0  0  0  0  0  0  0  0
   14.9654    6.0330    4.2589 C   0  0  0  0  0  0  0  0  0  0  0  0
   15.8183    7.1485    4.1272 C   0  0  0  0  0  0  0  0  0  0  0  0
   15.6678    7.7724    3.4257 H   0  0  0  0  0  0  0  0  0  0  0  0
   16.8782    7.3479    5.0050 C   0  0  0  0  0  0  0  0  0  0  0  0
   17.4430    8.1041    4.8955 H   0  0  0  0  0  0  0  0  0  0  0  0
   17.1198    6.4558    6.0386 C   0  0  0  0  0  0  0  0  0  0  0  0
   17.8519    6.5950    6.6269 H   0  0  0  0  0  0  0  0  0  0  0  0
   16.2876    5.3592    6.2112 C   0  0  0  0  0  0  0  0  0  0  0  0
   16.4436    4.7542    6.9257 H   0  0  0  0  0  0  0  0  0  0  0  0
   15.2135    5.1392    5.3297 C   0  0  0  0  0  0  0  0  0  0  0  0
   14.6495    4.3847    5.4541 H   0  0  0  0  0  0  0  0  0  0  0  0
  1  2  1  0  0  0  0
  2  3  2  0  0  0  0
  4  1  1  0  0  0  0
  5  1  1  0  0  0  0
  6  2  2  0  0  0  0
  7  4  4  0  0  0  0
  8  7  1  0  0  0  0
  9  7  4  0  0  0  0
 10  9  1  0  0  0  0
 11  1  1  0  0  0  0
 12 11  1  0  0  0  0
 13  9  4  0  0  0  0
 14 13  1  0  0  0  0
 15  1  1  0  0  0  0
 16 15  1  0  0  0  0
 17 13  4  0  0  0  0
 18  1  1  0  0  0  0
 19 18  1  0  0  0  0
 20  4  4  0  0  0  0
 21  1  1  0  0  0  0
 22 21  1  0  0  0  0
 23 17  4  0  0  0  0
 24 23  1  0  0  0  0
 25  5  1  0  0  0  0
 26 25  1  0  0  0  0
 27 23  4  0  0  0  0
 28 27  1  0  0  0  0
 29 11  1  0  0  0  0
 30 29  1  0  0  0  0
 31 27  4  0  0  0  0
 32 15  1  0  0  0  0
 33 32  1  0  0  0  0
 34 31  4  0  0  0  0
 35 34  1  0  0  0  0
 36 18  1  0  0  0  0
 37 36  1  0  0  0  0
 38 34  4  0  0  0  0
 39 38  1  0  0  0  0
 40  5  1  0  0  0  0
 41 40  1  0  0  0  0
 42 38  4  0  0  0  0
 43 42  1  0  0  0  0
 44 25  1  0  0  0  0
 45 44  1  0  0  0  0
 46  1  1  0  0  0  0
 47 20  4  0  0  0  0
 48  5  1  0  0  0  0
 49  5  1  0  0  0  0
 50 48  1  0  0  0  0
 51 50  1  0  0  0  0
 52 50  1  0  0  0  0
 53 50  1  0  0  0  0
 54 48  1  0  0  0  0
 55 54  1  0  0  0  0
 56 54  1  0  0  0  0
 57 54  1  0  0  0  0
 58 48  1  0  0  0  0
 59 58  4  0  0  0  0
 60 59  1  0  0  0  0
 61 59  4  0  0  0  0
 62 61  1  0  0  0  0
 63 61  4  0  0  0  0
 64 63  1  0  0  0  0
 65 63  4  0  0  0  0
 66 65  1  0  0  0  0
 67 58  4  0  0  0  0
 68 67  1  0  0  0  0
 69 49  1  0  0  0  0
 70 69  1  0  0  0  0
 71 69  1  0  0  0  0
 72 69  1  0  0  0  0
 73 49  1  0  0  0  0
 74 73  1  0  0  0  0
 75 73  1  0  0  0  0
 76 73  1  0  0  0  0
 77 49  1  0  0  0  0
 78 77  4  0  0  0  0
 79 78  1  0  0  0  0
 80 78  4  0  0  0  0
 81 80  1  0  0  0  0
 82 80  4  0  0  0  0
 83 82  1  0  0  0  0
 84 82  4  0  0  0  0
 85 84  1  0  0  0  0
 86 77  4  0  0  0  0
 87 86  1  0  0  0  0
  2  5  1  0  0  0  0
  5 11  1  0  0  0  0
  5 21  1  0  0  0  0
 11 15  1  0  0  0  0
 11 25  1  0  0  0  0
 15 18  1  0  0  0  0
 15 29  1  0  0  0  0
 17 20  4  0  0  0  0
 18 21  1  0  0  0  0
 18 32  1  0  0  0  0
 21 36  1  0  0  0  0
 21 40  1  0  0  0  0
 25 29  1  0  0  0  0
 25 40  1  0  0  0  0
 29 32  1  0  0  0  0
 29 44  1  0  0  0  0
 31 47  4  0  0  0  0
 32 36  1  0  0  0  0
 32 44  1  0  0  0  0
 36 40  1  0  0  0  0
 36 44  1  0  0  0  0
 40 44  1  0  0  0  0
 42 46  4  0  0  0  0
 46 47  4  0  0  0  0
 65 67  4  0  0  0  0
 84 86  4  0  0  0  0
M  END
$$$$
OJOPUB

From CSD data. Using bond type 'Any'. No disordered atoms. Largest molecule.
 89 95  0  0  0  0  0  0  0  0999 V2000
   -1.8067    3.8728    5.5622 Ni  0  0  0  0  0  0  0  0  0  0  0  0
   -0.6023    4.6596    7.1537 B   0  0  0  0  0  0  0  0  0  0  0  0
   -0.7513    4.3331    8.5886 O   0  0  0  0  0  0  0  0  0  0  0  0
    0.5151    5.6667    7.1269 O   0  0  0  0  0  0  0  0  0  0  0  0
    0.0867    5.1317    9.2508 C   0  0  0  0  0  0  0  0  0  0  0  0
    0.2644    5.2130   10.6155 C   0  0  0  0  0  0  0  0  0  0  0  0
   -0.2310    4.6647   11.2116 H   0  0  0  0  0  0  0  0  0  0  0  0
    1.2044    6.1341   11.0856 C   0  0  0  0  0  0  0  0  0  0  0  0
    1.3532    6.2156   12.0200 H   0  0  0  0  0  0  0  0  0  0  0  0
    1.9035    6.9113   10.2313 C   0  0  0  0  0  0  0  0  0  0  0  0
    2.5302    7.5303   10.5862 H   0  0  0  0  0  0  0  0  0  0  0  0
    1.7411    6.8377    8.8365 C   0  0  0  0  0  0  0  0  0  0  0  0
    2.2394    7.3886    8.2442 H   0  0  0  0  0  0  0  0  0  0  0  0
    0.8234    5.9272    8.3809 C   0  0  0  0  0  0  0  0  0  0  0  0
   -2.8655    3.0993    4.0961 B   0  0  0  0  0  0  0  0  0  0  0  0
   -3.9188    2.1781    4.2435 N   0  0  0  0  0  0  0  0  0  0  0  0
   -2.6285    3.2847    2.6991 N   0  0  0  0  0  0  0  0  0  0  0  0
   -4.3905    1.8347    2.9202 C   0  0  0  0  0  0  0  0  0  0  0  0
   -5.3582    0.9350    2.4925 C   0  0  0  0  0  0  0  0  0  0  0  0
   -5.8828    0.4498    3.1183 H   0  0  0  0  0  0  0  0  0  0  0  0
   -5.5370    0.7649    1.1312 C   0  0  0  0  0  0  0  0  0  0  0  0
   -6.1953    0.1564    0.8164 H   0  0  0  0  0  0  0  0  0  0  0  0
   -4.7622    1.4761    0.2155 C   0  0  0  0  0  0  0  0  0  0  0  0
   -4.9108    1.3451   -0.7137 H   0  0  0  0  0  0  0  0  0  0  0  0
   -3.7698    2.3773    0.6242 C   0  0  0  0  0  0  0  0  0  0  0  0
   -3.2401    2.8555   -0.0025 H   0  0  0  0  0  0  0  0  0  0  0  0
   -3.6017    2.5337    1.9810 C   0  0  0  0  0  0  0  0  0  0  0  0
   -0.7507    4.7369    3.7602 P   0  0  0  0  0  0  0  0  0  0  0  0
   -1.5687    4.0756    2.2010 C   0  0  0  0  0  0  0  0  0  0  0  0
   -1.9097    4.8143    1.6366 H   0  0  0  0  0  0  0  0  0  0  0  0
   -0.9352    3.5299    1.6701 H   0  0  0  0  0  0  0  0  0  0  0  0
    0.9910    4.1584    3.4797 C   0  0  0  0  0  0  0  0  0  0  0  0
    0.9514    2.6563    3.6941 C   0  0  0  0  0  0  0  0  0  0  0  0
    0.2956    2.2563    3.0859 H   0  0  0  0  0  0  0  0  0  0  0  0
    0.6959    2.4657    4.6211 H   0  0  0  0  0  0  0  0  0  0  0  0
    1.8372    2.2775    3.5152 H   0  0  0  0  0  0  0  0  0  0  0  0
    1.5894    4.4082    2.0804 C   0  0  0  0  0  0  0  0  0  0  0  0
    2.4767    3.9953    2.0265 H   0  0  0  0  0  0  0  0  0  0  0  0
    1.6673    5.3722    1.9249 H   0  0  0  0  0  0  0  0  0  0  0  0
    1.0043    4.0136    1.3998 H   0  0  0  0  0  0  0  0  0  0  0  0
    1.9992    4.7822    4.4892 C   0  0  0  0  0  0  0  0  0  0  0  0
    1.7011    4.5976    5.4042 H   0  0  0  0  0  0  0  0  0  0  0  0
    2.0460    5.7504    4.3491 H   0  0  0  0  0  0  0  0  0  0  0  0
    2.8862    4.3883    4.3493 H   0  0  0  0  0  0  0  0  0  0  0  0
   -0.9935    6.5970    3.5377 C   0  0  0  0  0  0  0  0  0  0  0  0
   -0.4174    7.1029    2.2133 C   0  0  0  0  0  0  0  0  0  0  0  0
   -0.7255    6.5283    1.4821 H   0  0  0  0  0  0  0  0  0  0  0  0
    0.5616    7.0835    2.2541 H   0  0  0  0  0  0  0  0  0  0  0  0
   -0.7193    8.0222    2.0560 H   0  0  0  0  0  0  0  0  0  0  0  0
   -2.4946    6.8116    3.5958 C   0  0  0  0  0  0  0  0  0  0  0  0
   -2.6993    7.7460    3.3845 H   0  0  0  0  0  0  0  0  0  0  0  0
   -2.8200    6.6010    4.4960 H   0  0  0  0  0  0  0  0  0  0  0  0
   -2.9336    6.2252    2.9446 H   0  0  0  0  0  0  0  0  0  0  0  0
   -0.3406    7.3711    4.6947 C   0  0  0  0  0  0  0  0  0  0  0  0
    0.6249    7.2012    4.6984 H   0  0  0  0  0  0  0  0  0  0  0  0
   -0.7272    7.0763    5.5454 H   0  0  0  0  0  0  0  0  0  0  0  0
   -0.5021    8.3310    4.5779 H   0  0  0  0  0  0  0  0  0  0  0  0
   -3.2770    2.6377    6.7095 P   0  0  0  0  0  0  0  0  0  0  0  0
   -4.5066    1.9006    5.4864 C   0  0  0  0  0  0  0  0  0  0  0  0
   -4.6077    0.9254    5.6241 H   0  0  0  0  0  0  0  0  0  0  0  0
   -5.3940    2.3327    5.5668 H   0  0  0  0  0  0  0  0  0  0  0  0
   -2.5790    1.1051    7.5155 C   0  0  0  0  0  0  0  0  0  0  0  0
   -2.0174    0.2422    6.3507 C   0  0  0  0  0  0  0  0  0  0  0  0
   -1.6237   -0.5788    6.7126 H   0  0  0  0  0  0  0  0  0  0  0  0
   -1.3304    0.7496    5.8697 H   0  0  0  0  0  0  0  0  0  0  0  0
   -2.7443    0.0123    5.7348 H   0  0  0  0  0  0  0  0  0  0  0  0
   -3.6422    0.2805    8.2480 C   0  0  0  0  0  0  0  0  0  0  0  0
   -3.2613   -0.5836    8.5119 H   0  0  0  0  0  0  0  0  0  0  0  0
   -4.4074    0.1315    7.6539 H   0  0  0  0  0  0  0  0  0  0  0  0
   -3.9387    0.7637    9.0474 H   0  0  0  0  0  0  0  0  0  0  0  0
   -1.4184    1.3948    8.4557 C   0  0  0  0  0  0  0  0  0  0  0  0
   -1.7218    1.9837    9.1780 H   0  0  0  0  0  0  0  0  0  0  0  0
   -0.6970    1.8346    7.9579 H   0  0  0  0  0  0  0  0  0  0  0  0
   -1.0880    0.5547    8.8355 H   0  0  0  0  0  0  0  0  0  0  0  0
   -4.5081    3.5606    7.8248 C   0  0  0  0  0  0  0  0  0  0  0  0
   -4.7591    4.9263    7.1927 C   0  0  0  0  0  0  0  0  0  0  0  0
   -4.9536    4.8146    6.2392 H   0  0  0  0  0  0  0  0  0  0  0  0
   -3.9633    5.4876    7.3009 H   0  0  0  0  0  0  0  0  0  0  0  0
   -5.5229    5.3547    7.6339 H   0  0  0  0  0  0  0  0  0  0  0  0
   -5.7853    2.8739    8.1587 C   0  0  0  0  0  0  0  0  0  0  0  0
   -6.3997    3.5125    8.5773 H   0  0  0  0  0  0  0  0  0  0  0  0
   -5.6075    2.1367    8.7796 H   0  0  0  0  0  0  0  0  0  0  0  0
   -6.1902    2.5203    7.3393 H   0  0  0  0  0  0  0  0  0  0  0  0
   -3.8009    3.9208    9.2017 C   0  0  0  0  0  0  0  0  0  0  0  0
   -4.3594    4.5521    9.7004 H   0  0  0  0  0  0  0  0  0  0  0  0
   -2.9271    4.3278    9.0227 H   0  0  0  0  0  0  0  0  0  0  0  0
   -3.6784    3.1042    9.7294 H   0  0  0  0  0  0  0  0  0  0  0  0
   -0.3653    3.6786    6.5328 H   0  0  0  0  0  0  0  0  0  0  0  0
   -1.6767    5.0735    6.6221 H   0  0  0  0  0  0  0  0  0  0  0  0
  1 15  1  0  0  0  0
  2  3  1  0  0  0  0
  3  5  1  0  0  0  0
  4  2  1  0  0  0  0
  5  6  4  0  0  0  0
  6  7  1  0  0  0  0
  8  6  4  0  0  0  0
  9  8  1  0  0  0  0
 10  8  4  0  0  0  0
 11 10  1  0  0  0  0
 12 10  4  0  0  0  0
 13 12  1  0  0  0  0
 14  4  1  0  0  0  0
 15 16  1  0  0  0  0
 16 18  1  0  0  0  0
 17 15  1  0  0  0  0
 18 19  4  0  0  0  0
 19 20  1  0  0  0  0
 21 19  4  0  0  0  0
 22 21  1  0  0  0  0
 23 21  4  0  0  0  0
 24 23  1  0  0  0  0
 25 23  4  0  0  0  0
 26 25  1  0  0  0  0
 27 17  1  0  0  0  0
 28  1  1  0  0  0  0
 29 17  1  0  0  0  0
 30 29  1  0  0  0  0
 31 29  1  0  0  0  0
 32 28  1  0  0  0  0
 33 32  1  0  0  0  0
 34 33  1  0  0  0  0
 35 33  1  0  0  0  0
 36 33  1  0  0  0  0
 37 32  1  0  0  0  0
 38 37  1  0  0  0  0
 39 37  1  0  0  0  0
 40 37  1  0  0  0  0
 41 32  1  0  0  0  0
 42 41  1  0  0  0  0
 43 41  1  0  0  0  0
 44 41  1  0  0  0  0
 45 28  1  0  0  0  0
 46 45  1  0  0  0  0
 47 46  1  0  0  0  0
 48 46  1  0  0  0  0
 49 46  1  0  0  0  0
 50 45  1  0  0  0  0
 51 50  1  0  0  0  0
 52 50  1  0  0  0  0
 53 50  1  0  0  0  0
 54 45  1  0  0  0  0
 55 54  1  0  0  0  0
 56 54  1  0  0  0  0
 57 54  1  0  0  0  0
 58  1  1  0  0  0  0
 59 16  1  0  0  0  0
 60 59  1  0  0  0  0
 61 59  1  0  0  0  0
 62 58  1  0  0  0  0
 63 62  1  0  0  0  0
 64 63  1  0  0  0  0
 65 63  1  0  0  0  0
 66 63  1  0  0  0  0
 67 62  1  0  0  0  0
 68 67  1  0  0  0  0
 69 67  1  0  0  0  0
 70 67  1  0  0  0  0
 71 62  1  0  0  0  0
 72 71  1  0  0  0  0
 73 71  1  0  0  0  0
 74 71  1  0  0  0  0
 75 58  1  0  0  0  0
 76 75  1  0  0  0  0
 77 76  1  0  0  0  0
 78 76  1  0  0  0  0
 79 76  1  0  0  0  0
 80 75  1  0  0  0  0
 81 80  1  0  0  0  0
 82 80  1  0  0  0  0
 83 80  1  0  0  0  0
 84 75  1  0  0  0  0
 85 84  1  0  0  0  0
 86 84  1  0  0  0  0
 87 84  1  0  0  0  0
 88  1  1  0  0  0  0
 89  1  1  0  0  0  0
  2 88  1  0  0  0  0
  2 89  1  0  0  0  0
  5 14  4  0  0  0  0
 12 14  4  0  0  0  0
 18 27  4  0  0  0  0
 25 27  4  0  0  0  0
 28 29  1  0  0  0  0
 58 59  1  0  0  0  0
M  END
$$$$
OJOQIQ

From CSD data. Using bond type 'Any'. No disordered atoms. Largest molecule.
 87 92  0  0  0  0  0  0  0  0999 V2000
    5.9679    3.0629    9.4854 Ni  0  0  0  0  0  0  0  0  0  0  0  0
    6.1323    4.6589    8.0326 P   0  0  0  0  0  0  0  0  0  0  0  0
    5.0271    1.4714   10.6253 P   0  0  0  0  0  0  0  0  0  0  0  0
    8.9335    2.2058    9.6405 O   0  0  0  0  0  0  0  0  0  0  0  0
    8.4021    3.8373   11.1409 O   0  0  0  0  0  0  0  0  0  0  0  0
    3.5598    4.3735    8.1946 N   0  0  0  0  0  0  0  0  0  0  0  0
    2.9870    2.4920    9.3216 N   0  0  0  0  0  0  0  0  0  0  0  0
    3.1716    1.4001   10.2393 C   0  0  0  0  0  0  0  0  0  0  0  0
    2.9269    0.5368    9.8210 H   0  0  0  0  0  0  0  0  0  0  0  0
    2.6313    1.5273   11.0590 H   0  0  0  0  0  0  0  0  0  0  0  0
    4.4373    5.4179    7.7094 C   0  0  0  0  0  0  0  0  0  0  0  0
    4.3141    6.2596    8.2158 H   0  0  0  0  0  0  0  0  0  0  0  0
    4.2956    5.5920    6.7452 H   0  0  0  0  0  0  0  0  0  0  0  0
    2.1751    4.2564    8.1393 C   0  0  0  0  0  0  0  0  0  0  0  0
    1.2089    5.0642    7.5647 C   0  0  0  0  0  0  0  0  0  0  0  0
    1.4485    5.8531    7.0933 H   0  0  0  0  0  0  0  0  0  0  0  0
    8.6491    5.8946    8.3753 C   0  0  0  0  0  0  0  0  0  0  0  0
    8.8435    5.0599    8.8502 H   0  0  0  0  0  0  0  0  0  0  0  0
    9.1485    6.6297    8.7890 H   0  0  0  0  0  0  0  0  0  0  0  0
    8.9159    5.8064    7.4365 H   0  0  0  0  0  0  0  0  0  0  0  0
    7.1460    6.1900    8.4544 C   0  0  0  0  0  0  0  0  0  0  0  0
    6.8805    5.0210    5.2757 C   0  0  0  0  0  0  0  0  0  0  0  0
    6.1282    5.6473    5.2311 H   0  0  0  0  0  0  0  0  0  0  0  0
    6.9960    4.5866    4.4047 H   0  0  0  0  0  0  0  0  0  0  0  0
    7.6981    5.5082    5.5086 H   0  0  0  0  0  0  0  0  0  0  0  0
   -0.1240    4.6859    7.6981 C   0  0  0  0  0  0  0  0  0  0  0  0
   -0.8037    5.2335    7.3231 H   0  0  0  0  0  0  0  0  0  0  0  0
    5.5753   -0.2595   10.1459 C   0  0  0  0  0  0  0  0  0  0  0  0
    6.8279    7.4282    7.5918 C   0  0  0  0  0  0  0  0  0  0  0  0
    7.0951    7.2570    6.6643 H   0  0  0  0  0  0  0  0  0  0  0  0
    7.3203    8.2015    7.9364 H   0  0  0  0  0  0  0  0  0  0  0  0
    5.8657    7.6110    7.6259 H   0  0  0  0  0  0  0  0  0  0  0  0
    6.7782    6.5012    9.9204 C   0  0  0  0  0  0  0  0  0  0  0  0
    5.8126    6.6541    9.9895 H   0  0  0  0  0  0  0  0  0  0  0  0
    7.2576    7.3043   10.2140 H   0  0  0  0  0  0  0  0  0  0  0  0
    7.0307    5.7441   10.4886 H   0  0  0  0  0  0  0  0  0  0  0  0
    1.8131    3.0710    8.8383 C   0  0  0  0  0  0  0  0  0  0  0  0
    5.4333    3.0762    5.8548 C   0  0  0  0  0  0  0  0  0  0  0  0
    5.2573    2.3706    6.5115 H   0  0  0  0  0  0  0  0  0  0  0  0
    5.6703    2.6706    4.9948 H   0  0  0  0  0  0  0  0  0  0  0  0
    4.6307    3.6281    5.7454 H   0  0  0  0  0  0  0  0  0  0  0  0
    4.0959    0.8622   13.2861 C   0  0  0  0  0  0  0  0  0  0  0  0
    3.1859    0.9251   12.9281 H   0  0  0  0  0  0  0  0  0  0  0  0
    4.0979    1.1434   14.2249 H   0  0  0  0  0  0  0  0  0  0  0  0
    4.4083   -0.0648   13.2224 H   0  0  0  0  0  0  0  0  0  0  0  0
    0.4847    2.6957    8.9468 C   0  0  0  0  0  0  0  0  0  0  0  0
    0.2358    1.8992    9.4006 H   0  0  0  0  0  0  0  0  0  0  0  0
   -0.4778    3.5261    8.3676 C   0  0  0  0  0  0  0  0  0  0  0  0
   -1.3957    3.2900    8.4342 H   0  0  0  0  0  0  0  0  0  0  0  0
    4.7137   -1.3859   10.6924 C   0  0  0  0  0  0  0  0  0  0  0  0
    4.7636   -1.3902   11.6711 H   0  0  0  0  0  0  0  0  0  0  0  0
    5.0381   -2.2432   10.3452 H   0  0  0  0  0  0  0  0  0  0  0  0
    3.7842   -1.2512   10.4132 H   0  0  0  0  0  0  0  0  0  0  0  0
    7.8234    3.0467    6.5169 C   0  0  0  0  0  0  0  0  0  0  0  0
    8.5755    3.5749    6.8581 H   0  0  0  0  0  0  0  0  0  0  0  0
    8.0646    2.6569    5.6510 H   0  0  0  0  0  0  0  0  0  0  0  0
    7.6131    2.3303    7.1511 H   0  0  0  0  0  0  0  0  0  0  0  0
    6.5969    3.9555    6.3454 C   0  0  0  0  0  0  0  0  0  0  0  0
    5.0262    1.7710   12.4788 C   0  0  0  0  0  0  0  0  0  0  0  0
    9.7568    3.5874   11.2124 C   0  0  0  0  0  0  0  0  0  0  0  0
   10.7142    4.2088   12.0012 C   0  0  0  0  0  0  0  0  0  0  0  0
   10.4928    4.8999   12.6147 H   0  0  0  0  0  0  0  0  0  0  0  0
    4.1150    3.2921    8.9491 B   0  0  0  0  0  0  0  0  0  0  0  0
   10.0835    2.5969   10.3186 C   0  0  0  0  0  0  0  0  0  0  0  0
   12.0259    3.7533   11.8351 C   0  0  0  0  0  0  0  0  0  0  0  0
   12.7196    4.1554   12.3448 H   0  0  0  0  0  0  0  0  0  0  0  0
    7.8819    2.9751   10.1173 B   0  0  0  0  0  0  0  0  0  0  0  0
    7.0150   -0.5237   10.5437 C   0  0  0  0  0  0  0  0  0  0  0  0
    7.5862    0.1938   10.1972 H   0  0  0  0  0  0  0  0  0  0  0  0
    7.3051   -1.3814   10.1699 H   0  0  0  0  0  0  0  0  0  0  0  0
    7.0839   -0.5524   11.5208 H   0  0  0  0  0  0  0  0  0  0  0  0
   11.3805    2.1379   10.1699 C   0  0  0  0  0  0  0  0  0  0  0  0
   11.5985    1.4431    9.5592 H   0  0  0  0  0  0  0  0  0  0  0  0
   12.3448    2.7445   10.9598 C   0  0  0  0  0  0  0  0  0  0  0  0
   13.2475    2.4555   10.8940 H   0  0  0  0  0  0  0  0  0  0  0  0
    4.5722    3.2182   12.6146 C   0  0  0  0  0  0  0  0  0  0  0  0
    5.2227    3.8073   12.1781 H   0  0  0  0  0  0  0  0  0  0  0  0
    4.5054    3.4524   13.5640 H   0  0  0  0  0  0  0  0  0  0  0  0
    3.6960    3.3274   12.1890 H   0  0  0  0  0  0  0  0  0  0  0  0
    5.5019   -0.2476    8.6169 C   0  0  0  0  0  0  0  0  0  0  0  0
    4.5922   -0.0109    8.3361 H   0  0  0  0  0  0  0  0  0  0  0  0
    5.7285   -1.1359    8.2718 H   0  0  0  0  0  0  0  0  0  0  0  0
    6.1339    0.4122    8.2643 H   0  0  0  0  0  0  0  0  0  0  0  0
    6.4251    1.6108   13.0662 C   0  0  0  0  0  0  0  0  0  0  0  0
    6.7001    0.6722   13.0040 H   0  0  0  0  0  0  0  0  0  0  0  0
    6.4184    1.8878   14.0061 H   0  0  0  0  0  0  0  0  0  0  0  0
    7.0554    2.1697   12.5653 H   0  0  0  0  0  0  0  0  0  0  0  0
  1  2  1  0  0  0  0
  2 11  1  0  0  0  0
  3  1  1  0  0  0  0
  4 64  1  0  0  0  0
  5 60  1  0  0  0  0
  6 11  1  0  0  0  0
  7  8  1  0  0  0  0
  8  3  1  0  0  0  0
  9  8  1  0  0  0  0
 10  8  1  0  0  0  0
 11 12  1  0  0  0  0
 13 11  1  0  0  0  0
 14  6  1  0  0  0  0
 15 14  4  0  0  0  0
 16 15  1  0  0  0  0
 17 18  1  0  0  0  0
 19 17  1  0  0  0  0
 20 17  1  0  0  0  0
 21  2  1  0  0  0  0
 22 23  1  0  0  0  0
 24 22  1  0  0  0  0
 25 22  1  0  0  0  0
 26 15  4  0  0  0  0
 27 26  1  0  0  0  0
 28  3  1  0  0  0  0
 29 21  1  0  0  0  0
 30 29  1  0  0  0  0
 31 29  1  0  0  0  0
 32 29  1  0  0  0  0
 33 21  1  0  0  0  0
 34 33  1  0  0  0  0
 35 33  1  0  0  0  0
 36 33  1  0  0  0  0
 37  7  1  0  0  0  0
 38 39  1  0  0  0  0
 40 38  1  0  0  0  0
 41 38  1  0  0  0  0
 42 43  1  0  0  0  0
 44 42  1  0  0  0  0
 45 42  1  0  0  0  0
 46 37  4  0  0  0  0
 47 46  1  0  0  0  0
 48 26  4  0  0  0  0
 49 48  1  0  0  0  0
 50 28  1  0  0  0  0
 51 50  1  0  0  0  0
 52 50  1  0  0  0  0
 53 50  1  0  0  0  0
 54 55  1  0  0  0  0
 56 54  1  0  0  0  0
 57 54  1  0  0  0  0
 58  2  1  0  0  0  0
 59  3  1  0  0  0  0
 60 61  4  0  0  0  0
 61 62  1  0  0  0  0
 63  1  1  0  0  0  0
 64 60  4  0  0  0  0
 65 61  4  0  0  0  0
 66 65  1  0  0  0  0
 67  1  1  0  0  0  0
 68 28  1  0  0  0  0
 69 68  1  0  0  0  0
 70 68  1  0  0  0  0
 71 68  1  0  0  0  0
 72 64  4  0  0  0  0
 73 72  1  0  0  0  0
 74 65  4  0  0  0  0
 75 74  1  0  0  0  0
 76 59  1  0  0  0  0
 77 76  1  0  0  0  0
 78 76  1  0  0  0  0
 79 76  1  0  0  0  0
 80 28  1  0  0  0  0
 81 80  1  0  0  0  0
 82 80  1  0  0  0  0
 83 80  1  0  0  0  0
 84 59  1  0  0  0  0
 85 84  1  0  0  0  0
 86 84  1  0  0  0  0
 87 84  1  0  0  0  0
  4 67  1  0  0  0  0
  5 67  1  0  0  0  0
  6 63  1  0  0  0  0
  7 63  1  0  0  0  0
 14 37  4  0  0  0  0
 17 21  1  0  0  0  0
 22 58  1  0  0  0  0
 38 58  1  0  0  0  0
 42 59  1  0  0  0  0
 46 48  4  0  0  0  0
 54 58  1  0  0  0  0
 72 74  4  0  0  0  0
M  END
$$$$
OJUMUC

From CSD data. Using bond type 'Any'. No disordered atoms. Largest molecule.
116136  0  0  0  0  0  0  0  0999 V2000
    8.7268    1.0500    2.3478 Ir  0  0  0  0  0  0  0  0  0  0  0  0
    8.4043    6.7046    4.1383 P   0  0  0  0  0  0  0  0  0  0  0  0
   13.1638    5.2681    3.6264 C   0  0  0  0  0  0  0  0  0  0  0  0
   13.8396    4.8130    2.8592 H   0  0  0  0  0  0  0  0  0  0  0  0
    8.7124    1.8964    0.1725 P   0  0  0  0  0  0  0  0  0  0  0  0
    9.3074    2.8565    3.1339 N   0  0  0  0  0  0  0  0  0  0  0  0
    9.6121    3.8264    3.6882 C   0  0  0  0  0  0  0  0  0  0  0  0
   12.1383    4.4042    4.5318 B   0  0  0  0  0  0  0  0  0  0  0  0
   12.0812    3.2868    4.4749 H   0  0  0  0  0  0  0  0  0  0  0  0
    8.4433    0.3154    4.5416 P   0  0  0  0  0  0  0  0  0  0  0  0
    7.7919   -1.5624    1.2354 O   0  0  0  0  0  0  0  0  0  0  0  0
    9.2264    4.8673    6.1784 C   0  0  0  0  0  0  0  0  0  0  0  0
   13.4711    5.4658    5.2031 B   0  0  0  0  0  0  0  0  0  0  0  0
   14.4506    5.1761    5.6648 H   0  0  0  0  0  0  0  0  0  0  0  0
    6.8065    5.8247    4.1287 C   0  0  0  0  0  0  0  0  0  0  0  0
    6.8969    5.0160    3.5647 H   0  0  0  0  0  0  0  0  0  0  0  0
    6.6093    5.5229    5.0503 H   0  0  0  0  0  0  0  0  0  0  0  0
   13.0831    6.8146    4.0474 B   0  0  0  0  0  0  0  0  0  0  0  0
   13.7593    7.5880    3.6004 H   0  0  0  0  0  0  0  0  0  0  0  0
    5.6163    6.6377    3.6215 C   0  0  0  0  0  0  0  0  0  0  0  0
    5.5066    7.4359    4.1775 H   0  0  0  0  0  0  0  0  0  0  0  0
    4.8049    6.0919    3.6671 H   0  0  0  0  0  0  0  0  0  0  0  0
    5.7769    6.9065    2.6918 H   0  0  0  0  0  0  0  0  0  0  0  0
   11.7340    5.8848    3.2867 B   0  0  0  0  0  0  0  0  0  0  0  0
   11.3531    5.9241    2.2350 H   0  0  0  0  0  0  0  0  0  0  0  0
   10.1504    5.3965    4.7288 Fe  0  0  0  0  0  0  0  0  0  0  0  0
    8.0745    8.1908    5.1495 C   0  0  0  0  0  0  0  0  0  0  0  0
    8.9156    8.7031    5.2454 H   0  0  0  0  0  0  0  0  0  0  0  0
    7.4266    8.7640    4.6700 H   0  0  0  0  0  0  0  0  0  0  0  0
    7.5191    7.8871    6.5555 C   0  0  0  0  0  0  0  0  0  0  0  0
    6.6115    7.5264    6.4775 H   0  0  0  0  0  0  0  0  0  0  0  0
    7.4978    8.7139    7.0822 H   0  0  0  0  0  0  0  0  0  0  0  0
    8.0950    7.2310    6.9993 H   0  0  0  0  0  0  0  0  0  0  0  0
   11.9200    5.2371    6.0971 B   0  0  0  0  0  0  0  0  0  0  0  0
   11.9089    4.6109    7.0269 H   0  0  0  0  0  0  0  0  0  0  0  0
    8.5288    7.3662    2.4187 C   0  0  0  0  0  0  0  0  0  0  0  0
    7.8588    8.0853    2.3017 H   0  0  0  0  0  0  0  0  0  0  0  0
    9.4257    7.7648    2.2919 H   0  0  0  0  0  0  0  0  0  0  0  0
   12.6096    6.9124    5.7655 B   0  0  0  0  0  0  0  0  0  0  0  0
   13.1342    7.6264    6.4499 H   0  0  0  0  0  0  0  0  0  0  0  0
    8.3052    6.3025    1.3508 C   0  0  0  0  0  0  0  0  0  0  0  0
    9.0355    5.6509    1.3800 H   0  0  0  0  0  0  0  0  0  0  0  0
    8.2811    6.7268    0.4681 H   0  0  0  0  0  0  0  0  0  0  0  0
    7.4534    5.8470    1.5166 H   0  0  0  0  0  0  0  0  0  0  0  0
   11.3745    7.2082    4.4245 B   0  0  0  0  0  0  0  0  0  0  0  0
   10.9359    8.1577    4.0198 H   0  0  0  0  0  0  0  0  0  0  0  0
    8.1758   -0.5650    1.6807 C   0  0  0  0  0  0  0  0  0  0  0  0
   10.9544    6.7224    6.0484 B   0  0  0  0  0  0  0  0  0  0  0  0
   10.3309    7.2225    6.8318 H   0  0  0  0  0  0  0  0  0  0  0  0
    8.6428    4.5189    7.0968 O   0  0  0  0  0  0  0  0  0  0  0  0
   10.1701    2.7479   -0.5283 C   0  0  0  0  0  0  0  0  0  0  0  0
   10.9709    3.5457    0.2812 C   0  0  0  0  0  0  0  0  0  0  0  0
   10.7484    3.6550    1.1996 H   0  0  0  0  0  0  0  0  0  0  0  0
   12.0932    4.1844   -0.2341 C   0  0  0  0  0  0  0  0  0  0  0  0
   12.6277    4.7325    0.3283 H   0  0  0  0  0  0  0  0  0  0  0  0
   12.4353    4.0218   -1.5702 C   0  0  0  0  0  0  0  0  0  0  0  0
   13.2165    4.4372   -1.9148 H   0  0  0  0  0  0  0  0  0  0  0  0
   11.6406    3.2566   -2.3927 C   0  0  0  0  0  0  0  0  0  0  0  0
   11.8634    3.1629   -3.3111 H   0  0  0  0  0  0  0  0  0  0  0  0
   10.5192    2.6209   -1.8872 C   0  0  0  0  0  0  0  0  0  0  0  0
    9.9782    2.0941   -2.4626 H   0  0  0  0  0  0  0  0  0  0  0  0
    8.3781    0.6118   -1.0777 C   0  0  0  0  0  0  0  0  0  0  0  0
    9.3796   -0.3465   -1.3166 C   0  0  0  0  0  0  0  0  0  0  0  0
   10.1957   -0.2996   -0.8339 H   0  0  0  0  0  0  0  0  0  0  0  0
    9.1896   -1.3611   -2.2480 C   0  0  0  0  0  0  0  0  0  0  0  0
    9.8742   -2.0019   -2.4041 H   0  0  0  0  0  0  0  0  0  0  0  0
    7.9923   -1.4321   -2.9454 C   0  0  0  0  0  0  0  0  0  0  0  0
    7.8569   -2.1184   -3.5874 H   0  0  0  0  0  0  0  0  0  0  0  0
    6.9982   -0.5063   -2.7097 C   0  0  0  0  0  0  0  0  0  0  0  0
    6.1765   -0.5674   -3.1827 H   0  0  0  0  0  0  0  0  0  0  0  0
    7.1871    0.5210   -1.7783 C   0  0  0  0  0  0  0  0  0  0  0  0
    6.4981    1.1583   -1.6271 H   0  0  0  0  0  0  0  0  0  0  0  0
    7.3288    3.0778   -0.0244 C   0  0  0  0  0  0  0  0  0  0  0  0
    6.2371    2.9675    0.8257 C   0  0  0  0  0  0  0  0  0  0  0  0
    6.2422    2.3230    1.5247 H   0  0  0  0  0  0  0  0  0  0  0  0
    5.1319    3.8024    0.6551 C   0  0  0  0  0  0  0  0  0  0  0  0
    4.3838    3.7217    1.2337 H   0  0  0  0  0  0  0  0  0  0  0  0
    5.1222    4.7467   -0.3511 C   0  0  0  0  0  0  0  0  0  0  0  0
    4.3737    5.3236   -0.4535 H   0  0  0  0  0  0  0  0  0  0  0  0
    6.2005    4.8514   -1.2077 C   0  0  0  0  0  0  0  0  0  0  0  0
    6.1886    5.4951   -1.9051 H   0  0  0  0  0  0  0  0  0  0  0  0
    7.3019    4.0174   -1.0517 C   0  0  0  0  0  0  0  0  0  0  0  0
    8.0380    4.0898   -1.6466 H   0  0  0  0  0  0  0  0  0  0  0  0
    8.2302   -1.4704    4.8748 C   0  0  0  0  0  0  0  0  0  0  0  0
    7.1920   -2.1716    4.2474 C   0  0  0  0  0  0  0  0  0  0  0  0
    6.6341   -1.7189    3.6264 H   0  0  0  0  0  0  0  0  0  0  0  0
    6.9651   -3.5120    4.5123 C   0  0  0  0  0  0  0  0  0  0  0  0
    6.2558   -3.9706    4.0783 H   0  0  0  0  0  0  0  0  0  0  0  0
    7.7741   -4.1824    5.4144 C   0  0  0  0  0  0  0  0  0  0  0  0
    7.6255   -5.1029    5.5965 H   0  0  0  0  0  0  0  0  0  0  0  0
    8.8011   -3.5059    6.0500 C   0  0  0  0  0  0  0  0  0  0  0  0
    9.3515   -3.9630    6.6742 H   0  0  0  0  0  0  0  0  0  0  0  0
    9.0373   -2.1535    5.7802 C   0  0  0  0  0  0  0  0  0  0  0  0
    9.7500   -1.7012    6.2158 H   0  0  0  0  0  0  0  0  0  0  0  0
    6.9223    1.0158    5.2763 C   0  0  0  0  0  0  0  0  0  0  0  0
    6.1342    0.3218    6.2028 C   0  0  0  0  0  0  0  0  0  0  0  0
    6.4072   -0.5359    6.5068 H   0  0  0  0  0  0  0  0  0  0  0  0
    4.9546    0.8809    6.6807 C   0  0  0  0  0  0  0  0  0  0  0  0
    4.4203    0.3950    7.2967 H   0  0  0  0  0  0  0  0  0  0  0  0
    4.5521    2.1313    6.2694 C   0  0  0  0  0  0  0  0  0  0  0  0
    3.7502    2.5120    6.6092 H   0  0  0  0  0  0  0  0  0  0  0  0
    5.3273    2.8307    5.3559 C   0  0  0  0  0  0  0  0  0  0  0  0
    5.0550    3.6940    5.0682 H   0  0  0  0  0  0  0  0  0  0  0  0
    6.4978    2.2775    4.8618 C   0  0  0  0  0  0  0  0  0  0  0  0
    7.0168    2.7636    4.2327 H   0  0  0  0  0  0  0  0  0  0  0  0
    9.8066    0.7738    5.6436 C   0  0  0  0  0  0  0  0  0  0  0  0
    9.6030    1.3230    6.9115 C   0  0  0  0  0  0  0  0  0  0  0  0
    8.7247    1.5347    7.2057 H   0  0  0  0  0  0  0  0  0  0  0  0
   10.6970    1.5583    7.7437 C   0  0  0  0  0  0  0  0  0  0  0  0
   10.5645    1.9445    8.6020 H   0  0  0  0  0  0  0  0  0  0  0  0
   11.9677    1.2351    7.3260 C   0  0  0  0  0  0  0  0  0  0  0  0
   12.7049    1.3868    7.9063 H   0  0  0  0  0  0  0  0  0  0  0  0
   12.1856    0.6929    6.0679 C   0  0  0  0  0  0  0  0  0  0  0  0
   13.0656    0.4718    5.7883 H   0  0  0  0  0  0  0  0  0  0  0  0
   11.1087    0.4754    5.2210 C   0  0  0  0  0  0  0  0  0  0  0  0
   11.2542    0.1240    4.3514 H   0  0  0  0  0  0  0  0  0  0  0  0
  1  5  1  0  0  0  0
  2 15  1  0  0  0  0
  3  4  1  0  0  0  0
  5 51  1  0  0  0  0
  6  1  1  0  0  0  0
  7  6  3  0  0  0  0
  8  3  1  0  0  0  0
  9  8  1  0  0  0  0
 10  1  1  0  0  0  0
 11 47  3  0  0  0  0
 12 26  1  0  0  0  0
 13  3  1  0  0  0  0
 14 13  1  0  0  0  0
 15 16  1  0  0  0  0
 17 15  1  0  0  0  0
 18  3  1  0  0  0  0
 19 18  1  0  0  0  0
 20 15  1  0  0  0  0
 21 20  1  0  0  0  0
 22 20  1  0  0  0  0
 23 20  1  0  0  0  0
 24  3  1  0  0  0  0
 25 24  1  0  0  0  0
 26  2  1  0  0  0  0
 27  2  1  0  0  0  0
 28 27  1  0  0  0  0
 29 27  1  0  0  0  0
 30 27  1  0  0  0  0
 31 30  1  0  0  0  0
 32 30  1  0  0  0  0
 33 30  1  0  0  0  0
 34  8  1  0  0  0  0
 35 34  1  0  0  0  0
 36  2  1  0  0  0  0
 37 36  1  0  0  0  0
 38 36  1  0  0  0  0
 39 13  1  0  0  0  0
 40 39  1  0  0  0  0
 41 36  1  0  0  0  0
 42 41  1  0  0  0  0
 43 41  1  0  0  0  0
 44 41  1  0  0  0  0
 45 18  1  0  0  0  0
 46 45  1  0  0  0  0
 47  1  1  0  0  0  0
 48 26  1  0  0  0  0
 49 48  1  0  0  0  0
 50 12  3  0  0  0  0
 51 52  4  0  0  0  0
 52 53  1  0  0  0  0
 54 52  4  0  0  0  0
 55 54  1  0  0  0  0
 56 54  4  0  0  0  0
 57 56  1  0  0  0  0
 58 56  4  0  0  0  0
 59 58  1  0  0  0  0
 60 51  4  0  0  0  0
 61 60  1  0  0  0  0
 62  5  1  0  0  0  0
 63 62  4  0  0  0  0
 64 63  1  0  0  0  0
 65 63  4  0  0  0  0
 66 65  1  0  0  0  0
 67 65  4  0  0  0  0
 68 67  1  0  0  0  0
 69 67  4  0  0  0  0
 70 69  1  0  0  0  0
 71 62  4  0  0  0  0
 72 71  1  0  0  0  0
 73  5  1  0  0  0  0
 74 73  4  0  0  0  0
 75 74  1  0  0  0  0
 76 74  4  0  0  0  0
 77 76  1  0  0  0  0
 78 76  4  0  0  0  0
 79 78  1  0  0  0  0
 80 78  4  0  0  0  0
 81 80  1  0  0  0  0
 82 73  4  0  0  0  0
 83 82  1  0  0  0  0
 84 10  1  0  0  0  0
 85 84  4  0  0  0  0
 86 85  1  0  0  0  0
 87 85  4  0  0  0  0
 88 87  1  0  0  0  0
 89 87  4  0  0  0  0
 90 89  1  0  0  0  0
 91 89  4  0  0  0  0
 92 91  1  0  0  0  0
 93 84  4  0  0  0  0
 94 93  1  0  0  0  0
 95 10  1  0  0  0  0
 96 95  4  0  0  0  0
 97 96  1  0  0  0  0
 98 96  4  0  0  0  0
 99 98  1  0  0  0  0
100 98  4  0  0  0  0
101100  1  0  0  0  0
102100  4  0  0  0  0
103102  1  0  0  0  0
104 95  4  0  0  0  0
105104  1  0  0  0  0
106 10  1  0  0  0  0
107106  4  0  0  0  0
108107  1  0  0  0  0
109107  4  0  0  0  0
110109  1  0  0  0  0
111109  4  0  0  0  0
112111  1  0  0  0  0
113111  4  0  0  0  0
114113  1  0  0  0  0
115106  4  0  0  0  0
116115  1  0  0  0  0
  7 26  1  0  0  0  0
  8 13  1  0  0  0  0
  8 24  1  0  0  0  0
  8 26  1  0  0  0  0
 13 18  1  0  0  0  0
 13 34  1  0  0  0  0
 18 24  1  0  0  0  0
 18 39  1  0  0  0  0
 24 26  1  0  0  0  0
 24 45  1  0  0  0  0
 26 34  1  0  0  0  0
 26 45  1  0  0  0  0
 34 39  1  0  0  0  0
 34 48  1  0  0  0  0
 39 45  1  0  0  0  0
 39 48  1  0  0  0  0
 45 48  1  0  0  0  0
 58 60  4  0  0  0  0
 69 71  4  0  0  0  0
 80 82  4  0  0  0  0
 91 93  4  0  0  0  0
102104  4  0  0  0  0
113115  4  0  0  0  0
M  END
$$$$
OLAYAB

From CSD data. Using bond type 'Any'. No disordered atoms. Largest molecule.
 89 98  0  0  0  0  0  0  0  0999 V2000
   20.8750    4.6726   30.9435 Co  0  0  0  0  0  0  0  0  0  0  0  0
   21.4337    3.0827   30.8689 N   0  0  0  0  0  0  0  0  0  0  0  0
   21.9197    2.0366   30.8085 N   0  0  0  0  0  0  0  0  0  0  0  0
   21.8340    6.0509   32.4770 P   0  0  0  0  0  0  0  0  0  0  0  0
   21.4094    5.9872   29.2474 P   0  0  0  0  0  0  0  0  0  0  0  0
   18.7942    5.5317   31.1293 P   0  0  0  0  0  0  0  0  0  0  0  0
   22.4373    0.0000   30.8917 Mg  0  0  0  0  0  0  0  0  0  0  0  0
   20.2856    8.0512   30.9534 B   0  0  0  0  0  0  0  0  0  0  0  0
   19.8323    9.8230   30.9229 C   0  0  0  0  0  0  0  0  0  0  0  0
   21.3940   10.5747   31.0010 C   0  0  0  0  0  0  0  0  0  0  0  0
   20.9340   12.2238   30.8104 C   0  0  0  0  0  0  0  0  0  0  0  0
   19.3724   12.4572   30.8867 C   0  0  0  0  0  0  0  0  0  0  0  0
   19.1659   11.7684   32.1442 C   0  0  0  0  0  0  0  0  0  0  0  0
   19.2804   10.4872   32.0553 C   0  0  0  0  0  0  0  0  0  0  0  0
   21.4523    7.7005   32.1061 C   0  0  0  0  0  0  0  0  0  0  0  0
   20.8667    7.7454   29.3750 C   0  0  0  0  0  0  0  0  0  0  0  0
   18.8271    7.3877   31.2741 C   0  0  0  0  0  0  0  0  0  0  0  0
   20.7366    4.4403   34.5101 C   0  0  0  0  0  0  0  0  0  0  0  0
   21.1673    5.8247   34.1656 C   0  0  0  0  0  0  0  0  0  0  0  0
   21.5802    6.7671   35.3358 C   0  0  0  0  0  0  0  0  0  0  0  0
   24.0797    4.7814   32.9286 C   0  0  0  0  0  0  0  0  0  0  0  0
   23.5547    6.1007   32.5171 C   0  0  0  0  0  0  0  0  0  0  0  0
   24.3220    7.1418   33.4018 C   0  0  0  0  0  0  0  0  0  0  0  0
   23.7858    4.6288   28.6891 C   0  0  0  0  0  0  0  0  0  0  0  0
   23.4380    6.0670   28.8955 C   0  0  0  0  0  0  0  0  0  0  0  0
   23.8576    7.2921   27.9619 C   0  0  0  0  0  0  0  0  0  0  0  0
   20.3439    4.1397   27.4887 C   0  0  0  0  0  0  0  0  0  0  0  0
   20.7859    5.5936   27.5046 C   0  0  0  0  0  0  0  0  0  0  0  0
   20.5638    6.4530   26.4931 C   0  0  0  0  0  0  0  0  0  0  0  0
   17.3553    3.7650   29.4481 C   0  0  0  0  0  0  0  0  0  0  0  0
   17.6402    5.2660   29.7466 C   0  0  0  0  0  0  0  0  0  0  0  0
   16.3433    5.9077   29.7117 C   0  0  0  0  0  0  0  0  0  0  0  0
   17.7591    3.5765   32.6968 C   0  0  0  0  0  0  0  0  0  0  0  0
   17.8354    5.1606   32.6333 C   0  0  0  0  0  0  0  0  0  0  0  0
   16.7562    5.6766   33.1732 C   0  0  0  0  0  0  0  0  0  0  0  0
   20.3852   -0.4894   30.7962 O   0  0  0  0  0  0  0  0  0  0  0  0
   19.8121   -1.6671   30.5405 C   0  0  0  0  0  0  0  0  0  0  0  0
   18.3963   -1.6671   30.5754 C   0  0  0  0  0  0  0  0  0  0  0  0
   18.0867   -0.1571   31.0867 C   0  0  0  0  0  0  0  0  0  0  0  0
   19.3724    0.3927   30.5342 C   0  0  0  0  0  0  0  0  0  0  0  0
   22.4373    0.0000   28.7431 O   0  0  0  0  0  0  0  0  0  0  0  0
   22.4081    1.3328   27.8888 C   0  0  0  0  0  0  0  0  0  0  0  0
   22.3206    0.6978   26.5804 C   0  0  0  0  0  0  0  0  0  0  0  0
   22.4373    0.0000   32.8559 O   0  0  0  0  0  0  0  0  0  0  0  0
   22.0648    0.8683   33.6971 C   0  0  0  0  0  0  0  0  0  0  0  0
   22.4530    0.6641   35.1040 C   0  0  0  0  0  0  0  0  0  0  0  0
   22.9549   -2.0366   30.8085 N   0  0  0  0  0  0  0  0  0  0  0  0
   23.4409   -3.0827   30.8689 N   0  0  0  0  0  0  0  0  0  0  0  0
   23.9996   -4.6726   30.9435 Co  0  0  0  0  0  0  0  0  0  0  0  0
   23.0406   -6.0509   32.4770 P   0  0  0  0  0  0  0  0  0  0  0  0
   23.4223   -7.7005   32.1061 C   0  0  0  0  0  0  0  0  0  0  0  0
   24.5890   -8.0512   30.9534 B   0  0  0  0  0  0  0  0  0  0  0  0
   25.0423   -9.8230   30.9229 C   0  0  0  0  0  0  0  0  0  0  0  0
   23.4806  -10.5747   31.0010 C   0  0  0  0  0  0  0  0  0  0  0  0
   23.9406  -12.2238   30.8104 C   0  0  0  0  0  0  0  0  0  0  0  0
   25.5022  -12.4572   30.8867 C   0  0  0  0  0  0  0  0  0  0  0  0
   25.7087  -11.7684   32.1442 C   0  0  0  0  0  0  0  0  0  0  0  0
   25.5942  -10.4872   32.0553 C   0  0  0  0  0  0  0  0  0  0  0  0
   24.0079   -7.7454   29.3750 C   0  0  0  0  0  0  0  0  0  0  0  0
   23.4652   -5.9872   29.2474 P   0  0  0  0  0  0  0  0  0  0  0  0
   26.0804   -5.5317   31.1293 P   0  0  0  0  0  0  0  0  0  0  0  0
   26.0475   -7.3877   31.2741 C   0  0  0  0  0  0  0  0  0  0  0  0
   27.2344   -5.2660   29.7466 C   0  0  0  0  0  0  0  0  0  0  0  0
   27.5193   -3.7650   29.4481 C   0  0  0  0  0  0  0  0  0  0  0  0
   28.5313   -5.9077   29.7117 C   0  0  0  0  0  0  0  0  0  0  0  0
   27.0392   -5.1606   32.6333 C   0  0  0  0  0  0  0  0  0  0  0  0
   27.1155   -3.5765   32.6968 C   0  0  0  0  0  0  0  0  0  0  0  0
   28.1184   -5.6766   33.1732 C   0  0  0  0  0  0  0  0  0  0  0  0
   21.4366   -6.0670   28.8955 C   0  0  0  0  0  0  0  0  0  0  0  0
   21.0888   -4.6288   28.6891 C   0  0  0  0  0  0  0  0  0  0  0  0
   21.0170   -7.2921   27.9619 C   0  0  0  0  0  0  0  0  0  0  0  0
   24.0887   -5.5936   27.5046 C   0  0  0  0  0  0  0  0  0  0  0  0
   24.5307   -4.1397   27.4887 C   0  0  0  0  0  0  0  0  0  0  0  0
   24.3108   -6.4530   26.4931 C   0  0  0  0  0  0  0  0  0  0  0  0
   23.7073   -5.8247   34.1656 C   0  0  0  0  0  0  0  0  0  0  0  0
   24.1380   -4.4403   34.5101 C   0  0  0  0  0  0  0  0  0  0  0  0
   23.2944   -6.7671   35.3358 C   0  0  0  0  0  0  0  0  0  0  0  0
   21.3199   -6.1007   32.5171 C   0  0  0  0  0  0  0  0  0  0  0  0
   20.7949   -4.7814   32.9286 C   0  0  0  0  0  0  0  0  0  0  0  0
   20.5526   -7.1418   33.4018 C   0  0  0  0  0  0  0  0  0  0  0  0
   24.4894    0.4894   30.7962 O   0  0  0  0  0  0  0  0  0  0  0  0
   25.0625    1.6671   30.5405 C   0  0  0  0  0  0  0  0  0  0  0  0
   26.4783    1.6671   30.5754 C   0  0  0  0  0  0  0  0  0  0  0  0
   26.7879    0.1571   31.0867 C   0  0  0  0  0  0  0  0  0  0  0  0
   25.5022   -0.3927   30.5342 C   0  0  0  0  0  0  0  0  0  0  0  0
   22.5540   -0.6978   26.5804 C   0  0  0  0  0  0  0  0  0  0  0  0
   22.4665   -1.3328   27.8888 C   0  0  0  0  0  0  0  0  0  0  0  0
   22.4216   -0.6641   35.1040 C   0  0  0  0  0  0  0  0  0  0  0  0
   22.8098   -0.8683   33.6971 C   0  0  0  0  0  0  0  0  0  0  0  0
  1  2  1  0  0  0  0
  2  3  3  0  0  0  0
  3  7  1  0  0  0  0
  4  1  1  0  0  0  0
  5  1  1  0  0  0  0
  6  1  1  0  0  0  0
  7 36  1  0  0  0  0
  8  9  1  0  0  0  0
  9 10  4  0  0  0  0
 10 11  4  0  0  0  0
 11 12  4  0  0  0  0
 12 13  4  0  0  0  0
 13 14  4  0  0  0  0
 14  9  4  0  0  0  0
 15  4  1  0  0  0  0
 16  5  1  0  0  0  0
 17  6  1  0  0  0  0
 18 19  1  0  0  0  0
 19  4  1  0  0  0  0
 20 19  1  0  0  0  0
 21 22  1  0  0  0  0
 22  4  1  0  0  0  0
 23 22  1  0  0  0  0
 24 25  1  0  0  0  0
 25  5  1  0  0  0  0
 26 25  1  0  0  0  0
 27 28  1  0  0  0  0
 28  5  1  0  0  0  0
 29 28  1  0  0  0  0
 30 31  1  0  0  0  0
 31  6  1  0  0  0  0
 32 31  1  0  0  0  0
 33 34  1  0  0  0  0
 34  6  1  0  0  0  0
 35 34  1  0  0  0  0
 36 37  1  0  0  0  0
 37 38  1  0  0  0  0
 38 39  1  0  0  0  0
 39 40  1  0  0  0  0
 40 36  1  0  0  0  0
 41  7  1  0  0  0  0
 42 41  1  0  0  0  0
 43 42  1  0  0  0  0
 44  7  1  0  0  0  0
 45 44  1  0  0  0  0
 46 45  1  0  0  0  0
 47  7  1  0  0  0  0
 48 47  3  0  0  0  0
 49 48  1  0  0  0  0
 50 49  1  0  0  0  0
 51 50  1  0  0  0  0
 52 51  1  0  0  0  0
 53 52  1  0  0  0  0
 54 53  4  0  0  0  0
 55 54  4  0  0  0  0
 56 55  4  0  0  0  0
 57 56  4  0  0  0  0
 58 53  4  0  0  0  0
 59 52  1  0  0  0  0
 60 49  1  0  0  0  0
 61 49  1  0  0  0  0
 62 52  1  0  0  0  0
 63 61  1  0  0  0  0
 64 63  1  0  0  0  0
 65 63  1  0  0  0  0
 66 61  1  0  0  0  0
 67 66  1  0  0  0  0
 68 66  1  0  0  0  0
 69 60  1  0  0  0  0
 70 69  1  0  0  0  0
 71 69  1  0  0  0  0
 72 60  1  0  0  0  0
 73 72  1  0  0  0  0
 74 72  1  0  0  0  0
 75 50  1  0  0  0  0
 76 75  1  0  0  0  0
 77 75  1  0  0  0  0
 78 50  1  0  0  0  0
 79 78  1  0  0  0  0
 80 78  1  0  0  0  0
 81  7  1  0  0  0  0
 82 81  1  0  0  0  0
 83 82  1  0  0  0  0
 84 83  1  0  0  0  0
 85 81  1  0  0  0  0
 86 43  1  0  0  0  0
 87 41  1  0  0  0  0
 88 46  1  0  0  0  0
 89 44  1  0  0  0  0
  8 15  1  0  0  0  0
  8 16  1  0  0  0  0
  8 17  1  0  0  0  0
 57 58  4  0  0  0  0
 59 60  1  0  0  0  0
 61 62  1  0  0  0  0
 84 85  1  0  0  0  0
 86 87  1  0  0  0  0
 88 89  1  0  0  0  0
M  END
$$$$
OLUSAQ

From CSD data. Using bond type 'Any'. No disordered atoms. Largest molecule.
107114  0  0  0  0  0  0  0  0999 V2000
    4.3659   16.6261   13.1399 Re  0  3  0  0  0  0  0  0  0  0  0  0
    4.9723   15.1084   11.3119 P   0  0  0  0  0  0  0  0  0  0  0  0
    3.6912   18.3617   14.7334 P   0  0  0  0  0  0  0  0  0  0  0  0
    2.3650   14.6542   14.4835 O   0  0  0  0  0  0  0  0  0  0  0  0
    6.5309   15.3086   14.9679 O   0  0  0  0  0  0  0  0  0  0  0  0
    6.5634   18.6613   12.1786 O   0  0  0  0  0  0  0  0  0  0  0  0
    2.0603   17.6440   11.2689 O   0  0  0  0  0  0  0  0  0  0  0  0
    3.0768   15.3730   13.9552 C   0  0  0  0  0  0  0  0  0  0  0  0
    5.7586   15.8124   14.3025 C   0  0  0  0  0  0  0  0  0  0  0  0
    5.7544   17.9312   12.4766 C   0  0  0  0  0  0  0  0  0  0  0  0
    2.9191   17.3151   11.9343 C   0  0  0  0  0  0  0  0  0  0  0  0
    6.2620   15.8588   10.2607 C   0  0  0  0  0  0  0  0  0  0  0  0
    7.6019   15.8029   10.6528 C   0  0  0  0  0  0  0  0  0  0  0  0
    7.8449   15.3535   11.4533 H   0  0  0  0  0  0  0  0  0  0  0  0
    8.5778   16.4069    9.8703 C   0  0  0  0  0  0  0  0  0  0  0  0
    9.4902   16.3610   10.1314 H   0  0  0  0  0  0  0  0  0  0  0  0
    8.2224   17.0809    8.7050 C   0  0  0  0  0  0  0  0  0  0  0  0
    8.8926   17.4905    8.1720 H   0  0  0  0  0  0  0  0  0  0  0  0
    6.9029   17.1553    8.3253 C   0  0  0  0  0  0  0  0  0  0  0  0
    6.6625   17.6220    7.5344 H   0  0  0  0  0  0  0  0  0  0  0  0
    5.9211   16.5498    9.0986 C   0  0  0  0  0  0  0  0  0  0  0  0
    5.0110   16.6067    8.8340 H   0  0  0  0  0  0  0  0  0  0  0  0
    5.6768   13.4915   11.7615 C   0  0  0  0  0  0  0  0  0  0  0  0
    6.4079   12.7701   10.8244 C   0  0  0  0  0  0  0  0  0  0  0  0
    6.5865   13.1469    9.9709 H   0  0  0  0  0  0  0  0  0  0  0  0
    6.8772   11.5038   11.1311 C   0  0  0  0  0  0  0  0  0  0  0  0
    7.3723   11.0157   10.4836 H   0  0  0  0  0  0  0  0  0  0  0  0
    6.6324   10.9457   12.3656 C   0  0  0  0  0  0  0  0  0  0  0  0
    6.9686   10.0816   12.5700 H   0  0  0  0  0  0  0  0  0  0  0  0
    5.8978   11.6426   13.3081 C   0  0  0  0  0  0  0  0  0  0  0  0
    5.7210   11.2555   14.1572 H   0  0  0  0  0  0  0  0  0  0  0  0
    5.4197   12.9099   13.0078 C   0  0  0  0  0  0  0  0  0  0  0  0
    4.9125   13.3867   13.6534 H   0  0  0  0  0  0  0  0  0  0  0  0
    3.6563   14.6482   10.1354 C   0  0  0  0  0  0  0  0  0  0  0  0
    3.1350   15.4598    9.9129 H   0  0  0  0  0  0  0  0  0  0  0  0
    4.0785   14.3266    9.2999 H   0  0  0  0  0  0  0  0  0  0  0  0
    2.6501   13.5249   10.6592 B   0  0  0  0  0  0  0  0  0  0  0  0
    2.8222   12.0430   10.3452 C   0  0  0  0  0  0  0  0  0  0  0  0
    3.7821   11.8337   10.1604 H   0  0  0  0  0  0  0  0  0  0  0  0
    2.2622   11.0926   11.4167 C   0  0  0  0  0  0  0  0  0  0  0  0
    1.5692   10.5167   11.0074 H   0  0  0  0  0  0  0  0  0  0  0  0
    2.9912   10.5051   11.7386 H   0  0  0  0  0  0  0  0  0  0  0  0
    1.6635   11.8233   12.5919 C   0  0  0  0  0  0  0  0  0  0  0  0
    1.2208   11.1626   13.1808 H   0  0  0  0  0  0  0  0  0  0  0  0
    2.3969   12.2418   13.1095 H   0  0  0  0  0  0  0  0  0  0  0  0
    0.6686   12.8833   12.2310 C   0  0  0  0  0  0  0  0  0  0  0  0
    0.4247   13.3828   13.0493 H   0  0  0  0  0  0  0  0  0  0  0  0
   -0.1521   12.4468   11.8902 H   0  0  0  0  0  0  0  0  0  0  0  0
    1.1768   13.8854   11.1693 C   0  0  0  0  0  0  0  0  0  0  0  0
    1.1427   14.8216   11.5201 H   0  0  0  0  0  0  0  0  0  0  0  0
    0.4228   13.7740    9.8541 C   0  0  0  0  0  0  0  0  0  0  0  0
   -0.5352   13.9649   10.0177 H   0  0  0  0  0  0  0  0  0  0  0  0
    0.7655   14.4619    9.2286 H   0  0  0  0  0  0  0  0  0  0  0  0
    0.5503   12.3907    9.1916 C   0  0  0  0  0  0  0  0  0  0  0  0
    0.0833   11.7215    9.7502 H   0  0  0  0  0  0  0  0  0  0  0  0
    0.1027   12.4139    8.3080 H   0  0  0  0  0  0  0  0  0  0  0  0
    1.9696   11.9658    9.0068 C   0  0  0  0  0  0  0  0  0  0  0  0
    2.3921   12.5435    8.3236 H   0  0  0  0  0  0  0  0  0  0  0  0
    1.9851   11.0350    8.6691 H   0  0  0  0  0  0  0  0  0  0  0  0
    2.8404   19.7125   13.8402 C   0  0  0  0  0  0  0  0  0  0  0  0
    3.5956   20.6453   13.1336 C   0  0  0  0  0  0  0  0  0  0  0  0
    4.5443   20.6234   13.1808 H   0  0  0  0  0  0  0  0  0  0  0  0
    2.9592   21.6109   12.3583 C   0  0  0  0  0  0  0  0  0  0  0  0
    3.4770   22.2402   11.8701 H   0  0  0  0  0  0  0  0  0  0  0  0
    1.5819   21.6594   12.2952 C   0  0  0  0  0  0  0  0  0  0  0  0
    1.1515   22.3234   11.7698 H   0  0  0  0  0  0  0  0  0  0  0  0
    0.8283   20.7370   13.0005 C   0  0  0  0  0  0  0  0  0  0  0  0
   -0.1211   20.7665   12.9624 H   0  0  0  0  0  0  0  0  0  0  0  0
    1.4654   19.7665   13.7660 C   0  0  0  0  0  0  0  0  0  0  0  0
    0.9448   19.1324   14.2441 H   0  0  0  0  0  0  0  0  0  0  0  0
    4.9702   19.2610   15.6652 C   0  0  0  0  0  0  0  0  0  0  0  0
    6.2613   18.7713   15.8288 C   0  0  0  0  0  0  0  0  0  0  0  0
    6.5123   17.9585   15.4055 H   0  0  0  0  0  0  0  0  0  0  0  0
    7.1905   19.4565   16.6041 C   0  0  0  0  0  0  0  0  0  0  0  0
    8.0668   19.1072   16.7140 H   0  0  0  0  0  0  0  0  0  0  0  0
    6.8399   20.6472   17.2176 C   0  0  0  0  0  0  0  0  0  0  0  0
    7.4743   21.1185   17.7461 H   0  0  0  0  0  0  0  0  0  0  0  0
    5.5582   21.1456   17.0553 C   0  0  0  0  0  0  0  0  0  0  0  0
    5.3177   21.9636   17.4741 H   0  0  0  0  0  0  0  0  0  0  0  0
    4.6229   20.4668   16.2911 C   0  0  0  0  0  0  0  0  0  0  0  0
    3.7454   20.8188   16.1901 H   0  0  0  0  0  0  0  0  0  0  0  0
    2.4988   17.8537   16.0114 C   0  0  0  0  0  0  0  0  0  0  0  0
    2.0954   18.6798   16.3774 H   0  0  0  0  0  0  0  0  0  0  0  0
    1.7725   17.3609   15.5526 H   0  0  0  0  0  0  0  0  0  0  0  0
    2.9486   16.9795   17.2323 B   0  0  0  0  0  0  0  0  0  0  0  0
    4.2344   16.2512   17.5943 C   0  0  0  0  0  0  0  0  0  0  0  0
    4.9107   16.3456   16.8633 H   0  0  0  0  0  0  0  0  0  0  0  0
    4.0601   14.7774   17.9859 C   0  0  0  0  0  0  0  0  0  0  0  0
    3.9527   14.2473   17.1576 H   0  0  0  0  0  0  0  0  0  0  0  0
    4.8933   14.4735   18.4260 H   0  0  0  0  0  0  0  0  0  0  0  0
    2.9061   14.4677   18.8985 C   0  0  0  0  0  0  0  0  0  0  0  0
    2.7804   13.4853   18.9253 H   0  0  0  0  0  0  0  0  0  0  0  0
    3.1364   14.7656   19.8125 H   0  0  0  0  0  0  0  0  0  0  0  0
    1.6109   15.1021   18.5040 C   0  0  0  0  0  0  0  0  0  0  0  0
    0.9651   14.9860   19.2440 H   0  0  0  0  0  0  0  0  0  0  0  0
    1.2506   14.6186   17.7171 H   0  0  0  0  0  0  0  0  0  0  0  0
    1.6964   16.6047   18.1565 C   0  0  0  0  0  0  0  0  0  0  0  0
    0.8437   16.9142   17.7349 H   0  0  0  0  0  0  0  0  0  0  0  0
    2.0559   17.4866   19.3354 C   0  0  0  0  0  0  0  0  0  0  0  0
    1.7751   18.4110   19.1192 H   0  0  0  0  0  0  0  0  0  0  0  0
    1.5175   17.1907   20.1112 H   0  0  0  0  0  0  0  0  0  0  0  0
    3.5291   17.5330   19.7746 C   0  0  0  0  0  0  0  0  0  0  0  0
    3.7126   18.4594   20.0755 H   0  0  0  0  0  0  0  0  0  0  0  0
    3.6127   16.9548   20.5726 H   0  0  0  0  0  0  0  0  0  0  0  0
    4.6302   17.1520   18.8428 C   0  0  0  0  0  0  0  0  0  0  0  0
    5.3196   16.6705   19.3644 H   0  0  0  0  0  0  0  0  0  0  0  0
    5.0453   17.9836   18.5040 H   0  0  0  0  0  0  0  0  0  0  0  0
  1  2  1  0  0  0  0
  2 12  1  0  0  0  0
  3  1  1  0  0  0  0
  4  8  3  0  0  0  0
  5  9  3  0  0  0  0
  6 10  3  0  0  0  0
  7 11  3  0  0  0  0
  8  1  1  0  0  0  0
  9  1  1  0  0  0  0
 10  1  1  0  0  0  0
 11  1  1  0  0  0  0
 12 13  4  0  0  0  0
 13 14  1  0  0  0  0
 15 13  4  0  0  0  0
 16 15  1  0  0  0  0
 17 15  4  0  0  0  0
 18 17  1  0  0  0  0
 19 17  4  0  0  0  0
 20 19  1  0  0  0  0
 21 12  4  0  0  0  0
 22 21  1  0  0  0  0
 23  2  1  0  0  0  0
 24 23  4  0  0  0  0
 25 24  1  0  0  0  0
 26 24  4  0  0  0  0
 27 26  1  0  0  0  0
 28 26  4  0  0  0  0
 29 28  1  0  0  0  0
 30 28  4  0  0  0  0
 31 30  1  0  0  0  0
 32 23  4  0  0  0  0
 33 32  1  0  0  0  0
 34  2  1  0  0  0  0
 35 34  1  0  0  0  0
 36 34  1  0  0  0  0
 37 34  1  0  0  0  0
 38 37  1  0  0  0  0
 39 38  1  0  0  0  0
 40 38  1  0  0  0  0
 41 40  1  0  0  0  0
 42 40  1  0  0  0  0
 43 40  1  0  0  0  0
 44 43  1  0  0  0  0
 45 43  1  0  0  0  0
 46 43  1  0  0  0  0
 47 46  1  0  0  0  0
 48 46  1  0  0  0  0
 49 37  1  0  0  0  0
 50 49  1  0  0  0  0
 51 49  1  0  0  0  0
 52 51  1  0  0  0  0
 53 51  1  0  0  0  0
 54 51  1  0  0  0  0
 55 54  1  0  0  0  0
 56 54  1  0  0  0  0
 57 38  1  0  0  0  0
 58 57  1  0  0  0  0
 59 57  1  0  0  0  0
 60  3  1  0  0  0  0
 61 60  4  0  0  0  0
 62 61  1  0  0  0  0
 63 61  4  0  0  0  0
 64 63  1  0  0  0  0
 65 63  4  0  0  0  0
 66 65  1  0  0  0  0
 67 65  4  0  0  0  0
 68 67  1  0  0  0  0
 69 60  4  0  0  0  0
 70 69  1  0  0  0  0
 71  3  1  0  0  0  0
 72 71  4  0  0  0  0
 73 72  1  0  0  0  0
 74 72  4  0  0  0  0
 75 74  1  0  0  0  0
 76 74  4  0  0  0  0
 77 76  1  0  0  0  0
 78 76  4  0  0  0  0
 79 78  1  0  0  0  0
 80 71  4  0  0  0  0
 81 80  1  0  0  0  0
 82  3  1  0  0  0  0
 83 82  1  0  0  0  0
 84 82  1  0  0  0  0
 85 82  1  0  0  0  0
 86 85  1  0  0  0  0
 87 86  1  0  0  0  0
 88 86  1  0  0  0  0
 89 88  1  0  0  0  0
 90 88  1  0  0  0  0
 91 88  1  0  0  0  0
 92 91  1  0  0  0  0
 93 91  1  0  0  0  0
 94 91  1  0  0  0  0
 95 94  1  0  0  0  0
 96 94  1  0  0  0  0
 97 85  1  0  0  0  0
 98 97  1  0  0  0  0
 99 97  1  0  0  0  0
100 99  1  0  0  0  0
101 99  1  0  0  0  0
102 99  1  0  0  0  0
103102  1  0  0  0  0
104102  1  0  0  0  0
105 86  1  0  0  0  0
106105  1  0  0  0  0
107105  1  0  0  0  0
 19 21  4  0  0  0  0
 30 32  4  0  0  0  0
 46 49  1  0  0  0  0
 54 57  1  0  0  0  0
 67 69  4  0  0  0  0
 78 80  4  0  0  0  0
 94 97  1  0  0  0  0
102105  1  0  0  0  0
M  CHG  1   1   1
M  END
$$$$
OMEDUI

From CSD data. Using bond type 'Any'. No disordered atoms. Largest molecule.
 93 97  0  0  0  0  0  0  0  0999 V2000
    5.8990    4.4754    6.1522 Rh  0  0  0  0  0  0  0  0  0  0  0  0
    5.0825    2.9134    4.2666 Sn  0  0  0  0  0  0  0  0  0  0  0  0
    2.7363    2.5243    4.7346 Cl  0  0  0  0  0  0  0  0  0  0  0  0
    4.8783    4.2137    2.4648 C   0  0  0  0  0  0  0  0  0  0  0  0
    4.2355    5.7454    3.1112 P   0  0  0  0  0  0  0  0  0  0  0  0
    4.8712    6.1567    4.8824 B   0  0  0  0  0  0  0  0  0  0  0  0
    4.3168    5.5500    5.6222 H   0  0  0  0  0  0  0  0  0  0  0  0
    4.7095    7.2341    5.0910 H   0  0  0  0  0  0  0  0  0  0  0  0
    5.9525    5.9215    4.9490 H   0  0  0  0  0  0  0  0  0  0  0  0
    4.7670    7.1418    2.0906 C   0  0  0  0  0  0  0  0  0  0  0  0
    5.7445    7.1450    2.0260 H   0  0  0  0  0  0  0  0  0  0  0  0
    4.4638    7.9789    2.5007 H   0  0  0  0  0  0  0  0  0  0  0  0
    4.3797    7.0574    1.1950 H   0  0  0  0  0  0  0  0  0  0  0  0
    2.4337    5.7329    3.0197 C   0  0  0  0  0  0  0  0  0  0  0  0
    2.1546    5.7290    2.0796 H   0  0  0  0  0  0  0  0  0  0  0  0
    2.0783    6.5312    3.4623 H   0  0  0  0  0  0  0  0  0  0  0  0
    2.0894    4.9309    3.4652 H   0  0  0  0  0  0  0  0  0  0  0  0
    4.2057    3.5216    0.8225 Si  0  0  0  0  0  0  0  0  0  0  0  0
    4.1155    4.8737   -0.4689 C   0  0  0  0  0  0  0  0  0  0  0  0
    3.9857    4.4712   -1.3543 H   0  0  0  0  0  0  0  0  0  0  0  0
    4.9487    5.3879   -0.4636 H   0  0  0  0  0  0  0  0  0  0  0  0
    3.3623    5.4678   -0.2684 H   0  0  0  0  0  0  0  0  0  0  0  0
    2.5421    2.7250    0.9958 C   0  0  0  0  0  0  0  0  0  0  0  0
    2.2687    2.3483    0.1323 H   0  0  0  0  0  0  0  0  0  0  0  0
    1.8864    3.3948    1.2810 H   0  0  0  0  0  0  0  0  0  0  0  0
    2.5898    2.0090    1.6629 H   0  0  0  0  0  0  0  0  0  0  0  0
    5.3947    2.2593    0.1290 C   0  0  0  0  0  0  0  0  0  0  0  0
    5.1997    1.3803    0.5176 H   0  0  0  0  0  0  0  0  0  0  0  0
    6.3127    2.5183    0.3530 H   0  0  0  0  0  0  0  0  0  0  0  0
    5.2943    2.2161   -0.8439 H   0  0  0  0  0  0  0  0  0  0  0  0
    5.7993    0.9784    3.4667 C   0  0  0  0  0  0  0  0  0  0  0  0
    5.1376   -0.5481    4.1711 P   0  0  0  0  0  0  0  0  0  0  0  0
    6.0055   -2.1757    3.6456 B   0  0  0  0  0  0  0  0  0  0  0  0
    6.0843   -2.2176    2.4928 H   0  0  0  0  0  0  0  0  0  0  0  0
    5.3919   -3.0785    4.0242 H   0  0  0  0  0  0  0  0  0  0  0  0
    7.0608   -2.2175    4.1016 H   0  0  0  0  0  0  0  0  0  0  0  0
    5.0765   -0.3300    5.9707 C   0  0  0  0  0  0  0  0  0  0  0  0
    5.9825   -0.1755    6.3118 H   0  0  0  0  0  0  0  0  0  0  0  0
    4.7046   -1.1360    6.3852 H   0  0  0  0  0  0  0  0  0  0  0  0
    4.5106    0.4402    6.1874 H   0  0  0  0  0  0  0  0  0  0  0  0
    3.4099   -0.7061    3.6542 C   0  0  0  0  0  0  0  0  0  0  0  0
    2.9025    0.0710    3.9666 H   0  0  0  0  0  0  0  0  0  0  0  0
    3.0273   -1.5228    4.0381 H   0  0  0  0  0  0  0  0  0  0  0  0
    3.3649   -0.7540    2.6757 H   0  0  0  0  0  0  0  0  0  0  0  0
    7.7063    1.0376    3.3452 Si  0  0  0  0  0  0  0  0  0  0  0  0
    8.5343    0.4547    4.8759 C   0  0  0  0  0  0  0  0  0  0  0  0
    8.2686   -0.4708    5.0584 H   0  0  0  0  0  0  0  0  0  0  0  0
    8.2699    1.0250    5.6275 H   0  0  0  0  0  0  0  0  0  0  0  0
    9.5061    0.4985    4.7582 H   0  0  0  0  0  0  0  0  0  0  0  0
    8.2659    0.0457    1.8755 C   0  0  0  0  0  0  0  0  0  0  0  0
    9.2427    0.0890    1.8058 H   0  0  0  0  0  0  0  0  0  0  0  0
    7.8637    0.4133    1.0614 H   0  0  0  0  0  0  0  0  0  0  0  0
    7.9874   -0.8869    1.9861 H   0  0  0  0  0  0  0  0  0  0  0  0
    8.2524    2.8499    3.0520 C   0  0  0  0  0  0  0  0  0  0  0  0
    8.0036    3.3958    3.8264 H   0  0  0  0  0  0  0  0  0  0  0  0
    7.8083    3.1990    2.2503 H   0  0  0  0  0  0  0  0  0  0  0  0
    9.2236    2.8826    2.9269 H   0  0  0  0  0  0  0  0  0  0  0  0
    6.6400    5.8352    7.8858 P   0  0  0  0  0  0  0  0  0  0  0  0
    6.6216    4.9865    9.4786 C   0  0  0  0  0  0  0  0  0  0  0  0
    5.4789    4.2732    9.8464 C   0  0  0  0  0  0  0  0  0  0  0  0
    4.7372    4.2329    9.2536 H   0  0  0  0  0  0  0  0  0  0  0  0
    5.4181    3.6228   11.0681 C   0  0  0  0  0  0  0  0  0  0  0  0
    4.6313    3.1560   11.3236 H   0  0  0  0  0  0  0  0  0  0  0  0
    6.4955    3.6602   11.9026 C   0  0  0  0  0  0  0  0  0  0  0  0
    6.4629    3.1918   12.7286 H   0  0  0  0  0  0  0  0  0  0  0  0
    7.6132    4.3532   11.5735 C   0  0  0  0  0  0  0  0  0  0  0  0
    8.3494    4.3756   12.1727 H   0  0  0  0  0  0  0  0  0  0  0  0
    7.6849    5.0203   10.3770 C   0  0  0  0  0  0  0  0  0  0  0  0
    8.4687    5.5116   10.1595 H   0  0  0  0  0  0  0  0  0  0  0  0
    5.7787    7.4022    8.2284 C   0  0  0  0  0  0  0  0  0  0  0  0
    5.0438    7.6347    9.4012 C   0  0  0  0  0  0  0  0  0  0  0  0
    5.0183    6.9716   10.0799 H   0  0  0  0  0  0  0  0  0  0  0  0
    4.3559    8.8209    9.5733 C   0  0  0  0  0  0  0  0  0  0  0  0
    3.8702    8.9672   10.3771 H   0  0  0  0  0  0  0  0  0  0  0  0
    4.3652    9.7804    8.6162 C   0  0  0  0  0  0  0  0  0  0  0  0
    3.8707   10.5818    8.7373 H   0  0  0  0  0  0  0  0  0  0  0  0
    5.0987    9.5844    7.4569 C   0  0  0  0  0  0  0  0  0  0  0  0
    5.1206   10.2605    6.7897 H   0  0  0  0  0  0  0  0  0  0  0  0
    5.7952    8.4138    7.2676 C   0  0  0  0  0  0  0  0  0  0  0  0
    6.2956    8.2919    6.4692 H   0  0  0  0  0  0  0  0  0  0  0  0
    8.3788    6.3571    7.6505 C   0  0  0  0  0  0  0  0  0  0  0  0
    9.2109    5.5846    6.8611 C   0  0  0  0  0  0  0  0  0  0  0  0
    8.8714    4.8110    6.4267 H   0  0  0  0  0  0  0  0  0  0  0  0
   10.5447    5.9400    6.7062 C   0  0  0  0  0  0  0  0  0  0  0  0
   11.1196    5.4172    6.1596 H   0  0  0  0  0  0  0  0  0  0  0  0
   11.0298    7.0615    7.3536 C   0  0  0  0  0  0  0  0  0  0  0  0
   11.9421    7.3049    7.2486 H   0  0  0  0  0  0  0  0  0  0  0  0
   10.2135    7.8287    8.1494 C   0  0  0  0  0  0  0  0  0  0  0  0
   10.5582    8.5960    8.5896 H   0  0  0  0  0  0  0  0  0  0  0  0
    8.8727    7.4718    8.3021 C   0  0  0  0  0  0  0  0  0  0  0  0
    8.3006    7.9930    8.8531 H   0  0  0  0  0  0  0  0  0  0  0  0
    6.6394    3.0589    6.9828 C   0  0  0  0  0  0  0  0  0  0  0  0
    7.1246    2.1680    7.5343 O   0  0  0  0  0  0  0  0  0  0  0  0
  1  2  1  0  0  0  0
  2  3  1  0  0  0  0
  4  2  1  0  0  0  0
  5  4  1  0  0  0  0
  6  5  1  0  0  0  0
  7  1  1  0  0  0  0
  8  6  1  0  0  0  0
  9  1  1  0  0  0  0
 10  5  1  0  0  0  0
 11 10  1  0  0  0  0
 12 10  1  0  0  0  0
 13 10  1  0  0  0  0
 14  5  1  0  0  0  0
 15 14  1  0  0  0  0
 16 14  1  0  0  0  0
 17 14  1  0  0  0  0
 18  4  1  0  0  0  0
 19 18  1  0  0  0  0
 20 19  1  0  0  0  0
 21 19  1  0  0  0  0
 22 19  1  0  0  0  0
 23 18  1  0  0  0  0
 24 23  1  0  0  0  0
 25 23  1  0  0  0  0
 26 23  1  0  0  0  0
 27 18  1  0  0  0  0
 28 27  1  0  0  0  0
 29 27  1  0  0  0  0
 30 27  1  0  0  0  0
 31  2  1  0  0  0  0
 32 31  1  0  0  0  0
 33 32  1  0  0  0  0
 34 33  1  0  0  0  0
 35 33  1  0  0  0  0
 36 33  1  0  0  0  0
 37 32  1  0  0  0  0
 38 37  1  0  0  0  0
 39 37  1  0  0  0  0
 40 37  1  0  0  0  0
 41 32  1  0  0  0  0
 42 41  1  0  0  0  0
 43 41  1  0  0  0  0
 44 41  1  0  0  0  0
 45 31  1  0  0  0  0
 46 45  1  0  0  0  0
 47 46  1  0  0  0  0
 48 46  1  0  0  0  0
 49 46  1  0  0  0  0
 50 45  1  0  0  0  0
 51 50  1  0  0  0  0
 52 50  1  0  0  0  0
 53 50  1  0  0  0  0
 54 45  1  0  0  0  0
 55 54  1  0  0  0  0
 56 54  1  0  0  0  0
 57 54  1  0  0  0  0
 58  1  1  0  0  0  0
 59 58  1  0  0  0  0
 60 59  4  0  0  0  0
 61 60  1  0  0  0  0
 62 60  4  0  0  0  0
 63 62  1  0  0  0  0
 64 62  4  0  0  0  0
 65 64  1  0  0  0  0
 66 64  4  0  0  0  0
 67 66  1  0  0  0  0
 68 59  4  0  0  0  0
 69 68  1  0  0  0  0
 70 58  1  0  0  0  0
 71 70  4  0  0  0  0
 72 71  1  0  0  0  0
 73 71  4  0  0  0  0
 74 73  1  0  0  0  0
 75 73  4  0  0  0  0
 76 75  1  0  0  0  0
 77 75  4  0  0  0  0
 78 77  1  0  0  0  0
 79 70  4  0  0  0  0
 80 79  1  0  0  0  0
 81 58  1  0  0  0  0
 82 81  4  0  0  0  0
 83 82  1  0  0  0  0
 84 82  4  0  0  0  0
 85 84  1  0  0  0  0
 86 84  4  0  0  0  0
 87 86  1  0  0  0  0
 88 86  4  0  0  0  0
 89 88  1  0  0  0  0
 90 81  4  0  0  0  0
 91 90  1  0  0  0  0
 92  1  1  0  0  0  0
 93 92  3  0  0  0  0
  6  7  1  0  0  0  0
  6  9  1  0  0  0  0
 66 68  4  0  0  0  0
 77 79  4  0  0  0  0
 88 90  4  0  0  0  0
M  END
$$$$
ONOBEZ

From CSD data. Using bond type 'Any'. No disordered atoms. Largest molecule.
190207  0  0  0  0  0  0  0  0999 V2000
   10.1386    0.8990    4.4494 Fe  0  3  0  0  0  0  0  0  0  0  0  0
    9.9518    2.5329    5.2388 N   0  0  0  0  0  0  0  0  0  0  0  0
   10.6740    2.9774    5.4983 H   0  0  0  0  0  0  0  0  0  0  0  0
    8.5008    0.9313    3.7714 C   0  0  0  0  0  0  0  0  0  0  0  0
    7.4720    0.9969    3.2681 O   0  0  0  0  0  0  0  0  0  0  0  0
   12.7149   -1.5003    3.7783 B   0  5  0  0  0  0  0  0  0  0  0  0
   13.8303   -2.6720    3.4702 C   0  0  0  0  0  0  0  0  0  0  0  0
   13.8308   -3.4351    2.3208 C   0  0  0  0  0  0  0  0  0  0  0  0
   13.1648   -3.2593    1.6670 H   0  0  0  0  0  0  0  0  0  0  0  0
   14.7490   -4.4472    2.0670 C   0  0  0  0  0  0  0  0  0  0  0  0
   14.7120   -4.9285    1.2475 H   0  0  0  0  0  0  0  0  0  0  0  0
   15.7202   -4.7551    3.0075 C   0  0  0  0  0  0  0  0  0  0  0  0
   16.3484   -5.4494    2.8497 H   0  0  0  0  0  0  0  0  0  0  0  0
   15.7495   -4.0245    4.1772 C   0  0  0  0  0  0  0  0  0  0  0  0
   16.4067   -4.2197    4.8345 H   0  0  0  0  0  0  0  0  0  0  0  0
   14.8329   -3.0150    4.4049 C   0  0  0  0  0  0  0  0  0  0  0  0
   14.8796   -2.5321    5.2215 H   0  0  0  0  0  0  0  0  0  0  0  0
   11.6339   -2.1528    4.8801 C   0  0  0  0  0  0  0  0  0  0  0  0
   12.0427   -2.1317    5.7815 H   0  0  0  0  0  0  0  0  0  0  0  0
   11.4721   -3.1010    4.6464 H   0  0  0  0  0  0  0  0  0  0  0  0
   10.0360   -1.2825    4.9398 P   0  0  0  0  0  0  0  0  0  0  0  0
    9.2494   -1.5903    6.5765 C   0  0  0  0  0  0  0  0  0  0  0  0
    8.3578   -0.6683    7.1114 C   0  0  0  0  0  0  0  0  0  0  0  0
    8.2279    0.1651    6.6745 H   0  0  0  0  0  0  0  0  0  0  0  0
    7.6544   -0.9442    8.2723 C   0  0  0  0  0  0  0  0  0  0  0  0
    7.0601   -0.2980    8.6355 H   0  0  0  0  0  0  0  0  0  0  0  0
    7.8193   -2.1631    8.9010 C   0  0  0  0  0  0  0  0  0  0  0  0
    7.3235   -2.3661    9.6863 H   0  0  0  0  0  0  0  0  0  0  0  0
    8.7036   -3.0856    8.3873 C   0  0  0  0  0  0  0  0  0  0  0  0
    8.8238   -3.9222    8.8236 H   0  0  0  0  0  0  0  0  0  0  0  0
    9.4198   -2.7970    7.2349 C   0  0  0  0  0  0  0  0  0  0  0  0
   10.0338   -3.4356    6.8929 H   0  0  0  0  0  0  0  0  0  0  0  0
    8.8916   -2.3407    3.9588 C   0  0  0  0  0  0  0  0  0  0  0  0
    9.3326   -3.3700    3.1249 C   0  0  0  0  0  0  0  0  0  0  0  0
   10.2562   -3.5863    3.0897 H   0  0  0  0  0  0  0  0  0  0  0  0
    8.4247   -4.0838    2.3455 C   0  0  0  0  0  0  0  0  0  0  0  0
    8.7355   -4.7766    1.7751 H   0  0  0  0  0  0  0  0  0  0  0  0
    7.0738   -3.7891    2.3974 C   0  0  0  0  0  0  0  0  0  0  0  0
    6.4604   -4.2670    1.8508 H   0  0  0  0  0  0  0  0  0  0  0  0
    6.6201   -2.8003    3.2447 C   0  0  0  0  0  0  0  0  0  0  0  0
    5.6906   -2.6084    3.2951 H   0  0  0  0  0  0  0  0  0  0  0  0
    7.5163   -2.0864    4.0224 C   0  0  0  0  0  0  0  0  0  0  0  0
    7.1924   -1.4133    4.6096 H   0  0  0  0  0  0  0  0  0  0  0  0
   13.4496   -0.1584    4.4442 C   0  0  0  0  0  0  0  0  0  0  0  0
   13.8695    0.3728    3.7232 H   0  0  0  0  0  0  0  0  0  0  0  0
   14.1663   -0.4539    5.0615 H   0  0  0  0  0  0  0  0  0  0  0  0
   12.2828    0.8856    5.3476 P   0  0  0  0  0  0  0  0  0  0  0  0
   12.2463    0.2745    7.0950 C   0  0  0  0  0  0  0  0  0  0  0  0
   13.2544   -0.5178    7.6301 C   0  0  0  0  0  0  0  0  0  0  0  0
   13.9974   -0.7675    7.0918 H   0  0  0  0  0  0  0  0  0  0  0  0
   13.1784   -0.9470    8.9534 C   0  0  0  0  0  0  0  0  0  0  0  0
   13.8637   -1.5004    9.3123 H   0  0  0  0  0  0  0  0  0  0  0  0
   12.1169   -0.5760    9.7434 C   0  0  0  0  0  0  0  0  0  0  0  0
   12.0745   -0.8636   10.6463 H   0  0  0  0  0  0  0  0  0  0  0  0
   11.1227    0.2093    9.2301 C   0  0  0  0  0  0  0  0  0  0  0  0
   10.3903    0.4702    9.7750 H   0  0  0  0  0  0  0  0  0  0  0  0
   11.1893    0.6224    7.9101 C   0  0  0  0  0  0  0  0  0  0  0  0
   10.4885    1.1580    7.5566 H   0  0  0  0  0  0  0  0  0  0  0  0
   13.0824    2.5405    5.6161 C   0  0  0  0  0  0  0  0  0  0  0  0
   12.9966    3.2152    6.8360 C   0  0  0  0  0  0  0  0  0  0  0  0
   12.5306    2.8126    7.5588 H   0  0  0  0  0  0  0  0  0  0  0  0
   13.5790    4.4639    7.0096 C   0  0  0  0  0  0  0  0  0  0  0  0
   13.5129    4.9013    7.8507 H   0  0  0  0  0  0  0  0  0  0  0  0
   14.2464    5.0665    5.9774 C   0  0  0  0  0  0  0  0  0  0  0  0
   14.6367    5.9242    6.0950 H   0  0  0  0  0  0  0  0  0  0  0  0
   14.3451    4.4204    4.7714 C   0  0  0  0  0  0  0  0  0  0  0  0
   14.8094    4.8357    4.0540 H   0  0  0  0  0  0  0  0  0  0  0  0
   13.7763    3.1656    4.5828 C   0  0  0  0  0  0  0  0  0  0  0  0
   13.8614    2.7330    3.7426 H   0  0  0  0  0  0  0  0  0  0  0  0
   11.9741   -1.0367    2.3584 C   0  0  0  0  0  0  0  0  0  0  0  0
   11.3849   -1.7744    2.0583 H   0  0  0  0  0  0  0  0  0  0  0  0
   12.6719   -0.9163    1.6670 H   0  0  0  0  0  0  0  0  0  0  0  0
   10.9841    0.4904    2.4480 P   0  0  0  0  0  0  0  0  0  0  0  0
   12.0213    1.9084    1.9100 C   0  0  0  0  0  0  0  0  0  0  0  0
   11.5390    3.1963    2.1286 C   0  0  0  0  0  0  0  0  0  0  0  0
   10.7174    3.3111    2.5902 H   0  0  0  0  0  0  0  0  0  0  0  0
   12.2266    4.3094    1.6923 C   0  0  0  0  0  0  0  0  0  0  0  0
   11.8703    5.1794    1.8335 H   0  0  0  0  0  0  0  0  0  0  0  0
   13.4533    4.1491    1.0400 C   0  0  0  0  0  0  0  0  0  0  0  0
   13.9410    4.9100    0.7481 H   0  0  0  0  0  0  0  0  0  0  0  0
   13.9532    2.8821    0.8218 C   0  0  0  0  0  0  0  0  0  0  0  0
   14.7850    2.7718    0.3762 H   0  0  0  0  0  0  0  0  0  0  0  0
   13.2452    1.7627    1.2527 C   0  0  0  0  0  0  0  0  0  0  0  0
   13.5970    0.8930    1.0984 H   0  0  0  0  0  0  0  0  0  0  0  0
    9.8005    0.4171    1.0246 C   0  0  0  0  0  0  0  0  0  0  0  0
    9.7741    1.3667    0.0067 C   0  0  0  0  0  0  0  0  0  0  0  0
   10.3944    2.0852    0.0216 H   0  0  0  0  0  0  0  0  0  0  0  0
    8.8497    1.2781   -1.0372 C   0  0  0  0  0  0  0  0  0  0  0  0
    8.8502    1.9308   -1.7275 H   0  0  0  0  0  0  0  0  0  0  0  0
    7.9339    0.2449   -1.0692 C   0  0  0  0  0  0  0  0  0  0  0  0
    7.3024    0.1855   -1.7773 H   0  0  0  0  0  0  0  0  0  0  0  0
    7.9414   -0.7011   -0.0698 C   0  0  0  0  0  0  0  0  0  0  0  0
    7.3084   -1.4083   -0.0865 H   0  0  0  0  0  0  0  0  0  0  0  0
    8.8681   -0.6267    0.9619 C   0  0  0  0  0  0  0  0  0  0  0  0
    8.8699   -1.2951    1.6367 H   0  0  0  0  0  0  0  0  0  0  0  0
    8.6035    5.0929    5.6909 Fe  0  3  0  0  0  0  0  0  0  0  0  0
    8.8341    3.2837    5.4414 N   0  0  0  0  0  0  0  0  0  0  0  0
    8.1515    2.7400    5.3296 H   0  0  0  0  0  0  0  0  0  0  0  0
   10.2242    5.4604    5.0726 C   0  0  0  0  0  0  0  0  0  0  0  0
   11.2495    5.6877    4.6060 O   0  0  0  0  0  0  0  0  0  0  0  0
    6.0075    7.3996    6.5512 B   0  5  0  0  0  0  0  0  0  0  0  0
    4.8722    8.4789    7.0282 C   0  0  0  0  0  0  0  0  0  0  0  0
    3.9219    8.1479    7.9955 C   0  0  0  0  0  0  0  0  0  0  0  0
    3.9245    7.2665    8.3523 H   0  0  0  0  0  0  0  0  0  0  0  0
    2.9784    9.0444    8.4539 C   0  0  0  0  0  0  0  0  0  0  0  0
    2.3453    8.7785    9.1090 H   0  0  0  0  0  0  0  0  0  0  0  0
    2.9578   10.3278    7.9566 C   0  0  0  0  0  0  0  0  0  0  0  0
    2.2980   10.9466    8.2507 H   0  0  0  0  0  0  0  0  0  0  0  0
    3.9062   10.7077    7.0291 C   0  0  0  0  0  0  0  0  0  0  0  0
    3.9214   11.5997    6.7026 H   0  0  0  0  0  0  0  0  0  0  0  0
    4.8397    9.7855    6.5707 C   0  0  0  0  0  0  0  0  0  0  0  0
    5.4768   10.0610    5.9221 H   0  0  0  0  0  0  0  0  0  0  0  0
    5.3008    5.9057    6.3404 C   0  0  0  0  0  0  0  0  0  0  0  0
    4.8699    5.8746    5.4507 H   0  0  0  0  0  0  0  0  0  0  0  0
    4.5949    5.7823    7.0226 H   0  0  0  0  0  0  0  0  0  0  0  0
    6.4913    4.5559    6.4686 P   0  0  0  0  0  0  0  0  0  0  0  0
    5.6869    3.0285    5.7919 C   0  0  0  0  0  0  0  0  0  0  0  0
    5.8112    1.7907    6.4023 C   0  0  0  0  0  0  0  0  0  0  0  0
    6.3090    1.7191    7.2085 H   0  0  0  0  0  0  0  0  0  0  0  0
    5.2263    0.6485    5.8632 C   0  0  0  0  0  0  0  0  0  0  0  0
    5.3306   -0.1866    6.3048 H   0  0  0  0  0  0  0  0  0  0  0  0
    4.5007    0.7170    4.6998 C   0  0  0  0  0  0  0  0  0  0  0  0
    4.1047   -0.0625    4.3307 H   0  0  0  0  0  0  0  0  0  0  0  0
    4.3583    1.9439    4.0734 C   0  0  0  0  0  0  0  0  0  0  0  0
    3.8583    2.0042    3.2691 H   0  0  0  0  0  0  0  0  0  0  0  0
    4.9340    3.0863    4.6053 C   0  0  0  0  0  0  0  0  0  0  0  0
    4.8188    3.9198    4.1621 H   0  0  0  0  0  0  0  0  0  0  0  0
    6.5746    4.0658    8.2392 C   0  0  0  0  0  0  0  0  0  0  0  0
    5.5634    4.3393    9.1434 C   0  0  0  0  0  0  0  0  0  0  0  0
    4.8068    4.8410    8.8647 H   0  0  0  0  0  0  0  0  0  0  0  0
    5.6431    3.8896   10.4517 C   0  0  0  0  0  0  0  0  0  0  0  0
    4.9529    4.1054   11.0679 H   0  0  0  0  0  0  0  0  0  0  0  0
    6.7193    3.1306   10.8668 C   0  0  0  0  0  0  0  0  0  0  0  0
    6.7620    2.8110   11.7598 H   0  0  0  0  0  0  0  0  0  0  0  0
    7.7276    2.8359    9.9765 C   0  0  0  0  0  0  0  0  0  0  0  0
    8.4690    2.3101   10.2528 H   0  0  0  0  0  0  0  0  0  0  0  0
    7.6581    3.3079    8.6824 C   0  0  0  0  0  0  0  0  0  0  0  0
    8.3634    3.1111    8.0777 H   0  0  0  0  0  0  0  0  0  0  0  0
    6.7164    7.8668    5.1143 C   0  0  0  0  0  0  0  0  0  0  0  0
    7.3100    8.6395    5.2886 H   0  0  0  0  0  0  0  0  0  0  0  0
    6.0069    8.1705    4.4929 H   0  0  0  0  0  0  0  0  0  0  0  0
    7.6852    6.5542    4.3015 P   0  0  0  0  0  0  0  0  0  0  0  0
    6.5844    5.6790    3.1143 C   0  0  0  0  0  0  0  0  0  0  0  0
    7.0418    4.4805    2.5775 C   0  0  0  0  0  0  0  0  0  0  0  0
    7.8697    4.1199    2.8735 H   0  0  0  0  0  0  0  0  0  0  0  0
    6.3100    3.8077    1.6216 C   0  0  0  0  0  0  0  0  0  0  0  0
    6.6452    3.0027    1.2454 H   0  0  0  0  0  0  0  0  0  0  0  0
    5.0765    4.3093    1.2091 C   0  0  0  0  0  0  0  0  0  0  0  0
    4.5597    3.8384    0.5665 H   0  0  0  0  0  0  0  0  0  0  0  0
    4.6112    5.4936    1.7381 C   0  0  0  0  0  0  0  0  0  0  0  0
    3.7704    5.8345    1.4551 H   0  0  0  0  0  0  0  0  0  0  0  0
    5.3571    6.1972    2.6806 C   0  0  0  0  0  0  0  0  0  0  0  0
    5.0351    7.0206    3.0270 H   0  0  0  0  0  0  0  0  0  0  0  0
    8.8159    7.3953    3.0964 C   0  0  0  0  0  0  0  0  0  0  0  0
    8.8439    7.0901    1.7492 C   0  0  0  0  0  0  0  0  0  0  0  0
    8.2335    6.4517    1.3989 H   0  0  0  0  0  0  0  0  0  0  0  0
    9.7645    7.7128    0.8951 C   0  0  0  0  0  0  0  0  0  0  0  0
    9.7716    7.5025   -0.0303 H   0  0  0  0  0  0  0  0  0  0  0  0
   10.6561    8.6275    1.3967 C   0  0  0  0  0  0  0  0  0  0  0  0
   11.2704    9.0653    0.8194 H   0  0  0  0  0  0  0  0  0  0  0  0
   10.6513    8.9053    2.7481 C   0  0  0  0  0  0  0  0  0  0  0  0
   11.2875    9.5162    3.1026 H   0  0  0  0  0  0  0  0  0  0  0  0
    9.7365    8.3069    3.5969 C   0  0  0  0  0  0  0  0  0  0  0  0
    9.7387    8.5188    4.5232 H   0  0  0  0  0  0  0  0  0  0  0  0
    7.1282    7.3402    7.8042 C   0  0  0  0  0  0  0  0  0  0  0  0
    6.7483    6.8070    8.5469 H   0  0  0  0  0  0  0  0  0  0  0  0
    7.2786    8.2588    8.1404 H   0  0  0  0  0  0  0  0  0  0  0  0
    8.7309    6.6231    7.3328 P   0  0  0  0  0  0  0  0  0  0  0  0
    9.8559    8.0682    7.0570 C   0  0  0  0  0  0  0  0  0  0  0  0
   11.2166    7.8225    6.9028 C   0  0  0  0  0  0  0  0  0  0  0  0
   11.5490    6.9402    7.0161 H   0  0  0  0  0  0  0  0  0  0  0  0
   12.0877    8.8412    6.5884 C   0  0  0  0  0  0  0  0  0  0  0  0
   13.0128    8.6555    6.4799 H   0  0  0  0  0  0  0  0  0  0  0  0
   11.6249   10.1313    6.4302 C   0  0  0  0  0  0  0  0  0  0  0  0
   12.2202   10.8269    6.1794 H   0  0  0  0  0  0  0  0  0  0  0  0
   10.2894   10.4016    6.6356 C   0  0  0  0  0  0  0  0  0  0  0  0
    9.9711   11.2942    6.5577 H   0  0  0  0  0  0  0  0  0  0  0  0
    9.4081    9.3859    6.9564 C   0  0  0  0  0  0  0  0  0  0  0  0
    8.4928    9.5866    7.1091 H   0  0  0  0  0  0  0  0  0  0  0  0
    9.5284    5.9654    8.8515 C   0  0  0  0  0  0  0  0  0  0  0  0
    9.3070    6.5604   10.1131 C   0  0  0  0  0  0  0  0  0  0  0  0
    8.6819    7.2707   10.2031 H   0  0  0  0  0  0  0  0  0  0  0  0
   10.0069    6.1040   11.2201 C   0  0  0  0  0  0  0  0  0  0  0  0
    9.8647    6.5139   12.0647 H   0  0  0  0  0  0  0  0  0  0  0  0
   10.9089    5.0627   11.1140 C   0  0  0  0  0  0  0  0  0  0  0  0
   11.3807    4.7605   11.8809 H   0  0  0  0  0  0  0  0  0  0  0  0
   11.1219    4.4636    9.8930 C   0  0  0  0  0  0  0  0  0  0  0  0
   11.7315    3.7384    9.8204 H   0  0  0  0  0  0  0  0  0  0  0  0
   10.4446    4.9156    8.7700 C   0  0  0  0  0  0  0  0  0  0  0  0
   10.6077    4.5039    7.9307 H   0  0  0  0  0  0  0  0  0  0  0  0
  1  2  1  0  0  0  0
  2  3  1  0  0  0  0
  4  1  1  0  0  0  0
  5  4  3  0  0  0  0
  6  7  1  0  0  0  0
  7  8  4  0  0  0  0
  8  9  1  0  0  0  0
 10  8  4  0  0  0  0
 11 10  1  0  0  0  0
 12 10  4  0  0  0  0
 13 12  1  0  0  0  0
 14 12  4  0  0  0  0
 15 14  1  0  0  0  0
 16  7  4  0  0  0  0
 17 16  1  0  0  0  0
 18  6  1  0  0  0  0
 19 18  1  0  0  0  0
 20 18  1  0  0  0  0
 21  1  1  0  0  0  0
 22 21  1  0  0  0  0
 23 22  4  0  0  0  0
 24 23  1  0  0  0  0
 25 23  4  0  0  0  0
 26 25  1  0  0  0  0
 27 25  4  0  0  0  0
 28 27  1  0  0  0  0
 29 27  4  0  0  0  0
 30 29  1  0  0  0  0
 31 22  4  0  0  0  0
 32 31  1  0  0  0  0
 33 21  1  0  0  0  0
 34 33  4  0  0  0  0
 35 34  1  0  0  0  0
 36 34  4  0  0  0  0
 37 36  1  0  0  0  0
 38 36  4  0  0  0  0
 39 38  1  0  0  0  0
 40 38  4  0  0  0  0
 41 40  1  0  0  0  0
 42 33  4  0  0  0  0
 43 42  1  0  0  0  0
 44  6  1  0  0  0  0
 45 44  1  0  0  0  0
 46 44  1  0  0  0  0
 47  1  1  0  0  0  0
 48 47  1  0  0  0  0
 49 48  4  0  0  0  0
 50 49  1  0  0  0  0
 51 49  4  0  0  0  0
 52 51  1  0  0  0  0
 53 51  4  0  0  0  0
 54 53  1  0  0  0  0
 55 53  4  0  0  0  0
 56 55  1  0  0  0  0
 57 48  4  0  0  0  0
 58 57  1  0  0  0  0
 59 47  1  0  0  0  0
 60 59  4  0  0  0  0
 61 60  1  0  0  0  0
 62 60  4  0  0  0  0
 63 62  1  0  0  0  0
 64 62  4  0  0  0  0
 65 64  1  0  0  0  0
 66 64  4  0  0  0  0
 67 66  1  0  0  0  0
 68 59  4  0  0  0  0
 69 68  1  0  0  0  0
 70  6  1  0  0  0  0
 71 70  1  0  0  0  0
 72 70  1  0  0  0  0
 73  1  1  0  0  0  0
 74 73  1  0  0  0  0
 75 74  4  0  0  0  0
 76 75  1  0  0  0  0
 77 75  4  0  0  0  0
 78 77  1  0  0  0  0
 79 77  4  0  0  0  0
 80 79  1  0  0  0  0
 81 79  4  0  0  0  0
 82 81  1  0  0  0  0
 83 74  4  0  0  0  0
 84 83  1  0  0  0  0
 85 73  1  0  0  0  0
 86 85  4  0  0  0  0
 87 86  1  0  0  0  0
 88 86  4  0  0  0  0
 89 88  1  0  0  0  0
 90 88  4  0  0  0  0
 91 90  1  0  0  0  0
 92 90  4  0  0  0  0
 93 92  1  0  0  0  0
 94 85  4  0  0  0  0
 95 94  1  0  0  0  0
 96 97  1  0  0  0  0
 97  2  1  0  0  0  0
 98 97  1  0  0  0  0
 99 96  1  0  0  0  0
100 99  3  0  0  0  0
101102  1  0  0  0  0
102103  4  0  0  0  0
103104  1  0  0  0  0
105103  4  0  0  0  0
106105  1  0  0  0  0
107105  4  0  0  0  0
108107  1  0  0  0  0
109107  4  0  0  0  0
110109  1  0  0  0  0
111102  4  0  0  0  0
112111  1  0  0  0  0
113101  1  0  0  0  0
114113  1  0  0  0  0
115113  1  0  0  0  0
116 96  1  0  0  0  0
117116  1  0  0  0  0
118117  4  0  0  0  0
119118  1  0  0  0  0
120118  4  0  0  0  0
121120  1  0  0  0  0
122120  4  0  0  0  0
123122  1  0  0  0  0
124122  4  0  0  0  0
125124  1  0  0  0  0
126117  4  0  0  0  0
127126  1  0  0  0  0
128116  1  0  0  0  0
129128  4  0  0  0  0
130129  1  0  0  0  0
131129  4  0  0  0  0
132131  1  0  0  0  0
133131  4  0  0  0  0
134133  1  0  0  0  0
135133  4  0  0  0  0
136135  1  0  0  0  0
137128  4  0  0  0  0
138137  1  0  0  0  0
139101  1  0  0  0  0
140139  1  0  0  0  0
141139  1  0  0  0  0
142 96  1  0  0  0  0
143142  1  0  0  0  0
144143  4  0  0  0  0
145144  1  0  0  0  0
146144  4  0  0  0  0
147146  1  0  0  0  0
148146  4  0  0  0  0
149148  1  0  0  0  0
150148  4  0  0  0  0
151150  1  0  0  0  0
152143  4  0  0  0  0
153152  1  0  0  0  0
154142  1  0  0  0  0
155154  4  0  0  0  0
156155  1  0  0  0  0
157155  4  0  0  0  0
158157  1  0  0  0  0
159157  4  0  0  0  0
160159  1  0  0  0  0
161159  4  0  0  0  0
162161  1  0  0  0  0
163154  4  0  0  0  0
164163  1  0  0  0  0
165101  1  0  0  0  0
166165  1  0  0  0  0
167165  1  0  0  0  0
168 96  1  0  0  0  0
169168  1  0  0  0  0
170169  4  0  0  0  0
171170  1  0  0  0  0
172170  4  0  0  0  0
173172  1  0  0  0  0
174172  4  0  0  0  0
175174  1  0  0  0  0
176174  4  0  0  0  0
177176  1  0  0  0  0
178169  4  0  0  0  0
179178  1  0  0  0  0
180168  1  0  0  0  0
181180  4  0  0  0  0
182181  1  0  0  0  0
183181  4  0  0  0  0
184183  1  0  0  0  0
185183  4  0  0  0  0
186185  1  0  0  0  0
187185  4  0  0  0  0
188187  1  0  0  0  0
189180  4  0  0  0  0
190189  1  0  0  0  0
 14 16  4  0  0  0  0
 18 21  1  0  0  0  0
 29 31  4  0  0  0  0
 40 42  4  0  0  0  0
 44 47  1  0  0  0  0
 55 57  4  0  0  0  0
 66 68  4  0  0  0  0
 70 73  1  0  0  0  0
 81 83  4  0  0  0  0
 92 94  4  0  0  0  0
109111  4  0  0  0  0
113116  1  0  0  0  0
124126  4  0  0  0  0
135137  4  0  0  0  0
139142  1  0  0  0  0
150152  4  0  0  0  0
161163  4  0  0  0  0
165168  1  0  0  0  0
176178  4  0  0  0  0
187189  4  0  0  0  0
M  CHG  4   1   1   6  -1  96   1 101  -1
M  END
$$$$
ONOBID

From CSD data. Using bond type 'Any'. No disordered atoms. Largest molecule.
190207  0  0  0  0  0  0  0  0999 V2000
    1.0645    6.0021    6.6422 Fe  0  3  0  0  0  0  0  0  0  0  0  0
    1.1354    4.3001    5.8570 N   0  0  0  0  0  0  0  0  0  0  0  0
    1.0214    4.1561    4.9721 H   0  0  0  0  0  0  0  0  0  0  0  0
    2.1234    5.5340    7.9547 C   0  0  0  0  0  0  0  0  0  0  0  0
    2.8799    5.2140    8.7738 O   0  0  0  0  0  0  0  0  0  0  0  0
   -0.1704    9.2518    5.7879 B   0  5  0  0  0  0  0  0  0  0  0  0
   -0.6591   10.7736    5.4360 C   0  0  0  0  0  0  0  0  0  0  0  0
   -0.9606   11.2163    4.1517 C   0  0  0  0  0  0  0  0  0  0  0  0
   -0.9371   10.6066    3.4488 H   0  0  0  0  0  0  0  0  0  0  0  0
   -1.2964   12.5391    3.8813 C   0  0  0  0  0  0  0  0  0  0  0  0
   -1.4896   12.7960    3.0091 H   0  0  0  0  0  0  0  0  0  0  0  0
   -1.3441   13.4645    4.8899 C   0  0  0  0  0  0  0  0  0  0  0  0
   -1.5675   14.3492    4.7041 H   0  0  0  0  0  0  0  0  0  0  0  0
   -1.0624   13.0798    6.1704 C   0  0  0  0  0  0  0  0  0  0  0  0
   -1.0993   13.7005    6.8623 H   0  0  0  0  0  0  0  0  0  0  0  0
   -0.7194   11.7588    6.4393 C   0  0  0  0  0  0  0  0  0  0  0  0
   -0.5236   11.5175    7.3160 H   0  0  0  0  0  0  0  0  0  0  0  0
   -0.3827    8.2786    4.4655 C   0  0  0  0  0  0  0  0  0  0  0  0
    0.3211    8.4554    3.8226 H   0  0  0  0  0  0  0  0  0  0  0  0
   -1.2315    8.4884    4.0459 H   0  0  0  0  0  0  0  0  0  0  0  0
   -0.3568    6.5321    4.9117 P   0  0  0  0  0  0  0  0  0  0  0  0
   -2.1094    6.0730    5.2561 C   0  0  0  0  0  0  0  0  0  0  0  0
   -3.1941    6.8186    4.8149 C   0  0  0  0  0  0  0  0  0  0  0  0
   -3.0487    7.6048    4.3398 H   0  0  0  0  0  0  0  0  0  0  0  0
   -4.4946    6.4061    5.0728 C   0  0  0  0  0  0  0  0  0  0  0  0
   -5.2119    6.9171    4.7723 H   0  0  0  0  0  0  0  0  0  0  0  0
   -4.7232    5.2433    5.7724 C   0  0  0  0  0  0  0  0  0  0  0  0
   -5.5949    4.9692    5.9478 H   0  0  0  0  0  0  0  0  0  0  0  0
   -3.6617    4.4850    6.2115 C   0  0  0  0  0  0  0  0  0  0  0  0
   -3.8161    3.6938    6.6765 H   0  0  0  0  0  0  0  0  0  0  0  0
   -2.3565    4.9004    5.9616 C   0  0  0  0  0  0  0  0  0  0  0  0
   -1.6436    4.3883    6.2698 H   0  0  0  0  0  0  0  0  0  0  0  0
   -0.1386    5.6339    3.3061 C   0  0  0  0  0  0  0  0  0  0  0  0
   -0.8704    4.4820    3.0061 C   0  0  0  0  0  0  0  0  0  0  0  0
   -1.4870    4.1520    3.6204 H   0  0  0  0  0  0  0  0  0  0  0  0
   -0.6812    3.8226    1.7919 C   0  0  0  0  0  0  0  0  0  0  0  0
   -1.1789    3.0608    1.5986 H   0  0  0  0  0  0  0  0  0  0  0  0
    0.2312    4.2854    0.8846 C   0  0  0  0  0  0  0  0  0  0  0  0
    0.3569    3.8366    0.0799 H   0  0  0  0  0  0  0  0  0  0  0  0
    0.9646    5.4190    1.1693 C   0  0  0  0  0  0  0  0  0  0  0  0
    1.5822    5.7349    0.5501 H   0  0  0  0  0  0  0  0  0  0  0  0
    0.7886    6.0935    2.3723 C   0  0  0  0  0  0  0  0  0  0  0  0
    1.2914    6.8541    2.5554 H   0  0  0  0  0  0  0  0  0  0  0  0
   -1.0340    8.6671    7.0941 C   0  0  0  0  0  0  0  0  0  0  0  0
   -1.9103    8.3855    6.7870 H   0  0  0  0  0  0  0  0  0  0  0  0
   -1.1624    9.3883    7.7298 H   0  0  0  0  0  0  0  0  0  0  0  0
   -0.2368    7.2641    7.9526 P   0  0  0  0  0  0  0  0  0  0  0  0
   -1.5761    6.3943    8.8805 C   0  0  0  0  0  0  0  0  0  0  0  0
   -1.4780    5.0247    9.0822 C   0  0  0  0  0  0  0  0  0  0  0  0
   -0.7860    4.5489    8.6842 H   0  0  0  0  0  0  0  0  0  0  0  0
   -2.4040    4.3569    9.8721 C   0  0  0  0  0  0  0  0  0  0  0  0
   -2.3362    3.4357    9.9890 H   0  0  0  0  0  0  0  0  0  0  0  0
   -3.4258    5.0579   10.4852 C   0  0  0  0  0  0  0  0  0  0  0  0
   -4.0353    4.6145   11.0304 H   0  0  0  0  0  0  0  0  0  0  0  0
   -3.5360    6.4200   10.2831 C   0  0  0  0  0  0  0  0  0  0  0  0
   -4.2289    6.8921   10.6848 H   0  0  0  0  0  0  0  0  0  0  0  0
   -2.6184    7.0849    9.4849 C   0  0  0  0  0  0  0  0  0  0  0  0
   -2.7020    8.0016    9.3519 H   0  0  0  0  0  0  0  0  0  0  0  0
    0.5557    8.0138    9.4447 C   0  0  0  0  0  0  0  0  0  0  0  0
    0.6497    9.3833    9.6692 C   0  0  0  0  0  0  0  0  0  0  0  0
    0.3245    9.9745    9.0298 H   0  0  0  0  0  0  0  0  0  0  0  0
    1.2246    9.8837   10.8358 C   0  0  0  0  0  0  0  0  0  0  0  0
    1.2666   10.8030   10.9716 H   0  0  0  0  0  0  0  0  0  0  0  0
    1.7315    9.0242   11.7914 C   0  0  0  0  0  0  0  0  0  0  0  0
    2.1296    9.3628   12.5608 H   0  0  0  0  0  0  0  0  0  0  0  0
    1.6423    7.6632   11.5960 C   0  0  0  0  0  0  0  0  0  0  0  0
    1.9744    7.0792   12.2388 H   0  0  0  0  0  0  0  0  0  0  0  0
    1.0559    7.1606   10.4366 C   0  0  0  0  0  0  0  0  0  0  0  0
    0.9958    6.2412   10.3181 H   0  0  0  0  0  0  0  0  0  0  0  0
    1.4581    9.3496    6.1180 C   0  0  0  0  0  0  0  0  0  0  0  0
    1.5705    9.7921    6.9728 H   0  0  0  0  0  0  0  0  0  0  0  0
    1.8737    9.9094    5.4423 H   0  0  0  0  0  0  0  0  0  0  0  0
    2.3495    7.7518    6.1742 P   0  0  0  0  0  0  0  0  0  0  0  0
    3.8295    8.0620    7.2464 C   0  0  0  0  0  0  0  0  0  0  0  0
    3.9422    9.1425    8.0984 C   0  0  0  0  0  0  0  0  0  0  0  0
    3.2430    9.7553    8.1506 H   0  0  0  0  0  0  0  0  0  0  0  0
    5.0746    9.3368    8.8793 C   0  0  0  0  0  0  0  0  0  0  0  0
    5.1241   10.0816    9.4342 H   0  0  0  0  0  0  0  0  0  0  0  0
    6.1117    8.4593    8.8469 C   0  0  0  0  0  0  0  0  0  0  0  0
    6.8767    8.6045    9.3566 H   0  0  0  0  0  0  0  0  0  0  0  0
    6.0028    7.3511    8.0415 C   0  0  0  0  0  0  0  0  0  0  0  0
    6.6922    6.7253    8.0213 H   0  0  0  0  0  0  0  0  0  0  0  0
    4.8787    7.1575    7.2624 C   0  0  0  0  0  0  0  0  0  0  0  0
    4.8247    6.3970    6.7306 H   0  0  0  0  0  0  0  0  0  0  0  0
    3.2484    7.6000    4.5673 C   0  0  0  0  0  0  0  0  0  0  0  0
    3.6595    8.6833    3.8077 C   0  0  0  0  0  0  0  0  0  0  0  0
    3.4628    9.5437    4.0976 H   0  0  0  0  0  0  0  0  0  0  0  0
    4.3565    8.5048    2.6276 C   0  0  0  0  0  0  0  0  0  0  0  0
    4.6132    9.2455    2.1252 H   0  0  0  0  0  0  0  0  0  0  0  0
    4.6711    7.2432    2.1939 C   0  0  0  0  0  0  0  0  0  0  0  0
    5.1383    7.1246    1.3988 H   0  0  0  0  0  0  0  0  0  0  0  0
    4.2952    6.1534    2.9389 C   0  0  0  0  0  0  0  0  0  0  0  0
    4.5215    5.2958    2.6565 H   0  0  0  0  0  0  0  0  0  0  0  0
    3.5775    6.3336    4.1129 C   0  0  0  0  0  0  0  0  0  0  0  0
    3.3118    5.5896    4.6031 H   0  0  0  0  0  0  0  0  0  0  0  0
    2.1596    1.5787    5.3670 Fe  0  0  0  0  0  0  0  0  0  0  0  0
    1.5648    3.1063    6.2950 N   0  0  0  0  0  0  0  0  0  0  0  0
    1.6699    3.2273    7.1796 H   0  0  0  0  0  0  0  0  0  0  0  0
    2.4135    2.4640    3.8752 C   0  0  0  0  0  0  0  0  0  0  0  0
    2.6574    3.0658    2.9203 O   0  0  0  0  0  0  0  0  0  0  0  0
    3.7025   -3.3230    6.1662 C   0  0  0  0  0  0  0  0  0  0  0  0
    3.8787   -4.1447    5.0335 C   0  0  0  0  0  0  0  0  0  0  0  0
    3.6498   -3.8048    4.1987 H   0  0  0  0  0  0  0  0  0  0  0  0
    4.3765   -5.4334    5.1076 C   0  0  0  0  0  0  0  0  0  0  0  0
    4.4852   -5.9396    4.3351 H   0  0  0  0  0  0  0  0  0  0  0  0
    4.7073   -5.9558    6.3192 C   0  0  0  0  0  0  0  0  0  0  0  0
    5.0303   -6.8255    6.3780 H   0  0  0  0  0  0  0  0  0  0  0  0
    4.5640   -5.1974    7.4587 C   0  0  0  0  0  0  0  0  0  0  0  0
    4.7935   -5.5551    8.2869 H   0  0  0  0  0  0  0  0  0  0  0  0
    4.0706   -3.8870    7.3731 C   0  0  0  0  0  0  0  0  0  0  0  0
    3.9889   -3.3825    8.1506 H   0  0  0  0  0  0  0  0  0  0  0  0
    3.1717   -1.7858    5.9908 B   0  5  0  0  0  0  0  0  0  0  0  0
    2.8976   -1.0814    7.4657 C   0  0  0  0  0  0  0  0  0  0  0  0
    3.7467   -0.8515    7.8732 H   0  0  0  0  0  0  0  0  0  0  0  0
    2.4503   -1.7177    8.0448 H   0  0  0  0  0  0  0  0  0  0  0  0
    1.8798    0.4132    7.3226 P   0  0  0  0  0  0  0  0  0  0  0  0
    0.1397   -0.1317    7.5988 C   0  0  0  0  0  0  0  0  0  0  0  0
   -0.1930   -1.3144    8.2270 C   0  0  0  0  0  0  0  0  0  0  0  0
    0.4781   -1.9017    8.4914 H   0  0  0  0  0  0  0  0  0  0  0  0
   -1.5244   -1.6362    8.4672 C   0  0  0  0  0  0  0  0  0  0  0  0
   -1.7374   -2.4320    8.9005 H   0  0  0  0  0  0  0  0  0  0  0  0
   -2.5316   -0.7825    8.0683 C   0  0  0  0  0  0  0  0  0  0  0  0
   -3.4201   -1.0055    8.2258 H   0  0  0  0  0  0  0  0  0  0  0  0
   -2.2168    0.3991    7.4361 C   0  0  0  0  0  0  0  0  0  0  0  0
   -2.8924    0.9803    7.1679 H   0  0  0  0  0  0  0  0  0  0  0  0
   -0.8855    0.7192    7.2001 C   0  0  0  0  0  0  0  0  0  0  0  0
   -0.6767    1.5163    6.7682 H   0  0  0  0  0  0  0  0  0  0  0  0
    2.1155    1.3400    8.9111 C   0  0  0  0  0  0  0  0  0  0  0  0
    3.3214    1.2852    9.5947 C   0  0  0  0  0  0  0  0  0  0  0  0
    4.0111    0.7563    9.2649 H   0  0  0  0  0  0  0  0  0  0  0  0
    3.5113    2.0068   10.7634 C   0  0  0  0  0  0  0  0  0  0  0  0
    4.3221    1.9497   11.2161 H   0  0  0  0  0  0  0  0  0  0  0  0
    2.5051    2.8093   11.2587 C   0  0  0  0  0  0  0  0  0  0  0  0
    2.6377    3.2992   12.0389 H   0  0  0  0  0  0  0  0  0  0  0  0
    1.3039    2.8808   10.5922 C   0  0  0  0  0  0  0  0  0  0  0  0
    0.6239    3.4222   10.9223 H   0  0  0  0  0  0  0  0  0  0  0  0
    1.0991    2.1505    9.4271 C   0  0  0  0  0  0  0  0  0  0  0  0
    0.2807    2.2009    8.9875 H   0  0  0  0  0  0  0  0  0  0  0  0
    1.7603   -1.8036    5.1118 C   0  0  0  0  0  0  0  0  0  0  0  0
    1.0314   -2.0577    5.6986 H   0  0  0  0  0  0  0  0  0  0  0  0
    1.8321   -2.4824    4.4220 H   0  0  0  0  0  0  0  0  0  0  0  0
    1.3437   -0.2113    4.3233 P   0  0  0  0  0  0  0  0  0  0  0  0
    1.7999   -0.4401    2.5510 C   0  0  0  0  0  0  0  0  0  0  0  0
    2.5631   -1.5105    2.0937 C   0  0  0  0  0  0  0  0  0  0  0  0
    2.8676   -2.1549    2.6941 H   0  0  0  0  0  0  0  0  0  0  0  0
    2.8745   -1.6205    0.7358 C   0  0  0  0  0  0  0  0  0  0  0  0
    3.3690   -2.3492    0.4373 H   0  0  0  0  0  0  0  0  0  0  0  0
    2.4610   -0.6658   -0.1655 C   0  0  0  0  0  0  0  0  0  0  0  0
    2.6927   -0.7365   -1.0626 H   0  0  0  0  0  0  0  0  0  0  0  0
    1.6996    0.3943    0.2732 C   0  0  0  0  0  0  0  0  0  0  0  0
    1.4071    1.0369   -0.3315 H   0  0  0  0  0  0  0  0  0  0  0  0
    1.3681    0.5040    1.6238 C   0  0  0  0  0  0  0  0  0  0  0  0
    0.8501    1.2213    1.9089 H   0  0  0  0  0  0  0  0  0  0  0  0
   -0.4874   -0.2037    4.1197 C   0  0  0  0  0  0  0  0  0  0  0  0
   -1.1547    1.0137    4.0819 C   0  0  0  0  0  0  0  0  0  0  0  0
   -0.6673    1.8039    4.1329 H   0  0  0  0  0  0  0  0  0  0  0  0
   -2.5344    1.0695    3.9690 C   0  0  0  0  0  0  0  0  0  0  0  0
   -2.9665    1.8921    3.9401 H   0  0  0  0  0  0  0  0  0  0  0  0
   -3.2651   -0.0974    3.9001 C   0  0  0  0  0  0  0  0  0  0  0  0
   -4.1934   -0.0641    3.8414 H   0  0  0  0  0  0  0  0  0  0  0  0
   -2.6124   -1.3169    3.9175 C   0  0  0  0  0  0  0  0  0  0  0  0
   -3.1030   -2.1043    3.8578 H   0  0  0  0  0  0  0  0  0  0  0  0
   -1.2357   -1.3719    4.0229 C   0  0  0  0  0  0  0  0  0  0  0  0
   -0.8055   -2.1965    4.0294 H   0  0  0  0  0  0  0  0  0  0  0  0
    4.4115   -0.9614    5.2463 C   0  0  0  0  0  0  0  0  0  0  0  0
    4.4630   -1.2476    4.3209 H   0  0  0  0  0  0  0  0  0  0  0  0
    5.2478   -1.2064    5.6751 H   0  0  0  0  0  0  0  0  0  0  0  0
    4.2428    0.8544    5.2890 P   0  0  0  0  0  0  0  0  0  0  0  0
    5.2272    1.4719    6.7285 C   0  0  0  0  0  0  0  0  0  0  0  0
    6.2292    0.7557    7.3741 C   0  0  0  0  0  0  0  0  0  0  0  0
    6.4501   -0.0971    7.0762 H   0  0  0  0  0  0  0  0  0  0  0  0
    6.9070    1.3041    8.4661 C   0  0  0  0  0  0  0  0  0  0  0  0
    7.5562    0.8049    8.9076 H   0  0  0  0  0  0  0  0  0  0  0  0
    6.6143    2.5851    8.8906 C   0  0  0  0  0  0  0  0  0  0  0  0
    7.0740    2.9539    9.6105 H   0  0  0  0  0  0  0  0  0  0  0  0
    5.6387    3.3158    8.2491 C   0  0  0  0  0  0  0  0  0  0  0  0
    5.4508    4.1841    8.5244 H   0  0  0  0  0  0  0  0  0  0  0  0
    4.9376    2.7578    7.1928 C   0  0  0  0  0  0  0  0  0  0  0  0
    4.2603    3.2485    6.7847 H   0  0  0  0  0  0  0  0  0  0  0  0
    5.3212    1.4600    3.9222 C   0  0  0  0  0  0  0  0  0  0  0  0
    5.5065    0.7683    2.7647 C   0  0  0  0  0  0  0  0  0  0  0  0
    5.0873   -0.0537    2.6495 H   0  0  0  0  0  0  0  0  0  0  0  0
    6.3128    1.2761    1.7552 C   0  0  0  0  0  0  0  0  0  0  0  0
    6.4403    0.7750    0.9827 H   0  0  0  0  0  0  0  0  0  0  0  0
    6.9187    2.4838    1.8690 C   0  0  0  0  0  0  0  0  0  0  0  0
    7.4290    2.8292    1.1731 H   0  0  0  0  0  0  0  0  0  0  0  0
    6.7622    3.1651    3.0096 C   0  0  0  0  0  0  0  0  0  0  0  0
    7.1758    3.9910    3.1126 H   0  0  0  0  0  0  0  0  0  0  0  0
    5.9916    2.6548    4.0360 C   0  0  0  0  0  0  0  0  0  0  0  0
    5.9255    3.1343    4.8287 H   0  0  0  0  0  0  0  0  0  0  0  0
  1  2  1  0  0  0  0
  2  3  1  0  0  0  0
  4  1  1  0  0  0  0
  5  4  3  0  0  0  0
  6  7  1  0  0  0  0
  7  8  4  0  0  0  0
  8  9  1  0  0  0  0
 10  8  4  0  0  0  0
 11 10  1  0  0  0  0
 12 10  4  0  0  0  0
 13 12  1  0  0  0  0
 14 12  4  0  0  0  0
 15 14  1  0  0  0  0
 16  7  4  0  0  0  0
 17 16  1  0  0  0  0
 18  6  1  0  0  0  0
 19 18  1  0  0  0  0
 20 18  1  0  0  0  0
 21  1  1  0  0  0  0
 22 21  1  0  0  0  0
 23 22  4  0  0  0  0
 24 23  1  0  0  0  0
 25 23  4  0  0  0  0
 26 25  1  0  0  0  0
 27 25  4  0  0  0  0
 28 27  1  0  0  0  0
 29 27  4  0  0  0  0
 30 29  1  0  0  0  0
 31 22  4  0  0  0  0
 32 31  1  0  0  0  0
 33 21  1  0  0  0  0
 34 33  4  0  0  0  0
 35 34  1  0  0  0  0
 36 34  4  0  0  0  0
 37 36  1  0  0  0  0
 38 36  4  0  0  0  0
 39 38  1  0  0  0  0
 40 38  4  0  0  0  0
 41 40  1  0  0  0  0
 42 33  4  0  0  0  0
 43 42  1  0  0  0  0
 44  6  1  0  0  0  0
 45 44  1  0  0  0  0
 46 44  1  0  0  0  0
 47  1  1  0  0  0  0
 48 47  1  0  0  0  0
 49 48  4  0  0  0  0
 50 49  1  0  0  0  0
 51 49  4  0  0  0  0
 52 51  1  0  0  0  0
 53 51  4  0  0  0  0
 54 53  1  0  0  0  0
 55 53  4  0  0  0  0
 56 55  1  0  0  0  0
 57 48  4  0  0  0  0
 58 57  1  0  0  0  0
 59 47  1  0  0  0  0
 60 59  4  0  0  0  0
 61 60  1  0  0  0  0
 62 60  4  0  0  0  0
 63 62  1  0  0  0  0
 64 62  4  0  0  0  0
 65 64  1  0  0  0  0
 66 64  4  0  0  0  0
 67 66  1  0  0  0  0
 68 59  4  0  0  0  0
 69 68  1  0  0  0  0
 70  6  1  0  0  0  0
 71 70  1  0  0  0  0
 72 70  1  0  0  0  0
 73  1  1  0  0  0  0
 74 73  1  0  0  0  0
 75 74  4  0  0  0  0
 76 75  1  0  0  0  0
 77 75  4  0  0  0  0
 78 77  1  0  0  0  0
 79 77  4  0  0  0  0
 80 79  1  0  0  0  0
 81 79  4  0  0  0  0
 82 81  1  0  0  0  0
 83 74  4  0  0  0  0
 84 83  1  0  0  0  0
 85 73  1  0  0  0  0
 86 85  4  0  0  0  0
 87 86  1  0  0  0  0
 88 86  4  0  0  0  0
 89 88  1  0  0  0  0
 90 88  4  0  0  0  0
 91 90  1  0  0  0  0
 92 90  4  0  0  0  0
 93 92  1  0  0  0  0
 94 85  4  0  0  0  0
 95 94  1  0  0  0  0
 96 97  1  0  0  0  0
 97  2  1  0  0  0  0
 98 97  1  0  0  0  0
 99 96  1  0  0  0  0
100 99  3  0  0  0  0
101102  4  0  0  0  0
102103  1  0  0  0  0
104102  4  0  0  0  0
105104  1  0  0  0  0
106104  4  0  0  0  0
107106  1  0  0  0  0
108106  4  0  0  0  0
109108  1  0  0  0  0
110101  4  0  0  0  0
111110  1  0  0  0  0
112101  1  0  0  0  0
113112  1  0  0  0  0
114113  1  0  0  0  0
115113  1  0  0  0  0
116 96  1  0  0  0  0
117116  1  0  0  0  0
118117  4  0  0  0  0
119118  1  0  0  0  0
120118  4  0  0  0  0
121120  1  0  0  0  0
122120  4  0  0  0  0
123122  1  0  0  0  0
124122  4  0  0  0  0
125124  1  0  0  0  0
126117  4  0  0  0  0
127126  1  0  0  0  0
128116  1  0  0  0  0
129128  4  0  0  0  0
130129  1  0  0  0  0
131129  4  0  0  0  0
132131  1  0  0  0  0
133131  4  0  0  0  0
134133  1  0  0  0  0
135133  4  0  0  0  0
136135  1  0  0  0  0
137128  4  0  0  0  0
138137  1  0  0  0  0
139112  1  0  0  0  0
140139  1  0  0  0  0
141139  1  0  0  0  0
142 96  1  0  0  0  0
143142  1  0  0  0  0
144143  4  0  0  0  0
145144  1  0  0  0  0
146144  4  0  0  0  0
147146  1  0  0  0  0
148146  4  0  0  0  0
149148  1  0  0  0  0
150148  4  0  0  0  0
151150  1  0  0  0  0
152143  4  0  0  0  0
153152  1  0  0  0  0
154142  1  0  0  0  0
155154  4  0  0  0  0
156155  1  0  0  0  0
157155  4  0  0  0  0
158157  1  0  0  0  0
159157  4  0  0  0  0
160159  1  0  0  0  0
161159  4  0  0  0  0
162161  1  0  0  0  0
163154  4  0  0  0  0
164163  1  0  0  0  0
165112  1  0  0  0  0
166165  1  0  0  0  0
167165  1  0  0  0  0
168 96  1  0  0  0  0
169168  1  0  0  0  0
170169  4  0  0  0  0
171170  1  0  0  0  0
172170  4  0  0  0  0
173172  1  0  0  0  0
174172  4  0  0  0  0
175174  1  0  0  0  0
176174  4  0  0  0  0
177176  1  0  0  0  0
178169  4  0  0  0  0
179178  1  0  0  0  0
180168  1  0  0  0  0
181180  4  0  0  0  0
182181  1  0  0  0  0
183181  4  0  0  0  0
184183  1  0  0  0  0
185183  4  0  0  0  0
186185  1  0  0  0  0
187185  4  0  0  0  0
188187  1  0  0  0  0
189180  4  0  0  0  0
190189  1  0  0  0  0
 14 16  4  0  0  0  0
 18 21  1  0  0  0  0
 29 31  4  0  0  0  0
 40 42  4  0  0  0  0
 44 47  1  0  0  0  0
 55 57  4  0  0  0  0
 66 68  4  0  0  0  0
 70 73  1  0  0  0  0
 81 83  4  0  0  0  0
 92 94  4  0  0  0  0
108110  4  0  0  0  0
113116  1  0  0  0  0
124126  4  0  0  0  0
135137  4  0  0  0  0
139142  1  0  0  0  0
150152  4  0  0  0  0
161163  4  0  0  0  0
165168  1  0  0  0  0
176178  4  0  0  0  0
187189  4  0  0  0  0
M  CHG  3   1   1   6  -1 112  -1
M  END
$$$$
OPAWUZ

From CSD data. Using bond type 'Any'. No disordered atoms. Largest molecule.
 72 77  0  0  0  0  0  0  0  0999 V2000
   -0.2064   10.6369    1.7645 P   0  0  0  0  0  0  0  0  0  0  0  0
   -0.1701   11.5916    3.2791 C   0  0  0  0  0  0  0  0  0  0  0  0
   -1.1032   12.9304    3.3789 B   0  0  0  0  0  0  0  0  0  0  0  0
   -1.7752   13.1508    2.5026 H   0  0  0  0  0  0  0  0  0  0  0  0
   -1.5559   13.1330    4.3979 H   0  0  0  0  0  0  0  0  0  0  0  0
   -0.1701   13.8099    3.2791 H   0  0  0  0  0  0  0  0  0  0  0  0
   -1.4278    9.0608    1.7791 S   0  0  0  0  0  0  0  0  0  0  0  0
   -0.7187   11.7302    0.4087 C   0  0  0  0  0  0  0  0  0  0  0  0
    0.2181   12.4430   -0.3304 C   0  0  0  0  0  0  0  0  0  0  0  0
    1.1441   12.3359   -0.1469 H   0  0  0  0  0  0  0  0  0  0  0  0
   -0.1889   13.3095   -1.3344 C   0  0  0  0  0  0  0  0  0  0  0  0
    0.4571   13.8055   -1.8245 H   0  0  0  0  0  0  0  0  0  0  0  0
   -1.5329   13.4516   -1.6205 C   0  0  0  0  0  0  0  0  0  0  0  0
   -1.8110   14.0474   -2.3058 H   0  0  0  0  0  0  0  0  0  0  0  0
   -2.4712   12.7291   -0.9113 C   0  0  0  0  0  0  0  0  0  0  0  0
   -3.3947   12.8198   -1.1188 H   0  0  0  0  0  0  0  0  0  0  0  0
   -2.0705   11.8711    0.1031 C   0  0  0  0  0  0  0  0  0  0  0  0
   -2.7200   11.3784    0.5902 H   0  0  0  0  0  0  0  0  0  0  0  0
    1.4648   10.0718    1.3140 C   0  0  0  0  0  0  0  0  0  0  0  0
    2.6124   10.4525    2.0006 C   0  0  0  0  0  0  0  0  0  0  0  0
    2.5569   11.0904    2.7019 H   0  0  0  0  0  0  0  0  0  0  0  0
    3.8392    9.8994    1.6616 C   0  0  0  0  0  0  0  0  0  0  0  0
    4.6184   10.1537    2.1432 H   0  0  0  0  0  0  0  0  0  0  0  0
    3.9408    8.9863    0.6354 C   0  0  0  0  0  0  0  0  0  0  0  0
    4.7817    8.6024    0.4210 H   0  0  0  0  0  0  0  0  0  0  0  0
    2.8153    8.6329   -0.0791 C   0  0  0  0  0  0  0  0  0  0  0  0
    2.8854    8.0265   -0.8066 H   0  0  0  0  0  0  0  0  0  0  0  0
    1.5791    9.1631    0.2642 C   0  0  0  0  0  0  0  0  0  0  0  0
    0.8041    8.9038   -0.2217 H   0  0  0  0  0  0  0  0  0  0  0  0
    0.9787    5.0571    2.9710 C   0  0  0  0  0  0  0  0  0  0  0  0
    0.7430    4.3747    2.2940 H   0  0  0  0  0  0  0  0  0  0  0  0
    1.2885    4.5885    3.7867 H   0  0  0  0  0  0  0  0  0  0  0  0
    2.0659    5.9199    2.4488 C   0  0  0  0  0  0  0  0  0  0  0  0
    1.7728    6.3490    1.6172 H   0  0  0  0  0  0  0  0  0  0  0  0
    2.8600    5.3737    2.2704 H   0  0  0  0  0  0  0  0  0  0  0  0
    2.2843    6.6073    3.1112 H   0  0  0  0  0  0  0  0  0  0  0  0
   -0.1701    7.7207    3.2791 Li  0  3  0  0  0  0  0  0  0  0  0  0
   -0.1701    5.8416    3.2791 O   0  0  0  0  0  0  0  0  0  0  0  0
   -0.1338   10.6369    4.7936 P   0  0  0  0  0  0  0  0  0  0  0  0
    0.7629   12.9304    3.1792 B   0  0  0  0  0  0  0  0  0  0  0  0
    1.4350   13.1508    4.0555 H   0  0  0  0  0  0  0  0  0  0  0  0
    1.2156   13.1330    2.1602 H   0  0  0  0  0  0  0  0  0  0  0  0
    1.0875    9.0608    4.7790 S   0  0  0  0  0  0  0  0  0  0  0  0
    0.3784   11.7302    6.1494 C   0  0  0  0  0  0  0  0  0  0  0  0
   -0.5584   12.4430    6.8885 C   0  0  0  0  0  0  0  0  0  0  0  0
   -1.4844   12.3359    6.7050 H   0  0  0  0  0  0  0  0  0  0  0  0
   -0.1514   13.3095    7.8926 C   0  0  0  0  0  0  0  0  0  0  0  0
   -0.7973   13.8055    8.3826 H   0  0  0  0  0  0  0  0  0  0  0  0
    1.1927   13.4516    8.1786 C   0  0  0  0  0  0  0  0  0  0  0  0
    1.4708   14.0474    8.8640 H   0  0  0  0  0  0  0  0  0  0  0  0
    2.1310   12.7291    7.4694 C   0  0  0  0  0  0  0  0  0  0  0  0
    3.0544   12.8198    7.6769 H   0  0  0  0  0  0  0  0  0  0  0  0
    1.7302   11.8711    6.4550 C   0  0  0  0  0  0  0  0  0  0  0  0
    2.3797   11.3784    5.9679 H   0  0  0  0  0  0  0  0  0  0  0  0
   -1.8051   10.0718    5.2441 C   0  0  0  0  0  0  0  0  0  0  0  0
   -2.9527   10.4525    4.5575 C   0  0  0  0  0  0  0  0  0  0  0  0
   -2.8972   11.0904    3.8562 H   0  0  0  0  0  0  0  0  0  0  0  0
   -4.1794    9.8994    4.8966 C   0  0  0  0  0  0  0  0  0  0  0  0
   -4.9586   10.1537    4.4149 H   0  0  0  0  0  0  0  0  0  0  0  0
   -4.2811    8.9863    5.9228 C   0  0  0  0  0  0  0  0  0  0  0  0
   -5.1220    8.6024    6.1371 H   0  0  0  0  0  0  0  0  0  0  0  0
   -3.1556    8.6329    6.6372 C   0  0  0  0  0  0  0  0  0  0  0  0
   -3.2257    8.0265    7.3648 H   0  0  0  0  0  0  0  0  0  0  0  0
   -1.9194    9.1631    6.2940 C   0  0  0  0  0  0  0  0  0  0  0  0
   -1.1444    8.9038    6.7798 H   0  0  0  0  0  0  0  0  0  0  0  0
   -1.3189    5.0571    3.5872 C   0  0  0  0  0  0  0  0  0  0  0  0
   -1.0833    4.3747    4.2641 H   0  0  0  0  0  0  0  0  0  0  0  0
   -1.6288    4.5885    2.7715 H   0  0  0  0  0  0  0  0  0  0  0  0
   -2.4062    5.9199    4.1093 C   0  0  0  0  0  0  0  0  0  0  0  0
   -2.1130    6.3490    4.9409 H   0  0  0  0  0  0  0  0  0  0  0  0
   -3.2002    5.3737    4.2877 H   0  0  0  0  0  0  0  0  0  0  0  0
   -2.6246    6.6073    3.4470 H   0  0  0  0  0  0  0  0  0  0  0  0
  1  2  1  0  0  0  0
  2  3  1  0  0  0  0
  3  4  1  0  0  0  0
  5  3  1  0  0  0  0
  6  3  1  0  0  0  0
  7  1  2  0  0  0  0
  8  1  1  0  0  0  0
  9  8  4  0  0  0  0
 10  9  1  0  0  0  0
 11  9  4  0  0  0  0
 12 11  1  0  0  0  0
 13 11  4  0  0  0  0
 14 13  1  0  0  0  0
 15 13  4  0  0  0  0
 16 15  1  0  0  0  0
 17  8  4  0  0  0  0
 18 17  1  0  0  0  0
 19  1  1  0  0  0  0
 20 19  4  0  0  0  0
 21 20  1  0  0  0  0
 22 20  4  0  0  0  0
 23 22  1  0  0  0  0
 24 22  4  0  0  0  0
 25 24  1  0  0  0  0
 26 24  4  0  0  0  0
 27 26  1  0  0  0  0
 28 19  4  0  0  0  0
 29 28  1  0  0  0  0
 30 31  1  0  0  0  0
 32 30  1  0  0  0  0
 33 30  1  0  0  0  0
 34 33  1  0  0  0  0
 35 33  1  0  0  0  0
 36 33  1  0  0  0  0
 37  7  1  0  0  0  0
 38 30  1  0  0  0  0
 39  2  1  0  0  0  0
 40  2  1  0  0  0  0
 41 40  1  0  0  0  0
 42 40  1  0  0  0  0
 43 37  1  0  0  0  0
 44 39  1  0  0  0  0
 45 44  4  0  0  0  0
 46 45  1  0  0  0  0
 47 45  4  0  0  0  0
 48 47  1  0  0  0  0
 49 47  4  0  0  0  0
 50 49  1  0  0  0  0
 51 49  4  0  0  0  0
 52 51  1  0  0  0  0
 53 44  4  0  0  0  0
 54 53  1  0  0  0  0
 55 39  1  0  0  0  0
 56 55  4  0  0  0  0
 57 56  1  0  0  0  0
 58 56  4  0  0  0  0
 59 58  1  0  0  0  0
 60 58  4  0  0  0  0
 61 60  1  0  0  0  0
 62 60  4  0  0  0  0
 63 62  1  0  0  0  0
 64 55  4  0  0  0  0
 65 64  1  0  0  0  0
 66 38  1  0  0  0  0
 67 66  1  0  0  0  0
 68 66  1  0  0  0  0
 69 66  1  0  0  0  0
 70 69  1  0  0  0  0
 71 69  1  0  0  0  0
 72 69  1  0  0  0  0
  6 40  1  0  0  0  0
 15 17  4  0  0  0  0
 26 28  4  0  0  0  0
 37 38  1  0  0  0  0
 39 43  2  0  0  0  0
 51 53  4  0  0  0  0
 62 64  4  0  0  0  0
M  CHG  1  37   1
M  END
$$$$
OQOVIA

From CSD data. Using bond type 'Any'. No disordered atoms. Largest molecule.
 98121  0  0  0  0  0  0  0  0999 V2000
    9.5661    2.9769    5.7676 Ag  0  0  0  0  0  0  0  0  0  0  0  0
    8.3457    2.5718    7.8390 P   0  0  0  0  0  0  0  0  0  0  0  0
    8.3932    1.2295    4.5202 P   0  0  0  0  0  0  0  0  0  0  0  0
   12.5805    3.6233    5.4270 Cl  0  0  0  0  0  0  0  0  0  0  0  0
   11.3408    4.2531    5.1485 O   0  0  0  0  0  0  0  0  0  0  0  0
   13.6101    4.5602    5.2383 O   0  0  0  0  0  0  0  0  0  0  0  0
   12.5889    3.1605    6.7550 O   0  0  0  0  0  0  0  0  0  0  0  0
   12.7799    2.5540    4.5363 O   0  0  0  0  0  0  0  0  0  0  0  0
    8.2594   -0.4103    7.0772 B   0  0  0  0  0  0  0  0  0  0  0  0
    9.3596   -0.4341    7.0726 H   0  0  0  0  0  0  0  0  0  0  0  0
    7.2514   -0.2689    8.5939 B   0  0  0  0  0  0  0  0  0  0  0  0
    7.6828   -0.2545    9.6066 H   0  0  0  0  0  0  0  0  0  0  0  0
    5.8860    0.6982    8.1866 B   0  0  0  0  0  0  0  0  0  0  0  0
    5.4025    1.3571    8.9230 H   0  0  0  0  0  0  0  0  0  0  0  0
    6.0498    1.1715    6.4719 B   0  0  0  0  0  0  0  0  0  0  0  0
    5.7513    2.1576    6.0876 H   0  0  0  0  0  0  0  0  0  0  0  0
    5.8436   -0.3296    5.5214 B   0  0  0  0  0  0  0  0  0  0  0  0
    5.3472   -0.3281    4.5386 H   0  0  0  0  0  0  0  0  0  0  0  0
    7.2968   -1.3713    5.8965 B   0  0  0  0  0  0  0  0  0  0  0  0
    7.7511   -2.0643    5.1738 H   0  0  0  0  0  0  0  0  0  0  0  0
    7.2325   -1.7452    7.6273 B   0  0  0  0  0  0  0  0  0  0  0  0
    7.6722   -2.6751    8.0162 H   0  0  0  0  0  0  0  0  0  0  0  0
    5.7386   -1.0514    8.2717 B   0  0  0  0  0  0  0  0  0  0  0  0
    5.1777   -1.5631    9.0680 H   0  0  0  0  0  0  0  0  0  0  0  0
    4.9051   -0.1217    6.9575 B   0  0  0  0  0  0  0  0  0  0  0  0
    3.8139    0.0118    6.9046 H   0  0  0  0  0  0  0  0  0  0  0  0
    5.7089   -1.6885    6.6146 B   0  0  0  0  0  0  0  0  0  0  0  0
    5.1360   -2.5876    6.3430 H   0  0  0  0  0  0  0  0  0  0  0  0
    7.3986    1.0116    7.5444 C   0  0  0  0  0  0  0  0  0  0  0  0
    7.4197    0.3364    5.8183 C   0  0  0  0  0  0  0  0  0  0  0  0
    7.0349    3.7897    8.3131 C   0  0  0  0  0  0  0  0  0  0  0  0
    6.2101    3.4987    7.8735 H   0  0  0  0  0  0  0  0  0  0  0  0
    6.7077    3.9142    9.8229 C   0  0  0  0  0  0  0  0  0  0  0  0
    6.4236    3.0529   10.1682 H   0  0  0  0  0  0  0  0  0  0  0  0
    7.5029    4.1855   10.3086 H   0  0  0  0  0  0  0  0  0  0  0  0
    5.6111    4.9332   10.0393 C   0  0  0  0  0  0  0  0  0  0  0  0
    5.4280    5.0064   10.9875 H   0  0  0  0  0  0  0  0  0  0  0  0
    4.8014    4.6227    9.6043 H   0  0  0  0  0  0  0  0  0  0  0  0
    5.9679    6.3011    9.4961 C   0  0  0  0  0  0  0  0  0  0  0  0
    6.7353    6.6520    9.9748 H   0  0  0  0  0  0  0  0  0  0  0  0
    5.2242    6.9097    9.6273 H   0  0  0  0  0  0  0  0  0  0  0  0
    6.2936    6.1971    8.0070 C   0  0  0  0  0  0  0  0  0  0  0  0
    6.5843    7.0639    7.6848 H   0  0  0  0  0  0  0  0  0  0  0  0
    5.4887    5.9548    7.5237 H   0  0  0  0  0  0  0  0  0  0  0  0
    7.3940    5.1530    7.7124 C   0  0  0  0  0  0  0  0  0  0  0  0
    7.5043    5.0626    6.7527 H   0  0  0  0  0  0  0  0  0  0  0  0
    8.2354    5.4585    8.0853 H   0  0  0  0  0  0  0  0  0  0  0  0
    9.4503    2.3268    9.3350 C   0  0  0  0  0  0  0  0  0  0  0  0
    8.9059    2.1510   10.1313 H   0  0  0  0  0  0  0  0  0  0  0  0
   10.4663    1.2094    9.1371 C   0  0  0  0  0  0  0  0  0  0  0  0
   10.0059    0.3577    9.0634 H   0  0  0  0  0  0  0  0  0  0  0  0
   10.9620    1.3581    8.3177 H   0  0  0  0  0  0  0  0  0  0  0  0
   11.4061    1.1766   10.3017 C   0  0  0  0  0  0  0  0  0  0  0  0
   10.9023    0.9540   11.0980 H   0  0  0  0  0  0  0  0  0  0  0  0
   12.0514    0.4669   10.1567 H   0  0  0  0  0  0  0  0  0  0  0  0
   12.1469    2.4490   10.5456 C   0  0  0  0  0  0  0  0  0  0  0  0
   12.7543    2.6215    9.8091 H   0  0  0  0  0  0  0  0  0  0  0  0
   12.6693    2.3736   11.3581 H   0  0  0  0  0  0  0  0  0  0  0  0
   11.1475    3.6069   10.6745 C   0  0  0  0  0  0  0  0  0  0  0  0
   10.6308    3.4936   11.4870 H   0  0  0  0  0  0  0  0  0  0  0  0
   11.6336    4.4429   10.7436 H   0  0  0  0  0  0  0  0  0  0  0  0
   10.2106    3.6728    9.4961 C   0  0  0  0  0  0  0  0  0  0  0  0
   10.7164    3.8576    8.6883 H   0  0  0  0  0  0  0  0  0  0  0  0
    9.5738    4.3929    9.6250 H   0  0  0  0  0  0  0  0  0  0  0  0
    7.1045    1.8458    3.3303 C   0  0  0  0  0  0  0  0  0  0  0  0
    6.2977    1.9896    3.8666 H   0  0  0  0  0  0  0  0  0  0  0  0
    6.6890    0.9534    2.2210 C   0  0  0  0  0  0  0  0  0  0  0  0
    6.3938    0.1046    2.5869 H   0  0  0  0  0  0  0  0  0  0  0  0
    7.4511    0.7822    1.6456 H   0  0  0  0  0  0  0  0  0  0  0  0
    5.5861    1.5468    1.4085 C   0  0  0  0  0  0  0  0  0  0  0  0
    4.7910    1.6366    1.9563 H   0  0  0  0  0  0  0  0  0  0  0  0
    5.3758    0.9578    0.6674 H   0  0  0  0  0  0  0  0  0  0  0  0
    5.9965    2.9205    0.8700 C   0  0  0  0  0  0  0  0  0  0  0  0
    6.7497    2.8192    0.2693 H   0  0  0  0  0  0  0  0  0  0  0  0
    5.2599    3.3027    0.3682 H   0  0  0  0  0  0  0  0  0  0  0  0
    6.3659    3.8353    1.9793 C   0  0  0  0  0  0  0  0  0  0  0  0
    5.5950    3.9810    2.5501 H   0  0  0  0  0  0  0  0  0  0  0  0
    6.6365    4.6923    1.6134 H   0  0  0  0  0  0  0  0  0  0  0  0
    7.5146    3.2479    2.8102 C   0  0  0  0  0  0  0  0  0  0  0  0
    7.7103    3.8323    3.5605 H   0  0  0  0  0  0  0  0  0  0  0  0
    8.3131    3.1763    2.2647 H   0  0  0  0  0  0  0  0  0  0  0  0
    9.4350    0.0472    3.6364 C   0  0  0  0  0  0  0  0  0  0  0  0
    8.8567   -0.6167    3.2083 H   0  0  0  0  0  0  0  0  0  0  0  0
   10.1817    0.8139    2.5478 C   0  0  0  0  0  0  0  0  0  0  0  0
    9.5376    1.2435    1.9632 H   0  0  0  0  0  0  0  0  0  0  0  0
   10.7186    1.5087    2.9575 H   0  0  0  0  0  0  0  0  0  0  0  0
   11.0805   -0.0864    1.7215 C   0  0  0  0  0  0  0  0  0  0  0  0
   10.5343   -0.7242    1.2359 H   0  0  0  0  0  0  0  0  0  0  0  0
   11.5631    0.4500    1.0748 H   0  0  0  0  0  0  0  0  0  0  0  0
   12.0680   -0.8333    2.5846 C   0  0  0  0  0  0  0  0  0  0  0  0
   12.6913   -0.2018    2.9782 H   0  0  0  0  0  0  0  0  0  0  0  0
   12.5744   -1.4493    2.0346 H   0  0  0  0  0  0  0  0  0  0  0  0
   11.3733   -1.6038    3.6917 C   0  0  0  0  0  0  0  0  0  0  0  0
   10.8486   -2.3230    3.3050 H   0  0  0  0  0  0  0  0  0  0  0  0
   12.0376   -1.9982    4.2785 H   0  0  0  0  0  0  0  0  0  0  0  0
   10.4675   -0.6894    4.4926 C   0  0  0  0  0  0  0  0  0  0  0  0
   11.0132   -0.0370    4.9575 H   0  0  0  0  0  0  0  0  0  0  0  0
   10.0020   -1.2160    5.1600 H   0  0  0  0  0  0  0  0  0  0  0  0
  1  2  1  0  0  0  0
  2 29  1  0  0  0  0
  3  1  1  0  0  0  0
  4  5  1  0  0  0  0
  5  1  1  0  0  0  0
  6  4  2  0  0  0  0
  7  4  2  0  0  0  0
  8  4  2  0  0  0  0
  9 10  1  0  0  0  0
 11  9  1  0  0  0  0
 12 11  1  0  0  0  0
 13 11  1  0  0  0  0
 14 13  1  0  0  0  0
 15 13  1  0  0  0  0
 16 15  1  0  0  0  0
 17 15  1  0  0  0  0
 18 17  1  0  0  0  0
 19  9  1  0  0  0  0
 20 19  1  0  0  0  0
 21  9  1  0  0  0  0
 22 21  1  0  0  0  0
 23 11  1  0  0  0  0
 24 23  1  0  0  0  0
 25 13  1  0  0  0  0
 26 25  1  0  0  0  0
 27 17  1  0  0  0  0
 28 27  1  0  0  0  0
 29  9  1  0  0  0  0
 30  3  1  0  0  0  0
 31  2  1  0  0  0  0
 32 31  1  0  0  0  0
 33 31  1  0  0  0  0
 34 33  1  0  0  0  0
 35 33  1  0  0  0  0
 36 33  1  0  0  0  0
 37 36  1  0  0  0  0
 38 36  1  0  0  0  0
 39 36  1  0  0  0  0
 40 39  1  0  0  0  0
 41 39  1  0  0  0  0
 42 39  1  0  0  0  0
 43 42  1  0  0  0  0
 44 42  1  0  0  0  0
 45 31  1  0  0  0  0
 46 45  1  0  0  0  0
 47 45  1  0  0  0  0
 48  2  1  0  0  0  0
 49 48  1  0  0  0  0
 50 48  1  0  0  0  0
 51 50  1  0  0  0  0
 52 50  1  0  0  0  0
 53 50  1  0  0  0  0
 54 53  1  0  0  0  0
 55 53  1  0  0  0  0
 56 53  1  0  0  0  0
 57 56  1  0  0  0  0
 58 56  1  0  0  0  0
 59 56  1  0  0  0  0
 60 59  1  0  0  0  0
 61 59  1  0  0  0  0
 62 48  1  0  0  0  0
 63 62  1  0  0  0  0
 64 62  1  0  0  0  0
 65  3  1  0  0  0  0
 66 65  1  0  0  0  0
 67 65  1  0  0  0  0
 68 67  1  0  0  0  0
 69 67  1  0  0  0  0
 70 67  1  0  0  0  0
 71 70  1  0  0  0  0
 72 70  1  0  0  0  0
 73 70  1  0  0  0  0
 74 73  1  0  0  0  0
 75 73  1  0  0  0  0
 76 73  1  0  0  0  0
 77 76  1  0  0  0  0
 78 76  1  0  0  0  0
 79 65  1  0  0  0  0
 80 79  1  0  0  0  0
 81 79  1  0  0  0  0
 82  3  1  0  0  0  0
 83 82  1  0  0  0  0
 84 82  1  0  0  0  0
 85 84  1  0  0  0  0
 86 84  1  0  0  0  0
 87 84  1  0  0  0  0
 88 87  1  0  0  0  0
 89 87  1  0  0  0  0
 90 87  1  0  0  0  0
 91 90  1  0  0  0  0
 92 90  1  0  0  0  0
 93 90  1  0  0  0  0
 94 93  1  0  0  0  0
 95 93  1  0  0  0  0
 96 82  1  0  0  0  0
 97 96  1  0  0  0  0
 98 96  1  0  0  0  0
  9 30  1  0  0  0  0
 11 21  1  0  0  0  0
 11 29  1  0  0  0  0
 13 23  1  0  0  0  0
 13 29  1  0  0  0  0
 15 25  1  0  0  0  0
 15 29  1  0  0  0  0
 15 30  1  0  0  0  0
 17 19  1  0  0  0  0
 17 25  1  0  0  0  0
 17 30  1  0  0  0  0
 19 21  1  0  0  0  0
 19 27  1  0  0  0  0
 19 30  1  0  0  0  0
 21 23  1  0  0  0  0
 21 27  1  0  0  0  0
 23 25  1  0  0  0  0
 23 27  1  0  0  0  0
 25 27  1  0  0  0  0
 29 30  1  0  0  0  0
 42 45  1  0  0  0  0
 59 62  1  0  0  0  0
 76 79  1  0  0  0  0
 93 96  1  0  0  0  0
M  END
$$$$
OQOWAT

From CSD data. Using bond type 'Any'. No disordered atoms. Largest molecule.
108132  0  0  0  0  0  0  0  0999 V2000
   -4.3367    4.7577   22.5370 Ag  0  0  0  0  0  0  0  0  0  0  0  0
   -2.2006    4.6886   23.6180 S   0  0  0  0  0  0  0  0  0  0  0  0
   -4.9762    4.7091   20.1578 P   0  0  0  0  0  0  0  0  0  0  0  0
   -6.7011    4.7650   23.2633 P   0  0  0  0  0  0  0  0  0  0  0  0
   -7.7322    4.8892   21.7300 C   0  0  0  0  0  0  0  0  0  0  0  0
   -6.8048    4.8630   20.1024 C   0  0  0  0  0  0  0  0  0  0  0  0
   -2.6388    4.7091   25.3294 C   0  0  0  0  0  0  0  0  0  0  0  0
   -2.0159    6.8820   18.3162 C   0  0  0  0  0  0  0  0  0  0  0  0
   -1.0561    6.7521   18.3841 H   0  0  0  0  0  0  0  0  0  0  0  0
   -2.2645    6.7601   17.3858 H   0  0  0  0  0  0  0  0  0  0  0  0
   -3.5164    0.9013   19.3915 C   0  0  0  0  0  0  0  0  0  0  0  0
   -4.3511    0.4341   19.5477 H   0  0  0  0  0  0  0  0  0  0  0  0
   -2.8095    0.4022   19.8307 H   0  0  0  0  0  0  0  0  0  0  0  0
   -3.2429    0.9446   17.8997 C   0  0  0  0  0  0  0  0  0  0  0  0
   -2.3763    1.3502   17.7322 H   0  0  0  0  0  0  0  0  0  0  0  0
   -3.2311    0.0433   17.5398 H   0  0  0  0  0  0  0  0  0  0  0  0
   -2.9111    3.5310   26.0606 C   0  0  0  0  0  0  0  0  0  0  0  0
   -4.4276    3.1311   17.7933 C   0  0  0  0  0  0  0  0  0  0  0  0
   -5.1487    3.6085   17.3519 H   0  0  0  0  0  0  0  0  0  0  0  0
   -3.6006    3.6096   17.6213 H   0  0  0  0  0  0  0  0  0  0  0  0
   -2.4739    1.8880   24.3288 O   0  0  0  0  0  0  0  0  0  0  0  0
   -1.9700    1.6704   23.6859 H   0  0  0  0  0  0  0  0  0  0  0  0
   -7.2985    3.2086   24.0594 C   0  0  0  0  0  0  0  0  0  0  0  0
   -7.6198    2.6502   23.3214 H   0  0  0  0  0  0  0  0  0  0  0  0
   -6.7263    7.0028   26.7284 C   0  0  0  0  0  0  0  0  0  0  0  0
   -6.1573    6.8922   27.5049 H   0  0  0  0  0  0  0  0  0  0  0  0
   -7.6436    6.8478   27.0024 H   0  0  0  0  0  0  0  0  0  0  0  0
   -7.7942    4.0198   18.9795 B   0  0  0  0  0  0  0  0  0  0  0  0
   -7.3935    3.4034   18.1623 H   0  0  0  0  0  0  0  0  0  0  0  0
   -7.2034    6.1539   24.4103 C   0  0  0  0  0  0  0  0  0  0  0  0
   -8.1409    6.0263   24.6548 H   0  0  0  0  0  0  0  0  0  0  0  0
   -7.6849    5.8485   19.0293 B   0  0  0  0  0  0  0  0  0  0  0  0
   -7.2043    6.4319   18.2279 H   0  0  0  0  0  0  0  0  0  0  0  0
   -3.5991    2.2754   19.9960 C   0  0  0  0  0  0  0  0  0  0  0  0
   -2.7436    2.7232   19.9077 H   0  0  0  0  0  0  0  0  0  0  0  0
   -3.8066    2.2036   20.9422 H   0  0  0  0  0  0  0  0  0  0  0  0
   -4.6881    3.0946   19.2897 C   0  0  0  0  0  0  0  0  0  0  0  0
   -5.5164    2.5830   19.4006 H   0  0  0  0  0  0  0  0  0  0  0  0
   -3.2883    3.6837   27.4030 C   0  0  0  0  0  0  0  0  0  0  0  0
   -3.5375    2.9248   27.8784 H   0  0  0  0  0  0  0  0  0  0  0  0
  -10.1235    5.0635   20.3423 B   0  0  0  0  0  0  0  0  0  0  0  0
  -11.2214    5.1262   20.3808 H   0  0  0  0  0  0  0  0  0  0  0  0
   -8.4910    3.3464   25.0148 C   0  0  0  0  0  0  0  0  0  0  0  0
   -9.2469    3.7395   24.5507 H   0  0  0  0  0  0  0  0  0  0  0  0
   -8.2566    3.9241   25.7595 H   0  0  0  0  0  0  0  0  0  0  0  0
   -3.1836    1.1417   26.2417 O   0  0  0  0  0  0  0  0  0  0  0  0
   -4.5678    7.4312   19.5319 C   0  0  0  0  0  0  0  0  0  0  0  0
   -4.3143    7.5588   20.4600 H   0  0  0  0  0  0  0  0  0  0  0  0
   -5.5276    7.5690   19.4640 H   0  0  0  0  0  0  0  0  0  0  0  0
   -4.2353    6.0115   19.1131 C   0  0  0  0  0  0  0  0  0  0  0  0
   -4.5414    5.8804   18.1917 H   0  0  0  0  0  0  0  0  0  0  0  0
   -6.3432    5.9989   25.6848 C   0  0  0  0  0  0  0  0  0  0  0  0
   -6.4566    5.1045   26.0425 H   0  0  0  0  0  0  0  0  0  0  0  0
   -5.4056    6.1129   25.4562 H   0  0  0  0  0  0  0  0  0  0  0  0
   -2.7130    5.8201   19.1493 C   0  0  0  0  0  0  0  0  0  0  0  0
   -2.4020    5.8736   20.0684 H   0  0  0  0  0  0  0  0  0  0  0  0
   -2.4894    4.9404   18.8075 H   0  0  0  0  0  0  0  0  0  0  0  0
   -2.3349    8.2618   18.7147 C   0  0  0  0  0  0  0  0  0  0  0  0
   -1.8998    8.8862   18.1125 H   0  0  0  0  0  0  0  0  0  0  0  0
   -2.0093    8.4293   19.6111 H   0  0  0  0  0  0  0  0  0  0  0  0
   -2.8868    2.0748   25.5467 C   0  0  0  0  0  0  0  0  0  0  0  0
   -9.2100    4.0836   21.4968 B   0  0  0  0  0  0  0  0  0  0  0  0
   -9.7069    3.4968   22.2846 H   0  0  0  0  0  0  0  0  0  0  0  0
   -3.0170    5.9534   27.3283 C   0  0  0  0  0  0  0  0  0  0  0  0
   -3.0297    6.7885   27.7381 H   0  0  0  0  0  0  0  0  0  0  0  0
   -9.1067    5.8782   21.5353 B   0  0  0  0  0  0  0  0  0  0  0  0
   -9.5356    6.4809   22.3480 H   0  0  0  0  0  0  0  0  0  0  0  0
   -2.6898    5.8816   25.9950 C   0  0  0  0  0  0  0  0  0  0  0  0
   -2.4947    6.6678   25.5377 H   0  0  0  0  0  0  0  0  0  0  0  0
   -3.3116    4.8994   28.0505 C   0  0  0  0  0  0  0  0  0  0  0  0
   -3.5252    4.9689   28.9537 H   0  0  0  0  0  0  0  0  0  0  0  0
   -7.0374    7.5736   23.8625 C   0  0  0  0  0  0  0  0  0  0  0  0
   -6.1202    7.7035   23.5727 H   0  0  0  0  0  0  0  0  0  0  0  0
   -7.6146    7.6944   23.0951 H   0  0  0  0  0  0  0  0  0  0  0  0
   -6.6105    1.0710   25.1687 C   0  0  0  0  0  0  0  0  0  0  0  0
   -6.9405    0.5560   24.4171 H   0  0  0  0  0  0  0  0  0  0  0  0
   -5.8566    0.5948   25.5490 H   0  0  0  0  0  0  0  0  0  0  0  0
   -6.1576    2.4155   24.6888 C   0  0  0  0  0  0  0  0  0  0  0  0
   -5.4517    2.3004   24.0368 H   0  0  0  0  0  0  0  0  0  0  0  0
   -5.7951    2.9157   25.4358 H   0  0  0  0  0  0  0  0  0  0  0  0
   -4.3275    1.7535   17.2319 C   0  0  0  0  0  0  0  0  0  0  0  0
   -4.1444    1.8082   16.2811 H   0  0  0  0  0  0  0  0  0  0  0  0
   -5.1796    1.3012   17.3451 H   0  0  0  0  0  0  0  0  0  0  0  0
   -7.3749    8.5877   24.9061 C   0  0  0  0  0  0  0  0  0  0  0  0
   -8.3213    8.5250   25.1053 H   0  0  0  0  0  0  0  0  0  0  0  0
   -7.2111    9.4730   24.5462 H   0  0  0  0  0  0  0  0  0  0  0  0
   -8.8634    1.9404   25.5332 C   0  0  0  0  0  0  0  0  0  0  0  0
   -9.2085    1.4129   24.7974 H   0  0  0  0  0  0  0  0  0  0  0  0
   -9.5671    2.0224   26.1964 H   0  0  0  0  0  0  0  0  0  0  0  0
   -6.5880    8.4259   26.1987 C   0  0  0  0  0  0  0  0  0  0  0  0
   -6.9192    9.0525   26.8620 H   0  0  0  0  0  0  0  0  0  0  0  0
   -5.6513    8.6241   26.0357 H   0  0  0  0  0  0  0  0  0  0  0  0
   -7.6563    1.1986   26.1670 C   0  0  0  0  0  0  0  0  0  0  0  0
   -7.3240    1.6966   26.9299 H   0  0  0  0  0  0  0  0  0  0  0  0
   -7.9311    0.3190   26.4726 H   0  0  0  0  0  0  0  0  0  0  0  0
   -3.8469    8.4657   18.6649 C   0  0  0  0  0  0  0  0  0  0  0  0
   -4.1514    8.3883   17.7480 H   0  0  0  0  0  0  0  0  0  0  0  0
   -4.0614    9.3579   18.9795 H   0  0  0  0  0  0  0  0  0  0  0  0
   -7.7172    3.5059   20.6932 B   0  0  0  0  0  0  0  0  0  0  0  0
   -7.2090    2.5807   20.9988 H   0  0  0  0  0  0  0  0  0  0  0  0
   -9.1025    6.4866   19.8986 B   0  0  0  0  0  0  0  0  0  0  0  0
   -9.5187    7.4779   19.6632 H   0  0  0  0  0  0  0  0  0  0  0  0
   -9.2789    5.0475   18.8007 B   0  0  0  0  0  0  0  0  0  0  0  0
   -9.8306    5.1057   17.8522 H   0  0  0  0  0  0  0  0  0  0  0  0
   -9.2852    3.5777   19.8194 B   0  0  0  0  0  0  0  0  0  0  0  0
   -9.8292    2.6685   19.5251 H   0  0  0  0  0  0  0  0  0  0  0  0
   -7.5606    6.3066   20.7475 B   0  0  0  0  0  0  0  0  0  0  0  0
   -6.9486    7.1554   21.0826 H   0  0  0  0  0  0  0  0  0  0  0  0
  1  2  1  0  0  0  0
  2  7  1  0  0  0  0
  3  1  1  0  0  0  0
  4  1  1  0  0  0  0
  5  4  1  0  0  0  0
  6  3  1  0  0  0  0
  7 17  4  0  0  0  0
  8  9  1  0  0  0  0
 10  8  1  0  0  0  0
 11 12  1  0  0  0  0
 13 11  1  0  0  0  0
 14 11  1  0  0  0  0
 15 14  1  0  0  0  0
 16 14  1  0  0  0  0
 17 39  4  0  0  0  0
 18 19  1  0  0  0  0
 20 18  1  0  0  0  0
 21 22  1  0  0  0  0
 23  4  1  0  0  0  0
 24 23  1  0  0  0  0
 25 26  1  0  0  0  0
 27 25  1  0  0  0  0
 28  6  1  0  0  0  0
 29 28  1  0  0  0  0
 30  4  1  0  0  0  0
 31 30  1  0  0  0  0
 32  6  1  0  0  0  0
 33 32  1  0  0  0  0
 34 11  1  0  0  0  0
 35 34  1  0  0  0  0
 36 34  1  0  0  0  0
 37  3  1  0  0  0  0
 38 37  1  0  0  0  0
 39 40  1  0  0  0  0
 41 42  1  0  0  0  0
 43 23  1  0  0  0  0
 44 43  1  0  0  0  0
 45 43  1  0  0  0  0
 46 61  2  0  0  0  0
 47 48  1  0  0  0  0
 49 47  1  0  0  0  0
 50  3  1  0  0  0  0
 51 50  1  0  0  0  0
 52 25  1  0  0  0  0
 53 52  1  0  0  0  0
 54 52  1  0  0  0  0
 55  8  1  0  0  0  0
 56 55  1  0  0  0  0
 57 55  1  0  0  0  0
 58  8  1  0  0  0  0
 59 58  1  0  0  0  0
 60 58  1  0  0  0  0
 61 17  1  0  0  0  0
 62  5  1  0  0  0  0
 63 62  1  0  0  0  0
 64 65  1  0  0  0  0
 66  5  1  0  0  0  0
 67 66  1  0  0  0  0
 68  7  4  0  0  0  0
 69 68  1  0  0  0  0
 70 39  4  0  0  0  0
 71 70  1  0  0  0  0
 72 30  1  0  0  0  0
 73 72  1  0  0  0  0
 74 72  1  0  0  0  0
 75 76  1  0  0  0  0
 77 75  1  0  0  0  0
 78 23  1  0  0  0  0
 79 78  1  0  0  0  0
 80 78  1  0  0  0  0
 81 14  1  0  0  0  0
 82 81  1  0  0  0  0
 83 81  1  0  0  0  0
 84 72  1  0  0  0  0
 85 84  1  0  0  0  0
 86 84  1  0  0  0  0
 87 43  1  0  0  0  0
 88 87  1  0  0  0  0
 89 87  1  0  0  0  0
 90 25  1  0  0  0  0
 91 90  1  0  0  0  0
 92 90  1  0  0  0  0
 93 75  1  0  0  0  0
 94 93  1  0  0  0  0
 95 93  1  0  0  0  0
 96 47  1  0  0  0  0
 97 96  1  0  0  0  0
 98 96  1  0  0  0  0
 99  5  1  0  0  0  0
100 99  1  0  0  0  0
101 32  1  0  0  0  0
102101  1  0  0  0  0
103 28  1  0  0  0  0
104103  1  0  0  0  0
105 28  1  0  0  0  0
106105  1  0  0  0  0
107  5  1  0  0  0  0
108107  1  0  0  0  0
  5  6  1  0  0  0  0
  6 99  1  0  0  0  0
  6107  1  0  0  0  0
 18 37  1  0  0  0  0
 18 81  1  0  0  0  0
 21 61  1  0  0  0  0
 28 32  1  0  0  0  0
 28 99  1  0  0  0  0
 30 52  1  0  0  0  0
 32103  1  0  0  0  0
 32107  1  0  0  0  0
 34 37  1  0  0  0  0
 41 62  1  0  0  0  0
 41 66  1  0  0  0  0
 41101  1  0  0  0  0
 41103  1  0  0  0  0
 41105  1  0  0  0  0
 47 50  1  0  0  0  0
 50 55  1  0  0  0  0
 58 96  1  0  0  0  0
 62 66  1  0  0  0  0
 62 99  1  0  0  0  0
 62105  1  0  0  0  0
 64 68  4  0  0  0  0
 64 70  4  0  0  0  0
 66101  1  0  0  0  0
 66107  1  0  0  0  0
 75 78  1  0  0  0  0
 84 90  1  0  0  0  0
 87 93  1  0  0  0  0
 99105  1  0  0  0  0
101103  1  0  0  0  0
101107  1  0  0  0  0
103105  1  0  0  0  0
M  END
$$$$
OTALAZ

From CSD data. Using bond type 'Any'. No disordered atoms. Largest molecule.
130142  0  0  0  0  0  0  0  0999 V2000
   -0.6787   10.5747    5.5525 C   0  0  0  0  0  0  0  0  0  0  0  0
   -1.6531   11.3754    4.9895 C   0  0  0  0  0  0  0  0  0  0  0  0
   -1.4180   12.1627    4.5125 H   0  0  0  0  0  0  0  0  0  0  0  0
   -2.9880   11.0049    5.1359 C   0  0  0  0  0  0  0  0  0  0  0  0
   -3.6756   11.5474    4.7681 H   0  0  0  0  0  0  0  0  0  0  0  0
   -3.3113    9.8398    5.8209 C   0  0  0  0  0  0  0  0  0  0  0  0
   -4.2153    9.5641    5.9178 H   0  0  0  0  0  0  0  0  0  0  0  0
   -2.2669    9.0860    6.3631 C   0  0  0  0  0  0  0  0  0  0  0  0
   -2.4370    7.8089    7.0968 C   0  0  0  0  0  0  0  0  0  0  0  0
   -3.6617    7.1904    7.3296 C   0  0  0  0  0  0  0  0  0  0  0  0
   -4.4712    7.5842    7.0259 H   0  0  0  0  0  0  0  0  0  0  0  0
   -3.6720    5.9835    8.0163 C   0  0  0  0  0  0  0  0  0  0  0  0
   -4.4941    5.5439    8.1993 H   0  0  0  0  0  0  0  0  0  0  0  0
   -2.4673    5.4225    8.4348 C   0  0  0  0  0  0  0  0  0  0  0  0
   -2.4514    4.5885    8.8895 H   0  0  0  0  0  0  0  0  0  0  0  0
   -1.2993    6.1057    8.1738 C   0  0  0  0  0  0  0  0  0  0  0  0
    1.4073   11.2731    3.6800 C   0  0  0  0  0  0  0  0  0  0  0  0
    0.8562   10.4756    2.7005 C   0  0  0  0  0  0  0  0  0  0  0  0
    0.3270    9.7233    2.9408 H   0  0  0  0  0  0  0  0  0  0  0  0
    1.0745   10.7722    1.3639 C   0  0  0  0  0  0  0  0  0  0  0  0
    0.6997   10.2203    0.6883 H   0  0  0  0  0  0  0  0  0  0  0  0
    1.8379   11.8665    1.0141 C   0  0  0  0  0  0  0  0  0  0  0  0
    1.9740   12.0735    0.0975 H   0  0  0  0  0  0  0  0  0  0  0  0
    2.3938   12.6473    1.9653 C   0  0  0  0  0  0  0  0  0  0  0  0
    2.9280   13.3903    1.7114 H   0  0  0  0  0  0  0  0  0  0  0  0
    2.1931   12.3712    3.3228 C   0  0  0  0  0  0  0  0  0  0  0  0
    2.5852   12.9218    3.9909 H   0  0  0  0  0  0  0  0  0  0  0  0
    1.6164   12.2077    6.4273 C   0  0  0  0  0  0  0  0  0  0  0  0
    1.0752   13.4869    6.2022 C   0  0  0  0  0  0  0  0  0  0  0  0
    0.4317   13.6322    5.5182 H   0  0  0  0  0  0  0  0  0  0  0  0
    1.5136   14.5393    7.0164 C   0  0  0  0  0  0  0  0  0  0  0  0
    1.1579   15.4109    6.8828 H   0  0  0  0  0  0  0  0  0  0  0  0
    2.4395   14.3385    7.9934 C   0  0  0  0  0  0  0  0  0  0  0  0
    2.7390   15.0742    8.5143 H   0  0  0  0  0  0  0  0  0  0  0  0
    2.9513   13.0677    8.2368 C   0  0  0  0  0  0  0  0  0  0  0  0
    3.5763   12.9245    8.9377 H   0  0  0  0  0  0  0  0  0  0  0  0
    2.5306   12.0110    7.4404 C   0  0  0  0  0  0  0  0  0  0  0  0
    2.8782   11.1411    7.5948 H   0  0  0  0  0  0  0  0  0  0  0  0
    3.0239    9.0239    5.3445 C   0  0  0  0  0  0  0  0  0  0  0  0
    3.2647    7.6764    5.0893 C   0  0  0  0  0  0  0  0  0  0  0  0
    2.5608    7.0450    5.1799 H   0  0  0  0  0  0  0  0  0  0  0  0
    4.5395    7.2468    4.6996 C   0  0  0  0  0  0  0  0  0  0  0  0
    4.6997    6.3217    4.5538 H   0  0  0  0  0  0  0  0  0  0  0  0
    5.5747    8.1612    4.5239 C   0  0  0  0  0  0  0  0  0  0  0  0
    6.4351    7.8601    4.2548 H   0  0  0  0  0  0  0  0  0  0  0  0
    5.3484    9.5134    4.7399 C   0  0  0  0  0  0  0  0  0  0  0  0
    4.0726    9.9192    5.1591 C   0  0  0  0  0  0  0  0  0  0  0  0
    3.9184   10.8424    5.3213 H   0  0  0  0  0  0  0  0  0  0  0  0
    0.3828    3.7974    8.3381 C   0  0  0  0  0  0  0  0  0  0  0  0
   -0.1451    3.3593    7.1163 C   0  0  0  0  0  0  0  0  0  0  0  0
   -0.5108    3.9880    6.5051 H   0  0  0  0  0  0  0  0  0  0  0  0
   -0.1349    2.0135    6.7987 C   0  0  0  0  0  0  0  0  0  0  0  0
   -0.4860    1.7143    5.9681 H   0  0  0  0  0  0  0  0  0  0  0  0
    0.3936    1.1037    7.7048 C   0  0  0  0  0  0  0  0  0  0  0  0
    0.3965    0.1780    7.4903 H   0  0  0  0  0  0  0  0  0  0  0  0
    0.9144    1.5241    8.9075 C   0  0  0  0  0  0  0  0  0  0  0  0
    1.2673    0.8854    9.5172 H   0  0  0  0  0  0  0  0  0  0  0  0
    0.9295    2.8758    9.2364 C   0  0  0  0  0  0  0  0  0  0  0  0
    1.3065    3.1682   10.0586 H   0  0  0  0  0  0  0  0  0  0  0  0
    0.3863    5.7540   10.5175 C   0  0  0  0  0  0  0  0  0  0  0  0
   -0.4099    4.9534   11.3539 C   0  0  0  0  0  0  0  0  0  0  0  0
   -0.8938    4.2174   10.9981 H   0  0  0  0  0  0  0  0  0  0  0  0
   -0.4799    5.2549   12.7139 C   0  0  0  0  0  0  0  0  0  0  0  0
   -1.0088    4.7148   13.2898 H   0  0  0  0  0  0  0  0  0  0  0  0
    0.2092    6.3263   13.2282 C   0  0  0  0  0  0  0  0  0  0  0  0
    0.1511    6.5267   14.1557 H   0  0  0  0  0  0  0  0  0  0  0  0
    0.9863    7.1120   12.4028 C   0  0  0  0  0  0  0  0  0  0  0  0
    1.4672    7.8455   12.7668 H   0  0  0  0  0  0  0  0  0  0  0  0
    1.0727    6.8357   11.0369 C   0  0  0  0  0  0  0  0  0  0  0  0
    1.5986    7.3868   10.4693 H   0  0  0  0  0  0  0  0  0  0  0  0
    2.7908    6.4528    8.1325 C   0  0  0  0  0  0  0  0  0  0  0  0
    3.5483    7.6252    8.2771 C   0  0  0  0  0  0  0  0  0  0  0  0
    3.1014    8.4612    8.3395 H   0  0  0  0  0  0  0  0  0  0  0  0
    4.9337    7.5925    8.3336 C   0  0  0  0  0  0  0  0  0  0  0  0
    5.4254    8.4025    8.3990 H   0  0  0  0  0  0  0  0  0  0  0  0
    5.5986    6.3856    8.2916 C   0  0  0  0  0  0  0  0  0  0  0  0
    6.5477    6.3675    8.3244 H   0  0  0  0  0  0  0  0  0  0  0  0
    4.8930    5.2106    8.2046 C   0  0  0  0  0  0  0  0  0  0  0  0
    3.4842    5.2509    8.1085 C   0  0  0  0  0  0  0  0  0  0  0  0
    3.0008    4.4375    8.0254 H   0  0  0  0  0  0  0  0  0  0  0  0
   -0.9808    9.4599    6.2375 N   0  0  0  0  0  0  0  0  0  0  0  0
   -1.2737    7.2837    7.5263 N   0  0  0  0  0  0  0  0  0  0  0  0
    1.7295    9.4023    5.8162 N   0  0  0  0  0  0  0  0  0  0  0  0
    1.3667    6.5346    7.9552 N   0  0  0  0  0  0  0  0  0  0  0  0
    6.4558   10.5957    4.5771 B   0  0  0  0  0  0  0  0  0  0  0  0
    6.1505   11.9415    4.7206 O   0  0  0  0  0  0  0  0  0  0  0  0
    7.7678   10.3911    4.2772 O   0  0  0  0  0  0  0  0  0  0  0  0
    7.4119   12.6586    4.7706 C   0  0  0  0  0  0  0  0  0  0  0  0
    8.3507   11.7276    3.9773 C   0  0  0  0  0  0  0  0  0  0  0  0
    7.7631   12.7975    6.2506 C   0  0  0  0  0  0  0  0  0  0  0  0
    8.6137   13.2780    6.3403 H   0  0  0  0  0  0  0  0  0  0  0  0
    7.0565   13.2962    6.7090 H   0  0  0  0  0  0  0  0  0  0  0  0
    7.8488   11.9069    6.6502 H   0  0  0  0  0  0  0  0  0  0  0  0
    7.2371   14.0419    4.1789 C   0  0  0  0  0  0  0  0  0  0  0  0
    8.0897   14.5239    4.2149 H   0  0  0  0  0  0  0  0  0  0  0  0
    6.9442   13.9648    3.2472 H   0  0  0  0  0  0  0  0  0  0  0  0
    6.5625   14.5343    4.6933 H   0  0  0  0  0  0  0  0  0  0  0  0
    8.3470   11.9603    2.4651 C   0  0  0  0  0  0  0  0  0  0  0  0
    8.7295   12.8408    2.2693 H   0  0  0  0  0  0  0  0  0  0  0  0
    8.8810   11.2663    2.0258 H   0  0  0  0  0  0  0  0  0  0  0  0
    7.4256   11.9234    2.1311 H   0  0  0  0  0  0  0  0  0  0  0  0
    9.7950   11.6844    4.4594 C   0  0  0  0  0  0  0  0  0  0  0  0
   10.2240   12.5469    4.2833 H   0  0  0  0  0  0  0  0  0  0  0  0
    9.8131   11.5003    5.4221 H   0  0  0  0  0  0  0  0  0  0  0  0
   10.2772   10.9758    3.9832 H   0  0  0  0  0  0  0  0  0  0  0  0
    5.6098    3.8441    8.2578 B   0  0  0  0  0  0  0  0  0  0  0  0
    4.9248    2.6785    8.0321 O   0  0  0  0  0  0  0  0  0  0  0  0
    6.8730    3.5851    8.7350 O   0  0  0  0  0  0  0  0  0  0  0  0
    5.7502    1.5804    8.5480 C   0  0  0  0  0  0  0  0  0  0  0  0
    7.1758    2.1867    8.6109 C   0  0  0  0  0  0  0  0  0  0  0  0
    5.5078    0.3942    7.6129 C   0  0  0  0  0  0  0  0  0  0  0  0
    5.7773    0.6360    6.7022 H   0  0  0  0  0  0  0  0  0  0  0  0
    4.5551    0.1618    7.6200 H   0  0  0  0  0  0  0  0  0  0  0  0
    6.0334   -0.3747    7.9162 H   0  0  0  0  0  0  0  0  0  0  0  0
    5.2691    1.3233    9.9941 C   0  0  0  0  0  0  0  0  0  0  0  0
    5.1661    2.1784   10.4607 H   0  0  0  0  0  0  0  0  0  0  0  0
    5.9273    0.7707   10.4640 H   0  0  0  0  0  0  0  0  0  0  0  0
    4.4067    0.8569    9.9727 H   0  0  0  0  0  0  0  0  0  0  0  0
    7.8732    2.0441    7.1744 C   0  0  0  0  0  0  0  0  0  0  0  0
    7.2449    2.3295    6.4775 H   0  0  0  0  0  0  0  0  0  0  0  0
    8.1235    1.1092    7.0253 H   0  0  0  0  0  0  0  0  0  0  0  0
    8.6736    2.6075    7.1429 H   0  0  0  0  0  0  0  0  0  0  0  0
    8.1020    1.7982    9.6620 C   0  0  0  0  0  0  0  0  0  0  0  0
    8.9043    2.3603    9.6152 H   0  0  0  0  0  0  0  0  0  0  0  0
    8.3549    0.8589    9.5443 H   0  0  0  0  0  0  0  0  0  0  0  0
    7.6736    1.9143   10.5357 H   0  0  0  0  0  0  0  0  0  0  0  0
    1.1204   10.8232    5.3900 P   0  0  0  0  0  0  0  0  0  0  0  0
    0.3531    5.5537    8.7198 P   0  0  0  0  0  0  0  0  0  0  0  0
    0.7162    9.7312    9.1314 Cl  0  0  0  0  0  0  0  0  0  0  0  0
    0.5752    8.3397    7.2152 Fe  0  3  0  0  0  0  0  0  0  0  0  0
  1  2  4  0  0  0  0
  2  3  1  0  0  0  0
  4  2  4  0  0  0  0
  5  4  1  0  0  0  0
  6  4  4  0  0  0  0
  7  6  1  0  0  0  0
  8  6  4  0  0  0  0
  9  8  1  0  0  0  0
 10  9  4  0  0  0  0
 11 10  1  0  0  0  0
 12 10  4  0  0  0  0
 13 12  1  0  0  0  0
 14 12  4  0  0  0  0
 15 14  1  0  0  0  0
 16 14  4  0  0  0  0
 17 18  4  0  0  0  0
 18 19  1  0  0  0  0
 20 18  4  0  0  0  0
 21 20  1  0  0  0  0
 22 20  4  0  0  0  0
 23 22  1  0  0  0  0
 24 22  4  0  0  0  0
 25 24  1  0  0  0  0
 26 17  4  0  0  0  0
 27 26  1  0  0  0  0
 28 29  4  0  0  0  0
 29 30  1  0  0  0  0
 31 29  4  0  0  0  0
 32 31  1  0  0  0  0
 33 31  4  0  0  0  0
 34 33  1  0  0  0  0
 35 33  4  0  0  0  0
 36 35  1  0  0  0  0
 37 28  4  0  0  0  0
 38 37  1  0  0  0  0
 39 40  4  0  0  0  0
 40 41  1  0  0  0  0
 42 40  4  0  0  0  0
 43 42  1  0  0  0  0
 44 42  4  0  0  0  0
 45 44  1  0  0  0  0
 46 44  4  0  0  0  0
 47 39  4  0  0  0  0
 48 47  1  0  0  0  0
 49 50  4  0  0  0  0
 50 51  1  0  0  0  0
 52 50  4  0  0  0  0
 53 52  1  0  0  0  0
 54 52  4  0  0  0  0
 55 54  1  0  0  0  0
 56 54  4  0  0  0  0
 57 56  1  0  0  0  0
 58 49  4  0  0  0  0
 59 58  1  0  0  0  0
 60 61  4  0  0  0  0
 61 62  1  0  0  0  0
 63 61  4  0  0  0  0
 64 63  1  0  0  0  0
 65 63  4  0  0  0  0
 66 65  1  0  0  0  0
 67 65  4  0  0  0  0
 68 67  1  0  0  0  0
 69 60  4  0  0  0  0
 70 69  1  0  0  0  0
 71 72  4  0  0  0  0
 72 73  1  0  0  0  0
 74 72  4  0  0  0  0
 75 74  1  0  0  0  0
 76 74  4  0  0  0  0
 77 76  1  0  0  0  0
 78 76  4  0  0  0  0
 79 71  4  0  0  0  0
 80 79  1  0  0  0  0
 81  1  4  0  0  0  0
 82  9  4  0  0  0  0
 83 39  1  0  0  0  0
 84 71  1  0  0  0  0
 85 46  1  0  0  0  0
 86 85  1  0  0  0  0
 87 85  1  0  0  0  0
 88 86  1  0  0  0  0
 89 87  1  0  0  0  0
 90 88  1  0  0  0  0
 91 90  1  0  0  0  0
 92 90  1  0  0  0  0
 93 90  1  0  0  0  0
 94 88  1  0  0  0  0
 95 94  1  0  0  0  0
 96 94  1  0  0  0  0
 97 94  1  0  0  0  0
 98 89  1  0  0  0  0
 99 98  1  0  0  0  0
100 98  1  0  0  0  0
101 98  1  0  0  0  0
102 89  1  0  0  0  0
103102  1  0  0  0  0
104102  1  0  0  0  0
105102  1  0  0  0  0
106 78  1  0  0  0  0
107106  1  0  0  0  0
108106  1  0  0  0  0
109107  1  0  0  0  0
110108  1  0  0  0  0
111109  1  0  0  0  0
112111  1  0  0  0  0
113111  1  0  0  0  0
114111  1  0  0  0  0
115109  1  0  0  0  0
116115  1  0  0  0  0
117115  1  0  0  0  0
118115  1  0  0  0  0
119110  1  0  0  0  0
120119  1  0  0  0  0
121119  1  0  0  0  0
122119  1  0  0  0  0
123110  1  0  0  0  0
124123  1  0  0  0  0
125123  1  0  0  0  0
126123  1  0  0  0  0
127  1  1  0  0  0  0
128 16  1  0  0  0  0
129130  1  0  0  0  0
130 81  1  0  0  0  0
  8 81  4  0  0  0  0
 16 82  4  0  0  0  0
 17127  1  0  0  0  0
 24 26  4  0  0  0  0
 28127  1  0  0  0  0
 35 37  4  0  0  0  0
 46 47  4  0  0  0  0
 49128  1  0  0  0  0
 56 58  4  0  0  0  0
 60128  1  0  0  0  0
 67 69  4  0  0  0  0
 78 79  4  0  0  0  0
 82130  1  0  0  0  0
 83127  2  0  0  0  0
 83130  1  0  0  0  0
 84128  2  0  0  0  0
 84130  1  0  0  0  0
 88 89  1  0  0  0  0
109110  1  0  0  0  0
M  CHG  1 130   1
M  END
$$$$
OVOJIU

From CSD data. Using bond type 'Any'. No disordered atoms. Largest molecule.
101105  0  0  0  0  0  0  0  0999 V2000
    5.6293    2.0938    1.1397 C   0  0  0  0  0  0  0  0  0  0  0  0
    6.0740    2.8543    0.7408 H   0  0  0  0  0  0  0  0  0  0  0  0
    5.7869    1.3240    0.5781 H   0  0  0  0  0  0  0  0  0  0  0  0
    4.1489    2.3619    1.2328 C   0  0  0  0  0  0  0  0  0  0  0  0
    3.2995    2.2202    0.1473 C   0  0  0  0  0  0  0  0  0  0  0  0
    3.6389    1.8718   -0.6726 H   0  0  0  0  0  0  0  0  0  0  0  0
    1.9553    2.5810    0.2368 C   0  0  0  0  0  0  0  0  0  0  0  0
    1.5215    3.0658    1.4731 C   0  0  0  0  0  0  0  0  0  0  0  0
    0.6350    3.3444    1.5746 H   0  0  0  0  0  0  0  0  0  0  0  0
    2.3928    3.1399    2.5536 C   0  0  0  0  0  0  0  0  0  0  0  0
    1.9592    3.5768    3.9253 C   0  0  0  0  0  0  0  0  0  0  0  0
    1.5400    2.8631    4.3680 H   0  0  0  0  0  0  0  0  0  0  0  0
    1.3438    4.2803    3.8545 H   0  0  0  0  0  0  0  0  0  0  0  0
    6.2860   -0.0610    2.9729 C   0  0  0  0  0  0  0  0  0  0  0  0
    6.8503   -0.4014    2.3576 H   0  0  0  0  0  0  0  0  0  0  0  0
    6.7529   -0.5203    4.3569 C   0  0  0  0  0  0  0  0  0  0  0  0
    7.6469   -0.2018    4.5162 H   0  0  0  0  0  0  0  0  0  0  0  0
    6.7435   -1.4815    4.3956 H   0  0  0  0  0  0  0  0  0  0  0  0
    6.1625   -0.1663    5.0290 H   0  0  0  0  0  0  0  0  0  0  0  0
    4.8868   -0.6059    2.6922 C   0  0  0  0  0  0  0  0  0  0  0  0
    4.6311   -0.3837    1.7969 H   0  0  0  0  0  0  0  0  0  0  0  0
    4.2646   -0.2196    3.3076 H   0  0  0  0  0  0  0  0  0  0  0  0
    4.8886   -1.5569    2.7963 H   0  0  0  0  0  0  0  0  0  0  0  0
    8.1293    2.1164    2.6128 C   0  0  0  0  0  0  0  0  0  0  0  0
    8.5921    1.6411    3.3294 H   0  0  0  0  0  0  0  0  0  0  0  0
    8.4854    3.5937    2.7601 C   0  0  0  0  0  0  0  0  0  0  0  0
    8.1704    3.9144    3.6040 H   0  0  0  0  0  0  0  0  0  0  0  0
    8.0736    4.0918    2.0555 H   0  0  0  0  0  0  0  0  0  0  0  0
    9.4344    3.6990    2.7135 H   0  0  0  0  0  0  0  0  0  0  0  0
    8.6835    1.5753    1.2899 C   0  0  0  0  0  0  0  0  0  0  0  0
    8.5009    0.6032    1.2275 H   0  0  0  0  0  0  0  0  0  0  0  0
    9.6627    1.7299    1.2536 H   0  0  0  0  0  0  0  0  0  0  0  0
    8.2470    2.0426    0.5331 H   0  0  0  0  0  0  0  0  0  0  0  0
    2.8638    3.9929    6.6523 C   0  0  0  0  0  0  0  0  0  0  0  0
    3.4950    4.4622    7.1891 H   0  0  0  0  0  0  0  0  0  0  0  0
    2.8690    2.5427    7.1278 C   0  0  0  0  0  0  0  0  0  0  0  0
    3.7365    2.1801    7.0235 H   0  0  0  0  0  0  0  0  0  0  0  0
    2.2527    2.0403    6.6138 H   0  0  0  0  0  0  0  0  0  0  0  0
    2.6204    2.5090    8.0403 H   0  0  0  0  0  0  0  0  0  0  0  0
    1.4986    4.6349    6.9036 C   0  0  0  0  0  0  0  0  0  0  0  0
    1.5323    5.5577    6.6647 H   0  0  0  0  0  0  0  0  0  0  0  0
    1.2747    4.5531    7.8268 H   0  0  0  0  0  0  0  0  0  0  0  0
    0.8380    4.1938    6.3756 H   0  0  0  0  0  0  0  0  0  0  0  0
    3.4878    5.9665    4.6130 C   0  0  0  0  0  0  0  0  0  0  0  0
    2.7162    6.3583    5.0363 H   0  0  0  0  0  0  0  0  0  0  0  0
    4.7455    6.5713    5.2415 C   0  0  0  0  0  0  0  0  0  0  0  0
    4.7472    6.3960    6.1882 H   0  0  0  0  0  0  0  0  0  0  0  0
    4.7548    7.5227    5.0900 H   0  0  0  0  0  0  0  0  0  0  0  0
    5.5270    6.1743    4.8416 H   0  0  0  0  0  0  0  0  0  0  0  0
    3.4342    6.2863    3.1154 C   0  0  0  0  0  0  0  0  0  0  0  0
    2.5976    5.9414    2.7382 H   0  0  0  0  0  0  0  0  0  0  0  0
    4.1943    5.8638    2.6641 H   0  0  0  0  0  0  0  0  0  0  0  0
    3.4758    7.2565    2.9870 H   0  0  0  0  0  0  0  0  0  0  0  0
    0.5129    1.6281   -4.3784 C   0  0  0  0  0  0  0  0  0  0  0  0
    1.0722    2.4373   -4.5801 H   0  0  0  0  0  0  0  0  0  0  0  0
   -0.3138    1.6411   -4.9506 H   0  0  0  0  0  0  0  0  0  0  0  0
    1.0419    0.7962   -4.5743 H   0  0  0  0  0  0  0  0  0  0  0  0
    0.1168    1.6403   -2.9212 C   0  0  0  0  0  0  0  0  0  0  0  0
   -0.5430    0.3145   -2.5559 C   0  0  0  0  0  0  0  0  0  0  0  0
   -0.8391    0.3415   -1.6008 H   0  0  0  0  0  0  0  0  0  0  0  0
    0.1136   -0.4302   -2.6815 H   0  0  0  0  0  0  0  0  0  0  0  0
   -1.3359    0.1619   -3.1464 H   0  0  0  0  0  0  0  0  0  0  0  0
   -0.3386    4.1563   -3.1967 C   0  0  0  0  0  0  0  0  0  0  0  0
    0.6648    4.2448   -3.2597 H   0  0  0  0  0  0  0  0  0  0  0  0
   -0.7153    4.9478   -2.6990 H   0  0  0  0  0  0  0  0  0  0  0  0
   -0.7321    4.1251   -4.1255 H   0  0  0  0  0  0  0  0  0  0  0  0
   -0.6894    2.8749   -2.4513 C   0  0  0  0  0  0  0  0  0  0  0  0
   -2.1908    2.6846   -2.4291 C   0  0  0  0  0  0  0  0  0  0  0  0
   -2.4146    1.9450   -1.8405 H   0  0  0  0  0  0  0  0  0  0  0  0
   -2.5055    2.4906   -3.3280 H   0  0  0  0  0  0  0  0  0  0  0  0
   -2.6154    3.4952   -2.1049 H   0  0  0  0  0  0  0  0  0  0  0  0
    7.9654    5.1286    6.8722 C   0  0  0  0  0  0  0  0  0  0  0  0
    8.1602    5.0299    5.9238 H   0  0  0  0  0  0  0  0  0  0  0  0
    8.7981    5.2295    7.3663 H   0  0  0  0  0  0  0  0  0  0  0  0
    7.4097    5.9148    7.0089 H   0  0  0  0  0  0  0  0  0  0  0  0
    7.2259    3.8911    7.3708 C   0  0  0  0  0  0  0  0  0  0  0  0
    6.9250    4.0215    8.8567 C   0  0  0  0  0  0  0  0  0  0  0  0
    6.3617    3.2668    9.1443 H   0  0  0  0  0  0  0  0  0  0  0  0
    6.4506    4.8680    9.0223 H   0  0  0  0  0  0  0  0  0  0  0  0
    7.7688    4.0142    9.3651 H   0  0  0  0  0  0  0  0  0  0  0  0
    9.4226    2.6243    6.8327 C   0  0  0  0  0  0  0  0  0  0  0  0
    9.6779    3.2845    6.1417 H   0  0  0  0  0  0  0  0  0  0  0  0
    9.7734    1.7343    6.5833 H   0  0  0  0  0  0  0  0  0  0  0  0
    9.8024    2.8964    7.7047 H   0  0  0  0  0  0  0  0  0  0  0  0
    7.9068    2.5609    6.9379 C   0  0  0  0  0  0  0  0  0  0  0  0
    7.4759    1.3633    7.7771 C   0  0  0  0  0  0  0  0  0  0  0  0
    6.4961    1.3506    7.8514 H   0  0  0  0  0  0  0  0  0  0  0  0
    7.8724    1.4327    8.6736 H   0  0  0  0  0  0  0  0  0  0  0  0
    7.7815    0.5345    7.3459 H   0  0  0  0  0  0  0  0  0  0  0  0
    3.7071    2.7973    2.4403 N   0  0  0  0  0  0  0  0  0  0  0  0
    1.3408    1.7403   -2.1107 O   0  0  0  0  0  0  0  0  0  0  0  0
   -0.2216    3.0432   -1.0686 O   0  0  0  0  0  0  0  0  0  0  0  0
    7.3738    2.3695    5.6048 O   0  0  0  0  0  0  0  0  0  0  0  0
    5.9718    3.8330    6.6448 O   0  0  0  0  0  0  0  0  0  0  0  0
    1.0037    2.4517   -0.9997 B   0  0  0  0  0  0  0  0  0  0  0  0
    6.1513    3.0463    5.4937 B   0  0  0  0  0  0  0  0  0  0  0  0
    4.9569    2.9405    3.9901 Co  0  0  0  0  0  0  0  0  0  0  0  0
    6.3138    1.7846    2.8302 P   0  0  0  0  0  0  0  0  0  0  0  0
    3.4406    4.1326    4.8914 P   0  0  0  0  0  0  0  0  0  0  0  0
    4.4380    1.7631    4.8053 H   0  0  0  0  0  0  0  0  0  0  0  0
    5.6889    4.1184    3.5023 H   0  0  0  0  0  0  0  0  0  0  0  0
  1  2  1  0  0  0  0
  3  1  1  0  0  0  0
  4  1  1  0  0  0  0
  5  4  4  0  0  0  0
  6  5  1  0  0  0  0
  7  5  4  0  0  0  0
  8  7  4  0  0  0  0
  9  8  1  0  0  0  0
 10  8  4  0  0  0  0
 11 10  1  0  0  0  0
 12 11  1  0  0  0  0
 13 11  1  0  0  0  0
 14 15  1  0  0  0  0
 16 14  1  0  0  0  0
 17 16  1  0  0  0  0
 18 16  1  0  0  0  0
 19 16  1  0  0  0  0
 20 14  1  0  0  0  0
 21 20  1  0  0  0  0
 22 20  1  0  0  0  0
 23 20  1  0  0  0  0
 24 25  1  0  0  0  0
 26 24  1  0  0  0  0
 27 26  1  0  0  0  0
 28 26  1  0  0  0  0
 29 26  1  0  0  0  0
 30 24  1  0  0  0  0
 31 30  1  0  0  0  0
 32 30  1  0  0  0  0
 33 30  1  0  0  0  0
 34 35  1  0  0  0  0
 36 34  1  0  0  0  0
 37 36  1  0  0  0  0
 38 36  1  0  0  0  0
 39 36  1  0  0  0  0
 40 34  1  0  0  0  0
 41 40  1  0  0  0  0
 42 40  1  0  0  0  0
 43 40  1  0  0  0  0
 44 45  1  0  0  0  0
 46 44  1  0  0  0  0
 47 46  1  0  0  0  0
 48 46  1  0  0  0  0
 49 46  1  0  0  0  0
 50 44  1  0  0  0  0
 51 50  1  0  0  0  0
 52 50  1  0  0  0  0
 53 50  1  0  0  0  0
 54 55  1  0  0  0  0
 56 54  1  0  0  0  0
 57 54  1  0  0  0  0
 58 54  1  0  0  0  0
 59 58  1  0  0  0  0
 60 59  1  0  0  0  0
 61 59  1  0  0  0  0
 62 59  1  0  0  0  0
 63 64  1  0  0  0  0
 65 63  1  0  0  0  0
 66 63  1  0  0  0  0
 67 58  1  0  0  0  0
 68 67  1  0  0  0  0
 69 68  1  0  0  0  0
 70 68  1  0  0  0  0
 71 68  1  0  0  0  0
 72 73  1  0  0  0  0
 74 72  1  0  0  0  0
 75 72  1  0  0  0  0
 76 72  1  0  0  0  0
 77 76  1  0  0  0  0
 78 77  1  0  0  0  0
 79 77  1  0  0  0  0
 80 77  1  0  0  0  0
 81 82  1  0  0  0  0
 83 81  1  0  0  0  0
 84 81  1  0  0  0  0
 85 76  1  0  0  0  0
 86 85  1  0  0  0  0
 87 86  1  0  0  0  0
 88 86  1  0  0  0  0
 89 86  1  0  0  0  0
 90  4  4  0  0  0  0
 91 58  1  0  0  0  0
 92 67  1  0  0  0  0
 93 85  1  0  0  0  0
 94 76  1  0  0  0  0
 95  7  1  0  0  0  0
 96 93  1  0  0  0  0
 97 90  1  0  0  0  0
 98  1  1  0  0  0  0
 99 11  1  0  0  0  0
100 97  1  0  0  0  0
101 97  1  0  0  0  0
 10 90  4  0  0  0  0
 14 98  1  0  0  0  0
 24 98  1  0  0  0  0
 34 99  1  0  0  0  0
 44 99  1  0  0  0  0
 63 67  1  0  0  0  0
 81 85  1  0  0  0  0
 91 95  1  0  0  0  0
 92 95  1  0  0  0  0
 94 96  1  0  0  0  0
 96 97  1  0  0  0  0
 97 98  1  0  0  0  0
 97 99  1  0  0  0  0
M  END
$$$$
OVOQAT

From CSD data. Using bond type 'Any'. No disordered atoms. Largest molecule.
 69 90  0  0  0  0  0  0  0  0999 V2000
    5.4696    4.3841    3.6720 Ru  0  0  0  0  0  0  0  0  0  0  0  0
    5.4121    2.1145    4.0357 P   0  0  0  0  0  0  0  0  0  0  0  0
    5.8453    1.8738    5.6213 O   0  0  0  0  0  0  0  0  0  0  0  0
    2.9679    4.3841    1.8853 O   0  0  0  0  0  0  0  0  0  0  0  0
    7.6314    4.3841    1.5131 O   0  0  0  0  0  0  0  0  0  0  0  0
    6.0454    3.0587    6.3508 C   0  0  0  0  0  0  0  0  0  0  0  0
    3.8833    4.3841    2.5577 C   0  0  0  0  0  0  0  0  0  0  0  0
    6.7915    4.3841    2.2865 C   0  0  0  0  0  0  0  0  0  0  0  0
    3.7746    1.2788    3.8988 C   0  0  0  0  0  0  0  0  0  0  0  0
    3.4703    1.3977    2.9539 H   0  0  0  0  0  0  0  0  0  0  0  0
    2.7224    1.9541    4.7852 C   0  0  0  0  0  0  0  0  0  0  0  0
    2.9538    1.8185    5.7279 H   0  0  0  0  0  0  0  0  0  0  0  0
    1.8425    1.5625    4.6045 H   0  0  0  0  0  0  0  0  0  0  0  0
    2.6985    2.9145    4.5903 H   0  0  0  0  0  0  0  0  0  0  0  0
    3.8045   -0.2285    4.1636 C   0  0  0  0  0  0  0  0  0  0  0  0
    4.3988   -0.6629    3.5166 H   0  0  0  0  0  0  0  0  0  0  0  0
    2.9001   -0.5945    4.0722 H   0  0  0  0  0  0  0  0  0  0  0  0
    4.1333   -0.3946    5.0717 H   0  0  0  0  0  0  0  0  0  0  0  0
    6.5726    0.9654    3.2042 C   0  0  0  0  0  0  0  0  0  0  0  0
    6.4371    0.0579    3.6009 H   0  0  0  0  0  0  0  0  0  0  0  0
    8.0295    1.3640    3.4403 C   0  0  0  0  0  0  0  0  0  0  0  0
    8.2085    2.2219    3.0016 H   0  0  0  0  0  0  0  0  0  0  0  0
    8.6205    0.6769    3.0676 H   0  0  0  0  0  0  0  0  0  0  0  0
    8.1926    1.4485    4.4023 H   0  0  0  0  0  0  0  0  0  0  0  0
    6.2402    0.8749    1.7104 C   0  0  0  0  0  0  0  0  0  0  0  0
    5.3287    0.5331    1.5988 H   0  0  0  0  0  0  0  0  0  0  0  0
    6.8723    0.2683    1.2707 H   0  0  0  0  0  0  0  0  0  0  0  0
    6.3080    1.7659    1.3063 H   0  0  0  0  0  0  0  0  0  0  0  0
    6.7200    4.3841    5.4496 B   0  0  0  0  0  0  0  0  0  0  0  0
    5.0487    4.3841    5.8529 B   0  0  0  0  0  0  0  0  0  0  0  0
    7.6494    3.4975    6.7060 B   0  0  0  0  0  0  0  0  0  0  0  0
    8.4537    2.8479    6.4268 H   0  0  0  0  0  0  0  0  0  0  0  0
    4.8105    3.5071    7.4202 B   0  0  0  0  0  0  0  0  0  0  0  0
    4.0187    2.8654    7.5553 H   0  0  0  0  0  0  0  0  0  0  0  0
    6.4557    2.9519    7.9535 B   0  0  0  0  0  0  0  0  0  0  0  0
    6.5445    1.9799    8.4075 H   0  0  0  0  0  0  0  0  0  0  0  0
    7.4614    4.3841    8.2430 B   0  0  0  0  0  0  0  0  0  0  0  0
    8.1969    4.3841    8.9692 H   0  0  0  0  0  0  0  0  0  0  0  0
    5.7045    4.3841    8.6869 B   0  0  0  0  0  0  0  0  0  0  0  0
    5.3838    4.3841    9.7108 H   0  0  0  0  0  0  0  0  0  0  0  0
    5.4121    6.6537    4.0357 P   0  0  0  0  0  0  0  0  0  0  0  0
    5.8453    6.8944    5.6213 O   0  0  0  0  0  0  0  0  0  0  0  0
    6.0454    5.7095    6.3508 C   0  0  0  0  0  0  0  0  0  0  0  0
    3.7746    7.4894    3.8988 C   0  0  0  0  0  0  0  0  0  0  0  0
    3.4703    7.3705    2.9539 H   0  0  0  0  0  0  0  0  0  0  0  0
    2.7224    6.8141    4.7852 C   0  0  0  0  0  0  0  0  0  0  0  0
    2.9538    6.9497    5.7279 H   0  0  0  0  0  0  0  0  0  0  0  0
    1.8425    7.2057    4.6045 H   0  0  0  0  0  0  0  0  0  0  0  0
    2.6985    5.8537    4.5903 H   0  0  0  0  0  0  0  0  0  0  0  0
    3.8045    8.9967    4.1636 C   0  0  0  0  0  0  0  0  0  0  0  0
    4.3988    9.4311    3.5166 H   0  0  0  0  0  0  0  0  0  0  0  0
    2.9001    9.3627    4.0722 H   0  0  0  0  0  0  0  0  0  0  0  0
    4.1333    9.1628    5.0717 H   0  0  0  0  0  0  0  0  0  0  0  0
    6.5726    7.8028    3.2042 C   0  0  0  0  0  0  0  0  0  0  0  0
    6.4371    8.7103    3.6009 H   0  0  0  0  0  0  0  0  0  0  0  0
    8.0295    7.4042    3.4403 C   0  0  0  0  0  0  0  0  0  0  0  0
    8.2085    6.5463    3.0016 H   0  0  0  0  0  0  0  0  0  0  0  0
    8.6205    8.0913    3.0676 H   0  0  0  0  0  0  0  0  0  0  0  0
    8.1926    7.3197    4.4023 H   0  0  0  0  0  0  0  0  0  0  0  0
    6.2402    7.8933    1.7104 C   0  0  0  0  0  0  0  0  0  0  0  0
    5.3287    8.2351    1.5988 H   0  0  0  0  0  0  0  0  0  0  0  0
    6.8723    8.4999    1.2707 H   0  0  0  0  0  0  0  0  0  0  0  0
    6.3080    7.0023    1.3063 H   0  0  0  0  0  0  0  0  0  0  0  0
    7.6494    5.2707    6.7060 B   0  0  0  0  0  0  0  0  0  0  0  0
    8.4537    5.9203    6.4268 H   0  0  0  0  0  0  0  0  0  0  0  0
    4.8105    5.2611    7.4202 B   0  0  0  0  0  0  0  0  0  0  0  0
    4.0187    5.9028    7.5553 H   0  0  0  0  0  0  0  0  0  0  0  0
    6.4557    5.8163    7.9535 B   0  0  0  0  0  0  0  0  0  0  0  0
    6.5445    6.7883    8.4075 H   0  0  0  0  0  0  0  0  0  0  0  0
  1  2  1  0  0  0  0
  2  3  1  0  0  0  0
  3  6  1  0  0  0  0
  4  7  3  0  0  0  0
  5  8  3  0  0  0  0
  6 29  1  0  0  0  0
  7  1  1  0  0  0  0
  8  1  1  0  0  0  0
  9  2  1  0  0  0  0
 10  9  1  0  0  0  0
 11  9  1  0  0  0  0
 12 11  1  0  0  0  0
 13 11  1  0  0  0  0
 14 11  1  0  0  0  0
 15  9  1  0  0  0  0
 16 15  1  0  0  0  0
 17 15  1  0  0  0  0
 18 15  1  0  0  0  0
 19  2  1  0  0  0  0
 20 19  1  0  0  0  0
 21 19  1  0  0  0  0
 22 21  1  0  0  0  0
 23 21  1  0  0  0  0
 24 21  1  0  0  0  0
 25 19  1  0  0  0  0
 26 25  1  0  0  0  0
 27 25  1  0  0  0  0
 28 25  1  0  0  0  0
 29  1  1  0  0  0  0
 30  1  1  0  0  0  0
 31  6  1  0  0  0  0
 32 31  1  0  0  0  0
 33  6  1  0  0  0  0
 34 33  1  0  0  0  0
 35  6  1  0  0  0  0
 36 35  1  0  0  0  0
 37 31  1  0  0  0  0
 38 37  1  0  0  0  0
 39 33  1  0  0  0  0
 40 39  1  0  0  0  0
 41  1  1  0  0  0  0
 42 41  1  0  0  0  0
 43 29  1  0  0  0  0
 44 41  1  0  0  0  0
 45 44  1  0  0  0  0
 46 44  1  0  0  0  0
 47 46  1  0  0  0  0
 48 46  1  0  0  0  0
 49 46  1  0  0  0  0
 50 44  1  0  0  0  0
 51 50  1  0  0  0  0
 52 50  1  0  0  0  0
 53 50  1  0  0  0  0
 54 41  1  0  0  0  0
 55 54  1  0  0  0  0
 56 54  1  0  0  0  0
 57 56  1  0  0  0  0
 58 56  1  0  0  0  0
 59 56  1  0  0  0  0
 60 54  1  0  0  0  0
 61 60  1  0  0  0  0
 62 60  1  0  0  0  0
 63 60  1  0  0  0  0
 64 29  1  0  0  0  0
 65 64  1  0  0  0  0
 66 30  1  0  0  0  0
 67 66  1  0  0  0  0
 68 37  1  0  0  0  0
 69 68  1  0  0  0  0
  6 30  1  0  0  0  0
 29 30  1  0  0  0  0
 29 31  1  0  0  0  0
 30 33  1  0  0  0  0
 30 43  1  0  0  0  0
 31 35  1  0  0  0  0
 31 64  1  0  0  0  0
 33 35  1  0  0  0  0
 33 66  1  0  0  0  0
 35 37  1  0  0  0  0
 35 39  1  0  0  0  0
 37 39  1  0  0  0  0
 37 64  1  0  0  0  0
 39 66  1  0  0  0  0
 39 68  1  0  0  0  0
 42 43  1  0  0  0  0
 43 64  1  0  0  0  0
 43 66  1  0  0  0  0
 43 68  1  0  0  0  0
 64 68  1  0  0  0  0
 66 68  1  0  0  0  0
M  END
$$$$
OVOQIB

From CSD data. Using bond type 'Any'. No disordered atoms. Largest molecule.
 71 91  0  0  0  0  0  0  0  0999 V2000
    3.2448    2.0753    5.1394 Ru  0  0  0  0  0  0  0  0  0  0  0  0
    4.9875    3.7897    5.2802 Cl  0  0  0  0  0  0  0  0  0  0  0  0
    4.4873    0.7340    3.6279 P   0  0  0  0  0  0  0  0  0  0  0  0
    1.4914    3.6052    5.5362 P   0  0  0  0  0  0  0  0  0  0  0  0
    3.8031    0.8415    2.0846 O   0  0  0  0  0  0  0  0  0  0  0  0
    0.6578    3.9174    4.1127 O   0  0  0  0  0  0  0  0  0  0  0  0
    1.3058   -0.1685    5.3083 O   0  0  0  0  0  0  0  0  0  0  0  0
    4.3239    1.5213    7.9864 O   0  0  0  0  0  0  0  0  0  0  0  0
    3.0448    1.9840    1.8367 C   0  0  0  0  0  0  0  0  0  0  0  0
    1.3449    3.6470    2.9240 C   0  0  0  0  0  0  0  0  0  0  0  0
    2.0095    0.6914    5.2061 C   0  0  0  0  0  0  0  0  0  0  0  0
    3.8995    1.6538    6.9515 C   0  0  0  0  0  0  0  0  0  0  0  0
    4.5032   -1.0982    3.7716 C   0  0  0  0  0  0  0  0  0  0  0  0
    5.3388   -1.4097    3.3205 H   0  0  0  0  0  0  0  0  0  0  0  0
    4.6084   -1.5418    5.2346 C   0  0  0  0  0  0  0  0  0  0  0  0
    5.3364   -1.0537    5.6716 H   0  0  0  0  0  0  0  0  0  0  0  0
    4.7913   -2.5037    5.2707 H   0  0  0  0  0  0  0  0  0  0  0  0
    3.7644   -1.3523    5.6946 H   0  0  0  0  0  0  0  0  0  0  0  0
    3.3448   -1.8050    3.0724 C   0  0  0  0  0  0  0  0  0  0  0  0
    2.4996   -1.5404    3.4914 H   0  0  0  0  0  0  0  0  0  0  0  0
    3.4584   -2.7750    3.1513 H   0  0  0  0  0  0  0  0  0  0  0  0
    3.3329   -1.5533    2.1244 H   0  0  0  0  0  0  0  0  0  0  0  0
    6.2437    1.1872    3.3225 C   0  0  0  0  0  0  0  0  0  0  0  0
    6.2724    2.1807    3.2055 H   0  0  0  0  0  0  0  0  0  0  0  0
    6.8235    0.5714    2.0472 C   0  0  0  0  0  0  0  0  0  0  0  0
    6.8582   -0.4034    2.1425 H   0  0  0  0  0  0  0  0  0  0  0  0
    7.7273    0.9173    1.8993 H   0  0  0  0  0  0  0  0  0  0  0  0
    6.2545    0.8039    1.2848 H   0  0  0  0  0  0  0  0  0  0  0  0
    7.0853    0.8585    4.5511 C   0  0  0  0  0  0  0  0  0  0  0  0
    6.6765    1.2604    5.3446 H   0  0  0  0  0  0  0  0  0  0  0  0
    7.9903    1.2159    4.4328 H   0  0  0  0  0  0  0  0  0  0  0  0
    7.1319   -0.1134    4.6644 H   0  0  0  0  0  0  0  0  0  0  0  0
    0.0454    3.1210    6.5784 C   0  0  0  0  0  0  0  0  0  0  0  0
   -0.3837    3.9637    6.9022 H   0  0  0  0  0  0  0  0  0  0  0  0
    0.4961    2.3343    7.8190 C   0  0  0  0  0  0  0  0  0  0  0  0
    0.7985    1.4428    7.5479 H   0  0  0  0  0  0  0  0  0  0  0  0
   -0.2546    2.2481    8.4433 H   0  0  0  0  0  0  0  0  0  0  0  0
    1.2325    2.8094    8.2577 H   0  0  0  0  0  0  0  0  0  0  0  0
   -1.0173    2.3414    5.8014 C   0  0  0  0  0  0  0  0  0  0  0  0
   -1.3592    2.8956    5.0686 H   0  0  0  0  0  0  0  0  0  0  0  0
   -1.7549    2.1046    6.4027 H   0  0  0  0  0  0  0  0  0  0  0  0
   -0.6204    1.5246    5.4334 H   0  0  0  0  0  0  0  0  0  0  0  0
    1.9796    5.2844    6.1035 C   0  0  0  0  0  0  0  0  0  0  0  0
    2.8045    5.5313    5.5944 H   0  0  0  0  0  0  0  0  0  0  0  0
    0.9372    6.3611    5.8014 C   0  0  0  0  0  0  0  0  0  0  0  0
    0.7436    6.3683    4.8419 H   0  0  0  0  0  0  0  0  0  0  0  0
    1.2851    7.2368    6.0708 H   0  0  0  0  0  0  0  0  0  0  0  0
    0.1160    6.1687    6.2992 H   0  0  0  0  0  0  0  0  0  0  0  0
    2.3670    5.2586    7.5845 C   0  0  0  0  0  0  0  0  0  0  0  0
    1.5636    5.1222    8.1295 H   0  0  0  0  0  0  0  0  0  0  0  0
    2.7854    6.1113    7.8272 H   0  0  0  0  0  0  0  0  0  0  0  0
    2.9981    4.5264    7.7451 H   0  0  0  0  0  0  0  0  0  0  0  0
    2.8188    2.8987    3.2270 B   0  0  0  0  0  0  0  0  0  0  0  0
    1.4584    2.0084    2.4773 B   0  0  0  0  0  0  0  0  0  0  0  0
    1.0400    1.1844    2.9837 H   0  0  0  0  0  0  0  0  0  0  0  0
    2.7411    4.5881    2.6283 B   0  0  0  0  0  0  0  0  0  0  0  0
    2.9647    5.3849    3.2926 H   0  0  0  0  0  0  0  0  0  0  0  0
    3.8768    3.4870    1.8993 B   0  0  0  0  0  0  0  0  0  0  0  0
    4.9252    3.4454    2.0455 H   0  0  0  0  0  0  0  0  0  0  0  0
    0.5236    3.1124    1.4935 B   0  0  0  0  0  0  0  0  0  0  0  0
   -0.6097    2.9717    1.4738 H   0  0  0  0  0  0  0  0  0  0  0  0
    1.3042    4.7059    1.5756 B   0  0  0  0  0  0  0  0  0  0  0  0
    0.6933    5.5701    1.6430 H   0  0  0  0  0  0  0  0  0  0  0  0
    2.9372    4.5738    0.8741 B   0  0  0  0  0  0  0  0  0  0  0  0
    3.3950    5.3978    0.3730 H   0  0  0  0  0  0  0  0  0  0  0  0
    3.1739    2.8683    0.3730 B   0  0  0  0  0  0  0  0  0  0  0  0
    3.8134    2.5266   -0.3779 H   0  0  0  0  0  0  0  0  0  0  0  0
    1.6796    1.9739    0.7412 B   0  0  0  0  0  0  0  0  0  0  0  0
    1.4345    1.0623    0.2349 H   0  0  0  0  0  0  0  0  0  0  0  0
    1.5899    3.6478    0.1791 B   0  0  0  0  0  0  0  0  0  0  0  0
    1.1835    3.8761   -0.8051 H   0  0  0  0  0  0  0  0  0  0  0  0
  1  2  1  0  0  0  0
  3  1  1  0  0  0  0
  4  1  1  0  0  0  0
  5  3  1  0  0  0  0
  6  4  1  0  0  0  0
  7 11  3  0  0  0  0
  8 12  3  0  0  0  0
  9  5  1  0  0  0  0
 10  6  1  0  0  0  0
 11  1  1  0  0  0  0
 12  1  1  0  0  0  0
 13  3  1  0  0  0  0
 14 13  1  0  0  0  0
 15 13  1  0  0  0  0
 16 15  1  0  0  0  0
 17 15  1  0  0  0  0
 18 15  1  0  0  0  0
 19 13  1  0  0  0  0
 20 19  1  0  0  0  0
 21 19  1  0  0  0  0
 22 19  1  0  0  0  0
 23  3  1  0  0  0  0
 24 23  1  0  0  0  0
 25 23  1  0  0  0  0
 26 25  1  0  0  0  0
 27 25  1  0  0  0  0
 28 25  1  0  0  0  0
 29 23  1  0  0  0  0
 30 29  1  0  0  0  0
 31 29  1  0  0  0  0
 32 29  1  0  0  0  0
 33  4  1  0  0  0  0
 34 33  1  0  0  0  0
 35 33  1  0  0  0  0
 36 35  1  0  0  0  0
 37 35  1  0  0  0  0
 38 35  1  0  0  0  0
 39 33  1  0  0  0  0
 40 39  1  0  0  0  0
 41 39  1  0  0  0  0
 42 39  1  0  0  0  0
 43  4  1  0  0  0  0
 44 43  1  0  0  0  0
 45 43  1  0  0  0  0
 46 45  1  0  0  0  0
 47 45  1  0  0  0  0
 48 45  1  0  0  0  0
 49 43  1  0  0  0  0
 50 49  1  0  0  0  0
 51 49  1  0  0  0  0
 52 49  1  0  0  0  0
 53  1  1  0  0  0  0
 54  9  1  0  0  0  0
 55 54  1  0  0  0  0
 56 10  1  0  0  0  0
 57 56  1  0  0  0  0
 58  9  1  0  0  0  0
 59 58  1  0  0  0  0
 60 10  1  0  0  0  0
 61 60  1  0  0  0  0
 62 10  1  0  0  0  0
 63 62  1  0  0  0  0
 64 56  1  0  0  0  0
 65 64  1  0  0  0  0
 66  9  1  0  0  0  0
 67 66  1  0  0  0  0
 68  9  1  0  0  0  0
 69 68  1  0  0  0  0
 70 60  1  0  0  0  0
 71 70  1  0  0  0  0
  9 53  1  0  0  0  0
 10 53  1  0  0  0  0
 10 54  1  0  0  0  0
 53 54  1  0  0  0  0
 53 56  1  0  0  0  0
 53 58  1  0  0  0  0
 54 60  1  0  0  0  0
 54 68  1  0  0  0  0
 56 58  1  0  0  0  0
 56 62  1  0  0  0  0
 58 64  1  0  0  0  0
 58 66  1  0  0  0  0
 60 62  1  0  0  0  0
 60 68  1  0  0  0  0
 62 64  1  0  0  0  0
 62 70  1  0  0  0  0
 64 66  1  0  0  0  0
 64 70  1  0  0  0  0
 66 68  1  0  0  0  0
 66 70  1  0  0  0  0
 68 70  1  0  0  0  0
M  END
$$$$
OVORAU

From CSD data. Using bond type 'Any'. Matching problem. No disordered atoms. Largest molecule.
 69 90  0  0  0  0  0  0  0  0999 V2000
    3.5768    6.4648    4.8406 Ru  0  0  0  0  0  0  0  0  0  0  0  0
    3.3617    6.4648    7.6092 I   0  0  0  0  0  0  0  0  0  0  0  0
    6.4606    6.4648    4.8599 I   0  0  0  0  0  0  0  0  0  0  0  0
    3.8139    4.1584    4.4494 P   0  0  0  0  0  0  0  0  0  0  0  0
    4.7536    4.0185    3.0392 O   0  0  0  0  0  0  0  0  0  0  0  0
    0.6499    6.4648    4.3323 O   0  0  0  0  0  0  0  0  0  0  0  0
    4.8287    5.1414    2.2271 C   0  0  0  0  0  0  0  0  0  0  0  0
    1.7821    6.4648    4.5425 C   0  0  0  0  0  0  0  0  0  0  0  0
    4.8544    3.0912    5.5390 C   0  0  0  0  0  0  0  0  0  0  0  0
    5.5923    3.6784    5.8716 H   0  0  0  0  0  0  0  0  0  0  0  0
    4.0890    2.6428    6.7809 C   0  0  0  0  0  0  0  0  0  0  0  0
    3.6267    3.4121    7.1748 H   0  0  0  0  0  0  0  0  0  0  0  0
    4.7167    2.2691    7.4348 H   0  0  0  0  0  0  0  0  0  0  0  0
    3.4320    1.9601    6.5316 H   0  0  0  0  0  0  0  0  0  0  0  0
    5.5344    1.9137    4.8559 C   0  0  0  0  0  0  0  0  0  0  0  0
    4.8594    1.2503    4.6006 H   0  0  0  0  0  0  0  0  0  0  0  0
    6.1785    1.5050    5.4715 H   0  0  0  0  0  0  0  0  0  0  0  0
    6.0028    2.2278    4.0544 H   0  0  0  0  0  0  0  0  0  0  0  0
    2.2721    3.2816    3.9613 C   0  0  0  0  0  0  0  0  0  0  0  0
    1.8514    3.8530    3.2558 H   0  0  0  0  0  0  0  0  0  0  0  0
    1.2525    3.2298    5.1115 C   0  0  0  0  0  0  0  0  0  0  0  0
    1.4966    2.5122    5.7315 H   0  0  0  0  0  0  0  0  0  0  0  0
    0.3584    3.0578    4.7483 H   0  0  0  0  0  0  0  0  0  0  0  0
    1.2525    4.0870    5.5869 H   0  0  0  0  0  0  0  0  0  0  0  0
    2.4604    1.9121    3.3183 C   0  0  0  0  0  0  0  0  0  0  0  0
    3.1654    1.9640    2.6404 H   0  0  0  0  0  0  0  0  0  0  0  0
    1.6223    1.6317    2.8958 H   0  0  0  0  0  0  0  0  0  0  0  0
    2.7147    1.2606    4.0052 H   0  0  0  0  0  0  0  0  0  0  0  0
    3.9092    6.4648    2.8084 B   0  0  0  0  0  0  0  0  0  0  0  0
    5.6995    6.4648    2.8425 B   0  0  0  0  0  0  0  0  0  0  0  0
    3.4394    5.5881    1.3262 B   0  0  0  0  0  0  0  0  0  0  0  0
    2.6225    4.9973    1.3448 H   0  0  0  0  0  0  0  0  0  0  0  0
    6.3494    5.5715    1.4882 B   0  0  0  0  0  0  0  0  0  0  0  0
    7.2029    4.9106    1.5971 H   0  0  0  0  0  0  0  0  0  0  0  0
    4.9442    5.0192    0.5279 B   0  0  0  0  0  0  0  0  0  0  0  0
    4.9508    4.0081    0.0646 H   0  0  0  0  0  0  0  0  0  0  0  0
    4.0870    6.4648   -0.0714 B   0  0  0  0  0  0  0  0  0  0  0  0
    3.5777    6.4648   -1.0155 H   0  0  0  0  0  0  0  0  0  0  0  0
    5.8671    6.4648    0.0337 B   0  0  0  0  0  0  0  0  0  0  0  0
    6.4364    6.4648   -0.8617 H   0  0  0  0  0  0  0  0  0  0  0  0
    3.8139    8.7711    4.4494 P   0  0  0  0  0  0  0  0  0  0  0  0
    4.7536    8.9110    3.0392 O   0  0  0  0  0  0  0  0  0  0  0  0
    4.8287    7.7881    2.2271 C   0  0  0  0  0  0  0  0  0  0  0  0
    4.8544    9.8383    5.5390 C   0  0  0  0  0  0  0  0  0  0  0  0
    5.5923    9.2511    5.8716 H   0  0  0  0  0  0  0  0  0  0  0  0
    4.0890   10.2867    6.7809 C   0  0  0  0  0  0  0  0  0  0  0  0
    3.6267    9.5174    7.1748 H   0  0  0  0  0  0  0  0  0  0  0  0
    4.7167   10.6604    7.4348 H   0  0  0  0  0  0  0  0  0  0  0  0
    3.4320   10.9694    6.5316 H   0  0  0  0  0  0  0  0  0  0  0  0
    5.5344   11.0158    4.8559 C   0  0  0  0  0  0  0  0  0  0  0  0
    4.8594   11.6792    4.6006 H   0  0  0  0  0  0  0  0  0  0  0  0
    6.1785   11.4245    5.4715 H   0  0  0  0  0  0  0  0  0  0  0  0
    6.0028   10.7017    4.0544 H   0  0  0  0  0  0  0  0  0  0  0  0
    2.2721    9.6479    3.9613 C   0  0  0  0  0  0  0  0  0  0  0  0
    1.8514    9.0765    3.2558 H   0  0  0  0  0  0  0  0  0  0  0  0
    1.2525    9.6997    5.1115 C   0  0  0  0  0  0  0  0  0  0  0  0
    1.4966   10.4173    5.7315 H   0  0  0  0  0  0  0  0  0  0  0  0
    0.3584    9.8717    4.7483 H   0  0  0  0  0  0  0  0  0  0  0  0
    1.2525    8.8425    5.5869 H   0  0  0  0  0  0  0  0  0  0  0  0
    2.4604   11.0174    3.3183 C   0  0  0  0  0  0  0  0  0  0  0  0
    3.1654   10.9655    2.6404 H   0  0  0  0  0  0  0  0  0  0  0  0
    1.6223   11.2978    2.8958 H   0  0  0  0  0  0  0  0  0  0  0  0
    2.7147   11.6689    4.0052 H   0  0  0  0  0  0  0  0  0  0  0  0
    3.4394    7.3414    1.3262 B   0  0  0  0  0  0  0  0  0  0  0  0
    2.6225    7.9322    1.3448 H   0  0  0  0  0  0  0  0  0  0  0  0
    6.3494    7.3580    1.4882 B   0  0  0  0  0  0  0  0  0  0  0  0
    7.2029    8.0189    1.5971 H   0  0  0  0  0  0  0  0  0  0  0  0
    4.9442    7.9103    0.5279 B   0  0  0  0  0  0  0  0  0  0  0  0
    4.9508    8.9214    0.0646 H   0  0  0  0  0  0  0  0  0  0  0  0
  1  2  1  0  0  0  0
  3  1  1  0  0  0  0
  4  1  1  0  0  0  0
  5  4  1  0  0  0  0
  6  8  3  0  0  0  0
  7  5  1  0  0  0  0
  8  1  1  0  0  0  0
  9  4  1  0  0  0  0
 10  9  1  0  0  0  0
 11  9  1  0  0  0  0
 12 11  1  0  0  0  0
 13 11  1  0  0  0  0
 14 11  1  0  0  0  0
 15  9  1  0  0  0  0
 16 15  1  0  0  0  0
 17 15  1  0  0  0  0
 18 15  1  0  0  0  0
 19  4  1  0  0  0  0
 20 19  1  0  0  0  0
 21 19  1  0  0  0  0
 22 21  1  0  0  0  0
 23 21  1  0  0  0  0
 24 21  1  0  0  0  0
 25 19  1  0  0  0  0
 26 25  1  0  0  0  0
 27 25  1  0  0  0  0
 28 25  1  0  0  0  0
 29  1  1  0  0  0  0
 30  3  1  0  0  0  0
 31  7  1  0  0  0  0
 32 31  1  0  0  0  0
 33  7  1  0  0  0  0
 34 33  1  0  0  0  0
 35  7  1  0  0  0  0
 36 35  1  0  0  0  0
 37 31  1  0  0  0  0
 38 37  1  0  0  0  0
 39 33  1  0  0  0  0
 40 39  1  0  0  0  0
 41  1  1  0  0  0  0
 42 41  1  0  0  0  0
 43 29  1  0  0  0  0
 44 41  1  0  0  0  0
 45 44  1  0  0  0  0
 46 44  1  0  0  0  0
 47 46  1  0  0  0  0
 48 46  1  0  0  0  0
 49 46  1  0  0  0  0
 50 44  1  0  0  0  0
 51 50  1  0  0  0  0
 52 50  1  0  0  0  0
 53 50  1  0  0  0  0
 54 41  1  0  0  0  0
 55 54  1  0  0  0  0
 56 54  1  0  0  0  0
 57 56  1  0  0  0  0
 58 56  1  0  0  0  0
 59 56  1  0  0  0  0
 60 54  1  0  0  0  0
 61 60  1  0  0  0  0
 62 60  1  0  0  0  0
 63 60  1  0  0  0  0
 64 29  1  0  0  0  0
 65 64  1  0  0  0  0
 66 30  1  0  0  0  0
 67 66  1  0  0  0  0
 68 37  1  0  0  0  0
 69 68  1  0  0  0  0
  7 29  1  0  0  0  0
  7 30  1  0  0  0  0
 29 30  1  0  0  0  0
 29 31  1  0  0  0  0
 30 33  1  0  0  0  0
 30 43  1  0  0  0  0
 31 35  1  0  0  0  0
 31 64  1  0  0  0  0
 33 35  1  0  0  0  0
 33 66  1  0  0  0  0
 35 37  1  0  0  0  0
 35 39  1  0  0  0  0
 37 39  1  0  0  0  0
 37 64  1  0  0  0  0
 39 66  1  0  0  0  0
 39 68  1  0  0  0  0
 42 43  1  0  0  0  0
 43 64  1  0  0  0  0
 43 66  1  0  0  0  0
 43 68  1  0  0  0  0
 64 68  1  0  0  0  0
 66 68  1  0  0  0  0
M  END
$$$$
OVOREY

From CSD data. Using bond type 'Any'. No disordered atoms. Largest molecule.
 85106  0  0  0  0  0  0  0  0999 V2000
    1.8771    4.1885    9.1738 Ru  0  0  0  0  0  0  0  0  0  0  0  0
    2.9229    4.6842    7.1329 P   0  0  0  0  0  0  0  0  0  0  0  0
    0.2166    3.0738   10.4053 P   0  0  0  0  0  0  0  0  0  0  0  0
    2.1400    3.8978    5.8678 O   0  0  0  0  0  0  0  0  0  0  0  0
   -0.7259    2.1285    9.3727 O   0  0  0  0  0  0  0  0  0  0  0  0
    4.2158    4.7327   11.1123 O   0  0  0  0  0  0  0  0  0  0  0  0
    0.5563    6.9252    9.4803 O   0  0  0  0  0  0  0  0  0  0  0  0
    0.8443    3.4602    6.1448 C   0  0  0  0  0  0  0  0  0  0  0  0
   -0.7043    2.5142    8.0269 C   0  0  0  0  0  0  0  0  0  0  0  0
    3.3402    4.5038   10.4112 C   0  0  0  0  0  0  0  0  0  0  0  0
    1.0944    5.9268    9.3918 C   0  0  0  0  0  0  0  0  0  0  0  0
    1.5569   -1.0696    8.3866 C   0  0  0  0  0  0  0  0  0  0  0  0
    1.8168   -1.9672    8.0915 H   0  0  0  0  0  0  0  0  0  0  0  0
    0.5907   -0.9549    8.2716 H   0  0  0  0  0  0  0  0  0  0  0  0
    1.7902   -0.9549    9.3324 H   0  0  0  0  0  0  0  0  0  0  0  0
    2.2975   -0.0236    7.5479 C   0  0  0  0  0  0  0  0  0  0  0  0
    3.2718   -0.1480    7.6729 H   0  0  0  0  0  0  0  0  0  0  0  0
    2.0952   -0.1800    6.5925 H   0  0  0  0  0  0  0  0  0  0  0  0
    1.9395    1.4169    7.8954 C   0  0  0  0  0  0  0  0  0  0  0  0
    2.5532    2.1521    8.8365 C   0  0  0  0  0  0  0  0  0  0  0  0
    3.6340    1.5231    9.7168 C   0  0  0  0  0  0  0  0  0  0  0  0
    3.4966    0.5428    9.7164 H   0  0  0  0  0  0  0  0  0  0  0  0
    3.4961    1.8391   10.6448 H   0  0  0  0  0  0  0  0  0  0  0  0
    5.0900    1.8005    9.3320 C   0  0  0  0  0  0  0  0  0  0  0  0
    5.2596    1.4590    8.4300 H   0  0  0  0  0  0  0  0  0  0  0  0
    5.6861    1.3523    9.9680 H   0  0  0  0  0  0  0  0  0  0  0  0
    5.2554    2.7660    9.3541 H   0  0  0  0  0  0  0  0  0  0  0  0
    4.6144    4.0692    6.7821 C   0  0  0  0  0  0  0  0  0  0  0  0
    4.6575    3.1528    7.1783 H   0  0  0  0  0  0  0  0  0  0  0  0
    5.6663    4.8946    7.5319 C   0  0  0  0  0  0  0  0  0  0  0  0
    5.8318    5.7308    7.0481 H   0  0  0  0  0  0  0  0  0  0  0  0
    6.4992    4.3824    7.5948 H   0  0  0  0  0  0  0  0  0  0  0  0
    5.3399    5.0986    8.4321 H   0  0  0  0  0  0  0  0  0  0  0  0
    4.9825    3.8997    5.3077 C   0  0  0  0  0  0  0  0  0  0  0  0
    4.3059    3.3462    4.8636 H   0  0  0  0  0  0  0  0  0  0  0  0
    5.8569    3.4635    5.2367 H   0  0  0  0  0  0  0  0  0  0  0  0
    5.0204    4.7785    4.8766 H   0  0  0  0  0  0  0  0  0  0  0  0
    2.7828    6.4467    6.6034 C   0  0  0  0  0  0  0  0  0  0  0  0
    1.8131    6.6697    6.7032 H   0  0  0  0  0  0  0  0  0  0  0  0
    3.5088    7.4099    7.5516 C   0  0  0  0  0  0  0  0  0  0  0  0
    3.4421    7.0765    8.4712 H   0  0  0  0  0  0  0  0  0  0  0  0
    3.0948    8.2968    7.4950 H   0  0  0  0  0  0  0  0  0  0  0  0
    4.4521    7.4726    7.2932 H   0  0  0  0  0  0  0  0  0  0  0  0
    3.1037    6.7457    5.1508 C   0  0  0  0  0  0  0  0  0  0  0  0
    4.0705    6.6750    5.0089 H   0  0  0  0  0  0  0  0  0  0  0  0
    2.8059    7.6526    4.9309 H   0  0  0  0  0  0  0  0  0  0  0  0
    2.6417    6.1002    4.5751 H   0  0  0  0  0  0  0  0  0  0  0  0
    0.6838    1.7378   11.5850 C   0  0  0  0  0  0  0  0  0  0  0  0
    1.2328    1.0896   11.0570 H   0  0  0  0  0  0  0  0  0  0  0  0
    1.6013    2.2392   12.7091 C   0  0  0  0  0  0  0  0  0  0  0  0
    2.2321    2.8967   12.3477 H   0  0  0  0  0  0  0  0  0  0  0  0
    2.0978    1.4830   13.0875 H   0  0  0  0  0  0  0  0  0  0  0  0
    1.0598    2.6567   13.4107 H   0  0  0  0  0  0  0  0  0  0  0  0
   -0.4748    0.9256   12.1581 C   0  0  0  0  0  0  0  0  0  0  0  0
   -0.9436    1.4577   12.8358 H   0  0  0  0  0  0  0  0  0  0  0  0
   -0.1265    0.1067   12.5690 H   0  0  0  0  0  0  0  0  0  0  0  0
   -1.0965    0.6908   11.4388 H   0  0  0  0  0  0  0  0  0  0  0  0
   -1.0767    4.1530   11.1585 C   0  0  0  0  0  0  0  0  0  0  0  0
   -1.2364    4.8786   10.4886 H   0  0  0  0  0  0  0  0  0  0  0  0
   -0.5625    4.8679   12.4072 C   0  0  0  0  0  0  0  0  0  0  0  0
   -0.5039    4.2291   13.1482 H   0  0  0  0  0  0  0  0  0  0  0  0
   -1.1799    5.5907   12.6471 H   0  0  0  0  0  0  0  0  0  0  0  0
    0.3245    5.2427   12.2263 H   0  0  0  0  0  0  0  0  0  0  0  0
   -2.4490    3.5089   11.3854 C   0  0  0  0  0  0  0  0  0  0  0  0
   -2.7137    3.0114   10.5841 H   0  0  0  0  0  0  0  0  0  0  0  0
   -3.1118    4.2077   11.5690 H   0  0  0  0  0  0  0  0  0  0  0  0
   -2.4006    2.8967   12.1482 H   0  0  0  0  0  0  0  0  0  0  0  0
    0.3720    3.7743    7.7356 B   0  0  0  0  0  0  0  0  0  0  0  0
    0.7434    2.0845    7.1865 B   0  0  0  0  0  0  0  0  0  0  0  0
   -1.3909    4.0304    7.6236 B   0  0  0  0  0  0  0  0  0  0  0  0
   -1.8832    4.6158    8.3649 H   0  0  0  0  0  0  0  0  0  0  0  0
   -0.3526    4.6678    6.3661 B   0  0  0  0  0  0  0  0  0  0  0  0
   -0.1217    5.6548    6.2021 H   0  0  0  0  0  0  0  0  0  0  0  0
   -0.8011    1.3283    6.7733 B   0  0  0  0  0  0  0  0  0  0  0  0
   -0.9152    0.3201    7.0503 H   0  0  0  0  0  0  0  0  0  0  0  0
   -2.1070    2.5113    7.0477 B   0  0  0  0  0  0  0  0  0  0  0  0
   -3.0318    2.1605    7.5188 H   0  0  0  0  0  0  0  0  0  0  0  0
   -1.8671    3.8730    5.9296 B   0  0  0  0  0  0  0  0  0  0  0  0
   -2.6593    4.4678    5.5122 H   0  0  0  0  0  0  0  0  0  0  0  0
   -0.3983    3.5516    4.9805 B   0  0  0  0  0  0  0  0  0  0  0  0
   -0.2019    3.8943    4.0284 H   0  0  0  0  0  0  0  0  0  0  0  0
    0.2557    1.9725    5.4899 B   0  0  0  0  0  0  0  0  0  0  0  0
    0.8570    1.3870    4.8224 H   0  0  0  0  0  0  0  0  0  0  0  0
   -1.4989    2.2139    5.4001 B   0  0  0  0  0  0  0  0  0  0  0  0
   -2.0896    1.7471    4.6315 H   0  0  0  0  0  0  0  0  0  0  0  0
  1  2  1  0  0  0  0
  2  4  1  0  0  0  0
  3  1  1  0  0  0  0
  4  8  1  0  0  0  0
  5  3  1  0  0  0  0
  6 10  3  0  0  0  0
  7 11  3  0  0  0  0
  8 68  1  0  0  0  0
  9  5  1  0  0  0  0
 10  1  1  0  0  0  0
 11  1  1  0  0  0  0
 12 13  1  0  0  0  0
 14 12  1  0  0  0  0
 15 12  1  0  0  0  0
 16 12  1  0  0  0  0
 17 16  1  0  0  0  0
 18 16  1  0  0  0  0
 19 16  1  0  0  0  0
 20  1  1  0  0  0  0
 21 20  1  0  0  0  0
 22 21  1  0  0  0  0
 23 21  1  0  0  0  0
 24 21  1  0  0  0  0
 25 24  1  0  0  0  0
 26 24  1  0  0  0  0
 27 24  1  0  0  0  0
 28  2  1  0  0  0  0
 29 28  1  0  0  0  0
 30 28  1  0  0  0  0
 31 30  1  0  0  0  0
 32 30  1  0  0  0  0
 33 30  1  0  0  0  0
 34 28  1  0  0  0  0
 35 34  1  0  0  0  0
 36 34  1  0  0  0  0
 37 34  1  0  0  0  0
 38  2  1  0  0  0  0
 39 38  1  0  0  0  0
 40 38  1  0  0  0  0
 41 40  1  0  0  0  0
 42 40  1  0  0  0  0
 43 40  1  0  0  0  0
 44 38  1  0  0  0  0
 45 44  1  0  0  0  0
 46 44  1  0  0  0  0
 47 44  1  0  0  0  0
 48  3  1  0  0  0  0
 49 48  1  0  0  0  0
 50 48  1  0  0  0  0
 51 50  1  0  0  0  0
 52 50  1  0  0  0  0
 53 50  1  0  0  0  0
 54 48  1  0  0  0  0
 55 54  1  0  0  0  0
 56 54  1  0  0  0  0
 57 54  1  0  0  0  0
 58  3  1  0  0  0  0
 59 58  1  0  0  0  0
 60 58  1  0  0  0  0
 61 60  1  0  0  0  0
 62 60  1  0  0  0  0
 63 60  1  0  0  0  0
 64 58  1  0  0  0  0
 65 64  1  0  0  0  0
 66 64  1  0  0  0  0
 67 64  1  0  0  0  0
 68  1  1  0  0  0  0
 69  8  1  0  0  0  0
 70  9  1  0  0  0  0
 71 70  1  0  0  0  0
 72  8  1  0  0  0  0
 73 72  1  0  0  0  0
 74  9  1  0  0  0  0
 75 74  1  0  0  0  0
 76  9  1  0  0  0  0
 77 76  1  0  0  0  0
 78 70  1  0  0  0  0
 79 78  1  0  0  0  0
 80  8  1  0  0  0  0
 81 80  1  0  0  0  0
 82  8  1  0  0  0  0
 83 82  1  0  0  0  0
 84 74  1  0  0  0  0
 85 84  1  0  0  0  0
  9 68  1  0  0  0  0
  9 69  1  0  0  0  0
 19 20  2  0  0  0  0
 19 69  1  0  0  0  0
 68 69  1  0  0  0  0
 68 70  1  0  0  0  0
 68 72  1  0  0  0  0
 69 74  1  0  0  0  0
 69 82  1  0  0  0  0
 70 72  1  0  0  0  0
 70 76  1  0  0  0  0
 72 78  1  0  0  0  0
 72 80  1  0  0  0  0
 74 76  1  0  0  0  0
 74 82  1  0  0  0  0
 76 78  1  0  0  0  0
 76 84  1  0  0  0  0
 78 80  1  0  0  0  0
 78 84  1  0  0  0  0
 80 82  1  0  0  0  0
 80 84  1  0  0  0  0
 82 84  1  0  0  0  0
M  END
$$$$
OVORIC

From CSD data. Using bond type 'Any'. No disordered atoms. Largest molecule.
 73 94  0  0  0  0  0  0  0  0999 V2000
    6.5482    4.8133    8.8632 Ru  0  0  0  0  0  0  0  0  0  0  0  0
    5.8928    5.6900    6.7792 P   0  0  0  0  0  0  0  0  0  0  0  0
    6.4665    3.2189   10.5860 P   0  0  0  0  0  0  0  0  0  0  0  0
    4.8127    4.6326    6.0663 O   0  0  0  0  0  0  0  0  0  0  0  0
    5.4383    1.9906   10.1201 O   0  0  0  0  0  0  0  0  0  0  0  0
    9.3202    6.1395    9.2520 O   0  0  0  0  0  0  0  0  0  0  0  0
    5.1734    6.9261   10.5242 O   0  0  0  0  0  0  0  0  0  0  0  0
    4.2136    3.6953    6.9151 C   0  0  0  0  0  0  0  0  0  0  0  0
    4.5442    2.2870    9.0845 C   0  0  0  0  0  0  0  0  0  0  0  0
    8.3241    5.6146    9.0907 C   0  0  0  0  0  0  0  0  0  0  0  0
    5.6861    6.1367    9.8816 C   0  0  0  0  0  0  0  0  0  0  0  0
    7.0735    5.9820    5.3734 C   0  0  0  0  0  0  0  0  0  0  0  0
    6.9577    6.9362    5.0972 H   0  0  0  0  0  0  0  0  0  0  0  0
    6.7417    5.1301    4.1468 C   0  0  0  0  0  0  0  0  0  0  0  0
    6.8366    4.1817    4.3731 H   0  0  0  0  0  0  0  0  0  0  0  0
    7.3559    5.3558    3.4160 H   0  0  0  0  0  0  0  0  0  0  0  0
    5.8200    5.3080    3.8657 H   0  0  0  0  0  0  0  0  0  0  0  0
    8.5367    5.8233    5.7915 C   0  0  0  0  0  0  0  0  0  0  0  0
    8.7362    6.4427    6.5246 H   0  0  0  0  0  0  0  0  0  0  0  0
    9.1183    6.0222    5.0291 H   0  0  0  0  0  0  0  0  0  0  0  0
    8.6934    4.9030    6.0894 H   0  0  0  0  0  0  0  0  0  0  0  0
    4.9177    7.2465    6.8637 C   0  0  0  0  0  0  0  0  0  0  0  0
    4.2485    7.1373    7.5973 H   0  0  0  0  0  0  0  0  0  0  0  0
    4.1369    7.5359    5.5778 C   0  0  0  0  0  0  0  0  0  0  0  0
    4.7616    7.6153    4.8269 H   0  0  0  0  0  0  0  0  0  0  0  0
    3.6391    8.3746    5.6789 H   0  0  0  0  0  0  0  0  0  0  0  0
    3.5105    6.8026    5.4045 H   0  0  0  0  0  0  0  0  0  0  0  0
    5.8386    8.4110    7.2583 C   0  0  0  0  0  0  0  0  0  0  0  0
    6.3540    8.1651    8.0552 H   0  0  0  0  0  0  0  0  0  0  0  0
    5.2973    9.2042    7.4529 H   0  0  0  0  0  0  0  0  0  0  0  0
    6.4520    8.6066    6.5205 H   0  0  0  0  0  0  0  0  0  0  0  0
    7.9748    2.2225   10.8948 C   0  0  0  0  0  0  0  0  0  0  0  0
    8.2575    1.8799    9.9983 H   0  0  0  0  0  0  0  0  0  0  0  0
    7.7710    0.9784   11.7635 C   0  0  0  0  0  0  0  0  0  0  0  0
    7.5853    1.2514   12.6862 H   0  0  0  0  0  0  0  0  0  0  0  0
    8.5820    0.4289   11.7414 H   0  0  0  0  0  0  0  0  0  0  0  0
    7.0153    0.4584   11.4175 H   0  0  0  0  0  0  0  0  0  0  0  0
    9.1529    3.0631   11.4041 C   0  0  0  0  0  0  0  0  0  0  0  0
    9.2348    3.8738   10.8606 H   0  0  0  0  0  0  0  0  0  0  0  0
    9.9795    2.5408   11.3392 H   0  0  0  0  0  0  0  0  0  0  0  0
    8.9970    3.3113   12.3396 H   0  0  0  0  0  0  0  0  0  0  0  0
    5.6888    3.7933   12.1571 C   0  0  0  0  0  0  0  0  0  0  0  0
    4.9156    4.3631   11.8796 H   0  0  0  0  0  0  0  0  0  0  0  0
    5.0914    2.6988   13.0434 C   0  0  0  0  0  0  0  0  0  0  0  0
    4.5611    2.0852   12.4923 H   0  0  0  0  0  0  0  0  0  0  0  0
    4.5161    3.1074   13.7237 H   0  0  0  0  0  0  0  0  0  0  0  0
    5.8139    2.2033   13.4824 H   0  0  0  0  0  0  0  0  0  0  0  0
    6.6200    4.7234   12.9442 C   0  0  0  0  0  0  0  0  0  0  0  0
    7.2904    4.1887   13.4185 H   0  0  0  0  0  0  0  0  0  0  0  0
    6.0954    5.2405   13.5917 H   0  0  0  0  0  0  0  0  0  0  0  0
    7.0694    5.3361   12.3252 H   0  0  0  0  0  0  0  0  0  0  0  0
    4.6607    3.8721    8.5292 B   0  0  0  0  0  0  0  0  0  0  0  0
    5.2859    2.4994    7.5409 B   0  0  0  0  0  0  0  0  0  0  0  0
    3.2310    3.3444    9.4521 B   0  0  0  0  0  0  0  0  0  0  0  0
    3.1234    3.6642   10.4480 H   0  0  0  0  0  0  0  0  0  0  0  0
    3.0072    4.2897    7.9917 B   0  0  0  0  0  0  0  0  0  0  0  0
    2.7254    5.3051    7.8922 H   0  0  0  0  0  0  0  0  0  0  0  0
    4.2255    1.1153    7.8737 B   0  0  0  0  0  0  0  0  0  0  0  0
    4.6710    0.1350    7.9397 H   0  0  0  0  0  0  0  0  0  0  0  0
    2.9745    1.6211    9.0544 B   0  0  0  0  0  0  0  0  0  0  0  0
    2.6731    0.9393    9.8127 H   0  0  0  0  0  0  0  0  0  0  0  0
    1.9687    2.8856    8.2926 B   0  0  0  0  0  0  0  0  0  0  0  0
    0.9325    3.0034    8.4966 H   0  0  0  0  0  0  0  0  0  0  0  0
    2.6123    3.1701    6.6525 B   0  0  0  0  0  0  0  0  0  0  0  0
    2.0793    3.5040    5.8109 H   0  0  0  0  0  0  0  0  0  0  0  0
    4.0035    2.0724    6.3955 B   0  0  0  0  0  0  0  0  0  0  0  0
    4.2756    1.8040    5.4107 H   0  0  0  0  0  0  0  0  0  0  0  0
    2.5854    1.5143    7.3153 B   0  0  0  0  0  0  0  0  0  0  0  0
    1.9472    0.7916    6.9289 H   0  0  0  0  0  0  0  0  0  0  0  0
    6.9485    2.6221    7.3367 B   0  0  0  0  0  0  0  0  0  0  0  0
    7.4981    3.5757    7.9892 H   0  0  0  0  0  0  0  0  0  0  0  0
    7.2609    2.8515    6.3183 H   0  0  0  0  0  0  0  0  0  0  0  0
    7.5372    1.7899    7.8056 H   0  0  0  0  0  0  0  0  0  0  0  0
  1  2  1  0  0  0  0
  2  4  1  0  0  0  0
  3  1  1  0  0  0  0
  4  8  1  0  0  0  0
  5  3  1  0  0  0  0
  6 10  3  0  0  0  0
  7 11  3  0  0  0  0
  8 52  1  0  0  0  0
  9  5  1  0  0  0  0
 10  1  1  0  0  0  0
 11  1  1  0  0  0  0
 12  2  1  0  0  0  0
 13 12  1  0  0  0  0
 14 12  1  0  0  0  0
 15 14  1  0  0  0  0
 16 14  1  0  0  0  0
 17 14  1  0  0  0  0
 18 12  1  0  0  0  0
 19 18  1  0  0  0  0
 20 18  1  0  0  0  0
 21 18  1  0  0  0  0
 22  2  1  0  0  0  0
 23 22  1  0  0  0  0
 24 22  1  0  0  0  0
 25 24  1  0  0  0  0
 26 24  1  0  0  0  0
 27 24  1  0  0  0  0
 28 22  1  0  0  0  0
 29 28  1  0  0  0  0
 30 28  1  0  0  0  0
 31 28  1  0  0  0  0
 32  3  1  0  0  0  0
 33 32  1  0  0  0  0
 34 32  1  0  0  0  0
 35 34  1  0  0  0  0
 36 34  1  0  0  0  0
 37 34  1  0  0  0  0
 38 32  1  0  0  0  0
 39 38  1  0  0  0  0
 40 38  1  0  0  0  0
 41 38  1  0  0  0  0
 42  3  1  0  0  0  0
 43 42  1  0  0  0  0
 44 42  1  0  0  0  0
 45 44  1  0  0  0  0
 46 44  1  0  0  0  0
 47 44  1  0  0  0  0
 48 42  1  0  0  0  0
 49 48  1  0  0  0  0
 50 48  1  0  0  0  0
 51 48  1  0  0  0  0
 52  1  1  0  0  0  0
 53  8  1  0  0  0  0
 54  9  1  0  0  0  0
 55 54  1  0  0  0  0
 56  8  1  0  0  0  0
 57 56  1  0  0  0  0
 58  9  1  0  0  0  0
 59 58  1  0  0  0  0
 60  9  1  0  0  0  0
 61 60  1  0  0  0  0
 62 54  1  0  0  0  0
 63 62  1  0  0  0  0
 64  8  1  0  0  0  0
 65 64  1  0  0  0  0
 66  8  1  0  0  0  0
 67 66  1  0  0  0  0
 68 58  1  0  0  0  0
 69 68  1  0  0  0  0
 70 53  1  0  0  0  0
 71  1  1  0  0  0  0
 72 70  1  0  0  0  0
 73 70  1  0  0  0  0
  9 52  1  0  0  0  0
  9 53  1  0  0  0  0
 52 53  1  0  0  0  0
 52 54  1  0  0  0  0
 52 56  1  0  0  0  0
 53 58  1  0  0  0  0
 53 66  1  0  0  0  0
 54 56  1  0  0  0  0
 54 60  1  0  0  0  0
 56 62  1  0  0  0  0
 56 64  1  0  0  0  0
 58 60  1  0  0  0  0
 58 66  1  0  0  0  0
 60 62  1  0  0  0  0
 60 68  1  0  0  0  0
 62 64  1  0  0  0  0
 62 68  1  0  0  0  0
 64 66  1  0  0  0  0
 64 68  1  0  0  0  0
 66 68  1  0  0  0  0
 70 71  1  0  0  0  0
M  END
$$$$
OXIQIW

From CSD data. Using bond type 'Any'. No disordered atoms. Largest molecule.
117160  0  0  0  0  0  0  0  0999 V2000
   -0.2737    3.4217    4.9358 O   0  0  0  0  0  0  0  0  0  0  0  0
    0.7947    3.4433    4.5289 C   0  0  0  0  0  0  0  0  0  0  0  0
    4.3098    0.9907    1.4608 C   0  0  0  0  0  0  0  0  0  0  0  0
    4.6251    1.8235    1.7312 H   0  0  0  0  0  0  0  0  0  0  0  0
    0.9899    2.5634    0.9452 C   0  0  0  0  0  0  0  0  0  0  0  0
    3.9696    6.6422    5.1178 C   0  0  0  0  0  0  0  0  0  0  0  0
    0.5497    0.8137    3.1692 C   0  0  0  0  0  0  0  0  0  0  0  0
    3.0005    0.6469    1.7009 C   0  0  0  0  0  0  0  0  0  0  0  0
    2.5769    5.1433    7.0310 C   0  0  0  0  0  0  0  0  0  0  0  0
    3.7953    7.9767    4.7741 C   0  0  0  0  0  0  0  0  0  0  0  0
    2.9479    8.2925    4.5618 H   0  0  0  0  0  0  0  0  0  0  0  0
    5.2484    6.1837    5.4236 C   0  0  0  0  0  0  0  0  0  0  0  0
    5.3738    5.2911    5.6561 H   0  0  0  0  0  0  0  0  0  0  0  0
    2.0294    3.9642    7.5389 C   0  0  0  0  0  0  0  0  0  0  0  0
    1.6837    3.3274    6.9551 H   0  0  0  0  0  0  0  0  0  0  0  0
    0.0579    3.5758    1.1550 C   0  0  0  0  0  0  0  0  0  0  0  0
   -0.0934    3.8941    2.0168 H   0  0  0  0  0  0  0  0  0  0  0  0
    6.1479    8.3625    5.0546 C   0  0  0  0  0  0  0  0  0  0  0  0
    6.8773    8.9394    5.0369 H   0  0  0  0  0  0  0  0  0  0  0  0
    0.8584    0.0930    4.3015 C   0  0  0  0  0  0  0  0  0  0  0  0
    1.7220    0.1375    4.6477 H   0  0  0  0  0  0  0  0  0  0  0  0
    4.8757    8.8388    4.7463 C   0  0  0  0  0  0  0  0  0  0  0  0
    4.7545    9.7327    4.5213 H   0  0  0  0  0  0  0  0  0  0  0  0
    2.5414   -0.6087    1.3268 C   0  0  0  0  0  0  0  0  0  0  0  0
    1.6619   -0.8557    1.4962 H   0  0  0  0  0  0  0  0  0  0  0  0
    5.1585    0.1108    0.8264 C   0  0  0  0  0  0  0  0  0  0  0  0
    6.0348    0.3642    0.6445 H   0  0  0  0  0  0  0  0  0  0  0  0
    1.9992    3.7337    8.9062 C   0  0  0  0  0  0  0  0  0  0  0  0
    1.6327    2.9467    9.2398 H   0  0  0  0  0  0  0  0  0  0  0  0
    3.0946    6.0729    7.9332 C   0  0  0  0  0  0  0  0  0  0  0  0
    3.4705    6.8637    7.6198 H   0  0  0  0  0  0  0  0  0  0  0  0
    3.0512    5.8221    9.2878 C   0  0  0  0  0  0  0  0  0  0  0  0
    3.4006    6.4486    9.8818 H   0  0  0  0  0  0  0  0  0  0  0  0
    6.3296    7.0356    5.3832 C   0  0  0  0  0  0  0  0  0  0  0  0
    7.1803    6.7160    5.5803 H   0  0  0  0  0  0  0  0  0  0  0  0
   -0.7556    0.7475    2.6865 C   0  0  0  0  0  0  0  0  0  0  0  0
   -0.9912    1.2250    1.9258 H   0  0  0  0  0  0  0  0  0  0  0  0
    1.2032    2.1177   -0.3437 C   0  0  0  0  0  0  0  0  0  0  0  0
    1.8174    1.4390   -0.5055 H   0  0  0  0  0  0  0  0  0  0  0  0
   -0.4317    3.6674   -1.1676 C   0  0  0  0  0  0  0  0  0  0  0  0
   -0.9128    4.0278   -1.8753 H   0  0  0  0  0  0  0  0  0  0  0  0
    2.5104    4.6760    9.7655 C   0  0  0  0  0  0  0  0  0  0  0  0
    2.4836    4.5257   10.6829 H   0  0  0  0  0  0  0  0  0  0  0  0
   -1.3734   -0.7258    4.4733 C   0  0  0  0  0  0  0  0  0  0  0  0
   -2.0211   -1.2199    4.9232 H   0  0  0  0  0  0  0  0  0  0  0  0
    3.3998   -1.4861    0.7026 C   0  0  0  0  0  0  0  0  0  0  0  0
    3.0882   -2.3227    0.4423 H   0  0  0  0  0  0  0  0  0  0  0  0
   -1.6997   -0.0204    3.3310 C   0  0  0  0  0  0  0  0  0  0  0  0
   -2.5675   -0.0637    2.9949 H   0  0  0  0  0  0  0  0  0  0  0  0
    0.5056    2.6793   -1.3925 C   0  0  0  0  0  0  0  0  0  0  0  0
    0.6679    2.3877   -2.2594 H   0  0  0  0  0  0  0  0  0  0  0  0
   -0.6449    4.1081    0.0935 C   0  0  0  0  0  0  0  0  0  0  0  0
   -1.2713    4.7779    0.2477 H   0  0  0  0  0  0  0  0  0  0  0  0
    4.7226   -1.1423    0.4549 C   0  0  0  0  0  0  0  0  0  0  0  0
    5.3014   -1.7459    0.0480 H   0  0  0  0  0  0  0  0  0  0  0  0
   -0.0795   -0.6915    4.9358 C   0  0  0  0  0  0  0  0  0  0  0  0
    0.1625   -1.1970    5.6763 H   0  0  0  0  0  0  0  0  0  0  0  0
    1.1001    6.5110    4.9889 C   0  0  0  0  0  0  0  0  0  0  0  0
    0.4021    6.4601    3.7884 C   0  0  0  0  0  0  0  0  0  0  0  0
    0.7119    5.9214    3.0985 H   0  0  0  0  0  0  0  0  0  0  0  0
    4.2884    4.2392    0.0126 B   0  0  0  0  0  0  0  0  0  0  0  0
    3.9732    3.2345   -0.3033 H   0  0  0  0  0  0  0  0  0  0  0  0
    6.4961    2.6041    5.5095 B   0  5  0  0  0  0  0  0  0  0  0  0
    6.9414    3.5528    5.1784 H   0  0  0  0  0  0  0  0  0  0  0  0
    0.6379    7.3400    5.9847 C   0  0  0  0  0  0  0  0  0  0  0  0
    1.1014    7.3871    6.7909 H   0  0  0  0  0  0  0  0  0  0  0  0
    5.3105    6.0819    1.9410 C   0  0  0  0  0  0  0  0  0  0  0  0
    5.6758    6.2792    2.9595 H   0  0  0  0  0  0  0  0  0  0  0  0
    5.6366    4.5296    1.2131 B   0  0  0  0  0  0  0  0  0  0  0  0
    6.1880    3.7158    1.7085 H   0  0  0  0  0  0  0  0  0  0  0  0
    6.3989   -0.2954    5.3023 B   0  0  0  0  0  0  0  0  0  0  0  0
    6.7484   -1.2097    4.8019 H   0  0  0  0  0  0  0  0  0  0  0  0
    5.2767    2.5010    6.8490 B   0  0  0  0  0  0  0  0  0  0  0  0
    4.9055    3.3860    7.3848 H   0  0  0  0  0  0  0  0  0  0  0  0
    3.1522    5.6654    0.1415 B   0  0  0  0  0  0  0  0  0  0  0  0
    2.0810    5.5967   -0.0986 H   0  0  0  0  0  0  0  0  0  0  0  0
    4.3237    1.0811    6.5584 C   0  0  0  0  0  0  0  0  0  0  0  0
    3.2828    1.0429    6.9122 H   0  0  0  0  0  0  0  0  0  0  0  0
    6.1760    1.1957    4.4026 B   0  0  0  0  0  0  0  0  0  0  0  0
    6.4209    1.2187    3.3310 H   0  0  0  0  0  0  0  0  0  0  0  0
    7.4498    1.1181    5.5803 B   0  0  0  0  0  0  0  0  0  0  0  0
    8.5028    1.1168    5.2618 H   0  0  0  0  0  0  0  0  0  0  0  0
   -0.7518    7.2050    3.6090 C   0  0  0  0  0  0  0  0  0  0  0  0
   -1.2268    7.1541    2.8104 H   0  0  0  0  0  0  0  0  0  0  0  0
    4.0718    7.1108   -0.2831 B   0  0  0  0  0  0  0  0  0  0  0  0
    3.5748    7.9627   -0.7734 H   0  0  0  0  0  0  0  0  0  0  0  0
    6.9329    1.9178    7.0790 B   0  0  0  0  0  0  0  0  0  0  0  0
    7.6385    2.4424    7.7386 H   0  0  0  0  0  0  0  0  0  0  0  0
    4.7572    0.2814    5.0875 B   0  0  0  0  0  0  0  0  0  0  0  0
    4.0436   -0.2840    4.4733 H   0  0  0  0  0  0  0  0  0  0  0  0
    3.7943    6.7759    1.4254 B   0  0  0  0  0  0  0  0  0  0  0  0
    3.1494    7.4075    2.0522 H   0  0  0  0  0  0  0  0  0  0  0  0
    5.5497    0.9933    7.7285 B   0  0  0  0  0  0  0  0  0  0  0  0
    5.3487    0.9156    8.8077 H   0  0  0  0  0  0  0  0  0  0  0  0
    5.7149    6.6371   -0.7076 B   0  0  0  0  0  0  0  0  0  0  0  0
    6.2923    7.1668   -1.4785 H   0  0  0  0  0  0  0  0  0  0  0  0
    5.3657    7.3769    0.8669 B   0  0  0  0  0  0  0  0  0  0  0  0
    5.7102    8.3855    1.1398 H   0  0  0  0  0  0  0  0  0  0  0  0
    6.9011    0.1605    6.9526 B   0  0  0  0  0  0  0  0  0  0  0  0
    7.6013   -0.4610    7.5288 H   0  0  0  0  0  0  0  0  0  0  0  0
   -1.1954    8.0289    4.6376 C   0  0  0  0  0  0  0  0  0  0  0  0
   -1.9689    8.5319    4.5315 H   0  0  0  0  0  0  0  0  0  0  0  0
    5.2356   -0.3400    6.6569 B   0  0  0  0  0  0  0  0  0  0  0  0
    4.8337   -1.2874    7.0436 H   0  0  0  0  0  0  0  0  0  0  0  0
   -0.4859    8.0964    5.8128 C   0  0  0  0  0  0  0  0  0  0  0  0
   -0.7723    8.6605    6.4952 H   0  0  0  0  0  0  0  0  0  0  0  0
    5.8533    4.8925   -0.4979 B   0  0  0  0  0  0  0  0  0  0  0  0
    6.5233    4.2825   -1.1221 H   0  0  0  0  0  0  0  0  0  0  0  0
    6.4857    6.0054    0.7304 B   0  0  0  0  0  0  0  0  0  0  0  0
    7.5652    6.1226    0.9149 H   0  0  0  0  0  0  0  0  0  0  0  0
    4.3634    5.5865   -1.1246 B   0  0  0  0  0  0  0  0  0  0  0  0
    4.0552    5.4375   -2.1684 H   0  0  0  0  0  0  0  0  0  0  0  0
    2.5303    3.5686    3.8678 Ir  0  0  0  0  0  0  0  0  0  0  0  0
    3.6038    4.6998    1.9903 Ge  0  0  0  0  0  0  0  0  0  0  0  0
    4.4525    2.4266    4.8330 Ge  0  0  0  0  0  0  0  0  0  0  0  0
    2.5928    5.4715    5.2310 P   0  0  0  0  0  0  0  0  0  0  0  0
    1.8362    1.8616    2.4040 P   0  0  0  0  0  0  0  0  0  0  0  0
  1  2  3  0  0  0  0
  2113  1  0  0  0  0
  3  4  1  0  0  0  0
  5 16  4  0  0  0  0
  6 10  4  0  0  0  0
  7 20  4  0  0  0  0
  8  3  4  0  0  0  0
  9 14  4  0  0  0  0
 10 11  1  0  0  0  0
 12  6  4  0  0  0  0
 13 12  1  0  0  0  0
 14 15  1  0  0  0  0
 16 17  1  0  0  0  0
 18 19  1  0  0  0  0
 20 21  1  0  0  0  0
 22 10  4  0  0  0  0
 23 22  1  0  0  0  0
 24  8  4  0  0  0  0
 25 24  1  0  0  0  0
 26  3  4  0  0  0  0
 27 26  1  0  0  0  0
 28 14  4  0  0  0  0
 29 28  1  0  0  0  0
 30  9  4  0  0  0  0
 31 30  1  0  0  0  0
 32 30  4  0  0  0  0
 33 32  1  0  0  0  0
 34 12  4  0  0  0  0
 35 34  1  0  0  0  0
 36  7  4  0  0  0  0
 37 36  1  0  0  0  0
 38  5  4  0  0  0  0
 39 38  1  0  0  0  0
 40 41  1  0  0  0  0
 42 28  4  0  0  0  0
 43 42  1  0  0  0  0
 44 45  1  0  0  0  0
 46 24  4  0  0  0  0
 47 46  1  0  0  0  0
 48 36  4  0  0  0  0
 49 48  1  0  0  0  0
 50 38  4  0  0  0  0
 51 50  1  0  0  0  0
 52 16  4  0  0  0  0
 53 52  1  0  0  0  0
 54 26  4  0  0  0  0
 55 54  1  0  0  0  0
 56 20  4  0  0  0  0
 57 56  1  0  0  0  0
 58 59  4  0  0  0  0
 59 60  1  0  0  0  0
 61 62  1  0  0  0  0
 63 64  1  0  0  0  0
 65 58  4  0  0  0  0
 66 65  1  0  0  0  0
 67 68  1  0  0  0  0
 69 61  1  0  0  0  0
 70 69  1  0  0  0  0
 71 72  1  0  0  0  0
 73 63  1  0  0  0  0
 74 73  1  0  0  0  0
 75 61  1  0  0  0  0
 76 75  1  0  0  0  0
 77 73  1  0  0  0  0
 78 77  1  0  0  0  0
 79 63  1  0  0  0  0
 80 79  1  0  0  0  0
 81 63  1  0  0  0  0
 82 81  1  0  0  0  0
 83 59  4  0  0  0  0
 84 83  1  0  0  0  0
 85 75  1  0  0  0  0
 86 85  1  0  0  0  0
 87 63  1  0  0  0  0
 88 87  1  0  0  0  0
 89 71  1  0  0  0  0
 90 89  1  0  0  0  0
 91 67  1  0  0  0  0
 92 91  1  0  0  0  0
 93 73  1  0  0  0  0
 94 93  1  0  0  0  0
 95 85  1  0  0  0  0
 96 95  1  0  0  0  0
 97 67  1  0  0  0  0
 98 97  1  0  0  0  0
 99 71  1  0  0  0  0
100 99  1  0  0  0  0
101 83  4  0  0  0  0
102101  1  0  0  0  0
103 71  1  0  0  0  0
104103  1  0  0  0  0
105 65  4  0  0  0  0
106105  1  0  0  0  0
107 61  1  0  0  0  0
108107  1  0  0  0  0
109 67  1  0  0  0  0
110109  1  0  0  0  0
111 61  1  0  0  0  0
112111  1  0  0  0  0
113114  1  0  0  0  0
114 61  1  0  0  0  0
115 63  1  0  0  0  0
116  6  1  0  0  0  0
117  5  1  0  0  0  0
  7117  1  0  0  0  0
  8117  1  0  0  0  0
  9116  1  0  0  0  0
 18 22  4  0  0  0  0
 18 34  4  0  0  0  0
 32 42  4  0  0  0  0
 40 50  4  0  0  0  0
 40 52  4  0  0  0  0
 44 48  4  0  0  0  0
 44 56  4  0  0  0  0
 46 54  4  0  0  0  0
 58116  1  0  0  0  0
 67 69  1  0  0  0  0
 67114  1  0  0  0  0
 69107  1  0  0  0  0
 69109  1  0  0  0  0
 69114  1  0  0  0  0
 71 79  1  0  0  0  0
 71 81  1  0  0  0  0
 73 87  1  0  0  0  0
 73115  1  0  0  0  0
 75 91  1  0  0  0  0
 75111  1  0  0  0  0
 75114  1  0  0  0  0
 77 89  1  0  0  0  0
 77 93  1  0  0  0  0
 77103  1  0  0  0  0
 77115  1  0  0  0  0
 79 81  1  0  0  0  0
 79 89  1  0  0  0  0
 79115  1  0  0  0  0
 81 87  1  0  0  0  0
 81 99  1  0  0  0  0
 85 91  1  0  0  0  0
 85 97  1  0  0  0  0
 85111  1  0  0  0  0
 87 93  1  0  0  0  0
 87 99  1  0  0  0  0
 89103  1  0  0  0  0
 89115  1  0  0  0  0
 91 97  1  0  0  0  0
 91114  1  0  0  0  0
 93 99  1  0  0  0  0
 93103  1  0  0  0  0
 95 97  1  0  0  0  0
 95107  1  0  0  0  0
 95109  1  0  0  0  0
 95111  1  0  0  0  0
 97109  1  0  0  0  0
 99103  1  0  0  0  0
101105  4  0  0  0  0
107109  1  0  0  0  0
107111  1  0  0  0  0
113115  1  0  0  0  0
113116  1  0  0  0  0
113117  1  0  0  0  0
M  CHG  1  63  -1
M  END
$$$$
OZEXOH

From CSD data. Using bond type 'Any'. No disordered atoms. Largest molecule.
140172  0  0  0  0  0  0  0  0999 V2000
    3.1869    7.3545    1.0710 Rh  0  0  0  0  0  0  0  0  0  0  0  0
    4.7753    7.2967    0.4972 H   0  0  0  0  0  0  0  0  0  0  0  0
    3.0443    8.2372   -0.9905 P   0  0  0  0  0  0  0  0  0  0  0  0
    4.1515    9.1850    1.9768 P   0  0  0  0  0  0  0  0  0  0  0  0
    3.7100    7.3706   -2.1765 O   0  0  0  0  0  0  0  0  0  0  0  0
    3.9079    9.6122   -1.0596 O   0  0  0  0  0  0  0  0  0  0  0  0
    5.4031    9.8900    1.2621 O   0  0  0  0  0  0  0  0  0  0  0  0
    4.8442    8.7117    3.3861 O   0  0  0  0  0  0  0  0  0  0  0  0
    1.5669    8.5128   -1.7109 N   0  0  0  0  0  0  0  0  0  0  0  0
    3.2638   10.5326    2.2470 N   0  0  0  0  0  0  0  0  0  0  0  0
    3.0248    5.0387    1.1499 C   0  0  0  0  0  0  0  0  0  0  0  0
    3.3145    5.6681    2.6275 C   0  0  0  0  0  0  0  0  0  0  0  0
    1.6533    5.8439    0.4027 B   0  0  0  0  0  0  0  0  0  0  0  0
    1.5605    5.8949   -0.6361 H   0  0  0  0  0  0  0  0  0  0  0  0
    1.5863    4.1940    1.0971 B   0  0  0  0  0  0  0  0  0  0  0  0
    1.4024    3.4807    0.1805 H   0  0  0  0  0  0  0  0  0  0  0  0
    2.6157    4.0723    2.5137 B   0  0  0  0  0  0  0  0  0  0  0  0
    3.1342    3.1948    2.8053 H   0  0  0  0  0  0  0  0  0  0  0  0
    2.1644    6.9072    3.0053 B   0  0  0  0  0  0  0  0  0  0  0  0
    2.2401    7.3904    3.8663 H   0  0  0  0  0  0  0  0  0  0  0  0
    0.9889    7.0288    1.6248 B   0  0  0  0  0  0  0  0  0  0  0  0
    0.1781    7.4955    1.2527 H   0  0  0  0  0  0  0  0  0  0  0  0
    0.2944    5.3575    1.4526 B   0  0  0  0  0  0  0  0  0  0  0  0
   -0.7337    5.2539    1.0610 H   0  0  0  0  0  0  0  0  0  0  0  0
    0.8855    4.3139    2.7470 B   0  0  0  0  0  0  0  0  0  0  0  0
    0.3131    3.5793    3.1441 H   0  0  0  0  0  0  0  0  0  0  0  0
    2.0668    5.2326    3.7108 B   0  0  0  0  0  0  0  0  0  0  0  0
    2.4456    4.9581    4.6996 H   0  0  0  0  0  0  0  0  0  0  0  0
    0.6163    6.0198    3.0942 B   0  0  0  0  0  0  0  0  0  0  0  0
   -0.3616    6.1890    3.5247 H   0  0  0  0  0  0  0  0  0  0  0  0
    4.2261    4.4421    0.4166 C   0  0  0  0  0  0  0  0  0  0  0  0
    4.0783    3.4659    0.3389 H   0  0  0  0  0  0  0  0  0  0  0  0
    4.2286    4.8086   -0.5055 H   0  0  0  0  0  0  0  0  0  0  0  0
    5.6110    4.6508    0.9971 C   0  0  0  0  0  0  0  0  0  0  0  0
    6.6861    4.2186    0.2416 C   0  0  0  0  0  0  0  0  0  0  0  0
    6.5420    3.7946   -0.5972 H   0  0  0  0  0  0  0  0  0  0  0  0
    7.9947    4.4076    0.7194 C   0  0  0  0  0  0  0  0  0  0  0  0
    8.7368    4.1381    0.1916 H   0  0  0  0  0  0  0  0  0  0  0  0
    8.1985    4.9713    1.9304 C   0  0  0  0  0  0  0  0  0  0  0  0
    9.0833    5.0732    2.2609 H   0  0  0  0  0  0  0  0  0  0  0  0
    7.1376    5.3986    2.6859 C   0  0  0  0  0  0  0  0  0  0  0  0
    7.3009    5.8324    3.5136 H   0  0  0  0  0  0  0  0  0  0  0  0
    5.8200    5.2063    2.2553 C   0  0  0  0  0  0  0  0  0  0  0  0
    4.7327    5.6204    3.1997 C   0  0  0  0  0  0  0  0  0  0  0  0
    4.9543    6.5194    3.5524 H   0  0  0  0  0  0  0  0  0  0  0  0
    4.7357    4.9943    3.9663 H   0  0  0  0  0  0  0  0  0  0  0  0
    4.9968    7.5103   -2.6581 C   0  0  0  0  0  0  0  0  0  0  0  0
    5.8495    6.4010   -2.5331 C   0  0  0  0  0  0  0  0  0  0  0  0
    5.5226    5.6040   -2.1331 H   0  0  0  0  0  0  0  0  0  0  0  0
    7.1304    6.4520   -2.9719 C   0  0  0  0  0  0  0  0  0  0  0  0
    7.6794    5.6796   -2.9275 H   0  0  0  0  0  0  0  0  0  0  0  0
    7.6433    7.6566   -3.4913 C   0  0  0  0  0  0  0  0  0  0  0  0
    9.0125    7.7092   -3.8746 C   0  0  0  0  0  0  0  0  0  0  0  0
    9.5520    6.9286   -3.8357 H   0  0  0  0  0  0  0  0  0  0  0  0
    9.5486    8.8941   -4.3024 C   0  0  0  0  0  0  0  0  0  0  0  0
   10.4618    8.9269   -4.5635 H   0  0  0  0  0  0  0  0  0  0  0  0
    8.7580   10.0806   -4.3635 C   0  0  0  0  0  0  0  0  0  0  0  0
    9.1520   10.9023   -4.6301 H   0  0  0  0  0  0  0  0  0  0  0  0
    7.4166   10.0313   -4.0302 C   0  0  0  0  0  0  0  0  0  0  0  0
    6.8824   10.8136   -4.1024 H   0  0  0  0  0  0  0  0  0  0  0  0
    6.8273    8.8053   -3.5747 C   0  0  0  0  0  0  0  0  0  0  0  0
    5.4272    8.7002   -3.1941 C   0  0  0  0  0  0  0  0  0  0  0  0
    3.8039   10.3189   -2.2387 C   0  0  0  0  0  0  0  0  0  0  0  0
    2.9567   11.4315   -2.2831 C   0  0  0  0  0  0  0  0  0  0  0  0
    2.4944   11.7076   -1.4999 H   0  0  0  0  0  0  0  0  0  0  0  0
    2.7947   12.1135   -3.4441 C   0  0  0  0  0  0  0  0  0  0  0  0
    2.2579   12.8958   -3.4608 H   0  0  0  0  0  0  0  0  0  0  0  0
    3.4135   11.6698   -4.6246 C   0  0  0  0  0  0  0  0  0  0  0  0
    3.1731   12.2959   -5.8800 C   0  0  0  0  0  0  0  0  0  0  0  0
    2.6299   13.0749   -5.9078 H   0  0  0  0  0  0  0  0  0  0  0  0
    3.6797   11.8292   -7.0021 C   0  0  0  0  0  0  0  0  0  0  0  0
    3.4677   12.2532   -7.8243 H   0  0  0  0  0  0  0  0  0  0  0  0
    4.5467   10.6903   -6.9966 C   0  0  0  0  0  0  0  0  0  0  0  0
    4.9229   10.3633   -7.8048 H   0  0  0  0  0  0  0  0  0  0  0  0
    4.8211   10.0839   -5.7994 C   0  0  0  0  0  0  0  0  0  0  0  0
    5.3999    9.3296   -5.7939 H   0  0  0  0  0  0  0  0  0  0  0  0
    4.2833   10.5293   -4.5801 C   0  0  0  0  0  0  0  0  0  0  0  0
    4.5049    9.8538   -3.3386 C   0  0  0  0  0  0  0  0  0  0  0  0
    6.6740    9.3000    1.2582 C   0  0  0  0  0  0  0  0  0  0  0  0
    7.1332    8.8464    0.0056 C   0  0  0  0  0  0  0  0  0  0  0  0
    6.5721    8.8974   -0.7583 H   0  0  0  0  0  0  0  0  0  0  0  0
    8.4011    8.3288   -0.0944 C   0  0  0  0  0  0  0  0  0  0  0  0
    8.7346    8.0576   -0.9416 H   0  0  0  0  0  0  0  0  0  0  0  0
    9.2318    8.1940    1.0860 C   0  0  0  0  0  0  0  0  0  0  0  0
   10.4777    7.6172    1.0332 C   0  0  0  0  0  0  0  0  0  0  0  0
   10.8314    7.3772    0.1833 H   0  0  0  0  0  0  0  0  0  0  0  0
   11.2443    7.3690    2.1581 C   0  0  0  0  0  0  0  0  0  0  0  0
   12.0848    6.9335    2.0970 H   0  0  0  0  0  0  0  0  0  0  0  0
   10.7388    7.7799    3.3830 C   0  0  0  0  0  0  0  0  0  0  0  0
   11.2662    7.6418    4.1607 H   0  0  0  0  0  0  0  0  0  0  0  0
    9.4846    8.3912    3.5302 C   0  0  0  0  0  0  0  0  0  0  0  0
    9.1476    8.6262    4.3857 H   0  0  0  0  0  0  0  0  0  0  0  0
    8.7390    8.6426    2.3498 C   0  0  0  0  0  0  0  0  0  0  0  0
    7.4691    9.2638    2.3609 C   0  0  0  0  0  0  0  0  0  0  0  0
    5.6341    9.6385    4.0885 C   0  0  0  0  0  0  0  0  0  0  0  0
    5.1145   10.1726    5.2328 C   0  0  0  0  0  0  0  0  0  0  0  0
    4.2543    9.8916    5.5273 H   0  0  0  0  0  0  0  0  0  0  0  0
    5.7889   11.0913    5.9605 C   0  0  0  0  0  0  0  0  0  0  0  0
    5.4136   11.4496    6.7577 H   0  0  0  0  0  0  0  0  0  0  0  0
    7.0907   11.5153    5.5078 C   0  0  0  0  0  0  0  0  0  0  0  0
    7.8432   12.5063    6.2161 C   0  0  0  0  0  0  0  0  0  0  0  0
    7.4843   12.9007    7.0021 H   0  0  0  0  0  0  0  0  0  0  0  0
    9.0580   12.8826    5.7689 C   0  0  0  0  0  0  0  0  0  0  0  0
    9.5651   13.5055    6.2772 H   0  0  0  0  0  0  0  0  0  0  0  0
    9.5885   12.3797    4.5912 C   0  0  0  0  0  0  0  0  0  0  0  0
   10.4182   12.7101    4.2663 H   0  0  0  0  0  0  0  0  0  0  0  0
    8.9177   11.4101    3.8913 C   0  0  0  0  0  0  0  0  0  0  0  0
    9.3012   11.0519    3.0997 H   0  0  0  0  0  0  0  0  0  0  0  0
    7.6314   10.9303    4.3468 C   0  0  0  0  0  0  0  0  0  0  0  0
    6.9381    9.9508    3.6441 C   0  0  0  0  0  0  0  0  0  0  0  0
    1.3218    8.4191   -3.1580 C   0  0  0  0  0  0  0  0  0  0  0  0
    2.0687    7.9360   -3.5941 H   0  0  0  0  0  0  0  0  0  0  0  0
    1.2732    9.3279   -3.5469 H   0  0  0  0  0  0  0  0  0  0  0  0
    0.0224    7.6845   -3.4080 C   0  0  0  0  0  0  0  0  0  0  0  0
    0.1176    6.7429   -3.1136 H   0  0  0  0  0  0  0  0  0  0  0  0
   -0.1688    7.6813   -4.3801 H   0  0  0  0  0  0  0  0  0  0  0  0
   -1.1632    8.3370   -2.6553 C   0  0  0  0  0  0  0  0  0  0  0  0
   -1.3581    9.2260   -3.0442 H   0  0  0  0  0  0  0  0  0  0  0  0
   -1.9713    7.7733   -2.7497 H   0  0  0  0  0  0  0  0  0  0  0  0
   -0.7960    8.4849   -1.1693 C   0  0  0  0  0  0  0  0  0  0  0  0
   -1.5163    8.9812   -0.7083 H   0  0  0  0  0  0  0  0  0  0  0  0
   -0.7374    7.5859   -0.7610 H   0  0  0  0  0  0  0  0  0  0  0  0
    0.5038    9.2030   -0.9638 C   0  0  0  0  0  0  0  0  0  0  0  0
    0.4246   10.1365   -1.2832 H   0  0  0  0  0  0  0  0  0  0  0  0
    0.7283    9.2211    0.0000 H   0  0  0  0  0  0  0  0  0  0  0  0
    3.8618   11.8867    2.5192 C   0  0  0  0  0  0  0  0  0  0  0  0
    4.8208   11.8752    2.2720 H   0  0  0  0  0  0  0  0  0  0  0  0
    3.7993   12.0839    3.4858 H   0  0  0  0  0  0  0  0  0  0  0  0
    3.1583   12.9681    1.7415 C   0  0  0  0  0  0  0  0  0  0  0  0
    3.2779   12.8169    0.7694 H   0  0  0  0  0  0  0  0  0  0  0  0
    3.5438   13.8506    1.9665 H   0  0  0  0  0  0  0  0  0  0  0  0
    1.6465   12.9451    2.0942 C   0  0  0  0  0  0  0  0  0  0  0  0
    1.1696   13.6271    1.5610 H   0  0  0  0  0  0  0  0  0  0  0  0
    1.5278   13.1653    3.0525 H   0  0  0  0  0  0  0  0  0  0  0  0
    1.0400   11.5285    1.8026 C   0  0  0  0  0  0  0  0  0  0  0  0
    0.0892   11.5087    2.0748 H   0  0  0  0  0  0  0  0  0  0  0  0
    1.0871   11.3378    0.8333 H   0  0  0  0  0  0  0  0  0  0  0  0
    1.8206   10.4586    2.5748 C   0  0  0  0  0  0  0  0  0  0  0  0
    1.6951   10.5950    3.5497 H   0  0  0  0  0  0  0  0  0  0  0  0
    1.4738    9.5613    2.3442 H   0  0  0  0  0  0  0  0  0  0  0  0
  1  2  1  0  0  0  0
  3  1  1  0  0  0  0
  4  1  1  0  0  0  0
  5  3  1  0  0  0  0
  6  3  1  0  0  0  0
  7  4  1  0  0  0  0
  8  4  1  0  0  0  0
  9  3  1  0  0  0  0
 10  4  1  0  0  0  0
 11  1  1  0  0  0  0
 12  1  1  0  0  0  0
 13  1  1  0  0  0  0
 14 13  1  0  0  0  0
 15 11  1  0  0  0  0
 16 15  1  0  0  0  0
 17 11  1  0  0  0  0
 18 17  1  0  0  0  0
 19  1  1  0  0  0  0
 20 19  1  0  0  0  0
 21  1  1  0  0  0  0
 22 21  1  0  0  0  0
 23 13  1  0  0  0  0
 24 23  1  0  0  0  0
 25 15  1  0  0  0  0
 26 25  1  0  0  0  0
 27 12  1  0  0  0  0
 28 27  1  0  0  0  0
 29 19  1  0  0  0  0
 30 29  1  0  0  0  0
 31 11  1  0  0  0  0
 32 31  1  0  0  0  0
 33 31  1  0  0  0  0
 34 31  1  0  0  0  0
 35 34  4  0  0  0  0
 36 35  1  0  0  0  0
 37 35  4  0  0  0  0
 38 37  1  0  0  0  0
 39 37  4  0  0  0  0
 40 39  1  0  0  0  0
 41 39  4  0  0  0  0
 42 41  1  0  0  0  0
 43 34  4  0  0  0  0
 44 12  1  0  0  0  0
 45 44  1  0  0  0  0
 46 44  1  0  0  0  0
 47  5  1  0  0  0  0
 48 47  4  0  0  0  0
 49 48  1  0  0  0  0
 50 48  4  0  0  0  0
 51 50  1  0  0  0  0
 52 50  4  0  0  0  0
 53 52  4  0  0  0  0
 54 53  1  0  0  0  0
 55 53  4  0  0  0  0
 56 55  1  0  0  0  0
 57 55  4  0  0  0  0
 58 57  1  0  0  0  0
 59 57  4  0  0  0  0
 60 59  1  0  0  0  0
 61 52  4  0  0  0  0
 62 47  4  0  0  0  0
 63  6  1  0  0  0  0
 64 63  4  0  0  0  0
 65 64  1  0  0  0  0
 66 64  4  0  0  0  0
 67 66  1  0  0  0  0
 68 66  4  0  0  0  0
 69 68  4  0  0  0  0
 70 69  1  0  0  0  0
 71 69  4  0  0  0  0
 72 71  1  0  0  0  0
 73 71  4  0  0  0  0
 74 73  1  0  0  0  0
 75 73  4  0  0  0  0
 76 75  1  0  0  0  0
 77 68  4  0  0  0  0
 78 62  1  0  0  0  0
 79  7  1  0  0  0  0
 80 79  4  0  0  0  0
 81 80  1  0  0  0  0
 82 80  4  0  0  0  0
 83 82  1  0  0  0  0
 84 82  4  0  0  0  0
 85 84  4  0  0  0  0
 86 85  1  0  0  0  0
 87 85  4  0  0  0  0
 88 87  1  0  0  0  0
 89 87  4  0  0  0  0
 90 89  1  0  0  0  0
 91 89  4  0  0  0  0
 92 91  1  0  0  0  0
 93 84  4  0  0  0  0
 94 79  4  0  0  0  0
 95  8  1  0  0  0  0
 96 95  4  0  0  0  0
 97 96  1  0  0  0  0
 98 96  4  0  0  0  0
 99 98  1  0  0  0  0
100 98  4  0  0  0  0
101100  4  0  0  0  0
102101  1  0  0  0  0
103101  4  0  0  0  0
104103  1  0  0  0  0
105103  4  0  0  0  0
106105  1  0  0  0  0
107105  4  0  0  0  0
108107  1  0  0  0  0
109100  4  0  0  0  0
110 94  1  0  0  0  0
111  9  1  0  0  0  0
112111  1  0  0  0  0
113111  1  0  0  0  0
114111  1  0  0  0  0
115114  1  0  0  0  0
116114  1  0  0  0  0
117114  1  0  0  0  0
118117  1  0  0  0  0
119117  1  0  0  0  0
120117  1  0  0  0  0
121120  1  0  0  0  0
122120  1  0  0  0  0
123  9  1  0  0  0  0
124123  1  0  0  0  0
125123  1  0  0  0  0
126 10  1  0  0  0  0
127126  1  0  0  0  0
128126  1  0  0  0  0
129126  1  0  0  0  0
130129  1  0  0  0  0
131129  1  0  0  0  0
132129  1  0  0  0  0
133132  1  0  0  0  0
134132  1  0  0  0  0
135132  1  0  0  0  0
136135  1  0  0  0  0
137135  1  0  0  0  0
138 10  1  0  0  0  0
139138  1  0  0  0  0
140138  1  0  0  0  0
 11 12  1  0  0  0  0
 11 13  1  0  0  0  0
 12 17  1  0  0  0  0
 12 19  1  0  0  0  0
 13 15  1  0  0  0  0
 13 21  1  0  0  0  0
 15 17  1  0  0  0  0
 15 23  1  0  0  0  0
 17 25  1  0  0  0  0
 17 27  1  0  0  0  0
 19 21  1  0  0  0  0
 19 27  1  0  0  0  0
 21 23  1  0  0  0  0
 21 29  1  0  0  0  0
 23 25  1  0  0  0  0
 23 29  1  0  0  0  0
 25 27  1  0  0  0  0
 25 29  1  0  0  0  0
 27 29  1  0  0  0  0
 41 43  4  0  0  0  0
 43 44  1  0  0  0  0
 59 61  4  0  0  0  0
 61 62  4  0  0  0  0
 63 78  4  0  0  0  0
 75 77  4  0  0  0  0
 77 78  4  0  0  0  0
 91 93  4  0  0  0  0
 93 94  4  0  0  0  0
 95110  4  0  0  0  0
107109  4  0  0  0  0
109110  4  0  0  0  0
120123  1  0  0  0  0
135138  1  0  0  0  0
M  END
$$$$
OZIQUK

From CSD data. Using bond type 'Any'. No disordered atoms. Largest molecule.
 90116  0  0  0  0  0  0  0  0999 V2000
    9.8567   10.9411    8.1907 Yb  0  3  0  0  0  0  0  0  0  0  0  0
   10.6607    9.4956   10.8011 B   0  5  0  0  0  0  0  0  0  0  0  0
    9.3202   10.1155   11.0414 C   0  0  0  0  0  0  0  0  0  0  0  0
    8.5958    9.5789   11.2714 H   0  0  0  0  0  0  0  0  0  0  0  0
    7.7894   11.7911    7.7022 O   0  0  0  0  0  0  0  0  0  0  0  0
   10.3326    7.0264    9.5866 P   0  0  0  0  0  0  0  0  0  0  0  0
   10.4394    8.0252    7.9499 B   0  0  0  0  0  0  0  0  0  0  0  0
    9.1562   11.4673   10.9242 C   0  0  0  0  0  0  0  0  0  0  0  0
    8.3111   11.8286   11.0607 H   0  0  0  0  0  0  0  0  0  0  0  0
   10.1997   12.3190   10.6112 C   0  0  0  0  0  0  0  0  0  0  0  0
   10.0453   13.2341   10.5519 H   0  0  0  0  0  0  0  0  0  0  0  0
   11.4511   11.8281   10.3887 C   0  0  0  0  0  0  0  0  0  0  0  0
   12.1165   12.4331   10.1499 H   0  0  0  0  0  0  0  0  0  0  0  0
   11.8026   10.4864   10.4955 C   0  0  0  0  0  0  0  0  0  0  0  0
   12.6817   10.2018   10.3887 H   0  0  0  0  0  0  0  0  0  0  0  0
   11.0356    7.9093   10.8916 C   0  0  0  0  0  0  0  0  0  0  0  0
   10.7136    7.5491   11.7327 H   0  0  0  0  0  0  0  0  0  0  0  0
   12.0001    7.8039   10.8694 H   0  0  0  0  0  0  0  0  0  0  0  0
    8.6344    6.6393   10.0698 C   0  0  0  0  0  0  0  0  0  0  0  0
    8.4319    7.0730   10.9020 H   0  0  0  0  0  0  0  0  0  0  0  0
    8.5402    5.6903   10.1721 H   0  0  0  0  0  0  0  0  0  0  0  0
    8.0302    6.9494    9.3903 H   0  0  0  0  0  0  0  0  0  0  0  0
   11.1915    5.4323    9.4022 C   0  0  0  0  0  0  0  0  0  0  0  0
   12.0766    5.5836    9.0625 H   0  0  0  0  0  0  0  0  0  0  0  0
   10.7048    4.8758    8.7895 H   0  0  0  0  0  0  0  0  0  0  0  0
   11.2466    4.9974   10.2567 H   0  0  0  0  0  0  0  0  0  0  0  0
   11.6866    8.6561    7.4871 C   0  0  0  0  0  0  0  0  0  0  0  0
   12.4803    8.5544    7.9603 H   0  0  0  0  0  0  0  0  0  0  0  0
   11.6381    9.4086    6.3196 C   0  0  0  0  0  0  0  0  0  0  0  0
   12.4370    9.7622    6.0006 H   0  0  0  0  0  0  0  0  0  0  0  0
   10.4980    9.6681    5.6060 C   0  0  0  0  0  0  0  0  0  0  0  0
   10.5297   10.2138    4.8539 H   0  0  0  0  0  0  0  0  0  0  0  0
    9.2743    9.1011    6.0199 C   0  0  0  0  0  0  0  0  0  0  0  0
    8.5035    9.2677    5.5274 H   0  0  0  0  0  0  0  0  0  0  0  0
    9.2006    8.2930    7.1577 C   0  0  0  0  0  0  0  0  0  0  0  0
    8.3877    7.9251    7.4188 H   0  0  0  0  0  0  0  0  0  0  0  0
    6.5101   11.3123    7.9870 C   0  0  0  0  0  0  0  0  0  0  0  0
    5.8660   11.6999    9.2005 C   0  0  0  0  0  0  0  0  0  0  0  0
    6.4509   11.5283    9.9422 H   0  0  0  0  0  0  0  0  0  0  0  0
    5.0570   11.1956    9.3088 H   0  0  0  0  0  0  0  0  0  0  0  0
    5.6579   12.6358    9.1678 H   0  0  0  0  0  0  0  0  0  0  0  0
    5.9595   10.3291    7.0613 C   0  0  0  0  0  0  0  0  0  0  0  0
    6.3058   10.4897    6.1801 H   0  0  0  0  0  0  0  0  0  0  0  0
    5.0022   10.4038    7.0465 H   0  0  0  0  0  0  0  0  0  0  0  0
    6.2073    9.4465    7.3461 H   0  0  0  0  0  0  0  0  0  0  0  0
    8.3347   13.7551    6.6439 Yb  0  3  0  0  0  0  0  0  0  0  0  0
    7.5307   15.2006    4.0335 B   0  5  0  0  0  0  0  0  0  0  0  0
    8.8712   14.5807    3.7932 C   0  0  0  0  0  0  0  0  0  0  0  0
    9.5957   15.1173    3.5633 H   0  0  0  0  0  0  0  0  0  0  0  0
   10.4021   12.9051    7.1325 O   0  0  0  0  0  0  0  0  0  0  0  0
    7.8589   17.6698    5.2481 P   0  0  0  0  0  0  0  0  0  0  0  0
    7.7521   16.6710    6.8848 B   0  0  0  0  0  0  0  0  0  0  0  0
    9.0352   13.2289    3.9104 C   0  0  0  0  0  0  0  0  0  0  0  0
    9.8804   12.8676    3.7739 H   0  0  0  0  0  0  0  0  0  0  0  0
    7.9918   12.3772    4.2234 C   0  0  0  0  0  0  0  0  0  0  0  0
    8.1461   11.4621    4.2828 H   0  0  0  0  0  0  0  0  0  0  0  0
    6.7403   12.8681    4.4459 C   0  0  0  0  0  0  0  0  0  0  0  0
    6.0749   12.2631    4.6848 H   0  0  0  0  0  0  0  0  0  0  0  0
    6.3888   14.2098    4.3391 C   0  0  0  0  0  0  0  0  0  0  0  0
    5.5098   14.4944    4.4459 H   0  0  0  0  0  0  0  0  0  0  0  0
    7.1558   16.7869    3.9431 C   0  0  0  0  0  0  0  0  0  0  0  0
    7.4778   17.1471    3.1019 H   0  0  0  0  0  0  0  0  0  0  0  0
    6.1913   16.8923    3.9653 H   0  0  0  0  0  0  0  0  0  0  0  0
    9.5570   18.0569    4.7649 C   0  0  0  0  0  0  0  0  0  0  0  0
    9.7595   17.6232    3.9327 H   0  0  0  0  0  0  0  0  0  0  0  0
    9.6512   19.0059    4.6625 H   0  0  0  0  0  0  0  0  0  0  0  0
   10.1613   17.7468    5.4443 H   0  0  0  0  0  0  0  0  0  0  0  0
    6.9999   19.2639    5.4325 C   0  0  0  0  0  0  0  0  0  0  0  0
    6.1149   19.1126    5.7722 H   0  0  0  0  0  0  0  0  0  0  0  0
    7.4867   19.8204    6.0451 H   0  0  0  0  0  0  0  0  0  0  0  0
    6.9448   19.6988    4.5780 H   0  0  0  0  0  0  0  0  0  0  0  0
    6.5048   16.0401    7.3476 C   0  0  0  0  0  0  0  0  0  0  0  0
    5.7112   16.1418    6.8744 H   0  0  0  0  0  0  0  0  0  0  0  0
    6.5533   15.2876    8.5151 C   0  0  0  0  0  0  0  0  0  0  0  0
    5.7545   14.9339    8.8340 H   0  0  0  0  0  0  0  0  0  0  0  0
    7.6934   15.0281    9.2286 C   0  0  0  0  0  0  0  0  0  0  0  0
    7.6617   14.4824    9.9808 H   0  0  0  0  0  0  0  0  0  0  0  0
    8.9172   15.5951    8.8148 C   0  0  0  0  0  0  0  0  0  0  0  0
    9.6879   15.4285    9.3073 H   0  0  0  0  0  0  0  0  0  0  0  0
    8.9908   16.4032    7.6769 C   0  0  0  0  0  0  0  0  0  0  0  0
    9.8037   16.7711    7.4158 H   0  0  0  0  0  0  0  0  0  0  0  0
   11.6814   13.3839    6.8477 C   0  0  0  0  0  0  0  0  0  0  0  0
   12.3254   12.9963    5.6342 C   0  0  0  0  0  0  0  0  0  0  0  0
   11.7406   13.1679    4.8925 H   0  0  0  0  0  0  0  0  0  0  0  0
   13.1345   13.5006    5.5259 H   0  0  0  0  0  0  0  0  0  0  0  0
   12.5336   12.0604    5.6668 H   0  0  0  0  0  0  0  0  0  0  0  0
   12.2319   14.3671    7.7734 C   0  0  0  0  0  0  0  0  0  0  0  0
   11.8856   14.2065    8.6545 H   0  0  0  0  0  0  0  0  0  0  0  0
   13.1892   14.2924    7.7882 H   0  0  0  0  0  0  0  0  0  0  0  0
   11.9841   15.2497    7.4885 H   0  0  0  0  0  0  0  0  0  0  0  0
  1  2  8  0  0  0  0
  2  3  4  0  0  0  0
  3  1  8  0  0  0  0
  4  3  1  0  0  0  0
  5  1  1  0  0  0  0
  6  7  1  0  0  0  0
  7  1  8  0  0  0  0
  8  1  8  0  0  0  0
  9  8  1  0  0  0  0
 10  1  8  0  0  0  0
 11 10  1  0  0  0  0
 12  1  8  0  0  0  0
 13 12  1  0  0  0  0
 14  1  8  0  0  0  0
 15 14  1  0  0  0  0
 16  2  1  0  0  0  0
 17 16  1  0  0  0  0
 18 16  1  0  0  0  0
 19  6  1  0  0  0  0
 20 19  1  0  0  0  0
 21 19  1  0  0  0  0
 22 19  1  0  0  0  0
 23  6  1  0  0  0  0
 24 23  1  0  0  0  0
 25 23  1  0  0  0  0
 26 23  1  0  0  0  0
 27  1  8  0  0  0  0
 28 27  1  0  0  0  0
 29  1  8  0  0  0  0
 30 29  1  0  0  0  0
 31  1  8  0  0  0  0
 32 31  1  0  0  0  0
 33  1  8  0  0  0  0
 34 33  1  0  0  0  0
 35  1  8  0  0  0  0
 36 35  1  0  0  0  0
 37  5  1  0  0  0  0
 38 37  1  0  0  0  0
 39 38  1  0  0  0  0
 40 38  1  0  0  0  0
 41 38  1  0  0  0  0
 42 37  1  0  0  0  0
 43 42  1  0  0  0  0
 44 42  1  0  0  0  0
 45 42  1  0  0  0  0
 46  5  1  0  0  0  0
 47 46  8  0  0  0  0
 48 46  8  0  0  0  0
 49 48  1  0  0  0  0
 50  1  1  0  0  0  0
 51 52  1  0  0  0  0
 52 46  8  0  0  0  0
 53 46  8  0  0  0  0
 54 53  1  0  0  0  0
 55 46  8  0  0  0  0
 56 55  1  0  0  0  0
 57 46  8  0  0  0  0
 58 57  1  0  0  0  0
 59 46  8  0  0  0  0
 60 59  1  0  0  0  0
 61 47  1  0  0  0  0
 62 61  1  0  0  0  0
 63 61  1  0  0  0  0
 64 51  1  0  0  0  0
 65 64  1  0  0  0  0
 66 64  1  0  0  0  0
 67 64  1  0  0  0  0
 68 51  1  0  0  0  0
 69 68  1  0  0  0  0
 70 68  1  0  0  0  0
 71 68  1  0  0  0  0
 72 46  8  0  0  0  0
 73 72  1  0  0  0  0
 74 46  8  0  0  0  0
 75 74  1  0  0  0  0
 76 46  8  0  0  0  0
 77 76  1  0  0  0  0
 78 46  8  0  0  0  0
 79 78  1  0  0  0  0
 80 46  8  0  0  0  0
 81 80  1  0  0  0  0
 82 50  1  0  0  0  0
 83 82  1  0  0  0  0
 84 83  1  0  0  0  0
 85 83  1  0  0  0  0
 86 83  1  0  0  0  0
 87 82  1  0  0  0  0
 88 87  1  0  0  0  0
 89 87  1  0  0  0  0
 90 87  1  0  0  0  0
  2 14  4  0  0  0  0
  3  8  4  0  0  0  0
  6 16  1  0  0  0  0
  7 27  4  0  0  0  0
  7 35  4  0  0  0  0
  8 10  4  0  0  0  0
 10 12  4  0  0  0  0
 12 14  4  0  0  0  0
 27 29  4  0  0  0  0
 29 31  4  0  0  0  0
 31 33  4  0  0  0  0
 33 35  4  0  0  0  0
 46 50  1  0  0  0  0
 47 48  4  0  0  0  0
 47 59  4  0  0  0  0
 48 53  4  0  0  0  0
 51 61  1  0  0  0  0
 52 72  4  0  0  0  0
 52 80  4  0  0  0  0
 53 55  4  0  0  0  0
 55 57  4  0  0  0  0
 57 59  4  0  0  0  0
 72 74  4  0  0  0  0
 74 76  4  0  0  0  0
 76 78  4  0  0  0  0
 78 80  4  0  0  0  0
M  CHG  4   1   1   2  -1  46   1  47  -1
M  END
$$$$
PAKTOK

From CSD data. Using bond type 'Any'. Matching problem. No disordered atoms. Largest molecule.
105128  0  0  0  0  0  0  0  0999 V2000
    1.5394    2.4177    5.1294 Pt  0  0  0  0  0  0  0  0  0  0  0  0
    0.6815    4.8540    6.0641 Rh  0  0  0  0  0  0  0  0  0  0  0  0
    0.9147    3.0868    6.9223 C   0  0  0  0  0  0  0  0  0  0  0  0
    0.7609    2.7137    8.0434 O   0  0  0  0  0  0  0  0  0  0  0  0
    1.0632    7.0432    5.2924 C   0  0  0  0  0  0  0  0  0  0  0  0
    1.4495    6.0733    7.8687 C   0  0  0  0  0  0  0  0  0  0  0  0
    0.3082    6.8963    6.8442 B   0  0  0  0  0  0  0  0  0  0  0  0
    2.6820    5.3995    6.9373 B   0  0  0  0  0  0  0  0  0  0  0  0
    2.4109    6.0337    5.2342 B   0  0  0  0  0  0  0  0  0  0  0  0
    3.6061    6.8217    6.3435 B   0  0  0  0  0  0  0  0  0  0  0  0
    2.5759    7.8475    5.3223 B   0  0  0  0  0  0  0  0  0  0  0  0
    1.2271    8.3884    6.2953 B   0  0  0  0  0  0  0  0  0  0  0  0
    1.4592    7.8032    7.9386 B   0  0  0  0  0  0  0  0  0  0  0  0
    2.9508    6.8730    7.9702 B   0  0  0  0  0  0  0  0  0  0  0  0
    2.8710    8.2858    6.9955 B   0  0  0  0  0  0  0  0  0  0  0  0
    2.4918    0.5665    6.0625 P   0  0  0  0  0  0  0  0  0  0  0  0
    3.4957   -0.5386    5.0046 C   0  0  0  0  0  0  0  0  0  0  0  0
    4.3688   -1.5807    5.6749 C   0  0  0  0  0  0  0  0  0  0  0  0
    3.6228    1.0841    7.3881 C   0  0  0  0  0  0  0  0  0  0  0  0
    4.8012    1.8488    6.8658 C   0  0  0  0  0  0  0  0  0  0  0  0
    1.3267   -0.5386    6.9606 C   0  0  0  0  0  0  0  0  0  0  0  0
    0.3269   -1.2380    6.0425 C   0  0  0  0  0  0  0  0  0  0  0  0
    2.0066    2.1426    2.8591 P   0  0  0  0  0  0  0  0  0  0  0  0
    1.2307    3.4015    1.8096 C   0  0  0  0  0  0  0  0  0  0  0  0
    1.5654    3.3712    0.3277 C   0  0  0  0  0  0  0  0  0  0  0  0
    1.4720    0.5665    2.1223 C   0  0  0  0  0  0  0  0  0  0  0  0
   -0.0084    0.3684    2.2021 C   0  0  0  0  0  0  0  0  0  0  0  0
    3.7739    2.2078    2.4316 C   0  0  0  0  0  0  0  0  0  0  0  0
    4.4808    3.5158    2.9023 C   0  0  0  0  0  0  0  0  0  0  0  0
   -1.6098    4.6185    5.8595 P   0  0  0  0  0  0  0  0  0  0  0  0
   -2.5835    4.6908    7.4180 C   0  0  0  0  0  0  0  0  0  0  0  0
   -3.9816    4.6465    7.3881 C   0  0  0  0  0  0  0  0  0  0  0  0
   -4.6745    4.6581    8.5922 C   0  0  0  0  0  0  0  0  0  0  0  0
   -3.9999    4.7024    9.7864 C   0  0  0  0  0  0  0  0  0  0  0  0
   -2.6615    4.7444    9.8180 C   0  0  0  0  0  0  0  0  0  0  0  0
   -1.9336    4.7374    8.6188 C   0  0  0  0  0  0  0  0  0  0  0  0
   -2.2837    5.9427    4.7685 C   0  0  0  0  0  0  0  0  0  0  0  0
   -3.2394    6.8473    5.1760 C   0  0  0  0  0  0  0  0  0  0  0  0
   -3.6450    7.8615    4.3078 C   0  0  0  0  0  0  0  0  0  0  0  0
   -3.1200    7.9687    3.0620 C   0  0  0  0  0  0  0  0  0  0  0  0
   -2.1816    7.0641    2.6495 C   0  0  0  0  0  0  0  0  0  0  0  0
   -1.7368    6.1036    3.5077 C   0  0  0  0  0  0  0  0  0  0  0  0
   -2.2835    3.0355    5.1743 C   0  0  0  0  0  0  0  0  0  0  0  0
   -2.8012    2.9143    3.8919 C   0  0  0  0  0  0  0  0  0  0  0  0
   -3.2649    1.7276    3.4612 C   0  0  0  0  0  0  0  0  0  0  0  0
   -3.2709    0.6318    4.2695 C   0  0  0  0  0  0  0  0  0  0  0  0
   -2.7541    0.7297    5.5169 C   0  0  0  0  0  0  0  0  0  0  0  0
   -2.2415    1.9211    5.9743 C   0  0  0  0  0  0  0  0  0  0  0  0
    0.9990    4.0660    4.8550 H   0  0  0  0  0  0  0  0  0  0  0  0
    0.5661    7.2786    4.5057 H   0  0  0  0  0  0  0  0  0  0  0  0
    1.1334    5.5860    8.6338 H   0  0  0  0  0  0  0  0  0  0  0  0
   -0.7312    7.1621    7.0870 H   0  0  0  0  0  0  0  0  0  0  0  0
    3.1895    4.6558    7.5693 H   0  0  0  0  0  0  0  0  0  0  0  0
    2.6913    5.3785    4.3942 H   0  0  0  0  0  0  0  0  0  0  0  0
    4.6890    6.9452    6.1922 H   0  0  0  0  0  0  0  0  0  0  0  0
    2.8555    8.2298    4.3294 H   0  0  0  0  0  0  0  0  0  0  0  0
    0.4621    9.1507    6.0808 H   0  0  0  0  0  0  0  0  0  0  0  0
    1.1080    8.2135    8.8966 H   0  0  0  0  0  0  0  0  0  0  0  0
    3.6023    6.8054    8.8534 H   0  0  0  0  0  0  0  0  0  0  0  0
    3.4125    9.2207    7.2051 H   0  0  0  0  0  0  0  0  0  0  0  0
   -4.4522    4.6022    6.5531 H   0  0  0  0  0  0  0  0  0  0  0  0
   -5.6344    4.6348    8.5872 H   0  0  0  0  0  0  0  0  0  0  0  0
   -4.4909    4.6978   10.6114 H   0  0  0  0  0  0  0  0  0  0  0  0
   -2.2000    4.7887   10.6580 H   0  0  0  0  0  0  0  0  0  0  0  0
   -0.9740    4.7584    8.6438 H   0  0  0  0  0  0  0  0  0  0  0  0
   -3.6257    6.7774    6.0508 H   0  0  0  0  0  0  0  0  0  0  0  0
   -4.2986    8.5003    4.6005 H   0  0  0  0  0  0  0  0  0  0  0  0
   -3.4100    8.6681    2.4732 H   0  0  0  0  0  0  0  0  0  0  0  0
   -1.8336    7.1061    1.7547 H   0  0  0  0  0  0  0  0  0  0  0  0
   -1.0269    5.5208    3.2300 H   0  0  0  0  0  0  0  0  0  0  0  0
   -2.8326    3.6766    3.3115 H   0  0  0  0  0  0  0  0  0  0  0  0
   -3.6036    1.6506    2.5664 H   0  0  0  0  0  0  0  0  0  0  0  0
   -3.6311   -0.2005    3.9552 H   0  0  0  0  0  0  0  0  0  0  0  0
   -2.7496   -0.0420    6.0874 H   0  0  0  0  0  0  0  0  0  0  0  0
   -1.8564    1.9724    6.8525 H   0  0  0  0  0  0  0  0  0  0  0  0
    4.0703    0.0210    4.4774 H   0  0  0  0  0  0  0  0  0  0  0  0
    2.8885   -1.0072    4.4292 H   0  0  0  0  0  0  0  0  0  0  0  0
    4.8372   -2.0866    5.0063 H   0  0  0  0  0  0  0  0  0  0  0  0
    3.8220   -2.1705    6.1988 H   0  0  0  0  0  0  0  0  0  0  0  0
    5.0038   -1.1424    6.2471 H   0  0  0  0  0  0  0  0  0  0  0  0
    3.9403    0.3008    7.8454 H   0  0  0  0  0  0  0  0  0  0  0  0
    3.1426    1.6413    8.0034 H   0  0  0  0  0  0  0  0  0  0  0  0
    5.3691    2.1006    7.5993 H   0  0  0  0  0  0  0  0  0  0  0  0
    4.4967    2.6368    6.4117 H   0  0  0  0  0  0  0  0  0  0  0  0
    5.2944    1.2963    6.2537 H   0  0  0  0  0  0  0  0  0  0  0  0
    0.8445   -0.0140    7.6043 H   0  0  0  0  0  0  0  0  0  0  0  0
    1.8383   -1.2123    7.4163 H   0  0  0  0  0  0  0  0  0  0  0  0
   -0.2487   -1.7975    6.5681 H   0  0  0  0  0  0  0  0  0  0  0  0
    0.7947   -1.7742    5.3988 H   0  0  0  0  0  0  0  0  0  0  0  0
   -0.1980   -0.5759    5.5868 H   0  0  0  0  0  0  0  0  0  0  0  0
    1.4960    4.2618    2.1422 H   0  0  0  0  0  0  0  0  0  0  0  0
    0.2802    3.3036    1.8944 H   0  0  0  0  0  0  0  0  0  0  0  0
    1.0997    4.0800   -0.1231 H   0  0  0  0  0  0  0  0  0  0  0  0
    1.2957    2.5272   -0.0383 H   0  0  0  0  0  0  0  0  0  0  0  0
    2.5115    3.4854    0.2096 H   0  0  0  0  0  0  0  0  0  0  0  0
    1.9084   -0.1562    2.5813 H   0  0  0  0  0  0  0  0  0  0  0  0
    1.7294    0.5595    1.1975 H   0  0  0  0  0  0  0  0  0  0  0  0
   -0.2437   -0.4709    1.7996 H   0  0  0  0  0  0  0  0  0  0  0  0
   -0.4558    1.0794    1.7414 H   0  0  0  0  0  0  0  0  0  0  0  0
   -0.2768    0.3660    3.1252 H   0  0  0  0  0  0  0  0  0  0  0  0
    3.8570    2.1449    1.4769 H   0  0  0  0  0  0  0  0  0  0  0  0
    4.2159    1.4595    2.8408 H   0  0  0  0  0  0  0  0  0  0  0  0
    5.4052    3.4901    2.6479 H   0  0  0  0  0  0  0  0  0  0  0  0
    4.4141    3.5904    3.8587 H   0  0  0  0  0  0  0  0  0  0  0  0
    4.0553    4.2735    2.4932 H   0  0  0  0  0  0  0  0  0  0  0  0
  1  2  1  0  0  0  0
  2  3  1  0  0  0  0
  3  1  1  0  0  0  0
  4  3  2  0  0  0  0
  5  2  1  0  0  0  0
  6  2  1  0  0  0  0
  7  2  1  0  0  0  0
  8  2  1  0  0  0  0
  9  2  1  0  0  0  0
 10  8  1  0  0  0  0
 11  5  1  0  0  0  0
 12  5  1  0  0  0  0
 13  6  1  0  0  0  0
 14  6  1  0  0  0  0
 15 10  1  0  0  0  0
 16  1  1  0  0  0  0
 17 16  1  0  0  0  0
 18 17  1  0  0  0  0
 19 16  1  0  0  0  0
 20 19  1  0  0  0  0
 21 16  1  0  0  0  0
 22 21  1  0  0  0  0
 23  1  1  0  0  0  0
 24 23  1  0  0  0  0
 25 24  1  0  0  0  0
 26 23  1  0  0  0  0
 27 26  1  0  0  0  0
 28 23  1  0  0  0  0
 29 28  1  0  0  0  0
 30  2  1  0  0  0  0
 31 30  1  0  0  0  0
 32 31  4  0  0  0  0
 33 32  4  0  0  0  0
 34 33  4  0  0  0  0
 35 34  4  0  0  0  0
 36 31  4  0  0  0  0
 37 30  1  0  0  0  0
 38 37  4  0  0  0  0
 39 38  4  0  0  0  0
 40 39  4  0  0  0  0
 41 40  4  0  0  0  0
 42 37  4  0  0  0  0
 43 30  1  0  0  0  0
 44 43  4  0  0  0  0
 45 44  4  0  0  0  0
 46 45  4  0  0  0  0
 47 46  4  0  0  0  0
 48 43  4  0  0  0  0
 49  1  1  0  0  0  0
 50  5  1  0  0  0  0
 51  6  1  0  0  0  0
 52  7  1  0  0  0  0
 53  8  1  0  0  0  0
 54  9  1  0  0  0  0
 55 10  1  0  0  0  0
 56 11  1  0  0  0  0
 57 12  1  0  0  0  0
 58 13  1  0  0  0  0
 59 14  1  0  0  0  0
 60 15  1  0  0  0  0
 61 32  1  0  0  0  0
 62 33  1  0  0  0  0
 63 34  1  0  0  0  0
 64 35  1  0  0  0  0
 65 36  1  0  0  0  0
 66 38  1  0  0  0  0
 67 39  1  0  0  0  0
 68 40  1  0  0  0  0
 69 41  1  0  0  0  0
 70 42  1  0  0  0  0
 71 44  1  0  0  0  0
 72 45  1  0  0  0  0
 73 46  1  0  0  0  0
 74 47  1  0  0  0  0
 75 48  1  0  0  0  0
 76 17  1  0  0  0  0
 77 17  1  0  0  0  0
 78 18  1  0  0  0  0
 79 18  1  0  0  0  0
 80 18  1  0  0  0  0
 81 19  1  0  0  0  0
 82 19  1  0  0  0  0
 83 20  1  0  0  0  0
 84 20  1  0  0  0  0
 85 20  1  0  0  0  0
 86 21  1  0  0  0  0
 87 21  1  0  0  0  0
 88 22  1  0  0  0  0
 89 22  1  0  0  0  0
 90 22  1  0  0  0  0
 91 24  1  0  0  0  0
 92 24  1  0  0  0  0
 93 25  1  0  0  0  0
 94 25  1  0  0  0  0
 95 25  1  0  0  0  0
 96 26  1  0  0  0  0
 97 26  1  0  0  0  0
 98 27  1  0  0  0  0
 99 27  1  0  0  0  0
100 27  1  0  0  0  0
101 28  1  0  0  0  0
102 28  1  0  0  0  0
103 29  1  0  0  0  0
104 29  1  0  0  0  0
105 29  1  0  0  0  0
  2 49  1  0  0  0  0
  5  7  1  0  0  0  0
  5  9  1  0  0  0  0
  6  7  1  0  0  0  0
  6  8  1  0  0  0  0
  7 12  1  0  0  0  0
  7 13  1  0  0  0  0
  8  9  1  0  0  0  0
  8 14  1  0  0  0  0
  9 10  1  0  0  0  0
  9 11  1  0  0  0  0
 10 11  1  0  0  0  0
 10 14  1  0  0  0  0
 11 12  1  0  0  0  0
 11 15  1  0  0  0  0
 12 13  1  0  0  0  0
 12 15  1  0  0  0  0
 13 14  1  0  0  0  0
 13 15  1  0  0  0  0
 14 15  1  0  0  0  0
 35 36  4  0  0  0  0
 41 42  4  0  0  0  0
 47 48  4  0  0  0  0
M  END
$$$$
PALQAU

From CSD data. Using bond type 'Any'. No disordered atoms. Largest molecule.
 79106  0  0  0  0  0  0  0  0999 V2000
   -0.3211   17.9228   18.0119 Ru  0  0  0  0  0  0  0  0  0  0  0  0
    0.9063   15.0124   16.4881 Ru  0  0  0  0  0  0  0  0  0  0  0  0
   -2.2802   18.8297   19.1871 P   0  0  0  0  0  0  0  0  0  0  0  0
    0.9744   13.0162   17.6683 P   0  0  0  0  0  0  0  0  0  0  0  0
    2.7542   14.6045   15.1734 P   0  0  0  0  0  0  0  0  0  0  0  0
   -1.1937   15.7394   17.7380 Cl  0  0  0  0  0  0  0  0  0  0  0  0
   -0.6155   14.2590   14.8149 Cl  0  0  0  0  0  0  0  0  0  0  0  0
    1.2429   17.6157   19.2444 B   0  0  0  0  0  0  0  0  0  0  0  0
   -0.1350   18.7601   16.1520 B   0  0  0  0  0  0  0  0  0  0  0  0
    1.3306   19.3264   18.7763 B   0  0  0  0  0  0  0  0  0  0  0  0
    0.6788   19.8782   17.2923 B   0  0  0  0  0  0  0  0  0  0  0  0
    1.0430   17.4333   16.2441 B   0  0  0  0  0  0  0  0  0  0  0  0
    1.6778   16.8935   17.6857 B   0  0  0  0  0  0  0  0  0  0  0  0
    2.7038   18.1627   18.4327 B   0  0  0  0  0  0  0  0  0  0  0  0
    1.5794   19.1152   15.8855 B   0  0  0  0  0  0  0  0  0  0  0  0
    2.4199   19.5687   17.3994 B   0  0  0  0  0  0  0  0  0  0  0  0
    2.6803   17.9804   16.6798 B   0  0  0  0  0  0  0  0  0  0  0  0
    1.0710   16.9894   20.4346 O   0  0  0  0  0  0  0  0  0  0  0  0
   -1.2214   18.9377   15.4174 O   0  0  0  0  0  0  0  0  0  0  0  0
    1.3320   17.4669   21.6945 C   0  0  0  0  0  0  0  0  0  0  0  0
    1.9920   18.3043   22.1501 C   0  0  0  0  0  0  0  0  0  0  0  0
    0.8888   16.2984   22.6357 C   0  0  0  0  0  0  0  0  0  0  0  0
   -1.2783   18.6666   14.0256 C   0  0  0  0  0  0  0  0  0  0  0  0
   -2.3258   17.6181   13.7393 C   0  0  0  0  0  0  0  0  0  0  0  0
   -1.6056   19.9310   13.3135 C   0  0  0  0  0  0  0  0  0  0  0  0
   -3.2235   17.6205   20.1881 C   0  0  0  0  0  0  0  0  0  0  0  0
   -2.6006   16.5528   20.7657 C   0  0  0  0  0  0  0  0  0  0  0  0
   -3.3045   15.6650   21.5675 C   0  0  0  0  0  0  0  0  0  0  0  0
   -4.6394   15.8690   21.7866 C   0  0  0  0  0  0  0  0  0  0  0  0
   -5.2833   16.9151   21.2164 C   0  0  0  0  0  0  0  0  0  0  0  0
   -4.5703   17.7740   20.4271 C   0  0  0  0  0  0  0  0  0  0  0  0
   -2.0782   20.2453   20.3026 C   0  0  0  0  0  0  0  0  0  0  0  0
   -1.4415   21.3850   19.8818 C   0  0  0  0  0  0  0  0  0  0  0  0
   -1.2212   22.4455   20.7583 C   0  0  0  0  0  0  0  0  0  0  0  0
   -1.6417   22.3975   22.0132 C   0  0  0  0  0  0  0  0  0  0  0  0
   -2.2372   21.2458   22.4912 C   0  0  0  0  0  0  0  0  0  0  0  0
   -2.4286   20.1781   21.6098 C   0  0  0  0  0  0  0  0  0  0  0  0
   -3.5336   19.3216   17.9497 C   0  0  0  0  0  0  0  0  0  0  0  0
   -3.9896   18.3474   17.1081 C   0  0  0  0  0  0  0  0  0  0  0  0
   -4.9711   18.5946   16.1843 C   0  0  0  0  0  0  0  0  0  0  0  0
   -5.5105   19.8230   16.1022 C   0  0  0  0  0  0  0  0  0  0  0  0
   -5.0554   20.8067   16.9189 C   0  0  0  0  0  0  0  0  0  0  0  0
   -4.0927   20.5740   17.8675 C   0  0  0  0  0  0  0  0  0  0  0  0
    2.4599   12.9106   18.7439 C   0  0  0  0  0  0  0  0  0  0  0  0
    3.4499   11.9533   18.6045 C   0  0  0  0  0  0  0  0  0  0  0  0
    4.5598   11.9725   19.4187 C   0  0  0  0  0  0  0  0  0  0  0  0
    4.7125   12.9298   20.3524 C   0  0  0  0  0  0  0  0  0  0  0  0
    3.7372   13.8919   20.5317 C   0  0  0  0  0  0  0  0  0  0  0  0
    2.6248   13.8871   19.7250 C   0  0  0  0  0  0  0  0  0  0  0  0
   -0.4237   12.7931   18.8460 C   0  0  0  0  0  0  0  0  0  0  0  0
   -0.3190   12.7187   20.2005 C   0  0  0  0  0  0  0  0  0  0  0  0
   -1.3997   12.4668   21.0172 C   0  0  0  0  0  0  0  0  0  0  0  0
   -2.6449   12.3012   20.4172 C   0  0  0  0  0  0  0  0  0  0  0  0
   -2.7974   12.3852   19.0876 C   0  0  0  0  0  0  0  0  0  0  0  0
   -1.6869   12.6371   18.3132 C   0  0  0  0  0  0  0  0  0  0  0  0
    0.8389   11.3583   16.8890 C   0  0  0  0  0  0  0  0  0  0  0  0
    0.4719   11.2215   15.5643 C   0  0  0  0  0  0  0  0  0  0  0  0
    0.2392    9.9571   15.0265 C   0  0  0  0  0  0  0  0  0  0  0  0
    0.3953    8.8390   15.8333 C   0  0  0  0  0  0  0  0  0  0  0  0
    0.7751    8.9734   17.1504 C   0  0  0  0  0  0  0  0  0  0  0  0
    0.9802   10.2210   17.6683 C   0  0  0  0  0  0  0  0  0  0  0  0
    2.8127   13.0138   14.2223 C   0  0  0  0  0  0  0  0  0  0  0  0
    2.2038   12.8842   12.9848 C   0  0  0  0  0  0  0  0  0  0  0  0
    2.2552   11.6726   12.3001 C   0  0  0  0  0  0  0  0  0  0  0  0
    2.9098   10.6169   12.8429 C   0  0  0  0  0  0  0  0  0  0  0  0
    3.5399   10.7297   14.0455 C   0  0  0  0  0  0  0  0  0  0  0  0
    3.4847   11.9365   14.7651 C   0  0  0  0  0  0  0  0  0  0  0  0
    4.4413   14.6165   15.8806 C   0  0  0  0  0  0  0  0  0  0  0  0
    5.5251   14.2207   15.1037 C   0  0  0  0  0  0  0  0  0  0  0  0
    6.8270   14.2758   15.5942 C   0  0  0  0  0  0  0  0  0  0  0  0
    7.0263   14.6885   16.8790 C   0  0  0  0  0  0  0  0  0  0  0  0
    5.9775   15.0652   17.6260 C   0  0  0  0  0  0  0  0  0  0  0  0
    4.6881   15.0412   17.1604 C   0  0  0  0  0  0  0  0  0  0  0  0
    2.8648   15.8834   13.8438 C   0  0  0  0  0  0  0  0  0  0  0  0
    1.7451   16.1761   13.0794 C   0  0  0  0  0  0  0  0  0  0  0  0
    1.8106   17.2198   12.1283 C   0  0  0  0  0  0  0  0  0  0  0  0
    2.9702   17.9444   11.9440 C   0  0  0  0  0  0  0  0  0  0  0  0
    4.0447   17.6517   12.7010 C   0  0  0  0  0  0  0  0  0  0  0  0
    4.0176   16.6176   13.6421 C   0  0  0  0  0  0  0  0  0  0  0  0
  1  3  1  0  0  0  0
  2  4  1  0  0  0  0
  3 26  1  0  0  0  0
  4 44  1  0  0  0  0
  5  2  1  0  0  0  0
  6  1  1  0  0  0  0
  7  2  1  0  0  0  0
  8  1  1  0  0  0  0
  9  1  1  0  0  0  0
 10  1  1  0  0  0  0
 11  1  1  0  0  0  0
 12  1  1  0  0  0  0
 13  1  1  0  0  0  0
 14  8  1  0  0  0  0
 15  9  1  0  0  0  0
 16 10  1  0  0  0  0
 17 12  1  0  0  0  0
 18  8  1  0  0  0  0
 19  9  1  0  0  0  0
 20 18  1  0  0  0  0
 21 20  1  0  0  0  0
 22 20  1  0  0  0  0
 23 19  1  0  0  0  0
 24 23  1  0  0  0  0
 25 23  1  0  0  0  0
 26 27  4  0  0  0  0
 27 28  4  0  0  0  0
 28 29  4  0  0  0  0
 29 30  4  0  0  0  0
 30 31  4  0  0  0  0
 31 26  4  0  0  0  0
 32  3  1  0  0  0  0
 33 32  4  0  0  0  0
 34 33  4  0  0  0  0
 35 34  4  0  0  0  0
 36 35  4  0  0  0  0
 37 32  4  0  0  0  0
 38  3  1  0  0  0  0
 39 38  4  0  0  0  0
 40 39  4  0  0  0  0
 41 40  4  0  0  0  0
 42 41  4  0  0  0  0
 43 38  4  0  0  0  0
 44 45  4  0  0  0  0
 45 46  4  0  0  0  0
 46 47  4  0  0  0  0
 47 48  4  0  0  0  0
 48 49  4  0  0  0  0
 49 44  4  0  0  0  0
 50  4  1  0  0  0  0
 51 50  4  0  0  0  0
 52 51  4  0  0  0  0
 53 52  4  0  0  0  0
 54 53  4  0  0  0  0
 55 50  4  0  0  0  0
 56  4  1  0  0  0  0
 57 56  4  0  0  0  0
 58 57  4  0  0  0  0
 59 58  4  0  0  0  0
 60 59  4  0  0  0  0
 61 56  4  0  0  0  0
 62  5  1  0  0  0  0
 63 62  4  0  0  0  0
 64 63  4  0  0  0  0
 65 64  4  0  0  0  0
 66 65  4  0  0  0  0
 67 62  4  0  0  0  0
 68  5  1  0  0  0  0
 69 68  4  0  0  0  0
 70 69  4  0  0  0  0
 71 70  4  0  0  0  0
 72 71  4  0  0  0  0
 73 68  4  0  0  0  0
 74  5  1  0  0  0  0
 75 74  4  0  0  0  0
 76 75  4  0  0  0  0
 77 76  4  0  0  0  0
 78 77  4  0  0  0  0
 79 74  4  0  0  0  0
  2  6  1  0  0  0  0
  2 12  1  0  0  0  0
  2 13  1  0  0  0  0
  8 10  1  0  0  0  0
  8 13  1  0  0  0  0
  9 11  1  0  0  0  0
  9 12  1  0  0  0  0
 10 11  1  0  0  0  0
 10 14  1  0  0  0  0
 11 15  1  0  0  0  0
 11 16  1  0  0  0  0
 12 13  1  0  0  0  0
 12 15  1  0  0  0  0
 13 14  1  0  0  0  0
 13 17  1  0  0  0  0
 14 16  1  0  0  0  0
 14 17  1  0  0  0  0
 15 16  1  0  0  0  0
 15 17  1  0  0  0  0
 16 17  1  0  0  0  0
 36 37  4  0  0  0  0
 42 43  4  0  0  0  0
 54 55  4  0  0  0  0
 60 61  4  0  0  0  0
 66 67  4  0  0  0  0
 72 73  4  0  0  0  0
 78 79  4  0  0  0  0
M  END
$$$$
PAMKUJ

From CSD data. Using bond type 'Any'. No disordered atoms. Largest molecule.
 89111  0  0  0  0  0  0  0  0999 V2000
    5.4465    1.7571    0.9839 Rh  0  0  0  0  0  0  0  0  0  0  0  0
    5.9026    2.0778    3.2758 S   0  0  0  0  0  0  0  0  0  0  0  0
    6.9276    0.0247    0.5116 P   0  0  0  0  0  0  0  0  0  0  0  0
    2.6849    1.7220   -1.4689 P   0  0  0  0  0  0  0  0  0  0  0  0
    7.0657    3.5805   -0.7568 O   0  0  0  0  0  0  0  0  0  0  0  0
    6.4360    2.8743   -0.1051 C   0  0  0  0  0  0  0  0  0  0  0  0
    7.9182    0.3139   -0.9900 C   0  0  0  0  0  0  0  0  0  0  0  0
    9.2961    0.1129   -1.0282 C   0  0  0  0  0  0  0  0  0  0  0  0
    9.9898    0.2558   -2.2304 C   0  0  0  0  0  0  0  0  0  0  0  0
    9.3019    0.6052   -3.3943 C   0  0  0  0  0  0  0  0  0  0  0  0
    7.9240    0.7997   -3.3561 C   0  0  0  0  0  0  0  0  0  0  0  0
    7.2302    0.6578   -2.1539 C   0  0  0  0  0  0  0  0  0  0  0  0
    8.1949   -0.2161    1.8137 C   0  0  0  0  0  0  0  0  0  0  0  0
    8.5092   -1.4791    2.3145 C   0  0  0  0  0  0  0  0  0  0  0  0
    9.4957   -1.6166    3.2911 C   0  0  0  0  0  0  0  0  0  0  0  0
   10.1643   -0.4902    3.7670 C   0  0  0  0  0  0  0  0  0  0  0  0
    9.8496    0.7729    3.2681 C   0  0  0  0  0  0  0  0  0  0  0  0
    8.8631    0.9094    2.2915 C   0  0  0  0  0  0  0  0  0  0  0  0
    6.3274   -1.6822    0.2657 C   0  0  0  0  0  0  0  0  0  0  0  0
    6.8820   -2.4927   -0.7224 C   0  0  0  0  0  0  0  0  0  0  0  0
    6.5216   -3.8363   -0.8103 C   0  0  0  0  0  0  0  0  0  0  0  0
    5.5991   -4.3695    0.0898 C   0  0  0  0  0  0  0  0  0  0  0  0
    5.0441   -3.5601    1.0798 C   0  0  0  0  0  0  0  0  0  0  0  0
    5.4083   -2.2164    1.1677 C   0  0  0  0  0  0  0  0  0  0  0  0
    3.7371    2.4486   -2.7426 C   0  0  0  0  0  0  0  0  0  0  0  0
    4.2961    3.7052   -2.5113 C   0  0  0  0  0  0  0  0  0  0  0  0
    5.0161    4.3426   -3.5185 C   0  0  0  0  0  0  0  0  0  0  0  0
    5.1809    3.7224   -4.7570 C   0  0  0  0  0  0  0  0  0  0  0  0
    4.6219    2.4658   -4.9882 C   0  0  0  0  0  0  0  0  0  0  0  0
    3.8981    1.8295   -3.9810 C   0  0  0  0  0  0  0  0  0  0  0  0
    1.0984    2.6056   -1.5710 C   0  0  0  0  0  0  0  0  0  0  0  0
    1.0467    3.8686   -2.1596 C   0  0  0  0  0  0  0  0  0  0  0  0
   -0.1192    4.6253   -2.0947 C   0  0  0  0  0  0  0  0  0  0  0  0
   -1.2413    4.1190   -1.4391 C   0  0  0  0  0  0  0  0  0  0  0  0
   -1.1934    2.8560   -0.8505 C   0  0  0  0  0  0  0  0  0  0  0  0
   -0.0237    2.0993   -0.9155 C   0  0  0  0  0  0  0  0  0  0  0  0
    2.3975    0.0290   -1.9991 C   0  0  0  0  0  0  0  0  0  0  0  0
    1.2384   -0.4020   -2.6394 C   0  0  0  0  0  0  0  0  0  0  0  0
    1.1334   -1.7198   -3.0828 C   0  0  0  0  0  0  0  0  0  0  0  0
    2.1909   -2.6077   -2.8840 C   0  0  0  0  0  0  0  0  0  0  0  0
    3.3500   -2.1777   -2.2437 C   0  0  0  0  0  0  0  0  0  0  0  0
    3.4550   -0.8599   -1.8003 C   0  0  0  0  0  0  0  0  0  0  0  0
    4.7515    3.4601    2.6030 B   0  0  0  0  0  0  0  0  0  0  0  0
    3.6385    3.3064    1.1601 B   0  0  0  0  0  0  0  0  0  0  0  0
    3.4616    1.8327    0.2943 B   0  0  0  0  0  0  0  0  0  0  0  0
    3.4078    0.6525    1.5404 B   0  0  0  0  0  0  0  0  0  0  0  0
    4.5258    0.7492    2.9948 B   0  0  0  0  0  0  0  0  0  0  0  0
    4.0532    2.3175    3.9504 B   0  0  0  0  0  0  0  0  0  0  0  0
    3.0379    3.1656    2.8439 B   0  0  0  0  0  0  0  0  0  0  0  0
    2.3511    2.1186    1.5863 B   0  0  0  0  0  0  0  0  0  0  0  0
    2.8861    1.3705    3.1000 B   0  0  0  0  0  0  0  0  0  0  0  0
    5.2752    4.3684    2.8591 H   0  0  0  0  0  0  0  0  0  0  0  0
    3.4356    4.1126    0.4702 H   0  0  0  0  0  0  0  0  0  0  0  0
    3.0535   -0.2698    1.1047 H   0  0  0  0  0  0  0  0  0  0  0  0
    4.9011   -0.1204    3.5089 H   0  0  0  0  0  0  0  0  0  0  0  0
    4.1163    2.4669    5.0169 H   0  0  0  0  0  0  0  0  0  0  0  0
    2.4010    3.9223    3.2815 H   0  0  0  0  0  0  0  0  0  0  0  0
    1.3465    2.1466    1.1907 H   0  0  0  0  0  0  0  0  0  0  0  0
    2.1436    0.8814    3.7173 H   0  0  0  0  0  0  0  0  0  0  0  0
    9.7623   -0.1204   -0.2351 H   0  0  0  0  0  0  0  0  0  0  0  0
   10.9258    0.1182   -2.2552 H   0  0  0  0  0  0  0  0  0  0  0  0
    9.7716    0.6955   -4.2123 H   0  0  0  0  0  0  0  0  0  0  0  0
    7.4536    1.0341   -4.1473 H   0  0  0  0  0  0  0  0  0  0  0  0
    6.2901    0.7944   -2.1272 H   0  0  0  0  0  0  0  0  0  0  0  0
    8.0530   -2.2465    1.9876 H   0  0  0  0  0  0  0  0  0  0  0  0
    9.7093   -2.4766    3.6294 H   0  0  0  0  0  0  0  0  0  0  0  0
   10.8340   -0.5837    4.4321 H   0  0  0  0  0  0  0  0  0  0  0  0
   10.3062    1.5393    3.5930 H   0  0  0  0  0  0  0  0  0  0  0  0
    8.6503    1.7693    1.9494 H   0  0  0  0  0  0  0  0  0  0  0  0
    7.5077   -2.1294   -1.3378 H   0  0  0  0  0  0  0  0  0  0  0  0
    6.8971   -4.3877   -1.4850 H   0  0  0  0  0  0  0  0  0  0  0  0
    5.3527   -5.2842    0.0306 H   0  0  0  0  0  0  0  0  0  0  0  0
    4.4188   -3.9223    1.6933 H   0  0  0  0  0  0  0  0  0  0  0  0
    5.0293   -1.6639    1.8405 H   0  0  0  0  0  0  0  0  0  0  0  0
    4.1810    4.1265   -1.6666 H   0  0  0  0  0  0  0  0  0  0  0  0
    5.3957    5.1982   -3.3618 H   0  0  0  0  0  0  0  0  0  0  0  0
    5.6715    4.1566   -5.4431 H   0  0  0  0  0  0  0  0  0  0  0  0
    4.7291    2.0434   -5.8310 H   0  0  0  0  0  0  0  0  0  0  0  0
    3.5144    0.9728   -4.1358 H   0  0  0  0  0  0  0  0  0  0  0  0
    1.8090    4.2136   -2.6050 H   0  0  0  0  0  0  0  0  0  0  0  0
   -0.1506    5.4852   -2.4960 H   0  0  0  0  0  0  0  0  0  0  0  0
   -2.0392    4.6328   -1.3933 H   0  0  0  0  0  0  0  0  0  0  0  0
   -1.9562    2.5099   -0.4033 H   0  0  0  0  0  0  0  0  0  0  0  0
    0.0109    1.2383   -0.5122 H   0  0  0  0  0  0  0  0  0  0  0  0
    0.5199    0.2032   -2.7731 H   0  0  0  0  0  0  0  0  0  0  0  0
    0.3438   -2.0122   -3.5185 H   0  0  0  0  0  0  0  0  0  0  0  0
    2.1160   -3.5052   -3.1860 H   0  0  0  0  0  0  0  0  0  0  0  0
    4.0681   -2.7818   -2.1080 H   0  0  0  0  0  0  0  0  0  0  0  0
    4.2442   -0.5665   -1.3627 H   0  0  0  0  0  0  0  0  0  0  0  0
  1  2  1  0  0  0  0
  2 43  1  0  0  0  0
  3  1  1  0  0  0  0
  4 25  1  0  0  0  0
  5  6  3  0  0  0  0
  6  1  1  0  0  0  0
  7  3  1  0  0  0  0
  8  7  4  0  0  0  0
  9  8  4  0  0  0  0
 10  9  4  0  0  0  0
 11 10  4  0  0  0  0
 12  7  4  0  0  0  0
 13  3  1  0  0  0  0
 14 13  4  0  0  0  0
 15 14  4  0  0  0  0
 16 15  4  0  0  0  0
 17 16  4  0  0  0  0
 18 13  4  0  0  0  0
 19  3  1  0  0  0  0
 20 19  4  0  0  0  0
 21 20  4  0  0  0  0
 22 21  4  0  0  0  0
 23 22  4  0  0  0  0
 24 19  4  0  0  0  0
 25 26  4  0  0  0  0
 26 27  4  0  0  0  0
 27 28  4  0  0  0  0
 28 29  4  0  0  0  0
 29 30  4  0  0  0  0
 30 25  4  0  0  0  0
 31  4  1  0  0  0  0
 32 31  4  0  0  0  0
 33 32  4  0  0  0  0
 34 33  4  0  0  0  0
 35 34  4  0  0  0  0
 36 31  4  0  0  0  0
 37  4  1  0  0  0  0
 38 37  4  0  0  0  0
 39 38  4  0  0  0  0
 40 39  4  0  0  0  0
 41 40  4  0  0  0  0
 42 37  4  0  0  0  0
 43  1  1  0  0  0  0
 44  1  1  0  0  0  0
 45  1  1  0  0  0  0
 46  1  1  0  0  0  0
 47  1  1  0  0  0  0
 48  2  1  0  0  0  0
 49 43  1  0  0  0  0
 50 44  1  0  0  0  0
 51 46  1  0  0  0  0
 52 43  1  0  0  0  0
 53 44  1  0  0  0  0
 54 46  1  0  0  0  0
 55 47  1  0  0  0  0
 56 48  1  0  0  0  0
 57 49  1  0  0  0  0
 58 50  1  0  0  0  0
 59 51  1  0  0  0  0
 60  8  1  0  0  0  0
 61  9  1  0  0  0  0
 62 10  1  0  0  0  0
 63 11  1  0  0  0  0
 64 12  1  0  0  0  0
 65 14  1  0  0  0  0
 66 15  1  0  0  0  0
 67 16  1  0  0  0  0
 68 17  1  0  0  0  0
 69 18  1  0  0  0  0
 70 20  1  0  0  0  0
 71 21  1  0  0  0  0
 72 22  1  0  0  0  0
 73 23  1  0  0  0  0
 74 24  1  0  0  0  0
 75 26  1  0  0  0  0
 76 27  1  0  0  0  0
 77 28  1  0  0  0  0
 78 29  1  0  0  0  0
 79 30  1  0  0  0  0
 80 32  1  0  0  0  0
 81 33  1  0  0  0  0
 82 34  1  0  0  0  0
 83 35  1  0  0  0  0
 84 36  1  0  0  0  0
 85 38  1  0  0  0  0
 86 39  1  0  0  0  0
 87 40  1  0  0  0  0
 88 41  1  0  0  0  0
 89 42  1  0  0  0  0
  2 47  1  0  0  0  0
  4 45  1  0  0  0  0
 11 12  4  0  0  0  0
 17 18  4  0  0  0  0
 23 24  4  0  0  0  0
 35 36  4  0  0  0  0
 41 42  4  0  0  0  0
 43 44  1  0  0  0  0
 43 48  1  0  0  0  0
 44 45  1  0  0  0  0
 44 49  1  0  0  0  0
 45 46  1  0  0  0  0
 45 50  1  0  0  0  0
 46 47  1  0  0  0  0
 46 50  1  0  0  0  0
 47 48  1  0  0  0  0
 47 51  1  0  0  0  0
 48 49  1  0  0  0  0
 48 51  1  0  0  0  0
 49 50  1  0  0  0  0
 49 51  1  0  0  0  0
 50 51  1  0  0  0  0
M  END
$$$$
PAMLEU

From CSD data. Using bond type 'Any'. No disordered atoms. Largest molecule.
 89111  0  0  0  0  0  0  0  0999 V2000
    3.5299    5.6640    2.7635 Rh  0  0  0  0  0  0  0  0  0  0  0  0
    1.6601    6.5248    1.5783 S   0  0  0  0  0  0  0  0  0  0  0  0
    4.5958    7.6636    3.3532 P   0  0  0  0  0  0  0  0  0  0  0  0
    4.5623    3.0859    5.1757 P   0  0  0  0  0  0  0  0  0  0  0  0
    5.7675    4.8922    0.9256 O   0  0  0  0  0  0  0  0  0  0  0  0
    4.9383    5.2237    1.6447 C   0  0  0  0  0  0  0  0  0  0  0  0
    6.3954    7.6542    3.0136 C   0  0  0  0  0  0  0  0  0  0  0  0
    7.0131    8.7146    2.3499 C   0  0  0  0  0  0  0  0  0  0  0  0
    8.3819    8.6676    2.0811 C   0  0  0  0  0  0  0  0  0  0  0  0
    9.1318    7.5600    2.4760 C   0  0  0  0  0  0  0  0  0  0  0  0
    8.5140    6.4996    3.1397 C   0  0  0  0  0  0  0  0  0  0  0  0
    7.1464    6.5467    3.4085 C   0  0  0  0  0  0  0  0  0  0  0  0
    3.9975    9.0534    2.3236 C   0  0  0  0  0  0  0  0  0  0  0  0
    3.5658   10.2631    2.8681 C   0  0  0  0  0  0  0  0  0  0  0  0
    3.1133   11.2827    2.0298 C   0  0  0  0  0  0  0  0  0  0  0  0
    3.0914   11.0928    0.6484 C   0  0  0  0  0  0  0  0  0  0  0  0
    3.5231    9.8830    0.1039 C   0  0  0  0  0  0  0  0  0  0  0  0
    3.9766    8.8632    0.9408 C   0  0  0  0  0  0  0  0  0  0  0  0
    4.4799    8.3494    5.0448 C   0  0  0  0  0  0  0  0  0  0  0  0
    5.5754    8.9634    5.6558 C   0  0  0  0  0  0  0  0  0  0  0  0
    5.4263    9.5799    6.8973 C   0  0  0  0  0  0  0  0  0  0  0  0
    4.1831    9.5829    7.5305 C   0  0  0  0  0  0  0  0  0  0  0  0
    3.0889    8.9691    6.9208 C   0  0  0  0  0  0  0  0  0  0  0  0
    3.2379    8.3524    5.6780 C   0  0  0  0  0  0  0  0  0  0  0  0
    6.1838    2.8990    4.3881 C   0  0  0  0  0  0  0  0  0  0  0  0
    6.2319    2.4636    3.0635 C   0  0  0  0  0  0  0  0  0  0  0  0
    7.4633    2.2747    2.4344 C   0  0  0  0  0  0  0  0  0  0  0  0
    8.6467    2.5215    3.1314 C   0  0  0  0  0  0  0  0  0  0  0  0
    8.5986    2.9568    4.4559 C   0  0  0  0  0  0  0  0  0  0  0  0
    7.3670    3.1454    5.0836 C   0  0  0  0  0  0  0  0  0  0  0  0
    4.0002    1.4098    5.5838 C   0  0  0  0  0  0  0  0  0  0  0  0
    4.5912    0.2849    5.0088 C   0  0  0  0  0  0  0  0  0  0  0  0
    4.1110   -0.9890    5.3150 C   0  0  0  0  0  0  0  0  0  0  0  0
    3.0386   -1.1368    6.1948 C   0  0  0  0  0  0  0  0  0  0  0  0
    2.4476   -0.0119    6.7698 C   0  0  0  0  0  0  0  0  0  0  0  0
    2.9278    1.2620    6.4636 C   0  0  0  0  0  0  0  0  0  0  0  0
    4.9177    3.8637    6.7587 C   0  0  0  0  0  0  0  0  0  0  0  0
    5.2375    3.1119    7.8894 C   0  0  0  0  0  0  0  0  0  0  0  0
    5.5999    3.7532    9.0740 C   0  0  0  0  0  0  0  0  0  0  0  0
    5.6425    5.1463    9.1280 C   0  0  0  0  0  0  0  0  0  0  0  0
    5.3215    5.8980    7.9974 C   0  0  0  0  0  0  0  0  0  0  0  0
    4.9603    5.2567    6.8128 C   0  0  0  0  0  0  0  0  0  0  0  0
    1.8763    4.6078    1.3357 B   0  0  0  0  0  0  0  0  0  0  0  0
    2.6901    3.4616    2.5356 B   0  0  0  0  0  0  0  0  0  0  0  0
    3.2966    4.0121    4.0541 B   0  0  0  0  0  0  0  0  0  0  0  0
    2.0732    5.0892    4.5848 B   0  0  0  0  0  0  0  0  0  0  0  0
    1.2525    6.2613    3.4403 B   0  0  0  0  0  0  0  0  0  0  0  0
    0.2923    5.2220    2.1767 B   0  0  0  0  0  0  0  0  0  0  0  0
    0.9100    3.6291    2.4247 B   0  0  0  0  0  0  0  0  0  0  0  0
    1.6657    3.4197    4.0167 B   0  0  0  0  0  0  0  0  0  0  0  0
    0.4884    4.7231    3.8158 B   0  0  0  0  0  0  0  0  0  0  0  0
    1.9246    4.4935    0.2633 H   0  0  0  0  0  0  0  0  0  0  0  0
    3.2696    2.5979    2.2404 H   0  0  0  0  0  0  0  0  0  0  0  0
    2.2644    5.2874    5.6295 H   0  0  0  0  0  0  0  0  0  0  0  0
    0.9038    7.2333    3.7479 H   0  0  0  0  0  0  0  0  0  0  0  0
   -0.6306    5.4917    1.6945 H   0  0  0  0  0  0  0  0  0  0  0  0
    0.2947    2.8266    2.0479 H   0  0  0  0  0  0  0  0  0  0  0  0
    1.5934    2.5625    4.6707 H   0  0  0  0  0  0  0  0  0  0  0  0
   -0.4077    4.6852    4.4116 H   0  0  0  0  0  0  0  0  0  0  0  0
    6.5016    9.4677    2.0797 H   0  0  0  0  0  0  0  0  0  0  0  0
    8.8008    9.3881    1.6280 H   0  0  0  0  0  0  0  0  0  0  0  0
   10.0631    7.5258    2.2917 H   0  0  0  0  0  0  0  0  0  0  0  0
    9.0241    5.7448    3.4085 H   0  0  0  0  0  0  0  0  0  0  0  0
    6.7250    5.8244    3.8602 H   0  0  0  0  0  0  0  0  0  0  0  0
    3.5797   10.3909    3.8075 H   0  0  0  0  0  0  0  0  0  0  0  0
    2.8183   12.1051    2.3998 H   0  0  0  0  0  0  0  0  0  0  0  0
    2.7822   11.7858    0.0776 H   0  0  0  0  0  0  0  0  0  0  0  0
    3.5077    9.7522   -0.8369 H   0  0  0  0  0  0  0  0  0  0  0  0
    4.2701    8.0377    0.5695 H   0  0  0  0  0  0  0  0  0  0  0  0
    6.4210    8.9610    5.2235 H   0  0  0  0  0  0  0  0  0  0  0  0
    6.1709    9.9976    7.3116 H   0  0  0  0  0  0  0  0  0  0  0  0
    4.0808   10.0028    8.3757 H   0  0  0  0  0  0  0  0  0  0  0  0
    2.2407    8.9699    7.3518 H   0  0  0  0  0  0  0  0  0  0  0  0
    2.4918    7.9330    5.2623 H   0  0  0  0  0  0  0  0  0  0  0  0
    5.4253    2.2948    2.5882 H   0  0  0  0  0  0  0  0  0  0  0  0
    7.4958    1.9786    1.5324 H   0  0  0  0  0  0  0  0  0  0  0  0
    9.4844    2.3925    2.7032 H   0  0  0  0  0  0  0  0  0  0  0  0
    9.4038    3.1240    4.9298 H   0  0  0  0  0  0  0  0  0  0  0  0
    7.3333    3.4401    5.9856 H   0  0  0  0  0  0  0  0  0  0  0  0
    5.3203    0.3870    4.4088 H   0  0  0  0  0  0  0  0  0  0  0  0
    4.5124   -1.7547    4.9229 H   0  0  0  0  0  0  0  0  0  0  0  0
    2.7109   -2.0033    6.4027 H   0  0  0  0  0  0  0  0  0  0  0  0
    1.7160   -0.1129    7.3684 H   0  0  0  0  0  0  0  0  0  0  0  0
    2.5238    2.0274    6.8543 H   0  0  0  0  0  0  0  0  0  0  0  0
    5.2080    2.1617    7.8519 H   0  0  0  0  0  0  0  0  0  0  0  0
    5.8166    3.2398    9.8430 H   0  0  0  0  0  0  0  0  0  0  0  0
    5.8876    5.5830    9.9344 H   0  0  0  0  0  0  0  0  0  0  0  0
    5.3496    6.8465    8.0335 H   0  0  0  0  0  0  0  0  0  0  0  0
    4.7409    5.7671    6.0424 H   0  0  0  0  0  0  0  0  0  0  0  0
  1  2  1  0  0  0  0
  2 43  1  0  0  0  0
  3  1  1  0  0  0  0
  4 25  1  0  0  0  0
  5  6  3  0  0  0  0
  6  1  1  0  0  0  0
  7  3  1  0  0  0  0
  8  7  4  0  0  0  0
  9  8  4  0  0  0  0
 10  9  4  0  0  0  0
 11 10  4  0  0  0  0
 12  7  4  0  0  0  0
 13  3  1  0  0  0  0
 14 13  4  0  0  0  0
 15 14  4  0  0  0  0
 16 15  4  0  0  0  0
 17 16  4  0  0  0  0
 18 13  4  0  0  0  0
 19  3  1  0  0  0  0
 20 19  4  0  0  0  0
 21 20  4  0  0  0  0
 22 21  4  0  0  0  0
 23 22  4  0  0  0  0
 24 19  4  0  0  0  0
 25 26  4  0  0  0  0
 26 27  4  0  0  0  0
 27 28  4  0  0  0  0
 28 29  4  0  0  0  0
 29 30  4  0  0  0  0
 30 25  4  0  0  0  0
 31  4  1  0  0  0  0
 32 31  4  0  0  0  0
 33 32  4  0  0  0  0
 34 33  4  0  0  0  0
 35 34  4  0  0  0  0
 36 31  4  0  0  0  0
 37  4  1  0  0  0  0
 38 37  4  0  0  0  0
 39 38  4  0  0  0  0
 40 39  4  0  0  0  0
 41 40  4  0  0  0  0
 42 37  4  0  0  0  0
 43  1  1  0  0  0  0
 44  1  1  0  0  0  0
 45  1  1  0  0  0  0
 46  1  1  0  0  0  0
 47  1  1  0  0  0  0
 48  2  1  0  0  0  0
 49 43  1  0  0  0  0
 50 44  1  0  0  0  0
 51 46  1  0  0  0  0
 52 43  1  0  0  0  0
 53 44  1  0  0  0  0
 54 46  1  0  0  0  0
 55 47  1  0  0  0  0
 56 48  1  0  0  0  0
 57 49  1  0  0  0  0
 58 50  1  0  0  0  0
 59 51  1  0  0  0  0
 60  8  1  0  0  0  0
 61  9  1  0  0  0  0
 62 10  1  0  0  0  0
 63 11  1  0  0  0  0
 64 12  1  0  0  0  0
 65 14  1  0  0  0  0
 66 15  1  0  0  0  0
 67 16  1  0  0  0  0
 68 17  1  0  0  0  0
 69 18  1  0  0  0  0
 70 20  1  0  0  0  0
 71 21  1  0  0  0  0
 72 22  1  0  0  0  0
 73 23  1  0  0  0  0
 74 24  1  0  0  0  0
 75 26  1  0  0  0  0
 76 27  1  0  0  0  0
 77 28  1  0  0  0  0
 78 29  1  0  0  0  0
 79 30  1  0  0  0  0
 80 32  1  0  0  0  0
 81 33  1  0  0  0  0
 82 34  1  0  0  0  0
 83 35  1  0  0  0  0
 84 36  1  0  0  0  0
 85 38  1  0  0  0  0
 86 39  1  0  0  0  0
 87 40  1  0  0  0  0
 88 41  1  0  0  0  0
 89 42  1  0  0  0  0
  2 47  1  0  0  0  0
  4 45  1  0  0  0  0
 11 12  4  0  0  0  0
 17 18  4  0  0  0  0
 23 24  4  0  0  0  0
 35 36  4  0  0  0  0
 41 42  4  0  0  0  0
 43 44  1  0  0  0  0
 43 48  1  0  0  0  0
 44 45  1  0  0  0  0
 44 49  1  0  0  0  0
 45 46  1  0  0  0  0
 45 50  1  0  0  0  0
 46 47  1  0  0  0  0
 46 50  1  0  0  0  0
 47 48  1  0  0  0  0
 47 51  1  0  0  0  0
 48 49  1  0  0  0  0
 48 51  1  0  0  0  0
 49 50  1  0  0  0  0
 49 51  1  0  0  0  0
 50 51  1  0  0  0  0
M  END
$$$$
PAMLIY

From CSD data. Using bond type 'Any'. No disordered atoms. Largest molecule.
 61 79  0  0  0  0  0  0  0  0999 V2000
    0.8702    3.8533    0.9023 Rh  0  0  0  0  0  0  0  0  0  0  0  0
    1.0010    5.1123   -1.1059 S   0  0  0  0  0  0  0  0  0  0  0  0
   -1.3924    3.4959    1.1914 P   0  0  0  0  0  0  0  0  0  0  0  0
    2.3545    1.1418    2.7570 P   0  0  0  0  0  0  0  0  0  0  0  0
    1.0347    5.4874    3.3942 O   0  0  0  0  0  0  0  0  0  0  0  0
    0.9500    4.8661    2.4547 C   0  0  0  0  0  0  0  0  0  0  0  0
   -1.8963    2.8813    2.8263 C   0  0  0  0  0  0  0  0  0  0  0  0
   -2.2458    1.5509    3.0390 C   0  0  0  0  0  0  0  0  0  0  0  0
   -2.5844    1.1051    4.3020 C   0  0  0  0  0  0  0  0  0  0  0  0
   -2.5657    1.9801    5.3742 C   0  0  0  0  0  0  0  0  0  0  0  0
   -2.2274    3.2939    5.1802 C   0  0  0  0  0  0  0  0  0  0  0  0
   -1.9000    3.7539    3.9161 C   0  0  0  0  0  0  0  0  0  0  0  0
   -2.1724    2.3358    0.0329 C   0  0  0  0  0  0  0  0  0  0  0  0
   -2.4052    4.9894    0.9999 C   0  0  0  0  0  0  0  0  0  0  0  0
    2.4251    2.0939    4.2932 C   0  0  0  0  0  0  0  0  0  0  0  0
    3.5994    2.7176    4.6791 C   0  0  0  0  0  0  0  0  0  0  0  0
    3.6687    3.4338    5.8588 C   0  0  0  0  0  0  0  0  0  0  0  0
    2.5590    3.5429    6.6635 C   0  0  0  0  0  0  0  0  0  0  0  0
    1.3754    2.9571    6.2710 C   0  0  0  0  0  0  0  0  0  0  0  0
    1.2993    2.2362    5.0914 C   0  0  0  0  0  0  0  0  0  0  0  0
    3.8609    0.1660    2.6981 C   0  0  0  0  0  0  0  0  0  0  0  0
    1.0306   -0.0545    2.9502 C   0  0  0  0  0  0  0  0  0  0  0  0
    2.7314    4.8898   -0.2949 B   0  0  0  0  0  0  0  0  0  0  0  0
    3.2258    3.5239    0.8354 B   0  0  0  0  0  0  0  0  0  0  0  0
    2.1625    2.2267    1.2147 B   0  0  0  0  0  0  0  0  0  0  0  0
    1.4234    1.8639   -0.2982 B   0  0  0  0  0  0  0  0  0  0  0  0
    0.8973    3.1966   -1.4373 B   0  0  0  0  0  0  0  0  0  0  0  0
    2.4626    4.1025   -1.9997 B   0  0  0  0  0  0  0  0  0  0  0  0
    3.6702    3.5381   -0.8968 B   0  0  0  0  0  0  0  0  0  0  0  0
    3.2225    1.9991   -0.1250 B   0  0  0  0  0  0  0  0  0  0  0  0
    2.4603    2.4141   -1.6631 B   0  0  0  0  0  0  0  0  0  0  0  0
   -2.2520    0.9414    2.3078 H   0  0  0  0  0  0  0  0  0  0  0  0
   -2.8284    0.1945    4.4346 H   0  0  0  0  0  0  0  0  0  0  0  0
   -2.7880    1.6695    6.2436 H   0  0  0  0  0  0  0  0  0  0  0  0
   -2.2174    3.8915    5.9169 H   0  0  0  0  0  0  0  0  0  0  0  0
   -1.6762    4.6669    3.7889 H   0  0  0  0  0  0  0  0  0  0  0  0
   -1.7092    1.5058    0.0548 H   0  0  0  0  0  0  0  0  0  0  0  0
   -3.0782    2.1983    0.2818 H   0  0  0  0  0  0  0  0  0  0  0  0
   -2.1353    2.6939   -0.8464 H   0  0  0  0  0  0  0  0  0  0  0  0
   -2.0748    5.6700    1.5721 H   0  0  0  0  0  0  0  0  0  0  0  0
   -2.3631    5.2835    0.0976 H   0  0  0  0  0  0  0  0  0  0  0  0
   -3.3054    4.7902    1.2268 H   0  0  0  0  0  0  0  0  0  0  0  0
    4.3676    2.6512    4.1255 H   0  0  0  0  0  0  0  0  0  0  0  0
    4.4827    3.8512    6.1142 H   0  0  0  0  0  0  0  0  0  0  0  0
    2.6074    4.0148    7.4846 H   0  0  0  0  0  0  0  0  0  0  0  0
    0.6015    3.0472    6.8159 H   0  0  0  0  0  0  0  0  0  0  0  0
    0.4774    1.8355    4.8282 H   0  0  0  0  0  0  0  0  0  0  0  0
    4.6087    0.7422    2.5950 H   0  0  0  0  0  0  0  0  0  0  0  0
    3.9498   -0.3273    3.5050 H   0  0  0  0  0  0  0  0  0  0  0  0
    3.8206   -0.4316    1.9624 H   0  0  0  0  0  0  0  0  0  0  0  0
    0.1963    0.3984    2.9886 H   0  0  0  0  0  0  0  0  0  0  0  0
    1.0319   -0.6498    2.2113 H   0  0  0  0  0  0  0  0  0  0  0  0
    1.1611   -0.5431    3.7538 H   0  0  0  0  0  0  0  0  0  0  0  0
    3.0822    5.9048   -0.1984 H   0  0  0  0  0  0  0  0  0  0  0  0
    3.9002    3.6425    1.6697 H   0  0  0  0  0  0  0  0  0  0  0  0
    0.9250    0.9082   -0.2039 H   0  0  0  0  0  0  0  0  0  0  0  0
    0.0445    3.1018   -2.0918 H   0  0  0  0  0  0  0  0  0  0  0  0
    2.6285    4.5721   -2.9568 H   0  0  0  0  0  0  0  0  0  0  0  0
    4.6926    3.6780   -1.2103 H   0  0  0  0  0  0  0  0  0  0  0  0
    3.8680    1.1572    0.0746 H   0  0  0  0  0  0  0  0  0  0  0  0
    2.6457    1.7714   -2.5117 H   0  0  0  0  0  0  0  0  0  0  0  0
  1  2  1  0  0  0  0
  2 23  1  0  0  0  0
  3  1  1  0  0  0  0
  4 15  1  0  0  0  0
  5  6  3  0  0  0  0
  6  1  1  0  0  0  0
  7  3  1  0  0  0  0
  8  7  4  0  0  0  0
  9  8  4  0  0  0  0
 10  9  4  0  0  0  0
 11 10  4  0  0  0  0
 12  7  4  0  0  0  0
 13  3  1  0  0  0  0
 14  3  1  0  0  0  0
 15 16  4  0  0  0  0
 16 17  4  0  0  0  0
 17 18  4  0  0  0  0
 18 19  4  0  0  0  0
 19 20  4  0  0  0  0
 20 15  4  0  0  0  0
 21  4  1  0  0  0  0
 22  4  1  0  0  0  0
 23  1  1  0  0  0  0
 24  1  1  0  0  0  0
 25  1  1  0  0  0  0
 26  1  1  0  0  0  0
 27  1  1  0  0  0  0
 28  2  1  0  0  0  0
 29 23  1  0  0  0  0
 30 24  1  0  0  0  0
 31 26  1  0  0  0  0
 32  8  1  0  0  0  0
 33  9  1  0  0  0  0
 34 10  1  0  0  0  0
 35 11  1  0  0  0  0
 36 12  1  0  0  0  0
 37 13  1  0  0  0  0
 38 13  1  0  0  0  0
 39 13  1  0  0  0  0
 40 14  1  0  0  0  0
 41 14  1  0  0  0  0
 42 14  1  0  0  0  0
 43 16  1  0  0  0  0
 44 17  1  0  0  0  0
 45 18  1  0  0  0  0
 46 19  1  0  0  0  0
 47 20  1  0  0  0  0
 48 21  1  0  0  0  0
 49 21  1  0  0  0  0
 50 21  1  0  0  0  0
 51 22  1  0  0  0  0
 52 22  1  0  0  0  0
 53 22  1  0  0  0  0
 54 23  1  0  0  0  0
 55 24  1  0  0  0  0
 56 26  1  0  0  0  0
 57 27  1  0  0  0  0
 58 28  1  0  0  0  0
 59 29  1  0  0  0  0
 60 30  1  0  0  0  0
 61 31  1  0  0  0  0
  2 27  1  0  0  0  0
  4 25  1  0  0  0  0
 11 12  4  0  0  0  0
 23 24  1  0  0  0  0
 23 28  1  0  0  0  0
 24 25  1  0  0  0  0
 24 29  1  0  0  0  0
 25 26  1  0  0  0  0
 25 30  1  0  0  0  0
 26 27  1  0  0  0  0
 26 30  1  0  0  0  0
 27 28  1  0  0  0  0
 27 31  1  0  0  0  0
 28 29  1  0  0  0  0
 28 31  1  0  0  0  0
 29 30  1  0  0  0  0
 29 31  1  0  0  0  0
 30 31  1  0  0  0  0
M  END
$$$$
PAWHAA

From CSD data. Using bond type 'Any'. No disordered atoms. Largest molecule.
 93 97  0  0  0  0  0  0  0  0999 V2000
    2.1910    7.8083   11.0330 Ir  0  0  0  0  0  0  0  0  0  0  0  0
    1.5907    6.1496    9.4289 P   0  0  0  0  0  0  0  0  0  0  0  0
    0.7048    7.0025   12.8184 Cl  0  0  0  0  0  0  0  0  0  0  0  0
    4.5465    6.2265   12.2814 O   0  0  0  0  0  0  0  0  0  0  0  0
    5.2703    7.2654    9.1275 N   0  0  0  0  0  0  0  0  0  0  0  0
    5.6367    8.4486    9.8855 N   0  0  0  0  0  0  0  0  0  0  0  0
    2.7413    9.8831   12.0522 P   0  0  0  0  0  0  0  0  0  0  0  0
    3.2956    8.6607    9.3517 C   0  0  0  0  0  0  0  0  0  0  0  0
    2.7955    9.2582    8.7243 H   0  0  0  0  0  0  0  0  0  0  0  0
    0.0661    6.6065    8.4169 C   0  0  0  0  0  0  0  0  0  0  0  0
    2.9804    6.1701    8.2140 C   0  0  0  0  0  0  0  0  0  0  0  0
    3.4765    5.3134    8.2143 H   0  0  0  0  0  0  0  0  0  0  0  0
    2.6601    6.3646    7.2980 H   0  0  0  0  0  0  0  0  0  0  0  0
    0.3754    7.9499    7.6879 C   0  0  0  0  0  0  0  0  0  0  0  0
   -0.3780    8.1886    7.1090 H   0  0  0  0  0  0  0  0  0  0  0  0
    1.1853    7.8482    7.1454 H   0  0  0  0  0  0  0  0  0  0  0  0
    0.5142    8.6574    8.3521 H   0  0  0  0  0  0  0  0  0  0  0  0
   -0.2469    5.5775    7.3234 C   0  0  0  0  0  0  0  0  0  0  0  0
   -0.5243    4.7340    7.7384 H   0  0  0  0  0  0  0  0  0  0  0  0
    0.5531    5.4255    6.7781 H   0  0  0  0  0  0  0  0  0  0  0  0
   -0.9706    5.9145    6.7543 H   0  0  0  0  0  0  0  0  0  0  0  0
    4.3381   10.3623   11.2504 C   0  0  0  0  0  0  0  0  0  0  0  0
    4.2898   11.2743   10.8681 H   0  0  0  0  0  0  0  0  0  0  0  0
    5.0910   10.3168   11.8914 H   0  0  0  0  0  0  0  0  0  0  0  0
    3.7066    6.8123   11.8040 C   0  0  0  0  0  0  0  0  0  0  0  0
    3.8598    7.3535    8.7890 B   0  0  0  0  0  0  0  0  0  0  0  0
    4.4805    9.2628   10.1112 B   0  0  0  0  0  0  0  0  0  0  0  0
    1.5259   11.2656   11.6195 C   0  0  0  0  0  0  0  0  0  0  0  0
    3.9758   11.1093   14.3372 C   0  0  0  0  0  0  0  0  0  0  0  0
    4.0919   11.0928   15.3107 H   0  0  0  0  0  0  0  0  0  0  0  0
    3.5405   11.9483   14.0757 H   0  0  0  0  0  0  0  0  0  0  0  0
    4.8513   11.0466   13.9027 H   0  0  0  0  0  0  0  0  0  0  0  0
   -1.1412    6.8580    9.3197 C   0  0  0  0  0  0  0  0  0  0  0  0
   -1.8571    7.2785    8.7996 H   0  0  0  0  0  0  0  0  0  0  0  0
   -0.8813    7.4495   10.0564 H   0  0  0  0  0  0  0  0  0  0  0  0
   -1.4597    6.0048    9.6833 H   0  0  0  0  0  0  0  0  0  0  0  0
    1.4506    4.3465    9.9862 C   0  0  0  0  0  0  0  0  0  0  0  0
    0.0547    4.1007   10.6038 C   0  0  0  0  0  0  0  0  0  0  0  0
   -0.6177    4.0687    9.8916 H   0  0  0  0  0  0  0  0  0  0  0  0
   -0.1614    4.8278   11.2245 H   0  0  0  0  0  0  0  0  0  0  0  0
    0.0575    3.2484   11.0884 H   0  0  0  0  0  0  0  0  0  0  0  0
    1.6685    3.3271    8.8790 C   0  0  0  0  0  0  0  0  0  0  0  0
    2.5673    3.4400    8.5033 H   0  0  0  0  0  0  0  0  0  0  0  0
    1.0014    3.4626    8.1739 H   0  0  0  0  0  0  0  0  0  0  0  0
    1.5788    2.4232    9.2450 H   0  0  0  0  0  0  0  0  0  0  0  0
    2.4912    4.0988   11.0552 C   0  0  0  0  0  0  0  0  0  0  0  0
    2.5280    3.1409   11.2589 H   0  0  0  0  0  0  0  0  0  0  0  0
    2.2521    4.5960   11.8652 H   0  0  0  0  0  0  0  0  0  0  0  0
    3.3674    4.3985   10.7347 H   0  0  0  0  0  0  0  0  0  0  0  0
    1.8939   12.6166   12.2356 C   0  0  0  0  0  0  0  0  0  0  0  0
    1.2715   13.3031   11.9155 H   0  0  0  0  0  0  0  0  0  0  0  0
    2.8075   12.8576   11.9735 H   0  0  0  0  0  0  0  0  0  0  0  0
    1.8398   12.5569   13.2121 H   0  0  0  0  0  0  0  0  0  0  0  0
    0.0905   10.8883   12.0053 C   0  0  0  0  0  0  0  0  0  0  0  0
    0.0032   10.8932   12.9821 H   0  0  0  0  0  0  0  0  0  0  0  0
   -0.1158    9.9944   11.6634 H   0  0  0  0  0  0  0  0  0  0  0  0
   -0.5334   11.5387   11.6196 H   0  0  0  0  0  0  0  0  0  0  0  0
    1.5346   11.4504   10.0838 C   0  0  0  0  0  0  0  0  0  0  0  0
    0.9439   12.1928    9.8401 H   0  0  0  0  0  0  0  0  0  0  0  0
    1.2199   10.6274    9.6544 H   0  0  0  0  0  0  0  0  0  0  0  0
    2.4470   11.6464    9.7839 H   0  0  0  0  0  0  0  0  0  0  0  0
    3.1068    9.9279   13.9071 C   0  0  0  0  0  0  0  0  0  0  0  0
    1.7783    9.9622   14.7123 C   0  0  0  0  0  0  0  0  0  0  0  0
    1.1729    9.2714   14.3720 H   0  0  0  0  0  0  0  0  0  0  0  0
    1.3585   10.8428   14.6117 H   0  0  0  0  0  0  0  0  0  0  0  0
    1.9659    9.7963   15.6591 H   0  0  0  0  0  0  0  0  0  0  0  0
    3.8446    8.6702   14.2655 C   0  0  0  0  0  0  0  0  0  0  0  0
    4.6290    8.5758   13.6868 H   0  0  0  0  0  0  0  0  0  0  0  0
    3.2527    7.8987   14.1434 H   0  0  0  0  0  0  0  0  0  0  0  0
    4.1322    8.7158   15.2016 H   0  0  0  0  0  0  0  0  0  0  0  0
    6.2646    6.7151    8.2689 C   0  0  0  0  0  0  0  0  0  0  0  0
    6.2609    5.3469    8.0158 C   0  0  0  0  0  0  0  0  0  0  0  0
    5.6277    4.7861    8.4491 H   0  0  0  0  0  0  0  0  0  0  0  0
    7.1804    4.8001    7.1297 C   0  0  0  0  0  0  0  0  0  0  0  0
    7.1619    3.8673    6.9459 H   0  0  0  0  0  0  0  0  0  0  0  0
    8.1192    5.5966    6.5151 C   0  0  0  0  0  0  0  0  0  0  0  0
    8.7499    5.2175    5.9149 H   0  0  0  0  0  0  0  0  0  0  0  0
    8.1368    6.9590    6.7789 C   0  0  0  0  0  0  0  0  0  0  0  0
    8.7820    7.5104    6.3530 H   0  0  0  0  0  0  0  0  0  0  0  0
    7.2239    7.5269    7.6574 C   0  0  0  0  0  0  0  0  0  0  0  0
    7.2517    8.4592    7.8417 H   0  0  0  0  0  0  0  0  0  0  0  0
    6.8252    8.3482   10.6572 C   0  0  0  0  0  0  0  0  0  0  0  0
    7.3228    7.1286   11.1147 C   0  0  0  0  0  0  0  0  0  0  0  0
    6.8623    6.3239   10.9089 H   0  0  0  0  0  0  0  0  0  0  0  0
    8.4872    7.0829   11.8711 C   0  0  0  0  0  0  0  0  0  0  0  0
    8.8151    6.2482   12.1851 H   0  0  0  0  0  0  0  0  0  0  0  0
    9.1751    8.2529   12.1716 C   0  0  0  0  0  0  0  0  0  0  0  0
    9.9747    8.2193   12.6831 H   0  0  0  0  0  0  0  0  0  0  0  0
    8.6866    9.4610   11.7217 C   0  0  0  0  0  0  0  0  0  0  0  0
    9.1452   10.2630   11.9405 H   0  0  0  0  0  0  0  0  0  0  0  0
    7.5239    9.5182   10.9454 C   0  0  0  0  0  0  0  0  0  0  0  0
    7.2111   10.3537   10.6175 H   0  0  0  0  0  0  0  0  0  0  0  0
    0.9918    8.4797   10.5535 H   0  0  0  0  0  0  0  0  0  0  0  0
  1  2  1  0  0  0  0
  2 10  1  0  0  0  0
  3  1  1  0  0  0  0
  4 25  3  0  0  0  0
  5  6  1  0  0  0  0
  6 27  1  0  0  0  0
  7  1  1  0  0  0  0
  8  1  1  0  0  0  0
  9  8  1  0  0  0  0
 10 14  1  0  0  0  0
 11  2  1  0  0  0  0
 12 11  1  0  0  0  0
 13 11  1  0  0  0  0
 14 15  1  0  0  0  0
 16 14  1  0  0  0  0
 17 14  1  0  0  0  0
 18 10  1  0  0  0  0
 19 18  1  0  0  0  0
 20 18  1  0  0  0  0
 21 18  1  0  0  0  0
 22  7  1  0  0  0  0
 23 22  1  0  0  0  0
 24 22  1  0  0  0  0
 25  1  1  0  0  0  0
 26  5  1  0  0  0  0
 27  8  1  0  0  0  0
 28  7  1  0  0  0  0
 29 30  1  0  0  0  0
 31 29  1  0  0  0  0
 32 29  1  0  0  0  0
 33 10  1  0  0  0  0
 34 33  1  0  0  0  0
 35 33  1  0  0  0  0
 36 33  1  0  0  0  0
 37  2  1  0  0  0  0
 38 37  1  0  0  0  0
 39 38  1  0  0  0  0
 40 38  1  0  0  0  0
 41 38  1  0  0  0  0
 42 37  1  0  0  0  0
 43 42  1  0  0  0  0
 44 42  1  0  0  0  0
 45 42  1  0  0  0  0
 46 37  1  0  0  0  0
 47 46  1  0  0  0  0
 48 46  1  0  0  0  0
 49 46  1  0  0  0  0
 50 28  1  0  0  0  0
 51 50  1  0  0  0  0
 52 50  1  0  0  0  0
 53 50  1  0  0  0  0
 54 28  1  0  0  0  0
 55 54  1  0  0  0  0
 56 54  1  0  0  0  0
 57 54  1  0  0  0  0
 58 28  1  0  0  0  0
 59 58  1  0  0  0  0
 60 58  1  0  0  0  0
 61 58  1  0  0  0  0
 62  7  1  0  0  0  0
 63 62  1  0  0  0  0
 64 63  1  0  0  0  0
 65 63  1  0  0  0  0
 66 63  1  0  0  0  0
 67 62  1  0  0  0  0
 68 67  1  0  0  0  0
 69 67  1  0  0  0  0
 70 67  1  0  0  0  0
 71  5  1  0  0  0  0
 72 71  4  0  0  0  0
 73 72  1  0  0  0  0
 74 72  4  0  0  0  0
 75 74  1  0  0  0  0
 76 74  4  0  0  0  0
 77 76  1  0  0  0  0
 78 76  4  0  0  0  0
 79 78  1  0  0  0  0
 80 71  4  0  0  0  0
 81 80  1  0  0  0  0
 82  6  1  0  0  0  0
 83 82  4  0  0  0  0
 84 83  1  0  0  0  0
 85 83  4  0  0  0  0
 86 85  1  0  0  0  0
 87 85  4  0  0  0  0
 88 87  1  0  0  0  0
 89 87  4  0  0  0  0
 90 89  1  0  0  0  0
 91 82  4  0  0  0  0
 92 91  1  0  0  0  0
 93  1  1  0  0  0  0
  8 26  1  0  0  0  0
 11 26  1  0  0  0  0
 22 27  1  0  0  0  0
 29 62  1  0  0  0  0
 78 80  4  0  0  0  0
 89 91  4  0  0  0  0
M  END
$$$$
PAWHEE

From CSD data. Using bond type 'Any'. No disordered atoms. Largest molecule.
 91 95  0  0  0  0  0  0  0  0999 V2000
    1.7540    7.8020   10.8613 Ir  0  0  0  0  0  0  0  0  0  0  0  0
    2.8520    8.6476    9.1755 C   0  0  0  0  0  0  0  0  0  0  0  0
    2.3354    9.2774    8.5956 H   0  0  0  0  0  0  0  0  0  0  0  0
    3.3828    7.4047    8.4843 B   0  0  0  0  0  0  0  0  0  0  0  0
    4.8008    7.2893    8.7052 N   0  0  0  0  0  0  0  0  0  0  0  0
    5.2338    8.4366    9.4860 N   0  0  0  0  0  0  0  0  0  0  0  0
    4.0836    9.2299    9.8401 B   0  0  0  0  0  0  0  0  0  0  0  0
    0.6347    7.2318   12.1941 C   0  0  0  0  0  0  0  0  0  0  0  0
   -0.1432    6.9304   13.0080 O   0  0  0  0  0  0  0  0  0  0  0  0
    1.3134    6.0448    9.3718 P   0  0  0  0  0  0  0  0  0  0  0  0
    2.6132    9.6439   12.0201 P   0  0  0  0  0  0  0  0  0  0  0  0
    2.3792    6.3268    7.8856 C   0  0  0  0  0  0  0  0  0  0  0  0
    2.8489    5.5011    7.6062 H   0  0  0  0  0  0  0  0  0  0  0  0
    1.8615    6.6881    7.1232 H   0  0  0  0  0  0  0  0  0  0  0  0
    3.9921   10.3182   10.9877 C   0  0  0  0  0  0  0  0  0  0  0  0
    3.7687   11.2113   10.6236 H   0  0  0  0  0  0  0  0  0  0  0  0
    4.8356   10.3756   11.5022 H   0  0  0  0  0  0  0  0  0  0  0  0
   -0.4366    5.9980    8.6777 C   0  0  0  0  0  0  0  0  0  0  0  0
   -0.7479    7.4626    8.3317 C   0  0  0  0  0  0  0  0  0  0  0  0
   -0.1078    7.7829    7.6617 H   0  0  0  0  0  0  0  0  0  0  0  0
   -0.6761    8.0115    9.1402 H   0  0  0  0  0  0  0  0  0  0  0  0
   -1.6567    7.5270    7.9720 H   0  0  0  0  0  0  0  0  0  0  0  0
   -1.4484    5.5322    9.7193 C   0  0  0  0  0  0  0  0  0  0  0  0
   -2.3561    5.6972    9.3896 H   0  0  0  0  0  0  0  0  0  0  0  0
   -1.3090    6.0267   10.5541 H   0  0  0  0  0  0  0  0  0  0  0  0
   -1.3297    4.5734    9.8843 H   0  0  0  0  0  0  0  0  0  0  0  0
   -0.5758    5.1454    7.4136 C   0  0  0  0  0  0  0  0  0  0  0  0
   -0.4152    4.2043    7.6355 H   0  0  0  0  0  0  0  0  0  0  0  0
    0.0795    5.4401    6.7472 H   0  0  0  0  0  0  0  0  0  0  0  0
   -1.4799    5.2458    7.0502 H   0  0  0  0  0  0  0  0  0  0  0  0
    1.8817    4.3790   10.0399 C   0  0  0  0  0  0  0  0  0  0  0  0
    1.0807    3.9969   11.2935 C   0  0  0  0  0  0  0  0  0  0  0  0
    0.1576    3.7860   11.0404 H   0  0  0  0  0  0  0  0  0  0  0  0
    1.0826    4.7475   11.9242 H   0  0  0  0  0  0  0  0  0  0  0  0
    1.4901    3.2138   11.7172 H   0  0  0  0  0  0  0  0  0  0  0  0
    1.7913    3.2384    9.0330 C   0  0  0  0  0  0  0  0  0  0  0  0
    2.1814    2.4279    9.4225 H   0  0  0  0  0  0  0  0  0  0  0  0
    2.2837    3.4801    8.2210 H   0  0  0  0  0  0  0  0  0  0  0  0
    0.8518    3.0739    8.8092 H   0  0  0  0  0  0  0  0  0  0  0  0
    3.3346    4.5726   10.4956 C   0  0  0  0  0  0  0  0  0  0  0  0
    3.6710    3.7356   10.8786 H   0  0  0  0  0  0  0  0  0  0  0  0
    3.3732    5.2803   11.1723 H   0  0  0  0  0  0  0  0  0  0  0  0
    3.8871    4.8254    9.7267 H   0  0  0  0  0  0  0  0  0  0  0  0
    1.3772   11.0552   12.1812 C   0  0  0  0  0  0  0  0  0  0  0  0
    2.0072   12.4158   12.4870 C   0  0  0  0  0  0  0  0  0  0  0  0
    2.6530   12.6416   11.7852 H   0  0  0  0  0  0  0  0  0  0  0  0
    2.4652   12.3766   13.3522 H   0  0  0  0  0  0  0  0  0  0  0  0
    1.3067   13.1006   12.5186 H   0  0  0  0  0  0  0  0  0  0  0  0
    0.3327   10.7388   13.2591 C   0  0  0  0  0  0  0  0  0  0  0  0
   -0.4028   11.3838   13.2006 H   0  0  0  0  0  0  0  0  0  0  0  0
    0.7491   10.7974   14.1442 H   0  0  0  0  0  0  0  0  0  0  0  0
   -0.0152    9.8331   13.1209 H   0  0  0  0  0  0  0  0  0  0  0  0
    0.6800   11.1474   10.8315 C   0  0  0  0  0  0  0  0  0  0  0  0
    0.2510   10.2905   10.6265 H   0  0  0  0  0  0  0  0  0  0  0  0
    1.3390   11.3574   10.1376 H   0  0  0  0  0  0  0  0  0  0  0  0
    0.0011   11.8535   10.8623 H   0  0  0  0  0  0  0  0  0  0  0  0
    3.4404    9.2374   13.6607 C   0  0  0  0  0  0  0  0  0  0  0  0
    4.0115   10.4636   14.3697 C   0  0  0  0  0  0  0  0  0  0  0  0
    3.2768   11.0202   14.7031 H   0  0  0  0  0  0  0  0  0  0  0  0
    4.5545   10.9818   13.7403 H   0  0  0  0  0  0  0  0  0  0  0  0
    4.5695   10.1752   15.1224 H   0  0  0  0  0  0  0  0  0  0  0  0
    2.4888    8.5125   14.5999 C   0  0  0  0  0  0  0  0  0  0  0  0
    2.9551    8.2958   15.4341 H   0  0  0  0  0  0  0  0  0  0  0  0
    2.1773    7.6860   14.1754 H   0  0  0  0  0  0  0  0  0  0  0  0
    1.7205    9.0888   14.7954 H   0  0  0  0  0  0  0  0  0  0  0  0
    4.5990    8.2788   13.3358 C   0  0  0  0  0  0  0  0  0  0  0  0
    5.2917    8.7608   12.8370 H   0  0  0  0  0  0  0  0  0  0  0  0
    4.2646    7.5344   12.7924 H   0  0  0  0  0  0  0  0  0  0  0  0
    4.9788    7.9303   14.1687 H   0  0  0  0  0  0  0  0  0  0  0  0
    5.7785    6.6644    7.8955 C   0  0  0  0  0  0  0  0  0  0  0  0
    5.6121    5.3295    7.5018 C   0  0  0  0  0  0  0  0  0  0  0  0
    4.8359    4.8524    7.7706 H   0  0  0  0  0  0  0  0  0  0  0  0
    6.5625    4.7041    6.7301 C   0  0  0  0  0  0  0  0  0  0  0  0
    6.4325    3.7995    6.4707 H   0  0  0  0  0  0  0  0  0  0  0  0
    7.6960    5.3637    6.3284 C   0  0  0  0  0  0  0  0  0  0  0  0
    8.3560    4.9165    5.8113 H   0  0  0  0  0  0  0  0  0  0  0  0
    7.8654    6.6906    6.6870 C   0  0  0  0  0  0  0  0  0  0  0  0
    8.6379    7.1609    6.3952 H   0  0  0  0  0  0  0  0  0  0  0  0
    6.9176    7.3436    7.4705 C   0  0  0  0  0  0  0  0  0  0  0  0
    7.0473    8.2523    7.7149 H   0  0  0  0  0  0  0  0  0  0  0  0
    6.3940    8.2465   10.2799 C   0  0  0  0  0  0  0  0  0  0  0  0
    6.7334    7.0016   10.8047 C   0  0  0  0  0  0  0  0  0  0  0  0
    6.1981    6.2408   10.6131 H   0  0  0  0  0  0  0  0  0  0  0  0
    7.8595    6.8771   11.6097 C   0  0  0  0  0  0  0  0  0  0  0  0
    8.0844    6.0274   11.9705 H   0  0  0  0  0  0  0  0  0  0  0  0
    8.6567    7.9659   11.8940 C   0  0  0  0  0  0  0  0  0  0  0  0
    9.4205    7.8700   12.4507 H   0  0  0  0  0  0  0  0  0  0  0  0
    8.3301    9.2035   11.3582 C   0  0  0  0  0  0  0  0  0  0  0  0
    8.8738    9.9593   11.5483 H   0  0  0  0  0  0  0  0  0  0  0  0
    7.2142    9.3430   10.5430 C   0  0  0  0  0  0  0  0  0  0  0  0
    7.0078   10.1894   10.1637 H   0  0  0  0  0  0  0  0  0  0  0  0
  1  2  1  0  0  0  0
  2  3  1  0  0  0  0
  4  2  1  0  0  0  0
  5  4  1  0  0  0  0
  6  5  1  0  0  0  0
  7  2  1  0  0  0  0
  8  1  1  0  0  0  0
  9  8  3  0  0  0  0
 10  1  1  0  0  0  0
 11  1  1  0  0  0  0
 12  4  1  0  0  0  0
 13 12  1  0  0  0  0
 14 12  1  0  0  0  0
 15  7  1  0  0  0  0
 16 15  1  0  0  0  0
 17 15  1  0  0  0  0
 18 10  1  0  0  0  0
 19 18  1  0  0  0  0
 20 19  1  0  0  0  0
 21 19  1  0  0  0  0
 22 19  1  0  0  0  0
 23 18  1  0  0  0  0
 24 23  1  0  0  0  0
 25 23  1  0  0  0  0
 26 23  1  0  0  0  0
 27 18  1  0  0  0  0
 28 27  1  0  0  0  0
 29 27  1  0  0  0  0
 30 27  1  0  0  0  0
 31 10  1  0  0  0  0
 32 31  1  0  0  0  0
 33 32  1  0  0  0  0
 34 32  1  0  0  0  0
 35 32  1  0  0  0  0
 36 31  1  0  0  0  0
 37 36  1  0  0  0  0
 38 36  1  0  0  0  0
 39 36  1  0  0  0  0
 40 31  1  0  0  0  0
 41 40  1  0  0  0  0
 42 40  1  0  0  0  0
 43 40  1  0  0  0  0
 44 11  1  0  0  0  0
 45 44  1  0  0  0  0
 46 45  1  0  0  0  0
 47 45  1  0  0  0  0
 48 45  1  0  0  0  0
 49 44  1  0  0  0  0
 50 49  1  0  0  0  0
 51 49  1  0  0  0  0
 52 49  1  0  0  0  0
 53 44  1  0  0  0  0
 54 53  1  0  0  0  0
 55 53  1  0  0  0  0
 56 53  1  0  0  0  0
 57 11  1  0  0  0  0
 58 57  1  0  0  0  0
 59 58  1  0  0  0  0
 60 58  1  0  0  0  0
 61 58  1  0  0  0  0
 62 57  1  0  0  0  0
 63 62  1  0  0  0  0
 64 62  1  0  0  0  0
 65 62  1  0  0  0  0
 66 57  1  0  0  0  0
 67 66  1  0  0  0  0
 68 66  1  0  0  0  0
 69 66  1  0  0  0  0
 70  5  1  0  0  0  0
 71 70  4  0  0  0  0
 72 71  1  0  0  0  0
 73 71  4  0  0  0  0
 74 73  1  0  0  0  0
 75 73  4  0  0  0  0
 76 75  1  0  0  0  0
 77 75  4  0  0  0  0
 78 77  1  0  0  0  0
 79 70  4  0  0  0  0
 80 79  1  0  0  0  0
 81  6  1  0  0  0  0
 82 81  4  0  0  0  0
 83 82  1  0  0  0  0
 84 82  4  0  0  0  0
 85 84  1  0  0  0  0
 86 84  4  0  0  0  0
 87 86  1  0  0  0  0
 88 86  4  0  0  0  0
 89 88  1  0  0  0  0
 90 81  4  0  0  0  0
 91 90  1  0  0  0  0
  6  7  1  0  0  0  0
 10 12  1  0  0  0  0
 11 15  1  0  0  0  0
 77 79  4  0  0  0  0
 88 90  4  0  0  0  0
M  END
$$$$
PAYGAX

From CSD data. Using bond type 'Any'. No disordered atoms. Largest molecule.
 53 73  0  0  0  0  0  0  0  0999 V2000
   -1.6898   11.8819    5.5262 Ru  0  0  0  0  0  0  0  0  0  0  0  0
    0.0589   12.8780    4.1800 Cl  0  0  0  0  0  0  0  0  0  0  0  0
   -1.1861   13.3823    7.2288 P   0  0  0  0  0  0  0  0  0  0  0  0
   -1.6120    8.7661    2.8725 P   0  0  0  0  0  0  0  0  0  0  0  0
   -4.1882   13.5227    3.4923 O   0  0  0  0  0  0  0  0  0  0  0  0
   -1.4761    8.8494    6.5218 O   0  0  0  0  0  0  0  0  0  0  0  0
   -2.6117   11.5199    3.6105 C   0  0  0  0  0  0  0  0  0  0  0  0
   -3.7555   12.4257    4.2245 B   0  0  0  0  0  0  0  0  0  0  0  0
   -5.2281   14.3485    3.9882 C   0  0  0  0  0  0  0  0  0  0  0  0
   -4.0275   10.6538    3.7403 B   0  0  0  0  0  0  0  0  0  0  0  0
   -2.4151   10.0312    4.1180 B   0  0  0  0  0  0  0  0  0  0  0  0
   -3.6500   12.4247    6.0240 B   0  0  0  0  0  0  0  0  0  0  0  0
   -4.7044   11.2513    5.2724 B   0  0  0  0  0  0  0  0  0  0  0  0
   -3.8247    9.6701    5.1853 B   0  0  0  0  0  0  0  0  0  0  0  0
   -2.1592    9.8884    5.9097 B   0  0  0  0  0  0  0  0  0  0  0  0
   -1.8531    8.3503    7.7711 C   0  0  0  0  0  0  0  0  0  0  0  0
   -3.5144   10.8057    6.5353 B   0  0  0  0  0  0  0  0  0  0  0  0
   -2.0223   14.9950    7.0409 C   0  0  0  0  0  0  0  0  0  0  0  0
   -2.5891   15.7026    8.0907 C   0  0  0  0  0  0  0  0  0  0  0  0
   -3.2166   16.9187    7.8757 C   0  0  0  0  0  0  0  0  0  0  0  0
   -3.2633   17.4409    6.6225 C   0  0  0  0  0  0  0  0  0  0  0  0
   -2.7350   16.7548    5.5746 C   0  0  0  0  0  0  0  0  0  0  0  0
   -2.0961   15.5224    5.7683 C   0  0  0  0  0  0  0  0  0  0  0  0
   -1.6028   12.7706    8.9023 C   0  0  0  0  0  0  0  0  0  0  0  0
   -0.6240   12.2165    9.6926 C   0  0  0  0  0  0  0  0  0  0  0  0
   -0.9476   11.6945   10.9555 C   0  0  0  0  0  0  0  0  0  0  0  0
   -2.2150   11.7184   11.4068 C   0  0  0  0  0  0  0  0  0  0  0  0
   -3.1923   12.2510   10.6378 C   0  0  0  0  0  0  0  0  0  0  0  0
   -2.9055   12.7753    9.3749 C   0  0  0  0  0  0  0  0  0  0  0  0
    0.5714   13.8795    7.4225 C   0  0  0  0  0  0  0  0  0  0  0  0
    1.6061   12.9958    7.2288 C   0  0  0  0  0  0  0  0  0  0  0  0
    2.9107   13.3396    7.5019 C   0  0  0  0  0  0  0  0  0  0  0  0
    3.2184   14.5894    7.9493 C   0  0  0  0  0  0  0  0  0  0  0  0
    2.2118   15.5012    8.1353 C   0  0  0  0  0  0  0  0  0  0  0  0
    0.8936   15.1548    7.8776 C   0  0  0  0  0  0  0  0  0  0  0  0
   -2.4484    7.1589    2.9423 C   0  0  0  0  0  0  0  0  0  0  0  0
   -2.6346    6.5709    4.1916 C   0  0  0  0  0  0  0  0  0  0  0  0
   -3.2749    5.3360    4.2788 C   0  0  0  0  0  0  0  0  0  0  0  0
   -3.7080    4.6926    3.1514 C   0  0  0  0  0  0  0  0  0  0  0  0
   -3.5010    5.2429    1.9273 C   0  0  0  0  0  0  0  0  0  0  0  0
   -2.8735    6.4803    1.8130 C   0  0  0  0  0  0  0  0  0  0  0  0
   -1.7286    9.3620    1.1622 C   0  0  0  0  0  0  0  0  0  0  0  0
   -2.9654    9.5218    0.5520 C   0  0  0  0  0  0  0  0  0  0  0  0
   -3.0470    9.9753   -0.7593 C   0  0  0  0  0  0  0  0  0  0  0  0
   -1.8971   10.2746   -1.4585 C   0  0  0  0  0  0  0  0  0  0  0  0
   -0.6743   10.1267   -0.8658 C   0  0  0  0  0  0  0  0  0  0  0  0
   -0.5844    9.6817    0.4513 C   0  0  0  0  0  0  0  0  0  0  0  0
    0.1434    8.4620    3.1495 C   0  0  0  0  0  0  0  0  0  0  0  0
    0.7534    7.3678    2.5258 C   0  0  0  0  0  0  0  0  0  0  0  0
    2.1151    7.2092    2.5762 C   0  0  0  0  0  0  0  0  0  0  0  0
    2.8892    8.1089    3.2677 C   0  0  0  0  0  0  0  0  0  0  0  0
    2.2902    9.1813    3.9049 C   0  0  0  0  0  0  0  0  0  0  0  0
    0.9294    9.3615    3.8429 C   0  0  0  0  0  0  0  0  0  0  0  0
  1  2  1  0  0  0  0
  3  1  1  0  0  0  0
  4 11  1  0  0  0  0
  5  8  1  0  0  0  0
  6 15  1  0  0  0  0
  7  1  1  0  0  0  0
  8  1  1  0  0  0  0
  9  5  1  0  0  0  0
 10  7  1  0  0  0  0
 11  1  1  0  0  0  0
 12  1  1  0  0  0  0
 13  8  1  0  0  0  0
 14 10  1  0  0  0  0
 15  1  1  0  0  0  0
 16  6  1  0  0  0  0
 17  1  1  0  0  0  0
 18  3  1  0  0  0  0
 19 18  4  0  0  0  0
 20 19  4  0  0  0  0
 21 20  4  0  0  0  0
 22 21  4  0  0  0  0
 23 18  4  0  0  0  0
 24  3  1  0  0  0  0
 25 24  4  0  0  0  0
 26 25  4  0  0  0  0
 27 26  4  0  0  0  0
 28 27  4  0  0  0  0
 29 24  4  0  0  0  0
 30  3  1  0  0  0  0
 31 30  4  0  0  0  0
 32 31  4  0  0  0  0
 33 32  4  0  0  0  0
 34 33  4  0  0  0  0
 35 30  4  0  0  0  0
 36  4  1  0  0  0  0
 37 36  4  0  0  0  0
 38 37  4  0  0  0  0
 39 38  4  0  0  0  0
 40 39  4  0  0  0  0
 41 36  4  0  0  0  0
 42  4  1  0  0  0  0
 43 42  4  0  0  0  0
 44 43  4  0  0  0  0
 45 44  4  0  0  0  0
 46 45  4  0  0  0  0
 47 42  4  0  0  0  0
 48  4  1  0  0  0  0
 49 48  4  0  0  0  0
 50 49  4  0  0  0  0
 51 50  4  0  0  0  0
 52 51  4  0  0  0  0
 53 48  4  0  0  0  0
  7  8  1  0  0  0  0
  7 11  1  0  0  0  0
  8 10  1  0  0  0  0
  8 12  1  0  0  0  0
 10 11  1  0  0  0  0
 10 13  1  0  0  0  0
 11 14  1  0  0  0  0
 11 15  1  0  0  0  0
 12 13  1  0  0  0  0
 12 17  1  0  0  0  0
 13 14  1  0  0  0  0
 13 17  1  0  0  0  0
 14 15  1  0  0  0  0
 14 17  1  0  0  0  0
 15 17  1  0  0  0  0
 22 23  4  0  0  0  0
 28 29  4  0  0  0  0
 34 35  4  0  0  0  0
 40 41  4  0  0  0  0
 46 47  4  0  0  0  0
 52 53  4  0  0  0  0
M  END
$$$$
PEBDIJ

From CSD data. Using bond type 'Any'. No disordered atoms. Largest molecule.
 82 99  0  0  0  0  0  0  0  0999 V2000
    0.9509    4.1554    2.9225 W   0  0  0  0  0  0  0  0  0  0  0  0
    1.9063    3.4945   -0.5671 B   0  0  0  0  0  0  0  0  0  0  0  0
    0.7037    3.1803    0.6471 B   0  0  0  0  0  0  0  0  0  0  0  0
    0.2812    4.3424   -0.7318 B   0  0  0  0  0  0  0  0  0  0  0  0
    1.8189    5.0980   -1.3930 B   0  0  0  0  0  0  0  0  0  0  0  0
    2.4549    3.4503    1.0918 B   0  0  0  0  0  0  0  0  0  0  0  0
   -0.2200    4.9089    0.8800 B   0  0  0  0  0  0  0  0  0  0  0  0
    0.5683    6.1042   -0.4894 B   0  0  0  0  0  0  0  0  0  0  0  0
    2.2910    6.3228   -0.3459 B   0  0  0  0  0  0  0  0  0  0  0  0
    3.1803    4.8011   -0.2330 B   0  0  0  0  0  0  0  0  0  0  0  0
    2.1506    3.1011    4.1602 C   0  0  0  0  0  0  0  0  0  0  0  0
    2.8794    2.4973    4.8261 O   0  0  0  0  0  0  0  0  0  0  0  0
   -0.4772    4.9296    3.9061 C   0  0  0  0  0  0  0  0  0  0  0  0
   -1.5026    5.3586    4.4073 O   0  0  0  0  0  0  0  0  0  0  0  0
    1.9763    6.0475    4.1955 P   0  0  0  0  0  0  0  0  0  0  0  0
    2.6654    5.6769    5.8780 C   0  0  0  0  0  0  0  0  0  0  0  0
    4.0012    5.8316    6.2639 C   0  0  0  0  0  0  0  0  0  0  0  0
    4.3391    5.5403    7.5722 C   0  0  0  0  0  0  0  0  0  0  0  0
    3.4889    5.0070    8.4687 C   0  0  0  0  0  0  0  0  0  0  0  0
    2.1751    4.8854    8.0781 C   0  0  0  0  0  0  0  0  0  0  0  0
    1.7411    5.2205    6.7980 C   0  0  0  0  0  0  0  0  0  0  0  0
    0.9251    7.5354    4.4638 C   0  0  0  0  0  0  0  0  0  0  0  0
    0.0654    7.9934    3.4896 C   0  0  0  0  0  0  0  0  0  0  0  0
   -0.7233    9.1790    3.6308 C   0  0  0  0  0  0  0  0  0  0  0  0
   -0.5802    9.8891    4.7650 C   0  0  0  0  0  0  0  0  0  0  0  0
    0.2483    9.4014    5.7697 C   0  0  0  0  0  0  0  0  0  0  0  0
    1.0454    8.2875    5.6615 C   0  0  0  0  0  0  0  0  0  0  0  0
    3.3934    6.7046    3.2472 C   0  0  0  0  0  0  0  0  0  0  0  0
    3.3813    8.0475    2.8401 C   0  0  0  0  0  0  0  0  0  0  0  0
    4.5068    8.5047    2.1883 C   0  0  0  0  0  0  0  0  0  0  0  0
    5.5741    7.6452    1.9201 C   0  0  0  0  0  0  0  0  0  0  0  0
    5.6487    6.3250    2.3248 C   0  0  0  0  0  0  0  0  0  0  0  0
    4.4381    5.8399    3.0049 C   0  0  0  0  0  0  0  0  0  0  0  0
   -0.4100    2.1671    3.4755 P   0  0  0  0  0  0  0  0  0  0  0  0
   -1.7897    1.8268    2.2660 C   0  0  0  0  0  0  0  0  0  0  0  0
   -2.6983    2.8648    2.0425 C   0  0  0  0  0  0  0  0  0  0  0  0
   -3.7340    2.6423    1.1342 C   0  0  0  0  0  0  0  0  0  0  0  0
   -3.7551    1.4552    0.4471 C   0  0  0  0  0  0  0  0  0  0  0  0
   -2.8957    0.4661    0.6471 C   0  0  0  0  0  0  0  0  0  0  0  0
   -1.8389    0.6537    1.5860 C   0  0  0  0  0  0  0  0  0  0  0  0
    0.4142    0.5444    3.6684 C   0  0  0  0  0  0  0  0  0  0  0  0
    1.4382    0.1981    2.7860 C   0  0  0  0  0  0  0  0  0  0  0  0
    2.0535   -1.0882    2.8496 C   0  0  0  0  0  0  0  0  0  0  0  0
    1.5973   -2.0247    3.7367 C   0  0  0  0  0  0  0  0  0  0  0  0
    0.5165   -1.6278    4.6049 C   0  0  0  0  0  0  0  0  0  0  0  0
   -0.0050   -0.4186    4.4873 C   0  0  0  0  0  0  0  0  0  0  0  0
   -1.2900    2.3443    5.0497 C   0  0  0  0  0  0  0  0  0  0  0  0
   -2.6309    2.2453    5.2356 C   0  0  0  0  0  0  0  0  0  0  0  0
   -3.1798    2.5438    6.4780 C   0  0  0  0  0  0  0  0  0  0  0  0
   -2.3993    2.7353    7.5463 C   0  0  0  0  0  0  0  0  0  0  0  0
   -1.0552    2.8137    7.4945 C   0  0  0  0  0  0  0  0  0  0  0  0
   -0.5021    2.5221    6.2003 C   0  0  0  0  0  0  0  0  0  0  0  0
    4.7507    6.1560    5.5579 H   0  0  0  0  0  0  0  0  0  0  0  0
    5.3444    5.7664    7.8945 H   0  0  0  0  0  0  0  0  0  0  0  0
    3.8268    4.6885    9.4428 H   0  0  0  0  0  0  0  0  0  0  0  0
    1.4517    4.5244    8.7934 H   0  0  0  0  0  0  0  0  0  0  0  0
    0.7008    5.1185    6.5274 H   0  0  0  0  0  0  0  0  0  0  0  0
   -0.0207    7.4288    2.5719 H   0  0  0  0  0  0  0  0  0  0  0  0
   -1.4068    9.4945    2.8566 H   0  0  0  0  0  0  0  0  0  0  0  0
   -1.0940   10.8302    4.8850 H   0  0  0  0  0  0  0  0  0  0  0  0
    0.2534    9.9329    6.7109 H   0  0  0  0  0  0  0  0  0  0  0  0
    1.7313    8.0070    6.4474 H   0  0  0  0  0  0  0  0  0  0  0  0
    2.5382    8.6938    3.0307 H   0  0  0  0  0  0  0  0  0  0  0  0
    4.5595    9.5389    1.8777 H   0  0  0  0  0  0  0  0  0  0  0  0
    6.4069    8.0433    1.3601 H   0  0  0  0  0  0  0  0  0  0  0  0
    6.5137    5.7014    2.1554 H   0  0  0  0  0  0  0  0  0  0  0  0
    4.3692    4.8075    3.3202 H   0  0  0  0  0  0  0  0  0  0  0  0
   -2.5976    3.8105    2.5554 H   0  0  0  0  0  0  0  0  0  0  0  0
   -4.4982    3.3871    0.9718 H   0  0  0  0  0  0  0  0  0  0  0  0
   -4.5212    1.3170   -0.3012 H   0  0  0  0  0  0  0  0  0  0  0  0
   -2.9967   -0.4640    0.1106 H   0  0  0  0  0  0  0  0  0  0  0  0
   -1.0929   -0.1103    1.7460 H   0  0  0  0  0  0  0  0  0  0  0  0
    1.7736    0.9134    2.0495 H   0  0  0  0  0  0  0  0  0  0  0  0
    2.8804   -1.3204    2.1978 H   0  0  0  0  0  0  0  0  0  0  0  0
    2.0261   -3.0160    3.7790 H   0  0  0  0  0  0  0  0  0  0  0  0
    0.1359   -2.3134    5.3485 H   0  0  0  0  0  0  0  0  0  0  0  0
   -0.8530   -0.1864    5.1156 H   0  0  0  0  0  0  0  0  0  0  0  0
   -3.2702    1.9428    4.4191 H   0  0  0  0  0  0  0  0  0  0  0  0
   -4.2522    2.6139    6.5839 H   0  0  0  0  0  0  0  0  0  0  0  0
   -2.8719    2.8358    8.5134 H   0  0  0  0  0  0  0  0  0  0  0  0
   -0.4489    3.0744    8.3487 H   0  0  0  0  0  0  0  0  0  0  0  0
    0.5698    2.4363    6.1038 H   0  0  0  0  0  0  0  0  0  0  0  0
  1  3  1  0  0  0  0
  2  3  1  0  0  0  0
  3  4  1  0  0  0  0
  4  2  1  0  0  0  0
  5  2  1  0  0  0  0
  6  1  1  0  0  0  0
  7  1  1  0  0  0  0
  8  4  1  0  0  0  0
  9  5  1  0  0  0  0
 10  2  1  0  0  0  0
 11  1  1  0  0  0  0
 12 11  3  0  0  0  0
 13  1  1  0  0  0  0
 14 13  3  0  0  0  0
 15  1  1  0  0  0  0
 16 15  1  0  0  0  0
 17 16  4  0  0  0  0
 18 17  4  0  0  0  0
 19 18  4  0  0  0  0
 20 19  4  0  0  0  0
 21 16  4  0  0  0  0
 22 15  1  0  0  0  0
 23 22  4  0  0  0  0
 24 23  4  0  0  0  0
 25 24  4  0  0  0  0
 26 25  4  0  0  0  0
 27 22  4  0  0  0  0
 28 15  1  0  0  0  0
 29 28  4  0  0  0  0
 30 29  4  0  0  0  0
 31 30  4  0  0  0  0
 32 31  4  0  0  0  0
 33 28  4  0  0  0  0
 34  1  1  0  0  0  0
 35 34  1  0  0  0  0
 36 35  4  0  0  0  0
 37 36  4  0  0  0  0
 38 37  4  0  0  0  0
 39 38  4  0  0  0  0
 40 35  4  0  0  0  0
 41 34  1  0  0  0  0
 42 41  4  0  0  0  0
 43 42  4  0  0  0  0
 44 43  4  0  0  0  0
 45 44  4  0  0  0  0
 46 41  4  0  0  0  0
 47 34  1  0  0  0  0
 48 47  4  0  0  0  0
 49 48  4  0  0  0  0
 50 49  4  0  0  0  0
 51 50  4  0  0  0  0
 52 47  4  0  0  0  0
 53 17  1  0  0  0  0
 54 18  1  0  0  0  0
 55 19  1  0  0  0  0
 56 20  1  0  0  0  0
 57 21  1  0  0  0  0
 58 23  1  0  0  0  0
 59 24  1  0  0  0  0
 60 25  1  0  0  0  0
 61 26  1  0  0  0  0
 62 27  1  0  0  0  0
 63 29  1  0  0  0  0
 64 30  1  0  0  0  0
 65 31  1  0  0  0  0
 66 32  1  0  0  0  0
 67 33  1  0  0  0  0
 68 36  1  0  0  0  0
 69 37  1  0  0  0  0
 70 38  1  0  0  0  0
 71 39  1  0  0  0  0
 72 40  1  0  0  0  0
 73 42  1  0  0  0  0
 74 43  1  0  0  0  0
 75 44  1  0  0  0  0
 76 45  1  0  0  0  0
 77 46  1  0  0  0  0
 78 48  1  0  0  0  0
 79 49  1  0  0  0  0
 80 50  1  0  0  0  0
 81 51  1  0  0  0  0
 82 52  1  0  0  0  0
  2  6  1  0  0  0  0
  3  6  1  0  0  0  0
  3  7  1  0  0  0  0
  4  5  1  0  0  0  0
  4  7  1  0  0  0  0
  5  8  1  0  0  0  0
  5 10  1  0  0  0  0
  6 10  1  0  0  0  0
  7  8  1  0  0  0  0
  8  9  1  0  0  0  0
  9 10  1  0  0  0  0
 20 21  4  0  0  0  0
 26 27  4  0  0  0  0
 32 33  4  0  0  0  0
 39 40  4  0  0  0  0
 45 46  4  0  0  0  0
 51 52  4  0  0  0  0
M  END
$$$$
PEDHUF

From CSD data. Using bond type 'Any'. Matching problem. No disordered atoms. Largest molecule.
180200  0  0  0  0  0  0  0  0999 V2000
   18.1588   24.9740    6.5914 Fe  0  3  0  0  0  0  0  0  0  0  0  0
   16.1588   20.3061    6.3966 Fe  0  0  0  0  0  0  0  0  0  0  0  0
   20.5647   25.7629    4.3914 P   0  0  0  0  0  0  0  0  0  0  0  0
   15.3400   18.5298    5.9976 N   0  0  0  0  0  0  0  0  0  0  0  0
   13.3606   21.5451    6.5969 N   0  0  0  0  0  0  0  0  0  0  0  0
   15.9098   17.4207    6.6125 N   0  0  0  0  0  0  0  0  0  0  0  0
   18.0317   24.8380    4.4904 N   0  0  0  0  0  0  0  0  0  0  0  0
   17.3640   23.1096    6.6933 N   0  0  0  0  0  0  0  0  0  0  0  0
   16.1829   19.8854    8.3282 N   0  0  0  0  0  0  0  0  0  0  0  0
   19.0853   26.8701    6.3012 N   0  0  0  0  0  0  0  0  0  0  0  0
   20.1002   27.0691    5.3736 C   0  0  0  0  0  0  0  0  0  0  0  0
   20.6582   28.3332    5.2134 C   0  0  0  0  0  0  0  0  0  0  0  0
   21.3371   28.4651    4.5928 H   0  0  0  0  0  0  0  0  0  0  0  0
   20.2011   29.3960    5.9820 C   0  0  0  0  0  0  0  0  0  0  0  0
   20.5735   30.2410    5.8753 H   0  0  0  0  0  0  0  0  0  0  0  0
   19.1832   29.1970    6.9095 C   0  0  0  0  0  0  0  0  0  0  0  0
   18.8783   29.9091    7.4240 H   0  0  0  0  0  0  0  0  0  0  0  0
   18.6253   27.9343    7.0698 C   0  0  0  0  0  0  0  0  0  0  0  0
   17.9467   27.8012    7.6902 H   0  0  0  0  0  0  0  0  0  0  0  0
   20.1032   24.1297    6.4796 N   0  0  0  0  0  0  0  0  0  0  0  0
   17.9902   19.4964    6.2334 N   0  0  0  0  0  0  0  0  0  0  0  0
   16.5598   18.6061    8.6773 N   0  0  0  0  0  0  0  0  0  0  0  0
   21.6078   26.1159    3.4365 O   0  0  0  0  0  0  0  0  0  0  0  0
   18.2068   18.3337    6.8770 N   0  0  0  0  0  0  0  0  0  0  0  0
   14.4141   21.1040    6.5226 C   0  0  0  0  0  0  0  0  0  0  0  0
   14.3548   18.0613    5.1939 C   0  0  0  0  0  0  0  0  0  0  0  0
   19.3286   21.0130    4.7431 C   0  0  0  0  0  0  0  0  0  0  0  0
   19.0337   20.7758    3.8602 H   0  0  0  0  0  0  0  0  0  0  0  0
   20.2551   21.2621    4.7141 H   0  0  0  0  0  0  0  0  0  0  0  0
   18.8081   21.7520    5.0658 H   0  0  0  0  0  0  0  0  0  0  0  0
   16.1116   20.7430    4.5243 C   0  0  0  0  0  0  0  0  0  0  0  0
   19.1624   19.8901    5.6212 C   0  0  0  0  0  0  0  0  0  0  0  0
   18.2751   24.9408    9.7364 C   0  0  0  0  0  0  0  0  0  0  0  0
   15.2985   16.3177    6.2087 C   0  0  0  0  0  0  0  0  0  0  0  0
   18.2959   25.0683    8.6187 N   0  0  0  0  0  0  0  0  0  0  0  0
   20.1121   18.8762    5.9807 C   0  0  0  0  0  0  0  0  0  0  0  0
   21.0070   18.8693    5.7218 H   0  0  0  0  0  0  0  0  0  0  0  0
   15.4677   21.9606    9.4980 C   0  0  0  0  0  0  0  0  0  0  0  0
   16.1330   22.5209    9.0893 H   0  0  0  0  0  0  0  0  0  0  0  0
   15.3430   22.2288   10.4115 H   0  0  0  0  0  0  0  0  0  0  0  0
   14.6386   22.0524    9.0222 H   0  0  0  0  0  0  0  0  0  0  0  0
   15.9098   20.5629    9.4524 C   0  0  0  0  0  0  0  0  0  0  0  0
   16.5063   18.5303   10.0373 C   0  0  0  0  0  0  0  0  0  0  0  0
   16.9040   22.0554    6.6268 C   0  0  0  0  0  0  0  0  0  0  0  0
   18.9399   25.2346    2.3266 C   0  0  0  0  0  0  0  0  0  0  0  0
   19.6488   25.5159    1.7934 H   0  0  0  0  0  0  0  0  0  0  0  0
   16.8654   24.4718    3.9172 C   0  0  0  0  0  0  0  0  0  0  0  0
   16.1456   24.2367    4.4576 H   0  0  0  0  0  0  0  0  0  0  0  0
   14.3221   16.6967    5.2942 C   0  0  0  0  0  0  0  0  0  0  0  0
   13.7494   16.1269    4.8339 H   0  0  0  0  0  0  0  0  0  0  0  0
   19.0437   25.2014    3.6619 C   0  0  0  0  0  0  0  0  0  0  0  0
   16.0998   21.0130    3.3935 N   0  0  0  0  0  0  0  0  0  0  0  0
   21.0083   24.4907    5.5261 C   0  0  0  0  0  0  0  0  0  0  0  0
   17.6934   24.8224    1.7521 C   0  0  0  0  0  0  0  0  0  0  0  0
   17.5645   24.8280    0.8304 H   0  0  0  0  0  0  0  0  0  0  0  0
   22.2578   23.8843    5.4752 C   0  0  0  0  0  0  0  0  0  0  0  0
   22.8720   24.1379    4.8233 H   0  0  0  0  0  0  0  0  0  0  0  0
   13.5119   18.9094    4.3002 C   0  0  0  0  0  0  0  0  0  0  0  0
   12.9199   19.4432    4.8320 H   0  0  0  0  0  0  0  0  0  0  0  0
   12.9990   18.3454    3.7157 H   0  0  0  0  0  0  0  0  0  0  0  0
   14.0782   19.4808    3.7764 H   0  0  0  0  0  0  0  0  0  0  0  0
   16.8536   17.2511   10.7629 C   0  0  0  0  0  0  0  0  0  0  0  0
   16.3221   16.5317   10.4166 H   0  0  0  0  0  0  0  0  0  0  0  0
   16.6756   17.3584   11.7008 H   0  0  0  0  0  0  0  0  0  0  0  0
   17.7842   17.0533   10.6352 H   0  0  0  0  0  0  0  0  0  0  0  0
   16.1087   19.7527   10.5219 C   0  0  0  0  0  0  0  0  0  0  0  0
   15.9958   19.9799   11.4167 H   0  0  0  0  0  0  0  0  0  0  0  0
   19.5334   17.9428    6.7363 C   0  0  0  0  0  0  0  0  0  0  0  0
   16.7260   24.4339    2.5728 C   0  0  0  0  0  0  0  0  0  0  0  0
   15.9248   24.1287    2.2118 H   0  0  0  0  0  0  0  0  0  0  0  0
   20.4415   23.1830    7.3681 C   0  0  0  0  0  0  0  0  0  0  0  0
   19.8318   22.9186    8.0186 H   0  0  0  0  0  0  0  0  0  0  0  0
   15.6784   14.9579    6.6373 C   0  0  0  0  0  0  0  0  0  0  0  0
   16.6342   14.8746    6.6310 H   0  0  0  0  0  0  0  0  0  0  0  0
   15.2973   14.3137    6.0346 H   0  0  0  0  0  0  0  0  0  0  0  0
   15.3487   14.7974    7.5249 H   0  0  0  0  0  0  0  0  0  0  0  0
   22.5961   22.8940    6.3976 C   0  0  0  0  0  0  0  0  0  0  0  0
   23.4190   22.4636    6.3604 H   0  0  0  0  0  0  0  0  0  0  0  0
   20.0735   16.6920    7.3576 C   0  0  0  0  0  0  0  0  0  0  0  0
   20.1260   16.8028    8.3096 H   0  0  0  0  0  0  0  0  0  0  0  0
   20.9496   16.5128    7.0076 H   0  0  0  0  0  0  0  0  0  0  0  0
   19.4919   15.9548    7.1535 H   0  0  0  0  0  0  0  0  0  0  0  0
   17.0554   17.6680    7.6013 B   0  0  0  0  0  0  0  0  0  0  0  0
   17.3493   16.8208    7.9989 H   0  0  0  0  0  0  0  0  0  0  0  0
   21.7147   22.5955    7.3186 C   0  0  0  0  0  0  0  0  0  0  0  0
   21.9425   21.9684    7.9662 H   0  0  0  0  0  0  0  0  0  0  0  0
   18.2870   24.7181   11.2371 B   0  5  0  0  0  0  0  0  0  0  0  0
   18.9042   25.3767   11.7634 H   0  0  0  0  0  0  0  0  0  0  0  0
   17.3729   24.9219   11.6852 H   0  0  0  0  0  0  0  0  0  0  0  0
   18.8152   23.7800   11.4117 H   0  0  0  0  0  0  0  0  0  0  0  0
   11.5182   22.4060    6.5914 Fe  0  3  0  0  0  0  0  0  0  0  0  0
   13.5182   27.0739    6.3966 Fe  0  0  0  0  0  0  0  0  0  0  0  0
    9.1123   21.6171    4.3914 P   0  0  0  0  0  0  0  0  0  0  0  0
   14.3370   28.8502    5.9976 N   0  0  0  0  0  0  0  0  0  0  0  0
   16.3164   25.8349    6.5969 N   0  0  0  0  0  0  0  0  0  0  0  0
   13.7672   29.9593    6.6125 N   0  0  0  0  0  0  0  0  0  0  0  0
   11.6453   22.5420    4.4904 N   0  0  0  0  0  0  0  0  0  0  0  0
   12.3130   24.2704    6.6933 N   0  0  0  0  0  0  0  0  0  0  0  0
   13.4941   27.4946    8.3282 N   0  0  0  0  0  0  0  0  0  0  0  0
   10.5917   20.5099    6.3012 N   0  0  0  0  0  0  0  0  0  0  0  0
    9.5768   20.3109    5.3736 C   0  0  0  0  0  0  0  0  0  0  0  0
    9.0188   19.0468    5.2134 C   0  0  0  0  0  0  0  0  0  0  0  0
    8.3399   18.9149    4.5928 H   0  0  0  0  0  0  0  0  0  0  0  0
    9.4759   17.9840    5.9820 C   0  0  0  0  0  0  0  0  0  0  0  0
    9.1035   17.1390    5.8753 H   0  0  0  0  0  0  0  0  0  0  0  0
   10.4938   18.1830    6.9095 C   0  0  0  0  0  0  0  0  0  0  0  0
   10.7987   17.4709    7.4240 H   0  0  0  0  0  0  0  0  0  0  0  0
   11.0517   19.4457    7.0698 C   0  0  0  0  0  0  0  0  0  0  0  0
   11.7303   19.5788    7.6902 H   0  0  0  0  0  0  0  0  0  0  0  0
    9.5738   23.2503    6.4796 N   0  0  0  0  0  0  0  0  0  0  0  0
   11.6868   27.8836    6.2334 N   0  0  0  0  0  0  0  0  0  0  0  0
   13.1172   28.7739    8.6773 N   0  0  0  0  0  0  0  0  0  0  0  0
    8.0692   21.2641    3.4365 O   0  0  0  0  0  0  0  0  0  0  0  0
   11.4702   29.0463    6.8770 N   0  0  0  0  0  0  0  0  0  0  0  0
   15.2629   26.2760    6.5226 C   0  0  0  0  0  0  0  0  0  0  0  0
   15.3222   29.3187    5.1939 C   0  0  0  0  0  0  0  0  0  0  0  0
   10.3484   26.3670    4.7431 C   0  0  0  0  0  0  0  0  0  0  0  0
   10.6433   26.6042    3.8602 H   0  0  0  0  0  0  0  0  0  0  0  0
    9.4219   26.1179    4.7141 H   0  0  0  0  0  0  0  0  0  0  0  0
   10.8689   25.6280    5.0658 H   0  0  0  0  0  0  0  0  0  0  0  0
   13.5654   26.6370    4.5243 C   0  0  0  0  0  0  0  0  0  0  0  0
   10.5146   27.4899    5.6212 C   0  0  0  0  0  0  0  0  0  0  0  0
   11.4019   22.4392    9.7364 C   0  0  0  0  0  0  0  0  0  0  0  0
   14.3785   31.0623    6.2087 C   0  0  0  0  0  0  0  0  0  0  0  0
   11.3811   22.3117    8.6187 N   0  0  0  0  0  0  0  0  0  0  0  0
    9.5649   28.5038    5.9807 C   0  0  0  0  0  0  0  0  0  0  0  0
    8.6700   28.5107    5.7218 H   0  0  0  0  0  0  0  0  0  0  0  0
   14.2093   25.4194    9.4980 C   0  0  0  0  0  0  0  0  0  0  0  0
   13.5440   24.8591    9.0893 H   0  0  0  0  0  0  0  0  0  0  0  0
   14.3340   25.1512   10.4115 H   0  0  0  0  0  0  0  0  0  0  0  0
   15.0384   25.3276    9.0222 H   0  0  0  0  0  0  0  0  0  0  0  0
   13.7672   26.8171    9.4524 C   0  0  0  0  0  0  0  0  0  0  0  0
   13.1707   28.8497   10.0373 C   0  0  0  0  0  0  0  0  0  0  0  0
   12.7730   25.3246    6.6268 C   0  0  0  0  0  0  0  0  0  0  0  0
   10.7371   22.1454    2.3266 C   0  0  0  0  0  0  0  0  0  0  0  0
   10.0282   21.8641    1.7934 H   0  0  0  0  0  0  0  0  0  0  0  0
   12.8116   22.9082    3.9172 C   0  0  0  0  0  0  0  0  0  0  0  0
   13.5314   23.1433    4.4576 H   0  0  0  0  0  0  0  0  0  0  0  0
   15.3549   30.6833    5.2942 C   0  0  0  0  0  0  0  0  0  0  0  0
   15.9276   31.2531    4.8339 H   0  0  0  0  0  0  0  0  0  0  0  0
   10.6333   22.1786    3.6619 C   0  0  0  0  0  0  0  0  0  0  0  0
   13.5772   26.3670    3.3935 N   0  0  0  0  0  0  0  0  0  0  0  0
    8.6687   22.8893    5.5261 C   0  0  0  0  0  0  0  0  0  0  0  0
   11.9836   22.5576    1.7521 C   0  0  0  0  0  0  0  0  0  0  0  0
   12.1125   22.5520    0.8304 H   0  0  0  0  0  0  0  0  0  0  0  0
    7.4193   23.4957    5.4752 C   0  0  0  0  0  0  0  0  0  0  0  0
    6.8050   23.2421    4.8233 H   0  0  0  0  0  0  0  0  0  0  0  0
   16.1651   28.4706    4.3002 C   0  0  0  0  0  0  0  0  0  0  0  0
   16.7571   27.9368    4.8320 H   0  0  0  0  0  0  0  0  0  0  0  0
   16.6780   29.0346    3.7157 H   0  0  0  0  0  0  0  0  0  0  0  0
   15.5988   27.8992    3.7764 H   0  0  0  0  0  0  0  0  0  0  0  0
   12.8234   30.1289   10.7629 C   0  0  0  0  0  0  0  0  0  0  0  0
   13.3549   30.8483   10.4166 H   0  0  0  0  0  0  0  0  0  0  0  0
   13.0014   30.0216   11.7008 H   0  0  0  0  0  0  0  0  0  0  0  0
   11.8928   30.3267   10.6352 H   0  0  0  0  0  0  0  0  0  0  0  0
   13.5683   27.6273   10.5219 C   0  0  0  0  0  0  0  0  0  0  0  0
   13.6812   27.4001   11.4167 H   0  0  0  0  0  0  0  0  0  0  0  0
   10.1436   29.4372    6.7363 C   0  0  0  0  0  0  0  0  0  0  0  0
   12.9510   22.9461    2.5728 C   0  0  0  0  0  0  0  0  0  0  0  0
   13.7522   23.2513    2.2118 H   0  0  0  0  0  0  0  0  0  0  0  0
    9.2355   24.1970    7.3681 C   0  0  0  0  0  0  0  0  0  0  0  0
    9.8452   24.4614    8.0186 H   0  0  0  0  0  0  0  0  0  0  0  0
   13.9986   32.4221    6.6373 C   0  0  0  0  0  0  0  0  0  0  0  0
   13.0428   32.5054    6.6310 H   0  0  0  0  0  0  0  0  0  0  0  0
   14.3797   33.0663    6.0346 H   0  0  0  0  0  0  0  0  0  0  0  0
   14.3283   32.5826    7.5249 H   0  0  0  0  0  0  0  0  0  0  0  0
    7.0809   24.4860    6.3976 C   0  0  0  0  0  0  0  0  0  0  0  0
    6.2580   24.9164    6.3604 H   0  0  0  0  0  0  0  0  0  0  0  0
    9.6035   30.6880    7.3576 C   0  0  0  0  0  0  0  0  0  0  0  0
    9.5510   30.5772    8.3096 H   0  0  0  0  0  0  0  0  0  0  0  0
    8.7274   30.8672    7.0076 H   0  0  0  0  0  0  0  0  0  0  0  0
   10.1851   31.4252    7.1535 H   0  0  0  0  0  0  0  0  0  0  0  0
   12.6216   29.7120    7.6013 B   0  0  0  0  0  0  0  0  0  0  0  0
   12.3277   30.5592    7.9989 H   0  0  0  0  0  0  0  0  0  0  0  0
    7.9623   24.7845    7.3186 C   0  0  0  0  0  0  0  0  0  0  0  0
    7.7345   25.4116    7.9662 H   0  0  0  0  0  0  0  0  0  0  0  0
   11.3900   22.6619   11.2371 B   0  5  0  0  0  0  0  0  0  0  0  0
   10.7728   22.0033   11.7634 H   0  0  0  0  0  0  0  0  0  0  0  0
   12.3041   22.4581   11.6852 H   0  0  0  0  0  0  0  0  0  0  0  0
   10.8618   23.6000   11.4117 H   0  0  0  0  0  0  0  0  0  0  0  0
  1  7  1  0  0  0  0
  2  4  1  0  0  0  0
  3 11  1  0  0  0  0
  4  6  4  0  0  0  0
  5 25  3  0  0  0  0
  6 34  4  0  0  0  0
  7 47  4  0  0  0  0
  8  1  1  0  0  0  0
  9  2  1  0  0  0  0
 10  1  1  0  0  0  0
 11 10  4  0  0  0  0
 12 11  4  0  0  0  0
 13 12  1  0  0  0  0
 14 12  4  0  0  0  0
 15 14  1  0  0  0  0
 16 14  4  0  0  0  0
 17 16  1  0  0  0  0
 18 10  4  0  0  0  0
 19 18  1  0  0  0  0
 20  1  1  0  0  0  0
 21  2  1  0  0  0  0
 22  9  4  0  0  0  0
 23  3  2  0  0  0  0
 24 21  4  0  0  0  0
 25  2  1  0  0  0  0
 26  4  4  0  0  0  0
 27 28  1  0  0  0  0
 29 27  1  0  0  0  0
 30 27  1  0  0  0  0
 31  2  1  0  0  0  0
 32 21  4  0  0  0  0
 33 35  3  0  0  0  0
 34 49  4  0  0  0  0
 35  1  1  0  0  0  0
 36 32  4  0  0  0  0
 37 36  1  0  0  0  0
 38 39  1  0  0  0  0
 40 38  1  0  0  0  0
 41 38  1  0  0  0  0
 42  9  4  0  0  0  0
 43 22  4  0  0  0  0
 44  2  1  0  0  0  0
 45 46  1  0  0  0  0
 47 48  1  0  0  0  0
 49 26  4  0  0  0  0
 50 49  1  0  0  0  0
 51  3  1  0  0  0  0
 52 31  3  0  0  0  0
 53  3  1  0  0  0  0
 54 45  4  0  0  0  0
 55 54  1  0  0  0  0
 56 53  4  0  0  0  0
 57 56  1  0  0  0  0
 58 26  1  0  0  0  0
 59 58  1  0  0  0  0
 60 58  1  0  0  0  0
 61 58  1  0  0  0  0
 62 43  1  0  0  0  0
 63 62  1  0  0  0  0
 64 62  1  0  0  0  0
 65 62  1  0  0  0  0
 66 42  4  0  0  0  0
 67 66  1  0  0  0  0
 68 24  4  0  0  0  0
 69 47  4  0  0  0  0
 70 69  1  0  0  0  0
 71 20  4  0  0  0  0
 72 71  1  0  0  0  0
 73 34  1  0  0  0  0
 74 73  1  0  0  0  0
 75 73  1  0  0  0  0
 76 73  1  0  0  0  0
 77 56  4  0  0  0  0
 78 77  1  0  0  0  0
 79 68  1  0  0  0  0
 80 79  1  0  0  0  0
 81 79  1  0  0  0  0
 82 79  1  0  0  0  0
 83  6  1  0  0  0  0
 84 83  1  0  0  0  0
 85 71  4  0  0  0  0
 86 85  1  0  0  0  0
 87 33  1  0  0  0  0
 88 87  1  0  0  0  0
 89 87  1  0  0  0  0
 90 87  1  0  0  0  0
 91  5  1  0  0  0  0
 92 94  1  0  0  0  0
 93101  1  0  0  0  0
 94 96  4  0  0  0  0
 95  1  1  0  0  0  0
 96124  4  0  0  0  0
 97 91  1  0  0  0  0
 98 91  1  0  0  0  0
 99 92  1  0  0  0  0
100 91  1  0  0  0  0
101100  4  0  0  0  0
102101  4  0  0  0  0
103102  1  0  0  0  0
104102  4  0  0  0  0
105104  1  0  0  0  0
106104  4  0  0  0  0
107106  1  0  0  0  0
108100  4  0  0  0  0
109108  1  0  0  0  0
110 91  1  0  0  0  0
111 92  1  0  0  0  0
112 99  4  0  0  0  0
113 93  2  0  0  0  0
114111  4  0  0  0  0
115 92  1  0  0  0  0
116 94  4  0  0  0  0
117118  1  0  0  0  0
119117  1  0  0  0  0
120117  1  0  0  0  0
121 92  1  0  0  0  0
122111  4  0  0  0  0
123125  3  0  0  0  0
124139  4  0  0  0  0
125 91  1  0  0  0  0
126122  4  0  0  0  0
127126  1  0  0  0  0
128129  1  0  0  0  0
130128  1  0  0  0  0
131128  1  0  0  0  0
132 99  4  0  0  0  0
133112  4  0  0  0  0
134 92  1  0  0  0  0
135136  1  0  0  0  0
137 97  4  0  0  0  0
138137  1  0  0  0  0
139116  4  0  0  0  0
140139  1  0  0  0  0
141 93  1  0  0  0  0
142121  3  0  0  0  0
143 93  1  0  0  0  0
144135  4  0  0  0  0
145144  1  0  0  0  0
146143  4  0  0  0  0
147146  1  0  0  0  0
148116  1  0  0  0  0
149148  1  0  0  0  0
150148  1  0  0  0  0
151148  1  0  0  0  0
152133  1  0  0  0  0
153152  1  0  0  0  0
154152  1  0  0  0  0
155152  1  0  0  0  0
156132  4  0  0  0  0
157156  1  0  0  0  0
158114  4  0  0  0  0
159137  4  0  0  0  0
160159  1  0  0  0  0
161110  4  0  0  0  0
162161  1  0  0  0  0
163124  1  0  0  0  0
164163  1  0  0  0  0
165163  1  0  0  0  0
166163  1  0  0  0  0
167146  4  0  0  0  0
168167  1  0  0  0  0
169158  1  0  0  0  0
170169  1  0  0  0  0
171169  1  0  0  0  0
172169  1  0  0  0  0
173 96  1  0  0  0  0
174173  1  0  0  0  0
175161  4  0  0  0  0
176175  1  0  0  0  0
177123  1  0  0  0  0
178177  1  0  0  0  0
179177  1  0  0  0  0
180177  1  0  0  0  0
  7 51  4  0  0  0  0
  8 44  3  0  0  0  0
 16 18  4  0  0  0  0
 20 53  4  0  0  0  0
 22 83  1  0  0  0  0
 24 83  1  0  0  0  0
 27 32  1  0  0  0  0
 36 68  4  0  0  0  0
 38 42  1  0  0  0  0
 43 66  4  0  0  0  0
 45 51  4  0  0  0  0
 54 69  4  0  0  0  0
 77 85  4  0  0  0  0
 95115  3  0  0  0  0
 97141  4  0  0  0  0
 98134  3  0  0  0  0
106108  4  0  0  0  0
110143  4  0  0  0  0
112173  1  0  0  0  0
114173  1  0  0  0  0
117122  1  0  0  0  0
126158  4  0  0  0  0
128132  1  0  0  0  0
133156  4  0  0  0  0
135141  4  0  0  0  0
144159  4  0  0  0  0
167175  4  0  0  0  0
M  CHG  4   1   1  87  -1  91   1 177  -1
M  END
$$$$
PEDHUF01

From CSD data. Using bond type 'Any'. Matching problem. No disordered atoms. Largest molecule.
180200  0  0  0  0  0  0  0  0999 V2000
   17.7717   22.4463    5.4903 Fe  0  3  0  0  0  0  0  0  0  0  0  0
   13.2112   20.3833    5.5663 Fe  0  0  0  0  0  0  0  0  0  0  0  0
   20.1067   21.6212    7.5714 P   0  0  0  0  0  0  0  0  0  0  0  0
   14.0428   18.6041    5.9202 N   0  0  0  0  0  0  0  0  0  0  0  0
   16.0059   21.6505    5.4189 N   0  0  0  0  0  0  0  0  0  0  0  0
   17.5855   22.5278    7.4878 N   0  0  0  0  0  0  0  0  0  0  0  0
   13.4792   17.5112    5.3030 N   0  0  0  0  0  0  0  0  0  0  0  0
   18.5893   20.6141    5.5999 N   0  0  0  0  0  0  0  0  0  0  0  0
   11.9610   23.1842    5.3640 N   0  0  0  0  0  0  0  0  0  0  0  0
   21.1762   21.2430    8.5177 O   0  0  0  0  0  0  0  0  0  0  0  0
   19.5735   23.3069    5.5400 N   0  0  0  0  0  0  0  0  0  0  0  0
   11.3848   19.5572    5.7080 N   0  0  0  0  0  0  0  0  0  0  0  0
   17.8613   22.3951    3.5349 N   0  0  0  0  0  0  0  0  0  0  0  0
   13.1956   19.9847    3.6078 N   0  0  0  0  0  0  0  0  0  0  0  0
   12.8567   18.7174    3.2107 N   0  0  0  0  0  0  0  0  0  0  0  0
   11.1870   18.3918    4.9945 N   0  0  0  0  0  0  0  0  0  0  0  0
   14.9486   21.1970    5.4398 C   0  0  0  0  0  0  0  0  0  0  0  0
   13.2711   21.0458    8.5646 N   0  0  0  0  0  0  0  0  0  0  0  0
   10.2199   19.8762    6.2965 C   0  0  0  0  0  0  0  0  0  0  0  0
   14.0893   16.3857    5.7444 C   0  0  0  0  0  0  0  0  0  0  0  0
   15.0105   18.1444    6.7379 C   0  0  0  0  0  0  0  0  0  0  0  0
   13.8924   22.1178    2.4881 C   0  0  0  0  0  0  0  0  0  0  0  0
   13.2601   22.6467    3.0178 H   0  0  0  0  0  0  0  0  0  0  0  0
   13.9122   22.4568    1.5688 H   0  0  0  0  0  0  0  0  0  0  0  0
   14.7871   22.1878    2.8815 H   0  0  0  0  0  0  0  0  0  0  0  0
   13.4654   20.6989    2.4816 C   0  0  0  0  0  0  0  0  0  0  0  0
   19.5779   20.3017    6.4775 C   0  0  0  0  0  0  0  0  0  0  0  0
   16.4200   22.9140    8.0412 C   0  0  0  0  0  0  0  0  0  0  0  0
   15.7168   23.2214    7.4812 H   0  0  0  0  0  0  0  0  0  0  0  0
   10.0299   20.9904    7.2691 C   0  0  0  0  0  0  0  0  0  0  0  0
   10.2411   20.6747    8.1728 H   0  0  0  0  0  0  0  0  0  0  0  0
    9.0989   21.2950    7.2391 H   0  0  0  0  0  0  0  0  0  0  0  0
   10.6245   21.7333    7.0354 H   0  0  0  0  0  0  0  0  0  0  0  0
   17.8413   22.4742    2.4035 C   0  0  0  0  0  0  0  0  0  0  0  0
   13.2346   20.7975    7.4526 C   0  0  0  0  0  0  0  0  0  0  0  0
   18.5665   22.1287    8.3315 C   0  0  0  0  0  0  0  0  0  0  0  0
   21.7391   23.5979    6.5751 C   0  0  0  0  0  0  0  0  0  0  0  0
   22.3555   23.3413    7.2510 H   0  0  0  0  0  0  0  0  0  0  0  0
   15.0559   16.7520    6.6506 C   0  0  0  0  0  0  0  0  0  0  0  0
   15.6399   16.1718    7.1252 H   0  0  0  0  0  0  0  0  0  0  0  0
   12.4427   22.1415    5.3525 C   0  0  0  0  0  0  0  0  0  0  0  0
   20.1535   19.0534    6.5946 C   0  0  0  0  0  0  0  0  0  0  0  0
   20.8557   18.8930    7.2144 H   0  0  0  0  0  0  0  0  0  0  0  0
   20.5126   22.9775    6.4618 C   0  0  0  0  0  0  0  0  0  0  0  0
   19.8878   24.2979    4.6911 C   0  0  0  0  0  0  0  0  0  0  0  0
   19.2492   24.5638    4.0394 H   0  0  0  0  0  0  0  0  0  0  0  0
    9.2701   18.9131    5.9566 C   0  0  0  0  0  0  0  0  0  0  0  0
    8.3621   18.8963    6.2350 H   0  0  0  0  0  0  0  0  0  0  0  0
   18.1420   19.6264    4.8096 C   0  0  0  0  0  0  0  0  0  0  0  0
   17.4563   19.8115    4.1794 H   0  0  0  0  0  0  0  0  0  0  0  0
   12.9082   18.6245    1.8580 C   0  0  0  0  0  0  0  0  0  0  0  0
   15.8787   18.9790    7.6284 C   0  0  0  0  0  0  0  0  0  0  0  0
   16.6887   19.2408    7.1429 H   0  0  0  0  0  0  0  0  0  0  0  0
   16.1268   18.4602    8.4219 H   0  0  0  0  0  0  0  0  0  0  0  0
   15.3885   19.7819    7.9030 H   0  0  0  0  0  0  0  0  0  0  0  0
   19.6721   18.0382    5.7783 C   0  0  0  0  0  0  0  0  0  0  0  0
   20.0348   17.1616    5.8306 H   0  0  0  0  0  0  0  0  0  0  0  0
   22.0453   24.6031    5.6793 C   0  0  0  0  0  0  0  0  0  0  0  0
   22.8835   25.0487    5.7177 H   0  0  0  0  0  0  0  0  0  0  0  0
   13.6614   15.0188    5.2887 C   0  0  0  0  0  0  0  0  0  0  0  0
   12.6965   14.9162    5.4252 H   0  0  0  0  0  0  0  0  0  0  0  0
   14.1390   14.3375    5.8064 H   0  0  0  0  0  0  0  0  0  0  0  0
   13.8699   14.9115    4.3370 H   0  0  0  0  0  0  0  0  0  0  0  0
   13.2847   19.8629    1.3749 C   0  0  0  0  0  0  0  0  0  0  0  0
   13.3991   20.1022    0.4625 H   0  0  0  0  0  0  0  0  0  0  0  0
    9.8914   17.9890    5.1403 C   0  0  0  0  0  0  0  0  0  0  0  0
   12.6055   17.3582    1.1080 C   0  0  0  0  0  0  0  0  0  0  0  0
   13.1942   16.6419    1.4256 H   0  0  0  0  0  0  0  0  0  0  0  0
   12.7536   17.5022    0.1502 H   0  0  0  0  0  0  0  0  0  0  0  0
   11.6711   17.1043    1.2596 H   0  0  0  0  0  0  0  0  0  0  0  0
   18.4130   22.0548    9.6947 C   0  0  0  0  0  0  0  0  0  0  0  0
   19.1297   21.7527   10.2400 H   0  0  0  0  0  0  0  0  0  0  0  0
   18.6642   18.3240    4.8942 C   0  0  0  0  0  0  0  0  0  0  0  0
   18.3172   17.6390    4.3347 H   0  0  0  0  0  0  0  0  0  0  0  0
   16.2294   22.8714    9.4043 C   0  0  0  0  0  0  0  0  0  0  0  0
   15.3982   23.1590    9.7639 H   0  0  0  0  0  0  0  0  0  0  0  0
    9.3823   16.7231    4.5388 C   0  0  0  0  0  0  0  0  0  0  0  0
    9.2580   16.8468    3.5744 H   0  0  0  0  0  0  0  0  0  0  0  0
    8.5252   16.4872    4.9509 H   0  0  0  0  0  0  0  0  0  0  0  0
   10.0292   16.0039    4.6950 H   0  0  0  0  0  0  0  0  0  0  0  0
   21.1097   24.9448    4.7315 C   0  0  0  0  0  0  0  0  0  0  0  0
   21.3035   25.6289    4.1006 H   0  0  0  0  0  0  0  0  0  0  0  0
   12.3716   17.7240    4.2706 B   0  0  0  0  0  0  0  0  0  0  0  0
   12.0969   16.8575    3.8532 H   0  0  0  0  0  0  0  0  0  0  0  0
   17.2148   22.4212   10.2676 C   0  0  0  0  0  0  0  0  0  0  0  0
   17.0724   22.3679   11.2049 H   0  0  0  0  0  0  0  0  0  0  0  0
   17.8147   22.6629    0.8242 B   0  5  0  0  0  0  0  0  0  0  0  0
   18.2296   21.7676    0.4427 H   0  0  0  0  0  0  0  0  0  0  0  0
   18.4378   23.4927    0.7161 H   0  0  0  0  0  0  0  0  0  0  0  0
   16.8534   22.3837    0.4817 H   0  0  0  0  0  0  0  0  0  0  0  0
   11.1413   24.9467    5.4903 Fe  0  3  0  0  0  0  0  0  0  0  0  0
   15.7018   27.0097    5.5663 Fe  0  0  0  0  0  0  0  0  0  0  0  0
    8.8063   25.7718    7.5714 P   0  0  0  0  0  0  0  0  0  0  0  0
   14.8702   28.7889    5.9202 N   0  0  0  0  0  0  0  0  0  0  0  0
   12.9071   25.7425    5.4189 N   0  0  0  0  0  0  0  0  0  0  0  0
   11.3275   24.8652    7.4878 N   0  0  0  0  0  0  0  0  0  0  0  0
   15.4338   29.8818    5.3030 N   0  0  0  0  0  0  0  0  0  0  0  0
   10.3237   26.7789    5.5999 N   0  0  0  0  0  0  0  0  0  0  0  0
   16.9520   24.2088    5.3640 N   0  0  0  0  0  0  0  0  0  0  0  0
    7.7368   26.1500    8.5177 O   0  0  0  0  0  0  0  0  0  0  0  0
    9.3395   24.0861    5.5400 N   0  0  0  0  0  0  0  0  0  0  0  0
   17.5282   27.8358    5.7080 N   0  0  0  0  0  0  0  0  0  0  0  0
   11.0517   24.9979    3.5349 N   0  0  0  0  0  0  0  0  0  0  0  0
   15.7174   27.4083    3.6078 N   0  0  0  0  0  0  0  0  0  0  0  0
   16.0563   28.6756    3.2107 N   0  0  0  0  0  0  0  0  0  0  0  0
   17.7260   29.0012    4.9945 N   0  0  0  0  0  0  0  0  0  0  0  0
   13.9644   26.1960    5.4398 C   0  0  0  0  0  0  0  0  0  0  0  0
   15.6419   26.3472    8.5646 N   0  0  0  0  0  0  0  0  0  0  0  0
   18.6931   27.5168    6.2965 C   0  0  0  0  0  0  0  0  0  0  0  0
   14.8237   31.0073    5.7444 C   0  0  0  0  0  0  0  0  0  0  0  0
   13.9025   29.2486    6.7379 C   0  0  0  0  0  0  0  0  0  0  0  0
   15.0206   25.2752    2.4881 C   0  0  0  0  0  0  0  0  0  0  0  0
   15.6529   24.7463    3.0178 H   0  0  0  0  0  0  0  0  0  0  0  0
   15.0008   24.9362    1.5688 H   0  0  0  0  0  0  0  0  0  0  0  0
   14.1259   25.2052    2.8815 H   0  0  0  0  0  0  0  0  0  0  0  0
   15.4476   26.6941    2.4816 C   0  0  0  0  0  0  0  0  0  0  0  0
    9.3351   27.0913    6.4775 C   0  0  0  0  0  0  0  0  0  0  0  0
   12.4930   24.4790    8.0412 C   0  0  0  0  0  0  0  0  0  0  0  0
   13.1962   24.1716    7.4812 H   0  0  0  0  0  0  0  0  0  0  0  0
   18.8831   26.4026    7.2691 C   0  0  0  0  0  0  0  0  0  0  0  0
   18.6719   26.7183    8.1728 H   0  0  0  0  0  0  0  0  0  0  0  0
   19.8141   26.0980    7.2391 H   0  0  0  0  0  0  0  0  0  0  0  0
   18.2885   25.6597    7.0354 H   0  0  0  0  0  0  0  0  0  0  0  0
   11.0717   24.9188    2.4035 C   0  0  0  0  0  0  0  0  0  0  0  0
   15.6784   26.5955    7.4526 C   0  0  0  0  0  0  0  0  0  0  0  0
   10.3465   25.2643    8.3315 C   0  0  0  0  0  0  0  0  0  0  0  0
    7.1739   23.7951    6.5751 C   0  0  0  0  0  0  0  0  0  0  0  0
    6.5575   24.0517    7.2510 H   0  0  0  0  0  0  0  0  0  0  0  0
   13.8571   30.6410    6.6506 C   0  0  0  0  0  0  0  0  0  0  0  0
   13.2731   31.2212    7.1252 H   0  0  0  0  0  0  0  0  0  0  0  0
   16.4703   25.2515    5.3525 C   0  0  0  0  0  0  0  0  0  0  0  0
    8.7595   28.3396    6.5946 C   0  0  0  0  0  0  0  0  0  0  0  0
    8.0573   28.5000    7.2144 H   0  0  0  0  0  0  0  0  0  0  0  0
    8.4004   24.4155    6.4618 C   0  0  0  0  0  0  0  0  0  0  0  0
    9.0252   23.0951    4.6911 C   0  0  0  0  0  0  0  0  0  0  0  0
    9.6638   22.8292    4.0394 H   0  0  0  0  0  0  0  0  0  0  0  0
   19.6429   28.4799    5.9566 C   0  0  0  0  0  0  0  0  0  0  0  0
   20.5509   28.4967    6.2350 H   0  0  0  0  0  0  0  0  0  0  0  0
   10.7710   27.7666    4.8096 C   0  0  0  0  0  0  0  0  0  0  0  0
   11.4567   27.5815    4.1794 H   0  0  0  0  0  0  0  0  0  0  0  0
   16.0048   28.7685    1.8580 C   0  0  0  0  0  0  0  0  0  0  0  0
   13.0343   28.4140    7.6284 C   0  0  0  0  0  0  0  0  0  0  0  0
   12.2243   28.1522    7.1429 H   0  0  0  0  0  0  0  0  0  0  0  0
   12.7862   28.9328    8.4219 H   0  0  0  0  0  0  0  0  0  0  0  0
   13.5245   27.6111    7.9030 H   0  0  0  0  0  0  0  0  0  0  0  0
    9.2409   29.3548    5.7783 C   0  0  0  0  0  0  0  0  0  0  0  0
    8.8782   30.2314    5.8306 H   0  0  0  0  0  0  0  0  0  0  0  0
    6.8677   22.7899    5.6793 C   0  0  0  0  0  0  0  0  0  0  0  0
    6.0295   22.3443    5.7177 H   0  0  0  0  0  0  0  0  0  0  0  0
   15.2516   32.3742    5.2887 C   0  0  0  0  0  0  0  0  0  0  0  0
   16.2165   32.4768    5.4252 H   0  0  0  0  0  0  0  0  0  0  0  0
   14.7740   33.0555    5.8064 H   0  0  0  0  0  0  0  0  0  0  0  0
   15.0431   32.4815    4.3370 H   0  0  0  0  0  0  0  0  0  0  0  0
   15.6283   27.5301    1.3749 C   0  0  0  0  0  0  0  0  0  0  0  0
   15.5139   27.2908    0.4625 H   0  0  0  0  0  0  0  0  0  0  0  0
   19.0216   29.4040    5.1403 C   0  0  0  0  0  0  0  0  0  0  0  0
   16.3075   30.0348    1.1080 C   0  0  0  0  0  0  0  0  0  0  0  0
   15.7188   30.7511    1.4256 H   0  0  0  0  0  0  0  0  0  0  0  0
   16.1594   29.8908    0.1502 H   0  0  0  0  0  0  0  0  0  0  0  0
   17.2419   30.2887    1.2596 H   0  0  0  0  0  0  0  0  0  0  0  0
   10.5000   25.3382    9.6947 C   0  0  0  0  0  0  0  0  0  0  0  0
    9.7833   25.6403   10.2400 H   0  0  0  0  0  0  0  0  0  0  0  0
   10.2488   29.0690    4.8942 C   0  0  0  0  0  0  0  0  0  0  0  0
   10.5958   29.7540    4.3347 H   0  0  0  0  0  0  0  0  0  0  0  0
   12.6836   24.5216    9.4043 C   0  0  0  0  0  0  0  0  0  0  0  0
   13.5148   24.2340    9.7639 H   0  0  0  0  0  0  0  0  0  0  0  0
   19.5307   30.6699    4.5388 C   0  0  0  0  0  0  0  0  0  0  0  0
   19.6550   30.5462    3.5744 H   0  0  0  0  0  0  0  0  0  0  0  0
   20.3878   30.9058    4.9509 H   0  0  0  0  0  0  0  0  0  0  0  0
   18.8838   31.3891    4.6950 H   0  0  0  0  0  0  0  0  0  0  0  0
    7.8033   22.4482    4.7315 C   0  0  0  0  0  0  0  0  0  0  0  0
    7.6095   21.7641    4.1006 H   0  0  0  0  0  0  0  0  0  0  0  0
   16.5414   29.6690    4.2706 B   0  0  0  0  0  0  0  0  0  0  0  0
   16.8161   30.5355    3.8532 H   0  0  0  0  0  0  0  0  0  0  0  0
   11.6982   24.9718   10.2676 C   0  0  0  0  0  0  0  0  0  0  0  0
   11.8406   25.0251   11.2049 H   0  0  0  0  0  0  0  0  0  0  0  0
   11.0983   24.7301    0.8242 B   0  5  0  0  0  0  0  0  0  0  0  0
   10.6834   25.6254    0.4427 H   0  0  0  0  0  0  0  0  0  0  0  0
   10.4752   23.9003    0.7161 H   0  0  0  0  0  0  0  0  0  0  0  0
   12.0596   25.0093    0.4817 H   0  0  0  0  0  0  0  0  0  0  0  0
  1  5  1  0  0  0  0
  2  4  1  0  0  0  0
  3 10  2  0  0  0  0
  4  7  4  0  0  0  0
  5 17  3  0  0  0  0
  6  1  1  0  0  0  0
  7 20  4  0  0  0  0
  8  1  1  0  0  0  0
  9 41  3  0  0  0  0
 11  1  1  0  0  0  0
 12  2  1  0  0  0  0
 13  1  1  0  0  0  0
 14  2  1  0  0  0  0
 15 14  4  0  0  0  0
 16 12  4  0  0  0  0
 17  2  1  0  0  0  0
 18 35  3  0  0  0  0
 19 12  4  0  0  0  0
 20 39  4  0  0  0  0
 21  4  4  0  0  0  0
 22 23  1  0  0  0  0
 24 22  1  0  0  0  0
 25 22  1  0  0  0  0
 26 14  4  0  0  0  0
 27  3  1  0  0  0  0
 28  6  4  0  0  0  0
 29 28  1  0  0  0  0
 30 19  1  0  0  0  0
 31 30  1  0  0  0  0
 32 30  1  0  0  0  0
 33 30  1  0  0  0  0
 34 13  3  0  0  0  0
 35  2  1  0  0  0  0
 36  3  1  0  0  0  0
 37 38  1  0  0  0  0
 39 21  4  0  0  0  0
 40 39  1  0  0  0  0
 41  2  1  0  0  0  0
 42 27  4  0  0  0  0
 43 42  1  0  0  0  0
 44  3  1  0  0  0  0
 45 11  4  0  0  0  0
 46 45  1  0  0  0  0
 47 19  4  0  0  0  0
 48 47  1  0  0  0  0
 49  8  4  0  0  0  0
 50 49  1  0  0  0  0
 51 15  4  0  0  0  0
 52 21  1  0  0  0  0
 53 52  1  0  0  0  0
 54 52  1  0  0  0  0
 55 52  1  0  0  0  0
 56 42  4  0  0  0  0
 57 56  1  0  0  0  0
 58 37  4  0  0  0  0
 59 58  1  0  0  0  0
 60 20  1  0  0  0  0
 61 60  1  0  0  0  0
 62 60  1  0  0  0  0
 63 60  1  0  0  0  0
 64 26  4  0  0  0  0
 65 64  1  0  0  0  0
 66 16  4  0  0  0  0
 67 51  1  0  0  0  0
 68 67  1  0  0  0  0
 69 67  1  0  0  0  0
 70 67  1  0  0  0  0
 71 36  4  0  0  0  0
 72 71  1  0  0  0  0
 73 49  4  0  0  0  0
 74 73  1  0  0  0  0
 75 28  4  0  0  0  0
 76 75  1  0  0  0  0
 77 66  1  0  0  0  0
 78 77  1  0  0  0  0
 79 77  1  0  0  0  0
 80 77  1  0  0  0  0
 81 45  4  0  0  0  0
 82 81  1  0  0  0  0
 83  7  1  0  0  0  0
 84 83  1  0  0  0  0
 85 71  4  0  0  0  0
 86 85  1  0  0  0  0
 87 34  1  0  0  0  0
 88 87  1  0  0  0  0
 89 87  1  0  0  0  0
 90 87  1  0  0  0  0
 91  9  1  0  0  0  0
 92 94  1  0  0  0  0
 93100  2  0  0  0  0
 94 97  4  0  0  0  0
 95 91  1  0  0  0  0
 96 91  1  0  0  0  0
 97110  4  0  0  0  0
 98 91  1  0  0  0  0
 99  1  1  0  0  0  0
101 91  1  0  0  0  0
102 92  1  0  0  0  0
103 91  1  0  0  0  0
104 92  1  0  0  0  0
105104  4  0  0  0  0
106102  4  0  0  0  0
107 92  1  0  0  0  0
108125  3  0  0  0  0
109102  4  0  0  0  0
110129  4  0  0  0  0
111 94  4  0  0  0  0
112113  1  0  0  0  0
114112  1  0  0  0  0
115112  1  0  0  0  0
116104  4  0  0  0  0
117 93  1  0  0  0  0
118 96  4  0  0  0  0
119118  1  0  0  0  0
120109  1  0  0  0  0
121120  1  0  0  0  0
122120  1  0  0  0  0
123120  1  0  0  0  0
124103  3  0  0  0  0
125 92  1  0  0  0  0
126 93  1  0  0  0  0
127128  1  0  0  0  0
129111  4  0  0  0  0
130129  1  0  0  0  0
131 92  1  0  0  0  0
132117  4  0  0  0  0
133132  1  0  0  0  0
134 93  1  0  0  0  0
135101  4  0  0  0  0
136135  1  0  0  0  0
137109  4  0  0  0  0
138137  1  0  0  0  0
139 98  4  0  0  0  0
140139  1  0  0  0  0
141105  4  0  0  0  0
142111  1  0  0  0  0
143142  1  0  0  0  0
144142  1  0  0  0  0
145142  1  0  0  0  0
146132  4  0  0  0  0
147146  1  0  0  0  0
148127  4  0  0  0  0
149148  1  0  0  0  0
150110  1  0  0  0  0
151150  1  0  0  0  0
152150  1  0  0  0  0
153150  1  0  0  0  0
154116  4  0  0  0  0
155154  1  0  0  0  0
156106  4  0  0  0  0
157141  1  0  0  0  0
158157  1  0  0  0  0
159157  1  0  0  0  0
160157  1  0  0  0  0
161126  4  0  0  0  0
162161  1  0  0  0  0
163139  4  0  0  0  0
164163  1  0  0  0  0
165118  4  0  0  0  0
166165  1  0  0  0  0
167156  1  0  0  0  0
168167  1  0  0  0  0
169167  1  0  0  0  0
170167  1  0  0  0  0
171135  4  0  0  0  0
172171  1  0  0  0  0
173 97  1  0  0  0  0
174173  1  0  0  0  0
175161  4  0  0  0  0
176175  1  0  0  0  0
177124  1  0  0  0  0
178177  1  0  0  0  0
179177  1  0  0  0  0
180177  1  0  0  0  0
  6 36  4  0  0  0  0
  8 27  4  0  0  0  0
 11 44  4  0  0  0  0
 15 83  1  0  0  0  0
 16 83  1  0  0  0  0
 22 26  1  0  0  0  0
 37 44  4  0  0  0  0
 47 66  4  0  0  0  0
 51 64  4  0  0  0  0
 56 73  4  0  0  0  0
 58 81  4  0  0  0  0
 75 85  4  0  0  0  0
 95107  3  0  0  0  0
 96126  4  0  0  0  0
 98117  4  0  0  0  0
 99131  3  0  0  0  0
101134  4  0  0  0  0
105173  1  0  0  0  0
106173  1  0  0  0  0
112116  1  0  0  0  0
127134  4  0  0  0  0
137156  4  0  0  0  0
141154  4  0  0  0  0
146163  4  0  0  0  0
148171  4  0  0  0  0
165175  4  0  0  0  0
M  CHG  4   1   1  87  -1  91   1 177  -1
M  END
$$$$
PEDJAN

From CSD data. Using bond type 'Any'. Matching problem. No disordered atoms. Largest molecule.
174194  0  0  0  0  0  0  0  0999 V2000
   18.2345   25.0327    6.6803 Fe  0  0  0  0  0  0  0  0  0  0  0  0
   16.2326   20.2844    6.4693 Fe  0  0  0  0  0  0  0  0  0  0  0  0
   18.3968   24.3585   11.5562 Se  0  0  0  0  0  0  0  0  0  0  0  0
   20.6427   25.8081    4.3569 P   0  0  0  0  0  0  0  0  0  0  0  0
   18.0885   24.9065    4.4689 N   0  0  0  0  0  0  0  0  0  0  0  0
   16.2236   19.8436    8.3968 N   0  0  0  0  0  0  0  0  0  0  0  0
   13.4323   21.5214    6.6767 N   0  0  0  0  0  0  0  0  0  0  0  0
   15.9615   17.3914    6.6593 N   0  0  0  0  0  0  0  0  0  0  0  0
   17.4331   23.1082    6.7966 N   0  0  0  0  0  0  0  0  0  0  0  0
   15.4133   18.5083    6.0504 N   0  0  0  0  0  0  0  0  0  0  0  0
   21.6782   26.1117    3.3217 O   0  0  0  0  0  0  0  0  0  0  0  0
   20.2483   24.2137    6.4901 N   0  0  0  0  0  0  0  0  0  0  0  0
   18.0498   19.4664    6.3062 N   0  0  0  0  0  0  0  0  0  0  0  0
   18.2702   18.2872    6.9325 N   0  0  0  0  0  0  0  0  0  0  0  0
   16.2266   20.7404    4.5888 C   0  0  0  0  0  0  0  0  0  0  0  0
   19.2384   26.9848    6.3302 N   0  0  0  0  0  0  0  0  0  0  0  0
   16.5990   18.5814    8.8018 N   0  0  0  0  0  0  0  0  0  0  0  0
   16.9535   22.0358    6.7353 C   0  0  0  0  0  0  0  0  0  0  0  0
   19.2592   19.8151    5.7267 C   0  0  0  0  0  0  0  0  0  0  0  0
   19.0865   25.2671    3.6348 C   0  0  0  0  0  0  0  0  0  0  0  0
   15.5146   21.9456    9.6253 C   0  0  0  0  0  0  0  0  0  0  0  0
   15.1063   22.1206   10.4771 H   0  0  0  0  0  0  0  0  0  0  0  0
   14.8785   22.1149    8.9262 H   0  0  0  0  0  0  0  0  0  0  0  0
   16.2769   22.5143    9.5115 H   0  0  0  0  0  0  0  0  0  0  0  0
   16.1700   21.0583    3.4869 N   0  0  0  0  0  0  0  0  0  0  0  0
   14.4213   18.0642    5.1950 C   0  0  0  0  0  0  0  0  0  0  0  0
   18.4400   25.1722    8.7645 N   0  0  0  0  0  0  0  0  0  0  0  0
   18.4102   24.8685    9.8424 C   0  0  0  0  0  0  0  0  0  0  0  0
   14.3618   16.6312    5.3309 C   0  0  0  0  0  0  0  0  0  0  0  0
   13.7567   16.0662    4.9084 H   0  0  0  0  0  0  0  0  0  0  0  0
   15.3538   16.2564    6.1903 C   0  0  0  0  0  0  0  0  0  0  0  0
   19.4082   20.9682    4.7886 C   0  0  0  0  0  0  0  0  0  0  0  0
   19.9009   21.6722    5.2208 H   0  0  0  0  0  0  0  0  0  0  0  0
   18.5398   21.2949    4.5404 H   0  0  0  0  0  0  0  0  0  0  0  0
   19.8804   20.6851    4.0030 H   0  0  0  0  0  0  0  0  0  0  0  0
   20.8262   28.4178    5.1537 C   0  0  0  0  0  0  0  0  0  0  0  0
   21.4892   28.5249    4.5098 H   0  0  0  0  0  0  0  0  0  0  0  0
   20.1768   18.8139    6.0078 C   0  0  0  0  0  0  0  0  0  0  0  0
   21.0670   18.8022    5.7364 H   0  0  0  0  0  0  0  0  0  0  0  0
   21.1300   24.5222    5.5201 C   0  0  0  0  0  0  0  0  0  0  0  0
   20.6206   23.3074    7.3842 C   0  0  0  0  0  0  0  0  0  0  0  0
   20.0498   23.0973    8.0863 H   0  0  0  0  0  0  0  0  0  0  0  0
   14.5196   21.0725    6.6007 C   0  0  0  0  0  0  0  0  0  0  0  0
   15.9436   20.5174    9.5680 C   0  0  0  0  0  0  0  0  0  0  0  0
   22.7774   23.0038    6.3316 C   0  0  0  0  0  0  0  0  0  0  0  0
   23.6306   22.6362    6.2965 H   0  0  0  0  0  0  0  0  0  0  0  0
   20.2006   27.1936    5.3976 C   0  0  0  0  0  0  0  0  0  0  0  0
   22.3514   23.9290    5.4149 C   0  0  0  0  0  0  0  0  0  0  0  0
   22.9085   24.1591    4.7069 H   0  0  0  0  0  0  0  0  0  0  0  0
   21.8927   22.6479    7.2856 C   0  0  0  0  0  0  0  0  0  0  0  0
   22.1095   21.9700    7.8843 H   0  0  0  0  0  0  0  0  0  0  0  0
   20.3823   29.4475    5.9438 C   0  0  0  0  0  0  0  0  0  0  0  0
   20.7884   30.2767    5.8451 H   0  0  0  0  0  0  0  0  0  0  0  0
   16.5632   18.4391   10.1169 C   0  0  0  0  0  0  0  0  0  0  0  0
   18.8869   25.4569    2.2171 C   0  0  0  0  0  0  0  0  0  0  0  0
   19.5581   25.7959    1.6718 H   0  0  0  0  0  0  0  0  0  0  0  0
   16.8850   24.5459    3.9173 C   0  0  0  0  0  0  0  0  0  0  0  0
   16.2198   24.1917    4.4646 H   0  0  0  0  0  0  0  0  0  0  0  0
   19.5631   17.8602    6.7433 C   0  0  0  0  0  0  0  0  0  0  0  0
   17.1173   17.6182    7.6760 B   0  0  0  0  0  0  0  0  0  0  0  0
   17.4054   16.7641    8.0608 H   0  0  0  0  0  0  0  0  0  0  0  0
   18.8183   28.0619    7.0644 C   0  0  0  0  0  0  0  0  0  0  0  0
   18.1512   27.9499    7.7032 H   0  0  0  0  0  0  0  0  0  0  0  0
   13.5813   18.9041    4.3370 C   0  0  0  0  0  0  0  0  0  0  0  0
   13.1764   19.5952    4.8638 H   0  0  0  0  0  0  0  0  0  0  0  0
   12.8950   18.3631    3.9363 H   0  0  0  0  0  0  0  0  0  0  0  0
   14.1204   19.2975    3.6482 H   0  0  0  0  0  0  0  0  0  0  0  0
   16.6377   24.6977    2.5769 C   0  0  0  0  0  0  0  0  0  0  0  0
   15.7894   24.5203    2.2430 H   0  0  0  0  0  0  0  0  0  0  0  0
   16.9148   17.1627   10.8551 C   0  0  0  0  0  0  0  0  0  0  0  0
   16.3783   17.0913   11.6480 H   0  0  0  0  0  0  0  0  0  0  0  0
   17.8436   17.1759   11.0972 H   0  0  0  0  0  0  0  0  0  0  0  0
   16.7447   16.4060   10.2864 H   0  0  0  0  0  0  0  0  0  0  0  0
   19.3844   29.3288    6.8619 C   0  0  0  0  0  0  0  0  0  0  0  0
   19.0877   30.0676    7.3417 H   0  0  0  0  0  0  0  0  0  0  0  0
   15.6993   14.8851    6.6780 C   0  0  0  0  0  0  0  0  0  0  0  0
   16.4763   14.5664    6.2148 H   0  0  0  0  0  0  0  0  0  0  0  0
   14.9621   14.2909    6.5130 H   0  0  0  0  0  0  0  0  0  0  0  0
   15.8780   14.9167    7.6207 H   0  0  0  0  0  0  0  0  0  0  0  0
   16.1402   19.6775   10.6499 C   0  0  0  0  0  0  0  0  0  0  0  0
   16.0173   19.8886   11.5469 H   0  0  0  0  0  0  0  0  0  0  0  0
   17.6476   25.1105    1.7095 C   0  0  0  0  0  0  0  0  0  0  0  0
   17.4908   25.1501    0.7941 H   0  0  0  0  0  0  0  0  0  0  0  0
   20.0695   16.5933    7.3855 C   0  0  0  0  0  0  0  0  0  0  0  0
   20.3991   16.7883    8.2653 H   0  0  0  0  0  0  0  0  0  0  0  0
   20.7766   16.2231    6.8526 H   0  0  0  0  0  0  0  0  0  0  0  0
   19.3510   15.9570    7.4480 H   0  0  0  0  0  0  0  0  0  0  0  0
   11.5555   22.4173    6.6803 Fe  0  0  0  0  0  0  0  0  0  0  0  0
   13.5574   27.1656    6.4693 Fe  0  0  0  0  0  0  0  0  0  0  0  0
   11.3932   23.0915   11.5562 Se  0  0  0  0  0  0  0  0  0  0  0  0
    9.1473   21.6419    4.3569 P   0  0  0  0  0  0  0  0  0  0  0  0
   11.7015   22.5435    4.4689 N   0  0  0  0  0  0  0  0  0  0  0  0
   13.5664   27.6064    8.3968 N   0  0  0  0  0  0  0  0  0  0  0  0
   16.3577   25.9286    6.6767 N   0  0  0  0  0  0  0  0  0  0  0  0
   13.8285   30.0586    6.6593 N   0  0  0  0  0  0  0  0  0  0  0  0
   12.3569   24.3418    6.7966 N   0  0  0  0  0  0  0  0  0  0  0  0
   14.3767   28.9417    6.0504 N   0  0  0  0  0  0  0  0  0  0  0  0
    8.1118   21.3383    3.3217 O   0  0  0  0  0  0  0  0  0  0  0  0
    9.5417   23.2363    6.4901 N   0  0  0  0  0  0  0  0  0  0  0  0
   11.7402   27.9836    6.3062 N   0  0  0  0  0  0  0  0  0  0  0  0
   11.5198   29.1628    6.9325 N   0  0  0  0  0  0  0  0  0  0  0  0
   13.5634   26.7096    4.5888 C   0  0  0  0  0  0  0  0  0  0  0  0
   10.5516   20.4652    6.3302 N   0  0  0  0  0  0  0  0  0  0  0  0
   13.1910   28.8686    8.8018 N   0  0  0  0  0  0  0  0  0  0  0  0
   12.8365   25.4142    6.7353 C   0  0  0  0  0  0  0  0  0  0  0  0
   10.5308   27.6349    5.7267 C   0  0  0  0  0  0  0  0  0  0  0  0
   10.7035   22.1829    3.6348 C   0  0  0  0  0  0  0  0  0  0  0  0
   14.2754   25.5044    9.6253 C   0  0  0  0  0  0  0  0  0  0  0  0
   14.6837   25.3294   10.4771 H   0  0  0  0  0  0  0  0  0  0  0  0
   14.9115   25.3351    8.9262 H   0  0  0  0  0  0  0  0  0  0  0  0
   13.5131   24.9357    9.5115 H   0  0  0  0  0  0  0  0  0  0  0  0
   13.6200   26.3917    3.4869 N   0  0  0  0  0  0  0  0  0  0  0  0
   15.3687   29.3858    5.1950 C   0  0  0  0  0  0  0  0  0  0  0  0
   11.3500   22.2778    8.7645 N   0  0  0  0  0  0  0  0  0  0  0  0
   11.3798   22.5815    9.8424 C   0  0  0  0  0  0  0  0  0  0  0  0
   15.4282   30.8188    5.3309 C   0  0  0  0  0  0  0  0  0  0  0  0
   16.0333   31.3838    4.9084 H   0  0  0  0  0  0  0  0  0  0  0  0
   14.4362   31.1936    6.1903 C   0  0  0  0  0  0  0  0  0  0  0  0
   10.3818   26.4818    4.7886 C   0  0  0  0  0  0  0  0  0  0  0  0
    9.8891   25.7778    5.2208 H   0  0  0  0  0  0  0  0  0  0  0  0
   11.2502   26.1551    4.5404 H   0  0  0  0  0  0  0  0  0  0  0  0
    9.9096   26.7649    4.0030 H   0  0  0  0  0  0  0  0  0  0  0  0
    8.9638   19.0322    5.1537 C   0  0  0  0  0  0  0  0  0  0  0  0
    8.3008   18.9251    4.5098 H   0  0  0  0  0  0  0  0  0  0  0  0
    9.6132   28.6361    6.0078 C   0  0  0  0  0  0  0  0  0  0  0  0
    8.7230   28.6478    5.7364 H   0  0  0  0  0  0  0  0  0  0  0  0
    8.6600   22.9278    5.5201 C   0  0  0  0  0  0  0  0  0  0  0  0
    9.1694   24.1426    7.3842 C   0  0  0  0  0  0  0  0  0  0  0  0
    9.7402   24.3527    8.0863 H   0  0  0  0  0  0  0  0  0  0  0  0
   15.2704   26.3775    6.6007 C   0  0  0  0  0  0  0  0  0  0  0  0
   13.8464   26.9326    9.5680 C   0  0  0  0  0  0  0  0  0  0  0  0
    7.0126   24.4462    6.3316 C   0  0  0  0  0  0  0  0  0  0  0  0
    6.1594   24.8138    6.2965 H   0  0  0  0  0  0  0  0  0  0  0  0
    9.5894   20.2564    5.3976 C   0  0  0  0  0  0  0  0  0  0  0  0
    7.4386   23.5210    5.4149 C   0  0  0  0  0  0  0  0  0  0  0  0
    6.8815   23.2909    4.7069 H   0  0  0  0  0  0  0  0  0  0  0  0
    7.8973   24.8021    7.2856 C   0  0  0  0  0  0  0  0  0  0  0  0
    7.6805   25.4800    7.8843 H   0  0  0  0  0  0  0  0  0  0  0  0
    9.4077   18.0025    5.9438 C   0  0  0  0  0  0  0  0  0  0  0  0
    9.0016   17.1733    5.8451 H   0  0  0  0  0  0  0  0  0  0  0  0
   13.2268   29.0109   10.1169 C   0  0  0  0  0  0  0  0  0  0  0  0
   10.9031   21.9931    2.2171 C   0  0  0  0  0  0  0  0  0  0  0  0
   10.2319   21.6541    1.6718 H   0  0  0  0  0  0  0  0  0  0  0  0
   12.9050   22.9041    3.9173 C   0  0  0  0  0  0  0  0  0  0  0  0
   13.5702   23.2583    4.4646 H   0  0  0  0  0  0  0  0  0  0  0  0
   10.2269   29.5898    6.7433 C   0  0  0  0  0  0  0  0  0  0  0  0
   12.6727   29.8318    7.6760 B   0  0  0  0  0  0  0  0  0  0  0  0
   12.3846   30.6859    8.0608 H   0  0  0  0  0  0  0  0  0  0  0  0
   10.9717   19.3881    7.0644 C   0  0  0  0  0  0  0  0  0  0  0  0
   11.6388   19.5001    7.7032 H   0  0  0  0  0  0  0  0  0  0  0  0
   16.2087   28.5459    4.3370 C   0  0  0  0  0  0  0  0  0  0  0  0
   16.6136   27.8548    4.8638 H   0  0  0  0  0  0  0  0  0  0  0  0
   16.8950   29.0869    3.9363 H   0  0  0  0  0  0  0  0  0  0  0  0
   15.6696   28.1525    3.6482 H   0  0  0  0  0  0  0  0  0  0  0  0
   13.1523   22.7523    2.5769 C   0  0  0  0  0  0  0  0  0  0  0  0
   14.0006   22.9297    2.2430 H   0  0  0  0  0  0  0  0  0  0  0  0
   12.8752   30.2873   10.8551 C   0  0  0  0  0  0  0  0  0  0  0  0
   13.4117   30.3587   11.6480 H   0  0  0  0  0  0  0  0  0  0  0  0
   11.9464   30.2741   11.0972 H   0  0  0  0  0  0  0  0  0  0  0  0
   13.0453   31.0440   10.2864 H   0  0  0  0  0  0  0  0  0  0  0  0
   10.4056   18.1212    6.8619 C   0  0  0  0  0  0  0  0  0  0  0  0
   10.7023   17.3824    7.3417 H   0  0  0  0  0  0  0  0  0  0  0  0
   14.0907   32.5649    6.6780 C   0  0  0  0  0  0  0  0  0  0  0  0
   13.3137   32.8836    6.2148 H   0  0  0  0  0  0  0  0  0  0  0  0
   14.8279   33.1591    6.5130 H   0  0  0  0  0  0  0  0  0  0  0  0
   13.9120   32.5333    7.6207 H   0  0  0  0  0  0  0  0  0  0  0  0
   13.6498   27.7725   10.6499 C   0  0  0  0  0  0  0  0  0  0  0  0
   13.7727   27.5614   11.5469 H   0  0  0  0  0  0  0  0  0  0  0  0
   12.1424   22.3395    1.7095 C   0  0  0  0  0  0  0  0  0  0  0  0
   12.2992   22.2999    0.7941 H   0  0  0  0  0  0  0  0  0  0  0  0
    9.7205   30.8567    7.3855 C   0  0  0  0  0  0  0  0  0  0  0  0
    9.3909   30.6617    8.2653 H   0  0  0  0  0  0  0  0  0  0  0  0
    9.0134   31.2269    6.8526 H   0  0  0  0  0  0  0  0  0  0  0  0
   10.4390   31.4930    7.4480 H   0  0  0  0  0  0  0  0  0  0  0  0
  1  5  1  0  0  0  0
  2  6  1  0  0  0  0
  3 28  2  0  0  0  0
  4 11  2  0  0  0  0
  5 20  4  0  0  0  0
  6 17  4  0  0  0  0
  7 43  3  0  0  0  0
  8 10  4  0  0  0  0
  9  1  1  0  0  0  0
 10  2  1  0  0  0  0
 12  1  1  0  0  0  0
 13  2  1  0  0  0  0
 14 13  4  0  0  0  0
 15  2  1  0  0  0  0
 16  1  1  0  0  0  0
 17 54  4  0  0  0  0
 18  2  1  0  0  0  0
 19 13  4  0  0  0  0
 20  4  1  0  0  0  0
 21 22  1  0  0  0  0
 23 21  1  0  0  0  0
 24 21  1  0  0  0  0
 25 15  3  0  0  0  0
 26 10  4  0  0  0  0
 27  1  1  0  0  0  0
 28 27  2  0  0  0  0
 29 26  4  0  0  0  0
 30 29  1  0  0  0  0
 31  8  4  0  0  0  0
 32 19  1  0  0  0  0
 33 32  1  0  0  0  0
 34 32  1  0  0  0  0
 35 32  1  0  0  0  0
 36 37  1  0  0  0  0
 38 19  4  0  0  0  0
 39 38  1  0  0  0  0
 40  4  1  0  0  0  0
 41 12  4  0  0  0  0
 42 41  1  0  0  0  0
 43  2  1  0  0  0  0
 44  6  4  0  0  0  0
 45 46  1  0  0  0  0
 47  4  1  0  0  0  0
 48 40  4  0  0  0  0
 49 48  1  0  0  0  0
 50 41  4  0  0  0  0
 51 50  1  0  0  0  0
 52 36  4  0  0  0  0
 53 52  1  0  0  0  0
 54 70  1  0  0  0  0
 55 20  4  0  0  0  0
 56 55  1  0  0  0  0
 57  5  4  0  0  0  0
 58 57  1  0  0  0  0
 59 14  4  0  0  0  0
 60  8  1  0  0  0  0
 61 60  1  0  0  0  0
 62 16  4  0  0  0  0
 63 62  1  0  0  0  0
 64 26  1  0  0  0  0
 65 64  1  0  0  0  0
 66 64  1  0  0  0  0
 67 64  1  0  0  0  0
 68 57  4  0  0  0  0
 69 68  1  0  0  0  0
 70 71  1  0  0  0  0
 72 70  1  0  0  0  0
 73 70  1  0  0  0  0
 74 52  4  0  0  0  0
 75 74  1  0  0  0  0
 76 31  1  0  0  0  0
 77 76  1  0  0  0  0
 78 76  1  0  0  0  0
 79 76  1  0  0  0  0
 80 44  4  0  0  0  0
 81 80  1  0  0  0  0
 82 55  4  0  0  0  0
 83 82  1  0  0  0  0
 84 59  1  0  0  0  0
 85 84  1  0  0  0  0
 86 84  1  0  0  0  0
 87 84  1  0  0  0  0
 88  7  1  0  0  0  0
 89 93  1  0  0  0  0
 90115  2  0  0  0  0
 91 98  2  0  0  0  0
 92 88  1  0  0  0  0
 93104  4  0  0  0  0
 94  1  1  0  0  0  0
 95 97  4  0  0  0  0
 96 88  1  0  0  0  0
 97 89  1  0  0  0  0
 99 88  1  0  0  0  0
100 89  1  0  0  0  0
101100  4  0  0  0  0
102 89  1  0  0  0  0
103 88  1  0  0  0  0
104141  4  0  0  0  0
105 89  1  0  0  0  0
106100  4  0  0  0  0
107 91  1  0  0  0  0
108109  1  0  0  0  0
110108  1  0  0  0  0
111108  1  0  0  0  0
112102  3  0  0  0  0
113 97  4  0  0  0  0
114 88  1  0  0  0  0
115114  2  0  0  0  0
116113  4  0  0  0  0
117116  1  0  0  0  0
118 95  4  0  0  0  0
119106  1  0  0  0  0
120119  1  0  0  0  0
121119  1  0  0  0  0
122119  1  0  0  0  0
123124  1  0  0  0  0
125106  4  0  0  0  0
126125  1  0  0  0  0
127 91  1  0  0  0  0
128 99  4  0  0  0  0
129128  1  0  0  0  0
130 89  1  0  0  0  0
131 93  4  0  0  0  0
132133  1  0  0  0  0
134 91  1  0  0  0  0
135127  4  0  0  0  0
136135  1  0  0  0  0
137128  4  0  0  0  0
138137  1  0  0  0  0
139123  4  0  0  0  0
140139  1  0  0  0  0
141157  1  0  0  0  0
142107  4  0  0  0  0
143142  1  0  0  0  0
144 92  4  0  0  0  0
145144  1  0  0  0  0
146101  4  0  0  0  0
147 95  1  0  0  0  0
148147  1  0  0  0  0
149103  4  0  0  0  0
150149  1  0  0  0  0
151113  1  0  0  0  0
152151  1  0  0  0  0
153151  1  0  0  0  0
154151  1  0  0  0  0
155144  4  0  0  0  0
156155  1  0  0  0  0
157158  1  0  0  0  0
159157  1  0  0  0  0
160157  1  0  0  0  0
161139  4  0  0  0  0
162161  1  0  0  0  0
163118  1  0  0  0  0
164163  1  0  0  0  0
165163  1  0  0  0  0
166163  1  0  0  0  0
167131  4  0  0  0  0
168167  1  0  0  0  0
169142  4  0  0  0  0
170169  1  0  0  0  0
171146  1  0  0  0  0
172171  1  0  0  0  0
173171  1  0  0  0  0
174171  1  0  0  0  0
  9 18  3  0  0  0  0
 12 40  4  0  0  0  0
 14 60  1  0  0  0  0
 16 47  4  0  0  0  0
 17 60  1  0  0  0  0
 21 44  1  0  0  0  0
 29 31  4  0  0  0  0
 36 47  4  0  0  0  0
 38 59  4  0  0  0  0
 45 48  4  0  0  0  0
 45 50  4  0  0  0  0
 54 80  4  0  0  0  0
 62 74  4  0  0  0  0
 68 82  4  0  0  0  0
 92107  4  0  0  0  0
 94130  3  0  0  0  0
 96105  3  0  0  0  0
 99127  4  0  0  0  0
101147  1  0  0  0  0
103134  4  0  0  0  0
104147  1  0  0  0  0
108131  1  0  0  0  0
116118  4  0  0  0  0
123134  4  0  0  0  0
125146  4  0  0  0  0
132135  4  0  0  0  0
132137  4  0  0  0  0
141167  4  0  0  0  0
149161  4  0  0  0  0
155169  4  0  0  0  0
M  END
$$$$
PEDJAN01

From CSD data. Using bond type 'Any'. No disordered atoms. Largest molecule.
174194  0  0  0  0  0  0  0  0999 V2000
   17.9051   22.8192    0.7537 Se  0  0  0  0  0  0  0  0  0  0  0  0
   15.7070   26.9532    5.6741 Fe  0  0  0  0  0  0  0  0  0  0  0  0
   17.7971   22.3809    5.6067 Fe  0  0  0  0  0  0  0  0  0  0  0  0
   20.1344   21.5822    7.6996 P   0  0  0  0  0  0  0  0  0  0  0  0
   14.8755   28.7253    6.0299 N   0  0  0  0  0  0  0  0  0  0  0  0
   15.4517   29.8399    5.4072 N   0  0  0  0  0  0  0  0  0  0  0  0
   12.8807   25.6506    5.5464 N   0  0  0  0  0  0  0  0  0  0  0  0
   15.7209   27.3367    3.7440 N   0  0  0  0  0  0  0  0  0  0  0  0
   21.2305   21.2063    8.6547 O   0  0  0  0  0  0  0  0  0  0  0  0
   17.5970   22.4437    7.6287 N   0  0  0  0  0  0  0  0  0  0  0  0
   18.6219   20.5592    5.7304 N   0  0  0  0  0  0  0  0  0  0  0  0
   16.9688   24.1156    5.4965 N   0  0  0  0  0  0  0  0  0  0  0  0
   19.5687   23.2561    5.6712 N   0  0  0  0  0  0  0  0  0  0  0  0
   17.5362   27.7807    5.8210 N   0  0  0  0  0  0  0  0  0  0  0  0
   17.8865   22.3492    3.7217 N   0  0  0  0  0  0  0  0  0  0  0  0
   16.0684   28.6214    3.3434 N   0  0  0  0  0  0  0  0  0  0  0  0
   17.7215   28.9709    5.1169 N   0  0  0  0  0  0  0  0  0  0  0  0
   15.6572   26.3071    8.6993 N   0  0  0  0  0  0  0  0  0  0  0  0
   14.9971   25.2161    2.6182 C   0  0  0  0  0  0  0  0  0  0  0  0
   14.7377   24.9528    1.7110 H   0  0  0  0  0  0  0  0  0  0  0  0
   14.2271   25.1299    3.2174 H   0  0  0  0  0  0  0  0  0  0  0  0
   15.7236   24.6399    2.9321 H   0  0  0  0  0  0  0  0  0  0  0  0
   13.9925   26.1324    5.5451 C   0  0  0  0  0  0  0  0  0  0  0  0
   15.6659   26.5291    7.6024 C   0  0  0  0  0  0  0  0  0  0  0  0
   18.7117   27.4784    6.4214 C   0  0  0  0  0  0  0  0  0  0  0  0
   13.9114   29.1740    6.8812 C   0  0  0  0  0  0  0  0  0  0  0  0
   19.8755   24.2526    4.8187 C   0  0  0  0  0  0  0  0  0  0  0  0
   19.2264   24.5315    4.1815 H   0  0  0  0  0  0  0  0  0  0  0  0
   18.8825   26.3543    7.3633 C   0  0  0  0  0  0  0  0  0  0  0  0
   18.7715   26.6801    8.2815 H   0  0  0  0  0  0  0  0  0  0  0  0
   19.7804   25.9766    7.2576 H   0  0  0  0  0  0  0  0  0  0  0  0
   18.2123   25.6674    7.1757 H   0  0  0  0  0  0  0  0  0  0  0  0
   16.4187   22.8310    8.1515 C   0  0  0  0  0  0  0  0  0  0  0  0
   15.7529   23.2028    7.5835 H   0  0  0  0  0  0  0  0  0  0  0  0
   14.8495   30.9640    5.8460 C   0  0  0  0  0  0  0  0  0  0  0  0
   18.2166   19.5438    4.9316 C   0  0  0  0  0  0  0  0  0  0  0  0
   17.5486   19.7174    4.2802 H   0  0  0  0  0  0  0  0  0  0  0  0
   16.4824   25.1972    5.5005 C   0  0  0  0  0  0  0  0  0  0  0  0
   19.6295   28.4702    6.0995 C   0  0  0  0  0  0  0  0  0  0  0  0
   20.5303   28.5057    6.3985 H   0  0  0  0  0  0  0  0  0  0  0  0
   16.0047   28.7158    1.9653 C   0  0  0  0  0  0  0  0  0  0  0  0
   13.0400   28.3333    7.7482 C   0  0  0  0  0  0  0  0  0  0  0  0
   12.1740   28.1968    7.3085 H   0  0  0  0  0  0  0  0  0  0  0  0
   12.9020   28.7816    8.6082 H   0  0  0  0  0  0  0  0  0  0  0  0
   13.4689   27.4643    7.8982 H   0  0  0  0  0  0  0  0  0  0  0  0
   15.4546   26.6188    2.6077 C   0  0  0  0  0  0  0  0  0  0  0  0
   20.2461   19.0101    6.7458 C   0  0  0  0  0  0  0  0  0  0  0  0
   20.9488   18.8564    7.3670 H   0  0  0  0  0  0  0  0  0  0  0  0
   18.7377   18.2449    5.0183 C   0  0  0  0  0  0  0  0  0  0  0  0
   18.3843   17.5528    4.4703 H   0  0  0  0  0  0  0  0  0  0  0  0
   22.0933   24.5502    5.7527 C   0  0  0  0  0  0  0  0  0  0  0  0
   22.9433   24.9773    5.7421 H   0  0  0  0  0  0  0  0  0  0  0  0
   19.6410   20.2664    6.6197 C   0  0  0  0  0  0  0  0  0  0  0  0
   13.8883   30.6003    6.7748 C   0  0  0  0  0  0  0  0  0  0  0  0
   13.3166   31.1915    7.2521 H   0  0  0  0  0  0  0  0  0  0  0  0
   20.5385   22.9254    6.5895 C   0  0  0  0  0  0  0  0  0  0  0  0
   17.8634   22.5051    2.5525 C   0  0  0  0  0  0  0  0  0  0  0  0
   21.7951   23.5489    6.6920 C   0  0  0  0  0  0  0  0  0  0  0  0
   22.4155   23.3026    7.3680 H   0  0  0  0  0  0  0  0  0  0  0  0
   19.0157   29.3960    5.2679 C   0  0  0  0  0  0  0  0  0  0  0  0
   19.7568   17.9663    5.8919 C   0  0  0  0  0  0  0  0  0  0  0  0
   20.1330   17.0973    5.9324 H   0  0  0  0  0  0  0  0  0  0  0  0
   18.5814   22.0753    8.4313 C   0  0  0  0  0  0  0  0  0  0  0  0
   15.2432   32.3762    5.3993 C   0  0  0  0  0  0  0  0  0  0  0  0
   16.1030   32.3438    4.9286 H   0  0  0  0  0  0  0  0  0  0  0  0
   15.3179   32.9600    6.1796 H   0  0  0  0  0  0  0  0  0  0  0  0
   14.5557   32.7288    4.7915 H   0  0  0  0  0  0  0  0  0  0  0  0
   21.1118   24.8902    4.8476 C   0  0  0  0  0  0  0  0  0  0  0  0
   21.2856   25.5856    4.2222 H   0  0  0  0  0  0  0  0  0  0  0  0
   15.6515   27.4548    1.4740 C   0  0  0  0  0  0  0  0  0  0  0  0
   15.5607   27.2027    0.5621 H   0  0  0  0  0  0  0  0  0  0  0  0
   16.3318   29.9769    1.1994 C   0  0  0  0  0  0  0  0  0  0  0  0
   15.6090   30.6290    1.3200 H   0  0  0  0  0  0  0  0  0  0  0  0
   16.4245   29.7659    0.2472 H   0  0  0  0  0  0  0  0  0  0  0  0
   17.1709   30.3545    1.5347 H   0  0  0  0  0  0  0  0  0  0  0  0
   16.1610   22.6940    9.5125 C   0  0  0  0  0  0  0  0  0  0  0  0
   15.3148   22.9683    9.8487 H   0  0  0  0  0  0  0  0  0  0  0  0
   19.5079   30.7042    4.7030 C   0  0  0  0  0  0  0  0  0  0  0  0
   19.6327   30.6142    3.7308 H   0  0  0  0  0  0  0  0  0  0  0  0
   20.3633   30.9403    5.1168 H   0  0  0  0  0  0  0  0  0  0  0  0
   18.8514   31.4081    4.8798 H   0  0  0  0  0  0  0  0  0  0  0  0
   18.4048   21.8486    9.8133 C   0  0  0  0  0  0  0  0  0  0  0  0
   19.1156   21.4988   10.3370 H   0  0  0  0  0  0  0  0  0  0  0  0
   17.1309   22.1603   10.4255 C   0  0  0  0  0  0  0  0  0  0  0  0
   16.9523   22.0189   11.3486 H   0  0  0  0  0  0  0  0  0  0  0  0
   16.5374   29.6179    4.3602 B   0  0  0  0  0  0  0  0  0  0  0  0
   16.8076   30.4779    3.9286 H   0  0  0  0  0  0  0  0  0  0  0  0
   11.0469   24.4108    0.7537 Se  0  0  0  0  0  0  0  0  0  0  0  0
   13.2450   20.2768    5.6741 Fe  0  0  0  0  0  0  0  0  0  0  0  0
   11.1549   24.8491    5.6067 Fe  0  0  0  0  0  0  0  0  0  0  0  0
    8.8176   25.6478    7.6996 P   0  0  0  0  0  0  0  0  0  0  0  0
   14.0765   18.5047    6.0299 N   0  0  0  0  0  0  0  0  0  0  0  0
   13.5003   17.3901    5.4072 N   0  0  0  0  0  0  0  0  0  0  0  0
   16.0713   21.5794    5.5464 N   0  0  0  0  0  0  0  0  0  0  0  0
   13.2311   19.8933    3.7440 N   0  0  0  0  0  0  0  0  0  0  0  0
    7.7215   26.0237    8.6547 O   0  0  0  0  0  0  0  0  0  0  0  0
   11.3550   24.7863    7.6287 N   0  0  0  0  0  0  0  0  0  0  0  0
   10.3301   26.6708    5.7304 N   0  0  0  0  0  0  0  0  0  0  0  0
   11.9832   23.1144    5.4965 N   0  0  0  0  0  0  0  0  0  0  0  0
    9.3833   23.9739    5.6712 N   0  0  0  0  0  0  0  0  0  0  0  0
   11.4158   19.4493    5.8210 N   0  0  0  0  0  0  0  0  0  0  0  0
   11.0655   24.8808    3.7217 N   0  0  0  0  0  0  0  0  0  0  0  0
   12.8836   18.6086    3.3434 N   0  0  0  0  0  0  0  0  0  0  0  0
   11.2305   18.2591    5.1169 N   0  0  0  0  0  0  0  0  0  0  0  0
   13.2948   20.9229    8.6993 N   0  0  0  0  0  0  0  0  0  0  0  0
   13.9549   22.0139    2.6182 C   0  0  0  0  0  0  0  0  0  0  0  0
   14.2143   22.2772    1.7110 H   0  0  0  0  0  0  0  0  0  0  0  0
   14.7249   22.1001    3.2174 H   0  0  0  0  0  0  0  0  0  0  0  0
   13.2284   22.5901    2.9321 H   0  0  0  0  0  0  0  0  0  0  0  0
   14.9595   21.0976    5.5451 C   0  0  0  0  0  0  0  0  0  0  0  0
   13.2861   20.7009    7.6024 C   0  0  0  0  0  0  0  0  0  0  0  0
   10.2403   19.7516    6.4214 C   0  0  0  0  0  0  0  0  0  0  0  0
   15.0406   18.0560    6.8812 C   0  0  0  0  0  0  0  0  0  0  0  0
    9.0765   22.9774    4.8187 C   0  0  0  0  0  0  0  0  0  0  0  0
    9.7256   22.6985    4.1815 H   0  0  0  0  0  0  0  0  0  0  0  0
   10.0695   20.8757    7.3633 C   0  0  0  0  0  0  0  0  0  0  0  0
   10.1805   20.5499    8.2815 H   0  0  0  0  0  0  0  0  0  0  0  0
    9.1716   21.2534    7.2576 H   0  0  0  0  0  0  0  0  0  0  0  0
   10.7397   21.5626    7.1757 H   0  0  0  0  0  0  0  0  0  0  0  0
   12.5333   24.3990    8.1515 C   0  0  0  0  0  0  0  0  0  0  0  0
   13.1991   24.0272    7.5835 H   0  0  0  0  0  0  0  0  0  0  0  0
   14.1025   16.2660    5.8460 C   0  0  0  0  0  0  0  0  0  0  0  0
   10.7354   27.6862    4.9316 C   0  0  0  0  0  0  0  0  0  0  0  0
   11.4034   27.5126    4.2802 H   0  0  0  0  0  0  0  0  0  0  0  0
   12.4696   22.0328    5.5005 C   0  0  0  0  0  0  0  0  0  0  0  0
    9.3225   18.7598    6.0995 C   0  0  0  0  0  0  0  0  0  0  0  0
    8.4217   18.7243    6.3985 H   0  0  0  0  0  0  0  0  0  0  0  0
   12.9473   18.5142    1.9653 C   0  0  0  0  0  0  0  0  0  0  0  0
   15.9120   18.8967    7.7482 C   0  0  0  0  0  0  0  0  0  0  0  0
   16.7780   19.0332    7.3085 H   0  0  0  0  0  0  0  0  0  0  0  0
   16.0500   18.4484    8.6082 H   0  0  0  0  0  0  0  0  0  0  0  0
   15.4831   19.7657    7.8982 H   0  0  0  0  0  0  0  0  0  0  0  0
   13.4974   20.6112    2.6077 C   0  0  0  0  0  0  0  0  0  0  0  0
    8.7059   28.2199    6.7458 C   0  0  0  0  0  0  0  0  0  0  0  0
    8.0032   28.3736    7.3670 H   0  0  0  0  0  0  0  0  0  0  0  0
   10.2143   28.9851    5.0183 C   0  0  0  0  0  0  0  0  0  0  0  0
   10.5677   29.6772    4.4703 H   0  0  0  0  0  0  0  0  0  0  0  0
    6.8587   22.6798    5.7527 C   0  0  0  0  0  0  0  0  0  0  0  0
    6.0087   22.2527    5.7421 H   0  0  0  0  0  0  0  0  0  0  0  0
    9.3110   26.9636    6.6197 C   0  0  0  0  0  0  0  0  0  0  0  0
   15.0637   16.6297    6.7748 C   0  0  0  0  0  0  0  0  0  0  0  0
   15.6354   16.0385    7.2521 H   0  0  0  0  0  0  0  0  0  0  0  0
    8.4135   24.3046    6.5895 C   0  0  0  0  0  0  0  0  0  0  0  0
   11.0886   24.7249    2.5525 C   0  0  0  0  0  0  0  0  0  0  0  0
    7.1569   23.6811    6.6920 C   0  0  0  0  0  0  0  0  0  0  0  0
    6.5365   23.9274    7.3680 H   0  0  0  0  0  0  0  0  0  0  0  0
    9.9363   17.8340    5.2679 C   0  0  0  0  0  0  0  0  0  0  0  0
    9.1952   29.2637    5.8919 C   0  0  0  0  0  0  0  0  0  0  0  0
    8.8190   30.1327    5.9324 H   0  0  0  0  0  0  0  0  0  0  0  0
   10.3706   25.1547    8.4313 C   0  0  0  0  0  0  0  0  0  0  0  0
   13.7088   14.8538    5.3993 C   0  0  0  0  0  0  0  0  0  0  0  0
   12.8490   14.8862    4.9286 H   0  0  0  0  0  0  0  0  0  0  0  0
   13.6341   14.2700    6.1796 H   0  0  0  0  0  0  0  0  0  0  0  0
   14.3963   14.5012    4.7915 H   0  0  0  0  0  0  0  0  0  0  0  0
    7.8402   22.3398    4.8476 C   0  0  0  0  0  0  0  0  0  0  0  0
    7.6664   21.6444    4.2222 H   0  0  0  0  0  0  0  0  0  0  0  0
   13.3005   19.7752    1.4740 C   0  0  0  0  0  0  0  0  0  0  0  0
   13.3913   20.0273    0.5621 H   0  0  0  0  0  0  0  0  0  0  0  0
   12.6202   17.2531    1.1994 C   0  0  0  0  0  0  0  0  0  0  0  0
   13.3430   16.6010    1.3200 H   0  0  0  0  0  0  0  0  0  0  0  0
   12.5275   17.4641    0.2472 H   0  0  0  0  0  0  0  0  0  0  0  0
   11.7811   16.8755    1.5347 H   0  0  0  0  0  0  0  0  0  0  0  0
   12.7910   24.5360    9.5125 C   0  0  0  0  0  0  0  0  0  0  0  0
   13.6372   24.2617    9.8487 H   0  0  0  0  0  0  0  0  0  0  0  0
    9.4441   16.5258    4.7030 C   0  0  0  0  0  0  0  0  0  0  0  0
    9.3193   16.6158    3.7308 H   0  0  0  0  0  0  0  0  0  0  0  0
    8.5887   16.2897    5.1168 H   0  0  0  0  0  0  0  0  0  0  0  0
   10.1006   15.8219    4.8798 H   0  0  0  0  0  0  0  0  0  0  0  0
   10.5472   25.3814    9.8133 C   0  0  0  0  0  0  0  0  0  0  0  0
    9.8364   25.7312   10.3370 H   0  0  0  0  0  0  0  0  0  0  0  0
   11.8211   25.0697   10.4255 C   0  0  0  0  0  0  0  0  0  0  0  0
   11.9997   25.2111   11.3486 H   0  0  0  0  0  0  0  0  0  0  0  0
   12.4146   17.6121    4.3602 B   0  0  0  0  0  0  0  0  0  0  0  0
   12.1444   16.7521    3.9286 H   0  0  0  0  0  0  0  0  0  0  0  0
  1 57  2  0  0  0  0
  2  5  1  0  0  0  0
  3 10  1  0  0  0  0
  4  9  2  0  0  0  0
  5  6  4  0  0  0  0
  6 35  4  0  0  0  0
  7 23  3  0  0  0  0
  8  2  1  0  0  0  0
 10 33  4  0  0  0  0
 11  3  1  0  0  0  0
 12  3  1  0  0  0  0
 13  3  1  0  0  0  0
 14  2  1  0  0  0  0
 15  3  1  0  0  0  0
 16  8  4  0  0  0  0
 17 14  4  0  0  0  0
 18 24  3  0  0  0  0
 19 20  1  0  0  0  0
 21 19  1  0  0  0  0
 22 19  1  0  0  0  0
 23  2  1  0  0  0  0
 24  2  1  0  0  0  0
 25 14  4  0  0  0  0
 26  5  4  0  0  0  0
 27 13  4  0  0  0  0
 28 27  1  0  0  0  0
 29 25  1  0  0  0  0
 30 29  1  0  0  0  0
 31 29  1  0  0  0  0
 32 29  1  0  0  0  0
 33 34  1  0  0  0  0
 35 54  4  0  0  0  0
 36 11  4  0  0  0  0
 37 36  1  0  0  0  0
 38  2  1  0  0  0  0
 39 25  4  0  0  0  0
 40 39  1  0  0  0  0
 41 16  4  0  0  0  0
 42 26  1  0  0  0  0
 43 42  1  0  0  0  0
 44 42  1  0  0  0  0
 45 42  1  0  0  0  0
 46  8  4  0  0  0  0
 47 48  1  0  0  0  0
 49 36  4  0  0  0  0
 50 49  1  0  0  0  0
 51 52  1  0  0  0  0
 53  4  1  0  0  0  0
 54 26  4  0  0  0  0
 55 54  1  0  0  0  0
 56  4  1  0  0  0  0
 57 15  2  0  0  0  0
 58 51  4  0  0  0  0
 59 58  1  0  0  0  0
 60 17  4  0  0  0  0
 61 47  4  0  0  0  0
 62 61  1  0  0  0  0
 63  4  1  0  0  0  0
 64 35  1  0  0  0  0
 65 64  1  0  0  0  0
 66 64  1  0  0  0  0
 67 64  1  0  0  0  0
 68 27  4  0  0  0  0
 69 68  1  0  0  0  0
 70 41  4  0  0  0  0
 71 70  1  0  0  0  0
 72 41  1  0  0  0  0
 73 72  1  0  0  0  0
 74 72  1  0  0  0  0
 75 72  1  0  0  0  0
 76 33  4  0  0  0  0
 77 76  1  0  0  0  0
 78 60  1  0  0  0  0
 79 78  1  0  0  0  0
 80 78  1  0  0  0  0
 81 78  1  0  0  0  0
 82 63  4  0  0  0  0
 83 82  1  0  0  0  0
 84 76  4  0  0  0  0
 85 84  1  0  0  0  0
 86  6  1  0  0  0  0
 87 86  1  0  0  0  0
 88144  2  0  0  0  0
 89 92  1  0  0  0  0
 90  7  1  0  0  0  0
 91 96  2  0  0  0  0
 92 93  4  0  0  0  0
 93122  4  0  0  0  0
 94  3  1  0  0  0  0
 95 89  1  0  0  0  0
 97 90  1  0  0  0  0
 98 90  1  0  0  0  0
 99 90  1  0  0  0  0
100 90  1  0  0  0  0
101 89  1  0  0  0  0
102 90  1  0  0  0  0
103 95  4  0  0  0  0
104101  4  0  0  0  0
105111  3  0  0  0  0
106107  1  0  0  0  0
108106  1  0  0  0  0
109106  1  0  0  0  0
110 89  1  0  0  0  0
111 89  1  0  0  0  0
112101  4  0  0  0  0
113 92  4  0  0  0  0
114100  4  0  0  0  0
115114  1  0  0  0  0
116112  1  0  0  0  0
117116  1  0  0  0  0
118116  1  0  0  0  0
119116  1  0  0  0  0
120 97  4  0  0  0  0
121120  1  0  0  0  0
122141  4  0  0  0  0
123 98  4  0  0  0  0
124123  1  0  0  0  0
125 89  1  0  0  0  0
126112  4  0  0  0  0
127126  1  0  0  0  0
128103  4  0  0  0  0
129113  1  0  0  0  0
130129  1  0  0  0  0
131129  1  0  0  0  0
132129  1  0  0  0  0
133 95  4  0  0  0  0
134135  1  0  0  0  0
136123  4  0  0  0  0
137136  1  0  0  0  0
138139  1  0  0  0  0
140 91  1  0  0  0  0
141113  4  0  0  0  0
142141  1  0  0  0  0
143 91  1  0  0  0  0
144102  2  0  0  0  0
145138  4  0  0  0  0
146145  1  0  0  0  0
147104  4  0  0  0  0
148134  4  0  0  0  0
149148  1  0  0  0  0
150 91  1  0  0  0  0
151122  1  0  0  0  0
152151  1  0  0  0  0
153151  1  0  0  0  0
154151  1  0  0  0  0
155114  4  0  0  0  0
156155  1  0  0  0  0
157128  4  0  0  0  0
158157  1  0  0  0  0
159128  1  0  0  0  0
160159  1  0  0  0  0
161159  1  0  0  0  0
162159  1  0  0  0  0
163120  4  0  0  0  0
164163  1  0  0  0  0
165147  1  0  0  0  0
166165  1  0  0  0  0
167165  1  0  0  0  0
168165  1  0  0  0  0
169150  4  0  0  0  0
170169  1  0  0  0  0
171163  4  0  0  0  0
172171  1  0  0  0  0
173 93  1  0  0  0  0
174173  1  0  0  0  0
 10 63  4  0  0  0  0
 11 53  4  0  0  0  0
 12 38  3  0  0  0  0
 13 56  4  0  0  0  0
 16 86  1  0  0  0  0
 17 86  1  0  0  0  0
 19 46  1  0  0  0  0
 39 60  4  0  0  0  0
 46 70  4  0  0  0  0
 47 53  4  0  0  0  0
 49 61  4  0  0  0  0
 51 68  4  0  0  0  0
 56 58  4  0  0  0  0
 82 84  4  0  0  0  0
 94110  3  0  0  0  0
 97150  4  0  0  0  0
 98140  4  0  0  0  0
 99125  3  0  0  0  0
100143  4  0  0  0  0
103173  1  0  0  0  0
104173  1  0  0  0  0
106133  1  0  0  0  0
126147  4  0  0  0  0
133157  4  0  0  0  0
134140  4  0  0  0  0
136148  4  0  0  0  0
138155  4  0  0  0  0
143145  4  0  0  0  0
169171  4  0  0  0  0
M  END
$$$$
PEDJOB

From CSD data. Using bond type 'Any'. Matching problem. No disordered atoms. Largest molecule.
174194  0  0  0  0  0  0  0  0999 V2000
   10.7515   34.3842    1.2510 Fe  0  0  0  0  0  0  0  0  0  0  0  0
    6.0455   32.2979    1.0329 Fe  0  0  0  0  0  0  0  0  0  0  0  0
   13.1313   33.5633   -1.1203 P   0  0  0  0  0  0  0  0  0  0  0  0
   10.9562   35.1151    5.9184 S   0  0  0  0  0  0  0  0  0  0  0  0
    7.7912   33.0778    1.1719 C   0  0  0  0  0  0  0  0  0  0  0  0
    8.8316   33.5237    1.2400 N   0  0  0  0  0  0  0  0  0  0  0  0
    4.0152   30.2797    1.5310 N   0  0  0  0  0  0  0  0  0  0  0  0
    4.2075   31.4798    0.8966 N   0  0  0  0  0  0  0  0  0  0  0  0
   12.7960   35.1984    1.0382 N   0  0  0  0  0  0  0  0  0  0  0  0
   10.6076   34.5176   -1.0001 N   0  0  0  0  0  0  0  0  0  0  0  0
    4.8591   35.1151    1.3645 N   0  0  0  0  0  0  0  0  0  0  0  0
    5.3001   34.0583    1.2990 C   0  0  0  0  0  0  0  0  0  0  0  0
   11.7061   32.3874    0.8481 N   0  0  0  0  0  0  0  0  0  0  0  0
    6.3363   29.4111    1.2282 N   0  0  0  0  0  0  0  0  0  0  0  0
    6.9600   28.2924    0.8022 C   0  0  0  0  0  0  0  0  0  0  0  0
    6.8648   30.5141    0.6121 N   0  0  0  0  0  0  0  0  0  0  0  0
    6.0550   32.7719   -0.8455 C   0  0  0  0  0  0  0  0  0  0  0  0
   10.9556   34.2346    3.3071 N   0  0  0  0  0  0  0  0  0  0  0  0
   11.5660   34.1126   -1.8286 C   0  0  0  0  0  0  0  0  0  0  0  0
   14.1495   33.2193   -2.1353 O   0  0  0  0  0  0  0  0  0  0  0  0
    7.8473   30.0686   -0.2084 C   0  0  0  0  0  0  0  0  0  0  0  0
   14.9023   35.4085   -0.1022 C   0  0  0  0  0  0  0  0  0  0  0  0
   15.4569   35.1567   -0.8050 H   0  0  0  0  0  0  0  0  0  0  0  0
    3.0374   31.8143    0.3093 C   0  0  0  0  0  0  0  0  0  0  0  0
    6.0624   33.0745   -1.9478 N   0  0  0  0  0  0  0  0  0  0  0  0
   13.2257   36.1161    1.8954 C   0  0  0  0  0  0  0  0  0  0  0  0
   12.6604   36.3789    2.5857 H   0  0  0  0  0  0  0  0  0  0  0  0
    2.1125   30.8061    0.6095 C   0  0  0  0  0  0  0  0  0  0  0  0
    1.2237   30.7790    0.3370 H   0  0  0  0  0  0  0  0  0  0  0  0
    7.9052   28.6812   -0.1127 C   0  0  0  0  0  0  0  0  0  0  0  0
    8.4781   28.1207   -0.5834 H   0  0  0  0  0  0  0  0  0  0  0  0
    6.8161   33.9425    4.1592 C   0  0  0  0  0  0  0  0  0  0  0  0
    7.7406   33.9575    4.4128 H   0  0  0  0  0  0  0  0  0  0  0  0
    6.3001   34.4410    4.7985 H   0  0  0  0  0  0  0  0  0  0  0  0
    6.7143   34.3370    3.2902 H   0  0  0  0  0  0  0  0  0  0  0  0
    6.5728   26.9108    1.2584 C   0  0  0  0  0  0  0  0  0  0  0  0
    6.8021   26.8032    2.1845 H   0  0  0  0  0  0  0  0  0  0  0  0
    7.0429   26.2576    0.7347 H   0  0  0  0  0  0  0  0  0  0  0  0
    5.6271   26.7900    1.1467 H   0  0  0  0  0  0  0  0  0  0  0  0
    8.6737   30.9352   -1.0971 C   0  0  0  0  0  0  0  0  0  0  0  0
    8.1538   31.6909   -1.3802 H   0  0  0  0  0  0  0  0  0  0  0  0
    8.9515   30.4317   -1.8658 H   0  0  0  0  0  0  0  0  0  0  0  0
    9.4471   31.2401   -0.6174 H   0  0  0  0  0  0  0  0  0  0  0  0
   10.9539   34.5743    4.4004 C   0  0  0  0  0  0  0  0  0  0  0  0
    9.4245   34.8602   -1.5284 C   0  0  0  0  0  0  0  0  0  0  0  0
    8.7426   35.1374   -0.9582 H   0  0  0  0  0  0  0  0  0  0  0  0
   11.3859   33.9845   -3.2023 C   0  0  0  0  0  0  0  0  0  0  0  0
   12.0661   33.6634   -3.7493 H   0  0  0  0  0  0  0  0  0  0  0  0
    2.8487   33.0040   -0.5584 C   0  0  0  0  0  0  0  0  0  0  0  0
    1.9323   33.0495   -0.8435 H   0  0  0  0  0  0  0  0  0  0  0  0
    3.4194   32.9350   -1.3261 H   0  0  0  0  0  0  0  0  0  0  0  0
    3.0688   33.7977   -0.0650 H   0  0  0  0  0  0  0  0  0  0  0  0
   12.8666   29.8818    0.4470 C   0  0  0  0  0  0  0  0  0  0  0  0
   13.2658   29.0497    0.3282 H   0  0  0  0  0  0  0  0  0  0  0  0
   11.3177   31.3302    1.5690 C   0  0  0  0  0  0  0  0  0  0  0  0
   10.6590   31.4481    2.2135 H   0  0  0  0  0  0  0  0  0  0  0  0
   13.6699   34.8597    0.0315 C   0  0  0  0  0  0  0  0  0  0  0  0
    2.7437   29.8795    1.3659 C   0  0  0  0  0  0  0  0  0  0  0  0
    6.3381   32.5504    4.1251 C   0  0  0  0  0  0  0  0  0  0  0  0
    6.0562   31.8724    2.9886 N   0  0  0  0  0  0  0  0  0  0  0  0
   13.2494   30.9324   -0.2897 C   0  0  0  0  0  0  0  0  0  0  0  0
   13.9072   30.8346   -0.9406 H   0  0  0  0  0  0  0  0  0  0  0  0
    5.2019   29.6179    2.2703 B   0  0  0  0  0  0  0  0  0  0  0  0
    4.9330   28.7634    2.6674 H   0  0  0  0  0  0  0  0  0  0  0  0
   12.6542   32.1769   -0.0721 C   0  0  0  0  0  0  0  0  0  0  0  0
    6.1425   31.6785    5.2065 C   0  0  0  0  0  0  0  0  0  0  0  0
    6.2713   31.8859    6.1041 H   0  0  0  0  0  0  0  0  0  0  0  0
    5.6844   30.5955    3.3517 N   0  0  0  0  0  0  0  0  0  0  0  0
    2.2404   28.5640    1.9085 C   0  0  0  0  0  0  0  0  0  0  0  0
    2.7137   27.8422    1.4891 H   0  0  0  0  0  0  0  0  0  0  0  0
    1.3009   28.4802    1.7225 H   0  0  0  0  0  0  0  0  0  0  0  0
    2.3818   28.5329    2.8567 H   0  0  0  0  0  0  0  0  0  0  0  0
   11.8607   30.0596    1.3947 C   0  0  0  0  0  0  0  0  0  0  0  0
   11.5574   29.3417    1.9011 H   0  0  0  0  0  0  0  0  0  0  0  0
    5.7390   30.4912    4.7202 C   0  0  0  0  0  0  0  0  0  0  0  0
    9.1782   34.8182   -2.8654 C   0  0  0  0  0  0  0  0  0  0  0  0
    8.3618   35.0974   -3.2096 H   0  0  0  0  0  0  0  0  0  0  0  0
   10.1901   34.3370   -3.7122 C   0  0  0  0  0  0  0  0  0  0  0  0
   10.0363   34.2677   -4.6259 H   0  0  0  0  0  0  0  0  0  0  0  0
    5.3799   29.2058    5.4215 C   0  0  0  0  0  0  0  0  0  0  0  0
    5.1569   29.3938    6.3362 H   0  0  0  0  0  0  0  0  0  0  0  0
    6.1251   28.6043    5.3891 H   0  0  0  0  0  0  0  0  0  0  0  0
    4.6241   28.8060    4.9840 H   0  0  0  0  0  0  0  0  0  0  0  0
   14.4839   36.7011    1.8076 C   0  0  0  0  0  0  0  0  0  0  0  0
   14.7434   37.3379    2.4338 H   0  0  0  0  0  0  0  0  0  0  0  0
   15.3237   36.3500    0.8219 C   0  0  0  0  0  0  0  0  0  0  0  0
   16.1708   36.7302    0.7614 H   0  0  0  0  0  0  0  0  0  0  0  0
    4.0855   37.0818    1.2510 Fe  0  0  0  0  0  0  0  0  0  0  0  0
    8.7915   39.1681    1.0329 Fe  0  0  0  0  0  0  0  0  0  0  0  0
    1.7057   37.9027   -1.1203 P   0  0  0  0  0  0  0  0  0  0  0  0
    3.8808   36.3509    5.9184 S   0  0  0  0  0  0  0  0  0  0  0  0
    7.0458   38.3882    1.1719 C   0  0  0  0  0  0  0  0  0  0  0  0
    6.0054   37.9423    1.2400 N   0  0  0  0  0  0  0  0  0  0  0  0
   10.8218   41.1863    1.5310 N   0  0  0  0  0  0  0  0  0  0  0  0
   10.6295   39.9862    0.8966 N   0  0  0  0  0  0  0  0  0  0  0  0
    2.0410   36.2676    1.0382 N   0  0  0  0  0  0  0  0  0  0  0  0
    4.2294   36.9484   -1.0001 N   0  0  0  0  0  0  0  0  0  0  0  0
    9.9779   36.3509    1.3645 N   0  0  0  0  0  0  0  0  0  0  0  0
    9.5369   37.4077    1.2990 C   0  0  0  0  0  0  0  0  0  0  0  0
    3.1309   39.0786    0.8481 N   0  0  0  0  0  0  0  0  0  0  0  0
    8.5007   42.0549    1.2282 N   0  0  0  0  0  0  0  0  0  0  0  0
    7.8770   43.1736    0.8022 C   0  0  0  0  0  0  0  0  0  0  0  0
    7.9722   40.9519    0.6121 N   0  0  0  0  0  0  0  0  0  0  0  0
    8.7820   38.6941   -0.8455 C   0  0  0  0  0  0  0  0  0  0  0  0
    3.8814   37.2314    3.3071 N   0  0  0  0  0  0  0  0  0  0  0  0
    3.2710   37.3534   -1.8286 C   0  0  0  0  0  0  0  0  0  0  0  0
    0.6875   38.2467   -2.1353 O   0  0  0  0  0  0  0  0  0  0  0  0
    6.9897   41.3974   -0.2084 C   0  0  0  0  0  0  0  0  0  0  0  0
   -0.0653   36.0575   -0.1022 C   0  0  0  0  0  0  0  0  0  0  0  0
   -0.6199   36.3093   -0.8050 H   0  0  0  0  0  0  0  0  0  0  0  0
   11.7996   39.6517    0.3093 C   0  0  0  0  0  0  0  0  0  0  0  0
    8.7746   38.3915   -1.9478 N   0  0  0  0  0  0  0  0  0  0  0  0
    1.6113   35.3499    1.8954 C   0  0  0  0  0  0  0  0  0  0  0  0
    2.1766   35.0871    2.5857 H   0  0  0  0  0  0  0  0  0  0  0  0
   12.7245   40.6599    0.6095 C   0  0  0  0  0  0  0  0  0  0  0  0
   13.6133   40.6870    0.3370 H   0  0  0  0  0  0  0  0  0  0  0  0
    6.9318   42.7848   -0.1127 C   0  0  0  0  0  0  0  0  0  0  0  0
    6.3589   43.3453   -0.5834 H   0  0  0  0  0  0  0  0  0  0  0  0
    8.0209   37.5235    4.1592 C   0  0  0  0  0  0  0  0  0  0  0  0
    7.0964   37.5085    4.4128 H   0  0  0  0  0  0  0  0  0  0  0  0
    8.5369   37.0250    4.7985 H   0  0  0  0  0  0  0  0  0  0  0  0
    8.1227   37.1290    3.2902 H   0  0  0  0  0  0  0  0  0  0  0  0
    8.2642   44.5552    1.2584 C   0  0  0  0  0  0  0  0  0  0  0  0
    8.0349   44.6628    2.1845 H   0  0  0  0  0  0  0  0  0  0  0  0
    7.7941   45.2084    0.7347 H   0  0  0  0  0  0  0  0  0  0  0  0
    9.2099   44.6760    1.1467 H   0  0  0  0  0  0  0  0  0  0  0  0
    6.1633   40.5308   -1.0971 C   0  0  0  0  0  0  0  0  0  0  0  0
    6.6832   39.7751   -1.3802 H   0  0  0  0  0  0  0  0  0  0  0  0
    5.8855   41.0343   -1.8658 H   0  0  0  0  0  0  0  0  0  0  0  0
    5.3899   40.2259   -0.6174 H   0  0  0  0  0  0  0  0  0  0  0  0
    3.8831   36.8917    4.4004 C   0  0  0  0  0  0  0  0  0  0  0  0
    5.4125   36.6058   -1.5284 C   0  0  0  0  0  0  0  0  0  0  0  0
    6.0944   36.3286   -0.9582 H   0  0  0  0  0  0  0  0  0  0  0  0
    3.4511   37.4815   -3.2023 C   0  0  0  0  0  0  0  0  0  0  0  0
    2.7709   37.8026   -3.7493 H   0  0  0  0  0  0  0  0  0  0  0  0
   11.9883   38.4620   -0.5584 C   0  0  0  0  0  0  0  0  0  0  0  0
   12.9047   38.4165   -0.8435 H   0  0  0  0  0  0  0  0  0  0  0  0
   11.4176   38.5310   -1.3261 H   0  0  0  0  0  0  0  0  0  0  0  0
   11.7682   37.6683   -0.0650 H   0  0  0  0  0  0  0  0  0  0  0  0
    1.9704   41.5842    0.4470 C   0  0  0  0  0  0  0  0  0  0  0  0
    1.5712   42.4163    0.3282 H   0  0  0  0  0  0  0  0  0  0  0  0
    3.5193   40.1358    1.5690 C   0  0  0  0  0  0  0  0  0  0  0  0
    4.1780   40.0179    2.2135 H   0  0  0  0  0  0  0  0  0  0  0  0
    1.1671   36.6063    0.0315 C   0  0  0  0  0  0  0  0  0  0  0  0
   12.0933   41.5865    1.3659 C   0  0  0  0  0  0  0  0  0  0  0  0
    8.4989   38.9156    4.1251 C   0  0  0  0  0  0  0  0  0  0  0  0
    8.7808   39.5936    2.9886 N   0  0  0  0  0  0  0  0  0  0  0  0
    1.5876   40.5336   -0.2897 C   0  0  0  0  0  0  0  0  0  0  0  0
    0.9298   40.6314   -0.9406 H   0  0  0  0  0  0  0  0  0  0  0  0
    9.6351   41.8481    2.2703 B   0  0  0  0  0  0  0  0  0  0  0  0
    9.9040   42.7026    2.6674 H   0  0  0  0  0  0  0  0  0  0  0  0
    2.1828   39.2891   -0.0721 C   0  0  0  0  0  0  0  0  0  0  0  0
    8.6945   39.7875    5.2065 C   0  0  0  0  0  0  0  0  0  0  0  0
    8.5657   39.5801    6.1041 H   0  0  0  0  0  0  0  0  0  0  0  0
    9.1526   40.8705    3.3517 N   0  0  0  0  0  0  0  0  0  0  0  0
   12.5966   42.9020    1.9085 C   0  0  0  0  0  0  0  0  0  0  0  0
   12.1233   43.6238    1.4891 H   0  0  0  0  0  0  0  0  0  0  0  0
   13.5361   42.9858    1.7225 H   0  0  0  0  0  0  0  0  0  0  0  0
   12.4552   42.9331    2.8567 H   0  0  0  0  0  0  0  0  0  0  0  0
    2.9763   41.4064    1.3947 C   0  0  0  0  0  0  0  0  0  0  0  0
    3.2796   42.1243    1.9011 H   0  0  0  0  0  0  0  0  0  0  0  0
    9.0980   40.9748    4.7202 C   0  0  0  0  0  0  0  0  0  0  0  0
    5.6588   36.6478   -2.8654 C   0  0  0  0  0  0  0  0  0  0  0  0
    6.4752   36.3686   -3.2096 H   0  0  0  0  0  0  0  0  0  0  0  0
    4.6469   37.1290   -3.7122 C   0  0  0  0  0  0  0  0  0  0  0  0
    4.8007   37.1983   -4.6259 H   0  0  0  0  0  0  0  0  0  0  0  0
    9.4571   42.2602    5.4215 C   0  0  0  0  0  0  0  0  0  0  0  0
    9.6801   42.0722    6.3362 H   0  0  0  0  0  0  0  0  0  0  0  0
    8.7119   42.8617    5.3891 H   0  0  0  0  0  0  0  0  0  0  0  0
   10.2129   42.6600    4.9840 H   0  0  0  0  0  0  0  0  0  0  0  0
    0.3531   34.7649    1.8076 C   0  0  0  0  0  0  0  0  0  0  0  0
    0.0936   34.1281    2.4338 H   0  0  0  0  0  0  0  0  0  0  0  0
   -0.4867   35.1160    0.8219 C   0  0  0  0  0  0  0  0  0  0  0  0
   -1.3338   34.7358    0.7614 H   0  0  0  0  0  0  0  0  0  0  0  0
  1  6  1  0  0  0  0
  2  5  1  0  0  0  0
  3 19  1  0  0  0  0
  4 44  2  0  0  0  0
  5  6  3  0  0  0  0
  7  8  4  0  0  0  0
  8  2  1  0  0  0  0
  9  1  1  0  0  0  0
 10  1  1  0  0  0  0
 11 12  3  0  0  0  0
 12  2  1  0  0  0  0
 13  1  1  0  0  0  0
 14 15  4  0  0  0  0
 15 30  4  0  0  0  0
 16  2  1  0  0  0  0
 17  2  1  0  0  0  0
 18  1  1  0  0  0  0
 19 10  4  0  0  0  0
 20  3  2  0  0  0  0
 21 16  4  0  0  0  0
 22 23  1  0  0  0  0
 24  8  4  0  0  0  0
 25 17  3  0  0  0  0
 26  9  4  0  0  0  0
 27 26  1  0  0  0  0
 28 24  4  0  0  0  0
 29 28  1  0  0  0  0
 30 21  4  0  0  0  0
 31 30  1  0  0  0  0
 32 33  1  0  0  0  0
 34 32  1  0  0  0  0
 35 32  1  0  0  0  0
 36 15  1  0  0  0  0
 37 36  1  0  0  0  0
 38 36  1  0  0  0  0
 39 36  1  0  0  0  0
 40 21  1  0  0  0  0
 41 40  1  0  0  0  0
 42 40  1  0  0  0  0
 43 40  1  0  0  0  0
 44 18  2  0  0  0  0
 45 10  4  0  0  0  0
 46 45  1  0  0  0  0
 47 19  4  0  0  0  0
 48 47  1  0  0  0  0
 49 24  1  0  0  0  0
 50 49  1  0  0  0  0
 51 49  1  0  0  0  0
 52 49  1  0  0  0  0
 53 54  1  0  0  0  0
 55 13  4  0  0  0  0
 56 55  1  0  0  0  0
 57  3  1  0  0  0  0
 58  7  4  0  0  0  0
 59 32  1  0  0  0  0
 60  2  1  0  0  0  0
 61 53  4  0  0  0  0
 62 61  1  0  0  0  0
 63  7  1  0  0  0  0
 64 63  1  0  0  0  0
 65  3  1  0  0  0  0
 66 59  4  0  0  0  0
 67 66  1  0  0  0  0
 68 60  4  0  0  0  0
 69 58  1  0  0  0  0
 70 69  1  0  0  0  0
 71 69  1  0  0  0  0
 72 69  1  0  0  0  0
 73 53  4  0  0  0  0
 74 73  1  0  0  0  0
 75 66  4  0  0  0  0
 76 45  4  0  0  0  0
 77 76  1  0  0  0  0
 78 47  4  0  0  0  0
 79 78  1  0  0  0  0
 80 75  1  0  0  0  0
 81 80  1  0  0  0  0
 82 80  1  0  0  0  0
 83 80  1  0  0  0  0
 84 26  4  0  0  0  0
 85 84  1  0  0  0  0
 86 22  4  0  0  0  0
 87 86  1  0  0  0  0
 88 11  1  0  0  0  0
 89 92  1  0  0  0  0
 90106  1  0  0  0  0
 91131  2  0  0  0  0
 92 93  3  0  0  0  0
 93 88  1  0  0  0  0
 94 95  4  0  0  0  0
 95 89  1  0  0  0  0
 96 88  1  0  0  0  0
 97 88  1  0  0  0  0
 98  1  1  0  0  0  0
 99 89  1  0  0  0  0
100 88  1  0  0  0  0
101102  4  0  0  0  0
102117  4  0  0  0  0
103 89  1  0  0  0  0
104 89  1  0  0  0  0
105 88  1  0  0  0  0
106 97  4  0  0  0  0
107 90  2  0  0  0  0
108103  4  0  0  0  0
109110  1  0  0  0  0
111 95  4  0  0  0  0
112104  3  0  0  0  0
113 96  4  0  0  0  0
114113  1  0  0  0  0
115111  4  0  0  0  0
116115  1  0  0  0  0
117108  4  0  0  0  0
118117  1  0  0  0  0
119120  1  0  0  0  0
121119  1  0  0  0  0
122119  1  0  0  0  0
123102  1  0  0  0  0
124123  1  0  0  0  0
125123  1  0  0  0  0
126123  1  0  0  0  0
127108  1  0  0  0  0
128127  1  0  0  0  0
129127  1  0  0  0  0
130127  1  0  0  0  0
131105  2  0  0  0  0
132 97  4  0  0  0  0
133132  1  0  0  0  0
134106  4  0  0  0  0
135134  1  0  0  0  0
136111  1  0  0  0  0
137136  1  0  0  0  0
138136  1  0  0  0  0
139136  1  0  0  0  0
140141  1  0  0  0  0
142100  4  0  0  0  0
143142  1  0  0  0  0
144 90  1  0  0  0  0
145 94  4  0  0  0  0
146119  1  0  0  0  0
147 89  1  0  0  0  0
148140  4  0  0  0  0
149148  1  0  0  0  0
150 94  1  0  0  0  0
151150  1  0  0  0  0
152 90  1  0  0  0  0
153146  4  0  0  0  0
154153  1  0  0  0  0
155147  4  0  0  0  0
156145  1  0  0  0  0
157156  1  0  0  0  0
158156  1  0  0  0  0
159156  1  0  0  0  0
160140  4  0  0  0  0
161160  1  0  0  0  0
162153  4  0  0  0  0
163132  4  0  0  0  0
164163  1  0  0  0  0
165134  4  0  0  0  0
166165  1  0  0  0  0
167162  1  0  0  0  0
168167  1  0  0  0  0
169167  1  0  0  0  0
170167  1  0  0  0  0
171113  4  0  0  0  0
172171  1  0  0  0  0
173109  4  0  0  0  0
174173  1  0  0  0  0
  9 57  4  0  0  0  0
 13 65  4  0  0  0  0
 14 16  4  0  0  0  0
 14 63  1  0  0  0  0
 22 57  4  0  0  0  0
 28 58  4  0  0  0  0
 55 73  4  0  0  0  0
 59 60  4  0  0  0  0
 61 65  4  0  0  0  0
 63 68  1  0  0  0  0
 68 75  4  0  0  0  0
 76 78  4  0  0  0  0
 84 86  4  0  0  0  0
 96144  4  0  0  0  0
 98 99  3  0  0  0  0
100152  4  0  0  0  0
101103  4  0  0  0  0
101150  1  0  0  0  0
109144  4  0  0  0  0
115145  4  0  0  0  0
142160  4  0  0  0  0
146147  4  0  0  0  0
148152  4  0  0  0  0
150155  1  0  0  0  0
155162  4  0  0  0  0
163165  4  0  0  0  0
171173  4  0  0  0  0
M  END
$$$$
PEDJOB01

From CSD data. Using bond type 'Any'. Matching problem. No disordered atoms. Largest molecule.
174194  0  0  0  0  0  0  0  0999 V2000
    8.1866   15.1204    7.6253 Fe  0  0  0  0  0  0  0  0  0  0  0  0
   10.5025   10.6932    7.8278 Fe  0  0  0  0  0  0  0  0  0  0  0  0
   12.9355   10.1083    5.7846 P   0  0  0  0  0  0  0  0  0  0  0  0
   10.5751   10.6857   12.5710 S   0  0  0  0  0  0  0  0  0  0  0  0
   14.0538    9.8443    4.8481 O   0  0  0  0  0  0  0  0  0  0  0  0
    5.4517   13.7435    7.8365 N   0  0  0  0  0  0  0  0  0  0  0  0
    7.2904   16.8784    7.2591 N   0  0  0  0  0  0  0  0  0  0  0  0
   12.2347   11.6946    7.8237 N   0  0  0  0  0  0  0  0  0  0  0  0
    8.2421   15.5349    9.5655 N   0  0  0  0  0  0  0  0  0  0  0  0
    9.5659   12.3958    7.9404 N   0  0  0  0  0  0  0  0  0  0  0  0
    7.8594   17.9922    7.8170 N   0  0  0  0  0  0  0  0  0  0  0  0
   10.5828   10.5859    9.7680 N   0  0  0  0  0  0  0  0  0  0  0  0
   10.3502   10.8316    5.8206 N   0  0  0  0  0  0  0  0  0  0  0  0
   11.4288    8.9220    7.6701 N   0  0  0  0  0  0  0  0  0  0  0  0
    8.5573   16.8262    9.9261 N   0  0  0  0  0  0  0  0  0  0  0  0
    9.9828   15.9937    7.4136 N   0  0  0  0  0  0  0  0  0  0  0  0
    6.4814   14.2465    7.7785 C   0  0  0  0  0  0  0  0  0  0  0  0
   10.1879   17.1838    8.0738 N   0  0  0  0  0  0  0  0  0  0  0  0
   10.5814   10.6358   10.9202 C   0  0  0  0  0  0  0  0  0  0  0  0
   13.2248   11.4400    6.9412 C   0  0  0  0  0  0  0  0  0  0  0  0
    9.0292   13.4098    7.8763 C   0  0  0  0  0  0  0  0  0  0  0  0
    8.1444   14.6959    5.7247 C   0  0  0  0  0  0  0  0  0  0  0  0
    8.0439   14.8385   10.6951 C   0  0  0  0  0  0  0  0  0  0  0  0
    8.1290   14.4601    4.6114 N   0  0  0  0  0  0  0  0  0  0  0  0
   12.4309   12.7139    8.6788 C   0  0  0  0  0  0  0  0  0  0  0  0
   11.7618   12.8938    9.3286 H   0  0  0  0  0  0  0  0  0  0  0  0
   11.3944   10.6095    4.9946 C   0  0  0  0  0  0  0  0  0  0  0  0
   11.3252   14.5397    5.8506 C   0  0  0  0  0  0  0  0  0  0  0  0
   11.0591   14.7963    4.9428 H   0  0  0  0  0  0  0  0  0  0  0  0
   10.7718   13.7899    6.1534 H   0  0  0  0  0  0  0  0  0  0  0  0
   12.2677   14.2716    5.8511 H   0  0  0  0  0  0  0  0  0  0  0  0
    6.3017   17.3057    6.4428 C   0  0  0  0  0  0  0  0  0  0  0  0
    7.2409   19.0924    7.3592 C   0  0  0  0  0  0  0  0  0  0  0  0
    7.6447   13.4018   10.7394 C   0  0  0  0  0  0  0  0  0  0  0  0
    8.4215   12.8403   10.5356 H   0  0  0  0  0  0  0  0  0  0  0  0
    6.9402   13.2375   10.0785 H   0  0  0  0  0  0  0  0  0  0  0  0
    7.3099   13.1835   11.6346 H   0  0  0  0  0  0  0  0  0  0  0  0
   14.5823   13.2447    7.7316 C   0  0  0  0  0  0  0  0  0  0  0  0
   15.3692   13.7759    7.6975 H   0  0  0  0  0  0  0  0  0  0  0  0
    9.1929   11.2212    5.2451 C   0  0  0  0  0  0  0  0  0  0  0  0
    8.4359   11.3778    5.7971 H   0  0  0  0  0  0  0  0  0  0  0  0
   11.0327    7.8585    8.4042 C   0  0  0  0  0  0  0  0  0  0  0  0
   10.3247    7.9727    9.0274 H   0  0  0  0  0  0  0  0  0  0  0  0
   11.6179    6.6110    8.2850 C   0  0  0  0  0  0  0  0  0  0  0  0
   11.2984    5.8866    8.8098 H   0  0  0  0  0  0  0  0  0  0  0  0
   13.5682   13.5176    8.6587 C   0  0  0  0  0  0  0  0  0  0  0  0
   13.6549   14.2431    9.2656 H   0  0  0  0  0  0  0  0  0  0  0  0
    6.2305   18.6986    6.4964 C   0  0  0  0  0  0  0  0  0  0  0  0
    5.6169   19.2597    6.0376 H   0  0  0  0  0  0  0  0  0  0  0  0
   11.1375   15.6996    6.7697 C   0  0  0  0  0  0  0  0  0  0  0  0
   14.4043   12.1779    6.8675 C   0  0  0  0  0  0  0  0  0  0  0  0
   15.0758   11.9522    6.2346 H   0  0  0  0  0  0  0  0  0  0  0  0
   12.4540    8.7093    6.7952 C   0  0  0  0  0  0  0  0  0  0  0  0
   11.3622   10.7681    3.6280 C   0  0  0  0  0  0  0  0  0  0  0  0
   12.1303   10.5968    3.0955 H   0  0  0  0  0  0  0  0  0  0  0  0
    8.2429   15.6907   11.7844 C   0  0  0  0  0  0  0  0  0  0  0  0
    8.1760   15.4594   12.7033 H   0  0  0  0  0  0  0  0  0  0  0  0
   13.1044    7.4868    6.6438 C   0  0  0  0  0  0  0  0  0  0  0  0
   13.8291    7.3879    6.0379 H   0  0  0  0  0  0  0  0  0  0  0  0
   11.4493   17.6276    7.8495 C   0  0  0  0  0  0  0  0  0  0  0  0
   11.9744   18.9019    8.3988 C   0  0  0  0  0  0  0  0  0  0  0  0
   11.2285   19.5096    8.5840 H   0  0  0  0  0  0  0  0  0  0  0  0
   12.5778   19.3150    7.7460 H   0  0  0  0  0  0  0  0  0  0  0  0
   12.4641   18.7229    9.2284 H   0  0  0  0  0  0  0  0  0  0  0  0
    7.6820   20.4787    7.7196 C   0  0  0  0  0  0  0  0  0  0  0  0
    7.8299   20.5338    8.6863 H   0  0  0  0  0  0  0  0  0  0  0  0
    6.9890   21.1201    7.4574 H   0  0  0  0  0  0  0  0  0  0  0  0
    8.5157   20.6883    7.2486 H   0  0  0  0  0  0  0  0  0  0  0  0
    9.0050   17.8130    8.8383 B   0  0  0  0  0  0  0  0  0  0  0  0
    9.2661   18.6910    9.2383 H   0  0  0  0  0  0  0  0  0  0  0  0
    9.0725   11.4000    3.8852 C   0  0  0  0  0  0  0  0  0  0  0  0
    8.2388   11.6691    3.5172 H   0  0  0  0  0  0  0  0  0  0  0  0
    5.4344   16.4281    5.6015 C   0  0  0  0  0  0  0  0  0  0  0  0
    5.9912   15.7733    5.1303 H   0  0  0  0  0  0  0  0  0  0  0  0
    4.9516   16.9760    4.9475 H   0  0  0  0  0  0  0  0  0  0  0  0
    4.7915   15.9593    6.1729 H   0  0  0  0  0  0  0  0  0  0  0  0
   12.6556    6.4143    7.4114 C   0  0  0  0  0  0  0  0  0  0  0  0
   13.0631    5.5598    7.3312 H   0  0  0  0  0  0  0  0  0  0  0  0
    8.5539   16.9241   11.2726 C   0  0  0  0  0  0  0  0  0  0  0  0
    8.8241   18.2106   12.0054 C   0  0  0  0  0  0  0  0  0  0  0  0
    8.0893   18.8387   11.8438 H   0  0  0  0  0  0  0  0  0  0  0  0
    9.6634   18.6001   11.6820 H   0  0  0  0  0  0  0  0  0  0  0  0
    8.8957   18.0312   12.9657 H   0  0  0  0  0  0  0  0  0  0  0  0
   12.0704   16.7024    7.0176 C   0  0  0  0  0  0  0  0  0  0  0  0
   12.9584   16.7465    6.6832 H   0  0  0  0  0  0  0  0  0  0  0  0
   10.1577   11.1906    3.0466 C   0  0  0  0  0  0  0  0  0  0  0  0
   10.0875   11.3287    2.1089 H   0  0  0  0  0  0  0  0  0  0  0  0
    6.0514    8.4081    7.6253 Fe  0  0  0  0  0  0  0  0  0  0  0  0
    3.7355   12.8353    7.8278 Fe  0  0  0  0  0  0  0  0  0  0  0  0
    1.3025   13.4202    5.7846 P   0  0  0  0  0  0  0  0  0  0  0  0
    3.6629   12.8428   12.5710 S   0  0  0  0  0  0  0  0  0  0  0  0
    0.1842   13.6842    4.8481 O   0  0  0  0  0  0  0  0  0  0  0  0
    8.7863    9.7850    7.8365 N   0  0  0  0  0  0  0  0  0  0  0  0
    6.9476    6.6501    7.2591 N   0  0  0  0  0  0  0  0  0  0  0  0
    2.0033   11.8339    7.8237 N   0  0  0  0  0  0  0  0  0  0  0  0
    5.9959    7.9936    9.5655 N   0  0  0  0  0  0  0  0  0  0  0  0
    4.6721   11.1327    7.9404 N   0  0  0  0  0  0  0  0  0  0  0  0
    6.3786    5.5363    7.8170 N   0  0  0  0  0  0  0  0  0  0  0  0
    3.6552   12.9426    9.7680 N   0  0  0  0  0  0  0  0  0  0  0  0
    3.8878   12.6969    5.8206 N   0  0  0  0  0  0  0  0  0  0  0  0
    2.8092   14.6065    7.6701 N   0  0  0  0  0  0  0  0  0  0  0  0
    5.6807    6.7023    9.9261 N   0  0  0  0  0  0  0  0  0  0  0  0
    4.2552    7.5348    7.4136 N   0  0  0  0  0  0  0  0  0  0  0  0
    7.7566    9.2820    7.7785 C   0  0  0  0  0  0  0  0  0  0  0  0
    4.0501    6.3447    8.0738 N   0  0  0  0  0  0  0  0  0  0  0  0
    3.6566   12.8927   10.9202 C   0  0  0  0  0  0  0  0  0  0  0  0
    1.0132   12.0885    6.9412 C   0  0  0  0  0  0  0  0  0  0  0  0
    5.2088   10.1187    7.8763 C   0  0  0  0  0  0  0  0  0  0  0  0
    6.0936    8.8326    5.7247 C   0  0  0  0  0  0  0  0  0  0  0  0
    6.1941    8.6900   10.6951 C   0  0  0  0  0  0  0  0  0  0  0  0
    6.1090    9.0684    4.6114 N   0  0  0  0  0  0  0  0  0  0  0  0
    1.8071   10.8146    8.6788 C   0  0  0  0  0  0  0  0  0  0  0  0
    2.4762   10.6347    9.3286 H   0  0  0  0  0  0  0  0  0  0  0  0
    2.8436   12.9190    4.9946 C   0  0  0  0  0  0  0  0  0  0  0  0
    2.9128    8.9888    5.8506 C   0  0  0  0  0  0  0  0  0  0  0  0
    3.1789    8.7322    4.9428 H   0  0  0  0  0  0  0  0  0  0  0  0
    3.4662    9.7386    6.1534 H   0  0  0  0  0  0  0  0  0  0  0  0
    1.9703    9.2569    5.8511 H   0  0  0  0  0  0  0  0  0  0  0  0
    7.9363    6.2228    6.4428 C   0  0  0  0  0  0  0  0  0  0  0  0
    6.9971    4.4361    7.3592 C   0  0  0  0  0  0  0  0  0  0  0  0
    6.5933   10.1267   10.7394 C   0  0  0  0  0  0  0  0  0  0  0  0
    5.8165   10.6882   10.5356 H   0  0  0  0  0  0  0  0  0  0  0  0
    7.2978   10.2910   10.0785 H   0  0  0  0  0  0  0  0  0  0  0  0
    6.9281   10.3450   11.6346 H   0  0  0  0  0  0  0  0  0  0  0  0
   -0.3443   10.2838    7.7316 C   0  0  0  0  0  0  0  0  0  0  0  0
   -1.1312    9.7526    7.6975 H   0  0  0  0  0  0  0  0  0  0  0  0
    5.0451   12.3073    5.2451 C   0  0  0  0  0  0  0  0  0  0  0  0
    5.8021   12.1507    5.7971 H   0  0  0  0  0  0  0  0  0  0  0  0
    3.2053   15.6700    8.4042 C   0  0  0  0  0  0  0  0  0  0  0  0
    3.9133   15.5558    9.0274 H   0  0  0  0  0  0  0  0  0  0  0  0
    2.6201   16.9175    8.2850 C   0  0  0  0  0  0  0  0  0  0  0  0
    2.9396   17.6419    8.8098 H   0  0  0  0  0  0  0  0  0  0  0  0
    0.6698   10.0109    8.6587 C   0  0  0  0  0  0  0  0  0  0  0  0
    0.5831    9.2854    9.2656 H   0  0  0  0  0  0  0  0  0  0  0  0
    8.0075    4.8299    6.4964 C   0  0  0  0  0  0  0  0  0  0  0  0
    8.6211    4.2688    6.0376 H   0  0  0  0  0  0  0  0  0  0  0  0
    3.1005    7.8289    6.7697 C   0  0  0  0  0  0  0  0  0  0  0  0
   -0.1663   11.3506    6.8675 C   0  0  0  0  0  0  0  0  0  0  0  0
   -0.8378   11.5763    6.2346 H   0  0  0  0  0  0  0  0  0  0  0  0
    1.7840   14.8192    6.7952 C   0  0  0  0  0  0  0  0  0  0  0  0
    2.8758   12.7604    3.6280 C   0  0  0  0  0  0  0  0  0  0  0  0
    2.1077   12.9317    3.0955 H   0  0  0  0  0  0  0  0  0  0  0  0
    5.9951    7.8378   11.7844 C   0  0  0  0  0  0  0  0  0  0  0  0
    6.0620    8.0691   12.7033 H   0  0  0  0  0  0  0  0  0  0  0  0
    1.1336   16.0417    6.6438 C   0  0  0  0  0  0  0  0  0  0  0  0
    0.4089   16.1406    6.0379 H   0  0  0  0  0  0  0  0  0  0  0  0
    2.7887    5.9009    7.8495 C   0  0  0  0  0  0  0  0  0  0  0  0
    2.2636    4.6266    8.3988 C   0  0  0  0  0  0  0  0  0  0  0  0
    3.0095    4.0189    8.5840 H   0  0  0  0  0  0  0  0  0  0  0  0
    1.6602    4.2135    7.7460 H   0  0  0  0  0  0  0  0  0  0  0  0
    1.7739    4.8056    9.2284 H   0  0  0  0  0  0  0  0  0  0  0  0
    6.5560    3.0498    7.7196 C   0  0  0  0  0  0  0  0  0  0  0  0
    6.4081    2.9947    8.6863 H   0  0  0  0  0  0  0  0  0  0  0  0
    7.2490    2.4084    7.4574 H   0  0  0  0  0  0  0  0  0  0  0  0
    5.7223    2.8402    7.2486 H   0  0  0  0  0  0  0  0  0  0  0  0
    5.2330    5.7155    8.8383 B   0  0  0  0  0  0  0  0  0  0  0  0
    4.9719    4.8375    9.2383 H   0  0  0  0  0  0  0  0  0  0  0  0
    5.1655   12.1285    3.8852 C   0  0  0  0  0  0  0  0  0  0  0  0
    5.9992   11.8594    3.5172 H   0  0  0  0  0  0  0  0  0  0  0  0
    8.8036    7.1004    5.6015 C   0  0  0  0  0  0  0  0  0  0  0  0
    8.2468    7.7552    5.1303 H   0  0  0  0  0  0  0  0  0  0  0  0
    9.2864    6.5525    4.9475 H   0  0  0  0  0  0  0  0  0  0  0  0
    9.4465    7.5692    6.1729 H   0  0  0  0  0  0  0  0  0  0  0  0
    1.5824   17.1142    7.4114 C   0  0  0  0  0  0  0  0  0  0  0  0
    1.1749   17.9687    7.3312 H   0  0  0  0  0  0  0  0  0  0  0  0
    5.6841    6.6044   11.2726 C   0  0  0  0  0  0  0  0  0  0  0  0
    5.4139    5.3179   12.0054 C   0  0  0  0  0  0  0  0  0  0  0  0
    6.1487    4.6898   11.8438 H   0  0  0  0  0  0  0  0  0  0  0  0
    4.5746    4.9284   11.6820 H   0  0  0  0  0  0  0  0  0  0  0  0
    5.3423    5.4973   12.9657 H   0  0  0  0  0  0  0  0  0  0  0  0
    2.1676    6.8261    7.0176 C   0  0  0  0  0  0  0  0  0  0  0  0
    1.2796    6.7820    6.6832 H   0  0  0  0  0  0  0  0  0  0  0  0
    4.0803   12.3379    3.0466 C   0  0  0  0  0  0  0  0  0  0  0  0
    4.1505   12.1998    2.1089 H   0  0  0  0  0  0  0  0  0  0  0  0
  1  7  1  0  0  0  0
  2  8  1  0  0  0  0
  3  5  2  0  0  0  0
  4 19  2  0  0  0  0
  6 17  3  0  0  0  0
  7 11  4  0  0  0  0
  8 20  4  0  0  0  0
  9  1  1  0  0  0  0
 10  2  1  0  0  0  0
 11 33  4  0  0  0  0
 12  2  1  0  0  0  0
 13  2  1  0  0  0  0
 14  2  1  0  0  0  0
 15  9  4  0  0  0  0
 16  1  1  0  0  0  0
 17  1  1  0  0  0  0
 18 16  4  0  0  0  0
 19 12  2  0  0  0  0
 20  3  1  0  0  0  0
 21  1  1  0  0  0  0
 22  1  1  0  0  0  0
 23  9  4  0  0  0  0
 24 22  3  0  0  0  0
 25  8  4  0  0  0  0
 26 25  1  0  0  0  0
 27  3  1  0  0  0  0
 28 29  1  0  0  0  0
 30 28  1  0  0  0  0
 31 28  1  0  0  0  0
 32  7  4  0  0  0  0
 33 48  4  0  0  0  0
 34 23  1  0  0  0  0
 35 34  1  0  0  0  0
 36 34  1  0  0  0  0
 37 34  1  0  0  0  0
 38 39  1  0  0  0  0
 40 13  4  0  0  0  0
 41 40  1  0  0  0  0
 42 14  4  0  0  0  0
 43 42  1  0  0  0  0
 44 42  4  0  0  0  0
 45 44  1  0  0  0  0
 46 25  4  0  0  0  0
 47 46  1  0  0  0  0
 48 32  4  0  0  0  0
 49 48  1  0  0  0  0
 50 16  4  0  0  0  0
 51 20  4  0  0  0  0
 52 51  1  0  0  0  0
 53  3  1  0  0  0  0
 54 27  4  0  0  0  0
 55 54  1  0  0  0  0
 56 23  4  0  0  0  0
 57 56  1  0  0  0  0
 58 53  4  0  0  0  0
 59 58  1  0  0  0  0
 60 18  4  0  0  0  0
 61 60  1  0  0  0  0
 62 61  1  0  0  0  0
 63 61  1  0  0  0  0
 64 61  1  0  0  0  0
 65 33  1  0  0  0  0
 66 65  1  0  0  0  0
 67 65  1  0  0  0  0
 68 65  1  0  0  0  0
 69 11  1  0  0  0  0
 70 69  1  0  0  0  0
 71 40  4  0  0  0  0
 72 71  1  0  0  0  0
 73 32  1  0  0  0  0
 74 73  1  0  0  0  0
 75 73  1  0  0  0  0
 76 73  1  0  0  0  0
 77 44  4  0  0  0  0
 78 77  1  0  0  0  0
 79 15  4  0  0  0  0
 80 79  1  0  0  0  0
 81 80  1  0  0  0  0
 82 80  1  0  0  0  0
 83 80  1  0  0  0  0
 84 50  4  0  0  0  0
 85 84  1  0  0  0  0
 86 54  4  0  0  0  0
 87 86  1  0  0  0  0
 88 94  1  0  0  0  0
 89  6  1  0  0  0  0
 90 92  2  0  0  0  0
 91106  2  0  0  0  0
 93  2  1  0  0  0  0
 94 98  4  0  0  0  0
 95 89  1  0  0  0  0
 96 88  1  0  0  0  0
 97 89  1  0  0  0  0
 98120  4  0  0  0  0
 99 89  1  0  0  0  0
100 89  1  0  0  0  0
101 89  1  0  0  0  0
102 96  4  0  0  0  0
103 88  1  0  0  0  0
104 88  1  0  0  0  0
105103  4  0  0  0  0
106 99  2  0  0  0  0
107 90  1  0  0  0  0
108 88  1  0  0  0  0
109 88  1  0  0  0  0
110 96  4  0  0  0  0
111109  3  0  0  0  0
112 95  4  0  0  0  0
113112  1  0  0  0  0
114 90  1  0  0  0  0
115116  1  0  0  0  0
117115  1  0  0  0  0
118115  1  0  0  0  0
119 94  4  0  0  0  0
120135  4  0  0  0  0
121110  1  0  0  0  0
122121  1  0  0  0  0
123121  1  0  0  0  0
124121  1  0  0  0  0
125126  1  0  0  0  0
127100  4  0  0  0  0
128127  1  0  0  0  0
129101  4  0  0  0  0
130129  1  0  0  0  0
131129  4  0  0  0  0
132131  1  0  0  0  0
133112  4  0  0  0  0
134133  1  0  0  0  0
135119  4  0  0  0  0
136135  1  0  0  0  0
137103  4  0  0  0  0
138107  4  0  0  0  0
139138  1  0  0  0  0
140 90  1  0  0  0  0
141114  4  0  0  0  0
142141  1  0  0  0  0
143110  4  0  0  0  0
144143  1  0  0  0  0
145140  4  0  0  0  0
146145  1  0  0  0  0
147105  4  0  0  0  0
148147  1  0  0  0  0
149148  1  0  0  0  0
150148  1  0  0  0  0
151148  1  0  0  0  0
152120  1  0  0  0  0
153152  1  0  0  0  0
154152  1  0  0  0  0
155152  1  0  0  0  0
156 98  1  0  0  0  0
157156  1  0  0  0  0
158127  4  0  0  0  0
159158  1  0  0  0  0
160119  1  0  0  0  0
161160  1  0  0  0  0
162160  1  0  0  0  0
163160  1  0  0  0  0
164131  4  0  0  0  0
165164  1  0  0  0  0
166102  4  0  0  0  0
167166  1  0  0  0  0
168167  1  0  0  0  0
169167  1  0  0  0  0
170167  1  0  0  0  0
171137  4  0  0  0  0
172171  1  0  0  0  0
173141  4  0  0  0  0
174173  1  0  0  0  0
 10 21  3  0  0  0  0
 13 27  4  0  0  0  0
 14 53  4  0  0  0  0
 15 69  1  0  0  0  0
 18 69  1  0  0  0  0
 28 50  1  0  0  0  0
 38 46  4  0  0  0  0
 38 51  4  0  0  0  0
 56 79  4  0  0  0  0
 58 77  4  0  0  0  0
 60 84  4  0  0  0  0
 71 86  4  0  0  0  0
 93104  3  0  0  0  0
 95107  4  0  0  0  0
 97108  3  0  0  0  0
100114  4  0  0  0  0
101140  4  0  0  0  0
102156  1  0  0  0  0
105156  1  0  0  0  0
115137  1  0  0  0  0
125133  4  0  0  0  0
125138  4  0  0  0  0
143166  4  0  0  0  0
145164  4  0  0  0  0
147171  4  0  0  0  0
158173  4  0  0  0  0
M  END
$$$$
PEDJOY

From CSD data. Using bond type 'Any'. No disordered atoms. Largest molecule.
141152  0  0  0  0  0  0  0  0999 V2000
    4.4519   16.5859    7.4171 Ti  0  0  0  0  0  0  0  0  0  0  0  0
    1.3867   20.5236    7.5605 Ti  0  0  0  0  0  0  0  0  0  0  0  0
    2.9043   18.5326    7.7092 B   0  0  0  0  0  0  0  0  0  0  0  0
    3.0830   17.7894    8.5767 H   0  0  0  0  0  0  0  0  0  0  0  0
    3.5292   18.3709    6.7393 H   0  0  0  0  0  0  0  0  0  0  0  0
    3.1477   19.6247    8.0309 H   0  0  0  0  0  0  0  0  0  0  0  0
    1.7767   18.4799    7.4352 H   0  0  0  0  0  0  0  0  0  0  0  0
    5.5110   16.3230    5.1689 B   0  0  0  0  0  0  0  0  0  0  0  0
    4.6811   17.0807    5.4572 H   0  0  0  0  0  0  0  0  0  0  0  0
    5.6351   15.6452    6.1054 H   0  0  0  0  0  0  0  0  0  0  0  0
    6.5273   16.6083    5.0759 H   0  0  0  0  0  0  0  0  0  0  0  0
    5.3298   15.8996    4.2133 H   0  0  0  0  0  0  0  0  0  0  0  0
    4.9308   14.9329    9.1891 B   0  0  0  0  0  0  0  0  0  0  0  0
    4.3883   15.9578    9.2940 H   0  0  0  0  0  0  0  0  0  0  0  0
    5.3050   14.9729    8.0905 H   0  0  0  0  0  0  0  0  0  0  0  0
    4.3011   14.0462    9.2940 H   0  0  0  0  0  0  0  0  0  0  0  0
    5.7762   15.0092    9.8659 H   0  0  0  0  0  0  0  0  0  0  0  0
    2.3919   22.7301    8.1382 B   0  0  0  0  0  0  0  0  0  0  0  0
    1.3302   22.5866    7.6973 H   0  0  0  0  0  0  0  0  0  0  0  0
    2.9340   21.7053    8.2216 H   0  0  0  0  0  0  0  0  0  0  0  0
    2.5370   23.1862    9.0938 H   0  0  0  0  0  0  0  0  0  0  0  0
    2.8920   23.3861    7.4614 H   0  0  0  0  0  0  0  0  0  0  0  0
   -0.9737   20.2498    6.7894 B   0  0  0  0  0  0  0  0  0  0  0  0
   -0.2571   21.0784    7.1969 H   0  0  0  0  0  0  0  0  0  0  0  0
   -0.1625   19.4248    6.7917 H   0  0  0  0  0  0  0  0  0  0  0  0
   -1.7729   20.1153    7.5305 H   0  0  0  0  0  0  0  0  0  0  0  0
   -1.3372   20.1153    5.7670 H   0  0  0  0  0  0  0  0  0  0  0  0
    6.5919   17.9529    8.0755 P   0  0  0  0  0  0  0  0  0  0  0  0
    6.7564   18.8124    9.6943 C   0  0  0  0  0  0  0  0  0  0  0  0
    5.6378   18.9978   10.4760 C   0  0  0  0  0  0  0  0  0  0  0  0
    4.7957   18.6634   10.1900 H   0  0  0  0  0  0  0  0  0  0  0  0
    5.7441   19.6774   11.6889 C   0  0  0  0  0  0  0  0  0  0  0  0
    4.9713   19.8046   12.2251 H   0  0  0  0  0  0  0  0  0  0  0  0
    6.9432   20.1571   12.1084 C   0  0  0  0  0  0  0  0  0  0  0  0
    7.0035   20.6095   12.9424 H   0  0  0  0  0  0  0  0  0  0  0  0
    8.0673   19.9954   11.3410 C   0  0  0  0  0  0  0  0  0  0  0  0
    8.9008   20.3352   11.6437 H   0  0  0  0  0  0  0  0  0  0  0  0
    7.9841   19.3321   10.1233 C   0  0  0  0  0  0  0  0  0  0  0  0
    8.7588   19.2304    9.5823 H   0  0  0  0  0  0  0  0  0  0  0  0
    7.0404   19.3103    6.9252 C   0  0  0  0  0  0  0  0  0  0  0  0
    7.0138   18.9796    6.0029 H   0  0  0  0  0  0  0  0  0  0  0  0
    7.9446   19.6283    7.1325 H   0  0  0  0  0  0  0  0  0  0  0  0
    6.4048   20.0481    7.0277 H   0  0  0  0  0  0  0  0  0  0  0  0
    8.0977   16.9281    8.0142 C   0  0  0  0  0  0  0  0  0  0  0  0
    8.1182   16.4284    7.1730 H   0  0  0  0  0  0  0  0  0  0  0  0
    8.0947   16.2994    8.7673 H   0  0  0  0  0  0  0  0  0  0  0  0
    8.8871   17.5041    8.0738 H   0  0  0  0  0  0  0  0  0  0  0  0
    2.4053   15.1548    6.6683 P   0  0  0  0  0  0  0  0  0  0  0  0
    1.0932   14.8730    7.9213 C   0  0  0  0  0  0  0  0  0  0  0  0
    0.1104   15.8160    8.1382 C   0  0  0  0  0  0  0  0  0  0  0  0
    0.0757   16.5974    7.5996 H   0  0  0  0  0  0  0  0  0  0  0  0
   -0.8304   15.6234    9.1414 C   0  0  0  0  0  0  0  0  0  0  0  0
   -1.5084   16.2739    9.2797 H   0  0  0  0  0  0  0  0  0  0  0  0
   -0.7915   14.5114    9.9326 C   0  0  0  0  0  0  0  0  0  0  0  0
   -1.4364   14.3932   10.6213 H   0  0  0  0  0  0  0  0  0  0  0  0
    0.1641   13.5846    9.7324 C   0  0  0  0  0  0  0  0  0  0  0  0
    0.1869   12.8051   10.2758 H   0  0  0  0  0  0  0  0  0  0  0  0
    1.1179   13.7645    8.7339 C   0  0  0  0  0  0  0  0  0  0  0  0
    1.7960   13.1104    8.6124 H   0  0  0  0  0  0  0  0  0  0  0  0
    2.8204   13.4811    6.1173 C   0  0  0  0  0  0  0  0  0  0  0  0
    3.2758   13.0014    6.8418 H   0  0  0  0  0  0  0  0  0  0  0  0
    3.4097   13.5301    5.3381 H   0  0  0  0  0  0  0  0  0  0  0  0
    1.9990   13.0032    5.8790 H   0  0  0  0  0  0  0  0  0  0  0  0
    1.4703   15.7815    5.2332 C   0  0  0  0  0  0  0  0  0  0  0  0
    2.0565   15.8106    4.4492 H   0  0  0  0  0  0  0  0  0  0  0  0
    1.1390   16.6846    5.4286 H   0  0  0  0  0  0  0  0  0  0  0  0
    0.7117   15.1873    5.0521 H   0  0  0  0  0  0  0  0  0  0  0  0
    2.2865   20.9488    5.1465 P   0  0  0  0  0  0  0  0  0  0  0  0
    2.1927   19.6719    3.8201 C   0  0  0  0  0  0  0  0  0  0  0  0
    0.9436   19.3212    3.3220 C   0  0  0  0  0  0  0  0  0  0  0  0
    0.1626   19.7119    3.6961 H   0  0  0  0  0  0  0  0  0  0  0  0
    0.8277   18.4072    2.2830 C   0  0  0  0  0  0  0  0  0  0  0  0
   -0.0248   18.1928    1.9208 H   0  0  0  0  0  0  0  0  0  0  0  0
    1.9701   17.8148    1.7825 C   0  0  0  0  0  0  0  0  0  0  0  0
    1.8967   17.1807    1.0771 H   0  0  0  0  0  0  0  0  0  0  0  0
    3.2060   18.1238    2.2854 C   0  0  0  0  0  0  0  0  0  0  0  0
    3.9859   17.7167    1.9279 H   0  0  0  0  0  0  0  0  0  0  0  0
    3.3050   19.0432    3.3291 C   0  0  0  0  0  0  0  0  0  0  0  0
    4.1568   19.2358    3.7057 H   0  0  0  0  0  0  0  0  0  0  0  0
    4.0232   21.4109    5.0831 C   0  0  0  0  0  0  0  0  0  0  0  0
    4.2466   21.7198    4.1799 H   0  0  0  0  0  0  0  0  0  0  0  0
    4.5763   20.6332    5.3095 H   0  0  0  0  0  0  0  0  0  0  0  0
    4.1938   22.1305    5.7265 H   0  0  0  0  0  0  0  0  0  0  0  0
    1.4787   22.3685    4.3539 C   0  0  0  0  0  0  0  0  0  0  0  0
    1.5669   23.1571    4.9282 H   0  0  0  0  0  0  0  0  0  0  0  0
    0.5302   22.1686    4.2133 H   0  0  0  0  0  0  0  0  0  0  0  0
    1.9059   22.5448    3.4888 H   0  0  0  0  0  0  0  0  0  0  0  0
    0.6845   20.4033   10.0682 P   0  0  0  0  0  0  0  0  0  0  0  0
   -0.0222   21.9524   10.7429 C   0  0  0  0  0  0  0  0  0  0  0  0
   -1.1320   22.4884   10.1137 C   0  0  0  0  0  0  0  0  0  0  0  0
   -1.5172   22.0287    9.3774 H   0  0  0  0  0  0  0  0  0  0  0  0
   -1.6951   23.6877   10.5403 C   0  0  0  0  0  0  0  0  0  0  0  0
   -2.4769   24.0257   10.1185 H   0  0  0  0  0  0  0  0  0  0  0  0
   -1.1069   24.3818   11.5841 C   0  0  0  0  0  0  0  0  0  0  0  0
   -1.4705   25.2123   11.8677 H   0  0  0  0  0  0  0  0  0  0  0  0
    0.0082   23.8676   12.2108 C   0  0  0  0  0  0  0  0  0  0  0  0
    0.4111   24.3437   12.9281 H   0  0  0  0  0  0  0  0  0  0  0  0
    0.5441   22.6556   11.8009 C   0  0  0  0  0  0  0  0  0  0  0  0
    1.3067   22.3031   12.2442 H   0  0  0  0  0  0  0  0  0  0  0  0
   -0.5605   19.1759   10.5617 C   0  0  0  0  0  0  0  0  0  0  0  0
   -0.2285   18.2764   10.3616 H   0  0  0  0  0  0  0  0  0  0  0  0
   -1.3904   19.3358   10.0661 H   0  0  0  0  0  0  0  0  0  0  0  0
   -0.7334   19.2540   11.5221 H   0  0  0  0  0  0  0  0  0  0  0  0
    2.0327   19.9972   11.1933 C   0  0  0  0  0  0  0  0  0  0  0  0
    2.3647   19.0977   10.9931 H   0  0  0  0  0  0  0  0  0  0  0  0
    1.7067   20.0281   12.1179 H   0  0  0  0  0  0  0  0  0  0  0  0
    2.7580   20.6459   11.0813 H   0  0  0  0  0  0  0  0  0  0  0  0
    7.0499   15.6525    3.2267 Li  0  0  0  0  0  0  0  0  0  0  0  0
    8.3260   17.0953    2.8721 O   0  0  0  0  0  0  0  0  0  0  0  0
    8.0534   18.5272    2.9336 C   0  0  0  0  0  0  0  0  0  0  0  0
    8.4714   18.9069    3.7462 H   0  0  0  0  0  0  0  0  0  0  0  0
    7.0763   18.6725    2.9955 H   0  0  0  0  0  0  0  0  0  0  0  0
    8.5773   19.2195    1.7444 C   0  0  0  0  0  0  0  0  0  0  0  0
    8.3905   20.1789    1.8159 H   0  0  0  0  0  0  0  0  0  0  0  0
    8.1456   18.8597    0.9413 H   0  0  0  0  0  0  0  0  0  0  0  0
    9.5454   19.0777    1.6848 H   0  0  0  0  0  0  0  0  0  0  0  0
    9.7302   16.8736    3.0646 C   0  0  0  0  0  0  0  0  0  0  0  0
   10.2305   17.5314    2.5189 H   0  0  0  0  0  0  0  0  0  0  0  0
    9.9572   15.9723    2.7262 H   0  0  0  0  0  0  0  0  0  0  0  0
   10.1807   16.9790    4.4492 C   0  0  0  0  0  0  0  0  0  0  0  0
    9.9188   17.8494    4.8138 H   0  0  0  0  0  0  0  0  0  0  0  0
   11.1568   16.8899    4.4825 H   0  0  0  0  0  0  0  0  0  0  0  0
    9.7708   16.2649    4.9806 H   0  0  0  0  0  0  0  0  0  0  0  0
    5.8866   14.9620    1.7689 O   0  0  0  0  0  0  0  0  0  0  0  0
    6.2622   14.6585    0.4313 C   0  0  0  0  0  0  0  0  0  0  0  0
    5.4541   14.5568   -0.1311 H   0  0  0  0  0  0  0  0  0  0  0  0
    6.7656   13.8063    0.4099 H   0  0  0  0  0  0  0  0  0  0  0  0
    7.1092   15.7597   -0.0929 C   0  0  0  0  0  0  0  0  0  0  0  0
    7.3995   15.5417   -1.0033 H   0  0  0  0  0  0  0  0  0  0  0  0
    7.8944   15.8724    0.4814 H   0  0  0  0  0  0  0  0  0  0  0  0
    6.5921   16.5919   -0.1072 H   0  0  0  0  0  0  0  0  0  0  0  0
    5.0186   13.7972    2.2830 C   0  0  0  0  0  0  0  0  0  0  0  0
    5.2646   12.9541    1.8278 H   0  0  0  0  0  0  0  0  0  0  0  0
    5.1436   13.6791    3.2577 H   0  0  0  0  0  0  0  0  0  0  0  0
    3.6898   14.1407    1.9970 C   0  0  0  0  0  0  0  0  0  0  0  0
    3.0875   13.4756    2.3926 H   0  0  0  0  0  0  0  0  0  0  0  0
    3.5592   14.1625    1.0271 H   0  0  0  0  0  0  0  0  0  0  0  0
    3.4923   15.0238    2.3735 H   0  0  0  0  0  0  0  0  0  0  0  0
    8.2273   14.1007    2.8215 H   0  0  0  0  0  0  0  0  0  0  0  0
    7.8723   14.3006    4.4539 H   0  0  0  0  0  0  0  0  0  0  0  0
    3.7145   24.7380    8.6887 Li  0  0  0  0  0  0  0  0  0  0  0  0
  1  4  1  0  0  0  0
  2  6  1  0  0  0  0
  3  4  1  0  0  0  0
  5  1  1  0  0  0  0
  6  3  1  0  0  0  0
  7  2  1  0  0  0  0
  8  9  1  0  0  0  0
  9  1  1  0  0  0  0
 10  1  1  0  0  0  0
 11  8  1  0  0  0  0
 12  8  1  0  0  0  0
 13 14  1  0  0  0  0
 14  1  1  0  0  0  0
 15  1  1  0  0  0  0
 16 13  1  0  0  0  0
 17 13  1  0  0  0  0
 18 19  1  0  0  0  0
 19  2  1  0  0  0  0
 20  2  1  0  0  0  0
 21 18  1  0  0  0  0
 22 18  1  0  0  0  0
 23 24  1  0  0  0  0
 24  2  1  0  0  0  0
 25  2  1  0  0  0  0
 26 23  1  0  0  0  0
 27 23  1  0  0  0  0
 28  1  1  0  0  0  0
 29 28  1  0  0  0  0
 30 29  4  0  0  0  0
 31 30  1  0  0  0  0
 32 30  4  0  0  0  0
 33 32  1  0  0  0  0
 34 32  4  0  0  0  0
 35 34  1  0  0  0  0
 36 34  4  0  0  0  0
 37 36  1  0  0  0  0
 38 29  4  0  0  0  0
 39 38  1  0  0  0  0
 40 28  1  0  0  0  0
 41 40  1  0  0  0  0
 42 40  1  0  0  0  0
 43 40  1  0  0  0  0
 44 28  1  0  0  0  0
 45 44  1  0  0  0  0
 46 44  1  0  0  0  0
 47 44  1  0  0  0  0
 48  1  1  0  0  0  0
 49 48  1  0  0  0  0
 50 49  4  0  0  0  0
 51 50  1  0  0  0  0
 52 50  4  0  0  0  0
 53 52  1  0  0  0  0
 54 52  4  0  0  0  0
 55 54  1  0  0  0  0
 56 54  4  0  0  0  0
 57 56  1  0  0  0  0
 58 49  4  0  0  0  0
 59 58  1  0  0  0  0
 60 48  1  0  0  0  0
 61 60  1  0  0  0  0
 62 60  1  0  0  0  0
 63 60  1  0  0  0  0
 64 48  1  0  0  0  0
 65 64  1  0  0  0  0
 66 64  1  0  0  0  0
 67 64  1  0  0  0  0
 68  2  1  0  0  0  0
 69 68  1  0  0  0  0
 70 69  4  0  0  0  0
 71 70  1  0  0  0  0
 72 70  4  0  0  0  0
 73 72  1  0  0  0  0
 74 72  4  0  0  0  0
 75 74  1  0  0  0  0
 76 74  4  0  0  0  0
 77 76  1  0  0  0  0
 78 69  4  0  0  0  0
 79 78  1  0  0  0  0
 80 68  1  0  0  0  0
 81 80  1  0  0  0  0
 82 80  1  0  0  0  0
 83 80  1  0  0  0  0
 84 68  1  0  0  0  0
 85 84  1  0  0  0  0
 86 84  1  0  0  0  0
 87 84  1  0  0  0  0
 88  2  1  0  0  0  0
 89 88  1  0  0  0  0
 90 89  4  0  0  0  0
 91 90  1  0  0  0  0
 92 90  4  0  0  0  0
 93 92  1  0  0  0  0
 94 92  4  0  0  0  0
 95 94  1  0  0  0  0
 96 94  4  0  0  0  0
 97 96  1  0  0  0  0
 98 89  4  0  0  0  0
 99 98  1  0  0  0  0
100 88  1  0  0  0  0
101100  1  0  0  0  0
102100  1  0  0  0  0
103100  1  0  0  0  0
104 88  1  0  0  0  0
105104  1  0  0  0  0
106104  1  0  0  0  0
107104  1  0  0  0  0
108 11  1  0  0  0  0
109108  1  0  0  0  0
110109  1  0  0  0  0
111110  1  0  0  0  0
112110  1  0  0  0  0
113110  1  0  0  0  0
114113  1  0  0  0  0
115113  1  0  0  0  0
116113  1  0  0  0  0
117109  1  0  0  0  0
118117  1  0  0  0  0
119117  1  0  0  0  0
120117  1  0  0  0  0
121120  1  0  0  0  0
122120  1  0  0  0  0
123120  1  0  0  0  0
124108  1  0  0  0  0
125124  1  0  0  0  0
126125  1  0  0  0  0
127125  1  0  0  0  0
128125  1  0  0  0  0
129128  1  0  0  0  0
130128  1  0  0  0  0
131128  1  0  0  0  0
132124  1  0  0  0  0
133132  1  0  0  0  0
134132  1  0  0  0  0
135132  1  0  0  0  0
136135  1  0  0  0  0
137135  1  0  0  0  0
138135  1  0  0  0  0
139108  1  0  0  0  0
140108  1  0  0  0  0
141 21  8  0  0  0  0
  3  5  1  0  0  0  0
  3  7  1  0  0  0  0
  8 10  1  0  0  0  0
 12108  1  0  0  0  0
 13 15  1  0  0  0  0
 18 20  1  0  0  0  0
 22141  8  0  0  0  0
 23 25  1  0  0  0  0
 36 38  4  0  0  0  0
 56 58  4  0  0  0  0
 76 78  4  0  0  0  0
 96 98  4  0  0  0  0
M  END
$$$$
PEDWEA

From CSD data. Using bond type 'Any'. No disordered atoms. Largest molecule.
100124  0  0  0  0  0  0  0  0999 V2000
    3.9617    2.4986    1.5113 Ir  0  0  0  0  0  0  0  0  0  0  0  0
    4.1253    4.5953   -0.0454 Au  0  0  0  0  0  0  0  0  0  0  0  0
    3.7576    1.2424   -0.4118 P   0  0  0  0  0  0  0  0  0  0  0  0
    4.1142    6.3607   -1.4424 P   0  0  0  0  0  0  0  0  0  0  0  0
    3.0685    1.3820    3.3873 C   0  0  0  0  0  0  0  0  0  0  0  0
    4.0278    2.6780    3.7810 C   0  0  0  0  0  0  0  0  0  0  0  0
    3.5399    4.1305    2.9809 B   0  0  0  0  0  0  0  0  0  0  0  0
    2.0885    3.6965    1.9794 B   0  0  0  0  0  0  0  0  0  0  0  0
    1.9202    1.8881    2.2425 B   0  0  0  0  0  0  0  0  0  0  0  0
    2.8356    2.0967    4.9531 B   0  0  0  0  0  0  0  0  0  0  0  0
    3.1284    3.8238    4.6827 B   0  0  0  0  0  0  0  0  0  0  0  0
    1.8858    4.4097    3.5942 B   0  0  0  0  0  0  0  0  0  0  0  0
    0.8720    3.0461    3.1388 B   0  0  0  0  0  0  0  0  0  0  0  0
    1.4923    1.6304    3.9788 B   0  0  0  0  0  0  0  0  0  0  0  0
    1.4717    3.1688    4.7753 B   0  0  0  0  0  0  0  0  0  0  0  0
    5.8119    2.5078    1.2283 C   0  0  0  0  0  0  0  0  0  0  0  0
    6.9122    2.5599    1.0795 O   0  0  0  0  0  0  0  0  0  0  0  0
    3.5788   -0.0598    3.4944 C   0  0  0  0  0  0  0  0  0  0  0  0
    5.4391    2.4556    4.3181 C   0  0  0  0  0  0  0  0  0  0  0  0
    2.3774    1.5691   -1.5676 C   0  0  0  0  0  0  0  0  0  0  0  0
    1.2504    2.3114   -1.1902 C   0  0  0  0  0  0  0  0  0  0  0  0
    0.2004    2.4694   -2.0846 C   0  0  0  0  0  0  0  0  0  0  0  0
    0.2565    1.8758   -3.3383 C   0  0  0  0  0  0  0  0  0  0  0  0
    1.3513    1.1611   -3.7066 C   0  0  0  0  0  0  0  0  0  0  0  0
    2.3905    1.0353   -2.8249 C   0  0  0  0  0  0  0  0  0  0  0  0
    3.6159   -0.5614   -0.0744 C   0  0  0  0  0  0  0  0  0  0  0  0
    4.6479   -1.1764    0.5897 C   0  0  0  0  0  0  0  0  0  0  0  0
    4.6070   -2.5446    0.8110 C   0  0  0  0  0  0  0  0  0  0  0  0
    3.5183   -3.2869    0.4118 C   0  0  0  0  0  0  0  0  0  0  0  0
    2.4673   -2.6458   -0.2213 C   0  0  0  0  0  0  0  0  0  0  0  0
    2.5022   -1.3053   -0.4590 C   0  0  0  0  0  0  0  0  0  0  0  0
    5.1723    1.3267   -1.6039 C   0  0  0  0  0  0  0  0  0  0  0  0
    6.0193    0.2792   -1.8452 C   0  0  0  0  0  0  0  0  0  0  0  0
    7.0272    0.4111   -2.7777 C   0  0  0  0  0  0  0  0  0  0  0  0
    7.2379    1.5338   -3.4200 C   0  0  0  0  0  0  0  0  0  0  0  0
    6.4036    2.5891   -3.2404 C   0  0  0  0  0  0  0  0  0  0  0  0
    5.3625    2.4740   -2.3223 C   0  0  0  0  0  0  0  0  0  0  0  0
    3.8101    5.8070   -3.1515 C   0  0  0  0  0  0  0  0  0  0  0  0
    4.7371    5.9036   -4.1330 C   0  0  0  0  0  0  0  0  0  0  0  0
    4.5727    5.3330   -5.3740 C   0  0  0  0  0  0  0  0  0  0  0  0
    3.4022    4.7026   -5.6679 C   0  0  0  0  0  0  0  0  0  0  0  0
    2.4435    4.5738   -4.6646 C   0  0  0  0  0  0  0  0  0  0  0  0
    2.6531    5.1367   -3.4472 C   0  0  0  0  0  0  0  0  0  0  0  0
    5.6474    7.3316   -1.5385 C   0  0  0  0  0  0  0  0  0  0  0  0
    6.8350    6.6598   -1.6256 C   0  0  0  0  0  0  0  0  0  0  0  0
    8.0399    7.3530   -1.7581 C   0  0  0  0  0  0  0  0  0  0  0  0
    8.0151    8.7273   -1.7653 C   0  0  0  0  0  0  0  0  0  0  0  0
    6.8421    9.3976   -1.6565 C   0  0  0  0  0  0  0  0  0  0  0  0
    5.6356    8.7181   -1.5585 C   0  0  0  0  0  0  0  0  0  0  0  0
    2.8098    7.5524   -1.0305 C   0  0  0  0  0  0  0  0  0  0  0  0
    2.4428    7.6981    0.2830 C   0  0  0  0  0  0  0  0  0  0  0  0
    1.4642    8.5847    0.6713 C   0  0  0  0  0  0  0  0  0  0  0  0
    0.8718    9.3577   -0.2885 C   0  0  0  0  0  0  0  0  0  0  0  0
    1.1802    9.2365   -1.5621 C   0  0  0  0  0  0  0  0  0  0  0  0
    2.1583    8.3285   -1.9794 C   0  0  0  0  0  0  0  0  0  0  0  0
    4.0588    4.8836    2.8612 H   0  0  0  0  0  0  0  0  0  0  0  0
    1.5265    4.2302    1.3861 H   0  0  0  0  0  0  0  0  0  0  0  0
    1.3820    0.9847    1.7036 H   0  0  0  0  0  0  0  0  0  0  0  0
    3.2006    1.6228    5.9020 H   0  0  0  0  0  0  0  0  0  0  0  0
    3.5874    4.3192    5.4538 H   0  0  0  0  0  0  0  0  0  0  0  0
    1.6041    5.5340    3.6431 H   0  0  0  0  0  0  0  0  0  0  0  0
   -0.0716    3.1504    2.9138 H   0  0  0  0  0  0  0  0  0  0  0  0
    0.9533    0.7669    4.2491 H   0  0  0  0  0  0  0  0  0  0  0  0
    0.8570    3.3130    5.8403 H   0  0  0  0  0  0  0  0  0  0  0  0
    3.6975   -0.4233    2.6144 H   0  0  0  0  0  0  0  0  0  0  0  0
    2.9399   -0.5890    3.9770 H   0  0  0  0  0  0  0  0  0  0  0  0
    4.4186   -0.0675    3.9606 H   0  0  0  0  0  0  0  0  0  0  0  0
    6.0793    2.7731    3.6776 H   0  0  0  0  0  0  0  0  0  0  0  0
    5.5798    1.5185    4.4723 H   0  0  0  0  0  0  0  0  0  0  0  0
    5.5473    2.9342    5.1436 H   0  0  0  0  0  0  0  0  0  0  0  0
    1.2055    2.7087   -0.3175 H   0  0  0  0  0  0  0  0  0  0  0  0
   -0.5667    2.9894   -1.8343 H   0  0  0  0  0  0  0  0  0  0  0  0
   -0.4802    1.9725   -3.9479 H   0  0  0  0  0  0  0  0  0  0  0  0
    1.3956    0.7500   -4.5721 H   0  0  0  0  0  0  0  0  0  0  0  0
    3.1675    0.5476   -3.1043 H   0  0  0  0  0  0  0  0  0  0  0  0
    5.3963   -0.6611    0.8999 H   0  0  0  0  0  0  0  0  0  0  0  0
    5.3450   -2.9786    1.2446 H   0  0  0  0  0  0  0  0  0  0  0  0
    3.4887   -4.2333    0.5697 H   0  0  0  0  0  0  0  0  0  0  0  0
    1.7011   -3.1550   -0.4971 H   0  0  0  0  0  0  0  0  0  0  0  0
    1.7610   -0.8743   -0.8908 H   0  0  0  0  0  0  0  0  0  0  0  0
    5.9119   -0.5460   -1.3662 H   0  0  0  0  0  0  0  0  0  0  0  0
    7.4425   -0.3436   -2.9610 H   0  0  0  0  0  0  0  0  0  0  0  0
    7.9823    1.6090   -4.0223 H   0  0  0  0  0  0  0  0  0  0  0  0
    6.5300    3.4020   -3.7339 H   0  0  0  0  0  0  0  0  0  0  0  0
    4.7652    3.2148   -2.1935 H   0  0  0  0  0  0  0  0  0  0  0  0
    5.5444    6.3898   -3.9552 H   0  0  0  0  0  0  0  0  0  0  0  0
    5.2752    5.3790   -6.0272 H   0  0  0  0  0  0  0  0  0  0  0  0
    3.2403    4.3545   -6.5479 H   0  0  0  0  0  0  0  0  0  0  0  0
    1.6341    4.0860   -4.8351 H   0  0  0  0  0  0  0  0  0  0  0  0
    1.9714    5.0631   -2.7741 H   0  0  0  0  0  0  0  0  0  0  0  0
    6.8400    5.6996   -1.5966 H   0  0  0  0  0  0  0  0  0  0  0  0
    8.8707    6.8776   -1.8433 H   0  0  0  0  0  0  0  0  0  0  0  0
    8.8369    9.2181   -1.8488 H   0  0  0  0  0  0  0  0  0  0  0  0
    6.8458   10.3578   -1.6474 H   0  0  0  0  0  0  0  0  0  0  0  0
    4.8075    9.2013   -1.5059 H   0  0  0  0  0  0  0  0  0  0  0  0
    2.8792    7.1644    0.9507 H   0  0  0  0  0  0  0  0  0  0  0  0
    1.2047    8.6598    1.5930 H   0  0  0  0  0  0  0  0  0  0  0  0
    0.2127   10.0050   -0.0272 H   0  0  0  0  0  0  0  0  0  0  0  0
    0.7275    9.7780   -2.2135 H   0  0  0  0  0  0  0  0  0  0  0  0
    2.3767    8.2442   -2.9102 H   0  0  0  0  0  0  0  0  0  0  0  0
  1  2  1  0  0  0  0
  2  4  1  0  0  0  0
  3  1  1  0  0  0  0
  4 38  1  0  0  0  0
  5  1  1  0  0  0  0
  6  1  1  0  0  0  0
  7  1  1  0  0  0  0
  8  1  1  0  0  0  0
  9  1  1  0  0  0  0
 10  5  1  0  0  0  0
 11  6  1  0  0  0  0
 12  7  1  0  0  0  0
 13  8  1  0  0  0  0
 14  5  1  0  0  0  0
 15 10  1  0  0  0  0
 16  1  1  0  0  0  0
 17 16  3  0  0  0  0
 18  5  1  0  0  0  0
 19  6  1  0  0  0  0
 20  3  1  0  0  0  0
 21 20  4  0  0  0  0
 22 21  4  0  0  0  0
 23 22  4  0  0  0  0
 24 23  4  0  0  0  0
 25 20  4  0  0  0  0
 26  3  1  0  0  0  0
 27 26  4  0  0  0  0
 28 27  4  0  0  0  0
 29 28  4  0  0  0  0
 30 29  4  0  0  0  0
 31 26  4  0  0  0  0
 32  3  1  0  0  0  0
 33 32  4  0  0  0  0
 34 33  4  0  0  0  0
 35 34  4  0  0  0  0
 36 35  4  0  0  0  0
 37 32  4  0  0  0  0
 38 39  4  0  0  0  0
 39 40  4  0  0  0  0
 40 41  4  0  0  0  0
 41 42  4  0  0  0  0
 42 43  4  0  0  0  0
 43 38  4  0  0  0  0
 44  4  1  0  0  0  0
 45 44  4  0  0  0  0
 46 45  4  0  0  0  0
 47 46  4  0  0  0  0
 48 47  4  0  0  0  0
 49 44  4  0  0  0  0
 50  4  1  0  0  0  0
 51 50  4  0  0  0  0
 52 51  4  0  0  0  0
 53 52  4  0  0  0  0
 54 53  4  0  0  0  0
 55 50  4  0  0  0  0
 56  7  1  0  0  0  0
 57  8  1  0  0  0  0
 58  9  1  0  0  0  0
 59 10  1  0  0  0  0
 60 11  1  0  0  0  0
 61 12  1  0  0  0  0
 62 13  1  0  0  0  0
 63 14  1  0  0  0  0
 64 15  1  0  0  0  0
 65 18  1  0  0  0  0
 66 18  1  0  0  0  0
 67 18  1  0  0  0  0
 68 19  1  0  0  0  0
 69 19  1  0  0  0  0
 70 19  1  0  0  0  0
 71 21  1  0  0  0  0
 72 22  1  0  0  0  0
 73 23  1  0  0  0  0
 74 24  1  0  0  0  0
 75 25  1  0  0  0  0
 76 27  1  0  0  0  0
 77 28  1  0  0  0  0
 78 29  1  0  0  0  0
 79 30  1  0  0  0  0
 80 31  1  0  0  0  0
 81 33  1  0  0  0  0
 82 34  1  0  0  0  0
 83 35  1  0  0  0  0
 84 36  1  0  0  0  0
 85 37  1  0  0  0  0
 86 39  1  0  0  0  0
 87 40  1  0  0  0  0
 88 41  1  0  0  0  0
 89 42  1  0  0  0  0
 90 43  1  0  0  0  0
 91 45  1  0  0  0  0
 92 46  1  0  0  0  0
 93 47  1  0  0  0  0
 94 48  1  0  0  0  0
 95 49  1  0  0  0  0
 96 51  1  0  0  0  0
 97 52  1  0  0  0  0
 98 53  1  0  0  0  0
 99 54  1  0  0  0  0
100 55  1  0  0  0  0
  5  6  1  0  0  0  0
  5  9  1  0  0  0  0
  6  7  1  0  0  0  0
  6 10  1  0  0  0  0
  7  8  1  0  0  0  0
  7 11  1  0  0  0  0
  8  9  1  0  0  0  0
  8 12  1  0  0  0  0
  9 13  1  0  0  0  0
  9 14  1  0  0  0  0
 10 11  1  0  0  0  0
 10 14  1  0  0  0  0
 11 12  1  0  0  0  0
 11 15  1  0  0  0  0
 12 13  1  0  0  0  0
 12 15  1  0  0  0  0
 13 14  1  0  0  0  0
 13 15  1  0  0  0  0
 14 15  1  0  0  0  0
 24 25  4  0  0  0  0
 30 31  4  0  0  0  0
 36 37  4  0  0  0  0
 48 49  4  0  0  0  0
 54 55  4  0  0  0  0
M  END
$$$$
PEFPUL

From CSD data. Using bond type 'Any'. No disordered atoms. Largest molecule.
128137  0  0  0  0  0  0  0  0999 V2000
    1.1578    9.3338   15.8363 P   0  0  0  0  0  0  0  0  0  0  0  0
    0.8606    6.4582   15.8363 P   0  0  0  0  0  0  0  0  0  0  0  0
    0.7170    7.9658   14.6010 B   0  0  0  0  0  0  0  0  0  0  0  0
    0.3947    8.0207   13.2370 N   0  0  0  0  0  0  0  0  0  0  0  0
    0.4469    9.2949   12.5465 C   0  0  0  0  0  0  0  0  0  0  0  0
    1.3627    9.2583   11.3261 C   0  0  0  0  0  0  0  0  0  0  0  0
   -0.8988    9.8325   12.1812 C   0  0  0  0  0  0  0  0  0  0  0  0
   -0.0884    6.8814   12.4452 C   0  0  0  0  0  0  0  0  0  0  0  0
    0.9460    5.7764   12.3797 C   0  0  0  0  0  0  0  0  0  0  0  0
   -1.4290    6.3644   12.9245 C   0  0  0  0  0  0  0  0  0  0  0  0
    3.9776   12.2117   15.8363 P   0  0  0  0  0  0  0  0  0  0  0  0
    3.5719   15.0942   15.8363 P   0  0  0  0  0  0  0  0  0  0  0  0
    4.1132   13.6736   14.6221 B   0  0  0  0  0  0  0  0  0  0  0  0
    4.4928   13.7925   13.2834 N   0  0  0  0  0  0  0  0  0  0  0  0
    4.5109   15.0942   12.6014 C   0  0  0  0  0  0  0  0  0  0  0  0
    3.6824   15.0920   11.3113 C   0  0  0  0  0  0  0  0  0  0  0  0
    5.9178   15.5769   12.3417 C   0  0  0  0  0  0  0  0  0  0  0  0
    4.9848   12.6647   12.4790 C   0  0  0  0  0  0  0  0  0  0  0  0
    3.9134   11.6215   12.2678 C   0  0  0  0  0  0  0  0  0  0  0  0
    6.2572   12.0722   13.0406 C   0  0  0  0  0  0  0  0  0  0  0  0
    4.4586    7.7210   13.6487 C   0  0  0  0  0  0  0  0  0  0  0  0
    4.8714    8.7138   14.5060 O   0  0  0  0  0  0  0  0  0  0  0  0
    6.0573    8.4027   15.2070 C   0  0  0  0  0  0  0  0  0  0  0  0
    0.6306   13.5546   13.4334 C   0  0  0  0  0  0  0  0  0  0  0  0
    0.2159   12.8271   14.5123 O   0  0  0  0  0  0  0  0  0  0  0  0
   -0.7672   13.4929   15.2260 C   0  0  0  0  0  0  0  0  0  0  0  0
    3.6734    9.6815   15.8363 Li  0  0  0  0  0  0  0  0  0  0  0  0
    1.3356   11.8663   15.8363 Li  0  0  0  0  0  0  0  0  0  0  0  0
   -0.3083    5.8199   15.8363 H   0  0  0  0  0  0  0  0  0  0  0  0
    0.8265    9.9012   13.1863 H   0  0  0  0  0  0  0  0  0  0  0  0
    1.3587   10.1208   10.9038 H   0  0  0  0  0  0  0  0  0  0  0  0
    1.0494    8.5972   10.7053 H   0  0  0  0  0  0  0  0  0  0  0  0
    2.2564    9.0410   11.6006 H   0  0  0  0  0  0  0  0  0  0  0  0
   -0.7953   10.6721   11.7273 H   0  0  0  0  0  0  0  0  0  0  0  0
   -1.4159    9.9629   12.9794 H   0  0  0  0  0  0  0  0  0  0  0  0
   -1.3496    9.2103   11.6048 H   0  0  0  0  0  0  0  0  0  0  0  0
   -0.2360    7.2108   11.5562 H   0  0  0  0  0  0  0  0  0  0  0  0
    0.6015    5.0467   11.8582 H   0  0  0  0  0  0  0  0  0  0  0  0
    1.1478    5.4699   13.2666 H   0  0  0  0  0  0  0  0  0  0  0  0
    1.7453    6.1150   11.9680 H   0  0  0  0  0  0  0  0  0  0  0  0
   -1.6991    5.6255   12.3755 H   0  0  0  0  0  0  0  0  0  0  0  0
   -2.0857    7.0621   12.8675 H   0  0  0  0  0  0  0  0  0  0  0  0
   -1.3496    6.0716   13.8367 H   0  0  0  0  0  0  0  0  0  0  0  0
    4.5440   15.7828   15.8363 H   0  0  0  0  0  0  0  0  0  0  0  0
    4.0911   15.7142   13.2032 H   0  0  0  0  0  0  0  0  0  0  0  0
    3.7226   15.9613   10.9059 H   0  0  0  0  0  0  0  0  0  0  0  0
    2.7696   14.8769   11.5140 H   0  0  0  0  0  0  0  0  0  0  0  0
    4.0379   14.4400   10.7032 H   0  0  0  0  0  0  0  0  0  0  0  0
    5.8866   16.4280   11.8962 H   0  0  0  0  0  0  0  0  0  0  0  0
    6.3767   14.9433   11.7864 H   0  0  0  0  0  0  0  0  0  0  0  0
    6.3847   15.6685   13.1758 H   0  0  0  0  0  0  0  0  0  0  0  0
    5.2068   13.0193   11.6154 H   0  0  0  0  0  0  0  0  0  0  0  0
    4.2679   10.9032   11.7378 H   0  0  0  0  0  0  0  0  0  0  0  0
    3.1652   12.0150   11.8117 H   0  0  0  0  0  0  0  0  0  0  0  0
    3.6282   11.2829   13.1187 H   0  0  0  0  0  0  0  0  0  0  0  0
    6.5414   11.3424   12.4853 H   0  0  0  0  0  0  0  0  0  0  0  0
    6.0975   11.7519   13.9317 H   0  0  0  0  0  0  0  0  0  0  0  0
    6.9420   12.7448   13.0596 H   0  0  0  0  0  0  0  0  0  0  0  0
    3.6282    7.9635   13.2328 H   0  0  0  0  0  0  0  0  0  0  0  0
    5.1274    7.5860   12.9731 H   0  0  0  0  0  0  0  0  0  0  0  0
    4.3422    6.9111   14.1492 H   0  0  0  0  0  0  0  0  0  0  0  0
    6.7964    9.0158   14.9177 H   0  0  0  0  0  0  0  0  0  0  0  0
    6.4068    7.5220   14.9177 H   0  0  0  0  0  0  0  0  0  0  0  0
    1.2824   13.0422   12.9498 H   0  0  0  0  0  0  0  0  0  0  0  0
   -0.1105   13.7537   12.8569 H   0  0  0  0  0  0  0  0  0  0  0  0
    1.0283   14.3736   13.7395 H   0  0  0  0  0  0  0  0  0  0  0  0
   -1.6539   13.1794   14.9431 H   0  0  0  0  0  0  0  0  0  0  0  0
   -0.7793   14.4491   14.9431 H   0  0  0  0  0  0  0  0  0  0  0  0
    0.7170    7.9658   17.0715 B   0  0  0  0  0  0  0  0  0  0  0  0
    4.8714    8.7138   17.1665 O   0  0  0  0  0  0  0  0  0  0  0  0
    6.0573    8.4027   16.4655 C   0  0  0  0  0  0  0  0  0  0  0  0
    4.1132   13.6736   17.0504 B   0  0  0  0  0  0  0  0  0  0  0  0
    0.2159   12.8271   17.1602 O   0  0  0  0  0  0  0  0  0  0  0  0
   -0.7672   13.4929   16.4465 C   0  0  0  0  0  0  0  0  0  0  0  0
    0.3947    8.0207   18.4355 N   0  0  0  0  0  0  0  0  0  0  0  0
    4.4586    7.7210   18.0238 C   0  0  0  0  0  0  0  0  0  0  0  0
    6.7964    9.0158   16.7548 H   0  0  0  0  0  0  0  0  0  0  0  0
    6.4068    7.5220   16.7548 H   0  0  0  0  0  0  0  0  0  0  0  0
    4.4928   13.7925   18.3891 N   0  0  0  0  0  0  0  0  0  0  0  0
    0.6306   13.5546   18.2391 C   0  0  0  0  0  0  0  0  0  0  0  0
   -1.6539   13.1794   16.7294 H   0  0  0  0  0  0  0  0  0  0  0  0
   -0.7793   14.4491   16.7294 H   0  0  0  0  0  0  0  0  0  0  0  0
    0.4469    9.2949   19.1260 C   0  0  0  0  0  0  0  0  0  0  0  0
   -0.0884    6.8814   19.2273 C   0  0  0  0  0  0  0  0  0  0  0  0
    3.6282    7.9635   18.4397 H   0  0  0  0  0  0  0  0  0  0  0  0
    5.1274    7.5860   18.6994 H   0  0  0  0  0  0  0  0  0  0  0  0
    4.3422    6.9111   17.5233 H   0  0  0  0  0  0  0  0  0  0  0  0
    4.5109   15.0942   19.0711 C   0  0  0  0  0  0  0  0  0  0  0  0
    4.9848   12.6647   19.1935 C   0  0  0  0  0  0  0  0  0  0  0  0
    1.2824   13.0422   18.7227 H   0  0  0  0  0  0  0  0  0  0  0  0
   -0.1105   13.7537   18.8156 H   0  0  0  0  0  0  0  0  0  0  0  0
    1.0283   14.3736   17.9330 H   0  0  0  0  0  0  0  0  0  0  0  0
    1.3627    9.2583   20.3464 C   0  0  0  0  0  0  0  0  0  0  0  0
   -0.8988    9.8325   19.4913 C   0  0  0  0  0  0  0  0  0  0  0  0
    0.8265    9.9012   18.4862 H   0  0  0  0  0  0  0  0  0  0  0  0
    0.9460    5.7764   19.2928 C   0  0  0  0  0  0  0  0  0  0  0  0
   -1.4290    6.3644   18.7480 C   0  0  0  0  0  0  0  0  0  0  0  0
   -0.2360    7.2108   20.1163 H   0  0  0  0  0  0  0  0  0  0  0  0
    3.6824   15.0920   20.3612 C   0  0  0  0  0  0  0  0  0  0  0  0
    5.9178   15.5769   19.3308 C   0  0  0  0  0  0  0  0  0  0  0  0
    4.0911   15.7142   18.4693 H   0  0  0  0  0  0  0  0  0  0  0  0
    3.9134   11.6215   19.4047 C   0  0  0  0  0  0  0  0  0  0  0  0
    6.2572   12.0722   18.6319 C   0  0  0  0  0  0  0  0  0  0  0  0
    5.2068   13.0193   20.0571 H   0  0  0  0  0  0  0  0  0  0  0  0
    1.3587   10.1208   20.7687 H   0  0  0  0  0  0  0  0  0  0  0  0
    1.0494    8.5972   20.9672 H   0  0  0  0  0  0  0  0  0  0  0  0
    2.2564    9.0410   20.0719 H   0  0  0  0  0  0  0  0  0  0  0  0
   -0.7953   10.6721   19.9452 H   0  0  0  0  0  0  0  0  0  0  0  0
   -1.4159    9.9629   18.6931 H   0  0  0  0  0  0  0  0  0  0  0  0
   -1.3496    9.2103   20.0677 H   0  0  0  0  0  0  0  0  0  0  0  0
    0.6015    5.0467   19.8143 H   0  0  0  0  0  0  0  0  0  0  0  0
    1.1478    5.4699   18.4059 H   0  0  0  0  0  0  0  0  0  0  0  0
    1.7453    6.1150   19.7045 H   0  0  0  0  0  0  0  0  0  0  0  0
   -1.6991    5.6255   19.2970 H   0  0  0  0  0  0  0  0  0  0  0  0
   -2.0857    7.0621   18.8050 H   0  0  0  0  0  0  0  0  0  0  0  0
   -1.3496    6.0716   17.8358 H   0  0  0  0  0  0  0  0  0  0  0  0
    3.7226   15.9613   20.7666 H   0  0  0  0  0  0  0  0  0  0  0  0
    2.7696   14.8769   20.1585 H   0  0  0  0  0  0  0  0  0  0  0  0
    4.0379   14.4400   20.9693 H   0  0  0  0  0  0  0  0  0  0  0  0
    5.8866   16.4280   19.7763 H   0  0  0  0  0  0  0  0  0  0  0  0
    6.3767   14.9433   19.8861 H   0  0  0  0  0  0  0  0  0  0  0  0
    6.3847   15.6685   18.4967 H   0  0  0  0  0  0  0  0  0  0  0  0
    4.2679   10.9032   19.9347 H   0  0  0  0  0  0  0  0  0  0  0  0
    3.1652   12.0150   19.8608 H   0  0  0  0  0  0  0  0  0  0  0  0
    3.6282   11.2829   18.5538 H   0  0  0  0  0  0  0  0  0  0  0  0
    6.5414   11.3424   19.1872 H   0  0  0  0  0  0  0  0  0  0  0  0
    6.0975   11.7519   17.7408 H   0  0  0  0  0  0  0  0  0  0  0  0
    6.9420   12.7448   18.6129 H   0  0  0  0  0  0  0  0  0  0  0  0
  1  3  1  0  0  0  0
  2  3  1  0  0  0  0
  3  4  1  0  0  0  0
  4  5  1  0  0  0  0
  5  6  1  0  0  0  0
  6 31  1  0  0  0  0
  7  5  1  0  0  0  0
  8  4  1  0  0  0  0
  9  8  1  0  0  0  0
 10  8  1  0  0  0  0
 11 13  1  0  0  0  0
 12 13  1  0  0  0  0
 13 14  1  0  0  0  0
 14 15  1  0  0  0  0
 15 16  1  0  0  0  0
 16 46  1  0  0  0  0
 17 15  1  0  0  0  0
 18 14  1  0  0  0  0
 19 18  1  0  0  0  0
 20 18  1  0  0  0  0
 21 22  1  0  0  0  0
 22 23  1  0  0  0  0
 23 27  1  0  0  0  0
 24 25  1  0  0  0  0
 25 26  1  0  0  0  0
 26 28  1  0  0  0  0
 27  1  1  0  0  0  0
 28  1  1  0  0  0  0
 29  2  1  0  0  0  0
 30  5  1  0  0  0  0
 32  6  1  0  0  0  0
 33  6  1  0  0  0  0
 34  7  1  0  0  0  0
 35  7  1  0  0  0  0
 36  7  1  0  0  0  0
 37  8  1  0  0  0  0
 38  9  1  0  0  0  0
 39  9  1  0  0  0  0
 40  9  1  0  0  0  0
 41 10  1  0  0  0  0
 42 10  1  0  0  0  0
 43 10  1  0  0  0  0
 44 12  1  0  0  0  0
 45 15  1  0  0  0  0
 47 16  1  0  0  0  0
 48 16  1  0  0  0  0
 49 17  1  0  0  0  0
 50 17  1  0  0  0  0
 51 17  1  0  0  0  0
 52 18  1  0  0  0  0
 53 19  1  0  0  0  0
 54 19  1  0  0  0  0
 55 19  1  0  0  0  0
 56 20  1  0  0  0  0
 57 20  1  0  0  0  0
 58 20  1  0  0  0  0
 59 21  1  0  0  0  0
 60 21  1  0  0  0  0
 61 21  1  0  0  0  0
 62 23  1  0  0  0  0
 63 23  1  0  0  0  0
 64 24  1  0  0  0  0
 65 24  1  0  0  0  0
 66 24  1  0  0  0  0
 67 26  1  0  0  0  0
 68 26  1  0  0  0  0
 69  1  1  0  0  0  0
 70 27  1  0  0  0  0
 71 23  1  0  0  0  0
 72 11  1  0  0  0  0
 73 28  1  0  0  0  0
 74 26  1  0  0  0  0
 75 69  1  0  0  0  0
 76 70  1  0  0  0  0
 77 71  1  0  0  0  0
 78 71  1  0  0  0  0
 79 72  1  0  0  0  0
 80 73  1  0  0  0  0
 81 74  1  0  0  0  0
 82 74  1  0  0  0  0
 83 75  1  0  0  0  0
 84 75  1  0  0  0  0
 85 76  1  0  0  0  0
 86 76  1  0  0  0  0
 87 76  1  0  0  0  0
 88 79  1  0  0  0  0
 89 79  1  0  0  0  0
 90 80  1  0  0  0  0
 91 80  1  0  0  0  0
 92 80  1  0  0  0  0
 93 83  1  0  0  0  0
 94 83  1  0  0  0  0
 95 83  1  0  0  0  0
 96 84  1  0  0  0  0
 97 84  1  0  0  0  0
 98 84  1  0  0  0  0
 99 88  1  0  0  0  0
100 88  1  0  0  0  0
101 88  1  0  0  0  0
102 89  1  0  0  0  0
103 89  1  0  0  0  0
104 89  1  0  0  0  0
105 93  1  0  0  0  0
106 93  1  0  0  0  0
107 93  1  0  0  0  0
108 94  1  0  0  0  0
109 94  1  0  0  0  0
110 94  1  0  0  0  0
111 96  1  0  0  0  0
112 96  1  0  0  0  0
113 96  1  0  0  0  0
114 97  1  0  0  0  0
115 97  1  0  0  0  0
116 97  1  0  0  0  0
117 99  1  0  0  0  0
118 99  1  0  0  0  0
119 99  1  0  0  0  0
120100  1  0  0  0  0
121100  1  0  0  0  0
122100  1  0  0  0  0
123102  1  0  0  0  0
124102  1  0  0  0  0
125102  1  0  0  0  0
126103  1  0  0  0  0
127103  1  0  0  0  0
128103  1  0  0  0  0
  2 69  1  0  0  0  0
 11 27  1  0  0  0  0
 11 28  1  0  0  0  0
 12 72  1  0  0  0  0
 22 27  1  0  0  0  0
 25 28  1  0  0  0  0
 27 28  1  0  0  0  0
 27 71  1  0  0  0  0
 28 74  1  0  0  0  0
 70 71  1  0  0  0  0
 73 74  1  0  0  0  0
M  END
$$$$
PEKHEV

From CSD data. Using bond type 'Any'. No disordered atoms. Largest molecule.
 85108  0  0  0  0  0  0  0  0999 V2000
    4.2627    3.8999   26.5321 O   0  0  0  0  0  0  0  0  0  0  0  0
    2.0388    9.3204   27.3815 S   0  0  0  0  0  0  0  0  0  0  0  0
    3.6528    6.5631   28.2411 P   0  0  0  0  0  0  0  0  0  0  0  0
    4.9741    3.0263   27.1953 P   0  0  0  0  0  0  0  0  0  0  0  0
    4.4029    5.4056   29.0146 N   0  0  0  0  0  0  0  0  0  0  0  0
    6.8809    5.0918   27.8656 B   0  0  0  0  0  0  0  0  0  0  0  0
    6.6306    5.5079   26.8560 H   0  0  0  0  0  0  0  0  0  0  0  0
    7.0656    6.1303   29.3044 B   0  0  0  0  0  0  0  0  0  0  0  0
    6.9709    7.2448   29.2516 H   0  0  0  0  0  0  0  0  0  0  0  0
    6.5011    5.1781   30.7093 B   0  0  0  0  0  0  0  0  0  0  0  0
    6.0334    5.6511   31.6092 H   0  0  0  0  0  0  0  0  0  0  0  0
    5.9491    3.6086   30.0729 B   0  0  0  0  0  0  0  0  0  0  0  0
    5.0806    3.0566   30.5150 H   0  0  0  0  0  0  0  0  0  0  0  0
    7.9427    3.6727   28.0348 B   0  0  0  0  0  0  0  0  0  0  0  0
    8.4205    3.1747   27.1536 H   0  0  0  0  0  0  0  0  0  0  0  0
    8.4655    5.2742   28.6123 B   0  0  0  0  0  0  0  0  0  0  0  0
    9.2917    5.8374   28.1078 H   0  0  0  0  0  0  0  0  0  0  0  0
    8.2354    5.3156   30.3738 B   0  0  0  0  0  0  0  0  0  0  0  0
    8.9172    5.9000   31.0431 H   0  0  0  0  0  0  0  0  0  0  0  0
    7.5326    3.7468   30.8686 B   0  0  0  0  0  0  0  0  0  0  0  0
    7.7383    3.2875   31.8689 H   0  0  0  0  0  0  0  0  0  0  0  0
    7.3540    2.7427   29.4199 B   0  0  0  0  0  0  0  0  0  0  0  0
    7.4354    1.6259   29.4617 H   0  0  0  0  0  0  0  0  0  0  0  0
    8.7769    3.8108   29.5953 B   0  0  0  0  0  0  0  0  0  0  0  0
    9.8100    3.4075   29.7534 H   0  0  0  0  0  0  0  0  0  0  0  0
    5.7126    5.1107   29.1990 C   0  0  0  0  0  0  0  0  0  0  0  0
    6.2819    3.5692   28.3987 C   0  0  0  0  0  0  0  0  0  0  0  0
    3.2143    7.8842   29.4045 C   0  0  0  0  0  0  0  0  0  0  0  0
    2.4578    9.0352   29.0718 C   0  0  0  0  0  0  0  0  0  0  0  0
    2.0972    9.9162   30.0893 C   0  0  0  0  0  0  0  0  0  0  0  0
    1.5875   10.6917   29.8818 H   0  0  0  0  0  0  0  0  0  0  0  0
    2.4721    9.6746   31.3994 C   0  0  0  0  0  0  0  0  0  0  0  0
    2.2063   10.2798   32.0819 H   0  0  0  0  0  0  0  0  0  0  0  0
    3.2310    8.5643   31.7350 C   0  0  0  0  0  0  0  0  0  0  0  0
    3.5015    8.4176   32.6334 H   0  0  0  0  0  0  0  0  0  0  0  0
    3.5879    7.6729   30.7365 C   0  0  0  0  0  0  0  0  0  0  0  0
    4.0962    6.9028   30.9614 H   0  0  0  0  0  0  0  0  0  0  0  0
    0.9281   10.7252   27.4346 C   0  0  0  0  0  0  0  0  0  0  0  0
    0.1716   10.5216   28.0231 H   0  0  0  0  0  0  0  0  0  0  0  0
    0.5980   10.9155   26.5321 H   0  0  0  0  0  0  0  0  0  0  0  0
    1.4080   11.5082   27.7780 H   0  0  0  0  0  0  0  0  0  0  0  0
    4.5063    7.3334   26.8522 C   0  0  0  0  0  0  0  0  0  0  0  0
    5.1955    8.5258   27.0600 C   0  0  0  0  0  0  0  0  0  0  0  0
    5.1652    8.9494   27.9094 H   0  0  0  0  0  0  0  0  0  0  0  0
    5.9269    9.0979   26.0265 C   0  0  0  0  0  0  0  0  0  0  0  0
    6.4040    9.9074   26.1703 H   0  0  0  0  0  0  0  0  0  0  0  0
    5.9593    8.4878   24.7893 C   0  0  0  0  0  0  0  0  0  0  0  0
    6.4441    8.8885   24.0782 H   0  0  0  0  0  0  0  0  0  0  0  0
    5.2895    7.2935   24.5792 C   0  0  0  0  0  0  0  0  0  0  0  0
    5.3216    6.8777   23.7251 H   0  0  0  0  0  0  0  0  0  0  0  0
    4.5717    6.7022   25.6048 C   0  0  0  0  0  0  0  0  0  0  0  0
    4.1267    5.8750   25.4642 H   0  0  0  0  0  0  0  0  0  0  0  0
    2.0749    5.8386   27.7039 C   0  0  0  0  0  0  0  0  0  0  0  0
    1.4075    5.0459   28.6344 C   0  0  0  0  0  0  0  0  0  0  0  0
    1.7922    4.9009   29.4908 H   0  0  0  0  0  0  0  0  0  0  0  0
    0.1897    4.4661   28.3246 C   0  0  0  0  0  0  0  0  0  0  0  0
   -0.2610    3.9339   28.9715 H   0  0  0  0  0  0  0  0  0  0  0  0
   -0.3730    4.6599   27.0748 C   0  0  0  0  0  0  0  0  0  0  0  0
   -1.2073    4.2598   26.8618 H   0  0  0  0  0  0  0  0  0  0  0  0
    0.2835    5.4375   26.1403 C   0  0  0  0  0  0  0  0  0  0  0  0
   -0.0939    5.5580   25.2774 H   0  0  0  0  0  0  0  0  0  0  0  0
    1.4916    6.0438   26.4557 C   0  0  0  0  0  0  0  0  0  0  0  0
    1.9227    6.6002   25.8172 H   0  0  0  0  0  0  0  0  0  0  0  0
    3.9574    1.7482   28.0106 C   0  0  0  0  0  0  0  0  0  0  0  0
    2.6274    1.7333   27.5811 C   0  0  0  0  0  0  0  0  0  0  0  0
    2.3063    2.4370   27.0282 H   0  0  0  0  0  0  0  0  0  0  0  0
    1.7682    0.7080   27.9476 C   0  0  0  0  0  0  0  0  0  0  0  0
    0.8713    0.7037   27.6351 H   0  0  0  0  0  0  0  0  0  0  0  0
    2.2193   -0.3069   28.7681 C   0  0  0  0  0  0  0  0  0  0  0  0
    1.6382   -1.0206   29.0065 H   0  0  0  0  0  0  0  0  0  0  0  0
    3.5149   -0.2845   29.2428 C   0  0  0  0  0  0  0  0  0  0  0  0
    3.8149   -0.9687   29.8293 H   0  0  0  0  0  0  0  0  0  0  0  0
    4.3801    0.7322   28.8696 C   0  0  0  0  0  0  0  0  0  0  0  0
    5.2696    0.7377   29.2020 H   0  0  0  0  0  0  0  0  0  0  0  0
    5.9325    2.0320   25.9970 C   0  0  0  0  0  0  0  0  0  0  0  0
    5.9755    2.5405   24.7050 C   0  0  0  0  0  0  0  0  0  0  0  0
    5.5940    3.3914   24.5246 H   0  0  0  0  0  0  0  0  0  0  0  0
    6.5679    1.8239   23.6749 C   0  0  0  0  0  0  0  0  0  0  0  0
    6.5883    2.1827   22.7943 H   0  0  0  0  0  0  0  0  0  0  0  0
    7.1260    0.5947   23.9271 C   0  0  0  0  0  0  0  0  0  0  0  0
    7.5238    0.0985   23.2203 H   0  0  0  0  0  0  0  0  0  0  0  0
    7.1082    0.0782   25.2135 C   0  0  0  0  0  0  0  0  0  0  0  0
    7.5039   -0.7682   25.3883 H   0  0  0  0  0  0  0  0  0  0  0  0
    6.5173    0.7875   26.2459 C   0  0  0  0  0  0  0  0  0  0  0  0
    6.5097    0.4280   27.1244 H   0  0  0  0  0  0  0  0  0  0  0  0
  1  4  2  0  0  0  0
  2 29  1  0  0  0  0
  3  5  2  0  0  0  0
  4 27  1  0  0  0  0
  5 26  1  0  0  0  0
  6  7  1  0  0  0  0
  8  6  1  0  0  0  0
  9  8  1  0  0  0  0
 10  8  1  0  0  0  0
 11 10  1  0  0  0  0
 12 10  1  0  0  0  0
 13 12  1  0  0  0  0
 14  6  1  0  0  0  0
 15 14  1  0  0  0  0
 16  6  1  0  0  0  0
 17 16  1  0  0  0  0
 18  8  1  0  0  0  0
 19 18  1  0  0  0  0
 20 10  1  0  0  0  0
 21 20  1  0  0  0  0
 22 12  1  0  0  0  0
 23 22  1  0  0  0  0
 24 14  1  0  0  0  0
 25 24  1  0  0  0  0
 26  6  1  0  0  0  0
 27  6  1  0  0  0  0
 28  3  1  0  0  0  0
 29 28  4  0  0  0  0
 30 29  4  0  0  0  0
 31 30  1  0  0  0  0
 32 30  4  0  0  0  0
 33 32  1  0  0  0  0
 34 32  4  0  0  0  0
 35 34  1  0  0  0  0
 36 28  4  0  0  0  0
 37 36  1  0  0  0  0
 38  2  1  0  0  0  0
 39 38  1  0  0  0  0
 40 38  1  0  0  0  0
 41 38  1  0  0  0  0
 42  3  1  0  0  0  0
 43 42  4  0  0  0  0
 44 43  1  0  0  0  0
 45 43  4  0  0  0  0
 46 45  1  0  0  0  0
 47 45  4  0  0  0  0
 48 47  1  0  0  0  0
 49 47  4  0  0  0  0
 50 49  1  0  0  0  0
 51 42  4  0  0  0  0
 52 51  1  0  0  0  0
 53  3  1  0  0  0  0
 54 53  4  0  0  0  0
 55 54  1  0  0  0  0
 56 54  4  0  0  0  0
 57 56  1  0  0  0  0
 58 56  4  0  0  0  0
 59 58  1  0  0  0  0
 60 58  4  0  0  0  0
 61 60  1  0  0  0  0
 62 53  4  0  0  0  0
 63 62  1  0  0  0  0
 64  4  1  0  0  0  0
 65 64  4  0  0  0  0
 66 65  1  0  0  0  0
 67 65  4  0  0  0  0
 68 67  1  0  0  0  0
 69 67  4  0  0  0  0
 70 69  1  0  0  0  0
 71 69  4  0  0  0  0
 72 71  1  0  0  0  0
 73 64  4  0  0  0  0
 74 73  1  0  0  0  0
 75  4  1  0  0  0  0
 76 75  4  0  0  0  0
 77 76  1  0  0  0  0
 78 76  4  0  0  0  0
 79 78  1  0  0  0  0
 80 78  4  0  0  0  0
 81 80  1  0  0  0  0
 82 80  4  0  0  0  0
 83 82  1  0  0  0  0
 84 75  4  0  0  0  0
 85 84  1  0  0  0  0
  8 16  1  0  0  0  0
  8 26  1  0  0  0  0
 10 18  1  0  0  0  0
 10 26  1  0  0  0  0
 12 20  1  0  0  0  0
 12 26  1  0  0  0  0
 12 27  1  0  0  0  0
 14 16  1  0  0  0  0
 14 22  1  0  0  0  0
 14 27  1  0  0  0  0
 16 18  1  0  0  0  0
 16 24  1  0  0  0  0
 18 20  1  0  0  0  0
 18 24  1  0  0  0  0
 20 22  1  0  0  0  0
 20 24  1  0  0  0  0
 22 24  1  0  0  0  0
 22 27  1  0  0  0  0
 26 27  1  0  0  0  0
 34 36  4  0  0  0  0
 49 51  4  0  0  0  0
 60 62  4  0  0  0  0
 71 73  4  0  0  0  0
 82 84  4  0  0  0  0
M  END
$$$$
PETJED

From CSD data. Using bond type 'Any'. No disordered atoms. Largest molecule.
 44 52  0  0  0  0  0  0  0  0999 V2000
   11.4524    3.6962   20.6120 Rh  0  0  0  0  0  0  0  0  0  0  0  0
   13.0723    4.2525   18.6037 Rh  0  0  0  0  0  0  0  0  0  0  0  0
   12.6843    5.2401   21.5463 P   0  0  0  0  0  0  0  0  0  0  0  0
   11.2057    3.7461   17.5182 P   0  0  0  0  0  0  0  0  0  0  0  0
   13.4610    1.7364   19.9685 O   0  0  0  0  0  0  0  0  0  0  0  0
   14.7346    4.8184   19.8769 N   0  0  0  0  0  0  0  0  0  0  0  0
   10.3915    2.2838   19.5563 N   0  0  0  0  0  0  0  0  0  0  0  0
   12.7538    5.3094   23.3119 C   0  0  0  0  0  0  0  0  0  0  0  0
   12.8129    4.1537   23.9302 C   0  0  0  0  0  0  0  0  0  0  0  0
   12.7484    4.0192   25.4644 C   0  0  0  0  0  0  0  0  0  0  0  0
   12.6879    5.1509   26.1285 C   0  0  0  0  0  0  0  0  0  0  0  0
   12.6678    6.3692   25.4415 C   0  0  0  0  0  0  0  0  0  0  0  0
   12.7024    6.5188   23.9989 C   0  0  0  0  0  0  0  0  0  0  0  0
   12.3181    6.9115   21.0677 C   0  0  0  0  0  0  0  0  0  0  0  0
   11.0891    7.4394   21.2509 C   0  0  0  0  0  0  0  0  0  0  0  0
   10.6444    8.7489   20.9074 C   0  0  0  0  0  0  0  0  0  0  0  0
   11.6031    9.5777   20.3120 C   0  0  0  0  0  0  0  0  0  0  0  0
   12.8155    9.0810   20.1059 C   0  0  0  0  0  0  0  0  0  0  0  0
   13.2089    7.7865   20.5410 C   0  0  0  0  0  0  0  0  0  0  0  0
   14.4189    5.1524   21.1593 C   0  0  0  0  0  0  0  0  0  0  0  0
   15.5366    5.3331   22.0753 C   0  0  0  0  0  0  0  0  0  0  0  0
   16.8782    5.0718   21.5715 C   0  0  0  0  0  0  0  0  0  0  0  0
   17.1147    4.6599   20.3120 C   0  0  0  0  0  0  0  0  0  0  0  0
   16.0643    4.5099   19.4647 C   0  0  0  0  0  0  0  0  0  0  0  0
   11.3148    3.2735   15.7779 C   0  0  0  0  0  0  0  0  0  0  0  0
   10.7516    3.8719   14.7016 C   0  0  0  0  0  0  0  0  0  0  0  0
   11.0016    3.2731   13.4650 C   0  0  0  0  0  0  0  0  0  0  0  0
   11.8208    2.1544   13.1902 C   0  0  0  0  0  0  0  0  0  0  0  0
   12.4021    1.5253   14.1978 C   0  0  0  0  0  0  0  0  0  0  0  0
   12.2443    2.1704   15.5031 C   0  0  0  0  0  0  0  0  0  0  0  0
    9.7931    4.9741   17.4953 C   0  0  0  0  0  0  0  0  0  0  0  0
    8.5826    4.5728   16.9916 C   0  0  0  0  0  0  0  0  0  0  0  0
    7.5854    5.5224   16.9458 C   0  0  0  0  0  0  0  0  0  0  0  0
    7.8095    6.8266   17.4037 C   0  0  0  0  0  0  0  0  0  0  0  0
    8.9940    7.1967   17.9304 C   0  0  0  0  0  0  0  0  0  0  0  0
   10.0304    6.2315   17.9762 C   0  0  0  0  0  0  0  0  0  0  0  0
   10.2885    2.3392   18.2281 C   0  0  0  0  0  0  0  0  0  0  0  0
    9.6853    1.3635   17.5182 C   0  0  0  0  0  0  0  0  0  0  0  0
    9.1261    0.2702   18.1136 C   0  0  0  0  0  0  0  0  0  0  0  0
    9.1780    0.2146   19.4647 C   0  0  0  0  0  0  0  0  0  0  0  0
    9.8358    1.2061   20.1517 C   0  0  0  0  0  0  0  0  0  0  0  0
   12.6710    2.8574   19.8998 C   0  0  0  0  0  0  0  0  0  0  0  0
    9.6717    3.9171   22.0524 B   0  0  0  0  0  0  0  0  0  0  0  0
   14.0235    5.3825   16.9229 B   0  0  0  0  0  0  0  0  0  0  0  0
  1  2  1  0  0  0  0
  2  4  1  0  0  0  0
  3  1  1  0  0  0  0
  4 25  1  0  0  0  0
  5 42  2  0  0  0  0
  6  2  1  0  0  0  0
  7  1  1  0  0  0  0
  8  3  1  0  0  0  0
  9  8  4  0  0  0  0
 10  9  4  0  0  0  0
 11 10  4  0  0  0  0
 12 11  4  0  0  0  0
 13  8  4  0  0  0  0
 14  3  1  0  0  0  0
 15 14  4  0  0  0  0
 16 15  4  0  0  0  0
 17 16  4  0  0  0  0
 18 17  4  0  0  0  0
 19 14  4  0  0  0  0
 20  3  1  0  0  0  0
 21 20  4  0  0  0  0
 22 21  4  0  0  0  0
 23 22  4  0  0  0  0
 24  6  4  0  0  0  0
 25 26  4  0  0  0  0
 26 27  4  0  0  0  0
 27 28  4  0  0  0  0
 28 29  4  0  0  0  0
 29 30  4  0  0  0  0
 30 25  4  0  0  0  0
 31  4  1  0  0  0  0
 32 31  4  0  0  0  0
 33 32  4  0  0  0  0
 34 33  4  0  0  0  0
 35 34  4  0  0  0  0
 36 31  4  0  0  0  0
 37  4  1  0  0  0  0
 38 37  4  0  0  0  0
 39 38  4  0  0  0  0
 40 39  4  0  0  0  0
 41  7  4  0  0  0  0
 42  1  1  0  0  0  0
 43  1  1  0  0  0  0
 44  2  1  0  0  0  0
  2 42  1  0  0  0  0
  6 20  4  0  0  0  0
  7 37  4  0  0  0  0
 12 13  4  0  0  0  0
 18 19  4  0  0  0  0
 23 24  4  0  0  0  0
 35 36  4  0  0  0  0
 40 41  4  0  0  0  0
M  END
$$$$
PETMOR

From CSD data. Using bond type 'Any'. No disordered atoms. Largest molecule.
 53 56  0  0  0  0  0  0  0  0999 V2000
   13.0272   -1.3305    8.9417 C   0  0  0  0  0  0  0  0  0  0  0  0
   13.8543   -2.3281    8.4702 C   0  0  0  0  0  0  0  0  0  0  0  0
   13.5255   -3.0320    7.9227 H   0  0  0  0  0  0  0  0  0  0  0  0
   15.1960   -2.2516    8.8335 C   0  0  0  0  0  0  0  0  0  0  0  0
   15.7970   -2.9248    8.5380 H   0  0  0  0  0  0  0  0  0  0  0  0
   15.6664   -1.2279    9.6071 C   0  0  0  0  0  0  0  0  0  0  0  0
   16.5891   -1.2009    9.8299 H   0  0  0  0  0  0  0  0  0  0  0  0
   14.8161   -0.2154   10.0802 C   0  0  0  0  0  0  0  0  0  0  0  0
   15.1392    0.5016   10.6115 H   0  0  0  0  0  0  0  0  0  0  0  0
   13.5018   -0.3189    9.7330 C   0  0  0  0  0  0  0  0  0  0  0  0
   10.0843    3.0954    6.4709 C   0  0  0  0  0  0  0  0  0  0  0  0
   10.1431    3.4972    5.1483 C   0  0  0  0  0  0  0  0  0  0  0  0
    9.8752    2.9276    4.4361 H   0  0  0  0  0  0  0  0  0  0  0  0
   10.6262    4.8081    4.9190 C   0  0  0  0  0  0  0  0  0  0  0  0
   10.6988    5.1233    4.0260 H   0  0  0  0  0  0  0  0  0  0  0  0
   10.9929    5.6361    5.9493 C   0  0  0  0  0  0  0  0  0  0  0  0
   11.3105    6.5087    5.7539 H   0  0  0  0  0  0  0  0  0  0  0  0
   10.9081    5.2277    7.2606 C   0  0  0  0  0  0  0  0  0  0  0  0
   11.1456    5.8029    7.9776 H   0  0  0  0  0  0  0  0  0  0  0  0
   10.4614    3.9438    7.4802 C   0  0  0  0  0  0  0  0  0  0  0  0
    8.5231   -0.6219   13.1405 C   0  0  0  0  0  0  0  0  0  0  0  0
    7.5556   -0.4755   13.0807 H   0  0  0  0  0  0  0  0  0  0  0  0
    8.9565    0.1874   13.4812 H   0  0  0  0  0  0  0  0  0  0  0  0
    8.7036   -1.3696   13.7477 H   0  0  0  0  0  0  0  0  0  0  0  0
    8.3552   -2.4819   11.0314 C   0  0  0  0  0  0  0  0  0  0  0  0
    8.7360   -2.8287   10.1981 H   0  0  0  0  0  0  0  0  0  0  0  0
    7.4013   -2.2936   10.9006 H   0  0  0  0  0  0  0  0  0  0  0  0
    8.4609   -3.1485   11.7420 H   0  0  0  0  0  0  0  0  0  0  0  0
   10.8477   -1.6726   12.0795 C   0  0  0  0  0  0  0  0  0  0  0  0
   10.7040   -2.3216   12.7981 H   0  0  0  0  0  0  0  0  0  0  0  0
   11.3927   -0.9305   12.4138 H   0  0  0  0  0  0  0  0  0  0  0  0
   11.3118   -2.1080   11.3334 H   0  0  0  0  0  0  0  0  0  0  0  0
    5.9729    0.9902   11.0249 C   0  0  0  0  0  0  0  0  0  0  0  0
    5.1750    1.5542   10.9458 H   0  0  0  0  0  0  0  0  0  0  0  0
    6.2476    0.9426   11.9648 H   0  0  0  0  0  0  0  0  0  0  0  0
    5.7684    0.0886   10.6987 H   0  0  0  0  0  0  0  0  0  0  0  0
    6.5203    1.9607    8.4556 C   0  0  0  0  0  0  0  0  0  0  0  0
    5.6700    2.4288    8.5913 H   0  0  0  0  0  0  0  0  0  0  0  0
    6.3514    1.0946    8.0293 H   0  0  0  0  0  0  0  0  0  0  0  0
    7.1033    2.5006    7.8823 H   0  0  0  0  0  0  0  0  0  0  0  0
    7.4697    3.3649   10.6955 C   0  0  0  0  0  0  0  0  0  0  0  0
    8.1650    3.8469   10.2013 H   0  0  0  0  0  0  0  0  0  0  0  0
    7.7125    3.3210   11.6435 H   0  0  0  0  0  0  0  0  0  0  0  0
    6.6155    3.8348   10.5970 H   0  0  0  0  0  0  0  0  0  0  0  0
   11.2837   -0.0326    9.4843 B   0  0  0  0  0  0  0  0  0  0  0  0
    9.8480    1.9887    8.4023 B   0  0  0  0  0  0  0  0  0  0  0  0
   11.6710   -1.1701    8.7463 O   0  0  0  0  0  0  0  0  0  0  0  0
   12.4439    0.5147   10.0741 O   0  0  0  0  0  0  0  0  0  0  0  0
    9.6988    1.8759    7.0001 O   0  0  0  0  0  0  0  0  0  0  0  0
   10.3240    3.2921    8.6829 O   0  0  0  0  0  0  0  0  0  0  0  0
    9.1814   -1.0118   11.4837 P   0  0  0  0  0  0  0  0  0  0  0  0
    7.3156    1.7000   10.0395 P   0  0  0  0  0  0  0  0  0  0  0  0
    9.3714    0.6265    9.8452 Pt  0  0  0  0  0  0  0  0  0  0  0  0
  1  2  4  0  0  0  0
  2  3  1  0  0  0  0
  4  2  4  0  0  0  0
  5  4  1  0  0  0  0
  6  4  4  0  0  0  0
  7  6  1  0  0  0  0
  8  6  4  0  0  0  0
  9  8  1  0  0  0  0
 10  1  4  0  0  0  0
 11 12  4  0  0  0  0
 12 13  1  0  0  0  0
 14 12  4  0  0  0  0
 15 14  1  0  0  0  0
 16 14  4  0  0  0  0
 17 16  1  0  0  0  0
 18 16  4  0  0  0  0
 19 18  1  0  0  0  0
 20 11  4  0  0  0  0
 21 22  1  0  0  0  0
 23 21  1  0  0  0  0
 24 21  1  0  0  0  0
 25 26  1  0  0  0  0
 27 25  1  0  0  0  0
 28 25  1  0  0  0  0
 29 30  1  0  0  0  0
 31 29  1  0  0  0  0
 32 29  1  0  0  0  0
 33 34  1  0  0  0  0
 35 33  1  0  0  0  0
 36 33  1  0  0  0  0
 37 38  1  0  0  0  0
 39 37  1  0  0  0  0
 40 37  1  0  0  0  0
 41 42  1  0  0  0  0
 43 41  1  0  0  0  0
 44 41  1  0  0  0  0
 45 47  1  0  0  0  0
 46 49  1  0  0  0  0
 47  1  1  0  0  0  0
 48 10  1  0  0  0  0
 49 11  1  0  0  0  0
 50 20  1  0  0  0  0
 51 21  1  0  0  0  0
 52 33  1  0  0  0  0
 53 45  1  0  0  0  0
  8 10  4  0  0  0  0
 18 20  4  0  0  0  0
 25 51  1  0  0  0  0
 29 51  1  0  0  0  0
 37 52  1  0  0  0  0
 41 52  1  0  0  0  0
 45 48  1  0  0  0  0
 46 50  1  0  0  0  0
 46 53  1  0  0  0  0
 51 53  1  0  0  0  0
 52 53  1  0  0  0  0
M  END
$$$$
PEXYUM

From CSD data. Using bond type 'Any'. No disordered atoms. Largest molecule.
 79 84  0  0  0  0  0  0  0  0999 V2000
   16.9926   -8.4798   13.1269 Cr  0  0  0  0  0  0  0  0  0  0  0  0
   16.5304   -6.4528   11.9280 P   0  0  0  0  0  0  0  0  0  0  0  0
   18.2644   -6.3439   12.5984 B   0  0  0  0  0  0  0  0  0  0  0  0
   18.8266   -8.7877   13.3860 C   0  0  0  0  0  0  0  0  0  0  0  0
   19.9105   -9.0946   13.6118 O   0  0  0  0  0  0  0  0  0  0  0  0
   17.1340   -9.6590   11.7040 C   0  0  0  0  0  0  0  0  0  0  0  0
   17.2044  -10.3863   10.8288 O   0  0  0  0  0  0  0  0  0  0  0  0
   19.6317   -5.8470   11.9963 C   0  0  0  0  0  0  0  0  0  0  0  0
   19.9915   -4.5068   12.2763 C   0  0  0  0  0  0  0  0  0  0  0  0
   21.1951   -4.0009   11.8335 C   0  0  0  0  0  0  0  0  0  0  0  0
   22.0532   -4.7345   11.0651 C   0  0  0  0  0  0  0  0  0  0  0  0
   21.6720   -6.0109   10.7273 C   0  0  0  0  0  0  0  0  0  0  0  0
   20.4858   -6.5716   11.1509 C   0  0  0  0  0  0  0  0  0  0  0  0
   19.0711   -3.5932   13.0167 C   0  0  0  0  0  0  0  0  0  0  0  0
   23.3683   -4.1756   10.5891 C   0  0  0  0  0  0  0  0  0  0  0  0
   20.1499   -7.9524   10.6136 C   0  0  0  0  0  0  0  0  0  0  0  0
   15.9036   -6.2143   10.1953 C   0  0  0  0  0  0  0  0  0  0  0  0
   16.1568   -4.8263    9.7629 C   0  0  0  0  0  0  0  0  0  0  0  0
   14.4673   -6.5014   10.1515 C   0  0  0  0  0  0  0  0  0  0  0  0
   16.6158   -7.1081    9.2746 C   0  0  0  0  0  0  0  0  0  0  0  0
   21.4315   -3.0990   12.0610 H   0  0  0  0  0  0  0  0  0  0  0  0
   22.2624   -6.5374   10.1847 H   0  0  0  0  0  0  0  0  0  0  0  0
   19.4840   -2.7327   13.1217 H   0  0  0  0  0  0  0  0  0  0  0  0
   18.2508   -3.4987   12.5266 H   0  0  0  0  0  0  0  0  0  0  0  0
   18.8866   -3.9658   13.8813 H   0  0  0  0  0  0  0  0  0  0  0  0
   23.4699   -3.2800   10.9216 H   0  0  0  0  0  0  0  0  0  0  0  0
   24.0807   -4.7237   10.9234 H   0  0  0  0  0  0  0  0  0  0  0  0
   23.3935   -4.1666    9.6299 H   0  0  0  0  0  0  0  0  0  0  0  0
   20.8531   -8.2782   10.0482 H   0  0  0  0  0  0  0  0  0  0  0  0
   20.0247   -8.5573   11.3487 H   0  0  0  0  0  0  0  0  0  0  0  0
   19.3353   -7.8903   10.1095 H   0  0  0  0  0  0  0  0  0  0  0  0
   15.8320   -4.6877    8.8703 H   0  0  0  0  0  0  0  0  0  0  0  0
   15.7072   -4.2251   10.3615 H   0  0  0  0  0  0  0  0  0  0  0  0
   17.1010   -4.6598    9.7909 H   0  0  0  0  0  0  0  0  0  0  0  0
   14.1338   -6.3709    9.2606 H   0  0  0  0  0  0  0  0  0  0  0  0
   14.3384   -7.4168   10.4105 H   0  0  0  0  0  0  0  0  0  0  0  0
   13.9912   -5.9272   10.7571 H   0  0  0  0  0  0  0  0  0  0  0  0
   16.2986   -6.9857    8.3767 H   0  0  0  0  0  0  0  0  0  0  0  0
   17.5591   -6.9398    9.3061 H   0  0  0  0  0  0  0  0  0  0  0  0
   16.4428   -8.0100    9.5529 H   0  0  0  0  0  0  0  0  0  0  0  0
   17.4549   -6.4528   14.3259 P   0  0  0  0  0  0  0  0  0  0  0  0
   15.7209   -6.3439   13.6555 B   0  0  0  0  0  0  0  0  0  0  0  0
   15.1587   -8.7877   12.8679 C   0  0  0  0  0  0  0  0  0  0  0  0
   14.0748   -9.0946   12.6421 O   0  0  0  0  0  0  0  0  0  0  0  0
   16.8513   -9.6590   14.5499 C   0  0  0  0  0  0  0  0  0  0  0  0
   16.7809  -10.3863   15.4250 O   0  0  0  0  0  0  0  0  0  0  0  0
   14.3536   -5.8470   14.2576 C   0  0  0  0  0  0  0  0  0  0  0  0
   13.9938   -4.5068   13.9776 C   0  0  0  0  0  0  0  0  0  0  0  0
   12.7902   -4.0009   14.4204 C   0  0  0  0  0  0  0  0  0  0  0  0
   11.9321   -4.7345   15.1887 C   0  0  0  0  0  0  0  0  0  0  0  0
   12.3133   -6.0109   15.5265 C   0  0  0  0  0  0  0  0  0  0  0  0
   13.4995   -6.5716   15.1030 C   0  0  0  0  0  0  0  0  0  0  0  0
   13.8354   -7.9524   15.6403 C   0  0  0  0  0  0  0  0  0  0  0  0
   13.1322   -8.2782   16.2056 H   0  0  0  0  0  0  0  0  0  0  0  0
   13.9606   -8.5573   14.9052 H   0  0  0  0  0  0  0  0  0  0  0  0
   14.6500   -7.8903   16.1444 H   0  0  0  0  0  0  0  0  0  0  0  0
   11.7229   -6.5374   16.0691 H   0  0  0  0  0  0  0  0  0  0  0  0
   10.6170   -4.1756   15.6648 C   0  0  0  0  0  0  0  0  0  0  0  0
   10.5154   -3.2800   15.3323 H   0  0  0  0  0  0  0  0  0  0  0  0
    9.9046   -4.7237   15.3305 H   0  0  0  0  0  0  0  0  0  0  0  0
   10.5918   -4.1666   16.6239 H   0  0  0  0  0  0  0  0  0  0  0  0
   12.5538   -3.0990   14.1928 H   0  0  0  0  0  0  0  0  0  0  0  0
   14.9142   -3.5932   13.2372 C   0  0  0  0  0  0  0  0  0  0  0  0
   14.5013   -2.7327   13.1322 H   0  0  0  0  0  0  0  0  0  0  0  0
   15.7345   -3.4987   13.7273 H   0  0  0  0  0  0  0  0  0  0  0  0
   15.0987   -3.9658   12.3726 H   0  0  0  0  0  0  0  0  0  0  0  0
   18.0817   -6.2143   16.0586 C   0  0  0  0  0  0  0  0  0  0  0  0
   17.8285   -4.8263   16.4909 C   0  0  0  0  0  0  0  0  0  0  0  0
   18.1533   -4.6877   17.3836 H   0  0  0  0  0  0  0  0  0  0  0  0
   18.2780   -4.2251   15.8923 H   0  0  0  0  0  0  0  0  0  0  0  0
   16.8843   -4.6598   16.4629 H   0  0  0  0  0  0  0  0  0  0  0  0
   19.5180   -6.5014   16.1024 C   0  0  0  0  0  0  0  0  0  0  0  0
   19.8515   -6.3709   16.9933 H   0  0  0  0  0  0  0  0  0  0  0  0
   19.6469   -7.4168   15.8433 H   0  0  0  0  0  0  0  0  0  0  0  0
   19.9941   -5.9272   15.4968 H   0  0  0  0  0  0  0  0  0  0  0  0
   17.3695   -7.1081   16.9792 C   0  0  0  0  0  0  0  0  0  0  0  0
   17.6867   -6.9857   17.8771 H   0  0  0  0  0  0  0  0  0  0  0  0
   16.4262   -6.9398   16.9477 H   0  0  0  0  0  0  0  0  0  0  0  0
   17.5425   -8.0100   16.7010 H   0  0  0  0  0  0  0  0  0  0  0  0
  1  2  1  0  0  0  0
  2  3  1  0  0  0  0
  3  1  1  0  0  0  0
  4  1  1  0  0  0  0
  5  4  3  0  0  0  0
  6  1  1  0  0  0  0
  7  6  3  0  0  0  0
  8  3  1  0  0  0  0
  9  8  4  0  0  0  0
 10  9  4  0  0  0  0
 11 10  4  0  0  0  0
 12 11  4  0  0  0  0
 13  8  4  0  0  0  0
 14  9  1  0  0  0  0
 15 11  1  0  0  0  0
 16 13  1  0  0  0  0
 17  2  1  0  0  0  0
 18 17  1  0  0  0  0
 19 17  1  0  0  0  0
 20 17  1  0  0  0  0
 21 10  1  0  0  0  0
 22 12  1  0  0  0  0
 23 14  1  0  0  0  0
 24 14  1  0  0  0  0
 25 14  1  0  0  0  0
 26 15  1  0  0  0  0
 27 15  1  0  0  0  0
 28 15  1  0  0  0  0
 29 16  1  0  0  0  0
 30 16  1  0  0  0  0
 31 16  1  0  0  0  0
 32 18  1  0  0  0  0
 33 18  1  0  0  0  0
 34 18  1  0  0  0  0
 35 19  1  0  0  0  0
 36 19  1  0  0  0  0
 37 19  1  0  0  0  0
 38 20  1  0  0  0  0
 39 20  1  0  0  0  0
 40 20  1  0  0  0  0
 41  1  1  0  0  0  0
 42  1  1  0  0  0  0
 43  1  1  0  0  0  0
 44 43  3  0  0  0  0
 45  1  1  0  0  0  0
 46 45  3  0  0  0  0
 47 42  1  0  0  0  0
 48 47  4  0  0  0  0
 49 48  4  0  0  0  0
 50 49  4  0  0  0  0
 51 50  4  0  0  0  0
 52 47  4  0  0  0  0
 53 52  1  0  0  0  0
 54 53  1  0  0  0  0
 55 53  1  0  0  0  0
 56 53  1  0  0  0  0
 57 51  1  0  0  0  0
 58 50  1  0  0  0  0
 59 58  1  0  0  0  0
 60 58  1  0  0  0  0
 61 58  1  0  0  0  0
 62 49  1  0  0  0  0
 63 48  1  0  0  0  0
 64 63  1  0  0  0  0
 65 63  1  0  0  0  0
 66 63  1  0  0  0  0
 67 41  1  0  0  0  0
 68 67  1  0  0  0  0
 69 68  1  0  0  0  0
 70 68  1  0  0  0  0
 71 68  1  0  0  0  0
 72 67  1  0  0  0  0
 73 72  1  0  0  0  0
 74 72  1  0  0  0  0
 75 72  1  0  0  0  0
 76 67  1  0  0  0  0
 77 76  1  0  0  0  0
 78 76  1  0  0  0  0
 79 76  1  0  0  0  0
  2 42  1  0  0  0  0
  3 41  1  0  0  0  0
 12 13  4  0  0  0  0
 41 42  1  0  0  0  0
 51 52  4  0  0  0  0
M  END
$$$$
PEXZAT

From CSD data. Using bond type 'Any'. Matching problem. No disordered atoms. Largest molecule.
 77 82  0  0  0  0  0  0  0  0999 V2000
    0.0243    1.1934    5.3327 Fe  0  0  0  0  0  0  0  0  0  0  0  0
   -0.2211    3.2908    4.4483 P   0  0  0  0  0  0  0  0  0  0  0  0
    0.5018    2.8453    6.8503 P   0  0  0  0  0  0  0  0  0  0  0  0
   -1.2174    3.0258    6.0915 B   0  0  0  0  0  0  0  0  0  0  0  0
    1.4815    3.0030    5.2646 B   0  0  0  0  0  0  0  0  0  0  0  0
    0.3508   -0.0618    6.5258 C   0  0  0  0  0  0  0  0  0  0  0  0
    0.5895   -0.9007    7.2812 O   0  0  0  0  0  0  0  0  0  0  0  0
   -1.5516    0.5853    4.8006 C   0  0  0  0  0  0  0  0  0  0  0  0
   -2.5364    0.1480    4.4064 O   0  0  0  0  0  0  0  0  0  0  0  0
    1.1080    0.5935    4.0470 C   0  0  0  0  0  0  0  0  0  0  0  0
    1.7349    0.1984    3.1940 O   0  0  0  0  0  0  0  0  0  0  0  0
   -2.6237    3.3900    6.6061 C   0  0  0  0  0  0  0  0  0  0  0  0
   -2.9619    4.7850    6.5974 C   0  0  0  0  0  0  0  0  0  0  0  0
   -4.2273    5.1899    6.9689 C   0  0  0  0  0  0  0  0  0  0  0  0
   -5.2092    4.3200    7.3876 C   0  0  0  0  0  0  0  0  0  0  0  0
   -4.8370    2.9689    7.4888 C   0  0  0  0  0  0  0  0  0  0  0  0
   -3.5887    2.5169    7.1085 C   0  0  0  0  0  0  0  0  0  0  0  0
   -1.9477    5.8305    6.1874 C   0  0  0  0  0  0  0  0  0  0  0  0
   -6.6018    4.7720    7.7574 C   0  0  0  0  0  0  0  0  0  0  0  0
   -3.3151    1.0422    7.3701 C   0  0  0  0  0  0  0  0  0  0  0  0
    2.9571    3.3445    4.8599 C   0  0  0  0  0  0  0  0  0  0  0  0
    3.2103    4.7005    4.5041 C   0  0  0  0  0  0  0  0  0  0  0  0
    4.4870    5.0728    4.0802 C   0  0  0  0  0  0  0  0  0  0  0  0
    5.5316    4.1639    4.0017 C   0  0  0  0  0  0  0  0  0  0  0  0
    5.2857    2.8648    4.4099 C   0  0  0  0  0  0  0  0  0  0  0  0
    4.0373    2.4519    4.8617 C   0  0  0  0  0  0  0  0  0  0  0  0
    2.1814    5.7638    4.6454 C   0  0  0  0  0  0  0  0  0  0  0  0
    6.8757    4.5785    3.4941 C   0  0  0  0  0  0  0  0  0  0  0  0
    3.9515    1.0357    5.3850 C   0  0  0  0  0  0  0  0  0  0  0  0
   -0.6347    3.5526    2.6515 C   0  0  0  0  0  0  0  0  0  0  0  0
   -1.7288    2.5283    2.2119 C   0  0  0  0  0  0  0  0  0  0  0  0
   -1.1511    4.9590    2.4649 C   0  0  0  0  0  0  0  0  0  0  0  0
    0.6096    3.3266    1.8386 C   0  0  0  0  0  0  0  0  0  0  0  0
    1.0048    2.6518    8.6104 C   0  0  0  0  0  0  0  0  0  0  0  0
    2.3529    1.8974    8.6994 C   0  0  0  0  0  0  0  0  0  0  0  0
   -0.0727    1.8991    9.3797 C   0  0  0  0  0  0  0  0  0  0  0  0
    1.1677    4.0794    9.1407 C   0  0  0  0  0  0  0  0  0  0  0  0
   -4.4269    6.1280    6.9201 H   0  0  0  0  0  0  0  0  0  0  0  0
   -5.4661    2.3267    7.8254 H   0  0  0  0  0  0  0  0  0  0  0  0
   -2.3212    6.7133    6.2502 H   0  0  0  0  0  0  0  0  0  0  0  0
   -1.1844    5.7654    6.7666 H   0  0  0  0  0  0  0  0  0  0  0  0
   -1.6798    5.6614    5.2821 H   0  0  0  0  0  0  0  0  0  0  0  0
   -6.6754    5.7183    7.6144 H   0  0  0  0  0  0  0  0  0  0  0  0
   -7.2616    4.3168    7.2306 H   0  0  0  0  0  0  0  0  0  0  0  0
   -6.7441    4.5769    8.6872 H   0  0  0  0  0  0  0  0  0  0  0  0
   -4.1122    0.6406    7.7225 H   0  0  0  0  0  0  0  0  0  0  0  0
   -3.0707    0.6048    6.5503 H   0  0  0  0  0  0  0  0  0  0  0  0
   -2.6024    0.9479    8.0069 H   0  0  0  0  0  0  0  0  0  0  0  0
    4.6557    5.9963    3.8778 H   0  0  0  0  0  0  0  0  0  0  0  0
    6.0064    2.2307    4.3889 H   0  0  0  0  0  0  0  0  0  0  0  0
    2.5311    6.6044    4.3384 H   0  0  0  0  0  0  0  0  0  0  0  0
    1.3928    5.5443    4.1430 H   0  0  0  0  0  0  0  0  0  0  0  0
    1.9600    5.8289    5.5769 H   0  0  0  0  0  0  0  0  0  0  0  0
    7.4811    3.8339    3.4818 H   0  0  0  0  0  0  0  0  0  0  0  0
    6.7839    4.9314    2.6062 H   0  0  0  0  0  0  0  0  0  0  0  0
    7.2182    5.2614    4.0767 H   0  0  0  0  0  0  0  0  0  0  0  0
    4.7944    0.5853    5.2995 H   0  0  0  0  0  0  0  0  0  0  0  0
    3.6990    1.0698    6.3113 H   0  0  0  0  0  0  0  0  0  0  0  0
    3.2814    0.5593    4.8896 H   0  0  0  0  0  0  0  0  0  0  0  0
   -1.9434    2.6681    1.2874 H   0  0  0  0  0  0  0  0  0  0  0  0
   -1.3794    1.6422    2.3288 H   0  0  0  0  0  0  0  0  0  0  0  0
   -2.5219    2.6323    2.7440 H   0  0  0  0  0  0  0  0  0  0  0  0
   -1.3721    5.0988    1.5421 H   0  0  0  0  0  0  0  0  0  0  0  0
   -1.9341    5.0891    3.0056 H   0  0  0  0  0  0  0  0  0  0  0  0
   -0.4718    5.5850    2.7300 H   0  0  0  0  0  0  0  0  0  0  0  0
    0.4138    3.4550    0.9071 H   0  0  0  0  0  0  0  0  0  0  0  0
    1.2731    3.9623    2.1160 H   0  0  0  0  0  0  0  0  0  0  0  0
    0.9434    2.4356    1.9747 H   0  0  0  0  0  0  0  0  0  0  0  0
    2.6061    1.7950    9.6204 H   0  0  0  0  0  0  0  0  0  0  0  0
    2.2688    1.0324    8.2929 H   0  0  0  0  0  0  0  0  0  0  0  0
    3.0245    2.4047    8.2371 H   0  0  0  0  0  0  0  0  0  0  0  0
    0.1951    1.7901   10.2955 H   0  0  0  0  0  0  0  0  0  0  0  0
   -0.8871    2.4047    9.3431 H   0  0  0  0  0  0  0  0  0  0  0  0
   -0.2154    1.0357    8.9837 H   0  0  0  0  0  0  0  0  0  0  0  0
    1.4362    4.0501   10.0618 H   0  0  0  0  0  0  0  0  0  0  0  0
    1.8401    4.5330    8.6261 H   0  0  0  0  0  0  0  0  0  0  0  0
    0.3343    4.5509    9.0657 H   0  0  0  0  0  0  0  0  0  0  0  0
  1  2  1  0  0  0  0
  2  4  1  0  0  0  0
  3  1  1  0  0  0  0
  4  1  1  0  0  0  0
  5  1  1  0  0  0  0
  6  1  1  0  0  0  0
  7  6  3  0  0  0  0
  8  1  1  0  0  0  0
  9  8  3  0  0  0  0
 10  1  1  0  0  0  0
 11 10  3  0  0  0  0
 12  4  1  0  0  0  0
 13 12  4  0  0  0  0
 14 13  4  0  0  0  0
 15 14  4  0  0  0  0
 16 15  4  0  0  0  0
 17 12  4  0  0  0  0
 18 13  1  0  0  0  0
 19 15  1  0  0  0  0
 20 17  1  0  0  0  0
 21  5  1  0  0  0  0
 22 21  4  0  0  0  0
 23 22  4  0  0  0  0
 24 23  4  0  0  0  0
 25 24  4  0  0  0  0
 26 21  4  0  0  0  0
 27 22  1  0  0  0  0
 28 24  1  0  0  0  0
 29 26  1  0  0  0  0
 30  2  1  0  0  0  0
 31 30  1  0  0  0  0
 32 30  1  0  0  0  0
 33 30  1  0  0  0  0
 34  3  1  0  0  0  0
 35 34  1  0  0  0  0
 36 34  1  0  0  0  0
 37 34  1  0  0  0  0
 38 14  1  0  0  0  0
 39 16  1  0  0  0  0
 40 18  1  0  0  0  0
 41 18  1  0  0  0  0
 42 18  1  0  0  0  0
 43 19  1  0  0  0  0
 44 19  1  0  0  0  0
 45 19  1  0  0  0  0
 46 20  1  0  0  0  0
 47 20  1  0  0  0  0
 48 20  1  0  0  0  0
 49 23  1  0  0  0  0
 50 25  1  0  0  0  0
 51 27  1  0  0  0  0
 52 27  1  0  0  0  0
 53 27  1  0  0  0  0
 54 28  1  0  0  0  0
 55 28  1  0  0  0  0
 56 28  1  0  0  0  0
 57 29  1  0  0  0  0
 58 29  1  0  0  0  0
 59 29  1  0  0  0  0
 60 31  1  0  0  0  0
 61 31  1  0  0  0  0
 62 31  1  0  0  0  0
 63 32  1  0  0  0  0
 64 32  1  0  0  0  0
 65 32  1  0  0  0  0
 66 33  1  0  0  0  0
 67 33  1  0  0  0  0
 68 33  1  0  0  0  0
 69 35  1  0  0  0  0
 70 35  1  0  0  0  0
 71 35  1  0  0  0  0
 72 36  1  0  0  0  0
 73 36  1  0  0  0  0
 74 36  1  0  0  0  0
 75 37  1  0  0  0  0
 76 37  1  0  0  0  0
 77 37  1  0  0  0  0
  2  5  1  0  0  0  0
  3  4  1  0  0  0  0
  3  5  1  0  0  0  0
 16 17  4  0  0  0  0
 25 26  4  0  0  0  0
M  END
$$$$
PILMAB

From CSD data. Using bond type 'Any'. Matching problem. No disordered atoms. Largest molecule.
170270  0  0  0  0  0  0  0  0999 V2000
   13.4616   -1.3212    2.3485 P   0  0  0  0  0  0  0  0  0  0  0  0
   13.4529   -3.6733    2.3099 Ru  0  0  0  0  0  0  0  0  0  0  0  0
   13.0099   -3.6732    3.7983 H   0  0  0  0  0  0  0  0  0  0  0  0
   14.8982   -3.6733    2.5988 H   0  0  0  0  0  0  0  0  0  0  0  0
   11.3779   -3.6733    1.5726 N   0  0  0  0  0  0  0  0  0  0  0  0
   13.8462   -3.6733    0.1619 N   0  0  0  0  0  0  0  0  0  0  0  0
   10.1291   -3.6733    2.0617 C   0  0  0  0  0  0  0  0  0  0  0  0
   10.0016   -3.6733    3.0033 H   0  0  0  0  0  0  0  0  0  0  0  0
    9.0048   -3.6733    1.2217 C   0  0  0  0  0  0  0  0  0  0  0  0
    8.1416   -3.6733    1.6188 H   0  0  0  0  0  0  0  0  0  0  0  0
    9.0983   -3.6733   -0.1399 C   0  0  0  0  0  0  0  0  0  0  0  0
    8.3207   -3.6733   -0.6858 H   0  0  0  0  0  0  0  0  0  0  0  0
   10.3854   -3.6733   -0.7123 C   0  0  0  0  0  0  0  0  0  0  0  0
   11.4508   -3.6733    0.2399 C   0  0  0  0  0  0  0  0  0  0  0  0
   12.6514   -3.6733   -0.4622 C   0  0  0  0  0  0  0  0  0  0  0  0
   12.3724   -3.6733   -1.8607 C   0  0  0  0  0  0  0  0  0  0  0  0
   13.5245   -3.6733   -2.6608 C   0  0  0  0  0  0  0  0  0  0  0  0
   13.4561   -3.6733   -3.6083 H   0  0  0  0  0  0  0  0  0  0  0  0
   14.7562   -3.6733   -2.0455 C   0  0  0  0  0  0  0  0  0  0  0  0
   15.5375   -3.6733   -2.5869 H   0  0  0  0  0  0  0  0  0  0  0  0
   14.9051   -3.6733   -0.6435 C   0  0  0  0  0  0  0  0  0  0  0  0
   15.7767   -3.6733   -0.2669 H   0  0  0  0  0  0  0  0  0  0  0  0
   10.9485   -3.6733   -2.0331 C   0  0  0  0  0  0  0  0  0  0  0  0
   12.9237   -0.5598    3.9340 C   0  0  0  0  0  0  0  0  0  0  0  0
   11.8616   -1.1284    4.6297 C   0  0  0  0  0  0  0  0  0  0  0  0
   11.4136   -1.8852    4.2689 H   0  0  0  0  0  0  0  0  0  0  0  0
   11.4491   -0.6009    5.8494 C   0  0  0  0  0  0  0  0  0  0  0  0
   10.7170   -0.9930    6.3104 H   0  0  0  0  0  0  0  0  0  0  0  0
   12.0918    0.4819    6.3891 C   0  0  0  0  0  0  0  0  0  0  0  0
   11.8168    0.8323    7.2279 H   0  0  0  0  0  0  0  0  0  0  0  0
   13.1416    1.0579    5.7077 C   0  0  0  0  0  0  0  0  0  0  0  0
   13.5892    1.8100    6.0780 H   0  0  0  0  0  0  0  0  0  0  0  0
   13.5501    0.5451    4.4758 C   0  0  0  0  0  0  0  0  0  0  0  0
   14.2648    0.9586    4.0064 H   0  0  0  0  0  0  0  0  0  0  0  0
   15.0522   -0.4614    1.9813 C   0  0  0  0  0  0  0  0  0  0  0  0
   15.0645    0.8346    1.4758 C   0  0  0  0  0  0  0  0  0  0  0  0
   14.2462    1.2700    1.2691 H   0  0  0  0  0  0  0  0  0  0  0  0
   16.2702    1.4913    1.2728 C   0  0  0  0  0  0  0  0  0  0  0  0
   16.2711    2.3753    0.9265 H   0  0  0  0  0  0  0  0  0  0  0  0
   17.4586    0.8757    1.5666 C   0  0  0  0  0  0  0  0  0  0  0  0
   18.2789    1.3351    1.4316 H   0  0  0  0  0  0  0  0  0  0  0  0
   17.4604   -0.3923    2.0520 C   0  0  0  0  0  0  0  0  0  0  0  0
   18.2847   -0.8184    2.2540 H   0  0  0  0  0  0  0  0  0  0  0  0
   16.2657   -1.0726    2.2554 C   0  0  0  0  0  0  0  0  0  0  0  0
   16.2807   -1.9643    2.5845 H   0  0  0  0  0  0  0  0  0  0  0  0
   12.3267   -0.5657    1.1262 C   0  0  0  0  0  0  0  0  0  0  0  0
   12.6624   -0.6142   -0.2350 C   0  0  0  0  0  0  0  0  0  0  0  0
   13.4985   -0.9782   -0.5013 H   0  0  0  0  0  0  0  0  0  0  0  0
   11.7834   -0.1352   -1.1941 C   0  0  0  0  0  0  0  0  0  0  0  0
   12.0122   -0.1833   -2.1152 H   0  0  0  0  0  0  0  0  0  0  0  0
   10.5829    0.4070   -0.8087 C   0  0  0  0  0  0  0  0  0  0  0  0
    9.9793    0.7296   -1.4670 H   0  0  0  0  0  0  0  0  0  0  0  0
   10.2469    0.4878    0.5275 C   0  0  0  0  0  0  0  0  0  0  0  0
    9.4250    0.8875    0.7855 H   0  0  0  0  0  0  0  0  0  0  0  0
   11.1059   -0.0132    1.4947 C   0  0  0  0  0  0  0  0  0  0  0  0
   10.8588    0.0216    2.4113 H   0  0  0  0  0  0  0  0  0  0  0  0
    8.4192   -4.0847   -4.7557 C   0  0  0  0  0  0  0  0  0  0  0  0
    9.4604   -3.2574   -5.4398 C   0  0  0  0  0  0  0  0  0  0  0  0
    9.8744   -3.5204   -6.8281 C   0  0  0  0  0  0  0  0  0  0  0  0
    9.1040   -3.4159   -7.4250 H   0  0  0  0  0  0  0  0  0  0  0  0
   10.5758   -2.8865   -7.0864 H   0  0  0  0  0  0  0  0  0  0  0  0
   10.2196   -4.4354   -6.8987 H   0  0  0  0  0  0  0  0  0  0  0  0
    6.9848   -3.4088   -4.9600 C   0  0  0  0  0  0  0  0  0  0  0  0
    6.7251   -3.4735   -5.9031 H   0  0  0  0  0  0  0  0  0  0  0  0
    6.3220   -3.8742   -4.4071 H   0  0  0  0  0  0  0  0  0  0  0  0
    7.0265   -2.4666   -4.6962 H   0  0  0  0  0  0  0  0  0  0  0  0
    9.1520   -1.7646   -5.4487 C   0  0  0  0  0  0  0  0  0  0  0  0
    8.8619   -1.4850   -4.5551 H   0  0  0  0  0  0  0  0  0  0  0  0
    9.9562   -1.2660   -5.7020 H   0  0  0  0  0  0  0  0  0  0  0  0
    8.4375   -1.5825   -6.0950 H   0  0  0  0  0  0  0  0  0  0  0  0
    8.5336   -5.5804   -5.0200 C   0  0  0  0  0  0  0  0  0  0  0  0
    8.3243   -5.7626   -5.9601 H   0  0  0  0  0  0  0  0  0  0  0  0
    9.4470   -5.8777   -4.8254 H   0  0  0  0  0  0  0  0  0  0  0  0
    7.9035   -6.0639   -4.4458 H   0  0  0  0  0  0  0  0  0  0  0  0
   14.2365   -2.7432    7.0169 C   0  0  0  0  0  0  0  0  0  0  0  0
   14.5236   -2.9739    7.9259 H   0  0  0  0  0  0  0  0  0  0  0  0
   13.9090   -1.8197    7.0033 H   0  0  0  0  0  0  0  0  0  0  0  0
   13.5167   -3.3487    6.7398 H   0  0  0  0  0  0  0  0  0  0  0  0
   15.6535   -5.3027    6.9858 C   0  0  0  0  0  0  0  0  0  0  0  0
   14.7449   -5.1974    7.3392 H   0  0  0  0  0  0  0  0  0  0  0  0
   15.7777   -6.2239    6.6754 H   0  0  0  0  0  0  0  0  0  0  0  0
   16.3029   -5.1062    7.6932 H   0  0  0  0  0  0  0  0  0  0  0  0
   16.4885   -1.9365    6.5038 C   0  0  0  0  0  0  0  0  0  0  0  0
   16.8024   -2.1890    7.3965 H   0  0  0  0  0  0  0  0  0  0  0  0
   17.2354   -1.9836    5.8696 H   0  0  0  0  0  0  0  0  0  0  0  0
   16.1367   -1.0227    6.5260 H   0  0  0  0  0  0  0  0  0  0  0  0
   17.2473   -4.4711    5.2510 C   0  0  0  0  0  0  0  0  0  0  0  0
   17.3520   -3.8421    4.5055 H   0  0  0  0  0  0  0  0  0  0  0  0
   17.9082   -4.2680    5.9444 H   0  0  0  0  0  0  0  0  0  0  0  0
   17.3830   -5.3857    4.9266 H   0  0  0  0  0  0  0  0  0  0  0  0
   15.4041   -2.8798    6.0684 C   0  0  0  0  0  0  0  0  0  0  0  0
   15.8614   -4.3418    5.8241 C   0  0  0  0  0  0  0  0  0  0  0  0
   10.1152   -3.6733   -3.2985 B   0  0  0  0  0  0  0  0  0  0  0  0
   14.5067   -3.6732    4.0975 B   0  0  0  0  0  0  0  0  0  0  0  0
   10.6389   -3.4205   -4.5555 O   0  0  0  0  0  0  0  0  0  0  0  0
    8.7501   -3.9612   -3.3469 O   0  0  0  0  0  0  0  0  0  0  0  0
   14.9303   -2.5341    4.7679 O   0  0  0  0  0  0  0  0  0  0  0  0
    8.4192   -3.2618   -4.7557 C   0  0  0  0  0  0  0  0  0  0  0  0
    9.4604   -4.0891   -5.4398 C   0  0  0  0  0  0  0  0  0  0  0  0
    9.8744   -3.8261   -6.8281 C   0  0  0  0  0  0  0  0  0  0  0  0
    9.1040   -3.9306   -7.4250 H   0  0  0  0  0  0  0  0  0  0  0  0
   10.5758   -4.4600   -7.0864 H   0  0  0  0  0  0  0  0  0  0  0  0
   10.2196   -2.9111   -6.8987 H   0  0  0  0  0  0  0  0  0  0  0  0
    6.9848   -3.9377   -4.9600 C   0  0  0  0  0  0  0  0  0  0  0  0
    6.7251   -3.8730   -5.9031 H   0  0  0  0  0  0  0  0  0  0  0  0
    6.3220   -3.4723   -4.4071 H   0  0  0  0  0  0  0  0  0  0  0  0
    7.0265   -4.8799   -4.6962 H   0  0  0  0  0  0  0  0  0  0  0  0
    9.1520   -5.5819   -5.4487 C   0  0  0  0  0  0  0  0  0  0  0  0
    8.8619   -5.8615   -4.5551 H   0  0  0  0  0  0  0  0  0  0  0  0
    9.9562   -6.0805   -5.7020 H   0  0  0  0  0  0  0  0  0  0  0  0
    8.4375   -5.7640   -6.0950 H   0  0  0  0  0  0  0  0  0  0  0  0
    8.5336   -1.7661   -5.0200 C   0  0  0  0  0  0  0  0  0  0  0  0
    8.3243   -1.5839   -5.9601 H   0  0  0  0  0  0  0  0  0  0  0  0
    9.4470   -1.4688   -4.8254 H   0  0  0  0  0  0  0  0  0  0  0  0
    7.9035   -1.2826   -4.4458 H   0  0  0  0  0  0  0  0  0  0  0  0
   10.6389   -3.9260   -4.5555 O   0  0  0  0  0  0  0  0  0  0  0  0
    8.7501   -3.3853   -3.3469 O   0  0  0  0  0  0  0  0  0  0  0  0
   14.2365   -4.6033    7.0169 C   0  0  0  0  0  0  0  0  0  0  0  0
   14.5236   -4.3726    7.9259 H   0  0  0  0  0  0  0  0  0  0  0  0
   13.9090   -5.5268    7.0033 H   0  0  0  0  0  0  0  0  0  0  0  0
   13.5167   -3.9978    6.7398 H   0  0  0  0  0  0  0  0  0  0  0  0
   15.6535   -2.0438    6.9858 C   0  0  0  0  0  0  0  0  0  0  0  0
   14.7449   -2.1491    7.3392 H   0  0  0  0  0  0  0  0  0  0  0  0
   15.7777   -1.1226    6.6754 H   0  0  0  0  0  0  0  0  0  0  0  0
   16.3029   -2.2403    7.6932 H   0  0  0  0  0  0  0  0  0  0  0  0
   16.4885   -5.4100    6.5038 C   0  0  0  0  0  0  0  0  0  0  0  0
   16.8024   -5.1575    7.3965 H   0  0  0  0  0  0  0  0  0  0  0  0
   17.2354   -5.3629    5.8696 H   0  0  0  0  0  0  0  0  0  0  0  0
   16.1367   -6.3238    6.5260 H   0  0  0  0  0  0  0  0  0  0  0  0
   17.2473   -2.8754    5.2510 C   0  0  0  0  0  0  0  0  0  0  0  0
   17.3520   -3.5044    4.5055 H   0  0  0  0  0  0  0  0  0  0  0  0
   17.9082   -3.0785    5.9444 H   0  0  0  0  0  0  0  0  0  0  0  0
   17.3830   -1.9608    4.9266 H   0  0  0  0  0  0  0  0  0  0  0  0
   15.4041   -4.4667    6.0684 C   0  0  0  0  0  0  0  0  0  0  0  0
   15.8614   -3.0047    5.8241 C   0  0  0  0  0  0  0  0  0  0  0  0
   14.9303   -4.8124    4.7679 O   0  0  0  0  0  0  0  0  0  0  0  0
   13.4616   -6.0253    2.3485 P   0  0  0  0  0  0  0  0  0  0  0  0
   12.9237   -6.7867    3.9340 C   0  0  0  0  0  0  0  0  0  0  0  0
   11.8616   -6.2181    4.6297 C   0  0  0  0  0  0  0  0  0  0  0  0
   11.4136   -5.4613    4.2689 H   0  0  0  0  0  0  0  0  0  0  0  0
   11.4491   -6.7456    5.8494 C   0  0  0  0  0  0  0  0  0  0  0  0
   10.7170   -6.3535    6.3104 H   0  0  0  0  0  0  0  0  0  0  0  0
   12.0918   -7.8284    6.3891 C   0  0  0  0  0  0  0  0  0  0  0  0
   11.8168   -8.1788    7.2279 H   0  0  0  0  0  0  0  0  0  0  0  0
   13.1416   -8.4044    5.7077 C   0  0  0  0  0  0  0  0  0  0  0  0
   13.5892   -9.1565    6.0780 H   0  0  0  0  0  0  0  0  0  0  0  0
   13.5501   -7.8916    4.4758 C   0  0  0  0  0  0  0  0  0  0  0  0
   14.2648   -8.3051    4.0064 H   0  0  0  0  0  0  0  0  0  0  0  0
   15.0522   -6.8851    1.9813 C   0  0  0  0  0  0  0  0  0  0  0  0
   15.0645   -8.1811    1.4758 C   0  0  0  0  0  0  0  0  0  0  0  0
   14.2462   -8.6165    1.2691 H   0  0  0  0  0  0  0  0  0  0  0  0
   16.2702   -8.8378    1.2728 C   0  0  0  0  0  0  0  0  0  0  0  0
   16.2711   -9.7218    0.9265 H   0  0  0  0  0  0  0  0  0  0  0  0
   17.4586   -8.2222    1.5666 C   0  0  0  0  0  0  0  0  0  0  0  0
   18.2789   -8.6816    1.4316 H   0  0  0  0  0  0  0  0  0  0  0  0
   17.4604   -6.9542    2.0520 C   0  0  0  0  0  0  0  0  0  0  0  0
   18.2847   -6.5281    2.2540 H   0  0  0  0  0  0  0  0  0  0  0  0
   16.2657   -6.2739    2.2554 C   0  0  0  0  0  0  0  0  0  0  0  0
   16.2807   -5.3822    2.5845 H   0  0  0  0  0  0  0  0  0  0  0  0
   12.3267   -6.7808    1.1262 C   0  0  0  0  0  0  0  0  0  0  0  0
   12.6624   -6.7323   -0.2350 C   0  0  0  0  0  0  0  0  0  0  0  0
   13.4985   -6.3683   -0.5013 H   0  0  0  0  0  0  0  0  0  0  0  0
   11.7834   -7.2113   -1.1941 C   0  0  0  0  0  0  0  0  0  0  0  0
   12.0122   -7.1632   -2.1152 H   0  0  0  0  0  0  0  0  0  0  0  0
   10.5829   -7.7535   -0.8087 C   0  0  0  0  0  0  0  0  0  0  0  0
    9.9793   -8.0761   -1.4670 H   0  0  0  0  0  0  0  0  0  0  0  0
   10.2469   -7.8343    0.5275 C   0  0  0  0  0  0  0  0  0  0  0  0
    9.4250   -8.2340    0.7855 H   0  0  0  0  0  0  0  0  0  0  0  0
   11.1059   -7.3333    1.4947 C   0  0  0  0  0  0  0  0  0  0  0  0
   10.8588   -7.3681    2.4113 H   0  0  0  0  0  0  0  0  0  0  0  0
  1  2  1  0  0  0  0
  2  3  1  0  0  0  0
  4  2  1  0  0  0  0
  5  2  1  0  0  0  0
  6  2  1  0  0  0  0
  7  5  1  0  0  0  0
  8  7  1  0  0  0  0
  9  7  1  0  0  0  0
 10  9  1  0  0  0  0
 11  9  1  0  0  0  0
 12 11  1  0  0  0  0
 13 11  1  0  0  0  0
 14  5  1  0  0  0  0
 15  6  1  0  0  0  0
 16 15  1  0  0  0  0
 17 16  1  0  0  0  0
 18 17  1  0  0  0  0
 19 17  1  0  0  0  0
 20 19  1  0  0  0  0
 21  6  1  0  0  0  0
 22 21  1  0  0  0  0
 23 13  1  0  0  0  0
 24  1  1  0  0  0  0
 25 24  1  0  0  0  0
 26 25  1  0  0  0  0
 27 25  1  0  0  0  0
 28 27  1  0  0  0  0
 29 27  1  0  0  0  0
 30 29  1  0  0  0  0
 31 29  1  0  0  0  0
 32 31  1  0  0  0  0
 33 24  1  0  0  0  0
 34 33  1  0  0  0  0
 35  1  1  0  0  0  0
 36 35  1  0  0  0  0
 37 36  1  0  0  0  0
 38 36  1  0  0  0  0
 39 38  1  0  0  0  0
 40 38  1  0  0  0  0
 41 40  1  0  0  0  0
 42 40  1  0  0  0  0
 43 42  1  0  0  0  0
 44 35  1  0  0  0  0
 45 44  1  0  0  0  0
 46  1  1  0  0  0  0
 47 46  1  0  0  0  0
 48 47  1  0  0  0  0
 49 47  1  0  0  0  0
 50 49  1  0  0  0  0
 51 49  1  0  0  0  0
 52 51  1  0  0  0  0
 53 51  1  0  0  0  0
 54 53  1  0  0  0  0
 55 46  1  0  0  0  0
 56 55  1  0  0  0  0
 57 58  1  0  0  0  0
 58 59  1  0  0  0  0
 59 60  1  0  0  0  0
 60100  1  0  0  0  0
 61 59  1  0  0  0  0
 62 59  1  0  0  0  0
 63 57  1  0  0  0  0
 64 63  1  0  0  0  0
 65 63  1  0  0  0  0
 66 63  1  0  0  0  0
 67 58  1  0  0  0  0
 68 67  1  0  0  0  0
 69 67  1  0  0  0  0
 70 67  1  0  0  0  0
 71 57  1  0  0  0  0
 72 71  1  0  0  0  0
 73 71  1  0  0  0  0
 74 71  1  0  0  0  0
 75 76  1  0  0  0  0
 76119  1  0  0  0  0
 77 75  1  0  0  0  0
 78 75  1  0  0  0  0
 79 80  1  0  0  0  0
 80118  1  0  0  0  0
 81 79  1  0  0  0  0
 82 79  1  0  0  0  0
 83 84  1  0  0  0  0
 84122  1  0  0  0  0
 85 83  1  0  0  0  0
 86 83  1  0  0  0  0
 87 88  1  0  0  0  0
 88130  1  0  0  0  0
 89 87  1  0  0  0  0
 90 87  1  0  0  0  0
 91 75  1  0  0  0  0
 92 79  1  0  0  0  0
 93 23  1  0  0  0  0
 94  2  1  0  0  0  0
 95 58  1  0  0  0  0
 96 57  1  0  0  0  0
 97 91  1  0  0  0  0
 98 57  1  0  0  0  0
 99 57  1  0  0  0  0
100 58  1  0  0  0  0
101 59  1  0  0  0  0
102 59  1  0  0  0  0
103 59  1  0  0  0  0
104 57  1  0  0  0  0
105 63  1  0  0  0  0
106 63  1  0  0  0  0
107 65  1  0  0  0  0
108 57  1  0  0  0  0
109 71  1  0  0  0  0
110 73  1  0  0  0  0
111 71  1  0  0  0  0
112 58  1  0  0  0  0
113 67  1  0  0  0  0
114 67  1  0  0  0  0
115 68  1  0  0  0  0
116 58  1  0  0  0  0
117 57  1  0  0  0  0
118 79  1  0  0  0  0
119 80  1  0  0  0  0
120 80  1  0  0  0  0
121 78  1  0  0  0  0
122 75  1  0  0  0  0
123 75  1  0  0  0  0
124 83  1  0  0  0  0
125 83  1  0  0  0  0
126 79  1  0  0  0  0
127 79  1  0  0  0  0
128 87  1  0  0  0  0
129 79  1  0  0  0  0
130 83  1  0  0  0  0
131 87  1  0  0  0  0
132 85  1  0  0  0  0
133 85  1  0  0  0  0
134 79  1  0  0  0  0
135 83  1  0  0  0  0
136 92  1  0  0  0  0
137  2  1  0  0  0  0
138137  1  0  0  0  0
139138  1  0  0  0  0
140139  1  0  0  0  0
141139  1  0  0  0  0
142141  1  0  0  0  0
143141  1  0  0  0  0
144143  1  0  0  0  0
145143  1  0  0  0  0
146145  1  0  0  0  0
147138  1  0  0  0  0
148147  1  0  0  0  0
149137  1  0  0  0  0
150149  1  0  0  0  0
151150  1  0  0  0  0
152150  1  0  0  0  0
153152  1  0  0  0  0
154152  1  0  0  0  0
155154  1  0  0  0  0
156154  1  0  0  0  0
157156  1  0  0  0  0
158149  1  0  0  0  0
159158  1  0  0  0  0
160137  1  0  0  0  0
161160  1  0  0  0  0
162161  1  0  0  0  0
163161  1  0  0  0  0
164163  1  0  0  0  0
165163  1  0  0  0  0
166165  1  0  0  0  0
167165  1  0  0  0  0
168167  1  0  0  0  0
169160  1  0  0  0  0
170169  1  0  0  0  0
 13 14  1  0  0  0  0
 14 15  1  0  0  0  0
 16 23  1  0  0  0  0
 19 21  1  0  0  0  0
 31 33  1  0  0  0  0
 42 44  1  0  0  0  0
 53 55  1  0  0  0  0
 58 98  1  0  0  0  0
 58 99  1  0  0  0  0
 59 99  1  0  0  0  0
 60103  1  0  0  0  0
 61100  1  0  0  0  0
 62100  1  0  0  0  0
 62101  1  0  0  0  0
 63 98  1  0  0  0  0
 64104  1  0  0  0  0
 65104  1  0  0  0  0
 66106  1  0  0  0  0
 67 98  1  0  0  0  0
 67112  1  0  0  0  0
 68112  1  0  0  0  0
 68114  1  0  0  0  0
 69114  1  0  0  0  0
 70112  1  0  0  0  0
 71 99  1  0  0  0  0
 71108  1  0  0  0  0
 72108  1  0  0  0  0
 73108  1  0  0  0  0
 73109  1  0  0  0  0
 74109  1  0  0  0  0
 76123  1  0  0  0  0
 77123  1  0  0  0  0
 81126  1  0  0  0  0
 82126  1  0  0  0  0
 82127  1  0  0  0  0
 83 91  1  0  0  0  0
 83122  1  0  0  0  0
 84125  1  0  0  0  0
 85130  1  0  0  0  0
 86122  1  0  0  0  0
 87 92  1  0  0  0  0
 87126  1  0  0  0  0
 87130  1  0  0  0  0
 89128  1  0  0  0  0
 89132  1  0  0  0  0
 90128  1  0  0  0  0
 91 92  1  0  0  0  0
 91122  1  0  0  0  0
 91134  1  0  0  0  0
 92126  1  0  0  0  0
 92135  1  0  0  0  0
 93 95  1  0  0  0  0
 93 96  1  0  0  0  0
 93116  1  0  0  0  0
 93117  1  0  0  0  0
 94 97  1  0  0  0  0
 94136  1  0  0  0  0
 95 99  1  0  0  0  0
 96 98  1  0  0  0  0
 96117  1  0  0  0  0
 97135  1  0  0  0  0
 98 99  1  0  0  0  0
 98104  1  0  0  0  0
 98112  1  0  0  0  0
 98117  1  0  0  0  0
 99100  1  0  0  0  0
 99108  1  0  0  0  0
 99116  1  0  0  0  0
100101  1  0  0  0  0
100102  1  0  0  0  0
100103  1  0  0  0  0
104105  1  0  0  0  0
104106  1  0  0  0  0
104107  1  0  0  0  0
108109  1  0  0  0  0
108110  1  0  0  0  0
108111  1  0  0  0  0
112113  1  0  0  0  0
112114  1  0  0  0  0
112115  1  0  0  0  0
118119  1  0  0  0  0
118120  1  0  0  0  0
118121  1  0  0  0  0
118134  1  0  0  0  0
122123  1  0  0  0  0
122124  1  0  0  0  0
122125  1  0  0  0  0
122135  1  0  0  0  0
126127  1  0  0  0  0
126128  1  0  0  0  0
126129  1  0  0  0  0
126134  1  0  0  0  0
130131  1  0  0  0  0
130132  1  0  0  0  0
130133  1  0  0  0  0
130135  1  0  0  0  0
134135  1  0  0  0  0
134136  1  0  0  0  0
145147  1  0  0  0  0
156158  1  0  0  0  0
167169  1  0  0  0  0
M  END
$$$$
PIRKOT

From CSD data. Using bond type 'Any'. No disordered atoms. Largest molecule.
135173  0  0  0  0  0  0  0  0999 V2000
    0.1057    7.7376    2.6669 Pd  0  0  0  0  0  0  0  0  0  0  0  0
    1.4608   10.6919    0.7958 Pd  0  0  0  0  0  0  0  0  0  0  0  0
    1.8101    8.3425    1.1126 Cl  0  0  0  0  0  0  0  0  0  0  0  0
    2.6733   11.3624    2.9485 Cl  0  0  0  0  0  0  0  0  0  0  0  0
   -0.1225   14.3190    3.4417 Cl  0  0  0  0  0  0  0  0  0  0  0  0
    1.9106   16.5723    0.3318 Cl  0  0  0  0  0  0  0  0  0  0  0  0
    4.7455   13.5192    0.1284 Cl  0  0  0  0  0  0  0  0  0  0  0  0
    5.2066   16.7774    1.4969 Cl  0  0  0  0  0  0  0  0  0  0  0  0
    5.8250   13.0789    3.5070 Cl  0  0  0  0  0  0  0  0  0  0  0  0
    2.4190   13.7109    5.7802 Cl  0  0  0  0  0  0  0  0  0  0  0  0
    1.6738   17.3655    3.8437 Cl  0  0  0  0  0  0  0  0  0  0  0  0
    4.9927   16.2703    5.2171 Cl  0  0  0  0  0  0  0  0  0  0  0  0
    1.8854    8.0517    4.3871 Cl  0  0  0  0  0  0  0  0  0  0  0  0
   -1.2562   10.2440    5.6267 Cl  0  0  0  0  0  0  0  0  0  0  0  0
   -2.7988    6.8891    7.7684 Cl  0  0  0  0  0  0  0  0  0  0  0  0
    0.6342    4.6886    6.4437 Cl  0  0  0  0  0  0  0  0  0  0  0  0
    2.0326   10.5893    6.8131 Cl  0  0  0  0  0  0  0  0  0  0  0  0
    3.3594    6.6988    7.3627 Cl  0  0  0  0  0  0  0  0  0  0  0  0
   -0.0473    5.8624    9.7929 Cl  0  0  0  0  0  0  0  0  0  0  0  0
   -1.3631    9.8379    9.2453 Cl  0  0  0  0  0  0  0  0  0  0  0  0
    2.0543    8.8781   10.1652 Cl  0  0  0  0  0  0  0  0  0  0  0  0
   -1.3646    6.9755    4.1537 P   0  0  0  0  0  0  0  0  0  0  0  0
    1.1012   12.8107    0.2647 P   0  0  0  0  0  0  0  0  0  0  0  0
    5.1600   10.6526    8.9432 O   0  0  0  0  0  0  0  0  0  0  0  0
    3.0974   12.4784   10.3182 O   0  0  0  0  0  0  0  0  0  0  0  0
    4.2145   10.1656   11.9917 O   0  0  0  0  0  0  0  0  0  0  0  0
   -1.2851    7.5381    1.2094 C   0  0  0  0  0  0  0  0  0  0  0  0
   -1.5854    8.4252    0.9207 H   0  0  0  0  0  0  0  0  0  0  0  0
   -2.0494    7.0308    1.5544 H   0  0  0  0  0  0  0  0  0  0  0  0
   -0.8939    7.0617    0.4476 H   0  0  0  0  0  0  0  0  0  0  0  0
    0.4852   10.2289   -0.9159 C   0  0  0  0  0  0  0  0  0  0  0  0
    1.1259    9.8906   -1.5759 H   0  0  0  0  0  0  0  0  0  0  0  0
    0.0457   11.0308   -1.2686 H   0  0  0  0  0  0  0  0  0  0  0  0
   -0.1885    9.5413   -0.7323 H   0  0  0  0  0  0  0  0  0  0  0  0
   -0.6046    7.3477    5.8044 C   0  0  0  0  0  0  0  0  0  0  0  0
   -1.6167    5.1805    4.0678 C   0  0  0  0  0  0  0  0  0  0  0  0
   -2.2236    4.4431    5.0823 C   0  0  0  0  0  0  0  0  0  0  0  0
   -2.4612    4.8662    5.8990 H   0  0  0  0  0  0  0  0  0  0  0  0
   -2.4807    3.0951    4.9020 C   0  0  0  0  0  0  0  0  0  0  0  0
   -2.9014    2.5985    5.5941 H   0  0  0  0  0  0  0  0  0  0  0  0
   -2.1294    2.4661    3.7209 C   0  0  0  0  0  0  0  0  0  0  0  0
   -2.3148    1.5419    3.6016 H   0  0  0  0  0  0  0  0  0  0  0  0
   -1.5092    3.1816    2.7146 C   0  0  0  0  0  0  0  0  0  0  0  0
   -1.2639    2.7474    1.9060 H   0  0  0  0  0  0  0  0  0  0  0  0
   -1.2430    4.5367    2.8831 C   0  0  0  0  0  0  0  0  0  0  0  0
   -0.8077    5.0248    2.1940 H   0  0  0  0  0  0  0  0  0  0  0  0
   -3.0425    7.6875    4.1166 C   0  0  0  0  0  0  0  0  0  0  0  0
   -4.1636    6.9969    4.5884 C   0  0  0  0  0  0  0  0  0  0  0  0
   -4.0593    6.1331    4.9697 H   0  0  0  0  0  0  0  0  0  0  0  0
   -5.4281    7.5651    4.5035 C   0  0  0  0  0  0  0  0  0  0  0  0
   -6.1828    7.0928    4.8348 H   0  0  0  0  0  0  0  0  0  0  0  0
   -5.5913    8.8165    3.9379 C   0  0  0  0  0  0  0  0  0  0  0  0
   -6.4556    9.2082    3.8924 H   0  0  0  0  0  0  0  0  0  0  0  0
   -4.4928    9.4994    3.4369 C   0  0  0  0  0  0  0  0  0  0  0  0
   -4.6069   10.3544    3.0389 H   0  0  0  0  0  0  0  0  0  0  0  0
   -3.2261    8.9348    3.5168 C   0  0  0  0  0  0  0  0  0  0  0  0
   -2.4790    9.4010    3.1603 H   0  0  0  0  0  0  0  0  0  0  0  0
    2.0883   13.8319    1.4588 C   0  0  0  0  0  0  0  0  0  0  0  0
   -0.6126   13.3645    0.4772 C   0  0  0  0  0  0  0  0  0  0  0  0
   -1.5544   12.4200    0.8907 C   0  0  0  0  0  0  0  0  0  0  0  0
   -1.3025   11.5101    0.9963 H   0  0  0  0  0  0  0  0  0  0  0  0
   -2.8630   12.8164    1.1474 C   0  0  0  0  0  0  0  0  0  0  0  0
   -3.5033   12.1754    1.4329 H   0  0  0  0  0  0  0  0  0  0  0  0
   -3.2364   14.1363    0.9896 C   0  0  0  0  0  0  0  0  0  0  0  0
   -4.1277   14.4030    1.1818 H   0  0  0  0  0  0  0  0  0  0  0  0
   -2.3150   15.0715    0.5520 C   0  0  0  0  0  0  0  0  0  0  0  0
   -2.5800   15.9744    0.4214 H   0  0  0  0  0  0  0  0  0  0  0  0
   -1.0075   14.6914    0.3043 C   0  0  0  0  0  0  0  0  0  0  0  0
   -0.3747   15.3381    0.0149 H   0  0  0  0  0  0  0  0  0  0  0  0
    1.5838   13.2089   -1.4465 C   0  0  0  0  0  0  0  0  0  0  0  0
    2.6526   12.4925   -1.9899 C   0  0  0  0  0  0  0  0  0  0  0  0
    3.1372   11.8823   -1.4465 H   0  0  0  0  0  0  0  0  0  0  0  0
    3.0090   12.6668   -3.3148 C   0  0  0  0  0  0  0  0  0  0  0  0
    3.7614   12.2052   -3.6658 H   0  0  0  0  0  0  0  0  0  0  0  0
    2.2781   13.5073   -4.1306 C   0  0  0  0  0  0  0  0  0  0  0  0
    2.5212   13.6164   -5.0425 H   0  0  0  0  0  0  0  0  0  0  0  0
    1.1902   14.1902   -3.6157 C   0  0  0  0  0  0  0  0  0  0  0  0
    0.6772   14.7566   -4.1801 H   0  0  0  0  0  0  0  0  0  0  0  0
    0.8453   14.0517   -2.2794 C   0  0  0  0  0  0  0  0  0  0  0  0
    0.1040   14.5319   -1.9295 H   0  0  0  0  0  0  0  0  0  0  0  0
    5.9702    9.4937    8.6004 C   0  0  0  0  0  0  0  0  0  0  0  0
    5.3959    8.7006    8.4519 H   0  0  0  0  0  0  0  0  0  0  0  0
    6.6105    9.2903    9.3272 H   0  0  0  0  0  0  0  0  0  0  0  0
    6.7060    9.8616    7.3303 C   0  0  0  0  0  0  0  0  0  0  0  0
    6.7772    9.0843    6.7214 H   0  0  0  0  0  0  0  0  0  0  0  0
    7.6150   10.1997    7.5304 H   0  0  0  0  0  0  0  0  0  0  0  0
    5.8393   10.9494    6.7281 C   0  0  0  0  0  0  0  0  0  0  0  0
    6.3666   11.5456    6.1392 H   0  0  0  0  0  0  0  0  0  0  0  0
    5.0855   10.5662    6.2137 H   0  0  0  0  0  0  0  0  0  0  0  0
    5.3543   11.6771    7.9517 C   0  0  0  0  0  0  0  0  0  0  0  0
    6.0266   12.3368    8.2567 H   0  0  0  0  0  0  0  0  0  0  0  0
    4.5049   12.1496    7.7647 H   0  0  0  0  0  0  0  0  0  0  0  0
    1.8483   12.9329    9.7501 C   0  0  0  0  0  0  0  0  0  0  0  0
    1.0940   12.7100   10.3510 H   0  0  0  0  0  0  0  0  0  0  0  0
    1.6915   12.5033    8.8722 H   0  0  0  0  0  0  0  0  0  0  0  0
    1.9714   14.4310    9.5903 C   0  0  0  0  0  0  0  0  0  0  0  0
    1.5218   14.9062   10.3335 H   0  0  0  0  0  0  0  0  0  0  0  0
    1.5797   14.7305    8.7318 H   0  0  0  0  0  0  0  0  0  0  0  0
    3.4692   14.6675    9.6185 C   0  0  0  0  0  0  0  0  0  0  0  0
    3.8754   14.5244    8.7271 H   0  0  0  0  0  0  0  0  0  0  0  0
    3.6859   15.5807    9.9338 H   0  0  0  0  0  0  0  0  0  0  0  0
    3.9212   13.6226   10.6043 C   0  0  0  0  0  0  0  0  0  0  0  0
    4.8792   13.4081   10.4762 H   0  0  0  0  0  0  0  0  0  0  0  0
    3.7835   13.9324   11.5344 H   0  0  0  0  0  0  0  0  0  0  0  0
    4.8012    8.9094   12.4113 C   0  0  0  0  0  0  0  0  0  0  0  0
    5.7779    8.9129   12.2491 H   0  0  0  0  0  0  0  0  0  0  0  0
    4.4001    8.1561   11.9097 H   0  0  0  0  0  0  0  0  0  0  0  0
    4.5159    8.7747   13.8731 C   0  0  0  0  0  0  0  0  0  0  0  0
    4.2472    7.8482   14.0988 H   0  0  0  0  0  0  0  0  0  0  0  0
    5.3065    9.0219   14.4145 H   0  0  0  0  0  0  0  0  0  0  0  0
    3.3941    9.7253   14.0982 C   0  0  0  0  0  0  0  0  0  0  0  0
    3.3859   10.0532   15.0323 H   0  0  0  0  0  0  0  0  0  0  0  0
    2.5219    9.3044   13.8944 H   0  0  0  0  0  0  0  0  0  0  0  0
    3.6998   10.8389   13.1338 C   0  0  0  0  0  0  0  0  0  0  0  0
    2.8804   11.3465   12.9071 H   0  0  0  0  0  0  0  0  0  0  0  0
    4.3705   11.4615   13.5112 H   0  0  0  0  0  0  0  0  0  0  0  0
    0.3214    6.3932    6.7534 B   0  0  0  0  0  0  0  0  0  0  0  0
   -1.1644    7.3812    7.3288 B   0  0  0  0  0  0  0  0  0  0  0  0
   -0.5123    8.8574    6.4189 B   0  0  0  0  0  0  0  0  0  0  0  0
    0.9307    7.8816    5.8916 B   0  0  0  0  0  0  0  0  0  0  0  0
    1.1338    9.1099    7.1910 B   0  0  0  0  0  0  0  0  0  0  0  0
    1.7235    7.3790    7.4247 B   0  0  0  0  0  0  0  0  0  0  0  0
    0.2201    7.0166    8.4687 B   0  0  0  0  0  0  0  0  0  0  0  0
   -0.3731    8.7692    8.2266 B   0  0  0  0  0  0  0  0  0  0  0  0
    1.2022    8.3669    8.6901 B   0  0  0  0  0  0  0  0  0  0  0  0
    2.8235   13.1329    2.7404 B   0  0  0  0  0  0  0  0  0  0  0  0
    1.5415   14.4357    2.8780 B   0  0  0  0  0  0  0  0  0  0  0  0
    2.4316   15.4109    1.5481 B   0  0  0  0  0  0  0  0  0  0  0  0
    3.7032   14.0661    1.4413 B   0  0  0  0  0  0  0  0  0  0  0  0
    4.0795   15.6402    2.2893 B   0  0  0  0  0  0  0  0  0  0  0  0
    2.5425   15.9059    3.3080 B   0  0  0  0  0  0  0  0  0  0  0  0
    2.8435   14.2836    4.1519 B   0  0  0  0  0  0  0  0  0  0  0  0
    4.3529   14.0185    3.1481 B   0  0  0  0  0  0  0  0  0  0  0  0
    4.0359   15.4669    3.9680 B   0  0  0  0  0  0  0  0  0  0  0  0
    3.8309   10.7395   10.2529 Li  0  0  0  0  0  0  0  0  0  0  0  0
  1  3  1  0  0  0  0
  2  3  1  0  0  0  0
  4  2  1  0  0  0  0
  5127  1  0  0  0  0
  6128  1  0  0  0  0
  7129  1  0  0  0  0
  8130  1  0  0  0  0
  9133  1  0  0  0  0
 10132  1  0  0  0  0
 11131  1  0  0  0  0
 12134  1  0  0  0  0
 13  1  1  0  0  0  0
 14119  1  0  0  0  0
 15118  1  0  0  0  0
 16117  1  0  0  0  0
 17121  1  0  0  0  0
 18122  1  0  0  0  0
 19123  1  0  0  0  0
 20124  1  0  0  0  0
 21125  1  0  0  0  0
 22  1  1  0  0  0  0
 23  2  1  0  0  0  0
 24 81  1  0  0  0  0
 25 93  1  0  0  0  0
 26105  1  0  0  0  0
 27  1  1  0  0  0  0
 28 27  1  0  0  0  0
 29 27  1  0  0  0  0
 30 27  1  0  0  0  0
 31  2  1  0  0  0  0
 32 31  1  0  0  0  0
 33 31  1  0  0  0  0
 34 31  1  0  0  0  0
 35 22  1  0  0  0  0
 36 22  1  0  0  0  0
 37 36  4  0  0  0  0
 38 37  1  0  0  0  0
 39 37  4  0  0  0  0
 40 39  1  0  0  0  0
 41 39  4  0  0  0  0
 42 41  1  0  0  0  0
 43 41  4  0  0  0  0
 44 43  1  0  0  0  0
 45 36  4  0  0  0  0
 46 45  1  0  0  0  0
 47 22  1  0  0  0  0
 48 47  4  0  0  0  0
 49 48  1  0  0  0  0
 50 48  4  0  0  0  0
 51 50  1  0  0  0  0
 52 50  4  0  0  0  0
 53 52  1  0  0  0  0
 54 52  4  0  0  0  0
 55 54  1  0  0  0  0
 56 47  4  0  0  0  0
 57 56  1  0  0  0  0
 58 23  1  0  0  0  0
 59 23  1  0  0  0  0
 60 59  4  0  0  0  0
 61 60  1  0  0  0  0
 62 60  4  0  0  0  0
 63 62  1  0  0  0  0
 64 62  4  0  0  0  0
 65 64  1  0  0  0  0
 66 64  4  0  0  0  0
 67 66  1  0  0  0  0
 68 59  4  0  0  0  0
 69 68  1  0  0  0  0
 70 23  1  0  0  0  0
 71 70  4  0  0  0  0
 72 71  1  0  0  0  0
 73 71  4  0  0  0  0
 74 73  1  0  0  0  0
 75 73  4  0  0  0  0
 76 75  1  0  0  0  0
 77 75  4  0  0  0  0
 78 77  1  0  0  0  0
 79 70  4  0  0  0  0
 80 79  1  0  0  0  0
 81 82  1  0  0  0  0
 83 81  1  0  0  0  0
 84 81  1  0  0  0  0
 85 84  1  0  0  0  0
 86 84  1  0  0  0  0
 87 84  1  0  0  0  0
 88 87  1  0  0  0  0
 89 87  1  0  0  0  0
 90 24  1  0  0  0  0
 91 90  1  0  0  0  0
 92 90  1  0  0  0  0
 93 94  1  0  0  0  0
 95 93  1  0  0  0  0
 96 93  1  0  0  0  0
 97 96  1  0  0  0  0
 98 96  1  0  0  0  0
 99 96  1  0  0  0  0
100 99  1  0  0  0  0
101 99  1  0  0  0  0
102 25  1  0  0  0  0
103102  1  0  0  0  0
104102  1  0  0  0  0
105106  1  0  0  0  0
107105  1  0  0  0  0
108105  1  0  0  0  0
109108  1  0  0  0  0
110108  1  0  0  0  0
111108  1  0  0  0  0
112111  1  0  0  0  0
113111  1  0  0  0  0
114 26  1  0  0  0  0
115114  1  0  0  0  0
116114  1  0  0  0  0
117 35  1  0  0  0  0
118 35  1  0  0  0  0
119 35  1  0  0  0  0
120 13  1  0  0  0  0
121119  1  0  0  0  0
122117  1  0  0  0  0
123117  1  0  0  0  0
124118  1  0  0  0  0
125121  1  0  0  0  0
126  4  1  0  0  0  0
127 58  1  0  0  0  0
128 58  1  0  0  0  0
129 58  1  0  0  0  0
130128  1  0  0  0  0
131127  1  0  0  0  0
132126  1  0  0  0  0
133126  1  0  0  0  0
134130  1  0  0  0  0
135 21  1  0  0  0  0
 24135  1  0  0  0  0
 25135  1  0  0  0  0
 26135  1  0  0  0  0
 35120  1  0  0  0  0
 43 45  4  0  0  0  0
 54 56  4  0  0  0  0
 58126  1  0  0  0  0
 66 68  4  0  0  0  0
 77 79  4  0  0  0  0
 87 90  1  0  0  0  0
 99102  1  0  0  0  0
111114  1  0  0  0  0
117118  1  0  0  0  0
117120  1  0  0  0  0
118119  1  0  0  0  0
118123  1  0  0  0  0
119120  1  0  0  0  0
119124  1  0  0  0  0
120121  1  0  0  0  0
120122  1  0  0  0  0
121122  1  0  0  0  0
121124  1  0  0  0  0
122123  1  0  0  0  0
122125  1  0  0  0  0
123124  1  0  0  0  0
123125  1  0  0  0  0
124125  1  0  0  0  0
126127  1  0  0  0  0
126129  1  0  0  0  0
127128  1  0  0  0  0
127132  1  0  0  0  0
128129  1  0  0  0  0
128131  1  0  0  0  0
129130  1  0  0  0  0
129133  1  0  0  0  0
130131  1  0  0  0  0
130133  1  0  0  0  0
131132  1  0  0  0  0
131134  1  0  0  0  0
132133  1  0  0  0  0
132134  1  0  0  0  0
133134  1  0  0  0  0
M  END
$$$$
PIVHEH

From CSD data. Using bond type 'Any'. No disordered atoms. Largest molecule.
106117  0  0  0  0  0  0  0  0999 V2000
   -2.0111    4.3329   16.0884 Cr  0  0  0  0  0  0  0  0  0  0  0  0
   -4.2600    3.8299   17.0756 P   0  0  0  0  0  0  0  0  0  0  0  0
   -2.1659    5.9186   18.0349 P   0  0  0  0  0  0  0  0  0  0  0  0
   -1.5220    2.8770   18.0928 P   0  0  0  0  0  0  0  0  0  0  0  0
   -3.8460    5.6022   17.3409 B   0  0  0  0  0  0  0  0  0  0  0  0
   -0.9050    4.6219   18.3261 B   0  0  0  0  0  0  0  0  0  0  0  0
   -3.0974    2.3850   17.2751 B   0  0  0  0  0  0  0  0  0  0  0  0
    0.6309    3.5373   14.9756 O   0  0  0  0  0  0  0  0  0  0  0  0
   -1.5606    6.7435   14.3753 O   0  0  0  0  0  0  0  0  0  0  0  0
   -3.0157    3.0672   13.5696 O   0  0  0  0  0  0  0  0  0  0  0  0
   -0.3776    3.8372   15.4762 C   0  0  0  0  0  0  0  0  0  0  0  0
   -1.7880    5.8254   15.0753 C   0  0  0  0  0  0  0  0  0  0  0  0
   -2.6588    3.5336   14.5648 C   0  0  0  0  0  0  0  0  0  0  0  0
   -5.8035    3.4696   16.2260 C   0  0  0  0  0  0  0  0  0  0  0  0
   -6.9902    4.0073   16.7147 C   0  0  0  0  0  0  0  0  0  0  0  0
   -8.1890    3.6415   16.1642 C   0  0  0  0  0  0  0  0  0  0  0  0
   -8.2395    2.7691   15.1212 C   0  0  0  0  0  0  0  0  0  0  0  0
   -7.0832    2.2241   14.6306 C   0  0  0  0  0  0  0  0  0  0  0  0
   -5.8805    2.5588   15.1910 C   0  0  0  0  0  0  0  0  0  0  0  0
   -4.9731    6.7106   17.2172 C   0  0  0  0  0  0  0  0  0  0  0  0
   -5.6180    7.0874   16.0346 C   0  0  0  0  0  0  0  0  0  0  0  0
   -6.7202    7.9104   16.0705 C   0  0  0  0  0  0  0  0  0  0  0  0
   -7.2245    8.4299   17.2412 C   0  0  0  0  0  0  0  0  0  0  0  0
   -6.5479    8.1061   18.4039 C   0  0  0  0  0  0  0  0  0  0  0  0
   -5.4551    7.2648   18.4358 C   0  0  0  0  0  0  0  0  0  0  0  0
   -5.1415    6.5917   14.6744 C   0  0  0  0  0  0  0  0  0  0  0  0
   -8.4361    9.3133   17.2551 C   0  0  0  0  0  0  0  0  0  0  0  0
   -4.8265    6.9740   19.7800 C   0  0  0  0  0  0  0  0  0  0  0  0
   -1.6151    7.6324   17.9891 C   0  0  0  0  0  0  0  0  0  0  0  0
   -2.0988    8.5469   17.0637 C   0  0  0  0  0  0  0  0  0  0  0  0
   -1.6048    9.8290   17.0078 C   0  0  0  0  0  0  0  0  0  0  0  0
   -0.5989   10.2241   17.8674 C   0  0  0  0  0  0  0  0  0  0  0  0
   -0.1418    9.3462   18.7908 C   0  0  0  0  0  0  0  0  0  0  0  0
   -0.6204    8.0622   18.8865 C   0  0  0  0  0  0  0  0  0  0  0  0
    0.5198    4.8450   18.9802 C   0  0  0  0  0  0  0  0  0  0  0  0
    1.6112    5.4614   18.3600 C   0  0  0  0  0  0  0  0  0  0  0  0
    2.8454    5.4651   18.9703 C   0  0  0  0  0  0  0  0  0  0  0  0
    3.0704    4.8597   20.1808 C   0  0  0  0  0  0  0  0  0  0  0  0
    1.9730    4.3420   20.8430 C   0  0  0  0  0  0  0  0  0  0  0  0
    0.7132    4.3439   20.2905 C   0  0  0  0  0  0  0  0  0  0  0  0
    1.4979    6.1729   17.0278 C   0  0  0  0  0  0  0  0  0  0  0  0
    4.4549    4.7371   20.7851 C   0  0  0  0  0  0  0  0  0  0  0  0
   -0.4393    3.8299   21.1282 C   0  0  0  0  0  0  0  0  0  0  0  0
   -0.2822    1.5748   18.1865 C   0  0  0  0  0  0  0  0  0  0  0  0
    1.0265    1.7504   17.7557 C   0  0  0  0  0  0  0  0  0  0  0  0
    1.9040    0.6895   17.7876 C   0  0  0  0  0  0  0  0  0  0  0  0
    1.5098   -0.5249   18.2443 C   0  0  0  0  0  0  0  0  0  0  0  0
    0.2331   -0.7170   18.7070 C   0  0  0  0  0  0  0  0  0  0  0  0
   -0.6631    0.3292   18.6871 C   0  0  0  0  0  0  0  0  0  0  0  0
   -3.5286    0.8834   17.0736 C   0  0  0  0  0  0  0  0  0  0  0  0
   -2.8171   -0.0311   16.2699 C   0  0  0  0  0  0  0  0  0  0  0  0
   -3.1406   -1.3846   16.2799 C   0  0  0  0  0  0  0  0  0  0  0  0
   -4.1881   -1.8894   17.0198 C   0  0  0  0  0  0  0  0  0  0  0  0
   -4.9076   -0.9968   17.7617 C   0  0  0  0  0  0  0  0  0  0  0  0
   -4.6101    0.3695   17.8275 C   0  0  0  0  0  0  0  0  0  0  0  0
   -1.6670    0.3640   15.3944 C   0  0  0  0  0  0  0  0  0  0  0  0
   -4.4985   -3.3818   17.0318 C   0  0  0  0  0  0  0  0  0  0  0  0
   -5.4498    1.2071   18.7389 C   0  0  0  0  0  0  0  0  0  0  0  0
   -6.9619    4.6329   17.4426 H   0  0  0  0  0  0  0  0  0  0  0  0
   -9.0046    4.0092   16.5112 H   0  0  0  0  0  0  0  0  0  0  0  0
   -9.0875    2.5350   14.7363 H   0  0  0  0  0  0  0  0  0  0  0  0
   -7.1141    1.6095   13.8927 H   0  0  0  0  0  0  0  0  0  0  0  0
   -5.0688    2.1546   14.8719 H   0  0  0  0  0  0  0  0  0  0  0  0
   -7.1584    8.1336   15.2468 H   0  0  0  0  0  0  0  0  0  0  0  0
   -6.8559    8.4884   19.2295 H   0  0  0  0  0  0  0  0  0  0  0  0
   -5.7044    6.9520   13.9864 H   0  0  0  0  0  0  0  0  0  0  0  0
   -4.2377    6.8807   14.5328 H   0  0  0  0  0  0  0  0  0  0  0  0
   -5.1786    5.6333   14.6485 H   0  0  0  0  0  0  0  0  0  0  0  0
   -8.7684    9.4212   16.3617 H   0  0  0  0  0  0  0  0  0  0  0  0
   -9.1172    8.9145   17.8036 H   0  0  0  0  0  0  0  0  0  0  0  0
   -8.1975   10.1692   17.6141 H   0  0  0  0  0  0  0  0  0  0  0  0
   -5.2937    7.4440   20.4740 H   0  0  0  0  0  0  0  0  0  0  0  0
   -4.8724    6.0284   19.9475 H   0  0  0  0  0  0  0  0  0  0  0  0
   -3.9090    7.2520   19.7660 H   0  0  0  0  0  0  0  0  0  0  0  0
   -2.7879    8.2707   16.4534 H   0  0  0  0  0  0  0  0  0  0  0  0
   -1.9597   10.4509   16.3676 H   0  0  0  0  0  0  0  0  0  0  0  0
   -0.2354   11.1112   17.8116 H   0  0  0  0  0  0  0  0  0  0  0  0
    0.5407    9.6315   19.4030 H   0  0  0  0  0  0  0  0  0  0  0  0
   -0.2828    7.4550   19.5486 H   0  0  0  0  0  0  0  0  0  0  0  0
    3.5810    5.8967   18.5275 H   0  0  0  0  0  0  0  0  0  0  0  0
    2.0966    3.9653   21.7185 H   0  0  0  0  0  0  0  0  0  0  0  0
    2.3511    6.5332   16.7745 H   0  0  0  0  0  0  0  0  0  0  0  0
    1.2039    5.5455   16.3637 H   0  0  0  0  0  0  0  0  0  0  0  0
    0.8582    6.8862   17.1016 H   0  0  0  0  0  0  0  0  0  0  0  0
    4.3938    4.2853   21.6287 H   0  0  0  0  0  0  0  0  0  0  0  0
    5.0275    4.2415   20.1948 H   0  0  0  0  0  0  0  0  0  0  0  0
    4.8192    5.6169   20.9188 H   0  0  0  0  0  0  0  0  0  0  0  0
   -0.1151    3.5336   21.9817 H   0  0  0  0  0  0  0  0  0  0  0  0
   -1.0778    4.5359   21.2558 H   0  0  0  0  0  0  0  0  0  0  0  0
   -0.8602    3.0965   20.6735 H   0  0  0  0  0  0  0  0  0  0  0  0
    1.3087    2.6100   17.4386 H   0  0  0  0  0  0  0  0  0  0  0  0
    2.8110    0.8121   17.4984 H   0  0  0  0  0  0  0  0  0  0  0  0
    2.1266   -1.2602   18.2324 H   0  0  0  0  0  0  0  0  0  0  0  0
   -0.0333   -1.5784   19.0361 H   0  0  0  0  0  0  0  0  0  0  0  0
   -1.5553    0.2103   19.0241 H   0  0  0  0  0  0  0  0  0  0  0  0
   -2.6186   -1.9900   15.7494 H   0  0  0  0  0  0  0  0  0  0  0  0
   -5.6620   -1.3279   18.2543 H   0  0  0  0  0  0  0  0  0  0  0  0
   -1.3271   -0.4024   14.9277 H   0  0  0  0  0  0  0  0  0  0  0  0
   -1.9612    1.0206   14.7582 H   0  0  0  0  0  0  0  0  0  0  0  0
   -0.9723    0.7389   15.9428 H   0  0  0  0  0  0  0  0  0  0  0  0
   -5.2556   -3.5428   17.6002 H   0  0  0  0  0  0  0  0  0  0  0  0
   -4.6952   -3.6854   16.1423 H   0  0  0  0  0  0  0  0  0  0  0  0
   -3.7372   -3.8592   17.3708 H   0  0  0  0  0  0  0  0  0  0  0  0
   -6.1285    0.6712   19.1538 H   0  0  0  0  0  0  0  0  0  0  0  0
   -4.8907    1.5967   19.4170 H   0  0  0  0  0  0  0  0  0  0  0  0
   -5.8623    1.9058   18.2264 H   0  0  0  0  0  0  0  0  0  0  0  0
  1  2  8  0  0  0  0
  2  5  4  0  0  0  0
  3  1  8  0  0  0  0
  4  1  8  0  0  0  0
  5  1  8  0  0  0  0
  6  1  8  0  0  0  0
  7  1  8  0  0  0  0
  8 11  3  0  0  0  0
  9 12  3  0  0  0  0
 10 13  3  0  0  0  0
 11  1  1  0  0  0  0
 12  1  1  0  0  0  0
 13  1  1  0  0  0  0
 14  2  1  0  0  0  0
 15 14  4  0  0  0  0
 16 15  4  0  0  0  0
 17 16  4  0  0  0  0
 18 17  4  0  0  0  0
 19 14  4  0  0  0  0
 20  5  1  0  0  0  0
 21 20  4  0  0  0  0
 22 21  4  0  0  0  0
 23 22  4  0  0  0  0
 24 23  4  0  0  0  0
 25 20  4  0  0  0  0
 26 21  1  0  0  0  0
 27 23  1  0  0  0  0
 28 25  1  0  0  0  0
 29  3  1  0  0  0  0
 30 29  4  0  0  0  0
 31 30  4  0  0  0  0
 32 31  4  0  0  0  0
 33 32  4  0  0  0  0
 34 29  4  0  0  0  0
 35  6  1  0  0  0  0
 36 35  4  0  0  0  0
 37 36  4  0  0  0  0
 38 37  4  0  0  0  0
 39 38  4  0  0  0  0
 40 35  4  0  0  0  0
 41 36  1  0  0  0  0
 42 38  1  0  0  0  0
 43 40  1  0  0  0  0
 44  4  1  0  0  0  0
 45 44  4  0  0  0  0
 46 45  4  0  0  0  0
 47 46  4  0  0  0  0
 48 47  4  0  0  0  0
 49 44  4  0  0  0  0
 50  7  1  0  0  0  0
 51 50  4  0  0  0  0
 52 51  4  0  0  0  0
 53 52  4  0  0  0  0
 54 53  4  0  0  0  0
 55 50  4  0  0  0  0
 56 51  1  0  0  0  0
 57 53  1  0  0  0  0
 58 55  1  0  0  0  0
 59 15  1  0  0  0  0
 60 16  1  0  0  0  0
 61 17  1  0  0  0  0
 62 18  1  0  0  0  0
 63 19  1  0  0  0  0
 64 22  1  0  0  0  0
 65 24  1  0  0  0  0
 66 26  1  0  0  0  0
 67 26  1  0  0  0  0
 68 26  1  0  0  0  0
 69 27  1  0  0  0  0
 70 27  1  0  0  0  0
 71 27  1  0  0  0  0
 72 28  1  0  0  0  0
 73 28  1  0  0  0  0
 74 28  1  0  0  0  0
 75 30  1  0  0  0  0
 76 31  1  0  0  0  0
 77 32  1  0  0  0  0
 78 33  1  0  0  0  0
 79 34  1  0  0  0  0
 80 37  1  0  0  0  0
 81 39  1  0  0  0  0
 82 41  1  0  0  0  0
 83 41  1  0  0  0  0
 84 41  1  0  0  0  0
 85 42  1  0  0  0  0
 86 42  1  0  0  0  0
 87 42  1  0  0  0  0
 88 43  1  0  0  0  0
 89 43  1  0  0  0  0
 90 43  1  0  0  0  0
 91 45  1  0  0  0  0
 92 46  1  0  0  0  0
 93 47  1  0  0  0  0
 94 48  1  0  0  0  0
 95 49  1  0  0  0  0
 96 52  1  0  0  0  0
 97 54  1  0  0  0  0
 98 56  1  0  0  0  0
 99 56  1  0  0  0  0
100 56  1  0  0  0  0
101 57  1  0  0  0  0
102 57  1  0  0  0  0
103 57  1  0  0  0  0
104 58  1  0  0  0  0
105 58  1  0  0  0  0
106 58  1  0  0  0  0
  2  7  4  0  0  0  0
  3  5  4  0  0  0  0
  3  6  4  0  0  0  0
  4  6  4  0  0  0  0
  4  7  4  0  0  0  0
 18 19  4  0  0  0  0
 24 25  4  0  0  0  0
 33 34  4  0  0  0  0
 39 40  4  0  0  0  0
 48 49  4  0  0  0  0
 54 55  4  0  0  0  0
M  END
$$$$
POLYEU

From CSD data. Using bond type 'Any'. No disordered atoms. Largest molecule.
 75 79  0  0  0  0  0  0  0  0999 V2000
   14.1663    0.8260   11.4736 Cr  0  0  0  0  0  0  0  0  0  0  0  0
   14.0204    2.7417    9.9795 P   0  0  0  0  0  0  0  0  0  0  0  0
   14.8061    2.4173   13.1779 P   0  0  0  0  0  0  0  0  0  0  0  0
   14.8121    4.2703   10.9084 B   0  0  0  0  0  0  0  0  0  0  0  0
   15.9096    3.6887   12.0704 B   0  0  0  0  0  0  0  0  0  0  0  0
   14.5102    5.6033   10.6793 N   0  0  0  0  0  0  0  0  0  0  0  0
   17.2011    3.8130   12.0894 N   0  0  0  0  0  0  0  0  0  0  0  0
   13.7525   -0.2887   10.1287 C   0  0  0  0  0  0  0  0  0  0  0  0
   13.5466   -1.0843    9.2251 O   0  0  0  0  0  0  0  0  0  0  0  0
   12.3251    1.0011   11.8309 C   0  0  0  0  0  0  0  0  0  0  0  0
   11.1935    0.9297   11.9759 O   0  0  0  0  0  0  0  0  0  0  0  0
   15.9856    0.5330   11.1332 C   0  0  0  0  0  0  0  0  0  0  0  0
   17.0952    0.3157   10.9882 O   0  0  0  0  0  0  0  0  0  0  0  0
   14.0964   -0.5600   12.6252 C   0  0  0  0  0  0  0  0  0  0  0  0
   14.0044   -1.4671   13.3628 O   0  0  0  0  0  0  0  0  0  0  0  0
   15.7197    1.9027   14.6320 C   0  0  0  0  0  0  0  0  0  0  0  0
   16.4334    0.6876   14.6131 C   0  0  0  0  0  0  0  0  0  0  0  0
   17.2651    0.3330   15.7521 C   0  0  0  0  0  0  0  0  0  0  0  0
   17.4250    1.2130   16.7313 C   0  0  0  0  0  0  0  0  0  0  0  0
   16.8013    2.3892   16.8091 C   0  0  0  0  0  0  0  0  0  0  0  0
   15.8517    2.6584   15.7458 C   0  0  0  0  0  0  0  0  0  0  0  0
   13.4166    3.3363   13.9428 C   0  0  0  0  0  0  0  0  0  0  0  0
   12.5170    2.6595   14.5396 C   0  0  0  0  0  0  0  0  0  0  0  0
   11.2615    3.4325   15.0712 C   0  0  0  0  0  0  0  0  0  0  0  0
   11.1615    4.7558   14.9010 C   0  0  0  0  0  0  0  0  0  0  0  0
   12.0292    5.2985   14.4093 C   0  0  0  0  0  0  0  0  0  0  0  0
   13.1927    4.6195   13.8419 C   0  0  0  0  0  0  0  0  0  0  0  0
   15.3299    6.7158   11.4589 C   0  0  0  0  0  0  0  0  0  0  0  0
   13.5146    6.2779    9.6727 C   0  0  0  0  0  0  0  0  0  0  0  0
   17.8688    4.5914   11.0071 C   0  0  0  0  0  0  0  0  0  0  0  0
   18.1008    3.1849   13.0602 C   0  0  0  0  0  0  0  0  0  0  0  0
   12.3770    3.1309    9.4311 C   0  0  0  0  0  0  0  0  0  0  0  0
   11.8313    2.8260    8.1387 C   0  0  0  0  0  0  0  0  0  0  0  0
   10.4698    3.1763    7.7794 C   0  0  0  0  0  0  0  0  0  0  0  0
    9.7661    3.7676    8.6494 C   0  0  0  0  0  0  0  0  0  0  0  0
   10.1140    4.0606    9.8976 C   0  0  0  0  0  0  0  0  0  0  0  0
   11.4174    3.6584   10.2716 C   0  0  0  0  0  0  0  0  0  0  0  0
   14.9640    2.6130    8.4287 C   0  0  0  0  0  0  0  0  0  0  0  0
   15.5298    1.4952    7.9580 C   0  0  0  0  0  0  0  0  0  0  0  0
   16.2155    1.5806    6.6825 C   0  0  0  0  0  0  0  0  0  0  0  0
   16.3535    2.6152    5.9869 C   0  0  0  0  0  0  0  0  0  0  0  0
   15.9056    3.6941    6.4198 C   0  0  0  0  0  0  0  0  0  0  0  0
   15.1959    3.7968    7.6071 C   0  0  0  0  0  0  0  0  0  0  0  0
   16.3655    0.0908   13.8650 H   0  0  0  0  0  0  0  0  0  0  0  0
   17.7269   -0.5092   15.7794 H   0  0  0  0  0  0  0  0  0  0  0  0
   17.9988    0.9741   17.4647 H   0  0  0  0  0  0  0  0  0  0  0  0
   16.9212    2.9860   17.5509 H   0  0  0  0  0  0  0  0  0  0  0  0
   15.3698    3.4876   15.7920 H   0  0  0  0  0  0  0  0  0  0  0  0
   12.5850    1.7038   14.6005 H   0  0  0  0  0  0  0  0  0  0  0  0
   10.5958    2.9363   15.5546 H   0  0  0  0  0  0  0  0  0  0  0  0
   10.3499    5.1882   15.1784 H   0  0  0  0  0  0  0  0  0  0  0  0
   11.9332    6.2531   14.3778 H   0  0  0  0  0  0  0  0  0  0  0  0
   13.8525    5.1568   13.4006 H   0  0  0  0  0  0  0  0  0  0  0  0
   15.9536    6.3158   12.0704 H   0  0  0  0  0  0  0  0  0  0  0  0
   15.8097    7.2077   10.7886 H   0  0  0  0  0  0  0  0  0  0  0  0
   14.7501    7.3104   11.9402 H   0  0  0  0  0  0  0  0  0  0  0  0
   12.9968    5.5828    9.2588 H   0  0  0  0  0  0  0  0  0  0  0  0
   12.9288    6.8715   10.1477 H   0  0  0  0  0  0  0  0  0  0  0  0
   13.9884    6.7688    8.9982 H   0  0  0  0  0  0  0  0  0  0  0  0
   17.1911    4.9298   10.4166 H   0  0  0  0  0  0  0  0  0  0  0  0
   18.3607    5.3233   11.3875 H   0  0  0  0  0  0  0  0  0  0  0  0
   18.4686    4.0249   10.5154 H   0  0  0  0  0  0  0  0  0  0  0  0
   17.6170    2.6952   13.7305 H   0  0  0  0  0  0  0  0  0  0  0  0
   18.7045    2.5946   12.6063 H   0  0  0  0  0  0  0  0  0  0  0  0
   18.5966    3.8930   13.4763 H   0  0  0  0  0  0  0  0  0  0  0  0
   12.4150    2.3557    7.5398 H   0  0  0  0  0  0  0  0  0  0  0  0
   10.1739    2.9719    6.8905 H   0  0  0  0  0  0  0  0  0  0  0  0
    8.8764    4.0001    8.3720 H   0  0  0  0  0  0  0  0  0  0  0  0
    9.5082    4.5017   10.4986 H   0  0  0  0  0  0  0  0  0  0  0  0
   11.6593    3.7871   11.1921 H   0  0  0  0  0  0  0  0  0  0  0  0
   15.4678    0.6930    8.4813 H   0  0  0  0  0  0  0  0  0  0  0  0
   16.4514    0.7243    6.3168 H   0  0  0  0  0  0  0  0  0  0  0  0
   16.8792    2.5763    5.1842 H   0  0  0  0  0  0  0  0  0  0  0  0
   16.0656    4.4963    5.9196 H   0  0  0  0  0  0  0  0  0  0  0  0
   14.8101    4.6325    7.8781 H   0  0  0  0  0  0  0  0  0  0  0  0
  1  2  1  0  0  0  0
  2  4  1  0  0  0  0
  3  1  1  0  0  0  0
  4  5  1  0  0  0  0
  5  3  1  0  0  0  0
  6  4  1  0  0  0  0
  7  5  1  0  0  0  0
  8  1  1  0  0  0  0
  9  8  3  0  0  0  0
 10  1  1  0  0  0  0
 11 10  3  0  0  0  0
 12  1  1  0  0  0  0
 13 12  3  0  0  0  0
 14  1  1  0  0  0  0
 15 14  3  0  0  0  0
 16  3  1  0  0  0  0
 17 16  4  0  0  0  0
 18 17  4  0  0  0  0
 19 18  4  0  0  0  0
 20 19  4  0  0  0  0
 21 16  4  0  0  0  0
 22  3  1  0  0  0  0
 23 22  4  0  0  0  0
 24 23  4  0  0  0  0
 25 24  4  0  0  0  0
 26 25  4  0  0  0  0
 27 22  4  0  0  0  0
 28  6  1  0  0  0  0
 29  6  1  0  0  0  0
 30  7  1  0  0  0  0
 31  7  1  0  0  0  0
 32  2  1  0  0  0  0
 33 32  4  0  0  0  0
 34 33  4  0  0  0  0
 35 34  4  0  0  0  0
 36 35  4  0  0  0  0
 37 32  4  0  0  0  0
 38  2  1  0  0  0  0
 39 38  4  0  0  0  0
 40 39  4  0  0  0  0
 41 40  4  0  0  0  0
 42 41  4  0  0  0  0
 43 38  4  0  0  0  0
 44 17  1  0  0  0  0
 45 18  1  0  0  0  0
 46 19  1  0  0  0  0
 47 20  1  0  0  0  0
 48 21  1  0  0  0  0
 49 23  1  0  0  0  0
 50 24  1  0  0  0  0
 51 25  1  0  0  0  0
 52 26  1  0  0  0  0
 53 27  1  0  0  0  0
 54 28  1  0  0  0  0
 55 28  1  0  0  0  0
 56 28  1  0  0  0  0
 57 29  1  0  0  0  0
 58 29  1  0  0  0  0
 59 29  1  0  0  0  0
 60 30  1  0  0  0  0
 61 30  1  0  0  0  0
 62 30  1  0  0  0  0
 63 31  1  0  0  0  0
 64 31  1  0  0  0  0
 65 31  1  0  0  0  0
 66 33  1  0  0  0  0
 67 34  1  0  0  0  0
 68 35  1  0  0  0  0
 69 36  1  0  0  0  0
 70 37  1  0  0  0  0
 71 39  1  0  0  0  0
 72 40  1  0  0  0  0
 73 41  1  0  0  0  0
 74 42  1  0  0  0  0
 75 43  1  0  0  0  0
 20 21  4  0  0  0  0
 26 27  4  0  0  0  0
 36 37  4  0  0  0  0
 42 43  4  0  0  0  0
M  END
$$$$
POMGEH

From CSD data. Using bond type 'Any'. No disordered atoms. Largest molecule.
 96122  0  0  0  0  0  0  0  0999 V2000
   -1.8045    9.5707    5.5094 C   0  0  0  0  0  0  0  0  0  0  0  0
   -2.2964    8.7085    6.0276 H   0  0  0  0  0  0  0  0  0  0  0  0
   -0.3555   10.1728    5.9959 C   0  0  0  0  0  0  0  0  0  0  0  0
    0.2044    9.7369    6.8626 H   0  0  0  0  0  0  0  0  0  0  0  0
    3.4017    8.6769    5.2669 C   0  0  0  0  0  0  0  0  0  0  0  0
    2.9977    9.1260    6.4980 C   0  0  0  0  0  0  0  0  0  0  0  0
    2.0747    9.2904    6.6549 H   0  0  0  0  0  0  0  0  0  0  0  0
    3.9208    9.3485    7.5320 C   0  0  0  0  0  0  0  0  0  0  0  0
    3.6222    9.6374    8.3862 H   0  0  0  0  0  0  0  0  0  0  0  0
    5.2754    9.1421    7.2958 C   0  0  0  0  0  0  0  0  0  0  0  0
    5.9125    9.3351    7.9736 H   0  0  0  0  0  0  0  0  0  0  0  0
    5.6941    8.6562    6.0725 C   0  0  0  0  0  0  0  0  0  0  0  0
    6.6179    8.5027    5.9165 H   0  0  0  0  0  0  0  0  0  0  0  0
    4.7731    8.3917    5.0714 C   0  0  0  0  0  0  0  0  0  0  0  0
    5.0643    8.0162    4.2493 H   0  0  0  0  0  0  0  0  0  0  0  0
    2.7438    6.5978    3.5994 C   0  0  0  0  0  0  0  0  0  0  0  0
    2.7764    5.7106    4.6866 C   0  0  0  0  0  0  0  0  0  0  0  0
    2.5497    6.0308    5.5516 H   0  0  0  0  0  0  0  0  0  0  0  0
    3.1327    4.3729    4.5286 C   0  0  0  0  0  0  0  0  0  0  0  0
    3.1430    3.7887    5.2769 H   0  0  0  0  0  0  0  0  0  0  0  0
    3.4666    3.9085    3.2819 C   0  0  0  0  0  0  0  0  0  0  0  0
    3.7021    2.9954    3.1672 H   0  0  0  0  0  0  0  0  0  0  0  0
    3.4647    4.7623    2.1869 C   0  0  0  0  0  0  0  0  0  0  0  0
    3.6964    4.4308    1.3275 H   0  0  0  0  0  0  0  0  0  0  0  0
    3.1276    6.0898    2.3417 C   0  0  0  0  0  0  0  0  0  0  0  0
    3.1538    6.6704    1.5911 H   0  0  0  0  0  0  0  0  0  0  0  0
   -0.1989    5.5273    2.2526 C   0  0  0  0  0  0  0  0  0  0  0  0
   -0.0841    4.5606    3.2412 C   0  0  0  0  0  0  0  0  0  0  0  0
   -0.2479    4.7870    4.1491 H   0  0  0  0  0  0  0  0  0  0  0  0
    0.2733    3.2532    2.9017 C   0  0  0  0  0  0  0  0  0  0  0  0
    0.3557    2.5897    3.5763 H   0  0  0  0  0  0  0  0  0  0  0  0
    0.5081    2.9291    1.5705 C   0  0  0  0  0  0  0  0  0  0  0  0
    0.7387    2.0400    1.3304 H   0  0  0  0  0  0  0  0  0  0  0  0
    0.4047    3.8942    0.6038 C   0  0  0  0  0  0  0  0  0  0  0  0
    0.5812    3.6728   -0.3022 H   0  0  0  0  0  0  0  0  0  0  0  0
    0.0418    5.2043    0.9386 C   0  0  0  0  0  0  0  0  0  0  0  0
   -0.0391    5.8663    0.2620 H   0  0  0  0  0  0  0  0  0  0  0  0
   -2.5864    6.4579    3.1817 C   0  0  0  0  0  0  0  0  0  0  0  0
   -3.3595    5.7641    2.2400 C   0  0  0  0  0  0  0  0  0  0  0  0
   -3.0699    5.7055    1.3376 H   0  0  0  0  0  0  0  0  0  0  0  0
   -4.5454    5.1622    2.6280 C   0  0  0  0  0  0  0  0  0  0  0  0
   -5.0749    4.7063    1.9840 H   0  0  0  0  0  0  0  0  0  0  0  0
   -4.9633    5.2205    3.9357 C   0  0  0  0  0  0  0  0  0  0  0  0
   -5.7919    4.8311    4.1894 H   0  0  0  0  0  0  0  0  0  0  0  0
   -4.1667    5.8540    4.8884 C   0  0  0  0  0  0  0  0  0  0  0  0
   -4.4248    5.8490    5.8018 H   0  0  0  0  0  0  0  0  0  0  0  0
   -2.9966    6.4909    4.5020 C   0  0  0  0  0  0  0  0  0  0  0  0
   -2.4741    6.9515    5.1487 H   0  0  0  0  0  0  0  0  0  0  0  0
   -1.1628    8.0038    1.1513 C   0  0  0  0  0  0  0  0  0  0  0  0
   -2.3550    8.3290    0.4990 C   0  0  0  0  0  0  0  0  0  0  0  0
   -3.1823    7.9919    0.8220 H   0  0  0  0  0  0  0  0  0  0  0  0
   -2.3249    9.1512   -0.6273 C   0  0  0  0  0  0  0  0  0  0  0  0
   -3.1347    9.3263   -1.0913 H   0  0  0  0  0  0  0  0  0  0  0  0
   -1.1481    9.7185   -1.0872 C   0  0  0  0  0  0  0  0  0  0  0  0
   -1.1614   10.3126   -1.8292 H   0  0  0  0  0  0  0  0  0  0  0  0
    0.0517    9.4137   -0.4583 C   0  0  0  0  0  0  0  0  0  0  0  0
   -0.0051    8.5237    0.6195 C   0  0  0  0  0  0  0  0  0  0  0  0
    2.8109    9.2788    2.5294 C   0  0  0  0  0  0  0  0  0  0  0  0
    2.1189    9.2040    1.3390 C   0  0  0  0  0  0  0  0  0  0  0  0
    2.2450   10.0611    0.2472 C   0  0  0  0  0  0  0  0  0  0  0  0
    3.2807   10.9912    0.3238 C   0  0  0  0  0  0  0  0  0  0  0  0
    3.4409   11.5894   -0.3957 H   0  0  0  0  0  0  0  0  0  0  0  0
    4.0710   11.0354    1.4517 C   0  0  0  0  0  0  0  0  0  0  0  0
    4.8055   11.6381    1.4680 H   0  0  0  0  0  0  0  0  0  0  0  0
    3.8438   10.2487    2.5545 C   0  0  0  0  0  0  0  0  0  0  0  0
    4.3787   10.3549    3.3331 H   0  0  0  0  0  0  0  0  0  0  0  0
   -0.0449    6.4155    6.6466 C   0  0  0  0  0  0  0  0  0  0  0  0
   -0.1278    5.3944    7.7103 C   0  0  0  0  0  0  0  0  0  0  0  0
   -0.9945    4.9409    7.6608 H   0  0  0  0  0  0  0  0  0  0  0  0
   -0.0339    5.8264    8.5849 H   0  0  0  0  0  0  0  0  0  0  0  0
    0.5915    4.7395    7.5907 H   0  0  0  0  0  0  0  0  0  0  0  0
    1.3033    9.9436   -0.7681 N   0  0  0  0  0  0  0  0  0  0  0  0
    1.4927   10.1975   -1.5889 H   0  0  0  0  0  0  0  0  0  0  0  0
    0.0186    7.1574    5.8144 N   0  0  0  0  0  0  0  0  0  0  0  0
    1.1933    8.1457    1.2420 O   0  0  0  0  0  0  0  0  0  0  0  0
    2.1857    8.2992    3.9326 P   0  0  0  0  0  0  0  0  0  0  0  0
   -0.9342    7.1671    2.7641 P   0  0  0  0  0  0  0  0  0  0  0  0
   -0.0952    8.6618    4.4061 Ru  0  0  0  0  0  0  0  0  0  0  0  0
   -1.9806    9.7466    3.8106 B   0  0  0  0  0  0  0  0  0  0  0  0
   -2.5631    9.0664    3.1385 H   0  0  0  0  0  0  0  0  0  0  0  0
   -2.8618   10.8180    4.9791 B   0  0  0  0  0  0  0  0  0  0  0  0
   -3.9771   10.8032    5.0763 H   0  0  0  0  0  0  0  0  0  0  0  0
   -1.7919   11.0534    6.3760 B   0  0  0  0  0  0  0  0  0  0  0  0
   -2.2031   11.1916    7.4094 H   0  0  0  0  0  0  0  0  0  0  0  0
    0.5402   10.8122    4.6803 B   0  0  0  0  0  0  0  0  0  0  0  0
    1.6561   10.8584    4.5994 H   0  0  0  0  0  0  0  0  0  0  0  0
   -0.4954   10.5963    3.2381 B   0  0  0  0  0  0  0  0  0  0  0  0
   -0.0948   10.5137    2.1954 H   0  0  0  0  0  0  0  0  0  0  0  0
   -2.0116   11.5052    3.5822 B   0  0  0  0  0  0  0  0  0  0  0  0
   -2.5886   11.9725    2.7437 H   0  0  0  0  0  0  0  0  0  0  0  0
   -1.8934   12.2829    5.1559 B   0  0  0  0  0  0  0  0  0  0  0  0
   -2.3830   13.2701    5.3587 H   0  0  0  0  0  0  0  0  0  0  0  0
   -0.3380   11.8605    5.8614 B   0  0  0  0  0  0  0  0  0  0  0  0
    0.2127   12.5434    6.5570 H   0  0  0  0  0  0  0  0  0  0  0  0
   -0.4576   12.1585    4.1219 B   0  0  0  0  0  0  0  0  0  0  0  0
    0.0067   13.0643    3.6536 H   0  0  0  0  0  0  0  0  0  0  0  0
  1  2  1  0  0  0  0
  3  1  1  0  0  0  0
  4  3  1  0  0  0  0
  5  6  4  0  0  0  0
  6  7  1  0  0  0  0
  8  6  4  0  0  0  0
  9  8  1  0  0  0  0
 10  8  4  0  0  0  0
 11 10  1  0  0  0  0
 12 10  4  0  0  0  0
 13 12  1  0  0  0  0
 14  5  4  0  0  0  0
 15 14  1  0  0  0  0
 16 17  4  0  0  0  0
 17 18  1  0  0  0  0
 19 17  4  0  0  0  0
 20 19  1  0  0  0  0
 21 19  4  0  0  0  0
 22 21  1  0  0  0  0
 23 21  4  0  0  0  0
 24 23  1  0  0  0  0
 25 16  4  0  0  0  0
 26 25  1  0  0  0  0
 27 28  4  0  0  0  0
 28 29  1  0  0  0  0
 30 28  4  0  0  0  0
 31 30  1  0  0  0  0
 32 30  4  0  0  0  0
 33 32  1  0  0  0  0
 34 32  4  0  0  0  0
 35 34  1  0  0  0  0
 36 27  4  0  0  0  0
 37 36  1  0  0  0  0
 38 39  4  0  0  0  0
 39 40  1  0  0  0  0
 41 39  4  0  0  0  0
 42 41  1  0  0  0  0
 43 41  4  0  0  0  0
 44 43  1  0  0  0  0
 45 43  4  0  0  0  0
 46 45  1  0  0  0  0
 47 38  4  0  0  0  0
 48 47  1  0  0  0  0
 49 50  4  0  0  0  0
 50 51  1  0  0  0  0
 52 50  4  0  0  0  0
 53 52  1  0  0  0  0
 54 52  4  0  0  0  0
 55 54  1  0  0  0  0
 56 54  4  0  0  0  0
 57 49  4  0  0  0  0
 58 59  4  0  0  0  0
 59 60  4  0  0  0  0
 60 61  4  0  0  0  0
 61 62  1  0  0  0  0
 63 61  4  0  0  0  0
 64 63  1  0  0  0  0
 65 58  4  0  0  0  0
 66 65  1  0  0  0  0
 67 68  1  0  0  0  0
 68 69  1  0  0  0  0
 70 68  1  0  0  0  0
 71 68  1  0  0  0  0
 72 56  1  0  0  0  0
 73 72  1  0  0  0  0
 74 67  3  0  0  0  0
 75 57  1  0  0  0  0
 76  5  1  0  0  0  0
 77 27  1  0  0  0  0
 78  1  1  0  0  0  0
 79  1  1  0  0  0  0
 80 79  1  0  0  0  0
 81  1  1  0  0  0  0
 82 81  1  0  0  0  0
 83  1  1  0  0  0  0
 84 83  1  0  0  0  0
 85  3  1  0  0  0  0
 86 85  1  0  0  0  0
 87 78  1  0  0  0  0
 88 87  1  0  0  0  0
 89 79  1  0  0  0  0
 90 89  1  0  0  0  0
 91 81  1  0  0  0  0
 92 91  1  0  0  0  0
 93  3  1  0  0  0  0
 94 93  1  0  0  0  0
 95 85  1  0  0  0  0
 96 95  1  0  0  0  0
  3 78  1  0  0  0  0
  3 83  1  0  0  0  0
 12 14  4  0  0  0  0
 16 76  1  0  0  0  0
 23 25  4  0  0  0  0
 34 36  4  0  0  0  0
 38 77  1  0  0  0  0
 45 47  4  0  0  0  0
 49 77  1  0  0  0  0
 56 57  4  0  0  0  0
 58 76  1  0  0  0  0
 59 75  1  0  0  0  0
 60 72  1  0  0  0  0
 63 65  4  0  0  0  0
 74 78  1  0  0  0  0
 76 78  1  0  0  0  0
 77 78  1  0  0  0  0
 78 79  1  0  0  0  0
 78 85  1  0  0  0  0
 79 81  1  0  0  0  0
 79 87  1  0  0  0  0
 81 83  1  0  0  0  0
 81 89  1  0  0  0  0
 83 91  1  0  0  0  0
 83 93  1  0  0  0  0
 85 87  1  0  0  0  0
 85 93  1  0  0  0  0
 87 89  1  0  0  0  0
 87 95  1  0  0  0  0
 89 91  1  0  0  0  0
 89 95  1  0  0  0  0
 91 93  1  0  0  0  0
 91 95  1  0  0  0  0
 93 95  1  0  0  0  0
M  END
$$$$
POMGIL

From CSD data. Using bond type 'Any'. No disordered atoms. Largest molecule.
103129  0  0  0  0  0  0  0  0999 V2000
    8.2117    5.4367    6.6875 C   0  0  0  0  0  0  0  0  0  0  0  0
    7.4085    4.6855    6.6811 H   0  0  0  0  0  0  0  0  0  0  0  0
    5.0441    8.0946    1.5719 C   0  0  0  0  0  0  0  0  0  0  0  0
    5.8494    8.3154    1.1617 H   0  0  0  0  0  0  0  0  0  0  0  0
    8.1948    6.7009    7.7181 C   0  0  0  0  0  0  0  0  0  0  0  0
    7.3776    6.8461    8.4394 H   0  0  0  0  0  0  0  0  0  0  0  0
    4.4377    6.3285    6.8998 C   0  0  0  0  0  0  0  0  0  0  0  0
    3.1225    5.9183    7.3999 C   0  0  0  0  0  0  0  0  0  0  0  0
    2.9164    6.4099    8.1988 H   0  0  0  0  0  0  0  0  0  0  0  0
    3.1350    4.9784    7.5983 H   0  0  0  0  0  0  0  0  0  0  0  0
    2.4561    6.0960    6.7335 H   0  0  0  0  0  0  0  0  0  0  0  0
    6.3248   10.2953    7.3980 C   0  0  0  0  0  0  0  0  0  0  0  0
    6.3012    9.5510    8.5625 C   0  0  0  0  0  0  0  0  0  0  0  0
    6.4789    8.6382    8.5335 H   0  0  0  0  0  0  0  0  0  0  0  0
    6.0103   10.1643    9.7799 C   0  0  0  0  0  0  0  0  0  0  0  0
    5.9984    9.6562   10.5588 H   0  0  0  0  0  0  0  0  0  0  0  0
    5.7454   11.4997    9.8424 C   0  0  0  0  0  0  0  0  0  0  0  0
    5.5550   11.9014   10.6591 H   0  0  0  0  0  0  0  0  0  0  0  0
    5.7605   12.2486    8.6876 C   0  0  0  0  0  0  0  0  0  0  0  0
    5.5933   13.1624    8.7243 H   0  0  0  0  0  0  0  0  0  0  0  0
    6.0242   11.6422    7.4734 C   0  0  0  0  0  0  0  0  0  0  0  0
    5.9984   12.1490    6.6942 H   0  0  0  0  0  0  0  0  0  0  0  0
    5.0053   10.0215    5.0280 C   0  0  0  0  0  0  0  0  0  0  0  0
    3.8493    9.6697    5.7198 C   0  0  0  0  0  0  0  0  0  0  0  0
    3.9178    9.1426    6.4826 H   0  0  0  0  0  0  0  0  0  0  0  0
    2.5989   10.0907    5.2953 C   0  0  0  0  0  0  0  0  0  0  0  0
    1.8361    9.8468    5.7685 H   0  0  0  0  0  0  0  0  0  0  0  0
    2.4979   10.8742    4.1623 C   0  0  0  0  0  0  0  0  0  0  0  0
    1.6658   11.1767    3.8782 H   0  0  0  0  0  0  0  0  0  0  0  0
    3.6093   11.1993    3.4702 C   0  0  0  0  0  0  0  0  0  0  0  0
    3.5309   11.7036    2.6918 H   0  0  0  0  0  0  0  0  0  0  0  0
    4.8719   10.7946    3.8977 C   0  0  0  0  0  0  0  0  0  0  0  0
    5.6268   11.0487    3.4177 H   0  0  0  0  0  0  0  0  0  0  0  0
    7.8671   10.5999    4.9912 C   0  0  0  0  0  0  0  0  0  0  0  0
    8.6269   11.5459    5.6723 C   0  0  0  0  0  0  0  0  0  0  0  0
    8.4301   11.7476    6.5585 H   0  0  0  0  0  0  0  0  0  0  0  0
    9.6826   12.1902    5.0303 C   0  0  0  0  0  0  0  0  0  0  0  0
   10.1813   12.8239    5.4930 H   0  0  0  0  0  0  0  0  0  0  0  0
   10.0001   11.9013    3.7146 C   0  0  0  0  0  0  0  0  0  0  0  0
   10.7053   12.3462    3.3029 H   0  0  0  0  0  0  0  0  0  0  0  0
    9.2748   10.9533    3.0025 C   0  0  0  0  0  0  0  0  0  0  0  0
    8.2213   10.3410    3.6739 C   0  0  0  0  0  0  0  0  0  0  0  0
    7.8748    7.1699    2.3267 C   0  0  0  0  0  0  0  0  0  0  0  0
    8.6100    6.2749    1.5560 C   0  0  0  0  0  0  0  0  0  0  0  0
    8.3994    5.3696    1.5647 H   0  0  0  0  0  0  0  0  0  0  0  0
    9.6620    6.7383    0.7723 C   0  0  0  0  0  0  0  0  0  0  0  0
   10.1440    6.1349    0.2546 H   0  0  0  0  0  0  0  0  0  0  0  0
   10.0070    8.0782    0.7458 C   0  0  0  0  0  0  0  0  0  0  0  0
   10.7182    8.3606    0.2170 H   0  0  0  0  0  0  0  0  0  0  0  0
    9.2960    9.0128    1.5064 C   0  0  0  0  0  0  0  0  0  0  0  0
    8.2394    8.5127    2.2551 C   0  0  0  0  0  0  0  0  0  0  0  0
    9.5455   10.5194    1.5528 C   0  0  0  0  0  0  0  0  0  0  0  0
   10.9551   10.8791    1.0981 C   0  0  0  0  0  0  0  0  0  0  0  0
   11.5953   10.4526    1.6721 H   0  0  0  0  0  0  0  0  0  0  0  0
   11.0714   11.8311    1.1404 H   0  0  0  0  0  0  0  0  0  0  0  0
   11.0859   10.5807    0.1950 H   0  0  0  0  0  0  0  0  0  0  0  0
    8.5157   11.2191    0.6323 C   0  0  0  0  0  0  0  0  0  0  0  0
    8.6491   10.9325   -0.2740 H   0  0  0  0  0  0  0  0  0  0  0  0
    8.6318   12.1706    0.6873 H   0  0  0  0  0  0  0  0  0  0  0  0
    7.6268   10.9889    0.9132 H   0  0  0  0  0  0  0  0  0  0  0  0
    6.1901    4.9975    3.1907 C   0  0  0  0  0  0  0  0  0  0  0  0
    6.1301    4.0526    4.1944 C   0  0  0  0  0  0  0  0  0  0  0  0
    6.3504    4.2889    5.0666 H   0  0  0  0  0  0  0  0  0  0  0  0
    5.7371    2.7406    3.9035 C   0  0  0  0  0  0  0  0  0  0  0  0
    5.6999    2.1071    4.5838 H   0  0  0  0  0  0  0  0  0  0  0  0
    5.4082    2.3874    2.6223 C   0  0  0  0  0  0  0  0  0  0  0  0
    5.1660    1.5109    2.4295 H   0  0  0  0  0  0  0  0  0  0  0  0
    5.4364    3.3240    1.6242 C   0  0  0  0  0  0  0  0  0  0  0  0
    5.1939    3.0887    0.7578 H   0  0  0  0  0  0  0  0  0  0  0  0
    5.8258    4.6210    1.9075 C   0  0  0  0  0  0  0  0  0  0  0  0
    5.8433    5.2523    1.2244 H   0  0  0  0  0  0  0  0  0  0  0  0
    5.0590    7.4414    2.8017 C   0  0  0  0  0  0  0  0  0  0  0  0
    3.8422    7.1651    3.3957 C   0  0  0  0  0  0  0  0  0  0  0  0
    3.8287    6.7388    4.2224 H   0  0  0  0  0  0  0  0  0  0  0  0
    2.6493    7.5031    2.7949 C   0  0  0  0  0  0  0  0  0  0  0  0
    1.8451    7.3066    3.2187 H   0  0  0  0  0  0  0  0  0  0  0  0
    2.6417    8.1295    1.5738 C   0  0  0  0  0  0  0  0  0  0  0  0
    1.8374    8.3571    1.1668 H   0  0  0  0  0  0  0  0  0  0  0  0
    3.8531    8.4201    0.9510 C   0  0  0  0  0  0  0  0  0  0  0  0
    3.8605    8.8328    0.1173 H   0  0  0  0  0  0  0  0  0  0  0  0
    5.4209    6.6814    6.4720 N   0  0  0  0  0  0  0  0  0  0  0  0
    7.4763    9.3792    3.0198 O   0  0  0  0  0  0  0  0  0  0  0  0
    6.6133    9.4922    5.7575 P   0  0  0  0  0  0  0  0  0  0  0  0
    6.5921    6.7618    3.5655 P   0  0  0  0  0  0  0  0  0  0  0  0
    7.2866    7.2297    5.7789 Ru  0  0  0  0  0  0  0  0  0  0  0  0
    8.9511    8.0773    7.0199 B   0  0  0  0  0  0  0  0  0  0  0  0
    8.7082    9.1284    7.2357 H   0  0  0  0  0  0  0  0  0  0  0  0
    9.7612    7.0576    8.2712 B   0  0  0  0  0  0  0  0  0  0  0  0
    9.9877    7.4511    9.2733 H   0  0  0  0  0  0  0  0  0  0  0  0
    9.2822    5.3878    8.0546 B   0  0  0  0  0  0  0  0  0  0  0  0
    9.1994    4.6907    8.9019 H   0  0  0  0  0  0  0  0  0  0  0  0
    8.9685    5.8600    5.2098 B   0  0  0  0  0  0  0  0  0  0  0  0
    8.7354    5.4359    4.2220 H   0  0  0  0  0  0  0  0  0  0  0  0
    9.5236    7.5650    5.3990 B   0  0  0  0  0  0  0  0  0  0  0  0
    9.6797    8.2543    4.5557 H   0  0  0  0  0  0  0  0  0  0  0  0
   10.6313    7.5714    6.8124 B   0  0  0  0  0  0  0  0  0  0  0  0
   11.4543    8.3005    6.8650 H   0  0  0  0  0  0  0  0  0  0  0  0
   10.8318    5.9202    7.4442 B   0  0  0  0  0  0  0  0  0  0  0  0
   11.7781    5.5779    7.8881 H   0  0  0  0  0  0  0  0  0  0  0  0
    9.7888    4.8508    6.4613 B   0  0  0  0  0  0  0  0  0  0  0  0
   10.0344    3.7962    6.2704 H   0  0  0  0  0  0  0  0  0  0  0  0
   10.6588    6.1954    5.6915 B   0  0  0  0  0  0  0  0  0  0  0  0
   11.4996    6.0101    5.0065 H   0  0  0  0  0  0  0  0  0  0  0  0
  1  2  1  0  0  0  0
  3  4  1  0  0  0  0
  5  1  1  0  0  0  0
  6  5  1  0  0  0  0
  7  8  1  0  0  0  0
  8  9  1  0  0  0  0
 10  8  1  0  0  0  0
 11  8  1  0  0  0  0
 12 13  4  0  0  0  0
 13 14  1  0  0  0  0
 15 13  4  0  0  0  0
 16 15  1  0  0  0  0
 17 15  4  0  0  0  0
 18 17  1  0  0  0  0
 19 17  4  0  0  0  0
 20 19  1  0  0  0  0
 21 12  4  0  0  0  0
 22 21  1  0  0  0  0
 23 24  4  0  0  0  0
 24 25  1  0  0  0  0
 26 24  4  0  0  0  0
 27 26  1  0  0  0  0
 28 26  4  0  0  0  0
 29 28  1  0  0  0  0
 30 28  4  0  0  0  0
 31 30  1  0  0  0  0
 32 23  4  0  0  0  0
 33 32  1  0  0  0  0
 34 35  4  0  0  0  0
 35 36  1  0  0  0  0
 37 35  4  0  0  0  0
 38 37  1  0  0  0  0
 39 37  4  0  0  0  0
 40 39  1  0  0  0  0
 41 39  4  0  0  0  0
 42 34  4  0  0  0  0
 43 44  4  0  0  0  0
 44 45  1  0  0  0  0
 46 44  4  0  0  0  0
 47 46  1  0  0  0  0
 48 46  4  0  0  0  0
 49 48  1  0  0  0  0
 50 48  4  0  0  0  0
 51 43  4  0  0  0  0
 52 41  1  0  0  0  0
 53 52  1  0  0  0  0
 54 53  1  0  0  0  0
 55 53  1  0  0  0  0
 56 53  1  0  0  0  0
 57 52  1  0  0  0  0
 58 57  1  0  0  0  0
 59 57  1  0  0  0  0
 60 57  1  0  0  0  0
 61 62  4  0  0  0  0
 62 63  1  0  0  0  0
 64 62  4  0  0  0  0
 65 64  1  0  0  0  0
 66 64  4  0  0  0  0
 67 66  1  0  0  0  0
 68 66  4  0  0  0  0
 69 68  1  0  0  0  0
 70 61  4  0  0  0  0
 71 70  1  0  0  0  0
 72  3  4  0  0  0  0
 73 72  4  0  0  0  0
 74 73  1  0  0  0  0
 75 73  4  0  0  0  0
 76 75  1  0  0  0  0
 77 75  4  0  0  0  0
 78 77  1  0  0  0  0
 79  3  4  0  0  0  0
 80 79  1  0  0  0  0
 81  7  3  0  0  0  0
 82 42  1  0  0  0  0
 83 12  1  0  0  0  0
 84 43  1  0  0  0  0
 85  1  1  0  0  0  0
 86  5  1  0  0  0  0
 87 86  1  0  0  0  0
 88  5  1  0  0  0  0
 89 88  1  0  0  0  0
 90  1  1  0  0  0  0
 91 90  1  0  0  0  0
 92  1  1  0  0  0  0
 93 92  1  0  0  0  0
 94 85  1  0  0  0  0
 95 94  1  0  0  0  0
 96 86  1  0  0  0  0
 97 96  1  0  0  0  0
 98 88  1  0  0  0  0
 99 98  1  0  0  0  0
100  1  1  0  0  0  0
101100  1  0  0  0  0
102 92  1  0  0  0  0
103102  1  0  0  0  0
  5 85  1  0  0  0  0
  5 90  1  0  0  0  0
 19 21  4  0  0  0  0
 23 83  1  0  0  0  0
 30 32  4  0  0  0  0
 34 83  1  0  0  0  0
 41 42  4  0  0  0  0
 50 51  4  0  0  0  0
 50 52  1  0  0  0  0
 51 82  1  0  0  0  0
 61 84  1  0  0  0  0
 68 70  4  0  0  0  0
 72 84  1  0  0  0  0
 77 79  4  0  0  0  0
 81 85  1  0  0  0  0
 83 85  1  0  0  0  0
 84 85  1  0  0  0  0
 85 86  1  0  0  0  0
 85 92  1  0  0  0  0
 86 88  1  0  0  0  0
 86 94  1  0  0  0  0
 88 90  1  0  0  0  0
 88 96  1  0  0  0  0
 90 98  1  0  0  0  0
 90100  1  0  0  0  0
 92 94  1  0  0  0  0
 92100  1  0  0  0  0
 94 96  1  0  0  0  0
 94102  1  0  0  0  0
 96 98  1  0  0  0  0
 96102  1  0  0  0  0
 98100  1  0  0  0  0
 98102  1  0  0  0  0
100102  1  0  0  0  0
M  END
$$$$
POMGOR

From CSD data. Using bond type 'Any'. No disordered atoms. Largest molecule.
 98124  0  0  0  0  0  0  0  0999 V2000
    1.0805   12.0460    6.3979 C   0  0  0  0  0  0  0  0  0  0  0  0
   -0.3901   12.3707    6.9470 C   0  0  0  0  0  0  0  0  0  0  0  0
    0.8356   17.6260    7.9396 C   0  0  0  0  0  0  0  0  0  0  0  0
   -0.2437   16.9253    8.4537 C   0  0  0  0  0  0  0  0  0  0  0  0
   -1.5154   17.3799    8.1002 C   0  0  0  0  0  0  0  0  0  0  0  0
   -1.6510   18.4978    7.2916 C   0  0  0  0  0  0  0  0  0  0  0  0
   -0.5460   19.1623    6.7985 C   0  0  0  0  0  0  0  0  0  0  0  0
    0.7348   18.7307    7.0988 C   0  0  0  0  0  0  0  0  0  0  0  0
    2.0309   19.3413    6.5643 C   0  0  0  0  0  0  0  0  0  0  0  0
    2.9685   18.1812    6.2872 C   0  0  0  0  0  0  0  0  0  0  0  0
    3.8359   18.0657    5.2081 C   0  0  0  0  0  0  0  0  0  0  0  0
    4.6222   16.9480    5.0366 C   0  0  0  0  0  0  0  0  0  0  0  0
    4.5682   15.8960    5.9267 C   0  0  0  0  0  0  0  0  0  0  0  0
    3.7220   15.9579    7.0369 C   0  0  0  0  0  0  0  0  0  0  0  0
    2.9545   17.1082    7.1727 C   0  0  0  0  0  0  0  0  0  0  0  0
    2.6472   20.2387    7.6581 C   0  0  0  0  0  0  0  0  0  0  0  0
    2.7487   19.7328    8.4678 H   0  0  0  0  0  0  0  0  0  0  0  0
    2.0708   20.9889    7.8196 H   0  0  0  0  0  0  0  0  0  0  0  0
    3.5071   20.5526    7.3677 H   0  0  0  0  0  0  0  0  0  0  0  0
    1.7655   20.1686    5.3008 C   0  0  0  0  0  0  0  0  0  0  0  0
   -1.5181   14.8844   10.0169 C   0  0  0  0  0  0  0  0  0  0  0  0
   -2.0244   13.6026    9.8993 C   0  0  0  0  0  0  0  0  0  0  0  0
   -3.2804   13.2955   10.4030 C   0  0  0  0  0  0  0  0  0  0  0  0
   -4.0334   14.2658   11.0183 C   0  0  0  0  0  0  0  0  0  0  0  0
   -3.5187   15.5266   11.1921 C   0  0  0  0  0  0  0  0  0  0  0  0
   -2.2637   15.8355   10.7109 C   0  0  0  0  0  0  0  0  0  0  0  0
    0.8670   15.8573   10.9268 C   0  0  0  0  0  0  0  0  0  0  0  0
    1.0075   14.8776   11.8980 C   0  0  0  0  0  0  0  0  0  0  0  0
    1.4468   15.2127   13.1689 C   0  0  0  0  0  0  0  0  0  0  0  0
    1.7289   16.5095   13.4854 C   0  0  0  0  0  0  0  0  0  0  0  0
    1.5954   17.4727   12.5514 C   0  0  0  0  0  0  0  0  0  0  0  0
    1.1680   17.1625   11.2618 C   0  0  0  0  0  0  0  0  0  0  0  0
    3.9593   15.1285    9.8162 C   0  0  0  0  0  0  0  0  0  0  0  0
    4.0256   14.1779   10.8162 C   0  0  0  0  0  0  0  0  0  0  0  0
    4.5786   14.4881   12.0438 C   0  0  0  0  0  0  0  0  0  0  0  0
    5.0716   15.7319   12.2835 C   0  0  0  0  0  0  0  0  0  0  0  0
    5.0160   16.6796   11.3067 C   0  0  0  0  0  0  0  0  0  0  0  0
    4.4588   16.3913   10.0675 C   0  0  0  0  0  0  0  0  0  0  0  0
    4.7227   13.3947    7.8308 C   0  0  0  0  0  0  0  0  0  0  0  0
    6.0319   13.8481    7.8510 C   0  0  0  0  0  0  0  0  0  0  0  0
    7.0854   12.9924    7.6135 C   0  0  0  0  0  0  0  0  0  0  0  0
    6.8478   11.6609    7.4013 C   0  0  0  0  0  0  0  0  0  0  0  0
    5.5639   11.1873    7.4237 C   0  0  0  0  0  0  0  0  0  0  0  0
    4.4996   12.0601    7.6174 C   0  0  0  0  0  0  0  0  0  0  0  0
    1.8680   13.4206    5.7806 B   0  0  0  0  0  0  0  0  0  0  0  0
   -0.2465   11.4599    5.4868 B   0  0  0  0  0  0  0  0  0  0  0  0
    1.1614   12.1498    4.7195 B   0  0  0  0  0  0  0  0  0  0  0  0
   -0.7909   14.0115    6.7438 B   0  0  0  0  0  0  0  0  0  0  0  0
    0.6510   14.7799    5.9315 B   0  0  0  0  0  0  0  0  0  0  0  0
    0.8567   13.8545    4.3950 B   0  0  0  0  0  0  0  0  0  0  0  0
   -0.4406   12.6655    4.2179 B   0  0  0  0  0  0  0  0  0  0  0  0
   -1.4443   12.7249    5.6785 B   0  0  0  0  0  0  0  0  0  0  0  0
   -0.7823   14.2212    5.0005 B   0  0  0  0  0  0  0  0  0  0  0  0
    2.0852   17.1237    8.2550 O   0  0  0  0  0  0  0  0  0  0  0  0
    0.1176   15.3598    9.3350 P   0  0  0  0  0  0  0  0  0  0  0  0
    3.3591   14.5806    8.1755 P   0  0  0  0  0  0  0  0  0  0  0  0
    1.1302   13.7372    7.8777 Ru  0  0  0  0  0  0  0  0  0  0  0  0
    1.4128   12.1693    9.6500 Cl  0  0  0  0  0  0  0  0  0  0  0  0
   -0.7465   11.8569    7.6562 H   0  0  0  0  0  0  0  0  0  0  0  0
    1.5446   11.3046    6.7855 H   0  0  0  0  0  0  0  0  0  0  0  0
    2.8937   13.4740    5.6840 H   0  0  0  0  0  0  0  0  0  0  0  0
    0.8842   15.8710    5.8385 H   0  0  0  0  0  0  0  0  0  0  0  0
   -1.5416   14.4704    7.2860 H   0  0  0  0  0  0  0  0  0  0  0  0
   -2.4947   12.4733    5.7771 H   0  0  0  0  0  0  0  0  0  0  0  0
   -0.4565   10.4408    5.5817 H   0  0  0  0  0  0  0  0  0  0  0  0
    1.7840   11.5299    4.2235 H   0  0  0  0  0  0  0  0  0  0  0  0
    1.3181   14.3909    3.5239 H   0  0  0  0  0  0  0  0  0  0  0  0
   -1.3455   15.0249    4.5584 H   0  0  0  0  0  0  0  0  0  0  0  0
   -0.8620   12.3076    3.2746 H   0  0  0  0  0  0  0  0  0  0  0  0
   -1.9263   16.7017   10.8769 H   0  0  0  0  0  0  0  0  0  0  0  0
   -3.9990   16.2356   11.6286 H   0  0  0  0  0  0  0  0  0  0  0  0
   -4.8419   14.1103   11.2564 H   0  0  0  0  0  0  0  0  0  0  0  0
   -3.5567   12.4247   10.2462 H   0  0  0  0  0  0  0  0  0  0  0  0
   -1.5399   12.9858    9.4517 H   0  0  0  0  0  0  0  0  0  0  0  0
   -2.2451   16.9536    8.3763 H   0  0  0  0  0  0  0  0  0  0  0  0
   -2.4712   18.8071    7.1074 H   0  0  0  0  0  0  0  0  0  0  0  0
   -0.6565   19.9316    6.2515 H   0  0  0  0  0  0  0  0  0  0  0  0
    3.8886   18.7386    4.6328 H   0  0  0  0  0  0  0  0  0  0  0  0
    5.2274   16.8917    4.2979 H   0  0  0  0  0  0  0  0  0  0  0  0
    5.0711   15.1265    5.7622 H   0  0  0  0  0  0  0  0  0  0  0  0
    0.8556   14.0418   11.6844 H   0  0  0  0  0  0  0  0  0  0  0  0
    1.5012   14.4991   13.8240 H   0  0  0  0  0  0  0  0  0  0  0  0
    2.0066   16.6575   14.3450 H   0  0  0  0  0  0  0  0  0  0  0  0
    1.7683   18.3144   12.7263 H   0  0  0  0  0  0  0  0  0  0  0  0
    1.0192   17.7864   10.7169 H   0  0  0  0  0  0  0  0  0  0  0  0
    3.6585   13.3437   10.6611 H   0  0  0  0  0  0  0  0  0  0  0  0
    4.5932   13.8761   12.6333 H   0  0  0  0  0  0  0  0  0  0  0  0
    5.4361   15.9992   13.0054 H   0  0  0  0  0  0  0  0  0  0  0  0
    5.3051   17.5191   11.4611 H   0  0  0  0  0  0  0  0  0  0  0  0
    4.4226   17.0662    9.4145 H   0  0  0  0  0  0  0  0  0  0  0  0
    6.1874   14.6825    7.9651 H   0  0  0  0  0  0  0  0  0  0  0  0
    7.9017   13.3835    7.6544 H   0  0  0  0  0  0  0  0  0  0  0  0
    7.5325   11.1809    7.2190 H   0  0  0  0  0  0  0  0  0  0  0  0
    5.3553   10.3060    7.3679 H   0  0  0  0  0  0  0  0  0  0  0  0
    3.6481   11.7287    7.5986 H   0  0  0  0  0  0  0  0  0  0  0  0
    2.5858   20.5237    4.9863 H   0  0  0  0  0  0  0  0  0  0  0  0
    1.1886   20.8793    5.5445 H   0  0  0  0  0  0  0  0  0  0  0  0
    1.3038   19.5450    4.5584 H   0  0  0  0  0  0  0  0  0  0  0  0
  1  2  1  0  0  0  0
  2 46  1  0  0  0  0
  3  4  4  0  0  0  0
  4  5  4  0  0  0  0
  5  6  4  0  0  0  0
  6  7  4  0  0  0  0
  7  8  4  0  0  0  0
  8  3  4  0  0  0  0
  9  8  1  0  0  0  0
 10  9  1  0  0  0  0
 11 10  4  0  0  0  0
 12 11  4  0  0  0  0
 13 12  4  0  0  0  0
 14 13  4  0  0  0  0
 15 10  4  0  0  0  0
 16  9  1  0  0  0  0
 17 16  1  0  0  0  0
 18 16  1  0  0  0  0
 19 16  1  0  0  0  0
 20  9  1  0  0  0  0
 21 22  4  0  0  0  0
 22 23  4  0  0  0  0
 23 24  4  0  0  0  0
 24 25  4  0  0  0  0
 25 26  4  0  0  0  0
 26 21  4  0  0  0  0
 27 28  4  0  0  0  0
 28 29  4  0  0  0  0
 29 30  4  0  0  0  0
 30 31  4  0  0  0  0
 31 32  4  0  0  0  0
 32 27  4  0  0  0  0
 33 34  4  0  0  0  0
 34 35  4  0  0  0  0
 35 36  4  0  0  0  0
 36 37  4  0  0  0  0
 37 38  4  0  0  0  0
 38 33  4  0  0  0  0
 39 40  4  0  0  0  0
 40 41  4  0  0  0  0
 41 42  4  0  0  0  0
 42 43  4  0  0  0  0
 43 44  4  0  0  0  0
 44 39  4  0  0  0  0
 45  1  1  0  0  0  0
 46  1  1  0  0  0  0
 47  1  1  0  0  0  0
 48  2  1  0  0  0  0
 49 45  1  0  0  0  0
 50 45  1  0  0  0  0
 51 46  1  0  0  0  0
 52  2  1  0  0  0  0
 53 48  1  0  0  0  0
 54  3  1  0  0  0  0
 55  4  1  0  0  0  0
 56 14  1  0  0  0  0
 57  1  1  0  0  0  0
 58 57  1  0  0  0  0
 59  2  1  0  0  0  0
 60  1  1  0  0  0  0
 61 45  1  0  0  0  0
 62 49  1  0  0  0  0
 63 48  1  0  0  0  0
 64 52  1  0  0  0  0
 65 46  1  0  0  0  0
 66 47  1  0  0  0  0
 67 50  1  0  0  0  0
 68 53  1  0  0  0  0
 69 51  1  0  0  0  0
 70 26  1  0  0  0  0
 71 25  1  0  0  0  0
 72 24  1  0  0  0  0
 73 23  1  0  0  0  0
 74 22  1  0  0  0  0
 75  5  1  0  0  0  0
 76  6  1  0  0  0  0
 77  7  1  0  0  0  0
 78 11  1  0  0  0  0
 79 12  1  0  0  0  0
 80 13  1  0  0  0  0
 81 28  1  0  0  0  0
 82 29  1  0  0  0  0
 83 30  1  0  0  0  0
 84 31  1  0  0  0  0
 85 32  1  0  0  0  0
 86 34  1  0  0  0  0
 87 35  1  0  0  0  0
 88 36  1  0  0  0  0
 89 37  1  0  0  0  0
 90 38  1  0  0  0  0
 91 40  1  0  0  0  0
 92 41  1  0  0  0  0
 93 42  1  0  0  0  0
 94 43  1  0  0  0  0
 95 44  1  0  0  0  0
 96 20  1  0  0  0  0
 97 20  1  0  0  0  0
 98 20  1  0  0  0  0
  2 57  1  0  0  0  0
 14 15  4  0  0  0  0
 15 54  1  0  0  0  0
 21 55  1  0  0  0  0
 27 55  1  0  0  0  0
 33 56  1  0  0  0  0
 39 56  1  0  0  0  0
 45 47  1  0  0  0  0
 45 57  1  0  0  0  0
 46 47  1  0  0  0  0
 46 52  1  0  0  0  0
 47 50  1  0  0  0  0
 47 51  1  0  0  0  0
 48 49  1  0  0  0  0
 48 52  1  0  0  0  0
 48 57  1  0  0  0  0
 49 50  1  0  0  0  0
 49 53  1  0  0  0  0
 49 57  1  0  0  0  0
 50 51  1  0  0  0  0
 50 53  1  0  0  0  0
 51 52  1  0  0  0  0
 51 53  1  0  0  0  0
 52 53  1  0  0  0  0
 55 57  1  0  0  0  0
 56 57  1  0  0  0  0
M  END
$$$$
POMHIM

From CSD data. Using bond type 'Any'. No disordered atoms. Largest molecule.
 92117  0  0  0  0  0  0  0  0999 V2000
    4.6677    3.0646    6.2517 C   0  0  0  0  0  0  0  0  0  0  0  0
    4.1676    2.0657    6.3304 H   0  0  0  0  0  0  0  0  0  0  0  0
    4.4759    3.9676    4.9509 C   0  0  0  0  0  0  0  0  0  0  0  0
    3.8411    3.6141    4.0990 H   0  0  0  0  0  0  0  0  0  0  0  0
    2.1360    2.8677    9.5687 C   0  0  0  0  0  0  0  0  0  0  0  0
    2.6818    1.7320    8.9790 C   0  0  0  0  0  0  0  0  0  0  0  0
    3.0756    1.7926    8.1162 H   0  0  0  0  0  0  0  0  0  0  0  0
    2.6588    0.5061    9.6421 C   0  0  0  0  0  0  0  0  0  0  0  0
    3.0271   -0.2636    9.2248 H   0  0  0  0  0  0  0  0  0  0  0  0
    2.1008    0.4030   10.9053 C   0  0  0  0  0  0  0  0  0  0  0  0
    2.1017   -0.4306   11.3612 H   0  0  0  0  0  0  0  0  0  0  0  0
    1.5410    1.5220   11.5010 C   0  0  0  0  0  0  0  0  0  0  0  0
    1.1557    1.4552   12.3666 H   0  0  0  0  0  0  0  0  0  0  0  0
    1.5433    2.7430   10.8347 C   0  0  0  0  0  0  0  0  0  0  0  0
    1.1397    3.5007   11.2413 H   0  0  0  0  0  0  0  0  0  0  0  0
    0.3059    4.8611    9.0528 C   0  0  0  0  0  0  0  0  0  0  0  0
   -0.1644    5.7427   10.0243 C   0  0  0  0  0  0  0  0  0  0  0  0
    0.4469    6.2871   10.5070 H   0  0  0  0  0  0  0  0  0  0  0  0
   -1.5338    5.8255   10.2880 C   0  0  0  0  0  0  0  0  0  0  0  0
   -1.8509    6.4316   10.9470 H   0  0  0  0  0  0  0  0  0  0  0  0
   -2.4212    5.0388    9.6036 C   0  0  0  0  0  0  0  0  0  0  0  0
   -3.3484    5.0795    9.8074 H   0  0  0  0  0  0  0  0  0  0  0  0
   -1.9673    4.1897    8.6191 C   0  0  0  0  0  0  0  0  0  0  0  0
   -2.5849    3.6608    8.1282 H   0  0  0  0  0  0  0  0  0  0  0  0
   -0.6098    4.1029    8.3401 C   0  0  0  0  0  0  0  0  0  0  0  0
   -0.3052    3.5202    7.6536 H   0  0  0  0  0  0  0  0  0  0  0  0
    2.9495    5.5933    9.9649 C   0  0  0  0  0  0  0  0  0  0  0  0
    3.6828    5.0716   11.0342 C   0  0  0  0  0  0  0  0  0  0  0  0
    3.7424    4.1302   11.1470 H   0  0  0  0  0  0  0  0  0  0  0  0
    4.3217    5.9087   11.9296 C   0  0  0  0  0  0  0  0  0  0  0  0
    4.8113    5.5451   12.6579 H   0  0  0  0  0  0  0  0  0  0  0  0
    4.2403    7.2786   11.7604 C   0  0  0  0  0  0  0  0  0  0  0  0
    4.6804    7.8533   12.3752 H   0  0  0  0  0  0  0  0  0  0  0  0
    3.5323    7.8209   10.7073 C   0  0  0  0  0  0  0  0  0  0  0  0
    3.4684    8.7636   10.6094 H   0  0  0  0  0  0  0  0  0  0  0  0
    2.9140    6.9829    9.7962 C   0  0  0  0  0  0  0  0  0  0  0  0
    2.4491    8.0749    6.4732 C   0  0  0  0  0  0  0  0  0  0  0  0
    2.6092    8.3893    7.8234 C   0  0  0  0  0  0  0  0  0  0  0  0
    3.0960    9.6379    8.1871 C   0  0  0  0  0  0  0  0  0  0  0  0
    3.1271    9.8847    9.1039 H   0  0  0  0  0  0  0  0  0  0  0  0
    3.5320   10.5196    7.2258 C   0  0  0  0  0  0  0  0  0  0  0  0
    3.8950   11.3577    7.4870 H   0  0  0  0  0  0  0  0  0  0  0  0
    3.4510   10.2031    5.8876 C   0  0  0  0  0  0  0  0  0  0  0  0
    3.7694   10.8092    5.2289 H   0  0  0  0  0  0  0  0  0  0  0  0
    2.8996    8.9908    5.5164 C   0  0  0  0  0  0  0  0  0  0  0  0
    2.8252    8.7756    4.5941 H   0  0  0  0  0  0  0  0  0  0  0  0
   -0.0634    6.6120    6.3947 C   0  0  0  0  0  0  0  0  0  0  0  0
   -0.6118    7.6215    7.1662 C   0  0  0  0  0  0  0  0  0  0  0  0
   -0.0455    8.2023    7.6607 H   0  0  0  0  0  0  0  0  0  0  0  0
   -2.0005    7.7868    7.2181 C   0  0  0  0  0  0  0  0  0  0  0  0
   -2.3747    8.4740    7.7563 H   0  0  0  0  0  0  0  0  0  0  0  0
   -2.8267    6.9557    6.4906 C   0  0  0  0  0  0  0  0  0  0  0  0
   -3.7686    7.0699    6.5354 H   0  0  0  0  0  0  0  0  0  0  0  0
   -2.2900    5.9573    5.6957 C   0  0  0  0  0  0  0  0  0  0  0  0
   -2.8613    5.3991    5.1824 H   0  0  0  0  0  0  0  0  0  0  0  0
   -0.9214    5.7769    5.6525 C   0  0  0  0  0  0  0  0  0  0  0  0
   -0.5537    5.0834    5.1160 H   0  0  0  0  0  0  0  0  0  0  0  0
    1.4515    6.6778    4.1614 C   0  0  0  0  0  0  0  0  0  0  0  0
    1.8671    5.7633    3.1983 C   0  0  0  0  0  0  0  0  0  0  0  0
    2.4169    5.0302    3.4488 H   0  0  0  0  0  0  0  0  0  0  0  0
    1.4803    5.9182    1.8648 C   0  0  0  0  0  0  0  0  0  0  0  0
    1.7606    5.2847    1.2150 H   0  0  0  0  0  0  0  0  0  0  0  0
    0.6887    6.9897    1.4842 C   0  0  0  0  0  0  0  0  0  0  0  0
    0.4258    7.0898    0.5768 H   0  0  0  0  0  0  0  0  0  0  0  0
    0.2819    7.9164    2.4334 C   0  0  0  0  0  0  0  0  0  0  0  0
   -0.2474    8.6609    2.1729 H   0  0  0  0  0  0  0  0  0  0  0  0
    0.6462    7.7580    3.7584 C   0  0  0  0  0  0  0  0  0  0  0  0
    0.3480    8.3872    4.4046 H   0  0  0  0  0  0  0  0  0  0  0  0
    4.8710    4.0131    7.6751 B   0  0  0  0  0  0  0  0  0  0  0  0
    4.5741    3.7130    8.7126 H   0  0  0  0  0  0  0  0  0  0  0  0
    6.2426    3.1702    6.8645 B   0  0  0  0  0  0  0  0  0  0  0  0
    6.7854    2.3356    7.3776 H   0  0  0  0  0  0  0  0  0  0  0  0
    5.9636    3.1217    5.1160 B   0  0  0  0  0  0  0  0  0  0  0  0
    6.3146    2.2746    4.4724 H   0  0  0  0  0  0  0  0  0  0  0  0
    4.5202    5.6447    5.3301 B   0  0  0  0  0  0  0  0  0  0  0  0
    3.9829    6.4553    4.7744 H   0  0  0  0  0  0  0  0  0  0  0  0
    4.8325    5.7326    7.1196 B   0  0  0  0  0  0  0  0  0  0  0  0
    4.5423    6.5960    7.7712 H   0  0  0  0  0  0  0  0  0  0  0  0
    6.4083    4.8686    7.3626 B   0  0  0  0  0  0  0  0  0  0  0  0
    7.0910    5.1680    8.1986 H   0  0  0  0  0  0  0  0  0  0  0  0
    7.0712    4.3307    5.7947 B   0  0  0  0  0  0  0  0  0  0  0  0
    8.1730    4.2901    5.6008 H   0  0  0  0  0  0  0  0  0  0  0  0
    5.8975    4.7967    4.5344 B   0  0  0  0  0  0  0  0  0  0  0  0
    6.2079    5.0546    3.4896 H   0  0  0  0  0  0  0  0  0  0  0  0
    6.1882    5.8760    5.9189 B   0  0  0  0  0  0  0  0  0  0  0  0
    6.7198    6.8532    5.7901 H   0  0  0  0  0  0  0  0  0  0  0  0
    1.7514    2.9149    6.4679 O   0  0  0  0  0  0  0  0  0  0  0  0
    1.5123    3.7593    5.3702 O   0  0  0  0  0  0  0  0  0  0  0  0
    2.1400    7.4335    8.7268 O   0  0  0  0  0  0  0  0  0  0  0  0
    2.0828    4.5286    8.7660 P   0  0  0  0  0  0  0  0  0  0  0  0
    1.7196    6.4757    5.9842 P   0  0  0  0  0  0  0  0  0  0  0  0
    2.9623    4.5533    6.5700 Ru  0  0  0  0  0  0  0  0  0  0  0  0
  1  2  1  0  0  0  0
  3  1  1  0  0  0  0
  4  3  1  0  0  0  0
  5  6  4  0  0  0  0
  6  7  1  0  0  0  0
  8  6  4  0  0  0  0
  9  8  1  0  0  0  0
 10  8  4  0  0  0  0
 11 10  1  0  0  0  0
 12 10  4  0  0  0  0
 13 12  1  0  0  0  0
 14  5  4  0  0  0  0
 15 14  1  0  0  0  0
 16 17  4  0  0  0  0
 17 18  1  0  0  0  0
 19 17  4  0  0  0  0
 20 19  1  0  0  0  0
 21 19  4  0  0  0  0
 22 21  1  0  0  0  0
 23 21  4  0  0  0  0
 24 23  1  0  0  0  0
 25 16  4  0  0  0  0
 26 25  1  0  0  0  0
 27 28  4  0  0  0  0
 28 29  1  0  0  0  0
 30 28  4  0  0  0  0
 31 30  1  0  0  0  0
 32 30  4  0  0  0  0
 33 32  1  0  0  0  0
 34 32  4  0  0  0  0
 35 34  1  0  0  0  0
 36 27  4  0  0  0  0
 37 38  4  0  0  0  0
 38 39  4  0  0  0  0
 39 40  1  0  0  0  0
 41 39  4  0  0  0  0
 42 41  1  0  0  0  0
 43 41  4  0  0  0  0
 44 43  1  0  0  0  0
 45 37  4  0  0  0  0
 46 45  1  0  0  0  0
 47 48  4  0  0  0  0
 48 49  1  0  0  0  0
 50 48  4  0  0  0  0
 51 50  1  0  0  0  0
 52 50  4  0  0  0  0
 53 52  1  0  0  0  0
 54 52  4  0  0  0  0
 55 54  1  0  0  0  0
 56 47  4  0  0  0  0
 57 56  1  0  0  0  0
 58 59  4  0  0  0  0
 59 60  1  0  0  0  0
 61 59  4  0  0  0  0
 62 61  1  0  0  0  0
 63 61  4  0  0  0  0
 64 63  1  0  0  0  0
 65 63  4  0  0  0  0
 66 65  1  0  0  0  0
 67 58  4  0  0  0  0
 68 67  1  0  0  0  0
 69  1  1  0  0  0  0
 70 69  1  0  0  0  0
 71  1  1  0  0  0  0
 72 71  1  0  0  0  0
 73  1  1  0  0  0  0
 74 73  1  0  0  0  0
 75  3  1  0  0  0  0
 76 75  1  0  0  0  0
 77 69  1  0  0  0  0
 78 77  1  0  0  0  0
 79 69  1  0  0  0  0
 80 79  1  0  0  0  0
 81 71  1  0  0  0  0
 82 81  1  0  0  0  0
 83  3  1  0  0  0  0
 84 83  1  0  0  0  0
 85 75  1  0  0  0  0
 86 85  1  0  0  0  0
 87 88  1  0  0  0  0
 88 92  1  0  0  0  0
 89 36  1  0  0  0  0
 90  5  1  0  0  0  0
 91 37  1  0  0  0  0
 92  1  1  0  0  0  0
  3 73  1  0  0  0  0
 12 14  4  0  0  0  0
 16 90  1  0  0  0  0
 23 25  4  0  0  0  0
 27 90  1  0  0  0  0
 34 36  4  0  0  0  0
 38 89  1  0  0  0  0
 43 45  4  0  0  0  0
 47 91  1  0  0  0  0
 54 56  4  0  0  0  0
 58 91  1  0  0  0  0
 65 67  4  0  0  0  0
 69 71  1  0  0  0  0
 69 92  1  0  0  0  0
 71 73  1  0  0  0  0
 71 79  1  0  0  0  0
 73 81  1  0  0  0  0
 73 83  1  0  0  0  0
 75 77  1  0  0  0  0
 75 83  1  0  0  0  0
 75 92  1  0  0  0  0
 77 79  1  0  0  0  0
 77 85  1  0  0  0  0
 77 92  1  0  0  0  0
 79 81  1  0  0  0  0
 79 85  1  0  0  0  0
 81 83  1  0  0  0  0
 81 85  1  0  0  0  0
 83 85  1  0  0  0  0
 87 92  1  0  0  0  0
 90 92  1  0  0  0  0
 91 92  1  0  0  0  0
M  END
$$$$
POXBOV

From CSD data. Using bond type 'Any'. No disordered atoms. Largest molecule.
124154  0  0  0  0  0  0  0  0999 V2000
    6.2323    5.5370    4.6124 Fe  0  0  0  0  0  0  0  0  0  0  0  0
    7.6850    5.7241    1.1417 H   0  0  0  0  0  0  0  0  0  0  0  0
    7.3836    8.3530    2.9779 P   0  0  0  0  0  0  0  0  0  0  0  0
    6.7229    7.4190    0.5977 Li  0  0  0  0  0  0  0  0  0  0  0  0
    6.6857    5.0834    1.3185 B   0  0  0  0  0  0  0  0  0  0  0  0
    6.6291    7.5444    4.3953 C   0  0  0  0  0  0  0  0  0  0  0  0
    7.2829    7.0303    5.5623 C   0  0  0  0  0  0  0  0  0  0  0  0
    8.2689    7.0353    5.7291 H   0  0  0  0  0  0  0  0  0  0  0  0
    6.2955    6.4815    6.4279 C   0  0  0  0  0  0  0  0  0  0  0  0
    6.4623    6.0469    7.3127 H   0  0  0  0  0  0  0  0  0  0  0  0
    5.0295    6.6703    5.8139 C   0  0  0  0  0  0  0  0  0  0  0  0
    4.1493    6.3847    6.1939 H   0  0  0  0  0  0  0  0  0  0  0  0
    5.2217    7.3047    4.5628 C   0  0  0  0  0  0  0  0  0  0  0  0
    4.5038    7.5518    3.9130 H   0  0  0  0  0  0  0  0  0  0  0  0
    6.4965    4.5110    2.7956 C   0  0  0  0  0  0  0  0  0  0  0  0
    6.7319    4.3831    0.5951 H   0  0  0  0  0  0  0  0  0  0  0  0
    7.5004    4.1658    3.7437 C   0  0  0  0  0  0  0  0  0  0  0  0
    8.4833    4.2912    3.6142 H   0  0  0  0  0  0  0  0  0  0  0  0
    6.8882    3.6344    4.9171 C   0  0  0  0  0  0  0  0  0  0  0  0
    7.3648    3.2979    5.7291 H   0  0  0  0  0  0  0  0  0  0  0  0
    5.4778    3.6518    4.7181 C   0  0  0  0  0  0  0  0  0  0  0  0
    4.7838    3.3252    5.3587 H   0  0  0  0  0  0  0  0  0  0  0  0
    5.2440    4.1869    3.4175 C   0  0  0  0  0  0  0  0  0  0  0  0
    4.3429    4.3322    3.0088 H   0  0  0  0  0  0  0  0  0  0  0  0
    6.9865   10.1283    3.1922 C   0  0  0  0  0  0  0  0  0  0  0  0
    5.8234    5.7738    0.9757 H   0  0  0  0  0  0  0  0  0  0  0  0
    6.1168   10.6299    4.1174 C   0  0  0  0  0  0  0  0  0  0  0  0
    5.7087   10.0575    4.7559 H   0  0  0  0  0  0  0  0  0  0  0  0
    5.8234   12.0492    4.1123 C   0  0  0  0  0  0  0  0  0  0  0  0
    5.2038   12.4130    4.7329 H   0  0  0  0  0  0  0  0  0  0  0  0
    6.4399   12.8500    3.2132 C   0  0  0  0  0  0  0  0  0  0  0  0
    6.2404   13.7788    3.2208 H   0  0  0  0  0  0  0  0  0  0  0  0
    7.3261   12.3894    2.3116 C   0  0  0  0  0  0  0  0  0  0  0  0
    7.7640   12.9841    1.7139 H   0  0  0  0  0  0  0  0  0  0  0  0
    7.5897   11.0235    2.2732 C   0  0  0  0  0  0  0  0  0  0  0  0
    8.1870   10.6846    1.6168 H   0  0  0  0  0  0  0  0  0  0  0  0
    9.1610    8.3142    3.4494 C   0  0  0  0  0  0  0  0  0  0  0  0
    9.7791    9.3187    4.1679 C   0  0  0  0  0  0  0  0  0  0  0  0
    9.2757   10.0662    4.4699 H   0  0  0  0  0  0  0  0  0  0  0  0
   11.1433    9.2380    4.4520 C   0  0  0  0  0  0  0  0  0  0  0  0
   11.5648    9.9458    4.9271 H   0  0  0  0  0  0  0  0  0  0  0  0
   11.8805    8.1578    4.0581 C   0  0  0  0  0  0  0  0  0  0  0  0
   12.8084    8.1118    4.2579 H   0  0  0  0  0  0  0  0  0  0  0  0
   11.2699    7.1396    3.3726 C   0  0  0  0  0  0  0  0  0  0  0  0
   11.7718    6.3735    3.1187 H   0  0  0  0  0  0  0  0  0  0  0  0
    9.9161    7.2228    3.0464 C   0  0  0  0  0  0  0  0  0  0  0  0
    9.5080    6.5275    2.5440 H   0  0  0  0  0  0  0  0  0  0  0  0
    5.1859    8.4955    0.1507 O   0  0  0  0  0  0  0  0  0  0  0  0
    5.3944    9.8340   -0.4112 C   0  0  0  0  0  0  0  0  0  0  0  0
    6.3536   10.0588   -0.3218 H   0  0  0  0  0  0  0  0  0  0  0  0
    5.1919    9.7943   -1.3793 H   0  0  0  0  0  0  0  0  0  0  0  0
    3.9646    8.0435   -0.4598 C   0  0  0  0  0  0  0  0  0  0  0  0
    3.5417    8.7327   -1.0319 H   0  0  0  0  0  0  0  0  0  0  0  0
    4.0764    7.2004   -0.9680 H   0  0  0  0  0  0  0  0  0  0  0  0
    4.6900   10.8261    0.1124 C   0  0  0  0  0  0  0  0  0  0  0  0
    5.0355   11.0360    1.0064 H   0  0  0  0  0  0  0  0  0  0  0  0
    3.7502   10.5592    0.1813 H   0  0  0  0  0  0  0  0  0  0  0  0
    4.7644   11.6183   -0.4598 H   0  0  0  0  0  0  0  0  0  0  0  0
    3.3093    7.8647    0.7356 C   0  0  0  0  0  0  0  0  0  0  0  0
    3.8857    7.3706    1.3537 H   0  0  0  0  0  0  0  0  0  0  0  0
    2.4827    7.3594    0.5849 H   0  0  0  0  0  0  0  0  0  0  0  0
    3.0904    8.7389    1.1213 H   0  0  0  0  0  0  0  0  0  0  0  0
    8.6612    6.8797   -4.6124 Fe  0  0  0  0  0  0  0  0  0  0  0  0
    7.2085    6.6926   -1.1417 H   0  0  0  0  0  0  0  0  0  0  0  0
    7.5099    4.0637   -2.9779 P   0  0  0  0  0  0  0  0  0  0  0  0
    8.1706    4.9977   -0.5977 Li  0  0  0  0  0  0  0  0  0  0  0  0
    8.2078    7.3333   -1.3185 B   0  0  0  0  0  0  0  0  0  0  0  0
    8.2644    4.8723   -4.3953 C   0  0  0  0  0  0  0  0  0  0  0  0
    7.6106    5.3864   -5.5623 C   0  0  0  0  0  0  0  0  0  0  0  0
    6.6246    5.3814   -5.7291 H   0  0  0  0  0  0  0  0  0  0  0  0
    8.5980    5.9352   -6.4279 C   0  0  0  0  0  0  0  0  0  0  0  0
    8.4312    6.3698   -7.3127 H   0  0  0  0  0  0  0  0  0  0  0  0
    9.8640    5.7464   -5.8139 C   0  0  0  0  0  0  0  0  0  0  0  0
   10.7442    6.0320   -6.1939 H   0  0  0  0  0  0  0  0  0  0  0  0
    9.6718    5.1120   -4.5628 C   0  0  0  0  0  0  0  0  0  0  0  0
   10.3897    4.8649   -3.9130 H   0  0  0  0  0  0  0  0  0  0  0  0
    8.3970    7.9057   -2.7956 C   0  0  0  0  0  0  0  0  0  0  0  0
    8.1616    8.0336   -0.5951 H   0  0  0  0  0  0  0  0  0  0  0  0
    7.3931    8.2509   -3.7437 C   0  0  0  0  0  0  0  0  0  0  0  0
    6.4102    8.1255   -3.6142 H   0  0  0  0  0  0  0  0  0  0  0  0
    8.0053    8.7823   -4.9171 C   0  0  0  0  0  0  0  0  0  0  0  0
    7.5287    9.1188   -5.7291 H   0  0  0  0  0  0  0  0  0  0  0  0
    9.4157    8.7649   -4.7181 C   0  0  0  0  0  0  0  0  0  0  0  0
   10.1097    9.0915   -5.3587 H   0  0  0  0  0  0  0  0  0  0  0  0
    9.6495    8.2298   -3.4175 C   0  0  0  0  0  0  0  0  0  0  0  0
   10.5506    8.0845   -3.0088 H   0  0  0  0  0  0  0  0  0  0  0  0
    7.9070    2.2884   -3.1922 C   0  0  0  0  0  0  0  0  0  0  0  0
    9.0701    6.6429   -0.9757 H   0  0  0  0  0  0  0  0  0  0  0  0
    8.7767    1.7868   -4.1174 C   0  0  0  0  0  0  0  0  0  0  0  0
    9.1848    2.3592   -4.7559 H   0  0  0  0  0  0  0  0  0  0  0  0
    9.0701    0.3675   -4.1123 C   0  0  0  0  0  0  0  0  0  0  0  0
    9.6897    0.0037   -4.7329 H   0  0  0  0  0  0  0  0  0  0  0  0
    8.4536   -0.4333   -3.2132 C   0  0  0  0  0  0  0  0  0  0  0  0
    8.6531   -1.3621   -3.2208 H   0  0  0  0  0  0  0  0  0  0  0  0
    7.5674    0.0273   -2.3116 C   0  0  0  0  0  0  0  0  0  0  0  0
    7.1295   -0.5674   -1.7139 H   0  0  0  0  0  0  0  0  0  0  0  0
    7.3038    1.3932   -2.2732 C   0  0  0  0  0  0  0  0  0  0  0  0
    6.7065    1.7321   -1.6168 H   0  0  0  0  0  0  0  0  0  0  0  0
    5.7325    4.1025   -3.4494 C   0  0  0  0  0  0  0  0  0  0  0  0
    5.1144    3.0980   -4.1679 C   0  0  0  0  0  0  0  0  0  0  0  0
    5.6178    2.3505   -4.4699 H   0  0  0  0  0  0  0  0  0  0  0  0
    3.7502    3.1787   -4.4520 C   0  0  0  0  0  0  0  0  0  0  0  0
    3.3287    2.4709   -4.9271 H   0  0  0  0  0  0  0  0  0  0  0  0
    3.0130    4.2589   -4.0581 C   0  0  0  0  0  0  0  0  0  0  0  0
    2.0851    4.3049   -4.2579 H   0  0  0  0  0  0  0  0  0  0  0  0
    3.6236    5.2771   -3.3726 C   0  0  0  0  0  0  0  0  0  0  0  0
    3.1217    6.0432   -3.1187 H   0  0  0  0  0  0  0  0  0  0  0  0
    4.9774    5.1939   -3.0464 C   0  0  0  0  0  0  0  0  0  0  0  0
    5.3855    5.8892   -2.5440 H   0  0  0  0  0  0  0  0  0  0  0  0
    9.7076    3.9212   -0.1507 O   0  0  0  0  0  0  0  0  0  0  0  0
    9.4991    2.5827    0.4112 C   0  0  0  0  0  0  0  0  0  0  0  0
    8.5399    2.3579    0.3218 H   0  0  0  0  0  0  0  0  0  0  0  0
    9.7016    2.6224    1.3793 H   0  0  0  0  0  0  0  0  0  0  0  0
   10.9289    4.3732    0.4598 C   0  0  0  0  0  0  0  0  0  0  0  0
   11.3518    3.6840    1.0319 H   0  0  0  0  0  0  0  0  0  0  0  0
   10.8171    5.2163    0.9680 H   0  0  0  0  0  0  0  0  0  0  0  0
   10.2035    1.5906   -0.1124 C   0  0  0  0  0  0  0  0  0  0  0  0
    9.8580    1.3807   -1.0064 H   0  0  0  0  0  0  0  0  0  0  0  0
   11.1433    1.8575   -0.1813 H   0  0  0  0  0  0  0  0  0  0  0  0
   10.1291    0.7984    0.4598 H   0  0  0  0  0  0  0  0  0  0  0  0
   11.5842    4.5520   -0.7356 C   0  0  0  0  0  0  0  0  0  0  0  0
   11.0078    5.0461   -1.3537 H   0  0  0  0  0  0  0  0  0  0  0  0
   12.4108    5.0573   -0.5849 H   0  0  0  0  0  0  0  0  0  0  0  0
   11.8031    3.6778   -1.1213 H   0  0  0  0  0  0  0  0  0  0  0  0
  1  6  8  0  0  0  0
  2  4  1  0  0  0  0
  3  4  1  0  0  0  0
  4 26  1  0  0  0  0
  5  2  1  0  0  0  0
  6  3  1  0  0  0  0
  7  1  8  0  0  0  0
  8  7  1  0  0  0  0
  9  1  8  0  0  0  0
 10  9  1  0  0  0  0
 11  1  8  0  0  0  0
 12 11  1  0  0  0  0
 13  1  8  0  0  0  0
 14 13  1  0  0  0  0
 15  1  8  0  0  0  0
 16  5  1  0  0  0  0
 17  1  8  0  0  0  0
 18 17  1  0  0  0  0
 19  1  8  0  0  0  0
 20 19  1  0  0  0  0
 21  1  8  0  0  0  0
 22 21  1  0  0  0  0
 23  1  8  0  0  0  0
 24 23  1  0  0  0  0
 25  3  1  0  0  0  0
 26  5  1  0  0  0  0
 27 25  4  0  0  0  0
 28 27  1  0  0  0  0
 29 27  4  0  0  0  0
 30 29  1  0  0  0  0
 31 29  4  0  0  0  0
 32 31  1  0  0  0  0
 33 31  4  0  0  0  0
 34 33  1  0  0  0  0
 35 25  4  0  0  0  0
 36 35  1  0  0  0  0
 37  3  1  0  0  0  0
 38 37  4  0  0  0  0
 39 38  1  0  0  0  0
 40 38  4  0  0  0  0
 41 40  1  0  0  0  0
 42 40  4  0  0  0  0
 43 42  1  0  0  0  0
 44 42  4  0  0  0  0
 45 44  1  0  0  0  0
 46 37  4  0  0  0  0
 47 46  1  0  0  0  0
 48  4  1  0  0  0  0
 49 48  1  0  0  0  0
 50 49  1  0  0  0  0
 51 49  1  0  0  0  0
 52 48  1  0  0  0  0
 53 52  1  0  0  0  0
 54 52  1  0  0  0  0
 55 49  1  0  0  0  0
 56 55  1  0  0  0  0
 57 55  1  0  0  0  0
 58 55  1  0  0  0  0
 59 52  1  0  0  0  0
 60 59  1  0  0  0  0
 61 59  1  0  0  0  0
 62 59  1  0  0  0  0
 63 68  8  0  0  0  0
 64  4  1  0  0  0  0
 65 66  1  0  0  0  0
 66  2  1  0  0  0  0
 67 64  1  0  0  0  0
 68 65  1  0  0  0  0
 69 63  8  0  0  0  0
 70 69  1  0  0  0  0
 71 63  8  0  0  0  0
 72 71  1  0  0  0  0
 73 63  8  0  0  0  0
 74 73  1  0  0  0  0
 75 63  8  0  0  0  0
 76 75  1  0  0  0  0
 77 63  8  0  0  0  0
 78  4  1  0  0  0  0
 79 63  8  0  0  0  0
 80 79  1  0  0  0  0
 81 63  8  0  0  0  0
 82 81  1  0  0  0  0
 83 63  8  0  0  0  0
 84 83  1  0  0  0  0
 85 63  8  0  0  0  0
 86 85  1  0  0  0  0
 87 65  1  0  0  0  0
 88 66  1  0  0  0  0
 89 87  4  0  0  0  0
 90 89  1  0  0  0  0
 91 89  4  0  0  0  0
 92 91  1  0  0  0  0
 93 91  4  0  0  0  0
 94 93  1  0  0  0  0
 95 93  4  0  0  0  0
 96 95  1  0  0  0  0
 97 87  4  0  0  0  0
 98 97  1  0  0  0  0
 99 65  1  0  0  0  0
100 99  4  0  0  0  0
101100  1  0  0  0  0
102100  4  0  0  0  0
103102  1  0  0  0  0
104102  4  0  0  0  0
105104  1  0  0  0  0
106104  4  0  0  0  0
107106  1  0  0  0  0
108 99  4  0  0  0  0
109108  1  0  0  0  0
110 66  1  0  0  0  0
111110  1  0  0  0  0
112111  1  0  0  0  0
113111  1  0  0  0  0
114110  1  0  0  0  0
115114  1  0  0  0  0
116114  1  0  0  0  0
117111  1  0  0  0  0
118117  1  0  0  0  0
119117  1  0  0  0  0
120117  1  0  0  0  0
121114  1  0  0  0  0
122121  1  0  0  0  0
123121  1  0  0  0  0
124121  1  0  0  0  0
  5 15  1  0  0  0  0
  6  7  4  0  0  0  0
  6 13  4  0  0  0  0
  7  9  4  0  0  0  0
  9 11  4  0  0  0  0
 11 13  4  0  0  0  0
 15 17  4  0  0  0  0
 15 23  4  0  0  0  0
 16 66  1  0  0  0  0
 17 19  4  0  0  0  0
 19 21  4  0  0  0  0
 21 23  4  0  0  0  0
 33 35  4  0  0  0  0
 44 46  4  0  0  0  0
 64 66  1  0  0  0  0
 67 77  1  0  0  0  0
 67 78  1  0  0  0  0
 67 88  1  0  0  0  0
 68 69  4  0  0  0  0
 68 75  4  0  0  0  0
 69 71  4  0  0  0  0
 71 73  4  0  0  0  0
 73 75  4  0  0  0  0
 77 79  4  0  0  0  0
 77 85  4  0  0  0  0
 79 81  4  0  0  0  0
 81 83  4  0  0  0  0
 83 85  4  0  0  0  0
 95 97  4  0  0  0  0
106108  4  0  0  0  0
M  END
$$$$
PRHBOS

From CSD data. Using bond type 'Any'. Matching problem. Disorder unknown. Sizes unknown.
  0  0  0  0  0  0  0  0  0  0999 V2000
M  END
$$$$
PUCLUW

From CSD data. Using bond type 'Any'. No disordered atoms. Largest molecule.
135138  0  0  0  0  0  0  0  0999 V2000
    0.0000    0.0000    0.0000 Pt  0  0  0  0  0  0  0  0  0  0  0  0
   -1.6187   -1.5485   -0.5807 P   0  0  0  0  0  0  0  0  0  0  0  0
   -1.3118   -3.2798    0.0033 C   0  0  0  0  0  0  0  0  0  0  0  0
   -0.4476   -3.5832   -0.3723 H   0  0  0  0  0  0  0  0  0  0  0  0
   -1.2143   -3.2593    0.9878 H   0  0  0  0  0  0  0  0  0  0  0  0
   -2.3806   -4.3289   -0.3503 C   0  0  0  0  0  0  0  0  0  0  0  0
   -2.1095   -5.2031    0.0011 H   0  0  0  0  0  0  0  0  0  0  0  0
   -2.4762   -4.3842   -1.3237 H   0  0  0  0  0  0  0  0  0  0  0  0
   -3.2377   -4.0697    0.0486 H   0  0  0  0  0  0  0  0  0  0  0  0
   -1.8762   -1.7121   -2.4009 C   0  0  0  0  0  0  0  0  0  0  0  0
   -2.7082   -2.2250   -2.5611 H   0  0  0  0  0  0  0  0  0  0  0  0
   -2.0008   -0.8095   -2.7887 H   0  0  0  0  0  0  0  0  0  0  0  0
   -0.7160   -2.4074   -3.1235 C   0  0  0  0  0  0  0  0  0  0  0  0
   -0.9174   -2.4701   -4.0804 H   0  0  0  0  0  0  0  0  0  0  0  0
   -0.5945   -3.3075   -2.7556 H   0  0  0  0  0  0  0  0  0  0  0  0
    0.1056   -1.8883   -2.9965 H   0  0  0  0  0  0  0  0  0  0  0  0
   -3.3109   -1.1610    0.0099 C   0  0  0  0  0  0  0  0  0  0  0  0
   -3.4908   -0.2014   -0.1503 H   0  0  0  0  0  0  0  0  0  0  0  0
   -3.9593   -1.6810   -0.5281 H   0  0  0  0  0  0  0  0  0  0  0  0
   -3.5550   -1.4629    1.4971 C   0  0  0  0  0  0  0  0  0  0  0  0
   -4.4780   -1.2299    1.7314 H   0  0  0  0  0  0  0  0  0  0  0  0
   -2.9369   -0.9350    2.0441 H   0  0  0  0  0  0  0  0  0  0  0  0
   -3.4069   -2.4171    1.6662 H   0  0  0  0  0  0  0  0  0  0  0  0
   -1.1180    1.4902   -0.9157 C   0  0  0  0  0  0  0  0  0  0  0  0
   -2.0359    2.4590   -0.5490 C   0  0  0  0  0  0  0  0  0  0  0  0
   -1.5089    2.5568   -1.9291 B   0  0  0  0  0  0  0  0  0  0  0  0
   -1.3678    3.2801   -3.1878 N   0  0  0  0  0  0  0  0  0  0  0  0
   -0.1001    2.8353   -4.3126 Si  0  0  0  0  0  0  0  0  0  0  0  0
   -0.6104    2.9918   -6.1211 C   0  0  0  0  0  0  0  0  0  0  0  0
   -1.4742    2.5483   -6.2559 H   0  0  0  0  0  0  0  0  0  0  0  0
    0.0668    2.5678   -6.6890 H   0  0  0  0  0  0  0  0  0  0  0  0
   -0.6883    3.9391   -6.3576 H   0  0  0  0  0  0  0  0  0  0  0  0
    1.3807    3.9769   -4.0859 C   0  0  0  0  0  0  0  0  0  0  0  0
    1.1170    4.8979   -4.2881 H   0  0  0  0  0  0  0  0  0  0  0  0
    2.1005    3.7023   -4.6914 H   0  0  0  0  0  0  0  0  0  0  0  0
    1.6958    3.9227   -3.1589 H   0  0  0  0  0  0  0  0  0  0  0  0
    0.3849    1.0394   -4.0130 C   0  0  0  0  0  0  0  0  0  0  0  0
    0.5266    0.8961   -3.0550 H   0  0  0  0  0  0  0  0  0  0  0  0
    1.2126    0.8398   -4.4991 H   0  0  0  0  0  0  0  0  0  0  0  0
   -0.3307    0.4511   -4.3312 H   0  0  0  0  0  0  0  0  0  0  0  0
   -2.1886    4.8506   -3.1439 Si  0  0  0  0  0  0  0  0  0  0  0  0
   -4.0143    4.6087   -2.8186 C   0  0  0  0  0  0  0  0  0  0  0  0
   -4.4447    4.2533   -3.6240 H   0  0  0  0  0  0  0  0  0  0  0  0
   -4.4207    5.4695   -2.5843 H   0  0  0  0  0  0  0  0  0  0  0  0
   -4.1337    3.9788   -2.0783 H   0  0  0  0  0  0  0  0  0  0  0  0
   -2.0445    5.7870   -4.7753 C   0  0  0  0  0  0  0  0  0  0  0  0
   -1.0985    5.9320   -4.9864 H   0  0  0  0  0  0  0  0  0  0  0  0
   -2.4982    6.6516   -4.6969 H   0  0  0  0  0  0  0  0  0  0  0  0
   -2.4618    5.2629   -5.4913 H   0  0  0  0  0  0  0  0  0  0  0  0
   -1.3883    5.9095   -1.8187 C   0  0  0  0  0  0  0  0  0  0  0  0
   -1.3940    5.4269   -0.9668 H   0  0  0  0  0  0  0  0  0  0  0  0
   -1.8887    6.7474   -1.7236 H   0  0  0  0  0  0  0  0  0  0  0  0
   -0.4640    6.1099   -2.0750 H   0  0  0  0  0  0  0  0  0  0  0  0
   -2.7064    2.7828    0.7253 C   0  0  0  0  0  0  0  0  0  0  0  0
   -2.6013    1.8780    1.8142 C   0  0  0  0  0  0  0  0  0  0  0  0
   -2.1066    1.0743    1.7026 H   0  0  0  0  0  0  0  0  0  0  0  0
   -3.2026    2.1349    3.0385 C   0  0  0  0  0  0  0  0  0  0  0  0
   -3.1377    1.5030    3.7445 H   0  0  0  0  0  0  0  0  0  0  0  0
   -3.9073    3.3331    3.2263 C   0  0  0  0  0  0  0  0  0  0  0  0
   -4.0107    4.2585    2.1777 C   0  0  0  0  0  0  0  0  0  0  0  0
   -4.4775    5.0764    2.3059 H   0  0  0  0  0  0  0  0  0  0  0  0
   -3.4208    3.9718    0.9381 C   0  0  0  0  0  0  0  0  0  0  0  0
   -3.5067    4.5965    0.2265 H   0  0  0  0  0  0  0  0  0  0  0  0
   -4.4559    3.4866    4.4826 O   0  0  0  0  0  0  0  0  0  0  0  0
   -5.1833    4.6960    4.7389 C   0  0  0  0  0  0  0  0  0  0  0  0
   -4.5962    5.4668    4.5897 H   0  0  0  0  0  0  0  0  0  0  0  0
   -5.4960    4.6993    5.6670 H   0  0  0  0  0  0  0  0  0  0  0  0
   -5.9524    4.7485    4.1345 H   0  0  0  0  0  0  0  0  0  0  0  0
    1.6187    1.5485    0.5807 P   0  0  0  0  0  0  0  0  0  0  0  0
    1.3118    3.2798   -0.0033 C   0  0  0  0  0  0  0  0  0  0  0  0
    0.4476    3.5832    0.3723 H   0  0  0  0  0  0  0  0  0  0  0  0
    1.2143    3.2593   -0.9878 H   0  0  0  0  0  0  0  0  0  0  0  0
    2.3806    4.3289    0.3503 C   0  0  0  0  0  0  0  0  0  0  0  0
    2.1095    5.2031   -0.0011 H   0  0  0  0  0  0  0  0  0  0  0  0
    2.4762    4.3842    1.3237 H   0  0  0  0  0  0  0  0  0  0  0  0
    3.2377    4.0697   -0.0486 H   0  0  0  0  0  0  0  0  0  0  0  0
    1.8762    1.7121    2.4009 C   0  0  0  0  0  0  0  0  0  0  0  0
    2.7082    2.2250    2.5611 H   0  0  0  0  0  0  0  0  0  0  0  0
    2.0008    0.8095    2.7887 H   0  0  0  0  0  0  0  0  0  0  0  0
    0.7160    2.4074    3.1235 C   0  0  0  0  0  0  0  0  0  0  0  0
    0.9174    2.4701    4.0804 H   0  0  0  0  0  0  0  0  0  0  0  0
    0.5945    3.3075    2.7556 H   0  0  0  0  0  0  0  0  0  0  0  0
   -0.1056    1.8883    2.9965 H   0  0  0  0  0  0  0  0  0  0  0  0
    3.3109    1.1610   -0.0099 C   0  0  0  0  0  0  0  0  0  0  0  0
    3.4908    0.2014    0.1503 H   0  0  0  0  0  0  0  0  0  0  0  0
    3.9593    1.6810    0.5281 H   0  0  0  0  0  0  0  0  0  0  0  0
    3.5550    1.4629   -1.4971 C   0  0  0  0  0  0  0  0  0  0  0  0
    4.4780    1.2299   -1.7314 H   0  0  0  0  0  0  0  0  0  0  0  0
    2.9369    0.9350   -2.0441 H   0  0  0  0  0  0  0  0  0  0  0  0
    3.4069    2.4171   -1.6662 H   0  0  0  0  0  0  0  0  0  0  0  0
    1.1180   -1.4902    0.9157 C   0  0  0  0  0  0  0  0  0  0  0  0
    2.0359   -2.4590    0.5490 C   0  0  0  0  0  0  0  0  0  0  0  0
    1.5089   -2.5568    1.9291 B   0  0  0  0  0  0  0  0  0  0  0  0
    1.3678   -3.2801    3.1878 N   0  0  0  0  0  0  0  0  0  0  0  0
    0.1001   -2.8353    4.3126 Si  0  0  0  0  0  0  0  0  0  0  0  0
    0.6104   -2.9918    6.1211 C   0  0  0  0  0  0  0  0  0  0  0  0
    1.4742   -2.5483    6.2559 H   0  0  0  0  0  0  0  0  0  0  0  0
   -0.0668   -2.5678    6.6890 H   0  0  0  0  0  0  0  0  0  0  0  0
    0.6883   -3.9391    6.3576 H   0  0  0  0  0  0  0  0  0  0  0  0
   -1.3807   -3.9769    4.0859 C   0  0  0  0  0  0  0  0  0  0  0  0
   -1.1170   -4.8979    4.2881 H   0  0  0  0  0  0  0  0  0  0  0  0
   -2.1005   -3.7023    4.6914 H   0  0  0  0  0  0  0  0  0  0  0  0
   -1.6958   -3.9227    3.1589 H   0  0  0  0  0  0  0  0  0  0  0  0
   -0.3849   -1.0394    4.0130 C   0  0  0  0  0  0  0  0  0  0  0  0
   -0.5266   -0.8961    3.0550 H   0  0  0  0  0  0  0  0  0  0  0  0
   -1.2126   -0.8398    4.4991 H   0  0  0  0  0  0  0  0  0  0  0  0
    0.3307   -0.4511    4.3312 H   0  0  0  0  0  0  0  0  0  0  0  0
    2.1886   -4.8506    3.1439 Si  0  0  0  0  0  0  0  0  0  0  0  0
    4.0143   -4.6087    2.8186 C   0  0  0  0  0  0  0  0  0  0  0  0
    4.4447   -4.2533    3.6240 H   0  0  0  0  0  0  0  0  0  0  0  0
    4.4207   -5.4695    2.5843 H   0  0  0  0  0  0  0  0  0  0  0  0
    4.1337   -3.9788    2.0783 H   0  0  0  0  0  0  0  0  0  0  0  0
    2.0445   -5.7870    4.7753 C   0  0  0  0  0  0  0  0  0  0  0  0
    1.0985   -5.9320    4.9864 H   0  0  0  0  0  0  0  0  0  0  0  0
    2.4982   -6.6516    4.6969 H   0  0  0  0  0  0  0  0  0  0  0  0
    2.4618   -5.2629    5.4913 H   0  0  0  0  0  0  0  0  0  0  0  0
    1.3883   -5.9095    1.8187 C   0  0  0  0  0  0  0  0  0  0  0  0
    1.3940   -5.4269    0.9668 H   0  0  0  0  0  0  0  0  0  0  0  0
    1.8887   -6.7474    1.7236 H   0  0  0  0  0  0  0  0  0  0  0  0
    0.4640   -6.1099    2.0750 H   0  0  0  0  0  0  0  0  0  0  0  0
    2.7064   -2.7828   -0.7253 C   0  0  0  0  0  0  0  0  0  0  0  0
    2.6013   -1.8780   -1.8142 C   0  0  0  0  0  0  0  0  0  0  0  0
    2.1066   -1.0743   -1.7026 H   0  0  0  0  0  0  0  0  0  0  0  0
    3.2026   -2.1349   -3.0385 C   0  0  0  0  0  0  0  0  0  0  0  0
    3.1377   -1.5030   -3.7445 H   0  0  0  0  0  0  0  0  0  0  0  0
    3.9073   -3.3331   -3.2263 C   0  0  0  0  0  0  0  0  0  0  0  0
    4.0107   -4.2585   -2.1777 C   0  0  0  0  0  0  0  0  0  0  0  0
    4.4775   -5.0764   -2.3059 H   0  0  0  0  0  0  0  0  0  0  0  0
    3.4208   -3.9718   -0.9381 C   0  0  0  0  0  0  0  0  0  0  0  0
    3.5067   -4.5965   -0.2265 H   0  0  0  0  0  0  0  0  0  0  0  0
    4.4559   -3.4866   -4.4826 O   0  0  0  0  0  0  0  0  0  0  0  0
    5.1833   -4.6960   -4.7389 C   0  0  0  0  0  0  0  0  0  0  0  0
    4.5962   -5.4668   -4.5897 H   0  0  0  0  0  0  0  0  0  0  0  0
    5.4960   -4.6993   -5.6670 H   0  0  0  0  0  0  0  0  0  0  0  0
    5.9524   -4.7485   -4.1345 H   0  0  0  0  0  0  0  0  0  0  0  0
  1  2  1  0  0  0  0
  2  3  1  0  0  0  0
  3  4  1  0  0  0  0
  5  3  1  0  0  0  0
  6  3  1  0  0  0  0
  7  6  1  0  0  0  0
  8  6  1  0  0  0  0
  9  6  1  0  0  0  0
 10  2  1  0  0  0  0
 11 10  1  0  0  0  0
 12 10  1  0  0  0  0
 13 10  1  0  0  0  0
 14 13  1  0  0  0  0
 15 13  1  0  0  0  0
 16 13  1  0  0  0  0
 17  2  1  0  0  0  0
 18 17  1  0  0  0  0
 19 17  1  0  0  0  0
 20 17  1  0  0  0  0
 21 20  1  0  0  0  0
 22 20  1  0  0  0  0
 23 20  1  0  0  0  0
 24  1  1  0  0  0  0
 25 24  2  0  0  0  0
 26 24  1  0  0  0  0
 27 26  1  0  0  0  0
 28 27  1  0  0  0  0
 29 28  1  0  0  0  0
 30 29  1  0  0  0  0
 31 29  1  0  0  0  0
 32 29  1  0  0  0  0
 33 28  1  0  0  0  0
 34 33  1  0  0  0  0
 35 33  1  0  0  0  0
 36 33  1  0  0  0  0
 37 28  1  0  0  0  0
 38 37  1  0  0  0  0
 39 37  1  0  0  0  0
 40 37  1  0  0  0  0
 41 27  1  0  0  0  0
 42 41  1  0  0  0  0
 43 42  1  0  0  0  0
 44 42  1  0  0  0  0
 45 42  1  0  0  0  0
 46 41  1  0  0  0  0
 47 46  1  0  0  0  0
 48 46  1  0  0  0  0
 49 46  1  0  0  0  0
 50 41  1  0  0  0  0
 51 50  1  0  0  0  0
 52 50  1  0  0  0  0
 53 50  1  0  0  0  0
 54 25  1  0  0  0  0
 55 54  4  0  0  0  0
 56 55  1  0  0  0  0
 57 55  4  0  0  0  0
 58 57  1  0  0  0  0
 59 57  4  0  0  0  0
 60 59  4  0  0  0  0
 61 60  1  0  0  0  0
 62 54  4  0  0  0  0
 63 62  1  0  0  0  0
 64 59  1  0  0  0  0
 65 64  1  0  0  0  0
 66 65  1  0  0  0  0
 67 65  1  0  0  0  0
 68 65  1  0  0  0  0
 69  1  1  0  0  0  0
 70 69  1  0  0  0  0
 71 70  1  0  0  0  0
 72 70  1  0  0  0  0
 73 70  1  0  0  0  0
 74 73  1  0  0  0  0
 75 73  1  0  0  0  0
 76 73  1  0  0  0  0
 77 69  1  0  0  0  0
 78 77  1  0  0  0  0
 79 77  1  0  0  0  0
 80 77  1  0  0  0  0
 81 80  1  0  0  0  0
 82 80  1  0  0  0  0
 83 80  1  0  0  0  0
 84 69  1  0  0  0  0
 85 84  1  0  0  0  0
 86 84  1  0  0  0  0
 87 84  1  0  0  0  0
 88 87  1  0  0  0  0
 89 87  1  0  0  0  0
 90 87  1  0  0  0  0
 91  1  1  0  0  0  0
 92 91  2  0  0  0  0
 93 91  1  0  0  0  0
 94 93  1  0  0  0  0
 95 94  1  0  0  0  0
 96 95  1  0  0  0  0
 97 96  1  0  0  0  0
 98 96  1  0  0  0  0
 99 96  1  0  0  0  0
100 95  1  0  0  0  0
101100  1  0  0  0  0
102100  1  0  0  0  0
103100  1  0  0  0  0
104 95  1  0  0  0  0
105104  1  0  0  0  0
106104  1  0  0  0  0
107104  1  0  0  0  0
108 94  1  0  0  0  0
109108  1  0  0  0  0
110109  1  0  0  0  0
111109  1  0  0  0  0
112109  1  0  0  0  0
113108  1  0  0  0  0
114113  1  0  0  0  0
115113  1  0  0  0  0
116113  1  0  0  0  0
117108  1  0  0  0  0
118117  1  0  0  0  0
119117  1  0  0  0  0
120117  1  0  0  0  0
121 92  1  0  0  0  0
122121  4  0  0  0  0
123122  1  0  0  0  0
124122  4  0  0  0  0
125124  1  0  0  0  0
126124  4  0  0  0  0
127126  4  0  0  0  0
128127  1  0  0  0  0
129121  4  0  0  0  0
130129  1  0  0  0  0
131126  1  0  0  0  0
132131  1  0  0  0  0
133132  1  0  0  0  0
134132  1  0  0  0  0
135132  1  0  0  0  0
 25 26  1  0  0  0  0
 60 62  4  0  0  0  0
 92 93  1  0  0  0  0
127129  4  0  0  0  0
M  END
$$$$
PUGMOT

From CSD data. Using bond type 'Any'. No disordered atoms. Largest molecule.
 95120  0  0  0  0  0  0  0  0999 V2000
   -0.4450  -10.1443   -9.0054 Rh  0  0  0  0  0  0  0  0  0  0  0  0
    0.0691   -7.7362  -10.2103 Rh  0  0  0  0  0  0  0  0  0  0  0  0
   -2.0556   -8.3092   -9.1725 S   0  0  0  0  0  0  0  0  0  0  0  0
   -1.9573  -11.8442   -9.7461 P   0  0  0  0  0  0  0  0  0  0  0  0
   -0.8188   -7.0928  -12.3146 P   0  0  0  0  0  0  0  0  0  0  0  0
    0.5585   -9.6684  -10.7549 C   0  0  0  0  0  0  0  0  0  0  0  0
    1.3416  -10.1785  -11.4708 O   0  0  0  0  0  0  0  0  0  0  0  0
    0.7551  -11.4502   -8.5185 C   0  0  0  0  0  0  0  0  0  0  0  0
    1.5090  -12.2382   -8.1946 O   0  0  0  0  0  0  0  0  0  0  0  0
    1.6678   -7.0205  -10.7322 C   0  0  0  0  0  0  0  0  0  0  0  0
    2.7005   -6.6226  -11.0603 O   0  0  0  0  0  0  0  0  0  0  0  0
   -1.1904   -6.4951   -8.6918 B   0  0  0  0  0  0  0  0  0  0  0  0
   -2.1863   -7.4069   -7.4127 B   0  0  0  0  0  0  0  0  0  0  0  0
   -1.7640   -9.2420   -7.3199 B   0  0  0  0  0  0  0  0  0  0  0  0
    0.9916   -8.5167   -8.2400 B   0  0  0  0  0  0  0  0  0  0  0  0
    0.5109   -6.7083   -8.2318 B   0  0  0  0  0  0  0  0  0  0  0  0
   -0.7389   -6.5103   -7.0187 B   0  0  0  0  0  0  0  0  0  0  0  0
   -1.0500   -8.0675   -6.2512 B   0  0  0  0  0  0  0  0  0  0  0  0
   -0.0270   -9.3238   -6.9465 B   0  0  0  0  0  0  0  0  0  0  0  0
    0.5801   -7.7020   -6.7463 B   0  0  0  0  0  0  0  0  0  0  0  0
   -0.4926  -12.7046  -11.9165 C   0  0  0  0  0  0  0  0  0  0  0  0
   -0.2949  -13.1615  -13.2142 C   0  0  0  0  0  0  0  0  0  0  0  0
   -1.3859  -13.3766  -14.0497 C   0  0  0  0  0  0  0  0  0  0  0  0
   -2.6735  -13.1348  -13.5855 C   0  0  0  0  0  0  0  0  0  0  0  0
   -2.8712  -12.6780  -12.2878 C   0  0  0  0  0  0  0  0  0  0  0  0
   -1.7802  -12.4629  -11.4523 C   0  0  0  0  0  0  0  0  0  0  0  0
   -1.8849  -14.6120   -9.2674 C   0  0  0  0  0  0  0  0  0  0  0  0
   -1.7532  -15.7390   -8.4628 C   0  0  0  0  0  0  0  0  0  0  0  0
   -1.5263  -15.5962   -7.0991 C   0  0  0  0  0  0  0  0  0  0  0  0
   -1.4313  -14.3284   -6.5380 C   0  0  0  0  0  0  0  0  0  0  0  0
   -1.5630  -13.2015   -7.3426 C   0  0  0  0  0  0  0  0  0  0  0  0
   -1.7888  -13.3442   -8.7063 C   0  0  0  0  0  0  0  0  0  0  0  0
   -4.2311  -10.3822  -10.4063 C   0  0  0  0  0  0  0  0  0  0  0  0
   -5.5598   -9.9977  -10.2680 C   0  0  0  0  0  0  0  0  0  0  0  0
   -6.3645  -10.6126   -9.3128 C   0  0  0  0  0  0  0  0  0  0  0  0
   -5.8396  -11.6101   -8.5000 C   0  0  0  0  0  0  0  0  0  0  0  0
   -4.5109  -11.9927   -8.6382 C   0  0  0  0  0  0  0  0  0  0  0  0
   -3.7072  -11.3797   -9.5934 C   0  0  0  0  0  0  0  0  0  0  0  0
   -3.0364   -8.3225  -13.6041 C   0  0  0  0  0  0  0  0  0  0  0  0
   -4.3964   -8.4215  -13.8702 C   0  0  0  0  0  0  0  0  0  0  0  0
   -5.2984   -7.6144  -13.1853 C   0  0  0  0  0  0  0  0  0  0  0  0
   -4.8404   -6.7083  -12.2362 C   0  0  0  0  0  0  0  0  0  0  0  0
   -3.4793   -6.6093  -11.9701 C   0  0  0  0  0  0  0  0  0  0  0  0
   -2.5774   -7.4164  -12.6530 C   0  0  0  0  0  0  0  0  0  0  0  0
    0.0216   -9.1411  -14.0043 C   0  0  0  0  0  0  0  0  0  0  0  0
    0.8814   -9.7236  -14.9265 C   0  0  0  0  0  0  0  0  0  0  0  0
    1.8806   -8.9641  -15.5228 C   0  0  0  0  0  0  0  0  0  0  0  0
    2.0189   -7.6201  -15.1968 C   0  0  0  0  0  0  0  0  0  0  0  0
    1.1591   -7.0376  -14.2725 C   0  0  0  0  0  0  0  0  0  0  0  0
    0.1609   -7.7971  -13.6763 C   0  0  0  0  0  0  0  0  0  0  0  0
   -0.2258   -4.4259  -11.6813 C   0  0  0  0  0  0  0  0  0  0  0  0
   -0.2333   -3.0553  -11.9206 C   0  0  0  0  0  0  0  0  0  0  0  0
   -0.7723   -2.5584  -13.1007 C   0  0  0  0  0  0  0  0  0  0  0  0
   -1.3027   -3.4303  -14.0435 C   0  0  0  0  0  0  0  0  0  0  0  0
   -1.2952   -4.7990  -13.8063 C   0  0  0  0  0  0  0  0  0  0  0  0
   -0.7572   -5.2977  -12.6262 C   0  0  0  0  0  0  0  0  0  0  0  0
   -1.5576   -5.5699   -9.1602 H   0  0  0  0  0  0  0  0  0  0  0  0
   -3.1920   -7.0585   -7.1363 H   0  0  0  0  0  0  0  0  0  0  0  0
   -2.4801   -9.9882   -6.9423 H   0  0  0  0  0  0  0  0  0  0  0  0
    1.8990   -8.9488   -8.7248 H   0  0  0  0  0  0  0  0  0  0  0  0
    1.2379   -5.9031   -8.4113 H   0  0  0  0  0  0  0  0  0  0  0  0
   -0.8177   -5.5699   -6.4534 H   0  0  0  0  0  0  0  0  0  0  0  0
   -1.3319   -8.1017   -5.1866 H   0  0  0  0  0  0  0  0  0  0  0  0
    0.3629  -10.1481   -6.3296 H   0  0  0  0  0  0  0  0  0  0  0  0
    1.3827   -7.5325   -6.0139 H   0  0  0  0  0  0  0  0  0  0  0  0
    0.2376  -12.5600  -11.3574 H   0  0  0  0  0  0  0  0  0  0  0  0
    0.5671  -13.3214  -13.5236 H   0  0  0  0  0  0  0  0  0  0  0  0
   -1.2530  -13.6812  -14.9183 H   0  0  0  0  0  0  0  0  0  0  0  0
   -3.4026  -13.2795  -14.1446 H   0  0  0  0  0  0  0  0  0  0  0  0
   -3.7332  -12.5181  -11.9784 H   0  0  0  0  0  0  0  0  0  0  0  0
   -2.0362  -14.7072  -10.1793 H   0  0  0  0  0  0  0  0  0  0  0  0
   -1.8169  -16.5880   -8.8383 H   0  0  0  0  0  0  0  0  0  0  0  0
   -1.4388  -16.3500   -6.5607 H   0  0  0  0  0  0  0  0  0  0  0  0
   -1.2800  -14.2332   -5.6261 H   0  0  0  0  0  0  0  0  0  0  0  0
   -1.4993  -12.3525   -6.9671 H   0  0  0  0  0  0  0  0  0  0  0  0
   -3.6932   -9.9730  -11.0438 H   0  0  0  0  0  0  0  0  0  0  0  0
   -5.9109   -9.3314  -10.8106 H   0  0  0  0  0  0  0  0  0  0  0  0
   -7.2535  -10.3556   -9.2200 H   0  0  0  0  0  0  0  0  0  0  0  0
   -6.3786  -12.0193   -7.8625 H   0  0  0  0  0  0  0  0  0  0  0  0
   -4.1609  -12.6608   -8.0956 H   0  0  0  0  0  0  0  0  0  0  0  0
   -2.4326   -8.8632  -14.0600 H   0  0  0  0  0  0  0  0  0  0  0  0
   -4.7043   -9.0269  -14.5036 H   0  0  0  0  0  0  0  0  0  0  0  0
   -6.2090   -7.6810  -13.3648 H   0  0  0  0  0  0  0  0  0  0  0  0
   -5.4431   -6.1677  -11.7803 H   0  0  0  0  0  0  0  0  0  0  0  0
   -3.1725   -6.0040  -11.3347 H   0  0  0  0  0  0  0  0  0  0  0  0
   -0.6460   -9.6513  -13.6041 H   0  0  0  0  0  0  0  0  0  0  0  0
    0.7896  -10.6240  -15.1452 H   0  0  0  0  0  0  0  0  0  0  0  0
    2.4564   -9.3524  -16.1417 H   0  0  0  0  0  0  0  0  0  0  0  0
    2.6875   -7.1099  -15.5950 H   0  0  0  0  0  0  0  0  0  0  0  0
    1.2520   -6.1372  -14.0538 H   0  0  0  0  0  0  0  0  0  0  0  0
    0.1339   -4.7590  -10.8911 H   0  0  0  0  0  0  0  0  0  0  0  0
    0.1210   -2.4728  -11.2893 H   0  0  0  0  0  0  0  0  0  0  0  0
   -0.7767   -1.6409  -13.2595 H   0  0  0  0  0  0  0  0  0  0  0  0
   -1.6635   -3.0972  -14.8337 H   0  0  0  0  0  0  0  0  0  0  0  0
   -1.6505   -5.3834  -14.4376 H   0  0  0  0  0  0  0  0  0  0  0  0
  1  2  1  0  0  0  0
  2  3  1  0  0  0  0
  3  1  1  0  0  0  0
  4  1  1  0  0  0  0
  5  2  1  0  0  0  0
  6  1  1  0  0  0  0
  7  6  2  0  0  0  0
  8  1  1  0  0  0  0
  9  8  3  0  0  0  0
 10  2  1  0  0  0  0
 11 10  3  0  0  0  0
 12  2  1  0  0  0  0
 13  3  1  0  0  0  0
 14  1  1  0  0  0  0
 15  1  1  0  0  0  0
 16  2  1  0  0  0  0
 17 12  1  0  0  0  0
 18 13  1  0  0  0  0
 19  1  1  0  0  0  0
 20 15  1  0  0  0  0
 21 22  4  0  0  0  0
 22 23  4  0  0  0  0
 23 24  4  0  0  0  0
 24 25  4  0  0  0  0
 25 26  4  0  0  0  0
 26  4  1  0  0  0  0
 27 28  4  0  0  0  0
 28 29  4  0  0  0  0
 29 30  4  0  0  0  0
 30 31  4  0  0  0  0
 31 32  4  0  0  0  0
 32  4  1  0  0  0  0
 33 34  4  0  0  0  0
 34 35  4  0  0  0  0
 35 36  4  0  0  0  0
 36 37  4  0  0  0  0
 37 38  4  0  0  0  0
 38  4  1  0  0  0  0
 39 40  4  0  0  0  0
 40 41  4  0  0  0  0
 41 42  4  0  0  0  0
 42 43  4  0  0  0  0
 43 44  4  0  0  0  0
 44  5  1  0  0  0  0
 45 46  4  0  0  0  0
 46 47  4  0  0  0  0
 47 48  4  0  0  0  0
 48 49  4  0  0  0  0
 49 50  4  0  0  0  0
 50  5  1  0  0  0  0
 51 52  4  0  0  0  0
 52 53  4  0  0  0  0
 53 54  4  0  0  0  0
 54 55  4  0  0  0  0
 55 56  4  0  0  0  0
 56  5  1  0  0  0  0
 57 12  1  0  0  0  0
 58 13  1  0  0  0  0
 59 14  1  0  0  0  0
 60 15  1  0  0  0  0
 61 16  1  0  0  0  0
 62 17  1  0  0  0  0
 63 18  1  0  0  0  0
 64 19  1  0  0  0  0
 65 20  1  0  0  0  0
 66 21  1  0  0  0  0
 67 22  1  0  0  0  0
 68 23  1  0  0  0  0
 69 24  1  0  0  0  0
 70 25  1  0  0  0  0
 71 27  1  0  0  0  0
 72 28  1  0  0  0  0
 73 29  1  0  0  0  0
 74 30  1  0  0  0  0
 75 31  1  0  0  0  0
 76 33  1  0  0  0  0
 77 34  1  0  0  0  0
 78 35  1  0  0  0  0
 79 36  1  0  0  0  0
 80 37  1  0  0  0  0
 81 39  1  0  0  0  0
 82 40  1  0  0  0  0
 83 41  1  0  0  0  0
 84 42  1  0  0  0  0
 85 43  1  0  0  0  0
 86 45  1  0  0  0  0
 87 46  1  0  0  0  0
 88 47  1  0  0  0  0
 89 48  1  0  0  0  0
 90 49  1  0  0  0  0
 91 51  1  0  0  0  0
 92 52  1  0  0  0  0
 93 53  1  0  0  0  0
 94 54  1  0  0  0  0
 95 55  1  0  0  0  0
  2  6  1  0  0  0  0
  2 15  1  0  0  0  0
  3 12  1  0  0  0  0
  3 14  1  0  0  0  0
 12 13  1  0  0  0  0
 12 16  1  0  0  0  0
 13 14  1  0  0  0  0
 13 17  1  0  0  0  0
 14 18  1  0  0  0  0
 14 19  1  0  0  0  0
 15 16  1  0  0  0  0
 15 19  1  0  0  0  0
 16 17  1  0  0  0  0
 16 20  1  0  0  0  0
 17 18  1  0  0  0  0
 17 20  1  0  0  0  0
 18 19  1  0  0  0  0
 18 20  1  0  0  0  0
 19 20  1  0  0  0  0
 21 26  4  0  0  0  0
 27 32  4  0  0  0  0
 33 38  4  0  0  0  0
 39 44  4  0  0  0  0
 45 50  4  0  0  0  0
 51 56  4  0  0  0  0
M  END
$$$$
PUGMUZ

From CSD data. Using bond type 'Any'. No disordered atoms. Largest molecule.
 95120  0  0  0  0  0  0  0  0999 V2000
    0.1843    4.1186    2.2079 S   0  0  0  0  0  0  0  0  0  0  0  0
    0.8668    2.6176    3.9764 Rh  0  0  0  0  0  0  0  0  0  0  0  0
    1.2266    5.3407    4.0601 Rh  0  0  0  0  0  0  0  0  0  0  0  0
    1.6668    5.4979    1.7715 B   0  0  0  0  0  0  0  0  0  0  0  0
    1.4957    3.9763    0.7086 B   0  0  0  0  0  0  0  0  0  0  0  0
    1.2977    2.3960    1.7153 B   0  0  0  0  0  0  0  0  0  0  0  0
    2.8787    3.7392    3.8822 B   0  0  0  0  0  0  0  0  0  0  0  0
    3.1087    5.2297    2.8040 B   0  0  0  0  0  0  0  0  0  0  0  0
    3.0512    4.6595    1.1298 B   0  0  0  0  0  0  0  0  0  0  0  0
    2.8438    2.9114    1.0994 B   0  0  0  0  0  0  0  0  0  0  0  0
    2.7372    2.2823    2.7478 B   0  0  0  0  0  0  0  0  0  0  0  0
    3.7923    3.6502    2.3676 B   0  0  0  0  0  0  0  0  0  0  0  0
    3.9097    3.5864    5.3967 Cl  0  0  0  0  0  0  0  0  0  0  0  0
   -1.0953    1.2782    3.9171 P   0  0  0  0  0  0  0  0  0  0  0  0
   -0.4086    7.0557    4.2121 P   0  0  0  0  0  0  0  0  0  0  0  0
    0.3309    4.0263    5.4545 C   0  0  0  0  0  0  0  0  0  0  0  0
   -0.0682    4.0507    6.5280 O   0  0  0  0  0  0  0  0  0  0  0  0
    1.5927    1.3773    5.1534 C   0  0  0  0  0  0  0  0  0  0  0  0
    2.0649    0.6197    5.8559 O   0  0  0  0  0  0  0  0  0  0  0  0
    2.3060    6.3375    5.1838 C   0  0  0  0  0  0  0  0  0  0  0  0
    3.0120    6.9434    5.8362 O   0  0  0  0  0  0  0  0  0  0  0  0
   -1.7015    1.3222    6.5965 C   0  0  0  0  0  0  0  0  0  0  0  0
   -2.5305    1.2961    7.7111 C   0  0  0  0  0  0  0  0  0  0  0  0
   -3.9098    1.3587    7.5529 C   0  0  0  0  0  0  0  0  0  0  0  0
   -4.4612    1.4473    6.2802 C   0  0  0  0  0  0  0  0  0  0  0  0
   -3.6314    1.4728    5.1640 C   0  0  0  0  0  0  0  0  0  0  0  0
   -2.2521    1.4102    5.3222 C   0  0  0  0  0  0  0  0  0  0  0  0
   -2.7896    2.6962    2.2566 C   0  0  0  0  0  0  0  0  0  0  0  0
   -3.5588    2.9200    1.1207 C   0  0  0  0  0  0  0  0  0  0  0  0
   -3.6408    1.9444    0.1338 C   0  0  0  0  0  0  0  0  0  0  0  0
   -2.9547    0.7450    0.2828 C   0  0  0  0  0  0  0  0  0  0  0  0
   -2.1855    0.5212    1.4187 C   0  0  0  0  0  0  0  0  0  0  0  0
   -2.1035    1.4968    2.4056 C   0  0  0  0  0  0  0  0  0  0  0  0
   -1.4412   -1.4252    4.6045 C   0  0  0  0  0  0  0  0  0  0  0  0
   -1.1762   -2.7842    4.4843 C   0  0  0  0  0  0  0  0  0  0  0  0
   -0.1537   -3.2222    3.6495 C   0  0  0  0  0  0  0  0  0  0  0  0
    0.6036   -2.3019    2.9363 C   0  0  0  0  0  0  0  0  0  0  0  0
    0.3387   -0.9428    3.0565 C   0  0  0  0  0  0  0  0  0  0  0  0
   -0.6825   -0.5042    3.8898 C   0  0  0  0  0  0  0  0  0  0  0  0
   -0.5958    9.8105    3.7331 C   0  0  0  0  0  0  0  0  0  0  0  0
   -0.1252   11.0528    3.3241 C   0  0  0  0  0  0  0  0  0  0  0  0
    1.1567   11.1740    2.8010 C   0  0  0  0  0  0  0  0  0  0  0  0
    1.9684   10.0517    2.6869 C   0  0  0  0  0  0  0  0  0  0  0  0
    1.4995    8.8088    3.0945 C   0  0  0  0  0  0  0  0  0  0  0  0
    0.2165    8.6876    3.6176 C   0  0  0  0  0  0  0  0  0  0  0  0
   -2.2987    8.1163    6.0125 C   0  0  0  0  0  0  0  0  0  0  0  0
   -2.7388    8.5115    7.2701 C   0  0  0  0  0  0  0  0  0  0  0  0
   -1.9600    8.2505    8.3923 C   0  0  0  0  0  0  0  0  0  0  0  0
   -0.7421    7.5950    8.2555 C   0  0  0  0  0  0  0  0  0  0  0  0
   -0.3031    7.1998    6.9979 C   0  0  0  0  0  0  0  0  0  0  0  0
   -1.0808    7.4608    5.8757 C   0  0  0  0  0  0  0  0  0  0  0  0
   -2.0729    7.3385    1.9646 C   0  0  0  0  0  0  0  0  0  0  0  0
   -3.2497    7.1359    1.2515 C   0  0  0  0  0  0  0  0  0  0  0  0
   -4.2678    6.3630    1.7974 C   0  0  0  0  0  0  0  0  0  0  0  0
   -4.1095    5.7922    3.0549 C   0  0  0  0  0  0  0  0  0  0  0  0
   -2.9338    5.9948    3.7681 C   0  0  0  0  0  0  0  0  0  0  0  0
   -1.9162    6.7689    3.2222 C   0  0  0  0  0  0  0  0  0  0  0  0
    1.1979    6.3614    1.3838 H   0  0  0  0  0  0  0  0  0  0  0  0
    1.0050    3.9872   -0.1931 H   0  0  0  0  0  0  0  0  0  0  0  0
    0.6757    1.6483    1.2256 H   0  0  0  0  0  0  0  0  0  0  0  0
    3.7332    6.0226    3.1614 H   0  0  0  0  0  0  0  0  0  0  0  0
    3.5937    5.0612    0.4395 H   0  0  0  0  0  0  0  0  0  0  0  0
    3.2990    2.3313    0.3482 H   0  0  0  0  0  0  0  0  0  0  0  0
    3.2836    1.4108    2.9531 H   0  0  0  0  0  0  0  0  0  0  0  0
    4.7808    3.5139    2.4406 H   0  0  0  0  0  0  0  0  0  0  0  0
   -0.7783    1.2811    6.7014 H   0  0  0  0  0  0  0  0  0  0  0  0
   -2.1633    1.2382    8.5626 H   0  0  0  0  0  0  0  0  0  0  0  0
   -4.4657    1.3419    8.2996 H   0  0  0  0  0  0  0  0  0  0  0  0
   -5.3841    1.4891    6.1737 H   0  0  0  0  0  0  0  0  0  0  0  0
   -3.9991    1.5319    4.3125 H   0  0  0  0  0  0  0  0  0  0  0  0
   -2.7345    3.3496    2.9166 H   0  0  0  0  0  0  0  0  0  0  0  0
   -4.0177    3.7226    1.0203 H   0  0  0  0  0  0  0  0  0  0  0  0
   -4.1548    2.0937   -0.6265 H   0  0  0  0  0  0  0  0  0  0  0  0
   -3.0087    0.0917   -0.3771 H   0  0  0  0  0  0  0  0  0  0  0  0
   -1.7265   -0.2814    1.5191 H   0  0  0  0  0  0  0  0  0  0  0  0
   -2.1241   -1.1322    5.1625 H   0  0  0  0  0  0  0  0  0  0  0  0
   -1.6827   -3.4012    4.9618 H   0  0  0  0  0  0  0  0  0  0  0  0
    0.0228   -4.1323    3.5689 H   0  0  0  0  0  0  0  0  0  0  0  0
    1.2877   -2.5949    2.3783 H   0  0  0  0  0  0  0  0  0  0  0  0
    0.8463   -0.3258    2.5790 H   0  0  0  0  0  0  0  0  0  0  0  0
   -1.4537    9.7299    4.0814 H   0  0  0  0  0  0  0  0  0  0  0  0
   -0.6692   11.8040    3.4001 H   0  0  0  0  0  0  0  0  0  0  0  0
    1.4711   12.0052    2.5273 H   0  0  0  0  0  0  0  0  0  0  0  0
    2.8269   10.1317    2.3372 H   0  0  0  0  0  0  0  0  0  0  0  0
    2.0425    8.0576    3.0184 H   0  0  0  0  0  0  0  0  0  0  0  0
   -2.8197    8.2908    5.2614 H   0  0  0  0  0  0  0  0  0  0  0  0
   -3.5531    8.9498    7.3613 H   0  0  0  0  0  0  0  0  0  0  0  0
   -2.2547    8.5162    9.2332 H   0  0  0  0  0  0  0  0  0  0  0  0
   -0.2222    7.4205    9.0067 H   0  0  0  0  0  0  0  0  0  0  0  0
    0.5123    6.7615    6.9067 H   0  0  0  0  0  0  0  0  0  0  0  0
   -1.3915    7.8555    1.5997 H   0  0  0  0  0  0  0  0  0  0  0  0
   -3.3543    7.5171    0.4106 H   0  0  0  0  0  0  0  0  0  0  0  0
   -5.0543    6.2267    1.3199 H   0  0  0  0  0  0  0  0  0  0  0  0
   -4.7909    5.2752    3.4199 H   0  0  0  0  0  0  0  0  0  0  0  0
   -2.8281    5.6135    4.6090 H   0  0  0  0  0  0  0  0  0  0  0  0
  1  2  1  0  0  0  0
  2  3  1  0  0  0  0
  3  1  1  0  0  0  0
  4  1  1  0  0  0  0
  5  1  1  0  0  0  0
  6  1  1  0  0  0  0
  7  2  1  0  0  0  0
  8  3  1  0  0  0  0
  9  4  1  0  0  0  0
 10  5  1  0  0  0  0
 11  2  1  0  0  0  0
 12  7  1  0  0  0  0
 13  7  1  0  0  0  0
 14  2  1  0  0  0  0
 15  3  1  0  0  0  0
 16  2  1  0  0  0  0
 17 16  2  0  0  0  0
 18  2  1  0  0  0  0
 19 18  3  0  0  0  0
 20  3  1  0  0  0  0
 21 20  3  0  0  0  0
 22 23  4  0  0  0  0
 23 24  4  0  0  0  0
 24 25  4  0  0  0  0
 25 26  4  0  0  0  0
 26 27  4  0  0  0  0
 27 14  1  0  0  0  0
 28 29  4  0  0  0  0
 29 30  4  0  0  0  0
 30 31  4  0  0  0  0
 31 32  4  0  0  0  0
 32 33  4  0  0  0  0
 33 14  1  0  0  0  0
 34 35  4  0  0  0  0
 35 36  4  0  0  0  0
 36 37  4  0  0  0  0
 37 38  4  0  0  0  0
 38 39  4  0  0  0  0
 39 14  1  0  0  0  0
 40 41  4  0  0  0  0
 41 42  4  0  0  0  0
 42 43  4  0  0  0  0
 43 44  4  0  0  0  0
 44 45  4  0  0  0  0
 45 15  1  0  0  0  0
 46 47  4  0  0  0  0
 47 48  4  0  0  0  0
 48 49  4  0  0  0  0
 49 50  4  0  0  0  0
 50 51  4  0  0  0  0
 51 15  1  0  0  0  0
 52 53  4  0  0  0  0
 53 54  4  0  0  0  0
 54 55  4  0  0  0  0
 55 56  4  0  0  0  0
 56 57  4  0  0  0  0
 57 15  1  0  0  0  0
 58  4  1  0  0  0  0
 59  5  1  0  0  0  0
 60  6  1  0  0  0  0
 61  8  1  0  0  0  0
 62  9  1  0  0  0  0
 63 10  1  0  0  0  0
 64 11  1  0  0  0  0
 65 12  1  0  0  0  0
 66 22  1  0  0  0  0
 67 23  1  0  0  0  0
 68 24  1  0  0  0  0
 69 25  1  0  0  0  0
 70 26  1  0  0  0  0
 71 28  1  0  0  0  0
 72 29  1  0  0  0  0
 73 30  1  0  0  0  0
 74 31  1  0  0  0  0
 75 32  1  0  0  0  0
 76 34  1  0  0  0  0
 77 35  1  0  0  0  0
 78 36  1  0  0  0  0
 79 37  1  0  0  0  0
 80 38  1  0  0  0  0
 81 40  1  0  0  0  0
 82 41  1  0  0  0  0
 83 42  1  0  0  0  0
 84 43  1  0  0  0  0
 85 44  1  0  0  0  0
 86 46  1  0  0  0  0
 87 47  1  0  0  0  0
 88 48  1  0  0  0  0
 89 49  1  0  0  0  0
 90 50  1  0  0  0  0
 91 52  1  0  0  0  0
 92 53  1  0  0  0  0
 93 54  1  0  0  0  0
 94 55  1  0  0  0  0
 95 56  1  0  0  0  0
  2  6  1  0  0  0  0
  3  4  1  0  0  0  0
  3  7  1  0  0  0  0
  3 16  1  0  0  0  0
  4  5  1  0  0  0  0
  4  8  1  0  0  0  0
  5  6  1  0  0  0  0
  5  9  1  0  0  0  0
  6 10  1  0  0  0  0
  6 11  1  0  0  0  0
  7  8  1  0  0  0  0
  7 11  1  0  0  0  0
  8  9  1  0  0  0  0
  8 12  1  0  0  0  0
  9 10  1  0  0  0  0
  9 12  1  0  0  0  0
 10 11  1  0  0  0  0
 10 12  1  0  0  0  0
 11 12  1  0  0  0  0
 22 27  4  0  0  0  0
 28 33  4  0  0  0  0
 34 39  4  0  0  0  0
 40 45  4  0  0  0  0
 46 51  4  0  0  0  0
 52 57  4  0  0  0  0
M  END
$$$$
PUJVIB

From CSD data. Using bond type 'Any'. No disordered atoms. Largest molecule.
135136  0  0  0  0  0  0  0  0999 V2000
   17.3344    2.3879   13.2892 Rh  0  0  0  0  0  0  0  0  0  0  0  0
   15.4858    3.9297   15.7752 B   0  0  0  0  0  0  0  0  0  0  0  0
   18.5730    2.4208   12.0174 C   0  0  0  0  0  0  0  0  0  0  0  0
   19.8886    2.5265   10.8076 Rh  0  0  0  0  0  0  0  0  0  0  0  0
   25.1784    1.9481   12.8889 C   0  0  0  0  0  0  0  0  0  0  0  0
   24.7638    1.0603   12.9280 H   0  0  0  0  0  0  0  0  0  0  0  0
   24.7933    2.5182   13.5883 H   0  0  0  0  0  0  0  0  0  0  0  0
   26.1460    1.8635   13.0309 H   0  0  0  0  0  0  0  0  0  0  0  0
   21.7134    2.6844    9.1254 S   0  0  0  0  0  0  0  0  0  0  0  0
   15.6019    2.3278   15.0719 S   0  0  0  0  0  0  0  0  0  0  0  0
   24.9185    2.5709   11.5239 C   0  0  0  0  0  0  0  0  0  0  0  0
   25.4228    4.0192   11.4973 C   0  0  0  0  0  0  0  0  0  0  0  0
   25.2280    4.4168   10.6221 H   0  0  0  0  0  0  0  0  0  0  0  0
   26.3917    4.0303   11.6517 H   0  0  0  0  0  0  0  0  0  0  0  0
   24.9725    4.5349   12.1984 H   0  0  0  0  0  0  0  0  0  0  0  0
   25.3806    0.2699   10.5476 C   0  0  0  0  0  0  0  0  0  0  0  0
   25.4704   -0.1932    9.6884 H   0  0  0  0  0  0  0  0  0  0  0  0
   24.5271    0.0255   10.9612 H   0  0  0  0  0  0  0  0  0  0  0  0
   26.1181    0.0112   11.1387 H   0  0  0  0  0  0  0  0  0  0  0  0
   15.5568    2.6470   11.8173 P   0  0  0  0  0  0  0  0  0  0  0  0
   25.4196    1.8140   10.3115 C   0  0  0  0  0  0  0  0  0  0  0  0
   19.6546    0.2964   10.1686 P   0  0  0  0  0  0  0  0  0  0  0  0
   26.7769    2.1924    9.7754 C   0  0  0  0  0  0  0  0  0  0  0  0
   26.9957    1.6176    9.0121 H   0  0  0  0  0  0  0  0  0  0  0  0
   27.4510    2.0759   10.4766 H   0  0  0  0  0  0  0  0  0  0  0  0
   26.7642    3.1282    9.4861 H   0  0  0  0  0  0  0  0  0  0  0  0
   18.8554    1.7255   14.9138 P   0  0  0  0  0  0  0  0  0  0  0  0
   18.5292   -0.7234   11.1884 C   0  0  0  0  0  0  0  0  0  0  0  0
   18.7391   -0.5461   12.1398 H   0  0  0  0  0  0  0  0  0  0  0  0
   17.6033   -0.4024   11.0286 H   0  0  0  0  0  0  0  0  0  0  0  0
   20.0963    4.8117   11.0735 P   0  0  0  0  0  0  0  0  0  0  0  0
   18.5389   -2.2291   10.9843 C   0  0  0  0  0  0  0  0  0  0  0  0
   18.4805   -2.4287   10.0275 H   0  0  0  0  0  0  0  0  0  0  0  0
   17.7741   -2.6268   11.4493 H   0  0  0  0  0  0  0  0  0  0  0  0
   19.3687   -2.6012   11.3446 H   0  0  0  0  0  0  0  0  0  0  0  0
   21.7028    5.4499   11.6410 C   0  0  0  0  0  0  0  0  0  0  0  0
   22.4049    5.1561   11.0091 H   0  0  0  0  0  0  0  0  0  0  0  0
   21.6752    6.4399   11.6251 H   0  0  0  0  0  0  0  0  0  0  0  0
   19.0163    2.8072   16.3628 C   0  0  0  0  0  0  0  0  0  0  0  0
   18.1366    2.8679   16.8101 H   0  0  0  0  0  0  0  0  0  0  0  0
   19.6476    2.3872   17.0018 H   0  0  0  0  0  0  0  0  0  0  0  0
   22.0836    4.9900   13.0576 C   0  0  0  0  0  0  0  0  0  0  0  0
   22.1782    4.0144   13.0682 H   0  0  0  0  0  0  0  0  0  0  0  0
   21.3854    5.2583   13.6895 H   0  0  0  0  0  0  0  0  0  0  0  0
   22.9358    5.4020   13.3167 H   0  0  0  0  0  0  0  0  0  0  0  0
   18.8821    5.5761   12.1949 C   0  0  0  0  0  0  0  0  0  0  0  0
   17.9788    5.2854   11.9038 H   0  0  0  0  0  0  0  0  0  0  0  0
   19.0295    5.1992   13.0984 H   0  0  0  0  0  0  0  0  0  0  0  0
   18.8614    7.0866   12.3227 C   0  0  0  0  0  0  0  0  0  0  0  0
   18.5470    7.4827   11.4831 H   0  0  0  0  0  0  0  0  0  0  0  0
   19.7632    7.4108   12.5197 H   0  0  0  0  0  0  0  0  0  0  0  0
   18.2561    7.3437   13.0505 H   0  0  0  0  0  0  0  0  0  0  0  0
   16.0732    5.3445   18.4024 C   0  0  0  0  0  0  0  0  0  0  0  0
   16.8007    4.7936   18.0438 H   0  0  0  0  0  0  0  0  0  0  0  0
   15.6760    4.8958   19.1763 H   0  0  0  0  0  0  0  0  0  0  0  0
   16.4278    6.2164   18.6757 H   0  0  0  0  0  0  0  0  0  0  0  0
   23.4682    2.5709   11.3304 O   0  0  0  0  0  0  0  0  0  0  0  0
   24.4121    2.1317    9.3192 O   0  0  0  0  0  0  0  0  0  0  0  0
   14.9983    5.5473   17.3125 C   0  0  0  0  0  0  0  0  0  0  0  0
   13.7503    6.1429   17.8840 C   0  0  0  0  0  0  0  0  0  0  0  0
   13.8946    7.0962   18.0633 H   0  0  0  0  0  0  0  0  0  0  0  0
   13.5204    5.6846   18.7201 H   0  0  0  0  0  0  0  0  0  0  0  0
   13.0156    6.0407   17.2432 H   0  0  0  0  0  0  0  0  0  0  0  0
   16.6649    7.2192   16.2847 C   0  0  0  0  0  0  0  0  0  0  0  0
   17.1224    7.3996   15.4362 H   0  0  0  0  0  0  0  0  0  0  0  0
   17.3044    6.8567   16.9308 H   0  0  0  0  0  0  0  0  0  0  0  0
   16.2836    8.0511   16.6344 H   0  0  0  0  0  0  0  0  0  0  0  0
   14.6632    4.1996   16.8598 O   0  0  0  0  0  0  0  0  0  0  0  0
   16.1302    5.0763   15.3510 O   0  0  0  0  0  0  0  0  0  0  0  0
   15.5484    6.2036   16.0539 C   0  0  0  0  0  0  0  0  0  0  0  0
   14.4563    6.7864   15.1894 C   0  0  0  0  0  0  0  0  0  0  0  0
   14.8403    7.0803   14.3356 H   0  0  0  0  0  0  0  0  0  0  0  0
   14.0537    7.5529   15.6456 H   0  0  0  0  0  0  0  0  0  0  0  0
   13.7711    6.1062   15.0226 H   0  0  0  0  0  0  0  0  0  0  0  0
   14.4583    4.0974   12.0351 C   0  0  0  0  0  0  0  0  0  0  0  0
   13.6783    4.0032   11.4334 H   0  0  0  0  0  0  0  0  0  0  0  0
   14.1204    4.1070   12.9670 H   0  0  0  0  0  0  0  0  0  0  0  0
   15.1434    5.4196   11.7475 C   0  0  0  0  0  0  0  0  0  0  0  0
   15.4816    5.4180   10.8298 H   0  0  0  0  0  0  0  0  0  0  0  0
   15.8868    5.5441   12.3724 H   0  0  0  0  0  0  0  0  0  0  0  0
   14.4978    6.1493   11.8576 H   0  0  0  0  0  0  0  0  0  0  0  0
   23.2561    2.4399    9.9742 B   0  0  0  0  0  0  0  0  0  0  0  0
   19.5053    4.2220   16.0592 C   0  0  0  0  0  0  0  0  0  0  0  0
   20.4165    4.1820   15.7024 H   0  0  0  0  0  0  0  0  0  0  0  0
   19.4999    4.7537   16.8811 H   0  0  0  0  0  0  0  0  0  0  0  0
   18.9145    4.6371   15.3971 H   0  0  0  0  0  0  0  0  0  0  0  0
   18.3658    0.1629   15.7220 C   0  0  0  0  0  0  0  0  0  0  0  0
   19.0427   -0.0591   16.4107 H   0  0  0  0  0  0  0  0  0  0  0  0
   17.5047    0.3066   16.1870 H   0  0  0  0  0  0  0  0  0  0  0  0
   18.2191   -1.0140   14.8025 C   0  0  0  0  0  0  0  0  0  0  0  0
   17.6272   -0.7776   14.0605 H   0  0  0  0  0  0  0  0  0  0  0  0
   17.8396   -1.7709   15.2977 H   0  0  0  0  0  0  0  0  0  0  0  0
   19.1003   -1.2631   14.4492 H   0  0  0  0  0  0  0  0  0  0  0  0
   14.3282    1.2950   12.0156 C   0  0  0  0  0  0  0  0  0  0  0  0
   13.9711    1.3158   12.9386 H   0  0  0  0  0  0  0  0  0  0  0  0
   13.5699    1.4547   11.3961 H   0  0  0  0  0  0  0  0  0  0  0  0
   14.9063   -0.0830   11.7404 C   0  0  0  0  0  0  0  0  0  0  0  0
   15.2587   -0.1118   10.8263 H   0  0  0  0  0  0  0  0  0  0  0  0
   14.2052   -0.7585   11.8416 H   0  0  0  0  0  0  0  0  0  0  0  0
   15.6289   -0.2651   12.3742 H   0  0  0  0  0  0  0  0  0  0  0  0
   20.5853    1.4164   14.3392 C   0  0  0  0  0  0  0  0  0  0  0  0
   20.5482    0.7808   13.5812 H   0  0  0  0  0  0  0  0  0  0  0  0
   20.9496    2.2691   13.9913 H   0  0  0  0  0  0  0  0  0  0  0  0
   21.5717    0.8623   15.3847 C   0  0  0  0  0  0  0  0  0  0  0  0
   22.3599    0.4950   14.9285 H   0  0  0  0  0  0  0  0  0  0  0  0
   21.1356    0.1565   15.9030 H   0  0  0  0  0  0  0  0  0  0  0  0
   21.8506    1.5856   15.9847 H   0  0  0  0  0  0  0  0  0  0  0  0
   19.9191    5.7198    9.4896 C   0  0  0  0  0  0  0  0  0  0  0  0
   19.9960    6.6906    9.6671 H   0  0  0  0  0  0  0  0  0  0  0  0
   20.6642    5.4627    8.8897 H   0  0  0  0  0  0  0  0  0  0  0  0
   18.6509    5.4659    8.8027 C   0  0  0  0  0  0  0  0  0  0  0  0
   18.6209    5.9848    7.9719 H   0  0  0  0  0  0  0  0  0  0  0  0
   17.9092    5.7341    9.3814 H   0  0  0  0  0  0  0  0  0  0  0  0
   18.5782    4.5110    8.5950 H   0  0  0  0  0  0  0  0  0  0  0  0
   15.9881    2.6667   10.0470 C   0  0  0  0  0  0  0  0  0  0  0  0
   16.5731    3.4475    9.8855 H   0  0  0  0  0  0  0  0  0  0  0  0
   16.5221    1.8555    9.8535 H   0  0  0  0  0  0  0  0  0  0  0  0
   14.8350    2.7258    9.0423 C   0  0  0  0  0  0  0  0  0  0  0  0
   15.1925    2.7848    8.1335 H   0  0  0  0  0  0  0  0  0  0  0  0
   14.2786    3.5130    9.2251 H   0  0  0  0  0  0  0  0  0  0  0  0
   14.2890    1.9162    9.1240 H   0  0  0  0  0  0  0  0  0  0  0  0
   21.0535   -0.8399    9.9032 C   0  0  0  0  0  0  0  0  0  0  0  0
   20.7217   -1.6990    9.5429 H   0  0  0  0  0  0  0  0  0  0  0  0
   21.6786   -0.4487    9.2429 H   0  0  0  0  0  0  0  0  0  0  0  0
   21.7881   -1.0858   11.2221 C   0  0  0  0  0  0  0  0  0  0  0  0
   22.5330   -1.7038   11.0695 H   0  0  0  0  0  0  0  0  0  0  0  0
   21.1718   -1.4770   11.8736 H   0  0  0  0  0  0  0  0  0  0  0  0
   22.1356   -0.2363   11.5683 H   0  0  0  0  0  0  0  0  0  0  0  0
   18.7243   -0.0255    8.5027 C   0  0  0  0  0  0  0  0  0  0  0  0
   18.8824   -0.9597    8.2169 H   0  0  0  0  0  0  0  0  0  0  0  0
   17.7493    0.0830    8.6500 H   0  0  0  0  0  0  0  0  0  0  0  0
   19.1584    0.8974    7.4146 C   0  0  0  0  0  0  0  0  0  0  0  0
   18.6947    0.6611    6.5838 H   0  0  0  0  0  0  0  0  0  0  0  0
   20.1239    0.8160    7.2850 H   0  0  0  0  0  0  0  0  0  0  0  0
   18.9370    1.8188    7.6613 H   0  0  0  0  0  0  0  0  0  0  0  0
  1  3  2  0  0  0  0
  2 10  1  0  0  0  0
  3  4  2  0  0  0  0
  4  9  1  0  0  0  0
  5  6  1  0  0  0  0
  7  5  1  0  0  0  0
  8  5  1  0  0  0  0
  9 82  1  0  0  0  0
 10  1  1  0  0  0  0
 11  5  1  0  0  0  0
 12 11  1  0  0  0  0
 13 12  1  0  0  0  0
 14 12  1  0  0  0  0
 15 12  1  0  0  0  0
 16 17  1  0  0  0  0
 18 16  1  0  0  0  0
 19 16  1  0  0  0  0
 20  1  1  0  0  0  0
 21 11  1  0  0  0  0
 22  4  1  0  0  0  0
 23 21  1  0  0  0  0
 24 23  1  0  0  0  0
 25 23  1  0  0  0  0
 26 23  1  0  0  0  0
 27  1  1  0  0  0  0
 28 22  1  0  0  0  0
 29 28  1  0  0  0  0
 30 28  1  0  0  0  0
 31  4  1  0  0  0  0
 32 28  1  0  0  0  0
 33 32  1  0  0  0  0
 34 32  1  0  0  0  0
 35 32  1  0  0  0  0
 36 31  1  0  0  0  0
 37 36  1  0  0  0  0
 38 36  1  0  0  0  0
 39 27  1  0  0  0  0
 40 39  1  0  0  0  0
 41 39  1  0  0  0  0
 42 36  1  0  0  0  0
 43 42  1  0  0  0  0
 44 42  1  0  0  0  0
 45 42  1  0  0  0  0
 46 31  1  0  0  0  0
 47 46  1  0  0  0  0
 48 46  1  0  0  0  0
 49 46  1  0  0  0  0
 50 49  1  0  0  0  0
 51 49  1  0  0  0  0
 52 49  1  0  0  0  0
 53 54  1  0  0  0  0
 55 53  1  0  0  0  0
 56 53  1  0  0  0  0
 57 11  1  0  0  0  0
 58 21  1  0  0  0  0
 59 53  1  0  0  0  0
 60 59  1  0  0  0  0
 61 60  1  0  0  0  0
 62 60  1  0  0  0  0
 63 60  1  0  0  0  0
 64 65  1  0  0  0  0
 66 64  1  0  0  0  0
 67 64  1  0  0  0  0
 68  2  1  0  0  0  0
 69  2  1  0  0  0  0
 70 59  1  0  0  0  0
 71 70  1  0  0  0  0
 72 71  1  0  0  0  0
 73 71  1  0  0  0  0
 74 71  1  0  0  0  0
 75 20  1  0  0  0  0
 76 75  1  0  0  0  0
 77 75  1  0  0  0  0
 78 75  1  0  0  0  0
 79 78  1  0  0  0  0
 80 78  1  0  0  0  0
 81 78  1  0  0  0  0
 82 57  1  0  0  0  0
 83 39  1  0  0  0  0
 84 83  1  0  0  0  0
 85 83  1  0  0  0  0
 86 83  1  0  0  0  0
 87 27  1  0  0  0  0
 88 87  1  0  0  0  0
 89 87  1  0  0  0  0
 90 87  1  0  0  0  0
 91 90  1  0  0  0  0
 92 90  1  0  0  0  0
 93 90  1  0  0  0  0
 94 20  1  0  0  0  0
 95 94  1  0  0  0  0
 96 94  1  0  0  0  0
 97 94  1  0  0  0  0
 98 97  1  0  0  0  0
 99 97  1  0  0  0  0
100 97  1  0  0  0  0
101 27  1  0  0  0  0
102101  1  0  0  0  0
103101  1  0  0  0  0
104101  1  0  0  0  0
105104  1  0  0  0  0
106104  1  0  0  0  0
107104  1  0  0  0  0
108 31  1  0  0  0  0
109108  1  0  0  0  0
110108  1  0  0  0  0
111108  1  0  0  0  0
112111  1  0  0  0  0
113111  1  0  0  0  0
114111  1  0  0  0  0
115 20  1  0  0  0  0
116115  1  0  0  0  0
117115  1  0  0  0  0
118115  1  0  0  0  0
119118  1  0  0  0  0
120118  1  0  0  0  0
121118  1  0  0  0  0
122 22  1  0  0  0  0
123122  1  0  0  0  0
124122  1  0  0  0  0
125122  1  0  0  0  0
126125  1  0  0  0  0
127125  1  0  0  0  0
128125  1  0  0  0  0
129 22  1  0  0  0  0
130129  1  0  0  0  0
131129  1  0  0  0  0
132129  1  0  0  0  0
133132  1  0  0  0  0
134132  1  0  0  0  0
135132  1  0  0  0  0
 16 21  1  0  0  0  0
 58 82  1  0  0  0  0
 59 68  1  0  0  0  0
 64 70  1  0  0  0  0
 69 70  1  0  0  0  0
M  END
$$$$
PUMCEF

From CSD data. Using bond type 'Any'. No disordered atoms. Largest molecule.
 57 72  0  0  0  0  0  0  0  0999 V2000
    6.5491    6.6957   25.6810 Ir  0  0  0  0  0  0  0  0  0  0  0  0
    6.6894    4.8431   27.1141 P   0  0  0  0  0  0  0  0  0  0  0  0
    8.2672    6.1060   24.2208 P   0  0  0  0  0  0  0  0  0  0  0  0
    4.5705    5.3729   23.7713 O   0  0  0  0  0  0  0  0  0  0  0  0
    6.3527   10.1282   26.0250 B   0  0  0  0  0  0  0  0  0  0  0  0
    6.0641   10.0875   27.7749 B   0  0  0  0  0  0  0  0  0  0  0  0
    4.8083    9.5299   26.6887 B   0  0  0  0  0  0  0  0  0  0  0  0
    5.5818    8.6629   25.3311 B   0  0  0  0  0  0  0  0  0  0  0  0
    7.3988    8.7603   25.5905 B   0  0  0  0  0  0  0  0  0  0  0  0
    7.6419    9.6251   27.1534 B   0  0  0  0  0  0  0  0  0  0  0  0
    7.9011    7.8506   27.0719 B   0  0  0  0  0  0  0  0  0  0  0  0
    6.8898    8.6297   28.4537 B   0  0  0  0  0  0  0  0  0  0  0  0
    5.3146    5.8748   24.4742 C   0  0  0  0  0  0  0  0  0  0  0  0
    5.2545    8.5773   28.0555 C   0  0  0  0  0  0  0  0  0  0  0  0
    4.9980    7.8399   26.7249 C   0  0  0  0  0  0  0  0  0  0  0  0
    8.3447    4.3882   27.7417 C   0  0  0  0  0  0  0  0  0  0  0  0
    6.0574    3.2676   26.4625 C   0  0  0  0  0  0  0  0  0  0  0  0
    5.7127    4.9983   28.6287 C   0  0  0  0  0  0  0  0  0  0  0  0
    9.9626    6.4431   24.7608 C   0  0  0  0  0  0  0  0  0  0  0  0
    8.1416    6.9323   22.6067 C   0  0  0  0  0  0  0  0  0  0  0  0
    8.3487    4.3550   23.7290 C   0  0  0  0  0  0  0  0  0  0  0  0
    4.2552    8.4532   29.1748 C   0  0  0  0  0  0  0  0  0  0  0  0
    3.2919    7.5370   29.1778 C   0  0  0  0  0  0  0  0  0  0  0  0
    4.3794    9.4089   30.3182 C   0  0  0  0  0  0  0  0  0  0  0  0
    8.8684    4.2020   26.9814 H   0  0  0  0  0  0  0  0  0  0  0  0
    8.2471    3.6615   28.2636 H   0  0  0  0  0  0  0  0  0  0  0  0
    8.6453    5.0817   28.2787 H   0  0  0  0  0  0  0  0  0  0  0  0
    6.3994    3.1274   25.6298 H   0  0  0  0  0  0  0  0  0  0  0  0
    5.1984    3.3372   26.0793 H   0  0  0  0  0  0  0  0  0  0  0  0
    5.9626    2.6490   27.0749 H   0  0  0  0  0  0  0  0  0  0  0  0
    5.9292    5.7614   29.0722 H   0  0  0  0  0  0  0  0  0  0  0  0
    5.9212    4.3379   29.2321 H   0  0  0  0  0  0  0  0  0  0  0  0
    4.9151    4.9833   28.3360 H   0  0  0  0  0  0  0  0  0  0  0  0
   10.0721    7.3700   24.9208 H   0  0  0  0  0  0  0  0  0  0  0  0
   10.5998    6.2077   24.0911 H   0  0  0  0  0  0  0  0  0  0  0  0
   10.1229    5.9604   25.7897 H   0  0  0  0  0  0  0  0  0  0  0  0
    7.3600    6.7193   22.1813 H   0  0  0  0  0  0  0  0  0  0  0  0
    8.8363    6.6722   22.0274 H   0  0  0  0  0  0  0  0  0  0  0  0
    8.1122    7.8495   22.7032 H   0  0  0  0  0  0  0  0  0  0  0  0
    7.4268    4.0682   23.3398 H   0  0  0  0  0  0  0  0  0  0  0  0
    8.4542    3.8980   24.5376 H   0  0  0  0  0  0  0  0  0  0  0  0
    8.9138    4.2662   23.1769 H   0  0  0  0  0  0  0  0  0  0  0  0
    2.8069    7.4995   29.8114 H   0  0  0  0  0  0  0  0  0  0  0  0
    3.1583    6.8766   28.4416 H   0  0  0  0  0  0  0  0  0  0  0  0
    5.2184    9.5138   30.6833 H   0  0  0  0  0  0  0  0  0  0  0  0
    3.7755    9.1349   31.0484 H   0  0  0  0  0  0  0  0  0  0  0  0
    4.0681   10.2833   30.0226 H   0  0  0  0  0  0  0  0  0  0  0  0
    6.3193   11.0358   25.4367 H   0  0  0  0  0  0  0  0  0  0  0  0
    5.9452   11.0004   28.4567 H   0  0  0  0  0  0  0  0  0  0  0  0
    3.7889    9.9665   26.6314 H   0  0  0  0  0  0  0  0  0  0  0  0
    4.9485    8.7378   24.4048 H   0  0  0  0  0  0  0  0  0  0  0  0
    8.1402    8.9134   24.7850 H   0  0  0  0  0  0  0  0  0  0  0  0
    8.5250   10.2823   27.4219 H   0  0  0  0  0  0  0  0  0  0  0  0
    4.1309    7.4910   26.7219 H   0  0  0  0  0  0  0  0  0  0  0  0
    8.9272    7.5359   27.3434 H   0  0  0  0  0  0  0  0  0  0  0  0
    7.2465    8.7378   29.4644 H   0  0  0  0  0  0  0  0  0  0  0  0
    7.1529    7.4353   27.9861 H   0  0  0  0  0  0  0  0  0  0  0  0
  1  2  1  0  0  0  0
  2 16  1  0  0  0  0
  3  1  1  0  0  0  0
  4 13  3  0  0  0  0
  5  6  1  0  0  0  0
  6  7  1  0  0  0  0
  7  5  1  0  0  0  0
  8  1  1  0  0  0  0
  9  1  1  0  0  0  0
 10  5  1  0  0  0  0
 11  1  1  0  0  0  0
 12  6  1  0  0  0  0
 13  1  1  0  0  0  0
 14  6  1  0  0  0  0
 15  1  1  0  0  0  0
 16 25  1  0  0  0  0
 17  2  1  0  0  0  0
 18  2  1  0  0  0  0
 19  3  1  0  0  0  0
 20  3  1  0  0  0  0
 21  3  1  0  0  0  0
 22 14  1  0  0  0  0
 23 22  2  0  0  0  0
 24 22  1  0  0  0  0
 26 16  1  0  0  0  0
 27 16  1  0  0  0  0
 28 17  1  0  0  0  0
 29 17  1  0  0  0  0
 30 17  1  0  0  0  0
 31 18  1  0  0  0  0
 32 18  1  0  0  0  0
 33 18  1  0  0  0  0
 34 19  1  0  0  0  0
 35 19  1  0  0  0  0
 36 19  1  0  0  0  0
 37 20  1  0  0  0  0
 38 20  1  0  0  0  0
 39 20  1  0  0  0  0
 40 21  1  0  0  0  0
 41 21  1  0  0  0  0
 42 21  1  0  0  0  0
 43 23  1  0  0  0  0
 44 23  1  0  0  0  0
 45 24  1  0  0  0  0
 46 24  1  0  0  0  0
 47 24  1  0  0  0  0
 48  5  1  0  0  0  0
 49  6  1  0  0  0  0
 50  7  1  0  0  0  0
 51  8  1  0  0  0  0
 52  9  1  0  0  0  0
 53 10  1  0  0  0  0
 54 15  1  0  0  0  0
 55 11  1  0  0  0  0
 56 12  1  0  0  0  0
 57 11  1  0  0  0  0
  5  8  1  0  0  0  0
  5  9  1  0  0  0  0
  6 10  1  0  0  0  0
  7  8  1  0  0  0  0
  7 14  1  0  0  0  0
  7 15  1  0  0  0  0
  8  9  1  0  0  0  0
  8 15  1  0  0  0  0
  9 10  1  0  0  0  0
  9 11  1  0  0  0  0
 10 11  1  0  0  0  0
 10 12  1  0  0  0  0
 11 12  1  0  0  0  0
 12 14  1  0  0  0  0
 12 57  1  0  0  0  0
 14 15  1  0  0  0  0
M  END
$$$$
PUMCIJ

From CSD data. Using bond type 'Any'. No disordered atoms. Largest molecule.
 59 73  0  0  0  0  0  0  0  0999 V2000
    2.5148    4.2148    9.9242 Ir  0  0  0  0  0  0  0  0  0  0  0  0
    0.8810    3.0436    8.6679 P   0  0  0  0  0  0  0  0  0  0  0  0
    1.9080    3.5318   12.0835 P   0  0  0  0  0  0  0  0  0  0  0  0
    4.4047    1.9266    9.3353 O   0  0  0  0  0  0  0  0  0  0  0  0
    3.8765    5.4875    8.7296 B   0  0  0  0  0  0  0  0  0  0  0  0
    2.1508    5.9485    8.5894 B   0  0  0  0  0  0  0  0  0  0  0  0
    3.4138    7.2031    8.5866 B   0  0  0  0  0  0  0  0  0  0  0  0
    4.8817    6.7682    9.5148 B   0  0  0  0  0  0  0  0  0  0  0  0
    1.9485    7.5738    9.5456 B   0  0  0  0  0  0  0  0  0  0  0  0
    3.7692    8.0700   10.0392 B   0  0  0  0  0  0  0  0  0  0  0  0
    4.6521    7.0143   11.1973 B   0  0  0  0  0  0  0  0  0  0  0  0
    4.3929    5.3077   10.5243 B   0  0  0  0  0  0  0  0  0  0  0  0
    3.6909    2.7834    9.5709 C   0  0  0  0  0  0  0  0  0  0  0  0
    1.2401    5.9586   10.0139 C   0  0  0  0  0  0  0  0  0  0  0  0
    1.3835    7.0434   11.0319 C   0  0  0  0  0  0  0  0  0  0  0  0
    0.1985    7.7777   11.5759 C   0  0  0  0  0  0  0  0  0  0  0  0
    0.3963    8.5994   12.6415 C   0  0  0  0  0  0  0  0  0  0  0  0
   -1.0873    7.6993   10.9253 C   0  0  0  0  0  0  0  0  0  0  0  0
    1.4229    2.7603    6.9573 C   0  0  0  0  0  0  0  0  0  0  0  0
    0.4376    1.3631    9.2175 C   0  0  0  0  0  0  0  0  0  0  0  0
   -0.7494    3.7979    8.4295 C   0  0  0  0  0  0  0  0  0  0  0  0
    2.6531    4.4257   13.4716 C   0  0  0  0  0  0  0  0  0  0  0  0
    0.1525    3.6955   12.4817 C   0  0  0  0  0  0  0  0  0  0  0  0
    2.2972    1.8051   12.4929 C   0  0  0  0  0  0  0  0  0  0  0  0
    4.4065    5.0063    7.8659 H   0  0  0  0  0  0  0  0  0  0  0  0
    1.6157    5.8360    7.7285 H   0  0  0  0  0  0  0  0  0  0  0  0
    3.5145    7.7435    7.6696 H   0  0  0  0  0  0  0  0  0  0  0  0
    5.8714    6.9621    9.1110 H   0  0  0  0  0  0  0  0  0  0  0  0
    1.3137    8.3322    9.0381 H   0  0  0  0  0  0  0  0  0  0  0  0
    3.9202    9.1036   10.0841 H   0  0  0  0  0  0  0  0  0  0  0  0
    5.4806    7.2734   11.9264 H   0  0  0  0  0  0  0  0  0  0  0  0
    3.7566    7.7265   11.3964 H   0  0  0  0  0  0  0  0  0  0  0  0
    4.0100    6.0419   11.5759 H   0  0  0  0  0  0  0  0  0  0  0  0
    5.2459    4.6879   10.8188 H   0  0  0  0  0  0  0  0  0  0  0  0
    0.2952    5.8400    9.7532 H   0  0  0  0  0  0  0  0  0  0  0  0
    2.0608    6.8897   11.7582 H   0  0  0  0  0  0  0  0  0  0  0  0
   -0.3163    9.1347   12.9668 H   0  0  0  0  0  0  0  0  0  0  0  0
    1.2504    8.6385   13.0565 H   0  0  0  0  0  0  0  0  0  0  0  0
   -1.0405    7.0605   10.1850 H   0  0  0  0  0  0  0  0  0  0  0  0
   -1.3335    8.5823   10.5804 H   0  0  0  0  0  0  0  0  0  0  0  0
   -1.7628    7.4010   11.5703 H   0  0  0  0  0  0  0  0  0  0  0  0
    2.3110    2.3465    6.9601 H   0  0  0  0  0  0  0  0  0  0  0  0
    1.4632    3.6161    6.5731 H   0  0  0  0  0  0  0  0  0  0  0  0
    0.7878    2.1657    6.5058 H   0  0  0  0  0  0  0  0  0  0  0  0
    1.2542    0.8468    9.3830 H   0  0  0  0  0  0  0  0  0  0  0  0
   -0.0950    0.9221    8.5249 H   0  0  0  0  0  0  0  0  0  0  0  0
   -0.0858    1.4173   10.0448 H   0  0  0  0  0  0  0  0  0  0  0  0
   -1.1476    3.9978    9.3045 H   0  0  0  0  0  0  0  0  0  0  0  0
   -1.3296    3.1762    7.9416 H   0  0  0  0  0  0  0  0  0  0  0  0
   -0.6538    4.6276    7.9192 H   0  0  0  0  0  0  0  0  0  0  0  0
    3.6285    4.4157   13.3790 H   0  0  0  0  0  0  0  0  0  0  0  0
    2.3999    3.9928   14.3128 H   0  0  0  0  0  0  0  0  0  0  0  0
    2.3345    5.3529   13.4716 H   0  0  0  0  0  0  0  0  0  0  0  0
   -0.3801    3.2435   11.7946 H   0  0  0  0  0  0  0  0  0  0  0  0
   -0.0873    4.6447   12.5125 H   0  0  0  0  0  0  0  0  0  0  0  0
   -0.0236    3.2857   13.3538 H   0  0  0  0  0  0  0  0  0  0  0  0
    3.2425    1.6293   12.3022 H   0  0  0  0  0  0  0  0  0  0  0  0
    1.7397    1.2074   11.9517 H   0  0  0  0  0  0  0  0  0  0  0  0
    2.1207    1.6463   13.4435 H   0  0  0  0  0  0  0  0  0  0  0  0
  1  2  1  0  0  0  0
  2 19  1  0  0  0  0
  3  1  1  0  0  0  0
  4 13  3  0  0  0  0
  5  1  1  0  0  0  0
  6  1  1  0  0  0  0
  7  5  1  0  0  0  0
  8  5  1  0  0  0  0
  9  6  1  0  0  0  0
 10  7  1  0  0  0  0
 11  8  1  0  0  0  0
 12  1  1  0  0  0  0
 13  1  1  0  0  0  0
 14  1  1  0  0  0  0
 15  9  1  0  0  0  0
 16 15  1  0  0  0  0
 17 16  2  0  0  0  0
 18 16  1  0  0  0  0
 19 42  1  0  0  0  0
 20  2  1  0  0  0  0
 21  2  1  0  0  0  0
 22  3  1  0  0  0  0
 23  3  1  0  0  0  0
 24  3  1  0  0  0  0
 25  5  1  0  0  0  0
 26  6  1  0  0  0  0
 27  7  1  0  0  0  0
 28  8  1  0  0  0  0
 29  9  1  0  0  0  0
 30 10  1  0  0  0  0
 31 11  1  0  0  0  0
 32 10  1  0  0  0  0
 33 11  1  0  0  0  0
 34 12  1  0  0  0  0
 35 14  1  0  0  0  0
 36 15  1  0  0  0  0
 37 17  1  0  0  0  0
 38 17  1  0  0  0  0
 39 18  1  0  0  0  0
 40 18  1  0  0  0  0
 41 18  1  0  0  0  0
 43 19  1  0  0  0  0
 44 19  1  0  0  0  0
 45 20  1  0  0  0  0
 46 20  1  0  0  0  0
 47 20  1  0  0  0  0
 48 21  1  0  0  0  0
 49 21  1  0  0  0  0
 50 21  1  0  0  0  0
 51 22  1  0  0  0  0
 52 22  1  0  0  0  0
 53 22  1  0  0  0  0
 54 23  1  0  0  0  0
 55 23  1  0  0  0  0
 56 23  1  0  0  0  0
 57 24  1  0  0  0  0
 58 24  1  0  0  0  0
 59 24  1  0  0  0  0
  5  6  1  0  0  0  0
  5 12  1  0  0  0  0
  6  7  1  0  0  0  0
  6 14  1  0  0  0  0
  7  8  1  0  0  0  0
  7  9  1  0  0  0  0
  8 10  1  0  0  0  0
  8 12  1  0  0  0  0
  9 10  1  0  0  0  0
  9 14  1  0  0  0  0
 10 11  1  0  0  0  0
 11 12  1  0  0  0  0
 11 32  1  0  0  0  0
 12 33  1  0  0  0  0
 14 15  1  0  0  0  0
M  END
$$$$
PUSWOP

From CSD data. Using bond type 'Any'. No disordered atoms. Largest molecule.
 45 60  0  0  0  0  0  0  0  0999 V2000
    0.4776   11.1944    3.2399 Rh  0  0  0  0  0  0  0  0  0  0  0  0
   -0.9968    9.3637    3.2943 P   0  0  0  0  0  0  0  0  0  0  0  0
   -1.4122   12.4158    2.6122 P   0  0  0  0  0  0  0  0  0  0  0  0
    0.9802   11.0249    0.9373 S   0  0  0  0  0  0  0  0  0  0  0  0
    2.2100    9.6550    3.7769 B   0  0  0  0  0  0  0  0  0  0  0  0
    0.2774   12.4438    6.0045 O   0  0  0  0  0  0  0  0  0  0  0  0
    0.3233   11.9312    4.9923 C   0  0  0  0  0  0  0  0  0  0  0  0
   -1.3079   13.6316    1.2831 C   0  0  0  0  0  0  0  0  0  0  0  0
   -2.3140   13.2968    3.9268 C   0  0  0  0  0  0  0  0  0  0  0  0
   -2.6428   11.1776    2.0209 C   0  0  0  0  0  0  0  0  0  0  0  0
   -2.6971   10.0052    2.9992 C   0  0  0  0  0  0  0  0  0  0  0  0
   -0.7657    8.0834    2.0257 C   0  0  0  0  0  0  0  0  0  0  0  0
   -1.0901    8.4112    4.8387 C   0  0  0  0  0  0  0  0  0  0  0  0
    3.7052   11.7127    2.1200 B   0  0  0  0  0  0  0  0  0  0  0  0
    2.8309   11.4241    0.6192 B   0  0  0  0  0  0  0  0  0  0  0  0
    2.0448   12.3051    2.0499 B   0  0  0  0  0  0  0  0  0  0  0  0
    2.6847   11.5376    3.5543 B   0  0  0  0  0  0  0  0  0  0  0  0
    3.8464   10.2027    3.0597 B   0  0  0  0  0  0  0  0  0  0  0  0
    3.8443   10.1453    1.2928 B   0  0  0  0  0  0  0  0  0  0  0  0
    2.9360    8.9337    2.1636 B   0  0  0  0  0  0  0  0  0  0  0  0
    2.3028    9.6746    0.6349 B   0  0  0  0  0  0  0  0  0  0  0  0
   -0.8405   13.2506    0.5358 H   0  0  0  0  0  0  0  0  0  0  0  0
   -0.8347   14.4076    1.5940 H   0  0  0  0  0  0  0  0  0  0  0  0
   -2.1932   13.8865    1.0110 H   0  0  0  0  0  0  0  0  0  0  0  0
   -2.4184   12.7198    4.6863 H   0  0  0  0  0  0  0  0  0  0  0  0
   -3.1791   13.5574    3.6015 H   0  0  0  0  0  0  0  0  0  0  0  0
   -1.8206   14.0784    4.1844 H   0  0  0  0  0  0  0  0  0  0  0  0
   -3.5190   11.5908    1.9556 H   0  0  0  0  0  0  0  0  0  0  0  0
   -2.3907   10.8582    1.1404 H   0  0  0  0  0  0  0  0  0  0  0  0
   -3.2538    9.3006    2.6352 H   0  0  0  0  0  0  0  0  0  0  0  0
   -3.0866   10.2979    3.8386 H   0  0  0  0  0  0  0  0  0  0  0  0
   -0.7049    8.4966    1.1610 H   0  0  0  0  0  0  0  0  0  0  0  0
   -1.5127    7.4797    2.0390 H   0  0  0  0  0  0  0  0  0  0  0  0
    0.0420    7.5960    2.2047 H   0  0  0  0  0  0  0  0  0  0  0  0
   -1.2142    9.0107    5.5776 H   0  0  0  0  0  0  0  0  0  0  0  0
   -0.2759    7.9168    4.9596 H   0  0  0  0  0  0  0  0  0  0  0  0
   -1.8306    7.8005    4.7940 H   0  0  0  0  0  0  0  0  0  0  0  0
    4.5815   12.3766    2.1394 H   0  0  0  0  0  0  0  0  0  0  0  0
    2.9550   11.9676   -0.3289 H   0  0  0  0  0  0  0  0  0  0  0  0
    1.8107   13.3529    1.8056 H   0  0  0  0  0  0  0  0  0  0  0  0
    2.7765   12.0614    4.5158 H   0  0  0  0  0  0  0  0  0  0  0  0
    4.7488    9.9898    3.6499 H   0  0  0  0  0  0  0  0  0  0  0  0
    4.7226    9.8203    0.7159 H   0  0  0  0  0  0  0  0  0  0  0  0
    3.2730    7.8915    2.2506 H   0  0  0  0  0  0  0  0  0  0  0  0
    2.2999    9.1172   -0.3120 H   0  0  0  0  0  0  0  0  0  0  0  0
  1  2  1  0  0  0  0
  2 11  1  0  0  0  0
  3  1  1  0  0  0  0
  4  1  1  0  0  0  0
  5  1  1  0  0  0  0
  6  7  3  0  0  0  0
  7  1  1  0  0  0  0
  8  3  1  0  0  0  0
  9  3  1  0  0  0  0
 10  3  1  0  0  0  0
 11 10  1  0  0  0  0
 12  2  1  0  0  0  0
 13  2  1  0  0  0  0
 14 15  1  0  0  0  0
 15  4  1  0  0  0  0
 16  1  1  0  0  0  0
 17  1  1  0  0  0  0
 18  5  1  0  0  0  0
 19 14  1  0  0  0  0
 20  5  1  0  0  0  0
 21  4  1  0  0  0  0
 22  8  1  0  0  0  0
 23  8  1  0  0  0  0
 24  8  1  0  0  0  0
 25  9  1  0  0  0  0
 26  9  1  0  0  0  0
 27  9  1  0  0  0  0
 28 10  1  0  0  0  0
 29 10  1  0  0  0  0
 30 11  1  0  0  0  0
 31 11  1  0  0  0  0
 32 12  1  0  0  0  0
 33 12  1  0  0  0  0
 34 12  1  0  0  0  0
 35 13  1  0  0  0  0
 36 13  1  0  0  0  0
 37 13  1  0  0  0  0
 38 14  1  0  0  0  0
 39 15  1  0  0  0  0
 40 16  1  0  0  0  0
 41 17  1  0  0  0  0
 42 18  1  0  0  0  0
 43 19  1  0  0  0  0
 44 20  1  0  0  0  0
 45 21  1  0  0  0  0
  4 16  1  0  0  0  0
  5 17  1  0  0  0  0
 14 16  1  0  0  0  0
 14 17  1  0  0  0  0
 14 18  1  0  0  0  0
 15 16  1  0  0  0  0
 15 19  1  0  0  0  0
 15 21  1  0  0  0  0
 16 17  1  0  0  0  0
 17 18  1  0  0  0  0
 18 19  1  0  0  0  0
 18 20  1  0  0  0  0
 19 20  1  0  0  0  0
 19 21  1  0  0  0  0
 20 21  1  0  0  0  0
M  END
$$$$
PUWPII

From CSD data. Using bond type 'Any'. No disordered atoms. Largest molecule.
 91130  0  0  0  0  0  0  0  0999 V2000
    3.7527   14.5640    5.3784 Rh  0  5  0  0  0  0  0  0  0  0  0  0
    2.3991   15.7209    5.7102 C   0  0  0  0  0  0  0  0  0  0  0  0
    1.5529   16.4652    5.9146 O   0  0  0  0  0  0  0  0  0  0  0  0
    2.3684   13.0399    4.3496 P   0  0  0  0  0  0  0  0  0  0  0  0
    3.6541   11.7331    4.1404 C   0  0  0  0  0  0  0  0  0  0  0  0
    5.1327   12.4032    4.6727 B   0  0  0  0  0  0  0  0  0  0  0  0
    5.2309   13.4576    5.0372 H   0  0  0  0  0  0  0  0  0  0  0  0
    4.8690   12.0534    2.9629 B   0  0  0  0  0  0  0  0  0  0  0  0
    4.8074   12.8646    2.1931 H   0  0  0  0  0  0  0  0  0  0  0  0
    3.8388   10.5982    2.8739 B   0  0  0  0  0  0  0  0  0  0  0  0
    3.0967   10.4469    2.0488 H   0  0  0  0  0  0  0  0  0  0  0  0
    3.5059   10.0685    4.5433 B   0  0  0  0  0  0  0  0  0  0  0  0
    2.5409    9.5692    4.8150 H   0  0  0  0  0  0  0  0  0  0  0  0
    4.3112   11.1940    5.6616 B   0  0  0  0  0  0  0  0  0  0  0  0
    3.8769   11.4360    6.6652 H   0  0  0  0  0  0  0  0  0  0  0  0
    6.0724   11.0927    5.3947 B   0  0  0  0  0  0  0  0  0  0  0  0
    6.8099   11.2606    6.2207 H   0  0  0  0  0  0  0  0  0  0  0  0
    6.4025   11.6281    3.7241 B   0  0  0  0  0  0  0  0  0  0  0  0
    7.3567   12.1490    3.4547 H   0  0  0  0  0  0  0  0  0  0  0  0
    5.5925   10.4872    2.6123 B   0  0  0  0  0  0  0  0  0  0  0  0
    6.0159   10.2465    1.6038 H   0  0  0  0  0  0  0  0  0  0  0  0
    4.7563    9.2550    3.5949 B   0  0  0  0  0  0  0  0  0  0  0  0
    4.6275    8.2010    3.2388 H   0  0  0  0  0  0  0  0  0  0  0  0
    5.0532    9.6271    5.3120 B   0  0  0  0  0  0  0  0  0  0  0  0
    5.1207    8.8224    6.0881 H   0  0  0  0  0  0  0  0  0  0  0  0
    6.3452    9.8876    4.1127 B   0  0  0  0  0  0  0  0  0  0  0  0
    7.2670    9.2517    4.0940 H   0  0  0  0  0  0  0  0  0  0  0  0
    1.0411   12.1971    5.3251 C   0  0  0  0  0  0  0  0  0  0  0  0
    1.5164   11.5718    5.9440 H   0  0  0  0  0  0  0  0  0  0  0  0
    0.2525   13.1566    6.2296 C   0  0  0  0  0  0  0  0  0  0  0  0
   -0.4106   12.6501    6.7436 H   0  0  0  0  0  0  0  0  0  0  0  0
   -0.2036   13.8254    5.6774 H   0  0  0  0  0  0  0  0  0  0  0  0
    0.8688   13.6062    6.8449 H   0  0  0  0  0  0  0  0  0  0  0  0
    0.1355   11.3171    4.4642 C   0  0  0  0  0  0  0  0  0  0  0  0
   -0.4377   10.7728    5.0435 H   0  0  0  0  0  0  0  0  0  0  0  0
    0.6862   10.7301    3.9051 H   0  0  0  0  0  0  0  0  0  0  0  0
   -0.4226   11.8839    3.8919 H   0  0  0  0  0  0  0  0  0  0  0  0
    1.6009   13.4886    2.7172 C   0  0  0  0  0  0  0  0  0  0  0  0
    1.2237   12.6502    2.3237 H   0  0  0  0  0  0  0  0  0  0  0  0
    0.4282   14.4477    2.9643 C   0  0  0  0  0  0  0  0  0  0  0  0
   -0.0184   14.6434    2.1143 H   0  0  0  0  0  0  0  0  0  0  0  0
    0.7645   15.2807    3.3560 H   0  0  0  0  0  0  0  0  0  0  0  0
   -0.2101   14.0313    3.5805 H   0  0  0  0  0  0  0  0  0  0  0  0
    2.5001   14.0958    1.6946 C   0  0  0  0  0  0  0  0  0  0  0  0
    1.9618   14.4572    0.9596 H   0  0  0  0  0  0  0  0  0  0  0  0
    3.1092   13.4112    1.3473 H   0  0  0  0  0  0  0  0  0  0  0  0
    3.0201   14.8182    2.1045 H   0  0  0  0  0  0  0  0  0  0  0  0
    5.3168   15.9946    6.4355 P   0  0  0  0  0  0  0  0  0  0  0  0
    6.0408   17.1500    5.1750 C   0  0  0  0  0  0  0  0  0  0  0  0
    7.6363   16.9002    4.5482 B   0  0  0  0  0  0  0  0  0  0  0  0
    8.3509   16.1306    4.9375 H   0  0  0  0  0  0  0  0  0  0  0  0
    7.2338   18.3641    5.4787 B   0  0  0  0  0  0  0  0  0  0  0  0
    7.6870   18.5586    6.4843 H   0  0  0  0  0  0  0  0  0  0  0  0
    5.5488   18.8027    5.1111 B   0  0  0  0  0  0  0  0  0  0  0  0
    4.8896   19.2849    5.8774 H   0  0  0  0  0  0  0  0  0  0  0  0
    4.9127   17.6285    3.9483 B   0  0  0  0  0  0  0  0  0  0  0  0
    3.8312   17.3374    3.9451 H   0  0  0  0  0  0  0  0  0  0  0  0
    6.1950   16.4482    3.6013 B   0  0  0  0  0  0  0  0  0  0  0  0
    5.9596   15.3780    3.3697 H   0  0  0  0  0  0  0  0  0  0  0  0
    7.5361   17.3083    2.8279 B   0  0  0  0  0  0  0  0  0  0  0  0
    8.1979   16.8134    2.0718 H   0  0  0  0  0  0  0  0  0  0  0  0
    8.1699   18.4999    3.9896 B   0  0  0  0  0  0  0  0  0  0  0  0
    9.2501   18.7956    4.0008 H   0  0  0  0  0  0  0  0  0  0  0  0
    6.8818   19.6703    4.3365 B   0  0  0  0  0  0  0  0  0  0  0  0
    7.1083   20.7402    4.5784 H   0  0  0  0  0  0  0  0  0  0  0  0
    5.4454   19.2087    3.3930 B   0  0  0  0  0  0  0  0  0  0  0  0
    4.7205   19.9723    3.0111 H   0  0  0  0  0  0  0  0  0  0  0  0
    5.8493   17.7494    2.4543 B   0  0  0  0  0  0  0  0  0  0  0  0
    5.3955   17.5441    1.4512 H   0  0  0  0  0  0  0  0  0  0  0  0
    7.0668   19.0228    2.6929 B   0  0  0  0  0  0  0  0  0  0  0  0
    7.4165   19.6640    1.8439 H   0  0  0  0  0  0  0  0  0  0  0  0
    4.5142   17.0349    7.7487 C   0  0  0  0  0  0  0  0  0  0  0  0
    3.8400   17.5978    7.2706 H   0  0  0  0  0  0  0  0  0  0  0  0
    3.7077   16.1649    8.7250 C   0  0  0  0  0  0  0  0  0  0  0  0
    3.0897   16.7310    9.2330 H   0  0  0  0  0  0  0  0  0  0  0  0
    4.3201   15.7135    9.3427 H   0  0  0  0  0  0  0  0  0  0  0  0
    3.1988   15.4953    8.2220 H   0  0  0  0  0  0  0  0  0  0  0  0
    5.3852   18.0135    8.5292 C   0  0  0  0  0  0  0  0  0  0  0  0
    4.8140   18.6113    9.0553 H   0  0  0  0  0  0  0  0  0  0  0  0
    5.9233   18.5425    7.9039 H   0  0  0  0  0  0  0  0  0  0  0  0
    5.9780   17.5157    9.1301 H   0  0  0  0  0  0  0  0  0  0  0  0
    6.7156   14.9957    7.1338 C   0  0  0  0  0  0  0  0  0  0  0  0
    7.1466   14.5465    6.3512 H   0  0  0  0  0  0  0  0  0  0  0  0
    7.8460   15.7204    7.8740 C   0  0  0  0  0  0  0  0  0  0  0  0
    8.5670   15.0863    8.0703 H   0  0  0  0  0  0  0  0  0  0  0  0
    7.5013   16.0930    8.7123 H   0  0  0  0  0  0  0  0  0  0  0  0
    8.1923   16.4451    7.3124 H   0  0  0  0  0  0  0  0  0  0  0  0
    6.1680   13.8633    8.0173 C   0  0  0  0  0  0  0  0  0  0  0  0
    6.8810   13.2156    8.1974 H   0  0  0  0  0  0  0  0  0  0  0  0
    5.4294   13.4156    7.5540 H   0  0  0  0  0  0  0  0  0  0  0  0
    5.8443   14.2367    8.8635 H   0  0  0  0  0  0  0  0  0  0  0  0
  1  2  1  0  0  0  0
  2  3  3  0  0  0  0
  4  1  1  0  0  0  0
  5  4  1  0  0  0  0
  6  1  1  0  0  0  0
  7  1  1  0  0  0  0
  8  5  1  0  0  0  0
  9  8  1  0  0  0  0
 10  5  1  0  0  0  0
 11 10  1  0  0  0  0
 12  5  1  0  0  0  0
 13 12  1  0  0  0  0
 14  5  1  0  0  0  0
 15 14  1  0  0  0  0
 16  6  1  0  0  0  0
 17 16  1  0  0  0  0
 18  6  1  0  0  0  0
 19 18  1  0  0  0  0
 20  8  1  0  0  0  0
 21 20  1  0  0  0  0
 22 10  1  0  0  0  0
 23 22  1  0  0  0  0
 24 12  1  0  0  0  0
 25 24  1  0  0  0  0
 26 16  1  0  0  0  0
 27 26  1  0  0  0  0
 28  4  1  0  0  0  0
 29 28  1  0  0  0  0
 30 28  1  0  0  0  0
 31 30  1  0  0  0  0
 32 30  1  0  0  0  0
 33 30  1  0  0  0  0
 34 28  1  0  0  0  0
 35 34  1  0  0  0  0
 36 34  1  0  0  0  0
 37 34  1  0  0  0  0
 38  4  1  0  0  0  0
 39 38  1  0  0  0  0
 40 38  1  0  0  0  0
 41 40  1  0  0  0  0
 42 40  1  0  0  0  0
 43 40  1  0  0  0  0
 44 38  1  0  0  0  0
 45 44  1  0  0  0  0
 46 44  1  0  0  0  0
 47 44  1  0  0  0  0
 48  1  1  0  0  0  0
 49 48  1  0  0  0  0
 50 49  1  0  0  0  0
 51 50  1  0  0  0  0
 52 49  1  0  0  0  0
 53 52  1  0  0  0  0
 54 49  1  0  0  0  0
 55 54  1  0  0  0  0
 56 49  1  0  0  0  0
 57 56  1  0  0  0  0
 58 49  1  0  0  0  0
 59 58  1  0  0  0  0
 60 50  1  0  0  0  0
 61 60  1  0  0  0  0
 62 50  1  0  0  0  0
 63 62  1  0  0  0  0
 64 52  1  0  0  0  0
 65 64  1  0  0  0  0
 66 54  1  0  0  0  0
 67 66  1  0  0  0  0
 68 56  1  0  0  0  0
 69 68  1  0  0  0  0
 70 60  1  0  0  0  0
 71 70  1  0  0  0  0
 72 48  1  0  0  0  0
 73 72  1  0  0  0  0
 74 72  1  0  0  0  0
 75 74  1  0  0  0  0
 76 74  1  0  0  0  0
 77 74  1  0  0  0  0
 78 72  1  0  0  0  0
 79 78  1  0  0  0  0
 80 78  1  0  0  0  0
 81 78  1  0  0  0  0
 82 48  1  0  0  0  0
 83 82  1  0  0  0  0
 84 82  1  0  0  0  0
 85 84  1  0  0  0  0
 86 84  1  0  0  0  0
 87 84  1  0  0  0  0
 88 82  1  0  0  0  0
 89 88  1  0  0  0  0
 90 88  1  0  0  0  0
 91 88  1  0  0  0  0
  5  6  1  0  0  0  0
  6  7  1  0  0  0  0
  6  8  1  0  0  0  0
  6 14  1  0  0  0  0
  8 10  1  0  0  0  0
  8 18  1  0  0  0  0
 10 12  1  0  0  0  0
 10 20  1  0  0  0  0
 12 14  1  0  0  0  0
 12 22  1  0  0  0  0
 14 16  1  0  0  0  0
 14 24  1  0  0  0  0
 16 18  1  0  0  0  0
 16 24  1  0  0  0  0
 18 20  1  0  0  0  0
 18 26  1  0  0  0  0
 20 22  1  0  0  0  0
 20 26  1  0  0  0  0
 22 24  1  0  0  0  0
 22 26  1  0  0  0  0
 24 26  1  0  0  0  0
 50 52  1  0  0  0  0
 50 58  1  0  0  0  0
 52 54  1  0  0  0  0
 52 62  1  0  0  0  0
 54 56  1  0  0  0  0
 54 64  1  0  0  0  0
 56 58  1  0  0  0  0
 56 66  1  0  0  0  0
 58 60  1  0  0  0  0
 58 68  1  0  0  0  0
 60 62  1  0  0  0  0
 60 68  1  0  0  0  0
 62 64  1  0  0  0  0
 62 70  1  0  0  0  0
 64 66  1  0  0  0  0
 64 70  1  0  0  0  0
 66 68  1  0  0  0  0
 66 70  1  0  0  0  0
 68 70  1  0  0  0  0
M  CHG  1   1  -1
M  END
$$$$
PUWPOO

From CSD data. Using bond type 'Any'. No disordered atoms. Largest molecule.
112143  0  0  0  0  0  0  0  0999 V2000
    3.0043    4.1806    6.9289 Rh  0  0  0  0  0  0  0  0  0  0  0  0
    3.0317    2.4626    7.7456 C   0  0  0  0  0  0  0  0  0  0  0  0
    2.9006    1.4601    8.2622 O   0  0  0  0  0  0  0  0  0  0  0  0
    2.2404    5.8929    6.5316 C   0  0  0  0  0  0  0  0  0  0  0  0
    1.6801    6.8741    6.4602 O   0  0  0  0  0  0  0  0  0  0  0  0
    2.3682    3.2141    4.8795 P   0  0  0  0  0  0  0  0  0  0  0  0
    2.2738    4.3265    2.0027 B   0  0  0  0  0  0  0  0  0  0  0  0
    1.4188    3.6704    1.6980 H   0  0  0  0  0  0  0  0  0  0  0  0
    4.0516    3.9282    2.3296 B   0  0  0  0  0  0  0  0  0  0  0  0
    4.6056    2.9559    2.2827 H   0  0  0  0  0  0  0  0  0  0  0  0
    4.1388    5.3050    3.5450 B   0  0  0  0  0  0  0  0  0  0  0  0
    4.7624    5.4238    4.4677 H   0  0  0  0  0  0  0  0  0  0  0  0
    2.3736    5.7176    3.2129 B   0  0  0  0  0  0  0  0  0  0  0  0
    1.5929    6.1731    3.8743 H   0  0  0  0  0  0  0  0  0  0  0  0
    2.3652    6.0416    1.4441 B   0  0  0  0  0  0  0  0  0  0  0  0
    1.4752    6.5198    0.9608 H   0  0  0  0  0  0  0  0  0  0  0  0
    3.5636    4.7821    0.8147 B   0  0  0  0  0  0  0  0  0  0  0  0
    3.6315    4.2576   -0.1726 H   0  0  0  0  0  0  0  0  0  0  0  0
    4.8834    5.4811    1.9135 B   0  0  0  0  0  0  0  0  0  0  0  0
    5.9975    5.5161    1.8037 H   0  0  0  0  0  0  0  0  0  0  0  0
    3.6867    6.7404    2.5342 B   0  0  0  0  0  0  0  0  0  0  0  0
    3.8509    7.7790    2.9200 H   0  0  0  0  0  0  0  0  0  0  0  0
    3.9169    6.4403    0.8834 B   0  0  0  0  0  0  0  0  0  0  0  0
    3.9855    6.8393   -0.1609 H   0  0  0  0  0  0  0  0  0  0  0  0
    3.1157    1.5313    4.6745 C   0  0  0  0  0  0  0  0  0  0  0  0
    2.7209    0.9654    5.3983 H   0  0  0  0  0  0  0  0  0  0  0  0
    4.6295    1.5500    4.9319 C   0  0  0  0  0  0  0  0  0  0  0  0
    4.9608    0.6301    4.9994 H   0  0  0  0  0  0  0  0  0  0  0  0
    4.8126    2.0253    5.7691 H   0  0  0  0  0  0  0  0  0  0  0  0
    5.0812    2.0064    4.1916 H   0  0  0  0  0  0  0  0  0  0  0  0
    2.7745    0.8245    3.3528 C   0  0  0  0  0  0  0  0  0  0  0  0
    3.1198    1.3514    2.6020 H   0  0  0  0  0  0  0  0  0  0  0  0
    1.8019    0.7371    3.2706 H   0  0  0  0  0  0  0  0  0  0  0  0
    3.1845   -0.0656    3.3430 H   0  0  0  0  0  0  0  0  0  0  0  0
    0.5518    2.9088    4.6504 C   0  0  0  0  0  0  0  0  0  0  0  0
    0.4308    2.4229    3.7848 H   0  0  0  0  0  0  0  0  0  0  0  0
    0.0601    1.9897    5.7760 C   0  0  0  0  0  0  0  0  0  0  0  0
    0.2295    2.4150    6.6425 H   0  0  0  0  0  0  0  0  0  0  0  0
    0.5381    1.1353    5.7325 H   0  0  0  0  0  0  0  0  0  0  0  0
   -0.9015    1.8317    5.6721 H   0  0  0  0  0  0  0  0  0  0  0  0
   -0.3117    4.1709    4.6021 C   0  0  0  0  0  0  0  0  0  0  0  0
   -1.2577    3.9181    4.5607 H   0  0  0  0  0  0  0  0  0  0  0  0
   -0.0789    4.6959    3.8081 H   0  0  0  0  0  0  0  0  0  0  0  0
   -0.1518    4.7071    5.4067 H   0  0  0  0  0  0  0  0  0  0  0  0
    2.9314    4.2237    3.4766 C   0  0  0  0  0  0  0  0  0  0  0  0
    3.9471    5.1620    8.8514 P   0  0  0  0  0  0  0  0  0  0  0  0
    2.7374    5.2996   10.1839 C   0  0  0  0  0  0  0  0  0  0  0  0
    1.1227    5.2513    9.9636 B   0  0  0  0  0  0  0  0  0  0  0  0
    0.6729    5.1762    8.9407 H   0  0  0  0  0  0  0  0  0  0  0  0
    2.0217    6.6340   10.7740 B   0  0  0  0  0  0  0  0  0  0  0  0
    2.2826    7.6556   10.3962 H   0  0  0  0  0  0  0  0  0  0  0  0
    2.9992    5.4230   11.7730 B   0  0  0  0  0  0  0  0  0  0  0  0
    4.0359    5.4820   12.1929 H   0  0  0  0  0  0  0  0  0  0  0  0
    2.0774    4.0345   10.9415 B   0  0  0  0  0  0  0  0  0  0  0  0
    2.3840    2.9853   10.6972 H   0  0  0  0  0  0  0  0  0  0  0  0
    0.3722    4.4006   11.3666 B   0  0  0  0  0  0  0  0  0  0  0  0
   -0.4250    3.6316   11.2006 H   0  0  0  0  0  0  0  0  0  0  0  0
    0.3284    6.2311   11.2432 B   0  0  0  0  0  0  0  0  0  0  0  0
   -0.5059    6.9291   10.9765 H   0  0  0  0  0  0  0  0  0  0  0  0
    1.6492    6.3582   12.5246 B   0  0  0  0  0  0  0  0  0  0  0  0
    1.8719    7.1537   13.2809 H   0  0  0  0  0  0  0  0  0  0  0  0
    1.6976    4.5161   12.6398 B   0  0  0  0  0  0  0  0  0  0  0  0
    1.9653    3.8376   13.4897 H   0  0  0  0  0  0  0  0  0  0  0  0
    0.2470    5.4038   12.7343 B   0  0  0  0  0  0  0  0  0  0  0  0
   -0.5311    5.4333   13.5394 H   0  0  0  0  0  0  0  0  0  0  0  0
    5.4656    4.2983    9.4910 C   0  0  0  0  0  0  0  0  0  0  0  0
    5.9824    4.9653   10.0276 H   0  0  0  0  0  0  0  0  0  0  0  0
    5.2240    3.0836   10.3882 C   0  0  0  0  0  0  0  0  0  0  0  0
    4.7095    2.4106    9.8954 H   0  0  0  0  0  0  0  0  0  0  0  0
    4.7230    3.3597   11.1839 H   0  0  0  0  0  0  0  0  0  0  0  0
    6.0847    2.7020   10.6602 H   0  0  0  0  0  0  0  0  0  0  0  0
    6.3529    3.8803    8.3058 C   0  0  0  0  0  0  0  0  0  0  0  0
    7.2131    3.5521    8.6414 H   0  0  0  0  0  0  0  0  0  0  0  0
    6.5033    4.6529    7.7220 H   0  0  0  0  0  0  0  0  0  0  0  0
    5.9073    3.1697    7.7989 H   0  0  0  0  0  0  0  0  0  0  0  0
    4.4756    6.9102    8.5285 C   0  0  0  0  0  0  0  0  0  0  0  0
    3.6340    7.4268    8.3709 H   0  0  0  0  0  0  0  0  0  0  0  0
    5.1742    7.5940    9.7083 C   0  0  0  0  0  0  0  0  0  0  0  0
    6.0723    7.2177    9.8188 H   0  0  0  0  0  0  0  0  0  0  0  0
    4.6549    7.4456   10.5260 H   0  0  0  0  0  0  0  0  0  0  0  0
    5.2422    8.5561    9.5346 H   0  0  0  0  0  0  0  0  0  0  0  0
    5.3116    7.0665    7.2509 C   0  0  0  0  0  0  0  0  0  0  0  0
    5.3278    8.0095    6.9845 H   0  0  0  0  0  0  0  0  0  0  0  0
    4.9141    6.5310    6.5328 H   0  0  0  0  0  0  0  0  0  0  0  0
    6.2267    6.7589    7.4195 H   0  0  0  0  0  0  0  0  0  0  0  0
    5.3721    6.1315   -1.4114 Li  0  0  0  0  0  0  0  0  0  0  0  0
    4.0156    6.0131   -2.7402 O   0  0  0  0  0  0  0  0  0  0  0  0
    2.6035    6.2158   -2.5530 C   0  0  0  0  0  0  0  0  0  0  0  0
    2.2994    5.8102   -1.7026 H   0  0  0  0  0  0  0  0  0  0  0  0
    2.3847    7.1813   -2.5438 H   0  0  0  0  0  0  0  0  0  0  0  0
    1.9588    5.5296   -3.7369 C   0  0  0  0  0  0  0  0  0  0  0  0
    1.8149    4.5671   -3.5555 H   0  0  0  0  0  0  0  0  0  0  0  0
    1.0910    5.9491   -3.9624 H   0  0  0  0  0  0  0  0  0  0  0  0
    2.9660    5.7293   -4.8500 C   0  0  0  0  0  0  0  0  0  0  0  0
    3.1063    4.8862   -5.3496 H   0  0  0  0  0  0  0  0  0  0  0  0
    2.6555    6.4259   -5.4812 H   0  0  0  0  0  0  0  0  0  0  0  0
    4.2541    6.1657   -4.1573 C   0  0  0  0  0  0  0  0  0  0  0  0
    4.4631    7.1087   -4.3748 H   0  0  0  0  0  0  0  0  0  0  0  0
    5.0126    5.5982   -4.4449 H   0  0  0  0  0  0  0  0  0  0  0  0
    6.5674    4.7175   -1.1644 O   0  0  0  0  0  0  0  0  0  0  0  0
    7.9315    4.8032   -0.6814 C   0  0  0  0  0  0  0  0  0  0  0  0
    8.4528    5.4458   -1.2249 H   0  0  0  0  0  0  0  0  0  0  0  0
    7.9477    5.0995    0.2630 H   0  0  0  0  0  0  0  0  0  0  0  0
    8.5058    3.4096   -0.8108 C   0  0  0  0  0  0  0  0  0  0  0  0
    9.4706    3.4386   -1.0306 H   0  0  0  0  0  0  0  0  0  0  0  0
    8.3781    2.8906    0.0226 H   0  0  0  0  0  0  0  0  0  0  0  0
    7.7006    2.8218   -1.9518 C   0  0  0  0  0  0  0  0  0  0  0  0
    7.6844    1.8329   -1.9087 H   0  0  0  0  0  0  0  0  0  0  0  0
    8.0616    3.1036   -2.8295 H   0  0  0  0  0  0  0  0  0  0  0  0
    6.3294    3.4039   -1.7102 C   0  0  0  0  0  0  0  0  0  0  0  0
    5.8201    2.8460   -1.0704 H   0  0  0  0  0  0  0  0  0  0  0  0
    5.8204    3.4637   -2.5572 H   0  0  0  0  0  0  0  0  0  0  0  0
  1  2  1  0  0  0  0
  2  3  3  0  0  0  0
  4  1  1  0  0  0  0
  5  4  3  0  0  0  0
  6  1  1  0  0  0  0
  7  8  1  0  0  0  0
  9  7  1  0  0  0  0
 10  9  1  0  0  0  0
 11  9  1  0  0  0  0
 12 11  1  0  0  0  0
 13  7  1  0  0  0  0
 14 13  1  0  0  0  0
 15  7  1  0  0  0  0
 16 15  1  0  0  0  0
 17  7  1  0  0  0  0
 18 17  1  0  0  0  0
 19  9  1  0  0  0  0
 20 19  1  0  0  0  0
 21 11  1  0  0  0  0
 22 21  1  0  0  0  0
 23 15  1  0  0  0  0
 24 23  1  0  0  0  0
 25  6  1  0  0  0  0
 26 25  1  0  0  0  0
 27 25  1  0  0  0  0
 28 27  1  0  0  0  0
 29 27  1  0  0  0  0
 30 27  1  0  0  0  0
 31 25  1  0  0  0  0
 32 31  1  0  0  0  0
 33 31  1  0  0  0  0
 34 31  1  0  0  0  0
 35  6  1  0  0  0  0
 36 35  1  0  0  0  0
 37 35  1  0  0  0  0
 38 37  1  0  0  0  0
 39 37  1  0  0  0  0
 40 37  1  0  0  0  0
 41 35  1  0  0  0  0
 42 41  1  0  0  0  0
 43 41  1  0  0  0  0
 44 41  1  0  0  0  0
 45  6  1  0  0  0  0
 46  1  1  0  0  0  0
 47 46  1  0  0  0  0
 48 47  1  0  0  0  0
 49 48  1  0  0  0  0
 50 47  1  0  0  0  0
 51 50  1  0  0  0  0
 52 47  1  0  0  0  0
 53 52  1  0  0  0  0
 54 47  1  0  0  0  0
 55 54  1  0  0  0  0
 56 48  1  0  0  0  0
 57 56  1  0  0  0  0
 58 48  1  0  0  0  0
 59 58  1  0  0  0  0
 60 50  1  0  0  0  0
 61 60  1  0  0  0  0
 62 52  1  0  0  0  0
 63 62  1  0  0  0  0
 64 56  1  0  0  0  0
 65 64  1  0  0  0  0
 66 46  1  0  0  0  0
 67 66  1  0  0  0  0
 68 66  1  0  0  0  0
 69 68  1  0  0  0  0
 70 68  1  0  0  0  0
 71 68  1  0  0  0  0
 72 66  1  0  0  0  0
 73 72  1  0  0  0  0
 74 72  1  0  0  0  0
 75 72  1  0  0  0  0
 76 46  1  0  0  0  0
 77 76  1  0  0  0  0
 78 76  1  0  0  0  0
 79 78  1  0  0  0  0
 80 78  1  0  0  0  0
 81 78  1  0  0  0  0
 82 76  1  0  0  0  0
 83 82  1  0  0  0  0
 84 82  1  0  0  0  0
 85 82  1  0  0  0  0
 86 24  1  0  0  0  0
 87 86  1  0  0  0  0
 88 87  1  0  0  0  0
 89 88  1  0  0  0  0
 90 88  1  0  0  0  0
 91 88  1  0  0  0  0
 92 91  1  0  0  0  0
 93 91  1  0  0  0  0
 94 91  1  0  0  0  0
 95 94  1  0  0  0  0
 96 94  1  0  0  0  0
 97 87  1  0  0  0  0
 98 97  1  0  0  0  0
 99 97  1  0  0  0  0
100 86  1  0  0  0  0
101100  1  0  0  0  0
102101  1  0  0  0  0
103101  1  0  0  0  0
104101  1  0  0  0  0
105104  1  0  0  0  0
106104  1  0  0  0  0
107104  1  0  0  0  0
108107  1  0  0  0  0
109107  1  0  0  0  0
110100  1  0  0  0  0
111110  1  0  0  0  0
112110  1  0  0  0  0
  7 45  1  0  0  0  0
  9 17  1  0  0  0  0
  9 45  1  0  0  0  0
 11 13  1  0  0  0  0
 11 19  1  0  0  0  0
 11 45  1  0  0  0  0
 13 15  1  0  0  0  0
 13 21  1  0  0  0  0
 13 45  1  0  0  0  0
 15 17  1  0  0  0  0
 15 21  1  0  0  0  0
 17 19  1  0  0  0  0
 17 23  1  0  0  0  0
 19 21  1  0  0  0  0
 19 23  1  0  0  0  0
 21 23  1  0  0  0  0
 48 50  1  0  0  0  0
 48 54  1  0  0  0  0
 50 52  1  0  0  0  0
 50 58  1  0  0  0  0
 52 54  1  0  0  0  0
 52 60  1  0  0  0  0
 54 56  1  0  0  0  0
 54 62  1  0  0  0  0
 56 58  1  0  0  0  0
 56 62  1  0  0  0  0
 58 60  1  0  0  0  0
 58 64  1  0  0  0  0
 60 62  1  0  0  0  0
 60 64  1  0  0  0  0
 62 64  1  0  0  0  0
 94 97  1  0  0  0  0
107110  1  0  0  0  0
M  END
$$$$
PUXZAM

From CSD data. Using bond type 'Any'. No disordered atoms. Largest molecule.
115120  0  0  0  0  0  0  0  0999 V2000
    2.0072   10.4481    4.2813 P   0  0  0  0  0  0  0  0  0  0  0  0
    6.4076   11.1176    3.0269 P   0  0  0  0  0  0  0  0  0  0  0  0
    3.3791   12.6384    5.7258 B   0  0  0  0  0  0  0  0  0  0  0  0
    4.8995    9.8026    3.5253 B   0  0  0  0  0  0  0  0  0  0  0  0
    2.9288   12.4929    7.0785 N   0  0  0  0  0  0  0  0  0  0  0  0
    3.0466   13.9770    5.3443 N   0  0  0  0  0  0  0  0  0  0  0  0
    4.1527   11.7492    4.9493 O   0  0  0  0  0  0  0  0  0  0  0  0
    3.7016   10.6478    4.2548 C   0  0  0  0  0  0  0  0  0  0  0  0
    2.3328   13.7078    7.4472 C   0  0  0  0  0  0  0  0  0  0  0  0
    1.9362   13.8858    8.2919 H   0  0  0  0  0  0  0  0  0  0  0  0
    2.4054   14.5800    6.4336 C   0  0  0  0  0  0  0  0  0  0  0  0
    2.0733   15.4698    6.4509 H   0  0  0  0  0  0  0  0  0  0  0  0
    3.0758   11.4481    8.0625 C   0  0  0  0  0  0  0  0  0  0  0  0
    2.0116   10.5733    8.3033 C   0  0  0  0  0  0  0  0  0  0  0  0
    2.1849    9.5735    9.2674 C   0  0  0  0  0  0  0  0  0  0  0  0
    1.4802    8.9587    9.4358 H   0  0  0  0  0  0  0  0  0  0  0  0
    3.3656    9.4676    9.9782 C   0  0  0  0  0  0  0  0  0  0  0  0
    3.4747    8.7728   10.6168 H   0  0  0  0  0  0  0  0  0  0  0  0
    4.3885   10.3723    9.7602 C   0  0  0  0  0  0  0  0  0  0  0  0
    5.1877   10.3044   10.2686 H   0  0  0  0  0  0  0  0  0  0  0  0
    4.2658   11.3822    8.8075 C   0  0  0  0  0  0  0  0  0  0  0  0
    0.6565   10.7648    7.6468 C   0  0  0  0  0  0  0  0  0  0  0  0
    0.7831   11.3534    6.8483 H   0  0  0  0  0  0  0  0  0  0  0  0
    0.0252    9.4582    7.1698 C   0  0  0  0  0  0  0  0  0  0  0  0
    0.6627    8.9752    6.6026 H   0  0  0  0  0  0  0  0  0  0  0  0
   -0.7852    9.6547    6.6557 H   0  0  0  0  0  0  0  0  0  0  0  0
   -0.2057    8.9045    7.9450 H   0  0  0  0  0  0  0  0  0  0  0  0
   -0.2770   11.4933    8.6246 C   0  0  0  0  0  0  0  0  0  0  0  0
   -0.5539   10.8748    9.3330 H   0  0  0  0  0  0  0  0  0  0  0  0
   -1.0678   11.8139    8.1434 H   0  0  0  0  0  0  0  0  0  0  0  0
    0.1956   12.2540    9.0216 H   0  0  0  0  0  0  0  0  0  0  0  0
    5.3914   12.3773    8.5816 C   0  0  0  0  0  0  0  0  0  0  0  0
    4.9783   13.2443    8.3030 H   0  0  0  0  0  0  0  0  0  0  0  0
    6.3025   11.9129    7.4472 C   0  0  0  0  0  0  0  0  0  0  0  0
    6.7467   11.0783    7.7061 H   0  0  0  0  0  0  0  0  0  0  0  0
    6.9770   12.6001    7.2675 H   0  0  0  0  0  0  0  0  0  0  0  0
    5.7674   11.7608    6.6401 H   0  0  0  0  0  0  0  0  0  0  0  0
    6.2312   12.6446    9.8424 C   0  0  0  0  0  0  0  0  0  0  0  0
    5.6394   12.8898   10.5837 H   0  0  0  0  0  0  0  0  0  0  0  0
    6.8579   13.3780    9.6682 H   0  0  0  0  0  0  0  0  0  0  0  0
    6.7328   11.8362   10.0784 H   0  0  0  0  0  0  0  0  0  0  0  0
    3.3802   14.7305    4.1675 C   0  0  0  0  0  0  0  0  0  0  0  0
    2.5548   14.6324    3.0326 C   0  0  0  0  0  0  0  0  0  0  0  0
    2.9413   15.3273    1.8898 C   0  0  0  0  0  0  0  0  0  0  0  0
    2.4074   15.2691    1.1061 H   0  0  0  0  0  0  0  0  0  0  0  0
    4.0857   16.0997    1.8744 C   0  0  0  0  0  0  0  0  0  0  0  0
    4.3500   16.5388    1.0744 H   0  0  0  0  0  0  0  0  0  0  0  0
    4.8475   16.2354    3.0166 C   0  0  0  0  0  0  0  0  0  0  0  0
    5.6127   16.7978    3.0031 H   0  0  0  0  0  0  0  0  0  0  0  0
    4.5121   15.5609    4.1923 C   0  0  0  0  0  0  0  0  0  0  0  0
    1.2417   13.8669    3.0705 C   0  0  0  0  0  0  0  0  0  0  0  0
    1.3463   13.1164    3.7231 H   0  0  0  0  0  0  0  0  0  0  0  0
    0.8513   13.2608    1.7253 C   0  0  0  0  0  0  0  0  0  0  0  0
    0.6770   13.9789    1.0818 H   0  0  0  0  0  0  0  0  0  0  0  0
    0.0441   12.7162    1.8342 H   0  0  0  0  0  0  0  0  0  0  0  0
    1.5832   12.6979    1.3961 H   0  0  0  0  0  0  0  0  0  0  0  0
    0.1231   14.7794    3.5856 C   0  0  0  0  0  0  0  0  0  0  0  0
    0.3751   15.1426    4.4603 H   0  0  0  0  0  0  0  0  0  0  0  0
   -0.7053   14.2635    3.6721 H   0  0  0  0  0  0  0  0  0  0  0  0
   -0.0145   15.5155    2.9536 H   0  0  0  0  0  0  0  0  0  0  0  0
    5.3068   15.8219    5.4581 C   0  0  0  0  0  0  0  0  0  0  0  0
    5.0423   15.1408    6.1410 H   0  0  0  0  0  0  0  0  0  0  0  0
    6.8224   15.7450    5.2662 C   0  0  0  0  0  0  0  0  0  0  0  0
    7.0654   14.8545    4.9364 H   0  0  0  0  0  0  0  0  0  0  0  0
    7.2693   15.9088    6.1230 H   0  0  0  0  0  0  0  0  0  0  0  0
    7.1044   16.4220    4.6162 H   0  0  0  0  0  0  0  0  0  0  0  0
    4.9358   17.2090    5.9936 C   0  0  0  0  0  0  0  0  0  0  0  0
    5.1653   17.8893    5.3263 H   0  0  0  0  0  0  0  0  0  0  0  0
    5.4306   17.3835    6.8213 H   0  0  0  0  0  0  0  0  0  0  0  0
    3.9731   17.2423    6.1756 H   0  0  0  0  0  0  0  0  0  0  0  0
    1.6622    8.8328    3.4670 C   0  0  0  0  0  0  0  0  0  0  0  0
    0.8460    8.7825    2.3439 C   0  0  0  0  0  0  0  0  0  0  0  0
    0.3537    7.6091    1.8253 C   0  0  0  0  0  0  0  0  0  0  0  0
    0.6734    6.4101    2.4367 C   0  0  0  0  0  0  0  0  0  0  0  0
    1.4592    6.4108    3.5675 C   0  0  0  0  0  0  0  0  0  0  0  0
    1.9342    7.6091    4.0664 C   0  0  0  0  0  0  0  0  0  0  0  0
    4.3629    9.2025    2.0944 C   0  0  0  0  0  0  0  0  0  0  0  0
    3.8979   10.0853    1.1204 C   0  0  0  0  0  0  0  0  0  0  0  0
    3.3973    9.7090   -0.1101 C   0  0  0  0  0  0  0  0  0  0  0  0
    3.3542    8.3793   -0.4390 C   0  0  0  0  0  0  0  0  0  0  0  0
    3.7822    7.4533    0.4840 C   0  0  0  0  0  0  0  0  0  0  0  0
    4.2648    7.8687    1.7194 C   0  0  0  0  0  0  0  0  0  0  0  0
    5.6641    8.7437    4.5155 C   0  0  0  0  0  0  0  0  0  0  0  0
    6.7086    7.9392    4.0596 C   0  0  0  0  0  0  0  0  0  0  0  0
    7.4334    7.0704    4.8519 C   0  0  0  0  0  0  0  0  0  0  0  0
    7.1458    6.9837    6.1938 C   0  0  0  0  0  0  0  0  0  0  0  0
    6.1379    7.7586    6.7140 C   0  0  0  0  0  0  0  0  0  0  0  0
    5.4150    8.6074    5.8802 C   0  0  0  0  0  0  0  0  0  0  0  0
    7.1059   10.8111    1.3772 C   0  0  0  0  0  0  0  0  0  0  0  0
    6.4414   11.0373    0.6937 H   0  0  0  0  0  0  0  0  0  0  0  0
    7.3494    9.8652    1.2959 H   0  0  0  0  0  0  0  0  0  0  0  0
    7.9047   11.3655    1.2523 H   0  0  0  0  0  0  0  0  0  0  0  0
    7.8348   10.9886    4.1455 C   0  0  0  0  0  0  0  0  0  0  0  0
    8.5089   11.6539    3.8933 H   0  0  0  0  0  0  0  0  0  0  0  0
    8.2218   10.0905    4.0793 H   0  0  0  0  0  0  0  0  0  0  0  0
    7.5438   11.1517    5.0669 H   0  0  0  0  0  0  0  0  0  0  0  0
    6.0444   12.8812    3.0280 C   0  0  0  0  0  0  0  0  0  0  0  0
    5.8517   13.1743    3.9430 H   0  0  0  0  0  0  0  0  0  0  0  0
    5.2668   13.0549    2.4581 H   0  0  0  0  0  0  0  0  0  0  0  0
    6.8187   13.3740    2.6836 H   0  0  0  0  0  0  0  0  0  0  0  0
    0.5064    9.9297    1.7170 F   0  0  0  0  0  0  0  0  0  0  0  0
   -0.4441    7.6164    0.7480 F   0  0  0  0  0  0  0  0  0  0  0  0
    0.1904    5.2619    1.9623 F   0  0  0  0  0  0  0  0  0  0  0  0
    1.7224    5.2607    4.1887 F   0  0  0  0  0  0  0  0  0  0  0  0
    2.6689    7.5541    5.1866 F   0  0  0  0  0  0  0  0  0  0  0  0
    3.9422   11.4148    1.3569 F   0  0  0  0  0  0  0  0  0  0  0  0
    2.9715   10.6364   -0.9818 F   0  0  0  0  0  0  0  0  0  0  0  0
    2.9169    7.9874   -1.6433 F   0  0  0  0  0  0  0  0  0  0  0  0
    3.7312    6.1512    0.1761 F   0  0  0  0  0  0  0  0  0  0  0  0
    4.5995    6.8824    2.5716 F   0  0  0  0  0  0  0  0  0  0  0  0
    7.0814    8.0128    2.7619 F   0  0  0  0  0  0  0  0  0  0  0  0
    8.4118    6.3197    4.3271 F   0  0  0  0  0  0  0  0  0  0  0  0
    7.8343    6.1507    6.9851 F   0  0  0  0  0  0  0  0  0  0  0  0
    5.8411    7.6746    8.0174 F   0  0  0  0  0  0  0  0  0  0  0  0
    4.4491    9.3050    6.4811 F   0  0  0  0  0  0  0  0  0  0  0  0
  1  8  2  0  0  0  0
  2  4  1  0  0  0  0
  3  5  1  0  0  0  0
  4  8  1  0  0  0  0
  5  9  1  0  0  0  0
  6  3  1  0  0  0  0
  7  3  1  0  0  0  0
  8  7  1  0  0  0  0
  9 10  1  0  0  0  0
 11  6  1  0  0  0  0
 12 11  1  0  0  0  0
 13  5  1  0  0  0  0
 14 13  4  0  0  0  0
 15 14  4  0  0  0  0
 16 15  1  0  0  0  0
 17 15  4  0  0  0  0
 18 17  1  0  0  0  0
 19 17  4  0  0  0  0
 20 19  1  0  0  0  0
 21 13  4  0  0  0  0
 22 14  1  0  0  0  0
 23 22  1  0  0  0  0
 24 22  1  0  0  0  0
 25 24  1  0  0  0  0
 26 24  1  0  0  0  0
 27 24  1  0  0  0  0
 28 22  1  0  0  0  0
 29 28  1  0  0  0  0
 30 28  1  0  0  0  0
 31 28  1  0  0  0  0
 32 21  1  0  0  0  0
 33 32  1  0  0  0  0
 34 32  1  0  0  0  0
 35 34  1  0  0  0  0
 36 34  1  0  0  0  0
 37 34  1  0  0  0  0
 38 32  1  0  0  0  0
 39 38  1  0  0  0  0
 40 38  1  0  0  0  0
 41 38  1  0  0  0  0
 42  6  1  0  0  0  0
 43 42  4  0  0  0  0
 44 43  4  0  0  0  0
 45 44  1  0  0  0  0
 46 44  4  0  0  0  0
 47 46  1  0  0  0  0
 48 46  4  0  0  0  0
 49 48  1  0  0  0  0
 50 42  4  0  0  0  0
 51 43  1  0  0  0  0
 52 51  1  0  0  0  0
 53 51  1  0  0  0  0
 54 53  1  0  0  0  0
 55 53  1  0  0  0  0
 56 53  1  0  0  0  0
 57 51  1  0  0  0  0
 58 57  1  0  0  0  0
 59 57  1  0  0  0  0
 60 57  1  0  0  0  0
 61 50  1  0  0  0  0
 62 61  1  0  0  0  0
 63 61  1  0  0  0  0
 64 63  1  0  0  0  0
 65 63  1  0  0  0  0
 66 63  1  0  0  0  0
 67 61  1  0  0  0  0
 68 67  1  0  0  0  0
 69 67  1  0  0  0  0
 70 67  1  0  0  0  0
 71  1  1  0  0  0  0
 72 71  4  0  0  0  0
 73 72  4  0  0  0  0
 74 73  4  0  0  0  0
 75 74  4  0  0  0  0
 76 71  4  0  0  0  0
 77  4  1  0  0  0  0
 78 77  4  0  0  0  0
 79 78  4  0  0  0  0
 80 79  4  0  0  0  0
 81 80  4  0  0  0  0
 82 77  4  0  0  0  0
 83  4  1  0  0  0  0
 84 83  4  0  0  0  0
 85 84  4  0  0  0  0
 86 85  4  0  0  0  0
 87 86  4  0  0  0  0
 88 83  4  0  0  0  0
 89  2  1  0  0  0  0
 90 89  1  0  0  0  0
 91 89  1  0  0  0  0
 92 89  1  0  0  0  0
 93  2  1  0  0  0  0
 94 93  1  0  0  0  0
 95 93  1  0  0  0  0
 96 93  1  0  0  0  0
 97  2  1  0  0  0  0
 98 97  1  0  0  0  0
 99 97  1  0  0  0  0
100 97  1  0  0  0  0
101 72  1  0  0  0  0
102 73  1  0  0  0  0
103 74  1  0  0  0  0
104 75  1  0  0  0  0
105 76  1  0  0  0  0
106 78  1  0  0  0  0
107 79  1  0  0  0  0
108 80  1  0  0  0  0
109 81  1  0  0  0  0
110 82  1  0  0  0  0
111 84  1  0  0  0  0
112 85  1  0  0  0  0
113 86  1  0  0  0  0
114 87  1  0  0  0  0
115 88  1  0  0  0  0
  9 11  2  0  0  0  0
 19 21  4  0  0  0  0
 48 50  4  0  0  0  0
 75 76  4  0  0  0  0
 81 82  4  0  0  0  0
 87 88  4  0  0  0  0
M  END
$$$$
QAFVOI

From CSD data. Using bond type 'Any'. No disordered atoms. Largest molecule.
 57 78  0  0  0  0  0  0  0  0999 V2000
    3.7720   12.3648    1.5295 Mo  0  0  0  0  0  0  0  0  0  0  0  0
    5.8977   11.9800    2.6624 P   0  0  0  0  0  0  0  0  0  0  0  0
    2.9701   12.9845    3.7304 P   0  0  0  0  0  0  0  0  0  0  0  0
    6.5140   10.0297    2.5245 Cl  0  0  0  0  0  0  0  0  0  0  0  0
    2.7016   15.0191    3.9496 Cl  0  0  0  0  0  0  0  0  0  0  0  0
    3.0803    9.2535    1.7008 O   0  0  0  0  0  0  0  0  0  0  0  0
    5.0621   11.8957   -1.3305 O   0  0  0  0  0  0  0  0  0  0  0  0
    4.1113   15.4345    0.7438 O   0  0  0  0  0  0  0  0  0  0  0  0
    0.7834   12.5706    0.5190 O   0  0  0  0  0  0  0  0  0  0  0  0
    5.5898   13.7349    5.1320 B   0  0  0  0  0  0  0  0  0  0  0  0
    6.9904   12.7275    5.5733 B   0  0  0  0  0  0  0  0  0  0  0  0
    6.4337   11.0380    5.6692 B   0  0  0  0  0  0  0  0  0  0  0  0
    4.6715   11.0149    5.3089 B   0  0  0  0  0  0  0  0  0  0  0  0
    3.8532   11.9360    6.5981 B   0  0  0  0  0  0  0  0  0  0  0  0
    4.4123   13.6341    6.4841 B   0  0  0  0  0  0  0  0  0  0  0  0
    6.1582   13.6759    6.8179 B   0  0  0  0  0  0  0  0  0  0  0  0
    6.6766   11.9863    7.1518 B   0  0  0  0  0  0  0  0  0  0  0  0
    5.2492   10.9200    6.9882 B   0  0  0  0  0  0  0  0  0  0  0  0
    5.0865   12.5519    7.7171 B   0  0  0  0  0  0  0  0  0  0  0  0
    5.7490   12.1274    4.5453 C   0  0  0  0  0  0  0  0  0  0  0  0
    4.2333   12.6670    5.0924 C   0  0  0  0  0  0  0  0  0  0  0  0
    7.4612   12.8599    2.3536 C   0  0  0  0  0  0  0  0  0  0  0  0
    7.4042   14.1810    1.9272 C   0  0  0  0  0  0  0  0  0  0  0  0
    8.5596   14.9077    1.7454 C   0  0  0  0  0  0  0  0  0  0  0  0
    9.7859   14.3220    1.9586 C   0  0  0  0  0  0  0  0  0  0  0  0
    9.8638   13.0139    2.3883 C   0  0  0  0  0  0  0  0  0  0  0  0
    8.7223   12.2871    2.5801 C   0  0  0  0  0  0  0  0  0  0  0  0
    1.4309   12.3706    4.5023 C   0  0  0  0  0  0  0  0  0  0  0  0
    0.6579   13.1160    5.3767 C   0  0  0  0  0  0  0  0  0  0  0  0
   -0.4870   12.5706    5.9320 C   0  0  0  0  0  0  0  0  0  0  0  0
   -0.8590   11.2783    5.6378 C   0  0  0  0  0  0  0  0  0  0  0  0
   -0.0883   10.5285    4.7932 C   0  0  0  0  0  0  0  0  0  0  0  0
    1.0403   11.0596    4.2048 C   0  0  0  0  0  0  0  0  0  0  0  0
    3.3592   10.3587    1.6826 C   0  0  0  0  0  0  0  0  0  0  0  0
    4.5948   12.0180   -0.2959 C   0  0  0  0  0  0  0  0  0  0  0  0
    4.0322   14.3465    1.0760 C   0  0  0  0  0  0  0  0  0  0  0  0
    1.8819   12.5159    0.8363 C   0  0  0  0  0  0  0  0  0  0  0  0
    5.6781   14.5508    4.4081 H   0  0  0  0  0  0  0  0  0  0  0  0
    7.9378   12.9664    5.1139 H   0  0  0  0  0  0  0  0  0  0  0  0
    7.0671   10.2537    5.2643 H   0  0  0  0  0  0  0  0  0  0  0  0
    4.2159   10.2537    4.6593 H   0  0  0  0  0  0  0  0  0  0  0  0
    2.8048   11.7086    6.7816 H   0  0  0  0  0  0  0  0  0  0  0  0
    3.6649   14.4443    6.6262 H   0  0  0  0  0  0  0  0  0  0  0  0
    6.6034   14.5508    7.2477 H   0  0  0  0  0  0  0  0  0  0  0  0
    7.5588   11.7028    7.7485 H   0  0  0  0  0  0  0  0  0  0  0  0
    5.0946   10.0277    7.5154 H   0  0  0  0  0  0  0  0  0  0  0  0
    4.9075   12.6699    8.8410 H   0  0  0  0  0  0  0  0  0  0  0  0
    6.6057   14.5652    1.7024 H   0  0  0  0  0  0  0  0  0  0  0  0
    8.4759   15.7525    1.4380 H   0  0  0  0  0  0  0  0  0  0  0  0
   10.5008   14.8329    1.7669 H   0  0  0  0  0  0  0  0  0  0  0  0
   10.6879   12.5865    2.5255 H   0  0  0  0  0  0  0  0  0  0  0  0
    8.8095   11.3819    2.8065 H   0  0  0  0  0  0  0  0  0  0  0  0
    0.8357   14.0083    5.5882 H   0  0  0  0  0  0  0  0  0  0  0  0
   -0.9311   13.0599    6.5006 H   0  0  0  0  0  0  0  0  0  0  0  0
   -1.5378   10.8653    6.0642 H   0  0  0  0  0  0  0  0  0  0  0  0
   -0.3615    9.6521    4.4858 H   0  0  0  0  0  0  0  0  0  0  0  0
    1.5343   10.5775    3.6032 H   0  0  0  0  0  0  0  0  0  0  0  0
  1  2  1  0  0  0  0
  2  4  1  0  0  0  0
  3  1  1  0  0  0  0
  5  3  1  0  0  0  0
  6 34  3  0  0  0  0
  7 35  3  0  0  0  0
  8 36  3  0  0  0  0
  9 37  3  0  0  0  0
 10 11  1  0  0  0  0
 11 12  1  0  0  0  0
 12 13  1  0  0  0  0
 13 14  1  0  0  0  0
 14 15  1  0  0  0  0
 15 10  1  0  0  0  0
 16 10  1  0  0  0  0
 17 11  1  0  0  0  0
 18 12  1  0  0  0  0
 19 14  1  0  0  0  0
 20  2  1  0  0  0  0
 21  3  1  0  0  0  0
 22  2  1  0  0  0  0
 23 22  4  0  0  0  0
 24 23  4  0  0  0  0
 25 24  4  0  0  0  0
 26 25  4  0  0  0  0
 27 22  4  0  0  0  0
 28  3  1  0  0  0  0
 29 28  4  0  0  0  0
 30 29  4  0  0  0  0
 31 30  4  0  0  0  0
 32 31  4  0  0  0  0
 33 28  4  0  0  0  0
 34  1  1  0  0  0  0
 35  1  1  0  0  0  0
 36  1  1  0  0  0  0
 37  1  1  0  0  0  0
 38 10  1  0  0  0  0
 39 11  1  0  0  0  0
 40 12  1  0  0  0  0
 41 13  1  0  0  0  0
 42 14  1  0  0  0  0
 43 15  1  0  0  0  0
 44 16  1  0  0  0  0
 45 17  1  0  0  0  0
 46 18  1  0  0  0  0
 47 19  1  0  0  0  0
 48 23  1  0  0  0  0
 49 24  1  0  0  0  0
 50 25  1  0  0  0  0
 51 26  1  0  0  0  0
 52 27  1  0  0  0  0
 53 29  1  0  0  0  0
 54 30  1  0  0  0  0
 55 31  1  0  0  0  0
 56 32  1  0  0  0  0
 57 33  1  0  0  0  0
 10 20  1  0  0  0  0
 10 21  1  0  0  0  0
 11 16  1  0  0  0  0
 11 20  1  0  0  0  0
 12 17  1  0  0  0  0
 12 20  1  0  0  0  0
 13 18  1  0  0  0  0
 13 20  1  0  0  0  0
 13 21  1  0  0  0  0
 14 18  1  0  0  0  0
 14 21  1  0  0  0  0
 15 16  1  0  0  0  0
 15 19  1  0  0  0  0
 15 21  1  0  0  0  0
 16 17  1  0  0  0  0
 16 19  1  0  0  0  0
 17 18  1  0  0  0  0
 17 19  1  0  0  0  0
 18 19  1  0  0  0  0
 20 21  1  0  0  0  0
 26 27  4  0  0  0  0
 32 33  4  0  0  0  0
M  END
$$$$
QEVXAR

From CSD data. Using bond type 'Any'. No disordered atoms. Largest molecule.
139180  0  0  0  0  0  0  0  0999 V2000
    3.8242    6.0776    0.0000 Cu  0  0  0  0  0  0  0  0  0  0  0  0
    4.2439    5.9794    3.2337 P   0  0  0  0  0  0  0  0  0  0  0  0
    3.8424    8.9567    1.3299 P   0  0  0  0  0  0  0  0  0  0  0  0
    3.5857    5.7740    1.8741 O   0  0  0  0  0  0  0  0  0  0  0  0
    3.5400    7.9378    0.2635 O   0  0  0  0  0  0  0  0  0  0  0  0
    7.9862    7.9929    2.3026 B   0  0  0  0  0  0  0  0  0  0  0  0
    8.9141    7.7717    1.7554 H   0  0  0  0  0  0  0  0  0  0  0  0
    6.4124    7.4316    1.7341 B   0  0  0  0  0  0  0  0  0  0  0  0
    6.2640    6.8348    0.8225 H   0  0  0  0  0  0  0  0  0  0  0  0
    6.8205    9.1343    1.6866 B   0  0  0  0  0  0  0  0  0  0  0  0
    6.5792    9.5964    0.7193 H   0  0  0  0  0  0  0  0  0  0  0  0
    7.7283    9.5668    3.1287 B   0  0  0  0  0  0  0  0  0  0  0  0
    8.4751   10.3738    3.1014 H   0  0  0  0  0  0  0  0  0  0  0  0
    7.9290    8.0356    4.0806 B   0  0  0  0  0  0  0  0  0  0  0  0
    8.8189    7.8156    4.6895 H   0  0  0  0  0  0  0  0  0  0  0  0
    7.1509    6.7531    3.2106 B   0  0  0  0  0  0  0  0  0  0  0  0
    7.5087    5.7140    3.2343 H   0  0  0  0  0  0  0  0  0  0  0  0
    5.9842    9.9273    3.1026 B   0  0  0  0  0  0  0  0  0  0  0  0
    5.4643   10.8766    2.9068 H   0  0  0  0  0  0  0  0  0  0  0  0
    6.7934    9.3024    4.6100 B   0  0  0  0  0  0  0  0  0  0  0  0
    6.5696    9.8618    5.5310 H   0  0  0  0  0  0  0  0  0  0  0  0
    6.3453    7.5491    4.6183 B   0  0  0  0  0  0  0  0  0  0  0  0
    5.8305    7.2374    5.5381 H   0  0  0  0  0  0  0  0  0  0  0  0
    5.0249    4.4465    3.7495 C   0  0  0  0  0  0  0  0  0  0  0  0
    5.3517    4.1715    5.0610 C   0  0  0  0  0  0  0  0  0  0  0  0
    5.1811    4.7964    5.7280 H   0  0  0  0  0  0  0  0  0  0  0  0
    5.9385    2.9502    5.3767 C   0  0  0  0  0  0  0  0  0  0  0  0
    6.1923    2.7797    6.2550 H   0  0  0  0  0  0  0  0  0  0  0  0
    6.1452    2.0226    4.4450 C   0  0  0  0  0  0  0  0  0  0  0  0
    6.5336    1.2098    4.6776 H   0  0  0  0  0  0  0  0  0  0  0  0
    5.7889    2.2584    3.1584 C   0  0  0  0  0  0  0  0  0  0  0  0
    5.9152    1.5938    2.5210 H   0  0  0  0  0  0  0  0  0  0  0  0
    5.2438    3.4683    2.7786 C   0  0  0  0  0  0  0  0  0  0  0  0
    5.0260    3.6292    1.8896 H   0  0  0  0  0  0  0  0  0  0  0  0
    5.4807    7.2915    3.2213 C   0  0  0  0  0  0  0  0  0  0  0  0
    5.3118    8.6249    2.3406 C   0  0  0  0  0  0  0  0  0  0  0  0
    2.9935    6.3097    4.4759 C   0  0  0  0  0  0  0  0  0  0  0  0
    1.8837    5.4803    4.4118 C   0  0  0  0  0  0  0  0  0  0  0  0
    1.8128    4.8417    3.7388 H   0  0  0  0  0  0  0  0  0  0  0  0
    0.8801    5.6144    5.3601 C   0  0  0  0  0  0  0  0  0  0  0  0
    0.1326    5.0630    5.3209 H   0  0  0  0  0  0  0  0  0  0  0  0
    0.9781    6.5326    6.3357 C   0  0  0  0  0  0  0  0  0  0  0  0
    0.3227    6.5835    6.9933 H   0  0  0  0  0  0  0  0  0  0  0  0
    2.0259    7.3795    6.3607 C   0  0  0  0  0  0  0  0  0  0  0  0
    2.0635    8.0514    7.0016 H   0  0  0  0  0  0  0  0  0  0  0  0
    3.0300    7.2535    5.4515 C   0  0  0  0  0  0  0  0  0  0  0  0
    3.7596    7.8282    5.5002 H   0  0  0  0  0  0  0  0  0  0  0  0
    2.4560    9.1634    2.4403 C   0  0  0  0  0  0  0  0  0  0  0  0
    1.2878    8.4448    2.1863 C   0  0  0  0  0  0  0  0  0  0  0  0
    1.2478    7.8619    1.4623 H   0  0  0  0  0  0  0  0  0  0  0  0
    0.1719    8.6026    3.0231 C   0  0  0  0  0  0  0  0  0  0  0  0
   -0.6013    8.1097    2.8664 H   0  0  0  0  0  0  0  0  0  0  0  0
    0.2223    9.4718    4.0581 C   0  0  0  0  0  0  0  0  0  0  0  0
   -0.5199    9.5840    4.6076 H   0  0  0  0  0  0  0  0  0  0  0  0
    1.3296   10.1639    4.2907 C   0  0  0  0  0  0  0  0  0  0  0  0
    1.3410   10.7722    4.9945 H   0  0  0  0  0  0  0  0  0  0  0  0
    2.4700   10.0115    3.5145 C   0  0  0  0  0  0  0  0  0  0  0  0
    3.2435   10.4843    3.7245 H   0  0  0  0  0  0  0  0  0  0  0  0
    4.0772   10.4940    0.4392 C   0  0  0  0  0  0  0  0  0  0  0  0
    3.5664   11.6795    0.8130 C   0  0  0  0  0  0  0  0  0  0  0  0
    3.0758   11.7341    1.6011 H   0  0  0  0  0  0  0  0  0  0  0  0
    3.7489   12.8206    0.0570 C   0  0  0  0  0  0  0  0  0  0  0  0
    3.3785   13.6260    0.3371 H   0  0  0  0  0  0  0  0  0  0  0  0
    4.4613   12.7727   -1.0837 C   0  0  0  0  0  0  0  0  0  0  0  0
    4.5916   13.5441   -1.5881 H   0  0  0  0  0  0  0  0  0  0  0  0
    4.9794   11.6089   -1.4848 C   0  0  0  0  0  0  0  0  0  0  0  0
    5.4961   11.5866   -2.2575 H   0  0  0  0  0  0  0  0  0  0  0  0
    4.7659   10.4360   -0.7798 C   0  0  0  0  0  0  0  0  0  0  0  0
    5.0738    9.6228   -1.1098 H   0  0  0  0  0  0  0  0  0  0  0  0
    5.5779    9.2254    4.4391 H   0  0  0  0  0  0  0  0  0  0  0  0
    3.4045    6.1758   -3.2337 P   0  0  0  0  0  0  0  0  0  0  0  0
    3.8059    3.1985   -1.3299 P   0  0  0  0  0  0  0  0  0  0  0  0
    4.0627    6.3812   -1.8741 O   0  0  0  0  0  0  0  0  0  0  0  0
    4.1083    4.2174   -0.2635 O   0  0  0  0  0  0  0  0  0  0  0  0
   -0.3379    4.1623   -2.3026 B   0  0  0  0  0  0  0  0  0  0  0  0
   -1.2658    4.3835   -1.7554 H   0  0  0  0  0  0  0  0  0  0  0  0
    1.2359    4.7236   -1.7341 B   0  0  0  0  0  0  0  0  0  0  0  0
    1.3843    5.3204   -0.8225 H   0  0  0  0  0  0  0  0  0  0  0  0
    0.8278    3.0209   -1.6866 B   0  0  0  0  0  0  0  0  0  0  0  0
    1.0691    2.5588   -0.7193 H   0  0  0  0  0  0  0  0  0  0  0  0
   -0.0800    2.5884   -3.1287 B   0  0  0  0  0  0  0  0  0  0  0  0
   -0.8268    1.7813   -3.1014 H   0  0  0  0  0  0  0  0  0  0  0  0
   -0.2806    4.1196   -4.0806 B   0  0  0  0  0  0  0  0  0  0  0  0
   -1.1706    4.3396   -4.6895 H   0  0  0  0  0  0  0  0  0  0  0  0
    0.4975    5.4021   -3.2106 B   0  0  0  0  0  0  0  0  0  0  0  0
    0.1396    6.4412   -3.2343 H   0  0  0  0  0  0  0  0  0  0  0  0
    1.6642    2.2279   -3.1026 B   0  0  0  0  0  0  0  0  0  0  0  0
    2.1840    1.2786   -2.9068 H   0  0  0  0  0  0  0  0  0  0  0  0
    0.8549    2.8528   -4.6100 B   0  0  0  0  0  0  0  0  0  0  0  0
    1.0788    2.2934   -5.5310 H   0  0  0  0  0  0  0  0  0  0  0  0
    1.3030    4.6061   -4.6183 B   0  0  0  0  0  0  0  0  0  0  0  0
    1.8178    4.9177   -5.5381 H   0  0  0  0  0  0  0  0  0  0  0  0
    2.6234    7.7087   -3.7495 C   0  0  0  0  0  0  0  0  0  0  0  0
    2.2966    7.9837   -5.0610 C   0  0  0  0  0  0  0  0  0  0  0  0
    2.4673    7.3588   -5.7280 H   0  0  0  0  0  0  0  0  0  0  0  0
    1.7099    9.2050   -5.3767 C   0  0  0  0  0  0  0  0  0  0  0  0
    1.4560    9.3755   -6.2550 H   0  0  0  0  0  0  0  0  0  0  0  0
    1.5032   10.1326   -4.4450 C   0  0  0  0  0  0  0  0  0  0  0  0
    1.1147   10.9453   -4.6776 H   0  0  0  0  0  0  0  0  0  0  0  0
    1.8594    9.8968   -3.1584 C   0  0  0  0  0  0  0  0  0  0  0  0
    1.7332   10.5614   -2.5210 H   0  0  0  0  0  0  0  0  0  0  0  0
    2.4045    8.6869   -2.7786 C   0  0  0  0  0  0  0  0  0  0  0  0
    2.6223    8.5260   -1.8896 H   0  0  0  0  0  0  0  0  0  0  0  0
    2.1676    4.8637   -3.2213 C   0  0  0  0  0  0  0  0  0  0  0  0
    2.3365    3.5303   -2.3406 C   0  0  0  0  0  0  0  0  0  0  0  0
    4.6548    5.8455   -4.4759 C   0  0  0  0  0  0  0  0  0  0  0  0
    5.7646    6.6749   -4.4118 C   0  0  0  0  0  0  0  0  0  0  0  0
    5.8356    7.3135   -3.7388 H   0  0  0  0  0  0  0  0  0  0  0  0
    6.7683    6.5408   -5.3601 C   0  0  0  0  0  0  0  0  0  0  0  0
    7.5158    7.0921   -5.3209 H   0  0  0  0  0  0  0  0  0  0  0  0
    6.6702    5.6226   -6.3357 C   0  0  0  0  0  0  0  0  0  0  0  0
    7.3257    5.5717   -6.9933 H   0  0  0  0  0  0  0  0  0  0  0  0
    5.6224    4.7756   -6.3607 C   0  0  0  0  0  0  0  0  0  0  0  0
    5.5849    4.1038   -7.0016 H   0  0  0  0  0  0  0  0  0  0  0  0
    4.6183    4.9017   -5.4515 C   0  0  0  0  0  0  0  0  0  0  0  0
    3.8888    4.3270   -5.5002 H   0  0  0  0  0  0  0  0  0  0  0  0
    5.1923    2.9918   -2.4403 C   0  0  0  0  0  0  0  0  0  0  0  0
    6.3606    3.7104   -2.1863 C   0  0  0  0  0  0  0  0  0  0  0  0
    6.4005    4.2933   -1.4623 H   0  0  0  0  0  0  0  0  0  0  0  0
    7.4764    3.5526   -3.0231 C   0  0  0  0  0  0  0  0  0  0  0  0
    8.2496    4.0455   -2.8664 H   0  0  0  0  0  0  0  0  0  0  0  0
    7.4261    2.6834   -4.0581 C   0  0  0  0  0  0  0  0  0  0  0  0
    8.1682    2.5712   -4.6076 H   0  0  0  0  0  0  0  0  0  0  0  0
    6.3188    1.9913   -4.2907 C   0  0  0  0  0  0  0  0  0  0  0  0
    6.3074    1.3830   -4.9945 H   0  0  0  0  0  0  0  0  0  0  0  0
    5.1784    2.1436   -3.5145 C   0  0  0  0  0  0  0  0  0  0  0  0
    4.4049    1.6709   -3.7245 H   0  0  0  0  0  0  0  0  0  0  0  0
    3.5711    1.6612   -0.4392 C   0  0  0  0  0  0  0  0  0  0  0  0
    4.0820    0.4757   -0.8130 C   0  0  0  0  0  0  0  0  0  0  0  0
    4.5726    0.4211   -1.6011 H   0  0  0  0  0  0  0  0  0  0  0  0
    3.8995   -0.6654   -0.0570 C   0  0  0  0  0  0  0  0  0  0  0  0
    4.2698   -1.4708   -0.3371 H   0  0  0  0  0  0  0  0  0  0  0  0
    3.1871   -0.6175    1.0837 C   0  0  0  0  0  0  0  0  0  0  0  0
    3.0567   -1.3889    1.5881 H   0  0  0  0  0  0  0  0  0  0  0  0
    2.6689    0.5462    1.4848 C   0  0  0  0  0  0  0  0  0  0  0  0
    2.1522    0.5686    2.2575 H   0  0  0  0  0  0  0  0  0  0  0  0
    2.8824    1.7191    0.7798 C   0  0  0  0  0  0  0  0  0  0  0  0
    2.5745    2.5324    1.1098 H   0  0  0  0  0  0  0  0  0  0  0  0
    2.0705    2.9298   -4.4391 H   0  0  0  0  0  0  0  0  0  0  0  0
  1  4  1  0  0  0  0
  2  4  2  0  0  0  0
  3  5  2  0  0  0  0
  5  1  1  0  0  0  0
  6  7  1  0  0  0  0
  8  6  1  0  0  0  0
  9  8  1  0  0  0  0
 10  6  1  0  0  0  0
 11 10  1  0  0  0  0
 12  6  1  0  0  0  0
 13 12  1  0  0  0  0
 14  6  1  0  0  0  0
 15 14  1  0  0  0  0
 16  6  1  0  0  0  0
 17 16  1  0  0  0  0
 18 10  1  0  0  0  0
 19 18  1  0  0  0  0
 20 12  1  0  0  0  0
 21 20  1  0  0  0  0
 22 14  1  0  0  0  0
 23 22  1  0  0  0  0
 24  2  1  0  0  0  0
 25 24  4  0  0  0  0
 26 25  1  0  0  0  0
 27 25  4  0  0  0  0
 28 27  1  0  0  0  0
 29 27  4  0  0  0  0
 30 29  1  0  0  0  0
 31 29  4  0  0  0  0
 32 31  1  0  0  0  0
 33 24  4  0  0  0  0
 34 33  1  0  0  0  0
 35  2  1  0  0  0  0
 36  3  1  0  0  0  0
 37  2  1  0  0  0  0
 38 37  4  0  0  0  0
 39 38  1  0  0  0  0
 40 38  4  0  0  0  0
 41 40  1  0  0  0  0
 42 40  4  0  0  0  0
 43 42  1  0  0  0  0
 44 42  4  0  0  0  0
 45 44  1  0  0  0  0
 46 37  4  0  0  0  0
 47 46  1  0  0  0  0
 48  3  1  0  0  0  0
 49 48  4  0  0  0  0
 50 49  1  0  0  0  0
 51 49  4  0  0  0  0
 52 51  1  0  0  0  0
 53 51  4  0  0  0  0
 54 53  1  0  0  0  0
 55 53  4  0  0  0  0
 56 55  1  0  0  0  0
 57 48  4  0  0  0  0
 58 57  1  0  0  0  0
 59  3  1  0  0  0  0
 60 59  4  0  0  0  0
 61 60  1  0  0  0  0
 62 60  4  0  0  0  0
 63 62  1  0  0  0  0
 64 62  4  0  0  0  0
 65 64  1  0  0  0  0
 66 64  4  0  0  0  0
 67 66  1  0  0  0  0
 68 59  4  0  0  0  0
 69 68  1  0  0  0  0
 70 18  1  0  0  0  0
 71 73  2  0  0  0  0
 72 74  2  0  0  0  0
 73  1  1  0  0  0  0
 74  1  1  0  0  0  0
 75 76  1  0  0  0  0
 77 75  1  0  0  0  0
 78 77  1  0  0  0  0
 79 75  1  0  0  0  0
 80 79  1  0  0  0  0
 81 75  1  0  0  0  0
 82 81  1  0  0  0  0
 83 75  1  0  0  0  0
 84 83  1  0  0  0  0
 85 75  1  0  0  0  0
 86 85  1  0  0  0  0
 87 79  1  0  0  0  0
 88 87  1  0  0  0  0
 89 81  1  0  0  0  0
 90 89  1  0  0  0  0
 91 83  1  0  0  0  0
 92 91  1  0  0  0  0
 93 71  1  0  0  0  0
 94 93  4  0  0  0  0
 95 94  1  0  0  0  0
 96 94  4  0  0  0  0
 97 96  1  0  0  0  0
 98 96  4  0  0  0  0
 99 98  1  0  0  0  0
100 98  4  0  0  0  0
101100  1  0  0  0  0
102 93  4  0  0  0  0
103102  1  0  0  0  0
104 71  1  0  0  0  0
105 72  1  0  0  0  0
106 71  1  0  0  0  0
107106  4  0  0  0  0
108107  1  0  0  0  0
109107  4  0  0  0  0
110109  1  0  0  0  0
111109  4  0  0  0  0
112111  1  0  0  0  0
113111  4  0  0  0  0
114113  1  0  0  0  0
115106  4  0  0  0  0
116115  1  0  0  0  0
117 72  1  0  0  0  0
118117  4  0  0  0  0
119118  1  0  0  0  0
120118  4  0  0  0  0
121120  1  0  0  0  0
122120  4  0  0  0  0
123122  1  0  0  0  0
124122  4  0  0  0  0
125124  1  0  0  0  0
126117  4  0  0  0  0
127126  1  0  0  0  0
128 72  1  0  0  0  0
129128  4  0  0  0  0
130129  1  0  0  0  0
131129  4  0  0  0  0
132131  1  0  0  0  0
133131  4  0  0  0  0
134133  1  0  0  0  0
135133  4  0  0  0  0
136135  1  0  0  0  0
137128  4  0  0  0  0
138137  1  0  0  0  0
139 87  1  0  0  0  0
  8 10  1  0  0  0  0
  8 16  1  0  0  0  0
  8 35  1  0  0  0  0
  8 36  1  0  0  0  0
 10 12  1  0  0  0  0
 10 36  1  0  0  0  0
 12 14  1  0  0  0  0
 12 18  1  0  0  0  0
 14 16  1  0  0  0  0
 14 20  1  0  0  0  0
 16 22  1  0  0  0  0
 16 35  1  0  0  0  0
 18 20  1  0  0  0  0
 18 36  1  0  0  0  0
 20 22  1  0  0  0  0
 20 70  1  0  0  0  0
 22 35  1  0  0  0  0
 31 33  4  0  0  0  0
 35 36  1  0  0  0  0
 44 46  4  0  0  0  0
 55 57  4  0  0  0  0
 66 68  4  0  0  0  0
 77 79  1  0  0  0  0
 77 85  1  0  0  0  0
 77104  1  0  0  0  0
 77105  1  0  0  0  0
 79 81  1  0  0  0  0
 79105  1  0  0  0  0
 81 83  1  0  0  0  0
 81 87  1  0  0  0  0
 83 85  1  0  0  0  0
 83 89  1  0  0  0  0
 85 91  1  0  0  0  0
 85104  1  0  0  0  0
 87 89  1  0  0  0  0
 87105  1  0  0  0  0
 89 91  1  0  0  0  0
 89139  1  0  0  0  0
 91104  1  0  0  0  0
100102  4  0  0  0  0
104105  1  0  0  0  0
113115  4  0  0  0  0
124126  4  0  0  0  0
135137  4  0  0  0  0
M  END
$$$$
QEVXEV

From CSD data. Using bond type 'Any'. No disordered atoms. Largest molecule.
139180  0  0  0  0  0  0  0  0999 V2000
   -0.6128    1.8909   11.8540 Zn  0  0  0  0  0  0  0  0  0  0  0  0
   -0.6059   -0.9839   10.5272 P   0  0  0  0  0  0  0  0  0  0  0  0
   -1.0223    1.9863    8.6323 P   0  0  0  0  0  0  0  0  0  0  0  0
   -0.3001    0.0333   11.5790 O   0  0  0  0  0  0  0  0  0  0  0  0
   -0.3516    2.1929    9.9645 O   0  0  0  0  0  0  0  0  0  0  0  0
   -4.7453   -0.0346    9.5354 B   0  0  0  0  0  0  0  0  0  0  0  0
   -5.6763    0.1918   10.0735 H   0  0  0  0  0  0  0  0  0  0  0  0
   -3.1739    0.5340   10.1304 B   0  0  0  0  0  0  0  0  0  0  0  0
   -3.0222    1.1291   11.0432 H   0  0  0  0  0  0  0  0  0  0  0  0
   -3.9162    1.2025    8.6321 B   0  0  0  0  0  0  0  0  0  0  0  0
   -4.2817    2.2400    8.6001 H   0  0  0  0  0  0  0  0  0  0  0  0
   -4.6871   -0.0843    7.7501 B   0  0  0  0  0  0  0  0  0  0  0  0
   -5.5683    0.1244    7.1254 H   0  0  0  0  0  0  0  0  0  0  0  0
   -4.4904   -1.6190    8.7210 B   0  0  0  0  0  0  0  0  0  0  0  0
   -5.2309   -2.4315    8.7471 H   0  0  0  0  0  0  0  0  0  0  0  0
   -3.6064   -1.1719   10.1719 B   0  0  0  0  0  0  0  0  0  0  0  0
   -3.7775   -1.6763   11.1345 H   0  0  0  0  0  0  0  0  0  0  0  0
   -3.1045    0.4237    7.2665 B   0  0  0  0  0  0  0  0  0  0  0  0
   -2.5721    0.7485    6.3597 H   0  0  0  0  0  0  0  0  0  0  0  0
   -3.5574   -1.3422    7.2475 B   0  0  0  0  0  0  0  0  0  0  0  0
   -3.3291   -1.8980    6.3265 H   0  0  0  0  0  0  0  0  0  0  0  0
   -2.7644   -1.9604    8.7648 B   0  0  0  0  0  0  0  0  0  0  0  0
   -2.0678   -2.7920    8.5870 H   0  0  0  0  0  0  0  0  0  0  0  0
   -0.8439   -2.5207   11.4308 C   0  0  0  0  0  0  0  0  0  0  0  0
   -1.5402   -2.4626   12.6233 C   0  0  0  0  0  0  0  0  0  0  0  0
   -1.8649   -1.6502   12.9386 H   0  0  0  0  0  0  0  0  0  0  0  0
   -1.7480   -3.6294   13.3440 C   0  0  0  0  0  0  0  0  0  0  0  0
   -2.2693   -3.5941   14.1122 H   0  0  0  0  0  0  0  0  0  0  0  0
   -1.2274   -4.7950   12.9754 C   0  0  0  0  0  0  0  0  0  0  0  0
   -1.3410   -5.5535   13.4993 H   0  0  0  0  0  0  0  0  0  0  0  0
   -0.5223   -4.8498   11.8078 C   0  0  0  0  0  0  0  0  0  0  0  0
   -0.1732   -5.6625   11.5209 H   0  0  0  0  0  0  0  0  0  0  0  0
   -0.3197   -3.7238   11.0515 C   0  0  0  0  0  0  0  0  0  0  0  0
    0.1828   -3.7811   10.2703 H   0  0  0  0  0  0  0  0  0  0  0  0
   -2.0884   -0.6540    9.5223 C   0  0  0  0  0  0  0  0  0  0  0  0
   -2.2609    0.6672    8.6451 C   0  0  0  0  0  0  0  0  0  0  0  0
    0.7833   -1.1738    9.4121 C   0  0  0  0  0  0  0  0  0  0  0  0
    1.9207   -0.4653    9.6646 C   0  0  0  0  0  0  0  0  0  0  0  0
    1.9564    0.1124   10.3924 H   0  0  0  0  0  0  0  0  0  0  0  0
    3.0414   -0.6109    8.8206 C   0  0  0  0  0  0  0  0  0  0  0  0
    3.8115   -0.1113    8.9747 H   0  0  0  0  0  0  0  0  0  0  0  0
    2.9913   -1.4793    7.7857 C   0  0  0  0  0  0  0  0  0  0  0  0
    3.7285   -1.5803    7.2286 H   0  0  0  0  0  0  0  0  0  0  0  0
    1.8905   -2.1901    7.5640 C   0  0  0  0  0  0  0  0  0  0  0  0
    1.8850   -2.8016    6.8635 H   0  0  0  0  0  0  0  0  0  0  0  0
    0.7650   -2.0546    8.3298 C   0  0  0  0  0  0  0  0  0  0  0  0
   -0.0019   -2.5411    8.1318 H   0  0  0  0  0  0  0  0  0  0  0  0
    0.2455    1.6809    7.3815 C   0  0  0  0  0  0  0  0  0  0  0  0
    1.3266    2.4922    7.4621 C   0  0  0  0  0  0  0  0  0  0  0  0
    1.3954    3.1298    8.1366 H   0  0  0  0  0  0  0  0  0  0  0  0
    2.3453    2.3436    6.4924 C   0  0  0  0  0  0  0  0  0  0  0  0
    3.0944    2.8932    6.5280 H   0  0  0  0  0  0  0  0  0  0  0  0
    2.2494    1.4332    5.5323 C   0  0  0  0  0  0  0  0  0  0  0  0
    2.9115    1.3691    4.8838 H   0  0  0  0  0  0  0  0  0  0  0  0
    1.2004    0.6052    5.4991 C   0  0  0  0  0  0  0  0  0  0  0  0
    1.1601   -0.0557    4.8459 H   0  0  0  0  0  0  0  0  0  0  0  0
    0.1860    0.7141    6.4059 C   0  0  0  0  0  0  0  0  0  0  0  0
   -0.5417    0.1362    6.3644 H   0  0  0  0  0  0  0  0  0  0  0  0
   -1.8103    3.5086    8.1105 C   0  0  0  0  0  0  0  0  0  0  0  0
   -2.1343    3.7914    6.7959 C   0  0  0  0  0  0  0  0  0  0  0  0
   -1.9625    3.1665    6.1297 H   0  0  0  0  0  0  0  0  0  0  0  0
   -2.7143    5.0048    6.4735 C   0  0  0  0  0  0  0  0  0  0  0  0
   -2.9511    5.1791    5.5915 H   0  0  0  0  0  0  0  0  0  0  0  0
   -2.9453    5.9456    7.4265 C   0  0  0  0  0  0  0  0  0  0  0  0
   -3.3493    6.7541    7.2049 H   0  0  0  0  0  0  0  0  0  0  0  0
   -2.5788    5.6883    8.6961 C   0  0  0  0  0  0  0  0  0  0  0  0
   -2.6908    6.3497    9.3410 H   0  0  0  0  0  0  0  0  0  0  0  0
   -2.0453    4.4792    9.0683 C   0  0  0  0  0  0  0  0  0  0  0  0
   -1.8419    4.3132    9.9609 H   0  0  0  0  0  0  0  0  0  0  0  0
   -2.4248   -1.3811    7.4443 H   0  0  0  0  0  0  0  0  0  0  0  0
   -0.6196    4.7657   13.1808 P   0  0  0  0  0  0  0  0  0  0  0  0
   -0.2033    1.7955   15.0757 P   0  0  0  0  0  0  0  0  0  0  0  0
   -0.9255    3.7485   12.1290 O   0  0  0  0  0  0  0  0  0  0  0  0
   -0.8739    1.5890   13.7435 O   0  0  0  0  0  0  0  0  0  0  0  0
    3.5197    3.8165   14.1726 B   0  0  0  0  0  0  0  0  0  0  0  0
    4.4507    3.5901   13.6345 H   0  0  0  0  0  0  0  0  0  0  0  0
    1.9483    3.2478   13.5776 B   0  0  0  0  0  0  0  0  0  0  0  0
    1.7967    2.6527   12.6648 H   0  0  0  0  0  0  0  0  0  0  0  0
    2.6907    2.5793   15.0759 B   0  0  0  0  0  0  0  0  0  0  0  0
    3.0562    1.5419   15.1079 H   0  0  0  0  0  0  0  0  0  0  0  0
    3.4615    3.8662   15.9579 B   0  0  0  0  0  0  0  0  0  0  0  0
    4.3428    3.6575   16.5826 H   0  0  0  0  0  0  0  0  0  0  0  0
    3.2648    5.4009   14.9870 B   0  0  0  0  0  0  0  0  0  0  0  0
    4.0054    6.2133   14.9609 H   0  0  0  0  0  0  0  0  0  0  0  0
    2.3809    4.9538   13.5361 B   0  0  0  0  0  0  0  0  0  0  0  0
    2.5520    5.4581   12.5735 H   0  0  0  0  0  0  0  0  0  0  0  0
    1.8789    3.3581   16.4415 B   0  0  0  0  0  0  0  0  0  0  0  0
    1.3466    3.0333   17.3483 H   0  0  0  0  0  0  0  0  0  0  0  0
    2.3318    5.1240   16.4605 B   0  0  0  0  0  0  0  0  0  0  0  0
    2.1036    5.6799   17.3815 H   0  0  0  0  0  0  0  0  0  0  0  0
    1.5388    5.7422   14.9432 B   0  0  0  0  0  0  0  0  0  0  0  0
    0.8422    6.5739   15.1210 H   0  0  0  0  0  0  0  0  0  0  0  0
   -0.3817    6.3026   12.2772 C   0  0  0  0  0  0  0  0  0  0  0  0
    0.3147    6.2444   11.0847 C   0  0  0  0  0  0  0  0  0  0  0  0
    0.6393    5.4320   10.7694 H   0  0  0  0  0  0  0  0  0  0  0  0
    0.5224    7.4113   10.3640 C   0  0  0  0  0  0  0  0  0  0  0  0
    1.0437    7.3760    9.5958 H   0  0  0  0  0  0  0  0  0  0  0  0
    0.0018    8.5769   10.7326 C   0  0  0  0  0  0  0  0  0  0  0  0
    0.1155    9.3354   10.2087 H   0  0  0  0  0  0  0  0  0  0  0  0
   -0.7032    8.6317   11.9002 C   0  0  0  0  0  0  0  0  0  0  0  0
   -1.0523    9.4444   12.1871 H   0  0  0  0  0  0  0  0  0  0  0  0
   -0.9058    7.5056   12.6565 C   0  0  0  0  0  0  0  0  0  0  0  0
   -1.4083    7.5630   13.4377 H   0  0  0  0  0  0  0  0  0  0  0  0
    0.8629    4.4359   14.1857 C   0  0  0  0  0  0  0  0  0  0  0  0
    1.0354    3.1146   15.0629 C   0  0  0  0  0  0  0  0  0  0  0  0
   -2.0088    4.9556   14.2959 C   0  0  0  0  0  0  0  0  0  0  0  0
   -3.1462    4.2472   14.0434 C   0  0  0  0  0  0  0  0  0  0  0  0
   -3.1820    3.6695   13.3156 H   0  0  0  0  0  0  0  0  0  0  0  0
   -4.2669    4.3927   14.8874 C   0  0  0  0  0  0  0  0  0  0  0  0
   -5.0371    3.8932   14.7333 H   0  0  0  0  0  0  0  0  0  0  0  0
   -4.2168    5.2611   15.9223 C   0  0  0  0  0  0  0  0  0  0  0  0
   -4.9541    5.3621   16.4794 H   0  0  0  0  0  0  0  0  0  0  0  0
   -3.1161    5.9719   16.1440 C   0  0  0  0  0  0  0  0  0  0  0  0
   -3.1105    6.5835   16.8445 H   0  0  0  0  0  0  0  0  0  0  0  0
   -1.9905    5.8365   15.3782 C   0  0  0  0  0  0  0  0  0  0  0  0
   -1.2236    6.3230   15.5762 H   0  0  0  0  0  0  0  0  0  0  0  0
   -1.4711    2.1010   16.3265 C   0  0  0  0  0  0  0  0  0  0  0  0
   -2.5522    1.2897   16.2459 C   0  0  0  0  0  0  0  0  0  0  0  0
   -2.6209    0.6520   15.5714 H   0  0  0  0  0  0  0  0  0  0  0  0
   -3.5709    1.4383   17.2156 C   0  0  0  0  0  0  0  0  0  0  0  0
   -4.3199    0.8886   17.1800 H   0  0  0  0  0  0  0  0  0  0  0  0
   -3.4750    2.3487   18.1757 C   0  0  0  0  0  0  0  0  0  0  0  0
   -4.1370    2.4127   18.8241 H   0  0  0  0  0  0  0  0  0  0  0  0
   -2.4260    3.1767   18.2089 C   0  0  0  0  0  0  0  0  0  0  0  0
   -2.3857    3.8376   18.8621 H   0  0  0  0  0  0  0  0  0  0  0  0
   -1.4116    3.0677   17.3021 C   0  0  0  0  0  0  0  0  0  0  0  0
   -0.6839    3.6456   17.3436 H   0  0  0  0  0  0  0  0  0  0  0  0
    0.5847    0.2733   15.5975 C   0  0  0  0  0  0  0  0  0  0  0  0
    0.9087   -0.0095   16.9121 C   0  0  0  0  0  0  0  0  0  0  0  0
    0.7370    0.6153   17.5783 H   0  0  0  0  0  0  0  0  0  0  0  0
    1.4887   -1.2230   17.2345 C   0  0  0  0  0  0  0  0  0  0  0  0
    1.7255   -1.3973   18.1165 H   0  0  0  0  0  0  0  0  0  0  0  0
    1.7197   -2.1637   16.2815 C   0  0  0  0  0  0  0  0  0  0  0  0
    2.1238   -2.9722   16.5031 H   0  0  0  0  0  0  0  0  0  0  0  0
    1.3532   -1.9065   15.0119 C   0  0  0  0  0  0  0  0  0  0  0  0
    1.4652   -2.5679   14.3670 H   0  0  0  0  0  0  0  0  0  0  0  0
    0.8197   -0.6973   14.6397 C   0  0  0  0  0  0  0  0  0  0  0  0
    0.6163   -0.5313   13.7471 H   0  0  0  0  0  0  0  0  0  0  0  0
    1.1992    5.1629   16.2637 H   0  0  0  0  0  0  0  0  0  0  0  0
  1  4  1  0  0  0  0
  2  4  2  0  0  0  0
  3  5  2  0  0  0  0
  5  1  1  0  0  0  0
  6  7  1  0  0  0  0
  8  6  1  0  0  0  0
  9  8  1  0  0  0  0
 10  6  1  0  0  0  0
 11 10  1  0  0  0  0
 12  6  1  0  0  0  0
 13 12  1  0  0  0  0
 14  6  1  0  0  0  0
 15 14  1  0  0  0  0
 16  6  1  0  0  0  0
 17 16  1  0  0  0  0
 18 10  1  0  0  0  0
 19 18  1  0  0  0  0
 20 12  1  0  0  0  0
 21 20  1  0  0  0  0
 22 14  1  0  0  0  0
 23 22  1  0  0  0  0
 24  2  1  0  0  0  0
 25 24  4  0  0  0  0
 26 25  1  0  0  0  0
 27 25  4  0  0  0  0
 28 27  1  0  0  0  0
 29 27  4  0  0  0  0
 30 29  1  0  0  0  0
 31 29  4  0  0  0  0
 32 31  1  0  0  0  0
 33 24  4  0  0  0  0
 34 33  1  0  0  0  0
 35  2  1  0  0  0  0
 36  3  1  0  0  0  0
 37  2  1  0  0  0  0
 38 37  4  0  0  0  0
 39 38  1  0  0  0  0
 40 38  4  0  0  0  0
 41 40  1  0  0  0  0
 42 40  4  0  0  0  0
 43 42  1  0  0  0  0
 44 42  4  0  0  0  0
 45 44  1  0  0  0  0
 46 37  4  0  0  0  0
 47 46  1  0  0  0  0
 48  3  1  0  0  0  0
 49 48  4  0  0  0  0
 50 49  1  0  0  0  0
 51 49  4  0  0  0  0
 52 51  1  0  0  0  0
 53 51  4  0  0  0  0
 54 53  1  0  0  0  0
 55 53  4  0  0  0  0
 56 55  1  0  0  0  0
 57 48  4  0  0  0  0
 58 57  1  0  0  0  0
 59  3  1  0  0  0  0
 60 59  4  0  0  0  0
 61 60  1  0  0  0  0
 62 60  4  0  0  0  0
 63 62  1  0  0  0  0
 64 62  4  0  0  0  0
 65 64  1  0  0  0  0
 66 64  4  0  0  0  0
 67 66  1  0  0  0  0
 68 59  4  0  0  0  0
 69 68  1  0  0  0  0
 70 20  1  0  0  0  0
 71 73  2  0  0  0  0
 72 74  2  0  0  0  0
 73  1  1  0  0  0  0
 74  1  1  0  0  0  0
 75 76  1  0  0  0  0
 77 75  1  0  0  0  0
 78 77  1  0  0  0  0
 79 75  1  0  0  0  0
 80 79  1  0  0  0  0
 81 75  1  0  0  0  0
 82 81  1  0  0  0  0
 83 75  1  0  0  0  0
 84 83  1  0  0  0  0
 85 75  1  0  0  0  0
 86 85  1  0  0  0  0
 87 79  1  0  0  0  0
 88 87  1  0  0  0  0
 89 81  1  0  0  0  0
 90 89  1  0  0  0  0
 91 83  1  0  0  0  0
 92 91  1  0  0  0  0
 93 71  1  0  0  0  0
 94 93  4  0  0  0  0
 95 94  1  0  0  0  0
 96 94  4  0  0  0  0
 97 96  1  0  0  0  0
 98 96  4  0  0  0  0
 99 98  1  0  0  0  0
100 98  4  0  0  0  0
101100  1  0  0  0  0
102 93  4  0  0  0  0
103102  1  0  0  0  0
104 71  1  0  0  0  0
105 72  1  0  0  0  0
106 71  1  0  0  0  0
107106  4  0  0  0  0
108107  1  0  0  0  0
109107  4  0  0  0  0
110109  1  0  0  0  0
111109  4  0  0  0  0
112111  1  0  0  0  0
113111  4  0  0  0  0
114113  1  0  0  0  0
115106  4  0  0  0  0
116115  1  0  0  0  0
117 72  1  0  0  0  0
118117  4  0  0  0  0
119118  1  0  0  0  0
120118  4  0  0  0  0
121120  1  0  0  0  0
122120  4  0  0  0  0
123122  1  0  0  0  0
124122  4  0  0  0  0
125124  1  0  0  0  0
126117  4  0  0  0  0
127126  1  0  0  0  0
128 72  1  0  0  0  0
129128  4  0  0  0  0
130129  1  0  0  0  0
131129  4  0  0  0  0
132131  1  0  0  0  0
133131  4  0  0  0  0
134133  1  0  0  0  0
135133  4  0  0  0  0
136135  1  0  0  0  0
137128  4  0  0  0  0
138137  1  0  0  0  0
139 89  1  0  0  0  0
  8 10  1  0  0  0  0
  8 16  1  0  0  0  0
  8 35  1  0  0  0  0
  8 36  1  0  0  0  0
 10 12  1  0  0  0  0
 10 36  1  0  0  0  0
 12 14  1  0  0  0  0
 12 18  1  0  0  0  0
 14 16  1  0  0  0  0
 14 20  1  0  0  0  0
 16 22  1  0  0  0  0
 16 35  1  0  0  0  0
 18 20  1  0  0  0  0
 18 36  1  0  0  0  0
 20 22  1  0  0  0  0
 22 35  1  0  0  0  0
 22 70  1  0  0  0  0
 31 33  4  0  0  0  0
 35 36  1  0  0  0  0
 44 46  4  0  0  0  0
 55 57  4  0  0  0  0
 66 68  4  0  0  0  0
 77 79  1  0  0  0  0
 77 85  1  0  0  0  0
 77104  1  0  0  0  0
 77105  1  0  0  0  0
 79 81  1  0  0  0  0
 79105  1  0  0  0  0
 81 83  1  0  0  0  0
 81 87  1  0  0  0  0
 83 85  1  0  0  0  0
 83 89  1  0  0  0  0
 85 91  1  0  0  0  0
 85104  1  0  0  0  0
 87 89  1  0  0  0  0
 87105  1  0  0  0  0
 89 91  1  0  0  0  0
 91104  1  0  0  0  0
 91139  1  0  0  0  0
100102  4  0  0  0  0
104105  1  0  0  0  0
113115  4  0  0  0  0
124126  4  0  0  0  0
135137  4  0  0  0  0
M  END
$$$$
QEVXOF

From CSD data. Using bond type 'Any'. No disordered atoms. Largest molecule.
 69 91  0  0  0  0  0  0  0  0999 V2000
   -2.1493    6.9015    3.8807 P   0  0  0  0  0  0  0  0  0  0  0  0
   -1.7962    4.3051    5.8892 P   0  0  0  0  0  0  0  0  0  0  0  0
   -3.4399    6.1777    3.7502 O   0  0  0  0  0  0  0  0  0  0  0  0
   -1.1684    4.2453    2.8908 B   0  0  0  0  0  0  0  0  0  0  0  0
   -2.2148    3.9899    2.6636 H   0  0  0  0  0  0  0  0  0  0  0  0
   -0.2470    5.4481    1.9344 B   0  0  0  0  0  0  0  0  0  0  0  0
   -0.6862    5.9620    1.0668 H   0  0  0  0  0  0  0  0  0  0  0  0
    0.8666    6.2788    3.0423 B   0  0  0  0  0  0  0  0  0  0  0  0
    1.1506    7.3315    2.8958 H   0  0  0  0  0  0  0  0  0  0  0  0
    0.6208    5.5784    4.6787 B   0  0  0  0  0  0  0  0  0  0  0  0
    0.7222    6.1735    5.5973 H   0  0  0  0  0  0  0  0  0  0  0  0
    1.0953    3.8690    4.6227 B   0  0  0  0  0  0  0  0  0  0  0  0
    1.5286    3.3614    5.4969 H   0  0  0  0  0  0  0  0  0  0  0  0
   -0.0091    3.0425    3.5082 B   0  0  0  0  0  0  0  0  0  0  0  0
   -0.2931    1.9908    3.6629 H   0  0  0  0  0  0  0  0  0  0  0  0
    0.1995    3.7221    1.8866 B   0  0  0  0  0  0  0  0  0  0  0  0
    0.0494    3.1134    0.9828 H   0  0  0  0  0  0  0  0  0  0  0  0
    1.4601    4.9707    1.9854 B   0  0  0  0  0  0  0  0  0  0  0  0
    2.1387    5.1688    1.1425 H   0  0  0  0  0  0  0  0  0  0  0  0
    2.0068    5.0823    3.6827 B   0  0  0  0  0  0  0  0  0  0  0  0
    3.0363    5.3626    3.9477 H   0  0  0  0  0  0  0  0  0  0  0  0
    1.6002    3.4990    2.9550 B   0  0  0  0  0  0  0  0  0  0  0  0
    2.3732    2.7454    2.7410 H   0  0  0  0  0  0  0  0  0  0  0  0
   -0.6756    5.7681    3.5592 C   0  0  0  0  0  0  0  0  0  0  0  0
   -0.5495    4.3381    4.4861 C   0  0  0  0  0  0  0  0  0  0  0  0
   -1.7848    7.8558    5.3767 C   0  0  0  0  0  0  0  0  0  0  0  0
   -2.8018    7.9027    6.3216 C   0  0  0  0  0  0  0  0  0  0  0  0
   -3.5958    7.4420    6.1702 H   0  0  0  0  0  0  0  0  0  0  0  0
   -2.6414    8.6334    7.4905 C   0  0  0  0  0  0  0  0  0  0  0  0
   -3.3343    8.6719    8.1111 H   0  0  0  0  0  0  0  0  0  0  0  0
   -1.4685    9.2973    7.7341 C   0  0  0  0  0  0  0  0  0  0  0  0
   -1.3615    9.7726    8.5243 H   0  0  0  0  0  0  0  0  0  0  0  0
   -0.4597    9.2619    6.8221 C   0  0  0  0  0  0  0  0  0  0  0  0
    0.3290    9.7278    6.9867 H   0  0  0  0  0  0  0  0  0  0  0  0
   -0.6015    8.5375    5.6516 C   0  0  0  0  0  0  0  0  0  0  0  0
    0.1007    8.5052    5.0408 H   0  0  0  0  0  0  0  0  0  0  0  0
   -2.0461    8.0935    2.4974 C   0  0  0  0  0  0  0  0  0  0  0  0
   -1.2988    9.2525    2.4661 C   0  0  0  0  0  0  0  0  0  0  0  0
   -0.7607    9.4714    3.1937 H   0  0  0  0  0  0  0  0  0  0  0  0
   -1.3401   10.0915    1.3730 C   0  0  0  0  0  0  0  0  0  0  0  0
   -0.8315   10.8701    1.3631 H   0  0  0  0  0  0  0  0  0  0  0  0
   -2.1385    9.7716    0.2947 C   0  0  0  0  0  0  0  0  0  0  0  0
   -2.1657   10.3344   -0.4445 H   0  0  0  0  0  0  0  0  0  0  0  0
   -2.8759    8.6500    0.3095 C   0  0  0  0  0  0  0  0  0  0  0  0
   -3.4087    8.4437   -0.4231 H   0  0  0  0  0  0  0  0  0  0  0  0
   -2.8564    7.7964    1.3993 C   0  0  0  0  0  0  0  0  0  0  0  0
   -3.3807    7.0282    1.3993 H   0  0  0  0  0  0  0  0  0  0  0  0
   -0.8470    3.6720    7.3077 C   0  0  0  0  0  0  0  0  0  0  0  0
   -0.2028    2.4515    7.4312 C   0  0  0  0  0  0  0  0  0  0  0  0
   -0.2159    1.8543    6.7184 H   0  0  0  0  0  0  0  0  0  0  0  0
    0.4597    2.1054    8.5902 C   0  0  0  0  0  0  0  0  0  0  0  0
    0.8876    1.2820    8.6544 H   0  0  0  0  0  0  0  0  0  0  0  0
    0.4822    2.9945    9.6602 C   0  0  0  0  0  0  0  0  0  0  0  0
    0.9124    2.7621   10.4521 H   0  0  0  0  0  0  0  0  0  0  0  0
   -0.1241    4.1963    9.5450 C   0  0  0  0  0  0  0  0  0  0  0  0
   -0.0887    4.7987   10.2512 H   0  0  0  0  0  0  0  0  0  0  0  0
   -0.7994    4.5444    8.3811 C   0  0  0  0  0  0  0  0  0  0  0  0
   -1.2234    5.3699    8.3235 H   0  0  0  0  0  0  0  0  0  0  0  0
   -3.0013    3.0112    5.4425 C   0  0  0  0  0  0  0  0  0  0  0  0
   -4.2914    3.4896    5.3108 C   0  0  0  0  0  0  0  0  0  0  0  0
   -4.4576    4.4006    5.4014 H   0  0  0  0  0  0  0  0  0  0  0  0
   -5.3387    2.6224    5.0408 C   0  0  0  0  0  0  0  0  0  0  0  0
   -6.1992    2.9591    4.9404 H   0  0  0  0  0  0  0  0  0  0  0  0
   -5.1225    1.2831    4.9240 C   0  0  0  0  0  0  0  0  0  0  0  0
   -5.8323    0.7036    4.7676 H   0  0  0  0  0  0  0  0  0  0  0  0
   -3.8523    0.8015    5.0359 C   0  0  0  0  0  0  0  0  0  0  0  0
   -3.7032   -0.1126    4.9470 H   0  0  0  0  0  0  0  0  0  0  0  0
   -2.7788    1.6437    5.2812 C   0  0  0  0  0  0  0  0  0  0  0  0
   -1.9162    1.2997    5.3355 H   0  0  0  0  0  0  0  0  0  0  0  0
  1  3  2  0  0  0  0
  2 25  1  0  0  0  0
  4  5  1  0  0  0  0
  6  4  1  0  0  0  0
  7  6  1  0  0  0  0
  8  6  1  0  0  0  0
  9  8  1  0  0  0  0
 10  8  1  0  0  0  0
 11 10  1  0  0  0  0
 12 10  1  0  0  0  0
 13 12  1  0  0  0  0
 14  4  1  0  0  0  0
 15 14  1  0  0  0  0
 16  4  1  0  0  0  0
 17 16  1  0  0  0  0
 18  6  1  0  0  0  0
 19 18  1  0  0  0  0
 20  8  1  0  0  0  0
 21 20  1  0  0  0  0
 22 12  1  0  0  0  0
 23 22  1  0  0  0  0
 24  1  1  0  0  0  0
 25  4  1  0  0  0  0
 26  1  1  0  0  0  0
 27 26  4  0  0  0  0
 28 27  1  0  0  0  0
 29 27  4  0  0  0  0
 30 29  1  0  0  0  0
 31 29  4  0  0  0  0
 32 31  1  0  0  0  0
 33 31  4  0  0  0  0
 34 33  1  0  0  0  0
 35 26  4  0  0  0  0
 36 35  1  0  0  0  0
 37  1  1  0  0  0  0
 38 37  4  0  0  0  0
 39 38  1  0  0  0  0
 40 38  4  0  0  0  0
 41 40  1  0  0  0  0
 42 40  4  0  0  0  0
 43 42  1  0  0  0  0
 44 42  4  0  0  0  0
 45 44  1  0  0  0  0
 46 37  4  0  0  0  0
 47 46  1  0  0  0  0
 48  2  1  0  0  0  0
 49 48  4  0  0  0  0
 50 49  1  0  0  0  0
 51 49  4  0  0  0  0
 52 51  1  0  0  0  0
 53 51  4  0  0  0  0
 54 53  1  0  0  0  0
 55 53  4  0  0  0  0
 56 55  1  0  0  0  0
 57 48  4  0  0  0  0
 58 57  1  0  0  0  0
 59  2  1  0  0  0  0
 60 59  4  0  0  0  0
 61 60  1  0  0  0  0
 62 60  4  0  0  0  0
 63 62  1  0  0  0  0
 64 62  4  0  0  0  0
 65 64  1  0  0  0  0
 66 64  4  0  0  0  0
 67 66  1  0  0  0  0
 68 59  4  0  0  0  0
 69 68  1  0  0  0  0
  4 24  1  0  0  0  0
  6 16  1  0  0  0  0
  6 24  1  0  0  0  0
  8 18  1  0  0  0  0
  8 24  1  0  0  0  0
 10 20  1  0  0  0  0
 10 24  1  0  0  0  0
 10 25  1  0  0  0  0
 12 14  1  0  0  0  0
 12 20  1  0  0  0  0
 12 25  1  0  0  0  0
 14 16  1  0  0  0  0
 14 22  1  0  0  0  0
 14 25  1  0  0  0  0
 16 18  1  0  0  0  0
 16 22  1  0  0  0  0
 18 20  1  0  0  0  0
 18 22  1  0  0  0  0
 20 22  1  0  0  0  0
 24 25  1  0  0  0  0
 33 35  4  0  0  0  0
 44 46  4  0  0  0  0
 55 57  4  0  0  0  0
 66 68  4  0  0  0  0
M  END
$$$$
QEVXUL

From CSD data. Using bond type 'Any'. No disordered atoms. Largest molecule.
 70 89  0  0  0  0  0  0  0  0999 V2000
    5.8896    5.7627    0.7164 H   0  0  0  0  0  0  0  0  0  0  0  0
    5.9333    4.6347    0.2702 O   0  3  0  0  0  0  0  0  0  0  0  0
    5.8100    6.9608    0.9388 O   0  0  0  0  0  0  0  0  0  0  0  0
    6.3380    3.7528    1.4422 P   0  0  0  0  0  0  0  0  0  0  0  0
    6.1380    7.1065    2.4189 P   0  0  0  0  0  0  0  0  0  0  0  0
   10.1775    5.4864    2.5086 B   0  0  0  0  0  0  0  0  0  0  0  0
   11.1402    5.6734    2.0109 H   0  0  0  0  0  0  0  0  0  0  0  0
    8.6453    5.6552    1.6628 B   0  0  0  0  0  0  0  0  0  0  0  0
    8.5644    5.9535    0.6070 H   0  0  0  0  0  0  0  0  0  0  0  0
    9.0796    6.8090    2.9397 B   0  0  0  0  0  0  0  0  0  0  0  0
    9.3159    7.8577    2.7072 H   0  0  0  0  0  0  0  0  0  0  0  0
    9.8609    5.9311    4.2292 B   0  0  0  0  0  0  0  0  0  0  0  0
   10.6212    6.4295    4.8475 H   0  0  0  0  0  0  0  0  0  0  0  0
    9.9659    4.2035    3.7378 B   0  5  0  0  0  0  0  0  0  0  0  0
   10.7900    3.5387    4.0306 H   0  0  0  0  0  0  0  0  0  0  0  0
    9.2576    4.0645    2.1605 B   0  0  0  0  0  0  0  0  0  0  0  0
    9.6111    3.3328    1.4189 H   0  0  0  0  0  0  0  0  0  0  0  0
    8.1735    6.3310    4.3938 B   0  0  0  0  0  0  0  0  0  0  0  0
    7.4852    6.8088    5.1064 H   0  0  0  0  0  0  0  0  0  0  0  0
    8.8396    4.7404    4.9770 B   0  0  0  0  0  0  0  0  0  0  0  0
    8.5664    4.4435    6.0013 H   0  0  0  0  0  0  0  0  0  0  0  0
    8.3267    3.5946    3.6184 B   0  0  0  0  0  0  0  0  0  0  0  0
    7.9296    2.5693    3.6322 H   0  0  0  0  0  0  0  0  0  0  0  0
    6.9695    2.2314    0.7453 C   0  0  0  0  0  0  0  0  0  0  0  0
    6.8865    1.0255    1.4101 C   0  0  0  0  0  0  0  0  0  0  0  0
    6.4846    0.9927    2.2497 H   0  0  0  0  0  0  0  0  0  0  0  0
    7.3814   -0.1187    0.8609 C   0  0  0  0  0  0  0  0  0  0  0  0
    7.3437   -0.9209    1.3285 H   0  0  0  0  0  0  0  0  0  0  0  0
    7.9352   -0.0722   -0.3909 C   0  0  0  0  0  0  0  0  0  0  0  0
    8.2450   -0.8575   -0.7817 H   0  0  0  0  0  0  0  0  0  0  0  0
    8.0395    1.0933   -1.0696 C   0  0  0  0  0  0  0  0  0  0  0  0
    8.4494    1.1061   -1.9041 H   0  0  0  0  0  0  0  0  0  0  0  0
    7.5270    2.3040   -0.5140 C   0  0  0  0  0  0  0  0  0  0  0  0
    7.5665    3.1059   -0.9803 H   0  0  0  0  0  0  0  0  0  0  0  0
    7.5961    4.5303    2.4810 C   0  0  0  0  0  0  0  0  0  0  0  0
    7.5121    6.0553    2.9120 C   0  0  0  0  0  0  0  0  0  0  0  0
    4.8827    3.3617    2.4282 C   0  0  0  0  0  0  0  0  0  0  0  0
    3.6469    3.5338    1.8111 C   0  0  0  0  0  0  0  0  0  0  0  0
    3.5953    3.8839    0.9502 H   0  0  0  0  0  0  0  0  0  0  0  0
    2.5030    3.1808    2.4872 C   0  0  0  0  0  0  0  0  0  0  0  0
    1.6760    3.2893    2.0737 H   0  0  0  0  0  0  0  0  0  0  0  0
    2.5593    2.6797    3.7428 C   0  0  0  0  0  0  0  0  0  0  0  0
    1.7750    2.4489    4.1865 H   0  0  0  0  0  0  0  0  0  0  0  0
    3.7752    2.5104    4.3674 C   0  0  0  0  0  0  0  0  0  0  0  0
    3.8165    2.1603    5.2284 H   0  0  0  0  0  0  0  0  0  0  0  0
    4.9363    2.8673    3.6988 C   0  0  0  0  0  0  0  0  0  0  0  0
    5.7594    2.7683    4.1198 H   0  0  0  0  0  0  0  0  0  0  0  0
    4.6994    6.7153    3.3972 C   0  0  0  0  0  0  0  0  0  0  0  0
    3.4577    6.9406    2.8266 C   0  0  0  0  0  0  0  0  0  0  0  0
    3.3862    7.2615    1.9569 H   0  0  0  0  0  0  0  0  0  0  0  0
    2.3166    6.6743    3.5844 C   0  0  0  0  0  0  0  0  0  0  0  0
    1.4801    6.8156    3.2036 H   0  0  0  0  0  0  0  0  0  0  0  0
    2.3866    6.2248    4.8375 C   0  0  0  0  0  0  0  0  0  0  0  0
    1.6086    6.0664    5.3214 H   0  0  0  0  0  0  0  0  0  0  0  0
    3.5988    5.9985    5.4031 C   0  0  0  0  0  0  0  0  0  0  0  0
    3.6531    5.6907    6.2791 H   0  0  0  0  0  0  0  0  0  0  0  0
    4.7448    6.2237    4.6854 C   0  0  0  0  0  0  0  0  0  0  0  0
    5.5699    6.0404    5.0750 H   0  0  0  0  0  0  0  0  0  0  0  0
    6.5177    8.8155    2.7172 C   0  0  0  0  0  0  0  0  0  0  0  0
    7.1801    9.5335    1.7306 C   0  0  0  0  0  0  0  0  0  0  0  0
    7.4464    9.1154    0.9439 H   0  0  0  0  0  0  0  0  0  0  0  0
    7.4443   10.9009    1.9368 C   0  0  0  0  0  0  0  0  0  0  0  0
    7.9253   11.3769    1.2983 H   0  0  0  0  0  0  0  0  0  0  0  0
    7.0112   11.5254    3.0402 C   0  0  0  0  0  0  0  0  0  0  0  0
    7.1499   12.4386    3.1471 H   0  0  0  0  0  0  0  0  0  0  0  0
    6.3797   10.8243    3.9854 C   0  0  0  0  0  0  0  0  0  0  0  0
    6.1006   11.2538    4.7608 H   0  0  0  0  0  0  0  0  0  0  0  0
    6.1313    9.4689    3.8308 C   0  0  0  0  0  0  0  0  0  0  0  0
    5.6922    9.0039    4.5057 H   0  0  0  0  0  0  0  0  0  0  0  0
    7.8357    4.5639    4.6000 H   0  0  0  0  0  0  0  0  0  0  0  0
  1  2  1  0  0  0  0
  2  4  2  0  0  0  0
  3  5  2  0  0  0  0
  4 24  1  0  0  0  0
  5 36  1  0  0  0  0
  6  7  1  0  0  0  0
  8  6  1  0  0  0  0
  9  8  1  0  0  0  0
 10  6  1  0  0  0  0
 11 10  1  0  0  0  0
 12  6  1  0  0  0  0
 13 12  1  0  0  0  0
 14  6  1  0  0  0  0
 15 14  1  0  0  0  0
 16  6  1  0  0  0  0
 17 16  1  0  0  0  0
 18 10  1  0  0  0  0
 19 18  1  0  0  0  0
 20 12  1  0  0  0  0
 21 20  1  0  0  0  0
 22 14  1  0  0  0  0
 23 22  1  0  0  0  0
 24 25  4  0  0  0  0
 25 26  1  0  0  0  0
 27 25  4  0  0  0  0
 28 27  1  0  0  0  0
 29 27  4  0  0  0  0
 30 29  1  0  0  0  0
 31 29  4  0  0  0  0
 32 31  1  0  0  0  0
 33 24  4  0  0  0  0
 34 33  1  0  0  0  0
 35  4  1  0  0  0  0
 36  8  1  0  0  0  0
 37  4  1  0  0  0  0
 38 37  4  0  0  0  0
 39 38  1  0  0  0  0
 40 38  4  0  0  0  0
 41 40  1  0  0  0  0
 42 40  4  0  0  0  0
 43 42  1  0  0  0  0
 44 42  4  0  0  0  0
 45 44  1  0  0  0  0
 46 37  4  0  0  0  0
 47 46  1  0  0  0  0
 48  5  1  0  0  0  0
 49 48  4  0  0  0  0
 50 49  1  0  0  0  0
 51 49  4  0  0  0  0
 52 51  1  0  0  0  0
 53 51  4  0  0  0  0
 54 53  1  0  0  0  0
 55 53  4  0  0  0  0
 56 55  1  0  0  0  0
 57 48  4  0  0  0  0
 58 57  1  0  0  0  0
 59  5  1  0  0  0  0
 60 59  4  0  0  0  0
 61 60  1  0  0  0  0
 62 60  4  0  0  0  0
 63 62  1  0  0  0  0
 64 62  4  0  0  0  0
 65 64  1  0  0  0  0
 66 64  4  0  0  0  0
 67 66  1  0  0  0  0
 68 59  4  0  0  0  0
 69 68  1  0  0  0  0
 70 20  1  0  0  0  0
  8 10  1  0  0  0  0
  8 16  1  0  0  0  0
  8 35  1  0  0  0  0
 10 12  1  0  0  0  0
 10 36  1  0  0  0  0
 12 14  1  0  0  0  0
 12 18  1  0  0  0  0
 14 16  1  0  0  0  0
 14 20  1  0  0  0  0
 16 22  1  0  0  0  0
 16 35  1  0  0  0  0
 18 20  1  0  0  0  0
 18 36  1  0  0  0  0
 20 22  1  0  0  0  0
 22 35  1  0  0  0  0
 22 70  1  0  0  0  0
 31 33  4  0  0  0  0
 35 36  1  0  0  0  0
 44 46  4  0  0  0  0
 55 57  4  0  0  0  0
 66 68  4  0  0  0  0
M  CHG  2   2   1  14  -1
M  END
$$$$
QEWTAN

From CSD data. Using bond type 'Any'. Matching problem. Disorder unknown. Sizes unknown.
  0  0  0  0  0  0  0  0  0  0999 V2000
M  END
$$$$
QEYNIT

From CSD data. Using bond type 'Any'. No disordered atoms. Largest molecule.
117161  0  0  0  0  0  0  0  0999 V2000
    4.8145    8.4404   18.3097 B   0  0  0  0  0  0  0  0  0  0  0  0
    4.1488    9.0276   17.9463 H   0  0  0  0  0  0  0  0  0  0  0  0
    5.1997    8.5165   20.0042 B   0  0  0  0  0  0  0  0  0  0  0  0
    4.7630    9.1429   20.5857 H   0  0  0  0  0  0  0  0  0  0  0  0
    6.9583    8.1185   20.1766 B   0  0  0  0  0  0  0  0  0  0  0  0
    7.4859    8.5426   20.8577 H   0  0  0  0  0  0  0  0  0  0  0  0
    7.6336    7.8423   18.6066 B   0  0  0  0  0  0  0  0  0  0  0  0
    8.5256    8.1011   18.3616 H   0  0  0  0  0  0  0  0  0  0  0  0
    7.2139    6.4983   19.6450 B   0  0  0  0  0  0  0  0  0  0  0  0
    7.8943    5.9372   20.0208 H   0  0  0  0  0  0  0  0  0  0  0  0
    6.8092    6.4178   17.9255 B   0  0  0  0  0  0  0  0  0  0  0  0
    7.2210    5.8328   17.2859 H   0  0  0  0  0  0  0  0  0  0  0  0
    5.0974    6.8028   17.7199 B   0  0  0  0  0  0  0  0  0  0  0  0
    4.6051    6.4178   16.9910 H   0  0  0  0  0  0  0  0  0  0  0  0
    4.4212    7.0659   19.3688 B   0  0  0  0  0  0  0  0  0  0  0  0
    3.5136    6.8354   19.5806 H   0  0  0  0  0  0  0  0  0  0  0  0
    5.7358    6.9289   20.5109 B   0  0  0  0  0  0  0  0  0  0  0  0
    5.5903    6.6114   21.4039 H   0  0  0  0  0  0  0  0  0  0  0  0
    5.6097    5.8480   19.0947 B   0  0  0  0  0  0  0  0  0  0  0  0
    5.4024    4.9150   19.1860 H   0  0  0  0  0  0  0  0  0  0  0  0
    3.2129    9.7388   13.8595 B   0  0  0  0  0  0  0  0  0  0  0  0
    2.8759   10.3020   14.5593 H   0  0  0  0  0  0  0  0  0  0  0  0
    3.6828   10.2890   12.3041 B   0  0  0  0  0  0  0  0  0  0  0  0
    3.6045   11.2285   12.1296 H   0  0  0  0  0  0  0  0  0  0  0  0
    4.9533    9.4125   11.7662 B   0  0  0  0  0  0  0  0  0  0  0  0
    5.6275    9.8301   11.2242 H   0  0  0  0  0  0  0  0  0  0  0  0
    5.3320    8.2186   12.9125 B   0  0  0  0  0  0  0  0  0  0  0  0
    6.2156    7.8880   13.0911 H   0  0  0  0  0  0  0  0  0  0  0  0
    4.0004    7.1681   13.0018 B   0  0  0  0  0  0  0  0  0  0  0  0
    4.0895    6.2439   13.2469 H   0  0  0  0  0  0  0  0  0  0  0  0
    2.6114    8.0555   13.5999 B   0  0  0  0  0  0  0  0  0  0  0  0
    1.9521    7.6509   14.1689 H   0  0  0  0  0  0  0  0  0  0  0  0
    2.2656    9.2951   12.4598 B   0  0  0  0  0  0  0  0  0  0  0  0
    1.3689    9.6213   12.3435 H   0  0  0  0  0  0  0  0  0  0  0  0
    3.3499    9.1211   11.2034 B   0  0  0  0  0  0  0  0  0  0  0  0
    3.0717    9.3560   10.3146 H   0  0  0  0  0  0  0  0  0  0  0  0
    4.4354    7.7814   11.5025 B   0  0  0  0  0  0  0  0  0  0  0  0
    4.8113    7.2225   10.8193 H   0  0  0  0  0  0  0  0  0  0  0  0
    2.7320    7.7010   11.9510 B   0  0  0  0  0  0  0  0  0  0  0  0
    2.1119    7.1072   11.5212 H   0  0  0  0  0  0  0  0  0  0  0  0
    6.3211    8.9906   18.8413 C   0  0  0  0  0  0  0  0  0  0  0  0
    6.2405    7.9859   17.4915 C   0  0  0  0  0  0  0  0  0  0  0  0
    4.8221    9.6974   13.3922 C   0  0  0  0  0  0  0  0  0  0  0  0
    4.1833    8.4121   14.1024 C   0  0  0  0  0  0  0  0  0  0  0  0
    4.4201    8.2186   15.0120 H   0  0  0  0  0  0  0  0  0  0  0  0
    3.9804   12.4942   17.0782 C   0  0  0  0  0  0  0  0  0  0  0  0
    4.2995   11.6417   17.2734 H   0  0  0  0  0  0  0  0  0  0  0  0
    4.8234   13.4098   16.5196 C   0  0  0  0  0  0  0  0  0  0  0  0
    4.3432   14.6712   16.2580 C   0  0  0  0  0  0  0  0  0  0  0  0
    4.9127   15.3149   15.9008 H   0  0  0  0  0  0  0  0  0  0  0  0
    3.0504   14.9909   16.5134 C   0  0  0  0  0  0  0  0  0  0  0  0
    2.7399   15.8412   16.3057 H   0  0  0  0  0  0  0  0  0  0  0  0
    2.2079   14.0927   17.0637 C   0  0  0  0  0  0  0  0  0  0  0  0
    1.3280   14.3363   17.2444 H   0  0  0  0  0  0  0  0  0  0  0  0
    2.6454   12.8074   17.3669 C   0  0  0  0  0  0  0  0  0  0  0  0
    2.0722   12.1789   17.7448 H   0  0  0  0  0  0  0  0  0  0  0  0
    6.4854   14.2580   13.8242 C   0  0  0  0  0  0  0  0  0  0  0  0
    5.7936   13.6621   13.6518 H   0  0  0  0  0  0  0  0  0  0  0  0
    6.8511   15.1649   12.8606 C   0  0  0  0  0  0  0  0  0  0  0  0
    6.4335   15.1497   12.0299 H   0  0  0  0  0  0  0  0  0  0  0  0
    7.8189   16.0892   13.1098 C   0  0  0  0  0  0  0  0  0  0  0  0
    8.0445   16.7199   12.4640 H   0  0  0  0  0  0  0  0  0  0  0  0
    8.4598   16.0826   14.3225 C   0  0  0  0  0  0  0  0  0  0  0  0
    9.1372   16.6959   14.4949 H   0  0  0  0  0  0  0  0  0  0  0  0
    8.1014   15.1649   15.2923 C   0  0  0  0  0  0  0  0  0  0  0  0
    8.5202   15.1866   16.1230 H   0  0  0  0  0  0  0  0  0  0  0  0
    7.1271   14.2167   15.0411 C   0  0  0  0  0  0  0  0  0  0  0  0
    7.4022   13.6817   17.8154 C   0  0  0  0  0  0  0  0  0  0  0  0
    8.7937   13.5642   17.9753 C   0  0  0  0  0  0  0  0  0  0  0  0
    9.2982   13.1510   17.3129 H   0  0  0  0  0  0  0  0  0  0  0  0
    9.4251   14.0514   19.0988 C   0  0  0  0  0  0  0  0  0  0  0  0
   10.3480   13.9818   19.1881 H   0  0  0  0  0  0  0  0  0  0  0  0
    8.6925   14.6277   20.0644 C   0  0  0  0  0  0  0  0  0  0  0  0
    9.1213   14.9431   20.8286 H   0  0  0  0  0  0  0  0  0  0  0  0
    7.3261   14.7691   19.9606 C   0  0  0  0  0  0  0  0  0  0  0  0
    6.8411   15.1953   20.6314 H   0  0  0  0  0  0  0  0  0  0  0  0
    6.6822   14.2580   18.8247 C   0  0  0  0  0  0  0  0  0  0  0  0
    5.7556   14.3102   18.7582 H   0  0  0  0  0  0  0  0  0  0  0  0
    9.1227   12.2593   13.3029 C   0  0  0  0  0  0  0  0  0  0  0  0
    8.2805   11.9549   13.0537 H   0  0  0  0  0  0  0  0  0  0  0  0
    9.7678   13.2141   12.5304 C   0  0  0  0  0  0  0  0  0  0  0  0
    9.3576   13.5251   11.7558 H   0  0  0  0  0  0  0  0  0  0  0  0
   10.9789   13.7012   12.8793 C   0  0  0  0  0  0  0  0  0  0  0  0
   11.3950   14.3472   12.3581 H   0  0  0  0  0  0  0  0  0  0  0  0
   11.5870   13.2228   14.0194 C   0  0  0  0  0  0  0  0  0  0  0  0
   12.4231   13.5534   14.2603 H   0  0  0  0  0  0  0  0  0  0  0  0
   10.9894   12.2724   14.8106 C   0  0  0  0  0  0  0  0  0  0  0  0
   11.4133   11.9701   15.5810 H   0  0  0  0  0  0  0  0  0  0  0  0
    9.7274   11.7613   14.4430 C   0  0  0  0  0  0  0  0  0  0  0  0
    9.0675    8.9428   14.3080 C   0  0  0  0  0  0  0  0  0  0  0  0
    9.2921    9.0863   12.9312 C   0  0  0  0  0  0  0  0  0  0  0  0
    9.3982    9.9323   12.5574 H   0  0  0  0  0  0  0  0  0  0  0  0
    9.3528    7.9598   12.1421 C   0  0  0  0  0  0  0  0  0  0  0  0
    9.4270    8.0468   11.2180 H   0  0  0  0  0  0  0  0  0  0  0  0
    9.3052    6.7223   12.7028 C   0  0  0  0  0  0  0  0  0  0  0  0
    9.4135    5.9698   12.1649 H   0  0  0  0  0  0  0  0  0  0  0  0
    9.0986    6.5614   14.0588 C   0  0  0  0  0  0  0  0  0  0  0  0
    9.0391    5.7110   14.4326 H   0  0  0  0  0  0  0  0  0  0  0  0
    8.9810    7.7010   14.8521 C   0  0  0  0  0  0  0  0  0  0  0  0
    8.8407    7.6096   15.7679 H   0  0  0  0  0  0  0  0  0  0  0  0
   10.1886   10.0541   16.7107 C   0  0  0  0  0  0  0  0  0  0  0  0
   11.3060    9.2646   16.3867 C   0  0  0  0  0  0  0  0  0  0  0  0
   11.4097    8.9471   15.5187 H   0  0  0  0  0  0  0  0  0  0  0  0
   12.2582    8.9558   17.3482 C   0  0  0  0  0  0  0  0  0  0  0  0
   12.9828    8.4208   17.1135 H   0  0  0  0  0  0  0  0  0  0  0  0
   12.1616    9.4060   18.6066 C   0  0  0  0  0  0  0  0  0  0  0  0
   12.8126    9.1994   19.2379 H   0  0  0  0  0  0  0  0  0  0  0  0
   11.0710   10.1868   18.9451 C   0  0  0  0  0  0  0  0  0  0  0  0
   10.9881   10.4978   19.8173 H   0  0  0  0  0  0  0  0  0  0  0  0
   10.1031   10.5173   18.0190 C   0  0  0  0  0  0  0  0  0  0  0  0
    9.3861   11.0545   18.2723 H   0  0  0  0  0  0  0  0  0  0  0  0
    6.5219    8.5052   16.2617 O   0  0  0  0  0  0  0  0  0  0  0  0
    6.6275   12.9944   16.3142 P   0  0  0  0  0  0  0  0  0  0  0  0
    8.9662   10.4282   15.4078 P   0  0  0  0  0  0  0  0  0  0  0  0
    6.8001   10.6597   16.1547 Ru  0  0  0  0  0  0  0  0  0  0  0  0
    6.7306   10.6820   18.4445 S   0  0  0  0  0  0  0  0  0  0  0  0
    5.9121   10.9462   14.1010 S   0  0  0  0  0  0  0  0  0  0  0  0
  1  2  1  0  0  0  0
  3  1  1  0  0  0  0
  4  3  1  0  0  0  0
  5  3  1  0  0  0  0
  6  5  1  0  0  0  0
  7  5  1  0  0  0  0
  8  7  1  0  0  0  0
  9  5  1  0  0  0  0
 10  9  1  0  0  0  0
 11  7  1  0  0  0  0
 12 11  1  0  0  0  0
 13  1  1  0  0  0  0
 14 13  1  0  0  0  0
 15  1  1  0  0  0  0
 16 15  1  0  0  0  0
 17  3  1  0  0  0  0
 18 17  1  0  0  0  0
 19  9  1  0  0  0  0
 20 19  1  0  0  0  0
 21 22  1  0  0  0  0
 23 21  1  0  0  0  0
 24 23  1  0  0  0  0
 25 23  1  0  0  0  0
 26 25  1  0  0  0  0
 27 25  1  0  0  0  0
 28 27  1  0  0  0  0
 29 27  1  0  0  0  0
 30 29  1  0  0  0  0
 31 21  1  0  0  0  0
 32 31  1  0  0  0  0
 33 21  1  0  0  0  0
 34 33  1  0  0  0  0
 35 23  1  0  0  0  0
 36 35  1  0  0  0  0
 37 25  1  0  0  0  0
 38 37  1  0  0  0  0
 39 29  1  0  0  0  0
 40 39  1  0  0  0  0
 41  1  1  0  0  0  0
 42  1  1  0  0  0  0
 43 21  1  0  0  0  0
 44 21  1  0  0  0  0
 45 44  1  0  0  0  0
 46 47  1  0  0  0  0
 48 46  4  0  0  0  0
 49 48  4  0  0  0  0
 50 49  1  0  0  0  0
 51 49  4  0  0  0  0
 52 51  1  0  0  0  0
 53 51  4  0  0  0  0
 54 53  1  0  0  0  0
 55 46  4  0  0  0  0
 56 55  1  0  0  0  0
 57 58  1  0  0  0  0
 59 57  4  0  0  0  0
 60 59  1  0  0  0  0
 61 59  4  0  0  0  0
 62 61  1  0  0  0  0
 63 61  4  0  0  0  0
 64 63  1  0  0  0  0
 65 63  4  0  0  0  0
 66 65  1  0  0  0  0
 67 57  4  0  0  0  0
 68 69  4  0  0  0  0
 69 70  1  0  0  0  0
 71 69  4  0  0  0  0
 72 71  1  0  0  0  0
 73 71  4  0  0  0  0
 74 73  1  0  0  0  0
 75 73  4  0  0  0  0
 76 75  1  0  0  0  0
 77 68  4  0  0  0  0
 78 77  1  0  0  0  0
 79 80  1  0  0  0  0
 81 79  4  0  0  0  0
 82 81  1  0  0  0  0
 83 81  4  0  0  0  0
 84 83  1  0  0  0  0
 85 83  4  0  0  0  0
 86 85  1  0  0  0  0
 87 85  4  0  0  0  0
 88 87  1  0  0  0  0
 89 79  4  0  0  0  0
 90 91  4  0  0  0  0
 91 92  1  0  0  0  0
 93 91  4  0  0  0  0
 94 93  1  0  0  0  0
 95 93  4  0  0  0  0
 96 95  1  0  0  0  0
 97 95  4  0  0  0  0
 98 97  1  0  0  0  0
 99 90  4  0  0  0  0
100 99  1  0  0  0  0
101102  4  0  0  0  0
102103  1  0  0  0  0
104102  4  0  0  0  0
105104  1  0  0  0  0
106104  4  0  0  0  0
107106  1  0  0  0  0
108106  4  0  0  0  0
109108  1  0  0  0  0
110101  4  0  0  0  0
111110  1  0  0  0  0
112 42  1  0  0  0  0
113 48  1  0  0  0  0
114 89  1  0  0  0  0
115112  1  0  0  0  0
116 41  1  0  0  0  0
117 43  1  0  0  0  0
  3 15  1  0  0  0  0
  3 41  1  0  0  0  0
  5 17  1  0  0  0  0
  5 41  1  0  0  0  0
  7  9  1  0  0  0  0
  7 41  1  0  0  0  0
  7 42  1  0  0  0  0
  9 11  1  0  0  0  0
  9 17  1  0  0  0  0
 11 13  1  0  0  0  0
 11 19  1  0  0  0  0
 11 42  1  0  0  0  0
 13 15  1  0  0  0  0
 13 19  1  0  0  0  0
 13 42  1  0  0  0  0
 15 17  1  0  0  0  0
 15 19  1  0  0  0  0
 17 19  1  0  0  0  0
 23 33  1  0  0  0  0
 23 43  1  0  0  0  0
 25 35  1  0  0  0  0
 25 43  1  0  0  0  0
 27 37  1  0  0  0  0
 27 43  1  0  0  0  0
 27 44  1  0  0  0  0
 29 31  1  0  0  0  0
 29 37  1  0  0  0  0
 29 44  1  0  0  0  0
 31 33  1  0  0  0  0
 31 39  1  0  0  0  0
 31 44  1  0  0  0  0
 33 35  1  0  0  0  0
 33 39  1  0  0  0  0
 35 37  1  0  0  0  0
 35 39  1  0  0  0  0
 37 39  1  0  0  0  0
 41 42  1  0  0  0  0
 43 44  1  0  0  0  0
 53 55  4  0  0  0  0
 65 67  4  0  0  0  0
 67113  1  0  0  0  0
 68113  1  0  0  0  0
 75 77  4  0  0  0  0
 87 89  4  0  0  0  0
 90114  1  0  0  0  0
 97 99  4  0  0  0  0
101114  1  0  0  0  0
108110  4  0  0  0  0
113115  1  0  0  0  0
114115  1  0  0  0  0
115116  1  0  0  0  0
115117  1  0  0  0  0
M  END
$$$$
QICJAP

From CSD data. Using bond type 'Any'. No disordered atoms. Largest molecule.
 85 93  0  0  0  0  0  0  0  0999 V2000
   10.7569    8.7853    2.3913 Fe  0  0  0  0  0  0  0  0  0  0  0  0
    9.3398   10.3118    1.3840 P   0  0  0  0  0  0  0  0  0  0  0  0
   12.0849    7.4022    3.6827 P   0  0  0  0  0  0  0  0  0  0  0  0
   12.9571   11.2110    2.3818 F   0  0  0  0  0  0  0  0  0  0  0  0
   11.7815   12.6686    3.6729 F   0  0  0  0  0  0  0  0  0  0  0  0
   13.0419   11.0742    4.6452 F   0  0  0  0  0  0  0  0  0  0  0  0
    7.1724    8.4208    3.8936 F   0  0  0  0  0  0  0  0  0  0  0  0
    8.2212    6.9860    5.2962 F   0  0  0  0  0  0  0  0  0  0  0  0
    8.2992    6.6498    3.0301 F   0  0  0  0  0  0  0  0  0  0  0  0
   12.2613   11.3864    3.5516 B   0  0  0  0  0  0  0  0  0  0  0  0
    8.2556    7.5789    4.0440 B   0  0  0  0  0  0  0  0  0  0  0  0
    9.9156    6.6622    0.5856 O   0  0  0  0  0  0  0  0  0  0  0  0
   12.8954    9.0063    0.4360 O   0  0  0  0  0  0  0  0  0  0  0  0
   11.0890   10.4344    3.4915 O   0  0  0  0  0  0  0  0  0  0  0  0
    9.5290    8.3904    3.9408 O   0  0  0  0  0  0  0  0  0  0  0  0
   10.2111    7.4542    1.3391 C   0  0  0  0  0  0  0  0  0  0  0  0
   12.0640    9.0032    1.2064 C   0  0  0  0  0  0  0  0  0  0  0  0
    8.1721    9.7558    0.0945 C   0  0  0  0  0  0  0  0  0  0  0  0
    7.3513    8.6657    0.3584 C   0  0  0  0  0  0  0  0  0  0  0  0
    7.4081    8.2209    1.1966 H   0  0  0  0  0  0  0  0  0  0  0  0
    6.4530    8.2264   -0.5997 C   0  0  0  0  0  0  0  0  0  0  0  0
    5.8815    7.4912   -0.4092 H   0  0  0  0  0  0  0  0  0  0  0  0
    6.3792    8.8538   -1.8358 C   0  0  0  0  0  0  0  0  0  0  0  0
    5.7799    8.5330   -2.4990 H   0  0  0  0  0  0  0  0  0  0  0  0
    7.1824    9.9445   -2.0982 C   0  0  0  0  0  0  0  0  0  0  0  0
    7.1250   10.3862   -2.9378 H   0  0  0  0  0  0  0  0  0  0  0  0
    8.0744   10.3981   -1.1331 C   0  0  0  0  0  0  0  0  0  0  0  0
    8.6224   11.1519   -1.3151 H   0  0  0  0  0  0  0  0  0  0  0  0
   10.2202   11.7099    0.6209 C   0  0  0  0  0  0  0  0  0  0  0  0
   11.0850   11.4990   -0.4459 C   0  0  0  0  0  0  0  0  0  0  0  0
   11.2069   10.6203   -0.7860 H   0  0  0  0  0  0  0  0  0  0  0  0
   11.7740   12.5640   -1.0216 C   0  0  0  0  0  0  0  0  0  0  0  0
   12.3873   12.4104   -1.7299 H   0  0  0  0  0  0  0  0  0  0  0  0
   11.5574   13.8503   -0.5503 C   0  0  0  0  0  0  0  0  0  0  0  0
   12.0210   14.5807   -0.9412 H   0  0  0  0  0  0  0  0  0  0  0  0
   10.6673   14.0710    0.4854 C   0  0  0  0  0  0  0  0  0  0  0  0
   10.5047   14.9561    0.7860 H   0  0  0  0  0  0  0  0  0  0  0  0
   10.0135   13.0134    1.0837 C   0  0  0  0  0  0  0  0  0  0  0  0
    9.4222   13.1703    1.8104 H   0  0  0  0  0  0  0  0  0  0  0  0
    8.3090   11.0619    2.6810 C   0  0  0  0  0  0  0  0  0  0  0  0
    8.7912   11.2184    3.9806 C   0  0  0  0  0  0  0  0  0  0  0  0
    7.9900   11.8707    4.9288 C   0  0  0  0  0  0  0  0  0  0  0  0
    8.3153   11.9987    5.8121 H   0  0  0  0  0  0  0  0  0  0  0  0
    6.7306   12.3317    4.5873 C   0  0  0  0  0  0  0  0  0  0  0  0
    6.1892   12.7569    5.2420 H   0  0  0  0  0  0  0  0  0  0  0  0
    6.2555   12.1756    3.2990 C   0  0  0  0  0  0  0  0  0  0  0  0
    5.3923   12.4973    3.0676 H   0  0  0  0  0  0  0  0  0  0  0  0
    7.0400   11.5500    2.3466 C   0  0  0  0  0  0  0  0  0  0  0  0
    6.7159   11.4498    1.4590 H   0  0  0  0  0  0  0  0  0  0  0  0
   10.0835   10.6133    4.5055 C   0  0  0  0  0  0  0  0  0  0  0  0
   10.4484   11.2001    5.2293 H   0  0  0  0  0  0  0  0  0  0  0  0
    9.8190    9.2287    5.0741 C   0  0  0  0  0  0  0  0  0  0  0  0
    9.0101    9.2692    5.6597 H   0  0  0  0  0  0  0  0  0  0  0  0
   12.0756    8.0196    5.3916 C   0  0  0  0  0  0  0  0  0  0  0  0
   10.9927    8.7496    5.8967 C   0  0  0  0  0  0  0  0  0  0  0  0
   11.0215    9.1437    7.2330 C   0  0  0  0  0  0  0  0  0  0  0  0
   10.2902    9.6334    7.5886 H   0  0  0  0  0  0  0  0  0  0  0  0
   12.0872    8.8388    8.0486 C   0  0  0  0  0  0  0  0  0  0  0  0
   12.0887    9.1270    8.9545 H   0  0  0  0  0  0  0  0  0  0  0  0
   13.1591    8.1121    7.5519 C   0  0  0  0  0  0  0  0  0  0  0  0
   13.8921    7.8912    8.1149 H   0  0  0  0  0  0  0  0  0  0  0  0
   13.1503    7.7091    6.2255 C   0  0  0  0  0  0  0  0  0  0  0  0
   13.8858    7.2161    5.8812 H   0  0  0  0  0  0  0  0  0  0  0  0
   11.4049    5.7198    3.7816 C   0  0  0  0  0  0  0  0  0  0  0  0
   10.7977    5.2541    4.9288 C   0  0  0  0  0  0  0  0  0  0  0  0
   10.7465    5.8076    5.6992 H   0  0  0  0  0  0  0  0  0  0  0  0
   10.2617    3.9704    4.9556 C   0  0  0  0  0  0  0  0  0  0  0  0
    9.8340    3.6540    5.7415 H   0  0  0  0  0  0  0  0  0  0  0  0
   10.3502    3.1581    3.8465 C   0  0  0  0  0  0  0  0  0  0  0  0
    9.9878    2.2805    3.8719 H   0  0  0  0  0  0  0  0  0  0  0  0
   10.9597    3.6145    2.7050 C   0  0  0  0  0  0  0  0  0  0  0  0
   11.0272    3.0487    1.9458 H   0  0  0  0  0  0  0  0  0  0  0  0
   11.4748    4.8866    2.6584 C   0  0  0  0  0  0  0  0  0  0  0  0
   11.8810    5.2032    1.8598 H   0  0  0  0  0  0  0  0  0  0  0  0
   13.8432    7.1813    3.2525 C   0  0  0  0  0  0  0  0  0  0  0  0
   14.4334    5.9255    3.1960 C   0  0  0  0  0  0  0  0  0  0  0  0
   13.9219    5.1491    3.3893 H   0  0  0  0  0  0  0  0  0  0  0  0
   15.7852    5.8094    2.8545 C   0  0  0  0  0  0  0  0  0  0  0  0
   16.1835    4.9487    2.7981 H   0  0  0  0  0  0  0  0  0  0  0  0
   16.5388    6.9208    2.5991 C   0  0  0  0  0  0  0  0  0  0  0  0
   17.4557    6.8306    2.3706 H   0  0  0  0  0  0  0  0  0  0  0  0
   15.9622    8.1716    2.6725 C   0  0  0  0  0  0  0  0  0  0  0  0
   16.4874    8.9452    2.5018 H   0  0  0  0  0  0  0  0  0  0  0  0
   14.6170    8.3049    2.9956 C   0  0  0  0  0  0  0  0  0  0  0  0
   14.2253    9.1703    3.0408 H   0  0  0  0  0  0  0  0  0  0  0  0
  1  2  1  0  0  0  0
  2 18  1  0  0  0  0
  3  1  1  0  0  0  0
  4 10  1  0  0  0  0
  5 10  1  0  0  0  0
  6 10  1  0  0  0  0
  7 11  1  0  0  0  0
  8 11  1  0  0  0  0
  9 11  1  0  0  0  0
 10 14  1  0  0  0  0
 11 15  1  0  0  0  0
 12 16  3  0  0  0  0
 13 17  3  0  0  0  0
 14  1  1  0  0  0  0
 15  1  1  0  0  0  0
 16  1  1  0  0  0  0
 17  1  1  0  0  0  0
 18 19  4  0  0  0  0
 19 20  1  0  0  0  0
 21 19  4  0  0  0  0
 22 21  1  0  0  0  0
 23 21  4  0  0  0  0
 24 23  1  0  0  0  0
 25 23  4  0  0  0  0
 26 25  1  0  0  0  0
 27 18  4  0  0  0  0
 28 27  1  0  0  0  0
 29  2  1  0  0  0  0
 30 29  4  0  0  0  0
 31 30  1  0  0  0  0
 32 30  4  0  0  0  0
 33 32  1  0  0  0  0
 34 32  4  0  0  0  0
 35 34  1  0  0  0  0
 36 34  4  0  0  0  0
 37 36  1  0  0  0  0
 38 29  4  0  0  0  0
 39 38  1  0  0  0  0
 40  2  1  0  0  0  0
 41 40  4  0  0  0  0
 42 41  4  0  0  0  0
 43 42  1  0  0  0  0
 44 42  4  0  0  0  0
 45 44  1  0  0  0  0
 46 44  4  0  0  0  0
 47 46  1  0  0  0  0
 48 40  4  0  0  0  0
 49 48  1  0  0  0  0
 50 14  1  0  0  0  0
 51 50  1  0  0  0  0
 52 15  1  0  0  0  0
 53 52  1  0  0  0  0
 54  3  1  0  0  0  0
 55 52  1  0  0  0  0
 56 55  4  0  0  0  0
 57 56  1  0  0  0  0
 58 56  4  0  0  0  0
 59 58  1  0  0  0  0
 60 58  4  0  0  0  0
 61 60  1  0  0  0  0
 62 54  4  0  0  0  0
 63 62  1  0  0  0  0
 64  3  1  0  0  0  0
 65 64  4  0  0  0  0
 66 65  1  0  0  0  0
 67 65  4  0  0  0  0
 68 67  1  0  0  0  0
 69 67  4  0  0  0  0
 70 69  1  0  0  0  0
 71 69  4  0  0  0  0
 72 71  1  0  0  0  0
 73 64  4  0  0  0  0
 74 73  1  0  0  0  0
 75  3  1  0  0  0  0
 76 75  4  0  0  0  0
 77 76  1  0  0  0  0
 78 76  4  0  0  0  0
 79 78  1  0  0  0  0
 80 78  4  0  0  0  0
 81 80  1  0  0  0  0
 82 80  4  0  0  0  0
 83 82  1  0  0  0  0
 84 75  4  0  0  0  0
 85 84  1  0  0  0  0
 25 27  4  0  0  0  0
 36 38  4  0  0  0  0
 41 50  1  0  0  0  0
 46 48  4  0  0  0  0
 50 52  1  0  0  0  0
 54 55  4  0  0  0  0
 60 62  4  0  0  0  0
 71 73  4  0  0  0  0
 82 84  4  0  0  0  0
M  END
$$$$
QIPHEG

From CSD data. Using bond type 'Any'. Matching problem. No disordered atoms. Largest molecule.
156169  0  0  0  0  0  0  0  0999 V2000
    4.2080    4.6439    5.8702 Ni  0  0  0  0  0  0  0  0  0  0  0  0
    5.8518    3.3390    7.2089 Ni  0  0  0  0  0  0  0  0  0  0  0  0
    7.2468    2.4120    5.5073 Ni  0  0  0  0  0  0  0  0  0  0  0  0
    6.4224    4.7119    5.0205 Ni  0  0  0  0  0  0  0  0  0  0  0  0
    8.1994    1.0420    4.1140 P   0  0  0  0  0  0  0  0  0  0  0  0
    6.5710    2.8858    9.2733 P   0  0  0  0  0  0  0  0  0  0  0  0
    2.0496    4.5452    6.0613 P   0  0  0  0  0  0  0  0  0  0  0  0
    6.9292    6.7386    4.2199 P   0  0  0  0  0  0  0  0  0  0  0  0
    8.2343    4.0209    5.2165 O   0  0  0  0  0  0  0  0  0  0  0  0
    4.7478    4.8831    7.6770 O   0  0  0  0  0  0  0  0  0  0  0  0
    4.5638    3.8906    3.1380 O   0  0  0  0  0  0  0  0  0  0  0  0
    9.2473    5.4438    3.4623 N   0  0  0  0  0  0  0  0  0  0  0  0
    5.0672    0.7941    6.4025 O   0  0  0  0  0  0  0  0  0  0  0  0
    9.7461    3.1968    3.3603 N   0  0  0  0  0  0  0  0  0  0  0  0
    2.4665    4.8250    8.7807 N   0  0  0  0  0  0  0  0  0  0  0  0
    4.3215    4.2993   10.0419 N   0  0  0  0  0  0  0  0  0  0  0  0
    2.0605    4.5538   10.0912 C   0  0  0  0  0  0  0  0  0  0  0  0
   10.1029    5.2337    2.3814 C   0  0  0  0  0  0  0  0  0  0  0  0
   10.4017    3.8572    2.3103 C   0  0  0  0  0  0  0  0  0  0  0  0
   10.6416    6.1169    1.4667 C   0  0  0  0  0  0  0  0  0  0  0  0
   10.4394    7.0438    1.5060 H   0  0  0  0  0  0  0  0  0  0  0  0
    6.2639    1.1956   10.0403 C   0  0  0  0  0  0  0  0  0  0  0  0
    3.2042    4.2389   10.8592 C   0  0  0  0  0  0  0  0  0  0  0  0
    9.7951    1.7592    3.5005 C   0  0  0  0  0  0  0  0  0  0  0  0
   10.5202    1.5224    4.1335 H   0  0  0  0  0  0  0  0  0  0  0  0
   10.0158    1.3566    2.6244 H   0  0  0  0  0  0  0  0  0  0  0  0
    8.7661    6.7368    3.8973 C   0  0  0  0  0  0  0  0  0  0  0  0
    8.9740    7.4101    3.2020 H   0  0  0  0  0  0  0  0  0  0  0  0
    9.2414    6.9975    4.7250 H   0  0  0  0  0  0  0  0  0  0  0  0
    1.5185    5.1358    7.7391 C   0  0  0  0  0  0  0  0  0  0  0  0
    1.3872    6.1167    7.7071 H   0  0  0  0  0  0  0  0  0  0  0  0
    0.6474    4.7224    7.9638 H   0  0  0  0  0  0  0  0  0  0  0  0
    6.2264    7.2843    2.5656 C   0  0  0  0  0  0  0  0  0  0  0  0
    5.8788    1.6453    6.2782 C   0  0  0  0  0  0  0  0  0  0  0  0
    0.8156    4.5592   10.6718 C   0  0  0  0  0  0  0  0  0  0  0  0
    0.0480    4.7774   10.1556 H   0  0  0  0  0  0  0  0  0  0  0  0
    7.2294    0.7965    2.5282 C   0  0  0  0  0  0  0  0  0  0  0  0
   11.2229    3.3647    1.3420 C   0  0  0  0  0  0  0  0  0  0  0  0
   11.4210    2.4363    1.2937 H   0  0  0  0  0  0  0  0  0  0  0  0
    4.6834    7.2857    2.5947 C   0  0  0  0  0  0  0  0  0  0  0  0
    4.3398    7.4226    1.6871 H   0  0  0  0  0  0  0  0  0  0  0  0
    4.3685    8.0086    3.1760 H   0  0  0  0  0  0  0  0  0  0  0  0
    4.3631    6.4259    2.9390 H   0  0  0  0  0  0  0  0  0  0  0  0
    8.7705   -0.5933    4.8259 C   0  0  0  0  0  0  0  0  0  0  0  0
    8.8169    3.6535   10.9294 C   0  0  0  0  0  0  0  0  0  0  0  0
    8.2124    4.2670   11.3960 H   0  0  0  0  0  0  0  0  0  0  0  0
    9.7252    4.0226   10.9349 H   0  0  0  0  0  0  0  0  0  0  0  0
    8.8151    2.7845   11.3823 H   0  0  0  0  0  0  0  0  0  0  0  0
    8.3470    3.4763    9.4794 C   0  0  0  0  0  0  0  0  0  0  0  0
    5.6818    4.0314   10.4568 C   0  0  0  0  0  0  0  0  0  0  0  0
    5.6720    3.6235   11.3586 H   0  0  0  0  0  0  0  0  0  0  0  0
    6.1781    4.8866   10.5156 H   0  0  0  0  0  0  0  0  0  0  0  0
    6.8017    8.0868    5.5301 C   0  0  0  0  0  0  0  0  0  0  0  0
    3.0695    3.9245   12.1987 C   0  0  0  0  0  0  0  0  0  0  0  0
    3.8331    3.7200   12.7260 H   0  0  0  0  0  0  0  0  0  0  0  0
   11.7685    4.2710    0.4134 C   0  0  0  0  0  0  0  0  0  0  0  0
   12.3426    3.9480   -0.2705 H   0  0  0  0  0  0  0  0  0  0  0  0
    6.6937    6.2339    1.5560 C   0  0  0  0  0  0  0  0  0  0  0  0
    6.4275    5.3424    1.8650 H   0  0  0  0  0  0  0  0  0  0  0  0
    7.6695    6.2719    1.4721 H   0  0  0  0  0  0  0  0  0  0  0  0
    6.2838    6.4125    0.6838 H   0  0  0  0  0  0  0  0  0  0  0  0
    6.6838    8.6749    2.0920 C   0  0  0  0  0  0  0  0  0  0  0  0
    6.3439    8.8420    1.1889 H   0  0  0  0  0  0  0  0  0  0  0  0
    7.6632    8.7123    2.0853 H   0  0  0  0  0  0  0  0  0  0  0  0
    6.3361    9.3587    2.7034 H   0  0  0  0  0  0  0  0  0  0  0  0
    4.7068    4.2876    4.2504 C   0  0  0  0  0  0  0  0  0  0  0  0
    8.9967    4.1802    4.1133 B   0  0  0  0  0  0  0  0  0  0  0  0
   11.4913    5.6073    0.4799 C   0  0  0  0  0  0  0  0  0  0  0  0
   11.8810    6.1985   -0.1546 H   0  0  0  0  0  0  0  0  0  0  0  0
    4.7580    0.9688    9.9468 C   0  0  0  0  0  0  0  0  0  0  0  0
    4.4700    1.0723    9.0157 H   0  0  0  0  0  0  0  0  0  0  0  0
    4.2937    1.6247   10.5074 H   0  0  0  0  0  0  0  0  0  0  0  0
    4.5445    0.0642   10.2564 H   0  0  0  0  0  0  0  0  0  0  0  0
    8.4138    4.8178    8.7543 C   0  0  0  0  0  0  0  0  0  0  0  0
    8.1728    4.6921    7.8121 H   0  0  0  0  0  0  0  0  0  0  0  0
    9.3234    5.1762    8.8134 H   0  0  0  0  0  0  0  0  0  0  0  0
    7.7868    5.4454    9.1702 H   0  0  0  0  0  0  0  0  0  0  0  0
    1.3943    2.7889    6.0038 C   0  0  0  0  0  0  0  0  0  0  0  0
    7.2348    2.1237    1.7804 C   0  0  0  0  0  0  0  0  0  0  0  0
    6.9051    2.8329    2.3716 H   0  0  0  0  0  0  0  0  0  0  0  0
    6.6530    2.0589    0.9938 H   0  0  0  0  0  0  0  0  0  0  0  0
    8.1477    2.3350    1.4946 H   0  0  0  0  0  0  0  0  0  0  0  0
    5.7704    0.4739    2.8835 C   0  0  0  0  0  0  0  0  0  0  0  0
    5.7323   -0.3823    3.3585 H   0  0  0  0  0  0  0  0  0  0  0  0
    5.2390    0.4173    2.0630 H   0  0  0  0  0  0  0  0  0  0  0  0
    5.4114    1.1824    3.4580 H   0  0  0  0  0  0  0  0  0  0  0  0
    7.5658   -1.5024    5.0710 C   0  0  0  0  0  0  0  0  0  0  0  0
    6.8850   -1.0130    5.5794 H   0  0  0  0  0  0  0  0  0  0  0  0
    7.8490   -2.2904    5.5802 H   0  0  0  0  0  0  0  0  0  0  0  0
    7.1896   -1.7865    4.2119 H   0  0  0  0  0  0  0  0  0  0  0  0
    6.9655    0.1028    9.2301 C   0  0  0  0  0  0  0  0  0  0  0  0
    6.7022   -0.7766    9.5727 H   0  0  0  0  0  0  0  0  0  0  0  0
    7.9362    0.2085    9.3121 H   0  0  0  0  0  0  0  0  0  0  0  0
    6.7066    0.1781    8.2884 H   0  0  0  0  0  0  0  0  0  0  0  0
    7.2529    7.4255    6.8389 C   0  0  0  0  0  0  0  0  0  0  0  0
    6.6671    6.6662    7.0409 H   0  0  0  0  0  0  0  0  0  0  0  0
    7.2055    8.0781    7.5680 H   0  0  0  0  0  0  0  0  0  0  0  0
    8.1759    7.1089    6.7433 H   0  0  0  0  0  0  0  0  0  0  0  0
    1.0684    5.6955    4.9505 C   0  0  0  0  0  0  0  0  0  0  0  0
    6.7135    1.0680   11.5028 C   0  0  0  0  0  0  0  0  0  0  0  0
    6.2557    1.7434   12.0446 H   0  0  0  0  0  0  0  0  0  0  0  0
    7.6819    1.2035   11.5591 H   0  0  0  0  0  0  0  0  0  0  0  0
    6.4883    0.1739   11.8354 H   0  0  0  0  0  0  0  0  0  0  0  0
    9.8377   -1.3414    3.9991 C   0  0  0  0  0  0  0  0  0  0  0  0
    9.4858   -1.5278    3.1032 H   0  0  0  0  0  0  0  0  0  0  0  0
   10.0638   -2.1844    4.4433 H   0  0  0  0  0  0  0  0  0  0  0  0
   10.6418   -0.7854    3.9239 H   0  0  0  0  0  0  0  0  0  0  0  0
    3.9171    4.6781    8.7149 B   0  0  0  0  0  0  0  0  0  0  0  0
    1.7898    3.9159   12.7659 C   0  0  0  0  0  0  0  0  0  0  0  0
    1.6798    3.6784   13.6786 H   0  0  0  0  0  0  0  0  0  0  0  0
    9.3930   -0.2601    6.1866 C   0  0  0  0  0  0  0  0  0  0  0  0
   10.1667    0.3263    6.0576 H   0  0  0  0  0  0  0  0  0  0  0  0
    9.6793   -1.0882    6.6257 H   0  0  0  0  0  0  0  0  0  0  0  0
    8.7286    0.1934    6.7469 H   0  0  0  0  0  0  0  0  0  0  0  0
    7.7737   -0.2655    1.5872 C   0  0  0  0  0  0  0  0  0  0  0  0
    8.7080   -0.0630    1.3721 H   0  0  0  0  0  0  0  0  0  0  0  0
    7.2434   -0.2734    0.7623 H   0  0  0  0  0  0  0  0  0  0  0  0
    7.7197   -1.1430    2.0185 H   0  0  0  0  0  0  0  0  0  0  0  0
    0.6906    4.2462   12.0097 C   0  0  0  0  0  0  0  0  0  0  0  0
   -0.1679    4.2605   12.4148 H   0  0  0  0  0  0  0  0  0  0  0  0
    5.3545    8.5274    5.7213 C   0  0  0  0  0  0  0  0  0  0  0  0
    5.0478    8.9981    4.9192 H   0  0  0  0  0  0  0  0  0  0  0  0
    5.2957    9.1260    6.4950 H   0  0  0  0  0  0  0  0  0  0  0  0
    4.7911    7.7399    5.8743 H   0  0  0  0  0  0  0  0  0  0  0  0
    7.6796    9.3204    5.2788 C   0  0  0  0  0  0  0  0  0  0  0  0
    8.5896    9.0345    5.0541 H   0  0  0  0  0  0  0  0  0  0  0  0
    7.7024    9.8756    6.0868 H   0  0  0  0  0  0  0  0  0  0  0  0
    7.3081    9.8411    4.5362 H   0  0  0  0  0  0  0  0  0  0  0  0
    9.3160    2.5305    8.7689 C   0  0  0  0  0  0  0  0  0  0  0  0
    9.3376    1.6711    9.2402 H   0  0  0  0  0  0  0  0  0  0  0  0
   10.2135    2.9244    8.7677 H   0  0  0  0  0  0  0  0  0  0  0  0
    9.0188    2.3904    7.8465 H   0  0  0  0  0  0  0  0  0  0  0  0
    1.9603    2.0933    4.7553 C   0  0  0  0  0  0  0  0  0  0  0  0
    1.6415    2.5555    3.9512 H   0  0  0  0  0  0  0  0  0  0  0  0
    1.6611    1.1606    4.7352 H   0  0  0  0  0  0  0  0  0  0  0  0
    2.9398    2.1217    4.7800 H   0  0  0  0  0  0  0  0  0  0  0  0
    1.8323    7.0201    4.9900 C   0  0  0  0  0  0  0  0  0  0  0  0
    1.8730    7.3473    5.9132 H   0  0  0  0  0  0  0  0  0  0  0  0
    1.3713    7.6797    4.4303 H   0  0  0  0  0  0  0  0  0  0  0  0
    2.7418    6.8836    4.6517 H   0  0  0  0  0  0  0  0  0  0  0  0
    1.1060    5.1788    3.5026 C   0  0  0  0  0  0  0  0  0  0  0  0
    2.0323    4.9848    3.2488 H   0  0  0  0  0  0  0  0  0  0  0  0
    0.7393    5.8621    2.9030 H   0  0  0  0  0  0  0  0  0  0  0  0
    0.5699    4.3616    3.4329 H   0  0  0  0  0  0  0  0  0  0  0  0
    1.9880    2.0733    7.2316 C   0  0  0  0  0  0  0  0  0  0  0  0
    1.7787    1.1175    7.1865 H   0  0  0  0  0  0  0  0  0  0  0  0
    1.6032    2.4539    8.0492 H   0  0  0  0  0  0  0  0  0  0  0  0
    2.9606    2.1950    7.2421 H   0  0  0  0  0  0  0  0  0  0  0  0
   -0.3928    5.9380    5.3723 C   0  0  0  0  0  0  0  0  0  0  0  0
   -0.8826    5.0895    5.3585 H   0  0  0  0  0  0  0  0  0  0  0  0
   -0.8122    6.5668    4.7471 H   0  0  0  0  0  0  0  0  0  0  0  0
   -0.4147    6.3141    6.2765 H   0  0  0  0  0  0  0  0  0  0  0  0
   -0.1361    2.6547    6.0204 C   0  0  0  0  0  0  0  0  0  0  0  0
   -0.5045    3.0243    5.1913 H   0  0  0  0  0  0  0  0  0  0  0  0
   -0.4983    3.1468    6.7869 H   0  0  0  0  0  0  0  0  0  0  0  0
   -0.3804    1.7089    6.0943 H   0  0  0  0  0  0  0  0  0  0  0  0
  1  2  1  0  0  0  0
  2  3  1  0  0  0  0
  3  4  1  0  0  0  0
  4  1  1  0  0  0  0
  5  3  1  0  0  0  0
  6  2  1  0  0  0  0
  7  1  1  0  0  0  0
  8  4  1  0  0  0  0
  9  3  1  0  0  0  0
 10  1  1  0  0  0  0
 11 66  2  0  0  0  0
 12 18  1  0  0  0  0
 13 34  2  0  0  0  0
 14 19  1  0  0  0  0
 15 17  1  0  0  0  0
 16 23  1  0  0  0  0
 17 23  4  0  0  0  0
 18 19  4  0  0  0  0
 19 38  4  0  0  0  0
 20 18  4  0  0  0  0
 21 20  1  0  0  0  0
 22  6  1  0  0  0  0
 23 54  4  0  0  0  0
 24  5  1  0  0  0  0
 25 24  1  0  0  0  0
 26 24  1  0  0  0  0
 27  8  1  0  0  0  0
 28 27  1  0  0  0  0
 29 27  1  0  0  0  0
 30  7  1  0  0  0  0
 31 30  1  0  0  0  0
 32 30  1  0  0  0  0
 33  8  1  0  0  0  0
 34  2  1  0  0  0  0
 35 17  4  0  0  0  0
 36 35  1  0  0  0  0
 37  5  1  0  0  0  0
 38 39  1  0  0  0  0
 40 33  1  0  0  0  0
 41 40  1  0  0  0  0
 42 40  1  0  0  0  0
 43 40  1  0  0  0  0
 44  5  1  0  0  0  0
 45 46  1  0  0  0  0
 47 45  1  0  0  0  0
 48 45  1  0  0  0  0
 49  6  1  0  0  0  0
 50  6  1  0  0  0  0
 51 50  1  0  0  0  0
 52 50  1  0  0  0  0
 53  8  1  0  0  0  0
 54 55  1  0  0  0  0
 56 38  4  0  0  0  0
 57 56  1  0  0  0  0
 58 33  1  0  0  0  0
 59 58  1  0  0  0  0
 60 58  1  0  0  0  0
 61 58  1  0  0  0  0
 62 33  1  0  0  0  0
 63 62  1  0  0  0  0
 64 62  1  0  0  0  0
 65 62  1  0  0  0  0
 66  1  1  0  0  0  0
 67  9  1  0  0  0  0
 68 20  4  0  0  0  0
 69 68  1  0  0  0  0
 70 22  1  0  0  0  0
 71 70  1  0  0  0  0
 72 70  1  0  0  0  0
 73 70  1  0  0  0  0
 74 49  1  0  0  0  0
 75 74  1  0  0  0  0
 76 74  1  0  0  0  0
 77 74  1  0  0  0  0
 78  7  1  0  0  0  0
 79 37  1  0  0  0  0
 80 79  1  0  0  0  0
 81 79  1  0  0  0  0
 82 79  1  0  0  0  0
 83 37  1  0  0  0  0
 84 83  1  0  0  0  0
 85 83  1  0  0  0  0
 86 83  1  0  0  0  0
 87 44  1  0  0  0  0
 88 87  1  0  0  0  0
 89 87  1  0  0  0  0
 90 87  1  0  0  0  0
 91 22  1  0  0  0  0
 92 91  1  0  0  0  0
 93 91  1  0  0  0  0
 94 91  1  0  0  0  0
 95 53  1  0  0  0  0
 96 95  1  0  0  0  0
 97 95  1  0  0  0  0
 98 95  1  0  0  0  0
 99  7  1  0  0  0  0
100 22  1  0  0  0  0
101100  1  0  0  0  0
102100  1  0  0  0  0
103100  1  0  0  0  0
104 44  1  0  0  0  0
105104  1  0  0  0  0
106104  1  0  0  0  0
107104  1  0  0  0  0
108 10  1  0  0  0  0
109 54  4  0  0  0  0
110109  1  0  0  0  0
111 44  1  0  0  0  0
112111  1  0  0  0  0
113111  1  0  0  0  0
114111  1  0  0  0  0
115 37  1  0  0  0  0
116115  1  0  0  0  0
117115  1  0  0  0  0
118115  1  0  0  0  0
119 35  4  0  0  0  0
120119  1  0  0  0  0
121 53  1  0  0  0  0
122121  1  0  0  0  0
123121  1  0  0  0  0
124121  1  0  0  0  0
125 53  1  0  0  0  0
126125  1  0  0  0  0
127125  1  0  0  0  0
128125  1  0  0  0  0
129 49  1  0  0  0  0
130129  1  0  0  0  0
131129  1  0  0  0  0
132129  1  0  0  0  0
133 78  1  0  0  0  0
134133  1  0  0  0  0
135133  1  0  0  0  0
136133  1  0  0  0  0
137 99  1  0  0  0  0
138137  1  0  0  0  0
139137  1  0  0  0  0
140137  1  0  0  0  0
141 99  1  0  0  0  0
142141  1  0  0  0  0
143141  1  0  0  0  0
144141  1  0  0  0  0
145 78  1  0  0  0  0
146145  1  0  0  0  0
147145  1  0  0  0  0
148145  1  0  0  0  0
149 99  1  0  0  0  0
150149  1  0  0  0  0
151149  1  0  0  0  0
152149  1  0  0  0  0
153 78  1  0  0  0  0
154153  1  0  0  0  0
155153  1  0  0  0  0
156153  1  0  0  0  0
  2  4  1  0  0  0  0
  2 10  1  0  0  0  0
  3 34  1  0  0  0  0
  4  9  1  0  0  0  0
  4 66  1  0  0  0  0
 12 27  1  0  0  0  0
 12 67  1  0  0  0  0
 14 24  1  0  0  0  0
 14 67  1  0  0  0  0
 15 30  1  0  0  0  0
 15108  1  0  0  0  0
 16 50  1  0  0  0  0
 16108  1  0  0  0  0
 45 49  1  0  0  0  0
 56 68  4  0  0  0  0
109119  4  0  0  0  0
M  END
$$$$
QIQTAP

From CSD data. Using bond type 'Any'. Matching problem. No disordered atoms. Largest molecule.
158164  0  0  0  0  0  0  0  0999 V2000
    2.7098   -1.9783    9.5858 Ni  0  0  0  0  0  0  0  0  0  0  0  0
    4.0478    0.7370    9.6104 Ni  0  0  0  0  0  0  0  0  0  0  0  0
    2.8255   -3.7698   10.7904 P   0  0  0  0  0  0  0  0  0  0  0  0
    5.4065    1.8136   10.8986 P   0  0  0  0  0  0  0  0  0  0  0  0
   -1.0646    2.1485    8.4043 P   0  0  0  0  0  0  0  0  0  0  0  0
    4.5715   -1.7401    4.4288 P   0  0  0  0  0  0  0  0  0  0  0  0
    2.8306   -0.3447    8.5361 O   0  0  0  0  0  0  0  0  0  0  0  0
    3.7967   -0.8521   10.7423 O   0  0  0  0  0  0  0  0  0  0  0  0
    4.8691   -2.5266   12.2300 N   0  0  0  0  0  0  0  0  0  0  0  0
    5.2616   -0.3166   12.6599 N   0  0  0  0  0  0  0  0  0  0  0  0
    2.5062   -0.6186    6.0621 N   0  0  0  0  0  0  0  0  0  0  0  0
    1.2122    0.9585    7.1430 N   0  0  0  0  0  0  0  0  0  0  0  0
    4.1669    2.1413    8.2781 C   0  0  0  0  0  0  0  0  0  0  0  0
    4.0182    1.7601    7.3875 H   0  0  0  0  0  0  0  0  0  0  0  0
    5.0564    2.5509    8.3137 H   0  0  0  0  0  0  0  0  0  0  0  0
    3.4861    2.8224    8.4596 H   0  0  0  0  0  0  0  0  0  0  0  0
    4.5421   -1.1995   11.7718 B   0  0  0  0  0  0  0  0  0  0  0  0
    4.4244   -3.8062   11.7382 C   0  0  0  0  0  0  0  0  0  0  0  0
    4.3200   -4.4201   12.5077 H   0  0  0  0  0  0  0  0  0  0  0  0
    5.1291   -4.1801   11.1519 H   0  0  0  0  0  0  0  0  0  0  0  0
    2.9930   -5.4579    9.9456 C   0  0  0  0  0  0  0  0  0  0  0  0
    1.6452   -6.0060    9.4645 C   0  0  0  0  0  0  0  0  0  0  0  0
    1.2167   -5.3496    8.8765 H   0  0  0  0  0  0  0  0  0  0  0  0
    1.0680   -6.1782   10.2375 H   0  0  0  0  0  0  0  0  0  0  0  0
    1.7892   -6.8410    8.9720 H   0  0  0  0  0  0  0  0  0  0  0  0
    3.6301   -6.5329   10.8491 C   0  0  0  0  0  0  0  0  0  0  0  0
    3.7061   -7.3738   10.3518 H   0  0  0  0  0  0  0  0  0  0  0  0
    3.0663   -6.6706   11.6391 H   0  0  0  0  0  0  0  0  0  0  0  0
    4.5205   -6.2373   11.1304 H   0  0  0  0  0  0  0  0  0  0  0  0
    3.9130   -5.2409    8.7416 C   0  0  0  0  0  0  0  0  0  0  0  0
    4.0834   -6.0997    8.3011 H   0  0  0  0  0  0  0  0  0  0  0  0
    4.7623   -4.8557    9.0444 H   0  0  0  0  0  0  0  0  0  0  0  0
    3.4843   -4.6283    8.1084 H   0  0  0  0  0  0  0  0  0  0  0  0
    1.5149   -3.8060   12.1487 C   0  0  0  0  0  0  0  0  0  0  0  0
    0.1135   -3.6709   11.5337 C   0  0  0  0  0  0  0  0  0  0  0  0
   -0.0631   -4.4402   10.9525 H   0  0  0  0  0  0  0  0  0  0  0  0
    0.0660   -2.8460   11.0074 H   0  0  0  0  0  0  0  0  0  0  0  0
   -0.5555   -3.6417   12.2491 H   0  0  0  0  0  0  0  0  0  0  0  0
    1.7543   -2.5584   13.0156 C   0  0  0  0  0  0  0  0  0  0  0  0
    2.6172   -2.6392   13.4731 H   0  0  0  0  0  0  0  0  0  0  0  0
    1.0383   -2.4800   13.6801 H   0  0  0  0  0  0  0  0  0  0  0  0
    1.7600   -1.7610   12.4459 H   0  0  0  0  0  0  0  0  0  0  0  0
    1.5447   -5.0465   13.0459 C   0  0  0  0  0  0  0  0  0  0  0  0
    0.8886   -4.9440   13.7664 H   0  0  0  0  0  0  0  0  0  0  0  0
    2.4400   -5.1487   13.4314 H   0  0  0  0  0  0  0  0  0  0  0  0
    1.3254   -5.8395   12.5140 H   0  0  0  0  0  0  0  0  0  0  0  0
    5.8088   -2.4409   13.2559 C   0  0  0  0  0  0  0  0  0  0  0  0
    6.0460   -1.0705   13.5214 C   0  0  0  0  0  0  0  0  0  0  0  0
    5.2604    1.1306   12.6211 C   0  0  0  0  0  0  0  0  0  0  0  0
    6.0152    1.4677   13.1659 H   0  0  0  0  0  0  0  0  0  0  0  0
    4.4216    1.4627   13.0289 H   0  0  0  0  0  0  0  0  0  0  0  0
    7.2180    1.5282   10.4636 C   0  0  0  0  0  0  0  0  0  0  0  0
    8.1960    2.1535   11.4687 C   0  0  0  0  0  0  0  0  0  0  0  0
    9.1135    1.9091   11.2277 H   0  0  0  0  0  0  0  0  0  0  0  0
    7.9952    1.8227   12.3692 H   0  0  0  0  0  0  0  0  0  0  0  0
    8.1025    3.1293   11.4515 H   0  0  0  0  0  0  0  0  0  0  0  0
    7.5527    2.0767    9.0758 C   0  0  0  0  0  0  0  0  0  0  0  0
    7.4271    3.0491    9.0699 H   0  0  0  0  0  0  0  0  0  0  0  0
    6.9606    1.6673    8.4109 H   0  0  0  0  0  0  0  0  0  0  0  0
    8.4845    1.8668    8.8572 H   0  0  0  0  0  0  0  0  0  0  0  0
    7.4388    0.0109   10.4143 C   0  0  0  0  0  0  0  0  0  0  0  0
    8.3364   -0.1768   10.0699 H   0  0  0  0  0  0  0  0  0  0  0  0
    6.7703   -0.3964    9.8245 H   0  0  0  0  0  0  0  0  0  0  0  0
    7.3493   -0.3611   11.3160 H   0  0  0  0  0  0  0  0  0  0  0  0
    5.0607    3.6431   11.2856 C   0  0  0  0  0  0  0  0  0  0  0  0
    5.6741    4.6074   10.2677 C   0  0  0  0  0  0  0  0  0  0  0  0
    5.4037    4.3437    9.3635 H   0  0  0  0  0  0  0  0  0  0  0  0
    6.6510    4.5791   10.3381 H   0  0  0  0  0  0  0  0  0  0  0  0
    5.3599    5.5180   10.4499 H   0  0  0  0  0  0  0  0  0  0  0  0
    3.5333    3.8025   11.2593 C   0  0  0  0  0  0  0  0  0  0  0  0
    3.2929    4.6985   11.5738 H   0  0  0  0  0  0  0  0  0  0  0  0
    3.1251    3.1302   11.8446 H   0  0  0  0  0  0  0  0  0  0  0  0
    3.2078    3.6786   10.3435 H   0  0  0  0  0  0  0  0  0  0  0  0
    5.5582    4.0631   12.6817 C   0  0  0  0  0  0  0  0  0  0  0  0
    6.5205    3.8930   12.7505 H   0  0  0  0  0  0  0  0  0  0  0  0
    5.0849    3.5455   13.3663 H   0  0  0  0  0  0  0  0  0  0  0  0
    5.3845    5.0183   12.8165 H   0  0  0  0  0  0  0  0  0  0  0  0
    6.9733   -0.6964   14.4692 C   0  0  0  0  0  0  0  0  0  0  0  0
    7.1365    0.2211   14.6558 H   0  0  0  0  0  0  0  0  0  0  0  0
    7.6703   -1.7059   15.1520 C   0  0  0  0  0  0  0  0  0  0  0  0
    8.3165   -1.4667   15.8060 H   0  0  0  0  0  0  0  0  0  0  0  0
    7.4341   -3.0380   14.8907 C   0  0  0  0  0  0  0  0  0  0  0  0
    7.9202   -3.7018   15.3647 H   0  0  0  0  0  0  0  0  0  0  0  0
    6.4901   -3.4232   13.9391 C   0  0  0  0  0  0  0  0  0  0  0  0
    6.3212   -4.3420   13.7664 H   0  0  0  0  0  0  0  0  0  0  0  0
    2.2481   -0.0385    7.3672 B   0  0  0  0  0  0  0  0  0  0  0  0
    1.6700   -0.0107    5.1272 C   0  0  0  0  0  0  0  0  0  0  0  0
    1.5251   -0.2156    3.7656 C   0  0  0  0  0  0  0  0  0  0  0  0
    2.0136   -0.9003    3.3239 H   0  0  0  0  0  0  0  0  0  0  0  0
    0.6448    0.6060    3.0538 C   0  0  0  0  0  0  0  0  0  0  0  0
    0.5423    0.4815    2.1176 H   0  0  0  0  0  0  0  0  0  0  0  0
   -0.0781    1.5965    3.6925 C   0  0  0  0  0  0  0  0  0  0  0  0
   -0.6648    2.1480    3.1885 H   0  0  0  0  0  0  0  0  0  0  0  0
    0.0436    1.7963    5.0707 C   0  0  0  0  0  0  0  0  0  0  0  0
   -0.4553    2.4762    5.5083 H   0  0  0  0  0  0  0  0  0  0  0  0
    0.9079    0.9814    5.7851 C   0  0  0  0  0  0  0  0  0  0  0  0
    0.7762    1.9834    8.0800 C   0  0  0  0  0  0  0  0  0  0  0  0
    1.1055    2.8566    7.7495 H   0  0  0  0  0  0  0  0  0  0  0  0
    1.2227    1.8118    8.9468 H   0  0  0  0  0  0  0  0  0  0  0  0
   -1.4184    0.7130    9.5734 C   0  0  0  0  0  0  0  0  0  0  0  0
   -0.3313    0.3804   10.5772 C   0  0  0  0  0  0  0  0  0  0  0  0
   -0.2821    1.0872   11.2540 H   0  0  0  0  0  0  0  0  0  0  0  0
    0.5308    0.3100   10.1155 H   0  0  0  0  0  0  0  0  0  0  0  0
   -0.5377   -0.4740   11.0125 H   0  0  0  0  0  0  0  0  0  0  0  0
   -1.5151   -0.4940    8.6575 C   0  0  0  0  0  0  0  0  0  0  0  0
   -1.6164   -1.3062    9.1976 H   0  0  0  0  0  0  0  0  0  0  0  0
   -0.6999   -0.5610    8.1180 H   0  0  0  0  0  0  0  0  0  0  0  0
   -2.2909   -0.3956    8.0676 H   0  0  0  0  0  0  0  0  0  0  0  0
   -2.7761    0.8727   10.2209 C   0  0  0  0  0  0  0  0  0  0  0  0
   -3.4305    1.1466    9.5450 H   0  0  0  0  0  0  0  0  0  0  0  0
   -2.7252    1.5564   10.9219 H   0  0  0  0  0  0  0  0  0  0  0  0
   -3.0520    0.0199   10.6166 H   0  0  0  0  0  0  0  0  0  0  0  0
   -1.0500    3.7737    9.3740 C   0  0  0  0  0  0  0  0  0  0  0  0
   -2.4738    4.1358    9.7453 C   0  0  0  0  0  0  0  0  0  0  0  0
   -2.4919    5.0380   10.1292 H   0  0  0  0  0  0  0  0  0  0  0  0
   -2.8144    3.4944   10.4019 H   0  0  0  0  0  0  0  0  0  0  0  0
   -3.0366    4.1126    8.9426 H   0  0  0  0  0  0  0  0  0  0  0  0
   -0.5668    4.8319    8.3957 C   0  0  0  0  0  0  0  0  0  0  0  0
   -1.0272    4.7180    7.5385 H   0  0  0  0  0  0  0  0  0  0  0  0
    0.3991    4.7375    8.2640 H   0  0  0  0  0  0  0  0  0  0  0  0
   -0.7624    5.7223    8.7561 H   0  0  0  0  0  0  0  0  0  0  0  0
   -0.2076    3.8076   10.6368 C   0  0  0  0  0  0  0  0  0  0  0  0
    0.7151    3.5586   10.4216 H   0  0  0  0  0  0  0  0  0  0  0  0
   -0.5728    3.1742   11.2904 H   0  0  0  0  0  0  0  0  0  0  0  0
   -0.2225    4.7114   11.0158 H   0  0  0  0  0  0  0  0  0  0  0  0
    3.2771   -1.8263    5.7822 C   0  0  0  0  0  0  0  0  0  0  0  0
    2.6394   -2.5463    5.5474 H   0  0  0  0  0  0  0  0  0  0  0  0
    3.7302   -2.0985    6.6193 H   0  0  0  0  0  0  0  0  0  0  0  0
    4.6367   -3.5793    3.9781 C   0  0  0  0  0  0  0  0  0  0  0  0
    3.3823   -3.8188    3.1253 C   0  0  0  0  0  0  0  0  0  0  0  0
    3.3894   -4.7393    2.7876 H   0  0  0  0  0  0  0  0  0  0  0  0
    3.3758   -3.1940    2.3717 H   0  0  0  0  0  0  0  0  0  0  0  0
    2.5832   -3.6790    3.6746 H   0  0  0  0  0  0  0  0  0  0  0  0
    5.8577   -3.8345    3.0860 C   0  0  0  0  0  0  0  0  0  0  0  0
    5.7780   -4.7173    2.6684 H   0  0  0  0  0  0  0  0  0  0  0  0
    6.6720   -3.8020    3.6298 H   0  0  0  0  0  0  0  0  0  0  0  0
    5.9022   -3.1464    2.3893 H   0  0  0  0  0  0  0  0  0  0  0  0
    4.6320   -4.5768    5.1308 C   0  0  0  0  0  0  0  0  0  0  0  0
    3.8374   -4.4319    5.6857 H   0  0  0  0  0  0  0  0  0  0  0  0
    5.4375   -4.4516    5.6751 H   0  0  0  0  0  0  0  0  0  0  0  0
    4.6185   -5.4895    4.7734 H   0  0  0  0  0  0  0  0  0  0  0  0
    6.1427   -1.2569    5.3478 C   0  0  0  0  0  0  0  0  0  0  0  0
    7.2093   -0.9041    4.2902 C   0  0  0  0  0  0  0  0  0  0  0  0
    8.0070   -0.5517    4.7371 H   0  0  0  0  0  0  0  0  0  0  0  0
    6.8508   -0.2277    3.6791 H   0  0  0  0  0  0  0  0  0  0  0  0
    7.4463   -1.7093    3.7849 H   0  0  0  0  0  0  0  0  0  0  0  0
    5.8125    0.0311    6.0863 C   0  0  0  0  0  0  0  0  0  0  0  0
    5.2260   -0.1697    6.8456 H   0  0  0  0  0  0  0  0  0  0  0  0
    5.3579    0.6490    5.4769 H   0  0  0  0  0  0  0  0  0  0  0  0
    6.6398    0.4419    6.4121 H   0  0  0  0  0  0  0  0  0  0  0  0
    6.7406   -2.2552    6.3248 C   0  0  0  0  0  0  0  0  0  0  0  0
    6.9967   -3.0705    5.8439 H   0  0  0  0  0  0  0  0  0  0  0  0
    6.0778   -2.4773    7.0122 H   0  0  0  0  0  0  0  0  0  0  0  0
    7.5324   -1.8643    6.7490 H   0  0  0  0  0  0  0  0  0  0  0  0
    1.3981   -2.7915    8.4077 C   0  0  0  0  0  0  0  0  0  0  0  0
    0.9458   -2.0926    7.8905 H   0  0  0  0  0  0  0  0  0  0  0  0
    0.7383   -3.2811    8.9419 H   0  0  0  0  0  0  0  0  0  0  0  0
    1.8480   -3.4111    7.7961 H   0  0  0  0  0  0  0  0  0  0  0  0
  1  3  1  0  0  0  0
  2  4  1  0  0  0  0
  3 18  1  0  0  0  0
  4 49  1  0  0  0  0
  5 97  1  0  0  0  0
  6126  1  0  0  0  0
  7  1  1  0  0  0  0
  8  1  1  0  0  0  0
  9 17  1  0  0  0  0
 10 17  1  0  0  0  0
 11 86  1  0  0  0  0
 12 86  1  0  0  0  0
 13  2  1  0  0  0  0
 14 13  1  0  0  0  0
 15 13  1  0  0  0  0
 16 13  1  0  0  0  0
 17  8  1  0  0  0  0
 18  9  1  0  0  0  0
 19 18  1  0  0  0  0
 20 18  1  0  0  0  0
 21  3  1  0  0  0  0
 22 21  1  0  0  0  0
 23 22  1  0  0  0  0
 24 22  1  0  0  0  0
 25 22  1  0  0  0  0
 26 21  1  0  0  0  0
 27 26  1  0  0  0  0
 28 26  1  0  0  0  0
 29 26  1  0  0  0  0
 30 21  1  0  0  0  0
 31 30  1  0  0  0  0
 32 30  1  0  0  0  0
 33 30  1  0  0  0  0
 34  3  1  0  0  0  0
 35 34  1  0  0  0  0
 36 35  1  0  0  0  0
 37 35  1  0  0  0  0
 38 35  1  0  0  0  0
 39 34  1  0  0  0  0
 40 39  1  0  0  0  0
 41 39  1  0  0  0  0
 42 39  1  0  0  0  0
 43 34  1  0  0  0  0
 44 43  1  0  0  0  0
 45 43  1  0  0  0  0
 46 43  1  0  0  0  0
 47  9  1  0  0  0  0
 48 10  1  0  0  0  0
 49 10  1  0  0  0  0
 50 49  1  0  0  0  0
 51 49  1  0  0  0  0
 52  4  1  0  0  0  0
 53 52  1  0  0  0  0
 54 53  1  0  0  0  0
 55 53  1  0  0  0  0
 56 53  1  0  0  0  0
 57 52  1  0  0  0  0
 58 57  1  0  0  0  0
 59 57  1  0  0  0  0
 60 57  1  0  0  0  0
 61 52  1  0  0  0  0
 62 61  1  0  0  0  0
 63 61  1  0  0  0  0
 64 61  1  0  0  0  0
 65  4  1  0  0  0  0
 66 65  1  0  0  0  0
 67 66  1  0  0  0  0
 68 66  1  0  0  0  0
 69 66  1  0  0  0  0
 70 65  1  0  0  0  0
 71 70  1  0  0  0  0
 72 70  1  0  0  0  0
 73 70  1  0  0  0  0
 74 65  1  0  0  0  0
 75 74  1  0  0  0  0
 76 74  1  0  0  0  0
 77 74  1  0  0  0  0
 78 48  4  0  0  0  0
 79 78  1  0  0  0  0
 80 78  4  0  0  0  0
 81 80  1  0  0  0  0
 82 80  4  0  0  0  0
 83 82  1  0  0  0  0
 84 47  4  0  0  0  0
 85 84  1  0  0  0  0
 86  7  1  0  0  0  0
 87 11  1  0  0  0  0
 88 87  4  0  0  0  0
 89 88  1  0  0  0  0
 90 88  4  0  0  0  0
 91 90  1  0  0  0  0
 92 90  4  0  0  0  0
 93 92  1  0  0  0  0
 94 92  4  0  0  0  0
 95 94  1  0  0  0  0
 96 12  1  0  0  0  0
 97 12  1  0  0  0  0
 98 97  1  0  0  0  0
 99 97  1  0  0  0  0
100  5  1  0  0  0  0
101100  1  0  0  0  0
102101  1  0  0  0  0
103101  1  0  0  0  0
104101  1  0  0  0  0
105100  1  0  0  0  0
106105  1  0  0  0  0
107105  1  0  0  0  0
108105  1  0  0  0  0
109100  1  0  0  0  0
110109  1  0  0  0  0
111109  1  0  0  0  0
112109  1  0  0  0  0
113  5  1  0  0  0  0
114113  1  0  0  0  0
115114  1  0  0  0  0
116114  1  0  0  0  0
117114  1  0  0  0  0
118113  1  0  0  0  0
119118  1  0  0  0  0
120118  1  0  0  0  0
121118  1  0  0  0  0
122113  1  0  0  0  0
123122  1  0  0  0  0
124122  1  0  0  0  0
125122  1  0  0  0  0
126 11  1  0  0  0  0
127126  1  0  0  0  0
128126  1  0  0  0  0
129  6  1  0  0  0  0
130129  1  0  0  0  0
131130  1  0  0  0  0
132130  1  0  0  0  0
133130  1  0  0  0  0
134129  1  0  0  0  0
135134  1  0  0  0  0
136134  1  0  0  0  0
137134  1  0  0  0  0
138129  1  0  0  0  0
139138  1  0  0  0  0
140138  1  0  0  0  0
141138  1  0  0  0  0
142  6  1  0  0  0  0
143142  1  0  0  0  0
144143  1  0  0  0  0
145143  1  0  0  0  0
146143  1  0  0  0  0
147142  1  0  0  0  0
148147  1  0  0  0  0
149147  1  0  0  0  0
150147  1  0  0  0  0
151142  1  0  0  0  0
152151  1  0  0  0  0
153151  1  0  0  0  0
154151  1  0  0  0  0
155  1  1  0  0  0  0
156155  1  0  0  0  0
157155  1  0  0  0  0
158155  1  0  0  0  0
  2  7  1  0  0  0  0
  2  8  1  0  0  0  0
 47 48  4  0  0  0  0
 82 84  4  0  0  0  0
 87 96  4  0  0  0  0
 94 96  4  0  0  0  0
M  END
$$$$
QIQTET

From CSD data. Using bond type 'Any'. Matching problem. No disordered atoms. Largest molecule.
149154  0  0  0  0  0  0  0  0999 V2000
   12.9880    9.3284   12.1494 Ni  0  0  0  0  0  0  0  0  0  0  0  0
   12.3326    7.4417   11.0560 P   0  0  0  0  0  0  0  0  0  0  0  0
   14.0431   12.6353    6.8808 P   0  0  0  0  0  0  0  0  0  0  0  0
   16.7514    5.7556   15.9589 P   0  0  0  0  0  0  0  0  0  0  0  0
   12.9809   11.1508   13.5100 P   0  0  0  0  0  0  0  0  0  0  0  0
   12.6992   10.4311   10.6900 O   0  0  0  0  0  0  0  0  0  0  0  0
   13.7456    8.2498   13.4437 O   0  0  0  0  0  0  0  0  0  0  0  0
   11.4393    9.0410    9.0150 N   0  0  0  0  0  0  0  0  0  0  0  0
   12.1982   11.1055    8.3422 N   0  0  0  0  0  0  0  0  0  0  0  0
   13.3738    9.4372   15.6248 N   0  0  0  0  0  0  0  0  0  0  0  0
   14.4435    7.4028   15.6699 N   0  0  0  0  0  0  0  0  0  0  0  0
   11.2902    6.2879   12.1176 C   0  0  0  0  0  0  0  0  0  0  0  0
   12.1634    5.4387   13.0592 C   0  0  0  0  0  0  0  0  0  0  0  0
   12.7019    4.8138   12.5302 H   0  0  0  0  0  0  0  0  0  0  0  0
   11.5883    4.9359   13.6731 H   0  0  0  0  0  0  0  0  0  0  0  0
   12.7557    6.0260   13.5737 H   0  0  0  0  0  0  0  0  0  0  0  0
   10.4084    7.2051   12.9679 C   0  0  0  0  0  0  0  0  0  0  0  0
   10.9752    7.7825   13.5206 H   0  0  0  0  0  0  0  0  0  0  0  0
    9.8337    6.6612   13.5461 H   0  0  0  0  0  0  0  0  0  0  0  0
    9.8517    7.7584   12.3812 H   0  0  0  0  0  0  0  0  0  0  0  0
   10.3863    5.3372   11.3066 C   0  0  0  0  0  0  0  0  0  0  0  0
    9.7756    5.8634   10.7492 H   0  0  0  0  0  0  0  0  0  0  0  0
    9.8672    4.7770   11.9206 H   0  0  0  0  0  0  0  0  0  0  0  0
   10.9416    4.7673   10.7345 H   0  0  0  0  0  0  0  0  0  0  0  0
   13.7400    6.5609   10.1855 C   0  0  0  0  0  0  0  0  0  0  0  0
   14.2561    7.5288    9.1187 C   0  0  0  0  0  0  0  0  0  0  0  0
   13.5509    7.6933    8.4584 H   0  0  0  0  0  0  0  0  0  0  0  0
   15.0363    7.1379    8.6729 H   0  0  0  0  0  0  0  0  0  0  0  0
   14.5114    8.3752    9.5417 H   0  0  0  0  0  0  0  0  0  0  0  0
   14.8855    6.3285   11.1779 C   0  0  0  0  0  0  0  0  0  0  0  0
   15.0561    7.1532   11.6790 H   0  0  0  0  0  0  0  0  0  0  0  0
   15.6943    6.0701   10.6887 H   0  0  0  0  0  0  0  0  0  0  0  0
   14.6380    5.6132   11.8007 H   0  0  0  0  0  0  0  0  0  0  0  0
   13.3575    5.2330    9.5244 C   0  0  0  0  0  0  0  0  0  0  0  0
   13.1062    4.5846   10.2148 H   0  0  0  0  0  0  0  0  0  0  0  0
   14.1215    4.8891    9.0159 H   0  0  0  0  0  0  0  0  0  0  0  0
   12.6000    5.3757    8.9191 H   0  0  0  0  0  0  0  0  0  0  0  0
   11.1212    7.8231    9.7168 C   0  0  0  0  0  0  0  0  0  0  0  0
   11.1049    7.0724    9.0715 H   0  0  0  0  0  0  0  0  0  0  0  0
   10.2168    7.9034   10.1114 H   0  0  0  0  0  0  0  0  0  0  0  0
   11.0028    9.2674    7.7132 C   0  0  0  0  0  0  0  0  0  0  0  0
   10.2308    8.4837    6.8756 C   0  0  0  0  0  0  0  0  0  0  0  0
    9.9289    7.6265    7.1521 H   0  0  0  0  0  0  0  0  0  0  0  0
    9.9054    8.9850    5.6112 C   0  0  0  0  0  0  0  0  0  0  0  0
    9.3828    8.4584    5.0179 H   0  0  0  0  0  0  0  0  0  0  0  0
   10.3333   10.2317    5.2163 C   0  0  0  0  0  0  0  0  0  0  0  0
   10.0907   10.5570    4.3574 H   0  0  0  0  0  0  0  0  0  0  0  0
   11.1180   11.0281    6.0542 C   0  0  0  0  0  0  0  0  0  0  0  0
   11.4098   11.8869    5.7718 H   0  0  0  0  0  0  0  0  0  0  0  0
   11.4618   10.5420    7.3037 C   0  0  0  0  0  0  0  0  0  0  0  0
   12.7821   12.4339    8.2538 C   0  0  0  0  0  0  0  0  0  0  0  0
   13.2170   12.6468    9.1171 H   0  0  0  0  0  0  0  0  0  0  0  0
   12.0548   13.0910    8.1147 H   0  0  0  0  0  0  0  0  0  0  0  0
   15.6799   12.2396    7.7223 C   0  0  0  0  0  0  0  0  0  0  0  0
   15.4739   10.8714    8.3835 C   0  0  0  0  0  0  0  0  0  0  0  0
   14.8514   10.9621    9.1350 H   0  0  0  0  0  0  0  0  0  0  0  0
   16.3339   10.5339    8.7107 H   0  0  0  0  0  0  0  0  0  0  0  0
   15.1049   10.2438    7.7276 H   0  0  0  0  0  0  0  0  0  0  0  0
   16.1912   13.2157    8.7739 C   0  0  0  0  0  0  0  0  0  0  0  0
   16.4487   14.0565    8.3412 H   0  0  0  0  0  0  0  0  0  0  0  0
   16.9698   12.8296    9.2267 H   0  0  0  0  0  0  0  0  0  0  0  0
   15.4843   13.3890    9.4299 H   0  0  0  0  0  0  0  0  0  0  0  0
   16.7401   12.0569    6.6231 C   0  0  0  0  0  0  0  0  0  0  0  0
   16.4302   11.3868    5.9787 H   0  0  0  0  0  0  0  0  0  0  0  0
   17.5811   11.7574    7.0271 H   0  0  0  0  0  0  0  0  0  0  0  0
   16.8842   12.9103    6.1633 H   0  0  0  0  0  0  0  0  0  0  0  0
   13.9120   14.4908    6.5899 C   0  0  0  0  0  0  0  0  0  0  0  0
   15.0975   14.9215    5.7207 C   0  0  0  0  0  0  0  0  0  0  0  0
   15.9158   14.9197    6.2599 H   0  0  0  0  0  0  0  0  0  0  0  0
   14.9372   15.8237    5.3732 H   0  0  0  0  0  0  0  0  0  0  0  0
   15.1979   14.2964    4.9725 H   0  0  0  0  0  0  0  0  0  0  0  0
   12.6414   14.6679    5.7393 C   0  0  0  0  0  0  0  0  0  0  0  0
   12.7091   14.1164    4.9322 H   0  0  0  0  0  0  0  0  0  0  0  0
   12.5472   15.6096    5.4848 H   0  0  0  0  0  0  0  0  0  0  0  0
   11.8586   14.3905    6.2598 H   0  0  0  0  0  0  0  0  0  0  0  0
   13.8138   15.3885    7.8160 C   0  0  0  0  0  0  0  0  0  0  0  0
   13.0464   15.1149    8.3604 H   0  0  0  0  0  0  0  0  0  0  0  0
   13.6972   16.3188    7.5309 H   0  0  0  0  0  0  0  0  0  0  0  0
   14.6347   15.3094    8.3452 H   0  0  0  0  0  0  0  0  0  0  0  0
   12.1747   10.2033    9.4955 B   0  0  0  0  0  0  0  0  0  0  0  0
   13.8363    8.3723   14.7641 B   0  0  0  0  0  0  0  0  0  0  0  0
   13.6249    9.0922   16.9552 C   0  0  0  0  0  0  0  0  0  0  0  0
   13.3234    9.7741   18.1208 C   0  0  0  0  0  0  0  0  0  0  0  0
   12.8971   10.6227   18.0971 H   0  0  0  0  0  0  0  0  0  0  0  0
   13.6676    9.1724   19.3341 C   0  0  0  0  0  0  0  0  0  0  0  0
   13.4819    9.6242   20.1488 H   0  0  0  0  0  0  0  0  0  0  0  0
   14.2688    7.9400   19.3680 C   0  0  0  0  0  0  0  0  0  0  0  0
   14.4793    7.5491   20.2078 H   0  0  0  0  0  0  0  0  0  0  0  0
   14.5783    7.2482   18.1978 C   0  0  0  0  0  0  0  0  0  0  0  0
   14.9923    6.3938   18.2315 H   0  0  0  0  0  0  0  0  0  0  0  0
   14.2656    7.8407   16.9828 C   0  0  0  0  0  0  0  0  0  0  0  0
   15.0393    6.1347   15.2981 C   0  0  0  0  0  0  0  0  0  0  0  0
   15.0787    6.0949   14.3096 H   0  0  0  0  0  0  0  0  0  0  0  0
   14.4308    5.4131   15.5962 H   0  0  0  0  0  0  0  0  0  0  0  0
   17.9172    6.6010   14.7475 C   0  0  0  0  0  0  0  0  0  0  0  0
   18.0415    6.0245   13.3316 C   0  0  0  0  0  0  0  0  0  0  0  0
   18.4359    5.1285   13.3771 H   0  0  0  0  0  0  0  0  0  0  0  0
   18.6153    6.6068   12.7911 H   0  0  0  0  0  0  0  0  0  0  0  0
   17.1530    5.9699   12.9218 H   0  0  0  0  0  0  0  0  0  0  0  0
   17.4186    8.0439   14.6119 C   0  0  0  0  0  0  0  0  0  0  0  0
   16.5785    8.0531   14.1076 H   0  0  0  0  0  0  0  0  0  0  0  0
   18.0899    8.5781   14.1382 H   0  0  0  0  0  0  0  0  0  0  0  0
   17.2690    8.4229   15.5031 H   0  0  0  0  0  0  0  0  0  0  0  0
   19.3139    6.6228   15.3943 C   0  0  0  0  0  0  0  0  0  0  0  0
   19.2665    7.0824   16.2587 H   0  0  0  0  0  0  0  0  0  0  0  0
   19.9387    7.0964   14.8064 H   0  0  0  0  0  0  0  0  0  0  0  0
   19.6256    5.7037   15.5298 H   0  0  0  0  0  0  0  0  0  0  0  0
   16.7403    3.8929   15.6296 C   0  0  0  0  0  0  0  0  0  0  0  0
   18.1703    3.3546   15.7450 C   0  0  0  0  0  0  0  0  0  0  0  0
   18.7034    3.6788   14.9892 H   0  0  0  0  0  0  0  0  0  0  0  0
   18.1523    2.3748   15.7356 H   0  0  0  0  0  0  0  0  0  0  0  0
   18.5699    3.6660   16.5839 H   0  0  0  0  0  0  0  0  0  0  0  0
   16.1418    3.4444   14.2814 C   0  0  0  0  0  0  0  0  0  0  0  0
   15.2139    3.7532   14.2172 H   0  0  0  0  0  0  0  0  0  0  0  0
   16.1654    2.4665   14.2228 H   0  0  0  0  0  0  0  0  0  0  0  0
   16.6655    3.8285   13.5476 H   0  0  0  0  0  0  0  0  0  0  0  0
   15.9203    3.2859   16.7650 C   0  0  0  0  0  0  0  0  0  0  0  0
   16.2862    3.5798   17.6254 H   0  0  0  0  0  0  0  0  0  0  0  0
   15.9599    2.3082   16.7101 H   0  0  0  0  0  0  0  0  0  0  0  0
   14.9886    3.5799   16.6886 H   0  0  0  0  0  0  0  0  0  0  0  0
   12.7252   10.6750   15.2773 C   0  0  0  0  0  0  0  0  0  0  0  0
   13.0744   11.3961   15.8588 H   0  0  0  0  0  0  0  0  0  0  0  0
   11.7544   10.5899   15.4508 H   0  0  0  0  0  0  0  0  0  0  0  0
   11.4854   12.2626   13.2510 C   0  0  0  0  0  0  0  0  0  0  0  0
   11.6572   13.1652   12.0256 C   0  0  0  0  0  0  0  0  0  0  0  0
   12.3662   13.8193   12.1983 H   0  0  0  0  0  0  0  0  0  0  0  0
   10.8162   13.6349   11.8451 H   0  0  0  0  0  0  0  0  0  0  0  0
   11.8991   12.6187   11.2487 H   0  0  0  0  0  0  0  0  0  0  0  0
   10.3048   11.3164   12.9971 C   0  0  0  0  0  0  0  0  0  0  0  0
   10.4686   10.8018   12.1793 H   0  0  0  0  0  0  0  0  0  0  0  0
    9.4827   11.8397   12.8946 H   0  0  0  0  0  0  0  0  0  0  0  0
   10.2091   10.7028   13.7553 H   0  0  0  0  0  0  0  0  0  0  0  0
   11.1598   13.1444   14.4731 C   0  0  0  0  0  0  0  0  0  0  0  0
   10.9548   12.5734   15.2426 H   0  0  0  0  0  0  0  0  0  0  0  0
   10.3855   13.7101   14.2707 H   0  0  0  0  0  0  0  0  0  0  0  0
   11.9319   13.7103   14.6826 H   0  0  0  0  0  0  0  0  0  0  0  0
   14.5915   12.1050   13.5227 C   0  0  0  0  0  0  0  0  0  0  0  0
   14.5607   13.4127   14.3181 C   0  0  0  0  0  0  0  0  0  0  0  0
   13.9366   14.0382   13.8942 H   0  0  0  0  0  0  0  0  0  0  0  0
   15.4579   13.8068   14.3337 H   0  0  0  0  0  0  0  0  0  0  0  0
   14.2680   13.2304   15.2354 H   0  0  0  0  0  0  0  0  0  0  0  0
   15.6432   11.1768   14.1426 C   0  0  0  0  0  0  0  0  0  0  0  0
   15.4177   11.0082   15.0813 H   0  0  0  0  0  0  0  0  0  0  0  0
   16.5251   11.6009   14.0897 H   0  0  0  0  0  0  0  0  0  0  0  0
   15.6590   10.3280   13.6529 H   0  0  0  0  0  0  0  0  0  0  0  0
   15.0105   12.3893   12.0760 C   0  0  0  0  0  0  0  0  0  0  0  0
   15.0497   11.5473   11.5760 H   0  0  0  0  0  0  0  0  0  0  0  0
   15.8931   12.8148   12.0691 H   0  0  0  0  0  0  0  0  0  0  0  0
   14.3562   12.9872   11.6580 H   0  0  0  0  0  0  0  0  0  0  0  0
  1  2  1  0  0  0  0
  2 12  1  0  0  0  0
  3 51  1  0  0  0  0
  4 92  1  0  0  0  0
  5  1  1  0  0  0  0
  6  1  1  0  0  0  0
  7  1  1  0  0  0  0
  8 38  1  0  0  0  0
  9 50  1  0  0  0  0
 10 81  1  0  0  0  0
 11 81  1  0  0  0  0
 12 13  1  0  0  0  0
 13 14  1  0  0  0  0
 15 13  1  0  0  0  0
 16 13  1  0  0  0  0
 17 12  1  0  0  0  0
 18 17  1  0  0  0  0
 19 17  1  0  0  0  0
 20 17  1  0  0  0  0
 21 12  1  0  0  0  0
 22 21  1  0  0  0  0
 23 21  1  0  0  0  0
 24 21  1  0  0  0  0
 25  2  1  0  0  0  0
 26 25  1  0  0  0  0
 27 26  1  0  0  0  0
 28 26  1  0  0  0  0
 29 26  1  0  0  0  0
 30 25  1  0  0  0  0
 31 30  1  0  0  0  0
 32 30  1  0  0  0  0
 33 30  1  0  0  0  0
 34 25  1  0  0  0  0
 35 34  1  0  0  0  0
 36 34  1  0  0  0  0
 37 34  1  0  0  0  0
 38  2  1  0  0  0  0
 39 38  1  0  0  0  0
 40 38  1  0  0  0  0
 41  8  1  0  0  0  0
 42 41  4  0  0  0  0
 43 42  1  0  0  0  0
 44 42  4  0  0  0  0
 45 44  1  0  0  0  0
 46 44  4  0  0  0  0
 47 46  1  0  0  0  0
 48 46  4  0  0  0  0
 49 48  1  0  0  0  0
 50 41  4  0  0  0  0
 51  9  1  0  0  0  0
 52 51  1  0  0  0  0
 53 51  1  0  0  0  0
 54  3  1  0  0  0  0
 55 54  1  0  0  0  0
 56 55  1  0  0  0  0
 57 55  1  0  0  0  0
 58 55  1  0  0  0  0
 59 54  1  0  0  0  0
 60 59  1  0  0  0  0
 61 59  1  0  0  0  0
 62 59  1  0  0  0  0
 63 54  1  0  0  0  0
 64 63  1  0  0  0  0
 65 63  1  0  0  0  0
 66 63  1  0  0  0  0
 67  3  1  0  0  0  0
 68 67  1  0  0  0  0
 69 68  1  0  0  0  0
 70 68  1  0  0  0  0
 71 68  1  0  0  0  0
 72 67  1  0  0  0  0
 73 72  1  0  0  0  0
 74 72  1  0  0  0  0
 75 72  1  0  0  0  0
 76 67  1  0  0  0  0
 77 76  1  0  0  0  0
 78 76  1  0  0  0  0
 79 76  1  0  0  0  0
 80  6  1  0  0  0  0
 81  7  1  0  0  0  0
 82 10  1  0  0  0  0
 83 82  4  0  0  0  0
 84 83  1  0  0  0  0
 85 83  4  0  0  0  0
 86 85  1  0  0  0  0
 87 85  4  0  0  0  0
 88 87  1  0  0  0  0
 89 87  4  0  0  0  0
 90 89  1  0  0  0  0
 91 11  1  0  0  0  0
 92 11  1  0  0  0  0
 93 92  1  0  0  0  0
 94 92  1  0  0  0  0
 95  4  1  0  0  0  0
 96 95  1  0  0  0  0
 97 96  1  0  0  0  0
 98 96  1  0  0  0  0
 99 96  1  0  0  0  0
100 95  1  0  0  0  0
101100  1  0  0  0  0
102100  1  0  0  0  0
103100  1  0  0  0  0
104 95  1  0  0  0  0
105104  1  0  0  0  0
106104  1  0  0  0  0
107104  1  0  0  0  0
108  4  1  0  0  0  0
109108  1  0  0  0  0
110109  1  0  0  0  0
111109  1  0  0  0  0
112109  1  0  0  0  0
113108  1  0  0  0  0
114113  1  0  0  0  0
115113  1  0  0  0  0
116113  1  0  0  0  0
117108  1  0  0  0  0
118117  1  0  0  0  0
119117  1  0  0  0  0
120117  1  0  0  0  0
121  5  1  0  0  0  0
122121  1  0  0  0  0
123121  1  0  0  0  0
124  5  1  0  0  0  0
125124  1  0  0  0  0
126125  1  0  0  0  0
127125  1  0  0  0  0
128125  1  0  0  0  0
129124  1  0  0  0  0
130129  1  0  0  0  0
131129  1  0  0  0  0
132129  1  0  0  0  0
133124  1  0  0  0  0
134133  1  0  0  0  0
135133  1  0  0  0  0
136133  1  0  0  0  0
137  5  1  0  0  0  0
138137  1  0  0  0  0
139138  1  0  0  0  0
140138  1  0  0  0  0
141138  1  0  0  0  0
142137  1  0  0  0  0
143142  1  0  0  0  0
144142  1  0  0  0  0
145142  1  0  0  0  0
146137  1  0  0  0  0
147146  1  0  0  0  0
148146  1  0  0  0  0
149146  1  0  0  0  0
  8 80  1  0  0  0  0
  9 80  1  0  0  0  0
 10121  1  0  0  0  0
 48 50  4  0  0  0  0
 82 91  4  0  0  0  0
 89 91  4  0  0  0  0
M  END
$$$$
QOMCOM

From CSD data. Using bond type 'Any'. No disordered atoms. Largest molecule.
 97106  0  0  0  0  0  0  0  0999 V2000
    0.2828   13.0852    2.6882 C   0  0  0  0  0  0  0  0  0  0  0  0
   -0.5681   13.9513    3.3326 C   0  0  0  0  0  0  0  0  0  0  0  0
   -1.0374   13.6685    4.1101 H   0  0  0  0  0  0  0  0  0  0  0  0
   -0.7415   15.2579    2.8395 C   0  0  0  0  0  0  0  0  0  0  0  0
   -1.3403   15.8468    3.2821 H   0  0  0  0  0  0  0  0  0  0  0  0
   -0.0664   15.6976    1.7358 C   0  0  0  0  0  0  0  0  0  0  0  0
   -0.1836   16.5915    1.4365 H   0  0  0  0  0  0  0  0  0  0  0  0
    1.5300   15.2294   -0.1107 C   0  0  0  0  0  0  0  0  0  0  0  0
    1.4491   16.1215   -0.4256 H   0  0  0  0  0  0  0  0  0  0  0  0
    2.3410   14.3543   -0.7731 C   0  0  0  0  0  0  0  0  0  0  0  0
    2.8110   14.6450   -1.5463 H   0  0  0  0  0  0  0  0  0  0  0  0
    2.4910   13.0228   -0.3262 C   0  0  0  0  0  0  0  0  0  0  0  0
    3.0566   12.4225   -0.7981 H   0  0  0  0  0  0  0  0  0  0  0  0
    1.8159   12.6009    0.7924 C   0  0  0  0  0  0  0  0  0  0  0  0
    0.9692   13.4919    1.5077 C   0  0  0  0  0  0  0  0  0  0  0  0
    0.8078   14.8276    1.0382 C   0  0  0  0  0  0  0  0  0  0  0  0
    0.1767    8.1475    3.3569 C   0  0  0  0  0  0  0  0  0  0  0  0
    0.2594    6.8155    3.7765 C   0  0  0  0  0  0  0  0  0  0  0  0
    1.1090    6.3968    3.8474 H   0  0  0  0  0  0  0  0  0  0  0  0
   -0.8851    6.1020    4.0884 C   0  0  0  0  0  0  0  0  0  0  0  0
   -0.8171    5.1976    4.3728 H   0  0  0  0  0  0  0  0  0  0  0  0
   -2.1314    6.7025    3.9880 C   0  0  0  0  0  0  0  0  0  0  0  0
   -2.9146    6.2236    4.2331 H   0  0  0  0  0  0  0  0  0  0  0  0
   -2.2269    8.0068    3.5268 C   0  0  0  0  0  0  0  0  0  0  0  0
   -3.0815    8.4097    3.4284 H   0  0  0  0  0  0  0  0  0  0  0  0
   -1.0818    8.7291    3.2099 C   0  0  0  0  0  0  0  0  0  0  0  0
   -1.1573    9.6206    2.8930 H   0  0  0  0  0  0  0  0  0  0  0  0
    2.4109    8.3353    1.5679 C   0  0  0  0  0  0  0  0  0  0  0  0
    3.7377    8.5762    1.2071 C   0  0  0  0  0  0  0  0  0  0  0  0
    4.3017    9.0659    1.7923 H   0  0  0  0  0  0  0  0  0  0  0  0
    4.2436    8.1077   -0.0027 C   0  0  0  0  0  0  0  0  0  0  0  0
    5.1465    8.2860   -0.2394 H   0  0  0  0  0  0  0  0  0  0  0  0
    3.4334    7.3842   -0.8573 C   0  0  0  0  0  0  0  0  0  0  0  0
    3.7791    7.0582   -1.6793 H   0  0  0  0  0  0  0  0  0  0  0  0
    2.1168    7.1363   -0.5118 C   0  0  0  0  0  0  0  0  0  0  0  0
    1.5601    6.6376   -1.0973 H   0  0  0  0  0  0  0  0  0  0  0  0
    1.6033    7.6123    0.6890 C   0  0  0  0  0  0  0  0  0  0  0  0
    0.6959    7.4436    0.9145 H   0  0  0  0  0  0  0  0  0  0  0  0
    5.1059   14.1070    6.6921 C   0  0  0  0  0  0  0  0  0  0  0  0
    5.9156   14.7480    7.6023 C   0  0  0  0  0  0  0  0  0  0  0  0
    5.9717   14.4315    8.4961 H   0  0  0  0  0  0  0  0  0  0  0  0
    6.6605   15.8749    7.2052 C   0  0  0  0  0  0  0  0  0  0  0  0
    7.2032   16.3246    7.8410 H   0  0  0  0  0  0  0  0  0  0  0  0
    6.6157   16.3322    5.9177 C   0  0  0  0  0  0  0  0  0  0  0  0
    7.1352   17.0876    5.6696 H   0  0  0  0  0  0  0  0  0  0  0  0
    5.7074   16.1464    3.6086 C   0  0  0  0  0  0  0  0  0  0  0  0
    6.2249   16.8910    3.3253 H   0  0  0  0  0  0  0  0  0  0  0  0
    4.8755   15.5213    2.7221 C   0  0  0  0  0  0  0  0  0  0  0  0
    4.8315   15.8324    1.8256 H   0  0  0  0  0  0  0  0  0  0  0  0
    4.0853   14.4297    3.1115 C   0  0  0  0  0  0  0  0  0  0  0  0
    3.5103   14.0109    2.4807 H   0  0  0  0  0  0  0  0  0  0  0  0
    4.1414   13.9648    4.4043 C   0  0  0  0  0  0  0  0  0  0  0  0
    5.0219   14.5705    5.3457 C   0  0  0  0  0  0  0  0  0  0  0  0
    5.8040   15.6916    4.9484 C   0  0  0  0  0  0  0  0  0  0  0  0
    0.7585   11.1995    6.4770 C   0  0  0  0  0  0  0  0  0  0  0  0
    0.3465   12.4998    6.7889 C   0  0  0  0  0  0  0  0  0  0  0  0
    0.9912   13.1555    7.0230 H   0  0  0  0  0  0  0  0  0  0  0  0
   -1.0022   12.8366    6.7553 C   0  0  0  0  0  0  0  0  0  0  0  0
   -1.2752   13.7193    6.9765 H   0  0  0  0  0  0  0  0  0  0  0  0
   -1.9514   11.8881    6.3999 C   0  0  0  0  0  0  0  0  0  0  0  0
   -2.8709   12.1243    6.3679 H   0  0  0  0  0  0  0  0  0  0  0  0
   -1.5553   10.5924    6.0906 C   0  0  0  0  0  0  0  0  0  0  0  0
   -2.2037    9.9408    5.8492 H   0  0  0  0  0  0  0  0  0  0  0  0
   -0.2062   10.2505    6.1372 C   0  0  0  0  0  0  0  0  0  0  0  0
    0.0602    9.3615    5.9356 H   0  0  0  0  0  0  0  0  0  0  0  0
    2.7642   10.4985    8.3844 C   0  0  0  0  0  0  0  0  0  0  0  0
    1.7297   10.6520    9.3035 C   0  0  0  0  0  0  0  0  0  0  0  0
    0.8599   10.8848    8.9982 H   0  0  0  0  0  0  0  0  0  0  0  0
    1.9590   10.4665   10.6675 C   0  0  0  0  0  0  0  0  0  0  0  0
    1.2504   10.5945   11.2894 H   0  0  0  0  0  0  0  0  0  0  0  0
    3.2154   10.0970   11.1211 C   0  0  0  0  0  0  0  0  0  0  0  0
    3.3648    9.9500   12.0475 H   0  0  0  0  0  0  0  0  0  0  0  0
    4.2533    9.9428   10.2156 C   0  0  0  0  0  0  0  0  0  0  0  0
    5.1162    9.6909   10.5212 H   0  0  0  0  0  0  0  0  0  0  0  0
    4.0350   10.1555    8.8599 C   0  0  0  0  0  0  0  0  0  0  0  0
    4.7571   10.0671    8.2500 H   0  0  0  0  0  0  0  0  0  0  0  0
    4.7004   10.0860    4.1982 C   0  0  0  0  0  0  0  0  0  0  0  0
    4.0207    7.2094    4.0871 C   0  0  0  0  0  0  0  0  0  0  0  0
    4.8658    8.3182    6.3367 C   0  0  0  0  0  0  0  0  0  0  0  0
    2.1234    7.6321    6.1781 C   0  0  0  0  0  0  0  0  0  0  0  0
    3.3957    8.8017    5.0957 Mo  0  0  0  0  0  0  0  0  0  0  0  0
    0.5234   11.7799    3.1667 N   0  0  0  0  0  0  0  0  0  0  0  0
    0.1309   11.5762    3.9006 H   0  0  0  0  0  0  0  0  0  0  0  0
    1.9410   11.2909    1.2846 N   0  0  0  0  0  0  0  0  0  0  0  0
    2.3842   10.7572    0.8213 H   0  0  0  0  0  0  0  0  0  0  0  0
    4.3545   12.9711    7.0327 N   0  0  0  0  0  0  0  0  0  0  0  0
    4.4062   12.7376    7.8377 H   0  0  0  0  0  0  0  0  0  0  0  0
    3.3477   12.8999    4.8459 N   0  0  0  0  0  0  0  0  0  0  0  0
    2.8231   12.5774    4.2830 H   0  0  0  0  0  0  0  0  0  0  0  0
    5.4861   10.7849    3.7406 O   0  0  0  0  0  0  0  0  0  0  0  0
    4.3803    6.2496    3.5657 O   0  0  0  0  0  0  0  0  0  0  0  0
    5.7765    7.9600    6.9475 O   0  0  0  0  0  0  0  0  0  0  0  0
    1.4222    6.9973    6.8188 O   0  0  0  0  0  0  0  0  0  0  0  0
    1.7531    9.0578    3.1274 P   0  0  0  0  0  0  0  0  0  0  0  0
    2.5222   10.7129    6.5718 P   0  0  0  0  0  0  0  0  0  0  0  0
    1.3150   10.8437    2.4654 B   0  0  0  0  0  0  0  0  0  0  0  0
    3.4565   12.3546    6.1395 B   0  0  0  0  0  0  0  0  0  0  0  0
  1  2  4  0  0  0  0
  2  3  1  0  0  0  0
  4  2  4  0  0  0  0
  5  4  1  0  0  0  0
  6  4  4  0  0  0  0
  7  6  1  0  0  0  0
  8  9  1  0  0  0  0
 10  8  4  0  0  0  0
 11 10  1  0  0  0  0
 12 10  4  0  0  0  0
 13 12  1  0  0  0  0
 14 12  4  0  0  0  0
 15  1  4  0  0  0  0
 16  6  4  0  0  0  0
 17 18  4  0  0  0  0
 18 19  1  0  0  0  0
 20 18  4  0  0  0  0
 21 20  1  0  0  0  0
 22 20  4  0  0  0  0
 23 22  1  0  0  0  0
 24 22  4  0  0  0  0
 25 24  1  0  0  0  0
 26 17  4  0  0  0  0
 27 26  1  0  0  0  0
 28 29  4  0  0  0  0
 29 30  1  0  0  0  0
 31 29  4  0  0  0  0
 32 31  1  0  0  0  0
 33 31  4  0  0  0  0
 34 33  1  0  0  0  0
 35 33  4  0  0  0  0
 36 35  1  0  0  0  0
 37 28  4  0  0  0  0
 38 37  1  0  0  0  0
 39 40  4  0  0  0  0
 40 41  1  0  0  0  0
 42 40  4  0  0  0  0
 43 42  1  0  0  0  0
 44 42  4  0  0  0  0
 45 44  1  0  0  0  0
 46 47  1  0  0  0  0
 48 46  4  0  0  0  0
 49 48  1  0  0  0  0
 50 48  4  0  0  0  0
 51 50  1  0  0  0  0
 52 50  4  0  0  0  0
 53 39  4  0  0  0  0
 54 44  4  0  0  0  0
 55 56  4  0  0  0  0
 56 57  1  0  0  0  0
 58 56  4  0  0  0  0
 59 58  1  0  0  0  0
 60 58  4  0  0  0  0
 61 60  1  0  0  0  0
 62 60  4  0  0  0  0
 63 62  1  0  0  0  0
 64 55  4  0  0  0  0
 65 64  1  0  0  0  0
 66 67  4  0  0  0  0
 67 68  1  0  0  0  0
 69 67  4  0  0  0  0
 70 69  1  0  0  0  0
 71 69  4  0  0  0  0
 72 71  1  0  0  0  0
 73 71  4  0  0  0  0
 74 73  1  0  0  0  0
 75 66  4  0  0  0  0
 76 75  1  0  0  0  0
 77 81  1  0  0  0  0
 78 81  1  0  0  0  0
 79 81  1  0  0  0  0
 80 81  1  0  0  0  0
 81 94  1  0  0  0  0
 82  1  1  0  0  0  0
 83 82  1  0  0  0  0
 84 14  1  0  0  0  0
 85 84  1  0  0  0  0
 86 39  1  0  0  0  0
 87 86  1  0  0  0  0
 88 52  1  0  0  0  0
 89 88  1  0  0  0  0
 90 77  3  0  0  0  0
 91 78  3  0  0  0  0
 92 79  3  0  0  0  0
 93 80  3  0  0  0  0
 94 17  1  0  0  0  0
 95 55  1  0  0  0  0
 96 82  1  0  0  0  0
 97 86  1  0  0  0  0
  8 16  4  0  0  0  0
 14 15  4  0  0  0  0
 15 16  4  0  0  0  0
 24 26  4  0  0  0  0
 28 94  1  0  0  0  0
 35 37  4  0  0  0  0
 46 54  4  0  0  0  0
 52 53  4  0  0  0  0
 53 54  4  0  0  0  0
 62 64  4  0  0  0  0
 66 95  1  0  0  0  0
 73 75  4  0  0  0  0
 81 95  1  0  0  0  0
 84 96  1  0  0  0  0
 88 97  1  0  0  0  0
 94 96  1  0  0  0  0
 95 97  1  0  0  0  0
M  END
$$$$
QORXIG

From CSD data. Using bond type 'Any'. No disordered atoms. Largest molecule.
163186  0  0  0  0  0  0  0  0999 V2000
   -0.4826    3.3159    5.1191 Ru  0  0  0  0  0  0  0  0  0  0  0  0
   -0.1859    0.4747    7.3667 O   0  0  0  0  0  0  0  0  0  0  0  0
   -1.8370   -2.4546    8.9427 Ru  0  0  0  0  0  0  0  0  0  0  0  0
   -1.3922   -4.4277   10.1066 P   0  0  0  0  0  0  0  0  0  0  0  0
   -1.2538   -0.9236   10.6394 P   0  0  0  0  0  0  0  0  0  0  0  0
   -2.8108   -2.2880    6.9434 C   0  0  0  0  0  0  0  0  0  0  0  0
   -3.7992   -2.4267    6.8854 H   0  0  0  0  0  0  0  0  0  0  0  0
    0.8642    1.6269    4.1741 P   0  0  0  0  0  0  0  0  0  0  0  0
    0.5548   -0.8734   10.9878 C   0  0  0  0  0  0  0  0  0  0  0  0
    2.3024    1.2662    5.2702 C   0  0  0  0  0  0  0  0  0  0  0  0
   -3.0196    5.1046    3.6181 C   0  0  0  0  0  0  0  0  0  0  0  0
   -1.9607   -0.9266   12.3512 C   0  0  0  0  0  0  0  0  0  0  0  0
    0.2120   -0.0475    3.8307 C   0  0  0  0  0  0  0  0  0  0  0  0
    1.6295    1.9479    2.5380 C   0  0  0  0  0  0  0  0  0  0  0  0
    0.2860    2.9361    7.2865 C   0  0  0  0  0  0  0  0  0  0  0  0
    1.2613    2.7820    7.4443 H   0  0  0  0  0  0  0  0  0  0  0  0
   -2.0386   -5.8120    9.0697 C   0  0  0  0  0  0  0  0  0  0  0  0
   -2.1238   -4.7645   11.7590 C   0  0  0  0  0  0  0  0  0  0  0  0
    0.3414   -4.9549   10.4292 C   0  0  0  0  0  0  0  0  0  0  0  0
    1.4508   -0.3038   10.0882 C   0  0  0  0  0  0  0  0  0  0  0  0
    1.1270    0.1280    9.3054 H   0  0  0  0  0  0  0  0  0  0  0  0
   -2.8650    2.3790    2.6801 C   0  0  0  0  0  0  0  0  0  0  0  0
    1.0628   -1.5205   12.1187 C   0  0  0  0  0  0  0  0  0  0  0  0
    0.4674   -1.9245   12.7392 H   0  0  0  0  0  0  0  0  0  0  0  0
   -1.1085   -0.3819    4.0623 C   0  0  0  0  0  0  0  0  0  0  0  0
   -1.6964    0.2677    4.4268 H   0  0  0  0  0  0  0  0  0  0  0  0
   -1.9763   -3.4265    6.9461 C   0  0  0  0  0  0  0  0  0  0  0  0
   -2.3819   -4.3361    6.8676 H   0  0  0  0  0  0  0  0  0  0  0  0
   -0.6397    1.7435    7.0775 B   0  0  0  0  0  0  0  0  0  0  0  0
    2.8332    2.6356    2.3665 C   0  0  0  0  0  0  0  0  0  0  0  0
    3.3239    2.9310    3.1246 H   0  0  0  0  0  0  0  0  0  0  0  0
   -3.0418   -1.7115   12.7110 C   0  0  0  0  0  0  0  0  0  0  0  0
   -3.4004   -2.3329   12.0881 H   0  0  0  0  0  0  0  0  0  0  0  0
    4.1825    2.1045    6.5340 C   0  0  0  0  0  0  0  0  0  0  0  0
    4.7500    2.8266    6.7754 H   0  0  0  0  0  0  0  0  0  0  0  0
   -0.1941    4.2476    7.1580 C   0  0  0  0  0  0  0  0  0  0  0  0
    0.4525    5.0046    7.2511 H   0  0  0  0  0  0  0  0  0  0  0  0
    3.1426    2.3191    5.6469 C   0  0  0  0  0  0  0  0  0  0  0  0
    2.9972    3.1870    5.2919 H   0  0  0  0  0  0  0  0  0  0  0  0
    2.4308   -1.5729   12.3373 C   0  0  0  0  0  0  0  0  0  0  0  0
    2.7669   -2.0184   13.1049 H   0  0  0  0  0  0  0  0  0  0  0  0
   -1.5930   -1.6600    3.7688 C   0  0  0  0  0  0  0  0  0  0  0  0
   -2.5036   -1.8775    3.9332 H   0  0  0  0  0  0  0  0  0  0  0  0
   -0.0363   -2.0358    7.5912 C   0  0  0  0  0  0  0  0  0  0  0  0
    0.8816   -1.9819    7.9854 H   0  0  0  0  0  0  0  0  0  0  0  0
    0.9252    1.5434    1.3919 C   0  0  0  0  0  0  0  0  0  0  0  0
    0.1011    1.0804    1.4835 H   0  0  0  0  0  0  0  0  0  0  0  0
   -1.3709   -4.5214   12.9003 C   0  0  0  0  0  0  0  0  0  0  0  0
   -0.4864   -4.1875   12.8135 H   0  0  0  0  0  0  0  0  0  0  0  0
   -1.9625    2.1161    6.3877 C   0  0  0  0  0  0  0  0  0  0  0  0
   -2.5221    1.4051    5.9638 H   0  0  0  0  0  0  0  0  0  0  0  0
   -1.7387    0.8115   10.2669 C   0  0  0  0  0  0  0  0  0  0  0  0
   -2.7055    1.7618    1.4345 C   0  0  0  0  0  0  0  0  0  0  0  0
   -2.0655    2.1003    0.8176 H   0  0  0  0  0  0  0  0  0  0  0  0
   -3.0727    1.0197    9.9128 C   0  0  0  0  0  0  0  0  0  0  0  0
   -3.6473    0.2752    9.7781 H   0  0  0  0  0  0  0  0  0  0  0  0
   -0.8358   -0.7527    7.3364 B   0  0  0  0  0  0  0  0  0  0  0  0
   -3.3851   -5.8002    8.6942 C   0  0  0  0  0  0  0  0  0  0  0  0
   -3.9624   -5.1280    9.0378 H   0  0  0  0  0  0  0  0  0  0  0  0
   -1.5055    4.5267    6.6743 C   0  0  0  0  0  0  0  0  0  0  0  0
   -1.7710    5.4691    6.4751 H   0  0  0  0  0  0  0  0  0  0  0  0
    0.5944   -6.1634   11.0675 C   0  0  0  0  0  0  0  0  0  0  0  0
   -0.1326   -6.7093   11.3419 H   0  0  0  0  0  0  0  0  0  0  0  0
    2.5140    0.0169    5.8312 C   0  0  0  0  0  0  0  0  0  0  0  0
    1.9444   -0.7067    5.5981 H   0  0  0  0  0  0  0  0  0  0  0  0
   -2.4927    6.3091    4.0884 C   0  0  0  0  0  0  0  0  0  0  0  0
   -1.5525    6.4150    4.1800 H   0  0  0  0  0  0  0  0  0  0  0  0
   -4.5698    0.7252    3.1960 C   0  0  0  0  0  0  0  0  0  0  0  0
   -5.1979    0.3640    3.8114 H   0  0  0  0  0  0  0  0  0  0  0  0
   -2.3375   -0.9983    7.2401 C   0  0  0  0  0  0  0  0  0  0  0  0
   -2.9807   -0.2489    7.3938 H   0  0  0  0  0  0  0  0  0  0  0  0
   -3.8158    1.8447    3.5477 C   0  0  0  0  0  0  0  0  0  0  0  0
   -3.9533    2.2520    4.3941 H   0  0  0  0  0  0  0  0  0  0  0  0
   -1.1920    4.4437    1.6286 C   0  0  0  0  0  0  0  0  0  0  0  0
   -3.3481    7.3506    4.4217 C   0  0  0  0  0  0  0  0  0  0  0  0
   -2.9878    8.1663    4.7478 H   0  0  0  0  0  0  0  0  0  0  0  0
    1.4289    1.8150    0.1264 C   0  0  0  0  0  0  0  0  0  0  0  0
    0.9470    1.5349   -0.6422 H   0  0  0  0  0  0  0  0  0  0  0  0
   -0.6132   -3.2968    7.3162 C   0  0  0  0  0  0  0  0  0  0  0  0
   -0.0782   -4.1239    7.4889 H   0  0  0  0  0  0  0  0  0  0  0  0
   -3.8859   -6.7511    7.8341 C   0  0  0  0  0  0  0  0  0  0  0  0
   -4.8074   -6.7396    7.6019 H   0  0  0  0  0  0  0  0  0  0  0  0
    3.3010   -0.9887   11.4543 C   0  0  0  0  0  0  0  0  0  0  0  0
    4.2371   -1.0155   11.6184 H   0  0  0  0  0  0  0  0  0  0  0  0
    2.5999    2.4778   -0.0181 C   0  0  0  0  0  0  0  0  0  0  0  0
    2.9345    2.6612   -0.8889 H   0  0  0  0  0  0  0  0  0  0  0  0
    1.0575   -1.0214    3.2697 C   0  0  0  0  0  0  0  0  0  0  0  0
    1.9657   -0.8101    3.0860 H   0  0  0  0  0  0  0  0  0  0  0  0
   -2.3460    3.4646    6.2875 C   0  0  0  0  0  0  0  0  0  0  0  0
   -3.1934    3.6830    5.8033 H   0  0  0  0  0  0  0  0  0  0  0  0
    0.1495    4.7193    1.3934 C   0  0  0  0  0  0  0  0  0  0  0  0
    0.7873    4.5440    2.0751 H   0  0  0  0  0  0  0  0  0  0  0  0
    3.5524   -0.1827    6.7332 C   0  0  0  0  0  0  0  0  0  0  0  0
    3.6782   -1.0404    7.1233 H   0  0  0  0  0  0  0  0  0  0  0  0
    2.8132   -0.3628   10.3290 C   0  0  0  0  0  0  0  0  0  0  0  0
    3.4177    0.0323    9.7127 H   0  0  0  0  0  0  0  0  0  0  0  0
   -4.4024    0.1461    1.9651 C   0  0  0  0  0  0  0  0  0  0  0  0
   -4.9262   -0.6075    1.7184 H   0  0  0  0  0  0  0  0  0  0  0  0
   -4.3932    4.9990    3.4463 C   0  0  0  0  0  0  0  0  0  0  0  0
   -4.7599    4.2000    3.0860 H   0  0  0  0  0  0  0  0  0  0  0  0
   -0.7377   -2.5988    3.2388 C   0  0  0  0  0  0  0  0  0  0  0  0
   -1.0615   -3.4714    3.0473 H   0  0  0  0  0  0  0  0  0  0  0  0
    1.4093   -4.1560   10.0585 C   0  0  0  0  0  0  0  0  0  0  0  0
    1.2494   -3.3210    9.6354 H   0  0  0  0  0  0  0  0  0  0  0  0
    4.4049    0.8542    7.0697 C   0  0  0  0  0  0  0  0  0  0  0  0
    5.1330    0.7052    7.6614 H   0  0  0  0  0  0  0  0  0  0  0  0
   -5.2376    6.0422    3.7935 C   0  0  0  0  0  0  0  0  0  0  0  0
   -6.1777    5.9455    3.6954 H   0  0  0  0  0  0  0  0  0  0  0  0
   -3.4789    0.6572    1.0911 C   0  0  0  0  0  0  0  0  0  0  0  0
   -3.3639    0.2519    0.2408 H   0  0  0  0  0  0  0  0  0  0  0  0
   -1.4154    3.1969   10.2913 C   0  0  0  0  0  0  0  0  0  0  0  0
   -0.8402    3.9441   10.4024 H   0  0  0  0  0  0  0  0  0  0  0  0
    3.3110    2.8875    1.0893 C   0  0  0  0  0  0  0  0  0  0  0  0
    4.1356    3.3445    0.9781 H   0  0  0  0  0  0  0  0  0  0  0  0
   -3.4227   -5.2434   11.9187 C   0  0  0  0  0  0  0  0  0  0  0  0
   -3.9559   -5.4156   11.1516 H   0  0  0  0  0  0  0  0  0  0  0  0
   -2.1232    4.7172    0.6112 C   0  0  0  0  0  0  0  0  0  0  0  0
   -3.0474    4.5511    0.7522 H   0  0  0  0  0  0  0  0  0  0  0  0
   -0.9146    1.9134   10.4690 C   0  0  0  0  0  0  0  0  0  0  0  0
   -0.0086    1.7876   10.7295 H   0  0  0  0  0  0  0  0  0  0  0  0
   -2.7310    3.4004    9.9562 C   0  0  0  0  0  0  0  0  0  0  0  0
   -3.0682    4.2830    9.8614 H   0  0  0  0  0  0  0  0  0  0  0  0
   -3.1863   -5.2437   14.3033 C   0  0  0  0  0  0  0  0  0  0  0  0
   -3.5448   -5.4148   15.1652 H   0  0  0  0  0  0  0  0  0  0  0  0
   -1.4421   -0.0256   13.2821 C   0  0  0  0  0  0  0  0  0  0  0  0
   -0.7047    0.5268   13.0484 H   0  0  0  0  0  0  0  0  0  0  0  0
   -1.8925   -4.7581   14.1674 C   0  0  0  0  0  0  0  0  0  0  0  0
   -1.3637   -4.5893   14.9392 H   0  0  0  0  0  0  0  0  0  0  0  0
   -2.0060    0.0639   14.5542 C   0  0  0  0  0  0  0  0  0  0  0  0
   -1.6386    0.6684   15.1889 H   0  0  0  0  0  0  0  0  0  0  0  0
    0.5750    5.2438    0.1814 C   0  0  0  0  0  0  0  0  0  0  0  0
    1.4978    5.4263    0.0476 H   0  0  0  0  0  0  0  0  0  0  0  0
   -3.5626    2.3115    9.7573 C   0  0  0  0  0  0  0  0  0  0  0  0
   -4.4712    2.4480    9.5135 H   0  0  0  0  0  0  0  0  0  0  0  0
    0.5740   -2.2927    2.9837 C   0  0  0  0  0  0  0  0  0  0  0  0
    1.1515   -2.9476    2.6103 H   0  0  0  0  0  0  0  0  0  0  0  0
   -0.3210    5.4976   -0.8152 C   0  0  0  0  0  0  0  0  0  0  0  0
   -0.0253    5.8522   -1.6441 H   0  0  0  0  0  0  0  0  0  0  0  0
   -1.7249   -7.7390    7.6524 C   0  0  0  0  0  0  0  0  0  0  0  0
   -1.1549   -8.4065    7.2897 H   0  0  0  0  0  0  0  0  0  0  0  0
    1.8965   -6.5805   11.3080 C   0  0  0  0  0  0  0  0  0  0  0  0
    2.0597   -7.4133   11.7343 H   0  0  0  0  0  0  0  0  0  0  0  0
   -3.9456   -5.4740   13.1822 C   0  0  0  0  0  0  0  0  0  0  0  0
   -4.8355   -5.7948   13.2714 H   0  0  0  0  0  0  0  0  0  0  0  0
   -3.0849   -0.7072   14.9044 C   0  0  0  0  0  0  0  0  0  0  0  0
   -3.4681   -0.6346   15.7716 H   0  0  0  0  0  0  0  0  0  0  0  0
   -3.6076   -1.5929   13.9789 C   0  0  0  0  0  0  0  0  0  0  0  0
   -4.3595   -2.1274   14.2108 H   0  0  0  0  0  0  0  0  0  0  0  0
   -3.0668   -7.7091    7.3135 C   0  0  0  0  0  0  0  0  0  0  0  0
   -3.4176   -8.3592    6.7160 H   0  0  0  0  0  0  0  0  0  0  0  0
   -1.6836    5.2300   -0.6032 C   0  0  0  0  0  0  0  0  0  0  0  0
   -2.3107    5.4018   -1.2962 H   0  0  0  0  0  0  0  0  0  0  0  0
   -4.7098    7.2187    4.2850 C   0  0  0  0  0  0  0  0  0  0  0  0
   -5.2857    7.9351    4.5278 H   0  0  0  0  0  0  0  0  0  0  0  0
    2.7184   -4.5694   10.3014 C   0  0  0  0  0  0  0  0  0  0  0  0
    3.4493   -4.0222   10.0427 H   0  0  0  0  0  0  0  0  0  0  0  0
   -4.1597   -2.5283    9.6729 Cl  0  0  0  0  0  0  0  0  0  0  0  0
   -1.8032    3.7685    3.2278 P   0  0  0  0  0  0  0  0  0  0  0  0
    1.1778    5.0052    4.5127 Cl  0  0  0  0  0  0  0  0  0  0  0  0
    2.9442   -5.7841   10.9287 C   0  0  0  0  0  0  0  0  0  0  0  0
    3.8351   -6.0682   11.0951 H   0  0  0  0  0  0  0  0  0  0  0  0
   -1.2156   -6.7859    8.5318 C   0  0  0  0  0  0  0  0  0  0  0  0
   -0.2944   -6.8042    8.7643 H   0  0  0  0  0  0  0  0  0  0  0  0
  1  8  1  0  0  0  0
  2 29  1  0  0  0  0
  3  4  1  0  0  0  0
  4 17  1  0  0  0  0
  5  3  1  0  0  0  0
  6  3  8  0  0  0  0
  7  6  1  0  0  0  0
  8 10  1  0  0  0  0
  9  5  1  0  0  0  0
 10 38  4  0  0  0  0
 11 66  4  0  0  0  0
 12  5  1  0  0  0  0
 13  8  1  0  0  0  0
 14  8  1  0  0  0  0
 15  1  8  0  0  0  0
 16 15  1  0  0  0  0
 17 58  4  0  0  0  0
 18  4  1  0  0  0  0
 19  4  1  0  0  0  0
 20  9  4  0  0  0  0
 21 20  1  0  0  0  0
 22 53  4  0  0  0  0
 23  9  4  0  0  0  0
 24 23  1  0  0  0  0
 25 13  4  0  0  0  0
 26 25  1  0  0  0  0
 27  3  8  0  0  0  0
 28 27  1  0  0  0  0
 29  1  8  0  0  0  0
 30 14  4  0  0  0  0
 31 30  1  0  0  0  0
 32 12  4  0  0  0  0
 33 32  1  0  0  0  0
 34 35  1  0  0  0  0
 36  1  8  0  0  0  0
 37 36  1  0  0  0  0
 38 34  4  0  0  0  0
 39 38  1  0  0  0  0
 40 23  4  0  0  0  0
 41 40  1  0  0  0  0
 42 25  4  0  0  0  0
 43 42  1  0  0  0  0
 44  3  8  0  0  0  0
 45 44  1  0  0  0  0
 46 14  4  0  0  0  0
 47 46  1  0  0  0  0
 48 18  4  0  0  0  0
 49 48  1  0  0  0  0
 50  1  8  0  0  0  0
 51 50  1  0  0  0  0
 52  5  1  0  0  0  0
 53 54  1  0  0  0  0
 55 52  4  0  0  0  0
 56 55  1  0  0  0  0
 57  2  1  0  0  0  0
 58 59  1  0  0  0  0
 60  1  8  0  0  0  0
 61 60  1  0  0  0  0
 62 19  4  0  0  0  0
 63 62  1  0  0  0  0
 64 10  4  0  0  0  0
 65 64  1  0  0  0  0
 66 67  1  0  0  0  0
 68 69  1  0  0  0  0
 70  3  8  0  0  0  0
 71 70  1  0  0  0  0
 72 22  4  0  0  0  0
 73 72  1  0  0  0  0
 74 91  4  0  0  0  0
 75 66  4  0  0  0  0
 76 75  1  0  0  0  0
 77 46  4  0  0  0  0
 78 77  1  0  0  0  0
 79  3  8  0  0  0  0
 80 79  1  0  0  0  0
 81 58  4  0  0  0  0
 82 81  1  0  0  0  0
 83 40  4  0  0  0  0
 84 83  1  0  0  0  0
 85 77  4  0  0  0  0
 86 85  1  0  0  0  0
 87 13  4  0  0  0  0
 88 87  1  0  0  0  0
 89  1  8  0  0  0  0
 90 89  1  0  0  0  0
 91 92  1  0  0  0  0
 93 64  4  0  0  0  0
 94 93  1  0  0  0  0
 95 20  4  0  0  0  0
 96 95  1  0  0  0  0
 97 68  4  0  0  0  0
 98 97  1  0  0  0  0
 99 11  4  0  0  0  0
100 99  1  0  0  0  0
101 42  4  0  0  0  0
102101  1  0  0  0  0
103 19  4  0  0  0  0
104103  1  0  0  0  0
105 34  4  0  0  0  0
106105  1  0  0  0  0
107 99  4  0  0  0  0
108107  1  0  0  0  0
109 53  4  0  0  0  0
110109  1  0  0  0  0
111112  1  0  0  0  0
113 30  4  0  0  0  0
114113  1  0  0  0  0
115 18  4  0  0  0  0
116115  1  0  0  0  0
117 74  4  0  0  0  0
118117  1  0  0  0  0
119 52  4  0  0  0  0
120119  1  0  0  0  0
121111  4  0  0  0  0
122121  1  0  0  0  0
123124  1  0  0  0  0
125 12  4  0  0  0  0
126125  1  0  0  0  0
127 48  4  0  0  0  0
128127  1  0  0  0  0
129125  4  0  0  0  0
130129  1  0  0  0  0
131 91  4  0  0  0  0
132131  1  0  0  0  0
133 55  4  0  0  0  0
134133  1  0  0  0  0
135 87  4  0  0  0  0
136135  1  0  0  0  0
137131  4  0  0  0  0
138137  1  0  0  0  0
139140  1  0  0  0  0
141 62  4  0  0  0  0
142141  1  0  0  0  0
143115  4  0  0  0  0
144143  1  0  0  0  0
145129  4  0  0  0  0
146145  1  0  0  0  0
147 32  4  0  0  0  0
148147  1  0  0  0  0
149 81  4  0  0  0  0
150149  1  0  0  0  0
151117  4  0  0  0  0
152151  1  0  0  0  0
153 75  4  0  0  0  0
154153  1  0  0  0  0
155103  4  0  0  0  0
156155  1  0  0  0  0
157  3  1  0  0  0  0
158  1  1  0  0  0  0
159  1  1  0  0  0  0
160141  4  0  0  0  0
161160  1  0  0  0  0
162 17  4  0  0  0  0
163162  1  0  0  0  0
  3 57  8  0  0  0  0
  6 27  4  0  0  0  0
  6 70  4  0  0  0  0
 11158  1  0  0  0  0
 15 29  4  0  0  0  0
 15 36  4  0  0  0  0
 22158  1  0  0  0  0
 27 79  4  0  0  0  0
 29 50  4  0  0  0  0
 36 60  4  0  0  0  0
 44 57  4  0  0  0  0
 44 79  4  0  0  0  0
 50 89  4  0  0  0  0
 57 70  4  0  0  0  0
 60 89  4  0  0  0  0
 68 72  4  0  0  0  0
 74158  1  0  0  0  0
 83 95  4  0  0  0  0
 85113  4  0  0  0  0
 93105  4  0  0  0  0
 97109  4  0  0  0  0
101135  4  0  0  0  0
107153  4  0  0  0  0
111119  4  0  0  0  0
121133  4  0  0  0  0
123127  4  0  0  0  0
123143  4  0  0  0  0
137151  4  0  0  0  0
139149  4  0  0  0  0
139162  4  0  0  0  0
145147  4  0  0  0  0
155160  4  0  0  0  0
M  END
$$$$
QUMDIL

From CSD data. Using bond type 'Any'. No disordered atoms. Largest molecule.
172182  0  0  0  0  0  0  0  0999 V2000
    4.1661    3.8848    6.5561 B   0  0  0  0  0  0  0  0  0  0  0  0
    4.4943    4.8825    6.1361 H   0  0  0  0  0  0  0  0  0  0  0  0
    4.7840    3.6335    7.4146 H   0  0  0  0  0  0  0  0  0  0  0  0
    3.0720    3.8715    6.8224 H   0  0  0  0  0  0  0  0  0  0  0  0
    3.0535    1.1854    4.9446 B   0  0  0  0  0  0  0  0  0  0  0  0
    2.9576    0.7773    3.9036 H   0  0  0  0  0  0  0  0  0  0  0  0
    2.1378    1.4060    5.5471 H   0  0  0  0  0  0  0  0  0  0  0  0
    3.6383    0.1883    5.5861 H   0  0  0  0  0  0  0  0  0  0  0  0
    4.7657    0.7391    5.8818 B   0  0  0  0  0  0  0  0  0  0  0  0
    5.4848    0.1098    5.3119 H   0  0  0  0  0  0  0  0  0  0  0  0
    4.7690    0.7019    6.9879 H   0  0  0  0  0  0  0  0  0  0  0  0
    4.4388    2.4958    5.1983 P   0  0  0  0  0  0  0  0  0  0  0  0
    5.3794    2.7723    3.6352 C   0  0  0  0  0  0  0  0  0  0  0  0
    6.7568    2.4182    3.5501 C   0  0  0  0  0  0  0  0  0  0  0  0
    7.2760    2.0931    2.2920 C   0  0  0  0  0  0  0  0  0  0  0  0
    8.1831    1.8144    2.2390 H   0  0  0  0  0  0  0  0  0  0  0  0
    5.2687    2.6973    1.2150 C   0  0  0  0  0  0  0  0  0  0  0  0
    4.7778    2.8399    0.4137 H   0  0  0  0  0  0  0  0  0  0  0  0
    4.6706    3.0457    2.4346 C   0  0  0  0  0  0  0  0  0  0  0  0
    7.8212    2.4316    4.6900 C   0  0  0  0  0  0  0  0  0  0  0  0
    7.3494    2.9940    6.0353 C   0  0  0  0  0  0  0  0  0  0  0  0
    6.8585    3.8284    5.8862 H   0  0  0  0  0  0  0  0  0  0  0  0
    8.1257    3.1691    6.6066 H   0  0  0  0  0  0  0  0  0  0  0  0
    6.7618    2.3432    6.4735 H   0  0  0  0  0  0  0  0  0  0  0  0
    8.4006    1.0285    4.9118 C   0  0  0  0  0  0  0  0  0  0  0  0
    7.6882    0.4239    5.2048 H   0  0  0  0  0  0  0  0  0  0  0  0
    9.0988    1.0685    5.5974 H   0  0  0  0  0  0  0  0  0  0  0  0
    8.7849    0.6979    4.0739 H   0  0  0  0  0  0  0  0  0  0  0  0
    8.9711    3.3638    4.2503 C   0  0  0  0  0  0  0  0  0  0  0  0
    9.3446    3.0448    3.4023 H   0  0  0  0  0  0  0  0  0  0  0  0
    9.6709    3.3659    4.9355 H   0  0  0  0  0  0  0  0  0  0  0  0
    8.6271    4.2745    4.1324 H   0  0  0  0  0  0  0  0  0  0  0  0
    6.5414    2.1546    1.1196 C   0  0  0  0  0  0  0  0  0  0  0  0
    7.1296    1.7132   -0.2293 C   0  0  0  0  0  0  0  0  0  0  0  0
    8.4335    0.9331   -0.0990 C   0  0  0  0  0  0  0  0  0  0  0  0
    8.6889    0.5749   -0.9751 H   0  0  0  0  0  0  0  0  0  0  0  0
    8.3100    0.1939    0.5322 H   0  0  0  0  0  0  0  0  0  0  0  0
    9.1392    1.5282    0.2304 H   0  0  0  0  0  0  0  0  0  0  0  0
    7.2338    2.8381   -1.1682 C   0  0  0  0  0  0  0  0  0  0  0  0
    7.8698    3.4971   -0.8193 H   0  0  0  0  0  0  0  0  0  0  0  0
    6.3538    3.2578   -1.2752 H   0  0  0  0  0  0  0  0  0  0  0  0
    7.5464    2.5105   -2.0378 H   0  0  0  0  0  0  0  0  0  0  0  0
    6.0894    0.6443   -0.8453 C   0  0  0  0  0  0  0  0  0  0  0  0
    5.2194    1.0753   -0.9800 H   0  0  0  0  0  0  0  0  0  0  0  0
    5.9887   -0.1081   -0.2255 H   0  0  0  0  0  0  0  0  0  0  0  0
    6.4280    0.3166   -1.7052 H   0  0  0  0  0  0  0  0  0  0  0  0
    3.3081    3.7791    2.2781 C   0  0  0  0  0  0  0  0  0  0  0  0
    3.5284    4.9474    1.2919 C   0  0  0  0  0  0  0  0  0  0  0  0
    3.7649    4.5912    0.4105 H   0  0  0  0  0  0  0  0  0  0  0  0
    4.2537    5.5183    1.6192 H   0  0  0  0  0  0  0  0  0  0  0  0
    2.7049    5.4742    1.2201 H   0  0  0  0  0  0  0  0  0  0  0  0
    2.7397    4.4262    3.5509 C   0  0  0  0  0  0  0  0  0  0  0  0
    1.9649    4.9801    3.3179 H   0  0  0  0  0  0  0  0  0  0  0  0
    3.4272    4.9854    3.9685 H   0  0  0  0  0  0  0  0  0  0  0  0
    2.4624    3.7253    4.1778 H   0  0  0  0  0  0  0  0  0  0  0  0
    2.2365    2.8431    1.6985 C   0  0  0  0  0  0  0  0  0  0  0  0
    2.0446    2.1287    2.3412 H   0  0  0  0  0  0  0  0  0  0  0  0
    2.5632    2.4512    0.8615 H   0  0  0  0  0  0  0  0  0  0  0  0
    1.4182    3.3524    1.5235 H   0  0  0  0  0  0  0  0  0  0  0  0
    3.5086    6.2256    7.3690 Li  0  0  0  0  0  0  0  0  0  0  0  0
    5.0336    7.4046    7.4626 O   0  0  0  0  0  0  0  0  0  0  0  0
    6.3683    6.9206    7.7061 C   0  0  0  0  0  0  0  0  0  0  0  0
    6.5856    6.1688    7.0998 H   0  0  0  0  0  0  0  0  0  0  0  0
    6.4654    6.6146    8.6427 H   0  0  0  0  0  0  0  0  0  0  0  0
    7.2654    8.1078    7.4337 C   0  0  0  0  0  0  0  0  0  0  0  0
    8.1173    8.0385    7.9321 H   0  0  0  0  0  0  0  0  0  0  0  0
    7.4599    8.1987    6.4671 H   0  0  0  0  0  0  0  0  0  0  0  0
    6.4280    9.2558    7.9355 C   0  0  0  0  0  0  0  0  0  0  0  0
    6.4978    9.3490    8.9186 H   0  0  0  0  0  0  0  0  0  0  0  0
    6.6924   10.1079    7.5070 H   0  0  0  0  0  0  0  0  0  0  0  0
    5.0416    8.8464    7.5239 C   0  0  0  0  0  0  0  0  0  0  0  0
    4.3772    9.1664    8.1852 H   0  0  0  0  0  0  0  0  0  0  0  0
    4.8176    9.2298    6.6390 H   0  0  0  0  0  0  0  0  0  0  0  0
    2.1389    7.0695    6.2826 O   0  0  0  0  0  0  0  0  0  0  0  0
    2.0927    8.3813    5.7045 C   0  0  0  0  0  0  0  0  0  0  0  0
    2.7598    8.4629    4.9776 H   0  0  0  0  0  0  0  0  0  0  0  0
    2.2873    9.0684    6.3908 H   0  0  0  0  0  0  0  0  0  0  0  0
    0.6876    8.5585    5.1592 C   0  0  0  0  0  0  0  0  0  0  0  0
    0.1090    9.0274    5.8116 H   0  0  0  0  0  0  0  0  0  0  0  0
    0.6962    9.0672    4.3108 H   0  0  0  0  0  0  0  0  0  0  0  0
    0.2247    7.1591    4.9402 C   0  0  0  0  0  0  0  0  0  0  0  0
    0.5290    6.8121    4.0642 H   0  0  0  0  0  0  0  0  0  0  0  0
   -0.7624    7.0947    4.9890 H   0  0  0  0  0  0  0  0  0  0  0  0
    0.8741    6.4210    6.0730 C   0  0  0  0  0  0  0  0  0  0  0  0
    0.3163    6.4745    6.8889 H   0  0  0  0  0  0  0  0  0  0  0  0
    1.0054    5.4683    5.8392 H   0  0  0  0  0  0  0  0  0  0  0  0
    2.2285    5.6001    8.8099 H   0  0  0  0  0  0  0  0  0  0  0  0
    2.8464    5.3487    9.6683 B   0  0  0  0  0  0  0  0  0  0  0  0
    2.5182    4.3510   10.0883 H   0  0  0  0  0  0  0  0  0  0  0  0
    3.5039    3.0080    8.8554 Li  0  0  0  0  0  0  0  0  0  0  0  0
    1.9789    1.8289    8.7618 O   0  0  0  0  0  0  0  0  0  0  0  0
    0.6442    2.3130    8.5183 C   0  0  0  0  0  0  0  0  0  0  0  0
    0.4269    3.0647    9.1246 H   0  0  0  0  0  0  0  0  0  0  0  0
    0.5471    2.6190    7.5817 H   0  0  0  0  0  0  0  0  0  0  0  0
   -0.2529    1.1258    8.7907 C   0  0  0  0  0  0  0  0  0  0  0  0
   -1.1048    1.1950    8.2923 H   0  0  0  0  0  0  0  0  0  0  0  0
   -0.4474    1.0349    9.7574 H   0  0  0  0  0  0  0  0  0  0  0  0
    0.5845   -0.0222    8.2889 C   0  0  0  0  0  0  0  0  0  0  0  0
    0.5147   -0.1155    7.3059 H   0  0  0  0  0  0  0  0  0  0  0  0
    0.3201   -0.8744    8.7174 H   0  0  0  0  0  0  0  0  0  0  0  0
    1.9709    0.3871    8.7005 C   0  0  0  0  0  0  0  0  0  0  0  0
    2.6353    0.0671    8.0392 H   0  0  0  0  0  0  0  0  0  0  0  0
    2.1949    0.0037    9.5854 H   0  0  0  0  0  0  0  0  0  0  0  0
    4.8736    2.1640    9.9418 O   0  0  0  0  0  0  0  0  0  0  0  0
    4.9198    0.8522   10.5199 C   0  0  0  0  0  0  0  0  0  0  0  0
    4.2527    0.7706   11.2468 H   0  0  0  0  0  0  0  0  0  0  0  0
    4.7252    0.1652    9.8336 H   0  0  0  0  0  0  0  0  0  0  0  0
    6.3249    0.6751   11.0652 C   0  0  0  0  0  0  0  0  0  0  0  0
    6.9035    0.2062   10.4128 H   0  0  0  0  0  0  0  0  0  0  0  0
    6.3163    0.1663   11.9136 H   0  0  0  0  0  0  0  0  0  0  0  0
    6.7878    2.0744   11.2842 C   0  0  0  0  0  0  0  0  0  0  0  0
    6.4835    2.4214   12.1602 H   0  0  0  0  0  0  0  0  0  0  0  0
    7.7749    2.1388   11.2354 H   0  0  0  0  0  0  0  0  0  0  0  0
    6.1384    2.8125   10.1515 C   0  0  0  0  0  0  0  0  0  0  0  0
    6.6962    2.7591    9.3355 H   0  0  0  0  0  0  0  0  0  0  0  0
    6.0071    3.7653   10.3852 H   0  0  0  0  0  0  0  0  0  0  0  0
    3.9405    5.3621    9.4020 H   0  0  0  0  0  0  0  0  0  0  0  0
    2.5737    6.7377   11.0261 P   0  0  0  0  0  0  0  0  0  0  0  0
    3.9591    8.0481   11.2799 B   0  0  0  0  0  0  0  0  0  0  0  0
    4.0549    8.4562   12.3208 H   0  0  0  0  0  0  0  0  0  0  0  0
    4.8747    7.8275   10.6773 H   0  0  0  0  0  0  0  0  0  0  0  0
    3.3742    9.0452   10.6383 H   0  0  0  0  0  0  0  0  0  0  0  0
    2.2468    8.4945   10.3426 B   0  0  0  0  0  0  0  0  0  0  0  0
    1.5277    9.1238   10.9125 H   0  0  0  0  0  0  0  0  0  0  0  0
    2.2436    8.5316    9.2366 H   0  0  0  0  0  0  0  0  0  0  0  0
    1.6331    6.4613   12.5892 C   0  0  0  0  0  0  0  0  0  0  0  0
    0.2557    6.8153   12.6743 C   0  0  0  0  0  0  0  0  0  0  0  0
   -0.2635    7.1405   13.9324 C   0  0  0  0  0  0  0  0  0  0  0  0
   -1.1706    7.4191   13.9854 H   0  0  0  0  0  0  0  0  0  0  0  0
    0.4711    7.0789   15.1048 C   0  0  0  0  0  0  0  0  0  0  0  0
    1.7438    6.5362   15.0094 C   0  0  0  0  0  0  0  0  0  0  0  0
    2.2347    6.3936   15.8107 H   0  0  0  0  0  0  0  0  0  0  0  0
    2.3419    6.1878   13.7898 C   0  0  0  0  0  0  0  0  0  0  0  0
    3.7044    5.4545   13.9463 C   0  0  0  0  0  0  0  0  0  0  0  0
    3.4841    4.2861   14.9325 C   0  0  0  0  0  0  0  0  0  0  0  0
    3.2476    4.6423   15.8139 H   0  0  0  0  0  0  0  0  0  0  0  0
    2.7588    3.7152   14.6052 H   0  0  0  0  0  0  0  0  0  0  0  0
    4.3076    3.7593   15.0043 H   0  0  0  0  0  0  0  0  0  0  0  0
    4.2728    4.8074   12.6735 C   0  0  0  0  0  0  0  0  0  0  0  0
    5.0476    4.2534   12.9065 H   0  0  0  0  0  0  0  0  0  0  0  0
    3.5853    4.2481   12.2559 H   0  0  0  0  0  0  0  0  0  0  0  0
    4.5501    5.5082   12.0466 H   0  0  0  0  0  0  0  0  0  0  0  0
    4.7760    6.3904   14.5259 C   0  0  0  0  0  0  0  0  0  0  0  0
    4.9679    7.1049   13.8832 H   0  0  0  0  0  0  0  0  0  0  0  0
    4.4493    6.7823   15.3629 H   0  0  0  0  0  0  0  0  0  0  0  0
    5.5943    5.8811   14.7009 H   0  0  0  0  0  0  0  0  0  0  0  0
   -0.1171    7.5203   16.4537 C   0  0  0  0  0  0  0  0  0  0  0  0
   -1.4210    8.3004   16.3234 C   0  0  0  0  0  0  0  0  0  0  0  0
   -1.6764    8.6586   17.1995 H   0  0  0  0  0  0  0  0  0  0  0  0
   -1.2975    9.0396   15.6923 H   0  0  0  0  0  0  0  0  0  0  0  0
   -2.1267    7.7053   15.9940 H   0  0  0  0  0  0  0  0  0  0  0  0
   -0.2213    6.3954   17.3926 C   0  0  0  0  0  0  0  0  0  0  0  0
   -0.8573    5.7364   17.0437 H   0  0  0  0  0  0  0  0  0  0  0  0
    0.6587    5.9757   17.4996 H   0  0  0  0  0  0  0  0  0  0  0  0
   -0.5339    6.7230   18.2622 H   0  0  0  0  0  0  0  0  0  0  0  0
    0.9231    8.5893   17.0697 C   0  0  0  0  0  0  0  0  0  0  0  0
    1.7931    8.1583   17.2044 H   0  0  0  0  0  0  0  0  0  0  0  0
    1.0238    9.3417   16.4499 H   0  0  0  0  0  0  0  0  0  0  0  0
    0.5845    8.9169   17.9296 H   0  0  0  0  0  0  0  0  0  0  0  0
   -0.8087    6.8019   11.5344 C   0  0  0  0  0  0  0  0  0  0  0  0
   -0.3369    6.2396   10.1891 C   0  0  0  0  0  0  0  0  0  0  0  0
    0.1540    5.4052   10.3382 H   0  0  0  0  0  0  0  0  0  0  0  0
   -1.1132    6.0644    9.6178 H   0  0  0  0  0  0  0  0  0  0  0  0
    0.2507    6.8903    9.7509 H   0  0  0  0  0  0  0  0  0  0  0  0
   -1.3881    8.2050   11.3126 C   0  0  0  0  0  0  0  0  0  0  0  0
   -0.6756    8.8096   11.0196 H   0  0  0  0  0  0  0  0  0  0  0  0
   -2.0863    8.1650   10.6270 H   0  0  0  0  0  0  0  0  0  0  0  0
   -1.7724    8.5356   12.1505 H   0  0  0  0  0  0  0  0  0  0  0  0
   -1.9586    5.8698   11.9741 C   0  0  0  0  0  0  0  0  0  0  0  0
   -2.3321    6.1888   12.8222 H   0  0  0  0  0  0  0  0  0  0  0  0
   -2.6584    5.8676   11.2889 H   0  0  0  0  0  0  0  0  0  0  0  0
   -1.6146    4.9590   12.0921 H   0  0  0  0  0  0  0  0  0  0  0  0
  1  2  1  0  0  0  0
  2 60  1  0  0  0  0
  3  1  1  0  0  0  0
  4  1  1  0  0  0  0
  5  6  1  0  0  0  0
  7  5  1  0  0  0  0
  8  5  1  0  0  0  0
  9  8  1  0  0  0  0
 10  9  1  0  0  0  0
 11  9  1  0  0  0  0
 12  1  1  0  0  0  0
 13 12  1  0  0  0  0
 14 13  4  0  0  0  0
 15 14  4  0  0  0  0
 16 15  1  0  0  0  0
 17 18  1  0  0  0  0
 19 13  4  0  0  0  0
 20 14  1  0  0  0  0
 21 20  1  0  0  0  0
 22 21  1  0  0  0  0
 23 21  1  0  0  0  0
 24 21  1  0  0  0  0
 25 20  1  0  0  0  0
 26 25  1  0  0  0  0
 27 25  1  0  0  0  0
 28 25  1  0  0  0  0
 29 20  1  0  0  0  0
 30 29  1  0  0  0  0
 31 29  1  0  0  0  0
 32 29  1  0  0  0  0
 33 15  4  0  0  0  0
 34 33  1  0  0  0  0
 35 34  1  0  0  0  0
 36 35  1  0  0  0  0
 37 35  1  0  0  0  0
 38 35  1  0  0  0  0
 39 34  1  0  0  0  0
 40 39  1  0  0  0  0
 41 39  1  0  0  0  0
 42 39  1  0  0  0  0
 43 34  1  0  0  0  0
 44 43  1  0  0  0  0
 45 43  1  0  0  0  0
 46 43  1  0  0  0  0
 47 19  1  0  0  0  0
 48 47  1  0  0  0  0
 49 48  1  0  0  0  0
 50 48  1  0  0  0  0
 51 48  1  0  0  0  0
 52 47  1  0  0  0  0
 53 52  1  0  0  0  0
 54 52  1  0  0  0  0
 55 52  1  0  0  0  0
 56 47  1  0  0  0  0
 57 56  1  0  0  0  0
 58 56  1  0  0  0  0
 59 56  1  0  0  0  0
 60 61  1  0  0  0  0
 61 62  1  0  0  0  0
 62 63  1  0  0  0  0
 64 62  1  0  0  0  0
 65 62  1  0  0  0  0
 66 65  1  0  0  0  0
 67 65  1  0  0  0  0
 68 65  1  0  0  0  0
 69 68  1  0  0  0  0
 70 68  1  0  0  0  0
 71 61  1  0  0  0  0
 72 71  1  0  0  0  0
 73 71  1  0  0  0  0
 74 60  1  0  0  0  0
 75 74  1  0  0  0  0
 76 75  1  0  0  0  0
 77 75  1  0  0  0  0
 78 75  1  0  0  0  0
 79 78  1  0  0  0  0
 80 78  1  0  0  0  0
 81 78  1  0  0  0  0
 82 81  1  0  0  0  0
 83 81  1  0  0  0  0
 84 74  1  0  0  0  0
 85 84  1  0  0  0  0
 86 84  1  0  0  0  0
 87 60  1  0  0  0  0
 88 87  1  0  0  0  0
 89 88  1  0  0  0  0
 90  3  1  0  0  0  0
 91 90  1  0  0  0  0
 92 91  1  0  0  0  0
 93 92  1  0  0  0  0
 94 92  1  0  0  0  0
 95 92  1  0  0  0  0
 96 95  1  0  0  0  0
 97 95  1  0  0  0  0
 98 95  1  0  0  0  0
 99 98  1  0  0  0  0
100 98  1  0  0  0  0
101 91  1  0  0  0  0
102101  1  0  0  0  0
103101  1  0  0  0  0
104 90  1  0  0  0  0
105104  1  0  0  0  0
106105  1  0  0  0  0
107105  1  0  0  0  0
108105  1  0  0  0  0
109108  1  0  0  0  0
110108  1  0  0  0  0
111108  1  0  0  0  0
112111  1  0  0  0  0
113111  1  0  0  0  0
114104  1  0  0  0  0
115114  1  0  0  0  0
116114  1  0  0  0  0
117 60  1  0  0  0  0
118 88  1  0  0  0  0
119118  1  0  0  0  0
120119  1  0  0  0  0
121119  1  0  0  0  0
122119  1  0  0  0  0
123118  1  0  0  0  0
124123  1  0  0  0  0
125123  1  0  0  0  0
126118  1  0  0  0  0
127126  4  0  0  0  0
128127  4  0  0  0  0
129128  1  0  0  0  0
130128  4  0  0  0  0
131130  4  0  0  0  0
132131  1  0  0  0  0
133126  4  0  0  0  0
134133  1  0  0  0  0
135134  1  0  0  0  0
136135  1  0  0  0  0
137135  1  0  0  0  0
138135  1  0  0  0  0
139134  1  0  0  0  0
140139  1  0  0  0  0
141139  1  0  0  0  0
142139  1  0  0  0  0
143134  1  0  0  0  0
144143  1  0  0  0  0
145143  1  0  0  0  0
146143  1  0  0  0  0
147130  1  0  0  0  0
148147  1  0  0  0  0
149148  1  0  0  0  0
150148  1  0  0  0  0
151148  1  0  0  0  0
152147  1  0  0  0  0
153152  1  0  0  0  0
154152  1  0  0  0  0
155152  1  0  0  0  0
156147  1  0  0  0  0
157156  1  0  0  0  0
158156  1  0  0  0  0
159156  1  0  0  0  0
160127  1  0  0  0  0
161160  1  0  0  0  0
162161  1  0  0  0  0
163161  1  0  0  0  0
164161  1  0  0  0  0
165160  1  0  0  0  0
166165  1  0  0  0  0
167165  1  0  0  0  0
168165  1  0  0  0  0
169160  1  0  0  0  0
170169  1  0  0  0  0
171169  1  0  0  0  0
172169  1  0  0  0  0
  4 90  1  0  0  0  0
  5 12  1  0  0  0  0
  9 12  1  0  0  0  0
 17 19  4  0  0  0  0
 17 33  4  0  0  0  0
 68 71  1  0  0  0  0
 81 84  1  0  0  0  0
 88117  1  0  0  0  0
 89 90  1  0  0  0  0
 98101  1  0  0  0  0
111114  1  0  0  0  0
122123  1  0  0  0  0
131133  4  0  0  0  0
M  END
$$$$
RAJCEN

From CSD data. Using bond type 'Any'. No disordered atoms. Largest molecule.
156160  0  0  0  0  0  0  0  0999 V2000
    8.1910    3.5308    3.5872 P   0  0  0  0  0  0  0  0  0  0  0  0
    7.5822    3.0189    5.2309 C   0  0  0  0  0  0  0  0  0  0  0  0
    6.9690    3.7178    5.5722 H   0  0  0  0  0  0  0  0  0  0  0  0
    7.0572    2.1854    5.1272 H   0  0  0  0  0  0  0  0  0  0  0  0
    8.6689    2.7829    6.2642 C   0  0  0  0  0  0  0  0  0  0  0  0
    9.2647    3.5717    6.3212 H   0  0  0  0  0  0  0  0  0  0  0  0
    8.2666    2.6262    7.1543 H   0  0  0  0  0  0  0  0  0  0  0  0
    9.4066    1.6378    5.8491 O   0  0  0  0  0  0  0  0  0  0  0  0
   10.6186    1.4242    6.4473 C   0  0  0  0  0  0  0  0  0  0  0  0
   11.5038    0.5981    5.7612 C   0  0  0  0  0  0  0  0  0  0  0  0
   11.2707    0.2577    4.9057 H   0  0  0  0  0  0  0  0  0  0  0  0
   12.7205    0.2764    6.3248 C   0  0  0  0  0  0  0  0  0  0  0  0
   13.3190   -0.2922    5.8542 H   0  0  0  0  0  0  0  0  0  0  0  0
   13.0869    0.7793    7.5879 C   0  0  0  0  0  0  0  0  0  0  0  0
   12.1926    1.6380    8.2342 C   0  0  0  0  0  0  0  0  0  0  0  0
   12.4287    2.0055    9.0770 H   0  0  0  0  0  0  0  0  0  0  0  0
   10.9712    1.9640    7.6716 C   0  0  0  0  0  0  0  0  0  0  0  0
   10.3795    2.5550    8.1230 H   0  0  0  0  0  0  0  0  0  0  0  0
   14.3237    0.4193    8.2221 C   0  0  0  0  0  0  0  0  0  0  0  0
   15.3316    0.1413    8.8148 C   0  0  0  0  0  0  0  0  0  0  0  0
   16.5426   -0.1389    9.5341 C   0  0  0  0  0  0  0  0  0  0  0  0
   17.5236   -0.9788    9.0227 C   0  0  0  0  0  0  0  0  0  0  0  0
   17.3805   -1.4135    8.1908 H   0  0  0  0  0  0  0  0  0  0  0  0
   18.7137   -1.1950    9.7117 C   0  0  0  0  0  0  0  0  0  0  0  0
   19.3690   -1.7856    9.3609 H   0  0  0  0  0  0  0  0  0  0  0  0
   18.9350   -0.5404   10.9139 C   0  0  0  0  0  0  0  0  0  0  0  0
   17.9465    0.2729   11.4647 C   0  0  0  0  0  0  0  0  0  0  0  0
   18.0858    0.6857   12.3090 H   0  0  0  0  0  0  0  0  0  0  0  0
   16.7655    0.4760   10.7806 C   0  0  0  0  0  0  0  0  0  0  0  0
   16.0967    1.0372   11.1554 H   0  0  0  0  0  0  0  0  0  0  0  0
   20.1051   -0.6266   11.6240 O   0  0  0  0  0  0  0  0  0  0  0  0
   20.9717   -1.7330   11.3319 C   0  0  0  0  0  0  0  0  0  0  0  0
   21.4163   -1.5991   10.4577 H   0  0  0  0  0  0  0  0  0  0  0  0
   20.4536   -2.5751   11.2964 H   0  0  0  0  0  0  0  0  0  0  0  0
   21.9928   -1.7949   12.4306 C   0  0  0  0  0  0  0  0  0  0  0  0
   22.4590   -0.9225   12.4757 H   0  0  0  0  0  0  0  0  0  0  0  0
   22.6672   -2.4797   12.1937 H   0  0  0  0  0  0  0  0  0  0  0  0
   21.3213   -2.1870   14.1078 P   0  0  0  0  0  0  0  0  0  0  0  0
   21.8330   -0.7584   15.1182 C   0  0  0  0  0  0  0  0  0  0  0  0
   21.6551   -0.9516   16.0721 H   0  0  0  0  0  0  0  0  0  0  0  0
   22.8067   -0.6134   15.0118 H   0  0  0  0  0  0  0  0  0  0  0  0
   21.0769    0.5218   14.7060 C   0  0  0  0  0  0  0  0  0  0  0  0
   20.1756    0.5098   15.1162 H   0  0  0  0  0  0  0  0  0  0  0  0
   20.9609    0.5254   13.7227 H   0  0  0  0  0  0  0  0  0  0  0  0
   21.9414    2.0638   15.2101 P   0  0  0  0  0  0  0  0  0  0  0  0
   21.2935    3.3270   14.0538 C   0  0  0  0  0  0  0  0  0  0  0  0
   20.3119    3.2225   13.9845 H   0  0  0  0  0  0  0  0  0  0  0  0
   21.4744    4.2260   14.4295 H   0  0  0  0  0  0  0  0  0  0  0  0
   21.8963    3.2489   12.6570 C   0  0  0  0  0  0  0  0  0  0  0  0
   22.8772    3.1327   12.7265 H   0  0  0  0  0  0  0  0  0  0  0  0
   21.5277    2.4615   12.1827 H   0  0  0  0  0  0  0  0  0  0  0  0
   21.6071    4.4394   11.9060 O   0  0  0  0  0  0  0  0  0  0  0  0
   20.3648    4.6144   11.3623 C   0  0  0  0  0  0  0  0  0  0  0  0
   20.1459    5.8685   10.7949 C   0  0  0  0  0  0  0  0  0  0  0  0
   20.8059    6.5467   10.8771 H   0  0  0  0  0  0  0  0  0  0  0  0
   18.9670    6.1300   10.1096 C   0  0  0  0  0  0  0  0  0  0  0  0
   18.8298    6.9853    9.7198 H   0  0  0  0  0  0  0  0  0  0  0  0
   17.9809    5.1466    9.9879 C   0  0  0  0  0  0  0  0  0  0  0  0
   18.1882    3.9228   10.6191 C   0  0  0  0  0  0  0  0  0  0  0  0
   17.5051    3.2648   10.5877 H   0  0  0  0  0  0  0  0  0  0  0  0
   19.3651    3.6420   11.2913 C   0  0  0  0  0  0  0  0  0  0  0  0
   19.4919    2.7940   11.7011 H   0  0  0  0  0  0  0  0  0  0  0  0
   16.7959    5.3923    9.2023 C   0  0  0  0  0  0  0  0  0  0  0  0
   15.8375    5.5907    8.5077 C   0  0  0  0  0  0  0  0  0  0  0  0
   14.6895    5.8499    7.6687 C   0  0  0  0  0  0  0  0  0  0  0  0
   14.6698    6.9471    6.8114 C   0  0  0  0  0  0  0  0  0  0  0  0
   15.4334    7.5098    6.7551 H   0  0  0  0  0  0  0  0  0  0  0  0
   13.5520    7.2343    6.0338 C   0  0  0  0  0  0  0  0  0  0  0  0
   13.5519    7.9788    5.4440 H   0  0  0  0  0  0  0  0  0  0  0  0
   12.4269    6.4080    6.1338 C   0  0  0  0  0  0  0  0  0  0  0  0
   12.4512    5.3030    6.9415 C   0  0  0  0  0  0  0  0  0  0  0  0
   11.6963    4.7265    6.9730 H   0  0  0  0  0  0  0  0  0  0  0  0
   13.5630    5.0173    7.7114 C   0  0  0  0  0  0  0  0  0  0  0  0
   13.5632    4.2518    8.2732 H   0  0  0  0  0  0  0  0  0  0  0  0
   11.2513    6.6203    5.4477 O   0  0  0  0  0  0  0  0  0  0  0  0
   10.8653    7.9227    5.1199 C   0  0  0  0  0  0  0  0  0  0  0  0
   11.3783    8.5656    5.6729 H   0  0  0  0  0  0  0  0  0  0  0  0
    9.9043    8.0411    5.3287 H   0  0  0  0  0  0  0  0  0  0  0  0
   11.1051    8.2250    3.6383 C   0  0  0  0  0  0  0  0  0  0  0  0
   11.9750    7.8372    3.3693 H   0  0  0  0  0  0  0  0  0  0  0  0
   11.1626    9.2062    3.5177 H   0  0  0  0  0  0  0  0  0  0  0  0
    9.7723    7.5545    2.5120 P   0  0  0  0  0  0  0  0  0  0  0  0
    9.7085    5.7537    2.7854 C   0  0  0  0  0  0  0  0  0  0  0  0
    9.5040    5.3142    1.9227 H   0  0  0  0  0  0  0  0  0  0  0  0
   10.6068    5.4480    3.0672 H   0  0  0  0  0  0  0  0  0  0  0  0
    8.6893    5.2786    3.8220 C   0  0  0  0  0  0  0  0  0  0  0  0
    7.8846    5.8538    3.7685 H   0  0  0  0  0  0  0  0  0  0  0  0
    9.0772    5.3846    4.7262 H   0  0  0  0  0  0  0  0  0  0  0  0
    9.6092    2.4632    2.8388 B   0  0  0  0  0  0  0  0  0  0  0  0
   10.4156    2.5615    3.3858 H   0  0  0  0  0  0  0  0  0  0  0  0
    9.7958    2.7633    1.9245 H   0  0  0  0  0  0  0  0  0  0  0  0
    9.3369    1.5217    2.8255 H   0  0  0  0  0  0  0  0  0  0  0  0
    6.6706    3.5673    2.5468 C   0  0  0  0  0  0  0  0  0  0  0  0
    5.4969    4.2773    3.2331 C   0  0  0  0  0  0  0  0  0  0  0  0
    5.7430    5.2071    3.4243 H   0  0  0  0  0  0  0  0  0  0  0  0
    5.2825    3.8179    4.0725 H   0  0  0  0  0  0  0  0  0  0  0  0
    4.7148    4.2607    2.6424 H   0  0  0  0  0  0  0  0  0  0  0  0
    6.9643    4.2918    1.2137 C   0  0  0  0  0  0  0  0  0  0  0  0
    6.2002    4.1872    0.6098 H   0  0  0  0  0  0  0  0  0  0  0  0
    7.7629    3.9031    0.8002 H   0  0  0  0  0  0  0  0  0  0  0  0
    7.1165    5.2442    1.3862 H   0  0  0  0  0  0  0  0  0  0  0  0
    6.2627    2.1018    2.2538 C   0  0  0  0  0  0  0  0  0  0  0  0
    6.0722    1.6407    3.0983 H   0  0  0  0  0  0  0  0  0  0  0  0
    6.9959    1.6446    1.7909 H   0  0  0  0  0  0  0  0  0  0  0  0
    5.4631    2.0918    1.6883 H   0  0  0  0  0  0  0  0  0  0  0  0
   19.4258   -2.5080   14.2250 B   0  0  0  0  0  0  0  0  0  0  0  0
   19.2132   -2.8914   15.1016 H   0  0  0  0  0  0  0  0  0  0  0  0
   19.1568   -3.1337   13.5213 H   0  0  0  0  0  0  0  0  0  0  0  0
   18.9437   -1.6619   14.1127 H   0  0  0  0  0  0  0  0  0  0  0  0
   22.3279   -3.6262   14.6870 C   0  0  0  0  0  0  0  0  0  0  0  0
   21.9570   -3.9529   16.1376 C   0  0  0  0  0  0  0  0  0  0  0  0
   22.4420   -4.7542   16.4273 H   0  0  0  0  0  0  0  0  0  0  0  0
   20.9921   -4.1157   16.2002 H   0  0  0  0  0  0  0  0  0  0  0  0
   22.1988   -3.1987   16.7148 H   0  0  0  0  0  0  0  0  0  0  0  0
   23.8306   -3.3543   14.5907 C   0  0  0  0  0  0  0  0  0  0  0  0
   24.3242   -4.0967   14.9972 H   0  0  0  0  0  0  0  0  0  0  0  0
   24.0429   -2.5228   15.0631 H   0  0  0  0  0  0  0  0  0  0  0  0
   24.0880   -3.2683   13.6494 H   0  0  0  0  0  0  0  0  0  0  0  0
   21.9586   -4.8106   13.7817 C   0  0  0  0  0  0  0  0  0  0  0  0
   22.2091   -4.6045   12.8566 H   0  0  0  0  0  0  0  0  0  0  0  0
   20.9928   -4.9701   13.8307 H   0  0  0  0  0  0  0  0  0  0  0  0
   22.4380   -5.6114   14.0798 H   0  0  0  0  0  0  0  0  0  0  0  0
   23.8539    1.8654   15.0979 B   0  0  0  0  0  0  0  0  0  0  0  0
   24.0950    1.5061   14.2189 H   0  0  0  0  0  0  0  0  0  0  0  0
   24.1603    1.2513   15.7974 H   0  0  0  0  0  0  0  0  0  0  0  0
   24.2810    2.7391   15.2224 H   0  0  0  0  0  0  0  0  0  0  0  0
   21.3071    2.5783   16.8653 C   0  0  0  0  0  0  0  0  0  0  0  0
   22.0487    3.8559   17.2883 C   0  0  0  0  0  0  0  0  0  0  0  0
   21.8914    4.5593   16.6251 H   0  0  0  0  0  0  0  0  0  0  0  0
   23.0093    3.6713   17.3484 H   0  0  0  0  0  0  0  0  0  0  0  0
   21.7173    4.1511   18.1614 H   0  0  0  0  0  0  0  0  0  0  0  0
   19.7971    2.8445   16.8507 C   0  0  0  0  0  0  0  0  0  0  0  0
   19.4930    3.0534   17.7586 H   0  0  0  0  0  0  0  0  0  0  0  0
   19.3277    2.0478   16.5244 H   0  0  0  0  0  0  0  0  0  0  0  0
   19.6048    3.6022   16.2588 H   0  0  0  0  0  0  0  0  0  0  0  0
   21.6235    1.4610   17.8780 C   0  0  0  0  0  0  0  0  0  0  0  0
   21.3496    1.7453   18.7749 H   0  0  0  0  0  0  0  0  0  0  0  0
   22.5862    1.2779   17.8721 H   0  0  0  0  0  0  0  0  0  0  0  0
   21.1356    0.6472   17.6304 H   0  0  0  0  0  0  0  0  0  0  0  0
    8.0804    8.4021    2.8017 B   0  0  0  0  0  0  0  0  0  0  0  0
    7.3940    7.9541    2.2633 H   0  0  0  0  0  0  0  0  0  0  0  0
    8.1377    9.3445    2.5380 H   0  0  0  0  0  0  0  0  0  0  0  0
    7.8430    8.3422    3.7502 H   0  0  0  0  0  0  0  0  0  0  0  0
   10.4888    7.7643    0.8156 C   0  0  0  0  0  0  0  0  0  0  0  0
   10.7707    9.2570    0.5854 C   0  0  0  0  0  0  0  0  0  0  0  0
   11.4870    9.5504    1.1866 H   0  0  0  0  0  0  0  0  0  0  0  0
    9.9588    9.7745    0.7673 H   0  0  0  0  0  0  0  0  0  0  0  0
   11.0451    9.3971   -0.3443 H   0  0  0  0  0  0  0  0  0  0  0  0
    9.4476    7.3096   -0.2106 C   0  0  0  0  0  0  0  0  0  0  0  0
    9.7949    7.4572   -1.1152 H   0  0  0  0  0  0  0  0  0  0  0  0
    8.6229    7.8247   -0.0897 H   0  0  0  0  0  0  0  0  0  0  0  0
    9.2599    6.3564   -0.0842 H   0  0  0  0  0  0  0  0  0  0  0  0
   11.7779    6.9487    0.6272 C   0  0  0  0  0  0  0  0  0  0  0  0
   11.5866    5.9985    0.7709 H   0  0  0  0  0  0  0  0  0  0  0  0
   12.4507    7.2476    1.2727 H   0  0  0  0  0  0  0  0  0  0  0  0
   12.1175    7.0796   -0.2820 H   0  0  0  0  0  0  0  0  0  0  0  0
  1  2  1  0  0  0  0
  2  3  1  0  0  0  0
  4  2  1  0  0  0  0
  5  2  1  0  0  0  0
  6  5  1  0  0  0  0
  7  5  1  0  0  0  0
  8  5  1  0  0  0  0
  9  8  1  0  0  0  0
 10  9  4  0  0  0  0
 11 10  1  0  0  0  0
 12 10  4  0  0  0  0
 13 12  1  0  0  0  0
 14 12  4  0  0  0  0
 15 14  4  0  0  0  0
 16 15  1  0  0  0  0
 17  9  4  0  0  0  0
 18 17  1  0  0  0  0
 19 14  1  0  0  0  0
 20 19  3  0  0  0  0
 21 20  1  0  0  0  0
 22 21  4  0  0  0  0
 23 22  1  0  0  0  0
 24 22  4  0  0  0  0
 25 24  1  0  0  0  0
 26 24  4  0  0  0  0
 27 26  4  0  0  0  0
 28 27  1  0  0  0  0
 29 21  4  0  0  0  0
 30 29  1  0  0  0  0
 31 26  1  0  0  0  0
 32 31  1  0  0  0  0
 33 32  1  0  0  0  0
 34 32  1  0  0  0  0
 35 32  1  0  0  0  0
 36 35  1  0  0  0  0
 37 35  1  0  0  0  0
 38 35  1  0  0  0  0
 39 38  1  0  0  0  0
 40 39  1  0  0  0  0
 41 39  1  0  0  0  0
 42 39  1  0  0  0  0
 43 42  1  0  0  0  0
 44 42  1  0  0  0  0
 45 42  1  0  0  0  0
 46 45  1  0  0  0  0
 47 46  1  0  0  0  0
 48 46  1  0  0  0  0
 49 46  1  0  0  0  0
 50 49  1  0  0  0  0
 51 49  1  0  0  0  0
 52 49  1  0  0  0  0
 53 52  1  0  0  0  0
 54 53  4  0  0  0  0
 55 54  1  0  0  0  0
 56 54  4  0  0  0  0
 57 56  1  0  0  0  0
 58 56  4  0  0  0  0
 59 58  4  0  0  0  0
 60 59  1  0  0  0  0
 61 53  4  0  0  0  0
 62 61  1  0  0  0  0
 63 58  1  0  0  0  0
 64 63  3  0  0  0  0
 65 64  1  0  0  0  0
 66 65  4  0  0  0  0
 67 66  1  0  0  0  0
 68 66  4  0  0  0  0
 69 68  1  0  0  0  0
 70 68  4  0  0  0  0
 71 70  4  0  0  0  0
 72 71  1  0  0  0  0
 73 65  4  0  0  0  0
 74 73  1  0  0  0  0
 75 70  1  0  0  0  0
 76 75  1  0  0  0  0
 77 76  1  0  0  0  0
 78 76  1  0  0  0  0
 79 76  1  0  0  0  0
 80 79  1  0  0  0  0
 81 79  1  0  0  0  0
 82 79  1  0  0  0  0
 83 82  1  0  0  0  0
 84 83  1  0  0  0  0
 85 83  1  0  0  0  0
 86  1  1  0  0  0  0
 87 86  1  0  0  0  0
 88 86  1  0  0  0  0
 89  1  1  0  0  0  0
 90 89  1  0  0  0  0
 91 89  1  0  0  0  0
 92 89  1  0  0  0  0
 93  1  1  0  0  0  0
 94 93  1  0  0  0  0
 95 94  1  0  0  0  0
 96 94  1  0  0  0  0
 97 94  1  0  0  0  0
 98 93  1  0  0  0  0
 99 98  1  0  0  0  0
100 98  1  0  0  0  0
101 98  1  0  0  0  0
102 93  1  0  0  0  0
103102  1  0  0  0  0
104102  1  0  0  0  0
105102  1  0  0  0  0
106 38  1  0  0  0  0
107106  1  0  0  0  0
108106  1  0  0  0  0
109106  1  0  0  0  0
110 38  1  0  0  0  0
111110  1  0  0  0  0
112111  1  0  0  0  0
113111  1  0  0  0  0
114111  1  0  0  0  0
115110  1  0  0  0  0
116115  1  0  0  0  0
117115  1  0  0  0  0
118115  1  0  0  0  0
119110  1  0  0  0  0
120119  1  0  0  0  0
121119  1  0  0  0  0
122119  1  0  0  0  0
123 45  1  0  0  0  0
124123  1  0  0  0  0
125123  1  0  0  0  0
126123  1  0  0  0  0
127 45  1  0  0  0  0
128127  1  0  0  0  0
129128  1  0  0  0  0
130128  1  0  0  0  0
131128  1  0  0  0  0
132127  1  0  0  0  0
133132  1  0  0  0  0
134132  1  0  0  0  0
135132  1  0  0  0  0
136127  1  0  0  0  0
137136  1  0  0  0  0
138136  1  0  0  0  0
139136  1  0  0  0  0
140 82  1  0  0  0  0
141140  1  0  0  0  0
142140  1  0  0  0  0
143140  1  0  0  0  0
144 82  1  0  0  0  0
145144  1  0  0  0  0
146145  1  0  0  0  0
147145  1  0  0  0  0
148145  1  0  0  0  0
149144  1  0  0  0  0
150149  1  0  0  0  0
151149  1  0  0  0  0
152149  1  0  0  0  0
153144  1  0  0  0  0
154153  1  0  0  0  0
155153  1  0  0  0  0
156153  1  0  0  0  0
 15 17  4  0  0  0  0
 27 29  4  0  0  0  0
 59 61  4  0  0  0  0
 71 73  4  0  0  0  0
 83 86  1  0  0  0  0
M  END
$$$$
RALREE

From CSD data. Using bond type 'Any'. No disordered atoms. Largest molecule.
174186  0  0  0  0  0  0  0  0999 V2000
    4.6470   13.4446   21.3305 P   0  0  0  0  0  0  0  0  0  0  0  0
    7.2414   14.5603   22.8837 P   0  0  0  0  0  0  0  0  0  0  0  0
    6.1919   16.0375   20.2186 P   0  0  0  0  0  0  0  0  0  0  0  0
    5.7356   12.5801   23.5557 O   0  0  0  0  0  0  0  0  0  0  0  0
    4.0562   14.9121   19.2760 O   0  0  0  0  0  0  0  0  0  0  0  0
    3.9309   11.9555   26.8892 C   0  0  0  0  0  0  0  0  0  0  0  0
    4.1853   12.2921   27.7970 H   0  0  0  0  0  0  0  0  0  0  0  0
    5.8927   13.5039   22.5490 C   0  0  0  0  0  0  0  0  0  0  0  0
    5.0249   14.7644   20.2608 C   0  0  0  0  0  0  0  0  0  0  0  0
    5.0679   11.2860   26.1206 C   0  0  0  0  0  0  0  0  0  0  0  0
    5.7356   12.0060   25.9319 H   0  0  0  0  0  0  0  0  0  0  0  0
    8.1293   16.7579   21.7812 O   0  0  0  0  0  0  0  0  0  0  0  0
    5.9114   10.3416   22.2902 C   0  0  0  0  0  0  0  0  0  0  0  0
    6.0067   10.9363   21.4930 H   0  0  0  0  0  0  0  0  0  0  0  0
    2.4124   11.9125   25.4487 C   0  0  0  0  0  0  0  0  0  0  0  0
    1.4811   12.1986   25.2196 H   0  0  0  0  0  0  0  0  0  0  0  0
    7.3551    9.8778   22.7062 C   0  0  0  0  0  0  0  0  0  0  0  0
    7.4093    9.9863   23.6981 H   0  0  0  0  0  0  0  0  0  0  0  0
    4.6004   10.7474   24.7223 C   0  0  0  0  0  0  0  0  0  0  0  0
    4.6547    9.7506   24.7506 H   0  0  0  0  0  0  0  0  0  0  0  0
    5.4270   11.2318   23.4869 B   0  0  0  0  0  0  0  0  0  0  0  0
    8.4341   10.7829   22.1123 C   0  0  0  0  0  0  0  0  0  0  0  0
    8.4266   10.7044   21.1386 H   0  0  0  0  0  0  0  0  0  0  0  0
    9.3112   10.5136   22.4560 H   0  0  0  0  0  0  0  0  0  0  0  0
    8.2564   11.7124   22.3665 H   0  0  0  0  0  0  0  0  0  0  0  0
    2.5695   11.2318   26.8390 C   0  0  0  0  0  0  0  0  0  0  0  0
    3.3306   13.0327   25.9520 C   0  0  0  0  0  0  0  0  0  0  0  0
    2.8594   13.7657   26.4224 H   0  0  0  0  0  0  0  0  0  0  0  0
    3.9609   13.3805   25.2732 H   0  0  0  0  0  0  0  0  0  0  0  0
    7.5832    8.4098   22.4266 C   0  0  0  0  0  0  0  0  0  0  0  0
    8.5052    8.0863   22.6385 H   0  0  0  0  0  0  0  0  0  0  0  0
    5.8048   10.2275   26.9307 C   0  0  0  0  0  0  0  0  0  0  0  0
    6.0535   10.5978   27.8042 H   0  0  0  0  0  0  0  0  0  0  0  0
    6.6145    9.9526   26.4546 H   0  0  0  0  0  0  0  0  0  0  0  0
    5.2213    9.4496   27.0596 H   0  0  0  0  0  0  0  0  0  0  0  0
    7.0091    7.8824   21.0706 C   0  0  0  0  0  0  0  0  0  0  0  0
    3.9665   14.2650   18.0600 B   0  0  0  0  0  0  0  0  0  0  0  0
   10.1359   15.3665   20.9632 C   0  0  0  0  0  0  0  0  0  0  0  0
    9.3804   14.7662   20.7054 H   0  0  0  0  0  0  0  0  0  0  0  0
    3.1305   11.1270   24.3572 C   0  0  0  0  0  0  0  0  0  0  0  0
    3.1380   11.6675   23.5263 H   0  0  0  0  0  0  0  0  0  0  0  0
    2.6237   10.2986   24.1707 H   0  0  0  0  0  0  0  0  0  0  0  0
   10.9512   15.6527   19.6530 C   0  0  0  0  0  0  0  0  0  0  0  0
   11.2392   16.6101   19.6852 H   0  0  0  0  0  0  0  0  0  0  0  0
    1.5784   11.8171   27.8611 C   0  0  0  0  0  0  0  0  0  0  0  0
    1.8233   11.5179   28.7600 H   0  0  0  0  0  0  0  0  0  0  0  0
    0.6732   11.5104   27.6502 H   0  0  0  0  0  0  0  0  0  0  0  0
    1.6101   12.7970   27.8221 H   0  0  0  0  0  0  0  0  0  0  0  0
    4.9613    9.1803   21.8957 C   0  0  0  0  0  0  0  0  0  0  0  0
    4.2245    9.1335   22.5526 H   0  0  0  0  0  0  0  0  0  0  0  0
    4.5649    9.3785   21.0097 H   0  0  0  0  0  0  0  0  0  0  0  0
    7.1811   15.7312   21.6090 C   0  0  0  0  0  0  0  0  0  0  0  0
    9.6889   19.2283   21.2388 C   0  0  0  0  0  0  0  0  0  0  0  0
    8.7745   18.9814   20.9167 H   0  0  0  0  0  0  0  0  0  0  0  0
    7.0933    8.7090   19.8001 C   0  0  0  0  0  0  0  0  0  0  0  0
    6.7342    9.6048   19.9716 H   0  0  0  0  0  0  0  0  0  0  0  0
    6.5696    8.2770   19.0945 H   0  0  0  0  0  0  0  0  0  0  0  0
    8.0283    8.7801   19.5170 H   0  0  0  0  0  0  0  0  0  0  0  0
    5.6589    7.8132   21.8331 C   0  0  0  0  0  0  0  0  0  0  0  0
    5.0679    7.0484   21.5753 H   0  0  0  0  0  0  0  0  0  0  0  0
    8.6062   19.8903   23.3509 C   0  0  0  0  0  0  0  0  0  0  0  0
    7.9890   19.1535   23.1146 H   0  0  0  0  0  0  0  0  0  0  0  0
    8.1330   20.6177   23.8270 H   0  0  0  0  0  0  0  0  0  0  0  0
    2.4835    9.7132   26.9235 C   0  0  0  0  0  0  0  0  0  0  0  0
    3.0501    9.3149   26.2290 H   0  0  0  0  0  0  0  0  0  0  0  0
    1.5540    9.4309   26.7911 H   0  0  0  0  0  0  0  0  0  0  0  0
    2.7920    9.4159   27.8042 H   0  0  0  0  0  0  0  0  0  0  0  0
   12.2173   14.8018   19.6208 C   0  0  0  0  0  0  0  0  0  0  0  0
   12.7372   14.8728   18.7688 H   0  0  0  0  0  0  0  0  0  0  0  0
   12.2285   13.9883   21.5574 C   0  0  0  0  0  0  0  0  0  0  0  0
   12.7316   13.4459   22.2304 H   0  0  0  0  0  0  0  0  0  0  0  0
    9.4907   16.6700   21.5431 B   0  0  0  0  0  0  0  0  0  0  0  0
    7.5439    6.4836   20.7556 C   0  0  0  0  0  0  0  0  0  0  0  0
    8.4752    6.5491   20.4620 H   0  0  0  0  0  0  0  0  0  0  0  0
    7.0035    6.0815   20.0468 H   0  0  0  0  0  0  0  0  0  0  0  0
    7.4935    5.9263   21.5610 H   0  0  0  0  0  0  0  0  0  0  0  0
   13.2982   12.4735   19.8248 C   0  0  0  0  0  0  0  0  0  0  0  0
   13.3113   12.2884   18.8619 H   0  0  0  0  0  0  0  0  0  0  0  0
   13.2645   11.6282   20.3188 H   0  0  0  0  0  0  0  0  0  0  0  0
   14.1098   12.9653   20.0718 H   0  0  0  0  0  0  0  0  0  0  0  0
    9.5019   20.3690   22.1875 C   0  0  0  0  0  0  0  0  0  0  0  0
    9.2008   21.2199   21.7579 H   0  0  0  0  0  0  0  0  0  0  0  0
   10.8465   12.4623   19.8964 C   0  0  0  0  0  0  0  0  0  0  0  0
   10.0443   12.9298   20.2079 H   0  0  0  0  0  0  0  0  0  0  0  0
   10.9344   11.6095   20.3725 H   0  0  0  0  0  0  0  0  0  0  0  0
   10.7736   12.2940   18.9335 H   0  0  0  0  0  0  0  0  0  0  0  0
    9.9246   19.4284   24.0311 C   0  0  0  0  0  0  0  0  0  0  0  0
    9.9414   19.5275   25.0262 H   0  0  0  0  0  0  0  0  0  0  0  0
   10.0723   15.4862   18.4036 C   0  0  0  0  0  0  0  0  0  0  0  0
    9.7170   14.5736   18.3750 H   0  0  0  0  0  0  0  0  0  0  0  0
   10.6109   15.6508   17.6018 H   0  0  0  0  0  0  0  0  0  0  0  0
    9.3317   16.1239   18.4359 H   0  0  0  0  0  0  0  0  0  0  0  0
   10.6502   20.5485   23.2507 C   0  0  0  0  0  0  0  0  0  0  0  0
   13.0383   15.1085   20.8916 C   0  0  0  0  0  0  0  0  0  0  0  0
   14.0051   14.9177   20.8057 H   0  0  0  0  0  0  0  0  0  0  0  0
   12.8774   16.0080   21.2711 H   0  0  0  0  0  0  0  0  0  0  0  0
   10.9400   14.6148   22.0693 C   0  0  0  0  0  0  0  0  0  0  0  0
   11.1607   15.2525   22.7960 H   0  0  0  0  0  0  0  0  0  0  0  0
   10.3696   13.9041   22.4560 H   0  0  0  0  0  0  0  0  0  0  0  0
    6.4443    7.6187   23.1361 C   0  0  0  0  0  0  0  0  0  0  0  0
    6.6669    6.6762   23.3402 H   0  0  0  0  0  0  0  0  0  0  0  0
    6.0535    8.0788   23.9201 H   0  0  0  0  0  0  0  0  0  0  0  0
   10.2799   18.0651   23.5299 C   0  0  0  0  0  0  0  0  0  0  0  0
    9.6422   17.4087   23.9058 H   0  0  0  0  0  0  0  0  0  0  0  0
   11.1831   17.8294   23.8592 H   0  0  0  0  0  0  0  0  0  0  0  0
   10.4875   19.6154   19.9967 C   0  0  0  0  0  0  0  0  0  0  0  0
   10.0069   20.3110   19.5026 H   0  0  0  0  0  0  0  0  0  0  0  0
   10.6034   18.8281   19.4239 H   0  0  0  0  0  0  0  0  0  0  0  0
   11.3664   19.9539   20.2651 H   0  0  0  0  0  0  0  0  0  0  0  0
   10.2631   17.9491   21.9548 C   0  0  0  0  0  0  0  0  0  0  0  0
   11.2112   17.8369   21.6505 H   0  0  0  0  0  0  0  0  0  0  0  0
   12.0640   13.3169   20.1649 C   0  0  0  0  0  0  0  0  0  0  0  0
   12.1051   20.3615   22.8605 C   0  0  0  0  0  0  0  0  0  0  0  0
   12.1949   19.5518   22.3163 H   0  0  0  0  0  0  0  0  0  0  0  0
   12.6512   20.2755   23.6695 H   0  0  0  0  0  0  0  0  0  0  0  0
   12.4043   21.1395   22.3414 H   0  0  0  0  0  0  0  0  0  0  0  0
   10.5361   21.9305   23.8843 C   0  0  0  0  0  0  0  0  0  0  0  0
   10.9512   22.5944   23.2936 H   0  0  0  0  0  0  0  0  0  0  0  0
   10.9924   21.9324   24.7506 H   0  0  0  0  0  0  0  0  0  0  0  0
    9.5898   22.1531   24.0132 H   0  0  0  0  0  0  0  0  0  0  0  0
    4.7351   12.0303   16.8500 C   0  0  0  0  0  0  0  0  0  0  0  0
    3.8599   12.2042   16.3990 H   0  0  0  0  0  0  0  0  0  0  0  0
    2.7696   14.4969   17.2152 C   0  0  0  0  0  0  0  0  0  0  0  0
    2.7752   13.8050   16.4920 H   0  0  0  0  0  0  0  0  0  0  0  0
    5.1540   13.3637   17.5885 C   0  0  0  0  0  0  0  0  0  0  0  0
    5.6121   13.0701   18.4287 H   0  0  0  0  0  0  0  0  0  0  0  0
    7.8656   11.7273   17.4550 C   0  0  0  0  0  0  0  0  0  0  0  0
    7.3663   12.1986   18.1531 H   0  0  0  0  0  0  0  0  0  0  0  0
    8.8006   12.0209   17.4657 H   0  0  0  0  0  0  0  0  0  0  0  0
    7.8263   10.7624   17.6161 H   0  0  0  0  0  0  0  0  0  0  0  0
    6.1919   14.2220   16.8321 C   0  0  0  0  0  0  0  0  0  0  0  0
    5.7468   15.0318   16.4813 H   0  0  0  0  0  0  0  0  0  0  0  0
    6.8932   14.5156   17.4693 H   0  0  0  0  0  0  0  0  0  0  0  0
    1.3633   14.4464   17.8989 C   0  0  0  0  0  0  0  0  0  0  0  0
    1.5316   14.5456   18.8798 H   0  0  0  0  0  0  0  0  0  0  0  0
    2.9660   15.9556   16.4920 C   0  0  0  0  0  0  0  0  0  0  0  0
    3.6897   16.4287   16.9753 H   0  0  0  0  0  0  0  0  0  0  0  0
    3.2951   15.7892   15.5756 H   0  0  0  0  0  0  0  0  0  0  0  0
    0.4114   15.5461   17.5302 C   0  0  0  0  0  0  0  0  0  0  0  0
   -0.4956   15.4694   17.9419 H   0  0  0  0  0  0  0  0  0  0  0  0
    7.2485   12.0396   16.0875 C   0  0  0  0  0  0  0  0  0  0  0  0
    1.7897   16.9187   16.3847 C   0  0  0  0  0  0  0  0  0  0  0  0
    1.9299   17.7976   15.9300 H   0  0  0  0  0  0  0  0  0  0  0  0
    4.5107   10.9213   17.8416 C   0  0  0  0  0  0  0  0  0  0  0  0
    5.3428   10.7455   18.3285 H   0  0  0  0  0  0  0  0  0  0  0  0
    4.2301   10.1116   17.3691 H   0  0  0  0  0  0  0  0  0  0  0  0
    3.8131   11.1887   18.4752 H   0  0  0  0  0  0  0  0  0  0  0  0
    0.4152   16.0117   16.0016 C   0  0  0  0  0  0  0  0  0  0  0  0
    5.7300   11.6974   15.7761 C   0  0  0  0  0  0  0  0  0  0  0  0
    5.5897   10.8054   15.3465 H   0  0  0  0  0  0  0  0  0  0  0  0
    6.8595   13.4628   15.6651 C   0  0  0  0  0  0  0  0  0  0  0  0
    7.5645   13.9714   15.1711 H   0  0  0  0  0  0  0  0  0  0  0  0
    8.1966   11.3832   15.0816 C   0  0  0  0  0  0  0  0  0  0  0  0
    9.0774   11.8096   15.1389 H   0  0  0  0  0  0  0  0  0  0  0  0
    7.8375   11.4917   14.1759 H   0  0  0  0  0  0  0  0  0  0  0  0
    8.2808   10.4295   15.2857 H   0  0  0  0  0  0  0  0  0  0  0  0
   -0.7424   16.9449   15.5828 C   0  0  0  0  0  0  0  0  0  0  0  0
   -1.5279   16.4063   15.3465 H   0  0  0  0  0  0  0  0  0  0  0  0
   -0.4675   17.4779   14.8060 H   0  0  0  0  0  0  0  0  0  0  0  0
   -0.9668   17.5414   16.3274 H   0  0  0  0  0  0  0  0  0  0  0  0
    5.7505   12.8587   14.7952 C   0  0  0  0  0  0  0  0  0  0  0  0
    4.9146   13.3898   14.7738 H   0  0  0  0  0  0  0  0  0  0  0  0
    6.0423   12.6138   13.8788 H   0  0  0  0  0  0  0  0  0  0  0  0
    1.1651   16.9056   17.8309 C   0  0  0  0  0  0  0  0  0  0  0  0
    0.5517   17.6649   18.0027 H   0  0  0  0  0  0  0  0  0  0  0  0
    1.8402   16.8308   18.5540 H   0  0  0  0  0  0  0  0  0  0  0  0
    0.5947   14.9738   14.8919 C   0  0  0  0  0  0  0  0  0  0  0  0
    1.4194   14.4689   15.0458 H   0  0  0  0  0  0  0  0  0  0  0  0
    0.6471   15.4264   14.0256 H   0  0  0  0  0  0  0  0  0  0  0  0
   -0.1702   14.3586   14.8955 H   0  0  0  0  0  0  0  0  0  0  0  0
    0.7667   13.0962   17.7235 C   0  0  0  0  0  0  0  0  0  0  0  0
    0.4694   12.9896   16.7963 H   0  0  0  0  0  0  0  0  0  0  0  0
    0.0019   12.9953   18.3249 H   0  0  0  0  0  0  0  0  0  0  0  0
    1.4381   12.4137   17.9311 H   0  0  0  0  0  0  0  0  0  0  0  0
  1  8  4  0  0  0  0
  2  8  4  0  0  0  0
  3  9  4  0  0  0  0
  4  8  1  0  0  0  0
  5  9  1  0  0  0  0
  6  7  1  0  0  0  0
  9  1  4  0  0  0  0
 10  6  1  0  0  0  0
 11 10  1  0  0  0  0
 12 52  1  0  0  0  0
 13 14  1  0  0  0  0
 15 16  1  0  0  0  0
 17 13  1  0  0  0  0
 18 17  1  0  0  0  0
 19 10  1  0  0  0  0
 20 19  1  0  0  0  0
 21  4  1  0  0  0  0
 22 17  1  0  0  0  0
 23 22  1  0  0  0  0
 24 22  1  0  0  0  0
 25 22  1  0  0  0  0
 26  6  1  0  0  0  0
 27  6  1  0  0  0  0
 28 27  1  0  0  0  0
 29 27  1  0  0  0  0
 30 17  1  0  0  0  0
 31 30  1  0  0  0  0
 32 10  1  0  0  0  0
 33 32  1  0  0  0  0
 34 32  1  0  0  0  0
 35 32  1  0  0  0  0
 36 30  1  0  0  0  0
 37  5  1  0  0  0  0
 38 39  1  0  0  0  0
 40 15  1  0  0  0  0
 41 40  1  0  0  0  0
 42 40  1  0  0  0  0
 43 38  1  0  0  0  0
 44 43  1  0  0  0  0
 45 26  1  0  0  0  0
 46 45  1  0  0  0  0
 47 45  1  0  0  0  0
 48 45  1  0  0  0  0
 49 13  1  0  0  0  0
 50 49  1  0  0  0  0
 51 49  1  0  0  0  0
 52  2  4  0  0  0  0
 53 54  1  0  0  0  0
 55 36  1  0  0  0  0
 56 55  1  0  0  0  0
 57 55  1  0  0  0  0
 58 55  1  0  0  0  0
 59 36  1  0  0  0  0
 60 59  1  0  0  0  0
 61 62  1  0  0  0  0
 63 61  1  0  0  0  0
 64 26  1  0  0  0  0
 65 64  1  0  0  0  0
 66 64  1  0  0  0  0
 67 64  1  0  0  0  0
 68 43  1  0  0  0  0
 69 68  1  0  0  0  0
 70 71  1  0  0  0  0
 72 12  1  0  0  0  0
 73 36  1  0  0  0  0
 74 73  1  0  0  0  0
 75 73  1  0  0  0  0
 76 73  1  0  0  0  0
 77 78  1  0  0  0  0
 79 77  1  0  0  0  0
 80 77  1  0  0  0  0
 81 53  1  0  0  0  0
 82 81  1  0  0  0  0
 83 84  1  0  0  0  0
 85 83  1  0  0  0  0
 86 83  1  0  0  0  0
 87 61  1  0  0  0  0
 88 87  1  0  0  0  0
 89 43  1  0  0  0  0
 90 89  1  0  0  0  0
 91 89  1  0  0  0  0
 92 89  1  0  0  0  0
 93 81  1  0  0  0  0
 94 68  1  0  0  0  0
 95 94  1  0  0  0  0
 96 94  1  0  0  0  0
 97 38  1  0  0  0  0
 98 97  1  0  0  0  0
 99 97  1  0  0  0  0
100 30  1  0  0  0  0
101100  1  0  0  0  0
102100  1  0  0  0  0
103 87  1  0  0  0  0
104103  1  0  0  0  0
105103  1  0  0  0  0
106 53  1  0  0  0  0
107106  1  0  0  0  0
108106  1  0  0  0  0
109106  1  0  0  0  0
110 53  1  0  0  0  0
111110  1  0  0  0  0
112 68  1  0  0  0  0
113 93  1  0  0  0  0
114113  1  0  0  0  0
115113  1  0  0  0  0
116113  1  0  0  0  0
117 93  1  0  0  0  0
118117  1  0  0  0  0
119117  1  0  0  0  0
120117  1  0  0  0  0
121122  1  0  0  0  0
123 37  1  0  0  0  0
124123  1  0  0  0  0
125 37  1  0  0  0  0
126125  1  0  0  0  0
127128  1  0  0  0  0
129127  1  0  0  0  0
130127  1  0  0  0  0
131125  1  0  0  0  0
132131  1  0  0  0  0
133131  1  0  0  0  0
134123  1  0  0  0  0
135134  1  0  0  0  0
136123  1  0  0  0  0
137136  1  0  0  0  0
138136  1  0  0  0  0
139134  1  0  0  0  0
140139  1  0  0  0  0
141127  1  0  0  0  0
142136  1  0  0  0  0
143142  1  0  0  0  0
144121  1  0  0  0  0
145144  1  0  0  0  0
146144  1  0  0  0  0
147144  1  0  0  0  0
148139  1  0  0  0  0
149121  1  0  0  0  0
150149  1  0  0  0  0
151131  1  0  0  0  0
152151  1  0  0  0  0
153141  1  0  0  0  0
154153  1  0  0  0  0
155153  1  0  0  0  0
156153  1  0  0  0  0
157148  1  0  0  0  0
158157  1  0  0  0  0
159157  1  0  0  0  0
160157  1  0  0  0  0
161149  1  0  0  0  0
162161  1  0  0  0  0
163161  1  0  0  0  0
164139  1  0  0  0  0
165164  1  0  0  0  0
166164  1  0  0  0  0
167148  1  0  0  0  0
168167  1  0  0  0  0
169167  1  0  0  0  0
170167  1  0  0  0  0
171134  1  0  0  0  0
172171  1  0  0  0  0
173171  1  0  0  0  0
174171  1  0  0  0  0
  3 52  4  0  0  0  0
 13 21  1  0  0  0  0
 15 26  1  0  0  0  0
 15 27  1  0  0  0  0
 19 21  1  0  0  0  0
 19 40  1  0  0  0  0
 38 72  1  0  0  0  0
 49 59  1  0  0  0  0
 59100  1  0  0  0  0
 61 81  1  0  0  0  0
 70 94  1  0  0  0  0
 70 97  1  0  0  0  0
 70112  1  0  0  0  0
 72110  1  0  0  0  0
 77112  1  0  0  0  0
 83112  1  0  0  0  0
 87 93  1  0  0  0  0
103110  1  0  0  0  0
121125  1  0  0  0  0
141149  1  0  0  0  0
141151  1  0  0  0  0
142148  1  0  0  0  0
142164  1  0  0  0  0
151161  1  0  0  0  0
M  END
$$$$
RANBAL

From CSD data. Using bond type 'Any'. No disordered atoms. Largest molecule.
302321  0  0  0  0  0  0  0  0999 V2000
    5.6785    5.7641    8.4656 Fe  0  3  0  0  0  0  0  0  0  0  0  0
    4.8229    4.7872    7.1146 N   0  0  0  0  0  0  0  0  0  0  0  0
    7.4406    5.4697    7.4078 O   0  0  0  0  0  0  0  0  0  0  0  0
    7.6270    4.3943    8.0340 C   0  0  0  0  0  0  0  0  0  0  0  0
    8.8624    3.5619    7.7916 C   0  0  0  0  0  0  0  0  0  0  0  0
    9.6110    4.1496    7.5546 H   0  0  0  0  0  0  0  0  0  0  0  0
    9.0854    3.0636    8.6057 H   0  0  0  0  0  0  0  0  0  0  0  0
    8.6963    2.9354    7.0578 H   0  0  0  0  0  0  0  0  0  0  0  0
    6.7502    4.0278    8.8862 O   0  0  0  0  0  0  0  0  0  0  0  0
    4.4062    8.4957   10.4000 B   0  5  0  0  0  0  0  0  0  0  0  0
    3.8804    9.7863   11.2757 C   0  0  0  0  0  0  0  0  0  0  0  0
    4.6770   10.9395   11.3841 C   0  0  0  0  0  0  0  0  0  0  0  0
    5.5111   10.9566   10.9289 H   0  0  0  0  0  0  0  0  0  0  0  0
    4.3025   12.0541   12.1246 C   0  0  0  0  0  0  0  0  0  0  0  0
    4.8780   12.8096   12.1755 H   0  0  0  0  0  0  0  0  0  0  0  0
    3.0814   12.0563   12.7874 C   0  0  0  0  0  0  0  0  0  0  0  0
    2.8191   12.8068   13.3069 H   0  0  0  0  0  0  0  0  0  0  0  0
    2.2535   10.9532   12.6843 C   0  0  0  0  0  0  0  0  0  0  0  0
    1.4073   10.9536   13.1168 H   0  0  0  0  0  0  0  0  0  0  0  0
    2.6572    9.8407   11.9492 C   0  0  0  0  0  0  0  0  0  0  0  0
    2.0765    9.0881   11.9050 H   0  0  0  0  0  0  0  0  0  0  0  0
    5.8184    7.9761   11.1056 C   0  0  0  0  0  0  0  0  0  0  0  0
    6.3439    8.7667   11.3855 H   0  0  0  0  0  0  0  0  0  0  0  0
    5.5935    7.4625   11.9224 H   0  0  0  0  0  0  0  0  0  0  0  0
    6.8589    6.9346   10.0331 P   0  0  0  0  0  0  0  0  0  0  0  0
    7.8399    5.7995   11.1083 C   0  0  0  0  0  0  0  0  0  0  0  0
    8.3804    5.2326   10.5031 H   0  0  0  0  0  0  0  0  0  0  0  0
    7.1905    5.1984   11.5528 H   0  0  0  0  0  0  0  0  0  0  0  0
    8.7906    6.3088   12.2036 C   0  0  0  0  0  0  0  0  0  0  0  0
    9.3881    7.0060   11.8072 H   0  0  0  0  0  0  0  0  0  0  0  0
    8.0769    6.9090   13.4020 C   0  0  0  0  0  0  0  0  0  0  0  0
    7.5906    7.7205   13.1114 H   0  0  0  0  0  0  0  0  0  0  0  0
    7.4068    6.2581   13.7327 H   0  0  0  0  0  0  0  0  0  0  0  0
    9.0142    7.2785   14.5508 C   0  0  0  0  0  0  0  0  0  0  0  0
    8.4796    7.6116   15.3154 H   0  0  0  0  0  0  0  0  0  0  0  0
    9.6186    8.0076   14.2603 H   0  0  0  0  0  0  0  0  0  0  0  0
    9.8383    6.0888   14.9940 C   0  0  0  0  0  0  0  0  0  0  0  0
   10.4779    6.3710   15.6943 H   0  0  0  0  0  0  0  0  0  0  0  0
    9.2421    5.4003   15.3823 H   0  0  0  0  0  0  0  0  0  0  0  0
   10.6005    5.4981   13.8144 C   0  0  0  0  0  0  0  0  0  0  0  0
   11.2700    6.1521   13.4930 H   0  0  0  0  0  0  0  0  0  0  0  0
   11.0826    4.6846   14.1090 H   0  0  0  0  0  0  0  0  0  0  0  0
    9.6502    5.1401   12.6736 C   0  0  0  0  0  0  0  0  0  0  0  0
    9.0563    4.4047   12.9708 H   0  0  0  0  0  0  0  0  0  0  0  0
   10.1824    4.8062   11.9077 H   0  0  0  0  0  0  0  0  0  0  0  0
    8.0970    8.2025    9.4627 C   0  0  0  0  0  0  0  0  0  0  0  0
    8.6084    8.4804   10.2634 H   0  0  0  0  0  0  0  0  0  0  0  0
    7.5799    8.9942    9.1681 H   0  0  0  0  0  0  0  0  0  0  0  0
    9.1309    7.9136    8.3553 C   0  0  0  0  0  0  0  0  0  0  0  0
    8.6610    7.4496    7.6041 H   0  0  0  0  0  0  0  0  0  0  0  0
   10.3014    7.0284    8.8052 C   0  0  0  0  0  0  0  0  0  0  0  0
   10.7912    7.4748    9.5417 H   0  0  0  0  0  0  0  0  0  0  0  0
    9.9536    6.1668    9.1440 H   0  0  0  0  0  0  0  0  0  0  0  0
   11.2588    6.7734    7.6323 C   0  0  0  0  0  0  0  0  0  0  0  0
   10.7858    6.2630    6.9279 H   0  0  0  0  0  0  0  0  0  0  0  0
   12.0230    6.2266    7.9442 H   0  0  0  0  0  0  0  0  0  0  0  0
   11.7799    8.0755    7.0458 C   0  0  0  0  0  0  0  0  0  0  0  0
   12.3341    7.8758    6.2504 H   0  0  0  0  0  0  0  0  0  0  0  0
   12.3555    8.5266    7.7126 H   0  0  0  0  0  0  0  0  0  0  0  0
   10.6537    9.0066    6.6481 C   0  0  0  0  0  0  0  0  0  0  0  0
   11.0300    9.8731    6.3562 H   0  0  0  0  0  0  0  0  0  0  0  0
   10.1562    8.6162    5.8862 H   0  0  0  0  0  0  0  0  0  0  0  0
    9.6916    9.2374    7.8197 C   0  0  0  0  0  0  0  0  0  0  0  0
   10.1695    9.7080    8.5481 H   0  0  0  0  0  0  0  0  0  0  0  0
    8.9442    9.8127    7.5225 H   0  0  0  0  0  0  0  0  0  0  0  0
    4.6826    9.0347    8.8548 C   0  0  0  0  0  0  0  0  0  0  0  0
    3.9124    9.5868    8.5669 H   0  0  0  0  0  0  0  0  0  0  0  0
    5.4847    9.6165    8.8574 H   0  0  0  0  0  0  0  0  0  0  0  0
    4.9335    7.6986    7.6387 P   0  0  0  0  0  0  0  0  0  0  0  0
    3.3460    7.5758    6.7057 C   0  0  0  0  0  0  0  0  0  0  0  0
    2.7185    7.0424    7.2560 H   0  0  0  0  0  0  0  0  0  0  0  0
    3.5246    7.0533    5.8835 H   0  0  0  0  0  0  0  0  0  0  0  0
    2.6052    8.8760    6.2812 C   0  0  0  0  0  0  0  0  0  0  0  0
    3.2383    9.6395    6.4044 H   0  0  0  0  0  0  0  0  0  0  0  0
    2.2016    8.8404    4.8043 C   0  0  0  0  0  0  0  0  0  0  0  0
    1.6000    8.0694    4.6490 H   0  0  0  0  0  0  0  0  0  0  0  0
    3.0108    8.7109    4.2486 H   0  0  0  0  0  0  0  0  0  0  0  0
    1.4971   10.1211    4.3785 C   0  0  0  0  0  0  0  0  0  0  0  0
    1.2372   10.0528    3.4265 H   0  0  0  0  0  0  0  0  0  0  0  0
    2.1190   10.8860    4.4736 H   0  0  0  0  0  0  0  0  0  0  0  0
    0.2630   10.3687    5.2221 C   0  0  0  0  0  0  0  0  0  0  0  0
   -0.1472   11.2303    4.9623 H   0  0  0  0  0  0  0  0  0  0  0  0
   -0.3993    9.6517    5.0547 H   0  0  0  0  0  0  0  0  0  0  0  0
    0.6127   10.4003    6.7070 C   0  0  0  0  0  0  0  0  0  0  0  0
    1.1644   11.1997    6.8931 H   0  0  0  0  0  0  0  0  0  0  0  0
   -0.2212   10.4761    7.2359 H   0  0  0  0  0  0  0  0  0  0  0  0
    1.3748    9.1475    7.1489 C   0  0  0  0  0  0  0  0  0  0  0  0
    0.7677    8.3669    7.1047 H   0  0  0  0  0  0  0  0  0  0  0  0
    1.6604    9.2583    8.0902 H   0  0  0  0  0  0  0  0  0  0  0  0
    6.1423    8.2000    6.3468 C   0  0  0  0  0  0  0  0  0  0  0  0
    6.2907    7.4052    5.7751 H   0  0  0  0  0  0  0  0  0  0  0  0
    6.9980    8.3745    6.8141 H   0  0  0  0  0  0  0  0  0  0  0  0
    5.9111    9.3852    5.3975 C   0  0  0  0  0  0  0  0  0  0  0  0
    5.0317    9.2515    4.9422 H   0  0  0  0  0  0  0  0  0  0  0  0
    7.0084    9.3935    4.3183 C   0  0  0  0  0  0  0  0  0  0  0  0
    6.9832    8.5363    3.8228 H   0  0  0  0  0  0  0  0  0  0  0  0
    7.8938    9.4643    4.7561 H   0  0  0  0  0  0  0  0  0  0  0  0
    6.8495   10.5458    3.3314 C   0  0  0  0  0  0  0  0  0  0  0  0
    6.0186   10.4161    2.8079 H   0  0  0  0  0  0  0  0  0  0  0  0
    7.6123   10.5456    2.6994 H   0  0  0  0  0  0  0  0  0  0  0  0
    6.7890   11.8871    4.0505 C   0  0  0  0  0  0  0  0  0  0  0  0
    6.6181   12.6075    3.3917 H   0  0  0  0  0  0  0  0  0  0  0  0
    7.6595   12.0687    4.4843 H   0  0  0  0  0  0  0  0  0  0  0  0
    5.6879   11.8871    5.1002 C   0  0  0  0  0  0  0  0  0  0  0  0
    5.6945   12.7518    5.5836 H   0  0  0  0  0  0  0  0  0  0  0  0
    4.8096   11.7916    4.6557 H   0  0  0  0  0  0  0  0  0  0  0  0
    5.8820   10.7479    6.0951 C   0  0  0  0  0  0  0  0  0  0  0  0
    6.7299   10.8825    6.5865 H   0  0  0  0  0  0  0  0  0  0  0  0
    5.1419   10.7613    6.7539 H   0  0  0  0  0  0  0  0  0  0  0  0
    3.2616    7.2893   10.3584 C   0  0  0  0  0  0  0  0  0  0  0  0
    3.9333    5.6551    9.8594 P   0  0  0  0  0  0  0  0  0  0  0  0
    2.5449    4.6749    9.1266 C   0  0  0  0  0  0  0  0  0  0  0  0
    2.9325    3.8172    8.8186 H   0  0  0  0  0  0  0  0  0  0  0  0
    2.2498    5.1603    8.3165 H   0  0  0  0  0  0  0  0  0  0  0  0
    1.2697    4.3271    9.9286 C   0  0  0  0  0  0  0  0  0  0  0  0
    1.5434    4.0329   10.8432 H   0  0  0  0  0  0  0  0  0  0  0  0
    0.2949    5.4919   10.0706 C   0  0  0  0  0  0  0  0  0  0  0  0
    0.7237    6.2107   10.6008 H   0  0  0  0  0  0  0  0  0  0  0  0
    0.0935    5.8575    9.1721 H   0  0  0  0  0  0  0  0  0  0  0  0
   -1.0144    5.0819   10.7494 C   0  0  0  0  0  0  0  0  0  0  0  0
   -1.6351    5.8527   10.7535 H   0  0  0  0  0  0  0  0  0  0  0  0
   -0.8303    4.8358   11.6894 H   0  0  0  0  0  0  0  0  0  0  0  0
   -1.6820    3.9051   10.0438 C   0  0  0  0  0  0  0  0  0  0  0  0
   -1.9686    4.1838    9.1386 H   0  0  0  0  0  0  0  0  0  0  0  0
   -2.4864    3.6298   10.5499 H   0  0  0  0  0  0  0  0  0  0  0  0
   -0.7289    2.7352    9.9313 C   0  0  0  0  0  0  0  0  0  0  0  0
   -0.5204    2.3911   10.8365 H   0  0  0  0  0  0  0  0  0  0  0  0
   -1.1595    2.0062    9.4185 H   0  0  0  0  0  0  0  0  0  0  0  0
    0.5656    3.1528    9.2337 C   0  0  0  0  0  0  0  0  0  0  0  0
    1.1803    2.3777    9.2069 H   0  0  0  0  0  0  0  0  0  0  0  0
    0.3591    3.4081    8.3004 H   0  0  0  0  0  0  0  0  0  0  0  0
    4.1750    4.9147   11.5448 C   0  0  0  0  0  0  0  0  0  0  0  0
    3.2748    4.8086   11.9438 H   0  0  0  0  0  0  0  0  0  0  0  0
    4.6485    5.5929   12.0911 H   0  0  0  0  0  0  0  0  0  0  0  0
    4.9108    3.5865   11.7510 C   0  0  0  0  0  0  0  0  0  0  0  0
    5.8025    3.6531   11.3024 H   0  0  0  0  0  0  0  0  0  0  0  0
    5.1484    3.4219   13.2587 C   0  0  0  0  0  0  0  0  0  0  0  0
    4.2771    3.4604   13.7274 H   0  0  0  0  0  0  0  0  0  0  0  0
    5.6990    4.1790   13.5814 H   0  0  0  0  0  0  0  0  0  0  0  0
    5.8501    2.1097   13.6189 C   0  0  0  0  0  0  0  0  0  0  0  0
    5.9212    2.0316   14.6031 H   0  0  0  0  0  0  0  0  0  0  0  0
    6.7656    2.1081   13.2426 H   0  0  0  0  0  0  0  0  0  0  0  0
    5.0670    0.9263   13.0659 C   0  0  0  0  0  0  0  0  0  0  0  0
    4.1724    0.8877   13.4890 H   0  0  0  0  0  0  0  0  0  0  0  0
    5.5443    0.0832   13.2721 H   0  0  0  0  0  0  0  0  0  0  0  0
    4.9199    1.0793   11.5595 C   0  0  0  0  0  0  0  0  0  0  0  0
    5.8176    1.0810   11.1418 H   0  0  0  0  0  0  0  0  0  0  0  0
    4.4182    0.3042   11.2007 H   0  0  0  0  0  0  0  0  0  0  0  0
    4.1885    2.3688   11.1886 C   0  0  0  0  0  0  0  0  0  0  0  0
    3.2647    2.3376   11.5461 H   0  0  0  0  0  0  0  0  0  0  0  0
    4.1321    2.4444   10.2031 H   0  0  0  0  0  0  0  0  0  0  0  0
    3.5447    3.2001    4.9243 Fe  0  3  0  0  0  0  0  0  0  0  0  0
    4.4003    4.1771    6.2753 N   0  0  0  0  0  0  0  0  0  0  0  0
    1.7826    3.4946    5.9821 O   0  0  0  0  0  0  0  0  0  0  0  0
    1.5962    4.5699    5.3560 C   0  0  0  0  0  0  0  0  0  0  0  0
    0.3608    5.4024    5.5983 C   0  0  0  0  0  0  0  0  0  0  0  0
   -0.3878    4.8147    5.8353 H   0  0  0  0  0  0  0  0  0  0  0  0
    0.1379    5.9007    4.7842 H   0  0  0  0  0  0  0  0  0  0  0  0
    0.5270    6.0289    6.3321 H   0  0  0  0  0  0  0  0  0  0  0  0
    2.4731    4.9365    4.5037 O   0  0  0  0  0  0  0  0  0  0  0  0
    4.8170    0.4686    2.9900 B   0  5  0  0  0  0  0  0  0  0  0  0
    5.3428   -0.8220    2.1143 C   0  0  0  0  0  0  0  0  0  0  0  0
    4.5463   -1.9753    2.0058 C   0  0  0  0  0  0  0  0  0  0  0  0
    3.7121   -1.9923    2.4611 H   0  0  0  0  0  0  0  0  0  0  0  0
    4.9207   -3.0898    1.2653 C   0  0  0  0  0  0  0  0  0  0  0  0
    4.3453   -3.8454    1.2145 H   0  0  0  0  0  0  0  0  0  0  0  0
    6.1418   -3.0920    0.6025 C   0  0  0  0  0  0  0  0  0  0  0  0
    6.4042   -3.8425    0.0830 H   0  0  0  0  0  0  0  0  0  0  0  0
    6.9697   -1.9890    0.7056 C   0  0  0  0  0  0  0  0  0  0  0  0
    7.8159   -1.9893    0.2732 H   0  0  0  0  0  0  0  0  0  0  0  0
    6.5660   -0.8764    1.4408 C   0  0  0  0  0  0  0  0  0  0  0  0
    7.1467   -0.1238    1.4849 H   0  0  0  0  0  0  0  0  0  0  0  0
    3.4048    0.9882    2.2843 C   0  0  0  0  0  0  0  0  0  0  0  0
    2.8794    0.1976    2.0045 H   0  0  0  0  0  0  0  0  0  0  0  0
    3.6297    1.5018    1.4675 H   0  0  0  0  0  0  0  0  0  0  0  0
    2.3643    2.0297    3.3569 P   0  0  0  0  0  0  0  0  0  0  0  0
    1.3833    3.1648    2.2816 C   0  0  0  0  0  0  0  0  0  0  0  0
    0.8428    3.7317    2.8869 H   0  0  0  0  0  0  0  0  0  0  0  0
    2.0327    3.7659    1.8371 H   0  0  0  0  0  0  0  0  0  0  0  0
    0.4326    2.6554    1.1863 C   0  0  0  0  0  0  0  0  0  0  0  0
   -0.1649    1.9583    1.5827 H   0  0  0  0  0  0  0  0  0  0  0  0
    1.1463    2.0553   -0.0121 C   0  0  0  0  0  0  0  0  0  0  0  0
    1.6326    1.2438    0.2785 H   0  0  0  0  0  0  0  0  0  0  0  0
    1.8164    2.7061   -0.3428 H   0  0  0  0  0  0  0  0  0  0  0  0
    0.2091    1.6857   -1.1609 C   0  0  0  0  0  0  0  0  0  0  0  0
    0.7436    1.3527   -1.9255 H   0  0  0  0  0  0  0  0  0  0  0  0
   -0.3954    0.9567   -0.8703 H   0  0  0  0  0  0  0  0  0  0  0  0
   -0.6151    2.8755   -1.6041 C   0  0  0  0  0  0  0  0  0  0  0  0
   -1.2546    2.5932   -2.3044 H   0  0  0  0  0  0  0  0  0  0  0  0
   -0.0189    3.5640   -1.9924 H   0  0  0  0  0  0  0  0  0  0  0  0
   -1.3773    3.4662   -0.4245 C   0  0  0  0  0  0  0  0  0  0  0  0
   -2.0468    2.8122   -0.1031 H   0  0  0  0  0  0  0  0  0  0  0  0
   -1.8593    4.2797   -0.7190 H   0  0  0  0  0  0  0  0  0  0  0  0
   -0.4270    3.8241    0.7164 C   0  0  0  0  0  0  0  0  0  0  0  0
    0.1669    4.5596    0.4191 H   0  0  0  0  0  0  0  0  0  0  0  0
   -0.9592    4.1581    1.4823 H   0  0  0  0  0  0  0  0  0  0  0  0
    1.1263    0.7618    3.9273 C   0  0  0  0  0  0  0  0  0  0  0  0
    0.6149    0.4839    3.1265 H   0  0  0  0  0  0  0  0  0  0  0  0
    1.6433   -0.0299    4.2218 H   0  0  0  0  0  0  0  0  0  0  0  0
    0.0923    1.0507    5.0346 C   0  0  0  0  0  0  0  0  0  0  0  0
    0.5622    1.5147    5.7858 H   0  0  0  0  0  0  0  0  0  0  0  0
   -1.0782    1.9359    4.5847 C   0  0  0  0  0  0  0  0  0  0  0  0
   -1.5680    1.4895    3.8483 H   0  0  0  0  0  0  0  0  0  0  0  0
   -0.7304    2.7975    4.2459 H   0  0  0  0  0  0  0  0  0  0  0  0
   -2.0356    2.1909    5.7577 C   0  0  0  0  0  0  0  0  0  0  0  0
   -1.5626    2.7013    6.4620 H   0  0  0  0  0  0  0  0  0  0  0  0
   -2.7998    2.7377    5.4457 H   0  0  0  0  0  0  0  0  0  0  0  0
   -2.5567    0.8887    6.3441 C   0  0  0  0  0  0  0  0  0  0  0  0
   -3.1109    1.0885    7.1395 H   0  0  0  0  0  0  0  0  0  0  0  0
   -3.1323    0.4376    5.6773 H   0  0  0  0  0  0  0  0  0  0  0  0
   -1.4304   -0.0423    6.7418 C   0  0  0  0  0  0  0  0  0  0  0  0
   -1.8068   -0.9089    7.0337 H   0  0  0  0  0  0  0  0  0  0  0  0
   -0.9330    0.3480    7.5037 H   0  0  0  0  0  0  0  0  0  0  0  0
   -0.4684   -0.2731    5.5702 C   0  0  0  0  0  0  0  0  0  0  0  0
   -0.9463   -0.7437    4.8418 H   0  0  0  0  0  0  0  0  0  0  0  0
    0.2790   -0.8485    5.8675 H   0  0  0  0  0  0  0  0  0  0  0  0
    4.5407   -0.0705    4.5352 C   0  0  0  0  0  0  0  0  0  0  0  0
    5.3108   -0.6225    4.8231 H   0  0  0  0  0  0  0  0  0  0  0  0
    3.7386   -0.6522    4.5325 H   0  0  0  0  0  0  0  0  0  0  0  0
    4.2897    1.2657    5.7512 P   0  0  0  0  0  0  0  0  0  0  0  0
    5.8772    1.3885    6.6843 C   0  0  0  0  0  0  0  0  0  0  0  0
    6.5047    1.9219    6.1339 H   0  0  0  0  0  0  0  0  0  0  0  0
    5.6986    1.9109    7.5064 H   0  0  0  0  0  0  0  0  0  0  0  0
    6.6180    0.0883    7.1087 C   0  0  0  0  0  0  0  0  0  0  0  0
    5.9849   -0.6752    6.9855 H   0  0  0  0  0  0  0  0  0  0  0  0
    7.0216    0.1239    8.5856 C   0  0  0  0  0  0  0  0  0  0  0  0
    7.6232    0.8949    8.7409 H   0  0  0  0  0  0  0  0  0  0  0  0
    6.2125    0.2533    9.1413 H   0  0  0  0  0  0  0  0  0  0  0  0
    7.7261   -1.1568    9.0114 C   0  0  0  0  0  0  0  0  0  0  0  0
    7.9861   -1.0886    9.9634 H   0  0  0  0  0  0  0  0  0  0  0  0
    7.1042   -1.9217    8.9164 H   0  0  0  0  0  0  0  0  0  0  0  0
    8.9602   -1.4044    8.1679 C   0  0  0  0  0  0  0  0  0  0  0  0
    9.3705   -2.2660    8.4276 H   0  0  0  0  0  0  0  0  0  0  0  0
    9.6225   -0.6875    8.3352 H   0  0  0  0  0  0  0  0  0  0  0  0
    8.6105   -1.4360    6.6829 C   0  0  0  0  0  0  0  0  0  0  0  0
    8.0588   -2.2355    6.4968 H   0  0  0  0  0  0  0  0  0  0  0  0
    9.4445   -1.5118    6.1540 H   0  0  0  0  0  0  0  0  0  0  0  0
    7.8484   -0.1832    6.2410 C   0  0  0  0  0  0  0  0  0  0  0  0
    8.4555    0.5974    6.2852 H   0  0  0  0  0  0  0  0  0  0  0  0
    7.5628   -0.2941    5.2997 H   0  0  0  0  0  0  0  0  0  0  0  0
    3.0809    0.7642    7.0431 C   0  0  0  0  0  0  0  0  0  0  0  0
    2.9325    1.5591    7.6149 H   0  0  0  0  0  0  0  0  0  0  0  0
    2.2252    0.5898    6.5758 H   0  0  0  0  0  0  0  0  0  0  0  0
    3.3122   -0.4210    7.9924 C   0  0  0  0  0  0  0  0  0  0  0  0
    4.1915   -0.2872    8.4477 H   0  0  0  0  0  0  0  0  0  0  0  0
    2.2148   -0.4292    9.0717 C   0  0  0  0  0  0  0  0  0  0  0  0
    2.2400    0.4280    9.5671 H   0  0  0  0  0  0  0  0  0  0  0  0
    1.3294   -0.5000    8.6338 H   0  0  0  0  0  0  0  0  0  0  0  0
    2.3737   -1.5816   10.0585 C   0  0  0  0  0  0  0  0  0  0  0  0
    3.2046   -1.4518   10.5821 H   0  0  0  0  0  0  0  0  0  0  0  0
    1.6109   -1.5814   10.6905 H   0  0  0  0  0  0  0  0  0  0  0  0
    2.4342   -2.9228    9.3395 C   0  0  0  0  0  0  0  0  0  0  0  0
    2.6051   -3.6432    9.9983 H   0  0  0  0  0  0  0  0  0  0  0  0
    1.5638   -3.1044    8.9056 H   0  0  0  0  0  0  0  0  0  0  0  0
    3.5353   -2.9228    8.2897 C   0  0  0  0  0  0  0  0  0  0  0  0
    3.5287   -3.7875    7.8063 H   0  0  0  0  0  0  0  0  0  0  0  0
    4.4136   -2.8273    8.7343 H   0  0  0  0  0  0  0  0  0  0  0  0
    3.3412   -1.7836    7.2948 C   0  0  0  0  0  0  0  0  0  0  0  0
    2.4933   -1.9182    6.8034 H   0  0  0  0  0  0  0  0  0  0  0  0
    4.0813   -1.7971    6.6360 H   0  0  0  0  0  0  0  0  0  0  0  0
    5.9616    1.6750    3.0315 C   0  0  0  0  0  0  0  0  0  0  0  0
    5.2899    3.3091    3.5305 P   0  0  0  0  0  0  0  0  0  0  0  0
    6.6783    4.2894    4.2634 C   0  0  0  0  0  0  0  0  0  0  0  0
    6.2907    5.1471    4.5713 H   0  0  0  0  0  0  0  0  0  0  0  0
    6.9734    3.8039    5.0734 H   0  0  0  0  0  0  0  0  0  0  0  0
    7.9535    4.6372    3.4613 C   0  0  0  0  0  0  0  0  0  0  0  0
    7.6798    4.9314    2.5468 H   0  0  0  0  0  0  0  0  0  0  0  0
    8.9283    3.4724    3.3194 C   0  0  0  0  0  0  0  0  0  0  0  0
    8.4995    2.7535    2.7891 H   0  0  0  0  0  0  0  0  0  0  0  0
    9.1297    3.1067    4.2178 H   0  0  0  0  0  0  0  0  0  0  0  0
   10.2376    3.8824    2.6405 C   0  0  0  0  0  0  0  0  0  0  0  0
   10.8583    3.1116    2.6365 H   0  0  0  0  0  0  0  0  0  0  0  0
   10.0535    4.1285    1.7005 H   0  0  0  0  0  0  0  0  0  0  0  0
   10.9052    5.0592    3.3461 C   0  0  0  0  0  0  0  0  0  0  0  0
   11.1918    4.7804    4.2513 H   0  0  0  0  0  0  0  0  0  0  0  0
   11.7096    5.3345    2.8400 H   0  0  0  0  0  0  0  0  0  0  0  0
    9.9521    6.2291    3.4586 C   0  0  0  0  0  0  0  0  0  0  0  0
    9.7437    6.5732    2.5535 H   0  0  0  0  0  0  0  0  0  0  0  0
   10.3827    6.9581    3.9715 H   0  0  0  0  0  0  0  0  0  0  0  0
    8.6576    5.8114    4.1562 C   0  0  0  0  0  0  0  0  0  0  0  0
    8.0429    6.5866    4.1830 H   0  0  0  0  0  0  0  0  0  0  0  0
    8.8641    5.5562    5.0895 H   0  0  0  0  0  0  0  0  0  0  0  0
    5.0482    4.0496    1.8451 C   0  0  0  0  0  0  0  0  0  0  0  0
    5.9484    4.1557    1.4461 H   0  0  0  0  0  0  0  0  0  0  0  0
    4.5747    3.3713    1.2988 H   0  0  0  0  0  0  0  0  0  0  0  0
    4.3125    5.3778    1.6389 C   0  0  0  0  0  0  0  0  0  0  0  0
    3.4207    5.3112    2.0875 H   0  0  0  0  0  0  0  0  0  0  0  0
    4.0748    5.5424    0.1312 C   0  0  0  0  0  0  0  0  0  0  0  0
    4.9461    5.5038   -0.3374 H   0  0  0  0  0  0  0  0  0  0  0  0
    3.5243    4.7852   -0.1915 H   0  0  0  0  0  0  0  0  0  0  0  0
    3.3732    6.8546   -0.2290 C   0  0  0  0  0  0  0  0  0  0  0  0
    3.3020    6.9327   -1.2131 H   0  0  0  0  0  0  0  0  0  0  0  0
    2.4576    6.8561    0.1473 H   0  0  0  0  0  0  0  0  0  0  0  0
    4.1563    8.0380    0.3240 C   0  0  0  0  0  0  0  0  0  0  0  0
    5.0509    8.0766   -0.0991 H   0  0  0  0  0  0  0  0  0  0  0  0
    3.6789    8.8811    0.1178 H   0  0  0  0  0  0  0  0  0  0  0  0
    4.3033    7.8850    1.8304 C   0  0  0  0  0  0  0  0  0  0  0  0
    3.4056    7.8832    2.2482 H   0  0  0  0  0  0  0  0  0  0  0  0
    4.8050    8.6601    2.1893 H   0  0  0  0  0  0  0  0  0  0  0  0
    5.0347    6.5955    2.2013 C   0  0  0  0  0  0  0  0  0  0  0  0
    5.9585    6.6267    1.8438 H   0  0  0  0  0  0  0  0  0  0  0  0
    5.0911    6.5198    3.1868 H   0  0  0  0  0  0  0  0  0  0  0  0
  1  2  1  0  0  0  0
  2153  3  0  0  0  0
  3  1  1  0  0  0  0
  4  3  8  0  0  0  0
  5  4  1  0  0  0  0
  6  5  1  0  0  0  0
  7  5  1  0  0  0  0
  8  5  1  0  0  0  0
  9  1  1  0  0  0  0
 10 11  1  0  0  0  0
 11 12  4  0  0  0  0
 12 13  1  0  0  0  0
 14 12  4  0  0  0  0
 15 14  1  0  0  0  0
 16 14  4  0  0  0  0
 17 16  1  0  0  0  0
 18 16  4  0  0  0  0
 19 18  1  0  0  0  0
 20 11  4  0  0  0  0
 21 20  1  0  0  0  0
 22 10  1  0  0  0  0
 23 22  1  0  0  0  0
 24 22  1  0  0  0  0
 25  1  1  0  0  0  0
 26 25  1  0  0  0  0
 27 26  1  0  0  0  0
 28 26  1  0  0  0  0
 29 26  1  0  0  0  0
 30 29  1  0  0  0  0
 31 29  1  0  0  0  0
 32 31  1  0  0  0  0
 33 31  1  0  0  0  0
 34 31  1  0  0  0  0
 35 34  1  0  0  0  0
 36 34  1  0  0  0  0
 37 34  1  0  0  0  0
 38 37  1  0  0  0  0
 39 37  1  0  0  0  0
 40 37  1  0  0  0  0
 41 40  1  0  0  0  0
 42 40  1  0  0  0  0
 43 29  1  0  0  0  0
 44 43  1  0  0  0  0
 45 43  1  0  0  0  0
 46 25  1  0  0  0  0
 47 46  1  0  0  0  0
 48 46  1  0  0  0  0
 49 46  1  0  0  0  0
 50 49  1  0  0  0  0
 51 49  1  0  0  0  0
 52 51  1  0  0  0  0
 53 51  1  0  0  0  0
 54 51  1  0  0  0  0
 55 54  1  0  0  0  0
 56 54  1  0  0  0  0
 57 54  1  0  0  0  0
 58 57  1  0  0  0  0
 59 57  1  0  0  0  0
 60 57  1  0  0  0  0
 61 60  1  0  0  0  0
 62 60  1  0  0  0  0
 63 49  1  0  0  0  0
 64 63  1  0  0  0  0
 65 63  1  0  0  0  0
 66 10  1  0  0  0  0
 67 66  1  0  0  0  0
 68 66  1  0  0  0  0
 69  1  1  0  0  0  0
 70 69  1  0  0  0  0
 71 70  1  0  0  0  0
 72 70  1  0  0  0  0
 73 70  1  0  0  0  0
 74 73  1  0  0  0  0
 75 73  1  0  0  0  0
 76 75  1  0  0  0  0
 77 75  1  0  0  0  0
 78 75  1  0  0  0  0
 79 78  1  0  0  0  0
 80 78  1  0  0  0  0
 81 78  1  0  0  0  0
 82 81  1  0  0  0  0
 83 81  1  0  0  0  0
 84 81  1  0  0  0  0
 85 84  1  0  0  0  0
 86 84  1  0  0  0  0
 87 73  1  0  0  0  0
 88 87  1  0  0  0  0
 89 87  1  0  0  0  0
 90 69  1  0  0  0  0
 91 90  1  0  0  0  0
 92 90  1  0  0  0  0
 93 90  1  0  0  0  0
 94 93  1  0  0  0  0
 95 93  1  0  0  0  0
 96 95  1  0  0  0  0
 97 95  1  0  0  0  0
 98 95  1  0  0  0  0
 99 98  1  0  0  0  0
100 98  1  0  0  0  0
101 98  1  0  0  0  0
102101  1  0  0  0  0
103101  1  0  0  0  0
104101  1  0  0  0  0
105104  1  0  0  0  0
106104  1  0  0  0  0
107 93  1  0  0  0  0
108107  1  0  0  0  0
109107  1  0  0  0  0
110 10  1  0  0  0  0
111  1  1  0  0  0  0
112111  1  0  0  0  0
113112  1  0  0  0  0
114112  1  0  0  0  0
115112  1  0  0  0  0
116115  1  0  0  0  0
117115  1  0  0  0  0
118117  1  0  0  0  0
119117  1  0  0  0  0
120117  1  0  0  0  0
121120  1  0  0  0  0
122120  1  0  0  0  0
123120  1  0  0  0  0
124123  1  0  0  0  0
125123  1  0  0  0  0
126123  1  0  0  0  0
127126  1  0  0  0  0
128126  1  0  0  0  0
129115  1  0  0  0  0
130129  1  0  0  0  0
131129  1  0  0  0  0
132111  1  0  0  0  0
133132  1  0  0  0  0
134132  1  0  0  0  0
135132  1  0  0  0  0
136135  1  0  0  0  0
137135  1  0  0  0  0
138137  1  0  0  0  0
139137  1  0  0  0  0
140137  1  0  0  0  0
141140  1  0  0  0  0
142140  1  0  0  0  0
143140  1  0  0  0  0
144143  1  0  0  0  0
145143  1  0  0  0  0
146143  1  0  0  0  0
147146  1  0  0  0  0
148146  1  0  0  0  0
149135  1  0  0  0  0
150149  1  0  0  0  0
151149  1  0  0  0  0
152153  1  0  0  0  0
154152  1  0  0  0  0
155154  8  0  0  0  0
156155  1  0  0  0  0
157156  1  0  0  0  0
158156  1  0  0  0  0
159156  1  0  0  0  0
160152  1  0  0  0  0
161162  1  0  0  0  0
162163  4  0  0  0  0
163164  1  0  0  0  0
165163  4  0  0  0  0
166165  1  0  0  0  0
167165  4  0  0  0  0
168167  1  0  0  0  0
169167  4  0  0  0  0
170169  1  0  0  0  0
171162  4  0  0  0  0
172171  1  0  0  0  0
173161  1  0  0  0  0
174173  1  0  0  0  0
175173  1  0  0  0  0
176152  1  0  0  0  0
177176  1  0  0  0  0
178177  1  0  0  0  0
179177  1  0  0  0  0
180177  1  0  0  0  0
181180  1  0  0  0  0
182180  1  0  0  0  0
183182  1  0  0  0  0
184182  1  0  0  0  0
185182  1  0  0  0  0
186185  1  0  0  0  0
187185  1  0  0  0  0
188185  1  0  0  0  0
189188  1  0  0  0  0
190188  1  0  0  0  0
191188  1  0  0  0  0
192191  1  0  0  0  0
193191  1  0  0  0  0
194180  1  0  0  0  0
195194  1  0  0  0  0
196194  1  0  0  0  0
197176  1  0  0  0  0
198197  1  0  0  0  0
199197  1  0  0  0  0
200197  1  0  0  0  0
201200  1  0  0  0  0
202200  1  0  0  0  0
203202  1  0  0  0  0
204202  1  0  0  0  0
205202  1  0  0  0  0
206205  1  0  0  0  0
207205  1  0  0  0  0
208205  1  0  0  0  0
209208  1  0  0  0  0
210208  1  0  0  0  0
211208  1  0  0  0  0
212211  1  0  0  0  0
213211  1  0  0  0  0
214200  1  0  0  0  0
215214  1  0  0  0  0
216214  1  0  0  0  0
217161  1  0  0  0  0
218217  1  0  0  0  0
219217  1  0  0  0  0
220152  1  0  0  0  0
221220  1  0  0  0  0
222221  1  0  0  0  0
223221  1  0  0  0  0
224221  1  0  0  0  0
225224  1  0  0  0  0
226224  1  0  0  0  0
227226  1  0  0  0  0
228226  1  0  0  0  0
229226  1  0  0  0  0
230229  1  0  0  0  0
231229  1  0  0  0  0
232229  1  0  0  0  0
233232  1  0  0  0  0
234232  1  0  0  0  0
235232  1  0  0  0  0
236235  1  0  0  0  0
237235  1  0  0  0  0
238224  1  0  0  0  0
239238  1  0  0  0  0
240238  1  0  0  0  0
241220  1  0  0  0  0
242241  1  0  0  0  0
243241  1  0  0  0  0
244241  1  0  0  0  0
245244  1  0  0  0  0
246244  1  0  0  0  0
247246  1  0  0  0  0
248246  1  0  0  0  0
249246  1  0  0  0  0
250249  1  0  0  0  0
251249  1  0  0  0  0
252249  1  0  0  0  0
253252  1  0  0  0  0
254252  1  0  0  0  0
255252  1  0  0  0  0
256255  1  0  0  0  0
257255  1  0  0  0  0
258244  1  0  0  0  0
259258  1  0  0  0  0
260258  1  0  0  0  0
261161  1  0  0  0  0
262152  1  0  0  0  0
263262  1  0  0  0  0
264263  1  0  0  0  0
265263  1  0  0  0  0
266263  1  0  0  0  0
267266  1  0  0  0  0
268266  1  0  0  0  0
269268  1  0  0  0  0
270268  1  0  0  0  0
271268  1  0  0  0  0
272271  1  0  0  0  0
273271  1  0  0  0  0
274271  1  0  0  0  0
275274  1  0  0  0  0
276274  1  0  0  0  0
277274  1  0  0  0  0
278277  1  0  0  0  0
279277  1  0  0  0  0
280266  1  0  0  0  0
281280  1  0  0  0  0
282280  1  0  0  0  0
283262  1  0  0  0  0
284283  1  0  0  0  0
285283  1  0  0  0  0
286283  1  0  0  0  0
287286  1  0  0  0  0
288286  1  0  0  0  0
289288  1  0  0  0  0
290288  1  0  0  0  0
291288  1  0  0  0  0
292291  1  0  0  0  0
293291  1  0  0  0  0
294291  1  0  0  0  0
295294  1  0  0  0  0
296294  1  0  0  0  0
297294  1  0  0  0  0
298297  1  0  0  0  0
299297  1  0  0  0  0
300286  1  0  0  0  0
301300  1  0  0  0  0
302300  1  0  0  0  0
  4  9  8  0  0  0  0
 18 20  4  0  0  0  0
 22 25  1  0  0  0  0
 40 43  1  0  0  0  0
 60 63  1  0  0  0  0
 66 69  1  0  0  0  0
 84 87  1  0  0  0  0
104107  1  0  0  0  0
110111  1  0  0  0  0
126129  1  0  0  0  0
146149  1  0  0  0  0
155160  8  0  0  0  0
169171  4  0  0  0  0
173176  1  0  0  0  0
191194  1  0  0  0  0
211214  1  0  0  0  0
217220  1  0  0  0  0
235238  1  0  0  0  0
255258  1  0  0  0  0
261262  1  0  0  0  0
277280  1  0  0  0  0
297300  1  0  0  0  0
M  CHG  4   1   1  10  -1 152   1 161  -1
M  END
$$$$
RANBEP

From CSD data. Using bond type 'Any'. No disordered atoms. Largest molecule.
306325  0  0  0  0  0  0  0  0999 V2000
    4.7879    8.7658    6.1182 Fe  0  3  0  0  0  0  0  0  0  0  0  0
    3.7302    7.5745    7.4567 O   0  0  0  0  0  0  0  0  0  0  0  0
    2.6501    8.0838    7.0301 C   0  0  0  0  0  0  0  0  0  0  0  0
    1.3236    7.5567    7.5003 C   0  0  0  0  0  0  0  0  0  0  0  0
    0.6633    7.6495    6.7811 H   0  0  0  0  0  0  0  0  0  0  0  0
    1.0261    8.0640    8.2817 H   0  0  0  0  0  0  0  0  0  0  0  0
    1.4149    6.6111    7.7400 H   0  0  0  0  0  0  0  0  0  0  0  0
    2.7003    9.0570    6.2051 O   0  0  0  0  0  0  0  0  0  0  0  0
    4.9588   10.1151    7.4473 N   0  0  0  0  0  0  0  0  0  0  0  0
    7.1179    8.0384    3.4902 B   0  5  0  0  0  0  0  0  0  0  0  0
    8.2629    7.7956    2.3382 C   0  0  0  0  0  0  0  0  0  0  0  0
    9.0653    8.7984    1.8089 C   0  0  0  0  0  0  0  0  0  0  0  0
    8.9477    9.6847    2.1265 H   0  0  0  0  0  0  0  0  0  0  0  0
   10.0234    8.5654    0.8531 C   0  0  0  0  0  0  0  0  0  0  0  0
   10.5206    9.2958    0.5044 H   0  0  0  0  0  0  0  0  0  0  0  0
   10.2799    7.2843    0.3830 C   0  0  0  0  0  0  0  0  0  0  0  0
   10.9798    7.1283   -0.2397 H   0  0  0  0  0  0  0  0  0  0  0  0
    9.4895    6.2380    0.8406 C   0  0  0  0  0  0  0  0  0  0  0  0
    9.6289    5.3517    0.5293 H   0  0  0  0  0  0  0  0  0  0  0  0
    8.4807    6.5124    1.7747 C   0  0  0  0  0  0  0  0  0  0  0  0
    7.9118    5.8018    2.0455 H   0  0  0  0  0  0  0  0  0  0  0  0
    7.9171    8.1568    4.9379 C   0  0  0  0  0  0  0  0  0  0  0  0
    8.4108    9.0155    4.9535 H   0  0  0  0  0  0  0  0  0  0  0  0
    8.5872    7.4304    4.9846 H   0  0  0  0  0  0  0  0  0  0  0  0
    6.8740    8.0731    6.4274 P   0  0  0  0  0  0  0  0  0  0  0  0
    7.7598    9.0392    7.7306 C   0  0  0  0  0  0  0  0  0  0  0  0
    7.6685    9.9966    7.4940 H   0  0  0  0  0  0  0  0  0  0  0  0
    7.2645    8.9070    8.5775 H   0  0  0  0  0  0  0  0  0  0  0  0
    9.2500    8.7885    8.0358 C   0  0  0  0  0  0  0  0  0  0  0  0
    9.6826    8.3621    7.2418 H   0  0  0  0  0  0  0  0  0  0  0  0
    9.4601    7.9022    9.2562 C   0  0  0  0  0  0  0  0  0  0  0  0
    8.9279    8.2614   10.0097 H   0  0  0  0  0  0  0  0  0  0  0  0
    9.1259    6.9941    9.0539 H   0  0  0  0  0  0  0  0  0  0  0  0
   10.8849    7.8114    9.6734 C   0  0  0  0  0  0  0  0  0  0  0  0
   11.4019    7.3534    8.9667 H   0  0  0  0  0  0  0  0  0  0  0  0
   10.9458    7.2626   10.4954 H   0  0  0  0  0  0  0  0  0  0  0  0
   11.4989    9.1774    9.9381 C   0  0  0  0  0  0  0  0  0  0  0  0
   11.0520    9.5959   10.7164 H   0  0  0  0  0  0  0  0  0  0  0  0
   12.4581    9.0708   10.1560 H   0  0  0  0  0  0  0  0  0  0  0  0
   11.3505   10.0677    8.7363 C   0  0  0  0  0  0  0  0  0  0  0  0
   11.6901   10.9718    8.9511 H   0  0  0  0  0  0  0  0  0  0  0  0
   11.8918    9.7065    7.9891 H   0  0  0  0  0  0  0  0  0  0  0  0
    9.9187   10.1664    8.3066 C   0  0  0  0  0  0  0  0  0  0  0  0
    9.8687   10.7112    7.4816 H   0  0  0  0  0  0  0  0  0  0  0  0
    9.4054   10.6362    9.0103 H   0  0  0  0  0  0  0  0  0  0  0  0
    7.1338    6.3466    6.9118 C   0  0  0  0  0  0  0  0  0  0  0  0
    7.1130    5.8057    6.0836 H   0  0  0  0  0  0  0  0  0  0  0  0
    8.0527    6.2815    7.2730 H   0  0  0  0  0  0  0  0  0  0  0  0
    6.1856    5.6438    7.9424 C   0  0  0  0  0  0  0  0  0  0  0  0
    5.2481    5.7406    7.6061 H   0  0  0  0  0  0  0  0  0  0  0  0
    6.2291    6.1670    9.3403 C   0  0  0  0  0  0  0  0  0  0  0  0
    5.9848    7.1283    9.3403 H   0  0  0  0  0  0  0  0  0  0  0  0
    7.1480    6.0841    9.6952 H   0  0  0  0  0  0  0  0  0  0  0  0
    5.2590    5.3951   10.2463 C   0  0  0  0  0  0  0  0  0  0  0  0
    5.3058    5.7583   11.1648 H   0  0  0  0  0  0  0  0  0  0  0  0
    4.3342    5.5155    9.9163 H   0  0  0  0  0  0  0  0  0  0  0  0
    5.5995    3.9047   10.2712 C   0  0  0  0  0  0  0  0  0  0  0  0
    6.4865    3.7744   10.6915 H   0  0  0  0  0  0  0  0  0  0  0  0
    4.9281    3.4210   10.8161 H   0  0  0  0  0  0  0  0  0  0  0  0
    5.6178    3.3480    8.8857 C   0  0  0  0  0  0  0  0  0  0  0  0
    4.6953    3.3460    8.5246 H   0  0  0  0  0  0  0  0  0  0  0  0
    5.9345    2.4103    8.9169 H   0  0  0  0  0  0  0  0  0  0  0  0
    6.5263    4.1574    7.9486 C   0  0  0  0  0  0  0  0  0  0  0  0
    7.4682    4.0409    8.2319 H   0  0  0  0  0  0  0  0  0  0  0  0
    6.4395    3.8001    7.0270 H   0  0  0  0  0  0  0  0  0  0  0  0
    6.0385    6.7829    3.5182 C   0  0  0  0  0  0  0  0  0  0  0  0
    6.4699    5.9932    3.9323 H   0  0  0  0  0  0  0  0  0  0  0  0
    5.7950    6.5420    2.5904 H   0  0  0  0  0  0  0  0  0  0  0  0
    4.5224    7.1915    4.4463 P   0  0  0  0  0  0  0  0  0  0  0  0
    3.9239    5.6044    5.1683 C   0  0  0  0  0  0  0  0  0  0  0  0
    4.6479    5.2826    5.7630 H   0  0  0  0  0  0  0  0  0  0  0  0
    3.1644    5.8393    5.7567 H   0  0  0  0  0  0  0  0  0  0  0  0
    3.4673    4.3725    4.3495 C   0  0  0  0  0  0  0  0  0  0  0  0
    2.8102    4.6825    3.6614 H   0  0  0  0  0  0  0  0  0  0  0  0
    4.5912    3.6974    3.6458 C   0  0  0  0  0  0  0  0  0  0  0  0
    5.3182    3.5119    4.2903 H   0  0  0  0  0  0  0  0  0  0  0  0
    4.9477    4.2995    2.9453 H   0  0  0  0  0  0  0  0  0  0  0  0
    4.1375    2.4044    3.0138 C   0  0  0  0  0  0  0  0  0  0  0  0
    4.9128    1.9563    2.5904 H   0  0  0  0  0  0  0  0  0  0  0  0
    3.4733    2.5998    2.3071 H   0  0  0  0  0  0  0  0  0  0  0  0
    3.5099    1.4588    4.0568 C   0  0  0  0  0  0  0  0  0  0  0  0
    3.2283    0.6159    3.6178 H   0  0  0  0  0  0  0  0  0  0  0  0
    4.1741    1.2397    4.7542 H   0  0  0  0  0  0  0  0  0  0  0  0
    2.3161    2.1399    4.6764 C   0  0  0  0  0  0  0  0  0  0  0  0
    1.6354    2.3195    3.9821 H   0  0  0  0  0  0  0  0  0  0  0  0
    1.9107    1.5477    5.3582 H   0  0  0  0  0  0  0  0  0  0  0  0
    2.7370    3.4230    5.3115 C   0  0  0  0  0  0  0  0  0  0  0  0
    3.3311    3.2217    6.0743 H   0  0  0  0  0  0  0  0  0  0  0  0
    1.9353    3.8830    5.6664 H   0  0  0  0  0  0  0  0  0  0  0  0
    3.3366    7.5251    3.0636 C   0  0  0  0  0  0  0  0  0  0  0  0
    3.7903    8.1469    2.4440 H   0  0  0  0  0  0  0  0  0  0  0  0
    3.2216    6.6723    2.5748 H   0  0  0  0  0  0  0  0  0  0  0  0
    1.9095    8.0976    3.3096 C   0  0  0  0  0  0  0  0  0  0  0  0
    1.9782    8.8477    3.9696 H   0  0  0  0  0  0  0  0  0  0  0  0
    0.9480    7.0415    3.8731 C   0  0  0  0  0  0  0  0  0  0  0  0
    0.8680    6.2913    3.2317 H   0  0  0  0  0  0  0  0  0  0  0  0
    1.3093    6.6842    4.7231 H   0  0  0  0  0  0  0  0  0  0  0  0
   -0.4263    7.6515    4.1191 C   0  0  0  0  0  0  0  0  0  0  0  0
   -0.3561    8.3542    4.8134 H   0  0  0  0  0  0  0  0  0  0  0  0
   -1.0417    6.9526    4.4522 H   0  0  0  0  0  0  0  0  0  0  0  0
   -0.9890    8.2614    2.8301 C   0  0  0  0  0  0  0  0  0  0  0  0
   -1.1580    7.5409    2.1701 H   0  0  0  0  0  0  0  0  0  0  0  0
   -1.8503    8.7056    3.0231 H   0  0  0  0  0  0  0  0  0  0  0  0
   -0.0289    9.2623    2.2386 C   0  0  0  0  0  0  0  0  0  0  0  0
    0.0534   10.0361    2.8488 H   0  0  0  0  0  0  0  0  0  0  0  0
   -0.3882    9.5900    1.3761 H   0  0  0  0  0  0  0  0  0  0  0  0
    1.3505    8.6464    2.0113 C   0  0  0  0  0  0  0  0  0  0  0  0
    1.2837    7.9180    1.3450 H   0  0  0  0  0  0  0  0  0  0  0  0
    1.9645    9.3353    1.6532 H   0  0  0  0  0  0  0  0  0  0  0  0
    6.3300    9.4419    3.1477 C   0  0  0  0  0  0  0  0  0  0  0  0
    5.6771    9.2643    2.4222 H   0  0  0  0  0  0  0  0  0  0  0  0
    6.9895   10.0934    2.7990 H   0  0  0  0  0  0  0  0  0  0  0  0
    5.4488   10.2077    4.5360 P   0  0  0  0  0  0  0  0  0  0  0  0
    3.9196   11.0310    3.9541 C   0  0  0  0  0  0  0  0  0  0  0  0
    3.3209   10.3085    3.6396 H   0  0  0  0  0  0  0  0  0  0  0  0
    3.4906   11.4180    4.7573 H   0  0  0  0  0  0  0  0  0  0  0  0
    3.8693   12.1010    2.9017 C   0  0  0  0  0  0  0  0  0  0  0  0
    4.4242   12.8669    3.2255 H   0  0  0  0  0  0  0  0  0  0  0  0
    4.3778   11.7180    1.5256 C   0  0  0  0  0  0  0  0  0  0  0  0
    3.9011   10.9067    1.2205 H   0  0  0  0  0  0  0  0  0  0  0  0
    5.3411   11.4969    1.5910 H   0  0  0  0  0  0  0  0  0  0  0  0
    4.1924   12.8215    0.4888 C   0  0  0  0  0  0  0  0  0  0  0  0
    4.4605   12.4840   -0.4016 H   0  0  0  0  0  0  0  0  0  0  0  0
    4.7760   13.5875    0.7161 H   0  0  0  0  0  0  0  0  0  0  0  0
    2.7404   13.2894    0.4390 C   0  0  0  0  0  0  0  0  0  0  0  0
    2.6710   14.0652   -0.1744 H   0  0  0  0  0  0  0  0  0  0  0  0
    2.1771   12.5629    0.0716 H   0  0  0  0  0  0  0  0  0  0  0  0
    2.2386   13.6664    1.7342 C   0  0  0  0  0  0  0  0  0  0  0  0
    1.2755   13.8836    1.6532 H   0  0  0  0  0  0  0  0  0  0  0  0
    2.7064   14.4876    2.0300 H   0  0  0  0  0  0  0  0  0  0  0  0
    2.4052   12.5965    2.8114 C   0  0  0  0  0  0  0  0  0  0  0  0
    1.8140   11.8286    2.6028 H   0  0  0  0  0  0  0  0  0  0  0  0
    2.1318   12.9656    3.6863 H   0  0  0  0  0  0  0  0  0  0  0  0
    6.4694   11.6075    5.0967 C   0  0  0  0  0  0  0  0  0  0  0  0
    5.8702   12.2431    5.5637 H   0  0  0  0  0  0  0  0  0  0  0  0
    7.1048   11.2600    5.7723 H   0  0  0  0  0  0  0  0  0  0  0  0
    7.2847   12.4070    4.0568 C   0  0  0  0  0  0  0  0  0  0  0  0
    6.9332   12.1405    3.1601 H   0  0  0  0  0  0  0  0  0  0  0  0
    7.1432   13.9546    4.1346 C   0  0  0  0  0  0  0  0  0  0  0  0
    6.1869   14.2053    4.0910 H   0  0  0  0  0  0  0  0  0  0  0  0
    7.5098   14.2804    4.9939 H   0  0  0  0  0  0  0  0  0  0  0  0
    7.8870   14.5863    2.9951 C   0  0  0  0  0  0  0  0  0  0  0  0
    7.4601   14.3139    2.1452 H   0  0  0  0  0  0  0  0  0  0  0  0
    7.8094   15.5714    3.0698 H   0  0  0  0  0  0  0  0  0  0  0  0
    9.3295   14.2172    2.9484 C   0  0  0  0  0  0  0  0  0  0  0  0
    9.7901   14.6061    3.7361 H   0  0  0  0  0  0  0  0  0  0  0  0
    9.7404   14.6041    2.1358 H   0  0  0  0  0  0  0  0  0  0  0  0
    9.5391   12.6912    2.9453 C   0  0  0  0  0  0  0  0  0  0  0  0
    9.2456   12.3201    2.0735 H   0  0  0  0  0  0  0  0  0  0  0  0
   10.5017   12.4879    3.0543 H   0  0  0  0  0  0  0  0  0  0  0  0
    8.7481   12.0319    4.0693 C   0  0  0  0  0  0  0  0  0  0  0  0
    8.8277   11.0488    3.9883 H   0  0  0  0  0  0  0  0  0  0  0  0
    9.1420   12.2984    4.9379 H   0  0  0  0  0  0  0  0  0  0  0  0
    4.1489   12.1582    9.3447 Fe  0  3  0  0  0  0  0  0  0  0  0  0
    5.1836   13.3703    8.0327 O   0  0  0  0  0  0  0  0  0  0  0  0
    6.2809   12.8788    8.4063 C   0  0  0  0  0  0  0  0  0  0  0  0
    7.5784   13.4118    7.9268 C   0  0  0  0  0  0  0  0  0  0  0  0
    7.4171   14.0849    7.2325 H   0  0  0  0  0  0  0  0  0  0  0  0
    8.1142   12.6794    7.5532 H   0  0  0  0  0  0  0  0  0  0  0  0
    8.0596   13.8224    8.6740 H   0  0  0  0  0  0  0  0  0  0  0  0
    6.2416   11.8937    9.2282 O   0  0  0  0  0  0  0  0  0  0  0  0
    4.0081   10.8040    8.0233 N   0  0  0  0  0  0  0  0  0  0  0  0
    1.8161   12.7623   11.9898 B   0  5  0  0  0  0  0  0  0  0  0  0
    0.6816   12.9933   13.1698 C   0  0  0  0  0  0  0  0  0  0  0  0
    0.3319   14.2310   13.6524 C   0  0  0  0  0  0  0  0  0  0  0  0
    0.7979   14.9871   13.3161 H   0  0  0  0  0  0  0  0  0  0  0  0
   -0.6441   14.4481   14.5864 C   0  0  0  0  0  0  0  0  0  0  0  0
   -0.8144   15.3305   14.8947 H   0  0  0  0  0  0  0  0  0  0  0  0
   -1.3747   13.4118   15.0721 C   0  0  0  0  0  0  0  0  0  0  0  0
   -2.0710   13.5736   15.6979 H   0  0  0  0  0  0  0  0  0  0  0  0
   -1.0970   12.0990   14.6487 C   0  0  0  0  0  0  0  0  0  0  0  0
   -1.5831   11.3568   14.9849 H   0  0  0  0  0  0  0  0  0  0  0  0
   -0.0736   11.9391   13.7147 C   0  0  0  0  0  0  0  0  0  0  0  0
    0.1274   11.0567   13.4251 H   0  0  0  0  0  0  0  0  0  0  0  0
    1.0132   12.6735   10.5452 C   0  0  0  0  0  0  0  0  0  0  0  0
    0.3300   13.3900   10.5234 H   0  0  0  0  0  0  0  0  0  0  0  0
    0.5362   11.8069   10.5078 H   0  0  0  0  0  0  0  0  0  0  0  0
    2.0509   12.8231    9.0638 P   0  0  0  0  0  0  0  0  0  0  0  0
    1.7621   14.5745    8.5526 C   0  0  0  0  0  0  0  0  0  0  0  0
    0.8434   14.6179    8.1821 H   0  0  0  0  0  0  0  0  0  0  0  0
    1.7629   15.1193    9.3777 H   0  0  0  0  0  0  0  0  0  0  0  0
    2.6753   15.2812    7.5532 C   0  0  0  0  0  0  0  0  0  0  0  0
    3.6031   15.2575    7.9237 H   0  0  0  0  0  0  0  0  0  0  0  0
    2.7226   14.6495    6.1770 C   0  0  0  0  0  0  0  0  0  0  0  0
    1.8171   14.6653    5.7754 H   0  0  0  0  0  0  0  0  0  0  0  0
    3.0058   13.7039    6.2580 H   0  0  0  0  0  0  0  0  0  0  0  0
    3.6964   15.3996    5.2710 C   0  0  0  0  0  0  0  0  0  0  0  0
    3.6767   15.0029    4.3650 H   0  0  0  0  0  0  0  0  0  0  0  0
    4.6153   15.3088    5.6260 H   0  0  0  0  0  0  0  0  0  0  0  0
    3.3257   16.8841    5.1870 C   0  0  0  0  0  0  0  0  0  0  0  0
    4.0115   17.3638    4.6577 H   0  0  0  0  0  0  0  0  0  0  0  0
    2.4576   16.9789    4.7200 H   0  0  0  0  0  0  0  0  0  0  0  0
    3.2239   17.5119    6.5507 C   0  0  0  0  0  0  0  0  0  0  0  0
    4.1181   17.5178    6.9772 H   0  0  0  0  0  0  0  0  0  0  0  0
    2.9226   18.4496    6.4604 H   0  0  0  0  0  0  0  0  0  0  0  0
    2.2633   16.7657    7.4286 C   0  0  0  0  0  0  0  0  0  0  0  0
    1.3520   16.8249    7.0488 H   0  0  0  0  0  0  0  0  0  0  0  0
    2.2484   17.1802    8.3284 H   0  0  0  0  0  0  0  0  0  0  0  0
    1.1576   11.8444    7.7587 C   0  0  0  0  0  0  0  0  0  0  0  0
    1.6312   11.9964    6.9025 H   0  0  0  0  0  0  0  0  0  0  0  0
    1.2710   10.8850    7.9828 H   0  0  0  0  0  0  0  0  0  0  0  0
   -0.3515   12.0793    7.5003 C   0  0  0  0  0  0  0  0  0  0  0  0
   -0.7384   12.5471    8.2911 H   0  0  0  0  0  0  0  0  0  0  0  0
   -1.0599   10.7310    7.3352 C   0  0  0  0  0  0  0  0  0  0  0  0
   -0.5707   10.1980    6.6596 H   0  0  0  0  0  0  0  0  0  0  0  0
   -1.0050   10.2414    8.1977 H   0  0  0  0  0  0  0  0  0  0  0  0
   -2.4849   10.8100    6.9305 C   0  0  0  0  0  0  0  0  0  0  0  0
   -3.0131   11.2265    7.6590 H   0  0  0  0  0  0  0  0  0  0  0  0
   -2.8381    9.8979    6.7779 H   0  0  0  0  0  0  0  0  0  0  0  0
   -2.6285   11.6391    5.6509 C   0  0  0  0  0  0  0  0  0  0  0  0
   -2.1529   11.1949    4.9068 H   0  0  0  0  0  0  0  0  0  0  0  0
   -3.5855   11.7180    5.4080 H   0  0  0  0  0  0  0  0  0  0  0  0
   -2.0396   13.0170    5.8937 C   0  0  0  0  0  0  0  0  0  0  0  0
   -2.1371   13.5657    5.0749 H   0  0  0  0  0  0  0  0  0  0  0  0
   -2.5387   13.4651    6.6223 H   0  0  0  0  0  0  0  0  0  0  0  0
   -0.6123   12.9301    6.2580 C   0  0  0  0  0  0  0  0  0  0  0  0
   -0.2665   13.8421    6.4199 H   0  0  0  0  0  0  0  0  0  0  0  0
   -0.1109   12.5471    5.4952 H   0  0  0  0  0  0  0  0  0  0  0  0
    2.8699   14.0336   11.9649 C   0  0  0  0  0  0  0  0  0  0  0  0
    3.1134   14.2567   12.8989 H   0  0  0  0  0  0  0  0  0  0  0  0
    2.4053   14.8193   11.5820 H   0  0  0  0  0  0  0  0  0  0  0  0
    4.3957   13.7519   11.0240 P   0  0  0  0  0  0  0  0  0  0  0  0
    4.9458   15.3207   10.3522 C   0  0  0  0  0  0  0  0  0  0  0  0
    5.7001   15.1114    9.7450 H   0  0  0  0  0  0  0  0  0  0  0  0
    4.2086   15.6484    9.7793 H   0  0  0  0  0  0  0  0  0  0  0  0
    5.3946   16.5130   11.1990 C   0  0  0  0  0  0  0  0  0  0  0  0
    6.0887   16.2031   11.8466 H   0  0  0  0  0  0  0  0  0  0  0  0
    6.0298   17.5672   10.2556 C   0  0  0  0  0  0  0  0  0  0  0  0
    6.8236   17.1645    9.8198 H   0  0  0  0  0  0  0  0  0  0  0  0
    5.3785   17.7902    9.5458 H   0  0  0  0  0  0  0  0  0  0  0  0
    6.4590   18.8681   10.9499 C   0  0  0  0  0  0  0  0  0  0  0  0
    7.2026   18.6825   11.5788 H   0  0  0  0  0  0  0  0  0  0  0  0
    6.7787   19.5175   10.2743 H   0  0  0  0  0  0  0  0  0  0  0  0
    5.2907   19.4465   11.7003 C   0  0  0  0  0  0  0  0  0  0  0  0
    4.5910   19.7169   11.0558 H   0  0  0  0  0  0  0  0  0  0  0  0
    5.5862   20.2578   12.1860 H   0  0  0  0  0  0  0  0  0  0  0  0
    4.6985   18.4693   12.6903 C   0  0  0  0  0  0  0  0  0  0  0  0
    3.9174   18.8819   13.1356 H   0  0  0  0  0  0  0  0  0  0  0  0
    5.3701   18.2522   13.3846 H   0  0  0  0  0  0  0  0  0  0  0  0
    4.2623   17.1822   11.9774 C   0  0  0  0  0  0  0  0  0  0  0  0
    3.9135   16.5446   12.6499 H   0  0  0  0  0  0  0  0  0  0  0  0
    3.5241   17.3954   11.3516 H   0  0  0  0  0  0  0  0  0  0  0  0
    5.5761   13.3861   12.3821 C   0  0  0  0  0  0  0  0  0  0  0  0
    5.6667   14.2172   12.9145 H   0  0  0  0  0  0  0  0  0  0  0  0
    5.1373   12.7228   12.9706 H   0  0  0  0  0  0  0  0  0  0  0  0
    6.9941   12.8748   12.1299 C   0  0  0  0  0  0  0  0  0  0  0  0
    6.9221   12.1503   11.4419 H   0  0  0  0  0  0  0  0  0  0  0  0
    7.5808   12.2234   13.4033 C   0  0  0  0  0  0  0  0  0  0  0  0
    7.6799   12.9123   14.1070 H   0  0  0  0  0  0  0  0  0  0  0  0
    6.9544   11.5344   13.7365 H   0  0  0  0  0  0  0  0  0  0  0  0
    8.9226   11.5897   13.1293 C   0  0  0  0  0  0  0  0  0  0  0  0
    8.8041   10.8336   12.5035 H   0  0  0  0  0  0  0  0  0  0  0  0
    9.2912   11.2304   13.9762 H   0  0  0  0  0  0  0  0  0  0  0  0
    9.9119   12.5886   12.5347 C   0  0  0  0  0  0  0  0  0  0  0  0
   10.1480   13.2637   13.2165 H   0  0  0  0  0  0  0  0  0  0  0  0
   10.7395   12.1128   12.2731 H   0  0  0  0  0  0  0  0  0  0  0  0
    9.3208   13.2834   11.3173 C   0  0  0  0  0  0  0  0  0  0  0  0
    9.2440   12.6281   10.5794 H   0  0  0  0  0  0  0  0  0  0  0  0
    9.9411   13.9981   11.0247 H   0  0  0  0  0  0  0  0  0  0  0  0
    7.9536   13.8934   11.5820 C   0  0  0  0  0  0  0  0  0  0  0  0
    8.0444   14.6377   12.2296 H   0  0  0  0  0  0  0  0  0  0  0  0
    7.5903   14.2646   10.7382 H   0  0  0  0  0  0  0  0  0  0  0  0
    2.6534   11.3706   12.3167 C   0  0  0  0  0  0  0  0  0  0  0  0
    2.0162   10.6876   12.6436 H   0  0  0  0  0  0  0  0  0  0  0  0
    3.2990   11.5522   13.0453 H   0  0  0  0  0  0  0  0  0  0  0  0
    3.5412   10.7034   10.9141 P   0  0  0  0  0  0  0  0  0  0  0  0
    2.5038    9.3037   10.3179 C   0  0  0  0  0  0  0  0  0  0  0  0
    1.8331    9.6670    9.6890 H   0  0  0  0  0  0  0  0  0  0  0  0
    3.0836    8.6859    9.8073 H   0  0  0  0  0  0  0  0  0  0  0  0
    1.7574    8.4845   11.3889 C   0  0  0  0  0  0  0  0  0  0  0  0
    2.1381    8.7293   12.2825 H   0  0  0  0  0  0  0  0  0  0  0  0
    0.2640    8.7767   11.4263 C   0  0  0  0  0  0  0  0  0  0  0  0
   -0.1464    8.4944   10.5701 H   0  0  0  0  0  0  0  0  0  0  0  0
    0.1240    9.7519   11.5259 H   0  0  0  0  0  0  0  0  0  0  0  0
   -0.4253    8.0463   12.5783 C   0  0  0  0  0  0  0  0  0  0  0  0
   -0.0715    8.3858   13.4407 H   0  0  0  0  0  0  0  0  0  0  0  0
   -1.3964    8.2358   12.5534 H   0  0  0  0  0  0  0  0  0  0  0  0
   -0.2036    6.5539   12.5004 C   0  0  0  0  0  0  0  0  0  0  0  0
   -0.5637    6.1275   13.3193 H   0  0  0  0  0  0  0  0  0  0  0  0
   -0.6991    6.1907   11.7252 H   0  0  0  0  0  0  0  0  0  0  0  0
    1.2456    6.2104   12.3634 C   0  0  0  0  0  0  0  0  0  0  0  0
    1.3372    5.2372   12.2078 H   0  0  0  0  0  0  0  0  0  0  0  0
    1.7126    6.4275   13.2103 H   0  0  0  0  0  0  0  0  0  0  0  0
    1.9112    6.9684   11.2146 C   0  0  0  0  0  0  0  0  0  0  0  0
    1.5008    6.6921   10.3584 H   0  0  0  0  0  0  0  0  0  0  0  0
    2.8741    6.7375   11.1803 H   0  0  0  0  0  0  0  0  0  0  0  0
    5.0564    9.8624   11.5197 C   0  0  0  0  0  0  0  0  0  0  0  0
    5.4890    9.4656   10.7195 H   0  0  0  0  0  0  0  0  0  0  0  0
    5.6605   10.5790   11.8373 H   0  0  0  0  0  0  0  0  0  0  0  0
    5.0795    8.8102   12.5627 C   0  0  0  0  0  0  0  0  0  0  0  0
    4.5469    8.0423   12.2109 H   0  0  0  0  0  0  0  0  0  0  0  0
    4.5076    9.1577   13.9108 C   0  0  0  0  0  0  0  0  0  0  0  0
    3.5522    9.3946   13.8081 H   0  0  0  0  0  0  0  0  0  0  0  0
    4.9817    9.9493   14.2720 H   0  0  0  0  0  0  0  0  0  0  0  0
    4.6356    8.0088   14.8884 C   0  0  0  0  0  0  0  0  0  0  0  0
    4.2656    8.2851   15.7633 H   0  0  0  0  0  0  0  0  0  0  0  0
    4.1026    7.2428   14.5615 H   0  0  0  0  0  0  0  0  0  0  0  0
    6.0709    7.5705   15.0752 C   0  0  0  0  0  0  0  0  0  0  0  0
    6.5957    8.3128   15.4644 H   0  0  0  0  0  0  0  0  0  0  0  0
    6.1037    6.8066   15.7041 H   0  0  0  0  0  0  0  0  0  0  0  0
    6.6678    7.1678   13.7676 C   0  0  0  0  0  0  0  0  0  0  0  0
    6.2006    6.3644   13.4282 H   0  0  0  0  0  0  0  0  0  0  0  0
    7.6209    6.9349   13.9015 H   0  0  0  0  0  0  0  0  0  0  0  0
    6.5571    8.3049   12.7277 C   0  0  0  0  0  0  0  0  0  0  0  0
    6.8870    7.9792   11.8528 H   0  0  0  0  0  0  0  0  0  0  0  0
    7.1308    9.0609   13.0079 H   0  0  0  0  0  0  0  0  0  0  0  0
  1  2  1  0  0  0  0
  2  3  8  0  0  0  0
  3  4  1  0  0  0  0
  4  5  1  0  0  0  0
  6  4  1  0  0  0  0
  7  4  1  0  0  0  0
  8  1  1  0  0  0  0
  9  1  1  0  0  0  0
 10 11  1  0  0  0  0
 11 12  4  0  0  0  0
 12 13  1  0  0  0  0
 14 12  4  0  0  0  0
 15 14  1  0  0  0  0
 16 14  4  0  0  0  0
 17 16  1  0  0  0  0
 18 16  4  0  0  0  0
 19 18  1  0  0  0  0
 20 11  4  0  0  0  0
 21 20  1  0  0  0  0
 22 10  1  0  0  0  0
 23 22  1  0  0  0  0
 24 22  1  0  0  0  0
 25  1  1  0  0  0  0
 26 25  1  0  0  0  0
 27 26  1  0  0  0  0
 28 26  1  0  0  0  0
 29 26  1  0  0  0  0
 30 29  1  0  0  0  0
 31 29  1  0  0  0  0
 32 31  1  0  0  0  0
 33 31  1  0  0  0  0
 34 31  1  0  0  0  0
 35 34  1  0  0  0  0
 36 34  1  0  0  0  0
 37 34  1  0  0  0  0
 38 37  1  0  0  0  0
 39 37  1  0  0  0  0
 40 37  1  0  0  0  0
 41 40  1  0  0  0  0
 42 40  1  0  0  0  0
 43 29  1  0  0  0  0
 44 43  1  0  0  0  0
 45 43  1  0  0  0  0
 46 25  1  0  0  0  0
 47 46  1  0  0  0  0
 48 46  1  0  0  0  0
 49 46  1  0  0  0  0
 50 49  1  0  0  0  0
 51 49  1  0  0  0  0
 52 51  1  0  0  0  0
 53 51  1  0  0  0  0
 54 51  1  0  0  0  0
 55 54  1  0  0  0  0
 56 54  1  0  0  0  0
 57 54  1  0  0  0  0
 58 57  1  0  0  0  0
 59 57  1  0  0  0  0
 60 57  1  0  0  0  0
 61 60  1  0  0  0  0
 62 60  1  0  0  0  0
 63 49  1  0  0  0  0
 64 63  1  0  0  0  0
 65 63  1  0  0  0  0
 66 10  1  0  0  0  0
 67 66  1  0  0  0  0
 68 66  1  0  0  0  0
 69  1  1  0  0  0  0
 70 69  1  0  0  0  0
 71 70  1  0  0  0  0
 72 70  1  0  0  0  0
 73 70  1  0  0  0  0
 74 73  1  0  0  0  0
 75 73  1  0  0  0  0
 76 75  1  0  0  0  0
 77 75  1  0  0  0  0
 78 75  1  0  0  0  0
 79 78  1  0  0  0  0
 80 78  1  0  0  0  0
 81 78  1  0  0  0  0
 82 81  1  0  0  0  0
 83 81  1  0  0  0  0
 84 81  1  0  0  0  0
 85 84  1  0  0  0  0
 86 84  1  0  0  0  0
 87 73  1  0  0  0  0
 88 87  1  0  0  0  0
 89 87  1  0  0  0  0
 90 69  1  0  0  0  0
 91 90  1  0  0  0  0
 92 90  1  0  0  0  0
 93 90  1  0  0  0  0
 94 93  1  0  0  0  0
 95 93  1  0  0  0  0
 96 95  1  0  0  0  0
 97 95  1  0  0  0  0
 98 95  1  0  0  0  0
 99 98  1  0  0  0  0
100 98  1  0  0  0  0
101 98  1  0  0  0  0
102101  1  0  0  0  0
103101  1  0  0  0  0
104101  1  0  0  0  0
105104  1  0  0  0  0
106104  1  0  0  0  0
107 93  1  0  0  0  0
108107  1  0  0  0  0
109107  1  0  0  0  0
110 10  1  0  0  0  0
111110  1  0  0  0  0
112110  1  0  0  0  0
113  1  1  0  0  0  0
114113  1  0  0  0  0
115114  1  0  0  0  0
116114  1  0  0  0  0
117114  1  0  0  0  0
118117  1  0  0  0  0
119117  1  0  0  0  0
120119  1  0  0  0  0
121119  1  0  0  0  0
122119  1  0  0  0  0
123122  1  0  0  0  0
124122  1  0  0  0  0
125122  1  0  0  0  0
126125  1  0  0  0  0
127125  1  0  0  0  0
128125  1  0  0  0  0
129128  1  0  0  0  0
130128  1  0  0  0  0
131117  1  0  0  0  0
132131  1  0  0  0  0
133131  1  0  0  0  0
134113  1  0  0  0  0
135134  1  0  0  0  0
136134  1  0  0  0  0
137134  1  0  0  0  0
138137  1  0  0  0  0
139137  1  0  0  0  0
140139  1  0  0  0  0
141139  1  0  0  0  0
142139  1  0  0  0  0
143142  1  0  0  0  0
144142  1  0  0  0  0
145142  1  0  0  0  0
146145  1  0  0  0  0
147145  1  0  0  0  0
148145  1  0  0  0  0
149148  1  0  0  0  0
150148  1  0  0  0  0
151137  1  0  0  0  0
152151  1  0  0  0  0
153151  1  0  0  0  0
154155  1  0  0  0  0
155156  8  0  0  0  0
156157  1  0  0  0  0
157158  1  0  0  0  0
159157  1  0  0  0  0
160157  1  0  0  0  0
161154  1  0  0  0  0
162  9  2  0  0  0  0
163164  1  0  0  0  0
164165  4  0  0  0  0
165166  1  0  0  0  0
167165  4  0  0  0  0
168167  1  0  0  0  0
169167  4  0  0  0  0
170169  1  0  0  0  0
171169  4  0  0  0  0
172171  1  0  0  0  0
173164  4  0  0  0  0
174173  1  0  0  0  0
175163  1  0  0  0  0
176175  1  0  0  0  0
177175  1  0  0  0  0
178154  1  0  0  0  0
179178  1  0  0  0  0
180179  1  0  0  0  0
181179  1  0  0  0  0
182179  1  0  0  0  0
183182  1  0  0  0  0
184182  1  0  0  0  0
185184  1  0  0  0  0
186184  1  0  0  0  0
187184  1  0  0  0  0
188187  1  0  0  0  0
189187  1  0  0  0  0
190187  1  0  0  0  0
191190  1  0  0  0  0
192190  1  0  0  0  0
193190  1  0  0  0  0
194193  1  0  0  0  0
195193  1  0  0  0  0
196182  1  0  0  0  0
197196  1  0  0  0  0
198196  1  0  0  0  0
199178  1  0  0  0  0
200199  1  0  0  0  0
201199  1  0  0  0  0
202199  1  0  0  0  0
203202  1  0  0  0  0
204202  1  0  0  0  0
205204  1  0  0  0  0
206204  1  0  0  0  0
207204  1  0  0  0  0
208207  1  0  0  0  0
209207  1  0  0  0  0
210207  1  0  0  0  0
211210  1  0  0  0  0
212210  1  0  0  0  0
213210  1  0  0  0  0
214213  1  0  0  0  0
215213  1  0  0  0  0
216202  1  0  0  0  0
217216  1  0  0  0  0
218216  1  0  0  0  0
219163  1  0  0  0  0
220219  1  0  0  0  0
221219  1  0  0  0  0
222154  1  0  0  0  0
223222  1  0  0  0  0
224223  1  0  0  0  0
225223  1  0  0  0  0
226223  1  0  0  0  0
227226  1  0  0  0  0
228226  1  0  0  0  0
229228  1  0  0  0  0
230228  1  0  0  0  0
231228  1  0  0  0  0
232231  1  0  0  0  0
233231  1  0  0  0  0
234231  1  0  0  0  0
235234  1  0  0  0  0
236234  1  0  0  0  0
237234  1  0  0  0  0
238237  1  0  0  0  0
239237  1  0  0  0  0
240226  1  0  0  0  0
241240  1  0  0  0  0
242240  1  0  0  0  0
243222  1  0  0  0  0
244243  1  0  0  0  0
245243  1  0  0  0  0
246243  1  0  0  0  0
247246  1  0  0  0  0
248246  1  0  0  0  0
249248  1  0  0  0  0
250248  1  0  0  0  0
251248  1  0  0  0  0
252251  1  0  0  0  0
253251  1  0  0  0  0
254251  1  0  0  0  0
255254  1  0  0  0  0
256254  1  0  0  0  0
257254  1  0  0  0  0
258257  1  0  0  0  0
259257  1  0  0  0  0
260246  1  0  0  0  0
261260  1  0  0  0  0
262260  1  0  0  0  0
263163  1  0  0  0  0
264263  1  0  0  0  0
265263  1  0  0  0  0
266154  1  0  0  0  0
267266  1  0  0  0  0
268267  1  0  0  0  0
269267  1  0  0  0  0
270267  1  0  0  0  0
271270  1  0  0  0  0
272270  1  0  0  0  0
273272  1  0  0  0  0
274272  1  0  0  0  0
275272  1  0  0  0  0
276275  1  0  0  0  0
277275  1  0  0  0  0
278275  1  0  0  0  0
279278  1  0  0  0  0
280278  1  0  0  0  0
281278  1  0  0  0  0
282281  1  0  0  0  0
283281  1  0  0  0  0
284270  1  0  0  0  0
285284  1  0  0  0  0
286284  1  0  0  0  0
287266  1  0  0  0  0
288287  1  0  0  0  0
289287  1  0  0  0  0
290287  1  0  0  0  0
291290  1  0  0  0  0
292290  1  0  0  0  0
293292  1  0  0  0  0
294292  1  0  0  0  0
295292  1  0  0  0  0
296295  1  0  0  0  0
297295  1  0  0  0  0
298295  1  0  0  0  0
299298  1  0  0  0  0
300298  1  0  0  0  0
301298  1  0  0  0  0
302301  1  0  0  0  0
303301  1  0  0  0  0
304290  1  0  0  0  0
305304  1  0  0  0  0
306304  1  0  0  0  0
  3  8  8  0  0  0  0
 18 20  4  0  0  0  0
 22 25  1  0  0  0  0
 40 43  1  0  0  0  0
 60 63  1  0  0  0  0
 66 69  1  0  0  0  0
 84 87  1  0  0  0  0
104107  1  0  0  0  0
110113  1  0  0  0  0
128131  1  0  0  0  0
148151  1  0  0  0  0
154162  1  0  0  0  0
156161  8  0  0  0  0
171173  4  0  0  0  0
175178  1  0  0  0  0
193196  1  0  0  0  0
213216  1  0  0  0  0
219222  1  0  0  0  0
237240  1  0  0  0  0
257260  1  0  0  0  0
263266  1  0  0  0  0
281284  1  0  0  0  0
301304  1  0  0  0  0
M  CHG  4   1   1  10  -1 154   1 163  -1
M  END
$$$$
RARJID

From CSD data. Using bond type 'Any'. No disordered atoms. Largest molecule.
 50 65  0  0  0  0  0  0  0  0999 V2000
   -0.0029    2.7782    1.7147 Ir  0  0  0  0  0  0  0  0  0  0  0  0
    2.3117    2.6199    1.4024 P   0  0  0  0  0  0  0  0  0  0  0  0
   -0.2322    5.0948    1.5994 P   0  0  0  0  0  0  0  0  0  0  0  0
   -2.2474    1.3399    3.9161 B   0  0  0  0  0  0  0  0  0  0  0  0
   -1.0557    0.2617    4.6186 B   0  0  0  0  0  0  0  0  0  0  0  0
   -1.6063   -0.0017    2.9964 B   0  0  0  0  0  0  0  0  0  0  0  0
   -1.8118    1.5633    2.1987 B   0  0  0  0  0  0  0  0  0  0  0  0
   -1.4165    2.8432    3.4496 B   0  0  0  0  0  0  0  0  0  0  0  0
   -0.9379    1.9633    4.9324 B   0  0  0  0  0  0  0  0  0  0  0  0
    0.0738   -0.0233    3.3758 C   0  0  0  0  0  0  0  0  0  0  0  0
   -0.3518    0.6450    2.0231 C   0  0  0  0  0  0  0  0  0  0  0  0
    0.2931    2.7432    3.9295 B   0  0  0  0  0  0  0  0  0  0  0  0
    0.5203    1.0466    4.5395 B   0  0  0  0  0  0  0  0  0  0  0  0
   -0.4525    2.6982   -0.0979 C   0  0  0  0  0  0  0  0  0  0  0  0
   -0.7683    2.6566   -1.2066 O   0  0  0  0  0  0  0  0  0  0  0  0
    3.3658    3.6799    2.4132 C   0  0  0  0  0  0  0  0  0  0  0  0
    2.9162    2.9399   -0.2775 C   0  0  0  0  0  0  0  0  0  0  0  0
    2.9797    0.9650    1.6919 C   0  0  0  0  0  0  0  0  0  0  0  0
   -1.9091    5.5914    1.1449 C   0  0  0  0  0  0  0  0  0  0  0  0
    0.0863    6.0564    3.0930 C   0  0  0  0  0  0  0  0  0  0  0  0
    0.7584    5.9564    0.3446 C   0  0  0  0  0  0  0  0  0  0  0  0
    3.0934    4.5565    2.3261 H   0  0  0  0  0  0  0  0  0  0  0  0
    4.2400    3.5999    2.1330 H   0  0  0  0  0  0  0  0  0  0  0  0
    3.3019    3.4249    3.2967 H   0  0  0  0  0  0  0  0  0  0  0  0
    2.4098    2.4132   -0.9063 H   0  0  0  0  0  0  0  0  0  0  0  0
    3.8474    2.7016   -0.3338 H   0  0  0  0  0  0  0  0  0  0  0  0
    2.8104    3.8748   -0.4840 H   0  0  0  0  0  0  0  0  0  0  0  0
    2.4683    0.3150    1.1811 H   0  0  0  0  0  0  0  0  0  0  0  0
    2.9211    0.7533    2.6385 H   0  0  0  0  0  0  0  0  0  0  0  0
    3.9102    0.9383    1.4104 H   0  0  0  0  0  0  0  0  0  0  0  0
   -2.1676    5.1398    0.3714 H   0  0  0  0  0  0  0  0  0  0  0  0
   -1.9310    6.5097    0.9908 H   0  0  0  0  0  0  0  0  0  0  0  0
   -2.4948    5.3781    1.8394 H   0  0  0  0  0  0  0  0  0  0  0  0
    0.9463    5.8648    3.4107 H   0  0  0  0  0  0  0  0  0  0  0  0
   -0.5454    5.8331    3.7485 H   0  0  0  0  0  0  0  0  0  0  0  0
    0.0224    6.9697    2.8959 H   0  0  0  0  0  0  0  0  0  0  0  0
    0.6578    5.5248   -0.4853 H   0  0  0  0  0  0  0  0  0  0  0  0
    1.6651    5.9448    0.5979 H   0  0  0  0  0  0  0  0  0  0  0  0
    0.4651    6.8481    0.2708 H   0  0  0  0  0  0  0  0  0  0  0  0
   -3.3765    1.2683    4.1735 H   0  0  0  0  0  0  0  0  0  0  0  0
   -1.2966   -0.4333    5.3399 H   0  0  0  0  0  0  0  0  0  0  0  0
   -2.0387   -0.9416    2.7725 H   0  0  0  0  0  0  0  0  0  0  0  0
   -2.6126    1.5533    1.4064 H   0  0  0  0  0  0  0  0  0  0  0  0
   -1.8747    3.8348    3.5233 H   0  0  0  0  0  0  0  0  0  0  0  0
   -1.2301    2.4199    5.9097 H   0  0  0  0  0  0  0  0  0  0  0  0
    0.5450   -0.9533    3.2887 H   0  0  0  0  0  0  0  0  0  0  0  0
   -0.2669    0.0133    1.2240 H   0  0  0  0  0  0  0  0  0  0  0  0
    0.8376    3.5832    4.3720 H   0  0  0  0  0  0  0  0  0  0  0  0
    1.3513    0.6700    5.2863 H   0  0  0  0  0  0  0  0  0  0  0  0
    0.5712    1.8949    4.0127 H   0  0  0  0  0  0  0  0  0  0  0  0
  1  2  1  0  0  0  0
  2 16  1  0  0  0  0
  3  1  1  0  0  0  0
  4  5  1  0  0  0  0
  5  6  1  0  0  0  0
  6  4  1  0  0  0  0
  7  1  1  0  0  0  0
  8  1  1  0  0  0  0
  9  4  1  0  0  0  0
 10  5  1  0  0  0  0
 11  1  1  0  0  0  0
 12  1  1  0  0  0  0
 13  5  1  0  0  0  0
 14  1  1  0  0  0  0
 15 14  3  0  0  0  0
 16 22  1  0  0  0  0
 17  2  1  0  0  0  0
 18  2  1  0  0  0  0
 19  3  1  0  0  0  0
 20  3  1  0  0  0  0
 21  3  1  0  0  0  0
 23 16  1  0  0  0  0
 24 16  1  0  0  0  0
 25 17  1  0  0  0  0
 26 17  1  0  0  0  0
 27 17  1  0  0  0  0
 28 18  1  0  0  0  0
 29 18  1  0  0  0  0
 30 18  1  0  0  0  0
 31 19  1  0  0  0  0
 32 19  1  0  0  0  0
 33 19  1  0  0  0  0
 34 20  1  0  0  0  0
 35 20  1  0  0  0  0
 36 20  1  0  0  0  0
 37 21  1  0  0  0  0
 38 21  1  0  0  0  0
 39 21  1  0  0  0  0
 40  4  1  0  0  0  0
 41  5  1  0  0  0  0
 42  6  1  0  0  0  0
 43  7  1  0  0  0  0
 44  8  1  0  0  0  0
 45  9  1  0  0  0  0
 46 10  1  0  0  0  0
 47 11  1  0  0  0  0
 48 12  1  0  0  0  0
 49 13  1  0  0  0  0
 50 12  1  0  0  0  0
  4  7  1  0  0  0  0
  4  8  1  0  0  0  0
  5  9  1  0  0  0  0
  6  7  1  0  0  0  0
  6 10  1  0  0  0  0
  6 11  1  0  0  0  0
  7  8  1  0  0  0  0
  7 11  1  0  0  0  0
  8  9  1  0  0  0  0
  8 12  1  0  0  0  0
  9 12  1  0  0  0  0
  9 13  1  0  0  0  0
 10 11  1  0  0  0  0
 10 13  1  0  0  0  0
 12 13  1  0  0  0  0
 13 50  1  0  0  0  0
M  END
$$$$
RAVKAE

From CSD data. Using bond type 'Any'. No disordered atoms. Largest molecule.
132140  0  0  0  0  0  0  0  0999 V2000
   11.7384   14.5179   13.7546 P   0  3  0  0  0  0  0  0  0  0  0  0
   10.5550   14.2666   13.3104 H   0  0  0  0  0  0  0  0  0  0  0  0
    7.8570   17.1297   14.3382 P   0  3  0  0  0  0  0  0  0  0  0  0
    9.0001   17.5639   14.0178 H   0  0  0  0  0  0  0  0  0  0  0  0
   11.4673   18.0229   11.4134 B   0  5  0  0  0  0  0  0  0  0  0  0
   10.4044   18.1458   11.8211 H   0  0  0  0  0  0  0  0  0  0  0  0
    8.0836   14.2968   11.2682 B   0  5  0  0  0  0  0  0  0  0  0  0
    9.0579   13.8895   11.8155 H   0  0  0  0  0  0  0  0  0  0  0  0
    9.8110   15.5049   15.8880 O   0  0  0  0  0  0  0  0  0  0  0  0
   11.9117   16.2536   13.3234 C   0  0  0  0  0  0  0  0  0  0  0  0
   11.1631   16.7601   13.7272 H   0  0  0  0  0  0  0  0  0  0  0  0
   12.7539   16.5979   13.7133 H   0  0  0  0  0  0  0  0  0  0  0  0
   11.9238   16.5079   11.8081 C   0  0  0  0  0  0  0  0  0  0  0  0
   11.3160   15.8629   11.3669 H   0  0  0  0  0  0  0  0  0  0  0  0
   12.8378   16.3470   11.4610 H   0  0  0  0  0  0  0  0  0  0  0  0
    9.8469   14.9282   18.7816 C   0  0  0  0  0  0  0  0  0  0  0  0
   10.5236   15.6976   19.9358 C   0  0  0  0  0  0  0  0  0  0  0  0
   11.1975   15.1255   20.3585 H   0  0  0  0  0  0  0  0  0  0  0  0
    9.8480   15.9513   20.5991 H   0  0  0  0  0  0  0  0  0  0  0  0
   10.9538   16.5039   19.5828 H   0  0  0  0  0  0  0  0  0  0  0  0
    9.0915   13.6848   19.3364 C   0  0  0  0  0  0  0  0  0  0  0  0
    8.6782   13.1965   18.5945 H   0  0  0  0  0  0  0  0  0  0  0  0
    8.3964   13.9783   19.9621 H   0  0  0  0  0  0  0  0  0  0  0  0
    9.7242   13.0996   19.8018 H   0  0  0  0  0  0  0  0  0  0  0  0
    7.6596   15.5661   13.5059 C   0  0  0  0  0  0  0  0  0  0  0  0
    8.3629   14.9411   13.8123 H   0  0  0  0  0  0  0  0  0  0  0  0
    6.7807   15.1785   13.7409 H   0  0  0  0  0  0  0  0  0  0  0  0
    7.7520   15.7256   11.9849 C   0  0  0  0  0  0  0  0  0  0  0  0
    8.4636   16.3778   11.7644 H   0  0  0  0  0  0  0  0  0  0  0  0
    6.8948   16.0774   11.6379 H   0  0  0  0  0  0  0  0  0  0  0  0
   12.8557   13.3809   12.9195 C   0  0  0  0  0  0  0  0  0  0  0  0
   14.2354   13.6589   12.7575 C   0  0  0  0  0  0  0  0  0  0  0  0
   15.0248   12.7257   12.0929 C   0  0  0  0  0  0  0  0  0  0  0  0
   15.9497   12.9100   11.9769 H   0  0  0  0  0  0  0  0  0  0  0  0
   14.5158   11.5426   11.5959 C   0  0  0  0  0  0  0  0  0  0  0  0
   13.1671   11.2689   11.8006 C   0  0  0  0  0  0  0  0  0  0  0  0
   12.8127   10.4480   11.4779 H   0  0  0  0  0  0  0  0  0  0  0  0
   12.3216   12.1482   12.4596 C   0  0  0  0  0  0  0  0  0  0  0  0
   14.8867   14.9002   13.2955 C   0  0  0  0  0  0  0  0  0  0  0  0
   15.8603   14.8122   13.2299 H   0  0  0  0  0  0  0  0  0  0  0  0
   14.6316   15.0210   14.2339 H   0  0  0  0  0  0  0  0  0  0  0  0
   14.5920   15.6751   12.7738 H   0  0  0  0  0  0  0  0  0  0  0  0
   15.4235   10.5233   10.9387 C   0  0  0  0  0  0  0  0  0  0  0  0
   16.1199   10.9882   10.4289 H   0  0  0  0  0  0  0  0  0  0  0  0
   14.8970    9.9603   10.3329 H   0  0  0  0  0  0  0  0  0  0  0  0
   15.8390    9.9646   11.6266 H   0  0  0  0  0  0  0  0  0  0  0  0
   10.8953   11.7430   12.7128 C   0  0  0  0  0  0  0  0  0  0  0  0
   10.6839   11.8624   13.6615 H   0  0  0  0  0  0  0  0  0  0  0  0
   10.7754   10.8006   12.4676 H   0  0  0  0  0  0  0  0  0  0  0  0
   10.2959   12.2984   12.1714 H   0  0  0  0  0  0  0  0  0  0  0  0
   11.7665   14.2149   15.5257 C   0  0  0  0  0  0  0  0  0  0  0  0
   12.8079   13.4412   16.0246 C   0  0  0  0  0  0  0  0  0  0  0  0
   13.4581   13.0867   15.4284 H   0  0  0  0  0  0  0  0  0  0  0  0
   12.9088   13.1805   17.3780 C   0  0  0  0  0  0  0  0  0  0  0  0
   13.6286   12.6593   17.7136 H   0  0  0  0  0  0  0  0  0  0  0  0
   11.9623   13.6783   18.2343 C   0  0  0  0  0  0  0  0  0  0  0  0
   12.0367   13.4822   19.1605 H   0  0  0  0  0  0  0  0  0  0  0  0
   10.8992   14.4584   17.7987 C   0  0  0  0  0  0  0  0  0  0  0  0
   10.8255   14.7278   16.4323 C   0  0  0  0  0  0  0  0  0  0  0  0
    7.9261   16.9303   16.1121 C   0  0  0  0  0  0  0  0  0  0  0  0
    6.9659   17.5488   16.8995 C   0  0  0  0  0  0  0  0  0  0  0  0
    6.3307   18.1285   16.4943 H   0  0  0  0  0  0  0  0  0  0  0  0
    6.9175   17.3355   18.2771 C   0  0  0  0  0  0  0  0  0  0  0  0
    6.2585   17.7594   18.8127 H   0  0  0  0  0  0  0  0  0  0  0  0
    7.8584   16.4842   18.8449 C   0  0  0  0  0  0  0  0  0  0  0  0
    7.8290   16.3318   19.7822 H   0  0  0  0  0  0  0  0  0  0  0  0
    8.8454   15.8441   18.0947 C   0  0  0  0  0  0  0  0  0  0  0  0
    8.8785   16.0834   16.7283 C   0  0  0  0  0  0  0  0  0  0  0  0
    6.6739   18.3807   13.8763 C   0  0  0  0  0  0  0  0  0  0  0  0
    5.2864   18.1178   13.8931 C   0  0  0  0  0  0  0  0  0  0  0  0
    4.4059   19.1285   13.5301 C   0  0  0  0  0  0  0  0  0  0  0  0
    3.4729   18.9552   13.5634 H   0  0  0  0  0  0  0  0  0  0  0  0
    4.8339   20.3806   13.1205 C   0  0  0  0  0  0  0  0  0  0  0  0
    6.2030   20.6284   13.1186 C   0  0  0  0  0  0  0  0  0  0  0  0
    6.5081   21.4894   12.8601 H   0  0  0  0  0  0  0  0  0  0  0  0
    7.1475   19.6651   13.4779 C   0  0  0  0  0  0  0  0  0  0  0  0
    4.7288   16.7773   14.2766 C   0  0  0  0  0  0  0  0  0  0  0  0
    3.7652   16.8565   14.4353 H   0  0  0  0  0  0  0  0  0  0  0  0
    5.1695   16.4615   15.0934 H   0  0  0  0  0  0  0  0  0  0  0  0
    4.8886   16.1365   13.5518 H   0  0  0  0  0  0  0  0  0  0  0  0
    3.8737   21.4603   12.7482 C   0  0  0  0  0  0  0  0  0  0  0  0
    4.1310   22.2941   13.1949 H   0  0  0  0  0  0  0  0  0  0  0  0
    2.9705   21.2048   13.0291 H   0  0  0  0  0  0  0  0  0  0  0  0
    3.8899   21.5912   11.7775 H   0  0  0  0  0  0  0  0  0  0  0  0
    8.5993   20.0272   13.4091 C   0  0  0  0  0  0  0  0  0  0  0  0
    8.6902   20.9797   13.2026 H   0  0  0  0  0  0  0  0  0  0  0  0
    9.0350   19.4970   12.7089 H   0  0  0  0  0  0  0  0  0  0  0  0
    9.0244   19.8376   14.2726 H   0  0  0  0  0  0  0  0  0  0  0  0
    6.9174   13.1331   11.3539 C   0  0  0  0  0  0  0  0  0  0  0  0
    5.5907   13.2774   11.7578 C   0  0  0  0  0  0  0  0  0  0  0  0
    4.7003   12.2559   11.8844 C   0  0  0  0  0  0  0  0  0  0  0  0
    5.0745   10.9801   11.5642 C   0  0  0  0  0  0  0  0  0  0  0  0
    6.3605   10.7560   11.1379 C   0  0  0  0  0  0  0  0  0  0  0  0
    7.2143   11.8249   11.0374 C   0  0  0  0  0  0  0  0  0  0  0  0
    8.4627   14.5295    9.6970 C   0  0  0  0  0  0  0  0  0  0  0  0
    9.6871   14.2192    9.1367 C   0  0  0  0  0  0  0  0  0  0  0  0
    9.9951   14.4132    7.7945 C   0  0  0  0  0  0  0  0  0  0  0  0
    9.0424   14.9153    6.9549 C   0  0  0  0  0  0  0  0  0  0  0  0
    7.8038   15.2623    7.4594 C   0  0  0  0  0  0  0  0  0  0  0  0
    7.5596   15.0683    8.7998 C   0  0  0  0  0  0  0  0  0  0  0  0
   12.3897   19.2793   11.9589 C   0  0  0  0  0  0  0  0  0  0  0  0
   13.6480   19.2082   12.5658 C   0  0  0  0  0  0  0  0  0  0  0  0
   14.3310   20.3009   13.0498 C   0  0  0  0  0  0  0  0  0  0  0  0
   13.8087   21.5443   12.9399 C   0  0  0  0  0  0  0  0  0  0  0  0
   12.5925   21.6973   12.3182 C   0  0  0  0  0  0  0  0  0  0  0  0
   11.9367   20.5789   11.8602 C   0  0  0  0  0  0  0  0  0  0  0  0
   11.3626   18.1328    9.7715 C   0  0  0  0  0  0  0  0  0  0  0  0
   12.4935   18.1565    8.9803 C   0  0  0  0  0  0  0  0  0  0  0  0
   12.4709   18.2126    7.5953 C   0  0  0  0  0  0  0  0  0  0  0  0
   11.2714   18.2815    6.9661 C   0  0  0  0  0  0  0  0  0  0  0  0
   10.1299   18.2686    7.6828 C   0  0  0  0  0  0  0  0  0  0  0  0
   10.1880   18.2061    9.0715 C   0  0  0  0  0  0  0  0  0  0  0  0
    5.1143   14.5054   12.0860 F   0  0  0  0  0  0  0  0  0  0  0  0
    3.4311   12.4842   12.3023 F   0  0  0  0  0  0  0  0  0  0  0  0
    4.1965    9.9552   11.6791 F   0  0  0  0  0  0  0  0  0  0  0  0
    6.7569    9.5069   10.8203 F   0  0  0  0  0  0  0  0  0  0  0  0
    8.4711   11.5318   10.5807 F   0  0  0  0  0  0  0  0  0  0  0  0
   10.6814   13.6822    9.8970 F   0  0  0  0  0  0  0  0  0  0  0  0
   11.2111   14.0727    7.3265 F   0  0  0  0  0  0  0  0  0  0  0  0
    9.2908   15.0720    5.6403 F   0  0  0  0  0  0  0  0  0  0  0  0
    6.8506   15.7551    6.6424 F   0  0  0  0  0  0  0  0  0  0  0  0
    6.3160   15.4116    9.2361 F   0  0  0  0  0  0  0  0  0  0  0  0
   14.2748   18.0175   12.6789 F   0  0  0  0  0  0  0  0  0  0  0  0
   15.5445   20.1308   13.6270 F   0  0  0  0  0  0  0  0  0  0  0  0
   14.4760   22.6184   13.4074 F   0  0  0  0  0  0  0  0  0  0  0  0
   12.0761   22.9367   12.1687 F   0  0  0  0  0  0  0  0  0  0  0  0
   10.7395   20.8105   11.2453 F   0  0  0  0  0  0  0  0  0  0  0  0
   13.7159   18.1268    9.5626 F   0  0  0  0  0  0  0  0  0  0  0  0
   13.6283   18.2201    6.8883 F   0  0  0  0  0  0  0  0  0  0  0  0
   11.2213   18.3516    5.6010 F   0  0  0  0  0  0  0  0  0  0  0  0
    8.9274   18.3641    7.0547 F   0  0  0  0  0  0  0  0  0  0  0  0
    9.0000   18.2229    9.7186 F   0  0  0  0  0  0  0  0  0  0  0  0
  1  2  1  0  0  0  0
  3  4  1  0  0  0  0
  5  6  1  0  0  0  0
  7  8  1  0  0  0  0
  9 59  1  0  0  0  0
 10  1  1  0  0  0  0
 11 10  1  0  0  0  0
 12 10  1  0  0  0  0
 13  5  1  0  0  0  0
 14 13  1  0  0  0  0
 15 13  1  0  0  0  0
 16 17  1  0  0  0  0
 17 18  1  0  0  0  0
 19 17  1  0  0  0  0
 20 17  1  0  0  0  0
 21 16  1  0  0  0  0
 22 21  1  0  0  0  0
 23 21  1  0  0  0  0
 24 21  1  0  0  0  0
 25  3  1  0  0  0  0
 26 25  1  0  0  0  0
 27 25  1  0  0  0  0
 28  7  1  0  0  0  0
 29 28  1  0  0  0  0
 30 28  1  0  0  0  0
 31  1  1  0  0  0  0
 32 31  4  0  0  0  0
 33 32  4  0  0  0  0
 34 33  1  0  0  0  0
 35 33  4  0  0  0  0
 36 35  4  0  0  0  0
 37 36  1  0  0  0  0
 38 31  4  0  0  0  0
 39 32  1  0  0  0  0
 40 39  1  0  0  0  0
 41 39  1  0  0  0  0
 42 39  1  0  0  0  0
 43 35  1  0  0  0  0
 44 43  1  0  0  0  0
 45 43  1  0  0  0  0
 46 43  1  0  0  0  0
 47 38  1  0  0  0  0
 48 47  1  0  0  0  0
 49 47  1  0  0  0  0
 50 47  1  0  0  0  0
 51  1  1  0  0  0  0
 52 51  4  0  0  0  0
 53 52  1  0  0  0  0
 54 52  4  0  0  0  0
 55 54  1  0  0  0  0
 56 54  4  0  0  0  0
 57 56  1  0  0  0  0
 58 16  1  0  0  0  0
 59 51  4  0  0  0  0
 60  3  1  0  0  0  0
 61 60  4  0  0  0  0
 62 61  1  0  0  0  0
 63 61  4  0  0  0  0
 64 63  1  0  0  0  0
 65 63  4  0  0  0  0
 66 65  1  0  0  0  0
 67 16  1  0  0  0  0
 68  9  1  0  0  0  0
 69  3  1  0  0  0  0
 70 69  4  0  0  0  0
 71 70  4  0  0  0  0
 72 71  1  0  0  0  0
 73 71  4  0  0  0  0
 74 73  4  0  0  0  0
 75 74  1  0  0  0  0
 76 69  4  0  0  0  0
 77 70  1  0  0  0  0
 78 77  1  0  0  0  0
 79 77  1  0  0  0  0
 80 77  1  0  0  0  0
 81 73  1  0  0  0  0
 82 81  1  0  0  0  0
 83 81  1  0  0  0  0
 84 81  1  0  0  0  0
 85 76  1  0  0  0  0
 86 85  1  0  0  0  0
 87 85  1  0  0  0  0
 88 85  1  0  0  0  0
 89  7  1  0  0  0  0
 90 89  4  0  0  0  0
 91 90  4  0  0  0  0
 92 91  4  0  0  0  0
 93 92  4  0  0  0  0
 94 89  4  0  0  0  0
 95  7  1  0  0  0  0
 96 95  4  0  0  0  0
 97 96  4  0  0  0  0
 98 97  4  0  0  0  0
 99 98  4  0  0  0  0
100 95  4  0  0  0  0
101  5  1  0  0  0  0
102101  4  0  0  0  0
103102  4  0  0  0  0
104103  4  0  0  0  0
105104  4  0  0  0  0
106101  4  0  0  0  0
107  5  1  0  0  0  0
108107  4  0  0  0  0
109108  4  0  0  0  0
110109  4  0  0  0  0
111110  4  0  0  0  0
112107  4  0  0  0  0
113 90  1  0  0  0  0
114 91  1  0  0  0  0
115 92  1  0  0  0  0
116 93  1  0  0  0  0
117 94  1  0  0  0  0
118 96  1  0  0  0  0
119 97  1  0  0  0  0
120 98  1  0  0  0  0
121 99  1  0  0  0  0
122100  1  0  0  0  0
123102  1  0  0  0  0
124103  1  0  0  0  0
125104  1  0  0  0  0
126105  1  0  0  0  0
127106  1  0  0  0  0
128108  1  0  0  0  0
129109  1  0  0  0  0
130110  1  0  0  0  0
131111  1  0  0  0  0
132112  1  0  0  0  0
 10 13  1  0  0  0  0
 25 28  1  0  0  0  0
 36 38  4  0  0  0  0
 56 58  4  0  0  0  0
 58 59  4  0  0  0  0
 60 68  4  0  0  0  0
 65 67  4  0  0  0  0
 67 68  4  0  0  0  0
 74 76  4  0  0  0  0
 93 94  4  0  0  0  0
 99100  4  0  0  0  0
105106  4  0  0  0  0
111112  4  0  0  0  0
M  CHG  4   1   1   3   1   5  -1   7  -1
M  END
$$$$
RAVKIM

From CSD data. Using bond type 'Any'. No disordered atoms. Largest molecule.
148159  0  0  0  0  0  0  0  0999 V2000
    5.5933    7.2505   16.8350 P   0  3  0  0  0  0  0  0  0  0  0  0
    4.9972    3.0616   17.1248 P   0  3  0  0  0  0  0  0  0  0  0  0
    5.9084    2.2491   16.8309 H   0  0  0  0  0  0  0  0  0  0  0  0
    1.4572    8.3592   17.2364 B   0  5  0  0  0  0  0  0  0  0  0  0
    5.3459    4.1608   14.3831 B   0  5  0  0  0  0  0  0  0  0  0  0
    4.9287    5.5460   19.0312 O   0  0  0  0  0  0  0  0  0  0  0  0
    3.8472    7.3848   16.4915 C   0  0  0  0  0  0  0  0  0  0  0  0
    3.5053    7.0778   15.6597 H   0  0  0  0  0  0  0  0  0  0  0  0
    3.0159    7.9150   17.3990 C   0  0  0  0  0  0  0  0  0  0  0  0
    3.3902    8.0520   18.2612 H   0  0  0  0  0  0  0  0  0  0  0  0
    5.5068    5.7051   21.8301 C   0  0  0  0  0  0  0  0  0  0  0  0
    6.5071    5.7196   22.9914 C   0  0  0  0  0  0  0  0  0  0  0  0
    7.4183    5.6409   22.6385 H   0  0  0  0  0  0  0  0  0  0  0  0
    6.3225    4.9672   23.5912 H   0  0  0  0  0  0  0  0  0  0  0  0
    6.4212    6.5619   23.4871 H   0  0  0  0  0  0  0  0  0  0  0  0
    4.0689    5.8581   22.3763 C   0  0  0  0  0  0  0  0  0  0  0  0
    3.9957    6.7004   22.8723 H   0  0  0  0  0  0  0  0  0  0  0  0
    3.8651    5.1079   22.9739 H   0  0  0  0  0  0  0  0  0  0  0  0
    3.4339    5.8626   21.6299 H   0  0  0  0  0  0  0  0  0  0  0  0
    6.2129    5.5335   16.5527 C   0  0  0  0  0  0  0  0  0  0  0  0
    6.9512    5.5706   15.8960 H   0  0  0  0  0  0  0  0  0  0  0  0
    6.5883    5.1911   17.4025 H   0  0  0  0  0  0  0  0  0  0  0  0
    5.1503    4.5212   16.0421 C   0  0  0  0  0  0  0  0  0  0  0  0
    4.2741    4.9971   16.1094 H   0  0  0  0  0  0  0  0  0  0  0  0
    6.6800    8.3588   15.8968 C   0  0  0  0  0  0  0  0  0  0  0  0
    6.1977    9.3226   14.9733 C   0  0  0  0  0  0  0  0  0  0  0  0
    7.1336   10.0769   14.2698 C   0  0  0  0  0  0  0  0  0  0  0  0
    6.8166   10.7339   13.6629 H   0  0  0  0  0  0  0  0  0  0  0  0
    8.4985    9.9189   14.4088 C   0  0  0  0  0  0  0  0  0  0  0  0
    8.9505    8.9973   15.3526 C   0  0  0  0  0  0  0  0  0  0  0  0
    9.8853    8.8963   15.4870 H   0  0  0  0  0  0  0  0  0  0  0  0
    8.0746    8.2219   16.1041 C   0  0  0  0  0  0  0  0  0  0  0  0
    4.7472    9.5721   14.6605 C   0  0  0  0  0  0  0  0  0  0  0  0
    4.6735   10.3097   14.0211 H   0  0  0  0  0  0  0  0  0  0  0  0
    4.2706    9.8066   15.4844 H   0  0  0  0  0  0  0  0  0  0  0  0
    4.3520    8.7619   14.2726 H   0  0  0  0  0  0  0  0  0  0  0  0
    9.4675   10.6943   13.5572 C   0  0  0  0  0  0  0  0  0  0  0  0
    8.9717   11.2221   12.8957 H   0  0  0  0  0  0  0  0  0  0  0  0
   10.0668   10.0709   13.0964 H   0  0  0  0  0  0  0  0  0  0  0  0
    9.9934   11.2946   14.1253 H   0  0  0  0  0  0  0  0  0  0  0  0
    8.7141    7.2598   17.0791 C   0  0  0  0  0  0  0  0  0  0  0  0
    8.8426    6.3913   16.6455 H   0  0  0  0  0  0  0  0  0  0  0  0
    8.1316    7.1524   17.8598 H   0  0  0  0  0  0  0  0  0  0  0  0
    9.5824    7.6129   17.3644 H   0  0  0  0  0  0  0  0  0  0  0  0
    5.8102    7.6692   18.5701 C   0  0  0  0  0  0  0  0  0  0  0  0
    6.3144    8.9022   18.9924 C   0  0  0  0  0  0  0  0  0  0  0  0
    6.4915    9.5912   18.3628 H   0  0  0  0  0  0  0  0  0  0  0  0
    6.5529    9.1043   20.3442 C   0  0  0  0  0  0  0  0  0  0  0  0
    6.8756    9.9451   20.6442 H   0  0  0  0  0  0  0  0  0  0  0  0
    6.3235    8.0866   21.2613 C   0  0  0  0  0  0  0  0  0  0  0  0
    6.5268    8.2332   22.1787 H   0  0  0  0  0  0  0  0  0  0  0  0
    5.8011    6.8518   20.8696 C   0  0  0  0  0  0  0  0  0  0  0  0
    5.5166    6.7015   19.5218 C   0  0  0  0  0  0  0  0  0  0  0  0
    5.3126    3.2210   18.9065 C   0  0  0  0  0  0  0  0  0  0  0  0
    5.6109    2.0078   19.5416 C   0  0  0  0  0  0  0  0  0  0  0  0
    5.6238    1.2002   19.0412 H   0  0  0  0  0  0  0  0  0  0  0  0
    5.8864    1.9871   20.8973 C   0  0  0  0  0  0  0  0  0  0  0  0
    6.0778    1.1619   21.3276 H   0  0  0  0  0  0  0  0  0  0  0  0
    5.8860    3.1665   21.6299 C   0  0  0  0  0  0  0  0  0  0  0  0
    6.0977    3.1360   22.5547 H   0  0  0  0  0  0  0  0  0  0  0  0
    5.5826    4.3908   21.0441 C   0  0  0  0  0  0  0  0  0  0  0  0
    5.2770    4.3769   19.6778 C   0  0  0  0  0  0  0  0  0  0  0  0
    3.5000    2.1046   16.8977 C   0  0  0  0  0  0  0  0  0  0  0  0
    2.2689    2.5868   17.3842 C   0  0  0  0  0  0  0  0  0  0  0  0
    1.1301    1.8134   17.1772 C   0  0  0  0  0  0  0  0  0  0  0  0
    0.2897    2.1425   17.4737 H   0  0  0  0  0  0  0  0  0  0  0  0
    1.1858    0.5756   16.5489 C   0  0  0  0  0  0  0  0  0  0  0  0
    2.4190    0.1104   16.1145 C   0  0  0  0  0  0  0  0  0  0  0  0
    2.4635   -0.7419   15.6978 H   0  0  0  0  0  0  0  0  0  0  0  0
    3.5907    0.8421   16.2634 C   0  0  0  0  0  0  0  0  0  0  0  0
    2.1513    3.8921   18.1350 C   0  0  0  0  0  0  0  0  0  0  0  0
    1.2202    4.1976   18.1139 H   0  0  0  0  0  0  0  0  0  0  0  0
    2.7259    4.5643   17.7125 H   0  0  0  0  0  0  0  0  0  0  0  0
    2.4309    3.7606   19.0640 H   0  0  0  0  0  0  0  0  0  0  0  0
   -0.0620   -0.2411   16.3302 C   0  0  0  0  0  0  0  0  0  0  0  0
   -0.2878   -0.2430   15.3777 H   0  0  0  0  0  0  0  0  0  0  0  0
   -0.8006    0.1492   16.8411 H   0  0  0  0  0  0  0  0  0  0  0  0
    0.0931   -1.1619   16.6302 H   0  0  0  0  0  0  0  0  0  0  0  0
    4.8787    0.2526   15.7232 C   0  0  0  0  0  0  0  0  0  0  0  0
    4.6799   -0.5692   15.2304 H   0  0  0  0  0  0  0  0  0  0  0  0
    5.4826    0.0490   16.4676 H   0  0  0  0  0  0  0  0  0  0  0  0
    5.3069    0.8975   15.1237 H   0  0  0  0  0  0  0  0  0  0  0  0
    0.6154    8.1831   18.6484 C   0  0  0  0  0  0  0  0  0  0  0  0
    2.1045    6.6047   19.6130 F   0  0  0  0  0  0  0  0  0  0  0  0
    0.9453    7.3012   19.6712 C   0  0  0  0  0  0  0  0  0  0  0  0
    0.4829    6.0643   21.6371 F   0  0  0  0  0  0  0  0  0  0  0  0
    0.1166    6.9899   20.7367 C   0  0  0  0  0  0  0  0  0  0  0  0
   -1.9531    7.3078   21.8469 F   0  0  0  0  0  0  0  0  0  0  0  0
   -1.1132    7.5997   20.8434 C   0  0  0  0  0  0  0  0  0  0  0  0
   -2.6976    9.0909   19.9306 F   0  0  0  0  0  0  0  0  0  0  0  0
   -1.4870    8.5042   19.8724 C   0  0  0  0  0  0  0  0  0  0  0  0
   -1.1234    9.6183   17.8840 F   0  0  0  0  0  0  0  0  0  0  0  0
   -0.6301    8.7747   18.8206 C   0  0  0  0  0  0  0  0  0  0  0  0
    0.7144    7.4613   16.0583 C   0  0  0  0  0  0  0  0  0  0  0  0
   -0.5202    6.0116   17.5199 F   0  0  0  0  0  0  0  0  0  0  0  0
   -0.2056    6.4403   16.2705 C   0  0  0  0  0  0  0  0  0  0  0  0
   -1.7692    4.8076   15.5640 F   0  0  0  0  0  0  0  0  0  0  0  0
   -0.8861    5.7748   15.2601 C   0  0  0  0  0  0  0  0  0  0  0  0
   -1.3162    5.4753   12.9642 F   0  0  0  0  0  0  0  0  0  0  0  0
   -0.6571    6.1031   13.9492 C   0  0  0  0  0  0  0  0  0  0  0  0
    0.5280    7.4208   12.3967 F   0  0  0  0  0  0  0  0  0  0  0  0
    0.2802    7.0692   13.6728 C   0  0  0  0  0  0  0  0  0  0  0  0
    1.8731    8.6123   14.3397 F   0  0  0  0  0  0  0  0  0  0  0  0
    0.9519    7.6851   14.7086 C   0  0  0  0  0  0  0  0  0  0  0  0
    1.5059   10.0018   16.8893 C   0  0  0  0  0  0  0  0  0  0  0  0
   -0.2613   10.0144   15.2863 F   0  0  0  0  0  0  0  0  0  0  0  0
    0.7010   10.6746   15.9745 C   0  0  0  0  0  0  0  0  0  0  0  0
   -0.0431   12.5775   14.7754 F   0  0  0  0  0  0  0  0  0  0  0  0
    0.7721   12.0260   15.6953 C   0  0  0  0  0  0  0  0  0  0  0  0
    1.7742   14.1231   16.1145 F   0  0  0  0  0  0  0  0  0  0  0  0
    1.6785   12.8123   16.3652 C   0  0  0  0  0  0  0  0  0  0  0  0
    3.3975   12.9658   17.9561 F   0  0  0  0  0  0  0  0  0  0  0  0
    2.4917   12.2164   17.3019 C   0  0  0  0  0  0  0  0  0  0  0  0
    3.2171   10.3930   18.5120 F   0  0  0  0  0  0  0  0  0  0  0  0
    2.3864   10.8623   17.5473 C   0  0  0  0  0  0  0  0  0  0  0  0
    4.0458    3.2204   13.8644 C   0  0  0  0  0  0  0  0  0  0  0  0
    2.4528    4.5869   15.0122 F   0  0  0  0  0  0  0  0  0  0  0  0
    2.7240    3.5261   14.2114 C   0  0  0  0  0  0  0  0  0  0  0  0
    0.3775    3.2166   14.1936 F   0  0  0  0  0  0  0  0  0  0  0  0
    1.6033    2.8364   13.7983 C   0  0  0  0  0  0  0  0  0  0  0  0
    0.6861    1.0476   12.5458 F   0  0  0  0  0  0  0  0  0  0  0  0
    1.7461    1.7475   12.9663 C   0  0  0  0  0  0  0  0  0  0  0  0
    3.1821    0.3021   11.8030 F   0  0  0  0  0  0  0  0  0  0  0  0
    3.0157    1.3787   12.5959 C   0  0  0  0  0  0  0  0  0  0  0  0
    5.2905    1.5422   12.6713 F   0  0  0  0  0  0  0  0  0  0  0  0
    4.1124    2.0873   13.0552 C   0  0  0  0  0  0  0  0  0  0  0  0
    6.8088    3.4483   13.9942 C   0  0  0  0  0  0  0  0  0  0  0  0
    7.7571    3.1878   16.1823 F   0  0  0  0  0  0  0  0  0  0  0  0
    7.8372    3.0341   14.8318 C   0  0  0  0  0  0  0  0  0  0  0  0
    9.9510    2.0830   15.3018 F   0  0  0  0  0  0  0  0  0  0  0  0
    9.0393    2.4968   14.4073 C   0  0  0  0  0  0  0  0  0  0  0  0
   10.4618    1.9091   12.6098 F   0  0  0  0  0  0  0  0  0  0  0  0
    9.3044    2.4052   13.0539 C   0  0  0  0  0  0  0  0  0  0  0  0
    8.5917    2.7755   10.8559 F   0  0  0  0  0  0  0  0  0  0  0  0
    8.3530    2.8420   12.1686 C   0  0  0  0  0  0  0  0  0  0  0  0
    6.2709    3.7158   11.6892 F   0  0  0  0  0  0  0  0  0  0  0  0
    7.1450    3.3270   12.6398 C   0  0  0  0  0  0  0  0  0  0  0  0
    5.4133    5.6175   13.5000 C   0  0  0  0  0  0  0  0  0  0  0  0
    3.1193    5.6869   12.8093 F   0  0  0  0  0  0  0  0  0  0  0  0
    4.3861    6.1412   12.7074 C   0  0  0  0  0  0  0  0  0  0  0  0
    3.4883    7.5331   11.0159 F   0  0  0  0  0  0  0  0  0  0  0  0
    4.5420    7.1179   11.7354 C   0  0  0  0  0  0  0  0  0  0  0  0
    5.9592    8.5871   10.5538 F   0  0  0  0  0  0  0  0  0  0  0  0
    5.7865    7.6606   11.5121 C   0  0  0  0  0  0  0  0  0  0  0  0
    8.0544    7.7691   12.1096 F   0  0  0  0  0  0  0  0  0  0  0  0
    6.8349    7.2449   12.2887 C   0  0  0  0  0  0  0  0  0  0  0  0
    7.7631    5.9394   13.9279 F   0  0  0  0  0  0  0  0  0  0  0  0
    6.6330    6.2730   13.2490 C   0  0  0  0  0  0  0  0  0  0  0  0
  1  7  1  0  0  0  0
  2  3  1  0  0  0  0
  4  9  1  0  0  0  0
  5 23  1  0  0  0  0
  6 53  1  0  0  0  0
  7  8  1  0  0  0  0
  9  7  2  0  0  0  0
 10  9  1  0  0  0  0
 11 12  1  0  0  0  0
 12 13  1  0  0  0  0
 14 12  1  0  0  0  0
 15 12  1  0  0  0  0
 16 11  1  0  0  0  0
 17 16  1  0  0  0  0
 18 16  1  0  0  0  0
 19 16  1  0  0  0  0
 20  1  1  0  0  0  0
 21 20  1  0  0  0  0
 22 20  1  0  0  0  0
 23  2  1  0  0  0  0
 24 23  1  0  0  0  0
 25  1  1  0  0  0  0
 26 25  4  0  0  0  0
 27 26  4  0  0  0  0
 28 27  1  0  0  0  0
 29 27  4  0  0  0  0
 30 29  4  0  0  0  0
 31 30  1  0  0  0  0
 32 25  4  0  0  0  0
 33 26  1  0  0  0  0
 34 33  1  0  0  0  0
 35 33  1  0  0  0  0
 36 33  1  0  0  0  0
 37 29  1  0  0  0  0
 38 37  1  0  0  0  0
 39 37  1  0  0  0  0
 40 37  1  0  0  0  0
 41 32  1  0  0  0  0
 42 41  1  0  0  0  0
 43 41  1  0  0  0  0
 44 41  1  0  0  0  0
 45  1  1  0  0  0  0
 46 45  4  0  0  0  0
 47 46  1  0  0  0  0
 48 46  4  0  0  0  0
 49 48  1  0  0  0  0
 50 48  4  0  0  0  0
 51 50  1  0  0  0  0
 52 11  1  0  0  0  0
 53 45  4  0  0  0  0
 54  2  1  0  0  0  0
 55 54  4  0  0  0  0
 56 55  1  0  0  0  0
 57 55  4  0  0  0  0
 58 57  1  0  0  0  0
 59 57  4  0  0  0  0
 60 59  1  0  0  0  0
 61 11  1  0  0  0  0
 62  6  1  0  0  0  0
 63  2  1  0  0  0  0
 64 63  4  0  0  0  0
 65 64  4  0  0  0  0
 66 65  1  0  0  0  0
 67 65  4  0  0  0  0
 68 67  4  0  0  0  0
 69 68  1  0  0  0  0
 70 63  4  0  0  0  0
 71 64  1  0  0  0  0
 72 71  1  0  0  0  0
 73 71  1  0  0  0  0
 74 71  1  0  0  0  0
 75 67  1  0  0  0  0
 76 75  1  0  0  0  0
 77 75  1  0  0  0  0
 78 75  1  0  0  0  0
 79 70  1  0  0  0  0
 80 79  1  0  0  0  0
 81 79  1  0  0  0  0
 82 79  1  0  0  0  0
 83  4  1  0  0  0  0
 84 85  1  0  0  0  0
 85 83  4  0  0  0  0
 86 87  1  0  0  0  0
 87 85  4  0  0  0  0
 88 89  1  0  0  0  0
 89 87  4  0  0  0  0
 90 91  1  0  0  0  0
 91 89  4  0  0  0  0
 92 93  1  0  0  0  0
 93 83  4  0  0  0  0
 94  4  1  0  0  0  0
 95 96  1  0  0  0  0
 96 94  4  0  0  0  0
 97 98  1  0  0  0  0
 98 96  4  0  0  0  0
 99100  1  0  0  0  0
100 98  4  0  0  0  0
101102  1  0  0  0  0
102100  4  0  0  0  0
103104  1  0  0  0  0
104 94  4  0  0  0  0
105  4  1  0  0  0  0
106107  1  0  0  0  0
107105  4  0  0  0  0
108109  1  0  0  0  0
109107  4  0  0  0  0
110111  1  0  0  0  0
111109  4  0  0  0  0
112113  1  0  0  0  0
113111  4  0  0  0  0
114115  1  0  0  0  0
115105  4  0  0  0  0
116  5  1  0  0  0  0
117118  1  0  0  0  0
118116  4  0  0  0  0
119120  1  0  0  0  0
120118  4  0  0  0  0
121122  1  0  0  0  0
122120  4  0  0  0  0
123124  1  0  0  0  0
124122  4  0  0  0  0
125126  1  0  0  0  0
126116  4  0  0  0  0
127  5  1  0  0  0  0
128129  1  0  0  0  0
129127  4  0  0  0  0
130131  1  0  0  0  0
131129  4  0  0  0  0
132133  1  0  0  0  0
133131  4  0  0  0  0
134135  1  0  0  0  0
135133  4  0  0  0  0
136137  1  0  0  0  0
137127  4  0  0  0  0
138  5  1  0  0  0  0
139140  1  0  0  0  0
140138  4  0  0  0  0
141142  1  0  0  0  0
142140  4  0  0  0  0
143144  1  0  0  0  0
144142  4  0  0  0  0
145146  1  0  0  0  0
146144  4  0  0  0  0
147148  1  0  0  0  0
148138  4  0  0  0  0
 20 23  1  0  0  0  0
 30 32  4  0  0  0  0
 50 52  4  0  0  0  0
 52 53  4  0  0  0  0
 54 62  4  0  0  0  0
 59 61  4  0  0  0  0
 61 62  4  0  0  0  0
 68 70  4  0  0  0  0
 91 93  4  0  0  0  0
102104  4  0  0  0  0
113115  4  0  0  0  0
124126  4  0  0  0  0
135137  4  0  0  0  0
146148  4  0  0  0  0
M  CHG  4   1   1   2   1   4  -1   5  -1
M  END
$$$$
RAWLEG

From CSD data. Using bond type 'Any'. No disordered atoms. Largest molecule.
 95104  0  0  0  0  0  0  0  0999 V2000
    2.4059    5.5616   14.8376 Pt  0  0  0  0  0  0  0  0  0  0  0  0
    1.4665    4.7180   13.2359 B   0  0  0  0  0  0  0  0  0  0  0  0
    0.2420    5.0396   12.6197 O   0  0  0  0  0  0  0  0  0  0  0  0
    2.0434    3.6346   12.5294 O   0  0  0  0  0  0  0  0  0  0  0  0
    0.0852    4.1592   11.5579 C   0  0  0  0  0  0  0  0  0  0  0  0
    1.1789    3.3220   11.5017 C   0  0  0  0  0  0  0  0  0  0  0  0
    1.2945    2.3469   10.5422 C   0  0  0  0  0  0  0  0  0  0  0  0
    0.2418    2.2505    9.6249 C   0  0  0  0  0  0  0  0  0  0  0  0
   -0.8443    3.0762    9.6891 C   0  0  0  0  0  0  0  0  0  0  0  0
   -0.9538    4.0633   10.6666 C   0  0  0  0  0  0  0  0  0  0  0  0
    0.7822    4.6324   15.6949 B   0  0  0  0  0  0  0  0  0  0  0  0
    0.7511    3.3397   16.2308 O   0  0  0  0  0  0  0  0  0  0  0  0
   -0.4829    5.2210   15.8876 O   0  0  0  0  0  0  0  0  0  0  0  0
   -0.5079    3.1795   16.7768 C   0  0  0  0  0  0  0  0  0  0  0  0
   -1.2421    4.3132   16.5740 C   0  0  0  0  0  0  0  0  0  0  0  0
   -2.5422    4.4106   16.9976 C   0  0  0  0  0  0  0  0  0  0  0  0
   -3.0827    3.3253   17.6499 C   0  0  0  0  0  0  0  0  0  0  0  0
   -2.3569    2.2106   17.8707 C   0  0  0  0  0  0  0  0  0  0  0  0
   -1.0287    2.0865   17.4412 C   0  0  0  0  0  0  0  0  0  0  0  0
    3.1350    5.9000   17.0502 P   0  0  0  0  0  0  0  0  0  0  0  0
    4.5006    7.0258   17.5616 C   0  0  0  0  0  0  0  0  0  0  0  0
    5.7272    6.8704   16.9474 C   0  0  0  0  0  0  0  0  0  0  0  0
    6.8061    7.6828   17.2866 C   0  0  0  0  0  0  0  0  0  0  0  0
    6.6615    8.6516   18.2541 C   0  0  0  0  0  0  0  0  0  0  0  0
    5.4514    8.8123   18.8744 C   0  0  0  0  0  0  0  0  0  0  0  0
    4.3649    8.0008   18.5392 C   0  0  0  0  0  0  0  0  0  0  0  0
    3.7432    4.3209   17.7503 C   0  0  0  0  0  0  0  0  0  0  0  0
    3.7466    3.1778   16.9635 C   0  0  0  0  0  0  0  0  0  0  0  0
    4.2613    1.9853   17.4512 C   0  0  0  0  0  0  0  0  0  0  0  0
    4.7492    1.9207   18.7399 C   0  0  0  0  0  0  0  0  0  0  0  0
    4.7486    3.0430   19.5388 C   0  0  0  0  0  0  0  0  0  0  0  0
    4.2564    4.2510   19.0430 C   0  0  0  0  0  0  0  0  0  0  0  0
    1.7319    6.4788   18.0815 C   0  0  0  0  0  0  0  0  0  0  0  0
    1.0361    7.5860   17.5978 C   0  0  0  0  0  0  0  0  0  0  0  0
   -0.0702    8.0805   18.2762 C   0  0  0  0  0  0  0  0  0  0  0  0
   -0.5057    7.4677   19.4284 C   0  0  0  0  0  0  0  0  0  0  0  0
    0.1776    6.3786   19.9161 C   0  0  0  0  0  0  0  0  0  0  0  0
    1.2954    5.8864   19.2578 C   0  0  0  0  0  0  0  0  0  0  0  0
    4.0174    6.5163   13.4242 P   0  0  0  0  0  0  0  0  0  0  0  0
    3.7236    6.3255   11.6241 C   0  0  0  0  0  0  0  0  0  0  0  0
    4.5460    5.5851   10.8051 C   0  0  0  0  0  0  0  0  0  0  0  0
    4.2622    5.4509    9.4542 C   0  0  0  0  0  0  0  0  0  0  0  0
    3.1659    6.0713    8.8982 C   0  0  0  0  0  0  0  0  0  0  0  0
    2.3503    6.8320    9.7172 C   0  0  0  0  0  0  0  0  0  0  0  0
    2.6126    6.9483   11.0701 C   0  0  0  0  0  0  0  0  0  0  0  0
    5.6616    5.7314   13.5953 C   0  0  0  0  0  0  0  0  0  0  0  0
    6.8598    6.4064   13.4046 C   0  0  0  0  0  0  0  0  0  0  0  0
    8.0573    5.7195   13.4588 C   0  0  0  0  0  0  0  0  0  0  0  0
    8.0626    4.3612   13.6876 C   0  0  0  0  0  0  0  0  0  0  0  0
    6.8836    3.6826   13.8803 C   0  0  0  0  0  0  0  0  0  0  0  0
    5.6764    4.3659   13.8522 C   0  0  0  0  0  0  0  0  0  0  0  0
    4.2765    8.3139   13.5411 C   0  0  0  0  0  0  0  0  0  0  0  0
    4.9084    9.0370   12.5354 C   0  0  0  0  0  0  0  0  0  0  0  0
    5.1338   10.3981   12.6759 C   0  0  0  0  0  0  0  0  0  0  0  0
    4.7200   11.0308   13.8361 C   0  0  0  0  0  0  0  0  0  0  0  0
    4.0631   10.3473   14.8137 C   0  0  0  0  0  0  0  0  0  0  0  0
    3.8431    8.9837   14.6752 C   0  0  0  0  0  0  0  0  0  0  0  0
    2.0473    1.7696   10.5020 H   0  0  0  0  0  0  0  0  0  0  0  0
    0.2833    1.5945    8.9404 H   0  0  0  0  0  0  0  0  0  0  0  0
   -1.5430    2.9765    9.0508 H   0  0  0  0  0  0  0  0  0  0  0  0
   -1.7077    4.6382   10.7148 H   0  0  0  0  0  0  0  0  0  0  0  0
   -3.0512    5.1986   16.8470 H   0  0  0  0  0  0  0  0  0  0  0  0
   -3.9829    3.3627   17.9490 H   0  0  0  0  0  0  0  0  0  0  0  0
   -2.7596    1.4850   18.3324 H   0  0  0  0  0  0  0  0  0  0  0  0
   -0.5195    1.3014   17.5957 H   0  0  0  0  0  0  0  0  0  0  0  0
    5.8369    6.2005   16.2830 H   0  0  0  0  0  0  0  0  0  0  0  0
    7.6419    7.5686   16.8510 H   0  0  0  0  0  0  0  0  0  0  0  0
    7.3960    9.2059   18.4910 H   0  0  0  0  0  0  0  0  0  0  0  0
    5.3495    9.4817   19.5408 H   0  0  0  0  0  0  0  0  0  0  0  0
    3.5321    8.1163   18.9808 H   0  0  0  0  0  0  0  0  0  0  0  0
    3.3937    3.2117   16.0823 H   0  0  0  0  0  0  0  0  0  0  0  0
    4.2791    1.2132   16.8972 H   0  0  0  0  0  0  0  0  0  0  0  0
    5.0859    1.0995   19.0771 H   0  0  0  0  0  0  0  0  0  0  0  0
    5.0829    2.9951   20.4260 H   0  0  0  0  0  0  0  0  0  0  0  0
    4.2703    5.0285   19.5890 H   0  0  0  0  0  0  0  0  0  0  0  0
    1.3221    8.0071   16.7968 H   0  0  0  0  0  0  0  0  0  0  0  0
   -0.5274    8.8441   17.9450 H   0  0  0  0  0  0  0  0  0  0  0  0
   -1.2730    7.7936   19.8820 H   0  0  0  0  0  0  0  0  0  0  0  0
   -0.1195    5.9581   20.7150 H   0  0  0  0  0  0  0  0  0  0  0  0
    1.7641    5.1401   19.6131 H   0  0  0  0  0  0  0  0  0  0  0  0
    5.3142    5.1628   11.1685 H   0  0  0  0  0  0  0  0  0  0  0  0
    4.8302    4.9244    8.9063 H   0  0  0  0  0  0  0  0  0  0  0  0
    2.9740    5.9792    7.9729 H   0  0  0  0  0  0  0  0  0  0  0  0
    1.6004    7.2815    9.3438 H   0  0  0  0  0  0  0  0  0  0  0  0
    2.0296    7.4564   11.6221 H   0  0  0  0  0  0  0  0  0  0  0  0
    6.8559    7.3420   13.2380 H   0  0  0  0  0  0  0  0  0  0  0  0
    8.8772    6.1834   13.3383 H   0  0  0  0  0  0  0  0  0  0  0  0
    8.8878    3.8898   13.7157 H   0  0  0  0  0  0  0  0  0  0  0  0
    6.8943    2.7446   14.0308 H   0  0  0  0  0  0  0  0  0  0  0  0
    4.8626    3.9022   14.0067 H   0  0  0  0  0  0  0  0  0  0  0  0
    5.1887    8.5941   11.7425 H   0  0  0  0  0  0  0  0  0  0  0  0
    5.5658   10.8878   11.9874 H   0  0  0  0  0  0  0  0  0  0  0  0
    4.8965   11.9575   13.9505 H   0  0  0  0  0  0  0  0  0  0  0  0
    3.7573   10.8020   15.5905 H   0  0  0  0  0  0  0  0  0  0  0  0
    3.3909    8.5074   15.3596 H   0  0  0  0  0  0  0  0  0  0  0  0
  1  2  1  0  0  0  0
  2  3  1  0  0  0  0
  3  5  1  0  0  0  0
  4  2  1  0  0  0  0
  5  6  4  0  0  0  0
  6  4  1  0  0  0  0
  7  6  4  0  0  0  0
  8  7  4  0  0  0  0
  9  8  4  0  0  0  0
 10  5  4  0  0  0  0
 11  1  1  0  0  0  0
 12 11  1  0  0  0  0
 13 11  1  0  0  0  0
 14 12  1  0  0  0  0
 15 13  1  0  0  0  0
 16 15  4  0  0  0  0
 17 16  4  0  0  0  0
 18 17  4  0  0  0  0
 19 14  4  0  0  0  0
 20  1  1  0  0  0  0
 21 20  1  0  0  0  0
 22 21  4  0  0  0  0
 23 22  4  0  0  0  0
 24 23  4  0  0  0  0
 25 24  4  0  0  0  0
 26 21  4  0  0  0  0
 27 20  1  0  0  0  0
 28 27  4  0  0  0  0
 29 28  4  0  0  0  0
 30 29  4  0  0  0  0
 31 30  4  0  0  0  0
 32 27  4  0  0  0  0
 33 20  1  0  0  0  0
 34 33  4  0  0  0  0
 35 34  4  0  0  0  0
 36 35  4  0  0  0  0
 37 36  4  0  0  0  0
 38 33  4  0  0  0  0
 39  1  1  0  0  0  0
 40 39  1  0  0  0  0
 41 40  4  0  0  0  0
 42 41  4  0  0  0  0
 43 42  4  0  0  0  0
 44 43  4  0  0  0  0
 45 40  4  0  0  0  0
 46 39  1  0  0  0  0
 47 46  4  0  0  0  0
 48 47  4  0  0  0  0
 49 48  4  0  0  0  0
 50 49  4  0  0  0  0
 51 46  4  0  0  0  0
 52 39  1  0  0  0  0
 53 52  4  0  0  0  0
 54 53  4  0  0  0  0
 55 54  4  0  0  0  0
 56 55  4  0  0  0  0
 57 52  4  0  0  0  0
 58  7  1  0  0  0  0
 59  8  1  0  0  0  0
 60  9  1  0  0  0  0
 61 10  1  0  0  0  0
 62 16  1  0  0  0  0
 63 17  1  0  0  0  0
 64 18  1  0  0  0  0
 65 19  1  0  0  0  0
 66 22  1  0  0  0  0
 67 23  1  0  0  0  0
 68 24  1  0  0  0  0
 69 25  1  0  0  0  0
 70 26  1  0  0  0  0
 71 28  1  0  0  0  0
 72 29  1  0  0  0  0
 73 30  1  0  0  0  0
 74 31  1  0  0  0  0
 75 32  1  0  0  0  0
 76 34  1  0  0  0  0
 77 35  1  0  0  0  0
 78 36  1  0  0  0  0
 79 37  1  0  0  0  0
 80 38  1  0  0  0  0
 81 41  1  0  0  0  0
 82 42  1  0  0  0  0
 83 43  1  0  0  0  0
 84 44  1  0  0  0  0
 85 45  1  0  0  0  0
 86 47  1  0  0  0  0
 87 48  1  0  0  0  0
 88 49  1  0  0  0  0
 89 50  1  0  0  0  0
 90 51  1  0  0  0  0
 91 53  1  0  0  0  0
 92 54  1  0  0  0  0
 93 55  1  0  0  0  0
 94 56  1  0  0  0  0
 95 57  1  0  0  0  0
  9 10  4  0  0  0  0
 14 15  4  0  0  0  0
 18 19  4  0  0  0  0
 25 26  4  0  0  0  0
 31 32  4  0  0  0  0
 37 38  4  0  0  0  0
 44 45  4  0  0  0  0
 50 51  4  0  0  0  0
 56 57  4  0  0  0  0
M  END
$$$$
RAWLIK

From CSD data. Using bond type 'Any'. No disordered atoms. Largest molecule.
119128  0  0  0  0  0  0  0  0999 V2000
    2.4386    9.3496    9.5043 Pt  0  0  0  0  0  0  0  0  0  0  0  0
    0.7819    8.7383   10.5377 B   0  0  0  0  0  0  0  0  0  0  0  0
    0.6149    7.3741   10.9218 O   0  0  0  0  0  0  0  0  0  0  0  0
   -0.2615    9.4839   11.1153 O   0  0  0  0  0  0  0  0  0  0  0  0
   -0.4369    7.3480   11.8384 C   0  0  0  0  0  0  0  0  0  0  0  0
   -0.8714    6.2884   12.5766 C   0  0  0  0  0  0  0  0  0  0  0  0
   -1.9172    6.5214   13.4917 C   0  0  0  0  0  0  0  0  0  0  0  0
   -2.4494    7.7973   13.5772 C   0  0  0  0  0  0  0  0  0  0  0  0
   -1.9806    8.8695   12.8256 C   0  0  0  0  0  0  0  0  0  0  0  0
   -0.9529    8.6192   11.9464 C   0  0  0  0  0  0  0  0  0  0  0  0
   -2.4410    5.3850   14.3918 C   0  0  0  0  0  0  0  0  0  0  0  0
   -2.8726    5.9263   15.7631 C   0  0  0  0  0  0  0  0  0  0  0  0
   -3.6497    4.7402   13.7272 C   0  0  0  0  0  0  0  0  0  0  0  0
   -1.3618    4.3196   14.6379 C   0  0  0  0  0  0  0  0  0  0  0  0
    1.2404    8.5941    8.0263 B   0  0  0  0  0  0  0  0  0  0  0  0
    0.4864    9.4013    7.1397 O   0  0  0  0  0  0  0  0  0  0  0  0
    1.0814    7.2460    7.6392 O   0  0  0  0  0  0  0  0  0  0  0  0
   -0.0650    8.5711    6.1975 C   0  0  0  0  0  0  0  0  0  0  0  0
   -0.8507    8.8966    5.1278 C   0  0  0  0  0  0  0  0  0  0  0  0
   -1.3089    7.8432    4.2817 C   0  0  0  0  0  0  0  0  0  0  0  0
   -0.9236    6.5380    4.5997 C   0  0  0  0  0  0  0  0  0  0  0  0
   -0.1158    6.2115    5.6994 C   0  0  0  0  0  0  0  0  0  0  0  0
    0.2996    7.2502    6.4796 C   0  0  0  0  0  0  0  0  0  0  0  0
   -2.1765    8.1781    3.0500 C   0  0  0  0  0  0  0  0  0  0  0  0
   -1.3455    9.1092    2.1138 C   0  0  0  0  0  0  0  0  0  0  0  0
   -2.5771    6.9847    2.2234 C   0  0  0  0  0  0  0  0  0  0  0  0
   -3.4059    8.9958    3.4566 C   0  0  0  0  0  0  0  0  0  0  0  0
    4.2453    9.4755    8.0113 P   0  0  0  0  0  0  0  0  0  0  0  0
    5.1342   11.0519    7.7833 C   0  0  0  0  0  0  0  0  0  0  0  0
    4.5150   12.2249    8.1598 C   0  0  0  0  0  0  0  0  0  0  0  0
    5.0650   13.4538    7.8358 C   0  0  0  0  0  0  0  0  0  0  0  0
    6.2645   13.5259    7.1472 C   0  0  0  0  0  0  0  0  0  0  0  0
    6.9045   12.3414    6.7946 C   0  0  0  0  0  0  0  0  0  0  0  0
    6.3707   11.1109    7.1322 C   0  0  0  0  0  0  0  0  0  0  0  0
    3.8287    9.1207    6.2800 C   0  0  0  0  0  0  0  0  0  0  0  0
    3.6643   10.1385    5.3289 C   0  0  0  0  0  0  0  0  0  0  0  0
    3.2419    9.8741    4.0402 C   0  0  0  0  0  0  0  0  0  0  0  0
    2.9504    8.5831    3.6651 C   0  0  0  0  0  0  0  0  0  0  0  0
    3.1012    7.5637    4.5712 C   0  0  0  0  0  0  0  0  0  0  0  0
    3.5404    7.8161    5.8585 C   0  0  0  0  0  0  0  0  0  0  0  0
    5.5066    8.2064    8.4149 C   0  0  0  0  0  0  0  0  0  0  0  0
    6.3985    7.7434    7.4037 C   0  0  0  0  0  0  0  0  0  0  0  0
    7.3853    6.8108    7.7458 C   0  0  0  0  0  0  0  0  0  0  0  0
    7.4811    6.3604    9.0795 C   0  0  0  0  0  0  0  0  0  0  0  0
    6.5961    6.7554    9.9841 C   0  0  0  0  0  0  0  0  0  0  0  0
    5.5595    7.6526    9.6361 C   0  0  0  0  0  0  0  0  0  0  0  0
    3.2367   10.3539   11.4799 P   0  0  0  0  0  0  0  0  0  0  0  0
    4.7235   11.4276   11.4259 C   0  0  0  0  0  0  0  0  0  0  0  0
    4.6395   12.8070   11.5789 C   0  0  0  0  0  0  0  0  0  0  0  0
    5.7621   13.6205   11.4124 C   0  0  0  0  0  0  0  0  0  0  0  0
    6.9847   13.0546   11.1198 C   0  0  0  0  0  0  0  0  0  0  0  0
    7.0903   11.6894   10.9668 C   0  0  0  0  0  0  0  0  0  0  0  0
    5.9684   10.8805   11.1378 C   0  0  0  0  0  0  0  0  0  0  0  0
    1.9628   11.4830   12.1490 C   0  0  0  0  0  0  0  0  0  0  0  0
    1.3587   12.3529   11.2713 C   0  0  0  0  0  0  0  0  0  0  0  0
    0.4406   13.2950   11.6944 C   0  0  0  0  0  0  0  0  0  0  0  0
    0.0832   13.3446   13.0101 C   0  0  0  0  0  0  0  0  0  0  0  0
    0.6384   12.4690   13.9178 C   0  0  0  0  0  0  0  0  0  0  0  0
    1.5683   11.5467   13.4872 C   0  0  0  0  0  0  0  0  0  0  0  0
    3.6176    9.2065   12.8751 C   0  0  0  0  0  0  0  0  0  0  0  0
    4.1987    9.6882   14.0528 C   0  0  0  0  0  0  0  0  0  0  0  0
    4.3873    8.8183   15.1330 C   0  0  0  0  0  0  0  0  0  0  0  0
    4.0075    7.4985   15.0249 C   0  0  0  0  0  0  0  0  0  0  0  0
    3.4488    7.0120   13.8653 C   0  0  0  0  0  0  0  0  0  0  0  0
    3.2682    7.8705   12.7866 C   0  0  0  0  0  0  0  0  0  0  0  0
   -0.4854    5.4262   12.4775 H   0  0  0  0  0  0  0  0  0  0  0  0
   -3.1696    7.9468   14.1788 H   0  0  0  0  0  0  0  0  0  0  0  0
   -2.3546    9.7394   12.9156 H   0  0  0  0  0  0  0  0  0  0  0  0
   -2.1263    6.4127   16.1711 H   0  0  0  0  0  0  0  0  0  0  0  0
   -3.1345    5.1817   16.3437 H   0  0  0  0  0  0  0  0  0  0  0  0
   -3.6340    6.5340   15.6476 H   0  0  0  0  0  0  0  0  0  0  0  0
   -3.9938    4.0239   14.3033 H   0  0  0  0  0  0  0  0  0  0  0  0
   -3.3856    4.3666   12.8601 H   0  0  0  0  0  0  0  0  0  0  0  0
   -4.3473    5.4158   13.5922 H   0  0  0  0  0  0  0  0  0  0  0  0
   -0.5619    4.7444   15.0114 H   0  0  0  0  0  0  0  0  0  0  0  0
   -1.1344    3.8833   13.7887 H   0  0  0  0  0  0  0  0  0  0  0  0
   -1.7012    3.6508   15.2710 H   0  0  0  0  0  0  0  0  0  0  0  0
   -1.0848    9.8000    4.9508 H   0  0  0  0  0  0  0  0  0  0  0  0
   -1.2271    5.8316    4.0402 H   0  0  0  0  0  0  0  0  0  0  0  0
    0.1311    5.3144    5.8900 H   0  0  0  0  0  0  0  0  0  0  0  0
   -1.0628    9.9018    2.6149 H   0  0  0  0  0  0  0  0  0  0  0  0
   -1.8959    9.3814    1.3502 H   0  0  0  0  0  0  0  0  0  0  0  0
   -0.5557    8.6264    1.7898 H   0  0  0  0  0  0  0  0  0  0  0  0
   -1.7776    6.4758    1.9743 H   0  0  0  0  0  0  0  0  0  0  0  0
   -3.0358    7.2878    1.4117 H   0  0  0  0  0  0  0  0  0  0  0  0
   -3.1791    6.4137    2.7469 H   0  0  0  0  0  0  0  0  0  0  0  0
   -3.1233    9.7655    3.9922 H   0  0  0  0  0  0  0  0  0  0  0  0
   -4.0116    8.4352    3.9861 H   0  0  0  0  0  0  0  0  0  0  0  0
   -3.8688    9.3098    2.6494 H   0  0  0  0  0  0  0  0  0  0  0  0
    3.7004   12.1899    8.6474 H   0  0  0  0  0  0  0  0  0  0  0  0
    4.6159   14.2537    8.0863 H   0  0  0  0  0  0  0  0  0  0  0  0
    6.6442   14.3666    6.9206 H   0  0  0  0  0  0  0  0  0  0  0  0
    7.7239   12.3790    6.3130 H   0  0  0  0  0  0  0  0  0  0  0  0
    6.8396   10.3125    6.9221 H   0  0  0  0  0  0  0  0  0  0  0  0
    3.8482   11.0383    5.5764 H   0  0  0  0  0  0  0  0  0  0  0  0
    3.1514   10.5816    3.4131 H   0  0  0  0  0  0  0  0  0  0  0  0
    2.6457    8.3997    2.7830 H   0  0  0  0  0  0  0  0  0  0  0  0
    2.9013    6.6728    4.3117 H   0  0  0  0  0  0  0  0  0  0  0  0
    3.6498    7.0929    6.4676 H   0  0  0  0  0  0  0  0  0  0  0  0
    6.3254    8.0611    6.5096 H   0  0  0  0  0  0  0  0  0  0  0  0
    7.9858    6.4837    7.0827 H   0  0  0  0  0  0  0  0  0  0  0  0
    8.1845    5.7731    9.3300 H   0  0  0  0  0  0  0  0  0  0  0  0
    6.6586    6.4305   10.8768 H   0  0  0  0  0  0  0  0  0  0  0  0
    4.8908    7.8663   10.2782 H   0  0  0  0  0  0  0  0  0  0  0  0
    3.8048   13.2025   11.8024 H   0  0  0  0  0  0  0  0  0  0  0  0
    5.6832   14.5636   11.4994 H   0  0  0  0  0  0  0  0  0  0  0  0
    7.7530   13.6038   11.0238 H   0  0  0  0  0  0  0  0  0  0  0  0
    7.9282   11.2991   10.7463 H   0  0  0  0  0  0  0  0  0  0  0  0
    6.0566    9.9374   11.0553 H   0  0  0  0  0  0  0  0  0  0  0  0
    1.5791   12.3054   10.3457 H   0  0  0  0  0  0  0  0  0  0  0  0
    0.0612   13.9058   11.0703 H   0  0  0  0  0  0  0  0  0  0  0  0
   -0.5540   13.9868   13.3042 H   0  0  0  0  0  0  0  0  0  0  0  0
    0.3821   12.4998   14.8329 H   0  0  0  0  0  0  0  0  0  0  0  0
    1.9490   10.9422   14.1158 H   0  0  0  0  0  0  0  0  0  0  0  0
    4.4636   10.5979   14.1188 H   0  0  0  0  0  0  0  0  0  0  0  0
    4.7786    9.1365   15.9386 H   0  0  0  0  0  0  0  0  0  0  0  0
    4.1331    6.9143   15.7661 H   0  0  0  0  0  0  0  0  0  0  0  0
    3.1902    6.1013   13.8023 H   0  0  0  0  0  0  0  0  0  0  0  0
    2.9012    7.5355   11.9750 H   0  0  0  0  0  0  0  0  0  0  0  0
  1  2  1  0  0  0  0
  2  3  1  0  0  0  0
  3  5  1  0  0  0  0
  4  2  1  0  0  0  0
  5  6  4  0  0  0  0
  6  7  4  0  0  0  0
  7  8  4  0  0  0  0
  8  9  4  0  0  0  0
  9 10  4  0  0  0  0
 10  4  1  0  0  0  0
 11  7  1  0  0  0  0
 12 11  1  0  0  0  0
 13 11  1  0  0  0  0
 14 11  1  0  0  0  0
 15  1  1  0  0  0  0
 16 15  1  0  0  0  0
 17 15  1  0  0  0  0
 18 16  1  0  0  0  0
 19 18  4  0  0  0  0
 20 19  4  0  0  0  0
 21 20  4  0  0  0  0
 22 21  4  0  0  0  0
 23 17  1  0  0  0  0
 24 20  1  0  0  0  0
 25 24  1  0  0  0  0
 26 24  1  0  0  0  0
 27 24  1  0  0  0  0
 28  1  1  0  0  0  0
 29 28  1  0  0  0  0
 30 29  4  0  0  0  0
 31 30  4  0  0  0  0
 32 31  4  0  0  0  0
 33 32  4  0  0  0  0
 34 29  4  0  0  0  0
 35 28  1  0  0  0  0
 36 35  4  0  0  0  0
 37 36  4  0  0  0  0
 38 37  4  0  0  0  0
 39 38  4  0  0  0  0
 40 35  4  0  0  0  0
 41 28  1  0  0  0  0
 42 41  4  0  0  0  0
 43 42  4  0  0  0  0
 44 43  4  0  0  0  0
 45 44  4  0  0  0  0
 46 41  4  0  0  0  0
 47  1  1  0  0  0  0
 48 47  1  0  0  0  0
 49 48  4  0  0  0  0
 50 49  4  0  0  0  0
 51 50  4  0  0  0  0
 52 51  4  0  0  0  0
 53 48  4  0  0  0  0
 54 47  1  0  0  0  0
 55 54  4  0  0  0  0
 56 55  4  0  0  0  0
 57 56  4  0  0  0  0
 58 57  4  0  0  0  0
 59 54  4  0  0  0  0
 60 47  1  0  0  0  0
 61 60  4  0  0  0  0
 62 61  4  0  0  0  0
 63 62  4  0  0  0  0
 64 63  4  0  0  0  0
 65 60  4  0  0  0  0
 66  6  1  0  0  0  0
 67  8  1  0  0  0  0
 68  9  1  0  0  0  0
 69 12  1  0  0  0  0
 70 12  1  0  0  0  0
 71 12  1  0  0  0  0
 72 13  1  0  0  0  0
 73 13  1  0  0  0  0
 74 13  1  0  0  0  0
 75 14  1  0  0  0  0
 76 14  1  0  0  0  0
 77 14  1  0  0  0  0
 78 19  1  0  0  0  0
 79 21  1  0  0  0  0
 80 22  1  0  0  0  0
 81 25  1  0  0  0  0
 82 25  1  0  0  0  0
 83 25  1  0  0  0  0
 84 26  1  0  0  0  0
 85 26  1  0  0  0  0
 86 26  1  0  0  0  0
 87 27  1  0  0  0  0
 88 27  1  0  0  0  0
 89 27  1  0  0  0  0
 90 30  1  0  0  0  0
 91 31  1  0  0  0  0
 92 32  1  0  0  0  0
 93 33  1  0  0  0  0
 94 34  1  0  0  0  0
 95 36  1  0  0  0  0
 96 37  1  0  0  0  0
 97 38  1  0  0  0  0
 98 39  1  0  0  0  0
 99 40  1  0  0  0  0
100 42  1  0  0  0  0
101 43  1  0  0  0  0
102 44  1  0  0  0  0
103 45  1  0  0  0  0
104 46  1  0  0  0  0
105 49  1  0  0  0  0
106 50  1  0  0  0  0
107 51  1  0  0  0  0
108 52  1  0  0  0  0
109 53  1  0  0  0  0
110 55  1  0  0  0  0
111 56  1  0  0  0  0
112 57  1  0  0  0  0
113 58  1  0  0  0  0
114 59  1  0  0  0  0
115 61  1  0  0  0  0
116 62  1  0  0  0  0
117 63  1  0  0  0  0
118 64  1  0  0  0  0
119 65  1  0  0  0  0
  5 10  4  0  0  0  0
 18 23  4  0  0  0  0
 22 23  4  0  0  0  0
 33 34  4  0  0  0  0
 39 40  4  0  0  0  0
 45 46  4  0  0  0  0
 52 53  4  0  0  0  0
 58 59  4  0  0  0  0
 64 65  4  0  0  0  0
M  END
$$$$
RAWLOQ

From CSD data. Using bond type 'Any'. No disordered atoms. Largest molecule.
 79 87  0  0  0  0  0  0  0  0999 V2000
    3.1746    3.5407    3.0724 Pt  0  0  0  0  0  0  0  0  0  0  0  0
    4.9340    2.7851    3.8275 B   0  0  0  0  0  0  0  0  0  0  0  0
    6.1944    3.3004    3.4393 O   0  0  0  0  0  0  0  0  0  0  0  0
    5.1699    1.6971    4.7105 O   0  0  0  0  0  0  0  0  0  0  0  0
    7.1593    2.5600    4.0862 C   0  0  0  0  0  0  0  0  0  0  0  0
    6.5277    1.5833    4.8437 C   0  0  0  0  0  0  0  0  0  0  0  0
    7.2555    0.6866    5.5873 C   0  0  0  0  0  0  0  0  0  0  0  0
    8.6306    0.8123    5.5521 C   0  0  0  0  0  0  0  0  0  0  0  0
    9.2521    1.8059    4.8022 C   0  0  0  0  0  0  0  0  0  0  0  0
    8.5045    2.7037    4.0523 C   0  0  0  0  0  0  0  0  0  0  0  0
    3.9623    5.2697    3.8350 B   0  0  0  0  0  0  0  0  0  0  0  0
    3.6707    5.8165    5.1062 O   0  0  0  0  0  0  0  0  0  0  0  0
    4.7824    6.1515    3.1466 O   0  0  0  0  0  0  0  0  0  0  0  0
    4.2709    7.0488    5.1414 C   0  0  0  0  0  0  0  0  0  0  0  0
    4.9445    7.2631    3.9631 C   0  0  0  0  0  0  0  0  0  0  0  0
    5.6388    8.4171    3.6968 C   0  0  0  0  0  0  0  0  0  0  0  0
    5.5969    9.3866    4.6866 C   0  0  0  0  0  0  0  0  0  0  0  0
    4.9099    9.1883    5.8787 C   0  0  0  0  0  0  0  0  0  0  0  0
    4.2273    7.9981    6.1362 C   0  0  0  0  0  0  0  0  0  0  0  0
    1.4860    4.7682    2.0976 P   0  0  0  0  0  0  0  0  0  0  0  0
    0.1340    5.3525    3.1604 C   0  0  0  0  0  0  0  0  0  0  0  0
   -1.0426    5.8646    2.6278 C   0  0  0  0  0  0  0  0  0  0  0  0
   -2.0572    6.3299    3.4745 C   0  0  0  0  0  0  0  0  0  0  0  0
   -1.8527    6.2733    4.8688 C   0  0  0  0  0  0  0  0  0  0  0  0
   -0.6944    5.7589    5.3788 C   0  0  0  0  0  0  0  0  0  0  0  0
    0.3048    5.3090    4.5422 C   0  0  0  0  0  0  0  0  0  0  0  0
    2.0179    6.2244    1.1355 C   0  0  0  0  0  0  0  0  0  0  0  0
    1.5906    7.5080    1.4232 C   0  0  0  0  0  0  0  0  0  0  0  0
    2.0673    8.5840    0.6733 C   0  0  0  0  0  0  0  0  0  0  0  0
    2.9390    8.3895   -0.3618 C   0  0  0  0  0  0  0  0  0  0  0  0
    3.4114    7.1148   -0.6293 C   0  0  0  0  0  0  0  0  0  0  0  0
    2.9743    6.0440    0.1256 C   0  0  0  0  0  0  0  0  0  0  0  0
    0.6842    3.7004    0.8328 C   0  0  0  0  0  0  0  0  0  0  0  0
    0.5488    2.2786    1.3893 C   0  0  0  0  0  0  0  0  0  0  0  0
    2.1825    1.7038    2.0324 P   0  0  0  0  0  0  0  0  0  0  0  0
    1.8146    0.1090    2.8401 C   0  0  0  0  0  0  0  0  0  0  0  0
    0.5515   -0.4970    2.7710 C   0  0  0  0  0  0  0  0  0  0  0  0
    0.3536   -1.7394    3.3652 C   0  0  0  0  0  0  0  0  0  0  0  0
    1.3759   -2.3774    4.0385 C   0  0  0  0  0  0  0  0  0  0  0  0
    2.5979   -1.7738    4.1000 C   0  0  0  0  0  0  0  0  0  0  0  0
    2.8206   -0.5426    3.5373 C   0  0  0  0  0  0  0  0  0  0  0  0
    3.0527    1.2002    0.5025 C   0  0  0  0  0  0  0  0  0  0  0  0
    2.5121    0.2050   -0.3216 C   0  0  0  0  0  0  0  0  0  0  0  0
    3.1762   -0.1495   -1.4848 C   0  0  0  0  0  0  0  0  0  0  0  0
    4.3736    0.4464   -1.8239 C   0  0  0  0  0  0  0  0  0  0  0  0
    4.8924    1.4206   -1.0124 C   0  0  0  0  0  0  0  0  0  0  0  0
    4.2380    1.8103    0.1357 C   0  0  0  0  0  0  0  0  0  0  0  0
    6.8325    0.0090    6.1011 H   0  0  0  0  0  0  0  0  0  0  0  0
    9.1660    0.2063    6.0508 H   0  0  0  0  0  0  0  0  0  0  0  0
   10.1996    1.8724    4.8035 H   0  0  0  0  0  0  0  0  0  0  0  0
    8.9188    3.3875    3.5373 H   0  0  0  0  0  0  0  0  0  0  0  0
    6.1175    8.5439    2.8853 H   0  0  0  0  0  0  0  0  0  0  0  0
    6.0506   10.2098    4.5460 H   0  0  0  0  0  0  0  0  0  0  0  0
    4.9053    9.8763    6.5332 H   0  0  0  0  0  0  0  0  0  0  0  0
    3.7596    7.8539    6.9502 H   0  0  0  0  0  0  0  0  0  0  0  0
   -1.1589    5.9011    1.6857 H   0  0  0  0  0  0  0  0  0  0  0  0
   -2.8668    6.6752    3.1177 H   0  0  0  0  0  0  0  0  0  0  0  0
   -2.5251    6.5949    5.4579 H   0  0  0  0  0  0  0  0  0  0  0  0
   -0.5760    5.7105    6.3196 H   0  0  0  0  0  0  0  0  0  0  0  0
    1.1114    4.9679    4.9102 H   0  0  0  0  0  0  0  0  0  0  0  0
    0.9737    7.6576    2.1304 H   0  0  0  0  0  0  0  0  0  0  0  0
    1.7810    9.4653    0.8843 H   0  0  0  0  0  0  0  0  0  0  0  0
    3.2196    9.1234   -0.8944 H   0  0  0  0  0  0  0  0  0  0  0  0
    4.0347    6.9765   -1.3315 H   0  0  0  0  0  0  0  0  0  0  0  0
    3.3252    5.1772   -0.0402 H   0  0  0  0  0  0  0  0  0  0  0  0
   -0.2100    4.0594    0.6080 H   0  0  0  0  0  0  0  0  0  0  0  0
    1.2313    3.6888    0.0075 H   0  0  0  0  0  0  0  0  0  0  0  0
    0.2385    1.6684    0.6733 H   0  0  0  0  0  0  0  0  0  0  0  0
   -0.1202    2.2671    2.1178 H   0  0  0  0  0  0  0  0  0  0  0  0
   -0.1632   -0.0615    2.3213 H   0  0  0  0  0  0  0  0  0  0  0  0
   -0.4991   -2.1544    3.3074 H   0  0  0  0  0  0  0  0  0  0  0  0
    1.2306   -3.2203    4.4505 H   0  0  0  0  0  0  0  0  0  0  0  0
    3.3114   -2.2158    4.5447 H   0  0  0  0  0  0  0  0  0  0  0  0
    3.6731   -0.1324    3.6252 H   0  0  0  0  0  0  0  0  0  0  0  0
    1.6978   -0.2226   -0.0854 H   0  0  0  0  0  0  0  0  0  0  0  0
    2.8020   -0.8100   -2.0550 H   0  0  0  0  0  0  0  0  0  0  0  0
    4.8346    0.1827   -2.6128 H   0  0  0  0  0  0  0  0  0  0  0  0
    5.7149    1.8342   -1.2448 H   0  0  0  0  0  0  0  0  0  0  0  0
    4.6030    2.5009    0.6771 H   0  0  0  0  0  0  0  0  0  0  0  0
  1  2  1  0  0  0  0
  2  3  1  0  0  0  0
  3  5  1  0  0  0  0
  4  2  1  0  0  0  0
  5  6  4  0  0  0  0
  6  4  1  0  0  0  0
  7  6  4  0  0  0  0
  8  7  4  0  0  0  0
  9  8  4  0  0  0  0
 10  5  4  0  0  0  0
 11  1  1  0  0  0  0
 12 11  1  0  0  0  0
 13 11  1  0  0  0  0
 14 12  1  0  0  0  0
 15 13  1  0  0  0  0
 16 15  4  0  0  0  0
 17 16  4  0  0  0  0
 18 17  4  0  0  0  0
 19 14  4  0  0  0  0
 20  1  1  0  0  0  0
 21 20  1  0  0  0  0
 22 21  4  0  0  0  0
 23 22  4  0  0  0  0
 24 23  4  0  0  0  0
 25 24  4  0  0  0  0
 26 21  4  0  0  0  0
 27 20  1  0  0  0  0
 28 27  4  0  0  0  0
 29 28  4  0  0  0  0
 30 29  4  0  0  0  0
 31 30  4  0  0  0  0
 32 27  4  0  0  0  0
 33 20  1  0  0  0  0
 34 33  1  0  0  0  0
 35  1  1  0  0  0  0
 36 35  1  0  0  0  0
 37 36  4  0  0  0  0
 38 37  4  0  0  0  0
 39 38  4  0  0  0  0
 40 39  4  0  0  0  0
 41 36  4  0  0  0  0
 42 35  1  0  0  0  0
 43 42  4  0  0  0  0
 44 43  4  0  0  0  0
 45 44  4  0  0  0  0
 46 45  4  0  0  0  0
 47 42  4  0  0  0  0
 48  7  1  0  0  0  0
 49  8  1  0  0  0  0
 50  9  1  0  0  0  0
 51 10  1  0  0  0  0
 52 16  1  0  0  0  0
 53 17  1  0  0  0  0
 54 18  1  0  0  0  0
 55 19  1  0  0  0  0
 56 22  1  0  0  0  0
 57 23  1  0  0  0  0
 58 24  1  0  0  0  0
 59 25  1  0  0  0  0
 60 26  1  0  0  0  0
 61 28  1  0  0  0  0
 62 29  1  0  0  0  0
 63 30  1  0  0  0  0
 64 31  1  0  0  0  0
 65 32  1  0  0  0  0
 66 33  1  0  0  0  0
 67 33  1  0  0  0  0
 68 34  1  0  0  0  0
 69 34  1  0  0  0  0
 70 37  1  0  0  0  0
 71 38  1  0  0  0  0
 72 39  1  0  0  0  0
 73 40  1  0  0  0  0
 74 41  1  0  0  0  0
 75 43  1  0  0  0  0
 76 44  1  0  0  0  0
 77 45  1  0  0  0  0
 78 46  1  0  0  0  0
 79 47  1  0  0  0  0
  9 10  4  0  0  0  0
 14 15  4  0  0  0  0
 18 19  4  0  0  0  0
 25 26  4  0  0  0  0
 31 32  4  0  0  0  0
 34 35  1  0  0  0  0
 40 41  4  0  0  0  0
 46 47  4  0  0  0  0
M  END
$$$$
RAWLUW

From CSD data. Using bond type 'Any'. No disordered atoms. Largest molecule.
 85 93  0  0  0  0  0  0  0  0999 V2000
   -1.6489    0.0435    5.3269 Pt  0  0  0  0  0  0  0  0  0  0  0  0
   -0.9017    1.6383    6.3368 B   0  0  0  0  0  0  0  0  0  0  0  0
   -1.4219    2.1928    7.5620 O   0  0  0  0  0  0  0  0  0  0  0  0
    0.2607    2.3581    6.0258 O   0  0  0  0  0  0  0  0  0  0  0  0
   -0.5380    3.1710    7.9583 C   0  0  0  0  0  0  0  0  0  0  0  0
    0.4816    3.2767    7.0315 C   0  0  0  0  0  0  0  0  0  0  0  0
    1.5047    4.1743    7.1806 C   0  0  0  0  0  0  0  0  0  0  0  0
    1.4905    4.9422    8.3440 C   0  0  0  0  0  0  0  0  0  0  0  0
    0.4748    4.8167    9.2837 C   0  0  0  0  0  0  0  0  0  0  0  0
   -0.5587    3.9305    9.1026 C   0  0  0  0  0  0  0  0  0  0  0  0
   -0.6252   -1.4492    6.8090 P   0  0  0  0  0  0  0  0  0  0  0  0
    1.0433   -0.9447    7.3511 C   0  0  0  0  0  0  0  0  0  0  0  0
    1.1547    0.1486    8.1949 C   0  0  0  0  0  0  0  0  0  0  0  0
    2.3853    0.6413    8.5890 C   0  0  0  0  0  0  0  0  0  0  0  0
    3.5294    0.0146    8.1650 C   0  0  0  0  0  0  0  0  0  0  0  0
    3.4506   -1.0692    7.3426 C   0  0  0  0  0  0  0  0  0  0  0  0
    2.2159   -1.5515    6.9313 C   0  0  0  0  0  0  0  0  0  0  0  0
   -0.3391   -3.1668    6.2793 C   0  0  0  0  0  0  0  0  0  0  0  0
   -1.3847   -4.1011    6.1067 C   0  0  0  0  0  0  0  0  0  0  0  0
   -1.4740   -1.6708    8.4079 C   0  0  0  0  0  0  0  0  0  0  0  0
   -0.8705   -2.3947    9.4371 C   0  0  0  0  0  0  0  0  0  0  0  0
   -1.5294   -2.6333   10.6303 C   0  0  0  0  0  0  0  0  0  0  0  0
   -2.7984   -2.1583   10.8306 C   0  0  0  0  0  0  0  0  0  0  0  0
   -3.4122   -1.4364    9.8142 C   0  0  0  0  0  0  0  0  0  0  0  0
   -2.7545   -1.1968    8.6253 C   0  0  0  0  0  0  0  0  0  0  0  0
    2.1878    4.2685    6.5265 H   0  0  0  0  0  0  0  0  0  0  0  0
    2.1913    5.5647    8.4974 H   0  0  0  0  0  0  0  0  0  0  0  0
    0.4973    5.3534   10.0657 H   0  0  0  0  0  0  0  0  0  0  0  0
   -1.2569    3.8468    9.7397 H   0  0  0  0  0  0  0  0  0  0  0  0
    0.3661    0.5712    8.5123 H   0  0  0  0  0  0  0  0  0  0  0  0
    2.4388    1.4071    9.1494 H   0  0  0  0  0  0  0  0  0  0  0  0
    4.3792    0.3369    8.4442 H   0  0  0  0  0  0  0  0  0  0  0  0
    4.2452   -1.4981    7.0464 H   0  0  0  0  0  0  0  0  0  0  0  0
    2.1726   -2.3068    6.3582 H   0  0  0  0  0  0  0  0  0  0  0  0
    0.1440   -3.1208    5.4164 H   0  0  0  0  0  0  0  0  0  0  0  0
    0.2881   -3.5633    6.9335 H   0  0  0  0  0  0  0  0  0  0  0  0
   -2.1356   -3.8730    6.7119 H   0  0  0  0  0  0  0  0  0  0  0  0
   -1.0616   -5.0050    6.3475 H   0  0  0  0  0  0  0  0  0  0  0  0
    0.0094   -2.7306    9.3156 H   0  0  0  0  0  0  0  0  0  0  0  0
   -1.0984   -3.1302   11.3164 H   0  0  0  0  0  0  0  0  0  0  0  0
   -3.2512   -2.3184   11.6509 H   0  0  0  0  0  0  0  0  0  0  0  0
   -4.2927   -1.1048    9.9378 H   0  0  0  0  0  0  0  0  0  0  0  0
   -3.1884   -0.6968    7.9434 H   0  0  0  0  0  0  0  0  0  0  0  0
   -2.3961    1.6383    4.3169 B   0  0  0  0  0  0  0  0  0  0  0  0
   -1.8760    2.1928    3.0917 O   0  0  0  0  0  0  0  0  0  0  0  0
   -2.7599    3.1710    2.6954 C   0  0  0  0  0  0  0  0  0  0  0  0
   -3.7795    3.2767    3.6223 C   0  0  0  0  0  0  0  0  0  0  0  0
   -3.5585    2.3581    4.6280 O   0  0  0  0  0  0  0  0  0  0  0  0
   -4.8026    4.1743    3.4731 C   0  0  0  0  0  0  0  0  0  0  0  0
   -4.7884    4.9422    2.3097 C   0  0  0  0  0  0  0  0  0  0  0  0
   -3.7727    4.8167    1.3701 C   0  0  0  0  0  0  0  0  0  0  0  0
   -2.7392    3.9305    1.5512 C   0  0  0  0  0  0  0  0  0  0  0  0
   -2.0410    3.8468    0.9141 H   0  0  0  0  0  0  0  0  0  0  0  0
   -3.7952    5.3534    0.5881 H   0  0  0  0  0  0  0  0  0  0  0  0
   -5.4892    5.5647    2.1563 H   0  0  0  0  0  0  0  0  0  0  0  0
   -5.4857    4.2685    4.1273 H   0  0  0  0  0  0  0  0  0  0  0  0
   -1.9132   -4.1011    4.5470 C   0  0  0  0  0  0  0  0  0  0  0  0
   -2.9587   -3.1668    4.3744 C   0  0  0  0  0  0  0  0  0  0  0  0
   -2.6727   -1.4492    3.8447 P   0  0  0  0  0  0  0  0  0  0  0  0
   -4.3412   -0.9447    3.3027 C   0  0  0  0  0  0  0  0  0  0  0  0
   -4.4526    0.1486    2.4589 C   0  0  0  0  0  0  0  0  0  0  0  0
   -5.6832    0.6413    2.0647 C   0  0  0  0  0  0  0  0  0  0  0  0
   -6.8273    0.0146    2.4887 C   0  0  0  0  0  0  0  0  0  0  0  0
   -6.7485   -1.0692    3.3112 C   0  0  0  0  0  0  0  0  0  0  0  0
   -5.5138   -1.5515    3.7224 C   0  0  0  0  0  0  0  0  0  0  0  0
   -5.4705   -2.3068    4.2956 H   0  0  0  0  0  0  0  0  0  0  0  0
   -7.5430   -1.4981    3.6074 H   0  0  0  0  0  0  0  0  0  0  0  0
   -7.6771    0.3369    2.2096 H   0  0  0  0  0  0  0  0  0  0  0  0
   -5.7367    1.4071    1.5043 H   0  0  0  0  0  0  0  0  0  0  0  0
   -3.6639    0.5712    2.1414 H   0  0  0  0  0  0  0  0  0  0  0  0
   -1.8239   -1.6708    2.2458 C   0  0  0  0  0  0  0  0  0  0  0  0
   -2.4274   -2.3947    1.2167 C   0  0  0  0  0  0  0  0  0  0  0  0
   -1.7684   -2.6333    0.0234 C   0  0  0  0  0  0  0  0  0  0  0  0
   -0.4994   -2.1583   -0.1769 C   0  0  0  0  0  0  0  0  0  0  0  0
    0.1143   -1.4364    0.8395 C   0  0  0  0  0  0  0  0  0  0  0  0
   -0.5434   -1.1968    2.0285 C   0  0  0  0  0  0  0  0  0  0  0  0
   -0.1095   -0.6968    2.7103 H   0  0  0  0  0  0  0  0  0  0  0  0
    0.9948   -1.1048    0.7159 H   0  0  0  0  0  0  0  0  0  0  0  0
   -0.0467   -2.3184   -0.9972 H   0  0  0  0  0  0  0  0  0  0  0  0
   -2.1995   -3.1302   -0.6627 H   0  0  0  0  0  0  0  0  0  0  0  0
   -3.3073   -2.7306    1.3381 H   0  0  0  0  0  0  0  0  0  0  0  0
   -3.4419   -3.1208    5.2374 H   0  0  0  0  0  0  0  0  0  0  0  0
   -3.5860   -3.5633    3.7203 H   0  0  0  0  0  0  0  0  0  0  0  0
   -1.1623   -3.8730    3.9419 H   0  0  0  0  0  0  0  0  0  0  0  0
   -2.2363   -5.0050    4.3062 H   0  0  0  0  0  0  0  0  0  0  0  0
  1  2  1  0  0  0  0
  2  3  1  0  0  0  0
  3  5  1  0  0  0  0
  4  2  1  0  0  0  0
  5  6  4  0  0  0  0
  6  4  1  0  0  0  0
  7  6  4  0  0  0  0
  8  7  4  0  0  0  0
  9  8  4  0  0  0  0
 10  5  4  0  0  0  0
 11  1  1  0  0  0  0
 12 11  1  0  0  0  0
 13 12  4  0  0  0  0
 14 13  4  0  0  0  0
 15 14  4  0  0  0  0
 16 15  4  0  0  0  0
 17 12  4  0  0  0  0
 18 11  1  0  0  0  0
 19 18  1  0  0  0  0
 20 11  1  0  0  0  0
 21 20  4  0  0  0  0
 22 21  4  0  0  0  0
 23 22  4  0  0  0  0
 24 23  4  0  0  0  0
 25 20  4  0  0  0  0
 26  7  1  0  0  0  0
 27  8  1  0  0  0  0
 28  9  1  0  0  0  0
 29 10  1  0  0  0  0
 30 13  1  0  0  0  0
 31 14  1  0  0  0  0
 32 15  1  0  0  0  0
 33 16  1  0  0  0  0
 34 17  1  0  0  0  0
 35 18  1  0  0  0  0
 36 18  1  0  0  0  0
 37 19  1  0  0  0  0
 38 19  1  0  0  0  0
 39 21  1  0  0  0  0
 40 22  1  0  0  0  0
 41 23  1  0  0  0  0
 42 24  1  0  0  0  0
 43 25  1  0  0  0  0
 44  1  1  0  0  0  0
 45 44  1  0  0  0  0
 46 45  1  0  0  0  0
 47 46  4  0  0  0  0
 48 44  1  0  0  0  0
 49 47  4  0  0  0  0
 50 49  4  0  0  0  0
 51 50  4  0  0  0  0
 52 46  4  0  0  0  0
 53 52  1  0  0  0  0
 54 51  1  0  0  0  0
 55 50  1  0  0  0  0
 56 49  1  0  0  0  0
 57 19  1  0  0  0  0
 58 57  1  0  0  0  0
 59  1  1  0  0  0  0
 60 59  1  0  0  0  0
 61 60  4  0  0  0  0
 62 61  4  0  0  0  0
 63 62  4  0  0  0  0
 64 63  4  0  0  0  0
 65 60  4  0  0  0  0
 66 65  1  0  0  0  0
 67 64  1  0  0  0  0
 68 63  1  0  0  0  0
 69 62  1  0  0  0  0
 70 61  1  0  0  0  0
 71 59  1  0  0  0  0
 72 71  4  0  0  0  0
 73 72  4  0  0  0  0
 74 73  4  0  0  0  0
 75 74  4  0  0  0  0
 76 71  4  0  0  0  0
 77 76  1  0  0  0  0
 78 75  1  0  0  0  0
 79 74  1  0  0  0  0
 80 73  1  0  0  0  0
 81 72  1  0  0  0  0
 82 58  1  0  0  0  0
 83 58  1  0  0  0  0
 84 57  1  0  0  0  0
 85 57  1  0  0  0  0
  9 10  4  0  0  0  0
 16 17  4  0  0  0  0
 24 25  4  0  0  0  0
 47 48  1  0  0  0  0
 51 52  4  0  0  0  0
 58 59  1  0  0  0  0
 64 65  4  0  0  0  0
 75 76  4  0  0  0  0
M  END
$$$$
RAWSAN

From CSD data. Using bond type 'Any'. No disordered atoms. Largest molecule.
 70 89  0  0  0  0  0  0  0  0999 V2000
    6.6908   12.5717   14.3763 B   0  0  0  0  0  0  0  0  0  0  0  0
    5.7598   12.0248   14.6717 H   0  0  0  0  0  0  0  0  0  0  0  0
    7.2313   14.1300   13.5618 B   0  0  0  0  0  0  0  0  0  0  0  0
    6.7000   15.1098   13.4489 H   0  0  0  0  0  0  0  0  0  0  0  0
    8.2555   13.1905   12.3425 B   0  0  0  0  0  0  0  0  0  0  0  0
    8.2152   13.4033   11.2429 H   0  0  0  0  0  0  0  0  0  0  0  0
    7.9666   13.5313   15.0978 B   0  0  0  0  0  0  0  0  0  0  0  0
    7.7158   14.0719   16.0454 H   0  0  0  0  0  0  0  0  0  0  0  0
    8.9866   14.1271   13.7391 B   0  0  0  0  0  0  0  0  0  0  0  0
    9.4699   15.1349   13.6641 H   0  0  0  0  0  0  0  0  0  0  0  0
    9.8350   12.7103   13.0967 B   0  0  0  0  0  0  0  0  0  0  0  0
   10.7638   12.8691   12.4924 H   0  0  0  0  0  0  0  0  0  0  0  0
    9.6433   12.9639   14.8632 B   0  0  0  0  0  0  0  0  0  0  0  0
   10.4376   13.2885   15.5838 H   0  0  0  0  0  0  0  0  0  0  0  0
    8.8133   11.3355   12.6766 B   0  0  0  0  0  0  0  0  0  0  0  0
    9.8230   11.3262   14.2314 B   0  0  0  0  0  0  0  0  0  0  0  0
   10.6717   10.9241   14.8404 H   0  0  0  0  0  0  0  0  0  0  0  0
    8.2970   11.7353   15.2236 B   0  0  0  0  0  0  0  0  0  0  0  0
    8.0170   11.1769   16.1520 H   0  0  0  0  0  0  0  0  0  0  0  0
    6.4731    8.4571   14.4518 C   0  0  0  0  0  0  0  0  0  0  0  0
    5.4467    9.1035   13.7667 C   0  0  0  0  0  0  0  0  0  0  0  0
    5.6478    9.8575   13.2247 H   0  0  0  0  0  0  0  0  0  0  0  0
    4.1336    8.6593   13.8661 C   0  0  0  0  0  0  0  0  0  0  0  0
    3.4488    9.0903   13.3690 H   0  0  0  0  0  0  0  0  0  0  0  0
    3.8230    7.5899   14.6881 C   0  0  0  0  0  0  0  0  0  0  0  0
    2.9232    7.2977   14.7693 H   0  0  0  0  0  0  0  0  0  0  0  0
    4.8291    6.9487   15.3912 C   0  0  0  0  0  0  0  0  0  0  0  0
    4.6169    6.2203   15.9633 H   0  0  0  0  0  0  0  0  0  0  0  0
    6.1408    7.3654   15.2636 C   0  0  0  0  0  0  0  0  0  0  0  0
    6.8265    6.9051   15.7325 H   0  0  0  0  0  0  0  0  0  0  0  0
    9.0717    8.3300   15.6124 C   0  0  0  0  0  0  0  0  0  0  0  0
   10.1828    7.5051   15.4325 C   0  0  0  0  0  0  0  0  0  0  0  0
   10.4770    7.2941   14.5541 H   0  0  0  0  0  0  0  0  0  0  0  0
   10.8623    6.9913   16.5330 C   0  0  0  0  0  0  0  0  0  0  0  0
   11.6317    6.4498   16.4049 H   0  0  0  0  0  0  0  0  0  0  0  0
   10.4225    7.2665   17.8024 C   0  0  0  0  0  0  0  0  0  0  0  0
   10.8739    6.8925   18.5510 H   0  0  0  0  0  0  0  0  0  0  0  0
    9.3242    8.0859   17.9993 C   0  0  0  0  0  0  0  0  0  0  0  0
    9.0338    8.2872   18.8817 H   0  0  0  0  0  0  0  0  0  0  0  0
    8.6469    8.6134   16.9096 C   0  0  0  0  0  0  0  0  0  0  0  0
    7.8905    9.1709   17.0485 H   0  0  0  0  0  0  0  0  0  0  0  0
    8.3570   10.6783   13.9979 C   0  5  0  0  0  0  0  0  0  0  0  0
    6.7722   12.7662   12.8494 C   0  5  0  0  0  0  0  0  0  0  0  0
    5.6272   13.6394   10.3234 C   0  0  0  0  0  0  0  0  0  0  0  0
    5.6506   15.0180   10.5081 C   0  0  0  0  0  0  0  0  0  0  0  0
    5.5550   15.3787   11.3827 H   0  0  0  0  0  0  0  0  0  0  0  0
    5.8117   15.8694    9.4226 C   0  0  0  0  0  0  0  0  0  0  0  0
    5.8339   16.8092    9.5585 H   0  0  0  0  0  0  0  0  0  0  0  0
    5.9421   15.3531    8.1386 C   0  0  0  0  0  0  0  0  0  0  0  0
    6.0539   15.9398    7.3991 H   0  0  0  0  0  0  0  0  0  0  0  0
    5.9099   13.9929    7.9406 C   0  0  0  0  0  0  0  0  0  0  0  0
    5.9950   13.6381    7.0640 H   0  0  0  0  0  0  0  0  0  0  0  0
    5.7526   13.1347    9.0249 C   0  0  0  0  0  0  0  0  0  0  0  0
    5.7299   12.1951    8.8816 H   0  0  0  0  0  0  0  0  0  0  0  0
    3.9065   12.8422   12.5212 C   0  0  0  0  0  0  0  0  0  0  0  0
    2.8307   11.9841   12.3290 C   0  0  0  0  0  0  0  0  0  0  0  0
    2.9291   11.2181   11.7755 H   0  0  0  0  0  0  0  0  0  0  0  0
    1.6127   12.2440   12.9451 C   0  0  0  0  0  0  0  0  0  0  0  0
    0.8846   11.6465   12.8186 H   0  0  0  0  0  0  0  0  0  0  0  0
    1.4483   13.3567   13.7351 C   0  0  0  0  0  0  0  0  0  0  0  0
    0.6087   13.5323   14.1413 H   0  0  0  0  0  0  0  0  0  0  0  0
    2.5143   14.2198   13.9378 C   0  0  0  0  0  0  0  0  0  0  0  0
    2.4071   14.9879   14.4875 H   0  0  0  0  0  0  0  0  0  0  0  0
    3.7414   13.9575   13.3341 C   0  0  0  0  0  0  0  0  0  0  0  0
    4.4720   14.5469   13.4799 H   0  0  0  0  0  0  0  0  0  0  0  0
    5.4641   11.0756   11.1357 O   0  0  0  0  0  0  0  0  0  0  0  0
    8.7147    8.2280   12.9191 O   0  0  0  0  0  0  0  0  0  0  0  0
    8.2007    8.9406   14.1428 P   0  0  0  0  0  0  0  0  0  0  0  0
    5.4940   12.4620   11.6992 P   0  0  0  0  0  0  0  0  0  0  0  0
    8.9860   10.8345   11.7600 H   0  0  0  0  0  0  0  0  0  0  0  0
  1  2  1  0  0  0  0
  3  1  1  0  0  0  0
  4  3  1  0  0  0  0
  5  3  1  0  0  0  0
  6  5  1  0  0  0  0
  7  1  1  0  0  0  0
  8  7  1  0  0  0  0
  9  3  1  0  0  0  0
 10  9  1  0  0  0  0
 11  5  1  0  0  0  0
 12 11  1  0  0  0  0
 13  7  1  0  0  0  0
 14 13  1  0  0  0  0
 15  5  1  0  0  0  0
 16 11  1  0  0  0  0
 17 16  1  0  0  0  0
 18  1  1  0  0  0  0
 19 18  1  0  0  0  0
 20 21  4  0  0  0  0
 21 22  1  0  0  0  0
 23 21  4  0  0  0  0
 24 23  1  0  0  0  0
 25 23  4  0  0  0  0
 26 25  1  0  0  0  0
 27 25  4  0  0  0  0
 28 27  1  0  0  0  0
 29 20  4  0  0  0  0
 30 29  1  0  0  0  0
 31 32  4  0  0  0  0
 32 33  1  0  0  0  0
 34 32  4  0  0  0  0
 35 34  1  0  0  0  0
 36 34  4  0  0  0  0
 37 36  1  0  0  0  0
 38 36  4  0  0  0  0
 39 38  1  0  0  0  0
 40 31  4  0  0  0  0
 41 40  1  0  0  0  0
 42 15  1  0  0  0  0
 43  1  1  0  0  0  0
 44 45  4  0  0  0  0
 45 46  1  0  0  0  0
 47 45  4  0  0  0  0
 48 47  1  0  0  0  0
 49 47  4  0  0  0  0
 50 49  1  0  0  0  0
 51 49  4  0  0  0  0
 52 51  1  0  0  0  0
 53 44  4  0  0  0  0
 54 53  1  0  0  0  0
 55 56  4  0  0  0  0
 56 57  1  0  0  0  0
 58 56  4  0  0  0  0
 59 58  1  0  0  0  0
 60 58  4  0  0  0  0
 61 60  1  0  0  0  0
 62 60  4  0  0  0  0
 63 62  1  0  0  0  0
 64 55  4  0  0  0  0
 65 64  1  0  0  0  0
 66 69  2  0  0  0  0
 67 68  2  0  0  0  0
 68 20  1  0  0  0  0
 69 43  1  0  0  0  0
 70 15  1  0  0  0  0
  3  7  1  0  0  0  0
  3 43  1  0  0  0  0
  5  9  1  0  0  0  0
  5 43  1  0  0  0  0
  7  9  1  0  0  0  0
  7 18  1  0  0  0  0
  9 11  1  0  0  0  0
  9 13  1  0  0  0  0
 11 13  1  0  0  0  0
 11 15  1  0  0  0  0
 13 16  1  0  0  0  0
 13 18  1  0  0  0  0
 15 16  1  0  0  0  0
 16 18  1  0  0  0  0
 16 42  1  0  0  0  0
 18 42  1  0  0  0  0
 27 29  4  0  0  0  0
 31 68  1  0  0  0  0
 38 40  4  0  0  0  0
 42 68  1  0  0  0  0
 44 69  1  0  0  0  0
 51 53  4  0  0  0  0
 55 69  1  0  0  0  0
 62 64  4  0  0  0  0
M  CHG  2  42  -1  43  -1
M  END
$$$$
RAWSUH

From CSD data. Using bond type 'Any'. No disordered atoms. Largest molecule.
 71 90  0  0  0  0  0  0  0  0999 V2000
   -2.0075    9.0444   31.9613 P   0  0  0  0  0  0  0  0  0  0  0  0
   -5.8151    4.9518   31.1579 P   0  0  0  0  0  0  0  0  0  0  0  0
   -0.9021    9.4364   32.8914 O   0  0  0  0  0  0  0  0  0  0  0  0
   -5.2967    3.6680   30.6515 O   0  0  0  0  0  0  0  0  0  0  0  0
   -3.0376    7.6537   32.4871 C   0  0  0  0  0  0  0  0  0  0  0  0
   -3.5256    7.3105   31.6853 H   0  0  0  0  0  0  0  0  0  0  0  0
   -4.9200    5.5525   32.6251 C   0  5  0  0  0  0  0  0  0  0  0  0
   -1.3788    8.6100   30.3054 C   0  0  0  0  0  0  0  0  0  0  0  0
   -0.9037    7.3251   30.1003 C   0  0  0  0  0  0  0  0  0  0  0  0
   -0.9614    6.6776   30.7902 H   0  0  0  0  0  0  0  0  0  0  0  0
   -0.3308    6.9833   28.8472 C   0  0  0  0  0  0  0  0  0  0  0  0
   -0.0046    6.1039   28.7017 H   0  0  0  0  0  0  0  0  0  0  0  0
   -0.2491    7.9323   27.8477 C   0  0  0  0  0  0  0  0  0  0  0  0
    0.1266    7.6942   27.0086 H   0  0  0  0  0  0  0  0  0  0  0  0
   -0.7022    9.2123   28.0453 C   0  0  0  0  0  0  0  0  0  0  0  0
   -0.6493    9.8550   27.3479 H   0  0  0  0  0  0  0  0  0  0  0  0
   -1.2421    9.5615   29.2873 C   0  0  0  0  0  0  0  0  0  0  0  0
   -1.5216   10.4567   29.4402 H   0  0  0  0  0  0  0  0  0  0  0  0
   -3.1793   10.3840   31.6592 C   0  0  0  0  0  0  0  0  0  0  0  0
   -4.2324   10.2436   30.7380 C   0  0  0  0  0  0  0  0  0  0  0  0
   -4.3406    9.4267   30.2644 H   0  0  0  0  0  0  0  0  0  0  0  0
   -5.1053   11.2777   30.5180 C   0  0  0  0  0  0  0  0  0  0  0  0
   -5.7829   11.1899   29.8579 H   0  0  0  0  0  0  0  0  0  0  0  0
   -5.0039   12.4623   31.2564 C   0  0  0  0  0  0  0  0  0  0  0  0
   -5.6262   13.1674   31.1259 H   0  0  0  0  0  0  0  0  0  0  0  0
   -3.9857   12.5901   32.1850 C   0  0  0  0  0  0  0  0  0  0  0  0
   -3.9122   13.3842   32.6997 H   0  0  0  0  0  0  0  0  0  0  0  0
   -3.0629   11.5592   32.3640 C   0  0  0  0  0  0  0  0  0  0  0  0
   -2.3493   11.6687   32.9831 H   0  0  0  0  0  0  0  0  0  0  0  0
   -5.6259    6.2514   29.9213 C   0  0  0  0  0  0  0  0  0  0  0  0
   -6.6067    7.1455   29.5297 C   0  0  0  0  0  0  0  0  0  0  0  0
   -7.4626    7.1103   29.9399 H   0  0  0  0  0  0  0  0  0  0  0  0
   -6.3540    8.0969   28.5414 C   0  0  0  0  0  0  0  0  0  0  0  0
   -7.0523    8.6826   28.2691 H   0  0  0  0  0  0  0  0  0  0  0  0
   -5.1308    8.2028   27.9633 C   0  0  0  0  0  0  0  0  0  0  0  0
   -4.9715    8.8566   27.2920 H   0  0  0  0  0  0  0  0  0  0  0  0
   -4.1100    7.3408   28.3624 C   0  0  0  0  0  0  0  0  0  0  0  0
   -3.2455    7.4251   27.9782 H   0  0  0  0  0  0  0  0  0  0  0  0
   -4.3414    6.3580   29.3208 C   0  0  0  0  0  0  0  0  0  0  0  0
   -3.6453    5.7613   29.5670 H   0  0  0  0  0  0  0  0  0  0  0  0
   -7.5929    4.8670   31.5398 C   0  0  0  0  0  0  0  0  0  0  0  0
   -8.2249    3.6687   31.2154 C   0  0  0  0  0  0  0  0  0  0  0  0
   -7.7298    2.9445   30.8499 H   0  0  0  0  0  0  0  0  0  0  0  0
   -9.6114    3.5518   31.4317 C   0  0  0  0  0  0  0  0  0  0  0  0
  -10.0593    2.7393   31.2228 H   0  0  0  0  0  0  0  0  0  0  0  0
  -10.3122    4.6037   31.9463 C   0  0  0  0  0  0  0  0  0  0  0  0
  -11.2518    4.5270   32.0657 H   0  0  0  0  0  0  0  0  0  0  0  0
   -9.6775    5.7768   32.3006 C   0  0  0  0  0  0  0  0  0  0  0  0
  -10.1710    6.4930   32.6848 H   0  0  0  0  0  0  0  0  0  0  0  0
   -8.3293    5.8975   32.0918 C   0  0  0  0  0  0  0  0  0  0  0  0
   -7.8923    6.7052   32.3342 H   0  0  0  0  0  0  0  0  0  0  0  0
   -3.6399    7.8184   33.9901 B   0  0  0  0  0  0  0  0  0  0  0  0
   -3.5865    8.9236   34.1691 H   0  0  0  0  0  0  0  0  0  0  0  0
   -2.3334    6.6096   33.5202 B   0  0  0  0  0  0  0  0  0  0  0  0
   -1.2407    6.7504   33.3188 H   0  0  0  0  0  0  0  0  0  0  0  0
   -3.2861    5.3066   32.5990 B   0  0  0  0  0  0  0  0  0  0  0  0
   -2.8716    5.0562   31.6107 H   0  0  0  0  0  0  0  0  0  0  0  0
   -4.3658    4.3719   33.7215 B   0  0  0  0  0  0  0  0  0  0  0  0
   -4.5596    3.2707   33.6581 H   0  0  0  0  0  0  0  0  0  0  0  0
   -5.6382    5.5106   34.1691 B   0  0  0  0  0  0  0  0  0  0  0  0
   -6.6803    5.1769   34.4040 H   0  0  0  0  0  0  0  0  0  0  0  0
   -5.1716    7.0370   33.2554 B   0  0  0  0  0  0  0  0  0  0  0  0
   -5.8574    7.8869   32.8302 H   0  0  0  0  0  0  0  0  0  0  0  0
   -3.0960    6.5606   35.1835 B   0  0  0  0  0  0  0  0  0  0  0  0
   -2.5163    6.8494   36.0972 H   0  0  0  0  0  0  0  0  0  0  0  0
   -2.8391    5.0377   34.2362 B   0  0  0  0  0  0  0  0  0  0  0  0
   -2.0204    4.3135   34.4861 H   0  0  0  0  0  0  0  0  0  0  0  0
   -4.2693    5.2328   35.2506 B   0  0  0  0  0  0  0  0  0  0  0  0
   -4.4041    4.6988   36.2277 H   0  0  0  0  0  0  0  0  0  0  0  0
   -4.8653    6.8953   34.9634 B   0  0  0  0  0  0  0  0  0  0  0  0
   -5.4708    7.4713   35.7093 H   0  0  0  0  0  0  0  0  0  0  0  0
  1  3  2  0  0  0  0
  2  4  2  0  0  0  0
  5  1  1  0  0  0  0
  6  5  1  0  0  0  0
  7  2  1  0  0  0  0
  8  1  1  0  0  0  0
  9  8  4  0  0  0  0
 10  9  1  0  0  0  0
 11  9  4  0  0  0  0
 12 11  1  0  0  0  0
 13 11  4  0  0  0  0
 14 13  1  0  0  0  0
 15 13  4  0  0  0  0
 16 15  1  0  0  0  0
 17  8  4  0  0  0  0
 18 17  1  0  0  0  0
 19  1  1  0  0  0  0
 20 19  4  0  0  0  0
 21 20  1  0  0  0  0
 22 20  4  0  0  0  0
 23 22  1  0  0  0  0
 24 22  4  0  0  0  0
 25 24  1  0  0  0  0
 26 24  4  0  0  0  0
 27 26  1  0  0  0  0
 28 19  4  0  0  0  0
 29 28  1  0  0  0  0
 30  2  1  0  0  0  0
 31 30  4  0  0  0  0
 32 31  1  0  0  0  0
 33 31  4  0  0  0  0
 34 33  1  0  0  0  0
 35 33  4  0  0  0  0
 36 35  1  0  0  0  0
 37 35  4  0  0  0  0
 38 37  1  0  0  0  0
 39 30  4  0  0  0  0
 40 39  1  0  0  0  0
 41  2  1  0  0  0  0
 42 41  4  0  0  0  0
 43 42  1  0  0  0  0
 44 42  4  0  0  0  0
 45 44  1  0  0  0  0
 46 44  4  0  0  0  0
 47 46  1  0  0  0  0
 48 46  4  0  0  0  0
 49 48  1  0  0  0  0
 50 41  4  0  0  0  0
 51 50  1  0  0  0  0
 52  5  1  0  0  0  0
 53 52  1  0  0  0  0
 54  5  1  0  0  0  0
 55 54  1  0  0  0  0
 56  7  1  0  0  0  0
 57 56  1  0  0  0  0
 58  7  1  0  0  0  0
 59 58  1  0  0  0  0
 60  7  1  0  0  0  0
 61 60  1  0  0  0  0
 62  7  1  0  0  0  0
 63 62  1  0  0  0  0
 64 52  1  0  0  0  0
 65 64  1  0  0  0  0
 66 54  1  0  0  0  0
 67 66  1  0  0  0  0
 68 58  1  0  0  0  0
 69 68  1  0  0  0  0
 70 52  1  0  0  0  0
 71 70  1  0  0  0  0
 15 17  4  0  0  0  0
 26 28  4  0  0  0  0
 37 39  4  0  0  0  0
 48 50  4  0  0  0  0
 52 54  1  0  0  0  0
 52 62  1  0  0  0  0
 54 56  1  0  0  0  0
 54 64  1  0  0  0  0
 56 58  1  0  0  0  0
 56 66  1  0  0  0  0
 58 60  1  0  0  0  0
 58 66  1  0  0  0  0
 60 62  1  0  0  0  0
 60 68  1  0  0  0  0
 60 70  1  0  0  0  0
 62 70  1  0  0  0  0
 64 66  1  0  0  0  0
 64 68  1  0  0  0  0
 64 70  1  0  0  0  0
 66 68  1  0  0  0  0
 68 70  1  0  0  0  0
M  CHG  1   7  -1
M  END
$$$$
RAXZUL

From CSD data. Using bond type 'Any'. No disordered atoms. Largest molecule.
 69 69  0  0  0  0  0  0  0  0999 V2000
    4.1311   12.0060    2.0648 Fe  0  0  0  0  0  0  0  0  0  0  0  0
    4.6604   13.7041    1.8828 C   0  0  0  0  0  0  0  0  0  0  0  0
    4.8641   14.8213    1.7189 O   0  0  0  0  0  0  0  0  0  0  0  0
    4.5012   10.7847    0.8007 C   0  0  0  0  0  0  0  0  0  0  0  0
    4.6569   10.0180   -0.0316 O   0  0  0  0  0  0  0  0  0  0  0  0
    3.1559   11.6805    3.5296 C   0  0  0  0  0  0  0  0  0  0  0  0
    2.4616   11.5258    4.4597 O   0  0  0  0  0  0  0  0  0  0  0  0
    2.6662   12.4525    1.1976 C   0  0  0  0  0  0  0  0  0  0  0  0
    1.7245   12.7638    0.6487 O   0  0  0  0  0  0  0  0  0  0  0  0
    6.0393   11.3118    3.1683 P   0  0  0  0  0  0  0  0  0  0  0  0
    6.4494    9.1426    3.5272 P   0  0  0  0  0  0  0  0  0  0  0  0
    6.2585   11.3941    5.1429 B   0  0  0  0  0  0  0  0  0  0  0  0
    7.0505    9.8735    5.2624 B   0  0  0  0  0  0  0  0  0  0  0  0
    5.5183   12.2427    5.9436 N   0  0  0  0  0  0  0  0  0  0  0  0
    8.0411    9.2842    6.0344 N   0  0  0  0  0  0  0  0  0  0  0  0
    7.6835   11.8392    2.3528 C   0  0  0  0  0  0  0  0  0  0  0  0
    7.8590   13.3382    2.6016 C   0  0  0  0  0  0  0  0  0  0  0  0
    8.7274   13.6130    2.2975 H   0  0  0  0  0  0  0  0  0  0  0  0
    7.7775   13.5197    3.5415 H   0  0  0  0  0  0  0  0  0  0  0  0
    7.1839   13.8237    2.1227 H   0  0  0  0  0  0  0  0  0  0  0  0
    7.6583   11.5346    0.8580 C   0  0  0  0  0  0  0  0  0  0  0  0
    8.5076   11.7608    0.4709 H   0  0  0  0  0  0  0  0  0  0  0  0
    6.9665   12.0493    0.4374 H   0  0  0  0  0  0  0  0  0  0  0  0
    7.4857   10.5986    0.7247 H   0  0  0  0  0  0  0  0  0  0  0  0
    4.8981    8.1726    4.0411 C   0  0  0  0  0  0  0  0  0  0  0  0
    8.8870   11.1571    2.9777 C   0  0  0  0  0  0  0  0  0  0  0  0
    9.6878   11.4554    2.5394 H   0  0  0  0  0  0  0  0  0  0  0  0
    8.8032   10.2061    2.8790 H   0  0  0  0  0  0  0  0  0  0  0  0
    8.9319   11.3791    3.9107 H   0  0  0  0  0  0  0  0  0  0  0  0
    4.2300    8.6904    5.3443 C   0  0  0  0  0  0  0  0  0  0  0  0
    3.5044    8.1101    5.5842 H   0  0  0  0  0  0  0  0  0  0  0  0
    3.8946    9.5778    5.2011 H   0  0  0  0  0  0  0  0  0  0  0  0
    4.8774    8.7040    6.0522 H   0  0  0  0  0  0  0  0  0  0  0  0
    5.4247    6.7647    4.2958 C   0  0  0  0  0  0  0  0  0  0  0  0
    4.6935    6.1844    4.5229 H   0  0  0  0  0  0  0  0  0  0  0  0
    6.0542    6.7839    5.0205 H   0  0  0  0  0  0  0  0  0  0  0  0
    5.8584    6.4361    3.5040 H   0  0  0  0  0  0  0  0  0  0  0  0
    5.2154   11.9870    7.3604 C   0  0  0  0  0  0  0  0  0  0  0  0
    5.4910   11.0963    7.5904 H   0  0  0  0  0  0  0  0  0  0  0  0
    4.2702   12.0775    7.5075 H   0  0  0  0  0  0  0  0  0  0  0  0
    5.6864   12.6205    7.9074 H   0  0  0  0  0  0  0  0  0  0  0  0
    3.8978    8.1449    2.9293 C   0  0  0  0  0  0  0  0  0  0  0  0
    3.2326    7.4795    3.1140 H   0  0  0  0  0  0  0  0  0  0  0  0
    4.3420    7.9348    2.1049 H   0  0  0  0  0  0  0  0  0  0  0  0
    3.4773    9.0037    2.8553 H   0  0  0  0  0  0  0  0  0  0  0  0
    4.9872   13.5296    5.5210 C   0  0  0  0  0  0  0  0  0  0  0  0
    5.1631   13.6583    4.5860 H   0  0  0  0  0  0  0  0  0  0  0  0
    5.4080   14.2301    6.0246 H   0  0  0  0  0  0  0  0  0  0  0  0
    4.0401   13.5508    5.6741 H   0  0  0  0  0  0  0  0  0  0  0  0
    8.6835    8.0044    5.6059 C   0  0  0  0  0  0  0  0  0  0  0  0
    8.2451    7.7159    4.8023 H   0  0  0  0  0  0  0  0  0  0  0  0
   10.1627    8.2029    5.2811 C   0  0  0  0  0  0  0  0  0  0  0  0
   10.2550    8.8906    4.6167 H   0  0  0  0  0  0  0  0  0  0  0  0
   10.5300    7.3806    4.9454 H   0  0  0  0  0  0  0  0  0  0  0  0
   10.6326    8.4636    6.0769 H   0  0  0  0  0  0  0  0  0  0  0  0
    8.4886    6.8916    6.6456 C   0  0  0  0  0  0  0  0  0  0  0  0
    7.5534    6.7924    6.8371 H   0  0  0  0  0  0  0  0  0  0  0  0
    8.9583    7.1204    7.4512 H   0  0  0  0  0  0  0  0  0  0  0  0
    8.8326    6.0656    6.2980 H   0  0  0  0  0  0  0  0  0  0  0  0
    8.5948    9.8495    7.2686 C   0  0  0  0  0  0  0  0  0  0  0  0
    9.4197    9.3826    7.4216 H   0  0  0  0  0  0  0  0  0  0  0  0
    8.9543   11.3234    7.1303 C   0  0  0  0  0  0  0  0  0  0  0  0
    9.5376   11.4413    6.3770 H   0  0  0  0  0  0  0  0  0  0  0  0
    9.3983   11.6194    7.9281 H   0  0  0  0  0  0  0  0  0  0  0  0
    8.1544   11.8372    6.9990 H   0  0  0  0  0  0  0  0  0  0  0  0
    7.7154    9.5942    8.5017 C   0  0  0  0  0  0  0  0  0  0  0  0
    7.4504    8.6729    8.5205 H   0  0  0  0  0  0  0  0  0  0  0  0
    6.9339   10.1518    8.4583 H   0  0  0  0  0  0  0  0  0  0  0  0
    8.2115    9.8012    9.2975 H   0  0  0  0  0  0  0  0  0  0  0  0
  1  2  1  0  0  0  0
  2  3  3  0  0  0  0
  4  1  1  0  0  0  0
  5  4  3  0  0  0  0
  6  1  1  0  0  0  0
  7  6  3  0  0  0  0
  8  1  1  0  0  0  0
  9  8  3  0  0  0  0
 10  1  1  0  0  0  0
 11 10  1  0  0  0  0
 12 10  1  0  0  0  0
 13 11  1  0  0  0  0
 14 12  1  0  0  0  0
 15 13  1  0  0  0  0
 16 10  1  0  0  0  0
 17 16  1  0  0  0  0
 18 17  1  0  0  0  0
 19 17  1  0  0  0  0
 20 17  1  0  0  0  0
 21 16  1  0  0  0  0
 22 21  1  0  0  0  0
 23 21  1  0  0  0  0
 24 21  1  0  0  0  0
 25 11  1  0  0  0  0
 26 16  1  0  0  0  0
 27 26  1  0  0  0  0
 28 26  1  0  0  0  0
 29 26  1  0  0  0  0
 30 25  1  0  0  0  0
 31 30  1  0  0  0  0
 32 30  1  0  0  0  0
 33 30  1  0  0  0  0
 34 25  1  0  0  0  0
 35 34  1  0  0  0  0
 36 34  1  0  0  0  0
 37 34  1  0  0  0  0
 38 14  1  0  0  0  0
 39 38  1  0  0  0  0
 40 38  1  0  0  0  0
 41 38  1  0  0  0  0
 42 25  1  0  0  0  0
 43 42  1  0  0  0  0
 44 42  1  0  0  0  0
 45 42  1  0  0  0  0
 46 14  1  0  0  0  0
 47 46  1  0  0  0  0
 48 46  1  0  0  0  0
 49 46  1  0  0  0  0
 50 15  1  0  0  0  0
 51 50  1  0  0  0  0
 52 50  1  0  0  0  0
 53 52  1  0  0  0  0
 54 52  1  0  0  0  0
 55 52  1  0  0  0  0
 56 50  1  0  0  0  0
 57 56  1  0  0  0  0
 58 56  1  0  0  0  0
 59 56  1  0  0  0  0
 60 15  1  0  0  0  0
 61 60  1  0  0  0  0
 62 60  1  0  0  0  0
 63 62  1  0  0  0  0
 64 62  1  0  0  0  0
 65 62  1  0  0  0  0
 66 60  1  0  0  0  0
 67 66  1  0  0  0  0
 68 66  1  0  0  0  0
 69 66  1  0  0  0  0
 12 13  1  0  0  0  0
M  END
$$$$
RAYBAU

From CSD data. Using bond type 'Any'. No disordered atoms. Largest molecule.
 69 70  0  0  0  0  0  0  0  0999 V2000
    1.6508    5.1583   12.0985 Cr  0  0  0  0  0  0  0  0  0  0  0  0
    1.7265    6.2065    9.8991 P   0  0  0  0  0  0  0  0  0  0  0  0
   -0.3168    6.4671   11.4608 P   0  0  0  0  0  0  0  0  0  0  0  0
    0.9278    7.7902   10.7205 B   0  0  0  0  0  0  0  0  0  0  0  0
   -0.1271    5.6862    9.7158 B   0  0  0  0  0  0  0  0  0  0  0  0
    1.2195    9.1176   10.8197 N   0  0  0  0  0  0  0  0  0  0  0  0
   -0.8815    4.9597    8.8208 N   0  0  0  0  0  0  0  0  0  0  0  0
    2.4677    6.5904   13.0052 C   0  0  0  0  0  0  0  0  0  0  0  0
    3.0435    7.3768   13.6094 O   0  0  0  0  0  0  0  0  0  0  0  0
    3.3095    4.4013   12.1786 C   0  0  0  0  0  0  0  0  0  0  0  0
    4.3846    3.9453   12.2248 O   0  0  0  0  0  0  0  0  0  0  0  0
    0.9978    3.5589   11.3451 C   0  0  0  0  0  0  0  0  0  0  0  0
    0.6907    2.5349   10.9173 O   0  0  0  0  0  0  0  0  0  0  0  0
    1.0917    4.4999   13.7138 C   0  0  0  0  0  0  0  0  0  0  0  0
    0.7325    4.0729   14.7338 O   0  0  0  0  0  0  0  0  0  0  0  0
    0.4312   10.0392   11.6618 C   0  0  0  0  0  0  0  0  0  0  0  0
   -0.2415    9.3919   11.8842 H   0  0  0  0  0  0  0  0  0  0  0  0
   -0.4450   10.9569   11.0319 C   0  0  0  0  0  0  0  0  0  0  0  0
   -0.8255   10.5512   10.2498 H   0  0  0  0  0  0  0  0  0  0  0  0
    0.0441   11.7433   10.7786 H   0  0  0  0  0  0  0  0  0  0  0  0
   -1.1469   11.1985   11.6412 H   0  0  0  0  0  0  0  0  0  0  0  0
    0.9373   10.1822   13.0378 C   0  0  0  0  0  0  0  0  0  0  0  0
    0.3173   10.7038   13.5546 H   0  0  0  0  0  0  0  0  0  0  0  0
    1.7893   10.6227   13.0223 H   0  0  0  0  0  0  0  0  0  0  0  0
    1.0321    9.3127   13.4365 H   0  0  0  0  0  0  0  0  0  0  0  0
    2.3706    9.6740   10.0684 C   0  0  0  0  0  0  0  0  0  0  0  0
    2.6829    8.8857    9.6183 H   0  0  0  0  0  0  0  0  0  0  0  0
    2.0459   10.5203    8.9440 C   0  0  0  0  0  0  0  0  0  0  0  0
    1.2996   10.1474    8.4682 H   0  0  0  0  0  0  0  0  0  0  0  0
    2.8031   10.5763    8.3553 H   0  0  0  0  0  0  0  0  0  0  0  0
    1.8187   11.3975    9.2589 H   0  0  0  0  0  0  0  0  0  0  0  0
    3.5598    9.9793   10.9104 C   0  0  0  0  0  0  0  0  0  0  0  0
    4.3088   10.1802   10.3439 H   0  0  0  0  0  0  0  0  0  0  0  0
    3.7673    9.2180   11.4564 H   0  0  0  0  0  0  0  0  0  0  0  0
    3.3691   10.7347   11.4718 H   0  0  0  0  0  0  0  0  0  0  0  0
   -1.9077    6.7160   12.4405 C   0  0  0  0  0  0  0  0  0  0  0  0
   -2.9453    7.5004   11.6344 C   0  0  0  0  0  0  0  0  0  0  0  0
   -3.7452    7.6009   12.1546 H   0  0  0  0  0  0  0  0  0  0  0  0
   -3.1477    7.0251   10.8249 H   0  0  0  0  0  0  0  0  0  0  0  0
   -2.5938    8.3660   11.4170 H   0  0  0  0  0  0  0  0  0  0  0  0
   -2.4208    5.3036   12.7691 C   0  0  0  0  0  0  0  0  0  0  0  0
   -3.2353    5.3674   13.2722 H   0  0  0  0  0  0  0  0  0  0  0  0
   -1.7611    4.8360   13.2859 H   0  0  0  0  0  0  0  0  0  0  0  0
   -2.5861    4.8245   11.9527 H   0  0  0  0  0  0  0  0  0  0  0  0
   -1.5628    7.4038   13.7446 C   0  0  0  0  0  0  0  0  0  0  0  0
   -2.3336    7.4077   14.3179 H   0  0  0  0  0  0  0  0  0  0  0  0
   -1.2910    8.3061   13.5700 H   0  0  0  0  0  0  0  0  0  0  0  0
   -0.8461    6.9304   14.1759 H   0  0  0  0  0  0  0  0  0  0  0  0
    3.1087    6.0185    8.6171 C   0  0  0  0  0  0  0  0  0  0  0  0
    2.8158    6.7469    7.3164 C   0  0  0  0  0  0  0  0  0  0  0  0
    3.5286    6.5865    6.6917 H   0  0  0  0  0  0  0  0  0  0  0  0
    2.7465    7.6898    7.4858 H   0  0  0  0  0  0  0  0  0  0  0  0
    1.9898    6.4262    6.9484 H   0  0  0  0  0  0  0  0  0  0  0  0
    4.4027    6.5402    9.2503 C   0  0  0  0  0  0  0  0  0  0  0  0
    5.1385    6.3701    8.6582 H   0  0  0  0  0  0  0  0  0  0  0  0
    4.5538    6.0919   10.0855 H   0  0  0  0  0  0  0  0  0  0  0  0
    4.3261    7.4850    9.4027 H   0  0  0  0  0  0  0  0  0  0  0  0
    3.2747    4.5346    8.3895 C   0  0  0  0  0  0  0  0  0  0  0  0
    4.0195    4.3839    7.8025 H   0  0  0  0  0  0  0  0  0  0  0  0
    2.4767    4.1811    7.9907 H   0  0  0  0  0  0  0  0  0  0  0  0
    3.4349    4.0980    9.2281 H   0  0  0  0  0  0  0  0  0  0  0  0
   -0.3740    4.4342    7.5372 C   0  0  0  0  0  0  0  0  0  0  0  0
    0.4333    4.8959    7.2993 H   0  0  0  0  0  0  0  0  0  0  0  0
   -1.0339    4.5694    6.8526 H   0  0  0  0  0  0  0  0  0  0  0  0
   -0.1920    3.4952    7.6245 H   0  0  0  0  0  0  0  0  0  0  0  0
   -2.2685    4.5636    9.0877 C   0  0  0  0  0  0  0  0  0  0  0  0
   -2.6012    5.0505    9.8442 H   0  0  0  0  0  0  0  0  0  0  0  0
   -2.3017    3.6227    9.2743 H   0  0  0  0  0  0  0  0  0  0  0  0
   -2.8100    4.7549    8.3176 H   0  0  0  0  0  0  0  0  0  0  0  0
  1  2  1  0  0  0  0
  2  4  1  0  0  0  0
  3  1  1  0  0  0  0
  4  3  1  0  0  0  0
  5  2  1  0  0  0  0
  6  4  1  0  0  0  0
  7  5  1  0  0  0  0
  8  1  1  0  0  0  0
  9  8  3  0  0  0  0
 10  1  1  0  0  0  0
 11 10  3  0  0  0  0
 12  1  1  0  0  0  0
 13 12  3  0  0  0  0
 14  1  1  0  0  0  0
 15 14  3  0  0  0  0
 16  6  1  0  0  0  0
 17 16  1  0  0  0  0
 18 16  1  0  0  0  0
 19 18  1  0  0  0  0
 20 18  1  0  0  0  0
 21 18  1  0  0  0  0
 22 16  1  0  0  0  0
 23 22  1  0  0  0  0
 24 22  1  0  0  0  0
 25 22  1  0  0  0  0
 26  6  1  0  0  0  0
 27 26  1  0  0  0  0
 28 26  1  0  0  0  0
 29 28  1  0  0  0  0
 30 28  1  0  0  0  0
 31 28  1  0  0  0  0
 32 26  1  0  0  0  0
 33 32  1  0  0  0  0
 34 32  1  0  0  0  0
 35 32  1  0  0  0  0
 36  3  1  0  0  0  0
 37 36  1  0  0  0  0
 38 37  1  0  0  0  0
 39 37  1  0  0  0  0
 40 37  1  0  0  0  0
 41 36  1  0  0  0  0
 42 41  1  0  0  0  0
 43 41  1  0  0  0  0
 44 41  1  0  0  0  0
 45 36  1  0  0  0  0
 46 45  1  0  0  0  0
 47 45  1  0  0  0  0
 48 45  1  0  0  0  0
 49  2  1  0  0  0  0
 50 49  1  0  0  0  0
 51 50  1  0  0  0  0
 52 50  1  0  0  0  0
 53 50  1  0  0  0  0
 54 49  1  0  0  0  0
 55 54  1  0  0  0  0
 56 54  1  0  0  0  0
 57 54  1  0  0  0  0
 58 49  1  0  0  0  0
 59 58  1  0  0  0  0
 60 58  1  0  0  0  0
 61 58  1  0  0  0  0
 62  7  1  0  0  0  0
 63 62  1  0  0  0  0
 64 62  1  0  0  0  0
 65 62  1  0  0  0  0
 66  7  1  0  0  0  0
 67 66  1  0  0  0  0
 68 66  1  0  0  0  0
 69 66  1  0  0  0  0
  3  5  1  0  0  0  0
M  END
$$$$
RAYBEY

From CSD data. Using bond type 'Any'. No disordered atoms. Largest molecule.
 57 58  0  0  0  0  0  0  0  0999 V2000
   -0.0112   10.5020    4.2732 Cr  0  0  0  0  0  0  0  0  0  0  0  0
   -0.7378   11.3843    6.4188 P   0  0  0  0  0  0  0  0  0  0  0  0
   -0.4366   12.8913    4.3376 P   0  0  0  0  0  0  0  0  0  0  0  0
    0.4731   12.8666    6.0506 B   0  0  0  0  0  0  0  0  0  0  0  0
   -1.9840   12.5019    5.4338 B   0  0  0  0  0  0  0  0  0  0  0  0
    1.5372   13.4560    6.6549 N   0  0  0  0  0  0  0  0  0  0  0  0
   -3.3121   12.7251    5.4086 N   0  0  0  0  0  0  0  0  0  0  0  0
    2.4213   14.4232    5.9688 C   0  0  0  0  0  0  0  0  0  0  0  0
    2.0054   14.7164    5.1536 H   0  0  0  0  0  0  0  0  0  0  0  0
    3.2604   14.0030    5.7658 H   0  0  0  0  0  0  0  0  0  0  0  0
    2.5730   15.1803    6.5400 H   0  0  0  0  0  0  0  0  0  0  0  0
    2.0264   13.1102    7.9893 C   0  0  0  0  0  0  0  0  0  0  0  0
    1.3699   12.5763    8.4425 H   0  0  0  0  0  0  0  0  0  0  0  0
    2.1864   13.9140    8.4897 H   0  0  0  0  0  0  0  0  0  0  0  0
    2.8450   12.6142    7.9122 H   0  0  0  0  0  0  0  0  0  0  0  0
   -4.2998   12.1051    6.3213 C   0  0  0  0  0  0  0  0  0  0  0  0
   -3.8400   11.6558    7.0341 H   0  0  0  0  0  0  0  0  0  0  0  0
   -4.8314   11.4705    5.8350 H   0  0  0  0  0  0  0  0  0  0  0  0
   -4.8700   12.7849    6.6879 H   0  0  0  0  0  0  0  0  0  0  0  0
   -4.0058   13.5683    4.4345 C   0  0  0  0  0  0  0  0  0  0  0  0
   -3.3636   14.0891    3.9482 H   0  0  0  0  0  0  0  0  0  0  0  0
   -4.6128   14.1547    4.8940 H   0  0  0  0  0  0  0  0  0  0  0  0
   -4.4969   13.0140    3.8239 H   0  0  0  0  0  0  0  0  0  0  0  0
   -1.0061   10.4465    8.0208 C   0  0  0  0  0  0  0  0  0  0  0  0
   -2.0927    9.3815    7.7501 C   0  0  0  0  0  0  0  0  0  0  0  0
   -2.2424    8.8680    8.5464 H   0  0  0  0  0  0  0  0  0  0  0  0
   -1.8018    8.8009    7.0436 H   0  0  0  0  0  0  0  0  0  0  0  0
   -2.9089    9.8163    7.4905 H   0  0  0  0  0  0  0  0  0  0  0  0
    0.2964    9.7448    8.3780 C   0  0  0  0  0  0  0  0  0  0  0  0
    0.1474    9.1511    9.1176 H   0  0  0  0  0  0  0  0  0  0  0  0
    0.9564   10.3983    8.6219 H   0  0  0  0  0  0  0  0  0  0  0  0
    0.6087    9.2430    7.6211 H   0  0  0  0  0  0  0  0  0  0  0  0
   -1.4634   11.3874    9.1491 C   0  0  0  0  0  0  0  0  0  0  0  0
   -1.6435   10.8739    9.9406 H   0  0  0  0  0  0  0  0  0  0  0  0
   -2.2615   11.8484    8.8784 H   0  0  0  0  0  0  0  0  0  0  0  0
   -0.7716   12.0263    9.3332 H   0  0  0  0  0  0  0  0  0  0  0  0
   -0.2605   14.1299    2.9395 C   0  0  0  0  0  0  0  0  0  0  0  0
    1.1505   14.0162    2.3998 C   0  0  0  0  0  0  0  0  0  0  0  0
    1.2683   14.6376    1.6775 H   0  0  0  0  0  0  0  0  0  0  0  0
    1.3005   13.1234    2.0803 H   0  0  0  0  0  0  0  0  0  0  0  0
    1.7786   14.2160    3.0985 H   0  0  0  0  0  0  0  0  0  0  0  0
   -1.2391   13.7186    1.8506 C   0  0  0  0  0  0  0  0  0  0  0  0
   -1.1139   14.2773    1.0795 H   0  0  0  0  0  0  0  0  0  0  0  0
   -2.1375   13.8163    2.1732 H   0  0  0  0  0  0  0  0  0  0  0  0
   -1.0842   12.8024    1.6098 H   0  0  0  0  0  0  0  0  0  0  0  0
   -0.5664   15.5566    3.4258 C   0  0  0  0  0  0  0  0  0  0  0  0
   -0.6850   16.1329    2.6673 H   0  0  0  0  0  0  0  0  0  0  0  0
    0.1642   15.8761    3.9608 H   0  0  0  0  0  0  0  0  0  0  0  0
   -1.3696   15.5493    3.9514 H   0  0  0  0  0  0  0  0  0  0  0  0
    0.1601    8.7397    4.7838 C   0  0  0  0  0  0  0  0  0  0  0  0
    0.4192   10.3035    2.5257 C   0  0  0  0  0  0  0  0  0  0  0  0
   -1.7717   10.1737    3.6917 C   0  0  0  0  0  0  0  0  0  0  0  0
    1.8431   10.7441    4.6186 C   0  0  0  0  0  0  0  0  0  0  0  0
    0.2667    7.6368    5.1143 O   0  0  0  0  0  0  0  0  0  0  0  0
    0.6915   10.1897    1.3816 O   0  0  0  0  0  0  0  0  0  0  0  0
   -2.7908    9.9330    3.2433 O   0  0  0  0  0  0  0  0  0  0  0  0
    2.9623   10.8374    4.7949 O   0  0  0  0  0  0  0  0  0  0  0  0
  1  2  1  0  0  0  0
  2  4  1  0  0  0  0
  3  1  1  0  0  0  0
  4  3  1  0  0  0  0
  5  2  1  0  0  0  0
  6  4  1  0  0  0  0
  7  5  1  0  0  0  0
  8  6  1  0  0  0  0
  9  8  1  0  0  0  0
 10  8  1  0  0  0  0
 11  8  1  0  0  0  0
 12  6  1  0  0  0  0
 13 12  1  0  0  0  0
 14 12  1  0  0  0  0
 15 12  1  0  0  0  0
 16  7  1  0  0  0  0
 17 16  1  0  0  0  0
 18 16  1  0  0  0  0
 19 16  1  0  0  0  0
 20  7  1  0  0  0  0
 21 20  1  0  0  0  0
 22 20  1  0  0  0  0
 23 20  1  0  0  0  0
 24  2  1  0  0  0  0
 25 24  1  0  0  0  0
 26 25  1  0  0  0  0
 27 25  1  0  0  0  0
 28 25  1  0  0  0  0
 29 24  1  0  0  0  0
 30 29  1  0  0  0  0
 31 29  1  0  0  0  0
 32 29  1  0  0  0  0
 33 24  1  0  0  0  0
 34 33  1  0  0  0  0
 35 33  1  0  0  0  0
 36 33  1  0  0  0  0
 37  3  1  0  0  0  0
 38 37  1  0  0  0  0
 39 38  1  0  0  0  0
 40 38  1  0  0  0  0
 41 38  1  0  0  0  0
 42 37  1  0  0  0  0
 43 42  1  0  0  0  0
 44 42  1  0  0  0  0
 45 42  1  0  0  0  0
 46 37  1  0  0  0  0
 47 46  1  0  0  0  0
 48 46  1  0  0  0  0
 49 46  1  0  0  0  0
 50  1  1  0  0  0  0
 51  1  1  0  0  0  0
 52  1  1  0  0  0  0
 53  1  1  0  0  0  0
 54 50  3  0  0  0  0
 55 51  3  0  0  0  0
 56 52  3  0  0  0  0
 57 53  3  0  0  0  0
  3  5  1  0  0  0  0
M  END
$$$$
RAYCAY

From CSD data. Using bond type 'Any'. No disordered atoms. Largest molecule.
101126  0  0  0  0  0  0  0  0999 V2000
    6.8272    8.0437   10.1540 Ru  0  0  0  0  0  0  0  0  0  0  0  0
    8.2777    7.4339   12.0977 Cl  0  0  0  0  0  0  0  0  0  0  0  0
    6.2627    5.8093    9.6002 P   0  0  0  0  0  0  0  0  0  0  0  0
    6.6544   10.2681   10.8480 P   0  0  0  0  0  0  0  0  0  0  0  0
    8.6857    8.2816    8.8103 P   0  0  0  0  0  0  0  0  0  0  0  0
    4.6127    5.8606    9.3124 O   0  0  0  0  0  0  0  0  0  0  0  0
    5.0325   10.6575   10.6130 O   0  0  0  0  0  0  0  0  0  0  0  0
    4.0123    7.1115    9.3633 C   0  0  0  0  0  0  0  0  0  0  0  0
    4.2362    9.6653   10.0615 C   0  0  0  0  0  0  0  0  0  0  0  0
    6.3031    4.5822   10.9673 C   0  0  0  0  0  0  0  0  0  0  0  0
    5.7684    3.7909   10.6730 H   0  0  0  0  0  0  0  0  0  0  0  0
    7.7436    4.1085   11.1778 C   0  0  0  0  0  0  0  0  0  0  0  0
    8.1286    3.8415   10.3169 H   0  0  0  0  0  0  0  0  0  0  0  0
    7.7497    3.3418   11.7900 H   0  0  0  0  0  0  0  0  0  0  0  0
    8.2750    4.8365   11.5619 H   0  0  0  0  0  0  0  0  0  0  0  0
    5.6778    5.0969   12.2565 C   0  0  0  0  0  0  0  0  0  0  0  0
    6.1825    5.8729   12.5773 H   0  0  0  0  0  0  0  0  0  0  0  0
    5.7004    4.3897   12.9347 H   0  0  0  0  0  0  0  0  0  0  0  0
    4.7488    5.3570   12.0867 H   0  0  0  0  0  0  0  0  0  0  0  0
    6.7258    4.7614    8.1501 C   0  0  0  0  0  0  0  0  0  0  0  0
    7.7141    4.6177    8.1884 H   0  0  0  0  0  0  0  0  0  0  0  0
    6.4173    5.4740    6.8342 C   0  0  0  0  0  0  0  0  0  0  0  0
    5.4489    5.4790    6.6850 H   0  0  0  0  0  0  0  0  0  0  0  0
    6.8586    5.0023    6.0968 H   0  0  0  0  0  0  0  0  0  0  0  0
    6.7471    6.3957    6.8775 H   0  0  0  0  0  0  0  0  0  0  0  0
    6.0588    3.3731    8.1269 C   0  0  0  0  0  0  0  0  0  0  0  0
    6.3889    2.8397    8.8794 H   0  0  0  0  0  0  0  0  0  0  0  0
    6.2769    2.9203    7.2850 H   0  0  0  0  0  0  0  0  0  0  0  0
    5.0866    3.4753    8.2003 H   0  0  0  0  0  0  0  0  0  0  0  0
    6.7220   10.6948   12.6450 C   0  0  0  0  0  0  0  0  0  0  0  0
    6.2574   11.5753   12.7461 H   0  0  0  0  0  0  0  0  0  0  0  0
    8.1495   10.8943   13.1689 C   0  0  0  0  0  0  0  0  0  0  0  0
    8.6211   10.0345   13.1668 H   0  0  0  0  0  0  0  0  0  0  0  0
    8.1163   11.2459   14.0834 H   0  0  0  0  0  0  0  0  0  0  0  0
    8.6242   11.5292   12.5918 H   0  0  0  0  0  0  0  0  0  0  0  0
    5.9587    9.6978   13.5191 C   0  0  0  0  0  0  0  0  0  0  0  0
    5.0513    9.5854   13.1681 H   0  0  0  0  0  0  0  0  0  0  0  0
    5.9144   10.0368   14.4381 H   0  0  0  0  0  0  0  0  0  0  0  0
    6.4227    8.8346   13.5110 H   0  0  0  0  0  0  0  0  0  0  0  0
    7.3846   11.7738   10.0632 C   0  0  0  0  0  0  0  0  0  0  0  0
    8.3754   11.7457   10.1995 H   0  0  0  0  0  0  0  0  0  0  0  0
    7.1127   11.7770    8.5537 C   0  0  0  0  0  0  0  0  0  0  0  0
    7.4128   10.9281    8.1660 H   0  0  0  0  0  0  0  0  0  0  0  0
    7.5991   12.5172    8.1356 H   0  0  0  0  0  0  0  0  0  0  0  0
    6.1518   11.8862    8.3954 H   0  0  0  0  0  0  0  0  0  0  0  0
    6.8562   13.0697   10.6934 C   0  0  0  0  0  0  0  0  0  0  0  0
    5.8792   13.0285   10.7521 H   0  0  0  0  0  0  0  0  0  0  0  0
    7.1187   13.8346   10.1389 H   0  0  0  0  0  0  0  0  0  0  0  0
    7.2337   13.1736   11.5922 H   0  0  0  0  0  0  0  0  0  0  0  0
    8.5322    8.5553    6.9982 C   0  0  0  0  0  0  0  0  0  0  0  0
    7.3210    8.8908    6.4025 C   0  0  0  0  0  0  0  0  0  0  0  0
    6.5403    8.9774    6.9368 H   0  0  0  0  0  0  0  0  0  0  0  0
    7.2458    9.0992    5.0279 C   0  0  0  0  0  0  0  0  0  0  0  0
    6.4165    9.3344    4.6303 H   0  0  0  0  0  0  0  0  0  0  0  0
    8.3726    8.9643    4.2390 C   0  0  0  0  0  0  0  0  0  0  0  0
    8.3143    9.1041    3.3009 H   0  0  0  0  0  0  0  0  0  0  0  0
    9.5838    8.6257    4.8116 C   0  0  0  0  0  0  0  0  0  0  0  0
   10.3557    8.5237    4.2676 H   0  0  0  0  0  0  0  0  0  0  0  0
    9.6687    8.4355    6.1855 C   0  0  0  0  0  0  0  0  0  0  0  0
   10.5062    8.2220    6.5795 H   0  0  0  0  0  0  0  0  0  0  0  0
    9.8388    9.6596    9.2714 C   0  0  0  0  0  0  0  0  0  0  0  0
   10.2900   10.6084    8.3520 C   0  0  0  0  0  0  0  0  0  0  0  0
   10.0082   10.5573    7.4459 H   0  0  0  0  0  0  0  0  0  0  0  0
   11.1489   11.6312    8.7497 C   0  0  0  0  0  0  0  0  0  0  0  0
   11.4436   12.2731    8.1145 H   0  0  0  0  0  0  0  0  0  0  0  0
   11.5752   11.7169   10.0592 C   0  0  0  0  0  0  0  0  0  0  0  0
   12.1756   12.4044   10.3222 H   0  0  0  0  0  0  0  0  0  0  0  0
   11.1232   10.7929   10.9913 C   0  0  0  0  0  0  0  0  0  0  0  0
   11.4087   10.8544   11.8955 H   0  0  0  0  0  0  0  0  0  0  0  0
   10.2519    9.7740   10.6085 C   0  0  0  0  0  0  0  0  0  0  0  0
    9.9365    9.1547   11.2559 H   0  0  0  0  0  0  0  0  0  0  0  0
    9.8127    6.8164    8.8316 C   0  0  0  0  0  0  0  0  0  0  0  0
    9.7709    5.8765    7.8009 C   0  0  0  0  0  0  0  0  0  0  0  0
    9.1725    6.0041    7.0753 H   0  0  0  0  0  0  0  0  0  0  0  0
   10.5891    4.7591    7.8203 C   0  0  0  0  0  0  0  0  0  0  0  0
   10.5412    4.1248    7.1136 H   0  0  0  0  0  0  0  0  0  0  0  0
   11.4752    4.5606    8.8619 C   0  0  0  0  0  0  0  0  0  0  0  0
   12.0445    3.8001    8.8689 H   0  0  0  0  0  0  0  0  0  0  0  0
   11.5250    5.4804    9.8945 C   0  0  0  0  0  0  0  0  0  0  0  0
   12.1313    5.3478   10.6136 H   0  0  0  0  0  0  0  0  0  0  0  0
   10.6988    6.5956    9.8905 C   0  0  0  0  0  0  0  0  0  0  0  0
   10.7362    7.2132   10.6123 H   0  0  0  0  0  0  0  0  0  0  0  0
    5.1060    8.4850    9.0622 B   0  0  0  0  0  0  0  0  0  0  0  0
    4.4634    8.0992   10.6543 B   0  0  0  0  0  0  0  0  0  0  0  0
    5.3232    7.8236   11.3865 H   0  0  0  0  0  0  0  0  0  0  0  0
    3.9466    9.6851    8.3821 B   0  0  0  0  0  0  0  0  0  0  0  0
    4.2951   10.4905    7.7888 H   0  0  0  0  0  0  0  0  0  0  0  0
    3.8051    7.9901    7.9195 B   0  0  0  0  0  0  0  0  0  0  0  0
    4.0632    7.5495    6.9843 H   0  0  0  0  0  0  0  0  0  0  0  0
    2.9988    9.0327   11.0652 B   0  0  0  0  0  0  0  0  0  0  0  0
    2.8544    9.4357   12.0419 H   0  0  0  0  0  0  0  0  0  0  0  0
    2.6677   10.0366    9.6107 B   0  0  0  0  0  0  0  0  0  0  0  0
    2.3070   11.0387    9.7512 H   0  0  0  0  0  0  0  0  0  0  0  0
    2.3356    8.9440    8.2461 B   0  0  0  0  0  0  0  0  0  0  0  0
    1.6960    9.2330    7.5066 H   0  0  0  0  0  0  0  0  0  0  0  0
    2.4278    7.2694    8.8496 B   0  0  0  0  0  0  0  0  0  0  0  0
    1.9201    6.4095    8.5194 H   0  0  0  0  0  0  0  0  0  0  0  0
    2.8488    7.3314   10.5998 B   0  0  0  0  0  0  0  0  0  0  0  0
    2.6258    6.5269   11.2295 H   0  0  0  0  0  0  0  0  0  0  0  0
    1.7513    8.5380    9.9028 B   0  0  0  0  0  0  0  0  0  0  0  0
    0.7289    8.5744   10.1481 H   0  0  0  0  0  0  0  0  0  0  0  0
  1  2  1  0  0  0  0
  3  1  1  0  0  0  0
  4  1  1  0  0  0  0
  5  1  1  0  0  0  0
  6  3  1  0  0  0  0
  7  4  1  0  0  0  0
  8  6  1  0  0  0  0
  9  7  1  0  0  0  0
 10  3  1  0  0  0  0
 11 10  1  0  0  0  0
 12 10  1  0  0  0  0
 13 12  1  0  0  0  0
 14 12  1  0  0  0  0
 15 12  1  0  0  0  0
 16 10  1  0  0  0  0
 17 16  1  0  0  0  0
 18 16  1  0  0  0  0
 19 16  1  0  0  0  0
 20  3  1  0  0  0  0
 21 20  1  0  0  0  0
 22 20  1  0  0  0  0
 23 22  1  0  0  0  0
 24 22  1  0  0  0  0
 25 22  1  0  0  0  0
 26 20  1  0  0  0  0
 27 26  1  0  0  0  0
 28 26  1  0  0  0  0
 29 26  1  0  0  0  0
 30  4  1  0  0  0  0
 31 30  1  0  0  0  0
 32 30  1  0  0  0  0
 33 32  1  0  0  0  0
 34 32  1  0  0  0  0
 35 32  1  0  0  0  0
 36 30  1  0  0  0  0
 37 36  1  0  0  0  0
 38 36  1  0  0  0  0
 39 36  1  0  0  0  0
 40  4  1  0  0  0  0
 41 40  1  0  0  0  0
 42 40  1  0  0  0  0
 43 42  1  0  0  0  0
 44 42  1  0  0  0  0
 45 42  1  0  0  0  0
 46 40  1  0  0  0  0
 47 46  1  0  0  0  0
 48 46  1  0  0  0  0
 49 46  1  0  0  0  0
 50  5  1  0  0  0  0
 51 50  4  0  0  0  0
 52 51  1  0  0  0  0
 53 51  4  0  0  0  0
 54 53  1  0  0  0  0
 55 53  4  0  0  0  0
 56 55  1  0  0  0  0
 57 55  4  0  0  0  0
 58 57  1  0  0  0  0
 59 50  4  0  0  0  0
 60 59  1  0  0  0  0
 61  5  1  0  0  0  0
 62 61  4  0  0  0  0
 63 62  1  0  0  0  0
 64 62  4  0  0  0  0
 65 64  1  0  0  0  0
 66 64  4  0  0  0  0
 67 66  1  0  0  0  0
 68 66  4  0  0  0  0
 69 68  1  0  0  0  0
 70 61  4  0  0  0  0
 71 70  1  0  0  0  0
 72  5  1  0  0  0  0
 73 72  4  0  0  0  0
 74 73  1  0  0  0  0
 75 73  4  0  0  0  0
 76 75  1  0  0  0  0
 77 75  4  0  0  0  0
 78 77  1  0  0  0  0
 79 77  4  0  0  0  0
 80 79  1  0  0  0  0
 81 72  4  0  0  0  0
 82 81  1  0  0  0  0
 83  1  1  0  0  0  0
 84  1  1  0  0  0  0
 85  1  1  0  0  0  0
 86  9  1  0  0  0  0
 87 86  1  0  0  0  0
 88  8  1  0  0  0  0
 89 88  1  0  0  0  0
 90  9  1  0  0  0  0
 91 90  1  0  0  0  0
 92  9  1  0  0  0  0
 93 92  1  0  0  0  0
 94 86  1  0  0  0  0
 95 94  1  0  0  0  0
 96  8  1  0  0  0  0
 97 96  1  0  0  0  0
 98  8  1  0  0  0  0
 99 98  1  0  0  0  0
100 90  1  0  0  0  0
101100  1  0  0  0  0
  8 83  1  0  0  0  0
  8 84  1  0  0  0  0
  9 83  1  0  0  0  0
  9 84  1  0  0  0  0
 57 59  4  0  0  0  0
 68 70  4  0  0  0  0
 79 81  4  0  0  0  0
 83 84  1  0  0  0  0
 83 86  1  0  0  0  0
 83 88  1  0  0  0  0
 84 85  1  0  0  0  0
 84 90  1  0  0  0  0
 84 98  1  0  0  0  0
 86 88  1  0  0  0  0
 86 92  1  0  0  0  0
 88 94  1  0  0  0  0
 88 96  1  0  0  0  0
 90 92  1  0  0  0  0
 90 98  1  0  0  0  0
 92 94  1  0  0  0  0
 92100  1  0  0  0  0
 94 96  1  0  0  0  0
 94100  1  0  0  0  0
 96 98  1  0  0  0  0
 96100  1  0  0  0  0
 98100  1  0  0  0  0
M  END
$$$$
RAYCEC

From CSD data. Using bond type 'Any'. No disordered atoms. Largest molecule.
101126  0  0  0  0  0  0  0  0999 V2000
    4.4885    4.7808    8.2074 Ru  0  0  0  0  0  0  0  0  0  0  0  0
    5.0042    6.1329    9.1069 H   0  0  0  0  0  0  0  0  0  0  0  0
    4.3548    6.1224    6.3482 P   0  0  0  0  0  0  0  0  0  0  0  0
    3.8235    3.7625   10.1643 P   0  0  0  0  0  0  0  0  0  0  0  0
    6.7496    4.1715    8.1344 P   0  0  0  0  0  0  0  0  0  0  0  0
    2.8344    5.8016    5.6703 O   0  0  0  0  0  0  0  0  0  0  0  0
    2.3289    3.0709    9.7942 O   0  0  0  0  0  0  0  0  0  0  0  0
    2.0006    4.9905    6.4310 C   0  0  0  0  0  0  0  0  0  0  0  0
    1.7345    3.5393    8.6393 C   0  0  0  0  0  0  0  0  0  0  0  0
    5.2782    5.9316    4.7542 C   0  0  0  0  0  0  0  0  0  0  0  0
    6.2384    6.1386    4.9406 H   0  0  0  0  0  0  0  0  0  0  0  0
    5.2101    4.4834    4.2812 C   0  0  0  0  0  0  0  0  0  0  0  0
    4.2838    4.2593    4.0505 H   0  0  0  0  0  0  0  0  0  0  0  0
    5.5206    3.8912    4.9965 H   0  0  0  0  0  0  0  0  0  0  0  0
    5.7809    4.3703    3.4926 H   0  0  0  0  0  0  0  0  0  0  0  0
    4.8185    6.8728    3.6393 C   0  0  0  0  0  0  0  0  0  0  0  0
    3.8542    6.7638    3.4964 H   0  0  0  0  0  0  0  0  0  0  0  0
    5.2972    6.6584    2.8110 H   0  0  0  0  0  0  0  0  0  0  0  0
    5.0076    7.7998    3.8941 H   0  0  0  0  0  0  0  0  0  0  0  0
    4.3348    7.9539    6.5577 C   0  0  0  0  0  0  0  0  0  0  0  0
    3.9754    8.3559    5.7147 H   0  0  0  0  0  0  0  0  0  0  0  0
    5.7611    8.4669    6.7538 C   0  0  0  0  0  0  0  0  0  0  0  0
    6.1563    8.0382    7.5412 H   0  0  0  0  0  0  0  0  0  0  0  0
    5.7446    9.4377    6.8847 H   0  0  0  0  0  0  0  0  0  0  0  0
    6.2963    8.2529    5.9619 H   0  0  0  0  0  0  0  0  0  0  0  0
    3.4584    8.4226    7.7130 C   0  0  0  0  0  0  0  0  0  0  0  0
    2.5371    8.1228    7.5682 H   0  0  0  0  0  0  0  0  0  0  0  0
    3.4797    9.4013    7.7632 H   0  0  0  0  0  0  0  0  0  0  0  0
    3.7962    8.0460    8.5528 H   0  0  0  0  0  0  0  0  0  0  0  0
    4.5037    2.2189   10.9163 C   0  0  0  0  0  0  0  0  0  0  0  0
    5.3477    2.4484   11.4025 H   0  0  0  0  0  0  0  0  0  0  0  0
    4.8362    1.2003    9.8257 C   0  0  0  0  0  0  0  0  0  0  0  0
    4.0285    0.9982    9.3096 H   0  0  0  0  0  0  0  0  0  0  0  0
    5.1746    0.3780   10.2383 H   0  0  0  0  0  0  0  0  0  0  0  0
    5.5198    1.5717    9.2305 H   0  0  0  0  0  0  0  0  0  0  0  0
    3.5281    1.5725   11.9154 C   0  0  0  0  0  0  0  0  0  0  0  0
    3.2902    2.2244   12.6072 H   0  0  0  0  0  0  0  0  0  0  0  0
    3.9554    0.7946   12.3311 H   0  0  0  0  0  0  0  0  0  0  0  0
    2.7180    1.2870   11.4430 H   0  0  0  0  0  0  0  0  0  0  0  0
    3.3643    4.7756   11.6612 C   0  0  0  0  0  0  0  0  0  0  0  0
    2.5726    4.3259   12.0743 H   0  0  0  0  0  0  0  0  0  0  0  0
    4.4311    4.8452   12.7418 C   0  0  0  0  0  0  0  0  0  0  0  0
    4.7248    3.9376   12.9682 H   0  0  0  0  0  0  0  0  0  0  0  0
    4.0599    5.2767   13.5397 H   0  0  0  0  0  0  0  0  0  0  0  0
    5.1953    5.3634   12.4141 H   0  0  0  0  0  0  0  0  0  0  0  0
    2.9198    6.1983   11.3154 C   0  0  0  0  0  0  0  0  0  0  0  0
    3.6767    6.6939   10.9372 H   0  0  0  0  0  0  0  0  0  0  0  0
    2.6088    6.6495   12.1284 H   0  0  0  0  0  0  0  0  0  0  0  0
    2.1912    6.1628   10.6611 H   0  0  0  0  0  0  0  0  0  0  0  0
    7.2891    2.7605    7.0728 C   0  0  0  0  0  0  0  0  0  0  0  0
    6.3554    1.8555    6.5733 C   0  0  0  0  0  0  0  0  0  0  0  0
    5.4309    1.9851    6.7496 H   0  0  0  0  0  0  0  0  0  0  0  0
    6.7682    0.7626    5.8175 C   0  0  0  0  0  0  0  0  0  0  0  0
    6.1239    0.1493    5.4850 H   0  0  0  0  0  0  0  0  0  0  0  0
    8.1086    0.5624    5.5466 C   0  0  0  0  0  0  0  0  0  0  0  0
    8.3869   -0.1868    5.0332 H   0  0  0  0  0  0  0  0  0  0  0  0
    9.0399    1.4595    6.0294 C   0  0  0  0  0  0  0  0  0  0  0  0
    9.9607    1.3298    5.8364 H   0  0  0  0  0  0  0  0  0  0  0  0
    8.6463    2.5403    6.7886 C   0  0  0  0  0  0  0  0  0  0  0  0
    9.3007    3.1430    7.1222 H   0  0  0  0  0  0  0  0  0  0  0  0
    7.9245    5.4926    7.5842 C   0  0  0  0  0  0  0  0  0  0  0  0
    8.3716    6.4743    8.4810 C   0  0  0  0  0  0  0  0  0  0  0  0
    8.1028    6.4314    9.3907 H   0  0  0  0  0  0  0  0  0  0  0  0
    9.1980    7.5067    8.0646 C   0  0  0  0  0  0  0  0  0  0  0  0
    9.4848    8.1648    8.6860 H   0  0  0  0  0  0  0  0  0  0  0  0
    9.6039    7.5806    6.7411 C   0  0  0  0  0  0  0  0  0  0  0  0
   10.1681    8.2889    6.4523 H   0  0  0  0  0  0  0  0  0  0  0  0
    9.1803    6.6094    5.8412 C   0  0  0  0  0  0  0  0  0  0  0  0
    9.4568    6.6536    4.9328 H   0  0  0  0  0  0  0  0  0  0  0  0
    8.3556    5.5775    6.2607 C   0  0  0  0  0  0  0  0  0  0  0  0
    8.0784    4.9171    5.6356 H   0  0  0  0  0  0  0  0  0  0  0  0
    7.5241    3.7127    9.7475 C   0  0  0  0  0  0  0  0  0  0  0  0
    7.2817    4.5337   10.8501 C   0  0  0  0  0  0  0  0  0  0  0  0
    6.7017    5.2792   10.7557 H   0  0  0  0  0  0  0  0  0  0  0  0
    7.8708    4.2832   12.0821 C   0  0  0  0  0  0  0  0  0  0  0  0
    7.6926    4.8537   12.8196 H   0  0  0  0  0  0  0  0  0  0  0  0
    8.7212    3.1912   12.2301 C   0  0  0  0  0  0  0  0  0  0  0  0
    9.1530    3.0245   13.0609 H   0  0  0  0  0  0  0  0  0  0  0  0
    8.9285    2.3558   11.1559 C   0  0  0  0  0  0  0  0  0  0  0  0
    9.4905    1.5967   11.2577 H   0  0  0  0  0  0  0  0  0  0  0  0
    8.3324    2.6025    9.9286 C   0  0  0  0  0  0  0  0  0  0  0  0
    8.4810    2.0056    9.2054 H   0  0  0  0  0  0  0  0  0  0  0  0
    2.3058    5.1066    8.1381 B   0  0  0  0  0  0  0  0  0  0  0  0
    2.7382    3.6748    7.2618 B   0  0  0  0  0  0  0  0  0  0  0  0
    3.9405    3.4262    7.2014 H   0  0  0  0  0  0  0  0  0  0  0  0
    0.6396    4.8236    8.8127 B   0  0  0  0  0  0  0  0  0  0  0  0
    0.3770    5.1740    9.8077 H   0  0  0  0  0  0  0  0  0  0  0  0
    0.8184    5.7760    7.3545 B   0  0  0  0  0  0  0  0  0  0  0  0
    0.6967    6.7933    7.2168 H   0  0  0  0  0  0  0  0  0  0  0  0
    1.4598    2.4328    7.3591 B   0  0  0  0  0  0  0  0  0  0  0  0
    1.7238    1.3988    7.5083 H   0  0  0  0  0  0  0  0  0  0  0  0
    0.1278    3.1488    8.3314 B   0  0  0  0  0  0  0  0  0  0  0  0
   -0.3611    2.5535    9.0490 H   0  0  0  0  0  0  0  0  0  0  0  0
   -0.4893    4.5763    7.4641 B   0  0  0  0  0  0  0  0  0  0  0  0
   -1.5684    4.8669    7.5296 H   0  0  0  0  0  0  0  0  0  0  0  0
    0.4275    4.7227    5.9412 B   0  0  0  0  0  0  0  0  0  0  0  0
    0.1034    5.1252    5.0004 H   0  0  0  0  0  0  0  0  0  0  0  0
    1.6456    3.3972    5.8872 B   0  0  0  0  0  0  0  0  0  0  0  0
    2.0837    3.0264    4.9348 H   0  0  0  0  0  0  0  0  0  0  0  0
    0.0348    3.1062    6.5536 B   0  0  0  0  0  0  0  0  0  0  0  0
   -0.6995    2.4791    6.0198 H   0  0  0  0  0  0  0  0  0  0  0  0
  1  2  1  0  0  0  0
  3  1  1  0  0  0  0
  4  1  1  0  0  0  0
  5  1  1  0  0  0  0
  6  3  1  0  0  0  0
  7  4  1  0  0  0  0
  8  6  1  0  0  0  0
  9  7  1  0  0  0  0
 10  3  1  0  0  0  0
 11 10  1  0  0  0  0
 12 10  1  0  0  0  0
 13 12  1  0  0  0  0
 14 12  1  0  0  0  0
 15 12  1  0  0  0  0
 16 10  1  0  0  0  0
 17 16  1  0  0  0  0
 18 16  1  0  0  0  0
 19 16  1  0  0  0  0
 20  3  1  0  0  0  0
 21 20  1  0  0  0  0
 22 20  1  0  0  0  0
 23 22  1  0  0  0  0
 24 22  1  0  0  0  0
 25 22  1  0  0  0  0
 26 20  1  0  0  0  0
 27 26  1  0  0  0  0
 28 26  1  0  0  0  0
 29 26  1  0  0  0  0
 30  4  1  0  0  0  0
 31 30  1  0  0  0  0
 32 30  1  0  0  0  0
 33 32  1  0  0  0  0
 34 32  1  0  0  0  0
 35 32  1  0  0  0  0
 36 30  1  0  0  0  0
 37 36  1  0  0  0  0
 38 36  1  0  0  0  0
 39 36  1  0  0  0  0
 40  4  1  0  0  0  0
 41 40  1  0  0  0  0
 42 40  1  0  0  0  0
 43 42  1  0  0  0  0
 44 42  1  0  0  0  0
 45 42  1  0  0  0  0
 46 40  1  0  0  0  0
 47 46  1  0  0  0  0
 48 46  1  0  0  0  0
 49 46  1  0  0  0  0
 50  5  1  0  0  0  0
 51 50  4  0  0  0  0
 52 51  1  0  0  0  0
 53 51  4  0  0  0  0
 54 53  1  0  0  0  0
 55 53  4  0  0  0  0
 56 55  1  0  0  0  0
 57 55  4  0  0  0  0
 58 57  1  0  0  0  0
 59 50  4  0  0  0  0
 60 59  1  0  0  0  0
 61  5  1  0  0  0  0
 62 61  4  0  0  0  0
 63 62  1  0  0  0  0
 64 62  4  0  0  0  0
 65 64  1  0  0  0  0
 66 64  4  0  0  0  0
 67 66  1  0  0  0  0
 68 66  4  0  0  0  0
 69 68  1  0  0  0  0
 70 61  4  0  0  0  0
 71 70  1  0  0  0  0
 72  5  1  0  0  0  0
 73 72  4  0  0  0  0
 74 73  1  0  0  0  0
 75 73  4  0  0  0  0
 76 75  1  0  0  0  0
 77 75  4  0  0  0  0
 78 77  1  0  0  0  0
 79 77  4  0  0  0  0
 80 79  1  0  0  0  0
 81 72  4  0  0  0  0
 82 81  1  0  0  0  0
 83  1  1  0  0  0  0
 84  1  1  0  0  0  0
 85  1  1  0  0  0  0
 86  9  1  0  0  0  0
 87 86  1  0  0  0  0
 88  8  1  0  0  0  0
 89 88  1  0  0  0  0
 90  9  1  0  0  0  0
 91 90  1  0  0  0  0
 92  9  1  0  0  0  0
 93 92  1  0  0  0  0
 94 86  1  0  0  0  0
 95 94  1  0  0  0  0
 96  8  1  0  0  0  0
 97 96  1  0  0  0  0
 98  8  1  0  0  0  0
 99 98  1  0  0  0  0
100 90  1  0  0  0  0
101100  1  0  0  0  0
  8 83  1  0  0  0  0
  8 84  1  0  0  0  0
  9 83  1  0  0  0  0
  9 84  1  0  0  0  0
 57 59  4  0  0  0  0
 68 70  4  0  0  0  0
 79 81  4  0  0  0  0
 83 84  1  0  0  0  0
 83 86  1  0  0  0  0
 83 88  1  0  0  0  0
 84 85  1  0  0  0  0
 84 90  1  0  0  0  0
 84 98  1  0  0  0  0
 86 88  1  0  0  0  0
 86 92  1  0  0  0  0
 88 94  1  0  0  0  0
 88 96  1  0  0  0  0
 90 92  1  0  0  0  0
 90 98  1  0  0  0  0
 92 94  1  0  0  0  0
 92100  1  0  0  0  0
 94 96  1  0  0  0  0
 94100  1  0  0  0  0
 96 98  1  0  0  0  0
 96100  1  0  0  0  0
 98100  1  0  0  0  0
M  END
$$$$
RECWEC

From CSD data. Using bond type 'Any'. No disordered atoms. Largest molecule.
 72 75  0  0  0  0  0  0  0  0999 V2000
   -1.8295    6.8668    2.8654 C   0  0  0  0  0  0  0  0  0  0  0  0
   -1.4503    7.0153    1.5440 C   0  0  0  0  0  0  0  0  0  0  0  0
   -1.6418    7.8037    1.0509 H   0  0  0  0  0  0  0  0  0  0  0  0
   -0.7565    5.9187    0.9697 C   0  0  0  0  0  0  0  0  0  0  0  0
   -0.5101    4.7786    1.6688 C   0  0  0  0  0  0  0  0  0  0  0  0
   -0.0601    4.0574    1.2463 H   0  0  0  0  0  0  0  0  0  0  0  0
   -0.9085    4.6554    2.9887 C   0  0  0  0  0  0  0  0  0  0  0  0
   -0.7320    3.8639    3.4818 H   0  0  0  0  0  0  0  0  0  0  0  0
   -1.5706    5.7208    3.5675 C   0  0  0  0  0  0  0  0  0  0  0  0
   -0.2286    5.9782   -0.4225 C   0  0  0  0  0  0  0  0  0  0  0  0
    0.1261    5.0993   -0.6750 H   0  0  0  0  0  0  0  0  0  0  0  0
    0.4863    6.6464   -0.4721 H   0  0  0  0  0  0  0  0  0  0  0  0
   -0.9526    6.2261   -1.0343 H   0  0  0  0  0  0  0  0  0  0  0  0
    0.2553    8.2971    7.5710 C   0  0  0  0  0  0  0  0  0  0  0  0
    1.4018    8.0036    8.2400 C   0  0  0  0  0  0  0  0  0  0  0  0
    1.5284    7.1616    8.6625 H   0  0  0  0  0  0  0  0  0  0  0  0
    2.3846    8.9909    8.2821 C   0  0  0  0  0  0  0  0  0  0  0  0
    3.1945    8.8108    8.7437 H   0  0  0  0  0  0  0  0  0  0  0  0
    2.2249   10.2235    7.6748 C   0  0  0  0  0  0  0  0  0  0  0  0
    1.0445   10.4883    6.9862 C   0  0  0  0  0  0  0  0  0  0  0  0
    0.9144   11.3239    6.5532 H   0  0  0  0  0  0  0  0  0  0  0  0
    0.0756    9.5256    6.9441 C   0  0  0  0  0  0  0  0  0  0  0  0
    3.2951   11.2843    7.7695 C   0  0  0  0  0  0  0  0  0  0  0  0
    4.0473   10.9417    8.2987 H   0  0  0  0  0  0  0  0  0  0  0  0
    2.9273   12.0827    8.2025 H   0  0  0  0  0  0  0  0  0  0  0  0
    3.6067   11.5142    6.8705 H   0  0  0  0  0  0  0  0  0  0  0  0
   -5.8665   10.5381    6.1819 C   0  0  0  0  0  0  0  0  0  0  0  0
   -6.2378   11.1727    5.5340 H   0  0  0  0  0  0  0  0  0  0  0  0
   -5.4700   11.0312    6.9306 H   0  0  0  0  0  0  0  0  0  0  0  0
   -6.5810    9.9554    6.5157 H   0  0  0  0  0  0  0  0  0  0  0  0
   -5.4917    9.1501    3.8291 C   0  0  0  0  0  0  0  0  0  0  0  0
   -5.8152    9.9853    3.4337 H   0  0  0  0  0  0  0  0  0  0  0  0
   -6.2531    8.5678    4.0336 H   0  0  0  0  0  0  0  0  0  0  0  0
   -4.8959    8.6978    3.1962 H   0  0  0  0  0  0  0  0  0  0  0  0
   -3.4518   10.8263    4.7627 C   0  0  0  0  0  0  0  0  0  0  0  0
   -3.9732   11.5203    4.3072 H   0  0  0  0  0  0  0  0  0  0  0  0
   -2.8074   10.4363    4.1358 H   0  0  0  0  0  0  0  0  0  0  0  0
   -2.9716   11.2216    5.5204 H   0  0  0  0  0  0  0  0  0  0  0  0
   -4.9333    4.7936    7.1486 C   0  0  0  0  0  0  0  0  0  0  0  0
   -5.5587    4.0834    6.8945 H   0  0  0  0  0  0  0  0  0  0  0  0
   -5.0673    5.0248    8.0912 H   0  0  0  0  0  0  0  0  0  0  0  0
   -4.0143    4.4802    7.0178 H   0  0  0  0  0  0  0  0  0  0  0  0
   -6.9921    6.5751    6.4420 C   0  0  0  0  0  0  0  0  0  0  0  0
   -7.5067    5.7556    6.2902 H   0  0  0  0  0  0  0  0  0  0  0  0
   -7.3127    7.2786    5.8391 H   0  0  0  0  0  0  0  0  0  0  0  0
   -7.1060    6.8643    7.3711 H   0  0  0  0  0  0  0  0  0  0  0  0
   -5.3812    5.4773    4.4696 C   0  0  0  0  0  0  0  0  0  0  0  0
   -6.1041    4.8161    4.4876 H   0  0  0  0  0  0  0  0  0  0  0  0
   -4.5390    5.0351    4.2380 H   0  0  0  0  0  0  0  0  0  0  0  0
   -5.5850    6.1664    3.8021 H   0  0  0  0  0  0  0  0  0  0  0  0
   -3.4141   10.0028    9.0985 C   0  0  0  0  0  0  0  0  0  0  0  0
   -3.6084   10.1278   10.0516 H   0  0  0  0  0  0  0  0  0  0  0  0
   -3.8681   10.6977    8.5783 H   0  0  0  0  0  0  0  0  0  0  0  0
   -2.4476   10.0641    8.9526 H   0  0  0  0  0  0  0  0  0  0  0  0
   -3.1186    7.2901    9.7615 C   0  0  0  0  0  0  0  0  0  0  0  0
   -3.3162    7.5879   10.6740 H   0  0  0  0  0  0  0  0  0  0  0  0
   -2.1550    7.3531    9.6006 H   0  0  0  0  0  0  0  0  0  0  0  0
   -3.4094    6.3611    9.6502 H   0  0  0  0  0  0  0  0  0  0  0  0
   -5.6770    8.3716    9.3375 C   0  0  0  0  0  0  0  0  0  0  0  0
   -5.6201    8.7701   10.2305 H   0  0  0  0  0  0  0  0  0  0  0  0
   -6.0128    7.4534    9.4097 H   0  0  0  0  0  0  0  0  0  0  0  0
   -6.2876    8.8992    8.7828 H   0  0  0  0  0  0  0  0  0  0  0  0
   -2.6380    7.1565    4.9597 B   0  0  0  0  0  0  0  0  0  0  0  0
   -1.8145    8.3192    6.6495 B   0  0  0  0  0  0  0  0  0  0  0  0
   -3.6971    7.8034    6.4576 Co  0  0  0  0  0  0  0  0  0  0  0  0
   -2.4838    7.7883    3.6747 O   0  0  0  0  0  0  0  0  0  0  0  0
   -2.0307    5.8667    4.8510 O   0  0  0  0  0  0  0  0  0  0  0  0
   -0.8738    7.5330    7.3852 O   0  0  0  0  0  0  0  0  0  0  0  0
   -1.1664    9.5599    6.3498 O   0  0  0  0  0  0  0  0  0  0  0  0
   -4.5757    9.5191    5.3702 P   0  0  0  0  0  0  0  0  0  0  0  0
   -5.2275    6.2551    6.1177 P   0  0  0  0  0  0  0  0  0  0  0  0
   -4.0083    8.3547    8.5666 P   0  0  0  0  0  0  0  0  0  0  0  0
  1  2  4  0  0  0  0
  2  3  1  0  0  0  0
  4  2  4  0  0  0  0
  5  4  4  0  0  0  0
  6  5  1  0  0  0  0
  7  5  4  0  0  0  0
  8  7  1  0  0  0  0
  9  1  4  0  0  0  0
 10  4  1  0  0  0  0
 11 10  1  0  0  0  0
 12 10  1  0  0  0  0
 13 10  1  0  0  0  0
 14 15  4  0  0  0  0
 15 16  1  0  0  0  0
 17 15  4  0  0  0  0
 18 17  1  0  0  0  0
 19 17  4  0  0  0  0
 20 19  4  0  0  0  0
 21 20  1  0  0  0  0
 22 14  4  0  0  0  0
 23 19  1  0  0  0  0
 24 23  1  0  0  0  0
 25 23  1  0  0  0  0
 26 23  1  0  0  0  0
 27 28  1  0  0  0  0
 29 27  1  0  0  0  0
 30 27  1  0  0  0  0
 31 32  1  0  0  0  0
 33 31  1  0  0  0  0
 34 31  1  0  0  0  0
 35 36  1  0  0  0  0
 37 35  1  0  0  0  0
 38 35  1  0  0  0  0
 39 40  1  0  0  0  0
 41 39  1  0  0  0  0
 42 39  1  0  0  0  0
 43 44  1  0  0  0  0
 45 43  1  0  0  0  0
 46 43  1  0  0  0  0
 47 48  1  0  0  0  0
 49 47  1  0  0  0  0
 50 47  1  0  0  0  0
 51 52  1  0  0  0  0
 53 51  1  0  0  0  0
 54 51  1  0  0  0  0
 55 56  1  0  0  0  0
 57 55  1  0  0  0  0
 58 55  1  0  0  0  0
 59 60  1  0  0  0  0
 61 59  1  0  0  0  0
 62 59  1  0  0  0  0
 63 65  1  0  0  0  0
 64 65  1  0  0  0  0
 65 70  1  0  0  0  0
 66  1  1  0  0  0  0
 67  9  1  0  0  0  0
 68 14  1  0  0  0  0
 69 22  1  0  0  0  0
 70 27  1  0  0  0  0
 71 39  1  0  0  0  0
 72 51  1  0  0  0  0
  7  9  4  0  0  0  0
 20 22  4  0  0  0  0
 31 70  1  0  0  0  0
 35 70  1  0  0  0  0
 43 71  1  0  0  0  0
 47 71  1  0  0  0  0
 55 72  1  0  0  0  0
 59 72  1  0  0  0  0
 63 66  1  0  0  0  0
 63 67  1  0  0  0  0
 64 68  1  0  0  0  0
 64 69  1  0  0  0  0
 65 71  1  0  0  0  0
 65 72  1  0  0  0  0
M  END
$$$$
RECWIG

From CSD data. Using bond type 'Any'. No disordered atoms. Largest molecule.
 87 93  0  0  0  0  0  0  0  0999 V2000
    6.7863    4.8353    3.9024 Co  0  0  0  0  0  0  0  0  0  0  0  0
    7.0676    5.9267    5.8193 P   0  0  0  0  0  0  0  0  0  0  0  0
    6.7057    6.2763    2.1748 P   0  0  0  0  0  0  0  0  0  0  0  0
    8.8153    4.0004    3.6672 P   0  0  0  0  0  0  0  0  0  0  0  0
    5.5101    3.4109    1.5439 O   0  0  0  0  0  0  0  0  0  0  0  0
    5.9083    2.0155    3.3198 O   0  0  0  0  0  0  0  0  0  0  0  0
    3.8679    5.6723    3.8600 O   0  0  0  0  0  0  0  0  0  0  0  0
    4.2770    3.9935    5.3680 O   0  0  0  0  0  0  0  0  0  0  0  0
    8.6057    6.8459    6.2327 C   0  0  0  0  0  0  0  0  0  0  0  0
    9.4850    6.4312    7.2321 C   0  0  0  0  0  0  0  0  0  0  0  0
    9.2815    5.6604    7.7481 H   0  0  0  0  0  0  0  0  0  0  0  0
   10.6527    7.1331    7.4762 C   0  0  0  0  0  0  0  0  0  0  0  0
   11.2407    6.8433    8.1638 H   0  0  0  0  0  0  0  0  0  0  0  0
   10.9716    8.2512    6.7322 C   0  0  0  0  0  0  0  0  0  0  0  0
   11.7818    8.7205    6.8932 H   0  0  0  0  0  0  0  0  0  0  0  0
   10.1013    8.6825    5.7495 C   0  0  0  0  0  0  0  0  0  0  0  0
   10.3087    9.4549    5.2369 H   0  0  0  0  0  0  0  0  0  0  0  0
    8.9276    7.9889    5.5145 C   0  0  0  0  0  0  0  0  0  0  0  0
    8.3296    8.3026    4.8447 H   0  0  0  0  0  0  0  0  0  0  0  0
    5.8236    7.1652    6.3514 C   0  0  0  0  0  0  0  0  0  0  0  0
    6.0342    7.4701    7.2586 H   0  0  0  0  0  0  0  0  0  0  0  0
    4.9316    6.7581    6.3433 H   0  0  0  0  0  0  0  0  0  0  0  0
    5.8398    7.9281    5.7365 H   0  0  0  0  0  0  0  0  0  0  0  0
    6.9703    4.7103    7.1842 C   0  0  0  0  0  0  0  0  0  0  0  0
    7.7179    4.0806    7.1144 H   0  0  0  0  0  0  0  0  0  0  0  0
    6.1243    4.2204    7.1245 H   0  0  0  0  0  0  0  0  0  0  0  0
    7.0176    5.1783    8.0431 H   0  0  0  0  0  0  0  0  0  0  0  0
    7.0543    8.0462    2.4941 C   0  0  0  0  0  0  0  0  0  0  0  0
    8.2478    8.6721    2.1581 C   0  0  0  0  0  0  0  0  0  0  0  0
    8.9270    8.1804    1.7099 H   0  0  0  0  0  0  0  0  0  0  0  0
    8.4607   10.0126    2.4713 C   0  0  0  0  0  0  0  0  0  0  0  0
    9.2787   10.4305    2.2262 H   0  0  0  0  0  0  0  0  0  0  0  0
    7.4892   10.7415    3.1361 C   0  0  0  0  0  0  0  0  0  0  0  0
    7.6359   11.6551    3.3527 H   0  0  0  0  0  0  0  0  0  0  0  0
    6.3031   10.1221    3.4811 C   0  0  0  0  0  0  0  0  0  0  0  0
    5.6344   10.6153    3.9428 H   0  0  0  0  0  0  0  0  0  0  0  0
    6.0766    8.7986    3.1673 C   0  0  0  0  0  0  0  0  0  0  0  0
    5.2519    8.3926    3.4063 H   0  0  0  0  0  0  0  0  0  0  0  0
    5.1168    6.4740    1.2754 C   0  0  0  0  0  0  0  0  0  0  0  0
    4.4458    6.8545    1.8775 H   0  0  0  0  0  0  0  0  0  0  0  0
    4.8108    5.5993    0.9555 H   0  0  0  0  0  0  0  0  0  0  0  0
    5.2459    7.0747    0.5130 H   0  0  0  0  0  0  0  0  0  0  0  0
    7.7628    5.9118    0.7181 C   0  0  0  0  0  0  0  0  0  0  0  0
    7.6218    6.5958    0.0302 H   0  0  0  0  0  0  0  0  0  0  0  0
    7.5277    5.0320    0.3554 H   0  0  0  0  0  0  0  0  0  0  0  0
    8.7050    5.9111    0.9890 H   0  0  0  0  0  0  0  0  0  0  0  0
    9.2757    2.9450    5.1001 C   0  0  0  0  0  0  0  0  0  0  0  0
   10.3223    3.2474    5.9732 C   0  0  0  0  0  0  0  0  0  0  0  0
   10.8774    3.9986    5.8002 H   0  0  0  0  0  0  0  0  0  0  0  0
   10.5600    2.4628    7.0936 C   0  0  0  0  0  0  0  0  0  0  0  0
   11.2789    2.6840    7.6743 H   0  0  0  0  0  0  0  0  0  0  0  0
    9.7695    1.3677    7.3766 C   0  0  0  0  0  0  0  0  0  0  0  0
    9.9271    0.8438    8.1538 H   0  0  0  0  0  0  0  0  0  0  0  0
    8.7378    1.0493    6.5029 C   0  0  0  0  0  0  0  0  0  0  0  0
    8.1936    0.2893    6.6752 H   0  0  0  0  0  0  0  0  0  0  0  0
    8.4932    1.8267    5.3875 C   0  0  0  0  0  0  0  0  0  0  0  0
    7.7799    1.5959    4.8044 H   0  0  0  0  0  0  0  0  0  0  0  0
   10.2354    5.1473    3.5344 C   0  0  0  0  0  0  0  0  0  0  0  0
   11.0662    4.6318    3.4667 H   0  0  0  0  0  0  0  0  0  0  0  0
   10.2688    5.7199    4.3283 H   0  0  0  0  0  0  0  0  0  0  0  0
   10.1324    5.7038    2.7358 H   0  0  0  0  0  0  0  0  0  0  0  0
    9.1599    2.8550    2.2718 C   0  0  0  0  0  0  0  0  0  0  0  0
    9.0263    3.3252    1.4215 H   0  0  0  0  0  0  0  0  0  0  0  0
    8.5528    2.0877    2.3201 H   0  0  0  0  0  0  0  0  0  0  0  0
   10.0876    2.5409    2.3268 H   0  0  0  0  0  0  0  0  0  0  0  0
    5.2825    2.1043    1.1580 C   0  0  0  0  0  0  0  0  0  0  0  0
    5.5203    1.2668    2.2188 C   0  0  0  0  0  0  0  0  0  0  0  0
    5.3978   -0.0998    2.1122 C   0  0  0  0  0  0  0  0  0  0  0  0
    5.5716   -0.6782    2.8464 H   0  0  0  0  0  0  0  0  0  0  0  0
    5.0010   -0.5858    0.8620 C   0  0  0  0  0  0  0  0  0  0  0  0
    4.9090   -1.5236    0.7376 H   0  0  0  0  0  0  0  0  0  0  0  0
    4.7399    0.2615   -0.1988 C   0  0  0  0  0  0  0  0  0  0  0  0
    4.4629   -0.1045   -1.0326 H   0  0  0  0  0  0  0  0  0  0  0  0
    4.8752    1.6398   -0.0704 C   0  0  0  0  0  0  0  0  0  0  0  0
    4.6959    2.2291   -0.7946 H   0  0  0  0  0  0  0  0  0  0  0  0
    2.7461    5.4639    4.6271 C   0  0  0  0  0  0  0  0  0  0  0  0
    2.9852    4.4523    5.5296 C   0  0  0  0  0  0  0  0  0  0  0  0
    2.0268    4.0295    6.4171 C   0  0  0  0  0  0  0  0  0  0  0  0
    2.1934    3.3316    7.0407 H   0  0  0  0  0  0  0  0  0  0  0  0
    0.7906    4.6833    6.3527 C   0  0  0  0  0  0  0  0  0  0  0  0
    0.0981    4.4229    6.9468 H   0  0  0  0  0  0  0  0  0  0  0  0
    0.5560    5.6967    5.4468 C   0  0  0  0  0  0  0  0  0  0  0  0
   -0.2945    6.1185    5.4347 H   0  0  0  0  0  0  0  0  0  0  0  0
    1.5326    6.1141    4.5556 C   0  0  0  0  0  0  0  0  0  0  0  0
    1.3743    6.8111    3.9294 H   0  0  0  0  0  0  0  0  0  0  0  0
    5.9598    3.3831    2.9004 B   0  0  0  0  0  0  0  0  0  0  0  0
    4.8789    4.7805    4.3287 B   0  0  0  0  0  0  0  0  0  0  0  0
  1  2  1  0  0  0  0
  2  9  1  0  0  0  0
  3  1  1  0  0  0  0
  4  1  1  0  0  0  0
  5 66  1  0  0  0  0
  6 67  1  0  0  0  0
  7 76  1  0  0  0  0
  8 77  1  0  0  0  0
  9 10  4  0  0  0  0
 10 11  1  0  0  0  0
 12 10  4  0  0  0  0
 13 12  1  0  0  0  0
 14 12  4  0  0  0  0
 15 14  1  0  0  0  0
 16 14  4  0  0  0  0
 17 16  1  0  0  0  0
 18  9  4  0  0  0  0
 19 18  1  0  0  0  0
 20  2  1  0  0  0  0
 21 20  1  0  0  0  0
 22 20  1  0  0  0  0
 23 20  1  0  0  0  0
 24  2  1  0  0  0  0
 25 24  1  0  0  0  0
 26 24  1  0  0  0  0
 27 24  1  0  0  0  0
 28  3  1  0  0  0  0
 29 28  4  0  0  0  0
 30 29  1  0  0  0  0
 31 29  4  0  0  0  0
 32 31  1  0  0  0  0
 33 31  4  0  0  0  0
 34 33  1  0  0  0  0
 35 33  4  0  0  0  0
 36 35  1  0  0  0  0
 37 28  4  0  0  0  0
 38 37  1  0  0  0  0
 39  3  1  0  0  0  0
 40 39  1  0  0  0  0
 41 39  1  0  0  0  0
 42 39  1  0  0  0  0
 43  3  1  0  0  0  0
 44 43  1  0  0  0  0
 45 43  1  0  0  0  0
 46 43  1  0  0  0  0
 47  4  1  0  0  0  0
 48 47  4  0  0  0  0
 49 48  1  0  0  0  0
 50 48  4  0  0  0  0
 51 50  1  0  0  0  0
 52 50  4  0  0  0  0
 53 52  1  0  0  0  0
 54 52  4  0  0  0  0
 55 54  1  0  0  0  0
 56 47  4  0  0  0  0
 57 56  1  0  0  0  0
 58  4  1  0  0  0  0
 59 58  1  0  0  0  0
 60 58  1  0  0  0  0
 61 58  1  0  0  0  0
 62  4  1  0  0  0  0
 63 62  1  0  0  0  0
 64 62  1  0  0  0  0
 65 62  1  0  0  0  0
 66 67  4  0  0  0  0
 67 68  4  0  0  0  0
 68 69  1  0  0  0  0
 70 68  4  0  0  0  0
 71 70  1  0  0  0  0
 72 70  4  0  0  0  0
 73 72  1  0  0  0  0
 74 66  4  0  0  0  0
 75 74  1  0  0  0  0
 76 77  4  0  0  0  0
 77 78  4  0  0  0  0
 78 79  1  0  0  0  0
 80 78  4  0  0  0  0
 81 80  1  0  0  0  0
 82 80  4  0  0  0  0
 83 82  1  0  0  0  0
 84 76  4  0  0  0  0
 85 84  1  0  0  0  0
 86  1  1  0  0  0  0
 87  1  1  0  0  0  0
  5 86  1  0  0  0  0
  6 86  1  0  0  0  0
  7 87  1  0  0  0  0
  8 87  1  0  0  0  0
 16 18  4  0  0  0  0
 35 37  4  0  0  0  0
 54 56  4  0  0  0  0
 72 74  4  0  0  0  0
 82 84  4  0  0  0  0
M  END
$$$$
REJYUB

From CSD data. Using bond type 'Any'. No disordered atoms. Largest molecule.
 61 76  0  0  0  0  0  0  0  0999 V2000
    6.3278    3.1355   10.1225 Re  0  0  0  0  0  0  0  0  0  0  0  0
    5.7071    0.8204    9.5124 P   0  0  0  0  0  0  0  0  0  0  0  0
    6.1715    5.5563    9.7478 P   0  0  0  0  0  0  0  0  0  0  0  0
    6.1371    2.1339   12.1711 C   0  0  0  0  0  0  0  0  0  0  0  0
    8.5293    2.5944   10.6135 C   0  0  0  0  0  0  0  0  0  0  0  0
    8.6511    1.4598   11.6194 C   0  0  0  0  0  0  0  0  0  0  0  0
    8.2016    3.6613   13.1486 B   0  0  0  0  0  0  0  0  0  0  0  0
    7.0112    2.4057   13.5921 B   0  0  0  0  0  0  0  0  0  0  0  0
    6.5511    3.6886   12.4023 B   0  0  0  0  0  0  0  0  0  0  0  0
    8.1050    3.9865   11.3882 B   0  0  0  0  0  0  0  0  0  0  0  0
    9.3905    2.9338   12.0413 B   0  0  0  0  0  0  0  0  0  0  0  0
    8.6372    1.9238   13.2811 B   0  0  0  0  0  0  0  0  0  0  0  0
    7.3030    1.0610   12.4482 B   0  0  0  0  0  0  0  0  0  0  0  0
    9.4607    2.5742    9.4089 C   0  0  0  0  0  0  0  0  0  0  0  0
    9.8792    1.3969    8.8261 C   0  0  0  0  0  0  0  0  0  0  0  0
    9.6007    0.5875    9.1898 H   0  0  0  0  0  0  0  0  0  0  0  0
   10.7073    1.3862    7.7080 C   0  0  0  0  0  0  0  0  0  0  0  0
   10.9758    0.5756    7.3402 H   0  0  0  0  0  0  0  0  0  0  0  0
   11.1318    2.5683    7.1428 C   0  0  0  0  0  0  0  0  0  0  0  0
   11.6769    2.5647    6.3884 H   0  0  0  0  0  0  0  0  0  0  0  0
   10.7279    3.7705    7.7256 C   0  0  0  0  0  0  0  0  0  0  0  0
   11.0067    4.5775    7.3592 H   0  0  0  0  0  0  0  0  0  0  0  0
    9.9184    3.7681    8.8383 C   0  0  0  0  0  0  0  0  0  0  0  0
    9.6709    4.5787    9.2196 H   0  0  0  0  0  0  0  0  0  0  0  0
    6.9345   -0.5364    9.4670 C   0  0  0  0  0  0  0  0  0  0  0  0
    6.5026   -1.3494    9.1952 H   0  0  0  0  0  0  0  0  0  0  0  0
    7.3163   -0.6516   10.3404 H   0  0  0  0  0  0  0  0  0  0  0  0
    7.6290   -0.3181    8.8396 H   0  0  0  0  0  0  0  0  0  0  0  0
    4.3569    0.0807   10.4878 C   0  0  0  0  0  0  0  0  0  0  0  0
    3.6619    0.7299   10.6162 H   0  0  0  0  0  0  0  0  0  0  0  0
    4.6943   -0.1982   11.3423 H   0  0  0  0  0  0  0  0  0  0  0  0
    4.0028   -0.6789   10.0200 H   0  0  0  0  0  0  0  0  0  0  0  0
    5.0279    0.7323    7.8256 C   0  0  0  0  0  0  0  0  0  0  0  0
    4.7406   -0.1650    7.6431 H   0  0  0  0  0  0  0  0  0  0  0  0
    5.7062    0.9851    7.1942 H   0  0  0  0  0  0  0  0  0  0  0  0
    4.2809    1.3304    7.7499 H   0  0  0  0  0  0  0  0  0  0  0  0
    5.8684    6.6841   11.1354 C   0  0  0  0  0  0  0  0  0  0  0  0
    6.5768    6.5987   11.7776 H   0  0  0  0  0  0  0  0  0  0  0  0
    5.0312    6.4622   11.5505 H   0  0  0  0  0  0  0  0  0  0  0  0
    5.8358    7.5873   10.8123 H   0  0  0  0  0  0  0  0  0  0  0  0
    7.5426    6.4159    8.8991 C   0  0  0  0  0  0  0  0  0  0  0  0
    7.2445    7.2775    8.6003 H   0  0  0  0  0  0  0  0  0  0  0  0
    7.8280    5.8961    8.1433 H   0  0  0  0  0  0  0  0  0  0  0  0
    8.2774    6.5251    9.5075 H   0  0  0  0  0  0  0  0  0  0  0  0
    4.8002    5.9708    8.6030 C   0  0  0  0  0  0  0  0  0  0  0  0
    3.9607    5.8462    9.0519 H   0  0  0  0  0  0  0  0  0  0  0  0
    4.8405    5.3964    7.8351 H   0  0  0  0  0  0  0  0  0  0  0  0
    4.8813    6.8847    8.3245 H   0  0  0  0  0  0  0  0  0  0  0  0
    6.7308    3.2744    8.2285 C   0  0  0  0  0  0  0  0  0  0  0  0
    4.4147    3.3148   10.0700 C   0  0  0  0  0  0  0  0  0  0  0  0
    7.0245    3.3243    7.1123 O   0  0  0  0  0  0  0  0  0  0  0  0
    3.2524    3.3919   10.1403 O   0  0  0  0  0  0  0  0  0  0  0  0
    8.4471    4.4743   13.8855 H   0  0  0  0  0  0  0  0  0  0  0  0
    6.5471    2.3380   14.4804 H   0  0  0  0  0  0  0  0  0  0  0  0
    5.9230    4.5455   12.6957 H   0  0  0  0  0  0  0  0  0  0  0  0
    8.3869    5.0321   11.1003 H   0  0  0  0  0  0  0  0  0  0  0  0
   10.3469    3.1213   11.9656 H   0  0  0  0  0  0  0  0  0  0  0  0
    9.3512    1.4954   13.9936 H   0  0  0  0  0  0  0  0  0  0  0  0
    5.2344    1.8989   12.2765 H   0  0  0  0  0  0  0  0  0  0  0  0
    9.2726    0.8308   11.3707 H   0  0  0  0  0  0  0  0  0  0  0  0
    7.0674    0.1187   12.8038 H   0  0  0  0  0  0  0  0  0  0  0  0
  1  2  1  0  0  0  0
  2 25  1  0  0  0  0
  3  1  1  0  0  0  0
  4  1  1  0  0  0  0
  5  1  1  0  0  0  0
  6  5  1  0  0  0  0
  7  8  1  0  0  0  0
  8  4  1  0  0  0  0
  9  1  1  0  0  0  0
 10  1  1  0  0  0  0
 11  5  1  0  0  0  0
 12  6  1  0  0  0  0
 13  4  1  0  0  0  0
 14  5  1  0  0  0  0
 15 14  4  0  0  0  0
 16 15  1  0  0  0  0
 17 15  4  0  0  0  0
 18 17  1  0  0  0  0
 19 17  4  0  0  0  0
 20 19  1  0  0  0  0
 21 19  4  0  0  0  0
 22 21  1  0  0  0  0
 23 14  4  0  0  0  0
 24 23  1  0  0  0  0
 25 26  1  0  0  0  0
 27 25  1  0  0  0  0
 28 25  1  0  0  0  0
 29  2  1  0  0  0  0
 30 29  1  0  0  0  0
 31 29  1  0  0  0  0
 32 29  1  0  0  0  0
 33  2  1  0  0  0  0
 34 33  1  0  0  0  0
 35 33  1  0  0  0  0
 36 33  1  0  0  0  0
 37  3  1  0  0  0  0
 38 37  1  0  0  0  0
 39 37  1  0  0  0  0
 40 37  1  0  0  0  0
 41  3  1  0  0  0  0
 42 41  1  0  0  0  0
 43 41  1  0  0  0  0
 44 41  1  0  0  0  0
 45  3  1  0  0  0  0
 46 45  1  0  0  0  0
 47 45  1  0  0  0  0
 48 45  1  0  0  0  0
 49  1  1  0  0  0  0
 50  1  1  0  0  0  0
 51 49  3  0  0  0  0
 52 50  3  0  0  0  0
 53  7  1  0  0  0  0
 54  8  1  0  0  0  0
 55  9  1  0  0  0  0
 56 10  1  0  0  0  0
 57 11  1  0  0  0  0
 58 12  1  0  0  0  0
 59  4  1  0  0  0  0
 60  6  1  0  0  0  0
 61 13  1  0  0  0  0
  4  9  1  0  0  0  0
  5 10  1  0  0  0  0
  6 11  1  0  0  0  0
  6 13  1  0  0  0  0
  7  9  1  0  0  0  0
  7 10  1  0  0  0  0
  7 11  1  0  0  0  0
  7 12  1  0  0  0  0
  8  9  1  0  0  0  0
  8 12  1  0  0  0  0
  8 13  1  0  0  0  0
  9 10  1  0  0  0  0
 10 11  1  0  0  0  0
 11 12  1  0  0  0  0
 12 13  1  0  0  0  0
 21 23  4  0  0  0  0
M  END
$$$$
REJZAI

From CSD data. Using bond type 'Any'. No disordered atoms. Largest molecule.
 59 76  0  0  0  0  0  0  0  0999 V2000
    5.6222    5.9633    9.2093 Re  0  0  0  0  0  0  0  0  0  0  0  0
    4.7579    7.8932    9.1569 C   0  0  0  0  0  0  0  0  0  0  0  0
    7.6823    6.4279    8.5992 C   0  0  0  0  0  0  0  0  0  0  0  0
    8.3391    5.5467    8.5599 H   0  0  0  0  0  0  0  0  0  0  0  0
    5.3201    7.8279    7.7073 C   0  0  0  0  0  0  0  0  0  0  0  0
    4.5943    7.7661    6.8843 H   0  0  0  0  0  0  0  0  0  0  0  0
    5.9502    8.2007   10.1274 B   0  0  0  0  0  0  0  0  0  0  0  0
    5.7164    8.4188   11.1814 H   0  0  0  0  0  0  0  0  0  0  0  0
    7.5421    7.3727    9.8743 B   0  0  0  0  0  0  0  0  0  0  0  0
    8.1310    7.1425   10.7760 H   0  0  0  0  0  0  0  0  0  0  0  0
    6.8919    6.9845    7.3683 B   0  0  0  0  0  0  0  0  0  0  0  0
    6.9899    6.4709    6.4003 H   0  0  0  0  0  0  0  0  0  0  0  0
    5.6140    9.2640    8.7343 B   0  0  0  0  0  0  0  0  0  0  0  0
    5.1765   10.2723    8.6975 H   0  0  0  0  0  0  0  0  0  0  0  0
    8.1421    7.9688    8.2503 B   0  0  0  0  0  0  0  0  0  0  0  0
    9.1596    8.2471    7.9383 H   0  0  0  0  0  0  0  0  0  0  0  0
    6.8140    8.7796    7.5476 B   0  0  0  0  0  0  0  0  0  0  0  0
    7.0077    9.4426    6.6926 H   0  0  0  0  0  0  0  0  0  0  0  0
    7.2459    9.0493    9.2797 B   0  0  0  0  0  0  0  0  0  0  0  0
    7.7647    9.9116    9.7220 H   0  0  0  0  0  0  0  0  0  0  0  0
    3.3040    8.0925    9.4763 C   0  0  0  0  0  0  0  0  0  0  0  0
    2.8866    8.3450   10.7809 C   0  0  0  0  0  0  0  0  0  0  0  0
    3.5167    8.4652   11.4541 H   0  0  0  0  0  0  0  0  0  0  0  0
    1.5396    8.4171   11.0807 C   0  0  0  0  0  0  0  0  0  0  0  0
    1.2646    8.5941   11.9529 H   0  0  0  0  0  0  0  0  0  0  0  0
    0.6023    8.2247   10.0856 C   0  0  0  0  0  0  0  0  0  0  0  0
   -0.3050    8.2505   10.2871 H   0  0  0  0  0  0  0  0  0  0  0  0
    1.0197    7.9945    8.7785 C   0  0  0  0  0  0  0  0  0  0  0  0
    0.3841    7.8880    8.1078 H   0  0  0  0  0  0  0  0  0  0  0  0
    2.3567    7.9224    8.4616 C   0  0  0  0  0  0  0  0  0  0  0  0
    2.6261    7.7626    7.5869 H   0  0  0  0  0  0  0  0  0  0  0  0
    6.3770    4.6521   11.0423 P   0  0  0  0  0  0  0  0  0  0  0  0
    5.3199    4.1440    7.7066 P   0  0  0  0  0  0  0  0  0  0  0  0
    6.2251    5.5055   12.6310 C   0  0  0  0  0  0  0  0  0  0  0  0
    5.3134    5.7735   12.7636 H   0  0  0  0  0  0  0  0  0  0  0  0
    6.7918    6.2802   12.6334 H   0  0  0  0  0  0  0  0  0  0  0  0
    6.4901    4.9129   13.3386 H   0  0  0  0  0  0  0  0  0  0  0  0
    8.1243    4.1330   11.0340 C   0  0  0  0  0  0  0  0  0  0  0  0
    8.6887    4.9094   11.0782 H   0  0  0  0  0  0  0  0  0  0  0  0
    8.3102    3.6503   10.2257 H   0  0  0  0  0  0  0  0  0  0  0  0
    8.2946    3.5678   11.7907 H   0  0  0  0  0  0  0  0  0  0  0  0
    5.5639    3.0680   11.4001 C   0  0  0  0  0  0  0  0  0  0  0  0
    5.8789    2.7296   12.2403 H   0  0  0  0  0  0  0  0  0  0  0  0
    5.7687    2.4392   10.7048 H   0  0  0  0  0  0  0  0  0  0  0  0
    4.6132    3.1985   11.4418 H   0  0  0  0  0  0  0  0  0  0  0  0
    6.7606    3.0817    7.3560 C   0  0  0  0  0  0  0  0  0  0  0  0
    6.5402    2.4650    6.6558 H   0  0  0  0  0  0  0  0  0  0  0  0
    6.9999    2.5956    8.1471 H   0  0  0  0  0  0  0  0  0  0  0  0
    7.5009    3.6280    7.0808 H   0  0  0  0  0  0  0  0  0  0  0  0
    3.9920    2.9443    8.0709 C   0  0  0  0  0  0  0  0  0  0  0  0
    3.1426    3.3909    8.0488 H   0  0  0  0  0  0  0  0  0  0  0  0
    4.1334    2.5664    8.9432 H   0  0  0  0  0  0  0  0  0  0  0  0
    4.0031    2.2451    7.4125 H   0  0  0  0  0  0  0  0  0  0  0  0
    4.8125    4.6157    6.0342 C   0  0  0  0  0  0  0  0  0  0  0  0
    5.5316    5.0795    5.5993 H   0  0  0  0  0  0  0  0  0  0  0  0
    4.0443    5.1894    6.0833 H   0  0  0  0  0  0  0  0  0  0  0  0
    4.5920    3.8272    5.5330 H   0  0  0  0  0  0  0  0  0  0  0  0
    3.8996    5.3870    9.8375 C   0  0  0  0  0  0  0  0  0  0  0  0
    2.8810    5.0121   10.2217 O   0  0  0  0  0  0  0  0  0  0  0  0
  1  2  1  0  0  0  0
  2  5  1  0  0  0  0
  3  1  1  0  0  0  0
  4  3  1  0  0  0  0
  5  1  1  0  0  0  0
  6  5  1  0  0  0  0
  7  1  1  0  0  0  0
  8  7  1  0  0  0  0
  9  1  1  0  0  0  0
 10  9  1  0  0  0  0
 11  1  1  0  0  0  0
 12 11  1  0  0  0  0
 13  2  1  0  0  0  0
 14 13  1  0  0  0  0
 15  3  1  0  0  0  0
 16 15  1  0  0  0  0
 17  5  1  0  0  0  0
 18 17  1  0  0  0  0
 19  7  1  0  0  0  0
 20 19  1  0  0  0  0
 21  2  1  0  0  0  0
 22 21  4  0  0  0  0
 23 22  1  0  0  0  0
 24 22  4  0  0  0  0
 25 24  1  0  0  0  0
 26 24  4  0  0  0  0
 27 26  1  0  0  0  0
 28 26  4  0  0  0  0
 29 28  1  0  0  0  0
 30 21  4  0  0  0  0
 31 30  1  0  0  0  0
 32  1  1  0  0  0  0
 33  1  1  0  0  0  0
 34 32  1  0  0  0  0
 35 34  1  0  0  0  0
 36 34  1  0  0  0  0
 37 34  1  0  0  0  0
 38 32  1  0  0  0  0
 39 38  1  0  0  0  0
 40 38  1  0  0  0  0
 41 38  1  0  0  0  0
 42 32  1  0  0  0  0
 43 42  1  0  0  0  0
 44 42  1  0  0  0  0
 45 42  1  0  0  0  0
 46 33  1  0  0  0  0
 47 46  1  0  0  0  0
 48 46  1  0  0  0  0
 49 46  1  0  0  0  0
 50 33  1  0  0  0  0
 51 50  1  0  0  0  0
 52 50  1  0  0  0  0
 53 50  1  0  0  0  0
 54 33  1  0  0  0  0
 55 54  1  0  0  0  0
 56 54  1  0  0  0  0
 57 54  1  0  0  0  0
 58  1  1  0  0  0  0
 59 58  3  0  0  0  0
  2  7  1  0  0  0  0
  3  9  1  0  0  0  0
  3 11  1  0  0  0  0
  5 11  1  0  0  0  0
  5 13  1  0  0  0  0
  7  9  1  0  0  0  0
  7 13  1  0  0  0  0
  9 15  1  0  0  0  0
  9 19  1  0  0  0  0
 11 15  1  0  0  0  0
 11 17  1  0  0  0  0
 13 17  1  0  0  0  0
 13 19  1  0  0  0  0
 15 17  1  0  0  0  0
 15 19  1  0  0  0  0
 17 19  1  0  0  0  0
 28 30  4  0  0  0  0
M  END
$$$$
REKQAZ

From CSD data. Using bond type 'Any'. No disordered atoms. Largest molecule.
105116  0  0  0  0  0  0  0  0999 V2000
   17.1513   -6.0287   24.1733 Os  0  0  0  0  0  0  0  0  0  0  0  0
   15.7042   -6.4419   22.3574 P   0  0  0  0  0  0  0  0  0  0  0  0
   19.0724   -7.2395   23.6390 P   0  0  0  0  0  0  0  0  0  0  0  0
   16.1299   -2.3529   27.7264 P   0  0  0  0  0  0  0  0  0  0  0  0
   18.3963   -3.4481   23.2269 O   0  0  0  0  0  0  0  0  0  0  0  0
   17.6000   -5.7082   26.3383 B   0  0  0  0  0  0  0  0  0  0  0  0
   16.1871   -4.7456   25.9617 B   0  0  0  0  0  0  0  0  0  0  0  0
   16.1662   -6.1335   27.1782 B   0  0  0  0  0  0  0  0  0  0  0  0
   17.0218   -7.3130   26.1450 B   0  0  0  0  0  0  0  0  0  0  0  0
   15.7041   -3.1312   26.0208 B   0  0  0  0  0  0  0  0  0  0  0  0
   17.8528   -4.4323   23.4871 C   0  0  0  0  0  0  0  0  0  0  0  0
   14.5041   -5.1106   22.0636 C   0  0  0  0  0  0  0  0  0  0  0  0
   14.7667   -3.7782   22.5249 C   0  0  0  0  0  0  0  0  0  0  0  0
   13.8619   -2.7746   22.2962 C   0  0  0  0  0  0  0  0  0  0  0  0
   12.7080   -3.0083   21.6022 C   0  0  0  0  0  0  0  0  0  0  0  0
   12.4257   -4.3131   21.2019 C   0  0  0  0  0  0  0  0  0  0  0  0
   13.3154   -5.3239   21.4228 C   0  0  0  0  0  0  0  0  0  0  0  0
   14.5737   -7.9202   22.6413 C   0  0  0  0  0  0  0  0  0  0  0  0
   13.9458   -8.0045   23.8775 C   0  0  0  0  0  0  0  0  0  0  0  0
   13.0977   -9.0105   24.1516 C   0  0  0  0  0  0  0  0  0  0  0  0
   12.8603  -10.0237   23.1736 C   0  0  0  0  0  0  0  0  0  0  0  0
   13.4652   -9.8900   21.9768 C   0  0  0  0  0  0  0  0  0  0  0  0
   14.2700   -8.8213   21.6732 C   0  0  0  0  0  0  0  0  0  0  0  0
   16.3507   -6.7636   20.6577 C   0  0  0  0  0  0  0  0  0  0  0  0
   16.1768   -5.8010   19.6443 C   0  0  0  0  0  0  0  0  0  0  0  0
   16.6930   -6.0202   18.3883 C   0  0  0  0  0  0  0  0  0  0  0  0
   17.3681   -7.2286   18.1004 C   0  0  0  0  0  0  0  0  0  0  0  0
   17.5147   -8.1418   19.1080 C   0  0  0  0  0  0  0  0  0  0  0  0
   17.0234   -7.8912   20.3561 C   0  0  0  0  0  0  0  0  0  0  0  0
   18.8707   -9.0828   23.8598 C   0  0  0  0  0  0  0  0  0  0  0  0
   17.6825   -9.6731   23.5956 C   0  0  0  0  0  0  0  0  0  0  0  0
   17.4493  -11.0236   23.7652 C   0  0  0  0  0  0  0  0  0  0  0  0
   18.5029  -11.8260   24.1753 C   0  0  0  0  0  0  0  0  0  0  0  0
   19.7271  -11.2863   24.4217 C   0  0  0  0  0  0  0  0  0  0  0  0
   19.9217   -9.9189   24.2798 C   0  0  0  0  0  0  0  0  0  0  0  0
   19.8245   -7.1057   21.9492 C   0  0  0  0  0  0  0  0  0  0  0  0
   19.4956   -6.0287   21.0955 C   0  0  0  0  0  0  0  0  0  0  0  0
   20.0391   -5.9082   19.8375 C   0  0  0  0  0  0  0  0  0  0  0  0
   20.9797   -6.8455   19.4096 C   0  0  0  0  0  0  0  0  0  0  0  0
   21.3271   -7.8864   20.2476 C   0  0  0  0  0  0  0  0  0  0  0  0
   20.7775   -8.0045   21.4957 C   0  0  0  0  0  0  0  0  0  0  0  0
   20.5003   -6.8335   24.6860 C   0  0  0  0  0  0  0  0  0  0  0  0
   21.5079   -5.9552   24.2068 C   0  0  0  0  0  0  0  0  0  0  0  0
   22.5904   -5.6034   25.0350 C   0  0  0  0  0  0  0  0  0  0  0  0
   22.6785   -6.0901   26.2969 C   0  0  0  0  0  0  0  0  0  0  0  0
   21.6562   -6.9551   26.7957 C   0  0  0  0  0  0  0  0  0  0  0  0
   20.6098   -7.2708   25.9715 C   0  0  0  0  0  0  0  0  0  0  0  0
   17.8899   -2.2300   27.9669 C   0  0  0  0  0  0  0  0  0  0  0  0
   15.4441   -3.3059   29.1302 C   0  0  0  0  0  0  0  0  0  0  0  0
   16.1767   -3.6794   30.2028 C   0  0  0  0  0  0  0  0  0  0  0  0
   15.5771   -4.4083   31.2222 C   0  0  0  0  0  0  0  0  0  0  0  0
   14.2448   -4.7107   31.1098 C   0  0  0  0  0  0  0  0  0  0  0  0
   13.4971   -4.4215   30.0668 C   0  0  0  0  0  0  0  0  0  0  0  0
   14.1013   -3.6372   29.0454 C   0  0  0  0  0  0  0  0  0  0  0  0
   15.5488   -0.6506   27.9472 C   0  0  0  0  0  0  0  0  0  0  0  0
   15.1514   -0.1855   29.1815 C   0  0  0  0  0  0  0  0  0  0  0  0
   14.6830    1.0771   29.3708 C   0  0  0  0  0  0  0  0  0  0  0  0
   14.6489    1.9276   28.2508 C   0  0  0  0  0  0  0  0  0  0  0  0
   15.0665    1.4602   27.0560 C   0  0  0  0  0  0  0  0  0  0  0  0
   15.4640    0.2072   26.8489 C   0  0  0  0  0  0  0  0  0  0  0  0
   16.2117   -2.5650   25.2262 H   0  0  0  0  0  0  0  0  0  0  0  0
   14.6209   -3.0673   25.8453 H   0  0  0  0  0  0  0  0  0  0  0  0
   15.5554   -3.5926   22.9804 H   0  0  0  0  0  0  0  0  0  0  0  0
   14.0354   -1.9204   22.6196 H   0  0  0  0  0  0  0  0  0  0  0  0
   12.1253   -2.3120   21.4030 H   0  0  0  0  0  0  0  0  0  0  0  0
   11.6184   -4.4986   20.7780 H   0  0  0  0  0  0  0  0  0  0  0  0
   13.1087   -6.1805   21.1270 H   0  0  0  0  0  0  0  0  0  0  0  0
   14.1148   -7.3575   24.5223 H   0  0  0  0  0  0  0  0  0  0  0  0
   12.6668   -9.0466   24.9758 H   0  0  0  0  0  0  0  0  0  0  0  0
   12.3077  -10.7490   23.3550 H   0  0  0  0  0  0  0  0  0  0  0  0
   13.3329  -10.5478   21.3321 H   0  0  0  0  0  0  0  0  0  0  0  0
   14.6047   -8.7153   20.8115 H   0  0  0  0  0  0  0  0  0  0  0  0
   15.7110   -5.0167   19.8237 H   0  0  0  0  0  0  0  0  0  0  0  0
   16.5987   -5.3733   17.7277 H   0  0  0  0  0  0  0  0  0  0  0  0
   17.7021   -7.3985   17.2506 H   0  0  0  0  0  0  0  0  0  0  0  0
   17.9540   -8.9442   18.9404 H   0  0  0  0  0  0  0  0  0  0  0  0
   17.1587   -8.5237   21.0245 H   0  0  0  0  0  0  0  0  0  0  0  0
   16.9867   -9.1418   23.2821 H   0  0  0  0  0  0  0  0  0  0  0  0
   16.6066  -11.3863   23.6074 H   0  0  0  0  0  0  0  0  0  0  0  0
   18.3726  -12.7404   24.2837 H   0  0  0  0  0  0  0  0  0  0  0  0
   20.4325  -11.8320   24.6840 H   0  0  0  0  0  0  0  0  0  0  0  0
   20.7561   -9.5514   24.4651 H   0  0  0  0  0  0  0  0  0  0  0  0
   18.8937   -5.3841   21.3932 H   0  0  0  0  0  0  0  0  0  0  0  0
   19.7843   -5.2106   19.2775 H   0  0  0  0  0  0  0  0  0  0  0  0
   21.3689   -6.7708   18.5677 H   0  0  0  0  0  0  0  0  0  0  0  0
   21.9449   -8.5189   19.9597 H   0  0  0  0  0  0  0  0  0  0  0  0
   21.0472   -8.7008   22.0498 H   0  0  0  0  0  0  0  0  0  0  0  0
   21.4525   -5.6118   23.3452 H   0  0  0  0  0  0  0  0  0  0  0  0
   23.2509   -5.0335   24.7136 H   0  0  0  0  0  0  0  0  0  0  0  0
   23.4009   -5.8612   26.8371 H   0  0  0  0  0  0  0  0  0  0  0  0
   21.7003   -7.2961   27.6613 H   0  0  0  0  0  0  0  0  0  0  0  0
   19.9352   -7.8153   26.3087 H   0  0  0  0  0  0  0  0  0  0  0  0
   18.2881   -3.0987   27.8663 H   0  0  0  0  0  0  0  0  0  0  0  0
   18.0713   -1.8951   28.8463 H   0  0  0  0  0  0  0  0  0  0  0  0
   18.2615   -1.6325   27.3123 H   0  0  0  0  0  0  0  0  0  0  0  0
   17.0762   -3.4505   30.2600 H   0  0  0  0  0  0  0  0  0  0  0  0
   16.0674   -4.6841   31.9616 H   0  0  0  0  0  0  0  0  0  0  0  0
   13.8410   -5.1516   31.8216 H   0  0  0  0  0  0  0  0  0  0  0  0
   12.6171   -4.7155   30.0017 H   0  0  0  0  0  0  0  0  0  0  0  0
   13.5961   -3.3469   28.3198 H   0  0  0  0  0  0  0  0  0  0  0  0
   15.2063   -0.7554   29.9130 H   0  0  0  0  0  0  0  0  0  0  0  0
   14.3974    1.3662   30.2068 H   0  0  0  0  0  0  0  0  0  0  0  0
   14.3408    2.8011   28.3336 H   0  0  0  0  0  0  0  0  0  0  0  0
   15.0770    2.0481   26.3363 H   0  0  0  0  0  0  0  0  0  0  0  0
   15.6809   -0.0904   25.9952 H   0  0  0  0  0  0  0  0  0  0  0  0
  1  2  1  0  0  0  0
  2 12  1  0  0  0  0
  3  1  1  0  0  0  0
  4 10  1  0  0  0  0
  5 11  3  0  0  0  0
  6  1  1  0  0  0  0
  7  1  1  0  0  0  0
  8  6  1  0  0  0  0
  9  1  1  0  0  0  0
 10  7  1  0  0  0  0
 11  1  1  0  0  0  0
 12 13  4  0  0  0  0
 13 14  4  0  0  0  0
 14 15  4  0  0  0  0
 15 16  4  0  0  0  0
 16 17  4  0  0  0  0
 17 12  4  0  0  0  0
 18  2  1  0  0  0  0
 19 18  4  0  0  0  0
 20 19  4  0  0  0  0
 21 20  4  0  0  0  0
 22 21  4  0  0  0  0
 23 18  4  0  0  0  0
 24  2  1  0  0  0  0
 25 24  4  0  0  0  0
 26 25  4  0  0  0  0
 27 26  4  0  0  0  0
 28 27  4  0  0  0  0
 29 24  4  0  0  0  0
 30  3  1  0  0  0  0
 31 30  4  0  0  0  0
 32 31  4  0  0  0  0
 33 32  4  0  0  0  0
 34 33  4  0  0  0  0
 35 30  4  0  0  0  0
 36  3  1  0  0  0  0
 37 36  4  0  0  0  0
 38 37  4  0  0  0  0
 39 38  4  0  0  0  0
 40 39  4  0  0  0  0
 41 36  4  0  0  0  0
 42  3  1  0  0  0  0
 43 42  4  0  0  0  0
 44 43  4  0  0  0  0
 45 44  4  0  0  0  0
 46 45  4  0  0  0  0
 47 42  4  0  0  0  0
 48  4  1  0  0  0  0
 49  4  1  0  0  0  0
 50 49  4  0  0  0  0
 51 50  4  0  0  0  0
 52 51  4  0  0  0  0
 53 52  4  0  0  0  0
 54 49  4  0  0  0  0
 55  4  1  0  0  0  0
 56 55  4  0  0  0  0
 57 56  4  0  0  0  0
 58 57  4  0  0  0  0
 59 58  4  0  0  0  0
 60 55  4  0  0  0  0
 61 10  1  0  0  0  0
 62 10  1  0  0  0  0
 63 13  1  0  0  0  0
 64 14  1  0  0  0  0
 65 15  1  0  0  0  0
 66 16  1  0  0  0  0
 67 17  1  0  0  0  0
 68 19  1  0  0  0  0
 69 20  1  0  0  0  0
 70 21  1  0  0  0  0
 71 22  1  0  0  0  0
 72 23  1  0  0  0  0
 73 25  1  0  0  0  0
 74 26  1  0  0  0  0
 75 27  1  0  0  0  0
 76 28  1  0  0  0  0
 77 29  1  0  0  0  0
 78 31  1  0  0  0  0
 79 32  1  0  0  0  0
 80 33  1  0  0  0  0
 81 34  1  0  0  0  0
 82 35  1  0  0  0  0
 83 37  1  0  0  0  0
 84 38  1  0  0  0  0
 85 39  1  0  0  0  0
 86 40  1  0  0  0  0
 87 41  1  0  0  0  0
 88 43  1  0  0  0  0
 89 44  1  0  0  0  0
 90 45  1  0  0  0  0
 91 46  1  0  0  0  0
 92 47  1  0  0  0  0
 93 48  1  0  0  0  0
 94 48  1  0  0  0  0
 95 48  1  0  0  0  0
 96 50  1  0  0  0  0
 97 51  1  0  0  0  0
 98 52  1  0  0  0  0
 99 53  1  0  0  0  0
100 54  1  0  0  0  0
101 56  1  0  0  0  0
102 57  1  0  0  0  0
103 58  1  0  0  0  0
104 59  1  0  0  0  0
105 60  1  0  0  0  0
  6  7  1  0  0  0  0
  6  9  1  0  0  0  0
  7  8  1  0  0  0  0
  8  9  1  0  0  0  0
 22 23  4  0  0  0  0
 28 29  4  0  0  0  0
 34 35  4  0  0  0  0
 40 41  4  0  0  0  0
 46 47  4  0  0  0  0
 53 54  4  0  0  0  0
 59 60  4  0  0  0  0
M  END
$$$$
REKQAZ01

From CSD data. Using bond type 'Any'. No disordered atoms. Largest molecule.
105116  0  0  0  0  0  0  0  0999 V2000
   17.1377   -6.0248   24.1577 Os  0  0  0  0  0  0  0  0  0  0  0  0
   15.6932   -6.4391   22.3435 P   0  0  0  0  0  0  0  0  0  0  0  0
   19.0583   -7.2350   23.6215 P   0  0  0  0  0  0  0  0  0  0  0  0
   16.1161   -2.3515   27.7102 P   0  0  0  0  0  0  0  0  0  0  0  0
   18.3915   -3.4483   23.2156 O   0  0  0  0  0  0  0  0  0  0  0  0
   17.5907   -5.7143   26.3151 B   0  0  0  0  0  0  0  0  0  0  0  0
   16.1650   -4.7535   25.9447 B   0  0  0  0  0  0  0  0  0  0  0  0
   16.1532   -6.1525   27.1644 B   0  0  0  0  0  0  0  0  0  0  0  0
   17.0163   -7.3060   26.1279 B   0  0  0  0  0  0  0  0  0  0  0  0
   15.6732   -3.1280   26.0077 B   0  0  0  0  0  0  0  0  0  0  0  0
   16.1815   -2.5622   25.2136 H   0  0  0  0  0  0  0  0  0  0  0  0
   14.5918   -3.0642   25.8323 H   0  0  0  0  0  0  0  0  0  0  0  0
   17.8527   -4.4236   23.4757 C   0  0  0  0  0  0  0  0  0  0  0  0
   14.4922   -5.0990   22.0471 C   0  0  0  0  0  0  0  0  0  0  0  0
   14.7665   -3.7806   22.5082 C   0  0  0  0  0  0  0  0  0  0  0  0
   15.5627   -3.5988   22.9595 H   0  0  0  0  0  0  0  0  0  0  0  0
   13.8395   -2.7813   22.2737 C   0  0  0  0  0  0  0  0  0  0  0  0
   14.0131   -1.9228   22.5949 H   0  0  0  0  0  0  0  0  0  0  0  0
   12.6864   -3.0113   21.5880 C   0  0  0  0  0  0  0  0  0  0  0  0
   12.1021   -2.3153   21.3949 H   0  0  0  0  0  0  0  0  0  0  0  0
   12.3992   -4.3092   21.1861 C   0  0  0  0  0  0  0  0  0  0  0  0
   11.5938   -4.4958   20.7605 H   0  0  0  0  0  0  0  0  0  0  0  0
   13.3003   -5.3133   21.4127 C   0  0  0  0  0  0  0  0  0  0  0  0
   13.0945   -6.1742   21.1270 H   0  0  0  0  0  0  0  0  0  0  0  0
   14.5544   -7.9056   22.6304 C   0  0  0  0  0  0  0  0  0  0  0  0
   13.9291   -7.9983   23.8659 C   0  0  0  0  0  0  0  0  0  0  0  0
   14.1017   -7.3542   24.5141 H   0  0  0  0  0  0  0  0  0  0  0  0
   13.0743   -9.0097   24.1457 C   0  0  0  0  0  0  0  0  0  0  0  0
   12.6488   -9.0506   24.9713 H   0  0  0  0  0  0  0  0  0  0  0  0
   12.8355  -10.0066   23.1644 C   0  0  0  0  0  0  0  0  0  0  0  0
   12.2793  -10.7302   23.3437 H   0  0  0  0  0  0  0  0  0  0  0  0
   13.4428   -9.8766   21.9565 C   0  0  0  0  0  0  0  0  0  0  0  0
   13.3009  -10.5316   21.3122 H   0  0  0  0  0  0  0  0  0  0  0  0
   14.2494   -8.8122   21.6590 C   0  0  0  0  0  0  0  0  0  0  0  0
   14.5904   -8.7087   20.7979 H   0  0  0  0  0  0  0  0  0  0  0  0
   16.3354   -6.7558   20.6422 C   0  0  0  0  0  0  0  0  0  0  0  0
   16.1751   -5.8034   19.6334 C   0  0  0  0  0  0  0  0  0  0  0  0
   15.7225   -5.0111   19.8127 H   0  0  0  0  0  0  0  0  0  0  0  0
   16.6870   -6.0321   18.3684 C   0  0  0  0  0  0  0  0  0  0  0  0
   16.5826   -5.3916   17.7043 H   0  0  0  0  0  0  0  0  0  0  0  0
   17.3567   -7.2217   18.0846 C   0  0  0  0  0  0  0  0  0  0  0  0
   17.6930   -7.3867   17.2334 H   0  0  0  0  0  0  0  0  0  0  0  0
   17.5104   -8.1428   19.0935 C   0  0  0  0  0  0  0  0  0  0  0  0
   17.9476   -8.9459   18.9240 H   0  0  0  0  0  0  0  0  0  0  0  0
   17.0238   -7.8875   20.3408 C   0  0  0  0  0  0  0  0  0  0  0  0
   17.1682   -8.5136   21.0127 H   0  0  0  0  0  0  0  0  0  0  0  0
   18.8567   -9.0795   23.8422 C   0  0  0  0  0  0  0  0  0  0  0  0
   17.6853   -9.6623   23.5723 C   0  0  0  0  0  0  0  0  0  0  0  0
   16.9912   -9.1325   23.2511 H   0  0  0  0  0  0  0  0  0  0  0  0
   17.4590  -11.0132   23.7476 C   0  0  0  0  0  0  0  0  0  0  0  0
   16.6121  -11.3768   23.5939 H   0  0  0  0  0  0  0  0  0  0  0  0
   18.5013  -11.8114   24.1555 C   0  0  0  0  0  0  0  0  0  0  0  0
   18.3663  -12.7205   24.2599 H   0  0  0  0  0  0  0  0  0  0  0  0
   19.7278  -11.2805   24.4097 C   0  0  0  0  0  0  0  0  0  0  0  0
   20.4281  -11.8295   24.6737 H   0  0  0  0  0  0  0  0  0  0  0  0
   19.9166   -9.9067   24.2698 C   0  0  0  0  0  0  0  0  0  0  0  0
   20.7465   -9.5334   24.4589 H   0  0  0  0  0  0  0  0  0  0  0  0
   19.7979   -7.1049   21.9329 C   0  0  0  0  0  0  0  0  0  0  0  0
   19.4850   -6.0442   21.0836 C   0  0  0  0  0  0  0  0  0  0  0  0
   18.8818   -5.4048   21.3851 H   0  0  0  0  0  0  0  0  0  0  0  0
   20.0187   -5.8877   19.8245 C   0  0  0  0  0  0  0  0  0  0  0  0
   19.7693   -5.1809   19.2807 H   0  0  0  0  0  0  0  0  0  0  0  0
   20.9530   -6.8449   19.3910 C   0  0  0  0  0  0  0  0  0  0  0  0
   21.3295   -6.7810   18.5457 H   0  0  0  0  0  0  0  0  0  0  0  0
   21.2944   -7.8839   20.2383 C   0  0  0  0  0  0  0  0  0  0  0  0
   21.9109   -8.5172   19.9486 H   0  0  0  0  0  0  0  0  0  0  0  0
   20.7543   -8.0019   21.4895 C   0  0  0  0  0  0  0  0  0  0  0  0
   21.0329   -8.6918   22.0471 H   0  0  0  0  0  0  0  0  0  0  0  0
   20.4787   -6.8256   24.6678 C   0  0  0  0  0  0  0  0  0  0  0  0
   21.4919   -5.9719   24.1969 C   0  0  0  0  0  0  0  0  0  0  0  0
   21.4520   -5.6469   23.3260 H   0  0  0  0  0  0  0  0  0  0  0  0
   22.5652   -5.6011   25.0304 C   0  0  0  0  0  0  0  0  0  0  0  0
   23.2198   -5.0196   24.7171 H   0  0  0  0  0  0  0  0  0  0  0  0
   22.6444   -6.0923   26.2855 C   0  0  0  0  0  0  0  0  0  0  0  0
   23.3627   -5.8624   26.8274 H   0  0  0  0  0  0  0  0  0  0  0  0
   21.6401   -6.9653   26.7841 C   0  0  0  0  0  0  0  0  0  0  0  0
   21.6914   -7.3180   27.6432 H   0  0  0  0  0  0  0  0  0  0  0  0
   20.6017   -7.2614   25.9624 C   0  0  0  0  0  0  0  0  0  0  0  0
   19.9230   -7.8008   26.3013 H   0  0  0  0  0  0  0  0  0  0  0  0
   17.8763   -2.2226   27.9407 C   0  0  0  0  0  0  0  0  0  0  0  0
   18.2774   -3.0907   27.8402 H   0  0  0  0  0  0  0  0  0  0  0  0
   18.0619   -1.8843   28.8195 H   0  0  0  0  0  0  0  0  0  0  0  0
   18.2436   -1.6254   27.2845 H   0  0  0  0  0  0  0  0  0  0  0  0
   15.4214   -3.3038   29.1111 C   0  0  0  0  0  0  0  0  0  0  0  0
   16.1580   -3.6855   30.1811 C   0  0  0  0  0  0  0  0  0  0  0  0
   17.0547   -3.4664   30.2382 H   0  0  0  0  0  0  0  0  0  0  0  0
   15.5228   -4.4188   31.2096 C   0  0  0  0  0  0  0  0  0  0  0  0
   16.0019   -4.7053   31.9564 H   0  0  0  0  0  0  0  0  0  0  0  0
   14.1731   -4.6957   31.0599 C   0  0  0  0  0  0  0  0  0  0  0  0
   13.7522   -5.1267   31.7653 H   0  0  0  0  0  0  0  0  0  0  0  0
   13.4696   -4.4067   30.0294 C   0  0  0  0  0  0  0  0  0  0  0  0
   12.5802   -4.6836   29.9525 H   0  0  0  0  0  0  0  0  0  0  0  0
   14.0886   -3.6602   29.0382 C   0  0  0  0  0  0  0  0  0  0  0  0
   13.5873   -3.3785   28.3033 H   0  0  0  0  0  0  0  0  0  0  0  0
   15.5239   -0.6550   27.9289 C   0  0  0  0  0  0  0  0  0  0  0  0
   15.1226   -0.1686   29.1683 C   0  0  0  0  0  0  0  0  0  0  0  0
   15.1881   -0.7248   29.9072 H   0  0  0  0  0  0  0  0  0  0  0  0
   14.6479    1.0848   29.3515 C   0  0  0  0  0  0  0  0  0  0  0  0
   14.3589    1.3726   30.1890 H   0  0  0  0  0  0  0  0  0  0  0  0
   14.5836    1.9385   28.2323 C   0  0  0  0  0  0  0  0  0  0  0  0
   14.2636    2.8018   28.3092 H   0  0  0  0  0  0  0  0  0  0  0  0
   15.0155    1.4617   27.0422 C   0  0  0  0  0  0  0  0  0  0  0  0
   15.0295    2.0492   26.3210 H   0  0  0  0  0  0  0  0  0  0  0  0
   15.4354    0.1926   26.8274 C   0  0  0  0  0  0  0  0  0  0  0  0
   15.6546   -0.0963   25.9722 H   0  0  0  0  0  0  0  0  0  0  0  0
  1  2  1  0  0  0  0
  2 14  1  0  0  0  0
  3  1  1  0  0  0  0
  4 10  1  0  0  0  0
  5 13  3  0  0  0  0
  6  1  1  0  0  0  0
  7  1  1  0  0  0  0
  8  6  1  0  0  0  0
  9  1  1  0  0  0  0
 10  7  1  0  0  0  0
 11 10  1  0  0  0  0
 12 10  1  0  0  0  0
 13  1  1  0  0  0  0
 14 15  4  0  0  0  0
 15 16  1  0  0  0  0
 17 15  4  0  0  0  0
 18 17  1  0  0  0  0
 19 17  4  0  0  0  0
 20 19  1  0  0  0  0
 21 19  4  0  0  0  0
 22 21  1  0  0  0  0
 23 14  4  0  0  0  0
 24 23  1  0  0  0  0
 25  2  1  0  0  0  0
 26 25  4  0  0  0  0
 27 26  1  0  0  0  0
 28 26  4  0  0  0  0
 29 28  1  0  0  0  0
 30 28  4  0  0  0  0
 31 30  1  0  0  0  0
 32 30  4  0  0  0  0
 33 32  1  0  0  0  0
 34 25  4  0  0  0  0
 35 34  1  0  0  0  0
 36  2  1  0  0  0  0
 37 36  4  0  0  0  0
 38 37  1  0  0  0  0
 39 37  4  0  0  0  0
 40 39  1  0  0  0  0
 41 39  4  0  0  0  0
 42 41  1  0  0  0  0
 43 41  4  0  0  0  0
 44 43  1  0  0  0  0
 45 36  4  0  0  0  0
 46 45  1  0  0  0  0
 47  3  1  0  0  0  0
 48 47  4  0  0  0  0
 49 48  1  0  0  0  0
 50 48  4  0  0  0  0
 51 50  1  0  0  0  0
 52 50  4  0  0  0  0
 53 52  1  0  0  0  0
 54 52  4  0  0  0  0
 55 54  1  0  0  0  0
 56 47  4  0  0  0  0
 57 56  1  0  0  0  0
 58  3  1  0  0  0  0
 59 58  4  0  0  0  0
 60 59  1  0  0  0  0
 61 59  4  0  0  0  0
 62 61  1  0  0  0  0
 63 61  4  0  0  0  0
 64 63  1  0  0  0  0
 65 63  4  0  0  0  0
 66 65  1  0  0  0  0
 67 58  4  0  0  0  0
 68 67  1  0  0  0  0
 69  3  1  0  0  0  0
 70 69  4  0  0  0  0
 71 70  1  0  0  0  0
 72 70  4  0  0  0  0
 73 72  1  0  0  0  0
 74 72  4  0  0  0  0
 75 74  1  0  0  0  0
 76 74  4  0  0  0  0
 77 76  1  0  0  0  0
 78 69  4  0  0  0  0
 79 78  1  0  0  0  0
 80  4  1  0  0  0  0
 81 80  1  0  0  0  0
 82 80  1  0  0  0  0
 83 80  1  0  0  0  0
 84  4  1  0  0  0  0
 85 84  4  0  0  0  0
 86 85  1  0  0  0  0
 87 85  4  0  0  0  0
 88 87  1  0  0  0  0
 89 87  4  0  0  0  0
 90 89  1  0  0  0  0
 91 89  4  0  0  0  0
 92 91  1  0  0  0  0
 93 84  4  0  0  0  0
 94 93  1  0  0  0  0
 95  4  1  0  0  0  0
 96 95  4  0  0  0  0
 97 96  1  0  0  0  0
 98 96  4  0  0  0  0
 99 98  1  0  0  0  0
100 98  4  0  0  0  0
101100  1  0  0  0  0
102100  4  0  0  0  0
103102  1  0  0  0  0
104 95  4  0  0  0  0
105104  1  0  0  0  0
  6  7  1  0  0  0  0
  6  9  1  0  0  0  0
  7  8  1  0  0  0  0
  8  9  1  0  0  0  0
 21 23  4  0  0  0  0
 32 34  4  0  0  0  0
 43 45  4  0  0  0  0
 54 56  4  0  0  0  0
 65 67  4  0  0  0  0
 76 78  4  0  0  0  0
 91 93  4  0  0  0  0
102104  4  0  0  0  0
M  END
$$$$
REQVIU

From CSD data. Using bond type 'Any'. Matching problem. No disordered atoms. Largest molecule.
127132  0  0  0  0  0  0  0  0999 V2000
    7.7972   16.4600    6.4927 Pt  0  0  0  0  0  0  0  0  0  0  0  0
    7.8364   15.9416    4.4654 B   0  0  0  0  0  0  0  0  0  0  0  0
    7.4296   16.8444    3.4989 O   0  0  0  0  0  0  0  0  0  0  0  0
    7.6561   16.5885    2.1071 C   0  0  0  0  0  0  0  0  0  0  0  0
    7.2953   15.7055    1.8751 H   0  0  0  0  0  0  0  0  0  0  0  0
    8.6182   16.6066    1.9231 H   0  0  0  0  0  0  0  0  0  0  0  0
    7.2078   17.2772    1.5721 H   0  0  0  0  0  0  0  0  0  0  0  0
    8.2933   14.7492    3.9345 O   0  0  0  0  0  0  0  0  0  0  0  0
    8.7580   13.6835    4.7493 C   0  0  0  0  0  0  0  0  0  0  0  0
    8.0208   13.0639    4.9277 H   0  0  0  0  0  0  0  0  0  0  0  0
    9.0962   14.0432    5.5971 H   0  0  0  0  0  0  0  0  0  0  0  0
    9.4800   13.2079    4.2866 H   0  0  0  0  0  0  0  0  0  0  0  0
    6.0574   15.3553    6.0484 B   0  0  0  0  0  0  0  0  0  0  0  0
    6.0218   14.0065    6.2804 O   0  0  0  0  0  0  0  0  0  0  0  0
    4.8884   13.2021    5.9459 C   0  0  0  0  0  0  0  0  0  0  0  0
    4.9207   12.9734    4.9953 H   0  0  0  0  0  0  0  0  0  0  0  0
    4.0672   13.7017    6.1334 H   0  0  0  0  0  0  0  0  0  0  0  0
    4.9012   12.3809    6.4823 H   0  0  0  0  0  0  0  0  0  0  0  0
    4.8945   15.8614    5.5162 O   0  0  0  0  0  0  0  0  0  0  0  0
    4.7337   17.2336    5.1632 C   0  0  0  0  0  0  0  0  0  0  0  0
    5.0392   17.3719    4.2430 H   0  0  0  0  0  0  0  0  0  0  0  0
    5.2635   17.7916    5.7693 H   0  0  0  0  0  0  0  0  0  0  0  0
    3.7882   17.4789    5.2351 H   0  0  0  0  0  0  0  0  0  0  0  0
    9.6671   17.8804    6.1552 P   0  0  0  0  0  0  0  0  0  0  0  0
   11.2863   17.0983    5.6479 C   0  0  0  0  0  0  0  0  0  0  0  0
   11.9726   17.8245    5.6276 H   0  0  0  0  0  0  0  0  0  0  0  0
   11.7415   16.0737    6.6938 C   0  0  0  0  0  0  0  0  0  0  0  0
   11.0682   15.3516    6.7636 H   0  0  0  0  0  0  0  0  0  0  0  0
   11.8111   16.5119    7.5769 H   0  0  0  0  0  0  0  0  0  0  0  0
   13.1083   15.4660    6.3144 C   0  0  0  0  0  0  0  0  0  0  0  0
   13.8029   16.1704    6.3471 H   0  0  0  0  0  0  0  0  0  0  0  0
   13.3507   14.7632    6.9685 H   0  0  0  0  0  0  0  0  0  0  0  0
   13.0662   14.8607    4.9146 C   0  0  0  0  0  0  0  0  0  0  0  0
   13.9667   14.5328    4.6726 H   0  0  0  0  0  0  0  0  0  0  0  0
   12.4450   14.0884    4.9102 H   0  0  0  0  0  0  0  0  0  0  0  0
   12.6086   15.8812    3.8876 C   0  0  0  0  0  0  0  0  0  0  0  0
   12.5486   15.4462    3.0002 H   0  0  0  0  0  0  0  0  0  0  0  0
   13.2783   16.6066    3.8266 H   0  0  0  0  0  0  0  0  0  0  0  0
   11.2477   16.4749    4.2552 C   0  0  0  0  0  0  0  0  0  0  0  0
   10.9983   17.1662    3.5911 H   0  0  0  0  0  0  0  0  0  0  0  0
   10.5591   15.7631    4.2321 H   0  0  0  0  0  0  0  0  0  0  0  0
    9.3260   18.9762    4.6968 C   0  0  0  0  0  0  0  0  0  0  0  0
    9.2766   18.3429    3.9247 H   0  0  0  0  0  0  0  0  0  0  0  0
   10.4171   19.9896    4.2823 C   0  0  0  0  0  0  0  0  0  0  0  0
   10.4583   20.7294    4.9408 H   0  0  0  0  0  0  0  0  0  0  0  0
   11.2998   19.5444    4.2605 H   0  0  0  0  0  0  0  0  0  0  0  0
   10.0839   20.5438    2.9065 C   0  0  0  0  0  0  0  0  0  0  0  0
   10.1149   19.8118    2.2436 H   0  0  0  0  0  0  0  0  0  0  0  0
   10.7655   21.2149    2.6514 H   0  0  0  0  0  0  0  0  0  0  0  0
    8.7054   21.1923    2.8716 C   0  0  0  0  0  0  0  0  0  0  0  0
    8.5046   21.4824    1.9471 H   0  0  0  0  0  0  0  0  0  0  0  0
    8.7076   21.9967    3.4516 H   0  0  0  0  0  0  0  0  0  0  0  0
    7.6202   20.2270    3.3469 C   0  0  0  0  0  0  0  0  0  0  0  0
    6.7517   20.7047    3.3818 H   0  0  0  0  0  0  0  0  0  0  0  0
    7.5340   19.4868    2.6950 H   0  0  0  0  0  0  0  0  0  0  0  0
    7.9369   19.6592    4.7140 C   0  0  0  0  0  0  0  0  0  0  0  0
    7.2446   19.0013    4.9691 H   0  0  0  0  0  0  0  0  0  0  0  0
    7.9331   20.3879    5.3856 H   0  0  0  0  0  0  0  0  0  0  0  0
   10.2042   18.9926    7.5627 C   0  0  0  0  0  0  0  0  0  0  0  0
   10.2288   18.4088    8.3727 H   0  0  0  0  0  0  0  0  0  0  0  0
   11.5768   19.6876    7.5149 C   0  0  0  0  0  0  0  0  0  0  0  0
   12.2868   19.0054    7.4068 H   0  0  0  0  0  0  0  0  0  0  0  0
   11.6114   20.2933    6.7330 H   0  0  0  0  0  0  0  0  0  0  0  0
   11.8355   20.4903    8.7892 C   0  0  0  0  0  0  0  0  0  0  0  0
   11.9098   19.8695    9.5566 H   0  0  0  0  0  0  0  0  0  0  0  0
   12.6969   20.9722    8.7019 H   0  0  0  0  0  0  0  0  0  0  0  0
   10.7243   21.4988    9.0704 C   0  0  0  0  0  0  0  0  0  0  0  0
   10.8968   21.9514    9.9339 H   0  0  0  0  0  0  0  0  0  0  0  0
   10.7163   22.1860    8.3596 H   0  0  0  0  0  0  0  0  0  0  0  0
    9.3778   20.8113    9.1199 C   0  0  0  0  0  0  0  0  0  0  0  0
    8.6654   21.4865    9.2383 H   0  0  0  0  0  0  0  0  0  0  0  0
    9.3491   20.1945    9.8946 H   0  0  0  0  0  0  0  0  0  0  0  0
    9.1250   20.0275    7.8392 C   0  0  0  0  0  0  0  0  0  0  0  0
    8.2494   19.5691    7.9083 H   0  0  0  0  0  0  0  0  0  0  0  0
    9.0791   20.6595    7.0775 H   0  0  0  0  0  0  0  0  0  0  0  0
    7.3003   16.3362    8.8092 P   0  0  0  0  0  0  0  0  0  0  0  0
    6.6230   19.0506    9.5109 H   0  0  0  0  0  0  0  0  0  0  0  0
    3.2264   18.9684    8.1961 H   0  0  0  0  0  0  0  0  0  0  0  0
    6.2188   12.5249   11.8286 H   0  0  0  0  0  0  0  0  0  0  0  0
    8.2151   13.8127    7.7077 H   0  0  0  0  0  0  0  0  0  0  0  0
    8.9530   13.7634    9.1293 H   0  0  0  0  0  0  0  0  0  0  0  0
    8.5161   17.0407   10.0608 C   0  0  0  0  0  0  0  0  0  0  0  0
    8.7812   17.9356    9.7049 H   0  0  0  0  0  0  0  0  0  0  0  0
    9.8011   16.2000   10.0669 C   0  0  0  0  0  0  0  0  0  0  0  0
    9.6022   15.3022   10.4332 H   0  0  0  0  0  0  0  0  0  0  0  0
   10.1197   16.0840    9.1358 H   0  0  0  0  0  0  0  0  0  0  0  0
   10.9095   16.8543   10.9019 C   0  0  0  0  0  0  0  0  0  0  0  0
   11.7094   16.2692   10.9150 H   0  0  0  0  0  0  0  0  0  0  0  0
   11.1664   17.7216   10.4986 H   0  0  0  0  0  0  0  0  0  0  0  0
   10.4097   17.0732   12.3192 C   0  0  0  0  0  0  0  0  0  0  0  0
   10.2226   16.1951   12.7400 H   0  0  0  0  0  0  0  0  0  0  0  0
   11.1124   17.5241   12.8490 H   0  0  0  0  0  0  0  0  0  0  0  0
    9.1614   17.9093   12.3345 C   0  0  0  0  0  0  0  0  0  0  0  0
    9.3686   18.8120   11.9812 H   0  0  0  0  0  0  0  0  0  0  0  0
    8.8510   18.0138   13.2699 H   0  0  0  0  0  0  0  0  0  0  0  0
    8.0423   17.2879   11.5013 C   0  0  0  0  0  0  0  0  0  0  0  0
    7.2602   17.8944   11.4928 H   0  0  0  0  0  0  0  0  0  0  0  0
    7.7629   16.4296   11.9093 H   0  0  0  0  0  0  0  0  0  0  0  0
    5.7475   17.1563    9.3975 C   0  0  0  0  0  0  0  0  0  0  0  0
    5.7164   17.0427   10.3917 H   0  0  0  0  0  0  0  0  0  0  0  0
    5.7973   18.6737    9.1162 C   0  0  0  0  0  0  0  0  0  0  0  0
    5.8319   18.8243    8.1372 H   0  0  0  0  0  0  0  0  0  0  0  0
    4.5902   19.3987    9.6897 C   0  0  0  0  0  0  0  0  0  0  0  0
    4.6076   19.3346   10.6774 H   0  0  0  0  0  0  0  0  0  0  0  0
    4.6317   20.3550    9.4433 H   0  0  0  0  0  0  0  0  0  0  0  0
    3.2959   18.7976    9.1685 C   0  0  0  0  0  0  0  0  0  0  0  0
    2.5290   19.2399    9.6112 H   0  0  0  0  0  0  0  0  0  0  0  0
    3.2200   17.2974    9.4193 C   0  0  0  0  0  0  0  0  0  0  0  0
    2.3955   16.9357    9.0072 H   0  0  0  0  0  0  0  0  0  0  0  0
    3.1736   17.1291   10.3939 H   0  0  0  0  0  0  0  0  0  0  0  0
    4.4366   16.5786    8.8393 C   0  0  0  0  0  0  0  0  0  0  0  0
    4.4310   16.6683    7.8516 H   0  0  0  0  0  0  0  0  0  0  0  0
    4.3833   15.6149    9.0573 H   0  0  0  0  0  0  0  0  0  0  0  0
    7.0290   14.5398    9.2540 C   0  0  0  0  0  0  0  0  0  0  0  0
    6.1879   14.2900    8.7739 H   0  0  0  0  0  0  0  0  0  0  0  0
    6.7469   14.1962   10.7203 C   0  0  0  0  0  0  0  0  0  0  0  0
    7.5560   14.3764   11.2617 H   0  0  0  0  0  0  0  0  0  0  0  0
    6.0179   14.7714   11.0589 H   0  0  0  0  0  0  0  0  0  0  0  0
    6.3504   12.7343   10.8692 C   0  0  0  0  0  0  0  0  0  0  0  0
    5.4916   12.5784   10.4026 H   0  0  0  0  0  0  0  0  0  0  0  0
    7.4085   11.8081   10.2958 C   0  0  0  0  0  0  0  0  0  0  0  0
    7.0972   10.8708   10.3634 H   0  0  0  0  0  0  0  0  0  0  0  0
    8.2425   11.8953   10.8213 H   0  0  0  0  0  0  0  0  0  0  0  0
    7.6929   12.1492    8.8219 C   0  0  0  0  0  0  0  0  0  0  0  0
    8.4231   11.5703    8.4861 H   0  0  0  0  0  0  0  0  0  0  0  0
    6.8850   11.9694    8.2789 H   0  0  0  0  0  0  0  0  0  0  0  0
    8.0906   13.6078    8.6681 C   0  0  0  0  0  0  0  0  0  0  0  0
  1  2  1  0  0  0  0
  2  3  1  0  0  0  0
  3  4  1  0  0  0  0
  4  5  1  0  0  0  0
  6  4  1  0  0  0  0
  7  4  1  0  0  0  0
  8  2  1  0  0  0  0
  9  8  1  0  0  0  0
 10  9  1  0  0  0  0
 11  9  1  0  0  0  0
 12  9  1  0  0  0  0
 13  1  1  0  0  0  0
 14 13  1  0  0  0  0
 15 14  1  0  0  0  0
 16 15  1  0  0  0  0
 17 15  1  0  0  0  0
 18 15  1  0  0  0  0
 19 13  1  0  0  0  0
 20 19  1  0  0  0  0
 21 20  1  0  0  0  0
 22 20  1  0  0  0  0
 23 20  1  0  0  0  0
 24  1  1  0  0  0  0
 25 24  1  0  0  0  0
 26 25  1  0  0  0  0
 27 25  1  0  0  0  0
 28 27  1  0  0  0  0
 29 27  1  0  0  0  0
 30 27  1  0  0  0  0
 31 30  1  0  0  0  0
 32 30  1  0  0  0  0
 33 30  1  0  0  0  0
 34 33  1  0  0  0  0
 35 33  1  0  0  0  0
 36 33  1  0  0  0  0
 37 36  1  0  0  0  0
 38 36  1  0  0  0  0
 39 25  1  0  0  0  0
 40 39  1  0  0  0  0
 41 39  1  0  0  0  0
 42 24  1  0  0  0  0
 43 42  1  0  0  0  0
 44 42  1  0  0  0  0
 45 44  1  0  0  0  0
 46 44  1  0  0  0  0
 47 44  1  0  0  0  0
 48 47  1  0  0  0  0
 49 47  1  0  0  0  0
 50 47  1  0  0  0  0
 51 50  1  0  0  0  0
 52 50  1  0  0  0  0
 53 50  1  0  0  0  0
 54 53  1  0  0  0  0
 55 53  1  0  0  0  0
 56 42  1  0  0  0  0
 57 56  1  0  0  0  0
 58 56  1  0  0  0  0
 59 24  1  0  0  0  0
 60 59  1  0  0  0  0
 61 59  1  0  0  0  0
 62 61  1  0  0  0  0
 63 61  1  0  0  0  0
 64 61  1  0  0  0  0
 65 64  1  0  0  0  0
 66 64  1  0  0  0  0
 67 64  1  0  0  0  0
 68 67  1  0  0  0  0
 69 67  1  0  0  0  0
 70 67  1  0  0  0  0
 71 70  1  0  0  0  0
 72 70  1  0  0  0  0
 73 59  1  0  0  0  0
 74 73  1  0  0  0  0
 75 73  1  0  0  0  0
 76  1  1  0  0  0  0
 77101  1  0  0  0  0
 78106  1  0  0  0  0
 79119  1  0  0  0  0
 80127  1  0  0  0  0
 81127  1  0  0  0  0
 82 76  1  0  0  0  0
 83 82  1  0  0  0  0
 84 82  1  0  0  0  0
 85 84  1  0  0  0  0
 86 84  1  0  0  0  0
 87 84  1  0  0  0  0
 88 87  1  0  0  0  0
 89 87  1  0  0  0  0
 90 87  1  0  0  0  0
 91 90  1  0  0  0  0
 92 90  1  0  0  0  0
 93 90  1  0  0  0  0
 94 93  1  0  0  0  0
 95 93  1  0  0  0  0
 96 82  1  0  0  0  0
 97 96  1  0  0  0  0
 98 96  1  0  0  0  0
 99 76  1  0  0  0  0
100 99  1  0  0  0  0
101 99  1  0  0  0  0
102101  1  0  0  0  0
103101  1  0  0  0  0
104103  1  0  0  0  0
105103  1  0  0  0  0
106103  1  0  0  0  0
107106  1  0  0  0  0
108106  1  0  0  0  0
109108  1  0  0  0  0
110108  1  0  0  0  0
111 99  1  0  0  0  0
112111  1  0  0  0  0
113111  1  0  0  0  0
114 76  1  0  0  0  0
115114  1  0  0  0  0
116114  1  0  0  0  0
117116  1  0  0  0  0
118116  1  0  0  0  0
119116  1  0  0  0  0
120119  1  0  0  0  0
121119  1  0  0  0  0
122121  1  0  0  0  0
123121  1  0  0  0  0
124121  1  0  0  0  0
125124  1  0  0  0  0
126124  1  0  0  0  0
127114  1  0  0  0  0
 36 39  1  0  0  0  0
 53 56  1  0  0  0  0
 70 73  1  0  0  0  0
 93 96  1  0  0  0  0
108111  1  0  0  0  0
124127  1  0  0  0  0
M  END
$$$$
RICNOI

From CSD data. Using bond type 'Any'. No disordered atoms. Largest molecule.
103110  0  0  0  0  0  0  0  0999 V2000
    2.1217    6.9685    3.4221 Au  0  3  0  0  0  0  0  0  0  0  0  0
    1.9251    9.2464    3.1319 P   0  0  0  0  0  0  0  0  0  0  0  0
    2.4874    4.7121    3.7355 P   0  0  0  0  0  0  0  0  0  0  0  0
    3.7633    9.3228    5.9281 B   0  0  0  0  0  0  0  0  0  0  0  0
    4.8703    5.0315    1.4290 B   0  0  0  0  0  0  0  0  0  0  0  0
    2.5343    8.7984    5.9607 O   0  0  0  0  0  0  0  0  0  0  0  0
    4.6275    9.2726    6.9894 O   0  0  0  0  0  0  0  0  0  0  0  0
    6.0806    4.7885    0.8578 O   0  0  0  0  0  0  0  0  0  0  0  0
    4.5571    6.2038    2.0303 O   0  0  0  0  0  0  0  0  0  0  0  0
    3.5384   10.0926    3.3909 C   0  0  0  0  0  0  0  0  0  0  0  0
    4.1139   10.7378    2.2881 C   0  0  0  0  0  0  0  0  0  0  0  0
    3.6311   10.7904    1.4714 H   0  0  0  0  0  0  0  0  0  0  0  0
    5.3828   11.3030    2.3719 C   0  0  0  0  0  0  0  0  0  0  0  0
    5.7598   11.7361    1.6149 H   0  0  0  0  0  0  0  0  0  0  0  0
    6.0907   11.2370    3.5437 C   0  0  0  0  0  0  0  0  0  0  0  0
    6.9572   11.6218    3.6008 H   0  0  0  0  0  0  0  0  0  0  0  0
    5.5366   10.6056    4.6419 C   0  0  0  0  0  0  0  0  0  0  0  0
    6.0346   10.5720    5.4492 H   0  0  0  0  0  0  0  0  0  0  0  0
    4.2618   10.0122    4.6064 C   0  0  0  0  0  0  0  0  0  0  0  0
    1.9601    8.2996    7.1843 C   0  0  0  0  0  0  0  0  0  0  0  0
    2.0180    7.3117    7.1924 H   0  0  0  0  0  0  0  0  0  0  0  0
    1.0022    8.5497    7.2198 H   0  0  0  0  0  0  0  0  0  0  0  0
    2.6710    8.8542    8.4155 C   0  0  0  0  0  0  0  0  0  0  0  0
    4.1569    8.6353    8.2056 C   0  0  0  0  0  0  0  0  0  0  0  0
    4.6532    9.0015    8.9798 H   0  0  0  0  0  0  0  0  0  0  0  0
    4.3400    7.6628    8.1571 H   0  0  0  0  0  0  0  0  0  0  0  0
    2.3584   10.3449    8.5811 C   0  0  0  0  0  0  0  0  0  0  0  0
    2.8529   10.6997    9.3492 H   0  0  0  0  0  0  0  0  0  0  0  0
    1.3965   10.4629    8.7294 H   0  0  0  0  0  0  0  0  0  0  0  0
    2.6240   10.8257    7.7693 H   0  0  0  0  0  0  0  0  0  0  0  0
    2.2169    8.0626    9.6438 C   0  0  0  0  0  0  0  0  0  0  0  0
    2.4857    7.1253    9.5461 H   0  0  0  0  0  0  0  0  0  0  0  0
    1.2411    8.1163    9.7247 H   0  0  0  0  0  0  0  0  0  0  0  0
    2.6317    8.4405   10.4466 H   0  0  0  0  0  0  0  0  0  0  0  0
    1.4828    9.6401    1.4182 C   0  0  0  0  0  0  0  0  0  0  0  0
    0.7534   10.7857    1.1039 C   0  0  0  0  0  0  0  0  0  0  0  0
    0.4275   11.3464    1.7981 H   0  0  0  0  0  0  0  0  0  0  0  0
    0.5015   11.1074   -0.2277 C   0  0  0  0  0  0  0  0  0  0  0  0
   -0.0142   11.8772   -0.4411 H   0  0  0  0  0  0  0  0  0  0  0  0
    1.0010   10.3073   -1.2411 C   0  0  0  0  0  0  0  0  0  0  0  0
    0.8512   10.5435   -2.1492 H   0  0  0  0  0  0  0  0  0  0  0  0
    1.7228    9.1581   -0.9332 C   0  0  0  0  0  0  0  0  0  0  0  0
    2.0608    8.6085   -1.6302 H   0  0  0  0  0  0  0  0  0  0  0  0
    1.9489    8.8171    0.3915 C   0  0  0  0  0  0  0  0  0  0  0  0
    2.4219    8.0206    0.6014 H   0  0  0  0  0  0  0  0  0  0  0  0
    0.6756   10.0399    4.1712 C   0  0  0  0  0  0  0  0  0  0  0  0
    0.8161   11.3566    4.6123 C   0  0  0  0  0  0  0  0  0  0  0  0
    1.5744   11.8671    4.3533 H   0  0  0  0  0  0  0  0  0  0  0  0
   -0.1556   11.9217    5.4317 C   0  0  0  0  0  0  0  0  0  0  0  0
   -0.0660   12.8195    5.7270 H   0  0  0  0  0  0  0  0  0  0  0  0
   -1.2558   11.1710    5.8151 C   0  0  0  0  0  0  0  0  0  0  0  0
   -1.9075   11.5513    6.3925 H   0  0  0  0  0  0  0  0  0  0  0  0
   -1.4121    9.8674    5.3625 C   0  0  0  0  0  0  0  0  0  0  0  0
   -2.1785    9.3660    5.6141 H   0  0  0  0  0  0  0  0  0  0  0  0
   -0.4480    9.2960    4.5419 C   0  0  0  0  0  0  0  0  0  0  0  0
   -0.5525    8.4035    4.2342 H   0  0  0  0  0  0  0  0  0  0  0  0
    2.6720    3.7251    2.2175 C   0  0  0  0  0  0  0  0  0  0  0  0
    1.7085    2.7446    1.9582 C   0  0  0  0  0  0  0  0  0  0  0  0
    0.9961    2.6103    2.5704 H   0  0  0  0  0  0  0  0  0  0  0  0
    1.7873    1.9644    0.8090 C   0  0  0  0  0  0  0  0  0  0  0  0
    1.1265    1.3051    0.6335 H   0  0  0  0  0  0  0  0  0  0  0  0
    2.8242    2.1490   -0.0711 C   0  0  0  0  0  0  0  0  0  0  0  0
    2.8723    1.6293   -0.8655 H   0  0  0  0  0  0  0  0  0  0  0  0
    3.8041    3.0979    0.2012 C   0  0  0  0  0  0  0  0  0  0  0  0
    4.5328    3.1898   -0.4014 H   0  0  0  0  0  0  0  0  0  0  0  0
    3.7551    3.9186    1.3283 C   0  0  0  0  0  0  0  0  0  0  0  0
    7.0528    5.8576    0.8012 C   0  0  0  0  0  0  0  0  0  0  0  0
    6.9136    6.3795   -0.0275 H   0  0  0  0  0  0  0  0  0  0  0  0
    7.9620    5.4674    0.7662 H   0  0  0  0  0  0  0  0  0  0  0  0
    6.9547    6.7877    2.0000 C   0  0  0  0  0  0  0  0  0  0  0  0
    5.5167    7.2820    2.0828 C   0  0  0  0  0  0  0  0  0  0  0  0
    5.3942    7.7837    2.9276 H   0  0  0  0  0  0  0  0  0  0  0  0
    5.3448    7.9047    1.3325 H   0  0  0  0  0  0  0  0  0  0  0  0
    7.8590    8.0002    1.8005 C   0  0  0  0  0  0  0  0  0  0  0  0
    7.6534    8.4220    0.9403 H   0  0  0  0  0  0  0  0  0  0  0  0
    8.7964    7.7132    1.8088 H   0  0  0  0  0  0  0  0  0  0  0  0
    7.7079    8.6437    2.5247 H   0  0  0  0  0  0  0  0  0  0  0  0
    7.3391    6.0459    3.2796 C   0  0  0  0  0  0  0  0  0  0  0  0
    7.2101    6.6365    4.0511 H   0  0  0  0  0  0  0  0  0  0  0  0
    8.2798    5.7731    3.2299 H   0  0  0  0  0  0  0  0  0  0  0  0
    6.7735    5.2507    3.3794 H   0  0  0  0  0  0  0  0  0  0  0  0
    1.1579    3.9073    4.6566 C   0  0  0  0  0  0  0  0  0  0  0  0
   -0.1358    4.4394    4.5876 C   0  0  0  0  0  0  0  0  0  0  0  0
   -0.2930    5.2407    4.1029 H   0  0  0  0  0  0  0  0  0  0  0  0
   -1.1884    3.7981    5.2252 C   0  0  0  0  0  0  0  0  0  0  0  0
   -2.0678    4.1505    5.1638 H   0  0  0  0  0  0  0  0  0  0  0  0
   -0.9507    2.6398    5.9519 C   0  0  0  0  0  0  0  0  0  0  0  0
   -1.6697    2.2054    6.3956 H   0  0  0  0  0  0  0  0  0  0  0  0
    0.3304    2.1124    6.0357 C   0  0  0  0  0  0  0  0  0  0  0  0
    0.4862    1.3236    6.5421 H   0  0  0  0  0  0  0  0  0  0  0  0
    1.3841    2.7327    5.3810 C   0  0  0  0  0  0  0  0  0  0  0  0
    2.2573    2.3600    5.4248 H   0  0  0  0  0  0  0  0  0  0  0  0
    3.9956    4.4126    4.7005 C   0  0  0  0  0  0  0  0  0  0  0  0
    4.4210    5.3821    5.6055 C   0  0  0  0  0  0  0  0  0  0  0  0
    3.9464    6.2015    5.6797 H   0  0  0  0  0  0  0  0  0  0  0  0
    5.5398    5.1560    6.4002 C   0  0  0  0  0  0  0  0  0  0  0  0
    5.8232    5.8168    7.0214 H   0  0  0  0  0  0  0  0  0  0  0  0
    6.2413    3.9691    6.2846 C   0  0  0  0  0  0  0  0  0  0  0  0
    7.0124    3.8196    6.8184 H   0  0  0  0  0  0  0  0  0  0  0  0
    5.8197    3.0004    5.3941 C   0  0  0  0  0  0  0  0  0  0  0  0
    6.2967    2.1819    5.3286 H   0  0  0  0  0  0  0  0  0  0  0  0
    4.7018    3.2149    4.5909 C   0  0  0  0  0  0  0  0  0  0  0  0
    4.4226    2.5498    3.9732 H   0  0  0  0  0  0  0  0  0  0  0  0
  1  2  1  0  0  0  0
  2 10  1  0  0  0  0
  3  1  1  0  0  0  0
  4  6  1  0  0  0  0
  5  8  1  0  0  0  0
  6 20  1  0  0  0  0
  7  4  1  0  0  0  0
  8 67  1  0  0  0  0
  9  5  1  0  0  0  0
 10 11  4  0  0  0  0
 11 12  1  0  0  0  0
 13 11  4  0  0  0  0
 14 13  1  0  0  0  0
 15 13  4  0  0  0  0
 16 15  1  0  0  0  0
 17 15  4  0  0  0  0
 18 17  1  0  0  0  0
 19  4  1  0  0  0  0
 20 21  1  0  0  0  0
 22 20  1  0  0  0  0
 23 20  1  0  0  0  0
 24  7  1  0  0  0  0
 25 24  1  0  0  0  0
 26 24  1  0  0  0  0
 27 23  1  0  0  0  0
 28 27  1  0  0  0  0
 29 27  1  0  0  0  0
 30 27  1  0  0  0  0
 31 23  1  0  0  0  0
 32 31  1  0  0  0  0
 33 31  1  0  0  0  0
 34 31  1  0  0  0  0
 35  2  1  0  0  0  0
 36 35  4  0  0  0  0
 37 36  1  0  0  0  0
 38 36  4  0  0  0  0
 39 38  1  0  0  0  0
 40 38  4  0  0  0  0
 41 40  1  0  0  0  0
 42 40  4  0  0  0  0
 43 42  1  0  0  0  0
 44 35  4  0  0  0  0
 45 44  1  0  0  0  0
 46  2  1  0  0  0  0
 47 46  4  0  0  0  0
 48 47  1  0  0  0  0
 49 47  4  0  0  0  0
 50 49  1  0  0  0  0
 51 49  4  0  0  0  0
 52 51  1  0  0  0  0
 53 51  4  0  0  0  0
 54 53  1  0  0  0  0
 55 46  4  0  0  0  0
 56 55  1  0  0  0  0
 57  3  1  0  0  0  0
 58 57  4  0  0  0  0
 59 58  1  0  0  0  0
 60 58  4  0  0  0  0
 61 60  1  0  0  0  0
 62 60  4  0  0  0  0
 63 62  1  0  0  0  0
 64 62  4  0  0  0  0
 65 64  1  0  0  0  0
 66  5  1  0  0  0  0
 67 68  1  0  0  0  0
 69 67  1  0  0  0  0
 70 67  1  0  0  0  0
 71  9  1  0  0  0  0
 72 71  1  0  0  0  0
 73 71  1  0  0  0  0
 74 70  1  0  0  0  0
 75 74  1  0  0  0  0
 76 74  1  0  0  0  0
 77 74  1  0  0  0  0
 78 70  1  0  0  0  0
 79 78  1  0  0  0  0
 80 78  1  0  0  0  0
 81 78  1  0  0  0  0
 82  3  1  0  0  0  0
 83 82  4  0  0  0  0
 84 83  1  0  0  0  0
 85 83  4  0  0  0  0
 86 85  1  0  0  0  0
 87 85  4  0  0  0  0
 88 87  1  0  0  0  0
 89 87  4  0  0  0  0
 90 89  1  0  0  0  0
 91 82  4  0  0  0  0
 92 91  1  0  0  0  0
 93  3  1  0  0  0  0
 94 93  4  0  0  0  0
 95 94  1  0  0  0  0
 96 94  4  0  0  0  0
 97 96  1  0  0  0  0
 98 96  4  0  0  0  0
 99 98  1  0  0  0  0
100 98  4  0  0  0  0
101100  1  0  0  0  0
102 93  4  0  0  0  0
103102  1  0  0  0  0
 10 19  4  0  0  0  0
 17 19  4  0  0  0  0
 23 24  1  0  0  0  0
 42 44  4  0  0  0  0
 53 55  4  0  0  0  0
 57 66  4  0  0  0  0
 64 66  4  0  0  0  0
 70 71  1  0  0  0  0
 89 91  4  0  0  0  0
100102  4  0  0  0  0
M  CHG  1   1   1
M  END
$$$$
RIFTOP

From CSD data. Using bond type 'Any'. No disordered atoms. Largest molecule.
 67 70  0  0  0  0  0  0  0  0999 V2000
    6.6731    5.0356    8.6475 Ir  0  0  0  0  0  0  0  0  0  0  0  0
    7.7479    4.0439   10.1260 B   0  0  0  0  0  0  0  0  0  0  0  0
    8.8487    4.5981   10.8134 O   0  0  0  0  0  0  0  0  0  0  0  0
    7.5550    2.7242   10.6237 O   0  0  0  0  0  0  0  0  0  0  0  0
    9.3287    3.6189   11.6641 C   0  0  0  0  0  0  0  0  0  0  0  0
    8.5590    2.4985   11.5495 C   0  0  0  0  0  0  0  0  0  0  0  0
    8.8184    1.3555   12.2725 C   0  0  0  0  0  0  0  0  0  0  0  0
    9.9064    1.3941   13.1383 C   0  0  0  0  0  0  0  0  0  0  0  0
   10.6755    2.5436   13.2660 C   0  0  0  0  0  0  0  0  0  0  0  0
   10.4071    3.6962   12.5223 C   0  0  0  0  0  0  0  0  0  0  0  0
    5.4165    3.4644    8.4236 B   0  0  0  0  0  0  0  0  0  0  0  0
    4.4175    3.0330    9.3363 O   0  0  0  0  0  0  0  0  0  0  0  0
    5.3316    2.6160    7.2762 O   0  0  0  0  0  0  0  0  0  0  0  0
    3.7764    1.9640    8.7607 C   0  0  0  0  0  0  0  0  0  0  0  0
    4.3299    1.7064    7.5241 C   0  0  0  0  0  0  0  0  0  0  0  0
    3.9118    0.6536    6.7372 C   0  0  0  0  0  0  0  0  0  0  0  0
    2.8833   -0.1288    7.2621 C   0  0  0  0  0  0  0  0  0  0  0  0
    2.3335    0.1256    8.4950 C   0  0  0  0  0  0  0  0  0  0  0  0
    2.7628    1.1881    9.2931 C   0  0  0  0  0  0  0  0  0  0  0  0
    8.2082    7.0434    8.8427 Cl  0  0  0  0  0  0  0  0  0  0  0  0
    5.6374    6.4291    6.9918 P   0  0  0  0  0  0  0  0  0  0  0  0
    3.5116    5.9081   10.0828 C   0  0  0  0  0  0  0  0  0  0  0  0
    5.7477    7.3828   11.0819 C   0  0  0  0  0  0  0  0  0  0  0  0
    5.2981    4.7104   11.8894 C   0  0  0  0  0  0  0  0  0  0  0  0
    8.1481    3.9483    7.2105 P   0  0  0  0  0  0  0  0  0  0  0  0
    9.7630    4.7426    7.0462 C   0  0  0  0  0  0  0  0  0  0  0  0
    8.6160    2.2731    7.6828 C   0  0  0  0  0  0  0  0  0  0  0  0
    7.6859    3.6350    5.4790 C   0  0  0  0  0  0  0  0  0  0  0  0
    5.3082    5.7710   10.3769 P   0  0  0  0  0  0  0  0  0  0  0  0
    4.1393    5.8083    6.1588 C   0  0  0  0  0  0  0  0  0  0  0  0
    5.1434    8.0847    7.5541 C   0  0  0  0  0  0  0  0  0  0  0  0
    6.6886    6.9159    5.5785 C   0  0  0  0  0  0  0  0  0  0  0  0
    8.2806    0.5763   12.1843 H   0  0  0  0  0  0  0  0  0  0  0  0
   10.1271    0.6246   13.6491 H   0  0  0  0  0  0  0  0  0  0  0  0
   11.4040    2.5468   13.8754 H   0  0  0  0  0  0  0  0  0  0  0  0
   10.9345    4.4818   12.6012 H   0  0  0  0  0  0  0  0  0  0  0  0
    4.3020    0.4701    5.8903 H   0  0  0  0  0  0  0  0  0  0  0  0
    2.5531   -0.8597    6.7522 H   0  0  0  0  0  0  0  0  0  0  0  0
    1.6381   -0.4347    8.8143 H   0  0  0  0  0  0  0  0  0  0  0  0
    2.3849    1.3652   10.1467 H   0  0  0  0  0  0  0  0  0  0  0  0
    3.1314    5.0131    9.9551 H   0  0  0  0  0  0  0  0  0  0  0  0
    3.3523    6.4491    9.2800 H   0  0  0  0  0  0  0  0  0  0  0  0
    3.0860    6.3364   10.8537 H   0  0  0  0  0  0  0  0  0  0  0  0
    5.7015    8.0686   10.3833 H   0  0  0  0  0  0  0  0  0  0  0  0
    6.6577    7.3441   11.4425 H   0  0  0  0  0  0  0  0  0  0  0  0
    5.1198    7.6049   11.8012 H   0  0  0  0  0  0  0  0  0  0  0  0
    4.9924    3.8089   11.6547 H   0  0  0  0  0  0  0  0  0  0  0  0
    4.6922    5.0968   12.5561 H   0  0  0  0  0  0  0  0  0  0  0  0
    6.2032    4.6621   12.2613 H   0  0  0  0  0  0  0  0  0  0  0  0
    9.6559    5.6119    6.6039 H   0  0  0  0  0  0  0  0  0  0  0  0
   10.3537    4.1727    6.5091 H   0  0  0  0  0  0  0  0  0  0  0  0
   10.1545    4.8746    7.9344 H   0  0  0  0  0  0  0  0  0  0  0  0
    7.8116    1.7193    7.7570 H   0  0  0  0  0  0  0  0  0  0  0  0
    9.0794    2.2956    8.5457 H   0  0  0  0  0  0  0  0  0  0  0  0
    9.2109    1.8964    7.0011 H   0  0  0  0  0  0  0  0  0  0  0  0
    7.8904    4.4271    4.9381 H   0  0  0  0  0  0  0  0  0  0  0  0
    6.7263    3.4451    5.4264 H   0  0  0  0  0  0  0  0  0  0  0  0
    8.1922    2.8688    5.1391 H   0  0  0  0  0  0  0  0  0  0  0  0
    4.3211    4.9261    5.7757 H   0  0  0  0  0  0  0  0  0  0  0  0
    3.8832    6.4297    5.4433 H   0  0  0  0  0  0  0  0  0  0  0  0
    3.4095    5.7407    6.8086 H   0  0  0  0  0  0  0  0  0  0  0  0
    5.9023    8.5193    7.9936 H   0  0  0  0  0  0  0  0  0  0  0  0
    4.3999    8.0042    8.1880 H   0  0  0  0  0  0  0  0  0  0  0  0
    4.8600    8.6191    6.7842 H   0  0  0  0  0  0  0  0  0  0  0  0
    6.8234    6.1432    4.9898 H   0  0  0  0  0  0  0  0  0  0  0  0
    7.5560    7.2314    5.9090 H   0  0  0  0  0  0  0  0  0  0  0  0
    6.2496    7.6371    5.0780 H   0  0  0  0  0  0  0  0  0  0  0  0
  1  2  1  0  0  0  0
  2  3  1  0  0  0  0
  3  5  1  0  0  0  0
  4  2  1  0  0  0  0
  5  6  4  0  0  0  0
  6  4  1  0  0  0  0
  7  6  4  0  0  0  0
  8  7  4  0  0  0  0
  9  8  4  0  0  0  0
 10  5  4  0  0  0  0
 11  1  1  0  0  0  0
 12 11  1  0  0  0  0
 13 11  1  0  0  0  0
 14 12  1  0  0  0  0
 15 13  1  0  0  0  0
 16 15  4  0  0  0  0
 17 16  4  0  0  0  0
 18 17  4  0  0  0  0
 19 14  4  0  0  0  0
 20  1  1  0  0  0  0
 21  1  1  0  0  0  0
 22 29  1  0  0  0  0
 23 29  1  0  0  0  0
 24 29  1  0  0  0  0
 25  1  1  0  0  0  0
 26 25  1  0  0  0  0
 27 25  1  0  0  0  0
 28 25  1  0  0  0  0
 29  1  1  0  0  0  0
 30 21  1  0  0  0  0
 31 21  1  0  0  0  0
 32 21  1  0  0  0  0
 33  7  1  0  0  0  0
 34  8  1  0  0  0  0
 35  9  1  0  0  0  0
 36 10  1  0  0  0  0
 37 16  1  0  0  0  0
 38 17  1  0  0  0  0
 39 18  1  0  0  0  0
 40 19  1  0  0  0  0
 41 22  1  0  0  0  0
 42 22  1  0  0  0  0
 43 22  1  0  0  0  0
 44 23  1  0  0  0  0
 45 23  1  0  0  0  0
 46 23  1  0  0  0  0
 47 24  1  0  0  0  0
 48 24  1  0  0  0  0
 49 24  1  0  0  0  0
 50 26  1  0  0  0  0
 51 26  1  0  0  0  0
 52 26  1  0  0  0  0
 53 27  1  0  0  0  0
 54 27  1  0  0  0  0
 55 27  1  0  0  0  0
 56 28  1  0  0  0  0
 57 28  1  0  0  0  0
 58 28  1  0  0  0  0
 59 30  1  0  0  0  0
 60 30  1  0  0  0  0
 61 30  1  0  0  0  0
 62 31  1  0  0  0  0
 63 31  1  0  0  0  0
 64 31  1  0  0  0  0
 65 32  1  0  0  0  0
 66 32  1  0  0  0  0
 67 32  1  0  0  0  0
  9 10  4  0  0  0  0
 14 15  4  0  0  0  0
 18 19  4  0  0  0  0
M  END
$$$$
RIHBUJ

From CSD data. Using bond type 'Any'. No disordered atoms. Largest molecule.
 96100  0  0  0  0  0  0  0  0999 V2000
    2.1885    5.2489    6.0293 Ir  0  0  0  0  0  0  0  0  0  0  0  0
    2.6928    6.5985    5.2710 H   0  0  0  0  0  0  0  0  0  0  0  0
    2.8219    5.8356    7.5854 H   0  0  0  0  0  0  0  0  0  0  0  0
    1.3468    3.2927    6.8821 P   0  0  0  0  0  0  0  0  0  0  0  0
    1.1757    4.6617    4.1320 P   0  0  0  0  0  0  0  0  0  0  0  0
   -0.7432    5.9097    6.8094 O   0  0  0  0  0  0  0  0  0  0  0  0
    0.6862    7.6717    7.0614 O   0  0  0  0  0  0  0  0  0  0  0  0
    0.6199    3.2405    8.5460 C   0  0  0  0  0  0  0  0  0  0  0  0
    1.3014    3.4793    9.2081 H   0  0  0  0  0  0  0  0  0  0  0  0
    0.2888    2.3361    8.7296 H   0  0  0  0  0  0  0  0  0  0  0  0
   -0.1237    3.8768    8.5979 H   0  0  0  0  0  0  0  0  0  0  0  0
    2.3864    1.7888    6.8510 C   0  0  0  0  0  0  0  0  0  0  0  0
    2.7600    1.6683    5.9536 H   0  0  0  0  0  0  0  0  0  0  0  0
    1.8399    1.0093    7.0850 H   0  0  0  0  0  0  0  0  0  0  0  0
    3.1155    1.8824    7.4992 H   0  0  0  0  0  0  0  0  0  0  0  0
   -0.0584    2.8126    5.7961 C   0  0  0  0  0  0  0  0  0  0  0  0
   -0.2930    1.8628    5.9475 H   0  0  0  0  0  0  0  0  0  0  0  0
   -0.8518    3.3665    6.0056 H   0  0  0  0  0  0  0  0  0  0  0  0
    0.3530    3.0219    4.3400 C   0  0  0  0  0  0  0  0  0  0  0  0
   -0.4475    2.9764    3.7593 H   0  0  0  0  0  0  0  0  0  0  0  0
    0.9743    2.3019    4.0643 H   0  0  0  0  0  0  0  0  0  0  0  0
   -0.1717    5.6861    3.4530 C   0  0  0  0  0  0  0  0  0  0  0  0
   -0.9201    5.7033    4.0858 H   0  0  0  0  0  0  0  0  0  0  0  0
   -0.4732    5.3074    2.6010 H   0  0  0  0  0  0  0  0  0  0  0  0
    0.1534    6.5994    3.3075 H   0  0  0  0  0  0  0  0  0  0  0  0
    2.2558    4.3880    2.6889 C   0  0  0  0  0  0  0  0  0  0  0  0
    2.5691    5.2516    2.3472 H   0  0  0  0  0  0  0  0  0  0  0  0
    1.7529    3.9226    1.9883 H   0  0  0  0  0  0  0  0  0  0  0  0
    3.0254    3.8434    2.9555 H   0  0  0  0  0  0  0  0  0  0  0  0
   -1.5433    7.0151    7.3060 C   0  0  0  0  0  0  0  0  0  0  0  0
   -0.4568    7.9574    7.9011 C   0  0  0  0  0  0  0  0  0  0  0  0
   -2.2754    7.6244    6.1152 C   0  0  0  0  0  0  0  0  0  0  0  0
   -1.6232    7.9987    5.4868 H   0  0  0  0  0  0  0  0  0  0  0  0
   -2.8725    8.3362    6.4282 H   0  0  0  0  0  0  0  0  0  0  0  0
   -2.8019    6.9311    5.6655 H   0  0  0  0  0  0  0  0  0  0  0  0
   -2.5471    6.4717    8.3078 C   0  0  0  0  0  0  0  0  0  0  0  0
   -3.1797    5.8802    7.8489 H   0  0  0  0  0  0  0  0  0  0  0  0
   -3.0352    7.2159    8.7184 H   0  0  0  0  0  0  0  0  0  0  0  0
   -2.0751    5.9677    9.0035 H   0  0  0  0  0  0  0  0  0  0  0  0
   -0.7783    9.4380    7.8209 C   0  0  0  0  0  0  0  0  0  0  0  0
   -0.0461    9.9537    8.2186 H   0  0  0  0  0  0  0  0  0  0  0  0
   -1.6083    9.6187    8.3106 H   0  0  0  0  0  0  0  0  0  0  0  0
   -0.8897    9.6979    6.8829 H   0  0  0  0  0  0  0  0  0  0  0  0
   -0.0641    7.5801    9.3299 C   0  0  0  0  0  0  0  0  0  0  0  0
    0.0949    6.6138    9.3803 H   0  0  0  0  0  0  0  0  0  0  0  0
   -0.7872    7.8247    9.9429 H   0  0  0  0  0  0  0  0  0  0  0  0
    0.7539    8.0583    9.5806 H   0  0  0  0  0  0  0  0  0  0  0  0
    0.5744    6.3521    6.6222 B   0  0  0  0  0  0  0  0  0  0  0  0
    4.6133    5.0613    7.3489 Ir  0  0  0  0  0  0  0  0  0  0  0  0
    4.1089    3.7117    8.1072 H   0  0  0  0  0  0  0  0  0  0  0  0
    3.9799    4.4746    5.7927 H   0  0  0  0  0  0  0  0  0  0  0  0
    5.4550    7.0175    6.4960 P   0  0  0  0  0  0  0  0  0  0  0  0
    5.6260    5.6485    9.2462 P   0  0  0  0  0  0  0  0  0  0  0  0
    7.5450    4.4005    6.5688 O   0  0  0  0  0  0  0  0  0  0  0  0
    6.1155    2.6385    6.3168 O   0  0  0  0  0  0  0  0  0  0  0  0
    6.1818    7.0697    4.8322 C   0  0  0  0  0  0  0  0  0  0  0  0
    5.5004    6.8309    4.1700 H   0  0  0  0  0  0  0  0  0  0  0  0
    6.5129    7.9741    4.6486 H   0  0  0  0  0  0  0  0  0  0  0  0
    6.9254    6.4334    4.7803 H   0  0  0  0  0  0  0  0  0  0  0  0
    4.4154    8.5214    6.5272 C   0  0  0  0  0  0  0  0  0  0  0  0
    4.0417    8.6419    7.4246 H   0  0  0  0  0  0  0  0  0  0  0  0
    4.9619    9.3009    6.2932 H   0  0  0  0  0  0  0  0  0  0  0  0
    3.6863    8.4278    5.8790 H   0  0  0  0  0  0  0  0  0  0  0  0
    6.8601    7.4976    7.5821 C   0  0  0  0  0  0  0  0  0  0  0  0
    7.0948    8.4474    7.4307 H   0  0  0  0  0  0  0  0  0  0  0  0
    7.6535    6.9437    7.3726 H   0  0  0  0  0  0  0  0  0  0  0  0
    6.4488    7.2883    9.0382 C   0  0  0  0  0  0  0  0  0  0  0  0
    7.2492    7.3338    9.6188 H   0  0  0  0  0  0  0  0  0  0  0  0
    5.8274    8.0083    9.3139 H   0  0  0  0  0  0  0  0  0  0  0  0
    6.9735    4.6241    9.9251 C   0  0  0  0  0  0  0  0  0  0  0  0
    7.7219    4.6069    9.2924 H   0  0  0  0  0  0  0  0  0  0  0  0
    7.2749    5.0028   10.7771 H   0  0  0  0  0  0  0  0  0  0  0  0
    6.6484    3.7108   10.0706 H   0  0  0  0  0  0  0  0  0  0  0  0
    4.5460    5.9222   10.6893 C   0  0  0  0  0  0  0  0  0  0  0  0
    4.2327    5.0586   11.0310 H   0  0  0  0  0  0  0  0  0  0  0  0
    5.0488    6.3876   11.3899 H   0  0  0  0  0  0  0  0  0  0  0  0
    3.7763    6.4668   10.4227 H   0  0  0  0  0  0  0  0  0  0  0  0
    8.3451    3.2951    6.0722 C   0  0  0  0  0  0  0  0  0  0  0  0
    7.2585    2.3528    5.4770 C   0  0  0  0  0  0  0  0  0  0  0  0
    9.0771    2.6858    7.2630 C   0  0  0  0  0  0  0  0  0  0  0  0
    8.4249    2.3115    7.8914 H   0  0  0  0  0  0  0  0  0  0  0  0
    9.6742    1.9740    6.9499 H   0  0  0  0  0  0  0  0  0  0  0  0
    9.6037    3.3791    7.7127 H   0  0  0  0  0  0  0  0  0  0  0  0
    9.3489    3.8385    5.0703 C   0  0  0  0  0  0  0  0  0  0  0  0
    9.9815    4.4300    5.5293 H   0  0  0  0  0  0  0  0  0  0  0  0
    9.8369    3.0943    4.6598 H   0  0  0  0  0  0  0  0  0  0  0  0
    8.8768    4.3425    4.3747 H   0  0  0  0  0  0  0  0  0  0  0  0
    7.5800    0.8722    5.5573 C   0  0  0  0  0  0  0  0  0  0  0  0
    6.8479    0.3565    5.1596 H   0  0  0  0  0  0  0  0  0  0  0  0
    8.4101    0.6915    5.0676 H   0  0  0  0  0  0  0  0  0  0  0  0
    7.6914    0.6123    6.4953 H   0  0  0  0  0  0  0  0  0  0  0  0
    6.8658    2.7301    4.0482 C   0  0  0  0  0  0  0  0  0  0  0  0
    6.7069    3.6964    3.9979 H   0  0  0  0  0  0  0  0  0  0  0  0
    7.5890    2.4855    3.4352 H   0  0  0  0  0  0  0  0  0  0  0  0
    6.0478    2.2519    3.7976 H   0  0  0  0  0  0  0  0  0  0  0  0
    6.2274    3.9581    6.7560 B   0  0  0  0  0  0  0  0  0  0  0  0
  1  2  1  0  0  0  0
  3  1  1  0  0  0  0
  4  1  1  0  0  0  0
  5  1  1  0  0  0  0
  6 30  1  0  0  0  0
  7 31  1  0  0  0  0
  8  4  1  0  0  0  0
  9  8  1  0  0  0  0
 10  8  1  0  0  0  0
 11  8  1  0  0  0  0
 12  4  1  0  0  0  0
 13 12  1  0  0  0  0
 14 12  1  0  0  0  0
 15 12  1  0  0  0  0
 16  4  1  0  0  0  0
 17 16  1  0  0  0  0
 18 16  1  0  0  0  0
 19  5  1  0  0  0  0
 20 19  1  0  0  0  0
 21 19  1  0  0  0  0
 22  5  1  0  0  0  0
 23 22  1  0  0  0  0
 24 22  1  0  0  0  0
 25 22  1  0  0  0  0
 26  5  1  0  0  0  0
 27 26  1  0  0  0  0
 28 26  1  0  0  0  0
 29 26  1  0  0  0  0
 30 31  1  0  0  0  0
 31 40  1  0  0  0  0
 32 30  1  0  0  0  0
 33 32  1  0  0  0  0
 34 32  1  0  0  0  0
 35 32  1  0  0  0  0
 36 30  1  0  0  0  0
 37 36  1  0  0  0  0
 38 36  1  0  0  0  0
 39 36  1  0  0  0  0
 40 41  1  0  0  0  0
 42 40  1  0  0  0  0
 43 40  1  0  0  0  0
 44 31  1  0  0  0  0
 45 44  1  0  0  0  0
 46 44  1  0  0  0  0
 47 44  1  0  0  0  0
 48  1  1  0  0  0  0
 49  3  1  0  0  0  0
 50 49  1  0  0  0  0
 51  1  1  0  0  0  0
 52 49  1  0  0  0  0
 53 49  1  0  0  0  0
 54 78  1  0  0  0  0
 55 79  1  0  0  0  0
 56 52  1  0  0  0  0
 57 56  1  0  0  0  0
 58 56  1  0  0  0  0
 59 56  1  0  0  0  0
 60 52  1  0  0  0  0
 61 60  1  0  0  0  0
 62 60  1  0  0  0  0
 63 60  1  0  0  0  0
 64 52  1  0  0  0  0
 65 64  1  0  0  0  0
 66 64  1  0  0  0  0
 67 53  1  0  0  0  0
 68 67  1  0  0  0  0
 69 67  1  0  0  0  0
 70 53  1  0  0  0  0
 71 70  1  0  0  0  0
 72 70  1  0  0  0  0
 73 70  1  0  0  0  0
 74 53  1  0  0  0  0
 75 74  1  0  0  0  0
 76 74  1  0  0  0  0
 77 74  1  0  0  0  0
 78 79  1  0  0  0  0
 79 88  1  0  0  0  0
 80 78  1  0  0  0  0
 81 80  1  0  0  0  0
 82 80  1  0  0  0  0
 83 80  1  0  0  0  0
 84 78  1  0  0  0  0
 85 84  1  0  0  0  0
 86 84  1  0  0  0  0
 87 84  1  0  0  0  0
 88 89  1  0  0  0  0
 90 88  1  0  0  0  0
 91 88  1  0  0  0  0
 92 79  1  0  0  0  0
 93 92  1  0  0  0  0
 94 92  1  0  0  0  0
 95 92  1  0  0  0  0
 96 49  1  0  0  0  0
  6 48  1  0  0  0  0
  7 48  1  0  0  0  0
 16 19  1  0  0  0  0
 49 51  1  0  0  0  0
 54 96  1  0  0  0  0
 55 96  1  0  0  0  0
 64 67  1  0  0  0  0
M  END
$$$$
RILFID

From CSD data. Using bond type 'Any'. No disordered atoms. Largest molecule.
108121  0  0  0  0  0  0  0  0999 V2000
    3.4916    8.2015   10.7556 Nd  0  0  0  0  0  0  0  0  0  0  0  0
    5.5531    8.7188    9.5084 N   0  0  0  0  0  0  0  0  0  0  0  0
    3.4610    9.8009    8.6853 N   0  0  0  0  0  0  0  0  0  0  0  0
    1.4604    8.4466    9.3480 N   0  0  0  0  0  0  0  0  0  0  0  0
    5.0174    9.6803    8.3472 P   0  0  0  0  0  0  0  0  0  0  0  0
    1.9729    9.4584    8.2145 P   0  0  0  0  0  0  0  0  0  0  0  0
    4.8401    7.3614   12.7912 O   0  0  0  0  0  0  0  0  0  0  0  0
    1.7001    7.4241   12.3638 O   0  0  0  0  0  0  0  0  0  0  0  0
    3.3083   10.5385   12.1514 B   0  0  0  0  0  0  0  0  0  0  0  0
    2.5338   10.4003   11.4098 H   0  0  0  0  0  0  0  0  0  0  0  0
    3.1362    9.8516   12.9625 H   0  0  0  0  0  0  0  0  0  0  0  0
    4.2717   10.3411   11.7064 H   0  0  0  0  0  0  0  0  0  0  0  0
    3.2830   11.5491   12.5202 H   0  0  0  0  0  0  0  0  0  0  0  0
    3.8481    5.7065    9.7810 B   0  0  0  0  0  0  0  0  0  0  0  0
    3.1671    5.7558   10.6014 H   0  0  0  0  0  0  0  0  0  0  0  0
    4.8159    6.0993   10.0736 H   0  0  0  0  0  0  0  0  0  0  0  0
    3.4799    6.2966    8.9525 H   0  0  0  0  0  0  0  0  0  0  0  0
    3.9851    4.6860    9.4563 H   0  0  0  0  0  0  0  0  0  0  0  0
    6.8810    8.3137    9.7556 C   0  0  0  0  0  0  0  0  0  0  0  0
    7.4549    8.5942   10.9889 C   0  0  0  0  0  0  0  0  0  0  0  0
    6.9728    9.1213   11.6142 H   0  0  0  0  0  0  0  0  0  0  0  0
    8.7136    8.1225   11.3296 C   0  0  0  0  0  0  0  0  0  0  0  0
    9.0684    8.2981   12.1928 H   0  0  0  0  0  0  0  0  0  0  0  0
    9.4462    7.3981   10.4157 C   0  0  0  0  0  0  0  0  0  0  0  0
   10.3089    7.0744   10.6428 H   0  0  0  0  0  0  0  0  0  0  0  0
    8.9122    7.1494    9.1610 C   0  0  0  0  0  0  0  0  0  0  0  0
    9.4219    6.6717    8.5169 H   0  0  0  0  0  0  0  0  0  0  0  0
    7.6460    7.5935    8.8456 C   0  0  0  0  0  0  0  0  0  0  0  0
    7.2862    7.4000    7.9878 H   0  0  0  0  0  0  0  0  0  0  0  0
    5.7856   11.3057    8.4368 C   0  0  0  0  0  0  0  0  0  0  0  0
    7.1224   11.4840    8.1201 C   0  0  0  0  0  0  0  0  0  0  0  0
    7.6360   10.7517    7.8007 H   0  0  0  0  0  0  0  0  0  0  0  0
    7.7103   12.7315    8.2697 C   0  0  0  0  0  0  0  0  0  0  0  0
    8.6205   12.8538    8.0252 H   0  0  0  0  0  0  0  0  0  0  0  0
    6.9961   13.7835    8.7655 C   0  0  0  0  0  0  0  0  0  0  0  0
    7.4096   14.6323    8.8710 H   0  0  0  0  0  0  0  0  0  0  0  0
    5.6906   13.6098    9.1089 C   0  0  0  0  0  0  0  0  0  0  0  0
    5.1950   14.3382    9.4630 H   0  0  0  0  0  0  0  0  0  0  0  0
    5.0805   12.3801    8.9445 C   0  0  0  0  0  0  0  0  0  0  0  0
    4.1673   12.2735    9.1850 H   0  0  0  0  0  0  0  0  0  0  0  0
    5.3059    9.0678    6.6650 C   0  0  0  0  0  0  0  0  0  0  0  0
    5.6943    9.8634    5.6201 C   0  0  0  0  0  0  0  0  0  0  0  0
    5.8807   10.7833    5.7710 H   0  0  0  0  0  0  0  0  0  0  0  0
    5.8214    9.3384    4.3400 C   0  0  0  0  0  0  0  0  0  0  0  0
    6.1021    9.8970    3.6238 H   0  0  0  0  0  0  0  0  0  0  0  0
    5.5454    8.0159    4.1061 C   0  0  0  0  0  0  0  0  0  0  0  0
    5.6335    7.6566    3.2309 H   0  0  0  0  0  0  0  0  0  0  0  0
    5.1320    7.1987    5.1631 C   0  0  0  0  0  0  0  0  0  0  0  0
    4.9258    6.2848    5.0041 H   0  0  0  0  0  0  0  0  0  0  0  0
    5.0241    7.7133    6.4271 C   0  0  0  0  0  0  0  0  0  0  0  0
    4.7565    7.1513    7.1460 H   0  0  0  0  0  0  0  0  0  0  0  0
    1.8678    8.7225    6.5701 C   0  0  0  0  0  0  0  0  0  0  0  0
    2.1314    9.4844    5.4276 C   0  0  0  0  0  0  0  0  0  0  0  0
    2.3645   10.4023    5.5078 H   0  0  0  0  0  0  0  0  0  0  0  0
    2.0482    8.8804    4.1516 C   0  0  0  0  0  0  0  0  0  0  0  0
    2.2260    9.3877    3.3686 H   0  0  0  0  0  0  0  0  0  0  0  0
    1.7087    7.5560    4.0567 C   0  0  0  0  0  0  0  0  0  0  0  0
    1.6444    7.1533    3.1989 H   0  0  0  0  0  0  0  0  0  0  0  0
    1.4633    6.8079    5.1604 C   0  0  0  0  0  0  0  0  0  0  0  0
    1.2236    5.8920    5.0749 H   0  0  0  0  0  0  0  0  0  0  0  0
    1.5658    7.3902    6.4285 C   0  0  0  0  0  0  0  0  0  0  0  0
    1.4253    6.8572    7.2021 H   0  0  0  0  0  0  0  0  0  0  0  0
    1.0185   10.9870    8.1027 C   0  0  0  0  0  0  0  0  0  0  0  0
    1.2410   11.9913    9.0434 C   0  0  0  0  0  0  0  0  0  0  0  0
    1.9256   11.8926    9.6941 H   0  0  0  0  0  0  0  0  0  0  0  0
    0.4581   13.1381    9.0260 C   0  0  0  0  0  0  0  0  0  0  0  0
    0.6325   13.8349    9.6474 H   0  0  0  0  0  0  0  0  0  0  0  0
   -0.5645   13.2743    8.1201 C   0  0  0  0  0  0  0  0  0  0  0  0
   -1.1148   14.0500    8.1401 H   0  0  0  0  0  0  0  0  0  0  0  0
   -0.7949   12.2972    7.1887 C   0  0  0  0  0  0  0  0  0  0  0  0
   -1.4851   12.4097    6.5460 H   0  0  0  0  0  0  0  0  0  0  0  0
   -0.0224   11.1445    7.1821 C   0  0  0  0  0  0  0  0  0  0  0  0
   -0.2017   10.4595    6.5474 H   0  0  0  0  0  0  0  0  0  0  0  0
    0.1534    7.8975    9.4563 C   0  0  0  0  0  0  0  0  0  0  0  0
    0.0138    6.5059    9.5311 C   0  0  0  0  0  0  0  0  0  0  0  0
    0.7828    5.9512    9.4777 H   0  0  0  0  0  0  0  0  0  0  0  0
   -1.2319    5.9335    9.6808 C   0  0  0  0  0  0  0  0  0  0  0  0
   -1.3125    4.9880    9.7275 H   0  0  0  0  0  0  0  0  0  0  0  0
   -2.3713    6.7289    9.7636 C   0  0  0  0  0  0  0  0  0  0  0  0
   -3.2286    6.3322    9.8545 H   0  0  0  0  0  0  0  0  0  0  0  0
   -2.2406    8.0889    9.7115 C   0  0  0  0  0  0  0  0  0  0  0  0
   -3.0136    8.6357    9.7836 H   0  0  0  0  0  0  0  0  0  0  0  0
   -0.9796    8.6870    9.5552 C   0  0  0  0  0  0  0  0  0  0  0  0
   -0.9069    9.6345    9.5177 H   0  0  0  0  0  0  0  0  0  0  0  0
    0.5912    8.2784   12.7861 C   0  0  0  0  0  0  0  0  0  0  0  0
    0.9273    9.1864   13.0413 H   0  0  0  0  0  0  0  0  0  0  0  0
   -0.0699    8.3929   12.0632 H   0  0  0  0  0  0  0  0  0  0  0  0
    0.2352    7.8560   14.1022 C   0  0  0  0  0  0  0  0  0  0  0  0
   -0.7030    8.0929   14.3134 H   0  0  0  0  0  0  0  0  0  0  0  0
    0.8332    8.2567   14.7824 H   0  0  0  0  0  0  0  0  0  0  0  0
    0.4220    6.3322   14.0261 C   0  0  0  0  0  0  0  0  0  0  0  0
    0.6016    6.1229   14.9748 H   0  0  0  0  0  0  0  0  0  0  0  0
   -0.3044    5.7183   13.7027 H   0  0  0  0  0  0  0  0  0  0  0  0
    1.6483    6.2453   13.1722 C   0  0  0  0  0  0  0  0  0  0  0  0
    2.4560    6.1861   13.7428 H   0  0  0  0  0  0  0  0  0  0  0  0
    1.6103    5.4400   12.5990 H   0  0  0  0  0  0  0  0  0  0  0  0
    5.1437    8.1481   13.9646 C   0  0  0  0  0  0  0  0  0  0  0  0
    4.3566    8.1995   14.5619 H   0  0  0  0  0  0  0  0  0  0  0  0
    5.4071    9.0680   13.7067 H   0  0  0  0  0  0  0  0  0  0  0  0
    6.2654    7.4573   14.6394 C   0  0  0  0  0  0  0  0  0  0  0  0
    7.1314    7.8481   14.3641 H   0  0  0  0  0  0  0  0  0  0  0  0
    6.1792    7.5343   15.6228 H   0  0  0  0  0  0  0  0  0  0  0  0
    6.1787    6.1368   14.2452 C   0  0  0  0  0  0  0  0  0  0  0  0
    5.6539    5.6176   14.9053 H   0  0  0  0  0  0  0  0  0  0  0  0
    7.0828    5.7400   14.1824 H   0  0  0  0  0  0  0  0  0  0  0  0
    5.5163    6.1032   12.9331 C   0  0  0  0  0  0  0  0  0  0  0  0
    6.1837    5.9867   12.2115 H   0  0  0  0  0  0  0  0  0  0  0  0
    4.8700    5.3551   12.8903 H   0  0  0  0  0  0  0  0  0  0  0  0
  1  2  1  0  0  0  0
  2  5  2  0  0  0  0
  3  1  1  0  0  0  0
  4  1  1  0  0  0  0
  5  3  1  0  0  0  0
  6  3  1  0  0  0  0
  7  1  1  0  0  0  0
  8  1  1  0  0  0  0
  9 10  1  0  0  0  0
 10  1  1  0  0  0  0
 11  1  1  0  0  0  0
 12  1  1  0  0  0  0
 13  9  1  0  0  0  0
 14 15  1  0  0  0  0
 15  1  1  0  0  0  0
 16  1  1  0  0  0  0
 17  1  1  0  0  0  0
 18 14  1  0  0  0  0
 19  2  1  0  0  0  0
 20 19  4  0  0  0  0
 21 20  1  0  0  0  0
 22 20  4  0  0  0  0
 23 22  1  0  0  0  0
 24 22  4  0  0  0  0
 25 24  1  0  0  0  0
 26 24  4  0  0  0  0
 27 26  1  0  0  0  0
 28 19  4  0  0  0  0
 29 28  1  0  0  0  0
 30  5  1  0  0  0  0
 31 30  4  0  0  0  0
 32 31  1  0  0  0  0
 33 31  4  0  0  0  0
 34 33  1  0  0  0  0
 35 33  4  0  0  0  0
 36 35  1  0  0  0  0
 37 35  4  0  0  0  0
 38 37  1  0  0  0  0
 39 30  4  0  0  0  0
 40 39  1  0  0  0  0
 41  5  1  0  0  0  0
 42 41  4  0  0  0  0
 43 42  1  0  0  0  0
 44 42  4  0  0  0  0
 45 44  1  0  0  0  0
 46 44  4  0  0  0  0
 47 46  1  0  0  0  0
 48 46  4  0  0  0  0
 49 48  1  0  0  0  0
 50 41  4  0  0  0  0
 51 50  1  0  0  0  0
 52  6  1  0  0  0  0
 53 52  4  0  0  0  0
 54 53  1  0  0  0  0
 55 53  4  0  0  0  0
 56 55  1  0  0  0  0
 57 55  4  0  0  0  0
 58 57  1  0  0  0  0
 59 57  4  0  0  0  0
 60 59  1  0  0  0  0
 61 52  4  0  0  0  0
 62 61  1  0  0  0  0
 63  6  1  0  0  0  0
 64 63  4  0  0  0  0
 65 64  1  0  0  0  0
 66 64  4  0  0  0  0
 67 66  1  0  0  0  0
 68 66  4  0  0  0  0
 69 68  1  0  0  0  0
 70 68  4  0  0  0  0
 71 70  1  0  0  0  0
 72 63  4  0  0  0  0
 73 72  1  0  0  0  0
 74  4  1  0  0  0  0
 75 74  4  0  0  0  0
 76 75  1  0  0  0  0
 77 75  4  0  0  0  0
 78 77  1  0  0  0  0
 79 77  4  0  0  0  0
 80 79  1  0  0  0  0
 81 79  4  0  0  0  0
 82 81  1  0  0  0  0
 83 74  4  0  0  0  0
 84 83  1  0  0  0  0
 85  8  1  0  0  0  0
 86 85  1  0  0  0  0
 87 85  1  0  0  0  0
 88 85  1  0  0  0  0
 89 88  1  0  0  0  0
 90 88  1  0  0  0  0
 91 88  1  0  0  0  0
 92 91  1  0  0  0  0
 93 91  1  0  0  0  0
 94  8  1  0  0  0  0
 95 94  1  0  0  0  0
 96 94  1  0  0  0  0
 97  7  1  0  0  0  0
 98 97  1  0  0  0  0
 99 97  1  0  0  0  0
100 97  1  0  0  0  0
101100  1  0  0  0  0
102100  1  0  0  0  0
103100  1  0  0  0  0
104103  1  0  0  0  0
105103  1  0  0  0  0
106  7  1  0  0  0  0
107106  1  0  0  0  0
108106  1  0  0  0  0
  4  6  2  0  0  0  0
  9 11  1  0  0  0  0
  9 12  1  0  0  0  0
 14 16  1  0  0  0  0
 14 17  1  0  0  0  0
 26 28  4  0  0  0  0
 37 39  4  0  0  0  0
 48 50  4  0  0  0  0
 59 61  4  0  0  0  0
 70 72  4  0  0  0  0
 81 83  4  0  0  0  0
 91 94  1  0  0  0  0
103106  1  0  0  0  0
M  END
$$$$
RIQSOB

From CSD data. Using bond type 'Any'. No disordered atoms. Largest molecule.
 89 92  0  0  0  0  0  0  0  0999 V2000
   11.6538    0.6848   13.2128 P   0  0  0  0  0  0  0  0  0  0  0  0
   16.7519    2.6052   11.2128 P   0  0  0  0  0  0  0  0  0  0  0  0
   13.9145    1.3977   11.3548 O   0  0  0  0  0  0  0  0  0  0  0  0
   18.3815    2.4785   10.8568 N   0  0  0  0  0  0  0  0  0  0  0  0
   16.4212    2.2234   12.7905 N   0  0  0  0  0  0  0  0  0  0  0  0
   11.5727    1.6958   11.7078 C   0  0  0  0  0  0  0  0  0  0  0  0
   12.6843    1.8592   10.8906 C   0  0  0  0  0  0  0  0  0  0  0  0
   12.5872    2.5058    9.6669 C   0  0  0  0  0  0  0  0  0  0  0  0
   13.3559    2.6032    9.1180 H   0  0  0  0  0  0  0  0  0  0  0  0
   11.3626    3.0104    9.2502 C   0  0  0  0  0  0  0  0  0  0  0  0
   11.2926    3.4261    8.4001 H   0  0  0  0  0  0  0  0  0  0  0  0
   10.2281    2.9172   10.0629 C   0  0  0  0  0  0  0  0  0  0  0  0
   10.3638    2.2692   11.2771 C   0  0  0  0  0  0  0  0  0  0  0  0
    9.6065    2.2090   11.8466 H   0  0  0  0  0  0  0  0  0  0  0  0
    8.8963    3.4920    9.6260 C   0  0  0  0  0  0  0  0  0  0  0  0
    8.3762    3.7472   10.4173 H   0  0  0  0  0  0  0  0  0  0  0  0
    8.4019    2.8183    9.1147 H   0  0  0  0  0  0  0  0  0  0  0  0
    9.0492    4.2804    9.0660 H   0  0  0  0  0  0  0  0  0  0  0  0
   12.2514    1.7947   14.5059 C   0  0  0  0  0  0  0  0  0  0  0  0
   12.9315    1.2314   15.6074 C   0  0  0  0  0  0  0  0  0  0  0  0
   13.1087    0.2982   15.6341 H   0  0  0  0  0  0  0  0  0  0  0  0
   13.3416    2.0470   16.6511 C   0  0  0  0  0  0  0  0  0  0  0  0
   13.7989    1.6686   17.3914 H   0  0  0  0  0  0  0  0  0  0  0  0
   13.0916    3.3945   16.6203 C   0  0  0  0  0  0  0  0  0  0  0  0
   13.3688    3.9436   17.3427 H   0  0  0  0  0  0  0  0  0  0  0  0
   12.4343    3.9593   15.5343 C   0  0  0  0  0  0  0  0  0  0  0  0
   12.2714    4.8954   15.5139 H   0  0  0  0  0  0  0  0  0  0  0  0
   12.0199    3.1652   14.4907 C   0  0  0  0  0  0  0  0  0  0  0  0
   11.5712    3.5565   13.7501 H   0  0  0  0  0  0  0  0  0  0  0  0
    9.9051    0.3856   13.6140 C   0  0  0  0  0  0  0  0  0  0  0  0
    9.2407    1.0436   14.6388 C   0  0  0  0  0  0  0  0  0  0  0  0
    9.7051    1.6686   15.1858 H   0  0  0  0  0  0  0  0  0  0  0  0
    7.8847    0.7827   14.8642 C   0  0  0  0  0  0  0  0  0  0  0  0
    7.4303    1.2199   15.5756 H   0  0  0  0  0  0  0  0  0  0  0  0
    7.2117   -0.1018   14.0655 C   0  0  0  0  0  0  0  0  0  0  0  0
    6.2872   -0.2595   14.2178 H   0  0  0  0  0  0  0  0  0  0  0  0
    7.8475   -0.7583   13.0562 C   0  0  0  0  0  0  0  0  0  0  0  0
    7.3674   -1.3661   12.5060 H   0  0  0  0  0  0  0  0  0  0  0  0
    9.2064   -0.5347   12.8347 C   0  0  0  0  0  0  0  0  0  0  0  0
    9.6579   -1.0121   12.1486 H   0  0  0  0  0  0  0  0  0  0  0  0
   16.0423    1.2686   10.2039 C   0  0  0  0  0  0  0  0  0  0  0  0
   14.7334    0.8099   10.3721 C   0  0  0  0  0  0  0  0  0  0  0  0
   14.2076   -0.2107    9.5958 C   0  0  0  0  0  0  0  0  0  0  0  0
   13.3359   -0.5433    9.7709 H   0  0  0  0  0  0  0  0  0  0  0  0
   14.9620   -0.7469    8.5596 C   0  0  0  0  0  0  0  0  0  0  0  0
   14.6019   -1.4464    8.0265 H   0  0  0  0  0  0  0  0  0  0  0  0
   16.2423   -0.2695    8.2975 C   0  0  0  0  0  0  0  0  0  0  0  0
   16.7581    0.7096    9.1410 C   0  0  0  0  0  0  0  0  0  0  0  0
   17.6455    1.0135    8.9848 H   0  0  0  0  0  0  0  0  0  0  0  0
   17.0639   -0.7641    7.1381 C   0  0  0  0  0  0  0  0  0  0  0  0
   17.3397   -0.0029    6.5843 H   0  0  0  0  0  0  0  0  0  0  0  0
   16.5281   -1.3833    6.5973 H   0  0  0  0  0  0  0  0  0  0  0  0
   17.8584   -1.2285    7.4743 H   0  0  0  0  0  0  0  0  0  0  0  0
   19.1258    1.2500   11.2115 C   0  0  0  0  0  0  0  0  0  0  0  0
   18.5043    0.4802   11.1904 H   0  0  0  0  0  0  0  0  0  0  0  0
   19.4659    1.3375   12.1389 H   0  0  0  0  0  0  0  0  0  0  0  0
   20.3018    0.9647   10.2770 C   0  0  0  0  0  0  0  0  0  0  0  0
   20.6162    0.0473   10.4173 H   0  0  0  0  0  0  0  0  0  0  0  0
   21.0306    1.5926   10.4660 H   0  0  0  0  0  0  0  0  0  0  0  0
   20.0146    1.0723    9.3454 H   0  0  0  0  0  0  0  0  0  0  0  0
   19.1987    3.7171   10.8159 C   0  0  0  0  0  0  0  0  0  0  0  0
   18.6143    4.4711   10.5537 H   0  0  0  0  0  0  0  0  0  0  0  0
   19.8874    3.6167   10.1120 H   0  0  0  0  0  0  0  0  0  0  0  0
   19.8874    4.0683   12.1152 C   0  0  0  0  0  0  0  0  0  0  0  0
   20.4118    4.8882   11.9960 H   0  0  0  0  0  0  0  0  0  0  0  0
   20.4819    3.3358   12.3793 H   0  0  0  0  0  0  0  0  0  0  0  0
   19.2144    4.2102   12.8145 H   0  0  0  0  0  0  0  0  0  0  0  0
   16.5552    0.8615   13.3245 C   0  0  0  0  0  0  0  0  0  0  0  0
   16.9010    0.2709   12.6099 H   0  0  0  0  0  0  0  0  0  0  0  0
   15.6593    0.5304   13.5811 H   0  0  0  0  0  0  0  0  0  0  0  0
   17.4769    0.7612   14.5280 C   0  0  0  0  0  0  0  0  0  0  0  0
   17.6055   -0.1806   14.7635 H   0  0  0  0  0  0  0  0  0  0  0  0
   17.0754    1.2357   15.2865 H   0  0  0  0  0  0  0  0  0  0  0  0
   18.3428    1.1654   14.3120 H   0  0  0  0  0  0  0  0  0  0  0  0
   15.6450    3.1408   13.6513 C   0  0  0  0  0  0  0  0  0  0  0  0
   15.0892    2.6032   14.2698 H   0  0  0  0  0  0  0  0  0  0  0  0
   15.0335    3.6712   13.0809 H   0  0  0  0  0  0  0  0  0  0  0  0
   16.5052    4.0969   14.4692 C   0  0  0  0  0  0  0  0  0  0  0  0
   15.9308    4.6288   15.0591 H   0  0  0  0  0  0  0  0  0  0  0  0
   16.9939    4.6947   13.8670 H   0  0  0  0  0  0  0  0  0  0  0  0
   17.1425    3.5838   15.0071 H   0  0  0  0  0  0  0  0  0  0  0  0
   12.5515   -1.0049   13.0822 B   0  0  0  0  0  0  0  0  0  0  0  0
   12.2057   -1.6672   13.8897 H   0  0  0  0  0  0  0  0  0  0  0  0
   13.6374   -0.8515   13.1719 H   0  0  0  0  0  0  0  0  0  0  0  0
   12.3271   -1.4665   12.1097 H   0  0  0  0  0  0  0  0  0  0  0  0
   16.0537    4.3091   10.7064 B   0  0  0  0  0  0  0  0  0  0  0  0
   16.4038    4.9986   11.3106 H   0  0  0  0  0  0  0  0  0  0  0  0
   15.0763    4.2919   10.7649 H   0  0  0  0  0  0  0  0  0  0  0  0
   16.3252    4.5127    9.7871 H   0  0  0  0  0  0  0  0  0  0  0  0
  1  6  1  0  0  0  0
  2  4  1  0  0  0  0
  3  7  1  0  0  0  0
  4 54  1  0  0  0  0
  5  2  1  0  0  0  0
  6  7  4  0  0  0  0
  7  8  4  0  0  0  0
  8  9  1  0  0  0  0
 10  8  4  0  0  0  0
 11 10  1  0  0  0  0
 12 10  4  0  0  0  0
 13  6  4  0  0  0  0
 14 13  1  0  0  0  0
 15 12  1  0  0  0  0
 16 15  1  0  0  0  0
 17 15  1  0  0  0  0
 18 15  1  0  0  0  0
 19  1  1  0  0  0  0
 20 19  4  0  0  0  0
 21 20  1  0  0  0  0
 22 20  4  0  0  0  0
 23 22  1  0  0  0  0
 24 22  4  0  0  0  0
 25 24  1  0  0  0  0
 26 24  4  0  0  0  0
 27 26  1  0  0  0  0
 28 19  4  0  0  0  0
 29 28  1  0  0  0  0
 30  1  1  0  0  0  0
 31 30  4  0  0  0  0
 32 31  1  0  0  0  0
 33 31  4  0  0  0  0
 34 33  1  0  0  0  0
 35 33  4  0  0  0  0
 36 35  1  0  0  0  0
 37 35  4  0  0  0  0
 38 37  1  0  0  0  0
 39 30  4  0  0  0  0
 40 39  1  0  0  0  0
 41  2  1  0  0  0  0
 42  3  1  0  0  0  0
 43 42  4  0  0  0  0
 44 43  1  0  0  0  0
 45 43  4  0  0  0  0
 46 45  1  0  0  0  0
 47 45  4  0  0  0  0
 48 41  4  0  0  0  0
 49 48  1  0  0  0  0
 50 47  1  0  0  0  0
 51 50  1  0  0  0  0
 52 50  1  0  0  0  0
 53 50  1  0  0  0  0
 54 55  1  0  0  0  0
 56 54  1  0  0  0  0
 57 54  1  0  0  0  0
 58 57  1  0  0  0  0
 59 57  1  0  0  0  0
 60 57  1  0  0  0  0
 61  4  1  0  0  0  0
 62 61  1  0  0  0  0
 63 61  1  0  0  0  0
 64 61  1  0  0  0  0
 65 64  1  0  0  0  0
 66 64  1  0  0  0  0
 67 64  1  0  0  0  0
 68  5  1  0  0  0  0
 69 68  1  0  0  0  0
 70 68  1  0  0  0  0
 71 68  1  0  0  0  0
 72 71  1  0  0  0  0
 73 71  1  0  0  0  0
 74 71  1  0  0  0  0
 75  5  1  0  0  0  0
 76 75  1  0  0  0  0
 77 75  1  0  0  0  0
 78 75  1  0  0  0  0
 79 78  1  0  0  0  0
 80 78  1  0  0  0  0
 81 78  1  0  0  0  0
 82  1  1  0  0  0  0
 83 82  1  0  0  0  0
 84 82  1  0  0  0  0
 85 82  1  0  0  0  0
 86  2  1  0  0  0  0
 87 86  1  0  0  0  0
 88 86  1  0  0  0  0
 89 86  1  0  0  0  0
 12 13  4  0  0  0  0
 26 28  4  0  0  0  0
 37 39  4  0  0  0  0
 41 42  4  0  0  0  0
 47 48  4  0  0  0  0
M  END
$$$$
ROFSOY

From CSD data. Using bond type 'Any'. No disordered atoms. Largest molecule.
135136  0  0  0  0  0  0  0  0999 V2000
    9.3073   11.7080   11.7029 Sn  0  0  0  0  0  0  0  0  0  0  0  0
    7.0972   13.0525   11.2119 P   0  0  0  0  0  0  0  0  0  0  0  0
    8.4058    9.4026   12.5823 P   0  0  0  0  0  0  0  0  0  0  0  0
   10.2679   12.8763   13.8515 P   0  0  0  0  0  0  0  0  0  0  0  0
    4.4001   17.4991    8.2925 P   0  0  0  0  0  0  0  0  0  0  0  0
    5.4749   17.6156    9.3216 O   0  0  0  0  0  0  0  0  0  0  0  0
    7.1483   13.0313    9.3506 C   0  0  0  0  0  0  0  0  0  0  0  0
    6.3348   13.5188    9.0320 H   0  0  0  0  0  0  0  0  0  0  0  0
    8.3630   13.8099    8.8376 C   0  0  0  0  0  0  0  0  0  0  0  0
    8.3493   14.7170    9.2062 H   0  0  0  0  0  0  0  0  0  0  0  0
    8.3335   13.8554    7.8595 H   0  0  0  0  0  0  0  0  0  0  0  0
    9.1844   13.3558    9.1182 H   0  0  0  0  0  0  0  0  0  0  0  0
    7.0850   11.6388    8.7569 C   0  0  0  0  0  0  0  0  0  0  0  0
    7.8918   11.1415    9.0058 H   0  0  0  0  0  0  0  0  0  0  0  0
    7.0285   11.7025    7.7808 H   0  0  0  0  0  0  0  0  0  0  0  0
    6.2953   11.1733    9.1013 H   0  0  0  0  0  0  0  0  0  0  0  0
    5.4891   12.1951   11.6051 C   0  0  0  0  0  0  0  0  0  0  0  0
    5.5505   11.2558   11.2666 H   0  0  0  0  0  0  0  0  0  0  0  0
    5.2655   12.1390   13.1066 C   0  0  0  0  0  0  0  0  0  0  0  0
    6.0170   11.6750   13.5312 H   0  0  0  0  0  0  0  0  0  0  0  0
    4.4337   11.6559   13.2952 H   0  0  0  0  0  0  0  0  0  0  0  0
    5.2022   13.0510   13.4619 H   0  0  0  0  0  0  0  0  0  0  0  0
    4.2954   12.8660   10.9199 C   0  0  0  0  0  0  0  0  0  0  0  0
    4.2132   13.7898   11.2367 H   0  0  0  0  0  0  0  0  0  0  0  0
    3.4763   12.3736   11.1355 H   0  0  0  0  0  0  0  0  0  0  0  0
    4.4319   12.8647    9.9498 H   0  0  0  0  0  0  0  0  0  0  0  0
    9.6966    8.2965   11.8198 C   0  0  0  0  0  0  0  0  0  0  0  0
    9.4642    7.3606   12.0852 H   0  0  0  0  0  0  0  0  0  0  0  0
    9.6477    8.3459   10.2911 C   0  0  0  0  0  0  0  0  0  0  0  0
    8.7338    8.1651    9.9873 H   0  0  0  0  0  0  0  0  0  0  0  0
   10.2548    7.6697    9.9236 H   0  0  0  0  0  0  0  0  0  0  0  0
    9.9226    9.2341    9.9836 H   0  0  0  0  0  0  0  0  0  0  0  0
   11.0911    8.5643   12.3455 C   0  0  0  0  0  0  0  0  0  0  0  0
   11.3686    9.4691   12.0908 H   0  0  0  0  0  0  0  0  0  0  0  0
   11.7160    7.9132   11.9615 H   0  0  0  0  0  0  0  0  0  0  0  0
   11.0940    8.4847   13.3214 H   0  0  0  0  0  0  0  0  0  0  0  0
    8.5839    9.0648   14.4037 C   0  0  0  0  0  0  0  0  0  0  0  0
    9.4938    9.3633   14.6888 H   0  0  0  0  0  0  0  0  0  0  0  0
    8.4488    7.5681   14.7140 C   0  0  0  0  0  0  0  0  0  0  0  0
    9.1947    7.0812   14.3048 H   0  0  0  0  0  0  0  0  0  0  0  0
    7.6025    7.2336   14.3516 H   0  0  0  0  0  0  0  0  0  0  0  0
    8.4657    7.4326   15.6852 H   0  0  0  0  0  0  0  0  0  0  0  0
    7.5554    9.8510   15.1990 C   0  0  0  0  0  0  0  0  0  0  0  0
    7.6412   10.8049   14.9903 H   0  0  0  0  0  0  0  0  0  0  0  0
    7.7066    9.7104   16.1573 H   0  0  0  0  0  0  0  0  0  0  0  0
    6.6546    9.5453   14.9622 H   0  0  0  0  0  0  0  0  0  0  0  0
   11.7412   13.7314   13.1068 C   0  0  0  0  0  0  0  0  0  0  0  0
   12.1845   14.2450   13.8421 H   0  0  0  0  0  0  0  0  0  0  0  0
   12.7616   12.7256   12.5872 C   0  0  0  0  0  0  0  0  0  0  0  0
   12.9961   12.1005   13.3045 H   0  0  0  0  0  0  0  0  0  0  0  0
   13.5654   13.1992   12.2912 H   0  0  0  0  0  0  0  0  0  0  0  0
   12.3776   12.2296   11.8342 H   0  0  0  0  0  0  0  0  0  0  0  0
   11.3713   14.7435   12.0132 C   0  0  0  0  0  0  0  0  0  0  0  0
   10.9607   14.2725   11.2573 H   0  0  0  0  0  0  0  0  0  0  0  0
   12.1797   15.2061   11.7087 H   0  0  0  0  0  0  0  0  0  0  0  0
   10.7357   15.3966   12.3736 H   0  0  0  0  0  0  0  0  0  0  0  0
    9.2375   14.2873   14.4867 C   0  0  0  0  0  0  0  0  0  0  0  0
    8.9158   14.8144   13.6998 H   0  0  0  0  0  0  0  0  0  0  0  0
   10.0276   15.2276   15.3893 C   0  0  0  0  0  0  0  0  0  0  0  0
   10.3980   14.7234   16.1442 H   0  0  0  0  0  0  0  0  0  0  0  0
    9.4361   15.9322   15.7265 H   0  0  0  0  0  0  0  0  0  0  0  0
   10.7595   15.6337   14.8779 H   0  0  0  0  0  0  0  0  0  0  0  0
    8.0209   13.7557   15.2215 C   0  0  0  0  0  0  0  0  0  0  0  0
    7.5106   13.1674   14.6251 H   0  0  0  0  0  0  0  0  0  0  0  0
    7.4551   14.5053   15.5036 H   0  0  0  0  0  0  0  0  0  0  0  0
    8.3096   13.2500   16.0093 H   0  0  0  0  0  0  0  0  0  0  0  0
    3.5773   19.0974    8.0243 C   0  0  0  0  0  0  0  0  0  0  0  0
    2.8616   18.9785    7.3369 H   0  0  0  0  0  0  0  0  0  0  0  0
    4.5834   20.1134    7.5130 C   0  0  0  0  0  0  0  0  0  0  0  0
    5.3394   20.1661    8.1348 H   0  0  0  0  0  0  0  0  0  0  0  0
    4.1549   20.9917    7.4437 H   0  0  0  0  0  0  0  0  0  0  0  0
    4.9065   19.8379    6.6289 H   0  0  0  0  0  0  0  0  0  0  0  0
    2.9327   19.5879    9.3261 C   0  0  0  0  0  0  0  0  0  0  0  0
    2.2472   18.9488    9.6108 H   0  0  0  0  0  0  0  0  0  0  0  0
    2.5208   20.4646    9.1744 H   0  0  0  0  0  0  0  0  0  0  0  0
    3.6182   19.6643   10.0210 H   0  0  0  0  0  0  0  0  0  0  0  0
    3.1378   16.2561    8.7844 C   0  0  0  0  0  0  0  0  0  0  0  0
    3.4988   15.3627    8.5132 H   0  0  0  0  0  0  0  0  0  0  0  0
    1.7951   16.4131    8.0805 C   0  0  0  0  0  0  0  0  0  0  0  0
    1.3927   17.2701    8.3296 H   0  0  0  0  0  0  0  0  0  0  0  0
    1.1994   15.6824    8.3465 H   0  0  0  0  0  0  0  0  0  0  0  0
    1.9305   16.3873    7.1102 H   0  0  0  0  0  0  0  0  0  0  0  0
    2.9595   16.2097   10.3057 C   0  0  0  0  0  0  0  0  0  0  0  0
    3.8361   16.1227   10.7347 H   0  0  0  0  0  0  0  0  0  0  0  0
    2.3998   15.4410   10.5455 H   0  0  0  0  0  0  0  0  0  0  0  0
    2.5267   17.0351   10.6092 H   0  0  0  0  0  0  0  0  0  0  0  0
    5.1297   17.0036    6.6920 C   0  0  0  0  0  0  0  0  0  0  0  0
    5.7664   17.7316    6.4397 H   0  0  0  0  0  0  0  0  0  0  0  0
    4.1566   16.8660    5.5222 C   0  0  0  0  0  0  0  0  0  0  0  0
    3.5370   16.1269    5.6979 H   0  0  0  0  0  0  0  0  0  0  0  0
    4.6580   16.6837    4.6996 H   0  0  0  0  0  0  0  0  0  0  0  0
    3.6503   17.6977    5.4188 H   0  0  0  0  0  0  0  0  0  0  0  0
    5.9690   15.7435    6.8574 C   0  0  0  0  0  0  0  0  0  0  0  0
    6.5441   15.8369    7.6459 H   0  0  0  0  0  0  0  0  0  0  0  0
    6.5259   15.6146    6.0613 H   0  0  0  0  0  0  0  0  0  0  0  0
    5.3794   14.9690    6.9735 H   0  0  0  0  0  0  0  0  0  0  0  0
    6.9411   14.9408   11.7091 B   0  0  0  0  0  0  0  0  0  0  0  0
    7.9797   15.4537   11.5570 H   0  0  0  0  0  0  0  0  0  0  0  0
    6.6338   15.0219   12.7876 H   0  0  0  0  0  0  0  0  0  0  0  0
    6.1190   15.2696   10.9819 H   0  0  0  0  0  0  0  0  0  0  0  0
    6.6961    8.7331   11.9353 B   0  0  0  0  0  0  0  0  0  0  0  0
    5.9358    9.1960   12.4935 H   0  0  0  0  0  0  0  0  0  0  0  0
    6.7902    7.6062   12.0515 H   0  0  0  0  0  0  0  0  0  0  0  0
    6.5712    9.0648   10.8639 H   0  0  0  0  0  0  0  0  0  0  0  0
   10.9569   11.7935   15.3305 B   0  0  0  0  0  0  0  0  0  0  0  0
   11.6745   12.4498   15.8501 H   0  0  0  0  0  0  0  0  0  0  0  0
   10.0853   11.4654   15.8913 H   0  0  0  0  0  0  0  0  0  0  0  0
   11.5065   10.9446   14.8573 H   0  0  0  0  0  0  0  0  0  0  0  0
    6.8206   17.1790   10.5230 Li  0  0  0  0  0  0  0  0  0  0  0  0
    8.5132   17.8374    9.7401 O   0  0  0  0  0  0  0  0  0  0  0  0
    6.6064   18.2904   12.0927 O   0  0  0  0  0  0  0  0  0  0  0  0
    8.4524   19.2579    9.5340 C   0  0  0  0  0  0  0  0  0  0  0  0
    7.7618   19.6516   10.1222 H   0  0  0  0  0  0  0  0  0  0  0  0
    8.1978   19.4400    8.5956 H   0  0  0  0  0  0  0  0  0  0  0  0
    9.7714   19.8972    9.8225 C   0  0  0  0  0  0  0  0  0  0  0  0
    9.8093   20.2444   10.7478 H   0  0  0  0  0  0  0  0  0  0  0  0
    9.9613   20.6339    9.1894 H   0  0  0  0  0  0  0  0  0  0  0  0
   10.7310   18.7392    9.6258 C   0  0  0  0  0  0  0  0  0  0  0  0
   10.9800   18.6313    8.6743 H   0  0  0  0  0  0  0  0  0  0  0  0
   11.5505   18.8514   10.1709 H   0  0  0  0  0  0  0  0  0  0  0  0
    9.8905   17.5792   10.1166 C   0  0  0  0  0  0  0  0  0  0  0  0
   10.2016   16.7345    9.7045 H   0  0  0  0  0  0  0  0  0  0  0  0
    9.9694   17.4924   11.0999 H   0  0  0  0  0  0  0  0  0  0  0  0
    5.3415   18.3116   12.6827 C   0  0  0  0  0  0  0  0  0  0  0  0
    5.0297   17.4034   12.8962 H   0  0  0  0  0  0  0  0  0  0  0  0
    4.6784   18.7541   12.0908 H   0  0  0  0  0  0  0  0  0  0  0  0
    5.5659   19.1161   13.9208 C   0  0  0  0  0  0  0  0  0  0  0  0
    5.3533   18.5593   14.7112 H   0  0  0  0  0  0  0  0  0  0  0  0
    4.9562   19.8951   13.9227 H   0  0  0  0  0  0  0  0  0  0  0  0
    6.9772   19.5945   14.0182 C   0  0  0  0  0  0  0  0  0  0  0  0
    7.3131   19.6220   14.9491 H   0  0  0  0  0  0  0  0  0  0  0  0
    7.1215   20.4667   13.5724 H   0  0  0  0  0  0  0  0  0  0  0  0
    7.5488   18.3899   13.1997 C   0  0  0  0  0  0  0  0  0  0  0  0
    8.4655   18.5762   12.8756 H   0  0  0  0  0  0  0  0  0  0  0  0
    7.5563   17.5601   13.7372 H   0  0  0  0  0  0  0  0  0  0  0  0
  1  2  1  0  0  0  0
  2  7  1  0  0  0  0
  3  1  1  0  0  0  0
  4  1  1  0  0  0  0
  5  6  2  0  0  0  0
  6109  1  0  0  0  0
  7  8  1  0  0  0  0
  9  7  1  0  0  0  0
 10  9  1  0  0  0  0
 11  9  1  0  0  0  0
 12  9  1  0  0  0  0
 13  7  1  0  0  0  0
 14 13  1  0  0  0  0
 15 13  1  0  0  0  0
 16 13  1  0  0  0  0
 17  2  1  0  0  0  0
 18 17  1  0  0  0  0
 19 17  1  0  0  0  0
 20 19  1  0  0  0  0
 21 19  1  0  0  0  0
 22 19  1  0  0  0  0
 23 17  1  0  0  0  0
 24 23  1  0  0  0  0
 25 23  1  0  0  0  0
 26 23  1  0  0  0  0
 27  3  1  0  0  0  0
 28 27  1  0  0  0  0
 29 27  1  0  0  0  0
 30 29  1  0  0  0  0
 31 29  1  0  0  0  0
 32 29  1  0  0  0  0
 33 27  1  0  0  0  0
 34 33  1  0  0  0  0
 35 33  1  0  0  0  0
 36 33  1  0  0  0  0
 37  3  1  0  0  0  0
 38 37  1  0  0  0  0
 39 37  1  0  0  0  0
 40 39  1  0  0  0  0
 41 39  1  0  0  0  0
 42 39  1  0  0  0  0
 43 37  1  0  0  0  0
 44 43  1  0  0  0  0
 45 43  1  0  0  0  0
 46 43  1  0  0  0  0
 47  4  1  0  0  0  0
 48 47  1  0  0  0  0
 49 47  1  0  0  0  0
 50 49  1  0  0  0  0
 51 49  1  0  0  0  0
 52 49  1  0  0  0  0
 53 47  1  0  0  0  0
 54 53  1  0  0  0  0
 55 53  1  0  0  0  0
 56 53  1  0  0  0  0
 57  4  1  0  0  0  0
 58 57  1  0  0  0  0
 59 57  1  0  0  0  0
 60 59  1  0  0  0  0
 61 59  1  0  0  0  0
 62 59  1  0  0  0  0
 63 57  1  0  0  0  0
 64 63  1  0  0  0  0
 65 63  1  0  0  0  0
 66 63  1  0  0  0  0
 67  5  1  0  0  0  0
 68 67  1  0  0  0  0
 69 67  1  0  0  0  0
 70 69  1  0  0  0  0
 71 69  1  0  0  0  0
 72 69  1  0  0  0  0
 73 67  1  0  0  0  0
 74 73  1  0  0  0  0
 75 73  1  0  0  0  0
 76 73  1  0  0  0  0
 77  5  1  0  0  0  0
 78 77  1  0  0  0  0
 79 77  1  0  0  0  0
 80 79  1  0  0  0  0
 81 79  1  0  0  0  0
 82 79  1  0  0  0  0
 83 77  1  0  0  0  0
 84 83  1  0  0  0  0
 85 83  1  0  0  0  0
 86 83  1  0  0  0  0
 87  5  1  0  0  0  0
 88 87  1  0  0  0  0
 89 87  1  0  0  0  0
 90 89  1  0  0  0  0
 91 89  1  0  0  0  0
 92 89  1  0  0  0  0
 93 87  1  0  0  0  0
 94 93  1  0  0  0  0
 95 93  1  0  0  0  0
 96 93  1  0  0  0  0
 97  2  1  0  0  0  0
 98 97  1  0  0  0  0
 99 97  1  0  0  0  0
100 97  1  0  0  0  0
101  3  1  0  0  0  0
102101  1  0  0  0  0
103101  1  0  0  0  0
104101  1  0  0  0  0
105  4  1  0  0  0  0
106105  1  0  0  0  0
107105  1  0  0  0  0
108105  1  0  0  0  0
109100  1  0  0  0  0
110109  1  0  0  0  0
111109  1  0  0  0  0
112110  1  0  0  0  0
113112  1  0  0  0  0
114112  1  0  0  0  0
115112  1  0  0  0  0
116115  1  0  0  0  0
117115  1  0  0  0  0
118115  1  0  0  0  0
119118  1  0  0  0  0
120118  1  0  0  0  0
121110  1  0  0  0  0
122121  1  0  0  0  0
123121  1  0  0  0  0
124111  1  0  0  0  0
125124  1  0  0  0  0
126124  1  0  0  0  0
127124  1  0  0  0  0
128127  1  0  0  0  0
129127  1  0  0  0  0
130127  1  0  0  0  0
131130  1  0  0  0  0
132130  1  0  0  0  0
133111  1  0  0  0  0
134133  1  0  0  0  0
135133  1  0  0  0  0
118121  1  0  0  0  0
130133  1  0  0  0  0
M  END
$$$$
ROSNIZ

From CSD data. Using bond type 'Any'. No disordered atoms. Largest molecule.
 89 95  0  0  0  0  0  0  0  0999 V2000
   -0.5197    7.6958   11.2534 Au  0  3  0  0  0  0  0  0  0  0  0  0
   -0.7632    5.2998   12.3151 B   0  0  0  0  0  0  0  0  0  0  0  0
    0.6886    5.0697   11.7900 C   0  0  0  0  0  0  0  0  0  0  0  0
    0.9231    4.3141   10.6186 C   0  0  0  0  0  0  0  0  0  0  0  0
    0.1908    3.9037   10.1741 H   0  0  0  0  0  0  0  0  0  0  0  0
    2.2018    4.1613   10.1081 C   0  0  0  0  0  0  0  0  0  0  0  0
    2.3399    3.6817    9.2988 H   0  0  0  0  0  0  0  0  0  0  0  0
    3.2810    4.7124   10.7859 C   0  0  0  0  0  0  0  0  0  0  0  0
    4.1611    4.6046   10.4438 H   0  0  0  0  0  0  0  0  0  0  0  0
    3.0770    5.4198   11.9619 C   0  0  0  0  0  0  0  0  0  0  0  0
    3.8283    5.7611   12.4318 H   0  0  0  0  0  0  0  0  0  0  0  0
    1.7914    5.6450   12.4751 C   0  0  0  0  0  0  0  0  0  0  0  0
    1.6159    6.4813   13.8442 B   0  5  0  0  0  0  0  0  0  0  0  0
    0.0801    6.8253   14.2199 C   0  0  0  0  0  0  0  0  0  0  0  0
   -0.2038    7.7090   15.2685 C   0  0  0  0  0  0  0  0  0  0  0  0
    0.5135    8.1695   15.6875 H   0  0  0  0  0  0  0  0  0  0  0  0
   -1.4964    7.9347   15.7163 C   0  0  0  0  0  0  0  0  0  0  0  0
   -1.6563    8.5589   16.4143 H   0  0  0  0  0  0  0  0  0  0  0  0
   -2.5625    7.2412   15.1367 C   0  0  0  0  0  0  0  0  0  0  0  0
   -3.4465    7.3634   15.4598 H   0  0  0  0  0  0  0  0  0  0  0  0
   -2.3179    6.3738   14.0870 C   0  0  0  0  0  0  0  0  0  0  0  0
   -3.0452    5.9091   13.6899 H   0  0  0  0  0  0  0  0  0  0  0  0
   -1.0101    6.1639   13.5920 C   0  0  0  0  0  0  0  0  0  0  0  0
   -1.9685    4.5614   11.6056 C   0  0  0  0  0  0  0  0  0  0  0  0
   -2.6701    5.1024   10.5144 C   0  0  0  0  0  0  0  0  0  0  0  0
   -3.7190    4.3924    9.9070 C   0  0  0  0  0  0  0  0  0  0  0  0
   -4.1910    4.7740    9.1761 H   0  0  0  0  0  0  0  0  0  0  0  0
   -4.0651    3.1368   10.3739 C   0  0  0  0  0  0  0  0  0  0  0  0
   -4.7579    2.6459    9.9464 H   0  0  0  0  0  0  0  0  0  0  0  0
   -3.4023    2.5932   11.4648 C   0  0  0  0  0  0  0  0  0  0  0  0
   -3.6566    1.7406   11.7988 H   0  0  0  0  0  0  0  0  0  0  0  0
   -2.3683    3.2939   12.0667 C   0  0  0  0  0  0  0  0  0  0  0  0
   -1.9186    2.9088   12.8097 H   0  0  0  0  0  0  0  0  0  0  0  0
   -2.2400    6.7883    9.9897 P   0  0  0  0  0  0  0  0  0  0  0  0
   -1.7365    6.8014    8.2105 C   0  0  0  0  0  0  0  0  0  0  0  0
   -1.7710    7.7567    7.9164 H   0  0  0  0  0  0  0  0  0  0  0  0
   -0.2868    6.3489    8.0340 C   0  0  0  0  0  0  0  0  0  0  0  0
   -0.2064    5.4048    8.2847 H   0  0  0  0  0  0  0  0  0  0  0  0
    0.2963    6.8903    8.6060 H   0  0  0  0  0  0  0  0  0  0  0  0
   -0.0208    6.4620    7.0977 H   0  0  0  0  0  0  0  0  0  0  0  0
   -2.6475    6.0280    7.2630 C   0  0  0  0  0  0  0  0  0  0  0  0
   -2.3645    6.1836    6.3386 H   0  0  0  0  0  0  0  0  0  0  0  0
   -3.5723    6.3335    7.3771 H   0  0  0  0  0  0  0  0  0  0  0  0
   -2.5924    5.0699    7.4659 H   0  0  0  0  0  0  0  0  0  0  0  0
   -3.8472    7.6972   10.0853 C   0  0  0  0  0  0  0  0  0  0  0  0
   -4.5425    7.1473    9.6218 H   0  0  0  0  0  0  0  0  0  0  0  0
   -4.2566    7.8410   11.5533 C   0  0  0  0  0  0  0  0  0  0  0  0
   -3.5534    8.3155   12.0426 H   0  0  0  0  0  0  0  0  0  0  0  0
   -4.3837    6.9526   11.9457 H   0  0  0  0  0  0  0  0  0  0  0  0
   -5.0938    8.3467   11.6114 H   0  0  0  0  0  0  0  0  0  0  0  0
   -3.7878    9.0626    9.4027 C   0  0  0  0  0  0  0  0  0  0  0  0
   -4.6417    9.5265    9.5282 H   0  0  0  0  0  0  0  0  0  0  0  0
   -3.6181    8.9424    8.4445 H   0  0  0  0  0  0  0  0  0  0  0  0
   -3.0652    9.5947    9.7979 H   0  0  0  0  0  0  0  0  0  0  0  0
    2.5789    7.7943   13.8933 C   0  0  0  0  0  0  0  0  0  0  0  0
    2.4200    8.9773   13.1309 C   0  0  0  0  0  0  0  0  0  0  0  0
    3.2684   10.0818   13.3423 C   0  0  0  0  0  0  0  0  0  0  0  0
    3.1221   10.8797   12.8485 H   0  0  0  0  0  0  0  0  0  0  0  0
    4.3112   10.0323   14.2546 C   0  0  0  0  0  0  0  0  0  0  0  0
    4.8738   10.7862   14.3891 H   0  0  0  0  0  0  0  0  0  0  0  0
    4.5161    8.8616   14.9666 C   0  0  0  0  0  0  0  0  0  0  0  0
    5.2437    8.7964   15.5745 H   0  0  0  0  0  0  0  0  0  0  0  0
    3.6628    7.7867   14.7929 C   0  0  0  0  0  0  0  0  0  0  0  0
    3.8160    7.0033   15.3064 H   0  0  0  0  0  0  0  0  0  0  0  0
    1.1770    9.2144   11.8005 P   0  0  0  0  0  0  0  0  0  0  0  0
    0.3866   10.8339   12.1834 C   0  0  0  0  0  0  0  0  0  0  0  0
    1.1096   11.5027   12.3624 H   0  0  0  0  0  0  0  0  0  0  0  0
   -0.4526   10.6822   13.4536 C   0  0  0  0  0  0  0  0  0  0  0  0
   -0.8201   11.5533   13.7076 H   0  0  0  0  0  0  0  0  0  0  0  0
    0.1117   10.3423   14.1792 H   0  0  0  0  0  0  0  0  0  0  0  0
   -1.1864   10.0542   13.2877 H   0  0  0  0  0  0  0  0  0  0  0  0
   -0.4597   11.3425   11.0175 C   0  0  0  0  0  0  0  0  0  0  0  0
   -1.1328   10.6694   10.7846 H   0  0  0  0  0  0  0  0  0  0  0  0
    0.1173   11.5085   10.2436 H   0  0  0  0  0  0  0  0  0  0  0  0
   -0.9065   12.1764   11.2771 H   0  0  0  0  0  0  0  0  0  0  0  0
    2.1300    9.4481   10.2237 C   0  0  0  0  0  0  0  0  0  0  0  0
    1.4527    9.5810    9.5007 H   0  0  0  0  0  0  0  0  0  0  0  0
    2.8786    8.1613    9.8846 C   0  0  0  0  0  0  0  0  0  0  0  0
    3.3317    8.2649    9.0211 H   0  0  0  0  0  0  0  0  0  0  0  0
    2.2427    7.4180    9.8334 H   0  0  0  0  0  0  0  0  0  0  0  0
    3.5423    7.9767   10.5811 H   0  0  0  0  0  0  0  0  0  0  0  0
    3.0714   10.6552   10.1620 C   0  0  0  0  0  0  0  0  0  0  0  0
    3.8380   10.5020   10.7523 H   0  0  0  0  0  0  0  0  0  0  0  0
    2.5912   11.4599   10.4519 H   0  0  0  0  0  0  0  0  0  0  0  0
    3.3873   10.7765    9.2423 H   0  0  0  0  0  0  0  0  0  0  0  0
    2.1564    5.5609   15.0001 O   0  0  0  0  0  0  0  0  0  0  0  0
    1.6654    4.3793   15.1955 C   0  0  0  0  0  0  0  0  0  0  0  0
    0.8997    4.1315   14.6911 H   0  0  0  0  0  0  0  0  0  0  0  0
    2.1126    3.5655   15.9773 O   0  0  0  0  0  0  0  0  0  0  0  0
  1  2  1  0  0  0  0
  2  3  1  0  0  0  0
  3  4  4  0  0  0  0
  4  5  1  0  0  0  0
  6  4  4  0  0  0  0
  7  6  1  0  0  0  0
  8  6  4  0  0  0  0
  9  8  1  0  0  0  0
 10  8  4  0  0  0  0
 11 10  1  0  0  0  0
 12  3  4  0  0  0  0
 13 12  1  0  0  0  0
 14 13  1  0  0  0  0
 15 14  4  0  0  0  0
 16 15  1  0  0  0  0
 17 15  4  0  0  0  0
 18 17  1  0  0  0  0
 19 17  4  0  0  0  0
 20 19  1  0  0  0  0
 21 19  4  0  0  0  0
 22 21  1  0  0  0  0
 23  2  1  0  0  0  0
 24  2  1  0  0  0  0
 25 24  4  0  0  0  0
 26 25  4  0  0  0  0
 27 26  1  0  0  0  0
 28 26  4  0  0  0  0
 29 28  1  0  0  0  0
 30 28  4  0  0  0  0
 31 30  1  0  0  0  0
 32 24  4  0  0  0  0
 33 32  1  0  0  0  0
 34  1  1  0  0  0  0
 35 34  1  0  0  0  0
 36 35  1  0  0  0  0
 37 35  1  0  0  0  0
 38 37  1  0  0  0  0
 39 37  1  0  0  0  0
 40 37  1  0  0  0  0
 41 35  1  0  0  0  0
 42 41  1  0  0  0  0
 43 41  1  0  0  0  0
 44 41  1  0  0  0  0
 45 34  1  0  0  0  0
 46 45  1  0  0  0  0
 47 45  1  0  0  0  0
 48 47  1  0  0  0  0
 49 47  1  0  0  0  0
 50 47  1  0  0  0  0
 51 45  1  0  0  0  0
 52 51  1  0  0  0  0
 53 51  1  0  0  0  0
 54 51  1  0  0  0  0
 55 13  1  0  0  0  0
 56 55  4  0  0  0  0
 57 56  4  0  0  0  0
 58 57  1  0  0  0  0
 59 57  4  0  0  0  0
 60 59  1  0  0  0  0
 61 59  4  0  0  0  0
 62 61  1  0  0  0  0
 63 55  4  0  0  0  0
 64 63  1  0  0  0  0
 65  1  1  0  0  0  0
 66 65  1  0  0  0  0
 67 66  1  0  0  0  0
 68 66  1  0  0  0  0
 69 68  1  0  0  0  0
 70 68  1  0  0  0  0
 71 68  1  0  0  0  0
 72 66  1  0  0  0  0
 73 72  1  0  0  0  0
 74 72  1  0  0  0  0
 75 72  1  0  0  0  0
 76 65  1  0  0  0  0
 77 76  1  0  0  0  0
 78 76  1  0  0  0  0
 79 78  1  0  0  0  0
 80 78  1  0  0  0  0
 81 78  1  0  0  0  0
 82 76  1  0  0  0  0
 83 82  1  0  0  0  0
 84 82  1  0  0  0  0
 85 82  1  0  0  0  0
 86 13  1  0  0  0  0
 87 86  1  0  0  0  0
 88 87  1  0  0  0  0
 89 87  2  0  0  0  0
 10 12  4  0  0  0  0
 14 23  4  0  0  0  0
 21 23  4  0  0  0  0
 25 34  1  0  0  0  0
 30 32  4  0  0  0  0
 56 65  1  0  0  0  0
 61 63  4  0  0  0  0
M  CHG  2   1   1  13  -1
M  END
$$$$
ROSPAT

From CSD data. Using bond type 'Any'. No disordered atoms. Largest molecule.
117123  0  0  0  0  0  0  0  0999 V2000
    1.9879   14.4668   16.8218 Au  0  0  0  0  0  0  0  0  0  0  0  0
   -1.4957   15.6198   14.6640 C   0  0  0  0  0  0  0  0  0  0  0  0
   -2.3812   15.4229   14.9495 H   0  0  0  0  0  0  0  0  0  0  0  0
   -1.2120   16.8979   14.1905 C   0  0  0  0  0  0  0  0  0  0  0  0
   -1.8999   17.5533   14.1558 H   0  0  0  0  0  0  0  0  0  0  0  0
    0.0716   17.2181   13.7695 C   0  0  0  0  0  0  0  0  0  0  0  0
    0.2707   18.0915   13.4565 H   0  0  0  0  0  0  0  0  0  0  0  0
    1.0526   16.2506   13.8129 C   0  0  0  0  0  0  0  0  0  0  0  0
    1.9303   16.4660   13.5200 H   0  0  0  0  0  0  0  0  0  0  0  0
    0.7806   14.9414   14.2841 C   0  0  0  0  0  0  0  0  0  0  0  0
    2.6666   11.4627   14.8227 C   0  0  0  0  0  0  0  0  0  0  0  0
    3.4983   11.6669   14.4120 H   0  0  0  0  0  0  0  0  0  0  0  0
    2.4871   10.2210   15.3905 C   0  0  0  0  0  0  0  0  0  0  0  0
    3.1898    9.5806   15.3849 H   0  0  0  0  0  0  0  0  0  0  0  0
    1.2618    9.9211   15.9709 C   0  0  0  0  0  0  0  0  0  0  0  0
    1.1257    9.0689   16.3693 H   0  0  0  0  0  0  0  0  0  0  0  0
    0.2338   10.8511   15.9750 C   0  0  0  0  0  0  0  0  0  0  0  0
   -0.5966   10.6193   16.3712 H   0  0  0  0  0  0  0  0  0  0  0  0
    0.3848   12.1283   15.4088 C   0  0  0  0  0  0  0  0  0  0  0  0
   -0.9196   13.1014   15.2302 B   0  0  0  0  0  0  0  0  0  0  0  0
   -0.5202   14.6104   14.7349 C   0  0  0  0  0  0  0  0  0  0  0  0
    1.9071   13.8590   14.2762 B   0  0  0  0  0  0  0  0  0  0  0  0
    1.6449   12.4402   14.8366 C   0  0  0  0  0  0  0  0  0  0  0  0
    0.0793   14.5918   18.1706 P   0  0  0  0  0  0  0  0  0  0  0  0
   -1.4059   13.5504   17.9053 C   0  0  0  0  0  0  0  0  0  0  0  0
   -1.8130   13.1016   16.6263 C   0  0  0  0  0  0  0  0  0  0  0  0
   -3.0845   12.4988   16.5735 C   0  0  0  0  0  0  0  0  0  0  0  0
   -3.4125   12.2139   15.7297 H   0  0  0  0  0  0  0  0  0  0  0  0
   -3.8874   12.2997   17.6930 C   0  0  0  0  0  0  0  0  0  0  0  0
   -4.7446   11.9007   17.5984 H   0  0  0  0  0  0  0  0  0  0  0  0
   -3.4362   12.6801   18.9365 C   0  0  0  0  0  0  0  0  0  0  0  0
   -3.9568   12.5138   19.7137 H   0  0  0  0  0  0  0  0  0  0  0  0
   -2.2112   13.3093   19.0336 C   0  0  0  0  0  0  0  0  0  0  0  0
   -1.9022   13.5879   19.8871 H   0  0  0  0  0  0  0  0  0  0  0  0
    0.6227   14.2612   19.9061 C   0  0  0  0  0  0  0  0  0  0  0  0
   -0.1476   14.4370   20.5170 H   0  0  0  0  0  0  0  0  0  0  0  0
    1.7825   15.1710   20.3153 C   0  0  0  0  0  0  0  0  0  0  0  0
    2.0823   14.9332   21.2183 H   0  0  0  0  0  0  0  0  0  0  0  0
    1.4838   16.1043   20.3051 H   0  0  0  0  0  0  0  0  0  0  0  0
    2.5252   15.0589   19.6848 H   0  0  0  0  0  0  0  0  0  0  0  0
    1.0164   12.7904   20.0385 C   0  0  0  0  0  0  0  0  0  0  0  0
    1.7594   12.5954   19.4286 H   0  0  0  0  0  0  0  0  0  0  0  0
    0.2494   12.2249   19.8119 H   0  0  0  0  0  0  0  0  0  0  0  0
    1.2937   12.6087   20.9601 H   0  0  0  0  0  0  0  0  0  0  0  0
   -0.6606   16.2938   18.1072 C   0  0  0  0  0  0  0  0  0  0  0  0
   -1.2937   16.2830   17.3326 H   0  0  0  0  0  0  0  0  0  0  0  0
   -1.5148   16.6348   19.3313 C   0  0  0  0  0  0  0  0  0  0  0  0
   -0.9389   16.7042   20.1221 H   0  0  0  0  0  0  0  0  0  0  0  0
   -2.1793   15.9279   19.4729 H   0  0  0  0  0  0  0  0  0  0  0  0
   -1.9731   17.4894   19.1839 H   0  0  0  0  0  0  0  0  0  0  0  0
    0.3478   17.3906   17.7945 C   0  0  0  0  0  0  0  0  0  0  0  0
   -0.1220   18.2436   17.6870 H   0  0  0  0  0  0  0  0  0  0  0  0
    0.8220   17.1718   16.9665 H   0  0  0  0  0  0  0  0  0  0  0  0
    0.9905   17.4629   18.5308 H   0  0  0  0  0  0  0  0  0  0  0  0
   -1.7492   12.4479   14.1799 O   0  0  0  0  0  0  0  0  0  0  0  0
   -2.2679   12.0690   12.7175 Si  0  0  0  0  0  0  0  0  0  0  0  0
   -3.2626   13.5508   12.0763 C   0  0  0  0  0  0  0  0  0  0  0  0
   -2.6503   14.3400   12.1368 H   0  0  0  0  0  0  0  0  0  0  0  0
   -3.7195   13.4823   10.6220 C   0  0  0  0  0  0  0  0  0  0  0  0
   -4.4003   12.7829   10.5263 H   0  0  0  0  0  0  0  0  0  0  0  0
   -2.9528   13.2725   10.0485 H   0  0  0  0  0  0  0  0  0  0  0  0
   -4.0995   14.3466   10.3568 H   0  0  0  0  0  0  0  0  0  0  0  0
   -4.4489   13.8702   12.9787 C   0  0  0  0  0  0  0  0  0  0  0  0
   -4.8466   14.7237   12.7051 H   0  0  0  0  0  0  0  0  0  0  0  0
   -4.1439   13.9364   13.9073 H   0  0  0  0  0  0  0  0  0  0  0  0
   -5.1175   13.1578   12.9036 H   0  0  0  0  0  0  0  0  0  0  0  0
   -0.8904   11.7033   11.4772 C   0  0  0  0  0  0  0  0  0  0  0  0
   -1.3346   11.4310   10.6226 H   0  0  0  0  0  0  0  0  0  0  0  0
   -0.0484   12.9338   11.1642 C   0  0  0  0  0  0  0  0  0  0  0  0
    0.3758   13.2571   11.9866 H   0  0  0  0  0  0  0  0  0  0  0  0
   -0.6212   13.6364   10.7941 H   0  0  0  0  0  0  0  0  0  0  0  0
    0.6425   12.6991   10.5109 H   0  0  0  0  0  0  0  0  0  0  0  0
    0.0272   10.5419   11.8949 C   0  0  0  0  0  0  0  0  0  0  0  0
    0.7276   10.4208   11.2218 H   0  0  0  0  0  0  0  0  0  0  0  0
   -0.5011    9.7195   11.9692 H   0  0  0  0  0  0  0  0  0  0  0  0
    0.4376   10.7450   12.7610 H   0  0  0  0  0  0  0  0  0  0  0  0
   -3.3848   10.5399   12.8562 C   0  0  0  0  0  0  0  0  0  0  0  0
   -4.2683   10.8641   13.1964 H   0  0  0  0  0  0  0  0  0  0  0  0
   -2.8776    9.5065   13.8728 C   0  0  0  0  0  0  0  0  0  0  0  0
   -3.5466    8.7998   13.9805 H   0  0  0  0  0  0  0  0  0  0  0  0
   -2.7224    9.9445   14.7357 H   0  0  0  0  0  0  0  0  0  0  0  0
   -2.0389    9.1152   13.5509 H   0  0  0  0  0  0  0  0  0  0  0  0
   -3.6626    9.8494   11.5078 C   0  0  0  0  0  0  0  0  0  0  0  0
   -2.8277    9.4813   11.1505 H   0  0  0  0  0  0  0  0  0  0  0  0
   -4.0274   10.5024   10.8750 H   0  0  0  0  0  0  0  0  0  0  0  0
   -4.3088    9.1240   11.6398 H   0  0  0  0  0  0  0  0  0  0  0  0
    4.2004   14.6800   16.1561 P   0  0  0  0  0  0  0  0  0  0  0  0
    4.3690   14.7283   14.3479 C   0  0  0  0  0  0  0  0  0  0  0  0
    3.2923   14.2418   13.6002 C   0  0  0  0  0  0  0  0  0  0  0  0
    3.4398   14.1966   12.2075 C   0  0  0  0  0  0  0  0  0  0  0  0
    2.7314   13.8481   11.6783 H   0  0  0  0  0  0  0  0  0  0  0  0
    4.5953   14.6476   11.5816 C   0  0  0  0  0  0  0  0  0  0  0  0
    4.6758   14.5958   10.6361 H   0  0  0  0  0  0  0  0  0  0  0  0
    5.6282   15.1734   12.3370 C   0  0  0  0  0  0  0  0  0  0  0  0
    6.4085   15.5067   11.9095 H   0  0  0  0  0  0  0  0  0  0  0  0
    5.5244   15.2120   13.7090 C   0  0  0  0  0  0  0  0  0  0  0  0
    6.2381   15.5662   14.2271 H   0  0  0  0  0  0  0  0  0  0  0  0
    5.2245   13.2121   16.6546 C   0  0  0  0  0  0  0  0  0  0  0  0
    5.0671   12.5227   15.9493 H   0  0  0  0  0  0  0  0  0  0  0  0
    4.7619   12.5822   17.9515 C   0  0  0  0  0  0  0  0  0  0  0  0
    5.2873   11.7728   18.1282 H   0  0  0  0  0  0  0  0  0  0  0  0
    3.8133   12.3462   17.8797 H   0  0  0  0  0  0  0  0  0  0  0  0
    4.8859   13.2196   18.6869 H   0  0  0  0  0  0  0  0  0  0  0  0
    6.7346   13.4926   16.6315 C   0  0  0  0  0  0  0  0  0  0  0  0
    6.9532   14.1547   17.3191 H   0  0  0  0  0  0  0  0  0  0  0  0
    6.9898   13.8393   15.7509 H   0  0  0  0  0  0  0  0  0  0  0  0
    7.2243   12.6616   16.8105 H   0  0  0  0  0  0  0  0  0  0  0  0
    5.0111   16.2228   16.7467 C   0  0  0  0  0  0  0  0  0  0  0  0
    5.9456   16.2367   16.3886 H   0  0  0  0  0  0  0  0  0  0  0  0
    5.0875   16.2748   18.2681 C   0  0  0  0  0  0  0  0  0  0  0  0
    5.6080   17.0593   18.5424 H   0  0  0  0  0  0  0  0  0  0  0  0
    5.5207   15.4626   18.6021 H   0  0  0  0  0  0  0  0  0  0  0  0
    4.1821   16.3381   18.6387 H   0  0  0  0  0  0  0  0  0  0  0  0
    4.2673   17.4276   16.1747 C   0  0  0  0  0  0  0  0  0  0  0  0
    3.3546   17.4453   16.5292 H   0  0  0  0  0  0  0  0  0  0  0  0
    4.2365   17.3593   15.1980 H   0  0  0  0  0  0  0  0  0  0  0  0
    4.7330   18.2503   16.4310 H   0  0  0  0  0  0  0  0  0  0  0  0
  1 22  1  0  0  0  0
  2  3  1  0  0  0  0
  4  2  4  0  0  0  0
  5  4  1  0  0  0  0
  6  4  4  0  0  0  0
  7  6  1  0  0  0  0
  8  6  4  0  0  0  0
  9  8  1  0  0  0  0
 10  8  4  0  0  0  0
 11 12  1  0  0  0  0
 13 11  4  0  0  0  0
 14 13  1  0  0  0  0
 15 13  4  0  0  0  0
 16 15  1  0  0  0  0
 17 15  4  0  0  0  0
 18 17  1  0  0  0  0
 19 17  4  0  0  0  0
 20 19  1  0  0  0  0
 21  2  4  0  0  0  0
 22 10  1  0  0  0  0
 23 11  4  0  0  0  0
 24  1  1  0  0  0  0
 25 24  1  0  0  0  0
 26 20  1  0  0  0  0
 27 26  4  0  0  0  0
 28 27  1  0  0  0  0
 29 27  4  0  0  0  0
 30 29  1  0  0  0  0
 31 29  4  0  0  0  0
 32 31  1  0  0  0  0
 33 25  4  0  0  0  0
 34 33  1  0  0  0  0
 35 24  1  0  0  0  0
 36 35  1  0  0  0  0
 37 35  1  0  0  0  0
 38 37  1  0  0  0  0
 39 37  1  0  0  0  0
 40 37  1  0  0  0  0
 41 35  1  0  0  0  0
 42 41  1  0  0  0  0
 43 41  1  0  0  0  0
 44 41  1  0  0  0  0
 45 24  1  0  0  0  0
 46 45  1  0  0  0  0
 47 45  1  0  0  0  0
 48 47  1  0  0  0  0
 49 47  1  0  0  0  0
 50 47  1  0  0  0  0
 51 45  1  0  0  0  0
 52 51  1  0  0  0  0
 53 51  1  0  0  0  0
 54 51  1  0  0  0  0
 55 20  1  0  0  0  0
 56 55  1  0  0  0  0
 57 56  1  0  0  0  0
 58 57  1  0  0  0  0
 59 57  1  0  0  0  0
 60 59  1  0  0  0  0
 61 59  1  0  0  0  0
 62 59  1  0  0  0  0
 63 57  1  0  0  0  0
 64 63  1  0  0  0  0
 65 63  1  0  0  0  0
 66 63  1  0  0  0  0
 67 56  1  0  0  0  0
 68 67  1  0  0  0  0
 69 67  1  0  0  0  0
 70 69  1  0  0  0  0
 71 69  1  0  0  0  0
 72 69  1  0  0  0  0
 73 67  1  0  0  0  0
 74 73  1  0  0  0  0
 75 73  1  0  0  0  0
 76 73  1  0  0  0  0
 77 56  1  0  0  0  0
 78 77  1  0  0  0  0
 79 77  1  0  0  0  0
 80 79  1  0  0  0  0
 81 79  1  0  0  0  0
 82 79  1  0  0  0  0
 83 77  1  0  0  0  0
 84 83  1  0  0  0  0
 85 83  1  0  0  0  0
 86 83  1  0  0  0  0
 87  1  1  0  0  0  0
 88 87  1  0  0  0  0
 89 22  1  0  0  0  0
 90 89  4  0  0  0  0
 91 90  1  0  0  0  0
 92 90  4  0  0  0  0
 93 92  1  0  0  0  0
 94 92  4  0  0  0  0
 95 94  1  0  0  0  0
 96 88  4  0  0  0  0
 97 96  1  0  0  0  0
 98 87  1  0  0  0  0
 99 98  1  0  0  0  0
100 98  1  0  0  0  0
101100  1  0  0  0  0
102100  1  0  0  0  0
103100  1  0  0  0  0
104 98  1  0  0  0  0
105104  1  0  0  0  0
106104  1  0  0  0  0
107104  1  0  0  0  0
108 87  1  0  0  0  0
109108  1  0  0  0  0
110108  1  0  0  0  0
111110  1  0  0  0  0
112110  1  0  0  0  0
113110  1  0  0  0  0
114108  1  0  0  0  0
115114  1  0  0  0  0
116114  1  0  0  0  0
117114  1  0  0  0  0
 10 21  4  0  0  0  0
 19 23  4  0  0  0  0
 20 21  1  0  0  0  0
 22 23  1  0  0  0  0
 25 26  4  0  0  0  0
 31 33  4  0  0  0  0
 88 89  4  0  0  0  0
 94 96  4  0  0  0  0
M  END
$$$$
ROWYIN

From CSD data. Using bond type 'Any'. No disordered atoms. Largest molecule.
 83 85  0  0  0  0  0  0  0  0999 V2000
   -0.2623    1.2851    9.5501 Os  0  0  0  0  0  0  0  0  0  0  0  0
    1.5248   -0.1788   10.1727 P   0  0  0  0  0  0  0  0  0  0  0  0
   -2.0169    2.7280    8.7843 P   0  0  0  0  0  0  0  0  0  0  0  0
    0.1270    3.2101   12.0306 O   0  0  0  0  0  0  0  0  0  0  0  0
   -1.3288    1.5108   12.4281 O   0  0  0  0  0  0  0  0  0  0  0  0
    1.7947    3.4388    9.1685 O   0  0  0  0  0  0  0  0  0  0  0  0
   -0.4619    2.0531   11.4594 B   0  0  0  0  0  0  0  0  0  0  0  0
   -1.3414   -0.5531    8.6499 B   0  0  0  0  0  0  0  0  0  0  0  0
   -1.3696   -0.0489    9.7262 H   0  0  0  0  0  0  0  0  0  0  0  0
   -0.5188    0.2345    8.0668 H   0  0  0  0  0  0  0  0  0  0  0  0
   -2.2862   -0.5668    8.0898 H   0  0  0  0  0  0  0  0  0  0  0  0
   -0.9049   -1.5831    8.6660 H   0  0  0  0  0  0  0  0  0  0  0  0
   -0.3889    3.3636   13.2918 C   0  0  0  0  0  0  0  0  0  0  0  0
   -0.1661    4.3701   14.2160 C   0  0  0  0  0  0  0  0  0  0  0  0
    0.4236    5.0932   14.0385 H   0  0  0  0  0  0  0  0  0  0  0  0
   -0.8532    4.2597   15.4145 C   0  0  0  0  0  0  0  0  0  0  0  0
   -0.7143    4.9222   16.0829 H   0  0  0  0  0  0  0  0  0  0  0  0
   -1.7132    3.2482   15.6749 C   0  0  0  0  0  0  0  0  0  0  0  0
   -2.1662    3.2189   16.5116 H   0  0  0  0  0  0  0  0  0  0  0  0
   -1.9468    2.2456   14.7276 C   0  0  0  0  0  0  0  0  0  0  0  0
   -2.5562    1.5362   14.9005 H   0  0  0  0  0  0  0  0  0  0  0  0
   -1.2697    2.3248   13.5430 C   0  0  0  0  0  0  0  0  0  0  0  0
   -1.8709    3.1603    6.9789 C   0  0  0  0  0  0  0  0  0  0  0  0
   -2.5167    3.9000    6.7945 H   0  0  0  0  0  0  0  0  0  0  0  0
   -2.2336    1.9994    6.0593 C   0  0  0  0  0  0  0  0  0  0  0  0
   -2.1099    2.2701    5.1259 H   0  0  0  0  0  0  0  0  0  0  0  0
   -3.1718    1.7502    6.2045 H   0  0  0  0  0  0  0  0  0  0  0  0
   -1.6591    1.2323    6.2575 H   0  0  0  0  0  0  0  0  0  0  0  0
   -0.4619    3.6880    6.6378 C   0  0  0  0  0  0  0  0  0  0  0  0
    0.2057    3.0020    6.8522 H   0  0  0  0  0  0  0  0  0  0  0  0
   -0.2782    4.4942    7.1656 H   0  0  0  0  0  0  0  0  0  0  0  0
   -0.4137    3.9040    5.6836 H   0  0  0  0  0  0  0  0  0  0  0  0
   -2.1285    4.3808    9.6479 C   0  0  0  0  0  0  0  0  0  0  0  0
   -2.3975    4.1698   10.5859 H   0  0  0  0  0  0  0  0  0  0  0  0
   -3.2248    5.2672    9.1109 C   0  0  0  0  0  0  0  0  0  0  0  0
   -4.0792    4.7913    9.1500 H   0  0  0  0  0  0  0  0  0  0  0  0
   -3.0246    5.5046    8.1797 H   0  0  0  0  0  0  0  0  0  0  0  0
   -3.2792    6.0831    9.6502 H   0  0  0  0  0  0  0  0  0  0  0  0
   -0.8832    5.1470    9.7677 C   0  0  0  0  0  0  0  0  0  0  0  0
   -0.9534    5.7704   10.5191 H   0  0  0  0  0  0  0  0  0  0  0  0
   -0.7261    5.6493    8.9403 H   0  0  0  0  0  0  0  0  0  0  0  0
   -0.1341    4.5323    9.9221 H   0  0  0  0  0  0  0  0  0  0  0  0
   -3.7064    1.8723    8.8896 C   0  0  0  0  0  0  0  0  0  0  0  0
   -3.5999    0.9762    8.4563 H   0  0  0  0  0  0  0  0  0  0  0  0
   -4.8876    2.6033    8.1313 C   0  0  0  0  0  0  0  0  0  0  0  0
   -5.5841    1.9525    7.9078 H   0  0  0  0  0  0  0  0  0  0  0  0
   -4.5457    3.0108    7.3085 H   0  0  0  0  0  0  0  0  0  0  0  0
   -5.2641    3.3000    8.7098 H   0  0  0  0  0  0  0  0  0  0  0  0
   -4.0952    1.6124   10.3554 C   0  0  0  0  0  0  0  0  0  0  0  0
   -4.7864    0.9176   10.3923 H   0  0  0  0  0  0  0  0  0  0  0  0
   -4.4421    2.4381   10.7519 H   0  0  0  0  0  0  0  0  0  0  0  0
   -3.3085    1.3153   10.8556 H   0  0  0  0  0  0  0  0  0  0  0  0
    2.5542   -0.7280    8.7098 C   0  0  0  0  0  0  0  0  0  0  0  0
    3.3666   -1.1814    9.0786 H   0  0  0  0  0  0  0  0  0  0  0  0
    3.0358    0.4798    7.9147 C   0  0  0  0  0  0  0  0  0  0  0  0
    3.6846    0.1886    7.2394 H   0  0  0  0  0  0  0  0  0  0  0  0
    3.4619    1.1209    8.5208 H   0  0  0  0  0  0  0  0  0  0  0  0
    2.2715    0.9059    7.4744 H   0  0  0  0  0  0  0  0  0  0  0  0
    1.8729   -1.7209    7.7718 C   0  0  0  0  0  0  0  0  0  0  0  0
    1.0904   -1.2987    7.3615 H   0  0  0  0  0  0  0  0  0  0  0  0
    1.5897   -2.5105    8.2788 H   0  0  0  0  0  0  0  0  0  0  0  0
    2.5036   -1.9916    7.0711 H   0  0  0  0  0  0  0  0  0  0  0  0
    2.8134    0.6645   11.2359 C   0  0  0  0  0  0  0  0  0  0  0  0
    2.8749    1.6065   10.9040 H   0  0  0  0  0  0  0  0  0  0  0  0
    4.2528    0.0948   11.1829 C   0  0  0  0  0  0  0  0  0  0  0  0
    4.8448    0.6489   11.7314 H   0  0  0  0  0  0  0  0  0  0  0  0
    4.5720    0.0987   10.2540 H   0  0  0  0  0  0  0  0  0  0  0  0
    4.2547   -0.8238   11.5240 H   0  0  0  0  0  0  0  0  0  0  0  0
    2.3808    0.7554   12.7132 C   0  0  0  0  0  0  0  0  0  0  0  0
    2.4600   -0.1270   13.1327 H   0  0  0  0  0  0  0  0  0  0  0  0
    1.4506    1.0593   12.7640 H   0  0  0  0  0  0  0  0  0  0  0  0
    2.9558    1.3925   13.1857 H   0  0  0  0  0  0  0  0  0  0  0  0
    1.0392   -1.7746   10.9639 C   0  0  0  0  0  0  0  0  0  0  0  0
    0.5645   -2.2867   10.2494 H   0  0  0  0  0  0  0  0  0  0  0  0
    2.1849   -2.6873   11.4180 C   0  0  0  0  0  0  0  0  0  0  0  0
    2.5631   -2.3443   12.2523 H   0  0  0  0  0  0  0  0  0  0  0  0
    2.8790   -2.7069   10.7265 H   0  0  0  0  0  0  0  0  0  0  0  0
    1.8411   -3.5942   11.5609 H   0  0  0  0  0  0  0  0  0  0  0  0
    0.0153   -1.6319   12.0956 C   0  0  0  0  0  0  0  0  0  0  0  0
   -0.3421   -2.5153   12.3260 H   0  0  0  0  0  0  0  0  0  0  0  0
   -0.7163   -1.0495   11.8029 H   0  0  0  0  0  0  0  0  0  0  0  0
    0.4491   -1.2401   12.8838 H   0  0  0  0  0  0  0  0  0  0  0  0
    1.0008    2.6258    9.3206 C   0  0  0  0  0  0  0  0  0  0  0  0
  1  2  1  0  0  0  0
  2 53  1  0  0  0  0
  3  1  1  0  0  0  0
  4  7  1  0  0  0  0
  5  7  1  0  0  0  0
  6 83  3  0  0  0  0
  7  1  1  0  0  0  0
  8  9  1  0  0  0  0
  9  1  1  0  0  0  0
 10  1  1  0  0  0  0
 11  8  1  0  0  0  0
 12  8  1  0  0  0  0
 13  4  1  0  0  0  0
 14 13  4  0  0  0  0
 15 14  1  0  0  0  0
 16 14  4  0  0  0  0
 17 16  1  0  0  0  0
 18 16  4  0  0  0  0
 19 18  1  0  0  0  0
 20 18  4  0  0  0  0
 21 20  1  0  0  0  0
 22  5  1  0  0  0  0
 23  3  1  0  0  0  0
 24 23  1  0  0  0  0
 25 23  1  0  0  0  0
 26 25  1  0  0  0  0
 27 25  1  0  0  0  0
 28 25  1  0  0  0  0
 29 23  1  0  0  0  0
 30 29  1  0  0  0  0
 31 29  1  0  0  0  0
 32 29  1  0  0  0  0
 33  3  1  0  0  0  0
 34 33  1  0  0  0  0
 35 33  1  0  0  0  0
 36 35  1  0  0  0  0
 37 35  1  0  0  0  0
 38 35  1  0  0  0  0
 39 33  1  0  0  0  0
 40 39  1  0  0  0  0
 41 39  1  0  0  0  0
 42 39  1  0  0  0  0
 43  3  1  0  0  0  0
 44 43  1  0  0  0  0
 45 43  1  0  0  0  0
 46 45  1  0  0  0  0
 47 45  1  0  0  0  0
 48 45  1  0  0  0  0
 49 43  1  0  0  0  0
 50 49  1  0  0  0  0
 51 49  1  0  0  0  0
 52 49  1  0  0  0  0
 53 54  1  0  0  0  0
 55 53  1  0  0  0  0
 56 55  1  0  0  0  0
 57 55  1  0  0  0  0
 58 55  1  0  0  0  0
 59 53  1  0  0  0  0
 60 59  1  0  0  0  0
 61 59  1  0  0  0  0
 62 59  1  0  0  0  0
 63  2  1  0  0  0  0
 64 63  1  0  0  0  0
 65 63  1  0  0  0  0
 66 65  1  0  0  0  0
 67 65  1  0  0  0  0
 68 65  1  0  0  0  0
 69 63  1  0  0  0  0
 70 69  1  0  0  0  0
 71 69  1  0  0  0  0
 72 69  1  0  0  0  0
 73  2  1  0  0  0  0
 74 73  1  0  0  0  0
 75 73  1  0  0  0  0
 76 75  1  0  0  0  0
 77 75  1  0  0  0  0
 78 75  1  0  0  0  0
 79 73  1  0  0  0  0
 80 79  1  0  0  0  0
 81 79  1  0  0  0  0
 82 79  1  0  0  0  0
 83  1  1  0  0  0  0
  8 10  1  0  0  0  0
 13 22  4  0  0  0  0
 20 22  4  0  0  0  0
M  END
$$$$
ROZDUH

From CSD data. Using bond type 'Any'. No disordered atoms. Largest molecule.
220231  0  0  0  0  0  0  0  0999 V2000
   14.7886    7.7675   17.3885 Pt  0  0  0  0  0  0  0  0  0  0  0  0
   14.6034    9.3792   19.0751 P   0  0  0  0  0  0  0  0  0  0  0  0
   14.6382    6.2898   15.5816 P   0  0  0  0  0  0  0  0  0  0  0  0
   15.3276    5.8982   18.9886 Br  0  0  0  0  0  0  0  0  0  0  0  0
   14.1785   10.0985   15.3678 O   0  0  0  0  0  0  0  0  0  0  0  0
   14.4085    9.1998   16.1397 B   0  0  0  0  0  0  0  0  0  0  0  0
   12.8149   15.6389   10.3561 Pt  0  0  0  0  0  0  0  0  0  0  0  0
   12.6669   17.1328   12.1585 P   0  0  0  0  0  0  0  0  0  0  0  0
   12.6623   13.9706    8.7189 P   0  0  0  0  0  0  0  0  0  0  0  0
   12.4984   17.4804    8.6444 Br  0  0  0  0  0  0  0  0  0  0  0  0
   13.1758   13.3707   12.4980 O   0  0  0  0  0  0  0  0  0  0  0  0
   13.0503   14.2392   11.6666 B   0  0  0  0  0  0  0  0  0  0  0  0
   13.6951   11.7576   13.9424 In  0  0  0  0  0  0  0  0  0  0  0  0
   12.4272   12.9655   15.7229 Br  0  0  0  0  0  0  0  0  0  0  0  0
   12.4660   10.1365   12.4972 Br  0  0  0  0  0  0  0  0  0  0  0  0
   16.1180   12.2067   13.5875 Br  0  0  0  0  0  0  0  0  0  0  0  0
   12.8583    5.8447   15.3606 C   0  0  0  0  0  0  0  0  0  0  0  0
   12.7968    5.2242   14.5795 H   0  0  0  0  0  0  0  0  0  0  0  0
   11.9649    7.0532   15.0653 C   0  0  0  0  0  0  0  0  0  0  0  0
   12.0318    7.7020   15.8102 H   0  0  0  0  0  0  0  0  0  0  0  0
   12.2777    7.5007   14.2404 H   0  0  0  0  0  0  0  0  0  0  0  0
   10.5055    6.6290   14.8900 C   0  0  0  0  0  0  0  0  0  0  0  0
    9.9435    7.4336   14.7528 H   0  0  0  0  0  0  0  0  0  0  0  0
   10.4238    6.0583   14.0842 H   0  0  0  0  0  0  0  0  0  0  0  0
    9.9961    5.8576   16.1093 C   0  0  0  0  0  0  0  0  0  0  0  0
    9.9859    6.4560   16.8980 H   0  0  0  0  0  0  0  0  0  0  0  0
    9.0706    5.5503   15.9454 H   0  0  0  0  0  0  0  0  0  0  0  0
   10.8858    4.6649   16.3912 C   0  0  0  0  0  0  0  0  0  0  0  0
   10.8352    4.0316   15.6311 H   0  0  0  0  0  0  0  0  0  0  0  0
   10.5615    4.1969   17.2009 H   0  0  0  0  0  0  0  0  0  0  0  0
   12.3412    5.0873   16.5989 C   0  0  0  0  0  0  0  0  0  0  0  0
   12.9005    4.2861   16.7570 H   0  0  0  0  0  0  0  0  0  0  0  0
   12.4055    5.6711   17.3971 H   0  0  0  0  0  0  0  0  0  0  0  0
   15.4710    4.6529   15.8235 C   0  0  0  0  0  0  0  0  0  0  0  0
   15.1758    4.3479   16.7284 H   0  0  0  0  0  0  0  0  0  0  0  0
   16.9937    4.7632   15.9264 C   0  0  0  0  0  0  0  0  0  0  0  0
   17.2331    5.4901   16.5550 H   0  0  0  0  0  0  0  0  0  0  0  0
   17.3726    4.9850   15.0405 H   0  0  0  0  0  0  0  0  0  0  0  0
   17.5853    3.4404   16.4236 C   0  0  0  0  0  0  0  0  0  0  0  0
   18.5722    3.5128   16.4598 H   0  0  0  0  0  0  0  0  0  0  0  0
   17.2581    3.2559   17.3399 H   0  0  0  0  0  0  0  0  0  0  0  0
   17.1961    2.2921   15.5054 C   0  0  0  0  0  0  0  0  0  0  0  0
   17.5491    1.4443   15.8730 H   0  0  0  0  0  0  0  0  0  0  0  0
   17.6029    2.4320   14.6138 H   0  0  0  0  0  0  0  0  0  0  0  0
   15.6713    2.1893   15.3606 C   0  0  0  0  0  0  0  0  0  0  0  0
   15.4506    1.4725   14.7167 H   0  0  0  0  0  0  0  0  0  0  0  0
   15.2726    1.9513   16.2350 H   0  0  0  0  0  0  0  0  0  0  0  0
   15.0724    3.5086   14.8748 C   0  0  0  0  0  0  0  0  0  0  0  0
   14.0854    3.4332   14.8424 H   0  0  0  0  0  0  0  0  0  0  0  0
   15.3982    3.7045   13.9622 H   0  0  0  0  0  0  0  0  0  0  0  0
   15.1608    7.0822   14.0013 C   0  0  0  0  0  0  0  0  0  0  0  0
   14.5680    7.8812   13.8956 H   0  0  0  0  0  0  0  0  0  0  0  0
   14.9587    6.2489   12.7220 C   0  0  0  0  0  0  0  0  0  0  0  0
   15.5539    5.4590   12.7411 H   0  0  0  0  0  0  0  0  0  0  0  0
   14.0220    5.9303   12.6763 H   0  0  0  0  0  0  0  0  0  0  0  0
   15.2721    7.0995   11.4933 C   0  0  0  0  0  0  0  0  0  0  0  0
   15.1467    6.5573   10.6741 H   0  0  0  0  0  0  0  0  0  0  0  0
   14.6493    7.8676   11.4514 H   0  0  0  0  0  0  0  0  0  0  0  0
   16.7040    7.6058   11.5542 C   0  0  0  0  0  0  0  0  0  0  0  0
   16.8940    8.1545   10.7541 H   0  0  0  0  0  0  0  0  0  0  0  0
   17.3264    6.8359   11.5523 H   0  0  0  0  0  0  0  0  0  0  0  0
   16.9320    8.4388   12.8097 C   0  0  0  0  0  0  0  0  0  0  0  0
   16.3679    9.2528   12.7735 H   0  0  0  0  0  0  0  0  0  0  0  0
   17.8795    8.7241   12.8497 H   0  0  0  0  0  0  0  0  0  0  0  0
   16.5868    7.6378   14.0670 C   0  0  0  0  0  0  0  0  0  0  0  0
   16.6754    8.2209   14.8614 H   0  0  0  0  0  0  0  0  0  0  0  0
   17.2269    6.8895   14.1642 H   0  0  0  0  0  0  0  0  0  0  0  0
   15.4751    8.8867   20.6197 C   0  0  0  0  0  0  0  0  0  0  0  0
   15.1556    7.9597   20.8110 H   0  0  0  0  0  0  0  0  0  0  0  0
   15.1796    9.6769   21.8988 C   0  0  0  0  0  0  0  0  0  0  0  0
   14.2012    9.7634   22.0207 H   0  0  0  0  0  0  0  0  0  0  0  0
   15.5643   10.5857   21.8264 H   0  0  0  0  0  0  0  0  0  0  0  0
   15.7912    8.9477   23.1009 C   0  0  0  0  0  0  0  0  0  0  0  0
   15.6247    9.4726   23.9238 H   0  0  0  0  0  0  0  0  0  0  0  0
   15.3539    8.0662   23.2075 H   0  0  0  0  0  0  0  0  0  0  0  0
   17.2962    8.7497   22.9237 C   0  0  0  0  0  0  0  0  0  0  0  0
   17.6536    8.2314   23.6895 H   0  0  0  0  0  0  0  0  0  0  0  0
   17.7467    9.6307   22.9123 H   0  0  0  0  0  0  0  0  0  0  0  0
   17.6004    8.0059   21.6206 C   0  0  0  0  0  0  0  0  0  0  0  0
   18.5803    7.9291   21.5025 H   0  0  0  0  0  0  0  0  0  0  0  0
   17.2238    7.0910   21.6663 H   0  0  0  0  0  0  0  0  0  0  0  0
   16.9990    8.7493   20.4280 C   0  0  0  0  0  0  0  0  0  0  0  0
   17.1863    8.2495   19.5936 H   0  0  0  0  0  0  0  0  0  0  0  0
   17.4095    9.6463   20.3499 H   0  0  0  0  0  0  0  0  0  0  0  0
   12.8304    9.5517   19.5742 C   0  0  0  0  0  0  0  0  0  0  0  0
   12.7923   10.2057   20.3290 H   0  0  0  0  0  0  0  0  0  0  0  0
   12.2712    8.2221   20.0851 C   0  0  0  0  0  0  0  0  0  0  0  0
   12.8237    7.9014   20.8395 H   0  0  0  0  0  0  0  0  0  0  0  0
   12.3196    7.5461   19.3612 H   0  0  0  0  0  0  0  0  0  0  0  0
   10.8177    8.3691   20.5443 C   0  0  0  0  0  0  0  0  0  0  0  0
   10.4710    7.4884   20.8319 H   0  0  0  0  0  0  0  0  0  0  0  0
   10.7791    8.9819   21.3215 H   0  0  0  0  0  0  0  0  0  0  0  0
    9.9440    8.9202   19.4184 C   0  0  0  0  0  0  0  0  0  0  0  0
    9.9074    8.2649   18.6773 H   0  0  0  0  0  0  0  0  0  0  0  0
    9.0214    9.0557   19.7517 H   0  0  0  0  0  0  0  0  0  0  0  0
   10.5025   10.2457   18.9040 C   0  0  0  0  0  0  0  0  0  0  0  0
   10.4556   10.9231   19.6260 H   0  0  0  0  0  0  0  0  0  0  0  0
    9.9466   10.5645   18.1496 H   0  0  0  0  0  0  0  0  0  0  0  0
   11.9526   10.0995   18.4392 C   0  0  0  0  0  0  0  0  0  0  0  0
   12.2978   10.9816   18.1496 H   0  0  0  0  0  0  0  0  0  0  0  0
   11.9911    9.4852   17.6638 H   0  0  0  0  0  0  0  0  0  0  0  0
   15.0923   11.0756   18.5369 C   0  0  0  0  0  0  0  0  0  0  0  0
   14.5182   11.2727   17.7419 H   0  0  0  0  0  0  0  0  0  0  0  0
   16.5357   11.1528   18.0200 C   0  0  0  0  0  0  0  0  0  0  0  0
   17.1629   10.9781   18.7649 H   0  0  0  0  0  0  0  0  0  0  0  0
   16.6765   10.4541   17.3323 H   0  0  0  0  0  0  0  0  0  0  0  0
   16.8314   12.5269   17.4180 C   0  0  0  0  0  0  0  0  0  0  0  0
   17.7848   12.5701   17.1551 H   0  0  0  0  0  0  0  0  0  0  0  0
   16.2839   12.6523   16.6027 H   0  0  0  0  0  0  0  0  0  0  0  0
   16.5292   13.6450   18.4049 C   0  0  0  0  0  0  0  0  0  0  0  0
   17.1412   13.5777   19.1802 H   0  0  0  0  0  0  0  0  0  0  0  0
   16.6807   14.5211   17.9686 H   0  0  0  0  0  0  0  0  0  0  0  0
   15.0887   13.5621   18.8868 C   0  0  0  0  0  0  0  0  0  0  0  0
   14.4748   13.6956   18.1210 H   0  0  0  0  0  0  0  0  0  0  0  0
   14.9189   14.2813   19.5460 H   0  0  0  0  0  0  0  0  0  0  0  0
   14.8076   12.2060   19.5327 C   0  0  0  0  0  0  0  0  0  0  0  0
   13.8610   12.1650   19.8203 H   0  0  0  0  0  0  0  0  0  0  0  0
   15.3776   12.0960   20.3328 H   0  0  0  0  0  0  0  0  0  0  0  0
   13.5433   12.3984    9.1211 C   0  0  0  0  0  0  0  0  0  0  0  0
   13.0936   12.0339    9.9368 H   0  0  0  0  0  0  0  0  0  0  0  0
   15.0180   12.5873    9.5063 C   0  0  0  0  0  0  0  0  0  0  0  0
   15.5183   12.9399    8.7271 H   0  0  0  0  0  0  0  0  0  0  0  0
   15.0854   13.2468   10.2397 H   0  0  0  0  0  0  0  0  0  0  0  0
   15.6335   11.2647    9.9502 C   0  0  0  0  0  0  0  0  0  0  0  0
   15.1947   10.9644   10.7846 H   0  0  0  0  0  0  0  0  0  0  0  0
   16.5951   11.4005   10.1426 H   0  0  0  0  0  0  0  0  0  0  0  0
   15.4794   10.1868    8.8795 C   0  0  0  0  0  0  0  0  0  0  0  0
   15.9861   10.4480    8.0699 H   0  0  0  0  0  0  0  0  0  0  0  0
   15.8506    9.3316    9.2129 H   0  0  0  0  0  0  0  0  0  0  0  0
   14.0155   10.0033    8.5271 C   0  0  0  0  0  0  0  0  0  0  0  0
   13.5207    9.6841    9.3234 H   0  0  0  0  0  0  0  0  0  0  0  0
   13.9296    9.3173    7.8184 H   0  0  0  0  0  0  0  0  0  0  0  0
   13.4077   11.3106    8.0451 C   0  0  0  0  0  0  0  0  0  0  0  0
   12.4505   11.1717    7.8336 H   0  0  0  0  0  0  0  0  0  0  0  0
   13.8661   11.6032    7.2183 H   0  0  0  0  0  0  0  0  0  0  0  0
   13.1420   14.5706    7.0461 C   0  0  0  0  0  0  0  0  0  0  0  0
   12.6726   15.4487    6.9516 H   0  0  0  0  0  0  0  0  0  0  0  0
   12.7190   13.7742    5.8057 C   0  0  0  0  0  0  0  0  0  0  0  0
   13.2360   12.9313    5.7533 H   0  0  0  0  0  0  0  0  0  0  0  0
   11.7583   13.5463    5.8638 H   0  0  0  0  0  0  0  0  0  0  0  0
   12.9799   14.6234    4.5569 C   0  0  0  0  0  0  0  0  0  0  0  0
   12.7302   14.1031    3.7511 H   0  0  0  0  0  0  0  0  0  0  0  0
   12.4091   15.4318    4.5855 H   0  0  0  0  0  0  0  0  0  0  0  0
   14.4410   15.0428    4.4502 C   0  0  0  0  0  0  0  0  0  0  0  0
   14.5542   15.6435    3.6711 H   0  0  0  0  0  0  0  0  0  0  0  0
   15.0025   14.2421    4.3035 H   0  0  0  0  0  0  0  0  0  0  0  0
   14.9006   15.7620    5.7133 C   0  0  0  0  0  0  0  0  0  0  0  0
   14.4223   16.6271    5.7914 H   0  0  0  0  0  0  0  0  0  0  0  0
   15.8689   15.9546    5.6485 H   0  0  0  0  0  0  0  0  0  0  0  0
   14.6311   14.9196    6.9592 C   0  0  0  0  0  0  0  0  0  0  0  0
   14.9035   15.4222    7.7670 H   0  0  0  0  0  0  0  0  0  0  0  0
   15.1656   14.0874    6.9173 H   0  0  0  0  0  0  0  0  0  0  0  0
   10.8946   13.4579    8.5639 C   0  0  0  0  0  0  0  0  0  0  0  0
   10.8553   12.7095    7.9022 H   0  0  0  0  0  0  0  0  0  0  0  0
   10.0221   14.5944    8.0261 C   0  0  0  0  0  0  0  0  0  0  0  0
   10.0379   15.3548    8.6623 H   0  0  0  0  0  0  0  0  0  0  0  0
   10.3833   14.9095    7.1612 H   0  0  0  0  0  0  0  0  0  0  0  0
    8.5840   14.1140    7.8375 C   0  0  0  0  0  0  0  0  0  0  0  0
    8.0287   14.8583    7.4964 H   0  0  0  0  0  0  0  0  0  0  0  0
    8.5651   13.3857    7.1669 H   0  0  0  0  0  0  0  0  0  0  0  0
    8.0021   13.6078    9.1500 C   0  0  0  0  0  0  0  0  0  0  0  0
    7.0847   13.2718    8.9976 H   0  0  0  0  0  0  0  0  0  0  0  0
    7.9536   14.3525    9.7997 H   0  0  0  0  0  0  0  0  0  0  0  0
    8.8685   12.4851    9.7273 C   0  0  0  0  0  0  0  0  0  0  0  0
    8.8322   11.7015    9.1253 H   0  0  0  0  0  0  0  0  0  0  0  0
    8.5075   12.2120   10.6074 H   0  0  0  0  0  0  0  0  0  0  0  0
   10.3250   12.9308    9.8911 C   0  0  0  0  0  0  0  0  0  0  0  0
   10.8710   12.1672   10.2016 H   0  0  0  0  0  0  0  0  0  0  0  0
   10.3771   13.6437   10.5769 H   0  0  0  0  0  0  0  0  0  0  0  0
   13.1824   18.8308   11.6628 C   0  0  0  0  0  0  0  0  0  0  0  0
   12.7179   18.9867   10.7922 H   0  0  0  0  0  0  0  0  0  0  0  0
   14.6663   18.8825   11.3199 C   0  0  0  0  0  0  0  0  0  0  0  0
   14.9022   18.1138   10.7427 H   0  0  0  0  0  0  0  0  0  0  0  0
   15.2029   18.8222   12.1486 H   0  0  0  0  0  0  0  0  0  0  0  0
   14.9847   20.1910   10.5922 C   0  0  0  0  0  0  0  0  0  0  0  0
   15.9537   20.2315   10.3998 H   0  0  0  0  0  0  0  0  0  0  0  0
   14.5007   20.2116    9.7292 H   0  0  0  0  0  0  0  0  0  0  0  0
   14.5856   21.3944   11.4190 C   0  0  0  0  0  0  0  0  0  0  0  0
   14.7463   22.2209   10.8989 H   0  0  0  0  0  0  0  0  0  0  0  0
   15.1446   21.4329   12.2363 H   0  0  0  0  0  0  0  0  0  0  0  0
   13.1186   21.3242   11.8133 C   0  0  0  0  0  0  0  0  0  0  0  0
   12.5596   21.4067   10.9999 H   0  0  0  0  0  0  0  0  0  0  0  0
   12.9030   22.0849   12.4077 H   0  0  0  0  0  0  0  0  0  0  0  0
   12.7742   20.0135   12.5277 C   0  0  0  0  0  0  0  0  0  0  0  0
   13.2497   19.9720   13.3945 H   0  0  0  0  0  0  0  0  0  0  0  0
   11.8014   19.9759   12.7049 H   0  0  0  0  0  0  0  0  0  0  0  0
   13.5128   16.6297   13.7258 C   0  0  0  0  0  0  0  0  0  0  0  0
   13.0818   15.7669   13.9908 H   0  0  0  0  0  0  0  0  0  0  0  0
   13.2656   17.5827   14.9014 C   0  0  0  0  0  0  0  0  0  0  0  0
   13.7127   18.4477   14.7262 H   0  0  0  0  0  0  0  0  0  0  0  0
   12.2951   17.7505   14.9929 H   0  0  0  0  0  0  0  0  0  0  0  0
   13.8072   16.9785   16.1969 C   0  0  0  0  0  0  0  0  0  0  0  0
   13.6612   17.6147   16.9418 H   0  0  0  0  0  0  0  0  0  0  0  0
   13.3140   16.1458   16.4045 H   0  0  0  0  0  0  0  0  0  0  0  0
   15.2887   16.6723   16.0731 C   0  0  0  0  0  0  0  0  0  0  0  0
   15.6137   16.2594   16.9113 H   0  0  0  0  0  0  0  0  0  0  0  0
   15.7910   17.5141   15.9321 H   0  0  0  0  0  0  0  0  0  0  0  0
   15.5409   15.7281   14.9072 C   0  0  0  0  0  0  0  0  0  0  0  0
   15.0996   14.8584   15.0862 H   0  0  0  0  0  0  0  0  0  0  0  0
   16.5120   15.5642   14.8176 H   0  0  0  0  0  0  0  0  0  0  0  0
   14.9986   16.3118   13.5965 C   0  0  0  0  0  0  0  0  0  0  0  0
   15.4959   17.1381   13.3717 H   0  0  0  0  0  0  0  0  0  0  0  0
   15.1345   15.6613   12.8630 H   0  0  0  0  0  0  0  0  0  0  0  0
   10.8920   17.2573   12.6498 C   0  0  0  0  0  0  0  0  0  0  0  0
   10.8023   18.0279   13.2821 H   0  0  0  0  0  0  0  0  0  0  0  0
   10.4095   15.9922   13.3793 C   0  0  0  0  0  0  0  0  0  0  0  0
   10.5203   15.2080   12.7849 H   0  0  0  0  0  0  0  0  0  0  0  0
   10.9631   15.8457   14.1870 H   0  0  0  0  0  0  0  0  0  0  0  0
    8.9417   16.1194   13.7832 C   0  0  0  0  0  0  0  0  0  0  0  0
    8.6457   15.2832   14.2213 H   0  0  0  0  0  0  0  0  0  0  0  0
    8.8419   16.8590   14.4347 H   0  0  0  0  0  0  0  0  0  0  0  0
    8.0681   16.3942   12.5620 C   0  0  0  0  0  0  0  0  0  0  0  0
    8.1109   15.6225   11.9448 H   0  0  0  0  0  0  0  0  0  0  0  0
    7.1270   16.5093   12.8478 H   0  0  0  0  0  0  0  0  0  0  0  0
    8.5344   17.6509   11.8362 C   0  0  0  0  0  0  0  0  0  0  0  0
    8.4111   18.4362   12.4268 H   0  0  0  0  0  0  0  0  0  0  0  0
    7.9794   17.7866   11.0284 H   0  0  0  0  0  0  0  0  0  0  0  0
   10.0052   17.5485   11.4304 C   0  0  0  0  0  0  0  0  0  0  0  0
   10.2905   18.3987   11.0113 H   0  0  0  0  0  0  0  0  0  0  0  0
   10.1136   16.8244   10.7636 H   0  0  0  0  0  0  0  0  0  0  0  0
  1  2  1  0  0  0  0
  2 68  1  0  0  0  0
  3  1  1  0  0  0  0
  4  1  1  0  0  0  0
  5  6  2  0  0  0  0
  6  1  1  0  0  0  0
  7  8  1  0  0  0  0
  8170  1  0  0  0  0
  9  7  1  0  0  0  0
 10  7  1  0  0  0  0
 11 12  2  0  0  0  0
 12  7  1  0  0  0  0
 13  5  1  0  0  0  0
 14 13  1  0  0  0  0
 15 13  1  0  0  0  0
 16 13  1  0  0  0  0
 17  3  1  0  0  0  0
 18 17  1  0  0  0  0
 19 17  1  0  0  0  0
 20 19  1  0  0  0  0
 21 19  1  0  0  0  0
 22 19  1  0  0  0  0
 23 22  1  0  0  0  0
 24 22  1  0  0  0  0
 25 22  1  0  0  0  0
 26 25  1  0  0  0  0
 27 25  1  0  0  0  0
 28 25  1  0  0  0  0
 29 28  1  0  0  0  0
 30 28  1  0  0  0  0
 31 17  1  0  0  0  0
 32 31  1  0  0  0  0
 33 31  1  0  0  0  0
 34  3  1  0  0  0  0
 35 34  1  0  0  0  0
 36 34  1  0  0  0  0
 37 36  1  0  0  0  0
 38 36  1  0  0  0  0
 39 36  1  0  0  0  0
 40 39  1  0  0  0  0
 41 39  1  0  0  0  0
 42 39  1  0  0  0  0
 43 42  1  0  0  0  0
 44 42  1  0  0  0  0
 45 42  1  0  0  0  0
 46 45  1  0  0  0  0
 47 45  1  0  0  0  0
 48 34  1  0  0  0  0
 49 48  1  0  0  0  0
 50 48  1  0  0  0  0
 51  3  1  0  0  0  0
 52 51  1  0  0  0  0
 53 51  1  0  0  0  0
 54 53  1  0  0  0  0
 55 53  1  0  0  0  0
 56 53  1  0  0  0  0
 57 56  1  0  0  0  0
 58 56  1  0  0  0  0
 59 56  1  0  0  0  0
 60 59  1  0  0  0  0
 61 59  1  0  0  0  0
 62 59  1  0  0  0  0
 63 62  1  0  0  0  0
 64 62  1  0  0  0  0
 65 51  1  0  0  0  0
 66 65  1  0  0  0  0
 67 65  1  0  0  0  0
 68 69  1  0  0  0  0
 70 68  1  0  0  0  0
 71 70  1  0  0  0  0
 72 70  1  0  0  0  0
 73 70  1  0  0  0  0
 74 73  1  0  0  0  0
 75 73  1  0  0  0  0
 76 73  1  0  0  0  0
 77 76  1  0  0  0  0
 78 76  1  0  0  0  0
 79 76  1  0  0  0  0
 80 79  1  0  0  0  0
 81 79  1  0  0  0  0
 82 68  1  0  0  0  0
 83 82  1  0  0  0  0
 84 82  1  0  0  0  0
 85  2  1  0  0  0  0
 86 85  1  0  0  0  0
 87 85  1  0  0  0  0
 88 87  1  0  0  0  0
 89 87  1  0  0  0  0
 90 87  1  0  0  0  0
 91 90  1  0  0  0  0
 92 90  1  0  0  0  0
 93 90  1  0  0  0  0
 94 93  1  0  0  0  0
 95 93  1  0  0  0  0
 96 93  1  0  0  0  0
 97 96  1  0  0  0  0
 98 96  1  0  0  0  0
 99 85  1  0  0  0  0
100 99  1  0  0  0  0
101 99  1  0  0  0  0
102  2  1  0  0  0  0
103102  1  0  0  0  0
104102  1  0  0  0  0
105104  1  0  0  0  0
106104  1  0  0  0  0
107104  1  0  0  0  0
108107  1  0  0  0  0
109107  1  0  0  0  0
110107  1  0  0  0  0
111110  1  0  0  0  0
112110  1  0  0  0  0
113110  1  0  0  0  0
114113  1  0  0  0  0
115113  1  0  0  0  0
116102  1  0  0  0  0
117116  1  0  0  0  0
118116  1  0  0  0  0
119  9  1  0  0  0  0
120119  1  0  0  0  0
121119  1  0  0  0  0
122121  1  0  0  0  0
123121  1  0  0  0  0
124121  1  0  0  0  0
125124  1  0  0  0  0
126124  1  0  0  0  0
127124  1  0  0  0  0
128127  1  0  0  0  0
129127  1  0  0  0  0
130127  1  0  0  0  0
131130  1  0  0  0  0
132130  1  0  0  0  0
133119  1  0  0  0  0
134133  1  0  0  0  0
135133  1  0  0  0  0
136  9  1  0  0  0  0
137136  1  0  0  0  0
138136  1  0  0  0  0
139138  1  0  0  0  0
140138  1  0  0  0  0
141138  1  0  0  0  0
142141  1  0  0  0  0
143141  1  0  0  0  0
144141  1  0  0  0  0
145144  1  0  0  0  0
146144  1  0  0  0  0
147144  1  0  0  0  0
148147  1  0  0  0  0
149147  1  0  0  0  0
150136  1  0  0  0  0
151150  1  0  0  0  0
152150  1  0  0  0  0
153  9  1  0  0  0  0
154153  1  0  0  0  0
155153  1  0  0  0  0
156155  1  0  0  0  0
157155  1  0  0  0  0
158155  1  0  0  0  0
159158  1  0  0  0  0
160158  1  0  0  0  0
161158  1  0  0  0  0
162161  1  0  0  0  0
163161  1  0  0  0  0
164161  1  0  0  0  0
165164  1  0  0  0  0
166164  1  0  0  0  0
167153  1  0  0  0  0
168167  1  0  0  0  0
169167  1  0  0  0  0
170171  1  0  0  0  0
172170  1  0  0  0  0
173172  1  0  0  0  0
174172  1  0  0  0  0
175172  1  0  0  0  0
176175  1  0  0  0  0
177175  1  0  0  0  0
178175  1  0  0  0  0
179178  1  0  0  0  0
180178  1  0  0  0  0
181178  1  0  0  0  0
182181  1  0  0  0  0
183181  1  0  0  0  0
184170  1  0  0  0  0
185184  1  0  0  0  0
186184  1  0  0  0  0
187  8  1  0  0  0  0
188187  1  0  0  0  0
189187  1  0  0  0  0
190189  1  0  0  0  0
191189  1  0  0  0  0
192189  1  0  0  0  0
193192  1  0  0  0  0
194192  1  0  0  0  0
195192  1  0  0  0  0
196195  1  0  0  0  0
197195  1  0  0  0  0
198195  1  0  0  0  0
199198  1  0  0  0  0
200198  1  0  0  0  0
201187  1  0  0  0  0
202201  1  0  0  0  0
203201  1  0  0  0  0
204  8  1  0  0  0  0
205204  1  0  0  0  0
206204  1  0  0  0  0
207206  1  0  0  0  0
208206  1  0  0  0  0
209206  1  0  0  0  0
210209  1  0  0  0  0
211209  1  0  0  0  0
212209  1  0  0  0  0
213212  1  0  0  0  0
214212  1  0  0  0  0
215212  1  0  0  0  0
216215  1  0  0  0  0
217215  1  0  0  0  0
218204  1  0  0  0  0
219218  1  0  0  0  0
220218  1  0  0  0  0
 11 13  1  0  0  0  0
 28 31  1  0  0  0  0
 45 48  1  0  0  0  0
 62 65  1  0  0  0  0
 79 82  1  0  0  0  0
 96 99  1  0  0  0  0
113116  1  0  0  0  0
130133  1  0  0  0  0
147150  1  0  0  0  0
164167  1  0  0  0  0
181184  1  0  0  0  0
198201  1  0  0  0  0
215218  1  0  0  0  0
M  END
$$$$
RUBRUE

From CSD data. Using bond type 'Any'. No disordered atoms. Largest molecule.
236250  0  0  0  0  0  0  0  0999 V2000
    7.3994   15.8591    9.8349 B   0  0  0  0  0  0  0  0  0  0  0  0
    8.7689    9.4603    3.6578 Br  0  0  0  0  0  0  0  0  0  0  0  0
    6.7964   14.3713    9.4706 C   0  0  0  0  0  0  0  0  0  0  0  0
    7.3898   13.6856    9.8907 H   0  0  0  0  0  0  0  0  0  0  0  0
    9.8452   18.0177    9.4696 O   0  0  0  0  0  0  0  0  0  0  0  0
    7.0431   14.3050    7.6579 P   0  0  0  0  0  0  0  0  0  0  0  0
    5.3629   14.0982    9.9170 C   0  0  0  0  0  0  0  0  0  0  0  0
    5.2968   14.2018   10.8901 H   0  0  0  0  0  0  0  0  0  0  0  0
    5.1114   13.1834    9.6675 H   0  0  0  0  0  0  0  0  0  0  0  0
    4.7583   14.7354    9.4805 H   0  0  0  0  0  0  0  0  0  0  0  0
    8.6475   15.1689    7.7623 C   0  0  0  0  0  0  0  0  0  0  0  0
    8.7087   15.9840    8.8683 C   0  0  0  0  0  0  0  0  0  0  0  0
    9.8906   16.8015    9.0981 C   0  0  0  0  0  0  0  0  0  0  0  0
    7.3091   12.6669    6.7940 C   0  0  0  0  0  0  0  0  0  0  0  0
    6.8464   12.6913    5.4648 C   0  0  0  0  0  0  0  0  0  0  0  0
    7.1979   11.6830    4.5441 C   0  0  0  0  0  0  0  0  0  0  0  0
    8.0541   10.6698    4.9642 C   0  0  0  0  0  0  0  0  0  0  0  0
    8.3975   10.5233    6.2984 C   0  0  0  0  0  0  0  0  0  0  0  0
    7.9993   11.4947    7.2306 C   0  0  0  0  0  0  0  0  0  0  0  0
    6.0128   13.7679    4.7148 C   0  0  0  0  0  0  0  0  0  0  0  0
    5.5532   12.9783    3.4709 C   0  0  0  0  0  0  0  0  0  0  0  0
    4.6680   12.5696    3.6415 H   0  0  0  0  0  0  0  0  0  0  0  0
    5.4694   13.5880    2.6963 H   0  0  0  0  0  0  0  0  0  0  0  0
    6.5868   11.8814    3.1640 C   0  0  0  0  0  0  0  0  0  0  0  0
    4.7438   14.3092    5.4139 C   0  0  0  0  0  0  0  0  0  0  0  0
    5.0179   15.0249    6.0408 H   0  0  0  0  0  0  0  0  0  0  0  0
    4.1649   14.7249    4.7263 H   0  0  0  0  0  0  0  0  0  0  0  0
    3.9085   13.2877    6.1885 C   0  0  0  0  0  0  0  0  0  0  0  0
    3.6296   12.5696    5.5829 H   0  0  0  0  0  0  0  0  0  0  0  0
    3.1152   13.7275    6.5594 H   0  0  0  0  0  0  0  0  0  0  0  0
    4.4455   12.9114    6.9171 H   0  0  0  0  0  0  0  0  0  0  0  0
    6.9415   14.9583    4.3488 C   0  0  0  0  0  0  0  0  0  0  0  0
    6.9915   15.5655    5.1300 H   0  0  0  0  0  0  0  0  0  0  0  0
    7.8525   14.6029    4.1913 H   0  0  0  0  0  0  0  0  0  0  0  0
    6.5303   15.7855    3.1213 C   0  0  0  0  0  0  0  0  0  0  0  0
    6.7641   15.2969    2.3057 H   0  0  0  0  0  0  0  0  0  0  0  0
    7.0012   16.6466    3.1344 H   0  0  0  0  0  0  0  0  0  0  0  0
    5.5629   15.9421    3.1426 H   0  0  0  0  0  0  0  0  0  0  0  0
    5.8563   10.6437    2.5880 C   0  0  0  0  0  0  0  0  0  0  0  0
    5.2404   10.9478    1.8757 H   0  0  0  0  0  0  0  0  0  0  0  0
    6.5287   10.0515    2.1679 H   0  0  0  0  0  0  0  0  0  0  0  0
    5.0534    9.8209    3.6038 C   0  0  0  0  0  0  0  0  0  0  0  0
    5.6661    9.4167    4.2537 H   0  0  0  0  0  0  0  0  0  0  0  0
    4.5632    9.1133    3.1361 H   0  0  0  0  0  0  0  0  0  0  0  0
    4.4197   10.4072    4.0699 H   0  0  0  0  0  0  0  0  0  0  0  0
    7.6510   12.3809    2.1596 C   0  0  0  0  0  0  0  0  0  0  0  0
    8.0541   13.2113    2.5158 H   0  0  0  0  0  0  0  0  0  0  0  0
    8.3717   11.7046    2.1022 H   0  0  0  0  0  0  0  0  0  0  0  0
    7.1366   12.6606    0.7434 C   0  0  0  0  0  0  0  0  0  0  0  0
    6.7722   11.8372    0.3578 H   0  0  0  0  0  0  0  0  0  0  0  0
    7.8751   12.9846    0.1838 H   0  0  0  0  0  0  0  0  0  0  0  0
    6.4320   13.3403    0.7795 H   0  0  0  0  0  0  0  0  0  0  0  0
    9.3360    9.4844    6.9220 C   0  0  0  0  0  0  0  0  0  0  0  0
    9.0215    9.6626    8.4253 C   0  0  0  0  0  0  0  0  0  0  0  0
    9.8503    9.5632    8.9553 H   0  0  0  0  0  0  0  0  0  0  0  0
    8.3798    8.9668    8.7190 H   0  0  0  0  0  0  0  0  0  0  0  0
    8.4137   11.0667    8.6517 C   0  0  0  0  0  0  0  0  0  0  0  0
    9.1376    8.0042    6.5347 C   0  0  0  0  0  0  0  0  0  0  0  0
    9.5488    7.8577    5.6453 H   0  0  0  0  0  0  0  0  0  0  0  0
    9.6294    7.4427    7.1846 H   0  0  0  0  0  0  0  0  0  0  0  0
    7.6977    7.5219    6.4806 C   0  0  0  0  0  0  0  0  0  0  0  0
    7.2769    7.6554    7.3553 H   0  0  0  0  0  0  0  0  0  0  0  0
    7.6816    6.5708    6.2508 H   0  0  0  0  0  0  0  0  0  0  0  0
    7.2076    8.0321    5.8012 H   0  0  0  0  0  0  0  0  0  0  0  0
   10.7952    9.9161    6.5741 C   0  0  0  0  0  0  0  0  0  0  0  0
   10.8968    9.9120    5.5895 H   0  0  0  0  0  0  0  0  0  0  0  0
   10.9274   10.8467    6.8826 H   0  0  0  0  0  0  0  0  0  0  0  0
   11.8933    9.0533    7.1764 C   0  0  0  0  0  0  0  0  0  0  0  0
   11.8094    9.0505    8.1528 H   0  0  0  0  0  0  0  0  0  0  0  0
   12.7672    9.4167    6.9237 H   0  0  0  0  0  0  0  0  0  0  0  0
   11.8094    8.1367    6.8383 H   0  0  0  0  0  0  0  0  0  0  0  0
    7.2027   10.9481    9.6052 C   0  0  0  0  0  0  0  0  0  0  0  0
    7.4913   10.4595   10.4159 H   0  0  0  0  0  0  0  0  0  0  0  0
    6.9367   11.8581    9.8874 H   0  0  0  0  0  0  0  0  0  0  0  0
    5.9853   10.2492    9.0308 C   0  0  0  0  0  0  0  0  0  0  0  0
    5.6129   10.7874    8.3022 H   0  0  0  0  0  0  0  0  0  0  0  0
    5.3113   10.1387    9.7332 H   0  0  0  0  0  0  0  0  0  0  0  0
    6.2466    9.3679    8.6862 H   0  0  0  0  0  0  0  0  0  0  0  0
    9.4892   12.0126    9.2524 C   0  0  0  0  0  0  0  0  0  0  0  0
   10.2954   11.9767    8.6780 H   0  0  0  0  0  0  0  0  0  0  0  0
    9.1441   12.9393    9.2261 H   0  0  0  0  0  0  0  0  0  0  0  0
    9.9019   11.6910   10.6850 C   0  0  0  0  0  0  0  0  0  0  0  0
    9.1457   11.8511   11.2856 H   0  0  0  0  0  0  0  0  0  0  0  0
   10.6533   12.2626   10.9443 H   0  0  0  0  0  0  0  0  0  0  0  0
   10.1728   10.7525   10.7441 H   0  0  0  0  0  0  0  0  0  0  0  0
    7.5413   15.9209   11.4694 C   0  0  0  0  0  0  0  0  0  0  0  0
    6.5723   16.4213   12.3310 C   0  0  0  0  0  0  0  0  0  0  0  0
    5.4865   17.0844   11.8620 F   0  0  0  0  0  0  0  0  0  0  0  0
    6.6239   16.3003   13.7062 C   0  0  0  0  0  0  0  0  0  0  0  0
    5.6519   16.8235   14.4714 F   0  0  0  0  0  0  0  0  0  0  0  0
    7.6816   15.6523   14.2904 C   0  0  0  0  0  0  0  0  0  0  0  0
    7.7358   15.5529   15.6320 F   0  0  0  0  0  0  0  0  0  0  0  0
    8.6636   15.1180   13.4994 C   0  0  0  0  0  0  0  0  0  0  0  0
    9.6915   14.4613   14.0577 F   0  0  0  0  0  0  0  0  0  0  0  0
    8.5749   15.2673   12.1291 C   0  0  0  0  0  0  0  0  0  0  0  0
    9.5698   14.7092   11.4012 F   0  0  0  0  0  0  0  0  0  0  0  0
    9.5972   15.2247    6.6234 C   0  0  0  0  0  0  0  0  0  0  0  0
   10.1228   14.0668    6.0441 C   0  0  0  0  0  0  0  0  0  0  0  0
    9.8455   13.2148    6.3559 H   0  0  0  0  0  0  0  0  0  0  0  0
   11.0548   14.1610    5.0135 C   0  0  0  0  0  0  0  0  0  0  0  0
   11.4063   13.3682    4.6229 H   0  0  0  0  0  0  0  0  0  0  0  0
   11.4724   15.3977    4.5507 C   0  0  0  0  0  0  0  0  0  0  0  0
   12.1174   15.4539    3.8565 H   0  0  0  0  0  0  0  0  0  0  0  0
   10.9403   16.5528    5.1103 C   0  0  0  0  0  0  0  0  0  0  0  0
   11.2177   17.4035    4.7936 H   0  0  0  0  0  0  0  0  0  0  0  0
   10.0084   16.4646    6.1294 C   0  0  0  0  0  0  0  0  0  0  0  0
    9.6423   17.2605    6.4986 H   0  0  0  0  0  0  0  0  0  0  0  0
   11.2709   16.2581    9.0439 C   0  0  0  0  0  0  0  0  0  0  0  0
   11.4982   14.8854    9.1408 C   0  0  0  0  0  0  0  0  0  0  0  0
   10.7614   14.2855    9.1588 H   0  0  0  0  0  0  0  0  0  0  0  0
   12.7946   14.3905    9.2113 C   0  0  0  0  0  0  0  0  0  0  0  0
   12.9414   13.4554    9.2934 H   0  0  0  0  0  0  0  0  0  0  0  0
   13.8669   15.2551    9.1621 C   0  0  0  0  0  0  0  0  0  0  0  0
   14.7521   14.9133    9.2080 H   0  0  0  0  0  0  0  0  0  0  0  0
   13.6573   16.6236    9.0439 C   0  0  0  0  0  0  0  0  0  0  0  0
   14.3974   17.2186    9.0029 H   0  0  0  0  0  0  0  0  0  0  0  0
   12.3641   17.1203    8.9865 C   0  0  0  0  0  0  0  0  0  0  0  0
   12.2222   18.0557    8.9094 H   0  0  0  0  0  0  0  0  0  0  0  0
    8.7249   19.0176    9.8349 B   0  0  0  0  0  0  0  0  0  0  0  0
    7.3554   25.4164    3.6578 Br  0  0  0  0  0  0  0  0  0  0  0  0
    9.3279   20.5054    9.4706 C   0  0  0  0  0  0  0  0  0  0  0  0
    8.7345   21.1911    9.8907 H   0  0  0  0  0  0  0  0  0  0  0  0
    6.2791   16.8590    9.4696 O   0  0  0  0  0  0  0  0  0  0  0  0
    9.0812   20.5717    7.6579 P   0  0  0  0  0  0  0  0  0  0  0  0
   10.7614   20.7785    9.9170 C   0  0  0  0  0  0  0  0  0  0  0  0
   10.8275   20.6749   10.8901 H   0  0  0  0  0  0  0  0  0  0  0  0
   11.0129   21.6933    9.6675 H   0  0  0  0  0  0  0  0  0  0  0  0
   11.3660   20.1413    9.4805 H   0  0  0  0  0  0  0  0  0  0  0  0
    7.4768   19.7078    7.7623 C   0  0  0  0  0  0  0  0  0  0  0  0
    7.4156   18.8927    8.8683 C   0  0  0  0  0  0  0  0  0  0  0  0
    6.2337   18.0752    9.0981 C   0  0  0  0  0  0  0  0  0  0  0  0
    8.8152   22.2098    6.7940 C   0  0  0  0  0  0  0  0  0  0  0  0
    9.2779   22.1854    5.4648 C   0  0  0  0  0  0  0  0  0  0  0  0
    8.9264   23.1937    4.5441 C   0  0  0  0  0  0  0  0  0  0  0  0
    8.0702   24.2069    4.9642 C   0  0  0  0  0  0  0  0  0  0  0  0
    7.7268   24.3534    6.2984 C   0  0  0  0  0  0  0  0  0  0  0  0
    8.1250   23.3820    7.2306 C   0  0  0  0  0  0  0  0  0  0  0  0
   10.1115   21.1088    4.7148 C   0  0  0  0  0  0  0  0  0  0  0  0
   10.5711   21.8984    3.4709 C   0  0  0  0  0  0  0  0  0  0  0  0
   11.4563   22.3071    3.6415 H   0  0  0  0  0  0  0  0  0  0  0  0
   10.6549   21.2887    2.6963 H   0  0  0  0  0  0  0  0  0  0  0  0
    9.5375   22.9953    3.1640 C   0  0  0  0  0  0  0  0  0  0  0  0
   11.3805   20.5675    5.4139 C   0  0  0  0  0  0  0  0  0  0  0  0
   11.1064   19.8518    6.0408 H   0  0  0  0  0  0  0  0  0  0  0  0
   11.9594   20.1518    4.7263 H   0  0  0  0  0  0  0  0  0  0  0  0
   12.2158   21.5890    6.1885 C   0  0  0  0  0  0  0  0  0  0  0  0
   12.4947   22.3071    5.5829 H   0  0  0  0  0  0  0  0  0  0  0  0
   13.0091   21.1492    6.5594 H   0  0  0  0  0  0  0  0  0  0  0  0
   11.6788   21.9653    6.9171 H   0  0  0  0  0  0  0  0  0  0  0  0
    9.1828   19.9184    4.3488 C   0  0  0  0  0  0  0  0  0  0  0  0
    9.1328   19.3112    5.1300 H   0  0  0  0  0  0  0  0  0  0  0  0
    8.2718   20.2738    4.1913 H   0  0  0  0  0  0  0  0  0  0  0  0
    9.5940   19.0912    3.1213 C   0  0  0  0  0  0  0  0  0  0  0  0
    9.3602   19.5798    2.3057 H   0  0  0  0  0  0  0  0  0  0  0  0
    9.1231   18.2301    3.1344 H   0  0  0  0  0  0  0  0  0  0  0  0
   10.5614   18.9346    3.1426 H   0  0  0  0  0  0  0  0  0  0  0  0
   10.2680   24.2330    2.5880 C   0  0  0  0  0  0  0  0  0  0  0  0
   10.8839   23.9289    1.8757 H   0  0  0  0  0  0  0  0  0  0  0  0
    9.5956   24.8252    2.1679 H   0  0  0  0  0  0  0  0  0  0  0  0
   11.0709   25.0558    3.6038 C   0  0  0  0  0  0  0  0  0  0  0  0
   10.4582   25.4600    4.2537 H   0  0  0  0  0  0  0  0  0  0  0  0
   11.5611   25.7634    3.1361 H   0  0  0  0  0  0  0  0  0  0  0  0
   11.7046   24.4695    4.0699 H   0  0  0  0  0  0  0  0  0  0  0  0
    8.4733   22.4958    2.1596 C   0  0  0  0  0  0  0  0  0  0  0  0
    8.0702   21.6654    2.5158 H   0  0  0  0  0  0  0  0  0  0  0  0
    7.7526   23.1721    2.1022 H   0  0  0  0  0  0  0  0  0  0  0  0
    8.9877   22.2161    0.7434 C   0  0  0  0  0  0  0  0  0  0  0  0
    9.3521   23.0395    0.3578 H   0  0  0  0  0  0  0  0  0  0  0  0
    8.2492   21.8921    0.1838 H   0  0  0  0  0  0  0  0  0  0  0  0
    9.6923   21.5364    0.7795 H   0  0  0  0  0  0  0  0  0  0  0  0
    6.7883   25.3923    6.9220 C   0  0  0  0  0  0  0  0  0  0  0  0
    7.1028   25.2141    8.4253 C   0  0  0  0  0  0  0  0  0  0  0  0
    6.2740   25.3135    8.9553 H   0  0  0  0  0  0  0  0  0  0  0  0
    7.7445   25.9099    8.7190 H   0  0  0  0  0  0  0  0  0  0  0  0
    7.7106   23.8100    8.6517 C   0  0  0  0  0  0  0  0  0  0  0  0
    6.9867   26.8725    6.5347 C   0  0  0  0  0  0  0  0  0  0  0  0
    6.5755   27.0190    5.6453 H   0  0  0  0  0  0  0  0  0  0  0  0
    6.4949   27.4340    7.1846 H   0  0  0  0  0  0  0  0  0  0  0  0
    8.4266   27.3548    6.4806 C   0  0  0  0  0  0  0  0  0  0  0  0
    8.8474   27.2213    7.3553 H   0  0  0  0  0  0  0  0  0  0  0  0
    8.4427   28.3059    6.2508 H   0  0  0  0  0  0  0  0  0  0  0  0
    8.9167   26.8446    5.8012 H   0  0  0  0  0  0  0  0  0  0  0  0
    5.3291   24.9606    6.5741 C   0  0  0  0  0  0  0  0  0  0  0  0
    5.2275   24.9647    5.5895 H   0  0  0  0  0  0  0  0  0  0  0  0
    5.1969   24.0300    6.8826 H   0  0  0  0  0  0  0  0  0  0  0  0
    4.2310   25.8234    7.1764 C   0  0  0  0  0  0  0  0  0  0  0  0
    4.3149   25.8262    8.1528 H   0  0  0  0  0  0  0  0  0  0  0  0
    3.3571   25.4600    6.9237 H   0  0  0  0  0  0  0  0  0  0  0  0
    4.3149   26.7400    6.8383 H   0  0  0  0  0  0  0  0  0  0  0  0
    8.9216   23.9286    9.6052 C   0  0  0  0  0  0  0  0  0  0  0  0
    8.6330   24.4172   10.4159 H   0  0  0  0  0  0  0  0  0  0  0  0
    9.1876   23.0186    9.8874 H   0  0  0  0  0  0  0  0  0  0  0  0
   10.1390   24.6275    9.0308 C   0  0  0  0  0  0  0  0  0  0  0  0
   10.5114   24.0893    8.3022 H   0  0  0  0  0  0  0  0  0  0  0  0
   10.8130   24.7380    9.7332 H   0  0  0  0  0  0  0  0  0  0  0  0
    9.8777   25.5088    8.6862 H   0  0  0  0  0  0  0  0  0  0  0  0
    6.6351   22.8641    9.2524 C   0  0  0  0  0  0  0  0  0  0  0  0
    5.8289   22.9000    8.6780 H   0  0  0  0  0  0  0  0  0  0  0  0
    6.9802   21.9374    9.2261 H   0  0  0  0  0  0  0  0  0  0  0  0
    6.2224   23.1857   10.6850 C   0  0  0  0  0  0  0  0  0  0  0  0
    6.9786   23.0256   11.2856 H   0  0  0  0  0  0  0  0  0  0  0  0
    5.4710   22.6141   10.9443 H   0  0  0  0  0  0  0  0  0  0  0  0
    5.9515   24.1242   10.7441 H   0  0  0  0  0  0  0  0  0  0  0  0
    8.5830   18.9558   11.4694 C   0  0  0  0  0  0  0  0  0  0  0  0
    9.5520   18.4554   12.3310 C   0  0  0  0  0  0  0  0  0  0  0  0
   10.6378   17.7923   11.8620 F   0  0  0  0  0  0  0  0  0  0  0  0
    9.5004   18.5764   13.7062 C   0  0  0  0  0  0  0  0  0  0  0  0
   10.4724   18.0532   14.4714 F   0  0  0  0  0  0  0  0  0  0  0  0
    8.4427   19.2244   14.2904 C   0  0  0  0  0  0  0  0  0  0  0  0
    8.3885   19.3238   15.6320 F   0  0  0  0  0  0  0  0  0  0  0  0
    7.4607   19.7587   13.4994 C   0  0  0  0  0  0  0  0  0  0  0  0
    6.4328   20.4154   14.0577 F   0  0  0  0  0  0  0  0  0  0  0  0
    7.5494   19.6094   12.1291 C   0  0  0  0  0  0  0  0  0  0  0  0
    6.5545   20.1675   11.4012 F   0  0  0  0  0  0  0  0  0  0  0  0
    6.5271   19.6520    6.6234 C   0  0  0  0  0  0  0  0  0  0  0  0
    6.0015   20.8099    6.0441 C   0  0  0  0  0  0  0  0  0  0  0  0
    6.2788   21.6619    6.3559 H   0  0  0  0  0  0  0  0  0  0  0  0
    5.0695   20.7157    5.0135 C   0  0  0  0  0  0  0  0  0  0  0  0
    4.7180   21.5085    4.6229 H   0  0  0  0  0  0  0  0  0  0  0  0
    4.6519   19.4790    4.5507 C   0  0  0  0  0  0  0  0  0  0  0  0
    4.0069   19.4228    3.8565 H   0  0  0  0  0  0  0  0  0  0  0  0
    5.1840   18.3239    5.1103 C   0  0  0  0  0  0  0  0  0  0  0  0
    4.9066   17.4732    4.7936 H   0  0  0  0  0  0  0  0  0  0  0  0
    6.1159   18.4121    6.1294 C   0  0  0  0  0  0  0  0  0  0  0  0
    6.4820   17.6162    6.4986 H   0  0  0  0  0  0  0  0  0  0  0  0
    4.8534   18.6186    9.0439 C   0  0  0  0  0  0  0  0  0  0  0  0
    4.6261   19.9913    9.1408 C   0  0  0  0  0  0  0  0  0  0  0  0
    5.3629   20.5912    9.1588 H   0  0  0  0  0  0  0  0  0  0  0  0
    3.3297   20.4862    9.2113 C   0  0  0  0  0  0  0  0  0  0  0  0
    3.1829   21.4213    9.2934 H   0  0  0  0  0  0  0  0  0  0  0  0
    2.2574   19.6216    9.1621 C   0  0  0  0  0  0  0  0  0  0  0  0
    1.3722   19.9634    9.2080 H   0  0  0  0  0  0  0  0  0  0  0  0
    2.4670   18.2531    9.0439 C   0  0  0  0  0  0  0  0  0  0  0  0
    1.7269   17.6581    9.0029 H   0  0  0  0  0  0  0  0  0  0  0  0
    3.7602   17.7564    8.9865 C   0  0  0  0  0  0  0  0  0  0  0  0
    3.9021   16.8210    8.9094 H   0  0  0  0  0  0  0  0  0  0  0  0
  1  3  1  0  0  0  0
  2 17  1  0  0  0  0
  3  4  1  0  0  0  0
  5 13  2  0  0  0  0
  6  3  1  0  0  0  0
  7  3  1  0  0  0  0
  8  7  1  0  0  0  0
  9  7  1  0  0  0  0
 10  7  1  0  0  0  0
 11  6  1  0  0  0  0
 12  1  1  0  0  0  0
 13 12  1  0  0  0  0
 14  6  1  0  0  0  0
 15 14  4  0  0  0  0
 16 15  4  0  0  0  0
 17 16  4  0  0  0  0
 18 17  4  0  0  0  0
 19 14  4  0  0  0  0
 20 15  1  0  0  0  0
 21 20  1  0  0  0  0
 22 21  1  0  0  0  0
 23 21  1  0  0  0  0
 24 16  1  0  0  0  0
 25 20  1  0  0  0  0
 26 25  1  0  0  0  0
 27 25  1  0  0  0  0
 28 25  1  0  0  0  0
 29 28  1  0  0  0  0
 30 28  1  0  0  0  0
 31 28  1  0  0  0  0
 32 20  1  0  0  0  0
 33 32  1  0  0  0  0
 34 32  1  0  0  0  0
 35 32  1  0  0  0  0
 36 35  1  0  0  0  0
 37 35  1  0  0  0  0
 38 35  1  0  0  0  0
 39 24  1  0  0  0  0
 40 39  1  0  0  0  0
 41 39  1  0  0  0  0
 42 39  1  0  0  0  0
 43 42  1  0  0  0  0
 44 42  1  0  0  0  0
 45 42  1  0  0  0  0
 46 24  1  0  0  0  0
 47 46  1  0  0  0  0
 48 46  1  0  0  0  0
 49 46  1  0  0  0  0
 50 49  1  0  0  0  0
 51 49  1  0  0  0  0
 52 49  1  0  0  0  0
 53 18  1  0  0  0  0
 54 53  1  0  0  0  0
 55 54  1  0  0  0  0
 56 54  1  0  0  0  0
 57 19  1  0  0  0  0
 58 53  1  0  0  0  0
 59 58  1  0  0  0  0
 60 58  1  0  0  0  0
 61 58  1  0  0  0  0
 62 61  1  0  0  0  0
 63 61  1  0  0  0  0
 64 61  1  0  0  0  0
 65 53  1  0  0  0  0
 66 65  1  0  0  0  0
 67 65  1  0  0  0  0
 68 65  1  0  0  0  0
 69 68  1  0  0  0  0
 70 68  1  0  0  0  0
 71 68  1  0  0  0  0
 72 57  1  0  0  0  0
 73 72  1  0  0  0  0
 74 72  1  0  0  0  0
 75 72  1  0  0  0  0
 76 75  1  0  0  0  0
 77 75  1  0  0  0  0
 78 75  1  0  0  0  0
 79 57  1  0  0  0  0
 80 79  1  0  0  0  0
 81 79  1  0  0  0  0
 82 79  1  0  0  0  0
 83 82  1  0  0  0  0
 84 82  1  0  0  0  0
 85 82  1  0  0  0  0
 86  1  1  0  0  0  0
 87 86  4  0  0  0  0
 88 87  1  0  0  0  0
 89 87  4  0  0  0  0
 90 89  1  0  0  0  0
 91 89  4  0  0  0  0
 92 91  1  0  0  0  0
 93 91  4  0  0  0  0
 94 93  1  0  0  0  0
 95 86  4  0  0  0  0
 96 95  1  0  0  0  0
 97 11  1  0  0  0  0
 98 97  4  0  0  0  0
 99 98  1  0  0  0  0
100 98  4  0  0  0  0
101100  1  0  0  0  0
102100  4  0  0  0  0
103102  1  0  0  0  0
104102  4  0  0  0  0
105104  1  0  0  0  0
106 97  4  0  0  0  0
107106  1  0  0  0  0
108 13  1  0  0  0  0
109108  4  0  0  0  0
110109  1  0  0  0  0
111109  4  0  0  0  0
112111  1  0  0  0  0
113111  4  0  0  0  0
114113  1  0  0  0  0
115113  4  0  0  0  0
116115  1  0  0  0  0
117108  4  0  0  0  0
118117  1  0  0  0  0
119  5  1  0  0  0  0
120135  1  0  0  0  0
121119  1  0  0  0  0
122121  1  0  0  0  0
123  1  1  0  0  0  0
124121  1  0  0  0  0
125121  1  0  0  0  0
126125  1  0  0  0  0
127125  1  0  0  0  0
128125  1  0  0  0  0
129124  1  0  0  0  0
130119  1  0  0  0  0
131123  2  0  0  0  0
132124  1  0  0  0  0
133132  4  0  0  0  0
134133  4  0  0  0  0
135134  4  0  0  0  0
136135  4  0  0  0  0
137132  4  0  0  0  0
138133  1  0  0  0  0
139138  1  0  0  0  0
140139  1  0  0  0  0
141139  1  0  0  0  0
142134  1  0  0  0  0
143138  1  0  0  0  0
144143  1  0  0  0  0
145143  1  0  0  0  0
146143  1  0  0  0  0
147146  1  0  0  0  0
148146  1  0  0  0  0
149146  1  0  0  0  0
150138  1  0  0  0  0
151150  1  0  0  0  0
152150  1  0  0  0  0
153150  1  0  0  0  0
154153  1  0  0  0  0
155153  1  0  0  0  0
156153  1  0  0  0  0
157142  1  0  0  0  0
158157  1  0  0  0  0
159157  1  0  0  0  0
160157  1  0  0  0  0
161160  1  0  0  0  0
162160  1  0  0  0  0
163160  1  0  0  0  0
164142  1  0  0  0  0
165164  1  0  0  0  0
166164  1  0  0  0  0
167164  1  0  0  0  0
168167  1  0  0  0  0
169167  1  0  0  0  0
170167  1  0  0  0  0
171136  1  0  0  0  0
172171  1  0  0  0  0
173172  1  0  0  0  0
174172  1  0  0  0  0
175137  1  0  0  0  0
176171  1  0  0  0  0
177176  1  0  0  0  0
178176  1  0  0  0  0
179176  1  0  0  0  0
180179  1  0  0  0  0
181179  1  0  0  0  0
182179  1  0  0  0  0
183171  1  0  0  0  0
184183  1  0  0  0  0
185183  1  0  0  0  0
186183  1  0  0  0  0
187186  1  0  0  0  0
188186  1  0  0  0  0
189186  1  0  0  0  0
190175  1  0  0  0  0
191190  1  0  0  0  0
192190  1  0  0  0  0
193190  1  0  0  0  0
194193  1  0  0  0  0
195193  1  0  0  0  0
196193  1  0  0  0  0
197175  1  0  0  0  0
198197  1  0  0  0  0
199197  1  0  0  0  0
200197  1  0  0  0  0
201200  1  0  0  0  0
202200  1  0  0  0  0
203200  1  0  0  0  0
204119  1  0  0  0  0
205204  4  0  0  0  0
206205  1  0  0  0  0
207205  4  0  0  0  0
208207  1  0  0  0  0
209207  4  0  0  0  0
210209  1  0  0  0  0
211209  4  0  0  0  0
212211  1  0  0  0  0
213204  4  0  0  0  0
214213  1  0  0  0  0
215129  1  0  0  0  0
216215  4  0  0  0  0
217216  1  0  0  0  0
218216  4  0  0  0  0
219218  1  0  0  0  0
220218  4  0  0  0  0
221220  1  0  0  0  0
222220  4  0  0  0  0
223222  1  0  0  0  0
224215  4  0  0  0  0
225224  1  0  0  0  0
226131  1  0  0  0  0
227226  4  0  0  0  0
228227  1  0  0  0  0
229227  4  0  0  0  0
230229  1  0  0  0  0
231229  4  0  0  0  0
232231  1  0  0  0  0
233231  4  0  0  0  0
234233  1  0  0  0  0
235226  4  0  0  0  0
236235  1  0  0  0  0
 11 12  2  0  0  0  0
 18 19  4  0  0  0  0
 21 24  1  0  0  0  0
 54 57  1  0  0  0  0
 93 95  4  0  0  0  0
104106  4  0  0  0  0
115117  4  0  0  0  0
129130  2  0  0  0  0
130131  1  0  0  0  0
136137  4  0  0  0  0
139142  1  0  0  0  0
172175  1  0  0  0  0
211213  4  0  0  0  0
222224  4  0  0  0  0
233235  4  0  0  0  0
M  END
$$$$
RUBSEP

From CSD data. Using bond type 'Any'. Matching problem. No disordered atoms. Largest molecule.
228240  0  0  0  0  0  0  0  0999 V2000
   10.9097    3.5210   12.4678 Br  0  0  0  0  0  0  0  0  0  0  0  0
   16.9550   12.7141    7.2583 Br  0  0  0  0  0  0  0  0  0  0  0  0
   12.3729    9.7416   13.2780 P   0  3  0  0  0  0  0  0  0  0  0  0
   11.5781   10.4445   12.6254 H   0  0  0  0  0  0  0  0  0  0  0  0
   16.4197    6.3483    6.8201 P   0  3  0  0  0  0  0  0  0  0  0  0
   17.5965    5.8153    7.1873 H   0  0  0  0  0  0  0  0  0  0  0  0
   13.5941   12.0046   13.6446 B   0  5  0  0  0  0  0  0  0  0  0  0
   12.9702   12.5861   12.8678 H   0  0  0  0  0  0  0  0  0  0  0  0
   15.8150    3.8664    6.8966 B   0  5  0  0  0  0  0  0  0  0  0  0
   16.9452    3.4595    7.3143 H   0  0  0  0  0  0  0  0  0  0  0  0
   16.7839   10.9915   12.4002 O   0  0  0  0  0  0  0  0  0  0  0  0
   13.0828    3.8114    8.9391 O   0  0  0  0  0  0  0  0  0  0  0  0
   12.6971   10.9569   14.5599 C   0  0  0  0  0  0  0  0  0  0  0  0
   13.2583   10.5582   15.2838 H   0  0  0  0  0  0  0  0  0  0  0  0
   11.4146   11.5779   15.1516 C   0  0  0  0  0  0  0  0  0  0  0  0
   11.6494   12.3720   15.6763 H   0  0  0  0  0  0  0  0  0  0  0  0
   10.9722   10.9223   15.7283 H   0  0  0  0  0  0  0  0  0  0  0  0
   10.8110   11.8349   14.4236 H   0  0  0  0  0  0  0  0  0  0  0  0
   13.9363    9.8136   12.3760 C   0  0  0  0  0  0  0  0  0  0  0  0
   14.4464   11.0293   12.6409 C   0  0  0  0  0  0  0  0  0  0  0  0
   15.9292    5.0542    5.7025 C   0  0  0  0  0  0  0  0  0  0  0  0
   15.0349    5.2470    5.3024 H   0  0  0  0  0  0  0  0  0  0  0  0
   16.9369    4.7379    4.6342 C   0  0  0  0  0  0  0  0  0  0  0  0
   17.8318    4.6984    5.0311 H   0  0  0  0  0  0  0  0  0  0  0  0
   16.9143    5.4348    3.9458 H   0  0  0  0  0  0  0  0  0  0  0  0
   16.7212    3.8714    4.2287 H   0  0  0  0  0  0  0  0  0  0  0  0
   15.3484    5.9899    8.2504 C   0  0  0  0  0  0  0  0  0  0  0  0
   15.1194    4.6605    8.1496 C   0  0  0  0  0  0  0  0  0  0  0  0
   14.3000    3.8483    9.0866 C   0  0  0  0  0  0  0  0  0  0  0  0
   11.6831    8.0624   13.3470 C   0  0  0  0  0  0  0  0  0  0  0  0
   12.1013    7.0871   14.2802 C   0  0  0  0  0  0  0  0  0  0  0  0
   11.8323    5.7247   14.0464 C   0  0  0  0  0  0  0  0  0  0  0  0
   11.1049    5.3722   12.9065 C   0  0  0  0  0  0  0  0  0  0  0  0
   10.5478    6.3343   12.0616 C   0  0  0  0  0  0  0  0  0  0  0  0
   10.8266    7.6901   12.2830 C   0  0  0  0  0  0  0  0  0  0  0  0
   12.8416    7.2782   15.6059 C   0  0  0  0  0  0  0  0  0  0  0  0
   12.8653    5.8450   16.1820 C   0  0  0  0  0  0  0  0  0  0  0  0
   12.1984    5.7659   16.9089 H   0  0  0  0  0  0  0  0  0  0  0  0
   13.7598    5.6506   16.5596 H   0  0  0  0  0  0  0  0  0  0  0  0
   12.5413    4.8285   15.0635 C   0  0  0  0  0  0  0  0  0  0  0  0
   14.2819    7.7790   15.3750 C   0  0  0  0  0  0  0  0  0  0  0  0
   14.7843    7.0789   14.8855 H   0  0  0  0  0  0  0  0  0  0  0  0
   14.2480    8.5797   14.7960 H   0  0  0  0  0  0  0  0  0  0  0  0
   15.0584    8.1332   16.6560 C   0  0  0  0  0  0  0  0  0  0  0  0
   14.6804    8.9437   17.0532 H   0  0  0  0  0  0  0  0  0  0  0  0
   16.0005    8.2864   16.4355 H   0  0  0  0  0  0  0  0  0  0  0  0
   14.9895    7.3935   17.2956 H   0  0  0  0  0  0  0  0  0  0  0  0
   12.0649    8.2057   16.5766 C   0  0  0  0  0  0  0  0  0  0  0  0
   12.4306    8.0805   17.4890 H   0  0  0  0  0  0  0  0  0  0  0  0
   12.2323    9.1447   16.3142 H   0  0  0  0  0  0  0  0  0  0  0  0
   10.5593    7.9833   16.6289 C   0  0  0  0  0  0  0  0  0  0  0  0
   10.1760    8.1299   15.7398 H   0  0  0  0  0  0  0  0  0  0  0  0
   10.1569    8.6126   17.2639 H   0  0  0  0  0  0  0  0  0  0  0  0
   10.3737    7.0657   16.9175 H   0  0  0  0  0  0  0  0  0  0  0  0
   13.8249    4.2816   14.3705 C   0  0  0  0  0  0  0  0  0  0  0  0
   13.5531    3.7478   13.5808 H   0  0  0  0  0  0  0  0  0  0  0  0
   14.3572    5.0493   14.0426 H   0  0  0  0  0  0  0  0  0  0  0  0
   14.7158    3.4167   15.2564 C   0  0  0  0  0  0  0  0  0  0  0  0
   14.9898    3.9290   16.0458 H   0  0  0  0  0  0  0  0  0  0  0  0
   15.5123    3.1432   14.7527 H   0  0  0  0  0  0  0  0  0  0  0  0
   14.2204    2.6194   15.5407 H   0  0  0  0  0  0  0  0  0  0  0  0
   11.7234    3.6572   15.6515 C   0  0  0  0  0  0  0  0  0  0  0  0
   11.7246    2.9159   14.9951 H   0  0  0  0  0  0  0  0  0  0  0  0
   12.1847    3.3343   16.4643 H   0  0  0  0  0  0  0  0  0  0  0  0
   10.2710    3.9735   16.0169 C   0  0  0  0  0  0  0  0  0  0  0  0
   10.2510    4.6523   16.7241 H   0  0  0  0  0  0  0  0  0  0  0  0
    9.8277    3.1597   16.3316 H   0  0  0  0  0  0  0  0  0  0  0  0
    9.8031    4.3145   15.2261 H   0  0  0  0  0  0  0  0  0  0  0  0
    9.6676    6.1135   10.8283 C   0  0  0  0  0  0  0  0  0  0  0  0
    9.1343    7.5336   10.6060 C   0  0  0  0  0  0  0  0  0  0  0  0
    8.2488    7.6275   11.0378 H   0  0  0  0  0  0  0  0  0  0  0  0
    9.0243    7.6999    9.6350 H   0  0  0  0  0  0  0  0  0  0  0  0
   10.1184    8.5632   11.2029 C   0  0  0  0  0  0  0  0  0  0  0  0
    8.4711    5.1498   10.9948 C   0  0  0  0  0  0  0  0  0  0  0  0
    7.8133    5.3409   10.2787 H   0  0  0  0  0  0  0  0  0  0  0  0
    8.7935    4.2239   10.8617 H   0  0  0  0  0  0  0  0  0  0  0  0
    7.7562    5.2272   12.3431 C   0  0  0  0  0  0  0  0  0  0  0  0
    8.3554    4.9060   13.0497 H   0  0  0  0  0  0  0  0  0  0  0  0
    6.9519    4.6671   12.3194 H   0  0  0  0  0  0  0  0  0  0  0  0
    7.5032    6.1563   12.5272 H   0  0  0  0  0  0  0  0  0  0  0  0
   10.5808    5.6292    9.6618 C   0  0  0  0  0  0  0  0  0  0  0  0
   11.3179    6.2799    9.5484 H   0  0  0  0  0  0  0  0  0  0  0  0
   10.9880    4.7643    9.9207 H   0  0  0  0  0  0  0  0  0  0  0  0
    9.8803    5.4496    8.3144 C   0  0  0  0  0  0  0  0  0  0  0  0
    9.1678    4.7824    8.4025 H   0  0  0  0  0  0  0  0  0  0  0  0
   10.5289    5.1481    7.6462 H   0  0  0  0  0  0  0  0  0  0  0  0
    9.4934    6.3046    8.0301 H   0  0  0  0  0  0  0  0  0  0  0  0
    9.2857    9.7608   11.7245 C   0  0  0  0  0  0  0  0  0  0  0  0
    9.8731   10.5582   11.7536 H   0  0  0  0  0  0  0  0  0  0  0  0
    8.5654    9.9470   11.0724 H   0  0  0  0  0  0  0  0  0  0  0  0
    8.6552    9.5862   13.0930 C   0  0  0  0  0  0  0  0  0  0  0  0
    8.2283    8.7049   13.1449 H   0  0  0  0  0  0  0  0  0  0  0  0
    7.9815   10.2847   13.2344 H   0  0  0  0  0  0  0  0  0  0  0  0
    9.3463    9.6554   13.7828 H   0  0  0  0  0  0  0  0  0  0  0  0
   11.1523    9.0492   10.1430 C   0  0  0  0  0  0  0  0  0  0  0  0
   11.7108    9.7592   10.5500 H   0  0  0  0  0  0  0  0  0  0  0  0
   11.7501    8.2930    9.9179 H   0  0  0  0  0  0  0  0  0  0  0  0
   10.5385    9.5912    8.8467 C   0  0  0  0  0  0  0  0  0  0  0  0
   10.0580    8.8729    8.3852 H   0  0  0  0  0  0  0  0  0  0  0  0
   11.2512    9.9322    8.2668 H   0  0  0  0  0  0  0  0  0  0  0  0
    9.9155   10.3177    9.0577 H   0  0  0  0  0  0  0  0  0  0  0  0
   16.7249    8.0953    6.5003 C   0  0  0  0  0  0  0  0  0  0  0  0
   17.8447    8.6423    7.1887 C   0  0  0  0  0  0  0  0  0  0  0  0
   17.9448   10.0426    7.3403 C   0  0  0  0  0  0  0  0  0  0  0  0
   16.9408   10.8481    6.8346 C   0  0  0  0  0  0  0  0  0  0  0  0
   15.8971   10.3473    6.0500 C   0  0  0  0  0  0  0  0  0  0  0  0
   15.7974    8.9569    5.8676 C   0  0  0  0  0  0  0  0  0  0  0  0
   19.0258    7.9471    7.9054 C   0  0  0  0  0  0  0  0  0  0  0  0
   19.9711    9.1414    8.1617 C   0  0  0  0  0  0  0  0  0  0  0  0
   20.4294    9.0245    9.0317 H   0  0  0  0  0  0  0  0  0  0  0  0
   20.6602    9.1810    7.4528 H   0  0  0  0  0  0  0  0  0  0  0  0
   19.1648   10.4363    8.1716 C   0  0  0  0  0  0  0  0  0  0  0  0
   19.8210    6.9191    7.0473 C   0  0  0  0  0  0  0  0  0  0  0  0
   20.7429    6.8598    7.4066 H   0  0  0  0  0  0  0  0  0  0  0  0
   19.4038    6.0295    7.1584 H   0  0  0  0  0  0  0  0  0  0  0  0
   19.9074    7.2206    5.5743 C   0  0  0  0  0  0  0  0  0  0  0  0
   19.0063    7.2090    5.1870 H   0  0  0  0  0  0  0  0  0  0  0  0
   20.4623    6.5435    5.1350 H   0  0  0  0  0  0  0  0  0  0  0  0
   20.3070    8.1052    5.4439 H   0  0  0  0  0  0  0  0  0  0  0  0
   18.5707    7.3046    9.2514 C   0  0  0  0  0  0  0  0  0  0  0  0
   18.0650    7.9817    9.7678 H   0  0  0  0  0  0  0  0  0  0  0  0
   17.9492    6.5599    9.0490 H   0  0  0  0  0  0  0  0  0  0  0  0
   19.6915    6.7675   10.1315 C   0  0  0  0  0  0  0  0  0  0  0  0
   20.2594    6.1679    9.6061 H   0  0  0  0  0  0  0  0  0  0  0  0
   19.3061    6.2749   10.8848 H   0  0  0  0  0  0  0  0  0  0  0  0
   20.2272    7.5154   10.4692 H   0  0  0  0  0  0  0  0  0  0  0  0
   20.0263   11.5516    7.5576 C   0  0  0  0  0  0  0  0  0  0  0  0
   19.6180   12.4247    7.7848 H   0  0  0  0  0  0  0  0  0  0  0  0
   20.9223   11.5236    7.9811 H   0  0  0  0  0  0  0  0  0  0  0  0
   20.2063   11.4824    6.0379 C   0  0  0  0  0  0  0  0  0  0  0  0
   20.5585   10.6027    5.7902 H   0  0  0  0  0  0  0  0  0  0  0  0
   20.8341   12.1792    5.7498 H   0  0  0  0  0  0  0  0  0  0  0  0
   19.3414   11.6224    5.5997 H   0  0  0  0  0  0  0  0  0  0  0  0
   18.7079   10.8349    9.6076 C   0  0  0  0  0  0  0  0  0  0  0  0
   18.0562   11.5779    9.5340 H   0  0  0  0  0  0  0  0  0  0  0  0
   18.2338   10.0640   10.0102 H   0  0  0  0  0  0  0  0  0  0  0  0
   19.8132   11.2616   10.5535 C   0  0  0  0  0  0  0  0  0  0  0  0
   20.5010   10.5648   10.5875 H   0  0  0  0  0  0  0  0  0  0  0  0
   19.4420   11.3967   11.4506 H   0  0  0  0  0  0  0  0  0  0  0  0
   20.2098   12.0985   10.2354 H   0  0  0  0  0  0  0  0  0  0  0  0
   14.6846   11.0755    5.4773 C   0  0  0  0  0  0  0  0  0  0  0  0
   14.0780    9.9799    4.5511 C   0  0  0  0  0  0  0  0  0  0  0  0
   13.0884   10.0112    4.6010 H   0  0  0  0  0  0  0  0  0  0  0  0
   14.3473   10.1496    3.6138 H   0  0  0  0  0  0  0  0  0  0  0  0
   14.5791    8.5862    4.9959 C   0  0  0  0  0  0  0  0  0  0  0  0
   13.7383   11.4165    6.6469 C   0  0  0  0  0  0  0  0  0  0  0  0
   13.5040   10.5747    7.1122 H   0  0  0  0  0  0  0  0  0  0  0  0
   14.2315   11.9832    7.2912 H   0  0  0  0  0  0  0  0  0  0  0  0
   12.4373   12.1347    6.2740 C   0  0  0  0  0  0  0  0  0  0  0  0
   12.6484   12.9980    5.8595 H   0  0  0  0  0  0  0  0  0  0  0  0
   11.9032   12.2830    7.0805 H   0  0  0  0  0  0  0  0  0  0  0  0
   11.9285   11.5845    5.6430 H   0  0  0  0  0  0  0  0  0  0  0  0
   14.9976   12.3539    4.6440 C   0  0  0  0  0  0  0  0  0  0  0  0
   14.2162   12.5515    4.0699 H   0  0  0  0  0  0  0  0  0  0  0  0
   15.1067   13.1150    5.2678 H   0  0  0  0  0  0  0  0  0  0  0  0
   16.2298   12.2698    3.7674 C   0  0  0  0  0  0  0  0  0  0  0  0
   17.0223   12.1380    4.3297 H   0  0  0  0  0  0  0  0  0  0  0  0
   16.3246   13.1001    3.2559 H   0  0  0  0  0  0  0  0  0  0  0  0
   16.1391   11.5153    3.1491 H   0  0  0  0  0  0  0  0  0  0  0  0
   13.4971    7.8433    5.8125 C   0  0  0  0  0  0  0  0  0  0  0  0
   13.9239    7.0855    6.2838 H   0  0  0  0  0  0  0  0  0  0  0  0
   13.1445    8.4627    6.5003 H   0  0  0  0  0  0  0  0  0  0  0  0
   12.3212    7.3062    5.0022 C   0  0  0  0  0  0  0  0  0  0  0  0
   11.9522    8.0245    4.4480 H   0  0  0  0  0  0  0  0  0  0  0  0
   11.6307    6.9734    5.6113 H   0  0  0  0  0  0  0  0  0  0  0  0
   12.6300    6.5764    4.4249 H   0  0  0  0  0  0  0  0  0  0  0  0
   14.9867    7.7790    3.7377 C   0  0  0  0  0  0  0  0  0  0  0  0
   15.1309    6.8384    4.0064 H   0  0  0  0  0  0  0  0  0  0  0  0
   14.2290    7.7938    3.1001 H   0  0  0  0  0  0  0  0  0  0  0  0
   16.2173    8.2584    3.0184 C   0  0  0  0  0  0  0  0  0  0  0  0
   16.0878    9.1875    2.7306 H   0  0  0  0  0  0  0  0  0  0  0  0
   16.3781    7.6950    2.2341 H   0  0  0  0  0  0  0  0  0  0  0  0
   16.9889    8.2090    3.6196 H   0  0  0  0  0  0  0  0  0  0  0  0
   14.5581   12.9667   14.5425 C   0  0  0  0  0  0  0  0  0  0  0  0
   15.4435   12.4758   15.4665 C   0  0  0  0  0  0  0  0  0  0  0  0
   15.5590   11.1461   15.6645 F   0  0  0  0  0  0  0  0  0  0  0  0
   16.2946   13.2599   16.2507 C   0  0  0  0  0  0  0  0  0  0  0  0
   17.1202   12.7192   17.1473 F   0  0  0  0  0  0  0  0  0  0  0  0
   16.2794   14.6207   16.0701 C   0  0  0  0  0  0  0  0  0  0  0  0
   17.0830   15.4103   16.8038 F   0  0  0  0  0  0  0  0  0  0  0  0
   15.4154   15.1660   15.1363 C   0  0  0  0  0  0  0  0  0  0  0  0
   15.4101   16.5051   14.9478 F   0  0  0  0  0  0  0  0  0  0  0  0
   14.5825   14.3373   14.4115 C   0  0  0  0  0  0  0  0  0  0  0  0
   13.7603   14.9571   13.5323 F   0  0  0  0  0  0  0  0  0  0  0  0
   14.9935    2.5617    6.3929 C   0  0  0  0  0  0  0  0  0  0  0  0
   15.5580    1.2916    6.4501 C   0  0  0  0  0  0  0  0  0  0  0  0
   16.8231    1.1047    6.8576 F   0  0  0  0  0  0  0  0  0  0  0  0
   14.8632    0.1466    6.1089 C   0  0  0  0  0  0  0  0  0  0  0  0
   15.4380   -1.0594    6.1793 F   0  0  0  0  0  0  0  0  0  0  0  0
   13.5669    0.2405    5.7022 C   0  0  0  0  0  0  0  0  0  0  0  0
   12.8562   -0.8484    5.3728 F   0  0  0  0  0  0  0  0  0  0  0  0
   12.9709    1.4942    5.6196 C   0  0  0  0  0  0  0  0  0  0  0  0
   11.6926    1.5864    5.2152 F   0  0  0  0  0  0  0  0  0  0  0  0
   13.6974    2.6012    5.9530 C   0  0  0  0  0  0  0  0  0  0  0  0
   13.0584    3.8001    5.8592 F   0  0  0  0  0  0  0  0  0  0  0  0
   14.3404    8.8218   11.3654 C   0  0  0  0  0  0  0  0  0  0  0  0
   14.4144    7.4528   11.6151 C   0  0  0  0  0  0  0  0  0  0  0  0
   14.2230    7.1316   12.4868 H   0  0  0  0  0  0  0  0  0  0  0  0
   14.7632    6.5451   10.6259 C   0  0  0  0  0  0  0  0  0  0  0  0
   14.8383    5.6226   10.8415 H   0  0  0  0  0  0  0  0  0  0  0  0
   15.0079    6.9718    9.3111 C   0  0  0  0  0  0  0  0  0  0  0  0
   14.9435    8.3474    9.0727 C   0  0  0  0  0  0  0  0  0  0  0  0
   15.1227    8.6736    8.1975 H   0  0  0  0  0  0  0  0  0  0  0  0
   14.6245    9.2436   10.0639 C   0  0  0  0  0  0  0  0  0  0  0  0
   14.5966   10.1710    9.8601 H   0  0  0  0  0  0  0  0  0  0  0  0
   15.7362   11.5252   12.0665 C   0  0  0  0  0  0  0  0  0  0  0  0
   15.5931   12.7822   11.1735 C   0  0  0  0  0  0  0  0  0  0  0  0
   14.4215   13.0902   10.4807 C   0  0  0  0  0  0  0  0  0  0  0  0
   13.6726   12.5071   10.5356 H   0  0  0  0  0  0  0  0  0  0  0  0
   14.3422   14.2615    9.7100 C   0  0  0  0  0  0  0  0  0  0  0  0
   13.5408   14.4757    9.2453 H   0  0  0  0  0  0  0  0  0  0  0  0
   15.4572   15.1165    9.6263 C   0  0  0  0  0  0  0  0  0  0  0  0
   15.4187   15.8941    9.0808 H   0  0  0  0  0  0  0  0  0  0  0  0
   16.6381   14.8200   10.3479 C   0  0  0  0  0  0  0  0  0  0  0  0
   17.3789   15.4164   10.3335 H   0  0  0  0  0  0  0  0  0  0  0  0
   16.6927   13.6289   11.0811 C   0  0  0  0  0  0  0  0  0  0  0  0
   17.4981   13.3950   11.5256 H   0  0  0  0  0  0  0  0  0  0  0  0
   14.9962    3.0147   10.0925 C   0  0  0  0  0  0  0  0  0  0  0  0
   14.2438    2.1614   10.9114 C   0  0  0  0  0  0  0  0  0  0  0  0
   13.3035    2.0988   10.7925 H   0  0  0  0  0  0  0  0  0  0  0  0
   14.8683    1.4118   11.8882 C   0  0  0  0  0  0  0  0  0  0  0  0
   14.3536    0.8435   12.4493 H   0  0  0  0  0  0  0  0  0  0  0  0
   16.2433    1.4810   12.0550 C   0  0  0  0  0  0  0  0  0  0  0  0
   16.6712    0.9588   12.7235 H   0  0  0  0  0  0  0  0  0  0  0  0
   16.9847    2.3064   11.2479 C   0  0  0  0  0  0  0  0  0  0  0  0
   17.9262    2.3591   11.3611 H   0  0  0  0  0  0  0  0  0  0  0  0
   16.3648    3.0642   10.2697 C   0  0  0  0  0  0  0  0  0  0  0  0
   16.8901    3.6259    9.7100 H   0  0  0  0  0  0  0  0  0  0  0  0
  1 33  1  0  0  0  0
  2105  1  0  0  0  0
  3  4  1  0  0  0  0
  5  6  1  0  0  0  0
  7  8  1  0  0  0  0
  9 10  1  0  0  0  0
 11206  2  0  0  0  0
 12 29  2  0  0  0  0
 13  3  1  0  0  0  0
 14 13  1  0  0  0  0
 15 13  1  0  0  0  0
 16 15  1  0  0  0  0
 17 15  1  0  0  0  0
 18 15  1  0  0  0  0
 19  3  1  0  0  0  0
 20  7  1  0  0  0  0
 21  5  1  0  0  0  0
 22 21  1  0  0  0  0
 23 21  1  0  0  0  0
 24 23  1  0  0  0  0
 25 23  1  0  0  0  0
 26 23  1  0  0  0  0
 27  5  1  0  0  0  0
 28  9  1  0  0  0  0
 29 28  1  0  0  0  0
 30  3  1  0  0  0  0
 31 30  4  0  0  0  0
 32 31  4  0  0  0  0
 33 32  4  0  0  0  0
 34 33  4  0  0  0  0
 35 30  4  0  0  0  0
 36 31  1  0  0  0  0
 37 36  1  0  0  0  0
 38 37  1  0  0  0  0
 39 37  1  0  0  0  0
 40 32  1  0  0  0  0
 41 36  1  0  0  0  0
 42 41  1  0  0  0  0
 43 41  1  0  0  0  0
 44 41  1  0  0  0  0
 45 44  1  0  0  0  0
 46 44  1  0  0  0  0
 47 44  1  0  0  0  0
 48 36  1  0  0  0  0
 49 48  1  0  0  0  0
 50 48  1  0  0  0  0
 51 48  1  0  0  0  0
 52 51  1  0  0  0  0
 53 51  1  0  0  0  0
 54 51  1  0  0  0  0
 55 40  1  0  0  0  0
 56 55  1  0  0  0  0
 57 55  1  0  0  0  0
 58 55  1  0  0  0  0
 59 58  1  0  0  0  0
 60 58  1  0  0  0  0
 61 58  1  0  0  0  0
 62 40  1  0  0  0  0
 63 62  1  0  0  0  0
 64 62  1  0  0  0  0
 65 62  1  0  0  0  0
 66 65  1  0  0  0  0
 67 65  1  0  0  0  0
 68 65  1  0  0  0  0
 69 34  1  0  0  0  0
 70 69  1  0  0  0  0
 71 70  1  0  0  0  0
 72 70  1  0  0  0  0
 73 35  1  0  0  0  0
 74 69  1  0  0  0  0
 75 74  1  0  0  0  0
 76 74  1  0  0  0  0
 77 74  1  0  0  0  0
 78 77  1  0  0  0  0
 79 77  1  0  0  0  0
 80 77  1  0  0  0  0
 81 69  1  0  0  0  0
 82 81  1  0  0  0  0
 83 81  1  0  0  0  0
 84 81  1  0  0  0  0
 85 84  1  0  0  0  0
 86 84  1  0  0  0  0
 87 84  1  0  0  0  0
 88 73  1  0  0  0  0
 89 88  1  0  0  0  0
 90 88  1  0  0  0  0
 91 88  1  0  0  0  0
 92 91  1  0  0  0  0
 93 91  1  0  0  0  0
 94 91  1  0  0  0  0
 95 73  1  0  0  0  0
 96 95  1  0  0  0  0
 97 95  1  0  0  0  0
 98 95  1  0  0  0  0
 99 98  1  0  0  0  0
100 98  1  0  0  0  0
101 98  1  0  0  0  0
102  5  1  0  0  0  0
103102  4  0  0  0  0
104103  4  0  0  0  0
105104  4  0  0  0  0
106105  4  0  0  0  0
107102  4  0  0  0  0
108103  1  0  0  0  0
109108  1  0  0  0  0
110109  1  0  0  0  0
111109  1  0  0  0  0
112104  1  0  0  0  0
113108  1  0  0  0  0
114113  1  0  0  0  0
115113  1  0  0  0  0
116113  1  0  0  0  0
117116  1  0  0  0  0
118116  1  0  0  0  0
119116  1  0  0  0  0
120108  1  0  0  0  0
121120  1  0  0  0  0
122120  1  0  0  0  0
123120  1  0  0  0  0
124123  1  0  0  0  0
125123  1  0  0  0  0
126123  1  0  0  0  0
127112  1  0  0  0  0
128127  1  0  0  0  0
129127  1  0  0  0  0
130127  1  0  0  0  0
131130  1  0  0  0  0
132130  1  0  0  0  0
133130  1  0  0  0  0
134112  1  0  0  0  0
135134  1  0  0  0  0
136134  1  0  0  0  0
137134  1  0  0  0  0
138137  1  0  0  0  0
139137  1  0  0  0  0
140137  1  0  0  0  0
141106  1  0  0  0  0
142141  1  0  0  0  0
143142  1  0  0  0  0
144142  1  0  0  0  0
145107  1  0  0  0  0
146141  1  0  0  0  0
147146  1  0  0  0  0
148146  1  0  0  0  0
149146  1  0  0  0  0
150149  1  0  0  0  0
151149  1  0  0  0  0
152149  1  0  0  0  0
153141  1  0  0  0  0
154153  1  0  0  0  0
155153  1  0  0  0  0
156153  1  0  0  0  0
157156  1  0  0  0  0
158156  1  0  0  0  0
159156  1  0  0  0  0
160145  1  0  0  0  0
161160  1  0  0  0  0
162160  1  0  0  0  0
163160  1  0  0  0  0
164163  1  0  0  0  0
165163  1  0  0  0  0
166163  1  0  0  0  0
167145  1  0  0  0  0
168167  1  0  0  0  0
169167  1  0  0  0  0
170167  1  0  0  0  0
171170  1  0  0  0  0
172170  1  0  0  0  0
173170  1  0  0  0  0
174  7  1  0  0  0  0
175174  4  0  0  0  0
176175  1  0  0  0  0
177175  4  0  0  0  0
178177  1  0  0  0  0
179177  4  0  0  0  0
180179  1  0  0  0  0
181179  4  0  0  0  0
182181  1  0  0  0  0
183174  4  0  0  0  0
184183  1  0  0  0  0
185  9  1  0  0  0  0
186185  4  0  0  0  0
187186  1  0  0  0  0
188186  4  0  0  0  0
189188  1  0  0  0  0
190188  4  0  0  0  0
191190  1  0  0  0  0
192190  4  0  0  0  0
193192  1  0  0  0  0
194185  4  0  0  0  0
195194  1  0  0  0  0
196 19  1  0  0  0  0
197196  4  0  0  0  0
198197  1  0  0  0  0
199197  4  0  0  0  0
200199  1  0  0  0  0
201 27  1  0  0  0  0
202201  4  0  0  0  0
203202  1  0  0  0  0
204196  4  0  0  0  0
205204  1  0  0  0  0
206 20  1  0  0  0  0
207206  1  0  0  0  0
208207  4  0  0  0  0
209208  1  0  0  0  0
210208  4  0  0  0  0
211210  1  0  0  0  0
212210  4  0  0  0  0
213212  1  0  0  0  0
214212  4  0  0  0  0
215214  1  0  0  0  0
216207  4  0  0  0  0
217216  1  0  0  0  0
218 29  1  0  0  0  0
219218  4  0  0  0  0
220219  1  0  0  0  0
221219  4  0  0  0  0
222221  1  0  0  0  0
223221  4  0  0  0  0
224223  1  0  0  0  0
225223  4  0  0  0  0
226225  1  0  0  0  0
227218  4  0  0  0  0
228227  1  0  0  0  0
  7 13  1  0  0  0  0
  9 21  1  0  0  0  0
 19 20  2  0  0  0  0
 27 28  2  0  0  0  0
 34 35  4  0  0  0  0
 37 40  1  0  0  0  0
 70 73  1  0  0  0  0
106107  4  0  0  0  0
109112  1  0  0  0  0
142145  1  0  0  0  0
181183  4  0  0  0  0
192194  4  0  0  0  0
199201  4  0  0  0  0
202204  4  0  0  0  0
214216  4  0  0  0  0
225227  4  0  0  0  0
M  CHG  4   3   1   5   1   7  -1   9  -1
M  END
$$$$
RUKSOG

From CSD data. Using bond type 'Any'. No disordered atoms. Largest molecule.
138143  0  0  0  0  0  0  0  0999 V2000
   10.6350    6.2889   10.5369 K   0  0  0  0  0  0  0  0  0  0  0  0
   11.7938    9.4310    8.3586 Si  0  0  0  0  0  0  0  0  0  0  0  0
   13.4550    8.6918   10.9121 Si  0  0  0  0  0  0  0  0  0  0  0  0
   10.6763    9.8275   11.2040 P   0  0  0  0  0  0  0  0  0  0  0  0
    9.2939    5.6061    8.2943 O   0  0  0  0  0  0  0  0  0  0  0  0
   12.1871    4.1949   10.0695 O   0  0  0  0  0  0  0  0  0  0  0  0
   11.8125    9.0459   10.1481 C   0  0  0  0  0  0  0  0  0  0  0  0
   14.7442    8.1223    9.6527 C   0  0  0  0  0  0  0  0  0  0  0  0
   15.5904    7.9390   10.1125 H   0  0  0  0  0  0  0  0  0  0  0  0
   14.8826    8.8275    8.9857 H   0  0  0  0  0  0  0  0  0  0  0  0
   14.4298    7.3077    9.2083 H   0  0  0  0  0  0  0  0  0  0  0  0
   14.2179   10.2040   11.7450 C   0  0  0  0  0  0  0  0  0  0  0  0
   15.1096    9.9766   12.0832 H   0  0  0  0  0  0  0  0  0  0  0  0
   13.6489   10.4880   12.4906 H   0  0  0  0  0  0  0  0  0  0  0  0
   14.2918   10.9334   11.0947 H   0  0  0  0  0  0  0  0  0  0  0  0
   13.4366    7.2698   12.1673 C   0  0  0  0  0  0  0  0  0  0  0  0
   12.6871    7.4154   12.7962 H   0  0  0  0  0  0  0  0  0  0  0  0
   13.2598    6.4250   11.6832 H   0  0  0  0  0  0  0  0  0  0  0  0
    8.9359    9.4745   10.7463 C   0  0  0  0  0  0  0  0  0  0  0  0
    8.3343    9.9659   11.3437 H   0  0  0  0  0  0  0  0  0  0  0  0
    8.7655    8.5130   10.8281 H   0  0  0  0  0  0  0  0  0  0  0  0
    8.7780    9.7553    9.8207 H   0  0  0  0  0  0  0  0  0  0  0  0
   10.7254   11.6498   11.0513 C   0  0  0  0  0  0  0  0  0  0  0  0
   10.0213   12.0429   11.6078 H   0  0  0  0  0  0  0  0  0  0  0  0
   10.5820   11.9035   10.1163 H   0  0  0  0  0  0  0  0  0  0  0  0
   11.5994   11.9787   11.3487 H   0  0  0  0  0  0  0  0  0  0  0  0
   12.1230    7.9083    7.3065 C   0  0  0  0  0  0  0  0  0  0  0  0
   11.4169    7.2465    7.4602 H   0  0  0  0  0  0  0  0  0  0  0  0
   12.9899    7.5230    7.5507 H   0  0  0  0  0  0  0  0  0  0  0  0
   12.1332    8.1614    6.3598 H   0  0  0  0  0  0  0  0  0  0  0  0
   10.1494   10.0638    7.6752 C   0  0  0  0  0  0  0  0  0  0  0  0
    9.4778    9.3520    7.7280 H   0  0  0  0  0  0  0  0  0  0  0  0
   10.2662   10.3335    6.7396 H   0  0  0  0  0  0  0  0  0  0  0  0
    9.8506   10.8344    8.2022 H   0  0  0  0  0  0  0  0  0  0  0  0
   13.0260   10.7622    7.8349 C   0  0  0  0  0  0  0  0  0  0  0  0
   13.9392   10.4367    7.9796 H   0  0  0  0  0  0  0  0  0  0  0  0
   12.8792   11.5713    8.3682 H   0  0  0  0  0  0  0  0  0  0  0  0
   12.8999   10.9686    6.8854 H   0  0  0  0  0  0  0  0  0  0  0  0
    7.8035    5.0993    8.2625 C   0  0  0  0  0  0  0  0  0  0  0  0
    7.3524    5.2089    9.1366 H   0  0  0  0  0  0  0  0  0  0  0  0
    7.2730    5.5424    7.5532 H   0  0  0  0  0  0  0  0  0  0  0  0
    8.0768    3.6944    7.9532 C   0  0  0  0  0  0  0  0  0  0  0  0
    8.5682    3.2437    8.6851 H   0  0  0  0  0  0  0  0  0  0  0  0
    7.2474    3.1920    7.7507 H   0  0  0  0  0  0  0  0  0  0  0  0
    8.8574    3.8611    6.8402 C   0  0  0  0  0  0  0  0  0  0  0  0
    8.3360    4.2309    6.0843 H   0  0  0  0  0  0  0  0  0  0  0  0
    9.2777    3.0081    6.5622 H   0  0  0  0  0  0  0  0  0  0  0  0
    9.8157    4.7791    7.3005 C   0  0  0  0  0  0  0  0  0  0  0  0
   10.5951    4.2867    7.6601 H   0  0  0  0  0  0  0  0  0  0  0  0
   10.1278    5.3337    6.5434 H   0  0  0  0  0  0  0  0  0  0  0  0
   11.7958    2.8462   10.3615 C   0  0  0  0  0  0  0  0  0  0  0  0
   10.8631    2.6873   10.0722 H   0  0  0  0  0  0  0  0  0  0  0  0
   11.8598    2.6710   11.3336 H   0  0  0  0  0  0  0  0  0  0  0  0
   12.7023    1.9855    9.6346 C   0  0  0  0  0  0  0  0  0  0  0  0
   13.1384    1.3539   10.2596 H   0  0  0  0  0  0  0  0  0  0  0  0
   12.1978    1.4589    8.9643 H   0  0  0  0  0  0  0  0  0  0  0  0
   13.6812    2.7677    8.9869 C   0  0  0  0  0  0  0  0  0  0  0  0
   13.5841    2.6984    8.0047 H   0  0  0  0  0  0  0  0  0  0  0  0
   14.5889    2.4607    9.2372 H   0  0  0  0  0  0  0  0  0  0  0  0
   13.4686    4.1783    9.4329 C   0  0  0  0  0  0  0  0  0  0  0  0
   14.1758    4.4537   10.0685 H   0  0  0  0  0  0  0  0  0  0  0  0
   13.4794    4.7937    8.6574 H   0  0  0  0  0  0  0  0  0  0  0  0
   10.7087    9.3893   13.0835 B   0  0  0  0  0  0  0  0  0  0  0  0
   10.4487    8.2825   13.1647 H   0  0  0  0  0  0  0  0  0  0  0  0
   11.7200    9.6295   13.5571 H   0  0  0  0  0  0  0  0  0  0  0  0
    9.8764   10.0058   13.4816 H   0  0  0  0  0  0  0  0  0  0  0  0
   17.5414    8.0850   14.6154 K   0  0  0  0  0  0  0  0  0  0  0  0
    8.2013    8.0850   14.6154 K   0  0  0  0  0  0  0  0  0  0  0  0
   19.9751    6.2889   10.5369 K   0  0  0  0  0  0  0  0  0  0  0  0
   16.3826    4.9428   16.7937 Si  0  0  0  0  0  0  0  0  0  0  0  0
   14.7214    5.6821   14.2402 Si  0  0  0  0  0  0  0  0  0  0  0  0
   17.5001    4.5464   13.9483 P   0  0  0  0  0  0  0  0  0  0  0  0
   18.8825    8.7678   16.8579 O   0  0  0  0  0  0  0  0  0  0  0  0
   15.9893   10.1790   15.0828 O   0  0  0  0  0  0  0  0  0  0  0  0
   16.3639    5.3280   15.0042 C   0  0  0  0  0  0  0  0  0  0  0  0
   13.4322    6.2515   15.4996 C   0  0  0  0  0  0  0  0  0  0  0  0
   12.5861    6.4349   15.0398 H   0  0  0  0  0  0  0  0  0  0  0  0
   13.2938    5.5464   16.1666 H   0  0  0  0  0  0  0  0  0  0  0  0
   13.7466    7.0661   15.9440 H   0  0  0  0  0  0  0  0  0  0  0  0
   13.9585    4.1699   13.4073 C   0  0  0  0  0  0  0  0  0  0  0  0
   13.0668    4.3973   13.0691 H   0  0  0  0  0  0  0  0  0  0  0  0
   14.5276    3.8859   12.6617 H   0  0  0  0  0  0  0  0  0  0  0  0
   13.8846    3.4404   14.0576 H   0  0  0  0  0  0  0  0  0  0  0  0
   14.7398    7.1040   12.9850 C   0  0  0  0  0  0  0  0  0  0  0  0
   15.4893    6.9585   12.3561 H   0  0  0  0  0  0  0  0  0  0  0  0
   14.9166    7.9488   13.4691 H   0  0  0  0  0  0  0  0  0  0  0  0
   19.2405    4.8994   14.4060 C   0  0  0  0  0  0  0  0  0  0  0  0
   19.8421    4.4080   13.8086 H   0  0  0  0  0  0  0  0  0  0  0  0
   19.4109    5.8609   14.3242 H   0  0  0  0  0  0  0  0  0  0  0  0
   19.3984    4.6185   15.3316 H   0  0  0  0  0  0  0  0  0  0  0  0
   17.4510    2.7240   14.1010 C   0  0  0  0  0  0  0  0  0  0  0  0
   18.1551    2.3310   13.5445 H   0  0  0  0  0  0  0  0  0  0  0  0
   17.5944    2.4703   15.0360 H   0  0  0  0  0  0  0  0  0  0  0  0
   16.5770    2.3951   13.8036 H   0  0  0  0  0  0  0  0  0  0  0  0
   16.0534    6.4655   17.8458 C   0  0  0  0  0  0  0  0  0  0  0  0
   16.7595    7.1274   17.6921 H   0  0  0  0  0  0  0  0  0  0  0  0
   15.1865    6.8509   17.6016 H   0  0  0  0  0  0  0  0  0  0  0  0
   16.0432    6.2125   18.7925 H   0  0  0  0  0  0  0  0  0  0  0  0
   18.0270    4.3100   17.4771 C   0  0  0  0  0  0  0  0  0  0  0  0
   18.6986    5.0219   17.4243 H   0  0  0  0  0  0  0  0  0  0  0  0
   17.9102    4.0403   18.4127 H   0  0  0  0  0  0  0  0  0  0  0  0
   18.3258    3.5395   16.9501 H   0  0  0  0  0  0  0  0  0  0  0  0
   15.1504    3.6117   17.3174 C   0  0  0  0  0  0  0  0  0  0  0  0
   14.2372    3.9371   17.1727 H   0  0  0  0  0  0  0  0  0  0  0  0
   15.2972    2.8026   16.7841 H   0  0  0  0  0  0  0  0  0  0  0  0
   15.2765    3.4052   18.2669 H   0  0  0  0  0  0  0  0  0  0  0  0
   20.3729    9.2746   16.8898 C   0  0  0  0  0  0  0  0  0  0  0  0
   20.8240    9.1649   16.0157 H   0  0  0  0  0  0  0  0  0  0  0  0
   20.9035    8.8314   17.5991 H   0  0  0  0  0  0  0  0  0  0  0  0
   20.0996   10.6795   17.1991 C   0  0  0  0  0  0  0  0  0  0  0  0
   19.6082   11.1302   16.4672 H   0  0  0  0  0  0  0  0  0  0  0  0
   20.9290   11.1818   17.4016 H   0  0  0  0  0  0  0  0  0  0  0  0
   19.3190   10.5127   18.3121 C   0  0  0  0  0  0  0  0  0  0  0  0
   19.8404   10.1430   19.0680 H   0  0  0  0  0  0  0  0  0  0  0  0
   18.8987   11.3658   18.5901 H   0  0  0  0  0  0  0  0  0  0  0  0
   18.3607    9.5948   17.8518 C   0  0  0  0  0  0  0  0  0  0  0  0
   17.5813   10.0872   17.4922 H   0  0  0  0  0  0  0  0  0  0  0  0
   18.0486    9.0402   18.6089 H   0  0  0  0  0  0  0  0  0  0  0  0
   16.3806   11.5277   14.7908 C   0  0  0  0  0  0  0  0  0  0  0  0
   17.3133   11.6865   15.0801 H   0  0  0  0  0  0  0  0  0  0  0  0
   16.3166   11.7029   13.8187 H   0  0  0  0  0  0  0  0  0  0  0  0
   15.4741   12.3883   15.5177 C   0  0  0  0  0  0  0  0  0  0  0  0
   15.0380   13.0200   14.8927 H   0  0  0  0  0  0  0  0  0  0  0  0
   15.9786   12.9150   16.1880 H   0  0  0  0  0  0  0  0  0  0  0  0
   14.4952   11.6061   16.1654 C   0  0  0  0  0  0  0  0  0  0  0  0
   14.5924   11.6754   17.1476 H   0  0  0  0  0  0  0  0  0  0  0  0
   13.5875   11.9132   15.9151 H   0  0  0  0  0  0  0  0  0  0  0  0
   14.7079   10.1955   15.7194 C   0  0  0  0  0  0  0  0  0  0  0  0
   14.0006    9.9202   15.0838 H   0  0  0  0  0  0  0  0  0  0  0  0
   14.6970    9.5802   16.4949 H   0  0  0  0  0  0  0  0  0  0  0  0
   17.4678    4.9846   12.0688 B   0  0  0  0  0  0  0  0  0  0  0  0
   17.7277    6.0913   11.9876 H   0  0  0  0  0  0  0  0  0  0  0  0
    8.3876    6.0913   11.9876 H   0  0  0  0  0  0  0  0  0  0  0  0
   19.7888    8.2825   13.1647 H   0  0  0  0  0  0  0  0  0  0  0  0
   16.4564    4.7444   11.5952 H   0  0  0  0  0  0  0  0  0  0  0  0
   18.3000    4.3681   11.6707 H   0  0  0  0  0  0  0  0  0  0  0  0
    8.9599    4.3681   11.6707 H   0  0  0  0  0  0  0  0  0  0  0  0
   19.2165   10.0058   13.4816 H   0  0  0  0  0  0  0  0  0  0  0  0
  1  5  1  0  0  0  0
  2  7  1  0  0  0  0
  3  7  1  0  0  0  0
  4  7  1  0  0  0  0
  5 39  1  0  0  0  0
  6  1  1  0  0  0  0
  7  1  1  0  0  0  0
  8  3  1  0  0  0  0
  9  8  1  0  0  0  0
 10  8  1  0  0  0  0
 11  8  1  0  0  0  0
 12  3  1  0  0  0  0
 13 12  1  0  0  0  0
 14 12  1  0  0  0  0
 15 12  1  0  0  0  0
 16  3  1  0  0  0  0
 17 16  1  0  0  0  0
 18 16  1  0  0  0  0
 19  4  1  0  0  0  0
 20 19  1  0  0  0  0
 21 19  1  0  0  0  0
 22 19  1  0  0  0  0
 23  4  1  0  0  0  0
 24 23  1  0  0  0  0
 25 23  1  0  0  0  0
 26 23  1  0  0  0  0
 27  2  1  0  0  0  0
 28 27  1  0  0  0  0
 29 27  1  0  0  0  0
 30 27  1  0  0  0  0
 31  2  1  0  0  0  0
 32 31  1  0  0  0  0
 33 31  1  0  0  0  0
 34 31  1  0  0  0  0
 35  2  1  0  0  0  0
 36 35  1  0  0  0  0
 37 35  1  0  0  0  0
 38 35  1  0  0  0  0
 39 40  1  0  0  0  0
 41 39  1  0  0  0  0
 42 39  1  0  0  0  0
 43 42  1  0  0  0  0
 44 42  1  0  0  0  0
 45 42  1  0  0  0  0
 46 45  1  0  0  0  0
 47 45  1  0  0  0  0
 48  5  1  0  0  0  0
 49 48  1  0  0  0  0
 50 48  1  0  0  0  0
 51  6  1  0  0  0  0
 52 51  1  0  0  0  0
 53 51  1  0  0  0  0
 54 51  1  0  0  0  0
 55 54  1  0  0  0  0
 56 54  1  0  0  0  0
 57 54  1  0  0  0  0
 58 57  1  0  0  0  0
 59 57  1  0  0  0  0
 60  6  1  0  0  0  0
 61 60  1  0  0  0  0
 62 60  1  0  0  0  0
 63  4  1  0  0  0  0
 64 63  1  0  0  0  0
 65 63  1  0  0  0  0
 66 63  1  0  0  0  0
 67 73  1  0  0  0  0
 68 64  8  0  0  0  0
 69132  8  0  0  0  0
 70 75  1  0  0  0  0
 71 75  1  0  0  0  0
 72 75  1  0  0  0  0
 73107  1  0  0  0  0
 74 67  1  0  0  0  0
 75 67  1  0  0  0  0
 76 71  1  0  0  0  0
 77 76  1  0  0  0  0
 78 76  1  0  0  0  0
 79 76  1  0  0  0  0
 80 71  1  0  0  0  0
 81 80  1  0  0  0  0
 82 80  1  0  0  0  0
 83 80  1  0  0  0  0
 84 16  1  0  0  0  0
 85 84  1  0  0  0  0
 86 84  1  0  0  0  0
 87 72  1  0  0  0  0
 88 87  1  0  0  0  0
 89 87  1  0  0  0  0
 90 87  1  0  0  0  0
 91 72  1  0  0  0  0
 92 91  1  0  0  0  0
 93 91  1  0  0  0  0
 94 91  1  0  0  0  0
 95 70  1  0  0  0  0
 96 95  1  0  0  0  0
 97 95  1  0  0  0  0
 98 95  1  0  0  0  0
 99 70  1  0  0  0  0
100 99  1  0  0  0  0
101 99  1  0  0  0  0
102 99  1  0  0  0  0
103 70  1  0  0  0  0
104103  1  0  0  0  0
105103  1  0  0  0  0
106103  1  0  0  0  0
107108  1  0  0  0  0
109107  1  0  0  0  0
110107  1  0  0  0  0
111110  1  0  0  0  0
112110  1  0  0  0  0
113110  1  0  0  0  0
114113  1  0  0  0  0
115113  1  0  0  0  0
116 73  1  0  0  0  0
117116  1  0  0  0  0
118116  1  0  0  0  0
119 74  1  0  0  0  0
120119  1  0  0  0  0
121119  1  0  0  0  0
122119  1  0  0  0  0
123122  1  0  0  0  0
124122  1  0  0  0  0
125122  1  0  0  0  0
126125  1  0  0  0  0
127125  1  0  0  0  0
128 74  1  0  0  0  0
129128  1  0  0  0  0
130128  1  0  0  0  0
131 72  1  0  0  0  0
132131  1  0  0  0  0
133  1  1  0  0  0  0
134 67  1  0  0  0  0
135131  1  0  0  0  0
136 69  8  0  0  0  0
137  1  1  0  0  0  0
138 67  1  0  0  0  0
 45 48  1  0  0  0  0
 57 60  1  0  0  0  0
 66 68  8  0  0  0  0
 71 84  1  0  0  0  0
113116  1  0  0  0  0
125128  1  0  0  0  0
131136  1  0  0  0  0
M  END
$$$$
RUNXEF

From CSD data. Using bond type 'Any'. No disordered atoms. Largest molecule.
 78 99  0  0  0  0  0  0  0  0999 V2000
    2.7065   10.7286    2.0458 C   0  0  0  0  0  0  0  0  0  0  0  0
    3.0408   11.5061    1.5721 H   0  0  0  0  0  0  0  0  0  0  0  0
    4.8489    5.3663    5.4529 Pd  0  0  0  0  0  0  0  0  0  0  0  0
    5.1980    9.2574    1.1309 Cl  0  0  0  0  0  0  0  0  0  0  0  0
    3.6587    9.3022    1.9845 B   0  0  0  0  0  0  0  0  0  0  0  0
    5.3259    3.7568    6.5033 C   0  0  0  0  0  0  0  0  0  0  0  0
    6.1702    0.3845    8.7102 F   0  0  0  0  0  0  0  0  0  0  0  0
    5.4159    2.4152    4.5291 O   0  0  0  0  0  0  0  0  0  0  0  0
    5.0386    3.8132    3.7414 P   0  0  0  0  0  0  0  0  0  0  0  0
    2.1128    9.4825   -0.6625 Cl  0  0  0  0  0  0  0  0  0  0  0  0
    2.1034    9.4280    1.1155 B   0  0  0  0  0  0  0  0  0  0  0  0
    5.7857    2.6867    8.6483 C   0  0  0  0  0  0  0  0  0  0  0  0
    5.8969    2.7406    9.5910 H   0  0  0  0  0  0  0  0  0  0  0  0
    5.9139    1.5002    7.9742 C   0  0  0  0  0  0  0  0  0  0  0  0
   -0.0938   11.5772    1.2210 Cl  0  0  0  0  0  0  0  0  0  0  0  0
    0.9953   10.4659    2.0541 B   0  0  0  0  0  0  0  0  0  0  0  0
    2.3464    5.8101    8.1988 C   0  0  0  0  0  0  0  0  0  0  0  0
    2.2456    5.5652    7.2541 H   0  0  0  0  0  0  0  0  0  0  0  0
    1.4939    6.1522    8.5402 H   0  0  0  0  0  0  0  0  0  0  0  0
    2.6111    5.0195    8.7146 H   0  0  0  0  0  0  0  0  0  0  0  0
    5.7967    1.3601    6.6114 C   0  0  0  0  0  0  0  0  0  0  0  0
    5.9030    0.5182    6.1850 H   0  0  0  0  0  0  0  0  0  0  0  0
    1.6474   12.6266    4.1530 Cl  0  0  0  0  0  0  0  0  0  0  0  0
    1.8792   10.9946    3.5220 B   0  0  0  0  0  0  0  0  0  0  0  0
    4.9541    6.2849    7.5618 P   0  0  0  0  0  0  0  0  0  0  0  0
    4.9114   11.1495    4.1169 Cl  0  0  0  0  0  0  0  0  0  0  0  0
    3.5188   10.2724    3.4934 B   0  0  0  0  0  0  0  0  0  0  0  0
    5.5150    2.5147    5.8911 C   0  0  0  0  0  0  0  0  0  0  0  0
    5.3519    5.0222    8.5367 O   0  0  0  0  0  0  0  0  0  0  0  0
    3.5846    3.2803    2.7901 C   0  0  0  0  0  0  0  0  0  0  0  0
    3.3284    4.0246    2.1746 H   0  0  0  0  0  0  0  0  0  0  0  0
    2.3016    9.6824    6.2751 Cl  0  0  0  0  0  0  0  0  0  0  0  0
    2.2458    9.5551    4.4977 B   0  0  0  0  0  0  0  0  0  0  0  0
    5.4859    3.8063    7.8848 C   0  0  0  0  0  0  0  0  0  0  0  0
    4.7123    7.5466    4.2291 Cl  0  0  0  0  0  0  0  0  0  0  0  0
    3.3369    8.5069    3.5329 B   0  0  0  0  0  0  0  0  0  0  0  0
    2.4223    3.0502    3.7632 C   0  0  0  0  0  0  0  0  0  0  0  0
    1.6270    2.7716    3.2619 H   0  0  0  0  0  0  0  0  0  0  0  0
    2.2300    3.8807    4.2457 H   0  0  0  0  0  0  0  0  0  0  0  0
    2.6662    2.3487    4.4040 H   0  0  0  0  0  0  0  0  0  0  0  0
   -0.8624    9.8657    4.4648 Cl  0  0  0  0  0  0  0  0  0  0  0  0
    0.6859    9.6698    3.6163 B   0  0  0  0  0  0  0  0  0  0  0  0
    3.8885    2.0456    1.9399 C   0  0  0  0  0  0  0  0  0  0  0  0
    3.0731    1.7579    1.4788 H   0  0  0  0  0  0  0  0  0  0  0  0
    4.2092    1.3220    2.5174 H   0  0  0  0  0  0  0  0  0  0  0  0
    4.5773    2.2651    1.2780 H   0  0  0  0  0  0  0  0  0  0  0  0
   -0.5771    7.8810    1.3944 Cl  0  0  0  0  0  0  0  0  0  0  0  0
    0.8267    8.7004    2.1125 B   0  0  0  0  0  0  0  0  0  0  0  0
    6.4438    4.0122    2.6032 C   0  0  0  0  0  0  0  0  0  0  0  0
    6.6242    3.1318    2.1645 H   0  0  0  0  0  0  0  0  0  0  0  0
    2.7214    6.4242    1.2516 Cl  0  0  0  0  0  0  0  0  0  0  0  0
    2.4676    7.9819    2.0636 B   0  0  0  0  0  0  0  0  0  0  0  0
    6.1125    5.0377    1.5153 C   0  0  0  0  0  0  0  0  0  0  0  0
    6.8757    5.1266    0.9068 H   0  0  0  0  0  0  0  0  0  0  0  0
    5.9237    5.9056    1.9312 H   0  0  0  0  0  0  0  0  0  0  0  0
    5.3260    4.7387    1.0122 H   0  0  0  0  0  0  0  0  0  0  0  0
    7.6887    4.4241    3.3946 C   0  0  0  0  0  0  0  0  0  0  0  0
    8.4581    4.4759    2.7892 H   0  0  0  0  0  0  0  0  0  0  0  0
    7.8665    3.7602    4.0936 H   0  0  0  0  0  0  0  0  0  0  0  0
    7.5383    5.3008    3.8076 H   0  0  0  0  0  0  0  0  0  0  0  0
    1.0436    6.6896    4.5271 Cl  0  0  0  0  0  0  0  0  0  0  0  0
    1.6104    8.1225    3.6315 B   0  0  0  0  0  0  0  0  0  0  0  0
    6.2942    7.4590    7.9401 C   0  0  0  0  0  0  0  0  0  0  0  0
    6.4160    7.4795    8.9317 H   0  0  0  0  0  0  0  0  0  0  0  0
    5.9748    8.8809    7.4750 C   0  0  0  0  0  0  0  0  0  0  0  0
    5.8417    8.8841    6.5035 H   0  0  0  0  0  0  0  0  0  0  0  0
    6.7182    9.4750    7.7064 H   0  0  0  0  0  0  0  0  0  0  0  0
    5.1570    9.1928    7.9174 H   0  0  0  0  0  0  0  0  0  0  0  0
    7.5981    6.9604    7.3157 C   0  0  0  0  0  0  0  0  0  0  0  0
    7.5177    6.9707    6.3392 H   0  0  0  0  0  0  0  0  0  0  0  0
    7.7759    6.0456    7.6192 H   0  0  0  0  0  0  0  0  0  0  0  0
    8.3358    7.5443    7.5888 H   0  0  0  0  0  0  0  0  0  0  0  0
    3.5956    7.3115    9.7883 C   0  0  0  0  0  0  0  0  0  0  0  0
    4.2257    8.0606    9.8364 H   0  0  0  0  0  0  0  0  0  0  0  0
    3.9444    6.5571   10.3070 H   0  0  0  0  0  0  0  0  0  0  0  0
    2.7305    7.5886   10.1549 H   0  0  0  0  0  0  0  0  0  0  0  0
    3.4186    6.8890    8.3337 C   0  0  0  0  0  0  0  0  0  0  0  0
    3.1127    7.6891    7.8180 H   0  0  0  0  0  0  0  0  0  0  0  0
  1  2  1  0  0  0  0
  3  6  1  0  0  0  0
  4  5  1  0  0  0  0
  5  1  1  0  0  0  0
  6 28  4  0  0  0  0
  7 14  1  0  0  0  0
  8  9  1  0  0  0  0
  9  3  1  0  0  0  0
 10 11  1  0  0  0  0
 11  1  1  0  0  0  0
 12 13  1  0  0  0  0
 14 12  4  0  0  0  0
 15 16  1  0  0  0  0
 16  1  1  0  0  0  0
 17 18  1  0  0  0  0
 19 17  1  0  0  0  0
 20 17  1  0  0  0  0
 21 14  4  0  0  0  0
 22 21  1  0  0  0  0
 23 24  1  0  0  0  0
 24  1  1  0  0  0  0
 25  3  1  0  0  0  0
 26 27  1  0  0  0  0
 27  1  1  0  0  0  0
 28  8  1  0  0  0  0
 29 25  1  0  0  0  0
 30  9  1  0  0  0  0
 31 30  1  0  0  0  0
 32 33  1  0  0  0  0
 33 24  1  0  0  0  0
 34  6  4  0  0  0  0
 35  3  1  0  0  0  0
 36  5  1  0  0  0  0
 37 30  1  0  0  0  0
 38 37  1  0  0  0  0
 39 37  1  0  0  0  0
 40 37  1  0  0  0  0
 41 42  1  0  0  0  0
 42 16  1  0  0  0  0
 43 30  1  0  0  0  0
 44 43  1  0  0  0  0
 45 43  1  0  0  0  0
 46 43  1  0  0  0  0
 47 48  1  0  0  0  0
 48 11  1  0  0  0  0
 49  9  1  0  0  0  0
 50 49  1  0  0  0  0
 51 52  1  0  0  0  0
 52  5  1  0  0  0  0
 53 49  1  0  0  0  0
 54 53  1  0  0  0  0
 55 53  1  0  0  0  0
 56 53  1  0  0  0  0
 57 49  1  0  0  0  0
 58 57  1  0  0  0  0
 59 57  1  0  0  0  0
 60 57  1  0  0  0  0
 61 62  1  0  0  0  0
 62 33  1  0  0  0  0
 63 25  1  0  0  0  0
 64 63  1  0  0  0  0
 65 63  1  0  0  0  0
 66 65  1  0  0  0  0
 67 65  1  0  0  0  0
 68 65  1  0  0  0  0
 69 63  1  0  0  0  0
 70 69  1  0  0  0  0
 71 69  1  0  0  0  0
 72 69  1  0  0  0  0
 73 74  1  0  0  0  0
 75 73  1  0  0  0  0
 76 73  1  0  0  0  0
 77 17  1  0  0  0  0
 78 77  1  0  0  0  0
  5 11  1  0  0  0  0
  5 27  1  0  0  0  0
 11 16  1  0  0  0  0
 11 52  1  0  0  0  0
 12 34  4  0  0  0  0
 16 24  1  0  0  0  0
 16 48  1  0  0  0  0
 21 28  4  0  0  0  0
 24 27  1  0  0  0  0
 24 42  1  0  0  0  0
 25 77  1  0  0  0  0
 27 33  1  0  0  0  0
 27 36  1  0  0  0  0
 29 34  1  0  0  0  0
 33 36  1  0  0  0  0
 33 42  1  0  0  0  0
 35 36  1  0  0  0  0
 36 52  1  0  0  0  0
 36 62  1  0  0  0  0
 42 48  1  0  0  0  0
 42 62  1  0  0  0  0
 48 52  1  0  0  0  0
 48 62  1  0  0  0  0
 52 62  1  0  0  0  0
 73 77  1  0  0  0  0
M  END
$$$$
RUWQOP

From CSD data. Using bond type 'Any'. No disordered atoms. Largest molecule.
 98116  0  0  0  0  0  0  0  0999 V2000
    1.2098    1.7652    2.8258 Ir  0  0  0  0  0  0  0  0  0  0  0  0
    2.2292    3.8161    3.2932 P   0  0  0  0  0  0  0  0  0  0  0  0
    2.7936    0.9416    1.3300 P   0  0  0  0  0  0  0  0  0  0  0  0
    2.5113   -1.4725    7.2593 P   0  0  0  0  0  0  0  0  0  0  0  0
   -0.6165    3.0609    0.7498 O   0  0  0  0  0  0  0  0  0  0  0  0
   -1.1269    0.5071    5.1759 B   0  0  0  0  0  0  0  0  0  0  0  0
   -0.7344    0.7947    3.4919 B   0  0  0  0  0  0  0  0  0  0  0  0
   -0.7959   -0.8736    4.0837 B   0  0  0  0  0  0  0  0  0  0  0  0
   -0.1546   -0.8595    5.7297 B   0  0  0  0  0  0  0  0  0  0  0  0
   -0.1030    1.9006    4.7478 B   0  0  0  0  0  0  0  0  0  0  0  0
    0.4367   -0.4174    2.9172 B   0  0  0  0  0  0  0  0  0  0  0  0
    0.8273   -1.4870    4.4357 B   0  0  0  0  0  0  0  0  0  0  0  0
    1.5327   -0.5537    5.8743 B   0  0  0  0  0  0  0  0  0  0  0  0
    0.2731    0.7635    6.2245 B   0  0  0  0  0  0  0  0  0  0  0  0
    0.0411    2.5509    1.5185 C   0  0  0  0  0  0  0  0  0  0  0  0
    3.9395    3.7545    3.9486 C   0  0  0  0  0  0  0  0  0  0  0  0
    4.8780    4.7113    3.6384 C   0  0  0  0  0  0  0  0  0  0  0  0
    4.6355    5.4832    3.0009 H   0  0  0  0  0  0  0  0  0  0  0  0
    6.1620    4.6371    4.1902 C   0  0  0  0  0  0  0  0  0  0  0  0
    6.7585    5.2688    4.0018 H   0  0  0  0  0  0  0  0  0  0  0  0
    6.5094    3.6109    5.0123 C   0  0  0  0  0  0  0  0  0  0  0  0
    7.3721    3.5443    5.3358 H   0  0  0  0  0  0  0  0  0  0  0  0
    5.5715    2.6816    5.3548 C   0  0  0  0  0  0  0  0  0  0  0  0
    5.7637    2.0867    5.8629 H   0  0  0  0  0  0  0  0  0  0  0  0
    4.2885    2.7546    4.8296 C   0  0  0  0  0  0  0  0  0  0  0  0
    3.6206    2.0859    5.0922 H   0  0  0  0  0  0  0  0  0  0  0  0
    1.4111    4.8804    4.5156 C   0  0  0  0  0  0  0  0  0  0  0  0
    1.2950    4.4128    5.3034 H   0  0  0  0  0  0  0  0  0  0  0  0
    0.5903    5.1479    4.1921 H   0  0  0  0  0  0  0  0  0  0  0  0
    1.9350    5.6244    4.6755 H   0  0  0  0  0  0  0  0  0  0  0  0
    2.3296    4.9643    1.8820 C   0  0  0  0  0  0  0  0  0  0  0  0
    2.7495    4.5278    1.1456 H   0  0  0  0  0  0  0  0  0  0  0  0
    2.8407    5.7301    2.1313 H   0  0  0  0  0  0  0  0  0  0  0  0
    1.4508    5.2371    1.6308 H   0  0  0  0  0  0  0  0  0  0  0  0
    3.9008    2.0868    0.4396 C   0  0  0  0  0  0  0  0  0  0  0  0
    3.4923    2.6274   -0.7821 C   0  0  0  0  0  0  0  0  0  0  0  0
    2.6561    2.4155   -1.1113 H   0  0  0  0  0  0  0  0  0  0  0  0
    4.3109    3.4703   -1.5109 C   0  0  0  0  0  0  0  0  0  0  0  0
    3.9972    3.8728   -2.4548 H   0  0  0  0  0  0  0  0  0  0  0  0
    5.5123    3.7648   -0.9933 C   0  0  0  0  0  0  0  0  0  0  0  0
    5.9302    4.2083   -1.3587 H   0  0  0  0  0  0  0  0  0  0  0  0
    5.9891    3.2631    0.1979 C   0  0  0  0  0  0  0  0  0  0  0  0
    6.8891    3.4847    0.5214 H   0  0  0  0  0  0  0  0  0  0  0  0
    5.1414    2.4278    0.9248 C   0  0  0  0  0  0  0  0  0  0  0  0
    5.4608    2.0461    1.8744 H   0  0  0  0  0  0  0  0  0  0  0  0
    2.1587   -0.0405   -0.0552 C   0  0  0  0  0  0  0  0  0  0  0  0
    1.5372    0.4478   -0.5157 H   0  0  0  0  0  0  0  0  0  0  0  0
    1.7691   -0.8041    0.2645 H   0  0  0  0  0  0  0  0  0  0  0  0
    2.8477   -0.2614   -0.6146 H   0  0  0  0  0  0  0  0  0  0  0  0
    3.9822   -0.1903    2.0894 C   0  0  0  0  0  0  0  0  0  0  0  0
    4.3844    0.2313    2.8430 H   0  0  0  0  0  0  0  0  0  0  0  0
    4.6545   -0.4159    1.4557 H   0  0  0  0  0  0  0  0  0  0  0  0
    3.5332   -0.9799    2.3710 H   0  0  0  0  0  0  0  0  0  0  0  0
    1.7591   -2.9280    8.0379 C   0  0  0  0  0  0  0  0  0  0  0  0
    1.7287   -3.0923    9.4099 C   0  0  0  0  0  0  0  0  0  0  0  0
    2.0770   -2.4122    9.9713 H   0  0  0  0  0  0  0  0  0  0  0  0
    1.1933   -4.2372    9.9732 C   0  0  0  0  0  0  0  0  0  0  0  0
    1.1737   -4.3374   10.8771 H   0  0  0  0  0  0  0  0  0  0  0  0
    0.6973   -5.2148    9.1645 C   0  0  0  0  0  0  0  0  0  0  0  0
    0.3494   -5.9255    9.5127 H   0  0  0  0  0  0  0  0  0  0  0  0
    0.7441   -5.0785    7.8020 C   0  0  0  0  0  0  0  0  0  0  0  0
    0.4282   -5.7477    7.2673 H   0  0  0  0  0  0  0  0  0  0  0  0
    1.2669   -3.9381    7.2368 C   0  0  0  0  0  0  0  0  0  0  0  0
    1.2887   -3.8484    6.3158 H   0  0  0  0  0  0  0  0  0  0  0  0
    4.0889   -2.0362    6.5898 C   0  0  0  0  0  0  0  0  0  0  0  0
    4.7839   -1.2256    5.7145 C   0  0  0  0  0  0  0  0  0  0  0  0
    4.4466   -0.5024    5.4747 H   0  0  0  0  0  0  0  0  0  0  0  0
    6.0239   -1.5828    5.2254 C   0  0  0  0  0  0  0  0  0  0  0  0
    6.4738   -1.0225    4.6336 H   0  0  0  0  0  0  0  0  0  0  0  0
    6.5866   -2.7699    5.6155 C   0  0  0  0  0  0  0  0  0  0  0  0
    7.4302   -3.0139    5.3034 H   0  0  0  0  0  0  0  0  0  0  0  0
    5.9091   -3.5878    6.4623 C   0  0  0  0  0  0  0  0  0  0  0  0
    6.2361   -4.2864    6.6793 H   0  0  0  0  0  0  0  0  0  0  0  0
    4.6714   -3.2378    6.9590 C   0  0  0  0  0  0  0  0  0  0  0  0
    4.2435   -3.7886    7.5203 H   0  0  0  0  0  0  0  0  0  0  0  0
    2.9328   -0.3195    8.6012 C   0  0  0  0  0  0  0  0  0  0  0  0
    4.2155    0.0423    8.9133 C   0  0  0  0  0  0  0  0  0  0  0  0
    4.8713   -0.3070    8.4832 H   0  0  0  0  0  0  0  0  0  0  0  0
    4.4675    0.9734    9.9256 C   0  0  0  0  0  0  0  0  0  0  0  0
    5.2670    1.2062   10.1026 H   0  0  0  0  0  0  0  0  0  0  0  0
    3.4215    1.5087   10.6278 C   0  0  0  0  0  0  0  0  0  0  0  0
    3.5787    2.0859   11.2634 H   0  0  0  0  0  0  0  0  0  0  0  0
    2.1358    1.1497   10.3462 C   0  0  0  0  0  0  0  0  0  0  0  0
    1.4223    1.5140   10.8352 H   0  0  0  0  0  0  0  0  0  0  0  0
    1.8967    0.2435    9.3319 C   0  0  0  0  0  0  0  0  0  0  0  0
    1.1128    0.0299    9.1550 H   0  0  0  0  0  0  0  0  0  0  0  0
   -2.1398    0.6842    5.5280 H   0  0  0  0  0  0  0  0  0  0  0  0
   -1.5050    1.0494    3.0504 H   0  0  0  0  0  0  0  0  0  0  0  0
   -1.5158   -1.5313    3.7373 H   0  0  0  0  0  0  0  0  0  0  0  0
   -0.4564   -1.4936    6.3900 H   0  0  0  0  0  0  0  0  0  0  0  0
   -0.5532    2.8681    5.0161 H   0  0  0  0  0  0  0  0  0  0  0  0
    2.1202    1.4423    3.9619 H   0  0  0  0  0  0  0  0  0  0  0  0
    0.4286   -1.0559    1.9657 H   0  0  0  0  0  0  0  0  0  0  0  0
    1.0602   -2.6024    4.2797 H   0  0  0  0  0  0  0  0  0  0  0  0
    2.3012   -0.0425    5.4081 H   0  0  0  0  0  0  0  0  0  0  0  0
    0.1444    1.0329    7.2045 H   0  0  0  0  0  0  0  0  0  0  0  0
    1.5016   -0.7971    3.6041 H   0  0  0  0  0  0  0  0  0  0  0  0
    0.8694    1.6085    5.5356 H   0  0  0  0  0  0  0  0  0  0  0  0
  1  2  1  0  0  0  0
  2 16  1  0  0  0  0
  3  1  1  0  0  0  0
  4 13  1  0  0  0  0
  5 15  3  0  0  0  0
  6  7  1  0  0  0  0
  7  1  1  0  0  0  0
  8  6  1  0  0  0  0
  9  6  1  0  0  0  0
 10  1  1  0  0  0  0
 11  1  1  0  0  0  0
 12  8  1  0  0  0  0
 13  9  1  0  0  0  0
 14  6  1  0  0  0  0
 15  1  1  0  0  0  0
 16 17  4  0  0  0  0
 17 18  1  0  0  0  0
 19 17  4  0  0  0  0
 20 19  1  0  0  0  0
 21 19  4  0  0  0  0
 22 21  1  0  0  0  0
 23 21  4  0  0  0  0
 24 23  1  0  0  0  0
 25 16  4  0  0  0  0
 26 25  1  0  0  0  0
 27  2  1  0  0  0  0
 28 27  1  0  0  0  0
 29 27  1  0  0  0  0
 30 27  1  0  0  0  0
 31  2  1  0  0  0  0
 32 31  1  0  0  0  0
 33 31  1  0  0  0  0
 34 31  1  0  0  0  0
 35  3  1  0  0  0  0
 36 35  4  0  0  0  0
 37 36  1  0  0  0  0
 38 36  4  0  0  0  0
 39 38  1  0  0  0  0
 40 38  4  0  0  0  0
 41 40  1  0  0  0  0
 42 40  4  0  0  0  0
 43 42  1  0  0  0  0
 44 35  4  0  0  0  0
 45 44  1  0  0  0  0
 46  3  1  0  0  0  0
 47 46  1  0  0  0  0
 48 46  1  0  0  0  0
 49 46  1  0  0  0  0
 50  3  1  0  0  0  0
 51 50  1  0  0  0  0
 52 50  1  0  0  0  0
 53 50  1  0  0  0  0
 54  4  1  0  0  0  0
 55 54  4  0  0  0  0
 56 55  1  0  0  0  0
 57 55  4  0  0  0  0
 58 57  1  0  0  0  0
 59 57  4  0  0  0  0
 60 59  1  0  0  0  0
 61 59  4  0  0  0  0
 62 61  1  0  0  0  0
 63 54  4  0  0  0  0
 64 63  1  0  0  0  0
 65  4  1  0  0  0  0
 66 65  4  0  0  0  0
 67 66  1  0  0  0  0
 68 66  4  0  0  0  0
 69 68  1  0  0  0  0
 70 68  4  0  0  0  0
 71 70  1  0  0  0  0
 72 70  4  0  0  0  0
 73 72  1  0  0  0  0
 74 65  4  0  0  0  0
 75 74  1  0  0  0  0
 76  4  1  0  0  0  0
 77 76  4  0  0  0  0
 78 77  1  0  0  0  0
 79 77  4  0  0  0  0
 80 79  1  0  0  0  0
 81 79  4  0  0  0  0
 82 81  1  0  0  0  0
 83 81  4  0  0  0  0
 84 83  1  0  0  0  0
 85 76  4  0  0  0  0
 86 85  1  0  0  0  0
 87  6  1  0  0  0  0
 88  7  1  0  0  0  0
 89  8  1  0  0  0  0
 90  9  1  0  0  0  0
 91 10  1  0  0  0  0
 92  1  1  0  0  0  0
 93 11  1  0  0  0  0
 94 12  1  0  0  0  0
 95 13  1  0  0  0  0
 96 14  1  0  0  0  0
 97 11  1  0  0  0  0
 98 10  1  0  0  0  0
  6 10  1  0  0  0  0
  7  8  1  0  0  0  0
  7 10  1  0  0  0  0
  7 11  1  0  0  0  0
  8  9  1  0  0  0  0
  8 11  1  0  0  0  0
  9 12  1  0  0  0  0
  9 14  1  0  0  0  0
 10 14  1  0  0  0  0
 11 12  1  0  0  0  0
 12 13  1  0  0  0  0
 12 97  1  0  0  0  0
 13 14  1  0  0  0  0
 14 98  1  0  0  0  0
 23 25  4  0  0  0  0
 42 44  4  0  0  0  0
 61 63  4  0  0  0  0
 72 74  4  0  0  0  0
 83 85  4  0  0  0  0
M  END
$$$$
RUWQUV

From CSD data. Using bond type 'Any'. No disordered atoms. Largest molecule.
124147  0  0  0  0  0  0  0  0999 V2000
    4.2003    4.6162    4.4815 Ir  0  0  0  0  0  0  0  0  0  0  0  0
    3.0216    3.3540    3.6449 C   0  0  0  0  0  0  0  0  0  0  0  0
    2.3194    2.6183    3.1296 O   0  0  0  0  0  0  0  0  0  0  0  0
    5.5329    5.0460    2.6098 P   0  0  0  0  0  0  0  0  0  0  0  0
    4.7980    4.6505    0.9770 C   0  0  0  0  0  0  0  0  0  0  0  0
    3.4207    4.7429    0.7910 C   0  0  0  0  0  0  0  0  0  0  0  0
    2.8578    4.5242   -0.4523 C   0  0  0  0  0  0  0  0  0  0  0  0
    3.6582    4.1924   -1.5362 C   0  0  0  0  0  0  0  0  0  0  0  0
    5.0177    4.0873   -1.3570 C   0  0  0  0  0  0  0  0  0  0  0  0
    5.5928    4.3130   -0.1158 C   0  0  0  0  0  0  0  0  0  0  0  0
    7.1697    4.2285    2.4953 C   0  0  0  0  0  0  0  0  0  0  0  0
    7.2092    2.8408    2.4955 C   0  0  0  0  0  0  0  0  0  0  0  0
    8.4177    2.1632    2.4562 C   0  0  0  0  0  0  0  0  0  0  0  0
    9.6004    2.8658    2.4278 C   0  0  0  0  0  0  0  0  0  0  0  0
    9.5813    4.2359    2.4146 C   0  0  0  0  0  0  0  0  0  0  0  0
    8.3808    4.9261    2.4321 C   0  0  0  0  0  0  0  0  0  0  0  0
    5.9630    6.8244    2.4610 C   0  0  0  0  0  0  0  0  0  0  0  0
    5.5943    7.5797    1.3505 C   0  0  0  0  0  0  0  0  0  0  0  0
    5.8954    8.9356    1.3002 C   0  0  0  0  0  0  0  0  0  0  0  0
    6.5750    9.5365    2.3447 C   0  0  0  0  0  0  0  0  0  0  0  0
    6.9601    8.7932    3.4308 C   0  0  0  0  0  0  0  0  0  0  0  0
    6.6495    7.4473    3.4985 C   0  0  0  0  0  0  0  0  0  0  0  0
    5.2648    3.0451    5.8474 P   0  0  0  0  0  0  0  0  0  0  0  0
    4.0830    2.6665    7.1825 C   0  0  0  0  0  0  0  0  0  0  0  0
    3.1542    3.6758    7.4325 C   0  0  0  0  0  0  0  0  0  0  0  0
    2.2679    3.4940    8.5135 C   0  0  0  0  0  0  0  0  0  0  0  0
    2.2976    2.3341    9.2652 C   0  0  0  0  0  0  0  0  0  0  0  0
    3.2208    1.3317    8.9899 C   0  0  0  0  0  0  0  0  0  0  0  0
    4.1247    1.5052    7.9563 C   0  0  0  0  0  0  0  0  0  0  0  0
    5.8311    1.4044    5.2445 C   0  0  0  0  0  0  0  0  0  0  0  0
    7.0409    0.8447    5.6138 C   0  0  0  0  0  0  0  0  0  0  0  0
    7.4557   -0.3837    5.1003 C   0  0  0  0  0  0  0  0  0  0  0  0
    6.6603   -1.0604    4.2153 C   0  0  0  0  0  0  0  0  0  0  0  0
    5.4402   -0.5376    3.8591 C   0  0  0  0  0  0  0  0  0  0  0  0
    5.0132    0.6849    4.3791 C   0  0  0  0  0  0  0  0  0  0  0  0
    6.7343    3.6642    6.7418 C   0  0  0  0  0  0  0  0  0  0  0  0
    7.8850    3.9831    6.0202 C   0  0  0  0  0  0  0  0  0  0  0  0
    9.0289    4.4066    6.6736 C   0  0  0  0  0  0  0  0  0  0  0  0
    9.0321    4.5477    8.0394 C   0  0  0  0  0  0  0  0  0  0  0  0
    7.9000    4.2600    8.7561 C   0  0  0  0  0  0  0  0  0  0  0  0
    6.7499    3.8173    8.1115 C   0  0  0  0  0  0  0  0  0  0  0  0
    5.1620    9.4380    7.3401 P   0  0  0  0  0  0  0  0  0  0  0  0
    6.9592    9.3218    7.1200 C   0  0  0  0  0  0  0  0  0  0  0  0
    7.5822    8.0782    7.0189 C   0  0  0  0  0  0  0  0  0  0  0  0
    8.9521    8.0060    6.8222 C   0  0  0  0  0  0  0  0  0  0  0  0
    9.7098    9.1591    6.7566 C   0  0  0  0  0  0  0  0  0  0  0  0
    9.1031   10.3867    6.8987 C   0  0  0  0  0  0  0  0  0  0  0  0
    7.7334   10.4769    7.0582 C   0  0  0  0  0  0  0  0  0  0  0  0
    4.7548   11.0833    6.6758 C   0  0  0  0  0  0  0  0  0  0  0  0
    4.3912   12.1535    7.4778 C   0  0  0  0  0  0  0  0  0  0  0  0
    4.2096   13.4067    6.9118 C   0  0  0  0  0  0  0  0  0  0  0  0
    4.4081   13.6053    5.5701 C   0  0  0  0  0  0  0  0  0  0  0  0
    4.7631   12.5399    4.7616 C   0  0  0  0  0  0  0  0  0  0  0  0
    4.9248   11.2817    5.3100 C   0  0  0  0  0  0  0  0  0  0  0  0
    4.9126    9.5518    9.1333 C   0  0  0  0  0  0  0  0  0  0  0  0
    5.9858    9.5644   10.0126 C   0  0  0  0  0  0  0  0  0  0  0  0
    5.7637    9.6787   11.3805 C   0  0  0  0  0  0  0  0  0  0  0  0
    4.4869    9.7804   11.8635 C   0  0  0  0  0  0  0  0  0  0  0  0
    3.4235    9.7927   11.0134 C   0  0  0  0  0  0  0  0  0  0  0  0
    3.6187    9.6614    9.6411 C   0  0  0  0  0  0  0  0  0  0  0  0
    1.9228    6.2339    6.6605 B   0  0  0  0  0  0  0  0  0  0  0  0
    2.1686    5.4239    5.1177 B   0  0  0  0  0  0  0  0  0  0  0  0
    1.7946    7.1379    5.1309 B   0  0  0  0  0  0  0  0  0  0  0  0
    2.6194    7.8548    6.5294 B   0  0  0  0  0  0  0  0  0  0  0  0
    3.2011    4.9895    6.5381 B   0  0  0  0  0  0  0  0  0  0  0  0
    3.0187    6.5320    3.9596 B   0  0  0  0  0  0  0  0  0  0  0  0
    3.2636    8.1350    4.9167 B   0  0  0  0  0  0  0  0  0  0  0  0
    4.3332    7.9375    6.4529 B   0  0  0  0  0  0  0  0  0  0  0  0
    3.4756    6.6221    7.4603 B   0  0  0  0  0  0  0  0  0  0  0  0
    5.0912    5.5750    5.1746 H   0  0  0  0  0  0  0  0  0  0  0  0
    2.8610    4.9601    1.5275 H   0  0  0  0  0  0  0  0  0  0  0  0
    1.9183    4.6013   -0.5660 H   0  0  0  0  0  0  0  0  0  0  0  0
    3.2714    4.0402   -2.3906 H   0  0  0  0  0  0  0  0  0  0  0  0
    5.5706    3.8560   -2.0956 H   0  0  0  0  0  0  0  0  0  0  0  0
    6.5341    4.2366   -0.0109 H   0  0  0  0  0  0  0  0  0  0  0  0
    6.3977    2.3488    2.5239 H   0  0  0  0  0  0  0  0  0  0  0  0
    8.4285    1.2122    2.4474 H   0  0  0  0  0  0  0  0  0  0  0  0
   10.4299    2.4013    2.4168 H   0  0  0  0  0  0  0  0  0  0  0  0
   10.4004    4.7174    2.3950 H   0  0  0  0  0  0  0  0  0  0  0  0
    8.3796    5.8761    2.4015 H   0  0  0  0  0  0  0  0  0  0  0  0
    5.1353    7.1672    0.6272 H   0  0  0  0  0  0  0  0  0  0  0  0
    5.6339    9.4507    0.5463 H   0  0  0  0  0  0  0  0  0  0  0  0
    6.7749   10.4640    2.3076 H   0  0  0  0  0  0  0  0  0  0  0  0
    7.4429    9.2037    4.1388 H   0  0  0  0  0  0  0  0  0  0  0  0
    6.9067    6.9428    4.2611 H   0  0  0  0  0  0  0  0  0  0  0  0
    1.6426    4.1758    8.7277 H   0  0  0  0  0  0  0  0  0  0  0  0
    1.6802    2.2202    9.9776 H   0  0  0  0  0  0  0  0  0  0  0  0
    3.2310    0.5335    9.5056 H   0  0  0  0  0  0  0  0  0  0  0  0
    4.7733    0.8349    7.7728 H   0  0  0  0  0  0  0  0  0  0  0  0
    7.5990    1.3069    6.2278 H   0  0  0  0  0  0  0  0  0  0  0  0
    8.2909   -0.7512    5.3669 H   0  0  0  0  0  0  0  0  0  0  0  0
    6.9501   -1.8881    3.8481 H   0  0  0  0  0  0  0  0  0  0  0  0
    4.8819   -1.0135    3.2559 H   0  0  0  0  0  0  0  0  0  0  0  0
    4.1600    1.0275    4.1410 H   0  0  0  0  0  0  0  0  0  0  0  0
    7.8833    3.9098    5.0719 H   0  0  0  0  0  0  0  0  0  0  0  0
    9.8153    4.6019    6.1776 H   0  0  0  0  0  0  0  0  0  0  0  0
    9.8176    4.8446    8.4851 H   0  0  0  0  0  0  0  0  0  0  0  0
    7.8992    4.3626    9.7023 H   0  0  0  0  0  0  0  0  0  0  0  0
    5.9698    3.6202    8.6162 H   0  0  0  0  0  0  0  0  0  0  0  0
    7.0696    7.2812    7.0866 H   0  0  0  0  0  0  0  0  0  0  0  0
    9.3719    7.1585    6.7304 H   0  0  0  0  0  0  0  0  0  0  0  0
   10.6472    9.1039    6.6102 H   0  0  0  0  0  0  0  0  0  0  0  0
    9.6290   11.1769    6.8856 H   0  0  0  0  0  0  0  0  0  0  0  0
    7.3190   11.3296    7.1281 H   0  0  0  0  0  0  0  0  0  0  0  0
    4.2655   12.0289    8.4108 H   0  0  0  0  0  0  0  0  0  0  0  0
    3.9444   14.1355    7.4581 H   0  0  0  0  0  0  0  0  0  0  0  0
    4.3020   14.4714    5.1964 H   0  0  0  0  0  0  0  0  0  0  0  0
    4.8965   12.6748    3.8307 H   0  0  0  0  0  0  0  0  0  0  0  0
    5.1527   10.5476    4.7506 H   0  0  0  0  0  0  0  0  0  0  0  0
    6.8724    9.4935    9.6783 H   0  0  0  0  0  0  0  0  0  0  0  0
    6.5003    9.6882   11.9815 H   0  0  0  0  0  0  0  0  0  0  0  0
    4.3412    9.8427   12.8009 H   0  0  0  0  0  0  0  0  0  0  0  0
    2.5431    9.8891   11.3565 H   0  0  0  0  0  0  0  0  0  0  0  0
    2.8732    9.6473    9.0533 H   0  0  0  0  0  0  0  0  0  0  0  0
    0.9705    6.0119    7.3139 H   0  0  0  0  0  0  0  0  0  0  0  0
    1.3800    4.7824    4.8380 H   0  0  0  0  0  0  0  0  0  0  0  0
    0.7990    7.5171    4.7463 H   0  0  0  0  0  0  0  0  0  0  0  0
    2.2148    8.6653    7.0407 H   0  0  0  0  0  0  0  0  0  0  0  0
    2.6959    6.7091    2.8910 H   0  0  0  0  0  0  0  0  0  0  0  0
    3.1897    9.0666    4.3988 H   0  0  0  0  0  0  0  0  0  0  0  0
    5.1340    7.4073    6.0574 H   0  0  0  0  0  0  0  0  0  0  0  0
    3.5273    6.5795    8.5835 H   0  0  0  0  0  0  0  0  0  0  0  0
    4.2061    5.7207    6.9752 H   0  0  0  0  0  0  0  0  0  0  0  0
    3.9301    7.3672    4.2393 H   0  0  0  0  0  0  0  0  0  0  0  0
  1  2  1  0  0  0  0
  2  3  3  0  0  0  0
  4  1  1  0  0  0  0
  5  4  1  0  0  0  0
  6  5  4  0  0  0  0
  7  6  4  0  0  0  0
  8  7  4  0  0  0  0
  9  8  4  0  0  0  0
 10  5  4  0  0  0  0
 11  4  1  0  0  0  0
 12 11  4  0  0  0  0
 13 12  4  0  0  0  0
 14 13  4  0  0  0  0
 15 14  4  0  0  0  0
 16 11  4  0  0  0  0
 17  4  1  0  0  0  0
 18 17  4  0  0  0  0
 19 18  4  0  0  0  0
 20 19  4  0  0  0  0
 21 20  4  0  0  0  0
 22 17  4  0  0  0  0
 23  1  1  0  0  0  0
 24 23  1  0  0  0  0
 25 24  4  0  0  0  0
 26 25  4  0  0  0  0
 27 26  4  0  0  0  0
 28 27  4  0  0  0  0
 29 24  4  0  0  0  0
 30 23  1  0  0  0  0
 31 30  4  0  0  0  0
 32 31  4  0  0  0  0
 33 32  4  0  0  0  0
 34 33  4  0  0  0  0
 35 30  4  0  0  0  0
 36 23  1  0  0  0  0
 37 36  4  0  0  0  0
 38 37  4  0  0  0  0
 39 38  4  0  0  0  0
 40 39  4  0  0  0  0
 41 36  4  0  0  0  0
 42 43  1  0  0  0  0
 43 44  4  0  0  0  0
 44 45  4  0  0  0  0
 45 46  4  0  0  0  0
 46 47  4  0  0  0  0
 47 48  4  0  0  0  0
 48 43  4  0  0  0  0
 49 42  1  0  0  0  0
 50 49  4  0  0  0  0
 51 50  4  0  0  0  0
 52 51  4  0  0  0  0
 53 52  4  0  0  0  0
 54 49  4  0  0  0  0
 55 42  1  0  0  0  0
 56 55  4  0  0  0  0
 57 56  4  0  0  0  0
 58 57  4  0  0  0  0
 59 58  4  0  0  0  0
 60 55  4  0  0  0  0
 61 62  1  0  0  0  0
 62  1  1  0  0  0  0
 63 61  1  0  0  0  0
 64 61  1  0  0  0  0
 65  1  1  0  0  0  0
 66  1  1  0  0  0  0
 67 63  1  0  0  0  0
 68 42  1  0  0  0  0
 69 61  1  0  0  0  0
 70  1  1  0  0  0  0
 71  6  1  0  0  0  0
 72  7  1  0  0  0  0
 73  8  1  0  0  0  0
 74  9  1  0  0  0  0
 75 10  1  0  0  0  0
 76 12  1  0  0  0  0
 77 13  1  0  0  0  0
 78 14  1  0  0  0  0
 79 15  1  0  0  0  0
 80 16  1  0  0  0  0
 81 18  1  0  0  0  0
 82 19  1  0  0  0  0
 83 20  1  0  0  0  0
 84 21  1  0  0  0  0
 85 22  1  0  0  0  0
 86 26  1  0  0  0  0
 87 27  1  0  0  0  0
 88 28  1  0  0  0  0
 89 29  1  0  0  0  0
 90 31  1  0  0  0  0
 91 32  1  0  0  0  0
 92 33  1  0  0  0  0
 93 34  1  0  0  0  0
 94 35  1  0  0  0  0
 95 37  1  0  0  0  0
 96 38  1  0  0  0  0
 97 39  1  0  0  0  0
 98 40  1  0  0  0  0
 99 41  1  0  0  0  0
100 44  1  0  0  0  0
101 45  1  0  0  0  0
102 46  1  0  0  0  0
103 47  1  0  0  0  0
104 48  1  0  0  0  0
105 50  1  0  0  0  0
106 51  1  0  0  0  0
107 52  1  0  0  0  0
108 53  1  0  0  0  0
109 54  1  0  0  0  0
110 56  1  0  0  0  0
111 57  1  0  0  0  0
112 58  1  0  0  0  0
113 59  1  0  0  0  0
114 60  1  0  0  0  0
115 61  1  0  0  0  0
116 62  1  0  0  0  0
117 63  1  0  0  0  0
118 64  1  0  0  0  0
119 66  1  0  0  0  0
120 67  1  0  0  0  0
121 68  1  0  0  0  0
122 69  1  0  0  0  0
123 65  1  0  0  0  0
124 66  1  0  0  0  0
  9 10  4  0  0  0  0
 15 16  4  0  0  0  0
 21 22  4  0  0  0  0
 25 65  1  0  0  0  0
 28 29  4  0  0  0  0
 34 35  4  0  0  0  0
 40 41  4  0  0  0  0
 53 54  4  0  0  0  0
 59 60  4  0  0  0  0
 61 65  1  0  0  0  0
 62 63  1  0  0  0  0
 62 65  1  0  0  0  0
 62 66  1  0  0  0  0
 63 64  1  0  0  0  0
 63 66  1  0  0  0  0
 64 67  1  0  0  0  0
 64 68  1  0  0  0  0
 64 69  1  0  0  0  0
 65 69  1  0  0  0  0
 66 67  1  0  0  0  0
 67 68  1  0  0  0  0
 67124  1  0  0  0  0
 68 69  1  0  0  0  0
 69123  1  0  0  0  0
M  END
$$$$
SABYON

From CSD data. Using bond type 'Any'. No disordered atoms. Largest molecule.
 74 76  0  0  0  0  0  0  0  0999 V2000
    2.9478    5.4778    6.7092 Na  0  0  0  0  0  0  0  0  0  0  0  0
    3.9777    6.8302    3.7981 P   0  0  0  0  0  0  0  0  0  0  0  0
    2.2180    6.0837    3.4855 B   0  0  0  0  0  0  0  0  0  0  0  0
    2.1643    5.7367    2.4427 H   0  0  0  0  0  0  0  0  0  0  0  0
    2.1597    5.1741    4.1591 H   0  0  0  0  0  0  0  0  0  0  0  0
    1.3497    6.7989    3.7080 H   0  0  0  0  0  0  0  0  0  0  0  0
    3.8610    7.4500    5.4329 N   0  0  0  0  0  0  0  0  0  0  0  0
    4.1255    8.1373    2.7223 N   0  0  0  0  0  0  0  0  0  0  0  0
    2.8249    8.4445    5.7327 C   0  0  0  0  0  0  0  0  0  0  0  0
    1.9941    8.1585    5.3598 H   0  0  0  0  0  0  0  0  0  0  0  0
    2.7125    8.5619    6.7384 H   0  0  0  0  0  0  0  0  0  0  0  0
    3.0549    9.3562    5.3682 H   0  0  0  0  0  0  0  0  0  0  0  0
    5.1364    7.9136    5.9813 C   0  0  0  0  0  0  0  0  0  0  0  0
    5.8311    7.2462    5.8002 H   0  0  0  0  0  0  0  0  0  0  0  0
    5.0495    8.0408    6.9491 H   0  0  0  0  0  0  0  0  0  0  0  0
    5.3832    8.7637    5.5609 H   0  0  0  0  0  0  0  0  0  0  0  0
    3.0825    9.1023    2.4397 C   0  0  0  0  0  0  0  0  0  0  0  0
    2.2124    8.7242    2.6852 H   0  0  0  0  0  0  0  0  0  0  0  0
    3.0869    9.3175    1.4834 H   0  0  0  0  0  0  0  0  0  0  0  0
    3.2428    9.9179    2.9584 H   0  0  0  0  0  0  0  0  0  0  0  0
    5.4350    8.6087    2.3252 C   0  0  0  0  0  0  0  0  0  0  0  0
    6.1016    7.9141    2.5073 H   0  0  0  0  0  0  0  0  0  0  0  0
    5.6592    9.4167    2.8324 H   0  0  0  0  0  0  0  0  0  0  0  0
    5.4316    8.8143    1.3669 H   0  0  0  0  0  0  0  0  0  0  0  0
    3.1773    6.5717    8.7320 O   0  0  0  0  0  0  0  0  0  0  0  0
    2.2958    7.4010    9.4954 C   0  0  0  0  0  0  0  0  0  0  0  0
    1.8770    6.8833   10.2282 H   0  0  0  0  0  0  0  0  0  0  0  0
    1.5812    7.7730    8.9206 H   0  0  0  0  0  0  0  0  0  0  0  0
    3.1599    8.5053   10.0510 C   0  0  0  0  0  0  0  0  0  0  0  0
    2.8876    8.7342   10.9747 H   0  0  0  0  0  0  0  0  0  0  0  0
    3.0979    9.3174    9.4881 H   0  0  0  0  0  0  0  0  0  0  0  0
    4.5779    7.9364   10.0282 C   0  0  0  0  0  0  0  0  0  0  0  0
    5.1667    8.4747    9.4426 H   0  0  0  0  0  0  0  0  0  0  0  0
    4.9647    7.9123   10.9387 H   0  0  0  0  0  0  0  0  0  0  0  0
    4.3969    6.5333    9.4762 C   0  0  0  0  0  0  0  0  0  0  0  0
    5.1559    6.2880    8.8899 H   0  0  0  0  0  0  0  0  0  0  0  0
    4.3368    5.8736   10.2124 H   0  0  0  0  0  0  0  0  0  0  0  0
    6.3103    5.0055    3.8790 Na  0  0  0  0  0  0  0  0  0  0  0  0
    5.2804    3.6531    6.7901 P   0  0  0  0  0  0  0  0  0  0  0  0
    5.3971    3.0333    5.1553 N   0  0  0  0  0  0  0  0  0  0  0  0
    6.0807    3.9116    1.8562 O   0  0  0  0  0  0  0  0  0  0  0  0
    7.0400    4.3995    7.1027 B   0  0  0  0  0  0  0  0  0  0  0  0
    5.1325    2.3460    7.8659 N   0  0  0  0  0  0  0  0  0  0  0  0
    7.0938    4.7466    8.1455 H   0  0  0  0  0  0  0  0  0  0  0  0
    7.0983    5.3092    6.4292 H   0  0  0  0  0  0  0  0  0  0  0  0
    7.9083    3.6844    6.8802 H   0  0  0  0  0  0  0  0  0  0  0  0
    6.4332    2.0388    4.8556 C   0  0  0  0  0  0  0  0  0  0  0  0
    4.1217    2.5697    4.6069 C   0  0  0  0  0  0  0  0  0  0  0  0
    6.1756    1.3809    8.1485 C   0  0  0  0  0  0  0  0  0  0  0  0
    3.8231    1.8745    8.2631 C   0  0  0  0  0  0  0  0  0  0  0  0
    7.2639    2.3248    5.2285 H   0  0  0  0  0  0  0  0  0  0  0  0
    6.5455    1.9213    3.8499 H   0  0  0  0  0  0  0  0  0  0  0  0
    6.2031    1.1270    5.2200 H   0  0  0  0  0  0  0  0  0  0  0  0
    3.4270    3.2370    4.7880 H   0  0  0  0  0  0  0  0  0  0  0  0
    4.2086    2.4424    3.6392 H   0  0  0  0  0  0  0  0  0  0  0  0
    3.8749    1.7196    5.0273 H   0  0  0  0  0  0  0  0  0  0  0  0
    7.0457    1.7590    7.9031 H   0  0  0  0  0  0  0  0  0  0  0  0
    6.1711    1.1658    9.1048 H   0  0  0  0  0  0  0  0  0  0  0  0
    6.0152    0.5654    7.6299 H   0  0  0  0  0  0  0  0  0  0  0  0
    3.1565    2.5691    8.0809 H   0  0  0  0  0  0  0  0  0  0  0  0
    3.5988    1.0665    7.7559 H   0  0  0  0  0  0  0  0  0  0  0  0
    3.8265    1.6689    9.2213 H   0  0  0  0  0  0  0  0  0  0  0  0
    6.9623    3.0823    1.0928 C   0  0  0  0  0  0  0  0  0  0  0  0
    4.8611    3.9499    1.1121 C   0  0  0  0  0  0  0  0  0  0  0  0
    7.3810    3.5999    0.3600 H   0  0  0  0  0  0  0  0  0  0  0  0
    7.6768    2.7103    1.6676 H   0  0  0  0  0  0  0  0  0  0  0  0
    6.0981    1.9780    0.5372 C   0  0  0  0  0  0  0  0  0  0  0  0
    6.3704    1.7491   -0.3865 H   0  0  0  0  0  0  0  0  0  0  0  0
    6.1602    1.1658    1.1001 H   0  0  0  0  0  0  0  0  0  0  0  0
    4.6802    2.5468    0.5600 C   0  0  0  0  0  0  0  0  0  0  0  0
    4.0914    2.0086    1.1456 H   0  0  0  0  0  0  0  0  0  0  0  0
    4.2933    2.5709   -0.3505 H   0  0  0  0  0  0  0  0  0  0  0  0
    4.1022    4.1953    1.6984 H   0  0  0  0  0  0  0  0  0  0  0  0
    4.9212    4.6097    0.3759 H   0  0  0  0  0  0  0  0  0  0  0  0
  1  7  1  0  0  0  0
  2  3  1  0  0  0  0
  3  4  1  0  0  0  0
  5  3  1  0  0  0  0
  6  3  1  0  0  0  0
  7  2  1  0  0  0  0
  8  2  1  0  0  0  0
  9  7  1  0  0  0  0
 10  9  1  0  0  0  0
 11  9  1  0  0  0  0
 12  9  1  0  0  0  0
 13  7  1  0  0  0  0
 14 13  1  0  0  0  0
 15 13  1  0  0  0  0
 16 13  1  0  0  0  0
 17  8  1  0  0  0  0
 18 17  1  0  0  0  0
 19 17  1  0  0  0  0
 20 17  1  0  0  0  0
 21  8  1  0  0  0  0
 22 21  1  0  0  0  0
 23 21  1  0  0  0  0
 24 21  1  0  0  0  0
 25  1  1  0  0  0  0
 26 25  1  0  0  0  0
 27 26  1  0  0  0  0
 28 26  1  0  0  0  0
 29 26  1  0  0  0  0
 30 29  1  0  0  0  0
 31 29  1  0  0  0  0
 32 29  1  0  0  0  0
 33 32  1  0  0  0  0
 34 32  1  0  0  0  0
 35 25  1  0  0  0  0
 36 35  1  0  0  0  0
 37 35  1  0  0  0  0
 38  2  1  0  0  0  0
 39  1  1  0  0  0  0
 40 38  1  0  0  0  0
 41 38  1  0  0  0  0
 42 39  1  0  0  0  0
 43 39  1  0  0  0  0
 44 42  1  0  0  0  0
 45 42  1  0  0  0  0
 46 42  1  0  0  0  0
 47 40  1  0  0  0  0
 48 40  1  0  0  0  0
 49 43  1  0  0  0  0
 50 43  1  0  0  0  0
 51 47  1  0  0  0  0
 52 47  1  0  0  0  0
 53 47  1  0  0  0  0
 54 48  1  0  0  0  0
 55 48  1  0  0  0  0
 56 48  1  0  0  0  0
 57 49  1  0  0  0  0
 58 49  1  0  0  0  0
 59 49  1  0  0  0  0
 60 50  1  0  0  0  0
 61 50  1  0  0  0  0
 62 50  1  0  0  0  0
 63 41  1  0  0  0  0
 64 41  1  0  0  0  0
 65 63  1  0  0  0  0
 66 63  1  0  0  0  0
 67 63  1  0  0  0  0
 68 67  1  0  0  0  0
 69 67  1  0  0  0  0
 70 64  1  0  0  0  0
 71 70  1  0  0  0  0
 72 70  1  0  0  0  0
 73 64  1  0  0  0  0
 74 64  1  0  0  0  0
 32 35  1  0  0  0  0
 39 40  1  0  0  0  0
 67 70  1  0  0  0  0
M  END
$$$$
SABZAA

From CSD data. Using bond type 'Any'. No disordered atoms. Largest molecule.
 87 90  0  0  0  0  0  0  0  0999 V2000
    4.6765    0.7959   11.5935 P   0  0  0  0  0  0  0  0  0  0  0  0
    4.5737   -1.0833   11.2375 B   0  0  0  0  0  0  0  0  0  0  0  0
    3.5424   -1.2393   10.8171 H   0  0  0  0  0  0  0  0  0  0  0  0
    5.3830   -1.3437   10.3955 H   0  0  0  0  0  0  0  0  0  0  0  0
    4.6882   -1.5456   12.1740 H   0  0  0  0  0  0  0  0  0  0  0  0
    6.2378    1.3291   11.6870 N   0  0  0  0  0  0  0  0  0  0  0  0
    6.6236    2.7438   11.5235 C   0  0  0  0  0  0  0  0  0  0  0  0
    7.0075    3.0725   12.3737 H   0  0  0  0  0  0  0  0  0  0  0  0
    5.8121    3.2779   11.3339 H   0  0  0  0  0  0  0  0  0  0  0  0
    7.6364    2.9639   10.4040 C   0  0  0  0  0  0  0  0  0  0  0  0
    7.8546    3.9177   10.3416 H   0  0  0  0  0  0  0  0  0  0  0  0
    8.4522    2.4549   10.5952 H   0  0  0  0  0  0  0  0  0  0  0  0
    7.2557    2.6610    9.5522 H   0  0  0  0  0  0  0  0  0  0  0  0
    7.2641    0.4338   12.2380 C   0  0  0  0  0  0  0  0  0  0  0  0
    8.1519    0.7352   11.9204 H   0  0  0  0  0  0  0  0  0  0  0  0
    7.1122   -0.4783   11.8855 H   0  0  0  0  0  0  0  0  0  0  0  0
    7.2844    0.3711   13.7617 C   0  0  0  0  0  0  0  0  0  0  0  0
    7.9905   -0.2423   14.0540 H   0  0  0  0  0  0  0  0  0  0  0  0
    7.4581    1.2650   14.1237 H   0  0  0  0  0  0  0  0  0  0  0  0
    6.4172    0.0501   14.0857 H   0  0  0  0  0  0  0  0  0  0  0  0
    3.8515    1.1683   12.9888 N   0  0  0  0  0  0  0  0  0  0  0  0
    4.0219    2.4946   13.6197 C   0  0  0  0  0  0  0  0  0  0  0  0
    3.2625    3.0718   13.3565 H   0  0  0  0  0  0  0  0  0  0  0  0
    4.8506    2.9095   13.2709 H   0  0  0  0  0  0  0  0  0  0  0  0
    4.1006    2.4542   15.1382 C   0  0  0  0  0  0  0  0  0  0  0  0
    4.2121    3.3642   15.4838 H   0  0  0  0  0  0  0  0  0  0  0  0
    3.2750    2.0678   15.4997 H   0  0  0  0  0  0  0  0  0  0  0  0
    4.8647    1.9049   15.4141 H   0  0  0  0  0  0  0  0  0  0  0  0
    2.5975    0.4317   13.3026 C   0  0  0  0  0  0  0  0  0  0  0  0
    2.2561    0.0000   12.4815 H   0  0  0  0  0  0  0  0  0  0  0  0
    1.9121    1.0729   13.6197 H   0  0  0  0  0  0  0  0  0  0  0  0
    2.8342   -0.6287   14.3742 C   0  0  0  0  0  0  0  0  0  0  0  0
    1.9937   -1.0966   14.5644 H   0  0  0  0  0  0  0  0  0  0  0  0
    3.5029   -1.2713   14.0572 H   0  0  0  0  0  0  0  0  0  0  0  0
    3.1589   -0.1998   15.1953 H   0  0  0  0  0  0  0  0  0  0  0  0
    3.9557    1.7155   10.1615 C   0  0  0  0  0  0  0  0  0  0  0  0
    4.7103    1.4735    8.6724 S   0  0  0  0  0  0  0  0  0  0  0  0
    2.5554    2.6054   10.4240 S   0  0  0  0  0  0  0  0  0  0  0  0
    4.2122    4.6861    8.2507 K   0  0  0  0  0  0  0  0  0  0  0  0
    6.7460    5.8797    7.9258 O   0  0  0  0  0  0  0  0  0  0  0  0
    6.5072    6.3496    8.5852 H   0  0  0  0  0  0  0  0  0  0  0  0
    6.9849    6.3496    7.2664 H   0  0  0  0  0  0  0  0  0  0  0  0
    8.8156    0.7959    4.2580 P   0  0  0  0  0  0  0  0  0  0  0  0
    8.9183   -1.0833    4.6141 B   0  0  0  0  0  0  0  0  0  0  0  0
    9.9497   -1.2393    5.0345 H   0  0  0  0  0  0  0  0  0  0  0  0
    8.1090   -1.3437    5.4561 H   0  0  0  0  0  0  0  0  0  0  0  0
    8.8039   -1.5456    3.6776 H   0  0  0  0  0  0  0  0  0  0  0  0
    7.2543    1.3291    4.1645 N   0  0  0  0  0  0  0  0  0  0  0  0
    6.8684    2.7438    4.3281 C   0  0  0  0  0  0  0  0  0  0  0  0
    6.4845    3.0725    3.4778 H   0  0  0  0  0  0  0  0  0  0  0  0
    7.6799    3.2779    4.5177 H   0  0  0  0  0  0  0  0  0  0  0  0
    5.8557    2.9639    5.4476 C   0  0  0  0  0  0  0  0  0  0  0  0
    5.6375    3.9177    5.5100 H   0  0  0  0  0  0  0  0  0  0  0  0
    5.0398    2.4549    5.2564 H   0  0  0  0  0  0  0  0  0  0  0  0
    6.2364    2.6610    6.2994 H   0  0  0  0  0  0  0  0  0  0  0  0
    6.2280    0.4338    3.6135 C   0  0  0  0  0  0  0  0  0  0  0  0
    5.3402    0.7352    3.9312 H   0  0  0  0  0  0  0  0  0  0  0  0
    6.3799   -0.4783    3.9661 H   0  0  0  0  0  0  0  0  0  0  0  0
    6.2076    0.3711    2.0899 C   0  0  0  0  0  0  0  0  0  0  0  0
    5.5016   -0.2423    1.7976 H   0  0  0  0  0  0  0  0  0  0  0  0
    6.0339    1.2650    1.7278 H   0  0  0  0  0  0  0  0  0  0  0  0
    7.0748    0.0501    1.7659 H   0  0  0  0  0  0  0  0  0  0  0  0
    9.6406    1.1683    2.8628 N   0  0  0  0  0  0  0  0  0  0  0  0
    9.4702    2.4946    2.2319 C   0  0  0  0  0  0  0  0  0  0  0  0
   10.2296    3.0718    2.4950 H   0  0  0  0  0  0  0  0  0  0  0  0
    8.6414    2.9095    2.5806 H   0  0  0  0  0  0  0  0  0  0  0  0
    9.3915    2.4542    0.7133 C   0  0  0  0  0  0  0  0  0  0  0  0
    9.2799    3.3642    0.3678 H   0  0  0  0  0  0  0  0  0  0  0  0
   10.2171    2.0678    0.3519 H   0  0  0  0  0  0  0  0  0  0  0  0
    8.6274    1.9049    0.4375 H   0  0  0  0  0  0  0  0  0  0  0  0
   10.8946    0.4317    2.5489 C   0  0  0  0  0  0  0  0  0  0  0  0
   11.2360    0.0000    3.3700 H   0  0  0  0  0  0  0  0  0  0  0  0
   11.5800    1.0729    2.2319 H   0  0  0  0  0  0  0  0  0  0  0  0
   10.6579   -0.6287    1.4774 C   0  0  0  0  0  0  0  0  0  0  0  0
   11.4984   -1.0966    1.2871 H   0  0  0  0  0  0  0  0  0  0  0  0
    9.9892   -1.2713    1.7944 H   0  0  0  0  0  0  0  0  0  0  0  0
   10.3332   -0.1998    0.6563 H   0  0  0  0  0  0  0  0  0  0  0  0
    9.5363    1.7155    5.6901 C   0  0  0  0  0  0  0  0  0  0  0  0
    8.7818    1.4735    7.1792 S   0  0  0  0  0  0  0  0  0  0  0  0
   10.9367    2.6054    5.4276 S   0  0  0  0  0  0  0  0  0  0  0  0
    9.2798    4.6861    7.6008 K   0  0  0  0  0  0  0  0  0  0  0  0
   12.3158    4.9547    8.6724 S   0  0  0  0  0  0  0  0  0  0  0  0
    1.1763    4.9547    7.1792 S   0  0  0  0  0  0  0  0  0  0  0  0
   10.1609    6.0866   10.4240 S   0  0  0  0  0  0  0  0  0  0  0  0
    3.3312    6.0866    5.4276 S   0  0  0  0  0  0  0  0  0  0  0  0
   11.8177    1.2050    8.2507 K   0  0  0  0  0  0  0  0  0  0  0  0
    1.6743    1.2050    7.6008 K   0  0  0  0  0  0  0  0  0  0  0  0
  1  2  1  0  0  0  0
  2  3  1  0  0  0  0
  4  2  1  0  0  0  0
  5  2  1  0  0  0  0
  6  1  1  0  0  0  0
  7  6  1  0  0  0  0
  8  7  1  0  0  0  0
  9  7  1  0  0  0  0
 10  7  1  0  0  0  0
 11 10  1  0  0  0  0
 12 10  1  0  0  0  0
 13 10  1  0  0  0  0
 14  6  1  0  0  0  0
 15 14  1  0  0  0  0
 16 14  1  0  0  0  0
 17 14  1  0  0  0  0
 18 17  1  0  0  0  0
 19 17  1  0  0  0  0
 20 17  1  0  0  0  0
 21  1  1  0  0  0  0
 22 21  1  0  0  0  0
 23 22  1  0  0  0  0
 24 22  1  0  0  0  0
 25 22  1  0  0  0  0
 26 25  1  0  0  0  0
 27 25  1  0  0  0  0
 28 25  1  0  0  0  0
 29 21  1  0  0  0  0
 30 29  1  0  0  0  0
 31 29  1  0  0  0  0
 32 29  1  0  0  0  0
 33 32  1  0  0  0  0
 34 32  1  0  0  0  0
 35 32  1  0  0  0  0
 36  1  1  0  0  0  0
 37 36  8  0  0  0  0
 38 36  8  0  0  0  0
 39 37  1  0  0  0  0
 40 39  1  0  0  0  0
 41 40  1  0  0  0  0
 42 40  1  0  0  0  0
 43 44  1  0  0  0  0
 44 45  1  0  0  0  0
 46 44  1  0  0  0  0
 47 44  1  0  0  0  0
 48 43  1  0  0  0  0
 49 48  1  0  0  0  0
 50 49  1  0  0  0  0
 51 49  1  0  0  0  0
 52 49  1  0  0  0  0
 53 52  1  0  0  0  0
 54 52  1  0  0  0  0
 55 52  1  0  0  0  0
 56 48  1  0  0  0  0
 57 56  1  0  0  0  0
 58 56  1  0  0  0  0
 59 56  1  0  0  0  0
 60 59  1  0  0  0  0
 61 59  1  0  0  0  0
 62 59  1  0  0  0  0
 63 43  1  0  0  0  0
 64 63  1  0  0  0  0
 65 64  1  0  0  0  0
 66 64  1  0  0  0  0
 67 64  1  0  0  0  0
 68 67  1  0  0  0  0
 69 67  1  0  0  0  0
 70 67  1  0  0  0  0
 71 63  1  0  0  0  0
 72 71  1  0  0  0  0
 73 71  1  0  0  0  0
 74 71  1  0  0  0  0
 75 74  1  0  0  0  0
 76 74  1  0  0  0  0
 77 74  1  0  0  0  0
 78 43  1  0  0  0  0
 79 78  8  0  0  0  0
 80 78  8  0  0  0  0
 81 40  1  0  0  0  0
 82 81  8  0  0  0  0
 83 39  8  0  0  0  0
 84 81  8  0  0  0  0
 85 39  8  0  0  0  0
 86 79  8  0  0  0  0
 87 37  8  0  0  0  0
 38 39  1  0  0  0  0
 38 87  8  0  0  0  0
 79 81  1  0  0  0  0
 80 81  1  0  0  0  0
 80 86  8  0  0  0  0
M  END
$$$$
SAFZOP

From CSD data. Using bond type 'Any'. No disordered atoms. Largest molecule.
114120  0  0  0  0  0  0  0  0999 V2000
    3.2275   13.7020   -0.7951 Pd  0  0  0  0  0  0  0  0  0  0  0  0
    5.9749   15.9723   -0.0681 Pd  0  0  0  0  0  0  0  0  0  0  0  0
    5.6684   13.6388   -0.6977 Cl  0  0  0  0  0  0  0  0  0  0  0  0
    3.7126   16.0616   -0.9396 Cl  0  0  0  0  0  0  0  0  0  0  0  0
    2.9146   11.5250   -0.2420 P   0  0  0  0  0  0  0  0  0  0  0  0
    0.9754   13.9732   -0.9463 P   0  0  0  0  0  0  0  0  0  0  0  0
    8.1201   15.8258    0.6293 P   0  0  0  0  0  0  0  0  0  0  0  0
    5.9372   18.1488    0.5013 P   0  0  0  0  0  0  0  0  0  0  0  0
    1.4219   11.0320   -0.1591 O   0  0  0  0  0  0  0  0  0  0  0  0
    0.1161   12.7051   -1.2820 O   0  0  0  0  0  0  0  0  0  0  0  0
    8.7954   17.1223    1.1835 O   0  0  0  0  0  0  0  0  0  0  0  0
    7.2819   18.9179    0.6620 O   0  0  0  0  0  0  0  0  0  0  0  0
   -0.7965   10.6789   -0.6788 F   0  0  0  0  0  0  0  0  0  0  0  0
    0.7049   10.7695   -2.3869 F   0  0  0  0  0  0  0  0  0  0  0  0
    9.4365   18.9152   -0.1844 F   0  0  0  0  0  0  0  0  0  0  0  0
    9.1006   19.2294    2.0391 F   0  0  0  0  0  0  0  0  0  0  0  0
    0.3520   11.2560   -1.1545 B   0  0  0  0  0  0  0  0  0  0  0  0
    8.6811   18.5593    0.9213 B   0  0  0  0  0  0  0  0  0  0  0  0
    3.7519   10.2686   -1.2654 C   0  0  0  0  0  0  0  0  0  0  0  0
    3.1443    9.0095   -1.3779 C   0  0  0  0  0  0  0  0  0  0  0  0
    2.3047    8.8477   -0.9637 H   0  0  0  0  0  0  0  0  0  0  0  0
    3.7719    8.0004   -2.0921 C   0  0  0  0  0  0  0  0  0  0  0  0
    3.3606    7.1465   -2.1589 H   0  0  0  0  0  0  0  0  0  0  0  0
    4.9854    8.2256   -2.7068 C   0  0  0  0  0  0  0  0  0  0  0  0
    5.4118    7.5268   -3.1911 H   0  0  0  0  0  0  0  0  0  0  0  0
    5.5874    9.4848   -2.6188 C   0  0  0  0  0  0  0  0  0  0  0  0
    6.4153    9.6499   -3.0558 H   0  0  0  0  0  0  0  0  0  0  0  0
    4.9752   10.4821   -1.8932 C   0  0  0  0  0  0  0  0  0  0  0  0
    5.3947   11.3310   -1.8214 H   0  0  0  0  0  0  0  0  0  0  0  0
    3.4571   11.2727    1.5295 C   0  0  0  0  0  0  0  0  0  0  0  0
    2.9580   12.4685    2.3579 C   0  0  0  0  0  0  0  0  0  0  0  0
    3.2320   12.3551    3.2922 H   0  0  0  0  0  0  0  0  0  0  0  0
    1.9794   12.5152    2.3090 H   0  0  0  0  0  0  0  0  0  0  0  0
    3.3435   13.2957    2.0024 H   0  0  0  0  0  0  0  0  0  0  0  0
    4.9778   11.1592    1.6274 C   0  0  0  0  0  0  0  0  0  0  0  0
    5.2371   11.0325    2.5633 H   0  0  0  0  0  0  0  0  0  0  0  0
    5.3892   11.9798    1.2833 H   0  0  0  0  0  0  0  0  0  0  0  0
    5.2830   10.3937    1.0974 H   0  0  0  0  0  0  0  0  0  0  0  0
    2.8270   10.0085    2.0562 C   0  0  0  0  0  0  0  0  0  0  0  0
    3.1026    9.8684    2.9873 H   0  0  0  0  0  0  0  0  0  0  0  0
    3.1183    9.2463    1.5116 H   0  0  0  0  0  0  0  0  0  0  0  0
    1.8505   10.0852    2.0138 H   0  0  0  0  0  0  0  0  0  0  0  0
    0.4040   14.5432    0.6783 C   0  0  0  0  0  0  0  0  0  0  0  0
   -0.5086   13.7510    1.3860 C   0  0  0  0  0  0  0  0  0  0  0  0
   -0.8814   12.9738    0.9882 H   0  0  0  0  0  0  0  0  0  0  0  0
   -0.8582   14.1196    2.6775 C   0  0  0  0  0  0  0  0  0  0  0  0
   -1.4497   13.5676    3.1748 H   0  0  0  0  0  0  0  0  0  0  0  0
   -0.3613   15.2804    3.2531 C   0  0  0  0  0  0  0  0  0  0  0  0
   -0.6228   15.5322    4.1320 H   0  0  0  0  0  0  0  0  0  0  0  0
    0.5140   16.0592    2.5356 C   0  0  0  0  0  0  0  0  0  0  0  0
    0.8555   16.8581    2.9188 H   0  0  0  0  0  0  0  0  0  0  0  0
    0.9047   15.6923    1.2605 C   0  0  0  0  0  0  0  0  0  0  0  0
    1.5218   16.2327    0.7827 H   0  0  0  0  0  0  0  0  0  0  0  0
    0.3248   15.1303   -2.2503 C   0  0  0  0  0  0  0  0  0  0  0  0
   -1.2100   14.9468   -2.2861 C   0  0  0  0  0  0  0  0  0  0  0  0
   -1.5947   15.5422   -2.9645 H   0  0  0  0  0  0  0  0  0  0  0  0
   -1.5859   15.1686   -1.4089 H   0  0  0  0  0  0  0  0  0  0  0  0
   -1.4222   14.0179   -2.5095 H   0  0  0  0  0  0  0  0  0  0  0  0
    0.9303   14.6900   -3.5874 C   0  0  0  0  0  0  0  0  0  0  0  0
    0.6100   15.2787   -4.3016 H   0  0  0  0  0  0  0  0  0  0  0  0
    0.6614   13.7677   -3.7798 H   0  0  0  0  0  0  0  0  0  0  0  0
    1.9074   14.7400   -3.5352 H   0  0  0  0  0  0  0  0  0  0  0  0
    0.6129   16.6180   -1.9959 C   0  0  0  0  0  0  0  0  0  0  0  0
    0.2410   17.1533   -2.7264 H   0  0  0  0  0  0  0  0  0  0  0  0
    1.5810   16.7597   -1.9470 H   0  0  0  0  0  0  0  0  0  0  0  0
    0.2012   16.8898   -1.1496 H   0  0  0  0  0  0  0  0  0  0  0  0
    8.2887   14.7167    2.0546 C   0  0  0  0  0  0  0  0  0  0  0  0
    8.7625   15.2420    3.2564 C   0  0  0  0  0  0  0  0  0  0  0  0
    8.9968   16.1610    3.3102 H   0  0  0  0  0  0  0  0  0  0  0  0
    8.8968   14.4265    4.3799 C   0  0  0  0  0  0  0  0  0  0  0  0
    9.2262   14.7850    5.1952 H   0  0  0  0  0  0  0  0  0  0  0  0
    8.5414   13.0889    4.2983 C   0  0  0  0  0  0  0  0  0  0  0  0
    8.6298   12.5318    5.0631 H   0  0  0  0  0  0  0  0  0  0  0  0
    8.0636   12.5535    3.1194 C   0  0  0  0  0  0  0  0  0  0  0  0
    7.8289   11.6346    3.0737 H   0  0  0  0  0  0  0  0  0  0  0  0
    7.9305   13.3657    2.0008 C   0  0  0  0  0  0  0  0  0  0  0  0
    7.5909   13.0005    1.1920 H   0  0  0  0  0  0  0  0  0  0  0  0
    9.2659   15.2754   -0.7289 C   0  0  0  0  0  0  0  0  0  0  0  0
   10.7005   15.5456   -0.2625 C   0  0  0  0  0  0  0  0  0  0  0  0
   11.3282   15.2637   -0.9588 H   0  0  0  0  0  0  0  0  0  0  0  0
   10.8766   15.0419    0.5593 H   0  0  0  0  0  0  0  0  0  0  0  0
   10.8112   16.5029   -0.0897 H   0  0  0  0  0  0  0  0  0  0  0  0
    8.9484   16.1076   -1.9616 C   0  0  0  0  0  0  0  0  0  0  0  0
    9.5363   15.8391   -2.6987 H   0  0  0  0  0  0  0  0  0  0  0  0
    9.0895   17.0566   -1.7611 H   0  0  0  0  0  0  0  0  0  0  0  0
    8.0132   15.9642   -2.2209 H   0  0  0  0  0  0  0  0  0  0  0  0
    9.1306   13.7894   -1.0615 C   0  0  0  0  0  0  0  0  0  0  0  0
    9.7536   13.5575   -1.7806 H   0  0  0  0  0  0  0  0  0  0  0  0
    8.2130   13.6009   -1.3502 H   0  0  0  0  0  0  0  0  0  0  0  0
    9.3368   13.2557   -0.2658 H   0  0  0  0  0  0  0  0  0  0  0  0
    5.1555   19.1242   -0.8218 C   0  0  0  0  0  0  0  0  0  0  0  0
    6.0099   19.7784   -1.7138 C   0  0  0  0  0  0  0  0  0  0  0  0
    6.9503   19.7401   -1.5817 H   0  0  0  0  0  0  0  0  0  0  0  0
    5.4973   20.4772   -2.7802 C   0  0  0  0  0  0  0  0  0  0  0  0
    6.0852   20.9276   -3.3754 H   0  0  0  0  0  0  0  0  0  0  0  0
    4.1404   20.5340   -2.9938 C   0  0  0  0  0  0  0  0  0  0  0  0
    3.7906   21.0159   -3.7341 H   0  0  0  0  0  0  0  0  0  0  0  0
    3.2807   19.8752   -2.1198 C   0  0  0  0  0  0  0  0  0  0  0  0
    2.3427   19.9002   -2.2715 H   0  0  0  0  0  0  0  0  0  0  0  0
    3.7842   19.1847   -1.0273 C   0  0  0  0  0  0  0  0  0  0  0  0
    3.1909   18.7527   -0.4207 H   0  0  0  0  0  0  0  0  0  0  0  0
    5.0963   18.3725    2.1296 C   0  0  0  0  0  0  0  0  0  0  0  0
    4.9451   19.8718    2.4117 C   0  0  0  0  0  0  0  0  0  0  0  0
    4.5038   19.9986    3.2759 H   0  0  0  0  0  0  0  0  0  0  0  0
    4.4068   20.2855    1.7040 H   0  0  0  0  0  0  0  0  0  0  0  0
    5.8322   20.2905    2.4329 H   0  0  0  0  0  0  0  0  0  0  0  0
    6.0258   17.7270    3.1748 C   0  0  0  0  0  0  0  0  0  0  0  0
    5.6279   17.8171    4.0651 H   0  0  0  0  0  0  0  0  0  0  0  0
    6.8961   18.1774    3.1585 H   0  0  0  0  0  0  0  0  0  0  0  0
    6.1443   16.7781    2.9645 H   0  0  0  0  0  0  0  0  0  0  0  0
    3.7252   17.6837    2.2291 C   0  0  0  0  0  0  0  0  0  0  0  0
    3.3437   17.8421    3.1178 H   0  0  0  0  0  0  0  0  0  0  0  0
    3.8335   16.7197    2.0872 H   0  0  0  0  0  0  0  0  0  0  0  0
    3.1245   18.0489    1.5458 H   0  0  0  0  0  0  0  0  0  0  0  0
  1  3  1  0  0  0  0
  2  3  1  0  0  0  0
  4  1  1  0  0  0  0
  5  1  1  0  0  0  0
  6  1  1  0  0  0  0
  7  2  1  0  0  0  0
  8  2  1  0  0  0  0
  9  5  1  0  0  0  0
 10  6  1  0  0  0  0
 11  7  1  0  0  0  0
 12  8  1  0  0  0  0
 13 17  1  0  0  0  0
 14 17  1  0  0  0  0
 15 18  1  0  0  0  0
 16 18  1  0  0  0  0
 17  9  1  0  0  0  0
 18 11  1  0  0  0  0
 19  5  1  0  0  0  0
 20 19  4  0  0  0  0
 21 20  1  0  0  0  0
 22 20  4  0  0  0  0
 23 22  1  0  0  0  0
 24 22  4  0  0  0  0
 25 24  1  0  0  0  0
 26 24  4  0  0  0  0
 27 26  1  0  0  0  0
 28 19  4  0  0  0  0
 29 28  1  0  0  0  0
 30  5  1  0  0  0  0
 31 30  1  0  0  0  0
 32 31  1  0  0  0  0
 33 31  1  0  0  0  0
 34 31  1  0  0  0  0
 35 30  1  0  0  0  0
 36 35  1  0  0  0  0
 37 35  1  0  0  0  0
 38 35  1  0  0  0  0
 39 30  1  0  0  0  0
 40 39  1  0  0  0  0
 41 39  1  0  0  0  0
 42 39  1  0  0  0  0
 43  6  1  0  0  0  0
 44 43  4  0  0  0  0
 45 44  1  0  0  0  0
 46 44  4  0  0  0  0
 47 46  1  0  0  0  0
 48 46  4  0  0  0  0
 49 48  1  0  0  0  0
 50 48  4  0  0  0  0
 51 50  1  0  0  0  0
 52 43  4  0  0  0  0
 53 52  1  0  0  0  0
 54  6  1  0  0  0  0
 55 54  1  0  0  0  0
 56 55  1  0  0  0  0
 57 55  1  0  0  0  0
 58 55  1  0  0  0  0
 59 54  1  0  0  0  0
 60 59  1  0  0  0  0
 61 59  1  0  0  0  0
 62 59  1  0  0  0  0
 63 54  1  0  0  0  0
 64 63  1  0  0  0  0
 65 63  1  0  0  0  0
 66 63  1  0  0  0  0
 67  7  1  0  0  0  0
 68 67  4  0  0  0  0
 69 68  1  0  0  0  0
 70 68  4  0  0  0  0
 71 70  1  0  0  0  0
 72 70  4  0  0  0  0
 73 72  1  0  0  0  0
 74 72  4  0  0  0  0
 75 74  1  0  0  0  0
 76 67  4  0  0  0  0
 77 76  1  0  0  0  0
 78  7  1  0  0  0  0
 79 78  1  0  0  0  0
 80 79  1  0  0  0  0
 81 79  1  0  0  0  0
 82 79  1  0  0  0  0
 83 78  1  0  0  0  0
 84 83  1  0  0  0  0
 85 83  1  0  0  0  0
 86 83  1  0  0  0  0
 87 78  1  0  0  0  0
 88 87  1  0  0  0  0
 89 87  1  0  0  0  0
 90 87  1  0  0  0  0
 91  8  1  0  0  0  0
 92 91  4  0  0  0  0
 93 92  1  0  0  0  0
 94 92  4  0  0  0  0
 95 94  1  0  0  0  0
 96 94  4  0  0  0  0
 97 96  1  0  0  0  0
 98 96  4  0  0  0  0
 99 98  1  0  0  0  0
100 91  4  0  0  0  0
101100  1  0  0  0  0
102  8  1  0  0  0  0
103102  1  0  0  0  0
104103  1  0  0  0  0
105103  1  0  0  0  0
106103  1  0  0  0  0
107102  1  0  0  0  0
108107  1  0  0  0  0
109107  1  0  0  0  0
110107  1  0  0  0  0
111102  1  0  0  0  0
112111  1  0  0  0  0
113111  1  0  0  0  0
114111  1  0  0  0  0
  2  4  1  0  0  0  0
 10 17  1  0  0  0  0
 12 18  1  0  0  0  0
 26 28  4  0  0  0  0
 50 52  4  0  0  0  0
 74 76  4  0  0  0  0
 98100  4  0  0  0  0
M  END
$$$$
SAGBAE

From CSD data. Using bond type 'Any'. No disordered atoms. Largest molecule.
117124  0  0  0  0  0  0  0  0999 V2000
    6.7261    5.8438   11.6711 W   0  0  0  0  0  0  0  0  0  0  0  0
    5.6259    7.1178   14.0699 Pd  0  0  0  0  0  0  0  0  0  0  0  0
    7.6779    4.6353    9.1654 Pd  0  0  0  0  0  0  0  0  0  0  0  0
    5.7829    9.2490   14.9283 P   0  0  0  0  0  0  0  0  0  0  0  0
    4.0247    6.5290   15.6424 P   0  0  0  0  0  0  0  0  0  0  0  0
    7.0578    4.6681    6.9469 P   0  0  0  0  0  0  0  0  0  0  0  0
    9.5362    3.3921    8.6642 P   0  0  0  0  0  0  0  0  0  0  0  0
    6.9436    7.9405   12.2596 S   0  0  0  0  0  0  0  0  0  0  0  0
    5.6686    4.8718   13.3205 S   0  0  0  0  0  0  0  0  0  0  0  0
    5.6078    5.6427    9.7973 S   0  0  0  0  0  0  0  0  0  0  0  0
    8.6525    4.8592   11.3453 S   0  0  0  0  0  0  0  0  0  0  0  0
    4.7291    9.6176   16.0214 O   0  0  0  0  0  0  0  0  0  0  0  0
    3.9555    7.5005   16.8677 O   0  0  0  0  0  0  0  0  0  0  0  0
    9.4991    2.5520    7.3560 O   0  0  0  0  0  0  0  0  0  0  0  0
    7.9061    3.7366    6.0167 O   0  0  0  0  0  0  0  0  0  0  0  0
    5.4298   10.5775   13.7102 C   0  0  0  0  0  0  0  0  0  0  0  0
    6.3494   11.0984   12.8137 C   0  0  0  0  0  0  0  0  0  0  0  0
    7.2415   10.7718   12.8074 H   0  0  0  0  0  0  0  0  0  0  0  0
    5.9739   12.0982   11.9234 C   0  0  0  0  0  0  0  0  0  0  0  0
    6.6037   12.4353   11.2969 H   0  0  0  0  0  0  0  0  0  0  0  0
    4.7185   12.5897   11.9423 C   0  0  0  0  0  0  0  0  0  0  0  0
    4.4625   13.2681   11.3283 H   0  0  0  0  0  0  0  0  0  0  0  0
    3.8089   12.1066   12.8545 C   0  0  0  0  0  0  0  0  0  0  0  0
    2.9265   12.4605   12.8733 H   0  0  0  0  0  0  0  0  0  0  0  0
    4.1614   11.1226   13.7353 C   0  0  0  0  0  0  0  0  0  0  0  0
    3.5292   10.8117   14.3712 H   0  0  0  0  0  0  0  0  0  0  0  0
    7.4243    9.5347   15.7670 C   0  0  0  0  0  0  0  0  0  0  0  0
    8.6480    9.4748   14.8532 C   0  0  0  0  0  0  0  0  0  0  0  0
    9.4588    9.6229   15.3839 H   0  0  0  0  0  0  0  0  0  0  0  0
    8.5760   10.1700   14.1655 H   0  0  0  0  0  0  0  0  0  0  0  0
    8.6937    8.5948   14.4246 H   0  0  0  0  0  0  0  0  0  0  0  0
    7.3519   10.9146   16.4500 C   0  0  0  0  0  0  0  0  0  0  0  0
    8.1964   11.0953   16.9132 H   0  0  0  0  0  0  0  0  0  0  0  0
    6.6161   10.9199   17.0985 H   0  0  0  0  0  0  0  0  0  0  0  0
    7.1949   11.6056   15.7733 H   0  0  0  0  0  0  0  0  0  0  0  0
    7.5135    8.4236   16.8316 C   0  0  0  0  0  0  0  0  0  0  0  0
    8.3596    8.5065   17.3199 H   0  0  0  0  0  0  0  0  0  0  0  0
    7.4729    7.5477   16.3951 H   0  0  0  0  0  0  0  0  0  0  0  0
    6.7658    8.5107   17.4580 H   0  0  0  0  0  0  0  0  0  0  0  0
    2.3706    6.5752   14.8313 C   0  0  0  0  0  0  0  0  0  0  0  0
    2.2134    7.9625   14.1294 C   0  0  0  0  0  0  0  0  0  0  0  0
    1.3449    8.0035   13.6772 H   0  0  0  0  0  0  0  0  0  0  0  0
    2.9298    8.0770   13.4700 H   0  0  0  0  0  0  0  0  0  0  0  0
    2.2691    8.6756   14.7983 H   0  0  0  0  0  0  0  0  0  0  0  0
    2.2125    5.4841   13.7856 C   0  0  0  0  0  0  0  0  0  0  0  0
    1.3265    5.5534   13.3726 H   0  0  0  0  0  0  0  0  0  0  0  0
    2.3061    4.6072   14.2126 H   0  0  0  0  0  0  0  0  0  0  0  0
    2.9032    5.5891   13.0979 H   0  0  0  0  0  0  0  0  0  0  0  0
    1.2866    6.4450   15.8958 C   0  0  0  0  0  0  0  0  0  0  0  0
    0.4056    6.4650   15.4671 H   0  0  0  0  0  0  0  0  0  0  0  0
    1.3587    7.1886   16.5285 H   0  0  0  0  0  0  0  0  0  0  0  0
    1.3985    5.5965   16.3731 H   0  0  0  0  0  0  0  0  0  0  0  0
    4.0658    4.9527   16.5584 C   0  0  0  0  0  0  0  0  0  0  0  0
    3.7317    4.9684   17.9165 C   0  0  0  0  0  0  0  0  0  0  0  0
    3.5629    5.8044   18.3357 H   0  0  0  0  0  0  0  0  0  0  0  0
    3.6410    3.8311   18.6623 C   0  0  0  0  0  0  0  0  0  0  0  0
    3.4011    3.8878   19.5793 H   0  0  0  0  0  0  0  0  0  0  0  0
    3.8946    2.5877   18.0908 C   0  0  0  0  0  0  0  0  0  0  0  0
    3.8309    1.7948   18.6105 H   0  0  0  0  0  0  0  0  0  0  0  0
    4.2408    2.5278   16.7578 C   0  0  0  0  0  0  0  0  0  0  0  0
    4.4505    1.6950   16.3480 H   0  0  0  0  0  0  0  0  0  0  0  0
    4.2801    3.7208   16.0135 C   0  0  0  0  0  0  0  0  0  0  0  0
    4.4669    3.6652   15.0840 H   0  0  0  0  0  0  0  0  0  0  0  0
    5.2992    4.2806    6.5144 C   0  0  0  0  0  0  0  0  0  0  0  0
    4.3723    5.4925    6.6274 C   0  0  0  0  0  0  0  0  0  0  0  0
    3.4584    5.2278    6.3919 H   0  0  0  0  0  0  0  0  0  0  0  0
    4.6778    6.1951    6.0167 H   0  0  0  0  0  0  0  0  0  0  0  0
    4.3864    5.8296    7.5475 H   0  0  0  0  0  0  0  0  0  0  0  0
    4.8015    3.1012    7.3905 C   0  0  0  0  0  0  0  0  0  0  0  0
    3.8715    2.8943    7.1613 H   0  0  0  0  0  0  0  0  0  0  0  0
    4.8559    3.3501    8.3357 H   0  0  0  0  0  0  0  0  0  0  0  0
    5.3609    2.3136    7.2272 H   0  0  0  0  0  0  0  0  0  0  0  0
    5.2823    3.8006    5.0259 C   0  0  0  0  0  0  0  0  0  0  0  0
    4.3629    3.5811    4.7637 H   0  0  0  0  0  0  0  0  0  0  0  0
    5.8477    3.0067    4.9317 H   0  0  0  0  0  0  0  0  0  0  0  0
    5.6235    4.5158    4.4481 H   0  0  0  0  0  0  0  0  0  0  0  0
    7.4147    6.3074    6.2616 C   0  0  0  0  0  0  0  0  0  0  0  0
    7.9405    6.4408    4.9929 C   0  0  0  0  0  0  0  0  0  0  0  0
    8.1370    5.6616    4.4842 H   0  0  0  0  0  0  0  0  0  0  0  0
    8.1881    7.6937    4.4434 C   0  0  0  0  0  0  0  0  0  0  0  0
    8.5470    7.7693    3.5673 H   0  0  0  0  0  0  0  0  0  0  0  0
    7.9096    8.8258    5.1814 C   0  0  0  0  0  0  0  0  0  0  0  0
    8.0552    9.6817    4.7967 H   0  0  0  0  0  0  0  0  0  0  0  0
    7.4257    8.7323    6.4641 C   0  0  0  0  0  0  0  0  0  0  0  0
    7.2653    9.5168    6.9760 H   0  0  0  0  0  0  0  0  0  0  0  0
    7.1686    7.4553    7.0152 C   0  0  0  0  0  0  0  0  0  0  0  0
    6.8288    7.3797    7.8992 H   0  0  0  0  0  0  0  0  0  0  0  0
    9.7212    2.0584    9.8917 C   0  0  0  0  0  0  0  0  0  0  0  0
    9.0603    0.8496    9.5887 C   0  0  0  0  0  0  0  0  0  0  0  0
    8.5219    0.7803    8.8083 H   0  0  0  0  0  0  0  0  0  0  0  0
    9.2035   -0.2678   10.4632 C   0  0  0  0  0  0  0  0  0  0  0  0
    8.7523   -1.0848   10.2858 H   0  0  0  0  0  0  0  0  0  0  0  0
   10.0088   -0.1365   11.5686 C   0  0  0  0  0  0  0  0  0  0  0  0
   10.1494   -0.8874   12.1322 H   0  0  0  0  0  0  0  0  0  0  0  0
   10.6210    1.0701   11.8810 C   0  0  0  0  0  0  0  0  0  0  0  0
   11.1379    1.1542   12.6739 H   0  0  0  0  0  0  0  0  0  0  0  0
   10.4727    2.1581   11.0190 C   0  0  0  0  0  0  0  0  0  0  0  0
   10.9019    2.9804   11.2247 H   0  0  0  0  0  0  0  0  0  0  0  0
   11.1124    4.3898    8.4597 C   0  0  0  0  0  0  0  0  0  0  0  0
   12.2857    3.4299    8.3027 C   0  0  0  0  0  0  0  0  0  0  0  0
   13.1155    3.9414    8.2007 H   0  0  0  0  0  0  0  0  0  0  0  0
   12.1479    2.8712    7.5098 H   0  0  0  0  0  0  0  0  0  0  0  0
   12.3497    2.8597    9.0972 H   0  0  0  0  0  0  0  0  0  0  0  0
   11.3840    5.3843    9.5855 C   0  0  0  0  0  0  0  0  0  0  0  0
   12.2255    5.8538    9.4112 H   0  0  0  0  0  0  0  0  0  0  0  0
   11.4487    4.9033   10.4365 H   0  0  0  0  0  0  0  0  0  0  0  0
   10.6519    6.0333    9.6311 H   0  0  0  0  0  0  0  0  0  0  0  0
   10.8988    5.1449    7.1126 C   0  0  0  0  0  0  0  0  0  0  0  0
   11.6838    5.6983    6.9195 H   0  0  0  0  0  0  0  0  0  0  0  0
   10.1048    5.7162    7.1817 H   0  0  0  0  0  0  0  0  0  0  0  0
   10.7708    4.4948    6.3903 H   0  0  0  0  0  0  0  0  0  0  0  0
    4.6318    9.1524   18.3059 F   0  0  0  0  0  0  0  0  0  0  0  0
    2.7092    9.4643   17.1409 F   0  0  0  0  0  0  0  0  0  0  0  0
    7.4469    1.5669    6.8096 F   0  0  0  0  0  0  0  0  0  0  0  0
    9.0244    1.8746    5.1924 F   0  0  0  0  0  0  0  0  0  0  0  0
    4.0001    8.9340   17.1048 B   0  0  0  0  0  0  0  0  0  0  0  0
    8.4606    2.3745    6.3244 B   0  0  0  0  0  0  0  0  0  0  0  0
  1  8  1  0  0  0  0
  2  4  1  0  0  0  0
  3  6  1  0  0  0  0
  4 12  1  0  0  0  0
  5  2  1  0  0  0  0
  6 15  1  0  0  0  0
  7  3  1  0  0  0  0
  8  2  1  0  0  0  0
  9  1  1  0  0  0  0
 10  1  1  0  0  0  0
 11  1  1  0  0  0  0
 12116  1  0  0  0  0
 13  5  1  0  0  0  0
 14  7  1  0  0  0  0
 15117  1  0  0  0  0
 16  4  1  0  0  0  0
 17 16  4  0  0  0  0
 18 17  1  0  0  0  0
 19 17  4  0  0  0  0
 20 19  1  0  0  0  0
 21 19  4  0  0  0  0
 22 21  1  0  0  0  0
 23 21  4  0  0  0  0
 24 23  1  0  0  0  0
 25 16  4  0  0  0  0
 26 25  1  0  0  0  0
 27  4  1  0  0  0  0
 28 27  1  0  0  0  0
 29 28  1  0  0  0  0
 30 28  1  0  0  0  0
 31 28  1  0  0  0  0
 32 27  1  0  0  0  0
 33 32  1  0  0  0  0
 34 32  1  0  0  0  0
 35 32  1  0  0  0  0
 36 27  1  0  0  0  0
 37 36  1  0  0  0  0
 38 36  1  0  0  0  0
 39 36  1  0  0  0  0
 40  5  1  0  0  0  0
 41 40  1  0  0  0  0
 42 41  1  0  0  0  0
 43 41  1  0  0  0  0
 44 41  1  0  0  0  0
 45 40  1  0  0  0  0
 46 45  1  0  0  0  0
 47 45  1  0  0  0  0
 48 45  1  0  0  0  0
 49 40  1  0  0  0  0
 50 49  1  0  0  0  0
 51 49  1  0  0  0  0
 52 49  1  0  0  0  0
 53  5  1  0  0  0  0
 54 53  4  0  0  0  0
 55 54  1  0  0  0  0
 56 54  4  0  0  0  0
 57 56  1  0  0  0  0
 58 56  4  0  0  0  0
 59 58  1  0  0  0  0
 60 58  4  0  0  0  0
 61 60  1  0  0  0  0
 62 53  4  0  0  0  0
 63 62  1  0  0  0  0
 64  6  1  0  0  0  0
 65 64  1  0  0  0  0
 66 65  1  0  0  0  0
 67 65  1  0  0  0  0
 68 65  1  0  0  0  0
 69 64  1  0  0  0  0
 70 69  1  0  0  0  0
 71 69  1  0  0  0  0
 72 69  1  0  0  0  0
 73 64  1  0  0  0  0
 74 73  1  0  0  0  0
 75 73  1  0  0  0  0
 76 73  1  0  0  0  0
 77  6  1  0  0  0  0
 78 77  4  0  0  0  0
 79 78  1  0  0  0  0
 80 78  4  0  0  0  0
 81 80  1  0  0  0  0
 82 80  4  0  0  0  0
 83 82  1  0  0  0  0
 84 82  4  0  0  0  0
 85 84  1  0  0  0  0
 86 77  4  0  0  0  0
 87 86  1  0  0  0  0
 88  7  1  0  0  0  0
 89 88  4  0  0  0  0
 90 89  1  0  0  0  0
 91 89  4  0  0  0  0
 92 91  1  0  0  0  0
 93 91  4  0  0  0  0
 94 93  1  0  0  0  0
 95 93  4  0  0  0  0
 96 95  1  0  0  0  0
 97 88  4  0  0  0  0
 98 97  1  0  0  0  0
 99  7  1  0  0  0  0
100 99  1  0  0  0  0
101100  1  0  0  0  0
102100  1  0  0  0  0
103100  1  0  0  0  0
104 99  1  0  0  0  0
105104  1  0  0  0  0
106104  1  0  0  0  0
107104  1  0  0  0  0
108 99  1  0  0  0  0
109108  1  0  0  0  0
110108  1  0  0  0  0
111108  1  0  0  0  0
112116  1  0  0  0  0
113116  1  0  0  0  0
114117  1  0  0  0  0
115117  1  0  0  0  0
116 13  1  0  0  0  0
117 14  1  0  0  0  0
  2  9  1  0  0  0  0
  3 10  1  0  0  0  0
  3 11  1  0  0  0  0
 23 25  4  0  0  0  0
 60 62  4  0  0  0  0
 84 86  4  0  0  0  0
 95 97  4  0  0  0  0
M  END
$$$$
SAXVOC

From CSD data. Using bond type 'Any'. No disordered atoms. Largest molecule.
101123  0  0  0  0  0  0  0  0999 V2000
   -3.0708    1.4570    3.9777 Pt  0  0  0  0  0  0  0  0  0  0  0  0
   -7.7009    2.1813    5.1766 P   0  0  0  0  0  0  0  0  0  0  0  0
   -1.3205    0.1847    4.8349 P   0  0  0  0  0  0  0  0  0  0  0  0
   -3.7648   -0.3531    2.6332 S   0  0  0  0  0  0  0  0  0  0  0  0
   -5.7420    1.3322    2.3991 O   0  0  0  0  0  0  0  0  0  0  0  0
   -5.2462    0.2253    2.0339 C   0  0  0  0  0  0  0  0  0  0  0  0
   -6.0200   -0.5424    1.0543 C   0  0  0  0  0  0  0  0  0  0  0  0
   -5.6094   -1.7666    0.5779 C   0  0  0  0  0  0  0  0  0  0  0  0
   -4.8225   -2.1569    0.8844 H   0  0  0  0  0  0  0  0  0  0  0  0
   -6.4031   -2.4148   -0.3795 C   0  0  0  0  0  0  0  0  0  0  0  0
   -6.1276   -3.2417   -0.7018 H   0  0  0  0  0  0  0  0  0  0  0  0
   -7.5421   -1.8932   -0.8479 C   0  0  0  0  0  0  0  0  0  0  0  0
   -8.0471   -2.3729   -1.4623 H   0  0  0  0  0  0  0  0  0  0  0  0
   -7.9826   -0.6156   -0.4192 C   0  0  0  0  0  0  0  0  0  0  0  0
   -8.7652   -0.2335   -0.7463 H   0  0  0  0  0  0  0  0  0  0  0  0
   -7.1671    0.0488    0.5398 C   0  0  0  0  0  0  0  0  0  0  0  0
   -7.4084    0.9002    0.8288 H   0  0  0  0  0  0  0  0  0  0  0  0
   -8.8156    2.0059    3.7201 C   0  0  0  0  0  0  0  0  0  0  0  0
   -9.6465    0.9652    3.5995 C   0  0  0  0  0  0  0  0  0  0  0  0
   -9.7170    0.3519    4.2949 H   0  0  0  0  0  0  0  0  0  0  0  0
  -10.4066    0.7887    2.4436 C   0  0  0  0  0  0  0  0  0  0  0  0
  -10.9401    0.0337    2.3451 H   0  0  0  0  0  0  0  0  0  0  0  0
  -10.3623    1.7550    1.4353 C   0  0  0  0  0  0  0  0  0  0  0  0
  -10.8976    1.6772    0.6796 H   0  0  0  0  0  0  0  0  0  0  0  0
   -9.5075    2.8201    1.5814 C   0  0  0  0  0  0  0  0  0  0  0  0
   -9.4328    3.4462    0.8955 H   0  0  0  0  0  0  0  0  0  0  0  0
   -8.7532    2.9781    2.7373 C   0  0  0  0  0  0  0  0  0  0  0  0
   -8.2162    3.7273    2.8500 H   0  0  0  0  0  0  0  0  0  0  0  0
   -8.5328    3.2464    6.3860 C   0  0  0  0  0  0  0  0  0  0  0  0
   -9.3863    4.2534    5.9367 C   0  0  0  0  0  0  0  0  0  0  0  0
   -9.5784    4.3231    5.0301 H   0  0  0  0  0  0  0  0  0  0  0  0
   -9.9503    5.1559    6.8322 C   0  0  0  0  0  0  0  0  0  0  0  0
  -10.5185    5.8331    6.5416 H   0  0  0  0  0  0  0  0  0  0  0  0
   -9.6398    5.0072    8.1723 C   0  0  0  0  0  0  0  0  0  0  0  0
  -10.0168    5.6019    8.7820 H   0  0  0  0  0  0  0  0  0  0  0  0
   -8.8007    4.0211    8.6518 C   0  0  0  0  0  0  0  0  0  0  0  0
   -8.6197    3.9491    9.5615 H   0  0  0  0  0  0  0  0  0  0  0  0
   -8.2429    3.1500    7.7531 C   0  0  0  0  0  0  0  0  0  0  0  0
   -7.6618    2.4868    8.0532 H   0  0  0  0  0  0  0  0  0  0  0  0
   -7.6422    0.5238    5.9271 C   0  0  0  0  0  0  0  0  0  0  0  0
   -6.6177   -0.3461    5.6175 C   0  0  0  0  0  0  0  0  0  0  0  0
   -5.9293   -0.0407    5.0761 H   0  0  0  0  0  0  0  0  0  0  0  0
   -6.5710   -1.6458    6.0732 C   0  0  0  0  0  0  0  0  0  0  0  0
   -5.8762   -2.2127    5.8287 H   0  0  0  0  0  0  0  0  0  0  0  0
   -7.6076   -2.0930    6.9227 C   0  0  0  0  0  0  0  0  0  0  0  0
   -7.5857   -2.9607    7.2561 H   0  0  0  0  0  0  0  0  0  0  0  0
   -8.6113   -1.2893    7.2466 C   0  0  0  0  0  0  0  0  0  0  0  0
   -9.2954   -1.5936    7.7975 H   0  0  0  0  0  0  0  0  0  0  0  0
   -8.6298    0.0732    6.7353 C   0  0  0  0  0  0  0  0  0  0  0  0
   -9.3323    0.6400    6.9671 H   0  0  0  0  0  0  0  0  0  0  0  0
   -2.0149   -1.2951    5.6652 C   0  0  0  0  0  0  0  0  0  0  0  0
   -2.0370   -2.5251    5.0380 C   0  0  0  0  0  0  0  0  0  0  0  0
   -1.6495   -2.6378    4.1997 H   0  0  0  0  0  0  0  0  0  0  0  0
   -2.6417   -3.5739    5.6699 C   0  0  0  0  0  0  0  0  0  0  0  0
   -2.6748   -4.3974    5.2381 H   0  0  0  0  0  0  0  0  0  0  0  0
   -3.1944   -3.4601    6.9052 C   0  0  0  0  0  0  0  0  0  0  0  0
   -3.5592   -4.2058    7.3291 H   0  0  0  0  0  0  0  0  0  0  0  0
   -3.2172   -2.2219    7.5308 C   0  0  0  0  0  0  0  0  0  0  0  0
   -3.6048   -2.1209    8.3691 H   0  0  0  0  0  0  0  0  0  0  0  0
   -2.6499   -1.1418    6.8798 C   0  0  0  0  0  0  0  0  0  0  0  0
   -2.6965   -0.2973    7.2688 H   0  0  0  0  0  0  0  0  0  0  0  0
   -0.1408    0.8990    6.0288 C   0  0  0  0  0  0  0  0  0  0  0  0
    0.2865    0.1847    7.1370 C   0  0  0  0  0  0  0  0  0  0  0  0
   -0.0825   -0.6458    7.3403 H   0  0  0  0  0  0  0  0  0  0  0  0
    1.2963    0.7457    7.9516 C   0  0  0  0  0  0  0  0  0  0  0  0
    1.5949    0.2764    8.6962 H   0  0  0  0  0  0  0  0  0  0  0  0
    1.8475    1.9896    7.6610 C   0  0  0  0  0  0  0  0  0  0  0  0
    2.5069    2.3520    8.2056 H   0  0  0  0  0  0  0  0  0  0  0  0
    1.4034    2.6738    6.5559 C   0  0  0  0  0  0  0  0  0  0  0  0
    1.7632    3.5054    6.3495 H   0  0  0  0  0  0  0  0  0  0  0  0
    0.4142    2.1244    5.7446 C   0  0  0  0  0  0  0  0  0  0  0  0
    0.1238    2.5948    4.9967 H   0  0  0  0  0  0  0  0  0  0  0  0
   -0.1782   -0.4344    3.5550 C   0  0  0  0  0  0  0  0  0  0  0  0
    0.8685   -1.3113    3.9329 C   0  0  0  0  0  0  0  0  0  0  0  0
    0.9441   -1.5750    4.8221 H   0  0  0  0  0  0  0  0  0  0  0  0
    1.7758   -1.7794    3.0072 C   0  0  0  0  0  0  0  0  0  0  0  0
    2.4456   -2.3776    3.2518 H   0  0  0  0  0  0  0  0  0  0  0  0
    1.6647   -1.3288    1.6894 C   0  0  0  0  0  0  0  0  0  0  0  0
    2.2883   -1.6017    1.0590 H   0  0  0  0  0  0  0  0  0  0  0  0
    0.6377   -0.4855    1.3083 C   0  0  0  0  0  0  0  0  0  0  0  0
    0.5643   -0.2079    0.4239 H   0  0  0  0  0  0  0  0  0  0  0  0
   -0.2915   -0.0499    2.2626 C   0  0  0  0  0  0  0  0  0  0  0  0
   -0.9890    0.5076    2.0054 H   0  0  0  0  0  0  0  0  0  0  0  0
   -4.0060    4.7087    4.0631 B   0  0  0  0  0  0  0  0  0  0  0  0
   -3.7718    5.7215    3.7043 H   0  0  0  0  0  0  0  0  0  0  0  0
   -3.8166    3.3428    2.9898 B   0  0  0  0  0  0  0  0  0  0  0  0
   -3.4734    3.4636    1.9530 H   0  0  0  0  0  0  0  0  0  0  0  0
   -2.6945    3.5635    4.4267 B   0  0  0  0  0  0  0  0  0  0  0  0
   -1.6392    3.8306    4.2616 H   0  0  0  0  0  0  0  0  0  0  0  0
   -3.6572    4.2708    5.7604 B   0  0  0  0  0  0  0  0  0  0  0  0
   -3.2436    5.0014    6.4717 H   0  0  0  0  0  0  0  0  0  0  0  0
   -5.3614    4.3754    5.1634 B   0  0  0  0  0  0  0  0  0  0  0  0
   -6.0537    5.1466    5.5366 H   0  0  0  0  0  0  0  0  0  0  0  0
   -5.4376    3.8933    3.4756 B   0  0  0  0  0  0  0  0  0  0  0  0
   -6.1289    4.3754    2.7691 H   0  0  0  0  0  0  0  0  0  0  0  0
   -3.1332    2.6029    5.8636 B   0  0  0  0  0  0  0  0  0  0  0  0
   -2.6788    2.3578    6.6686 H   0  0  0  0  0  0  0  0  0  0  0  0
   -4.8660    3.0396    6.2542 B   0  0  0  0  0  0  0  0  0  0  0  0
   -5.3240    2.9851    7.3355 H   0  0  0  0  0  0  0  0  0  0  0  0
   -5.9225    2.7713    4.7617 B   0  0  0  0  0  0  0  0  0  0  0  0
   -5.0871    2.1801    3.4550 B   0  0  0  0  0  0  0  0  0  0  0  0
  1  3  1  0  0  0  0
  2 18  1  0  0  0  0
  3 51  1  0  0  0  0
  4  1  1  0  0  0  0
  5  6  8  0  0  0  0
  6  4  8  0  0  0  0
  7  6  1  0  0  0  0
  8  7  4  0  0  0  0
  9  8  1  0  0  0  0
 10  8  4  0  0  0  0
 11 10  1  0  0  0  0
 12 10  4  0  0  0  0
 13 12  1  0  0  0  0
 14 12  4  0  0  0  0
 15 14  1  0  0  0  0
 16  7  4  0  0  0  0
 17 16  1  0  0  0  0
 18 19  4  0  0  0  0
 19 20  1  0  0  0  0
 21 19  4  0  0  0  0
 22 21  1  0  0  0  0
 23 21  4  0  0  0  0
 24 23  1  0  0  0  0
 25 23  4  0  0  0  0
 26 25  1  0  0  0  0
 27 18  4  0  0  0  0
 28 27  1  0  0  0  0
 29  2  1  0  0  0  0
 30 29  4  0  0  0  0
 31 30  1  0  0  0  0
 32 30  4  0  0  0  0
 33 32  1  0  0  0  0
 34 32  4  0  0  0  0
 35 34  1  0  0  0  0
 36 34  4  0  0  0  0
 37 36  1  0  0  0  0
 38 29  4  0  0  0  0
 39 38  1  0  0  0  0
 40  2  1  0  0  0  0
 41 40  4  0  0  0  0
 42 41  1  0  0  0  0
 43 41  4  0  0  0  0
 44 43  1  0  0  0  0
 45 43  4  0  0  0  0
 46 45  1  0  0  0  0
 47 45  4  0  0  0  0
 48 47  1  0  0  0  0
 49 40  4  0  0  0  0
 50 49  1  0  0  0  0
 51 52  4  0  0  0  0
 52 53  1  0  0  0  0
 54 52  4  0  0  0  0
 55 54  1  0  0  0  0
 56 54  4  0  0  0  0
 57 56  1  0  0  0  0
 58 56  4  0  0  0  0
 59 58  1  0  0  0  0
 60 51  4  0  0  0  0
 61 60  1  0  0  0  0
 62  3  1  0  0  0  0
 63 62  4  0  0  0  0
 64 63  1  0  0  0  0
 65 63  4  0  0  0  0
 66 65  1  0  0  0  0
 67 65  4  0  0  0  0
 68 67  1  0  0  0  0
 69 67  4  0  0  0  0
 70 69  1  0  0  0  0
 71 62  4  0  0  0  0
 72 71  1  0  0  0  0
 73  3  1  0  0  0  0
 74 73  4  0  0  0  0
 75 74  1  0  0  0  0
 76 74  4  0  0  0  0
 77 76  1  0  0  0  0
 78 76  4  0  0  0  0
 79 78  1  0  0  0  0
 80 78  4  0  0  0  0
 81 80  1  0  0  0  0
 82 73  4  0  0  0  0
 83 82  1  0  0  0  0
 84 85  1  0  0  0  0
 86  1  1  0  0  0  0
 87 86  1  0  0  0  0
 88  1  1  0  0  0  0
 89 88  1  0  0  0  0
 90 84  1  0  0  0  0
 91 90  1  0  0  0  0
 92 84  1  0  0  0  0
 93 92  1  0  0  0  0
 94 84  1  0  0  0  0
 95 94  1  0  0  0  0
 96  1  1  0  0  0  0
 97 96  1  0  0  0  0
 98 90  1  0  0  0  0
 99 98  1  0  0  0  0
100  2  1  0  0  0  0
101  1  1  0  0  0  0
  5101  1  0  0  0  0
 14 16  4  0  0  0  0
 25 27  4  0  0  0  0
 36 38  4  0  0  0  0
 47 49  4  0  0  0  0
 58 60  4  0  0  0  0
 69 71  4  0  0  0  0
 80 82  4  0  0  0  0
 84 86  1  0  0  0  0
 84 88  1  0  0  0  0
 86 88  1  0  0  0  0
 86 94  1  0  0  0  0
 86101  1  0  0  0  0
 88 90  1  0  0  0  0
 88 96  1  0  0  0  0
 90 92  1  0  0  0  0
 90 96  1  0  0  0  0
 92 94  1  0  0  0  0
 92 98  1  0  0  0  0
 92100  1  0  0  0  0
 94100  1  0  0  0  0
 94101  1  0  0  0  0
 96 98  1  0  0  0  0
 98100  1  0  0  0  0
100101  1  0  0  0  0
M  END
$$$$
SAYSOE

From CSD data. Using bond type 'Any'. No disordered atoms. Largest molecule.
108117  0  0  0  0  0  0  0  0999 V2000
   17.9725    5.3347   15.3485 P   0  0  0  0  0  0  0  0  0  0  0  0
   17.1741    3.2552   13.6006 P   0  0  0  0  0  0  0  0  0  0  0  0
   16.7853    5.0547   19.5399 F   0  0  0  0  0  0  0  0  0  0  0  0
   21.4992    5.9606   12.4807 F   0  0  0  0  0  0  0  0  0  0  0  0
   21.2311    1.9610   14.8740 F   0  0  0  0  0  0  0  0  0  0  0  0
   22.8015    1.4106   12.3995 F   0  0  0  0  0  0  0  0  0  0  0  0
   18.5052    5.7213   11.8853 F   0  0  0  0  0  0  0  0  0  0  0  0
   18.9463    2.2512   16.3860 F   0  0  0  0  0  0  0  0  0  0  0  0
   13.1111    3.3277   12.4505 F   0  0  0  0  0  0  0  0  0  0  0  0
   21.1395    2.2764    9.9833 F   0  0  0  0  0  0  0  0  0  0  0  0
   15.4843    1.1677   15.9417 F   0  0  0  0  0  0  0  0  0  0  0  0
   24.0649    6.6882   12.3692 F   0  0  0  0  0  0  0  0  0  0  0  0
   16.4638    6.8605   17.1174 F   0  0  0  0  0  0  0  0  0  0  0  0
   20.4824    6.6711   15.5606 F   0  0  0  0  0  0  0  0  0  0  0  0
   11.3066    3.3059   14.9046 F   0  0  0  0  0  0  0  0  0  0  0  0
   20.6499    6.2148   19.2451 F   0  0  0  0  0  0  0  0  0  0  0  0
   15.8800   -0.9358   14.3516 F   0  0  0  0  0  0  0  0  0  0  0  0
   15.5213    2.9604   20.5218 F   0  0  0  0  0  0  0  0  0  0  0  0
   18.7024    1.3313   10.9218 F   0  0  0  0  0  0  0  0  0  0  0  0
   14.0281    5.4100   17.5954 F   0  0  0  0  0  0  0  0  0  0  0  0
   14.8635   -0.9477   11.8145 F   0  0  0  0  0  0  0  0  0  0  0  0
   13.4687    1.2071   10.9177 F   0  0  0  0  0  0  0  0  0  0  0  0
   19.8436    4.1768   13.6843 O   0  0  0  0  0  0  0  0  0  0  0  0
   17.7447    6.4579    9.4693 F   0  0  0  0  0  0  0  0  0  0  0  0
   18.3766   10.2731   19.6717 F   0  0  0  0  0  0  0  0  0  0  0  0
   16.3535    9.3264   18.1324 F   0  0  0  0  0  0  0  0  0  0  0  0
   15.4748    4.2301   15.6482 O   0  0  0  0  0  0  0  0  0  0  0  0
   13.1360    4.9328   20.0565 F   0  0  0  0  0  0  0  0  0  0  0  0
   18.6800    5.1800    7.2550 F   0  0  0  0  0  0  0  0  0  0  0  0
   17.6815    0.1543   17.4123 F   0  0  0  0  0  0  0  0  0  0  0  0
   20.2886   -0.3765   15.8084 F   0  0  0  0  0  0  0  0  0  0  0  0
   15.9200    0.4753   19.4837 F   0  0  0  0  0  0  0  0  0  0  0  0
   20.5106    8.6685   20.2307 F   0  0  0  0  0  0  0  0  0  0  0  0
   26.0227    4.8007   12.2438 F   0  0  0  0  0  0  0  0  0  0  0  0
   14.7816    6.5022   14.5200 F   0  0  0  0  0  0  0  0  0  0  0  0
   12.7490    1.0229   16.3310 F   0  0  0  0  0  0  0  0  0  0  0  0
   20.6626    2.8760   18.3870 F   0  0  0  0  0  0  0  0  0  0  0  0
   20.4413    3.1208    7.5481 F   0  0  0  0  0  0  0  0  0  0  0  0
   25.3464    2.1730   12.2386 F   0  0  0  0  0  0  0  0  0  0  0  0
   18.6394   -1.8994   14.2742 F   0  0  0  0  0  0  0  0  0  0  0  0
   17.8589   -0.9962   11.8254 F   0  0  0  0  0  0  0  0  0  0  0  0
   23.0573    6.3705   15.0198 F   0  0  0  0  0  0  0  0  0  0  0  0
    9.5303    5.1620   14.1628 F   0  0  0  0  0  0  0  0  0  0  0  0
   11.8621    0.5870   18.7832 F   0  0  0  0  0  0  0  0  0  0  0  0
   13.0060    8.3154   13.7514 F   0  0  0  0  0  0  0  0  0  0  0  0
   24.4644    4.2873   16.0616 F   0  0  0  0  0  0  0  0  0  0  0  0
   23.2147    2.5596   17.7628 F   0  0  0  0  0  0  0  0  0  0  0  0
   10.3726    7.6849   13.5420 F   0  0  0  0  0  0  0  0  0  0  0  0
   12.0383    2.5208   20.6857 F   0  0  0  0  0  0  0  0  0  0  0  0
   18.6152    6.4434   18.0189 C   0  0  0  0  0  0  0  0  0  0  0  0
   20.0007    1.7868   12.8639 C   0  0  0  0  0  0  0  0  0  0  0  0
   22.0078    3.6523   12.4965 C   0  0  0  0  0  0  0  0  0  0  0  0
   20.3804    1.2600   14.0955 C   0  0  0  0  0  0  0  0  0  0  0  0
   14.2657    2.3562   14.3067 C   0  0  0  0  0  0  0  0  0  0  0  0
   18.6405    4.1754   14.0978 C   0  0  0  0  0  0  0  0  0  0  0  0
   13.8002    2.3012   12.9994 C   0  0  0  0  0  0  0  0  0  0  0  0
   22.4242    4.9771   12.4644 C   0  0  0  0  0  0  0  0  0  0  0  0
   20.3861    4.7461   16.9436 C   0  0  0  0  0  0  0  0  0  0  0  0
   19.8196    3.9038   11.0773 C   0  0  0  0  0  0  0  0  0  0  0  0
   17.0524    3.8704   18.9594 C   0  0  0  0  0  0  0  0  0  0  0  0
   18.9845    4.9869   10.8601 C   0  0  0  0  0  0  0  0  0  0  0  0
   23.7438    5.3821   12.3888 C   0  0  0  0  0  0  0  0  0  0  0  0
   16.5692    4.1966   15.0007 C   0  0  0  0  0  0  0  0  0  0  0  0
   16.3786    2.7886   19.4944 C   0  0  0  0  0  0  0  0  0  0  0  0
   18.1055    2.4755   17.4240 C   0  0  0  0  0  0  0  0  0  0  0  0
   19.5764    6.9611   18.8759 C   0  0  0  0  0  0  0  0  0  0  0  0
   13.5134    3.2214   16.8343 C   0  0  0  0  0  0  0  0  0  0  0  0
   18.4446    9.0365   19.1596 C   0  0  0  0  0  0  0  0  0  0  0  0
   23.0500    2.7358   12.4163 C   0  0  0  0  0  0  0  0  0  0  0  0
   17.9627    3.7752   17.9072 C   0  0  0  0  0  0  0  0  0  0  0  0
   24.7332    4.4339   12.3223 C   0  0  0  0  0  0  0  0  0  0  0  0
   15.1913    0.1194   13.8941 C   0  0  0  0  0  0  0  0  0  0  0  0
   11.7632    4.5559   14.6638 C   0  0  0  0  0  0  0  0  0  0  0  0
   14.9700    1.2219   14.7006 C   0  0  0  0  0  0  0  0  0  0  0  0
   14.6919    0.1213   12.6130 C   0  0  0  0  0  0  0  0  0  0  0  0
   19.0581    4.7788    8.4784 C   0  0  0  0  0  0  0  0  0  0  0  0
   13.9943    1.2114   12.1613 C   0  0  0  0  0  0  0  0  0  0  0  0
   21.1021    5.6092   16.1235 C   0  0  0  0  0  0  0  0  0  0  0  0
   18.5874    5.4167    9.6067 C   0  0  0  0  0  0  0  0  0  0  0  0
   17.5250    7.2868   17.8366 C   0  0  0  0  0  0  0  0  0  0  0  0
   17.4275    8.5538   18.3695 C   0  0  0  0  0  0  0  0  0  0  0  0
   19.1602    0.9578   12.1347 C   0  0  0  0  0  0  0  0  0  0  0  0
   13.5412    4.1833   17.8481 C   0  0  0  0  0  0  0  0  0  0  0  0
   20.2845    3.3173    9.8988 C   0  0  0  0  0  0  0  0  0  0  0  0
   16.5819    1.5312   18.9812 C   0  0  0  0  0  0  0  0  0  0  0  0
   13.1264    4.8102   14.7819 C   0  0  0  0  0  0  0  0  0  0  0  0
   24.3830    3.0997   12.3262 C   0  0  0  0  0  0  0  0  0  0  0  0
   13.4936    6.1050   14.4672 C   0  0  0  0  0  0  0  0  0  0  0  0
   19.5228    8.2267   19.4298 C   0  0  0  0  0  0  0  0  0  0  0  0
   17.4671    1.3781   17.9351 C   0  0  0  0  0  0  0  0  0  0  0  0
   18.6979   -0.2653   12.5862 C   0  0  0  0  0  0  0  0  0  0  0  0
   19.9240    0.0521   14.5941 C   0  0  0  0  0  0  0  0  0  0  0  0
   19.9366    3.7283    8.6334 C   0  0  0  0  0  0  0  0  0  0  0  0
   19.0755   -0.7096   13.8230 C   0  0  0  0  0  0  0  0  0  0  0  0
   10.8320    5.4895   14.2779 C   0  0  0  0  0  0  0  0  0  0  0  0
   22.4458    5.4791   15.8232 C   0  0  0  0  0  0  0  0  0  0  0  0
   21.1725    3.7400   17.4917 C   0  0  0  0  0  0  0  0  0  0  0  0
   12.9122    2.0290   17.2179 C   0  0  0  0  0  0  0  0  0  0  0  0
   11.2538    6.7588   13.9737 C   0  0  0  0  0  0  0  0  0  0  0  0
   22.5246    3.5698   17.2007 C   0  0  0  0  0  0  0  0  0  0  0  0
   23.1584    4.4409   16.3557 C   0  0  0  0  0  0  0  0  0  0  0  0
   13.0638    3.9636   19.1306 C   0  0  0  0  0  0  0  0  0  0  0  0
   12.5913    7.0789   14.0634 C   0  0  0  0  0  0  0  0  0  0  0  0
   12.4248    1.7754   18.4901 C   0  0  0  0  0  0  0  0  0  0  0  0
   20.4015    3.3289   12.5060 B   0  5  0  0  0  0  0  0  0  0  0  0
   18.7818    5.0079   17.2342 B   0  0  0  0  0  0  0  0  0  0  0  0
   12.5079    2.7507   19.4477 C   0  0  0  0  0  0  0  0  0  0  0  0
   14.0957    3.6127   15.3471 B   0  5  0  0  0  0  0  0  0  0  0  0
  1 55  1  0  0  0  0
  2 55  2  0  0  0  0
  3 60  1  0  0  0  0
  4 57  1  0  0  0  0
  5 53  1  0  0  0  0
  6 69  1  0  0  0  0
  7 61  1  0  0  0  0
  8 65  1  0  0  0  0
  9 56  1  0  0  0  0
 10 84  1  0  0  0  0
 11 74  1  0  0  0  0
 12 62  1  0  0  0  0
 13 80  1  0  0  0  0
 14 78  1  0  0  0  0
 15 73  1  0  0  0  0
 16 66  1  0  0  0  0
 17 72  1  0  0  0  0
 18 64  1  0  0  0  0
 19 82  1  0  0  0  0
 20 83  1  0  0  0  0
 21 75  1  0  0  0  0
 22 77  1  0  0  0  0
 23 55  1  0  0  0  0
 24 79  1  0  0  0  0
 25 68  1  0  0  0  0
 26 81  1  0  0  0  0
 27 63  1  0  0  0  0
 28102  1  0  0  0  0
 29 76  1  0  0  0  0
 30 90  1  0  0  0  0
 31 92  1  0  0  0  0
 32 85  1  0  0  0  0
 33 89  1  0  0  0  0
 34 71  1  0  0  0  0
 35 88  1  0  0  0  0
 36 98  1  0  0  0  0
 37 97  1  0  0  0  0
 38 93  1  0  0  0  0
 39 87  1  0  0  0  0
 40 94  1  0  0  0  0
 41 91  1  0  0  0  0
 42 96  1  0  0  0  0
 43 95  1  0  0  0  0
 44104  1  0  0  0  0
 45103  1  0  0  0  0
 46101  1  0  0  0  0
 47100  1  0  0  0  0
 48 99  1  0  0  0  0
 49107  1  0  0  0  0
 50 66  4  0  0  0  0
 51 53  4  0  0  0  0
 52 57  4  0  0  0  0
 53 92  4  0  0  0  0
 54 56  4  0  0  0  0
 56 77  4  0  0  0  0
 57 62  4  0  0  0  0
 58 78  4  0  0  0  0
 59 61  4  0  0  0  0
 60 64  4  0  0  0  0
 61 79  4  0  0  0  0
 62 71  4  0  0  0  0
 63  1  2  0  0  0  0
 64 85  4  0  0  0  0
 65 70  4  0  0  0  0
 66 89  4  0  0  0  0
 67 83  4  0  0  0  0
 68 81  4  0  0  0  0
 69 52  4  0  0  0  0
 70 60  4  0  0  0  0
 71 87  4  0  0  0  0
 72 74  4  0  0  0  0
 73 86  4  0  0  0  0
 74 54  4  0  0  0  0
 75 72  4  0  0  0  0
 76 79  4  0  0  0  0
 77 75  4  0  0  0  0
 78 96  4  0  0  0  0
 80 50  4  0  0  0  0
 81 80  4  0  0  0  0
 82 51  4  0  0  0  0
 83102  4  0  0  0  0
 84 59  4  0  0  0  0
 85 90  4  0  0  0  0
 86 88  4  0  0  0  0
 87 69  4  0  0  0  0
 88103  4  0  0  0  0
 89 68  4  0  0  0  0
 90 65  4  0  0  0  0
 91 82  4  0  0  0  0
 92 94  4  0  0  0  0
 93 76  4  0  0  0  0
 94 91  4  0  0  0  0
 95 73  4  0  0  0  0
 96101  4  0  0  0  0
 97 58  4  0  0  0  0
 98 67  4  0  0  0  0
 99 95  4  0  0  0  0
100 97  4  0  0  0  0
101100  4  0  0  0  0
102107  4  0  0  0  0
103 99  4  0  0  0  0
104 98  4  0  0  0  0
105 23  1  0  0  0  0
106  1  1  0  0  0  0
107104  4  0  0  0  0
108 27  1  0  0  0  0
  2 63  1  0  0  0  0
 50106  1  0  0  0  0
 51105  1  0  0  0  0
 52105  1  0  0  0  0
 54108  1  0  0  0  0
 58106  1  0  0  0  0
 59105  1  0  0  0  0
 67108  1  0  0  0  0
 70106  1  0  0  0  0
 84 93  4  0  0  0  0
 86108  1  0  0  0  0
M  CHG  2 105  -1 108  -1
M  END
$$$$
SENBEU

From CSD data. Using bond type 'Any'. No disordered atoms. Largest molecule.
 66 80  0  0  0  0  0  0  0  0999 V2000
    1.0287   -0.4803    9.4368 P   0  0  0  0  0  0  0  0  0  0  0  0
    0.3643   -2.1687   12.6996 P   0  0  0  0  0  0  0  0  0  0  0  0
    1.1456    0.3468   10.7256 O   0  0  0  0  0  0  0  0  0  0  0  0
   -0.1465   -0.7636   12.3884 O   0  0  0  0  0  0  0  0  0  0  0  0
    0.4999   -0.1473   11.6040 H   0  0  0  0  0  0  0  0  0  0  0  0
    3.1498   -4.2702    9.9809 B   0  0  0  0  0  0  0  0  0  0  0  0
    4.1901   -4.5949    9.9580 H   0  0  0  0  0  0  0  0  0  0  0  0
    2.5965   -3.0049    8.9239 B   0  0  0  0  0  0  0  0  0  0  0  0
    3.2221   -2.4008    8.2970 H   0  0  0  0  0  0  0  0  0  0  0  0
    2.6435   -2.7036   10.6696 B   0  0  0  0  0  0  0  0  0  0  0  0
    3.2309   -1.9186   11.1239 H   0  0  0  0  0  0  0  0  0  0  0  0
    2.2031   -4.2332   11.4562 B   0  0  0  0  0  0  0  0  0  0  0  0
    2.5727   -4.4088   12.4612 H   0  0  0  0  0  0  0  0  0  0  0  0
    1.7998   -5.4151   10.2267 B   0  0  0  0  0  0  0  0  0  0  0  0
    1.9706   -6.4878   10.3448 H   0  0  0  0  0  0  0  0  0  0  0  0
    2.0205   -4.6287    8.6141 B   0  0  0  0  0  0  0  0  0  0  0  0
    2.3574   -5.1626    7.7319 H   0  0  0  0  0  0  0  0  0  0  0  0
    1.2454   -2.2702    9.7503 C   0  0  0  0  0  0  0  0  0  0  0  0
    0.9949   -3.0080   11.1934 C   0  0  0  0  0  0  0  0  0  0  0  0
    0.4987   -4.5499   11.0258 B   0  0  0  0  0  0  0  0  0  0  0  0
   -0.1401   -5.0088   11.7466 H   0  0  0  0  0  0  0  0  0  0  0  0
    0.4039   -4.9203    9.2498 B   0  0  0  0  0  0  0  0  0  0  0  0
   -0.2346   -5.6968    8.7606 H   0  0  0  0  0  0  0  0  0  0  0  0
   -0.1908   -3.9706    9.4258 H   0  0  0  0  0  0  0  0  0  0  0  0
    0.8609   -3.2900    8.5277 B   0  0  0  0  0  0  0  0  0  0  0  0
    0.4887   -2.8889    7.5837 H   0  0  0  0  0  0  0  0  0  0  0  0
    2.3383    0.1415    8.3304 C   0  0  0  0  0  0  0  0  0  0  0  0
    3.1704   -0.3597    8.5672 H   0  0  0  0  0  0  0  0  0  0  0  0
    2.0732   -0.1323    6.8491 C   0  0  0  0  0  0  0  0  0  0  0  0
    1.3063    0.4013    6.5509 H   0  0  0  0  0  0  0  0  0  0  0  0
    1.8776   -1.0839    6.7223 H   0  0  0  0  0  0  0  0  0  0  0  0
    2.8645    0.1120    6.3246 H   0  0  0  0  0  0  0  0  0  0  0  0
    2.6357    1.6290    8.5886 C   0  0  0  0  0  0  0  0  0  0  0  0
    3.4258    1.8974    8.0748 H   0  0  0  0  0  0  0  0  0  0  0  0
    2.8047    1.7674    9.5438 H   0  0  0  0  0  0  0  0  0  0  0  0
    1.8669    2.1698    8.3107 H   0  0  0  0  0  0  0  0  0  0  0  0
   -0.5943   -0.2477    8.6482 C   0  0  0  0  0  0  0  0  0  0  0  0
   -0.5406   -0.6344    7.7277 H   0  0  0  0  0  0  0  0  0  0  0  0
   -0.9162    1.2479    8.5067 C   0  0  0  0  0  0  0  0  0  0  0  0
   -1.8056    1.3543    8.1091 H   0  0  0  0  0  0  0  0  0  0  0  0
   -0.2476    1.6727    7.9307 H   0  0  0  0  0  0  0  0  0  0  0  0
   -0.9016    1.6710    9.3902 H   0  0  0  0  0  0  0  0  0  0  0  0
   -1.7092   -0.9743    9.3880 C   0  0  0  0  0  0  0  0  0  0  0  0
   -1.8154   -0.5867   10.2817 H   0  0  0  0  0  0  0  0  0  0  0  0
   -1.4822   -1.9244    9.4697 H   0  0  0  0  0  0  0  0  0  0  0  0
   -2.5471   -0.8807    8.8895 H   0  0  0  0  0  0  0  0  0  0  0  0
    1.6849   -2.0868   13.9662 C   0  0  0  0  0  0  0  0  0  0  0  0
    2.5533   -2.0609   13.4707 H   0  0  0  0  0  0  0  0  0  0  0  0
    1.5905   -0.7662   14.7588 C   0  0  0  0  0  0  0  0  0  0  0  0
    0.7671   -0.7623   15.2909 H   0  0  0  0  0  0  0  0  0  0  0  0
    1.5803   -0.0102   14.1346 H   0  0  0  0  0  0  0  0  0  0  0  0
    2.3644   -0.6866   15.3540 H   0  0  0  0  0  0  0  0  0  0  0  0
    1.7559   -3.2946   14.9119 C   0  0  0  0  0  0  0  0  0  0  0  0
    2.6034   -3.2758   15.4020 H   0  0  0  0  0  0  0  0  0  0  0  0
    1.6981   -4.1223   14.3897 H   0  0  0  0  0  0  0  0  0  0  0  0
    1.0102   -3.2571   15.5474 H   0  0  0  0  0  0  0  0  0  0  0  0
   -1.0868   -3.0455   13.3617 C   0  0  0  0  0  0  0  0  0  0  0  0
   -0.8272   -3.9815   13.5983 H   0  0  0  0  0  0  0  0  0  0  0  0
   -2.2210   -3.0815   12.3324 C   0  0  0  0  0  0  0  0  0  0  0  0
   -2.9881   -3.5630   12.7081 H   0  0  0  0  0  0  0  0  0  0  0  0
   -1.9130   -3.5401   11.5230 H   0  0  0  0  0  0  0  0  0  0  0  0
   -2.4876   -2.1662   12.1073 H   0  0  0  0  0  0  0  0  0  0  0  0
   -1.5738   -2.3169   14.6292 C   0  0  0  0  0  0  0  0  0  0  0  0
   -1.7369   -1.3735   14.4213 H   0  0  0  0  0  0  0  0  0  0  0  0
   -0.8899   -2.3837   15.3279 H   0  0  0  0  0  0  0  0  0  0  0  0
   -2.4044   -2.7305   14.9452 H   0  0  0  0  0  0  0  0  0  0  0  0
  1  3  2  0  0  0  0
  2  4  1  0  0  0  0
  4  5  1  0  0  0  0
  6  7  1  0  0  0  0
  8  6  1  0  0  0  0
  9  8  1  0  0  0  0
 10  6  1  0  0  0  0
 11 10  1  0  0  0  0
 12  6  1  0  0  0  0
 13 12  1  0  0  0  0
 14  6  1  0  0  0  0
 15 14  1  0  0  0  0
 16  6  1  0  0  0  0
 17 16  1  0  0  0  0
 18  1  1  0  0  0  0
 19  2  1  0  0  0  0
 20 12  1  0  0  0  0
 21 20  1  0  0  0  0
 22 14  1  0  0  0  0
 23 22  1  0  0  0  0
 24 22  1  0  0  0  0
 25  8  1  0  0  0  0
 26 25  1  0  0  0  0
 27  1  1  0  0  0  0
 28 27  1  0  0  0  0
 29 27  1  0  0  0  0
 30 29  1  0  0  0  0
 31 29  1  0  0  0  0
 32 29  1  0  0  0  0
 33 27  1  0  0  0  0
 34 33  1  0  0  0  0
 35 33  1  0  0  0  0
 36 33  1  0  0  0  0
 37  1  1  0  0  0  0
 38 37  1  0  0  0  0
 39 37  1  0  0  0  0
 40 39  1  0  0  0  0
 41 39  1  0  0  0  0
 42 39  1  0  0  0  0
 43 37  1  0  0  0  0
 44 43  1  0  0  0  0
 45 43  1  0  0  0  0
 46 43  1  0  0  0  0
 47  2  1  0  0  0  0
 48 47  1  0  0  0  0
 49 47  1  0  0  0  0
 50 49  1  0  0  0  0
 51 49  1  0  0  0  0
 52 49  1  0  0  0  0
 53 47  1  0  0  0  0
 54 53  1  0  0  0  0
 55 53  1  0  0  0  0
 56 53  1  0  0  0  0
 57  2  1  0  0  0  0
 58 57  1  0  0  0  0
 59 57  1  0  0  0  0
 60 59  1  0  0  0  0
 61 59  1  0  0  0  0
 62 59  1  0  0  0  0
 63 57  1  0  0  0  0
 64 63  1  0  0  0  0
 65 63  1  0  0  0  0
 66 63  1  0  0  0  0
  8 10  1  0  0  0  0
  8 16  1  0  0  0  0
  8 18  1  0  0  0  0
 10 12  1  0  0  0  0
 10 18  1  0  0  0  0
 10 19  1  0  0  0  0
 12 14  1  0  0  0  0
 12 19  1  0  0  0  0
 14 16  1  0  0  0  0
 14 20  1  0  0  0  0
 16 22  1  0  0  0  0
 16 25  1  0  0  0  0
 18 19  1  0  0  0  0
 18 25  1  0  0  0  0
 19 20  1  0  0  0  0
 20 22  1  0  0  0  0
 22 25  1  0  0  0  0
M  END
$$$$
SENBIY

From CSD data. Using bond type 'Any'. No disordered atoms. Largest molecule.
 66 81  0  0  0  0  0  0  0  0999 V2000
   -2.4786    5.1096    5.9398 P   0  0  0  0  0  0  0  0  0  0  0  0
   -0.2532    2.2950    5.2908 P   0  0  0  0  0  0  0  0  0  0  0  0
   -2.4137    4.1625    7.1591 O   0  0  0  0  0  0  0  0  0  0  0  0
   -1.5167    2.1631    6.1203 O   0  0  0  0  0  0  0  0  0  0  0  0
   -2.0956    3.3254    6.8231 H   0  0  0  0  0  0  0  0  0  0  0  0
    1.7322    6.2134    5.3310 B   0  0  0  0  0  0  0  0  0  0  0  0
    2.5485    6.6507    5.9116 H   0  0  0  0  0  0  0  0  0  0  0  0
    0.0678    6.7178    5.5542 B   0  0  0  0  0  0  0  0  0  0  0  0
   -0.2913    7.4150    6.2713 H   0  0  0  0  0  0  0  0  0  0  0  0
    0.5743    5.0972    6.0920 B   0  0  0  0  0  0  0  0  0  0  0  0
    0.5056    4.7460    7.1239 H   0  0  0  0  0  0  0  0  0  0  0  0
    1.7524    4.5242    4.9108 B   0  0  0  0  0  0  0  0  0  0  0  0
    2.5070    3.8059    5.2575 H   0  0  0  0  0  0  0  0  0  0  0  0
    1.9135    5.6879    3.6101 B   0  0  0  0  0  0  0  0  0  0  0  0
    2.8378    5.7924    3.0761 H   0  0  0  0  0  0  0  0  0  0  0  0
    0.8445    7.0789    4.0305 B   0  0  0  0  0  0  0  0  0  0  0  0
    1.1036    8.1080    3.7341 H   0  0  0  0  0  0  0  0  0  0  0  0
   -0.8682    5.3061    5.1336 C   0  0  0  0  0  0  0  0  0  0  0  0
    0.0945    4.0385    4.8102 C   0  0  0  0  0  0  0  0  0  0  0  0
    0.8542    4.2821    3.3710 B   0  0  0  0  0  0  0  0  0  0  0  0
    1.1107    3.4472    2.7856 H   0  0  0  0  0  0  0  0  0  0  0  0
    0.3881    5.9529    2.7445 B   0  0  0  0  0  0  0  0  0  0  0  0
    0.4280    6.2625    1.6949 H   0  0  0  0  0  0  0  0  0  0  0  0
   -0.2764    5.0002    2.8265 H   0  0  0  0  0  0  0  0  0  0  0  0
   -0.8034    6.4866    4.0141 B   0  0  0  0  0  0  0  0  0  0  0  0
   -1.6770    7.1069    3.8058 H   0  0  0  0  0  0  0  0  0  0  0  0
   -3.0330    6.7200    6.6035 C   0  0  0  0  0  0  0  0  0  0  0  0
   -2.6415    7.4446    6.0371 H   0  0  0  0  0  0  0  0  0  0  0  0
   -2.4988    6.8835    8.0334 C   0  0  0  0  0  0  0  0  0  0  0  0
   -2.6733    7.7963    8.3451 H   0  0  0  0  0  0  0  0  0  0  0  0
   -1.5336    6.7134    8.0430 H   0  0  0  0  0  0  0  0  0  0  0  0
   -2.9485    6.2451    8.6255 H   0  0  0  0  0  0  0  0  0  0  0  0
   -4.5641    6.8752    6.5976 C   0  0  0  0  0  0  0  0  0  0  0  0
   -4.9661    6.1632    7.1380 H   0  0  0  0  0  0  0  0  0  0  0  0
   -4.8951    6.8127    5.6774 H   0  0  0  0  0  0  0  0  0  0  0  0
   -4.8054    7.7476    6.9728 H   0  0  0  0  0  0  0  0  0  0  0  0
   -3.5838    4.3482    4.7119 C   0  0  0  0  0  0  0  0  0  0  0  0
   -3.0696    3.5726    4.3460 H   0  0  0  0  0  0  0  0  0  0  0  0
   -3.9346    5.2015    3.4929 C   0  0  0  0  0  0  0  0  0  0  0  0
   -4.5169    4.6903    2.8931 H   0  0  0  0  0  0  0  0  0  0  0  0
   -3.1134    5.4477    3.0198 H   0  0  0  0  0  0  0  0  0  0  0  0
   -4.4004    6.0135    3.7853 H   0  0  0  0  0  0  0  0  0  0  0  0
   -4.8263    3.7289    5.3590 C   0  0  0  0  0  0  0  0  0  0  0  0
   -5.4639    4.4379    5.5865 H   0  0  0  0  0  0  0  0  0  0  0  0
   -4.5654    3.2505    6.1728 H   0  0  0  0  0  0  0  0  0  0  0  0
   -5.2445    3.1025    4.7313 H   0  0  0  0  0  0  0  0  0  0  0  0
    1.1885    1.6620    6.2259 C   0  0  0  0  0  0  0  0  0  0  0  0
    1.5591    2.4374    6.7360 H   0  0  0  0  0  0  0  0  0  0  0  0
    0.7641    0.6156    7.2694 C   0  0  0  0  0  0  0  0  0  0  0  0
    0.4038   -0.1724    6.8128 H   0  0  0  0  0  0  0  0  0  0  0  0
    0.0764    0.9976    7.8548 H   0  0  0  0  0  0  0  0  0  0  0  0
    1.5422    0.3552    7.8062 H   0  0  0  0  0  0  0  0  0  0  0  0
    2.3281    1.1390    5.3394 C   0  0  0  0  0  0  0  0  0  0  0  0
    3.1630    1.1282    5.8527 H   0  0  0  0  0  0  0  0  0  0  0  0
    2.4304    1.7236    4.5598 H   0  0  0  0  0  0  0  0  0  0  0  0
    2.1180    0.2298    5.0399 H   0  0  0  0  0  0  0  0  0  0  0  0
   -0.4491    1.3068    3.7725 C   0  0  0  0  0  0  0  0  0  0  0  0
    0.4001    1.3650    3.2477 H   0  0  0  0  0  0  0  0  0  0  0  0
   -1.5935    1.8218    2.8977 C   0  0  0  0  0  0  0  0  0  0  0  0
   -1.6155    1.3162    2.0584 H   0  0  0  0  0  0  0  0  0  0  0  0
   -1.4536    2.7717    2.7036 H   0  0  0  0  0  0  0  0  0  0  0  0
   -2.4437    1.7062    3.3706 H   0  0  0  0  0  0  0  0  0  0  0  0
   -0.6902   -0.1652    4.1394 C   0  0  0  0  0  0  0  0  0  0  0  0
   -1.4467   -0.2281    4.7595 H   0  0  0  0  0  0  0  0  0  0  0  0
    0.1120   -0.5310    4.5662 H   0  0  0  0  0  0  0  0  0  0  0  0
   -0.8904   -0.6755    3.3270 H   0  0  0  0  0  0  0  0  0  0  0  0
  1  3  1  0  0  0  0
  2  4  2  0  0  0  0
  3  5  1  0  0  0  0
  6  7  1  0  0  0  0
  8  6  1  0  0  0  0
  9  8  1  0  0  0  0
 10  6  1  0  0  0  0
 11 10  1  0  0  0  0
 12  6  1  0  0  0  0
 13 12  1  0  0  0  0
 14  6  1  0  0  0  0
 15 14  1  0  0  0  0
 16  6  1  0  0  0  0
 17 16  1  0  0  0  0
 18  1  1  0  0  0  0
 19  2  1  0  0  0  0
 20 12  1  0  0  0  0
 21 20  1  0  0  0  0
 22 14  1  0  0  0  0
 23 22  1  0  0  0  0
 24 20  1  0  0  0  0
 25  8  1  0  0  0  0
 26 25  1  0  0  0  0
 27  1  1  0  0  0  0
 28 27  1  0  0  0  0
 29 27  1  0  0  0  0
 30 29  1  0  0  0  0
 31 29  1  0  0  0  0
 32 29  1  0  0  0  0
 33 27  1  0  0  0  0
 34 33  1  0  0  0  0
 35 33  1  0  0  0  0
 36 33  1  0  0  0  0
 37  1  1  0  0  0  0
 38 37  1  0  0  0  0
 39 37  1  0  0  0  0
 40 39  1  0  0  0  0
 41 39  1  0  0  0  0
 42 39  1  0  0  0  0
 43 37  1  0  0  0  0
 44 43  1  0  0  0  0
 45 43  1  0  0  0  0
 46 43  1  0  0  0  0
 47  2  1  0  0  0  0
 48 47  1  0  0  0  0
 49 47  1  0  0  0  0
 50 49  1  0  0  0  0
 51 49  1  0  0  0  0
 52 49  1  0  0  0  0
 53 47  1  0  0  0  0
 54 53  1  0  0  0  0
 55 53  1  0  0  0  0
 56 53  1  0  0  0  0
 57  2  1  0  0  0  0
 58 57  1  0  0  0  0
 59 57  1  0  0  0  0
 60 59  1  0  0  0  0
 61 59  1  0  0  0  0
 62 59  1  0  0  0  0
 63 57  1  0  0  0  0
 64 63  1  0  0  0  0
 65 63  1  0  0  0  0
 66 63  1  0  0  0  0
  8 10  1  0  0  0  0
  8 16  1  0  0  0  0
  8 18  1  0  0  0  0
 10 12  1  0  0  0  0
 10 18  1  0  0  0  0
 10 19  1  0  0  0  0
 12 14  1  0  0  0  0
 12 19  1  0  0  0  0
 14 16  1  0  0  0  0
 14 20  1  0  0  0  0
 16 22  1  0  0  0  0
 16 25  1  0  0  0  0
 18 19  1  0  0  0  0
 18 25  1  0  0  0  0
 19 20  1  0  0  0  0
 20 22  1  0  0  0  0
 22 24  1  0  0  0  0
 22 25  1  0  0  0  0
M  END
$$$$
SEQQOU

From CSD data. Using bond type 'Any'. No disordered atoms. Largest molecule.
 98124  0  0  0  0  0  0  0  0999 V2000
    6.5195   12.7992   -3.8434 Pt  0  0  0  0  0  0  0  0  0  0  0  0
    5.9926   10.2520   -2.8247 Re  0  0  0  0  0  0  0  0  0  0  0  0
    8.7453   13.1078   -3.3780 P   0  0  0  0  0  0  0  0  0  0  0  0
    6.1783   14.8491   -4.8620 P   0  0  0  0  0  0  0  0  0  0  0  0
    3.9171    9.5005   -2.1281 C   0  0  0  0  0  0  0  0  0  0  0  0
    3.9688   11.2297   -2.1954 B   0  0  0  0  0  0  0  0  0  0  0  0
    4.5047   11.5782   -3.8785 B   0  0  0  0  0  0  0  0  0  0  0  0
    4.7754   10.0632   -4.8152 B   0  0  0  0  0  0  0  0  0  0  0  0
    4.4206    8.7769   -3.6443 B   0  0  0  0  0  0  0  0  0  0  0  0
    2.7115    8.8725   -3.1906 B   0  0  0  0  0  0  0  0  0  0  0  0
    2.4361   10.3730   -2.3213 B   0  0  0  0  0  0  0  0  0  0  0  0
    2.7992   11.7017   -3.4219 B   0  0  0  0  0  0  0  0  0  0  0  0
    3.2777   10.9962   -5.0143 B   0  0  0  0  0  0  0  0  0  0  0  0
    3.2241    9.2306   -4.8474 B   0  0  0  0  0  0  0  0  0  0  0  0
    1.9925   10.2387   -4.0278 B   0  0  0  0  0  0  0  0  0  0  0  0
    7.4319    9.9773   -4.0980 C   0  0  0  0  0  0  0  0  0  0  0  0
    8.1693    9.7232   -4.9469 O   0  0  0  0  0  0  0  0  0  0  0  0
    6.7628    8.7200   -1.8588 C   0  0  0  0  0  0  0  0  0  0  0  0
    7.2047    7.8281   -1.2967 O   0  0  0  0  0  0  0  0  0  0  0  0
    6.6323   11.3011   -1.2967 C   0  0  0  0  0  0  0  0  0  0  0  0
    6.8549   11.9098   -0.3483 O   0  0  0  0  0  0  0  0  0  0  0  0
    9.7262   13.1635   -4.9177 C   0  0  0  0  0  0  0  0  0  0  0  0
    9.0912   12.9481   -6.1295 C   0  0  0  0  0  0  0  0  0  0  0  0
    9.8057   13.0703   -7.3297 C   0  0  0  0  0  0  0  0  0  0  0  0
   11.1351   13.3813   -7.3004 C   0  0  0  0  0  0  0  0  0  0  0  0
   11.7963   13.5325   -6.0827 C   0  0  0  0  0  0  0  0  0  0  0  0
   11.1012   13.4031   -4.8913 C   0  0  0  0  0  0  0  0  0  0  0  0
    9.6590   11.8808   -2.3593 C   0  0  0  0  0  0  0  0  0  0  0  0
    9.7502   12.0078   -0.9806 C   0  0  0  0  0  0  0  0  0  0  0  0
   10.3821   11.0119   -0.2371 C   0  0  0  0  0  0  0  0  0  0  0  0
   10.9255    9.9022   -0.8460 C   0  0  0  0  0  0  0  0  0  0  0  0
   10.8634    9.7933   -2.2071 C   0  0  0  0  0  0  0  0  0  0  0  0
   10.2325   10.7723   -2.9740 C   0  0  0  0  0  0  0  0  0  0  0  0
    8.9608   14.6495   -2.4091 C   0  0  0  0  0  0  0  0  0  0  0  0
    7.9234   15.0198   -1.5543 C   0  0  0  0  0  0  0  0  0  0  0  0
    8.0363   16.1452   -0.7552 C   0  0  0  0  0  0  0  0  0  0  0  0
    9.2000   16.8942   -0.7757 C   0  0  0  0  0  0  0  0  0  0  0  0
   10.2363   16.5360   -1.6070 C   0  0  0  0  0  0  0  0  0  0  0  0
   10.1202   15.4094   -2.4237 C   0  0  0  0  0  0  0  0  0  0  0  0
    7.4479   16.1573   -4.9235 C   0  0  0  0  0  0  0  0  0  0  0  0
    7.4611   17.1798   -3.9868 C   0  0  0  0  0  0  0  0  0  0  0  0
    8.4944   18.1128   -3.9897 C   0  0  0  0  0  0  0  0  0  0  0  0
    9.5026   18.0341   -4.9089 C   0  0  0  0  0  0  0  0  0  0  0  0
    9.4885   17.0285   -5.8631 C   0  0  0  0  0  0  0  0  0  0  0  0
    8.4644   16.1052   -5.8866 C   0  0  0  0  0  0  0  0  0  0  0  0
    5.6360   14.6471   -6.5949 C   0  0  0  0  0  0  0  0  0  0  0  0
    5.0941   13.4406   -7.0252 C   0  0  0  0  0  0  0  0  0  0  0  0
    4.4292   13.3680   -8.2459 C   0  0  0  0  0  0  0  0  0  0  0  0
    4.3043   14.4825   -9.0508 C   0  0  0  0  0  0  0  0  0  0  0  0
    4.8805   15.6672   -8.6381 C   0  0  0  0  0  0  0  0  0  0  0  0
    5.5585   15.7616   -7.4350 C   0  0  0  0  0  0  0  0  0  0  0  0
    4.7437   15.6611   -4.0659 C   0  0  0  0  0  0  0  0  0  0  0  0
    4.2019   15.1904   -2.8833 C   0  0  0  0  0  0  0  0  0  0  0  0
    3.0794   15.8087   -2.3359 C   0  0  0  0  0  0  0  0  0  0  0  0
    2.5123   16.8894   -2.9360 C   0  0  0  0  0  0  0  0  0  0  0  0
    3.0470   17.3782   -4.0980 C   0  0  0  0  0  0  0  0  0  0  0  0
    4.1522   16.7805   -4.6630 C   0  0  0  0  0  0  0  0  0  0  0  0
    4.0815    8.9923   -1.1943 H   0  0  0  0  0  0  0  0  0  0  0  0
    4.1394   11.8481   -1.3670 H   0  0  0  0  0  0  0  0  0  0  0  0
    4.9878   12.8150   -4.2005 H   0  0  0  0  0  0  0  0  0  0  0  0
    5.4540    9.9531   -5.6436 H   0  0  0  0  0  0  0  0  0  0  0  0
    4.8355    7.9504   -3.6970 H   0  0  0  0  0  0  0  0  0  0  0  0
    3.2927    7.9600   -2.9535 H   0  0  0  0  0  0  0  0  0  0  0  0
    1.7114   10.4492   -1.5690 H   0  0  0  0  0  0  0  0  0  0  0  0
    2.2737   12.6879   -3.3545 H   0  0  0  0  0  0  0  0  0  0  0  0
    3.0624   11.5032   -5.9568 H   0  0  0  0  0  0  0  0  0  0  0  0
    2.9693    8.5869   -5.6699 H   0  0  0  0  0  0  0  0  0  0  0  0
    0.9400   10.2471   -4.3527 H   0  0  0  0  0  0  0  0  0  0  0  0
    8.0965   12.6988   -6.1500 H   0  0  0  0  0  0  0  0  0  0  0  0
    9.3497   12.9348   -8.1873 H   0  0  0  0  0  0  0  0  0  0  0  0
   11.5766   13.4781   -8.0878 H   0  0  0  0  0  0  0  0  0  0  0  0
   12.6308   13.7056   -6.0739 H   0  0  0  0  0  0  0  0  0  0  0  0
   11.5753   13.4817   -4.0249 H   0  0  0  0  0  0  0  0  0  0  0  0
    9.3699   12.7908   -0.5298 H   0  0  0  0  0  0  0  0  0  0  0  0
   10.4432   11.1027    0.7172 H   0  0  0  0  0  0  0  0  0  0  0  0
   11.3145    9.2585   -0.3542 H   0  0  0  0  0  0  0  0  0  0  0  0
   11.2242    9.1036   -2.6023 H   0  0  0  0  0  0  0  0  0  0  0  0
   10.1944   10.6803   -3.9400 H   0  0  0  0  0  0  0  0  0  0  0  0
    7.0981   14.4740   -1.5221 H   0  0  0  0  0  0  0  0  0  0  0  0
    7.2910   16.4102   -0.1727 H   0  0  0  0  0  0  0  0  0  0  0  0
    9.2759   17.5997   -0.2605 H   0  0  0  0  0  0  0  0  0  0  0  0
   10.9932   17.0273   -1.6246 H   0  0  0  0  0  0  0  0  0  0  0  0
   10.8278   15.1662   -2.9857 H   0  0  0  0  0  0  0  0  0  0  0  0
    6.7465   17.2463   -3.3311 H   0  0  0  0  0  0  0  0  0  0  0  0
    8.4993   18.6597   -3.4863 H   0  0  0  0  0  0  0  0  0  0  0  0
   10.1802   18.6392   -4.8942 H   0  0  0  0  0  0  0  0  0  0  0  0
   10.1023   16.9813   -6.4252 H   0  0  0  0  0  0  0  0  0  0  0  0
    8.4471   15.4784   -6.5159 H   0  0  0  0  0  0  0  0  0  0  0  0
    5.1792   12.6697   -6.4896 H   0  0  0  0  0  0  0  0  0  0  0  0
    4.0725   12.5705   -8.5210 H   0  0  0  0  0  0  0  0  0  0  0  0
    3.8369   14.4365   -9.8558 H   0  0  0  0  0  0  0  0  0  0  0  0
    4.8196   16.3545   -9.1357 H   0  0  0  0  0  0  0  0  0  0  0  0
    5.9837   16.6098   -7.1745 H   0  0  0  0  0  0  0  0  0  0  0  0
    4.5640   14.5030   -2.4822 H   0  0  0  0  0  0  0  0  0  0  0  0
    2.7364   15.4965   -1.5953 H   0  0  0  0  0  0  0  0  0  0  0  0
    1.7944   17.2778   -2.5730 H   0  0  0  0  0  0  0  0  0  0  0  0
    2.6895   18.0656   -4.4786 H   0  0  0  0  0  0  0  0  0  0  0  0
    4.4935   17.1084   -5.4124 H   0  0  0  0  0  0  0  0  0  0  0  0
  1  2  1  0  0  0  0
  2  5  1  0  0  0  0
  3  1  1  0  0  0  0
  4  1  1  0  0  0  0
  5  6  1  0  0  0  0
  6  2  1  0  0  0  0
  7  1  1  0  0  0  0
  8  2  1  0  0  0  0
  9  2  1  0  0  0  0
 10  5  1  0  0  0  0
 11  5  1  0  0  0  0
 12  6  1  0  0  0  0
 13  7  1  0  0  0  0
 14  8  1  0  0  0  0
 15 10  1  0  0  0  0
 16  2  1  0  0  0  0
 17 16  3  0  0  0  0
 18  2  1  0  0  0  0
 19 18  3  0  0  0  0
 20  2  1  0  0  0  0
 21 20  3  0  0  0  0
 22  3  1  0  0  0  0
 23 22  4  0  0  0  0
 24 23  4  0  0  0  0
 25 24  4  0  0  0  0
 26 25  4  0  0  0  0
 27 22  4  0  0  0  0
 28  3  1  0  0  0  0
 29 28  4  0  0  0  0
 30 29  4  0  0  0  0
 31 30  4  0  0  0  0
 32 31  4  0  0  0  0
 33 28  4  0  0  0  0
 34  3  1  0  0  0  0
 35 34  4  0  0  0  0
 36 35  4  0  0  0  0
 37 36  4  0  0  0  0
 38 37  4  0  0  0  0
 39 34  4  0  0  0  0
 40  4  1  0  0  0  0
 41 40  4  0  0  0  0
 42 41  4  0  0  0  0
 43 42  4  0  0  0  0
 44 43  4  0  0  0  0
 45 40  4  0  0  0  0
 46  4  1  0  0  0  0
 47 46  4  0  0  0  0
 48 47  4  0  0  0  0
 49 48  4  0  0  0  0
 50 49  4  0  0  0  0
 51 46  4  0  0  0  0
 52  4  1  0  0  0  0
 53 52  4  0  0  0  0
 54 53  4  0  0  0  0
 55 54  4  0  0  0  0
 56 55  4  0  0  0  0
 57 52  4  0  0  0  0
 58  5  1  0  0  0  0
 59  6  1  0  0  0  0
 60  1  1  0  0  0  0
 61  8  1  0  0  0  0
 62  9  1  0  0  0  0
 63 10  1  0  0  0  0
 64 11  1  0  0  0  0
 65 12  1  0  0  0  0
 66 13  1  0  0  0  0
 67 14  1  0  0  0  0
 68 15  1  0  0  0  0
 69 23  1  0  0  0  0
 70 24  1  0  0  0  0
 71 25  1  0  0  0  0
 72 26  1  0  0  0  0
 73 27  1  0  0  0  0
 74 29  1  0  0  0  0
 75 30  1  0  0  0  0
 76 31  1  0  0  0  0
 77 32  1  0  0  0  0
 78 33  1  0  0  0  0
 79 35  1  0  0  0  0
 80 36  1  0  0  0  0
 81 37  1  0  0  0  0
 82 38  1  0  0  0  0
 83 39  1  0  0  0  0
 84 41  1  0  0  0  0
 85 42  1  0  0  0  0
 86 43  1  0  0  0  0
 87 44  1  0  0  0  0
 88 45  1  0  0  0  0
 89 47  1  0  0  0  0
 90 48  1  0  0  0  0
 91 49  1  0  0  0  0
 92 50  1  0  0  0  0
 93 51  1  0  0  0  0
 94 53  1  0  0  0  0
 95 54  1  0  0  0  0
 96 55  1  0  0  0  0
 97 56  1  0  0  0  0
 98 57  1  0  0  0  0
  2  7  1  0  0  0  0
  5  9  1  0  0  0  0
  6  7  1  0  0  0  0
  6 11  1  0  0  0  0
  7  8  1  0  0  0  0
  7 12  1  0  0  0  0
  7 60  1  0  0  0  0
  8  9  1  0  0  0  0
  8 13  1  0  0  0  0
  9 10  1  0  0  0  0
  9 14  1  0  0  0  0
 10 11  1  0  0  0  0
 10 14  1  0  0  0  0
 11 12  1  0  0  0  0
 11 15  1  0  0  0  0
 12 13  1  0  0  0  0
 12 15  1  0  0  0  0
 13 14  1  0  0  0  0
 13 15  1  0  0  0  0
 14 15  1  0  0  0  0
 26 27  4  0  0  0  0
 32 33  4  0  0  0  0
 38 39  4  0  0  0  0
 44 45  4  0  0  0  0
 50 51  4  0  0  0  0
 56 57  4  0  0  0  0
M  END
$$$$
SEQQUA

From CSD data. Using bond type 'Any'. No disordered atoms. Largest molecule.
 82107  0  0  0  0  0  0  0  0999 V2000
    8.4246   16.8034   12.8342 Re  0  0  0  0  0  0  0  0  0  0  0  0
    9.8543   15.6277   14.9168 Pd  0  0  0  0  0  0  0  0  0  0  0  0
   11.1731   15.1903   16.7088 P   0  0  0  0  0  0  0  0  0  0  0  0
    9.5207   13.3782   14.8530 P   0  0  0  0  0  0  0  0  0  0  0  0
    7.4582   18.8922   13.0776 C   0  0  0  0  0  0  0  0  0  0  0  0
    8.7676   18.8897   11.8886 B   0  0  0  0  0  0  0  0  0  0  0  0
   10.2350   18.3133   12.7396 B   0  0  0  0  0  0  0  0  0  0  0  0
    9.6551   17.8950   14.4039 B   0  0  0  0  0  0  0  0  0  0  0  0
    7.8895   18.2432   14.5930 B   0  0  0  0  0  0  0  0  0  0  0  0
    7.6927   20.0042   14.3589 B   0  0  0  0  0  0  0  0  0  0  0  0
    8.2089   20.3830   12.7278 B   0  0  0  0  0  0  0  0  0  0  0  0
    9.9403   20.0476   12.5623 B   0  0  0  0  0  0  0  0  0  0  0  0
   10.5143   19.4176   14.1249 B   0  0  0  0  0  0  0  0  0  0  0  0
    9.1059   19.3539   15.2383 B   0  0  0  0  0  0  0  0  0  0  0  0
    9.2850   20.7094   14.0800 B   0  0  0  0  0  0  0  0  0  0  0  0
    7.3663   16.5407   11.2125 C   0  0  0  0  0  0  0  0  0  0  0  0
    6.7463   16.4553   10.2574 O   0  0  0  0  0  0  0  0  0  0  0  0
    9.6339   15.5308   11.9997 C   0  0  0  0  0  0  0  0  0  0  0  0
   10.3740   14.8689   11.4158 O   0  0  0  0  0  0  0  0  0  0  0  0
    7.1070   15.6328   13.6639 C   0  0  0  0  0  0  0  0  0  0  0  0
    6.2607   15.0258   14.1627 O   0  0  0  0  0  0  0  0  0  0  0  0
   11.1578   13.3961   17.0444 C   0  0  0  0  0  0  0  0  0  0  0  0
   10.9539   12.6386   15.7135 C   0  0  0  0  0  0  0  0  0  0  0  0
   10.6404   15.9554   18.2690 C   0  0  0  0  0  0  0  0  0  0  0  0
    9.5467   16.8124   18.3115 C   0  0  0  0  0  0  0  0  0  0  0  0
    9.0941   17.3008   19.5385 C   0  0  0  0  0  0  0  0  0  0  0  0
    9.7482   16.9220   20.6968 C   0  0  0  0  0  0  0  0  0  0  0  0
   10.8455   16.0919   20.6590 C   0  0  0  0  0  0  0  0  0  0  0  0
   11.3063   15.6162   19.4392 C   0  0  0  0  0  0  0  0  0  0  0  0
   12.8880   15.6787   16.4085 C   0  0  0  0  0  0  0  0  0  0  0  0
   13.1520   17.0304   16.1438 C   0  0  0  0  0  0  0  0  0  0  0  0
   14.4166   17.4423   15.7939 C   0  0  0  0  0  0  0  0  0  0  0  0
   15.4314   16.5382   15.6922 C   0  0  0  0  0  0  0  0  0  0  0  0
   15.1980   15.1992   15.9405 C   0  0  0  0  0  0  0  0  0  0  0  0
   13.9287   14.7708   16.3092 C   0  0  0  0  0  0  0  0  0  0  0  0
    8.1064   12.8541   15.8435 C   0  0  0  0  0  0  0  0  0  0  0  0
    7.4876   13.7200   16.7395 C   0  0  0  0  0  0  0  0  0  0  0  0
    6.4528   13.2673   17.5385 C   0  0  0  0  0  0  0  0  0  0  0  0
    6.0003   11.9959   17.4392 C   0  0  0  0  0  0  0  0  0  0  0  0
    6.5931   11.1198   16.5527 C   0  0  0  0  0  0  0  0  0  0  0  0
    7.6350   11.5355   15.7537 C   0  0  0  0  0  0  0  0  0  0  0  0
    9.3864   12.5047   13.2810 C   0  0  0  0  0  0  0  0  0  0  0  0
   10.4778   11.8850   12.6970 C   0  0  0  0  0  0  0  0  0  0  0  0
   10.3623   11.2843   11.4465 C   0  0  0  0  0  0  0  0  0  0  0  0
    9.1459   11.3353   10.7680 C   0  0  0  0  0  0  0  0  0  0  0  0
    8.0628   11.9436   11.3401 C   0  0  0  0  0  0  0  0  0  0  0  0
    8.1606   12.5213   12.5954 C   0  0  0  0  0  0  0  0  0  0  0  0
    6.4010   18.7647   12.7301 H   0  0  0  0  0  0  0  0  0  0  0  0
    8.6380   18.7724   10.7822 H   0  0  0  0  0  0  0  0  0  0  0  0
   11.1036   17.8376   12.2172 H   0  0  0  0  0  0  0  0  0  0  0  0
   10.4848   17.2077   15.2974 H   0  0  0  0  0  0  0  0  0  0  0  0
    7.1918   17.7037   15.2833 H   0  0  0  0  0  0  0  0  0  0  0  0
    6.8760   20.5806   14.8648 H   0  0  0  0  0  0  0  0  0  0  0  0
    7.7104   21.2055   12.1510 H   0  0  0  0  0  0  0  0  0  0  0  0
   10.5956   20.6622   11.8933 H   0  0  0  0  0  0  0  0  0  0  0  0
   11.5503   19.6038   14.5079 H   0  0  0  0  0  0  0  0  0  0  0  0
    9.2273   19.4801   16.3447 H   0  0  0  0  0  0  0  0  0  0  0  0
    9.5231   21.7500   14.4180 H   0  0  0  0  0  0  0  0  0  0  0  0
   12.0135   13.1245   17.4605 H   0  0  0  0  0  0  0  0  0  0  0  0
   10.4235   13.1780   17.6733 H   0  0  0  0  0  0  0  0  0  0  0  0
   10.7854   11.6784   15.8908 H   0  0  0  0  0  0  0  0  0  0  0  0
   11.7648   12.7151   15.1509 H   0  0  0  0  0  0  0  0  0  0  0  0
    9.1070   17.0649   17.5078 H   0  0  0  0  0  0  0  0  0  0  0  0
    8.3468   17.8861   19.5786 H   0  0  0  0  0  0  0  0  0  0  0  0
    9.4335   17.2408   21.5360 H   0  0  0  0  0  0  0  0  0  0  0  0
   11.2863   15.8445   21.4628 H   0  0  0  0  0  0  0  0  0  0  0  0
   12.0759   15.0602   19.4037 H   0  0  0  0  0  0  0  0  0  0  0  0
   12.4496   17.6668   16.2029 H   0  0  0  0  0  0  0  0  0  0  0  0
   14.5840   18.3617   15.6260 H   0  0  0  0  0  0  0  0  0  0  0  0
   16.3024   16.8302   15.4487 H   0  0  0  0  0  0  0  0  0  0  0  0
   15.9064   14.5718   15.8577 H   0  0  0  0  0  0  0  0  0  0  0  0
   13.7743   13.8513   16.4913 H   0  0  0  0  0  0  0  0  0  0  0  0
    7.7764   14.6228   16.8033 H   0  0  0  0  0  0  0  0  0  0  0  0
    6.0533   13.8590   18.1650 H   0  0  0  0  0  0  0  0  0  0  0  0
    5.2754   11.7052   17.9806 H   0  0  0  0  0  0  0  0  0  0  0  0
    6.2796   10.2246   16.4936 H   0  0  0  0  0  0  0  0  0  0  0  0
    8.0345   10.9285   15.1438 H   0  0  0  0  0  0  0  0  0  0  0  0
   11.3122   11.8709   13.1509 H   0  0  0  0  0  0  0  0  0  0  0  0
   11.1083   10.8418   11.0588 H   0  0  0  0  0  0  0  0  0  0  0  0
    9.0693   10.9464    9.9052 H   0  0  0  0  0  0  0  0  0  0  0  0
    7.2354   11.9717   10.8720 H   0  0  0  0  0  0  0  0  0  0  0  0
    7.3993   12.9268   12.9949 H   0  0  0  0  0  0  0  0  0  0  0  0
  1  2  1  0  0  0  0
  2  3  1  0  0  0  0
  3 22  1  0  0  0  0
  4  2  1  0  0  0  0
  5  1  1  0  0  0  0
  6  1  1  0  0  0  0
  7  1  1  0  0  0  0
  8  1  1  0  0  0  0
  9  1  1  0  0  0  0
 10  5  1  0  0  0  0
 11  5  1  0  0  0  0
 12  6  1  0  0  0  0
 13  7  1  0  0  0  0
 14  8  1  0  0  0  0
 15 10  1  0  0  0  0
 16  1  1  0  0  0  0
 17 16  3  0  0  0  0
 18  1  1  0  0  0  0
 19 18  3  0  0  0  0
 20  1  1  0  0  0  0
 21 20  3  0  0  0  0
 22 23  1  0  0  0  0
 23  4  1  0  0  0  0
 24  3  1  0  0  0  0
 25 24  4  0  0  0  0
 26 25  4  0  0  0  0
 27 26  4  0  0  0  0
 28 27  4  0  0  0  0
 29 24  4  0  0  0  0
 30  3  1  0  0  0  0
 31 30  4  0  0  0  0
 32 31  4  0  0  0  0
 33 32  4  0  0  0  0
 34 33  4  0  0  0  0
 35 30  4  0  0  0  0
 36  4  1  0  0  0  0
 37 36  4  0  0  0  0
 38 37  4  0  0  0  0
 39 38  4  0  0  0  0
 40 39  4  0  0  0  0
 41 36  4  0  0  0  0
 42  4  1  0  0  0  0
 43 42  4  0  0  0  0
 44 43  4  0  0  0  0
 45 44  4  0  0  0  0
 46 45  4  0  0  0  0
 47 42  4  0  0  0  0
 48  5  1  0  0  0  0
 49  6  1  0  0  0  0
 50  7  1  0  0  0  0
 51  2  1  0  0  0  0
 52  9  1  0  0  0  0
 53 10  1  0  0  0  0
 54 11  1  0  0  0  0
 55 12  1  0  0  0  0
 56 13  1  0  0  0  0
 57 14  1  0  0  0  0
 58 15  1  0  0  0  0
 59 22  1  0  0  0  0
 60 22  1  0  0  0  0
 61 23  1  0  0  0  0
 62 23  1  0  0  0  0
 63 25  1  0  0  0  0
 64 26  1  0  0  0  0
 65 27  1  0  0  0  0
 66 28  1  0  0  0  0
 67 29  1  0  0  0  0
 68 31  1  0  0  0  0
 69 32  1  0  0  0  0
 70 33  1  0  0  0  0
 71 34  1  0  0  0  0
 72 35  1  0  0  0  0
 73 37  1  0  0  0  0
 74 38  1  0  0  0  0
 75 39  1  0  0  0  0
 76 40  1  0  0  0  0
 77 41  1  0  0  0  0
 78 43  1  0  0  0  0
 79 44  1  0  0  0  0
 80 45  1  0  0  0  0
 81 46  1  0  0  0  0
 82 47  1  0  0  0  0
  2  8  1  0  0  0  0
  5  6  1  0  0  0  0
  5  9  1  0  0  0  0
  6  7  1  0  0  0  0
  6 11  1  0  0  0  0
  7  8  1  0  0  0  0
  7 12  1  0  0  0  0
  8  9  1  0  0  0  0
  8 13  1  0  0  0  0
  8 51  1  0  0  0  0
  9 10  1  0  0  0  0
  9 14  1  0  0  0  0
 10 11  1  0  0  0  0
 10 14  1  0  0  0  0
 11 12  1  0  0  0  0
 11 15  1  0  0  0  0
 12 13  1  0  0  0  0
 12 15  1  0  0  0  0
 13 14  1  0  0  0  0
 13 15  1  0  0  0  0
 14 15  1  0  0  0  0
 28 29  4  0  0  0  0
 34 35  4  0  0  0  0
 40 41  4  0  0  0  0
 46 47  4  0  0  0  0
M  END
$$$$
SESPUB

From CSD data. Using bond type 'Any'. No disordered atoms. Largest molecule.
 95104  0  0  0  0  0  0  0  0999 V2000
   -0.2461    0.3105    6.1654 Pt  0  0  0  0  0  0  0  0  0  0  0  0
   -0.1006    1.3099    3.2183 O   0  0  0  0  0  0  0  0  0  0  0  0
   -1.5436   -0.4645    3.4366 O   0  0  0  0  0  0  0  0  0  0  0  0
    2.5590   -0.3293    5.0150 O   0  0  0  0  0  0  0  0  0  0  0  0
    1.2563   -2.2073    5.1718 O   0  0  0  0  0  0  0  0  0  0  0  0
   -0.7211    0.3894    4.1811 B   0  0  0  0  0  0  0  0  0  0  0  0
    1.3074   -0.7373    5.3916 B   0  0  0  0  0  0  0  0  0  0  0  0
   -3.4662   -1.6800    1.2911 Cl  0  0  0  0  0  0  0  0  0  0  0  0
   -3.1249   -0.2240   -1.5110 Cl  0  0  0  0  0  0  0  0  0  0  0  0
   -1.1544    2.1427   -1.7821 Cl  0  0  0  0  0  0  0  0  0  0  0  0
    0.5763    3.0449    0.7225 Cl  0  0  0  0  0  0  0  0  0  0  0  0
    1.9724   -5.1812    4.5167 Cl  0  0  0  0  0  0  0  0  0  0  0  0
    4.9291   -5.3924    3.4073 Cl  0  0  0  0  0  0  0  0  0  0  0  0
    6.7419   -2.8383    3.3267 Cl  0  0  0  0  0  0  0  0  0  0  0  0
    5.5118   -0.0187    4.1416 Cl  0  0  0  0  0  0  0  0  0  0  0  0
    0.7135    0.0907    8.3022 P   0  0  0  0  0  0  0  0  0  0  0  0
   -2.2346    1.4846    6.6930 P   0  0  0  0  0  0  0  0  0  0  0  0
    2.4265   -0.5556    8.2641 C   0  0  0  0  0  0  0  0  0  0  0  0
    2.7005   -1.8606    8.1131 C   0  0  0  0  0  0  0  0  0  0  0  0
    4.0019   -2.3414    7.9123 C   0  0  0  0  0  0  0  0  0  0  0  0
    5.0634   -1.4864    7.9666 C   0  0  0  0  0  0  0  0  0  0  0  0
    4.7985   -0.0966    8.1175 C   0  0  0  0  0  0  0  0  0  0  0  0
    3.5264    0.3359    8.2509 C   0  0  0  0  0  0  0  0  0  0  0  0
   -0.1583   -1.1576    9.3295 C   0  0  0  0  0  0  0  0  0  0  0  0
    0.2438   -1.4718   10.5737 C   0  0  0  0  0  0  0  0  0  0  0  0
   -0.4671   -2.4481   11.3607 C   0  0  0  0  0  0  0  0  0  0  0  0
   -1.5117   -3.1314   10.7027 C   0  0  0  0  0  0  0  0  0  0  0  0
   -1.7341   -2.8998    9.4658 C   0  0  0  0  0  0  0  0  0  0  0  0
   -1.0983   -1.9607    8.7594 C   0  0  0  0  0  0  0  0  0  0  0  0
    0.8845    1.6262    9.2386 C   0  0  0  0  0  0  0  0  0  0  0  0
    1.0461    1.6671   10.5444 C   0  0  0  0  0  0  0  0  0  0  0  0
    1.4232    2.9230   11.1790 C   0  0  0  0  0  0  0  0  0  0  0  0
    1.4022    4.0567   10.5268 C   0  0  0  0  0  0  0  0  0  0  0  0
    1.2207    3.9988    9.2005 C   0  0  0  0  0  0  0  0  0  0  0  0
    0.9576    2.8129    8.5704 C   0  0  0  0  0  0  0  0  0  0  0  0
   -2.5601    2.1758    8.3476 C   0  0  0  0  0  0  0  0  0  0  0  0
   -2.7867    1.2449    9.3529 C   0  0  0  0  0  0  0  0  0  0  0  0
   -3.0252    1.7264   10.7012 C   0  0  0  0  0  0  0  0  0  0  0  0
   -3.0584    3.0353   10.9592 C   0  0  0  0  0  0  0  0  0  0  0  0
   -2.8009    3.9040    9.9538 C   0  0  0  0  0  0  0  0  0  0  0  0
   -2.6592    3.5491    8.6246 C   0  0  0  0  0  0  0  0  0  0  0  0
   -2.4361    2.9646    5.6129 C   0  0  0  0  0  0  0  0  0  0  0  0
   -3.6434    3.5292    5.3316 C   0  0  0  0  0  0  0  0  0  0  0  0
   -3.7913    4.6362    4.5226 C   0  0  0  0  0  0  0  0  0  0  0  0
   -1.4122    4.6620    4.2266 C   0  0  0  0  0  0  0  0  0  0  0  0
   -1.2759    3.5036    5.0898 C   0  0  0  0  0  0  0  0  0  0  0  0
   -3.7551    0.4354    6.4747 C   0  0  0  0  0  0  0  0  0  0  0  0
   -4.9752    0.8415    6.9583 C   0  0  0  0  0  0  0  0  0  0  0  0
   -6.0931    0.0425    6.7282 C   0  0  0  0  0  0  0  0  0  0  0  0
   -5.9582   -1.1260    6.0028 C   0  0  0  0  0  0  0  0  0  0  0  0
   -2.6228    5.1356    4.0141 C   0  0  0  0  0  0  0  0  0  0  0  0
   -4.7836   -1.5149    5.6129 C   0  0  0  0  0  0  0  0  0  0  0  0
   -3.6589   -0.7562    5.8152 C   0  0  0  0  0  0  0  0  0  0  0  0
   -1.5382    0.0616    2.1455 C   0  0  0  0  0  0  0  0  0  0  0  0
   -2.3245   -0.3722    1.0728 C   0  0  0  0  0  0  0  0  0  0  0  0
   -2.1605    0.3219   -0.1348 C   0  0  0  0  0  0  0  0  0  0  0  0
   -1.3207    1.3516   -0.2272 C   0  0  0  0  0  0  0  0  0  0  0  0
   -0.5433    1.7226    0.8500 C   0  0  0  0  0  0  0  0  0  0  0  0
   -0.6854    1.1168    2.0268 C   0  0  0  0  0  0  0  0  0  0  0  0
    3.3083   -1.4344    4.6325 C   0  0  0  0  0  0  0  0  0  0  0  0
    2.5025   -2.5313    4.7234 C   0  0  0  0  0  0  0  0  0  0  0  0
    3.0202   -3.8044    4.3848 C   0  0  0  0  0  0  0  0  0  0  0  0
    4.3074   -3.8472    3.9071 C   0  0  0  0  0  0  0  0  0  0  0  0
    5.1036   -2.7289    3.8514 C   0  0  0  0  0  0  0  0  0  0  0  0
    4.5966   -1.4586    4.2075 C   0  0  0  0  0  0  0  0  0  0  0  0
    1.9836   -2.4826    8.1424 H   0  0  0  0  0  0  0  0  0  0  0  0
    4.1438   -3.2653    7.7394 H   0  0  0  0  0  0  0  0  0  0  0  0
    5.9549   -1.8104    7.9050 H   0  0  0  0  0  0  0  0  0  0  0  0
    5.5153    0.5263    8.1248 H   0  0  0  0  0  0  0  0  0  0  0  0
    3.3635    1.2687    8.3373 H   0  0  0  0  0  0  0  0  0  0  0  0
    1.0104   -1.0456   10.9386 H   0  0  0  0  0  0  0  0  0  0  0  0
   -0.2472   -2.6194   12.2679 H   0  0  0  0  0  0  0  0  0  0  0  0
   -2.0464   -3.7575   11.1746 H   0  0  0  0  0  0  0  0  0  0  0  0
   -2.3871   -3.4268    9.0217 H   0  0  0  0  0  0  0  0  0  0  0  0
   -1.3062   -1.8510    7.8391 H   0  0  0  0  0  0  0  0  0  0  0  0
    0.9157    0.8864   11.0676 H   0  0  0  0  0  0  0  0  0  0  0  0
    1.6918    2.9178   12.0905 H   0  0  0  0  0  0  0  0  0  0  0  0
    1.5114    4.8870   10.9753 H   0  0  0  0  0  0  0  0  0  0  0  0
    1.2760    4.7972    8.6876 H   0  0  0  0  0  0  0  0  0  0  0  0
    0.8222    2.8165    7.6295 H   0  0  0  0  0  0  0  0  0  0  0  0
   -2.7853    0.3138    9.1624 H   0  0  0  0  0  0  0  0  0  0  0  0
   -3.1592    1.1040   11.4076 H   0  0  0  0  0  0  0  0  0  0  0  0
   -3.2599    3.3531   11.8311 H   0  0  0  0  0  0  0  0  0  0  0  0
   -2.7086    4.8225   10.1766 H   0  0  0  0  0  0  0  0  0  0  0  0
   -2.6307    4.2006    7.9343 H   0  0  0  0  0  0  0  0  0  0  0  0
   -4.4228    3.1410    5.7111 H   0  0  0  0  0  0  0  0  0  0  0  0
   -4.6391    5.0236    4.3335 H   0  0  0  0  0  0  0  0  0  0  0  0
   -0.6520    5.0670    3.8265 H   0  0  0  0  0  0  0  0  0  0  0  0
   -0.4243    3.1310    5.2861 H   0  0  0  0  0  0  0  0  0  0  0  0
   -5.0543    1.6550    7.4419 H   0  0  0  0  0  0  0  0  0  0  0  0
   -6.9416    0.2997    7.0682 H   0  0  0  0  0  0  0  0  0  0  0  0
   -6.7262   -1.6436    5.7903 H   0  0  0  0  0  0  0  0  0  0  0  0
   -2.6909    5.8978    3.4528 H   0  0  0  0  0  0  0  0  0  0  0  0
   -4.6993   -2.3536    5.1733 H   0  0  0  0  0  0  0  0  0  0  0  0
   -2.8158   -1.0572    5.4957 H   0  0  0  0  0  0  0  0  0  0  0  0
  1  6  1  0  0  0  0
  2  6  1  0  0  0  0
  3  6  1  0  0  0  0
  4  7  1  0  0  0  0
  5  7  1  0  0  0  0
  7  1  1  0  0  0  0
  8 55  1  0  0  0  0
  9 56  1  0  0  0  0
 10 57  1  0  0  0  0
 11 58  1  0  0  0  0
 12 62  1  0  0  0  0
 13 63  1  0  0  0  0
 14 64  1  0  0  0  0
 15 65  1  0  0  0  0
 16  1  1  0  0  0  0
 17  1  1  0  0  0  0
 18 16  1  0  0  0  0
 19 18  4  0  0  0  0
 20 19  4  0  0  0  0
 21 20  4  0  0  0  0
 22 21  4  0  0  0  0
 23 18  4  0  0  0  0
 24 16  1  0  0  0  0
 25 24  4  0  0  0  0
 26 25  4  0  0  0  0
 27 26  4  0  0  0  0
 28 27  4  0  0  0  0
 29 24  4  0  0  0  0
 30 16  1  0  0  0  0
 31 30  4  0  0  0  0
 32 31  4  0  0  0  0
 33 32  4  0  0  0  0
 34 33  4  0  0  0  0
 35 30  4  0  0  0  0
 36 17  1  0  0  0  0
 37 36  4  0  0  0  0
 38 37  4  0  0  0  0
 39 38  4  0  0  0  0
 40 39  4  0  0  0  0
 41 36  4  0  0  0  0
 42 17  1  0  0  0  0
 43 42  4  0  0  0  0
 44 43  4  0  0  0  0
 45 46  4  0  0  0  0
 46 42  4  0  0  0  0
 47 17  1  0  0  0  0
 48 47  4  0  0  0  0
 49 48  4  0  0  0  0
 50 49  4  0  0  0  0
 51 44  4  0  0  0  0
 52 50  4  0  0  0  0
 53 47  4  0  0  0  0
 54  3  1  0  0  0  0
 55 54  4  0  0  0  0
 56 55  4  0  0  0  0
 57 56  4  0  0  0  0
 58 57  4  0  0  0  0
 59  2  1  0  0  0  0
 60  4  1  0  0  0  0
 61  5  1  0  0  0  0
 62 61  4  0  0  0  0
 63 62  4  0  0  0  0
 64 63  4  0  0  0  0
 65 60  4  0  0  0  0
 66 19  1  0  0  0  0
 67 20  1  0  0  0  0
 68 21  1  0  0  0  0
 69 22  1  0  0  0  0
 70 23  1  0  0  0  0
 71 25  1  0  0  0  0
 72 26  1  0  0  0  0
 73 27  1  0  0  0  0
 74 28  1  0  0  0  0
 75 29  1  0  0  0  0
 76 31  1  0  0  0  0
 77 32  1  0  0  0  0
 78 33  1  0  0  0  0
 79 34  1  0  0  0  0
 80 35  1  0  0  0  0
 81 37  1  0  0  0  0
 82 38  1  0  0  0  0
 83 39  1  0  0  0  0
 84 40  1  0  0  0  0
 85 41  1  0  0  0  0
 86 43  1  0  0  0  0
 87 44  1  0  0  0  0
 88 45  1  0  0  0  0
 89 46  1  0  0  0  0
 90 48  1  0  0  0  0
 91 49  1  0  0  0  0
 92 50  1  0  0  0  0
 93 51  1  0  0  0  0
 94 52  1  0  0  0  0
 95 53  1  0  0  0  0
 22 23  4  0  0  0  0
 28 29  4  0  0  0  0
 34 35  4  0  0  0  0
 40 41  4  0  0  0  0
 45 51  4  0  0  0  0
 52 53  4  0  0  0  0
 54 59  4  0  0  0  0
 58 59  4  0  0  0  0
 60 61  4  0  0  0  0
 64 65  4  0  0  0  0
M  END
$$$$
SETVOC

From CSD data. Using bond type 'Any'. No disordered atoms. Largest molecule.
 66 94  0  0  0  0  0  0  0  0999 V2000
    2.0054    1.9687   12.4671 Ir  0  0  0  0  0  0  0  0  0  0  0  0
    2.7174    3.3487   11.3880 C   0  0  0  0  0  0  0  0  0  0  0  0
    3.1046    4.2178   10.7741 O   0  0  0  0  0  0  0  0  0  0  0  0
    3.4897    0.3280   11.7272 P   0  0  0  0  0  0  0  0  0  0  0  0
    2.7469   -1.2405   11.2278 C   0  0  0  0  0  0  0  0  0  0  0  0
    2.0126   -1.0702   10.6012 H   0  0  0  0  0  0  0  0  0  0  0  0
    2.3997   -1.7045   12.0178 H   0  0  0  0  0  0  0  0  0  0  0  0
    3.4244   -1.7999   10.7916 H   0  0  0  0  0  0  0  0  0  0  0  0
    4.3996    0.7942   10.2300 C   0  0  0  0  0  0  0  0  0  0  0  0
    4.9320    1.5973   10.4077 H   0  0  0  0  0  0  0  0  0  0  0  0
    3.7653    0.9763    9.5051 H   0  0  0  0  0  0  0  0  0  0  0  0
    4.9930    0.0587    9.9667 H   0  0  0  0  0  0  0  0  0  0  0  0
    4.7678   -0.2687   12.8744 C   0  0  0  0  0  0  0  0  0  0  0  0
    4.3449   -0.5726   13.7056 H   0  0  0  0  0  0  0  0  0  0  0  0
    5.3938    0.4580   13.0727 H   0  0  0  0  0  0  0  0  0  0  0  0
    5.2528   -1.0145   12.4636 H   0  0  0  0  0  0  0  0  0  0  0  0
    3.2805    2.9498   14.2198 P   0  0  0  0  0  0  0  0  0  0  0  0
    5.0361    3.3003   13.8658 C   0  0  0  0  0  0  0  0  0  0  0  0
    5.1056    3.8185   13.0362 H   0  0  0  0  0  0  0  0  0  0  0  0
    5.5243    2.4561   13.7659 H   0  0  0  0  0  0  0  0  0  0  0  0
    5.4222    3.8156   14.6051 H   0  0  0  0  0  0  0  0  0  0  0  0
    3.3655    2.1331   15.8265 C   0  0  0  0  0  0  0  0  0  0  0  0
    3.8841    1.3066   15.7472 H   0  0  0  0  0  0  0  0  0  0  0  0
    2.4586    1.9217   16.1343 H   0  0  0  0  0  0  0  0  0  0  0  0
    3.7979    2.7292   16.4737 H   0  0  0  0  0  0  0  0  0  0  0  0
    2.6680    4.6039   14.6209 C   0  0  0  0  0  0  0  0  0  0  0  0
    1.7201    4.5525   14.8636 H   0  0  0  0  0  0  0  0  0  0  0  0
    2.7742    5.1897   13.8421 H   0  0  0  0  0  0  0  0  0  0  0  0
    3.1793    4.9680   15.3744 H   0  0  0  0  0  0  0  0  0  0  0  0
   -1.3414    1.8953   13.2789 B   0  0  0  0  0  0  0  0  0  0  0  0
   -2.2661    2.4958   13.6136 H   0  0  0  0  0  0  0  0  0  0  0  0
   -0.0978    2.7629   12.3144 B   0  0  0  0  0  0  0  0  0  0  0  0
   -0.2146    3.9022   12.1796 H   0  0  0  0  0  0  0  0  0  0  0  0
    0.3104    2.0979   13.9182 B   0  0  0  0  0  0  0  0  0  0  0  0
    0.4808    2.7952   14.7383 H   0  0  0  0  0  0  0  0  0  0  0  0
   -0.6817    0.6665   14.3846 B   0  0  0  0  0  0  0  0  0  0  0  0
   -1.0079    0.6107   15.4331 H   0  0  0  0  0  0  0  0  0  0  0  0
   -1.2151    1.5283   11.5150 B   0  0  0  0  0  0  0  0  0  0  0  0
    0.4850    1.6472   11.0057 B   0  0  0  0  0  0  0  0  0  0  0  0
    0.5997    2.4018    9.9128 H   0  0  0  0  0  0  0  0  0  0  0  0
    1.0689    0.4257   13.8833 B   0  0  0  0  0  0  0  0  0  0  0  0
    1.7106    0.1072   14.6574 H   0  0  0  0  0  0  0  0  0  0  0  0
    0.7480   -0.4903   13.0108 H   0  0  0  0  0  0  0  0  0  0  0  0
   -0.2651   -0.7590   13.5343 B   0  0  0  0  0  0  0  0  0  0  0  0
   -0.2651   -1.8116   13.8658 H   0  0  0  0  0  0  0  0  0  0  0  0
   -0.9100   -0.6298   12.4176 H   0  0  0  0  0  0  0  0  0  0  0  0
   -1.6528    0.2129   13.0013 B   0  0  0  0  0  0  0  0  0  0  0  0
   -2.5975   -0.2202   12.9902 H   0  0  0  0  0  0  0  0  0  0  0  0
   -2.2135    0.9410   10.1491 B   0  0  0  0  0  0  0  0  0  0  0  0
   -2.9499    0.2525   10.3871 H   0  0  0  0  0  0  0  0  0  0  0  0
   -0.4934    0.4199   10.2649 B   0  0  0  0  0  0  0  0  0  0  0  0
   -0.3198   -0.6753   10.4458 H   0  0  0  0  0  0  0  0  0  0  0  0
   -1.1646    0.9484    8.7088 B   0  0  0  0  0  0  0  0  0  0  0  0
   -1.2183    0.2276    7.9950 H   0  0  0  0  0  0  0  0  0  0  0  0
   -2.5175    2.0964    8.8357 B   0  0  0  0  0  0  0  0  0  0  0  0
   -3.4107    1.9276    8.2361 H   0  0  0  0  0  0  0  0  0  0  0  0
    0.4366    1.4975    9.2085 B   0  0  0  0  0  0  0  0  0  0  0  0
    1.2709    1.1759    8.6025 H   0  0  0  0  0  0  0  0  0  0  0  0
   -0.9005    2.5912    8.2424 B   0  0  0  0  0  0  0  0  0  0  0  0
   -0.6123    2.8965    7.2541 H   0  0  0  0  0  0  0  0  0  0  0  0
   -0.7291    3.6174    8.9959 H   0  0  0  0  0  0  0  0  0  0  0  0
   -1.9336    3.6497    9.2354 B   0  0  0  0  0  0  0  0  0  0  0  0
   -2.3513    4.5892    8.9864 H   0  0  0  0  0  0  0  0  0  0  0  0
   -1.9336    3.6658   10.5965 H   0  0  0  0  0  0  0  0  0  0  0  0
   -2.5480    2.6117   10.5299 B   0  0  0  0  0  0  0  0  0  0  0  0
   -3.3823    2.8936   11.0533 H   0  0  0  0  0  0  0  0  0  0  0  0
  1  2  1  0  0  0  0
  2  3  3  0  0  0  0
  4  1  1  0  0  0  0
  5  4  1  0  0  0  0
  6  5  1  0  0  0  0
  7  5  1  0  0  0  0
  8  5  1  0  0  0  0
  9  4  1  0  0  0  0
 10  9  1  0  0  0  0
 11  9  1  0  0  0  0
 12  9  1  0  0  0  0
 13  4  1  0  0  0  0
 14 13  1  0  0  0  0
 15 13  1  0  0  0  0
 16 13  1  0  0  0  0
 17  1  1  0  0  0  0
 18 17  1  0  0  0  0
 19 18  1  0  0  0  0
 20 18  1  0  0  0  0
 21 18  1  0  0  0  0
 22 17  1  0  0  0  0
 23 22  1  0  0  0  0
 24 22  1  0  0  0  0
 25 22  1  0  0  0  0
 26 17  1  0  0  0  0
 27 26  1  0  0  0  0
 28 26  1  0  0  0  0
 29 26  1  0  0  0  0
 30 31  1  0  0  0  0
 32  1  1  0  0  0  0
 33 32  1  0  0  0  0
 34  1  1  0  0  0  0
 35 34  1  0  0  0  0
 36 30  1  0  0  0  0
 37 36  1  0  0  0  0
 38 30  1  0  0  0  0
 39  1  1  0  0  0  0
 40 39  1  0  0  0  0
 41  1  1  0  0  0  0
 42 41  1  0  0  0  0
 43 41  1  0  0  0  0
 44 36  1  0  0  0  0
 45 44  1  0  0  0  0
 46 44  1  0  0  0  0
 47 30  1  0  0  0  0
 48 47  1  0  0  0  0
 49 38  1  0  0  0  0
 50 49  1  0  0  0  0
 51 38  1  0  0  0  0
 52 51  1  0  0  0  0
 53 49  1  0  0  0  0
 54 53  1  0  0  0  0
 55 49  1  0  0  0  0
 56 55  1  0  0  0  0
 57 39  1  0  0  0  0
 58 57  1  0  0  0  0
 59 53  1  0  0  0  0
 60 59  1  0  0  0  0
 61 59  1  0  0  0  0
 62 55  1  0  0  0  0
 63 62  1  0  0  0  0
 64 62  1  0  0  0  0
 65 38  1  0  0  0  0
 66 65  1  0  0  0  0
 30 32  1  0  0  0  0
 30 34  1  0  0  0  0
 32 34  1  0  0  0  0
 32 38  1  0  0  0  0
 32 39  1  0  0  0  0
 34 36  1  0  0  0  0
 34 41  1  0  0  0  0
 36 41  1  0  0  0  0
 36 47  1  0  0  0  0
 38 39  1  0  0  0  0
 38 47  1  0  0  0  0
 39 51  1  0  0  0  0
 40 57  1  0  0  0  0
 41 44  1  0  0  0  0
 43 44  1  0  0  0  0
 44 47  1  0  0  0  0
 46 47  1  0  0  0  0
 49 51  1  0  0  0  0
 49 65  1  0  0  0  0
 51 53  1  0  0  0  0
 51 57  1  0  0  0  0
 53 55  1  0  0  0  0
 53 57  1  0  0  0  0
 55 59  1  0  0  0  0
 55 65  1  0  0  0  0
 57 59  1  0  0  0  0
 59 62  1  0  0  0  0
 61 62  1  0  0  0  0
 62 65  1  0  0  0  0
 64 65  1  0  0  0  0
M  END
$$$$
SETYEZ

From CSD data. Using bond type 'Any'. No disordered atoms. Largest molecule.
162178  0  0  0  0  0  0  0  0999 V2000
   12.8591    7.8112   13.1423 Ni  0  0  0  0  0  0  0  0  0  0  0  0
   16.5275    9.7395    8.4793 Cl  0  0  0  0  0  0  0  0  0  0  0  0
   14.9757   12.8498    8.7257 Cl  0  0  0  0  0  0  0  0  0  0  0  0
   13.9481   10.6890    6.1039 Cl  0  0  0  0  0  0  0  0  0  0  0  0
   10.7887    8.6662    8.0766 Cl  0  0  0  0  0  0  0  0  0  0  0  0
   14.7171    8.9938   13.2847 P   0  0  0  0  0  0  0  0  0  0  0  0
    9.4434   11.7180    9.0454 P   0  0  0  0  0  0  0  0  0  0  0  0
   14.7486   10.8300    8.1010 Al  0  0  0  0  0  0  0  0  0  0  0  0
   12.7937    8.4443    8.9255 Al  0  0  0  0  0  0  0  0  0  0  0  0
   13.4767   10.1359    9.2204 O   0  0  0  0  0  0  0  0  0  0  0  0
   13.5851   10.9435   11.6166 N   0  0  0  0  0  0  0  0  0  0  0  0
   11.9450   11.8656   10.2654 N   0  0  0  0  0  0  0  0  0  0  0  0
   14.8475   10.4136   12.0884 C   0  0  0  0  0  0  0  0  0  0  0  0
   15.3505   11.1449   12.5255 H   0  0  0  0  0  0  0  0  0  0  0  0
   15.3737   10.1152   11.3057 H   0  0  0  0  0  0  0  0  0  0  0  0
   16.1782    7.9958   12.8549 C   0  0  0  0  0  0  0  0  0  0  0  0
   16.9890    7.4310   13.8549 C   0  0  0  0  0  0  0  0  0  0  0  0
   16.8161    7.6323   14.7666 H   0  0  0  0  0  0  0  0  0  0  0  0
   18.0267    6.5943   13.5322 C   0  0  0  0  0  0  0  0  0  0  0  0
   18.5492    6.2036   14.2226 H   0  0  0  0  0  0  0  0  0  0  0  0
   18.3066    6.3276   12.2554 C   0  0  0  0  0  0  0  0  0  0  0  0
   19.0525    5.7781   12.0477 H   0  0  0  0  0  0  0  0  0  0  0  0
   17.5112    6.8471   11.2052 C   0  0  0  0  0  0  0  0  0  0  0  0
   17.7012    6.6290   10.2999 H   0  0  0  0  0  0  0  0  0  0  0  0
   16.4470    7.6855   11.5255 C   0  0  0  0  0  0  0  0  0  0  0  0
   15.9026    8.0479   10.8355 H   0  0  0  0  0  0  0  0  0  0  0  0
   15.1802    9.6483   14.9212 C   0  0  0  0  0  0  0  0  0  0  0  0
   16.2003   10.5774   15.0813 C   0  0  0  0  0  0  0  0  0  0  0  0
   16.6562   10.9171   14.3204 H   0  0  0  0  0  0  0  0  0  0  0  0
   16.5550   11.0080   16.3490 C   0  0  0  0  0  0  0  0  0  0  0  0
   17.2573   11.6400   16.4573 H   0  0  0  0  0  0  0  0  0  0  0  0
   15.8940   10.5217   17.4496 C   0  0  0  0  0  0  0  0  0  0  0  0
   16.1317   10.8315   18.3143 H   0  0  0  0  0  0  0  0  0  0  0  0
   14.9004    9.6048   17.3146 C   0  0  0  0  0  0  0  0  0  0  0  0
   14.4592    9.2594   18.0819 H   0  0  0  0  0  0  0  0  0  0  0  0
   14.5368    9.1725   16.0332 C   0  0  0  0  0  0  0  0  0  0  0  0
   13.8356    8.5399   15.9327 H   0  0  0  0  0  0  0  0  0  0  0  0
   12.8316   11.8639   12.3836 C   0  0  0  0  0  0  0  0  0  0  0  0
   11.8423   12.4374   11.5415 C   0  0  0  0  0  0  0  0  0  0  0  0
   11.0029   13.4153   12.0335 C   0  0  0  0  0  0  0  0  0  0  0  0
   10.3652   13.8386   11.4710 H   0  0  0  0  0  0  0  0  0  0  0  0
   11.1108   13.7535   13.3469 C   0  0  0  0  0  0  0  0  0  0  0  0
   10.5194   14.4074   13.7036 H   0  0  0  0  0  0  0  0  0  0  0  0
   12.0494   13.1817   14.1798 C   0  0  0  0  0  0  0  0  0  0  0  0
   12.0894   13.4382   15.0936 H   0  0  0  0  0  0  0  0  0  0  0  0
   12.9461   12.2247   13.6901 C   0  0  0  0  0  0  0  0  0  0  0  0
   13.6099   11.8411   14.2514 H   0  0  0  0  0  0  0  0  0  0  0  0
   11.2034   12.3293    9.1115 C   0  0  0  0  0  0  0  0  0  0  0  0
   11.6724   12.0342    8.2911 H   0  0  0  0  0  0  0  0  0  0  0  0
   11.1954   13.3191    9.1133 H   0  0  0  0  0  0  0  0  0  0  0  0
    8.4846   13.0492    9.8140 C   0  0  0  0  0  0  0  0  0  0  0  0
    7.6650   12.7668   10.9008 C   0  0  0  0  0  0  0  0  0  0  0  0
    7.5071   11.8643   11.1493 H   0  0  0  0  0  0  0  0  0  0  0  0
    7.0789   13.7866   11.6193 C   0  0  0  0  0  0  0  0  0  0  0  0
    6.5127   13.5810   12.3540 H   0  0  0  0  0  0  0  0  0  0  0  0
    7.3103   15.1096   11.2738 C   0  0  0  0  0  0  0  0  0  0  0  0
    6.9522   15.8130   11.8045 H   0  0  0  0  0  0  0  0  0  0  0  0
    8.0528   15.3920   10.1709 C   0  0  0  0  0  0  0  0  0  0  0  0
    8.1713   16.2950    9.8972 H   0  0  0  0  0  0  0  0  0  0  0  0
    8.6366   14.3740    9.4456 C   0  0  0  0  0  0  0  0  0  0  0  0
    9.1520   14.5872    8.6773 H   0  0  0  0  0  0  0  0  0  0  0  0
    9.0024   11.7907    7.2855 C   0  0  0  0  0  0  0  0  0  0  0  0
    7.6914   12.0033    6.9286 C   0  0  0  0  0  0  0  0  0  0  0  0
    7.0664   12.2542    7.5991 H   0  0  0  0  0  0  0  0  0  0  0  0
    7.2530   11.8639    5.6289 C   0  0  0  0  0  0  0  0  0  0  0  0
    6.3466   12.0466    5.4120 H   0  0  0  0  0  0  0  0  0  0  0  0
    8.1078   11.4699    4.6633 C   0  0  0  0  0  0  0  0  0  0  0  0
    7.8024   11.3722    3.7681 H   0  0  0  0  0  0  0  0  0  0  0  0
    9.4518   11.2067    4.9836 C   0  0  0  0  0  0  0  0  0  0  0  0
   10.0558   10.9149    4.3097 H   0  0  0  0  0  0  0  0  0  0  0  0
    9.8925   11.3758    6.2993 C   0  0  0  0  0  0  0  0  0  0  0  0
   10.8010   11.2063    6.5222 H   0  0  0  0  0  0  0  0  0  0  0  0
   13.0122   10.9365   10.3036 B   0  0  0  0  0  0  0  0  0  0  0  0
   13.7922    7.2567    7.7958 C   0  0  0  0  0  0  0  0  0  0  0  0
   13.1730    6.8386    7.1485 H   0  0  0  0  0  0  0  0  0  0  0  0
   14.4495    7.7898    7.2794 H   0  0  0  0  0  0  0  0  0  0  0  0
   14.5346    6.1620    8.5280 C   0  0  0  0  0  0  0  0  0  0  0  0
   14.9159    5.5336    7.8800 H   0  0  0  0  0  0  0  0  0  0  0  0
   13.9143    5.6853    9.1189 H   0  0  0  0  0  0  0  0  0  0  0  0
   15.2560    6.5559    9.0634 H   0  0  0  0  0  0  0  0  0  0  0  0
   13.0651    7.3509   10.6858 Cl  0  0  0  0  0  0  0  0  0  0  0  0
    9.1731    9.6203    9.7394 Ni  0  0  0  0  0  0  0  0  0  0  0  0
    5.5047    7.6920   14.4024 Cl  0  0  0  0  0  0  0  0  0  0  0  0
    7.0565    4.5817   14.1560 Cl  0  0  0  0  0  0  0  0  0  0  0  0
    8.0841    6.7425   16.7778 Cl  0  0  0  0  0  0  0  0  0  0  0  0
   11.2435    8.7653   14.8051 Cl  0  0  0  0  0  0  0  0  0  0  0  0
    7.3151    8.4377    9.5970 P   0  0  0  0  0  0  0  0  0  0  0  0
   12.5888    5.7135   13.8363 P   0  0  0  0  0  0  0  0  0  0  0  0
    7.2836    6.6015   14.7807 Al  0  0  0  0  0  0  0  0  0  0  0  0
    9.2385    8.9872   13.9562 Al  0  0  0  0  0  0  0  0  0  0  0  0
    8.5555    7.2956   13.6613 O   0  0  0  0  0  0  0  0  0  0  0  0
    8.4471    6.4880   11.2651 N   0  0  0  0  0  0  0  0  0  0  0  0
   10.0872    5.5659   12.6163 N   0  0  0  0  0  0  0  0  0  0  0  0
    7.1847    7.0179   10.7933 C   0  0  0  0  0  0  0  0  0  0  0  0
    6.6817    6.2866   10.3562 H   0  0  0  0  0  0  0  0  0  0  0  0
    6.6585    7.3163   11.5760 H   0  0  0  0  0  0  0  0  0  0  0  0
    5.8540    9.4357   10.0268 C   0  0  0  0  0  0  0  0  0  0  0  0
    5.0432   10.0005    9.0268 C   0  0  0  0  0  0  0  0  0  0  0  0
    5.2161    9.7992    8.1151 H   0  0  0  0  0  0  0  0  0  0  0  0
    4.0055   10.8372    9.3495 C   0  0  0  0  0  0  0  0  0  0  0  0
    3.4830   11.2279    8.6591 H   0  0  0  0  0  0  0  0  0  0  0  0
    3.7256   11.1039   10.6263 C   0  0  0  0  0  0  0  0  0  0  0  0
    2.9797   11.6534   10.8340 H   0  0  0  0  0  0  0  0  0  0  0  0
    4.5210   10.5844   11.6765 C   0  0  0  0  0  0  0  0  0  0  0  0
    4.3310   10.8025   12.5818 H   0  0  0  0  0  0  0  0  0  0  0  0
    5.5852    9.7460   11.3562 C   0  0  0  0  0  0  0  0  0  0  0  0
    6.1296    9.3836   12.0462 H   0  0  0  0  0  0  0  0  0  0  0  0
    6.8520    7.7832    7.9605 C   0  0  0  0  0  0  0  0  0  0  0  0
    5.8319    6.8541    7.8004 C   0  0  0  0  0  0  0  0  0  0  0  0
    5.3760    6.5144    8.5613 H   0  0  0  0  0  0  0  0  0  0  0  0
    5.4772    6.4235    6.5327 C   0  0  0  0  0  0  0  0  0  0  0  0
    4.7749    5.7915    6.4244 H   0  0  0  0  0  0  0  0  0  0  0  0
    6.1382    6.9098    5.4321 C   0  0  0  0  0  0  0  0  0  0  0  0
    5.9005    6.6000    4.5674 H   0  0  0  0  0  0  0  0  0  0  0  0
    7.1318    7.8267    5.5671 C   0  0  0  0  0  0  0  0  0  0  0  0
    7.5730    8.1721    4.7998 H   0  0  0  0  0  0  0  0  0  0  0  0
    7.4954    8.2590    6.8485 C   0  0  0  0  0  0  0  0  0  0  0  0
    8.1966    8.8916    6.9490 H   0  0  0  0  0  0  0  0  0  0  0  0
    9.2006    5.5676   10.4981 C   0  0  0  0  0  0  0  0  0  0  0  0
   10.1899    4.9941   11.3402 C   0  0  0  0  0  0  0  0  0  0  0  0
   11.0293    4.0162   10.8482 C   0  0  0  0  0  0  0  0  0  0  0  0
   11.6670    3.5929   11.4107 H   0  0  0  0  0  0  0  0  0  0  0  0
   10.9214    3.6780    9.5348 C   0  0  0  0  0  0  0  0  0  0  0  0
   11.5128    3.0241    9.1781 H   0  0  0  0  0  0  0  0  0  0  0  0
    9.9828    4.2498    8.7019 C   0  0  0  0  0  0  0  0  0  0  0  0
    9.9428    3.9933    7.7881 H   0  0  0  0  0  0  0  0  0  0  0  0
    9.0861    5.2068    9.1916 C   0  0  0  0  0  0  0  0  0  0  0  0
    8.4223    5.5904    8.6303 H   0  0  0  0  0  0  0  0  0  0  0  0
   10.8288    5.1022   13.7702 C   0  0  0  0  0  0  0  0  0  0  0  0
   10.3598    5.3973   14.5906 H   0  0  0  0  0  0  0  0  0  0  0  0
   10.8368    4.1124   13.7684 H   0  0  0  0  0  0  0  0  0  0  0  0
   13.5476    4.3823   13.0677 C   0  0  0  0  0  0  0  0  0  0  0  0
   14.3672    4.6647   11.9809 C   0  0  0  0  0  0  0  0  0  0  0  0
   14.5251    5.5672   11.7324 H   0  0  0  0  0  0  0  0  0  0  0  0
   14.9533    3.6449   11.2624 C   0  0  0  0  0  0  0  0  0  0  0  0
   15.5195    3.8505   10.5277 H   0  0  0  0  0  0  0  0  0  0  0  0
   14.7219    2.3219   11.6079 C   0  0  0  0  0  0  0  0  0  0  0  0
   15.0800    1.6185   11.0772 H   0  0  0  0  0  0  0  0  0  0  0  0
   13.9794    2.0395   12.7108 C   0  0  0  0  0  0  0  0  0  0  0  0
   13.8609    1.1365   12.9845 H   0  0  0  0  0  0  0  0  0  0  0  0
   13.3956    3.0575   13.4361 C   0  0  0  0  0  0  0  0  0  0  0  0
   12.8802    2.8443   14.2044 H   0  0  0  0  0  0  0  0  0  0  0  0
   13.0298    5.6408   15.5962 C   0  0  0  0  0  0  0  0  0  0  0  0
   14.3408    5.4282   15.9531 C   0  0  0  0  0  0  0  0  0  0  0  0
   14.9658    5.1773   15.2826 H   0  0  0  0  0  0  0  0  0  0  0  0
   14.7792    5.5676   17.2528 C   0  0  0  0  0  0  0  0  0  0  0  0
   15.6856    5.3849   17.4697 H   0  0  0  0  0  0  0  0  0  0  0  0
   13.9244    5.9616   18.2184 C   0  0  0  0  0  0  0  0  0  0  0  0
   14.2298    6.0593   19.1136 H   0  0  0  0  0  0  0  0  0  0  0  0
   12.5804    6.2248   17.8981 C   0  0  0  0  0  0  0  0  0  0  0  0
   11.9764    6.5166   18.5720 H   0  0  0  0  0  0  0  0  0  0  0  0
   12.1397    6.0557   16.5824 C   0  0  0  0  0  0  0  0  0  0  0  0
   11.2312    6.2252   16.3595 H   0  0  0  0  0  0  0  0  0  0  0  0
    9.0200    6.4950   12.5781 B   0  0  0  0  0  0  0  0  0  0  0  0
    8.2400   10.1748   15.0859 C   0  0  0  0  0  0  0  0  0  0  0  0
    8.8592   10.5929   15.7332 H   0  0  0  0  0  0  0  0  0  0  0  0
    7.5827    9.6417   15.6023 H   0  0  0  0  0  0  0  0  0  0  0  0
    7.4976   11.2695   14.3537 C   0  0  0  0  0  0  0  0  0  0  0  0
    7.1163   11.8979   15.0017 H   0  0  0  0  0  0  0  0  0  0  0  0
    8.1179   11.7462   13.7628 H   0  0  0  0  0  0  0  0  0  0  0  0
    6.7762   10.8756   13.8183 H   0  0  0  0  0  0  0  0  0  0  0  0
    8.9671   10.0806   12.1959 Cl  0  0  0  0  0  0  0  0  0  0  0  0
  1  6  1  0  0  0  0
  2  8  1  0  0  0  0
  3  8  1  0  0  0  0
  4  8  1  0  0  0  0
  5  9  1  0  0  0  0
  6 13  1  0  0  0  0
  7 48  1  0  0  0  0
  8 10  1  0  0  0  0
  9 10  1  0  0  0  0
 10 73  1  0  0  0  0
 11 13  1  0  0  0  0
 12 39  1  0  0  0  0
 13 14  1  0  0  0  0
 15 13  1  0  0  0  0
 16  6  1  0  0  0  0
 17 16  4  0  0  0  0
 18 17  1  0  0  0  0
 19 17  4  0  0  0  0
 20 19  1  0  0  0  0
 21 19  4  0  0  0  0
 22 21  1  0  0  0  0
 23 21  4  0  0  0  0
 24 23  1  0  0  0  0
 25 16  4  0  0  0  0
 26 25  1  0  0  0  0
 27  6  1  0  0  0  0
 28 27  4  0  0  0  0
 29 28  1  0  0  0  0
 30 28  4  0  0  0  0
 31 30  1  0  0  0  0
 32 30  4  0  0  0  0
 33 32  1  0  0  0  0
 34 32  4  0  0  0  0
 35 34  1  0  0  0  0
 36 27  4  0  0  0  0
 37 36  1  0  0  0  0
 38 11  1  0  0  0  0
 39 38  4  0  0  0  0
 40 39  4  0  0  0  0
 41 40  1  0  0  0  0
 42 40  4  0  0  0  0
 43 42  1  0  0  0  0
 44 42  4  0  0  0  0
 45 44  1  0  0  0  0
 46 38  4  0  0  0  0
 47 46  1  0  0  0  0
 48 12  1  0  0  0  0
 49 48  1  0  0  0  0
 50 48  1  0  0  0  0
 51  7  1  0  0  0  0
 52 51  4  0  0  0  0
 53 52  1  0  0  0  0
 54 52  4  0  0  0  0
 55 54  1  0  0  0  0
 56 54  4  0  0  0  0
 57 56  1  0  0  0  0
 58 56  4  0  0  0  0
 59 58  1  0  0  0  0
 60 51  4  0  0  0  0
 61 60  1  0  0  0  0
 62  7  1  0  0  0  0
 63 62  4  0  0  0  0
 64 63  1  0  0  0  0
 65 63  4  0  0  0  0
 66 65  1  0  0  0  0
 67 65  4  0  0  0  0
 68 67  1  0  0  0  0
 69 67  4  0  0  0  0
 70 69  1  0  0  0  0
 71 62  4  0  0  0  0
 72 71  1  0  0  0  0
 73 11  1  0  0  0  0
 74  9  1  0  0  0  0
 75 74  1  0  0  0  0
 76 74  1  0  0  0  0
 77 74  1  0  0  0  0
 78 77  1  0  0  0  0
 79 77  1  0  0  0  0
 80 77  1  0  0  0  0
 81  1  1  0  0  0  0
 82  5  1  0  0  0  0
 83 89  1  0  0  0  0
 84 89  1  0  0  0  0
 85 89  1  0  0  0  0
 86  1  1  0  0  0  0
 87 82  1  0  0  0  0
 88  1  1  0  0  0  0
 89 91  1  0  0  0  0
 90 86  1  0  0  0  0
 91 90  1  0  0  0  0
 92 94  1  0  0  0  0
 93120  1  0  0  0  0
 94 87  1  0  0  0  0
 95 94  1  0  0  0  0
 96 94  1  0  0  0  0
 97 87  1  0  0  0  0
 98 97  4  0  0  0  0
 99 98  1  0  0  0  0
100 98  4  0  0  0  0
101100  1  0  0  0  0
102100  4  0  0  0  0
103102  1  0  0  0  0
104102  4  0  0  0  0
105104  1  0  0  0  0
106 97  4  0  0  0  0
107106  1  0  0  0  0
108 87  1  0  0  0  0
109108  4  0  0  0  0
110109  1  0  0  0  0
111109  4  0  0  0  0
112111  1  0  0  0  0
113111  4  0  0  0  0
114113  1  0  0  0  0
115113  4  0  0  0  0
116115  1  0  0  0  0
117108  4  0  0  0  0
118117  1  0  0  0  0
119 92  1  0  0  0  0
120119  4  0  0  0  0
121120  4  0  0  0  0
122121  1  0  0  0  0
123121  4  0  0  0  0
124123  1  0  0  0  0
125123  4  0  0  0  0
126125  1  0  0  0  0
127119  4  0  0  0  0
128127  1  0  0  0  0
129 88  1  0  0  0  0
130129  1  0  0  0  0
131129  1  0  0  0  0
132 88  1  0  0  0  0
133132  4  0  0  0  0
134133  1  0  0  0  0
135133  4  0  0  0  0
136135  1  0  0  0  0
137135  4  0  0  0  0
138137  1  0  0  0  0
139137  4  0  0  0  0
140139  1  0  0  0  0
141132  4  0  0  0  0
142141  1  0  0  0  0
143 88  1  0  0  0  0
144143  4  0  0  0  0
145144  1  0  0  0  0
146144  4  0  0  0  0
147146  1  0  0  0  0
148146  4  0  0  0  0
149148  1  0  0  0  0
150148  4  0  0  0  0
151150  1  0  0  0  0
152143  4  0  0  0  0
153152  1  0  0  0  0
154 91  1  0  0  0  0
155 90  1  0  0  0  0
156155  1  0  0  0  0
157155  1  0  0  0  0
158155  1  0  0  0  0
159158  1  0  0  0  0
160158  1  0  0  0  0
161158  1  0  0  0  0
162 82  1  0  0  0  0
  7 82  1  0  0  0  0
  9 81  1  0  0  0  0
 12 73  1  0  0  0  0
 23 25  4  0  0  0  0
 34 36  4  0  0  0  0
 44 46  4  0  0  0  0
 58 60  4  0  0  0  0
 69 71  4  0  0  0  0
 90162  1  0  0  0  0
 92154  1  0  0  0  0
 93129  1  0  0  0  0
 93154  1  0  0  0  0
104106  4  0  0  0  0
115117  4  0  0  0  0
125127  4  0  0  0  0
139141  4  0  0  0  0
150152  4  0  0  0  0
M  END
$$$$
SETYID

From CSD data. Using bond type 'Any'. No disordered atoms. Largest molecule.
154162  0  0  0  0  0  0  0  0999 V2000
    4.3221   14.3589    6.6114 Br  0  0  0  0  0  0  0  0  0  0  0  0
    1.4104   10.9351    7.2955 Br  0  0  0  0  0  0  0  0  0  0  0  0
    3.5663   14.3224    8.9398 Ni  0  0  0  0  0  0  0  0  0  0  0  0
    3.0603   11.3227    9.0692 Ni  0  0  0  0  0  0  0  0  0  0  0  0
    2.0010   10.2220   10.9352 P   0  0  0  0  0  0  0  0  0  0  0  0
    0.8150   16.0156    8.0976 P   0  0  0  0  0  0  0  0  0  0  0  0
    5.2649   15.5683   10.1746 P   0  0  0  0  0  0  0  0  0  0  0  0
    5.4587    9.6016    7.4280 P   0  0  0  0  0  0  0  0  0  0  0  0
    2.1618   13.0934    9.5956 O   0  0  0  0  0  0  0  0  0  0  0  0
    2.1838   15.8340    8.7116 O   0  0  0  0  0  0  0  0  0  0  0  0
    4.5894   12.5717    9.2340 O   0  0  0  0  0  0  0  0  0  0  0  0
    4.3670    9.8352    8.4340 O   0  0  0  0  0  0  0  0  0  0  0  0
    0.1142   12.2042   10.6711 N   0  0  0  0  0  0  0  0  0  0  0  0
   -0.2017   13.6126    8.8849 N   0  0  0  0  0  0  0  0  0  0  0  0
    6.8308   13.3129    9.9768 N   0  0  0  0  0  0  0  0  0  0  0  0
    6.7756   11.8702    8.1956 N   0  0  0  0  0  0  0  0  0  0  0  0
   -1.2543   12.3018   10.4293 C   0  0  0  0  0  0  0  0  0  0  0  0
   -1.4422   13.1365    9.2962 C   0  0  0  0  0  0  0  0  0  0  0  0
   -2.7074   13.3247    8.7627 C   0  0  0  0  0  0  0  0  0  0  0  0
   -2.8326   13.8586    7.9870 H   0  0  0  0  0  0  0  0  0  0  0  0
   -3.7881   12.7164    9.3872 C   0  0  0  0  0  0  0  0  0  0  0  0
   -4.6614   12.8325    9.0314 H   0  0  0  0  0  0  0  0  0  0  0  0
   -3.6089   11.9415   10.5227 C   0  0  0  0  0  0  0  0  0  0  0  0
   -4.3652   11.5514   10.9456 H   0  0  0  0  0  0  0  0  0  0  0  0
   -2.3407   11.7249   11.0562 C   0  0  0  0  0  0  0  0  0  0  0  0
   -2.2257   11.1923   11.8347 H   0  0  0  0  0  0  0  0  0  0  0  0
    0.7521   11.3747   11.6795 C   0  0  0  0  0  0  0  0  0  0  0  0
    0.0610   10.8463   12.1525 H   0  0  0  0  0  0  0  0  0  0  0  0
    1.1995   11.9556   12.3449 H   0  0  0  0  0  0  0  0  0  0  0  0
    0.0240   14.4184    7.7032 C   0  0  0  0  0  0  0  0  0  0  0  0
   -0.8423   14.5869    7.2544 H   0  0  0  0  0  0  0  0  0  0  0  0
    0.6002   13.9173    7.0731 H   0  0  0  0  0  0  0  0  0  0  0  0
    1.0530    8.6243   10.6324 C   0  0  0  0  0  0  0  0  0  0  0  0
   -0.2541    8.9949    9.9419 C   0  0  0  0  0  0  0  0  0  0  0  0
   -0.8275    9.4835   10.5684 H   0  0  0  0  0  0  0  0  0  0  0  0
   -0.7113    8.1793    9.6482 H   0  0  0  0  0  0  0  0  0  0  0  0
   -0.0638    9.5605    9.1641 H   0  0  0  0  0  0  0  0  0  0  0  0
    1.8720    7.7523    9.6776 C   0  0  0  0  0  0  0  0  0  0  0  0
    2.1018    8.2702    8.8775 H   0  0  0  0  0  0  0  0  0  0  0  0
    1.3454    6.9676    9.4182 H   0  0  0  0  0  0  0  0  0  0  0  0
    2.6940    7.4609   10.1247 H   0  0  0  0  0  0  0  0  0  0  0  0
    0.7149    7.8474   11.9113 C   0  0  0  0  0  0  0  0  0  0  0  0
    1.5439    7.5863   12.3634 H   0  0  0  0  0  0  0  0  0  0  0  0
    0.2023    7.0447   11.6794 H   0  0  0  0  0  0  0  0  0  0  0  0
    0.1820    8.4146   12.5065 H   0  0  0  0  0  0  0  0  0  0  0  0
    3.2210   10.0152   12.3401 C   0  0  0  0  0  0  0  0  0  0  0  0
    4.0752   11.2913   12.3027 C   0  0  0  0  0  0  0  0  0  0  0  0
    4.5218   11.3607   11.4334 H   0  0  0  0  0  0  0  0  0  0  0  0
    4.7497   11.2537   13.0138 H   0  0  0  0  0  0  0  0  0  0  0  0
    3.5012   12.0735   12.4391 H   0  0  0  0  0  0  0  0  0  0  0  0
    4.1419    8.8242   12.0497 C   0  0  0  0  0  0  0  0  0  0  0  0
    3.6426    7.9891   12.1657 H   0  0  0  0  0  0  0  0  0  0  0  0
    4.9009    8.8396   12.6701 H   0  0  0  0  0  0  0  0  0  0  0  0
    4.4717    8.8829   11.1290 H   0  0  0  0  0  0  0  0  0  0  0  0
    2.6268    9.8762   13.7411 C   0  0  0  0  0  0  0  0  0  0  0  0
    2.0101   10.6197   13.9095 H   0  0  0  0  0  0  0  0  0  0  0  0
    3.3465    9.8919   14.4049 H   0  0  0  0  0  0  0  0  0  0  0  0
    2.1396    9.0279   13.8065 H   0  0  0  0  0  0  0  0  0  0  0  0
   -0.2310   16.9162    9.3436 C   0  0  0  0  0  0  0  0  0  0  0  0
   -0.0381   16.2322   10.7197 C   0  0  0  0  0  0  0  0  0  0  0  0
   -0.4401   15.3390   10.6996 H   0  0  0  0  0  0  0  0  0  0  0  0
   -0.4700   16.7701   11.4151 H   0  0  0  0  0  0  0  0  0  0  0  0
    0.9198   16.1549   10.9140 H   0  0  0  0  0  0  0  0  0  0  0  0
   -1.7328   16.9105    9.0207 C   0  0  0  0  0  0  0  0  0  0  0  0
   -1.8843   17.3622    8.1638 H   0  0  0  0  0  0  0  0  0  0  0  0
   -2.2210   17.3802    9.7282 H   0  0  0  0  0  0  0  0  0  0  0  0
   -2.0509   15.9854    8.9623 H   0  0  0  0  0  0  0  0  0  0  0  0
    0.2919   18.3560    9.4732 C   0  0  0  0  0  0  0  0  0  0  0  0
    1.2594   18.3400    9.6248 H   0  0  0  0  0  0  0  0  0  0  0  0
   -0.1507   18.7972   10.2279 H   0  0  0  0  0  0  0  0  0  0  0  0
    0.0984   18.8489    8.6480 H   0  0  0  0  0  0  0  0  0  0  0  0
    0.9195   16.9007    6.4680 C   0  0  0  0  0  0  0  0  0  0  0  0
   -0.3530   17.6725    6.0928 C   0  0  0  0  0  0  0  0  0  0  0  0
   -1.1249   17.0705    6.1358 H   0  0  0  0  0  0  0  0  0  0  0  0
   -0.2645   18.0259    5.1829 H   0  0  0  0  0  0  0  0  0  0  0  0
   -0.4818   18.4144    6.7201 H   0  0  0  0  0  0  0  0  0  0  0  0
    2.1193   17.8644    6.5091 C   0  0  0  0  0  0  0  0  0  0  0  0
    1.9809   18.5275    7.2177 H   0  0  0  0  0  0  0  0  0  0  0  0
    2.2018   18.3208    5.6462 H   0  0  0  0  0  0  0  0  0  0  0  0
    2.9385   17.3583    6.6913 H   0  0  0  0  0  0  0  0  0  0  0  0
    1.1690   15.8621    5.3511 C   0  0  0  0  0  0  0  0  0  0  0  0
    1.9428   15.3088    5.5867 H   0  0  0  0  0  0  0  0  0  0  0  0
    1.3447   16.3266    4.5062 H   0  0  0  0  0  0  0  0  0  0  0  0
    0.3779   15.2923    5.2522 H   0  0  0  0  0  0  0  0  0  0  0  0
    8.1453   13.0270    9.6078 C   0  0  0  0  0  0  0  0  0  0  0  0
    8.1124   12.1797    8.4698 C   0  0  0  0  0  0  0  0  0  0  0  0
    9.2833   11.8076    7.8515 C   0  0  0  0  0  0  0  0  0  0  0  0
    9.2679   11.2579    7.0767 H   0  0  0  0  0  0  0  0  0  0  0  0
   10.4991   12.2542    8.3850 C   0  0  0  0  0  0  0  0  0  0  0  0
   11.3156   12.0023    7.9701 H   0  0  0  0  0  0  0  0  0  0  0  0
   10.5213   13.0551    9.5044 C   0  0  0  0  0  0  0  0  0  0  0  0
   11.3564   13.3393    9.8590 H   0  0  0  0  0  0  0  0  0  0  0  0
    9.3352   13.4573   10.1301 C   0  0  0  0  0  0  0  0  0  0  0  0
    9.3564   14.0152   10.8990 H   0  0  0  0  0  0  0  0  0  0  0  0
    6.4570   14.3455   10.9216 C   0  0  0  0  0  0  0  0  0  0  0  0
    7.2705   14.8239   11.2208 H   0  0  0  0  0  0  0  0  0  0  0  0
    6.0402   13.9263   11.7152 H   0  0  0  0  0  0  0  0  0  0  0  0
    6.3339   11.1576    7.0189 C   0  0  0  0  0  0  0  0  0  0  0  0
    7.1189   10.9485    6.4531 H   0  0  0  0  0  0  0  0  0  0  0  0
    5.7293   11.7410    6.4951 H   0  0  0  0  0  0  0  0  0  0  0  0
    4.5580   16.3537   11.7306 C   0  0  0  0  0  0  0  0  0  0  0  0
    3.5594   15.3180   12.2828 C   0  0  0  0  0  0  0  0  0  0  0  0
    2.9188   15.0758   11.5814 H   0  0  0  0  0  0  0  0  0  0  0  0
    3.0782   15.7021   13.0454 H   0  0  0  0  0  0  0  0  0  0  0  0
    4.0448   14.5177   12.5722 H   0  0  0  0  0  0  0  0  0  0  0  0
    3.7789   17.6141   11.3479 C   0  0  0  0  0  0  0  0  0  0  0  0
    4.4066   18.3200   11.0878 H   0  0  0  0  0  0  0  0  0  0  0  0
    3.2470   17.9151   12.1137 H   0  0  0  0  0  0  0  0  0  0  0  0
    3.1831   17.4137   10.5953 H   0  0  0  0  0  0  0  0  0  0  0  0
    5.5701   16.6664   12.8437 C   0  0  0  0  0  0  0  0  0  0  0  0
    6.0405   15.8453   13.0966 H   0  0  0  0  0  0  0  0  0  0  0  0
    5.0965   17.0252   13.6232 H   0  0  0  0  0  0  0  0  0  0  0  0
    6.2160   17.3280   12.5205 H   0  0  0  0  0  0  0  0  0  0  0  0
    6.3296   16.7905    9.2114 C   0  0  0  0  0  0  0  0  0  0  0  0
    5.4099   17.6450    8.3327 C   0  0  0  0  0  0  0  0  0  0  0  0
    4.8856   17.0616    7.7452 H   0  0  0  0  0  0  0  0  0  0  0  0
    5.9527   18.2534    7.7878 H   0  0  0  0  0  0  0  0  0  0  0  0
    4.8061   18.1659    8.9008 H   0  0  0  0  0  0  0  0  0  0  0  0
    7.2052   17.6980   10.0827 C   0  0  0  0  0  0  0  0  0  0  0  0
    6.6323   18.2628   10.6439 H   0  0  0  0  0  0  0  0  0  0  0  0
    7.7607   18.2649    9.5091 H   0  0  0  0  0  0  0  0  0  0  0  0
    7.7796   17.1472   10.6543 H   0  0  0  0  0  0  0  0  0  0  0  0
    7.2620   15.9793    8.2878 C   0  0  0  0  0  0  0  0  0  0  0  0
    7.9589   15.5477    8.8247 H   0  0  0  0  0  0  0  0  0  0  0  0
    7.6775   16.5800    7.6346 H   0  0  0  0  0  0  0  0  0  0  0  0
    6.7410   15.2953    7.8178 H   0  0  0  0  0  0  0  0  0  0  0  0
    6.6627    8.4121    8.1819 C   0  0  0  0  0  0  0  0  0  0  0  0
    5.9510    7.0784    8.4287 C   0  0  0  0  0  0  0  0  0  0  0  0
    5.1000    7.2417    8.8855 H   0  0  0  0  0  0  0  0  0  0  0  0
    6.5169    6.5048    8.9870 H   0  0  0  0  0  0  0  0  0  0  0  0
    5.7823    6.6350    7.5712 H   0  0  0  0  0  0  0  0  0  0  0  0
    7.1193    8.9977    9.5318 C   0  0  0  0  0  0  0  0  0  0  0  0
    7.7479    9.7320    9.3740 H   0  0  0  0  0  0  0  0  0  0  0  0
    7.5579    8.2988   10.0601 H   0  0  0  0  0  0  0  0  0  0  0  0
    6.3393    9.3354   10.0216 H   0  0  0  0  0  0  0  0  0  0  0  0
    7.9354    8.1742    7.3392 C   0  0  0  0  0  0  0  0  0  0  0  0
    7.6975    7.7042    6.5129 H   0  0  0  0  0  0  0  0  0  0  0  0
    8.5707    7.6316    7.8521 H   0  0  0  0  0  0  0  0  0  0  0  0
    8.3469    9.0359    7.1180 H   0  0  0  0  0  0  0  0  0  0  0  0
    4.7556    9.0201    5.8048 C   0  0  0  0  0  0  0  0  0  0  0  0
    3.5639    8.0985    6.1027 C   0  0  0  0  0  0  0  0  0  0  0  0
    3.8700    7.3276    6.6248 H   0  0  0  0  0  0  0  0  0  0  0  0
    3.1728    7.7878    5.2598 H   0  0  0  0  0  0  0  0  0  0  0  0
    2.8892    8.5922    6.6139 H   0  0  0  0  0  0  0  0  0  0  0  0
    4.2278   10.2511    5.0470 C   0  0  0  0  0  0  0  0  0  0  0  0
    3.7347   10.8293    5.6658 H   0  0  0  0  0  0  0  0  0  0  0  0
    3.6309    9.9599    4.3262 H   0  0  0  0  0  0  0  0  0  0  0  0
    4.9815   10.7483    4.6659 H   0  0  0  0  0  0  0  0  0  0  0  0
    5.7606    8.2967    4.8999 C   0  0  0  0  0  0  0  0  0  0  0  0
    6.5411    8.8704    4.7543 H   0  0  0  0  0  0  0  0  0  0  0  0
    5.3376    8.0959    4.0383 H   0  0  0  0  0  0  0  0  0  0  0  0
    6.0428    7.4616    5.3272 H   0  0  0  0  0  0  0  0  0  0  0  0
    0.8318   13.0031    9.7013 B   0  0  0  0  0  0  0  0  0  0  0  0
    5.9162   12.5683    9.1267 B   0  0  0  0  0  0  0  0  0  0  0  0
  1  3  1  0  0  0  0
  2  4  1  0  0  0  0
  3  7  1  0  0  0  0
  4  5  1  0  0  0  0
  5 27  1  0  0  0  0
  6 10  2  0  0  0  0
  7 95  1  0  0  0  0
  8 12  2  0  0  0  0
  9  3  1  0  0  0  0
 10  3  1  0  0  0  0
 11  3  1  0  0  0  0
 12  4  1  0  0  0  0
 13 17  1  0  0  0  0
 14 18  1  0  0  0  0
 15 85  1  0  0  0  0
 16 86  1  0  0  0  0
 17 18  4  0  0  0  0
 18 19  4  0  0  0  0
 19 20  1  0  0  0  0
 21 19  4  0  0  0  0
 22 21  1  0  0  0  0
 23 21  4  0  0  0  0
 24 23  1  0  0  0  0
 25 17  4  0  0  0  0
 26 25  1  0  0  0  0
 27 13  1  0  0  0  0
 28 27  1  0  0  0  0
 29 27  1  0  0  0  0
 30  6  1  0  0  0  0
 31 30  1  0  0  0  0
 32 30  1  0  0  0  0
 33  5  1  0  0  0  0
 34 33  1  0  0  0  0
 35 34  1  0  0  0  0
 36 34  1  0  0  0  0
 37 34  1  0  0  0  0
 38 33  1  0  0  0  0
 39 38  1  0  0  0  0
 40 38  1  0  0  0  0
 41 38  1  0  0  0  0
 42 33  1  0  0  0  0
 43 42  1  0  0  0  0
 44 42  1  0  0  0  0
 45 42  1  0  0  0  0
 46  5  1  0  0  0  0
 47 46  1  0  0  0  0
 48 47  1  0  0  0  0
 49 47  1  0  0  0  0
 50 47  1  0  0  0  0
 51 46  1  0  0  0  0
 52 51  1  0  0  0  0
 53 51  1  0  0  0  0
 54 51  1  0  0  0  0
 55 46  1  0  0  0  0
 56 55  1  0  0  0  0
 57 55  1  0  0  0  0
 58 55  1  0  0  0  0
 59  6  1  0  0  0  0
 60 59  1  0  0  0  0
 61 60  1  0  0  0  0
 62 60  1  0  0  0  0
 63 60  1  0  0  0  0
 64 59  1  0  0  0  0
 65 64  1  0  0  0  0
 66 64  1  0  0  0  0
 67 64  1  0  0  0  0
 68 59  1  0  0  0  0
 69 68  1  0  0  0  0
 70 68  1  0  0  0  0
 71 68  1  0  0  0  0
 72  6  1  0  0  0  0
 73 72  1  0  0  0  0
 74 73  1  0  0  0  0
 75 73  1  0  0  0  0
 76 73  1  0  0  0  0
 77 72  1  0  0  0  0
 78 77  1  0  0  0  0
 79 77  1  0  0  0  0
 80 77  1  0  0  0  0
 81 72  1  0  0  0  0
 82 81  1  0  0  0  0
 83 81  1  0  0  0  0
 84 81  1  0  0  0  0
 85 86  4  0  0  0  0
 86 87  4  0  0  0  0
 87 88  1  0  0  0  0
 89 87  4  0  0  0  0
 90 89  1  0  0  0  0
 91 89  4  0  0  0  0
 92 91  1  0  0  0  0
 93 85  4  0  0  0  0
 94 93  1  0  0  0  0
 95 15  1  0  0  0  0
 96 95  1  0  0  0  0
 97 95  1  0  0  0  0
 98  8  1  0  0  0  0
 99 98  1  0  0  0  0
100 98  1  0  0  0  0
101  7  1  0  0  0  0
102101  1  0  0  0  0
103102  1  0  0  0  0
104102  1  0  0  0  0
105102  1  0  0  0  0
106101  1  0  0  0  0
107106  1  0  0  0  0
108106  1  0  0  0  0
109106  1  0  0  0  0
110101  1  0  0  0  0
111110  1  0  0  0  0
112110  1  0  0  0  0
113110  1  0  0  0  0
114  7  1  0  0  0  0
115114  1  0  0  0  0
116115  1  0  0  0  0
117115  1  0  0  0  0
118115  1  0  0  0  0
119114  1  0  0  0  0
120119  1  0  0  0  0
121119  1  0  0  0  0
122119  1  0  0  0  0
123114  1  0  0  0  0
124123  1  0  0  0  0
125123  1  0  0  0  0
126123  1  0  0  0  0
127  8  1  0  0  0  0
128127  1  0  0  0  0
129128  1  0  0  0  0
130128  1  0  0  0  0
131128  1  0  0  0  0
132127  1  0  0  0  0
133132  1  0  0  0  0
134132  1  0  0  0  0
135132  1  0  0  0  0
136127  1  0  0  0  0
137136  1  0  0  0  0
138136  1  0  0  0  0
139136  1  0  0  0  0
140  8  1  0  0  0  0
141140  1  0  0  0  0
142141  1  0  0  0  0
143141  1  0  0  0  0
144141  1  0  0  0  0
145140  1  0  0  0  0
146145  1  0  0  0  0
147145  1  0  0  0  0
148145  1  0  0  0  0
149140  1  0  0  0  0
150149  1  0  0  0  0
151149  1  0  0  0  0
152149  1  0  0  0  0
153  9  1  0  0  0  0
154 11  1  0  0  0  0
  4  9  1  0  0  0  0
  4 11  1  0  0  0  0
 13153  1  0  0  0  0
 14 30  1  0  0  0  0
 14153  1  0  0  0  0
 15154  1  0  0  0  0
 16 98  1  0  0  0  0
 16154  1  0  0  0  0
 23 25  4  0  0  0  0
 91 93  4  0  0  0  0
M  END
$$$$
SEWRIV

From CSD data. Using bond type 'Any'. No disordered atoms. Largest molecule.
 91117  0  0  0  0  0  0  0  0999 V2000
    1.9049    5.6768    9.2165 Rh  0  0  0  0  0  0  0  0  0  0  0  0
    1.7610    6.1039    6.5632 Rh  0  0  0  0  0  0  0  0  0  0  0  0
    2.6603    3.4944    9.0415 P   0  0  0  0  0  0  0  0  0  0  0  0
    2.1344    6.4919    4.4002 P   0  0  0  0  0  0  0  0  0  0  0  0
    0.1663    5.1143    9.2907 C   0  0  0  0  0  0  0  0  0  0  0  0
   -0.9559    4.8330    9.3208 O   0  0  0  0  0  0  0  0  0  0  0  0
    0.2552    5.2313    6.1215 C   0  0  0  0  0  0  0  0  0  0  0  0
   -0.7252    4.7119    5.8526 O   0  0  0  0  0  0  0  0  0  0  0  0
    1.1570    1.2955   10.0453 C   0  0  0  0  0  0  0  0  0  0  0  0
    0.0755    0.4168    9.9769 C   0  0  0  0  0  0  0  0  0  0  0  0
   -0.7832    0.4517    8.8780 C   0  0  0  0  0  0  0  0  0  0  0  0
   -0.5604    1.3653    7.8475 C   0  0  0  0  0  0  0  0  0  0  0  0
    0.5211    2.2440    7.9159 C   0  0  0  0  0  0  0  0  0  0  0  0
    1.3798    2.2091    9.0148 C   0  0  0  0  0  0  0  0  0  0  0  0
    4.3993    3.9625    6.8820 C   0  0  0  0  0  0  0  0  0  0  0  0
    5.2027    3.5621    5.8144 C   0  0  0  0  0  0  0  0  0  0  0  0
    5.3094    2.2091    5.4898 C   0  0  0  0  0  0  0  0  0  0  0  0
    4.6094    1.2565    6.2317 C   0  0  0  0  0  0  0  0  0  0  0  0
    3.8044    1.6569    7.2981 C   0  0  0  0  0  0  0  0  0  0  0  0
    3.6993    3.0098    7.6238 C   0  0  0  0  0  0  0  0  0  0  0  0
    3.1470    3.1720   11.7690 C   0  0  0  0  0  0  0  0  0  0  0  0
    3.9356    2.9462   12.8969 C   0  0  0  0  0  0  0  0  0  0  0  0
    5.3008    2.6978   12.7554 C   0  0  0  0  0  0  0  0  0  0  0  0
    5.8774    2.6752   11.4862 C   0  0  0  0  0  0  0  0  0  0  0  0
    5.0889    2.9010   10.3571 C   0  0  0  0  0  0  0  0  0  0  0  0
    3.7237    3.1495   10.4986 C   0  0  0  0  0  0  0  0  0  0  0  0
    1.8123    8.5450    2.5281 C   0  0  0  0  0  0  0  0  0  0  0  0
    1.2087    9.6927    2.0169 C   0  0  0  0  0  0  0  0  0  0  0  0
    0.1306   10.2737    2.6881 C   0  0  0  0  0  0  0  0  0  0  0  0
   -0.3422    9.7030    3.8705 C   0  0  0  0  0  0  0  0  0  0  0  0
    0.2631    8.5553    4.3816 C   0  0  0  0  0  0  0  0  0  0  0  0
    1.3393    7.9763    3.7116 C   0  0  0  0  0  0  0  0  0  0  0  0
    2.1036    3.8249    3.6838 C   0  0  0  0  0  0  0  0  0  0  0  0
    1.8463    2.7286    2.8573 C   0  0  0  0  0  0  0  0  0  0  0  0
    1.1802    2.9113    1.6460 C   0  0  0  0  0  0  0  0  0  0  0  0
    0.7716    4.1883    1.2589 C   0  0  0  0  0  0  0  0  0  0  0  0
    1.0289    5.2826    2.0853 C   0  0  0  0  0  0  0  0  0  0  0  0
    1.6950    5.0999    3.2967 C   0  0  0  0  0  0  0  0  0  0  0  0
    4.6233    6.0012    3.1425 C   0  0  0  0  0  0  0  0  0  0  0  0
    5.9611    6.2928    2.8759 C   0  0  0  0  0  0  0  0  0  0  0  0
    6.5702    7.3932    3.4787 C   0  0  0  0  0  0  0  0  0  0  0  0
    5.8413    8.2042    4.3492 C   0  0  0  0  0  0  0  0  0  0  0  0
    4.5035    7.9126    4.6158 C   0  0  0  0  0  0  0  0  0  0  0  0
    3.8944    6.8122    4.0130 C   0  0  0  0  0  0  0  0  0  0  0  0
    1.7794    7.4035   10.6794 C   0  0  0  0  0  0  0  0  0  0  0  0
    3.2529    6.6911   10.8057 C   0  0  0  0  0  0  0  0  0  0  0  0
    3.9295    6.5761    9.3035 B   0  0  0  0  0  0  0  0  0  0  0  0
    2.9181    7.3296    8.1049 B   0  0  0  0  0  0  0  0  0  0  0  0
    1.4647    7.8942    8.9789 B   0  0  0  0  0  0  0  0  0  0  0  0
    2.7705    8.9946    8.6230 B   0  0  0  0  0  0  0  0  0  0  0  0
    2.0221    9.0377   10.1949 B   0  0  0  0  0  0  0  0  0  0  0  0
    3.1431    8.3109   11.3424 B   0  0  0  0  0  0  0  0  0  0  0  0
    4.5082    7.7710   10.4626 B   0  0  0  0  0  0  0  0  0  0  0  0
    4.3039    8.1857    8.7714 B   0  0  0  0  0  0  0  0  0  0  0  0
    3.7352    9.2841   10.0476 B   0  0  0  0  0  0  0  0  0  0  0  0
    1.7479    1.2709   10.8011 H   0  0  0  0  0  0  0  0  0  0  0  0
   -0.0776   -0.2115   10.6852 H   0  0  0  0  0  0  0  0  0  0  0  0
   -1.5272   -0.1519    8.8305 H   0  0  0  0  0  0  0  0  0  0  0  0
   -1.1512    1.3899    7.0906 H   0  0  0  0  0  0  0  0  0  0  0  0
    0.6743    2.8743    7.2065 H   0  0  0  0  0  0  0  0  0  0  0  0
    4.3266    4.8925    7.1057 H   0  0  0  0  0  0  0  0  0  0  0  0
    5.6841    4.2171    5.3043 H   0  0  0  0  0  0  0  0  0  0  0  0
    5.8619    1.9340    4.7549 H   0  0  0  0  0  0  0  0  0  0  0  0
    4.6820    0.3264    6.0079 H   0  0  0  0  0  0  0  0  0  0  0  0
    3.3246    1.0019    7.8093 H   0  0  0  0  0  0  0  0  0  0  0  0
    2.5543    8.1467    2.0668 H   0  0  0  0  0  0  0  0  0  0  0  0
    1.5342   10.0848    1.2032 H   0  0  0  0  0  0  0  0  0  0  0  0
   -0.2842   11.0642    2.3357 H   0  0  0  0  0  0  0  0  0  0  0  0
   -1.0825   10.1033    4.3318 H   0  0  0  0  0  0  0  0  0  0  0  0
   -0.0624    8.1631    5.1954 H   0  0  0  0  0  0  0  0  0  0  0  0
    2.5623    3.6997    4.5173 H   0  0  0  0  0  0  0  0  0  0  0  0
    2.1274    1.8519    3.1239 H   0  0  0  0  0  0  0  0  0  0  0  0
    1.0029    2.1578    1.0769 H   0  0  0  0  0  0  0  0  0  0  0  0
    0.3129    4.3136    0.4254 H   0  0  0  0  0  0  0  0  0  0  0  0
    0.7477    6.1614    1.8187 H   0  0  0  0  0  0  0  0  0  0  0  0
    4.2044    5.2457    2.7275 H   0  0  0  0  0  0  0  0  0  0  0  0
    6.4629    5.7343    2.2766 H   0  0  0  0  0  0  0  0  0  0  0  0
    7.4909    7.5924    3.2943 H   0  0  0  0  0  0  0  0  0  0  0  0
    6.2602    8.9618    4.7642 H   0  0  0  0  0  0  0  0  0  0  0  0
    4.0017    8.4711    5.2151 H   0  0  0  0  0  0  0  0  0  0  0  0
    1.0481    7.1489   11.2462 H   0  0  0  0  0  0  0  0  0  0  0  0
    3.3997    6.0033   11.4618 H   0  0  0  0  0  0  0  0  0  0  0  0
    4.5567    5.7199    9.0148 H   0  0  0  0  0  0  0  0  0  0  0  0
    3.2257    7.2782    6.8646 H   0  0  0  0  0  0  0  0  0  0  0  0
    0.4772    7.9414    8.4955 H   0  0  0  0  0  0  0  0  0  0  0  0
    2.6138    9.7912    7.8823 H   0  0  0  0  0  0  0  0  0  0  0  0
    1.3537    9.8590   10.5183 H   0  0  0  0  0  0  0  0  0  0  0  0
    3.2280    8.6271   12.3949 H   0  0  0  0  0  0  0  0  0  0  0  0
    5.5000    7.7443   10.9529 H   0  0  0  0  0  0  0  0  0  0  0  0
    5.1698    8.4321    8.1362 H   0  0  0  0  0  0  0  0  0  0  0  0
    4.2232   10.2511   10.2528 H   0  0  0  0  0  0  0  0  0  0  0  0
  1  2  1  0  0  0  0
  2  4  1  0  0  0  0
  3  1  1  0  0  0  0
  4 32  1  0  0  0  0
  5  1  1  0  0  0  0
  6  5  3  0  0  0  0
  7  2  1  0  0  0  0
  8  7  3  0  0  0  0
  9 10  4  0  0  0  0
 10 11  4  0  0  0  0
 11 12  4  0  0  0  0
 12 13  4  0  0  0  0
 13 14  4  0  0  0  0
 14  3  1  0  0  0  0
 15 16  4  0  0  0  0
 16 17  4  0  0  0  0
 17 18  4  0  0  0  0
 18 19  4  0  0  0  0
 19 20  4  0  0  0  0
 20  3  1  0  0  0  0
 21 22  4  0  0  0  0
 22 23  4  0  0  0  0
 23 24  4  0  0  0  0
 24 25  4  0  0  0  0
 25 26  4  0  0  0  0
 26  3  1  0  0  0  0
 27 28  4  0  0  0  0
 28 29  4  0  0  0  0
 29 30  4  0  0  0  0
 30 31  4  0  0  0  0
 31 32  4  0  0  0  0
 32 27  4  0  0  0  0
 33 34  4  0  0  0  0
 34 35  4  0  0  0  0
 35 36  4  0  0  0  0
 36 37  4  0  0  0  0
 37 38  4  0  0  0  0
 38  4  1  0  0  0  0
 39 40  4  0  0  0  0
 40 41  4  0  0  0  0
 41 42  4  0  0  0  0
 42 43  4  0  0  0  0
 43 44  4  0  0  0  0
 44  4  1  0  0  0  0
 45  1  1  0  0  0  0
 46  1  1  0  0  0  0
 47  1  1  0  0  0  0
 48  1  1  0  0  0  0
 49  1  1  0  0  0  0
 50 48  1  0  0  0  0
 51 45  1  0  0  0  0
 52 45  1  0  0  0  0
 53 46  1  0  0  0  0
 54 47  1  0  0  0  0
 55 50  1  0  0  0  0
 56  9  1  0  0  0  0
 57 10  1  0  0  0  0
 58 11  1  0  0  0  0
 59 12  1  0  0  0  0
 60 13  1  0  0  0  0
 61 15  1  0  0  0  0
 62 16  1  0  0  0  0
 63 17  1  0  0  0  0
 64 18  1  0  0  0  0
 65 19  1  0  0  0  0
 66 27  1  0  0  0  0
 67 28  1  0  0  0  0
 68 29  1  0  0  0  0
 69 30  1  0  0  0  0
 70 31  1  0  0  0  0
 71 33  1  0  0  0  0
 72 34  1  0  0  0  0
 73 35  1  0  0  0  0
 74 36  1  0  0  0  0
 75 37  1  0  0  0  0
 76 39  1  0  0  0  0
 77 40  1  0  0  0  0
 78 41  1  0  0  0  0
 79 42  1  0  0  0  0
 80 43  1  0  0  0  0
 81 45  1  0  0  0  0
 82 46  1  0  0  0  0
 83 47  1  0  0  0  0
 84  2  1  0  0  0  0
 85 49  1  0  0  0  0
 86 50  1  0  0  0  0
 87 51  1  0  0  0  0
 88 52  1  0  0  0  0
 89 53  1  0  0  0  0
 90 54  1  0  0  0  0
 91 55  1  0  0  0  0
  2 48  1  0  0  0  0
  9 14  4  0  0  0  0
 15 20  4  0  0  0  0
 21 26  4  0  0  0  0
 33 38  4  0  0  0  0
 39 44  4  0  0  0  0
 45 46  1  0  0  0  0
 45 49  1  0  0  0  0
 46 47  1  0  0  0  0
 46 52  1  0  0  0  0
 47 48  1  0  0  0  0
 47 53  1  0  0  0  0
 48 49  1  0  0  0  0
 48 54  1  0  0  0  0
 48 84  1  0  0  0  0
 49 50  1  0  0  0  0
 49 51  1  0  0  0  0
 50 51  1  0  0  0  0
 50 54  1  0  0  0  0
 51 52  1  0  0  0  0
 51 55  1  0  0  0  0
 52 53  1  0  0  0  0
 52 55  1  0  0  0  0
 53 54  1  0  0  0  0
 53 55  1  0  0  0  0
 54 55  1  0  0  0  0
M  END
$$$$
SEWROB

From CSD data. Using bond type 'Any'. No disordered atoms. Largest molecule.
 98123  0  0  0  0  0  0  0  0999 V2000
   10.7780    3.8521    3.5764 Ir  0  0  0  0  0  0  0  0  0  0  0  0
    9.9306    1.3517    4.4537 Rh  0  0  0  0  0  0  0  0  0  0  0  0
    7.7167    1.1776    3.6165 P   0  0  0  0  0  0  0  0  0  0  0  0
   11.2993    6.0799    3.7877 P   0  0  0  0  0  0  0  0  0  0  0  0
    9.8114    4.2478    1.9179 C   0  0  0  0  0  0  0  0  0  0  0  0
   10.5257    0.4176    2.9889 C   0  0  0  0  0  0  0  0  0  0  0  0
   12.4762    3.2475    2.9265 C   0  0  0  0  0  0  0  0  0  0  0  0
   10.9221   -0.1308    2.0652 O   0  0  0  0  0  0  0  0  0  0  0  0
   13.5395    2.8931    2.5775 O   0  0  0  0  0  0  0  0  0  0  0  0
    9.2642    4.5506    1.0038 O   0  0  0  0  0  0  0  0  0  0  0  0
    9.5224    0.9123    6.6262 C   0  0  0  0  0  0  0  0  0  0  0  0
    9.6742    2.4769    6.2980 C   0  0  0  0  0  0  0  0  0  0  0  0
   11.1902    2.8810    5.4287 B   0  0  0  0  0  0  0  0  0  0  0  0
   11.9675    1.2184    5.3134 B   0  0  0  0  0  0  0  0  0  0  0  0
   10.8132    0.0311    6.0242 B   0  0  0  0  0  0  0  0  0  0  0  0
    9.8740    1.9828    7.9597 B   0  0  0  0  0  0  0  0  0  0  0  0
   10.9456    3.1856    7.1993 B   0  0  0  0  0  0  0  0  0  0  0  0
   12.4122    2.3762    6.5717 B   0  0  0  0  0  0  0  0  0  0  0  0
   12.2163    0.6515    6.9495 B   0  0  0  0  0  0  0  0  0  0  0  0
   10.6505    0.4357    7.7836 B   0  0  0  0  0  0  0  0  0  0  0  0
   11.6355    1.8634    8.1182 B   0  0  0  0  0  0  0  0  0  0  0  0
    8.2402    1.4697    0.8709 C   0  0  0  0  0  0  0  0  0  0  0  0
    8.2112    1.0862   -0.4691 C   0  0  0  0  0  0  0  0  0  0  0  0
    7.5206   -0.0637   -0.8517 C   0  0  0  0  0  0  0  0  0  0  0  0
    6.8578   -0.8304    0.1073 C   0  0  0  0  0  0  0  0  0  0  0  0
    6.8865   -0.4473    1.4488 C   0  0  0  0  0  0  0  0  0  0  0  0
    7.5773    0.7029    1.8298 C   0  0  0  0  0  0  0  0  0  0  0  0
    7.3732   -1.2217    4.9900 C   0  0  0  0  0  0  0  0  0  0  0  0
    6.6315   -2.2430    5.5840 C   0  0  0  0  0  0  0  0  0  0  0  0
    5.2407   -2.1563    5.6352 C   0  0  0  0  0  0  0  0  0  0  0  0
    4.5905   -1.0484    5.0925 C   0  0  0  0  0  0  0  0  0  0  0  0
    5.3314   -0.0267    4.4970 C   0  0  0  0  0  0  0  0  0  0  0  0
    6.7231   -0.1137    4.4473 C   0  0  0  0  0  0  0  0  0  0  0  0
    8.6489    6.9806    3.8758 C   0  0  0  0  0  0  0  0  0  0  0  0
    7.5485    7.7015    3.4131 C   0  0  0  0  0  0  0  0  0  0  0  0
    7.6822    8.5502    2.3133 C   0  0  0  0  0  0  0  0  0  0  0  0
    8.9159    8.6777    1.6778 C   0  0  0  0  0  0  0  0  0  0  0  0
   10.0176    7.9572    2.1388 C   0  0  0  0  0  0  0  0  0  0  0  0
    9.8840    7.1085    3.2386 C   0  0  0  0  0  0  0  0  0  0  0  0
   12.8442    6.0812    1.4264 C   0  0  0  0  0  0  0  0  0  0  0  0
   13.8593    6.5444    0.5907 C   0  0  0  0  0  0  0  0  0  0  0  0
   14.7022    7.5711    1.0198 C   0  0  0  0  0  0  0  0  0  0  0  0
   14.5278    8.1345    2.2845 C   0  0  0  0  0  0  0  0  0  0  0  0
   13.5118    7.6701    3.1202 C   0  0  0  0  0  0  0  0  0  0  0  0
   12.6699    6.6447    2.6911 C   0  0  0  0  0  0  0  0  0  0  0  0
   11.2554    7.9865    5.8497 C   0  0  0  0  0  0  0  0  0  0  0  0
   11.7154    8.5276    7.0504 C   0  0  0  0  0  0  0  0  0  0  0  0
   12.6830    7.8525    7.7948 C   0  0  0  0  0  0  0  0  0  0  0  0
   13.1909    6.6352    7.3386 C   0  0  0  0  0  0  0  0  0  0  0  0
   12.7309    6.0942    6.1379 C   0  0  0  0  0  0  0  0  0  0  0  0
   11.7632    6.7693    5.3935 C   0  0  0  0  0  0  0  0  0  0  0  0
    6.3311    2.9888    5.1501 C   0  0  0  0  0  0  0  0  0  0  0  0
    5.5688    4.1277    5.4095 C   0  0  0  0  0  0  0  0  0  0  0  0
    5.1441    4.9375    4.3561 C   0  0  0  0  0  0  0  0  0  0  0  0
    5.4839    4.6085    3.0433 C   0  0  0  0  0  0  0  0  0  0  0  0
    6.2472    3.4696    2.7840 C   0  0  0  0  0  0  0  0  0  0  0  0
    6.6709    2.6598    3.8374 C   0  0  0  0  0  0  0  0  0  0  0  0
    8.6607    0.6168    6.6101 H   0  0  0  0  0  0  0  0  0  0  0  0
    8.8784    2.9181    6.2579 H   0  0  0  0  0  0  0  0  0  0  0  0
   12.7242    1.0045    4.5946 H   0  0  0  0  0  0  0  0  0  0  0  0
   10.8842   -1.1032    5.7040 H   0  0  0  0  0  0  0  0  0  0  0  0
    9.1180    2.1745    8.7089 H   0  0  0  0  0  0  0  0  0  0  0  0
   10.6927    4.3960    7.5467 H   0  0  0  0  0  0  0  0  0  0  0  0
   13.2102    2.7764    6.5541 H   0  0  0  0  0  0  0  0  0  0  0  0
   13.2229    0.1329    7.2665 H   0  0  0  0  0  0  0  0  0  0  0  0
   10.5511   -0.4076    8.5537 H   0  0  0  0  0  0  0  0  0  0  0  0
   12.0844    2.0926    9.0355 H   0  0  0  0  0  0  0  0  0  0  0  0
    8.7154    2.2616    1.1350 H   0  0  0  0  0  0  0  0  0  0  0  0
    8.6670    1.6129   -1.1286 H   0  0  0  0  0  0  0  0  0  0  0  0
    7.5009   -0.3280   -1.7738 H   0  0  0  0  0  0  0  0  0  0  0  0
    6.3834   -1.6227   -0.1553 H   0  0  0  0  0  0  0  0  0  0  0  0
    6.4307   -0.9741    2.1084 H   0  0  0  0  0  0  0  0  0  0  0  0
    8.3308   -1.2816    4.9548 H   0  0  0  0  0  0  0  0  0  0  0  0
    7.0790   -3.0061    5.9570 H   0  0  0  0  0  0  0  0  0  0  0  0
    4.7306   -2.8595    6.0434 H   0  0  0  0  0  0  0  0  0  0  0  0
    3.6329   -0.9884    5.1277 H   0  0  0  0  0  0  0  0  0  0  0  0
    4.8839    0.7364    4.1239 H   0  0  0  0  0  0  0  0  0  0  0  0
    8.5577    6.3972    4.6314 H   0  0  0  0  0  0  0  0  0  0  0  0
    6.6989    7.6149    3.8518 H   0  0  0  0  0  0  0  0  0  0  0  0
    6.9237    9.0470    1.9963 H   0  0  0  0  0  0  0  0  0  0  0  0
    9.0084    9.2615    0.9205 H   0  0  0  0  0  0  0  0  0  0  0  0
   10.8669    8.0447    1.7018 H   0  0  0  0  0  0  0  0  0  0  0  0
   12.2644    5.3753    1.1318 H   0  0  0  0  0  0  0  0  0  0  0  0
   13.9800    6.1567   -0.2786 H   0  0  0  0  0  0  0  0  0  0  0  0
   15.4006    7.8908    0.4435 H   0  0  0  0  0  0  0  0  0  0  0  0
   15.1066    8.8404    2.5791 H   0  0  0  0  0  0  0  0  0  0  0  0
   13.3922    8.0579    3.9895 H   0  0  0  0  0  0  0  0  0  0  0  0
   10.5901    8.4505    5.3374 H   0  0  0  0  0  0  0  0  0  0  0  0
   11.3667    9.3643    7.3642 H   0  0  0  0  0  0  0  0  0  0  0  0
   12.9997    8.2254    8.6209 H   0  0  0  0  0  0  0  0  0  0  0  0
   13.8562    6.1713    7.8509 H   0  0  0  0  0  0  0  0  0  0  0  0
   13.0807    5.2574    5.8241 H   0  0  0  0  0  0  0  0  0  0  0  0
    6.6226    2.4311    5.8753 H   0  0  0  0  0  0  0  0  0  0  0  0
    5.3352    4.3539    6.3124 H   0  0  0  0  0  0  0  0  0  0  0  0
    4.6191    5.7215    4.5338 H   0  0  0  0  0  0  0  0  0  0  0  0
    5.1924    5.1662    2.3181 H   0  0  0  0  0  0  0  0  0  0  0  0
    6.4798    3.2434    1.8811 H   0  0  0  0  0  0  0  0  0  0  0  0
    9.2788    4.0419    4.2552 H   0  0  0  0  0  0  0  0  0  0  0  0
  1  2  1  0  0  0  0
  2  3  1  0  0  0  0
  3 27  1  0  0  0  0
  4  1  1  0  0  0  0
  5  1  1  0  0  0  0
  6  2  1  0  0  0  0
  7  1  1  0  0  0  0
  8  6  3  0  0  0  0
  9  7  3  0  0  0  0
 10  5  3  0  0  0  0
 11  2  1  0  0  0  0
 12  2  1  0  0  0  0
 13  1  1  0  0  0  0
 14  2  1  0  0  0  0
 15  2  1  0  0  0  0
 16 11  1  0  0  0  0
 17 12  1  0  0  0  0
 18 13  1  0  0  0  0
 19 14  1  0  0  0  0
 20 11  1  0  0  0  0
 21 16  1  0  0  0  0
 22 23  4  0  0  0  0
 23 24  4  0  0  0  0
 24 25  4  0  0  0  0
 25 26  4  0  0  0  0
 26 27  4  0  0  0  0
 27 22  4  0  0  0  0
 28 29  4  0  0  0  0
 29 30  4  0  0  0  0
 30 31  4  0  0  0  0
 31 32  4  0  0  0  0
 32 33  4  0  0  0  0
 33  3  1  0  0  0  0
 34 35  4  0  0  0  0
 35 36  4  0  0  0  0
 36 37  4  0  0  0  0
 37 38  4  0  0  0  0
 38 39  4  0  0  0  0
 39  4  1  0  0  0  0
 40 41  4  0  0  0  0
 41 42  4  0  0  0  0
 42 43  4  0  0  0  0
 43 44  4  0  0  0  0
 44 45  4  0  0  0  0
 45  4  1  0  0  0  0
 46 47  4  0  0  0  0
 47 48  4  0  0  0  0
 48 49  4  0  0  0  0
 49 50  4  0  0  0  0
 50 51  4  0  0  0  0
 51  4  1  0  0  0  0
 52 53  4  0  0  0  0
 53 54  4  0  0  0  0
 54 55  4  0  0  0  0
 55 56  4  0  0  0  0
 56 57  4  0  0  0  0
 57  3  1  0  0  0  0
 58 11  1  0  0  0  0
 59 12  1  0  0  0  0
 60 14  1  0  0  0  0
 61 15  1  0  0  0  0
 62 16  1  0  0  0  0
 63 17  1  0  0  0  0
 64 18  1  0  0  0  0
 65 19  1  0  0  0  0
 66 20  1  0  0  0  0
 67 21  1  0  0  0  0
 68 22  1  0  0  0  0
 69 23  1  0  0  0  0
 70 24  1  0  0  0  0
 71 25  1  0  0  0  0
 72 26  1  0  0  0  0
 73 28  1  0  0  0  0
 74 29  1  0  0  0  0
 75 30  1  0  0  0  0
 76 31  1  0  0  0  0
 77 32  1  0  0  0  0
 78 34  1  0  0  0  0
 79 35  1  0  0  0  0
 80 36  1  0  0  0  0
 81 37  1  0  0  0  0
 82 38  1  0  0  0  0
 83 40  1  0  0  0  0
 84 41  1  0  0  0  0
 85 42  1  0  0  0  0
 86 43  1  0  0  0  0
 87 44  1  0  0  0  0
 88 46  1  0  0  0  0
 89 47  1  0  0  0  0
 90 48  1  0  0  0  0
 91 49  1  0  0  0  0
 92 50  1  0  0  0  0
 93 52  1  0  0  0  0
 94 53  1  0  0  0  0
 95 54  1  0  0  0  0
 96 55  1  0  0  0  0
 97 56  1  0  0  0  0
 98  1  1  0  0  0  0
  2 13  1  0  0  0  0
 11 12  1  0  0  0  0
 11 15  1  0  0  0  0
 12 13  1  0  0  0  0
 12 16  1  0  0  0  0
 13 14  1  0  0  0  0
 13 17  1  0  0  0  0
 14 15  1  0  0  0  0
 14 18  1  0  0  0  0
 15 19  1  0  0  0  0
 15 20  1  0  0  0  0
 16 17  1  0  0  0  0
 16 20  1  0  0  0  0
 17 18  1  0  0  0  0
 17 21  1  0  0  0  0
 18 19  1  0  0  0  0
 18 21  1  0  0  0  0
 19 20  1  0  0  0  0
 19 21  1  0  0  0  0
 20 21  1  0  0  0  0
 28 33  4  0  0  0  0
 34 39  4  0  0  0  0
 40 45  4  0  0  0  0
 46 51  4  0  0  0  0
 52 57  4  0  0  0  0
M  END
$$$$
SEYHIO

From CSD data. Using bond type 'Any'. No disordered atoms. Largest molecule.
293312  0  0  0  0  0  0  0  0999 V2000
    9.5488   26.9069   18.3345 Fe  0  0  0  0  0  0  0  0  0  0  0  0
   11.7668   26.1853   18.6030 Fe  0  0  0  0  0  0  0  0  0  0  0  0
    8.0649   25.8991   17.0428 P   0  0  0  0  0  0  0  0  0  0  0  0
    7.9956   27.1379   19.9927 P   0  0  0  0  0  0  0  0  0  0  0  0
    8.8439   28.8616   17.4286 P   0  0  0  0  0  0  0  0  0  0  0  0
   12.8656   24.6376   17.4581 P   0  0  0  0  0  0  0  0  0  0  0  0
   13.5770   27.5184   18.3557 P   0  0  0  0  0  0  0  0  0  0  0  0
   12.7843   25.4276   20.5580 P   0  0  0  0  0  0  0  0  0  0  0  0
   11.1328   26.9918   15.9068 O   0  0  0  0  0  0  0  0  0  0  0  0
   10.4803   26.3974   19.7221 O   0  0  0  0  0  0  0  0  0  0  0  0
   10.9724   26.7482   17.0589 C   0  0  0  0  0  0  0  0  0  0  0  0
    5.8600   27.9432   17.6912 B   0  0  0  0  0  0  0  0  0  0  0  0
   15.3367   24.9903   18.9612 B   0  0  0  0  0  0  0  0  0  0  0  0
    4.5831   28.3242   17.7126 C   0  0  0  0  0  0  0  0  0  0  0  0
    4.2496   29.3644   16.8526 C   0  0  0  0  0  0  0  0  0  0  0  0
    2.9473   29.8465   16.8178 C   0  0  0  0  0  0  0  0  0  0  0  0
    1.9776   29.2917   17.6457 C   0  0  0  0  0  0  0  0  0  0  0  0
    2.3120   28.2547   18.5084 C   0  0  0  0  0  0  0  0  0  0  0  0
    3.6152   27.7693   18.5405 C   0  0  0  0  0  0  0  0  0  0  0  0
    6.3930   26.8016   16.8204 C   0  0  0  0  0  0  0  0  0  0  0  0
    6.2004   27.4649   19.3791 C   0  0  0  0  0  0  0  0  0  0  0  0
    7.2389   29.3766   17.9216 C   0  0  0  0  0  0  0  0  0  0  0  0
   16.8006   24.7656   19.1085 C   0  0  0  0  0  0  0  0  0  0  0  0
   17.4776   25.0101   20.2981 C   0  0  0  0  0  0  0  0  0  0  0  0
   18.8071   24.6241   20.4321 C   0  0  0  0  0  0  0  0  0  0  0  0
   19.4567   23.9920   19.3791 C   0  0  0  0  0  0  0  0  0  0  0  0
   18.7780   23.7475   18.1895 C   0  0  0  0  0  0  0  0  0  0  0  0
   17.4504   24.1360   18.0556 C   0  0  0  0  0  0  0  0  0  0  0  0
   14.3748   23.9621   18.0851 C   0  0  0  0  0  0  0  0  0  0  0  0
   15.1304   26.6619   18.2967 C   0  0  0  0  0  0  0  0  0  0  0  0
   14.5706   25.2601   20.5661 C   0  0  0  0  0  0  0  0  0  0  0  0
    8.7944   25.2710   15.4862 C   0  0  0  0  0  0  0  0  0  0  0  0
    7.8721   24.6710   14.3716 C   0  0  0  0  0  0  0  0  0  0  0  0
    7.3058   25.6553   13.3615 C   0  0  0  0  0  0  0  0  0  0  0  0
    6.5080   24.9461   12.2496 C   0  0  0  0  0  0  0  0  0  0  0  0
    7.3399   23.8776   11.5878 C   0  0  0  0  0  0  0  0  0  0  0  0
    7.8909   22.8924   12.5604 C   0  0  0  0  0  0  0  0  0  0  0  0
    8.6731   23.5574   13.6750 C   0  0  0  0  0  0  0  0  0  0  0  0
    7.7110   24.3283   18.0207 C   0  0  0  0  0  0  0  0  0  0  0  0
    7.0255   23.0842   17.3483 C   0  0  0  0  0  0  0  0  0  0  0  0
    7.1861   21.8933   18.2833 C   0  0  0  0  0  0  0  0  0  0  0  0
    6.6010   20.6038   17.6698 C   0  0  0  0  0  0  0  0  0  0  0  0
    5.1818   20.7995   17.2063 C   0  0  0  0  0  0  0  0  0  0  0  0
    5.0049   21.9655   16.3060 C   0  0  0  0  0  0  0  0  0  0  0  0
    5.5777   23.2425   16.8767 C   0  0  0  0  0  0  0  0  0  0  0  0
    8.1609   25.8356   21.2680 C   0  0  0  0  0  0  0  0  0  0  0  0
    6.8395   25.3802   22.1549 C   0  0  0  0  0  0  0  0  0  0  0  0
    7.2872   25.0618   23.5749 C   0  0  0  0  0  0  0  0  0  0  0  0
    6.0962   24.7630   24.5019 C   0  0  0  0  0  0  0  0  0  0  0  0
    5.1871   23.7087   23.9151 C   0  0  0  0  0  0  0  0  0  0  0  0
    4.7442   24.0122   22.5300 C   0  0  0  0  0  0  0  0  0  0  0  0
    5.9237   24.2568   21.6056 C   0  0  0  0  0  0  0  0  0  0  0  0
    8.4875   28.4990   20.9572 C   0  0  0  0  0  0  0  0  0  0  0  0
    7.5377   28.8133   22.1897 C   0  0  0  0  0  0  0  0  0  0  0  0
    6.6090   29.9987   22.0986 C   0  0  0  0  0  0  0  0  0  0  0  0
    5.8863   30.3340   23.4034 C   0  0  0  0  0  0  0  0  0  0  0  0
    6.8419   30.3764   24.5769 C   0  0  0  0  0  0  0  0  0  0  0  0
    7.6209   29.1111   24.7028 C   0  0  0  0  0  0  0  0  0  0  0  0
    8.4203   28.8499   23.4382 C   0  0  0  0  0  0  0  0  0  0  0  0
   10.0902   30.1768   18.0449 C   0  0  0  0  0  0  0  0  0  0  0  0
    9.7333   31.6976   17.9645 C   0  0  0  0  0  0  0  0  0  0  0  0
    9.0223   32.2447   19.1809 C   0  0  0  0  0  0  0  0  0  0  0  0
    8.7864   33.7676   19.1166 C   0  0  0  0  0  0  0  0  0  0  0  0
   10.0291   34.5071   18.7709 C   0  0  0  0  0  0  0  0  0  0  0  0
   10.6961   33.9921   17.5358 C   0  0  0  0  0  0  0  0  0  0  0  0
   10.9842   32.5153   17.6215 C   0  0  0  0  0  0  0  0  0  0  0  0
    8.9750   29.1407   15.5880 C   0  0  0  0  0  0  0  0  0  0  0  0
    8.2820   30.2452   14.8378 C   0  0  0  0  0  0  0  0  0  0  0  0
    9.2273   31.2799   14.2778 C   0  0  0  0  0  0  0  0  0  0  0  0
    8.5488   32.2996   13.3642 C   0  0  0  0  0  0  0  0  0  0  0  0
    7.7087   31.6152   12.3032 C   0  0  0  0  0  0  0  0  0  0  0  0
    6.7140   30.6632   12.8900 C   0  0  0  0  0  0  0  0  0  0  0  0
    7.3670   29.6406   13.7848 C   0  0  0  0  0  0  0  0  0  0  0  0
   11.4686   23.2786   17.2170 C   0  0  0  0  0  0  0  0  0  0  0  0
   11.8535   21.8063   16.8178 C   0  0  0  0  0  0  0  0  0  0  0  0
   13.0490   21.0147   17.3456 C   0  0  0  0  0  0  0  0  0  0  0  0
   13.1949   19.6726   16.5847 C   0  0  0  0  0  0  0  0  0  0  0  0
   11.9220   18.8709   16.6463 C   0  0  0  0  0  0  0  0  0  0  0  0
   10.7221   19.6258   16.1988 C   0  0  0  0  0  0  0  0  0  0  0  0
   10.5686   20.9583   16.8660 C   0  0  0  0  0  0  0  0  0  0  0  0
   13.4394   24.8986   15.8050 C   0  0  0  0  0  0  0  0  0  0  0  0
   13.9618   23.9430   14.8860 C   0  0  0  0  0  0  0  0  0  0  0  0
   12.8797   23.6823   13.8304 C   0  0  0  0  0  0  0  0  0  0  0  0
   13.2689   22.5317   12.8766 C   0  0  0  0  0  0  0  0  0  0  0  0
   14.6306   22.7333   12.2871 C   0  0  0  0  0  0  0  0  0  0  0  0
   15.6882   23.0244   13.2838 C   0  0  0  0  0  0  0  0  0  0  0  0
   15.3218   24.1454   14.2215 C   0  0  0  0  0  0  0  0  0  0  0  0
   13.3626   28.5827   16.7588 C   0  0  0  0  0  0  0  0  0  0  0  0
   14.7005   29.3169   16.3087 C   0  0  0  0  0  0  0  0  0  0  0  0
   15.2547   28.6640   15.0548 C   0  0  0  0  0  0  0  0  0  0  0  0
   16.4632   29.4398   14.4895 C   0  0  0  0  0  0  0  0  0  0  0  0
   16.0862   30.8833   14.2457 C   0  0  0  0  0  0  0  0  0  0  0  0
   15.5739   31.5484   15.4728 C   0  0  0  0  0  0  0  0  0  0  0  0
   14.4244   30.8155   16.0997 C   0  0  0  0  0  0  0  0  0  0  0  0
   13.5055   28.5817   19.6551 C   0  0  0  0  0  0  0  0  0  0  0  0
   14.2869   29.9379   19.8346 C   0  0  0  0  0  0  0  0  0  0  0  0
   15.7404   29.7045   20.1159 C   0  0  0  0  0  0  0  0  0  0  0  0
   16.5532   30.9824   20.3356 C   0  0  0  0  0  0  0  0  0  0  0  0
   15.8796   31.9111   21.3082 C   0  0  0  0  0  0  0  0  0  0  0  0
   14.4662   32.2144   20.9492 C   0  0  0  0  0  0  0  0  0  0  0  0
   13.6406   30.9856   20.7348 C   0  0  0  0  0  0  0  0  0  0  0  0
   12.0390   26.3288   21.9620 C   0  0  0  0  0  0  0  0  0  0  0  0
   13.1346   26.9012   23.1194 C   0  0  0  0  0  0  0  0  0  0  0  0
   13.8847   25.9303   24.0116 C   0  0  0  0  0  0  0  0  0  0  0  0
   14.6675   26.6310   25.1288 C   0  0  0  0  0  0  0  0  0  0  0  0
   13.7888   27.5822   25.9032 C   0  0  0  0  0  0  0  0  0  0  0  0
   13.0955   28.5661   25.0297 C   0  0  0  0  0  0  0  0  0  0  0  0
   12.3066   27.9058   23.9312 C   0  0  0  0  0  0  0  0  0  0  0  0
   12.0108   23.7216   20.8099 C   0  0  0  0  0  0  0  0  0  0  0  0
   12.3354   22.9632   22.1602 C   0  0  0  0  0  0  0  0  0  0  0  0
   11.0201   22.5989   22.8434 C   0  0  0  0  0  0  0  0  0  0  0  0
   11.2838   21.7998   24.1482 C   0  0  0  0  0  0  0  0  0  0  0  0
   12.1119   20.5702   23.8535 C   0  0  0  0  0  0  0  0  0  0  0  0
   13.3849   20.8947   23.1623 C   0  0  0  0  0  0  0  0  0  0  0  0
   13.1660   21.6872   21.8950 C   0  0  0  0  0  0  0  0  0  0  0  0
    4.9119   29.7421   16.2846 H   0  0  0  0  0  0  0  0  0  0  0  0
    2.7190   30.5554   16.2283 H   0  0  0  0  0  0  0  0  0  0  0  0
    1.0888   29.6228   17.6242 H   0  0  0  0  0  0  0  0  0  0  0  0
    1.6506   27.8737   19.0737 H   0  0  0  0  0  0  0  0  0  0  0  0
    3.8434   27.0605   19.1300 H   0  0  0  0  0  0  0  0  0  0  0  0
    6.3971   27.1504   15.8934 H   0  0  0  0  0  0  0  0  0  0  0  0
    5.7006   26.0948   16.8472 H   0  0  0  0  0  0  0  0  0  0  0  0
    5.6810   26.6384   19.5533 H   0  0  0  0  0  0  0  0  0  0  0  0
    5.8202   28.1704   19.9605 H   0  0  0  0  0  0  0  0  0  0  0  0
    7.2650   29.6519   18.8728 H   0  0  0  0  0  0  0  0  0  0  0  0
    6.9762   30.1684   17.3858 H   0  0  0  0  0  0  0  0  0  0  0  0
   17.0334   25.4436   21.0188 H   0  0  0  0  0  0  0  0  0  0  0  0
   19.2695   24.7925   21.2466 H   0  0  0  0  0  0  0  0  0  0  0  0
   20.3652   23.7293   19.4729 H   0  0  0  0  0  0  0  0  0  0  0  0
   19.2230   23.3173   17.4715 H   0  0  0  0  0  0  0  0  0  0  0  0
   16.9868   23.9684   17.2438 H   0  0  0  0  0  0  0  0  0  0  0  0
   14.1520   23.1854   18.6557 H   0  0  0  0  0  0  0  0  0  0  0  0
   14.9028   23.6254   17.3188 H   0  0  0  0  0  0  0  0  0  0  0  0
   15.4025   26.6288   17.3456 H   0  0  0  0  0  0  0  0  0  0  0  0
   15.7904   27.2383   18.7602 H   0  0  0  0  0  0  0  0  0  0  0  0
   14.9595   26.0794   20.9626 H   0  0  0  0  0  0  0  0  0  0  0  0
   14.8093   24.5038   21.1555 H   0  0  0  0  0  0  0  0  0  0  0  0
    9.3021   26.0143   15.0762 H   0  0  0  0  0  0  0  0  0  0  0  0
    9.4514   24.5721   15.7300 H   0  0  0  0  0  0  0  0  0  0  0  0
    7.0953   24.2365   14.8297 H   0  0  0  0  0  0  0  0  0  0  0  0
    8.0483   26.1663   12.9516 H   0  0  0  0  0  0  0  0  0  0  0  0
    6.7135   26.2975   13.8277 H   0  0  0  0  0  0  0  0  0  0  0  0
    6.2246   25.6102   11.5744 H   0  0  0  0  0  0  0  0  0  0  0  0
    5.6942   24.5364   12.6381 H   0  0  0  0  0  0  0  0  0  0  0  0
    6.7813   23.3979   10.9234 H   0  0  0  0  0  0  0  0  0  0  0  0
    8.0872   24.3061   11.1002 H   0  0  0  0  0  0  0  0  0  0  0  0
    8.4839   22.2596   12.0835 H   0  0  0  0  0  0  0  0  0  0  0  0
    7.1464   22.3718   12.9543 H   0  0  0  0  0  0  0  0  0  0  0  0
    8.9267   22.8743   14.3448 H   0  0  0  0  0  0  0  0  0  0  0  0
    9.5042   23.9418   13.3026 H   0  0  0  0  0  0  0  0  0  0  0  0
    8.5753   24.0181   18.3905 H   0  0  0  0  0  0  0  0  0  0  0  0
    7.1477   24.5867   18.7924 H   0  0  0  0  0  0  0  0  0  0  0  0
    7.5653   22.8751   16.5311 H   0  0  0  0  0  0  0  0  0  0  0  0
    8.1470   21.7550   18.4789 H   0  0  0  0  0  0  0  0  0  0  0  0
    6.7275   22.0841   19.1407 H   0  0  0  0  0  0  0  0  0  0  0  0
    6.6271   19.8791   18.3423 H   0  0  0  0  0  0  0  0  0  0  0  0
    7.1595   20.3263   16.9008 H   0  0  0  0  0  0  0  0  0  0  0  0
    4.8835   19.9826   16.7320 H   0  0  0  0  0  0  0  0  0  0  0  0
    4.5995   20.9158   17.9966 H   0  0  0  0  0  0  0  0  0  0  0  0
    4.0385   22.0950   16.1319 H   0  0  0  0  0  0  0  0  0  0  0  0
    5.4452   21.7749   15.4406 H   0  0  0  0  0  0  0  0  0  0  0  0
    5.5388   23.9526   16.1881 H   0  0  0  0  0  0  0  0  0  0  0  0
    5.0200   23.5343   17.6430 H   0  0  0  0  0  0  0  0  0  0  0  0
    8.5112   25.0264   20.8206 H   0  0  0  0  0  0  0  0  0  0  0  0
    8.8558   26.1359   21.9084 H   0  0  0  0  0  0  0  0  0  0  0  0
    6.2636   26.1949   22.2245 H   0  0  0  0  0  0  0  0  0  0  0  0
    7.8922   24.2793   23.5561 H   0  0  0  0  0  0  0  0  0  0  0  0
    7.7957   25.8303   23.9339 H   0  0  0  0  0  0  0  0  0  0  0  0
    5.5803   25.5960   24.6519 H   0  0  0  0  0  0  0  0  0  0  0  0
    6.4340   24.4528   25.3807 H   0  0  0  0  0  0  0  0  0  0  0  0
    5.6613   22.8399   23.9178 H   0  0  0  0  0  0  0  0  0  0  0  0
    4.3881   23.6164   24.4939 H   0  0  0  0  0  0  0  0  0  0  0  0
    4.1650   24.8148   22.5407 H   0  0  0  0  0  0  0  0  0  0  0  0
    4.2089   23.2550   22.1843 H   0  0  0  0  0  0  0  0  0  0  0  0
    6.4462   23.4226   21.5118 H   0  0  0  0  0  0  0  0  0  0  0  0
    5.5906   24.5116   20.7081 H   0  0  0  0  0  0  0  0  0  0  0  0
    9.4009   28.3326   21.2975 H   0  0  0  0  0  0  0  0  0  0  0  0
    8.5256   29.3001   20.3758 H   0  0  0  0  0  0  0  0  0  0  0  0
    6.9495   28.0140   22.2942 H   0  0  0  0  0  0  0  0  0  0  0  0
    5.9319   29.8162   21.3993 H   0  0  0  0  0  0  0  0  0  0  0  0
    7.1301   30.7902   21.8119 H   0  0  0  0  0  0  0  0  0  0  0  0
    5.4412   31.2146   23.3123 H   0  0  0  0  0  0  0  0  0  0  0  0
    5.1874   29.6566   23.5749 H   0  0  0  0  0  0  0  0  0  0  0  0
    7.4680   31.1351   24.4617 H   0  0  0  0  0  0  0  0  0  0  0  0
    6.3282   30.5302   25.4102 H   0  0  0  0  0  0  0  0  0  0  0  0
    7.0011   28.3572   24.8690 H   0  0  0  0  0  0  0  0  0  0  0  0
    8.2362   29.1779   25.4771 H   0  0  0  0  0  0  0  0  0  0  0  0
    8.8910   27.9828   23.5240 H   0  0  0  0  0  0  0  0  0  0  0  0
    9.1033   29.5560   23.3311 H   0  0  0  0  0  0  0  0  0  0  0  0
   10.2903   29.9709   18.9906 H   0  0  0  0  0  0  0  0  0  0  0  0
   10.9307   30.0452   17.5385 H   0  0  0  0  0  0  0  0  0  0  0  0
    9.1039   31.8023   17.1955 H   0  0  0  0  0  0  0  0  0  0  0  0
    9.5593   32.0384   19.9873 H   0  0  0  0  0  0  0  0  0  0  0  0
    8.1494   31.7896   19.2746 H   0  0  0  0  0  0  0  0  0  0  0  0
    8.0911   33.9611   18.4387 H   0  0  0  0  0  0  0  0  0  0  0  0
    8.4534   34.0845   19.9954 H   0  0  0  0  0  0  0  0  0  0  0  0
   10.6641   34.4442   19.5292 H   0  0  0  0  0  0  0  0  0  0  0  0
    9.8086   35.4642   18.6423 H   0  0  0  0  0  0  0  0  0  0  0  0
   11.5459   34.4839   17.3965 H   0  0  0  0  0  0  0  0  0  0  0  0
   10.1136   34.1661   16.7561 H   0  0  0  0  0  0  0  0  0  0  0  0
   11.6754   32.3581   18.3128 H   0  0  0  0  0  0  0  0  0  0  0  0
   11.3482   32.2040   16.7535 H   0  0  0  0  0  0  0  0  0  0  0  0
    9.9418   29.2423   15.3951 H   0  0  0  0  0  0  0  0  0  0  0  0
    8.6910   28.2953   15.1620 H   0  0  0  0  0  0  0  0  0  0  0  0
    7.6940   30.7159   15.4969 H   0  0  0  0  0  0  0  0  0  0  0  0
    9.6556   31.7627   15.0307 H   0  0  0  0  0  0  0  0  0  0  0  0
    9.9415   30.8210   13.7714 H   0  0  0  0  0  0  0  0  0  0  0  0
    9.2383   32.8570   12.9248 H   0  0  0  0  0  0  0  0  0  0  0  0
    7.9736   32.8936   13.9054 H   0  0  0  0  0  0  0  0  0  0  0  0
    8.3055   31.1220   11.6870 H   0  0  0  0  0  0  0  0  0  0  0  0
    7.2290   32.3027   11.7781 H   0  0  0  0  0  0  0  0  0  0  0  0
    6.0449   31.1743   13.4124 H   0  0  0  0  0  0  0  0  0  0  0  0
    6.2369   30.1984   12.1558 H   0  0  0  0  0  0  0  0  0  0  0  0
    6.6611   29.1146   14.2376 H   0  0  0  0  0  0  0  0  0  0  0  0
    7.8939   29.0187   13.2249 H   0  0  0  0  0  0  0  0  0  0  0  0
   10.9561   23.2314   18.0636 H   0  0  0  0  0  0  0  0  0  0  0  0
   10.8469   23.6174   16.5230 H   0  0  0  0  0  0  0  0  0  0  0  0
   12.0435   21.8780   15.8398 H   0  0  0  0  0  0  0  0  0  0  0  0
   13.8761   21.5475   17.2357 H   0  0  0  0  0  0  0  0  0  0  0  0
   12.9273   20.8350   18.3128 H   0  0  0  0  0  0  0  0  0  0  0  0
   13.4232   19.8535   15.6389 H   0  0  0  0  0  0  0  0  0  0  0  0
   13.9332   19.1452   16.9812 H   0  0  0  0  0  0  0  0  0  0  0  0
   11.7803   18.5687   17.5787 H   0  0  0  0  0  0  0  0  0  0  0  0
   12.0223   18.0668   16.0783 H   0  0  0  0  0  0  0  0  0  0  0  0
   10.7773   19.7650   15.2209 H   0  0  0  0  0  0  0  0  0  0  0  0
    9.9153   19.0814   16.3810 H   0  0  0  0  0  0  0  0  0  0  0  0
   10.3091   20.8198   17.8118 H   0  0  0  0  0  0  0  0  0  0  0  0
    9.8362   21.4574   16.4239 H   0  0  0  0  0  0  0  0  0  0  0  0
   12.6805   25.3235   15.3308 H   0  0  0  0  0  0  0  0  0  0  0  0
   14.1373   25.5949   15.8800 H   0  0  0  0  0  0  0  0  0  0  0  0
   14.0418   23.0908   15.4031 H   0  0  0  0  0  0  0  0  0  0  0  0
   12.0303   23.4569   14.2859 H   0  0  0  0  0  0  0  0  0  0  0  0
   12.7333   24.5072   13.3052 H   0  0  0  0  0  0  0  0  0  0  0  0
   12.6017   22.4748   12.1451 H   0  0  0  0  0  0  0  0  0  0  0  0
   13.2504   21.6758   13.3722 H   0  0  0  0  0  0  0  0  0  0  0  0
   14.8832   21.9187   11.7861 H   0  0  0  0  0  0  0  0  0  0  0  0
   14.5899   23.4833   11.6414 H   0  0  0  0  0  0  0  0  0  0  0  0
   16.5214   23.2611   12.8069 H   0  0  0  0  0  0  0  0  0  0  0  0
   15.8632   22.2060   13.8143 H   0  0  0  0  0  0  0  0  0  0  0  0
   16.0154   24.2162   14.9235 H   0  0  0  0  0  0  0  0  0  0  0  0
   15.3114   24.9964   13.7178 H   0  0  0  0  0  0  0  0  0  0  0  0
   13.0536   27.9996   16.0220 H   0  0  0  0  0  0  0  0  0  0  0  0
   12.6615   29.2631   16.9169 H   0  0  0  0  0  0  0  0  0  0  0  0
   15.3761   29.2188   17.0401 H   0  0  0  0  0  0  0  0  0  0  0  0
   15.5313   27.7376   15.2638 H   0  0  0  0  0  0  0  0  0  0  0  0
   14.5428   28.6221   14.3662 H   0  0  0  0  0  0  0  0  0  0  0  0
   16.7561   29.0258   13.6375 H   0  0  0  0  0  0  0  0  0  0  0  0
   17.2169   29.3953   15.1298 H   0  0  0  0  0  0  0  0  0  0  0  0
   16.8827   31.3766   13.9215 H   0  0  0  0  0  0  0  0  0  0  0  0
   15.3947   30.9242   13.5410 H   0  0  0  0  0  0  0  0  0  0  0  0
   15.2825   32.4661   15.2423 H   0  0  0  0  0  0  0  0  0  0  0  0
   16.3086   31.6193   16.1319 H   0  0  0  0  0  0  0  0  0  0  0  0
   13.6272   30.9160   15.5237 H   0  0  0  0  0  0  0  0  0  0  0  0
   14.2194   31.2282   16.9732 H   0  0  0  0  0  0  0  0  0  0  0  0
   12.5494   28.8170   19.7516 H   0  0  0  0  0  0  0  0  0  0  0  0
   13.7350   28.0400   20.4508 H   0  0  0  0  0  0  0  0  0  0  0  0
   14.2755   30.3520   18.9263 H   0  0  0  0  0  0  0  0  0  0  0  0
   16.1343   29.2052   19.3577 H   0  0  0  0  0  0  0  0  0  0  0  0
   15.8210   29.1360   20.9224 H   0  0  0  0  0  0  0  0  0  0  0  0
   16.6709   31.4489   19.4702 H   0  0  0  0  0  0  0  0  0  0  0  0
   17.4500   30.7444   20.6786 H   0  0  0  0  0  0  0  0  0  0  0  0
   15.9022   31.5004   22.2111 H   0  0  0  0  0  0  0  0  0  0  0  0
   16.3912   32.7580   21.3511 H   0  0  0  0  0  0  0  0  0  0  0  0
   14.4549   32.7568   20.1213 H   0  0  0  0  0  0  0  0  0  0  0  0
   14.0592   32.7529   21.6699 H   0  0  0  0  0  0  0  0  0  0  0  0
   13.4521   30.5737   21.6163 H   0  0  0  0  0  0  0  0  0  0  0  0
   12.7724   31.2530   20.3383 H   0  0  0  0  0  0  0  0  0  0  0  0
   11.5299   27.0993   21.6029 H   0  0  0  0  0  0  0  0  0  0  0  0
   11.3939   25.7288   22.4094 H   0  0  0  0  0  0  0  0  0  0  0  0
   13.8252   27.4306   22.6264 H   0  0  0  0  0  0  0  0  0  0  0  0
   13.2374   25.3003   24.4162 H   0  0  0  0  0  0  0  0  0  0  0  0
   14.5128   25.4024   23.4570 H   0  0  0  0  0  0  0  0  0  0  0  0
   15.4248   27.1308   24.7323 H   0  0  0  0  0  0  0  0  0  0  0  0
   15.0397   25.9499   25.7451 H   0  0  0  0  0  0  0  0  0  0  0  0
   14.3439   28.0704   26.5623 H   0  0  0  0  0  0  0  0  0  0  0  0
   13.1107   27.0627   26.4042 H   0  0  0  0  0  0  0  0  0  0  0  0
   13.7673   29.1711   24.6251 H   0  0  0  0  0  0  0  0  0  0  0  0
   12.4839   29.1174   25.5790 H   0  0  0  0  0  0  0  0  0  0  0  0
   11.5304   27.4360   24.3277 H   0  0  0  0  0  0  0  0  0  0  0  0
   11.9572   28.6034   23.3203 H   0  0  0  0  0  0  0  0  0  0  0  0
   11.0286   23.8196   20.7429 H   0  0  0  0  0  0  0  0  0  0  0  0
   12.2992   23.1446   20.0597 H   0  0  0  0  0  0  0  0  0  0  0  0
   12.8561   23.5734   22.7577 H   0  0  0  0  0  0  0  0  0  0  0  0
   10.5207   23.4262   23.0604 H   0  0  0  0  0  0  0  0  0  0  0  0
   10.4662   22.0565   22.2299 H   0  0  0  0  0  0  0  0  0  0  0  0
   11.7616   22.3731   24.7993 H   0  0  0  0  0  0  0  0  0  0  0  0
   10.4209   21.5297   24.5528 H   0  0  0  0  0  0  0  0  0  0  0  0
   12.3130   20.1040   24.7028 H   0  0  0  0  0  0  0  0  0  0  0  0
   11.5841   19.9535   23.2855 H   0  0  0  0  0  0  0  0  0  0  0  0
   13.8564   20.0508   22.9399 H   0  0  0  0  0  0  0  0  0  0  0  0
   13.9633   21.4122   23.7758 H   0  0  0  0  0  0  0  0  0  0  0  0
   14.0431   21.9435   21.5118 H   0  0  0  0  0  0  0  0  0  0  0  0
   12.6967   21.1225   21.2305 H   0  0  0  0  0  0  0  0  0  0  0  0
  1  2  1  0  0  0  0
  2  6  1  0  0  0  0
  3  1  1  0  0  0  0
  4  1  1  0  0  0  0
  5  1  1  0  0  0  0
  6 29  1  0  0  0  0
  7  2  1  0  0  0  0
  8  2  1  0  0  0  0
  9 11  2  0  0  0  0
 10  1  1  0  0  0  0
 11  1  1  0  0  0  0
 12 14  1  0  0  0  0
 13 23  1  0  0  0  0
 14 15  4  0  0  0  0
 15 16  4  0  0  0  0
 16 17  4  0  0  0  0
 17 18  4  0  0  0  0
 18 19  4  0  0  0  0
 19 14  4  0  0  0  0
 20  3  1  0  0  0  0
 21  4  1  0  0  0  0
 22  5  1  0  0  0  0
 23 24  4  0  0  0  0
 24 25  4  0  0  0  0
 25 26  4  0  0  0  0
 26 27  4  0  0  0  0
 27 28  4  0  0  0  0
 28 23  4  0  0  0  0
 29 13  1  0  0  0  0
 30  7  1  0  0  0  0
 31  8  1  0  0  0  0
 32  3  1  0  0  0  0
 33 32  1  0  0  0  0
 34 33  1  0  0  0  0
 35 34  1  0  0  0  0
 36 35  1  0  0  0  0
 37 36  1  0  0  0  0
 38 33  1  0  0  0  0
 39  3  1  0  0  0  0
 40 39  1  0  0  0  0
 41 40  1  0  0  0  0
 42 41  1  0  0  0  0
 43 42  1  0  0  0  0
 44 43  1  0  0  0  0
 45 40  1  0  0  0  0
 46  4  1  0  0  0  0
 47 46  1  0  0  0  0
 48 47  1  0  0  0  0
 49 48  1  0  0  0  0
 50 49  1  0  0  0  0
 51 50  1  0  0  0  0
 52 47  1  0  0  0  0
 53  4  1  0  0  0  0
 54 53  1  0  0  0  0
 55 54  1  0  0  0  0
 56 55  1  0  0  0  0
 57 56  1  0  0  0  0
 58 57  1  0  0  0  0
 59 54  1  0  0  0  0
 60  5  1  0  0  0  0
 61 60  1  0  0  0  0
 62 61  1  0  0  0  0
 63 62  1  0  0  0  0
 64 63  1  0  0  0  0
 65 64  1  0  0  0  0
 66 61  1  0  0  0  0
 67  5  1  0  0  0  0
 68 67  1  0  0  0  0
 69 68  1  0  0  0  0
 70 69  1  0  0  0  0
 71 70  1  0  0  0  0
 72 71  1  0  0  0  0
 73 68  1  0  0  0  0
 74  6  1  0  0  0  0
 75 74  1  0  0  0  0
 76 75  1  0  0  0  0
 77 76  1  0  0  0  0
 78 77  1  0  0  0  0
 79 78  1  0  0  0  0
 80 75  1  0  0  0  0
 81  6  1  0  0  0  0
 82 81  1  0  0  0  0
 83 82  1  0  0  0  0
 84 83  1  0  0  0  0
 85 84  1  0  0  0  0
 86 85  1  0  0  0  0
 87 82  1  0  0  0  0
 88  7  1  0  0  0  0
 89 88  1  0  0  0  0
 90 89  1  0  0  0  0
 91 90  1  0  0  0  0
 92 91  1  0  0  0  0
 93 92  1  0  0  0  0
 94 89  1  0  0  0  0
 95  7  1  0  0  0  0
 96 95  1  0  0  0  0
 97 96  1  0  0  0  0
 98 97  1  0  0  0  0
 99 98  1  0  0  0  0
100 99  1  0  0  0  0
101 96  1  0  0  0  0
102  8  1  0  0  0  0
103102  1  0  0  0  0
104103  1  0  0  0  0
105104  1  0  0  0  0
106105  1  0  0  0  0
107106  1  0  0  0  0
108103  1  0  0  0  0
109  8  1  0  0  0  0
110109  1  0  0  0  0
111110  1  0  0  0  0
112111  1  0  0  0  0
113112  1  0  0  0  0
114113  1  0  0  0  0
115110  1  0  0  0  0
116 15  1  0  0  0  0
117 16  1  0  0  0  0
118 17  1  0  0  0  0
119 18  1  0  0  0  0
120 19  1  0  0  0  0
121 20  1  0  0  0  0
122 20  1  0  0  0  0
123 21  1  0  0  0  0
124 21  1  0  0  0  0
125 22  1  0  0  0  0
126 22  1  0  0  0  0
127 24  1  0  0  0  0
128 25  1  0  0  0  0
129 26  1  0  0  0  0
130 27  1  0  0  0  0
131 28  1  0  0  0  0
132 29  1  0  0  0  0
133 29  1  0  0  0  0
134 30  1  0  0  0  0
135 30  1  0  0  0  0
136 31  1  0  0  0  0
137 31  1  0  0  0  0
138 32  1  0  0  0  0
139 32  1  0  0  0  0
140 33  1  0  0  0  0
141 34  1  0  0  0  0
142 34  1  0  0  0  0
143 35  1  0  0  0  0
144 35  1  0  0  0  0
145 36  1  0  0  0  0
146 36  1  0  0  0  0
147 37  1  0  0  0  0
148 37  1  0  0  0  0
149 38  1  0  0  0  0
150 38  1  0  0  0  0
151 39  1  0  0  0  0
152 39  1  0  0  0  0
153 40  1  0  0  0  0
154 41  1  0  0  0  0
155 41  1  0  0  0  0
156 42  1  0  0  0  0
157 42  1  0  0  0  0
158 43  1  0  0  0  0
159 43  1  0  0  0  0
160 44  1  0  0  0  0
161 44  1  0  0  0  0
162 45  1  0  0  0  0
163 45  1  0  0  0  0
164 46  1  0  0  0  0
165 46  1  0  0  0  0
166 47  1  0  0  0  0
167 48  1  0  0  0  0
168 48  1  0  0  0  0
169 49  1  0  0  0  0
170 49  1  0  0  0  0
171 50  1  0  0  0  0
172 50  1  0  0  0  0
173 51  1  0  0  0  0
174 51  1  0  0  0  0
175 52  1  0  0  0  0
176 52  1  0  0  0  0
177 53  1  0  0  0  0
178 53  1  0  0  0  0
179 54  1  0  0  0  0
180 55  1  0  0  0  0
181 55  1  0  0  0  0
182 56  1  0  0  0  0
183 56  1  0  0  0  0
184 57  1  0  0  0  0
185 57  1  0  0  0  0
186 58  1  0  0  0  0
187 58  1  0  0  0  0
188 59  1  0  0  0  0
189 59  1  0  0  0  0
190 60  1  0  0  0  0
191 60  1  0  0  0  0
192 61  1  0  0  0  0
193 62  1  0  0  0  0
194 62  1  0  0  0  0
195 63  1  0  0  0  0
196 63  1  0  0  0  0
197 64  1  0  0  0  0
198 64  1  0  0  0  0
199 65  1  0  0  0  0
200 65  1  0  0  0  0
201 66  1  0  0  0  0
202 66  1  0  0  0  0
203 67  1  0  0  0  0
204 67  1  0  0  0  0
205 68  1  0  0  0  0
206 69  1  0  0  0  0
207 69  1  0  0  0  0
208 70  1  0  0  0  0
209 70  1  0  0  0  0
210 71  1  0  0  0  0
211 71  1  0  0  0  0
212 72  1  0  0  0  0
213 72  1  0  0  0  0
214 73  1  0  0  0  0
215 73  1  0  0  0  0
216 74  1  0  0  0  0
217 74  1  0  0  0  0
218 75  1  0  0  0  0
219 76  1  0  0  0  0
220 76  1  0  0  0  0
221 77  1  0  0  0  0
222 77  1  0  0  0  0
223 78  1  0  0  0  0
224 78  1  0  0  0  0
225 79  1  0  0  0  0
226 79  1  0  0  0  0
227 80  1  0  0  0  0
228 80  1  0  0  0  0
229 81  1  0  0  0  0
230 81  1  0  0  0  0
231 82  1  0  0  0  0
232 83  1  0  0  0  0
233 83  1  0  0  0  0
234 84  1  0  0  0  0
235 84  1  0  0  0  0
236 85  1  0  0  0  0
237 85  1  0  0  0  0
238 86  1  0  0  0  0
239 86  1  0  0  0  0
240 87  1  0  0  0  0
241 87  1  0  0  0  0
242 88  1  0  0  0  0
243 88  1  0  0  0  0
244 89  1  0  0  0  0
245 90  1  0  0  0  0
246 90  1  0  0  0  0
247 91  1  0  0  0  0
248 91  1  0  0  0  0
249 92  1  0  0  0  0
250 92  1  0  0  0  0
251 93  1  0  0  0  0
252 93  1  0  0  0  0
253 94  1  0  0  0  0
254 94  1  0  0  0  0
255 95  1  0  0  0  0
256 95  1  0  0  0  0
257 96  1  0  0  0  0
258 97  1  0  0  0  0
259 97  1  0  0  0  0
260 98  1  0  0  0  0
261 98  1  0  0  0  0
262 99  1  0  0  0  0
263 99  1  0  0  0  0
264100  1  0  0  0  0
265100  1  0  0  0  0
266101  1  0  0  0  0
267101  1  0  0  0  0
268102  1  0  0  0  0
269102  1  0  0  0  0
270103  1  0  0  0  0
271104  1  0  0  0  0
272104  1  0  0  0  0
273105  1  0  0  0  0
274105  1  0  0  0  0
275106  1  0  0  0  0
276106  1  0  0  0  0
277107  1  0  0  0  0
278107  1  0  0  0  0
279108  1  0  0  0  0
280108  1  0  0  0  0
281109  1  0  0  0  0
282109  1  0  0  0  0
283110  1  0  0  0  0
284111  1  0  0  0  0
285111  1  0  0  0  0
286112  1  0  0  0  0
287112  1  0  0  0  0
288113  1  0  0  0  0
289113  1  0  0  0  0
290114  1  0  0  0  0
291114  1  0  0  0  0
292115  1  0  0  0  0
293115  1  0  0  0  0
  2 10  1  0  0  0  0
  2 11  1  0  0  0  0
 12 20  1  0  0  0  0
 12 21  1  0  0  0  0
 12 22  1  0  0  0  0
 13 30  1  0  0  0  0
 13 31  1  0  0  0  0
 37 38  1  0  0  0  0
 44 45  1  0  0  0  0
 51 52  1  0  0  0  0
 58 59  1  0  0  0  0
 65 66  1  0  0  0  0
 72 73  1  0  0  0  0
 79 80  1  0  0  0  0
 86 87  1  0  0  0  0
 93 94  1  0  0  0  0
100101  1  0  0  0  0
107108  1  0  0  0  0
114115  1  0  0  0  0
M  END
$$$$
SEYHOU

From CSD data. Using bond type 'Any'. Matching problem. No disordered atoms. Largest molecule.
296315  0  0  0  0  0  0  0  0999 V2000
   -4.8570    0.1280   17.0228 Fe  0  0  0  0  0  0  0  0  0  0  0  0
   -2.8307   -0.4552   17.6745 P   0  0  0  0  0  0  0  0  0  0  0  0
   -4.5245   -0.7867   15.0325 P   0  0  0  0  0  0  0  0  0  0  0  0
   -4.0335    2.0069   16.2901 P   0  0  0  0  0  0  0  0  0  0  0  0
   -6.8081   -0.3743   16.8769 O   0  0  0  0  0  0  0  0  0  0  0  0
   -5.5132    0.6038   18.8617 O   0  0  0  0  0  0  0  0  0  0  0  0
   -1.8864    0.4085   15.0401 B   0  0  0  0  0  0  0  0  0  0  0  0
   -0.5067    0.6138   14.1940 C   0  0  0  0  0  0  0  0  0  0  0  0
   -0.2546    0.0000   12.9627 C   0  0  0  0  0  0  0  0  0  0  0  0
   -0.8935   -0.6178   12.6257 H   0  0  0  0  0  0  0  0  0  0  0  0
    0.8786    0.2475   12.2110 C   0  0  0  0  0  0  0  0  0  0  0  0
    0.9898   -0.1791   11.3685 H   0  0  0  0  0  0  0  0  0  0  0  0
    1.8341    1.0968   12.6702 C   0  0  0  0  0  0  0  0  0  0  0  0
    2.6157    1.2699   12.1573 H   0  0  0  0  0  0  0  0  0  0  0  0
    1.6504    1.6986   13.8848 C   0  0  0  0  0  0  0  0  0  0  0  0
    2.3074    2.2963   14.2217 H   0  0  0  0  0  0  0  0  0  0  0  0
    0.5293    1.4450   14.6087 C   0  0  0  0  0  0  0  0  0  0  0  0
    0.4486    1.8616   15.4586 H   0  0  0  0  0  0  0  0  0  0  0  0
   -1.5629   -0.5434   16.3695 C   0  0  0  0  0  0  0  0  0  0  0  0
   -0.6926   -0.2697   16.7547 H   0  0  0  0  0  0  0  0  0  0  0  0
   -1.4762   -1.4852   16.0752 H   0  0  0  0  0  0  0  0  0  0  0  0
   -3.0473   -0.2656   14.1236 C   0  0  0  0  0  0  0  0  0  0  0  0
   -2.6654   -1.0566   13.6626 H   0  0  0  0  0  0  0  0  0  0  0  0
   -3.3174    0.3844   13.4274 H   0  0  0  0  0  0  0  0  0  0  0  0
   -2.3799    1.9159   15.5438 C   0  0  0  0  0  0  0  0  0  0  0  0
   -2.3578    2.5257   14.7643 H   0  0  0  0  0  0  0  0  0  0  0  0
   -1.7233    2.2520   16.2029 H   0  0  0  0  0  0  0  0  0  0  0  0
   -1.9550    0.5695   18.9469 C   0  0  0  0  0  0  0  0  0  0  0  0
   -1.2061    0.0221   19.2931 H   0  0  0  0  0  0  0  0  0  0  0  0
   -1.5530    1.3383   18.4729 H   0  0  0  0  0  0  0  0  0  0  0  0
   -2.7011    1.1290   20.1597 C   0  0  0  0  0  0  0  0  0  0  0  0
   -3.4762    1.6623   19.8227 H   0  0  0  0  0  0  0  0  0  0  0  0
   -1.7770    2.0789   20.9114 C   0  0  0  0  0  0  0  0  0  0  0  0
   -1.4328    2.7672   20.2874 H   0  0  0  0  0  0  0  0  0  0  0  0
   -1.0037    1.5738   21.2687 H   0  0  0  0  0  0  0  0  0  0  0  0
   -2.5335    2.7652   22.0760 C   0  0  0  0  0  0  0  0  0  0  0  0
   -1.9155    3.3629   22.5667 H   0  0  0  0  0  0  0  0  0  0  0  0
   -3.2714    3.3166   21.7131 H   0  0  0  0  0  0  0  0  0  0  0  0
   -3.0916    1.7368   23.0185 C   0  0  0  0  0  0  0  0  0  0  0  0
   -3.6167    2.1856   23.7276 H   0  0  0  0  0  0  0  0  0  0  0  0
   -2.3488    1.2457   23.4517 H   0  0  0  0  0  0  0  0  0  0  0  0
   -3.9838    0.7527   22.2704 C   0  0  0  0  0  0  0  0  0  0  0  0
   -4.7730    1.2357   21.9149 H   0  0  0  0  0  0  0  0  0  0  0  0
   -4.3081    0.0624   22.9018 H   0  0  0  0  0  0  0  0  0  0  0  0
   -3.2446    0.0725   21.1114 C   0  0  0  0  0  0  0  0  0  0  0  0
   -2.4985   -0.4749   21.4650 H   0  0  0  0  0  0  0  0  0  0  0  0
   -3.8640   -0.5273   20.6244 H   0  0  0  0  0  0  0  0  0  0  0  0
   -2.9635   -2.1071   18.4599 C   0  0  0  0  0  0  0  0  0  0  0  0
   -3.7323   -2.0648   19.0821 H   0  0  0  0  0  0  0  0  0  0  0  0
   -3.2152   -2.7430   17.7434 H   0  0  0  0  0  0  0  0  0  0  0  0
   -1.8180   -2.7450   19.2265 C   0  0  0  0  0  0  0  0  0  0  0  0
   -1.4543   -2.0588   19.8560 H   0  0  0  0  0  0  0  0  0  0  0  0
   -0.6726   -3.2079   18.3359 C   0  0  0  0  0  0  0  0  0  0  0  0
   -0.2589   -2.4170   17.9063 H   0  0  0  0  0  0  0  0  0  0  0  0
   -1.0357   -3.7855   17.6175 H   0  0  0  0  0  0  0  0  0  0  0  0
    0.4052   -3.9787   19.0932 C   0  0  0  0  0  0  0  0  0  0  0  0
    1.0888   -4.3007   18.4525 H   0  0  0  0  0  0  0  0  0  0  0  0
    0.8502   -3.3709   19.7357 H   0  0  0  0  0  0  0  0  0  0  0  0
   -0.1727   -5.1520   19.8338 C   0  0  0  0  0  0  0  0  0  0  0  0
    0.5434   -5.6108   20.3411 H   0  0  0  0  0  0  0  0  0  0  0  0
   -0.5580   -5.7960   19.1895 H   0  0  0  0  0  0  0  0  0  0  0  0
   -1.2483   -4.6791   20.7873 C   0  0  0  0  0  0  0  0  0  0  0  0
   -0.8405   -4.1015   21.4798 H   0  0  0  0  0  0  0  0  0  0  0  0
   -1.6524   -5.4619   21.2391 H   0  0  0  0  0  0  0  0  0  0  0  0
   -2.3353   -3.9002   20.0541 C   0  0  0  0  0  0  0  0  0  0  0  0
   -2.8267   -4.5241   19.4616 H   0  0  0  0  0  0  0  0  0  0  0  0
   -2.9788   -3.5521   20.7207 H   0  0  0  0  0  0  0  0  0  0  0  0
   -4.3142   -2.6042   15.1105 C   0  0  0  0  0  0  0  0  0  0  0  0
   -4.3981   -2.9543   14.1884 H   0  0  0  0  0  0  0  0  0  0  0  0
   -3.3851   -2.7853   15.4049 H   0  0  0  0  0  0  0  0  0  0  0  0
   -5.2446   -3.4293   16.0011 C   0  0  0  0  0  0  0  0  0  0  0  0
   -5.2924   -2.9765   16.8917 H   0  0  0  0  0  0  0  0  0  0  0  0
   -4.6945   -4.8199   16.2177 C   0  0  0  0  0  0  0  0  0  0  0  0
   -4.6129   -5.2768   15.3419 H   0  0  0  0  0  0  0  0  0  0  0  0
   -3.7892   -4.7515   16.6102 H   0  0  0  0  0  0  0  0  0  0  0  0
   -5.5668   -5.6551   17.1305 C   0  0  0  0  0  0  0  0  0  0  0  0
   -5.5856   -5.2486   18.0322 H   0  0  0  0  0  0  0  0  0  0  0  0
   -5.1854   -6.5648   17.2101 H   0  0  0  0  0  0  0  0  0  0  0  0
   -6.9758   -5.7417   16.5825 C   0  0  0  0  0  0  0  0  0  0  0  0
   -6.9672   -6.2307   15.7234 H   0  0  0  0  0  0  0  0  0  0  0  0
   -7.5460   -6.2428   17.2157 H   0  0  0  0  0  0  0  0  0  0  0  0
   -7.5469   -4.3591   16.3695 C   0  0  0  0  0  0  0  0  0  0  0  0
   -7.6338   -3.9022   17.2435 H   0  0  0  0  0  0  0  0  0  0  0  0
   -8.4530   -4.4355   15.9752 H   0  0  0  0  0  0  0  0  0  0  0  0
   -6.6693   -3.5400   15.4586 C   0  0  0  0  0  0  0  0  0  0  0  0
   -7.0542   -2.6323   15.3605 H   0  0  0  0  0  0  0  0  0  0  0  0
   -6.6466   -3.9586   14.5624 H   0  0  0  0  0  0  0  0  0  0  0  0
   -5.9387   -0.5232   13.8977 C   0  0  0  0  0  0  0  0  0  0  0  0
   -6.7532   -0.8291   14.3699 H   0  0  0  0  0  0  0  0  0  0  0  0
   -6.0315    0.4528   13.7681 H   0  0  0  0  0  0  0  0  0  0  0  0
   -5.9494   -1.1753   12.4906 C   0  0  0  0  0  0  0  0  0  0  0  0
   -5.3957   -2.0065   12.5350 H   0  0  0  0  0  0  0  0  0  0  0  0
   -7.3684   -1.5798   12.1073 C   0  0  0  0  0  0  0  0  0  0  0  0
   -7.7120   -2.2178   12.7812 H   0  0  0  0  0  0  0  0  0  0  0  0
   -7.9468   -0.7768   12.1314 H   0  0  0  0  0  0  0  0  0  0  0  0
   -7.4703   -2.2117   10.7445 C   0  0  0  0  0  0  0  0  0  0  0  0
   -8.4222   -2.3768   10.5298 H   0  0  0  0  0  0  0  0  0  0  0  0
   -7.0023   -3.0852   10.7519 H   0  0  0  0  0  0  0  0  0  0  0  0
   -6.8565   -1.3162    9.6762 C   0  0  0  0  0  0  0  0  0  0  0  0
   -6.8535   -1.7931    8.8078 H   0  0  0  0  0  0  0  0  0  0  0  0
   -7.4080   -0.5011    9.5744 H   0  0  0  0  0  0  0  0  0  0  0  0
   -5.4505   -0.9257   10.0298 C   0  0  0  0  0  0  0  0  0  0  0  0
   -5.1113   -0.2817    9.3596 H   0  0  0  0  0  0  0  0  0  0  0  0
   -4.8722   -1.7287   10.0021 H   0  0  0  0  0  0  0  0  0  0  0  0
   -5.3712   -0.2918   11.4241 C   0  0  0  0  0  0  0  0  0  0  0  0
   -4.4245   -0.1006   11.6407 H   0  0  0  0  0  0  0  0  0  0  0  0
   -5.8589    0.5695   11.4167 H   0  0  0  0  0  0  0  0  0  0  0  0
   -4.9290    2.8074   14.9605 C   0  0  0  0  0  0  0  0  0  0  0  0
   -4.5917    3.7352   14.8939 H   0  0  0  0  0  0  0  0  0  0  0  0
   -4.6770    2.3506   14.1181 H   0  0  0  0  0  0  0  0  0  0  0  0
   -6.4713    2.8779   14.9994 C   0  0  0  0  0  0  0  0  0  0  0  0
   -6.8214    1.9884   15.2938 H   0  0  0  0  0  0  0  0  0  0  0  0
   -7.0340    3.1818   13.6144 C   0  0  0  0  0  0  0  0  0  0  0  0
   -6.6498    4.0371   13.2941 H   0  0  0  0  0  0  0  0  0  0  0  0
   -6.7466    2.4714   12.9886 H   0  0  0  0  0  0  0  0  0  0  0  0
   -8.5215    3.2824   13.5811 C   0  0  0  0  0  0  0  0  0  0  0  0
   -8.9157    2.4029   13.8089 H   0  0  0  0  0  0  0  0  0  0  0  0
   -8.8163    3.5239   12.6683 H   0  0  0  0  0  0  0  0  0  0  0  0
   -9.0170    4.3309   14.5698 C   0  0  0  0  0  0  0  0  0  0  0  0
  -10.0051    4.3309   14.5847 H   0  0  0  0  0  0  0  0  0  0  0  0
   -8.7122    5.2265   14.2829 H   0  0  0  0  0  0  0  0  0  0  0  0
   -8.4829    4.0310   15.9622 C   0  0  0  0  0  0  0  0  0  0  0  0
   -8.7749    4.7435   16.5843 H   0  0  0  0  0  0  0  0  0  0  0  0
   -8.8626    3.1737   16.2788 H   0  0  0  0  0  0  0  0  0  0  0  0
   -6.9686    3.9405   15.9807 C   0  0  0  0  0  0  0  0  0  0  0  0
   -6.6631    3.7151   16.8935 H   0  0  0  0  0  0  0  0  0  0  0  0
   -6.5831    4.8199   15.7363 H   0  0  0  0  0  0  0  0  0  0  0  0
   -3.8830    3.2784   17.6212 C   0  0  0  0  0  0  0  0  0  0  0  0
   -4.6787    3.1757   18.2026 H   0  0  0  0  0  0  0  0  0  0  0  0
   -3.0992    3.0228   18.1693 H   0  0  0  0  0  0  0  0  0  0  0  0
   -3.7433    4.7696   17.3305 C   0  0  0  0  0  0  0  0  0  0  0  0
   -4.6082    5.0957   16.9472 H   0  0  0  0  0  0  0  0  0  0  0  0
   -3.4977    5.5143   18.6618 C   0  0  0  0  0  0  0  0  0  0  0  0
   -4.2640    5.3512   19.2654 H   0  0  0  0  0  0  0  0  0  0  0  0
   -2.6890    5.1379   19.0932 H   0  0  0  0  0  0  0  0  0  0  0  0
   -3.3145    7.0035   18.4951 C   0  0  0  0  0  0  0  0  0  0  0  0
   -3.0902    7.4060   19.3709 H   0  0  0  0  0  0  0  0  0  0  0  0
   -4.1645    7.4040   18.1841 H   0  0  0  0  0  0  0  0  0  0  0  0
   -2.2247    7.3255   17.5082 C   0  0  0  0  0  0  0  0  0  0  0  0
   -1.3511    7.0417   17.8767 H   0  0  0  0  0  0  0  0  0  0  0  0
   -2.1908    8.3056   17.3638 H   0  0  0  0  0  0  0  0  0  0  0  0
   -2.4616    6.6332   16.1899 C   0  0  0  0  0  0  0  0  0  0  0  0
   -3.2746    7.0055   15.7659 H   0  0  0  0  0  0  0  0  0  0  0  0
   -1.6968    6.8063   15.5863 H   0  0  0  0  0  0  0  0  0  0  0  0
   -2.6278    5.1419   16.3714 C   0  0  0  0  0  0  0  0  0  0  0  0
   -1.7763    4.7616   16.7065 H   0  0  0  0  0  0  0  0  0  0  0  0
   -2.8136    4.7294   15.4901 H   0  0  0  0  0  0  0  0  0  0  0  0
   -7.4173   -0.2797   17.9730 C   0  0  0  0  0  0  0  0  0  0  0  0
   -9.2808   -0.1280   20.0082 Fe  0  0  0  0  0  0  0  0  0  0  0  0
  -11.3071    0.4552   19.3565 P   0  0  0  0  0  0  0  0  0  0  0  0
   -9.6133    0.7867   21.9984 P   0  0  0  0  0  0  0  0  0  0  0  0
  -10.1043   -2.0069   20.7409 P   0  0  0  0  0  0  0  0  0  0  0  0
   -7.3297    0.3743   20.1541 O   0  0  0  0  0  0  0  0  0  0  0  0
   -8.6246   -0.6037   18.1693 O   0  0  0  0  0  0  0  0  0  0  0  0
  -12.2514   -0.4085   21.9908 B   0  0  0  0  0  0  0  0  0  0  0  0
  -13.6311   -0.6138   22.8370 C   0  0  0  0  0  0  0  0  0  0  0  0
  -13.8832    0.0000   24.0683 C   0  0  0  0  0  0  0  0  0  0  0  0
  -13.2443    0.6178   24.4053 H   0  0  0  0  0  0  0  0  0  0  0  0
  -15.0164   -0.2475   24.8200 C   0  0  0  0  0  0  0  0  0  0  0  0
  -15.1276    0.1791   25.6625 H   0  0  0  0  0  0  0  0  0  0  0  0
  -15.9719   -1.0968   24.3608 C   0  0  0  0  0  0  0  0  0  0  0  0
  -16.7535   -1.2699   24.8737 H   0  0  0  0  0  0  0  0  0  0  0  0
  -15.7882   -1.6985   23.1462 C   0  0  0  0  0  0  0  0  0  0  0  0
  -16.4452   -2.2963   22.8092 H   0  0  0  0  0  0  0  0  0  0  0  0
  -14.6671   -1.4450   22.4223 C   0  0  0  0  0  0  0  0  0  0  0  0
  -14.5864   -1.8616   21.5724 H   0  0  0  0  0  0  0  0  0  0  0  0
  -12.5749    0.5434   20.6614 C   0  0  0  0  0  0  0  0  0  0  0  0
  -13.4451    0.2697   20.2763 H   0  0  0  0  0  0  0  0  0  0  0  0
  -12.6616    1.4852   20.9558 H   0  0  0  0  0  0  0  0  0  0  0  0
  -11.0905    0.2657   22.9074 C   0  0  0  0  0  0  0  0  0  0  0  0
  -11.4724    1.0566   23.3684 H   0  0  0  0  0  0  0  0  0  0  0  0
  -10.8204   -0.3844   23.6035 H   0  0  0  0  0  0  0  0  0  0  0  0
  -11.7579   -1.9159   21.4872 C   0  0  0  0  0  0  0  0  0  0  0  0
  -11.7799   -2.5257   22.2667 H   0  0  0  0  0  0  0  0  0  0  0  0
  -12.4145   -2.2520   20.8281 H   0  0  0  0  0  0  0  0  0  0  0  0
  -12.1828   -0.5695   18.0841 C   0  0  0  0  0  0  0  0  0  0  0  0
  -12.9317   -0.0221   17.7378 H   0  0  0  0  0  0  0  0  0  0  0  0
  -12.5848   -1.3383   18.5581 H   0  0  0  0  0  0  0  0  0  0  0  0
  -11.4367   -1.1290   16.8713 C   0  0  0  0  0  0  0  0  0  0  0  0
  -10.6616   -1.6623   17.2083 H   0  0  0  0  0  0  0  0  0  0  0  0
  -12.3608   -2.0789   16.1196 C   0  0  0  0  0  0  0  0  0  0  0  0
  -12.7050   -2.7672   16.7436 H   0  0  0  0  0  0  0  0  0  0  0  0
  -13.1341   -1.5738   15.7622 H   0  0  0  0  0  0  0  0  0  0  0  0
  -11.6043   -2.7652   14.9550 C   0  0  0  0  0  0  0  0  0  0  0  0
  -12.2223   -3.3629   14.4643 H   0  0  0  0  0  0  0  0  0  0  0  0
  -10.8663   -3.3166   15.3179 H   0  0  0  0  0  0  0  0  0  0  0  0
  -11.0462   -1.7368   14.0125 C   0  0  0  0  0  0  0  0  0  0  0  0
  -10.5211   -2.1856   13.3034 H   0  0  0  0  0  0  0  0  0  0  0  0
  -11.7890   -1.2457   13.5793 H   0  0  0  0  0  0  0  0  0  0  0  0
  -10.1540   -0.7527   14.7606 C   0  0  0  0  0  0  0  0  0  0  0  0
   -9.3648   -1.2357   15.1160 H   0  0  0  0  0  0  0  0  0  0  0  0
   -9.8297   -0.0624   14.1292 H   0  0  0  0  0  0  0  0  0  0  0  0
  -10.8932   -0.0724   15.9196 C   0  0  0  0  0  0  0  0  0  0  0  0
  -11.6393    0.4750   15.5660 H   0  0  0  0  0  0  0  0  0  0  0  0
  -10.2738    0.5273   16.4066 H   0  0  0  0  0  0  0  0  0  0  0  0
  -11.1743    2.1071   18.5710 C   0  0  0  0  0  0  0  0  0  0  0  0
  -10.4055    2.0648   17.9489 H   0  0  0  0  0  0  0  0  0  0  0  0
  -10.9226    2.7430   19.2876 H   0  0  0  0  0  0  0  0  0  0  0  0
  -12.3198    2.7451   17.8045 C   0  0  0  0  0  0  0  0  0  0  0  0
  -12.6835    2.0588   17.1750 H   0  0  0  0  0  0  0  0  0  0  0  0
  -13.4652    3.2079   18.6951 C   0  0  0  0  0  0  0  0  0  0  0  0
  -13.8789    2.4170   19.1247 H   0  0  0  0  0  0  0  0  0  0  0  0
  -13.1021    3.7855   19.4135 H   0  0  0  0  0  0  0  0  0  0  0  0
  -14.5430    3.9787   17.9378 C   0  0  0  0  0  0  0  0  0  0  0  0
  -15.2266    4.3007   18.5784 H   0  0  0  0  0  0  0  0  0  0  0  0
  -14.9880    3.3709   17.2953 H   0  0  0  0  0  0  0  0  0  0  0  0
  -13.9650    5.1520   17.1972 C   0  0  0  0  0  0  0  0  0  0  0  0
  -14.6812    5.6109   16.6899 H   0  0  0  0  0  0  0  0  0  0  0  0
  -13.5798    5.7960   17.8415 H   0  0  0  0  0  0  0  0  0  0  0  0
  -12.8895    4.6791   16.2436 C   0  0  0  0  0  0  0  0  0  0  0  0
  -13.2973    4.1015   15.5512 H   0  0  0  0  0  0  0  0  0  0  0  0
  -12.4854    5.4619   15.7919 H   0  0  0  0  0  0  0  0  0  0  0  0
  -11.8025    3.9002   16.9769 C   0  0  0  0  0  0  0  0  0  0  0  0
  -11.3111    4.5241   17.5694 H   0  0  0  0  0  0  0  0  0  0  0  0
  -11.1590    3.5521   16.3103 H   0  0  0  0  0  0  0  0  0  0  0  0
   -9.8236    2.6042   21.9205 C   0  0  0  0  0  0  0  0  0  0  0  0
   -9.7397    2.9544   22.8426 H   0  0  0  0  0  0  0  0  0  0  0  0
  -10.7527    2.7853   21.6261 H   0  0  0  0  0  0  0  0  0  0  0  0
   -8.8932    3.4293   21.0299 C   0  0  0  0  0  0  0  0  0  0  0  0
   -8.8454    2.9765   20.1393 H   0  0  0  0  0  0  0  0  0  0  0  0
   -9.4433    4.8199   20.8133 C   0  0  0  0  0  0  0  0  0  0  0  0
   -9.5249    5.2768   21.6890 H   0  0  0  0  0  0  0  0  0  0  0  0
  -10.3486    4.7515   20.4207 H   0  0  0  0  0  0  0  0  0  0  0  0
   -8.5710    5.6551   19.9005 C   0  0  0  0  0  0  0  0  0  0  0  0
   -8.5522    5.2486   18.9987 H   0  0  0  0  0  0  0  0  0  0  0  0
   -8.9524    6.5648   19.8208 H   0  0  0  0  0  0  0  0  0  0  0  0
   -7.1620    5.7417   20.4485 C   0  0  0  0  0  0  0  0  0  0  0  0
   -7.1706    6.2307   21.3076 H   0  0  0  0  0  0  0  0  0  0  0  0
   -6.5918    6.2428   19.8153 H   0  0  0  0  0  0  0  0  0  0  0  0
   -6.5909    4.3591   20.6614 C   0  0  0  0  0  0  0  0  0  0  0  0
   -6.5040    3.9022   19.7875 H   0  0  0  0  0  0  0  0  0  0  0  0
   -5.6848    4.4356   21.0558 H   0  0  0  0  0  0  0  0  0  0  0  0
   -7.4685    3.5400   21.5724 C   0  0  0  0  0  0  0  0  0  0  0  0
   -7.0836    2.6324   21.6705 H   0  0  0  0  0  0  0  0  0  0  0  0
   -7.4912    3.9586   22.4685 H   0  0  0  0  0  0  0  0  0  0  0  0
   -8.1991    0.5233   23.1333 C   0  0  0  0  0  0  0  0  0  0  0  0
   -7.3846    0.8292   22.6611 H   0  0  0  0  0  0  0  0  0  0  0  0
   -8.1063   -0.4528   23.2629 H   0  0  0  0  0  0  0  0  0  0  0  0
   -8.1884    1.1753   24.5404 C   0  0  0  0  0  0  0  0  0  0  0  0
   -8.7421    2.0065   24.4960 H   0  0  0  0  0  0  0  0  0  0  0  0
   -6.7694    1.5798   24.9237 C   0  0  0  0  0  0  0  0  0  0  0  0
   -6.4258    2.2178   24.2497 H   0  0  0  0  0  0  0  0  0  0  0  0
   -6.1910    0.7768   24.8996 H   0  0  0  0  0  0  0  0  0  0  0  0
   -6.6675    2.2117   26.2864 C   0  0  0  0  0  0  0  0  0  0  0  0
   -5.7156    2.3768   26.5012 H   0  0  0  0  0  0  0  0  0  0  0  0
   -7.1355    3.0852   26.2790 H   0  0  0  0  0  0  0  0  0  0  0  0
   -7.2813    1.3162   27.3548 C   0  0  0  0  0  0  0  0  0  0  0  0
   -7.2843    1.7931   28.2232 H   0  0  0  0  0  0  0  0  0  0  0  0
   -6.7298    0.5011   27.4566 H   0  0  0  0  0  0  0  0  0  0  0  0
   -8.6873    0.9258   27.0011 C   0  0  0  0  0  0  0  0  0  0  0  0
   -9.0264    0.2818   27.6714 H   0  0  0  0  0  0  0  0  0  0  0  0
   -9.2656    1.7287   27.0289 H   0  0  0  0  0  0  0  0  0  0  0  0
   -8.7666    0.2918   25.6069 C   0  0  0  0  0  0  0  0  0  0  0  0
   -9.7133    0.1006   25.3903 H   0  0  0  0  0  0  0  0  0  0  0  0
   -8.2789   -0.5695   25.6143 H   0  0  0  0  0  0  0  0  0  0  0  0
   -9.2088   -2.8074   22.0705 C   0  0  0  0  0  0  0  0  0  0  0  0
   -9.5461   -3.7352   22.1371 H   0  0  0  0  0  0  0  0  0  0  0  0
   -9.4608   -2.3506   22.9129 H   0  0  0  0  0  0  0  0  0  0  0  0
   -7.6665   -2.8779   22.0316 C   0  0  0  0  0  0  0  0  0  0  0  0
   -7.3164   -1.9883   21.7372 H   0  0  0  0  0  0  0  0  0  0  0  0
   -7.1038   -3.1818   23.4165 C   0  0  0  0  0  0  0  0  0  0  0  0
   -7.4880   -4.0371   23.7369 H   0  0  0  0  0  0  0  0  0  0  0  0
   -7.3912   -2.4713   24.0424 H   0  0  0  0  0  0  0  0  0  0  0  0
   -5.6163   -3.2824   23.4499 C   0  0  0  0  0  0  0  0  0  0  0  0
   -5.2221   -2.4029   23.2221 H   0  0  0  0  0  0  0  0  0  0  0  0
   -5.3215   -3.5239   24.3627 H   0  0  0  0  0  0  0  0  0  0  0  0
   -5.1208   -4.3309   22.4611 C   0  0  0  0  0  0  0  0  0  0  0  0
   -4.1327   -4.3309   22.4463 H   0  0  0  0  0  0  0  0  0  0  0  0
   -5.4256   -5.2265   22.7481 H   0  0  0  0  0  0  0  0  0  0  0  0
   -5.6549   -4.0310   21.0688 C   0  0  0  0  0  0  0  0  0  0  0  0
   -5.3629   -4.7435   20.4467 H   0  0  0  0  0  0  0  0  0  0  0  0
   -5.2752   -3.1737   20.7522 H   0  0  0  0  0  0  0  0  0  0  0  0
   -7.1692   -3.9405   21.0503 C   0  0  0  0  0  0  0  0  0  0  0  0
   -7.4747   -3.7151   20.1374 H   0  0  0  0  0  0  0  0  0  0  0  0
   -7.5547   -4.8199   21.2947 H   0  0  0  0  0  0  0  0  0  0  0  0
  -10.2548   -3.2784   19.4098 C   0  0  0  0  0  0  0  0  0  0  0  0
   -9.4591   -3.1757   18.8284 H   0  0  0  0  0  0  0  0  0  0  0  0
  -11.0386   -3.0228   18.8617 H   0  0  0  0  0  0  0  0  0  0  0  0
  -10.3945   -4.7696   19.7005 C   0  0  0  0  0  0  0  0  0  0  0  0
   -9.5296   -5.0956   20.0838 H   0  0  0  0  0  0  0  0  0  0  0  0
  -10.6401   -5.5142   18.3692 C   0  0  0  0  0  0  0  0  0  0  0  0
   -9.8738   -5.3512   17.7656 H   0  0  0  0  0  0  0  0  0  0  0  0
  -11.4488   -5.1379   17.9378 H   0  0  0  0  0  0  0  0  0  0  0  0
  -10.8233   -7.0035   18.5359 C   0  0  0  0  0  0  0  0  0  0  0  0
  -11.0476   -7.4060   17.6601 H   0  0  0  0  0  0  0  0  0  0  0  0
   -9.9733   -7.4040   18.8469 H   0  0  0  0  0  0  0  0  0  0  0  0
  -11.9131   -7.3255   19.5227 C   0  0  0  0  0  0  0  0  0  0  0  0
  -12.7867   -7.0417   19.1543 H   0  0  0  0  0  0  0  0  0  0  0  0
  -11.9470   -8.3056   19.6672 H   0  0  0  0  0  0  0  0  0  0  0  0
  -11.6762   -6.6332   20.8410 C   0  0  0  0  0  0  0  0  0  0  0  0
  -10.8631   -7.0055   21.2650 H   0  0  0  0  0  0  0  0  0  0  0  0
  -12.4410   -6.8063   21.4446 H   0  0  0  0  0  0  0  0  0  0  0  0
  -11.5100   -5.1419   20.6596 C   0  0  0  0  0  0  0  0  0  0  0  0
  -12.3615   -4.7616   20.3245 H   0  0  0  0  0  0  0  0  0  0  0  0
  -11.3242   -4.7294   21.5409 H   0  0  0  0  0  0  0  0  0  0  0  0
   -6.7205    0.2797   19.0580 C   0  0  0  0  0  0  0  0  0  0  0  0
  1  2  1  0  0  0  0
  2 19  1  0  0  0  0
  3  1  1  0  0  0  0
  4  1  1  0  0  0  0
  5  1  1  0  0  0  0
  6  1  1  0  0  0  0
  7  8  1  0  0  0  0
  8  9  4  0  0  0  0
  9 10  1  0  0  0  0
 11  9  4  0  0  0  0
 12 11  1  0  0  0  0
 13 11  4  0  0  0  0
 14 13  1  0  0  0  0
 15 13  4  0  0  0  0
 16 15  1  0  0  0  0
 17  8  4  0  0  0  0
 18 17  1  0  0  0  0
 19  7  1  0  0  0  0
 20 19  1  0  0  0  0
 21 19  1  0  0  0  0
 22  3  1  0  0  0  0
 23 22  1  0  0  0  0
 24 22  1  0  0  0  0
 25  4  1  0  0  0  0
 26 25  1  0  0  0  0
 27 25  1  0  0  0  0
 28  2  1  0  0  0  0
 29 28  1  0  0  0  0
 30 28  1  0  0  0  0
 31 28  1  0  0  0  0
 32 31  1  0  0  0  0
 33 31  1  0  0  0  0
 34 33  1  0  0  0  0
 35 33  1  0  0  0  0
 36 33  1  0  0  0  0
 37 36  1  0  0  0  0
 38 36  1  0  0  0  0
 39 36  1  0  0  0  0
 40 39  1  0  0  0  0
 41 39  1  0  0  0  0
 42 39  1  0  0  0  0
 43 42  1  0  0  0  0
 44 42  1  0  0  0  0
 45 31  1  0  0  0  0
 46 45  1  0  0  0  0
 47 45  1  0  0  0  0
 48  2  1  0  0  0  0
 49 48  1  0  0  0  0
 50 48  1  0  0  0  0
 51 48  1  0  0  0  0
 52 51  1  0  0  0  0
 53 51  1  0  0  0  0
 54 53  1  0  0  0  0
 55 53  1  0  0  0  0
 56 53  1  0  0  0  0
 57 56  1  0  0  0  0
 58 56  1  0  0  0  0
 59 56  1  0  0  0  0
 60 59  1  0  0  0  0
 61 59  1  0  0  0  0
 62 59  1  0  0  0  0
 63 62  1  0  0  0  0
 64 62  1  0  0  0  0
 65 51  1  0  0  0  0
 66 65  1  0  0  0  0
 67 65  1  0  0  0  0
 68  3  1  0  0  0  0
 69 68  1  0  0  0  0
 70 68  1  0  0  0  0
 71 68  1  0  0  0  0
 72 71  1  0  0  0  0
 73 71  1  0  0  0  0
 74 73  1  0  0  0  0
 75 73  1  0  0  0  0
 76 73  1  0  0  0  0
 77 76  1  0  0  0  0
 78 76  1  0  0  0  0
 79 76  1  0  0  0  0
 80 79  1  0  0  0  0
 81 79  1  0  0  0  0
 82 79  1  0  0  0  0
 83 82  1  0  0  0  0
 84 82  1  0  0  0  0
 85 71  1  0  0  0  0
 86 85  1  0  0  0  0
 87 85  1  0  0  0  0
 88  3  1  0  0  0  0
 89 88  1  0  0  0  0
 90 88  1  0  0  0  0
 91 88  1  0  0  0  0
 92 91  1  0  0  0  0
 93 91  1  0  0  0  0
 94 93  1  0  0  0  0
 95 93  1  0  0  0  0
 96 93  1  0  0  0  0
 97 96  1  0  0  0  0
 98 96  1  0  0  0  0
 99 96  1  0  0  0  0
100 99  1  0  0  0  0
101 99  1  0  0  0  0
102 99  1  0  0  0  0
103102  1  0  0  0  0
104102  1  0  0  0  0
105 91  1  0  0  0  0
106105  1  0  0  0  0
107105  1  0  0  0  0
108  4  1  0  0  0  0
109108  1  0  0  0  0
110108  1  0  0  0  0
111108  1  0  0  0  0
112111  1  0  0  0  0
113111  1  0  0  0  0
114113  1  0  0  0  0
115113  1  0  0  0  0
116113  1  0  0  0  0
117116  1  0  0  0  0
118116  1  0  0  0  0
119116  1  0  0  0  0
120119  1  0  0  0  0
121119  1  0  0  0  0
122119  1  0  0  0  0
123122  1  0  0  0  0
124122  1  0  0  0  0
125111  1  0  0  0  0
126125  1  0  0  0  0
127125  1  0  0  0  0
128  4  1  0  0  0  0
129128  1  0  0  0  0
130128  1  0  0  0  0
131128  1  0  0  0  0
132131  1  0  0  0  0
133131  1  0  0  0  0
134133  1  0  0  0  0
135133  1  0  0  0  0
136133  1  0  0  0  0
137136  1  0  0  0  0
138136  1  0  0  0  0
139136  1  0  0  0  0
140139  1  0  0  0  0
141139  1  0  0  0  0
142139  1  0  0  0  0
143142  1  0  0  0  0
144142  1  0  0  0  0
145131  1  0  0  0  0
146145  1  0  0  0  0
147145  1  0  0  0  0
148  5  8  0  0  0  0
149150  1  0  0  0  0
150167  1  0  0  0  0
151149  1  0  0  0  0
152149  1  0  0  0  0
153149  1  0  0  0  0
154148  8  0  0  0  0
155156  1  0  0  0  0
156157  4  0  0  0  0
157158  1  0  0  0  0
159157  4  0  0  0  0
160159  1  0  0  0  0
161159  4  0  0  0  0
162161  1  0  0  0  0
163161  4  0  0  0  0
164163  1  0  0  0  0
165156  4  0  0  0  0
166165  1  0  0  0  0
167155  1  0  0  0  0
168167  1  0  0  0  0
169167  1  0  0  0  0
170151  1  0  0  0  0
171170  1  0  0  0  0
172170  1  0  0  0  0
173152  1  0  0  0  0
174173  1  0  0  0  0
175173  1  0  0  0  0
176150  1  0  0  0  0
177176  1  0  0  0  0
178176  1  0  0  0  0
179176  1  0  0  0  0
180179  1  0  0  0  0
181179  1  0  0  0  0
182181  1  0  0  0  0
183181  1  0  0  0  0
184181  1  0  0  0  0
185184  1  0  0  0  0
186184  1  0  0  0  0
187184  1  0  0  0  0
188187  1  0  0  0  0
189187  1  0  0  0  0
190187  1  0  0  0  0
191190  1  0  0  0  0
192190  1  0  0  0  0
193179  1  0  0  0  0
194193  1  0  0  0  0
195193  1  0  0  0  0
196150  1  0  0  0  0
197196  1  0  0  0  0
198196  1  0  0  0  0
199196  1  0  0  0  0
200199  1  0  0  0  0
201199  1  0  0  0  0
202201  1  0  0  0  0
203201  1  0  0  0  0
204201  1  0  0  0  0
205204  1  0  0  0  0
206204  1  0  0  0  0
207204  1  0  0  0  0
208207  1  0  0  0  0
209207  1  0  0  0  0
210207  1  0  0  0  0
211210  1  0  0  0  0
212210  1  0  0  0  0
213199  1  0  0  0  0
214213  1  0  0  0  0
215213  1  0  0  0  0
216151  1  0  0  0  0
217216  1  0  0  0  0
218216  1  0  0  0  0
219216  1  0  0  0  0
220219  1  0  0  0  0
221219  1  0  0  0  0
222221  1  0  0  0  0
223221  1  0  0  0  0
224221  1  0  0  0  0
225224  1  0  0  0  0
226224  1  0  0  0  0
227224  1  0  0  0  0
228227  1  0  0  0  0
229227  1  0  0  0  0
230227  1  0  0  0  0
231230  1  0  0  0  0
232230  1  0  0  0  0
233219  1  0  0  0  0
234233  1  0  0  0  0
235233  1  0  0  0  0
236151  1  0  0  0  0
237236  1  0  0  0  0
238236  1  0  0  0  0
239236  1  0  0  0  0
240239  1  0  0  0  0
241239  1  0  0  0  0
242241  1  0  0  0  0
243241  1  0  0  0  0
244241  1  0  0  0  0
245244  1  0  0  0  0
246244  1  0  0  0  0
247244  1  0  0  0  0
248247  1  0  0  0  0
249247  1  0  0  0  0
250247  1  0  0  0  0
251250  1  0  0  0  0
252250  1  0  0  0  0
253239  1  0  0  0  0
254253  1  0  0  0  0
255253  1  0  0  0  0
256152  1  0  0  0  0
257256  1  0  0  0  0
258256  1  0  0  0  0
259256  1  0  0  0  0
260259  1  0  0  0  0
261259  1  0  0  0  0
262261  1  0  0  0  0
263261  1  0  0  0  0
264261  1  0  0  0  0
265264  1  0  0  0  0
266264  1  0  0  0  0
267264  1  0  0  0  0
268267  1  0  0  0  0
269267  1  0  0  0  0
270267  1  0  0  0  0
271270  1  0  0  0  0
272270  1  0  0  0  0
273259  1  0  0  0  0
274273  1  0  0  0  0
275273  1  0  0  0  0
276152  1  0  0  0  0
277276  1  0  0  0  0
278276  1  0  0  0  0
279276  1  0  0  0  0
280279  1  0  0  0  0
281279  1  0  0  0  0
282281  1  0  0  0  0
283281  1  0  0  0  0
284281  1  0  0  0  0
285284  1  0  0  0  0
286284  1  0  0  0  0
287284  1  0  0  0  0
288287  1  0  0  0  0
289287  1  0  0  0  0
290287  1  0  0  0  0
291290  1  0  0  0  0
292290  1  0  0  0  0
293279  1  0  0  0  0
294293  1  0  0  0  0
295293  1  0  0  0  0
296  6  8  0  0  0  0
  7 22  1  0  0  0  0
  7 25  1  0  0  0  0
 15 17  4  0  0  0  0
 42 45  1  0  0  0  0
 62 65  1  0  0  0  0
 82 85  1  0  0  0  0
102105  1  0  0  0  0
122125  1  0  0  0  0
142145  1  0  0  0  0
148296  1  0  0  0  0
149154  1  0  0  0  0
153296  8  0  0  0  0
155170  1  0  0  0  0
155173  1  0  0  0  0
163165  4  0  0  0  0
190193  1  0  0  0  0
210213  1  0  0  0  0
230233  1  0  0  0  0
250253  1  0  0  0  0
270273  1  0  0  0  0
290293  1  0  0  0  0
M  END
$$$$
SIDRON

From CSD data. Using bond type 'Any'. No disordered atoms. Largest molecule.
138167  0  0  0  0  0  0  0  0999 V2000
    4.6078   13.9063    4.6853 Ru  0  0  0  0  0  0  0  0  0  0  0  0
    5.6902   11.1107    4.6022 Ru  0  0  0  0  0  0  0  0  0  0  0  0
    6.2842   13.1281    3.8388 B   0  0  0  0  0  0  0  0  0  0  0  0
    6.3402   12.6917    2.8293 H   0  0  0  0  0  0  0  0  0  0  0  0
    4.8151   15.3451    6.0797 B   0  0  0  0  0  0  0  0  0  0  0  0
    6.4724   13.0298    5.5495 B   0  0  0  0  0  0  0  0  0  0  0  0
    6.3822   14.8555    3.6471 B   0  0  0  0  0  0  0  0  0  0  0  0
    6.3553   15.2342    2.6150 H   0  0  0  0  0  0  0  0  0  0  0  0
    5.6980   16.0010    4.7431 B   0  0  0  0  0  0  0  0  0  0  0  0
    5.3720   16.9491    4.2938 H   0  0  0  0  0  0  0  0  0  0  0  0
    5.8195   14.0542    6.7226 B   0  0  0  0  0  0  0  0  0  0  0  0
    5.5770   13.5992    7.6945 H   0  0  0  0  0  0  0  0  0  0  0  0
    7.6814   13.9126    4.4799 B   0  0  0  0  0  0  0  0  0  0  0  0
    8.6643   13.6063    4.0926 H   0  0  0  0  0  0  0  0  0  0  0  0
    6.4634   15.7278    6.4143 B   0  0  0  0  0  0  0  0  0  0  0  0
    6.7111   16.4836    7.1757 H   0  0  0  0  0  0  0  0  0  0  0  0
    7.4829   14.3017    6.1774 B   0  0  0  0  0  0  0  0  0  0  0  0
    8.3362   14.1273    6.8486 H   0  0  0  0  0  0  0  0  0  0  0  0
    7.4050   15.5610    4.9010 B   0  0  0  0  0  0  0  0  0  0  0  0
    8.1986   16.2901    4.6829 H   0  0  0  0  0  0  0  0  0  0  0  0
   -2.8712   17.3032    8.7574 I   0  0  0  0  0  0  0  0  0  0  0  0
    4.4526    9.9308    2.9361 Cl  0  0  0  0  0  0  0  0  0  0  0  0
    2.6142   14.3061    5.5740 O   0  0  0  0  0  0  0  0  0  0  0  0
    3.6515   15.8529    6.7677 O   0  0  0  0  0  0  0  0  0  0  0  0
    3.2848   14.0040    2.6389 P   0  0  0  0  0  0  0  0  0  0  0  0
    7.4838    9.6868    4.0841 P   0  0  0  0  0  0  0  0  0  0  0  0
    4.7781    9.9537    6.3921 P   0  0  0  0  0  0  0  0  0  0  0  0
    2.5537   15.2030    6.3974 C   0  0  0  0  0  0  0  0  0  0  0  0
    1.3176   15.6926    6.9839 C   0  0  0  0  0  0  0  0  0  0  0  0
    0.1089   15.3060    6.4011 C   0  0  0  0  0  0  0  0  0  0  0  0
    0.1109   14.7439    5.6605 H   0  0  0  0  0  0  0  0  0  0  0  0
   -1.0855   15.7546    6.9162 C   0  0  0  0  0  0  0  0  0  0  0  0
   -1.8938   15.4993    6.5327 H   0  0  0  0  0  0  0  0  0  0  0  0
   -1.0614   16.5657    7.9784 C   0  0  0  0  0  0  0  0  0  0  0  0
    0.1135   16.9267    8.6157 C   0  0  0  0  0  0  0  0  0  0  0  0
    0.0997   17.4541    9.3827 H   0  0  0  0  0  0  0  0  0  0  0  0
    1.3012   16.4866    8.0893 C   0  0  0  0  0  0  0  0  0  0  0  0
    2.1017   16.7341    8.4897 H   0  0  0  0  0  0  0  0  0  0  0  0
    2.7615   15.6567    2.1206 C   0  0  0  0  0  0  0  0  0  0  0  0
    2.6942   16.6671    3.0098 C   0  0  0  0  0  0  0  0  0  0  0  0
    3.0137   16.5348    3.8745 H   0  0  0  0  0  0  0  0  0  0  0  0
    2.1623   17.8996    2.6676 C   0  0  0  0  0  0  0  0  0  0  0  0
    2.1323   18.5829    3.2974 H   0  0  0  0  0  0  0  0  0  0  0  0
    1.6779   18.1118    1.3911 C   0  0  0  0  0  0  0  0  0  0  0  0
    1.3118   18.9324    1.1505 H   0  0  0  0  0  0  0  0  0  0  0  0
    1.7488   17.0972    0.5019 C   0  0  0  0  0  0  0  0  0  0  0  0
    1.4145   17.2274   -0.3572 H   0  0  0  0  0  0  0  0  0  0  0  0
    2.2842   15.9088    0.8140 C   0  0  0  0  0  0  0  0  0  0  0  0
    2.3426   15.2457    0.1654 H   0  0  0  0  0  0  0  0  0  0  0  0
    1.6487   13.1826    2.8782 C   0  0  0  0  0  0  0  0  0  0  0  0
    0.4701   13.8988    2.6808 C   0  0  0  0  0  0  0  0  0  0  0  0
    0.4960   14.7846    2.3988 H   0  0  0  0  0  0  0  0  0  0  0  0
   -0.7590   13.2577    2.9176 C   0  0  0  0  0  0  0  0  0  0  0  0
   -1.5585   13.7176    2.7955 H   0  0  0  0  0  0  0  0  0  0  0  0
   -0.7710   11.9903    3.3181 C   0  0  0  0  0  0  0  0  0  0  0  0
   -1.5887   11.5657    3.4421 H   0  0  0  0  0  0  0  0  0  0  0  0
    0.3371   11.3140    3.5437 C   0  0  0  0  0  0  0  0  0  0  0  0
    0.2968   10.4392    3.8576 H   0  0  0  0  0  0  0  0  0  0  0  0
    1.6051   11.9341    3.3068 C   0  0  0  0  0  0  0  0  0  0  0  0
    2.3926   11.4617    3.4534 H   0  0  0  0  0  0  0  0  0  0  0  0
    3.9710   13.2934    1.0866 C   0  0  0  0  0  0  0  0  0  0  0  0
    4.9287   14.0129    0.4136 C   0  0  0  0  0  0  0  0  0  0  0  0
    5.2206   14.8268    0.7576 H   0  0  0  0  0  0  0  0  0  0  0  0
    5.4505   13.5511   -0.7445 C   0  0  0  0  0  0  0  0  0  0  0  0
    6.1107   14.0384   -1.1806 H   0  0  0  0  0  0  0  0  0  0  0  0
    5.0233   12.3948   -1.2671 C   0  0  0  0  0  0  0  0  0  0  0  0
    5.3829   12.0827   -2.0660 H   0  0  0  0  0  0  0  0  0  0  0  0
    4.0891   11.6999   -0.6448 C   0  0  0  0  0  0  0  0  0  0  0  0
    3.7876   10.9020   -1.0189 H   0  0  0  0  0  0  0  0  0  0  0  0
    3.5566   12.1328    0.5414 C   0  0  0  0  0  0  0  0  0  0  0  0
    2.9083   11.6238    0.9719 H   0  0  0  0  0  0  0  0  0  0  0  0
    8.1778   10.0105    2.3969 C   0  0  0  0  0  0  0  0  0  0  0  0
    7.4299   10.5580    1.3780 C   0  0  0  0  0  0  0  0  0  0  0  0
    6.5554   10.8314    1.5434 H   0  0  0  0  0  0  0  0  0  0  0  0
    7.9618   10.7047    0.1166 C   0  0  0  0  0  0  0  0  0  0  0  0
    7.4579   11.0871   -0.5659 H   0  0  0  0  0  0  0  0  0  0  0  0
    9.2525   10.2775   -0.1222 C   0  0  0  0  0  0  0  0  0  0  0  0
    9.6317   10.4058   -0.9625 H   0  0  0  0  0  0  0  0  0  0  0  0
    9.9520    9.6851    0.8290 C   0  0  0  0  0  0  0  0  0  0  0  0
   10.7933    9.3415    0.6298 H   0  0  0  0  0  0  0  0  0  0  0  0
    9.4598    9.5707    2.1130 C   0  0  0  0  0  0  0  0  0  0  0  0
    9.9856    9.1993    2.7823 H   0  0  0  0  0  0  0  0  0  0  0  0
    8.9970    9.8002    5.1378 C   0  0  0  0  0  0  0  0  0  0  0  0
    9.3295   10.9619    5.7037 C   0  0  0  0  0  0  0  0  0  0  0  0
    8.7519   11.6855    5.6229 H   0  0  0  0  0  0  0  0  0  0  0  0
   10.5232   11.1214    6.4162 C   0  0  0  0  0  0  0  0  0  0  0  0
   10.7346   11.9372    6.8091 H   0  0  0  0  0  0  0  0  0  0  0  0
   11.3820   10.0460    6.5271 C   0  0  0  0  0  0  0  0  0  0  0  0
   12.1872   10.1388    6.9839 H   0  0  0  0  0  0  0  0  0  0  0  0
   11.0600    8.8992    5.9913 C   0  0  0  0  0  0  0  0  0  0  0  0
   11.6400    8.1775    6.0872 H   0  0  0  0  0  0  0  0  0  0  0  0
    9.8673    8.7254    5.2770 C   0  0  0  0  0  0  0  0  0  0  0  0
    9.6600    7.9003    4.8991 H   0  0  0  0  0  0  0  0  0  0  0  0
    7.1334    7.9250    3.9478 C   0  0  0  0  0  0  0  0  0  0  0  0
    6.7404    7.3654    2.7597 C   0  0  0  0  0  0  0  0  0  0  0  0
    6.6866    7.9046    2.0040 H   0  0  0  0  0  0  0  0  0  0  0  0
    6.4284    6.0412    2.6545 C   0  0  0  0  0  0  0  0  0  0  0  0
    6.1851    5.6746    1.8348 H   0  0  0  0  0  0  0  0  0  0  0  0
    6.4792    5.2579    3.7899 C   0  0  0  0  0  0  0  0  0  0  0  0
    6.2259    4.3647    3.7373 H   0  0  0  0  0  0  0  0  0  0  0  0
    6.8859    5.7538    4.9630 C   0  0  0  0  0  0  0  0  0  0  0  0
    6.9437    5.2069    5.7131 H   0  0  0  0  0  0  0  0  0  0  0  0
    7.2221    7.1021    5.0476 C   0  0  0  0  0  0  0  0  0  0  0  0
    7.5099    7.4524    5.8597 H   0  0  0  0  0  0  0  0  0  0  0  0
    5.9941    9.2344    7.5705 C   0  0  0  0  0  0  0  0  0  0  0  0
    7.0597    9.9904    7.9803 C   0  0  0  0  0  0  0  0  0  0  0  0
    7.1428   10.8670    7.6814 H   0  0  0  0  0  0  0  0  0  0  0  0
    8.0233    9.4613    8.8413 C   0  0  0  0  0  0  0  0  0  0  0  0
    8.7397    9.9861    9.1195 H   0  0  0  0  0  0  0  0  0  0  0  0
    7.9121    8.2025    9.2662 C   0  0  0  0  0  0  0  0  0  0  0  0
    8.5624    7.8568    9.8358 H   0  0  0  0  0  0  0  0  0  0  0  0
    6.8817    7.4189    8.8939 C   0  0  0  0  0  0  0  0  0  0  0  0
    6.8256    6.5392    9.1910 H   0  0  0  0  0  0  0  0  0  0  0  0
    5.8770    7.9564    8.0329 C   0  0  0  0  0  0  0  0  0  0  0  0
    5.1452    7.4372    7.7885 H   0  0  0  0  0  0  0  0  0  0  0  0
    3.6575    8.5508    6.1173 C   0  0  0  0  0  0  0  0  0  0  0  0
    3.9102    7.6037    5.1491 C   0  0  0  0  0  0  0  0  0  0  0  0
    4.5984    7.7551    4.5419 H   0  0  0  0  0  0  0  0  0  0  0  0
    3.1751    6.4419    5.0495 C   0  0  0  0  0  0  0  0  0  0  0  0
    3.3757    5.8141    4.3915 H   0  0  0  0  0  0  0  0  0  0  0  0
    2.1288    6.2135    5.9443 C   0  0  0  0  0  0  0  0  0  0  0  0
    1.6127    5.4409    5.8898 H   0  0  0  0  0  0  0  0  0  0  0  0
    1.8850    7.1596    6.9050 C   0  0  0  0  0  0  0  0  0  0  0  0
    1.1858    7.0197    7.5028 H   0  0  0  0  0  0  0  0  0  0  0  0
    2.6054    8.2664    7.0140 C   0  0  0  0  0  0  0  0  0  0  0  0
    2.4134    8.8691    7.6964 H   0  0  0  0  0  0  0  0  0  0  0  0
    3.7449   11.0062    7.4765 C   0  0  0  0  0  0  0  0  0  0  0  0
    4.0130   11.2326    8.7774 C   0  0  0  0  0  0  0  0  0  0  0  0
    4.7819   10.8609    9.1477 H   0  0  0  0  0  0  0  0  0  0  0  0
    3.1827   12.0047    9.5914 C   0  0  0  0  0  0  0  0  0  0  0  0
    3.4038   12.1951   10.4749 H   0  0  0  0  0  0  0  0  0  0  0  0
    1.9960   12.4767    9.0086 C   0  0  0  0  0  0  0  0  0  0  0  0
    1.3979   12.9613    9.5312 H   0  0  0  0  0  0  0  0  0  0  0  0
    1.7084   12.2531    7.7415 C   0  0  0  0  0  0  0  0  0  0  0  0
    0.9212   12.5889    7.3768 H   0  0  0  0  0  0  0  0  0  0  0  0
    2.5780   11.5177    6.9520 C   0  0  0  0  0  0  0  0  0  0  0  0
    2.3718   11.3669    6.0590 H   0  0  0  0  0  0  0  0  0  0  0  0
    6.5497   12.0029    5.9406 H   0  0  0  0  0  0  0  0  0  0  0  0
  1  2  1  0  0  0  0
  2  3  1  0  0  0  0
  3  1  1  0  0  0  0
  4  3  1  0  0  0  0
  5  1  1  0  0  0  0
  6  1  1  0  0  0  0
  7  1  1  0  0  0  0
  8  7  1  0  0  0  0
  9  1  1  0  0  0  0
 10  9  1  0  0  0  0
 11  1  1  0  0  0  0
 12 11  1  0  0  0  0
 13  3  1  0  0  0  0
 14 13  1  0  0  0  0
 15  5  1  0  0  0  0
 16 15  1  0  0  0  0
 17  6  1  0  0  0  0
 18 17  1  0  0  0  0
 19  7  1  0  0  0  0
 20 19  1  0  0  0  0
 21 34  1  0  0  0  0
 22  2  1  0  0  0  0
 23  1  1  0  0  0  0
 24  5  1  0  0  0  0
 25  1  1  0  0  0  0
 26  2  1  0  0  0  0
 27  2  1  0  0  0  0
 28 23  8  0  0  0  0
 29 28  1  0  0  0  0
 30 29  4  0  0  0  0
 31 30  1  0  0  0  0
 32 30  4  0  0  0  0
 33 32  1  0  0  0  0
 34 32  4  0  0  0  0
 35 34  4  0  0  0  0
 36 35  1  0  0  0  0
 37 29  4  0  0  0  0
 38 37  1  0  0  0  0
 39 25  1  0  0  0  0
 40 39  4  0  0  0  0
 41 40  1  0  0  0  0
 42 40  4  0  0  0  0
 43 42  1  0  0  0  0
 44 42  4  0  0  0  0
 45 44  1  0  0  0  0
 46 44  4  0  0  0  0
 47 46  1  0  0  0  0
 48 39  4  0  0  0  0
 49 48  1  0  0  0  0
 50 25  1  0  0  0  0
 51 50  4  0  0  0  0
 52 51  1  0  0  0  0
 53 51  4  0  0  0  0
 54 53  1  0  0  0  0
 55 53  4  0  0  0  0
 56 55  1  0  0  0  0
 57 55  4  0  0  0  0
 58 57  1  0  0  0  0
 59 50  4  0  0  0  0
 60 59  1  0  0  0  0
 61 25  1  0  0  0  0
 62 61  4  0  0  0  0
 63 62  1  0  0  0  0
 64 62  4  0  0  0  0
 65 64  1  0  0  0  0
 66 64  4  0  0  0  0
 67 66  1  0  0  0  0
 68 66  4  0  0  0  0
 69 68  1  0  0  0  0
 70 61  4  0  0  0  0
 71 70  1  0  0  0  0
 72 26  1  0  0  0  0
 73 72  4  0  0  0  0
 74 73  1  0  0  0  0
 75 73  4  0  0  0  0
 76 75  1  0  0  0  0
 77 75  4  0  0  0  0
 78 77  1  0  0  0  0
 79 77  4  0  0  0  0
 80 79  1  0  0  0  0
 81 72  4  0  0  0  0
 82 81  1  0  0  0  0
 83 26  1  0  0  0  0
 84 83  4  0  0  0  0
 85 84  1  0  0  0  0
 86 84  4  0  0  0  0
 87 86  1  0  0  0  0
 88 86  4  0  0  0  0
 89 88  1  0  0  0  0
 90 88  4  0  0  0  0
 91 90  1  0  0  0  0
 92 83  4  0  0  0  0
 93 92  1  0  0  0  0
 94 26  1  0  0  0  0
 95 94  4  0  0  0  0
 96 95  1  0  0  0  0
 97 95  4  0  0  0  0
 98 97  1  0  0  0  0
 99 97  4  0  0  0  0
100 99  1  0  0  0  0
101 99  4  0  0  0  0
102101  1  0  0  0  0
103 94  4  0  0  0  0
104103  1  0  0  0  0
105 27  1  0  0  0  0
106105  4  0  0  0  0
107106  1  0  0  0  0
108106  4  0  0  0  0
109108  1  0  0  0  0
110108  4  0  0  0  0
111110  1  0  0  0  0
112110  4  0  0  0  0
113112  1  0  0  0  0
114105  4  0  0  0  0
115114  1  0  0  0  0
116 27  1  0  0  0  0
117116  4  0  0  0  0
118117  1  0  0  0  0
119117  4  0  0  0  0
120119  1  0  0  0  0
121119  4  0  0  0  0
122121  1  0  0  0  0
123121  4  0  0  0  0
124123  1  0  0  0  0
125116  4  0  0  0  0
126125  1  0  0  0  0
127 27  1  0  0  0  0
128127  4  0  0  0  0
129128  1  0  0  0  0
130128  4  0  0  0  0
131130  1  0  0  0  0
132130  4  0  0  0  0
133132  1  0  0  0  0
134132  4  0  0  0  0
135134  1  0  0  0  0
136127  4  0  0  0  0
137136  1  0  0  0  0
138  6  1  0  0  0  0
  2  6  1  0  0  0  0
  3  6  1  0  0  0  0
  3  7  1  0  0  0  0
  5  9  1  0  0  0  0
  5 11  1  0  0  0  0
  6 11  1  0  0  0  0
  6 13  1  0  0  0  0
  7  9  1  0  0  0  0
  7 13  1  0  0  0  0
  9 15  1  0  0  0  0
  9 19  1  0  0  0  0
 11 15  1  0  0  0  0
 11 17  1  0  0  0  0
 13 17  1  0  0  0  0
 13 19  1  0  0  0  0
 15 17  1  0  0  0  0
 15 19  1  0  0  0  0
 17 19  1  0  0  0  0
 24 28  8  0  0  0  0
 35 37  4  0  0  0  0
 46 48  4  0  0  0  0
 57 59  4  0  0  0  0
 68 70  4  0  0  0  0
 79 81  4  0  0  0  0
 90 92  4  0  0  0  0
101103  4  0  0  0  0
112114  4  0  0  0  0
123125  4  0  0  0  0
134136  4  0  0  0  0
M  END
$$$$
SIFBOZ

From CSD data. Using bond type 'Any'. No disordered atoms. Largest molecule.
 85 89  0  0  0  0  0  0  0  0999 V2000
    6.6667   14.2544    8.4902 P   0  0  0  0  0  0  0  0  0  0  0  0
    7.7238   13.7538    2.2006 P   0  0  0  0  0  0  0  0  0  0  0  0
    6.8869   13.6724    7.0041 O   0  0  0  0  0  0  0  0  0  0  0  0
    6.8305   14.4802    3.4098 N   0  0  0  0  0  0  0  0  0  0  0  0
    5.6978   15.8904    8.5873 B   0  0  0  0  0  0  0  0  0  0  0  0
    6.2725   16.6793    8.1184 H   0  0  0  0  0  0  0  0  0  0  0  0
    5.5187   16.1431    9.6250 H   0  0  0  0  0  0  0  0  0  0  0  0
    4.7510   15.7802    8.0735 H   0  0  0  0  0  0  0  0  0  0  0  0
    7.9320   11.8701    2.4795 B   0  0  0  0  0  0  0  0  0  0  0  0
    8.5471   11.6985    3.3689 H   0  0  0  0  0  0  0  0  0  0  0  0
    8.4182   11.4233    1.6060 H   0  0  0  0  0  0  0  0  0  0  0  0
    6.9479   11.4118    2.6226 H   0  0  0  0  0  0  0  0  0  0  0  0
    5.8349   12.8420    9.2458 C   0  0  0  0  0  0  0  0  0  0  0  0
    4.5566   13.0047    9.7552 C   0  0  0  0  0  0  0  0  0  0  0  0
    4.1366   13.8572    9.7230 H   0  0  0  0  0  0  0  0  0  0  0  0
    3.8913   11.9240   10.3125 C   0  0  0  0  0  0  0  0  0  0  0  0
    3.0146   12.0414   10.6597 H   0  0  0  0  0  0  0  0  0  0  0  0
    4.4865   10.6826   10.3713 C   0  0  0  0  0  0  0  0  0  0  0  0
    4.0253    9.9461   10.7535 H   0  0  0  0  0  0  0  0  0  0  0  0
    5.7581   10.5229    9.8694 C   0  0  0  0  0  0  0  0  0  0  0  0
    6.1742    9.6703    9.9078 H   0  0  0  0  0  0  0  0  0  0  0  0
    6.4366   11.5903    9.3092 C   0  0  0  0  0  0  0  0  0  0  0  0
    7.3148   11.4679    8.9669 H   0  0  0  0  0  0  0  0  0  0  0  0
    8.3119   14.3571    9.2213 C   0  0  0  0  0  0  0  0  0  0  0  0
    8.5714   15.2936   10.2245 C   0  0  0  0  0  0  0  0  0  0  0  0
    7.8768   15.8625   10.5365 H   0  0  0  0  0  0  0  0  0  0  0  0
    9.8488   15.3930   10.7647 C   0  0  0  0  0  0  0  0  0  0  0  0
   10.0249   16.0300   11.4466 H   0  0  0  0  0  0  0  0  0  0  0  0
   10.8616   14.5690   10.3172 C   0  0  0  0  0  0  0  0  0  0  0  0
   11.7297   14.6373   10.6975 H   0  0  0  0  0  0  0  0  0  0  0  0
   10.6179   13.6439    9.3178 C   0  0  0  0  0  0  0  0  0  0  0  0
   11.3213   13.0898    9.0005 H   0  0  0  0  0  0  0  0  0  0  0  0
    9.3417   13.5275    8.7776 C   0  0  0  0  0  0  0  0  0  0  0  0
    9.1714   12.8807    8.1044 H   0  0  0  0  0  0  0  0  0  0  0  0
    7.1148   14.5673    5.8673 C   0  0  0  0  0  0  0  0  0  0  0  0
    6.5884   15.4072    6.0013 H   0  0  0  0  0  0  0  0  0  0  0  0
    8.5692   14.9110    5.7610 C   0  0  0  0  0  0  0  0  0  0  0  0
    9.5299   13.9360    5.5241 C   0  0  0  0  0  0  0  0  0  0  0  0
    9.2563   13.0386    5.3726 H   0  0  0  0  0  0  0  0  0  0  0  0
   10.8760   14.2484    5.5050 C   0  0  0  0  0  0  0  0  0  0  0  0
   11.5197   13.5691    5.3446 H   0  0  0  0  0  0  0  0  0  0  0  0
   11.2836   15.5433    5.7184 C   0  0  0  0  0  0  0  0  0  0  0  0
   12.2083   15.7602    5.7044 H   0  0  0  0  0  0  0  0  0  0  0  0
   10.3443   16.5291    5.9550 C   0  0  0  0  0  0  0  0  0  0  0  0
   10.6276   17.4227    6.1077 H   0  0  0  0  0  0  0  0  0  0  0  0
    8.9929   16.2247    5.9714 C   0  0  0  0  0  0  0  0  0  0  0  0
    8.3531   16.9102    6.1259 H   0  0  0  0  0  0  0  0  0  0  0  0
    6.5333   13.7923    4.6723 C   0  0  0  0  0  0  0  0  0  0  0  0
    6.9751   12.8957    4.6445 H   0  0  0  0  0  0  0  0  0  0  0  0
    5.0305   13.5671    4.8329 C   0  0  0  0  0  0  0  0  0  0  0  0
    4.6906   13.0694    4.0606 H   0  0  0  0  0  0  0  0  0  0  0  0
    4.5750   14.4327    4.8909 H   0  0  0  0  0  0  0  0  0  0  0  0
    4.8624   13.0537    5.6512 H   0  0  0  0  0  0  0  0  0  0  0  0
    6.4445   15.8833    3.3248 C   0  0  0  0  0  0  0  0  0  0  0  0
    5.5547   16.0019    3.7189 H   0  0  0  0  0  0  0  0  0  0  0  0
    6.4252   16.1596    2.3845 H   0  0  0  0  0  0  0  0  0  0  0  0
    7.0937   16.4310    3.8141 H   0  0  0  0  0  0  0  0  0  0  0  0
    9.3016   14.6115    1.9642 C   0  0  0  0  0  0  0  0  0  0  0  0
    9.3708   15.9630    1.6298 C   0  0  0  0  0  0  0  0  0  0  0  0
    8.5724   16.4709    1.5486 H   0  0  0  0  0  0  0  0  0  0  0  0
   10.5986   16.5693    1.4170 C   0  0  0  0  0  0  0  0  0  0  0  0
   10.6386   17.4942    1.2042 H   0  0  0  0  0  0  0  0  0  0  0  0
   11.7372   15.8494    1.5094 C   0  0  0  0  0  0  0  0  0  0  0  0
   12.5734   16.2689    1.3414 H   0  0  0  0  0  0  0  0  0  0  0  0
   11.6996   14.5207    1.8441 C   0  0  0  0  0  0  0  0  0  0  0  0
   12.5064   14.0263    1.9197 H   0  0  0  0  0  0  0  0  0  0  0  0
   10.4754   13.9001    2.0737 C   0  0  0  0  0  0  0  0  0  0  0  0
   10.4495   12.9796    2.3089 H   0  0  0  0  0  0  0  0  0  0  0  0
    6.8401   14.1451    0.6351 C   0  0  0  0  0  0  0  0  0  0  0  0
    6.8309   15.1403    0.5335 H   0  0  0  0  0  0  0  0  0  0  0  0
    7.5843   13.5633   -0.5699 C   0  0  0  0  0  0  0  0  0  0  0  0
    8.5086   13.9167   -0.5895 H   0  0  0  0  0  0  0  0  0  0  0  0
    7.6333   12.5784   -0.4845 H   0  0  0  0  0  0  0  0  0  0  0  0
    6.8714   13.9270   -1.8690 C   0  0  0  0  0  0  0  0  0  0  0  0
    6.9005   14.9087   -1.9967 H   0  0  0  0  0  0  0  0  0  0  0  0
    7.3405   13.5046   -2.6310 H   0  0  0  0  0  0  0  0  0  0  0  0
    5.4230   13.4618   -1.8452 C   0  0  0  0  0  0  0  0  0  0  0  0
    5.3949   12.4735   -1.8091 H   0  0  0  0  0  0  0  0  0  0  0  0
    4.9701   13.7523   -2.6758 H   0  0  0  0  0  0  0  0  0  0  0  0
    4.6879   14.0376   -0.6350 C   0  0  0  0  0  0  0  0  0  0  0  0
    4.6420   15.0226   -0.7169 H   0  0  0  0  0  0  0  0  0  0  0  0
    3.7621   13.6888   -0.6161 H   0  0  0  0  0  0  0  0  0  0  0  0
    5.3914   13.6703    0.6603 C   0  0  0  0  0  0  0  0  0  0  0  0
    5.3662   12.6883    0.7841 H   0  0  0  0  0  0  0  0  0  0  0  0
    4.9190   14.0884    1.4240 H   0  0  0  0  0  0  0  0  0  0  0  0
  1  3  1  0  0  0  0
  2  4  1  0  0  0  0
  3 35  1  0  0  0  0
  4 48  1  0  0  0  0
  5  1  1  0  0  0  0
  6  5  1  0  0  0  0
  7  5  1  0  0  0  0
  8  5  1  0  0  0  0
  9  2  1  0  0  0  0
 10  9  1  0  0  0  0
 11  9  1  0  0  0  0
 12  9  1  0  0  0  0
 13  1  1  0  0  0  0
 14 13  4  0  0  0  0
 15 14  1  0  0  0  0
 16 14  4  0  0  0  0
 17 16  1  0  0  0  0
 18 16  4  0  0  0  0
 19 18  1  0  0  0  0
 20 18  4  0  0  0  0
 21 20  1  0  0  0  0
 22 13  4  0  0  0  0
 23 22  1  0  0  0  0
 24  1  1  0  0  0  0
 25 24  4  0  0  0  0
 26 25  1  0  0  0  0
 27 25  4  0  0  0  0
 28 27  1  0  0  0  0
 29 27  4  0  0  0  0
 30 29  1  0  0  0  0
 31 29  4  0  0  0  0
 32 31  1  0  0  0  0
 33 24  4  0  0  0  0
 34 33  1  0  0  0  0
 35 36  1  0  0  0  0
 37 35  1  0  0  0  0
 38 37  4  0  0  0  0
 39 38  1  0  0  0  0
 40 38  4  0  0  0  0
 41 40  1  0  0  0  0
 42 40  4  0  0  0  0
 43 42  1  0  0  0  0
 44 42  4  0  0  0  0
 45 44  1  0  0  0  0
 46 37  4  0  0  0  0
 47 46  1  0  0  0  0
 48 35  1  0  0  0  0
 49 48  1  0  0  0  0
 50 48  1  0  0  0  0
 51 50  1  0  0  0  0
 52 50  1  0  0  0  0
 53 50  1  0  0  0  0
 54  4  1  0  0  0  0
 55 54  1  0  0  0  0
 56 54  1  0  0  0  0
 57 54  1  0  0  0  0
 58  2  1  0  0  0  0
 59 58  4  0  0  0  0
 60 59  1  0  0  0  0
 61 59  4  0  0  0  0
 62 61  1  0  0  0  0
 63 61  4  0  0  0  0
 64 63  1  0  0  0  0
 65 63  4  0  0  0  0
 66 65  1  0  0  0  0
 67 58  4  0  0  0  0
 68 67  1  0  0  0  0
 69  2  1  0  0  0  0
 70 69  1  0  0  0  0
 71 69  1  0  0  0  0
 72 71  1  0  0  0  0
 73 71  1  0  0  0  0
 74 71  1  0  0  0  0
 75 74  1  0  0  0  0
 76 74  1  0  0  0  0
 77 74  1  0  0  0  0
 78 77  1  0  0  0  0
 79 77  1  0  0  0  0
 80 77  1  0  0  0  0
 81 80  1  0  0  0  0
 82 80  1  0  0  0  0
 83 69  1  0  0  0  0
 84 83  1  0  0  0  0
 85 83  1  0  0  0  0
 20 22  4  0  0  0  0
 31 33  4  0  0  0  0
 44 46  4  0  0  0  0
 65 67  4  0  0  0  0
 80 83  1  0  0  0  0
M  END
$$$$
SIFSOR

From CSD data. Using bond type 'Any'. No disordered atoms. Largest molecule.
162188  0  0  0  0  0  0  0  0999 V2000
   11.1156    5.6537   17.8913 C   0  0  0  0  0  0  0  0  0  0  0  0
   10.2082    6.8429   17.6750 C   0  0  0  0  0  0  0  0  0  0  0  0
    9.7286    7.0509   16.8826 H   0  0  0  0  0  0  0  0  0  0  0  0
   10.2154    7.5888   18.8819 C   0  0  0  0  0  0  0  0  0  0  0  0
    9.7364    8.3946   19.0336 H   0  0  0  0  0  0  0  0  0  0  0  0
   11.0360    6.9507   19.8139 C   0  0  0  0  0  0  0  0  0  0  0  0
   11.2003    7.2387   20.7034 H   0  0  0  0  0  0  0  0  0  0  0  0
   11.5830    5.7891   19.1912 C   0  0  0  0  0  0  0  0  0  0  0  0
   12.1882    5.1873   19.6097 H   0  0  0  0  0  0  0  0  0  0  0  0
   13.6058    7.5239   16.7633 C   0  0  0  0  0  0  0  0  0  0  0  0
   13.7388    6.8906   16.0678 H   0  0  0  0  0  0  0  0  0  0  0  0
   12.7841    8.6970   16.6622 C   0  0  0  0  0  0  0  0  0  0  0  0
   12.2959    8.9726   15.8960 H   0  0  0  0  0  0  0  0  0  0  0  0
   12.8304    9.3560   17.8772 C   0  0  0  0  0  0  0  0  0  0  0  0
   12.3810   10.1638   18.0976 H   0  0  0  0  0  0  0  0  0  0  0  0
   13.6755    8.5930   18.7323 C   0  0  0  0  0  0  0  0  0  0  0  0
   13.8931    8.7952   19.6340 H   0  0  0  0  0  0  0  0  0  0  0  0
   14.1548    7.4524   17.9742 C   0  0  0  0  0  0  0  0  0  0  0  0
   14.7492    6.7781   18.2835 H   0  0  0  0  0  0  0  0  0  0  0  0
   10.2280    3.1034   16.8340 C   0  0  0  0  0  0  0  0  0  0  0  0
    9.1902    3.1950   17.7519 C   0  0  0  0  0  0  0  0  0  0  0  0
    9.1372    3.9474   18.3300 H   0  0  0  0  0  0  0  0  0  0  0  0
    8.2375    2.2002   17.8287 C   0  0  0  0  0  0  0  0  0  0  0  0
    7.5342    2.2699   18.4655 H   0  0  0  0  0  0  0  0  0  0  0  0
    8.2941    1.1178   16.9998 C   0  0  0  0  0  0  0  0  0  0  0  0
    7.6208    0.4502   17.0382 H   0  0  0  0  0  0  0  0  0  0  0  0
    9.3388    0.9985   16.1042 C   0  0  0  0  0  0  0  0  0  0  0  0
    9.3937    0.2422   15.5321 H   0  0  0  0  0  0  0  0  0  0  0  0
   10.3113    1.9856   16.0436 C   0  0  0  0  0  0  0  0  0  0  0  0
   11.0464    1.8865   15.4472 H   0  0  0  0  0  0  0  0  0  0  0  0
   11.1168    5.1797   15.0631 C   0  0  0  0  0  0  0  0  0  0  0  0
    9.8038    5.5144   14.7619 C   0  0  0  0  0  0  0  0  0  0  0  0
    9.1065    5.2312   15.3421 H   0  0  0  0  0  0  0  0  0  0  0  0
    9.4889    6.2574   13.6257 C   0  0  0  0  0  0  0  0  0  0  0  0
   10.5530    6.6608   12.7965 C   0  0  0  0  0  0  0  0  0  0  0  0
   11.8629    6.2411   13.0152 C   0  0  0  0  0  0  0  0  0  0  0  0
   12.1381    5.5087   14.1710 C   0  0  0  0  0  0  0  0  0  0  0  0
   13.0299    5.2312   14.3515 H   0  0  0  0  0  0  0  0  0  0  0  0
    8.0479    6.4615   13.2093 C   0  0  0  0  0  0  0  0  0  0  0  0
    7.8710    7.4285   13.0940 H   0  0  0  0  0  0  0  0  0  0  0  0
    7.4490    6.1229   13.9209 H   0  0  0  0  0  0  0  0  0  0  0  0
   12.9340    6.4862   11.9801 C   0  0  0  0  0  0  0  0  0  0  0  0
   13.8064    6.1896   12.3380 H   0  0  0  0  0  0  0  0  0  0  0  0
   12.9936    7.4571   11.7962 H   0  0  0  0  0  0  0  0  0  0  0  0
   12.6410    5.7443   10.6863 C   0  0  0  0  0  0  0  0  0  0  0  0
   12.3978    4.3804   10.7247 C   0  0  0  0  0  0  0  0  0  0  0  0
   12.4594    3.9169   11.5515 H   0  0  0  0  0  0  0  0  0  0  0  0
   12.0663    3.6814    9.5744 C   0  0  0  0  0  0  0  0  0  0  0  0
   11.9484    2.7391    9.6047 H   0  0  0  0  0  0  0  0  0  0  0  0
   11.9053    4.3699    8.3796 C   0  0  0  0  0  0  0  0  0  0  0  0
   11.6282    3.9026    7.5993 H   0  0  0  0  0  0  0  0  0  0  0  0
    7.7531    5.7290   11.9013 C   0  0  0  0  0  0  0  0  0  0  0  0
   12.5386    6.4014    9.4616 C   0  0  0  0  0  0  0  0  0  0  0  0
   14.2215    8.0380    9.2024 C   0  0  0  0  0  0  0  0  0  0  0  0
   14.5366    7.6307    8.3554 H   0  0  0  0  0  0  0  0  0  0  0  0
   14.7444    7.6507    9.9484 H   0  0  0  0  0  0  0  0  0  0  0  0
   14.4117    9.5448    9.1579 C   0  0  0  0  0  0  0  0  0  0  0  0
   13.9455    9.9120    9.9504 H   0  0  0  0  0  0  0  0  0  0  0  0
   15.3775    9.7117    9.2974 H   0  0  0  0  0  0  0  0  0  0  0  0
   13.8159   10.0904    7.9106 C   0  0  0  0  0  0  0  0  0  0  0  0
   12.8404   10.0293    7.9611 H   0  0  0  0  0  0  0  0  0  0  0  0
   14.1368    9.5734    7.1424 H   0  0  0  0  0  0  0  0  0  0  0  0
   14.0818   11.0288    7.8055 H   0  0  0  0  0  0  0  0  0  0  0  0
    9.9192    8.8000   11.9518 C   0  0  0  0  0  0  0  0  0  0  0  0
    9.3218    8.8229   12.7443 H   0  0  0  0  0  0  0  0  0  0  0  0
    9.4097    9.1557   11.1816 H   0  0  0  0  0  0  0  0  0  0  0  0
   11.0841    9.6612   12.2025 C   0  0  0  0  0  0  0  0  0  0  0  0
   11.7034    9.6097   11.4323 H   0  0  0  0  0  0  0  0  0  0  0  0
   11.5668    9.3417   13.0051 H   0  0  0  0  0  0  0  0  0  0  0  0
   10.6386   11.1271   12.4128 C   0  0  0  0  0  0  0  0  0  0  0  0
   10.3104   11.4933   11.5637 H   0  0  0  0  0  0  0  0  0  0  0  0
   11.4007   11.6573   12.7241 H   0  0  0  0  0  0  0  0  0  0  0  0
    9.9248   11.1576   13.0799 H   0  0  0  0  0  0  0  0  0  0  0  0
   10.2928    7.4276   11.6811 O   0  0  0  0  0  0  0  0  0  0  0  0
   12.8118    7.7680    9.3894 O   0  0  0  0  0  0  0  0  0  0  0  0
   11.5061    4.4024   16.6586 P   0  0  0  0  0  0  0  0  0  0  0  0
   12.1079    7.3982   18.1469 Fe  0  0  0  0  0  0  0  0  0  0  0  0
   13.2631    3.6566   16.7956 B   0  0  0  0  0  0  0  0  0  0  0  0
   13.3714    2.9537   16.1224 H   0  0  0  0  0  0  0  0  0  0  0  0
   13.3875    3.2751   17.6892 H   0  0  0  0  0  0  0  0  0  0  0  0
   13.9281    4.3595   16.6460 H   0  0  0  0  0  0  0  0  0  0  0  0
    8.7805    5.6537    2.3249 C   0  0  0  0  0  0  0  0  0  0  0  0
    9.6879    6.8429    2.5412 C   0  0  0  0  0  0  0  0  0  0  0  0
   10.1675    7.0509    3.3337 H   0  0  0  0  0  0  0  0  0  0  0  0
    9.6806    7.5888    1.3343 C   0  0  0  0  0  0  0  0  0  0  0  0
   10.1597    8.3946    1.1826 H   0  0  0  0  0  0  0  0  0  0  0  0
    8.8601    6.9507    0.4023 C   0  0  0  0  0  0  0  0  0  0  0  0
    8.6958    7.2387   -0.4872 H   0  0  0  0  0  0  0  0  0  0  0  0
    8.3130    5.7891    1.0250 C   0  0  0  0  0  0  0  0  0  0  0  0
    7.7079    5.1873    0.6065 H   0  0  0  0  0  0  0  0  0  0  0  0
    9.6681    3.1034    3.3822 C   0  0  0  0  0  0  0  0  0  0  0  0
   10.7058    3.1950    2.4644 C   0  0  0  0  0  0  0  0  0  0  0  0
   10.7589    3.9474    1.8862 H   0  0  0  0  0  0  0  0  0  0  0  0
   11.6586    2.2002    2.3875 C   0  0  0  0  0  0  0  0  0  0  0  0
   12.3619    2.2699    1.7507 H   0  0  0  0  0  0  0  0  0  0  0  0
   11.6020    1.1178    3.2164 C   0  0  0  0  0  0  0  0  0  0  0  0
   12.2753    0.4502    3.1780 H   0  0  0  0  0  0  0  0  0  0  0  0
   10.5572    0.9985    4.1120 C   0  0  0  0  0  0  0  0  0  0  0  0
   10.5024    0.2422    4.6841 H   0  0  0  0  0  0  0  0  0  0  0  0
    9.5848    1.9856    4.1726 C   0  0  0  0  0  0  0  0  0  0  0  0
    8.8496    1.8865    4.7690 H   0  0  0  0  0  0  0  0  0  0  0  0
    8.7792    5.1797    5.1531 C   0  0  0  0  0  0  0  0  0  0  0  0
   10.0923    5.5144    5.4543 C   0  0  0  0  0  0  0  0  0  0  0  0
   10.7895    5.2312    4.8741 H   0  0  0  0  0  0  0  0  0  0  0  0
   10.4072    6.2574    6.5905 C   0  0  0  0  0  0  0  0  0  0  0  0
    9.3430    6.6608    7.4198 C   0  0  0  0  0  0  0  0  0  0  0  0
    8.0332    6.2411    7.2010 C   0  0  0  0  0  0  0  0  0  0  0  0
    7.7580    5.5087    6.0453 C   0  0  0  0  0  0  0  0  0  0  0  0
    6.8661    5.2312    5.8647 H   0  0  0  0  0  0  0  0  0  0  0  0
   11.8481    6.4615    7.0069 C   0  0  0  0  0  0  0  0  0  0  0  0
   12.0250    7.4285    7.1222 H   0  0  0  0  0  0  0  0  0  0  0  0
   12.4471    6.1229    6.2953 H   0  0  0  0  0  0  0  0  0  0  0  0
    6.9620    6.4862    8.2361 C   0  0  0  0  0  0  0  0  0  0  0  0
    6.0897    6.1896    7.8783 H   0  0  0  0  0  0  0  0  0  0  0  0
    6.9025    7.4571    8.4201 H   0  0  0  0  0  0  0  0  0  0  0  0
    7.2550    5.7443    9.5299 C   0  0  0  0  0  0  0  0  0  0  0  0
    7.4982    4.3804    9.4915 C   0  0  0  0  0  0  0  0  0  0  0  0
    7.4366    3.9169    8.6647 H   0  0  0  0  0  0  0  0  0  0  0  0
    7.8298    3.6814   10.6418 C   0  0  0  0  0  0  0  0  0  0  0  0
    7.9477    2.7391   10.6115 H   0  0  0  0  0  0  0  0  0  0  0  0
    7.9908    4.3699   11.8366 C   0  0  0  0  0  0  0  0  0  0  0  0
    8.2679    3.9026   12.6169 H   0  0  0  0  0  0  0  0  0  0  0  0
   12.1430    5.7290    8.3149 C   0  0  0  0  0  0  0  0  0  0  0  0
    7.3574    6.4014   10.7546 C   0  0  0  0  0  0  0  0  0  0  0  0
    5.6746    8.0380   11.0138 C   0  0  0  0  0  0  0  0  0  0  0  0
    5.3594    7.6307   11.8609 H   0  0  0  0  0  0  0  0  0  0  0  0
    5.1517    7.6507   10.2678 H   0  0  0  0  0  0  0  0  0  0  0  0
    5.4843    9.5448   11.0583 C   0  0  0  0  0  0  0  0  0  0  0  0
    5.9505    9.9120   10.2658 H   0  0  0  0  0  0  0  0  0  0  0  0
    4.5186    9.7117   10.9188 H   0  0  0  0  0  0  0  0  0  0  0  0
    6.0802   10.0904   12.3056 C   0  0  0  0  0  0  0  0  0  0  0  0
    7.0557   10.0293   12.2551 H   0  0  0  0  0  0  0  0  0  0  0  0
    5.7592    9.5734   13.0738 H   0  0  0  0  0  0  0  0  0  0  0  0
    5.8143   11.0288   12.4107 H   0  0  0  0  0  0  0  0  0  0  0  0
    9.9768    8.8000    8.2644 C   0  0  0  0  0  0  0  0  0  0  0  0
   10.5742    8.8229    7.4719 H   0  0  0  0  0  0  0  0  0  0  0  0
   10.4863    9.1557    9.0346 H   0  0  0  0  0  0  0  0  0  0  0  0
    8.8119    9.6612    8.0137 C   0  0  0  0  0  0  0  0  0  0  0  0
    8.1926    9.6097    8.7839 H   0  0  0  0  0  0  0  0  0  0  0  0
    8.3293    9.3417    7.2111 H   0  0  0  0  0  0  0  0  0  0  0  0
    9.2574   11.1271    7.8035 C   0  0  0  0  0  0  0  0  0  0  0  0
    9.5856   11.4933    8.6525 H   0  0  0  0  0  0  0  0  0  0  0  0
    8.4954   11.6573    7.4921 H   0  0  0  0  0  0  0  0  0  0  0  0
    9.9713   11.1576    7.1363 H   0  0  0  0  0  0  0  0  0  0  0  0
    9.6033    7.4276    8.5351 O   0  0  0  0  0  0  0  0  0  0  0  0
    7.0843    7.7680   10.8268 O   0  0  0  0  0  0  0  0  0  0  0  0
    8.3899    4.4024    3.5576 P   0  0  0  0  0  0  0  0  0  0  0  0
    6.6330    3.6566    3.4206 B   0  0  0  0  0  0  0  0  0  0  0  0
    6.5247    2.9537    4.0938 H   0  0  0  0  0  0  0  0  0  0  0  0
    6.5085    3.2751    2.5270 H   0  0  0  0  0  0  0  0  0  0  0  0
    5.9680    4.3595    3.5702 H   0  0  0  0  0  0  0  0  0  0  0  0
    6.2903    7.5239    3.4529 C   0  0  0  0  0  0  0  0  0  0  0  0
    6.1573    6.8906    4.1484 H   0  0  0  0  0  0  0  0  0  0  0  0
    7.1119    8.6970    3.5540 C   0  0  0  0  0  0  0  0  0  0  0  0
    7.6002    8.9726    4.3202 H   0  0  0  0  0  0  0  0  0  0  0  0
    7.0657    9.3560    2.3390 C   0  0  0  0  0  0  0  0  0  0  0  0
    7.5150   10.1638    2.1187 H   0  0  0  0  0  0  0  0  0  0  0  0
    6.2206    8.5930    1.4839 C   0  0  0  0  0  0  0  0  0  0  0  0
    6.0029    8.7952    0.5822 H   0  0  0  0  0  0  0  0  0  0  0  0
    5.7413    7.4524    2.2420 C   0  0  0  0  0  0  0  0  0  0  0  0
    5.1469    6.7781    1.9327 H   0  0  0  0  0  0  0  0  0  0  0  0
    7.7882    7.3982    2.0693 Fe  0  0  0  0  0  0  0  0  0  0  0  0
  1  2  4  0  0  0  0
  2  3  1  0  0  0  0
  4  2  4  0  0  0  0
  5  4  1  0  0  0  0
  6  4  4  0  0  0  0
  7  6  1  0  0  0  0
  8  1  4  0  0  0  0
  9  8  1  0  0  0  0
 10 11  1  0  0  0  0
 12 10  4  0  0  0  0
 13 12  1  0  0  0  0
 14 12  4  0  0  0  0
 15 14  1  0  0  0  0
 16 14  4  0  0  0  0
 17 16  1  0  0  0  0
 18 10  4  0  0  0  0
 19 18  1  0  0  0  0
 20 21  4  0  0  0  0
 21 22  1  0  0  0  0
 23 21  4  0  0  0  0
 24 23  1  0  0  0  0
 25 23  4  0  0  0  0
 26 25  1  0  0  0  0
 27 25  4  0  0  0  0
 28 27  1  0  0  0  0
 29 20  4  0  0  0  0
 30 29  1  0  0  0  0
 31 32  4  0  0  0  0
 32 33  1  0  0  0  0
 34 32  4  0  0  0  0
 35 34  4  0  0  0  0
 36 35  4  0  0  0  0
 37 31  4  0  0  0  0
 38 37  1  0  0  0  0
 39 34  1  0  0  0  0
 40 39  1  0  0  0  0
 41 39  1  0  0  0  0
 42 36  1  0  0  0  0
 43 42  1  0  0  0  0
 44 42  1  0  0  0  0
 45 42  1  0  0  0  0
 46 45  4  0  0  0  0
 47 46  1  0  0  0  0
 48 46  4  0  0  0  0
 49 48  1  0  0  0  0
 50 48  4  0  0  0  0
 51 50  1  0  0  0  0
 52 39  1  0  0  0  0
 53 45  4  0  0  0  0
 54 55  1  0  0  0  0
 56 54  1  0  0  0  0
 57 54  1  0  0  0  0
 58 57  1  0  0  0  0
 59 57  1  0  0  0  0
 60 57  1  0  0  0  0
 61 60  1  0  0  0  0
 62 60  1  0  0  0  0
 63 60  1  0  0  0  0
 64 65  1  0  0  0  0
 66 64  1  0  0  0  0
 67 64  1  0  0  0  0
 68 67  1  0  0  0  0
 69 67  1  0  0  0  0
 70 67  1  0  0  0  0
 71 70  1  0  0  0  0
 72 70  1  0  0  0  0
 73 70  1  0  0  0  0
 74 35  1  0  0  0  0
 75 53  1  0  0  0  0
 76  1  1  0  0  0  0
 77  1  8  0  0  0  0
 78 76  1  0  0  0  0
 79 78  1  0  0  0  0
 80 78  1  0  0  0  0
 81 78  1  0  0  0  0
 82 83  4  0  0  0  0
 83 84  1  0  0  0  0
 85 83  4  0  0  0  0
 86 85  1  0  0  0  0
 87 85  4  0  0  0  0
 88 87  1  0  0  0  0
 89 82  4  0  0  0  0
 90 89  1  0  0  0  0
 91 92  4  0  0  0  0
 92 93  1  0  0  0  0
 94 92  4  0  0  0  0
 95 94  1  0  0  0  0
 96 94  4  0  0  0  0
 97 96  1  0  0  0  0
 98 96  4  0  0  0  0
 99 98  1  0  0  0  0
100 91  4  0  0  0  0
101100  1  0  0  0  0
102103  4  0  0  0  0
103104  1  0  0  0  0
105103  4  0  0  0  0
106105  4  0  0  0  0
107106  4  0  0  0  0
108102  4  0  0  0  0
109108  1  0  0  0  0
110105  1  0  0  0  0
111110  1  0  0  0  0
112110  1  0  0  0  0
113107  1  0  0  0  0
114113  1  0  0  0  0
115113  1  0  0  0  0
116113  1  0  0  0  0
117116  4  0  0  0  0
118117  1  0  0  0  0
119117  4  0  0  0  0
120119  1  0  0  0  0
121 52  4  0  0  0  0
122121  1  0  0  0  0
123 50  4  0  0  0  0
124 52  4  0  0  0  0
125126  1  0  0  0  0
127125  1  0  0  0  0
128125  1  0  0  0  0
129128  1  0  0  0  0
130128  1  0  0  0  0
131128  1  0  0  0  0
132131  1  0  0  0  0
133131  1  0  0  0  0
134131  1  0  0  0  0
135136  1  0  0  0  0
137135  1  0  0  0  0
138135  1  0  0  0  0
139138  1  0  0  0  0
140138  1  0  0  0  0
141138  1  0  0  0  0
142141  1  0  0  0  0
143141  1  0  0  0  0
144141  1  0  0  0  0
145106  1  0  0  0  0
146124  1  0  0  0  0
147 82  1  0  0  0  0
148147  1  0  0  0  0
149148  1  0  0  0  0
150148  1  0  0  0  0
151148  1  0  0  0  0
152153  1  0  0  0  0
154152  4  0  0  0  0
155154  1  0  0  0  0
156154  4  0  0  0  0
157156  1  0  0  0  0
158156  4  0  0  0  0
159158  1  0  0  0  0
160152  4  0  0  0  0
161160  1  0  0  0  0
162 82  8  0  0  0  0
  2 77  8  0  0  0  0
  4 77  8  0  0  0  0
  6  8  4  0  0  0  0
  6 77  8  0  0  0  0
  8 77  8  0  0  0  0
 10 77  8  0  0  0  0
 12 77  8  0  0  0  0
 14 77  8  0  0  0  0
 16 18  4  0  0  0  0
 16 77  8  0  0  0  0
 18 77  8  0  0  0  0
 20 76  1  0  0  0  0
 27 29  4  0  0  0  0
 31 76  1  0  0  0  0
 36 37  4  0  0  0  0
 53123  4  0  0  0  0
 54 75  1  0  0  0  0
 64 74  1  0  0  0  0
 83162  8  0  0  0  0
 85162  8  0  0  0  0
 87 89  4  0  0  0  0
 87162  8  0  0  0  0
 89162  8  0  0  0  0
 91147  1  0  0  0  0
 98100  4  0  0  0  0
102147  1  0  0  0  0
107108  4  0  0  0  0
110123  1  0  0  0  0
116124  4  0  0  0  0
119121  4  0  0  0  0
125146  1  0  0  0  0
135145  1  0  0  0  0
152162  8  0  0  0  0
154162  8  0  0  0  0
156162  8  0  0  0  0
158160  4  0  0  0  0
158162  8  0  0  0  0
160162  8  0  0  0  0
M  END
$$$$
SIMZIX

From CSD data. Using bond type 'Any'. No disordered atoms. Largest molecule.
136146  0  0  0  0  0  0  0  0999 V2000
    0.7506   -1.0760   11.2789 P   0  0  0  0  0  0  0  0  0  0  0  0
    9.4559   -4.5852   15.8864 P   0  0  0  0  0  0  0  0  0  0  0  0
    6.2124   -1.7024   11.4424 O   0  0  0  0  0  0  0  0  0  0  0  0
    5.0706   -4.6006   11.6368 O   0  0  0  0  0  0  0  0  0  0  0  0
    3.5520   -4.1753   15.9918 O   0  0  0  0  0  0  0  0  0  0  0  0
    4.7553   -1.1984   16.1498 O   0  0  0  0  0  0  0  0  0  0  0  0
    1.8006   -0.7300   12.5834 C   0  0  0  0  0  0  0  0  0  0  0  0
    2.7272   -1.6072   12.9631 C   0  0  0  0  0  0  0  0  0  0  0  0
    8.2208   -5.0229   14.8417 C   0  0  0  0  0  0  0  0  0  0  0  0
    7.2247   -4.1329   14.5910 C   0  0  0  0  0  0  0  0  0  0  0  0
    1.6109    0.7925   13.2538 B   0  0  0  0  0  0  0  0  0  0  0  0
    8.0745   -6.6046   14.2803 B   0  0  0  0  0  0  0  0  0  0  0  0
    5.3225   -2.9240   12.5961 Li  0  0  0  0  0  0  0  0  0  0  0  0
    4.5300   -2.8130   15.0870 Li  0  0  0  0  0  0  0  0  0  0  0  0
    3.5799   -2.2939   13.3755 N   0  0  0  0  0  0  0  0  0  0  0  0
    6.3126   -3.4094   14.3239 N   0  0  0  0  0  0  0  0  0  0  0  0
    1.9333   -3.3834   10.3414 C   0  0  0  0  0  0  0  0  0  0  0  0
    1.9541   -4.7424    9.9999 C   0  0  0  0  0  0  0  0  0  0  0  0
    0.8353   -5.4996   10.0580 C   0  0  0  0  0  0  0  0  0  0  0  0
   -0.3573   -4.9596   10.4831 C   0  0  0  0  0  0  0  0  0  0  0  0
   -0.4151   -3.5777   10.8756 C   0  0  0  0  0  0  0  0  0  0  0  0
    0.7330   -2.8509   10.8138 C   0  0  0  0  0  0  0  0  0  0  0  0
   -1.8069    0.0403   10.8556 C   0  0  0  0  0  0  0  0  0  0  0  0
   -3.1241    0.3170   11.2898 C   0  0  0  0  0  0  0  0  0  0  0  0
   -3.5562   -0.0934   12.5234 C   0  0  0  0  0  0  0  0  0  0  0  0
   -2.7251   -0.7977   13.3683 C   0  0  0  0  0  0  0  0  0  0  0  0
   -1.4061   -1.0378   12.9558 C   0  0  0  0  0  0  0  0  0  0  0  0
   -0.9604   -0.6521   11.7095 C   0  0  0  0  0  0  0  0  0  0  0  0
    1.9586    0.9148    9.7582 C   0  0  0  0  0  0  0  0  0  0  0  0
    2.2969    1.5610    8.5936 C   0  0  0  0  0  0  0  0  0  0  0  0
    1.7992    1.1230    7.3963 C   0  0  0  0  0  0  0  0  0  0  0  0
    0.9797    0.0337    7.3218 C   0  0  0  0  0  0  0  0  0  0  0  0
    0.6291   -0.6494    8.5046 C   0  0  0  0  0  0  0  0  0  0  0  0
    1.1386   -0.2051    9.7382 C   0  0  0  0  0  0  0  0  0  0  0  0
    5.6182   -0.5467   10.8919 C   0  0  0  0  0  0  0  0  0  0  0  0
    6.6699    0.4240   10.6285 C   0  0  0  0  0  0  0  0  0  0  0  0
    7.8784   -0.1614   11.3589 C   0  0  0  0  0  0  0  0  0  0  0  0
    7.6308   -1.5078   11.4642 C   0  0  0  0  0  0  0  0  0  0  0  0
    4.4033   -5.6485   12.3963 C   0  0  0  0  0  0  0  0  0  0  0  0
    4.8626   -6.9437   11.7695 C   0  0  0  0  0  0  0  0  0  0  0  0
    5.9994   -6.6476   10.8392 C   0  0  0  0  0  0  0  0  0  0  0  0
    6.2669   -5.1658   11.0954 C   0  0  0  0  0  0  0  0  0  0  0  0
    2.2374   -4.3940   15.7520 C   0  0  0  0  0  0  0  0  0  0  0  0
    2.0541   -5.7182   15.6139 C   0  0  0  0  0  0  0  0  0  0  0  0
    3.1083   -6.3927   16.2643 C   0  0  0  0  0  0  0  0  0  0  0  0
    4.1162   -5.4228   16.5713 C   0  0  0  0  0  0  0  0  0  0  0  0
    5.9641   -0.4989   15.9627 C   0  0  0  0  0  0  0  0  0  0  0  0
    5.6443    0.7712   15.3486 C   0  0  0  0  0  0  0  0  0  0  0  0
    4.4046    1.1395   15.9663 C   0  0  0  0  0  0  0  0  0  0  0  0
    3.7422   -0.2259   16.2807 C   0  0  0  0  0  0  0  0  0  0  0  0
   12.1818   -3.9444   15.6520 C   0  0  0  0  0  0  0  0  0  0  0  0
   13.4561   -4.0525   15.0507 C   0  0  0  0  0  0  0  0  0  0  0  0
   13.6537   -4.9525   14.0623 C   0  0  0  0  0  0  0  0  0  0  0  0
   12.6520   -5.7576   13.6353 C   0  0  0  0  0  0  0  0  0  0  0  0
   11.3448   -5.6425   14.1550 C   0  0  0  0  0  0  0  0  0  0  0  0
   11.1221   -4.7170   15.1996 C   0  0  0  0  0  0  0  0  0  0  0  0
    9.4200   -1.8810   15.4558 C   0  0  0  0  0  0  0  0  0  0  0  0
    9.3276   -0.5187   15.8101 C   0  0  0  0  0  0  0  0  0  0  0  0
    9.1429   -0.1918   17.1509 C   0  0  0  0  0  0  0  0  0  0  0  0
    9.1177   -1.1256   18.1175 C   0  0  0  0  0  0  0  0  0  0  0  0
    9.2130   -2.5079   17.7941 C   0  0  0  0  0  0  0  0  0  0  0  0
    9.3487   -2.8451   16.4369 C   0  0  0  0  0  0  0  0  0  0  0  0
   10.6661   -6.1017   17.9449 C   0  0  0  0  0  0  0  0  0  0  0  0
   10.6083   -6.8835   19.0949 C   0  0  0  0  0  0  0  0  0  0  0  0
    9.4066   -7.1549   19.7018 C   0  0  0  0  0  0  0  0  0  0  0  0
    8.2352   -6.6760   19.1785 C   0  0  0  0  0  0  0  0  0  0  0  0
    8.2773   -5.8999   18.0085 C   0  0  0  0  0  0  0  0  0  0  0  0
    9.5004   -5.6175   17.4053 C   0  0  0  0  0  0  0  0  0  0  0  0
    1.0240    1.3642   12.7542 H   0  0  0  0  0  0  0  0  0  0  0  0
    2.4910    1.1748   13.2738 H   0  0  0  0  0  0  0  0  0  0  0  0
    1.2816    0.7020   14.1513 H   0  0  0  0  0  0  0  0  0  0  0  0
    8.6661   -7.1677   14.7854 H   0  0  0  0  0  0  0  0  0  0  0  0
    8.3033   -6.6535   13.3483 H   0  0  0  0  0  0  0  0  0  0  0  0
    7.1702   -6.9006   14.4020 H   0  0  0  0  0  0  0  0  0  0  0  0
    2.7230   -2.8425   10.2724 H   0  0  0  0  0  0  0  0  0  0  0  0
    2.7852   -5.1390    9.7328 H   0  0  0  0  0  0  0  0  0  0  0  0
    0.8724   -6.4117    9.7637 H   0  0  0  0  0  0  0  0  0  0  0  0
   -1.1507   -5.5000   10.5213 H   0  0  0  0  0  0  0  0  0  0  0  0
   -1.2337   -3.1788   11.1790 H   0  0  0  0  0  0  0  0  0  0  0  0
   -1.5118    0.3294    9.9890 H   0  0  0  0  0  0  0  0  0  0  0  0
   -3.6993    0.8392   10.7266 H   0  0  0  0  0  0  0  0  0  0  0  0
   -4.4751    0.0445   12.7669 H   0  0  0  0  0  0  0  0  0  0  0  0
   -3.0146   -1.0632   14.2440 H   0  0  0  0  0  0  0  0  0  0  0  0
   -0.8045   -1.5043   13.5427 H   0  0  0  0  0  0  0  0  0  0  0  0
    2.3216    1.2302   10.5885 H   0  0  0  0  0  0  0  0  0  0  0  0
    2.8589    2.3391    8.6154 H   0  0  0  0  0  0  0  0  0  0  0  0
    2.0387    1.5854    6.5897 H   0  0  0  0  0  0  0  0  0  0  0  0
    0.6375   -0.2585    6.4734 H   0  0  0  0  0  0  0  0  0  0  0  0
    0.0536   -1.4163    8.4664 H   0  0  0  0  0  0  0  0  0  0  0  0
    5.0444   -0.7863   10.1597 H   0  0  0  0  0  0  0  0  0  0  0  0
    5.1031   -0.1008   11.5696 H   0  0  0  0  0  0  0  0  0  0  0  0
    6.4050    1.2861   10.3033 H   0  0  0  0  0  0  0  0  0  0  0  0
    7.0918   -0.0707    9.9217 H   0  0  0  0  0  0  0  0  0  0  0  0
    7.5829    0.5917   11.8785 H   0  0  0  0  0  0  0  0  0  0  0  0
    8.5446    0.1243   10.7302 H   0  0  0  0  0  0  0  0  0  0  0  0
    8.0307   -2.0265   10.7611 H   0  0  0  0  0  0  0  0  0  0  0  0
    7.9024   -1.8580   12.3145 H   0  0  0  0  0  0  0  0  0  0  0  0
    4.7435   -5.7343   13.2901 H   0  0  0  0  0  0  0  0  0  0  0  0
    3.4578   -5.4850   12.4271 H   0  0  0  0  0  0  0  0  0  0  0  0
    4.0608   -7.2145   11.3152 H   0  0  0  0  0  0  0  0  0  0  0  0
    5.0452   -7.5542   12.4889 H   0  0  0  0  0  0  0  0  0  0  0  0
    6.8375   -7.0746   11.0300 H   0  0  0  0  0  0  0  0  0  0  0  0
    5.7841   -6.7713    9.9108 H   0  0  0  0  0  0  0  0  0  0  0  0
    6.3163   -4.9176   10.1706 H   0  0  0  0  0  0  0  0  0  0  0  0
    7.1102   -4.9906   11.5205 H   0  0  0  0  0  0  0  0  0  0  0  0
    1.6600   -3.6714   15.4994 H   0  0  0  0  0  0  0  0  0  0  0  0
    1.9611   -4.7406   16.6041 H   0  0  0  0  0  0  0  0  0  0  0  0
    1.5349   -6.1390   16.3025 H   0  0  0  0  0  0  0  0  0  0  0  0
    1.7832   -6.0554   14.7563 H   0  0  0  0  0  0  0  0  0  0  0  0
    3.1244   -6.7482   15.3722 H   0  0  0  0  0  0  0  0  0  0  0  0
    3.1317   -7.1143   16.8966 H   0  0  0  0  0  0  0  0  0  0  0  0
    4.2268   -4.9928   17.4234 H   0  0  0  0  0  0  0  0  0  0  0  0
    4.9717   -5.7073   16.2425 H   0  0  0  0  0  0  0  0  0  0  0  0
    6.2135   -0.4646   16.8893 H   0  0  0  0  0  0  0  0  0  0  0  0
    6.5851   -1.0537   15.4849 H   0  0  0  0  0  0  0  0  0  0  0  0
    5.6936    0.2764   14.5274 H   0  0  0  0  0  0  0  0  0  0  0  0
    6.2660    1.5030   15.3196 H   0  0  0  0  0  0  0  0  0  0  0  0
    4.5400    1.5209   16.8366 H   0  0  0  0  0  0  0  0  0  0  0  0
    3.8100    1.6947   15.4613 H   0  0  0  0  0  0  0  0  0  0  0  0
    3.0567   -0.0865   15.6230 H   0  0  0  0  0  0  0  0  0  0  0  0
    3.4211    0.0500   17.1418 H   0  0  0  0  0  0  0  0  0  0  0  0
   12.0574   -3.3634   16.4042 H   0  0  0  0  0  0  0  0  0  0  0  0
   14.1662   -3.4705   15.3268 H   0  0  0  0  0  0  0  0  0  0  0  0
   14.5272   -5.0374   13.6735 H   0  0  0  0  0  0  0  0  0  0  0  0
   12.8218   -6.3991   12.9413 H   0  0  0  0  0  0  0  0  0  0  0  0
   10.6312   -6.1974   13.8316 H   0  0  0  0  0  0  0  0  0  0  0  0
    9.5362   -2.1357   14.5383 H   0  0  0  0  0  0  0  0  0  0  0  0
    9.3582    0.1602   15.1288 H   0  0  0  0  0  0  0  0  0  0  0  0
    9.0733    0.7341   17.3962 H   0  0  0  0  0  0  0  0  0  0  0  0
    9.0037   -0.8670   19.0350 H   0  0  0  0  0  0  0  0  0  0  0  0
    9.1923   -3.1797   18.4790 H   0  0  0  0  0  0  0  0  0  0  0  0
   11.5140   -5.9149   17.5343 H   0  0  0  0  0  0  0  0  0  0  0  0
   11.4215   -7.2192   19.4801 H   0  0  0  0  0  0  0  0  0  0  0  0
    9.3918   -7.7152   20.4812 H   0  0  0  0  0  0  0  0  0  0  0  0
    7.4024   -6.8538   19.6218 H   0  0  0  0  0  0  0  0  0  0  0  0
    7.4601   -5.5676   17.6306 H   0  0  0  0  0  0  0  0  0  0  0  0
  1  7  1  0  0  0  0
  2  9  1  0  0  0  0
  3 13  1  0  0  0  0
  4 13  1  0  0  0  0
  5 14  1  0  0  0  0
  6 14  1  0  0  0  0
  7  8  2  0  0  0  0
  8 15  2  0  0  0  0
  9 10  2  0  0  0  0
 10 16  2  0  0  0  0
 11  7  1  0  0  0  0
 12  9  1  0  0  0  0
 13 15  1  0  0  0  0
 14 15  1  0  0  0  0
 16 13  1  0  0  0  0
 17 18  4  0  0  0  0
 18 19  4  0  0  0  0
 19 20  4  0  0  0  0
 20 21  4  0  0  0  0
 21 22  4  0  0  0  0
 22  1  1  0  0  0  0
 23 24  4  0  0  0  0
 24 25  4  0  0  0  0
 25 26  4  0  0  0  0
 26 27  4  0  0  0  0
 27 28  4  0  0  0  0
 28  1  1  0  0  0  0
 29 30  4  0  0  0  0
 30 31  4  0  0  0  0
 31 32  4  0  0  0  0
 32 33  4  0  0  0  0
 33 34  4  0  0  0  0
 34  1  1  0  0  0  0
 35  3  1  0  0  0  0
 36 35  1  0  0  0  0
 37 36  1  0  0  0  0
 38  3  1  0  0  0  0
 39  4  1  0  0  0  0
 40 39  1  0  0  0  0
 41 40  1  0  0  0  0
 42  4  1  0  0  0  0
 43  5  1  0  0  0  0
 44 43  1  0  0  0  0
 45 44  1  0  0  0  0
 46  5  1  0  0  0  0
 47  6  1  0  0  0  0
 48 47  1  0  0  0  0
 49 48  1  0  0  0  0
 50  6  1  0  0  0  0
 51 52  4  0  0  0  0
 52 53  4  0  0  0  0
 53 54  4  0  0  0  0
 54 55  4  0  0  0  0
 55 56  4  0  0  0  0
 56  2  1  0  0  0  0
 57 58  4  0  0  0  0
 58 59  4  0  0  0  0
 59 60  4  0  0  0  0
 60 61  4  0  0  0  0
 61 62  4  0  0  0  0
 62  2  1  0  0  0  0
 63 64  4  0  0  0  0
 64 65  4  0  0  0  0
 65 66  4  0  0  0  0
 66 67  4  0  0  0  0
 67 68  4  0  0  0  0
 68  2  1  0  0  0  0
 69 11  1  0  0  0  0
 70 11  1  0  0  0  0
 71 11  1  0  0  0  0
 72 12  1  0  0  0  0
 73 12  1  0  0  0  0
 74 12  1  0  0  0  0
 75 17  1  0  0  0  0
 76 18  1  0  0  0  0
 77 19  1  0  0  0  0
 78 20  1  0  0  0  0
 79 21  1  0  0  0  0
 80 23  1  0  0  0  0
 81 24  1  0  0  0  0
 82 25  1  0  0  0  0
 83 26  1  0  0  0  0
 84 27  1  0  0  0  0
 85 29  1  0  0  0  0
 86 30  1  0  0  0  0
 87 31  1  0  0  0  0
 88 32  1  0  0  0  0
 89 33  1  0  0  0  0
 90 35  1  0  0  0  0
 91 35  1  0  0  0  0
 92 36  1  0  0  0  0
 93 36  1  0  0  0  0
 94 37  1  0  0  0  0
 95 37  1  0  0  0  0
 96 38  1  0  0  0  0
 97 38  1  0  0  0  0
 98 39  1  0  0  0  0
 99 39  1  0  0  0  0
100 40  1  0  0  0  0
101 40  1  0  0  0  0
102 41  1  0  0  0  0
103 41  1  0  0  0  0
104 42  1  0  0  0  0
105 42  1  0  0  0  0
106 43  1  0  0  0  0
107 43  1  0  0  0  0
108 44  1  0  0  0  0
109 44  1  0  0  0  0
110 45  1  0  0  0  0
111 45  1  0  0  0  0
112 46  1  0  0  0  0
113 46  1  0  0  0  0
114 47  1  0  0  0  0
115 47  1  0  0  0  0
116 48  1  0  0  0  0
117 48  1  0  0  0  0
118 49  1  0  0  0  0
119 49  1  0  0  0  0
120 50  1  0  0  0  0
121 50  1  0  0  0  0
122 51  1  0  0  0  0
123 52  1  0  0  0  0
124 53  1  0  0  0  0
125 54  1  0  0  0  0
126 55  1  0  0  0  0
127 57  1  0  0  0  0
128 58  1  0  0  0  0
129 59  1  0  0  0  0
130 60  1  0  0  0  0
131 61  1  0  0  0  0
132 63  1  0  0  0  0
133 64  1  0  0  0  0
134 65  1  0  0  0  0
135 66  1  0  0  0  0
136 67  1  0  0  0  0
 14 16  1  0  0  0  0
 17 22  4  0  0  0  0
 23 28  4  0  0  0  0
 29 34  4  0  0  0  0
 37 38  1  0  0  0  0
 41 42  1  0  0  0  0
 45 46  1  0  0  0  0
 49 50  1  0  0  0  0
 51 56  4  0  0  0  0
 57 62  4  0  0  0  0
 63 68  4  0  0  0  0
M  END
$$$$
SIQZIC

From CSD data. Using bond type 'Any'. No disordered atoms. Largest molecule.
109122  0  0  0  0  0  0  0  0999 V2000
    1.2176    6.6044   21.7333 Fe  0  0  0  0  0  0  0  0  0  0  0  0
   -0.4745    9.6874   20.8483 P   0  0  0  0  0  0  0  0  0  0  0  0
    0.6791    3.1033   21.9597 P   0  0  0  0  0  0  0  0  0  0  0  0
    0.8365   10.4786   19.7127 B   0  0  0  0  0  0  0  0  0  0  0  0
    0.4484   11.2227   19.2455 H   0  0  0  0  0  0  0  0  0  0  0  0
    1.1456    9.8266   19.0782 H   0  0  0  0  0  0  0  0  0  0  0  0
    1.5764   10.7851   20.2420 H   0  0  0  0  0  0  0  0  0  0  0  0
    0.8133    3.0349   23.8746 B   0  0  0  0  0  0  0  0  0  0  0  0
    0.4995    2.1841   24.1866 H   0  0  0  0  0  0  0  0  0  0  0  0
    0.2785    3.7331   24.2569 H   0  0  0  0  0  0  0  0  0  0  0  0
    1.7296    3.1542   24.1357 H   0  0  0  0  0  0  0  0  0  0  0  0
   -0.7418   14.3023   22.6066 O   0  0  0  0  0  0  0  0  0  0  0  0
    2.2514   -1.5492   22.3268 O   0  0  0  0  0  0  0  0  0  0  0  0
   -1.2255   10.7564   21.8841 N   0  0  0  0  0  0  0  0  0  0  0  0
    1.4418    1.8453   21.1827 N   0  0  0  0  0  0  0  0  0  0  0  0
   -1.5411   13.1315   22.5363 C   0  0  0  0  0  0  0  0  0  0  0  0
   -1.9385   12.9731   23.4181 H   0  0  0  0  0  0  0  0  0  0  0  0
   -2.1297   10.1846   22.9045 C   0  0  0  0  0  0  0  0  0  0  0  0
   -1.6126    9.8576   23.6435 H   0  0  0  0  0  0  0  0  0  0  0  0
   -2.6311    9.4607   22.5186 H   0  0  0  0  0  0  0  0  0  0  0  0
   -2.7341   10.8645   23.2120 H   0  0  0  0  0  0  0  0  0  0  0  0
   -1.4112   15.3832   23.2522 C   0  0  0  0  0  0  0  0  0  0  0  0
   -2.0304   15.7884   22.6398 H   0  0  0  0  0  0  0  0  0  0  0  0
   -0.7659   16.0363   23.5344 H   0  0  0  0  0  0  0  0  0  0  0  0
   -1.8874   15.0526   24.0169 H   0  0  0  0  0  0  0  0  0  0  0  0
    1.7732    1.9452   19.7595 C   0  0  0  0  0  0  0  0  0  0  0  0
    2.7267    1.9866   19.6553 H   0  0  0  0  0  0  0  0  0  0  0  0
    1.3768    2.7398   19.3934 H   0  0  0  0  0  0  0  0  0  0  0  0
    1.4334    1.1753   19.2964 H   0  0  0  0  0  0  0  0  0  0  0  0
   -0.5440   12.0032   22.2410 C   0  0  0  0  0  0  0  0  0  0  0  0
   -0.0223   12.2799   21.4591 H   0  0  0  0  0  0  0  0  0  0  0  0
    2.3526   -2.8585   21.8009 C   0  0  0  0  0  0  0  0  0  0  0  0
    1.4771   -3.1794   21.5706 H   0  0  0  0  0  0  0  0  0  0  0  0
    2.7425   -3.4388   22.4580 H   0  0  0  0  0  0  0  0  0  0  0  0
    2.9050   -2.8463   21.0154 H   0  0  0  0  0  0  0  0  0  0  0  0
    0.4326   11.8496   23.3943 C   0  0  0  0  0  0  0  0  0  0  0  0
   -0.0325   11.5189   24.1648 H   0  0  0  0  0  0  0  0  0  0  0  0
    0.8235   12.7020   23.5975 H   0  0  0  0  0  0  0  0  0  0  0  0
    1.1252   11.2324   23.1465 H   0  0  0  0  0  0  0  0  0  0  0  0
    1.6553   -0.6026   21.4406 C   0  0  0  0  0  0  0  0  0  0  0  0
    2.0183   -0.7455   20.5426 H   0  0  0  0  0  0  0  0  0  0  0  0
    2.1056    0.7749   21.9331 C   0  0  0  0  0  0  0  0  0  0  0  0
    1.8122    0.8558   22.8653 H   0  0  0  0  0  0  0  0  0  0  0  0
    3.6235    0.9159   21.9326 C   0  0  0  0  0  0  0  0  0  0  0  0
    3.9615    0.7377   21.0518 H   0  0  0  0  0  0  0  0  0  0  0  0
    4.0033    0.2904   22.5549 H   0  0  0  0  0  0  0  0  0  0  0  0
    3.8621    1.8085   22.1913 H   0  0  0  0  0  0  0  0  0  0  0  0
   -2.6599   13.2713   21.5228 C   0  0  0  0  0  0  0  0  0  0  0  0
   -3.9652   13.0294   21.8586 C   0  0  0  0  0  0  0  0  0  0  0  0
   -4.1704   12.7640   22.7271 H   0  0  0  0  0  0  0  0  0  0  0  0
   -4.9901   13.1725   20.9305 C   0  0  0  0  0  0  0  0  0  0  0  0
   -5.8684   12.9828   21.1681 H   0  0  0  0  0  0  0  0  0  0  0  0
   -4.6931   13.5927   19.6722 C   0  0  0  0  0  0  0  0  0  0  0  0
   -5.3708   13.6953   19.0443 H   0  0  0  0  0  0  0  0  0  0  0  0
   -3.3924   13.8696   19.3311 C   0  0  0  0  0  0  0  0  0  0  0  0
   -3.1983   14.1716   18.4745 H   0  0  0  0  0  0  0  0  0  0  0  0
   -2.3776   13.7040   20.2306 C   0  0  0  0  0  0  0  0  0  0  0  0
   -1.5003   13.8812   19.9801 H   0  0  0  0  0  0  0  0  0  0  0  0
   -1.8624    8.9557   19.9304 C   0  0  0  0  0  0  0  0  0  0  0  0
   -1.8020    7.6772   19.4201 C   0  0  0  0  0  0  0  0  0  0  0  0
   -1.0547    7.1507   19.5898 H   0  0  0  0  0  0  0  0  0  0  0  0
   -2.8372    7.1642   18.6569 C   0  0  0  0  0  0  0  0  0  0  0  0
   -2.7796    6.2987   18.3194 H   0  0  0  0  0  0  0  0  0  0  0  0
   -3.9336    7.9155   18.3982 C   0  0  0  0  0  0  0  0  0  0  0  0
   -4.6299    7.5650   17.8902 H   0  0  0  0  0  0  0  0  0  0  0  0
   -4.0125    9.1915   18.8874 C   0  0  0  0  0  0  0  0  0  0  0  0
   -4.7627    9.7104   18.7024 H   0  0  0  0  0  0  0  0  0  0  0  0
   -2.9894    9.7164   19.6507 C   0  0  0  0  0  0  0  0  0  0  0  0
   -3.0563   10.5837   19.9801 H   0  0  0  0  0  0  0  0  0  0  0  0
   -1.0277    3.1891   21.3505 C   0  0  0  0  0  0  0  0  0  0  0  0
   -1.5003    2.4000   20.3152 C   0  0  0  0  0  0  0  0  0  0  0  0
   -0.9572    1.7427   19.9438 H   0  0  0  0  0  0  0  0  0  0  0  0
   -2.7843    2.5952   19.8364 C   0  0  0  0  0  0  0  0  0  0  0  0
   -3.0981    2.0699   19.1364 H   0  0  0  0  0  0  0  0  0  0  0  0
   -3.5994    3.5538   20.3802 C   0  0  0  0  0  0  0  0  0  0  0  0
   -4.4563    3.6847   20.0408 H   0  0  0  0  0  0  0  0  0  0  0  0
   -3.1491    4.3237   21.4290 C   0  0  0  0  0  0  0  0  0  0  0  0
   -3.7034    4.9666   21.8082 H   0  0  0  0  0  0  0  0  0  0  0  0
   -1.8763    4.1374   21.9127 C   0  0  0  0  0  0  0  0  0  0  0  0
   -1.5783    4.6529   22.6277 H   0  0  0  0  0  0  0  0  0  0  0  0
    0.1588   -0.7764   21.3859 C   0  0  0  0  0  0  0  0  0  0  0  0
   -0.4642   -1.2820   20.2556 C   0  0  0  0  0  0  0  0  0  0  0  0
    0.0501   -1.5026   19.5122 H   0  0  0  0  0  0  0  0  0  0  0  0
   -1.8215   -1.4619   20.2110 C   0  0  0  0  0  0  0  0  0  0  0  0
   -2.2114   -1.8240   19.4492 H   0  0  0  0  0  0  0  0  0  0  0  0
   -2.6023   -1.1209   21.2620 C   0  0  0  0  0  0  0  0  0  0  0  0
   -3.5233   -1.2353   21.2166 H   0  0  0  0  0  0  0  0  0  0  0  0
   -2.0304   -0.6074   22.3886 C   0  0  0  0  0  0  0  0  0  0  0  0
   -2.5624   -0.3698   23.1126 H   0  0  0  0  0  0  0  0  0  0  0  0
   -0.6490   -0.4372   22.4553 C   0  0  0  0  0  0  0  0  0  0  0  0
   -0.2665   -0.0910   23.2289 H   0  0  0  0  0  0  0  0  0  0  0  0
    0.2005    8.3862   21.8991 C   0  0  0  0  0  0  0  0  0  0  0  0
    1.4984    8.4699   22.5021 C   0  0  0  0  0  0  0  0  0  0  0  0
    2.1808    9.0540   22.2592 H   0  0  0  0  0  0  0  0  0  0  0  0
    1.5541    7.4990   23.5407 C   0  0  0  0  0  0  0  0  0  0  0  0
    2.2802    7.3462   24.1018 H   0  0  0  0  0  0  0  0  0  0  0  0
    0.3370    6.8149   23.5776 C   0  0  0  0  0  0  0  0  0  0  0  0
    0.1179    6.1245   24.1599 H   0  0  0  0  0  0  0  0  0  0  0  0
   -0.5050    7.3513   22.5760 C   0  0  0  0  0  0  0  0  0  0  0  0
   -1.3731    7.0752   22.3901 H   0  0  0  0  0  0  0  0  0  0  0  0
    1.4000    4.6080   21.2603 C   0  0  0  0  0  0  0  0  0  0  0  0
    2.6589    5.1687   21.6298 C   0  0  0  0  0  0  0  0  0  0  0  0
    3.1937    4.8930   22.3392 H   0  0  0  0  0  0  0  0  0  0  0  0
    2.9514    6.2160   20.7298 C   0  0  0  0  0  0  0  0  0  0  0  0
    3.7220    6.7383   20.7342 H   0  0  0  0  0  0  0  0  0  0  0  0
    1.8865    6.3386   19.8281 C   0  0  0  0  0  0  0  0  0  0  0  0
    1.8215    6.9667   19.1461 H   0  0  0  0  0  0  0  0  0  0  0  0
    0.9256    5.3430   20.1331 C   0  0  0  0  0  0  0  0  0  0  0  0
    0.1272    5.1950   19.6795 H   0  0  0  0  0  0  0  0  0  0  0  0
  1 92  8  0  0  0  0
  2  4  1  0  0  0  0
  3  8  1  0  0  0  0
  4  5  1  0  0  0  0
  6  4  1  0  0  0  0
  7  4  1  0  0  0  0
  8  9  1  0  0  0  0
 10  8  1  0  0  0  0
 11  8  1  0  0  0  0
 12 16  1  0  0  0  0
 13 32  1  0  0  0  0
 14  2  1  0  0  0  0
 15  3  1  0  0  0  0
 16 17  1  0  0  0  0
 18 14  1  0  0  0  0
 19 18  1  0  0  0  0
 20 18  1  0  0  0  0
 21 18  1  0  0  0  0
 22 12  1  0  0  0  0
 23 22  1  0  0  0  0
 24 22  1  0  0  0  0
 25 22  1  0  0  0  0
 26 15  1  0  0  0  0
 27 26  1  0  0  0  0
 28 26  1  0  0  0  0
 29 26  1  0  0  0  0
 30 14  1  0  0  0  0
 31 30  1  0  0  0  0
 32 33  1  0  0  0  0
 34 32  1  0  0  0  0
 35 32  1  0  0  0  0
 36 30  1  0  0  0  0
 37 36  1  0  0  0  0
 38 36  1  0  0  0  0
 39 36  1  0  0  0  0
 40 13  1  0  0  0  0
 41 40  1  0  0  0  0
 42 15  1  0  0  0  0
 43 42  1  0  0  0  0
 44 42  1  0  0  0  0
 45 44  1  0  0  0  0
 46 44  1  0  0  0  0
 47 44  1  0  0  0  0
 48 16  1  0  0  0  0
 49 48  4  0  0  0  0
 50 49  1  0  0  0  0
 51 49  4  0  0  0  0
 52 51  1  0  0  0  0
 53 51  4  0  0  0  0
 54 53  1  0  0  0  0
 55 53  4  0  0  0  0
 56 55  1  0  0  0  0
 57 48  4  0  0  0  0
 58 57  1  0  0  0  0
 59  2  1  0  0  0  0
 60 59  4  0  0  0  0
 61 60  1  0  0  0  0
 62 60  4  0  0  0  0
 63 62  1  0  0  0  0
 64 62  4  0  0  0  0
 65 64  1  0  0  0  0
 66 64  4  0  0  0  0
 67 66  1  0  0  0  0
 68 59  4  0  0  0  0
 69 68  1  0  0  0  0
 70  3  1  0  0  0  0
 71 70  4  0  0  0  0
 72 71  1  0  0  0  0
 73 71  4  0  0  0  0
 74 73  1  0  0  0  0
 75 73  4  0  0  0  0
 76 75  1  0  0  0  0
 77 75  4  0  0  0  0
 78 77  1  0  0  0  0
 79 70  4  0  0  0  0
 80 79  1  0  0  0  0
 81 40  1  0  0  0  0
 82 81  4  0  0  0  0
 83 82  1  0  0  0  0
 84 82  4  0  0  0  0
 85 84  1  0  0  0  0
 86 84  4  0  0  0  0
 87 86  1  0  0  0  0
 88 86  4  0  0  0  0
 89 88  1  0  0  0  0
 90 81  4  0  0  0  0
 91 90  1  0  0  0  0
 92  2  1  0  0  0  0
 93  1  8  0  0  0  0
 94 93  1  0  0  0  0
 95  1  8  0  0  0  0
 96 95  1  0  0  0  0
 97  1  8  0  0  0  0
 98 97  1  0  0  0  0
 99  1  8  0  0  0  0
100 99  1  0  0  0  0
101  1  8  0  0  0  0
102  1  8  0  0  0  0
103102  1  0  0  0  0
104  1  8  0  0  0  0
105104  1  0  0  0  0
106  1  8  0  0  0  0
107106  1  0  0  0  0
108  1  8  0  0  0  0
109108  1  0  0  0  0
  3101  1  0  0  0  0
 16 30  1  0  0  0  0
 40 42  1  0  0  0  0
 55 57  4  0  0  0  0
 66 68  4  0  0  0  0
 77 79  4  0  0  0  0
 88 90  4  0  0  0  0
 92 93  4  0  0  0  0
 92 99  4  0  0  0  0
 93 95  4  0  0  0  0
 95 97  4  0  0  0  0
 97 99  4  0  0  0  0
101102  4  0  0  0  0
101108  4  0  0  0  0
102104  4  0  0  0  0
104106  4  0  0  0  0
106108  4  0  0  0  0
M  END
$$$$
SISSUK

From CSD data. Using bond type 'Any'. Matching problem. No disordered atoms. Largest molecule.
 95102  0  0  0  0  0  0  0  0999 V2000
    7.8962    0.0000    7.8730 Rh  0  0  0  0  0  0  0  0  0  0  0  0
    6.3995    0.9245    6.3290 P   0  0  0  0  0  0  0  0  0  0  0  0
    3.9716    2.4969    6.6606 N   0  0  0  0  0  0  0  0  0  0  0  0
    3.6195    1.9385    6.0858 H   0  0  0  0  0  0  0  0  0  0  0  0
    7.1090    3.4128    8.6186 C   0  0  0  0  0  0  0  0  0  0  0  0
    7.7341    2.7743    8.2974 H   0  0  0  0  0  0  0  0  0  0  0  0
    3.5246    4.4556    8.0124 C   0  0  0  0  0  0  0  0  0  0  0  0
    5.7983    3.4161    8.0935 C   0  0  0  0  0  0  0  0  0  0  0  0
    4.8800    4.3994    8.5619 C   0  0  0  0  0  0  0  0  0  0  0  0
    3.1016    3.5104    7.0692 C   0  0  0  0  0  0  0  0  0  0  0  0
    7.5035    4.3106    9.5854 C   0  0  0  0  0  0  0  0  0  0  0  0
    8.3957    4.3031    9.9121 H   0  0  0  0  0  0  0  0  0  0  0  0
    1.8092    3.5626    6.5189 C   0  0  0  0  0  0  0  0  0  0  0  0
    1.5375    2.9148    5.8788 H   0  0  0  0  0  0  0  0  0  0  0  0
    2.5913    5.4461    8.3800 C   0  0  0  0  0  0  0  0  0  0  0  0
    2.8433    6.1012    9.0217 H   0  0  0  0  0  0  0  0  0  0  0  0
    6.5758    5.2317   10.0782 C   0  0  0  0  0  0  0  0  0  0  0  0
    6.8308    5.8296   10.7711 H   0  0  0  0  0  0  0  0  0  0  0  0
    5.3092    2.3679    7.0747 B   0  0  0  0  0  0  0  0  0  0  0  0
    5.3045    5.2825    9.5759 C   0  0  0  0  0  0  0  0  0  0  0  0
    4.6952    5.9256    9.9168 H   0  0  0  0  0  0  0  0  0  0  0  0
    5.2082   -0.3268    5.6410 C   0  0  0  0  0  0  0  0  0  0  0  0
    4.5232    0.1615    5.1017 H   0  0  0  0  0  0  0  0  0  0  0  0
    7.1384    1.6955    4.7994 C   0  0  0  0  0  0  0  0  0  0  0  0
    7.6680    0.9856    4.3357 H   0  0  0  0  0  0  0  0  0  0  0  0
    8.1072    2.8041    5.1852 C   0  0  0  0  0  0  0  0  0  0  0  0
    8.6099    3.0881    4.3939 H   0  0  0  0  0  0  0  0  0  0  0  0
    8.7284    2.4723    5.8662 H   0  0  0  0  0  0  0  0  0  0  0  0
    7.6050    3.5657    5.5442 H   0  0  0  0  0  0  0  0  0  0  0  0
    1.3285    5.4951    7.8399 C   0  0  0  0  0  0  0  0  0  0  0  0
    0.7240    6.1785    8.1076 H   0  0  0  0  0  0  0  0  0  0  0  0
    4.4820   -1.0748    6.7637 C   0  0  0  0  0  0  0  0  0  0  0  0
    3.7717   -1.6295    6.3803 H   0  0  0  0  0  0  0  0  0  0  0  0
    4.0905   -0.4284    7.3872 H   0  0  0  0  0  0  0  0  0  0  0  0
    5.1195   -1.6435    7.2432 H   0  0  0  0  0  0  0  0  0  0  0  0
    0.9384    4.5532    6.9094 C   0  0  0  0  0  0  0  0  0  0  0  0
    0.0649    4.5888    6.5377 H   0  0  0  0  0  0  0  0  0  0  0  0
    6.0953    2.2028    3.8066 C   0  0  0  0  0  0  0  0  0  0  0  0
    5.5468    2.8937    4.2341 H   0  0  0  0  0  0  0  0  0  0  0  0
    5.5211    1.4586    3.5271 H   0  0  0  0  0  0  0  0  0  0  0  0
    6.5460    2.5800    3.0232 H   0  0  0  0  0  0  0  0  0  0  0  0
    5.9179   -1.3202    4.7159 C   0  0  0  0  0  0  0  0  0  0  0  0
    6.6634   -1.7372    5.1962 H   0  0  0  0  0  0  0  0  0  0  0  0
    6.2600   -0.8475    3.9294 H   0  0  0  0  0  0  0  0  0  0  0  0
    5.2839   -2.0111    4.4317 H   0  0  0  0  0  0  0  0  0  0  0  0
    9.6827   -0.1021    6.2520 Cl  0  0  0  0  0  0  0  0  0  0  0  0
    9.1668   -0.0468    6.6936 C   0  0  0  0  0  0  0  0  0  0  0  0
   10.0400   -0.0866    5.9142 O   0  0  0  0  0  0  0  0  0  0  0  0
    9.3929   -0.9245    9.4171 P   0  0  0  0  0  0  0  0  0  0  0  0
   11.8208   -2.4969    9.0855 N   0  0  0  0  0  0  0  0  0  0  0  0
   12.1730   -1.9385    9.6602 H   0  0  0  0  0  0  0  0  0  0  0  0
    8.6835   -3.4128    7.1274 C   0  0  0  0  0  0  0  0  0  0  0  0
    8.0584   -2.7743    7.4487 H   0  0  0  0  0  0  0  0  0  0  0  0
   12.2679   -4.4556    7.7337 C   0  0  0  0  0  0  0  0  0  0  0  0
    9.9942   -3.4161    7.6526 C   0  0  0  0  0  0  0  0  0  0  0  0
   10.9125   -4.3994    7.1841 C   0  0  0  0  0  0  0  0  0  0  0  0
   12.6909   -3.5104    8.6768 C   0  0  0  0  0  0  0  0  0  0  0  0
    8.2890   -4.3106    6.1606 C   0  0  0  0  0  0  0  0  0  0  0  0
    7.3968   -4.3031    5.8339 H   0  0  0  0  0  0  0  0  0  0  0  0
   13.9833   -3.5626    9.2272 C   0  0  0  0  0  0  0  0  0  0  0  0
   14.2550   -2.9148    9.8672 H   0  0  0  0  0  0  0  0  0  0  0  0
   13.2012   -5.4461    7.3660 C   0  0  0  0  0  0  0  0  0  0  0  0
   12.9492   -6.1012    6.7243 H   0  0  0  0  0  0  0  0  0  0  0  0
    9.2167   -5.2317    5.6678 C   0  0  0  0  0  0  0  0  0  0  0  0
    8.9616   -5.8296    4.9750 H   0  0  0  0  0  0  0  0  0  0  0  0
   10.4833   -2.3679    8.6713 B   0  0  0  0  0  0  0  0  0  0  0  0
   10.4880   -5.2825    6.1701 C   0  0  0  0  0  0  0  0  0  0  0  0
   11.0973   -5.9256    5.8292 H   0  0  0  0  0  0  0  0  0  0  0  0
   10.5843    0.3268   10.1050 C   0  0  0  0  0  0  0  0  0  0  0  0
   11.2692   -0.1615   10.6443 H   0  0  0  0  0  0  0  0  0  0  0  0
    8.6541   -1.6955   10.9466 C   0  0  0  0  0  0  0  0  0  0  0  0
    8.1245   -0.9856   11.4104 H   0  0  0  0  0  0  0  0  0  0  0  0
    7.6853   -2.8041   10.5609 C   0  0  0  0  0  0  0  0  0  0  0  0
    7.1825   -3.0881   11.3521 H   0  0  0  0  0  0  0  0  0  0  0  0
    7.0641   -2.4723    9.8798 H   0  0  0  0  0  0  0  0  0  0  0  0
    8.1875   -3.5657   10.2018 H   0  0  0  0  0  0  0  0  0  0  0  0
   14.4640   -5.4951    7.9061 C   0  0  0  0  0  0  0  0  0  0  0  0
   15.0684   -6.1785    7.6384 H   0  0  0  0  0  0  0  0  0  0  0  0
   11.3104    1.0748    8.9823 C   0  0  0  0  0  0  0  0  0  0  0  0
   12.0207    1.6295    9.3657 H   0  0  0  0  0  0  0  0  0  0  0  0
   11.7020    0.4284    8.3588 H   0  0  0  0  0  0  0  0  0  0  0  0
   10.6730    1.6435    8.5028 H   0  0  0  0  0  0  0  0  0  0  0  0
   14.8541   -4.5532    8.8367 C   0  0  0  0  0  0  0  0  0  0  0  0
   15.7275   -4.5888    9.2083 H   0  0  0  0  0  0  0  0  0  0  0  0
    9.6972   -2.2028   11.9394 C   0  0  0  0  0  0  0  0  0  0  0  0
   10.2457   -2.8937   11.5119 H   0  0  0  0  0  0  0  0  0  0  0  0
   10.2714   -1.4586   12.2189 H   0  0  0  0  0  0  0  0  0  0  0  0
    9.2465   -2.5800   12.7228 H   0  0  0  0  0  0  0  0  0  0  0  0
    9.8746    1.3202   11.0301 C   0  0  0  0  0  0  0  0  0  0  0  0
    9.1290    1.7372   10.5498 H   0  0  0  0  0  0  0  0  0  0  0  0
    9.5324    0.8475   11.8166 H   0  0  0  0  0  0  0  0  0  0  0  0
   10.5086    2.0111   11.3143 H   0  0  0  0  0  0  0  0  0  0  0  0
    6.1098    0.1021    9.4941 Cl  0  0  0  0  0  0  0  0  0  0  0  0
    6.6257    0.0468    9.0524 C   0  0  0  0  0  0  0  0  0  0  0  0
    5.7525    0.0866    9.8318 O   0  0  0  0  0  0  0  0  0  0  0  0
  1  2  1  0  0  0  0
  2 19  1  0  0  0  0
  3  4  1  0  0  0  0
  5  6  1  0  0  0  0
  7  9  1  0  0  0  0
  8  5  1  0  0  0  0
  9  8  1  0  0  0  0
 10  3  1  0  0  0  0
 11  5  1  0  0  0  0
 12 11  1  0  0  0  0
 13 10  1  0  0  0  0
 14 13  1  0  0  0  0
 15  7  1  0  0  0  0
 16 15  1  0  0  0  0
 17 11  1  0  0  0  0
 18 17  1  0  0  0  0
 19  3  1  0  0  0  0
 20  9  1  0  0  0  0
 21 20  1  0  0  0  0
 22  2  1  0  0  0  0
 23 22  1  0  0  0  0
 24  2  1  0  0  0  0
 25 24  1  0  0  0  0
 26 24  1  0  0  0  0
 27 26  1  0  0  0  0
 28 26  1  0  0  0  0
 29 26  1  0  0  0  0
 30 15  1  0  0  0  0
 31 30  1  0  0  0  0
 32 22  1  0  0  0  0
 33 32  1  0  0  0  0
 34 32  1  0  0  0  0
 35 32  1  0  0  0  0
 36 13  1  0  0  0  0
 37 36  1  0  0  0  0
 38 24  1  0  0  0  0
 39 38  1  0  0  0  0
 40 38  1  0  0  0  0
 41 38  1  0  0  0  0
 42 22  1  0  0  0  0
 43 42  1  0  0  0  0
 44 42  1  0  0  0  0
 45 42  1  0  0  0  0
 46  1  1  0  0  0  0
 47  1  1  0  0  0  0
 48 47  1  0  0  0  0
 49  1  1  0  0  0  0
 50 51  1  0  0  0  0
 52 53  1  0  0  0  0
 54 56  1  0  0  0  0
 55 52  1  0  0  0  0
 56 55  1  0  0  0  0
 57 50  1  0  0  0  0
 58 52  1  0  0  0  0
 59 58  1  0  0  0  0
 60 57  1  0  0  0  0
 61 60  1  0  0  0  0
 62 54  1  0  0  0  0
 63 62  1  0  0  0  0
 64 58  1  0  0  0  0
 65 64  1  0  0  0  0
 66 49  1  0  0  0  0
 67 56  1  0  0  0  0
 68 67  1  0  0  0  0
 69 49  1  0  0  0  0
 70 69  1  0  0  0  0
 71 49  1  0  0  0  0
 72 71  1  0  0  0  0
 73 71  1  0  0  0  0
 74 73  1  0  0  0  0
 75 73  1  0  0  0  0
 76 73  1  0  0  0  0
 77 62  1  0  0  0  0
 78 77  1  0  0  0  0
 79 69  1  0  0  0  0
 80 79  1  0  0  0  0
 81 79  1  0  0  0  0
 82 79  1  0  0  0  0
 83 60  1  0  0  0  0
 84 83  1  0  0  0  0
 85 71  1  0  0  0  0
 86 85  1  0  0  0  0
 87 85  1  0  0  0  0
 88 85  1  0  0  0  0
 89 69  1  0  0  0  0
 90 89  1  0  0  0  0
 91 89  1  0  0  0  0
 92 89  1  0  0  0  0
 93  1  1  0  0  0  0
 94  1  1  0  0  0  0
 95 94  1  0  0  0  0
  7 10  1  0  0  0  0
  8 19  1  0  0  0  0
 17 20  1  0  0  0  0
 30 36  1  0  0  0  0
 46 47  1  0  0  0  0
 50 66  1  0  0  0  0
 54 57  1  0  0  0  0
 55 66  1  0  0  0  0
 64 67  1  0  0  0  0
 77 83  1  0  0  0  0
 93 94  1  0  0  0  0
M  END
$$$$
SISTAR

From CSD data. Using bond type 'Any'. No disordered atoms. Largest molecule.
 96105  0  0  0  0  0  0  0  0999 V2000
    3.3096    1.0433   -1.3536 B   0  0  0  0  0  0  0  0  0  0  0  0
    4.8370    1.0787   -1.5417 C   0  0  0  0  0  0  0  0  0  0  0  0
    5.5870    2.2605   -1.4668 C   0  0  0  0  0  0  0  0  0  0  0  0
    5.1417    3.0806   -1.2857 H   0  0  0  0  0  0  0  0  0  0  0  0
    6.9600    2.2669   -1.6500 C   0  0  0  0  0  0  0  0  0  0  0  0
    7.4481    3.0806   -1.5982 H   0  0  0  0  0  0  0  0  0  0  0  0
    7.6157    1.0701   -1.9105 C   0  0  0  0  0  0  0  0  0  0  0  0
    8.5562    1.0698   -2.0434 H   0  0  0  0  0  0  0  0  0  0  0  0
    6.9169   -0.1171   -1.9776 C   0  0  0  0  0  0  0  0  0  0  0  0
    7.3795   -0.9262   -2.1594 H   0  0  0  0  0  0  0  0  0  0  0  0
    5.5236   -0.1392   -1.7783 C   0  0  0  0  0  0  0  0  0  0  0  0
    4.7763   -1.4036   -1.7746 C   0  0  0  0  0  0  0  0  0  0  0  0
    5.3959   -2.6450   -1.9739 C   0  0  0  0  0  0  0  0  0  0  0  0
    6.3290   -2.6671   -2.1505 H   0  0  0  0  0  0  0  0  0  0  0  0
    4.7061   -3.8340   -1.9237 C   0  0  0  0  0  0  0  0  0  0  0  0
    5.1616   -4.6556   -2.0600 H   0  0  0  0  0  0  0  0  0  0  0  0
    3.3365   -3.8255   -1.6732 C   0  0  0  0  0  0  0  0  0  0  0  0
    2.8551   -4.6433   -1.6339 H   0  0  0  0  0  0  0  0  0  0  0  0
    2.6783   -2.6223   -1.4818 C   0  0  0  0  0  0  0  0  0  0  0  0
    1.7427   -2.6151   -1.3163 H   0  0  0  0  0  0  0  0  0  0  0  0
    3.3847   -1.4219   -1.5324 C   0  0  0  0  0  0  0  0  0  0  0  0
    0.4836    2.2533   -1.6051 C   0  0  0  0  0  0  0  0  0  0  0  0
    0.1077    1.5279   -1.0268 H   0  0  0  0  0  0  0  0  0  0  0  0
    0.4654    1.7516   -3.0623 C   0  0  0  0  0  0  0  0  0  0  0  0
    0.9126    0.8692   -3.0893 H   0  0  0  0  0  0  0  0  0  0  0  0
   -0.4776    1.6121   -3.3278 H   0  0  0  0  0  0  0  0  0  0  0  0
    1.1294    2.6549   -4.1121 C   0  0  0  0  0  0  0  0  0  0  0  0
    1.2419    2.1347   -4.9464 H   0  0  0  0  0  0  0  0  0  0  0  0
    0.5156    3.4050   -4.3112 H   0  0  0  0  0  0  0  0  0  0  0  0
    2.4869    3.2322   -3.7147 C   0  0  0  0  0  0  0  0  0  0  0  0
    2.7447    3.9127   -4.3865 H   0  0  0  0  0  0  0  0  0  0  0  0
    3.1574    2.5061   -3.7551 H   0  0  0  0  0  0  0  0  0  0  0  0
    2.5571    3.8823   -2.3121 C   0  0  0  0  0  0  0  0  0  0  0  0
    3.4930    4.2049   -2.1709 H   0  0  0  0  0  0  0  0  0  0  0  0
    1.6124    5.0761   -2.0959 C   0  0  0  0  0  0  0  0  0  0  0  0
    1.8382    5.4927   -1.2258 H   0  0  0  0  0  0  0  0  0  0  0  0
    1.8013    5.7477   -2.7998 H   0  0  0  0  0  0  0  0  0  0  0  0
    0.1104    4.7896   -2.1068 C   0  0  0  0  0  0  0  0  0  0  0  0
   -0.1842    4.7101   -3.0485 H   0  0  0  0  0  0  0  0  0  0  0  0
   -0.3572    5.5694   -1.7156 H   0  0  0  0  0  0  0  0  0  0  0  0
   -0.3384    3.5316   -1.3532 C   0  0  0  0  0  0  0  0  0  0  0  0
   -1.2802    3.3456   -1.5944 H   0  0  0  0  0  0  0  0  0  0  0  0
   -0.3153    3.7270   -0.3827 H   0  0  0  0  0  0  0  0  0  0  0  0
    2.9498    2.6800    4.6837 B   0  0  0  0  0  0  0  0  0  0  0  0
    2.1623    1.5240    4.8427 N   0  0  0  0  0  0  0  0  0  0  0  0
    1.4631    1.3595    4.3304 H   0  0  0  0  0  0  0  0  0  0  0  0
    4.2367    2.7426    5.5110 C   0  0  0  0  0  0  0  0  0  0  0  0
    5.2239    3.7290    5.3365 C   0  0  0  0  0  0  0  0  0  0  0  0
    5.1107    4.3733    4.6467 H   0  0  0  0  0  0  0  0  0  0  0  0
    6.3473    3.7961    6.1288 C   0  0  0  0  0  0  0  0  0  0  0  0
    6.9993    4.4724    5.9834 H   0  0  0  0  0  0  0  0  0  0  0  0
    6.5155    2.8563    7.1500 C   0  0  0  0  0  0  0  0  0  0  0  0
    7.2747    2.9098    7.7181 H   0  0  0  0  0  0  0  0  0  0  0  0
    5.5975    1.8642    7.3393 C   0  0  0  0  0  0  0  0  0  0  0  0
    5.7314    1.2332    8.0357 H   0  0  0  0  0  0  0  0  0  0  0  0
    4.4504    1.7573    6.5166 C   0  0  0  0  0  0  0  0  0  0  0  0
    3.4959    0.6619    6.6803 C   0  0  0  0  0  0  0  0  0  0  0  0
    3.6217   -0.3167    7.6906 C   0  0  0  0  0  0  0  0  0  0  0  0
    4.3425   -0.2575    8.3062 H   0  0  0  0  0  0  0  0  0  0  0  0
    2.7252   -1.3558    7.8053 C   0  0  0  0  0  0  0  0  0  0  0  0
    2.8338   -2.0009    8.4949 H   0  0  0  0  0  0  0  0  0  0  0  0
    1.6661   -1.4653    6.9171 C   0  0  0  0  0  0  0  0  0  0  0  0
    1.0539   -2.1867    6.9911 H   0  0  0  0  0  0  0  0  0  0  0  0
    1.5056   -0.5183    5.9235 C   0  0  0  0  0  0  0  0  0  0  0  0
    0.7802   -0.5919    5.3151 H   0  0  0  0  0  0  0  0  0  0  0  0
    2.3975    0.5371    5.8095 C   0  0  0  0  0  0  0  0  0  0  0  0
    0.4231    4.1698    4.0186 C   0  0  0  0  0  0  0  0  0  0  0  0
   -0.0446    3.2936    3.9056 H   0  0  0  0  0  0  0  0  0  0  0  0
    0.4149    4.5162    5.5218 C   0  0  0  0  0  0  0  0  0  0  0  0
   -0.5272    4.6111    5.8087 H   0  0  0  0  0  0  0  0  0  0  0  0
    0.7967    3.7468    6.0153 H   0  0  0  0  0  0  0  0  0  0  0  0
    1.1701    5.7787    5.9533 C   0  0  0  0  0  0  0  0  0  0  0  0
    1.2751    5.7576    6.9375 H   0  0  0  0  0  0  0  0  0  0  0  0
    0.6125    6.5674    5.7309 H   0  0  0  0  0  0  0  0  0  0  0  0
    2.5571    5.9743    5.3227 C   0  0  0  0  0  0  0  0  0  0  0  0
    3.1975    5.3837    5.7921 H   0  0  0  0  0  0  0  0  0  0  0  0
    2.8423    6.9092    5.4860 H   0  0  0  0  0  0  0  0  0  0  0  0
    2.6627    5.6950    3.8103 C   0  0  0  0  0  0  0  0  0  0  0  0
    3.6229    5.7948    3.5510 H   0  0  0  0  0  0  0  0  0  0  0  0
    1.8396    6.6585    2.9304 C   0  0  0  0  0  0  0  0  0  0  0  0
    2.1417    7.5827    3.1186 H   0  0  0  0  0  0  0  0  0  0  0  0
    2.0505    6.4659    1.9822 H   0  0  0  0  0  0  0  0  0  0  0  0
    0.3141    6.6078    3.1022 C   0  0  0  0  0  0  0  0  0  0  0  0
    0.0778    7.0577    3.9515 H   0  0  0  0  0  0  0  0  0  0  0  0
   -0.1038    7.1221    2.3661 H   0  0  0  0  0  0  0  0  0  0  0  0
   -0.2833    5.2009    3.1144 C   0  0  0  0  0  0  0  0  0  0  0  0
   -0.2788    4.8537    2.1875 H   0  0  0  0  0  0  0  0  0  0  0  0
   -1.2286    5.2673    3.4005 H   0  0  0  0  0  0  0  0  0  0  0  0
    3.4194    4.6267    0.7768 C   0  0  0  0  0  0  0  0  0  0  0  0
    0.8414    1.4163    1.7556 Cl  0  0  0  0  0  0  0  0  0  0  0  0
    1.8527   -0.3739   -1.1862 H   0  0  0  0  0  0  0  0  0  0  0  0
    2.6966   -0.2202   -1.3524 N   0  0  0  0  0  0  0  0  0  0  0  0
    4.0928    5.4288    0.5202 O   0  0  0  0  0  0  0  0  0  0  0  0
    2.1985    2.6010   -1.0273 P   0  0  0  0  0  0  0  0  0  0  0  0
    2.1607    3.9620    3.4259 P   0  0  0  0  0  0  0  0  0  0  0  0
    2.2669    3.2659    1.2044 Rh  0  0  0  0  0  0  0  0  0  0  0  0
  1  2  1  0  0  0  0
  2  3  4  0  0  0  0
  3  4  1  0  0  0  0
  5  3  4  0  0  0  0
  6  5  1  0  0  0  0
  7  5  4  0  0  0  0
  8  7  1  0  0  0  0
  9  7  4  0  0  0  0
 10  9  1  0  0  0  0
 11  2  4  0  0  0  0
 12 11  1  0  0  0  0
 13 12  4  0  0  0  0
 14 13  1  0  0  0  0
 15 13  4  0  0  0  0
 16 15  1  0  0  0  0
 17 15  4  0  0  0  0
 18 17  1  0  0  0  0
 19 17  4  0  0  0  0
 20 19  1  0  0  0  0
 21 12  4  0  0  0  0
 22 23  1  0  0  0  0
 24 22  1  0  0  0  0
 25 24  1  0  0  0  0
 26 24  1  0  0  0  0
 27 24  1  0  0  0  0
 28 27  1  0  0  0  0
 29 27  1  0  0  0  0
 30 27  1  0  0  0  0
 31 30  1  0  0  0  0
 32 30  1  0  0  0  0
 33 30  1  0  0  0  0
 34 33  1  0  0  0  0
 35 33  1  0  0  0  0
 36 35  1  0  0  0  0
 37 35  1  0  0  0  0
 38 35  1  0  0  0  0
 39 38  1  0  0  0  0
 40 38  1  0  0  0  0
 41 22  1  0  0  0  0
 42 41  1  0  0  0  0
 43 41  1  0  0  0  0
 44 45  1  0  0  0  0
 45 46  1  0  0  0  0
 47 44  1  0  0  0  0
 48 47  4  0  0  0  0
 49 48  1  0  0  0  0
 50 48  4  0  0  0  0
 51 50  1  0  0  0  0
 52 50  4  0  0  0  0
 53 52  1  0  0  0  0
 54 52  4  0  0  0  0
 55 54  1  0  0  0  0
 56 47  4  0  0  0  0
 57 56  1  0  0  0  0
 58 57  4  0  0  0  0
 59 58  1  0  0  0  0
 60 58  4  0  0  0  0
 61 60  1  0  0  0  0
 62 60  4  0  0  0  0
 63 62  1  0  0  0  0
 64 62  4  0  0  0  0
 65 64  1  0  0  0  0
 66 45  1  0  0  0  0
 67 68  1  0  0  0  0
 69 67  1  0  0  0  0
 70 69  1  0  0  0  0
 71 69  1  0  0  0  0
 72 69  1  0  0  0  0
 73 72  1  0  0  0  0
 74 72  1  0  0  0  0
 75 72  1  0  0  0  0
 76 75  1  0  0  0  0
 77 75  1  0  0  0  0
 78 75  1  0  0  0  0
 79 78  1  0  0  0  0
 80 78  1  0  0  0  0
 81 80  1  0  0  0  0
 82 80  1  0  0  0  0
 83 80  1  0  0  0  0
 84 83  1  0  0  0  0
 85 83  1  0  0  0  0
 86 67  1  0  0  0  0
 87 86  1  0  0  0  0
 88 86  1  0  0  0  0
 89 93  3  0  0  0  0
 90 96  1  0  0  0  0
 91 92  1  0  0  0  0
 92  1  1  0  0  0  0
 94  1  1  0  0  0  0
 95 44  1  0  0  0  0
 96 89  1  0  0  0  0
  9 11  4  0  0  0  0
 19 21  4  0  0  0  0
 21 92  1  0  0  0  0
 22 94  1  0  0  0  0
 33 94  1  0  0  0  0
 38 41  1  0  0  0  0
 54 56  4  0  0  0  0
 57 66  4  0  0  0  0
 64 66  4  0  0  0  0
 67 95  1  0  0  0  0
 78 95  1  0  0  0  0
 83 86  1  0  0  0  0
 94 96  1  0  0  0  0
 95 96  1  0  0  0  0
M  END
$$$$
SIWJAJ

From CSD data. Using bond type 'Any'. No disordered atoms. Largest molecule.
 94105  0  0  0  0  0  0  0  0999 V2000
    9.8839   12.0134    1.0735 Mn  0  0  0  0  0  0  0  0  0  0  0  0
    6.3098    9.9463    4.2872 Mn  0  0  0  0  0  0  0  0  0  0  0  0
    9.9437   10.1451    2.3048 P   0  0  0  0  0  0  0  0  0  0  0  0
    8.4283    9.3573    3.9128 P   0  0  0  0  0  0  0  0  0  0  0  0
    9.1897    8.4040    2.4492 B   0  0  0  0  0  0  0  0  0  0  0  0
   10.2267    9.9167    4.1767 B   0  0  0  0  0  0  0  0  0  0  0  0
    9.1685    7.1606    1.8109 N   0  0  0  0  0  0  0  0  0  0  0  0
    8.6527    5.9073    2.5056 C   0  0  0  0  0  0  0  0  0  0  0  0
    7.4530    5.2961    1.7591 C   0  0  0  0  0  0  0  0  0  0  0  0
    8.1670    6.2222    3.9128 C   0  0  0  0  0  0  0  0  0  0  0  0
    9.7731    4.8812    2.6882 C   0  0  0  0  0  0  0  0  0  0  0  0
    9.8655    7.0705    0.4330 C   0  0  0  0  0  0  0  0  0  0  0  0
   11.3572    7.2075    0.6337 C   0  0  0  0  0  0  0  0  0  0  0  0
    9.5821    5.8060   -0.3947 C   0  0  0  0  0  0  0  0  0  0  0  0
    9.3472    8.1991   -0.4398 C   0  0  0  0  0  0  0  0  0  0  0  0
   11.1746   10.1328    5.1757 N   0  0  0  0  0  0  0  0  0  0  0  0
   10.6694   10.1562    6.6236 C   0  0  0  0  0  0  0  0  0  0  0  0
   11.6540   10.5896    7.6948 C   0  0  0  0  0  0  0  0  0  0  0  0
   10.1420    8.7893    7.0025 C   0  0  0  0  0  0  0  0  0  0  0  0
    9.5604   11.1712    6.7025 C   0  0  0  0  0  0  0  0  0  0  0  0
   12.6572   10.2167    4.8623 C   0  0  0  0  0  0  0  0  0  0  0  0
   12.9191    9.9895    3.3896 C   0  0  0  0  0  0  0  0  0  0  0  0
   13.2048   11.6034    5.1757 C   0  0  0  0  0  0  0  0  0  0  0  0
   13.4464    9.1338    5.5749 C   0  0  0  0  0  0  0  0  0  0  0  0
   10.5959   14.0113    0.8006 C   0  0  0  0  0  0  0  0  0  0  0  0
    9.1937   14.0286    0.9540 C   0  0  0  0  0  0  0  0  0  0  0  0
    8.8730   13.5223    2.2237 C   0  0  0  0  0  0  0  0  0  0  0  0
   10.0670   13.1963    2.8619 C   0  0  0  0  0  0  0  0  0  0  0  0
   11.1440   13.4791    2.0049 C   0  0  0  0  0  0  0  0  0  0  0  0
   11.3829   14.5620   -0.3563 C   0  0  0  0  0  0  0  0  0  0  0  0
    8.4802   11.4355    0.1759 C   0  0  0  0  0  0  0  0  0  0  0  0
    7.5479   11.1058   -0.4375 O   0  0  0  0  0  0  0  0  0  0  0  0
   10.9811   11.4046   -0.1579 C   0  0  0  0  0  0  0  0  0  0  0  0
   11.7142   11.0823   -1.0013 O   0  0  0  0  0  0  0  0  0  0  0  0
    4.5662   10.7514    3.3152 C   0  0  0  0  0  0  0  0  0  0  0  0
    4.2364    9.5623    4.0143 C   0  0  0  0  0  0  0  0  0  0  0  0
    4.9731    8.4855    3.4595 C   0  0  0  0  0  0  0  0  0  0  0  0
    5.7554    9.0177    2.4379 C   0  0  0  0  0  0  0  0  0  0  0  0
    5.5226   10.3921    2.3432 C   0  0  0  0  0  0  0  0  0  0  0  0
    3.9413   12.0973    3.4979 C   0  0  0  0  0  0  0  0  0  0  0  0
    6.7946   11.5713    4.7540 C   0  0  0  0  0  0  0  0  0  0  0  0
    7.0697   12.6530    5.0607 O   0  0  0  0  0  0  0  0  0  0  0  0
    6.3072    9.4376    5.9809 C   0  0  0  0  0  0  0  0  0  0  0  0
    6.2616    9.1597    7.1152 O   0  0  0  0  0  0  0  0  0  0  0  0
    7.7118    5.0750    0.8615 H   0  0  0  0  0  0  0  0  0  0  0  0
    7.1577    4.5033    2.2124 H   0  0  0  0  0  0  0  0  0  0  0  0
    6.7407    5.9382    1.7365 H   0  0  0  0  0  0  0  0  0  0  0  0
    8.8913    6.5988    4.4180 H   0  0  0  0  0  0  0  0  0  0  0  0
    7.4450    6.8531    3.8677 H   0  0  0  0  0  0  0  0  0  0  0  0
    7.8622    5.4183    4.3413 H   0  0  0  0  0  0  0  0  0  0  0  0
   10.5085    5.2825    3.1573 H   0  0  0  0  0  0  0  0  0  0  0  0
    9.4374    4.1390    3.1957 H   0  0  0  0  0  0  0  0  0  0  0  0
   10.0703    4.5725    1.8290 H   0  0  0  0  0  0  0  0  0  0  0  0
   11.8055    7.1532   -0.2120 H   0  0  0  0  0  0  0  0  0  0  0  0
   11.5505    8.0534    1.0442 H   0  0  0  0  0  0  0  0  0  0  0  0
   11.6631    6.4988    1.2043 H   0  0  0  0  0  0  0  0  0  0  0  0
   10.0569    5.8332   -1.2291 H   0  0  0  0  0  0  0  0  0  0  0  0
    9.8627    5.0380    0.1083 H   0  0  0  0  0  0  0  0  0  0  0  0
    8.6390    5.7505   -0.5638 H   0  0  0  0  0  0  0  0  0  0  0  0
    9.7633    8.1731   -1.3058 H   0  0  0  0  0  0  0  0  0  0  0  0
    8.3977    8.0904   -0.5390 H   0  0  0  0  0  0  0  0  0  0  0  0
    9.5307    9.0437   -0.0226 H   0  0  0  0  0  0  0  0  0  0  0  0
   11.2281   10.5674    8.5541 H   0  0  0  0  0  0  0  0  0  0  0  0
   12.3990    9.9846    7.6903 H   0  0  0  0  0  0  0  0  0  0  0  0
   11.9635   11.4799    7.5144 H   0  0  0  0  0  0  0  0  0  0  0  0
    9.5100    8.5053    6.3372 H   0  0  0  0  0  0  0  0  0  0  0  0
   10.8732    8.1670    7.0341 H   0  0  0  0  0  0  0  0  0  0  0  0
    9.7137    8.8214    7.8595 H   0  0  0  0  0  0  0  0  0  0  0  0
    8.8908   10.9650    6.0463 H   0  0  0  0  0  0  0  0  0  0  0  0
    9.1671   11.1527    7.5776 H   0  0  0  0  0  0  0  0  0  0  0  0
    9.9178   12.0455    6.5289 H   0  0  0  0  0  0  0  0  0  0  0  0
   12.6017    9.1178    3.1438 H   0  0  0  0  0  0  0  0  0  0  0  0
   12.4398   10.6563    2.8912 H   0  0  0  0  0  0  0  0  0  0  0  0
   13.8565   10.0562    3.1934 H   0  0  0  0  0  0  0  0  0  0  0  0
   12.6997   12.2579    4.6864 H   0  0  0  0  0  0  0  0  0  0  0  0
   13.1115   11.7664    6.1162 H   0  0  0  0  0  0  0  0  0  0  0  0
   14.1310   11.6652    4.9299 H   0  0  0  0  0  0  0  0  0  0  0  0
   13.0969    8.2682    5.3494 H   0  0  0  0  0  0  0  0  0  0  0  0
   14.3748    9.1770    5.3336 H   0  0  0  0  0  0  0  0  0  0  0  0
   13.3553    9.2783    6.5199 H   0  0  0  0  0  0  0  0  0  0  0  0
    8.5647   14.3669    0.3135 H   0  0  0  0  0  0  0  0  0  0  0  0
    7.9926   13.4396    2.6003 H   0  0  0  0  0  0  0  0  0  0  0  0
   10.1415   12.8370    3.7482 H   0  0  0  0  0  0  0  0  0  0  0  0
   12.0776   13.3754    2.2056 H   0  0  0  0  0  0  0  0  0  0  0  0
   11.5705   15.4918   -0.2120 H   0  0  0  0  0  0  0  0  0  0  0  0
   12.2076   14.0780   -0.4420 H   0  0  0  0  0  0  0  0  0  0  0  0
   10.8675   14.4620   -1.1614 H   0  0  0  0  0  0  0  0  0  0  0  0
    3.5981    9.4919    4.7270 H   0  0  0  0  0  0  0  0  0  0  0  0
    4.9131    7.5644    3.7256 H   0  0  0  0  0  0  0  0  0  0  0  0
    6.3454    8.5090    1.8786 H   0  0  0  0  0  0  0  0  0  0  0  0
    5.9240   10.9897    1.7072 H   0  0  0  0  0  0  0  0  0  0  0  0
    3.1595   12.1801    2.9476 H   0  0  0  0  0  0  0  0  0  0  0  0
    3.6989   12.2258    4.4180 H   0  0  0  0  0  0  0  0  0  0  0  0
    4.5860   12.7592    3.2430 H   0  0  0  0  0  0  0  0  0  0  0  0
  1  3  1  0  0  0  0
  2  4  1  0  0  0  0
  3  4  1  0  0  0  0
  4  5  1  0  0  0  0
  5  3  1  0  0  0  0
  6  3  1  0  0  0  0
  7  5  1  0  0  0  0
  8  7  1  0  0  0  0
  9  8  1  0  0  0  0
 10  8  1  0  0  0  0
 11  8  1  0  0  0  0
 12  7  1  0  0  0  0
 13 12  1  0  0  0  0
 14 12  1  0  0  0  0
 15 12  1  0  0  0  0
 16  6  1  0  0  0  0
 17 16  1  0  0  0  0
 18 17  1  0  0  0  0
 19 17  1  0  0  0  0
 20 17  1  0  0  0  0
 21 16  1  0  0  0  0
 22 21  1  0  0  0  0
 23 21  1  0  0  0  0
 24 21  1  0  0  0  0
 25  1  8  0  0  0  0
 26  1  8  0  0  0  0
 27  1  8  0  0  0  0
 28  1  8  0  0  0  0
 29  1  8  0  0  0  0
 30 25  1  0  0  0  0
 31  1  1  0  0  0  0
 32 31  3  0  0  0  0
 33  1  1  0  0  0  0
 34 33  3  0  0  0  0
 35  2  8  0  0  0  0
 36  2  8  0  0  0  0
 37  2  8  0  0  0  0
 38  2  8  0  0  0  0
 39  2  8  0  0  0  0
 40 35  1  0  0  0  0
 41  2  1  0  0  0  0
 42 41  3  0  0  0  0
 43  2  1  0  0  0  0
 44 43  3  0  0  0  0
 45  9  1  0  0  0  0
 46  9  1  0  0  0  0
 47  9  1  0  0  0  0
 48 10  1  0  0  0  0
 49 10  1  0  0  0  0
 50 10  1  0  0  0  0
 51 11  1  0  0  0  0
 52 11  1  0  0  0  0
 53 11  1  0  0  0  0
 54 13  1  0  0  0  0
 55 13  1  0  0  0  0
 56 13  1  0  0  0  0
 57 14  1  0  0  0  0
 58 14  1  0  0  0  0
 59 14  1  0  0  0  0
 60 15  1  0  0  0  0
 61 15  1  0  0  0  0
 62 15  1  0  0  0  0
 63 18  1  0  0  0  0
 64 18  1  0  0  0  0
 65 18  1  0  0  0  0
 66 19  1  0  0  0  0
 67 19  1  0  0  0  0
 68 19  1  0  0  0  0
 69 20  1  0  0  0  0
 70 20  1  0  0  0  0
 71 20  1  0  0  0  0
 72 22  1  0  0  0  0
 73 22  1  0  0  0  0
 74 22  1  0  0  0  0
 75 23  1  0  0  0  0
 76 23  1  0  0  0  0
 77 23  1  0  0  0  0
 78 24  1  0  0  0  0
 79 24  1  0  0  0  0
 80 24  1  0  0  0  0
 81 26  1  0  0  0  0
 82 27  1  0  0  0  0
 83 28  1  0  0  0  0
 84 29  1  0  0  0  0
 85 30  1  0  0  0  0
 86 30  1  0  0  0  0
 87 30  1  0  0  0  0
 88 36  1  0  0  0  0
 89 37  1  0  0  0  0
 90 38  1  0  0  0  0
 91 39  1  0  0  0  0
 92 40  1  0  0  0  0
 93 40  1  0  0  0  0
 94 40  1  0  0  0  0
  4  6  1  0  0  0  0
 25 26  4  0  0  0  0
 25 29  4  0  0  0  0
 26 27  4  0  0  0  0
 27 28  4  0  0  0  0
 28 29  4  0  0  0  0
 35 36  4  0  0  0  0
 35 39  4  0  0  0  0
 36 37  4  0  0  0  0
 37 38  4  0  0  0  0
 38 39  4  0  0  0  0
M  END
$$$$
SODDUM

From CSD data. Using bond type 'Any'. No disordered atoms. Largest molecule.
112126  0  0  0  0  0  0  0  0999 V2000
    6.8586    9.5565    5.8009 P   0  0  0  0  0  0  0  0  0  0  0  0
    7.7951    8.6240    6.5311 O   0  0  0  0  0  0  0  0  0  0  0  0
    9.2176    9.2957    7.7037 Li  0  0  0  0  0  0  0  0  0  0  0  0
    7.4746   11.9788    7.4764 B   0  0  0  0  0  0  0  0  0  0  0  0
    6.3564   11.0084    6.7133 C   0  0  0  0  0  0  0  0  0  0  0  0
    5.8526   11.5852    6.0854 H   0  0  0  0  0  0  0  0  0  0  0  0
    5.7136   10.7084    7.4043 H   0  0  0  0  0  0  0  0  0  0  0  0
    8.8661   11.9906    6.7213 N   0  0  0  0  0  0  0  0  0  0  0  0
    9.8120   11.0021    6.8170 N   0  0  0  0  0  0  0  0  0  0  0  0
   10.8060   11.3637    6.0282 C   0  0  0  0  0  0  0  0  0  0  0  0
   11.6040   10.8610    5.9114 H   0  0  0  0  0  0  0  0  0  0  0  0
   10.5402   12.5768    5.3860 C   0  0  0  0  0  0  0  0  0  0  0  0
   11.0897   13.0465    4.7708 H   0  0  0  0  0  0  0  0  0  0  0  0
    9.2976   12.9312    5.8533 C   0  0  0  0  0  0  0  0  0  0  0  0
    8.8183   13.7139    5.6049 H   0  0  0  0  0  0  0  0  0  0  0  0
    7.7102   11.4613    8.9558 N   0  0  0  0  0  0  0  0  0  0  0  0
    8.3816   10.3024    9.2558 N   0  0  0  0  0  0  0  0  0  0  0  0
    8.3187   10.1644   10.5730 C   0  0  0  0  0  0  0  0  0  0  0  0
    8.7155    9.4484   11.0558 H   0  0  0  0  0  0  0  0  0  0  0  0
    7.5995   11.1994   11.1586 C   0  0  0  0  0  0  0  0  0  0  0  0
    7.4091   11.3286   12.0809 H   0  0  0  0  0  0  0  0  0  0  0  0
    7.2252   11.9950   10.0992 C   0  0  0  0  0  0  0  0  0  0  0  0
    6.7093   12.7900   10.1618 H   0  0  0  0  0  0  0  0  0  0  0  0
    7.0023   13.5401    7.5624 C   0  0  0  0  0  0  0  0  0  0  0  0
    5.8851   14.0589    6.9165 C   0  0  0  0  0  0  0  0  0  0  0  0
    5.3055   13.4654    6.4532 H   0  0  0  0  0  0  0  0  0  0  0  0
    5.5866   15.4254    6.9277 C   0  0  0  0  0  0  0  0  0  0  0  0
    4.8248   15.7451    6.4589 H   0  0  0  0  0  0  0  0  0  0  0  0
    6.3902   16.3100    7.6127 C   0  0  0  0  0  0  0  0  0  0  0  0
    6.1851   17.2373    7.6253 H   0  0  0  0  0  0  0  0  0  0  0  0
    7.4962   15.8291    8.2806 C   0  0  0  0  0  0  0  0  0  0  0  0
    8.0531   16.4255    8.7673 H   0  0  0  0  0  0  0  0  0  0  0  0
    7.7987   14.4738    8.2433 C   0  0  0  0  0  0  0  0  0  0  0  0
    8.5761   14.1669    8.6960 H   0  0  0  0  0  0  0  0  0  0  0  0
    5.3698    8.6308    5.3313 C   0  0  0  0  0  0  0  0  0  0  0  0
    4.1025    9.1814    5.2969 C   0  0  0  0  0  0  0  0  0  0  0  0
    3.9851   10.0979    5.5151 H   0  0  0  0  0  0  0  0  0  0  0  0
    2.9954    8.4123    4.9462 C   0  0  0  0  0  0  0  0  0  0  0  0
    2.1333    8.8086    4.9276 H   0  0  0  0  0  0  0  0  0  0  0  0
    3.1422    7.0870    4.6302 C   0  0  0  0  0  0  0  0  0  0  0  0
    2.3838    6.5614    4.4043 H   0  0  0  0  0  0  0  0  0  0  0  0
    4.3965    6.5283    4.6429 C   0  0  0  0  0  0  0  0  0  0  0  0
    4.5062    5.6132    4.4100 H   0  0  0  0  0  0  0  0  0  0  0  0
    5.5058    7.2872    4.9929 C   0  0  0  0  0  0  0  0  0  0  0  0
    6.3664    6.8845    5.0018 H   0  0  0  0  0  0  0  0  0  0  0  0
    7.6112   10.1180    4.2546 C   0  0  0  0  0  0  0  0  0  0  0  0
    6.9401   11.0023    3.3979 C   0  0  0  0  0  0  0  0  0  0  0  0
    6.0795   11.3286    3.6344 H   0  0  0  0  0  0  0  0  0  0  0  0
    7.5283   11.4028    2.2053 C   0  0  0  0  0  0  0  0  0  0  0  0
    7.0692   12.0008    1.6269 H   0  0  0  0  0  0  0  0  0  0  0  0
    8.7877   10.9302    1.8560 C   0  0  0  0  0  0  0  0  0  0  0  0
    9.1867   11.2052    1.0380 H   0  0  0  0  0  0  0  0  0  0  0  0
    9.4643   10.0590    2.6974 C   0  0  0  0  0  0  0  0  0  0  0  0
   10.3264    9.7406    2.4581 H   0  0  0  0  0  0  0  0  0  0  0  0
    8.8795    9.6512    3.8915 C   0  0  0  0  0  0  0  0  0  0  0  0
    9.3440    9.0522    4.4642 H   0  0  0  0  0  0  0  0  0  0  0  0
   11.0373    6.6806    8.4572 P   0  0  0  0  0  0  0  0  0  0  0  0
   10.1009    7.6131    7.7271 O   0  0  0  0  0  0  0  0  0  0  0  0
    8.6784    6.9414    6.5545 Li  0  0  0  0  0  0  0  0  0  0  0  0
   10.4213    4.2583    6.7817 B   0  0  0  0  0  0  0  0  0  0  0  0
   11.5396    5.2287    7.5448 C   0  0  0  0  0  0  0  0  0  0  0  0
   12.0433    4.6519    8.1728 H   0  0  0  0  0  0  0  0  0  0  0  0
   12.1824    5.5287    6.8539 H   0  0  0  0  0  0  0  0  0  0  0  0
    9.0299    4.2465    7.5369 N   0  0  0  0  0  0  0  0  0  0  0  0
    8.0839    5.2350    7.4412 N   0  0  0  0  0  0  0  0  0  0  0  0
    7.0900    4.8734    8.2299 C   0  0  0  0  0  0  0  0  0  0  0  0
    6.2920    5.3761    8.3467 H   0  0  0  0  0  0  0  0  0  0  0  0
    7.3558    3.6603    8.8721 C   0  0  0  0  0  0  0  0  0  0  0  0
    6.8063    3.1906    9.4874 H   0  0  0  0  0  0  0  0  0  0  0  0
    8.5984    3.3059    8.4049 C   0  0  0  0  0  0  0  0  0  0  0  0
    9.0777    2.5232    8.6533 H   0  0  0  0  0  0  0  0  0  0  0  0
   10.1858    4.7758    5.3023 N   0  0  0  0  0  0  0  0  0  0  0  0
    9.5143    5.9347    5.0023 N   0  0  0  0  0  0  0  0  0  0  0  0
    9.5773    6.0727    3.6852 C   0  0  0  0  0  0  0  0  0  0  0  0
    9.1804    6.7887    3.2024 H   0  0  0  0  0  0  0  0  0  0  0  0
   10.2965    5.0377    3.0996 C   0  0  0  0  0  0  0  0  0  0  0  0
   10.4868    4.9085    2.1772 H   0  0  0  0  0  0  0  0  0  0  0  0
   10.6708    4.2421    4.1590 C   0  0  0  0  0  0  0  0  0  0  0  0
   11.1867    3.4471    4.0964 H   0  0  0  0  0  0  0  0  0  0  0  0
   10.8937    2.6970    6.6958 C   0  0  0  0  0  0  0  0  0  0  0  0
   12.0109    2.1782    7.3417 C   0  0  0  0  0  0  0  0  0  0  0  0
   12.5905    2.7717    7.8049 H   0  0  0  0  0  0  0  0  0  0  0  0
   12.3094    0.8117    7.3304 C   0  0  0  0  0  0  0  0  0  0  0  0
   13.0712    0.4920    7.7992 H   0  0  0  0  0  0  0  0  0  0  0  0
   11.5058   -0.0729    6.6454 C   0  0  0  0  0  0  0  0  0  0  0  0
   11.7109   -1.0002    6.6329 H   0  0  0  0  0  0  0  0  0  0  0  0
   10.3998    0.4080    5.9776 C   0  0  0  0  0  0  0  0  0  0  0  0
    9.8429   -0.1884    5.4908 H   0  0  0  0  0  0  0  0  0  0  0  0
   10.0972    1.7633    6.0148 C   0  0  0  0  0  0  0  0  0  0  0  0
    9.3198    2.0702    5.5621 H   0  0  0  0  0  0  0  0  0  0  0  0
   12.5262    7.6063    8.9269 C   0  0  0  0  0  0  0  0  0  0  0  0
   13.7934    7.0557    8.9612 C   0  0  0  0  0  0  0  0  0  0  0  0
   13.9109    6.1392    8.7431 H   0  0  0  0  0  0  0  0  0  0  0  0
   14.9005    7.8248    9.3120 C   0  0  0  0  0  0  0  0  0  0  0  0
   15.7627    7.4285    9.3305 H   0  0  0  0  0  0  0  0  0  0  0  0
   14.7538    9.1501    9.6280 C   0  0  0  0  0  0  0  0  0  0  0  0
   15.5122    9.6757    9.8538 H   0  0  0  0  0  0  0  0  0  0  0  0
   13.4994    9.7088    9.6153 C   0  0  0  0  0  0  0  0  0  0  0  0
   13.3897   10.6239    9.8481 H   0  0  0  0  0  0  0  0  0  0  0  0
   12.3902    8.9499    9.2652 C   0  0  0  0  0  0  0  0  0  0  0  0
   11.5295    9.3526    9.2564 H   0  0  0  0  0  0  0  0  0  0  0  0
   10.2848    6.1191   10.0035 C   0  0  0  0  0  0  0  0  0  0  0  0
   10.9558    5.2348   10.8603 C   0  0  0  0  0  0  0  0  0  0  0  0
   11.8165    4.9085   10.6237 H   0  0  0  0  0  0  0  0  0  0  0  0
   10.3677    4.8343   12.0528 C   0  0  0  0  0  0  0  0  0  0  0  0
   10.8268    4.2363   12.6313 H   0  0  0  0  0  0  0  0  0  0  0  0
    9.1083    5.3069   12.4022 C   0  0  0  0  0  0  0  0  0  0  0  0
    8.7093    5.0319   13.2202 H   0  0  0  0  0  0  0  0  0  0  0  0
    8.4316    6.1781   11.5608 C   0  0  0  0  0  0  0  0  0  0  0  0
    7.5696    6.4965   11.8000 H   0  0  0  0  0  0  0  0  0  0  0  0
    9.0165    6.5859   10.3667 C   0  0  0  0  0  0  0  0  0  0  0  0
    8.5520    7.1849    9.7939 H   0  0  0  0  0  0  0  0  0  0  0  0
  1  2  2  0  0  0  0
  2  3  1  0  0  0  0
  3  9  1  0  0  0  0
  4  5  1  0  0  0  0
  5  1  1  0  0  0  0
  6  5  1  0  0  0  0
  7  5  1  0  0  0  0
  8  4  1  0  0  0  0
  9  8  4  0  0  0  0
 10  9  4  0  0  0  0
 11 10  1  0  0  0  0
 12 10  4  0  0  0  0
 13 12  1  0  0  0  0
 14  8  4  0  0  0  0
 15 14  1  0  0  0  0
 16  4  1  0  0  0  0
 17  3  1  0  0  0  0
 18 17  4  0  0  0  0
 19 18  1  0  0  0  0
 20 18  4  0  0  0  0
 21 20  1  0  0  0  0
 22 16  4  0  0  0  0
 23 22  1  0  0  0  0
 24  4  1  0  0  0  0
 25 24  4  0  0  0  0
 26 25  1  0  0  0  0
 27 25  4  0  0  0  0
 28 27  1  0  0  0  0
 29 27  4  0  0  0  0
 30 29  1  0  0  0  0
 31 29  4  0  0  0  0
 32 31  1  0  0  0  0
 33 24  4  0  0  0  0
 34 33  1  0  0  0  0
 35  1  1  0  0  0  0
 36 35  4  0  0  0  0
 37 36  1  0  0  0  0
 38 36  4  0  0  0  0
 39 38  1  0  0  0  0
 40 38  4  0  0  0  0
 41 40  1  0  0  0  0
 42 40  4  0  0  0  0
 43 42  1  0  0  0  0
 44 35  4  0  0  0  0
 45 44  1  0  0  0  0
 46  1  1  0  0  0  0
 47 46  4  0  0  0  0
 48 47  1  0  0  0  0
 49 47  4  0  0  0  0
 50 49  1  0  0  0  0
 51 49  4  0  0  0  0
 52 51  1  0  0  0  0
 53 51  4  0  0  0  0
 54 53  1  0  0  0  0
 55 46  4  0  0  0  0
 56 55  1  0  0  0  0
 57 58  2  0  0  0  0
 58  3  1  0  0  0  0
 59  2  1  0  0  0  0
 60 61  1  0  0  0  0
 61 57  1  0  0  0  0
 62 61  1  0  0  0  0
 63 61  1  0  0  0  0
 64 60  1  0  0  0  0
 65 59  1  0  0  0  0
 66 65  4  0  0  0  0
 67 66  1  0  0  0  0
 68 66  4  0  0  0  0
 69 68  1  0  0  0  0
 70 64  4  0  0  0  0
 71 70  1  0  0  0  0
 72 60  1  0  0  0  0
 73 59  1  0  0  0  0
 74 73  4  0  0  0  0
 75 74  1  0  0  0  0
 76 74  4  0  0  0  0
 77 76  1  0  0  0  0
 78 72  4  0  0  0  0
 79 78  1  0  0  0  0
 80 60  1  0  0  0  0
 81 80  4  0  0  0  0
 82 81  1  0  0  0  0
 83 81  4  0  0  0  0
 84 83  1  0  0  0  0
 85 83  4  0  0  0  0
 86 85  1  0  0  0  0
 87 85  4  0  0  0  0
 88 87  1  0  0  0  0
 89 80  4  0  0  0  0
 90 89  1  0  0  0  0
 91 57  1  0  0  0  0
 92 91  4  0  0  0  0
 93 92  1  0  0  0  0
 94 92  4  0  0  0  0
 95 94  1  0  0  0  0
 96 94  4  0  0  0  0
 97 96  1  0  0  0  0
 98 96  4  0  0  0  0
 99 98  1  0  0  0  0
100 91  4  0  0  0  0
101100  1  0  0  0  0
102 57  1  0  0  0  0
103102  4  0  0  0  0
104103  1  0  0  0  0
105103  4  0  0  0  0
106105  1  0  0  0  0
107105  4  0  0  0  0
108107  1  0  0  0  0
109107  4  0  0  0  0
110109  1  0  0  0  0
111102  4  0  0  0  0
112111  1  0  0  0  0
 12 14  4  0  0  0  0
 16 17  4  0  0  0  0
 20 22  4  0  0  0  0
 31 33  4  0  0  0  0
 42 44  4  0  0  0  0
 53 55  4  0  0  0  0
 58 59  1  0  0  0  0
 64 65  4  0  0  0  0
 68 70  4  0  0  0  0
 72 73  4  0  0  0  0
 76 78  4  0  0  0  0
 87 89  4  0  0  0  0
 98100  4  0  0  0  0
109111  4  0  0  0  0
M  END
$$$$
SOHVUH

From CSD data. Using bond type 'Any'. No disordered atoms. Largest molecule.
113120  0  0  0  0  0  0  0  0999 V2000
   13.7646   14.4012    0.0000 Re  0  3  0  0  0  0  0  0  0  0  0  0
   12.7585   12.2342   -0.4839 P   0  0  0  0  0  0  0  0  0  0  0  0
   11.0237   15.3207    1.1688 O   0  0  0  0  0  0  0  0  0  0  0  0
   14.3584   13.5307    2.9475 O   0  0  0  0  0  0  0  0  0  0  0  0
   10.5140   10.5440    2.6985 B   0  0  0  0  0  0  0  0  0  0  0  0
   12.0102   15.0072    0.7022 C   0  0  0  0  0  0  0  0  0  0  0  0
   14.1826   13.8216    1.8703 C   0  0  0  0  0  0  0  0  0  0  0  0
   12.0844   12.2110   -2.1670 C   0  0  0  0  0  0  0  0  0  0  0  0
   10.8674   12.8231   -2.4124 C   0  0  0  0  0  0  0  0  0  0  0  0
   10.3720   13.1915   -1.6892 H   0  0  0  0  0  0  0  0  0  0  0  0
   10.3658   12.9060   -3.7000 C   0  0  0  0  0  0  0  0  0  0  0  0
    9.5340   13.3372   -3.8562 H   0  0  0  0  0  0  0  0  0  0  0  0
   11.0613   12.3730   -4.7447 C   0  0  0  0  0  0  0  0  0  0  0  0
   10.7070   12.4156   -5.6241 H   0  0  0  0  0  0  0  0  0  0  0  0
   12.2687   11.7786   -4.5229 C   0  0  0  0  0  0  0  0  0  0  0  0
   12.7513   11.4142   -5.2553 H   0  0  0  0  0  0  0  0  0  0  0  0
   12.8049   11.6955   -3.2445 C   0  0  0  0  0  0  0  0  0  0  0  0
   13.6540   11.2914   -3.1054 H   0  0  0  0  0  0  0  0  0  0  0  0
   13.8232   10.7651   -0.3544 C   0  0  0  0  0  0  0  0  0  0  0  0
   13.4568    9.5751   -0.9909 C   0  0  0  0  0  0  0  0  0  0  0  0
   12.6729    9.5414   -1.5251 H   0  0  0  0  0  0  0  0  0  0  0  0
   14.2476    8.4412   -0.8387 C   0  0  0  0  0  0  0  0  0  0  0  0
   14.0142    7.6392   -1.2915 H   0  0  0  0  0  0  0  0  0  0  0  0
   15.3685    8.4695   -0.0328 C   0  0  0  0  0  0  0  0  0  0  0  0
   15.9055    7.6910    0.0604 H   0  0  0  0  0  0  0  0  0  0  0  0
   15.7128    9.6277    0.6379 C   0  0  0  0  0  0  0  0  0  0  0  0
   16.4642    9.6412    1.2180 H   0  0  0  0  0  0  0  0  0  0  0  0
   14.9385   10.7829    0.4515 C   0  0  0  0  0  0  0  0  0  0  0  0
   15.1861   11.5890    0.8873 H   0  0  0  0  0  0  0  0  0  0  0  0
   11.3134   11.7201    0.4961 C   0  0  0  0  0  0  0  0  0  0  0  0
   10.6211   12.4248    0.4187 H   0  0  0  0  0  0  0  0  0  0  0  0
   10.9432   10.8965    0.0932 H   0  0  0  0  0  0  0  0  0  0  0  0
   11.5559   11.4621    1.9478 C   0  0  0  0  0  0  0  0  0  0  0  0
   11.5861   12.3348    2.4137 H   0  0  0  0  0  0  0  0  0  0  0  0
   12.4506   11.0494    2.0410 H   0  0  0  0  0  0  0  0  0  0  0  0
    9.9838    9.1802    2.1328 C   0  0  0  0  0  0  0  0  0  0  0  0
   10.3102    9.0575    1.1957 H   0  0  0  0  0  0  0  0  0  0  0  0
    8.4448    9.1674    2.1499 C   0  0  0  0  0  0  0  0  0  0  0  0
    8.1336    8.2591    1.9097 H   0  0  0  0  0  0  0  0  0  0  0  0
    8.1162    9.7907    1.4543 H   0  0  0  0  0  0  0  0  0  0  0  0
    7.8096    9.5669    3.5162 C   0  0  0  0  0  0  0  0  0  0  0  0
    6.8505    9.7693    3.3771 H   0  0  0  0  0  0  0  0  0  0  0  0
    7.8685    8.7963    4.1357 H   0  0  0  0  0  0  0  0  0  0  0  0
    8.4762   10.7612    4.1541 C   0  0  0  0  0  0  0  0  0  0  0  0
    8.1855   10.8089    5.0991 H   0  0  0  0  0  0  0  0  0  0  0  0
    8.1460   11.5766    3.7013 H   0  0  0  0  0  0  0  0  0  0  0  0
   10.0164   10.7801    4.1213 C   0  0  0  0  0  0  0  0  0  0  0  0
   10.3331   11.6775    4.4297 H   0  0  0  0  0  0  0  0  0  0  0  0
   10.6801    9.7112    4.9692 C   0  0  0  0  0  0  0  0  0  0  0  0
   11.6562    9.8725    4.9692 H   0  0  0  0  0  0  0  0  0  0  0  0
   10.3622    9.8091    5.9011 H   0  0  0  0  0  0  0  0  0  0  0  0
   10.4368    8.3065    4.5347 C   0  0  0  0  0  0  0  0  0  0  0  0
    9.5234    8.0471    4.8130 H   0  0  0  0  0  0  0  0  0  0  0  0
   11.0713    7.7177    5.0138 H   0  0  0  0  0  0  0  0  0  0  0  0
   10.5768    8.0491    3.0463 C   0  0  0  0  0  0  0  0  0  0  0  0
   10.1225    7.1960    2.8285 H   0  0  0  0  0  0  0  0  0  0  0  0
   11.5368    7.9405    2.8324 H   0  0  0  0  0  0  0  0  0  0  0  0
   14.7708   16.5682    0.4839 P   0  0  0  0  0  0  0  0  0  0  0  0
   16.5055   13.4817   -1.1688 O   0  0  0  0  0  0  0  0  0  0  0  0
   13.1709   15.2717   -2.9475 O   0  0  0  0  0  0  0  0  0  0  0  0
   17.0152   18.2584   -2.6985 B   0  0  0  0  0  0  0  0  0  0  0  0
   15.5190   13.7952   -0.7022 C   0  0  0  0  0  0  0  0  0  0  0  0
   13.3466   14.9808   -1.8703 C   0  0  0  0  0  0  0  0  0  0  0  0
   15.4449   16.5914    2.1670 C   0  0  0  0  0  0  0  0  0  0  0  0
   16.6619   15.9793    2.4124 C   0  0  0  0  0  0  0  0  0  0  0  0
   17.1573   15.6109    1.6892 H   0  0  0  0  0  0  0  0  0  0  0  0
   17.1634   15.8965    3.7000 C   0  0  0  0  0  0  0  0  0  0  0  0
   17.9953   15.4652    3.8562 H   0  0  0  0  0  0  0  0  0  0  0  0
   16.4680   16.4295    4.7447 C   0  0  0  0  0  0  0  0  0  0  0  0
   16.8223   16.3868    5.6241 H   0  0  0  0  0  0  0  0  0  0  0  0
   15.2606   17.0238    4.5229 C   0  0  0  0  0  0  0  0  0  0  0  0
   14.7780   17.3882    5.2553 H   0  0  0  0  0  0  0  0  0  0  0  0
   14.7244   17.1069    3.2445 C   0  0  0  0  0  0  0  0  0  0  0  0
   13.8753   17.5110    3.1054 H   0  0  0  0  0  0  0  0  0  0  0  0
   13.7061   18.0373    0.3544 C   0  0  0  0  0  0  0  0  0  0  0  0
   14.0725   19.2273    0.9909 C   0  0  0  0  0  0  0  0  0  0  0  0
   14.8563   19.2610    1.5251 H   0  0  0  0  0  0  0  0  0  0  0  0
   13.2817   20.3613    0.8387 C   0  0  0  0  0  0  0  0  0  0  0  0
   13.5151   21.1632    1.2915 H   0  0  0  0  0  0  0  0  0  0  0  0
   12.1608   20.3329    0.0328 C   0  0  0  0  0  0  0  0  0  0  0  0
   11.6238   21.1114   -0.0604 H   0  0  0  0  0  0  0  0  0  0  0  0
   11.8164   19.1748   -0.6379 C   0  0  0  0  0  0  0  0  0  0  0  0
   11.0650   19.1612   -1.2180 H   0  0  0  0  0  0  0  0  0  0  0  0
   12.5908   18.0195   -0.4515 C   0  0  0  0  0  0  0  0  0  0  0  0
   12.3432   17.2134   -0.8873 H   0  0  0  0  0  0  0  0  0  0  0  0
   16.2158   17.0824   -0.4961 C   0  0  0  0  0  0  0  0  0  0  0  0
   16.9082   16.3776   -0.4187 H   0  0  0  0  0  0  0  0  0  0  0  0
   16.5861   17.9059   -0.0932 H   0  0  0  0  0  0  0  0  0  0  0  0
   15.9734   17.3403   -1.9478 C   0  0  0  0  0  0  0  0  0  0  0  0
   15.9432   16.4676   -2.4137 H   0  0  0  0  0  0  0  0  0  0  0  0
   15.0787   17.7530   -2.0410 H   0  0  0  0  0  0  0  0  0  0  0  0
   17.5455   19.6222   -2.1328 C   0  0  0  0  0  0  0  0  0  0  0  0
   17.2191   19.7449   -1.1957 H   0  0  0  0  0  0  0  0  0  0  0  0
   19.0845   19.6350   -2.1499 C   0  0  0  0  0  0  0  0  0  0  0  0
   19.3957   20.5433   -1.9097 H   0  0  0  0  0  0  0  0  0  0  0  0
   19.4131   19.0117   -1.4543 H   0  0  0  0  0  0  0  0  0  0  0  0
   19.7197   19.2355   -3.5162 C   0  0  0  0  0  0  0  0  0  0  0  0
   20.6788   19.0331   -3.3771 H   0  0  0  0  0  0  0  0  0  0  0  0
   19.6608   20.0061   -4.1357 H   0  0  0  0  0  0  0  0  0  0  0  0
   19.0531   18.0412   -4.1541 C   0  0  0  0  0  0  0  0  0  0  0  0
   19.3438   17.9935   -5.0991 H   0  0  0  0  0  0  0  0  0  0  0  0
   19.3833   17.2259   -3.7013 H   0  0  0  0  0  0  0  0  0  0  0  0
   17.5129   18.0223   -4.1213 C   0  0  0  0  0  0  0  0  0  0  0  0
   17.1962   17.1249   -4.4297 H   0  0  0  0  0  0  0  0  0  0  0  0
   16.8492   19.0912   -4.9692 C   0  0  0  0  0  0  0  0  0  0  0  0
   15.8730   18.9299   -4.9692 H   0  0  0  0  0  0  0  0  0  0  0  0
   17.1670   18.9933   -5.9011 H   0  0  0  0  0  0  0  0  0  0  0  0
   17.0925   20.4959   -4.5347 C   0  0  0  0  0  0  0  0  0  0  0  0
   18.0059   20.7553   -4.8130 H   0  0  0  0  0  0  0  0  0  0  0  0
   16.4579   21.0847   -5.0138 H   0  0  0  0  0  0  0  0  0  0  0  0
   16.9525   20.7533   -3.0463 C   0  0  0  0  0  0  0  0  0  0  0  0
   17.4068   21.6064   -2.8285 H   0  0  0  0  0  0  0  0  0  0  0  0
   15.9925   20.8619   -2.8324 H   0  0  0  0  0  0  0  0  0  0  0  0
  1  2  1  0  0  0  0
  2  8  1  0  0  0  0
  3  6  3  0  0  0  0
  4  7  3  0  0  0  0
  5 33  1  0  0  0  0
  6  1  1  0  0  0  0
  7  1  1  0  0  0  0
  8  9  4  0  0  0  0
  9 10  1  0  0  0  0
 11  9  4  0  0  0  0
 12 11  1  0  0  0  0
 13 11  4  0  0  0  0
 14 13  1  0  0  0  0
 15 13  4  0  0  0  0
 16 15  1  0  0  0  0
 17  8  4  0  0  0  0
 18 17  1  0  0  0  0
 19  2  1  0  0  0  0
 20 19  4  0  0  0  0
 21 20  1  0  0  0  0
 22 20  4  0  0  0  0
 23 22  1  0  0  0  0
 24 22  4  0  0  0  0
 25 24  1  0  0  0  0
 26 24  4  0  0  0  0
 27 26  1  0  0  0  0
 28 19  4  0  0  0  0
 29 28  1  0  0  0  0
 30  2  1  0  0  0  0
 31 30  1  0  0  0  0
 32 30  1  0  0  0  0
 33 30  1  0  0  0  0
 34 33  1  0  0  0  0
 35 33  1  0  0  0  0
 36  5  1  0  0  0  0
 37 36  1  0  0  0  0
 38 36  1  0  0  0  0
 39 38  1  0  0  0  0
 40 38  1  0  0  0  0
 41 38  1  0  0  0  0
 42 41  1  0  0  0  0
 43 41  1  0  0  0  0
 44 41  1  0  0  0  0
 45 44  1  0  0  0  0
 46 44  1  0  0  0  0
 47  5  1  0  0  0  0
 48 47  1  0  0  0  0
 49 47  1  0  0  0  0
 50 49  1  0  0  0  0
 51 49  1  0  0  0  0
 52 49  1  0  0  0  0
 53 52  1  0  0  0  0
 54 52  1  0  0  0  0
 55 36  1  0  0  0  0
 56 55  1  0  0  0  0
 57 55  1  0  0  0  0
 58  1  1  0  0  0  0
 59 62  3  0  0  0  0
 60 63  3  0  0  0  0
 61 89  1  0  0  0  0
 62  1  1  0  0  0  0
 63  1  1  0  0  0  0
 64 58  1  0  0  0  0
 65 64  4  0  0  0  0
 66 65  1  0  0  0  0
 67 65  4  0  0  0  0
 68 67  1  0  0  0  0
 69 67  4  0  0  0  0
 70 69  1  0  0  0  0
 71 69  4  0  0  0  0
 72 71  1  0  0  0  0
 73 64  4  0  0  0  0
 74 73  1  0  0  0  0
 75 58  1  0  0  0  0
 76 75  4  0  0  0  0
 77 76  1  0  0  0  0
 78 76  4  0  0  0  0
 79 78  1  0  0  0  0
 80 78  4  0  0  0  0
 81 80  1  0  0  0  0
 82 80  4  0  0  0  0
 83 82  1  0  0  0  0
 84 75  4  0  0  0  0
 85 84  1  0  0  0  0
 86 58  1  0  0  0  0
 87 86  1  0  0  0  0
 88 86  1  0  0  0  0
 89 86  1  0  0  0  0
 90 89  1  0  0  0  0
 91 89  1  0  0  0  0
 92 61  1  0  0  0  0
 93 92  1  0  0  0  0
 94 92  1  0  0  0  0
 95 94  1  0  0  0  0
 96 94  1  0  0  0  0
 97 94  1  0  0  0  0
 98 97  1  0  0  0  0
 99 97  1  0  0  0  0
100 97  1  0  0  0  0
101100  1  0  0  0  0
102100  1  0  0  0  0
103 61  1  0  0  0  0
104103  1  0  0  0  0
105103  1  0  0  0  0
106105  1  0  0  0  0
107105  1  0  0  0  0
108105  1  0  0  0  0
109108  1  0  0  0  0
110108  1  0  0  0  0
111 92  1  0  0  0  0
112111  1  0  0  0  0
113111  1  0  0  0  0
 15 17  4  0  0  0  0
 26 28  4  0  0  0  0
 44 47  1  0  0  0  0
 52 55  1  0  0  0  0
 71 73  4  0  0  0  0
 82 84  4  0  0  0  0
100103  1  0  0  0  0
108111  1  0  0  0  0
M  CHG  1   1   1
M  END
$$$$
SONLUE

From CSD data. Using bond type 'Any'. No disordered atoms. Largest molecule.
 83104  0  0  0  0  0  0  0  0999 V2000
    7.7794    3.7054    6.6186 C   0  0  0  0  0  0  0  0  0  0  0  0
   12.4408    2.8532    4.2483 C   0  0  0  0  0  0  0  0  0  0  0  0
   11.8941   -0.3513    6.1234 C   0  0  0  0  0  0  0  0  0  0  0  0
   11.2029   -0.7678    6.6984 H   0  0  0  0  0  0  0  0  0  0  0  0
   12.7617   -0.7959    6.2945 H   0  0  0  0  0  0  0  0  0  0  0  0
   11.5102   -0.4684    4.6484 C   0  0  0  0  0  0  0  0  0  0  0  0
   12.3176   -0.4521    4.0772 H   0  0  0  0  0  0  0  0  0  0  0  0
   11.0235   -1.3132    4.4830 H   0  0  0  0  0  0  0  0  0  0  0  0
   12.1888    1.5666    7.7790 C   0  0  0  0  0  0  0  0  0  0  0  0
   12.2882    2.5612    7.7382 H   0  0  0  0  0  0  0  0  0  0  0  0
   13.4911    1.0212    8.3246 C   0  0  0  0  0  0  0  0  0  0  0  0
   13.4176    0.0489    8.4262 H   0  0  0  0  0  0  0  0  0  0  0  0
   13.6735    1.4273    9.1970 H   0  0  0  0  0  0  0  0  0  0  0  0
   14.2176    1.2332    7.7049 H   0  0  0  0  0  0  0  0  0  0  0  0
   10.9911    1.2791    8.6753 C   0  0  0  0  0  0  0  0  0  0  0  0
   10.1764    1.6185    8.2504 H   0  0  0  0  0  0  0  0  0  0  0  0
   11.1176    1.7223    9.5401 H   0  0  0  0  0  0  0  0  0  0  0  0
   10.9117    0.3127    8.8121 H   0  0  0  0  0  0  0  0  0  0  0  0
    9.2755    0.5113    3.8425 C   0  0  0  0  0  0  0  0  0  0  0  0
    8.8411    1.4110    3.8073 H   0  0  0  0  0  0  0  0  0  0  0  0
    8.4558   -0.3616    4.7710 C   0  0  0  0  0  0  0  0  0  0  0  0
    8.8323   -1.2672    4.7853 H   0  0  0  0  0  0  0  0  0  0  0  0
    7.5294   -0.3987    4.4536 H   0  0  0  0  0  0  0  0  0  0  0  0
    8.4764    0.0133    5.6758 H   0  0  0  0  0  0  0  0  0  0  0  0
    9.3058   -0.0430    2.4283 C   0  0  0  0  0  0  0  0  0  0  0  0
    9.7558    0.5973    1.8371 H   0  0  0  0  0  0  0  0  0  0  0  0
    8.3911   -0.1912    2.1156 H   0  0  0  0  0  0  0  0  0  0  0  0
    9.7970   -0.8923    2.4216 H   0  0  0  0  0  0  0  0  0  0  0  0
   13.6793    3.7054    5.0685 B   0  0  0  0  0  0  0  0  0  0  0  0
   13.7970    3.7054    6.1814 H   0  0  0  0  0  0  0  0  0  0  0  0
   11.8411    3.7054    2.8816 B   0  0  0  0  0  0  0  0  0  0  0  0
   10.7646    3.7054    2.5718 H   0  0  0  0  0  0  0  0  0  0  0  0
   14.0220    2.2603    4.0820 B   0  0  0  0  0  0  0  0  0  0  0  0
   14.3911    1.3087    4.5420 H   0  0  0  0  0  0  0  0  0  0  0  0
   12.8846    2.2618    2.7124 B   0  0  0  0  0  0  0  0  0  0  0  0
   12.5029    1.3087    2.2629 H   0  0  0  0  0  0  0  0  0  0  0  0
   15.0646    3.7054    3.9366 B   0  0  0  0  0  0  0  0  0  0  0  0
   16.1264    3.7054    4.2930 H   0  0  0  0  0  0  0  0  0  0  0  0
   13.1940    3.7054    1.7326 B   0  0  0  0  0  0  0  0  0  0  0  0
   13.0176    3.7054    0.6263 H   0  0  0  0  0  0  0  0  0  0  0  0
   14.5537    2.8131    2.4720 B   0  0  0  0  0  0  0  0  0  0  0  0
   15.2823    2.2262    1.8571 H   0  0  0  0  0  0  0  0  0  0  0  0
   11.9893    1.1012    6.3933 N   0  0  0  0  0  0  0  0  0  0  0  0
   10.6452    0.6951    4.3538 N   0  0  0  0  0  0  0  0  0  0  0  0
    6.7588    3.7054    7.0947 O   0  0  0  0  0  0  0  0  0  0  0  0
   11.1135    1.9670    5.2772 P   0  0  0  0  0  0  0  0  0  0  0  0
    9.6100    3.7054    5.8876 Au  0  3  0  0  0  0  0  0  0  0  0  0
   12.4408    4.5576    4.2483 C   0  0  0  0  0  0  0  0  0  0  0  0
   11.8941    7.7621    6.1234 C   0  0  0  0  0  0  0  0  0  0  0  0
   11.2029    8.1786    6.6984 H   0  0  0  0  0  0  0  0  0  0  0  0
   12.7617    8.2067    6.2945 H   0  0  0  0  0  0  0  0  0  0  0  0
   11.5102    7.8792    4.6484 C   0  0  0  0  0  0  0  0  0  0  0  0
   12.3176    7.8629    4.0772 H   0  0  0  0  0  0  0  0  0  0  0  0
   11.0235    8.7240    4.4830 H   0  0  0  0  0  0  0  0  0  0  0  0
   12.1888    5.8442    7.7790 C   0  0  0  0  0  0  0  0  0  0  0  0
   12.2882    4.8496    7.7382 H   0  0  0  0  0  0  0  0  0  0  0  0
   13.4911    6.3896    8.3246 C   0  0  0  0  0  0  0  0  0  0  0  0
   13.4176    7.3619    8.4262 H   0  0  0  0  0  0  0  0  0  0  0  0
   13.6735    5.9835    9.1970 H   0  0  0  0  0  0  0  0  0  0  0  0
   14.2176    6.1776    7.7049 H   0  0  0  0  0  0  0  0  0  0  0  0
   10.9911    6.1317    8.6753 C   0  0  0  0  0  0  0  0  0  0  0  0
   10.1764    5.7923    8.2504 H   0  0  0  0  0  0  0  0  0  0  0  0
   11.1176    5.6885    9.5401 H   0  0  0  0  0  0  0  0  0  0  0  0
   10.9117    7.0981    8.8121 H   0  0  0  0  0  0  0  0  0  0  0  0
    9.2755    6.8995    3.8425 C   0  0  0  0  0  0  0  0  0  0  0  0
    8.8411    5.9998    3.8073 H   0  0  0  0  0  0  0  0  0  0  0  0
    8.4558    7.7724    4.7710 C   0  0  0  0  0  0  0  0  0  0  0  0
    8.8323    8.6780    4.7853 H   0  0  0  0  0  0  0  0  0  0  0  0
    7.5294    7.8095    4.4536 H   0  0  0  0  0  0  0  0  0  0  0  0
    8.4764    7.3975    5.6758 H   0  0  0  0  0  0  0  0  0  0  0  0
    9.3058    7.4538    2.4283 C   0  0  0  0  0  0  0  0  0  0  0  0
    9.7558    6.8135    1.8371 H   0  0  0  0  0  0  0  0  0  0  0  0
    8.3911    7.6020    2.1156 H   0  0  0  0  0  0  0  0  0  0  0  0
    9.7970    8.3031    2.4216 H   0  0  0  0  0  0  0  0  0  0  0  0
   14.0220    5.1505    4.0820 B   0  0  0  0  0  0  0  0  0  0  0  0
   14.3911    6.1021    4.5420 H   0  0  0  0  0  0  0  0  0  0  0  0
   12.8846    5.1490    2.7124 B   0  0  0  0  0  0  0  0  0  0  0  0
   12.5029    6.1021    2.2629 H   0  0  0  0  0  0  0  0  0  0  0  0
   14.5537    4.5977    2.4720 B   0  0  0  0  0  0  0  0  0  0  0  0
   15.2823    5.1846    1.8571 H   0  0  0  0  0  0  0  0  0  0  0  0
   11.9893    6.3096    6.3933 N   0  0  0  0  0  0  0  0  0  0  0  0
   10.6452    6.7157    4.3538 N   0  0  0  0  0  0  0  0  0  0  0  0
   11.1135    5.4438    5.2772 P   0  0  0  0  0  0  0  0  0  0  0  0
  1 45  3  0  0  0  0
  2 29  1  0  0  0  0
  3  4  1  0  0  0  0
  5  3  1  0  0  0  0
  6  3  1  0  0  0  0
  7  6  1  0  0  0  0
  8  6  1  0  0  0  0
  9 10  1  0  0  0  0
 11  9  1  0  0  0  0
 12 11  1  0  0  0  0
 13 11  1  0  0  0  0
 14 11  1  0  0  0  0
 15  9  1  0  0  0  0
 16 15  1  0  0  0  0
 17 15  1  0  0  0  0
 18 15  1  0  0  0  0
 19 20  1  0  0  0  0
 21 19  1  0  0  0  0
 22 21  1  0  0  0  0
 23 21  1  0  0  0  0
 24 21  1  0  0  0  0
 25 19  1  0  0  0  0
 26 25  1  0  0  0  0
 27 25  1  0  0  0  0
 28 25  1  0  0  0  0
 29 30  1  0  0  0  0
 31  2  1  0  0  0  0
 32 31  1  0  0  0  0
 33  2  1  0  0  0  0
 34 33  1  0  0  0  0
 35  2  1  0  0  0  0
 36 35  1  0  0  0  0
 37 29  1  0  0  0  0
 38 37  1  0  0  0  0
 39 31  1  0  0  0  0
 40 39  1  0  0  0  0
 41 33  1  0  0  0  0
 42 41  1  0  0  0  0
 43  3  1  0  0  0  0
 44  6  1  0  0  0  0
 46  2  1  0  0  0  0
 47  1  1  0  0  0  0
 48  2  1  0  0  0  0
 49 50  1  0  0  0  0
 51 49  1  0  0  0  0
 52 49  1  0  0  0  0
 53 52  1  0  0  0  0
 54 52  1  0  0  0  0
 55 56  1  0  0  0  0
 57 55  1  0  0  0  0
 58 57  1  0  0  0  0
 59 57  1  0  0  0  0
 60 57  1  0  0  0  0
 61 55  1  0  0  0  0
 62 61  1  0  0  0  0
 63 61  1  0  0  0  0
 64 61  1  0  0  0  0
 65 66  1  0  0  0  0
 67 65  1  0  0  0  0
 68 67  1  0  0  0  0
 69 67  1  0  0  0  0
 70 67  1  0  0  0  0
 71 65  1  0  0  0  0
 72 71  1  0  0  0  0
 73 71  1  0  0  0  0
 74 71  1  0  0  0  0
 75 29  1  0  0  0  0
 76 75  1  0  0  0  0
 77 31  1  0  0  0  0
 78 77  1  0  0  0  0
 79 37  1  0  0  0  0
 80 79  1  0  0  0  0
 81 49  1  0  0  0  0
 82 52  1  0  0  0  0
 83 47  1  0  0  0  0
  9 43  1  0  0  0  0
 19 44  1  0  0  0  0
 29 33  1  0  0  0  0
 29 48  1  0  0  0  0
 31 35  1  0  0  0  0
 31 48  1  0  0  0  0
 33 35  1  0  0  0  0
 33 37  1  0  0  0  0
 35 39  1  0  0  0  0
 35 41  1  0  0  0  0
 37 41  1  0  0  0  0
 37 75  1  0  0  0  0
 39 41  1  0  0  0  0
 39 77  1  0  0  0  0
 39 79  1  0  0  0  0
 41 79  1  0  0  0  0
 43 46  1  0  0  0  0
 44 46  1  0  0  0  0
 46 47  1  0  0  0  0
 48 75  1  0  0  0  0
 48 77  1  0  0  0  0
 48 83  1  0  0  0  0
 55 81  1  0  0  0  0
 65 82  1  0  0  0  0
 75 77  1  0  0  0  0
 75 79  1  0  0  0  0
 77 79  1  0  0  0  0
 81 83  1  0  0  0  0
 82 83  1  0  0  0  0
M  CHG  1  47   1
M  END
$$$$
SONWAT

From CSD data. Using bond type 'Any'. No disordered atoms. Largest molecule.
130139  0  0  0  0  0  0  0  0999 V2000
   -1.3106    3.3639    2.6754 Re  0  0  0  0  0  0  0  0  0  0  0  0
    0.8283    3.1522    3.8524 P   0  0  0  0  0  0  0  0  0  0  0  0
   -3.0938    3.8093    1.0115 P   0  0  0  0  0  0  0  0  0  0  0  0
   -0.0086    3.5049    0.6513 O   0  0  0  0  0  0  0  0  0  0  0  0
   -0.7855    5.3538    2.7061 N   0  0  0  0  0  0  0  0  0  0  0  0
   -1.2979    1.3935    2.1300 N   0  0  0  0  0  0  0  0  0  0  0  0
   -0.3950    6.4205    2.7812 C   0  0  0  0  0  0  0  0  0  0  0  0
   -1.2266    0.3066    1.7993 C   0  0  0  0  0  0  0  0  0  0  0  0
    0.6734    4.2614    5.3112 C   0  0  0  0  0  0  0  0  0  0  0  0
    2.3047    3.7675    2.9790 C   0  0  0  0  0  0  0  0  0  0  0  0
    2.8959    2.9321    2.0332 C   0  0  0  0  0  0  0  0  0  0  0  0
    4.0680    3.3232    1.4180 C   0  0  0  0  0  0  0  0  0  0  0  0
    4.6575    4.5239    1.7328 C   0  0  0  0  0  0  0  0  0  0  0  0
    4.0616    5.3519    2.6296 C   0  0  0  0  0  0  0  0  0  0  0  0
    2.8842    4.9958    3.2722 C   0  0  0  0  0  0  0  0  0  0  0  0
    1.4244    1.5661    4.5213 C   0  0  0  0  0  0  0  0  0  0  0  0
    0.5463    0.5012    4.6599 C   0  0  0  0  0  0  0  0  0  0  0  0
    0.9507   -0.6848    5.2606 C   0  0  0  0  0  0  0  0  0  0  0  0
    2.2443   -0.8042    5.7025 C   0  0  0  0  0  0  0  0  0  0  0  0
    3.1335    0.2368    5.5480 C   0  0  0  0  0  0  0  0  0  0  0  0
    2.7229    1.4211    4.9631 C   0  0  0  0  0  0  0  0  0  0  0  0
   -2.7376    5.2253   -0.0838 C   0  0  0  0  0  0  0  0  0  0  0  0
   -2.4574    5.0472   -1.4238 C   0  0  0  0  0  0  0  0  0  0  0  0
   -2.0361    6.1010   -2.2094 C   0  0  0  0  0  0  0  0  0  0  0  0
   -1.8628    7.3348   -1.6650 C   0  0  0  0  0  0  0  0  0  0  0  0
   -2.1624    7.5349   -0.3292 C   0  0  0  0  0  0  0  0  0  0  0  0
   -2.6110    6.4939    0.4751 C   0  0  0  0  0  0  0  0  0  0  0  0
   -3.6075    2.5061   -0.1603 C   0  0  0  0  0  0  0  0  0  0  0  0
   -2.6232    1.7754   -0.7957 C   0  0  0  0  0  0  0  0  0  0  0  0
   -2.9740    0.8537   -1.7834 C   0  0  0  0  0  0  0  0  0  0  0  0
   -4.2980    0.6334   -2.0852 C   0  0  0  0  0  0  0  0  0  0  0  0
   -5.2597    1.3421   -1.4513 C   0  0  0  0  0  0  0  0  0  0  0  0
   -4.9361    2.2932   -0.5025 C   0  0  0  0  0  0  0  0  0  0  0  0
    0.1222    7.8893    2.9487 B   0  0  0  0  0  0  0  0  0  0  0  0
   -1.1690   -1.2099    1.3516 B   0  0  0  0  0  0  0  0  0  0  0  0
    1.0572    7.9315    2.7725 H   0  0  0  0  0  0  0  0  0  0  0  0
   -0.3066    8.4823    2.3393 H   0  0  0  0  0  0  0  0  0  0  0  0
   -0.0350    8.2069    3.8411 H   0  0  0  0  0  0  0  0  0  0  0  0
   -0.4200   -1.6524    1.7473 H   0  0  0  0  0  0  0  0  0  0  0  0
   -1.9741   -1.6708    1.5740 H   0  0  0  0  0  0  0  0  0  0  0  0
   -1.0613   -1.2668    0.3899 H   0  0  0  0  0  0  0  0  0  0  0  0
    0.6282    5.1775    5.0252 H   0  0  0  0  0  0  0  0  0  0  0  0
    1.4240    4.1677    5.8772 H   0  0  0  0  0  0  0  0  0  0  0  0
    0.4970    4.2962    0.2888 H   0  0  0  0  0  0  0  0  0  0  0  0
    0.5141    3.3782    1.5018 H   0  0  0  0  0  0  0  0  0  0  0  0
    2.4822    2.0747    1.8050 H   0  0  0  0  0  0  0  0  0  0  0  0
    4.4878    2.7540    0.7509 H   0  0  0  0  0  0  0  0  0  0  0  0
    5.4819    4.7736    1.3285 H   0  0  0  0  0  0  0  0  0  0  0  0
    4.4764    6.2057    2.8159 H   0  0  0  0  0  0  0  0  0  0  0  0
    2.4713    5.5998    3.9133 H   0  0  0  0  0  0  0  0  0  0  0  0
   -0.3514    0.5875    4.3321 H   0  0  0  0  0  0  0  0  0  0  0  0
    0.3257   -1.4321    5.3574 H   0  0  0  0  0  0  0  0  0  0  0  0
    2.5187   -1.6157    6.1371 H   0  0  0  0  0  0  0  0  0  0  0  0
    4.0583    0.1285    5.8483 H   0  0  0  0  0  0  0  0  0  0  0  0
    3.3333    2.1481    4.8664 H   0  0  0  0  0  0  0  0  0  0  0  0
   -2.5713    4.1677   -1.8195 H   0  0  0  0  0  0  0  0  0  0  0  0
   -1.8628    5.9486   -3.1624 H   0  0  0  0  0  0  0  0  0  0  0  0
   -1.5342    8.0784   -2.2094 H   0  0  0  0  0  0  0  0  0  0  0  0
   -2.0681    8.4089    0.0578 H   0  0  0  0  0  0  0  0  0  0  0  0
   -2.8251    6.6463    1.4007 H   0  0  0  0  0  0  0  0  0  0  0  0
   -1.6808    1.9278   -0.5632 H   0  0  0  0  0  0  0  0  0  0  0  0
   -2.2864    0.3672   -2.2527 H   0  0  0  0  0  0  0  0  0  0  0  0
   -4.5400   -0.0184   -2.7437 H   0  0  0  0  0  0  0  0  0  0  0  0
   -6.1898    1.1934   -1.6751 H   0  0  0  0  0  0  0  0  0  0  0  0
   -5.6339    2.8091   -0.0722 H   0  0  0  0  0  0  0  0  0  0  0  0
   -2.6289    3.3639    4.5448 Re  0  0  0  0  0  0  0  0  0  0  0  0
   -4.6129    4.2614    1.9090 C   0  0  0  0  0  0  0  0  0  0  0  0
   -0.8457    3.8093    6.2086 P   0  0  0  0  0  0  0  0  0  0  0  0
   -4.7678    3.1522    3.3678 P   0  0  0  0  0  0  0  0  0  0  0  0
   -3.9309    3.5049    6.5689 O   0  0  0  0  0  0  0  0  0  0  0  0
   -3.1540    5.3538    4.5141 N   0  0  0  0  0  0  0  0  0  0  0  0
   -2.6416    1.3935    5.0902 N   0  0  0  0  0  0  0  0  0  0  0  0
   -4.5677    5.1775    2.1949 H   0  0  0  0  0  0  0  0  0  0  0  0
   -5.3635    4.1677    1.3430 H   0  0  0  0  0  0  0  0  0  0  0  0
   -1.2019    5.2253    7.3039 C   0  0  0  0  0  0  0  0  0  0  0  0
   -0.3320    2.5061    7.3805 C   0  0  0  0  0  0  0  0  0  0  0  0
   -6.2442    3.7675    4.2411 C   0  0  0  0  0  0  0  0  0  0  0  0
   -5.3639    1.5661    2.6989 C   0  0  0  0  0  0  0  0  0  0  0  0
   -4.4365    4.2962    6.9314 H   0  0  0  0  0  0  0  0  0  0  0  0
   -4.4536    3.3782    5.7184 H   0  0  0  0  0  0  0  0  0  0  0  0
   -3.5446    6.4205    4.4390 C   0  0  0  0  0  0  0  0  0  0  0  0
   -2.7129    0.3066    5.4209 C   0  0  0  0  0  0  0  0  0  0  0  0
   -1.4821    5.0472    8.6440 C   0  0  0  0  0  0  0  0  0  0  0  0
   -1.3285    6.4939    6.7451 C   0  0  0  0  0  0  0  0  0  0  0  0
   -1.3163    1.7754    8.0158 C   0  0  0  0  0  0  0  0  0  0  0  0
    0.9966    2.2932    7.7227 C   0  0  0  0  0  0  0  0  0  0  0  0
   -6.8354    2.9321    5.1870 C   0  0  0  0  0  0  0  0  0  0  0  0
   -6.8237    4.9958    3.9480 C   0  0  0  0  0  0  0  0  0  0  0  0
   -4.4858    0.5012    2.5603 C   0  0  0  0  0  0  0  0  0  0  0  0
   -6.6624    1.4211    2.2570 C   0  0  0  0  0  0  0  0  0  0  0  0
   -4.0617    7.8893    4.2715 B   0  0  0  0  0  0  0  0  0  0  0  0
   -2.7705   -1.2099    5.8686 B   0  0  0  0  0  0  0  0  0  0  0  0
   -1.9034    6.1010    9.4295 C   0  0  0  0  0  0  0  0  0  0  0  0
   -1.3683    4.1677    9.0397 H   0  0  0  0  0  0  0  0  0  0  0  0
   -1.7771    7.5349    7.5494 C   0  0  0  0  0  0  0  0  0  0  0  0
   -1.1144    6.6463    5.8195 H   0  0  0  0  0  0  0  0  0  0  0  0
   -0.9655    0.8537    9.0036 C   0  0  0  0  0  0  0  0  0  0  0  0
   -2.2587    1.9278    7.7833 H   0  0  0  0  0  0  0  0  0  0  0  0
    1.3202    1.3421    8.6714 C   0  0  0  0  0  0  0  0  0  0  0  0
    1.6944    2.8091    7.2924 H   0  0  0  0  0  0  0  0  0  0  0  0
   -8.0075    3.3232    5.8021 C   0  0  0  0  0  0  0  0  0  0  0  0
   -6.4217    2.0747    5.4151 H   0  0  0  0  0  0  0  0  0  0  0  0
   -8.0011    5.3519    4.5906 C   0  0  0  0  0  0  0  0  0  0  0  0
   -6.4108    5.5998    3.3068 H   0  0  0  0  0  0  0  0  0  0  0  0
   -4.8902   -0.6848    1.9596 C   0  0  0  0  0  0  0  0  0  0  0  0
   -3.5881    0.5875    2.8881 H   0  0  0  0  0  0  0  0  0  0  0  0
   -7.0730    0.2368    1.6722 C   0  0  0  0  0  0  0  0  0  0  0  0
   -7.2728    2.1481    2.3538 H   0  0  0  0  0  0  0  0  0  0  0  0
   -4.9967    7.9315    4.4476 H   0  0  0  0  0  0  0  0  0  0  0  0
   -3.6329    8.4823    4.8808 H   0  0  0  0  0  0  0  0  0  0  0  0
   -3.9045    8.2069    3.3790 H   0  0  0  0  0  0  0  0  0  0  0  0
   -3.5195   -1.6524    5.4729 H   0  0  0  0  0  0  0  0  0  0  0  0
   -1.9654   -1.6708    5.6462 H   0  0  0  0  0  0  0  0  0  0  0  0
   -2.8782   -1.2668    6.8303 H   0  0  0  0  0  0  0  0  0  0  0  0
   -2.0768    7.3348    8.8851 C   0  0  0  0  0  0  0  0  0  0  0  0
   -2.0768    5.9486   10.3826 H   0  0  0  0  0  0  0  0  0  0  0  0
   -1.8714    8.4089    7.1624 H   0  0  0  0  0  0  0  0  0  0  0  0
    0.3585    0.6334    9.3054 C   0  0  0  0  0  0  0  0  0  0  0  0
   -1.6531    0.3672    9.4729 H   0  0  0  0  0  0  0  0  0  0  0  0
    2.2503    1.1934    8.8953 H   0  0  0  0  0  0  0  0  0  0  0  0
   -8.5970    4.5239    5.4873 C   0  0  0  0  0  0  0  0  0  0  0  0
   -8.4273    2.7540    6.4693 H   0  0  0  0  0  0  0  0  0  0  0  0
   -8.4159    6.2057    4.4043 H   0  0  0  0  0  0  0  0  0  0  0  0
   -6.1838   -0.8042    1.5177 C   0  0  0  0  0  0  0  0  0  0  0  0
   -4.2652   -1.4321    1.8628 H   0  0  0  0  0  0  0  0  0  0  0  0
   -7.9978    0.1285    1.3718 H   0  0  0  0  0  0  0  0  0  0  0  0
   -2.4053    8.0784    9.4295 H   0  0  0  0  0  0  0  0  0  0  0  0
    0.6005   -0.0184    9.9638 H   0  0  0  0  0  0  0  0  0  0  0  0
   -9.4214    4.7736    5.8917 H   0  0  0  0  0  0  0  0  0  0  0  0
   -6.4582   -1.6157    1.0830 H   0  0  0  0  0  0  0  0  0  0  0  0
  1  2  1  0  0  0  0
  2  9  1  0  0  0  0
  3  1  1  0  0  0  0
  4  1  1  0  0  0  0
  5  1  1  0  0  0  0
  6  1  1  0  0  0  0
  7  5  3  0  0  0  0
  8  6  3  0  0  0  0
  9 42  1  0  0  0  0
 10  2  1  0  0  0  0
 11 10  4  0  0  0  0
 12 11  4  0  0  0  0
 13 12  4  0  0  0  0
 14 13  4  0  0  0  0
 15 10  4  0  0  0  0
 16  2  1  0  0  0  0
 17 16  4  0  0  0  0
 18 17  4  0  0  0  0
 19 18  4  0  0  0  0
 20 19  4  0  0  0  0
 21 16  4  0  0  0  0
 22  3  1  0  0  0  0
 23 22  4  0  0  0  0
 24 23  4  0  0  0  0
 25 24  4  0  0  0  0
 26 25  4  0  0  0  0
 27 22  4  0  0  0  0
 28  3  1  0  0  0  0
 29 28  4  0  0  0  0
 30 29  4  0  0  0  0
 31 30  4  0  0  0  0
 32 31  4  0  0  0  0
 33 28  4  0  0  0  0
 34  7  1  0  0  0  0
 35  8  1  0  0  0  0
 36 34  1  0  0  0  0
 37 34  1  0  0  0  0
 38 34  1  0  0  0  0
 39 35  1  0  0  0  0
 40 35  1  0  0  0  0
 41 35  1  0  0  0  0
 43  9  1  0  0  0  0
 44  4  1  0  0  0  0
 45  4  1  0  0  0  0
 46 11  1  0  0  0  0
 47 12  1  0  0  0  0
 48 13  1  0  0  0  0
 49 14  1  0  0  0  0
 50 15  1  0  0  0  0
 51 17  1  0  0  0  0
 52 18  1  0  0  0  0
 53 19  1  0  0  0  0
 54 20  1  0  0  0  0
 55 21  1  0  0  0  0
 56 23  1  0  0  0  0
 57 24  1  0  0  0  0
 58 25  1  0  0  0  0
 59 26  1  0  0  0  0
 60 27  1  0  0  0  0
 61 29  1  0  0  0  0
 62 30  1  0  0  0  0
 63 31  1  0  0  0  0
 64 32  1  0  0  0  0
 65 33  1  0  0  0  0
 66  1  2  0  0  0  0
 67  3  1  0  0  0  0
 68  9  1  0  0  0  0
 69 66  1  0  0  0  0
 70 66  1  0  0  0  0
 71 66  1  0  0  0  0
 72 66  1  0  0  0  0
 73 67  1  0  0  0  0
 74 67  1  0  0  0  0
 75 68  1  0  0  0  0
 76 68  1  0  0  0  0
 77 69  1  0  0  0  0
 78 69  1  0  0  0  0
 79 70  1  0  0  0  0
 80 70  1  0  0  0  0
 81 71  3  0  0  0  0
 82 72  3  0  0  0  0
 83 75  4  0  0  0  0
 84 75  4  0  0  0  0
 85 76  4  0  0  0  0
 86 76  4  0  0  0  0
 87 77  4  0  0  0  0
 88 77  4  0  0  0  0
 89 78  4  0  0  0  0
 90 78  4  0  0  0  0
 91 81  1  0  0  0  0
 92 82  1  0  0  0  0
 93 83  4  0  0  0  0
 94 83  1  0  0  0  0
 95 84  4  0  0  0  0
 96 84  1  0  0  0  0
 97 85  4  0  0  0  0
 98 85  1  0  0  0  0
 99 86  4  0  0  0  0
100 86  1  0  0  0  0
101 87  4  0  0  0  0
102 87  1  0  0  0  0
103 88  4  0  0  0  0
104 88  1  0  0  0  0
105 89  4  0  0  0  0
106 89  1  0  0  0  0
107 90  4  0  0  0  0
108 90  1  0  0  0  0
109 91  1  0  0  0  0
110 91  1  0  0  0  0
111 91  1  0  0  0  0
112 92  1  0  0  0  0
113 92  1  0  0  0  0
114 92  1  0  0  0  0
115 93  4  0  0  0  0
116 93  1  0  0  0  0
117 95  1  0  0  0  0
118 97  4  0  0  0  0
119 97  1  0  0  0  0
120 99  1  0  0  0  0
121101  4  0  0  0  0
122101  1  0  0  0  0
123103  1  0  0  0  0
124105  4  0  0  0  0
125105  1  0  0  0  0
126107  1  0  0  0  0
127115  1  0  0  0  0
128118  1  0  0  0  0
129121  1  0  0  0  0
130124  1  0  0  0  0
 14 15  4  0  0  0  0
 20 21  4  0  0  0  0
 26 27  4  0  0  0  0
 32 33  4  0  0  0  0
 66 68  1  0  0  0  0
 67 69  1  0  0  0  0
 95115  4  0  0  0  0
 99118  4  0  0  0  0
103121  4  0  0  0  0
107124  4  0  0  0  0
M  END
$$$$
SOSGUG

From CSD data. Using bond type 'Any'. No disordered atoms. Largest molecule.
 97101  0  0  0  0  0  0  0  0999 V2000
    6.0860   13.2009   10.3104 Ir  0  0  0  0  0  0  0  0  0  0  0  0
    7.7676   12.8691   12.2210 Cl  0  0  0  0  0  0  0  0  0  0  0  0
    5.9561   15.4992   10.7249 P   0  0  0  0  0  0  0  0  0  0  0  0
    5.2851   10.9826   10.4512 P   0  0  0  0  0  0  0  0  0  0  0  0
    8.1434   13.0254    9.0568 P   0  0  0  0  0  0  0  0  0  0  0  0
    3.9082   14.3543    8.4249 O   0  0  0  0  0  0  0  0  0  0  0  0
    4.9844   12.5676    7.5303 O   0  0  0  0  0  0  0  0  0  0  0  0
    3.5386   14.6895   11.3699 N   0  0  0  0  0  0  0  0  0  0  0  0
    3.2052   12.4286   11.2892 N   0  0  0  0  0  0  0  0  0  0  0  0
    2.1788   14.4511   11.4911 C   0  0  0  0  0  0  0  0  0  0  0  0
    1.9690   13.0542   11.4621 C   0  0  0  0  0  0  0  0  0  0  0  0
    0.6933   12.5294   11.5804 C   0  0  0  0  0  0  0  0  0  0  0  0
    0.5440   11.5918   11.5768 H   0  0  0  0  0  0  0  0  0  0  0  0
   -0.3694   13.4335   11.7057 C   0  0  0  0  0  0  0  0  0  0  0  0
   -1.2545   13.0993   11.7882 H   0  0  0  0  0  0  0  0  0  0  0  0
   -0.1623   14.7967   11.7095 C   0  0  0  0  0  0  0  0  0  0  0  0
   -0.9080   15.3812   11.7918 H   0  0  0  0  0  0  0  0  0  0  0  0
    1.1158   15.3339   11.5991 C   0  0  0  0  0  0  0  0  0  0  0  0
    1.2559   16.2726   11.5955 H   0  0  0  0  0  0  0  0  0  0  0  0
    4.1563   15.9215   10.9317 C   0  0  0  0  0  0  0  0  0  0  0  0
    4.0378   16.6344   11.6082 H   0  0  0  0  0  0  0  0  0  0  0  0
    3.7657   16.2253   10.0743 H   0  0  0  0  0  0  0  0  0  0  0  0
    6.6047   16.2043   12.3188 C   0  0  0  0  0  0  0  0  0  0  0  0
    6.2828   17.1500   12.3533 H   0  0  0  0  0  0  0  0  0  0  0  0
    6.0105   15.5111   13.5473 C   0  0  0  0  0  0  0  0  0  0  0  0
    6.3119   14.5788   13.5741 H   0  0  0  0  0  0  0  0  0  0  0  0
    5.0325   15.5369   13.4960 H   0  0  0  0  0  0  0  0  0  0  0  0
    6.3076   15.9736   14.3587 H   0  0  0  0  0  0  0  0  0  0  0  0
    8.1359   16.2734   12.4031 C   0  0  0  0  0  0  0  0  0  0  0  0
    8.3976   16.6904   13.2509 H   0  0  0  0  0  0  0  0  0  0  0  0
    8.4798   16.8086   11.6570 H   0  0  0  0  0  0  0  0  0  0  0  0
    8.5077   15.3688   12.3552 H   0  0  0  0  0  0  0  0  0  0  0  0
    6.5486   16.8082    9.5330 C   0  0  0  0  0  0  0  0  0  0  0  0
    7.5399   16.8719    9.6484 H   0  0  0  0  0  0  0  0  0  0  0  0
    5.9837   18.2021    9.8249 C   0  0  0  0  0  0  0  0  0  0  0  0
    6.3630   18.8482    9.1934 H   0  0  0  0  0  0  0  0  0  0  0  0
    6.2174   18.4648   10.7403 H   0  0  0  0  0  0  0  0  0  0  0  0
    5.0082   18.1865    9.7297 H   0  0  0  0  0  0  0  0  0  0  0  0
    6.3020   16.4453    8.0749 C   0  0  0  0  0  0  0  0  0  0  0  0
    5.3407   16.4672    7.8905 H   0  0  0  0  0  0  0  0  0  0  0  0
    6.6492   15.5460    7.8991 H   0  0  0  0  0  0  0  0  0  0  0  0
    6.7608   17.0907    7.4963 H   0  0  0  0  0  0  0  0  0  0  0  0
    3.4528   11.0811   10.8438 C   0  0  0  0  0  0  0  0  0  0  0  0
    2.9150   10.8785   10.0374 H   0  0  0  0  0  0  0  0  0  0  0  0
    3.2157   10.4326   11.5533 H   0  0  0  0  0  0  0  0  0  0  0  0
    5.8120    9.8686   11.8403 C   0  0  0  0  0  0  0  0  0  0  0  0
    5.2440    9.0483   11.7733 H   0  0  0  0  0  0  0  0  0  0  0  0
    5.5127   10.4908   13.2164 C   0  0  0  0  0  0  0  0  0  0  0  0
    5.6951    9.8330   13.9195 H   0  0  0  0  0  0  0  0  0  0  0  0
    4.5708   10.7594   13.2570 H   0  0  0  0  0  0  0  0  0  0  0  0
    6.0819   11.2779   13.3504 H   0  0  0  0  0  0  0  0  0  0  0  0
    7.2574    9.4024   11.7188 C   0  0  0  0  0  0  0  0  0  0  0  0
    7.8558   10.1766   11.7777 H   0  0  0  0  0  0  0  0  0  0  0  0
    7.3848    8.9562   10.8559 H   0  0  0  0  0  0  0  0  0  0  0  0
    7.4604    8.7765   12.4443 H   0  0  0  0  0  0  0  0  0  0  0  0
    5.1662    9.8686    8.9574 C   0  0  0  0  0  0  0  0  0  0  0  0
    4.4953   10.3012    8.3537 H   0  0  0  0  0  0  0  0  0  0  0  0
    4.5949    8.4859    9.2808 C   0  0  0  0  0  0  0  0  0  0  0  0
    4.3732    8.0211    8.4480 H   0  0  0  0  0  0  0  0  0  0  0  0
    3.7863    8.5855    9.8257 H   0  0  0  0  0  0  0  0  0  0  0  0
    5.2613    7.9666    9.7782 H   0  0  0  0  0  0  0  0  0  0  0  0
    6.4321    9.7304    8.1291 C   0  0  0  0  0  0  0  0  0  0  0  0
    7.0969    9.2158    8.6333 H   0  0  0  0  0  0  0  0  0  0  0  0
    6.7907   10.6199    7.9290 H   0  0  0  0  0  0  0  0  0  0  0  0
    6.2254    9.2650    7.2920 H   0  0  0  0  0  0  0  0  0  0  0  0
    3.1025   13.9405    7.2803 C   0  0  0  0  0  0  0  0  0  0  0  0
    4.0986   13.0630    6.4818 C   0  0  0  0  0  0  0  0  0  0  0  0
    2.6261   15.1796    6.5399 C   0  0  0  0  0  0  0  0  0  0  0  0
    3.4006   15.7239    6.2813 H   0  0  0  0  0  0  0  0  0  0  0  0
    2.0396   15.7045    7.1230 H   0  0  0  0  0  0  0  0  0  0  0  0
    2.1338   14.9123    5.7357 H   0  0  0  0  0  0  0  0  0  0  0  0
    1.9096   13.1995    7.8375 C   0  0  0  0  0  0  0  0  0  0  0  0
    1.2954   12.9722    7.1086 H   0  0  0  0  0  0  0  0  0  0  0  0
    1.4474   13.7673    8.4891 H   0  0  0  0  0  0  0  0  0  0  0  0
    2.2117   12.3772    8.2781 H   0  0  0  0  0  0  0  0  0  0  0  0
    4.9587   13.8395    5.5023 C   0  0  0  0  0  0  0  0  0  0  0  0
    4.4033   14.1626    4.7637 H   0  0  0  0  0  0  0  0  0  0  0  0
    5.6624   13.2536    5.1504 H   0  0  0  0  0  0  0  0  0  0  0  0
    5.3696   14.6018    5.9614 H   0  0  0  0  0  0  0  0  0  0  0  0
    3.4715   11.8647    5.7865 C   0  0  0  0  0  0  0  0  0  0  0  0
    2.9806   11.3277    6.4428 H   0  0  0  0  0  0  0  0  0  0  0  0
    4.1761   11.3190    5.3790 H   0  0  0  0  0  0  0  0  0  0  0  0
    2.8557   12.1764    5.0918 H   0  0  0  0  0  0  0  0  0  0  0  0
    9.2015   11.5810    9.4173 C   0  0  0  0  0  0  0  0  0  0  0  0
    9.4390   11.5785   10.3675 H   0  0  0  0  0  0  0  0  0  0  0  0
   10.0175   11.6307    8.8763 H   0  0  0  0  0  0  0  0  0  0  0  0
    8.7157   10.7578    9.1995 H   0  0  0  0  0  0  0  0  0  0  0  0
    9.3515   14.3553    9.3836 C   0  0  0  0  0  0  0  0  0  0  0  0
    8.9980   15.2067    9.0508 H   0  0  0  0  0  0  0  0  0  0  0  0
   10.1939   14.1507    8.9256 H   0  0  0  0  0  0  0  0  0  0  0  0
    9.5116   14.4220   10.3475 H   0  0  0  0  0  0  0  0  0  0  0  0
    8.1499   13.0630    7.2298 C   0  0  0  0  0  0  0  0  0  0  0  0
    7.5760   12.3466    6.8866 H   0  0  0  0  0  0  0  0  0  0  0  0
    9.0649   12.9331    6.9039 H   0  0  0  0  0  0  0  0  0  0  0  0
    7.8123   13.9291    6.9198 H   0  0  0  0  0  0  0  0  0  0  0  0
    4.2293   13.4353   11.1508 B   0  0  0  0  0  0  0  0  0  0  0  0
    4.9173   13.4034    8.6390 B   0  0  0  0  0  0  0  0  0  0  0  0
  1  2  1  0  0  0  0
  3  1  1  0  0  0  0
  4  1  1  0  0  0  0
  5  1  1  0  0  0  0
  6 66  1  0  0  0  0
  7 67  1  0  0  0  0
  8 10  1  0  0  0  0
  9 11  1  0  0  0  0
 10 11  4  0  0  0  0
 11 12  4  0  0  0  0
 12 13  1  0  0  0  0
 14 12  4  0  0  0  0
 15 14  1  0  0  0  0
 16 14  4  0  0  0  0
 17 16  1  0  0  0  0
 18 10  4  0  0  0  0
 19 18  1  0  0  0  0
 20  3  1  0  0  0  0
 21 20  1  0  0  0  0
 22 20  1  0  0  0  0
 23  3  1  0  0  0  0
 24 23  1  0  0  0  0
 25 23  1  0  0  0  0
 26 25  1  0  0  0  0
 27 25  1  0  0  0  0
 28 25  1  0  0  0  0
 29 23  1  0  0  0  0
 30 29  1  0  0  0  0
 31 29  1  0  0  0  0
 32 29  1  0  0  0  0
 33  3  1  0  0  0  0
 34 33  1  0  0  0  0
 35 33  1  0  0  0  0
 36 35  1  0  0  0  0
 37 35  1  0  0  0  0
 38 35  1  0  0  0  0
 39 33  1  0  0  0  0
 40 39  1  0  0  0  0
 41 39  1  0  0  0  0
 42 39  1  0  0  0  0
 43  4  1  0  0  0  0
 44 43  1  0  0  0  0
 45 43  1  0  0  0  0
 46  4  1  0  0  0  0
 47 46  1  0  0  0  0
 48 46  1  0  0  0  0
 49 48  1  0  0  0  0
 50 48  1  0  0  0  0
 51 48  1  0  0  0  0
 52 46  1  0  0  0  0
 53 52  1  0  0  0  0
 54 52  1  0  0  0  0
 55 52  1  0  0  0  0
 56  4  1  0  0  0  0
 57 56  1  0  0  0  0
 58 56  1  0  0  0  0
 59 58  1  0  0  0  0
 60 58  1  0  0  0  0
 61 58  1  0  0  0  0
 62 56  1  0  0  0  0
 63 62  1  0  0  0  0
 64 62  1  0  0  0  0
 65 62  1  0  0  0  0
 66 67  1  0  0  0  0
 67 76  1  0  0  0  0
 68 66  1  0  0  0  0
 69 68  1  0  0  0  0
 70 68  1  0  0  0  0
 71 68  1  0  0  0  0
 72 66  1  0  0  0  0
 73 72  1  0  0  0  0
 74 72  1  0  0  0  0
 75 72  1  0  0  0  0
 76 77  1  0  0  0  0
 78 76  1  0  0  0  0
 79 76  1  0  0  0  0
 80 67  1  0  0  0  0
 81 80  1  0  0  0  0
 82 80  1  0  0  0  0
 83 80  1  0  0  0  0
 84  5  1  0  0  0  0
 85 84  1  0  0  0  0
 86 84  1  0  0  0  0
 87 84  1  0  0  0  0
 88  5  1  0  0  0  0
 89 88  1  0  0  0  0
 90 88  1  0  0  0  0
 91 88  1  0  0  0  0
 92  5  1  0  0  0  0
 93 92  1  0  0  0  0
 94 92  1  0  0  0  0
 95 92  1  0  0  0  0
 96  1  1  0  0  0  0
 97  1  1  0  0  0  0
  6 97  1  0  0  0  0
  7 97  1  0  0  0  0
  8 20  1  0  0  0  0
  8 96  1  0  0  0  0
  9 43  1  0  0  0  0
  9 96  1  0  0  0  0
 16 18  4  0  0  0  0
M  END
$$$$
SOSHER

From CSD data. Using bond type 'Any'. No disordered atoms. Largest molecule.
 84 88  0  0  0  0  0  0  0  0999 V2000
    6.6607    3.8950    6.4482 Ir  0  0  0  0  0  0  0  0  0  0  0  0
    6.5010    2.5650    4.4397 Cl  0  0  0  0  0  0  0  0  0  0  0  0
    4.8546    5.3007    5.9839 P   0  0  0  0  0  0  0  0  0  0  0  0
    8.8442    3.3518    7.0557 P   0  0  0  0  0  0  0  0  0  0  0  0
    6.5883    3.0157    9.3789 O   0  0  0  0  0  0  0  0  0  0  0  0
    6.3998    6.7201    7.5994 N   0  0  0  0  0  0  0  0  0  0  0  0
    8.4494    5.8105    8.0443 N   0  0  0  0  0  0  0  0  0  0  0  0
    7.1844    7.6978    8.1928 C   0  0  0  0  0  0  0  0  0  0  0  0
    8.4586    7.1359    8.4758 C   0  0  0  0  0  0  0  0  0  0  0  0
    9.4473    7.8976    9.0748 C   0  0  0  0  0  0  0  0  0  0  0  0
   10.2964    7.5249    9.2802 H   0  0  0  0  0  0  0  0  0  0  0  0
    9.1541    9.2384    9.3693 C   0  0  0  0  0  0  0  0  0  0  0  0
    9.8185    9.7780    9.7814 H   0  0  0  0  0  0  0  0  0  0  0  0
    7.9307    9.7902    9.0767 C   0  0  0  0  0  0  0  0  0  0  0  0
    7.7698   10.7040    9.2807 H   0  0  0  0  0  0  0  0  0  0  0  0
    6.9145    9.0270    8.4817 C   0  0  0  0  0  0  0  0  0  0  0  0
    6.0672    9.4091    8.2830 H   0  0  0  0  0  0  0  0  0  0  0  0
    5.0438    6.7935    7.1006 C   0  0  0  0  0  0  0  0  0  0  0  0
    4.9022    7.6313    6.5925 H   0  0  0  0  0  0  0  0  0  0  0  0
    4.3936    6.7581    7.8461 H   0  0  0  0  0  0  0  0  0  0  0  0
    4.9482    6.1198    4.3292 C   0  0  0  0  0  0  0  0  0  0  0  0
    4.3520    6.9223    4.3492 H   0  0  0  0  0  0  0  0  0  0  0  0
    6.3816    6.6038    4.0837 C   0  0  0  0  0  0  0  0  0  0  0  0
    6.6660    7.1727    4.8291 H   0  0  0  0  0  0  0  0  0  0  0  0
    6.4144    7.1172    3.2497 H   0  0  0  0  0  0  0  0  0  0  0  0
    6.9799    5.8309    4.0155 H   0  0  0  0  0  0  0  0  0  0  0  0
    4.4876    5.2207    3.1789 C   0  0  0  0  0  0  0  0  0  0  0  0
    4.9853    4.3767    3.2049 H   0  0  0  0  0  0  0  0  0  0  0  0
    4.6546    5.6719    2.3250 H   0  0  0  0  0  0  0  0  0  0  0  0
    3.5295    5.0382    3.2703 H   0  0  0  0  0  0  0  0  0  0  0  0
    3.0945    4.7424    6.2651 C   0  0  0  0  0  0  0  0  0  0  0  0
    2.9750    4.7020    7.2570 H   0  0  0  0  0  0  0  0  0  0  0  0
    2.0482    5.7279    5.7564 C   0  0  0  0  0  0  0  0  0  0  0  0
    2.2692    6.6299    6.0693 H   0  0  0  0  0  0  0  0  0  0  0  0
    1.1655    5.4714    6.0967 H   0  0  0  0  0  0  0  0  0  0  0  0
    2.0366    5.7156    4.7766 H   0  0  0  0  0  0  0  0  0  0  0  0
    2.8831    3.3271    5.7626 C   0  0  0  0  0  0  0  0  0  0  0  0
    2.8547    3.3294    4.7821 H   0  0  0  0  0  0  0  0  0  0  0  0
    2.0372    2.9786    6.1124 H   0  0  0  0  0  0  0  0  0  0  0  0
    3.6216    2.7585    6.0655 H   0  0  0  0  0  0  0  0  0  0  0  0
    9.5160    4.8369    8.0070 C   0  0  0  0  0  0  0  0  0  0  0  0
    9.7750    4.5717    8.9250 H   0  0  0  0  0  0  0  0  0  0  0  0
   10.3103    5.2108    7.5494 H   0  0  0  0  0  0  0  0  0  0  0  0
   10.0663    3.2679    5.6679 C   0  0  0  0  0  0  0  0  0  0  0  0
   10.9775    3.3763    6.0655 H   0  0  0  0  0  0  0  0  0  0  0  0
    9.8422    4.4428    4.7102 C   0  0  0  0  0  0  0  0  0  0  0  0
    8.9894    4.3245    4.2421 H   0  0  0  0  0  0  0  0  0  0  0  0
   10.5718    4.4752    4.0566 H   0  0  0  0  0  0  0  0  0  0  0  0
    9.8222    5.2799    5.2192 H   0  0  0  0  0  0  0  0  0  0  0  0
   10.0604    1.9462    4.8927 C   0  0  0  0  0  0  0  0  0  0  0  0
   10.3398    1.2181    5.4859 H   0  0  0  0  0  0  0  0  0  0  0  0
   10.6801    2.0081    4.1364 H   0  0  0  0  0  0  0  0  0  0  0  0
    9.1558    1.7671    4.5598 H   0  0  0  0  0  0  0  0  0  0  0  0
    9.2477    1.9620    8.2068 C   0  0  0  0  0  0  0  0  0  0  0  0
    8.8745    2.2260    9.0962 H   0  0  0  0  0  0  0  0  0  0  0  0
   10.7505    1.7490    8.4283 C   0  0  0  0  0  0  0  0  0  0  0  0
   11.1537    1.3889    7.6106 H   0  0  0  0  0  0  0  0  0  0  0  0
   10.8859    1.1159    9.1645 H   0  0  0  0  0  0  0  0  0  0  0  0
   11.1729    2.6044    8.6515 H   0  0  0  0  0  0  0  0  0  0  0  0
    8.5296    0.6684    7.8184 C   0  0  0  0  0  0  0  0  0  0  0  0
    7.5728    0.8476    7.7039 H   0  0  0  0  0  0  0  0  0  0  0  0
    8.6544    0.0007    8.5248 H   0  0  0  0  0  0  0  0  0  0  0  0
    8.9010    0.3282    6.9779 H   0  0  0  0  0  0  0  0  0  0  0  0
    5.0513    1.2839    9.9253 C   0  0  0  0  0  0  0  0  0  0  0  0
    5.7705    0.6233   10.0000 H   0  0  0  0  0  0  0  0  0  0  0  0
    4.7300    1.3149    9.0000 H   0  0  0  0  0  0  0  0  0  0  0  0
    4.3132    1.0329   10.5192 H   0  0  0  0  0  0  0  0  0  0  0  0
    6.1285    2.5882   11.7319 C   0  0  0  0  0  0  0  0  0  0  0  0
    6.7720    1.8567   11.8336 H   0  0  0  0  0  0  0  0  0  0  0  0
    5.4030    2.4784   12.3817 H   0  0  0  0  0  0  0  0  0  0  0  0
    6.5793    3.4445   11.8877 H   0  0  0  0  0  0  0  0  0  0  0  0
    7.1735    5.5259    7.4589 B   0  0  0  0  0  0  0  0  0  0  0  0
    5.9806    3.6930    8.3307 B   0  0  0  0  0  0  0  0  0  0  0  0
    4.6358    3.9264    8.6366 O   0  0  0  0  0  0  0  0  0  0  0  0
    4.4103    3.5888   10.0319 C   0  0  0  0  0  0  0  0  0  0  0  0
    5.5443    2.5665   10.2989 C   0  0  0  0  0  0  0  0  0  0  0  0
    2.9953    3.0329   10.1425 C   0  0  0  0  0  0  0  0  0  0  0  0
    2.3493    3.7353    9.9199 H   0  0  0  0  0  0  0  0  0  0  0  0
    2.8370    2.7208   11.0575 H   0  0  0  0  0  0  0  0  0  0  0  0
    2.8893    2.2831    9.5191 H   0  0  0  0  0  0  0  0  0  0  0  0
    4.5633    4.8741   10.8328 C   0  0  0  0  0  0  0  0  0  0  0  0
    5.4872    5.1928   10.7668 H   0  0  0  0  0  0  0  0  0  0  0  0
    4.3437    4.7009   11.7725 H   0  0  0  0  0  0  0  0  0  0  0  0
    3.9558    5.5556   10.4763 H   0  0  0  0  0  0  0  0  0  0  0  0
  1  2  1  0  0  0  0
  3  1  1  0  0  0  0
  4  1  1  0  0  0  0
  5 73  1  0  0  0  0
  6  8  1  0  0  0  0
  7  9  1  0  0  0  0
  8  9  4  0  0  0  0
  9 10  4  0  0  0  0
 10 11  1  0  0  0  0
 12 10  4  0  0  0  0
 13 12  1  0  0  0  0
 14 12  4  0  0  0  0
 15 14  1  0  0  0  0
 16  8  4  0  0  0  0
 17 16  1  0  0  0  0
 18  3  1  0  0  0  0
 19 18  1  0  0  0  0
 20 18  1  0  0  0  0
 21  3  1  0  0  0  0
 22 21  1  0  0  0  0
 23 21  1  0  0  0  0
 24 23  1  0  0  0  0
 25 23  1  0  0  0  0
 26 23  1  0  0  0  0
 27 21  1  0  0  0  0
 28 27  1  0  0  0  0
 29 27  1  0  0  0  0
 30 27  1  0  0  0  0
 31  3  1  0  0  0  0
 32 31  1  0  0  0  0
 33 31  1  0  0  0  0
 34 33  1  0  0  0  0
 35 33  1  0  0  0  0
 36 33  1  0  0  0  0
 37 31  1  0  0  0  0
 38 37  1  0  0  0  0
 39 37  1  0  0  0  0
 40 37  1  0  0  0  0
 41  4  1  0  0  0  0
 42 41  1  0  0  0  0
 43 41  1  0  0  0  0
 44  4  1  0  0  0  0
 45 44  1  0  0  0  0
 46 44  1  0  0  0  0
 47 46  1  0  0  0  0
 48 46  1  0  0  0  0
 49 46  1  0  0  0  0
 50 44  1  0  0  0  0
 51 50  1  0  0  0  0
 52 50  1  0  0  0  0
 53 50  1  0  0  0  0
 54  4  1  0  0  0  0
 55 54  1  0  0  0  0
 56 54  1  0  0  0  0
 57 56  1  0  0  0  0
 58 56  1  0  0  0  0
 59 56  1  0  0  0  0
 60 54  1  0  0  0  0
 61 60  1  0  0  0  0
 62 60  1  0  0  0  0
 63 60  1  0  0  0  0
 64 65  1  0  0  0  0
 66 64  1  0  0  0  0
 67 64  1  0  0  0  0
 68 69  1  0  0  0  0
 70 68  1  0  0  0  0
 71 68  1  0  0  0  0
 72  1  1  0  0  0  0
 73  1  1  0  0  0  0
 74 73  1  0  0  0  0
 75 74  1  0  0  0  0
 76  5  1  0  0  0  0
 77 75  1  0  0  0  0
 78 77  1  0  0  0  0
 79 77  1  0  0  0  0
 80 77  1  0  0  0  0
 81 75  1  0  0  0  0
 82 81  1  0  0  0  0
 83 81  1  0  0  0  0
 84 81  1  0  0  0  0
  6 18  1  0  0  0  0
  6 72  1  0  0  0  0
  7 41  1  0  0  0  0
  7 72  1  0  0  0  0
 14 16  4  0  0  0  0
 64 76  1  0  0  0  0
 68 76  1  0  0  0  0
 75 76  1  0  0  0  0
M  END
$$$$
SUCXUJ

From CSD data. Using bond type 'Any'. No disordered atoms. Largest molecule.
 83 94  0  0  0  0  0  0  0  0999 V2000
    3.1086    1.7838    3.0568 Ru  0  0  0  0  0  0  0  0  0  0  0  0
    2.9125    1.8695    5.4197 P   0  0  0  0  0  0  0  0  0  0  0  0
    3.6021    2.3725    0.8214 P   0  0  0  0  0  0  0  0  0  0  0  0
    0.7071    3.5614    2.9648 O   0  0  0  0  0  0  0  0  0  0  0  0
    4.2281   -0.3688    2.8077 B   0  0  0  0  0  0  0  0  0  0  0  0
    3.3043   -1.5921    3.7527 B   0  0  0  0  0  0  0  0  0  0  0  0
    2.5321   -0.5633    2.4820 B   0  0  0  0  0  0  0  0  0  0  0  0
    1.6589    2.9216    2.9876 C   0  0  0  0  0  0  0  0  0  0  0  0
    3.8296    0.6621    6.4465 C   0  0  0  0  0  0  0  0  0  0  0  0
    3.2112   -0.0446    7.4780 C   0  0  0  0  0  0  0  0  0  0  0  0
    3.9851   -0.9438    8.2454 C   0  0  0  0  0  0  0  0  0  0  0  0
    5.3055   -1.1213    7.9699 C   0  0  0  0  0  0  0  0  0  0  0  0
    5.9128   -0.4283    6.9452 C   0  0  0  0  0  0  0  0  0  0  0  0
    5.1677    0.4602    6.1778 C   0  0  0  0  0  0  0  0  0  0  0  0
    1.1992    1.7653    6.0457 C   0  0  0  0  0  0  0  0  0  0  0  0
    0.3715    0.7588    5.5630 C   0  0  0  0  0  0  0  0  0  0  0  0
   -0.9099    0.6196    6.0161 C   0  0  0  0  0  0  0  0  0  0  0  0
   -1.4328    1.5177    6.8996 C   0  0  0  0  0  0  0  0  0  0  0  0
   -0.6432    2.5273    7.3755 C   0  0  0  0  0  0  0  0  0  0  0  0
    0.6684    2.6485    6.9543 C   0  0  0  0  0  0  0  0  0  0  0  0
    3.5178    3.4594    6.1140 C   0  0  0  0  0  0  0  0  0  0  0  0
    3.1687    4.6529    5.5083 C   0  0  0  0  0  0  0  0  0  0  0  0
    3.6536    5.8571    6.0184 C   0  0  0  0  0  0  0  0  0  0  0  0
    4.5002    5.8741    7.0955 C   0  0  0  0  0  0  0  0  0  0  0  0
    4.8471    4.7114    7.6852 C   0  0  0  0  0  0  0  0  0  0  0  0
    4.3635    3.4902    7.2184 C   0  0  0  0  0  0  0  0  0  0  0  0
    5.3696    2.5709    0.3484 C   0  0  0  0  0  0  0  0  0  0  0  0
    5.7593    3.5211   -0.5624 C   0  0  0  0  0  0  0  0  0  0  0  0
    7.0789    3.6475   -0.9268 C   0  0  0  0  0  0  0  0  0  0  0  0
    8.0336    2.8069   -0.3826 C   0  0  0  0  0  0  0  0  0  0  0  0
    7.6556    1.8854    0.5169 C   0  0  0  0  0  0  0  0  0  0  0  0
    6.3370    1.7611    0.8949 C   0  0  0  0  0  0  0  0  0  0  0  0
    2.9333    4.0269    0.3484 C   0  0  0  0  0  0  0  0  0  0  0  0
    3.1129    5.0951    1.1795 C   0  0  0  0  0  0  0  0  0  0  0  0
    2.6419    6.3513    0.8403 C   0  0  0  0  0  0  0  0  0  0  0  0
    1.9691    6.5213   -0.3461 C   0  0  0  0  0  0  0  0  0  0  0  0
    1.7647    5.4702   -1.1955 C   0  0  0  0  0  0  0  0  0  0  0  0
    2.2627    4.2183   -0.8539 C   0  0  0  0  0  0  0  0  0  0  0  0
    2.9630    1.2435   -0.4623 C   0  0  0  0  0  0  0  0  0  0  0  0
    3.7674    0.4846   -1.2524 C   0  0  0  0  0  0  0  0  0  0  0  0
    3.2397   -0.4528   -2.1428 C   0  0  0  0  0  0  0  0  0  0  0  0
    1.8751   -0.6154   -2.2361 C   0  0  0  0  0  0  0  0  0  0  0  0
    1.0548    0.1615   -1.4346 C   0  0  0  0  0  0  0  0  0  0  0  0
    1.5840    1.0671   -0.5556 C   0  0  0  0  0  0  0  0  0  0  0  0
    2.2770    0.0765    7.6625 H   0  0  0  0  0  0  0  0  0  0  0  0
    3.5757   -1.4316    8.9650 H   0  0  0  0  0  0  0  0  0  0  0  0
    5.8225   -1.7345    8.4982 H   0  0  0  0  0  0  0  0  0  0  0  0
    6.8470   -0.5590    6.7607 H   0  0  0  0  0  0  0  0  0  0  0  0
    5.5858    0.9374    5.4582 H   0  0  0  0  0  0  0  0  0  0  0  0
    0.7068    0.1499    4.9003 H   0  0  0  0  0  0  0  0  0  0  0  0
   -1.4461   -0.1148    5.7110 H   0  0  0  0  0  0  0  0  0  0  0  0
   -2.3476    1.4433    7.1843 H   0  0  0  0  0  0  0  0  0  0  0  0
   -1.0003    3.1544    8.0086 H   0  0  0  0  0  0  0  0  0  0  0  0
    1.2149    3.3584    7.3004 H   0  0  0  0  0  0  0  0  0  0  0  0
    2.5941    4.6519    4.7387 H   0  0  0  0  0  0  0  0  0  0  0  0
    3.3900    6.6850    5.6085 H   0  0  0  0  0  0  0  0  0  0  0  0
    4.8426    6.7073    7.4256 H   0  0  0  0  0  0  0  0  0  0  0  0
    5.4394    4.7252    8.4412 H   0  0  0  0  0  0  0  0  0  0  0  0
    4.6115    2.6729    7.6579 H   0  0  0  0  0  0  0  0  0  0  0  0
    5.1016    4.1024   -0.9496 H   0  0  0  0  0  0  0  0  0  0  0  0
    7.3390    4.3224   -1.5575 H   0  0  0  0  0  0  0  0  0  0  0  0
    8.9543    2.8813   -0.6467 H   0  0  0  0  0  0  0  0  0  0  0  0
    8.3147    1.3041    0.9040 H   0  0  0  0  0  0  0  0  0  0  0  0
    6.0898    1.0989    1.5462 H   0  0  0  0  0  0  0  0  0  0  0  0
    3.5748    4.9739    2.0130 H   0  0  0  0  0  0  0  0  0  0  0  0
    2.7800    7.0963    1.4277 H   0  0  0  0  0  0  0  0  0  0  0  0
    1.6365    7.3896   -0.5807 H   0  0  0  0  0  0  0  0  0  0  0  0
    1.2836    5.5956   -2.0152 H   0  0  0  0  0  0  0  0  0  0  0  0
    2.1455    3.4796   -1.4573 H   0  0  0  0  0  0  0  0  0  0  0  0
    4.7190    0.5962   -1.1978 H   0  0  0  0  0  0  0  0  0  0  0  0
    3.8258   -0.9820   -2.6893 H   0  0  0  0  0  0  0  0  0  0  0  0
    1.4993   -1.2541   -2.8464 H   0  0  0  0  0  0  0  0  0  0  0  0
    0.1012    0.0627   -1.4961 H   0  0  0  0  0  0  0  0  0  0  0  0
    0.9993    1.5868    0.0023 H   0  0  0  0  0  0  0  0  0  0  0  0
    4.1295    3.1246    2.9785 H   0  0  0  0  0  0  0  0  0  0  0  0
    4.6141    0.7014    3.1879 H   0  0  0  0  0  0  0  0  0  0  0  0
    2.0960    0.2976    2.9033 H   0  0  0  0  0  0  0  0  0  0  0  0
    3.0038   -1.3986    4.6863 H   0  0  0  0  0  0  0  0  0  0  0  0
    4.8613   -0.6207    2.0448 H   0  0  0  0  0  0  0  0  0  0  0  0
    4.4928   -1.0033    3.7322 H   0  0  0  0  0  0  0  0  0  0  0  0
    2.2999   -0.9129    1.4892 H   0  0  0  0  0  0  0  0  0  0  0  0
    2.0285   -1.3147    3.2039 H   0  0  0  0  0  0  0  0  0  0  0  0
    3.4496   -2.6474    3.5363 H   0  0  0  0  0  0  0  0  0  0  0  0
  1  2  1  0  0  0  0
  2  9  1  0  0  0  0
  3  1  1  0  0  0  0
  4  8  3  0  0  0  0
  5  1  1  0  0  0  0
  6  5  1  0  0  0  0
  7  1  1  0  0  0  0
  8  1  1  0  0  0  0
  9 10  4  0  0  0  0
 10 11  4  0  0  0  0
 11 12  4  0  0  0  0
 12 13  4  0  0  0  0
 13 14  4  0  0  0  0
 14  9  4  0  0  0  0
 15  2  1  0  0  0  0
 16 15  4  0  0  0  0
 17 16  4  0  0  0  0
 18 17  4  0  0  0  0
 19 18  4  0  0  0  0
 20 15  4  0  0  0  0
 21  2  1  0  0  0  0
 22 21  4  0  0  0  0
 23 22  4  0  0  0  0
 24 23  4  0  0  0  0
 25 24  4  0  0  0  0
 26 21  4  0  0  0  0
 27  3  1  0  0  0  0
 28 27  4  0  0  0  0
 29 28  4  0  0  0  0
 30 29  4  0  0  0  0
 31 30  4  0  0  0  0
 32 27  4  0  0  0  0
 33  3  1  0  0  0  0
 34 33  4  0  0  0  0
 35 34  4  0  0  0  0
 36 35  4  0  0  0  0
 37 36  4  0  0  0  0
 38 33  4  0  0  0  0
 39  3  1  0  0  0  0
 40 39  4  0  0  0  0
 41 40  4  0  0  0  0
 42 41  4  0  0  0  0
 43 42  4  0  0  0  0
 44 39  4  0  0  0  0
 45 10  1  0  0  0  0
 46 11  1  0  0  0  0
 47 12  1  0  0  0  0
 48 13  1  0  0  0  0
 49 14  1  0  0  0  0
 50 16  1  0  0  0  0
 51 17  1  0  0  0  0
 52 18  1  0  0  0  0
 53 19  1  0  0  0  0
 54 20  1  0  0  0  0
 55 22  1  0  0  0  0
 56 23  1  0  0  0  0
 57 24  1  0  0  0  0
 58 25  1  0  0  0  0
 59 26  1  0  0  0  0
 60 28  1  0  0  0  0
 61 29  1  0  0  0  0
 62 30  1  0  0  0  0
 63 31  1  0  0  0  0
 64 32  1  0  0  0  0
 65 34  1  0  0  0  0
 66 35  1  0  0  0  0
 67 36  1  0  0  0  0
 68 37  1  0  0  0  0
 69 38  1  0  0  0  0
 70 40  1  0  0  0  0
 71 41  1  0  0  0  0
 72 42  1  0  0  0  0
 73 43  1  0  0  0  0
 74 44  1  0  0  0  0
 75  1  1  0  0  0  0
 76  1  1  0  0  0  0
 77  1  1  0  0  0  0
 78  6  1  0  0  0  0
 79  5  1  0  0  0  0
 80  5  1  0  0  0  0
 81  7  1  0  0  0  0
 82  6  1  0  0  0  0
 83  6  1  0  0  0  0
  5  7  1  0  0  0  0
  5 76  1  0  0  0  0
  6  7  1  0  0  0  0
  6 80  1  0  0  0  0
  7 77  1  0  0  0  0
  7 82  1  0  0  0  0
 19 20  4  0  0  0  0
 25 26  4  0  0  0  0
 31 32  4  0  0  0  0
 37 38  4  0  0  0  0
 43 44  4  0  0  0  0
M  END
$$$$
SUCXUJ10

From CSD data. Using bond type 'Any'. No disordered atoms. Largest molecule.
 83 94  0  0  0  0  0  0  0  0999 V2000
    3.1086    1.7838    3.0568 Ru  0  0  0  0  0  0  0  0  0  0  0  0
    2.9125    1.8695    5.4197 P   0  0  0  0  0  0  0  0  0  0  0  0
    3.6021    2.3725    0.8214 P   0  0  0  0  0  0  0  0  0  0  0  0
    0.7071    3.5614    2.9648 O   0  0  0  0  0  0  0  0  0  0  0  0
    4.2281   -0.3688    2.8077 B   0  0  0  0  0  0  0  0  0  0  0  0
    3.3043   -1.5921    3.7527 B   0  0  0  0  0  0  0  0  0  0  0  0
    2.5321   -0.5633    2.4820 B   0  0  0  0  0  0  0  0  0  0  0  0
    1.6589    2.9216    2.9876 C   0  0  0  0  0  0  0  0  0  0  0  0
    3.8296    0.6621    6.4465 C   0  0  0  0  0  0  0  0  0  0  0  0
    3.2112   -0.0446    7.4780 C   0  0  0  0  0  0  0  0  0  0  0  0
    3.9851   -0.9438    8.2454 C   0  0  0  0  0  0  0  0  0  0  0  0
    5.3055   -1.1213    7.9699 C   0  0  0  0  0  0  0  0  0  0  0  0
    5.9128   -0.4283    6.9452 C   0  0  0  0  0  0  0  0  0  0  0  0
    5.1677    0.4602    6.1778 C   0  0  0  0  0  0  0  0  0  0  0  0
    1.1992    1.7653    6.0457 C   0  0  0  0  0  0  0  0  0  0  0  0
    0.3715    0.7588    5.5630 C   0  0  0  0  0  0  0  0  0  0  0  0
   -0.9099    0.6196    6.0161 C   0  0  0  0  0  0  0  0  0  0  0  0
   -1.4328    1.5177    6.8996 C   0  0  0  0  0  0  0  0  0  0  0  0
   -0.6432    2.5273    7.3755 C   0  0  0  0  0  0  0  0  0  0  0  0
    0.6684    2.6485    6.9543 C   0  0  0  0  0  0  0  0  0  0  0  0
    3.5178    3.4594    6.1140 C   0  0  0  0  0  0  0  0  0  0  0  0
    3.1687    4.6529    5.5083 C   0  0  0  0  0  0  0  0  0  0  0  0
    3.6536    5.8571    6.0184 C   0  0  0  0  0  0  0  0  0  0  0  0
    4.5002    5.8741    7.0955 C   0  0  0  0  0  0  0  0  0  0  0  0
    4.8471    4.7114    7.6852 C   0  0  0  0  0  0  0  0  0  0  0  0
    4.3635    3.4902    7.2184 C   0  0  0  0  0  0  0  0  0  0  0  0
    5.3696    2.5709    0.3484 C   0  0  0  0  0  0  0  0  0  0  0  0
    5.7593    3.5211   -0.5624 C   0  0  0  0  0  0  0  0  0  0  0  0
    7.0789    3.6475   -0.9268 C   0  0  0  0  0  0  0  0  0  0  0  0
    8.0336    2.8069   -0.3826 C   0  0  0  0  0  0  0  0  0  0  0  0
    7.6556    1.8854    0.5169 C   0  0  0  0  0  0  0  0  0  0  0  0
    6.3370    1.7611    0.8949 C   0  0  0  0  0  0  0  0  0  0  0  0
    2.9333    4.0269    0.3484 C   0  0  0  0  0  0  0  0  0  0  0  0
    3.1129    5.0951    1.1795 C   0  0  0  0  0  0  0  0  0  0  0  0
    2.6419    6.3513    0.8403 C   0  0  0  0  0  0  0  0  0  0  0  0
    1.9691    6.5203   -0.3461 C   0  0  0  0  0  0  0  0  0  0  0  0
    1.7647    5.4702   -1.1955 C   0  0  0  0  0  0  0  0  0  0  0  0
    2.2627    4.2183   -0.8539 C   0  0  0  0  0  0  0  0  0  0  0  0
    2.9630    1.2435   -0.4623 C   0  0  0  0  0  0  0  0  0  0  0  0
    3.7674    0.4846   -1.2524 C   0  0  0  0  0  0  0  0  0  0  0  0
    3.2397   -0.4528   -2.1428 C   0  0  0  0  0  0  0  0  0  0  0  0
    1.8751   -0.6154   -2.2361 C   0  0  0  0  0  0  0  0  0  0  0  0
    1.0548    0.1615   -1.4346 C   0  0  0  0  0  0  0  0  0  0  0  0
    1.5840    1.0671   -0.5556 C   0  0  0  0  0  0  0  0  0  0  0  0
    2.2770    0.0765    7.6625 H   0  0  0  0  0  0  0  0  0  0  0  0
    3.5757   -1.4316    8.9650 H   0  0  0  0  0  0  0  0  0  0  0  0
    5.8225   -1.7345    8.4982 H   0  0  0  0  0  0  0  0  0  0  0  0
    6.8470   -0.5590    6.7607 H   0  0  0  0  0  0  0  0  0  0  0  0
    5.5858    0.9374    5.4582 H   0  0  0  0  0  0  0  0  0  0  0  0
    0.7068    0.1499    4.9003 H   0  0  0  0  0  0  0  0  0  0  0  0
   -1.4461   -0.1148    5.7110 H   0  0  0  0  0  0  0  0  0  0  0  0
   -2.3476    1.4433    7.1843 H   0  0  0  0  0  0  0  0  0  0  0  0
   -1.0003    3.1544    8.0086 H   0  0  0  0  0  0  0  0  0  0  0  0
    1.2149    3.3584    7.3004 H   0  0  0  0  0  0  0  0  0  0  0  0
    2.5941    4.6519    4.7387 H   0  0  0  0  0  0  0  0  0  0  0  0
    3.3900    6.6850    5.6085 H   0  0  0  0  0  0  0  0  0  0  0  0
    4.8426    6.7073    7.4256 H   0  0  0  0  0  0  0  0  0  0  0  0
    5.4394    4.7252    8.4412 H   0  0  0  0  0  0  0  0  0  0  0  0
    4.6115    2.6729    7.6579 H   0  0  0  0  0  0  0  0  0  0  0  0
    5.1016    4.1024   -0.9496 H   0  0  0  0  0  0  0  0  0  0  0  0
    7.3390    4.3224   -1.5575 H   0  0  0  0  0  0  0  0  0  0  0  0
    8.9543    2.8813   -0.6467 H   0  0  0  0  0  0  0  0  0  0  0  0
    8.3147    1.3041    0.9040 H   0  0  0  0  0  0  0  0  0  0  0  0
    6.0898    1.0989    1.5462 H   0  0  0  0  0  0  0  0  0  0  0  0
    3.5748    4.9739    2.0130 H   0  0  0  0  0  0  0  0  0  0  0  0
    2.7800    7.0963    1.4277 H   0  0  0  0  0  0  0  0  0  0  0  0
    1.6365    7.3896   -0.5807 H   0  0  0  0  0  0  0  0  0  0  0  0
    1.2836    5.5956   -2.0152 H   0  0  0  0  0  0  0  0  0  0  0  0
    2.1455    3.4796   -1.4573 H   0  0  0  0  0  0  0  0  0  0  0  0
    4.7190    0.5962   -1.1978 H   0  0  0  0  0  0  0  0  0  0  0  0
    3.8258   -0.9820   -2.6893 H   0  0  0  0  0  0  0  0  0  0  0  0
    1.4993   -1.2541   -2.8464 H   0  0  0  0  0  0  0  0  0  0  0  0
    0.1012    0.0627   -1.4961 H   0  0  0  0  0  0  0  0  0  0  0  0
    0.9993    1.5868    0.0023 H   0  0  0  0  0  0  0  0  0  0  0  0
    4.1295    3.1246    2.9785 H   0  0  0  0  0  0  0  0  0  0  0  0
    4.6141    0.7014    3.1879 H   0  0  0  0  0  0  0  0  0  0  0  0
    2.0960    0.2976    2.9033 H   0  0  0  0  0  0  0  0  0  0  0  0
    3.0038   -1.3986    4.6863 H   0  0  0  0  0  0  0  0  0  0  0  0
    4.8613   -0.6207    2.0448 H   0  0  0  0  0  0  0  0  0  0  0  0
    4.4928   -1.0033    3.7322 H   0  0  0  0  0  0  0  0  0  0  0  0
    2.2999   -0.9129    1.4892 H   0  0  0  0  0  0  0  0  0  0  0  0
    2.0285   -1.3147    3.2039 H   0  0  0  0  0  0  0  0  0  0  0  0
    3.4496   -2.6474    3.5363 H   0  0  0  0  0  0  0  0  0  0  0  0
  1  2  1  0  0  0  0
  2  9  1  0  0  0  0
  3  1  1  0  0  0  0
  4  8  3  0  0  0  0
  5  1  1  0  0  0  0
  6  5  1  0  0  0  0
  7  1  1  0  0  0  0
  8  1  1  0  0  0  0
  9 10  4  0  0  0  0
 10 11  4  0  0  0  0
 11 12  4  0  0  0  0
 12 13  4  0  0  0  0
 13 14  4  0  0  0  0
 14  9  4  0  0  0  0
 15  2  1  0  0  0  0
 16 15  4  0  0  0  0
 17 16  4  0  0  0  0
 18 17  4  0  0  0  0
 19 18  4  0  0  0  0
 20 15  4  0  0  0  0
 21  2  1  0  0  0  0
 22 21  4  0  0  0  0
 23 22  4  0  0  0  0
 24 23  4  0  0  0  0
 25 24  4  0  0  0  0
 26 21  4  0  0  0  0
 27  3  1  0  0  0  0
 28 27  4  0  0  0  0
 29 28  4  0  0  0  0
 30 29  4  0  0  0  0
 31 30  4  0  0  0  0
 32 27  4  0  0  0  0
 33  3  1  0  0  0  0
 34 33  4  0  0  0  0
 35 34  4  0  0  0  0
 36 35  4  0  0  0  0
 37 36  4  0  0  0  0
 38 33  4  0  0  0  0
 39  3  1  0  0  0  0
 40 39  4  0  0  0  0
 41 40  4  0  0  0  0
 42 41  4  0  0  0  0
 43 42  4  0  0  0  0
 44 39  4  0  0  0  0
 45 10  1  0  0  0  0
 46 11  1  0  0  0  0
 47 12  1  0  0  0  0
 48 13  1  0  0  0  0
 49 14  1  0  0  0  0
 50 16  1  0  0  0  0
 51 17  1  0  0  0  0
 52 18  1  0  0  0  0
 53 19  1  0  0  0  0
 54 20  1  0  0  0  0
 55 22  1  0  0  0  0
 56 23  1  0  0  0  0
 57 24  1  0  0  0  0
 58 25  1  0  0  0  0
 59 26  1  0  0  0  0
 60 28  1  0  0  0  0
 61 29  1  0  0  0  0
 62 30  1  0  0  0  0
 63 31  1  0  0  0  0
 64 32  1  0  0  0  0
 65 34  1  0  0  0  0
 66 35  1  0  0  0  0
 67 36  1  0  0  0  0
 68 37  1  0  0  0  0
 69 38  1  0  0  0  0
 70 40  1  0  0  0  0
 71 41  1  0  0  0  0
 72 42  1  0  0  0  0
 73 43  1  0  0  0  0
 74 44  1  0  0  0  0
 75  1  1  0  0  0  0
 76  1  1  0  0  0  0
 77  1  1  0  0  0  0
 78  6  1  0  0  0  0
 79  5  1  0  0  0  0
 80  5  1  0  0  0  0
 81  7  1  0  0  0  0
 82  6  1  0  0  0  0
 83  6  1  0  0  0  0
  5  7  1  0  0  0  0
  5 76  1  0  0  0  0
  6  7  1  0  0  0  0
  6 80  1  0  0  0  0
  7 77  1  0  0  0  0
  7 82  1  0  0  0  0
 19 20  4  0  0  0  0
 25 26  4  0  0  0  0
 31 32  4  0  0  0  0
 37 38  4  0  0  0  0
 43 44  4  0  0  0  0
M  END
$$$$
SUJVIF

From CSD data. Using bond type 'Any'. No disordered atoms. Largest molecule.
 70 89  0  0  0  0  0  0  0  0999 V2000
   13.6383   31.2291   18.5312 P   0  0  0  0  0  0  0  0  0  0  0  0
   11.6781   26.5679   18.5686 P   0  0  0  0  0  0  0  0  0  0  0  0
   14.5370   32.4069   18.3904 O   0  0  0  0  0  0  0  0  0  0  0  0
   10.8356   27.7584   18.8496 O   0  0  0  0  0  0  0  0  0  0  0  0
   12.4501   29.9876   20.7488 C   0  0  0  0  0  0  0  0  0  0  0  0
   12.1089   29.3364   20.1473 H   0  0  0  0  0  0  0  0  0  0  0  0
   14.1694   29.6980   17.8763 C   0  5  0  0  0  0  0  0  0  0  0  0
   12.1354   29.9285   22.0890 C   0  0  0  0  0  0  0  0  0  0  0  0
   11.5567   29.2419   22.4009 H   0  0  0  0  0  0  0  0  0  0  0  0
   13.2728   31.0093   20.2771 C   0  0  0  0  0  0  0  0  0  0  0  0
    9.4063   25.5978   17.3697 C   0  0  0  0  0  0  0  0  0  0  0  0
    8.9756   26.3003   17.8464 H   0  0  0  0  0  0  0  0  0  0  0  0
   11.7761   25.5819   20.0725 C   0  0  0  0  0  0  0  0  0  0  0  0
   12.0088   31.6161   17.8389 C   0  0  0  0  0  0  0  0  0  0  0  0
   11.7371   26.2020   21.2928 C   0  0  0  0  0  0  0  0  0  0  0  0
   11.7221   27.1539   21.3128 H   0  0  0  0  0  0  0  0  0  0  0  0
    9.5015   32.3971   16.9180 C   0  0  0  0  0  0  0  0  0  0  0  0
    8.6415   32.6621   16.6135 H   0  0  0  0  0  0  0  0  0  0  0  0
   10.9764   30.6924   17.7590 C   0  0  0  0  0  0  0  0  0  0  0  0
   11.1256   29.7897   18.0086 H   0  0  0  0  0  0  0  0  0  0  0  0
    9.2557   23.7091   15.9372 C   0  0  0  0  0  0  0  0  0  0  0  0
    8.7364   23.0940   15.4331 H   0  0  0  0  0  0  0  0  0  0  0  0
   13.4779   31.8630   22.5432 C   0  0  0  0  0  0  0  0  0  0  0  0
   13.8173   32.5104   23.1521 H   0  0  0  0  0  0  0  0  0  0  0  0
   13.8008   31.9170   21.2030 C   0  0  0  0  0  0  0  0  0  0  0  0
   14.3985   32.5896   20.8985 H   0  0  0  0  0  0  0  0  0  0  0  0
    9.7071   31.0999   17.3098 C   0  0  0  0  0  0  0  0  0  0  0  0
    8.9918   30.4760   17.2773 H   0  0  0  0  0  0  0  0  0  0  0  0
   11.7753   24.2083   20.0800 C   0  0  0  0  0  0  0  0  0  0  0  0
   11.8057   23.7355   19.2589 H   0  0  0  0  0  0  0  0  0  0  0  0
   10.7939   25.4923   17.4321 C   0  0  0  0  0  0  0  0  0  0  0  0
    8.6599   24.7357   16.6509 C   0  0  0  0  0  0  0  0  0  0  0  0
    7.7151   24.8320   16.6360 H   0  0  0  0  0  0  0  0  0  0  0  0
   12.6383   30.8339   22.9849 C   0  0  0  0  0  0  0  0  0  0  0  0
   12.4161   30.7644   23.9058 H   0  0  0  0  0  0  0  0  0  0  0  0
   10.5352   33.3388   16.9579 C   0  0  0  0  0  0  0  0  0  0  0  0
   10.3980   34.2341   16.6684 H   0  0  0  0  0  0  0  0  0  0  0  0
   11.7812   32.9196   17.4446 C   0  0  0  0  0  0  0  0  0  0  0  0
   12.4902   33.5510   17.5069 H   0  0  0  0  0  0  0  0  0  0  0  0
   11.7311   23.4852   21.3078 C   0  0  0  0  0  0  0  0  0  0  0  0
   11.7277   22.5357   21.3128 H   0  0  0  0  0  0  0  0  0  0  0  0
   13.2721   26.9730   18.0061 C   0  5  0  0  0  0  0  0  0  0  0  0
   11.4104   24.4657   16.7283 C   0  0  0  0  0  0  0  0  0  0  0  0
   12.3531   24.3578   16.7657 H   0  0  0  0  0  0  0  0  0  0  0  0
   10.6490   23.6113   15.9846 C   0  0  0  0  0  0  0  0  0  0  0  0
   11.0798   22.9292   15.4830 H   0  0  0  0  0  0  0  0  0  0  0  0
   13.7914   27.0733   16.5361 B   0  0  0  0  0  0  0  0  0  0  0  0
   12.9850   26.6692   15.8723 H   0  0  0  0  0  0  0  0  0  0  0  0
   11.6940   24.1879   22.4708 C   0  0  0  0  0  0  0  0  0  0  0  0
   11.6497   23.7150   23.2943 H   0  0  0  0  0  0  0  0  0  0  0  0
   15.0455   28.2250   15.8798 B   0  0  0  0  0  0  0  0  0  0  0  0
   15.1500   28.2817   14.7667 H   0  0  0  0  0  0  0  0  0  0  0  0
   11.7179   25.5259   22.4932 C   0  0  0  0  0  0  0  0  0  0  0  0
   11.7224   26.0000   23.3168 H   0  0  0  0  0  0  0  0  0  0  0  0
   15.6143   26.7522   16.6884 B   0  0  0  0  0  0  0  0  0  0  0  0
   16.1891   25.9920   16.1019 H   0  0  0  0  0  0  0  0  0  0  0  0
   14.3244   27.4154   19.0642 B   0  0  0  0  0  0  0  0  0  0  0  0
   13.8533   27.5999   20.0625 H   0  0  0  0  0  0  0  0  0  0  0  0
   15.4665   28.9463   18.5277 B   0  0  0  0  0  0  0  0  0  0  0  0
   15.7834   29.5301   19.4286 H   0  0  0  0  0  0  0  0  0  0  0  0
   13.6907   29.0721   16.5636 B   0  0  0  0  0  0  0  0  0  0  0  0
   12.6746   29.4345   16.2616 H   0  0  0  0  0  0  0  0  0  0  0  0
   15.3782   29.6832   16.8581 B   0  0  0  0  0  0  0  0  0  0  0  0
   15.8723   30.6070   16.4638 H   0  0  0  0  0  0  0  0  0  0  0  0
   14.5711   26.0634   17.8888 B   0  0  0  0  0  0  0  0  0  0  0  0
   14.5858   24.9560   18.0535 H   0  0  0  0  0  0  0  0  0  0  0  0
   15.9069   27.2191   18.3654 B   0  0  0  0  0  0  0  0  0  0  0  0
   16.7257   26.8484   19.0343 H   0  0  0  0  0  0  0  0  0  0  0  0
   16.3693   28.2906   17.1101 B   0  0  0  0  0  0  0  0  0  0  0  0
   17.4597   28.4486   16.9105 H   0  0  0  0  0  0  0  0  0  0  0  0
  1  3  2  0  0  0  0
  2  4  2  0  0  0  0
  5  6  1  0  0  0  0
  7  1  1  0  0  0  0
  8  5  4  0  0  0  0
  9  8  1  0  0  0  0
 10  1  1  0  0  0  0
 11 12  1  0  0  0  0
 13  2  1  0  0  0  0
 14  1  1  0  0  0  0
 15 13  4  0  0  0  0
 16 15  1  0  0  0  0
 17 18  1  0  0  0  0
 19 14  4  0  0  0  0
 20 19  1  0  0  0  0
 21 22  1  0  0  0  0
 23 24  1  0  0  0  0
 25 10  4  0  0  0  0
 26 25  1  0  0  0  0
 27 17  4  0  0  0  0
 28 27  1  0  0  0  0
 29 13  4  0  0  0  0
 30 29  1  0  0  0  0
 31  2  1  0  0  0  0
 32 11  4  0  0  0  0
 33 32  1  0  0  0  0
 34  8  4  0  0  0  0
 35 34  1  0  0  0  0
 36 17  4  0  0  0  0
 37 36  1  0  0  0  0
 38 14  4  0  0  0  0
 39 38  1  0  0  0  0
 40 29  4  0  0  0  0
 41 40  1  0  0  0  0
 42  2  1  0  0  0  0
 43 31  4  0  0  0  0
 44 43  1  0  0  0  0
 45 21  4  0  0  0  0
 46 45  1  0  0  0  0
 47 42  1  0  0  0  0
 48 47  1  0  0  0  0
 49 40  4  0  0  0  0
 50 49  1  0  0  0  0
 51 47  1  0  0  0  0
 52 51  1  0  0  0  0
 53 15  4  0  0  0  0
 54 53  1  0  0  0  0
 55 47  1  0  0  0  0
 56 55  1  0  0  0  0
 57 42  1  0  0  0  0
 58 57  1  0  0  0  0
 59  7  1  0  0  0  0
 60 59  1  0  0  0  0
 61  7  1  0  0  0  0
 62 61  1  0  0  0  0
 63  7  1  0  0  0  0
 64 63  1  0  0  0  0
 65 42  1  0  0  0  0
 66 65  1  0  0  0  0
 67 55  1  0  0  0  0
 68 67  1  0  0  0  0
 69 51  1  0  0  0  0
 70 69  1  0  0  0  0
  5 10  4  0  0  0  0
 11 31  4  0  0  0  0
 19 27  4  0  0  0  0
 21 32  4  0  0  0  0
 23 25  4  0  0  0  0
 23 34  4  0  0  0  0
 36 38  4  0  0  0  0
 43 45  4  0  0  0  0
 47 61  1  0  0  0  0
 47 65  1  0  0  0  0
 49 53  4  0  0  0  0
 51 55  1  0  0  0  0
 51 61  1  0  0  0  0
 51 63  1  0  0  0  0
 55 65  1  0  0  0  0
 55 69  1  0  0  0  0
 57 59  1  0  0  0  0
 57 65  1  0  0  0  0
 57 67  1  0  0  0  0
 59 63  1  0  0  0  0
 59 67  1  0  0  0  0
 59 69  1  0  0  0  0
 61 63  1  0  0  0  0
 63 69  1  0  0  0  0
 65 67  1  0  0  0  0
 67 69  1  0  0  0  0
M  CHG  2   7  -1  42  -1
M  END
$$$$
SUJVOL

From CSD data. Using bond type 'Any'. No disordered atoms. Largest molecule.
 75 95  0  0  0  0  0  0  0  0999 V2000
    2.4759    6.1337    8.7574 U   0  0  0  0  0  0  0  0  0  0  0  0
    5.2469    5.2338    6.5224 P   0  0  0  0  0  0  0  0  0  0  0  0
    2.0344    8.6294    6.0640 P   0  0  0  0  0  0  0  0  0  0  0  0
    3.4456    4.4519   10.5480 Cl  0  0  0  0  0  0  0  0  0  0  0  0
    0.2528    6.6755   10.1167 Cl  0  0  0  0  0  0  0  0  0  0  0  0
    4.3983    5.7559    7.6336 O   0  0  0  0  0  0  0  0  0  0  0  0
    1.9054    7.4882    7.0444 O   0  0  0  0  0  0  0  0  0  0  0  0
    1.6660    4.8304    7.9359 O   0  0  0  0  0  0  0  0  0  0  0  0
    3.2672    7.4535    9.5665 O   0  0  0  0  0  0  0  0  0  0  0  0
    3.3362    8.4293    4.9667 C   0  5  0  0  0  0  0  0  0  0  0  0
    0.2944    9.4311    4.0649 C   0  0  0  0  0  0  0  0  0  0  0  0
    1.0439    9.8140    3.6256 H   0  0  0  0  0  0  0  0  0  0  0  0
    6.8996    5.0448    7.1633 C   0  0  0  0  0  0  0  0  0  0  0  0
    5.1646    6.2426    5.1295 C   0  5  0  0  0  0  0  0  0  0  0  0
    4.0765    0.9125    5.8350 C   0  0  0  0  0  0  0  0  0  0  0  0
    3.8523   -0.0051    5.7291 H   0  0  0  0  0  0  0  0  0  0  0  0
    0.4495    8.7749    5.2613 C   0  0  0  0  0  0  0  0  0  0  0  0
    4.7254    3.5564    6.1839 C   0  0  0  0  0  0  0  0  0  0  0  0
    3.9067    1.5297    7.0573 C   0  0  0  0  0  0  0  0  0  0  0  0
    3.5452    1.0340    7.7835 H   0  0  0  0  0  0  0  0  0  0  0  0
    4.5702    1.6231    4.7755 C   0  0  0  0  0  0  0  0  0  0  0  0
    4.6864    1.2068    3.9305 H   0  0  0  0  0  0  0  0  0  0  0  0
    2.1621   10.1442    6.9875 C   0  0  0  0  0  0  0  0  0  0  0  0
    8.0084    5.0607    6.3467 C   0  0  0  0  0  0  0  0  0  0  0  0
    7.9071    5.1908    5.4112 H   0  0  0  0  0  0  0  0  0  0  0  0
   -0.9534    9.5254    3.5144 C   0  0  0  0  0  0  0  0  0  0  0  0
   -1.0641    9.9746    2.6849 H   0  0  0  0  0  0  0  0  0  0  0  0
    4.2401    2.8189    7.2408 C   0  0  0  0  0  0  0  0  0  0  0  0
    4.1425    3.2198    8.0961 H   0  0  0  0  0  0  0  0  0  0  0  0
   -0.6376    8.2187    5.8867 C   0  0  0  0  0  0  0  0  0  0  0  0
   -0.5292    7.7619    6.7136 H   0  0  0  0  0  0  0  0  0  0  0  0
    4.8973    2.9493    4.9487 C   0  0  0  0  0  0  0  0  0  0  0  0
    5.2417    3.4500    4.2199 H   0  0  0  0  0  0  0  0  0  0  0  0
   -2.0383    8.9875    4.1321 C   0  0  0  0  0  0  0  0  0  0  0  0
   -2.9003    9.0736    3.7393 H   0  0  0  0  0  0  0  0  0  0  0  0
    1.7137   11.2960    9.0213 C   0  0  0  0  0  0  0  0  0  0  0  0
    1.4084   11.2959    9.9206 H   0  0  0  0  0  0  0  0  0  0  0  0
    2.6301   12.4714    7.1348 C   0  0  0  0  0  0  0  0  0  0  0  0
    2.9646   13.2712    6.7472 H   0  0  0  0  0  0  0  0  0  0  0  0
    1.7068   10.1448    8.2977 C   0  0  0  0  0  0  0  0  0  0  0  0
    1.3894    9.3401    8.6879 H   0  0  0  0  0  0  0  0  0  0  0  0
   -1.8906    8.3244    5.3156 C   0  0  0  0  0  0  0  0  0  0  0  0
   -2.6437    7.9368    5.7420 H   0  0  0  0  0  0  0  0  0  0  0  0
    7.0425    4.8013    8.5044 C   0  0  0  0  0  0  0  0  0  0  0  0
    6.2775    4.7595    9.0678 H   0  0  0  0  0  0  0  0  0  0  0  0
    5.6931    8.9761    3.9279 B   0  0  0  0  0  0  0  0  0  0  0  0
    6.4448    9.8060    3.9460 H   0  0  0  0  0  0  0  0  0  0  0  0
    8.3088    4.6152    9.0394 C   0  0  0  0  0  0  0  0  0  0  0  0
    8.4138    4.4465    9.9671 H   0  0  0  0  0  0  0  0  0  0  0  0
    9.4008    4.6737    8.2331 C   0  0  0  0  0  0  0  0  0  0  0  0
   10.2662    4.5652    8.6104 H   0  0  0  0  0  0  0  0  0  0  0  0
    2.1714   12.4756    8.4373 C   0  0  0  0  0  0  0  0  0  0  0  0
    2.1673   13.2843    8.9360 H   0  0  0  0  0  0  0  0  0  0  0  0
    4.6423    8.4984    2.5583 B   0  0  0  0  0  0  0  0  0  0  0  0
    4.5830    8.9937    1.5557 H   0  0  0  0  0  0  0  0  0  0  0  0
    9.2771    4.8847    6.8893 C   0  0  0  0  0  0  0  0  0  0  0  0
   10.0464    4.9108    6.3312 H   0  0  0  0  0  0  0  0  0  0  0  0
    2.6007   11.3184    6.4087 C   0  0  0  0  0  0  0  0  0  0  0  0
    2.8823   11.3221    5.5017 H   0  0  0  0  0  0  0  0  0  0  0  0
    3.9459    9.3850    3.8711 B   0  0  0  0  0  0  0  0  0  0  0  0
    3.5320   10.4018    3.6488 H   0  0  0  0  0  0  0  0  0  0  0  0
    6.0432    7.5743    2.9614 B   0  0  0  0  0  0  0  0  0  0  0  0
    6.9264    7.6004    2.2741 H   0  0  0  0  0  0  0  0  0  0  0  0
    3.2398    7.7748    3.4705 B   0  0  0  0  0  0  0  0  0  0  0  0
    2.1578    7.6451    3.2121 H   0  0  0  0  0  0  0  0  0  0  0  0
    6.1306    7.4721    4.7781 B   0  0  0  0  0  0  0  0  0  0  0  0
    6.9815    7.4687    5.5068 H   0  0  0  0  0  0  0  0  0  0  0  0
    5.7374    6.0255    3.6850 B   0  0  0  0  0  0  0  0  0  0  0  0
    6.3699    5.1541    3.3775 H   0  0  0  0  0  0  0  0  0  0  0  0
    3.9931    6.1057    4.1786 B   0  0  0  0  0  0  0  0  0  0  0  0
    3.1815    5.4702    4.6179 H   0  0  0  0  0  0  0  0  0  0  0  0
    4.7685    8.7547    5.3621 B   0  0  0  0  0  0  0  0  0  0  0  0
    4.8502    8.9484    6.4630 H   0  0  0  0  0  0  0  0  0  0  0  0
    4.4837    6.7645    2.6668 B   0  0  0  0  0  0  0  0  0  0  0  0
    4.1657    6.2078    1.7495 H   0  0  0  0  0  0  0  0  0  0  0  0
  1  4  1  0  0  0  0
  2  6  2  0  0  0  0
  3  7  2  0  0  0  0
  5  1  1  0  0  0  0
  6  1  1  0  0  0  0
  7  1  1  0  0  0  0
  8  1  2  0  0  0  0
  9  1  2  0  0  0  0
 10  3  1  0  0  0  0
 11 12  1  0  0  0  0
 13  2  1  0  0  0  0
 14  2  1  0  0  0  0
 15 16  1  0  0  0  0
 17  3  1  0  0  0  0
 18  2  1  0  0  0  0
 19 15  4  0  0  0  0
 20 19  1  0  0  0  0
 21 15  4  0  0  0  0
 22 21  1  0  0  0  0
 23  3  1  0  0  0  0
 24 13  4  0  0  0  0
 25 24  1  0  0  0  0
 26 11  4  0  0  0  0
 27 26  1  0  0  0  0
 28 18  4  0  0  0  0
 29 28  1  0  0  0  0
 30 17  4  0  0  0  0
 31 30  1  0  0  0  0
 32 18  4  0  0  0  0
 33 32  1  0  0  0  0
 34 26  4  0  0  0  0
 35 34  1  0  0  0  0
 36 37  1  0  0  0  0
 38 39  1  0  0  0  0
 40 23  4  0  0  0  0
 41 40  1  0  0  0  0
 42 30  4  0  0  0  0
 43 42  1  0  0  0  0
 44 13  4  0  0  0  0
 45 44  1  0  0  0  0
 46 47  1  0  0  0  0
 48 44  4  0  0  0  0
 49 48  1  0  0  0  0
 50 48  4  0  0  0  0
 51 50  1  0  0  0  0
 52 36  4  0  0  0  0
 53 52  1  0  0  0  0
 54 46  1  0  0  0  0
 55 54  1  0  0  0  0
 56 24  4  0  0  0  0
 57 56  1  0  0  0  0
 58 23  4  0  0  0  0
 59 58  1  0  0  0  0
 60 10  1  0  0  0  0
 61 60  1  0  0  0  0
 62 46  1  0  0  0  0
 63 62  1  0  0  0  0
 64 10  1  0  0  0  0
 65 64  1  0  0  0  0
 66 14  1  0  0  0  0
 67 66  1  0  0  0  0
 68 14  1  0  0  0  0
 69 68  1  0  0  0  0
 70 14  1  0  0  0  0
 71 70  1  0  0  0  0
 72 10  1  0  0  0  0
 73 72  1  0  0  0  0
 74 54  1  0  0  0  0
 75 74  1  0  0  0  0
 11 17  4  0  0  0  0
 19 28  4  0  0  0  0
 21 32  4  0  0  0  0
 34 42  4  0  0  0  0
 36 40  4  0  0  0  0
 38 52  4  0  0  0  0
 38 58  4  0  0  0  0
 46 60  1  0  0  0  0
 46 66  1  0  0  0  0
 46 72  1  0  0  0  0
 50 56  4  0  0  0  0
 54 60  1  0  0  0  0
 54 62  1  0  0  0  0
 54 64  1  0  0  0  0
 60 64  1  0  0  0  0
 60 72  1  0  0  0  0
 62 66  1  0  0  0  0
 62 68  1  0  0  0  0
 62 74  1  0  0  0  0
 64 70  1  0  0  0  0
 64 74  1  0  0  0  0
 66 68  1  0  0  0  0
 66 72  1  0  0  0  0
 68 70  1  0  0  0  0
 68 74  1  0  0  0  0
 70 74  1  0  0  0  0
M  CHG  2  10  -1  14  -1
M  END
$$$$
SUJVUR

From CSD data. Using bond type 'Any'. Matching problem. No disordered atoms. Largest molecule.
 70 92  0  0  0  0  0  0  0  0999 V2000
    0.1882   11.0376    5.1912 P   0  0  0  0  0  0  0  0  0  0  0  0
    1.9859    7.9957    5.0215 P   0  0  0  0  0  0  0  0  0  0  0  0
   -0.5517    9.7968    5.4718 O   0  0  0  0  0  0  0  0  0  0  0  0
    1.4422    8.4593    3.7292 O   0  0  0  0  0  0  0  0  0  0  0  0
   -0.2301   13.7692    5.8235 C   0  0  0  0  0  0  0  0  0  0  0  0
    0.4511   14.0012    5.2030 H   0  0  0  0  0  0  0  0  0  0  0  0
    1.9060   10.9352    5.9255 C   0  0  0  0  0  0  0  0  0  0  0  0
   -0.5784   12.4314    6.0233 C   0  0  0  0  0  0  0  0  0  0  0  0
    0.7993    7.1353    6.0639 C   0  0  0  0  0  0  0  0  0  0  0  0
    2.7093    9.4507    5.9629 C   0  0  0  0  0  0  0  0  0  0  0  0
    3.7878    6.6685    3.4791 C   0  0  0  0  0  0  0  0  0  0  0  0
    3.3708    7.1422    2.7701 H   0  0  0  0  0  0  0  0  0  0  0  0
    3.3703    6.8673    4.7876 C   0  0  0  0  0  0  0  0  0  0  0  0
    1.0302    6.7317    7.3714 C   0  0  0  0  0  0  0  0  0  0  0  0
    1.8344    6.9877    7.8076 H   0  0  0  0  0  0  0  0  0  0  0  0
    3.9840    6.1665    5.8255 C   0  0  0  0  0  0  0  0  0  0  0  0
    3.6989    6.2927    6.7229 H   0  0  0  0  0  0  0  0  0  0  0  0
    1.0751   12.4343    2.8441 C   0  0  0  0  0  0  0  0  0  0  0  0
    1.7096   12.9171    3.3614 H   0  0  0  0  0  0  0  0  0  0  0  0
   -0.8892   14.7503    6.5418 C   0  0  0  0  0  0  0  0  0  0  0  0
   -0.6464   15.6601    6.4262 H   0  0  0  0  0  0  0  0  0  0  0  0
   -1.8997   14.4159    7.4277 C   0  0  0  0  0  0  0  0  0  0  0  0
   -2.3384   15.0967    7.9253 H   0  0  0  0  0  0  0  0  0  0  0  0
   -0.6232   10.7550    2.6692 C   0  0  0  0  0  0  0  0  0  0  0  0
   -1.1530   10.0740    3.0679 H   0  0  0  0  0  0  0  0  0  0  0  0
    0.0988    5.9612    8.0460 C   0  0  0  0  0  0  0  0  0  0  0  0
    0.2547    5.7092    8.9486 H   0  0  0  0  0  0  0  0  0  0  0  0
    5.0141    5.2838    5.5393 C   0  0  0  0  0  0  0  0  0  0  0  0
    5.4399    4.8110    6.2440 H   0  0  0  0  0  0  0  0  0  0  0  0
   -0.3894    6.7600    5.4549 C   0  0  0  0  0  0  0  0  0  0  0  0
   -0.5790    7.0621    4.5742 H   0  0  0  0  0  0  0  0  0  0  0  0
   -1.6043   12.1079    6.8988 C   0  0  0  0  0  0  0  0  0  0  0  0
   -1.8507   11.1981    7.0237 H   0  0  0  0  0  0  0  0  0  0  0  0
   -1.0556    5.5573    7.4058 C   0  0  0  0  0  0  0  0  0  0  0  0
   -1.6814    5.0055    7.8586 H   0  0  0  0  0  0  0  0  0  0  0  0
    0.2937   11.4484    3.4406 C   0  0  0  0  0  0  0  0  0  0  0  0
   -2.2701   13.0979    7.5890 C   0  0  0  0  0  0  0  0  0  0  0  0
   -2.9822   12.8714    8.1751 H   0  0  0  0  0  0  0  0  0  0  0  0
    4.8165    5.7758    3.2074 C   0  0  0  0  0  0  0  0  0  0  0  0
    5.1012    5.6377    2.3111 H   0  0  0  0  0  0  0  0  0  0  0  0
   -0.7758   11.0430    1.3221 C   0  0  0  0  0  0  0  0  0  0  0  0
   -1.4134   10.5659    0.8047 H   0  0  0  0  0  0  0  0  0  0  0  0
   -0.0058   12.0187    0.7339 C   0  0  0  0  0  0  0  0  0  0  0  0
   -0.1092   12.2192   -0.1884 H   0  0  0  0  0  0  0  0  0  0  0  0
    0.9264   12.7080    1.5001 C   0  0  0  0  0  0  0  0  0  0  0  0
    1.4671   13.3748    1.0941 H   0  0  0  0  0  0  0  0  0  0  0  0
   -1.2992    5.9566    6.1077 C   0  0  0  0  0  0  0  0  0  0  0  0
   -2.0914    5.6777    5.6642 H   0  0  0  0  0  0  0  0  0  0  0  0
    5.4236    5.0896    4.2359 C   0  0  0  0  0  0  0  0  0  0  0  0
    6.1268    4.4792    4.0475 H   0  0  0  0  0  0  0  0  0  0  0  0
    3.0219   12.2106    5.8599 B   0  0  0  0  0  0  0  0  0  0  0  0
    2.8219   13.1860    5.3456 H   0  0  0  0  0  0  0  0  0  0  0  0
    1.9763   10.0331    7.4037 B   0  0  0  0  0  0  0  0  0  0  0  0
    1.0857    9.5563    7.8899 H   0  0  0  0  0  0  0  0  0  0  0  0
    4.4096    9.7044    5.8901 B   0  0  0  0  0  0  0  0  0  0  0  0
    5.1358    9.0071    5.3987 H   0  0  0  0  0  0  0  0  0  0  0  0
    3.3038   10.7633    8.3167 B   0  0  0  0  0  0  0  0  0  0  0  0
    3.3017   10.7690    9.4368 H   0  0  0  0  0  0  0  0  0  0  0  0
    4.6150   11.4572    5.8464 B   0  0  0  0  0  0  0  0  0  0  0  0
    5.4828   11.9332    5.3206 H   0  0  0  0  0  0  0  0  0  0  0  0
    3.9556   12.1134    7.3569 B   0  0  0  0  0  0  0  0  0  0  0  0
    4.3925   13.0229    7.8409 H   0  0  0  0  0  0  0  0  0  0  0  0
    3.5920    9.2808    7.4006 B   0  0  0  0  0  0  0  0  0  0  0  0
    3.7786    8.2977    7.9044 H   0  0  0  0  0  0  0  0  0  0  0  0
    2.2134   11.7973    7.3839 B   0  0  0  0  0  0  0  0  0  0  0  0
    1.4854   12.4909    7.8774 H   0  0  0  0  0  0  0  0  0  0  0  0
    3.2996   10.7141    4.9282 B   0  0  0  0  0  0  0  0  0  0  0  0
    3.2718   10.6775    3.8091 H   0  0  0  0  0  0  0  0  0  0  0  0
    4.8081   10.5742    7.3829 B   0  0  0  0  0  0  0  0  0  0  0  0
    5.8037   10.4658    7.8847 H   0  0  0  0  0  0  0  0  0  0  0  0
  1  3  2  0  0  0  0
  2  4  2  0  0  0  0
  5  6  1  0  0  0  0
  7  1  1  0  0  0  0
  8  1  1  0  0  0  0
  9  2  1  0  0  0  0
 10  2  1  0  0  0  0
 11 12  1  0  0  0  0
 13  2  1  0  0  0  0
 14  9  4  0  0  0  0
 15 14  1  0  0  0  0
 16 13  4  0  0  0  0
 17 16  1  0  0  0  0
 18 19  1  0  0  0  0
 20  5  4  0  0  0  0
 21 20  1  0  0  0  0
 22 20  4  0  0  0  0
 23 22  1  0  0  0  0
 24 25  1  0  0  0  0
 26 14  4  0  0  0  0
 27 26  1  0  0  0  0
 28 16  4  0  0  0  0
 29 28  1  0  0  0  0
 30  9  4  0  0  0  0
 31 30  1  0  0  0  0
 32  8  4  0  0  0  0
 33 32  1  0  0  0  0
 34 26  4  0  0  0  0
 35 34  1  0  0  0  0
 36  1  1  0  0  0  0
 37 22  4  0  0  0  0
 38 37  1  0  0  0  0
 39 11  4  0  0  0  0
 40 39  1  0  0  0  0
 41 24  4  0  0  0  0
 42 41  1  0  0  0  0
 43 41  4  0  0  0  0
 44 43  1  0  0  0  0
 45 18  4  0  0  0  0
 46 45  1  0  0  0  0
 47 30  4  0  0  0  0
 48 47  1  0  0  0  0
 49 28  4  0  0  0  0
 50 49  1  0  0  0  0
 51  7  1  0  0  0  0
 52 51  1  0  0  0  0
 53  7  1  0  0  0  0
 54 53  1  0  0  0  0
 55 10  1  0  0  0  0
 56 55  1  0  0  0  0
 57 53  1  0  0  0  0
 58 57  1  0  0  0  0
 59 51  1  0  0  0  0
 60 59  1  0  0  0  0
 61 51  1  0  0  0  0
 62 61  1  0  0  0  0
 63 10  1  0  0  0  0
 64 63  1  0  0  0  0
 65  7  1  0  0  0  0
 66 65  1  0  0  0  0
 67  7  1  0  0  0  0
 68 67  1  0  0  0  0
 69 55  1  0  0  0  0
 70 69  1  0  0  0  0
  5  8  4  0  0  0  0
  7 10  1  0  0  0  0
 10 53  1  0  0  0  0
 10 67  1  0  0  0  0
 11 13  4  0  0  0  0
 18 36  4  0  0  0  0
 24 36  4  0  0  0  0
 32 37  4  0  0  0  0
 34 47  4  0  0  0  0
 39 49  4  0  0  0  0
 43 45  4  0  0  0  0
 51 65  1  0  0  0  0
 51 67  1  0  0  0  0
 53 63  1  0  0  0  0
 53 65  1  0  0  0  0
 55 59  1  0  0  0  0
 55 63  1  0  0  0  0
 55 67  1  0  0  0  0
 57 61  1  0  0  0  0
 57 63  1  0  0  0  0
 57 65  1  0  0  0  0
 57 69  1  0  0  0  0
 59 61  1  0  0  0  0
 59 67  1  0  0  0  0
 59 69  1  0  0  0  0
 61 65  1  0  0  0  0
 61 69  1  0  0  0  0
 63 69  1  0  0  0  0
M  END
$$$$
SUQMUM

From CSD data. Using bond type 'Any'. No disordered atoms. Largest molecule.
 60 75  0  0  0  0  0  0  0  0999 V2000
    1.5799    4.3330    1.2914 Pt  0  0  0  0  0  0  0  0  0  0  0  0
    0.7729    2.3360    2.0960 P   0  0  0  0  0  0  0  0  0  0  0  0
   -1.0306    2.1902    1.9363 C   0  0  0  0  0  0  0  0  0  0  0  0
   -1.7674    3.2326    1.3863 C   0  0  0  0  0  0  0  0  0  0  0  0
   -1.3310    4.0079    1.0832 H   0  0  0  0  0  0  0  0  0  0  0  0
   -3.1467    3.1339    1.2871 C   0  0  0  0  0  0  0  0  0  0  0  0
   -3.6412    3.8512    0.9354 H   0  0  0  0  0  0  0  0  0  0  0  0
   -3.7937    2.0006    1.6949 C   0  0  0  0  0  0  0  0  0  0  0  0
   -4.7265    1.9348    1.6070 H   0  0  0  0  0  0  0  0  0  0  0  0
   -3.0883    0.9661    2.2318 C   0  0  0  0  0  0  0  0  0  0  0  0
   -3.5401    0.1935    2.5199 H   0  0  0  0  0  0  0  0  0  0  0  0
   -1.6988    1.0398    2.3591 C   0  0  0  0  0  0  0  0  0  0  0  0
   -1.2186    0.3198    2.7276 H   0  0  0  0  0  0  0  0  0  0  0  0
    1.3926    0.8450    1.2628 C   0  0  0  0  0  0  0  0  0  0  0  0
    2.3508    0.7726    1.3993 H   0  0  0  0  0  0  0  0  0  0  0  0
    1.2054    0.9042    0.3124 H   0  0  0  0  0  0  0  0  0  0  0  0
    0.9545    0.0619    1.6295 H   0  0  0  0  0  0  0  0  0  0  0  0
    1.0997    1.8888    3.8258 C   0  0  0  0  0  0  0  0  0  0  0  0
    2.0500    1.9717    4.0072 H   0  0  0  0  0  0  0  0  0  0  0  0
    0.8186    0.9740    3.9829 H   0  0  0  0  0  0  0  0  0  0  0  0
    0.6061    2.4837    4.4132 H   0  0  0  0  0  0  0  0  0  0  0  0
    1.4657    5.4519    3.2976 P   0  0  0  0  0  0  0  0  0  0  0  0
    2.5663    4.8608    4.6283 C   0  0  0  0  0  0  0  0  0  0  0  0
    3.8461    4.4554    4.2822 C   0  0  0  0  0  0  0  0  0  0  0  0
    4.1100    4.4554    3.3805 H   0  0  0  0  0  0  0  0  0  0  0  0
    4.7401    4.0473    5.2681 C   0  0  0  0  0  0  0  0  0  0  0  0
    5.6114    3.7828    5.0305 H   0  0  0  0  0  0  0  0  0  0  0  0
    4.3511    4.0316    6.5833 C   0  0  0  0  0  0  0  0  0  0  0  0
    4.9516    3.7407    7.2455 H   0  0  0  0  0  0  0  0  0  0  0  0
    3.0896    4.4383    6.9369 C   0  0  0  0  0  0  0  0  0  0  0  0
    2.8288    4.4330    7.8405 H   0  0  0  0  0  0  0  0  0  0  0  0
    2.1970    4.8568    5.9622 C   0  0  0  0  0  0  0  0  0  0  0  0
    1.3356    5.1385    6.2091 H   0  0  0  0  0  0  0  0  0  0  0  0
    1.8660    7.2220    3.2851 C   0  0  0  0  0  0  0  0  0  0  0  0
    1.7592    7.5840    4.1793 H   0  0  0  0  0  0  0  0  0  0  0  0
    1.2721    7.6840    2.6752 H   0  0  0  0  0  0  0  0  0  0  0  0
    2.7848    7.3431    2.9951 H   0  0  0  0  0  0  0  0  0  0  0  0
   -0.2101    5.4596    3.9923 C   0  0  0  0  0  0  0  0  0  0  0  0
   -0.8248    5.8387    3.3468 H   0  0  0  0  0  0  0  0  0  0  0  0
   -0.2204    5.9914    4.8023 H   0  0  0  0  0  0  0  0  0  0  0  0
   -0.4782    4.5501    4.1999 H   0  0  0  0  0  0  0  0  0  0  0  0
    2.1924    4.4488   -2.1383 B   0  0  0  0  0  0  0  0  0  0  0  0
    3.8635    4.9266   -2.2580 B   0  0  0  0  0  0  0  0  0  0  0  0
    2.7574    6.0467   -1.5135 B   0  0  0  0  0  0  0  0  0  0  0  0
    1.3794    5.1846   -0.7240 B   0  0  0  0  0  0  0  0  0  0  0  0
    3.4256    3.2984   -1.4779 B   0  0  0  0  0  0  0  0  0  0  0  0
    4.5319    4.2198   -1.0402 O   0  0  0  0  0  0  0  0  0  0  0  0
    4.2279    5.6176   -0.5631 B   0  0  0  0  0  0  0  0  0  0  0  0
    2.6370    6.0151    0.2731 B   0  0  0  0  0  0  0  0  0  0  0  0
    1.7381    3.4221   -0.7446 B   0  0  0  0  0  0  0  0  0  0  0  0
    1.6488    4.2935   -2.9951 H   0  0  0  0  0  0  0  0  0  0  0  0
    4.4766    5.0516   -3.1410 H   0  0  0  0  0  0  0  0  0  0  0  0
    2.5768    7.0154   -2.0223 H   0  0  0  0  0  0  0  0  0  0  0  0
    0.3936    5.6426   -0.8886 H   0  0  0  0  0  0  0  0  0  0  0  0
    3.7535    2.4337   -1.9568 H   0  0  0  0  0  0  0  0  0  0  0  0
    5.1246    6.2823   -0.4714 H   0  0  0  0  0  0  0  0  0  0  0  0
    2.5880    6.9575    0.6941 H   0  0  0  0  0  0  0  0  0  0  0  0
    1.0186    2.5929   -0.9691 H   0  0  0  0  0  0  0  0  0  0  0  0
    2.7757    3.0497   -0.3480 H   0  0  0  0  0  0  0  0  0  0  0  0
    3.6266    5.4886    0.6941 H   0  0  0  0  0  0  0  0  0  0  0  0
  1  2  1  0  0  0  0
  2  3  1  0  0  0  0
  3  4  4  0  0  0  0
  4  5  1  0  0  0  0
  6  4  4  0  0  0  0
  7  6  1  0  0  0  0
  8  6  4  0  0  0  0
  9  8  1  0  0  0  0
 10  8  4  0  0  0  0
 11 10  1  0  0  0  0
 12  3  4  0  0  0  0
 13 12  1  0  0  0  0
 14  2  1  0  0  0  0
 15 14  1  0  0  0  0
 16 14  1  0  0  0  0
 17 14  1  0  0  0  0
 18  2  1  0  0  0  0
 19 18  1  0  0  0  0
 20 18  1  0  0  0  0
 21 18  1  0  0  0  0
 22  1  1  0  0  0  0
 23 22  1  0  0  0  0
 24 23  4  0  0  0  0
 25 24  1  0  0  0  0
 26 24  4  0  0  0  0
 27 26  1  0  0  0  0
 28 26  4  0  0  0  0
 29 28  1  0  0  0  0
 30 28  4  0  0  0  0
 31 30  1  0  0  0  0
 32 23  4  0  0  0  0
 33 32  1  0  0  0  0
 34 22  1  0  0  0  0
 35 34  1  0  0  0  0
 36 34  1  0  0  0  0
 37 34  1  0  0  0  0
 38 22  1  0  0  0  0
 39 38  1  0  0  0  0
 40 38  1  0  0  0  0
 41 38  1  0  0  0  0
 42 43  1  0  0  0  0
 43 44  1  0  0  0  0
 44 42  1  0  0  0  0
 45  1  1  0  0  0  0
 46 42  1  0  0  0  0
 47 43  1  0  0  0  0
 48 43  1  0  0  0  0
 49  1  1  0  0  0  0
 50  1  1  0  0  0  0
 51 42  1  0  0  0  0
 52 43  1  0  0  0  0
 53 44  1  0  0  0  0
 54 45  1  0  0  0  0
 55 46  1  0  0  0  0
 56 48  1  0  0  0  0
 57 49  1  0  0  0  0
 58 50  1  0  0  0  0
 59 46  1  0  0  0  0
 60 48  1  0  0  0  0
 10 12  4  0  0  0  0
 30 32  4  0  0  0  0
 42 45  1  0  0  0  0
 42 50  1  0  0  0  0
 43 46  1  0  0  0  0
 44 45  1  0  0  0  0
 44 48  1  0  0  0  0
 44 49  1  0  0  0  0
 45 49  1  0  0  0  0
 45 50  1  0  0  0  0
 46 47  1  0  0  0  0
 46 50  1  0  0  0  0
 47 48  1  0  0  0  0
 48 49  1  0  0  0  0
 49 60  1  0  0  0  0
 50 59  1  0  0  0  0
M  END
$$$$
SUSGOF

From CSD data. Using bond type 'Any'. No disordered atoms. Largest molecule.
119131  0  0  0  0  0  0  0  0999 V2000
    9.1374   10.2587   14.0440 Fe  0  0  0  0  0  0  0  0  0  0  0  0
    8.3469   10.5786   12.7794 H   0  0  0  0  0  0  0  0  0  0  0  0
    9.8209    9.8638   15.2747 H   0  0  0  0  0  0  0  0  0  0  0  0
   10.7924    9.2962   12.9967 P   0  0  0  0  0  0  0  0  0  0  0  0
    9.6799   12.3635   14.2841 P   0  0  0  0  0  0  0  0  0  0  0  0
    6.3618    9.7588   12.2266 O   0  0  0  0  0  0  0  0  0  0  0  0
    8.2855    8.9414   11.2031 O   0  0  0  0  0  0  0  0  0  0  0  0
    8.6549    9.0226   17.0986 O   0  0  0  0  0  0  0  0  0  0  0  0
    9.3200   11.2437   17.1371 O   0  0  0  0  0  0  0  0  0  0  0  0
    8.1228    8.5658   13.6742 N   0  0  0  0  0  0  0  0  0  0  0  0
    7.6785   10.6437   15.3566 N   0  0  0  0  0  0  0  0  0  0  0  0
    7.0577    8.3632   14.6802 C   0  0  0  0  0  0  0  0  0  0  0  0
    7.4100    7.8213   15.4305 H   0  0  0  0  0  0  0  0  0  0  0  0
    6.3051    7.8672   14.2702 H   0  0  0  0  0  0  0  0  0  0  0  0
    6.5606    9.6946   15.2059 C   0  0  0  0  0  0  0  0  0  0  0  0
    5.8917   10.0687   14.5795 H   0  0  0  0  0  0  0  0  0  0  0  0
    6.1203    9.5608   16.0823 H   0  0  0  0  0  0  0  0  0  0  0  0
    8.8912    7.3964   13.3892 C   0  0  0  0  0  0  0  0  0  0  0  0
    8.3674    6.1063   13.5100 C   0  0  0  0  0  0  0  0  0  0  0  0
    7.4717    5.9827   13.8014 H   0  0  0  0  0  0  0  0  0  0  0  0
    9.1537    5.0126   13.2051 C   0  0  0  0  0  0  0  0  0  0  0  0
    8.7901    4.1380   13.2859 H   0  0  0  0  0  0  0  0  0  0  0  0
   10.4635    5.1709   12.7831 C   0  0  0  0  0  0  0  0  0  0  0  0
   10.9915    4.4109   12.5672 H   0  0  0  0  0  0  0  0  0  0  0  0
   10.9995    6.4493   12.6772 C   0  0  0  0  0  0  0  0  0  0  0  0
   11.9047    6.5618   12.4108 H   0  0  0  0  0  0  0  0  0  0  0  0
   10.2209    7.5627   12.9585 C   0  0  0  0  0  0  0  0  0  0  0  0
   11.2769    9.7140   11.2894 C   0  0  0  0  0  0  0  0  0  0  0  0
   11.3191    8.7900   10.2355 C   0  0  0  0  0  0  0  0  0  0  0  0
   11.0811    7.8838   10.3936 H   0  0  0  0  0  0  0  0  0  0  0  0
   11.6989    9.1822    8.9842 C   0  0  0  0  0  0  0  0  0  0  0  0
   11.7277    8.5436    8.2813 H   0  0  0  0  0  0  0  0  0  0  0  0
   12.0379   10.4853    8.7308 C   0  0  0  0  0  0  0  0  0  0  0  0
   12.2946   10.7484    7.8542 H   0  0  0  0  0  0  0  0  0  0  0  0
   12.0055   11.4105    9.7425 C   0  0  0  0  0  0  0  0  0  0  0  0
   12.2499   12.3121    9.5716 H   0  0  0  0  0  0  0  0  0  0  0  0
   11.6170   11.0259   11.0131 C   0  0  0  0  0  0  0  0  0  0  0  0
   11.5835   11.6738   11.7072 H   0  0  0  0  0  0  0  0  0  0  0  0
   12.4235    9.0990   13.8218 C   0  0  0  0  0  0  0  0  0  0  0  0
   12.4319    8.5478   15.0979 C   0  0  0  0  0  0  0  0  0  0  0  0
   11.6158    8.2603   15.4907 H   0  0  0  0  0  0  0  0  0  0  0  0
   13.6146    8.4147   15.8006 C   0  0  0  0  0  0  0  0  0  0  0  0
   13.6135    8.0373   16.6727 H   0  0  0  0  0  0  0  0  0  0  0  0
   14.7997    8.8353   15.2215 C   0  0  0  0  0  0  0  0  0  0  0  0
   15.6135    8.7610   15.7070 H   0  0  0  0  0  0  0  0  0  0  0  0
   14.8086    9.3543   13.9637 C   0  0  0  0  0  0  0  0  0  0  0  0
   15.6302    9.6328   13.5765 H   0  0  0  0  0  0  0  0  0  0  0  0
   13.6258    9.4798   13.2392 C   0  0  0  0  0  0  0  0  0  0  0  0
   13.6405    9.8238   12.3538 H   0  0  0  0  0  0  0  0  0  0  0  0
    7.2704   12.0125   15.4932 C   0  0  0  0  0  0  0  0  0  0  0  0
    6.0553   12.3932   16.0422 C   0  0  0  0  0  0  0  0  0  0  0  0
    5.4493   11.7250   16.3403 H   0  0  0  0  0  0  0  0  0  0  0  0
    5.7119   13.7168   16.1634 C   0  0  0  0  0  0  0  0  0  0  0  0
    4.8731   13.9575   16.5388 H   0  0  0  0  0  0  0  0  0  0  0  0
    6.5892   14.7020   15.7374 C   0  0  0  0  0  0  0  0  0  0  0  0
    6.3550   15.6180   15.8229 H   0  0  0  0  0  0  0  0  0  0  0  0
    7.8058   14.3458   15.1875 C   0  0  0  0  0  0  0  0  0  0  0  0
    8.4067   15.0186   14.8904 H   0  0  0  0  0  0  0  0  0  0  0  0
    8.1525   13.0087   15.0684 C   0  0  0  0  0  0  0  0  0  0  0  0
   11.0735   12.9216   15.3447 C   0  0  0  0  0  0  0  0  0  0  0  0
   12.3382   12.4064   15.0838 C   0  0  0  0  0  0  0  0  0  0  0  0
   12.4585   11.7907   14.3708 H   0  0  0  0  0  0  0  0  0  0  0  0
   13.4176   12.7841   15.8513 C   0  0  0  0  0  0  0  0  0  0  0  0
   14.2748   12.4178   15.6687 H   0  0  0  0  0  0  0  0  0  0  0  0
   13.2658   13.6738   16.8648 C   0  0  0  0  0  0  0  0  0  0  0  0
   14.0201   13.9438   17.3762 H   0  0  0  0  0  0  0  0  0  0  0  0
   12.0195   14.1847   17.1549 C   0  0  0  0  0  0  0  0  0  0  0  0
   11.9120   14.7951   17.8742 H   0  0  0  0  0  0  0  0  0  0  0  0
   10.9232   13.8099   16.3948 C   0  0  0  0  0  0  0  0  0  0  0  0
   10.0651   14.1640   16.5962 H   0  0  0  0  0  0  0  0  0  0  0  0
    9.8494   13.4784   12.8263 C   0  0  0  0  0  0  0  0  0  0  0  0
   10.9517   14.2843   12.6197 C   0  0  0  0  0  0  0  0  0  0  0  0
   11.6353   14.3364   13.2759 H   0  0  0  0  0  0  0  0  0  0  0  0
   11.0524   15.0195   11.4427 C   0  0  0  0  0  0  0  0  0  0  0  0
   11.8223   15.5562   11.2931 H   0  0  0  0  0  0  0  0  0  0  0  0
   10.0695   14.9853   10.4990 C   0  0  0  0  0  0  0  0  0  0  0  0
   10.1513   15.4913    9.6995 H   0  0  0  0  0  0  0  0  0  0  0  0
    8.9548   14.2046   10.7211 C   0  0  0  0  0  0  0  0  0  0  0  0
    8.2540   14.1886   10.0785 H   0  0  0  0  0  0  0  0  0  0  0  0
    8.8485   13.4478   11.8680 C   0  0  0  0  0  0  0  0  0  0  0  0
    8.0840   12.8999   12.0027 H   0  0  0  0  0  0  0  0  0  0  0  0
    7.3270    9.2430   10.1732 C   0  0  0  0  0  0  0  0  0  0  0  0
    7.4821    8.2350    9.0631 C   0  0  0  0  0  0  0  0  0  0  0  0
    8.3455    8.3673    8.6195 H   0  0  0  0  0  0  0  0  0  0  0  0
    6.7587    8.3508    8.4127 H   0  0  0  0  0  0  0  0  0  0  0  0
    7.4428    7.3293    9.4373 H   0  0  0  0  0  0  0  0  0  0  0  0
    7.6567   10.6370    9.6360 C   0  0  0  0  0  0  0  0  0  0  0  0
    7.4736   11.3059   10.3298 H   0  0  0  0  0  0  0  0  0  0  0  0
    7.1043   10.8237    8.8492 H   0  0  0  0  0  0  0  0  0  0  0  0
    8.6039   10.6761    9.3880 H   0  0  0  0  0  0  0  0  0  0  0  0
    6.0066    9.1985   10.9461 C   0  0  0  0  0  0  0  0  0  0  0  0
    4.8686   10.0147   10.3447 C   0  0  0  0  0  0  0  0  0  0  0  0
    4.0680    9.9210   10.9021 H   0  0  0  0  0  0  0  0  0  0  0  0
    4.6754    9.6891    9.4398 H   0  0  0  0  0  0  0  0  0  0  0  0
    5.1290   10.9583   10.3027 H   0  0  0  0  0  0  0  0  0  0  0  0
    5.5142    7.7743   11.1783 C   0  0  0  0  0  0  0  0  0  0  0  0
    6.2537    7.2227   11.5086 H   0  0  0  0  0  0  0  0  0  0  0  0
    5.1801    7.4023   10.3354 H   0  0  0  0  0  0  0  0  0  0  0  0
    4.7916    7.7822   11.8407 H   0  0  0  0  0  0  0  0  0  0  0  0
    8.8788    9.4098   18.4775 C   0  0  0  0  0  0  0  0  0  0  0  0
    7.5219    9.7409   19.0902 C   0  0  0  0  0  0  0  0  0  0  0  0
    7.1323   10.5099   18.6245 H   0  0  0  0  0  0  0  0  0  0  0  0
    7.6358    9.9564   20.0392 H   0  0  0  0  0  0  0  0  0  0  0  0
    6.9258    8.9680   18.9999 H   0  0  0  0  0  0  0  0  0  0  0  0
    9.4849    8.2393   19.2242 C   0  0  0  0  0  0  0  0  0  0  0  0
    8.8290    7.5143   19.2817 H   0  0  0  0  0  0  0  0  0  0  0  0
    9.7388    8.5242   20.1264 H   0  0  0  0  0  0  0  0  0  0  0  0
   10.2800    7.9239   18.7451 H   0  0  0  0  0  0  0  0  0  0  0  0
    9.7930   10.6457   18.3695 C   0  0  0  0  0  0  0  0  0  0  0  0
    9.6678   11.6524   19.4795 C   0  0  0  0  0  0  0  0  0  0  0  0
   10.2644   12.4103   19.3023 H   0  0  0  0  0  0  0  0  0  0  0  0
    9.9158   11.2342   20.3302 H   0  0  0  0  0  0  0  0  0  0  0  0
    8.7424   11.9708   19.5291 H   0  0  0  0  0  0  0  0  0  0  0  0
   11.2605   10.2877   18.1832 C   0  0  0  0  0  0  0  0  0  0  0  0
   11.3429    9.5965   17.4924 H   0  0  0  0  0  0  0  0  0  0  0  0
   11.6242    9.9489   19.0279 H   0  0  0  0  0  0  0  0  0  0  0  0
   11.7596   11.0846   17.9085 H   0  0  0  0  0  0  0  0  0  0  0  0
    7.7443    9.4395   12.4284 B   0  0  0  0  0  0  0  0  0  0  0  0
    8.8376   10.2049   16.3133 B   0  0  0  0  0  0  0  0  0  0  0  0
  1  2  1  0  0  0  0
  2118  1  0  0  0  0
  3  1  1  0  0  0  0
  4  1  1  0  0  0  0
  5  1  1  0  0  0  0
  6 91  1  0  0  0  0
  7 82  1  0  0  0  0
  8100  1  0  0  0  0
  9109  1  0  0  0  0
 10  1  1  0  0  0  0
 11  1  1  0  0  0  0
 12 10  1  0  0  0  0
 13 12  1  0  0  0  0
 14 12  1  0  0  0  0
 15 11  1  0  0  0  0
 16 15  1  0  0  0  0
 17 15  1  0  0  0  0
 18 10  1  0  0  0  0
 19 18  4  0  0  0  0
 20 19  1  0  0  0  0
 21 19  4  0  0  0  0
 22 21  1  0  0  0  0
 23 21  4  0  0  0  0
 24 23  1  0  0  0  0
 25 23  4  0  0  0  0
 26 25  1  0  0  0  0
 27  4  1  0  0  0  0
 28  4  1  0  0  0  0
 29 28  4  0  0  0  0
 30 29  1  0  0  0  0
 31 29  4  0  0  0  0
 32 31  1  0  0  0  0
 33 31  4  0  0  0  0
 34 33  1  0  0  0  0
 35 33  4  0  0  0  0
 36 35  1  0  0  0  0
 37 28  4  0  0  0  0
 38 37  1  0  0  0  0
 39  4  1  0  0  0  0
 40 39  4  0  0  0  0
 41 40  1  0  0  0  0
 42 40  4  0  0  0  0
 43 42  1  0  0  0  0
 44 42  4  0  0  0  0
 45 44  1  0  0  0  0
 46 44  4  0  0  0  0
 47 46  1  0  0  0  0
 48 39  4  0  0  0  0
 49 48  1  0  0  0  0
 50 11  1  0  0  0  0
 51 50  4  0  0  0  0
 52 51  1  0  0  0  0
 53 51  4  0  0  0  0
 54 53  1  0  0  0  0
 55 53  4  0  0  0  0
 56 55  1  0  0  0  0
 57 55  4  0  0  0  0
 58 57  1  0  0  0  0
 59  5  1  0  0  0  0
 60  5  1  0  0  0  0
 61 60  4  0  0  0  0
 62 61  1  0  0  0  0
 63 61  4  0  0  0  0
 64 63  1  0  0  0  0
 65 63  4  0  0  0  0
 66 65  1  0  0  0  0
 67 65  4  0  0  0  0
 68 67  1  0  0  0  0
 69 60  4  0  0  0  0
 70 69  1  0  0  0  0
 71  5  1  0  0  0  0
 72 71  4  0  0  0  0
 73 72  1  0  0  0  0
 74 72  4  0  0  0  0
 75 74  1  0  0  0  0
 76 74  4  0  0  0  0
 77 76  1  0  0  0  0
 78 76  4  0  0  0  0
 79 78  1  0  0  0  0
 80 71  4  0  0  0  0
 81 80  1  0  0  0  0
 82 83  1  0  0  0  0
 83 84  1  0  0  0  0
 85 83  1  0  0  0  0
 86 83  1  0  0  0  0
 87 82  1  0  0  0  0
 88 87  1  0  0  0  0
 89 87  1  0  0  0  0
 90 87  1  0  0  0  0
 91 82  1  0  0  0  0
 92 91  1  0  0  0  0
 93 92  1  0  0  0  0
 94 92  1  0  0  0  0
 95 92  1  0  0  0  0
 96 91  1  0  0  0  0
 97 96  1  0  0  0  0
 98 96  1  0  0  0  0
 99 96  1  0  0  0  0
100101  1  0  0  0  0
101102  1  0  0  0  0
103101  1  0  0  0  0
104101  1  0  0  0  0
105100  1  0  0  0  0
106105  1  0  0  0  0
107105  1  0  0  0  0
108105  1  0  0  0  0
109100  1  0  0  0  0
110109  1  0  0  0  0
111110  1  0  0  0  0
112110  1  0  0  0  0
113110  1  0  0  0  0
114109  1  0  0  0  0
115114  1  0  0  0  0
116114  1  0  0  0  0
117114  1  0  0  0  0
118  6  1  0  0  0  0
119  3  1  0  0  0  0
  7118  1  0  0  0  0
  8119  1  0  0  0  0
  9119  1  0  0  0  0
 10118  1  0  0  0  0
 11119  1  0  0  0  0
 12 15  1  0  0  0  0
 18 27  4  0  0  0  0
 25 27  4  0  0  0  0
 35 37  4  0  0  0  0
 46 48  4  0  0  0  0
 50 59  4  0  0  0  0
 57 59  4  0  0  0  0
 67 69  4  0  0  0  0
 78 80  4  0  0  0  0
M  END
$$$$
SUTHAR

From CSD data. Using bond type 'Any'. No disordered atoms. Largest molecule.
214226  0  0  0  0  0  0  0  0999 V2000
    6.9170    4.8436    4.3455 B   0  0  0  0  0  0  0  0  0  0  0  0
    7.6301    3.6238    4.5235 O   0  0  0  0  0  0  0  0  0  0  0  0
    8.5093    4.4919    5.2089 B   0  0  0  0  0  0  0  0  0  0  0  0
    7.8347    5.7020    4.9846 O   0  0  0  0  0  0  0  0  0  0  0  0
    5.2353    5.1719    3.4234 Pt  0  3  0  0  0  0  0  0  0  0  0  0
    5.2753    3.2252    2.1708 P   0  0  0  0  0  0  0  0  0  0  0  0
    4.1936    3.7601    0.7584 C   0  0  0  0  0  0  0  0  0  0  0  0
    4.7980    4.1523    0.0641 H   0  0  0  0  0  0  0  0  0  0  0  0
    3.3150    4.9043    1.2746 C   0  0  0  0  0  0  0  0  0  0  0  0
    2.7057    4.5606    1.9760 H   0  0  0  0  0  0  0  0  0  0  0  0
    3.8902    5.5997    1.6859 H   0  0  0  0  0  0  0  0  0  0  0  0
    2.4862    5.5358    0.1495 C   0  0  0  0  0  0  0  0  0  0  0  0
    1.8956    6.2385    0.5234 H   0  0  0  0  0  0  0  0  0  0  0  0
    3.0874    5.9595   -0.5127 H   0  0  0  0  0  0  0  0  0  0  0  0
    1.6436    4.4668   -0.5341 C   0  0  0  0  0  0  0  0  0  0  0  0
    1.1433    4.8719   -1.2853 H   0  0  0  0  0  0  0  0  0  0  0  0
    0.9858    4.1037    0.1122 H   0  0  0  0  0  0  0  0  0  0  0  0
    2.5240    3.3250   -1.0646 C   0  0  0  0  0  0  0  0  0  0  0  0
    1.9522    2.6321   -1.4794 H   0  0  0  0  0  0  0  0  0  0  0  0
    3.1338    3.6752   -1.7624 H   0  0  0  0  0  0  0  0  0  0  0  0
    3.3469    2.6984    0.0605 C   0  0  0  0  0  0  0  0  0  0  0  0
    3.9367    1.9973   -0.3115 H   0  0  0  0  0  0  0  0  0  0  0  0
    2.7400    2.2722    0.7174 H   0  0  0  0  0  0  0  0  0  0  0  0
    4.4326    1.7875    2.9640 C   0  0  0  0  0  0  0  0  0  0  0  0
    4.1993    1.1280    2.2484 H   0  0  0  0  0  0  0  0  0  0  0  0
    3.1254    2.2431    3.6441 C   0  0  0  0  0  0  0  0  0  0  0  0
    3.3289    2.9272    4.3313 H   0  0  0  0  0  0  0  0  0  0  0  0
    2.5245    2.6523    2.9712 H   0  0  0  0  0  0  0  0  0  0  0  0
    2.4247    1.0472    4.2992 C   0  0  0  0  0  0  0  0  0  0  0  0
    1.5997    1.3544    4.7514 H   0  0  0  0  0  0  0  0  0  0  0  0
    2.1621    0.3962    3.5978 H   0  0  0  0  0  0  0  0  0  0  0  0
    3.3189    0.3598    5.3068 C   0  0  0  0  0  0  0  0  0  0  0  0
    2.8528   -0.4367    5.6700 H   0  0  0  0  0  0  0  0  0  0  0  0
    3.5003    0.9784    6.0581 H   0  0  0  0  0  0  0  0  0  0  0  0
    4.6266   -0.0716    4.6837 C   0  0  0  0  0  0  0  0  0  0  0  0
    4.4509   -0.7884    4.0251 H   0  0  0  0  0  0  0  0  0  0  0  0
    5.2145   -0.4447    5.3887 H   0  0  0  0  0  0  0  0  0  0  0  0
    5.3593    1.0896    3.9788 C   0  0  0  0  0  0  0  0  0  0  0  0
    6.1594    0.7399    3.5106 H   0  0  0  0  0  0  0  0  0  0  0  0
    5.6643    1.7466    4.6535 H   0  0  0  0  0  0  0  0  0  0  0  0
    6.8803    2.6272    1.4954 C   0  0  0  0  0  0  0  0  0  0  0  0
    7.3582    2.1752    2.2484 H   0  0  0  0  0  0  0  0  0  0  0  0
    6.6956    1.5784    0.3934 C   0  0  0  0  0  0  0  0  0  0  0  0
    6.1411    0.8329    0.7317 H   0  0  0  0  0  0  0  0  0  0  0  0
    6.2295    1.9852   -0.3792 H   0  0  0  0  0  0  0  0  0  0  0  0
    8.0641    1.0455   -0.0498 C   0  0  0  0  0  0  0  0  0  0  0  0
    8.4901    0.5701    0.7050 H   0  0  0  0  0  0  0  0  0  0  0  0
    7.9387    0.4003   -0.7886 H   0  0  0  0  0  0  0  0  0  0  0  0
    8.9730    2.1711   -0.5145 C   0  0  0  0  0  0  0  0  0  0  0  0
    8.5930    2.5916   -1.3245 H   0  0  0  0  0  0  0  0  0  0  0  0
    9.8627    1.8032   -0.7477 H   0  0  0  0  0  0  0  0  0  0  0  0
    9.1261    3.2159    0.5732 C   0  0  0  0  0  0  0  0  0  0  0  0
    9.5907    2.8140    1.3494 H   0  0  0  0  0  0  0  0  0  0  0  0
    9.6865    3.9582    0.2350 H   0  0  0  0  0  0  0  0  0  0  0  0
    7.7842    3.7657    1.0236 C   0  0  0  0  0  0  0  0  0  0  0  0
    7.3508    4.2453    0.2724 H   0  0  0  0  0  0  0  0  0  0  0  0
    7.9195    4.4110    1.7624 H   0  0  0  0  0  0  0  0  0  0  0  0
    4.7552    7.2060    4.4454 P   0  0  0  0  0  0  0  0  0  0  0  0
    5.4889    7.5747    6.0901 C   0  0  0  0  0  0  0  0  0  0  0  0
    6.4722    7.6576    5.9370 H   0  0  0  0  0  0  0  0  0  0  0  0
    5.3193    6.4459    7.1440 C   0  0  0  0  0  0  0  0  0  0  0  0
    4.3716    6.3841    7.4181 H   0  0  0  0  0  0  0  0  0  0  0  0
    5.5871    5.5795    6.7506 H   0  0  0  0  0  0  0  0  0  0  0  0
    6.1893    6.7516    8.3616 C   0  0  0  0  0  0  0  0  0  0  0  0
    6.0677    6.0404    9.0399 H   0  0  0  0  0  0  0  0  0  0  0  0
    7.1427    6.7560    8.0928 H   0  0  0  0  0  0  0  0  0  0  0  0
    5.8221    8.1177    8.9758 C   0  0  0  0  0  0  0  0  0  0  0  0
    4.9068    8.0741    9.3497 H   0  0  0  0  0  0  0  0  0  0  0  0
    6.4448    8.3247    9.7164 H   0  0  0  0  0  0  0  0  0  0  0  0
    5.8886    9.2231    7.9433 C   0  0  0  0  0  0  0  0  0  0  0  0
    6.8309    9.3557    7.6727 H   0  0  0  0  0  0  0  0  0  0  0  0
    5.5658   10.0673    8.3510 H   0  0  0  0  0  0  0  0  0  0  0  0
    5.0473    8.9175    6.6936 C   0  0  0  0  0  0  0  0  0  0  0  0
    5.1646    9.6388    6.0260 H   0  0  0  0  0  0  0  0  0  0  0  0
    4.0883    8.8746    6.9375 H   0  0  0  0  0  0  0  0  0  0  0  0
    5.2340    8.6033    3.3610 C   0  0  0  0  0  0  0  0  0  0  0  0
    4.7775    9.4204    3.7100 H   0  0  0  0  0  0  0  0  0  0  0  0
    6.7314    8.8912    3.3521 C   0  0  0  0  0  0  0  0  0  0  0  0
    7.2178    8.0943    3.0264 H   0  0  0  0  0  0  0  0  0  0  0  0
    7.0364    9.0808    4.2743 H   0  0  0  0  0  0  0  0  0  0  0  0
    7.0503   10.0875    2.4496 C   0  0  0  0  0  0  0  0  0  0  0  0
    6.6213   10.9002    2.8181 H   0  0  0  0  0  0  0  0  0  0  0  0
    8.0303   10.2371    2.4353 H   0  0  0  0  0  0  0  0  0  0  0  0
    6.5521    9.8530    1.0236 C   0  0  0  0  0  0  0  0  0  0  0  0
    7.0246    9.0768    0.6302 H   0  0  0  0  0  0  0  0  0  0  0  0
    6.7518   10.6495    0.4682 H   0  0  0  0  0  0  0  0  0  0  0  0
    5.0570    9.5943    1.0218 C   0  0  0  0  0  0  0  0  0  0  0  0
    4.7515    9.4204    0.0961 H   0  0  0  0  0  0  0  0  0  0  0  0
    4.5801   10.3948    1.3583 H   0  0  0  0  0  0  0  0  0  0  0  0
    4.7278    8.3733    1.9208 C   0  0  0  0  0  0  0  0  0  0  0  0
    3.7505    8.2277    1.9333 H   0  0  0  0  0  0  0  0  0  0  0  0
    5.1557    7.5606    1.5452 H   0  0  0  0  0  0  0  0  0  0  0  0
    2.9104    7.2048    4.2761 C   0  0  0  0  0  0  0  0  0  0  0  0
    2.7314    6.9218    3.3343 H   0  0  0  0  0  0  0  0  0  0  0  0
    2.1731    8.5350    4.4487 C   0  0  0  0  0  0  0  0  0  0  0  0
    2.5835    9.2304    3.8737 H   0  0  0  0  0  0  0  0  0  0  0  0
    2.2320    8.8382    5.3905 H   0  0  0  0  0  0  0  0  0  0  0  0
    0.6831    8.3207    4.0464 C   0  0  0  0  0  0  0  0  0  0  0  0
    0.1825    9.1698    4.1693 H   0  0  0  0  0  0  0  0  0  0  0  0
    0.6326    8.0700    3.0887 H   0  0  0  0  0  0  0  0  0  0  0  0
    0.0389    7.2250    4.8920 C   0  0  0  0  0  0  0  0  0  0  0  0
   -0.8976    7.0916    4.6001 H   0  0  0  0  0  0  0  0  0  0  0  0
    0.0241    7.5080    5.8409 H   0  0  0  0  0  0  0  0  0  0  0  0
    0.7892    5.9191    4.7745 C   0  0  0  0  0  0  0  0  0  0  0  0
    0.7273    5.5835    3.8453 H   0  0  0  0  0  0  0  0  0  0  0  0
    0.3754    5.2479    5.3727 H   0  0  0  0  0  0  0  0  0  0  0  0
    2.2819    6.1091    5.1608 C   0  0  0  0  0  0  0  0  0  0  0  0
    2.7713    5.2601    5.0362 H   0  0  0  0  0  0  0  0  0  0  0  0
    2.3502    6.3719    6.1132 H   0  0  0  0  0  0  0  0  0  0  0  0
   10.1345    4.0663    6.2060 Pt  0  3  0  0  0  0  0  0  0  0  0  0
    9.3101    2.0523    6.9749 P   0  0  0  0  0  0  0  0  0  0  0  0
   10.7535    1.4337    7.9540 C   0  0  0  0  0  0  0  0  0  0  0  0
   11.3329    0.9259    7.3167 H   0  0  0  0  0  0  0  0  0  0  0  0
   11.5751    2.6337    8.4275 C   0  0  0  0  0  0  0  0  0  0  0  0
   11.7802    3.2183    7.6549 H   0  0  0  0  0  0  0  0  0  0  0  0
   11.0458    3.1617    9.0773 H   0  0  0  0  0  0  0  0  0  0  0  0
   12.8915    2.1711    9.0880 C   0  0  0  0  0  0  0  0  0  0  0  0
   13.4597    1.7183    8.4151 H   0  0  0  0  0  0  0  0  0  0  0  0
   13.3874    2.9555    9.4280 H   0  0  0  0  0  0  0  0  0  0  0  0
   12.5921    1.2089   10.2433 C   0  0  0  0  0  0  0  0  0  0  0  0
   13.4458    0.8814   10.6279 H   0  0  0  0  0  0  0  0  0  0  0  0
   12.1013    1.6900   10.9536 H   0  0  0  0  0  0  0  0  0  0  0  0
   11.7697    0.0243    9.7769 C   0  0  0  0  0  0  0  0  0  0  0  0
   11.5599   -0.5579   10.5513 H   0  0  0  0  0  0  0  0  0  0  0  0
   12.2931   -0.5054    9.1271 H   0  0  0  0  0  0  0  0  0  0  0  0
   10.4597    0.4888    9.1200 C   0  0  0  0  0  0  0  0  0  0  0  0
    9.9556   -0.2992    8.7907 H   0  0  0  0  0  0  0  0  0  0  0  0
    9.8988    0.9542    9.7894 H   0  0  0  0  0  0  0  0  0  0  0  0
    8.9670    0.8159    5.6575 C   0  0  0  0  0  0  0  0  0  0  0  0
    8.1408    1.1240    5.1858 H   0  0  0  0  0  0  0  0  0  0  0  0
   10.0815    0.7977    4.6179 C   0  0  0  0  0  0  0  0  0  0  0  0
   10.9292    0.5094    5.0416 H   0  0  0  0  0  0  0  0  0  0  0  0
   10.2118    1.7102    4.2529 H   0  0  0  0  0  0  0  0  0  0  0  0
    9.7208   -0.1771    3.4643 C   0  0  0  0  0  0  0  0  0  0  0  0
    8.9258    0.1658    2.9836 H   0  0  0  0  0  0  0  0  0  0  0  0
   10.4736   -0.2143    2.8216 H   0  0  0  0  0  0  0  0  0  0  0  0
    9.4298   -1.5861    3.9877 C   0  0  0  0  0  0  0  0  0  0  0  0
    9.1606   -2.1711    3.2346 H   0  0  0  0  0  0  0  0  0  0  0  0
   10.2485   -1.9649    4.3953 H   0  0  0  0  0  0  0  0  0  0  0  0
    8.3255   -1.5465    5.0166 C   0  0  0  0  0  0  0  0  0  0  0  0
    8.1759   -2.4582    5.3709 H   0  0  0  0  0  0  0  0  0  0  0  0
    7.4867   -1.2412    4.5858 H   0  0  0  0  0  0  0  0  0  0  0  0
    8.6749   -0.6008    6.1738 C   0  0  0  0  0  0  0  0  0  0  0  0
    9.4700   -0.9461    6.6544 H   0  0  0  0  0  0  0  0  0  0  0  0
    7.9197   -0.5701    6.8129 H   0  0  0  0  0  0  0  0  0  0  0  0
    7.8678    2.0454    8.1249 C   0  0  0  0  0  0  0  0  0  0  0  0
    7.9156    1.2008    8.6572 H   0  0  0  0  0  0  0  0  0  0  0  0
    7.9367    3.2163    9.1147 C   0  0  0  0  0  0  0  0  0  0  0  0
    7.8874    4.0714    8.6198 H   0  0  0  0  0  0  0  0  0  0  0  0
    8.8011    3.1900    9.5989 H   0  0  0  0  0  0  0  0  0  0  0  0
    6.7813    3.1395   10.1241 C   0  0  0  0  0  0  0  0  0  0  0  0
    6.8911    2.3288   10.6830 H   0  0  0  0  0  0  0  0  0  0  0  0
    6.8189    3.9299   10.7204 H   0  0  0  0  0  0  0  0  0  0  0  0
    5.4272    3.0946    9.4351 C   0  0  0  0  0  0  0  0  0  0  0  0
    4.7171    2.9636   10.1134 H   0  0  0  0  0  0  0  0  0  0  0  0
    5.2583    3.9582    8.9829 H   0  0  0  0  0  0  0  0  0  0  0  0
    5.3641    1.9662    8.4115 C   0  0  0  0  0  0  0  0  0  0  0  0
    4.4982    2.0094    7.9308 H   0  0  0  0  0  0  0  0  0  0  0  0
    5.4077    1.0957    8.8815 H   0  0  0  0  0  0  0  0  0  0  0  0
    6.5133    2.0531    7.3932 C   0  0  0  0  0  0  0  0  0  0  0  0
    6.4273    2.8827    6.8627 H   0  0  0  0  0  0  0  0  0  0  0  0
    6.4681    1.2857    6.7719 H   0  0  0  0  0  0  0  0  0  0  0  0
   11.3282    5.9717    5.5728 P   0  0  0  0  0  0  0  0  0  0  0  0
   10.7918    6.8494    4.0411 C   0  0  0  0  0  0  0  0  0  0  0  0
    9.8601    7.1684    4.2031 H   0  0  0  0  0  0  0  0  0  0  0  0
   10.7346    5.9122    2.8234 C   0  0  0  0  0  0  0  0  0  0  0  0
   10.1568    5.1347    3.0299 H   0  0  0  0  0  0  0  0  0  0  0  0
   11.6436    5.5754    2.6205 H   0  0  0  0  0  0  0  0  0  0  0  0
   10.1777    6.6610    1.6004 C   0  0  0  0  0  0  0  0  0  0  0  0
   10.1906    6.0606    0.8118 H   0  0  0  0  0  0  0  0  0  0  0  0
    9.2385    6.9218    1.7713 H   0  0  0  0  0  0  0  0  0  0  0  0
   11.0094    7.9079    1.3067 C   0  0  0  0  0  0  0  0  0  0  0  0
   11.9280    7.6374    1.0557 H   0  0  0  0  0  0  0  0  0  0  0  0
   10.6133    8.3935    0.5412 H   0  0  0  0  0  0  0  0  0  0  0  0
   11.0705    8.8317    2.5048 C   0  0  0  0  0  0  0  0  0  0  0  0
   10.1633    9.1698    2.7130 H   0  0  0  0  0  0  0  0  0  0  0  0
   11.6490    9.6104    2.2965 H   0  0  0  0  0  0  0  0  0  0  0  0
   11.6330    8.0834    3.7189 C   0  0  0  0  0  0  0  0  0  0  0  0
   11.6439    8.6886    4.5022 H   0  0  0  0  0  0  0  0  0  0  0  0
   12.5669    7.8072    3.5319 H   0  0  0  0  0  0  0  0  0  0  0  0
   11.2597    7.2028    6.9535 C   0  0  0  0  0  0  0  0  0  0  0  0
   11.9954    7.8679    6.8235 H   0  0  0  0  0  0  0  0  0  0  0  0
    9.9187    7.9504    6.9553 C   0  0  0  0  0  0  0  0  0  0  0  0
    9.1733    7.3018    7.0122 H   0  0  0  0  0  0  0  0  0  0  0  0
    9.8201    8.4582    6.1115 H   0  0  0  0  0  0  0  0  0  0  0  0
    9.8596    8.9191    8.1587 C   0  0  0  0  0  0  0  0  0  0  0  0
   10.5512    9.6185    8.0501 H   0  0  0  0  0  0  0  0  0  0  0  0
    8.9746    9.3638    8.1765 H   0  0  0  0  0  0  0  0  0  0  0  0
   10.0815    8.1913    9.4796 C   0  0  0  0  0  0  0  0  0  0  0  0
   10.0902    8.8463   10.2202 H   0  0  0  0  0  0  0  0  0  0  0  0
    9.3390    7.5566    9.6363 H   0  0  0  0  0  0  0  0  0  0  0  0
   11.3964    7.4312    9.4600 C   0  0  0  0  0  0  0  0  0  0  0  0
   11.4878    6.9177   10.3021 H   0  0  0  0  0  0  0  0  0  0  0  0
   12.1446    8.0781    9.4155 H   0  0  0  0  0  0  0  0  0  0  0  0
   11.4854    6.4807    8.2798 C   0  0  0  0  0  0  0  0  0  0  0  0
   10.8058    5.7695    8.3830 H   0  0  0  0  0  0  0  0  0  0  0  0
   12.3786    6.0525    8.2709 H   0  0  0  0  0  0  0  0  0  0  0  0
   13.0914    5.5593    5.1697 C   0  0  0  0  0  0  0  0  0  0  0  0
   13.1572    5.5512    4.1728 H   0  0  0  0  0  0  0  0  0  0  0  0
   13.5099    4.1684    5.6468 C   0  0  0  0  0  0  0  0  0  0  0  0
   13.5041    4.1442    6.6366 H   0  0  0  0  0  0  0  0  0  0  0  0
   12.8588    3.5013    5.3210 H   0  0  0  0  0  0  0  0  0  0  0  0
   14.9079    3.8167    5.1359 C   0  0  0  0  0  0  0  0  0  0  0  0
   15.1791    2.9353    5.5008 H   0  0  0  0  0  0  0  0  0  0  0  0
   14.8907    3.7439    4.1497 H   0  0  0  0  0  0  0  0  0  0  0  0
   15.9168    4.8558    5.5454 C   0  0  0  0  0  0  0  0  0  0  0  0
   16.0405    4.8113    6.5262 H   0  0  0  0  0  0  0  0  0  0  0  0
   16.7854    4.6415    5.1217 H   0  0  0  0  0  0  0  0  0  0  0  0
   15.5297    6.2587    5.1751 C   0  0  0  0  0  0  0  0  0  0  0  0
   15.5669    6.3558    4.1906 H   0  0  0  0  0  0  0  0  0  0  0  0
   16.1837    6.8894    5.5667 H   0  0  0  0  0  0  0  0  0  0  0  0
   14.1094    6.6307    5.6682 C   0  0  0  0  0  0  0  0  0  0  0  0
   13.8554    7.5242    5.3193 H   0  0  0  0  0  0  0  0  0  0  0  0
   14.0984    6.6711    6.6562 H   0  0  0  0  0  0  0  0  0  0  0  0
  1  2  1  0  0  0  0
  2  3  1  0  0  0  0
  3  4  1  0  0  0  0
  4  1  1  0  0  0  0
  5  1  1  0  0  0  0
  6  5  1  0  0  0  0
  7  6  1  0  0  0  0
  8  7  1  0  0  0  0
  9  7  1  0  0  0  0
 10  9  1  0  0  0  0
 11  9  1  0  0  0  0
 12  9  1  0  0  0  0
 13 12  1  0  0  0  0
 14 12  1  0  0  0  0
 15 12  1  0  0  0  0
 16 15  1  0  0  0  0
 17 15  1  0  0  0  0
 18 15  1  0  0  0  0
 19 18  1  0  0  0  0
 20 18  1  0  0  0  0
 21  7  1  0  0  0  0
 22 21  1  0  0  0  0
 23 21  1  0  0  0  0
 24  6  1  0  0  0  0
 25 24  1  0  0  0  0
 26 24  1  0  0  0  0
 27 26  1  0  0  0  0
 28 26  1  0  0  0  0
 29 26  1  0  0  0  0
 30 29  1  0  0  0  0
 31 29  1  0  0  0  0
 32 29  1  0  0  0  0
 33 32  1  0  0  0  0
 34 32  1  0  0  0  0
 35 32  1  0  0  0  0
 36 35  1  0  0  0  0
 37 35  1  0  0  0  0
 38 24  1  0  0  0  0
 39 38  1  0  0  0  0
 40 38  1  0  0  0  0
 41  6  1  0  0  0  0
 42 41  1  0  0  0  0
 43 41  1  0  0  0  0
 44 43  1  0  0  0  0
 45 43  1  0  0  0  0
 46 43  1  0  0  0  0
 47 46  1  0  0  0  0
 48 46  1  0  0  0  0
 49 46  1  0  0  0  0
 50 49  1  0  0  0  0
 51 49  1  0  0  0  0
 52 49  1  0  0  0  0
 53 52  1  0  0  0  0
 54 52  1  0  0  0  0
 55 41  1  0  0  0  0
 56 55  1  0  0  0  0
 57 55  1  0  0  0  0
 58  5  1  0  0  0  0
 59 58  1  0  0  0  0
 60 59  1  0  0  0  0
 61 59  1  0  0  0  0
 62 61  1  0  0  0  0
 63 61  1  0  0  0  0
 64 61  1  0  0  0  0
 65 64  1  0  0  0  0
 66 64  1  0  0  0  0
 67 64  1  0  0  0  0
 68 67  1  0  0  0  0
 69 67  1  0  0  0  0
 70 67  1  0  0  0  0
 71 70  1  0  0  0  0
 72 70  1  0  0  0  0
 73 59  1  0  0  0  0
 74 73  1  0  0  0  0
 75 73  1  0  0  0  0
 76 58  1  0  0  0  0
 77 76  1  0  0  0  0
 78 76  1  0  0  0  0
 79 78  1  0  0  0  0
 80 78  1  0  0  0  0
 81 78  1  0  0  0  0
 82 81  1  0  0  0  0
 83 81  1  0  0  0  0
 84 81  1  0  0  0  0
 85 84  1  0  0  0  0
 86 84  1  0  0  0  0
 87 84  1  0  0  0  0
 88 87  1  0  0  0  0
 89 87  1  0  0  0  0
 90 76  1  0  0  0  0
 91 90  1  0  0  0  0
 92 90  1  0  0  0  0
 93 58  1  0  0  0  0
 94 93  1  0  0  0  0
 95 93  1  0  0  0  0
 96 95  1  0  0  0  0
 97 95  1  0  0  0  0
 98 95  1  0  0  0  0
 99 98  1  0  0  0  0
100 98  1  0  0  0  0
101 98  1  0  0  0  0
102101  1  0  0  0  0
103101  1  0  0  0  0
104101  1  0  0  0  0
105104  1  0  0  0  0
106104  1  0  0  0  0
107 93  1  0  0  0  0
108107  1  0  0  0  0
109107  1  0  0  0  0
110  3  1  0  0  0  0
111110  1  0  0  0  0
112111  1  0  0  0  0
113112  1  0  0  0  0
114112  1  0  0  0  0
115114  1  0  0  0  0
116114  1  0  0  0  0
117114  1  0  0  0  0
118117  1  0  0  0  0
119117  1  0  0  0  0
120117  1  0  0  0  0
121120  1  0  0  0  0
122120  1  0  0  0  0
123120  1  0  0  0  0
124123  1  0  0  0  0
125123  1  0  0  0  0
126112  1  0  0  0  0
127126  1  0  0  0  0
128126  1  0  0  0  0
129111  1  0  0  0  0
130129  1  0  0  0  0
131129  1  0  0  0  0
132131  1  0  0  0  0
133131  1  0  0  0  0
134131  1  0  0  0  0
135134  1  0  0  0  0
136134  1  0  0  0  0
137134  1  0  0  0  0
138137  1  0  0  0  0
139137  1  0  0  0  0
140137  1  0  0  0  0
141140  1  0  0  0  0
142140  1  0  0  0  0
143129  1  0  0  0  0
144143  1  0  0  0  0
145143  1  0  0  0  0
146111  1  0  0  0  0
147146  1  0  0  0  0
148146  1  0  0  0  0
149148  1  0  0  0  0
150148  1  0  0  0  0
151148  1  0  0  0  0
152151  1  0  0  0  0
153151  1  0  0  0  0
154151  1  0  0  0  0
155154  1  0  0  0  0
156154  1  0  0  0  0
157154  1  0  0  0  0
158157  1  0  0  0  0
159157  1  0  0  0  0
160146  1  0  0  0  0
161160  1  0  0  0  0
162160  1  0  0  0  0
163110  1  0  0  0  0
164163  1  0  0  0  0
165164  1  0  0  0  0
166164  1  0  0  0  0
167166  1  0  0  0  0
168166  1  0  0  0  0
169166  1  0  0  0  0
170169  1  0  0  0  0
171169  1  0  0  0  0
172169  1  0  0  0  0
173172  1  0  0  0  0
174172  1  0  0  0  0
175172  1  0  0  0  0
176175  1  0  0  0  0
177175  1  0  0  0  0
178164  1  0  0  0  0
179178  1  0  0  0  0
180178  1  0  0  0  0
181163  1  0  0  0  0
182181  1  0  0  0  0
183181  1  0  0  0  0
184183  1  0  0  0  0
185183  1  0  0  0  0
186183  1  0  0  0  0
187186  1  0  0  0  0
188186  1  0  0  0  0
189186  1  0  0  0  0
190189  1  0  0  0  0
191189  1  0  0  0  0
192189  1  0  0  0  0
193192  1  0  0  0  0
194192  1  0  0  0  0
195181  1  0  0  0  0
196195  1  0  0  0  0
197195  1  0  0  0  0
198163  1  0  0  0  0
199198  1  0  0  0  0
200198  1  0  0  0  0
201200  1  0  0  0  0
202200  1  0  0  0  0
203200  1  0  0  0  0
204203  1  0  0  0  0
205203  1  0  0  0  0
206203  1  0  0  0  0
207206  1  0  0  0  0
208206  1  0  0  0  0
209206  1  0  0  0  0
210209  1  0  0  0  0
211209  1  0  0  0  0
212198  1  0  0  0  0
213212  1  0  0  0  0
214212  1  0  0  0  0
 18 21  1  0  0  0  0
 35 38  1  0  0  0  0
 52 55  1  0  0  0  0
 70 73  1  0  0  0  0
 87 90  1  0  0  0  0
104107  1  0  0  0  0
123126  1  0  0  0  0
140143  1  0  0  0  0
157160  1  0  0  0  0
175178  1  0  0  0  0
192195  1  0  0  0  0
209212  1  0  0  0  0
M  CHG  2   5   1 110   1
M  END
$$$$
SUWJUR

From CSD data. Using bond type 'Any'. No disordered atoms. Largest molecule.
112118  0  0  0  0  0  0  0  0999 V2000
    7.0398    3.8694    5.6391 Ni  0  3  0  0  0  0  0  0  0  0  0  0
    7.2427    2.5201    7.4075 P   0  0  0  0  0  0  0  0  0  0  0  0
    6.6255    5.7382    4.4822 P   0  0  0  0  0  0  0  0  0  0  0  0
    8.6659   -0.6795    4.0394 F   0  0  0  0  0  0  0  0  0  0  0  0
    9.9106   -2.6048    5.3841 F   0  0  0  0  0  0  0  0  0  0  0  0
   12.5615   -3.0902    4.9629 F   0  0  0  0  0  0  0  0  0  0  0  0
   13.9770   -1.4365    3.3156 F   0  0  0  0  0  0  0  0  0  0  0  0
   12.7932    0.5659    2.0678 F   0  0  0  0  0  0  0  0  0  0  0  0
    9.7129   -1.6413    1.1799 F   0  0  0  0  0  0  0  0  0  0  0  0
    6.5142    1.8127   -1.4835 F   0  0  0  0  0  0  0  0  0  0  0  0
    8.0316    2.7354    0.4925 F   0  0  0  0  0  0  0  0  0  0  0  0
    6.5268   -0.8277   -2.1161 F   0  0  0  0  0  0  0  0  0  0  0  0
    8.1625   -2.5257   -0.7389 F   0  0  0  0  0  0  0  0  0  0  0  0
   11.2826    2.9917    4.0006 F   0  0  0  0  0  0  0  0  0  0  0  0
   12.8067    5.0759    3.3941 F   0  0  0  0  0  0  0  0  0  0  0  0
   13.4032    5.6461    0.7906 F   0  0  0  0  0  0  0  0  0  0  0  0
   12.2892    4.1579   -1.1888 F   0  0  0  0  0  0  0  0  0  0  0  0
   10.6906    2.1249   -0.6234 F   0  0  0  0  0  0  0  0  0  0  0  0
    7.0300    2.5054    4.2063 O   0  0  0  0  0  0  0  0  0  0  0  0
    8.9430    1.9982    3.2213 O   0  0  0  0  0  0  0  0  0  0  0  0
    6.5466    6.5258    6.9536 N   0  0  0  0  0  0  0  0  0  0  0  0
    6.6503    4.8346    8.4512 N   0  0  0  0  0  0  0  0  0  0  0  0
    8.9968    1.9791    7.7713 C   0  0  0  0  0  0  0  0  0  0  0  0
    9.1247    1.0943    9.0201 C   0  0  0  0  0  0  0  0  0  0  0  0
   10.0535    0.9696    9.2288 H   0  0  0  0  0  0  0  0  0  0  0  0
    8.7181    0.2415    8.8518 H   0  0  0  0  0  0  0  0  0  0  0  0
    8.6847    1.5191    9.7600 H   0  0  0  0  0  0  0  0  0  0  0  0
    9.5832    1.2414    6.5685 C   0  0  0  0  0  0  0  0  0  0  0  0
   10.5269    1.1189    6.6963 H   0  0  0  0  0  0  0  0  0  0  0  0
    9.4326    1.7571    5.7744 H   0  0  0  0  0  0  0  0  0  0  0  0
    9.1572    0.3850    6.4804 H   0  0  0  0  0  0  0  0  0  0  0  0
    9.7869    3.2761    7.9869 C   0  0  0  0  0  0  0  0  0  0  0  0
    9.7340    3.8188    7.1966 H   0  0  0  0  0  0  0  0  0  0  0  0
   10.7043    3.0651    8.1699 H   0  0  0  0  0  0  0  0  0  0  0  0
    9.4158    3.7570    8.7285 H   0  0  0  0  0  0  0  0  0  0  0  0
    5.9842    1.1253    7.4081 C   0  0  0  0  0  0  0  0  0  0  0  0
    6.3747    0.0058    6.4300 C   0  0  0  0  0  0  0  0  0  0  0  0
    5.6334   -0.5927    6.3159 H   0  0  0  0  0  0  0  0  0  0  0  0
    7.1242   -0.4784    6.7820 H   0  0  0  0  0  0  0  0  0  0  0  0
    6.6104    0.3897    5.5825 H   0  0  0  0  0  0  0  0  0  0  0  0
    5.7141    0.4844    8.7823 C   0  0  0  0  0  0  0  0  0  0  0  0
    6.5157    0.0665    9.1054 H   0  0  0  0  0  0  0  0  0  0  0  0
    5.0211   -0.1750    8.6976 H   0  0  0  0  0  0  0  0  0  0  0  0
    5.4341    1.1621    9.4036 H   0  0  0  0  0  0  0  0  0  0  0  0
    4.6931    1.7968    6.8920 C   0  0  0  0  0  0  0  0  0  0  0  0
    3.9852    1.1493    6.8608 H   0  0  0  0  0  0  0  0  0  0  0  0
    4.8459    2.1480    6.0109 H   0  0  0  0  0  0  0  0  0  0  0  0
    4.4450    2.5120    7.4845 H   0  0  0  0  0  0  0  0  0  0  0  0
    6.7695    3.4851    8.9399 C   0  0  0  0  0  0  0  0  0  0  0  0
    5.9289    3.1701    9.3076 H   0  0  0  0  0  0  0  0  0  0  0  0
    7.4562    3.4186    9.6229 H   0  0  0  0  0  0  0  0  0  0  0  0
    6.3323    5.9977    9.1418 C   0  0  0  0  0  0  0  0  0  0  0  0
    6.0937    6.2291   10.4916 C   0  0  0  0  0  0  0  0  0  0  0  0
    6.1414    5.5363   11.1102 H   0  0  0  0  0  0  0  0  0  0  0  0
    5.7806    7.5233   10.8943 C   0  0  0  0  0  0  0  0  0  0  0  0
    5.6272    7.6983   11.7956 H   0  0  0  0  0  0  0  0  0  0  0  0
    5.6922    8.5532    9.9749 C   0  0  0  0  0  0  0  0  0  0  0  0
    5.4693    9.4076   10.2672 H   0  0  0  0  0  0  0  0  0  0  0  0
    5.9328    8.3331    8.6164 C   0  0  0  0  0  0  0  0  0  0  0  0
    5.8748    9.0296    8.0020 H   0  0  0  0  0  0  0  0  0  0  0  0
    6.2613    7.0522    8.2059 C   0  0  0  0  0  0  0  0  0  0  0  0
    6.6180    7.1804    5.6737 C   0  0  0  0  0  0  0  0  0  0  0  0
    7.4276    7.7076    5.5928 H   0  0  0  0  0  0  0  0  0  0  0  0
    5.8479    7.7531    5.5277 H   0  0  0  0  0  0  0  0  0  0  0  0
    7.9482    6.2360    3.2560 C   0  0  0  0  0  0  0  0  0  0  0  0
    9.2627    5.9890    3.9893 C   0  0  0  0  0  0  0  0  0  0  0  0
    9.9973    6.2212    3.4167 H   0  0  0  0  0  0  0  0  0  0  0  0
    9.3255    5.0614    4.2289 H   0  0  0  0  0  0  0  0  0  0  0  0
    9.2928    6.5280    4.7840 H   0  0  0  0  0  0  0  0  0  0  0  0
    7.8747    7.7165    2.8094 C   0  0  0  0  0  0  0  0  0  0  0  0
    8.6329    7.9235    2.2618 H   0  0  0  0  0  0  0  0  0  0  0  0
    7.8753    8.2840    3.5846 H   0  0  0  0  0  0  0  0  0  0  0  0
    7.0681    7.8593    2.3063 H   0  0  0  0  0  0  0  0  0  0  0  0
    4.8827    5.7520    3.8084 C   0  0  0  0  0  0  0  0  0  0  0  0
    3.9452    5.6740    5.0387 C   0  0  0  0  0  0  0  0  0  0  0  0
    4.1426    4.8806    5.5414 H   0  0  0  0  0  0  0  0  0  0  0  0
    3.0319    5.6471    4.7429 H   0  0  0  0  0  0  0  0  0  0  0  0
    4.0794    6.4452    5.5928 H   0  0  0  0  0  0  0  0  0  0  0  0
    4.5505    7.0146    2.9914 C   0  0  0  0  0  0  0  0  0  0  0  0
    3.6061    7.0507    2.8272 H   0  0  0  0  0  0  0  0  0  0  0  0
    5.0186    6.9866    2.1556 H   0  0  0  0  0  0  0  0  0  0  0  0
    4.8198    7.7940    3.4818 H   0  0  0  0  0  0  0  0  0  0  0  0
    7.6792    1.8651    3.3968 C   0  0  0  0  0  0  0  0  0  0  0  0
    7.2290    1.2414    2.8752 H   0  0  0  0  0  0  0  0  0  0  0  0
   10.6660    0.0978    3.0216 C   0  0  0  0  0  0  0  0  0  0  0  0
   10.0035   -0.7839    3.8779 C   0  0  0  0  0  0  0  0  0  0  0  0
   10.6121   -1.8198    4.5455 C   0  0  0  0  0  0  0  0  0  0  0  0
   11.9526   -2.0627    4.3426 C   0  0  0  0  0  0  0  0  0  0  0  0
   12.6623   -1.2317    3.5048 C   0  0  0  0  0  0  0  0  0  0  0  0
   12.0197   -0.1801    2.8841 C   0  0  0  0  0  0  0  0  0  0  0  0
    8.9391    0.6099    0.9835 C   0  0  0  0  0  0  0  0  0  0  0  0
    8.9243   -0.7246    0.5905 C   0  0  0  0  0  0  0  0  0  0  0  0
    8.1221   -1.2221   -0.4236 C   0  0  0  0  0  0  0  0  0  0  0  0
    7.3075   -0.3687   -1.1261 C   0  0  0  0  0  0  0  0  0  0  0  0
    7.2978    0.9655   -0.7995 C   0  0  0  0  0  0  0  0  0  0  0  0
    8.0926    1.4155    0.2258 C   0  0  0  0  0  0  0  0  0  0  0  0
   10.8508    2.4696    1.7231 C   0  0  0  0  0  0  0  0  0  0  0  0
   11.4535    3.2616    2.6888 C   0  0  0  0  0  0  0  0  0  0  0  0
   12.2865    4.3295    2.4071 C   0  0  0  0  0  0  0  0  0  0  0  0
   12.5787    4.6277    1.0894 C   0  0  0  0  0  0  0  0  0  0  0  0
   12.0251    3.8746    0.0973 C   0  0  0  0  0  0  0  0  0  0  0  0
   11.1778    2.8215    0.4222 C   0  0  0  0  0  0  0  0  0  0  0  0
    4.6430    4.5095    2.9489 C   0  0  0  0  0  0  0  0  0  0  0  0
    5.1825    4.5597    2.1556 H   0  0  0  0  0  0  0  0  0  0  0  0
    3.7169    4.4652    2.7004 H   0  0  0  0  0  0  0  0  0  0  0  0
    4.8791    3.7243    3.4475 H   0  0  0  0  0  0  0  0  0  0  0  0
    7.9039    5.3461    2.0246 C   0  0  0  0  0  0  0  0  0  0  0  0
    7.9586    4.4255    2.2926 H   0  0  0  0  0  0  0  0  0  0  0  0
    8.6445    5.5573    1.4496 H   0  0  0  0  0  0  0  0  0  0  0  0
    7.0805    5.4931    1.5524 H   0  0  0  0  0  0  0  0  0  0  0  0
    6.7711    5.1174    7.0503 B   0  0  0  0  0  0  0  0  0  0  0  0
    9.8493    1.2594    2.2008 B   0  5  0  0  0  0  0  0  0  0  0  0
  1  2  1  0  0  0  0
  2 23  1  0  0  0  0
  3  1  1  0  0  0  0
  4 86  1  0  0  0  0
  5 87  1  0  0  0  0
  6 88  1  0  0  0  0
  7 89  1  0  0  0  0
  8 90  1  0  0  0  0
  9 92  1  0  0  0  0
 10 95  1  0  0  0  0
 11 96  1  0  0  0  0
 12 94  1  0  0  0  0
 13 93  1  0  0  0  0
 14 98  1  0  0  0  0
 15 99  1  0  0  0  0
 16100  1  0  0  0  0
 17101  1  0  0  0  0
 18102  1  0  0  0  0
 19  1  1  0  0  0  0
 20 83  1  0  0  0  0
 21 61  1  0  0  0  0
 22 49  1  0  0  0  0
 23 24  1  0  0  0  0
 24 25  1  0  0  0  0
 26 24  1  0  0  0  0
 27 24  1  0  0  0  0
 28 23  1  0  0  0  0
 29 28  1  0  0  0  0
 30 28  1  0  0  0  0
 31 28  1  0  0  0  0
 32 23  1  0  0  0  0
 33 32  1  0  0  0  0
 34 32  1  0  0  0  0
 35 32  1  0  0  0  0
 36  2  1  0  0  0  0
 37 36  1  0  0  0  0
 38 37  1  0  0  0  0
 39 37  1  0  0  0  0
 40 37  1  0  0  0  0
 41 36  1  0  0  0  0
 42 41  1  0  0  0  0
 43 41  1  0  0  0  0
 44 41  1  0  0  0  0
 45 36  1  0  0  0  0
 46 45  1  0  0  0  0
 47 45  1  0  0  0  0
 48 45  1  0  0  0  0
 49  2  1  0  0  0  0
 50 49  1  0  0  0  0
 51 49  1  0  0  0  0
 52 22  1  0  0  0  0
 53 52  4  0  0  0  0
 54 53  1  0  0  0  0
 55 53  4  0  0  0  0
 56 55  1  0  0  0  0
 57 55  4  0  0  0  0
 58 57  1  0  0  0  0
 59 57  4  0  0  0  0
 60 59  1  0  0  0  0
 61 52  4  0  0  0  0
 62  3  1  0  0  0  0
 63 62  1  0  0  0  0
 64 62  1  0  0  0  0
 65  3  1  0  0  0  0
 66 65  1  0  0  0  0
 67 66  1  0  0  0  0
 68 66  1  0  0  0  0
 69 66  1  0  0  0  0
 70 65  1  0  0  0  0
 71 70  1  0  0  0  0
 72 70  1  0  0  0  0
 73 70  1  0  0  0  0
 74  3  1  0  0  0  0
 75 74  1  0  0  0  0
 76 75  1  0  0  0  0
 77 75  1  0  0  0  0
 78 75  1  0  0  0  0
 79 74  1  0  0  0  0
 80 79  1  0  0  0  0
 81 79  1  0  0  0  0
 82 79  1  0  0  0  0
 83 19  2  0  0  0  0
 84 83  1  0  0  0  0
 85 86  4  0  0  0  0
 86 87  4  0  0  0  0
 87 88  4  0  0  0  0
 88 89  4  0  0  0  0
 89 90  4  0  0  0  0
 90 85  4  0  0  0  0
 91 92  4  0  0  0  0
 92 93  4  0  0  0  0
 93 94  4  0  0  0  0
 94 95  4  0  0  0  0
 95 96  4  0  0  0  0
 96 91  4  0  0  0  0
 97 98  4  0  0  0  0
 98 99  4  0  0  0  0
 99100  4  0  0  0  0
100101  4  0  0  0  0
101102  4  0  0  0  0
102 97  4  0  0  0  0
103 74  1  0  0  0  0
104103  1  0  0  0  0
105103  1  0  0  0  0
106103  1  0  0  0  0
107 65  1  0  0  0  0
108107  1  0  0  0  0
109107  1  0  0  0  0
110107  1  0  0  0  0
111  1  1  0  0  0  0
112 20  1  0  0  0  0
 21 62  1  0  0  0  0
 21111  1  0  0  0  0
 22111  1  0  0  0  0
 59 61  4  0  0  0  0
 85112  1  0  0  0  0
 91112  1  0  0  0  0
 97112  1  0  0  0  0
M  CHG  2   1   1 112  -1
M  END
$$$$
TABHAH

From CSD data. Using bond type 'Any'. Matching problem. No disordered atoms. Largest molecule.
 88 90  0  0  0  0  0  0  0  0999 V2000
    3.4201   11.8773    7.7938 Sm  0  0  0  0  0  0  0  0  0  0  0  0
    1.3145   14.3019    8.8185 P   0  0  0  0  0  0  0  0  0  0  0  0
    2.9917    8.8307    6.4584 P   0  0  0  0  0  0  0  0  0  0  0  0
    3.1227   13.3626   11.0621 Si  0  0  0  0  0  0  0  0  0  0  0  0
    0.4263   11.9177   10.5615 Si  0  0  0  0  0  0  0  0  0  0  0  0
    1.4775   10.6386    4.4722 Si  0  0  0  0  0  0  0  0  0  0  0  0
    4.5678   10.7286    4.6245 Si  0  0  0  0  0  0  0  0  0  0  0  0
    2.4552   14.5499    7.2414 B   0  0  0  0  0  0  0  0  0  0  0  0
    3.6578    9.0662    8.2681 B   0  0  0  0  0  0  0  0  0  0  0  0
    5.9204   12.2953    8.1814 O   0  0  0  0  0  0  0  0  0  0  0  0
    1.7632   12.9518    9.8534 C   0  0  0  0  0  0  0  0  0  0  0  0
    1.1541   15.8659    9.7085 C   0  0  0  0  0  0  0  0  0  0  0  0
    0.8007   16.5521    9.1041 H   0  0  0  0  0  0  0  0  0  0  0  0
    2.0326   16.1452   10.0404 H   0  0  0  0  0  0  0  0  0  0  0  0
    0.5413   15.7501   10.4652 H   0  0  0  0  0  0  0  0  0  0  0  0
   -0.3557   14.1400    8.1480 C   0  0  0  0  0  0  0  0  0  0  0  0
   -0.9998   14.0895    8.8849 H   0  0  0  0  0  0  0  0  0  0  0  0
   -0.4131   13.3261    7.6068 H   0  0  0  0  0  0  0  0  0  0  0  0
   -0.5608   14.9183    7.5894 H   0  0  0  0  0  0  0  0  0  0  0  0
    4.1472   11.8467   11.4981 C   0  0  0  0  0  0  0  0  0  0  0  0
    4.2453   11.2793   10.7042 H   0  0  0  0  0  0  0  0  0  0  0  0
    3.6968   11.3417   12.2065 H   0  0  0  0  0  0  0  0  0  0  0  0
    5.0317   12.1289   11.8089 H   0  0  0  0  0  0  0  0  0  0  0  0
    2.4550   14.0895   12.6895 C   0  0  0  0  0  0  0  0  0  0  0  0
    1.7835   13.4805   13.0660 H   0  0  0  0  0  0  0  0  0  0  0  0
    2.0446   14.9599   12.5136 H   0  0  0  0  0  0  0  0  0  0  0  0
    3.1916   14.1964   13.3261 H   0  0  0  0  0  0  0  0  0  0  0  0
    4.3729   14.6153   10.4379 C   0  0  0  0  0  0  0  0  0  0  0  0
    4.7445   14.3064    9.5846 H   0  0  0  0  0  0  0  0  0  0  0  0
    5.0952   14.7104   11.0931 H   0  0  0  0  0  0  0  0  0  0  0  0
    3.9320   15.4797   10.3091 H   0  0  0  0  0  0  0  0  0  0  0  0
   -0.4899   10.8605    9.3022 C   0  0  0  0  0  0  0  0  0  0  0  0
   -0.9266   11.4427    8.6446 H   0  0  0  0  0  0  0  0  0  0  0  0
   -1.1664   10.3198    9.7605 H   0  0  0  0  0  0  0  0  0  0  0  0
    0.1456   10.2723    8.8465 H   0  0  0  0  0  0  0  0  0  0  0  0
    1.0538   10.6317   11.7755 C   0  0  0  0  0  0  0  0  0  0  0  0
    1.6207    9.9871   11.3049 H   0  0  0  0  0  0  0  0  0  0  0  0
    0.2919   10.1624   12.1780 H   0  0  0  0  0  0  0  0  0  0  0  0
    1.5741   11.0744   12.4789 H   0  0  0  0  0  0  0  0  0  0  0  0
   -0.8622   12.8924   11.5228 C   0  0  0  0  0  0  0  0  0  0  0  0
   -1.3330   13.5013   10.9147 H   0  0  0  0  0  0  0  0  0  0  0  0
   -0.4199   13.4122   12.2263 H   0  0  0  0  0  0  0  0  0  0  0  0
   -1.5044   12.2745   11.9291 H   0  0  0  0  0  0  0  0  0  0  0  0
    2.9802   10.2931    5.4939 C   0  0  0  0  0  0  0  0  0  0  0  0
    3.8872    7.4354    5.6896 C   0  0  0  0  0  0  0  0  0  0  0  0
    3.8922    6.6719    6.3051 H   0  0  0  0  0  0  0  0  0  0  0  0
    4.8093    7.7057    5.4964 H   0  0  0  0  0  0  0  0  0  0  0  0
    3.4396    7.1799    4.8561 H   0  0  0  0  0  0  0  0  0  0  0  0
    1.3208    8.1275    6.6383 C   0  0  0  0  0  0  0  0  0  0  0  0
    1.3704    7.2928    7.1498 H   0  0  0  0  0  0  0  0  0  0  0  0
    0.9459    7.9434    5.7515 H   0  0  0  0  0  0  0  0  0  0  0  0
    0.7454    8.7632    7.1114 H   0  0  0  0  0  0  0  0  0  0  0  0
    1.0510    9.2593    3.2473 C   0  0  0  0  0  0  0  0  0  0  0  0
    1.7394    9.2148    2.5513 H   0  0  0  0  0  0  0  0  0  0  0  0
    0.1821    9.4465    2.8349 H   0  0  0  0  0  0  0  0  0  0  0  0
    1.0104    8.4038    3.7216 H   0  0  0  0  0  0  0  0  0  0  0  0
   -0.0943   10.9852    5.4568 C   0  0  0  0  0  0  0  0  0  0  0  0
    0.1188   11.5586    6.2209 H   0  0  0  0  0  0  0  0  0  0  0  0
   -0.4722   10.1386    5.7775 H   0  0  0  0  0  0  0  0  0  0  0  0
   -0.7470   11.4368    4.8809 H   0  0  0  0  0  0  0  0  0  0  0  0
    1.6723   12.1913    3.4269 C   0  0  0  0  0  0  0  0  0  0  0  0
    1.8724   12.9547    4.0090 H   0  0  0  0  0  0  0  0  0  0  0  0
    0.8392   12.3636    2.9389 H   0  0  0  0  0  0  0  0  0  0  0  0
    2.4052   12.0665    2.7891 H   0  0  0  0  0  0  0  0  0  0  0  0
    6.1167   10.0881    5.4766 C   0  0  0  0  0  0  0  0  0  0  0  0
    6.2428    9.1435    5.2549 H   0  0  0  0  0  0  0  0  0  0  0  0
    6.0200   10.1891    6.4463 H   0  0  0  0  0  0  0  0  0  0  0  0
    6.8932   10.6020    5.1707 H   0  0  0  0  0  0  0  0  0  0  0  0
    4.6738   10.0881    2.8621 C   0  0  0  0  0  0  0  0  0  0  0  0
    4.5564    9.1167    2.8609 H   0  0  0  0  0  0  0  0  0  0  0  0
    5.5516   10.3139    2.4869 H   0  0  0  0  0  0  0  0  0  0  0  0
    3.9711   10.5040    2.3209 H   0  0  0  0  0  0  0  0  0  0  0  0
    4.8439   12.5834    4.5415 C   0  0  0  0  0  0  0  0  0  0  0  0
    4.6982   12.9755    5.4283 H   0  0  0  0  0  0  0  0  0  0  0  0
    4.2154   12.9785    3.9025 H   0  0  0  0  0  0  0  0  0  0  0  0
    5.7622   12.7646    4.2517 H   0  0  0  0  0  0  0  0  0  0  0  0
    6.8779   11.4932    8.9356 C   0  0  0  0  0  0  0  0  0  0  0  0
    6.4351   11.0714    9.7159 H   0  0  0  0  0  0  0  0  0  0  0  0
    7.2541   10.7773    8.3635 H   0  0  0  0  0  0  0  0  0  0  0  0
    7.8825   12.3487    9.3629 C   0  0  0  0  0  0  0  0  0  0  0  0
    8.7625   11.9061    9.2502 H   0  0  0  0  0  0  0  0  0  0  0  0
    7.7592   12.5597   10.3166 H   0  0  0  0  0  0  0  0  0  0  0  0
    7.8545   13.5875    8.5728 C   0  0  0  0  0  0  0  0  0  0  0  0
    8.6936   13.7004    8.0625 H   0  0  0  0  0  0  0  0  0  0  0  0
    7.7279   14.3747    9.1611 H   0  0  0  0  0  0  0  0  0  0  0  0
    6.6899   13.4211    7.6526 C   0  0  0  0  0  0  0  0  0  0  0  0
    6.1379   14.2440    7.6377 H   0  0  0  0  0  0  0  0  0  0  0  0
    6.9996   13.2280    6.7324 H   0  0  0  0  0  0  0  0  0  0  0  0
  1  8  1  0  0  0  0
  2  8  1  0  0  0  0
  3  9  1  0  0  0  0
  4 11  1  0  0  0  0
  5 11  1  0  0  0  0
  6 44  1  0  0  0  0
  7 44  1  0  0  0  0
  9  1  1  0  0  0  0
 10  1  1  0  0  0  0
 11  1  1  0  0  0  0
 12  2  1  0  0  0  0
 13 12  1  0  0  0  0
 14 12  1  0  0  0  0
 15 12  1  0  0  0  0
 16  2  1  0  0  0  0
 17 16  1  0  0  0  0
 18 16  1  0  0  0  0
 19 16  1  0  0  0  0
 20  4  1  0  0  0  0
 21 20  1  0  0  0  0
 22 20  1  0  0  0  0
 23 20  1  0  0  0  0
 24  4  1  0  0  0  0
 25 24  1  0  0  0  0
 26 24  1  0  0  0  0
 27 24  1  0  0  0  0
 28  4  1  0  0  0  0
 29 28  1  0  0  0  0
 30 28  1  0  0  0  0
 31 28  1  0  0  0  0
 32  5  1  0  0  0  0
 33 32  1  0  0  0  0
 34 32  1  0  0  0  0
 35 32  1  0  0  0  0
 36  5  1  0  0  0  0
 37 36  1  0  0  0  0
 38 36  1  0  0  0  0
 39 36  1  0  0  0  0
 40  5  1  0  0  0  0
 41 40  1  0  0  0  0
 42 40  1  0  0  0  0
 43 40  1  0  0  0  0
 44  1  1  0  0  0  0
 45  3  1  0  0  0  0
 46 45  1  0  0  0  0
 47 45  1  0  0  0  0
 48 45  1  0  0  0  0
 49  3  1  0  0  0  0
 50 49  1  0  0  0  0
 51 49  1  0  0  0  0
 52 49  1  0  0  0  0
 53  6  1  0  0  0  0
 54 53  1  0  0  0  0
 55 53  1  0  0  0  0
 56 53  1  0  0  0  0
 57  6  1  0  0  0  0
 58 57  1  0  0  0  0
 59 57  1  0  0  0  0
 60 57  1  0  0  0  0
 61  6  1  0  0  0  0
 62 61  1  0  0  0  0
 63 61  1  0  0  0  0
 64 61  1  0  0  0  0
 65  7  1  0  0  0  0
 66 65  1  0  0  0  0
 67 65  1  0  0  0  0
 68 65  1  0  0  0  0
 69  7  1  0  0  0  0
 70 69  1  0  0  0  0
 71 69  1  0  0  0  0
 72 69  1  0  0  0  0
 73  7  1  0  0  0  0
 74 73  1  0  0  0  0
 75 73  1  0  0  0  0
 76 73  1  0  0  0  0
 77 10  1  0  0  0  0
 78 77  1  0  0  0  0
 79 77  1  0  0  0  0
 80 77  1  0  0  0  0
 81 80  1  0  0  0  0
 82 80  1  0  0  0  0
 83 80  1  0  0  0  0
 84 83  1  0  0  0  0
 85 83  1  0  0  0  0
 86 10  1  0  0  0  0
 87 86  1  0  0  0  0
 88 86  1  0  0  0  0
  2 11  1  0  0  0  0
  3 44  1  0  0  0  0
 83 86  1  0  0  0  0
M  END
$$$$
TABHEL

From CSD data. Using bond type 'Any'. Matching problem. No disordered atoms. Largest molecule.
120126  0  0  0  0  0  0  0  0999 V2000
   -1.3980   10.6614   10.2142 Sm  0  3  0  0  0  0  0  0  0  0  0  0
   -3.1469   13.5428   10.0027 P   0  0  0  0  0  0  0  0  0  0  0  0
    2.6364    9.5019   12.3406 P   0  0  0  0  0  0  0  0  0  0  0  0
   -0.3495   13.9472    8.8815 Si  0  0  0  0  0  0  0  0  0  0  0  0
   -0.8891   14.3879   11.8919 Si  0  0  0  0  0  0  0  0  0  0  0  0
    5.1594    7.7695   12.6224 Si  0  0  0  0  0  0  0  0  0  0  0  0
    2.5663    6.7284   11.1984 Si  0  0  0  0  0  0  0  0  0  0  0  0
   -0.6215    9.8545    7.8962 O   0  0  0  0  0  0  0  0  0  0  0  0
   -2.7112    8.4289    9.9102 O   0  0  0  0  0  0  0  0  0  0  0  0
   -2.4560   10.1161   12.5281 O   0  0  0  0  0  0  0  0  0  0  0  0
   -3.8279   11.9528    9.1276 B   0  0  0  0  0  0  0  0  0  0  0  0
   -4.8163   12.2296    8.7393 H   0  0  0  0  0  0  0  0  0  0  0  0
   -3.1042   11.6139    8.3831 H   0  0  0  0  0  0  0  0  0  0  0  0
   -3.8537   11.2135    9.9608 H   0  0  0  0  0  0  0  0  0  0  0  0
    0.9858    9.8851   11.4207 B   0  0  0  0  0  0  0  0  0  0  0  0
    1.1313   10.0821   10.3272 H   0  0  0  0  0  0  0  0  0  0  0  0
    0.5380   10.7928   11.8657 H   0  0  0  0  0  0  0  0  0  0  0  0
    0.2146    9.0506   11.4862 H   0  0  0  0  0  0  0  0  0  0  0  0
   -1.4232   13.5313   10.3361 C   0  0  0  0  0  0  0  0  0  0  0  0
   -3.7158   15.0457    9.1319 C   0  0  0  0  0  0  0  0  0  0  0  0
   -4.6863   15.0040    9.0083 H   0  0  0  0  0  0  0  0  0  0  0  0
   -3.2762   15.1022    8.2580 H   0  0  0  0  0  0  0  0  0  0  0  0
   -3.4878   15.8367    9.6627 H   0  0  0  0  0  0  0  0  0  0  0  0
   -4.1423   13.6418   11.5269 C   0  0  0  0  0  0  0  0  0  0  0  0
   -3.9414   14.4816   11.9937 H   0  0  0  0  0  0  0  0  0  0  0  0
   -3.9234   12.8844   12.1085 H   0  0  0  0  0  0  0  0  0  0  0  0
   -5.0937   13.6155   11.2971 H   0  0  0  0  0  0  0  0  0  0  0  0
    1.3465   13.1390    8.9763 C   0  0  0  0  0  0  0  0  0  0  0  0
    1.2421   12.1808    9.1552 H   0  0  0  0  0  0  0  0  0  0  0  0
    1.8645   13.5518    9.6976 H   0  0  0  0  0  0  0  0  0  0  0  0
    1.8153   13.2625    8.1242 H   0  0  0  0  0  0  0  0  0  0  0  0
   -1.0486   13.4072    7.2215 C   0  0  0  0  0  0  0  0  0  0  0  0
   -1.1305   12.4311    7.2038 H   0  0  0  0  0  0  0  0  0  0  0  0
   -0.4453   13.6983    6.5043 H   0  0  0  0  0  0  0  0  0  0  0  0
   -1.9309   13.8129    7.0918 H   0  0  0  0  0  0  0  0  0  0  0  0
   -0.0286   15.7912    8.6812 C   0  0  0  0  0  0  0  0  0  0  0  0
   -0.8827   16.2635    8.5895 H   0  0  0  0  0  0  0  0  0  0  0  0
    0.5160   15.9429    7.8799 H   0  0  0  0  0  0  0  0  0  0  0  0
    0.4472   16.1279    9.4693 H   0  0  0  0  0  0  0  0  0  0  0  0
   -1.5214   16.1636   12.0257 C   0  0  0  0  0  0  0  0  0  0  0  0
   -2.4984   16.1576   12.0984 H   0  0  0  0  0  0  0  0  0  0  0  0
   -1.2557   16.6657   11.2273 H   0  0  0  0  0  0  0  0  0  0  0  0
   -1.1375   16.5879   12.8211 H   0  0  0  0  0  0  0  0  0  0  0  0
    0.9676   14.5158   12.0576 C   0  0  0  0  0  0  0  0  0  0  0  0
    1.3642   13.6225   11.9849 H   0  0  0  0  0  0  0  0  0  0  0  0
    1.1916   14.9031   12.9287 H   0  0  0  0  0  0  0  0  0  0  0  0
    1.3196   15.0893   11.3451 H   0  0  0  0  0  0  0  0  0  0  0  0
   -1.3758   13.4882   13.4740 C   0  0  0  0  0  0  0  0  0  0  0  0
   -2.3528   13.4145   13.5205 H   0  0  0  0  0  0  0  0  0  0  0  0
   -1.0501   13.9915   14.2490 H   0  0  0  0  0  0  0  0  0  0  0  0
   -0.9796   12.5922   13.4754 H   0  0  0  0  0  0  0  0  0  0  0  0
    3.5437    8.1220   11.8621 C   0  5  0  0  0  0  0  0  0  0  0  0
    2.2195    9.4919   14.1215 C   0  0  0  0  0  0  0  0  0  0  0  0
    3.0398    9.4028   14.6489 H   0  0  0  0  0  0  0  0  0  0  0  0
    1.6231    8.7379   14.3130 H   0  0  0  0  0  0  0  0  0  0  0  0
    1.7700   10.3317   14.3566 H   0  0  0  0  0  0  0  0  0  0  0  0
    3.5434   11.0658   12.1987 C   0  0  0  0  0  0  0  0  0  0  0  0
    4.3010   11.0613   12.8211 H   0  0  0  0  0  0  0  0  0  0  0  0
    2.9470   11.8116   12.4183 H   0  0  0  0  0  0  0  0  0  0  0  0
    3.8744   11.1707   11.2826 H   0  0  0  0  0  0  0  0  0  0  0  0
    6.1012    9.2724   13.2398 C   0  0  0  0  0  0  0  0  0  0  0  0
    5.5664    9.7367   13.9175 H   0  0  0  0  0  0  0  0  0  0  0  0
    6.2777    9.8787   12.4910 H   0  0  0  0  0  0  0  0  0  0  0  0
    6.9517    8.9859   13.6354 H   0  0  0  0  0  0  0  0  0  0  0  0
    6.4008    6.9431   11.4658 C   0  0  0  0  0  0  0  0  0  0  0  0
    6.1073    6.0281   11.2710 H   0  0  0  0  0  0  0  0  0  0  0  0
    7.2818    6.9196   11.8948 H   0  0  0  0  0  0  0  0  0  0  0  0
    6.4574    7.4527   10.6297 H   0  0  0  0  0  0  0  0  0  0  0  0
    5.0319    6.6611   14.1370 C   0  0  0  0  0  0  0  0  0  0  0  0
    4.5440    5.8444   13.9044 H   0  0  0  0  0  0  0  0  0  0  0  0
    4.5533    7.1347   14.8496 H   0  0  0  0  0  0  0  0  0  0  0  0
    5.9310    6.4272   14.4482 H   0  0  0  0  0  0  0  0  0  0  0  0
    1.1814    6.1685   12.3616 C   0  0  0  0  0  0  0  0  0  0  0  0
    0.5786    6.9211   12.5361 H   0  0  0  0  0  0  0  0  0  0  0  0
    1.5685    5.8568   13.2050 H   0  0  0  0  0  0  0  0  0  0  0  0
    0.6788    5.4374   11.9428 H   0  0  0  0  0  0  0  0  0  0  0  0
    3.6065    5.1825   10.8943 C   0  0  0  0  0  0  0  0  0  0  0  0
    4.2182    5.3425   10.1455 H   0  0  0  0  0  0  0  0  0  0  0  0
    3.0181    4.4303   10.6806 H   0  0  0  0  0  0  0  0  0  0  0  0
    4.1253    4.9744   11.6999 H   0  0  0  0  0  0  0  0  0  0  0  0
    1.7735    7.0319    9.5216 C   0  0  0  0  0  0  0  0  0  0  0  0
    1.1182    7.7559    9.5958 H   0  0  0  0  0  0  0  0  0  0  0  0
    1.3250    6.2135    9.2192 H   0  0  0  0  0  0  0  0  0  0  0  0
    2.4650    7.2815    8.8731 H   0  0  0  0  0  0  0  0  0  0  0  0
   -1.5286    9.2474    6.9391 C   0  0  0  0  0  0  0  0  0  0  0  0
   -2.3930    9.7313    6.9217 H   0  0  0  0  0  0  0  0  0  0  0  0
   -1.6983    8.3005    7.1718 H   0  0  0  0  0  0  0  0  0  0  0  0
   -0.8413    9.3513    5.6260 C   0  0  0  0  0  0  0  0  0  0  0  0
   -1.0250   10.2227    5.1927 H   0  0  0  0  0  0  0  0  0  0  0  0
   -1.1215    8.6220    5.0167 H   0  0  0  0  0  0  0  0  0  0  0  0
    0.6220    9.2217    6.0012 C   0  0  0  0  0  0  0  0  0  0  0  0
    0.8776    8.2734    6.1277 H   0  0  0  0  0  0  0  0  0  0  0  0
    1.2059    9.6273    5.3134 H   0  0  0  0  0  0  0  0  0  0  0  0
    0.6909    9.9700    7.2736 C   0  0  0  0  0  0  0  0  0  0  0  0
    1.3873    9.5857    7.8625 H   0  0  0  0  0  0  0  0  0  0  0  0
    0.9095   10.9199    7.1020 H   0  0  0  0  0  0  0  0  0  0  0  0
   -2.1465    7.2236   10.4392 C   0  0  0  0  0  0  0  0  0  0  0  0
   -1.8078    7.3737   11.3568 H   0  0  0  0  0  0  0  0  0  0  0  0
   -1.3967    6.9158    9.8721 H   0  0  0  0  0  0  0  0  0  0  0  0
   -3.2476    6.2089   10.4479 C   0  0  0  0  0  0  0  0  0  0  0  0
   -3.7385    6.2224   11.3073 H   0  0  0  0  0  0  0  0  0  0  0  0
   -2.8940    5.2975   10.2923 H   0  0  0  0  0  0  0  0  0  0  0  0
   -4.1299    6.6443    9.3166 C   0  0  0  0  0  0  0  0  0  0  0  0
   -3.7952    6.3064    8.4485 H   0  0  0  0  0  0  0  0  0  0  0  0
   -5.0614    6.3352    9.4475 H   0  0  0  0  0  0  0  0  0  0  0  0
   -4.0379    8.1352    9.3908 C   0  0  0  0  0  0  0  0  0  0  0  0
   -4.1562    8.5348    8.4921 H   0  0  0  0  0  0  0  0  0  0  0  0
   -4.7350    8.4965    9.9928 H   0  0  0  0  0  0  0  0  0  0  0  0
   -3.8418    9.8537   12.8022 C   0  0  0  0  0  0  0  0  0  0  0  0
   -4.0313    8.8822   12.7600 H   0  0  0  0  0  0  0  0  0  0  0  0
   -4.4240   10.3213   12.1507 H   0  0  0  0  0  0  0  0  0  0  0  0
   -4.0633   10.3864   14.2025 C   0  0  0  0  0  0  0  0  0  0  0  0
   -4.7330    9.8417   14.6867 H   0  0  0  0  0  0  0  0  0  0  0  0
   -4.3699   11.3283   14.1792 H   0  0  0  0  0  0  0  0  0  0  0  0
   -2.6894   10.2757   14.8627 C   0  0  0  0  0  0  0  0  0  0  0  0
   -2.3878   11.1574   15.1986 H   0  0  0  0  0  0  0  0  0  0  0  0
   -2.7112    9.6351   15.6159 H   0  0  0  0  0  0  0  0  0  0  0  0
   -1.7773    9.7795   13.7542 C   0  0  0  0  0  0  0  0  0  0  0  0
   -0.8955   10.2257   13.7997 H   0  0  0  0  0  0  0  0  0  0  0  0
   -1.6439    8.8011   13.8230 H   0  0  0  0  0  0  0  0  0  0  0  0
  1  8  1  0  0  0  0
  2 11  1  0  0  0  0
  3 15  1  0  0  0  0
  4 19  1  0  0  0  0
  5 19  1  0  0  0  0
  6 52  1  0  0  0  0
  7 52  1  0  0  0  0
  8 85  1  0  0  0  0
  9  1  1  0  0  0  0
 10  1  1  0  0  0  0
 11 12  1  0  0  0  0
 13  1  1  0  0  0  0
 14  1  1  0  0  0  0
 15 16  1  0  0  0  0
 16  1  1  0  0  0  0
 17  1  1  0  0  0  0
 18  1  1  0  0  0  0
 19  1  1  0  0  0  0
 20  2  1  0  0  0  0
 21 20  1  0  0  0  0
 22 20  1  0  0  0  0
 23 20  1  0  0  0  0
 24  2  1  0  0  0  0
 25 24  1  0  0  0  0
 26 24  1  0  0  0  0
 27 24  1  0  0  0  0
 28  4  1  0  0  0  0
 29 28  1  0  0  0  0
 30 28  1  0  0  0  0
 31 28  1  0  0  0  0
 32  4  1  0  0  0  0
 33 32  1  0  0  0  0
 34 32  1  0  0  0  0
 35 32  1  0  0  0  0
 36  4  1  0  0  0  0
 37 36  1  0  0  0  0
 38 36  1  0  0  0  0
 39 36  1  0  0  0  0
 40  5  1  0  0  0  0
 41 40  1  0  0  0  0
 42 40  1  0  0  0  0
 43 40  1  0  0  0  0
 44  5  1  0  0  0  0
 45 44  1  0  0  0  0
 46 44  1  0  0  0  0
 47 44  1  0  0  0  0
 48  5  1  0  0  0  0
 49 48  1  0  0  0  0
 50 48  1  0  0  0  0
 51 48  1  0  0  0  0
 52  3  1  0  0  0  0
 53  3  1  0  0  0  0
 54 53  1  0  0  0  0
 55 53  1  0  0  0  0
 56 53  1  0  0  0  0
 57  3  1  0  0  0  0
 58 57  1  0  0  0  0
 59 57  1  0  0  0  0
 60 57  1  0  0  0  0
 61  6  1  0  0  0  0
 62 61  1  0  0  0  0
 63 61  1  0  0  0  0
 64 61  1  0  0  0  0
 65  6  1  0  0  0  0
 66 65  1  0  0  0  0
 67 65  1  0  0  0  0
 68 65  1  0  0  0  0
 69  6  1  0  0  0  0
 70 69  1  0  0  0  0
 71 69  1  0  0  0  0
 72 69  1  0  0  0  0
 73  7  1  0  0  0  0
 74 73  1  0  0  0  0
 75 73  1  0  0  0  0
 76 73  1  0  0  0  0
 77  7  1  0  0  0  0
 78 77  1  0  0  0  0
 79 77  1  0  0  0  0
 80 77  1  0  0  0  0
 81  7  1  0  0  0  0
 82 81  1  0  0  0  0
 83 81  1  0  0  0  0
 84 81  1  0  0  0  0
 85 86  1  0  0  0  0
 87 85  1  0  0  0  0
 88 85  1  0  0  0  0
 89 88  1  0  0  0  0
 90 88  1  0  0  0  0
 91 88  1  0  0  0  0
 92 91  1  0  0  0  0
 93 91  1  0  0  0  0
 94  8  1  0  0  0  0
 95 94  1  0  0  0  0
 96 94  1  0  0  0  0
 97  9  1  0  0  0  0
 98 97  1  0  0  0  0
 99 97  1  0  0  0  0
100 97  1  0  0  0  0
101100  1  0  0  0  0
102100  1  0  0  0  0
103100  1  0  0  0  0
104103  1  0  0  0  0
105103  1  0  0  0  0
106  9  1  0  0  0  0
107106  1  0  0  0  0
108106  1  0  0  0  0
109 10  1  0  0  0  0
110109  1  0  0  0  0
111109  1  0  0  0  0
112109  1  0  0  0  0
113112  1  0  0  0  0
114112  1  0  0  0  0
115112  1  0  0  0  0
116115  1  0  0  0  0
117115  1  0  0  0  0
118 10  1  0  0  0  0
119118  1  0  0  0  0
120118  1  0  0  0  0
  2 19  1  0  0  0  0
 11 13  1  0  0  0  0
 11 14  1  0  0  0  0
 15 17  1  0  0  0  0
 15 18  1  0  0  0  0
 91 94  1  0  0  0  0
103106  1  0  0  0  0
115118  1  0  0  0  0
M  CHG  2   1   1  52  -1
M  END
$$$$
TABKUE

From CSD data. Using bond type 'Any'. Matching problem. No disordered atoms. Largest molecule.
200220  0  0  0  0  0  0  0  0999 V2000
    5.4678   13.2430    5.8147 Nd  0  0  0  0  0  0  0  0  0  0  0  0
    4.2997   12.1908    8.1085 P   0  0  0  0  0  0  0  0  0  0  0  0
    6.2033   14.4148    3.4798 N   0  0  0  0  0  0  0  0  0  0  0  0
    5.4325   15.4837    3.0534 N   0  0  0  0  0  0  0  0  0  0  0  0
    3.2984   14.1697    4.9939 N   0  0  0  0  0  0  0  0  0  0  0  0
    3.1342   15.1748    4.1027 N   0  0  0  0  0  0  0  0  0  0  0  0
    5.5393   15.9326    6.1188 N   0  0  0  0  0  0  0  0  0  0  0  0
    4.8939   16.6736    5.1718 N   0  0  0  0  0  0  0  0  0  0  0  0
    4.1256   12.9865    9.7593 C   0  0  0  0  0  0  0  0  0  0  0  0
    3.4537   14.2300    9.8828 C   0  0  0  0  0  0  0  0  0  0  0  0
    3.3251   14.8139   11.1392 C   0  0  0  0  0  0  0  0  0  0  0  0
    2.8857   15.6299   11.2202 H   0  0  0  0  0  0  0  0  0  0  0  0
    3.8343   14.2089   12.2602 C   0  0  0  0  0  0  0  0  0  0  0  0
    3.7474   14.6166   13.0916 H   0  0  0  0  0  0  0  0  0  0  0  0
    4.4696   13.0078   12.1513 C   0  0  0  0  0  0  0  0  0  0  0  0
    4.8033   12.5991   12.9163 H   0  0  0  0  0  0  0  0  0  0  0  0
    4.6262   12.3891   10.9347 C   0  0  0  0  0  0  0  0  0  0  0  0
    2.8648   14.9697    8.6755 C   0  0  0  0  0  0  0  0  0  0  0  0
    3.3703   14.6741    7.8892 H   0  0  0  0  0  0  0  0  0  0  0  0
    1.4171   14.5552    8.4444 C   0  0  0  0  0  0  0  0  0  0  0  0
    1.0818   14.9873    7.6555 H   0  0  0  0  0  0  0  0  0  0  0  0
    1.3702   13.6026    8.3328 H   0  0  0  0  0  0  0  0  0  0  0  0
    0.8849   14.8141    9.2014 H   0  0  0  0  0  0  0  0  0  0  0  0
    2.9858   16.4713    8.7246 C   0  0  0  0  0  0  0  0  0  0  0  0
    2.4120   16.8154    9.4126 H   0  0  0  0  0  0  0  0  0  0  0  0
    3.8950   16.7131    8.9159 H   0  0  0  0  0  0  0  0  0  0  0  0
    2.7287   16.8407    7.8773 H   0  0  0  0  0  0  0  0  0  0  0  0
    5.4290   11.0912   10.8935 C   0  0  0  0  0  0  0  0  0  0  0  0
    5.1386   10.6156   10.0873 H   0  0  0  0  0  0  0  0  0  0  0  0
    5.1401   10.1548   12.0742 C   0  0  0  0  0  0  0  0  0  0  0  0
    5.5277   10.5186   12.8738 H   0  0  0  0  0  0  0  0  0  0  0  0
    4.1908   10.0702   12.1898 H   0  0  0  0  0  0  0  0  0  0  0  0
    5.5192    9.2915   11.8976 H   0  0  0  0  0  0  0  0  0  0  0  0
    6.8857   11.3602   10.7169 C   0  0  0  0  0  0  0  0  0  0  0  0
    7.1838   11.9670   11.3995 H   0  0  0  0  0  0  0  0  0  0  0  0
    7.3743   10.5362   10.7859 H   0  0  0  0  0  0  0  0  0  0  0  0
    7.0362   11.7506    9.8536 H   0  0  0  0  0  0  0  0  0  0  0  0
    5.9686   15.9816    1.9418 C   0  0  0  0  0  0  0  0  0  0  0  0
    5.6340   16.7086    1.4689 H   0  0  0  0  0  0  0  0  0  0  0  0
    7.0609   15.2825    1.6031 C   0  0  0  0  0  0  0  0  0  0  0  0
    7.6026   15.4171    0.8593 H   0  0  0  0  0  0  0  0  0  0  0  0
    7.2143   14.3193    2.5899 C   0  0  0  0  0  0  0  0  0  0  0  0
    8.2678   13.2995    2.6470 C   0  0  0  0  0  0  0  0  0  0  0  0
    8.0233   11.9844    2.9140 C   0  0  0  0  0  0  0  0  0  0  0  0
    7.1685   11.7085    3.1570 H   0  0  0  0  0  0  0  0  0  0  0  0
    9.0456   11.0663    2.8210 C   0  0  0  0  0  0  0  0  0  0  0  0
    8.8701   10.1677    2.9857 H   0  0  0  0  0  0  0  0  0  0  0  0
   10.3022   11.4522    2.4929 C   0  0  0  0  0  0  0  0  0  0  0  0
   10.9821   10.8189    2.4584 H   0  0  0  0  0  0  0  0  0  0  0  0
   10.5811   12.7424    2.2154 C   0  0  0  0  0  0  0  0  0  0  0  0
   11.4406   13.0046    1.9776 H   0  0  0  0  0  0  0  0  0  0  0  0
    9.5515   13.6686    2.2950 C   0  0  0  0  0  0  0  0  0  0  0  0
    9.7312   14.5610    2.1065 H   0  0  0  0  0  0  0  0  0  0  0  0
    2.0972   13.6669    5.1997 C   0  0  0  0  0  0  0  0  0  0  0  0
    1.9102   12.9676    5.7841 H   0  0  0  0  0  0  0  0  0  0  0  0
    1.1481   14.3242    4.4228 C   0  0  0  0  0  0  0  0  0  0  0  0
    0.2355   14.1506    4.3816 H   0  0  0  0  0  0  0  0  0  0  0  0
    1.8422   15.2757    3.7348 C   0  0  0  0  0  0  0  0  0  0  0  0
    1.3266   16.1911    2.7294 C   0  0  0  0  0  0  0  0  0  0  0  0
    0.1273   16.8329    2.9299 C   0  0  0  0  0  0  0  0  0  0  0  0
   -0.3390   16.6846    3.7188 H   0  0  0  0  0  0  0  0  0  0  0  0
   -0.3965   17.6870    1.9896 C   0  0  0  0  0  0  0  0  0  0  0  0
   -1.2031   18.1193    2.1529 H   0  0  0  0  0  0  0  0  0  0  0  0
    0.2654   17.9027    0.8195 C   0  0  0  0  0  0  0  0  0  0  0  0
   -0.0777   18.4981    0.1939 H   0  0  0  0  0  0  0  0  0  0  0  0
    1.4373   17.2399    0.5645 C   0  0  0  0  0  0  0  0  0  0  0  0
    1.8730   17.3553   -0.2484 H   0  0  0  0  0  0  0  0  0  0  0  0
    1.9627   16.4040    1.5154 C   0  0  0  0  0  0  0  0  0  0  0  0
    2.7673   15.9682    1.3414 H   0  0  0  0  0  0  0  0  0  0  0  0
    5.0078   17.9633    5.4826 C   0  0  0  0  0  0  0  0  0  0  0  0
    4.6404   18.6630    4.9939 H   0  0  0  0  0  0  0  0  0  0  0  0
    5.7282   18.1033    6.6009 C   0  0  0  0  0  0  0  0  0  0  0  0
    5.9658   18.8999    7.0193 H   0  0  0  0  0  0  0  0  0  0  0  0
    6.0473   16.8133    7.0100 C   0  0  0  0  0  0  0  0  0  0  0  0
    6.8245   16.4514    8.2120 C   0  0  0  0  0  0  0  0  0  0  0  0
    6.5465   15.3147    8.9278 C   0  0  0  0  0  0  0  0  0  0  0  0
    5.9051   14.7132    8.6250 H   0  0  0  0  0  0  0  0  0  0  0  0
    7.2263   15.0753   10.0966 C   0  0  0  0  0  0  0  0  0  0  0  0
    7.0062   14.3206   10.5947 H   0  0  0  0  0  0  0  0  0  0  0  0
    8.1940   15.8883   10.5495 C   0  0  0  0  0  0  0  0  0  0  0  0
    8.6551   15.6858   11.3318 H   0  0  0  0  0  0  0  0  0  0  0  0
    8.4966   17.0390    9.8270 C   0  0  0  0  0  0  0  0  0  0  0  0
    9.1553   17.6226   10.1272 H   0  0  0  0  0  0  0  0  0  0  0  0
    7.8114   17.3063    8.6635 C   0  0  0  0  0  0  0  0  0  0  0  0
    8.0139   18.0725    8.1761 H   0  0  0  0  0  0  0  0  0  0  0  0
    7.8733   13.4791    6.2689 O   0  0  0  0  0  0  0  0  0  0  0  0
    8.8022   14.5336    5.9740 C   0  0  0  0  0  0  0  0  0  0  0  0
    9.1960   14.4108    5.0948 H   0  0  0  0  0  0  0  0  0  0  0  0
    8.3634   15.3974    6.0033 H   0  0  0  0  0  0  0  0  0  0  0  0
    8.5963   12.4582    6.9648 C   0  0  0  0  0  0  0  0  0  0  0  0
    8.2387   12.3437    7.8587 H   0  0  0  0  0  0  0  0  0  0  0  0
    8.5225   11.6134    6.4933 H   0  0  0  0  0  0  0  0  0  0  0  0
   10.0252   12.8909    7.0299 C   0  0  0  0  0  0  0  0  0  0  0  0
   10.4597   12.5750    7.8374 H   0  0  0  0  0  0  0  0  0  0  0  0
   10.5263   12.5934    6.2543 H   0  0  0  0  0  0  0  0  0  0  0  0
    9.8467   14.4327    7.0392 C   0  0  0  0  0  0  0  0  0  0  0  0
    9.5267   14.7577    7.8959 H   0  0  0  0  0  0  0  0  0  0  0  0
    4.3049   16.1341    3.8570 B   0  0  0  0  0  0  0  0  0  0  0  0
    3.9453   16.9756    3.2540 H   0  0  0  0  0  0  0  0  0  0  0  0
   10.6621   14.8968    6.7975 H   0  0  0  0  0  0  0  0  0  0  0  0
    3.9420    9.4982    7.4669 Nd  0  0  0  0  0  0  0  0  0  0  0  0
    5.1101   10.5504    5.1730 P   0  0  0  0  0  0  0  0  0  0  0  0
    3.2065    8.3264    9.8018 N   0  0  0  0  0  0  0  0  0  0  0  0
    3.9773    7.2574   10.2281 N   0  0  0  0  0  0  0  0  0  0  0  0
    6.1113    8.5715    8.2877 N   0  0  0  0  0  0  0  0  0  0  0  0
    6.2756    7.5663    9.1789 N   0  0  0  0  0  0  0  0  0  0  0  0
    3.8705    6.8086    7.1627 N   0  0  0  0  0  0  0  0  0  0  0  0
    4.5159    6.0676    8.1097 N   0  0  0  0  0  0  0  0  0  0  0  0
    5.2841    9.7547    3.5223 C   0  0  0  0  0  0  0  0  0  0  0  0
    5.9561    8.5112    3.3987 C   0  0  0  0  0  0  0  0  0  0  0  0
    6.0847    7.9272    2.1423 C   0  0  0  0  0  0  0  0  0  0  0  0
    6.5241    7.1112    2.0613 H   0  0  0  0  0  0  0  0  0  0  0  0
    5.5755    8.5323    1.0214 C   0  0  0  0  0  0  0  0  0  0  0  0
    5.6624    8.1246    0.1899 H   0  0  0  0  0  0  0  0  0  0  0  0
    4.9402    9.7333    1.1303 C   0  0  0  0  0  0  0  0  0  0  0  0
    4.6065   10.1421    0.3652 H   0  0  0  0  0  0  0  0  0  0  0  0
    4.7835   10.3521    2.3468 C   0  0  0  0  0  0  0  0  0  0  0  0
    6.5450    7.7715    4.6060 C   0  0  0  0  0  0  0  0  0  0  0  0
    6.0395    8.0671    5.3923 H   0  0  0  0  0  0  0  0  0  0  0  0
    7.9927    8.1860    4.8371 C   0  0  0  0  0  0  0  0  0  0  0  0
    8.3279    7.7539    5.6261 H   0  0  0  0  0  0  0  0  0  0  0  0
    8.0395    9.1386    4.9487 H   0  0  0  0  0  0  0  0  0  0  0  0
    8.5249    7.9271    4.0801 H   0  0  0  0  0  0  0  0  0  0  0  0
    6.4240    6.2699    4.5569 C   0  0  0  0  0  0  0  0  0  0  0  0
    6.9977    5.9258    3.8689 H   0  0  0  0  0  0  0  0  0  0  0  0
    5.5147    6.0281    4.3656 H   0  0  0  0  0  0  0  0  0  0  0  0
    6.6810    5.9005    5.4043 H   0  0  0  0  0  0  0  0  0  0  0  0
    3.9808   11.6500    2.3880 C   0  0  0  0  0  0  0  0  0  0  0  0
    4.2712   12.1256    3.1942 H   0  0  0  0  0  0  0  0  0  0  0  0
    4.2696   12.5864    1.2073 C   0  0  0  0  0  0  0  0  0  0  0  0
    3.8821   12.2226    0.4077 H   0  0  0  0  0  0  0  0  0  0  0  0
    5.2190   12.6710    1.0917 H   0  0  0  0  0  0  0  0  0  0  0  0
    3.8905   13.4497    1.3839 H   0  0  0  0  0  0  0  0  0  0  0  0
    2.5241   11.3809    2.5647 C   0  0  0  0  0  0  0  0  0  0  0  0
    2.2259   10.7742    1.8820 H   0  0  0  0  0  0  0  0  0  0  0  0
    2.0355   12.2050    2.4956 H   0  0  0  0  0  0  0  0  0  0  0  0
    2.3735   10.9906    3.4280 H   0  0  0  0  0  0  0  0  0  0  0  0
    3.4411    6.7596   11.3398 C   0  0  0  0  0  0  0  0  0  0  0  0
    3.7757    6.0326   11.8126 H   0  0  0  0  0  0  0  0  0  0  0  0
    2.3489    7.4587   11.6785 C   0  0  0  0  0  0  0  0  0  0  0  0
    1.8072    7.3241   12.4222 H   0  0  0  0  0  0  0  0  0  0  0  0
    2.1955    8.4219   10.6916 C   0  0  0  0  0  0  0  0  0  0  0  0
    1.1420    9.4417   10.6345 C   0  0  0  0  0  0  0  0  0  0  0  0
    1.3864   10.7568   10.3676 C   0  0  0  0  0  0  0  0  0  0  0  0
    2.2412   11.0326   10.1245 H   0  0  0  0  0  0  0  0  0  0  0  0
    0.3641   11.6749   10.4605 C   0  0  0  0  0  0  0  0  0  0  0  0
    0.5397   12.5735   10.2958 H   0  0  0  0  0  0  0  0  0  0  0  0
   -0.8924   11.2890   10.7886 C   0  0  0  0  0  0  0  0  0  0  0  0
   -1.5723   11.9223   10.8231 H   0  0  0  0  0  0  0  0  0  0  0  0
   -1.1713    9.9988   11.0662 C   0  0  0  0  0  0  0  0  0  0  0  0
   -2.0309    9.7366   11.3039 H   0  0  0  0  0  0  0  0  0  0  0  0
   -0.1418    9.0726   10.9865 C   0  0  0  0  0  0  0  0  0  0  0  0
   -0.3214    8.1802   11.1751 H   0  0  0  0  0  0  0  0  0  0  0  0
    7.3126    9.0743    8.0818 C   0  0  0  0  0  0  0  0  0  0  0  0
    7.4995    9.7736    7.4974 H   0  0  0  0  0  0  0  0  0  0  0  0
    8.2617    8.4170    8.8588 C   0  0  0  0  0  0  0  0  0  0  0  0
    9.1743    8.5906    8.9000 H   0  0  0  0  0  0  0  0  0  0  0  0
    7.5676    7.4655    9.5468 C   0  0  0  0  0  0  0  0  0  0  0  0
    8.0832    6.5501   10.5522 C   0  0  0  0  0  0  0  0  0  0  0  0
    9.2824    5.9083   10.3516 C   0  0  0  0  0  0  0  0  0  0  0  0
    9.7488    6.0565    9.5627 H   0  0  0  0  0  0  0  0  0  0  0  0
    9.8063    5.0542   11.2920 C   0  0  0  0  0  0  0  0  0  0  0  0
   10.6128    4.6219   11.1286 H   0  0  0  0  0  0  0  0  0  0  0  0
    9.1444    4.8384   12.4621 C   0  0  0  0  0  0  0  0  0  0  0  0
    9.4875    4.2431   13.0876 H   0  0  0  0  0  0  0  0  0  0  0  0
    7.9724    5.5013   12.7171 C   0  0  0  0  0  0  0  0  0  0  0  0
    7.5367    5.3859   13.5299 H   0  0  0  0  0  0  0  0  0  0  0  0
    7.4471    6.3372   11.7661 C   0  0  0  0  0  0  0  0  0  0  0  0
    6.6425    6.7729   11.9401 H   0  0  0  0  0  0  0  0  0  0  0  0
    4.4019    4.7779    7.7989 C   0  0  0  0  0  0  0  0  0  0  0  0
    4.7694    4.0782    8.2877 H   0  0  0  0  0  0  0  0  0  0  0  0
    3.6816    4.6379    6.6806 C   0  0  0  0  0  0  0  0  0  0  0  0
    3.4439    3.8413    6.2622 H   0  0  0  0  0  0  0  0  0  0  0  0
    3.3625    5.9278    6.2715 C   0  0  0  0  0  0  0  0  0  0  0  0
    2.5853    6.2898    5.0696 C   0  0  0  0  0  0  0  0  0  0  0  0
    2.8633    7.4265    4.3537 C   0  0  0  0  0  0  0  0  0  0  0  0
    3.5047    8.0279    4.6565 H   0  0  0  0  0  0  0  0  0  0  0  0
    2.1835    7.6659    3.1849 C   0  0  0  0  0  0  0  0  0  0  0  0
    2.4036    8.4206    2.6869 H   0  0  0  0  0  0  0  0  0  0  0  0
    1.2157    6.8529    2.7320 C   0  0  0  0  0  0  0  0  0  0  0  0
    0.7546    7.0554    1.9497 H   0  0  0  0  0  0  0  0  0  0  0  0
    0.9132    5.7022    3.4545 C   0  0  0  0  0  0  0  0  0  0  0  0
    0.2545    5.1186    3.1544 H   0  0  0  0  0  0  0  0  0  0  0  0
    1.5983    5.4349    4.6180 C   0  0  0  0  0  0  0  0  0  0  0  0
    1.3959    4.6687    5.1054 H   0  0  0  0  0  0  0  0  0  0  0  0
    1.5365    9.2621    7.0127 O   0  0  0  0  0  0  0  0  0  0  0  0
    0.6075    8.2076    7.3075 C   0  0  0  0  0  0  0  0  0  0  0  0
    0.2138    8.3304    8.1867 H   0  0  0  0  0  0  0  0  0  0  0  0
    1.0464    7.3438    7.2783 H   0  0  0  0  0  0  0  0  0  0  0  0
    0.8135   10.2830    6.3167 C   0  0  0  0  0  0  0  0  0  0  0  0
    1.1711   10.3975    5.4229 H   0  0  0  0  0  0  0  0  0  0  0  0
    0.8872   11.1278    6.7882 H   0  0  0  0  0  0  0  0  0  0  0  0
   -0.6154    9.8503    6.2516 C   0  0  0  0  0  0  0  0  0  0  0  0
   -1.0499   10.1662    5.4441 H   0  0  0  0  0  0  0  0  0  0  0  0
   -1.1165   10.1478    7.0273 H   0  0  0  0  0  0  0  0  0  0  0  0
   -0.4369    8.3085    6.2423 C   0  0  0  0  0  0  0  0  0  0  0  0
   -0.1170    7.9834    5.3857 H   0  0  0  0  0  0  0  0  0  0  0  0
    5.1049    6.6071    9.4246 B   0  0  0  0  0  0  0  0  0  0  0  0
    5.4645    5.7656   10.0276 H   0  0  0  0  0  0  0  0  0  0  0  0
   -1.2523    7.8444    6.4840 H   0  0  0  0  0  0  0  0  0  0  0  0
  1  2  1  0  0  0  0
  2  9  1  0  0  0  0
  3  1  1  0  0  0  0
  4  3  1  0  0  0  0
  5  1  1  0  0  0  0
  6  5  1  0  0  0  0
  7  1  1  0  0  0  0
  8  7  1  0  0  0  0
  9 10  4  0  0  0  0
 10 11  4  0  0  0  0
 11 12  1  0  0  0  0
 13 11  4  0  0  0  0
 14 13  1  0  0  0  0
 15 13  4  0  0  0  0
 16 15  1  0  0  0  0
 17  9  4  0  0  0  0
 18 10  1  0  0  0  0
 19 18  1  0  0  0  0
 20 18  1  0  0  0  0
 21 20  1  0  0  0  0
 22 20  1  0  0  0  0
 23 20  1  0  0  0  0
 24 18  1  0  0  0  0
 25 24  1  0  0  0  0
 26 24  1  0  0  0  0
 27 24  1  0  0  0  0
 28 17  1  0  0  0  0
 29 28  1  0  0  0  0
 30 28  1  0  0  0  0
 31 30  1  0  0  0  0
 32 30  1  0  0  0  0
 33 30  1  0  0  0  0
 34 28  1  0  0  0  0
 35 34  1  0  0  0  0
 36 34  1  0  0  0  0
 37 34  1  0  0  0  0
 38  4  1  0  0  0  0
 39 38  1  0  0  0  0
 40 38  2  0  0  0  0
 41 40  1  0  0  0  0
 42  3  2  0  0  0  0
 43 42  1  0  0  0  0
 44 43  4  0  0  0  0
 45 44  1  0  0  0  0
 46 44  4  0  0  0  0
 47 46  1  0  0  0  0
 48 46  4  0  0  0  0
 49 48  1  0  0  0  0
 50 48  4  0  0  0  0
 51 50  1  0  0  0  0
 52 43  4  0  0  0  0
 53 52  1  0  0  0  0
 54  5  2  0  0  0  0
 55 54  1  0  0  0  0
 56 54  1  0  0  0  0
 57 56  1  0  0  0  0
 58  6  1  0  0  0  0
 59 58  1  0  0  0  0
 60 59  4  0  0  0  0
 61 60  1  0  0  0  0
 62 60  4  0  0  0  0
 63 62  1  0  0  0  0
 64 62  4  0  0  0  0
 65 64  1  0  0  0  0
 66 64  4  0  0  0  0
 67 66  1  0  0  0  0
 68 59  4  0  0  0  0
 69 68  1  0  0  0  0
 70  8  1  0  0  0  0
 71 70  1  0  0  0  0
 72 70  2  0  0  0  0
 73 72  1  0  0  0  0
 74  7  2  0  0  0  0
 75 74  1  0  0  0  0
 76 75  4  0  0  0  0
 77 76  1  0  0  0  0
 78 76  4  0  0  0  0
 79 78  1  0  0  0  0
 80 78  4  0  0  0  0
 81 80  1  0  0  0  0
 82 80  4  0  0  0  0
 83 82  1  0  0  0  0
 84 75  4  0  0  0  0
 85 84  1  0  0  0  0
 86  1  1  0  0  0  0
 87 86  1  0  0  0  0
 88 87  1  0  0  0  0
 89 87  1  0  0  0  0
 90 86  1  0  0  0  0
 91 90  1  0  0  0  0
 92 90  1  0  0  0  0
 93 90  1  0  0  0  0
 94 93  1  0  0  0  0
 95 93  1  0  0  0  0
 96 87  1  0  0  0  0
 97 96  1  0  0  0  0
 98  4  1  0  0  0  0
 99 98  1  0  0  0  0
100 96  1  0  0  0  0
101  2  1  0  0  0  0
102  1  1  0  0  0  0
103101  1  0  0  0  0
104103  1  0  0  0  0
105101  1  0  0  0  0
106105  1  0  0  0  0
107101  1  0  0  0  0
108107  1  0  0  0  0
109102  1  0  0  0  0
110109  4  0  0  0  0
111110  4  0  0  0  0
112111  1  0  0  0  0
113111  4  0  0  0  0
114113  1  0  0  0  0
115113  4  0  0  0  0
116115  1  0  0  0  0
117109  4  0  0  0  0
118110  1  0  0  0  0
119118  1  0  0  0  0
120118  1  0  0  0  0
121120  1  0  0  0  0
122120  1  0  0  0  0
123120  1  0  0  0  0
124118  1  0  0  0  0
125124  1  0  0  0  0
126124  1  0  0  0  0
127124  1  0  0  0  0
128117  1  0  0  0  0
129128  1  0  0  0  0
130128  1  0  0  0  0
131130  1  0  0  0  0
132130  1  0  0  0  0
133130  1  0  0  0  0
134128  1  0  0  0  0
135134  1  0  0  0  0
136134  1  0  0  0  0
137134  1  0  0  0  0
138104  1  0  0  0  0
139138  1  0  0  0  0
140138  2  0  0  0  0
141140  1  0  0  0  0
142103  2  0  0  0  0
143142  1  0  0  0  0
144143  4  0  0  0  0
145144  1  0  0  0  0
146144  4  0  0  0  0
147146  1  0  0  0  0
148146  4  0  0  0  0
149148  1  0  0  0  0
150148  4  0  0  0  0
151150  1  0  0  0  0
152143  4  0  0  0  0
153152  1  0  0  0  0
154105  2  0  0  0  0
155154  1  0  0  0  0
156154  1  0  0  0  0
157156  1  0  0  0  0
158106  1  0  0  0  0
159158  1  0  0  0  0
160159  4  0  0  0  0
161160  1  0  0  0  0
162160  4  0  0  0  0
163162  1  0  0  0  0
164162  4  0  0  0  0
165164  1  0  0  0  0
166164  4  0  0  0  0
167166  1  0  0  0  0
168159  4  0  0  0  0
169168  1  0  0  0  0
170108  1  0  0  0  0
171170  1  0  0  0  0
172170  2  0  0  0  0
173172  1  0  0  0  0
174107  2  0  0  0  0
175174  1  0  0  0  0
176175  4  0  0  0  0
177176  1  0  0  0  0
178176  4  0  0  0  0
179178  1  0  0  0  0
180178  4  0  0  0  0
181180  1  0  0  0  0
182180  4  0  0  0  0
183182  1  0  0  0  0
184175  4  0  0  0  0
185184  1  0  0  0  0
186101  1  0  0  0  0
187186  1  0  0  0  0
188187  1  0  0  0  0
189187  1  0  0  0  0
190186  1  0  0  0  0
191190  1  0  0  0  0
192190  1  0  0  0  0
193190  1  0  0  0  0
194193  1  0  0  0  0
195193  1  0  0  0  0
196187  1  0  0  0  0
197196  1  0  0  0  0
198104  1  0  0  0  0
199198  1  0  0  0  0
200196  1  0  0  0  0
  6 98  1  0  0  0  0
  8 98  1  0  0  0  0
 15 17  4  0  0  0  0
 40 42  1  0  0  0  0
 50 52  4  0  0  0  0
 56 58  2  0  0  0  0
 66 68  4  0  0  0  0
 72 74  1  0  0  0  0
 82 84  4  0  0  0  0
 93 96  1  0  0  0  0
101102  1  0  0  0  0
106198  1  0  0  0  0
108198  1  0  0  0  0
115117  4  0  0  0  0
140142  1  0  0  0  0
150152  4  0  0  0  0
156158  2  0  0  0  0
166168  4  0  0  0  0
172174  1  0  0  0  0
182184  4  0  0  0  0
193196  1  0  0  0  0
M  END
$$$$
TAFNAP

From CSD data. Using bond type 'Any'. No disordered atoms. Largest molecule.
 92111  0  0  0  0  0  0  0  0999 V2000
    0.0000    4.4238    0.0000 Ir  0  0  0  0  0  0  0  0  0  0  0  0
   -0.6675    3.1744   -1.9769 P   0  0  0  0  0  0  0  0  0  0  0  0
    0.2460    2.7352    1.6454 P   0  0  0  0  0  0  0  0  0  0  0  0
    0.5380    1.8177   -2.3286 C   0  0  0  0  0  0  0  0  0  0  0  0
    0.3785    0.5768   -1.7120 C   0  0  0  0  0  0  0  0  0  0  0  0
    1.3866   -0.3823   -1.8049 C   0  0  0  0  0  0  0  0  0  0  0  0
    2.5531   -0.1027   -2.5161 C   0  0  0  0  0  0  0  0  0  0  0  0
    2.7126    1.1382   -3.1327 C   0  0  0  0  0  0  0  0  0  0  0  0
    1.7046    2.0995   -3.0397 C   0  0  0  0  0  0  0  0  0  0  0  0
   -0.6208    4.1793   -3.5278 C   0  0  0  0  0  0  0  0  0  0  0  0
    0.4815    5.0030   -3.7586 C   0  0  0  0  0  0  0  0  0  0  0  0
    0.5819    5.7152   -4.9531 C   0  0  0  0  0  0  0  0  0  0  0  0
   -0.4200    5.6038   -5.9183 C   0  0  0  0  0  0  0  0  0  0  0  0
   -1.5224    4.7801   -5.6875 C   0  0  0  0  0  0  0  0  0  0  0  0
   -1.6228    4.0679   -4.4930 C   0  0  0  0  0  0  0  0  0  0  0  0
   -2.2785    2.3136   -2.1520 C   0  0  0  0  0  0  0  0  0  0  0  0
   -3.4053    2.7942   -1.4827 C   0  0  0  0  0  0  0  0  0  0  0  0
   -4.6331    2.1476   -1.6330 C   0  0  0  0  0  0  0  0  0  0  0  0
   -4.7341    1.0224   -2.4510 C   0  0  0  0  0  0  0  0  0  0  0  0
   -3.6084    0.5440   -3.1203 C   0  0  0  0  0  0  0  0  0  0  0  0
   -2.3806    1.1885   -2.9716 C   0  0  0  0  0  0  0  0  0  0  0  0
    2.0123    2.2830    1.8886 C   0  0  0  0  0  0  0  0  0  0  0  0
    2.7143    2.5343    3.0661 C   0  0  0  0  0  0  0  0  0  0  0  0
    4.0457    2.1388    3.1838 C   0  0  0  0  0  0  0  0  0  0  0  0
    4.6762    1.4878    2.1225 C   0  0  0  0  0  0  0  0  0  0  0  0
    3.9744    1.2365    0.9435 C   0  0  0  0  0  0  0  0  0  0  0  0
    2.6419    1.6342    0.8258 C   0  0  0  0  0  0  0  0  0  0  0  0
   -0.5878    1.1273    1.4300 C   0  0  0  0  0  0  0  0  0  0  0  0
   -1.9077    1.1470    0.9792 C   0  0  0  0  0  0  0  0  0  0  0  0
   -2.5904   -0.0502    0.7685 C   0  0  0  0  0  0  0  0  0  0  0  0
   -1.9531   -1.2693    1.0070 C   0  0  0  0  0  0  0  0  0  0  0  0
   -0.6331   -1.2868    1.4579 C   0  0  0  0  0  0  0  0  0  0  0  0
    0.0496   -0.0896    1.6686 C   0  0  0  0  0  0  0  0  0  0  0  0
   -0.3442    3.2355    3.3124 C   0  0  0  0  0  0  0  0  0  0  0  0
   -1.3393    2.5037    3.9600 C   0  0  0  0  0  0  0  0  0  0  0  0
   -1.7827    2.8947    5.2227 C   0  0  0  0  0  0  0  0  0  0  0  0
   -1.2311    4.0198    5.8378 C   0  0  0  0  0  0  0  0  0  0  0  0
   -0.2360    4.7517    5.1902 C   0  0  0  0  0  0  0  0  0  0  0  0
    0.2075    4.3607    3.9275 C   0  0  0  0  0  0  0  0  0  0  0  0
    1.7627    4.3366   -0.5980 C   0  0  0  0  0  0  0  0  0  0  0  0
    2.8769    4.4022   -0.9482 O   0  0  0  0  0  0  0  0  0  0  0  0
   -1.6194    7.5285   -0.5577 B   0  0  0  0  0  0  0  0  0  0  0  0
   -1.8850    7.9785    1.0985 B   0  0  0  0  0  0  0  0  0  0  0  0
   -2.7559    6.6327    0.4818 B   0  0  0  0  0  0  0  0  0  0  0  0
   -1.6692    5.7763   -0.6724 B   0  0  0  0  0  0  0  0  0  0  0  0
   -0.2240    8.0266    0.4756 B   0  0  0  0  0  0  0  0  0  0  0  0
   -0.6128    7.5416    2.0652 C   0  0  0  0  0  0  0  0  0  0  0  0
   -2.0577    6.5410    2.1210 B   0  0  0  0  0  0  0  0  0  0  0  0
   -2.0097    5.0139    0.9435 B   0  0  0  0  0  0  0  0  0  0  0  0
   -0.0798    6.6087   -0.7886 B   0  0  0  0  0  0  0  0  0  0  0  0
   -0.5252    0.3605   -1.1604 H   0  0  0  0  0  0  0  0  0  0  0  0
    1.2626   -1.3436   -1.3278 H   0  0  0  0  0  0  0  0  0  0  0  0
    3.3327   -0.8455   -2.5889 H   0  0  0  0  0  0  0  0  0  0  0  0
    3.6163    1.3567   -3.6842 H   0  0  0  0  0  0  0  0  0  0  0  0
    1.8285    3.0608   -3.5169 H   0  0  0  0  0  0  0  0  0  0  0  0
    1.2564    5.0882   -3.0118 H   0  0  0  0  0  0  0  0  0  0  0  0
    1.4346    6.3531   -5.1313 H   0  0  0  0  0  0  0  0  0  0  0  0
   -0.3421    6.1565   -6.8433 H   0  0  0  0  0  0  0  0  0  0  0  0
   -2.2971    4.6949   -6.4358 H   0  0  0  0  0  0  0  0  0  0  0  0
   -2.4755    3.4300   -4.3148 H   0  0  0  0  0  0  0  0  0  0  0  0
   -3.3268    3.6637   -0.8490 H   0  0  0  0  0  0  0  0  0  0  0  0
   -5.5045    2.5190   -1.1139 H   0  0  0  0  0  0  0  0  0  0  0  0
   -5.6850    0.5243   -2.5672 H   0  0  0  0  0  0  0  0  0  0  0  0
   -3.6869   -0.3277   -3.7555 H   0  0  0  0  0  0  0  0  0  0  0  0
   -1.5092    0.8193   -3.4906 H   0  0  0  0  0  0  0  0  0  0  0  0
    2.2264    3.0389    3.8887 H   0  0  0  0  0  0  0  0  0  0  0  0
    4.5895    2.3333    4.0964 H   0  0  0  0  0  0  0  0  0  0  0  0
    5.7079    1.1819    2.2140 H   0  0  0  0  0  0  0  0  0  0  0  0
    4.4623    0.7341    0.1208 H   0  0  0  0  0  0  0  0  0  0  0  0
    2.0991    1.4397   -0.0868 H   0  0  0  0  0  0  0  0  0  0  0  0
   -2.4008    2.0908    0.7932 H   0  0  0  0  0  0  0  0  0  0  0  0
   -3.6126   -0.0350    0.4183 H   0  0  0  0  0  0  0  0  0  0  0  0
   -2.4812   -2.1956    0.8444 H   0  0  0  0  0  0  0  0  0  0  0  0
   -0.1389   -2.2306    1.6438 H   0  0  0  0  0  0  0  0  0  0  0  0
    1.0718   -0.1049    2.0187 H   0  0  0  0  0  0  0  0  0  0  0  0
   -1.7660    1.6342    3.4828 H   0  0  0  0  0  0  0  0  0  0  0  0
   -2.5538    2.3289    5.7247 H   0  0  0  0  0  0  0  0  0  0  0  0
   -1.5754    4.3213    6.8169 H   0  0  0  0  0  0  0  0  0  0  0  0
    0.1908    5.6212    5.6673 H   0  0  0  0  0  0  0  0  0  0  0  0
    0.9775    4.9265    3.4255 H   0  0  0  0  0  0  0  0  0  0  0  0
   -1.8890    8.1315   -1.3370 H   0  0  0  0  0  0  0  0  0  0  0  0
   -2.2992    8.9398    1.2906 H   0  0  0  0  0  0  0  0  0  0  0  0
   -3.8924    6.7048    0.2216 H   0  0  0  0  0  0  0  0  0  0  0  0
   -2.1185    5.2848   -1.6314 H   0  0  0  0  0  0  0  0  0  0  0  0
    0.0628    9.0643    0.1503 H   0  0  0  0  0  0  0  0  0  0  0  0
   -0.1540    6.9910    1.9351 H   0  0  0  0  0  0  0  0  0  0  0  0
   -0.4337    8.0637    2.8027 H   0  0  0  0  0  0  0  0  0  0  0  0
   -2.4268    6.6568    3.1668 H   0  0  0  0  0  0  0  0  0  0  0  0
   -2.7986    4.2645    1.1930 H   0  0  0  0  0  0  0  0  0  0  0  0
    0.2733    6.8468   -1.7817 H   0  0  0  0  0  0  0  0  0  0  0  0
   -1.4623    5.3962    2.1194 H   0  0  0  0  0  0  0  0  0  0  0  0
    0.5787    7.1440    0.1875 H   0  0  0  0  0  0  0  0  0  0  0  0
  1  2  1  0  0  0  0
  2  4  1  0  0  0  0
  3  1  1  0  0  0  0
  4  5  4  0  0  0  0
  5  6  4  0  0  0  0
  6  7  4  0  0  0  0
  7  8  4  0  0  0  0
  8  9  4  0  0  0  0
  9  4  4  0  0  0  0
 10  2  1  0  0  0  0
 11 10  4  0  0  0  0
 12 11  4  0  0  0  0
 13 12  4  0  0  0  0
 14 13  4  0  0  0  0
 15 10  4  0  0  0  0
 16  2  1  0  0  0  0
 17 16  4  0  0  0  0
 18 17  4  0  0  0  0
 19 18  4  0  0  0  0
 20 19  4  0  0  0  0
 21 16  4  0  0  0  0
 22  3  1  0  0  0  0
 23 22  4  0  0  0  0
 24 23  4  0  0  0  0
 25 24  4  0  0  0  0
 26 25  4  0  0  0  0
 27 22  4  0  0  0  0
 28  3  1  0  0  0  0
 29 28  4  0  0  0  0
 30 29  4  0  0  0  0
 31 30  4  0  0  0  0
 32 31  4  0  0  0  0
 33 28  4  0  0  0  0
 34  3  1  0  0  0  0
 35 34  4  0  0  0  0
 36 35  4  0  0  0  0
 37 36  4  0  0  0  0
 38 37  4  0  0  0  0
 39 34  4  0  0  0  0
 40  1  1  0  0  0  0
 41 40  3  0  0  0  0
 42 43  1  0  0  0  0
 43 44  1  0  0  0  0
 44 42  1  0  0  0  0
 45  1  1  0  0  0  0
 46 42  1  0  0  0  0
 47 43  1  0  0  0  0
 48 43  1  0  0  0  0
 49  1  1  0  0  0  0
 50  1  1  0  0  0  0
 51  5  1  0  0  0  0
 52  6  1  0  0  0  0
 53  7  1  0  0  0  0
 54  8  1  0  0  0  0
 55  9  1  0  0  0  0
 56 11  1  0  0  0  0
 57 12  1  0  0  0  0
 58 13  1  0  0  0  0
 59 14  1  0  0  0  0
 60 15  1  0  0  0  0
 61 17  1  0  0  0  0
 62 18  1  0  0  0  0
 63 19  1  0  0  0  0
 64 20  1  0  0  0  0
 65 21  1  0  0  0  0
 66 23  1  0  0  0  0
 67 24  1  0  0  0  0
 68 25  1  0  0  0  0
 69 26  1  0  0  0  0
 70 27  1  0  0  0  0
 71 29  1  0  0  0  0
 72 30  1  0  0  0  0
 73 31  1  0  0  0  0
 74 32  1  0  0  0  0
 75 33  1  0  0  0  0
 76 35  1  0  0  0  0
 77 36  1  0  0  0  0
 78 37  1  0  0  0  0
 79 38  1  0  0  0  0
 80 39  1  0  0  0  0
 81 42  1  0  0  0  0
 82 43  1  0  0  0  0
 83 44  1  0  0  0  0
 84 45  1  0  0  0  0
 85 46  1  0  0  0  0
 86 47  1  0  0  0  0
 87 47  1  0  0  0  0
 88 48  1  0  0  0  0
 89 49  1  0  0  0  0
 90 50  1  0  0  0  0
 91 48  1  0  0  0  0
 92 46  1  0  0  0  0
 14 15  4  0  0  0  0
 20 21  4  0  0  0  0
 26 27  4  0  0  0  0
 32 33  4  0  0  0  0
 38 39  4  0  0  0  0
 42 45  1  0  0  0  0
 42 50  1  0  0  0  0
 43 46  1  0  0  0  0
 44 45  1  0  0  0  0
 44 48  1  0  0  0  0
 44 49  1  0  0  0  0
 45 49  1  0  0  0  0
 45 50  1  0  0  0  0
 46 47  1  0  0  0  0
 46 50  1  0  0  0  0
 47 48  1  0  0  0  0
 48 49  1  0  0  0  0
 49 91  1  0  0  0  0
 50 92  1  0  0  0  0
M  END
$$$$
TAHMAT

From CSD data. Using bond type 'Any'. No disordered atoms. Largest molecule.
100104  0  0  0  0  0  0  0  0999 V2000
    7.1172    4.0079    0.6416 C   0  0  0  0  0  0  0  0  0  0  0  0
    6.4041    3.8020    2.7636 C   0  0  0  0  0  0  0  0  0  0  0  0
    6.3617    3.5392    3.6760 H   0  0  0  0  0  0  0  0  0  0  0  0
    5.5254    4.5692    2.1301 C   0  0  0  0  0  0  0  0  0  0  0  0
    4.7428    4.9527    2.5089 H   0  0  0  0  0  0  0  0  0  0  0  0
    9.6462    3.6189    3.5412 C   0  0  0  0  0  0  0  0  0  0  0  0
    8.9763    3.9027    4.8590 C   0  0  0  0  0  0  0  0  0  0  0  0
    8.8251    3.0594    5.3365 H   0  0  0  0  0  0  0  0  0  0  0  0
    8.1190    4.3474    4.6990 H   0  0  0  0  0  0  0  0  0  0  0  0
    9.5519    4.4840    5.3979 H   0  0  0  0  0  0  0  0  0  0  0  0
   11.0055    3.0192    3.7867 C   0  0  0  0  0  0  0  0  0  0  0  0
   11.5453    3.6388    4.3202 H   0  0  0  0  0  0  0  0  0  0  0  0
   11.4494    2.8528    2.9290 H   0  0  0  0  0  0  0  0  0  0  0  0
   10.9062    2.1737    4.2722 H   0  0  0  0  0  0  0  0  0  0  0  0
    9.7248    5.0032    2.8343 C   0  0  0  0  0  0  0  0  0  0  0  0
    8.8269    5.3881    2.7703 H   0  0  0  0  0  0  0  0  0  0  0  0
   10.0960    4.8899    1.9340 H   0  0  0  0  0  0  0  0  0  0  0  0
   10.3016    5.6022    3.3518 H   0  0  0  0  0  0  0  0  0  0  0  0
    8.0969    0.9739    3.0477 C   0  0  0  0  0  0  0  0  0  0  0  0
    9.2967    0.2587    3.7013 C   0  0  0  0  0  0  0  0  0  0  0  0
    9.5504    0.7307    4.5216 H   0  0  0  0  0  0  0  0  0  0  0  0
   10.0529    0.2546    3.0784 H   0  0  0  0  0  0  0  0  0  0  0  0
    9.0473   -0.6643    3.9200 H   0  0  0  0  0  0  0  0  0  0  0  0
    6.9800    1.0677    4.0668 C   0  0  0  0  0  0  0  0  0  0  0  0
    6.1403    1.2880    3.6106 H   0  0  0  0  0  0  0  0  0  0  0  0
    7.1906    1.7677    4.7177 H   0  0  0  0  0  0  0  0  0  0  0  0
    6.8861    0.2104    4.5283 H   0  0  0  0  0  0  0  0  0  0  0  0
    7.6366    0.1399    1.8513 C   0  0  0  0  0  0  0  0  0  0  0  0
    7.3907   -0.7602    2.1554 H   0  0  0  0  0  0  0  0  0  0  0  0
    8.3639    0.0775    1.1978 H   0  0  0  0  0  0  0  0  0  0  0  0
    6.8594    0.5683    1.4352 H   0  0  0  0  0  0  0  0  0  0  0  0
    3.4842    4.7172   -0.5469 C   0  0  0  0  0  0  0  0  0  0  0  0
    3.8951    3.3167   -1.0230 C   0  0  0  0  0  0  0  0  0  0  0  0
    4.3415    2.8417   -0.2908 H   0  0  0  0  0  0  0  0  0  0  0  0
    4.5068    3.3953   -1.7833 H   0  0  0  0  0  0  0  0  0  0  0  0
    3.0966    2.8195   -1.2965 H   0  0  0  0  0  0  0  0  0  0  0  0
    2.5804    4.5685    0.6549 C   0  0  0  0  0  0  0  0  0  0  0  0
    2.3634    5.4546    1.0110 H   0  0  0  0  0  0  0  0  0  0  0  0
    3.0363    4.0411    1.3445 H   0  0  0  0  0  0  0  0  0  0  0  0
    1.7554    4.1112    0.3881 H   0  0  0  0  0  0  0  0  0  0  0  0
    2.7108    5.3874   -1.6873 C   0  0  0  0  0  0  0  0  0  0  0  0
    1.9430    4.8309   -1.9327 H   0  0  0  0  0  0  0  0  0  0  0  0
    3.2984    5.4952   -2.4622 H   0  0  0  0  0  0  0  0  0  0  0  0
    2.3931    6.2665   -1.3925 H   0  0  0  0  0  0  0  0  0  0  0  0
    4.9083    7.3393    0.4415 C   0  0  0  0  0  0  0  0  0  0  0  0
    4.5561    8.2881   -0.7376 C   0  0  0  0  0  0  0  0  0  0  0  0
    3.7193    7.9936   -1.1537 H   0  0  0  0  0  0  0  0  0  0  0  0
    5.2760    8.2667   -1.4005 H   0  0  0  0  0  0  0  0  0  0  0  0
    4.4483    9.2004   -0.4001 H   0  0  0  0  0  0  0  0  0  0  0  0
    6.2879    7.7250    0.9417 C   0  0  0  0  0  0  0  0  0  0  0  0
    6.2573    8.6284    1.3178 H   0  0  0  0  0  0  0  0  0  0  0  0
    6.9238    7.7021    0.1961 H   0  0  0  0  0  0  0  0  0  0  0  0
    6.5727    7.0931    1.6339 H   0  0  0  0  0  0  0  0  0  0  0  0
    3.8385    7.5342    1.4739 C   0  0  0  0  0  0  0  0  0  0  0  0
    2.9697    7.2850    1.0937 H   0  0  0  0  0  0  0  0  0  0  0  0
    3.8174    8.4734    1.7486 H   0  0  0  0  0  0  0  0  0  0  0  0
    4.0290    6.9714    2.2515 H   0  0  0  0  0  0  0  0  0  0  0  0
    6.0231    5.0143   -3.9561 C   0  0  0  0  0  0  0  0  0  0  0  0
    5.4591    3.8492   -4.4509 C   0  0  0  0  0  0  0  0  0  0  0  0
    4.4530    3.8448   -5.3992 C   0  0  0  0  0  0  0  0  0  0  0  0
    3.9829    5.0272   -5.9034 C   0  0  0  0  0  0  0  0  0  0  0  0
    4.5198    6.1963   -5.4633 C   0  0  0  0  0  0  0  0  0  0  0  0
    5.5134    6.1853   -4.5016 C   0  0  0  0  0  0  0  0  0  0  0  0
    9.6182    7.5367   -1.4712 C   0  0  0  0  0  0  0  0  0  0  0  0
    9.0997    8.7771   -1.8340 C   0  0  0  0  0  0  0  0  0  0  0  0
    9.8151    9.9584   -1.7326 C   0  0  0  0  0  0  0  0  0  0  0  0
   11.1024    9.9193   -1.2831 C   0  0  0  0  0  0  0  0  0  0  0  0
   11.6769    8.7214   -0.9363 C   0  0  0  0  0  0  0  0  0  0  0  0
   10.9224    7.5644   -1.0177 C   0  0  0  0  0  0  0  0  0  0  0  0
    8.9870    2.6730   -0.9110 C   0  0  0  0  0  0  0  0  0  0  0  0
   10.3857    2.6409   -0.9110 C   0  0  0  0  0  0  0  0  0  0  0  0
   11.0856    1.4969   -1.1924 C   0  0  0  0  0  0  0  0  0  0  0  0
   10.4634    0.3620   -1.4965 C   0  0  0  0  0  0  0  0  0  0  0  0
    9.0864    0.3270   -1.5192 C   0  0  0  0  0  0  0  0  0  0  0  0
    8.3915    1.4714   -1.2178 C   0  0  0  0  0  0  0  0  0  0  0  0
    8.0501    4.0119   -0.7429 B   0  5  0  0  0  0  0  0  0  0  0  0
    7.0877    5.0187   -2.7743 B   0  0  0  0  0  0  0  0  0  0  0  0
    8.7698    6.2045   -1.6072 B   0  0  0  0  0  0  0  0  0  0  0  0
    7.4004    3.4528    1.8516 N   0  3  0  0  0  0  0  0  0  0  0  0
    5.9497    4.7102    0.8212 N   0  0  0  0  0  0  0  0  0  0  0  0
    5.8745    2.6583   -4.0210 F   0  0  0  0  0  0  0  0  0  0  0  0
    3.9471    2.6786   -5.8501 F   0  0  0  0  0  0  0  0  0  0  0  0
    3.0179    5.0276   -6.8281 F   0  0  0  0  0  0  0  0  0  0  0  0
    4.0930    7.3644   -5.9800 F   0  0  0  0  0  0  0  0  0  0  0  0
    5.9692    7.3825   -4.0993 F   0  0  0  0  0  0  0  0  0  0  0  0
    7.8266    8.8782   -2.2763 F   0  0  0  0  0  0  0  0  0  0  0  0
    9.2594   11.1217   -2.0834 F   0  0  0  0  0  0  0  0  0  0  0  0
   11.8184   11.0575   -1.1891 F   0  0  0  0  0  0  0  0  0  0  0  0
   12.9449    8.6749   -0.5176 F   0  0  0  0  0  0  0  0  0  0  0  0
   11.5252    6.4289   -0.6676 F   0  0  0  0  0  0  0  0  0  0  0  0
   11.1007    3.7219   -0.5975 F   0  0  0  0  0  0  0  0  0  0  0  0
   12.4451    1.5275   -1.1871 F   0  0  0  0  0  0  0  0  0  0  0  0
   11.1532   -0.7669   -1.8073 F   0  0  0  0  0  0  0  0  0  0  0  0
    8.4235   -0.8248   -1.8126 F   0  0  0  0  0  0  0  0  0  0  0  0
    7.0376    1.3747   -1.1983 F   0  0  0  0  0  0  0  0  0  0  0  0
    8.8554    2.5022    2.2615 P   0  0  0  0  0  0  0  0  0  0  0  0
    5.1057    5.6764   -0.4213 P   0  0  0  0  0  0  0  0  0  0  0  0
    7.1474    4.0075   -1.9255 O   0  0  0  0  0  0  0  0  0  0  0  0
    7.9536    6.0938   -2.7108 O   0  0  0  0  0  0  0  0  0  0  0  0
    8.8423    5.2516   -0.6670 O   0  0  0  0  0  0  0  0  0  0  0  0
  1 76  1  0  0  0  0
  2  3  1  0  0  0  0
  4  2  2  0  0  0  0
  5  4  1  0  0  0  0
  6  7  1  0  0  0  0
  7  8  1  0  0  0  0
  9  7  1  0  0  0  0
 10  7  1  0  0  0  0
 11  6  1  0  0  0  0
 12 11  1  0  0  0  0
 13 11  1  0  0  0  0
 14 11  1  0  0  0  0
 15  6  1  0  0  0  0
 16 15  1  0  0  0  0
 17 15  1  0  0  0  0
 18 15  1  0  0  0  0
 19 20  1  0  0  0  0
 20 21  1  0  0  0  0
 22 20  1  0  0  0  0
 23 20  1  0  0  0  0
 24 19  1  0  0  0  0
 25 24  1  0  0  0  0
 26 24  1  0  0  0  0
 27 24  1  0  0  0  0
 28 19  1  0  0  0  0
 29 28  1  0  0  0  0
 30 28  1  0  0  0  0
 31 28  1  0  0  0  0
 32 33  1  0  0  0  0
 33 34  1  0  0  0  0
 35 33  1  0  0  0  0
 36 33  1  0  0  0  0
 37 32  1  0  0  0  0
 38 37  1  0  0  0  0
 39 37  1  0  0  0  0
 40 37  1  0  0  0  0
 41 32  1  0  0  0  0
 42 41  1  0  0  0  0
 43 41  1  0  0  0  0
 44 41  1  0  0  0  0
 45 46  1  0  0  0  0
 46 47  1  0  0  0  0
 48 46  1  0  0  0  0
 49 46  1  0  0  0  0
 50 45  1  0  0  0  0
 51 50  1  0  0  0  0
 52 50  1  0  0  0  0
 53 50  1  0  0  0  0
 54 45  1  0  0  0  0
 55 54  1  0  0  0  0
 56 54  1  0  0  0  0
 57 54  1  0  0  0  0
 58 59  4  0  0  0  0
 59 60  4  0  0  0  0
 60 61  4  0  0  0  0
 61 62  4  0  0  0  0
 62 63  4  0  0  0  0
 63 58  4  0  0  0  0
 64 65  4  0  0  0  0
 65 66  4  0  0  0  0
 66 67  4  0  0  0  0
 67 68  4  0  0  0  0
 68 69  4  0  0  0  0
 69 64  4  0  0  0  0
 70 71  4  0  0  0  0
 71 72  4  0  0  0  0
 72 73  4  0  0  0  0
 73 74  4  0  0  0  0
 74 75  4  0  0  0  0
 75 70  4  0  0  0  0
 76 70  1  0  0  0  0
 77 58  1  0  0  0  0
 78 64  1  0  0  0  0
 79  1  2  0  0  0  0
 80  1  1  0  0  0  0
 81 59  1  0  0  0  0
 82 60  1  0  0  0  0
 83 61  1  0  0  0  0
 84 62  1  0  0  0  0
 85 63  1  0  0  0  0
 86 65  1  0  0  0  0
 87 66  1  0  0  0  0
 88 67  1  0  0  0  0
 89 68  1  0  0  0  0
 90 69  1  0  0  0  0
 91 71  1  0  0  0  0
 92 72  1  0  0  0  0
 93 73  1  0  0  0  0
 94 74  1  0  0  0  0
 95 75  1  0  0  0  0
 96  6  1  0  0  0  0
 97 32  1  0  0  0  0
 98 76  1  0  0  0  0
 99 77  1  0  0  0  0
100 76  1  0  0  0  0
  2 79  1  0  0  0  0
  4 80  1  0  0  0  0
 19 96  1  0  0  0  0
 45 97  1  0  0  0  0
 77 98  1  0  0  0  0
 78 99  1  0  0  0  0
 78100  1  0  0  0  0
 79 96  1  0  0  0  0
 80 97  1  0  0  0  0
M  CHG  2  76  -1  79   1
M  END
$$$$
TAMNAX

From CSD data. Using bond type 'Any'. No disordered atoms. Largest molecule.
104127  0  0  0  0  0  0  0  0999 V2000
    6.2505    8.0403   12.9895 Pt  0  0  0  0  0  0  0  0  0  0  0  0
    5.8073    5.5629   14.0945 Pt  0  0  0  0  0  0  0  0  0  0  0  0
    5.6591   10.0064   14.1204 P   0  0  0  0  0  0  0  0  0  0  0  0
    5.3511    8.6698   10.9307 P   0  0  0  0  0  0  0  0  0  0  0  0
    4.4812    4.0588   12.8660 P   0  0  0  0  0  0  0  0  0  0  0  0
    4.9138    5.1532   16.2183 P   0  0  0  0  0  0  0  0  0  0  0  0
    7.9031    5.4417   14.9436 B   0  0  0  0  0  0  0  0  0  0  0  0
    7.8880    4.8387   15.8880 H   0  0  0  0  0  0  0  0  0  0  0  0
    6.1792   10.0729   16.8936 C   0  0  0  0  0  0  0  0  0  0  0  0
    7.0735   10.2948   16.6613 H   0  0  0  0  0  0  0  0  0  0  0  0
    4.1873   10.8569   13.4963 C   0  0  0  0  0  0  0  0  0  0  0  0
    4.0238   11.6601   14.0312 H   0  0  0  0  0  0  0  0  0  0  0  0
    3.4135   10.2587   13.5589 H   0  0  0  0  0  0  0  0  0  0  0  0
    4.3298   11.1101   12.5594 H   0  0  0  0  0  0  0  0  0  0  0  0
    3.9463    4.6047   11.2314 C   0  0  0  0  0  0  0  0  0  0  0  0
    3.4039    3.9028   10.8141 H   0  0  0  0  0  0  0  0  0  0  0  0
    4.7310    4.7856   10.6735 H   0  0  0  0  0  0  0  0  0  0  0  0
    3.4120    5.4224   11.3185 H   0  0  0  0  0  0  0  0  0  0  0  0
    9.2937    5.3500   13.8096 B   0  0  0  0  0  0  0  0  0  0  0  0
   10.1519    4.6626   14.0189 H   0  0  0  0  0  0  0  0  0  0  0  0
    3.5207    8.7173   10.7973 C   0  0  0  0  0  0  0  0  0  0  0  0
    3.2661    8.9923    9.8926 H   0  0  0  0  0  0  0  0  0  0  0  0
    3.1626    9.3565   11.4468 H   0  0  0  0  0  0  0  0  0  0  0  0
    3.1568    7.8249   10.9807 H   0  0  0  0  0  0  0  0  0  0  0  0
    7.6271   12.0123   10.2716 C   0  0  0  0  0  0  0  0  0  0  0  0
    8.5107   12.2945   10.4794 H   0  0  0  0  0  0  0  0  0  0  0  0
    7.1945   10.7459   10.6689 C   0  0  0  0  0  0  0  0  0  0  0  0
    7.7878   10.1622   11.1274 H   0  0  0  0  0  0  0  0  0  0  0  0
    2.9047    3.5627   13.6246 C   0  0  0  0  0  0  0  0  0  0  0  0
    6.8814   11.3489   14.1076 C   0  0  0  0  0  0  0  0  0  0  0  0
    6.5289   12.1160   14.6073 H   0  0  0  0  0  0  0  0  0  0  0  0
    7.0624   11.6167   13.1830 H   0  0  0  0  0  0  0  0  0  0  0  0
    7.7103   11.0402   14.5279 H   0  0  0  0  0  0  0  0  0  0  0  0
    4.3495    2.9066   17.8274 C   0  0  0  0  0  0  0  0  0  0  0  0
    3.7136    3.4590   18.2660 H   0  0  0  0  0  0  0  0  0  0  0  0
    8.7144    5.6660   12.1514 B   0  0  0  0  0  0  0  0  0  0  0  0
    9.1634    5.1667   11.2543 H   0  0  0  0  0  0  0  0  0  0  0  0
    5.8913   10.3358   10.3923 C   0  0  0  0  0  0  0  0  0  0  0  0
    9.5802    6.9251   13.0683 B   0  0  0  0  0  0  0  0  0  0  0  0
   10.6207    7.2363   12.7978 H   0  0  0  0  0  0  0  0  0  0  0  0
    3.6012    9.3951   17.6150 C   0  0  0  0  0  0  0  0  0  0  0  0
    2.7111    9.1684   17.8534 H   0  0  0  0  0  0  0  0  0  0  0  0
    7.7257    4.6939   13.2915 B   0  0  0  0  0  0  0  0  0  0  0  0
    7.5996    3.5892   13.1478 H   0  0  0  0  0  0  0  0  0  0  0  0
    4.5396    1.5992   18.2355 C   0  0  0  0  0  0  0  0  0  0  0  0
    4.0245    1.2543   18.9553 H   0  0  0  0  0  0  0  0  0  0  0  0
    5.0601   11.1897    9.7061 C   0  0  0  0  0  0  0  0  0  0  0  0
    4.1715   10.9244    9.4983 H   0  0  0  0  0  0  0  0  0  0  0  0
    5.7530    7.6512    9.4830 C   0  0  0  0  0  0  0  0  0  0  0  0
    5.3143    8.0226    8.6898 H   0  0  0  0  0  0  0  0  0  0  0  0
    5.4380    6.7346    9.6312 H   0  0  0  0  0  0  0  0  0  0  0  0
    6.7233    7.6439    9.3470 H   0  0  0  0  0  0  0  0  0  0  0  0
    4.5087    9.6267   18.5946 C   0  0  0  0  0  0  0  0  0  0  0  0
    4.2601    9.5447   19.5070 H   0  0  0  0  0  0  0  0  0  0  0  0
    9.0052    6.8383   14.7464 B   0  0  0  0  0  0  0  0  0  0  0  0
    9.6612    7.1278   15.6068 H   0  0  0  0  0  0  0  0  0  0  0  0
    5.2447    9.8390   15.9003 C   0  0  0  0  0  0  0  0  0  0  0  0
    5.1007    3.4107   16.7668 C   0  0  0  0  0  0  0  0  0  0  0  0
    3.1439    5.5309   16.4657 C   0  0  0  0  0  0  0  0  0  0  0  0
    2.8903    5.3163   17.3873 H   0  0  0  0  0  0  0  0  0  0  0  0
    2.6055    4.9930   15.8468 H   0  0  0  0  0  0  0  0  0  0  0  0
    2.9851    6.4813   16.2946 H   0  0  0  0  0  0  0  0  0  0  0  0
    3.9410    9.4868   16.2716 C   0  0  0  0  0  0  0  0  0  0  0  0
    3.2884    9.3083   15.6053 H   0  0  0  0  0  0  0  0  0  0  0  0
    5.8059    9.9813   18.2523 C   0  0  0  0  0  0  0  0  0  0  0  0
    6.4426   10.1646   18.9339 H   0  0  0  0  0  0  0  0  0  0  0  0
    5.6536    6.0254   17.6165 C   0  0  0  0  0  0  0  0  0  0  0  0
    5.1929    5.7697   18.4433 H   0  0  0  0  0  0  0  0  0  0  0  0
    5.5666    6.9927   17.4820 H   0  0  0  0  0  0  0  0  0  0  0  0
    6.6020    5.7890   17.6838 H   0  0  0  0  0  0  0  0  0  0  0  0
    3.3260    7.3547   13.7179 O   0  0  0  0  0  0  0  0  0  0  0  0
    4.4739    7.1181   13.6445 C   0  0  0  0  0  0  0  0  0  0  0  0
    6.0374    2.5834   16.1371 C   0  0  0  0  0  0  0  0  0  0  0  0
    6.5542    2.9138   15.4143 H   0  0  0  0  0  0  0  0  0  0  0  0
    8.4095    8.1215   13.6873 B   0  0  0  0  0  0  0  0  0  0  0  0
    8.7196    9.1853   13.8386 H   0  0  0  0  0  0  0  0  0  0  0  0
    7.2757    7.2001   14.8671 B   0  0  0  0  0  0  0  0  0  0  0  0
    6.8539    7.7018   15.7765 H   0  0  0  0  0  0  0  0  0  0  0  0
    8.2052    7.3883   12.0566 B   0  0  0  0  0  0  0  0  0  0  0  0
    8.3672    7.9889   11.1244 H   0  0  0  0  0  0  0  0  0  0  0  0
    2.8398    2.4845   14.4744 C   0  0  0  0  0  0  0  0  0  0  0  0
    3.6217    1.9707   14.6440 H   0  0  0  0  0  0  0  0  0  0  0  0
    6.2080    1.2712   16.5773 C   0  0  0  0  0  0  0  0  0  0  0  0
    6.8462    0.7140   16.1494 H   0  0  0  0  0  0  0  0  0  0  0  0
    5.2273    2.4700   12.4402 C   0  0  0  0  0  0  0  0  0  0  0  0
    4.5841    1.9321   11.9328 H   0  0  0  0  0  0  0  0  0  0  0  0
    5.4747    1.9948   13.2609 H   0  0  0  0  0  0  0  0  0  0  0  0
    6.0287    2.6220   11.8977 H   0  0  0  0  0  0  0  0  0  0  0  0
    6.7922   12.8517    9.5854 C   0  0  0  0  0  0  0  0  0  0  0  0
    7.0957   13.7056    9.3027 H   0  0  0  0  0  0  0  0  0  0  0  0
    5.5265   12.4513    9.3103 C   0  0  0  0  0  0  0  0  0  0  0  0
    4.9447   13.0350    8.8411 H   0  0  0  0  0  0  0  0  0  0  0  0
    5.4751    0.7839   17.6058 C   0  0  0  0  0  0  0  0  0  0  0  0
    5.5998   -0.1110   17.8962 H   0  0  0  0  0  0  0  0  0  0  0  0
    1.7563    4.3128   13.3755 C   0  0  0  0  0  0  0  0  0  0  0  0
    1.7932    5.0606   12.7917 H   0  0  0  0  0  0  0  0  0  0  0  0
    6.9661    5.9699   12.1437 B   0  0  0  0  0  0  0  0  0  0  0  0
    6.3486    5.6684   11.2604 H   0  0  0  0  0  0  0  0  0  0  0  0
    1.6558    2.1395   15.0811 C   0  0  0  0  0  0  0  0  0  0  0  0
    1.6275    1.3918   15.6664 H   0  0  0  0  0  0  0  0  0  0  0  0
    0.5433    3.9583   13.9914 C   0  0  0  0  0  0  0  0  0  0  0  0
   -0.2464    4.4600   13.8233 H   0  0  0  0  0  0  0  0  0  0  0  0
    0.5201    2.8656   14.8488 C   0  0  0  0  0  0  0  0  0  0  0  0
   -0.2920    2.6195   15.2782 H   0  0  0  0  0  0  0  0  0  0  0  0
  1  2  1  0  0  0  0
  2  5  1  0  0  0  0
  3  1  1  0  0  0  0
  4  1  1  0  0  0  0
  5 15  1  0  0  0  0
  6  2  1  0  0  0  0
  7  2  1  0  0  0  0
  8  7  1  0  0  0  0
  9 10  1  0  0  0  0
 11  3  1  0  0  0  0
 12 11  1  0  0  0  0
 13 11  1  0  0  0  0
 14 11  1  0  0  0  0
 15 16  1  0  0  0  0
 17 15  1  0  0  0  0
 18 15  1  0  0  0  0
 19  7  1  0  0  0  0
 20 19  1  0  0  0  0
 21  4  1  0  0  0  0
 22 21  1  0  0  0  0
 23 21  1  0  0  0  0
 24 21  1  0  0  0  0
 25 26  1  0  0  0  0
 27 25  4  0  0  0  0
 28 27  1  0  0  0  0
 29  5  1  0  0  0  0
 30  3  1  0  0  0  0
 31 30  1  0  0  0  0
 32 30  1  0  0  0  0
 33 30  1  0  0  0  0
 34 35  1  0  0  0  0
 36 19  1  0  0  0  0
 37 36  1  0  0  0  0
 38  4  1  0  0  0  0
 39 19  1  0  0  0  0
 40 39  1  0  0  0  0
 41 42  1  0  0  0  0
 43  2  1  0  0  0  0
 44 43  1  0  0  0  0
 45 34  4  0  0  0  0
 46 45  1  0  0  0  0
 47 38  4  0  0  0  0
 48 47  1  0  0  0  0
 49  4  1  0  0  0  0
 50 49  1  0  0  0  0
 51 49  1  0  0  0  0
 52 49  1  0  0  0  0
 53 41  4  0  0  0  0
 54 53  1  0  0  0  0
 55  7  1  0  0  0  0
 56 55  1  0  0  0  0
 57  3  1  0  0  0  0
 58  6  1  0  0  0  0
 59  6  1  0  0  0  0
 60 59  1  0  0  0  0
 61 59  1  0  0  0  0
 62 59  1  0  0  0  0
 63 41  4  0  0  0  0
 64 63  1  0  0  0  0
 65  9  4  0  0  0  0
 66 65  1  0  0  0  0
 67  6  1  0  0  0  0
 68 67  1  0  0  0  0
 69 67  1  0  0  0  0
 70 67  1  0  0  0  0
 71 72  2  0  0  0  0
 72  1  1  0  0  0  0
 73 58  4  0  0  0  0
 74 73  1  0  0  0  0
 75  1  1  0  0  0  0
 76 75  1  0  0  0  0
 77  1  1  0  0  0  0
 78 77  1  0  0  0  0
 79  1  1  0  0  0  0
 80 79  1  0  0  0  0
 81 29  4  0  0  0  0
 82 81  1  0  0  0  0
 83 73  4  0  0  0  0
 84 83  1  0  0  0  0
 85  5  1  0  0  0  0
 86 85  1  0  0  0  0
 87 85  1  0  0  0  0
 88 85  1  0  0  0  0
 89 25  4  0  0  0  0
 90 89  1  0  0  0  0
 91 47  4  0  0  0  0
 92 91  1  0  0  0  0
 93 45  4  0  0  0  0
 94 93  1  0  0  0  0
 95 29  4  0  0  0  0
 96 95  1  0  0  0  0
 97  1  1  0  0  0  0
 98 97  1  0  0  0  0
 99 81  4  0  0  0  0
100 99  1  0  0  0  0
101 95  4  0  0  0  0
102101  1  0  0  0  0
103 99  4  0  0  0  0
104103  1  0  0  0  0
  2 72  1  0  0  0  0
  2 77  1  0  0  0  0
  2 97  1  0  0  0  0
  7 43  1  0  0  0  0
  7 77  1  0  0  0  0
  9 57  4  0  0  0  0
 19 43  1  0  0  0  0
 19 55  1  0  0  0  0
 27 38  4  0  0  0  0
 34 58  4  0  0  0  0
 36 39  1  0  0  0  0
 36 43  1  0  0  0  0
 36 79  1  0  0  0  0
 36 97  1  0  0  0  0
 39 55  1  0  0  0  0
 39 75  1  0  0  0  0
 39 79  1  0  0  0  0
 43 97  1  0  0  0  0
 53 65  4  0  0  0  0
 55 75  1  0  0  0  0
 55 77  1  0  0  0  0
 57 63  4  0  0  0  0
 75 77  1  0  0  0  0
 75 79  1  0  0  0  0
 79 97  1  0  0  0  0
 83 93  4  0  0  0  0
 89 91  4  0  0  0  0
101103  4  0  0  0  0
M  END
$$$$
TAMNEB

From CSD data. Using bond type 'Any'. No disordered atoms. Largest molecule.
105128  0  0  0  0  0  0  0  0999 V2000
   11.0247    2.2168    3.9724 Pt  0  0  0  0  0  0  0  0  0  0  0  0
    8.9799    0.5050    4.8874 Pt  0  0  0  0  0  0  0  0  0  0  0  0
    9.0330   -0.4252    7.0805 P   0  0  0  0  0  0  0  0  0  0  0  0
   10.9264    4.3316    2.9643 P   0  0  0  0  0  0  0  0  0  0  0  0
    9.2715    2.8129    5.4263 S   0  0  0  0  0  0  0  0  0  0  0  0
   12.7405    2.7500    5.5275 P   0  0  0  0  0  0  0  0  0  0  0  0
    6.6340    0.6834    4.8625 P   0  0  0  0  0  0  0  0  0  0  0  0
    8.3124    3.6981    4.7870 O   0  0  0  0  0  0  0  0  0  0  0  0
   10.5187    5.7787    4.0095 C   0  0  0  0  0  0  0  0  0  0  0  0
   10.5116    6.5891    3.4588 H   0  0  0  0  0  0  0  0  0  0  0  0
   11.1914    5.8709    4.7162 H   0  0  0  0  0  0  0  0  0  0  0  0
    9.6338    5.6518    4.4133 H   0  0  0  0  0  0  0  0  0  0  0  0
   12.4698    4.7916    2.1039 C   0  0  0  0  0  0  0  0  0  0  0  0
   10.5187   -1.3462    7.5675 C   0  0  0  0  0  0  0  0  0  0  0  0
   10.4162   -1.6728    8.4849 H   0  0  0  0  0  0  0  0  0  0  0  0
   11.3011   -0.7561    7.5179 H   0  0  0  0  0  0  0  0  0  0  0  0
   10.6451   -2.1067    6.9618 H   0  0  0  0  0  0  0  0  0  0  0  0
    9.6052    3.2002    6.7953 O   0  0  0  0  0  0  0  0  0  0  0  0
   12.9874    4.5193    5.9222 C   0  0  0  0  0  0  0  0  0  0  0  0
    5.7674    1.3788    6.3065 C   0  0  0  0  0  0  0  0  0  0  0  0
    7.7233   -1.6652    7.4258 C   0  0  0  0  0  0  0  0  0  0  0  0
   12.2886    5.1018    6.9919 C   0  0  0  0  0  0  0  0  0  0  0  0
   11.6970    4.5735    7.5161 H   0  0  0  0  0  0  0  0  0  0  0  0
   14.3684    2.2369    5.0527 C   0  0  0  0  0  0  0  0  0  0  0  0
   15.0101    2.4950    5.7487 H   0  0  0  0  0  0  0  0  0  0  0  0
   14.6141    2.6664    4.2079 H   0  0  0  0  0  0  0  0  0  0  0  0
   14.3851    1.2627    4.9411 H   0  0  0  0  0  0  0  0  0  0  0  0
    5.9749    1.6836    3.5066 C   0  0  0  0  0  0  0  0  0  0  0  0
    4.9970    1.7096    3.5650 H   0  0  0  0  0  0  0  0  0  0  0  0
    6.2421    1.2887    2.6494 H   0  0  0  0  0  0  0  0  0  0  0  0
    6.3303    2.5948    3.5703 H   0  0  0  0  0  0  0  0  0  0  0  0
    9.6601    4.5323    1.6825 C   0  0  0  0  0  0  0  0  0  0  0  0
    9.6982    5.4435    1.3247 H   0  0  0  0  0  0  0  0  0  0  0  0
    8.7728    4.3707    2.0703 H   0  0  0  0  0  0  0  0  0  0  0  0
    9.8223    3.8912    0.9599 H   0  0  0  0  0  0  0  0  0  0  0  0
   12.4579    6.4415    7.2841 C   0  0  0  0  0  0  0  0  0  0  0  0
   12.0143    6.8201    8.0333 H   0  0  0  0  0  0  0  0  0  0  0  0
   13.2713    7.2378    6.4925 C   0  0  0  0  0  0  0  0  0  0  0  0
   13.3619    8.1642    6.6838 H   0  0  0  0  0  0  0  0  0  0  0  0
   13.4501    3.8749    1.8241 C   0  0  0  0  0  0  0  0  0  0  0  0
   13.3285    2.9713    2.0898 H   0  0  0  0  0  0  0  0  0  0  0  0
   14.6165    4.2329    1.1653 C   0  0  0  0  0  0  0  0  0  0  0  0
   15.2844    3.5820    0.9847 H   0  0  0  0  0  0  0  0  0  0  0  0
   13.8175    5.3329    5.1324 C   0  0  0  0  0  0  0  0  0  0  0  0
   14.2897    4.9597    4.3974 H   0  0  0  0  0  0  0  0  0  0  0  0
   13.7984    6.5142    1.0467 C   0  0  0  0  0  0  0  0  0  0  0  0
   13.9105    7.4168    0.7739 H   0  0  0  0  0  0  0  0  0  0  0  0
   12.6559    6.1302    1.7214 C   0  0  0  0  0  0  0  0  0  0  0  0
   11.9904    6.7757    1.9268 H   0  0  0  0  0  0  0  0  0  0  0  0
   14.8002    5.5629    0.7668 C   0  0  0  0  0  0  0  0  0  0  0  0
   15.5944    5.8210    0.3117 H   0  0  0  0  0  0  0  0  0  0  0  0
    8.8515    0.7648    8.4548 C   0  0  0  0  0  0  0  0  0  0  0  0
    8.8849    0.2842    9.3084 H   0  0  0  0  0  0  0  0  0  0  0  0
    7.9928    1.2291    8.3733 H   0  0  0  0  0  0  0  0  0  0  0  0
    9.5813    1.4178    8.4193 H   0  0  0  0  0  0  0  0  0  0  0  0
   13.9439    6.6802    5.4281 C   0  0  0  0  0  0  0  0  0  0  0  0
   14.5044    7.2269    4.8897 H   0  0  0  0  0  0  0  0  0  0  0  0
    9.9868   -1.3104    3.9989 B   0  0  0  0  0  0  0  0  0  0  0  0
    9.7078   -2.2130    4.5993 H   0  0  0  0  0  0  0  0  0  0  0  0
   12.5986    1.9939    7.1708 C   0  0  0  0  0  0  0  0  0  0  0  0
   13.4334    2.1295    7.6649 H   0  0  0  0  0  0  0  0  0  0  0  0
   12.4293    1.0338    7.0751 H   0  0  0  0  0  0  0  0  0  0  0  0
   11.8592    2.4093    7.6596 H   0  0  0  0  0  0  0  0  0  0  0  0
    5.8199   -0.8830    4.6223 C   0  0  0  0  0  0  0  0  0  0  0  0
    4.8491   -0.7507    4.6223 H   0  0  0  0  0  0  0  0  0  0  0  0
    6.0679   -1.4949    5.3466 H   0  0  0  0  0  0  0  0  0  0  0  0
    6.0990   -1.2660    3.7634 H   0  0  0  0  0  0  0  0  0  0  0  0
   12.1693    0.5391    3.0125 B   0  0  0  0  0  0  0  0  0  0  0  0
   13.2569    0.8038    2.9948 H   0  0  0  0  0  0  0  0  0  0  0  0
   11.2438    0.0076    4.5780 B   0  0  0  0  0  0  0  0  0  0  0  0
   11.7590   -0.0445    5.5716 H   0  0  0  0  0  0  0  0  0  0  0  0
    4.3601    2.5786    8.4282 C   0  0  0  0  0  0  0  0  0  0  0  0
    3.9022    2.9582    9.1702 H   0  0  0  0  0  0  0  0  0  0  0  0
   11.4537   -0.3894    1.7055 B   0  0  0  0  0  0  0  0  0  0  0  0
   12.0930   -0.7073    0.8412 H   0  0  0  0  0  0  0  0  0  0  0  0
    4.0715    1.3159    8.0138 C   0  0  0  0  0  0  0  0  0  0  0  0
    3.3655    0.8429    8.4388 H   0  0  0  0  0  0  0  0  0  0  0  0
    9.7745    0.1041    1.4806 B   0  0  0  0  0  0  0  0  0  0  0  0
    9.3023    0.1595    0.4675 H   0  0  0  0  0  0  0  0  0  0  0  0
    6.8336   -3.8890    7.1159 C   0  0  0  0  0  0  0  0  0  0  0  0
    6.8622   -4.7362    6.6873 H   0  0  0  0  0  0  0  0  0  0  0  0
    5.8318   -3.5896    8.0368 C   0  0  0  0  0  0  0  0  0  0  0  0
    5.1687   -4.2394    8.2387 H   0  0  0  0  0  0  0  0  0  0  0  0
    5.3166    3.2935    7.7641 C   0  0  0  0  0  0  0  0  0  0  0  0
    5.4812    4.1960    8.0102 H   0  0  0  0  0  0  0  0  0  0  0  0
    6.0513    2.7196    6.7369 C   0  0  0  0  0  0  0  0  0  0  0  0
    6.7430    3.2153    6.3154 H   0  0  0  0  0  0  0  0  0  0  0  0
   10.1872   -1.4536    2.2598 B   0  0  0  0  0  0  0  0  0  0  0  0
   10.0035   -2.4365    1.7551 H   0  0  0  0  0  0  0  0  0  0  0  0
    6.7215   -1.4287    8.3520 C   0  0  0  0  0  0  0  0  0  0  0  0
    6.6714   -0.5912    8.7966 H   0  0  0  0  0  0  0  0  0  0  0  0
    7.7948   -2.9192    6.8361 C   0  0  0  0  0  0  0  0  0  0  0  0
    8.5056   -3.1177    6.2357 H   0  0  0  0  0  0  0  0  0  0  0  0
    4.7632    0.7008    7.0025 C   0  0  0  0  0  0  0  0  0  0  0  0
    4.5557   -0.1974    6.7723 H   0  0  0  0  0  0  0  0  0  0  0  0
   10.9982    1.2931    1.9091 B   0  0  0  0  0  0  0  0  0  0  0  0
   11.3106    2.0644    1.1582 H   0  0  0  0  0  0  0  0  0  0  0  0
    5.7960   -2.4126    8.6265 C   0  0  0  0  0  0  0  0  0  0  0  0
    5.1115   -2.2369    9.2623 H   0  0  0  0  0  0  0  0  0  0  0  0
   11.6159   -1.1672    3.2852 B   0  0  0  0  0  0  0  0  0  0  0  0
   12.3720   -1.9624    3.5048 H   0  0  0  0  0  0  0  0  0  0  0  0
    8.8396   -0.4632    2.8956 B   0  0  0  0  0  0  0  0  0  0  0  0
    7.7781   -0.7973    2.7663 H   0  0  0  0  0  0  0  0  0  0  0  0
    9.2665    1.3007    2.7238 B   0  0  0  0  0  0  0  0  0  0  0  0
    8.4913    2.0796    2.5077 H   0  0  0  0  0  0  0  0  0  0  0  0
  1  2  1  0  0  0  0
  2  3  1  0  0  0  0
  3 14  1  0  0  0  0
  4  1  1  0  0  0  0
  5  1  1  0  0  0  0
  6  1  1  0  0  0  0
  7  2  1  0  0  0  0
  8  5  2  0  0  0  0
  9  4  1  0  0  0  0
 10  9  1  0  0  0  0
 11  9  1  0  0  0  0
 12  9  1  0  0  0  0
 13  4  1  0  0  0  0
 14 15  1  0  0  0  0
 16 14  1  0  0  0  0
 17 14  1  0  0  0  0
 18  5  2  0  0  0  0
 19  6  1  0  0  0  0
 20  7  1  0  0  0  0
 21  3  1  0  0  0  0
 22 19  4  0  0  0  0
 23 22  1  0  0  0  0
 24  6  1  0  0  0  0
 25 24  1  0  0  0  0
 26 24  1  0  0  0  0
 27 24  1  0  0  0  0
 28  7  1  0  0  0  0
 29 28  1  0  0  0  0
 30 28  1  0  0  0  0
 31 28  1  0  0  0  0
 32  4  1  0  0  0  0
 33 32  1  0  0  0  0
 34 32  1  0  0  0  0
 35 32  1  0  0  0  0
 36 22  4  0  0  0  0
 37 36  1  0  0  0  0
 38 36  4  0  0  0  0
 39 38  1  0  0  0  0
 40 13  4  0  0  0  0
 41 40  1  0  0  0  0
 42 40  4  0  0  0  0
 43 42  1  0  0  0  0
 44 19  4  0  0  0  0
 45 44  1  0  0  0  0
 46 47  1  0  0  0  0
 48 13  4  0  0  0  0
 49 48  1  0  0  0  0
 50 42  4  0  0  0  0
 51 50  1  0  0  0  0
 52  3  1  0  0  0  0
 53 52  1  0  0  0  0
 54 52  1  0  0  0  0
 55 52  1  0  0  0  0
 56 38  4  0  0  0  0
 57 56  1  0  0  0  0
 58  2  1  0  0  0  0
 59 58  1  0  0  0  0
 60  6  1  0  0  0  0
 61 60  1  0  0  0  0
 62 60  1  0  0  0  0
 63 60  1  0  0  0  0
 64  7  1  0  0  0  0
 65 64  1  0  0  0  0
 66 64  1  0  0  0  0
 67 64  1  0  0  0  0
 68  1  1  0  0  0  0
 69 68  1  0  0  0  0
 70  1  1  0  0  0  0
 71 70  1  0  0  0  0
 72 73  1  0  0  0  0
 74 68  1  0  0  0  0
 75 74  1  0  0  0  0
 76 72  4  0  0  0  0
 77 76  1  0  0  0  0
 78 74  1  0  0  0  0
 79 78  1  0  0  0  0
 80 81  1  0  0  0  0
 82 80  4  0  0  0  0
 83 82  1  0  0  0  0
 84 72  4  0  0  0  0
 85 84  1  0  0  0  0
 86 20  4  0  0  0  0
 87 86  1  0  0  0  0
 88 58  1  0  0  0  0
 89 88  1  0  0  0  0
 90 21  4  0  0  0  0
 91 90  1  0  0  0  0
 92 21  4  0  0  0  0
 93 92  1  0  0  0  0
 94 20  4  0  0  0  0
 95 94  1  0  0  0  0
 96  1  1  0  0  0  0
 97 96  1  0  0  0  0
 98 82  4  0  0  0  0
 99 98  1  0  0  0  0
100 58  1  0  0  0  0
101100  1  0  0  0  0
102  2  1  0  0  0  0
103102  1  0  0  0  0
104  1  1  0  0  0  0
105104  1  0  0  0  0
  2  5  1  0  0  0  0
  2 70  1  0  0  0  0
  2104  1  0  0  0  0
 44 56  4  0  0  0  0
 46 48  4  0  0  0  0
 46 50  4  0  0  0  0
 58 70  1  0  0  0  0
 58102  1  0  0  0  0
 68 70  1  0  0  0  0
 68 96  1  0  0  0  0
 68100  1  0  0  0  0
 70100  1  0  0  0  0
 74 88  1  0  0  0  0
 74 96  1  0  0  0  0
 74100  1  0  0  0  0
 76 94  4  0  0  0  0
 78 88  1  0  0  0  0
 78 96  1  0  0  0  0
 78102  1  0  0  0  0
 78104  1  0  0  0  0
 80 92  4  0  0  0  0
 84 86  4  0  0  0  0
 88100  1  0  0  0  0
 88102  1  0  0  0  0
 90 98  4  0  0  0  0
 96104  1  0  0  0  0
102104  1  0  0  0  0
M  END
$$$$
TAPXEN

From CSD data. Using bond type 'Any'. No disordered atoms. Largest molecule.
 96117  0  0  0  0  0  0  0  0999 V2000
    3.2710    1.0235    3.7961 Rh  0  0  0  0  0  0  0  0  0  0  0  0
    2.5965   -0.4920    2.0940 S   0  0  0  0  0  0  0  0  0  0  0  0
    4.4038    2.5266    5.0757 P   0  0  0  0  0  0  0  0  0  0  0  0
    1.4422    2.3730    2.9779 P   0  0  0  0  0  0  0  0  0  0  0  0
    2.4096    0.2935    6.5256 O   0  0  0  0  0  0  0  0  0  0  0  0
    1.7164   -0.3951    7.5569 C   0  0  0  0  0  0  0  0  0  0  0  0
    1.3274    0.4359    8.6070 C   0  0  0  0  0  0  0  0  0  0  0  0
    5.6599    2.0881    6.3249 C   0  0  0  0  0  0  0  0  0  0  0  0
    6.9608    2.4509    6.1955 C   0  0  0  0  0  0  0  0  0  0  0  0
    7.8718    2.1578    7.2062 C   0  0  0  0  0  0  0  0  0  0  0  0
    7.4746    1.5381    8.3295 C   0  0  0  0  0  0  0  0  0  0  0  0
    6.1878    1.1922    8.4795 C   0  0  0  0  0  0  0  0  0  0  0  0
    5.2775    1.4725    7.4800 C   0  0  0  0  0  0  0  0  0  0  0  0
    3.5285    3.8018    6.0211 C   0  0  0  0  0  0  0  0  0  0  0  0
    2.2046    3.5888    6.4037 C   0  0  0  0  0  0  0  0  0  0  0  0
    1.5268    4.5254    7.1519 C   0  0  0  0  0  0  0  0  0  0  0  0
    2.1341    5.7039    7.4856 C   0  0  0  0  0  0  0  0  0  0  0  0
    3.4415    5.9174    7.1425 C   0  0  0  0  0  0  0  0  0  0  0  0
    4.1413    4.9765    6.4374 C   0  0  0  0  0  0  0  0  0  0  0  0
    5.3419    3.3532    3.7447 C   0  0  0  0  0  0  0  0  0  0  0  0
    5.1823    4.6737    3.3734 C   0  0  0  0  0  0  0  0  0  0  0  0
    5.8453    5.1844    2.2746 C   0  0  0  0  0  0  0  0  0  0  0  0
    6.6395    4.3775    1.5245 C   0  0  0  0  0  0  0  0  0  0  0  0
    6.8128    3.0579    1.8489 C   0  0  0  0  0  0  0  0  0  0  0  0
    6.1734    2.5566    2.9571 C   0  0  0  0  0  0  0  0  0  0  0  0
    0.7090    3.9128    3.6397 C   0  0  0  0  0  0  0  0  0  0  0  0
   -0.5800    4.0099    4.1141 C   0  0  0  0  0  0  0  0  0  0  0  0
   -1.0615    5.2093    4.5885 C   0  0  0  0  0  0  0  0  0  0  0  0
   -0.2973    6.3212    4.6035 C   0  0  0  0  0  0  0  0  0  0  0  0
    0.9891    6.2549    4.1216 C   0  0  0  0  0  0  0  0  0  0  0  0
    1.4918    5.0611    3.6341 C   0  0  0  0  0  0  0  0  0  0  0  0
    1.8069    2.9151    1.2807 C   0  0  0  0  0  0  0  0  0  0  0  0
    0.8563    3.5987    0.5250 C   0  0  0  0  0  0  0  0  0  0  0  0
    1.1697    4.0736   -0.7276 C   0  0  0  0  0  0  0  0  0  0  0  0
    2.4444    3.9053   -1.2264 C   0  0  0  0  0  0  0  0  0  0  0  0
    3.3739    3.2599   -0.4932 C   0  0  0  0  0  0  0  0  0  0  0  0
    3.0640    2.7526    0.7613 C   0  0  0  0  0  0  0  0  0  0  0  0
    0.0368    1.2391    2.9065 C   0  0  0  0  0  0  0  0  0  0  0  0
   -0.5257    0.7609    1.7026 C   0  0  0  0  0  0  0  0  0  0  0  0
   -1.5247   -0.1910    1.7476 C   0  0  0  0  0  0  0  0  0  0  0  0
   -2.0173   -0.6368    2.9403 C   0  0  0  0  0  0  0  0  0  0  0  0
   -1.5070   -0.1755    4.1235 C   0  0  0  0  0  0  0  0  0  0  0  0
   -0.4610    0.7400    4.1197 C   0  0  0  0  0  0  0  0  0  0  0  0
    4.5386   -2.1263    3.7991 B   0  0  0  0  0  0  0  0  0  0  0  0
    3.5255   -2.2122    2.3777 B   0  0  0  0  0  0  0  0  0  0  0  0
    4.4564   -0.6483    2.8934 B   0  0  0  0  0  0  0  0  0  0  0  0
    4.5045   -0.6016    4.6485 B   0  0  0  0  0  0  0  0  0  0  0  0
    3.5520   -1.9479    5.2692 B   0  0  0  0  0  0  0  0  0  0  0  0
    2.9144   -2.8756    3.8853 B   0  0  0  0  0  0  0  0  0  0  0  0
    2.8127   -0.3360    5.3573 B   0  0  0  0  0  0  0  0  0  0  0  0
    1.8243   -1.8749    4.7873 B   0  0  0  0  0  0  0  0  0  0  0  0
    1.7955   -1.9884    2.9646 B   0  0  0  0  0  0  0  0  0  0  0  0
    1.7673   -0.6560    4.6316 H   0  0  0  0  0  0  0  0  0  0  0  0
    5.4418   -2.7191    3.7935 H   0  0  0  0  0  0  0  0  0  0  0  0
    3.7664   -2.8218    1.5189 H   0  0  0  0  0  0  0  0  0  0  0  0
    5.2991   -0.3013    2.3139 H   0  0  0  0  0  0  0  0  0  0  0  0
    5.3688   -0.2282    5.1773 H   0  0  0  0  0  0  0  0  0  0  0  0
    3.8228   -2.4264    6.1974 H   0  0  0  0  0  0  0  0  0  0  0  0
    2.7801   -3.9466    3.9341 H   0  0  0  0  0  0  0  0  0  0  0  0
    1.0280   -2.2916    5.3855 H   0  0  0  0  0  0  0  0  0  0  0  0
    0.9791   -2.4733    2.4471 H   0  0  0  0  0  0  0  0  0  0  0  0
    2.2851   -1.0725    7.9019 H   0  0  0  0  0  0  0  0  0  0  0  0
    0.9390   -0.7940    7.1819 H   0  0  0  0  0  0  0  0  0  0  0  0
    0.8693   -0.0755    9.2614 H   0  0  0  0  0  0  0  0  0  0  0  0
    0.7495    1.1145    8.2751 H   0  0  0  0  0  0  0  0  0  0  0  0
    2.0957    0.8372    8.9951 H   0  0  0  0  0  0  0  0  0  0  0  0
    7.2505    2.9042    5.4136 H   0  0  0  0  0  0  0  0  0  0  0  0
    8.7841    2.4003    7.1012 H   0  0  0  0  0  0  0  0  0  0  0  0
    8.1024    1.3452    9.0139 H   0  0  0  0  0  0  0  0  0  0  0  0
    5.9031    0.7556    9.2727 H   0  0  0  0  0  0  0  0  0  0  0  0
    4.3652    1.2313    7.5982 H   0  0  0  0  0  0  0  0  0  0  0  0
    1.7641    2.7868    6.1430 H   0  0  0  0  0  0  0  0  0  0  0  0
    0.6361    4.3524    7.4350 H   0  0  0  0  0  0  0  0  0  0  0  0
    1.6496    6.3716    7.9544 H   0  0  0  0  0  0  0  0  0  0  0  0
    3.8666    6.7275    7.3956 H   0  0  0  0  0  0  0  0  0  0  0  0
    5.0559    5.1277    6.2293 H   0  0  0  0  0  0  0  0  0  0  0  0
    4.6088    5.2382    3.8797 H   0  0  0  0  0  0  0  0  0  0  0  0
    5.7458    6.0994    2.0421 H   0  0  0  0  0  0  0  0  0  0  0  0
    7.0812    4.7316    0.7613 H   0  0  0  0  0  0  0  0  0  0  0  0
    7.3652    2.4977    1.3164 H   0  0  0  0  0  0  0  0  0  0  0  0
    6.2999    1.6449    3.1934 H   0  0  0  0  0  0  0  0  0  0  0  0
   -1.1418    3.2425    4.1122 H   0  0  0  0  0  0  0  0  0  0  0  0
   -1.9532    5.2542    4.9110 H   0  0  0  0  0  0  0  0  0  0  0  0
   -0.6431    7.1382    4.9410 H   0  0  0  0  0  0  0  0  0  0  0  0
    1.5344    7.0314    4.1235 H   0  0  0  0  0  0  0  0  0  0  0  0
    2.3776    5.0264    3.2909 H   0  0  0  0  0  0  0  0  0  0  0  0
   -0.0149    3.7350    0.8757 H   0  0  0  0  0  0  0  0  0  0  0  0
    0.5101    4.5160   -1.2470 H   0  0  0  0  0  0  0  0  0  0  0  0
    2.6671    4.2455   -2.0833 H   0  0  0  0  0  0  0  0  0  0  0  0
    4.2511    3.1507   -0.8401 H   0  0  0  0  0  0  0  0  0  0  0  0
    3.7266    2.2911    1.2601 H   0  0  0  0  0  0  0  0  0  0  0  0
   -0.2190    1.0919    0.8663 H   0  0  0  0  0  0  0  0  0  0  0  0
   -1.8737   -0.5410    0.9357 H   0  0  0  0  0  0  0  0  0  0  0  0
   -2.7206   -1.2748    2.9478 H   0  0  0  0  0  0  0  0  0  0  0  0
   -1.8683   -0.4806    4.9467 H   0  0  0  0  0  0  0  0  0  0  0  0
   -0.0819    1.0291    4.9410 H   0  0  0  0  0  0  0  0  0  0  0  0
  1  2  1  0  0  0  0
  2 45  1  0  0  0  0
  3  1  1  0  0  0  0
  4  1  1  0  0  0  0
  5  6  1  0  0  0  0
  6  7  1  0  0  0  0
  7 64  1  0  0  0  0
  8  3  1  0  0  0  0
  9  8  4  0  0  0  0
 10  9  4  0  0  0  0
 11 10  4  0  0  0  0
 12 11  4  0  0  0  0
 13  8  4  0  0  0  0
 14  3  1  0  0  0  0
 15 14  4  0  0  0  0
 16 15  4  0  0  0  0
 17 16  4  0  0  0  0
 18 17  4  0  0  0  0
 19 14  4  0  0  0  0
 20  3  1  0  0  0  0
 21 20  4  0  0  0  0
 22 21  4  0  0  0  0
 23 22  4  0  0  0  0
 24 23  4  0  0  0  0
 25 20  4  0  0  0  0
 26  4  1  0  0  0  0
 27 26  4  0  0  0  0
 28 27  4  0  0  0  0
 29 28  4  0  0  0  0
 30 29  4  0  0  0  0
 31 26  4  0  0  0  0
 32  4  1  0  0  0  0
 33 32  4  0  0  0  0
 34 33  4  0  0  0  0
 35 34  4  0  0  0  0
 36 35  4  0  0  0  0
 37 32  4  0  0  0  0
 38  4  1  0  0  0  0
 39 38  4  0  0  0  0
 40 39  4  0  0  0  0
 41 40  4  0  0  0  0
 42 41  4  0  0  0  0
 43 38  4  0  0  0  0
 44 45  1  0  0  0  0
 45 46  1  0  0  0  0
 46  1  1  0  0  0  0
 47  1  1  0  0  0  0
 48 44  1  0  0  0  0
 49 44  1  0  0  0  0
 50  1  1  0  0  0  0
 51 48  1  0  0  0  0
 52  2  1  0  0  0  0
 53 50  1  0  0  0  0
 54 44  1  0  0  0  0
 55 45  1  0  0  0  0
 56 46  1  0  0  0  0
 57 47  1  0  0  0  0
 58 48  1  0  0  0  0
 59 49  1  0  0  0  0
 60 51  1  0  0  0  0
 61 52  1  0  0  0  0
 62  6  1  0  0  0  0
 63  6  1  0  0  0  0
 65  7  1  0  0  0  0
 66  7  1  0  0  0  0
 67  9  1  0  0  0  0
 68 10  1  0  0  0  0
 69 11  1  0  0  0  0
 70 12  1  0  0  0  0
 71 13  1  0  0  0  0
 72 15  1  0  0  0  0
 73 16  1  0  0  0  0
 74 17  1  0  0  0  0
 75 18  1  0  0  0  0
 76 19  1  0  0  0  0
 77 21  1  0  0  0  0
 78 22  1  0  0  0  0
 79 23  1  0  0  0  0
 80 24  1  0  0  0  0
 81 25  1  0  0  0  0
 82 27  1  0  0  0  0
 83 28  1  0  0  0  0
 84 29  1  0  0  0  0
 85 30  1  0  0  0  0
 86 31  1  0  0  0  0
 87 33  1  0  0  0  0
 88 34  1  0  0  0  0
 89 35  1  0  0  0  0
 90 36  1  0  0  0  0
 91 37  1  0  0  0  0
 92 39  1  0  0  0  0
 93 40  1  0  0  0  0
 94 41  1  0  0  0  0
 95 42  1  0  0  0  0
 96 43  1  0  0  0  0
  2 46  1  0  0  0  0
  5 50  1  0  0  0  0
 12 13  4  0  0  0  0
 18 19  4  0  0  0  0
 24 25  4  0  0  0  0
 30 31  4  0  0  0  0
 36 37  4  0  0  0  0
 42 43  4  0  0  0  0
 44 46  1  0  0  0  0
 44 47  1  0  0  0  0
 45 49  1  0  0  0  0
 45 52  1  0  0  0  0
 46 47  1  0  0  0  0
 47 48  1  0  0  0  0
 47 50  1  0  0  0  0
 48 49  1  0  0  0  0
 48 50  1  0  0  0  0
 49 51  1  0  0  0  0
 49 52  1  0  0  0  0
 50 51  1  0  0  0  0
 51 52  1  0  0  0  0
 51 53  1  0  0  0  0
M  END
$$$$
TATYES

From CSD data. Using bond type 'Any'. No disordered atoms. Largest molecule.
106120  0  0  0  0  0  0  0  0999 V2000
   13.3181    5.9455    9.7254 V   0  0  0  0  0  0  0  0  0  0  0  0
   14.6094    5.0181    7.9982 Cl  0  0  0  0  0  0  0  0  0  0  0  0
   15.6510    6.1076   12.2150 P   0  0  0  0  0  0  0  0  0  0  0  0
   14.8233    5.9161   10.9608 O   0  0  0  0  0  0  0  0  0  0  0  0
   12.6289    4.1842   10.2549 O   0  0  0  0  0  0  0  0  0  0  0  0
   11.3771    8.5030    9.4984 B   0  0  0  0  0  0  0  0  0  0  0  0
   13.7964    7.8958    9.1266 N   0  0  0  0  0  0  0  0  0  0  0  0
   12.8314    8.8780    9.1383 N   0  0  0  0  0  0  0  0  0  0  0  0
   14.9304    8.4876    8.7818 C   0  0  0  0  0  0  0  0  0  0  0  0
   14.7467    9.8418    8.5783 C   0  0  0  0  0  0  0  0  0  0  0  0
   13.3994   10.0505    8.8065 C   0  0  0  0  0  0  0  0  0  0  0  0
   11.6466    6.2111    8.5053 N   0  0  0  0  0  0  0  0  0  0  0  0
   10.9380    7.3799    8.5348 N   0  0  0  0  0  0  0  0  0  0  0  0
   11.0303    5.4206    7.6253 C   0  0  0  0  0  0  0  0  0  0  0  0
    9.9145    6.0782    7.0723 C   0  0  0  0  0  0  0  0  0  0  0  0
    9.9045    7.3084    7.6876 C   0  0  0  0  0  0  0  0  0  0  0  0
   12.1800    6.8750   11.2185 N   0  0  0  0  0  0  0  0  0  0  0  0
   11.3746    7.9372   10.9338 N   0  0  0  0  0  0  0  0  0  0  0  0
   12.0228    6.6317   12.5268 C   0  0  0  0  0  0  0  0  0  0  0  0
   11.1381    7.5238   13.0751 C   0  0  0  0  0  0  0  0  0  0  0  0
   10.7539    8.3308   12.0480 C   0  0  0  0  0  0  0  0  0  0  0  0
   17.3714    6.1516   11.6762 C   0  0  0  0  0  0  0  0  0  0  0  0
   18.3609    6.3804   12.6139 C   0  0  0  0  0  0  0  0  0  0  0  0
   19.6843    6.4099   12.2197 C   0  0  0  0  0  0  0  0  0  0  0  0
   20.0124    6.1971   10.8949 C   0  0  0  0  0  0  0  0  0  0  0  0
   19.0351    5.9543    9.9584 C   0  0  0  0  0  0  0  0  0  0  0  0
   17.7063    5.9396   10.3572 C   0  0  0  0  0  0  0  0  0  0  0  0
   15.3094    7.6758   13.0316 C   0  0  0  0  0  0  0  0  0  0  0  0
   15.1043    7.7280   14.3822 C   0  0  0  0  0  0  0  0  0  0  0  0
   14.9001    8.9426   15.0223 C   0  0  0  0  0  0  0  0  0  0  0  0
   14.8766   10.1071   14.2787 C   0  0  0  0  0  0  0  0  0  0  0  0
   15.0874   10.0706   12.9327 C   0  0  0  0  0  0  0  0  0  0  0  0
   15.3035    8.8635   12.3092 C   0  0  0  0  0  0  0  0  0  0  0  0
   10.7515    9.3247    9.3007 H   0  0  0  0  0  0  0  0  0  0  0  0
   15.7691    8.0342    8.6901 H   0  0  0  0  0  0  0  0  0  0  0  0
   15.4043   10.5002    8.3324 H   0  0  0  0  0  0  0  0  0  0  0  0
   12.9326   10.8842    8.7395 H   0  0  0  0  0  0  0  0  0  0  0  0
   11.3078    4.5302    7.4041 H   0  0  0  0  0  0  0  0  0  0  0  0
    9.3079    5.7541    6.4005 H   0  0  0  0  0  0  0  0  0  0  0  0
    9.2486    7.9946    7.5617 H   0  0  0  0  0  0  0  0  0  0  0  0
   12.4296    5.9305   13.0057 H   0  0  0  0  0  0  0  0  0  0  0  0
   10.8587    7.5695   13.9916 H   0  0  0  0  0  0  0  0  0  0  0  0
   10.1316    9.0566   12.1080 H   0  0  0  0  0  0  0  0  0  0  0  0
   18.1295    6.5246   13.5339 H   0  0  0  0  0  0  0  0  0  0  0  0
   20.3774    6.5758   12.8645 H   0  0  0  0  0  0  0  0  0  0  0  0
   20.9348    6.2323   10.6302 H   0  0  0  0  0  0  0  0  0  0  0  0
   19.2798    5.7882    9.0454 H   0  0  0  0  0  0  0  0  0  0  0  0
   17.0061    5.7862    9.7160 H   0  0  0  0  0  0  0  0  0  0  0  0
   15.1085    6.9135   14.8893 H   0  0  0  0  0  0  0  0  0  0  0  0
   14.7764    8.9753   15.9741 H   0  0  0  0  0  0  0  0  0  0  0  0
   14.7394   10.9531   14.7082 H   0  0  0  0  0  0  0  0  0  0  0  0
   15.0446   10.8764   12.4115 H   0  0  0  0  0  0  0  0  0  0  0  0
   15.4545    8.8414   11.3608 H   0  0  0  0  0  0  0  0  0  0  0  0
   15.4747    5.0452   13.2763 O   0  0  0  0  0  0  0  0  0  0  0  0
   14.7854    3.2839   13.8057 V   0  0  0  0  0  0  0  0  0  0  0  0
   13.4942    4.2113   15.5329 Cl  0  0  0  0  0  0  0  0  0  0  0  0
   13.2802    3.3133   12.5703 O   0  0  0  0  0  0  0  0  0  0  0  0
   12.4526    3.1218   11.3161 P   0  0  0  0  0  0  0  0  0  0  0  0
   10.7322    3.0778   11.8550 C   0  0  0  0  0  0  0  0  0  0  0  0
    9.7427    2.8490   10.9173 C   0  0  0  0  0  0  0  0  0  0  0  0
    8.4193    2.8195   11.3114 C   0  0  0  0  0  0  0  0  0  0  0  0
    8.0912    3.0323   12.6362 C   0  0  0  0  0  0  0  0  0  0  0  0
    9.0685    3.2751   13.5728 C   0  0  0  0  0  0  0  0  0  0  0  0
   10.3973    3.2899   13.1739 C   0  0  0  0  0  0  0  0  0  0  0  0
   11.0975    3.4432   13.8151 H   0  0  0  0  0  0  0  0  0  0  0  0
    8.8238    3.4412   14.4858 H   0  0  0  0  0  0  0  0  0  0  0  0
    7.1688    2.9972   12.9010 H   0  0  0  0  0  0  0  0  0  0  0  0
    7.7262    2.6536   10.6667 H   0  0  0  0  0  0  0  0  0  0  0  0
    9.9741    2.7049    9.9972 H   0  0  0  0  0  0  0  0  0  0  0  0
   12.7942    1.5537   10.4996 C   0  0  0  0  0  0  0  0  0  0  0  0
   12.9993    1.5014    9.1489 C   0  0  0  0  0  0  0  0  0  0  0  0
   13.2034    0.2868    8.5089 C   0  0  0  0  0  0  0  0  0  0  0  0
   13.2270   -0.8777    9.2525 C   0  0  0  0  0  0  0  0  0  0  0  0
   13.0161   -0.8412   10.5984 C   0  0  0  0  0  0  0  0  0  0  0  0
   12.8000    0.3659   11.2220 C   0  0  0  0  0  0  0  0  0  0  0  0
   12.6491    0.3880   12.1703 H   0  0  0  0  0  0  0  0  0  0  0  0
   13.0589   -1.6470   11.1197 H   0  0  0  0  0  0  0  0  0  0  0  0
   13.3642   -1.7237    8.8230 H   0  0  0  0  0  0  0  0  0  0  0  0
   13.3272    0.2541    7.5570 H   0  0  0  0  0  0  0  0  0  0  0  0
   12.9951    2.3160    8.6418 H   0  0  0  0  0  0  0  0  0  0  0  0
   14.3072    1.3336   14.4046 N   0  0  0  0  0  0  0  0  0  0  0  0
   15.2722    0.3515   14.3928 N   0  0  0  0  0  0  0  0  0  0  0  0
   16.7265    0.7264   14.0328 B   0  0  0  0  0  0  0  0  0  0  0  0
   17.1655    1.8495   14.9964 N   0  0  0  0  0  0  0  0  0  0  0  0
   16.4570    3.0183   15.0258 N   0  0  0  0  0  0  0  0  0  0  0  0
   15.9235    2.3544   12.3127 N   0  0  0  0  0  0  0  0  0  0  0  0
   16.7290    1.2922   12.5974 N   0  0  0  0  0  0  0  0  0  0  0  0
   17.3520   -0.0953   14.2305 H   0  0  0  0  0  0  0  0  0  0  0  0
   17.3497    0.8986   11.4832 C   0  0  0  0  0  0  0  0  0  0  0  0
   16.9655    1.7056   10.4561 C   0  0  0  0  0  0  0  0  0  0  0  0
   16.0807    2.5977   11.0043 C   0  0  0  0  0  0  0  0  0  0  0  0
   15.6740    3.2989   10.5255 H   0  0  0  0  0  0  0  0  0  0  0  0
   17.2449    1.6600    9.5395 H   0  0  0  0  0  0  0  0  0  0  0  0
   17.9720    0.1728   11.4232 H   0  0  0  0  0  0  0  0  0  0  0  0
   17.0733    3.8088   15.9059 C   0  0  0  0  0  0  0  0  0  0  0  0
   18.1891    3.1512   16.4589 C   0  0  0  0  0  0  0  0  0  0  0  0
   18.1990    1.9210   15.8435 C   0  0  0  0  0  0  0  0  0  0  0  0
   18.8550    1.2349   15.9694 H   0  0  0  0  0  0  0  0  0  0  0  0
   18.7957    3.4753   17.1307 H   0  0  0  0  0  0  0  0  0  0  0  0
   16.7958    4.6992   16.1271 H   0  0  0  0  0  0  0  0  0  0  0  0
   14.7041   -0.8210   14.7246 C   0  0  0  0  0  0  0  0  0  0  0  0
   13.3568   -0.6124   14.9529 C   0  0  0  0  0  0  0  0  0  0  0  0
   13.1732    0.7418   14.7493 C   0  0  0  0  0  0  0  0  0  0  0  0
   12.3344    1.1952   14.8411 H   0  0  0  0  0  0  0  0  0  0  0  0
   12.6993   -1.2708   15.1988 H   0  0  0  0  0  0  0  0  0  0  0  0
   15.1710   -1.6548   14.7917 H   0  0  0  0  0  0  0  0  0  0  0  0
  1  2  1  0  0  0  0
  3  4  1  0  0  0  0
  4  1  1  0  0  0  0
  5  1  1  0  0  0  0
  6  8  1  0  0  0  0
  7  1  1  0  0  0  0
  8  7  4  0  0  0  0
  9  7  4  0  0  0  0
 10  9  4  0  0  0  0
 11  8  4  0  0  0  0
 12  1  1  0  0  0  0
 13  6  1  0  0  0  0
 14 12  4  0  0  0  0
 15 14  4  0  0  0  0
 16 13  4  0  0  0  0
 17  1  1  0  0  0  0
 18  6  1  0  0  0  0
 19 17  4  0  0  0  0
 20 19  4  0  0  0  0
 21 18  4  0  0  0  0
 22  3  1  0  0  0  0
 23 22  4  0  0  0  0
 24 23  4  0  0  0  0
 25 24  4  0  0  0  0
 26 25  4  0  0  0  0
 27 22  4  0  0  0  0
 28  3  1  0  0  0  0
 29 28  4  0  0  0  0
 30 29  4  0  0  0  0
 31 30  4  0  0  0  0
 32 31  4  0  0  0  0
 33 28  4  0  0  0  0
 34  6  1  0  0  0  0
 35  9  1  0  0  0  0
 36 10  1  0  0  0  0
 37 11  1  0  0  0  0
 38 14  1  0  0  0  0
 39 15  1  0  0  0  0
 40 16  1  0  0  0  0
 41 19  1  0  0  0  0
 42 20  1  0  0  0  0
 43 21  1  0  0  0  0
 44 23  1  0  0  0  0
 45 24  1  0  0  0  0
 46 25  1  0  0  0  0
 47 26  1  0  0  0  0
 48 27  1  0  0  0  0
 49 29  1  0  0  0  0
 50 30  1  0  0  0  0
 51 31  1  0  0  0  0
 52 32  1  0  0  0  0
 53 33  1  0  0  0  0
 54  3  1  0  0  0  0
 55 54  1  0  0  0  0
 56 55  1  0  0  0  0
 57 55  1  0  0  0  0
 58  5  1  0  0  0  0
 59 58  1  0  0  0  0
 60 59  4  0  0  0  0
 61 60  4  0  0  0  0
 62 61  4  0  0  0  0
 63 62  4  0  0  0  0
 64 59  4  0  0  0  0
 65 64  1  0  0  0  0
 66 63  1  0  0  0  0
 67 62  1  0  0  0  0
 68 61  1  0  0  0  0
 69 60  1  0  0  0  0
 70 58  1  0  0  0  0
 71 70  4  0  0  0  0
 72 71  4  0  0  0  0
 73 72  4  0  0  0  0
 74 73  4  0  0  0  0
 75 70  4  0  0  0  0
 76 75  1  0  0  0  0
 77 74  1  0  0  0  0
 78 73  1  0  0  0  0
 79 72  1  0  0  0  0
 80 71  1  0  0  0  0
 81 55  1  0  0  0  0
 82 81  4  0  0  0  0
 83 82  1  0  0  0  0
 84 83  1  0  0  0  0
 85 55  1  0  0  0  0
 86 55  1  0  0  0  0
 87 83  1  0  0  0  0
 88 83  1  0  0  0  0
 89 87  4  0  0  0  0
 90 89  4  0  0  0  0
 91 86  4  0  0  0  0
 92 91  1  0  0  0  0
 93 90  1  0  0  0  0
 94 89  1  0  0  0  0
 95 85  4  0  0  0  0
 96 95  4  0  0  0  0
 97 84  4  0  0  0  0
 98 97  1  0  0  0  0
 99 96  1  0  0  0  0
100 95  1  0  0  0  0
101 82  4  0  0  0  0
102101  4  0  0  0  0
103 81  4  0  0  0  0
104103  1  0  0  0  0
105102  1  0  0  0  0
106101  1  0  0  0  0
 10 11  4  0  0  0  0
 12 13  4  0  0  0  0
 15 16  4  0  0  0  0
 17 18  4  0  0  0  0
 20 21  4  0  0  0  0
 26 27  4  0  0  0  0
 32 33  4  0  0  0  0
 57 58  1  0  0  0  0
 63 64  4  0  0  0  0
 74 75  4  0  0  0  0
 84 85  4  0  0  0  0
 86 87  4  0  0  0  0
 90 91  4  0  0  0  0
 96 97  4  0  0  0  0
102103  4  0  0  0  0
M  END
$$$$
TEQPOW

From CSD data. Using bond type 'Any'. Matching problem. No disordered atoms. Largest molecule.
341385  0  0  0  0  0  0  0  0999 V2000
   10.2603    5.9077    5.1838 Ba  0  0  0  0  0  0  0  0  0  0  0  0
   12.3245    7.1141    8.6688 Ba  0  0  0  0  0  0  0  0  0  0  0  0
   12.3935    3.1428    1.5675 P   0  0  0  0  0  0  0  0  0  0  0  0
    9.4696    2.2277    2.0610 P   0  0  0  0  0  0  0  0  0  0  0  0
    9.6596   10.3164   10.0982 P   0  0  0  0  0  0  0  0  0  0  0  0
    8.9063    7.6738    8.8870 P   0  0  0  0  0  0  0  0  0  0  0  0
   12.3245    7.1141    5.8472 O   0  0  0  0  0  0  0  0  0  0  0  0
   12.4884    4.4610    2.9538 B   0  0  0  0  0  0  0  0  0  0  0  0
   11.8328    5.1654    2.7770 H   0  0  0  0  0  0  0  0  0  0  0  0
    9.8266    7.3254    2.9751 H   0  0  0  0  0  0  0  0  0  0  0  0
   12.2937    4.0426    3.8170 H   0  0  0  0  0  0  0  0  0  0  0  0
    9.0502    3.5560    3.3925 B   0  0  0  0  0  0  0  0  0  0  0  0
    9.6590    3.4621    4.1531 H   0  0  0  0  0  0  0  0  0  0  0  0
    8.1260    3.4322    3.6967 H   0  0  0  0  0  0  0  0  0  0  0  0
    9.1475    4.4503    3.0034 H   0  0  0  0  0  0  0  0  0  0  0  0
   10.9751    9.2891   11.0477 B   0  0  0  0  0  0  0  0  0  0  0  0
   11.1476    9.7032   11.9179 H   0  0  0  0  0  0  0  0  0  0  0  0
   11.8044    9.2656   10.5242 H   0  0  0  0  0  0  0  0  0  0  0  0
   10.6448    8.3756   11.1751 H   0  0  0  0  0  0  0  0  0  0  0  0
   11.2363    4.1024    7.4217 B   0  0  0  0  0  0  0  0  0  0  0  0
   10.6682    3.5624    6.8310 H   0  0  0  0  0  0  0  0  0  0  0  0
   11.9486    4.5208    6.8946 H   0  0  0  0  0  0  0  0  0  0  0  0
   10.6941    4.7982    7.8462 H   0  0  0  0  0  0  0  0  0  0  0  0
   11.0540    2.1131    1.4281 C   0  0  0  0  0  0  0  0  0  0  0  0
   11.2105    1.3340    0.9056 H   0  0  0  0  0  0  0  0  0  0  0  0
   12.7903    3.9765   -0.0163 C   0  0  0  0  0  0  0  0  0  0  0  0
   13.4829    5.1718   -0.0849 C   0  0  0  0  0  0  0  0  0  0  0  0
   13.7318    5.6115    0.7217 H   0  0  0  0  0  0  0  0  0  0  0  0
   13.8267    5.7502   -1.3195 C   0  0  0  0  0  0  0  0  0  0  0  0
   14.2851    6.5826   -1.3478 H   0  0  0  0  0  0  0  0  0  0  0  0
   13.5026    5.1163   -2.4480 C   0  0  0  0  0  0  0  0  0  0  0  0
   13.8353    5.4450   -3.2758 H   0  0  0  0  0  0  0  0  0  0  0  0
   12.6979    3.9872   -2.4444 C   0  0  0  0  0  0  0  0  0  0  0  0
   12.3664    3.6264   -3.2581 H   0  0  0  0  0  0  0  0  0  0  0  0
   12.3799    3.3810   -1.2028 C   0  0  0  0  0  0  0  0  0  0  0  0
   11.8870    2.5699   -1.1815 H   0  0  0  0  0  0  0  0  0  0  0  0
   13.9290    2.0939    1.6694 C   0  0  0  0  0  0  0  0  0  0  0  0
   15.1958    2.6873    1.5990 C   0  0  0  0  0  0  0  0  0  0  0  0
   15.2821    3.6307    1.5176 H   0  0  0  0  0  0  0  0  0  0  0  0
   16.3160    1.8869    1.6485 C   0  0  0  0  0  0  0  0  0  0  0  0
   17.1712    2.2839    1.5424 H   0  0  0  0  0  0  0  0  0  0  0  0
   16.2273    0.5293    1.8501 C   0  0  0  0  0  0  0  0  0  0  0  0
   17.0073   -0.0021    1.9456 H   0  0  0  0  0  0  0  0  0  0  0  0
   14.9900   -0.0299    1.9067 C   0  0  0  0  0  0  0  0  0  0  0  0
   14.9259   -0.9733    2.0058 H   0  0  0  0  0  0  0  0  0  0  0  0
   13.8082    0.7108    1.8264 C   0  0  0  0  0  0  0  0  0  0  0  0
   12.9579    0.2924    1.8784 H   0  0  0  0  0  0  0  0  0  0  0  0
    8.9923    0.5912    2.6178 C   0  0  0  0  0  0  0  0  0  0  0  0
    9.2511   -0.5443    1.8643 C   0  0  0  0  0  0  0  0  0  0  0  0
    9.6614   -0.4482    1.0153 H   0  0  0  0  0  0  0  0  0  0  0  0
    8.9233   -1.8164    2.3135 C   0  0  0  0  0  0  0  0  0  0  0  0
    9.0958   -2.5677    1.7582 H   0  0  0  0  0  0  0  0  0  0  0  0
    8.3552   -2.0021    3.5411 C   0  0  0  0  0  0  0  0  0  0  0  0
    8.1679   -2.8772    3.8594 H   0  0  0  0  0  0  0  0  0  0  0  0
    8.0680   -0.9114    4.2981 C   0  0  0  0  0  0  0  0  0  0  0  0
    7.6416   -1.0224    5.1400 H   0  0  0  0  0  0  0  0  0  0  0  0
    8.3983    0.3778    3.8453 C   0  0  0  0  0  0  0  0  0  0  0  0
    8.2036    1.1249    4.4007 H   0  0  0  0  0  0  0  0  0  0  0  0
    8.2960    2.5443    0.6721 C   0  0  0  0  0  0  0  0  0  0  0  0
    7.0144    2.0491    0.6792 C   0  0  0  0  0  0  0  0  0  0  0  0
    6.7162    1.5155    1.4079 H   0  0  0  0  0  0  0  0  0  0  0  0
    6.1592    2.3223   -0.3608 C   0  0  0  0  0  0  0  0  0  0  0  0
    5.2990    1.9210   -0.4033 H   0  0  0  0  0  0  0  0  0  0  0  0
    6.5855    3.2017   -1.3619 C   0  0  0  0  0  0  0  0  0  0  0  0
    5.9879    3.4386   -2.0588 H   0  0  0  0  0  0  0  0  0  0  0  0
    7.8388    3.7203   -1.3478 C   0  0  0  0  0  0  0  0  0  0  0  0
    8.1223    4.3180   -2.0305 H   0  0  0  0  0  0  0  0  0  0  0  0
    8.6756    3.3724   -0.3431 C   0  0  0  0  0  0  0  0  0  0  0  0
    9.5604    3.7182   -0.3431 H   0  0  0  0  0  0  0  0  0  0  0  0
    9.0958    9.4748    8.5736 C   0  0  0  0  0  0  0  0  0  0  0  0
    8.2393    9.8697    8.2460 H   0  0  0  0  0  0  0  0  0  0  0  0
   10.2456   11.9700    9.6362 C   0  0  0  0  0  0  0  0  0  0  0  0
    9.7699   12.6914    8.5467 C   0  0  0  0  0  0  0  0  0  0  0  0
    9.1315   12.2859    7.9736 H   0  0  0  0  0  0  0  0  0  0  0  0
   10.1889   13.9550    8.2707 C   0  0  0  0  0  0  0  0  0  0  0  0
    9.8463   14.4161    7.5137 H   0  0  0  0  0  0  0  0  0  0  0  0
   11.1353   14.5868    9.1233 C   0  0  0  0  0  0  0  0  0  0  0  0
   11.4089   15.4833    8.9712 H   0  0  0  0  0  0  0  0  0  0  0  0
   11.6627   13.8398   10.1987 C   0  0  0  0  0  0  0  0  0  0  0  0
   12.3504   14.2112   10.7364 H   0  0  0  0  0  0  0  0  0  0  0  0
   11.1870   12.5804   10.4711 C   0  0  0  0  0  0  0  0  0  0  0  0
   11.5038   12.1173   11.2352 H   0  0  0  0  0  0  0  0  0  0  0  0
    8.2443   10.7064   11.1556 C   0  0  0  0  0  0  0  0  0  0  0  0
    8.0409    9.9657   12.3106 C   0  0  0  0  0  0  0  0  0  0  0  0
    8.6201    9.2400   12.5158 H   0  0  0  0  0  0  0  0  0  0  0  0
    6.9824   10.2838   13.1808 C   0  0  0  0  0  0  0  0  0  0  0  0
    6.8431    9.7736   13.9697 H   0  0  0  0  0  0  0  0  0  0  0  0
    6.1813   11.2998   12.8908 C   0  0  0  0  0  0  0  0  0  0  0  0
    5.5036   11.5474   13.5063 H   0  0  0  0  0  0  0  0  0  0  0  0
    6.3083   11.9849   11.7411 C   0  0  0  0  0  0  0  0  0  0  0  0
    5.7032   12.6914   11.5500 H   0  0  0  0  0  0  0  0  0  0  0  0
    7.3151   11.6797   10.8213 C   0  0  0  0  0  0  0  0  0  0  0  0
    7.3594   12.1279    9.9864 H   0  0  0  0  0  0  0  0  0  0  0  0
    7.6207    7.4620   10.1570 C   0  0  0  0  0  0  0  0  0  0  0  0
    7.8622    6.8302   11.3378 C   0  0  0  0  0  0  0  0  0  0  0  0
    8.7396    6.5101   11.5111 H   0  0  0  0  0  0  0  0  0  0  0  0
    6.8788    6.6339   12.3106 C   0  0  0  0  0  0  0  0  0  0  0  0
    7.0883    6.1942   13.1242 H   0  0  0  0  0  0  0  0  0  0  0  0
    5.6293    7.0778   12.0771 C   0  0  0  0  0  0  0  0  0  0  0  0
    4.9502    6.9519   12.7280 H   0  0  0  0  0  0  0  0  0  0  0  0
    5.3360    7.7182   10.8814 C   0  0  0  0  0  0  0  0  0  0  0  0
    4.4586    8.0383   10.7116 H   0  0  0  0  0  0  0  0  0  0  0  0
    6.3169    7.8847    9.9511 C   0  0  0  0  0  0  0  0  0  0  0  0
    6.1000    8.3073    9.1304 H   0  0  0  0  0  0  0  0  0  0  0  0
    7.9916    7.0800    7.4380 C   0  0  0  0  0  0  0  0  0  0  0  0
    7.7181    5.6926    7.4168 C   0  0  0  0  0  0  0  0  0  0  0  0
    7.9473    5.1675    8.1752 H   0  0  0  0  0  0  0  0  0  0  0  0
    7.1081    5.0629    6.3003 C   0  0  0  0  0  0  0  0  0  0  0  0
    6.9380    4.1280    6.2933 H   0  0  0  0  0  0  0  0  0  0  0  0
    6.7642    5.8676    5.2048 C   0  0  0  0  0  0  0  0  0  0  0  0
    6.3526    5.4706    4.4467 H   0  0  0  0  0  0  0  0  0  0  0  0
    7.0008    7.1995    5.2069 C   0  0  0  0  0  0  0  0  0  0  0  0
    6.7556    7.7224    4.4538 H   0  0  0  0  0  0  0  0  0  0  0  0
    7.6108    7.8121    6.3127 C   0  0  0  0  0  0  0  0  0  0  0  0
    7.7673    8.7491    6.2933 H   0  0  0  0  0  0  0  0  0  0  0  0
   14.4001    5.9318    5.1838 Ba  0  0  0  0  0  0  0  0  0  0  0  0
   12.3093    9.5049    5.1838 Ba  0  0  0  0  0  0  0  0  0  0  0  0
    8.8482    9.0400    1.5675 P   0  0  0  0  0  0  0  0  0  0  0  0
   15.7280    9.1617    1.5675 P   0  0  0  0  0  0  0  0  0  0  0  0
    9.5177   12.0298    2.0610 P   0  0  0  0  0  0  0  0  0  0  0  0
   17.9825    7.0870    2.0610 P   0  0  0  0  0  0  0  0  0  0  0  0
   10.8824    3.2072   10.0982 P   0  0  0  0  0  0  0  0  0  0  0  0
   16.4278    7.8208   10.0982 P   0  0  0  0  0  0  0  0  0  0  0  0
   13.5477    3.8762    8.8870 P   0  0  0  0  0  0  0  0  0  0  0  0
   14.5158    9.7946    8.8870 P   0  0  0  0  0  0  0  0  0  0  0  0
    9.9424    8.2987    2.9538 B   0  0  0  0  0  0  0  0  0  0  0  0
   14.5390    8.5848    2.9538 B   0  0  0  0  0  0  0  0  0  0  0  0
   10.8802    8.5143    2.7770 H   0  0  0  0  0  0  0  0  0  0  0  0
   14.2568    7.6648    2.7770 H   0  0  0  0  0  0  0  0  0  0  0  0
   13.7540    9.1717    2.9751 H   0  0  0  0  0  0  0  0  0  0  0  0
   13.3892    4.8473    2.9751 H   0  0  0  0  0  0  0  0  0  0  0  0
    9.6774    8.6765    3.8170 H   0  0  0  0  0  0  0  0  0  0  0  0
   14.9986    8.6253    3.8170 H   0  0  0  0  0  0  0  0  0  0  0  0
   10.8777   11.7288    3.3925 B   0  0  0  0  0  0  0  0  0  0  0  0
   17.0418    6.0597    3.3925 B   0  0  0  0  0  0  0  0  0  0  0  0
   10.4920   11.2485    4.1531 H   0  0  0  0  0  0  0  0  0  0  0  0
   16.8188    6.6339    4.1531 H   0  0  0  0  0  0  0  0  0  0  0  0
   17.6112    5.3212    3.6967 H   0  0  0  0  0  0  0  0  0  0  0  0
   11.2326   12.5911    3.6967 H   0  0  0  0  0  0  0  0  0  0  0  0
   16.2186    5.6968    3.0034 H   0  0  0  0  0  0  0  0  0  0  0  0
   11.6036   11.1973    3.0034 H   0  0  0  0  0  0  0  0  0  0  0  0
   11.1143    4.8601   11.0477 B   0  0  0  0  0  0  0  0  0  0  0  0
   14.8803    7.1952   11.0477 B   0  0  0  0  0  0  0  0  0  0  0  0
   10.6695    4.8025   11.9179 H   0  0  0  0  0  0  0  0  0  0  0  0
   15.1527    6.8388   11.9179 H   0  0  0  0  0  0  0  0  0  0  0  0
   10.7200    5.5901   10.5242 H   0  0  0  0  0  0  0  0  0  0  0  0
   14.4453    6.4887   10.5242 H   0  0  0  0  0  0  0  0  0  0  0  0
   14.2543    7.9380   11.1751 H   0  0  0  0  0  0  0  0  0  0  0  0
   12.0706    5.0309   11.1751 H   0  0  0  0  0  0  0  0  0  0  0  0
   15.4755    7.6797    7.4217 B   0  0  0  0  0  0  0  0  0  0  0  0
   10.2579    9.5623    7.4217 B   0  0  0  0  0  0  0  0  0  0  0  0
   16.2273    7.4578    6.8310 H   0  0  0  0  0  0  0  0  0  0  0  0
   10.0743   10.3243    6.8310 H   0  0  0  0  0  0  0  0  0  0  0  0
   14.7571    8.0874    6.8946 H   0  0  0  0  0  0  0  0  0  0  0  0
   10.2640    8.7363    6.8946 H   0  0  0  0  0  0  0  0  0  0  0  0
   15.1440    6.8623    7.8462 H   0  0  0  0  0  0  0  0  0  0  0  0
   11.1316    9.6840    7.8462 H   0  0  0  0  0  0  0  0  0  0  0  0
    8.6263   10.7149    1.4281 C   0  0  0  0  0  0  0  0  0  0  0  0
   17.2895    8.5165    1.4281 C   0  0  0  0  0  0  0  0  0  0  0  0
   17.8860    9.0415    0.9056 H   0  0  0  0  0  0  0  0  0  0  0  0
    7.8733   10.9689    0.9056 H   0  0  0  0  0  0  0  0  0  0  0  0
   14.8076    9.0885   -0.0163 C   0  0  0  0  0  0  0  0  0  0  0  0
    9.3718    8.2795   -0.0163 C   0  0  0  0  0  0  0  0  0  0  0  0
   13.4262    9.0906   -0.0849 C   0  0  0  0  0  0  0  0  0  0  0  0
   10.0607    7.0821   -0.0849 C   0  0  0  0  0  0  0  0  0  0  0  0
   12.9209    9.0864    0.7217 H   0  0  0  0  0  0  0  0  0  0  0  0
   10.3170    6.6467    0.7217 H   0  0  0  0  0  0  0  0  0  0  0  0
   12.7533    9.0992   -1.3195 C   0  0  0  0  0  0  0  0  0  0  0  0
   10.3897    6.4951   -1.3195 C   0  0  0  0  0  0  0  0  0  0  0  0
   11.8032    9.0799   -1.3478 H   0  0  0  0  0  0  0  0  0  0  0  0
   10.8814    5.6819   -1.3478 H   0  0  0  0  0  0  0  0  0  0  0  0
   13.4644    9.1354   -2.4480 C   0  0  0  0  0  0  0  0  0  0  0  0
   10.0028    7.0928   -2.4480 C   0  0  0  0  0  0  0  0  0  0  0  0
   13.0134    9.2592   -3.2758 H   0  0  0  0  0  0  0  0  0  0  0  0
   10.1211    6.6403   -3.2758 H   0  0  0  0  0  0  0  0  0  0  0  0
   14.8446    9.0031   -2.4444 C   0  0  0  0  0  0  0  0  0  0  0  0
    9.4273    8.3542   -2.4444 C   0  0  0  0  0  0  0  0  0  0  0  0
   15.3227    8.8964   -3.2581 H   0  0  0  0  0  0  0  0  0  0  0  0
    9.2806    8.8217   -3.2581 H   0  0  0  0  0  0  0  0  0  0  0  0
   15.5285    9.0309   -1.2028 C   0  0  0  0  0  0  0  0  0  0  0  0
    9.0613    8.9327   -1.2028 C   0  0  0  0  0  0  0  0  0  0  0  0
   16.4774    9.0095   -1.1815 H   0  0  0  0  0  0  0  0  0  0  0  0
    8.6053    9.7651   -1.1815 H   0  0  0  0  0  0  0  0  0  0  0  0
   15.8686   11.0159    1.6694 C   0  0  0  0  0  0  0  0  0  0  0  0
    7.1721    8.2347    1.6694 C   0  0  0  0  0  0  0  0  0  0  0  0
   14.7214   11.8163    1.5990 C   0  0  0  0  0  0  0  0  0  0  0  0
    7.0526    6.8409    1.5990 C   0  0  0  0  0  0  0  0  0  0  0  0
   13.8612   11.4193    1.5176 H   0  0  0  0  0  0  0  0  0  0  0  0
    7.8265    6.2945    1.5176 H   0  0  0  0  0  0  0  0  0  0  0  0
   14.8544   13.1866    1.6485 C   0  0  0  0  0  0  0  0  0  0  0  0
    5.7993    6.2710    1.6485 C   0  0  0  0  0  0  0  0  0  0  0  0
   14.0830   13.7288    1.5424 H   0  0  0  0  0  0  0  0  0  0  0  0
    5.7155    5.3319    1.5424 H   0  0  0  0  0  0  0  0  0  0  0  0
   16.0744   13.7885    1.8501 C   0  0  0  0  0  0  0  0  0  0  0  0
    4.6680    7.0266    1.8501 C   0  0  0  0  0  0  0  0  0  0  0  0
   16.1447   14.7298    1.9456 H   0  0  0  0  0  0  0  0  0  0  0  0
    3.8177    6.6168    1.9456 H   0  0  0  0  0  0  0  0  0  0  0  0
   17.1774   12.9967    1.9067 C   0  0  0  0  0  0  0  0  0  0  0  0
    4.8024    8.3777    1.9067 C   0  0  0  0  0  0  0  0  0  0  0  0
   18.0265   13.4129    2.0058 H   0  0  0  0  0  0  0  0  0  0  0  0
    4.0174    8.9049    2.0058 H   0  0  0  0  0  0  0  0  0  0  0  0
   17.1269   11.6029    1.8264 C   0  0  0  0  0  0  0  0  0  0  0  0
    6.0347    9.0309    1.8264 C   0  0  0  0  0  0  0  0  0  0  0  0
   17.9143   11.0757    1.8784 H   0  0  0  0  0  0  0  0  0  0  0  0
    6.0975    9.9764    1.8784 H   0  0  0  0  0  0  0  0  0  0  0  0
   19.6383    7.4919    2.6178 C   0  0  0  0  0  0  0  0  0  0  0  0
    8.3391   13.2613    2.6178 C   0  0  0  0  0  0  0  0  0  0  0  0
   20.4923    8.2838    1.8643 C   0  0  0  0  0  0  0  0  0  0  0  0
    7.2264   13.6050    1.8643 C   0  0  0  0  0  0  0  0  0  0  0  0
   20.2040    8.5912    1.0153 H   0  0  0  0  0  0  0  0  0  0  0  0
    7.1044   13.2016    1.0153 H   0  0  0  0  0  0  0  0  0  0  0  0
   21.7579    8.6360    2.3135 C   0  0  0  0  0  0  0  0  0  0  0  0
    6.2886   14.5249    2.3135 C   0  0  0  0  0  0  0  0  0  0  0  0
   22.3223    9.1611    1.7582 H   0  0  0  0  0  0  0  0  0  0  0  0
    5.5516   14.7512    1.7582 H   0  0  0  0  0  0  0  0  0  0  0  0
   22.2028    8.2368    3.5411 C   0  0  0  0  0  0  0  0  0  0  0  0
    6.4118   15.1098    3.5411 C   0  0  0  0  0  0  0  0  0  0  0  0
   23.0543    8.5122    3.8594 H   0  0  0  0  0  0  0  0  0  0  0  0
    5.7476   15.7095    3.8594 H   0  0  0  0  0  0  0  0  0  0  0  0
   21.4018    7.4428    4.2981 C   0  0  0  0  0  0  0  0  0  0  0  0
    7.4999   14.8131    4.2981 C   0  0  0  0  0  0  0  0  0  0  0  0
   21.7111    7.1291    5.1400 H   0  0  0  0  0  0  0  0  0  0  0  0
    7.6170   15.2378    5.1400 H   0  0  0  0  0  0  0  0  0  0  0  0
   20.1202    7.0842    3.8453 C   0  0  0  0  0  0  0  0  0  0  0  0
    8.4513   13.8825    3.8453 C   0  0  0  0  0  0  0  0  0  0  0  0
   19.5706    6.5421    4.4007 H   0  0  0  0  0  0  0  0  0  0  0  0
    9.1956   13.6776    4.4007 H   0  0  0  0  0  0  0  0  0  0  0  0
   18.2951    5.9124    0.6721 C   0  0  0  0  0  0  0  0  0  0  0  0
   10.3786   12.8878    0.6721 C   0  0  0  0  0  0  0  0  0  0  0  0
   19.3648    5.0501    0.6792 C   0  0  0  0  0  0  0  0  0  0  0  0
   10.5906   14.2453    0.6792 C   0  0  0  0  0  0  0  0  0  0  0  0
   19.9760    5.0586    1.4079 H   0  0  0  0  0  0  0  0  0  0  0  0
   10.2776   14.7704    1.4079 H   0  0  0  0  0  0  0  0  0  0  0  0
   19.5558    4.1728   -0.3608 C   0  0  0  0  0  0  0  0  0  0  0  0
   11.2548   14.8494   -0.3608 C   0  0  0  0  0  0  0  0  0  0  0  0
   20.3334    3.6286   -0.4033 H   0  0  0  0  0  0  0  0  0  0  0  0
   11.3374   15.7949   -0.4033 H   0  0  0  0  0  0  0  0  0  0  0  0
   18.5810    4.1024   -1.3619 C   0  0  0  0  0  0  0  0  0  0  0  0
   11.8032   14.0404   -1.3619 C   0  0  0  0  0  0  0  0  0  0  0  0
   18.6747    3.4663   -2.0588 H   0  0  0  0  0  0  0  0  0  0  0  0
   12.3072   14.4396   -2.0588 H   0  0  0  0  0  0  0  0  0  0  0  0
   17.5052    4.9284   -1.3478 C   0  0  0  0  0  0  0  0  0  0  0  0
   11.6258   12.6957   -1.3478 C   0  0  0  0  0  0  0  0  0  0  0  0
   16.8459    4.8751   -2.0305 H   0  0  0  0  0  0  0  0  0  0  0  0
   12.0016   12.1514   -2.0305 H   0  0  0  0  0  0  0  0  0  0  0  0
   17.3881    5.8270   -0.3431 C   0  0  0  0  0  0  0  0  0  0  0  0
   10.9061   12.1450   -0.3431 C   0  0  0  0  0  0  0  0  0  0  0  0
   16.6462    6.4204   -0.3431 H   0  0  0  0  0  0  0  0  0  0  0  0
   10.7631   11.2059   -0.3431 H   0  0  0  0  0  0  0  0  0  0  0  0
   11.8932    3.1398    8.5736 C   0  0  0  0  0  0  0  0  0  0  0  0
   15.9808    8.7299    8.5736 C   0  0  0  0  0  0  0  0  0  0  0  0
   11.9794    2.2006    8.2460 H   0  0  0  0  0  0  0  0  0  0  0  0
   16.7510    9.2742    8.2460 H   0  0  0  0  0  0  0  0  0  0  0  0
   17.5668    6.4866    9.6362 C   0  0  0  0  0  0  0  0  0  0  0  0
    9.1574    2.8879    9.6362 C   0  0  0  0  0  0  0  0  0  0  0  0
   18.4294    6.5378    8.5467 C   0  0  0  0  0  0  0  0  0  0  0  0
    8.7705    2.1152    8.5467 C   0  0  0  0  0  0  0  0  0  0  0  0
   18.3974    7.2934    7.9736 H   0  0  0  0  0  0  0  0  0  0  0  0
    9.4408    1.7652    7.9736 H   0  0  0  0  0  0  0  0  0  0  0  0
   19.3142    5.5432    8.2707 C   0  0  0  0  0  0  0  0  0  0  0  0
    7.4667    1.8463    8.2707 C   0  0  0  0  0  0  0  0  0  0  0  0
   19.8848    5.6093    7.5137 H   0  0  0  0  0  0  0  0  0  0  0  0
    7.2387    1.3191    7.5137 H   0  0  0  0  0  0  0  0  0  0  0  0
   19.3882    4.4076    9.1233 C   0  0  0  0  0  0  0  0  0  0  0  0
    6.4463    2.3500    9.1233 C   0  0  0  0  0  0  0  0  0  0  0  0
   20.0277    3.7225    8.9712 H   0  0  0  0  0  0  0  0  0  0  0  0
    5.5331    2.1387    8.9712 H   0  0  0  0  0  0  0  0  0  0  0  0
   18.4775    4.3244   10.1987 C   0  0  0  0  0  0  0  0  0  0  0  0
    6.8295    3.1803   10.1987 C   0  0  0  0  0  0  0  0  0  0  0  0
   18.4553    3.5432   10.7364 H   0  0  0  0  0  0  0  0  0  0  0  0
    6.1641    3.5901   10.7364 H   0  0  0  0  0  0  0  0  0  0  0  0
   17.6247    5.3660   10.4711 C   0  0  0  0  0  0  0  0  0  0  0  0
    8.1580    3.3980   10.4711 C   0  0  0  0  0  0  0  0  0  0  0  0
   17.0652    5.3233   11.2352 H   0  0  0  0  0  0  0  0  0  0  0  0
    8.4008    3.9039   11.2352 H   0  0  0  0  0  0  0  0  0  0  0  0
   17.4731    8.8516   11.1556 C   0  0  0  0  0  0  0  0  0  0  0  0
   11.2524    1.7865   11.1556 C   0  0  0  0  0  0  0  0  0  0  0  0
   16.9334    9.3980   12.3106 C   0  0  0  0  0  0  0  0  0  0  0  0
   11.9955    1.9808   12.3106 C   0  0  0  0  0  0  0  0  0  0  0  0
   16.0153    9.2592   12.5158 H   0  0  0  0  0  0  0  0  0  0  0  0
   12.3343    2.8452   12.5158 H   0  0  0  0  0  0  0  0  0  0  0  0
   17.7381   10.1557   13.1808 C   0  0  0  0  0  0  0  0  0  0  0  0
   12.2493    0.9050   13.1808 C   0  0  0  0  0  0  0  0  0  0  0  0
   17.3659   10.5314   13.9697 H   0  0  0  0  0  0  0  0  0  0  0  0
   12.7607    1.0395   13.9697 H   0  0  0  0  0  0  0  0  0  0  0  0
   19.0185   10.3414   12.8908 C   0  0  0  0  0  0  0  0  0  0  0  0
   11.7699   -0.2967   12.8908 C   0  0  0  0  0  0  0  0  0  0  0  0
   19.5718   10.8046   13.5063 H   0  0  0  0  0  0  0  0  0  0  0  0
   11.8944   -1.0075   13.5063 H   0  0  0  0  0  0  0  0  0  0  0  0
   19.5484    9.8889   11.7411 C   0  0  0  0  0  0  0  0  0  0  0  0
   11.1131   -0.5293   11.7411 C   0  0  0  0  0  0  0  0  0  0  0  0
   20.4628   10.0597   11.5500 H   0  0  0  0  0  0  0  0  0  0  0  0
   10.8038   -1.4066   11.5500 H   0  0  0  0  0  0  0  0  0  0  0  0
   18.7806    9.1696   10.8213 C   0  0  0  0  0  0  0  0  0  0  0  0
   10.8740    0.4952   10.8213 C   0  0  0  0  0  0  0  0  0  0  0  0
   19.1466    8.9071    9.9864 H   0  0  0  0  0  0  0  0  0  0  0  0
   10.4637    0.3095    9.9864 H   0  0  0  0  0  0  0  0  0  0  0  0
   14.9752   11.0138   10.1570 C   0  0  0  0  0  0  0  0  0  0  0  0
   14.3738    2.8687   10.1570 C   0  0  0  0  0  0  0  0  0  0  0  0
   14.3073   11.1205   11.3378 C   0  0  0  0  0  0  0  0  0  0  0  0
   14.8002    3.3938   11.3378 C   0  0  0  0  0  0  0  0  0  0  0  0
   13.5913   10.5207   11.5111 H   0  0  0  0  0  0  0  0  0  0  0  0
   14.6388    4.3137   11.5111 H   0  0  0  0  0  0  0  0  0  0  0  0
   14.6289   12.0703   12.3106 C   0  0  0  0  0  0  0  0  0  0  0  0
   15.4620    2.6403   12.3106 C   0  0  0  0  0  0  0  0  0  0  0  0
   14.1434   12.1087   13.1242 H   0  0  0  0  0  0  0  0  0  0  0  0
   15.7380    3.0416   13.1242 H   0  0  0  0  0  0  0  0  0  0  0  0
   15.6382   12.9305   12.0771 C   0  0  0  0  0  0  0  0  0  0  0  0
   15.7023    1.3362   12.0771 C   0  0  0  0  0  0  0  0  0  0  0  0
   15.8686   13.5815   12.7280 H   0  0  0  0  0  0  0  0  0  0  0  0
   16.1509    0.8111   12.7280 H   0  0  0  0  0  0  0  0  0  0  0  0
   16.3394   12.8643   10.8814 C   0  0  0  0  0  0  0  0  0  0  0  0
   15.2944    0.7620   10.8814 C   0  0  0  0  0  0  0  0  0  0  0  0
   17.0554   13.4641   10.7116 H   0  0  0  0  0  0  0  0  0  0  0  0
   15.4558   -0.1579   10.7116 H   0  0  0  0  0  0  0  0  0  0  0  0
   15.9931   11.9316    9.9511 C   0  0  0  0  0  0  0  0  0  0  0  0
   14.6597    1.5283    9.9511 C   0  0  0  0  0  0  0  0  0  0  0  0
   16.4676   11.9081    9.1304 H   0  0  0  0  0  0  0  0  0  0  0  0
   14.4022    1.1291    9.1304 H   0  0  0  0  0  0  0  0  0  0  0  0
   14.4589   10.8836    7.4380 C   0  0  0  0  0  0  0  0  0  0  0  0
   14.5193    3.3810    7.4380 C   0  0  0  0  0  0  0  0  0  0  0  0
   13.3941   11.8142    7.4168 C   0  0  0  0  0  0  0  0  0  0  0  0
   15.8576    3.8377    7.4168 C   0  0  0  0  0  0  0  0  0  0  0  0
   12.8248   11.8782    8.1752 H   0  0  0  0  0  0  0  0  0  0  0  0
   16.1977    4.2988    8.1752 H   0  0  0  0  0  0  0  0  0  0  0  0
   13.1538   12.6573    6.3003 C   0  0  0  0  0  0  0  0  0  0  0  0
   16.7079    3.6243    6.3003 C   0  0  0  0  0  0  0  0  0  0  0  0
   12.4292   13.2720    6.2933 H   0  0  0  0  0  0  0  0  0  0  0  0
   17.6025    3.9445    6.2933 H   0  0  0  0  0  0  0  0  0  0  0  0
   14.0226   12.5527    5.2048 C   0  0  0  0  0  0  0  0  0  0  0  0
   16.1829    2.9242    5.2048 C   0  0  0  0  0  0  0  0  0  0  0  0
   13.8846   13.1077    4.4467 H   0  0  0  0  0  0  0  0  0  0  0  0
   16.7325    2.7662    4.4467 H   0  0  0  0  0  0  0  0  0  0  0  0
   15.0578   11.6818    5.2069 C   0  0  0  0  0  0  0  0  0  0  0  0
   14.9111    2.4632    5.2069 C   0  0  0  0  0  0  0  0  0  0  0  0
   15.6333   11.6327    4.4538 H   0  0  0  0  0  0  0  0  0  0  0  0
   14.5809    1.9893    4.4538 H   0  0  0  0  0  0  0  0  0  0  0  0
   15.2833   10.8473    6.3127 C   0  0  0  0  0  0  0  0  0  0  0  0
   14.0756    2.6851    6.3127 C   0  0  0  0  0  0  0  0  0  0  0  0
   16.0165   10.2432    6.2933 H   0  0  0  0  0  0  0  0  0  0  0  0
   13.1859    2.3522    6.2933 H   0  0  0  0  0  0  0  0  0  0  0  0
  1  7  1  0  0  0  0
  2  7  1  0  0  0  0
  3  8  1  0  0  0  0
  4 12  1  0  0  0  0
  5 16  1  0  0  0  0
  6 70  1  0  0  0  0
  7116  1  0  0  0  0
  8  9  1  0  0  0  0
  9  1  1  0  0  0  0
 10  1  1  0  0  0  0
 11  8  1  0  0  0  0
 12 13  1  0  0  0  0
 13  1  1  0  0  0  0
 14 12  1  0  0  0  0
 15  1  1  0  0  0  0
 16 17  1  0  0  0  0
 18  2  1  0  0  0  0
 19 16  1  0  0  0  0
 20 21  1  0  0  0  0
 21  1  1  0  0  0  0
 22  1  1  0  0  0  0
 23  1  1  0  0  0  0
 24  3  1  0  0  0  0
 25 24  1  0  0  0  0
 26  3  1  0  0  0  0
 27 26  1  0  0  0  0
 28 27  1  0  0  0  0
 29 27  1  0  0  0  0
 30 29  1  0  0  0  0
 31 29  1  0  0  0  0
 32 31  1  0  0  0  0
 33 31  1  0  0  0  0
 34 33  1  0  0  0  0
 35 26  1  0  0  0  0
 36 35  1  0  0  0  0
 37  3  1  0  0  0  0
 38 37  1  0  0  0  0
 39 38  1  0  0  0  0
 40 38  1  0  0  0  0
 41 40  1  0  0  0  0
 42 40  1  0  0  0  0
 43 42  1  0  0  0  0
 44 42  1  0  0  0  0
 45 44  1  0  0  0  0
 46 37  1  0  0  0  0
 47 46  1  0  0  0  0
 48  4  1  0  0  0  0
 49 48  1  0  0  0  0
 50 49  1  0  0  0  0
 51 49  1  0  0  0  0
 52 51  1  0  0  0  0
 53 51  1  0  0  0  0
 54 53  1  0  0  0  0
 55 53  1  0  0  0  0
 56 55  1  0  0  0  0
 57 48  1  0  0  0  0
 58 57  1  0  0  0  0
 59  4  1  0  0  0  0
 60 59  1  0  0  0  0
 61 60  1  0  0  0  0
 62 60  1  0  0  0  0
 63 62  1  0  0  0  0
 64 62  1  0  0  0  0
 65 64  1  0  0  0  0
 66 64  1  0  0  0  0
 67 66  1  0  0  0  0
 68 59  1  0  0  0  0
 69 68  1  0  0  0  0
 70  5  1  0  0  0  0
 71 70  1  0  0  0  0
 72  5  1  0  0  0  0
 73 72  1  0  0  0  0
 74 73  1  0  0  0  0
 75 73  1  0  0  0  0
 76 75  1  0  0  0  0
 77 75  1  0  0  0  0
 78 77  1  0  0  0  0
 79 77  1  0  0  0  0
 80 79  1  0  0  0  0
 81 72  1  0  0  0  0
 82 81  1  0  0  0  0
 83  5  1  0  0  0  0
 84 83  1  0  0  0  0
 85 84  1  0  0  0  0
 86 84  1  0  0  0  0
 87 86  1  0  0  0  0
 88 86  1  0  0  0  0
 89 88  1  0  0  0  0
 90 88  1  0  0  0  0
 91 90  1  0  0  0  0
 92 83  1  0  0  0  0
 93 92  1  0  0  0  0
 94  6  1  0  0  0  0
 95 94  1  0  0  0  0
 96 95  1  0  0  0  0
 97 95  1  0  0  0  0
 98 97  1  0  0  0  0
 99 97  1  0  0  0  0
100 99  1  0  0  0  0
101 99  1  0  0  0  0
102101  1  0  0  0  0
103 94  1  0  0  0  0
104103  1  0  0  0  0
105  6  1  0  0  0  0
106105  1  0  0  0  0
107106  1  0  0  0  0
108106  1  0  0  0  0
109108  1  0  0  0  0
110108  1  0  0  0  0
111110  1  0  0  0  0
112110  1  0  0  0  0
113112  1  0  0  0  0
114105  1  0  0  0  0
115114  1  0  0  0  0
116129  1  0  0  0  0
117  7  1  0  0  0  0
118126  1  0  0  0  0
119127  1  0  0  0  0
120134  1  0  0  0  0
121135  1  0  0  0  0
122142  1  0  0  0  0
123143  1  0  0  0  0
124250  1  0  0  0  0
125251  1  0  0  0  0
126 10  1  0  0  0  0
127129  1  0  0  0  0
128117  1  0  0  0  0
130117  1  0  0  0  0
131  8  1  0  0  0  0
132126  1  0  0  0  0
133127  1  0  0  0  0
134136  1  0  0  0  0
135137  1  0  0  0  0
136117  1  0  0  0  0
137116  1  0  0  0  0
138135  1  0  0  0  0
139134  1  0  0  0  0
140116  1  0  0  0  0
141117  1  0  0  0  0
142144  1  0  0  0  0
143145  1  0  0  0  0
146  2  1  0  0  0  0
147  2  1  0  0  0  0
148143  1  0  0  0  0
149142  1  0  0  0  0
150152  1  0  0  0  0
151 70  1  0  0  0  0
152116  1  0  0  0  0
153117  1  0  0  0  0
154116  1  0  0  0  0
155117  1  0  0  0  0
156  2  1  0  0  0  0
157  2  1  0  0  0  0
158118  1  0  0  0  0
159119  1  0  0  0  0
160159  1  0  0  0  0
161158  1  0  0  0  0
162119  1  0  0  0  0
163118  1  0  0  0  0
164162  1  0  0  0  0
165163  1  0  0  0  0
166164  1  0  0  0  0
167165  1  0  0  0  0
168164  1  0  0  0  0
169165  1  0  0  0  0
170168  1  0  0  0  0
171169  1  0  0  0  0
172168  1  0  0  0  0
173169  1  0  0  0  0
174172  1  0  0  0  0
175173  1  0  0  0  0
176172  1  0  0  0  0
177173  1  0  0  0  0
178176  1  0  0  0  0
179177  1  0  0  0  0
180162  1  0  0  0  0
181163  1  0  0  0  0
182180  1  0  0  0  0
183181  1  0  0  0  0
184119  1  0  0  0  0
185118  1  0  0  0  0
186184  1  0  0  0  0
187185  1  0  0  0  0
188186  1  0  0  0  0
189187  1  0  0  0  0
190186  1  0  0  0  0
191187  1  0  0  0  0
192190  1  0  0  0  0
193191  1  0  0  0  0
194190  1  0  0  0  0
195191  1  0  0  0  0
196194  1  0  0  0  0
197195  1  0  0  0  0
198194  1  0  0  0  0
199195  1  0  0  0  0
200198  1  0  0  0  0
201199  1  0  0  0  0
202184  1  0  0  0  0
203185  1  0  0  0  0
204202  1  0  0  0  0
205203  1  0  0  0  0
206121  1  0  0  0  0
207120  1  0  0  0  0
208206  1  0  0  0  0
209207  1  0  0  0  0
210208  1  0  0  0  0
211209  1  0  0  0  0
212208  1  0  0  0  0
213209  1  0  0  0  0
214212  1  0  0  0  0
215213  1  0  0  0  0
216212  1  0  0  0  0
217213  1  0  0  0  0
218216  1  0  0  0  0
219217  1  0  0  0  0
220216  1  0  0  0  0
221217  1  0  0  0  0
222220  1  0  0  0  0
223221  1  0  0  0  0
224206  1  0  0  0  0
225207  1  0  0  0  0
226224  1  0  0  0  0
227225  1  0  0  0  0
228121  1  0  0  0  0
229120  1  0  0  0  0
230228  1  0  0  0  0
231229  1  0  0  0  0
232230  1  0  0  0  0
233231  1  0  0  0  0
234230  1  0  0  0  0
235231  1  0  0  0  0
236234  1  0  0  0  0
237235  1  0  0  0  0
238234  1  0  0  0  0
239235  1  0  0  0  0
240238  1  0  0  0  0
241239  1  0  0  0  0
242238  1  0  0  0  0
243239  1  0  0  0  0
244242  1  0  0  0  0
245243  1  0  0  0  0
246228  1  0  0  0  0
247229  1  0  0  0  0
248246  1  0  0  0  0
249247  1  0  0  0  0
250 20  1  0  0  0  0
251123  1  0  0  0  0
252250  1  0  0  0  0
253251  1  0  0  0  0
254123  1  0  0  0  0
255122  1  0  0  0  0
256254  1  0  0  0  0
257255  1  0  0  0  0
258256  1  0  0  0  0
259257  1  0  0  0  0
260256  1  0  0  0  0
261257  1  0  0  0  0
262260  1  0  0  0  0
263261  1  0  0  0  0
264260  1  0  0  0  0
265261  1  0  0  0  0
266264  1  0  0  0  0
267265  1  0  0  0  0
268264  1  0  0  0  0
269265  1  0  0  0  0
270268  1  0  0  0  0
271269  1  0  0  0  0
272254  1  0  0  0  0
273255  1  0  0  0  0
274272  1  0  0  0  0
275273  1  0  0  0  0
276123  1  0  0  0  0
277122  1  0  0  0  0
278276  1  0  0  0  0
279277  1  0  0  0  0
280278  1  0  0  0  0
281279  1  0  0  0  0
282278  1  0  0  0  0
283279  1  0  0  0  0
284282  1  0  0  0  0
285283  1  0  0  0  0
286282  1  0  0  0  0
287283  1  0  0  0  0
288286  1  0  0  0  0
289287  1  0  0  0  0
290286  1  0  0  0  0
291287  1  0  0  0  0
292290  1  0  0  0  0
293291  1  0  0  0  0
294276  1  0  0  0  0
295277  1  0  0  0  0
296294  1  0  0  0  0
297295  1  0  0  0  0
298125  1  0  0  0  0
299124  1  0  0  0  0
300298  1  0  0  0  0
301299  1  0  0  0  0
302300  1  0  0  0  0
303301  1  0  0  0  0
304300  1  0  0  0  0
305301  1  0  0  0  0
306304  1  0  0  0  0
307305  1  0  0  0  0
308304  1  0  0  0  0
309305  1  0  0  0  0
310308  1  0  0  0  0
311309  1  0  0  0  0
312308  1  0  0  0  0
313309  1  0  0  0  0
314312  1  0  0  0  0
315313  1  0  0  0  0
316298  1  0  0  0  0
317299  1  0  0  0  0
318316  1  0  0  0  0
319317  1  0  0  0  0
320125  1  0  0  0  0
321124  1  0  0  0  0
322320  1  0  0  0  0
323321  1  0  0  0  0
324322  1  0  0  0  0
325323  1  0  0  0  0
326322  1  0  0  0  0
327323  1  0  0  0  0
328326  1  0  0  0  0
329327  1  0  0  0  0
330326  1  0  0  0  0
331327  1  0  0  0  0
332330  1  0  0  0  0
333331  1  0  0  0  0
334330  1  0  0  0  0
335331  1  0  0  0  0
336334  1  0  0  0  0
337335  1  0  0  0  0
338320  1  0  0  0  0
339321  1  0  0  0  0
340338  1  0  0  0  0
341339  1  0  0  0  0
  2 23  1  0  0  0  0
  4 24  1  0  0  0  0
 12 15  1  0  0  0  0
 16 18  1  0  0  0  0
 20 22  1  0  0  0  0
 20 23  1  0  0  0  0
 33 35  1  0  0  0  0
 44 46  1  0  0  0  0
 55 57  1  0  0  0  0
 66 68  1  0  0  0  0
 79 81  1  0  0  0  0
 90 92  1  0  0  0  0
101103  1  0  0  0  0
112114  1  0  0  0  0
116131  1  0  0  0  0
116156  1  0  0  0  0
117157  1  0  0  0  0
120158  1  0  0  0  0
121159  1  0  0  0  0
122250  1  0  0  0  0
126128  1  0  0  0  0
127130  1  0  0  0  0
134141  1  0  0  0  0
135140  1  0  0  0  0
142146  1  0  0  0  0
143147  1  0  0  0  0
150154  1  0  0  0  0
150156  1  0  0  0  0
150251  1  0  0  0  0
151153  1  0  0  0  0
151155  1  0  0  0  0
151157  1  0  0  0  0
176180  1  0  0  0  0
177181  1  0  0  0  0
198202  1  0  0  0  0
199203  1  0  0  0  0
220224  1  0  0  0  0
221225  1  0  0  0  0
242246  1  0  0  0  0
243247  1  0  0  0  0
268272  1  0  0  0  0
269273  1  0  0  0  0
290294  1  0  0  0  0
291295  1  0  0  0  0
312316  1  0  0  0  0
313317  1  0  0  0  0
334338  1  0  0  0  0
335339  1  0  0  0  0
M  END
$$$$
TEYCIN

From CSD data. Using bond type 'Any'. No disordered atoms. Largest molecule.
145152  0  0  0  0  0  0  0  0999 V2000
   12.7972    7.2824    9.5120 La  0  1  0  0  0  0  0  0  0  0  0  0
    9.4242    6.0116    8.2895 P   0  5  0  0  0  0  0  0  0  0  0  0
   11.5117   10.9498   12.1128 P   0  5  0  0  0  0  0  0  0  0  0  0
   15.8024    4.3454    7.4213 P   0  5  0  0  0  0  0  0  0  0  0  0
   13.1960    6.0196   11.7093 O   0  0  0  0  0  0  0  0  0  0  0  0
   15.0414    8.2359   10.2959 O   0  0  0  0  0  0  0  0  0  0  0  0
   13.5041    8.9950    7.6904 O   0  0  0  0  0  0  0  0  0  0  0  0
    7.7671    6.6004    8.9292 C   0  0  0  0  0  0  0  0  0  0  0  0
    9.2612    4.6902    6.9698 C   0  0  0  0  0  0  0  0  0  0  0  0
    8.5680    5.1907    5.7263 C   0  0  0  0  0  0  0  0  0  0  0  0
    7.6380    5.4159    5.9388 H   0  0  0  0  0  0  0  0  0  0  0  0
    8.5864    4.4936    5.0382 H   0  0  0  0  0  0  0  0  0  0  0  0
    9.0293    5.9896    5.3944 H   0  0  0  0  0  0  0  0  0  0  0  0
    8.5621    3.4593    7.4925 C   0  0  0  0  0  0  0  0  0  0  0  0
    8.9776    3.1800    8.3347 H   0  0  0  0  0  0  0  0  0  0  0  0
    8.6369    2.7365    6.8352 H   0  0  0  0  0  0  0  0  0  0  0  0
    7.6153    3.6627    7.6474 H   0  0  0  0  0  0  0  0  0  0  0  0
   10.6647    4.2640    6.5860 C   0  0  0  0  0  0  0  0  0  0  0  0
   11.1786    5.0496    6.3026 H   0  0  0  0  0  0  0  0  0  0  0  0
   10.6214    3.6194    5.8495 H   0  0  0  0  0  0  0  0  0  0  0  0
   11.1033    3.8491    7.3582 H   0  0  0  0  0  0  0  0  0  0  0  0
   10.4948   10.3500   13.5781 C   0  0  0  0  0  0  0  0  0  0  0  0
   10.4076   11.4149   14.6792 C   0  0  0  0  0  0  0  0  0  0  0  0
   11.3096   11.7291   14.9014 H   0  0  0  0  0  0  0  0  0  0  0  0
    9.9917   11.0271   15.4769 H   0  0  0  0  0  0  0  0  0  0  0  0
    9.8684   12.1691   14.3626 H   0  0  0  0  0  0  0  0  0  0  0  0
   11.2513    9.1389   14.1616 C   0  0  0  0  0  0  0  0  0  0  0  0
   11.2470    8.4061   13.5104 H   0  0  0  0  0  0  0  0  0  0  0  0
   10.8102    8.8445   14.9862 H   0  0  0  0  0  0  0  0  0  0  0  0
   12.1759    9.3948   14.3592 H   0  0  0  0  0  0  0  0  0  0  0  0
    9.0996    9.8948   13.1826 C   0  0  0  0  0  0  0  0  0  0  0  0
    8.5882   10.6611   12.8487 H   0  0  0  0  0  0  0  0  0  0  0  0
    8.6460    9.5150   13.9641 H   0  0  0  0  0  0  0  0  0  0  0  0
    9.1646    9.2143   12.4803 H   0  0  0  0  0  0  0  0  0  0  0  0
   10.5129   12.0872   11.0011 C   0  0  0  0  0  0  0  0  0  0  0  0
    9.7779   13.1811   11.8044 C   0  0  0  0  0  0  0  0  0  0  0  0
    9.0535   12.7735   12.3236 H   0  0  0  0  0  0  0  0  0  0  0  0
    9.4046   13.8444   11.1874 H   0  0  0  0  0  0  0  0  0  0  0  0
   10.4092   13.6192   12.4126 H   0  0  0  0  0  0  0  0  0  0  0  0
   11.5149   12.7933   10.0895 C   0  0  0  0  0  0  0  0  0  0  0  0
   12.0980   13.3677   10.6278 H   0  0  0  0  0  0  0  0  0  0  0  0
   11.0325   13.3388    9.4341 H   0  0  0  0  0  0  0  0  0  0  0  0
   12.0574   12.1241    9.6213 H   0  0  0  0  0  0  0  0  0  0  0  0
    9.5299   11.3220   10.1148 C   0  0  0  0  0  0  0  0  0  0  0  0
   10.0171   10.6535    9.5886 H   0  0  0  0  0  0  0  0  0  0  0  0
    9.0785   11.9474    9.5108 H   0  0  0  0  0  0  0  0  0  0  0  0
    8.8646   10.8727   10.6771 H   0  0  0  0  0  0  0  0  0  0  0  0
   15.5603    2.6070    8.0617 C   0  0  0  0  0  0  0  0  0  0  0  0
   16.0396    2.5895    9.5137 C   0  0  0  0  0  0  0  0  0  0  0  0
   17.0124    2.7039    9.5381 H   0  0  0  0  0  0  0  0  0  0  0  0
   15.8004    1.7338    9.9264 H   0  0  0  0  0  0  0  0  0  0  0  0
   15.6123    3.3210   10.0071 H   0  0  0  0  0  0  0  0  0  0  0  0
   14.0690    2.2029    8.0448 C   0  0  0  0  0  0  0  0  0  0  0  0
   13.5504    2.8432    8.5755 H   0  0  0  0  0  0  0  0  0  0  0  0
   13.9686    1.3057    8.4270 H   0  0  0  0  0  0  0  0  0  0  0  0
   13.7405    2.2026    7.1214 H   0  0  0  0  0  0  0  0  0  0  0  0
   16.3838    1.5932    7.2708 C   0  0  0  0  0  0  0  0  0  0  0  0
   16.0235    1.5172    6.3627 H   0  0  0  0  0  0  0  0  0  0  0  0
   16.3408    0.7205    7.7138 H   0  0  0  0  0  0  0  0  0  0  0  0
   17.3164    1.8923    7.2280 H   0  0  0  0  0  0  0  0  0  0  0  0
   15.6190    4.4510    5.5634 C   0  0  0  0  0  0  0  0  0  0  0  0
   15.4344    5.9374    5.2496 C   0  0  0  0  0  0  0  0  0  0  0  0
   14.5758    6.2432    5.6099 H   0  0  0  0  0  0  0  0  0  0  0  0
   15.4472    6.0703    4.2787 H   0  0  0  0  0  0  0  0  0  0  0  0
   16.1619    6.4506    5.6592 H   0  0  0  0  0  0  0  0  0  0  0  0
   14.4210    3.6834    5.0162 C   0  0  0  0  0  0  0  0  0  0  0  0
   14.5365    2.7267    5.1957 H   0  0  0  0  0  0  0  0  0  0  0  0
   14.3539    3.8284    4.0494 H   0  0  0  0  0  0  0  0  0  0  0  0
   13.6027    4.0009    5.4519 H   0  0  0  0  0  0  0  0  0  0  0  0
   16.8996    3.9726    4.8605 C   0  0  0  0  0  0  0  0  0  0  0  0
   17.6703    4.4641    5.2144 H   0  0  0  0  0  0  0  0  0  0  0  0
   16.8240    4.1338    3.8969 H   0  0  0  0  0  0  0  0  0  0  0  0
   17.0227    3.0134    5.0222 H   0  0  0  0  0  0  0  0  0  0  0  0
   12.9535    4.6101   11.9500 C   0  0  0  0  0  0  0  0  0  0  0  0
   13.7688    4.0791   11.7667 H   0  0  0  0  0  0  0  0  0  0  0  0
   12.2210    4.2780   11.3726 H   0  0  0  0  0  0  0  0  0  0  0  0
   12.5773    4.5114   13.3780 C   0  0  0  0  0  0  0  0  0  0  0  0
   12.9591    3.6921   13.7809 H   0  0  0  0  0  0  0  0  0  0  0  0
   11.5925    4.4833   13.4752 H   0  0  0  0  0  0  0  0  0  0  0  0
   13.1293    5.7225   14.0412 C   0  0  0  0  0  0  0  0  0  0  0  0
   13.7695    5.4738   14.7547 H   0  0  0  0  0  0  0  0  0  0  0  0
   12.4061    6.2710   14.4354 H   0  0  0  0  0  0  0  0  0  0  0  0
   13.8201    6.4611   12.9384 C   0  0  0  0  0  0  0  0  0  0  0  0
   13.7090    7.4383   13.0524 H   0  0  0  0  0  0  0  0  0  0  0  0
   14.7874    6.2506   12.9317 H   0  0  0  0  0  0  0  0  0  0  0  0
   16.2701    7.5143   10.5960 C   0  0  0  0  0  0  0  0  0  0  0  0
   16.3278    6.6803   10.0659 H   0  0  0  0  0  0  0  0  0  0  0  0
   16.3192    7.2869   11.5583 H   0  0  0  0  0  0  0  0  0  0  0  0
   17.3402    8.4445   10.2240 C   0  0  0  0  0  0  0  0  0  0  0  0
   17.6196    8.2909    9.2868 H   0  0  0  0  0  0  0  0  0  0  0  0
   18.1263    8.3181   10.8123 H   0  0  0  0  0  0  0  0  0  0  0  0
   16.7840    9.8449   10.3837 C   0  0  0  0  0  0  0  0  0  0  0  0
   17.2111   10.3110   11.1453 H   0  0  0  0  0  0  0  0  0  0  0  0
   16.9224   10.3771    9.5609 H   0  0  0  0  0  0  0  0  0  0  0  0
   15.3106    9.6208   10.6430 C   0  0  0  0  0  0  0  0  0  0  0  0
   15.0974    9.7868   11.5953 H   0  0  0  0  0  0  0  0  0  0  0  0
   14.7646   10.2299   10.0852 H   0  0  0  0  0  0  0  0  0  0  0  0
   14.8243    9.2190    7.1175 C   0  0  0  0  0  0  0  0  0  0  0  0
   15.3417    8.3760    7.0844 H   0  0  0  0  0  0  0  0  0  0  0  0
   15.3299    9.8849    7.6481 H   0  0  0  0  0  0  0  0  0  0  0  0
   14.5561    9.7288    5.7477 C   0  0  0  0  0  0  0  0  0  0  0  0
   14.5016    8.9818    5.1006 H   0  0  0  0  0  0  0  0  0  0  0  0
   15.2710   10.3499    5.4590 H   0  0  0  0  0  0  0  0  0  0  0  0
   13.2425   10.4418    5.8449 C   0  0  0  0  0  0  0  0  0  0  0  0
   13.3773   11.4230    5.8571 H   0  0  0  0  0  0  0  0  0  0  0  0
   12.6608   10.2096    5.0786 H   0  0  0  0  0  0  0  0  0  0  0  0
   12.6550    9.9912    7.0888 C   0  0  0  0  0  0  0  0  0  0  0  0
   12.5490   10.7577    7.7064 H   0  0  0  0  0  0  0  0  0  0  0  0
   11.7591    9.6069    6.9158 H   0  0  0  0  0  0  0  0  0  0  0  0
   10.4731    5.3382    9.7661 B   0  0  0  0  0  0  0  0  0  0  0  0
   10.6560    6.2180   10.5611 H   0  0  0  0  0  0  0  0  0  0  0  0
   11.5297    4.9414    9.3580 H   0  0  0  0  0  0  0  0  0  0  0  0
    9.8849    4.4361   10.2958 H   0  0  0  0  0  0  0  0  0  0  0  0
   10.4702    7.4772    7.5888 B   0  0  0  0  0  0  0  0  0  0  0  0
    9.8891    7.9780    6.6658 H   0  0  0  0  0  0  0  0  0  0  0  0
   11.5345    7.0672    7.2162 H   0  0  0  0  0  0  0  0  0  0  0  0
   10.6363    8.2975    8.4490 H   0  0  0  0  0  0  0  0  0  0  0  0
   11.8945    9.3944   11.0511 B   0  0  0  0  0  0  0  0  0  0  0  0
   10.9013    8.7292   10.9433 H   0  0  0  0  0  0  0  0  0  0  0  0
   12.7530    8.7472   11.5846 H   0  0  0  0  0  0  0  0  0  0  0  0
   12.2681    9.7345    9.9628 H   0  0  0  0  0  0  0  0  0  0  0  0
   13.1141   11.8654   12.7405 B   0  0  0  0  0  0  0  0  0  0  0  0
   13.8381   12.0897   11.8093 H   0  0  0  0  0  0  0  0  0  0  0  0
   13.6878   11.1708   13.5336 H   0  0  0  0  0  0  0  0  0  0  0  0
   12.8056   12.8997   13.2646 H   0  0  0  0  0  0  0  0  0  0  0  0
   14.4553    5.4497    8.2247 B   0  0  0  0  0  0  0  0  0  0  0  0
   14.7910    6.5996    8.1619 H   0  0  0  0  0  0  0  0  0  0  0  0
   14.3145    5.1357    9.3744 H   0  0  0  0  0  0  0  0  0  0  0  0
   13.4175    5.3029    7.6402 H   0  0  0  0  0  0  0  0  0  0  0  0
   17.5689    4.9724    7.9372 B   0  0  0  0  0  0  0  0  0  0  0  0
   18.3862    4.1390    7.6562 H   0  0  0  0  0  0  0  0  0  0  0  0
   17.5929    5.1743    9.1187 H   0  0  0  0  0  0  0  0  0  0  0  0
   17.8187    5.9897    7.3512 H   0  0  0  0  0  0  0  0  0  0  0  0
    8.0678    7.4377   10.2081 C   0  0  0  0  0  0  0  0  0  0  0  0
    8.4351    6.8520   10.9029 H   0  0  0  0  0  0  0  0  0  0  0  0
    7.2386    7.8478   10.5320 H   0  0  0  0  0  0  0  0  0  0  0  0
    8.7175    8.1387    9.9943 H   0  0  0  0  0  0  0  0  0  0  0  0
    6.8221    5.4764    9.3603 C   0  0  0  0  0  0  0  0  0  0  0  0
    6.4350    5.0527    8.5653 H   0  0  0  0  0  0  0  0  0  0  0  0
    6.1033    5.8487    9.9134 H   0  0  0  0  0  0  0  0  0  0  0  0
    7.3201    4.8099    9.8763 H   0  0  0  0  0  0  0  0  0  0  0  0
    7.0242    7.5434    7.9654 C   0  0  0  0  0  0  0  0  0  0  0  0
    7.6224    8.2716    7.6960 H   0  0  0  0  0  0  0  0  0  0  0  0
    6.2378    7.9167    8.4158 H   0  0  0  0  0  0  0  0  0  0  0  0
    6.7404    7.0431    7.1727 H   0  0  0  0  0  0  0  0  0  0  0  0
  1  5  1  0  0  0  0
  2  8  1  0  0  0  0
  3 22  1  0  0  0  0
  4 48  1  0  0  0  0
  5 74  1  0  0  0  0
  6  1  1  0  0  0  0
  7  1  1  0  0  0  0
  8134  1  0  0  0  0
  9  2  1  0  0  0  0
 10  9  1  0  0  0  0
 11 10  1  0  0  0  0
 12 10  1  0  0  0  0
 13 10  1  0  0  0  0
 14  9  1  0  0  0  0
 15 14  1  0  0  0  0
 16 14  1  0  0  0  0
 17 14  1  0  0  0  0
 18  9  1  0  0  0  0
 19 18  1  0  0  0  0
 20 18  1  0  0  0  0
 21 18  1  0  0  0  0
 22 23  1  0  0  0  0
 23 24  1  0  0  0  0
 25 23  1  0  0  0  0
 26 23  1  0  0  0  0
 27 22  1  0  0  0  0
 28 27  1  0  0  0  0
 29 27  1  0  0  0  0
 30 27  1  0  0  0  0
 31 22  1  0  0  0  0
 32 31  1  0  0  0  0
 33 31  1  0  0  0  0
 34 31  1  0  0  0  0
 35  3  1  0  0  0  0
 36 35  1  0  0  0  0
 37 36  1  0  0  0  0
 38 36  1  0  0  0  0
 39 36  1  0  0  0  0
 40 35  1  0  0  0  0
 41 40  1  0  0  0  0
 42 40  1  0  0  0  0
 43 40  1  0  0  0  0
 44 35  1  0  0  0  0
 45 44  1  0  0  0  0
 46 44  1  0  0  0  0
 47 44  1  0  0  0  0
 48 49  1  0  0  0  0
 49 50  1  0  0  0  0
 51 49  1  0  0  0  0
 52 49  1  0  0  0  0
 53 48  1  0  0  0  0
 54 53  1  0  0  0  0
 55 53  1  0  0  0  0
 56 53  1  0  0  0  0
 57 48  1  0  0  0  0
 58 57  1  0  0  0  0
 59 57  1  0  0  0  0
 60 57  1  0  0  0  0
 61  4  1  0  0  0  0
 62 61  1  0  0  0  0
 63 62  1  0  0  0  0
 64 62  1  0  0  0  0
 65 62  1  0  0  0  0
 66 61  1  0  0  0  0
 67 66  1  0  0  0  0
 68 66  1  0  0  0  0
 69 66  1  0  0  0  0
 70 61  1  0  0  0  0
 71 70  1  0  0  0  0
 72 70  1  0  0  0  0
 73 70  1  0  0  0  0
 74 75  1  0  0  0  0
 76 74  1  0  0  0  0
 77 74  1  0  0  0  0
 78 77  1  0  0  0  0
 79 77  1  0  0  0  0
 80 77  1  0  0  0  0
 81 80  1  0  0  0  0
 82 80  1  0  0  0  0
 83  5  1  0  0  0  0
 84 83  1  0  0  0  0
 85 83  1  0  0  0  0
 86  6  1  0  0  0  0
 87 86  1  0  0  0  0
 88 86  1  0  0  0  0
 89 86  1  0  0  0  0
 90 89  1  0  0  0  0
 91 89  1  0  0  0  0
 92 89  1  0  0  0  0
 93 92  1  0  0  0  0
 94 92  1  0  0  0  0
 95  6  1  0  0  0  0
 96 95  1  0  0  0  0
 97 95  1  0  0  0  0
 98  7  1  0  0  0  0
 99 98  1  0  0  0  0
100 98  1  0  0  0  0
101 98  1  0  0  0  0
102101  1  0  0  0  0
103101  1  0  0  0  0
104101  1  0  0  0  0
105104  1  0  0  0  0
106104  1  0  0  0  0
107  7  1  0  0  0  0
108107  1  0  0  0  0
109107  1  0  0  0  0
110  2  1  0  0  0  0
111  1  1  0  0  0  0
112  1  1  0  0  0  0
113110  1  0  0  0  0
114  2  1  0  0  0  0
115114  1  0  0  0  0
116  1  1  0  0  0  0
117  1  1  0  0  0  0
118  3  1  0  0  0  0
119118  1  0  0  0  0
120  1  1  0  0  0  0
121  1  1  0  0  0  0
122  3  1  0  0  0  0
123122  1  0  0  0  0
124122  1  0  0  0  0
125122  1  0  0  0  0
126  4  1  0  0  0  0
127  1  1  0  0  0  0
128  1  1  0  0  0  0
129126  1  0  0  0  0
130  4  1  0  0  0  0
131130  1  0  0  0  0
132130  1  0  0  0  0
133130  1  0  0  0  0
134135  1  0  0  0  0
136134  1  0  0  0  0
137134  1  0  0  0  0
138  8  1  0  0  0  0
139138  1  0  0  0  0
140138  1  0  0  0  0
141138  1  0  0  0  0
142  8  1  0  0  0  0
143142  1  0  0  0  0
144142  1  0  0  0  0
145142  1  0  0  0  0
 80 83  1  0  0  0  0
 92 95  1  0  0  0  0
104107  1  0  0  0  0
110111  1  0  0  0  0
110112  1  0  0  0  0
114116  1  0  0  0  0
114117  1  0  0  0  0
118120  1  0  0  0  0
118121  1  0  0  0  0
126127  1  0  0  0  0
126128  1  0  0  0  0
M  CHG  4   1   3   2  -1   3  -1   4  -1
M  END
$$$$
TICGIZ

From CSD data. Using bond type 'Any'. No disordered atoms. Largest molecule.
123138  0  0  0  0  0  0  0  0999 V2000
    1.4224    8.3733   12.9304 Eu  0  0  0  0  0  0  0  0  0  0  0  0
   -0.2212    8.6801    9.3200 P   0  0  0  0  0  0  0  0  0  0  0  0
    4.2227    5.7447   11.8490 P   0  0  0  0  0  0  0  0  0  0  0  0
    0.2445    8.3937   10.6927 O   0  0  0  0  0  0  0  0  0  0  0  0
    3.0689    6.6760   11.8976 O   0  0  0  0  0  0  0  0  0  0  0  0
   -0.2840    6.2737   12.8877 N   0  0  0  0  0  0  0  0  0  0  0  0
   -0.8233    7.5481   15.6818 N   0  0  0  0  0  0  0  0  0  0  0  0
    0.7263   10.9918   12.7950 N   0  0  0  0  0  0  0  0  0  0  0  0
    3.5491   11.1224   14.0045 N   0  0  0  0  0  0  0  0  0  0  0  0
   -0.3245    8.6390   14.9630 N   0  0  0  0  0  0  0  0  0  0  0  0
    3.0232    9.9360   14.4475 N   0  0  0  0  0  0  0  0  0  0  0  0
    2.0791    6.6832   15.0737 N   0  0  0  0  0  0  0  0  0  0  0  0
    3.5647   10.9492   11.4794 N   0  0  0  0  0  0  0  0  0  0  0  0
   -0.6923    5.6055   14.0203 N   0  0  0  0  0  0  0  0  0  0  0  0
    1.1451    5.9338   15.7090 N   0  0  0  0  0  0  0  0  0  0  0  0
    3.0880    9.7009   11.2940 N   0  0  0  0  0  0  0  0  0  0  0  0
    1.5882   12.0068   12.6775 N   0  0  0  0  0  0  0  0  0  0  0  0
    3.4909    9.3207   10.0687 C   0  0  0  0  0  0  0  0  0  0  0  0
    3.2890    8.4853    9.6622 H   0  0  0  0  0  0  0  0  0  0  0  0
   -3.9835    9.8623    8.2490 C   0  0  0  0  0  0  0  0  0  0  0  0
   -4.3827   10.4108    7.5836 H   0  0  0  0  0  0  0  0  0  0  0  0
    4.2573   10.3463    9.4742 C   0  0  0  0  0  0  0  0  0  0  0  0
    4.6868   10.3320    8.6277 H   0  0  0  0  0  0  0  0  0  0  0  0
    5.2286    6.3473    9.3612 C   0  0  0  0  0  0  0  0  0  0  0  0
    5.3615    7.2125    9.7301 H   0  0  0  0  0  0  0  0  0  0  0  0
   -1.2112    4.3112   12.3135 C   0  0  0  0  0  0  0  0  0  0  0  0
   -1.5287    3.5895   11.7833 H   0  0  0  0  0  0  0  0  0  0  0  0
    4.4996    4.0707    9.6076 C   0  0  0  0  0  0  0  0  0  0  0  0
    4.1297    3.3761   10.1411 H   0  0  0  0  0  0  0  0  0  0  0  0
    4.3277    1.9349   13.3647 C   0  0  0  0  0  0  0  0  0  0  0  0
    4.9419    1.2134   13.4330 H   0  0  0  0  0  0  0  0  0  0  0  0
    1.8318   11.2551    6.8745 C   0  0  0  0  0  0  0  0  0  0  0  0
    2.2989   11.2341    6.0481 H   0  0  0  0  0  0  0  0  0  0  0  0
    5.5510    6.0996    8.0229 C   0  0  0  0  0  0  0  0  0  0  0  0
    5.9168    6.7913    7.4853 H   0  0  0  0  0  0  0  0  0  0  0  0
    0.1262    7.2958    8.2196 C   0  0  0  0  0  0  0  0  0  0  0  0
    0.7469    5.1902    6.5196 C   0  0  0  0  0  0  0  0  0  0  0  0
    0.9788    4.4727    5.9431 H   0  0  0  0  0  0  0  0  0  0  0  0
    1.2284   10.0885    7.3899 C   0  0  0  0  0  0  0  0  0  0  0  0
    1.2990    9.2711    6.9125 H   0  0  0  0  0  0  0  0  0  0  0  0
    4.3974   11.6157   14.9494 C   0  0  0  0  0  0  0  0  0  0  0  0
    4.8800   12.4310   14.8907 H   0  0  0  0  0  0  0  0  0  0  0  0
    3.0704    5.2326   16.4550 C   0  0  0  0  0  0  0  0  0  0  0  0
    3.7332    4.7567   16.9422 H   0  0  0  0  0  0  0  0  0  0  0  0
   -1.2608    4.4325   13.6744 C   0  0  0  0  0  0  0  0  0  0  0  0
   -1.6326    3.7967   14.2751 H   0  0  0  0  0  0  0  0  0  0  0  0
    2.1470    2.8112   13.7241 C   0  0  0  0  0  0  0  0  0  0  0  0
    1.2577    2.6920   14.0346 H   0  0  0  0  0  0  0  0  0  0  0  0
    1.4798    5.4109    7.6386 C   0  0  0  0  0  0  0  0  0  0  0  0
    2.2053    4.8334    7.8441 H   0  0  0  0  0  0  0  0  0  0  0  0
    3.2706    6.2377   15.5281 C   0  0  0  0  0  0  0  0  0  0  0  0
    4.1184    6.5684   15.2547 H   0  0  0  0  0  0  0  0  0  0  0  0
   -0.6297    7.0610    7.0734 C   0  0  0  0  0  0  0  0  0  0  0  0
   -1.3624    7.6309    6.8719 H   0  0  0  0  0  0  0  0  0  0  0  0
   -1.5606    7.9806   16.7353 C   0  0  0  0  0  0  0  0  0  0  0  0
   -1.9862    7.4294   17.3826 H   0  0  0  0  0  0  0  0  0  0  0  0
    1.1813    6.4766    8.4954 C   0  0  0  0  0  0  0  0  0  0  0  0
    1.7136    6.6306    9.2675 H   0  0  0  0  0  0  0  0  0  0  0  0
    0.9527   13.1843   12.5079 C   0  0  0  0  0  0  0  0  0  0  0  0
    1.3716   14.0287   12.3960 H   0  0  0  0  0  0  0  0  0  0  0  0
   -0.4739   11.5810   12.6956 C   0  0  0  0  0  0  0  0  0  0  0  0
   -1.3002   11.1144   12.7364 H   0  0  0  0  0  0  0  0  0  0  0  0
   -4.1830    8.4379   10.1207 C   0  0  0  0  0  0  0  0  0  0  0  0
   -4.7113    8.0016   10.7775 H   0  0  0  0  0  0  0  0  0  0  0  0
   -0.5917    5.4812   11.8750 C   0  0  0  0  0  0  0  0  0  0  0  0
   -0.4140    5.6825   10.9646 H   0  0  0  0  0  0  0  0  0  0  0  0
   -4.7864    9.1996    9.1600 C   0  0  0  0  0  0  0  0  0  0  0  0
   -5.7321    9.2758    9.1222 H   0  0  0  0  0  0  0  0  0  0  0  0
    0.4662   11.3185    9.2730 C   0  0  0  0  0  0  0  0  0  0  0  0
   -0.0027   11.3488   10.0980 H   0  0  0  0  0  0  0  0  0  0  0  0
   -2.8142    8.2971   10.1388 C   0  0  0  0  0  0  0  0  0  0  0  0
   -2.4187    7.7210   10.7828 H   0  0  0  0  0  0  0  0  0  0  0  0
    4.2468   11.3719   10.3943 C   0  0  0  0  0  0  0  0  0  0  0  0
    4.6482   12.2258   10.2856 H   0  0  0  0  0  0  0  0  0  0  0  0
    6.9322    5.8338   12.5645 C   0  0  0  0  0  0  0  0  0  0  0  0
    7.0319    5.0056   12.1113 H   0  0  0  0  0  0  0  0  0  0  0  0
    4.4359   10.7476   15.9893 C   0  0  0  0  0  0  0  0  0  0  0  0
    4.9442   10.8268   16.7873 H   0  0  0  0  0  0  0  0  0  0  0  0
    2.5353    4.0274   13.1477 C   0  0  0  0  0  0  0  0  0  0  0  0
    1.9196    4.7493   13.0883 H   0  0  0  0  0  0  0  0  0  0  0  0
    4.8359    3.8326    8.2557 C   0  0  0  0  0  0  0  0  0  0  0  0
    4.7154    2.9682    7.8791 H   0  0  0  0  0  0  0  0  0  0  0  0
   -2.6234    9.7327    8.2919 C   0  0  0  0  0  0  0  0  0  0  0  0
   -2.0895   10.1803    7.6461 H   0  0  0  0  0  0  0  0  0  0  0  0
    1.0591   12.4735    8.7960 C   0  0  0  0  0  0  0  0  0  0  0  0
    1.0079   13.2872    9.2825 H   0  0  0  0  0  0  0  0  0  0  0  0
    1.7329   12.4074    7.5798 C   0  0  0  0  0  0  0  0  0  0  0  0
    2.1352   13.1940    7.2328 H   0  0  0  0  0  0  0  0  0  0  0  0
    8.0014    6.3884   13.1771 C   0  0  0  0  0  0  0  0  0  0  0  0
    8.8217    5.9099   13.1880 H   0  0  0  0  0  0  0  0  0  0  0  0
    4.7155    5.3318   10.1456 C   0  0  0  0  0  0  0  0  0  0  0  0
   -0.3230    5.9913    6.2099 C   0  0  0  0  0  0  0  0  0  0  0  0
   -0.8446    5.8275    5.4314 H   0  0  0  0  0  0  0  0  0  0  0  0
   -2.0136    8.9564    9.2640 C   0  0  0  0  0  0  0  0  0  0  0  0
   -0.3656   12.9649   12.5215 C   0  0  0  0  0  0  0  0  0  0  0  0
   -1.0664   13.6005   12.4356 H   0  0  0  0  0  0  0  0  0  0  0  0
    3.8241    4.1655   12.6684 C   0  0  0  0  0  0  0  0  0  0  0  0
    1.7468    5.0694   16.5205 C   0  0  0  0  0  0  0  0  0  0  0  0
    1.3006    4.4324   17.0658 H   0  0  0  0  0  0  0  0  0  0  0  0
    5.6351    7.7042   13.1816 C   0  0  0  0  0  0  0  0  0  0  0  0
    4.8060    8.1669   13.1849 H   0  0  0  0  0  0  0  0  0  0  0  0
    5.3402    4.8568    7.4871 C   0  0  0  0  0  0  0  0  0  0  0  0
    5.5429    4.6988    6.5727 H   0  0  0  0  0  0  0  0  0  0  0  0
    3.0686    1.7896   13.8417 C   0  0  0  0  0  0  0  0  0  0  0  0
    2.8155    0.9742   14.2597 H   0  0  0  0  0  0  0  0  0  0  0  0
   -0.7843    9.7038   15.6231 C   0  0  0  0  0  0  0  0  0  0  0  0
   -0.5924   10.6047   15.3905 H   0  0  0  0  0  0  0  0  0  0  0  0
    0.5335   10.1276    8.5880 C   0  0  0  0  0  0  0  0  0  0  0  0
    5.7091    6.4447   12.5848 C   0  0  0  0  0  0  0  0  0  0  0  0
    6.7315    8.2928   13.7648 C   0  0  0  0  0  0  0  0  0  0  0  0
    6.6554    9.1572   14.1498 H   0  0  0  0  0  0  0  0  0  0  0  0
    7.9405    7.6314   13.7942 C   0  0  0  0  0  0  0  0  0  0  0  0
    8.7019    8.0098   14.2174 H   0  0  0  0  0  0  0  0  0  0  0  0
    3.5997    9.7475   15.6457 C   0  0  0  0  0  0  0  0  0  0  0  0
    3.4350    8.9901   16.1930 H   0  0  0  0  0  0  0  0  0  0  0  0
   -1.5860    9.3224   16.7059 C   0  0  0  0  0  0  0  0  0  0  0  0
   -2.0536    9.8975   17.2988 H   0  0  0  0  0  0  0  0  0  0  0  0
    4.7370    3.1303   12.7770 C   0  0  0  0  0  0  0  0  0  0  0  0
    5.6250    3.2344   12.4557 H   0  0  0  0  0  0  0  0  0  0  0  0
   -0.3788    6.1062   15.4512 B   0  0  0  0  0  0  0  0  0  0  0  0
   -0.8996    5.4877   16.1377 H   0  0  0  0  0  0  0  0  0  0  0  0
    3.1673   11.7908   12.7114 B   0  0  0  0  0  0  0  0  0  0  0  0
    3.6479   12.7341   12.6535 H   0  0  0  0  0  0  0  0  0  0  0  0
  1  4  1  0  0  0  0
  2  4  2  0  0  0  0
  3  5  2  0  0  0  0
  5  1  1  0  0  0  0
  6  1  1  0  0  0  0
  7 10  4  0  0  0  0
  8  1  1  0  0  0  0
  9 11  4  0  0  0  0
 10  1  1  0  0  0  0
 11  1  1  0  0  0  0
 12  1  1  0  0  0  0
 13 16  4  0  0  0  0
 14  6  4  0  0  0  0
 15 12  4  0  0  0  0
 16  1  1  0  0  0  0
 17  8  4  0  0  0  0
 18 16  4  0  0  0  0
 19 18  1  0  0  0  0
 20 21  1  0  0  0  0
 22 18  4  0  0  0  0
 23 22  1  0  0  0  0
 24 25  1  0  0  0  0
 26 27  1  0  0  0  0
 28 29  1  0  0  0  0
 30 31  1  0  0  0  0
 32 33  1  0  0  0  0
 34 24  4  0  0  0  0
 35 34  1  0  0  0  0
 36  2  1  0  0  0  0
 37 38  1  0  0  0  0
 39 32  4  0  0  0  0
 40 39  1  0  0  0  0
 41  9  4  0  0  0  0
 42 41  1  0  0  0  0
 43 44  1  0  0  0  0
 45 14  4  0  0  0  0
 46 45  1  0  0  0  0
 47 48  1  0  0  0  0
 49 37  4  0  0  0  0
 50 49  1  0  0  0  0
 51 12  4  0  0  0  0
 52 51  1  0  0  0  0
 53 36  4  0  0  0  0
 54 53  1  0  0  0  0
 55  7  4  0  0  0  0
 56 55  1  0  0  0  0
 57 36  4  0  0  0  0
 58 57  1  0  0  0  0
 59 17  4  0  0  0  0
 60 59  1  0  0  0  0
 61  8  4  0  0  0  0
 62 61  1  0  0  0  0
 63 64  1  0  0  0  0
 65  6  4  0  0  0  0
 66 65  1  0  0  0  0
 67 20  4  0  0  0  0
 68 67  1  0  0  0  0
 69 70  1  0  0  0  0
 71 63  4  0  0  0  0
 72 71  1  0  0  0  0
 73 13  4  0  0  0  0
 74 73  1  0  0  0  0
 75 76  1  0  0  0  0
 77 41  4  0  0  0  0
 78 77  1  0  0  0  0
 79 47  4  0  0  0  0
 80 79  1  0  0  0  0
 81 28  4  0  0  0  0
 82 81  1  0  0  0  0
 83 20  4  0  0  0  0
 84 83  1  0  0  0  0
 85 69  4  0  0  0  0
 86 85  1  0  0  0  0
 87 32  4  0  0  0  0
 88 87  1  0  0  0  0
 89 75  4  0  0  0  0
 90 89  1  0  0  0  0
 91  3  1  0  0  0  0
 92 37  4  0  0  0  0
 93 92  1  0  0  0  0
 94  2  1  0  0  0  0
 95 59  4  0  0  0  0
 96 95  1  0  0  0  0
 97  3  1  0  0  0  0
 98 15  4  0  0  0  0
 99 98  1  0  0  0  0
100101  1  0  0  0  0
102 34  4  0  0  0  0
103102  1  0  0  0  0
104 30  4  0  0  0  0
105104  1  0  0  0  0
106 10  4  0  0  0  0
107106  1  0  0  0  0
108  2  1  0  0  0  0
109  3  1  0  0  0  0
110100  4  0  0  0  0
111110  1  0  0  0  0
112 89  4  0  0  0  0
113112  1  0  0  0  0
114 11  4  0  0  0  0
115114  1  0  0  0  0
116 55  4  0  0  0  0
117116  1  0  0  0  0
118 30  4  0  0  0  0
119118  1  0  0  0  0
120  7  1  0  0  0  0
121120  1  0  0  0  0
122  9  1  0  0  0  0
123122  1  0  0  0  0
 13122  1  0  0  0  0
 14120  1  0  0  0  0
 15120  1  0  0  0  0
 17122  1  0  0  0  0
 22 73  4  0  0  0  0
 24 91  4  0  0  0  0
 26 45  4  0  0  0  0
 26 65  4  0  0  0  0
 28 91  4  0  0  0  0
 39108  4  0  0  0  0
 43 51  4  0  0  0  0
 43 98  4  0  0  0  0
 47104  4  0  0  0  0
 49 57  4  0  0  0  0
 53 92  4  0  0  0  0
 61 95  4  0  0  0  0
 63 67  4  0  0  0  0
 69108  4  0  0  0  0
 71 94  4  0  0  0  0
 75109  4  0  0  0  0
 77114  4  0  0  0  0
 79 97  4  0  0  0  0
 81102  4  0  0  0  0
 83 94  4  0  0  0  0
 85 87  4  0  0  0  0
 97118  4  0  0  0  0
100109  4  0  0  0  0
106116  4  0  0  0  0
110112  4  0  0  0  0
M  END
$$$$
TIJNOP

From CSD data. Using bond type 'Any'. No disordered atoms. Largest molecule.
 84 97  0  0  0  0  0  0  0  0999 V2000
    6.7888   10.4374    4.5060 Os  0  0  0  0  0  0  0  0  0  0  0  0
    6.3906   10.4590    6.1546 H   0  0  0  0  0  0  0  0  0  0  0  0
    8.4988    8.7928    4.4638 P   0  0  0  0  0  0  0  0  0  0  0  0
    8.1524   12.3497    4.7943 P   0  0  0  0  0  0  0  0  0  0  0  0
    6.6806   10.1231    1.5029 O   0  0  0  0  0  0  0  0  0  0  0  0
    8.0421    7.3068    3.4915 C   0  0  0  0  0  0  0  0  0  0  0  0
    6.8889    6.6037    3.8342 C   0  0  0  0  0  0  0  0  0  0  0  0
    6.3268    6.9318    4.5261 H   0  0  0  0  0  0  0  0  0  0  0  0
    6.5557    5.4450    3.1854 C   0  0  0  0  0  0  0  0  0  0  0  0
    5.7823    4.9619    3.4499 H   0  0  0  0  0  0  0  0  0  0  0  0
    7.3377    4.9736    2.1458 C   0  0  0  0  0  0  0  0  0  0  0  0
    7.0911    4.1820    1.6834 H   0  0  0  0  0  0  0  0  0  0  0  0
    8.4771    5.6572    1.7832 C   0  0  0  0  0  0  0  0  0  0  0  0
    9.0260    5.3265    1.0812 H   0  0  0  0  0  0  0  0  0  0  0  0
    8.8202    6.8225    2.4369 C   0  0  0  0  0  0  0  0  0  0  0  0
    9.5970    7.3003    2.1658 H   0  0  0  0  0  0  0  0  0  0  0  0
    9.0343    8.0646    6.0565 C   0  0  0  0  0  0  0  0  0  0  0  0
    9.2584    8.9213    7.1394 C   0  0  0  0  0  0  0  0  0  0  0  0
    9.1357    9.8587    7.0379 H   0  0  0  0  0  0  0  0  0  0  0  0
    9.6625    8.3953    8.3719 C   0  0  0  0  0  0  0  0  0  0  0  0
    9.8104    8.9773    9.1072 H   0  0  0  0  0  0  0  0  0  0  0  0
    9.8479    7.0373    8.5250 C   0  0  0  0  0  0  0  0  0  0  0  0
   10.1172    6.6858    9.3667 H   0  0  0  0  0  0  0  0  0  0  0  0
    9.6442    6.1884    7.4554 C   0  0  0  0  0  0  0  0  0  0  0  0
    9.7740    5.2536    7.5602 H   0  0  0  0  0  0  0  0  0  0  0  0
    9.2469    6.7001    6.2212 C   0  0  0  0  0  0  0  0  0  0  0  0
    9.1198    6.1116    5.4859 H   0  0  0  0  0  0  0  0  0  0  0  0
   10.0748    9.2247    3.6262 C   0  0  0  0  0  0  0  0  0  0  0  0
   10.0526    9.9720    2.4602 C   0  0  0  0  0  0  0  0  0  0  0  0
    9.2490   10.4043    2.1974 H   0  0  0  0  0  0  0  0  0  0  0  0
   11.1903   10.1035    1.6651 C   0  0  0  0  0  0  0  0  0  0  0  0
   11.1623   10.6061    0.8600 H   0  0  0  0  0  0  0  0  0  0  0  0
   12.3674    9.4838    2.0726 C   0  0  0  0  0  0  0  0  0  0  0  0
   13.1423    9.5424    1.5270 H   0  0  0  0  0  0  0  0  0  0  0  0
   12.4234    8.7911    3.2553 C   0  0  0  0  0  0  0  0  0  0  0  0
   13.2451    8.4096    3.5397 H   0  0  0  0  0  0  0  0  0  0  0  0
   11.2836    8.6414    4.0404 C   0  0  0  0  0  0  0  0  0  0  0  0
   11.3226    8.1479    4.8522 H   0  0  0  0  0  0  0  0  0  0  0  0
    9.6461   12.2727    5.8619 C   0  0  0  0  0  0  0  0  0  0  0  0
    9.4998   12.5291    7.2225 C   0  0  0  0  0  0  0  0  0  0  0  0
    8.6474   12.7752    7.5652 H   0  0  0  0  0  0  0  0  0  0  0  0
   10.5881   12.4315    8.0892 C   0  0  0  0  0  0  0  0  0  0  0  0
   10.4752   12.5995    9.0173 H   0  0  0  0  0  0  0  0  0  0  0  0
   11.8296   12.0904    7.5935 C   0  0  0  0  0  0  0  0  0  0  0  0
   12.5775   12.0383    8.1773 H   0  0  0  0  0  0  0  0  0  0  0  0
   11.9846   11.8248    6.2478 C   0  0  0  0  0  0  0  0  0  0  0  0
   12.8420   11.5917    5.9101 H   0  0  0  0  0  0  0  0  0  0  0  0
   10.8981   11.8925    5.3745 C   0  0  0  0  0  0  0  0  0  0  0  0
   11.0087   11.6815    4.4546 H   0  0  0  0  0  0  0  0  0  0  0  0
    8.6470   13.2544    3.2753 C   0  0  0  0  0  0  0  0  0  0  0  0
    9.8470   13.9653    3.1655 C   0  0  0  0  0  0  0  0  0  0  0  0
   10.5041   13.8923    3.8475 H   0  0  0  0  0  0  0  0  0  0  0  0
   10.0804   14.7738    2.0660 C   0  0  0  0  0  0  0  0  0  0  0  0
   10.9023   15.2438    1.9928 H   0  0  0  0  0  0  0  0  0  0  0  0
    9.1300   14.9001    1.0812 C   0  0  0  0  0  0  0  0  0  0  0  0
    9.2955   15.4586    0.3294 H   0  0  0  0  0  0  0  0  0  0  0  0
    7.9222   14.2087    1.1843 C   0  0  0  0  0  0  0  0  0  0  0  0
    7.2611   14.2960    0.5057 H   0  0  0  0  0  0  0  0  0  0  0  0
    7.6902   13.3950    2.2789 C   0  0  0  0  0  0  0  0  0  0  0  0
    6.8676   12.9263    2.3487 H   0  0  0  0  0  0  0  0  0  0  0  0
    7.2617   13.6996    5.6672 C   0  0  0  0  0  0  0  0  0  0  0  0
    6.1068   13.4926    6.4258 C   0  0  0  0  0  0  0  0  0  0  0  0
    5.6982   12.6359    6.4391 H   0  0  0  0  0  0  0  0  0  0  0  0
    5.5509   14.5290    7.1593 C   0  0  0  0  0  0  0  0  0  0  0  0
    4.7619   14.3754    7.6683 H   0  0  0  0  0  0  0  0  0  0  0  0
    6.1314   15.7868    7.1610 C   0  0  0  0  0  0  0  0  0  0  0  0
    5.7527   16.4859    7.6800 H   0  0  0  0  0  0  0  0  0  0  0  0
    7.2644   16.0211    6.4008 C   0  0  0  0  0  0  0  0  0  0  0  0
    7.6558   16.8856    6.3858 H   0  0  0  0  0  0  0  0  0  0  0  0
    7.8294   14.9860    5.6573 C   0  0  0  0  0  0  0  0  0  0  0  0
    8.6071   15.1527    5.1366 H   0  0  0  0  0  0  0  0  0  0  0  0
    6.7583   10.2897    2.6432 C   0  0  0  0  0  0  0  0  0  0  0  0
    4.7824    9.2728    4.7657 B   0  0  0  0  0  0  0  0  0  0  0  0
    5.8197    9.2702    6.2228 B   0  0  0  0  0  0  0  0  0  0  0  0
    4.0844    9.4135    6.4291 B   0  0  0  0  0  0  0  0  0  0  0  0
    3.3927   10.3288    5.2414 B   0  0  0  0  0  0  0  0  0  0  0  0
    4.5708   10.9134    4.1169 B   0  0  0  0  0  0  0  0  0  0  0  0
    4.5245    8.4500    4.1752 H   0  0  0  0  0  0  0  0  0  0  0  0
    6.4125    8.4500    6.7534 H   0  0  0  0  0  0  0  0  0  0  0  0
    3.7012    8.5932    7.0695 H   0  0  0  0  0  0  0  0  0  0  0  0
    2.3990   10.2988    4.8073 H   0  0  0  0  0  0  0  0  0  0  0  0
    4.3607   11.4967    3.1937 H   0  0  0  0  0  0  0  0  0  0  0  0
    5.0091    9.9603    7.0861 H   0  0  0  0  0  0  0  0  0  0  0  0
    3.7369   11.4576    5.0069 H   0  0  0  0  0  0  0  0  0  0  0  0
  1  2  1  0  0  0  0
  2 74  1  0  0  0  0
  3  1  1  0  0  0  0
  4  1  1  0  0  0  0
  5 72  3  0  0  0  0
  6  3  1  0  0  0  0
  7  6  4  0  0  0  0
  8  7  1  0  0  0  0
  9  7  4  0  0  0  0
 10  9  1  0  0  0  0
 11  9  4  0  0  0  0
 12 11  1  0  0  0  0
 13 11  4  0  0  0  0
 14 13  1  0  0  0  0
 15  6  4  0  0  0  0
 16 15  1  0  0  0  0
 17  3  1  0  0  0  0
 18 17  4  0  0  0  0
 19 18  1  0  0  0  0
 20 18  4  0  0  0  0
 21 20  1  0  0  0  0
 22 20  4  0  0  0  0
 23 22  1  0  0  0  0
 24 22  4  0  0  0  0
 25 24  1  0  0  0  0
 26 17  4  0  0  0  0
 27 26  1  0  0  0  0
 28  3  1  0  0  0  0
 29 28  4  0  0  0  0
 30 29  1  0  0  0  0
 31 29  4  0  0  0  0
 32 31  1  0  0  0  0
 33 31  4  0  0  0  0
 34 33  1  0  0  0  0
 35 33  4  0  0  0  0
 36 35  1  0  0  0  0
 37 28  4  0  0  0  0
 38 37  1  0  0  0  0
 39  4  1  0  0  0  0
 40 39  4  0  0  0  0
 41 40  1  0  0  0  0
 42 40  4  0  0  0  0
 43 42  1  0  0  0  0
 44 42  4  0  0  0  0
 45 44  1  0  0  0  0
 46 44  4  0  0  0  0
 47 46  1  0  0  0  0
 48 39  4  0  0  0  0
 49 48  1  0  0  0  0
 50  4  1  0  0  0  0
 51 50  4  0  0  0  0
 52 51  1  0  0  0  0
 53 51  4  0  0  0  0
 54 53  1  0  0  0  0
 55 53  4  0  0  0  0
 56 55  1  0  0  0  0
 57 55  4  0  0  0  0
 58 57  1  0  0  0  0
 59 50  4  0  0  0  0
 60 59  1  0  0  0  0
 61  4  1  0  0  0  0
 62 61  4  0  0  0  0
 63 62  1  0  0  0  0
 64 62  4  0  0  0  0
 65 64  1  0  0  0  0
 66 64  4  0  0  0  0
 67 66  1  0  0  0  0
 68 66  4  0  0  0  0
 69 68  1  0  0  0  0
 70 61  4  0  0  0  0
 71 70  1  0  0  0  0
 72  1  1  0  0  0  0
 73  1  1  0  0  0  0
 74  1  1  0  0  0  0
 75 73  1  0  0  0  0
 76 73  1  0  0  0  0
 77  1  1  0  0  0  0
 78 73  1  0  0  0  0
 79 74  1  0  0  0  0
 80 75  1  0  0  0  0
 81 76  1  0  0  0  0
 82 77  1  0  0  0  0
 83 74  1  0  0  0  0
 84 76  1  0  0  0  0
 13 15  4  0  0  0  0
 24 26  4  0  0  0  0
 35 37  4  0  0  0  0
 46 48  4  0  0  0  0
 57 59  4  0  0  0  0
 68 70  4  0  0  0  0
 73 74  1  0  0  0  0
 73 77  1  0  0  0  0
 74 75  1  0  0  0  0
 75 76  1  0  0  0  0
 75 83  1  0  0  0  0
 76 77  1  0  0  0  0
 77 84  1  0  0  0  0
M  END
$$$$
TIJNUV

From CSD data. Using bond type 'Any'. No disordered atoms. Largest molecule.
 91110  0  0  0  0  0  0  0  0999 V2000
    1.1415    3.5222    2.9687 Os  0  0  0  0  0  0  0  0  0  0  0  0
   -0.6168    5.0757    3.1930 P   0  0  0  0  0  0  0  0  0  0  0  0
    0.0445    1.5012    3.5794 P   0  0  0  0  0  0  0  0  0  0  0  0
    2.1926    3.8798    5.7791 O   0  0  0  0  0  0  0  0  0  0  0  0
    3.2668    2.7208    0.3530 B   0  0  0  0  0  0  0  0  0  0  0  0
    3.6449    1.6466   -0.2263 H   0  0  0  0  0  0  0  0  0  0  0  0
    3.0972    2.7005    2.0817 B   0  0  0  0  0  0  0  0  0  0  0  0
    3.6012    1.9289    2.6474 H   0  0  0  0  0  0  0  0  0  0  0  0
    4.1882    3.8311    1.3124 B   0  0  0  0  0  0  0  0  0  0  0  0
    5.3675    3.7637    1.6292 H   0  0  0  0  0  0  0  0  0  0  0  0
    3.7933    4.1918   -0.3847 B   0  0  0  0  0  0  0  0  0  0  0  0
    4.7714    3.8578   -1.1540 H   0  0  0  0  0  0  0  0  0  0  0  0
    1.6864    2.4292    1.0001 B   0  0  0  0  0  0  0  0  0  0  0  0
    1.1907    1.5055    0.6562 H   0  0  0  0  0  0  0  0  0  0  0  0
    0.7556    3.2462    1.5387 H   0  0  0  0  0  0  0  0  0  0  0  0
    3.1960    4.4443    2.5003 B   0  0  0  0  0  0  0  0  0  0  0  0
    3.8604    4.9399    3.3262 H   0  0  0  0  0  0  0  0  0  0  0  0
    1.7533    4.9085    2.4438 H   0  0  0  0  0  0  0  0  0  0  0  0
    3.5975    5.4386    0.9006 B   0  0  0  0  0  0  0  0  0  0  0  0
    4.3432    6.5143    1.0228 H   0  0  0  0  0  0  0  0  0  0  0  0
    2.4284    5.3005   -0.4028 B   0  0  0  0  0  0  0  0  0  0  0  0
    2.1443    6.0188   -1.3124 H   0  0  0  0  0  0  0  0  0  0  0  0
    2.1614    3.5630   -0.6109 B   0  0  0  0  0  0  0  0  0  0  0  0
    1.6945    3.5755   -1.6518 H   0  0  0  0  0  0  0  0  0  0  0  0
    1.7397    3.7465    4.7224 C   0  0  0  0  0  0  0  0  0  0  0  0
   -0.0881    6.7574    3.6747 C   0  0  0  0  0  0  0  0  0  0  0  0
    1.2237    7.1056    4.0119 C   0  0  0  0  0  0  0  0  0  0  0  0
    1.8897    6.4438    4.0345 H   0  0  0  0  0  0  0  0  0  0  0  0
    1.5549    8.4260    4.3151 C   0  0  0  0  0  0  0  0  0  0  0  0
    2.4420    8.6455    4.5391 H   0  0  0  0  0  0  0  0  0  0  0  0
    0.5960    9.4108    4.2879 C   0  0  0  0  0  0  0  0  0  0  0  0
    0.8237   10.3016    4.4780 H   0  0  0  0  0  0  0  0  0  0  0  0
   -0.7120    9.0737    3.9711 C   0  0  0  0  0  0  0  0  0  0  0  0
   -1.3763    9.7386    3.9734 H   0  0  0  0  0  0  0  0  0  0  0  0
   -1.0471    7.7752    3.6566 C   0  0  0  0  0  0  0  0  0  0  0  0
   -1.9351    7.5697    3.4235 H   0  0  0  0  0  0  0  0  0  0  0  0
   -1.3949    5.4244    1.5749 C   0  0  0  0  0  0  0  0  0  0  0  0
   -2.4385    6.0658   -0.9481 C   0  0  0  0  0  0  0  0  0  0  0  0
   -2.7714    6.1286   -1.8238 H   0  0  0  0  0  0  0  0  0  0  0  0
   -0.6318    5.7820    0.4933 C   0  0  0  0  0  0  0  0  0  0  0  0
    0.3002    5.7773    0.6132 H   0  0  0  0  0  0  0  0  0  0  0  0
   -1.0886    6.1442   -0.7444 C   0  0  0  0  0  0  0  0  0  0  0  0
   -0.5037    6.4344   -1.4187 H   0  0  0  0  0  0  0  0  0  0  0  0
   -3.3052    5.9012    0.0724 C   0  0  0  0  0  0  0  0  0  0  0  0
   -4.2310    6.0157   -0.0407 H   0  0  0  0  0  0  0  0  0  0  0  0
   -2.7538    5.5515    1.2898 C   0  0  0  0  0  0  0  0  0  0  0  0
   -3.3529    5.3852    1.9935 H   0  0  0  0  0  0  0  0  0  0  0  0
   -1.9869    4.8787    4.3943 C   0  0  0  0  0  0  0  0  0  0  0  0
   -1.8680    5.4276    5.6342 C   0  0  0  0  0  0  0  0  0  0  0  0
   -1.1038    5.9372    5.8334 H   0  0  0  0  0  0  0  0  0  0  0  0
   -2.8469    5.2598    6.6208 C   0  0  0  0  0  0  0  0  0  0  0  0
   -2.7303    5.6236    7.4806 H   0  0  0  0  0  0  0  0  0  0  0  0
   -3.9741    4.5557    6.3085 C   0  0  0  0  0  0  0  0  0  0  0  0
   -4.6577    4.4584    6.9466 H   0  0  0  0  0  0  0  0  0  0  0  0
   -4.1157    3.9801    5.0550 C   0  0  0  0  0  0  0  0  0  0  0  0
   -4.8912    3.4908    4.8491 H   0  0  0  0  0  0  0  0  0  0  0  0
   -3.1325    4.1244    4.1182 C   0  0  0  0  0  0  0  0  0  0  0  0
   -3.2264    3.7135    3.2765 H   0  0  0  0  0  0  0  0  0  0  0  0
    0.9726   -0.0173    3.1249 C   0  0  0  0  0  0  0  0  0  0  0  0
    0.4515   -1.0287    2.3533 C   0  0  0  0  0  0  0  0  0  0  0  0
   -0.4045   -0.9268    1.9799 H   0  0  0  0  0  0  0  0  0  0  0  0
    1.1663   -2.2018    2.1179 C   0  0  0  0  0  0  0  0  0  0  0  0
    0.7934   -2.8839    1.5884 H   0  0  0  0  0  0  0  0  0  0  0  0
    2.4126   -2.3523    2.6565 C   0  0  0  0  0  0  0  0  0  0  0  0
    2.9052   -3.1380    2.4981 H   0  0  0  0  0  0  0  0  0  0  0  0
    2.9399   -1.3487    3.4303 C   0  0  0  0  0  0  0  0  0  0  0  0
    3.7927   -1.4631    3.8105 H   0  0  0  0  0  0  0  0  0  0  0  0
    2.2502   -0.1788    3.6679 C   0  0  0  0  0  0  0  0  0  0  0  0
    2.6348    0.5034    4.1861 H   0  0  0  0  0  0  0  0  0  0  0  0
   -0.1975    1.2310    5.3718 C   0  0  0  0  0  0  0  0  0  0  0  0
   -0.5398    2.2645    6.2135 C   0  0  0  0  0  0  0  0  0  0  0  0
   -0.6043    3.1349    5.8628 H   0  0  0  0  0  0  0  0  0  0  0  0
   -0.7899    2.0700    7.5485 C   0  0  0  0  0  0  0  0  0  0  0  0
   -1.0407    2.7961    8.0893 H   0  0  0  0  0  0  0  0  0  0  0  0
   -0.6748    0.8123    8.1006 C   0  0  0  0  0  0  0  0  0  0  0  0
   -0.8041    0.6822    9.0238 H   0  0  0  0  0  0  0  0  0  0  0  0
   -0.3718   -0.2352    7.2928 C   0  0  0  0  0  0  0  0  0  0  0  0
   -0.3264   -1.1009    7.6571 H   0  0  0  0  0  0  0  0  0  0  0  0
   -0.1265   -0.0549    5.9329 C   0  0  0  0  0  0  0  0  0  0  0  0
    0.0856   -0.7935    5.3921 H   0  0  0  0  0  0  0  0  0  0  0  0
   -1.6215    1.2075    2.8827 C   0  0  0  0  0  0  0  0  0  0  0  0
   -1.8463    1.3502    1.5455 C   0  0  0  0  0  0  0  0  0  0  0  0
   -1.1401    1.6215    0.9888 H   0  0  0  0  0  0  0  0  0  0  0  0
   -3.0974    1.1040    0.9843 C   0  0  0  0  0  0  0  0  0  0  0  0
   -3.2190    1.1730    0.0543 H   0  0  0  0  0  0  0  0  0  0  0  0
   -4.1505    0.7606    1.7944 C   0  0  0  0  0  0  0  0  0  0  0  0
   -5.0078    0.6257    1.4323 H   0  0  0  0  0  0  0  0  0  0  0  0
   -3.9338    0.6194    3.1158 C   0  0  0  0  0  0  0  0  0  0  0  0
   -4.6493    0.3670    3.6702 H   0  0  0  0  0  0  0  0  0  0  0  0
   -2.6818    0.8374    3.6883 C   0  0  0  0  0  0  0  0  0  0  0  0
   -2.5591    0.7324    4.6137 H   0  0  0  0  0  0  0  0  0  0  0  0
  1  2  1  0  0  0  0
  2 26  1  0  0  0  0
  3  1  1  0  0  0  0
  4 25  3  0  0  0  0
  5  6  1  0  0  0  0
  7  1  1  0  0  0  0
  8  7  1  0  0  0  0
  9  5  1  0  0  0  0
 10  9  1  0  0  0  0
 11  5  1  0  0  0  0
 12 11  1  0  0  0  0
 13  1  1  0  0  0  0
 14 13  1  0  0  0  0
 15  1  1  0  0  0  0
 16  1  1  0  0  0  0
 17 16  1  0  0  0  0
 18  1  1  0  0  0  0
 19  9  1  0  0  0  0
 20 19  1  0  0  0  0
 21 11  1  0  0  0  0
 22 21  1  0  0  0  0
 23  5  1  0  0  0  0
 24 23  1  0  0  0  0
 25  1  1  0  0  0  0
 26 27  4  0  0  0  0
 27 28  1  0  0  0  0
 29 27  4  0  0  0  0
 30 29  1  0  0  0  0
 31 29  4  0  0  0  0
 32 31  1  0  0  0  0
 33 31  4  0  0  0  0
 34 33  1  0  0  0  0
 35 26  4  0  0  0  0
 36 35  1  0  0  0  0
 37  2  1  0  0  0  0
 38 39  1  0  0  0  0
 40 37  4  0  0  0  0
 41 40  1  0  0  0  0
 42 38  4  0  0  0  0
 43 42  1  0  0  0  0
 44 38  4  0  0  0  0
 45 44  1  0  0  0  0
 46 37  4  0  0  0  0
 47 46  1  0  0  0  0
 48  2  1  0  0  0  0
 49 48  4  0  0  0  0
 50 49  1  0  0  0  0
 51 49  4  0  0  0  0
 52 51  1  0  0  0  0
 53 51  4  0  0  0  0
 54 53  1  0  0  0  0
 55 53  4  0  0  0  0
 56 55  1  0  0  0  0
 57 48  4  0  0  0  0
 58 57  1  0  0  0  0
 59  3  1  0  0  0  0
 60 59  4  0  0  0  0
 61 60  1  0  0  0  0
 62 60  4  0  0  0  0
 63 62  1  0  0  0  0
 64 62  4  0  0  0  0
 65 64  1  0  0  0  0
 66 64  4  0  0  0  0
 67 66  1  0  0  0  0
 68 59  4  0  0  0  0
 69 68  1  0  0  0  0
 70  3  1  0  0  0  0
 71 70  4  0  0  0  0
 72 71  1  0  0  0  0
 73 71  4  0  0  0  0
 74 73  1  0  0  0  0
 75 73  4  0  0  0  0
 76 75  1  0  0  0  0
 77 75  4  0  0  0  0
 78 77  1  0  0  0  0
 79 70  4  0  0  0  0
 80 79  1  0  0  0  0
 81  3  1  0  0  0  0
 82 81  4  0  0  0  0
 83 82  1  0  0  0  0
 84 82  4  0  0  0  0
 85 84  1  0  0  0  0
 86 84  4  0  0  0  0
 87 86  1  0  0  0  0
 88 86  4  0  0  0  0
 89 88  1  0  0  0  0
 90 81  4  0  0  0  0
 91 90  1  0  0  0  0
  5  7  1  0  0  0  0
  5 13  1  0  0  0  0
  7  9  1  0  0  0  0
  7 13  1  0  0  0  0
  7 16  1  0  0  0  0
  9 11  1  0  0  0  0
  9 16  1  0  0  0  0
 11 19  1  0  0  0  0
 11 23  1  0  0  0  0
 13 15  1  0  0  0  0
 13 23  1  0  0  0  0
 16 18  1  0  0  0  0
 16 19  1  0  0  0  0
 19 21  1  0  0  0  0
 21 23  1  0  0  0  0
 33 35  4  0  0  0  0
 40 42  4  0  0  0  0
 44 46  4  0  0  0  0
 55 57  4  0  0  0  0
 66 68  4  0  0  0  0
 77 79  4  0  0  0  0
 88 90  4  0  0  0  0
M  END
$$$$
TIPBOJ

From CSD data. Using bond type 'Any'. No disordered atoms. Largest molecule.
 66 69  0  0  0  0  0  0  0  0999 V2000
    2.6340    0.1113    3.3938 Co  0  0  0  0  0  0  0  0  0  0  0  0
    3.2832    0.5325    1.3313 P   0  0  0  0  0  0  0  0  0  0  0  0
    1.5431   -1.8318    3.2441 P   0  0  0  0  0  0  0  0  0  0  0  0
    4.4821   -0.5203    4.4172 P   0  0  0  0  0  0  0  0  0  0  0  0
   -0.2312    1.0926    2.9462 O   0  0  0  0  0  0  0  0  0  0  0  0
    1.2982    2.7821    2.9420 O   0  0  0  0  0  0  0  0  0  0  0  0
    2.5348    1.8471    5.8183 O   0  0  0  0  0  0  0  0  0  0  0  0
    0.9163    0.2173    5.9272 O   0  0  0  0  0  0  0  0  0  0  0  0
   -0.8546    2.2618    2.6051 C   0  0  0  0  0  0  0  0  0  0  0  0
   -2.1649    2.4883    2.3072 C   0  0  0  0  0  0  0  0  0  0  0  0
   -2.5348    3.7997    1.9970 C   0  0  0  0  0  0  0  0  0  0  0  0
   -1.6099    4.8128    2.0114 C   0  0  0  0  0  0  0  0  0  0  0  0
   -0.2843    4.5481    2.3031 C   0  0  0  0  0  0  0  0  0  0  0  0
    0.0719    3.2764    2.5948 C   0  0  0  0  0  0  0  0  0  0  0  0
    1.9182    1.8945    7.0510 C   0  0  0  0  0  0  0  0  0  0  0  0
    2.1460    2.7576    8.0865 C   0  0  0  0  0  0  0  0  0  0  0  0
    1.3684    2.5847    9.2206 C   0  0  0  0  0  0  0  0  0  0  0  0
    0.4076    1.6313    9.3028 C   0  0  0  0  0  0  0  0  0  0  0  0
    0.1627    0.7682    8.2262 C   0  0  0  0  0  0  0  0  0  0  0  0
    0.9540    0.9258    7.1086 C   0  0  0  0  0  0  0  0  0  0  0  0
    4.1053    2.1700    1.2204 C   0  0  0  0  0  0  0  0  0  0  0  0
    4.4958   -0.5081    0.4130 C   0  0  0  0  0  0  0  0  0  0  0  0
    2.0210    0.7391    0.0308 C   0  0  0  0  0  0  0  0  0  0  0  0
   -0.2209   -1.8991    3.5461 C   0  0  0  0  0  0  0  0  0  0  0  0
    1.9833   -3.1677    4.3966 C   0  0  0  0  0  0  0  0  0  0  0  0
    1.6288   -2.7545    1.6950 C   0  0  0  0  0  0  0  0  0  0  0  0
    5.5269   -1.8578    3.7495 C   0  0  0  0  0  0  0  0  0  0  0  0
    4.4102   -1.0069    6.1758 C   0  0  0  0  0  0  0  0  0  0  0  0
    5.6964    0.8187    4.5384 C   0  0  0  0  0  0  0  0  0  0  0  0
    1.1475    1.3803    3.1475 B   0  0  0  0  0  0  0  0  0  0  0  0
    1.9456    0.7713    5.0890 B   0  0  0  0  0  0  0  0  0  0  0  0
   -2.8003    1.7690    2.3113 H   0  0  0  0  0  0  0  0  0  0  0  0
   -3.4425    3.9971    1.7525 H   0  0  0  0  0  0  0  0  0  0  0  0
   -1.9011    5.7111    1.8367 H   0  0  0  0  0  0  0  0  0  0  0  0
    0.3785    5.2443    2.3093 H   0  0  0  0  0  0  0  0  0  0  0  0
    2.7986    3.4585    8.0269 H   0  0  0  0  0  0  0  0  0  0  0  0
    1.5243    3.1494    9.9808 H   0  0  0  0  0  0  0  0  0  0  0  0
   -0.1062    1.5487   10.1102 H   0  0  0  0  0  0  0  0  0  0  0  0
   -0.5207    0.0949    8.2632 H   0  0  0  0  0  0  0  0  0  0  0  0
    4.3811    2.3352    0.3164 H   0  0  0  0  0  0  0  0  0  0  0  0
    3.4905    2.8509    1.4977 H   0  0  0  0  0  0  0  0  0  0  0  0
    4.8743    2.1807    1.7956 H   0  0  0  0  0  0  0  0  0  0  0  0
    5.3779   -0.1255    0.4273 H   0  0  0  0  0  0  0  0  0  0  0  0
    4.1687   -0.6029   -0.4849 H   0  0  0  0  0  0  0  0  0  0  0  0
    4.4856   -1.3819    0.8095 H   0  0  0  0  0  0  0  0  0  0  0  0
    2.4029    1.0880   -0.7787 H   0  0  0  0  0  0  0  0  0  0  0  0
    1.3428    1.3222    0.3780 H   0  0  0  0  0  0  0  0  0  0  0  0
    1.6082   -0.1148   -0.1192 H   0  0  0  0  0  0  0  0  0  0  0  0
   -0.5344   -2.8004    3.4413 H   0  0  0  0  0  0  0  0  0  0  0  0
   -0.4008   -1.5992    4.4398 H   0  0  0  0  0  0  0  0  0  0  0  0
   -0.6731   -1.3283    2.9194 H   0  0  0  0  0  0  0  0  0  0  0  0
    1.4455   -3.9436    4.2282 H   0  0  0  0  0  0  0  0  0  0  0  0
    2.9099   -3.3881    4.2754 H   0  0  0  0  0  0  0  0  0  0  0  0
    1.8412   -2.8678    5.2965 H   0  0  0  0  0  0  0  0  0  0  0  0
    2.3721   -2.3995    1.2019 H   0  0  0  0  0  0  0  0  0  0  0  0
    0.8461   -2.6474    1.1485 H   0  0  0  0  0  0  0  0  0  0  0  0
    1.8018   -3.6880    1.8388 H   0  0  0  0  0  0  0  0  0  0  0  0
    5.6040   -1.7032    2.8044 H   0  0  0  0  0  0  0  0  0  0  0  0
    5.1381   -2.7285    3.8522 H   0  0  0  0  0  0  0  0  0  0  0  0
    6.4209   -1.8440    4.1008 H   0  0  0  0  0  0  0  0  0  0  0  0
    5.3025   -1.2533    6.4326 H   0  0  0  0  0  0  0  0  0  0  0  0
    3.8553   -1.7782    6.3155 H   0  0  0  0  0  0  0  0  0  0  0  0
    4.1362   -0.2938    6.7573 H   0  0  0  0  0  0  0  0  0  0  0  0
    5.8985    1.1508    3.6611 H   0  0  0  0  0  0  0  0  0  0  0  0
    6.5048    0.5096    4.9534 H   0  0  0  0  0  0  0  0  0  0  0  0
    5.3333    1.5303    5.0685 H   0  0  0  0  0  0  0  0  0  0  0  0
  1  2  1  0  0  0  0
  2 21  1  0  0  0  0
  3  1  1  0  0  0  0
  4  1  1  0  0  0  0
  5  9  1  0  0  0  0
  6 14  1  0  0  0  0
  7 15  1  0  0  0  0
  8 20  1  0  0  0  0
  9 10  4  0  0  0  0
 10 11  4  0  0  0  0
 11 12  4  0  0  0  0
 12 13  4  0  0  0  0
 13 14  4  0  0  0  0
 14  9  4  0  0  0  0
 15 16  4  0  0  0  0
 16 17  4  0  0  0  0
 17 18  4  0  0  0  0
 18 19  4  0  0  0  0
 19 20  4  0  0  0  0
 20 15  4  0  0  0  0
 21 40  1  0  0  0  0
 22  2  1  0  0  0  0
 23  2  1  0  0  0  0
 24  3  1  0  0  0  0
 25  3  1  0  0  0  0
 26  3  1  0  0  0  0
 27  4  1  0  0  0  0
 28  4  1  0  0  0  0
 29  4  1  0  0  0  0
 30  1  1  0  0  0  0
 31  1  1  0  0  0  0
 32 10  1  0  0  0  0
 33 11  1  0  0  0  0
 34 12  1  0  0  0  0
 35 13  1  0  0  0  0
 36 16  1  0  0  0  0
 37 17  1  0  0  0  0
 38 18  1  0  0  0  0
 39 19  1  0  0  0  0
 41 21  1  0  0  0  0
 42 21  1  0  0  0  0
 43 22  1  0  0  0  0
 44 22  1  0  0  0  0
 45 22  1  0  0  0  0
 46 23  1  0  0  0  0
 47 23  1  0  0  0  0
 48 23  1  0  0  0  0
 49 24  1  0  0  0  0
 50 24  1  0  0  0  0
 51 24  1  0  0  0  0
 52 25  1  0  0  0  0
 53 25  1  0  0  0  0
 54 25  1  0  0  0  0
 55 26  1  0  0  0  0
 56 26  1  0  0  0  0
 57 26  1  0  0  0  0
 58 27  1  0  0  0  0
 59 27  1  0  0  0  0
 60 27  1  0  0  0  0
 61 28  1  0  0  0  0
 62 28  1  0  0  0  0
 63 28  1  0  0  0  0
 64 29  1  0  0  0  0
 65 29  1  0  0  0  0
 66 29  1  0  0  0  0
  5 30  1  0  0  0  0
  6 30  1  0  0  0  0
  7 31  1  0  0  0  0
  8 31  1  0  0  0  0
M  END
$$$$
TIPBOJ01

From CSD data. Using bond type 'Any'. No disordered atoms. Largest molecule.
 66 69  0  0  0  0  0  0  0  0999 V2000
    2.7312    0.1163    3.3548 Co  0  0  0  0  0  0  0  0  0  0  0  0
    3.2650    0.3995    1.2544 P   0  0  0  0  0  0  0  0  0  0  0  0
    1.6583   -1.8177    3.3009 P   0  0  0  0  0  0  0  0  0  0  0  0
    4.5850   -0.5525    4.3160 P   0  0  0  0  0  0  0  0  0  0  0  0
   -0.1609    1.0075    2.9521 O   0  0  0  0  0  0  0  0  0  0  0  0
    1.3461    2.7212    2.8047 O   0  0  0  0  0  0  0  0  0  0  0  0
    2.5886    1.8562    5.7858 O   0  0  0  0  0  0  0  0  0  0  0  0
    1.0686    0.1408    5.8977 O   0  0  0  0  0  0  0  0  0  0  0  0
   -0.8131    2.1668    2.6051 C   0  0  0  0  0  0  0  0  0  0  0  0
   -2.1643    2.3546    2.3466 C   0  0  0  0  0  0  0  0  0  0  0  0
   -2.7929    1.6318    2.4078 H   0  0  0  0  0  0  0  0  0  0  0  0
   -2.5486    3.6408    1.9939 C   0  0  0  0  0  0  0  0  0  0  0  0
   -3.4745    3.8121    1.8043 H   0  0  0  0  0  0  0  0  0  0  0  0
   -1.6501    4.6776    1.9042 C   0  0  0  0  0  0  0  0  0  0  0  0
   -1.9542    5.5521    1.6555 H   0  0  0  0  0  0  0  0  0  0  0  0
   -0.2921    4.4643    2.1815 C   0  0  0  0  0  0  0  0  0  0  0  0
    0.3468    5.1780    2.1366 H   0  0  0  0  0  0  0  0  0  0  0  0
    0.0803    3.1930    2.5211 C   0  0  0  0  0  0  0  0  0  0  0  0
    1.9525    1.9008    6.9950 C   0  0  0  0  0  0  0  0  0  0  0  0
    2.1079    2.7903    8.0266 C   0  0  0  0  0  0  0  0  0  0  0  0
    2.7502    3.5026    7.9736 H   0  0  0  0  0  0  0  0  0  0  0  0
    1.3153    2.6160    9.1519 C   0  0  0  0  0  0  0  0  0  0  0  0
    1.4075    3.2201    9.8920 H   0  0  0  0  0  0  0  0  0  0  0  0
    0.3895    1.5898    9.2131 C   0  0  0  0  0  0  0  0  0  0  0  0
   -0.1537    1.4996    9.9980 H   0  0  0  0  0  0  0  0  0  0  0  0
    0.2289    0.6957    8.1672 C   0  0  0  0  0  0  0  0  0  0  0  0
   -0.4065   -0.0210    8.2121 H   0  0  0  0  0  0  0  0  0  0  0  0
    1.0249    0.8715    7.0643 C   0  0  0  0  0  0  0  0  0  0  0  0
    4.0382    2.0180    0.9154 C   0  0  0  0  0  0  0  0  0  0  0  0
    4.0826    2.1683   -0.0347 H   0  0  0  0  0  0  0  0  0  0  0  0
    3.5137    2.7152    1.3231 H   0  0  0  0  0  0  0  0  0  0  0  0
    4.9264    2.0330    1.2824 H   0  0  0  0  0  0  0  0  0  0  0  0
    4.4533   -0.6762    0.3670 C   0  0  0  0  0  0  0  0  0  0  0  0
    4.5096   -0.4027   -0.5525 H   0  0  0  0  0  0  0  0  0  0  0  0
    5.3176   -0.6056    0.7768 H   0  0  0  0  0  0  0  0  0  0  0  0
    4.1526   -1.5883    0.4098 H   0  0  0  0  0  0  0  0  0  0  0  0
    1.9046    0.4718    0.0285 C   0  0  0  0  0  0  0  0  0  0  0  0
    2.2702    0.6131   -0.8481 H   0  0  0  0  0  0  0  0  0  0  0  0
    1.4178   -0.3561    0.0408 H   0  0  0  0  0  0  0  0  0  0  0  0
    1.3136    1.1946    0.2487 H   0  0  0  0  0  0  0  0  0  0  0  0
   -0.1640   -1.8527    3.3802 C   0  0  0  0  0  0  0  0  0  0  0  0
   -0.4732   -2.7618    3.3517 H   0  0  0  0  0  0  0  0  0  0  0  0
   -0.4578   -1.4425    4.1978 H   0  0  0  0  0  0  0  0  0  0  0  0
   -0.5210   -1.3689    2.6320 H   0  0  0  0  0  0  0  0  0  0  0  0
    1.9866   -2.9962    4.6565 C   0  0  0  0  0  0  0  0  0  0  0  0
    1.4161   -3.7640    4.5607 H   0  0  0  0  0  0  0  0  0  0  0  0
    2.9056   -3.2727    4.6198 H   0  0  0  0  0  0  0  0  0  0  0  0
    1.8141   -2.5725    5.5005 H   0  0  0  0  0  0  0  0  0  0  0  0
    1.9422   -2.9106    1.8899 C   0  0  0  0  0  0  0  0  0  0  0  0
    1.4639   -3.7325    2.0224 H   0  0  0  0  0  0  0  0  0  0  0  0
    1.6313   -2.4838    1.0887 H   0  0  0  0  0  0  0  0  0  0  0  0
    2.8817   -3.0984    1.8084 H   0  0  0  0  0  0  0  0  0  0  0  0
    5.5277   -1.9895    3.6922 C   0  0  0  0  0  0  0  0  0  0  0  0
    6.3408   -2.0901    4.1937 H   0  0  0  0  0  0  0  0  0  0  0  0
    4.9913   -2.7798    3.7900 H   0  0  0  0  0  0  0  0  0  0  0  0
    5.7395   -1.8587    2.7645 H   0  0  0  0  0  0  0  0  0  0  0  0
    4.5455   -0.9677    6.0979 C   0  0  0  0  0  0  0  0  0  0  0  0
    5.4355   -1.1630    6.4017 H   0  0  0  0  0  0  0  0  0  0  0  0
    4.1970   -0.2209    6.5913 H   0  0  0  0  0  0  0  0  0  0  0  0
    3.9852   -1.7340    6.2406 H   0  0  0  0  0  0  0  0  0  0  0  0
    5.8762    0.7303    4.3364 C   0  0  0  0  0  0  0  0  0  0  0  0
    6.6619    0.3952    4.7768 H   0  0  0  0  0  0  0  0  0  0  0  0
    6.0982    0.9842    3.4373 H   0  0  0  0  0  0  0  0  0  0  0  0
    5.5448    1.4951    4.8114 H   0  0  0  0  0  0  0  0  0  0  0  0
    1.2265    1.3193    3.0744 B   0  0  0  0  0  0  0  0  0  0  0  0
    2.0635    0.7408    5.0704 B   0  0  0  0  0  0  0  0  0  0  0  0
  1  2  1  0  0  0  0
  2 29  1  0  0  0  0
  3  1  1  0  0  0  0
  4  1  1  0  0  0  0
  5  9  1  0  0  0  0
  6 18  1  0  0  0  0
  7 19  1  0  0  0  0
  8 28  1  0  0  0  0
  9 10  4  0  0  0  0
 10 11  1  0  0  0  0
 12 10  4  0  0  0  0
 13 12  1  0  0  0  0
 14 12  4  0  0  0  0
 15 14  1  0  0  0  0
 16 14  4  0  0  0  0
 17 16  1  0  0  0  0
 18  9  4  0  0  0  0
 19 20  4  0  0  0  0
 20 21  1  0  0  0  0
 22 20  4  0  0  0  0
 23 22  1  0  0  0  0
 24 22  4  0  0  0  0
 25 24  1  0  0  0  0
 26 24  4  0  0  0  0
 27 26  1  0  0  0  0
 28 19  4  0  0  0  0
 29 30  1  0  0  0  0
 31 29  1  0  0  0  0
 32 29  1  0  0  0  0
 33  2  1  0  0  0  0
 34 33  1  0  0  0  0
 35 33  1  0  0  0  0
 36 33  1  0  0  0  0
 37  2  1  0  0  0  0
 38 37  1  0  0  0  0
 39 37  1  0  0  0  0
 40 37  1  0  0  0  0
 41  3  1  0  0  0  0
 42 41  1  0  0  0  0
 43 41  1  0  0  0  0
 44 41  1  0  0  0  0
 45  3  1  0  0  0  0
 46 45  1  0  0  0  0
 47 45  1  0  0  0  0
 48 45  1  0  0  0  0
 49  3  1  0  0  0  0
 50 49  1  0  0  0  0
 51 49  1  0  0  0  0
 52 49  1  0  0  0  0
 53  4  1  0  0  0  0
 54 53  1  0  0  0  0
 55 53  1  0  0  0  0
 56 53  1  0  0  0  0
 57  4  1  0  0  0  0
 58 57  1  0  0  0  0
 59 57  1  0  0  0  0
 60 57  1  0  0  0  0
 61  4  1  0  0  0  0
 62 61  1  0  0  0  0
 63 61  1  0  0  0  0
 64 61  1  0  0  0  0
 65  1  1  0  0  0  0
 66  1  1  0  0  0  0
  5 65  1  0  0  0  0
  6 65  1  0  0  0  0
  7 66  1  0  0  0  0
  8 66  1  0  0  0  0
 16 18  4  0  0  0  0
 26 28  4  0  0  0  0
M  END
$$$$
TIQTAP

From CSD data. Using bond type 'Any'. Matching problem. Disorder unknown. Sizes unknown.
  0  0  0  0  0  0  0  0  0  0999 V2000
M  END
$$$$
TISHOW

From CSD data. Using bond type 'Any'. No disordered atoms. Largest molecule.
 94115  0  0  0  0  0  0  0  0999 V2000
    2.5801   12.9212    9.2881 B   0  0  0  0  0  0  0  0  0  0  0  0
    2.7227   13.7136    9.8656 H   0  0  0  0  0  0  0  0  0  0  0  0
    1.8287   12.7483    7.3447 Ir  0  0  0  0  0  0  0  0  0  0  0  0
    3.7270   11.9587    8.3677 B   0  0  0  0  0  0  0  0  0  0  0  0
    4.7351   12.3109    8.0609 H   0  0  0  0  0  0  0  0  0  0  0  0
    2.9647   11.3902    9.9178 B   0  0  0  0  0  0  0  0  0  0  0  0
    3.4133   11.2663   10.9484 H   0  0  0  0  0  0  0  0  0  0  0  0
    1.2566   11.7259    9.3102 B   0  0  0  0  0  0  0  0  0  0  0  0
    0.4240   11.9975    9.9458 H   0  0  0  0  0  0  0  0  0  0  0  0
    2.9683   10.8694    7.1706 B   0  0  0  0  0  0  0  0  0  0  0  0
    3.6341   10.2083    8.7447 B   0  0  0  0  0  0  0  0  0  0  0  0
    4.5725    9.6697    8.9833 H   0  0  0  0  0  0  0  0  0  0  0  0
    1.9416   10.0248    9.4004 B   0  0  0  0  0  0  0  0  0  0  0  0
    1.5568    9.5204   10.2266 H   0  0  0  0  0  0  0  0  0  0  0  0
    1.1360   10.6068    7.8584 B   0  0  0  0  0  0  0  0  0  0  0  0
    0.1641   10.4307    7.4193 H   0  0  0  0  0  0  0  0  0  0  0  0
    2.3641    9.4234    7.8905 B   0  0  0  0  0  0  0  0  0  0  0  0
   -0.0193   12.9973    6.9501 C   0  0  0  0  0  0  0  0  0  0  0  0
   -1.1413   13.0510    6.8618 O   0  0  0  0  0  0  0  0  0  0  0  0
    2.4967   12.6213    5.2376 O   0  0  0  0  0  0  0  0  0  0  0  0
    3.5583   10.7664    5.8271 O   0  0  0  0  0  0  0  0  0  0  0  0
    3.2584   11.6812    4.9709 C   0  0  0  0  0  0  0  0  0  0  0  0
    3.8376   11.5364    3.5993 C   0  0  0  0  0  0  0  0  0  0  0  0
    3.5529   12.2924    3.0437 H   0  0  0  0  0  0  0  0  0  0  0  0
    3.5232   10.6999    3.1984 H   0  0  0  0  0  0  0  0  0  0  0  0
    4.8154   11.5245    3.6581 H   0  0  0  0  0  0  0  0  0  0  0  0
    2.4145   15.0432    7.2823 P   0  0  0  0  0  0  0  0  0  0  0  0
    4.1730   15.3968    7.5296 C   0  0  0  0  0  0  0  0  0  0  0  0
    5.0374   15.1625    6.5089 C   0  0  0  0  0  0  0  0  0  0  0  0
    4.7148   14.7960    5.6945 H   0  0  0  0  0  0  0  0  0  0  0  0
    6.4073   15.4595    6.6493 C   0  0  0  0  0  0  0  0  0  0  0  0
    6.9971   15.3112    5.9193 H   0  0  0  0  0  0  0  0  0  0  0  0
    6.8935   15.9549    7.8103 C   0  0  0  0  0  0  0  0  0  0  0  0
    7.8185   16.1493    7.9050 H   0  0  0  0  0  0  0  0  0  0  0  0
    6.0431   16.1653    8.8269 C   0  0  0  0  0  0  0  0  0  0  0  0
    6.3688   16.5187    9.6467 H   0  0  0  0  0  0  0  0  0  0  0  0
    4.6914   15.8729    8.6946 C   0  0  0  0  0  0  0  0  0  0  0  0
    4.1147   16.0067    9.4377 H   0  0  0  0  0  0  0  0  0  0  0  0
    1.5083   16.1012    8.4700 C   0  0  0  0  0  0  0  0  0  0  0  0
    1.8535   17.4531    8.7026 C   0  0  0  0  0  0  0  0  0  0  0  0
    2.6025   17.8253    8.2537 H   0  0  0  0  0  0  0  0  0  0  0  0
    1.1509   18.2201    9.5388 C   0  0  0  0  0  0  0  0  0  0  0  0
    1.4394   19.1090    9.7121 H   0  0  0  0  0  0  0  0  0  0  0  0
    0.0327   17.7501   10.1464 C   0  0  0  0  0  0  0  0  0  0  0  0
   -0.4999   18.3242   10.6852 H   0  0  0  0  0  0  0  0  0  0  0  0
   -0.3170   16.4518    9.9759 C   0  0  0  0  0  0  0  0  0  0  0  0
   -1.0741   16.1007   10.4292 H   0  0  0  0  0  0  0  0  0  0  0  0
    0.4299   15.6386    9.1417 C   0  0  0  0  0  0  0  0  0  0  0  0
    0.1784   14.7284    9.0396 H   0  0  0  0  0  0  0  0  0  0  0  0
    2.0518   15.9176    5.7068 C   0  0  0  0  0  0  0  0  0  0  0  0
    2.6428   17.1338    5.4502 C   0  0  0  0  0  0  0  0  0  0  0  0
    3.3039   17.4589    6.0486 H   0  0  0  0  0  0  0  0  0  0  0  0
    2.3002   17.9053    4.3333 C   0  0  0  0  0  0  0  0  0  0  0  0
    2.6728   18.7675    4.1926 H   0  0  0  0  0  0  0  0  0  0  0  0
    1.3789   17.3427    3.4289 C   0  0  0  0  0  0  0  0  0  0  0  0
    1.1517   17.8153    2.6371 H   0  0  0  0  0  0  0  0  0  0  0  0
    0.8013   16.1161    3.6755 C   0  0  0  0  0  0  0  0  0  0  0  0
    0.1930   15.7377    3.0512 H   0  0  0  0  0  0  0  0  0  0  0  0
    1.1162   15.4401    4.8406 C   0  0  0  0  0  0  0  0  0  0  0  0
    0.6690   14.6258    5.0408 H   0  0  0  0  0  0  0  0  0  0  0  0
    2.3012    7.7436    7.0587 P   0  0  0  0  0  0  0  0  0  0  0  0
    2.2380    7.9267    5.2597 C   0  0  0  0  0  0  0  0  0  0  0  0
    1.1951    8.7281    4.7463 C   0  0  0  0  0  0  0  0  0  0  0  0
    0.5793    9.1426    5.3382 H   0  0  0  0  0  0  0  0  0  0  0  0
    1.0719    8.9116    3.3748 C   0  0  0  0  0  0  0  0  0  0  0  0
    0.3710    9.4511    3.0294 H   0  0  0  0  0  0  0  0  0  0  0  0
    1.9583    8.3162    2.5205 C   0  0  0  0  0  0  0  0  0  0  0  0
    1.8736    8.4522    1.5838 H   0  0  0  0  0  0  0  0  0  0  0  0
    2.9532    7.5343    2.9958 C   0  0  0  0  0  0  0  0  0  0  0  0
    3.5482    7.1102    2.3890 H   0  0  0  0  0  0  0  0  0  0  0  0
    3.1166    7.3433    4.3774 C   0  0  0  0  0  0  0  0  0  0  0  0
    3.8347    6.8128    4.7029 H   0  0  0  0  0  0  0  0  0  0  0  0
    0.8317    6.7568    7.4554 C   0  0  0  0  0  0  0  0  0  0  0  0
    0.3246    5.8391    6.5109 C   0  0  0  0  0  0  0  0  0  0  0  0
    0.7507    5.7350    5.6670 H   0  0  0  0  0  0  0  0  0  0  0  0
   -0.8016    5.0900    6.8237 C   0  0  0  0  0  0  0  0  0  0  0  0
   -1.1494    4.4785    6.1851 H   0  0  0  0  0  0  0  0  0  0  0  0
   -1.4237    5.2183    8.0489 C   0  0  0  0  0  0  0  0  0  0  0  0
   -2.2064    4.7156    8.2441 H   0  0  0  0  0  0  0  0  0  0  0  0
   -0.8979    6.0838    8.9873 C   0  0  0  0  0  0  0  0  0  0  0  0
   -1.3088    6.1573    9.8400 H   0  0  0  0  0  0  0  0  0  0  0  0
    0.2269    6.8478    8.6946 C   0  0  0  0  0  0  0  0  0  0  0  0
    0.5820    7.4369    9.3501 H   0  0  0  0  0  0  0  0  0  0  0  0
    3.8325    6.9045    7.3571 C   0  0  0  0  0  0  0  0  0  0  0  0
    3.8661    5.6943    8.0208 C   0  0  0  0  0  0  0  0  0  0  0  0
    3.0506    5.2514    8.2236 H   0  0  0  0  0  0  0  0  0  0  0  0
    5.1052    5.0975    8.4098 C   0  0  0  0  0  0  0  0  0  0  0  0
    5.1246    4.2867    8.9041 H   0  0  0  0  0  0  0  0  0  0  0  0
    6.2701    5.7391    8.0449 C   0  0  0  0  0  0  0  0  0  0  0  0
    7.0996    5.3455    8.2900 H   0  0  0  0  0  0  0  0  0  0  0  0
    6.2877    6.9239    7.3451 C   0  0  0  0  0  0  0  0  0  0  0  0
    7.1059    7.3213    7.0698 H   0  0  0  0  0  0  0  0  0  0  0  0
    5.0357    7.5328    7.0463 C   0  0  0  0  0  0  0  0  0  0  0  0
    5.0214    8.3855    6.6269 H   0  0  0  0  0  0  0  0  0  0  0  0
  1  2  1  0  0  0  0
  3  1  1  0  0  0  0
  4  1  1  0  0  0  0
  5  4  1  0  0  0  0
  6  1  1  0  0  0  0
  7  6  1  0  0  0  0
  8  1  1  0  0  0  0
  9  8  1  0  0  0  0
 10  3  1  0  0  0  0
 11  4  1  0  0  0  0
 12 11  1  0  0  0  0
 13  6  1  0  0  0  0
 14 13  1  0  0  0  0
 15  3  1  0  0  0  0
 16 15  1  0  0  0  0
 17 10  1  0  0  0  0
 18  3  1  0  0  0  0
 19 18  3  0  0  0  0
 20  3  1  0  0  0  0
 21 10  1  0  0  0  0
 22 20  2  0  0  0  0
 23 22  1  0  0  0  0
 24 23  1  0  0  0  0
 25 23  1  0  0  0  0
 26 23  1  0  0  0  0
 27  3  1  0  0  0  0
 28 27  1  0  0  0  0
 29 28  4  0  0  0  0
 30 29  1  0  0  0  0
 31 29  4  0  0  0  0
 32 31  1  0  0  0  0
 33 31  4  0  0  0  0
 34 33  1  0  0  0  0
 35 33  4  0  0  0  0
 36 35  1  0  0  0  0
 37 28  4  0  0  0  0
 38 37  1  0  0  0  0
 39 27  1  0  0  0  0
 40 39  4  0  0  0  0
 41 40  1  0  0  0  0
 42 40  4  0  0  0  0
 43 42  1  0  0  0  0
 44 42  4  0  0  0  0
 45 44  1  0  0  0  0
 46 44  4  0  0  0  0
 47 46  1  0  0  0  0
 48 39  4  0  0  0  0
 49 48  1  0  0  0  0
 50 27  1  0  0  0  0
 51 50  4  0  0  0  0
 52 51  1  0  0  0  0
 53 51  4  0  0  0  0
 54 53  1  0  0  0  0
 55 53  4  0  0  0  0
 56 55  1  0  0  0  0
 57 55  4  0  0  0  0
 58 57  1  0  0  0  0
 59 50  4  0  0  0  0
 60 59  1  0  0  0  0
 61 17  1  0  0  0  0
 62 61  1  0  0  0  0
 63 62  4  0  0  0  0
 64 63  1  0  0  0  0
 65 63  4  0  0  0  0
 66 65  1  0  0  0  0
 67 65  4  0  0  0  0
 68 67  1  0  0  0  0
 69 67  4  0  0  0  0
 70 69  1  0  0  0  0
 71 62  4  0  0  0  0
 72 71  1  0  0  0  0
 73 61  1  0  0  0  0
 74 73  4  0  0  0  0
 75 74  1  0  0  0  0
 76 74  4  0  0  0  0
 77 76  1  0  0  0  0
 78 76  4  0  0  0  0
 79 78  1  0  0  0  0
 80 78  4  0  0  0  0
 81 80  1  0  0  0  0
 82 73  4  0  0  0  0
 83 82  1  0  0  0  0
 84 61  1  0  0  0  0
 85 84  4  0  0  0  0
 86 85  1  0  0  0  0
 87 85  4  0  0  0  0
 88 87  1  0  0  0  0
 89 87  4  0  0  0  0
 90 89  1  0  0  0  0
 91 89  4  0  0  0  0
 92 91  1  0  0  0  0
 93 84  4  0  0  0  0
 94 93  1  0  0  0  0
  3  4  1  0  0  0  0
  3  8  1  0  0  0  0
  4  6  1  0  0  0  0
  4 10  1  0  0  0  0
  6  8  1  0  0  0  0
  6 11  1  0  0  0  0
  8 13  1  0  0  0  0
  8 15  1  0  0  0  0
 10 11  1  0  0  0  0
 10 15  1  0  0  0  0
 11 13  1  0  0  0  0
 11 17  1  0  0  0  0
 13 15  1  0  0  0  0
 13 17  1  0  0  0  0
 15 17  1  0  0  0  0
 21 22  1  0  0  0  0
 35 37  4  0  0  0  0
 46 48  4  0  0  0  0
 57 59  4  0  0  0  0
 69 71  4  0  0  0  0
 80 82  4  0  0  0  0
 91 93  4  0  0  0  0
M  END
$$$$
TISHUC

From CSD data. Using bond type 'Any'. No disordered atoms. Largest molecule.
 90108  0  0  0  0  0  0  0  0999 V2000
    3.4095   14.8197    3.7608 B   0  0  0  0  0  0  0  0  0  0  0  0
    3.4837   15.9007    3.8717 H   0  0  0  0  0  0  0  0  0  0  0  0
    3.4829   13.7627    5.1849 B   0  0  0  0  0  0  0  0  0  0  0  0
    3.3999   14.2583    6.1516 H   0  0  0  0  0  0  0  0  0  0  0  0
    2.0050   13.8179    4.2200 B   0  0  0  0  0  0  0  0  0  0  0  0
    1.0704   14.1543    4.7017 H   0  0  0  0  0  0  0  0  0  0  0  0
    2.2418   14.2823    2.5071 B   0  0  0  0  0  0  0  0  0  0  0  0
    1.6103   14.9665    2.0233 H   0  0  0  0  0  0  0  0  0  0  0  0
    4.8857   13.9366    4.1032 B   0  0  0  0  0  0  0  0  0  0  0  0
    5.7260   14.5989    4.1788 H   0  0  0  0  0  0  0  0  0  0  0  0
    4.8357   11.8224    5.1759 Re  0  0  0  0  0  0  0  0  0  0  0  0
    5.3488   10.3656    5.7629 H   0  0  0  0  0  0  0  0  0  0  0  0
    2.5658   12.2427    4.7654 B   0  0  0  0  0  0  0  0  0  0  0  0
    1.7593   11.7265    5.3625 H   0  0  0  0  0  0  0  0  0  0  0  0
    1.8040   12.6139    2.9608 B   0  0  0  0  0  0  0  0  0  0  0  0
    0.8871   12.1263    2.6686 H   0  0  0  0  0  0  0  0  0  0  0  0
    2.9132   12.9866    1.6253 B   0  0  0  0  0  0  0  0  0  0  0  0
    4.0113   14.2559    2.2367 B   0  0  0  0  0  0  0  0  0  0  0  0
    4.6005   14.8123    1.5063 H   0  0  0  0  0  0  0  0  0  0  0  0
    5.3307   12.8166    3.7512 H   0  0  0  0  0  0  0  0  0  0  0  0
    3.4280   11.3679    4.4665 H   0  0  0  0  0  0  0  0  0  0  0  0
    2.6827   11.9757    2.4023 H   0  0  0  0  0  0  0  0  0  0  0  0
    4.1631   13.0748    1.9631 H   0  0  0  0  0  0  0  0  0  0  0  0
    6.8775   12.5090    6.1956 P   0  0  0  0  0  0  0  0  0  0  0  0
    8.1340   13.2644    5.0956 C   0  0  0  0  0  0  0  0  0  0  0  0
    7.7365   14.0222    4.6178 H   0  0  0  0  0  0  0  0  0  0  0  0
    8.4451   12.5973    4.4486 H   0  0  0  0  0  0  0  0  0  0  0  0
    8.8918   13.5777    5.6321 H   0  0  0  0  0  0  0  0  0  0  0  0
    7.9278   11.2366    6.9849 C   0  0  0  0  0  0  0  0  0  0  0  0
    8.1594   10.5493    6.3258 H   0  0  0  0  0  0  0  0  0  0  0  0
    7.4396   10.8251    7.7283 H   0  0  0  0  0  0  0  0  0  0  0  0
    8.7475   11.6538    7.3235 H   0  0  0  0  0  0  0  0  0  0  0  0
    6.7972   13.8055    7.5062 C   0  0  0  0  0  0  0  0  0  0  0  0
    6.2362   15.0488    7.2235 C   0  0  0  0  0  0  0  0  0  0  0  0
    5.8196   15.1935    6.3820 H   0  0  0  0  0  0  0  0  0  0  0  0
    6.2760   16.0741    8.1476 C   0  0  0  0  0  0  0  0  0  0  0  0
    5.9034   16.9195    7.9256 H   0  0  0  0  0  0  0  0  0  0  0  0
    6.8471   15.8881    9.3847 C   0  0  0  0  0  0  0  0  0  0  0  0
    6.8863   16.6018   10.0107 H   0  0  0  0  0  0  0  0  0  0  0  0
    7.3590   14.6581    9.6994 C   0  0  0  0  0  0  0  0  0  0  0  0
    7.7245   14.5112   10.5636 H   0  0  0  0  0  0  0  0  0  0  0  0
    7.3507   13.6187    8.7719 C   0  0  0  0  0  0  0  0  0  0  0  0
    7.7262   12.7770    9.0032 H   0  0  0  0  0  0  0  0  0  0  0  0
    5.7418   10.2598    3.6813 P   0  0  0  0  0  0  0  0  0  0  0  0
    4.6361    8.8592    3.3252 C   0  0  0  0  0  0  0  0  0  0  0  0
    4.4352    8.3819    4.1572 H   0  0  0  0  0  0  0  0  0  0  0  0
    5.0742    8.2489    2.6960 H   0  0  0  0  0  0  0  0  0  0  0  0
    3.8033    9.1927    2.9307 H   0  0  0  0  0  0  0  0  0  0  0  0
    6.0371   10.8565    1.9755 C   0  0  0  0  0  0  0  0  0  0  0  0
    6.6391   11.6292    1.9994 H   0  0  0  0  0  0  0  0  0  0  0  0
    5.1845   11.1189    1.5692 H   0  0  0  0  0  0  0  0  0  0  0  0
    6.4449   10.1406    1.4451 H   0  0  0  0  0  0  0  0  0  0  0  0
    7.3288    9.4396    4.0690 C   0  0  0  0  0  0  0  0  0  0  0  0
    7.3563    8.3557    4.9438 C   0  0  0  0  0  0  0  0  0  0  0  0
    6.5429    8.0228    5.3036 H   0  0  0  0  0  0  0  0  0  0  0  0
    8.5470    7.7615    5.2935 C   0  0  0  0  0  0  0  0  0  0  0  0
    8.5474    7.0187    5.8855 H   0  0  0  0  0  0  0  0  0  0  0  0
    9.7463    8.2392    4.7882 C   0  0  0  0  0  0  0  0  0  0  0  0
   10.5671    7.8318    5.0389 H   0  0  0  0  0  0  0  0  0  0  0  0
    9.7397    9.3096    3.9186 C   0  0  0  0  0  0  0  0  0  0  0  0
   10.5588    9.6414    3.5698 H   0  0  0  0  0  0  0  0  0  0  0  0
    8.5414    9.9039    3.5514 C   0  0  0  0  0  0  0  0  0  0  0  0
    8.5445   10.6331    2.9425 H   0  0  0  0  0  0  0  0  0  0  0  0
    3.8047   10.9978    7.1841 P   0  0  0  0  0  0  0  0  0  0  0  0
    2.7154    9.5558    6.9520 C   0  0  0  0  0  0  0  0  0  0  0  0
    3.2334    8.8106    6.5827 H   0  0  0  0  0  0  0  0  0  0  0  0
    1.9919    9.7891    6.3331 H   0  0  0  0  0  0  0  0  0  0  0  0
    2.3337    9.2922    7.8155 H   0  0  0  0  0  0  0  0  0  0  0  0
    2.7237   12.1582    8.0795 C   0  0  0  0  0  0  0  0  0  0  0  0
    3.2312   12.9627    8.3148 H   0  0  0  0  0  0  0  0  0  0  0  0
    2.3910   11.7311    8.8964 H   0  0  0  0  0  0  0  0  0  0  0  0
    1.9660   12.4056    7.5088 H   0  0  0  0  0  0  0  0  0  0  0  0
    4.8801   10.4048    8.5421 C   0  0  0  0  0  0  0  0  0  0  0  0
    5.2068   11.2298    9.6107 C   0  0  0  0  0  0  0  0  0  0  0  0
    4.8713   12.1182    9.6373 H   0  0  0  0  0  0  0  0  0  0  0  0
    6.0206   10.7699   10.6442 C   0  0  0  0  0  0  0  0  0  0  0  0
    6.2365   11.3462   11.3678 H   0  0  0  0  0  0  0  0  0  0  0  0
    6.5112    9.4863   10.6220 C   0  0  0  0  0  0  0  0  0  0  0  0
    7.0667    9.1756   11.3277 H   0  0  0  0  0  0  0  0  0  0  0  0
    6.1944    8.6496    9.5691 C   0  0  0  0  0  0  0  0  0  0  0  0
    6.5293    7.7606    9.5524 H   0  0  0  0  0  0  0  0  0  0  0  0
    5.3886    9.1069    8.5355 C   0  0  0  0  0  0  0  0  0  0  0  0
    5.1791    8.5262    7.8132 H   0  0  0  0  0  0  0  0  0  0  0  0
    2.7516   12.6863    0.2503 O   0  0  0  0  0  0  0  0  0  0  0  0
    2.6690   11.4260   -0.2225 C   0  0  0  0  0  0  0  0  0  0  0  0
    2.8122   10.4671    0.4822 O   0  0  0  0  0  0  0  0  0  0  0  0
    2.3807   11.3948   -1.6890 C   0  0  0  0  0  0  0  0  0  0  0  0
    3.1503   11.7487   -2.1813 H   0  0  0  0  0  0  0  0  0  0  0  0
    1.5908   11.9424   -1.8785 H   0  0  0  0  0  0  0  0  0  0  0  0
    2.2116   10.4701   -1.9687 H   0  0  0  0  0  0  0  0  0  0  0  0
  1  2  1  0  0  0  0
  3  1  1  0  0  0  0
  4  3  1  0  0  0  0
  5  1  1  0  0  0  0
  6  5  1  0  0  0  0
  7  1  1  0  0  0  0
  8  7  1  0  0  0  0
  9  1  1  0  0  0  0
 10  9  1  0  0  0  0
 11  3  1  0  0  0  0
 12 11  1  0  0  0  0
 13  3  1  0  0  0  0
 14 13  1  0  0  0  0
 15  5  1  0  0  0  0
 16 15  1  0  0  0  0
 17  7  1  0  0  0  0
 18  1  1  0  0  0  0
 19 18  1  0  0  0  0
 20  9  1  0  0  0  0
 21 11  1  0  0  0  0
 22 15  1  0  0  0  0
 23 17  1  0  0  0  0
 24 11  1  0  0  0  0
 25 24  1  0  0  0  0
 26 25  1  0  0  0  0
 27 25  1  0  0  0  0
 28 25  1  0  0  0  0
 29 24  1  0  0  0  0
 30 29  1  0  0  0  0
 31 29  1  0  0  0  0
 32 29  1  0  0  0  0
 33 24  1  0  0  0  0
 34 33  4  0  0  0  0
 35 34  1  0  0  0  0
 36 34  4  0  0  0  0
 37 36  1  0  0  0  0
 38 36  4  0  0  0  0
 39 38  1  0  0  0  0
 40 38  4  0  0  0  0
 41 40  1  0  0  0  0
 42 33  4  0  0  0  0
 43 42  1  0  0  0  0
 44 11  1  0  0  0  0
 45 44  1  0  0  0  0
 46 45  1  0  0  0  0
 47 45  1  0  0  0  0
 48 45  1  0  0  0  0
 49 44  1  0  0  0  0
 50 49  1  0  0  0  0
 51 49  1  0  0  0  0
 52 49  1  0  0  0  0
 53 44  1  0  0  0  0
 54 53  4  0  0  0  0
 55 54  1  0  0  0  0
 56 54  4  0  0  0  0
 57 56  1  0  0  0  0
 58 56  4  0  0  0  0
 59 58  1  0  0  0  0
 60 58  4  0  0  0  0
 61 60  1  0  0  0  0
 62 53  4  0  0  0  0
 63 62  1  0  0  0  0
 64 11  1  0  0  0  0
 65 64  1  0  0  0  0
 66 65  1  0  0  0  0
 67 65  1  0  0  0  0
 68 65  1  0  0  0  0
 69 64  1  0  0  0  0
 70 69  1  0  0  0  0
 71 69  1  0  0  0  0
 72 69  1  0  0  0  0
 73 64  1  0  0  0  0
 74 73  4  0  0  0  0
 75 74  1  0  0  0  0
 76 74  4  0  0  0  0
 77 76  1  0  0  0  0
 78 76  4  0  0  0  0
 79 78  1  0  0  0  0
 80 78  4  0  0  0  0
 81 80  1  0  0  0  0
 82 73  4  0  0  0  0
 83 82  1  0  0  0  0
 84 17  1  0  0  0  0
 85 84  1  0  0  0  0
 86 85  2  0  0  0  0
 87 85  1  0  0  0  0
 88 87  1  0  0  0  0
 89 87  1  0  0  0  0
 90 87  1  0  0  0  0
  3  5  1  0  0  0  0
  3  9  1  0  0  0  0
  5  7  1  0  0  0  0
  5 13  1  0  0  0  0
  7 15  1  0  0  0  0
  7 18  1  0  0  0  0
  9 11  1  0  0  0  0
  9 18  1  0  0  0  0
 11 13  1  0  0  0  0
 11 20  1  0  0  0  0
 13 15  1  0  0  0  0
 13 21  1  0  0  0  0
 15 17  1  0  0  0  0
 17 18  1  0  0  0  0
 17 22  1  0  0  0  0
 18 23  1  0  0  0  0
 40 42  4  0  0  0  0
 60 62  4  0  0  0  0
 80 82  4  0  0  0  0
M  END
$$$$
TIVQUL

From CSD data. Using bond type 'Any'. No disordered atoms. Largest molecule.
105117  0  0  0  0  0  0  0  0999 V2000
    0.4696    2.8167    9.5658 W   0  0  0  0  0  0  0  0  0  0  0  0
    0.3892    1.7177   11.2081 C   0  0  0  0  0  0  0  0  0  0  0  0
    0.8084    0.5554   11.7160 O   0  0  0  0  0  0  0  0  0  0  0  0
    1.9027   -0.1474   11.1181 B   0  0  0  0  0  0  0  0  0  0  0  0
    1.9832   -1.4916   11.4493 N   0  0  0  0  0  0  0  0  0  0  0  0
    1.0952   -2.2116   12.2612 C   0  0  0  0  0  0  0  0  0  0  0  0
    0.2722   -1.6931   12.3851 H   0  0  0  0  0  0  0  0  0  0  0  0
    1.5110   -2.3763   13.1325 H   0  0  0  0  0  0  0  0  0  0  0  0
    0.8820   -3.0668   11.8331 H   0  0  0  0  0  0  0  0  0  0  0  0
    2.9956   -2.3320   10.9041 C   0  0  0  0  0  0  0  0  0  0  0  0
    3.4921   -1.8430   10.2145 H   0  0  0  0  0  0  0  0  0  0  0  0
    2.5812   -3.1258   10.5067 H   0  0  0  0  0  0  0  0  0  0  0  0
    3.6112   -2.6073   11.6157 H   0  0  0  0  0  0  0  0  0  0  0  0
    2.9085    0.7298   10.0617 B   0  0  0  0  0  0  0  0  0  0  0  0
    4.2767    0.9215   10.3062 N   0  0  0  0  0  0  0  0  0  0  0  0
    4.9386    0.3563   11.5138 C   0  0  0  0  0  0  0  0  0  0  0  0
    4.2577    0.0123   12.1287 H   0  0  0  0  0  0  0  0  0  0  0  0
    5.4570    1.0591   11.9605 H   0  0  0  0  0  0  0  0  0  0  0  0
    5.5362   -0.3711   11.2472 H   0  0  0  0  0  0  0  0  0  0  0  0
    5.2120    1.5727    9.3908 C   0  0  0  0  0  0  0  0  0  0  0  0
    4.8219    1.6022    8.4923 H   0  0  0  0  0  0  0  0  0  0  0  0
    6.0507    1.0690    9.3687 H   0  0  0  0  0  0  0  0  0  0  0  0
    5.3883    2.4869    9.6999 H   0  0  0  0  0  0  0  0  0  0  0  0
    2.1786    1.4007    8.8337 C   0  0  0  0  0  0  0  0  0  0  0  0
    2.3383    2.6638    8.2290 C   0  0  0  0  0  0  0  0  0  0  0  0
    3.0657    3.2560    8.3802 H   0  0  0  0  0  0  0  0  0  0  0  0
    1.2555    2.9144    7.3662 C   0  0  0  0  0  0  0  0  0  0  0  0
    1.1257    3.6959    6.8448 H   0  0  0  0  0  0  0  0  0  0  0  0
    0.4039    1.8086    7.4104 C   0  0  0  0  0  0  0  0  0  0  0  0
   -0.4084    1.7030    6.9297 H   0  0  0  0  0  0  0  0  0  0  0  0
    0.9612    0.8994    8.2851 C   0  0  0  0  0  0  0  0  0  0  0  0
    0.5843    0.0516    8.4940 H   0  0  0  0  0  0  0  0  0  0  0  0
    0.9362    4.5830   10.2077 C   0  0  0  0  0  0  0  0  0  0  0  0
    1.3502    5.6495   10.4897 O   0  0  0  0  0  0  0  0  0  0  0  0
   -1.4160    3.3052    9.3551 C   0  0  0  0  0  0  0  0  0  0  0  0
   -2.5310    3.5411    9.0901 O   0  0  0  0  0  0  0  0  0  0  0  0
   -0.6668    3.1730   12.0720 Pt  0  0  0  0  0  0  0  0  0  0  0  0
   -0.8868    2.0755   14.0284 P   0  0  0  0  0  0  0  0  0  0  0  0
   -1.6973    5.2268   12.4928 P   0  0  0  0  0  0  0  0  0  0  0  0
    0.7569    1.4941   14.6050 C   0  0  0  0  0  0  0  0  0  0  0  0
    1.8596    2.3296   14.4012 C   0  0  0  0  0  0  0  0  0  0  0  0
    1.7349    3.1848   14.0038 H   0  0  0  0  0  0  0  0  0  0  0  0
    3.1320    1.9266   14.7715 C   0  0  0  0  0  0  0  0  0  0  0  0
    3.8731    2.5016   14.6305 H   0  0  0  0  0  0  0  0  0  0  0  0
    3.3201    0.6831   15.3507 C   0  0  0  0  0  0  0  0  0  0  0  0
    4.1939    0.4006   15.5969 H   0  0  0  0  0  0  0  0  0  0  0  0
    2.2397   -0.1474   15.5664 C   0  0  0  0  0  0  0  0  0  0  0  0
    2.3716   -0.9977   15.9672 H   0  0  0  0  0  0  0  0  0  0  0  0
    0.9709    0.2507   15.2080 C   0  0  0  0  0  0  0  0  0  0  0  0
    0.2337   -0.3268   15.3710 H   0  0  0  0  0  0  0  0  0  0  0  0
   -1.8851    0.5406   13.9443 C   0  0  0  0  0  0  0  0  0  0  0  0
   -2.1294   -0.0786   12.7384 C   0  0  0  0  0  0  0  0  0  0  0  0
   -1.8271    0.3195   11.9300 H   0  0  0  0  0  0  0  0  0  0  0  0
   -2.8219   -1.2950   12.7028 C   0  0  0  0  0  0  0  0  0  0  0  0
   -2.9508   -1.7423   11.8739 H   0  0  0  0  0  0  0  0  0  0  0  0
   -3.3138   -1.8406   13.8492 C   0  0  0  0  0  0  0  0  0  0  0  0
   -3.7892   -2.6638   13.8152 H   0  0  0  0  0  0  0  0  0  0  0  0
   -3.1276   -1.2139   15.0449 C   0  0  0  0  0  0  0  0  0  0  0  0
   -3.4929   -1.5899   15.8381 H   0  0  0  0  0  0  0  0  0  0  0  0
   -2.4052   -0.0319   15.1078 C   0  0  0  0  0  0  0  0  0  0  0  0
   -2.2644    0.3907   15.9468 H   0  0  0  0  0  0  0  0  0  0  0  0
   -1.6151    2.8333   15.5205 C   0  0  0  0  0  0  0  0  0  0  0  0
   -2.9923    3.0914   15.5273 C   0  0  0  0  0  0  0  0  0  0  0  0
   -3.5095    2.9120   14.7511 H   0  0  0  0  0  0  0  0  0  0  0  0
   -3.6071    3.6074   16.6602 C   0  0  0  0  0  0  0  0  0  0  0  0
   -4.5429    3.7745   16.6551 H   0  0  0  0  0  0  0  0  0  0  0  0
   -2.8702    3.8777   17.7896 C   0  0  0  0  0  0  0  0  0  0  0  0
   -3.2920    4.2340   18.5624 H   0  0  0  0  0  0  0  0  0  0  0  0
   -1.5122    3.6320   17.7896 C   0  0  0  0  0  0  0  0  0  0  0  0
   -1.0040    3.8040   18.5743 H   0  0  0  0  0  0  0  0  0  0  0  0
   -0.8806    3.1331   16.6568 C   0  0  0  0  0  0  0  0  0  0  0  0
    0.0604    2.9980   16.6619 H   0  0  0  0  0  0  0  0  0  0  0  0
   -1.4024    6.6840   11.4017 C   0  0  0  0  0  0  0  0  0  0  0  0
   -1.9807    6.6914   10.1313 C   0  0  0  0  0  0  0  0  0  0  0  0
   -2.5061    5.9493    9.8511 H   0  0  0  0  0  0  0  0  0  0  0  0
   -1.7950    7.7653    9.2719 C   0  0  0  0  0  0  0  0  0  0  0  0
   -2.2032    7.7604    8.4125 H   0  0  0  0  0  0  0  0  0  0  0  0
   -1.0241    8.8367    9.6574 C   0  0  0  0  0  0  0  0  0  0  0  0
   -0.8969    9.5715    9.0698 H   0  0  0  0  0  0  0  0  0  0  0  0
   -0.4372    8.8367   10.9075 C   0  0  0  0  0  0  0  0  0  0  0  0
    0.0981    9.5715   11.1809 H   0  0  0  0  0  0  0  0  0  0  0  0
   -0.6250    7.7628   11.7652 C   0  0  0  0  0  0  0  0  0  0  0  0
   -0.2113    7.7727   12.6212 H   0  0  0  0  0  0  0  0  0  0  0  0
   -3.5242    5.2293   12.4837 C   0  0  0  0  0  0  0  0  0  0  0  0
   -4.2511    6.4064   12.6501 C   0  0  0  0  0  0  0  0  0  0  0  0
   -3.7951    7.2247   12.8115 H   0  0  0  0  0  0  0  0  0  0  0  0
   -5.6478    6.3892   12.5805 C   0  0  0  0  0  0  0  0  0  0  0  0
   -6.1414    7.1903   12.7231 H   0  0  0  0  0  0  0  0  0  0  0  0
   -6.3078    5.2096   12.3036 C   0  0  0  0  0  0  0  0  0  0  0  0
   -7.2556    5.2023   12.2374 H   0  0  0  0  0  0  0  0  0  0  0  0
   -5.6032    4.0473   12.1236 C   0  0  0  0  0  0  0  0  0  0  0  0
   -6.0642    3.2388   11.9402 H   0  0  0  0  0  0  0  0  0  0  0  0
   -4.2148    4.0522   12.2102 C   0  0  0  0  0  0  0  0  0  0  0  0
   -3.7325    3.2437   12.0794 H   0  0  0  0  0  0  0  0  0  0  0  0
   -1.2024    5.8805   14.1244 C   0  0  0  0  0  0  0  0  0  0  0  0
   -2.0842    6.2196   15.1434 C   0  0  0  0  0  0  0  0  0  0  0  0
   -3.0217    6.1631   14.9957 H   0  0  0  0  0  0  0  0  0  0  0  0
   -1.6032    6.6398   16.3748 C   0  0  0  0  0  0  0  0  0  0  0  0
   -2.2148    6.8290   17.0763 H   0  0  0  0  0  0  0  0  0  0  0  0
   -0.2637    6.7848   16.5905 C   0  0  0  0  0  0  0  0  0  0  0  0
    0.0507    7.1165   17.4228 H   0  0  0  0  0  0  0  0  0  0  0  0
    0.6377    6.4506   15.5935 C   0  0  0  0  0  0  0  0  0  0  0  0
    1.5700    6.5538   15.7413 H   0  0  0  0  0  0  0  0  0  0  0  0
    0.1796    5.9665   14.3825 C   0  0  0  0  0  0  0  0  0  0  0  0
    0.8014    5.6888   13.7201 H   0  0  0  0  0  0  0  0  0  0  0  0
  1  2  2  0  0  0  0
  2  3  1  0  0  0  0
  3  4  1  0  0  0  0
  4  5  2  0  0  0  0
  5  6  1  0  0  0  0
  6  7  1  0  0  0  0
  8  6  1  0  0  0  0
  9  6  1  0  0  0  0
 10  5  1  0  0  0  0
 11 10  1  0  0  0  0
 12 10  1  0  0  0  0
 13 10  1  0  0  0  0
 14  4  1  0  0  0  0
 15 14  2  0  0  0  0
 16 15  1  0  0  0  0
 17 16  1  0  0  0  0
 18 16  1  0  0  0  0
 19 16  1  0  0  0  0
 20 15  1  0  0  0  0
 21 20  1  0  0  0  0
 22 20  1  0  0  0  0
 23 20  1  0  0  0  0
 24  1  8  0  0  0  0
 25  1  8  0  0  0  0
 26 25  1  0  0  0  0
 27  1  8  0  0  0  0
 28 27  1  0  0  0  0
 29  1  8  0  0  0  0
 30 29  1  0  0  0  0
 31  1  8  0  0  0  0
 32 31  1  0  0  0  0
 33  1  1  0  0  0  0
 34 33  3  0  0  0  0
 35  1  1  0  0  0  0
 36 35  3  0  0  0  0
 37  1  1  0  0  0  0
 38 37  1  0  0  0  0
 39 37  1  0  0  0  0
 40 38  1  0  0  0  0
 41 40  4  0  0  0  0
 42 41  1  0  0  0  0
 43 41  4  0  0  0  0
 44 43  1  0  0  0  0
 45 43  4  0  0  0  0
 46 45  1  0  0  0  0
 47 45  4  0  0  0  0
 48 47  1  0  0  0  0
 49 40  4  0  0  0  0
 50 49  1  0  0  0  0
 51 38  1  0  0  0  0
 52 51  4  0  0  0  0
 53 52  1  0  0  0  0
 54 52  4  0  0  0  0
 55 54  1  0  0  0  0
 56 54  4  0  0  0  0
 57 56  1  0  0  0  0
 58 56  4  0  0  0  0
 59 58  1  0  0  0  0
 60 51  4  0  0  0  0
 61 60  1  0  0  0  0
 62 38  1  0  0  0  0
 63 62  4  0  0  0  0
 64 63  1  0  0  0  0
 65 63  4  0  0  0  0
 66 65  1  0  0  0  0
 67 65  4  0  0  0  0
 68 67  1  0  0  0  0
 69 67  4  0  0  0  0
 70 69  1  0  0  0  0
 71 62  4  0  0  0  0
 72 71  1  0  0  0  0
 73 39  1  0  0  0  0
 74 73  4  0  0  0  0
 75 74  1  0  0  0  0
 76 74  4  0  0  0  0
 77 76  1  0  0  0  0
 78 76  4  0  0  0  0
 79 78  1  0  0  0  0
 80 78  4  0  0  0  0
 81 80  1  0  0  0  0
 82 73  4  0  0  0  0
 83 82  1  0  0  0  0
 84 39  1  0  0  0  0
 85 84  4  0  0  0  0
 86 85  1  0  0  0  0
 87 85  4  0  0  0  0
 88 87  1  0  0  0  0
 89 87  4  0  0  0  0
 90 89  1  0  0  0  0
 91 89  4  0  0  0  0
 92 91  1  0  0  0  0
 93 84  4  0  0  0  0
 94 93  1  0  0  0  0
 95 39  1  0  0  0  0
 96 95  4  0  0  0  0
 97 96  1  0  0  0  0
 98 96  4  0  0  0  0
 99 98  1  0  0  0  0
100 98  4  0  0  0  0
101100  1  0  0  0  0
102100  4  0  0  0  0
103102  1  0  0  0  0
104 95  4  0  0  0  0
105104  1  0  0  0  0
  2 37  1  0  0  0  0
 14 24  1  0  0  0  0
 24 25  4  0  0  0  0
 24 31  4  0  0  0  0
 25 27  4  0  0  0  0
 27 29  4  0  0  0  0
 29 31  4  0  0  0  0
 47 49  4  0  0  0  0
 58 60  4  0  0  0  0
 69 71  4  0  0  0  0
 80 82  4  0  0  0  0
 91 93  4  0  0  0  0
102104  4  0  0  0  0
M  END
$$$$
TIVRUL

From CSD data. Using bond type 'Any'. No disordered atoms. Largest molecule.
 47 69  0  0  0  0  0  0  0  0999 V2000
   14.8153   10.9732   -0.0027 Cu  0  0  0  0  0  0  0  0  0  0  0  0
   16.5699   10.1004    1.1618 Cl  0  0  0  0  0  0  0  0  0  0  0  0
   15.0119   10.5734   -2.2055 P   0  0  0  0  0  0  0  0  0  0  0  0
   12.9435    9.7463    0.1847 P   0  0  0  0  0  0  0  0  0  0  0  0
   14.7063   13.1941    0.5329 P   0  0  0  0  0  0  0  0  0  0  0  0
   16.2258    9.8389   -2.8645 O   0  0  0  0  0  0  0  0  0  0  0  0
   14.6413   11.7807   -3.1769 O   0  0  0  0  0  0  0  0  0  0  0  0
   11.4966   10.4273    0.2819 O   0  0  0  0  0  0  0  0  0  0  0  0
   12.8012    8.4920    1.1199 O   0  0  0  0  0  0  0  0  0  0  0  0
   13.6970    9.3300   -2.7026 C   0  0  0  0  0  0  0  0  0  0  0  0
   12.6387    8.9116   -1.4570 C   0  0  0  0  0  0  0  0  0  0  0  0
   17.5696   10.0361   -2.4093 C   0  0  0  0  0  0  0  0  0  0  0  0
   18.4208    8.9682   -2.7998 C   0  0  0  0  0  0  0  0  0  0  0  0
   15.2190   12.3899   -4.1082 C   0  0  0  0  0  0  0  0  0  0  0  0
   15.3186   13.5450   -4.5329 C   0  0  0  0  0  0  0  0  0  0  0  0
   11.0972   11.1803    1.3808 C   0  0  0  0  0  0  0  0  0  0  0  0
   10.2835   10.5592    2.3293 C   0  0  0  0  0  0  0  0  0  0  0  0
   13.6809    8.1619    2.1274 C   0  0  0  0  0  0  0  0  0  0  0  0
   13.5828    7.2465    2.7998 C   0  0  0  0  0  0  0  0  0  0  0  0
   15.9088   14.2162   -0.3543 C   0  0  0  0  0  0  0  0  0  0  0  0
   17.1903   13.7150   -0.5085 C   0  0  0  0  0  0  0  0  0  0  0  0
   18.1806   14.4570   -1.0609 C   0  0  0  0  0  0  0  0  0  0  0  0
   17.9037   15.7167   -1.5675 C   0  0  0  0  0  0  0  0  0  0  0  0
   16.6482   16.2311   -1.4570 C   0  0  0  0  0  0  0  0  0  0  0  0
   15.6473   15.4748   -0.8533 C   0  0  0  0  0  0  0  0  0  0  0  0
   15.0591   13.5700    2.2855 C   0  0  0  0  0  0  0  0  0  0  0  0
   15.5673   14.7894    2.6893 C   0  0  0  0  0  0  0  0  0  0  0  0
   15.7941   15.0161    4.0358 C   0  0  0  0  0  0  0  0  0  0  0  0
   15.5515   14.0789    4.9577 C   0  0  0  0  0  0  0  0  0  0  0  0
   15.0533   12.8694    4.5786 C   0  0  0  0  0  0  0  0  0  0  0  0
   14.8183   12.6002    3.2207 C   0  0  0  0  0  0  0  0  0  0  0  0
   13.0690   13.9798    0.2266 C   0  0  0  0  0  0  0  0  0  0  0  0
   12.4918   13.8076   -1.0171 C   0  0  0  0  0  0  0  0  0  0  0  0
   11.2105   14.2718   -1.2723 C   0  0  0  0  0  0  0  0  0  0  0  0
   10.4835   14.8733   -0.2781 C   0  0  0  0  0  0  0  0  0  0  0  0
   11.0398   15.0618    0.9447 C   0  0  0  0  0  0  0  0  0  0  0  0
   12.3424   14.6281    1.1980 C   0  0  0  0  0  0  0  0  0  0  0  0
   12.0798    9.8934   -2.7483 B   0  0  0  0  0  0  0  0  0  0  0  0
   12.8959    9.2668   -4.1996 B   0  0  0  0  0  0  0  0  0  0  0  0
   13.9822    7.9712   -3.6854 B   0  0  0  0  0  0  0  0  0  0  0  0
   13.8278    7.7924   -1.9560 B   0  0  0  0  0  0  0  0  0  0  0  0
   11.0904    8.5781   -2.0970 B   0  0  0  0  0  0  0  0  0  0  0  0
   11.2623    8.7721   -3.8282 B   0  0  0  0  0  0  0  0  0  0  0  0
   12.4015    7.5789   -4.4072 B   0  0  0  0  0  0  0  0  0  0  0  0
   13.0062    6.6875   -3.0131 B   0  0  0  0  0  0  0  0  0  0  0  0
   12.1779    7.2727   -1.6075 B   0  0  0  0  0  0  0  0  0  0  0  0
   11.3124    7.1811   -3.0931 B   0  0  0  0  0  0  0  0  0  0  0  0
  1  2  1  0  0  0  0
  3  1  1  0  0  0  0
  4  1  1  0  0  0  0
  5  1  1  0  0  0  0
  6  3  1  0  0  0  0
  7  3  1  0  0  0  0
  8  4  1  0  0  0  0
  9  4  1  0  0  0  0
 10  3  1  0  0  0  0
 11  4  1  0  0  0  0
 12  6  1  0  0  0  0
 13 12  1  0  0  0  0
 14  7  1  0  0  0  0
 15 14  1  0  0  0  0
 16  8  1  0  0  0  0
 17 16  1  0  0  0  0
 18  9  1  0  0  0  0
 19 18  1  0  0  0  0
 20  5  1  0  0  0  0
 21 20  4  0  0  0  0
 22 21  4  0  0  0  0
 23 22  4  0  0  0  0
 24 23  4  0  0  0  0
 25 20  4  0  0  0  0
 26  5  1  0  0  0  0
 27 26  4  0  0  0  0
 28 27  4  0  0  0  0
 29 28  4  0  0  0  0
 30 29  4  0  0  0  0
 31 26  4  0  0  0  0
 32  5  1  0  0  0  0
 33 32  4  0  0  0  0
 34 33  4  0  0  0  0
 35 34  4  0  0  0  0
 36 35  4  0  0  0  0
 37 32  4  0  0  0  0
 38 10  1  0  0  0  0
 39 10  1  0  0  0  0
 40 10  1  0  0  0  0
 41 10  1  0  0  0  0
 42 11  1  0  0  0  0
 43 38  1  0  0  0  0
 44 39  1  0  0  0  0
 45 40  1  0  0  0  0
 46 11  1  0  0  0  0
 47 42  1  0  0  0  0
 10 11  1  0  0  0  0
 11 38  1  0  0  0  0
 11 41  1  0  0  0  0
 24 25  4  0  0  0  0
 30 31  4  0  0  0  0
 36 37  4  0  0  0  0
 38 39  1  0  0  0  0
 38 42  1  0  0  0  0
 39 40  1  0  0  0  0
 39 43  1  0  0  0  0
 40 41  1  0  0  0  0
 40 44  1  0  0  0  0
 41 45  1  0  0  0  0
 41 46  1  0  0  0  0
 42 43  1  0  0  0  0
 42 46  1  0  0  0  0
 43 44  1  0  0  0  0
 43 47  1  0  0  0  0
 44 45  1  0  0  0  0
 44 47  1  0  0  0  0
 45 46  1  0  0  0  0
 45 47  1  0  0  0  0
 46 47  1  0  0  0  0
M  END
$$$$
TIVTUO

From CSD data. Using bond type 'Any'. No disordered atoms. Largest molecule.
 97123  0  0  0  0  0  0  0  0999 V2000
   10.0341    5.1831   10.8655 Ru  0  0  0  0  0  0  0  0  0  0  0  0
    8.1339    5.9992   11.9546 P   0  0  0  0  0  0  0  0  0  0  0  0
    9.0254    3.5512    9.5076 P   0  0  0  0  0  0  0  0  0  0  0  0
   10.5354    3.4162   13.2432 O   0  0  0  0  0  0  0  0  0  0  0  0
   10.1601    6.5072    9.0993 N   0  0  0  0  0  0  0  0  0  0  0  0
   10.0618    6.0708    8.3170 H   0  0  0  0  0  0  0  0  0  0  0  0
    9.6030    7.2133    9.1402 H   0  0  0  0  0  0  0  0  0  0  0  0
    8.4852    6.7435   13.6096 C   0  0  0  0  0  0  0  0  0  0  0  0
    7.3795    7.2762   14.2985 C   0  0  0  0  0  0  0  0  0  0  0  0
    6.5295    7.2131   13.9249 H   0  0  0  0  0  0  0  0  0  0  0  0
    7.5460    7.8921   15.5231 C   0  0  0  0  0  0  0  0  0  0  0  0
    6.8090    8.2353   15.9742 H   0  0  0  0  0  0  0  0  0  0  0  0
    8.8045    7.9998   16.0778 C   0  0  0  0  0  0  0  0  0  0  0  0
    8.9179    8.4201   16.8996 H   0  0  0  0  0  0  0  0  0  0  0  0
    9.8970    7.4791   15.4049 C   0  0  0  0  0  0  0  0  0  0  0  0
   10.7467    7.5585   15.7727 H   0  0  0  0  0  0  0  0  0  0  0  0
    9.7320    6.8384   14.1832 C   0  0  0  0  0  0  0  0  0  0  0  0
   10.4683    6.4704   13.7512 H   0  0  0  0  0  0  0  0  0  0  0  0
    6.8455    4.7753   12.4083 C   0  0  0  0  0  0  0  0  0  0  0  0
    7.4062    7.4401   11.0990 C   0  0  0  0  0  0  0  0  0  0  0  0
    8.2974    8.4647   10.7823 C   0  0  0  0  0  0  0  0  0  0  0  0
    9.1811    8.4030   11.0611 H   0  0  0  0  0  0  0  0  0  0  0  0
    7.8911    9.5638   10.0641 C   0  0  0  0  0  0  0  0  0  0  0  0
    8.5059   10.2272    9.8467 H   0  0  0  0  0  0  0  0  0  0  0  0
    6.5846    9.6875    9.6700 C   0  0  0  0  0  0  0  0  0  0  0  0
    6.3170   10.4219    9.1665 H   0  0  0  0  0  0  0  0  0  0  0  0
    5.6736    8.7219   10.0218 C   0  0  0  0  0  0  0  0  0  0  0  0
    4.7795    8.8200    9.7868 H   0  0  0  0  0  0  0  0  0  0  0  0
    6.0835    7.6046   10.7268 C   0  0  0  0  0  0  0  0  0  0  0  0
    5.4597    6.9535   10.9545 H   0  0  0  0  0  0  0  0  0  0  0  0
    7.0556    4.0501   13.5950 C   0  0  0  0  0  0  0  0  0  0  0  0
    7.7840    4.2489   14.1380 H   0  0  0  0  0  0  0  0  0  0  0  0
    5.7491    4.4479   11.6099 C   0  0  0  0  0  0  0  0  0  0  0  0
    5.6118    4.8920   10.8056 H   0  0  0  0  0  0  0  0  0  0  0  0
    4.8615    3.4582   12.0171 C   0  0  0  0  0  0  0  0  0  0  0  0
    4.1131    3.2726   11.4975 H   0  0  0  0  0  0  0  0  0  0  0  0
    5.0740    2.7472   13.1775 C   0  0  0  0  0  0  0  0  0  0  0  0
    4.4819    2.0771   13.4344 H   0  0  0  0  0  0  0  0  0  0  0  0
    6.1776    3.0409   13.9570 C   0  0  0  0  0  0  0  0  0  0  0  0
    6.3337    2.5553   14.7349 H   0  0  0  0  0  0  0  0  0  0  0  0
    7.3549    3.8954    8.8629 C   0  0  0  0  0  0  0  0  0  0  0  0
    7.0255    5.1878    8.4527 C   0  0  0  0  0  0  0  0  0  0  0  0
    7.6625    5.8643    8.5155 H   0  0  0  0  0  0  0  0  0  0  0  0
    5.7671    5.4791    7.9550 C   0  0  0  0  0  0  0  0  0  0  0  0
    5.5655    6.3397    7.6674 H   0  0  0  0  0  0  0  0  0  0  0  0
    4.8105    4.4791    7.8893 C   0  0  0  0  0  0  0  0  0  0  0  0
    3.9556    4.6768    7.5813 H   0  0  0  0  0  0  0  0  0  0  0  0
    5.1206    3.1847    8.2790 C   0  0  0  0  0  0  0  0  0  0  0  0
    4.4808    2.5143    8.2133 H   0  0  0  0  0  0  0  0  0  0  0  0
    6.3858    2.8903    8.7665 C   0  0  0  0  0  0  0  0  0  0  0  0
    6.5907    2.0235    9.0322 H   0  0  0  0  0  0  0  0  0  0  0  0
   10.0474    3.3953    7.9929 C   0  0  0  0  0  0  0  0  0  0  0  0
    9.6209    3.8759    6.7581 C   0  0  0  0  0  0  0  0  0  0  0  0
    8.7927    4.2915    6.6822 H   0  0  0  0  0  0  0  0  0  0  0  0
   10.4319    3.7341    5.6429 C   0  0  0  0  0  0  0  0  0  0  0  0
   10.1407    4.0525    4.8182 H   0  0  0  0  0  0  0  0  0  0  0  0
   11.6601    3.1254    5.7407 C   0  0  0  0  0  0  0  0  0  0  0  0
   12.1935    3.0313    4.9861 H   0  0  0  0  0  0  0  0  0  0  0  0
   12.1053    2.6496    6.9726 C   0  0  0  0  0  0  0  0  0  0  0  0
   12.9354    2.2366    7.0398 H   0  0  0  0  0  0  0  0  0  0  0  0
   11.3119    2.7917    8.0893 C   0  0  0  0  0  0  0  0  0  0  0  0
   11.6150    2.4850    8.9125 H   0  0  0  0  0  0  0  0  0  0  0  0
    8.9041    1.8406   10.1138 C   0  0  0  0  0  0  0  0  0  0  0  0
    9.1890    0.7471    9.2978 C   0  0  0  0  0  0  0  0  0  0  0  0
    9.4933    0.8910    8.4308 H   0  0  0  0  0  0  0  0  0  0  0  0
    9.0308   -0.5458    9.7605 C   0  0  0  0  0  0  0  0  0  0  0  0
    9.2345   -1.2638    9.2059 H   0  0  0  0  0  0  0  0  0  0  0  0
    8.5744   -0.7763   11.0290 C   0  0  0  0  0  0  0  0  0  0  0  0
    8.4564   -1.6472   11.3340 H   0  0  0  0  0  0  0  0  0  0  0  0
    8.2879    0.3010   11.8595 C   0  0  0  0  0  0  0  0  0  0  0  0
    7.9824    0.1489   12.7250 H   0  0  0  0  0  0  0  0  0  0  0  0
    8.4529    1.5906   11.4085 C   0  0  0  0  0  0  0  0  0  0  0  0
    8.2617    2.3038   11.9748 H   0  0  0  0  0  0  0  0  0  0  0  0
   10.3166    4.0689   12.3412 C   0  0  0  0  0  0  0  0  0  0  0  0
   13.0315    6.0898    8.6892 B   0  0  0  0  0  0  0  0  0  0  0  0
   12.9745    5.5413    7.7360 H   0  0  0  0  0  0  0  0  0  0  0  0
   12.8932    7.8826    8.7651 B   0  0  0  0  0  0  0  0  0  0  0  0
   12.7616    8.4919    7.8586 H   0  0  0  0  0  0  0  0  0  0  0  0
   14.4380    7.0774    9.1621 B   0  0  0  0  0  0  0  0  0  0  0  0
   15.3130    7.1770    8.5023 H   0  0  0  0  0  0  0  0  0  0  0  0
   13.8647    8.4409   10.1561 B   0  0  0  0  0  0  0  0  0  0  0  0
   14.3629    9.4224   10.1415 H   0  0  0  0  0  0  0  0  0  0  0  0
   14.6096    7.0053   10.9385 B   0  0  0  0  0  0  0  0  0  0  0  0
   15.5924    7.0625   11.4289 H   0  0  0  0  0  0  0  0  0  0  0  0
   14.1138    5.5486   10.0320 B   0  0  0  0  0  0  0  0  0  0  0  0
   14.7567    4.6613    9.9328 H   0  0  0  0  0  0  0  0  0  0  0  0
   12.0982    8.2964   10.3196 B   0  0  0  0  0  0  0  0  0  0  0  0
   11.4360    9.1702   10.4174 H   0  0  0  0  0  0  0  0  0  0  0  0
   13.1737    7.7684   11.6697 B   0  0  0  0  0  0  0  0  0  0  0  0
   13.2102    8.3107   12.6258 H   0  0  0  0  0  0  0  0  0  0  0  0
   13.3359    5.9769   11.5938 B   0  0  0  0  0  0  0  0  0  0  0  0
   13.4731    5.3644   12.4973 H   0  0  0  0  0  0  0  0  0  0  0  0
   11.6206    6.8586    9.4234 B   0  0  0  0  0  0  0  0  0  0  0  0
   11.8247    6.7783   11.1735 B   0  0  0  0  0  0  0  0  0  0  0  0
   10.9560    6.6676   11.8390 H   0  0  0  0  0  0  0  0  0  0  0  0
   12.3668    5.4691   10.2028 B   0  0  0  0  0  0  0  0  0  0  0  0
   11.8537    4.4966   10.2232 H   0  0  0  0  0  0  0  0  0  0  0  0
  1  2  1  0  0  0  0
  2  8  1  0  0  0  0
  3  1  1  0  0  0  0
  4 74  3  0  0  0  0
  5  1  1  0  0  0  0
  6  5  1  0  0  0  0
  7  5  1  0  0  0  0
  8  9  4  0  0  0  0
  9 10  1  0  0  0  0
 11  9  4  0  0  0  0
 12 11  1  0  0  0  0
 13 11  4  0  0  0  0
 14 13  1  0  0  0  0
 15 13  4  0  0  0  0
 16 15  1  0  0  0  0
 17  8  4  0  0  0  0
 18 17  1  0  0  0  0
 19  2  1  0  0  0  0
 20  2  1  0  0  0  0
 21 20  4  0  0  0  0
 22 21  1  0  0  0  0
 23 21  4  0  0  0  0
 24 23  1  0  0  0  0
 25 23  4  0  0  0  0
 26 25  1  0  0  0  0
 27 25  4  0  0  0  0
 28 27  1  0  0  0  0
 29 20  4  0  0  0  0
 30 29  1  0  0  0  0
 31 19  4  0  0  0  0
 32 31  1  0  0  0  0
 33 19  4  0  0  0  0
 34 33  1  0  0  0  0
 35 33  4  0  0  0  0
 36 35  1  0  0  0  0
 37 35  4  0  0  0  0
 38 37  1  0  0  0  0
 39 31  4  0  0  0  0
 40 39  1  0  0  0  0
 41  3  1  0  0  0  0
 42 41  4  0  0  0  0
 43 42  1  0  0  0  0
 44 42  4  0  0  0  0
 45 44  1  0  0  0  0
 46 44  4  0  0  0  0
 47 46  1  0  0  0  0
 48 46  4  0  0  0  0
 49 48  1  0  0  0  0
 50 41  4  0  0  0  0
 51 50  1  0  0  0  0
 52  3  1  0  0  0  0
 53 52  4  0  0  0  0
 54 53  1  0  0  0  0
 55 53  4  0  0  0  0
 56 55  1  0  0  0  0
 57 55  4  0  0  0  0
 58 57  1  0  0  0  0
 59 57  4  0  0  0  0
 60 59  1  0  0  0  0
 61 52  4  0  0  0  0
 62 61  1  0  0  0  0
 63  3  1  0  0  0  0
 64 63  4  0  0  0  0
 65 64  1  0  0  0  0
 66 64  4  0  0  0  0
 67 66  1  0  0  0  0
 68 66  4  0  0  0  0
 69 68  1  0  0  0  0
 70 68  4  0  0  0  0
 71 70  1  0  0  0  0
 72 63  4  0  0  0  0
 73 72  1  0  0  0  0
 74  1  1  0  0  0  0
 75 76  1  0  0  0  0
 77 75  1  0  0  0  0
 78 77  1  0  0  0  0
 79 75  1  0  0  0  0
 80 79  1  0  0  0  0
 81 77  1  0  0  0  0
 82 81  1  0  0  0  0
 83 79  1  0  0  0  0
 84 83  1  0  0  0  0
 85 75  1  0  0  0  0
 86 85  1  0  0  0  0
 87 77  1  0  0  0  0
 88 87  1  0  0  0  0
 89 81  1  0  0  0  0
 90 89  1  0  0  0  0
 91 83  1  0  0  0  0
 92 91  1  0  0  0  0
 93  5  1  0  0  0  0
 94 87  1  0  0  0  0
 95  1  1  0  0  0  0
 96 75  1  0  0  0  0
 97  1  1  0  0  0  0
 15 17  4  0  0  0  0
 27 29  4  0  0  0  0
 37 39  4  0  0  0  0
 48 50  4  0  0  0  0
 59 61  4  0  0  0  0
 70 72  4  0  0  0  0
 75 93  1  0  0  0  0
 77 79  1  0  0  0  0
 77 93  1  0  0  0  0
 79 81  1  0  0  0  0
 79 85  1  0  0  0  0
 81 83  1  0  0  0  0
 81 87  1  0  0  0  0
 83 85  1  0  0  0  0
 83 89  1  0  0  0  0
 85 91  1  0  0  0  0
 85 96  1  0  0  0  0
 87 89  1  0  0  0  0
 87 93  1  0  0  0  0
 89 91  1  0  0  0  0
 89 94  1  0  0  0  0
 91 94  1  0  0  0  0
 91 96  1  0  0  0  0
 93 94  1  0  0  0  0
 93 96  1  0  0  0  0
 94 95  1  0  0  0  0
 94 96  1  0  0  0  0
 96 97  1  0  0  0  0
M  END
$$$$
TOHTUF

From CSD data. Using bond type 'Any'. No disordered atoms. Largest molecule.
 88116  0  0  0  0  0  0  0  0999 V2000
    2.5152    7.6228   17.1081 Ir  0  0  0  0  0  0  0  0  0  0  0  0
    5.9367    7.1895   13.1297 Ir  0  0  0  0  0  0  0  0  0  0  0  0
    4.2721    7.2103   18.6402 P   0  0  0  0  0  0  0  0  0  0  0  0
    1.4951    5.5275   17.4825 P   0  0  0  0  0  0  0  0  0  0  0  0
    6.7873    9.0577   12.0294 P   0  0  0  0  0  0  0  0  0  0  0  0
    7.4207    5.5513   12.2591 P   0  0  0  0  0  0  0  0  0  0  0  0
    0.8770    8.9731   19.2925 O   0  0  0  0  0  0  0  0  0  0  0  0
    7.7414    7.5634   15.5392 O   0  0  0  0  0  0  0  0  0  0  0  0
    3.3962    7.1108   15.1625 B   0  0  0  0  0  0  0  0  0  0  0  0
    2.6644    7.8038   13.7246 B   0  0  0  0  0  0  0  0  0  0  0  0
    1.5296    7.5783   15.1212 B   0  0  0  0  0  0  0  0  0  0  0  0
    4.2772    8.4567   15.9435 B   0  0  0  0  0  0  0  0  0  0  0  0
    4.3198    8.3217   14.1932 B   0  0  0  0  0  0  0  0  0  0  0  0
    1.4474    9.0280   14.1174 B   0  0  0  0  0  0  0  0  0  0  0  0
    1.3936    9.1779   15.8815 B   0  0  0  0  0  0  0  0  0  0  0  0
    3.0886    9.7596   16.3845 B   0  0  0  0  0  0  0  0  0  0  0  0
    4.0813    9.8917   14.9236 B   0  0  0  0  0  0  0  0  0  0  0  0
    3.0897    9.4599   13.5224 B   0  0  0  0  0  0  0  0  0  0  0  0
    2.3507   10.2938   14.8731 B   0  0  0  0  0  0  0  0  0  0  0  0
    3.0105    5.9786   13.7935 B   0  0  0  0  0  0  0  0  0  0  0  0
    4.3026    5.7086   12.6748 B   0  0  0  0  0  0  0  0  0  0  0  0
    4.6132    5.9000   14.3631 B   0  0  0  0  0  0  0  0  0  0  0  0
    4.5228    6.9803   11.5378 B   0  0  0  0  0  0  0  0  0  0  0  0
    2.9039    6.7443   12.1856 B   0  0  0  0  0  0  0  0  0  0  0  0
    1.5235    8.4375   18.4817 C   0  0  0  0  0  0  0  0  0  0  0  0
    7.0492    7.4091   14.6663 C   0  0  0  0  0  0  0  0  0  0  0  0
    5.6393    6.1567   18.1256 C   0  0  0  0  0  0  0  0  0  0  0  0
    5.0801    8.7446   19.2351 C   0  0  0  0  0  0  0  0  0  0  0  0
    3.8316    6.4876   20.2687 C   0  0  0  0  0  0  0  0  0  0  0  0
    0.7917    5.3391   19.1386 C   0  0  0  0  0  0  0  0  0  0  0  0
    2.6014    4.0659   17.3469 C   0  0  0  0  0  0  0  0  0  0  0  0
    0.0903    4.9651   16.4948 C   0  0  0  0  0  0  0  0  0  0  0  0
    7.6957   10.1692   13.1274 C   0  0  0  0  0  0  0  0  0  0  0  0
    5.6546   10.2404   11.2806 C   0  0  0  0  0  0  0  0  0  0  0  0
    7.9586    8.8084   10.6696 C   0  0  0  0  0  0  0  0  0  0  0  0
    7.1659    5.0423   10.5639 C   0  0  0  0  0  0  0  0  0  0  0  0
    9.1918    5.8629   12.3165 C   0  0  0  0  0  0  0  0  0  0  0  0
    7.3476    3.9887   13.1963 C   0  0  0  0  0  0  0  0  0  0  0  0
    0.6902    6.8675   15.1189 H   0  0  0  0  0  0  0  0  0  0  0  0
    5.2019    8.3039   16.5200 H   0  0  0  0  0  0  0  0  0  0  0  0
    0.5511    9.2180   13.5087 H   0  0  0  0  0  0  0  0  0  0  0  0
    0.4821    9.5029   16.4052 H   0  0  0  0  0  0  0  0  0  0  0  0
    3.2490   10.4556   17.2206 H   0  0  0  0  0  0  0  0  0  0  0  0
    4.8669   10.6589   14.8524 H   0  0  0  0  0  0  0  0  0  0  0  0
    3.2297    9.9199   12.5324 H   0  0  0  0  0  0  0  0  0  0  0  0
    2.0178   11.3370   14.7674 H   0  0  0  0  0  0  0  0  0  0  0  0
    2.2878    5.1788   14.0117 H   0  0  0  0  0  0  0  0  0  0  0  0
    4.5198    4.7084   12.2752 H   0  0  0  0  0  0  0  0  0  0  0  0
    4.8314    5.0601   14.9512 H   0  0  0  0  0  0  0  0  0  0  0  0
    5.0547    6.7369   10.3043 H   0  0  0  0  0  0  0  0  0  0  0  0
    2.1620    6.6167   11.7928 H   0  0  0  0  0  0  0  0  0  0  0  0
    3.6439    7.5085   11.6274 H   0  0  0  0  0  0  0  0  0  0  0  0
    5.2942    5.3227   17.7972 H   0  0  0  0  0  0  0  0  0  0  0  0
    6.2159    5.9920   18.8744 H   0  0  0  0  0  0  0  0  0  0  0  0
    6.1347    6.5945   17.4296 H   0  0  0  0  0  0  0  0  0  0  0  0
    4.4102    9.3649   19.5314 H   0  0  0  0  0  0  0  0  0  0  0  0
    5.5866    9.1379   18.5184 H   0  0  0  0  0  0  0  0  0  0  0  0
    5.6678    8.5354   19.9655 H   0  0  0  0  0  0  0  0  0  0  0  0
    3.0988    6.9773   20.6477 H   0  0  0  0  0  0  0  0  0  0  0  0
    4.5888    6.5366   20.8568 H   0  0  0  0  0  0  0  0  0  0  0  0
    3.5779    5.5691   20.1516 H   0  0  0  0  0  0  0  0  0  0  0  0
    1.4403    5.6077   19.7955 H   0  0  0  0  0  0  0  0  0  0  0  0
    0.5522    4.4205   19.2833 H   0  0  0  0  0  0  0  0  0  0  0  0
    0.0091    5.8896   19.2190 H   0  0  0  0  0  0  0  0  0  0  0  0
    3.4104    4.2291   17.8385 H   0  0  0  0  0  0  0  0  0  0  0  0
    2.8146    3.9101   16.4236 H   0  0  0  0  0  0  0  0  0  0  0  0
    2.1589    3.2943   17.7076 H   0  0  0  0  0  0  0  0  0  0  0  0
    0.3167    5.0082   15.5622 H   0  0  0  0  0  0  0  0  0  0  0  0
   -0.6679    5.5275   16.6670 H   0  0  0  0  0  0  0  0  0  0  0  0
   -0.1248    4.0585   16.7313 H   0  0  0  0  0  0  0  0  0  0  0  0
    8.3575    9.6706   13.6120 H   0  0  0  0  0  0  0  0  0  0  0  0
    7.0857   10.5772   13.7475 H   0  0  0  0  0  0  0  0  0  0  0  0
    8.1271   10.8518   12.6059 H   0  0  0  0  0  0  0  0  0  0  0  0
    5.0872    9.7878   10.6512 H   0  0  0  0  0  0  0  0  0  0  0  0
    6.1570   10.9200   10.8235 H   0  0  0  0  0  0  0  0  0  0  0  0
    5.1156   10.6455   11.9628 H   0  0  0  0  0  0  0  0  0  0  0  0
    8.6346    8.1837   10.9406 H   0  0  0  0  0  0  0  0  0  0  0  0
    8.3697    9.6468   10.4445 H   0  0  0  0  0  0  0  0  0  0  0  0
    7.4917    8.4642    9.9047 H   0  0  0  0  0  0  0  0  0  0  0  0
    6.2362    4.8479   10.4238 H   0  0  0  0  0  0  0  0  0  0  0  0
    7.6876    4.2558   10.3847 H   0  0  0  0  0  0  0  0  0  0  0  0
    7.4389    5.7486    9.9736 H   0  0  0  0  0  0  0  0  0  0  0  0
    9.4385    6.1478   13.2009 H   0  0  0  0  0  0  0  0  0  0  0  0
    9.4162    6.5499   11.6848 H   0  0  0  0  0  0  0  0  0  0  0  0
    9.6648    5.0571   12.0960 H   0  0  0  0  0  0  0  0  0  0  0  0
    7.4755    4.1683   14.1311 H   0  0  0  0  0  0  0  0  0  0  0  0
    8.0368    3.3981   12.8862 H   0  0  0  0  0  0  0  0  0  0  0  0
    6.4899    3.5777   13.0653 H   0  0  0  0  0  0  0  0  0  0  0  0
  1  3  1  0  0  0  0
  2  5  1  0  0  0  0
  3 27  1  0  0  0  0
  4  1  1  0  0  0  0
  5 33  1  0  0  0  0
  6  2  1  0  0  0  0
  7 25  3  0  0  0  0
  8 26  3  0  0  0  0
  9  1  1  0  0  0  0
 10  9  1  0  0  0  0
 11  1  1  0  0  0  0
 12  1  1  0  0  0  0
 13  2  1  0  0  0  0
 14 10  1  0  0  0  0
 15  1  1  0  0  0  0
 16  1  1  0  0  0  0
 17 12  1  0  0  0  0
 18 10  1  0  0  0  0
 19 14  1  0  0  0  0
 20  9  1  0  0  0  0
 21  2  1  0  0  0  0
 22  2  1  0  0  0  0
 23  2  1  0  0  0  0
 24 10  1  0  0  0  0
 25  1  1  0  0  0  0
 26  2  1  0  0  0  0
 27 53  1  0  0  0  0
 28  3  1  0  0  0  0
 29  3  1  0  0  0  0
 30  4  1  0  0  0  0
 31  4  1  0  0  0  0
 32  4  1  0  0  0  0
 33 71  1  0  0  0  0
 34  5  1  0  0  0  0
 35  5  1  0  0  0  0
 36  6  1  0  0  0  0
 37  6  1  0  0  0  0
 38  6  1  0  0  0  0
 39 11  1  0  0  0  0
 40 12  1  0  0  0  0
 41 14  1  0  0  0  0
 42 15  1  0  0  0  0
 43 16  1  0  0  0  0
 44 17  1  0  0  0  0
 45 18  1  0  0  0  0
 46 19  1  0  0  0  0
 47 20  1  0  0  0  0
 48 21  1  0  0  0  0
 49 22  1  0  0  0  0
 50 23  1  0  0  0  0
 51 24  1  0  0  0  0
 52 23  1  0  0  0  0
 54 27  1  0  0  0  0
 55 27  1  0  0  0  0
 56 28  1  0  0  0  0
 57 28  1  0  0  0  0
 58 28  1  0  0  0  0
 59 29  1  0  0  0  0
 60 29  1  0  0  0  0
 61 29  1  0  0  0  0
 62 30  1  0  0  0  0
 63 30  1  0  0  0  0
 64 30  1  0  0  0  0
 65 31  1  0  0  0  0
 66 31  1  0  0  0  0
 67 31  1  0  0  0  0
 68 32  1  0  0  0  0
 69 32  1  0  0  0  0
 70 32  1  0  0  0  0
 72 33  1  0  0  0  0
 73 33  1  0  0  0  0
 74 34  1  0  0  0  0
 75 34  1  0  0  0  0
 76 34  1  0  0  0  0
 77 35  1  0  0  0  0
 78 35  1  0  0  0  0
 79 35  1  0  0  0  0
 80 36  1  0  0  0  0
 81 36  1  0  0  0  0
 82 36  1  0  0  0  0
 83 37  1  0  0  0  0
 84 37  1  0  0  0  0
 85 37  1  0  0  0  0
 86 38  1  0  0  0  0
 87 38  1  0  0  0  0
 88 38  1  0  0  0  0
  9 11  1  0  0  0  0
  9 12  1  0  0  0  0
  9 13  1  0  0  0  0
  9 22  1  0  0  0  0
 10 11  1  0  0  0  0
 10 13  1  0  0  0  0
 10 20  1  0  0  0  0
 11 14  1  0  0  0  0
 11 15  1  0  0  0  0
 12 13  1  0  0  0  0
 12 16  1  0  0  0  0
 13 17  1  0  0  0  0
 13 18  1  0  0  0  0
 14 15  1  0  0  0  0
 14 18  1  0  0  0  0
 15 16  1  0  0  0  0
 15 19  1  0  0  0  0
 16 17  1  0  0  0  0
 16 19  1  0  0  0  0
 17 18  1  0  0  0  0
 17 19  1  0  0  0  0
 18 19  1  0  0  0  0
 20 21  1  0  0  0  0
 20 22  1  0  0  0  0
 20 24  1  0  0  0  0
 21 22  1  0  0  0  0
 21 23  1  0  0  0  0
 21 24  1  0  0  0  0
 23 24  1  0  0  0  0
 24 52  1  0  0  0  0
M  END
$$$$
TOKLUC

From CSD data. Using bond type 'Any'. No disordered atoms. Largest molecule.
112117  0  0  0  0  0  0  0  0999 V2000
    9.1592    9.1842   19.9295 Ir  0  0  0  0  0  0  0  0  0  0  0  0
    8.6503   10.2043   21.9480 P   0  0  0  0  0  0  0  0  0  0  0  0
   10.0746    8.8066   17.8229 P   0  0  0  0  0  0  0  0  0  0  0  0
    9.1312    6.5169   21.5703 O   0  0  0  0  0  0  0  0  0  0  0  0
    9.9286    6.3280   19.4649 O   0  0  0  0  0  0  0  0  0  0  0  0
    6.3802    8.4528   20.8086 O   0  0  0  0  0  0  0  0  0  0  0  0
    6.8337    7.5003   18.8124 O   0  0  0  0  0  0  0  0  0  0  0  0
   10.1099   11.0099   19.6438 N   0  0  0  0  0  0  0  0  0  0  0  0
   10.5510   11.7368   20.7594 C   0  0  0  0  0  0  0  0  0  0  0  0
    9.9605   11.4731   21.9994 C   0  0  0  0  0  0  0  0  0  0  0  0
    7.0934   11.2201   21.9659 C   0  0  0  0  0  0  0  0  0  0  0  0
    6.3277   10.5859   22.0698 H   0  0  0  0  0  0  0  0  0  0  0  0
    7.0180   12.2166   23.1251 C   0  0  0  0  0  0  0  0  0  0  0  0
    7.7905   12.8176   23.0901 H   0  0  0  0  0  0  0  0  0  0  0  0
    7.0201   11.7296   23.9753 H   0  0  0  0  0  0  0  0  0  0  0  0
    6.1928   12.7415   23.0505 H   0  0  0  0  0  0  0  0  0  0  0  0
    6.9162   11.9232   20.6369 C   0  0  0  0  0  0  0  0  0  0  0  0
    6.0795   12.4327   20.6465 H   0  0  0  0  0  0  0  0  0  0  0  0
    6.8860   11.2593   19.9173 H   0  0  0  0  0  0  0  0  0  0  0  0
    7.6682   12.5337   20.4881 H   0  0  0  0  0  0  0  0  0  0  0  0
    8.7280    9.4208   23.6066 C   0  0  0  0  0  0  0  0  0  0  0  0
    8.6336   10.1476   24.2852 H   0  0  0  0  0  0  0  0  0  0  0  0
    7.5829    8.4195   23.8416 C   0  0  0  0  0  0  0  0  0  0  0  0
    7.6326    7.7045   23.1717 H   0  0  0  0  0  0  0  0  0  0  0  0
    6.7232    8.8827   23.7633 H   0  0  0  0  0  0  0  0  0  0  0  0
    7.6651    8.0335   24.7394 H   0  0  0  0  0  0  0  0  0  0  0  0
   10.0839    8.7652   23.8258 C   0  0  0  0  0  0  0  0  0  0  0  0
   10.1287    8.4029   24.7348 H   0  0  0  0  0  0  0  0  0  0  0  0
   10.7923    9.4326   23.7051 H   0  0  0  0  0  0  0  0  0  0  0  0
   10.2055    8.0395   23.1786 H   0  0  0  0  0  0  0  0  0  0  0  0
   10.3929   12.1334   23.1514 C   0  0  0  0  0  0  0  0  0  0  0  0
    9.9614   11.9505   23.9777 H   0  0  0  0  0  0  0  0  0  0  0  0
   11.4404   13.0503   23.1220 C   0  0  0  0  0  0  0  0  0  0  0  0
   12.0476   13.2653   21.8981 C   0  0  0  0  0  0  0  0  0  0  0  0
   12.7789   13.8710   21.8508 H   0  0  0  0  0  0  0  0  0  0  0  0
   11.6298   12.6287   20.7354 C   0  0  0  0  0  0  0  0  0  0  0  0
   12.0802   12.8009   19.9173 H   0  0  0  0  0  0  0  0  0  0  0  0
   11.9203   13.7499   24.3762 C   0  0  0  0  0  0  0  0  0  0  0  0
   12.8321   13.4565   24.5857 H   0  0  0  0  0  0  0  0  0  0  0  0
   11.3257   13.5266   25.1215 H   0  0  0  0  0  0  0  0  0  0  0  0
   11.9149   14.7190   24.2316 H   0  0  0  0  0  0  0  0  0  0  0  0
   10.3454   11.4755   18.3409 C   0  0  0  0  0  0  0  0  0  0  0  0
   10.4538   12.8223   17.9950 C   0  0  0  0  0  0  0  0  0  0  0  0
   10.3583   13.4850   18.6687 H   0  0  0  0  0  0  0  0  0  0  0  0
   10.6951   13.2071   16.6889 C   0  0  0  0  0  0  0  0  0  0  0  0
   10.7727   14.1323   16.4860 H   0  0  0  0  0  0  0  0  0  0  0  0
   10.8300   12.2724   15.6629 C   0  0  0  0  0  0  0  0  0  0  0  0
   10.6397   10.9386   15.9951 C   0  0  0  0  0  0  0  0  0  0  0  0
   10.6836   10.2830   15.3072 H   0  0  0  0  0  0  0  0  0  0  0  0
   10.3829   10.5253   17.3041 C   0  0  0  0  0  0  0  0  0  0  0  0
    9.2968    8.0407   16.3317 C   0  0  0  0  0  0  0  0  0  0  0  0
    9.9222    8.1939   15.5658 H   0  0  0  0  0  0  0  0  0  0  0  0
    7.9860    8.7295   15.9784 C   0  0  0  0  0  0  0  0  0  0  0  0
    7.5931    8.2996   15.1907 H   0  0  0  0  0  0  0  0  0  0  0  0
    8.1550    9.6749   15.7848 H   0  0  0  0  0  0  0  0  0  0  0  0
    7.3647    8.6571   16.7329 H   0  0  0  0  0  0  0  0  0  0  0  0
    9.1062    6.5264   16.4524 C   0  0  0  0  0  0  0  0  0  0  0  0
    8.4801    6.3340   17.1801 H   0  0  0  0  0  0  0  0  0  0  0  0
    9.9686    6.1024   16.6420 H   0  0  0  0  0  0  0  0  0  0  0  0
    8.7473    6.1748   15.6124 H   0  0  0  0  0  0  0  0  0  0  0  0
   11.7745    8.0644   17.8820 C   0  0  0  0  0  0  0  0  0  0  0  0
   11.6700    7.0893   18.0817 H   0  0  0  0  0  0  0  0  0  0  0  0
   12.5638    8.6880   19.0389 C   0  0  0  0  0  0  0  0  0  0  0  0
   13.4412    8.2568   19.1067 H   0  0  0  0  0  0  0  0  0  0  0  0
   12.0707    8.5585   19.8754 H   0  0  0  0  0  0  0  0  0  0  0  0
   12.6815    9.6464   18.8737 H   0  0  0  0  0  0  0  0  0  0  0  0
   12.5704    8.1844   16.5866 C   0  0  0  0  0  0  0  0  0  0  0  0
   12.6836    9.1321   16.3602 H   0  0  0  0  0  0  0  0  0  0  0  0
   12.0878    7.7319   15.8640 H   0  0  0  0  0  0  0  0  0  0  0  0
   13.4491    7.7687   16.7026 H   0  0  0  0  0  0  0  0  0  0  0  0
   11.1619   12.6703   14.2524 C   0  0  0  0  0  0  0  0  0  0  0  0
   12.1116   12.5016   14.0796 H   0  0  0  0  0  0  0  0  0  0  0  0
   10.9728   13.6240   14.1285 H   0  0  0  0  0  0  0  0  0  0  0  0
   10.6182   12.1465   13.6276 H   0  0  0  0  0  0  0  0  0  0  0  0
    9.8626    5.2460   21.5193 C   0  0  0  0  0  0  0  0  0  0  0  0
    9.9938    4.9930   20.0107 C   0  0  0  0  0  0  0  0  0  0  0  0
   11.2866    4.3576   19.5528 C   0  0  0  0  0  0  0  0  0  0  0  0
   11.2616    4.2294   18.5825 H   0  0  0  0  0  0  0  0  0  0  0  0
   11.3989    3.4906   19.9942 H   0  0  0  0  0  0  0  0  0  0  0  0
   12.0388    4.9420   19.7845 H   0  0  0  0  0  0  0  0  0  0  0  0
    8.7984    4.2080   19.4398 C   0  0  0  0  0  0  0  0  0  0  0  0
    7.9625    4.6177   19.7473 H   0  0  0  0  0  0  0  0  0  0  0  0
    8.8406    3.2792   19.7473 H   0  0  0  0  0  0  0  0  0  0  0  0
    8.8301    4.2294   18.4614 H   0  0  0  0  0  0  0  0  0  0  0  0
   11.2204    5.4693   22.1795 C   0  0  0  0  0  0  0  0  0  0  0  0
   11.7460    6.0976   21.6412 H   0  0  0  0  0  0  0  0  0  0  0  0
   11.6971    4.6154   22.2422 H   0  0  0  0  0  0  0  0  0  0  0  0
   11.0890    5.8375   23.0785 H   0  0  0  0  0  0  0  0  0  0  0  0
    9.0674    4.2127   22.3037 C   0  0  0  0  0  0  0  0  0  0  0  0
    9.0508    4.4633   23.2509 H   0  0  0  0  0  0  0  0  0  0  0  0
    9.4905    3.3327   22.2049 H   0  0  0  0  0  0  0  0  0  0  0  0
    8.1507    4.1759   21.9603 H   0  0  0  0  0  0  0  0  0  0  0  0
    5.1884    7.7200   20.4273 C   0  0  0  0  0  0  0  0  0  0  0  0
    5.3073    6.2888   21.1683 C   0  0  0  0  0  0  0  0  0  0  0  0
    5.9551    5.7282   20.6954 H   0  0  0  0  0  0  0  0  0  0  0  0
    4.4322    5.8470   21.1683 H   0  0  0  0  0  0  0  0  0  0  0  0
    5.6048    6.4230   22.0931 H   0  0  0  0  0  0  0  0  0  0  0  0
    4.0086    8.3898   20.9516 C   0  0  0  0  0  0  0  0  0  0  0  0
    4.0833    8.4682   21.9254 H   0  0  0  0  0  0  0  0  0  0  0  0
    3.2102    7.8684   20.7280 H   0  0  0  0  0  0  0  0  0  0  0  0
    3.9370    9.2842   20.5579 H   0  0  0  0  0  0  0  0  0  0  0  0
    5.3909    7.4706   18.9622 C   0  0  0  0  0  0  0  0  0  0  0  0
    4.8646    6.2437   18.3149 C   0  0  0  0  0  0  0  0  0  0  0  0
    5.0252    6.2900   17.3502 H   0  0  0  0  0  0  0  0  0  0  0  0
    3.9033    6.1724   18.4823 H   0  0  0  0  0  0  0  0  0  0  0  0
    5.3215    5.4586   18.6850 H   0  0  0  0  0  0  0  0  0  0  0  0
    4.7927    8.7283   18.2005 C   0  0  0  0  0  0  0  0  0  0  0  0
    5.0343    9.5478   18.6804 H   0  0  0  0  0  0  0  0  0  0  0  0
    3.8158    8.6511   18.1585 H   0  0  0  0  0  0  0  0  0  0  0  0
    5.1566    8.7628   17.2920 H   0  0  0  0  0  0  0  0  0  0  0  0
    9.3343    7.1962   20.3879 B   0  0  0  0  0  0  0  0  0  0  0  0
    7.3625    8.2343   19.8596 B   0  0  0  0  0  0  0  0  0  0  0  0
  1  2  1  0  0  0  0
  2 10  1  0  0  0  0
  3  1  1  0  0  0  0
  4 75  1  0  0  0  0
  5 76  1  0  0  0  0
  6 93  1  0  0  0  0
  7102  1  0  0  0  0
  8  1  1  0  0  0  0
  9  8  1  0  0  0  0
 10  9  4  0  0  0  0
 11  2  1  0  0  0  0
 12 11  1  0  0  0  0
 13 11  1  0  0  0  0
 14 13  1  0  0  0  0
 15 13  1  0  0  0  0
 16 13  1  0  0  0  0
 17 11  1  0  0  0  0
 18 17  1  0  0  0  0
 19 17  1  0  0  0  0
 20 17  1  0  0  0  0
 21  2  1  0  0  0  0
 22 21  1  0  0  0  0
 23 21  1  0  0  0  0
 24 23  1  0  0  0  0
 25 23  1  0  0  0  0
 26 23  1  0  0  0  0
 27 21  1  0  0  0  0
 28 27  1  0  0  0  0
 29 27  1  0  0  0  0
 30 27  1  0  0  0  0
 31 10  4  0  0  0  0
 32 31  1  0  0  0  0
 33 31  4  0  0  0  0
 34 33  4  0  0  0  0
 35 34  1  0  0  0  0
 36  9  4  0  0  0  0
 37 36  1  0  0  0  0
 38 33  1  0  0  0  0
 39 38  1  0  0  0  0
 40 38  1  0  0  0  0
 41 38  1  0  0  0  0
 42  8  1  0  0  0  0
 43 42  4  0  0  0  0
 44 43  1  0  0  0  0
 45 43  4  0  0  0  0
 46 45  1  0  0  0  0
 47 45  4  0  0  0  0
 48 47  4  0  0  0  0
 49 48  1  0  0  0  0
 50  3  1  0  0  0  0
 51  3  1  0  0  0  0
 52 51  1  0  0  0  0
 53 51  1  0  0  0  0
 54 53  1  0  0  0  0
 55 53  1  0  0  0  0
 56 53  1  0  0  0  0
 57 51  1  0  0  0  0
 58 57  1  0  0  0  0
 59 57  1  0  0  0  0
 60 57  1  0  0  0  0
 61  3  1  0  0  0  0
 62 61  1  0  0  0  0
 63 61  1  0  0  0  0
 64 63  1  0  0  0  0
 65 63  1  0  0  0  0
 66 63  1  0  0  0  0
 67 61  1  0  0  0  0
 68 67  1  0  0  0  0
 69 67  1  0  0  0  0
 70 67  1  0  0  0  0
 71 47  1  0  0  0  0
 72 71  1  0  0  0  0
 73 71  1  0  0  0  0
 74 71  1  0  0  0  0
 75 76  1  0  0  0  0
 76 77  1  0  0  0  0
 77 78  1  0  0  0  0
 79 77  1  0  0  0  0
 80 77  1  0  0  0  0
 81 76  1  0  0  0  0
 82 81  1  0  0  0  0
 83 81  1  0  0  0  0
 84 81  1  0  0  0  0
 85 75  1  0  0  0  0
 86 85  1  0  0  0  0
 87 85  1  0  0  0  0
 88 85  1  0  0  0  0
 89 75  1  0  0  0  0
 90 89  1  0  0  0  0
 91 89  1  0  0  0  0
 92 89  1  0  0  0  0
 93 94  1  0  0  0  0
 94 95  1  0  0  0  0
 96 94  1  0  0  0  0
 97 94  1  0  0  0  0
 98 93  1  0  0  0  0
 99 98  1  0  0  0  0
100 98  1  0  0  0  0
101 98  1  0  0  0  0
102 93  1  0  0  0  0
103102  1  0  0  0  0
104103  1  0  0  0  0
105103  1  0  0  0  0
106103  1  0  0  0  0
107102  1  0  0  0  0
108107  1  0  0  0  0
109107  1  0  0  0  0
110107  1  0  0  0  0
111  1  1  0  0  0  0
112  1  1  0  0  0  0
  4111  1  0  0  0  0
  5111  1  0  0  0  0
  6112  1  0  0  0  0
  7112  1  0  0  0  0
 34 36  4  0  0  0  0
 42 50  4  0  0  0  0
 48 50  4  0  0  0  0
M  END
$$$$
TOKLUC01

From CSD data. Using bond type 'Any'. Matching problem. Disorder unknown. Sizes unknown.
  0  0  0  0  0  0  0  0  0  0999 V2000
M  END
$$$$
TORVEF

From CSD data. Using bond type 'Any'. No disordered atoms. Largest molecule.
 89113  0  0  0  0  0  0  0  0999 V2000
    6.5314    4.3227    5.6264 Ru  0  0  0  0  0  0  0  0  0  0  0  0
    6.8948    2.4386    4.3095 P   0  0  0  0  0  0  0  0  0  0  0  0
    6.9008    6.3552    6.6728 P   0  0  0  0  0  0  0  0  0  0  0  0
    7.8724    2.9688    3.0525 O   0  0  0  0  0  0  0  0  0  0  0  0
    7.7833    7.2556    5.5591 O   0  0  0  0  0  0  0  0  0  0  0  0
    3.5085    4.0265    5.9799 O   0  0  0  0  0  0  0  0  0  0  0  0
    8.4282    4.2278    3.2102 C   0  0  0  0  0  0  0  0  0  0  0  0
    8.3927    6.5196    4.5528 C   0  0  0  0  0  0  0  0  0  0  0  0
    4.6466    4.1176    5.8980 C   0  0  0  0  0  0  0  0  0  0  0  0
    5.5923    1.7156    3.2334 C   0  0  0  0  0  0  0  0  0  0  0  0
    6.0327    1.0540    2.6264 H   0  0  0  0  0  0  0  0  0  0  0  0
    4.9629    2.8023    2.3575 C   0  0  0  0  0  0  0  0  0  0  0  0
    4.4867    3.4439    2.9248 H   0  0  0  0  0  0  0  0  0  0  0  0
    4.3331    2.3914    1.7291 H   0  0  0  0  0  0  0  0  0  0  0  0
    5.6663    3.2672    1.8578 H   0  0  0  0  0  0  0  0  0  0  0  0
    4.5083    0.9753    4.0186 C   0  0  0  0  0  0  0  0  0  0  0  0
    4.9154    0.2424    4.5259 H   0  0  0  0  0  0  0  0  0  0  0  0
    3.8443    0.6123    3.3959 H   0  0  0  0  0  0  0  0  0  0  0  0
    4.0707    1.5971    4.6368 H   0  0  0  0  0  0  0  0  0  0  0  0
    7.9280    1.0481    4.9321 C   0  0  0  0  0  0  0  0  0  0  0  0
    8.7123    1.4717    5.3852 H   0  0  0  0  0  0  0  0  0  0  0  0
    8.5083    0.1837    3.8133 C   0  0  0  0  0  0  0  0  0  0  0  0
    7.7841   -0.3039    3.3681 H   0  0  0  0  0  0  0  0  0  0  0  0
    9.1475   -0.4552    4.1923 H   0  0  0  0  0  0  0  0  0  0  0  0
    8.9654    0.7559    3.1622 H   0  0  0  0  0  0  0  0  0  0  0  0
    7.2530    0.1752    5.9929 C   0  0  0  0  0  0  0  0  0  0  0  0
    6.7562    0.7447    6.6168 H   0  0  0  0  0  0  0  0  0  0  0  0
    7.9353   -0.3290    6.4835 H   0  0  0  0  0  0  0  0  0  0  0  0
    6.6354   -0.4490    5.5578 H   0  0  0  0  0  0  0  0  0  0  0  0
    5.5269    7.5445    6.9314 C   0  0  0  0  0  0  0  0  0  0  0  0
    5.9093    8.4028    7.2733 H   0  0  0  0  0  0  0  0  0  0  0  0
    4.8144    7.8227    5.6100 C   0  0  0  0  0  0  0  0  0  0  0  0
    5.4637    8.1455    4.9505 H   0  0  0  0  0  0  0  0  0  0  0  0
    4.1234    8.5035    5.7483 H   0  0  0  0  0  0  0  0  0  0  0  0
    4.3993    6.9975    5.2825 H   0  0  0  0  0  0  0  0  0  0  0  0
    4.5292    7.0077    7.9674 C   0  0  0  0  0  0  0  0  0  0  0  0
    4.2668    6.0949    7.7259 H   0  0  0  0  0  0  0  0  0  0  0  0
    3.7352    7.5821    7.9845 H   0  0  0  0  0  0  0  0  0  0  0  0
    4.9484    7.0036    8.8532 H   0  0  0  0  0  0  0  0  0  0  0  0
    8.0103    6.5002    8.1351 C   0  0  0  0  0  0  0  0  0  0  0  0
    8.7965    5.9119    7.9453 H   0  0  0  0  0  0  0  0  0  0  0  0
    8.5741    7.9151    8.3217 C   0  0  0  0  0  0  0  0  0  0  0  0
    8.9841    8.2166    7.4843 H   0  0  0  0  0  0  0  0  0  0  0  0
    9.2496    7.9066    9.0317 H   0  0  0  0  0  0  0  0  0  0  0  0
    7.8485    8.5259    8.5686 H   0  0  0  0  0  0  0  0  0  0  0  0
    7.3928    5.9765    9.4430 C   0  0  0  0  0  0  0  0  0  0  0  0
    6.7923    6.6554    9.8154 H   0  0  0  0  0  0  0  0  0  0  0  0
    8.1061    5.7829   10.0864 H   0  0  0  0  0  0  0  0  0  0  0  0
    6.8866    5.1575    9.2602 H   0  0  0  0  0  0  0  0  0  0  0  0
    7.0310    3.2814    7.3576 C   0  0  0  0  0  0  0  0  0  0  0  0
    8.3769    3.0756    7.7113 C   0  0  0  0  0  0  0  0  0  0  0  0
    9.0555    3.5013    7.2004 H   0  0  0  0  0  0  0  0  0  0  0  0
    8.7477    2.2733    8.7795 C   0  0  0  0  0  0  0  0  0  0  0  0
    9.6697    2.1751    8.9867 H   0  0  0  0  0  0  0  0  0  0  0  0
    7.7984    1.6043    9.5604 C   0  0  0  0  0  0  0  0  0  0  0  0
    6.4576    1.8573    9.2692 C   0  0  0  0  0  0  0  0  0  0  0  0
    5.7823    1.4579    9.8046 H   0  0  0  0  0  0  0  0  0  0  0  0
    6.0881    2.6825    8.2103 C   0  0  0  0  0  0  0  0  0  0  0  0
    5.1647    2.8467    8.0588 H   0  0  0  0  0  0  0  0  0  0  0  0
    8.2168    0.6268   10.5991 C   0  0  0  0  0  0  0  0  0  0  0  0
    9.4174   -0.0709   10.4668 C   0  0  0  0  0  0  0  0  0  0  0  0
    9.9772    0.1021    9.7191 H   0  0  0  0  0  0  0  0  0  0  0  0
    9.8088   -1.0128   11.4071 C   0  0  0  0  0  0  0  0  0  0  0  0
   10.6314   -1.4756   11.2994 H   0  0  0  0  0  0  0  0  0  0  0  0
    9.0031   -1.2814   12.5046 C   0  0  0  0  0  0  0  0  0  0  0  0
    9.2660   -1.9313   13.1455 H   0  0  0  0  0  0  0  0  0  0  0  0
    7.8146   -0.5935   12.6548 C   0  0  0  0  0  0  0  0  0  0  0  0
    7.2617   -0.7674   13.4073 H   0  0  0  0  0  0  0  0  0  0  0  0
    7.4213    0.3498   11.7153 C   0  0  0  0  0  0  0  0  0  0  0  0
    6.6005    0.8135   11.8324 H   0  0  0  0  0  0  0  0  0  0  0  0
    8.4848    4.8024    4.8591 B   0  0  0  0  0  0  0  0  0  0  0  0
    7.3782    5.4710    3.6799 B   0  0  0  0  0  0  0  0  0  0  0  0
    6.2324    5.3352    3.9576 H   0  0  0  0  0  0  0  0  0  0  0  0
    9.9324    5.8487    4.8564 B   0  0  0  0  0  0  0  0  0  0  0  0
   10.4374    6.0908    5.7728 H   0  0  0  0  0  0  0  0  0  0  0  0
    9.9568    4.3194    3.9694 B   0  0  0  0  0  0  0  0  0  0  0  0
   10.4400    3.4135    4.2422 H   0  0  0  0  0  0  0  0  0  0  0  0
    8.0340    6.9459    2.9305 B   0  0  0  0  0  0  0  0  0  0  0  0
    7.4096    7.7808    2.7665 H   0  0  0  0  0  0  0  0  0  0  0  0
    9.6617    7.1820    3.6673 B   0  0  0  0  0  0  0  0  0  0  0  0
   10.0256    8.1510    3.8722 H   0  0  0  0  0  0  0  0  0  0  0  0
   10.6729    5.7752    3.2431 B   0  0  0  0  0  0  0  0  0  0  0  0
   11.7368    5.8407    3.1161 H   0  0  0  0  0  0  0  0  0  0  0  0
    9.6992    4.6942    2.2170 B   0  0  0  0  0  0  0  0  0  0  0  0
   10.0572    4.0328    1.4798 H   0  0  0  0  0  0  0  0  0  0  0  0
    8.0522    5.4167    2.0355 B   0  0  0  0  0  0  0  0  0  0  0  0
    7.4375    5.1414    1.2155 H   0  0  0  0  0  0  0  0  0  0  0  0
    9.5000    6.4534    2.0508 B   0  0  0  0  0  0  0  0  0  0  0  0
    9.8154    6.9667    1.1871 H   0  0  0  0  0  0  0  0  0  0  0  0
  1  2  1  0  0  0  0
  2  4  1  0  0  0  0
  3  1  1  0  0  0  0
  4  7  1  0  0  0  0
  5  3  1  0  0  0  0
  6  9  3  0  0  0  0
  7 71  1  0  0  0  0
  8  5  1  0  0  0  0
  9  1  1  0  0  0  0
 10  2  1  0  0  0  0
 11 10  1  0  0  0  0
 12 10  1  0  0  0  0
 13 12  1  0  0  0  0
 14 12  1  0  0  0  0
 15 12  1  0  0  0  0
 16 10  1  0  0  0  0
 17 16  1  0  0  0  0
 18 16  1  0  0  0  0
 19 16  1  0  0  0  0
 20  2  1  0  0  0  0
 21 20  1  0  0  0  0
 22 20  1  0  0  0  0
 23 22  1  0  0  0  0
 24 22  1  0  0  0  0
 25 22  1  0  0  0  0
 26 20  1  0  0  0  0
 27 26  1  0  0  0  0
 28 26  1  0  0  0  0
 29 26  1  0  0  0  0
 30  3  1  0  0  0  0
 31 30  1  0  0  0  0
 32 30  1  0  0  0  0
 33 32  1  0  0  0  0
 34 32  1  0  0  0  0
 35 32  1  0  0  0  0
 36 30  1  0  0  0  0
 37 36  1  0  0  0  0
 38 36  1  0  0  0  0
 39 36  1  0  0  0  0
 40  3  1  0  0  0  0
 41 40  1  0  0  0  0
 42 40  1  0  0  0  0
 43 42  1  0  0  0  0
 44 42  1  0  0  0  0
 45 42  1  0  0  0  0
 46 40  1  0  0  0  0
 47 46  1  0  0  0  0
 48 46  1  0  0  0  0
 49 46  1  0  0  0  0
 50  1  1  0  0  0  0
 51 50  4  0  0  0  0
 52 51  1  0  0  0  0
 53 51  4  0  0  0  0
 54 53  1  0  0  0  0
 55 53  4  0  0  0  0
 56 55  4  0  0  0  0
 57 56  1  0  0  0  0
 58 50  4  0  0  0  0
 59 58  1  0  0  0  0
 60 55  1  0  0  0  0
 61 60  4  0  0  0  0
 62 61  1  0  0  0  0
 63 61  4  0  0  0  0
 64 63  1  0  0  0  0
 65 63  4  0  0  0  0
 66 65  1  0  0  0  0
 67 65  4  0  0  0  0
 68 67  1  0  0  0  0
 69 60  4  0  0  0  0
 70 69  1  0  0  0  0
 71  1  1  0  0  0  0
 72  1  1  0  0  0  0
 73  1  1  0  0  0  0
 74  8  1  0  0  0  0
 75 74  1  0  0  0  0
 76  7  1  0  0  0  0
 77 76  1  0  0  0  0
 78  8  1  0  0  0  0
 79 78  1  0  0  0  0
 80  8  1  0  0  0  0
 81 80  1  0  0  0  0
 82 74  1  0  0  0  0
 83 82  1  0  0  0  0
 84  7  1  0  0  0  0
 85 84  1  0  0  0  0
 86  7  1  0  0  0  0
 87 86  1  0  0  0  0
 88 78  1  0  0  0  0
 89 88  1  0  0  0  0
  7 72  1  0  0  0  0
  8 71  1  0  0  0  0
  8 72  1  0  0  0  0
 56 58  4  0  0  0  0
 67 69  4  0  0  0  0
 71 72  1  0  0  0  0
 71 74  1  0  0  0  0
 71 76  1  0  0  0  0
 72 73  1  0  0  0  0
 72 78  1  0  0  0  0
 72 86  1  0  0  0  0
 74 76  1  0  0  0  0
 74 80  1  0  0  0  0
 76 82  1  0  0  0  0
 76 84  1  0  0  0  0
 78 80  1  0  0  0  0
 78 86  1  0  0  0  0
 80 82  1  0  0  0  0
 80 88  1  0  0  0  0
 82 84  1  0  0  0  0
 82 88  1  0  0  0  0
 84 86  1  0  0  0  0
 84 88  1  0  0  0  0
 86 88  1  0  0  0  0
M  END
$$$$
TORVIJ

From CSD data. Using bond type 'Any'. No disordered atoms. Largest molecule.
105129  0  0  0  0  0  0  0  0999 V2000
    8.8674    7.3171    4.9226 Ru  0  0  0  0  0  0  0  0  0  0  0  0
   11.0334    6.8521    4.2785 P   0  0  0  0  0  0  0  0  0  0  0  0
    6.6168    6.8691    5.0061 P   0  0  0  0  0  0  0  0  0  0  0  0
   11.0540    5.4490    3.3252 O   0  0  0  0  0  0  0  0  0  0  0  0
    6.2671    5.4601    4.1253 O   0  0  0  0  0  0  0  0  0  0  0  0
    9.0236    8.5848    6.5973 N   0  0  0  0  0  0  0  0  0  0  0  0
    8.6879    9.0142    3.7492 N   0  0  0  0  0  0  0  0  0  0  0  0
    9.8263    5.0902    2.7711 C   0  0  0  0  0  0  0  0  0  0  0  0
    7.2505    5.0833    3.2077 C   0  0  0  0  0  0  0  0  0  0  0  0
    8.9300    4.3783    5.3877 C   0  0  0  0  0  0  0  0  0  0  0  0
    9.0114    3.5468    5.8388 H   0  0  0  0  0  0  0  0  0  0  0  0
    9.0210    5.5459    6.0565 C   0  0  0  0  0  0  0  0  0  0  0  0
    9.1486    5.4753    7.5310 C   0  0  0  0  0  0  0  0  0  0  0  0
    8.3753    4.5473    8.2464 C   0  0  0  0  0  0  0  0  0  0  0  0
    7.7830    3.9774    7.7703 H   0  0  0  0  0  0  0  0  0  0  0  0
    8.4472    4.4351    9.6093 C   0  0  0  0  0  0  0  0  0  0  0  0
    7.8997    3.8021   10.0615 H   0  0  0  0  0  0  0  0  0  0  0  0
    9.3035    5.2315   10.3298 C   0  0  0  0  0  0  0  0  0  0  0  0
    9.3549    5.1573   11.2748 H   0  0  0  0  0  0  0  0  0  0  0  0
   10.0901    6.1415    9.6529 C   0  0  0  0  0  0  0  0  0  0  0  0
   10.6986    6.6847   10.1387 H   0  0  0  0  0  0  0  0  0  0  0  0
   10.0061    6.2759    8.2776 C   0  0  0  0  0  0  0  0  0  0  0  0
   10.5417    6.9249    7.8373 H   0  0  0  0  0  0  0  0  0  0  0  0
   11.7989    8.0350    3.0953 C   0  0  0  0  0  0  0  0  0  0  0  0
   11.0984    8.1754    2.3958 H   0  0  0  0  0  0  0  0  0  0  0  0
   13.0230    7.5391    2.3174 C   0  0  0  0  0  0  0  0  0  0  0  0
   13.8217    7.6189    2.8792 H   0  0  0  0  0  0  0  0  0  0  0  0
   13.1373    8.0819    1.5087 H   0  0  0  0  0  0  0  0  0  0  0  0
   12.8926    6.6015    2.0652 H   0  0  0  0  0  0  0  0  0  0  0  0
   12.0240    9.4215    3.6918 C   0  0  0  0  0  0  0  0  0  0  0  0
   11.2791    9.6467    4.2870 H   0  0  0  0  0  0  0  0  0  0  0  0
   12.0773   10.0827    2.9703 H   0  0  0  0  0  0  0  0  0  0  0  0
   12.8617    9.4260    4.2009 H   0  0  0  0  0  0  0  0  0  0  0  0
   12.2295    6.2800    5.5641 C   0  0  0  0  0  0  0  0  0  0  0  0
   11.6948    5.7749    6.2410 H   0  0  0  0  0  0  0  0  0  0  0  0
   13.3073    5.3243    5.0685 C   0  0  0  0  0  0  0  0  0  0  0  0
   12.8861    4.5663    4.6107 H   0  0  0  0  0  0  0  0  0  0  0  0
   13.8276    4.9957    5.8314 H   0  0  0  0  0  0  0  0  0  0  0  0
   13.8998    5.7937    4.4461 H   0  0  0  0  0  0  0  0  0  0  0  0
   12.8221    7.4754    6.2892 C   0  0  0  0  0  0  0  0  0  0  0  0
   13.4948    7.9033    5.7207 H   0  0  0  0  0  0  0  0  0  0  0  0
   13.2417    7.1758    7.1235 H   0  0  0  0  0  0  0  0  0  0  0  0
   12.1109    8.1179    6.4951 H   0  0  0  0  0  0  0  0  0  0  0  0
    5.7919    6.3133    6.5441 C   0  0  0  0  0  0  0  0  0  0  0  0
    6.2291    5.4423    6.7715 H   0  0  0  0  0  0  0  0  0  0  0  0
    4.3011    5.9947    6.4521 C   0  0  0  0  0  0  0  0  0  0  0  0
    3.7895    6.8301    6.4354 H   0  0  0  0  0  0  0  0  0  0  0  0
    4.0323    5.4615    7.2285 H   0  0  0  0  0  0  0  0  0  0  0  0
    4.1259    5.4880    5.6311 H   0  0  0  0  0  0  0  0  0  0  0  0
    6.0758    7.2191    7.7363 C   0  0  0  0  0  0  0  0  0  0  0  0
    7.0444    7.2958    7.8658 H   0  0  0  0  0  0  0  0  0  0  0  0
    5.6679    6.8379    8.5415 H   0  0  0  0  0  0  0  0  0  0  0  0
    5.6980    8.1079    7.5683 H   0  0  0  0  0  0  0  0  0  0  0  0
    5.5670    8.1139    4.1530 C   0  0  0  0  0  0  0  0  0  0  0  0
    6.0868    8.3810    3.3410 H   0  0  0  0  0  0  0  0  0  0  0  0
    4.2037    7.6928    3.6276 C   0  0  0  0  0  0  0  0  0  0  0  0
    4.2782    6.8190    3.1905 H   0  0  0  0  0  0  0  0  0  0  0  0
    3.8846    8.3559    2.9803 H   0  0  0  0  0  0  0  0  0  0  0  0
    3.5714    7.6330    4.3733 H   0  0  0  0  0  0  0  0  0  0  0  0
    5.4829    9.3785    5.0066 C   0  0  0  0  0  0  0  0  0  0  0  0
    4.7891    9.2664    5.6889 H   0  0  0  0  0  0  0  0  0  0  0  0
    5.2602   10.1436    4.4361 H   0  0  0  0  0  0  0  0  0  0  0  0
    6.3470    9.5362    5.4416 H   0  0  0  0  0  0  0  0  0  0  0  0
    8.9941    9.2635    7.5167 C   0  0  0  0  0  0  0  0  0  0  0  0
    8.9521   10.0184    8.7374 C   0  0  0  0  0  0  0  0  0  0  0  0
    9.9441    9.8273    9.6850 C   0  0  0  0  0  0  0  0  0  0  0  0
   10.6582    9.2244    9.5123 H   0  0  0  0  0  0  0  0  0  0  0  0
    9.8904   10.5143   10.8736 C   0  0  0  0  0  0  0  0  0  0  0  0
   10.5609   10.3766   11.5319 H   0  0  0  0  0  0  0  0  0  0  0  0
    8.8726   11.3966   11.1122 C   0  0  0  0  0  0  0  0  0  0  0  0
    8.8346   11.8628   11.9384 H   0  0  0  0  0  0  0  0  0  0  0  0
    7.9047   11.6127   10.1623 C   0  0  0  0  0  0  0  0  0  0  0  0
    7.2207   12.2526   10.3224 H   0  0  0  0  0  0  0  0  0  0  0  0
    7.9183   10.9118    8.9829 C   0  0  0  0  0  0  0  0  0  0  0  0
    7.2284   11.0368    8.3421 H   0  0  0  0  0  0  0  0  0  0  0  0
    8.5937    9.9090    3.0494 C   0  0  0  0  0  0  0  0  0  0  0  0
    8.4993   11.0171    2.1568 C   0  0  0  0  0  0  0  0  0  0  0  0
    9.4479   12.0254    2.1866 C   0  0  0  0  0  0  0  0  0  0  0  0
   10.1549   11.9869    2.8202 H   0  0  0  0  0  0  0  0  0  0  0  0
    9.3731   13.0767    1.3147 C   0  0  0  0  0  0  0  0  0  0  0  0
   10.0120   13.7776    1.3609 H   0  0  0  0  0  0  0  0  0  0  0  0
    8.3782   13.1169    0.3786 C   0  0  0  0  0  0  0  0  0  0  0  0
    8.3463   13.8326   -0.2462 H   0  0  0  0  0  0  0  0  0  0  0  0
    7.4269   12.1321    0.3327 C   0  0  0  0  0  0  0  0  0  0  0  0
    6.7273   12.1760   -0.3092 H   0  0  0  0  0  0  0  0  0  0  0  0
    7.4844   11.0780    1.2207 C   0  0  0  0  0  0  0  0  0  0  0  0
    6.8269   10.3929    1.1872 H   0  0  0  0  0  0  0  0  0  0  0  0
    8.5952    6.1429    3.2696 B   0  0  0  0  0  0  0  0  0  0  0  0
    8.6904    4.4392    3.8823 B   0  0  0  0  0  0  0  0  0  0  0  0
    7.4736    6.1014    1.8654 B   0  0  0  0  0  0  0  0  0  0  0  0
    6.8563    6.8839    1.7232 H   0  0  0  0  0  0  0  0  0  0  0  0
    9.1812    6.1028    1.5740 B   0  0  0  0  0  0  0  0  0  0  0  0
    9.7895    6.9255    1.1679 H   0  0  0  0  0  0  0  0  0  0  0  0
    7.6434    3.4309    2.9255 B   0  0  0  0  0  0  0  0  0  0  0  0
    7.0538    2.6594    3.4303 H   0  0  0  0  0  0  0  0  0  0  0  0
    6.8794    4.4434    1.6842 B   0  0  0  0  0  0  0  0  0  0  0  0
    5.8678    4.2523    1.4524 H   0  0  0  0  0  0  0  0  0  0  0  0
    8.1433    5.0528    0.6149 B   0  0  0  0  0  0  0  0  0  0  0  0
    7.9966    5.2218   -0.4130 H   0  0  0  0  0  0  0  0  0  0  0  0
    9.7000    4.4489    1.2161 B   0  0  0  0  0  0  0  0  0  0  0  0
   10.5410    4.2800    0.6333 H   0  0  0  0  0  0  0  0  0  0  0  0
    9.3808    3.4309    2.6272 B   0  0  0  0  0  0  0  0  0  0  0  0
   10.1034    2.7009    2.9369 H   0  0  0  0  0  0  0  0  0  0  0  0
    8.2554    3.4157    1.2849 B   0  0  0  0  0  0  0  0  0  0  0  0
    8.1887    2.5486    0.6218 H   0  0  0  0  0  0  0  0  0  0  0  0
  1  2  1  0  0  0  0
  2  4  1  0  0  0  0
  3  1  1  0  0  0  0
  4  8  1  0  0  0  0
  5  3  1  0  0  0  0
  6  1  1  0  0  0  0
  7  1  1  0  0  0  0
  8 88  1  0  0  0  0
  9  5  1  0  0  0  0
 10 11  1  0  0  0  0
 12  1  1  0  0  0  0
 13 12  1  0  0  0  0
 14 13  4  0  0  0  0
 15 14  1  0  0  0  0
 16 14  4  0  0  0  0
 17 16  1  0  0  0  0
 18 16  4  0  0  0  0
 19 18  1  0  0  0  0
 20 18  4  0  0  0  0
 21 20  1  0  0  0  0
 22 13  4  0  0  0  0
 23 22  1  0  0  0  0
 24  2  1  0  0  0  0
 25 24  1  0  0  0  0
 26 24  1  0  0  0  0
 27 26  1  0  0  0  0
 28 26  1  0  0  0  0
 29 26  1  0  0  0  0
 30 24  1  0  0  0  0
 31 30  1  0  0  0  0
 32 30  1  0  0  0  0
 33 30  1  0  0  0  0
 34  2  1  0  0  0  0
 35 34  1  0  0  0  0
 36 34  1  0  0  0  0
 37 36  1  0  0  0  0
 38 36  1  0  0  0  0
 39 36  1  0  0  0  0
 40 34  1  0  0  0  0
 41 40  1  0  0  0  0
 42 40  1  0  0  0  0
 43 40  1  0  0  0  0
 44  3  1  0  0  0  0
 45 44  1  0  0  0  0
 46 44  1  0  0  0  0
 47 46  1  0  0  0  0
 48 46  1  0  0  0  0
 49 46  1  0  0  0  0
 50 44  1  0  0  0  0
 51 50  1  0  0  0  0
 52 50  1  0  0  0  0
 53 50  1  0  0  0  0
 54  3  1  0  0  0  0
 55 54  1  0  0  0  0
 56 54  1  0  0  0  0
 57 56  1  0  0  0  0
 58 56  1  0  0  0  0
 59 56  1  0  0  0  0
 60 54  1  0  0  0  0
 61 60  1  0  0  0  0
 62 60  1  0  0  0  0
 63 60  1  0  0  0  0
 64  6  3  0  0  0  0
 65 64  1  0  0  0  0
 66 65  4  0  0  0  0
 67 66  1  0  0  0  0
 68 66  4  0  0  0  0
 69 68  1  0  0  0  0
 70 68  4  0  0  0  0
 71 70  1  0  0  0  0
 72 70  4  0  0  0  0
 73 72  1  0  0  0  0
 74 65  4  0  0  0  0
 75 74  1  0  0  0  0
 76  7  3  0  0  0  0
 77 76  1  0  0  0  0
 78 77  4  0  0  0  0
 79 78  1  0  0  0  0
 80 78  4  0  0  0  0
 81 80  1  0  0  0  0
 82 80  4  0  0  0  0
 83 82  1  0  0  0  0
 84 82  4  0  0  0  0
 85 84  1  0  0  0  0
 86 77  4  0  0  0  0
 87 86  1  0  0  0  0
 88  1  1  0  0  0  0
 89  8  1  0  0  0  0
 90  9  1  0  0  0  0
 91 90  1  0  0  0  0
 92  8  1  0  0  0  0
 93 92  1  0  0  0  0
 94  9  1  0  0  0  0
 95 94  1  0  0  0  0
 96  9  1  0  0  0  0
 97 96  1  0  0  0  0
 98 90  1  0  0  0  0
 99 98  1  0  0  0  0
100  8  1  0  0  0  0
101100  1  0  0  0  0
102  8  1  0  0  0  0
103102  1  0  0  0  0
104 94  1  0  0  0  0
105104  1  0  0  0  0
  9 88  1  0  0  0  0
  9 89  1  0  0  0  0
 10 12  2  0  0  0  0
 10 89  1  0  0  0  0
 20 22  4  0  0  0  0
 72 74  4  0  0  0  0
 84 86  4  0  0  0  0
 88 89  1  0  0  0  0
 88 90  1  0  0  0  0
 88 92  1  0  0  0  0
 89 94  1  0  0  0  0
 89102  1  0  0  0  0
 90 92  1  0  0  0  0
 90 96  1  0  0  0  0
 92 98  1  0  0  0  0
 92100  1  0  0  0  0
 94 96  1  0  0  0  0
 94102  1  0  0  0  0
 96 98  1  0  0  0  0
 96104  1  0  0  0  0
 98100  1  0  0  0  0
 98104  1  0  0  0  0
100102  1  0  0  0  0
100104  1  0  0  0  0
102104  1  0  0  0  0
M  END
$$$$
TORVOP

From CSD data. Using bond type 'Any'. No disordered atoms. Largest molecule.
 91114  0  0  0  0  0  0  0  0999 V2000
    0.0417    5.7553   10.9707 Ru  0  0  0  0  0  0  0  0  0  0  0  0
   -0.1224    4.1712    9.3302 P   0  0  0  0  0  0  0  0  0  0  0  0
    0.0713    6.8251   12.9824 P   0  0  0  0  0  0  0  0  0  0  0  0
   -0.8747    2.8505   10.0284 O   0  0  0  0  0  0  0  0  0  0  0  0
   -0.6273    5.8000   14.0920 O   0  0  0  0  0  0  0  0  0  0  0  0
    1.9695    6.2698   10.4278 N   0  0  0  0  0  0  0  0  0  0  0  0
   -0.6757    7.3478    9.8535 N   0  0  0  0  0  0  0  0  0  0  0  0
   -1.1719    3.0248   11.3881 C   0  0  0  0  0  0  0  0  0  0  0  0
   -1.0424    4.5703   13.5309 C   0  0  0  0  0  0  0  0  0  0  0  0
    1.4004    3.4227    8.6446 C   0  0  0  0  0  0  0  0  0  0  0  0
    1.8833    4.1559    8.1664 H   0  0  0  0  0  0  0  0  0  0  0  0
    2.3411    2.9348    9.7462 C   0  0  0  0  0  0  0  0  0  0  0  0
    1.9452    2.1583   10.1937 H   0  0  0  0  0  0  0  0  0  0  0  0
    2.4805    3.6525   10.3985 H   0  0  0  0  0  0  0  0  0  0  0  0
    3.2015    2.6807    9.3512 H   0  0  0  0  0  0  0  0  0  0  0  0
    1.1905    2.3043    7.6203 C   0  0  0  0  0  0  0  0  0  0  0  0
    0.6871    2.6519    6.8551 H   0  0  0  0  0  0  0  0  0  0  0  0
    0.6897    1.5708    8.0350 H   0  0  0  0  0  0  0  0  0  0  0  0
    2.0613    1.9731    7.3154 H   0  0  0  0  0  0  0  0  0  0  0  0
   -1.1953    4.3702    7.8557 C   0  0  0  0  0  0  0  0  0  0  0  0
   -1.2727    3.4829    7.4000 H   0  0  0  0  0  0  0  0  0  0  0  0
   -2.5992    4.8243    8.2699 C   0  0  0  0  0  0  0  0  0  0  0  0
   -2.5367    5.6668    8.7670 H   0  0  0  0  0  0  0  0  0  0  0  0
   -3.0090    4.1395    8.8401 H   0  0  0  0  0  0  0  0  0  0  0  0
   -3.1502    4.9560    7.4710 H   0  0  0  0  0  0  0  0  0  0  0  0
   -0.5655    5.3695    6.8671 C   0  0  0  0  0  0  0  0  0  0  0  0
    0.3027    5.0276    6.5644 H   0  0  0  0  0  0  0  0  0  0  0  0
   -0.4374    6.2336    7.3119 H   0  0  0  0  0  0  0  0  0  0  0  0
   -1.1574    5.4843    6.0948 H   0  0  0  0  0  0  0  0  0  0  0  0
    1.6870    7.1792   13.7926 C   0  0  0  0  0  0  0  0  0  0  0  0
    2.1455    7.8572   13.2198 H   0  0  0  0  0  0  0  0  0  0  0  0
    2.5902    5.9338   13.7945 C   0  0  0  0  0  0  0  0  0  0  0  0
    2.1901    5.2404   14.3603 H   0  0  0  0  0  0  0  0  0  0  0  0
    3.4737    6.1717   14.1458 H   0  0  0  0  0  0  0  0  0  0  0  0
    2.6822    5.5959   12.8797 H   0  0  0  0  0  0  0  0  0  0  0  0
    1.6072    7.7873   15.1954 C   0  0  0  0  0  0  0  0  0  0  0  0
    1.0578    7.2125   15.7691 H   0  0  0  0  0  0  0  0  0  0  0  0
    1.2014    8.6777   15.1417 H   0  0  0  0  0  0  0  0  0  0  0  0
    2.5080    7.8597   15.5715 H   0  0  0  0  0  0  0  0  0  0  0  0
   -0.8964    8.3426   13.3426 C   0  0  0  0  0  0  0  0  0  0  0  0
   -0.8995    8.4837   14.3327 H   0  0  0  0  0  0  0  0  0  0  0  0
   -2.3449    8.2009   12.8756 C   0  0  0  0  0  0  0  0  0  0  0  0
   -2.7627    7.4408   13.3303 H   0  0  0  0  0  0  0  0  0  0  0  0
   -2.3621    8.0521   11.9066 H   0  0  0  0  0  0  0  0  0  0  0  0
   -2.8380    9.0209   13.0881 H   0  0  0  0  0  0  0  0  0  0  0  0
   -0.2270    9.5486   12.6892 C   0  0  0  0  0  0  0  0  0  0  0  0
   -0.7704   10.3486   12.8503 H   0  0  0  0  0  0  0  0  0  0  0  0
   -0.1490    9.3952   11.7251 H   0  0  0  0  0  0  0  0  0  0  0  0
    0.6640    9.6755   13.0748 H   0  0  0  0  0  0  0  0  0  0  0  0
    3.0542    6.4677   10.1115 C   0  0  0  0  0  0  0  0  0  0  0  0
    4.4467    6.6082    9.7763 C   0  0  0  0  0  0  0  0  0  0  0  0
    5.3901    6.7858   10.7856 C   0  0  0  0  0  0  0  0  0  0  0  0
    5.1103    6.8547   11.6914 H   0  0  0  0  0  0  0  0  0  0  0  0
    6.7148    6.8600   10.4730 C   0  0  0  0  0  0  0  0  0  0  0  0
    7.3603    6.9638   11.1635 H   0  0  0  0  0  0  0  0  0  0  0  0
    7.1206    6.7858    9.1549 C   0  0  0  0  0  0  0  0  0  0  0  0
    8.0458    6.8363    8.9400 H   0  0  0  0  0  0  0  0  0  0  0  0
    6.1894    6.6374    8.1513 C   0  0  0  0  0  0  0  0  0  0  0  0
    6.4744    6.5904    7.2455 H   0  0  0  0  0  0  0  0  0  0  0  0
    4.8546    6.5565    8.4545 C   0  0  0  0  0  0  0  0  0  0  0  0
    4.2124    6.4644    7.7610 H   0  0  0  0  0  0  0  0  0  0  0  0
   -0.9925    8.2672    9.2321 C   0  0  0  0  0  0  0  0  0  0  0  0
   -1.3483    9.4385    8.4865 C   0  0  0  0  0  0  0  0  0  0  0  0
   -1.9796   10.4939    9.1304 C   0  0  0  0  0  0  0  0  0  0  0  0
   -2.2017   10.4277   10.0518 H   0  0  0  0  0  0  0  0  0  0  0  0
   -2.2781   11.6393    8.4243 C   0  0  0  0  0  0  0  0  0  0  0  0
   -2.7088   12.3636    8.8649 H   0  0  0  0  0  0  0  0  0  0  0  0
   -1.9622   11.7439    7.0893 C   0  0  0  0  0  0  0  0  0  0  0  0
   -2.2037   12.5228    6.6033 H   0  0  0  0  0  0  0  0  0  0  0  0
   -1.2925   10.7109    6.4585 C   0  0  0  0  0  0  0  0  0  0  0  0
   -1.0327   10.8014    5.5489 H   0  0  0  0  0  0  0  0  0  0  0  0
   -0.9987    9.5441    7.1477 C   0  0  0  0  0  0  0  0  0  0  0  0
   -0.5621    8.8235    6.7069 H   0  0  0  0  0  0  0  0  0  0  0  0
   -1.5446    4.6692   11.8381 B   0  0  0  0  0  0  0  0  0  0  0  0
   -0.0093    3.9937   12.2618 B   0  0  0  0  0  0  0  0  0  0  0  0
   -2.6895    4.3657   13.2259 B   0  0  0  0  0  0  0  0  0  0  0  0
   -3.4958    5.1053   13.4618 H   0  0  0  0  0  0  0  0  0  0  0  0
   -2.7770    3.3440   11.7986 B   0  0  0  0  0  0  0  0  0  0  0  0
   -3.6385    3.3998   11.0852 H   0  0  0  0  0  0  0  0  0  0  0  0
   -0.1078    3.2316   13.8943 B   0  0  0  0  0  0  0  0  0  0  0  0
    0.7861    3.2237   14.5695 H   0  0  0  0  0  0  0  0  0  0  0  0
   -1.7798    3.4710   14.5100 B   0  0  0  0  0  0  0  0  0  0  0  0
   -1.9919    3.6071   15.6010 H   0  0  0  0  0  0  0  0  0  0  0  0
   -2.8960    2.6336   13.4236 B   0  0  0  0  0  0  0  0  0  0  0  0
   -3.8598    2.2121   13.8041 H   0  0  0  0  0  0  0  0  0  0  0  0
   -1.9388    1.7872   12.1865 B   0  0  0  0  0  0  0  0  0  0  0  0
   -2.2640    0.8133   11.7397 H   0  0  0  0  0  0  0  0  0  0  0  0
   -0.1935    2.1896   12.4708 B   0  0  0  0  0  0  0  0  0  0  0  0
    0.6397    1.4917   12.1971 H   0  0  0  0  0  0  0  0  0  0  0  0
   -1.2932    1.9019   13.8378 B   0  0  0  0  0  0  0  0  0  0  0  0
   -1.1902    0.9924   14.4832 H   0  0  0  0  0  0  0  0  0  0  0  0
  1  2  1  0  0  0  0
  2  4  1  0  0  0  0
  3  1  1  0  0  0  0
  4  8  1  0  0  0  0
  5  3  1  0  0  0  0
  6  1  1  0  0  0  0
  7  1  1  0  0  0  0
  8 74  1  0  0  0  0
  9  5  1  0  0  0  0
 10  2  1  0  0  0  0
 11 10  1  0  0  0  0
 12 10  1  0  0  0  0
 13 12  1  0  0  0  0
 14 12  1  0  0  0  0
 15 12  1  0  0  0  0
 16 10  1  0  0  0  0
 17 16  1  0  0  0  0
 18 16  1  0  0  0  0
 19 16  1  0  0  0  0
 20  2  1  0  0  0  0
 21 20  1  0  0  0  0
 22 20  1  0  0  0  0
 23 22  1  0  0  0  0
 24 22  1  0  0  0  0
 25 22  1  0  0  0  0
 26 20  1  0  0  0  0
 27 26  1  0  0  0  0
 28 26  1  0  0  0  0
 29 26  1  0  0  0  0
 30  3  1  0  0  0  0
 31 30  1  0  0  0  0
 32 30  1  0  0  0  0
 33 32  1  0  0  0  0
 34 32  1  0  0  0  0
 35 32  1  0  0  0  0
 36 30  1  0  0  0  0
 37 36  1  0  0  0  0
 38 36  1  0  0  0  0
 39 36  1  0  0  0  0
 40  3  1  0  0  0  0
 41 40  1  0  0  0  0
 42 40  1  0  0  0  0
 43 42  1  0  0  0  0
 44 42  1  0  0  0  0
 45 42  1  0  0  0  0
 46 40  1  0  0  0  0
 47 46  1  0  0  0  0
 48 46  1  0  0  0  0
 49 46  1  0  0  0  0
 50  6  3  0  0  0  0
 51 50  1  0  0  0  0
 52 51  4  0  0  0  0
 53 52  1  0  0  0  0
 54 52  4  0  0  0  0
 55 54  1  0  0  0  0
 56 54  4  0  0  0  0
 57 56  1  0  0  0  0
 58 56  4  0  0  0  0
 59 58  1  0  0  0  0
 60 51  4  0  0  0  0
 61 60  1  0  0  0  0
 62  7  3  0  0  0  0
 63 62  1  0  0  0  0
 64 63  4  0  0  0  0
 65 64  1  0  0  0  0
 66 64  4  0  0  0  0
 67 66  1  0  0  0  0
 68 66  4  0  0  0  0
 69 68  1  0  0  0  0
 70 68  4  0  0  0  0
 71 70  1  0  0  0  0
 72 63  4  0  0  0  0
 73 72  1  0  0  0  0
 74  1  1  0  0  0  0
 75  1  1  0  0  0  0
 76  9  1  0  0  0  0
 77 76  1  0  0  0  0
 78  8  1  0  0  0  0
 79 78  1  0  0  0  0
 80  9  1  0  0  0  0
 81 80  1  0  0  0  0
 82  9  1  0  0  0  0
 83 82  1  0  0  0  0
 84 76  1  0  0  0  0
 85 84  1  0  0  0  0
 86  8  1  0  0  0  0
 87 86  1  0  0  0  0
 88  8  1  0  0  0  0
 89 88  1  0  0  0  0
 90 80  1  0  0  0  0
 91 90  1  0  0  0  0
  8 75  1  0  0  0  0
  9 74  1  0  0  0  0
  9 75  1  0  0  0  0
 58 60  4  0  0  0  0
 70 72  4  0  0  0  0
 74 75  1  0  0  0  0
 74 76  1  0  0  0  0
 74 78  1  0  0  0  0
 75 80  1  0  0  0  0
 75 88  1  0  0  0  0
 76 78  1  0  0  0  0
 76 82  1  0  0  0  0
 78 84  1  0  0  0  0
 78 86  1  0  0  0  0
 80 82  1  0  0  0  0
 80 88  1  0  0  0  0
 82 84  1  0  0  0  0
 82 90  1  0  0  0  0
 84 86  1  0  0  0  0
 84 90  1  0  0  0  0
 86 88  1  0  0  0  0
 86 90  1  0  0  0  0
 88 90  1  0  0  0  0
M  END
$$$$
TORVUV

From CSD data. Using bond type 'Any'. No disordered atoms. Largest molecule.
113138  0  0  0  0  0  0  0  0999 V2000
   11.3022    1.2584   15.0566 Ru  0  0  0  0  0  0  0  0  0  0  0  0
   13.3664    2.2106   15.5628 P   0  0  0  0  0  0  0  0  0  0  0  0
    9.6372   -0.3173   14.5756 P   0  0  0  0  0  0  0  0  0  0  0  0
   10.1005    2.3404   16.7510 P   0  0  0  0  0  0  0  0  0  0  0  0
    8.9088    2.7877   16.4063 H   0  0  0  0  0  0  0  0  0  0  0  0
   10.8718    2.7193   13.3020 P   0  0  0  0  0  0  0  0  0  0  0  0
   11.8945    3.4394   12.9133 H   0  0  0  0  0  0  0  0  0  0  0  0
   14.4695    0.9461   15.5794 O   0  0  0  0  0  0  0  0  0  0  0  0
   10.4372   -1.7619   14.4036 O   0  0  0  0  0  0  0  0  0  0  0  0
   13.9254   -0.3065   15.3000 C   0  0  0  0  0  0  0  0  0  0  0  0
   11.7997   -1.7221   14.6853 C   0  0  0  0  0  0  0  0  0  0  0  0
   13.7982    2.9192   17.2235 C   0  0  0  0  0  0  0  0  0  0  0  0
   13.2401    3.7382   17.3514 H   0  0  0  0  0  0  0  0  0  0  0  0
   15.2659    3.3404   17.3707 C   0  0  0  0  0  0  0  0  0  0  0  0
   15.8458    2.6347   17.0143 H   0  0  0  0  0  0  0  0  0  0  0  0
   15.4713    3.4838   18.3181 H   0  0  0  0  0  0  0  0  0  0  0  0
   15.4190    4.1706   16.8735 H   0  0  0  0  0  0  0  0  0  0  0  0
   13.4308    1.9345   18.3475 C   0  0  0  0  0  0  0  0  0  0  0  0
   12.5133    1.6156   18.2150 H   0  0  0  0  0  0  0  0  0  0  0  0
   13.4963    2.3886   19.2136 H   0  0  0  0  0  0  0  0  0  0  0  0
   14.0470    1.1732   18.3301 H   0  0  0  0  0  0  0  0  0  0  0  0
   14.3514    3.3319   14.4616 C   0  0  0  0  0  0  0  0  0  0  0  0
   15.2618    3.3543   14.8727 H   0  0  0  0  0  0  0  0  0  0  0  0
   13.8628    4.7837   14.5203 C   0  0  0  0  0  0  0  0  0  0  0  0
   12.9473    4.8353   14.1720 H   0  0  0  0  0  0  0  0  0  0  0  0
   14.4503    5.3489   13.9770 H   0  0  0  0  0  0  0  0  0  0  0  0
   13.8757    5.0960   15.4491 H   0  0  0  0  0  0  0  0  0  0  0  0
   14.5775    2.7780   13.0346 C   0  0  0  0  0  0  0  0  0  0  0  0
   15.0239    1.9063   13.0900 H   0  0  0  0  0  0  0  0  0  0  0  0
   15.1406    3.4003   12.5283 H   0  0  0  0  0  0  0  0  0  0  0  0
   13.7151    2.6748   12.5824 H   0  0  0  0  0  0  0  0  0  0  0  0
    8.4687   -0.8604   15.9036 C   0  0  0  0  0  0  0  0  0  0  0  0
    9.0077   -0.8550   16.7460 H   0  0  0  0  0  0  0  0  0  0  0  0
    7.9277   -2.2796   15.7850 C   0  0  0  0  0  0  0  0  0  0  0  0
    7.2793   -2.3222   15.0516 H   0  0  0  0  0  0  0  0  0  0  0  0
    7.4893   -2.5337   16.6240 H   0  0  0  0  0  0  0  0  0  0  0  0
    8.6672   -2.8971   15.6034 H   0  0  0  0  0  0  0  0  0  0  0  0
    7.3079    0.1243   16.1590 C   0  0  0  0  0  0  0  0  0  0  0  0
    7.6280    1.0436   16.0426 H   0  0  0  0  0  0  0  0  0  0  0  0
    6.9753    0.0080   17.0734 H   0  0  0  0  0  0  0  0  0  0  0  0
    6.5836   -0.0519   15.5229 H   0  0  0  0  0  0  0  0  0  0  0  0
    8.7251   -0.3705   12.9600 C   0  0  0  0  0  0  0  0  0  0  0  0
    9.3910   -0.0649   12.2788 H   0  0  0  0  0  0  0  0  0  0  0  0
    7.5865    0.6167   12.8631 C   0  0  0  0  0  0  0  0  0  0  0  0
    6.8528    0.3271   13.4440 H   0  0  0  0  0  0  0  0  0  0  0  0
    7.2715    0.6619   11.9361 H   0  0  0  0  0  0  0  0  0  0  0  0
    7.8973    1.5023   13.1458 H   0  0  0  0  0  0  0  0  0  0  0  0
    8.2971   -1.7607   12.4921 C   0  0  0  0  0  0  0  0  0  0  0  0
    9.0196   -2.4000   12.6623 H   0  0  0  0  0  0  0  0  0  0  0  0
    8.0989   -1.7366   11.5338 H   0  0  0  0  0  0  0  0  0  0  0  0
    7.4948   -2.0369   12.9850 H   0  0  0  0  0  0  0  0  0  0  0  0
   10.7055    3.9209   17.4855 C   0  0  0  0  0  0  0  0  0  0  0  0
   10.9740    4.0886   18.8386 C   0  0  0  0  0  0  0  0  0  0  0  0
   10.7947    3.3861   19.4527 H   0  0  0  0  0  0  0  0  0  0  0  0
   11.5090    5.2906   19.2880 C   0  0  0  0  0  0  0  0  0  0  0  0
   11.6993    5.4028   20.2119 H   0  0  0  0  0  0  0  0  0  0  0  0
   11.7694    6.3272   18.4063 C   0  0  0  0  0  0  0  0  0  0  0  0
   12.1584    7.1349   18.7199 H   0  0  0  0  0  0  0  0  0  0  0  0
   11.4524    6.1788   17.0523 C   0  0  0  0  0  0  0  0  0  0  0  0
   11.5959    6.8972   16.4472 H   0  0  0  0  0  0  0  0  0  0  0  0
   10.9356    4.9877   16.6022 C   0  0  0  0  0  0  0  0  0  0  0  0
   10.7305    4.8856   15.6802 H   0  0  0  0  0  0  0  0  0  0  0  0
    9.5124    1.4880   18.2614 C   0  0  0  0  0  0  0  0  0  0  0  0
   10.1100    0.3198   18.7417 C   0  0  0  0  0  0  0  0  0  0  0  0
   10.8272   -0.0796   18.2645 H   0  0  0  0  0  0  0  0  0  0  0  0
    9.6477   -0.2583   19.9240 C   0  0  0  0  0  0  0  0  0  0  0  0
   10.0623   -1.0451   20.2557 H   0  0  0  0  0  0  0  0  0  0  0  0
    8.5999    0.2981   20.6141 C   0  0  0  0  0  0  0  0  0  0  0  0
    8.2807   -0.1179   21.4064 H   0  0  0  0  0  0  0  0  0  0  0  0
    8.0044    1.4614   20.1609 C   0  0  0  0  0  0  0  0  0  0  0  0
    7.2918    1.8532   20.6506 H   0  0  0  0  0  0  0  0  0  0  0  0
    8.4505    2.0540   18.9951 C   0  0  0  0  0  0  0  0  0  0  0  0
    8.0360    2.8500   18.6849 H   0  0  0  0  0  0  0  0  0  0  0  0
    9.7405    4.1514   13.3754 C   0  0  0  0  0  0  0  0  0  0  0  0
    8.4828    4.0886   13.9878 C   0  0  0  0  0  0  0  0  0  0  0  0
    8.1715    3.2569   14.3254 H   0  0  0  0  0  0  0  0  0  0  0  0
    7.6834    5.2157   14.1123 C   0  0  0  0  0  0  0  0  0  0  0  0
    6.8329    5.1526   14.5323 H   0  0  0  0  0  0  0  0  0  0  0  0
    8.1255    6.4298   13.6223 C   0  0  0  0  0  0  0  0  0  0  0  0
    7.5751    7.1996   13.6984 H   0  0  0  0  0  0  0  0  0  0  0  0
    9.3751    6.5287   13.0184 C   0  0  0  0  0  0  0  0  0  0  0  0
    9.6875    7.3690   12.7024 H   0  0  0  0  0  0  0  0  0  0  0  0
   10.1604    5.3992   12.8801 C   0  0  0  0  0  0  0  0  0  0  0  0
   11.0012    5.4673   12.4422 H   0  0  0  0  0  0  0  0  0  0  0  0
   10.5803    2.0805   11.6115 C   0  0  0  0  0  0  0  0  0  0  0  0
    9.5366    2.5077   10.8013 C   0  0  0  0  0  0  0  0  0  0  0  0
    8.9318    3.1674   11.1199 H   0  0  0  0  0  0  0  0  0  0  0  0
    9.3691    1.9767    9.5308 C   0  0  0  0  0  0  0  0  0  0  0  0
    8.6221    2.2463    9.0083 H   0  0  0  0  0  0  0  0  0  0  0  0
   10.2492    1.0813    9.0204 C   0  0  0  0  0  0  0  0  0  0  0  0
   10.1369    0.7488    8.1377 H   0  0  0  0  0  0  0  0  0  0  0  0
   11.3333    0.6480    9.8082 C   0  0  0  0  0  0  0  0  0  0  0  0
   11.9514    0.0161    9.4619 H   0  0  0  0  0  0  0  0  0  0  0  0
   11.4908    1.1440   11.0806 C   0  0  0  0  0  0  0  0  0  0  0  0
   12.2241    0.8517   11.6096 H   0  0  0  0  0  0  0  0  0  0  0  0
   12.5950   -0.2800   14.1803 B   0  0  0  0  0  0  0  0  0  0  0  0
   12.2741   -0.5201   15.8476 B   0  0  0  0  0  0  0  0  0  0  0  0
   12.8232   -1.8838   13.3600 B   0  0  0  0  0  0  0  0  0  0  0  0
   12.3346   -2.2084   12.3917 H   0  0  0  0  0  0  0  0  0  0  0  0
   14.2444   -0.9316   13.7680 B   0  0  0  0  0  0  0  0  0  0  0  0
   14.9994   -0.3138   13.0215 H   0  0  0  0  0  0  0  0  0  0  0  0
   12.2882   -2.3074   16.1957 B   0  0  0  0  0  0  0  0  0  0  0  0
   11.5473   -2.7635   16.8313 H   0  0  0  0  0  0  0  0  0  0  0  0
   12.6233   -3.1485   14.6320 B   0  0  0  0  0  0  0  0  0  0  0  0
   11.9914   -4.0186   14.2618 H   0  0  0  0  0  0  0  0  0  0  0  0
   14.2323   -2.6996   14.0794 B   0  0  0  0  0  0  0  0  0  0  0  0
   14.8783   -3.3187   13.5199 H   0  0  0  0  0  0  0  0  0  0  0  0
   14.9408   -1.6147   15.3140 B   0  0  0  0  0  0  0  0  0  0  0  0
   16.0088   -1.4119   15.6142 H   0  0  0  0  0  0  0  0  0  0  0  0
   13.7033   -1.3576   16.6184 B   0  0  0  0  0  0  0  0  0  0  0  0
   14.1111   -1.0499   17.5964 H   0  0  0  0  0  0  0  0  0  0  0  0
   13.9072   -2.9530   15.8402 B   0  0  0  0  0  0  0  0  0  0  0  0
   14.2928   -3.7652   16.2942 H   0  0  0  0  0  0  0  0  0  0  0  0
  1  2  1  0  0  0  0
  2  8  1  0  0  0  0
  3  1  1  0  0  0  0
  4  1  1  0  0  0  0
  5  4  1  0  0  0  0
  6  1  1  0  0  0  0
  7  6  1  0  0  0  0
  8 10  1  0  0  0  0
  9  3  1  0  0  0  0
 10 96  1  0  0  0  0
 11  9  1  0  0  0  0
 12  2  1  0  0  0  0
 13 12  1  0  0  0  0
 14 12  1  0  0  0  0
 15 14  1  0  0  0  0
 16 14  1  0  0  0  0
 17 14  1  0  0  0  0
 18 12  1  0  0  0  0
 19 18  1  0  0  0  0
 20 18  1  0  0  0  0
 21 18  1  0  0  0  0
 22  2  1  0  0  0  0
 23 22  1  0  0  0  0
 24 22  1  0  0  0  0
 25 24  1  0  0  0  0
 26 24  1  0  0  0  0
 27 24  1  0  0  0  0
 28 22  1  0  0  0  0
 29 28  1  0  0  0  0
 30 28  1  0  0  0  0
 31 28  1  0  0  0  0
 32  3  1  0  0  0  0
 33 32  1  0  0  0  0
 34 32  1  0  0  0  0
 35 34  1  0  0  0  0
 36 34  1  0  0  0  0
 37 34  1  0  0  0  0
 38 32  1  0  0  0  0
 39 38  1  0  0  0  0
 40 38  1  0  0  0  0
 41 38  1  0  0  0  0
 42  3  1  0  0  0  0
 43 42  1  0  0  0  0
 44 42  1  0  0  0  0
 45 44  1  0  0  0  0
 46 44  1  0  0  0  0
 47 44  1  0  0  0  0
 48 42  1  0  0  0  0
 49 48  1  0  0  0  0
 50 48  1  0  0  0  0
 51 48  1  0  0  0  0
 52  4  1  0  0  0  0
 53 52  4  0  0  0  0
 54 53  1  0  0  0  0
 55 53  4  0  0  0  0
 56 55  1  0  0  0  0
 57 55  4  0  0  0  0
 58 57  1  0  0  0  0
 59 57  4  0  0  0  0
 60 59  1  0  0  0  0
 61 52  4  0  0  0  0
 62 61  1  0  0  0  0
 63  4  1  0  0  0  0
 64 63  4  0  0  0  0
 65 64  1  0  0  0  0
 66 64  4  0  0  0  0
 67 66  1  0  0  0  0
 68 66  4  0  0  0  0
 69 68  1  0  0  0  0
 70 68  4  0  0  0  0
 71 70  1  0  0  0  0
 72 63  4  0  0  0  0
 73 72  1  0  0  0  0
 74  6  1  0  0  0  0
 75 74  4  0  0  0  0
 76 75  1  0  0  0  0
 77 75  4  0  0  0  0
 78 77  1  0  0  0  0
 79 77  4  0  0  0  0
 80 79  1  0  0  0  0
 81 79  4  0  0  0  0
 82 81  1  0  0  0  0
 83 74  4  0  0  0  0
 84 83  1  0  0  0  0
 85  6  1  0  0  0  0
 86 85  4  0  0  0  0
 87 86  1  0  0  0  0
 88 86  4  0  0  0  0
 89 88  1  0  0  0  0
 90 88  4  0  0  0  0
 91 90  1  0  0  0  0
 92 90  4  0  0  0  0
 93 92  1  0  0  0  0
 94 85  4  0  0  0  0
 95 94  1  0  0  0  0
 96  1  1  0  0  0  0
 97  1  1  0  0  0  0
 98 11  1  0  0  0  0
 99 98  1  0  0  0  0
100 10  1  0  0  0  0
101100  1  0  0  0  0
102 11  1  0  0  0  0
103102  1  0  0  0  0
104 11  1  0  0  0  0
105104  1  0  0  0  0
106 98  1  0  0  0  0
107106  1  0  0  0  0
108 10  1  0  0  0  0
109108  1  0  0  0  0
110 10  1  0  0  0  0
111110  1  0  0  0  0
112102  1  0  0  0  0
113112  1  0  0  0  0
 10 97  1  0  0  0  0
 11 96  1  0  0  0  0
 11 97  1  0  0  0  0
 59 61  4  0  0  0  0
 70 72  4  0  0  0  0
 81 83  4  0  0  0  0
 92 94  4  0  0  0  0
 96 97  1  0  0  0  0
 96 98  1  0  0  0  0
 96100  1  0  0  0  0
 97102  1  0  0  0  0
 97110  1  0  0  0  0
 98100  1  0  0  0  0
 98104  1  0  0  0  0
100106  1  0  0  0  0
100108  1  0  0  0  0
102104  1  0  0  0  0
102110  1  0  0  0  0
104106  1  0  0  0  0
104112  1  0  0  0  0
106108  1  0  0  0  0
106112  1  0  0  0  0
108110  1  0  0  0  0
108112  1  0  0  0  0
110112  1  0  0  0  0
M  END
$$$$
TORWAC

From CSD data. Using bond type 'Any'. No disordered atoms. Largest molecule.
 69 92  0  0  0  0  0  0  0  0999 V2000
    2.6398    1.9937    9.2522 Ru  0  0  0  0  0  0  0  0  0  0  0  0
    2.3818    3.1940    7.2258 Cl  0  0  0  0  0  0  0  0  0  0  0  0
    3.2009    0.1366    7.8744 Cl  0  0  0  0  0  0  0  0  0  0  0  0
    4.8124    2.8101    9.5686 P   0  0  0  0  0  0  0  0  0  0  0  0
    0.4163    1.3080    9.4584 P   0  0  0  0  0  0  0  0  0  0  0  0
    4.8440    3.1427   11.2264 O   0  0  0  0  0  0  0  0  0  0  0  0
    0.0968    1.5606   11.0961 O   0  0  0  0  0  0  0  0  0  0  0  0
    3.6801    2.9174   11.9488 C   0  0  0  0  0  0  0  0  0  0  0  0
    1.1242    2.0560   11.8764 C   0  0  0  0  0  0  0  0  0  0  0  0
    5.3105    4.4129    8.8453 C   0  0  0  0  0  0  0  0  0  0  0  0
    5.3143    4.2925    7.8525 H   0  0  0  0  0  0  0  0  0  0  0  0
    4.2894    5.5087    9.1536 C   0  0  0  0  0  0  0  0  0  0  0  0
    3.4018    5.2225    8.8527 H   0  0  0  0  0  0  0  0  0  0  0  0
    4.5428    6.3322    8.6865 H   0  0  0  0  0  0  0  0  0  0  0  0
    4.2692    5.6741   10.1194 H   0  0  0  0  0  0  0  0  0  0  0  0
    6.7178    4.8720    9.2406 C   0  0  0  0  0  0  0  0  0  0  0  0
    6.7640    4.9832   10.2131 H   0  0  0  0  0  0  0  0  0  0  0  0
    6.9166    5.7270    8.8043 H   0  0  0  0  0  0  0  0  0  0  0  0
    7.3725    4.2006    8.9568 H   0  0  0  0  0  0  0  0  0  0  0  0
    6.2689    1.7333    9.4076 C   0  0  0  0  0  0  0  0  0  0  0  0
    7.0463    2.1876    9.8423 H   0  0  0  0  0  0  0  0  0  0  0  0
    6.0509    0.3822   10.0995 C   0  0  0  0  0  0  0  0  0  0  0  0
    5.8853    0.5269   11.0545 H   0  0  0  0  0  0  0  0  0  0  0  0
    6.8493   -0.1753    9.9873 H   0  0  0  0  0  0  0  0  0  0  0  0
    5.2787   -0.0695    9.6990 H   0  0  0  0  0  0  0  0  0  0  0  0
    6.5771    1.5715    7.9159 C   0  0  0  0  0  0  0  0  0  0  0  0
    5.7619    1.3072    7.4406 H   0  0  0  0  0  0  0  0  0  0  0  0
    7.2631    0.8821    7.7968 H   0  0  0  0  0  0  0  0  0  0  0  0
    6.9035    2.4228    7.5559 H   0  0  0  0  0  0  0  0  0  0  0  0
   -0.9558    2.2519    8.7102 C   0  0  0  0  0  0  0  0  0  0  0  0
   -1.8071    1.9650    9.1496 H   0  0  0  0  0  0  0  0  0  0  0  0
   -0.7946    3.7579    8.9221 C   0  0  0  0  0  0  0  0  0  0  0  0
   -0.8227    3.9574    9.8811 H   0  0  0  0  0  0  0  0  0  0  0  0
   -1.5227    4.2312    8.4683 H   0  0  0  0  0  0  0  0  0  0  0  0
    0.0650    4.0492    8.5527 H   0  0  0  0  0  0  0  0  0  0  0  0
   -1.0422    1.8916    7.2193 C   0  0  0  0  0  0  0  0  0  0  0  0
   -0.1769    2.0616    6.7917 H   0  0  0  0  0  0  0  0  0  0  0  0
   -1.7318    2.4402    6.7903 H   0  0  0  0  0  0  0  0  0  0  0  0
   -1.2728    0.9441    7.1250 H   0  0  0  0  0  0  0  0  0  0  0  0
   -0.0366   -0.4521    9.2751 C   0  0  0  0  0  0  0  0  0  0  0  0
    0.0784   -0.6842    8.3091 H   0  0  0  0  0  0  0  0  0  0  0  0
    0.8970   -1.3634   10.0659 C   0  0  0  0  0  0  0  0  0  0  0  0
    1.8249   -1.1853    9.8056 H   0  0  0  0  0  0  0  0  0  0  0  0
    0.6782   -2.2994    9.8762 H   0  0  0  0  0  0  0  0  0  0  0  0
    0.7878   -1.1899   11.0244 H   0  0  0  0  0  0  0  0  0  0  0  0
   -1.4974   -0.7407    9.6329 C   0  0  0  0  0  0  0  0  0  0  0  0
   -1.6763   -0.4350   10.5467 H   0  0  0  0  0  0  0  0  0  0  0  0
   -1.6643   -1.7046    9.5726 H   0  0  0  0  0  0  0  0  0  0  0  0
   -2.0863   -0.2675    9.0089 H   0  0  0  0  0  0  0  0  0  0  0  0
    2.7230    1.5689   11.4606 B   0  0  0  0  0  0  0  0  0  0  0  0
    2.9522    0.8745   10.5602 H   0  0  0  0  0  0  0  0  0  0  0  0
    2.2016    3.1719   11.1203 B   0  0  0  0  0  0  0  0  0  0  0  0
    2.1076    3.4894    9.9894 H   0  0  0  0  0  0  0  0  0  0  0  0
    1.9398    0.9865   12.9407 B   0  0  0  0  0  0  0  0  0  0  0  0
    1.5980   -0.0262   13.0320 H   0  0  0  0  0  0  0  0  0  0  0  0
    3.6229    1.5479   12.9825 B   0  0  0  0  0  0  0  0  0  0  0  0
    4.4658    0.9620   13.0993 H   0  0  0  0  0  0  0  0  0  0  0  0
    1.0465    3.7036   12.3645 B   0  0  0  0  0  0  0  0  0  0  0  0
    0.2028    4.2502   12.1031 H   0  0  0  0  0  0  0  0  0  0  0  0
    0.8884    2.3262   13.5118 B   0  0  0  0  0  0  0  0  0  0  0  0
   -0.0354    2.0901   13.9421 H   0  0  0  0  0  0  0  0  0  0  0  0
    2.4845    2.0481   14.2464 B   0  0  0  0  0  0  0  0  0  0  0  0
    2.5844    1.6878   15.2265 H   0  0  0  0  0  0  0  0  0  0  0  0
    3.6251    3.2428   13.5891 B   0  0  0  0  0  0  0  0  0  0  0  0
    4.4707    3.6206   14.0983 H   0  0  0  0  0  0  0  0  0  0  0  0
    2.7316    4.2695   12.4138 B   0  0  0  0  0  0  0  0  0  0  0  0
    3.0795    5.2297   12.1758 H   0  0  0  0  0  0  0  0  0  0  0  0
    1.9325    3.7194   13.8977 B   0  0  0  0  0  0  0  0  0  0  0  0
    1.6877    4.4076   14.6502 H   0  0  0  0  0  0  0  0  0  0  0  0
  1  2  1  0  0  0  0
  3  1  1  0  0  0  0
  4  1  1  0  0  0  0
  5  1  1  0  0  0  0
  6  4  1  0  0  0  0
  7  5  1  0  0  0  0
  8  6  1  0  0  0  0
  9  7  1  0  0  0  0
 10  4  1  0  0  0  0
 11 10  1  0  0  0  0
 12 10  1  0  0  0  0
 13 12  1  0  0  0  0
 14 12  1  0  0  0  0
 15 12  1  0  0  0  0
 16 10  1  0  0  0  0
 17 16  1  0  0  0  0
 18 16  1  0  0  0  0
 19 16  1  0  0  0  0
 20  4  1  0  0  0  0
 21 20  1  0  0  0  0
 22 20  1  0  0  0  0
 23 22  1  0  0  0  0
 24 22  1  0  0  0  0
 25 22  1  0  0  0  0
 26 20  1  0  0  0  0
 27 26  1  0  0  0  0
 28 26  1  0  0  0  0
 29 26  1  0  0  0  0
 30  5  1  0  0  0  0
 31 30  1  0  0  0  0
 32 30  1  0  0  0  0
 33 32  1  0  0  0  0
 34 32  1  0  0  0  0
 35 32  1  0  0  0  0
 36 30  1  0  0  0  0
 37 36  1  0  0  0  0
 38 36  1  0  0  0  0
 39 36  1  0  0  0  0
 40  5  1  0  0  0  0
 41 40  1  0  0  0  0
 42 40  1  0  0  0  0
 43 42  1  0  0  0  0
 44 42  1  0  0  0  0
 45 42  1  0  0  0  0
 46 40  1  0  0  0  0
 47 46  1  0  0  0  0
 48 46  1  0  0  0  0
 49 46  1  0  0  0  0
 50  1  1  0  0  0  0
 51  1  1  0  0  0  0
 52  1  1  0  0  0  0
 53  1  1  0  0  0  0
 54  9  1  0  0  0  0
 55 54  1  0  0  0  0
 56  8  1  0  0  0  0
 57 56  1  0  0  0  0
 58  9  1  0  0  0  0
 59 58  1  0  0  0  0
 60  9  1  0  0  0  0
 61 60  1  0  0  0  0
 62 54  1  0  0  0  0
 63 62  1  0  0  0  0
 64  8  1  0  0  0  0
 65 64  1  0  0  0  0
 66  8  1  0  0  0  0
 67 66  1  0  0  0  0
 68 58  1  0  0  0  0
 69 68  1  0  0  0  0
  8 50  1  0  0  0  0
  8 52  1  0  0  0  0
  9 50  1  0  0  0  0
  9 52  1  0  0  0  0
 50 51  1  0  0  0  0
 50 52  1  0  0  0  0
 50 54  1  0  0  0  0
 50 56  1  0  0  0  0
 52 53  1  0  0  0  0
 52 58  1  0  0  0  0
 52 66  1  0  0  0  0
 54 56  1  0  0  0  0
 54 60  1  0  0  0  0
 56 62  1  0  0  0  0
 56 64  1  0  0  0  0
 58 60  1  0  0  0  0
 58 66  1  0  0  0  0
 60 62  1  0  0  0  0
 60 68  1  0  0  0  0
 62 64  1  0  0  0  0
 62 68  1  0  0  0  0
 64 66  1  0  0  0  0
 64 68  1  0  0  0  0
 66 68  1  0  0  0  0
M  END
$$$$
TORWEG

From CSD data. Using bond type 'Any'. No disordered atoms. Largest molecule.
111136  0  0  0  0  0  0  0  0999 V2000
    7.8352    0.1512    9.6411 Ru  0  0  0  0  0  0  0  0  0  0  0  0
    5.5100    0.0820    9.2090 P   0  0  0  0  0  0  0  0  0  0  0  0
    9.9858    0.8907    8.9860 P   0  0  0  0  0  0  0  0  0  0  0  0
    8.0935   -2.2132    9.6113 P   0  0  0  0  0  0  0  0  0  0  0  0
    7.4825   -2.7169    8.5088 H   0  0  0  0  0  0  0  0  0  0  0  0
    5.2010    0.5968    7.6301 O   0  0  0  0  0  0  0  0  0  0  0  0
    9.9428    1.4264    7.3930 O   0  0  0  0  0  0  0  0  0  0  0  0
    8.0274    0.3866   12.6853 O   0  0  0  0  0  0  0  0  0  0  0  0
    6.2856    0.6149    6.7687 C   0  0  0  0  0  0  0  0  0  0  0  0
    8.8428    1.0466    6.6384 C   0  0  0  0  0  0  0  0  0  0  0  0
    7.9594    0.2802   11.5531 C   0  0  0  0  0  0  0  0  0  0  0  0
    4.4310    1.3515   10.0160 C   0  0  0  0  0  0  0  0  0  0  0  0
    4.8426    2.2088    9.7807 H   0  0  0  0  0  0  0  0  0  0  0  0
    3.0299    1.4455    9.4816 C   0  0  0  0  0  0  0  0  0  0  0  0
    3.0552    1.4647    8.5216 H   0  0  0  0  0  0  0  0  0  0  0  0
    2.6167    2.2480    9.8068 H   0  0  0  0  0  0  0  0  0  0  0  0
    2.5244    0.6834    9.7728 H   0  0  0  0  0  0  0  0  0  0  0  0
    4.4800    1.3099   11.5401 C   0  0  0  0  0  0  0  0  0  0  0  0
    3.9269    0.5931   11.8591 H   0  0  0  0  0  0  0  0  0  0  0  0
    4.1600    2.1430   11.8936 H   0  0  0  0  0  0  0  0  0  0  0  0
    5.3853    1.1673   11.8277 H   0  0  0  0  0  0  0  0  0  0  0  0
    4.5940   -1.5342    9.1885 C   0  0  0  0  0  0  0  0  0  0  0  0
    5.2692   -2.2108    8.9703 H   0  0  0  0  0  0  0  0  0  0  0  0
    3.5156   -1.6833    8.1184 C   0  0  0  0  0  0  0  0  0  0  0  0
    2.8281   -1.0292    8.2633 H   0  0  0  0  0  0  0  0  0  0  0  0
    3.1346   -2.5637    8.1683 H   0  0  0  0  0  0  0  0  0  0  0  0
    3.9044   -1.5524    7.2506 H   0  0  0  0  0  0  0  0  0  0  0  0
    4.0818   -1.9100   10.5725 C   0  0  0  0  0  0  0  0  0  0  0  0
    4.7687   -1.7483   11.2226 H   0  0  0  0  0  0  0  0  0  0  0  0
    3.8430   -2.8400   10.5832 H   0  0  0  0  0  0  0  0  0  0  0  0
    3.3101   -1.3792   10.7825 H   0  0  0  0  0  0  0  0  0  0  0  0
   10.8283    2.3873    9.7125 C   0  0  0  0  0  0  0  0  0  0  0  0
   11.7825    2.2252    9.5565 H   0  0  0  0  0  0  0  0  0  0  0  0
   10.5734    3.6971    9.0666 C   0  0  0  0  0  0  0  0  0  0  0  0
   10.6934    3.6137    8.1172 H   0  0  0  0  0  0  0  0  0  0  0  0
   11.1885    4.3488    9.4103 H   0  0  0  0  0  0  0  0  0  0  0  0
    9.6741    3.9755    9.2520 H   0  0  0  0  0  0  0  0  0  0  0  0
   10.6967    2.4113   11.2470 C   0  0  0  0  0  0  0  0  0  0  0  0
    9.8025    2.6633   11.4881 H   0  0  0  0  0  0  0  0  0  0  0  0
   11.3177    3.0457   11.6125 H   0  0  0  0  0  0  0  0  0  0  0  0
   10.8883    1.5381   11.5983 H   0  0  0  0  0  0  0  0  0  0  0  0
   11.4052   -0.2928    8.8344 C   0  0  0  0  0  0  0  0  0  0  0  0
   11.0246   -1.1542    8.5624 H   0  0  0  0  0  0  0  0  0  0  0  0
   12.4250    0.0997    7.7513 C   0  0  0  0  0  0  0  0  0  0  0  0
   12.7927    0.9624    7.9567 H   0  0  0  0  0  0  0  0  0  0  0  0
   11.9877    0.1332    6.8975 H   0  0  0  0  0  0  0  0  0  0  0  0
   13.1297   -0.5510    7.7253 H   0  0  0  0  0  0  0  0  0  0  0  0
   12.0809   -0.5178   10.1834 C   0  0  0  0  0  0  0  0  0  0  0  0
   12.6772   -1.2682   10.1220 H   0  0  0  0  0  0  0  0  0  0  0  0
   11.4133   -0.6944   10.8508 H   0  0  0  0  0  0  0  0  0  0  0  0
   12.5779    0.2661   10.4280 H   0  0  0  0  0  0  0  0  0  0  0  0
    7.2360   -3.2475   10.8604 C   0  0  0  0  0  0  0  0  0  0  0  0
    9.6723   -3.1558    9.5439 C   0  0  0  0  0  0  0  0  0  0  0  0
    6.6025   -4.4061   10.4622 C   0  0  0  0  0  0  0  0  0  0  0  0
    6.5969   -4.6414    9.5626 H   0  0  0  0  0  0  0  0  0  0  0  0
   10.1100   -3.7194    8.3675 C   0  0  0  0  0  0  0  0  0  0  0  0
    9.6050   -3.6317    7.5916 H   0  0  0  0  0  0  0  0  0  0  0  0
    5.9818   -5.2160   11.3793 C   0  0  0  0  0  0  0  0  0  0  0  0
    5.5562   -5.9928   11.0945 H   0  0  0  0  0  0  0  0  0  0  0  0
   11.3204   -4.4281    8.3428 C   0  0  0  0  0  0  0  0  0  0  0  0
   11.6190   -4.8086    7.5481 H   0  0  0  0  0  0  0  0  0  0  0  0
    5.9826   -4.8940   12.7023 C   0  0  0  0  0  0  0  0  0  0  0  0
    5.5490   -5.4404   13.3173 H   0  0  0  0  0  0  0  0  0  0  0  0
   12.0460   -4.5591    9.4622 C   0  0  0  0  0  0  0  0  0  0  0  0
   12.8510   -5.0244    9.4303 H   0  0  0  0  0  0  0  0  0  0  0  0
    6.6287   -3.7535   13.1225 C   0  0  0  0  0  0  0  0  0  0  0  0
    6.6519   -3.5380   14.0267 H   0  0  0  0  0  0  0  0  0  0  0  0
   11.6343   -4.0269   10.6425 C   0  0  0  0  0  0  0  0  0  0  0  0
   12.1379   -4.1381   11.4167 H   0  0  0  0  0  0  0  0  0  0  0  0
    7.2421   -2.9309   12.2016 C   0  0  0  0  0  0  0  0  0  0  0  0
    7.6657   -2.1541   12.4882 H   0  0  0  0  0  0  0  0  0  0  0  0
   10.4477   -3.3156   10.6672 C   0  0  0  0  0  0  0  0  0  0  0  0
   10.1661   -2.9360   11.4684 H   0  0  0  0  0  0  0  0  0  0  0  0
    7.2902    2.8292    8.2442 C   0  0  0  0  0  0  0  0  0  0  0  0
    7.4526    2.2467    9.5115 C   0  0  0  0  0  0  0  0  0  0  0  0
    7.3360    3.1011   10.6153 C   0  0  0  0  0  0  0  0  0  0  0  0
    7.3975    2.7354   11.4678 H   0  0  0  0  0  0  0  0  0  0  0  0
    7.1317    4.4684   10.4960 C   0  0  0  0  0  0  0  0  0  0  0  0
    7.0133    5.0208    9.2222 C   0  0  0  0  0  0  0  0  0  0  0  0
    6.8921    5.9370    9.1206 H   0  0  0  0  0  0  0  0  0  0  0  0
    7.0767    4.2032    8.1145 C   0  0  0  0  0  0  0  0  0  0  0  0
    6.9760    4.5724    7.2668 H   0  0  0  0  0  0  0  0  0  0  0  0
    7.0949    5.3144   11.7230 C   0  0  0  0  0  0  0  0  0  0  0  0
    6.3664    4.9414   12.8229 C   0  0  0  0  0  0  0  0  0  0  0  0
    5.8684    4.1559   12.7969 H   0  0  0  0  0  0  0  0  0  0  0  0
    6.3611    5.7128   13.9734 C   0  0  0  0  0  0  0  0  0  0  0  0
    5.8477    5.4510   14.7034 H   0  0  0  0  0  0  0  0  0  0  0  0
    7.0992    6.8485   14.0409 C   0  0  0  0  0  0  0  0  0  0  0  0
    7.1007    7.3619   14.8161 H   0  0  0  0  0  0  0  0  0  0  0  0
    7.8370    7.2303   12.9630 C   0  0  0  0  0  0  0  0  0  0  0  0
    8.3505    8.0039   13.0091 H   0  0  0  0  0  0  0  0  0  0  0  0
    7.8312    6.4804   11.8021 C   0  0  0  0  0  0  0  0  0  0  0  0
    8.3281    6.7634   11.0687 H   0  0  0  0  0  0  0  0  0  0  0  0
    7.7266    0.1408    7.5282 B   0  0  0  0  0  0  0  0  0  0  0  0
    7.3984    1.8660    7.0392 B   0  0  0  0  0  0  0  0  0  0  0  0
    8.6677   -0.6061    6.2104 B   0  0  0  0  0  0  0  0  0  0  0  0
    9.4137   -1.2934    6.4724 H   0  0  0  0  0  0  0  0  0  0  0  0
    6.9494   -0.8996    6.2960 B   0  0  0  0  0  0  0  0  0  0  0  0
    6.4608   -1.7630    6.6034 H   0  0  0  0  0  0  0  0  0  0  0  0
    8.1709    2.1469    5.4879 B   0  0  0  0  0  0  0  0  0  0  0  0
    8.6569    3.0750    5.3050 H   0  0  0  0  0  0  0  0  0  0  0  0
    8.9664    0.6301    4.9860 B   0  0  0  0  0  0  0  0  0  0  0  0
    9.8672    0.6733    4.4749 H   0  0  0  0  0  0  0  0  0  0  0  0
    7.7065   -0.5872    4.7382 B   0  0  0  0  0  0  0  0  0  0  0  0
    7.7755   -1.3858    3.9950 H   0  0  0  0  0  0  0  0  0  0  0  0
    6.1441    0.1638    5.1209 B   0  0  0  0  0  0  0  0  0  0  0  0
    5.2565   -0.1172    4.7603 H   0  0  0  0  0  0  0  0  0  0  0  0
    6.4336    1.8602    5.5761 B   0  0  0  0  0  0  0  0  0  0  0  0
    5.6401    2.5592    5.4737 H   0  0  0  0  0  0  0  0  0  0  0  0
    7.3957    1.1060    4.2985 B   0  0  0  0  0  0  0  0  0  0  0  0
    7.3339    1.4082    3.3075 H   0  0  0  0  0  0  0  0  0  0  0  0
  1  2  1  0  0  0  0
  2  6  1  0  0  0  0
  3  1  1  0  0  0  0
  4  1  1  0  0  0  0
  5  4  1  0  0  0  0
  6  9  1  0  0  0  0
  7  3  1  0  0  0  0
  8 11  3  0  0  0  0
  9 94  1  0  0  0  0
 10  7  1  0  0  0  0
 11  1  1  0  0  0  0
 12  2  1  0  0  0  0
 13 12  1  0  0  0  0
 14 12  1  0  0  0  0
 15 14  1  0  0  0  0
 16 14  1  0  0  0  0
 17 14  1  0  0  0  0
 18 12  1  0  0  0  0
 19 18  1  0  0  0  0
 20 18  1  0  0  0  0
 21 18  1  0  0  0  0
 22  2  1  0  0  0  0
 23 22  1  0  0  0  0
 24 22  1  0  0  0  0
 25 24  1  0  0  0  0
 26 24  1  0  0  0  0
 27 24  1  0  0  0  0
 28 22  1  0  0  0  0
 29 28  1  0  0  0  0
 30 28  1  0  0  0  0
 31 28  1  0  0  0  0
 32  3  1  0  0  0  0
 33 32  1  0  0  0  0
 34 32  1  0  0  0  0
 35 34  1  0  0  0  0
 36 34  1  0  0  0  0
 37 34  1  0  0  0  0
 38 32  1  0  0  0  0
 39 38  1  0  0  0  0
 40 38  1  0  0  0  0
 41 38  1  0  0  0  0
 42  3  1  0  0  0  0
 43 42  1  0  0  0  0
 44 42  1  0  0  0  0
 45 44  1  0  0  0  0
 46 44  1  0  0  0  0
 47 44  1  0  0  0  0
 48 42  1  0  0  0  0
 49 48  1  0  0  0  0
 50 48  1  0  0  0  0
 51 48  1  0  0  0  0
 52  4  1  0  0  0  0
 53  4  1  0  0  0  0
 54 52  4  0  0  0  0
 55 54  1  0  0  0  0
 56 53  4  0  0  0  0
 57 56  1  0  0  0  0
 58 54  4  0  0  0  0
 59 58  1  0  0  0  0
 60 56  4  0  0  0  0
 61 60  1  0  0  0  0
 62 58  4  0  0  0  0
 63 62  1  0  0  0  0
 64 60  4  0  0  0  0
 65 64  1  0  0  0  0
 66 62  4  0  0  0  0
 67 66  1  0  0  0  0
 68 64  4  0  0  0  0
 69 68  1  0  0  0  0
 70 52  4  0  0  0  0
 71 70  1  0  0  0  0
 72 53  4  0  0  0  0
 73 72  1  0  0  0  0
 74 75  4  0  0  0  0
 75  1  1  0  0  0  0
 76 75  4  0  0  0  0
 77 76  1  0  0  0  0
 78 76  4  0  0  0  0
 79 78  4  0  0  0  0
 80 79  1  0  0  0  0
 81 74  4  0  0  0  0
 82 81  1  0  0  0  0
 83 78  1  0  0  0  0
 84 83  4  0  0  0  0
 85 84  1  0  0  0  0
 86 84  4  0  0  0  0
 87 86  1  0  0  0  0
 88 86  4  0  0  0  0
 89 88  1  0  0  0  0
 90 88  4  0  0  0  0
 91 90  1  0  0  0  0
 92 83  4  0  0  0  0
 93 92  1  0  0  0  0
 94  1  1  0  0  0  0
 95  9  1  0  0  0  0
 96 10  1  0  0  0  0
 97 96  1  0  0  0  0
 98  9  1  0  0  0  0
 99 98  1  0  0  0  0
100 10  1  0  0  0  0
101100  1  0  0  0  0
102 10  1  0  0  0  0
103102  1  0  0  0  0
104 96  1  0  0  0  0
105104  1  0  0  0  0
106  9  1  0  0  0  0
107106  1  0  0  0  0
108  9  1  0  0  0  0
109108  1  0  0  0  0
110100  1  0  0  0  0
111110  1  0  0  0  0
 10 94  1  0  0  0  0
 10 95  1  0  0  0  0
 66 70  4  0  0  0  0
 68 72  4  0  0  0  0
 74 95  1  0  0  0  0
 79 81  4  0  0  0  0
 90 92  4  0  0  0  0
 94 95  1  0  0  0  0
 94 96  1  0  0  0  0
 94 98  1  0  0  0  0
 95100  1  0  0  0  0
 95108  1  0  0  0  0
 96 98  1  0  0  0  0
 96102  1  0  0  0  0
 98104  1  0  0  0  0
 98106  1  0  0  0  0
100102  1  0  0  0  0
100108  1  0  0  0  0
102104  1  0  0  0  0
102110  1  0  0  0  0
104106  1  0  0  0  0
104110  1  0  0  0  0
106108  1  0  0  0  0
106110  1  0  0  0  0
108110  1  0  0  0  0
M  END
$$$$
TOWTUU

From CSD data. Using bond type 'Any'. No disordered atoms. Largest molecule.
 92114  0  0  0  0  0  0  0  0999 V2000
    9.6569    4.1885    1.3722 Ru  0  0  0  0  0  0  0  0  0  0  0  0
    9.1490    5.0221    3.5642 Cl  0  0  0  0  0  0  0  0  0  0  0  0
   11.0609    5.7403    0.4730 P   0  0  0  0  0  0  0  0  0  0  0  0
    7.7157    4.9788    0.5078 P   0  0  0  0  0  0  0  0  0  0  0  0
    8.8263    2.3429    2.2069 O   0  0  0  0  0  0  0  0  0  0  0  0
    8.3004    1.2575    1.5945 C   0  0  0  0  0  0  0  0  0  0  0  0
    8.5235   -0.0545    2.3851 C   0  0  0  0  0  0  0  0  0  0  0  0
   12.1644    4.3695    0.0281 C   0  0  0  0  0  0  0  0  0  0  0  0
   13.5270    4.2424   -0.6753 C   0  0  0  0  0  0  0  0  0  0  0  0
   14.2763    5.4547   -1.1255 C   0  0  0  0  0  0  0  0  0  0  0  0
   12.0060    6.9652    1.4377 C   0  0  0  0  0  0  0  0  0  0  0  0
   12.7906    7.9364    0.8160 C   0  0  0  0  0  0  0  0  0  0  0  0
   13.6107    8.7643    1.5811 C   0  0  0  0  0  0  0  0  0  0  0  0
   13.6464    8.6230    2.9679 C   0  0  0  0  0  0  0  0  0  0  0  0
   12.8603    7.6535    3.5910 C   0  0  0  0  0  0  0  0  0  0  0  0
   12.0399    6.8237    2.8259 C   0  0  0  0  0  0  0  0  0  0  0  0
   10.6979    6.6089   -1.0827 C   0  0  0  0  0  0  0  0  0  0  0  0
   10.9922    6.0005   -2.3033 C   0  0  0  0  0  0  0  0  0  0  0  0
   10.7523    6.6793   -3.4972 C   0  0  0  0  0  0  0  0  0  0  0  0
   10.2167    7.9667   -3.4717 C   0  0  0  0  0  0  0  0  0  0  0  0
    9.9210    8.5753   -2.2524 C   0  0  0  0  0  0  0  0  0  0  0  0
   10.1623    7.8963   -1.0572 C   0  0  0  0  0  0  0  0  0  0  0  0
    7.6740    5.0490   -1.3292 C   0  0  0  0  0  0  0  0  0  0  0  0
    7.9993    3.9046   -2.0568 C   0  0  0  0  0  0  0  0  0  0  0  0
    7.9272    3.9216   -3.4503 C   0  0  0  0  0  0  0  0  0  0  0  0
    7.5291    5.0809   -4.1149 C   0  0  0  0  0  0  0  0  0  0  0  0
    7.2019    6.2251   -3.3860 C   0  0  0  0  0  0  0  0  0  0  0  0
    7.2742    6.2083   -1.9938 C   0  0  0  0  0  0  0  0  0  0  0  0
    7.0967    6.6127    1.0572 C   0  0  0  0  0  0  0  0  0  0  0  0
    5.7562    6.9217    0.8415 C   0  0  0  0  0  0  0  0  0  0  0  0
    5.2370    8.1407    1.2836 C   0  0  0  0  0  0  0  0  0  0  0  0
    6.0610    9.0469    1.9416 C   0  0  0  0  0  0  0  0  0  0  0  0
    7.4006    8.7338    2.1586 C   0  0  0  0  0  0  0  0  0  0  0  0
    7.9216    7.5151    1.7151 C   0  0  0  0  0  0  0  0  0  0  0  0
    6.2837    3.8963    0.9205 C   0  0  0  0  0  0  0  0  0  0  0  0
    5.9934    3.7484    2.2765 C   0  0  0  0  0  0  0  0  0  0  0  0
    4.9392    2.9288    2.6799 C   0  0  0  0  0  0  0  0  0  0  0  0
    4.1754    2.2575    1.7258 C   0  0  0  0  0  0  0  0  0  0  0  0
    4.4641    2.4058    0.3685 C   0  0  0  0  0  0  0  0  0  0  0  0
    5.5182    3.2251   -0.0335 C   0  0  0  0  0  0  0  0  0  0  0  0
   13.3780    2.2129    1.1791 B   0  0  0  0  0  0  0  0  0  0  0  0
   11.9466    3.2129    1.2930 B   0  0  0  0  0  0  0  0  0  0  0  0
   13.5189    3.9668    1.0183 B   0  0  0  0  0  0  0  0  0  0  0  0
   14.3654    2.8990   -0.0402 B   0  0  0  0  0  0  0  0  0  0  0  0
   13.3550    1.5258   -0.4824 B   0  0  0  0  0  0  0  0  0  0  0  0
   11.8174    1.7045    0.4422 B   0  0  0  0  0  0  0  0  0  0  0  0
   13.5032    2.9058   -1.6079 B   0  0  0  0  0  0  0  0  0  0  0  0
   11.8371    2.0219   -1.3131 B   0  0  0  0  0  0  0  0  0  0  0  0
   11.1146    3.1839   -0.2144 B   0  0  0  0  0  0  0  0  0  0  0  0
    7.3704    1.3950    1.4860 H   0  0  0  0  0  0  0  0  0  0  0  0
    8.7126    1.1748    0.7370 H   0  0  0  0  0  0  0  0  0  0  0  0
    9.4645   -0.1824    2.4842 H   0  0  0  0  0  0  0  0  0  0  0  0
    8.1240    0.0378    3.2332 H   0  0  0  0  0  0  0  0  0  0  0  0
    8.1643   -0.8114    1.9456 H   0  0  0  0  0  0  0  0  0  0  0  0
   13.6916    5.9410   -1.6883 H   0  0  0  0  0  0  0  0  0  0  0  0
   14.5722    6.0107   -0.4154 H   0  0  0  0  0  0  0  0  0  0  0  0
   15.0460    5.2659   -1.6481 H   0  0  0  0  0  0  0  0  0  0  0  0
   13.7897    1.6671    2.0461 H   0  0  0  0  0  0  0  0  0  0  0  0
   11.3989    3.3767    2.2337 H   0  0  0  0  0  0  0  0  0  0  0  0
   14.0141    4.6242    1.7526 H   0  0  0  0  0  0  0  0  0  0  0  0
   15.4647    2.8412   -0.0549 H   0  0  0  0  0  0  0  0  0  0  0  0
   13.7845    0.5388   -0.7102 H   0  0  0  0  0  0  0  0  0  0  0  0
   11.2201    0.8526    0.8013 H   0  0  0  0  0  0  0  0  0  0  0  0
   14.0321    2.8540   -2.5740 H   0  0  0  0  0  0  0  0  0  0  0  0
   11.2877    1.4378   -2.0608 H   0  0  0  0  0  0  0  0  0  0  0  0
   12.2246    2.7923   -1.9576 H   0  0  0  0  0  0  0  0  0  0  0  0
   10.0366    3.3977   -0.2613 H   0  0  0  0  0  0  0  0  0  0  0  0
   12.7666    8.0323   -0.1286 H   0  0  0  0  0  0  0  0  0  0  0  0
   14.1457    9.4263    1.1577 H   0  0  0  0  0  0  0  0  0  0  0  0
   14.2038    9.1891    3.4892 H   0  0  0  0  0  0  0  0  0  0  0  0
   12.8843    7.5576    4.5356 H   0  0  0  0  0  0  0  0  0  0  0  0
   11.5051    6.1636    3.2493 H   0  0  0  0  0  0  0  0  0  0  0  0
   11.3578    5.1224   -2.3194 H   0  0  0  0  0  0  0  0  0  0  0  0
   10.9525    6.2633   -4.3280 H   0  0  0  0  0  0  0  0  0  0  0  0
   10.0511    8.4286   -4.2851 H   0  0  0  0  0  0  0  0  0  0  0  0
    9.5548    9.4513   -2.2350 H   0  0  0  0  0  0  0  0  0  0  0  0
    9.9601    8.3103   -0.2264 H   0  0  0  0  0  0  0  0  0  0  0  0
    8.2716    3.1163   -1.6039 H   0  0  0  0  0  0  0  0  0  0  0  0
    8.1489    3.1406   -3.9461 H   0  0  0  0  0  0  0  0  0  0  0  0
    7.4790    5.0901   -5.0636 H   0  0  0  0  0  0  0  0  0  0  0  0
    6.9300    7.0153   -3.8389 H   0  0  0  0  0  0  0  0  0  0  0  0
    7.0525    6.9893   -1.4980 H   0  0  0  0  0  0  0  0  0  0  0  0
    5.1876    6.2944    0.3926 H   0  0  0  0  0  0  0  0  0  0  0  0
    4.3191    8.3431    1.1389 H   0  0  0  0  0  0  0  0  0  0  0  0
    5.7194    9.8783    2.2377 H   0  0  0  0  0  0  0  0  0  0  0  0
    7.9693    9.3613    2.6062 H   0  0  0  0  0  0  0  0  0  0  0  0
    8.8375    7.3121    1.8625 H   0  0  0  0  0  0  0  0  0  0  0  0
    6.5159    4.2069    2.9264 H   0  0  0  0  0  0  0  0  0  0  0  0
    4.7431    2.8279    3.6031 H   0  0  0  0  0  0  0  0  0  0  0  0
    3.4567    1.6978    2.0005 H   0  0  0  0  0  0  0  0  0  0  0  0
    3.9436    1.9489   -0.2800 H   0  0  0  0  0  0  0  0  0  0  0  0
    5.7145    3.3262   -0.9580 H   0  0  0  0  0  0  0  0  0  0  0  0
  1  2  1  0  0  0  0
  3  1  1  0  0  0  0
  4  1  1  0  0  0  0
  5  1  1  0  0  0  0
  6  5  1  0  0  0  0
  7  6  1  0  0  0  0
  8  3  1  0  0  0  0
  9  8  1  0  0  0  0
 10  9  1  0  0  0  0
 11  3  1  0  0  0  0
 12 11  4  0  0  0  0
 13 12  4  0  0  0  0
 14 13  4  0  0  0  0
 15 14  4  0  0  0  0
 16 11  4  0  0  0  0
 17  3  1  0  0  0  0
 18 17  4  0  0  0  0
 19 18  4  0  0  0  0
 20 19  4  0  0  0  0
 21 20  4  0  0  0  0
 22 17  4  0  0  0  0
 23  4  1  0  0  0  0
 24 23  4  0  0  0  0
 25 24  4  0  0  0  0
 26 25  4  0  0  0  0
 27 26  4  0  0  0  0
 28 23  4  0  0  0  0
 29  4  1  0  0  0  0
 30 29  4  0  0  0  0
 31 30  4  0  0  0  0
 32 31  4  0  0  0  0
 33 32  4  0  0  0  0
 34 29  4  0  0  0  0
 35  4  1  0  0  0  0
 36 35  4  0  0  0  0
 37 36  4  0  0  0  0
 38 37  4  0  0  0  0
 39 38  4  0  0  0  0
 40 35  4  0  0  0  0
 41 42  1  0  0  0  0
 42  8  1  0  0  0  0
 43  8  1  0  0  0  0
 44  9  1  0  0  0  0
 45 41  1  0  0  0  0
 46 41  1  0  0  0  0
 47  9  1  0  0  0  0
 48 45  1  0  0  0  0
 49  8  1  0  0  0  0
 50  6  1  0  0  0  0
 51  6  1  0  0  0  0
 52  7  1  0  0  0  0
 53  7  1  0  0  0  0
 54  7  1  0  0  0  0
 55 10  1  0  0  0  0
 56 10  1  0  0  0  0
 57 10  1  0  0  0  0
 58 41  1  0  0  0  0
 59  1  1  0  0  0  0
 60 43  1  0  0  0  0
 61 44  1  0  0  0  0
 62 45  1  0  0  0  0
 63 46  1  0  0  0  0
 64 47  1  0  0  0  0
 65 48  1  0  0  0  0
 66 47  1  0  0  0  0
 67  1  1  0  0  0  0
 68 12  1  0  0  0  0
 69 13  1  0  0  0  0
 70 14  1  0  0  0  0
 71 15  1  0  0  0  0
 72 16  1  0  0  0  0
 73 18  1  0  0  0  0
 74 19  1  0  0  0  0
 75 20  1  0  0  0  0
 76 21  1  0  0  0  0
 77 22  1  0  0  0  0
 78 24  1  0  0  0  0
 79 25  1  0  0  0  0
 80 26  1  0  0  0  0
 81 27  1  0  0  0  0
 82 28  1  0  0  0  0
 83 30  1  0  0  0  0
 84 31  1  0  0  0  0
 85 32  1  0  0  0  0
 86 33  1  0  0  0  0
 87 34  1  0  0  0  0
 88 36  1  0  0  0  0
 89 37  1  0  0  0  0
 90 38  1  0  0  0  0
 91 39  1  0  0  0  0
 92 40  1  0  0  0  0
  9 43  1  0  0  0  0
 15 16  4  0  0  0  0
 21 22  4  0  0  0  0
 27 28  4  0  0  0  0
 33 34  4  0  0  0  0
 39 40  4  0  0  0  0
 41 43  1  0  0  0  0
 41 44  1  0  0  0  0
 42 43  1  0  0  0  0
 42 46  1  0  0  0  0
 42 49  1  0  0  0  0
 42 59  1  0  0  0  0
 43 44  1  0  0  0  0
 44 45  1  0  0  0  0
 44 47  1  0  0  0  0
 45 46  1  0  0  0  0
 45 47  1  0  0  0  0
 46 48  1  0  0  0  0
 46 49  1  0  0  0  0
 47 48  1  0  0  0  0
 48 49  1  0  0  0  0
 48 66  1  0  0  0  0
 49 67  1  0  0  0  0
M  END
$$$$
TPCUBF

From CSD data. Using bond type 'Any'. No disordered atoms. Largest molecule.
 89104  0  0  0  0  0  0  0  0999 V2000
   -2.6404    1.6556   -0.1276 Fe  0  0  0  0  0  0  0  0  0  0  0  0
   -0.5093    5.0426   -3.4346 Cu  0  0  0  0  0  0  0  0  0  0  0  0
   -0.9434    5.4293   -5.6182 P   0  0  0  0  0  0  0  0  0  0  0  0
    1.1424    5.9378   -2.1784 P   0  0  0  0  0  0  0  0  0  0  0  0
   -2.5186    2.9928    2.4542 O   0  0  0  0  0  0  0  0  0  0  0  0
   -5.5374    1.4766   -0.3821 O   0  0  0  0  0  0  0  0  0  0  0  0
   -2.3184   -1.2226    0.3591 O   0  0  0  0  0  0  0  0  0  0  0  0
   -2.5746    2.4552    1.4561 C   0  0  0  0  0  0  0  0  0  0  0  0
   -4.3931    1.5133   -0.2607 C   0  0  0  0  0  0  0  0  0  0  0  0
   -2.4389   -0.1148    0.1719 C   0  0  0  0  0  0  0  0  0  0  0  0
   -2.5384    2.4582   -2.1239 B   0  0  0  0  0  0  0  0  0  0  0  0
   -1.1217    1.5400   -1.5946 B   0  0  0  0  0  0  0  0  0  0  0  0
   -0.9133    2.9592   -2.6192 B   0  0  0  0  0  0  0  0  0  0  0  0
   -1.9594    4.1439   -2.1036 B   0  0  0  0  0  0  0  0  0  0  0  0
   -2.9361    3.5821   -0.8402 B   0  0  0  0  0  0  0  0  0  0  0  0
   -3.1863    2.1114   -2.9233 H   0  0  0  0  0  0  0  0  0  0  0  0
   -0.6095    0.5846   -1.9227 H   0  0  0  0  0  0  0  0  0  0  0  0
   -0.4907    2.7948   -3.5281 H   0  0  0  0  0  0  0  0  0  0  0  0
   -2.2859    5.0063   -2.5988 H   0  0  0  0  0  0  0  0  0  0  0  0
   -3.8047    4.2160   -0.5516 H   0  0  0  0  0  0  0  0  0  0  0  0
   -1.0976    1.7357   -0.3299 H   0  0  0  0  0  0  0  0  0  0  0  0
   -0.3519    2.5699   -1.7207 H   0  0  0  0  0  0  0  0  0  0  0  0
   -1.8375    4.2696   -0.9147 H   0  0  0  0  0  0  0  0  0  0  0  0
    0.4473    4.9114   -6.6896 C   0  0  0  0  0  0  0  0  0  0  0  0
    1.7394    5.1073   -6.2042 C   0  0  0  0  0  0  0  0  0  0  0  0
    2.8325    4.7924   -6.9667 C   0  0  0  0  0  0  0  0  0  0  0  0
    2.6824    4.2251   -8.2132 C   0  0  0  0  0  0  0  0  0  0  0  0
    1.3913    4.0340   -8.6964 C   0  0  0  0  0  0  0  0  0  0  0  0
    0.2971    4.3471   -7.9403 C   0  0  0  0  0  0  0  0  0  0  0  0
   -2.4301    4.5989   -6.3173 C   0  0  0  0  0  0  0  0  0  0  0  0
   -3.1870    5.1741   -7.3194 C   0  0  0  0  0  0  0  0  0  0  0  0
   -4.3087    4.4979   -7.8018 C   0  0  0  0  0  0  0  0  0  0  0  0
   -4.6652    3.2807   -7.2651 C   0  0  0  0  0  0  0  0  0  0  0  0
   -3.9259    2.7107   -6.2851 C   0  0  0  0  0  0  0  0  0  0  0  0
   -2.7998    3.3879   -5.8001 C   0  0  0  0  0  0  0  0  0  0  0  0
   -1.1745    7.1864   -6.0467 C   0  0  0  0  0  0  0  0  0  0  0  0
   -0.5839    7.7778   -7.1030 C   0  0  0  0  0  0  0  0  0  0  0  0
   -0.7643    9.1353   -7.3794 C   0  0  0  0  0  0  0  0  0  0  0  0
   -1.5388    9.9083   -6.5779 C   0  0  0  0  0  0  0  0  0  0  0  0
   -2.1397    9.3248   -5.5441 C   0  0  0  0  0  0  0  0  0  0  0  0
   -1.9696    7.9796   -5.2567 C   0  0  0  0  0  0  0  0  0  0  0  0
    1.4260    7.7427   -2.1976 C   0  0  0  0  0  0  0  0  0  0  0  0
    1.0444    8.4610   -3.3113 C   0  0  0  0  0  0  0  0  0  0  0  0
    1.2439    9.8227   -3.3510 C   0  0  0  0  0  0  0  0  0  0  0  0
    1.8096   10.4885   -2.2695 C   0  0  0  0  0  0  0  0  0  0  0  0
    2.2084    9.7553   -1.1811 C   0  0  0  0  0  0  0  0  0  0  0  0
    2.0073    8.4031   -1.1184 C   0  0  0  0  0  0  0  0  0  0  0  0
    0.8338    5.5671   -0.4193 C   0  0  0  0  0  0  0  0  0  0  0  0
   -0.1072    6.3417    0.2751 C   0  0  0  0  0  0  0  0  0  0  0  0
   -0.4554    6.0199    1.5581 C   0  0  0  0  0  0  0  0  0  0  0  0
    0.1311    4.9282    2.1760 C   0  0  0  0  0  0  0  0  0  0  0  0
    1.0417    4.1504    1.5026 C   0  0  0  0  0  0  0  0  0  0  0  0
    1.3858    4.4730    0.1994 C   0  0  0  0  0  0  0  0  0  0  0  0
    2.7873    5.2002   -2.5496 C   0  0  0  0  0  0  0  0  0  0  0  0
    2.8294    3.9004   -2.9797 C   0  0  0  0  0  0  0  0  0  0  0  0
    4.0376    3.3156   -3.3122 C   0  0  0  0  0  0  0  0  0  0  0  0
    5.2082    4.0226   -3.2182 C   0  0  0  0  0  0  0  0  0  0  0  0
    5.1639    5.3322   -2.7894 C   0  0  0  0  0  0  0  0  0  0  0  0
    3.9611    5.9227   -2.4445 C   0  0  0  0  0  0  0  0  0  0  0  0
    1.8414    5.4137   -5.3554 H   0  0  0  0  0  0  0  0  0  0  0  0
    3.8135    4.7500   -6.6274 H   0  0  0  0  0  0  0  0  0  0  0  0
    3.4336    4.0661   -8.7613 H   0  0  0  0  0  0  0  0  0  0  0  0
    1.2859    3.6797   -9.5479 H   0  0  0  0  0  0  0  0  0  0  0  0
   -0.5211    4.2302   -8.2978 H   0  0  0  0  0  0  0  0  0  0  0  0
   -3.0072    6.0753   -7.6770 H   0  0  0  0  0  0  0  0  0  0  0  0
   -4.7910    4.9259   -8.5542 H   0  0  0  0  0  0  0  0  0  0  0  0
   -5.4313    2.8408   -7.5842 H   0  0  0  0  0  0  0  0  0  0  0  0
   -4.0914    1.8290   -5.8983 H   0  0  0  0  0  0  0  0  0  0  0  0
   -2.2432    2.9137   -5.2025 H   0  0  0  0  0  0  0  0  0  0  0  0
   -0.0571    7.3590   -7.7229 H   0  0  0  0  0  0  0  0  0  0  0  0
   -0.3960    9.5265   -8.0802 H   0  0  0  0  0  0  0  0  0  0  0  0
   -1.7449   10.8497   -6.8171 H   0  0  0  0  0  0  0  0  0  0  0  0
   -2.5702    9.8126   -4.9463 H   0  0  0  0  0  0  0  0  0  0  0  0
   -2.4341    7.5725   -4.4579 H   0  0  0  0  0  0  0  0  0  0  0  0
    0.6155    7.9917   -4.0860 H   0  0  0  0  0  0  0  0  0  0  0  0
    1.0508   10.3250   -4.0528 H   0  0  0  0  0  0  0  0  0  0  0  0
    1.9217   11.4578   -2.3219 H   0  0  0  0  0  0  0  0  0  0  0  0
    2.5563   10.2024   -0.4438 H   0  0  0  0  0  0  0  0  0  0  0  0
    2.1905    7.9738   -0.3371 H   0  0  0  0  0  0  0  0  0  0  0  0
   -0.5145    7.0463   -0.1819 H   0  0  0  0  0  0  0  0  0  0  0  0
   -1.1071    6.4457    2.0273 H   0  0  0  0  0  0  0  0  0  0  0  0
   -0.1608    4.7244    3.0408 H   0  0  0  0  0  0  0  0  0  0  0  0
    1.3412    3.4044    1.8837 H   0  0  0  0  0  0  0  0  0  0  0  0
    2.0442    3.8887   -0.2475 H   0  0  0  0  0  0  0  0  0  0  0  0
    2.1297    3.3650   -3.1417 H   0  0  0  0  0  0  0  0  0  0  0  0
    4.0614    2.3810   -3.5841 H   0  0  0  0  0  0  0  0  0  0  0  0
    6.0379    3.5778   -3.4219 H   0  0  0  0  0  0  0  0  0  0  0  0
    5.9065    5.8452   -2.7150 H   0  0  0  0  0  0  0  0  0  0  0  0
    3.8877    6.7643   -2.1174 H   0  0  0  0  0  0  0  0  0  0  0  0
  1  8  1  0  0  0  0
  2  3  1  0  0  0  0
  3 24  1  0  0  0  0
  4  2  1  0  0  0  0
  5  8  3  0  0  0  0
  6  9  3  0  0  0  0
  7 10  3  0  0  0  0
  9  1  1  0  0  0  0
 10  1  1  0  0  0  0
 11  1  1  0  0  0  0
 12  1  1  0  0  0  0
 13  2  1  0  0  0  0
 14  2  1  0  0  0  0
 15  1  1  0  0  0  0
 16 11  1  0  0  0  0
 17 12  1  0  0  0  0
 18 13  1  0  0  0  0
 19  2  1  0  0  0  0
 20 15  1  0  0  0  0
 21  1  1  0  0  0  0
 22 12  1  0  0  0  0
 23 14  1  0  0  0  0
 24 25  4  0  0  0  0
 25 26  4  0  0  0  0
 26 27  4  0  0  0  0
 27 28  4  0  0  0  0
 28 29  4  0  0  0  0
 29 24  4  0  0  0  0
 30  3  1  0  0  0  0
 31 30  4  0  0  0  0
 32 31  4  0  0  0  0
 33 32  4  0  0  0  0
 34 33  4  0  0  0  0
 35 30  4  0  0  0  0
 36  3  1  0  0  0  0
 37 36  4  0  0  0  0
 38 37  4  0  0  0  0
 39 38  4  0  0  0  0
 40 39  4  0  0  0  0
 41 36  4  0  0  0  0
 42  4  1  0  0  0  0
 43 42  4  0  0  0  0
 44 43  4  0  0  0  0
 45 44  4  0  0  0  0
 46 45  4  0  0  0  0
 47 42  4  0  0  0  0
 48  4  1  0  0  0  0
 49 48  4  0  0  0  0
 50 49  4  0  0  0  0
 51 50  4  0  0  0  0
 52 51  4  0  0  0  0
 53 48  4  0  0  0  0
 54  4  1  0  0  0  0
 55 54  4  0  0  0  0
 56 55  4  0  0  0  0
 57 56  4  0  0  0  0
 58 57  4  0  0  0  0
 59 54  4  0  0  0  0
 60 25  1  0  0  0  0
 61 26  1  0  0  0  0
 62 27  1  0  0  0  0
 63 28  1  0  0  0  0
 64 29  1  0  0  0  0
 65 31  1  0  0  0  0
 66 32  1  0  0  0  0
 67 33  1  0  0  0  0
 68 34  1  0  0  0  0
 69 35  1  0  0  0  0
 70 37  1  0  0  0  0
 71 38  1  0  0  0  0
 72 39  1  0  0  0  0
 73 40  1  0  0  0  0
 74 41  1  0  0  0  0
 75 43  1  0  0  0  0
 76 44  1  0  0  0  0
 77 45  1  0  0  0  0
 78 46  1  0  0  0  0
 79 47  1  0  0  0  0
 80 49  1  0  0  0  0
 81 50  1  0  0  0  0
 82 51  1  0  0  0  0
 83 52  1  0  0  0  0
 84 53  1  0  0  0  0
 85 55  1  0  0  0  0
 86 56  1  0  0  0  0
 87 57  1  0  0  0  0
 88 58  1  0  0  0  0
 89 59  1  0  0  0  0
 11 12  1  0  0  0  0
 11 13  1  0  0  0  0
 11 14  1  0  0  0  0
 11 15  1  0  0  0  0
 12 13  1  0  0  0  0
 12 21  1  0  0  0  0
 13 14  1  0  0  0  0
 13 22  1  0  0  0  0
 14 15  1  0  0  0  0
 14 19  1  0  0  0  0
 15 23  1  0  0  0  0
 34 35  4  0  0  0  0
 40 41  4  0  0  0  0
 46 47  4  0  0  0  0
 52 53  4  0  0  0  0
 58 59  4  0  0  0  0
M  END
$$$$
TUJPIZ

From CSD data. Using bond type 'Any'. Matching problem. No disordered atoms. Largest molecule.
 95119  0  0  0  0  0  0  0  0999 V2000
    3.0743    7.7397   11.0866 P   0  0  0  0  0  0  0  0  0  0  0  0
    5.5890    7.7215    7.7218 N   0  0  0  0  0  0  0  0  0  0  0  0
    5.3705   11.0434    9.1291 C   0  0  0  0  0  0  0  0  0  0  0  0
    6.0705   10.6938    8.6113 H   0  0  0  0  0  0  0  0  0  0  0  0
    6.5877    8.5932   11.4594 P   0  0  0  0  0  0  0  0  0  0  0  0
    3.8464   10.6392    8.6855 C   0  0  0  0  0  0  0  0  0  0  0  0
    3.7992   10.1067    7.9746 H   0  0  0  0  0  0  0  0  0  0  0  0
    4.6422    9.3373   10.2812 Rh  0  0  0  0  0  0  0  0  0  0  0  0
    5.4803   11.3176   10.8265 B   0  0  0  0  0  0  0  0  0  0  0  0
    6.4341   11.2598   11.3105 H   0  0  0  0  0  0  0  0  0  0  0  0
    5.4384   12.6671    9.6236 B   0  0  0  0  0  0  0  0  0  0  0  0
    6.3456   13.2622    9.4716 H   0  0  0  0  0  0  0  0  0  0  0  0
    4.4312   12.2072    8.2527 B   0  0  0  0  0  0  0  0  0  0  0  0
    4.6477   12.4306    7.1825 H   0  0  0  0  0  0  0  0  0  0  0  0
    2.7828   10.5862   10.0053 B   0  0  0  0  0  0  0  0  0  0  0  0
    1.9320   10.0149    9.9646 H   0  0  0  0  0  0  0  0  0  0  0  0
    3.7842   11.0513   11.4469 B   0  0  0  0  0  0  0  0  0  0  0  0
    3.4713   10.8208   12.5557 H   0  0  0  0  0  0  0  0  0  0  0  0
    4.4107   12.7003   11.0800 B   0  0  0  0  0  0  0  0  0  0  0  0
    4.6201   13.4162   11.8879 H   0  0  0  0  0  0  0  0  0  0  0  0
    3.7697   13.2573    9.5139 B   0  0  0  0  0  0  0  0  0  0  0  0
    3.5625   14.2477    9.3413 H   0  0  0  0  0  0  0  0  0  0  0  0
    2.7811   11.9434    8.8293 B   0  0  0  0  0  0  0  0  0  0  0  0
    1.9455   12.0813    8.1257 H   0  0  0  0  0  0  0  0  0  0  0  0
    2.7577   12.2492   10.5908 B   0  0  0  0  0  0  0  0  0  0  0  0
    1.8426   12.7542   11.0766 H   0  0  0  0  0  0  0  0  0  0  0  0
    5.3422    7.7242    8.9621 O   0  0  0  0  0  0  0  0  0  0  0  0
    6.3323    6.8421    7.2875 O   0  0  0  0  0  0  0  0  0  0  0  0
    5.0726    8.5689    6.9887 O   0  0  0  0  0  0  0  0  0  0  0  0
    2.2460    8.3596   12.5819 C   0  0  0  0  0  0  0  0  0  0  0  0
    2.9736    8.3246   13.7778 C   0  0  0  0  0  0  0  0  0  0  0  0
    3.8253    7.9048   13.7994 H   0  0  0  0  0  0  0  0  0  0  0  0
    2.4576    8.8988   14.9328 C   0  0  0  0  0  0  0  0  0  0  0  0
    2.9544    8.8696   15.7420 H   0  0  0  0  0  0  0  0  0  0  0  0
    1.2182    9.5147   14.9012 C   0  0  0  0  0  0  0  0  0  0  0  0
    0.8637    9.9102   15.6887 H   0  0  0  0  0  0  0  0  0  0  0  0
    0.4925    9.5545   13.7156 C   0  0  0  0  0  0  0  0  0  0  0  0
   -0.3552    9.9829   13.6973 H   0  0  0  0  0  0  0  0  0  0  0  0
    0.9943    8.9743   12.5621 C   0  0  0  0  0  0  0  0  0  0  0  0
    0.4873    8.9959   11.7591 H   0  0  0  0  0  0  0  0  0  0  0  0
    3.4960    6.0045   11.5107 C   0  0  0  0  0  0  0  0  0  0  0  0
    2.9701    5.3543   12.6348 C   0  0  0  0  0  0  0  0  0  0  0  0
    2.4972    5.8556   13.2886 H   0  0  0  0  0  0  0  0  0  0  0  0
    3.1332    3.9812   12.8019 C   0  0  0  0  0  0  0  0  0  0  0  0
    2.7794    3.5493   13.5714 H   0  0  0  0  0  0  0  0  0  0  0  0
    3.8122    3.2477   11.8432 C   0  0  0  0  0  0  0  0  0  0  0  0
    3.9224    2.3109   11.9516 H   0  0  0  0  0  0  0  0  0  0  0  0
    4.3316    3.8832   10.7219 C   0  0  0  0  0  0  0  0  0  0  0  0
    4.7925    3.3763   10.0638 H   0  0  0  0  0  0  0  0  0  0  0  0
    4.1837    5.2534   10.5549 C   0  0  0  0  0  0  0  0  0  0  0  0
    4.5490    5.6805    9.7899 H   0  0  0  0  0  0  0  0  0  0  0  0
    1.7620    7.3504    9.8645 C   0  0  0  0  0  0  0  0  0  0  0  0
    1.9114    7.6520    8.5208 C   0  0  0  0  0  0  0  0  0  0  0  0
    2.6817    8.1249    8.2264 H   0  0  0  0  0  0  0  0  0  0  0  0
    0.9356    7.2647    7.5935 C   0  0  0  0  0  0  0  0  0  0  0  0
    1.0459    7.4707    6.6732 H   0  0  0  0  0  0  0  0  0  0  0  0
   -0.1866    6.5825    8.0194 C   0  0  0  0  0  0  0  0  0  0  0  0
   -0.8583    6.3363    7.3942 H   0  0  0  0  0  0  0  0  0  0  0  0
   -0.3325    6.2560    9.3650 C   0  0  0  0  0  0  0  0  0  0  0  0
   -1.0986    5.7753    9.6552 H   0  0  0  0  0  0  0  0  0  0  0  0
    0.6385    6.6316   10.2837 C   0  0  0  0  0  0  0  0  0  0  0  0
    0.5390    6.3995   11.1994 H   0  0  0  0  0  0  0  0  0  0  0  0
    6.8768    6.7857   11.6035 C   0  0  0  0  0  0  0  0  0  0  0  0
    6.4885    6.1504   12.7908 C   0  0  0  0  0  0  0  0  0  0  0  0
    6.0540    6.6518   13.4707 H   0  0  0  0  0  0  0  0  0  0  0  0
    6.7312    4.7956   12.9861 C   0  0  0  0  0  0  0  0  0  0  0  0
    6.4602    4.3742   13.7935 H   0  0  0  0  0  0  0  0  0  0  0  0
    7.3717    4.0596   11.9941 C   0  0  0  0  0  0  0  0  0  0  0  0
    7.5644    3.1403   12.1352 H   0  0  0  0  0  0  0  0  0  0  0  0
    7.7284    4.6644   10.8055 C   0  0  0  0  0  0  0  0  0  0  0  0
    8.1476    4.1534   10.1230 H   0  0  0  0  0  0  0  0  0  0  0  0
    7.4766    6.0186   10.5991 C   0  0  0  0  0  0  0  0  0  0  0  0
    7.7147    6.4230    9.7736 H   0  0  0  0  0  0  0  0  0  0  0  0
    8.0619    9.2716   10.5808 C   0  0  0  0  0  0  0  0  0  0  0  0
    8.8910   10.2124   11.1954 C   0  0  0  0  0  0  0  0  0  0  0  0
    8.7145   10.4836   12.0878 H   0  0  0  0  0  0  0  0  0  0  0  0
    9.9705   10.7542   10.5151 C   0  0  0  0  0  0  0  0  0  0  0  0
   10.5228   11.3946   10.9463 H   0  0  0  0  0  0  0  0  0  0  0  0
   10.2520   10.3719    9.2169 C   0  0  0  0  0  0  0  0  0  0  0  0
   11.0024   10.7350    8.7609 H   0  0  0  0  0  0  0  0  0  0  0  0
    9.4268    9.4509    8.5866 C   0  0  0  0  0  0  0  0  0  0  0  0
    9.6095    9.1883    7.6918 H   0  0  0  0  0  0  0  0  0  0  0  0
    8.3343    8.9113    9.2558 C   0  0  0  0  0  0  0  0  0  0  0  0
    7.7673    8.2921    8.8097 H   0  0  0  0  0  0  0  0  0  0  0  0
    6.8765    9.0873   13.2002 C   0  0  0  0  0  0  0  0  0  0  0  0
    5.9564    9.8317   13.9382 C   0  0  0  0  0  0  0  0  0  0  0  0
    5.1596   10.1424   13.5255 H   0  0  0  0  0  0  0  0  0  0  0  0
    6.2021   10.1215   15.2803 C   0  0  0  0  0  0  0  0  0  0  0  0
    5.5613   10.6140   15.7805 H   0  0  0  0  0  0  0  0  0  0  0  0
    7.3669    9.6991   15.8873 C   0  0  0  0  0  0  0  0  0  0  0  0
    7.5268    9.9003   16.8021 H   0  0  0  0  0  0  0  0  0  0  0  0
    8.3091    8.9762   15.1555 C   0  0  0  0  0  0  0  0  0  0  0  0
    9.1216    8.7013   15.5643 H   0  0  0  0  0  0  0  0  0  0  0  0
    8.0575    8.6584   13.8234 C   0  0  0  0  0  0  0  0  0  0  0  0
    8.6898    8.1469   13.3330 H   0  0  0  0  0  0  0  0  0  0  0  0
  1  8  1  0  0  0  0
  2 27  1  0  0  0  0
  3  4  1  0  0  0  0
  5  8  1  0  0  0  0
  6  3  1  0  0  0  0
  7  6  1  0  0  0  0
  8  3  1  0  0  0  0
  9  3  1  0  0  0  0
 10  9  1  0  0  0  0
 11  3  1  0  0  0  0
 12 11  1  0  0  0  0
 13  3  1  0  0  0  0
 14 13  1  0  0  0  0
 15  6  1  0  0  0  0
 16 15  1  0  0  0  0
 17  8  1  0  0  0  0
 18 17  1  0  0  0  0
 19  9  1  0  0  0  0
 20 19  1  0  0  0  0
 21 11  1  0  0  0  0
 22 21  1  0  0  0  0
 23  6  1  0  0  0  0
 24 23  1  0  0  0  0
 25 15  1  0  0  0  0
 26 25  1  0  0  0  0
 27  8  1  0  0  0  0
 28  2  2  0  0  0  0
 29  2  2  0  0  0  0
 30  1  1  0  0  0  0
 31 30  4  0  0  0  0
 32 31  1  0  0  0  0
 33 31  4  0  0  0  0
 34 33  1  0  0  0  0
 35 33  4  0  0  0  0
 36 35  1  0  0  0  0
 37 35  4  0  0  0  0
 38 37  1  0  0  0  0
 39 30  4  0  0  0  0
 40 39  1  0  0  0  0
 41  1  1  0  0  0  0
 42 41  4  0  0  0  0
 43 42  1  0  0  0  0
 44 42  4  0  0  0  0
 45 44  1  0  0  0  0
 46 44  4  0  0  0  0
 47 46  1  0  0  0  0
 48 46  4  0  0  0  0
 49 48  1  0  0  0  0
 50 41  4  0  0  0  0
 51 50  1  0  0  0  0
 52  1  1  0  0  0  0
 53 52  4  0  0  0  0
 54 53  1  0  0  0  0
 55 53  4  0  0  0  0
 56 55  1  0  0  0  0
 57 55  4  0  0  0  0
 58 57  1  0  0  0  0
 59 57  4  0  0  0  0
 60 59  1  0  0  0  0
 61 52  4  0  0  0  0
 62 61  1  0  0  0  0
 63  5  1  0  0  0  0
 64 63  4  0  0  0  0
 65 64  1  0  0  0  0
 66 64  4  0  0  0  0
 67 66  1  0  0  0  0
 68 66  4  0  0  0  0
 69 68  1  0  0  0  0
 70 68  4  0  0  0  0
 71 70  1  0  0  0  0
 72 63  4  0  0  0  0
 73 72  1  0  0  0  0
 74  5  1  0  0  0  0
 75 74  4  0  0  0  0
 76 75  1  0  0  0  0
 77 75  4  0  0  0  0
 78 77  1  0  0  0  0
 79 77  4  0  0  0  0
 80 79  1  0  0  0  0
 81 79  4  0  0  0  0
 82 81  1  0  0  0  0
 83 74  4  0  0  0  0
 84 83  1  0  0  0  0
 85  5  1  0  0  0  0
 86 85  4  0  0  0  0
 87 86  1  0  0  0  0
 88 86  4  0  0  0  0
 89 88  1  0  0  0  0
 90 88  4  0  0  0  0
 91 90  1  0  0  0  0
 92 90  4  0  0  0  0
 93 92  1  0  0  0  0
 94 85  4  0  0  0  0
 95 94  1  0  0  0  0
  6  8  1  0  0  0  0
  6 13  1  0  0  0  0
  8  9  1  0  0  0  0
  8 15  1  0  0  0  0
  9 11  1  0  0  0  0
  9 17  1  0  0  0  0
 11 13  1  0  0  0  0
 11 19  1  0  0  0  0
 13 21  1  0  0  0  0
 13 23  1  0  0  0  0
 15 17  1  0  0  0  0
 15 23  1  0  0  0  0
 17 19  1  0  0  0  0
 17 25  1  0  0  0  0
 19 21  1  0  0  0  0
 19 25  1  0  0  0  0
 21 23  1  0  0  0  0
 21 25  1  0  0  0  0
 23 25  1  0  0  0  0
 37 39  4  0  0  0  0
 48 50  4  0  0  0  0
 59 61  4  0  0  0  0
 70 72  4  0  0  0  0
 81 83  4  0  0  0  0
 92 94  4  0  0  0  0
M  END
$$$$
TUKXEE

From CSD data. Using bond type 'Any'. No disordered atoms. Largest molecule.
 87112  0  0  0  0  0  0  0  0999 V2000
   10.7492    8.4284   18.6021 Ru  0  0  0  0  0  0  0  0  0  0  0  0
    9.4364    7.6778   16.7927 P   0  0  0  0  0  0  0  0  0  0  0  0
   11.2342   10.3564   17.4063 P   0  0  0  0  0  0  0  0  0  0  0  0
    9.3795    9.6814   19.4509 O   0  0  0  0  0  0  0  0  0  0  0  0
    8.8296    8.4047   19.2813 O   0  0  0  0  0  0  0  0  0  0  0  0
   11.6656    7.8893   20.6607 C   0  0  0  0  0  0  0  0  0  0  0  0
   11.3171    6.5133   19.8526 C   0  0  0  0  0  0  0  0  0  0  0  0
   12.6398    8.9432   19.7179 B   0  0  0  0  0  0  0  0  0  0  0  0
   12.7029   10.0379   19.9705 H   0  0  0  0  0  0  0  0  0  0  0  0
   13.3616    7.9364   21.0100 B   0  0  0  0  0  0  0  0  0  0  0  0
   13.6007    8.5171   21.9044 H   0  0  0  0  0  0  0  0  0  0  0  0
   12.5166    6.4213   21.1026 B   0  0  0  0  0  0  0  0  0  0  0  0
   12.1824    5.9287   22.0096 H   0  0  0  0  0  0  0  0  0  0  0  0
   11.9822    6.5646   18.2765 B   0  0  0  0  0  0  0  0  0  0  0  0
   11.5243    5.9058   17.4810 H   0  0  0  0  0  0  0  0  0  0  0  0
   12.9319    8.1127   18.1165 B   0  0  0  0  0  0  0  0  0  0  0  0
   14.1453    8.0536   19.4465 B   0  0  0  0  0  0  0  0  0  0  0  0
   15.1069    8.6329   19.2487 H   0  0  0  0  0  0  0  0  0  0  0  0
   14.0554    6.4915   20.2756 B   0  0  0  0  0  0  0  0  0  0  0  0
   15.0084    6.0647   20.6754 H   0  0  0  0  0  0  0  0  0  0  0  0
   12.6992    5.5845   19.5643 B   0  0  0  0  0  0  0  0  0  0  0  0
   12.5401    4.5252   19.5117 H   0  0  0  0  0  0  0  0  0  0  0  0
   13.7406    6.5753   18.5290 B   0  0  0  0  0  0  0  0  0  0  0  0
   14.3629    6.1348   17.8324 H   0  0  0  0  0  0  0  0  0  0  0  0
   10.7445    8.3584   21.7655 C   0  0  0  0  0  0  0  0  0  0  0  0
   10.8715    7.7951   22.5588 H   0  0  0  0  0  0  0  0  0  0  0  0
    9.8137    8.2923   21.4646 H   0  0  0  0  0  0  0  0  0  0  0  0
   10.9507    9.2902   21.9907 H   0  0  0  0  0  0  0  0  0  0  0  0
   10.0489    5.7297   20.2125 C   0  0  0  0  0  0  0  0  0  0  0  0
   10.2104    5.2023   21.0227 H   0  0  0  0  0  0  0  0  0  0  0  0
    9.8128    5.1314   19.4738 H   0  0  0  0  0  0  0  0  0  0  0  0
    9.3125    6.3566   20.3745 H   0  0  0  0  0  0  0  0  0  0  0  0
    8.0706    8.8618   16.3825 C   0  0  0  0  0  0  0  0  0  0  0  0
    7.2436    8.3348   16.2563 H   0  0  0  0  0  0  0  0  0  0  0  0
    7.9283    9.4416   17.1717 H   0  0  0  0  0  0  0  0  0  0  0  0
    8.2311    9.7706   15.1641 C   0  0  0  0  0  0  0  0  0  0  0  0
    8.0967    9.2284   14.3455 H   0  0  0  0  0  0  0  0  0  0  0  0
    7.5183   10.4576   15.1872 H   0  0  0  0  0  0  0  0  0  0  0  0
    9.5816   10.4778   15.0589 C   0  0  0  0  0  0  0  0  0  0  0  0
   10.2744    9.8123   14.8211 H   0  0  0  0  0  0  0  0  0  0  0  0
    9.5393   11.1425   14.3244 H   0  0  0  0  0  0  0  0  0  0  0  0
    9.9986   11.1863   16.3404 C   0  0  0  0  0  0  0  0  0  0  0  0
    9.1846   11.3399   16.8813 H   0  0  0  0  0  0  0  0  0  0  0  0
   10.3582   12.0747   16.0942 H   0  0  0  0  0  0  0  0  0  0  0  0
   10.1240    7.2000   15.1683 C   0  0  0  0  0  0  0  0  0  0  0  0
    9.2485    6.9239   14.1266 C   0  0  0  0  0  0  0  0  0  0  0  0
    8.3114    6.9742   14.2739 H   0  0  0  0  0  0  0  0  0  0  0  0
    9.7269    6.5796   12.8745 C   0  0  0  0  0  0  0  0  0  0  0  0
    9.1210    6.3929   12.1675 H   0  0  0  0  0  0  0  0  0  0  0  0
   11.1002    6.5047   12.6557 C   0  0  0  0  0  0  0  0  0  0  0  0
   11.4296    6.2790   11.7929 H   0  0  0  0  0  0  0  0  0  0  0  0
   11.9725    6.7523   13.6700 C   0  0  0  0  0  0  0  0  0  0  0  0
   12.9089    6.6887   13.5206 H   0  0  0  0  0  0  0  0  0  0  0  0
   11.4874    7.1000   14.9305 C   0  0  0  0  0  0  0  0  0  0  0  0
   12.0988    7.2721   15.6376 H   0  0  0  0  0  0  0  0  0  0  0  0
    8.5204    6.1448   17.2369 C   0  0  0  0  0  0  0  0  0  0  0  0
    7.3845    6.2035   18.0450 C   0  0  0  0  0  0  0  0  0  0  0  0
    7.0534    7.0433   18.3417 H   0  0  0  0  0  0  0  0  0  0  0  0
    6.7332    5.0215   18.4132 C   0  0  0  0  0  0  0  0  0  0  0  0
    5.9555    5.0653   18.9562 H   0  0  0  0  0  0  0  0  0  0  0  0
    7.2011    3.8063   18.0029 C   0  0  0  0  0  0  0  0  0  0  0  0
    6.7597    3.0087   18.2722 H   0  0  0  0  0  0  0  0  0  0  0  0
    8.3285    3.7435   17.1906 C   0  0  0  0  0  0  0  0  0  0  0  0
    8.6514    2.9012   16.8897 H   0  0  0  0  0  0  0  0  0  0  0  0
    8.9778    4.9057   16.8202 C   0  0  0  0  0  0  0  0  0  0  0  0
    9.7513    4.8541   16.2710 H   0  0  0  0  0  0  0  0  0  0  0  0
   12.6687   10.0008   16.3741 C   0  0  0  0  0  0  0  0  0  0  0  0
   13.4124    8.8912   16.8097 C   0  0  0  0  0  0  0  0  0  0  0  0
   14.5402    8.5462   16.0584 C   0  0  0  0  0  0  0  0  0  0  0  0
   15.0937    7.8321   16.3552 H   0  0  0  0  0  0  0  0  0  0  0  0
   14.8694    9.2182   14.9010 C   0  0  0  0  0  0  0  0  0  0  0  0
   15.6312    8.9470   14.4023 H   0  0  0  0  0  0  0  0  0  0  0  0
   14.1076   10.2758   14.4570 C   0  0  0  0  0  0  0  0  0  0  0  0
   14.3279   10.7190   13.6468 H   0  0  0  0  0  0  0  0  0  0  0  0
   13.0044   10.6930   15.2125 C   0  0  0  0  0  0  0  0  0  0  0  0
   12.4896   11.4418   14.9347 H   0  0  0  0  0  0  0  0  0  0  0  0
   11.6841   11.8044   18.4217 C   0  0  0  0  0  0  0  0  0  0  0  0
   10.7063   12.4281   19.1961 C   0  0  0  0  0  0  0  0  0  0  0  0
    9.8287   12.0686   19.2360 H   0  0  0  0  0  0  0  0  0  0  0  0
   11.0212   13.5774   19.9115 C   0  0  0  0  0  0  0  0  0  0  0  0
   10.3576   13.9918   20.4524 H   0  0  0  0  0  0  0  0  0  0  0  0
   12.2942   14.1276   19.8463 C   0  0  0  0  0  0  0  0  0  0  0  0
   12.4983   14.9214   20.3261 H   0  0  0  0  0  0  0  0  0  0  0  0
   13.2525   13.5196   19.0845 C   0  0  0  0  0  0  0  0  0  0  0  0
   14.1258   13.8911   19.0403 H   0  0  0  0  0  0  0  0  0  0  0  0
   12.9591   12.3614   18.3733 C   0  0  0  0  0  0  0  0  0  0  0  0
   13.6340   11.9473   17.8493 H   0  0  0  0  0  0  0  0  0  0  0  0
  1  2  1  0  0  0  0
  2 33  1  0  0  0  0
  3  1  1  0  0  0  0
  4  1  1  0  0  0  0
  5  1  1  0  0  0  0
  6  1  1  0  0  0  0
  7  1  1  0  0  0  0
  8  1  1  0  0  0  0
  9  8  1  0  0  0  0
 10  6  1  0  0  0  0
 11 10  1  0  0  0  0
 12  6  1  0  0  0  0
 13 12  1  0  0  0  0
 14  1  1  0  0  0  0
 15 14  1  0  0  0  0
 16  1  1  0  0  0  0
 17  8  1  0  0  0  0
 18 17  1  0  0  0  0
 19 10  1  0  0  0  0
 20 19  1  0  0  0  0
 21  7  1  0  0  0  0
 22 21  1  0  0  0  0
 23 14  1  0  0  0  0
 24 23  1  0  0  0  0
 25  6  1  0  0  0  0
 26 25  1  0  0  0  0
 27 25  1  0  0  0  0
 28 25  1  0  0  0  0
 29  7  1  0  0  0  0
 30 29  1  0  0  0  0
 31 29  1  0  0  0  0
 32 29  1  0  0  0  0
 33 34  1  0  0  0  0
 35 33  1  0  0  0  0
 36 33  1  0  0  0  0
 37 36  1  0  0  0  0
 38 36  1  0  0  0  0
 39 36  1  0  0  0  0
 40 39  1  0  0  0  0
 41 39  1  0  0  0  0
 42  3  1  0  0  0  0
 43 42  1  0  0  0  0
 44 42  1  0  0  0  0
 45  2  1  0  0  0  0
 46 45  4  0  0  0  0
 47 46  1  0  0  0  0
 48 46  4  0  0  0  0
 49 48  1  0  0  0  0
 50 48  4  0  0  0  0
 51 50  1  0  0  0  0
 52 50  4  0  0  0  0
 53 52  1  0  0  0  0
 54 45  4  0  0  0  0
 55 54  1  0  0  0  0
 56  2  1  0  0  0  0
 57 56  4  0  0  0  0
 58 57  1  0  0  0  0
 59 57  4  0  0  0  0
 60 59  1  0  0  0  0
 61 59  4  0  0  0  0
 62 61  1  0  0  0  0
 63 61  4  0  0  0  0
 64 63  1  0  0  0  0
 65 56  4  0  0  0  0
 66 65  1  0  0  0  0
 67  3  1  0  0  0  0
 68 16  1  0  0  0  0
 69 68  4  0  0  0  0
 70 69  1  0  0  0  0
 71 69  4  0  0  0  0
 72 71  1  0  0  0  0
 73 71  4  0  0  0  0
 74 73  1  0  0  0  0
 75 67  4  0  0  0  0
 76 75  1  0  0  0  0
 77  3  1  0  0  0  0
 78 77  4  0  0  0  0
 79 78  1  0  0  0  0
 80 78  4  0  0  0  0
 81 80  1  0  0  0  0
 82 80  4  0  0  0  0
 83 82  1  0  0  0  0
 84 82  4  0  0  0  0
 85 84  1  0  0  0  0
 86 77  4  0  0  0  0
 87 86  1  0  0  0  0
  4  5  1  0  0  0  0
  6  7  1  0  0  0  0
  6  8  1  0  0  0  0
  7 12  1  0  0  0  0
  7 14  1  0  0  0  0
  8 10  1  0  0  0  0
  8 16  1  0  0  0  0
 10 12  1  0  0  0  0
 10 17  1  0  0  0  0
 12 19  1  0  0  0  0
 12 21  1  0  0  0  0
 14 16  1  0  0  0  0
 14 21  1  0  0  0  0
 16 17  1  0  0  0  0
 16 23  1  0  0  0  0
 17 19  1  0  0  0  0
 17 23  1  0  0  0  0
 19 21  1  0  0  0  0
 19 23  1  0  0  0  0
 21 23  1  0  0  0  0
 39 42  1  0  0  0  0
 52 54  4  0  0  0  0
 63 65  4  0  0  0  0
 67 68  4  0  0  0  0
 73 75  4  0  0  0  0
 84 86  4  0  0  0  0
M  END
$$$$
TUKXII

From CSD data. Using bond type 'Any'. No disordered atoms. Largest molecule.
 84109  0  0  0  0  0  0  0  0999 V2000
    5.9763    0.0388   16.3819 Ru  0  0  0  0  0  0  0  0  0  0  0  0
    6.7345   -1.3645   18.0956 P   0  0  0  0  0  0  0  0  0  0  0  0
    6.6472   -1.5972   14.9222 P   0  0  0  0  0  0  0  0  0  0  0  0
    4.2839   -0.5693   17.3382 O   0  0  0  0  0  0  0  0  0  0  0  0
    4.1790   -0.8318   15.9639 O   0  0  0  0  0  0  0  0  0  0  0  0
    5.1784    2.1385   15.8012 C   0  0  0  0  0  0  0  0  0  0  0  0
    5.8832    2.2015   17.2599 C   0  0  0  0  0  0  0  0  0  0  0  0
    6.2204    1.4340   14.6320 B   0  0  0  0  0  0  0  0  0  0  0  0
    5.7835    1.0493   13.8363 H   0  0  0  0  0  0  0  0  0  0  0  0
    5.9822    3.1993   14.7186 B   0  0  0  0  0  0  0  0  0  0  0  0
    5.4123    3.6765   13.9597 H   0  0  0  0  0  0  0  0  0  0  0  0
    5.7502    3.6707   16.3731 B   0  0  0  0  0  0  0  0  0  0  0  0
    5.0370    4.3420   16.7382 H   0  0  0  0  0  0  0  0  0  0  0  0
    7.4697    1.5066   17.2110 B   0  0  0  0  0  0  0  0  0  0  0  0
    7.9257    1.2104   18.0863 H   0  0  0  0  0  0  0  0  0  0  0  0
    7.7872    1.0207   15.4697 B   0  0  0  0  0  0  0  0  0  0  0  0
    7.6053    2.5402   14.5283 B   0  0  0  0  0  0  0  0  0  0  0  0
    8.1851    2.6111   13.6913 H   0  0  0  0  0  0  0  0  0  0  0  0
    7.3175    3.9098   15.6207 B   0  0  0  0  0  0  0  0  0  0  0  0
    7.7816    4.9221   15.3857 H   0  0  0  0  0  0  0  0  0  0  0  0
    7.2050    3.2578   17.2623 B   0  0  0  0  0  0  0  0  0  0  0  0
    7.4844    3.7601   18.2140 H   0  0  0  0  0  0  0  0  0  0  0  0
    8.3748    2.5826   16.1186 B   0  0  0  0  0  0  0  0  0  0  0  0
    9.3887    2.8044   16.3270 H   0  0  0  0  0  0  0  0  0  0  0  0
    3.6681    2.0760   15.6796 C   0  0  0  0  0  0  0  0  0  0  0  0
    3.2872    2.9523   15.8964 H   0  0  0  0  0  0  0  0  0  0  0  0
    3.3178    1.4043   16.3011 H   0  0  0  0  0  0  0  0  0  0  0  0
    3.4247    1.8318   14.7625 H   0  0  0  0  0  0  0  0  0  0  0  0
    5.0070    2.1980   18.5068 C   0  0  0  0  0  0  0  0  0  0  0  0
    4.7469    3.1166   18.7268 H   0  0  0  0  0  0  0  0  0  0  0  0
    5.5071    1.8121   19.2570 H   0  0  0  0  0  0  0  0  0  0  0  0
    4.2027    1.6618   18.3395 H   0  0  0  0  0  0  0  0  0  0  0  0
    6.0820   -3.0564   17.8816 C   0  0  0  0  0  0  0  0  0  0  0  0
    6.1906   -3.5603   18.7268 H   0  0  0  0  0  0  0  0  0  0  0  0
    5.1156   -3.0118   17.6730 H   0  0  0  0  0  0  0  0  0  0  0  0
    6.8110   -3.7870   16.7581 C   0  0  0  0  0  0  0  0  0  0  0  0
    7.7844   -3.6315   16.8507 H   0  0  0  0  0  0  0  0  0  0  0  0
    6.6504   -4.7602   16.8485 H   0  0  0  0  0  0  0  0  0  0  0  0
    6.3679   -3.3402   15.3760 C   0  0  0  0  0  0  0  0  0  0  0  0
    5.3983   -3.5251   15.2927 H   0  0  0  0  0  0  0  0  0  0  0  0
    6.8310   -3.9066   14.7106 H   0  0  0  0  0  0  0  0  0  0  0  0
    8.4747   -1.7385   18.5128 C   0  0  0  0  0  0  0  0  0  0  0  0
    8.7099   -2.5976   19.5916 C   0  0  0  0  0  0  0  0  0  0  0  0
    7.9828   -2.9007   20.1204 H   0  0  0  0  0  0  0  0  0  0  0  0
    9.9975   -3.0065   19.8908 C   0  0  0  0  0  0  0  0  0  0  0  0
   10.1485   -3.5858   20.6290 H   0  0  0  0  0  0  0  0  0  0  0  0
   11.0655   -2.5802   19.1237 C   0  0  0  0  0  0  0  0  0  0  0  0
   11.9445   -2.8787   19.3241 H   0  0  0  0  0  0  0  0  0  0  0  0
   10.8513   -1.7241   18.0699 C   0  0  0  0  0  0  0  0  0  0  0  0
   11.5834   -1.4302   17.5388 H   0  0  0  0  0  0  0  0  0  0  0  0
    9.5572   -1.2849   17.7790 C   0  0  0  0  0  0  0  0  0  0  0  0
    9.4190   -0.6681   17.0693 H   0  0  0  0  0  0  0  0  0  0  0  0
    6.0919   -0.8363   19.7117 C   0  0  0  0  0  0  0  0  0  0  0  0
    4.8059   -1.1723   20.1202 C   0  0  0  0  0  0  0  0  0  0  0  0
    4.2542   -1.6924   19.5470 H   0  0  0  0  0  0  0  0  0  0  0  0
    4.3161   -0.7611   21.3461 C   0  0  0  0  0  0  0  0  0  0  0  0
    3.4354   -0.9991   21.6092 H   0  0  0  0  0  0  0  0  0  0  0  0
    5.1048   -0.0076   22.1835 C   0  0  0  0  0  0  0  0  0  0  0  0
    4.7672    0.2804   23.0245 H   0  0  0  0  0  0  0  0  0  0  0  0
    6.3875    0.3310   21.8020 C   0  0  0  0  0  0  0  0  0  0  0  0
    6.9322    0.8484   22.3839 H   0  0  0  0  0  0  0  0  0  0  0  0
    6.8866   -0.0774   20.5770 C   0  0  0  0  0  0  0  0  0  0  0  0
    7.7712    0.1579   20.3238 H   0  0  0  0  0  0  0  0  0  0  0  0
    8.3928   -1.3313   14.6073 C   0  0  0  0  0  0  0  0  0  0  0  0
    8.8308   -0.0241   14.8713 C   0  0  0  0  0  0  0  0  0  0  0  0
   10.1723    0.2702   14.6078 C   0  0  0  0  0  0  0  0  0  0  0  0
   10.4883    1.1586   14.7257 H   0  0  0  0  0  0  0  0  0  0  0  0
   11.0422   -0.7102   14.1791 C   0  0  0  0  0  0  0  0  0  0  0  0
   11.9549   -0.4901   14.0289 H   0  0  0  0  0  0  0  0  0  0  0  0
   10.6143   -2.0003   13.9638 C   0  0  0  0  0  0  0  0  0  0  0  0
   11.2304   -2.6684   13.6892 H   0  0  0  0  0  0  0  0  0  0  0  0
    9.2629   -2.3205   14.1523 C   0  0  0  0  0  0  0  0  0  0  0  0
    8.9460   -3.1977   13.9726 H   0  0  0  0  0  0  0  0  0  0  0  0
    5.8403   -1.5725   13.2973 C   0  0  0  0  0  0  0  0  0  0  0  0
    4.5394   -2.0338   13.1570 C   0  0  0  0  0  0  0  0  0  0  0  0
    4.0629   -2.3399   13.9185 H   0  0  0  0  0  0  0  0  0  0  0  0
    3.9321   -2.0502   11.9171 C   0  0  0  0  0  0  0  0  0  0  0  0
    3.0450   -2.3781   11.8260 H   0  0  0  0  0  0  0  0  0  0  0  0
    4.6140   -1.5915   10.8126 C   0  0  0  0  0  0  0  0  0  0  0  0
    4.1969   -1.6051    9.9607 H   0  0  0  0  0  0  0  0  0  0  0  0
    5.8958   -1.1128   10.9383 C   0  0  0  0  0  0  0  0  0  0  0  0
    6.3587   -0.7910   10.1727 H   0  0  0  0  0  0  0  0  0  0  0  0
    6.5112   -1.0990   12.1703 C   0  0  0  0  0  0  0  0  0  0  0  0
    7.3968   -0.7657   12.2523 H   0  0  0  0  0  0  0  0  0  0  0  0
  1  2  1  0  0  0  0
  2 33  1  0  0  0  0
  3  1  1  0  0  0  0
  4  1  1  0  0  0  0
  5  1  1  0  0  0  0
  6  1  1  0  0  0  0
  7  1  1  0  0  0  0
  8  1  1  0  0  0  0
  9  8  1  0  0  0  0
 10  6  1  0  0  0  0
 11 10  1  0  0  0  0
 12  6  1  0  0  0  0
 13 12  1  0  0  0  0
 14  1  1  0  0  0  0
 15 14  1  0  0  0  0
 16  1  1  0  0  0  0
 17  8  1  0  0  0  0
 18 17  1  0  0  0  0
 19 10  1  0  0  0  0
 20 19  1  0  0  0  0
 21  7  1  0  0  0  0
 22 21  1  0  0  0  0
 23 14  1  0  0  0  0
 24 23  1  0  0  0  0
 25  6  1  0  0  0  0
 26 25  1  0  0  0  0
 27 25  1  0  0  0  0
 28 25  1  0  0  0  0
 29  7  1  0  0  0  0
 30 29  1  0  0  0  0
 31 29  1  0  0  0  0
 32 29  1  0  0  0  0
 33 34  1  0  0  0  0
 35 33  1  0  0  0  0
 36 33  1  0  0  0  0
 37 36  1  0  0  0  0
 38 36  1  0  0  0  0
 39  3  1  0  0  0  0
 40 39  1  0  0  0  0
 41 39  1  0  0  0  0
 42  2  1  0  0  0  0
 43 42  4  0  0  0  0
 44 43  1  0  0  0  0
 45 43  4  0  0  0  0
 46 45  1  0  0  0  0
 47 45  4  0  0  0  0
 48 47  1  0  0  0  0
 49 47  4  0  0  0  0
 50 49  1  0  0  0  0
 51 42  4  0  0  0  0
 52 51  1  0  0  0  0
 53  2  1  0  0  0  0
 54 53  4  0  0  0  0
 55 54  1  0  0  0  0
 56 54  4  0  0  0  0
 57 56  1  0  0  0  0
 58 56  4  0  0  0  0
 59 58  1  0  0  0  0
 60 58  4  0  0  0  0
 61 60  1  0  0  0  0
 62 53  4  0  0  0  0
 63 62  1  0  0  0  0
 64  3  1  0  0  0  0
 65 16  1  0  0  0  0
 66 65  4  0  0  0  0
 67 66  1  0  0  0  0
 68 66  4  0  0  0  0
 69 68  1  0  0  0  0
 70 68  4  0  0  0  0
 71 70  1  0  0  0  0
 72 64  4  0  0  0  0
 73 72  1  0  0  0  0
 74  3  1  0  0  0  0
 75 74  4  0  0  0  0
 76 75  1  0  0  0  0
 77 75  4  0  0  0  0
 78 77  1  0  0  0  0
 79 77  4  0  0  0  0
 80 79  1  0  0  0  0
 81 79  4  0  0  0  0
 82 81  1  0  0  0  0
 83 74  4  0  0  0  0
 84 83  1  0  0  0  0
  4  5  1  0  0  0  0
  6  7  1  0  0  0  0
  6  8  1  0  0  0  0
  7 12  1  0  0  0  0
  7 14  1  0  0  0  0
  8 10  1  0  0  0  0
  8 16  1  0  0  0  0
 10 12  1  0  0  0  0
 10 17  1  0  0  0  0
 12 19  1  0  0  0  0
 12 21  1  0  0  0  0
 14 16  1  0  0  0  0
 14 21  1  0  0  0  0
 16 17  1  0  0  0  0
 16 23  1  0  0  0  0
 17 19  1  0  0  0  0
 17 23  1  0  0  0  0
 19 21  1  0  0  0  0
 19 23  1  0  0  0  0
 21 23  1  0  0  0  0
 36 39  1  0  0  0  0
 49 51  4  0  0  0  0
 60 62  4  0  0  0  0
 64 65  4  0  0  0  0
 70 72  4  0  0  0  0
 81 83  4  0  0  0  0
M  END
$$$$
TUSJOI

From CSD data. Using bond type 'Any'. No disordered atoms. Largest molecule.
100106  0  0  0  0  0  0  0  0999 V2000
   -0.8539   10.5897    7.3928 Ag  0  0  0  0  0  0  0  0  0  0  0  0
    1.4141   11.2256    7.6413 P   0  0  0  0  0  0  0  0  0  0  0  0
    2.1975    6.5469    7.2704 N   0  0  0  0  0  0  0  0  0  0  0  0
    2.1007    8.7595    6.6759 N   0  0  0  0  0  0  0  0  0  0  0  0
    1.4347    8.5175    6.1543 H   0  0  0  0  0  0  0  0  0  0  0  0
    2.5244   10.1466    6.6167 C   0  0  0  0  0  0  0  0  0  0  0  0
    3.4544   10.2206    6.9477 H   0  0  0  0  0  0  0  0  0  0  0  0
    2.5089   10.4554    5.6761 H   0  0  0  0  0  0  0  0  0  0  0  0
    2.6533    7.8034    7.4747 C   0  0  0  0  0  0  0  0  0  0  0  0
    2.7463    5.5395    7.9883 C   0  0  0  0  0  0  0  0  0  0  0  0
    2.4479    4.6533    7.8200 H   0  0  0  0  0  0  0  0  0  0  0  0
    3.7130    5.7300    8.9487 C   0  0  0  0  0  0  0  0  0  0  0  0
    4.0758    4.9963    9.4312 H   0  0  0  0  0  0  0  0  0  0  0  0
    4.1403    7.0297    9.1880 C   0  0  0  0  0  0  0  0  0  0  0  0
    4.7904    7.1989    9.8605 H   0  0  0  0  0  0  0  0  0  0  0  0
    3.6249    8.0711    8.4554 C   0  0  0  0  0  0  0  0  0  0  0  0
    3.9212    8.9603    8.6093 H   0  0  0  0  0  0  0  0  0  0  0  0
    1.8554   12.9257    7.1744 C   0  0  0  0  0  0  0  0  0  0  0  0
    3.0181   13.2567    6.4819 C   0  0  0  0  0  0  0  0  0  0  0  0
    3.6196   12.5748    6.2087 H   0  0  0  0  0  0  0  0  0  0  0  0
    3.2962   14.5854    6.1913 C   0  0  0  0  0  0  0  0  0  0  0  0
    4.0913   14.8090    5.7210 H   0  0  0  0  0  0  0  0  0  0  0  0
    2.4281   15.5820    6.5800 C   0  0  0  0  0  0  0  0  0  0  0  0
    2.6174   16.4872    6.3636 H   0  0  0  0  0  0  0  0  0  0  0  0
    1.2788   15.2630    7.2863 C   0  0  0  0  0  0  0  0  0  0  0  0
    0.6887   15.9511    7.5686 H   0  0  0  0  0  0  0  0  0  0  0  0
    0.9894   13.9350    7.5807 C   0  0  0  0  0  0  0  0  0  0  0  0
    0.1990   13.7169    8.0604 H   0  0  0  0  0  0  0  0  0  0  0  0
    2.0693   11.0679    9.3320 C   0  0  0  0  0  0  0  0  0  0  0  0
    1.3004   10.4196   10.2909 C   0  0  0  0  0  0  0  0  0  0  0  0
    0.4278   10.1141   10.0725 H   0  0  0  0  0  0  0  0  0  0  0  0
    1.8092   10.2168   11.5714 C   0  0  0  0  0  0  0  0  0  0  0  0
    1.2876    9.7645   12.2231 H   0  0  0  0  0  0  0  0  0  0  0  0
    3.0715   10.6708   11.8931 C   0  0  0  0  0  0  0  0  0  0  0  0
    3.4179   10.5236   12.7652 H   0  0  0  0  0  0  0  0  0  0  0  0
    3.8369   11.3406   10.9494 C   0  0  0  0  0  0  0  0  0  0  0  0
    4.7003   11.6624   11.1811 H   0  0  0  0  0  0  0  0  0  0  0  0
    3.3438   11.5420    9.6687 C   0  0  0  0  0  0  0  0  0  0  0  0
    3.8685   12.0004    9.0223 H   0  0  0  0  0  0  0  0  0  0  0  0
   -1.9113    9.2016    9.3311 O   0  0  0  0  0  0  0  0  0  0  0  0
   -1.5704    8.7389    9.9434 H   0  0  0  0  0  0  0  0  0  0  0  0
   -3.1291    9.7913    9.7995 C   0  0  0  0  0  0  0  0  0  0  0  0
   -3.6124    9.1451   10.3551 H   0  0  0  0  0  0  0  0  0  0  0  0
   -3.6853   10.0442    9.0332 H   0  0  0  0  0  0  0  0  0  0  0  0
   -2.9226   10.5886   10.3306 H   0  0  0  0  0  0  0  0  0  0  0  0
   -2.8126   13.6919    8.9564 B   0  0  0  0  0  0  0  0  0  0  0  0
   -2.0143   12.6527    8.5318 F   0  0  0  0  0  0  0  0  0  0  0  0
   -2.1503   14.8909    8.7479 F   0  0  0  0  0  0  0  0  0  0  0  0
   -3.1014   13.5487   10.3014 F   0  0  0  0  0  0  0  0  0  0  0  0
   -3.9988   13.7104    8.2355 F   0  0  0  0  0  0  0  0  0  0  0  0
    0.3232    6.0590    6.1929 Ag  0  0  0  0  0  0  0  0  0  0  0  0
   -1.9448    5.4231    5.9444 P   0  0  0  0  0  0  0  0  0  0  0  0
   -2.7282   10.1018    6.3153 N   0  0  0  0  0  0  0  0  0  0  0  0
   -2.6314    7.8892    6.9098 N   0  0  0  0  0  0  0  0  0  0  0  0
   -1.9654    8.1312    7.4314 H   0  0  0  0  0  0  0  0  0  0  0  0
   -3.0551    6.5021    6.9691 C   0  0  0  0  0  0  0  0  0  0  0  0
   -3.9851    6.4281    6.6380 H   0  0  0  0  0  0  0  0  0  0  0  0
   -3.0396    6.1933    7.9096 H   0  0  0  0  0  0  0  0  0  0  0  0
   -3.1840    8.8453    6.1110 C   0  0  0  0  0  0  0  0  0  0  0  0
   -3.2770   11.1092    5.5975 C   0  0  0  0  0  0  0  0  0  0  0  0
   -2.9785   11.9954    5.7658 H   0  0  0  0  0  0  0  0  0  0  0  0
   -4.2437   10.9187    4.6371 C   0  0  0  0  0  0  0  0  0  0  0  0
   -4.6065   11.6524    4.1545 H   0  0  0  0  0  0  0  0  0  0  0  0
   -4.6710    9.6190    4.3977 C   0  0  0  0  0  0  0  0  0  0  0  0
   -5.3211    9.4498    3.7252 H   0  0  0  0  0  0  0  0  0  0  0  0
   -4.1556    8.5776    5.1304 C   0  0  0  0  0  0  0  0  0  0  0  0
   -4.4519    7.6884    4.9765 H   0  0  0  0  0  0  0  0  0  0  0  0
   -2.3861    3.7230    6.4114 C   0  0  0  0  0  0  0  0  0  0  0  0
   -3.5488    3.3920    7.1038 C   0  0  0  0  0  0  0  0  0  0  0  0
   -4.1503    4.0739    7.3771 H   0  0  0  0  0  0  0  0  0  0  0  0
   -3.8269    2.0633    7.3944 C   0  0  0  0  0  0  0  0  0  0  0  0
   -4.6220    1.8397    7.8648 H   0  0  0  0  0  0  0  0  0  0  0  0
   -2.9588    1.0667    7.0058 C   0  0  0  0  0  0  0  0  0  0  0  0
   -3.1481    0.1615    7.2222 H   0  0  0  0  0  0  0  0  0  0  0  0
   -1.8095    1.3857    6.2994 C   0  0  0  0  0  0  0  0  0  0  0  0
   -1.2194    0.6976    6.0171 H   0  0  0  0  0  0  0  0  0  0  0  0
   -1.5201    2.7137    6.0050 C   0  0  0  0  0  0  0  0  0  0  0  0
   -0.7297    2.9318    5.5253 H   0  0  0  0  0  0  0  0  0  0  0  0
   -2.6000    5.5808    4.2537 C   0  0  0  0  0  0  0  0  0  0  0  0
   -1.8311    6.2291    3.2948 C   0  0  0  0  0  0  0  0  0  0  0  0
   -0.9585    6.5346    3.5133 H   0  0  0  0  0  0  0  0  0  0  0  0
   -2.3398    6.4319    2.0144 C   0  0  0  0  0  0  0  0  0  0  0  0
   -1.8183    6.8842    1.3626 H   0  0  0  0  0  0  0  0  0  0  0  0
   -3.6021    5.9779    1.6926 C   0  0  0  0  0  0  0  0  0  0  0  0
   -3.9486    6.1251    0.8206 H   0  0  0  0  0  0  0  0  0  0  0  0
   -4.3676    5.3081    2.6363 C   0  0  0  0  0  0  0  0  0  0  0  0
   -5.2310    4.9863    2.4047 H   0  0  0  0  0  0  0  0  0  0  0  0
   -3.8745    5.1067    3.9170 C   0  0  0  0  0  0  0  0  0  0  0  0
   -4.3992    4.6483    4.5634 H   0  0  0  0  0  0  0  0  0  0  0  0
    1.3806    7.4471    4.2546 O   0  0  0  0  0  0  0  0  0  0  0  0
    1.0397    7.9098    3.6423 H   0  0  0  0  0  0  0  0  0  0  0  0
    2.5984    6.8574    3.7862 C   0  0  0  0  0  0  0  0  0  0  0  0
    3.0817    7.5036    3.2307 H   0  0  0  0  0  0  0  0  0  0  0  0
    3.1546    6.6045    4.5526 H   0  0  0  0  0  0  0  0  0  0  0  0
    2.3919    6.0601    3.2551 H   0  0  0  0  0  0  0  0  0  0  0  0
    2.2819    2.9568    4.6293 B   0  0  0  0  0  0  0  0  0  0  0  0
    1.4836    3.9960    5.0539 F   0  0  0  0  0  0  0  0  0  0  0  0
    1.6196    1.7578    4.8379 F   0  0  0  0  0  0  0  0  0  0  0  0
    2.5707    3.1000    3.2844 F   0  0  0  0  0  0  0  0  0  0  0  0
    3.4681    2.9383    5.3502 F   0  0  0  0  0  0  0  0  0  0  0  0
  1  2  1  0  0  0  0
  2  6  1  0  0  0  0
  3  9  4  0  0  0  0
  4  5  1  0  0  0  0
  6  4  1  0  0  0  0
  7  6  1  0  0  0  0
  8  6  1  0  0  0  0
  9  4  1  0  0  0  0
 10  3  4  0  0  0  0
 11 10  1  0  0  0  0
 12 10  4  0  0  0  0
 13 12  1  0  0  0  0
 14 12  4  0  0  0  0
 15 14  1  0  0  0  0
 16  9  4  0  0  0  0
 17 16  1  0  0  0  0
 18  2  1  0  0  0  0
 19 18  4  0  0  0  0
 20 19  1  0  0  0  0
 21 19  4  0  0  0  0
 22 21  1  0  0  0  0
 23 21  4  0  0  0  0
 24 23  1  0  0  0  0
 25 23  4  0  0  0  0
 26 25  1  0  0  0  0
 27 18  4  0  0  0  0
 28 27  1  0  0  0  0
 29  2  1  0  0  0  0
 30 29  4  0  0  0  0
 31 30  1  0  0  0  0
 32 30  4  0  0  0  0
 33 32  1  0  0  0  0
 34 32  4  0  0  0  0
 35 34  1  0  0  0  0
 36 34  4  0  0  0  0
 37 36  1  0  0  0  0
 38 29  4  0  0  0  0
 39 38  1  0  0  0  0
 40  1  1  0  0  0  0
 41 40  1  0  0  0  0
 42 40  1  0  0  0  0
 43 42  1  0  0  0  0
 44 42  1  0  0  0  0
 45 42  1  0  0  0  0
 46 47  1  0  0  0  0
 47  1  1  0  0  0  0
 48 46  1  0  0  0  0
 49 46  1  0  0  0  0
 50 46  1  0  0  0  0
 51  3  1  0  0  0  0
 52 51  1  0  0  0  0
 53  1  1  0  0  0  0
 54 55  1  0  0  0  0
 56 52  1  0  0  0  0
 57 56  1  0  0  0  0
 58 56  1  0  0  0  0
 59 53  4  0  0  0  0
 60 53  4  0  0  0  0
 61 60  1  0  0  0  0
 62 60  4  0  0  0  0
 63 62  1  0  0  0  0
 64 62  4  0  0  0  0
 65 64  1  0  0  0  0
 66 59  4  0  0  0  0
 67 66  1  0  0  0  0
 68 52  1  0  0  0  0
 69 68  4  0  0  0  0
 70 69  1  0  0  0  0
 71 69  4  0  0  0  0
 72 71  1  0  0  0  0
 73 71  4  0  0  0  0
 74 73  1  0  0  0  0
 75 73  4  0  0  0  0
 76 75  1  0  0  0  0
 77 68  4  0  0  0  0
 78 77  1  0  0  0  0
 79 52  1  0  0  0  0
 80 79  4  0  0  0  0
 81 80  1  0  0  0  0
 82 80  4  0  0  0  0
 83 82  1  0  0  0  0
 84 82  4  0  0  0  0
 85 84  1  0  0  0  0
 86 84  4  0  0  0  0
 87 86  1  0  0  0  0
 88 79  4  0  0  0  0
 89 88  1  0  0  0  0
 90 51  1  0  0  0  0
 91 90  1  0  0  0  0
 92 90  1  0  0  0  0
 93 92  1  0  0  0  0
 94 92  1  0  0  0  0
 95 92  1  0  0  0  0
 96 97  1  0  0  0  0
 97 51  1  0  0  0  0
 98 96  1  0  0  0  0
 99 96  1  0  0  0  0
100 96  1  0  0  0  0
 14 16  4  0  0  0  0
 25 27  4  0  0  0  0
 36 38  4  0  0  0  0
 54 56  1  0  0  0  0
 54 59  1  0  0  0  0
 64 66  4  0  0  0  0
 75 77  4  0  0  0  0
 86 88  4  0  0  0  0
M  END
$$$$
TUVCET

From CSD data. Using bond type 'Any'. No disordered atoms. Largest molecule.
100110  0  0  0  0  0  0  0  0999 V2000
   -1.0340    3.5044    4.7352 C   0  0  0  0  0  0  0  0  0  0  0  0
   -1.6919    2.8029    5.0097 H   0  0  0  0  0  0  0  0  0  0  0  0
   -1.2637    6.3257    5.6759 C   0  0  0  0  0  0  0  0  0  0  0  0
   -0.6145    7.1149    4.7283 C   0  0  0  0  0  0  0  0  0  0  0  0
    0.1462    6.7721    4.2731 H   0  0  0  0  0  0  0  0  0  0  0  0
   -1.0670    8.3852    4.4455 C   0  0  0  0  0  0  0  0  0  0  0  0
   -0.6126    8.9175    3.8028 H   0  0  0  0  0  0  0  0  0  0  0  0
   -2.1778    8.8861    5.0938 C   0  0  0  0  0  0  0  0  0  0  0  0
   -2.4864    9.7623    4.8993 H   0  0  0  0  0  0  0  0  0  0  0  0
   -2.8314    8.1219    6.0138 C   0  0  0  0  0  0  0  0  0  0  0  0
   -3.5978    8.4686    6.4552 H   0  0  0  0  0  0  0  0  0  0  0  0
   -2.3853    6.8325    6.3145 C   0  0  0  0  0  0  0  0  0  0  0  0
   -2.8491    6.3055    6.9545 H   0  0  0  0  0  0  0  0  0  0  0  0
   -1.4420    4.0247    7.4607 C   0  0  0  0  0  0  0  0  0  0  0  0
   -2.7855    3.6624    7.4400 C   0  0  0  0  0  0  0  0  0  0  0  0
   -3.2929    3.7996    6.6483 H   0  0  0  0  0  0  0  0  0  0  0  0
   -3.3959    3.1075    8.5503 C   0  0  0  0  0  0  0  0  0  0  0  0
   -4.3151    2.8700    8.5200 H   0  0  0  0  0  0  0  0  0  0  0  0
   -2.6663    2.9022    9.7034 C   0  0  0  0  0  0  0  0  0  0  0  0
   -3.0811    2.5130   10.4648 H   0  0  0  0  0  0  0  0  0  0  0  0
   -1.3444    3.2567    9.7503 C   0  0  0  0  0  0  0  0  0  0  0  0
   -0.8478    3.1210   10.5490 H   0  0  0  0  0  0  0  0  0  0  0  0
   -0.7248    3.8155    8.6359 C   0  0  0  0  0  0  0  0  0  0  0  0
    0.1926    4.0541    8.6772 H   0  0  0  0  0  0  0  0  0  0  0  0
    0.9750    6.9675    8.1131 C   0  0  0  0  0  0  0  0  0  0  0  0
    1.5857    7.5214    8.6400 H   0  0  0  0  0  0  0  0  0  0  0  0
    0.4298    6.4186    8.7145 H   0  0  0  0  0  0  0  0  0  0  0  0
    0.3899    7.5426    7.5765 H   0  0  0  0  0  0  0  0  0  0  0  0
    3.2038    4.9833    8.0552 C   0  0  0  0  0  0  0  0  0  0  0  0
    2.7536    4.2803    8.5697 H   0  0  0  0  0  0  0  0  0  0  0  0
    3.6165    5.6269    8.6690 H   0  0  0  0  0  0  0  0  0  0  0  0
    3.8973    4.5807    7.4910 H   0  0  0  0  0  0  0  0  0  0  0  0
    2.9083    6.9432    5.8028 C   0  0  0  0  0  0  0  0  0  0  0  0
    3.4699    7.5638    6.3117 H   0  0  0  0  0  0  0  0  0  0  0  0
    2.2792    7.4507    5.2483 H   0  0  0  0  0  0  0  0  0  0  0  0
    3.4750    6.3868    5.2290 H   0  0  0  0  0  0  0  0  0  0  0  0
   -1.9157    5.1847    2.4524 C   0  0  0  0  0  0  0  0  0  0  0  0
   -3.1133    5.4484    3.1131 C   0  0  0  0  0  0  0  0  0  0  0  0
   -3.3502    4.9377    3.8772 H   0  0  0  0  0  0  0  0  0  0  0  0
   -3.9603    6.4483    2.6690 C   0  0  0  0  0  0  0  0  0  0  0  0
   -4.7846    6.6060    3.1159 H   0  0  0  0  0  0  0  0  0  0  0  0
   -3.6076    7.2114    1.5807 C   0  0  0  0  0  0  0  0  0  0  0  0
   -4.1910    7.8961    1.2717 H   0  0  0  0  0  0  0  0  0  0  0  0
   -2.4150    6.9873    0.9407 C   0  0  0  0  0  0  0  0  0  0  0  0
   -2.1637    7.5320    0.2041 H   0  0  0  0  0  0  0  0  0  0  0  0
   -1.5781    5.9736    1.3641 C   0  0  0  0  0  0  0  0  0  0  0  0
   -0.7626    5.8142    0.9034 H   0  0  0  0  0  0  0  0  0  0  0  0
   -1.7428    2.3462    2.2455 C   0  0  0  0  0  0  0  0  0  0  0  0
   -0.9731    1.3739    1.6097 C   0  0  0  0  0  0  0  0  0  0  0  0
   -0.0306    1.4739    1.5490 H   0  0  0  0  0  0  0  0  0  0  0  0
   -1.5885    0.2640    1.0690 C   0  0  0  0  0  0  0  0  0  0  0  0
   -1.0631   -0.4065    0.6469 H   0  0  0  0  0  0  0  0  0  0  0  0
   -2.9550    0.1149    1.1338 C   0  0  0  0  0  0  0  0  0  0  0  0
   -3.3703   -0.6433    0.7407 H   0  0  0  0  0  0  0  0  0  0  0  0
   -3.7118    1.0603    1.7628 C   0  0  0  0  0  0  0  0  0  0  0  0
   -4.6550    0.9543    1.8179 H   0  0  0  0  0  0  0  0  0  0  0  0
   -3.1093    2.1755    2.3228 C   0  0  0  0  0  0  0  0  0  0  0  0
   -3.6415    2.8276    2.7641 H   0  0  0  0  0  0  0  0  0  0  0  0
    3.1913    3.3154    1.3269 C   0  0  0  0  0  0  0  0  0  0  0  0
    3.6880    3.4567    0.4952 H   0  0  0  0  0  0  0  0  0  0  0  0
    2.9930    2.3610    1.4317 H   0  0  0  0  0  0  0  0  0  0  0  0
    3.7321    3.6229    2.0855 H   0  0  0  0  0  0  0  0  0  0  0  0
    0.7942    3.8607   -0.3614 C   0  0  0  0  0  0  0  0  0  0  0  0
    0.7678    2.8877   -0.4717 H   0  0  0  0  0  0  0  0  0  0  0  0
    1.3113    4.2591   -1.0910 H   0  0  0  0  0  0  0  0  0  0  0  0
   -0.1190    4.2166   -0.3752 H   0  0  0  0  0  0  0  0  0  0  0  0
    2.0800    6.0814    1.3186 C   0  0  0  0  0  0  0  0  0  0  0  0
    2.7202    6.2667    0.6014 H   0  0  0  0  0  0  0  0  0  0  0  0
    2.4914    6.2879    2.1848 H   0  0  0  0  0  0  0  0  0  0  0  0
    1.2814    6.6378    1.1959 H   0  0  0  0  0  0  0  0  0  0  0  0
   -0.1457    0.6316    7.0359 C   0  0  0  0  0  0  0  0  0  0  0  0
   -0.2510    0.0318    6.2552 H   0  0  0  0  0  0  0  0  0  0  0  0
   -0.9709    1.1699    7.1324 H   0  0  0  0  0  0  0  0  0  0  0  0
    0.0993   -0.1626    8.2676 C   0  0  0  0  0  0  0  0  0  0  0  0
    0.3843   -1.0816    8.0400 H   0  0  0  0  0  0  0  0  0  0  0  0
   -0.7200   -0.2085    8.8221 H   0  0  0  0  0  0  0  0  0  0  0  0
    1.1868    0.5662    8.9903 C   0  0  0  0  0  0  0  0  0  0  0  0
    0.8085    1.2088    9.6400 H   0  0  0  0  0  0  0  0  0  0  0  0
    1.7754   -0.0672    9.4717 H   0  0  0  0  0  0  0  0  0  0  0  0
    1.9308    1.2714    7.9200 C   0  0  0  0  0  0  0  0  0  0  0  0
    2.2853    2.1313    8.2565 H   0  0  0  0  0  0  0  0  0  0  0  0
    2.6893    0.7175    7.6055 H   0  0  0  0  0  0  0  0  0  0  0  0
    4.2849    3.1810    4.9352 B   0  0  0  0  0  0  0  0  0  0  0  0
    5.3028    3.4532    5.1310 H   0  0  0  0  0  0  0  0  0  0  0  0
    4.0929    2.4247    4.0965 H   0  0  0  0  0  0  0  0  0  0  0  0
    3.6479    4.1212    4.7172 H   0  0  0  0  0  0  0  0  0  0  0  0
    3.8146    2.7640    5.8897 H   0  0  0  0  0  0  0  0  0  0  0  0
    1.6694    0.1456    3.7255 B   0  0  0  0  0  0  0  0  0  0  0  0
    2.1260    0.9013    2.9793 H   0  0  0  0  0  0  0  0  0  0  0  0
    1.7083   -0.8872    3.3655 H   0  0  0  0  0  0  0  0  0  0  0  0
    0.5701    0.4984    4.0552 H   0  0  0  0  0  0  0  0  0  0  0  0
    2.2248    0.3146    4.5931 H   0  0  0  0  0  0  0  0  0  0  0  0
    0.9860    4.7086    6.1255 N   0  0  0  0  0  0  0  0  0  0  0  0
    0.6476    3.8579    2.6524 N   0  0  0  0  0  0  0  0  0  0  0  0
    0.9978    1.4965    6.8510 O   0  0  0  0  0  0  0  0  0  0  0  0
   -0.6042    4.6539    5.9811 P   0  0  0  0  0  0  0  0  0  0  0  0
   -0.9075    3.7787    3.0168 P   0  0  0  0  0  0  0  0  0  0  0  0
    1.9619    5.8591    6.9814 Si  0  0  0  0  0  0  0  0  0  0  0  0
    1.5986    4.2789    1.2720 Si  0  0  0  0  0  0  0  0  0  0  0  0
    1.6335    2.6918    4.7022 La  0  0  0  0  0  0  0  0  0  0  0  0
  1  2  1  0  0  0  0
  3  4  4  0  0  0  0
  4  5  1  0  0  0  0
  6  4  4  0  0  0  0
  7  6  1  0  0  0  0
  8  6  4  0  0  0  0
  9  8  1  0  0  0  0
 10  8  4  0  0  0  0
 11 10  1  0  0  0  0
 12  3  4  0  0  0  0
 13 12  1  0  0  0  0
 14 15  4  0  0  0  0
 15 16  1  0  0  0  0
 17 15  4  0  0  0  0
 18 17  1  0  0  0  0
 19 17  4  0  0  0  0
 20 19  1  0  0  0  0
 21 19  4  0  0  0  0
 22 21  1  0  0  0  0
 23 14  4  0  0  0  0
 24 23  1  0  0  0  0
 25 26  1  0  0  0  0
 27 25  1  0  0  0  0
 28 25  1  0  0  0  0
 29 30  1  0  0  0  0
 31 29  1  0  0  0  0
 32 29  1  0  0  0  0
 33 34  1  0  0  0  0
 35 33  1  0  0  0  0
 36 33  1  0  0  0  0
 37 38  4  0  0  0  0
 38 39  1  0  0  0  0
 40 38  4  0  0  0  0
 41 40  1  0  0  0  0
 42 40  4  0  0  0  0
 43 42  1  0  0  0  0
 44 42  4  0  0  0  0
 45 44  1  0  0  0  0
 46 37  4  0  0  0  0
 47 46  1  0  0  0  0
 48 49  4  0  0  0  0
 49 50  1  0  0  0  0
 51 49  4  0  0  0  0
 52 51  1  0  0  0  0
 53 51  4  0  0  0  0
 54 53  1  0  0  0  0
 55 53  4  0  0  0  0
 56 55  1  0  0  0  0
 57 48  4  0  0  0  0
 58 57  1  0  0  0  0
 59 60  1  0  0  0  0
 61 59  1  0  0  0  0
 62 59  1  0  0  0  0
 63 64  1  0  0  0  0
 65 63  1  0  0  0  0
 66 63  1  0  0  0  0
 67 68  1  0  0  0  0
 69 67  1  0  0  0  0
 70 67  1  0  0  0  0
 71 72  1  0  0  0  0
 73 71  1  0  0  0  0
 74 71  1  0  0  0  0
 75 74  1  0  0  0  0
 76 74  1  0  0  0  0
 77 74  1  0  0  0  0
 78 77  1  0  0  0  0
 79 77  1  0  0  0  0
 80 77  1  0  0  0  0
 81 80  1  0  0  0  0
 82 80  1  0  0  0  0
 83 84  1  0  0  0  0
 85 83  1  0  0  0  0
 86 83  1  0  0  0  0
 87 83  1  0  0  0  0
 88 89  1  0  0  0  0
 89100  1  0  0  0  0
 90 88  1  0  0  0  0
 91 88  1  0  0  0  0
 92 88  1  0  0  0  0
 93 96  2  0  0  0  0
 94 97  2  0  0  0  0
 95 71  1  0  0  0  0
 96  1  1  0  0  0  0
 97  1  1  0  0  0  0
 98 25  1  0  0  0  0
 99 59  1  0  0  0  0
100  1  1  0  0  0  0
  3 96  1  0  0  0  0
 10 12  4  0  0  0  0
 14 96  1  0  0  0  0
 21 23  4  0  0  0  0
 29 98  1  0  0  0  0
 33 98  1  0  0  0  0
 37 97  1  0  0  0  0
 44 46  4  0  0  0  0
 48 97  1  0  0  0  0
 55 57  4  0  0  0  0
 63 99  1  0  0  0  0
 67 99  1  0  0  0  0
 80 95  1  0  0  0  0
 85100  1  0  0  0  0
 86100  1  0  0  0  0
 87100  1  0  0  0  0
 91100  1  0  0  0  0
 92100  1  0  0  0  0
 93 98  1  0  0  0  0
 93100  1  0  0  0  0
 94 99  1  0  0  0  0
 94100  1  0  0  0  0
 95100  1  0  0  0  0
M  END
$$$$
UBIYOX

From CSD data. Using bond type 'Any'. Matching problem. No disordered atoms. Largest molecule.
148156  0  0  0  0  0  0  0  0999 V2000
   17.4151    6.1640    1.7358 P   0  0  0  0  0  0  0  0  0  0  0  0
   19.8648    3.9631    4.9304 P   0  0  0  0  0  0  0  0  0  0  0  0
   19.6369    4.2761    2.0041 O   0  0  0  0  0  0  0  0  0  0  0  0
   21.2045    3.6258    7.6127 B   0  0  0  0  0  0  0  0  0  0  0  0
   14.9763    7.3677    0.4158 B   0  0  0  0  0  0  0  0  0  0  0  0
   16.4339    7.5002    0.9048 C   0  0  0  0  0  0  0  0  0  0  0  0
   21.1524    3.0051   -0.1650 C   0  0  0  0  0  0  0  0  0  0  0  0
   22.6136    3.0248   -0.6847 C   0  0  0  0  0  0  0  0  0  0  0  0
   22.6245    3.3149   -1.6202 H   0  0  0  0  0  0  0  0  0  0  0  0
   22.9984    2.1260   -0.6168 H   0  0  0  0  0  0  0  0  0  0  0  0
   23.1455    3.6477   -0.1446 H   0  0  0  0  0  0  0  0  0  0  0  0
   20.3361    2.0286   -1.0465 C   0  0  0  0  0  0  0  0  0  0  0  0
   19.4151    1.9804   -0.7142 H   0  0  0  0  0  0  0  0  0  0  0  0
   20.7430    1.1375   -1.0122 H   0  0  0  0  0  0  0  0  0  0  0  0
   20.3307    2.3494   -1.9713 H   0  0  0  0  0  0  0  0  0  0  0  0
   20.2928    3.0653    6.4963 C   0  0  0  0  0  0  0  0  0  0  0  0
   19.5625    2.0308    7.0051 C   0  0  0  0  0  0  0  0  0  0  0  0
   19.9694    1.6509    7.7762 H   0  0  0  0  0  0  0  0  0  0  0  0
   16.7907    8.8073    0.9511 C   0  0  0  0  0  0  0  0  0  0  0  0
   16.4013    9.3438    0.2715 H   0  0  0  0  0  0  0  0  0  0  0  0
   17.7088    9.5660    1.9005 C   0  0  0  0  0  0  0  0  0  0  0  0
   17.8087   10.9980    1.3900 C   0  0  0  0  0  0  0  0  0  0  0  0
   18.0738   10.9914    0.4456 H   0  0  0  0  0  0  0  0  0  0  0  0
   18.4760   11.4862    1.9153 H   0  0  0  0  0  0  0  0  0  0  0  0
   16.9370   11.4381    1.4785 H   0  0  0  0  0  0  0  0  0  0  0  0
   17.1384    9.5354    3.3348 C   0  0  0  0  0  0  0  0  0  0  0  0
   16.2640    9.9765    3.3495 H   0  0  0  0  0  0  0  0  0  0  0  0
   17.7498   10.0050    3.9397 H   0  0  0  0  0  0  0  0  0  0  0  0
   17.0391    8.6059    3.6299 H   0  0  0  0  0  0  0  0  0  0  0  0
   19.1515    8.9902    1.8828 C   0  0  0  0  0  0  0  0  0  0  0  0
   19.1520    8.0958    2.2842 H   0  0  0  0  0  0  0  0  0  0  0  0
   19.7432    9.5781    2.3963 H   0  0  0  0  0  0  0  0  0  0  0  0
   19.4694    8.9343    0.9591 H   0  0  0  0  0  0  0  0  0  0  0  0
   16.3904    4.6243    1.5437 C   0  0  0  0  0  0  0  0  0  0  0  0
   16.0785    3.9619    0.3429 C   0  0  0  0  0  0  0  0  0  0  0  0
   15.2897    2.8059    0.3925 C   0  0  0  0  0  0  0  0  0  0  0  0
   15.0962    2.3504   -0.4191 H   0  0  0  0  0  0  0  0  0  0  0  0
   14.7855    2.3067    1.5611 C   0  0  0  0  0  0  0  0  0  0  0  0
   15.0761    2.9646    2.7342 C   0  0  0  0  0  0  0  0  0  0  0  0
   14.7303    2.6263    3.5531 H   0  0  0  0  0  0  0  0  0  0  0  0
   15.8677    4.1152    2.7540 C   0  0  0  0  0  0  0  0  0  0  0  0
   16.5196    4.4382   -1.0282 C   0  0  0  0  0  0  0  0  0  0  0  0
   16.4481    5.4147   -1.0742 H   0  0  0  0  0  0  0  0  0  0  0  0
   15.9442    4.0375   -1.7146 H   0  0  0  0  0  0  0  0  0  0  0  0
   17.4489    4.1699   -1.1834 H   0  0  0  0  0  0  0  0  0  0  0  0
   13.9100    1.0532    1.5552 C   0  0  0  0  0  0  0  0  0  0  0  0
   14.4800    0.2562    1.5228 H   0  0  0  0  0  0  0  0  0  0  0  0
   13.3243    1.0674    0.7702 H   0  0  0  0  0  0  0  0  0  0  0  0
   13.3668    1.0302    2.3698 H   0  0  0  0  0  0  0  0  0  0  0  0
   16.1067    4.7797    4.0888 C   0  0  0  0  0  0  0  0  0  0  0  0
   15.5483    4.3517    4.7720 H   0  0  0  0  0  0  0  0  0  0  0  0
   15.8766    5.7300    4.0253 H   0  0  0  0  0  0  0  0  0  0  0  0
   17.0499    4.6878    4.3352 H   0  0  0  0  0  0  0  0  0  0  0  0
   18.7572    5.8734    0.5094 C   0  0  0  0  0  0  0  0  0  0  0  0
   19.6656    4.8312    0.7269 C   0  0  0  0  0  0  0  0  0  0  0  0
   20.4980    4.3637   -0.2715 C   0  0  0  0  0  0  0  0  0  0  0  0
   20.5753    5.0884   -1.4360 C   0  0  0  0  0  0  0  0  0  0  0  0
   21.1653    4.8016   -2.1219 H   0  0  0  0  0  0  0  0  0  0  0  0
   19.8245    6.2095   -1.6284 C   0  0  0  0  0  0  0  0  0  0  0  0
   19.9440    6.7328   -2.4140 H   0  0  0  0  0  0  0  0  0  0  0  0
   18.8830    6.5905   -0.6752 C   0  0  0  0  0  0  0  0  0  0  0  0
   18.3236    7.3415   -0.8352 H   0  0  0  0  0  0  0  0  0  0  0  0
   20.5435    2.8168    3.6429 C   0  0  0  0  0  0  0  0  0  0  0  0
   20.4482    3.1858    2.2794 C   0  0  0  0  0  0  0  0  0  0  0  0
   21.1184    2.4982    1.2749 C   0  0  0  0  0  0  0  0  0  0  0  0
   21.7589    1.3137    1.6346 C   0  0  0  0  0  0  0  0  0  0  0  0
   22.2287    0.8211    0.9709 H   0  0  0  0  0  0  0  0  0  0  0  0
   21.7306    0.8397    2.9293 C   0  0  0  0  0  0  0  0  0  0  0  0
   22.1167   -0.0022    3.1370 H   0  0  0  0  0  0  0  0  0  0  0  0
   21.1350    1.5951    3.9220 C   0  0  0  0  0  0  0  0  0  0  0  0
   21.1332    1.2699    4.8162 H   0  0  0  0  0  0  0  0  0  0  0  0
   21.0800    5.3599    4.8853 C   0  0  0  0  0  0  0  0  0  0  0  0
   20.5254    6.6518    5.0060 C   0  0  0  0  0  0  0  0  0  0  0  0
   21.3509    7.7706    5.0231 C   0  0  0  0  0  0  0  0  0  0  0  0
   20.9559    8.6311    5.0995 H   0  0  0  0  0  0  0  0  0  0  0  0
   22.7258    7.6754    4.9313 C   0  0  0  0  0  0  0  0  0  0  0  0
   23.2685    6.4164    4.8230 C   0  0  0  0  0  0  0  0  0  0  0  0
   24.2149    6.3343    4.7631 H   0  0  0  0  0  0  0  0  0  0  0  0
   22.4885    5.2406    4.7947 C   0  0  0  0  0  0  0  0  0  0  0  0
   19.0338    6.8751    5.1774 C   0  0  0  0  0  0  0  0  0  0  0  0
   18.8636    7.8199    5.3740 H   0  0  0  0  0  0  0  0  0  0  0  0
   18.7036    6.3233    5.9170 H   0  0  0  0  0  0  0  0  0  0  0  0
   18.5693    6.6244    4.3529 H   0  0  0  0  0  0  0  0  0  0  0  0
   23.6167    8.8938    5.0261 C   0  0  0  0  0  0  0  0  0  0  0  0
   24.5298    8.6147    5.2471 H   0  0  0  0  0  0  0  0  0  0  0  0
   23.2797    9.4916    5.7252 H   0  0  0  0  0  0  0  0  0  0  0  0
   23.6166    9.3657    4.1670 H   0  0  0  0  0  0  0  0  0  0  0  0
   23.2101    3.9247    4.7407 C   0  0  0  0  0  0  0  0  0  0  0  0
   22.8449    3.3226    5.4212 H   0  0  0  0  0  0  0  0  0  0  0  0
   24.1664    4.0681    4.9107 H   0  0  0  0  0  0  0  0  0  0  0  0
   23.0947    3.5240    3.8542 H   0  0  0  0  0  0  0  0  0  0  0  0
   18.2729    1.3422    6.6468 C   0  0  0  0  0  0  0  0  0  0  0  0
   17.3029    1.5108    7.8323 C   0  0  0  0  0  0  0  0  0  0  0  0
   17.7601    1.2743    8.6674 H   0  0  0  0  0  0  0  0  0  0  0  0
   16.5304    0.9207    7.7083 H   0  0  0  0  0  0  0  0  0  0  0  0
   16.9994    2.4402    7.8795 H   0  0  0  0  0  0  0  0  0  0  0  0
   17.5594    1.7954    5.3651 C   0  0  0  0  0  0  0  0  0  0  0  0
   17.2273    2.7106    5.4832 H   0  0  0  0  0  0  0  0  0  0  0  0
   16.8058    1.1966    5.1822 H   0  0  0  0  0  0  0  0  0  0  0  0
   18.1866    1.7702    4.6156 H   0  0  0  0  0  0  0  0  0  0  0  0
   18.6541   -0.1609    6.4925 C   0  0  0  0  0  0  0  0  0  0  0  0
   19.1688   -0.2846    5.6662 H   0  0  0  0  0  0  0  0  0  0  0  0
   17.8367   -0.7017    6.4512 H   0  0  0  0  0  0  0  0  0  0  0  0
   19.1915   -0.4434    7.2598 H   0  0  0  0  0  0  0  0  0  0  0  0
   22.0547    2.6986    8.5709 C   0  0  0  0  0  0  0  0  0  0  0  0
   22.8106    1.2765    6.8177 F   0  0  0  0  0  0  0  0  0  0  0  0
   22.8176    1.6257    8.1333 C   0  0  0  0  0  0  0  0  0  0  0  0
   24.3507   -0.1456    8.4535 F   0  0  0  0  0  0  0  0  0  0  0  0
   23.6261    0.8703    8.9508 C   0  0  0  0  0  0  0  0  0  0  0  0
   24.4492    0.4204   11.1060 F   0  0  0  0  0  0  0  0  0  0  0  0
   23.6831    1.1583   10.2876 C   0  0  0  0  0  0  0  0  0  0  0  0
   22.9639    2.4654   12.1049 F   0  0  0  0  0  0  0  0  0  0  0  0
   22.9234    2.1720   10.7917 C   0  0  0  0  0  0  0  0  0  0  0  0
   21.3823    3.8930   10.4933 F   0  0  0  0  0  0  0  0  0  0  0  0
   22.1433    2.9285    9.9468 C   0  0  0  0  0  0  0  0  0  0  0  0
   21.2302    5.1596    7.9627 C   0  0  0  0  0  0  0  0  0  0  0  0
   23.5906    5.2132    7.8202 F   0  0  0  0  0  0  0  0  0  0  0  0
   22.4191    5.8657    8.0285 C   0  0  0  0  0  0  0  0  0  0  0  0
   23.6751    7.8582    8.2664 F   0  0  0  0  0  0  0  0  0  0  0  0
   22.4933    7.2188    8.2714 C   0  0  0  0  0  0  0  0  0  0  0  0
   21.3829    9.2452    8.6589 F   0  0  0  0  0  0  0  0  0  0  0  0
   21.3393    7.9085    8.4715 C   0  0  0  0  0  0  0  0  0  0  0  0
   18.9922    7.9414    8.6990 F   0  0  0  0  0  0  0  0  0  0  0  0
   20.1372    7.2594    8.4839 C   0  0  0  0  0  0  0  0  0  0  0  0
   18.8908    5.2964    8.2263 F   0  0  0  0  0  0  0  0  0  0  0  0
   20.0998    5.9194    8.2227 C   0  0  0  0  0  0  0  0  0  0  0  0
   14.4406    8.2337   -0.7912 C   0  0  0  0  0  0  0  0  0  0  0  0
   16.1239    7.5024   -2.2895 F   0  0  0  0  0  0  0  0  0  0  0  0
   15.0411    8.2742   -2.0366 C   0  0  0  0  0  0  0  0  0  0  0  0
   15.2018    9.0340   -4.2723 F   0  0  0  0  0  0  0  0  0  0  0  0
   14.5770    9.0460   -3.0757 C   0  0  0  0  0  0  0  0  0  0  0  0
   13.0692   10.6575   -3.8739 F   0  0  0  0  0  0  0  0  0  0  0  0
   13.5038    9.8605   -2.8744 C   0  0  0  0  0  0  0  0  0  0  0  0
   11.8124   10.6805   -1.4629 F   0  0  0  0  0  0  0  0  0  0  0  0
   12.8536    9.8704   -1.6638 C   0  0  0  0  0  0  0  0  0  0  0  0
   12.6946    9.1084    0.5318 F   0  0  0  0  0  0  0  0  0  0  0  0
   13.3353    9.0559   -0.6599 C   0  0  0  0  0  0  0  0  0  0  0  0
   13.9172    6.4886    1.1866 C   0  0  0  0  0  0  0  0  0  0  0  0
   13.3449    5.3413   -0.7826 F   0  0  0  0  0  0  0  0  0  0  0  0
   13.1767    5.5187    0.5527 C   0  0  0  0  0  0  0  0  0  0  0  0
   11.6543    3.7178    0.5333 F   0  0  0  0  0  0  0  0  0  0  0  0
   12.2942    4.6768    1.2070 C   0  0  0  0  0  0  0  0  0  0  0  0
   11.2423    4.0232    3.1910 F   0  0  0  0  0  0  0  0  0  0  0  0
   12.1013    4.8432    2.5551 C   0  0  0  0  0  0  0  0  0  0  0  0
   12.6157    5.9500    4.5604 F   0  0  0  0  0  0  0  0  0  0  0  0
   12.7762    5.8044    3.2306 C   0  0  0  0  0  0  0  0  0  0  0  0
   14.3155    7.5615    3.2625 F   0  0  0  0  0  0  0  0  0  0  0  0
   13.6734    6.6178    2.5533 C   0  0  0  0  0  0  0  0  0  0  0  0
  1  6  1  0  0  0  0
  2 16  1  0  0  0  0
  3 55  1  0  0  0  0
  4 16  1  0  0  0  0
  5  6  1  0  0  0  0
  6 19  2  0  0  0  0
  7  8  1  0  0  0  0
  8  9  1  0  0  0  0
 10  8  1  0  0  0  0
 11  8  1  0  0  0  0
 12  7  1  0  0  0  0
 13 12  1  0  0  0  0
 14 12  1  0  0  0  0
 15 12  1  0  0  0  0
 16 17  2  0  0  0  0
 17 18  1  0  0  0  0
 19 20  1  0  0  0  0
 21 19  1  0  0  0  0
 22 21  1  0  0  0  0
 23 22  1  0  0  0  0
 24 22  1  0  0  0  0
 25 22  1  0  0  0  0
 26 21  1  0  0  0  0
 27 26  1  0  0  0  0
 28 26  1  0  0  0  0
 29 26  1  0  0  0  0
 30 21  1  0  0  0  0
 31 30  1  0  0  0  0
 32 30  1  0  0  0  0
 33 30  1  0  0  0  0
 34  1  1  0  0  0  0
 35 34  4  0  0  0  0
 36 35  4  0  0  0  0
 37 36  1  0  0  0  0
 38 36  4  0  0  0  0
 39 38  4  0  0  0  0
 40 39  1  0  0  0  0
 41 34  4  0  0  0  0
 42 35  1  0  0  0  0
 43 42  1  0  0  0  0
 44 42  1  0  0  0  0
 45 42  1  0  0  0  0
 46 38  1  0  0  0  0
 47 46  1  0  0  0  0
 48 46  1  0  0  0  0
 49 46  1  0  0  0  0
 50 41  1  0  0  0  0
 51 50  1  0  0  0  0
 52 50  1  0  0  0  0
 53 50  1  0  0  0  0
 54  1  1  0  0  0  0
 55 54  4  0  0  0  0
 56  7  1  0  0  0  0
 57 56  4  0  0  0  0
 58 57  1  0  0  0  0
 59 57  4  0  0  0  0
 60 59  1  0  0  0  0
 61 54  4  0  0  0  0
 62 61  1  0  0  0  0
 63  2  1  0  0  0  0
 64  3  1  0  0  0  0
 65  7  1  0  0  0  0
 66 65  4  0  0  0  0
 67 66  1  0  0  0  0
 68 66  4  0  0  0  0
 69 68  1  0  0  0  0
 70 63  4  0  0  0  0
 71 70  1  0  0  0  0
 72  2  1  0  0  0  0
 73 72  4  0  0  0  0
 74 73  4  0  0  0  0
 75 74  1  0  0  0  0
 76 74  4  0  0  0  0
 77 76  4  0  0  0  0
 78 77  1  0  0  0  0
 79 72  4  0  0  0  0
 80 73  1  0  0  0  0
 81 80  1  0  0  0  0
 82 80  1  0  0  0  0
 83 80  1  0  0  0  0
 84 76  1  0  0  0  0
 85 84  1  0  0  0  0
 86 84  1  0  0  0  0
 87 84  1  0  0  0  0
 88 79  1  0  0  0  0
 89 88  1  0  0  0  0
 90 88  1  0  0  0  0
 91 88  1  0  0  0  0
 92 17  1  0  0  0  0
 93 92  1  0  0  0  0
 94 93  1  0  0  0  0
 95 93  1  0  0  0  0
 96 93  1  0  0  0  0
 97 92  1  0  0  0  0
 98 97  1  0  0  0  0
 99 97  1  0  0  0  0
100 97  1  0  0  0  0
101 92  1  0  0  0  0
102101  1  0  0  0  0
103101  1  0  0  0  0
104101  1  0  0  0  0
105  4  1  0  0  0  0
106107  1  0  0  0  0
107105  4  0  0  0  0
108109  1  0  0  0  0
109107  4  0  0  0  0
110111  1  0  0  0  0
111109  4  0  0  0  0
112113  1  0  0  0  0
113111  4  0  0  0  0
114115  1  0  0  0  0
115105  4  0  0  0  0
116  4  1  0  0  0  0
117118  1  0  0  0  0
118116  4  0  0  0  0
119120  1  0  0  0  0
120118  4  0  0  0  0
121122  1  0  0  0  0
122120  4  0  0  0  0
123124  1  0  0  0  0
124122  4  0  0  0  0
125126  1  0  0  0  0
126116  4  0  0  0  0
127  5  1  0  0  0  0
128129  1  0  0  0  0
129127  4  0  0  0  0
130131  1  0  0  0  0
131129  4  0  0  0  0
132133  1  0  0  0  0
133131  4  0  0  0  0
134135  1  0  0  0  0
135133  4  0  0  0  0
136137  1  0  0  0  0
137127  4  0  0  0  0
138  5  1  0  0  0  0
139140  1  0  0  0  0
140138  4  0  0  0  0
141142  1  0  0  0  0
142140  4  0  0  0  0
143144  1  0  0  0  0
144142  4  0  0  0  0
145146  1  0  0  0  0
146144  4  0  0  0  0
147148  1  0  0  0  0
148138  4  0  0  0  0
 39 41  4  0  0  0  0
 55 56  4  0  0  0  0
 59 61  4  0  0  0  0
 63 64  4  0  0  0  0
 64 65  4  0  0  0  0
 68 70  4  0  0  0  0
 77 79  4  0  0  0  0
113115  4  0  0  0  0
124126  4  0  0  0  0
135137  4  0  0  0  0
146148  4  0  0  0  0
M  END
$$$$
UBIYUD

From CSD data. Using bond type 'Any'. Matching problem. No disordered atoms. Largest molecule.
148156  0  0  0  0  0  0  0  0999 V2000
    6.0963   15.0143    4.6457 P   0  0  0  0  0  0  0  0  0  0  0  0
    8.6114   11.6792    3.8597 P   0  0  0  0  0  0  0  0  0  0  0  0
    6.4765   13.0953    2.5487 O   0  0  0  0  0  0  0  0  0  0  0  0
    5.2492   16.4368    5.5164 C   0  0  0  0  0  0  0  0  0  0  0  0
    4.2920   16.1484    6.4450 C   0  0  0  0  0  0  0  0  0  0  0  0
    3.9231   16.9262    6.8462 H   0  0  0  0  0  0  0  0  0  0  0  0
    5.1599   12.6949   -0.0621 C   0  0  0  0  0  0  0  0  0  0  0  0
    3.9550   11.7816   -0.3800 C   0  0  0  0  0  0  0  0  0  0  0  0
    4.2094   11.1343   -1.0688 H   0  0  0  0  0  0  0  0  0  0  0  0
    3.2082   12.3268   -0.7031 H   0  0  0  0  0  0  0  0  0  0  0  0
    3.6846   11.3054    0.4332 H   0  0  0  0  0  0  0  0  0  0  0  0
    5.5900   13.4407   -1.3369 C   0  0  0  0  0  0  0  0  0  0  0  0
    6.3560   14.0170   -1.1345 H   0  0  0  0  0  0  0  0  0  0  0  0
    4.8460   13.9886   -1.6618 H   0  0  0  0  0  0  0  0  0  0  0  0
    5.8425   12.7901   -2.0258 H   0  0  0  0  0  0  0  0  0  0  0  0
    9.9793   10.4228    3.9504 C   0  0  0  0  0  0  0  0  0  0  0  0
   11.2127   10.7528    3.4728 C   0  0  0  0  0  0  0  0  0  0  0  0
   11.8251   10.0271    3.4888 H   0  0  0  0  0  0  0  0  0  0  0  0
    3.6842   14.8736    6.9811 C   0  0  0  0  0  0  0  0  0  0  0  0
    2.5936   15.3014    7.9967 C   0  0  0  0  0  0  0  0  0  0  0  0
    2.1683   14.5036    8.3749 H   0  0  0  0  0  0  0  0  0  0  0  0
    3.0054   15.8241    8.7158 H   0  0  0  0  0  0  0  0  0  0  0  0
    1.9188   15.8464    7.5404 H   0  0  0  0  0  0  0  0  0  0  0  0
    3.0881   14.0116    5.8892 C   0  0  0  0  0  0  0  0  0  0  0  0
    2.7073   13.1992    6.2834 H   0  0  0  0  0  0  0  0  0  0  0  0
    2.3827   14.5117    5.4258 H   0  0  0  0  0  0  0  0  0  0  0  0
    3.7878   13.7664    5.2483 H   0  0  0  0  0  0  0  0  0  0  0  0
    4.7594   14.0620    7.7552 C   0  0  0  0  0  0  0  0  0  0  0  0
    4.3603   13.2375    8.1015 H   0  0  0  0  0  0  0  0  0  0  0  0
    5.4976   13.8403    7.1516 H   0  0  0  0  0  0  0  0  0  0  0  0
    5.0988   14.5987    8.5027 H   0  0  0  0  0  0  0  0  0  0  0  0
    7.7906   15.6732    4.3073 C   0  0  0  0  0  0  0  0  0  0  0  0
    8.6047   15.6674    5.4578 C   0  0  0  0  0  0  0  0  0  0  0  0
    9.9477   16.0906    5.3619 C   0  0  0  0  0  0  0  0  0  0  0  0
   10.4834   16.1001    6.1467 H   0  0  0  0  0  0  0  0  0  0  0  0
   10.5017   16.4859    4.1795 C   0  0  0  0  0  0  0  0  0  0  0  0
    9.7100   16.4674    3.0609 C   0  0  0  0  0  0  0  0  0  0  0  0
   10.0967   16.7365    2.2353 H   0  0  0  0  0  0  0  0  0  0  0  0
    8.3547   16.0731    3.0627 C   0  0  0  0  0  0  0  0  0  0  0  0
    8.0857   15.2887    6.8143 C   0  0  0  0  0  0  0  0  0  0  0  0
    8.8227   15.2963    7.4605 H   0  0  0  0  0  0  0  0  0  0  0  0
    7.6942   14.3912    6.7752 H   0  0  0  0  0  0  0  0  0  0  0  0
    7.4007   15.9321    7.0930 H   0  0  0  0  0  0  0  0  0  0  0  0
   11.9530   16.9862    4.1404 C   0  0  0  0  0  0  0  0  0  0  0  0
   12.3372   16.8061    3.2580 H   0  0  0  0  0  0  0  0  0  0  0  0
   12.4766   16.5236    4.8275 H   0  0  0  0  0  0  0  0  0  0  0  0
   11.9695   17.9511    4.3126 H   0  0  0  0  0  0  0  0  0  0  0  0
    7.6303   16.1309    1.7630 C   0  0  0  0  0  0  0  0  0  0  0  0
    7.5610   15.2283    1.3866 H   0  0  0  0  0  0  0  0  0  0  0  0
    8.1192   16.7080    1.1416 H   0  0  0  0  0  0  0  0  0  0  0  0
    6.7304   16.4933    1.9069 H   0  0  0  0  0  0  0  0  0  0  0  0
    5.1403   14.9334    3.0858 C   0  0  0  0  0  0  0  0  0  0  0  0
    5.4254   13.9051    2.1749 C   0  0  0  0  0  0  0  0  0  0  0  0
    4.7369   13.7447    0.9818 C   0  0  0  0  0  0  0  0  0  0  0  0
    3.6582   14.5831    0.7350 C   0  0  0  0  0  0  0  0  0  0  0  0
    3.1630   14.4886   -0.0692 H   0  0  0  0  0  0  0  0  0  0  0  0
    3.2971   15.5574    1.6512 C   0  0  0  0  0  0  0  0  0  0  0  0
    2.5388   16.1052    1.4843 H   0  0  0  0  0  0  0  0  0  0  0  0
    4.0361   15.7414    2.8106 C   0  0  0  0  0  0  0  0  0  0  0  0
    3.7874   16.4248    3.4231 H   0  0  0  0  0  0  0  0  0  0  0  0
    7.8707   11.2257    2.2513 C   0  0  0  0  0  0  0  0  0  0  0  0
    6.8755   12.0595    1.7045 C   0  0  0  0  0  0  0  0  0  0  0  0
    6.2994   11.8547    0.4598 C   0  0  0  0  0  0  0  0  0  0  0  0
    6.8283   10.8211   -0.3196 C   0  0  0  0  0  0  0  0  0  0  0  0
    6.4798   10.6695   -1.1896 H   0  0  0  0  0  0  0  0  0  0  0  0
    7.8401   10.0266    0.1456 C   0  0  0  0  0  0  0  0  0  0  0  0
    8.1954    9.3423   -0.4084 H   0  0  0  0  0  0  0  0  0  0  0  0
    8.3510   10.2143    1.4239 C   0  0  0  0  0  0  0  0  0  0  0  0
    9.0412    9.6434    1.7382 H   0  0  0  0  0  0  0  0  0  0  0  0
    7.4998   11.1997    5.2572 C   0  0  0  0  0  0  0  0  0  0  0  0
    6.1960   10.6434    5.1932 C   0  0  0  0  0  0  0  0  0  0  0  0
    5.5032   10.4318    6.3917 C   0  0  0  0  0  0  0  0  0  0  0  0
    4.6255   10.0674    6.3491 H   0  0  0  0  0  0  0  0  0  0  0  0
    6.0360   10.7272    7.6327 C   0  0  0  0  0  0  0  0  0  0  0  0
    7.2935   11.2866    7.6754 C   0  0  0  0  0  0  0  0  0  0  0  0
    7.6657   11.5148    8.5187 H   0  0  0  0  0  0  0  0  0  0  0  0
    8.0410   11.5288    6.5213 C   0  0  0  0  0  0  0  0  0  0  0  0
    5.4711   10.2669    3.9344 C   0  0  0  0  0  0  0  0  0  0  0  0
    4.7225    9.6733    4.1528 H   0  0  0  0  0  0  0  0  0  0  0  0
    6.0872    9.8037    3.3290 H   0  0  0  0  0  0  0  0  0  0  0  0
    5.1309   11.0760    3.4994 H   0  0  0  0  0  0  0  0  0  0  0  0
    5.2575   10.4477    8.9004 C   0  0  0  0  0  0  0  0  0  0  0  0
    5.7936    9.8839    9.4970 H   0  0  0  0  0  0  0  0  0  0  0  0
    4.4229    9.9842    8.6767 H   0  0  0  0  0  0  0  0  0  0  0  0
    5.0509   11.2934    9.3496 H   0  0  0  0  0  0  0  0  0  0  0  0
    9.4153   12.1362    6.6829 C   0  0  0  0  0  0  0  0  0  0  0  0
    9.5045   12.5078    7.5848 H   0  0  0  0  0  0  0  0  0  0  0  0
    9.5364   12.8499    6.0224 H   0  0  0  0  0  0  0  0  0  0  0  0
   10.0955   11.4444    6.5444 H   0  0  0  0  0  0  0  0  0  0  0  0
   11.8203   12.0372    2.9206 C   0  0  0  0  0  0  0  0  0  0  0  0
   13.1238   11.7390    2.2371 C   0  0  0  0  0  0  0  0  0  0  0  0
   12.9852   11.0480    1.5553 H   0  0  0  0  0  0  0  0  0  0  0  0
   13.4641   12.5526    1.8110 H   0  0  0  0  0  0  0  0  0  0  0  0
   13.7738   11.4202    2.8976 H   0  0  0  0  0  0  0  0  0  0  0  0
   11.9035   13.1007    4.0072 C   0  0  0  0  0  0  0  0  0  0  0  0
   11.0161   13.2365    4.3996 H   0  0  0  0  0  0  0  0  0  0  0  0
   12.5290   12.8097    4.7032 H   0  0  0  0  0  0  0  0  0  0  0  0
   12.2192   13.9421    3.6166 H   0  0  0  0  0  0  0  0  0  0  0  0
   10.8631   12.6613    1.7719 C   0  0  0  0  0  0  0  0  0  0  0  0
    9.9887   12.8806    2.1590 H   0  0  0  0  0  0  0  0  0  0  0  0
   11.2727   13.4763    1.4115 H   0  0  0  0  0  0  0  0  0  0  0  0
   10.7473   12.0069    1.0511 H   0  0  0  0  0  0  0  0  0  0  0  0
    9.9002    9.0270    4.5896 B   0  0  0  0  0  0  0  0  0  0  0  0
    8.6091    8.3067    5.1684 C   0  0  0  0  0  0  0  0  0  0  0  0
    7.6959    7.7527    3.0691 F   0  0  0  0  0  0  0  0  0  0  0  0
    7.6118    7.6945    4.4049 C   0  0  0  0  0  0  0  0  0  0  0  0
    5.6163    6.4716    4.1812 F   0  0  0  0  0  0  0  0  0  0  0  0
    6.5515    7.0208    4.9607 C   0  0  0  0  0  0  0  0  0  0  0  0
    5.4244    6.2670    6.8840 F   0  0  0  0  0  0  0  0  0  0  0  0
    6.4536    6.9164    6.3295 C   0  0  0  0  0  0  0  0  0  0  0  0
    7.3155    7.4055    8.4695 F   0  0  0  0  0  0  0  0  0  0  0  0
    7.4115    7.4938    7.1374 C   0  0  0  0  0  0  0  0  0  0  0  0
    9.4136    8.6871    7.3556 F   0  0  0  0  0  0  0  0  0  0  0  0
    8.4647    8.1560    6.5408 C   0  0  0  0  0  0  0  0  0  0  0  0
   11.2118    8.1268    4.7867 C   0  0  0  0  0  0  0  0  0  0  0  0
   10.3518    6.5193    3.3089 F   0  0  0  0  0  0  0  0  0  0  0  0
   11.3447    6.9157    4.1333 C   0  0  0  0  0  0  0  0  0  0  0  0
   12.5170    4.9522    3.5643 F   0  0  0  0  0  0  0  0  0  0  0  0
   12.4321    6.0963    4.2558 C   0  0  0  0  0  0  0  0  0  0  0  0
   14.5287    5.6757    5.2268 F   0  0  0  0  0  0  0  0  0  0  0  0
   13.4636    6.4714    5.0867 C   0  0  0  0  0  0  0  0  0  0  0  0
   14.3878    8.0392    6.5802 F   0  0  0  0  0  0  0  0  0  0  0  0
   13.3861    7.6600    5.7721 C   0  0  0  0  0  0  0  0  0  0  0  0
   12.2515    9.6316    6.2932 F   0  0  0  0  0  0  0  0  0  0  0  0
   12.2810    8.4597    5.6140 C   0  0  0  0  0  0  0  0  0  0  0  0
    4.5787   19.0265    6.0029 C   0  0  0  0  0  0  0  0  0  0  0  0
    2.9428   18.5804    4.3740 F   0  0  0  0  0  0  0  0  0  0  0  0
    3.3454   19.2944    5.4489 C   0  0  0  0  0  0  0  0  0  0  0  0
    1.3159   20.5035    5.3104 F   0  0  0  0  0  0  0  0  0  0  0  0
    2.4920   20.2696    5.9088 C   0  0  0  0  0  0  0  0  0  0  0  0
    2.0466   21.9711    7.4765 F   0  0  0  0  0  0  0  0  0  0  0  0
    2.8668   21.0170    7.0060 C   0  0  0  0  0  0  0  0  0  0  0  0
    4.4376   21.5151    8.6590 F   0  0  0  0  0  0  0  0  0  0  0  0
    4.0670   20.7916    7.5901 C   0  0  0  0  0  0  0  0  0  0  0  0
    6.0973   19.6450    7.6885 F   0  0  0  0  0  0  0  0  0  0  0  0
    4.9160   19.8255    7.0770 C   0  0  0  0  0  0  0  0  0  0  0  0
    5.5660   17.9267    5.3797 B   0  0  0  0  0  0  0  0  0  0  0  0
    6.7670   18.5938    4.5789 C   0  0  0  0  0  0  0  0  0  0  0  0
    5.3738   18.6884    2.6898 F   0  0  0  0  0  0  0  0  0  0  0  0
    6.5775   18.9623    3.2722 C   0  0  0  0  0  0  0  0  0  0  0  0
    7.2763   19.9591    1.2482 F   0  0  0  0  0  0  0  0  0  0  0  0
    7.5030   19.6337    2.5158 C   0  0  0  0  0  0  0  0  0  0  0  0
    9.6835   20.5423    2.3649 F   0  0  0  0  0  0  0  0  0  0  0  0
    8.7111   19.9380    3.0804 C   0  0  0  0  0  0  0  0  0  0  0  0
   10.1525   19.8916    4.9820 F   0  0  0  0  0  0  0  0  0  0  0  0
    8.9767   19.5989    4.3819 C   0  0  0  0  0  0  0  0  0  0  0  0
    8.2617   18.6304    6.3970 F   0  0  0  0  0  0  0  0  0  0  0  0
    7.9865   18.9440    5.1080 C   0  0  0  0  0  0  0  0  0  0  0  0
  1  4  1  0  0  0  0
  2 16  1  0  0  0  0
  3 53  1  0  0  0  0
  4  5  2  0  0  0  0
  5  6  1  0  0  0  0
  7  8  1  0  0  0  0
  8  9  1  0  0  0  0
 10  8  1  0  0  0  0
 11  8  1  0  0  0  0
 12  7  1  0  0  0  0
 13 12  1  0  0  0  0
 14 12  1  0  0  0  0
 15 12  1  0  0  0  0
 16 17  2  0  0  0  0
 17 18  1  0  0  0  0
 19  5  1  0  0  0  0
 20 19  1  0  0  0  0
 21 20  1  0  0  0  0
 22 20  1  0  0  0  0
 23 20  1  0  0  0  0
 24 19  1  0  0  0  0
 25 24  1  0  0  0  0
 26 24  1  0  0  0  0
 27 24  1  0  0  0  0
 28 19  1  0  0  0  0
 29 28  1  0  0  0  0
 30 28  1  0  0  0  0
 31 28  1  0  0  0  0
 32  1  1  0  0  0  0
 33 32  4  0  0  0  0
 34 33  4  0  0  0  0
 35 34  1  0  0  0  0
 36 34  4  0  0  0  0
 37 36  4  0  0  0  0
 38 37  1  0  0  0  0
 39 32  4  0  0  0  0
 40 33  1  0  0  0  0
 41 40  1  0  0  0  0
 42 40  1  0  0  0  0
 43 40  1  0  0  0  0
 44 36  1  0  0  0  0
 45 44  1  0  0  0  0
 46 44  1  0  0  0  0
 47 44  1  0  0  0  0
 48 39  1  0  0  0  0
 49 48  1  0  0  0  0
 50 48  1  0  0  0  0
 51 48  1  0  0  0  0
 52  1  1  0  0  0  0
 53 52  4  0  0  0  0
 54  7  1  0  0  0  0
 55 54  4  0  0  0  0
 56 55  1  0  0  0  0
 57 55  4  0  0  0  0
 58 57  1  0  0  0  0
 59 52  4  0  0  0  0
 60 59  1  0  0  0  0
 61  2  1  0  0  0  0
 62  3  1  0  0  0  0
 63  7  1  0  0  0  0
 64 63  4  0  0  0  0
 65 64  1  0  0  0  0
 66 64  4  0  0  0  0
 67 66  1  0  0  0  0
 68 61  4  0  0  0  0
 69 68  1  0  0  0  0
 70  2  1  0  0  0  0
 71 70  4  0  0  0  0
 72 71  4  0  0  0  0
 73 72  1  0  0  0  0
 74 72  4  0  0  0  0
 75 74  4  0  0  0  0
 76 75  1  0  0  0  0
 77 70  4  0  0  0  0
 78 71  1  0  0  0  0
 79 78  1  0  0  0  0
 80 78  1  0  0  0  0
 81 78  1  0  0  0  0
 82 74  1  0  0  0  0
 83 82  1  0  0  0  0
 84 82  1  0  0  0  0
 85 82  1  0  0  0  0
 86 77  1  0  0  0  0
 87 86  1  0  0  0  0
 88 86  1  0  0  0  0
 89 86  1  0  0  0  0
 90 17  1  0  0  0  0
 91 90  1  0  0  0  0
 92 91  1  0  0  0  0
 93 91  1  0  0  0  0
 94 91  1  0  0  0  0
 95 90  1  0  0  0  0
 96 95  1  0  0  0  0
 97 95  1  0  0  0  0
 98 95  1  0  0  0  0
 99 90  1  0  0  0  0
100 99  1  0  0  0  0
101 99  1  0  0  0  0
102 99  1  0  0  0  0
103 16  1  0  0  0  0
104103  1  0  0  0  0
105106  1  0  0  0  0
106104  4  0  0  0  0
107108  1  0  0  0  0
108106  4  0  0  0  0
109110  1  0  0  0  0
110108  4  0  0  0  0
111112  1  0  0  0  0
112110  4  0  0  0  0
113114  1  0  0  0  0
114104  4  0  0  0  0
115103  1  0  0  0  0
116117  1  0  0  0  0
117115  4  0  0  0  0
118119  1  0  0  0  0
119117  4  0  0  0  0
120121  1  0  0  0  0
121119  4  0  0  0  0
122123  1  0  0  0  0
123121  4  0  0  0  0
124125  1  0  0  0  0
125115  4  0  0  0  0
126128  4  0  0  0  0
127128  1  0  0  0  0
128130  4  0  0  0  0
129130  1  0  0  0  0
130132  4  0  0  0  0
131132  1  0  0  0  0
132134  4  0  0  0  0
133134  1  0  0  0  0
134136  4  0  0  0  0
135136  1  0  0  0  0
136126  4  0  0  0  0
137  4  1  0  0  0  0
138137  1  0  0  0  0
139140  1  0  0  0  0
140138  4  0  0  0  0
141142  1  0  0  0  0
142140  4  0  0  0  0
143144  1  0  0  0  0
144142  4  0  0  0  0
145146  1  0  0  0  0
146144  4  0  0  0  0
147148  1  0  0  0  0
148138  4  0  0  0  0
 37 39  4  0  0  0  0
 53 54  4  0  0  0  0
 57 59  4  0  0  0  0
 61 62  4  0  0  0  0
 62 63  4  0  0  0  0
 66 68  4  0  0  0  0
 75 77  4  0  0  0  0
112114  4  0  0  0  0
123125  4  0  0  0  0
126137  1  0  0  0  0
146148  4  0  0  0  0
M  END
$$$$
UBIZEO

From CSD data. Using bond type 'Any'. Matching problem. No disordered atoms. Largest molecule.
150158  0  0  0  0  0  0  0  0999 V2000
   10.9908    7.3468    3.2413 P   0  3  0  0  0  0  0  0  0  0  0  0
   12.1233    6.9184    3.4602 H   0  0  0  0  0  0  0  0  0  0  0  0
   12.3722    3.1388    4.0962 P   0  0  0  0  0  0  0  0  0  0  0  0
    9.3047    9.6386    3.6771 B   0  5  0  0  0  0  0  0  0  0  0  0
    8.6194    8.9914    2.8960 H   0  0  0  0  0  0  0  0  0  0  0  0
   14.3746    1.0944    5.1072 B   0  0  0  0  0  0  0  0  0  0  0  0
   11.0665    4.6279    1.9725 O   0  0  0  0  0  0  0  0  0  0  0  0
   10.8819    9.1318    3.4483 C   0  0  0  0  0  0  0  0  0  0  0  0
   11.9254    9.9614    3.3939 C   0  0  0  0  0  0  0  0  0  0  0  0
   11.6791   10.8428    3.6469 H   0  0  0  0  0  0  0  0  0  0  0  0
   10.0475    3.8005   -0.6366 C   0  0  0  0  0  0  0  0  0  0  0  0
    8.5686    3.4144   -0.4170 C   0  0  0  0  0  0  0  0  0  0  0  0
    8.4324    2.4805   -0.6792 H   0  0  0  0  0  0  0  0  0  0  0  0
    7.9962    3.9935   -0.9603 H   0  0  0  0  0  0  0  0  0  0  0  0
    8.3407    3.5259    0.5302 H   0  0  0  0  0  0  0  0  0  0  0  0
   10.4251    3.6125   -2.1131 C   0  0  0  0  0  0  0  0  0  0  0  0
   11.3654    3.8503   -2.2433 H   0  0  0  0  0  0  0  0  0  0  0  0
    9.8609    4.1887   -2.6696 H   0  0  0  0  0  0  0  0  0  0  0  0
   10.2869    2.6766   -2.3697 H   0  0  0  0  0  0  0  0  0  0  0  0
   12.9248    1.5693    4.9210 C   0  0  0  0  0  0  0  0  0  0  0  0
   11.9810    0.7686    5.4789 C   0  0  0  0  0  0  0  0  0  0  0  0
   12.3466   -0.0280    5.8449 H   0  0  0  0  0  0  0  0  0  0  0  0
   13.4001    9.8801    3.0394 C   0  0  0  0  0  0  0  0  0  0  0  0
   13.6383   11.0305    2.0338 C   0  0  0  0  0  0  0  0  0  0  0  0
   13.1227   10.8629    1.2169 H   0  0  0  0  0  0  0  0  0  0  0  0
   14.5921   11.0808    1.8131 H   0  0  0  0  0  0  0  0  0  0  0  0
   13.3503   11.8787    2.4338 H   0  0  0  0  0  0  0  0  0  0  0  0
   13.9219    8.5940    2.4074 C   0  0  0  0  0  0  0  0  0  0  0  0
   13.9783    7.8934    3.0904 H   0  0  0  0  0  0  0  0  0  0  0  0
   14.8106    8.7524    2.0282 H   0  0  0  0  0  0  0  0  0  0  0  0
   13.3095    8.3080    1.6980 H   0  0  0  0  0  0  0  0  0  0  0  0
   14.2277   10.1852    4.3073 C   0  0  0  0  0  0  0  0  0  0  0  0
   13.9543   11.0517    4.6752 H   0  0  0  0  0  0  0  0  0  0  0  0
   15.1798   10.2136    4.0771 H   0  0  0  0  0  0  0  0  0  0  0  0
   14.0743    9.4841    4.9752 H   0  0  0  0  0  0  0  0  0  0  0  0
    9.9821    6.4904    4.4641 C   0  0  0  0  0  0  0  0  0  0  0  0
    8.7612    5.8666    4.2080 C   0  0  0  0  0  0  0  0  0  0  0  0
    8.1024    5.2254    5.2480 C   0  0  0  0  0  0  0  0  0  0  0  0
    7.2780    4.7900    5.0695 H   0  0  0  0  0  0  0  0  0  0  0  0
    8.6080    5.1994    6.5415 C   0  0  0  0  0  0  0  0  0  0  0  0
    9.8025    5.8621    6.7865 C   0  0  0  0  0  0  0  0  0  0  0  0
   10.1479    5.8743    7.6712 H   0  0  0  0  0  0  0  0  0  0  0  0
   10.5046    6.5030    5.7894 C   0  0  0  0  0  0  0  0  0  0  0  0
    8.0432    5.8775    2.8711 C   0  0  0  0  0  0  0  0  0  0  0  0
    8.3489    5.1200    2.3300 H   0  0  0  0  0  0  0  0  0  0  0  0
    8.2405    6.7155    2.4017 H   0  0  0  0  0  0  0  0  0  0  0  0
    7.0772    5.8056    3.0187 H   0  0  0  0  0  0  0  0  0  0  0  0
    7.8432    4.5167    7.6391 C   0  0  0  0  0  0  0  0  0  0  0  0
    7.1908    5.1408    8.0202 H   0  0  0  0  0  0  0  0  0  0  0  0
    8.4632    4.2244    8.3372 H   0  0  0  0  0  0  0  0  0  0  0  0
    7.3730    3.7378    7.2731 H   0  0  0  0  0  0  0  0  0  0  0  0
   11.7741    7.2400    6.1526 C   0  0  0  0  0  0  0  0  0  0  0  0
   11.9136    7.1948    7.1222 H   0  0  0  0  0  0  0  0  0  0  0  0
   11.6988    8.1782    5.8770 H   0  0  0  0  0  0  0  0  0  0  0  0
   12.5347    6.8269    5.6940 H   0  0  0  0  0  0  0  0  0  0  0  0
   10.6410    6.9007    1.5324 C   0  0  0  0  0  0  0  0  0  0  0  0
   10.6606    5.5781    1.0654 C   0  0  0  0  0  0  0  0  0  0  0  0
   10.2321    5.2499   -0.2209 C   0  0  0  0  0  0  0  0  0  0  0  0
    9.8779    6.3035   -1.0554 C   0  0  0  0  0  0  0  0  0  0  0  0
    9.5839    6.1113   -1.9376 H   0  0  0  0  0  0  0  0  0  0  0  0
    9.9383    7.6204   -0.6452 C   0  0  0  0  0  0  0  0  0  0  0  0
    9.7347    8.3188   -1.2565 H   0  0  0  0  0  0  0  0  0  0  0  0
   10.2936    7.9220    0.6507 C   0  0  0  0  0  0  0  0  0  0  0  0
   10.3019    8.8264    0.9433 H   0  0  0  0  0  0  0  0  0  0  0  0
   12.0466    2.5300    2.3931 C   0  0  0  0  0  0  0  0  0  0  0  0
   11.3325    3.3453    1.5046 C   0  0  0  0  0  0  0  0  0  0  0  0
   10.8964    2.9119    0.2532 C   0  0  0  0  0  0  0  0  0  0  0  0
   11.2098    1.5985   -0.1057 C   0  0  0  0  0  0  0  0  0  0  0  0
   10.9496    1.2766   -0.9603 H   0  0  0  0  0  0  0  0  0  0  0  0
   11.8863    0.7627    0.7509 C   0  0  0  0  0  0  0  0  0  0  0  0
   12.0710   -0.1331    0.4943 H   0  0  0  0  0  0  0  0  0  0  0  0
   12.2963    1.2270    1.9829 C   0  0  0  0  0  0  0  0  0  0  0  0
   12.7627    0.6391    2.5678 H   0  0  0  0  0  0  0  0  0  0  0  0
   13.8459    4.2448    4.1365 C   0  0  0  0  0  0  0  0  0  0  0  0
   14.6086    4.7337    3.0538 C   0  0  0  0  0  0  0  0  0  0  0  0
   15.6325    5.6545    3.2885 C   0  0  0  0  0  0  0  0  0  0  0  0
   16.1398    5.9711    2.5508 H   0  0  0  0  0  0  0  0  0  0  0  0
   15.9343    6.1244    4.5544 C   0  0  0  0  0  0  0  0  0  0  0  0
   15.1825    5.6514    5.6091 C   0  0  0  0  0  0  0  0  0  0  0  0
   15.3786    5.9607    6.4845 H   0  0  0  0  0  0  0  0  0  0  0  0
   14.1342    4.7276    5.4402 C   0  0  0  0  0  0  0  0  0  0  0  0
   14.4223    4.3152    1.6093 C   0  0  0  0  0  0  0  0  0  0  0  0
   13.6257    4.7527    1.2433 H   0  0  0  0  0  0  0  0  0  0  0  0
   14.3133    3.3430    1.5641 H   0  0  0  0  0  0  0  0  0  0  0  0
   15.2096    4.5810    1.0886 H   0  0  0  0  0  0  0  0  0  0  0  0
   17.0559    7.1098    4.7846 C   0  0  0  0  0  0  0  0  0  0  0  0
   17.9167    6.6476    4.7148 H   0  0  0  0  0  0  0  0  0  0  0  0
   16.9669    7.5044    5.6770 H   0  0  0  0  0  0  0  0  0  0  0  0
   17.0114    7.8196    4.1092 H   0  0  0  0  0  0  0  0  0  0  0  0
   13.3886    4.2842    6.6554 C   0  0  0  0  0  0  0  0  0  0  0  0
   12.4278    4.2658    6.4618 H   0  0  0  0  0  0  0  0  0  0  0  0
   13.5614    4.9078    7.3920 H   0  0  0  0  0  0  0  0  0  0  0  0
   13.6865    3.3865    6.9109 H   0  0  0  0  0  0  0  0  0  0  0  0
   10.4836    0.8527    5.6544 C   0  0  0  0  0  0  0  0  0  0  0  0
    9.7127    1.3058    4.3714 C   0  0  0  0  0  0  0  0  0  0  0  0
   10.0556    2.1746    4.0733 H   0  0  0  0  0  0  0  0  0  0  0  0
    8.7575    1.3848    4.5733 H   0  0  0  0  0  0  0  0  0  0  0  0
    9.8435    0.6437    3.6601 H   0  0  0  0  0  0  0  0  0  0  0  0
   10.2410    1.8483    6.7637 C   0  0  0  0  0  0  0  0  0  0  0  0
   10.6113    2.7195    6.5071 H   0  0  0  0  0  0  0  0  0  0  0  0
   10.6753    1.5362    7.5825 H   0  0  0  0  0  0  0  0  0  0  0  0
    9.2765    1.9367    6.9184 H   0  0  0  0  0  0  0  0  0  0  0  0
    9.9785   -0.5389    6.0430 C   0  0  0  0  0  0  0  0  0  0  0  0
   10.2520   -1.1875    5.3619 H   0  0  0  0  0  0  0  0  0  0  0  0
    9.0005   -0.5252    6.1090 H   0  0  0  0  0  0  0  0  0  0  0  0
   10.3607   -0.7939    6.9090 H   0  0  0  0  0  0  0  0  0  0  0  0
   15.6414    1.7676    4.4607 C   0  0  0  0  0  0  0  0  0  0  0  0
   15.2793    0.9578    2.2749 F   0  0  0  0  0  0  0  0  0  0  0  0
   16.0244    1.6934    3.1309 C   0  0  0  0  0  0  0  0  0  0  0  0
   17.4259    2.2688    1.3229 F   0  0  0  0  0  0  0  0  0  0  0  0
   17.1322    2.3393    2.6338 C   0  0  0  0  0  0  0  0  0  0  0  0
   18.9842    3.7480    2.9957 F   0  0  0  0  0  0  0  0  0  0  0  0
   17.9194    3.0877    3.4715 C   0  0  0  0  0  0  0  0  0  0  0  0
   18.3667    3.9057    5.6264 F   0  0  0  0  0  0  0  0  0  0  0  0
   17.6004    3.1649    4.8035 C   0  0  0  0  0  0  0  0  0  0  0  0
   16.2076    2.6246    6.5824 F   0  0  0  0  0  0  0  0  0  0  0  0
   16.5093    2.5174    5.2646 C   0  0  0  0  0  0  0  0  0  0  0  0
   14.7515   -0.1155    6.0689 C   0  0  0  0  0  0  0  0  0  0  0  0
   15.5589   -1.3177    4.2335 F   0  0  0  0  0  0  0  0  0  0  0  0
   15.3649   -1.2419    5.5732 C   0  0  0  0  0  0  0  0  0  0  0  0
   16.3625   -3.3743    5.7808 F   0  0  0  0  0  0  0  0  0  0  0  0
   15.7903   -2.2940    6.3411 C   0  0  0  0  0  0  0  0  0  0  0  0
   16.0443   -3.2272    8.4862 F   0  0  0  0  0  0  0  0  0  0  0  0
   15.6064   -2.2289    7.7089 C   0  0  0  0  0  0  0  0  0  0  0  0
   14.8778   -1.0577    9.5886 F   0  0  0  0  0  0  0  0  0  0  0  0
   15.0262   -1.1299    8.2636 C   0  0  0  0  0  0  0  0  0  0  0  0
   14.0085    0.9518    8.0391 F   0  0  0  0  0  0  0  0  0  0  0  0
   14.5912   -0.1042    7.4505 C   0  0  0  0  0  0  0  0  0  0  0  0
    9.1088   11.2432    3.2724 C   0  0  0  0  0  0  0  0  0  0  0  0
   10.2308   11.0057    1.2050 F   0  0  0  0  0  0  0  0  0  0  0  0
    9.5717   11.7871    2.0851 C   0  0  0  0  0  0  0  0  0  0  0  0
    9.9419   13.5370    0.5305 F   0  0  0  0  0  0  0  0  0  0  0  0
    9.4304   13.0941    1.6963 C   0  0  0  0  0  0  0  0  0  0  0  0
    8.5931   15.2569    2.1367 F   0  0  0  0  0  0  0  0  0  0  0  0
    8.7438   13.9698    2.4866 C   0  0  0  0  0  0  0  0  0  0  0  0
    7.5532   14.3345    4.4835 F   0  0  0  0  0  0  0  0  0  0  0  0
    8.2149   13.4912    3.6639 C   0  0  0  0  0  0  0  0  0  0  0  0
    7.8217   11.8425    5.1966 F   0  0  0  0  0  0  0  0  0  0  0  0
    8.3996   12.1812    4.0167 C   0  0  0  0  0  0  0  0  0  0  0  0
    8.7944    9.3484    5.2008 C   0  0  0  0  0  0  0  0  0  0  0  0
   10.6320   10.4874    6.1721 F   0  0  0  0  0  0  0  0  0  0  0  0
    9.4956    9.7687    6.3241 C   0  0  0  0  0  0  0  0  0  0  0  0
    9.8079   10.0063    8.6560 F   0  0  0  0  0  0  0  0  0  0  0  0
    9.0814    9.5514    7.6178 C   0  0  0  0  0  0  0  0  0  0  0  0
    7.4780    8.6672    9.1051 F   0  0  0  0  0  0  0  0  0  0  0  0
    7.9118    8.8815    7.8427 C   0  0  0  0  0  0  0  0  0  0  0  0
    6.0055    7.7893    6.9871 F   0  0  0  0  0  0  0  0  0  0  0  0
    7.1694    8.4519    6.7788 C   0  0  0  0  0  0  0  0  0  0  0  0
    6.8010    8.2621    4.4957 F   0  0  0  0  0  0  0  0  0  0  0  0
    7.6170    8.6946    5.4883 C   0  0  0  0  0  0  0  0  0  0  0  0
  1  2  1  0  0  0  0
  3 20  1  0  0  0  0
  4  5  1  0  0  0  0
  6 20  1  0  0  0  0
  7 57  1  0  0  0  0
  8  1  1  0  0  0  0
  9  8  2  0  0  0  0
 10  9  1  0  0  0  0
 11 12  1  0  0  0  0
 12 13  1  0  0  0  0
 14 12  1  0  0  0  0
 15 12  1  0  0  0  0
 16 11  1  0  0  0  0
 17 16  1  0  0  0  0
 18 16  1  0  0  0  0
 19 16  1  0  0  0  0
 20 21  2  0  0  0  0
 21 22  1  0  0  0  0
 23  9  1  0  0  0  0
 24 23  1  0  0  0  0
 25 24  1  0  0  0  0
 26 24  1  0  0  0  0
 27 24  1  0  0  0  0
 28 23  1  0  0  0  0
 29 28  1  0  0  0  0
 30 28  1  0  0  0  0
 31 28  1  0  0  0  0
 32 23  1  0  0  0  0
 33 32  1  0  0  0  0
 34 32  1  0  0  0  0
 35 32  1  0  0  0  0
 36  1  1  0  0  0  0
 37 36  4  0  0  0  0
 38 37  4  0  0  0  0
 39 38  1  0  0  0  0
 40 38  4  0  0  0  0
 41 40  4  0  0  0  0
 42 41  1  0  0  0  0
 43 36  4  0  0  0  0
 44 37  1  0  0  0  0
 45 44  1  0  0  0  0
 46 44  1  0  0  0  0
 47 44  1  0  0  0  0
 48 40  1  0  0  0  0
 49 48  1  0  0  0  0
 50 48  1  0  0  0  0
 51 48  1  0  0  0  0
 52 43  1  0  0  0  0
 53 52  1  0  0  0  0
 54 52  1  0  0  0  0
 55 52  1  0  0  0  0
 56  1  1  0  0  0  0
 57 56  4  0  0  0  0
 58 11  1  0  0  0  0
 59 58  4  0  0  0  0
 60 59  1  0  0  0  0
 61 59  4  0  0  0  0
 62 61  1  0  0  0  0
 63 56  4  0  0  0  0
 64 63  1  0  0  0  0
 65  3  1  0  0  0  0
 66  7  1  0  0  0  0
 67 11  1  0  0  0  0
 68 67  4  0  0  0  0
 69 68  1  0  0  0  0
 70 68  4  0  0  0  0
 71 70  1  0  0  0  0
 72 65  4  0  0  0  0
 73 72  1  0  0  0  0
 74  3  1  0  0  0  0
 75 74  4  0  0  0  0
 76 75  4  0  0  0  0
 77 76  1  0  0  0  0
 78 76  4  0  0  0  0
 79 78  4  0  0  0  0
 80 79  1  0  0  0  0
 81 74  4  0  0  0  0
 82 75  1  0  0  0  0
 83 82  1  0  0  0  0
 84 82  1  0  0  0  0
 85 82  1  0  0  0  0
 86 78  1  0  0  0  0
 87 86  1  0  0  0  0
 88 86  1  0  0  0  0
 89 86  1  0  0  0  0
 90 81  1  0  0  0  0
 91 90  1  0  0  0  0
 92 90  1  0  0  0  0
 93 90  1  0  0  0  0
 94 21  1  0  0  0  0
 95 94  1  0  0  0  0
 96 95  1  0  0  0  0
 97 95  1  0  0  0  0
 98 95  1  0  0  0  0
 99 94  1  0  0  0  0
100 99  1  0  0  0  0
101 99  1  0  0  0  0
102 99  1  0  0  0  0
103 94  1  0  0  0  0
104103  1  0  0  0  0
105103  1  0  0  0  0
106103  1  0  0  0  0
107  6  1  0  0  0  0
108109  1  0  0  0  0
109107  4  0  0  0  0
110111  1  0  0  0  0
111109  4  0  0  0  0
112113  1  0  0  0  0
113111  4  0  0  0  0
114115  1  0  0  0  0
115113  4  0  0  0  0
116117  1  0  0  0  0
117107  4  0  0  0  0
118  6  1  0  0  0  0
119120  1  0  0  0  0
120118  4  0  0  0  0
121122  1  0  0  0  0
122120  4  0  0  0  0
123124  1  0  0  0  0
124122  4  0  0  0  0
125126  1  0  0  0  0
126124  4  0  0  0  0
127128  1  0  0  0  0
128118  4  0  0  0  0
129  4  1  0  0  0  0
130131  1  0  0  0  0
131129  4  0  0  0  0
132133  1  0  0  0  0
133131  4  0  0  0  0
134135  1  0  0  0  0
135133  4  0  0  0  0
136137  1  0  0  0  0
137135  4  0  0  0  0
138139  1  0  0  0  0
139129  4  0  0  0  0
140  4  1  0  0  0  0
141142  1  0  0  0  0
142140  4  0  0  0  0
143144  1  0  0  0  0
144142  4  0  0  0  0
145146  1  0  0  0  0
146144  4  0  0  0  0
147148  1  0  0  0  0
148146  4  0  0  0  0
149150  1  0  0  0  0
150140  4  0  0  0  0
  4  8  1  0  0  0  0
 41 43  4  0  0  0  0
 57 58  4  0  0  0  0
 61 63  4  0  0  0  0
 65 66  4  0  0  0  0
 66 67  4  0  0  0  0
 70 72  4  0  0  0  0
 79 81  4  0  0  0  0
115117  4  0  0  0  0
126128  4  0  0  0  0
137139  4  0  0  0  0
148150  4  0  0  0  0
M  CHG  2   1   1   4  -1
M  END
$$$$
UBIZIS

From CSD data. Using bond type 'Any'. No disordered atoms. Largest molecule.
152160  0  0  0  0  0  0  0  0999 V2000
   15.0399    3.1568    8.8203 O   0  0  0  0  0  0  0  0  0  0  0  0
   13.2447    2.4456    6.5329 P   0  3  0  0  0  0  0  0  0  0  0  0
   12.9581    1.8930    7.5794 H   0  0  0  0  0  0  0  0  0  0  0  0
   13.1352    4.0090   10.9931 P   0  3  0  0  0  0  0  0  0  0  0  0
   12.6279    4.6175    9.9237 H   0  0  0  0  0  0  0  0  0  0  0  0
   12.7959    3.0033    3.8197 B   0  5  0  0  0  0  0  0  0  0  0  0
   13.6029    3.7605    4.2127 H   0  0  0  0  0  0  0  0  0  0  0  0
   12.5537    3.5315   13.6993 B   0  5  0  0  0  0  0  0  0  0  0  0
   13.3985    2.7500   13.3785 H   0  0  0  0  0  0  0  0  0  0  0  0
   12.7336    1.7933    4.9389 C   0  0  0  0  0  0  0  0  0  0  0  0
   12.4989    0.4976    4.6622 C   0  0  0  0  0  0  0  0  0  0  0  0
   12.2851    0.3709    3.7456 H   0  0  0  0  0  0  0  0  0  0  0  0
   18.0084    3.0800    8.9172 C   0  0  0  0  0  0  0  0  0  0  0  0
   18.9516    4.1506    8.3250 C   0  0  0  0  0  0  0  0  0  0  0  0
   18.4182    4.8579    7.9037 H   0  0  0  0  0  0  0  0  0  0  0  0
   19.5347    3.7375    7.6552 H   0  0  0  0  0  0  0  0  0  0  0  0
   19.5001    4.5356    9.0406 H   0  0  0  0  0  0  0  0  0  0  0  0
   18.8267    1.9634    9.5765 C   0  0  0  0  0  0  0  0  0  0  0  0
   19.4246    2.3509   10.2480 H   0  0  0  0  0  0  0  0  0  0  0  0
   19.3554    1.5004    8.8943 H   0  0  0  0  0  0  0  0  0  0  0  0
   18.2200    1.3264   10.0083 H   0  0  0  0  0  0  0  0  0  0  0  0
   12.5427    4.7045   12.5360 C   0  0  0  0  0  0  0  0  0  0  0  0
   12.2524    6.0014   12.7440 C   0  0  0  0  0  0  0  0  0  0  0  0
   11.9957    6.1690   13.6429 H   0  0  0  0  0  0  0  0  0  0  0  0
   12.4861   -0.8058    5.4184 C   0  0  0  0  0  0  0  0  0  0  0  0
   11.2207   -1.5605    4.9601 C   0  0  0  0  0  0  0  0  0  0  0  0
   10.4231   -1.0783    5.2668 H   0  0  0  0  0  0  0  0  0  0  0  0
   11.2220   -2.4635    5.3408 H   0  0  0  0  0  0  0  0  0  0  0  0
   11.2094   -1.6180    3.9818 H   0  0  0  0  0  0  0  0  0  0  0  0
   13.7180   -1.6052    4.9530 C   0  0  0  0  0  0  0  0  0  0  0  0
   13.7098   -1.6820    3.9765 H   0  0  0  0  0  0  0  0  0  0  0  0
   13.6941   -2.5006    5.3514 H   0  0  0  0  0  0  0  0  0  0  0  0
   14.5339   -1.1422    5.2368 H   0  0  0  0  0  0  0  0  0  0  0  0
   12.5024   -0.7112    6.9378 C   0  0  0  0  0  0  0  0  0  0  0  0
   13.3198   -0.2545    7.2286 H   0  0  0  0  0  0  0  0  0  0  0  0
   12.4801   -1.6129    7.3220 H   0  0  0  0  0  0  0  0  0  0  0  0
   11.7189   -0.2072    7.2427 H   0  0  0  0  0  0  0  0  0  0  0  0
   12.6455    4.1365    6.7562 C   0  0  0  0  0  0  0  0  0  0  0  0
   11.2588    4.2222    7.0101 C   0  0  0  0  0  0  0  0  0  0  0  0
   10.6955    5.4936    7.2057 C   0  0  0  0  0  0  0  0  0  0  0  0
    9.7658    5.5653    7.3926 H   0  0  0  0  0  0  0  0  0  0  0  0
   11.4579    6.6435    7.1334 C   0  0  0  0  0  0  0  0  0  0  0  0
   12.8122    6.5310    6.8585 C   0  0  0  0  0  0  0  0  0  0  0  0
   13.3356    7.3227    6.8144 H   0  0  0  0  0  0  0  0  0  0  0  0
   13.4365    5.3018    6.6452 C   0  0  0  0  0  0  0  0  0  0  0  0
   10.3508    3.0237    7.0383 C   0  0  0  0  0  0  0  0  0  0  0  0
    9.4230    3.3205    7.1352 H   0  0  0  0  0  0  0  0  0  0  0  0
   10.5898    2.4507    7.7962 H   0  0  0  0  0  0  0  0  0  0  0  0
   10.4483    2.5198    6.2045 H   0  0  0  0  0  0  0  0  0  0  0  0
   10.8307    8.0096    7.3555 C   0  0  0  0  0  0  0  0  0  0  0  0
   10.2847    8.2488    6.5782 H   0  0  0  0  0  0  0  0  0  0  0  0
   11.5365    8.6773    7.4772 H   0  0  0  0  0  0  0  0  0  0  0  0
   10.2659    7.9827    8.1558 H   0  0  0  0  0  0  0  0  0  0  0  0
   14.8949    5.3338    6.2909 C   0  0  0  0  0  0  0  0  0  0  0  0
   15.1315    6.2227    5.9542 H   0  0  0  0  0  0  0  0  0  0  0  0
   15.0780    4.6635    5.5982 H   0  0  0  0  0  0  0  0  0  0  0  0
   15.4303    5.1329    7.0876 H   0  0  0  0  0  0  0  0  0  0  0  0
   15.0302    2.2090    6.6575 C   0  0  0  0  0  0  0  0  0  0  0  0
   15.6797    1.6270    5.5805 C   0  0  0  0  0  0  0  0  0  0  0  0
   15.1818    1.3405    4.8226 H   0  0  0  0  0  0  0  0  0  0  0  0
   17.0573    1.4607    5.6088 C   0  0  0  0  0  0  0  0  0  0  0  0
   17.5029    1.0386    4.8843 H   0  0  0  0  0  0  0  0  0  0  0  0
   17.7731    1.9135    6.6928 C   0  0  0  0  0  0  0  0  0  0  0  0
   18.7170    1.8150    6.6945 H   0  0  0  0  0  0  0  0  0  0  0  0
   17.1535    2.5108    7.7909 C   0  0  0  0  0  0  0  0  0  0  0  0
   15.7684    2.6196    7.7768 C   0  0  0  0  0  0  0  0  0  0  0  0
   14.9245    4.1608   10.9531 C   0  0  0  0  0  0  0  0  0  0  0  0
   15.5403    4.7646   12.0512 C   0  0  0  0  0  0  0  0  0  0  0  0
   15.0088    5.1227   12.7528 H   0  0  0  0  0  0  0  0  0  0  0  0
   16.9182    4.8413   12.1235 C   0  0  0  0  0  0  0  0  0  0  0  0
   17.3331    5.2570   12.8709 H   0  0  0  0  0  0  0  0  0  0  0  0
   17.6841    4.3207   11.1170 C   0  0  0  0  0  0  0  0  0  0  0  0
   18.6289    4.3617   11.1893 H   0  0  0  0  0  0  0  0  0  0  0  0
   17.1148    3.7234    9.9748 C   0  0  0  0  0  0  0  0  0  0  0  0
   15.7334    3.6889    9.9061 C   0  0  0  0  0  0  0  0  0  0  0  0
   12.4791    2.3266   10.7857 C   0  0  0  0  0  0  0  0  0  0  0  0
   13.2170    1.1345   10.9531 C   0  0  0  0  0  0  0  0  0  0  0  0
   12.5499   -0.0678   10.7557 C   0  0  0  0  0  0  0  0  0  0  0  0
   13.0368   -0.8774   10.8614 H   0  0  0  0  0  0  0  0  0  0  0  0
   11.2075   -0.1458   10.4137 C   0  0  0  0  0  0  0  0  0  0  0  0
   10.4958    1.0476   10.2939 C   0  0  0  0  0  0  0  0  0  0  0  0
    9.5708    1.0130   10.0788 H   0  0  0  0  0  0  0  0  0  0  0  0
   11.1022    2.2832   10.4790 C   0  0  0  0  0  0  0  0  0  0  0  0
   14.6697    1.0655   11.3673 C   0  0  0  0  0  0  0  0  0  0  0  0
   14.8641    0.1740   11.7269 H   0  0  0  0  0  0  0  0  0  0  0  0
   14.8452    1.7408   12.0548 H   0  0  0  0  0  0  0  0  0  0  0  0
   15.2415    1.2356   10.5882 H   0  0  0  0  0  0  0  0  0  0  0  0
   10.5291   -1.4748   10.2110 C   0  0  0  0  0  0  0  0  0  0  0  0
   11.1748   -2.1182    9.8497 H   0  0  0  0  0  0  0  0  0  0  0  0
    9.7847   -1.3686    9.5818 H   0  0  0  0  0  0  0  0  0  0  0  0
   10.1872   -1.8009   11.0694 H   0  0  0  0  0  0  0  0  0  0  0  0
   10.2391    3.5200   10.3838 C   0  0  0  0  0  0  0  0  0  0  0  0
    9.3223    3.2629   10.1511 H   0  0  0  0  0  0  0  0  0  0  0  0
   10.5961    4.1161    9.6928 H   0  0  0  0  0  0  0  0  0  0  0  0
   10.2376    3.9843   11.2475 H   0  0  0  0  0  0  0  0  0  0  0  0
   12.2297    7.2741   11.8961 C   0  0  0  0  0  0  0  0  0  0  0  0
   13.1909    7.3048   10.7240 C   0  0  0  0  0  0  0  0  0  0  0  0
   13.2569    8.2194   10.3785 H   0  0  0  0  0  0  0  0  0  0  0  0
   12.8638    6.7113   10.0154 H   0  0  0  0  0  0  0  0  0  0  0  0
   14.0747    7.0030   11.0183 H   0  0  0  0  0  0  0  0  0  0  0  0
   12.5933    8.4240   12.8339 C   0  0  0  0  0  0  0  0  0  0  0  0
   11.9202    8.4931   13.5424 H   0  0  0  0  0  0  0  0  0  0  0  0
   12.6216    9.2618   12.3262 H   0  0  0  0  0  0  0  0  0  0  0  0
   13.4708    8.2552   13.2322 H   0  0  0  0  0  0  0  0  0  0  0  0
   10.8065    7.4519   11.3991 C   0  0  0  0  0  0  0  0  0  0  0  0
   10.1841    7.3522   12.1482 H   0  0  0  0  0  0  0  0  0  0  0  0
   10.6118    6.7727   10.7187 H   0  0  0  0  0  0  0  0  0  0  0  0
   10.7062    8.3447   11.0077 H   0  0  0  0  0  0  0  0  0  0  0  0
   13.0547    4.1327   15.1588 C   0  0  0  0  0  0  0  0  0  0  0  0
   12.2291    4.6507   16.1423 C   0  0  0  0  0  0  0  0  0  0  0  0
   12.6704    5.1304   17.3780 C   0  0  0  0  0  0  0  0  0  0  0  0
   14.0008    5.1150   17.6565 C   0  0  0  0  0  0  0  0  0  0  0  0
   14.8673    4.6098   16.7223 C   0  0  0  0  0  0  0  0  0  0  0  0
   14.3914    4.1263   15.5184 C   0  0  0  0  0  0  0  0  0  0  0  0
   11.1443    2.7014   13.8315 C   0  0  0  0  0  0  0  0  0  0  0  0
   11.1516    1.3277   14.0272 C   0  0  0  0  0  0  0  0  0  0  0  0
   10.0290    0.5487   14.2105 C   0  0  0  0  0  0  0  0  0  0  0  0
    8.8040    1.1550   14.2175 C   0  0  0  0  0  0  0  0  0  0  0  0
    8.7055    2.5134   14.0078 C   0  0  0  0  0  0  0  0  0  0  0  0
    9.8633    3.2437   13.8157 C   0  0  0  0  0  0  0  0  0  0  0  0
   13.4066    2.4482    2.3902 C   0  0  0  0  0  0  0  0  0  0  0  0
   12.6770    1.9097    1.3467 C   0  0  0  0  0  0  0  0  0  0  0  0
   13.2054    1.4492    0.1551 C   0  0  0  0  0  0  0  0  0  0  0  0
   14.5622    1.4901   -0.0405 C   0  0  0  0  0  0  0  0  0  0  0  0
   15.3554    2.0222    0.9536 C   0  0  0  0  0  0  0  0  0  0  0  0
   14.7707    2.4916    2.1187 C   0  0  0  0  0  0  0  0  0  0  0  0
   11.3616    3.7861    3.6293 C   0  0  0  0  0  0  0  0  0  0  0  0
   10.1061    3.2105    3.5940 C   0  0  0  0  0  0  0  0  0  0  0  0
    8.9279    3.9319    3.3931 C   0  0  0  0  0  0  0  0  0  0  0  0
    8.9804    5.2852    3.2327 C   0  0  0  0  0  0  0  0  0  0  0  0
   10.2108    5.9183    3.2944 C   0  0  0  0  0  0  0  0  0  0  0  0
   11.3409    5.1764    3.4953 C   0  0  0  0  0  0  0  0  0  0  0  0
   10.8924    4.7326   15.9518 F   0  0  0  0  0  0  0  0  0  0  0  0
   11.7859    5.6062   18.2649 F   0  0  0  0  0  0  0  0  0  0  0  0
   14.4675    5.5691   18.8314 F   0  0  0  0  0  0  0  0  0  0  0  0
   16.1904    4.5625   17.0004 F   0  0  0  0  0  0  0  0  0  0  0  0
   15.3205    3.6096   14.6942 F   0  0  0  0  0  0  0  0  0  0  0  0
   12.3329    0.6523   14.0487 F   0  0  0  0  0  0  0  0  0  0  0  0
   10.1250   -0.7815   14.3920 F   0  0  0  0  0  0  0  0  0  0  0  0
    7.6793    0.4362   14.4537 F   0  0  0  0  0  0  0  0  0  0  0  0
    7.5035    3.1133   13.9954 F   0  0  0  0  0  0  0  0  0  0  0  0
    9.6862    4.5689   13.6087 F   0  0  0  0  0  0  0  0  0  0  0  0
   11.3286    1.7997    1.4466 F   0  0  0  0  0  0  0  0  0  0  0  0
   12.4077    0.9491   -0.8057 F   0  0  0  0  0  0  0  0  0  0  0  0
   15.1160    1.0373   -1.1838 F   0  0  0  0  0  0  0  0  0  0  0  0
   16.6839    2.0926    0.7699 F   0  0  0  0  0  0  0  0  0  0  0  0
   15.6347    3.0378    3.0074 F   0  0  0  0  0  0  0  0  0  0  0  0
    9.9630    1.8726    3.7395 F   0  0  0  0  0  0  0  0  0  0  0  0
    7.7428    3.2898    3.3552 F   0  0  0  0  0  0  0  0  0  0  0  0
    7.8563    5.9887    3.0020 F   0  0  0  0  0  0  0  0  0  0  0  0
   10.2715    7.2601    3.1428 F   0  0  0  0  0  0  0  0  0  0  0  0
   12.4942    5.8710    3.5070 F   0  0  0  0  0  0  0  0  0  0  0  0
  1 66  1  0  0  0  0
  2  3  1  0  0  0  0
  4  5  1  0  0  0  0
  6  7  1  0  0  0  0
  8  9  1  0  0  0  0
 10  2  1  0  0  0  0
 11 10  2  0  0  0  0
 12 11  1  0  0  0  0
 13 14  1  0  0  0  0
 14 15  1  0  0  0  0
 16 14  1  0  0  0  0
 17 14  1  0  0  0  0
 18 13  1  0  0  0  0
 19 18  1  0  0  0  0
 20 18  1  0  0  0  0
 21 18  1  0  0  0  0
 22  4  1  0  0  0  0
 23 22  2  0  0  0  0
 24 23  1  0  0  0  0
 25 11  1  0  0  0  0
 26 25  1  0  0  0  0
 27 26  1  0  0  0  0
 28 26  1  0  0  0  0
 29 26  1  0  0  0  0
 30 25  1  0  0  0  0
 31 30  1  0  0  0  0
 32 30  1  0  0  0  0
 33 30  1  0  0  0  0
 34 25  1  0  0  0  0
 35 34  1  0  0  0  0
 36 34  1  0  0  0  0
 37 34  1  0  0  0  0
 38  2  1  0  0  0  0
 39 38  4  0  0  0  0
 40 39  4  0  0  0  0
 41 40  1  0  0  0  0
 42 40  4  0  0  0  0
 43 42  4  0  0  0  0
 44 43  1  0  0  0  0
 45 38  4  0  0  0  0
 46 39  1  0  0  0  0
 47 46  1  0  0  0  0
 48 46  1  0  0  0  0
 49 46  1  0  0  0  0
 50 42  1  0  0  0  0
 51 50  1  0  0  0  0
 52 50  1  0  0  0  0
 53 50  1  0  0  0  0
 54 45  1  0  0  0  0
 55 54  1  0  0  0  0
 56 54  1  0  0  0  0
 57 54  1  0  0  0  0
 58  2  1  0  0  0  0
 59 58  4  0  0  0  0
 60 59  1  0  0  0  0
 61 59  4  0  0  0  0
 62 61  1  0  0  0  0
 63 61  4  0  0  0  0
 64 63  1  0  0  0  0
 65 13  1  0  0  0  0
 66 58  4  0  0  0  0
 67  4  1  0  0  0  0
 68 67  4  0  0  0  0
 69 68  1  0  0  0  0
 70 68  4  0  0  0  0
 71 70  1  0  0  0  0
 72 70  4  0  0  0  0
 73 72  1  0  0  0  0
 74 13  1  0  0  0  0
 75  1  1  0  0  0  0
 76  4  1  0  0  0  0
 77 76  4  0  0  0  0
 78 77  4  0  0  0  0
 79 78  1  0  0  0  0
 80 78  4  0  0  0  0
 81 80  4  0  0  0  0
 82 81  1  0  0  0  0
 83 76  4  0  0  0  0
 84 77  1  0  0  0  0
 85 84  1  0  0  0  0
 86 84  1  0  0  0  0
 87 84  1  0  0  0  0
 88 80  1  0  0  0  0
 89 88  1  0  0  0  0
 90 88  1  0  0  0  0
 91 88  1  0  0  0  0
 92 83  1  0  0  0  0
 93 92  1  0  0  0  0
 94 92  1  0  0  0  0
 95 92  1  0  0  0  0
 96 23  1  0  0  0  0
 97 96  1  0  0  0  0
 98 97  1  0  0  0  0
 99 97  1  0  0  0  0
100 97  1  0  0  0  0
101 96  1  0  0  0  0
102101  1  0  0  0  0
103101  1  0  0  0  0
104101  1  0  0  0  0
105 96  1  0  0  0  0
106105  1  0  0  0  0
107105  1  0  0  0  0
108105  1  0  0  0  0
109  8  1  0  0  0  0
110109  4  0  0  0  0
111110  4  0  0  0  0
112111  4  0  0  0  0
113112  4  0  0  0  0
114109  4  0  0  0  0
115  8  1  0  0  0  0
116115  4  0  0  0  0
117116  4  0  0  0  0
118117  4  0  0  0  0
119118  4  0  0  0  0
120115  4  0  0  0  0
121  6  1  0  0  0  0
122121  4  0  0  0  0
123122  4  0  0  0  0
124123  4  0  0  0  0
125124  4  0  0  0  0
126121  4  0  0  0  0
127  6  1  0  0  0  0
128127  4  0  0  0  0
129128  4  0  0  0  0
130129  4  0  0  0  0
131130  4  0  0  0  0
132127  4  0  0  0  0
133110  1  0  0  0  0
134111  1  0  0  0  0
135112  1  0  0  0  0
136113  1  0  0  0  0
137114  1  0  0  0  0
138116  1  0  0  0  0
139117  1  0  0  0  0
140118  1  0  0  0  0
141119  1  0  0  0  0
142120  1  0  0  0  0
143122  1  0  0  0  0
144123  1  0  0  0  0
145124  1  0  0  0  0
146125  1  0  0  0  0
147126  1  0  0  0  0
148128  1  0  0  0  0
149129  1  0  0  0  0
150130  1  0  0  0  0
151131  1  0  0  0  0
152132  1  0  0  0  0
  6 10  1  0  0  0  0
  8 22  1  0  0  0  0
 43 45  4  0  0  0  0
 63 65  4  0  0  0  0
 65 66  4  0  0  0  0
 67 75  4  0  0  0  0
 72 74  4  0  0  0  0
 74 75  4  0  0  0  0
 81 83  4  0  0  0  0
113114  4  0  0  0  0
119120  4  0  0  0  0
125126  4  0  0  0  0
131132  4  0  0  0  0
M  CHG  4   2   1   4   1   6  -1   8  -1
M  END
$$$$
UBIZOY

From CSD data. Using bond type 'Any'. Matching problem. No disordered atoms. Largest molecule.
176186  0  0  0  0  0  0  0  0999 V2000
   12.7023   13.6815   18.5320 B   0  5  0  0  0  0  0  0  0  0  0  0
   12.8759   14.9071   17.4033 C   0  0  0  0  0  0  0  0  0  0  0  0
   13.5144   19.4969   18.5278 O   0  0  0  0  0  0  0  0  0  0  0  0
   13.4454   16.5263   18.0263 P   0  3  0  0  0  0  0  0  0  0  0  0
   14.2068   17.0418   17.1091 H   0  0  0  0  0  0  0  0  0  0  0  0
   12.5607   14.7629   16.1275 C   0  0  0  0  0  0  0  0  0  0  0  0
   12.3272   13.8597   15.9509 H   0  0  0  0  0  0  0  0  0  0  0  0
   16.4262   20.2689   18.2615 P   0  3  0  0  0  0  0  0  0  0  0  0
   16.3817   19.1845   18.9167 H   0  0  0  0  0  0  0  0  0  0  0  0
   11.2138   21.2792   19.1983 C   0  0  0  0  0  0  0  0  0  0  0  0
   10.5194   21.5435   20.5120 C   0  0  0  0  0  0  0  0  0  0  0  0
    9.5557   21.3974   20.4069 H   0  0  0  0  0  0  0  0  0  0  0  0
   10.6811   22.4707   20.7852 H   0  0  0  0  0  0  0  0  0  0  0  0
   10.8706   20.9348   21.1951 H   0  0  0  0  0  0  0  0  0  0  0  0
   10.6052   22.1223   18.0822 C   0  0  0  0  0  0  0  0  0  0  0  0
    9.6754   21.8499   17.9351 H   0  0  0  0  0  0  0  0  0  0  0  0
   11.1180   21.9921   17.2583 H   0  0  0  0  0  0  0  0  0  0  0  0
   10.6332   23.0695   18.3365 H   0  0  0  0  0  0  0  0  0  0  0  0
   18.0199   21.0629   18.5257 C   0  0  0  0  0  0  0  0  0  0  0  0
   18.7602   20.7886   19.6313 C   0  0  0  0  0  0  0  0  0  0  0  0
   19.6381   21.1370   19.5367 H   0  0  0  0  0  0  0  0  0  0  0  0
   12.4529   15.5979   14.8349 C   0  0  0  0  0  0  0  0  0  0  0  0
   13.0056   14.7448   13.6830 C   0  0  0  0  0  0  0  0  0  0  0  0
   12.5866   13.8597   13.7020 H   0  0  0  0  0  0  0  0  0  0  0  0
   12.8061   15.1834   12.8297 H   0  0  0  0  0  0  0  0  0  0  0  0
   13.9754   14.6507   13.7839 H   0  0  0  0  0  0  0  0  0  0  0  0
   10.9105   15.7541   14.6058 C   0  0  0  0  0  0  0  0  0  0  0  0
   10.4855   14.8710   14.6289 H   0  0  0  0  0  0  0  0  0  0  0  0
   10.5314   16.3189   15.3120 H   0  0  0  0  0  0  0  0  0  0  0  0
   10.7509   16.1707   13.7335 H   0  0  0  0  0  0  0  0  0  0  0  0
   13.1074   16.9697   14.7970 C   0  0  0  0  0  0  0  0  0  0  0  0
   12.7582   17.5184   15.5306 H   0  0  0  0  0  0  0  0  0  0  0  0
   14.0771   16.8716   14.8958 H   0  0  0  0  0  0  0  0  0  0  0  0
   12.9079   17.4042   13.9416 H   0  0  0  0  0  0  0  0  0  0  0  0
   14.6518   16.3409   19.3412 C   0  0  0  0  0  0  0  0  0  0  0  0
   15.8749   15.8002   18.9272 C   0  0  0  0  0  0  0  0  0  0  0  0
   16.8846   15.5859   19.8520 C   0  0  0  0  0  0  0  0  0  0  0  0
   17.7186   15.2355   19.5619 H   0  0  0  0  0  0  0  0  0  0  0  0
   16.6970   15.8743   21.2014 C   0  0  0  0  0  0  0  0  0  0  0  0
   15.4958   16.4310   21.6028 C   0  0  0  0  0  0  0  0  0  0  0  0
   15.3661   16.6273   22.5213 H   0  0  0  0  0  0  0  0  0  0  0  0
   14.4503   16.7174   20.6864 C   0  0  0  0  0  0  0  0  0  0  0  0
   16.1563   15.4137   17.4601 C   0  0  0  0  0  0  0  0  0  0  0  0
   15.4998   14.7469   17.1679 H   0  0  0  0  0  0  0  0  0  0  0  0
   17.0582   15.0372   17.3886 H   0  0  0  0  0  0  0  0  0  0  0  0
   16.0884   16.2107   16.8947 H   0  0  0  0  0  0  0  0  0  0  0  0
   17.8064   15.6300   22.2060 C   0  0  0  0  0  0  0  0  0  0  0  0
   17.9401   14.6667   22.3153 H   0  0  0  0  0  0  0  0  0  0  0  0
   17.5630   16.0285   23.0678 H   0  0  0  0  0  0  0  0  0  0  0  0
   18.6365   16.0405   21.8803 H   0  0  0  0  0  0  0  0  0  0  0  0
   13.2291   17.3582   21.2413 C   0  0  0  0  0  0  0  0  0  0  0  0
   13.2191   18.3074   20.9975 H   0  0  0  0  0  0  0  0  0  0  0  0
   13.2291   17.2721   22.2166 H   0  0  0  0  0  0  0  0  0  0  0  0
   12.4330   16.9176   20.8735 H   0  0  0  0  0  0  0  0  0  0  0  0
   12.0558   17.6606   18.3407 C   0  0  0  0  0  0  0  0  0  0  0  0
   10.7808   17.0898   18.3618 C   0  0  0  0  0  0  0  0  0  0  0  0
   10.6711   16.1567   18.2251 H   0  0  0  0  0  0  0  0  0  0  0  0
    9.6974   17.8809   18.5804 C   0  0  0  0  0  0  0  0  0  0  0  0
    8.8274   17.5004   18.5635 H   0  0  0  0  0  0  0  0  0  0  0  0
    9.8450   19.2046   18.8242 C   0  0  0  0  0  0  0  0  0  0  0  0
    9.0748   19.7352   18.9776 H   0  0  0  0  0  0  0  0  0  0  0  0
   11.1180   19.8133   18.8515 C   0  0  0  0  0  0  0  0  0  0  0  0
   12.2075   19.0183   18.5930 C   0  0  0  0  0  0  0  0  0  0  0  0
   15.0508   21.2472   18.9061 C   0  0  0  0  0  0  0  0  0  0  0  0
   15.3801   22.5308   19.3749 C   0  0  0  0  0  0  0  0  0  0  0  0
   16.2840   22.8172   19.4043 H   0  0  0  0  0  0  0  0  0  0  0  0
   14.3625   23.3679   19.7889 C   0  0  0  0  0  0  0  0  0  0  0  0
   14.5700   24.2270   20.1378 H   0  0  0  0  0  0  0  0  0  0  0  0
   13.0495   22.9654   19.7006 C   0  0  0  0  0  0  0  0  0  0  0  0
   12.3571   23.5761   19.9192 H   0  0  0  0  0  0  0  0  0  0  0  0
   12.7223   21.6637   19.2908 C   0  0  0  0  0  0  0  0  0  0  0  0
   13.7399   20.8126   18.9230 C   0  0  0  0  0  0  0  0  0  0  0  0
   16.2441   19.7232   16.5584 C   0  0  0  0  0  0  0  0  0  0  0  0
   15.4080   20.2919   15.5978 C   0  0  0  0  0  0  0  0  0  0  0  0
   15.3721   19.7553   14.3199 C   0  0  0  0  0  0  0  0  0  0  0  0
   14.7875   20.1397   13.6767 H   0  0  0  0  0  0  0  0  0  0  0  0
   16.1583   18.6839   13.9500 C   0  0  0  0  0  0  0  0  0  0  0  0
   17.0222   18.1372   14.9210 C   0  0  0  0  0  0  0  0  0  0  0  0
   17.5849   17.4103   14.6814 H   0  0  0  0  0  0  0  0  0  0  0  0
   17.0701   18.6218   16.2053 C   0  0  0  0  0  0  0  0  0  0  0  0
   14.4642   21.4775   15.8416 C   0  0  0  0  0  0  0  0  0  0  0  0
   13.6701   21.1671   16.3251 H   0  0  0  0  0  0  0  0  0  0  0  0
   14.1948   21.8619   14.9820 H   0  0  0  0  0  0  0  0  0  0  0  0
   14.9271   22.1583   16.3734 H   0  0  0  0  0  0  0  0  0  0  0  0
   16.0984   18.1352   12.5607 C   0  0  0  0  0  0  0  0  0  0  0  0
   16.2221   17.1639   12.5880 H   0  0  0  0  0  0  0  0  0  0  0  0
   16.8087   18.5397   12.0184 H   0  0  0  0  0  0  0  0  0  0  0  0
   15.2264   18.3434   12.1655 H   0  0  0  0  0  0  0  0  0  0  0  0
   18.0538   18.0030   17.1553 C   0  0  0  0  0  0  0  0  0  0  0  0
   18.5786   17.3221   16.6845 H   0  0  0  0  0  0  0  0  0  0  0  0
   17.5730   17.5865   17.8994 H   0  0  0  0  0  0  0  0  0  0  0  0
   18.6544   18.6959   17.5021 H   0  0  0  0  0  0  0  0  0  0  0  0
   18.6065   20.0957   20.9786 C   0  0  0  0  0  0  0  0  0  0  0  0
   17.2278   19.4248   21.2791 C   0  0  0  0  0  0  0  0  0  0  0  0
   16.5174   20.0957   21.2098 H   0  0  0  0  0  0  0  0  0  0  0  0
   17.0661   18.7099   20.6318 H   0  0  0  0  0  0  0  0  0  0  0  0
   17.2377   19.0504   22.1850 H   0  0  0  0  0  0  0  0  0  0  0  0
   19.7160   19.0604   21.0837 C   0  0  0  0  0  0  0  0  0  0  0  0
   19.6461   18.5918   21.9412 H   0  0  0  0  0  0  0  0  0  0  0  0
   19.6302   18.4135   20.3522 H   0  0  0  0  0  0  0  0  0  0  0  0
   20.5859   19.5069   21.0227 H   0  0  0  0  0  0  0  0  0  0  0  0
   18.8200   21.2251   22.0043 C   0  0  0  0  0  0  0  0  0  0  0  0
   18.0957   21.8820   21.9223 H   0  0  0  0  0  0  0  0  0  0  0  0
   18.8181   20.8507   22.9102 H   0  0  0  0  0  0  0  0  0  0  0  0
   19.6800   21.6637   21.8340 H   0  0  0  0  0  0  0  0  0  0  0  0
   18.5926   22.1343   17.3361 B   0  5  0  0  0  0  0  0  0  0  0  0
   19.8257   23.0334   17.9834 C   0  0  0  0  0  0  0  0  0  0  0  0
   19.6561   23.7263   19.1352 C   0  0  0  0  0  0  0  0  0  0  0  0
   18.4569   23.7063   19.7763 F   0  0  0  0  0  0  0  0  0  0  0  0
   20.6518   24.4192   19.8204 C   0  0  0  0  0  0  0  0  0  0  0  0
   20.3804   25.0120   20.9954 F   0  0  0  0  0  0  0  0  0  0  0  0
   21.8809   24.5193   19.2403 C   0  0  0  0  0  0  0  0  0  0  0  0
   22.8666   25.1702   19.8772 F   0  0  0  0  0  0  0  0  0  0  0  0
   22.0984   23.9166   18.0570 C   0  0  0  0  0  0  0  0  0  0  0  0
   23.3255   24.0167   17.4706 F   0  0  0  0  0  0  0  0  0  0  0  0
   21.1127   23.2077   17.4538 C   0  0  0  0  0  0  0  0  0  0  0  0
   21.4539   22.6510   16.2494 F   0  0  0  0  0  0  0  0  0  0  0  0
   19.1134   21.2211   16.0350 C   0  0  0  0  0  0  0  0  0  0  0  0
   18.6165   21.2752   14.7424 C   0  0  0  0  0  0  0  0  0  0  0  0
   17.6149   22.1103   14.4019 F   0  0  0  0  0  0  0  0  0  0  0  0
   19.0974   20.5042   13.6957 C   0  0  0  0  0  0  0  0  0  0  0  0
   18.5746   20.6264   12.4703 F   0  0  0  0  0  0  0  0  0  0  0  0
   20.1070   19.6091   13.9206 C   0  0  0  0  0  0  0  0  0  0  0  0
   20.5859   18.8341   12.9306 F   0  0  0  0  0  0  0  0  0  0  0  0
   20.6438   19.4949   15.1564 C   0  0  0  0  0  0  0  0  0  0  0  0
   21.6494   18.6458   15.4129 F   0  0  0  0  0  0  0  0  0  0  0  0
   20.1569   20.2939   16.1758 C   0  0  0  0  0  0  0  0  0  0  0  0
   20.7376   20.1538   17.4012 F   0  0  0  0  0  0  0  0  0  0  0  0
   11.6727   12.5000   17.8888 C   0  0  0  0  0  0  0  0  0  0  0  0
   10.3917   12.8544   17.5084 C   0  0  0  0  0  0  0  0  0  0  0  0
    9.9927   14.1481   17.5904 F   0  0  0  0  0  0  0  0  0  0  0  0
    9.4499   12.0174   17.0229 C   0  0  0  0  0  0  0  0  0  0  0  0
    8.2108   12.4559   16.7034 F   0  0  0  0  0  0  0  0  0  0  0  0
    9.7612   10.6616   16.8652 C   0  0  0  0  0  0  0  0  0  0  0  0
    8.8453    9.8165   16.3713 F   0  0  0  0  0  0  0  0  0  0  0  0
   10.9943   10.2431   17.2373 C   0  0  0  0  0  0  0  0  0  0  0  0
   11.3176    8.9494   17.1091 F   0  0  0  0  0  0  0  0  0  0  0  0
   11.9082   11.1523   17.7459 C   0  0  0  0  0  0  0  0  0  0  0  0
   13.0874   10.5795   18.1306 F   0  0  0  0  0  0  0  0  0  0  0  0
   14.1749   13.0126   18.9461 C   0  0  0  0  0  0  0  0  0  0  0  0
   14.9790   12.4439   17.9855 C   0  0  0  0  0  0  0  0  0  0  0  0
   14.5500   12.4579   16.6803 F   0  0  0  0  0  0  0  0  0  0  0  0
   16.2101   11.8471   18.2062 C   0  0  0  0  0  0  0  0  0  0  0  0
   16.9105   11.3045   17.1889 F   0  0  0  0  0  0  0  0  0  0  0  0
   16.6711   11.7831   19.5094 C   0  0  0  0  0  0  0  0  0  0  0  0
   17.8763   11.2264   19.7469 F   0  0  0  0  0  0  0  0  0  0  0  0
   15.9188   12.3398   20.5162 C   0  0  0  0  0  0  0  0  0  0  0  0
   16.3837   12.2817   21.7752 F   0  0  0  0  0  0  0  0  0  0  0  0
   14.7017   12.9065   20.2261 C   0  0  0  0  0  0  0  0  0  0  0  0
   14.0771   13.3871   21.3086 F   0  0  0  0  0  0  0  0  0  0  0  0
   11.9561   14.2282   19.8099 C   0  0  0  0  0  0  0  0  0  0  0  0
   11.4233   14.5466   20.8419 C   0  0  0  0  0  0  0  0  0  0  0  0
   10.9325   14.8109   22.1913 C   0  0  0  0  0  0  0  0  0  0  0  0
   11.3056   13.9338   23.2107 C   0  0  0  0  0  0  0  0  0  0  0  0
   11.7905   13.1428   23.0111 H   0  0  0  0  0  0  0  0  0  0  0  0
   10.9524   14.2382   24.5244 C   0  0  0  0  0  0  0  0  0  0  0  0
   11.2477   13.6735   25.2306 H   0  0  0  0  0  0  0  0  0  0  0  0
   10.2002   15.3136   24.8102 C   0  0  0  0  0  0  0  0  0  0  0  0
    9.9248   15.4738   25.7056 H   0  0  0  0  0  0  0  0  0  0  0  0
    9.8270   16.1847   23.8182 C   0  0  0  0  0  0  0  0  0  0  0  0
    9.3123   16.9557   24.0283 H   0  0  0  0  0  0  0  0  0  0  0  0
   10.1982   15.9424   22.5171 C   0  0  0  0  0  0  0  0  0  0  0  0
    9.9468   16.5532   21.8340 H   0  0  0  0  0  0  0  0  0  0  0  0
   17.4772   23.1616   16.9157 C   0  0  0  0  0  0  0  0  0  0  0  0
   16.7090   24.0027   16.5794 C   0  0  0  0  0  0  0  0  0  0  0  0
   15.7452   24.9439   16.0602 C   0  0  0  0  0  0  0  0  0  0  0  0
   14.9192   25.6488   16.9115 C   0  0  0  0  0  0  0  0  0  0  0  0
   14.9870   25.5487   17.8552 H   0  0  0  0  0  0  0  0  0  0  0  0
   13.9754   26.5159   16.3419 C   0  0  0  0  0  0  0  0  0  0  0  0
   13.3907   27.0025   16.9115 H   0  0  0  0  0  0  0  0  0  0  0  0
   13.8756   26.6861   14.9526 C   0  0  0  0  0  0  0  0  0  0  0  0
   13.2331   27.2829   14.5847 H   0  0  0  0  0  0  0  0  0  0  0  0
   14.7196   25.9752   14.1265 C   0  0  0  0  0  0  0  0  0  0  0  0
   14.6717   26.0773   13.1849 H   0  0  0  0  0  0  0  0  0  0  0  0
   15.6215   25.1201   14.6856 C   0  0  0  0  0  0  0  0  0  0  0  0
   16.1922   24.6255   14.1118 H   0  0  0  0  0  0  0  0  0  0  0  0
  1  2  1  0  0  0  0
  2  4  1  0  0  0  0
  3 63  1  0  0  0  0
  4  5  1  0  0  0  0
  6  2  2  0  0  0  0
  7  6  1  0  0  0  0
  8  9  1  0  0  0  0
 10 11  1  0  0  0  0
 11 12  1  0  0  0  0
 13 11  1  0  0  0  0
 14 11  1  0  0  0  0
 15 10  1  0  0  0  0
 16 15  1  0  0  0  0
 17 15  1  0  0  0  0
 18 15  1  0  0  0  0
 19  8  1  0  0  0  0
 20 19  2  0  0  0  0
 21 20  1  0  0  0  0
 22  6  1  0  0  0  0
 23 22  1  0  0  0  0
 24 23  1  0  0  0  0
 25 23  1  0  0  0  0
 26 23  1  0  0  0  0
 27 22  1  0  0  0  0
 28 27  1  0  0  0  0
 29 27  1  0  0  0  0
 30 27  1  0  0  0  0
 31 22  1  0  0  0  0
 32 31  1  0  0  0  0
 33 31  1  0  0  0  0
 34 31  1  0  0  0  0
 35  4  1  0  0  0  0
 36 35  4  0  0  0  0
 37 36  4  0  0  0  0
 38 37  1  0  0  0  0
 39 37  4  0  0  0  0
 40 39  4  0  0  0  0
 41 40  1  0  0  0  0
 42 35  4  0  0  0  0
 43 36  1  0  0  0  0
 44 43  1  0  0  0  0
 45 43  1  0  0  0  0
 46 43  1  0  0  0  0
 47 39  1  0  0  0  0
 48 47  1  0  0  0  0
 49 47  1  0  0  0  0
 50 47  1  0  0  0  0
 51 42  1  0  0  0  0
 52 51  1  0  0  0  0
 53 51  1  0  0  0  0
 54 51  1  0  0  0  0
 55  4  1  0  0  0  0
 56 55  4  0  0  0  0
 57 56  1  0  0  0  0
 58 56  4  0  0  0  0
 59 58  1  0  0  0  0
 60 58  4  0  0  0  0
 61 60  1  0  0  0  0
 62 10  1  0  0  0  0
 63 55  4  0  0  0  0
 64  8  1  0  0  0  0
 65 64  4  0  0  0  0
 66 65  1  0  0  0  0
 67 65  4  0  0  0  0
 68 67  1  0  0  0  0
 69 67  4  0  0  0  0
 70 69  1  0  0  0  0
 71 10  1  0  0  0  0
 72  3  1  0  0  0  0
 73  8  1  0  0  0  0
 74 73  4  0  0  0  0
 75 74  4  0  0  0  0
 76 75  1  0  0  0  0
 77 75  4  0  0  0  0
 78 77  4  0  0  0  0
 79 78  1  0  0  0  0
 80 73  4  0  0  0  0
 81 74  1  0  0  0  0
 82 81  1  0  0  0  0
 83 81  1  0  0  0  0
 84 81  1  0  0  0  0
 85 77  1  0  0  0  0
 86 85  1  0  0  0  0
 87 85  1  0  0  0  0
 88 85  1  0  0  0  0
 89 80  1  0  0  0  0
 90 89  1  0  0  0  0
 91 89  1  0  0  0  0
 92 89  1  0  0  0  0
 93 20  1  0  0  0  0
 94 93  1  0  0  0  0
 95 94  1  0  0  0  0
 96 94  1  0  0  0  0
 97 94  1  0  0  0  0
 98 93  1  0  0  0  0
 99 98  1  0  0  0  0
100 98  1  0  0  0  0
101 98  1  0  0  0  0
102 93  1  0  0  0  0
103102  1  0  0  0  0
104102  1  0  0  0  0
105102  1  0  0  0  0
106 19  1  0  0  0  0
107106  1  0  0  0  0
108107  4  0  0  0  0
109108  1  0  0  0  0
110108  4  0  0  0  0
111110  1  0  0  0  0
112110  4  0  0  0  0
113112  1  0  0  0  0
114112  4  0  0  0  0
115114  1  0  0  0  0
116107  4  0  0  0  0
117116  1  0  0  0  0
118106  1  0  0  0  0
119118  4  0  0  0  0
120119  1  0  0  0  0
121119  4  0  0  0  0
122121  1  0  0  0  0
123121  4  0  0  0  0
124123  1  0  0  0  0
125123  4  0  0  0  0
126125  1  0  0  0  0
127118  4  0  0  0  0
128127  1  0  0  0  0
129  1  1  0  0  0  0
130129  4  0  0  0  0
131130  1  0  0  0  0
132130  4  0  0  0  0
133132  1  0  0  0  0
134132  4  0  0  0  0
135134  1  0  0  0  0
136134  4  0  0  0  0
137136  1  0  0  0  0
138129  4  0  0  0  0
139138  1  0  0  0  0
140  1  1  0  0  0  0
141140  4  0  0  0  0
142141  1  0  0  0  0
143141  4  0  0  0  0
144143  1  0  0  0  0
145143  4  0  0  0  0
146145  1  0  0  0  0
147145  4  0  0  0  0
148147  1  0  0  0  0
149140  4  0  0  0  0
150149  1  0  0  0  0
151  1  1  0  0  0  0
152151  3  0  0  0  0
153152  1  0  0  0  0
154153  4  0  0  0  0
155154  1  0  0  0  0
156154  4  0  0  0  0
157156  1  0  0  0  0
158156  4  0  0  0  0
159158  1  0  0  0  0
160158  4  0  0  0  0
161160  1  0  0  0  0
162153  4  0  0  0  0
163162  1  0  0  0  0
164106  1  0  0  0  0
165164  3  0  0  0  0
166165  1  0  0  0  0
167166  4  0  0  0  0
168167  1  0  0  0  0
169167  4  0  0  0  0
170169  1  0  0  0  0
171169  4  0  0  0  0
172171  1  0  0  0  0
173171  4  0  0  0  0
174173  1  0  0  0  0
175166  4  0  0  0  0
176175  1  0  0  0  0
 40 42  4  0  0  0  0
 60 62  4  0  0  0  0
 62 63  4  0  0  0  0
 64 72  4  0  0  0  0
 69 71  4  0  0  0  0
 71 72  4  0  0  0  0
 78 80  4  0  0  0  0
114116  4  0  0  0  0
125127  4  0  0  0  0
136138  4  0  0  0  0
147149  4  0  0  0  0
160162  4  0  0  0  0
173175  4  0  0  0  0
M  CHG  4   1  -1   4   1   8   1 106  -1
M  END
$$$$
UBIZUE

From CSD data. Using bond type 'Any'. Matching problem. No disordered atoms. Largest molecule.
176186  0  0  0  0  0  0  0  0999 V2000
   17.8325    5.1643   11.0678 B   0  5  0  0  0  0  0  0  0  0  0  0
    9.5274    5.0340   14.1017 Br  0  0  0  0  0  0  0  0  0  0  0  0
   17.8456    5.5451    9.4163 C   0  0  0  0  0  0  0  0  0  0  0  0
   13.9130    8.0067    8.0362 O   0  0  0  0  0  0  0  0  0  0  0  0
   16.6354    6.7687    8.8789 P   0  3  0  0  0  0  0  0  0  0  0  0
   17.0659    7.3565    7.7783 H   0  0  0  0  0  0  0  0  0  0  0  0
   14.6702   12.9810    5.1000 B   0  5  0  0  0  0  0  0  0  0  0  0
    8.8296    9.5754   -0.6870 Br  0  0  0  0  0  0  0  0  0  0  0  0
   18.7588    5.0238    8.5964 C   0  0  0  0  0  0  0  0  0  0  0  0
   19.4068    4.5322    9.0887 H   0  0  0  0  0  0  0  0  0  0  0  0
   14.6001   10.6972    7.0300 P   0  3  0  0  0  0  0  0  0  0  0  0
   15.2031   10.4710    8.1710 H   0  0  0  0  0  0  0  0  0  0  0  0
   11.3001    6.6874    8.2170 C   0  0  0  0  0  0  0  0  0  0  0  0
   10.8086    6.7336    9.6941 C   0  0  0  0  0  0  0  0  0  0  0  0
   11.4948    7.1513   10.2536 H   0  0  0  0  0  0  0  0  0  0  0  0
   10.6405    5.8223   10.0102 H   0  0  0  0  0  0  0  0  0  0  0  0
    9.9804    7.2548    9.7459 H   0  0  0  0  0  0  0  0  0  0  0  0
   10.2108    6.0035    7.3568 C   0  0  0  0  0  0  0  0  0  0  0  0
    9.3785    6.5173    7.4162 H   0  0  0  0  0  0  0  0  0  0  0  0
   10.0561    5.0941    7.6863 H   0  0  0  0  0  0  0  0  0  0  0  0
   10.5061    5.9665    6.4219 H   0  0  0  0  0  0  0  0  0  0  0  0
   14.5637   12.4616    6.6997 C   0  0  0  0  0  0  0  0  0  0  0  0
   14.4519   13.3193    7.7342 C   0  0  0  0  0  0  0  0  0  0  0  0
   14.5814   14.2157    7.4507 H   0  0  0  0  0  0  0  0  0  0  0  0
   19.0753    4.9795    7.1097 C   0  0  0  0  0  0  0  0  0  0  0  0
   19.2049    3.4860    6.7667 C   0  0  0  0  0  0  0  0  0  0  0  0
   19.8790    3.0757    7.3472 H   0  0  0  0  0  0  0  0  0  0  0  0
   19.4793    3.3880    5.8299 H   0  0  0  0  0  0  0  0  0  0  0  0
   18.3419    3.0442    6.9047 H   0  0  0  0  0  0  0  0  0  0  0  0
   20.4614    5.6356    6.9104 C   0  0  0  0  0  0  0  0  0  0  0  0
   20.3916    6.6005    7.0733 H   0  0  0  0  0  0  0  0  0  0  0  0
   20.7672    5.4822    5.9908 H   0  0  0  0  0  0  0  0  0  0  0  0
   21.1032    5.2438    7.5369 H   0  0  0  0  0  0  0  0  0  0  0  0
   18.0634    5.5913    6.1632 C   0  0  0  0  0  0  0  0  0  0  0  0
   17.1665    5.2734    6.3931 H   0  0  0  0  0  0  0  0  0  0  0  0
   18.2770    5.3325    5.2436 H   0  0  0  0  0  0  0  0  0  0  0  0
   18.0919    6.5691    6.2418 H   0  0  0  0  0  0  0  0  0  0  0  0
   16.6944    8.1975    9.9930 C   0  0  0  0  0  0  0  0  0  0  0  0
   15.6995    8.6004   10.9011 C   0  0  0  0  0  0  0  0  0  0  0  0
   15.9416    9.7113   11.7153 C   0  0  0  0  0  0  0  0  0  0  0  0
   15.2614    9.9959   12.3131 H   0  0  0  0  0  0  0  0  0  0  0  0
   17.1439   10.4174   11.6809 C   0  0  0  0  0  0  0  0  0  0  0  0
   18.1199    9.9978   10.7862 C   0  0  0  0  0  0  0  0  0  0  0  0
   18.9454   10.4691   10.7555 H   0  0  0  0  0  0  0  0  0  0  0  0
   17.9400    8.9146    9.9298 C   0  0  0  0  0  0  0  0  0  0  0  0
   14.3791    7.9184   11.0927 C   0  0  0  0  0  0  0  0  0  0  0  0
   13.6973    8.3712   10.5543 H   0  0  0  0  0  0  0  0  0  0  0  0
   14.1260    7.9535   12.0391 H   0  0  0  0  0  0  0  0  0  0  0  0
   14.4495    6.9831   10.8092 H   0  0  0  0  0  0  0  0  0  0  0  0
   17.3825   11.5744   12.6081 C   0  0  0  0  0  0  0  0  0  0  0  0
   16.5302   11.8628   12.9970 H   0  0  0  0  0  0  0  0  0  0  0  0
   17.7796   12.3175   12.1062 H   0  0  0  0  0  0  0  0  0  0  0  0
   17.9908   11.2990   13.3246 H   0  0  0  0  0  0  0  0  0  0  0  0
   19.0648    8.5616    9.0064 C   0  0  0  0  0  0  0  0  0  0  0  0
   19.7708    9.2381    9.0792 H   0  0  0  0  0  0  0  0  0  0  0  0
   18.7330    8.5339    8.0829 H   0  0  0  0  0  0  0  0  0  0  0  0
   19.4249    7.6855    9.2497 H   0  0  0  0  0  0  0  0  0  0  0  0
   15.0406    5.9702    8.5427 C   0  0  0  0  0  0  0  0  0  0  0  0
   15.0428    4.5710    8.5830 C   0  0  0  0  0  0  0  0  0  0  0  0
   15.8520    4.0978    8.7381 H   0  0  0  0  0  0  0  0  0  0  0  0
   13.8578    3.8797    8.3971 C   0  0  0  0  0  0  0  0  0  0  0  0
   13.8625    2.9297    8.3875 H   0  0  0  0  0  0  0  0  0  0  0  0
   12.6815    4.5562    8.2247 C   0  0  0  0  0  0  0  0  0  0  0  0
   11.8761    4.0590    8.1423 H   0  0  0  0  0  0  0  0  0  0  0  0
   12.6225    5.9425    8.1691 C   0  0  0  0  0  0  0  0  0  0  0  0
   13.8312    6.6301    8.2324 C   0  0  0  0  0  0  0  0  0  0  0  0
   12.9606    9.9793    7.1480 C   0  0  0  0  0  0  0  0  0  0  0  0
   11.8744   10.7519    6.7993 C   0  0  0  0  0  0  0  0  0  0  0  0
   12.0007   11.6354    6.4698 H   0  0  0  0  0  0  0  0  0  0  0  0
   10.5890   10.2251    6.9334 C   0  0  0  0  0  0  0  0  0  0  0  0
    9.8319   10.7556    6.7188 H   0  0  0  0  0  0  0  0  0  0  0  0
   10.4224    8.9350    7.3817 C   0  0  0  0  0  0  0  0  0  0  0  0
    9.5419    8.5875    7.4545 H   0  0  0  0  0  0  0  0  0  0  0  0
   11.4968    8.1180    7.7323 C   0  0  0  0  0  0  0  0  0  0  0  0
   12.7624    8.6744    7.6461 C   0  0  0  0  0  0  0  0  0  0  0  0
   15.7401    9.8259    5.9525 C   0  0  0  0  0  0  0  0  0  0  0  0
   15.3588    8.9461    4.9007 C   0  0  0  0  0  0  0  0  0  0  0  0
   16.3907    8.3657    4.1574 C   0  0  0  0  0  0  0  0  0  0  0  0
   16.1585    7.7502    3.4696 H   0  0  0  0  0  0  0  0  0  0  0  0
   17.7157    8.6318    4.3604 C   0  0  0  0  0  0  0  0  0  0  0  0
   18.0648    9.4876    5.4084 C   0  0  0  0  0  0  0  0  0  0  0  0
   18.9848    9.6632    5.5751 H   0  0  0  0  0  0  0  0  0  0  0  0
   17.1036   10.0902    6.2111 C   0  0  0  0  0  0  0  0  0  0  0  0
   13.9363    8.6078    4.5520 C   0  0  0  0  0  0  0  0  0  0  0  0
   13.8935    8.2880    3.6267 H   0  0  0  0  0  0  0  0  0  0  0  0
   13.3770    9.4063    4.6459 H   0  0  0  0  0  0  0  0  0  0  0  0
   13.6099    7.9073    5.1536 H   0  0  0  0  0  0  0  0  0  0  0  0
   18.7797    8.0237    3.4734 C   0  0  0  0  0  0  0  0  0  0  0  0
   18.4494    7.1827    3.0960 H   0  0  0  0  0  0  0  0  0  0  0  0
   19.5845    7.8500    4.0022 H   0  0  0  0  0  0  0  0  0  0  0  0
   18.9918    8.6466    2.7473 H   0  0  0  0  0  0  0  0  0  0  0  0
   17.5573   11.0366    7.3032 C   0  0  0  0  0  0  0  0  0  0  0  0
   18.5185   11.2011    7.2131 H   0  0  0  0  0  0  0  0  0  0  0  0
   17.3741   10.6373    8.1787 H   0  0  0  0  0  0  0  0  0  0  0  0
   17.0715   11.8850    7.2227 H   0  0  0  0  0  0  0  0  0  0  0  0
   14.1771   13.2564    9.2248 C   0  0  0  0  0  0  0  0  0  0  0  0
   13.3910   12.0550    9.7516 C   0  0  0  0  0  0  0  0  0  0  0  0
   12.5782   11.9367    9.2171 H   0  0  0  0  0  0  0  0  0  0  0  0
   13.1449   12.2084   10.6885 H   0  0  0  0  0  0  0  0  0  0  0  0
   13.9452   11.2491    9.6884 H   0  0  0  0  0  0  0  0  0  0  0  0
   15.5205   13.3452    9.9719 C   0  0  0  0  0  0  0  0  0  0  0  0
   16.0545   12.5485    9.7765 H   0  0  0  0  0  0  0  0  0  0  0  0
   15.3555   13.3988   10.9356 H   0  0  0  0  0  0  0  0  0  0  0  0
   16.0046   14.1455    9.6788 H   0  0  0  0  0  0  0  0  0  0  0  0
   13.3560   14.5078    9.5428 C   0  0  0  0  0  0  0  0  0  0  0  0
   13.8524   15.3044    9.2573 H   0  0  0  0  0  0  0  0  0  0  0  0
   13.1929   14.5540   10.5084 H   0  0  0  0  0  0  0  0  0  0  0  0
   12.5005   14.4671    9.0677 H   0  0  0  0  0  0  0  0  0  0  0  0
   14.2362   14.5799    5.0099 C   0  0  0  0  0  0  0  0  0  0  0  0
   13.0470   15.0216    5.5483 C   0  0  0  0  0  0  0  0  0  0  0  0
   12.2380   14.1586    6.2110 F   0  0  0  0  0  0  0  0  0  0  0  0
   12.5647   16.3155    5.4889 C   0  0  0  0  0  0  0  0  0  0  0  0
   11.3862   16.6532    6.0590 F   0  0  0  0  0  0  0  0  0  0  0  0
   13.2921   17.2692    4.8126 C   0  0  0  0  0  0  0  0  0  0  0  0
   12.8753   18.5433    4.7482 F   0  0  0  0  0  0  0  0  0  0  0  0
   14.4735   16.8885    4.2148 C   0  0  0  0  0  0  0  0  0  0  0  0
   15.1702   17.8049    3.5253 F   0  0  0  0  0  0  0  0  0  0  0  0
   14.9046   15.5928    4.3202 C   0  0  0  0  0  0  0  0  0  0  0  0
   16.0760   15.3429    3.6663 F   0  0  0  0  0  0  0  0  0  0  0  0
   16.1993   12.7260    4.5214 C   0  0  0  0  0  0  0  0  0  0  0  0
   16.5568   11.9367    3.4255 C   0  0  0  0  0  0  0  0  0  0  0  0
   15.6307   11.2646    2.7157 F   0  0  0  0  0  0  0  0  0  0  0  0
   17.8595   11.7667    2.9925 C   0  0  0  0  0  0  0  0  0  0  0  0
   18.1228   10.9924    1.9277 F   0  0  0  0  0  0  0  0  0  0  0  0
   18.8916   12.3711    3.6478 C   0  0  0  0  0  0  0  0  0  0  0  0
   20.1645   12.1992    3.2617 F   0  0  0  0  0  0  0  0  0  0  0  0
   18.6022   13.1566    4.7455 C   0  0  0  0  0  0  0  0  0  0  0  0
   19.5940   13.7673    5.4180 F   0  0  0  0  0  0  0  0  0  0  0  0
   17.2884   13.3285    5.1364 C   0  0  0  0  0  0  0  0  0  0  0  0
   17.0754   14.1501    6.1966 F   0  0  0  0  0  0  0  0  0  0  0  0
   18.6340    3.7281   11.3092 C   0  0  0  0  0  0  0  0  0  0  0  0
   19.6306    3.4749   12.2652 C   0  0  0  0  0  0  0  0  0  0  0  0
   20.0007    4.4403   13.1428 F   0  0  0  0  0  0  0  0  0  0  0  0
   20.3158    2.2883   12.4050 C   0  0  0  0  0  0  0  0  0  0  0  0
   21.2951    2.1726   13.3093 F   0  0  0  0  0  0  0  0  0  0  0  0
   20.0019    1.2181   11.5946 C   0  0  0  0  0  0  0  0  0  0  0  0
   20.6555    0.0542   11.7096 F   0  0  0  0  0  0  0  0  0  0  0  0
   18.9969    1.3807   10.6789 C   0  0  0  0  0  0  0  0  0  0  0  0
   18.6389    0.3292    9.8984 F   0  0  0  0  0  0  0  0  0  0  0  0
   18.3562    2.5877   10.5601 C   0  0  0  0  0  0  0  0  0  0  0  0
   17.3454    2.6103    9.6476 F   0  0  0  0  0  0  0  0  0  0  0  0
   18.5405    6.3805   11.9127 C   0  0  0  0  0  0  0  0  0  0  0  0
   19.8654    6.7188   11.6847 C   0  0  0  0  0  0  0  0  0  0  0  0
   20.5839    6.0233   10.7595 F   0  0  0  0  0  0  0  0  0  0  0  0
   20.5662    7.6855   12.3667 C   0  0  0  0  0  0  0  0  0  0  0  0
   21.8648    7.9406   12.0809 F   0  0  0  0  0  0  0  0  0  0  0  0
   19.9405    8.4063   13.3783 C   0  0  0  0  0  0  0  0  0  0  0  0
   20.6191    9.3510   14.0356 F   0  0  0  0  0  0  0  0  0  0  0  0
   18.6300    8.1235   13.6465 C   0  0  0  0  0  0  0  0  0  0  0  0
   17.9834    8.8178   14.5945 F   0  0  0  0  0  0  0  0  0  0  0  0
   17.9677    7.1568   12.9166 C   0  0  0  0  0  0  0  0  0  0  0  0
   16.6673    6.9864   13.2800 F   0  0  0  0  0  0  0  0  0  0  0  0
   16.3532    4.9037   11.5468 C   0  0  0  0  0  0  0  0  0  0  0  0
   15.2315    4.7022   11.9452 C   0  0  0  0  0  0  0  0  0  0  0  0
   13.8903    4.7004   12.4893 C   0  0  0  0  0  0  0  0  0  0  0  0
   12.8673    3.9610   11.9146 C   0  0  0  0  0  0  0  0  0  0  0  0
   13.0575    3.3862   11.1808 H   0  0  0  0  0  0  0  0  0  0  0  0
   11.5739    4.0498   12.3974 C   0  0  0  0  0  0  0  0  0  0  0  0
   10.8746    3.5507   11.9912 H   0  0  0  0  0  0  0  0  0  0  0  0
   11.3062    4.8723   13.4837 C   0  0  0  0  0  0  0  0  0  0  0  0
   12.2983    5.5913   14.0891 C   0  0  0  0  0  0  0  0  0  0  0  0
   12.1082    6.1384   14.8420 H   0  0  0  0  0  0  0  0  0  0  0  0
   13.5934    5.5118   13.5890 C   0  0  0  0  0  0  0  0  0  0  0  0
   14.2866    6.0146   14.0009 H   0  0  0  0  0  0  0  0  0  0  0  0
   13.5788   12.2491    4.2091 C   0  0  0  0  0  0  0  0  0  0  0  0
   12.7332   11.8277    3.4562 C   0  0  0  0  0  0  0  0  0  0  0  0
   11.8082   11.3101    2.4829 C   0  0  0  0  0  0  0  0  0  0  0  0
   12.0981   11.3840    1.1169 C   0  0  0  0  0  0  0  0  0  0  0  0
   12.9086   11.7851    0.8334 H   0  0  0  0  0  0  0  0  0  0  0  0
   11.2105   10.8758    0.1648 C   0  0  0  0  0  0  0  0  0  0  0  0
   11.4165   10.9312   -0.7625 H   0  0  0  0  0  0  0  0  0  0  0  0
   10.0435   10.2972    0.5843 C   0  0  0  0  0  0  0  0  0  0  0  0
    9.7284   10.1974    1.9273 C   0  0  0  0  0  0  0  0  0  0  0  0
    8.9135    9.7945    2.1994 H   0  0  0  0  0  0  0  0  0  0  0  0
   10.6116   10.6909    2.8680 C   0  0  0  0  0  0  0  0  0  0  0  0
   10.4042   10.6096    3.7914 H   0  0  0  0  0  0  0  0  0  0  0  0
  1  3  1  0  0  0  0
  2160  1  0  0  0  0
  3  5  1  0  0  0  0
  4 66  1  0  0  0  0
  5  6  1  0  0  0  0
  7 22  1  0  0  0  0
  8172  1  0  0  0  0
  9  3  2  0  0  0  0
 10  9  1  0  0  0  0
 11 12  1  0  0  0  0
 13 14  1  0  0  0  0
 14 15  1  0  0  0  0
 16 14  1  0  0  0  0
 17 14  1  0  0  0  0
 18 13  1  0  0  0  0
 19 18  1  0  0  0  0
 20 18  1  0  0  0  0
 21 18  1  0  0  0  0
 22 11  1  0  0  0  0
 23 22  2  0  0  0  0
 24 23  1  0  0  0  0
 25  9  1  0  0  0  0
 26 25  1  0  0  0  0
 27 26  1  0  0  0  0
 28 26  1  0  0  0  0
 29 26  1  0  0  0  0
 30 25  1  0  0  0  0
 31 30  1  0  0  0  0
 32 30  1  0  0  0  0
 33 30  1  0  0  0  0
 34 25  1  0  0  0  0
 35 34  1  0  0  0  0
 36 34  1  0  0  0  0
 37 34  1  0  0  0  0
 38  5  1  0  0  0  0
 39 38  4  0  0  0  0
 40 39  4  0  0  0  0
 41 40  1  0  0  0  0
 42 40  4  0  0  0  0
 43 42  4  0  0  0  0
 44 43  1  0  0  0  0
 45 38  4  0  0  0  0
 46 39  1  0  0  0  0
 47 46  1  0  0  0  0
 48 46  1  0  0  0  0
 49 46  1  0  0  0  0
 50 42  1  0  0  0  0
 51 50  1  0  0  0  0
 52 50  1  0  0  0  0
 53 50  1  0  0  0  0
 54 45  1  0  0  0  0
 55 54  1  0  0  0  0
 56 54  1  0  0  0  0
 57 54  1  0  0  0  0
 58  5  1  0  0  0  0
 59 58  4  0  0  0  0
 60 59  1  0  0  0  0
 61 59  4  0  0  0  0
 62 61  1  0  0  0  0
 63 61  4  0  0  0  0
 64 63  1  0  0  0  0
 65 13  1  0  0  0  0
 66 58  4  0  0  0  0
 67 11  1  0  0  0  0
 68 67  4  0  0  0  0
 69 68  1  0  0  0  0
 70 68  4  0  0  0  0
 71 70  1  0  0  0  0
 72 70  4  0  0  0  0
 73 72  1  0  0  0  0
 74 13  1  0  0  0  0
 75  4  1  0  0  0  0
 76 11  1  0  0  0  0
 77 76  4  0  0  0  0
 78 77  4  0  0  0  0
 79 78  1  0  0  0  0
 80 78  4  0  0  0  0
 81 80  4  0  0  0  0
 82 81  1  0  0  0  0
 83 76  4  0  0  0  0
 84 77  1  0  0  0  0
 85 84  1  0  0  0  0
 86 84  1  0  0  0  0
 87 84  1  0  0  0  0
 88 80  1  0  0  0  0
 89 88  1  0  0  0  0
 90 88  1  0  0  0  0
 91 88  1  0  0  0  0
 92 83  1  0  0  0  0
 93 92  1  0  0  0  0
 94 92  1  0  0  0  0
 95 92  1  0  0  0  0
 96 23  1  0  0  0  0
 97 96  1  0  0  0  0
 98 97  1  0  0  0  0
 99 97  1  0  0  0  0
100 97  1  0  0  0  0
101 96  1  0  0  0  0
102101  1  0  0  0  0
103101  1  0  0  0  0
104101  1  0  0  0  0
105 96  1  0  0  0  0
106105  1  0  0  0  0
107105  1  0  0  0  0
108105  1  0  0  0  0
109  7  1  0  0  0  0
110109  4  0  0  0  0
111110  1  0  0  0  0
112110  4  0  0  0  0
113112  1  0  0  0  0
114112  4  0  0  0  0
115114  1  0  0  0  0
116114  4  0  0  0  0
117116  1  0  0  0  0
118109  4  0  0  0  0
119118  1  0  0  0  0
120  7  1  0  0  0  0
121120  4  0  0  0  0
122121  1  0  0  0  0
123121  4  0  0  0  0
124123  1  0  0  0  0
125123  4  0  0  0  0
126125  1  0  0  0  0
127125  4  0  0  0  0
128127  1  0  0  0  0
129120  4  0  0  0  0
130129  1  0  0  0  0
131  1  1  0  0  0  0
132131  4  0  0  0  0
133132  1  0  0  0  0
134132  4  0  0  0  0
135134  1  0  0  0  0
136134  4  0  0  0  0
137136  1  0  0  0  0
138136  4  0  0  0  0
139138  1  0  0  0  0
140131  4  0  0  0  0
141140  1  0  0  0  0
142  1  1  0  0  0  0
143142  4  0  0  0  0
144143  1  0  0  0  0
145143  4  0  0  0  0
146145  1  0  0  0  0
147145  4  0  0  0  0
148147  1  0  0  0  0
149147  4  0  0  0  0
150149  1  0  0  0  0
151142  4  0  0  0  0
152151  1  0  0  0  0
153  1  1  0  0  0  0
154153  3  0  0  0  0
155154  1  0  0  0  0
156155  4  0  0  0  0
157156  1  0  0  0  0
158156  4  0  0  0  0
159158  1  0  0  0  0
160158  4  0  0  0  0
161160  4  0  0  0  0
162161  1  0  0  0  0
163155  4  0  0  0  0
164163  1  0  0  0  0
165  7  1  0  0  0  0
166165  3  0  0  0  0
167166  1  0  0  0  0
168167  4  0  0  0  0
169168  1  0  0  0  0
170168  4  0  0  0  0
171170  1  0  0  0  0
172170  4  0  0  0  0
173172  4  0  0  0  0
174173  1  0  0  0  0
175167  4  0  0  0  0
176175  1  0  0  0  0
 43 45  4  0  0  0  0
 63 65  4  0  0  0  0
 65 66  4  0  0  0  0
 67 75  4  0  0  0  0
 72 74  4  0  0  0  0
 74 75  4  0  0  0  0
 81 83  4  0  0  0  0
116118  4  0  0  0  0
127129  4  0  0  0  0
138140  4  0  0  0  0
149151  4  0  0  0  0
161163  4  0  0  0  0
173175  4  0  0  0  0
M  CHG  4   1  -1   5   1   7  -1  11   1
M  END
$$$$
UBOBAS

From CSD data. Using bond type 'Any'. Matching problem. No disordered atoms. Largest molecule.
157167  0  0  0  0  0  0  0  0999 V2000
   11.0516    7.2043    7.5090 P   0  0  0  0  0  0  0  0  0  0  0  0
    9.6156   10.4204    4.5263 P   0  3  0  0  0  0  0  0  0  0  0  0
    9.8509    9.8484    5.6386 H   0  0  0  0  0  0  0  0  0  0  0  0
   11.3996    9.2285    2.3987 B   0  5  0  0  0  0  0  0  0  0  0  0
   12.0668    5.1154    5.4754 B   0  5  0  0  0  0  0  0  0  0  0  0
   12.3868    6.1401    6.7518 C   0  0  0  0  0  0  0  0  0  0  0  0
   11.4829    5.9996    4.2864 N   0  3  0  0  0  0  0  0  0  0  0  0
    8.8569    7.6762    5.5053 O   0  0  0  0  0  0  0  0  0  0  0  0
   13.6690    6.3934    7.0619 C   0  0  0  0  0  0  0  0  0  0  0  0
   14.2490    5.7011    6.7681 H   0  0  0  0  0  0  0  0  0  0  0  0
   11.1518    7.7715    2.9658 N   0  0  0  0  0  0  0  0  0  0  0  0
    6.2783    6.3183    5.0947 C   0  0  0  0  0  0  0  0  0  0  0  0
    4.8849    6.6663    5.6966 C   0  0  0  0  0  0  0  0  0  0  0  0
    4.9794    7.4072    6.3312 H   0  0  0  0  0  0  0  0  0  0  0  0
    4.5254    5.8823    6.1626 H   0  0  0  0  0  0  0  0  0  0  0  0
    4.2742    6.9276    4.9768 H   0  0  0  0  0  0  0  0  0  0  0  0
    6.1362    5.1170    4.1555 C   0  0  0  0  0  0  0  0  0  0  0  0
    5.5172    5.3404    3.4303 H   0  0  0  0  0  0  0  0  0  0  0  0
    5.7885    4.3497    4.6577 H   0  0  0  0  0  0  0  0  0  0  0  0
    7.0126    4.8921    3.7802 H   0  0  0  0  0  0  0  0  0  0  0  0
   11.1621   10.3918    3.5790 C   0  0  0  0  0  0  0  0  0  0  0  0
   12.1031   11.3220    3.8092 C   0  0  0  0  0  0  0  0  0  0  0  0
   12.7776   11.2934    3.1420 H   0  0  0  0  0  0  0  0  0  0  0  0
   14.4337    7.5179    7.7708 C   0  0  0  0  0  0  0  0  0  0  0  0
   14.7528    7.1871    9.2412 C   0  0  0  0  0  0  0  0  0  0  0  0
   15.0944    6.2708    9.3028 H   0  0  0  0  0  0  0  0  0  0  0  0
   13.9374    7.2685    9.7778 H   0  0  0  0  0  0  0  0  0  0  0  0
   15.4302    7.8102    9.5766 H   0  0  0  0  0  0  0  0  0  0  0  0
   15.7759    7.6310    7.0310 C   0  0  0  0  0  0  0  0  0  0  0  0
   15.6105    7.8394    6.0864 H   0  0  0  0  0  0  0  0  0  0  0  0
   16.2582    6.7819    7.0981 H   0  0  0  0  0  0  0  0  0  0  0  0
   16.3121    8.3451    7.4353 H   0  0  0  0  0  0  0  0  0  0  0  0
   13.7517    8.8878    7.6638 C   0  0  0  0  0  0  0  0  0  0  0  0
   14.3905    9.5911    7.9031 H   0  0  0  0  0  0  0  0  0  0  0  0
   12.9859    8.9198    8.2748 H   0  0  0  0  0  0  0  0  0  0  0  0
   13.4418    9.0274    6.7446 H   0  0  0  0  0  0  0  0  0  0  0  0
   11.2294    7.2030    9.3644 C   0  0  0  0  0  0  0  0  0  0  0  0
   11.7193    6.1678   10.1876 C   0  0  0  0  0  0  0  0  0  0  0  0
   11.7967    6.3621   11.5691 C   0  0  0  0  0  0  0  0  0  0  0  0
   12.1485    5.6612   12.1058 H   0  0  0  0  0  0  0  0  0  0  0  0
   11.3840    7.5370   12.1982 C   0  0  0  0  0  0  0  0  0  0  0  0
   10.8994    8.5380   11.3860 C   0  0  0  0  0  0  0  0  0  0  0  0
   10.6130    9.3528   11.7831 H   0  0  0  0  0  0  0  0  0  0  0  0
   10.8120    8.3979    9.9954 C   0  0  0  0  0  0  0  0  0  0  0  0
   12.1748    4.8206    9.6672 C   0  0  0  0  0  0  0  0  0  0  0  0
   11.7018    4.6142    8.8350 H   0  0  0  0  0  0  0  0  0  0  0  0
   11.9789    4.1301   10.3362 H   0  0  0  0  0  0  0  0  0  0  0  0
   13.1394    4.8463    9.4986 H   0  0  0  0  0  0  0  0  0  0  0  0
   11.4187    7.6633   13.6886 C   0  0  0  0  0  0  0  0  0  0  0  0
   11.6486    8.5841   13.9333 H   0  0  0  0  0  0  0  0  0  0  0  0
   12.0906    7.0511   14.0530 H   0  0  0  0  0  0  0  0  0  0  0  0
   10.5389    7.4378   14.0566 H   0  0  0  0  0  0  0  0  0  0  0  0
   10.2259    9.5539    9.2248 C   0  0  0  0  0  0  0  0  0  0  0  0
    9.9789   10.2699    9.8467 H   0  0  0  0  0  0  0  0  0  0  0  0
    9.4281    9.2535    8.7407 H   0  0  0  0  0  0  0  0  0  0  0  0
   10.8879    9.8900    8.5848 H   0  0  0  0  0  0  0  0  0  0  0  0
    9.4263    6.2979    7.3556 C   0  0  0  0  0  0  0  0  0  0  0  0
    9.0256    5.3700    8.3092 C   0  0  0  0  0  0  0  0  0  0  0  0
    9.6098    5.1507    9.0254 H   0  0  0  0  0  0  0  0  0  0  0  0
    7.7664    4.7553    8.2258 C   0  0  0  0  0  0  0  0  0  0  0  0
    7.4967    4.1241    8.8840 H   0  0  0  0  0  0  0  0  0  0  0  0
    6.9234    5.0717    7.1851 C   0  0  0  0  0  0  0  0  0  0  0  0
    6.0830    4.6328    7.1253 H   0  0  0  0  0  0  0  0  0  0  0  0
    7.2545    6.0033    6.2297 C   0  0  0  0  0  0  0  0  0  0  0  0
    8.4983    6.6412    6.3656 C   0  0  0  0  0  0  0  0  0  0  0  0
    8.2916    9.3561    3.9380 C   0  0  0  0  0  0  0  0  0  0  0  0
    7.4320    9.8801    2.9607 C   0  0  0  0  0  0  0  0  0  0  0  0
    7.6465   10.7032    2.5401 H   0  0  0  0  0  0  0  0  0  0  0  0
    6.2868    9.2174    2.6054 C   0  0  0  0  0  0  0  0  0  0  0  0
    5.7378    9.5436    1.9019 H   0  0  0  0  0  0  0  0  0  0  0  0
    5.9421    8.0590    3.2871 C   0  0  0  0  0  0  0  0  0  0  0  0
    5.1363    7.6127    3.0550 H   0  0  0  0  0  0  0  0  0  0  0  0
    6.7412    7.5232    4.3114 C   0  0  0  0  0  0  0  0  0  0  0  0
    7.9469    8.1620    4.5762 C   0  0  0  0  0  0  0  0  0  0  0  0
    8.7306   11.9920    4.7720 C   0  0  0  0  0  0  0  0  0  0  0  0
    8.0408   12.1447    6.0012 C   0  0  0  0  0  0  0  0  0  0  0  0
    7.2500   13.2679    6.1898 C   0  0  0  0  0  0  0  0  0  0  0  0
    6.7904   13.3705    7.0147 H   0  0  0  0  0  0  0  0  0  0  0  0
    7.1067   14.2473    5.2180 C   0  0  0  0  0  0  0  0  0  0  0  0
    7.7788   14.0797    4.0214 C   0  0  0  0  0  0  0  0  0  0  0  0
    7.6849   14.7440    3.3487 H   0  0  0  0  0  0  0  0  0  0  0  0
    8.5921   12.9666    3.7621 C   0  0  0  0  0  0  0  0  0  0  0  0
    8.1384   11.1668    7.1217 C   0  0  0  0  0  0  0  0  0  0  0  0
    7.5778   11.4679    7.8687 H   0  0  0  0  0  0  0  0  0  0  0  0
    9.0701   11.1016    7.4190 H   0  0  0  0  0  0  0  0  0  0  0  0
    7.8299   10.2873    6.8171 H   0  0  0  0  0  0  0  0  0  0  0  0
    6.2454   15.4548    5.4718 C   0  0  0  0  0  0  0  0  0  0  0  0
    5.3071   15.1783    5.5407 H   0  0  0  0  0  0  0  0  0  0  0  0
    6.3451   16.0906    4.7339 H   0  0  0  0  0  0  0  0  0  0  0  0
    6.5214   15.8828    6.3094 H   0  0  0  0  0  0  0  0  0  0  0  0
    9.2137   12.9107    2.3914 C   0  0  0  0  0  0  0  0  0  0  0  0
    9.8756   12.1885    2.3606 H   0  0  0  0  0  0  0  0  0  0  0  0
    9.6526   13.7645    2.1956 H   0  0  0  0  0  0  0  0  0  0  0  0
    8.5162   12.7409    1.7224 H   0  0  0  0  0  0  0  0  0  0  0  0
   12.3964   12.4045    4.8318 C   0  0  0  0  0  0  0  0  0  0  0  0
   11.7339   12.1967    6.1916 C   0  0  0  0  0  0  0  0  0  0  0  0
   10.7719   12.3685    6.1173 H   0  0  0  0  0  0  0  0  0  0  0  0
   12.1268   12.8160    6.8425 H   0  0  0  0  0  0  0  0  0  0  0  0
   11.8798   11.2755    6.4889 H   0  0  0  0  0  0  0  0  0  0  0  0
   12.0244   13.7786    4.2534 C   0  0  0  0  0  0  0  0  0  0  0  0
   12.3896   13.8610    3.3469 H   0  0  0  0  0  0  0  0  0  0  0  0
   12.3994   14.4834    4.8209 H   0  0  0  0  0  0  0  0  0  0  0  0
   11.0488   13.8679    4.2226 H   0  0  0  0  0  0  0  0  0  0  0  0
   13.9205   12.3856    5.0494 C   0  0  0  0  0  0  0  0  0  0  0  0
   14.1882   11.5153    5.4120 H   0  0  0  0  0  0  0  0  0  0  0  0
   14.1689   13.0925    5.6821 H   0  0  0  0  0  0  0  0  0  0  0  0
   14.3758   12.5371    4.1954 H   0  0  0  0  0  0  0  0  0  0  0  0
   11.0380    3.9087    5.9069 C   0  0  0  0  0  0  0  0  0  0  0  0
   11.4081    3.0471    6.9041 C   0  0  0  0  0  0  0  0  0  0  0  0
   12.6833    3.0837    7.3799 F   0  0  0  0  0  0  0  0  0  0  0  0
   10.5702    2.0927    7.4716 C   0  0  0  0  0  0  0  0  0  0  0  0
   11.0042    1.3399    8.4916 F   0  0  0  0  0  0  0  0  0  0  0  0
    9.3051    1.9590    6.9640 C   0  0  0  0  0  0  0  0  0  0  0  0
    8.4638    1.0257    7.5006 F   0  0  0  0  0  0  0  0  0  0  0  0
    8.8987    2.7155    5.9106 C   0  0  0  0  0  0  0  0  0  0  0  0
    7.6647    2.5395    5.3920 F   0  0  0  0  0  0  0  0  0  0  0  0
    9.7149    3.6836    5.3830 C   0  0  0  0  0  0  0  0  0  0  0  0
    9.2434    4.4067    4.3834 F   0  0  0  0  0  0  0  0  0  0  0  0
   13.4564    4.4681    4.7702 C   0  0  0  0  0  0  0  0  0  0  0  0
   13.7532    3.1264    4.5236 C   0  0  0  0  0  0  0  0  0  0  0  0
   12.9090    2.1324    4.8882 F   0  0  0  0  0  0  0  0  0  0  0  0
   14.8921    2.6770    3.8727 C   0  0  0  0  0  0  0  0  0  0  0  0
   15.0876    1.3620    3.6776 F   0  0  0  0  0  0  0  0  0  0  0  0
   15.8131    3.5787    3.3959 C   0  0  0  0  0  0  0  0  0  0  0  0
   16.9196    3.1592    2.7589 F   0  0  0  0  0  0  0  0  0  0  0  0
   15.5652    4.9224    3.5772 C   0  0  0  0  0  0  0  0  0  0  0  0
   16.4339    5.8344    3.1092 F   0  0  0  0  0  0  0  0  0  0  0  0
   14.4194    5.3109    4.2244 C   0  0  0  0  0  0  0  0  0  0  0  0
   14.2355    6.6566    4.2815 F   0  0  0  0  0  0  0  0  0  0  0  0
   10.4316    9.6216    1.1114 C   0  0  0  0  0  0  0  0  0  0  0  0
    9.2976    8.9884    0.6763 C   0  0  0  0  0  0  0  0  0  0  0  0
    8.8436    7.8680    1.2581 F   0  0  0  0  0  0  0  0  0  0  0  0
    8.4901    9.4791   -0.3771 C   0  0  0  0  0  0  0  0  0  0  0  0
    7.3904    8.8059   -0.7347 F   0  0  0  0  0  0  0  0  0  0  0  0
    8.8631   10.6351   -1.0081 C   0  0  0  0  0  0  0  0  0  0  0  0
    8.0775   11.1154   -2.0094 F   0  0  0  0  0  0  0  0  0  0  0  0
    9.9704   11.2976   -0.6219 C   0  0  0  0  0  0  0  0  0  0  0  0
   10.3176   12.4515   -1.2253 F   0  0  0  0  0  0  0  0  0  0  0  0
   10.7649   10.7836    0.4098 C   0  0  0  0  0  0  0  0  0  0  0  0
   11.8315   11.5040    0.7218 F   0  0  0  0  0  0  0  0  0  0  0  0
   13.0004    9.1251    1.9436 C   0  0  0  0  0  0  0  0  0  0  0  0
   14.0433    9.0709    2.8646 C   0  0  0  0  0  0  0  0  0  0  0  0
   13.7769    9.2055    4.1883 F   0  0  0  0  0  0  0  0  0  0  0  0
   15.3606    8.8665    2.5510 C   0  0  0  0  0  0  0  0  0  0  0  0
   16.3013    8.8400    3.5081 F   0  0  0  0  0  0  0  0  0  0  0  0
   15.7328    8.6718    1.2311 C   0  0  0  0  0  0  0  0  0  0  0  0
   17.0175    8.4593    0.9136 F   0  0  0  0  0  0  0  0  0  0  0  0
   14.7527    8.6778    0.2756 C   0  0  0  0  0  0  0  0  0  0  0  0
   15.0799    8.4700   -1.0146 F   0  0  0  0  0  0  0  0  0  0  0  0
   13.4409    8.8937    0.6309 C   0  0  0  0  0  0  0  0  0  0  0  0
   12.5631    8.8341   -0.3878 F   0  0  0  0  0  0  0  0  0  0  0  0
   11.4098    7.3409    4.2172 C   0  0  0  0  0  0  0  0  0  0  0  0
   11.5259    7.9175    4.9642 H   0  0  0  0  0  0  0  0  0  0  0  0
   11.2989    5.5546    2.9807 C   0  0  0  0  0  0  0  0  0  0  0  0
   11.3102    4.6469    2.7015 H   0  0  0  0  0  0  0  0  0  0  0  0
   11.1022    6.6150    2.1757 C   0  0  0  0  0  0  0  0  0  0  0  0
   10.9561    6.5862    1.2383 H   0  0  0  0  0  0  0  0  0  0  0  0
  1  6  1  0  0  0  0
  2  3  1  0  0  0  0
  4 11  1  0  0  0  0
  5  6  1  0  0  0  0
  6  9  2  0  0  0  0
  7  5  1  0  0  0  0
  8 65  1  0  0  0  0
  9 10  1  0  0  0  0
 11152  1  0  0  0  0
 12 13  1  0  0  0  0
 13 14  1  0  0  0  0
 15 13  1  0  0  0  0
 16 13  1  0  0  0  0
 17 12  1  0  0  0  0
 18 17  1  0  0  0  0
 19 17  1  0  0  0  0
 20 17  1  0  0  0  0
 21  2  1  0  0  0  0
 22 21  2  0  0  0  0
 23 22  1  0  0  0  0
 24  9  1  0  0  0  0
 25 24  1  0  0  0  0
 26 25  1  0  0  0  0
 27 25  1  0  0  0  0
 28 25  1  0  0  0  0
 29 24  1  0  0  0  0
 30 29  1  0  0  0  0
 31 29  1  0  0  0  0
 32 29  1  0  0  0  0
 33 24  1  0  0  0  0
 34 33  1  0  0  0  0
 35 33  1  0  0  0  0
 36 33  1  0  0  0  0
 37  1  1  0  0  0  0
 38 37  4  0  0  0  0
 39 38  4  0  0  0  0
 40 39  1  0  0  0  0
 41 39  4  0  0  0  0
 42 41  4  0  0  0  0
 43 42  1  0  0  0  0
 44 37  4  0  0  0  0
 45 38  1  0  0  0  0
 46 45  1  0  0  0  0
 47 45  1  0  0  0  0
 48 45  1  0  0  0  0
 49 41  1  0  0  0  0
 50 49  1  0  0  0  0
 51 49  1  0  0  0  0
 52 49  1  0  0  0  0
 53 44  1  0  0  0  0
 54 53  1  0  0  0  0
 55 53  1  0  0  0  0
 56 53  1  0  0  0  0
 57  1  1  0  0  0  0
 58 57  4  0  0  0  0
 59 58  1  0  0  0  0
 60 58  4  0  0  0  0
 61 60  1  0  0  0  0
 62 60  4  0  0  0  0
 63 62  1  0  0  0  0
 64 12  1  0  0  0  0
 65 57  4  0  0  0  0
 66  2  1  0  0  0  0
 67 66  4  0  0  0  0
 68 67  1  0  0  0  0
 69 67  4  0  0  0  0
 70 69  1  0  0  0  0
 71 69  4  0  0  0  0
 72 71  1  0  0  0  0
 73 12  1  0  0  0  0
 74  8  1  0  0  0  0
 75  2  1  0  0  0  0
 76 75  4  0  0  0  0
 77 76  4  0  0  0  0
 78 77  1  0  0  0  0
 79 77  4  0  0  0  0
 80 79  4  0  0  0  0
 81 80  1  0  0  0  0
 82 75  4  0  0  0  0
 83 76  1  0  0  0  0
 84 83  1  0  0  0  0
 85 83  1  0  0  0  0
 86 83  1  0  0  0  0
 87 79  1  0  0  0  0
 88 87  1  0  0  0  0
 89 87  1  0  0  0  0
 90 87  1  0  0  0  0
 91 82  1  0  0  0  0
 92 91  1  0  0  0  0
 93 91  1  0  0  0  0
 94 91  1  0  0  0  0
 95 22  1  0  0  0  0
 96 95  1  0  0  0  0
 97 96  1  0  0  0  0
 98 96  1  0  0  0  0
 99 96  1  0  0  0  0
100 95  1  0  0  0  0
101100  1  0  0  0  0
102100  1  0  0  0  0
103100  1  0  0  0  0
104 95  1  0  0  0  0
105104  1  0  0  0  0
106104  1  0  0  0  0
107104  1  0  0  0  0
108  5  1  0  0  0  0
109108  4  0  0  0  0
110109  1  0  0  0  0
111109  4  0  0  0  0
112111  1  0  0  0  0
113111  4  0  0  0  0
114113  1  0  0  0  0
115113  4  0  0  0  0
116115  1  0  0  0  0
117108  4  0  0  0  0
118117  1  0  0  0  0
119  5  1  0  0  0  0
120119  4  0  0  0  0
121120  1  0  0  0  0
122120  4  0  0  0  0
123122  1  0  0  0  0
124122  4  0  0  0  0
125124  1  0  0  0  0
126124  4  0  0  0  0
127126  1  0  0  0  0
128119  4  0  0  0  0
129128  1  0  0  0  0
130  4  1  0  0  0  0
131130  4  0  0  0  0
132131  1  0  0  0  0
133131  4  0  0  0  0
134133  1  0  0  0  0
135133  4  0  0  0  0
136135  1  0  0  0  0
137135  4  0  0  0  0
138137  1  0  0  0  0
139130  4  0  0  0  0
140139  1  0  0  0  0
141  4  1  0  0  0  0
142141  4  0  0  0  0
143142  1  0  0  0  0
144142  4  0  0  0  0
145144  1  0  0  0  0
146144  4  0  0  0  0
147146  1  0  0  0  0
148146  4  0  0  0  0
149148  1  0  0  0  0
150141  4  0  0  0  0
151150  1  0  0  0  0
152  7  2  0  0  0  0
153152  1  0  0  0  0
154  7  1  0  0  0  0
155154  1  0  0  0  0
156 11  1  0  0  0  0
157156  1  0  0  0  0
  4 21  1  0  0  0  0
 42 44  4  0  0  0  0
 62 64  4  0  0  0  0
 64 65  4  0  0  0  0
 66 74  4  0  0  0  0
 71 73  4  0  0  0  0
 73 74  4  0  0  0  0
 80 82  4  0  0  0  0
115117  4  0  0  0  0
126128  4  0  0  0  0
137139  4  0  0  0  0
148150  4  0  0  0  0
154156  2  0  0  0  0
M  CHG  4   2   1   4  -1   5  -1   7   1
M  END
$$$$
UBOBEW

From CSD data. Using bond type 'Any'. Matching problem. No disordered atoms. Largest molecule.
158169  0  0  0  0  0  0  0  0999 V2000
    2.8863    2.8821    5.7696 P   0  3  0  0  0  0  0  0  0  0  0  0
    4.0261    8.0937    6.0469 P   0  3  0  0  0  0  0  0  0  0  0  0
    2.8466    5.6363    4.1712 O   0  0  0  0  0  0  0  0  0  0  0  0
    5.4071    2.7827    5.5814 N   0  0  0  0  0  0  0  0  0  0  0  0
    6.2731    3.0226    5.4755 H   0  0  0  0  0  0  0  0  0  0  0  0
    6.5957    8.0019    5.7446 N   0  0  0  0  0  0  0  0  0  0  0  0
    7.4053    7.5401    5.6853 H   0  0  0  0  0  0  0  0  0  0  0  0
    3.5002    1.1754    5.8552 C   0  0  0  0  0  0  0  0  0  0  0  0
    2.8813    0.0365    6.1741 C   0  0  0  0  0  0  0  0  0  0  0  0
    3.4932   -0.6906    6.1993 H   0  0  0  0  0  0  0  0  0  0  0  0
    2.0699    5.9547    1.3468 C   0  0  0  0  0  0  0  0  0  0  0  0
    3.0177    5.9262    0.1154 C   0  0  0  0  0  0  0  0  0  0  0  0
    3.0062    6.8014   -0.3252 H   0  0  0  0  0  0  0  0  0  0  0  0
    2.7160    5.2382   -0.5140 H   0  0  0  0  0  0  0  0  0  0  0  0
    3.9302    5.7217    0.4112 H   0  0  0  0  0  0  0  0  0  0  0  0
    0.6274    6.1862    0.8874 C   0  0  0  0  0  0  0  0  0  0  0  0
    0.0361    6.2136    1.6678 H   0  0  0  0  0  0  0  0  0  0  0  0
    0.3537    5.4570    0.2937 H   0  0  0  0  0  0  0  0  0  0  0  0
    0.5706    7.0381    0.4049 H   0  0  0  0  0  0  0  0  0  0  0  0
    4.8343    9.7008    6.1909 C   0  0  0  0  0  0  0  0  0  0  0  0
    4.3777   10.8415    6.7384 C   0  0  0  0  0  0  0  0  0  0  0  0
    5.0804   11.4759    6.8097 H   0  0  0  0  0  0  0  0  0  0  0  0
    1.4758   -0.4251    6.5055 C   0  0  0  0  0  0  0  0  0  0  0  0
    1.3348   -0.3105    8.0559 C   0  0  0  0  0  0  0  0  0  0  0  0
    0.4382   -0.5972    8.3265 H   0  0  0  0  0  0  0  0  0  0  0  0
    2.0040   -0.8805    8.4880 H   0  0  0  0  0  0  0  0  0  0  0  0
    1.4740    0.6208    8.3286 H   0  0  0  0  0  0  0  0  0  0  0  0
    0.3490    0.3454    5.8405 C   0  0  0  0  0  0  0  0  0  0  0  0
   -0.5122   -0.0307    6.1195 H   0  0  0  0  0  0  0  0  0  0  0  0
    0.3965    1.2865    6.1069 H   0  0  0  0  0  0  0  0  0  0  0  0
    0.4362    0.2748    4.8671 H   0  0  0  0  0  0  0  0  0  0  0  0
    1.4013   -1.9031    6.1321 C   0  0  0  0  0  0  0  0  0  0  0  0
    0.5045   -2.2457    6.3293 H   0  0  0  0  0  0  0  0  0  0  0  0
    1.5868   -2.0090    5.1755 H   0  0  0  0  0  0  0  0  0  0  0  0
    2.0647   -2.4043    6.6503 H   0  0  0  0  0  0  0  0  0  0  0  0
    1.6136    3.4234    6.9576 C   0  0  0  0  0  0  0  0  0  0  0  0
    0.3288    3.8525    6.5832 C   0  0  0  0  0  0  0  0  0  0  0  0
   -0.5993    4.1235    7.6048 C   0  0  0  0  0  0  0  0  0  0  0  0
   -1.4729    4.4057    7.3615 H   0  0  0  0  0  0  0  0  0  0  0  0
   -0.2947    3.9986    8.9391 C   0  0  0  0  0  0  0  0  0  0  0  0
    0.9665    3.5906    9.2873 C   0  0  0  0  0  0  0  0  0  0  0  0
    1.1827    3.4996   10.2062 H   0  0  0  0  0  0  0  0  0  0  0  0
    1.9500    3.2989    8.3265 C   0  0  0  0  0  0  0  0  0  0  0  0
   -0.1972    3.9947    5.1797 C   0  0  0  0  0  0  0  0  0  0  0  0
   -1.1542    4.2065    5.2090 H   0  0  0  0  0  0  0  0  0  0  0  0
   -0.0640    3.1546    4.6930 H   0  0  0  0  0  0  0  0  0  0  0  0
    0.2825    4.7166    4.7223 H   0  0  0  0  0  0  0  0  0  0  0  0
   -1.3471    4.2893   10.0132 C   0  0  0  0  0  0  0  0  0  0  0  0
   -1.5859    5.2396    9.9880 H   0  0  0  0  0  0  0  0  0  0  0  0
   -0.9820    4.0690   10.8964 H   0  0  0  0  0  0  0  0  0  0  0  0
   -2.1445    3.7476    9.8454 H   0  0  0  0  0  0  0  0  0  0  0  0
    3.2947    2.8523    8.8447 C   0  0  0  0  0  0  0  0  0  0  0  0
    3.6213    2.1043    8.3013 H   0  0  0  0  0  0  0  0  0  0  0  0
    3.2072    2.5656    9.7761 H   0  0  0  0  0  0  0  0  0  0  0  0
    3.9292    3.5962    8.7901 H   0  0  0  0  0  0  0  0  0  0  0  0
    2.4866    3.2529    4.0447 C   0  0  0  0  0  0  0  0  0  0  0  0
    2.5096    4.5106    3.3958 C   0  0  0  0  0  0  0  0  0  0  0  0
    2.1461    4.6247    2.0735 C   0  0  0  0  0  0  0  0  0  0  0  0
    1.8062    3.4576    1.3678 C   0  0  0  0  0  0  0  0  0  0  0  0
    1.5858    3.5243    0.4448 H   0  0  0  0  0  0  0  0  0  0  0  0
    1.7832    2.2348    1.9657 C   0  0  0  0  0  0  0  0  0  0  0  0
    1.5239    1.4615    1.4769 H   0  0  0  0  0  0  0  0  0  0  0  0
    2.1406    2.1355    3.2895 C   0  0  0  0  0  0  0  0  0  0  0  0
    2.1529    1.2789    3.7007 H   0  0  0  0  0  0  0  0  0  0  0  0
    3.2394    7.9971    4.3951 C   0  0  0  0  0  0  0  0  0  0  0  0
    2.8597    6.8887    3.5849 C   0  0  0  0  0  0  0  0  0  0  0  0
    2.4912    7.0856    2.2804 C   0  0  0  0  0  0  0  0  0  0  0  0
    2.4601    8.3697    1.7559 C   0  0  0  0  0  0  0  0  0  0  0  0
    2.2239    8.4889    0.8433 H   0  0  0  0  0  0  0  0  0  0  0  0
    2.7610    9.4790    2.5175 C   0  0  0  0  0  0  0  0  0  0  0  0
    2.7026   10.3550    2.1566 H   0  0  0  0  0  0  0  0  0  0  0  0
    3.1489    9.2720    3.8161 C   0  0  0  0  0  0  0  0  0  0  0  0
    3.3679   10.0295    4.3510 H   0  0  0  0  0  0  0  0  0  0  0  0
    3.0231    7.6598    7.4936 C   0  0  0  0  0  0  0  0  0  0  0  0
    3.6805    7.6570    8.7440 C   0  0  0  0  0  0  0  0  0  0  0  0
    2.9194    7.4516    9.8894 C   0  0  0  0  0  0  0  0  0  0  0  0
    3.3601    7.4238   10.7307 H   0  0  0  0  0  0  0  0  0  0  0  0
    1.5568    7.2892    9.8517 C   0  0  0  0  0  0  0  0  0  0  0  0
    0.9308    7.2534    8.6202 C   0  0  0  0  0  0  0  0  0  0  0  0
   -0.0067    7.1059    8.5845 H   0  0  0  0  0  0  0  0  0  0  0  0
    1.6318    7.4290    7.4370 C   0  0  0  0  0  0  0  0  0  0  0  0
    5.1546    7.8678    8.9622 C   0  0  0  0  0  0  0  0  0  0  0  0
    5.3372    7.9269    9.9209 H   0  0  0  0  0  0  0  0  0  0  0  0
    5.4332    8.6999    8.5237 H   0  0  0  0  0  0  0  0  0  0  0  0
    5.6515    7.1143    8.5804 H   0  0  0  0  0  0  0  0  0  0  0  0
    0.7406    7.1948   11.1293 C   0  0  0  0  0  0  0  0  0  0  0  0
   -0.2055    7.3454   10.9237 H   0  0  0  0  0  0  0  0  0  0  0  0
    1.0500    7.8711   11.7649 H   0  0  0  0  0  0  0  0  0  0  0  0
    0.8504    6.3024   11.5216 H   0  0  0  0  0  0  0  0  0  0  0  0
    0.8051    7.3764    6.1594 C   0  0  0  0  0  0  0  0  0  0  0  0
   -0.1357    7.2256    6.3860 H   0  0  0  0  0  0  0  0  0  0  0  0
    1.1272    6.6463    5.5930 H   0  0  0  0  0  0  0  0  0  0  0  0
    0.8934    8.2268    5.6790 H   0  0  0  0  0  0  0  0  0  0  0  0
    3.0887   11.4233    7.2755 C   0  0  0  0  0  0  0  0  0  0  0  0
    1.8171   10.8014    6.7048 C   0  0  0  0  0  0  0  0  0  0  0  0
    1.8267   10.8753    5.7272 H   0  0  0  0  0  0  0  0  0  0  0  0
    1.0351   11.2713    7.0615 H   0  0  0  0  0  0  0  0  0  0  0  0
    1.7738    9.8553    6.9608 H   0  0  0  0  0  0  0  0  0  0  0  0
    3.0969   12.9116    6.9524 C   0  0  0  0  0  0  0  0  0  0  0  0
    2.2802   13.3275    7.3006 H   0  0  0  0  0  0  0  0  0  0  0  0
    3.1380   13.0356    5.9811 H   0  0  0  0  0  0  0  0  0  0  0  0
    3.8794   13.3315    7.3678 H   0  0  0  0  0  0  0  0  0  0  0  0
    3.0960   11.2546    8.8027 C   0  0  0  0  0  0  0  0  0  0  0  0
    2.9288   10.3140    9.0272 H   0  0  0  0  0  0  0  0  0  0  0  0
    2.3938   11.8121    9.1950 H   0  0  0  0  0  0  0  0  0  0  0  0
    3.9668   11.5245    9.1573 H   0  0  0  0  0  0  0  0  0  0  0  0
    6.4004    9.5226    5.6580 B   0  5  0  0  0  0  0  0  0  0  0  0
    7.4091   10.3646    6.6755 C   0  0  0  0  0  0  0  0  0  0  0  0
    6.9404   12.4173    5.5521 F   0  0  0  0  0  0  0  0  0  0  0  0
    7.5521   11.7531    6.5580 C   0  0  0  0  0  0  0  0  0  0  0  0
    8.2814   13.8750    7.2759 F   0  0  0  0  0  0  0  0  0  0  0  0
    8.2614   12.5416    7.4517 C   0  0  0  0  0  0  0  0  0  0  0  0
    9.6045   12.7013    9.3683 F   0  0  0  0  0  0  0  0  0  0  0  0
    8.8924   11.9760    8.4838 C   0  0  0  0  0  0  0  0  0  0  0  0
    9.4809   10.0086    9.6671 F   0  0  0  0  0  0  0  0  0  0  0  0
    8.8248   10.6090    8.6538 C   0  0  0  0  0  0  0  0  0  0  0  0
    8.0653    8.5099    8.0097 F   0  0  0  0  0  0  0  0  0  0  0  0
    8.0838    9.8469    7.7559 C   0  0  0  0  0  0  0  0  0  0  0  0
    6.6965    9.9761    4.0867 C   0  0  0  0  0  0  0  0  0  0  0  0
    8.6328    8.6055    4.0644 F   0  0  0  0  0  0  0  0  0  0  0  0
    7.7548    9.3901    3.3944 C   0  0  0  0  0  0  0  0  0  0  0  0
    9.0723    8.9818    1.4887 F   0  0  0  0  0  0  0  0  0  0  0  0
    8.0187    9.5828    2.0643 C   0  0  0  0  0  0  0  0  0  0  0  0
    7.4419   10.5899    0.0281 F   0  0  0  0  0  0  0  0  0  0  0  0
    7.2120   10.4033    1.3405 C   0  0  0  0  0  0  0  0  0  0  0  0
    5.3961   11.8835    1.2610 F   0  0  0  0  0  0  0  0  0  0  0  0
    6.1835   11.0503    1.9636 C   0  0  0  0  0  0  0  0  0  0  0  0
    4.9550   11.5972    3.8467 F   0  0  0  0  0  0  0  0  0  0  0  0
    5.9632   10.8511    3.2979 C   0  0  0  0  0  0  0  0  0  0  0  0
    5.1329    1.2559    5.5993 B   0  5  0  0  0  0  0  0  0  0  0  0
    5.6772    0.6420    4.1559 C   0  0  0  0  0  0  0  0  0  0  0  0
    3.7274   -0.4823    3.3940 F   0  0  0  0  0  0  0  0  0  0  0  0
    5.0007   -0.0793    3.1762 C   0  0  0  0  0  0  0  0  0  0  0  0
    4.8339   -1.1679    1.0980 F   0  0  0  0  0  0  0  0  0  0  0  0
    5.5693   -0.4827    2.0035 C   0  0  0  0  0  0  0  0  0  0  0  0
    6.8725   -0.2047    1.7350 C   0  0  0  0  0  0  0  0  0  0  0  0
    7.4341   -0.6197    0.5796 F   0  0  0  0  0  0  0  0  0  0  0  0
    8.9152    0.7449    2.4310 F   0  0  0  0  0  0  0  0  0  0  0  0
    7.6013    0.4704    2.6664 C   0  0  0  0  0  0  0  0  0  0  0  0
    7.7922    1.5969    4.6890 F   0  0  0  0  0  0  0  0  0  0  0  0
    7.0166    0.8968    3.8140 C   0  0  0  0  0  0  0  0  0  0  0  0
    5.9762    0.4713    6.7867 C   0  0  0  0  0  0  0  0  0  0  0  0
    5.6747   -1.6528    5.7555 F   0  0  0  0  0  0  0  0  0  0  0  0
    6.2197   -0.9015    6.7489 C   0  0  0  0  0  0  0  0  0  0  0  0
    7.2157   -2.9029    7.5171 F   0  0  0  0  0  0  0  0  0  0  0  0
    6.9965   -1.5767    7.6468 C   0  0  0  0  0  0  0  0  0  0  0  0
    8.3365   -1.5516    9.5978 F   0  0  0  0  0  0  0  0  0  0  0  0
    7.5751   -0.9052    8.6978 C   0  0  0  0  0  0  0  0  0  0  0  0
    7.9584    1.1267    9.8108 F   0  0  0  0  0  0  0  0  0  0  0  0
    7.3720    0.4578    8.7964 C   0  0  0  0  0  0  0  0  0  0  0  0
    6.4729    2.4326    8.0678 F   0  0  0  0  0  0  0  0  0  0  0  0
    6.5990    1.0976    7.8713 C   0  0  0  0  0  0  0  0  0  0  0  0
    4.4528    3.6553    6.0348 C   0  0  0  0  0  0  0  0  0  0  0  0
    4.5097    4.9733    6.3304 C   0  0  0  0  0  0  0  0  0  0  0  0
    3.7244    5.3785    6.6797 H   0  0  0  0  0  0  0  0  0  0  0  0
    5.6560    5.8029    6.1590 C   0  0  0  0  0  0  0  0  0  0  0  0
    6.5149    5.3951    6.1510 H   0  0  0  0  0  0  0  0  0  0  0  0
    5.5767    7.1546    6.0056 C   0  0  0  0  0  0  0  0  0  0  0  0
  1  8  1  0  0  0  0
  2 20  1  0  0  0  0
  3 57  1  0  0  0  0
  4  5  1  0  0  0  0
  6  7  1  0  0  0  0
  8  9  2  0  0  0  0
  9 10  1  0  0  0  0
 11 12  1  0  0  0  0
 12 13  1  0  0  0  0
 14 12  1  0  0  0  0
 15 12  1  0  0  0  0
 16 11  1  0  0  0  0
 17 16  1  0  0  0  0
 18 16  1  0  0  0  0
 19 16  1  0  0  0  0
 20 21  2  0  0  0  0
 21 22  1  0  0  0  0
 23  9  1  0  0  0  0
 24 23  1  0  0  0  0
 25 24  1  0  0  0  0
 26 24  1  0  0  0  0
 27 24  1  0  0  0  0
 28 23  1  0  0  0  0
 29 28  1  0  0  0  0
 30 28  1  0  0  0  0
 31 28  1  0  0  0  0
 32 23  1  0  0  0  0
 33 32  1  0  0  0  0
 34 32  1  0  0  0  0
 35 32  1  0  0  0  0
 36  1  1  0  0  0  0
 37 36  4  0  0  0  0
 38 37  4  0  0  0  0
 39 38  1  0  0  0  0
 40 38  4  0  0  0  0
 41 40  4  0  0  0  0
 42 41  1  0  0  0  0
 43 36  4  0  0  0  0
 44 37  1  0  0  0  0
 45 44  1  0  0  0  0
 46 44  1  0  0  0  0
 47 44  1  0  0  0  0
 48 40  1  0  0  0  0
 49 48  1  0  0  0  0
 50 48  1  0  0  0  0
 51 48  1  0  0  0  0
 52 43  1  0  0  0  0
 53 52  1  0  0  0  0
 54 52  1  0  0  0  0
 55 52  1  0  0  0  0
 56  1  1  0  0  0  0
 57 56  4  0  0  0  0
 58 11  1  0  0  0  0
 59 58  4  0  0  0  0
 60 59  1  0  0  0  0
 61 59  4  0  0  0  0
 62 61  1  0  0  0  0
 63 56  4  0  0  0  0
 64 63  1  0  0  0  0
 65  2  1  0  0  0  0
 66  3  1  0  0  0  0
 67 11  1  0  0  0  0
 68 67  4  0  0  0  0
 69 68  1  0  0  0  0
 70 68  4  0  0  0  0
 71 70  1  0  0  0  0
 72 65  4  0  0  0  0
 73 72  1  0  0  0  0
 74  2  1  0  0  0  0
 75 74  4  0  0  0  0
 76 75  4  0  0  0  0
 77 76  1  0  0  0  0
 78 76  4  0  0  0  0
 79 78  4  0  0  0  0
 80 79  1  0  0  0  0
 81 74  4  0  0  0  0
 82 75  1  0  0  0  0
 83 82  1  0  0  0  0
 84 82  1  0  0  0  0
 85 82  1  0  0  0  0
 86 78  1  0  0  0  0
 87 86  1  0  0  0  0
 88 86  1  0  0  0  0
 89 86  1  0  0  0  0
 90 81  1  0  0  0  0
 91 90  1  0  0  0  0
 92 90  1  0  0  0  0
 93 90  1  0  0  0  0
 94 21  1  0  0  0  0
 95 94  1  0  0  0  0
 96 95  1  0  0  0  0
 97 95  1  0  0  0  0
 98 95  1  0  0  0  0
 99 94  1  0  0  0  0
100 99  1  0  0  0  0
101 99  1  0  0  0  0
102 99  1  0  0  0  0
103 94  1  0  0  0  0
104103  1  0  0  0  0
105103  1  0  0  0  0
106103  1  0  0  0  0
107  6  1  0  0  0  0
108107  1  0  0  0  0
109110  1  0  0  0  0
110108  4  0  0  0  0
111112  1  0  0  0  0
112110  4  0  0  0  0
113114  1  0  0  0  0
114112  4  0  0  0  0
115116  1  0  0  0  0
116114  4  0  0  0  0
117118  1  0  0  0  0
118108  4  0  0  0  0
119107  1  0  0  0  0
120121  1  0  0  0  0
121119  4  0  0  0  0
122123  1  0  0  0  0
123121  4  0  0  0  0
124125  1  0  0  0  0
125123  4  0  0  0  0
126127  1  0  0  0  0
127125  4  0  0  0  0
128129  1  0  0  0  0
129119  4  0  0  0  0
130  4  1  0  0  0  0
131130  1  0  0  0  0
132133  1  0  0  0  0
133131  4  0  0  0  0
134135  1  0  0  0  0
135133  4  0  0  0  0
136135  4  0  0  0  0
137136  1  0  0  0  0
138139  1  0  0  0  0
139136  4  0  0  0  0
140141  1  0  0  0  0
141131  4  0  0  0  0
142130  1  0  0  0  0
143144  1  0  0  0  0
144142  4  0  0  0  0
145146  1  0  0  0  0
146144  4  0  0  0  0
147148  1  0  0  0  0
148146  4  0  0  0  0
149150  1  0  0  0  0
150148  4  0  0  0  0
151152  1  0  0  0  0
152142  4  0  0  0  0
153  1  1  0  0  0  0
154153  2  0  0  0  0
155154  1  0  0  0  0
156154  1  0  0  0  0
157156  1  0  0  0  0
158  2  1  0  0  0  0
  4153  1  0  0  0  0
  6158  1  0  0  0  0
  8130  1  0  0  0  0
 20107  1  0  0  0  0
 41 43  4  0  0  0  0
 57 58  4  0  0  0  0
 61 63  4  0  0  0  0
 65 66  4  0  0  0  0
 66 67  4  0  0  0  0
 70 72  4  0  0  0  0
 79 81  4  0  0  0  0
116118  4  0  0  0  0
127129  4  0  0  0  0
139141  4  0  0  0  0
150152  4  0  0  0  0
156158  2  0  0  0  0
M  CHG  4   1   1   2   1 107  -1 130  -1
M  END
$$$$
UBUDIG

From CSD data. Using bond type 'Any'. No disordered atoms. Largest molecule.
131140  0  0  0  0  0  0  0  0999 V2000
   -0.2022   15.0584    2.6728 Pt  0  0  0  0  0  0  0  0  0  0  0  0
    2.1083   14.5548    3.0212 P   0  0  0  0  0  0  0  0  0  0  0  0
   -1.5145   13.1615    3.2784 P   0  0  0  0  0  0  0  0  0  0  0  0
   -2.7909   12.8670    1.9614 C   0  0  0  0  0  0  0  0  0  0  0  0
   -3.3476   13.6965    1.9553 H   0  0  0  0  0  0  0  0  0  0  0  0
   -2.5690   17.0930    2.7038 O   0  0  0  0  0  0  0  0  0  0  0  0
    2.9489   16.0196    3.7770 C   0  0  0  0  0  0  0  0  0  0  0  0
    2.8316   16.7594    3.1128 H   0  0  0  0  0  0  0  0  0  0  0  0
   -0.7335   11.5047    3.6807 C   0  0  0  0  0  0  0  0  0  0  0  0
    0.0737   11.7218    4.2290 H   0  0  0  0  0  0  0  0  0  0  0  0
    2.6368   13.0403    3.9833 C   0  0  0  0  0  0  0  0  0  0  0  0
    2.0702   12.2964    3.6277 H   0  0  0  0  0  0  0  0  0  0  0  0
    2.3711   13.0443    0.7192 C   0  0  0  0  0  0  0  0  0  0  0  0
    2.4843   12.2496    1.2990 H   0  0  0  0  0  0  0  0  0  0  0  0
    1.4000   13.1972    0.6033 H   0  0  0  0  0  0  0  0  0  0  0  0
   -2.4950   13.4662    4.8264 C   0  0  0  0  0  0  0  0  0  0  0  0
   -3.0013   12.6286    5.0268 H   0  0  0  0  0  0  0  0  0  0  0  0
    2.9948   14.2650    1.4110 C   0  0  0  0  0  0  0  0  0  0  0  0
    3.9507   14.0531    1.6153 H   0  0  0  0  0  0  0  0  0  0  0  0
   -2.1717   12.8018    0.5522 C   0  0  0  0  0  0  0  0  0  0  0  0
   -1.5460   13.5579    0.4304 H   0  0  0  0  0  0  0  0  0  0  0  0
   -1.6612   11.9582    0.4539 H   0  0  0  0  0  0  0  0  0  0  0  0
   -4.2714   14.7072    6.0861 C   0  0  0  0  0  0  0  0  0  0  0  0
   -4.9152   15.4572    6.0369 H   0  0  0  0  0  0  0  0  0  0  0  0
   -4.7840   13.8738    6.2295 H   0  0  0  0  0  0  0  0  0  0  0  0
    2.9647   15.4735    0.4736 C   0  0  0  0  0  0  0  0  0  0  0  0
    2.0261   15.7588    0.3380 H   0  0  0  0  0  0  0  0  0  0  0  0
    3.4545   16.2254    0.8922 H   0  0  0  0  0  0  0  0  0  0  0  0
   -3.6040   17.4808    1.8806 C   0  0  0  0  0  0  0  0  0  0  0  0
    2.2145   16.5006    5.0445 C   0  0  0  0  0  0  0  0  0  0  0  0
    1.2498   16.6065    4.8480 H   0  0  0  0  0  0  0  0  0  0  0  0
    2.3091   15.8219    5.7579 H   0  0  0  0  0  0  0  0  0  0  0  0
   -1.5298   13.7107    5.9957 C   0  0  0  0  0  0  0  0  0  0  0  0
   -0.8896   12.9567    6.0546 H   0  0  0  0  0  0  0  0  0  0  0  0
   -1.0130   14.5381    5.8267 H   0  0  0  0  0  0  0  0  0  0  0  0
   -3.5691   16.7247    0.7350 C   0  0  0  0  0  0  0  0  0  0  0  0
   -3.2674   12.8650   -0.5149 C   0  0  0  0  0  0  0  0  0  0  0  0
   -3.7307   13.7372   -0.4579 H   0  0  0  0  0  0  0  0  0  0  0  0
   -2.8574   12.7916   -1.4129 H   0  0  0  0  0  0  0  0  0  0  0  0
    2.2744   13.1320    5.4749 C   0  0  0  0  0  0  0  0  0  0  0  0
    2.8525   13.8045    5.9131 H   0  0  0  0  0  0  0  0  0  0  0  0
    1.3344   13.4254    5.5692 H   0  0  0  0  0  0  0  0  0  0  0  0
   -3.3308   14.9273    7.2573 C   0  0  0  0  0  0  0  0  0  0  0  0
   -2.8914   15.8097    7.1669 H   0  0  0  0  0  0  0  0  0  0  0  0
   -3.8502   14.9294    8.1003 H   0  0  0  0  0  0  0  0  0  0  0  0
   -4.2829   11.7381   -0.3262 C   0  0  0  0  0  0  0  0  0  0  0  0
   -5.0070   11.8277   -0.9944 H   0  0  0  0  0  0  0  0  0  0  0  0
   -3.8399   10.8638   -0.4677 H   0  0  0  0  0  0  0  0  0  0  0  0
    4.4580   15.9483    4.0285 C   0  0  0  0  0  0  0  0  0  0  0  0
    4.6491   15.2432    4.6967 H   0  0  0  0  0  0  0  0  0  0  0  0
    4.9228   15.7078    3.1875 H   0  0  0  0  0  0  0  0  0  0  0  0
    4.0878   12.5430    3.8301 C   0  0  0  0  0  0  0  0  0  0  0  0
    4.2949   12.4208    2.8691 H   0  0  0  0  0  0  0  0  0  0  0  0
    4.7100   13.2216    4.1936 H   0  0  0  0  0  0  0  0  0  0  0  0
   -2.2745   13.8432    7.3182 C   0  0  0  0  0  0  0  0  0  0  0  0
   -2.7039   12.9791    7.5383 H   0  0  0  0  0  0  0  0  0  0  0  0
   -1.6277   14.0551    8.0374 H   0  0  0  0  0  0  0  0  0  0  0  0
   -3.5112   14.6094    4.7615 C   0  0  0  0  0  0  0  0  0  0  0  0
   -3.0427   15.4633    4.5827 H   0  0  0  0  0  0  0  0  0  0  0  0
   -4.1496   14.4464    4.0226 H   0  0  0  0  0  0  0  0  0  0  0  0
   -0.1955   10.7864    2.4387 C   0  0  0  0  0  0  0  0  0  0  0  0
   -0.9553   10.4848    1.8806 H   0  0  0  0  0  0  0  0  0  0  0  0
    0.3412   11.4222    1.9023 H   0  0  0  0  0  0  0  0  0  0  0  0
   -4.8764   11.7870    1.0769 C   0  0  0  0  0  0  0  0  0  0  0  0
   -5.4977   11.0248    1.1948 H   0  0  0  0  0  0  0  0  0  0  0  0
   -5.3981   12.6225    1.1830 H   0  0  0  0  0  0  0  0  0  0  0  0
   -1.5386   10.4950    4.5297 C   0  0  0  0  0  0  0  0  0  0  0  0
   -1.8574   10.9392    5.3531 H   0  0  0  0  0  0  0  0  0  0  0  0
   -2.3294   10.1934    4.0168 H   0  0  0  0  0  0  0  0  0  0  0  0
   -3.7927   11.7279    2.1597 C   0  0  0  0  0  0  0  0  0  0  0  0
   -4.2098   11.8033    3.0538 H   0  0  0  0  0  0  0  0  0  0  0  0
   -3.3216   10.8577    2.1125 H   0  0  0  0  0  0  0  0  0  0  0  0
    2.9974   12.7631   -0.6406 C   0  0  0  0  0  0  0  0  0  0  0  0
    3.9492   12.5165   -0.5208 H   0  0  0  0  0  0  0  0  0  0  0  0
    2.5337   12.0010   -1.0671 H   0  0  0  0  0  0  0  0  0  0  0  0
    0.6668    9.5861    2.8043 C   0  0  0  0  0  0  0  0  0  0  0  0
    0.9642    9.1296    1.9789 H   0  0  0  0  0  0  0  0  0  0  0  0
    1.4721    9.8938    3.2916 H   0  0  0  0  0  0  0  0  0  0  0  0
    2.9011   13.9736   -1.5348 C   0  0  0  0  0  0  0  0  0  0  0  0
    1.9494   14.1937   -1.6959 H   0  0  0  0  0  0  0  0  0  0  0  0
    3.3255   13.7800   -2.4073 H   0  0  0  0  0  0  0  0  0  0  0  0
   -4.4929   16.8918   -0.2692 C   0  0  0  0  0  0  0  0  0  0  0  0
   -4.4712   16.3742   -1.0651 H   0  0  0  0  0  0  0  0  0  0  0  0
    2.4586   11.7768    6.1568 C   0  0  0  0  0  0  0  0  0  0  0  0
    2.2197   11.8522    7.1158 H   0  0  0  0  0  0  0  0  0  0  0  0
    1.8538   11.1104    5.7422 H   0  0  0  0  0  0  0  0  0  0  0  0
    2.7833   17.8354    5.5338 C   0  0  0  0  0  0  0  0  0  0  0  0
    2.6193   18.5343    4.8539 H   0  0  0  0  0  0  0  0  0  0  0  0
    2.3258   18.1043    6.3690 H   0  0  0  0  0  0  0  0  0  0  0  0
   -4.5392   18.4650    2.0752 C   0  0  0  0  0  0  0  0  0  0  0  0
   -4.5424   18.9969    2.8612 H   0  0  0  0  0  0  0  0  0  0  0  0
   -2.5148   15.8480    0.7951 O   0  0  0  0  0  0  0  0  0  0  0  0
   -1.8605   16.0604    2.0379 B   0  0  0  0  0  0  0  0  0  0  0  0
    3.5953   15.1556   -0.8804 C   0  0  0  0  0  0  0  0  0  0  0  0
    3.5260   15.9483   -1.4699 H   0  0  0  0  0  0  0  0  0  0  0  0
    4.5552   14.9477   -0.7566 H   0  0  0  0  0  0  0  0  0  0  0  0
    4.2899   11.2205    4.5690 C   0  0  0  0  0  0  0  0  0  0  0  0
    3.7507   10.5154    4.1268 H   0  0  0  0  0  0  0  0  0  0  0  0
    5.2422   10.9555    4.5080 H   0  0  0  0  0  0  0  0  0  0  0  0
    0.6761   18.0279    2.8956 O   0  0  0  0  0  0  0  0  0  0  0  0
    0.4551   17.3825    0.7216 O   0  0  0  0  0  0  0  0  0  0  0  0
    1.0164   18.6423    0.7644 C   0  0  0  0  0  0  0  0  0  0  0  0
    1.1352   19.0377    2.0772 C   0  0  0  0  0  0  0  0  0  0  0  0
   -0.6835    9.2886    4.9011 C   0  0  0  0  0  0  0  0  0  0  0  0
    0.0557    9.5800    5.4906 H   0  0  0  0  0  0  0  0  0  0  0  0
   -1.2360    8.6385    5.4041 H   0  0  0  0  0  0  0  0  0  0  0  0
    0.3214   16.9509    2.0496 B   0  0  0  0  0  0  0  0  0  0  0  0
   -0.1076    8.6079    3.6729 C   0  0  0  0  0  0  0  0  0  0  0  0
   -0.8432    8.2126    3.1423 H   0  0  0  0  0  0  0  0  0  0  0  0
    0.4941    7.8763    3.9578 H   0  0  0  0  0  0  0  0  0  0  0  0
    4.9825   17.2831    4.5336 C   0  0  0  0  0  0  0  0  0  0  0  0
    5.9533   17.2077    4.7104 H   0  0  0  0  0  0  0  0  0  0  0  0
    4.8511   17.9719    3.8340 H   0  0  0  0  0  0  0  0  0  0  0  0
    4.2822   17.7131    5.7893 C   0  0  0  0  0  0  0  0  0  0  0  0
    4.6406   18.5853    6.0900 H   0  0  0  0  0  0  0  0  0  0  0  0
    4.4449   17.0487    6.5066 H   0  0  0  0  0  0  0  0  0  0  0  0
   -5.4796   18.6485    1.0769 C   0  0  0  0  0  0  0  0  0  0  0  0
   -6.1415   19.3230    1.1732 H   0  0  0  0  0  0  0  0  0  0  0  0
   -5.4646   17.8700   -0.0491 C   0  0  0  0  0  0  0  0  0  0  0  0
   -6.1398   17.9984   -0.7055 H   0  0  0  0  0  0  0  0  0  0  0  0
    3.8893   11.3081    6.0291 C   0  0  0  0  0  0  0  0  0  0  0  0
    3.9874   10.4196    6.4535 H   0  0  0  0  0  0  0  0  0  0  0  0
    4.4883   11.9419    6.4987 H   0  0  0  0  0  0  0  0  0  0  0  0
    1.6940   20.2502    2.4230 C   0  0  0  0  0  0  0  0  0  0  0  0
    1.7764   20.5192    3.3309 H   0  0  0  0  0  0  0  0  0  0  0  0
    1.4495   19.4290   -0.2712 C   0  0  0  0  0  0  0  0  0  0  0  0
    1.3689   19.1518   -1.1771 H   0  0  0  0  0  0  0  0  0  0  0  0
    2.1261   21.0511    1.3913 C   0  0  0  0  0  0  0  0  0  0  0  0
    2.5113   21.8968    1.5898 H   0  0  0  0  0  0  0  0  0  0  0  0
    2.0118   20.6517    0.0747 C   0  0  0  0  0  0  0  0  0  0  0  0
    2.3252   21.2284   -0.6131 H   0  0  0  0  0  0  0  0  0  0  0  0
  1  2  1  0  0  0  0
  2  7  1  0  0  0  0
  3  1  1  0  0  0  0
  4  3  1  0  0  0  0
  5  4  1  0  0  0  0
  6 29  1  0  0  0  0
  7  8  1  0  0  0  0
  9  3  1  0  0  0  0
 10  9  1  0  0  0  0
 11  2  1  0  0  0  0
 12 11  1  0  0  0  0
 13 14  1  0  0  0  0
 15 13  1  0  0  0  0
 16  3  1  0  0  0  0
 17 16  1  0  0  0  0
 18  2  1  0  0  0  0
 19 18  1  0  0  0  0
 20  4  1  0  0  0  0
 21 20  1  0  0  0  0
 22 20  1  0  0  0  0
 23 24  1  0  0  0  0
 25 23  1  0  0  0  0
 26 18  1  0  0  0  0
 27 26  1  0  0  0  0
 28 26  1  0  0  0  0
 29 36  4  0  0  0  0
 30  7  1  0  0  0  0
 31 30  1  0  0  0  0
 32 30  1  0  0  0  0
 33 16  1  0  0  0  0
 34 33  1  0  0  0  0
 35 33  1  0  0  0  0
 36 82  4  0  0  0  0
 37 20  1  0  0  0  0
 38 37  1  0  0  0  0
 39 37  1  0  0  0  0
 40 11  1  0  0  0  0
 41 40  1  0  0  0  0
 42 40  1  0  0  0  0
 43 23  1  0  0  0  0
 44 43  1  0  0  0  0
 45 43  1  0  0  0  0
 46 37  1  0  0  0  0
 47 46  1  0  0  0  0
 48 46  1  0  0  0  0
 49  7  1  0  0  0  0
 50 49  1  0  0  0  0
 51 49  1  0  0  0  0
 52 11  1  0  0  0  0
 53 52  1  0  0  0  0
 54 52  1  0  0  0  0
 55 33  1  0  0  0  0
 56 55  1  0  0  0  0
 57 55  1  0  0  0  0
 58 16  1  0  0  0  0
 59 58  1  0  0  0  0
 60 58  1  0  0  0  0
 61  9  1  0  0  0  0
 62 61  1  0  0  0  0
 63 61  1  0  0  0  0
 64 46  1  0  0  0  0
 65 64  1  0  0  0  0
 66 64  1  0  0  0  0
 67  9  1  0  0  0  0
 68 67  1  0  0  0  0
 69 67  1  0  0  0  0
 70  4  1  0  0  0  0
 71 70  1  0  0  0  0
 72 70  1  0  0  0  0
 73 13  1  0  0  0  0
 74 73  1  0  0  0  0
 75 73  1  0  0  0  0
 76 61  1  0  0  0  0
 77 76  1  0  0  0  0
 78 76  1  0  0  0  0
 79 73  1  0  0  0  0
 80 79  1  0  0  0  0
 81 79  1  0  0  0  0
 82 83  1  0  0  0  0
 84 40  1  0  0  0  0
 85 84  1  0  0  0  0
 86 84  1  0  0  0  0
 87 30  1  0  0  0  0
 88 87  1  0  0  0  0
 89 87  1  0  0  0  0
 90 29  4  0  0  0  0
 91 90  1  0  0  0  0
 92 36  1  0  0  0  0
 93  1  1  0  0  0  0
 94 26  1  0  0  0  0
 95 94  1  0  0  0  0
 96 94  1  0  0  0  0
 97 52  1  0  0  0  0
 98 97  1  0  0  0  0
 99 97  1  0  0  0  0
100103  1  0  0  0  0
101102  1  0  0  0  0
102103  4  0  0  0  0
103124  4  0  0  0  0
104 67  1  0  0  0  0
105104  1  0  0  0  0
106104  1  0  0  0  0
107  1  1  0  0  0  0
108 76  1  0  0  0  0
109108  1  0  0  0  0
110108  1  0  0  0  0
111 49  1  0  0  0  0
112111  1  0  0  0  0
113111  1  0  0  0  0
114 87  1  0  0  0  0
115114  1  0  0  0  0
116114  1  0  0  0  0
117 90  4  0  0  0  0
118117  1  0  0  0  0
119 82  4  0  0  0  0
120119  1  0  0  0  0
121 84  1  0  0  0  0
122121  1  0  0  0  0
123121  1  0  0  0  0
124125  1  0  0  0  0
126102  4  0  0  0  0
127126  1  0  0  0  0
128124  4  0  0  0  0
129128  1  0  0  0  0
130126  4  0  0  0  0
131130  1  0  0  0  0
  6 93  1  0  0  0  0
 13 18  1  0  0  0  0
 23 58  1  0  0  0  0
 43 55  1  0  0  0  0
 64 70  1  0  0  0  0
 79 94  1  0  0  0  0
 92 93  1  0  0  0  0
 97121  1  0  0  0  0
100107  1  0  0  0  0
101107  1  0  0  0  0
104108  1  0  0  0  0
111114  1  0  0  0  0
117119  4  0  0  0  0
128130  4  0  0  0  0
M  END
$$$$
UBUDOM

From CSD data. Using bond type 'Any'. No disordered atoms. Largest molecule.
155164  0  0  0  0  0  0  0  0999 V2000
   12.4422    6.1030    5.0580 Pt  0  0  0  0  0  0  0  0  0  0  0  0
   10.7765    7.5200    6.0395 P   0  0  0  0  0  0  0  0  0  0  0  0
   11.1887    3.7820    6.7152 O   0  0  0  0  0  0  0  0  0  0  0  0
   12.1733    4.7907    6.6067 B   0  0  0  0  0  0  0  0  0  0  0  0
   13.3271    7.1108    3.0820 P   0  0  0  0  0  0  0  0  0  0  0  0
   12.9640    4.7582    7.7920 O   0  0  0  0  0  0  0  0  0  0  0  0
   13.6519    4.4884    4.7282 B   0  0  0  0  0  0  0  0  0  0  0  0
   14.9602    4.2790    5.2395 O   0  0  0  0  0  0  0  0  0  0  0  0
   13.3717    3.4142    3.8369 O   0  0  0  0  0  0  0  0  0  0  0  0
   13.2518    8.9681    2.9805 C   0  0  0  0  0  0  0  0  0  0  0  0
   12.2787    9.1941    3.0312 H   0  0  0  0  0  0  0  0  0  0  0  0
   13.8856    9.6537    4.1967 C   0  0  0  0  0  0  0  0  0  0  0  0
   13.5307    9.2430    5.0250 H   0  0  0  0  0  0  0  0  0  0  0  0
   14.8649    9.5066    4.1801 H   0  0  0  0  0  0  0  0  0  0  0  0
   13.6030   11.1577    4.2192 C   0  0  0  0  0  0  0  0  0  0  0  0
   12.6297   11.3093    4.3180 H   0  0  0  0  0  0  0  0  0  0  0  0
   14.0580   11.5665    4.9967 H   0  0  0  0  0  0  0  0  0  0  0  0
   14.0918   11.8163    2.9445 C   0  0  0  0  0  0  0  0  0  0  0  0
   13.8449   12.7761    2.9535 H   0  0  0  0  0  0  0  0  0  0  0  0
   15.0784   11.7535    2.8969 H   0  0  0  0  0  0  0  0  0  0  0  0
   13.4850   11.1505    1.7286 C   0  0  0  0  0  0  0  0  0  0  0  0
   13.8568   11.5665    0.9103 H   0  0  0  0  0  0  0  0  0  0  0  0
   12.5059   11.3029    1.7286 H   0  0  0  0  0  0  0  0  0  0  0  0
   13.7564    9.6467    1.6968 C   0  0  0  0  0  0  0  0  0  0  0  0
   14.7301    9.4896    1.6031 H   0  0  0  0  0  0  0  0  0  0  0  0
   13.3042    9.2472    0.9120 H   0  0  0  0  0  0  0  0  0  0  0  0
   12.5873    6.5836    1.4589 C   0  0  0  0  0  0  0  0  0  0  0  0
   13.1626    6.9705    0.7388 H   0  0  0  0  0  0  0  0  0  0  0  0
   12.6247    5.0562    1.2858 C   0  0  0  0  0  0  0  0  0  0  0  0
   13.5543    4.7363    1.4016 H   0  0  0  0  0  0  0  0  0  0  0  0
   12.0662    4.6342    1.9867 H   0  0  0  0  0  0  0  0  0  0  0  0
   12.1121    4.6357   -0.0919 C   0  0  0  0  0  0  0  0  0  0  0  0
   12.7387    4.9637   -0.7865 H   0  0  0  0  0  0  0  0  0  0  0  0
   12.0901    3.6479   -0.1432 H   0  0  0  0  0  0  0  0  0  0  0  0
   10.7228    5.1804   -0.3765 C   0  0  0  0  0  0  0  0  0  0  0  0
   10.4622    4.9552   -1.3044 H   0  0  0  0  0  0  0  0  0  0  0  0
   10.0699    4.7597    0.2368 H   0  0  0  0  0  0  0  0  0  0  0  0
   10.6949    6.6814   -0.1916 C   0  0  0  0  0  0  0  0  0  0  0  0
    9.7732    7.0130   -0.3341 H   0  0  0  0  0  0  0  0  0  0  0  0
   11.2805    7.1065   -0.8678 H   0  0  0  0  0  0  0  0  0  0  0  0
   11.1658    7.0830    1.2084 C   0  0  0  0  0  0  0  0  0  0  0  0
   11.1405    8.0695    1.2956 H   0  0  0  0  0  0  0  0  0  0  0  0
   10.5555    6.6984    1.8859 H   0  0  0  0  0  0  0  0  0  0  0  0
   11.2021    7.9843    7.8024 C   0  0  0  0  0  0  0  0  0  0  0  0
   10.6967    8.8242    7.9961 H   0  0  0  0  0  0  0  0  0  0  0  0
   12.6854    8.3569    7.8653 C   0  0  0  0  0  0  0  0  0  0  0  0
   12.8551    9.1091    7.2449 H   0  0  0  0  0  0  0  0  0  0  0  0
   13.2251    7.5849    7.5595 H   0  0  0  0  0  0  0  0  0  0  0  0
   13.1390    8.7581    9.2722 C   0  0  0  0  0  0  0  0  0  0  0  0
   14.1214    8.8752    9.2775 H   0  0  0  0  0  0  0  0  0  0  0  0
   12.7271    9.6256    9.5126 H   0  0  0  0  0  0  0  0  0  0  0  0
   12.7570    7.7273   10.2967 C   0  0  0  0  0  0  0  0  0  0  0  0
   13.0214    8.0419   11.1970 H   0  0  0  0  0  0  0  0  0  0  0  0
   13.2416    6.8833   10.1136 H   0  0  0  0  0  0  0  0  0  0  0  0
   11.2715    7.4713   10.2679 C   0  0  0  0  0  0  0  0  0  0  0  0
   10.7919    8.3034   10.5077 H   0  0  0  0  0  0  0  0  0  0  0  0
   11.0464    6.7834   10.9443 H   0  0  0  0  0  0  0  0  0  0  0  0
   10.8009    6.9941    8.8820 C   0  0  0  0  0  0  0  0  0  0  0  0
   11.2019    6.1095    8.6837 H   0  0  0  0  0  0  0  0  0  0  0  0
    9.8169    6.8918    8.8851 H   0  0  0  0  0  0  0  0  0  0  0  0
   10.3447    9.1949    5.3039 C   0  0  0  0  0  0  0  0  0  0  0  0
   11.2220    9.6107    5.0638 H   0  0  0  0  0  0  0  0  0  0  0  0
    9.6004    9.0349    3.9760 C   0  0  0  0  0  0  0  0  0  0  0  0
   10.0950    8.4012    3.3989 H   0  0  0  0  0  0  0  0  0  0  0  0
    8.7025    8.6541    4.1483 H   0  0  0  0  0  0  0  0  0  0  0  0
    9.4495   10.3709    3.2447 C   0  0  0  0  0  0  0  0  0  0  0  0
   10.3447   10.7162    3.0030 H   0  0  0  0  0  0  0  0  0  0  0  0
    8.9377   10.2336    2.4091 H   0  0  0  0  0  0  0  0  0  0  0  0
    8.7336   11.3905    4.1135 C   0  0  0  0  0  0  0  0  0  0  0  0
    7.8053   11.0903    4.2791 H   0  0  0  0  0  0  0  0  0  0  0  0
    8.6939   12.2595    3.6393 H   0  0  0  0  0  0  0  0  0  0  0  0
    9.4548   11.5673    5.4405 C   0  0  0  0  0  0  0  0  0  0  0  0
    8.9383   12.1915    6.0112 H   0  0  0  0  0  0  0  0  0  0  0  0
   10.3436   11.9704    5.2777 H   0  0  0  0  0  0  0  0  0  0  0  0
    9.6308   10.2398    6.1761 C   0  0  0  0  0  0  0  0  0  0  0  0
    8.7413    9.8913    6.4407 H   0  0  0  0  0  0  0  0  0  0  0  0
   10.1561   10.3909    7.0010 H   0  0  0  0  0  0  0  0  0  0  0  0
    9.2184    6.5149    6.1512 C   0  0  0  0  0  0  0  0  0  0  0  0
    9.4117    5.8204    6.8437 H   0  0  0  0  0  0  0  0  0  0  0  0
    7.9387    7.2141    6.6431 C   0  0  0  0  0  0  0  0  0  0  0  0
    8.1206    7.6763    7.4994 H   0  0  0  0  0  0  0  0  0  0  0  0
    7.6564    7.8931    5.9812 H   0  0  0  0  0  0  0  0  0  0  0  0
    6.8187    6.1937    6.8384 C   0  0  0  0  0  0  0  0  0  0  0  0
    7.0704    5.5675    7.5631 H   0  0  0  0  0  0  0  0  0  0  0  0
    5.9931    6.6644    7.1159 H   0  0  0  0  0  0  0  0  0  0  0  0
    6.5483    5.4080    5.5676 C   0  0  0  0  0  0  0  0  0  0  0  0
    5.8467    4.7320    5.7390 H   0  0  0  0  0  0  0  0  0  0  0  0
    6.2176    6.0203    4.8641 H   0  0  0  0  0  0  0  0  0  0  0  0
    7.8122    4.7163    5.0851 C   0  0  0  0  0  0  0  0  0  0  0  0
    7.6233    4.2452    4.2349 H   0  0  0  0  0  0  0  0  0  0  0  0
    8.0933    4.0433    5.7532 H   0  0  0  0  0  0  0  0  0  0  0  0
    8.9465    5.7218    4.8677 C   0  0  0  0  0  0  0  0  0  0  0  0
    8.7013    6.3455    4.1395 H   0  0  0  0  0  0  0  0  0  0  0  0
    9.7682    5.2401    4.5955 H   0  0  0  0  0  0  0  0  0  0  0  0
   15.1028    6.5734    2.8573 C   0  0  0  0  0  0  0  0  0  0  0  0
   15.0741    5.5824    2.9800 H   0  0  0  0  0  0  0  0  0  0  0  0
   16.0281    7.0579    3.9698 C   0  0  0  0  0  0  0  0  0  0  0  0
   16.1978    8.0270    3.8584 H   0  0  0  0  0  0  0  0  0  0  0  0
   15.5876    6.9237    4.8464 H   0  0  0  0  0  0  0  0  0  0  0  0
   17.3554    6.3064    3.9503 C   0  0  0  0  0  0  0  0  0  0  0  0
   17.1968    5.3570    4.1783 H   0  0  0  0  0  0  0  0  0  0  0  0
   17.9576    6.6899    4.6361 H   0  0  0  0  0  0  0  0  0  0  0  0
   18.0348    6.3893    2.5752 C   0  0  0  0  0  0  0  0  0  0  0  0
   18.3288    7.3191    2.4091 H   0  0  0  0  0  0  0  0  0  0  0  0
   18.8364    5.8077    2.5682 H   0  0  0  0  0  0  0  0  0  0  0  0
   17.0985    5.9595    1.4776 C   0  0  0  0  0  0  0  0  0  0  0  0
   16.8906    4.9978    1.5854 H   0  0  0  0  0  0  0  0  0  0  0  0
   17.5444    6.0798    0.6027 H   0  0  0  0  0  0  0  0  0  0  0  0
   15.7898    6.7620    1.4900 C   0  0  0  0  0  0  0  0  0  0  0  0
   15.1932    6.4454    0.7671 H   0  0  0  0  0  0  0  0  0  0  0  0
   15.9813    7.7209    1.3398 H   0  0  0  0  0  0  0  0  0  0  0  0
   12.4336    3.7720    8.5841 C   0  0  0  0  0  0  0  0  0  0  0  0
   11.3843    3.1621    7.9371 C   0  0  0  0  0  0  0  0  0  0  0  0
   10.6918    2.1031    8.4770 C   0  0  0  0  0  0  0  0  0  0  0  0
    9.9687    1.7006    8.0102 H   0  0  0  0  0  0  0  0  0  0  0  0
   11.0877    1.6347    9.7401 C   0  0  0  0  0  0  0  0  0  0  0  0
   12.1272    2.2848   10.3937 C   0  0  0  0  0  0  0  0  0  0  0  0
   12.3784    1.9791   11.2571 H   0  0  0  0  0  0  0  0  0  0  0  0
   12.8179    3.3592    9.8467 C   0  0  0  0  0  0  0  0  0  0  0  0
   13.5213    3.7903   10.3186 H   0  0  0  0  0  0  0  0  0  0  0  0
   10.4590    0.3839   10.3705 C   0  0  0  0  0  0  0  0  0  0  0  0
   11.4101   -0.7912   10.1913 C   0  0  0  0  0  0  0  0  0  0  0  0
   11.5384   -0.9651    9.2351 H   0  0  0  0  0  0  0  0  0  0  0  0
   11.0303   -1.5880   10.6191 H   0  0  0  0  0  0  0  0  0  0  0  0
   12.2734   -0.5782   10.6031 H   0  0  0  0  0  0  0  0  0  0  0  0
    9.1227    0.0164    9.7159 C   0  0  0  0  0  0  0  0  0  0  0  0
    9.2703   -0.1998    8.7720 H   0  0  0  0  0  0  0  0  0  0  0  0
    8.5054    0.7759    9.7848 H   0  0  0  0  0  0  0  0  0  0  0  0
    8.7376   -0.7610   10.1719 H   0  0  0  0  0  0  0  0  0  0  0  0
   10.2179    0.5831   11.8669 C   0  0  0  0  0  0  0  0  0  0  0  0
    9.8730   -0.2466   12.2557 H   0  0  0  0  0  0  0  0  0  0  0  0
    9.5655    1.3031   11.9995 H   0  0  0  0  0  0  0  0  0  0  0  0
   11.0621    0.8227   12.3035 H   0  0  0  0  0  0  0  0  0  0  0  0
   15.4861    3.2019    4.5622 C   0  0  0  0  0  0  0  0  0  0  0  0
   14.5329    2.6883    3.7092 C   0  0  0  0  0  0  0  0  0  0  0  0
   14.7917    1.6441    2.8508 C   0  0  0  0  0  0  0  0  0  0  0  0
   14.1163    1.3052    2.2765 H   0  0  0  0  0  0  0  0  0  0  0  0
   16.0870    1.0935    2.8490 C   0  0  0  0  0  0  0  0  0  0  0  0
   17.0365    1.6301    3.7089 C   0  0  0  0  0  0  0  0  0  0  0  0
   17.9129    1.2606    3.7029 H   0  0  0  0  0  0  0  0  0  0  0  0
   16.7654    2.6904    4.5840 C   0  0  0  0  0  0  0  0  0  0  0  0
   17.4319    3.0399    5.1646 H   0  0  0  0  0  0  0  0  0  0  0  0
   16.3970   -0.0638    1.8914 C   0  0  0  0  0  0  0  0  0  0  0  0
   15.3895   -1.1960    2.1015 C   0  0  0  0  0  0  0  0  0  0  0  0
   14.4792   -0.8482    1.9902 H   0  0  0  0  0  0  0  0  0  0  0  0
   15.4919   -1.5603    3.0047 H   0  0  0  0  0  0  0  0  0  0  0  0
   15.5508   -1.9026    1.4423 H   0  0  0  0  0  0  0  0  0  0  0  0
   17.7940   -0.6467    2.1051 C   0  0  0  0  0  0  0  0  0  0  0  0
   17.9310   -1.3988    1.4900 H   0  0  0  0  0  0  0  0  0  0  0  0
   17.8793   -0.9609    3.0295 H   0  0  0  0  0  0  0  0  0  0  0  0
   18.4660    0.0446    1.9301 H   0  0  0  0  0  0  0  0  0  0  0  0
   16.3092    0.4422    0.4562 C   0  0  0  0  0  0  0  0  0  0  0  0
   15.4170    0.8142    0.2952 H   0  0  0  0  0  0  0  0  0  0  0  0
   16.4700   -0.2997   -0.1626 H   0  0  0  0  0  0  0  0  0  0  0  0
   16.9838    1.1373    0.3128 H   0  0  0  0  0  0  0  0  0  0  0  0
  1  2  1  0  0  0  0
  2 44  1  0  0  0  0
  3  4  1  0  0  0  0
  4  1  1  0  0  0  0
  5  1  1  0  0  0  0
  6  4  1  0  0  0  0
  7  1  1  0  0  0  0
  8  7  1  0  0  0  0
  9  7  1  0  0  0  0
 10  5  1  0  0  0  0
 11 10  1  0  0  0  0
 12 10  1  0  0  0  0
 13 12  1  0  0  0  0
 14 12  1  0  0  0  0
 15 12  1  0  0  0  0
 16 15  1  0  0  0  0
 17 15  1  0  0  0  0
 18 15  1  0  0  0  0
 19 18  1  0  0  0  0
 20 18  1  0  0  0  0
 21 18  1  0  0  0  0
 22 21  1  0  0  0  0
 23 21  1  0  0  0  0
 24 10  1  0  0  0  0
 25 24  1  0  0  0  0
 26 24  1  0  0  0  0
 27  5  1  0  0  0  0
 28 27  1  0  0  0  0
 29 27  1  0  0  0  0
 30 29  1  0  0  0  0
 31 29  1  0  0  0  0
 32 29  1  0  0  0  0
 33 32  1  0  0  0  0
 34 32  1  0  0  0  0
 35 32  1  0  0  0  0
 36 35  1  0  0  0  0
 37 35  1  0  0  0  0
 38 35  1  0  0  0  0
 39 38  1  0  0  0  0
 40 38  1  0  0  0  0
 41 27  1  0  0  0  0
 42 41  1  0  0  0  0
 43 41  1  0  0  0  0
 44 45  1  0  0  0  0
 46 44  1  0  0  0  0
 47 46  1  0  0  0  0
 48 46  1  0  0  0  0
 49 46  1  0  0  0  0
 50 49  1  0  0  0  0
 51 49  1  0  0  0  0
 52 49  1  0  0  0  0
 53 52  1  0  0  0  0
 54 52  1  0  0  0  0
 55 52  1  0  0  0  0
 56 55  1  0  0  0  0
 57 55  1  0  0  0  0
 58 44  1  0  0  0  0
 59 58  1  0  0  0  0
 60 58  1  0  0  0  0
 61  2  1  0  0  0  0
 62 61  1  0  0  0  0
 63 61  1  0  0  0  0
 64 63  1  0  0  0  0
 65 63  1  0  0  0  0
 66 63  1  0  0  0  0
 67 66  1  0  0  0  0
 68 66  1  0  0  0  0
 69 66  1  0  0  0  0
 70 69  1  0  0  0  0
 71 69  1  0  0  0  0
 72 69  1  0  0  0  0
 73 72  1  0  0  0  0
 74 72  1  0  0  0  0
 75 61  1  0  0  0  0
 76 75  1  0  0  0  0
 77 75  1  0  0  0  0
 78  2  1  0  0  0  0
 79 78  1  0  0  0  0
 80 78  1  0  0  0  0
 81 80  1  0  0  0  0
 82 80  1  0  0  0  0
 83 80  1  0  0  0  0
 84 83  1  0  0  0  0
 85 83  1  0  0  0  0
 86 83  1  0  0  0  0
 87 86  1  0  0  0  0
 88 86  1  0  0  0  0
 89 86  1  0  0  0  0
 90 89  1  0  0  0  0
 91 89  1  0  0  0  0
 92 78  1  0  0  0  0
 93 92  1  0  0  0  0
 94 92  1  0  0  0  0
 95  5  1  0  0  0  0
 96 95  1  0  0  0  0
 97 95  1  0  0  0  0
 98 97  1  0  0  0  0
 99 97  1  0  0  0  0
100 97  1  0  0  0  0
101100  1  0  0  0  0
102100  1  0  0  0  0
103100  1  0  0  0  0
104103  1  0  0  0  0
105103  1  0  0  0  0
106103  1  0  0  0  0
107106  1  0  0  0  0
108106  1  0  0  0  0
109 95  1  0  0  0  0
110109  1  0  0  0  0
111109  1  0  0  0  0
112  6  1  0  0  0  0
113  3  1  0  0  0  0
114113  4  0  0  0  0
115114  1  0  0  0  0
116114  4  0  0  0  0
117116  4  0  0  0  0
118117  1  0  0  0  0
119112  4  0  0  0  0
120119  1  0  0  0  0
121116  1  0  0  0  0
122121  1  0  0  0  0
123122  1  0  0  0  0
124122  1  0  0  0  0
125122  1  0  0  0  0
126121  1  0  0  0  0
127126  1  0  0  0  0
128126  1  0  0  0  0
129126  1  0  0  0  0
130121  1  0  0  0  0
131130  1  0  0  0  0
132130  1  0  0  0  0
133130  1  0  0  0  0
134  8  1  0  0  0  0
135  9  1  0  0  0  0
136135  4  0  0  0  0
137136  1  0  0  0  0
138136  4  0  0  0  0
139138  4  0  0  0  0
140139  1  0  0  0  0
141134  4  0  0  0  0
142141  1  0  0  0  0
143138  1  0  0  0  0
144143  1  0  0  0  0
145144  1  0  0  0  0
146144  1  0  0  0  0
147144  1  0  0  0  0
148143  1  0  0  0  0
149148  1  0  0  0  0
150148  1  0  0  0  0
151148  1  0  0  0  0
152143  1  0  0  0  0
153152  1  0  0  0  0
154152  1  0  0  0  0
155152  1  0  0  0  0
 21 24  1  0  0  0  0
 38 41  1  0  0  0  0
 55 58  1  0  0  0  0
 72 75  1  0  0  0  0
 89 92  1  0  0  0  0
106109  1  0  0  0  0
112113  4  0  0  0  0
117119  4  0  0  0  0
134135  4  0  0  0  0
139141  4  0  0  0  0
M  END
$$$$
UCEGAO

From CSD data. Using bond type 'Any'. No disordered atoms. Largest molecule.
199218  0  0  0  0  0  0  0  0999 V2000
    5.0049   11.4231   10.2654 Pd  0  0  0  0  0  0  0  0  0  0  0  0
    6.6710    9.1554    4.1195 P   0  0  0  0  0  0  0  0  0  0  0  0
    3.0898   12.3778    9.4196 P   0  0  0  0  0  0  0  0  0  0  0  0
    6.6024   13.0092   10.8255 P   0  0  0  0  0  0  0  0  0  0  0  0
    6.0282   11.2164    7.2964 O   0  0  0  0  0  0  0  0  0  0  0  0
    3.5712   11.1301    7.0060 N   0  0  0  0  0  0  0  0  0  0  0  0
    4.7449    9.3616    6.1281 N   0  0  0  0  0  0  0  0  0  0  0  0
    6.3259   14.6810    8.6646 N   0  0  0  0  0  0  0  0  0  0  0  0
    5.7841   14.0828    8.3686 H   0  0  0  0  0  0  0  0  0  0  0  0
    2.6603   10.1877    6.5256 C   0  0  0  0  0  0  0  0  0  0  0  0
    3.1844   12.4121    7.5634 C   0  0  0  0  0  0  0  0  0  0  0  0
    2.3198   12.6668    7.2056 H   0  0  0  0  0  0  0  0  0  0  0  0
    3.8289   13.0843    7.2906 H   0  0  0  0  0  0  0  0  0  0  0  0
    5.6160    8.6135    2.7224 C   0  0  0  0  0  0  0  0  0  0  0  0
    6.1589   15.9098    7.9936 C   0  0  0  0  0  0  0  0  0  0  0  0
    3.3672    9.1204    5.9763 C   0  0  0  0  0  0  0  0  0  0  0  0
    1.2706   10.1805    6.5755 C   0  0  0  0  0  0  0  0  0  0  0  0
    0.7945   10.8893    6.9399 H   0  0  0  0  0  0  0  0  0  0  0  0
    2.9209   15.1676    8.8928 C   0  0  0  0  0  0  0  0  0  0  0  0
    3.1887   14.9854    8.0212 H   0  0  0  0  0  0  0  0  0  0  0  0
    5.7747    8.4873    5.6074 C   0  0  0  0  0  0  0  0  0  0  0  0
    5.3705    7.6376    5.3706 H   0  0  0  0  0  0  0  0  0  0  0  0
    6.4223    8.3178    6.3096 H   0  0  0  0  0  0  0  0  0  0  0  0
    1.4038   11.6965    9.6794 C   0  0  0  0  0  0  0  0  0  0  0  0
    8.4221   12.8026   10.6936 C   0  0  0  0  0  0  0  0  0  0  0  0
    2.7393   14.1391    9.7801 C   0  0  0  0  0  0  0  0  0  0  0  0
    6.3464   14.6970   10.1303 C   0  0  0  0  0  0  0  0  0  0  0  0
    5.5075   15.0560   10.4574 H   0  0  0  0  0  0  0  0  0  0  0  0
    7.0601   15.2807   10.4327 H   0  0  0  0  0  0  0  0  0  0  0  0
    4.9888    7.3764    2.6471 C   0  0  0  0  0  0  0  0  0  0  0  0
    5.1385    6.7380    3.3083 H   0  0  0  0  0  0  0  0  0  0  0  0
    2.7063   16.4896    9.2898 C   0  0  0  0  0  0  0  0  0  0  0  0
    2.8129   17.1783    8.6746 H   0  0  0  0  0  0  0  0  0  0  0  0
    8.0309    7.9003    4.0831 C   0  0  0  0  0  0  0  0  0  0  0  0
    5.4028    9.5231    1.7044 C   0  0  0  0  0  0  0  0  0  0  0  0
    5.8212   10.3527    1.7265 H   0  0  0  0  0  0  0  0  0  0  0  0
    4.8830   10.6025    6.8210 B   0  0  0  0  0  0  0  0  0  0  0  0
    2.3401   14.4544   11.0701 C   0  0  0  0  0  0  0  0  0  0  0  0
    2.2174   13.7703   11.6904 H   0  0  0  0  0  0  0  0  0  0  0  0
    6.4314   13.4163   12.6081 C   0  0  0  0  0  0  0  0  0  0  0  0
    0.6248    9.0622    6.0531 C   0  0  0  0  0  0  0  0  0  0  0  0
   -0.3043    9.0233    6.0841 H   0  0  0  0  0  0  0  0  0  0  0  0
    6.2743   17.1275    8.6389 C   0  0  0  0  0  0  0  0  0  0  0  0
    6.4393   17.1323    9.5547 H   0  0  0  0  0  0  0  0  0  0  0  0
    2.6962    8.0338    5.4227 C   0  0  0  0  0  0  0  0  0  0  0  0
    3.1585    7.3377    5.0136 H   0  0  0  0  0  0  0  0  0  0  0  0
    1.2806   10.4764   10.2967 C   0  0  0  0  0  0  0  0  0  0  0  0
    2.0372   10.0405   10.6185 H   0  0  0  0  0  0  0  0  0  0  0  0
    4.1490    7.0950    1.6023 C   0  0  0  0  0  0  0  0  0  0  0  0
    3.7211    6.2695    1.5765 H   0  0  0  0  0  0  0  0  0  0  0  0
    8.9358   11.5995   11.0788 C   0  0  0  0  0  0  0  0  0  0  0  0
    8.3602   10.8921   11.2684 H   0  0  0  0  0  0  0  0  0  0  0  0
    1.3111    8.0313    5.4986 C   0  0  0  0  0  0  0  0  0  0  0  0
    0.8404    7.3024    5.1643 H   0  0  0  0  0  0  0  0  0  0  0  0
    8.8446    7.7742    5.1834 C   0  0  0  0  0  0  0  0  0  0  0  0
    8.6820    8.3015    5.9309 H   0  0  0  0  0  0  0  0  0  0  0  0
    6.1562   18.3379    7.9793 C   0  0  0  0  0  0  0  0  0  0  0  0
    6.2473   19.1382    8.4441 H   0  0  0  0  0  0  0  0  0  0  0  0
    2.3380   16.7831   10.5943 C   0  0  0  0  0  0  0  0  0  0  0  0
    2.2429   17.6664   10.8722 H   0  0  0  0  0  0  0  0  0  0  0  0
    0.2646   12.3587    9.2372 C   0  0  0  0  0  0  0  0  0  0  0  0
    0.3334   13.2027    8.8546 H   0  0  0  0  0  0  0  0  0  0  0  0
    2.1175   15.7692   11.4553 C   0  0  0  0  0  0  0  0  0  0  0  0
    1.8142   15.9526   12.3163 H   0  0  0  0  0  0  0  0  0  0  0  0
    8.3073    7.1120    2.9944 C   0  0  0  0  0  0  0  0  0  0  0  0
    7.7753    7.1705    2.2334 H   0  0  0  0  0  0  0  0  0  0  0  0
    3.9267    7.9707    0.6217 C   0  0  0  0  0  0  0  0  0  0  0  0
    3.3480    7.7566   -0.0738 H   0  0  0  0  0  0  0  0  0  0  0  0
    9.2905   13.8286   10.3083 C   0  0  0  0  0  0  0  0  0  0  0  0
    8.9624   14.6372    9.9856 H   0  0  0  0  0  0  0  0  0  0  0  0
   10.3175   11.4175   11.1956 C   0  0  0  0  0  0  0  0  0  0  0  0
   10.6494   10.5957   11.4760 H   0  0  0  0  0  0  0  0  0  0  0  0
   -0.9722   11.7523    9.3715 C   0  0  0  0  0  0  0  0  0  0  0  0
   -1.7320   12.1698    9.0372 H   0  0  0  0  0  0  0  0  0  0  0  0
    9.9090    6.8719    5.2038 C   0  0  0  0  0  0  0  0  0  0  0  0
   10.4587    6.8094    5.9508 H   0  0  0  0  0  0  0  0  0  0  0  0
   -1.0770   10.5492    9.9902 C   0  0  0  0  0  0  0  0  0  0  0  0
   -1.9157   10.1661   10.1070 H   0  0  0  0  0  0  0  0  0  0  0  0
    0.0291    9.8918   10.4397 C   0  0  0  0  0  0  0  0  0  0  0  0
   -0.0538    9.0565   10.8390 H   0  0  0  0  0  0  0  0  0  0  0  0
    4.5557    9.1932    0.6450 C   0  0  0  0  0  0  0  0  0  0  0  0
    4.4196    9.7993   -0.0477 H   0  0  0  0  0  0  0  0  0  0  0  0
    9.3764    6.2266    3.0149 C   0  0  0  0  0  0  0  0  0  0  0  0
    9.5748    5.7238    2.2597 H   0  0  0  0  0  0  0  0  0  0  0  0
    5.8881   13.8699   15.3020 C   0  0  0  0  0  0  0  0  0  0  0  0
    5.7068   14.0272   16.2007 H   0  0  0  0  0  0  0  0  0  0  0  0
    7.4719   13.6249   13.4399 C   0  0  0  0  0  0  0  0  0  0  0  0
    8.3472   13.6689   13.1269 H   0  0  0  0  0  0  0  0  0  0  0  0
   11.1740   12.4121   10.9096 C   0  0  0  0  0  0  0  0  0  0  0  0
   12.0882   12.2980   11.0392 H   0  0  0  0  0  0  0  0  0  0  0  0
   10.1286    6.0908    4.1298 C   0  0  0  0  0  0  0  0  0  0  0  0
   10.8040    5.4534    4.1543 H   0  0  0  0  0  0  0  0  0  0  0  0
    7.1530   13.7753   14.8554 C   0  0  0  0  0  0  0  0  0  0  0  0
    7.8507   13.8104   15.4690 H   0  0  0  0  0  0  0  0  0  0  0  0
   10.6782   13.6079   10.4192 C   0  0  0  0  0  0  0  0  0  0  0  0
   11.2710   14.2750   10.1598 H   0  0  0  0  0  0  0  0  0  0  0  0
    5.2112   13.3993   13.1335 C   0  0  0  0  0  0  0  0  0  0  0  0
    4.4930   13.1541   12.5948 H   0  0  0  0  0  0  0  0  0  0  0  0
    4.9727   13.7365   14.4760 C   0  0  0  0  0  0  0  0  0  0  0  0
    4.0960   13.8669   14.7567 H   0  0  0  0  0  0  0  0  0  0  0  0
    5.3853    9.1554   10.4732 P   0  0  0  0  0  0  0  0  0  0  0  0
    8.9666   12.3778    5.1731 P   0  0  0  0  0  0  0  0  0  0  0  0
    8.4851   11.1301    7.5868 N   0  0  0  0  0  0  0  0  0  0  0  0
    7.3114    9.3616    8.4647 N   0  0  0  0  0  0  0  0  0  0  0  0
    9.3960   10.1877    8.0672 C   0  0  0  0  0  0  0  0  0  0  0  0
    8.8719   12.4121    7.0293 C   0  0  0  0  0  0  0  0  0  0  0  0
    9.7365   12.6668    7.3872 H   0  0  0  0  0  0  0  0  0  0  0  0
    8.2274   13.0843    7.3022 H   0  0  0  0  0  0  0  0  0  0  0  0
    6.4403    8.6135   11.8703 C   0  0  0  0  0  0  0  0  0  0  0  0
    8.6891    9.1204    8.6164 C   0  0  0  0  0  0  0  0  0  0  0  0
   10.7857   10.1805    8.0173 C   0  0  0  0  0  0  0  0  0  0  0  0
   11.2619   10.8893    7.6529 H   0  0  0  0  0  0  0  0  0  0  0  0
    9.1354   15.1676    5.6999 C   0  0  0  0  0  0  0  0  0  0  0  0
    8.8676   14.9854    6.5716 H   0  0  0  0  0  0  0  0  0  0  0  0
    6.2816    8.4873    8.9853 C   0  0  0  0  0  0  0  0  0  0  0  0
    6.6859    7.6376    9.2222 H   0  0  0  0  0  0  0  0  0  0  0  0
    5.6340    8.3178    8.2832 H   0  0  0  0  0  0  0  0  0  0  0  0
   10.6525   11.6965    4.9134 C   0  0  0  0  0  0  0  0  0  0  0  0
    9.3170   14.1391    4.8127 C   0  0  0  0  0  0  0  0  0  0  0  0
    7.0676    7.3764   11.9456 C   0  0  0  0  0  0  0  0  0  0  0  0
    6.9178    6.7380   11.2845 H   0  0  0  0  0  0  0  0  0  0  0  0
    9.3500   16.4896    5.3030 C   0  0  0  0  0  0  0  0  0  0  0  0
    9.2434   17.1783    5.9182 H   0  0  0  0  0  0  0  0  0  0  0  0
    4.0254    7.9003   10.5097 C   0  0  0  0  0  0  0  0  0  0  0  0
    6.6535    9.5231   12.8883 C   0  0  0  0  0  0  0  0  0  0  0  0
    6.2351   10.3527   12.8662 H   0  0  0  0  0  0  0  0  0  0  0  0
    7.1733   10.6025    7.7718 B   0  0  0  0  0  0  0  0  0  0  0  0
    9.7162   14.4544    3.5227 C   0  0  0  0  0  0  0  0  0  0  0  0
    9.8389   13.7703    2.9024 H   0  0  0  0  0  0  0  0  0  0  0  0
   11.4315    9.0622    8.5397 C   0  0  0  0  0  0  0  0  0  0  0  0
   12.3606    9.0233    8.5086 H   0  0  0  0  0  0  0  0  0  0  0  0
    9.3601    8.0338    9.1701 C   0  0  0  0  0  0  0  0  0  0  0  0
    8.8978    7.3377    9.5792 H   0  0  0  0  0  0  0  0  0  0  0  0
   10.7757   10.4764    4.2961 C   0  0  0  0  0  0  0  0  0  0  0  0
   10.0191   10.0405    3.9743 H   0  0  0  0  0  0  0  0  0  0  0  0
    7.9073    7.0950   12.9905 C   0  0  0  0  0  0  0  0  0  0  0  0
    8.3353    6.2695   13.0163 H   0  0  0  0  0  0  0  0  0  0  0  0
   10.7452    8.0313    9.0942 C   0  0  0  0  0  0  0  0  0  0  0  0
   11.2159    7.3024    9.4285 H   0  0  0  0  0  0  0  0  0  0  0  0
    3.2117    7.7742    9.4094 C   0  0  0  0  0  0  0  0  0  0  0  0
    3.3743    8.3015    8.6618 H   0  0  0  0  0  0  0  0  0  0  0  0
    9.7183   16.7831    3.9984 C   0  0  0  0  0  0  0  0  0  0  0  0
    9.8134   17.6664    3.7206 H   0  0  0  0  0  0  0  0  0  0  0  0
   11.7917   12.3587    5.3555 C   0  0  0  0  0  0  0  0  0  0  0  0
   11.7229   13.2027    5.7381 H   0  0  0  0  0  0  0  0  0  0  0  0
    9.9389   15.7692    3.1374 C   0  0  0  0  0  0  0  0  0  0  0  0
   10.2421   15.9526    2.2764 H   0  0  0  0  0  0  0  0  0  0  0  0
    3.7491    7.1120   11.5983 C   0  0  0  0  0  0  0  0  0  0  0  0
    4.2810    7.1705   12.3594 H   0  0  0  0  0  0  0  0  0  0  0  0
    8.1297    7.9707   13.9711 C   0  0  0  0  0  0  0  0  0  0  0  0
    8.7083    7.7566   14.6665 H   0  0  0  0  0  0  0  0  0  0  0  0
   13.0285   11.7523    5.2213 C   0  0  0  0  0  0  0  0  0  0  0  0
   13.7884   12.1698    5.5556 H   0  0  0  0  0  0  0  0  0  0  0  0
    2.1473    6.8719    9.3890 C   0  0  0  0  0  0  0  0  0  0  0  0
    1.5976    6.8094    8.6420 H   0  0  0  0  0  0  0  0  0  0  0  0
   13.1334   10.5492    4.6026 C   0  0  0  0  0  0  0  0  0  0  0  0
   13.9720   10.1661    4.4857 H   0  0  0  0  0  0  0  0  0  0  0  0
   12.0272    9.8918    4.1531 C   0  0  0  0  0  0  0  0  0  0  0  0
   12.1102    9.0565    3.7537 H   0  0  0  0  0  0  0  0  0  0  0  0
    7.5006    9.1932   13.9478 C   0  0  0  0  0  0  0  0  0  0  0  0
    7.6368    9.7993   14.6405 H   0  0  0  0  0  0  0  0  0  0  0  0
    2.6800    6.2266   11.5779 C   0  0  0  0  0  0  0  0  0  0  0  0
    2.4815    5.7238   12.3330 H   0  0  0  0  0  0  0  0  0  0  0  0
    1.9277    6.0908   10.4630 C   0  0  0  0  0  0  0  0  0  0  0  0
    1.2523    5.4534   10.4384 H   0  0  0  0  0  0  0  0  0  0  0  0
    5.4539   13.0092    3.7673 P   0  0  0  0  0  0  0  0  0  0  0  0
    5.7305   14.6810    5.9282 N   0  0  0  0  0  0  0  0  0  0  0  0
    6.2722   14.0828    6.2242 H   0  0  0  0  0  0  0  0  0  0  0  0
    5.8974   15.9098    6.5991 C   0  0  0  0  0  0  0  0  0  0  0  0
    3.6342   12.8026    3.8992 C   0  0  0  0  0  0  0  0  0  0  0  0
    5.7100   14.6970    4.4625 C   0  0  0  0  0  0  0  0  0  0  0  0
    6.5488   15.0560    4.1354 H   0  0  0  0  0  0  0  0  0  0  0  0
    4.9962   15.2807    4.1601 H   0  0  0  0  0  0  0  0  0  0  0  0
    5.6249   13.4163    1.9846 C   0  0  0  0  0  0  0  0  0  0  0  0
    5.7820   17.1275    5.9538 C   0  0  0  0  0  0  0  0  0  0  0  0
    5.6171   17.1323    5.0381 H   0  0  0  0  0  0  0  0  0  0  0  0
    3.1205   11.5995    3.5139 C   0  0  0  0  0  0  0  0  0  0  0  0
    3.6962   10.8921    3.3244 H   0  0  0  0  0  0  0  0  0  0  0  0
    5.9001   18.3379    6.6134 C   0  0  0  0  0  0  0  0  0  0  0  0
    5.8090   19.1382    6.1487 H   0  0  0  0  0  0  0  0  0  0  0  0
    2.7658   13.8286    4.2844 C   0  0  0  0  0  0  0  0  0  0  0  0
    3.0939   14.6372    4.6072 H   0  0  0  0  0  0  0  0  0  0  0  0
    1.7389   11.4175    3.3972 C   0  0  0  0  0  0  0  0  0  0  0  0
    1.4069   10.5957    3.1168 H   0  0  0  0  0  0  0  0  0  0  0  0
    6.1683   13.8699   -0.7092 C   0  0  0  0  0  0  0  0  0  0  0  0
    6.3495   14.0272   -1.6079 H   0  0  0  0  0  0  0  0  0  0  0  0
    4.5844   13.6249    1.1528 C   0  0  0  0  0  0  0  0  0  0  0  0
    3.7091   13.6689    1.4659 H   0  0  0  0  0  0  0  0  0  0  0  0
    0.8823   12.4121    3.6832 C   0  0  0  0  0  0  0  0  0  0  0  0
   -0.0319   12.2980    3.5535 H   0  0  0  0  0  0  0  0  0  0  0  0
    4.9034   13.7753   -0.2627 C   0  0  0  0  0  0  0  0  0  0  0  0
    4.2056   13.8104   -0.8763 H   0  0  0  0  0  0  0  0  0  0  0  0
    1.3781   13.6079    4.1735 C   0  0  0  0  0  0  0  0  0  0  0  0
    0.7853   14.2750    4.4330 H   0  0  0  0  0  0  0  0  0  0  0  0
    6.8451   13.3993    1.4593 C   0  0  0  0  0  0  0  0  0  0  0  0
    7.5633   13.1541    1.9980 H   0  0  0  0  0  0  0  0  0  0  0  0
    7.0836   13.7365    0.1167 C   0  0  0  0  0  0  0  0  0  0  0  0
    7.9603   13.8669   -0.1640 H   0  0  0  0  0  0  0  0  0  0  0  0
    7.0514   11.4231    4.3273 Pd  0  0  0  0  0  0  0  0  0  0  0  0
  1  3  1  0  0  0  0
  2 14  1  0  0  0  0
  3 11  1  0  0  0  0
  4  1  1  0  0  0  0
  5 37  1  0  0  0  0
  6 10  1  0  0  0  0
  7 16  1  0  0  0  0
  8  9  1  0  0  0  0
 10 16  4  0  0  0  0
 11  6  1  0  0  0  0
 12 11  1  0  0  0  0
 13 11  1  0  0  0  0
 14 30  4  0  0  0  0
 15  8  1  0  0  0  0
 16 45  4  0  0  0  0
 17 10  4  0  0  0  0
 18 17  1  0  0  0  0
 19 20  1  0  0  0  0
 21  2  1  0  0  0  0
 22 21  1  0  0  0  0
 23 21  1  0  0  0  0
 24  3  1  0  0  0  0
 25  4  1  0  0  0  0
 26  3  1  0  0  0  0
 27  4  1  0  0  0  0
 28 27  1  0  0  0  0
 29 27  1  0  0  0  0
 30 31  1  0  0  0  0
 32 19  4  0  0  0  0
 33 32  1  0  0  0  0
 34  2  1  0  0  0  0
 35 14  4  0  0  0  0
 36 35  1  0  0  0  0
 37  6  1  0  0  0  0
 38 26  4  0  0  0  0
 39 38  1  0  0  0  0
 40  4  1  0  0  0  0
 41 17  4  0  0  0  0
 42 41  1  0  0  0  0
 43 15  4  0  0  0  0
 44 43  1  0  0  0  0
 45 46  1  0  0  0  0
 47 24  4  0  0  0  0
 48 47  1  0  0  0  0
 49 30  4  0  0  0  0
 50 49  1  0  0  0  0
 51 25  4  0  0  0  0
 52 51  1  0  0  0  0
 53 41  4  0  0  0  0
 54 53  1  0  0  0  0
 55 34  4  0  0  0  0
 56 55  1  0  0  0  0
 57 43  4  0  0  0  0
 58 57  1  0  0  0  0
 59 32  4  0  0  0  0
 60 59  1  0  0  0  0
 61 24  4  0  0  0  0
 62 61  1  0  0  0  0
 63 38  4  0  0  0  0
 64 63  1  0  0  0  0
 65 34  4  0  0  0  0
 66 65  1  0  0  0  0
 67 49  4  0  0  0  0
 68 67  1  0  0  0  0
 69 25  4  0  0  0  0
 70 69  1  0  0  0  0
 71 51  4  0  0  0  0
 72 71  1  0  0  0  0
 73 61  4  0  0  0  0
 74 73  1  0  0  0  0
 75 55  4  0  0  0  0
 76 75  1  0  0  0  0
 77 73  4  0  0  0  0
 78 77  1  0  0  0  0
 79 47  4  0  0  0  0
 80 79  1  0  0  0  0
 81 35  4  0  0  0  0
 82 81  1  0  0  0  0
 83 65  4  0  0  0  0
 84 83  1  0  0  0  0
 85 86  1  0  0  0  0
 87 40  4  0  0  0  0
 88 87  1  0  0  0  0
 89 71  4  0  0  0  0
 90 89  1  0  0  0  0
 91 75  4  0  0  0  0
 92 91  1  0  0  0  0
 93 85  4  0  0  0  0
 94 93  1  0  0  0  0
 95 69  4  0  0  0  0
 96 95  1  0  0  0  0
 97 40  4  0  0  0  0
 98 97  1  0  0  0  0
 99 85  4  0  0  0  0
100 99  1  0  0  0  0
101  1  1  0  0  0  0
102106  1  0  0  0  0
103105  1  0  0  0  0
104110  1  0  0  0  0
105110  4  0  0  0  0
106103  1  0  0  0  0
107106  1  0  0  0  0
108106  1  0  0  0  0
109101  1  0  0  0  0
110132  4  0  0  0  0
111105  4  0  0  0  0
112111  1  0  0  0  0
113114  1  0  0  0  0
115101  1  0  0  0  0
116115  1  0  0  0  0
117115  1  0  0  0  0
118102  1  0  0  0  0
119102  1  0  0  0  0
120109  4  0  0  0  0
121120  1  0  0  0  0
122113  4  0  0  0  0
123122  1  0  0  0  0
124101  1  0  0  0  0
125109  4  0  0  0  0
126125  1  0  0  0  0
127  5  1  0  0  0  0
128119  4  0  0  0  0
129128  1  0  0  0  0
130111  4  0  0  0  0
131130  1  0  0  0  0
132133  1  0  0  0  0
134118  4  0  0  0  0
135134  1  0  0  0  0
136120  4  0  0  0  0
137136  1  0  0  0  0
138130  4  0  0  0  0
139138  1  0  0  0  0
140124  4  0  0  0  0
141140  1  0  0  0  0
142122  4  0  0  0  0
143142  1  0  0  0  0
144118  4  0  0  0  0
145144  1  0  0  0  0
146128  4  0  0  0  0
147146  1  0  0  0  0
148124  4  0  0  0  0
149148  1  0  0  0  0
150136  4  0  0  0  0
151150  1  0  0  0  0
152144  4  0  0  0  0
153152  1  0  0  0  0
154140  4  0  0  0  0
155154  1  0  0  0  0
156152  4  0  0  0  0
157156  1  0  0  0  0
158134  4  0  0  0  0
159158  1  0  0  0  0
160125  4  0  0  0  0
161160  1  0  0  0  0
162148  4  0  0  0  0
163162  1  0  0  0  0
164154  4  0  0  0  0
165164  1  0  0  0  0
166170  1  0  0  0  0
167168  1  0  0  0  0
169 15  4  0  0  0  0
170177  4  0  0  0  0
171166  1  0  0  0  0
172171  1  0  0  0  0
173171  1  0  0  0  0
174166  1  0  0  0  0
175169  4  0  0  0  0
176175  1  0  0  0  0
177178  1  0  0  0  0
179 57  4  0  0  0  0
180179  1  0  0  0  0
181170  4  0  0  0  0
182181  1  0  0  0  0
183177  4  0  0  0  0
184183  1  0  0  0  0
185186  1  0  0  0  0
187174  4  0  0  0  0
188187  1  0  0  0  0
189183  4  0  0  0  0
190189  1  0  0  0  0
191185  4  0  0  0  0
192191  1  0  0  0  0
193181  4  0  0  0  0
194193  1  0  0  0  0
195174  4  0  0  0  0
196195  1  0  0  0  0
197185  4  0  0  0  0
198197  1  0  0  0  0
199  2  1  0  0  0  0
  7 21  1  0  0  0  0
  7 37  1  0  0  0  0
  8 27  1  0  0  0  0
 19 26  4  0  0  0  0
 45 53  4  0  0  0  0
 59 63  4  0  0  0  0
 67 81  4  0  0  0  0
 77 79  4  0  0  0  0
 83 91  4  0  0  0  0
 87 93  4  0  0  0  0
 89 95  4  0  0  0  0
 97 99  4  0  0  0  0
102199  1  0  0  0  0
103127  1  0  0  0  0
104115  1  0  0  0  0
104127  1  0  0  0  0
113119  4  0  0  0  0
132138  4  0  0  0  0
142146  4  0  0  0  0
150160  4  0  0  0  0
156158  4  0  0  0  0
162164  4  0  0  0  0
166199  1  0  0  0  0
167169  1  0  0  0  0
167171  1  0  0  0  0
175179  4  0  0  0  0
187191  4  0  0  0  0
189193  4  0  0  0  0
195197  4  0  0  0  0
M  END
$$$$
UCITUZ

From CSD data. Using bond type 'Any'. No disordered atoms. Largest molecule.
140158  0  0  0  0  0  0  0  0999 V2000
    3.8140    7.0923    4.9683 Pd  0  0  0  0  0  0  0  0  0  0  0  0
    2.2247    7.0004    7.3073 Pd  0  0  0  0  0  0  0  0  0  0  0  0
    1.5698    8.0208    5.1850 Cl  0  0  0  0  0  0  0  0  0  0  0  0
    3.5965   11.7352    3.2264 P   0  0  0  0  0  0  0  0  0  0  0  0
    5.6976    6.0829    4.4259 P   0  0  0  0  0  0  0  0  0  0  0  0
    4.3847    8.8829    3.9445 O   0  0  0  0  0  0  0  0  0  0  0  0
    6.1858    7.9713    2.4627 N   0  0  0  0  0  0  0  0  0  0  0  0
    5.7171   10.2258    2.3192 N   0  0  0  0  0  0  0  0  0  0  0  0
    3.1982    5.6015    6.2081 O   0  0  0  0  0  0  0  0  0  0  0  0
    6.7237    9.9225    1.4014 C   0  0  0  0  0  0  0  0  0  0  0  0
    7.3956   10.7413    0.5294 C   0  0  0  0  0  0  0  0  0  0  0  0
    7.2330   11.6570    0.4979 H   0  0  0  0  0  0  0  0  0  0  0  0
    3.4420   13.5551    3.2828 C   0  0  0  0  0  0  0  0  0  0  0  0
    2.4572   11.1696    1.9110 C   0  0  0  0  0  0  0  0  0  0  0  0
    5.2622   11.5893    2.4825 C   0  0  0  0  0  0  0  0  0  0  0  0
    5.2551   12.0213    1.6141 H   0  0  0  0  0  0  0  0  0  0  0  0
    5.8966   12.0639    3.0420 H   0  0  0  0  0  0  0  0  0  0  0  0
    7.0095    8.5517    1.4806 C   0  0  0  0  0  0  0  0  0  0  0  0
    8.3334   10.1369   -0.3092 C   0  0  0  0  0  0  0  0  0  0  0  0
    8.7958   10.6707   -0.9135 H   0  0  0  0  0  0  0  0  0  0  0  0
    2.8554   10.7718    0.6580 C   0  0  0  0  0  0  0  0  0  0  0  0
    3.7611   10.8022    0.4472 H   0  0  0  0  0  0  0  0  0  0  0  0
    5.7064    4.2529    4.2884 C   0  0  0  0  0  0  0  0  0  0  0  0
    7.1150    6.5320    5.4622 C   0  0  0  0  0  0  0  0  0  0  0  0
    7.9428    7.9823    0.6543 C   0  0  0  0  0  0  0  0  0  0  0  0
    8.1371    7.0751    0.7124 H   0  0  0  0  0  0  0  0  0  0  0  0
    1.0863   11.1292    2.2029 C   0  0  0  0  0  0  0  0  0  0  0  0
    0.7876   11.3775    3.0476 H   0  0  0  0  0  0  0  0  0  0  0  0
    8.6043    8.7985   -0.2845 C   0  0  0  0  0  0  0  0  0  0  0  0
    9.2170    8.4315   -0.8799 H   0  0  0  0  0  0  0  0  0  0  0  0
    6.1555    6.5469    2.6989 C   0  0  0  0  0  0  0  0  0  0  0  0
    7.0310    6.1797    2.4991 H   0  0  0  0  0  0  0  0  0  0  0  0
    5.5203    6.1430    2.0882 H   0  0  0  0  0  0  0  0  0  0  0  0
    2.6439   14.2623    2.3848 C   0  0  0  0  0  0  0  0  0  0  0  0
    2.1222   13.8120    1.7592 H   0  0  0  0  0  0  0  0  0  0  0  0
    4.1922   14.2313    4.2080 C   0  0  0  0  0  0  0  0  0  0  0  0
    4.7211   13.7574    4.8089 H   0  0  0  0  0  0  0  0  0  0  0  0
    6.8561    7.0074    6.7313 C   0  0  0  0  0  0  0  0  0  0  0  0
    5.9855    7.0947    7.0465 H   0  0  0  0  0  0  0  0  0  0  0  0
    1.9729   10.3310   -0.2944 C   0  0  0  0  0  0  0  0  0  0  0  0
    2.2690   10.0519   -1.1306 H   0  0  0  0  0  0  0  0  0  0  0  0
    4.5392    3.6296    3.8876 C   0  0  0  0  0  0  0  0  0  0  0  0
    3.7840    4.1415    3.7070 H   0  0  0  0  0  0  0  0  0  0  0  0
    6.8216    3.4824    4.5098 C   0  0  0  0  0  0  0  0  0  0  0  0
    7.6226    3.8849    4.7567 H   0  0  0  0  0  0  0  0  0  0  0  0
    0.6409   10.3148    0.0260 C   0  0  0  0  0  0  0  0  0  0  0  0
    0.0304   10.0176   -0.6086 H   0  0  0  0  0  0  0  0  0  0  0  0
    0.1775   10.7238    1.2518 C   0  0  0  0  0  0  0  0  0  0  0  0
   -0.7342   10.7268    1.4368 H   0  0  0  0  0  0  0  0  0  0  0  0
    3.4026   16.2966    3.3694 C   0  0  0  0  0  0  0  0  0  0  0  0
    3.3980   17.2267    3.4012 H   0  0  0  0  0  0  0  0  0  0  0  0
    2.6424   15.6433    2.4392 C   0  0  0  0  0  0  0  0  0  0  0  0
    2.1216   16.1300    1.8420 H   0  0  0  0  0  0  0  0  0  0  0  0
    4.4805    2.2512    3.7516 C   0  0  0  0  0  0  0  0  0  0  0  0
    3.6841    1.8363    3.5084 H   0  0  0  0  0  0  0  0  0  0  0  0
    8.4086    6.4304    5.0342 C   0  0  0  0  0  0  0  0  0  0  0  0
    8.5991    6.1273    4.1757 H   0  0  0  0  0  0  0  0  0  0  0  0
    4.1700   15.5900    4.2538 C   0  0  0  0  0  0  0  0  0  0  0  0
    4.6780   16.0400    4.8897 H   0  0  0  0  0  0  0  0  0  0  0  0
    5.3266    9.0072    3.0218 B   0  0  0  0  0  0  0  0  0  0  0  0
    6.7521    2.1209    4.3663 C   0  0  0  0  0  0  0  0  0  0  0  0
    7.5097    1.6098    4.5407 H   0  0  0  0  0  0  0  0  0  0  0  0
    5.6159    1.5012    3.9804 C   0  0  0  0  0  0  0  0  0  0  0  0
    5.5995    0.5785    3.8700 H   0  0  0  0  0  0  0  0  0  0  0  0
    7.9490    7.3533    7.5229 C   0  0  0  0  0  0  0  0  0  0  0  0
    7.7771    7.6790    8.3770 H   0  0  0  0  0  0  0  0  0  0  0  0
    9.2088    7.2518    7.1494 C   0  0  0  0  0  0  0  0  0  0  0  0
    9.9098    7.4880    7.7120 H   0  0  0  0  0  0  0  0  0  0  0  0
    9.4215    6.7803    5.8927 C   0  0  0  0  0  0  0  0  0  0  0  0
   10.2993    6.6915    5.5989 H   0  0  0  0  0  0  0  0  0  0  0  0
    1.9809   10.4543    7.4008 Pd  0  0  0  0  0  0  0  0  0  0  0  0
    3.5702   10.5461    5.0618 Pd  0  0  0  0  0  0  0  0  0  0  0  0
    4.2251    9.5258    7.1841 Cl  0  0  0  0  0  0  0  0  0  0  0  0
    2.1984    5.8114    9.1428 P   0  0  0  0  0  0  0  0  0  0  0  0
    0.0973   11.4637    7.9432 P   0  0  0  0  0  0  0  0  0  0  0  0
    1.4102    8.6636    8.4246 O   0  0  0  0  0  0  0  0  0  0  0  0
   -0.3909    9.5753    9.9065 N   0  0  0  0  0  0  0  0  0  0  0  0
    0.0778    7.3208   10.0499 N   0  0  0  0  0  0  0  0  0  0  0  0
    2.5967   11.9451    6.1611 O   0  0  0  0  0  0  0  0  0  0  0  0
   -0.9288    7.6241   10.9677 C   0  0  0  0  0  0  0  0  0  0  0  0
   -1.6006    6.8053   11.8397 C   0  0  0  0  0  0  0  0  0  0  0  0
   -1.4381    5.8896   11.8713 H   0  0  0  0  0  0  0  0  0  0  0  0
    2.3530    3.9915    9.0864 C   0  0  0  0  0  0  0  0  0  0  0  0
    3.3377    6.3769   10.4581 C   0  0  0  0  0  0  0  0  0  0  0  0
    0.5327    5.9573    9.8867 C   0  0  0  0  0  0  0  0  0  0  0  0
    0.5398    5.5253   10.7550 H   0  0  0  0  0  0  0  0  0  0  0  0
   -0.1017    5.4826    9.3272 H   0  0  0  0  0  0  0  0  0  0  0  0
   -1.2146    8.9948   10.8886 C   0  0  0  0  0  0  0  0  0  0  0  0
   -2.5385    7.4097   12.6784 C   0  0  0  0  0  0  0  0  0  0  0  0
   -3.0009    6.8758   13.2826 H   0  0  0  0  0  0  0  0  0  0  0  0
    2.9395    6.7747   11.7111 C   0  0  0  0  0  0  0  0  0  0  0  0
    2.0338    6.7444   11.9220 H   0  0  0  0  0  0  0  0  0  0  0  0
    0.0885   13.2936    8.0808 C   0  0  0  0  0  0  0  0  0  0  0  0
   -1.3201   11.0146    6.9069 C   0  0  0  0  0  0  0  0  0  0  0  0
   -2.1479    9.5642   11.7148 C   0  0  0  0  0  0  0  0  0  0  0  0
   -2.3422   10.4715   11.6568 H   0  0  0  0  0  0  0  0  0  0  0  0
    4.7086    6.4173   10.1662 C   0  0  0  0  0  0  0  0  0  0  0  0
    5.0073    6.1691    9.3215 H   0  0  0  0  0  0  0  0  0  0  0  0
   -2.8094    8.7480   12.6536 C   0  0  0  0  0  0  0  0  0  0  0  0
   -3.4221    9.1151   13.2491 H   0  0  0  0  0  0  0  0  0  0  0  0
   -0.3606   10.9996    9.6702 C   0  0  0  0  0  0  0  0  0  0  0  0
   -1.2361   11.3668    9.8700 H   0  0  0  0  0  0  0  0  0  0  0  0
    0.2746   11.4036   10.2809 H   0  0  0  0  0  0  0  0  0  0  0  0
    3.1510    3.2842    9.9844 C   0  0  0  0  0  0  0  0  0  0  0  0
    3.6727    3.7345   10.6099 H   0  0  0  0  0  0  0  0  0  0  0  0
    1.6027    3.3153    8.1612 C   0  0  0  0  0  0  0  0  0  0  0  0
    1.0738    3.7891    7.5603 H   0  0  0  0  0  0  0  0  0  0  0  0
   -1.0611   10.5392    5.6379 C   0  0  0  0  0  0  0  0  0  0  0  0
   -0.1906   10.4519    5.3226 H   0  0  0  0  0  0  0  0  0  0  0  0
    3.8220    7.2155   12.6635 C   0  0  0  0  0  0  0  0  0  0  0  0
    3.5259    7.4947   13.4997 H   0  0  0  0  0  0  0  0  0  0  0  0
    1.2557   13.9169    8.4815 C   0  0  0  0  0  0  0  0  0  0  0  0
    2.0109   13.4050    8.6621 H   0  0  0  0  0  0  0  0  0  0  0  0
   -1.0267   14.0641    7.8594 C   0  0  0  0  0  0  0  0  0  0  0  0
   -1.8277   13.6616    7.6125 H   0  0  0  0  0  0  0  0  0  0  0  0
    5.1540    7.2318   12.3432 C   0  0  0  0  0  0  0  0  0  0  0  0
    5.7645    7.5289   12.9777 H   0  0  0  0  0  0  0  0  0  0  0  0
    5.6174    6.8228   11.1174 C   0  0  0  0  0  0  0  0  0  0  0  0
    6.5291    6.8198   10.9324 H   0  0  0  0  0  0  0  0  0  0  0  0
    2.3923    1.2500    8.9998 C   0  0  0  0  0  0  0  0  0  0  0  0
    2.3969    0.3199    8.9680 H   0  0  0  0  0  0  0  0  0  0  0  0
    3.1525    1.9033    9.9300 C   0  0  0  0  0  0  0  0  0  0  0  0
    3.6733    1.4165   10.5272 H   0  0  0  0  0  0  0  0  0  0  0  0
    1.3144   15.2954    8.6176 C   0  0  0  0  0  0  0  0  0  0  0  0
    2.1108   15.7103    8.8608 H   0  0  0  0  0  0  0  0  0  0  0  0
   -2.6137   11.1161    7.3349 C   0  0  0  0  0  0  0  0  0  0  0  0
   -2.8042   11.4192    8.1934 H   0  0  0  0  0  0  0  0  0  0  0  0
    1.6249    1.9566    8.1154 C   0  0  0  0  0  0  0  0  0  0  0  0
    1.1169    1.5065    7.4795 H   0  0  0  0  0  0  0  0  0  0  0  0
    0.4683    8.5393    9.3474 B   0  0  0  0  0  0  0  0  0  0  0  0
   -0.9572   15.4257    8.0028 C   0  0  0  0  0  0  0  0  0  0  0  0
   -1.7148   15.9367    7.8284 H   0  0  0  0  0  0  0  0  0  0  0  0
    0.1791   16.0454    8.3888 C   0  0  0  0  0  0  0  0  0  0  0  0
    0.1954   16.9680    8.4991 H   0  0  0  0  0  0  0  0  0  0  0  0
   -2.1541   10.1932    4.8462 C   0  0  0  0  0  0  0  0  0  0  0  0
   -1.9822    9.8676    3.9922 H   0  0  0  0  0  0  0  0  0  0  0  0
   -3.4138   10.2948    5.2198 C   0  0  0  0  0  0  0  0  0  0  0  0
   -4.1149   10.0585    4.6571 H   0  0  0  0  0  0  0  0  0  0  0  0
   -3.6266   10.7663    6.4765 C   0  0  0  0  0  0  0  0  0  0  0  0
   -4.5044   10.8551    6.7702 H   0  0  0  0  0  0  0  0  0  0  0  0
  1  3  1  0  0  0  0
  2  3  1  0  0  0  0
  4 13  1  0  0  0  0
  5  1  1  0  0  0  0
  6  1  1  0  0  0  0
  7 18  1  0  0  0  0
  8 10  1  0  0  0  0
  9  1  1  0  0  0  0
 10 11  4  0  0  0  0
 11 12  1  0  0  0  0
 13 34  4  0  0  0  0
 14  4  1  0  0  0  0
 15  4  1  0  0  0  0
 16 15  1  0  0  0  0
 17 15  1  0  0  0  0
 18 10  4  0  0  0  0
 19 11  4  0  0  0  0
 20 19  1  0  0  0  0
 21 14  4  0  0  0  0
 22 21  1  0  0  0  0
 23  5  1  0  0  0  0
 24  5  1  0  0  0  0
 25 18  4  0  0  0  0
 26 25  1  0  0  0  0
 27 14  4  0  0  0  0
 28 27  1  0  0  0  0
 29 19  4  0  0  0  0
 30 29  1  0  0  0  0
 31  5  1  0  0  0  0
 32 31  1  0  0  0  0
 33 31  1  0  0  0  0
 34 35  1  0  0  0  0
 36 13  4  0  0  0  0
 37 36  1  0  0  0  0
 38 24  4  0  0  0  0
 39 38  1  0  0  0  0
 40 21  4  0  0  0  0
 41 40  1  0  0  0  0
 42 23  4  0  0  0  0
 43 42  1  0  0  0  0
 44 23  4  0  0  0  0
 45 44  1  0  0  0  0
 46 40  4  0  0  0  0
 47 46  1  0  0  0  0
 48 27  4  0  0  0  0
 49 48  1  0  0  0  0
 50 51  1  0  0  0  0
 52 34  4  0  0  0  0
 53 52  1  0  0  0  0
 54 42  4  0  0  0  0
 55 54  1  0  0  0  0
 56 24  4  0  0  0  0
 57 56  1  0  0  0  0
 58 36  4  0  0  0  0
 59 58  1  0  0  0  0
 60  6  1  0  0  0  0
 61 44  4  0  0  0  0
 62 61  1  0  0  0  0
 63 54  4  0  0  0  0
 64 63  1  0  0  0  0
 65 38  4  0  0  0  0
 66 65  1  0  0  0  0
 67 65  4  0  0  0  0
 68 67  1  0  0  0  0
 69 56  4  0  0  0  0
 70 69  1  0  0  0  0
 71 73  1  0  0  0  0
 72  4  1  0  0  0  0
 73 72  1  0  0  0  0
 74  2  1  0  0  0  0
 75 71  1  0  0  0  0
 76  2  1  0  0  0  0
 77 88  1  0  0  0  0
 78 80  1  0  0  0  0
 79 71  1  0  0  0  0
 80 81  4  0  0  0  0
 81 82  1  0  0  0  0
 83 74  1  0  0  0  0
 84 74  1  0  0  0  0
 85 74  1  0  0  0  0
 86 85  1  0  0  0  0
 87 85  1  0  0  0  0
 88 80  4  0  0  0  0
 89 81  4  0  0  0  0
 90 89  1  0  0  0  0
 91 84  4  0  0  0  0
 92 91  1  0  0  0  0
 93 75  1  0  0  0  0
 94 75  1  0  0  0  0
 95 88  4  0  0  0  0
 96 95  1  0  0  0  0
 97 84  4  0  0  0  0
 98 97  1  0  0  0  0
 99 89  4  0  0  0  0
100 99  1  0  0  0  0
101 75  1  0  0  0  0
102101  1  0  0  0  0
103101  1  0  0  0  0
104 83  4  0  0  0  0
105104  1  0  0  0  0
106 83  4  0  0  0  0
107106  1  0  0  0  0
108 94  4  0  0  0  0
109108  1  0  0  0  0
110 91  4  0  0  0  0
111110  1  0  0  0  0
112 93  4  0  0  0  0
113112  1  0  0  0  0
114 93  4  0  0  0  0
115114  1  0  0  0  0
116110  4  0  0  0  0
117116  1  0  0  0  0
118 97  4  0  0  0  0
119118  1  0  0  0  0
120121  1  0  0  0  0
122104  4  0  0  0  0
123122  1  0  0  0  0
124112  4  0  0  0  0
125124  1  0  0  0  0
126 94  4  0  0  0  0
127126  1  0  0  0  0
128106  4  0  0  0  0
129128  1  0  0  0  0
130 76  1  0  0  0  0
131114  4  0  0  0  0
132131  1  0  0  0  0
133124  4  0  0  0  0
134133  1  0  0  0  0
135108  4  0  0  0  0
136135  1  0  0  0  0
137135  4  0  0  0  0
138137  1  0  0  0  0
139126  4  0  0  0  0
140139  1  0  0  0  0
  2  9  1  0  0  0  0
  6 72  1  0  0  0  0
  7 31  1  0  0  0  0
  7 60  1  0  0  0  0
  8 15  1  0  0  0  0
  8 60  1  0  0  0  0
 25 29  4  0  0  0  0
 46 48  4  0  0  0  0
 50 52  4  0  0  0  0
 50 58  4  0  0  0  0
 61 63  4  0  0  0  0
 67 69  4  0  0  0  0
 71 76  1  0  0  0  0
 72 79  1  0  0  0  0
 77101  1  0  0  0  0
 77130  1  0  0  0  0
 78 85  1  0  0  0  0
 78130  1  0  0  0  0
 95 99  4  0  0  0  0
116118  4  0  0  0  0
120122  4  0  0  0  0
120128  4  0  0  0  0
131133  4  0  0  0  0
137139  4  0  0  0  0
M  END
$$$$
UDORIP

From CSD data. Using bond type 'Any'. No disordered atoms. Largest molecule.
133138  0  0  0  0  0  0  0  0999 V2000
    0.0000    0.0000    0.0000 Ca  0  0  0  0  0  0  0  0  0  0  0  0
    2.0839    4.0126    0.5259 P   0  0  0  0  0  0  0  0  0  0  0  0
    2.7597    6.7245    1.7634 Si  0  0  0  0  0  0  0  0  0  0  0  0
    2.4378    4.1385    3.4964 Si  0  0  0  0  0  0  0  0  0  0  0  0
    0.1065   -0.6681    2.2739 O   0  0  0  0  0  0  0  0  0  0  0  0
   -2.0909    1.1532    0.3727 O   0  0  0  0  0  0  0  0  0  0  0  0
    1.5234    2.1791    0.7081 B   0  0  0  0  0  0  0  0  0  0  0  0
    1.5927    1.7681   -0.3465 H   0  0  0  0  0  0  0  0  0  0  0  0
    2.1789    1.5898    1.3114 H   0  0  0  0  0  0  0  0  0  0  0  0
    0.4304    2.1413    1.0544 H   0  0  0  0  0  0  0  0  0  0  0  0
    2.1768    5.0069    1.9202 C   0  0  0  0  0  0  0  0  0  0  0  0
    0.9755    4.6545   -0.7656 C   0  0  0  0  0  0  0  0  0  0  0  0
    0.0730    4.7596   -0.3996 H   0  0  0  0  0  0  0  0  0  0  0  0
    0.9521    4.0269   -1.5170 H   0  0  0  0  0  0  0  0  0  0  0  0
    1.3053    5.5241   -1.0760 H   0  0  0  0  0  0  0  0  0  0  0  0
    3.6815    3.9197   -0.3715 C   0  0  0  0  0  0  0  0  0  0  0  0
    3.9537    4.8204   -0.6466 H   0  0  0  0  0  0  0  0  0  0  0  0
    3.5786    3.3523   -1.1639 H   0  0  0  0  0  0  0  0  0  0  0  0
    4.3649    3.5376    0.2172 H   0  0  0  0  0  0  0  0  0  0  0  0
    4.6005    6.9253    2.1440 C   0  0  0  0  0  0  0  0  0  0  0  0
    4.7904    6.5664    3.0357 H   0  0  0  0  0  0  0  0  0  0  0  0
    4.8377    7.8755    2.1172 H   0  0  0  0  0  0  0  0  0  0  0  0
    5.1267    6.4378    1.4772 H   0  0  0  0  0  0  0  0  0  0  0  0
    2.5880    7.4821    0.0461 C   0  0  0  0  0  0  0  0  0  0  0  0
    3.1042    6.9535   -0.5969 H   0  0  0  0  0  0  0  0  0  0  0  0
    2.9255    8.4022    0.0597 H   0  0  0  0  0  0  0  0  0  0  0  0
    1.6431    7.4843   -0.2172 H   0  0  0  0  0  0  0  0  0  0  0  0
    1.8308    7.9289    2.8772 C   0  0  0  0  0  0  0  0  0  0  0  0
    0.8669    7.8299    2.7323 H   0  0  0  0  0  0  0  0  0  0  0  0
    2.1012    8.8460    2.6626 H   0  0  0  0  0  0  0  0  0  0  0  0
    2.0425    7.7359    3.8149 H   0  0  0  0  0  0  0  0  0  0  0  0
    2.6605    5.3361    4.9460 C   0  0  0  0  0  0  0  0  0  0  0  0
    3.3988    5.9512    4.7516 H   0  0  0  0  0  0  0  0  0  0  0  0
    2.8647    4.8287    5.7597 H   0  0  0  0  0  0  0  0  0  0  0  0
    1.8356    5.8476    5.0783 H   0  0  0  0  0  0  0  0  0  0  0  0
    3.9947    3.0897    3.5311 C   0  0  0  0  0  0  0  0  0  0  0  0
    3.9024    2.3459    2.8981 H   0  0  0  0  0  0  0  0  0  0  0  0
    4.1292    2.7344    4.4350 H   0  0  0  0  0  0  0  0  0  0  0  0
    4.7659    3.6399    3.2777 H   0  0  0  0  0  0  0  0  0  0  0  0
    1.0219    3.0176    4.0266 C   0  0  0  0  0  0  0  0  0  0  0  0
    0.2267    3.5611    4.2112 H   0  0  0  0  0  0  0  0  0  0  0  0
    1.2782    2.5284    4.8362 H   0  0  0  0  0  0  0  0  0  0  0  0
    0.8232    2.3805    3.3092 H   0  0  0  0  0  0  0  0  0  0  0  0
    1.2264   -1.1571    3.0038 C   0  0  0  0  0  0  0  0  0  0  0  0
    1.8594   -0.4244    3.2081 H   0  0  0  0  0  0  0  0  0  0  0  0
    1.7016   -1.8579    2.4919 H   0  0  0  0  0  0  0  0  0  0  0  0
    0.6318   -1.7308    4.2816 C   0  0  0  0  0  0  0  0  0  0  0  0
    0.3432   -2.6680    4.1515 H   0  0  0  0  0  0  0  0  0  0  0  0
    1.2821   -1.6921    5.0269 H   0  0  0  0  0  0  0  0  0  0  0  0
   -0.5138   -0.8543    4.5333 C   0  0  0  0  0  0  0  0  0  0  0  0
   -0.2330   -0.0221    4.9887 H   0  0  0  0  0  0  0  0  0  0  0  0
   -1.1980   -1.3105    5.0832 H   0  0  0  0  0  0  0  0  0  0  0  0
   -1.0244   -0.5737    3.1658 C   0  0  0  0  0  0  0  0  0  0  0  0
   -1.7180   -1.2331    2.9146 H   0  0  0  0  0  0  0  0  0  0  0  0
   -1.4205    0.3332    3.1252 H   0  0  0  0  0  0  0  0  0  0  0  0
   -2.2797    2.4109    1.1307 C   0  0  0  0  0  0  0  0  0  0  0  0
   -1.7116    2.4040    1.9414 H   0  0  0  0  0  0  0  0  0  0  0  0
   -2.0168    3.1837    0.5720 H   0  0  0  0  0  0  0  0  0  0  0  0
   -3.6352    2.5243    1.4971 C   0  0  0  0  0  0  0  0  0  0  0  0
   -3.9780    3.4242    1.2667 H   0  0  0  0  0  0  0  0  0  0  0  0
   -3.7385    2.3874    2.4720 H   0  0  0  0  0  0  0  0  0  0  0  0
   -4.3705    1.4999    0.7610 C   0  0  0  0  0  0  0  0  0  0  0  0
   -5.0068    1.0409    1.3645 H   0  0  0  0  0  0  0  0  0  0  0  0
   -4.8842    1.9146    0.0232 H   0  0  0  0  0  0  0  0  0  0  0  0
   -3.4201    0.5509    0.2316 C   0  0  0  0  0  0  0  0  0  0  0  0
   -3.6145    0.3650   -0.7212 H   0  0  0  0  0  0  0  0  0  0  0  0
   -3.4668   -0.3000    0.7345 H   0  0  0  0  0  0  0  0  0  0  0  0
   -2.0839   -4.0126   -0.5259 P   0  0  0  0  0  0  0  0  0  0  0  0
   -2.7597   -6.7245   -1.7634 Si  0  0  0  0  0  0  0  0  0  0  0  0
   -2.4378   -4.1385   -3.4964 Si  0  0  0  0  0  0  0  0  0  0  0  0
   -0.1065    0.6681   -2.2739 O   0  0  0  0  0  0  0  0  0  0  0  0
    2.0909   -1.1532   -0.3727 O   0  0  0  0  0  0  0  0  0  0  0  0
   -1.5234   -2.1791   -0.7081 B   0  0  0  0  0  0  0  0  0  0  0  0
   -1.5927   -1.7681    0.3465 H   0  0  0  0  0  0  0  0  0  0  0  0
   -2.1789   -1.5898   -1.3114 H   0  0  0  0  0  0  0  0  0  0  0  0
   -0.4304   -2.1413   -1.0544 H   0  0  0  0  0  0  0  0  0  0  0  0
   -2.1768   -5.0069   -1.9202 C   0  0  0  0  0  0  0  0  0  0  0  0
   -0.9755   -4.6545    0.7656 C   0  0  0  0  0  0  0  0  0  0  0  0
   -0.0730   -4.7596    0.3996 H   0  0  0  0  0  0  0  0  0  0  0  0
   -0.9521   -4.0269    1.5170 H   0  0  0  0  0  0  0  0  0  0  0  0
   -1.3053   -5.5241    1.0760 H   0  0  0  0  0  0  0  0  0  0  0  0
   -3.6815   -3.9197    0.3715 C   0  0  0  0  0  0  0  0  0  0  0  0
   -3.9537   -4.8204    0.6466 H   0  0  0  0  0  0  0  0  0  0  0  0
   -3.5786   -3.3523    1.1639 H   0  0  0  0  0  0  0  0  0  0  0  0
   -4.3649   -3.5376   -0.2172 H   0  0  0  0  0  0  0  0  0  0  0  0
   -4.6005   -6.9253   -2.1440 C   0  0  0  0  0  0  0  0  0  0  0  0
   -4.7904   -6.5664   -3.0357 H   0  0  0  0  0  0  0  0  0  0  0  0
   -4.8377   -7.8755   -2.1172 H   0  0  0  0  0  0  0  0  0  0  0  0
   -5.1267   -6.4378   -1.4772 H   0  0  0  0  0  0  0  0  0  0  0  0
   -2.5880   -7.4821   -0.0461 C   0  0  0  0  0  0  0  0  0  0  0  0
   -3.1042   -6.9535    0.5969 H   0  0  0  0  0  0  0  0  0  0  0  0
   -2.9255   -8.4022   -0.0597 H   0  0  0  0  0  0  0  0  0  0  0  0
   -1.6431   -7.4843    0.2172 H   0  0  0  0  0  0  0  0  0  0  0  0
   -1.8308   -7.9289   -2.8772 C   0  0  0  0  0  0  0  0  0  0  0  0
   -0.8669   -7.8299   -2.7323 H   0  0  0  0  0  0  0  0  0  0  0  0
   -2.1012   -8.8460   -2.6626 H   0  0  0  0  0  0  0  0  0  0  0  0
   -2.0425   -7.7359   -3.8149 H   0  0  0  0  0  0  0  0  0  0  0  0
   -2.6605   -5.3361   -4.9460 C   0  0  0  0  0  0  0  0  0  0  0  0
   -3.3988   -5.9512   -4.7516 H   0  0  0  0  0  0  0  0  0  0  0  0
   -2.8647   -4.8287   -5.7597 H   0  0  0  0  0  0  0  0  0  0  0  0
   -1.8356   -5.8476   -5.0783 H   0  0  0  0  0  0  0  0  0  0  0  0
   -3.9947   -3.0897   -3.5311 C   0  0  0  0  0  0  0  0  0  0  0  0
   -3.9024   -2.3459   -2.8981 H   0  0  0  0  0  0  0  0  0  0  0  0
   -4.1292   -2.7344   -4.4350 H   0  0  0  0  0  0  0  0  0  0  0  0
   -4.7659   -3.6399   -3.2777 H   0  0  0  0  0  0  0  0  0  0  0  0
   -1.0219   -3.0176   -4.0266 C   0  0  0  0  0  0  0  0  0  0  0  0
   -0.2267   -3.5611   -4.2112 H   0  0  0  0  0  0  0  0  0  0  0  0
   -1.2782   -2.5284   -4.8362 H   0  0  0  0  0  0  0  0  0  0  0  0
   -0.8232   -2.3805   -3.3092 H   0  0  0  0  0  0  0  0  0  0  0  0
   -1.2264    1.1571   -3.0038 C   0  0  0  0  0  0  0  0  0  0  0  0
   -1.8594    0.4244   -3.2081 H   0  0  0  0  0  0  0  0  0  0  0  0
   -1.7016    1.8579   -2.4919 H   0  0  0  0  0  0  0  0  0  0  0  0
   -0.6318    1.7308   -4.2816 C   0  0  0  0  0  0  0  0  0  0  0  0
   -0.3432    2.6680   -4.1515 H   0  0  0  0  0  0  0  0  0  0  0  0
   -1.2821    1.6921   -5.0269 H   0  0  0  0  0  0  0  0  0  0  0  0
    0.5138    0.8543   -4.5333 C   0  0  0  0  0  0  0  0  0  0  0  0
    0.2330    0.0221   -4.9887 H   0  0  0  0  0  0  0  0  0  0  0  0
    1.1980    1.3105   -5.0832 H   0  0  0  0  0  0  0  0  0  0  0  0
    1.0244    0.5737   -3.1658 C   0  0  0  0  0  0  0  0  0  0  0  0
    1.7180    1.2331   -2.9146 H   0  0  0  0  0  0  0  0  0  0  0  0
    1.4205   -0.3332   -3.1252 H   0  0  0  0  0  0  0  0  0  0  0  0
    2.2797   -2.4109   -1.1307 C   0  0  0  0  0  0  0  0  0  0  0  0
    1.7116   -2.4040   -1.9414 H   0  0  0  0  0  0  0  0  0  0  0  0
    2.0168   -3.1837   -0.5720 H   0  0  0  0  0  0  0  0  0  0  0  0
    3.6352   -2.5243   -1.4971 C   0  0  0  0  0  0  0  0  0  0  0  0
    3.9780   -3.4242   -1.2667 H   0  0  0  0  0  0  0  0  0  0  0  0
    3.7385   -2.3874   -2.4720 H   0  0  0  0  0  0  0  0  0  0  0  0
    4.3705   -1.4999   -0.7610 C   0  0  0  0  0  0  0  0  0  0  0  0
    5.0068   -1.0409   -1.3645 H   0  0  0  0  0  0  0  0  0  0  0  0
    4.8842   -1.9146   -0.0232 H   0  0  0  0  0  0  0  0  0  0  0  0
    3.4201   -0.5509   -0.2316 C   0  0  0  0  0  0  0  0  0  0  0  0
    3.6145   -0.3650    0.7212 H   0  0  0  0  0  0  0  0  0  0  0  0
    3.4668    0.3000   -0.7345 H   0  0  0  0  0  0  0  0  0  0  0  0
  1  5  1  0  0  0  0
  2  7  1  0  0  0  0
  3 11  1  0  0  0  0
  4 11  1  0  0  0  0
  5 44  1  0  0  0  0
  6  1  1  0  0  0  0
  7  8  1  0  0  0  0
  8  1  1  0  0  0  0
  9  7  1  0  0  0  0
 10  1  1  0  0  0  0
 11  2  1  0  0  0  0
 12  2  1  0  0  0  0
 13 12  1  0  0  0  0
 14 12  1  0  0  0  0
 15 12  1  0  0  0  0
 16  2  1  0  0  0  0
 17 16  1  0  0  0  0
 18 16  1  0  0  0  0
 19 16  1  0  0  0  0
 20  3  1  0  0  0  0
 21 20  1  0  0  0  0
 22 20  1  0  0  0  0
 23 20  1  0  0  0  0
 24  3  1  0  0  0  0
 25 24  1  0  0  0  0
 26 24  1  0  0  0  0
 27 24  1  0  0  0  0
 28  3  1  0  0  0  0
 29 28  1  0  0  0  0
 30 28  1  0  0  0  0
 31 28  1  0  0  0  0
 32  4  1  0  0  0  0
 33 32  1  0  0  0  0
 34 32  1  0  0  0  0
 35 32  1  0  0  0  0
 36  4  1  0  0  0  0
 37 36  1  0  0  0  0
 38 36  1  0  0  0  0
 39 36  1  0  0  0  0
 40  4  1  0  0  0  0
 41 40  1  0  0  0  0
 42 40  1  0  0  0  0
 43 40  1  0  0  0  0
 44 45  1  0  0  0  0
 46 44  1  0  0  0  0
 47 44  1  0  0  0  0
 48 47  1  0  0  0  0
 49 47  1  0  0  0  0
 50 47  1  0  0  0  0
 51 50  1  0  0  0  0
 52 50  1  0  0  0  0
 53  5  1  0  0  0  0
 54 53  1  0  0  0  0
 55 53  1  0  0  0  0
 56  6  1  0  0  0  0
 57 56  1  0  0  0  0
 58 56  1  0  0  0  0
 59 56  1  0  0  0  0
 60 59  1  0  0  0  0
 61 59  1  0  0  0  0
 62 59  1  0  0  0  0
 63 62  1  0  0  0  0
 64 62  1  0  0  0  0
 65  6  1  0  0  0  0
 66 65  1  0  0  0  0
 67 65  1  0  0  0  0
 68 73  1  0  0  0  0
 69 77  1  0  0  0  0
 70 77  1  0  0  0  0
 71  1  1  0  0  0  0
 72  1  1  0  0  0  0
 73 74  1  0  0  0  0
 74  1  1  0  0  0  0
 75 73  1  0  0  0  0
 76  1  1  0  0  0  0
 77 68  1  0  0  0  0
 78 68  1  0  0  0  0
 79 78  1  0  0  0  0
 80 78  1  0  0  0  0
 81 78  1  0  0  0  0
 82 68  1  0  0  0  0
 83 82  1  0  0  0  0
 84 82  1  0  0  0  0
 85 82  1  0  0  0  0
 86 69  1  0  0  0  0
 87 86  1  0  0  0  0
 88 86  1  0  0  0  0
 89 86  1  0  0  0  0
 90 69  1  0  0  0  0
 91 90  1  0  0  0  0
 92 90  1  0  0  0  0
 93 90  1  0  0  0  0
 94 69  1  0  0  0  0
 95 94  1  0  0  0  0
 96 94  1  0  0  0  0
 97 94  1  0  0  0  0
 98 70  1  0  0  0  0
 99 98  1  0  0  0  0
100 98  1  0  0  0  0
101 98  1  0  0  0  0
102 70  1  0  0  0  0
103102  1  0  0  0  0
104102  1  0  0  0  0
105102  1  0  0  0  0
106 70  1  0  0  0  0
107106  1  0  0  0  0
108106  1  0  0  0  0
109106  1  0  0  0  0
110 71  1  0  0  0  0
111110  1  0  0  0  0
112110  1  0  0  0  0
113110  1  0  0  0  0
114113  1  0  0  0  0
115113  1  0  0  0  0
116113  1  0  0  0  0
117116  1  0  0  0  0
118116  1  0  0  0  0
119 71  1  0  0  0  0
120119  1  0  0  0  0
121119  1  0  0  0  0
122 72  1  0  0  0  0
123122  1  0  0  0  0
124122  1  0  0  0  0
125122  1  0  0  0  0
126125  1  0  0  0  0
127125  1  0  0  0  0
128125  1  0  0  0  0
129128  1  0  0  0  0
130128  1  0  0  0  0
131 72  1  0  0  0  0
132131  1  0  0  0  0
133131  1  0  0  0  0
  7 10  1  0  0  0  0
 50 53  1  0  0  0  0
 62 65  1  0  0  0  0
 73 76  1  0  0  0  0
116119  1  0  0  0  0
128131  1  0  0  0  0
M  END
$$$$
UFUBAZ

From CSD data. Using bond type 'Any'. No disordered atoms. Largest molecule.
117160  0  0  0  0  0  0  0  0999 V2000
    4.7089    9.1965    4.2663 Ir  0  0  0  0  0  0  0  0  0  0  0  0
    4.7363   10.2109    6.7274 Sn  0  0  0  0  0  0  0  0  0  0  0  0
    6.7262    7.4852    4.3313 Sn  0  0  0  0  0  0  0  0  0  0  0  0
    6.0054   10.9670    3.5075 P   0  0  0  0  0  0  0  0  0  0  0  0
    3.1214    7.6236    4.9044 P   0  0  0  0  0  0  0  0  0  0  0  0
    2.9436    9.7308    1.8822 O   0  0  0  0  0  0  0  0  0  0  0  0
    3.8518    6.5012    7.3494 C   0  0  0  0  0  0  0  0  0  0  0  0
    3.8154    7.3740    7.6696 H   0  0  0  0  0  0  0  0  0  0  0  0
    3.5895    6.2382    6.0016 C   0  0  0  0  0  0  0  0  0  0  0  0
    1.6660    8.3344    5.7528 C   0  0  0  0  0  0  0  0  0  0  0  0
    7.7303   11.1892    4.0609 C   0  0  0  0  0  0  0  0  0  0  0  0
    5.2680   12.6408    3.7926 C   0  0  0  0  0  0  0  0  0  0  0  0
    6.2703   10.9402    1.6919 C   0  0  0  0  0  0  0  0  0  0  0  0
    9.0152    7.5705    3.7905 B   0  5  0  0  0  0  0  0  0  0  0  0
    9.2871    8.5964    3.5049 H   0  0  0  0  0  0  0  0  0  0  0  0
    6.9515   10.8767   -1.0082 C   0  0  0  0  0  0  0  0  0  0  0  0
    7.2102   10.8755   -1.9017 H   0  0  0  0  0  0  0  0  0  0  0  0
    7.3962    9.8961   -0.1601 C   0  0  0  0  0  0  0  0  0  0  0  0
    7.9360    9.2170   -0.4954 H   0  0  0  0  0  0  0  0  0  0  0  0
    7.0649    9.8903    1.1834 C   0  0  0  0  0  0  0  0  0  0  0  0
    7.3589    9.2054    1.7395 H   0  0  0  0  0  0  0  0  0  0  0  0
    5.7626   11.9008    0.8178 C   0  0  0  0  0  0  0  0  0  0  0  0
    5.1900   12.5642    1.1315 H   0  0  0  0  0  0  0  0  0  0  0  0
    1.0682    6.1892    3.5914 C   0  0  0  0  0  0  0  0  0  0  0  0
    0.5550    6.3923    4.3400 H   0  0  0  0  0  0  0  0  0  0  0  0
    3.6321    9.5315    2.7974 C   0  0  0  0  0  0  0  0  0  0  0  0
    2.3480    6.6941    3.4941 C   0  0  0  0  0  0  0  0  0  0  0  0
    4.1675    5.4615    8.2148 C   0  0  0  0  0  0  0  0  0  0  0  0
    4.3151    5.6387    9.1148 H   0  0  0  0  0  0  0  0  0  0  0  0
    1.3474    9.6824    5.5645 C   0  0  0  0  0  0  0  0  0  0  0  0
    1.8667   10.2021    4.9934 H   0  0  0  0  0  0  0  0  0  0  0  0
    3.7121    4.9465    5.5256 C   0  0  0  0  0  0  0  0  0  0  0  0
    3.5664    4.7637    4.6256 H   0  0  0  0  0  0  0  0  0  0  0  0
    3.0745   11.7633    9.4415 B   0  0  0  0  0  0  0  0  0  0  0  0
    2.0674   12.0327    9.7920 H   0  0  0  0  0  0  0  0  0  0  0  0
    1.2895    5.1181    1.4517 C   0  0  0  0  0  0  0  0  0  0  0  0
    0.9352    4.5950    0.7702 H   0  0  0  0  0  0  0  0  0  0  0  0
    0.5338    5.3865    2.5984 C   0  0  0  0  0  0  0  0  0  0  0  0
   -0.3195    5.0297    2.6914 H   0  0  0  0  0  0  0  0  0  0  0  0
    9.2546    5.3896    5.7073 B   0  0  0  0  0  0  0  0  0  0  0  0
    9.6563    5.0347    6.6658 H   0  0  0  0  0  0  0  0  0  0  0  0
    8.6915    7.0638    5.5472 B   0  0  0  0  0  0  0  0  0  0  0  0
    8.7634    7.7676    6.3888 H   0  0  0  0  0  0  0  0  0  0  0  0
    8.1661   10.6831    5.2660 C   0  0  0  0  0  0  0  0  0  0  0  0
    7.5731   10.2183    5.8112 H   0  0  0  0  0  0  0  0  0  0  0  0
    5.0369    9.6591    8.9958 B   0  0  0  0  0  0  0  0  0  0  0  0
    5.3069    8.5972    9.0910 H   0  0  0  0  0  0  0  0  0  0  0  0
    3.1042    6.4163    2.3625 C   0  0  0  0  0  0  0  0  0  0  0  0
    3.9679    6.7500    2.2890 H   0  0  0  0  0  0  0  0  0  0  0  0
    2.5721    5.6407    1.3392 C   0  0  0  0  0  0  0  0  0  0  0  0
    3.0767    5.4692    0.5777 H   0  0  0  0  0  0  0  0  0  0  0  0
    5.7327   10.8852   10.0949 B   0  5  0  0  0  0  0  0  0  0  0  0
    6.4520   10.5832   10.8694 H   0  0  0  0  0  0  0  0  0  0  0  0
    0.8539    7.5768    6.6030 C   0  0  0  0  0  0  0  0  0  0  0  0
    1.0419    6.6767    6.7458 H   0  0  0  0  0  0  0  0  0  0  0  0
    6.0175   13.7798    3.8683 C   0  0  0  0  0  0  0  0  0  0  0  0
    6.9400   13.7249    3.7645 H   0  0  0  0  0  0  0  0  0  0  0  0
    3.3089   10.2309    8.5913 B   0  0  0  0  0  0  0  0  0  0  0  0
    2.4740    9.5334    8.4333 H   0  0  0  0  0  0  0  0  0  0  0  0
    8.6664   11.8783    3.2496 C   0  0  0  0  0  0  0  0  0  0  0  0
    8.3978   12.2068    2.4210 H   0  0  0  0  0  0  0  0  0  0  0  0
    9.7708    6.1778    2.9986 B   0  0  0  0  0  0  0  0  0  0  0  0
   10.5124    6.3394    2.2024 H   0  0  0  0  0  0  0  0  0  0  0  0
    6.1165   11.8636   -0.5279 C   0  0  0  0  0  0  0  0  0  0  0  0
    5.7869   12.5105   -1.1099 H   0  0  0  0  0  0  0  0  0  0  0  0
    4.0585    3.9112    6.4040 C   0  0  0  0  0  0  0  0  0  0  0  0
    4.1517    3.0453    6.0816 H   0  0  0  0  0  0  0  0  0  0  0  0
    8.3028    4.3235    4.6385 B   0  0  0  0  0  0  0  0  0  0  0  0
    8.0916    3.2793    4.9112 H   0  0  0  0  0  0  0  0  0  0  0  0
    7.4960    5.6252    5.5191 B   0  0  0  0  0  0  0  0  0  0  0  0
    6.8073    5.4047    6.3456 H   0  0  0  0  0  0  0  0  0  0  0  0
    8.0440    6.4502    2.6525 B   0  0  0  0  0  0  0  0  0  0  0  0
    7.7093    6.7556    1.6508 H   0  0  0  0  0  0  0  0  0  0  0  0
    4.2119   12.9950    8.8660 B   0  0  0  0  0  0  0  0  0  0  0  0
    3.9515   14.0640    8.8444 H   0  0  0  0  0  0  0  0  0  0  0  0
   -0.2452    8.1723    7.2391 C   0  0  0  0  0  0  0  0  0  0  0  0
   -0.7809    7.6650    7.8038 H   0  0  0  0  0  0  0  0  0  0  0  0
    6.2376   10.9485    8.3966 B   0  0  0  0  0  0  0  0  0  0  0  0
    7.2712   10.7081    8.1066 H   0  0  0  0  0  0  0  0  0  0  0  0
    4.5304   12.1455   10.4021 B   0  0  0  0  0  0  0  0  0  0  0  0
    4.4686   12.6581   11.3714 H   0  0  0  0  0  0  0  0  0  0  0  0
   -0.5331    9.4896    7.0379 C   0  0  0  0  0  0  0  0  0  0  0  0
   -1.2723    9.8698    7.4533 H   0  0  0  0  0  0  0  0  0  0  0  0
    7.0823    5.2431    3.7256 B   0  0  0  0  0  0  0  0  0  0  0  0
    6.1362    4.7860    3.4054 H   0  0  0  0  0  0  0  0  0  0  0  0
   10.1498    6.5343    4.6948 B   0  0  0  0  0  0  0  0  0  0  0  0
   11.1326    6.9259    4.9999 H   0  0  0  0  0  0  0  0  0  0  0  0
    3.8792   12.7376    3.9159 C   0  0  0  0  0  0  0  0  0  0  0  0
    3.3449   11.9787    3.8619 H   0  0  0  0  0  0  0  0  0  0  0  0
    4.2644    4.1644    7.7475 C   0  0  0  0  0  0  0  0  0  0  0  0
    4.4656    3.4677    8.3295 H   0  0  0  0  0  0  0  0  0  0  0  0
    9.9445    4.8647    4.1647 B   0  0  0  0  0  0  0  0  0  0  0  0
   10.7969    4.1711    4.1215 H   0  0  0  0  0  0  0  0  0  0  0  0
    8.6318    4.7957    2.9553 B   0  0  0  0  0  0  0  0  0  0  0  0
    8.6360    4.0578    2.1375 H   0  0  0  0  0  0  0  0  0  0  0  0
    4.0087   10.4552   10.1966 B   0  0  0  0  0  0  0  0  0  0  0  0
    3.6104    9.8720   11.0404 H   0  0  0  0  0  0  0  0  0  0  0  0
    0.2621   10.2575    6.2179 C   0  0  0  0  0  0  0  0  0  0  0  0
    0.0739   11.1610    6.1032 H   0  0  0  0  0  0  0  0  0  0  0  0
   10.3691   11.5627    4.8765 C   0  0  0  0  0  0  0  0  0  0  0  0
   11.2449   11.6934    5.1556 H   0  0  0  0  0  0  0  0  0  0  0  0
    5.8723   12.4509    9.2706 B   0  0  0  0  0  0  0  0  0  0  0  0
    6.6812   13.1583    9.5043 H   0  0  0  0  0  0  0  0  0  0  0  0
    5.2326   12.3196    7.6069 B   0  0  0  0  0  0  0  0  0  0  0  0
    5.6292   12.9604    6.8042 H   0  0  0  0  0  0  0  0  0  0  0  0
    9.9513   12.0699    3.6585 C   0  0  0  0  0  0  0  0  0  0  0  0
   10.5459   12.5391    3.1198 H   0  0  0  0  0  0  0  0  0  0  0  0
    9.4905   10.8623    5.6770 C   0  0  0  0  0  0  0  0  0  0  0  0
    9.7789   10.5113    6.4883 H   0  0  0  0  0  0  0  0  0  0  0  0
    5.4372   15.0037    4.0955 C   0  0  0  0  0  0  0  0  0  0  0  0
    5.9668   15.7646    4.1777 H   0  0  0  0  0  0  0  0  0  0  0  0
    3.4459   11.8901    7.7345 B   0  5  0  0  0  0  0  0  0  0  0  0
    2.6919   12.2572    7.0227 H   0  0  0  0  0  0  0  0  0  0  0  0
    4.0608   15.0989    4.2037 C   0  0  0  0  0  0  0  0  0  0  0  0
    3.6599   15.9286    4.3313 H   0  0  0  0  0  0  0  0  0  0  0  0
    3.3067   14.0000    4.1258 C   0  0  0  0  0  0  0  0  0  0  0  0
    2.3840   14.0739    4.2102 H   0  0  0  0  0  0  0  0  0  0  0  0
  1  2  1  0  0  0  0
  2 46  1  0  0  0  0
  3  1  1  0  0  0  0
  4  1  1  0  0  0  0
  5  1  1  0  0  0  0
  6 26  3  0  0  0  0
  7  8  1  0  0  0  0
  9  5  1  0  0  0  0
 10  5  1  0  0  0  0
 11  4  1  0  0  0  0
 12  4  1  0  0  0  0
 13  4  1  0  0  0  0
 14  3  1  0  0  0  0
 15 14  1  0  0  0  0
 16 17  1  0  0  0  0
 18 16  4  0  0  0  0
 19 18  1  0  0  0  0
 20 13  4  0  0  0  0
 21 20  1  0  0  0  0
 22 13  4  0  0  0  0
 23 22  1  0  0  0  0
 24 25  1  0  0  0  0
 26  1  1  0  0  0  0
 27  5  1  0  0  0  0
 28  7  4  0  0  0  0
 29 28  1  0  0  0  0
 30 10  4  0  0  0  0
 31 30  1  0  0  0  0
 32  9  4  0  0  0  0
 33 32  1  0  0  0  0
 34 35  1  0  0  0  0
 36 37  1  0  0  0  0
 38 24  4  0  0  0  0
 39 38  1  0  0  0  0
 40 41  1  0  0  0  0
 42  3  1  0  0  0  0
 43 42  1  0  0  0  0
 44 11  4  0  0  0  0
 45 44  1  0  0  0  0
 46 47  1  0  0  0  0
 48 27  4  0  0  0  0
 49 48  1  0  0  0  0
 50 36  4  0  0  0  0
 51 50  1  0  0  0  0
 52 46  1  0  0  0  0
 53 52  1  0  0  0  0
 54 10  4  0  0  0  0
 55 54  1  0  0  0  0
 56 12  4  0  0  0  0
 57 56  1  0  0  0  0
 58  2  1  0  0  0  0
 59 58  1  0  0  0  0
 60 11  4  0  0  0  0
 61 60  1  0  0  0  0
 62 14  1  0  0  0  0
 63 62  1  0  0  0  0
 64 16  4  0  0  0  0
 65 64  1  0  0  0  0
 66 32  4  0  0  0  0
 67 66  1  0  0  0  0
 68 40  1  0  0  0  0
 69 68  1  0  0  0  0
 70  3  1  0  0  0  0
 71 70  1  0  0  0  0
 72  3  1  0  0  0  0
 73 72  1  0  0  0  0
 74 34  1  0  0  0  0
 75 74  1  0  0  0  0
 76 54  4  0  0  0  0
 77 76  1  0  0  0  0
 78  2  1  0  0  0  0
 79 78  1  0  0  0  0
 80 34  1  0  0  0  0
 81 80  1  0  0  0  0
 82 76  4  0  0  0  0
 83 82  1  0  0  0  0
 84  3  1  0  0  0  0
 85 84  1  0  0  0  0
 86 14  1  0  0  0  0
 87 86  1  0  0  0  0
 88 12  4  0  0  0  0
 89 88  1  0  0  0  0
 90 28  4  0  0  0  0
 91 90  1  0  0  0  0
 92 40  1  0  0  0  0
 93 92  1  0  0  0  0
 94 62  1  0  0  0  0
 95 94  1  0  0  0  0
 96 34  1  0  0  0  0
 97 96  1  0  0  0  0
 98 30  4  0  0  0  0
 99 98  1  0  0  0  0
100101  1  0  0  0  0
102 52  1  0  0  0  0
103102  1  0  0  0  0
104  2  1  0  0  0  0
105104  1  0  0  0  0
106 60  4  0  0  0  0
107106  1  0  0  0  0
108 44  4  0  0  0  0
109108  1  0  0  0  0
110 56  4  0  0  0  0
111110  1  0  0  0  0
112  2  1  0  0  0  0
113112  1  0  0  0  0
114110  4  0  0  0  0
115114  1  0  0  0  0
116 88  4  0  0  0  0
117116  1  0  0  0  0
  7  9  4  0  0  0  0
 14 42  1  0  0  0  0
 14 72  1  0  0  0  0
 18 20  4  0  0  0  0
 22 64  4  0  0  0  0
 24 27  4  0  0  0  0
 34 58  1  0  0  0  0
 34112  1  0  0  0  0
 36 38  4  0  0  0  0
 40 42  1  0  0  0  0
 40 70  1  0  0  0  0
 40 86  1  0  0  0  0
 42 70  1  0  0  0  0
 42 86  1  0  0  0  0
 46 58  1  0  0  0  0
 46 78  1  0  0  0  0
 46 96  1  0  0  0  0
 48 50  4  0  0  0  0
 52 78  1  0  0  0  0
 52 80  1  0  0  0  0
 52 96  1  0  0  0  0
 58 96  1  0  0  0  0
 58112  1  0  0  0  0
 62 72  1  0  0  0  0
 62 86  1  0  0  0  0
 62 92  1  0  0  0  0
 66 90  4  0  0  0  0
 68 70  1  0  0  0  0
 68 84  1  0  0  0  0
 68 92  1  0  0  0  0
 68 94  1  0  0  0  0
 70 84  1  0  0  0  0
 72 84  1  0  0  0  0
 72 94  1  0  0  0  0
 74 80  1  0  0  0  0
 74102  1  0  0  0  0
 74104  1  0  0  0  0
 74112  1  0  0  0  0
 78102  1  0  0  0  0
 78104  1  0  0  0  0
 80 96  1  0  0  0  0
 80102  1  0  0  0  0
 82 98  4  0  0  0  0
 84 94  1  0  0  0  0
 86 92  1  0  0  0  0
 92 94  1  0  0  0  0
100106  4  0  0  0  0
100108  4  0  0  0  0
102104  1  0  0  0  0
104112  1  0  0  0  0
114116  4  0  0  0  0
M  CHG  3  14  -1  52  -1 112  -1
M  END
$$$$
UFUBED

From CSD data. Using bond type 'Any'. No disordered atoms. Largest molecule.
 96120  0  0  0  0  0  0  0  0999 V2000
    7.7402   11.0251   12.0407 Ir  0  0  0  0  0  0  0  0  0  0  0  0
    8.2069   11.2952    9.4443 Sn  0  0  0  0  0  0  0  0  0  0  0  0
    5.4809   11.6567   11.9679 P   0  0  0  0  0  0  0  0  0  0  0  0
    9.8448   10.2895   12.7517 P   0  0  0  0  0  0  0  0  0  0  0  0
    5.0650   11.0573   14.6402 C   0  0  0  0  0  0  0  0  0  0  0  0
    5.3983   10.2181   14.4129 H   0  0  0  0  0  0  0  0  0  0  0  0
    4.3562   10.3758   11.3088 C   0  0  0  0  0  0  0  0  0  0  0  0
   11.1822   11.5528   12.7219 C   0  0  0  0  0  0  0  0  0  0  0  0
    5.0356   13.1405   11.0240 C   0  0  0  0  0  0  0  0  0  0  0  0
    6.8450    8.1498   12.3932 O   0  0  0  0  0  0  0  0  0  0  0  0
    4.9191   12.0126   13.6571 C   0  0  0  0  0  0  0  0  0  0  0  0
    7.1859    9.2152   12.2248 C   0  0  0  0  0  0  0  0  0  0  0  0
   11.2367    9.0976   10.6543 C   0  0  0  0  0  0  0  0  0  0  0  0
   11.4199    9.9666   10.3763 H   0  0  0  0  0  0  0  0  0  0  0  0
    4.6212    9.8520   10.0655 C   0  0  0  0  0  0  0  0  0  0  0  0
    5.3490   10.1675    9.5808 H   0  0  0  0  0  0  0  0  0  0  0  0
    3.6919   13.4188   10.7488 C   0  0  0  0  0  0  0  0  0  0  0  0
    3.0305   12.8236   11.0199 H   0  0  0  0  0  0  0  0  0  0  0  0
    9.8632    9.7271   14.4978 C   0  0  0  0  0  0  0  0  0  0  0  0
   10.1856    7.5635   12.1742 C   0  0  0  0  0  0  0  0  0  0  0  0
    9.6513    7.4028   12.9177 H   0  0  0  0  0  0  0  0  0  0  0  0
    3.8192    8.8596    9.5246 C   0  0  0  0  0  0  0  0  0  0  0  0
    4.0131    8.5114    8.6853 H   0  0  0  0  0  0  0  0  0  0  0  0
    3.2432    9.9279   12.0290 C   0  0  0  0  0  0  0  0  0  0  0  0
    3.0427   10.2865   12.8629 H   0  0  0  0  0  0  0  0  0  0  0  0
    3.3451   14.5735   10.0805 C   0  0  0  0  0  0  0  0  0  0  0  0
    2.4477   14.7624    9.9313 H   0  0  0  0  0  0  0  0  0  0  0  0
    4.3030   15.4484    9.6314 C   0  0  0  0  0  0  0  0  0  0  0  0
    4.0628   16.2088    9.1536 H   0  0  0  0  0  0  0  0  0  0  0  0
   10.4954    8.8834   11.8072 C   0  0  0  0  0  0  0  0  0  0  0  0
   11.2013   12.5141   11.7278 C   0  0  0  0  0  0  0  0  0  0  0  0
   10.5375   12.5215   11.0774 H   0  0  0  0  0  0  0  0  0  0  0  0
    4.4179   13.2640   14.0117 C   0  0  0  0  0  0  0  0  0  0  0  0
    4.3010   13.9202   13.3641 H   0  0  0  0  0  0  0  0  0  0  0  0
    6.8397   12.1763    7.7555 B   0  0  0  0  0  0  0  0  0  0  0  0
    5.8426   12.4233    8.1499 H   0  0  0  0  0  0  0  0  0  0  0  0
    8.9939    9.9116   16.7229 C   0  0  0  0  0  0  0  0  0  0  0  0
    8.3605   10.2553   17.3103 H   0  0  0  0  0  0  0  0  0  0  0  0
   11.6993    8.0307    9.9190 C   0  0  0  0  0  0  0  0  0  0  0  0
   12.1956    8.1840    9.1467 H   0  0  0  0  0  0  0  0  0  0  0  0
   13.1880   12.5453   13.6516 C   0  0  0  0  0  0  0  0  0  0  0  0
   13.8516   12.5587   14.3034 H   0  0  0  0  0  0  0  0  0  0  0  0
    8.1664   13.6732   13.4421 O   0  0  0  0  0  0  0  0  0  0  0  0
    8.9167   10.2315   15.3796 C   0  0  0  0  0  0  0  0  0  0  0  0
    8.2354   10.7806   15.0688 H   0  0  0  0  0  0  0  0  0  0  0  0
    8.0470   12.6971   12.8985 C   0  0  0  0  0  0  0  0  0  0  0  0
    4.7254   11.3162   15.9547 C   0  0  0  0  0  0  0  0  0  0  0  0
    4.8131   10.6511   16.5996 H   0  0  0  0  0  0  0  0  0  0  0  0
    4.2609   12.5572   16.3039 C   0  0  0  0  0  0  0  0  0  0  0  0
    4.0612   12.7462   17.1925 H   0  0  0  0  0  0  0  0  0  0  0  0
   12.2097   13.4709   11.6977 C   0  0  0  0  0  0  0  0  0  0  0  0
   12.2191   14.1122   11.0240 H   0  0  0  0  0  0  0  0  0  0  0  0
    4.0914   13.5244   15.3385 C   0  0  0  0  0  0  0  0  0  0  0  0
    3.7554   14.3577   15.5768 H   0  0  0  0  0  0  0  0  0  0  0  0
    8.3732   13.2060    8.1156 B   0  0  0  0  0  0  0  0  0  0  0  0
    8.3449   14.1107    8.7400 H   0  0  0  0  0  0  0  0  0  0  0  0
    2.4403    8.9280   11.4690 C   0  0  0  0  0  0  0  0  0  0  0  0
    1.6977    8.6215   11.9359 H   0  0  0  0  0  0  0  0  0  0  0  0
   10.8551    8.8938   14.9825 C   0  0  0  0  0  0  0  0  0  0  0  0
   11.4869    8.5411   14.3978 H   0  0  0  0  0  0  0  0  0  0  0  0
    9.2831   10.3669    7.6035 B   0  0  0  0  0  0  0  0  0  0  0  0
    9.8330    9.4607    7.8979 H   0  0  0  0  0  0  0  0  0  0  0  0
    9.9794    9.1021   17.2007 C   0  0  0  0  0  0  0  0  0  0  0  0
   10.0222    8.9042   18.1086 H   0  0  0  0  0  0  0  0  0  0  0  0
   10.9192    8.5768   16.3313 C   0  0  0  0  0  0  0  0  0  0  0  0
   11.5882    8.0144   16.6503 H   0  0  0  0  0  0  0  0  0  0  0  0
    8.5824   12.1674    5.4401 B   0  0  0  0  0  0  0  0  0  0  0  0
    8.6889   12.4040    4.3707 H   0  0  0  0  0  0  0  0  0  0  0  0
   10.6725    6.5055   11.4334 C   0  0  0  0  0  0  0  0  0  0  0  0
   10.4832    5.6321   11.6935 H   0  0  0  0  0  0  0  0  0  0  0  0
    5.9929   14.0497   10.6050 C   0  0  0  0  0  0  0  0  0  0  0  0
    6.8886   13.8994   10.8008 H   0  0  0  0  0  0  0  0  0  0  0  0
    7.4054   10.4071    7.4351 B   0  0  0  0  0  0  0  0  0  0  0  0
    6.7666    9.5306    7.6172 H   0  0  0  0  0  0  0  0  0  0  0  0
    7.0457   11.5543    6.1193 B   0  0  0  0  0  0  0  0  0  0  0  0
    6.1557   11.3906    5.4921 H   0  0  0  0  0  0  0  0  0  0  0  0
    8.4911   10.4830    6.0193 B   0  0  0  0  0  0  0  0  0  0  0  0
    8.5368    9.6303    5.3251 H   0  0  0  0  0  0  0  0  0  0  0  0
    5.6242   15.1791    9.8998 C   0  0  0  0  0  0  0  0  0  0  0  0
    6.2796   15.7668    9.6013 H   0  0  0  0  0  0  0  0  0  0  0  0
    9.3810   13.1376    6.6820 B   0  0  0  0  0  0  0  0  0  0  0  0
   10.0028   14.0065    6.4191 H   0  0  0  0  0  0  0  0  0  0  0  0
    2.7337    8.3923   10.2353 C   0  0  0  0  0  0  0  0  0  0  0  0
    2.2009    7.7153    9.8820 H   0  0  0  0  0  0  0  0  0  0  0  0
    9.8769   12.0960    8.0239 B   0  5  0  0  0  0  0  0  0  0  0  0
   10.8039   12.2909    8.5826 H   0  0  0  0  0  0  0  0  0  0  0  0
   12.1877   11.5722   13.6940 C   0  0  0  0  0  0  0  0  0  0  0  0
   12.1904   10.9353   14.3705 H   0  0  0  0  0  0  0  0  0  0  0  0
   13.1949   13.4768   12.6561 C   0  0  0  0  0  0  0  0  0  0  0  0
   13.8679   14.1181   12.6246 H   0  0  0  0  0  0  0  0  0  0  0  0
    7.6129   13.1718    6.5177 B   0  0  0  0  0  0  0  0  0  0  0  0
    7.0853   14.0631    6.1453 H   0  0  0  0  0  0  0  0  0  0  0  0
   11.4365    6.7362   10.3120 C   0  0  0  0  0  0  0  0  0  0  0  0
   11.7736    6.0204    9.8231 H   0  0  0  0  0  0  0  0  0  0  0  0
    9.9125   11.4710    6.3753 B   0  0  0  0  0  0  0  0  0  0  0  0
   10.8839   11.2508    5.9098 H   0  0  0  0  0  0  0  0  0  0  0  0
  1  2  1  0  0  0  0
  2 35  1  0  0  0  0
  3  1  1  0  0  0  0
  4  1  1  0  0  0  0
  5  6  1  0  0  0  0
  7  3  1  0  0  0  0
  8  4  1  0  0  0  0
  9  3  1  0  0  0  0
 10 12  3  0  0  0  0
 11  3  1  0  0  0  0
 12  1  1  0  0  0  0
 13 14  1  0  0  0  0
 15  7  4  0  0  0  0
 16 15  1  0  0  0  0
 17  9  4  0  0  0  0
 18 17  1  0  0  0  0
 19  4  1  0  0  0  0
 20 21  1  0  0  0  0
 22 15  4  0  0  0  0
 23 22  1  0  0  0  0
 24  7  4  0  0  0  0
 25 24  1  0  0  0  0
 26 17  4  0  0  0  0
 27 26  1  0  0  0  0
 28 26  4  0  0  0  0
 29 28  1  0  0  0  0
 30  4  1  0  0  0  0
 31  8  4  0  0  0  0
 32 31  1  0  0  0  0
 33 11  4  0  0  0  0
 34 33  1  0  0  0  0
 35 36  1  0  0  0  0
 37 38  1  0  0  0  0
 39 13  4  0  0  0  0
 40 39  1  0  0  0  0
 41 42  1  0  0  0  0
 43 46  3  0  0  0  0
 44 19  4  0  0  0  0
 45 44  1  0  0  0  0
 46  1  1  0  0  0  0
 47  5  4  0  0  0  0
 48 47  1  0  0  0  0
 49 47  4  0  0  0  0
 50 49  1  0  0  0  0
 51 31  4  0  0  0  0
 52 51  1  0  0  0  0
 53 33  4  0  0  0  0
 54 53  1  0  0  0  0
 55  2  1  0  0  0  0
 56 55  1  0  0  0  0
 57 24  4  0  0  0  0
 58 57  1  0  0  0  0
 59 19  4  0  0  0  0
 60 59  1  0  0  0  0
 61  2  1  0  0  0  0
 62 61  1  0  0  0  0
 63 37  4  0  0  0  0
 64 63  1  0  0  0  0
 65 59  4  0  0  0  0
 66 65  1  0  0  0  0
 67 68  1  0  0  0  0
 69 20  4  0  0  0  0
 70 69  1  0  0  0  0
 71  9  4  0  0  0  0
 72 71  1  0  0  0  0
 73  2  1  0  0  0  0
 74 73  1  0  0  0  0
 75 35  1  0  0  0  0
 76 75  1  0  0  0  0
 77 61  1  0  0  0  0
 78 77  1  0  0  0  0
 79 28  4  0  0  0  0
 80 79  1  0  0  0  0
 81 55  1  0  0  0  0
 82 81  1  0  0  0  0
 83 22  4  0  0  0  0
 84 83  1  0  0  0  0
 85  2  1  0  0  0  0
 86 85  1  0  0  0  0
 87  8  4  0  0  0  0
 88 87  1  0  0  0  0
 89 41  4  0  0  0  0
 90 89  1  0  0  0  0
 91 35  1  0  0  0  0
 92 91  1  0  0  0  0
 93 39  4  0  0  0  0
 94 93  1  0  0  0  0
 95 61  1  0  0  0  0
 96 95  1  0  0  0  0
  5 11  4  0  0  0  0
 13 30  4  0  0  0  0
 20 30  4  0  0  0  0
 35 55  1  0  0  0  0
 35 73  1  0  0  0  0
 37 44  4  0  0  0  0
 41 87  4  0  0  0  0
 49 53  4  0  0  0  0
 51 89  4  0  0  0  0
 55 85  1  0  0  0  0
 55 91  1  0  0  0  0
 57 83  4  0  0  0  0
 61 73  1  0  0  0  0
 61 85  1  0  0  0  0
 63 65  4  0  0  0  0
 67 75  1  0  0  0  0
 67 77  1  0  0  0  0
 67 81  1  0  0  0  0
 67 91  1  0  0  0  0
 67 95  1  0  0  0  0
 69 93  4  0  0  0  0
 71 79  4  0  0  0  0
 73 75  1  0  0  0  0
 73 77  1  0  0  0  0
 75 77  1  0  0  0  0
 75 91  1  0  0  0  0
 77 95  1  0  0  0  0
 81 85  1  0  0  0  0
 81 91  1  0  0  0  0
 81 95  1  0  0  0  0
 85 95  1  0  0  0  0
M  CHG  1  85  -1
M  END
$$$$
UFUBIH

From CSD data. Using bond type 'Any'. No disordered atoms. Largest molecule.
 96121  0  0  0  0  0  0  0  0999 V2000
   10.6245   -0.0304    7.3263 C   0  0  0  0  0  0  0  0  0  0  0  0
   13.5167    2.0711    7.0077 C   0  0  0  0  0  0  0  0  0  0  0  0
   13.8366    1.7983    5.6356 C   0  0  0  0  0  0  0  0  0  0  0  0
   15.0504   -0.9202    6.7758 C   0  0  0  0  0  0  0  0  0  0  0  0
   15.5659   -1.1606    5.5251 C   0  0  0  0  0  0  0  0  0  0  0  0
   16.9147   -0.8886    5.2390 C   0  0  0  0  0  0  0  0  0  0  0  0
   17.7629   -0.3775    6.1797 C   0  0  0  0  0  0  0  0  0  0  0  0
   17.2948   -0.0826    7.4976 C   0  0  0  0  0  0  0  0  0  0  0  0
   15.9297   -0.3564    7.7468 C   0  0  0  0  0  0  0  0  0  0  0  0
   12.8424   -2.7485    6.4593 C   0  0  0  0  0  0  0  0  0  0  0  0
   13.8065   -3.7670    6.3531 C   0  0  0  0  0  0  0  0  0  0  0  0
   13.3798   -5.0609    5.9651 C   0  0  0  0  0  0  0  0  0  0  0  0
   12.0703   -5.3283    5.7223 C   0  0  0  0  0  0  0  0  0  0  0  0
   11.1121   -4.3523    5.8221 C   0  0  0  0  0  0  0  0  0  0  0  0
   11.4943   -3.0347    6.1884 C   0  0  0  0  0  0  0  0  0  0  0  0
   13.0981   -1.2900    8.8718 C   0  0  0  0  0  0  0  0  0  0  0  0
   13.3079   -2.5603    9.5004 C   0  0  0  0  0  0  0  0  0  0  0  0
   13.2238   -2.6953   10.8421 C   0  0  0  0  0  0  0  0  0  0  0  0
   12.9096   -1.6389   11.6593 C   0  0  0  0  0  0  0  0  0  0  0  0
   12.7496   -0.3988   11.0329 C   0  0  0  0  0  0  0  0  0  0  0  0
   12.8197   -0.2229    9.6976 C   0  0  0  0  0  0  0  0  0  0  0  0
    9.1369    2.3025    4.7730 C   0  0  0  0  0  0  0  0  0  0  0  0
    8.5767    3.3660    4.1184 C   0  0  0  0  0  0  0  0  0  0  0  0
    7.3478    3.1648    3.4226 C   0  0  0  0  0  0  0  0  0  0  0  0
    6.7834    1.8998    3.4052 C   0  0  0  0  0  0  0  0  0  0  0  0
    7.3465    0.8839    4.0945 C   0  0  0  0  0  0  0  0  0  0  0  0
    8.5352    1.0782    4.7578 C   0  0  0  0  0  0  0  0  0  0  0  0
    9.9440    3.3524    7.3415 C   0  0  0  0  0  0  0  0  0  0  0  0
    9.6573    3.4110    9.6760 C   0  0  0  0  0  0  0  0  0  0  0  0
    8.7770    4.5435    9.6218 C   0  0  0  0  0  0  0  0  0  0  0  0
    8.5610    5.0411    8.3386 C   0  0  0  0  0  0  0  0  0  0  0  0
    9.0893    4.4626    7.2960 C   0  0  0  0  0  0  0  0  0  0  0  0
   11.5063    3.9220    4.8705 C   0  0  0  0  0  0  0  0  0  0  0  0
   11.8943    5.0790    5.5489 C   0  0  0  0  0  0  0  0  0  0  0  0
   12.6337    6.0117    4.7123 C   0  0  0  0  0  0  0  0  0  0  0  0
   12.9312    5.7643    3.4247 C   0  0  0  0  0  0  0  0  0  0  0  0
   12.4987    4.6222    2.7896 C   0  0  0  0  0  0  0  0  0  0  0  0
   11.7694    3.6513    3.5526 C   0  0  0  0  0  0  0  0  0  0  0  0
   10.2250    2.8382    8.5445 C   0  0  0  0  0  0  0  0  0  0  0  0
   13.6925   -0.9656    2.3171 B   0  0  0  0  0  0  0  0  0  0  0  0
   12.4634   -2.3352    2.7073 B   0  0  0  0  0  0  0  0  0  0  0  0
   10.7458   -1.6145    2.3843 B   0  5  0  0  0  0  0  0  0  0  0  0
   10.9281    0.1588    1.7817 B   0  0  0  0  0  0  0  0  0  0  0  0
   12.8227    0.4907    1.7514 B   0  0  0  0  0  0  0  0  0  0  0  0
   13.3530   -2.3072    1.2030 B   0  0  0  0  0  0  0  0  0  0  0  0
   11.5715   -2.6784    1.2550 B   0  0  0  0  0  0  0  0  0  0  0  0
   10.6968   -1.1997    0.6481 B   0  0  0  0  0  0  0  0  0  0  0  0
   11.9024    0.0019    0.2948 B   0  0  0  0  0  0  0  0  0  0  0  0
   13.5002   -0.6830    0.6329 B   0  0  0  0  0  0  0  0  0  0  0  0
   12.2800   -1.6464   -0.0997 B   0  0  0  0  0  0  0  0  0  0  0  0
    9.8190   -0.4993    7.9983 O   0  0  0  0  0  0  0  0  0  0  0  0
   11.9852    0.6858    6.2553 Ir  0  0  0  0  0  0  0  0  0  0  0  0
   13.2822   -1.0914    7.0749 P   0  0  0  0  0  0  0  0  0  0  0  0
   10.6489    2.5662    5.8004 P   0  0  0  0  0  0  0  0  0  0  0  0
   11.9945   -0.2962    3.7997 Sn  0  0  0  0  0  0  0  0  0  0  0  0
   15.0167   -1.5084    4.8597 H   0  0  0  0  0  0  0  0  0  0  0  0
   17.2399   -1.0607    4.3828 H   0  0  0  0  0  0  0  0  0  0  0  0
   18.6537   -0.2216    5.9629 H   0  0  0  0  0  0  0  0  0  0  0  0
   17.8542    0.2675    8.1522 H   0  0  0  0  0  0  0  0  0  0  0  0
   15.5865   -0.1578    8.5879 H   0  0  0  0  0  0  0  0  0  0  0  0
   14.7016   -3.5964    6.5352 H   0  0  0  0  0  0  0  0  0  0  0  0
   14.0081   -5.7396    5.8719 H   0  0  0  0  0  0  0  0  0  0  0  0
   11.8188   -6.1915    5.4839 H   0  0  0  0  0  0  0  0  0  0  0  0
   10.2194   -4.5539    5.6530 H   0  0  0  0  0  0  0  0  0  0  0  0
   10.8541   -2.3629    6.2491 H   0  0  0  0  0  0  0  0  0  0  0  0
   13.5074   -3.3022    8.9758 H   0  0  0  0  0  0  0  0  0  0  0  0
   13.3815   -3.5298   11.2236 H   0  0  0  0  0  0  0  0  0  0  0  0
   12.8106   -1.7415   12.5783 H   0  0  0  0  0  0  0  0  0  0  0  0
   12.5849    0.3451   11.5661 H   0  0  0  0  0  0  0  0  0  0  0  0
   12.6793    0.6206    9.3335 H   0  0  0  0  0  0  0  0  0  0  0  0
    8.9889    4.2003    4.1249 H   0  0  0  0  0  0  0  0  0  0  0  0
    6.9307    3.8716    2.9891 H   0  0  0  0  0  0  0  0  0  0  0  0
    6.0097    1.7468    2.9132 H   0  0  0  0  0  0  0  0  0  0  0  0
    6.9313    0.0530    4.1205 H   0  0  0  0  0  0  0  0  0  0  0  0
    8.9340    0.3648    5.2043 H   0  0  0  0  0  0  0  0  0  0  0  0
    9.8582    3.0438   10.5061 H   0  0  0  0  0  0  0  0  0  0  0  0
    8.3839    4.9117   10.3804 H   0  0  0  0  0  0  0  0  0  0  0  0
    8.0306    5.7972    8.2259 H   0  0  0  0  0  0  0  0  0  0  0  0
    8.8843    4.8150    6.4593 H   0  0  0  0  0  0  0  0  0  0  0  0
   11.7005    5.2365    6.4441 H   0  0  0  0  0  0  0  0  0  0  0  0
   12.9143    6.8158    5.0851 H   0  0  0  0  0  0  0  0  0  0  0  0
   13.4417    6.3801    2.9522 H   0  0  0  0  0  0  0  0  0  0  0  0
   12.6762    4.4835    1.8858 H   0  0  0  0  0  0  0  0  0  0  0  0
   11.4816    2.8572    3.1625 H   0  0  0  0  0  0  0  0  0  0  0  0
   10.7947    2.1063    8.6204 H   0  0  0  0  0  0  0  0  0  0  0  0
   14.6721   -0.8655    2.8070 H   0  0  0  0  0  0  0  0  0  0  0  0
   12.6674   -3.1390    3.4312 H   0  0  0  0  0  0  0  0  0  0  0  0
    9.8408   -1.9580    2.9067 H   0  0  0  0  0  0  0  0  0  0  0  0
   10.1657    0.9440    1.9096 H   0  0  0  0  0  0  0  0  0  0  0  0
   13.2587    1.4954    1.8576 H   0  0  0  0  0  0  0  0  0  0  0  0
   14.1113   -3.0803    1.0057 H   0  0  0  0  0  0  0  0  0  0  0  0
   11.1770   -3.6940    1.0946 H   0  0  0  0  0  0  0  0  0  0  0  0
    9.7557   -1.2678    0.0824 H   0  0  0  0  0  0  0  0  0  0  0  0
   11.7294    0.7371   -0.5050 H   0  0  0  0  0  0  0  0  0  0  0  0
   14.3832   -0.4096    0.0390 H   0  0  0  0  0  0  0  0  0  0  0  0
   12.3510   -1.9910   -1.1423 H   0  0  0  0  0  0  0  0  0  0  0  0
  1 51  3  0  0  0  0
  2  3  2  0  0  0  0
  3 52  1  0  0  0  0
  4  5  4  0  0  0  0
  5  6  4  0  0  0  0
  6  7  4  0  0  0  0
  7  8  4  0  0  0  0
  8  9  4  0  0  0  0
  9  4  4  0  0  0  0
 10 11  4  0  0  0  0
 11 12  4  0  0  0  0
 12 13  4  0  0  0  0
 13 14  4  0  0  0  0
 14 15  4  0  0  0  0
 15 10  4  0  0  0  0
 16 17  4  0  0  0  0
 17 18  4  0  0  0  0
 18 19  4  0  0  0  0
 19 20  4  0  0  0  0
 20 21  4  0  0  0  0
 21 16  4  0  0  0  0
 22 23  4  0  0  0  0
 23 24  4  0  0  0  0
 24 25  4  0  0  0  0
 25 26  4  0  0  0  0
 26 27  4  0  0  0  0
 27 22  4  0  0  0  0
 28 32  4  0  0  0  0
 29 30  4  0  0  0  0
 30 31  4  0  0  0  0
 31 32  4  0  0  0  0
 32 79  1  0  0  0  0
 33 34  4  0  0  0  0
 34 35  4  0  0  0  0
 35 36  4  0  0  0  0
 36 37  4  0  0  0  0
 37 38  4  0  0  0  0
 38 33  4  0  0  0  0
 39 28  4  0  0  0  0
 40 41  1  0  0  0  0
 41 42  1  0  0  0  0
 42 43  1  0  0  0  0
 43 44  1  0  0  0  0
 44 40  1  0  0  0  0
 45 40  1  0  0  0  0
 46 41  1  0  0  0  0
 47 42  1  0  0  0  0
 48 43  1  0  0  0  0
 49 40  1  0  0  0  0
 50 45  1  0  0  0  0
 52  1  1  0  0  0  0
 53  4  1  0  0  0  0
 54 22  1  0  0  0  0
 55 40  1  0  0  0  0
 56  5  1  0  0  0  0
 57  6  1  0  0  0  0
 58  7  1  0  0  0  0
 59  8  1  0  0  0  0
 60  9  1  0  0  0  0
 61 11  1  0  0  0  0
 62 12  1  0  0  0  0
 63 13  1  0  0  0  0
 64 14  1  0  0  0  0
 65 15  1  0  0  0  0
 66 17  1  0  0  0  0
 67 18  1  0  0  0  0
 68 19  1  0  0  0  0
 69 20  1  0  0  0  0
 70 21  1  0  0  0  0
 71 23  1  0  0  0  0
 72 24  1  0  0  0  0
 73 25  1  0  0  0  0
 74 26  1  0  0  0  0
 75 27  1  0  0  0  0
 76 29  1  0  0  0  0
 77 30  1  0  0  0  0
 78 31  1  0  0  0  0
 80 34  1  0  0  0  0
 81 35  1  0  0  0  0
 82 36  1  0  0  0  0
 83 37  1  0  0  0  0
 84 38  1  0  0  0  0
 85 39  1  0  0  0  0
 86 40  1  0  0  0  0
 87 41  1  0  0  0  0
 88 42  1  0  0  0  0
 89 43  1  0  0  0  0
 90 44  1  0  0  0  0
 91 45  1  0  0  0  0
 92 46  1  0  0  0  0
 93 47  1  0  0  0  0
 94 48  1  0  0  0  0
 95 49  1  0  0  0  0
 96 50  1  0  0  0  0
  2 52  1  0  0  0  0
 10 53  1  0  0  0  0
 16 53  1  0  0  0  0
 28 54  1  0  0  0  0
 29 39  4  0  0  0  0
 33 54  1  0  0  0  0
 41 45  1  0  0  0  0
 41 55  1  0  0  0  0
 42 46  1  0  0  0  0
 42 55  1  0  0  0  0
 43 47  1  0  0  0  0
 43 55  1  0  0  0  0
 44 48  1  0  0  0  0
 44 49  1  0  0  0  0
 44 55  1  0  0  0  0
 45 46  1  0  0  0  0
 45 49  1  0  0  0  0
 46 47  1  0  0  0  0
 46 50  1  0  0  0  0
 47 48  1  0  0  0  0
 47 50  1  0  0  0  0
 48 49  1  0  0  0  0
 48 50  1  0  0  0  0
 49 50  1  0  0  0  0
 52 53  1  0  0  0  0
 52 54  1  0  0  0  0
 52 55  1  0  0  0  0
M  CHG  1  42  -1
M  END
$$$$
UFUBON

From CSD data. Using bond type 'Any'. No disordered atoms. Largest molecule.
 94118  0  0  0  0  0  0  0  0999 V2000
    5.4654   10.0627    7.8167 Ir  0  0  0  0  0  0  0  0  0  0  0  0
    4.1580    9.5128    5.5664 Sn  0  0  0  0  0  0  0  0  0  0  0  0
    6.9142   11.6126    6.8542 P   0  0  0  0  0  0  0  0  0  0  0  0
    4.6169    8.3554    9.1433 P   0  0  0  0  0  0  0  0  0  0  0  0
    3.2512   12.0724    8.4341 O   0  0  0  0  0  0  0  0  0  0  0  0
    5.5780    8.1541   10.7023 C   0  0  0  0  0  0  0  0  0  0  0  0
    4.0760   11.3430    8.1969 C   0  0  0  0  0  0  0  0  0  0  0  0
    9.3358   10.4013    3.0816 C   0  0  0  0  0  0  0  0  0  0  0  0
    9.8547   10.1650    2.3477 H   0  0  0  0  0  0  0  0  0  0  0  0
    8.0042    9.7865    5.0044 C   0  0  0  0  0  0  0  0  0  0  0  0
    7.6460    9.1199    5.5441 H   0  0  0  0  0  0  0  0  0  0  0  0
    6.1442    6.9391   11.0830 C   0  0  0  0  0  0  0  0  0  0  0  0
    6.0793    6.1895   10.5368 H   0  0  0  0  0  0  0  0  0  0  0  0
    9.0257   12.6430   10.1939 C   0  0  0  0  0  0  0  0  0  0  0  0
    8.8194   12.8701   11.0726 H   0  0  0  0  0  0  0  0  0  0  0  0
    7.7695   11.1270    5.3238 C   0  0  0  0  0  0  0  0  0  0  0  0
    2.9401    8.6305    9.7572 C   0  0  0  0  0  0  0  0  0  0  0  0
    4.5570    6.6640    8.4680 C   0  0  0  0  0  0  0  0  0  0  0  0
    2.5821    8.7099   11.1104 C   0  0  0  0  0  0  0  0  0  0  0  0
    3.2317    8.5715   11.7634 H   0  0  0  0  0  0  0  0  0  0  0  0
    6.4494    9.1863   12.7164 C   0  0  0  0  0  0  0  0  0  0  0  0
    6.5394    9.9379   13.2573 H   0  0  0  0  0  0  0  0  0  0  0  0
    9.5934   12.1315    7.5438 C   0  0  0  0  0  0  0  0  0  0  0  0
    9.7861   11.9949    6.6443 H   0  0  0  0  0  0  0  0  0  0  0  0
    8.7633    9.4301    3.8951 C   0  0  0  0  0  0  0  0  0  0  0  0
    8.8923    8.5308    3.6943 H   0  0  0  0  0  0  0  0  0  0  0  0
    6.1003   13.2006    6.4566 C   0  0  0  0  0  0  0  0  0  0  0  0
    6.0646   14.2236    7.3704 C   0  0  0  0  0  0  0  0  0  0  0  0
    6.5421   14.1405    8.1656 H   0  0  0  0  0  0  0  0  0  0  0  0
    7.9987   12.2977    9.3623 C   0  0  0  0  0  0  0  0  0  0  0  0
    7.1344   12.2072    9.6960 H   0  0  0  0  0  0  0  0  0  0  0  0
    5.3782   13.3170    5.2690 C   0  0  0  0  0  0  0  0  0  0  0  0
    5.3862   12.6227    4.6511 H   0  0  0  0  0  0  0  0  0  0  0  0
    6.8267    6.8764   12.3370 C   0  0  0  0  0  0  0  0  0  0  0  0
    7.1806    6.0676   12.6290 H   0  0  0  0  0  0  0  0  0  0  0  0
    5.7814    9.2916   11.5053 C   0  0  0  0  0  0  0  0  0  0  0  0
    5.4652   10.1207   11.2212 H   0  0  0  0  0  0  0  0  0  0  0  0
    8.2599   12.0780    8.0013 C   0  0  0  0  0  0  0  0  0  0  0  0
    9.1053   11.7493    3.3997 C   0  0  0  0  0  0  0  0  0  0  0  0
    9.4977   12.4122    2.8783 H   0  0  0  0  0  0  0  0  0  0  0  0
   10.3079   12.6781    9.8289 C   0  0  0  0  0  0  0  0  0  0  0  0
   10.9732   12.8849   10.4416 H   0  0  0  0  0  0  0  0  0  0  0  0
    8.3032   12.1204    4.4804 C   0  0  0  0  0  0  0  0  0  0  0  0
    8.1204   13.0178    4.6420 H   0  0  0  0  0  0  0  0  0  0  0  0
    5.3286   15.3887    7.1305 C   0  0  0  0  0  0  0  0  0  0  0  0
    5.3104   16.0886    7.7484 H   0  0  0  0  0  0  0  0  0  0  0  0
    6.9653    8.0083   13.1218 C   0  0  0  0  0  0  0  0  0  0  0  0
    7.4184    7.9547   13.9326 H   0  0  0  0  0  0  0  0  0  0  0  0
    4.6623   14.4526    5.0161 C   0  0  0  0  0  0  0  0  0  0  0  0
    4.1935   14.5504    4.2171 H   0  0  0  0  0  0  0  0  0  0  0  0
    5.2327    6.2873    7.3274 C   0  0  0  0  0  0  0  0  0  0  0  0
    5.7472    6.9207    6.8829 H   0  0  0  0  0  0  0  0  0  0  0  0
    0.2898    9.1309   10.5485 C   0  0  0  0  0  0  0  0  0  0  0  0
   -0.5842    9.3193   10.8027 H   0  0  0  0  0  0  0  0  0  0  0  0
    3.7846    5.7315    9.0872 C   0  0  0  0  0  0  0  0  0  0  0  0
    3.2750    5.9734    9.8276 H   0  0  0  0  0  0  0  0  0  0  0  0
    1.8918    8.7487    8.7965 C   0  0  0  0  0  0  0  0  0  0  0  0
    2.0873    8.6601    7.8918 H   0  0  0  0  0  0  0  0  0  0  0  0
   10.6336   12.3937    8.4732 C   0  0  0  0  0  0  0  0  0  0  0  0
   11.5217   12.3826    8.1903 H   0  0  0  0  0  0  0  0  0  0  0  0
    4.6456   15.4515    5.9704 C   0  0  0  0  0  0  0  0  0  0  0  0
    4.1321   16.2104    5.8035 H   0  0  0  0  0  0  0  0  0  0  0  0
    1.2513    8.9943   11.5027 C   0  0  0  0  0  0  0  0  0  0  0  0
    1.0359    9.0885   12.4035 H   0  0  0  0  0  0  0  0  0  0  0  0
    5.1710    5.0077    6.8190 C   0  0  0  0  0  0  0  0  0  0  0  0
    5.6359    4.7732    6.0473 H   0  0  0  0  0  0  0  0  0  0  0  0
    0.5984    8.9888    9.1837 C   0  0  0  0  0  0  0  0  0  0  0  0
   -0.0735    9.0589    8.5449 H   0  0  0  0  0  0  0  0  0  0  0  0
    3.7503    4.4150    8.6166 C   0  0  0  0  0  0  0  0  0  0  0  0
    3.2768    3.7669    9.0898 H   0  0  0  0  0  0  0  0  0  0  0  0
    4.4010    4.0882    7.4955 C   0  0  0  0  0  0  0  0  0  0  0  0
    4.3304    3.2221    7.1579 H   0  0  0  0  0  0  0  0  0  0  0  0
    1.4436   10.1945    3.4062 B   0  0  0  0  0  0  0  0  0  0  0  0
    0.6395   10.9110    3.1885 H   0  0  0  0  0  0  0  0  0  0  0  0
    2.9345   10.8260    4.0776 B   0  0  0  0  0  0  0  0  0  0  0  0
    3.0303   11.9007    4.2888 H   0  0  0  0  0  0  0  0  0  0  0  0
    1.8685    9.6757    5.2104 B   0  0  0  0  0  0  0  0  0  0  0  0
    1.3166   10.0173    6.0981 H   0  0  0  0  0  0  0  0  0  0  0  0
    4.0802    7.8679    3.9238 B   0  0  0  0  0  0  0  0  0  0  0  0
    4.9043    7.1478    4.0241 H   0  0  0  0  0  0  0  0  0  0  0  0
    2.5468    7.9252    5.0318 B   0  5  0  0  0  0  0  0  0  0  0  0
    2.3969    7.2069    5.8557 H   0  0  0  0  0  0  0  0  0  0  0  0
    1.1989    8.4385    4.0411 B   0  0  0  0  0  0  0  0  0  0  0  0
    0.1884    8.0581    4.2353 H   0  0  0  0  0  0  0  0  0  0  0  0
    3.4497    8.3646    2.3595 B   0  0  0  0  0  0  0  0  0  0  0  0
    3.9128    7.9141    1.4652 H   0  0  0  0  0  0  0  0  0  0  0  0
    1.7404    8.7155    2.3855 B   0  0  0  0  0  0  0  0  0  0  0  0
    1.0877    8.4957    1.5291 H   0  0  0  0  0  0  0  0  0  0  0  0
    2.8453   10.1004    2.3986 B   0  0  0  0  0  0  0  0  0  0  0  0
    2.9447   10.7762    1.5265 H   0  0  0  0  0  0  0  0  0  0  0  0
    4.3249    9.6757    3.2589 B   0  0  0  0  0  0  0  0  0  0  0  0
    5.2980   10.0653    2.9343 H   0  0  0  0  0  0  0  0  0  0  0  0
    2.4562    7.3675    3.3632 B   0  0  0  0  0  0  0  0  0  0  0  0
    2.2745    6.3132    3.1390 H   0  0  0  0  0  0  0  0  0  0  0  0
  1  2  1  0  0  0  0
  2 75  1  0  0  0  0
  3  1  1  0  0  0  0
  4  1  1  0  0  0  0
  5  7  3  0  0  0  0
  6  4  1  0  0  0  0
  7  1  1  0  0  0  0
  8  9  1  0  0  0  0
 10 11  1  0  0  0  0
 12  6  4  0  0  0  0
 13 12  1  0  0  0  0
 14 15  1  0  0  0  0
 16  3  1  0  0  0  0
 17  4  1  0  0  0  0
 18  4  1  0  0  0  0
 19 17  4  0  0  0  0
 20 19  1  0  0  0  0
 21 22  1  0  0  0  0
 23 24  1  0  0  0  0
 25  8  4  0  0  0  0
 26 25  1  0  0  0  0
 27  3  1  0  0  0  0
 28 27  4  0  0  0  0
 29 28  1  0  0  0  0
 30 14  4  0  0  0  0
 31 30  1  0  0  0  0
 32 27  4  0  0  0  0
 33 32  1  0  0  0  0
 34 12  4  0  0  0  0
 35 34  1  0  0  0  0
 36  6  4  0  0  0  0
 37 36  1  0  0  0  0
 38  3  1  0  0  0  0
 39  8  4  0  0  0  0
 40 39  1  0  0  0  0
 41 14  4  0  0  0  0
 42 41  1  0  0  0  0
 43 16  4  0  0  0  0
 44 43  1  0  0  0  0
 45 28  4  0  0  0  0
 46 45  1  0  0  0  0
 47 21  4  0  0  0  0
 48 47  1  0  0  0  0
 49 32  4  0  0  0  0
 50 49  1  0  0  0  0
 51 18  4  0  0  0  0
 52 51  1  0  0  0  0
 53 54  1  0  0  0  0
 55 18  4  0  0  0  0
 56 55  1  0  0  0  0
 57 17  4  0  0  0  0
 58 57  1  0  0  0  0
 59 23  4  0  0  0  0
 60 59  1  0  0  0  0
 61 45  4  0  0  0  0
 62 61  1  0  0  0  0
 63 19  4  0  0  0  0
 64 63  1  0  0  0  0
 65 51  4  0  0  0  0
 66 65  1  0  0  0  0
 67 53  4  0  0  0  0
 68 67  1  0  0  0  0
 69 55  4  0  0  0  0
 70 69  1  0  0  0  0
 71 65  4  0  0  0  0
 72 71  1  0  0  0  0
 73 74  1  0  0  0  0
 75 73  1  0  0  0  0
 76 75  1  0  0  0  0
 77  2  1  0  0  0  0
 78 77  1  0  0  0  0
 79  2  1  0  0  0  0
 80 79  1  0  0  0  0
 81  2  1  0  0  0  0
 82 81  1  0  0  0  0
 83 73  1  0  0  0  0
 84 83  1  0  0  0  0
 85 79  1  0  0  0  0
 86 85  1  0  0  0  0
 87 73  1  0  0  0  0
 88 87  1  0  0  0  0
 89 73  1  0  0  0  0
 90 89  1  0  0  0  0
 91  2  1  0  0  0  0
 92 91  1  0  0  0  0
 93 79  1  0  0  0  0
 94 93  1  0  0  0  0
 10 16  4  0  0  0  0
 10 25  4  0  0  0  0
 21 36  4  0  0  0  0
 23 38  4  0  0  0  0
 30 38  4  0  0  0  0
 34 47  4  0  0  0  0
 39 43  4  0  0  0  0
 41 59  4  0  0  0  0
 49 61  4  0  0  0  0
 53 63  4  0  0  0  0
 57 67  4  0  0  0  0
 69 71  4  0  0  0  0
 73 77  1  0  0  0  0
 75 77  1  0  0  0  0
 75 89  1  0  0  0  0
 75 91  1  0  0  0  0
 77 81  1  0  0  0  0
 77 83  1  0  0  0  0
 79 81  1  0  0  0  0
 79 91  1  0  0  0  0
 81 83  1  0  0  0  0
 81 93  1  0  0  0  0
 83 87  1  0  0  0  0
 83 93  1  0  0  0  0
 85 87  1  0  0  0  0
 85 89  1  0  0  0  0
 85 91  1  0  0  0  0
 85 93  1  0  0  0  0
 87 89  1  0  0  0  0
 87 93  1  0  0  0  0
 89 91  1  0  0  0  0
M  CHG  1  81  -1
M  END
$$$$
UFUBUT

From CSD data. Using bond type 'Any'. No disordered atoms. Largest molecule.
117160  0  0  0  0  0  0  0  0999 V2000
    3.7470    2.9402    3.7515 O   0  0  0  0  0  0  0  0  0  0  0  0
    1.7129    7.6391    4.9513 C   0  0  0  0  0  0  0  0  0  0  0  0
    0.4076    7.6349    5.3547 C   0  0  0  0  0  0  0  0  0  0  0  0
   -0.1634    6.9666    5.0539 H   0  0  0  0  0  0  0  0  0  0  0  0
   -3.1516    6.1181    2.6544 B   0  0  0  0  0  0  0  0  0  0  0  0
   -3.4972    5.4880    3.4861 H   0  0  0  0  0  0  0  0  0  0  0  0
    2.7760    3.4897    3.5675 C   0  0  0  0  0  0  0  0  0  0  0  0
    2.5656    8.6404    5.4751 C   0  0  0  0  0  0  0  0  0  0  0  0
    3.4634    8.6468    5.2344 H   0  0  0  0  0  0  0  0  0  0  0  0
    2.0904    9.6078    6.3351 C   0  0  0  0  0  0  0  0  0  0  0  0
    2.6652   10.2612    6.6607 H   0  0  0  0  0  0  0  0  0  0  0  0
    0.7588    9.6078    6.7102 C   0  0  0  0  0  0  0  0  0  0  0  0
    0.4376   10.2633    7.2836 H   0  0  0  0  0  0  0  0  0  0  0  0
    3.3338   -0.6895    3.3410 C   0  0  0  0  0  0  0  0  0  0  0  0
    3.9893   -1.2856    3.6206 H   0  0  0  0  0  0  0  0  0  0  0  0
   -3.8578    7.7197    2.3429 B   0  0  0  0  0  0  0  0  0  0  0  0
   -4.6429    8.0995    3.0118 H   0  0  0  0  0  0  0  0  0  0  0  0
   -1.1363    7.9998    1.3661 B   0  5  0  0  0  0  0  0  0  0  0  0
   -0.1991    8.5768    1.3767 H   0  0  0  0  0  0  0  0  0  0  0  0
   -1.4331    6.5360    0.1911 B   0  0  0  0  0  0  0  0  0  0  0  0
   -0.6818    6.1775   -0.5273 H   0  0  0  0  0  0  0  0  0  0  0  0
   -0.0883    8.6362    6.2289 C   0  0  0  0  0  0  0  0  0  0  0  0
   -0.9860    8.6362    6.4766 H   0  0  0  0  0  0  0  0  0  0  0  0
   -4.1564    6.3620    1.2316 B   0  0  0  0  0  0  0  0  0  0  0  0
   -5.1368    5.8678    1.1856 H   0  0  0  0  0  0  0  0  0  0  0  0
   -1.1645    2.0514    6.3740 B   0  5  0  0  0  0  0  0  0  0  0  0
   -1.4800    1.4001    5.5458 H   0  0  0  0  0  0  0  0  0  0  0  0
   -2.6745    5.4223    0.9662 B   0  0  0  0  0  0  0  0  0  0  0  0
   -2.7196    4.3488    0.7255 H   0  0  0  0  0  0  0  0  0  0  0  0
   -0.2460    3.9903    9.1027 B   0  0  0  0  0  0  0  0  0  0  0  0
    0.0488    4.5758    9.9839 H   0  0  0  0  0  0  0  0  0  0  0  0
   -2.1787    7.7388    2.9092 B   0  0  0  0  0  0  0  0  0  0  0  0
   -1.9007    8.1355    3.8966 H   0  0  0  0  0  0  0  0  0  0  0  0
   -2.2294    2.4099    7.7118 B   0  0  0  0  0  0  0  0  0  0  0  0
   -3.2399    1.9750    7.7012 H   0  0  0  0  0  0  0  0  0  0  0  0
   -1.8519    3.7846    6.6607 B   0  0  0  0  0  0  0  0  0  0  0  0
   -2.6163    4.2237    6.0059 H   0  0  0  0  0  0  0  0  0  0  0  0
    0.5559    2.0344    7.0960 B   0  0  0  0  0  0  0  0  0  0  0  0
    1.3448    1.3662    6.7173 H   0  0  0  0  0  0  0  0  0  0  0  0
    0.9222    3.7315    7.8286 B   0  0  0  0  0  0  0  0  0  0  0  0
    1.9420    4.1325    7.9065 H   0  0  0  0  0  0  0  0  0  0  0  0
   -2.2407    8.1101   -0.0035 B   0  0  0  0  0  0  0  0  0  0  0  0
   -1.9721    8.7486   -0.8600 H   0  0  0  0  0  0  0  0  0  0  0  0
   -0.5879    4.8325    7.5561 B   0  0  0  0  0  0  0  0  0  0  0  0
   -0.5484    5.9272    7.4782 H   0  0  0  0  0  0  0  0  0  0  0  0
   -0.8170    1.3938    7.9702 B   0  0  0  0  0  0  0  0  0  0  0  0
   -0.8921    0.3076    8.1294 H   0  0  0  0  0  0  0  0  0  0  0  0
    0.3850    2.3717    8.8585 B   0  0  0  0  0  0  0  0  0  0  0  0
    1.0706    1.9177    9.5911 H   0  0  0  0  0  0  0  0  0  0  0  0
   -1.3260    2.5860    9.2124 B   0  0  0  0  0  0  0  0  0  0  0  0
   -1.7636    2.2763   10.1715 H   0  0  0  0  0  0  0  0  0  0  0  0
   -3.9141    7.9998    0.5946 B   0  0  0  0  0  0  0  0  0  0  0  0
   -4.7330    8.5641    0.1239 H   0  0  0  0  0  0  0  0  0  0  0  0
   -1.8876    4.0328    8.3949 B   0  0  0  0  0  0  0  0  0  0  0  0
   -2.6783    4.6586    8.8302 H   0  0  0  0  0  0  0  0  0  0  0  0
   -2.6952    8.8038    1.5997 B   0  0  0  0  0  0  0  0  0  0  0  0
   -2.7271    9.8878    1.7802 H   0  0  0  0  0  0  0  0  0  0  0  0
   -3.1403    6.5996   -0.2336 B   0  0  0  0  0  0  0  0  0  0  0  0
   -3.4615    6.2623   -1.2281 H   0  0  0  0  0  0  0  0  0  0  0  0
    1.1834    4.4551    3.2169 Ir  0  0  0  0  0  0  0  0  0  0  0  0
   -0.8640    5.8947    2.3388 Sn  0  0  0  0  0  0  0  0  0  0  0  0
    0.1980    3.8177    5.6195 Sn  0  0  0  0  0  0  0  0  0  0  0  0
    0.3026    2.5278    2.1458 P   0  0  0  0  0  0  0  0  0  0  0  0
    2.3671    6.4293    3.7727 P   0  0  0  0  0  0  0  0  0  0  0  0
   -1.3485    1.8562    2.5340 C   0  0  0  0  0  0  0  0  0  0  0  0
    1.4030    1.1243    2.5163 C   0  0  0  0  0  0  0  0  0  0  0  0
   -2.3271    2.6051    3.1605 C   0  0  0  0  0  0  0  0  0  0  0  0
   -2.1524    3.4791    3.4259 H   0  0  0  0  0  0  0  0  0  0  0  0
    0.3230    2.7324    0.3185 C   0  0  0  0  0  0  0  0  0  0  0  0
    1.4875    3.1630   -0.3044 C   0  0  0  0  0  0  0  0  0  0  0  0
    2.2426    3.3582    0.2017 H   0  0  0  0  0  0  0  0  0  0  0  0
    2.4623    8.7210    2.1624 C   0  0  0  0  0  0  0  0  0  0  0  0
    2.0209    9.1517    2.8561 H   0  0  0  0  0  0  0  0  0  0  0  0
   -0.8170    2.4757   -0.4530 C   0  0  0  0  0  0  0  0  0  0  0  0
   -1.6059    2.1956   -0.0460 H   0  0  0  0  0  0  0  0  0  0  0  0
    2.4191    0.7149    1.6599 C   0  0  0  0  0  0  0  0  0  0  0  0
    2.4473    1.0480    0.7892 H   0  0  0  0  0  0  0  0  0  0  0  0
    5.2026    6.2836    3.9285 C   0  0  0  0  0  0  0  0  0  0  0  0
    5.2458    6.6654    3.0826 H   0  0  0  0  0  0  0  0  0  0  0  0
    3.4502    6.7715    1.2245 C   0  0  0  0  0  0  0  0  0  0  0  0
    3.6399    5.8614    1.2706 H   0  0  0  0  0  0  0  0  0  0  0  0
    3.3789   -0.1718    2.0775 C   0  0  0  0  0  0  0  0  0  0  0  0
    4.0625   -0.4222    1.5006 H   0  0  0  0  0  0  0  0  0  0  0  0
    2.7872    7.3909    2.2934 C   0  0  0  0  0  0  0  0  0  0  0  0
    1.5138    3.2988   -1.6846 C   0  0  0  0  0  0  0  0  0  0  0  0
    2.3045    3.5533   -2.1023 H   0  0  0  0  0  0  0  0  0  0  0  0
   -0.7663    2.6433   -1.8404 C   0  0  0  0  0  0  0  0  0  0  0  0
   -1.5195    2.4693   -2.3571 H   0  0  0  0  0  0  0  0  0  0  0  0
   -1.6415    0.5325    2.1447 C   0  0  0  0  0  0  0  0  0  0  0  0
   -0.9898    0.0106    1.7342 H   0  0  0  0  0  0  0  0  0  0  0  0
    5.1030    5.1295    6.4660 C   0  0  0  0  0  0  0  0  0  0  0  0
    5.0580    4.7222    7.3013 H   0  0  0  0  0  0  0  0  0  0  0  0
   -2.8868    0.0148    2.3748 C   0  0  0  0  0  0  0  0  0  0  0  0
   -3.0784   -0.8507    2.0952 H   0  0  0  0  0  0  0  0  0  0  0  0
    6.3370    5.3756    5.8856 C   0  0  0  0  0  0  0  0  0  0  0  0
    7.1221    5.1719    6.3422 H   0  0  0  0  0  0  0  0  0  0  0  0
    3.9423    5.4796    5.8184 C   0  0  0  0  0  0  0  0  0  0  0  0
    3.1234    5.3395    6.2360 H   0  0  0  0  0  0  0  0  0  0  0  0
   -3.5780    2.0344    3.3940 C   0  0  0  0  0  0  0  0  0  0  0  0
   -4.2372    2.5372    3.8152 H   0  0  0  0  0  0  0  0  0  0  0  0
    3.4765    8.8144   -0.0071 C   0  0  0  0  0  0  0  0  0  0  0  0
    3.7094    9.2959   -0.7680 H   0  0  0  0  0  0  0  0  0  0  0  0
    3.8259    7.4864    0.1062 C   0  0  0  0  0  0  0  0  0  0  0  0
    4.3142    7.0748   -0.5698 H   0  0  0  0  0  0  0  0  0  0  0  0
   -3.8578    0.7404    3.0047 C   0  0  0  0  0  0  0  0  0  0  0  0
   -4.6936    0.3670    3.1711 H   0  0  0  0  0  0  0  0  0  0  0  0
    1.3523    0.5664    3.7940 C   0  0  0  0  0  0  0  0  0  0  0  0
    0.6649    0.7976    4.3779 H   0  0  0  0  0  0  0  0  0  0  0  0
    2.7778    9.4317    1.0157 C   0  0  0  0  0  0  0  0  0  0  0  0
    2.5224   10.3227    0.9343 H   0  0  0  0  0  0  0  0  0  0  0  0
    6.3765    5.9399    4.6080 C   0  0  0  0  0  0  0  0  0  0  0  0
    7.1991    6.0884    4.2010 H   0  0  0  0  0  0  0  0  0  0  0  0
    2.3233   -0.3309    4.1974 C   0  0  0  0  0  0  0  0  0  0  0  0
    2.2933   -0.6958    5.0504 H   0  0  0  0  0  0  0  0  0  0  0  0
    3.9761    6.0481    4.5230 C   0  0  0  0  0  0  0  0  0  0  0  0
    0.3944    3.0654   -2.4420 C   0  0  0  0  0  0  0  0  0  0  0  0
    0.4207    3.1948   -3.3622 H   0  0  0  0  0  0  0  0  0  0  0  0
  1  7  3  0  0  0  0
  2  3  4  0  0  0  0
  3  4  1  0  0  0  0
  5  6  1  0  0  0  0
  7 60  1  0  0  0  0
  8  2  4  0  0  0  0
  9  8  1  0  0  0  0
 10  8  4  0  0  0  0
 11 10  1  0  0  0  0
 12 10  4  0  0  0  0
 13 12  1  0  0  0  0
 14 15  1  0  0  0  0
 16  5  1  0  0  0  0
 17 16  1  0  0  0  0
 18 19  1  0  0  0  0
 20 18  1  0  0  0  0
 21 20  1  0  0  0  0
 22  3  4  0  0  0  0
 23 22  1  0  0  0  0
 24  5  1  0  0  0  0
 25 24  1  0  0  0  0
 26 27  1  0  0  0  0
 28  5  1  0  0  0  0
 29 28  1  0  0  0  0
 30 31  1  0  0  0  0
 32  5  1  0  0  0  0
 33 32  1  0  0  0  0
 34 26  1  0  0  0  0
 35 34  1  0  0  0  0
 36 26  1  0  0  0  0
 37 36  1  0  0  0  0
 38 26  1  0  0  0  0
 39 38  1  0  0  0  0
 40 30  1  0  0  0  0
 41 40  1  0  0  0  0
 42 18  1  0  0  0  0
 43 42  1  0  0  0  0
 44 30  1  0  0  0  0
 45 44  1  0  0  0  0
 46 26  1  0  0  0  0
 47 46  1  0  0  0  0
 48 30  1  0  0  0  0
 49 48  1  0  0  0  0
 50 30  1  0  0  0  0
 51 50  1  0  0  0  0
 52 16  1  0  0  0  0
 53 52  1  0  0  0  0
 54 30  1  0  0  0  0
 55 54  1  0  0  0  0
 56 16  1  0  0  0  0
 57 56  1  0  0  0  0
 58 20  1  0  0  0  0
 59 58  1  0  0  0  0
 60 61  1  0  0  0  0
 61  5  1  0  0  0  0
 62 26  1  0  0  0  0
 63 60  1  0  0  0  0
 64  2  1  0  0  0  0
 65 63  1  0  0  0  0
 66 63  1  0  0  0  0
 67 65  4  0  0  0  0
 68 67  1  0  0  0  0
 69 63  1  0  0  0  0
 70 69  4  0  0  0  0
 71 70  1  0  0  0  0
 72 73  1  0  0  0  0
 74 69  4  0  0  0  0
 75 74  1  0  0  0  0
 76 66  4  0  0  0  0
 77 76  1  0  0  0  0
 78 79  1  0  0  0  0
 80 81  1  0  0  0  0
 82 14  4  0  0  0  0
 83 82  1  0  0  0  0
 84 64  1  0  0  0  0
 85 70  4  0  0  0  0
 86 85  1  0  0  0  0
 87 74  4  0  0  0  0
 88 87  1  0  0  0  0
 89 65  4  0  0  0  0
 90 89  1  0  0  0  0
 91 92  1  0  0  0  0
 93 89  4  0  0  0  0
 94 93  1  0  0  0  0
 95 91  4  0  0  0  0
 96 95  1  0  0  0  0
 97 91  4  0  0  0  0
 98 97  1  0  0  0  0
 99 67  4  0  0  0  0
100 99  1  0  0  0  0
101102  1  0  0  0  0
103 80  4  0  0  0  0
104103  1  0  0  0  0
105 93  4  0  0  0  0
106105  1  0  0  0  0
107 66  4  0  0  0  0
108107  1  0  0  0  0
109 72  4  0  0  0  0
110109  1  0  0  0  0
111 78  4  0  0  0  0
112111  1  0  0  0  0
113 14  4  0  0  0  0
114113  1  0  0  0  0
115 64  1  0  0  0  0
116 85  4  0  0  0  0
117116  1  0  0  0  0
 12 22  4  0  0  0  0
 16 24  1  0  0  0  0
 16 32  1  0  0  0  0
 18 32  1  0  0  0  0
 18 56  1  0  0  0  0
 18 61  1  0  0  0  0
 20 28  1  0  0  0  0
 20 42  1  0  0  0  0
 20 61  1  0  0  0  0
 24 28  1  0  0  0  0
 24 52  1  0  0  0  0
 24 58  1  0  0  0  0
 28 58  1  0  0  0  0
 28 61  1  0  0  0  0
 32 56  1  0  0  0  0
 32 61  1  0  0  0  0
 34 36  1  0  0  0  0
 34 46  1  0  0  0  0
 34 50  1  0  0  0  0
 34 54  1  0  0  0  0
 36 44  1  0  0  0  0
 36 54  1  0  0  0  0
 36 62  1  0  0  0  0
 38 40  1  0  0  0  0
 38 46  1  0  0  0  0
 38 48  1  0  0  0  0
 38 62  1  0  0  0  0
 40 44  1  0  0  0  0
 40 48  1  0  0  0  0
 40 62  1  0  0  0  0
 42 52  1  0  0  0  0
 42 56  1  0  0  0  0
 42 58  1  0  0  0  0
 44 54  1  0  0  0  0
 44 62  1  0  0  0  0
 46 48  1  0  0  0  0
 46 50  1  0  0  0  0
 48 50  1  0  0  0  0
 50 54  1  0  0  0  0
 52 56  1  0  0  0  0
 52 58  1  0  0  0  0
 60 62  1  0  0  0  0
 60 64  1  0  0  0  0
 72 84  4  0  0  0  0
 76 82  4  0  0  0  0
 78115  4  0  0  0  0
 80 84  4  0  0  0  0
 87116  4  0  0  0  0
 95111  4  0  0  0  0
 97115  4  0  0  0  0
 99105  4  0  0  0  0
101103  4  0  0  0  0
101109  4  0  0  0  0
107113  4  0  0  0  0
M  CHG  2  18  -1  26  -1
M  END
$$$$
UFUJIQ

From CSD data. Using bond type 'Any'. No disordered atoms. Largest molecule.
171176  0  0  0  0  0  0  0  0999 V2000
    1.4259    5.2331    4.8641 Fe  0  3  0  0  0  0  0  0  0  0  0  0
    4.1107    4.3181    2.6904 Fe  0  3  0  0  0  0  0  0  0  0  0  0
    0.6007    7.4128    5.8428 P   0  0  0  0  0  0  0  0  0  0  0  0
   -0.8982    4.6079    4.4463 P   0  0  0  0  0  0  0  0  0  0  0  0
    1.4228    4.1375    7.0732 P   0  0  0  0  0  0  0  0  0  0  0  0
    5.2173    2.1180    2.0887 P   0  0  0  0  0  0  0  0  0  0  0  0
    4.1358    4.9166    0.2924 P   0  0  0  0  0  0  0  0  0  0  0  0
    6.2227    5.5142    3.0821 P   0  0  0  0  0  0  0  0  0  0  0  0
    2.7094    4.7592    3.7207 O   0  0  0  0  0  0  0  0  0  0  0  0
   -1.2941    5.5864    7.3308 B   0  5  0  0  0  0  0  0  0  0  0  0
    7.0023    4.0055    0.5120 B   0  5  0  0  0  0  0  0  0  0  0  0
   -2.4458    5.6958    8.4406 C   0  0  0  0  0  0  0  0  0  0  0  0
   -3.7899    5.2073    8.2748 C   0  0  0  0  0  0  0  0  0  0  0  0
   -4.0506    4.8461    7.4355 H   0  0  0  0  0  0  0  0  0  0  0  0
   -4.7071    5.2492    9.3046 C   0  0  0  0  0  0  0  0  0  0  0  0
   -5.5756    4.8911    9.1635 H   0  0  0  0  0  0  0  0  0  0  0  0
   -4.4082    5.7797   10.4959 C   0  0  0  0  0  0  0  0  0  0  0  0
   -5.0563    5.8067   11.1897 H   0  0  0  0  0  0  0  0  0  0  0  0
   -3.1667    6.2772   10.6937 C   0  0  0  0  0  0  0  0  0  0  0  0
   -2.9473    6.6773   11.5271 H   0  0  0  0  0  0  0  0  0  0  0  0
   -2.2205    6.2113    9.7031 C   0  0  0  0  0  0  0  0  0  0  0  0
   -1.3506    6.5395    9.8995 H   0  0  0  0  0  0  0  0  0  0  0  0
   -0.9535    7.1344    6.7737 C   0  0  0  0  0  0  0  0  0  0  0  0
   -0.9455    7.7413    7.5577 H   0  0  0  0  0  0  0  0  0  0  0  0
   -1.7042    7.4176    6.1963 H   0  0  0  0  0  0  0  0  0  0  0  0
   -1.7937    4.6379    6.0145 C   0  0  0  0  0  0  0  0  0  0  0  0
   -2.7233    4.9061    5.8065 H   0  0  0  0  0  0  0  0  0  0  0  0
   -1.8353    3.7028    6.3374 H   0  0  0  0  0  0  0  0  0  0  0  0
    0.1186    4.8611    8.0886 C   0  0  0  0  0  0  0  0  0  0  0  0
   -0.2059    4.1523    8.6981 H   0  0  0  0  0  0  0  0  0  0  0  0
    0.5384    5.5564    8.6544 H   0  0  0  0  0  0  0  0  0  0  0  0
    1.8594    7.9510    7.1068 C   0  0  0  0  0  0  0  0  0  0  0  0
    2.0557    7.1613    7.6872 H   0  0  0  0  0  0  0  0  0  0  0  0
    1.3575    9.1199    8.0493 C   0  0  0  0  0  0  0  0  0  0  0  0
    0.6526    8.7827    8.6399 H   0  0  0  0  0  0  0  0  0  0  0  0
    1.0028    9.8511    7.5024 H   0  0  0  0  0  0  0  0  0  0  0  0
    2.1071    9.4495    8.5890 H   0  0  0  0  0  0  0  0  0  0  0  0
    3.1230    8.3092    6.4043 C   0  0  0  0  0  0  0  0  0  0  0  0
    3.0241    9.1888    5.9839 H   0  0  0  0  0  0  0  0  0  0  0  0
    3.3150    7.6379    5.7177 H   0  0  0  0  0  0  0  0  0  0  0  0
    3.8591    8.3362    7.0501 H   0  0  0  0  0  0  0  0  0  0  0  0
    0.3947    9.0300    4.8188 C   0  0  0  0  0  0  0  0  0  0  0  0
    0.9926    9.7193    5.2305 H   0  0  0  0  0  0  0  0  0  0  0  0
   -0.9897    9.5949    4.8130 C   0  0  0  0  0  0  0  0  0  0  0  0
   -0.9728   10.5000    4.4378 H   0  0  0  0  0  0  0  0  0  0  0  0
   -1.3336    9.6264    5.7294 H   0  0  0  0  0  0  0  0  0  0  0  0
   -1.5716    9.0255    4.2661 H   0  0  0  0  0  0  0  0  0  0  0  0
    0.8766    8.8232    3.3498 C   0  0  0  0  0  0  0  0  0  0  0  0
    0.3550    8.1054    2.9338 H   0  0  0  0  0  0  0  0  0  0  0  0
    1.8254    8.5804    3.3483 H   0  0  0  0  0  0  0  0  0  0  0  0
    0.7520    9.6533    2.8451 H   0  0  0  0  0  0  0  0  0  0  0  0
   -1.7500    5.9206    3.4094 C   0  0  0  0  0  0  0  0  0  0  0  0
   -1.3831    6.7852    3.7527 H   0  0  0  0  0  0  0  0  0  0  0  0
   -3.2558    6.0794    3.5214 C   0  0  0  0  0  0  0  0  0  0  0  0
   -3.5620    6.7507    2.8770 H   0  0  0  0  0  0  0  0  0  0  0  0
   -3.4854    6.3701    4.4290 H   0  0  0  0  0  0  0  0  0  0  0  0
   -3.6903    5.2223    3.3338 H   0  0  0  0  0  0  0  0  0  0  0  0
   -1.2761    5.8561    1.9622 C   0  0  0  0  0  0  0  0  0  0  0  0
   -1.6587    5.0649    1.5287 H   0  0  0  0  0  0  0  0  0  0  0  0
   -0.2987    5.7977    1.9418 H   0  0  0  0  0  0  0  0  0  0  0  0
   -1.5665    6.6623    1.4865 H   0  0  0  0  0  0  0  0  0  0  0  0
   -1.2603    2.9026    3.7556 C   0  0  0  0  0  0  0  0  0  0  0  0
   -0.9840    2.2433    4.4552 H   0  0  0  0  0  0  0  0  0  0  0  0
   -2.7175    2.6464    3.4661 C   0  0  0  0  0  0  0  0  0  0  0  0
   -2.9416    3.0000    2.5803 H   0  0  0  0  0  0  0  0  0  0  0  0
   -3.2681    3.0899    4.1439 H   0  0  0  0  0  0  0  0  0  0  0  0
   -2.8894    1.6813    3.4850 H   0  0  0  0  0  0  0  0  0  0  0  0
   -0.4028    2.6149    2.5076 C   0  0  0  0  0  0  0  0  0  0  0  0
   -0.4207    1.6543    2.3112 H   0  0  0  0  0  0  0  0  0  0  0  0
    0.5210    2.8966    2.6734 H   0  0  0  0  0  0  0  0  0  0  0  0
   -0.7632    3.1109    1.7425 H   0  0  0  0  0  0  0  0  0  0  0  0
    0.9963    2.2957    6.9788 C   0  0  0  0  0  0  0  0  0  0  0  0
    0.0211    2.2672    6.7592 H   0  0  0  0  0  0  0  0  0  0  0  0
    1.1244    1.5480    8.3228 C   0  0  0  0  0  0  0  0  0  0  0  0
    0.6907    0.6728    8.2530 H   0  0  0  0  0  0  0  0  0  0  0  0
    0.6933    2.0709    9.0297 H   0  0  0  0  0  0  0  0  0  0  0  0
    2.0733    1.4266    8.5395 H   0  0  0  0  0  0  0  0  0  0  0  0
    1.6730    1.5959    5.8356 C   0  0  0  0  0  0  0  0  0  0  0  0
    2.6204    1.4685    6.0465 H   0  0  0  0  0  0  0  0  0  0  0  0
    1.5877    2.1399    5.0239 H   0  0  0  0  0  0  0  0  0  0  0  0
    1.2499    0.7238    5.6901 H   0  0  0  0  0  0  0  0  0  0  0  0
    2.9968    4.2902    8.0522 C   0  0  0  0  0  0  0  0  0  0  0  0
    3.2348    5.2492    7.8908 H   0  0  0  0  0  0  0  0  0  0  0  0
    2.9716    4.2467    9.5053 C   0  0  0  0  0  0  0  0  0  0  0  0
    2.8542    3.3192    9.8006 H   0  0  0  0  0  0  0  0  0  0  0  0
    2.2269    4.7907    9.8355 H   0  0  0  0  0  0  0  0  0  0  0  0
    3.8149    4.5989    9.8573 H   0  0  0  0  0  0  0  0  0  0  0  0
    4.1640    3.5934    7.4399 C   0  0  0  0  0  0  0  0  0  0  0  0
    4.9938    3.9411    7.8312 H   0  0  0  0  0  0  0  0  0  0  0  0
    4.1690    3.7522    6.4726 H   0  0  0  0  0  0  0  0  0  0  0  0
    4.0993    2.6314    7.6130 H   0  0  0  0  0  0  0  0  0  0  0  0
    8.3670    3.8721   -0.3738 C   0  0  0  0  0  0  0  0  0  0  0  0
    9.5233    3.2562    0.1876 C   0  0  0  0  0  0  0  0  0  0  0  0
    9.4725    2.8561    1.0473 H   0  0  0  0  0  0  0  0  0  0  0  0
   10.7015    3.2338   -0.4960 C   0  0  0  0  0  0  0  0  0  0  0  0
   11.4493    2.8247   -0.0756 H   0  0  0  0  0  0  0  0  0  0  0  0
   10.8825    3.7522   -1.7352 C   0  0  0  0  0  0  0  0  0  0  0  0
   11.7328    3.7418   -2.1585 H   0  0  0  0  0  0  0  0  0  0  0  0
    9.7785    4.2962   -2.3563 C   0  0  0  0  0  0  0  0  0  0  0  0
    9.8404    4.6259   -3.2450 H   0  0  0  0  0  0  0  0  0  0  0  0
    8.5808    4.3561   -1.6683 C   0  0  0  0  0  0  0  0  0  0  0  0
    7.8424    4.7592   -2.1105 H   0  0  0  0  0  0  0  0  0  0  0  0
    6.3834    2.4515    0.7534 C   0  0  0  0  0  0  0  0  0  0  0  0
    7.1568    1.8462    0.8829 H   0  0  0  0  0  0  0  0  0  0  0  0
    5.9453    2.1773   -0.0916 H   0  0  0  0  0  0  0  0  0  0  0  0
    5.8392    4.9391   -0.3360 C   0  0  0  0  0  0  0  0  0  0  0  0
    5.8236    4.6274   -1.2756 H   0  0  0  0  0  0  0  0  0  0  0  0
    6.1494    5.8786   -0.3447 H   0  0  0  0  0  0  0  0  0  0  0  0
    7.4560    4.7892    1.9636 C   0  0  0  0  0  0  0  0  0  0  0  0
    8.0818    5.5145    1.7163 H   0  0  0  0  0  0  0  0  0  0  0  0
    7.9748    4.1329    2.4945 H   0  0  0  0  0  0  0  0  0  0  0  0
    6.2933    1.5090    3.4720 C   0  0  0  0  0  0  0  0  0  0  0  0
    6.8905    2.2642    3.7410 H   0  0  0  0  0  0  0  0  0  0  0  0
    7.1738    0.3207    3.1680 C   0  0  0  0  0  0  0  0  0  0  0  0
    7.6695    0.0674    3.9738 H   0  0  0  0  0  0  0  0  0  0  0  0
    7.8062    0.5574    2.4567 H   0  0  0  0  0  0  0  0  0  0  0  0
    6.6193   -0.4316    2.8741 H   0  0  0  0  0  0  0  0  0  0  0  0
    5.3712    1.1943    4.6807 C   0  0  0  0  0  0  0  0  0  0  0  0
    4.7719    0.4525    4.4508 H   0  0  0  0  0  0  0  0  0  0  0  0
    4.8395    1.9870    4.9017 H   0  0  0  0  0  0  0  0  0  0  0  0
    5.9187    0.9426    5.4530 H   0  0  0  0  0  0  0  0  0  0  0  0
    4.2103    0.5694    1.6654 C   0  0  0  0  0  0  0  0  0  0  0  0
    4.4802   -0.1304    2.3258 H   0  0  0  0  0  0  0  0  0  0  0  0
    4.5180   -0.0060    0.2793 C   0  0  0  0  0  0  0  0  0  0  0  0
    4.0730   -0.8736    0.1789 H   0  0  0  0  0  0  0  0  0  0  0  0
    5.4865   -0.1229    0.1818 H   0  0  0  0  0  0  0  0  0  0  0  0
    4.1925    0.6099   -0.4102 H   0  0  0  0  0  0  0  0  0  0  0  0
    2.7259    0.7762    1.8502 C   0  0  0  0  0  0  0  0  0  0  0  0
    2.4382    1.5569    1.3323 H   0  0  0  0  0  0  0  0  0  0  0  0
    2.5332    0.9261    2.8000 H   0  0  0  0  0  0  0  0  0  0  0  0
    2.2433   -0.0180    1.5403 H   0  0  0  0  0  0  0  0  0  0  0  0
    3.4113    6.6024   -0.1789 C   0  0  0  0  0  0  0  0  0  0  0  0
    4.0420    7.2752    0.2080 H   0  0  0  0  0  0  0  0  0  0  0  0
    3.4372    6.8511   -1.6654 C   0  0  0  0  0  0  0  0  0  0  0  0
    2.8759    6.1873   -2.1178 H   0  0  0  0  0  0  0  0  0  0  0  0
    4.3587    6.7792   -1.9927 H   0  0  0  0  0  0  0  0  0  0  0  0
    3.0946    7.7502   -1.8516 H   0  0  0  0  0  0  0  0  0  0  0  0
    2.1207    6.8856    0.4451 C   0  0  0  0  0  0  0  0  0  0  0  0
    1.9566    7.8521    0.4305 H   0  0  0  0  0  0  0  0  0  0  0  0
    2.1319    6.5709    1.3731 H   0  0  0  0  0  0  0  0  0  0  0  0
    1.4113    6.4256   -0.0480 H   0  0  0  0  0  0  0  0  0  0  0  0
    3.2423    3.6129   -0.7244 C   0  0  0  0  0  0  0  0  0  0  0  0
    3.4922    2.7468   -0.2938 H   0  0  0  0  0  0  0  0  0  0  0  0
    3.7031    3.4720   -2.1396 C   0  0  0  0  0  0  0  0  0  0  0  0
    3.3629    2.6329   -2.5120 H   0  0  0  0  0  0  0  0  0  0  0  0
    4.6829    3.4675   -2.1643 H   0  0  0  0  0  0  0  0  0  0  0  0
    3.3656    4.2243   -2.6691 H   0  0  0  0  0  0  0  0  0  0  0  0
    1.7544    3.6728   -0.6036 C   0  0  0  0  0  0  0  0  0  0  0  0
    1.4062    4.3816   -1.1840 H   0  0  0  0  0  0  0  0  0  0  0  0
    1.5097    3.8616    0.3258 H   0  0  0  0  0  0  0  0  0  0  0  0
    1.3702    2.8127   -0.8727 H   0  0  0  0  0  0  0  0  0  0  0  0
    6.1095    7.3277    2.4989 C   0  0  0  0  0  0  0  0  0  0  0  0
    6.0592    7.2827    1.5011 H   0  0  0  0  0  0  0  0  0  0  0  0
    7.3549    8.1668    2.8072 C   0  0  0  0  0  0  0  0  0  0  0  0
    7.2625    9.0509    2.3956 H   0  0  0  0  0  0  0  0  0  0  0  0
    8.1483    7.7188    2.4451 H   0  0  0  0  0  0  0  0  0  0  0  0
    7.4499    8.2657    3.7774 H   0  0  0  0  0  0  0  0  0  0  0  0
    4.8330    8.0200    2.9352 C   0  0  0  0  0  0  0  0  0  0  0  0
    4.9008    8.2597    3.8821 H   0  0  0  0  0  0  0  0  0  0  0  0
    4.0731    7.4161    2.8029 H   0  0  0  0  0  0  0  0  0  0  0  0
    4.7039    8.8322    2.4014 H   0  0  0  0  0  0  0  0  0  0  0  0
    7.0818    5.7363    4.7185 C   0  0  0  0  0  0  0  0  0  0  0  0
    7.8809    6.3117    4.5439 H   0  0  0  0  0  0  0  0  0  0  0  0
    7.6088    4.4356    5.3177 C   0  0  0  0  0  0  0  0  0  0  0  0
    8.1402    4.6364    6.1163 H   0  0  0  0  0  0  0  0  0  0  0  0
    8.1692    3.9755    4.6588 H   0  0  0  0  0  0  0  0  0  0  0  0
    6.8540    3.8601    5.5636 H   0  0  0  0  0  0  0  0  0  0  0  0
    6.2125    6.4915    5.7381 C   0  0  0  0  0  0  0  0  0  0  0  0
    5.3150    6.0989    5.7570 H   0  0  0  0  0  0  0  0  0  0  0  0
    6.1507    7.4356    5.4806 H   0  0  0  0  0  0  0  0  0  0  0  0
    6.6174    6.4211    6.6283 H   0  0  0  0  0  0  0  0  0  0  0  0
  1  3  1  0  0  0  0
  2  6  1  0  0  0  0
  3 23  1  0  0  0  0
  4  1  1  0  0  0  0
  5  1  1  0  0  0  0
  6103  1  0  0  0  0
  7  2  1  0  0  0  0
  8  2  1  0  0  0  0
  9  1  1  0  0  0  0
 10 12  1  0  0  0  0
 11 92  1  0  0  0  0
 12 13  4  0  0  0  0
 13 14  1  0  0  0  0
 15 13  4  0  0  0  0
 16 15  1  0  0  0  0
 17 15  4  0  0  0  0
 18 17  1  0  0  0  0
 19 17  4  0  0  0  0
 20 19  1  0  0  0  0
 21 12  4  0  0  0  0
 22 21  1  0  0  0  0
 23 10  1  0  0  0  0
 24 23  1  0  0  0  0
 25 23  1  0  0  0  0
 26  4  1  0  0  0  0
 27 26  1  0  0  0  0
 28 26  1  0  0  0  0
 29  5  1  0  0  0  0
 30 29  1  0  0  0  0
 31 29  1  0  0  0  0
 32  3  1  0  0  0  0
 33 32  1  0  0  0  0
 34 32  1  0  0  0  0
 35 34  1  0  0  0  0
 36 34  1  0  0  0  0
 37 34  1  0  0  0  0
 38 32  1  0  0  0  0
 39 38  1  0  0  0  0
 40 38  1  0  0  0  0
 41 38  1  0  0  0  0
 42  3  1  0  0  0  0
 43 42  1  0  0  0  0
 44 42  1  0  0  0  0
 45 44  1  0  0  0  0
 46 44  1  0  0  0  0
 47 44  1  0  0  0  0
 48 42  1  0  0  0  0
 49 48  1  0  0  0  0
 50 48  1  0  0  0  0
 51 48  1  0  0  0  0
 52  4  1  0  0  0  0
 53 52  1  0  0  0  0
 54 52  1  0  0  0  0
 55 54  1  0  0  0  0
 56 54  1  0  0  0  0
 57 54  1  0  0  0  0
 58 52  1  0  0  0  0
 59 58  1  0  0  0  0
 60 58  1  0  0  0  0
 61 58  1  0  0  0  0
 62  4  1  0  0  0  0
 63 62  1  0  0  0  0
 64 62  1  0  0  0  0
 65 64  1  0  0  0  0
 66 64  1  0  0  0  0
 67 64  1  0  0  0  0
 68 62  1  0  0  0  0
 69 68  1  0  0  0  0
 70 68  1  0  0  0  0
 71 68  1  0  0  0  0
 72  5  1  0  0  0  0
 73 72  1  0  0  0  0
 74 72  1  0  0  0  0
 75 74  1  0  0  0  0
 76 74  1  0  0  0  0
 77 74  1  0  0  0  0
 78 72  1  0  0  0  0
 79 78  1  0  0  0  0
 80 78  1  0  0  0  0
 81 78  1  0  0  0  0
 82  5  1  0  0  0  0
 83 82  1  0  0  0  0
 84 82  1  0  0  0  0
 85 84  1  0  0  0  0
 86 84  1  0  0  0  0
 87 84  1  0  0  0  0
 88 82  1  0  0  0  0
 89 88  1  0  0  0  0
 90 88  1  0  0  0  0
 91 88  1  0  0  0  0
 92 93  4  0  0  0  0
 93 94  1  0  0  0  0
 95 93  4  0  0  0  0
 96 95  1  0  0  0  0
 97 95  4  0  0  0  0
 98 97  1  0  0  0  0
 99 97  4  0  0  0  0
100 99  1  0  0  0  0
101 92  4  0  0  0  0
102101  1  0  0  0  0
103 11  1  0  0  0  0
104103  1  0  0  0  0
105103  1  0  0  0  0
106  7  1  0  0  0  0
107106  1  0  0  0  0
108106  1  0  0  0  0
109  8  1  0  0  0  0
110109  1  0  0  0  0
111109  1  0  0  0  0
112  6  1  0  0  0  0
113112  1  0  0  0  0
114112  1  0  0  0  0
115114  1  0  0  0  0
116114  1  0  0  0  0
117114  1  0  0  0  0
118112  1  0  0  0  0
119118  1  0  0  0  0
120118  1  0  0  0  0
121118  1  0  0  0  0
122  6  1  0  0  0  0
123122  1  0  0  0  0
124122  1  0  0  0  0
125124  1  0  0  0  0
126124  1  0  0  0  0
127124  1  0  0  0  0
128122  1  0  0  0  0
129128  1  0  0  0  0
130128  1  0  0  0  0
131128  1  0  0  0  0
132  7  1  0  0  0  0
133132  1  0  0  0  0
134132  1  0  0  0  0
135134  1  0  0  0  0
136134  1  0  0  0  0
137134  1  0  0  0  0
138132  1  0  0  0  0
139138  1  0  0  0  0
140138  1  0  0  0  0
141138  1  0  0  0  0
142  7  1  0  0  0  0
143142  1  0  0  0  0
144142  1  0  0  0  0
145144  1  0  0  0  0
146144  1  0  0  0  0
147144  1  0  0  0  0
148142  1  0  0  0  0
149148  1  0  0  0  0
150148  1  0  0  0  0
151148  1  0  0  0  0
152  8  1  0  0  0  0
153152  1  0  0  0  0
154152  1  0  0  0  0
155154  1  0  0  0  0
156154  1  0  0  0  0
157154  1  0  0  0  0
158152  1  0  0  0  0
159158  1  0  0  0  0
160158  1  0  0  0  0
161158  1  0  0  0  0
162  8  1  0  0  0  0
163162  1  0  0  0  0
164162  1  0  0  0  0
165164  1  0  0  0  0
166164  1  0  0  0  0
167164  1  0  0  0  0
168162  1  0  0  0  0
169168  1  0  0  0  0
170168  1  0  0  0  0
171168  1  0  0  0  0
  2  9  1  0  0  0  0
 10 26  1  0  0  0  0
 10 29  1  0  0  0  0
 11106  1  0  0  0  0
 11109  1  0  0  0  0
 19 21  4  0  0  0  0
 99101  4  0  0  0  0
M  CHG  4   1   1   2   1  10  -1  11  -1
M  END
$$$$
UFUJOW

From CSD data. Using bond type 'Any'. No disordered atoms. Largest molecule.
183200  0  0  0  0  0  0  0  0999 V2000
   13.9983   24.9626    2.0939 O   0  0  0  0  0  0  0  0  0  0  0  0
   13.5114   25.5946    0.5335 Fe  0  0  0  0  0  0  0  0  0  0  0  0
   14.2380   27.7620   -0.1822 P   0  0  0  0  0  0  0  0  0  0  0  0
   15.9161   28.2343    0.3668 C   0  0  0  0  0  0  0  0  0  0  0  0
   16.6617   29.1895   -0.2831 C   0  0  0  0  0  0  0  0  0  0  0  0
   16.2922   29.6522   -1.0268 H   0  0  0  0  0  0  0  0  0  0  0  0
   17.9531   29.4791    0.1424 C   0  0  0  0  0  0  0  0  0  0  0  0
   18.4756   30.1148   -0.3317 H   0  0  0  0  0  0  0  0  0  0  0  0
   18.4789   28.8534    1.2396 C   0  0  0  0  0  0  0  0  0  0  0  0
   19.3543   29.0730    1.5327 H   0  0  0  0  0  0  0  0  0  0  0  0
   17.7600   27.9214    1.9113 C   0  0  0  0  0  0  0  0  0  0  0  0
   18.1228   27.5021    2.6835 H   0  0  0  0  0  0  0  0  0  0  0  0
   16.5019   27.5886    1.4590 C   0  0  0  0  0  0  0  0  0  0  0  0
   16.0193   26.8996    1.9029 H   0  0  0  0  0  0  0  0  0  0  0  0
   13.1536   29.1296    0.3367 C   0  0  0  0  0  0  0  0  0  0  0  0
   12.1851   28.8667    1.2814 C   0  0  0  0  0  0  0  0  0  0  0  0
   12.0752   27.9880    1.6198 H   0  0  0  0  0  0  0  0  0  0  0  0
   11.3796   29.8951    1.7371 C   0  0  0  0  0  0  0  0  0  0  0  0
   10.7472   29.7187    2.4222 H   0  0  0  0  0  0  0  0  0  0  0  0
   11.4728   31.1399    1.2295 C   0  0  0  0  0  0  0  0  0  0  0  0
   10.9103   31.8356    1.5495 H   0  0  0  0  0  0  0  0  0  0  0  0
   12.3881   31.3829    0.2496 C   0  0  0  0  0  0  0  0  0  0  0  0
   12.4413   32.2483   -0.1374 H   0  0  0  0  0  0  0  0  0  0  0  0
   13.2468   30.3844   -0.1910 C   0  0  0  0  0  0  0  0  0  0  0  0
   13.8958   30.5741   -0.8576 H   0  0  0  0  0  0  0  0  0  0  0  0
   14.6058   24.6454   -1.3761 P   0  0  0  0  0  0  0  0  0  0  0  0
   16.3877   25.0827   -1.3635 C   0  0  0  0  0  0  0  0  0  0  0  0
   17.0944   25.3653   -2.5043 C   0  0  0  0  0  0  0  0  0  0  0  0
   16.6583   25.3586   -3.3485 H   0  0  0  0  0  0  0  0  0  0  0  0
   18.4490   25.6615   -2.4272 C   0  0  0  0  0  0  0  0  0  0  0  0
   18.9383   25.8346   -3.2229 H   0  0  0  0  0  0  0  0  0  0  0  0
   19.0780   25.7014   -1.2278 C   0  0  0  0  0  0  0  0  0  0  0  0
   19.9933   25.9511   -1.1759 H   0  0  0  0  0  0  0  0  0  0  0  0
   18.3791   25.3753   -0.0821 C   0  0  0  0  0  0  0  0  0  0  0  0
   18.8351   25.3486    0.7521 H   0  0  0  0  0  0  0  0  0  0  0  0
   17.0278   25.0924   -0.1357 C   0  0  0  0  0  0  0  0  0  0  0  0
   16.5452   24.9026    0.6617 H   0  0  0  0  0  0  0  0  0  0  0  0
   14.8244   22.8324   -1.7069 C   0  0  0  0  0  0  0  0  0  0  0  0
   15.1806   22.0136   -0.6432 C   0  0  0  0  0  0  0  0  0  0  0  0
   15.2305   22.3864    0.2295 H   0  0  0  0  0  0  0  0  0  0  0  0
   15.4635   20.6756   -0.8174 C   0  0  0  0  0  0  0  0  0  0  0  0
   15.7797   20.1631   -0.0821 H   0  0  0  0  0  0  0  0  0  0  0  0
   15.3037   20.0899   -2.0135 C   0  0  0  0  0  0  0  0  0  0  0  0
   15.4269   19.1546   -2.1207 H   0  0  0  0  0  0  0  0  0  0  0  0
   14.9609   20.8654   -3.0537 C   0  0  0  0  0  0  0  0  0  0  0  0
   14.8744   20.4660   -3.9097 H   0  0  0  0  0  0  0  0  0  0  0  0
   14.7312   22.2200   -2.9297 C   0  0  0  0  0  0  0  0  0  0  0  0
   14.5049   22.7326   -3.6969 H   0  0  0  0  0  0  0  0  0  0  0  0
   11.4365   25.7520   -0.6814 P   0  0  0  0  0  0  0  0  0  0  0  0
   10.9356   24.1418   -1.4054 C   0  0  0  0  0  0  0  0  0  0  0  0
   11.2964   22.9722   -0.7555 C   0  0  0  0  0  0  0  0  0  0  0  0
   11.7890   23.0288    0.0553 H   0  0  0  0  0  0  0  0  0  0  0  0
   10.9602   21.7181   -1.2530 C   0  0  0  0  0  0  0  0  0  0  0  0
   11.2398   20.9353   -0.7957 H   0  0  0  0  0  0  0  0  0  0  0  0
   10.2346   21.6142   -2.3853 C   0  0  0  0  0  0  0  0  0  0  0  0
    9.9784   20.7589   -2.7120 H   0  0  0  0  0  0  0  0  0  0  0  0
    9.8685   22.7459   -3.0587 C   0  0  0  0  0  0  0  0  0  0  0  0
    9.3626   22.6693   -3.8611 H   0  0  0  0  0  0  0  0  0  0  0  0
   10.2247   24.0173   -2.5914 C   0  0  0  0  0  0  0  0  0  0  0  0
    9.9817   24.7928   -3.0855 H   0  0  0  0  0  0  0  0  0  0  0  0
    9.8153   26.2872    0.0134 C   0  0  0  0  0  0  0  0  0  0  0  0
    9.1762   27.4388   -0.3668 C   0  0  0  0  0  0  0  0  0  0  0  0
    9.5457   27.9780   -1.0536 H   0  0  0  0  0  0  0  0  0  0  0  0
    7.9814   27.8183    0.2529 C   0  0  0  0  0  0  0  0  0  0  0  0
    7.5786   28.6404   -0.0050 H   0  0  0  0  0  0  0  0  0  0  0  0
    7.3789   27.0727    1.1994 C   0  0  0  0  0  0  0  0  0  0  0  0
    6.6334   27.3922    1.6918 H   0  0  0  0  0  0  0  0  0  0  0  0
    7.9015   25.8379    1.4071 C   0  0  0  0  0  0  0  0  0  0  0  0
    7.4255   25.2288    1.9599 H   0  0  0  0  0  0  0  0  0  0  0  0
    9.1063   25.4285    0.8409 C   0  0  0  0  0  0  0  0  0  0  0  0
    9.4458   24.5565    1.0218 H   0  0  0  0  0  0  0  0  0  0  0  0
   14.2659   27.8852   -2.0017 C   0  0  0  0  0  0  0  0  0  0  0  0
   14.0356   28.8134   -2.2530 H   0  0  0  0  0  0  0  0  0  0  0  0
   15.1905   27.7151   -2.3099 H   0  0  0  0  0  0  0  0  0  0  0  0
   13.9155   25.3297   -2.9096 C   0  0  0  0  0  0  0  0  0  0  0  0
   14.6347   25.3453   -3.5914 H   0  0  0  0  0  0  0  0  0  0  0  0
   13.2135   24.7129   -3.2346 H   0  0  0  0  0  0  0  0  0  0  0  0
   11.7287   26.8351   -2.1173 C   0  0  0  0  0  0  0  0  0  0  0  0
   11.0834   26.5768   -2.8225 H   0  0  0  0  0  0  0  0  0  0  0  0
   11.5061   27.7617   -1.8443 H   0  0  0  0  0  0  0  0  0  0  0  0
   13.2544   26.8657   -2.8175 B   0  0  0  0  0  0  0  0  0  0  0  0
   12.9665   27.4578   -4.3284 C   0  0  0  0  0  0  0  0  0  0  0  0
   12.9173   26.6846   -5.4507 C   0  0  0  0  0  0  0  0  0  0  0  0
   13.1303   25.7614   -5.3737 H   0  0  0  0  0  0  0  0  0  0  0  0
   12.5745   27.1756   -6.6953 C   0  0  0  0  0  0  0  0  0  0  0  0
   12.5112   26.5768   -7.4307 H   0  0  0  0  0  0  0  0  0  0  0  0
   12.3318   28.4899   -6.8863 C   0  0  0  0  0  0  0  0  0  0  0  0
   12.1984   28.8367   -7.7607 H   0  0  0  0  0  0  0  0  0  0  0  0
   12.2802   29.3190   -5.7841 C   0  0  0  0  0  0  0  0  0  0  0  0
   12.0419   30.2346   -5.8779 H   0  0  0  0  0  0  0  0  0  0  0  0
   12.5855   28.7878   -4.5211 C   0  0  0  0  0  0  0  0  0  0  0  0
   12.5312   29.3593   -3.7623 H   0  0  0  0  0  0  0  0  0  0  0  0
   13.5114   24.3305    3.6542 Fe  0  0  0  0  0  0  0  0  0  0  0  0
   14.2380   22.1631    4.3700 P   0  0  0  0  0  0  0  0  0  0  0  0
   15.9161   21.6908    3.8209 C   0  0  0  0  0  0  0  0  0  0  0  0
   16.6617   20.7356    4.4708 C   0  0  0  0  0  0  0  0  0  0  0  0
   16.2922   20.2729    5.2146 H   0  0  0  0  0  0  0  0  0  0  0  0
   17.9531   20.4460    4.0453 C   0  0  0  0  0  0  0  0  0  0  0  0
   18.4756   19.8103    4.5194 H   0  0  0  0  0  0  0  0  0  0  0  0
   18.4789   21.0717    2.9482 C   0  0  0  0  0  0  0  0  0  0  0  0
   19.3543   20.8521    2.6550 H   0  0  0  0  0  0  0  0  0  0  0  0
   17.7600   22.0037    2.2764 C   0  0  0  0  0  0  0  0  0  0  0  0
   18.1228   22.4230    1.5042 H   0  0  0  0  0  0  0  0  0  0  0  0
   16.5019   22.3365    2.7287 C   0  0  0  0  0  0  0  0  0  0  0  0
   16.0193   23.0255    2.2848 H   0  0  0  0  0  0  0  0  0  0  0  0
   13.1536   20.7955    3.8510 C   0  0  0  0  0  0  0  0  0  0  0  0
   12.1851   21.0584    2.9063 C   0  0  0  0  0  0  0  0  0  0  0  0
   12.0752   21.9371    2.5679 H   0  0  0  0  0  0  0  0  0  0  0  0
   11.3796   20.0300    2.4507 C   0  0  0  0  0  0  0  0  0  0  0  0
   10.7472   20.2064    1.7655 H   0  0  0  0  0  0  0  0  0  0  0  0
   11.4728   18.7852    2.9582 C   0  0  0  0  0  0  0  0  0  0  0  0
   10.9103   18.0895    2.6383 H   0  0  0  0  0  0  0  0  0  0  0  0
   12.3881   18.5422    3.9381 C   0  0  0  0  0  0  0  0  0  0  0  0
   12.4413   17.6768    4.3251 H   0  0  0  0  0  0  0  0  0  0  0  0
   13.2468   19.5407    4.3787 C   0  0  0  0  0  0  0  0  0  0  0  0
   13.8958   19.3510    5.0454 H   0  0  0  0  0  0  0  0  0  0  0  0
   14.6058   25.2797    5.5638 P   0  0  0  0  0  0  0  0  0  0  0  0
   16.3877   24.8424    5.5512 C   0  0  0  0  0  0  0  0  0  0  0  0
   17.0944   24.5598    6.6920 C   0  0  0  0  0  0  0  0  0  0  0  0
   16.6583   24.5665    7.5362 H   0  0  0  0  0  0  0  0  0  0  0  0
   18.4490   24.2636    6.6149 C   0  0  0  0  0  0  0  0  0  0  0  0
   18.9383   24.0905    7.4106 H   0  0  0  0  0  0  0  0  0  0  0  0
   19.0780   24.2237    5.4156 C   0  0  0  0  0  0  0  0  0  0  0  0
   19.9933   23.9740    5.3636 H   0  0  0  0  0  0  0  0  0  0  0  0
   18.3791   24.5498    4.2698 C   0  0  0  0  0  0  0  0  0  0  0  0
   18.8351   24.5765    3.4356 H   0  0  0  0  0  0  0  0  0  0  0  0
   17.0278   24.8327    4.3234 C   0  0  0  0  0  0  0  0  0  0  0  0
   16.5452   25.0225    3.5261 H   0  0  0  0  0  0  0  0  0  0  0  0
   14.8244   27.0927    5.8946 C   0  0  0  0  0  0  0  0  0  0  0  0
   15.1806   27.9115    4.8310 C   0  0  0  0  0  0  0  0  0  0  0  0
   15.2305   27.5387    3.9582 H   0  0  0  0  0  0  0  0  0  0  0  0
   15.4635   29.2495    5.0052 C   0  0  0  0  0  0  0  0  0  0  0  0
   15.7797   29.7620    4.2698 H   0  0  0  0  0  0  0  0  0  0  0  0
   15.3037   29.8352    6.2012 C   0  0  0  0  0  0  0  0  0  0  0  0
   15.4269   30.7705    6.3084 H   0  0  0  0  0  0  0  0  0  0  0  0
   14.9609   29.0597    7.2414 C   0  0  0  0  0  0  0  0  0  0  0  0
   14.8744   29.4591    8.0974 H   0  0  0  0  0  0  0  0  0  0  0  0
   14.7312   27.7051    7.1175 C   0  0  0  0  0  0  0  0  0  0  0  0
   14.5049   27.1925    7.8846 H   0  0  0  0  0  0  0  0  0  0  0  0
   11.4365   24.1731    4.8692 P   0  0  0  0  0  0  0  0  0  0  0  0
   10.9356   25.7833    5.5931 C   0  0  0  0  0  0  0  0  0  0  0  0
   11.2964   26.9529    4.9432 C   0  0  0  0  0  0  0  0  0  0  0  0
   11.7890   26.8963    4.1324 H   0  0  0  0  0  0  0  0  0  0  0  0
   10.9602   28.2070    5.4407 C   0  0  0  0  0  0  0  0  0  0  0  0
   11.2398   28.9898    4.9834 H   0  0  0  0  0  0  0  0  0  0  0  0
   10.2346   28.3109    6.5731 C   0  0  0  0  0  0  0  0  0  0  0  0
    9.9784   29.1662    6.8997 H   0  0  0  0  0  0  0  0  0  0  0  0
    9.8685   27.1792    7.2464 C   0  0  0  0  0  0  0  0  0  0  0  0
    9.3626   27.2558    8.0488 H   0  0  0  0  0  0  0  0  0  0  0  0
   10.2247   25.9078    6.7791 C   0  0  0  0  0  0  0  0  0  0  0  0
    9.9817   25.1323    7.2732 H   0  0  0  0  0  0  0  0  0  0  0  0
    9.8153   23.6379    4.1743 C   0  0  0  0  0  0  0  0  0  0  0  0
    9.1762   22.4863    4.5546 C   0  0  0  0  0  0  0  0  0  0  0  0
    9.5457   21.9471    5.2414 H   0  0  0  0  0  0  0  0  0  0  0  0
    7.9814   22.1068    3.9348 C   0  0  0  0  0  0  0  0  0  0  0  0
    7.5786   21.2847    4.1928 H   0  0  0  0  0  0  0  0  0  0  0  0
    7.3789   22.8524    2.9884 C   0  0  0  0  0  0  0  0  0  0  0  0
    6.6334   22.5329    2.4959 H   0  0  0  0  0  0  0  0  0  0  0  0
    7.9015   24.0872    2.7806 C   0  0  0  0  0  0  0  0  0  0  0  0
    7.4255   24.6963    2.2279 H   0  0  0  0  0  0  0  0  0  0  0  0
    9.1063   24.4966    3.3468 C   0  0  0  0  0  0  0  0  0  0  0  0
    9.4458   25.3686    3.1659 H   0  0  0  0  0  0  0  0  0  0  0  0
   14.2659   22.0399    6.1895 C   0  0  0  0  0  0  0  0  0  0  0  0
   14.0356   21.1117    6.4407 H   0  0  0  0  0  0  0  0  0  0  0  0
   15.1905   22.2100    6.4977 H   0  0  0  0  0  0  0  0  0  0  0  0
   13.9155   24.5954    7.0974 C   0  0  0  0  0  0  0  0  0  0  0  0
   14.6347   24.5798    7.7791 H   0  0  0  0  0  0  0  0  0  0  0  0
   13.2135   25.2122    7.4223 H   0  0  0  0  0  0  0  0  0  0  0  0
   11.7287   23.0900    6.3050 C   0  0  0  0  0  0  0  0  0  0  0  0
   11.0834   23.3483    7.0103 H   0  0  0  0  0  0  0  0  0  0  0  0
   11.5061   22.1634    6.0320 H   0  0  0  0  0  0  0  0  0  0  0  0
   13.2544   23.0594    7.0052 B   0  0  0  0  0  0  0  0  0  0  0  0
   12.9665   22.4673    8.5162 C   0  0  0  0  0  0  0  0  0  0  0  0
   12.9173   23.2405    9.6385 C   0  0  0  0  0  0  0  0  0  0  0  0
   13.1303   24.1637    9.5614 H   0  0  0  0  0  0  0  0  0  0  0  0
   12.5745   22.7495   10.8831 C   0  0  0  0  0  0  0  0  0  0  0  0
   12.5112   23.3483   11.6184 H   0  0  0  0  0  0  0  0  0  0  0  0
   12.3318   21.4352   11.0740 C   0  0  0  0  0  0  0  0  0  0  0  0
   12.1984   21.0884   11.9484 H   0  0  0  0  0  0  0  0  0  0  0  0
   12.2802   20.6061    9.9718 C   0  0  0  0  0  0  0  0  0  0  0  0
   12.0419   19.6905   10.0656 H   0  0  0  0  0  0  0  0  0  0  0  0
   12.5855   21.1373    8.7088 C   0  0  0  0  0  0  0  0  0  0  0  0
   12.5312   20.5658    7.9500 H   0  0  0  0  0  0  0  0  0  0  0  0
  1  2  1  0  0  0  0
  2  3  1  0  0  0  0
  3  4  1  0  0  0  0
  4  5  4  0  0  0  0
  5  6  1  0  0  0  0
  7  5  4  0  0  0  0
  8  7  1  0  0  0  0
  9  7  4  0  0  0  0
 10  9  1  0  0  0  0
 11  9  4  0  0  0  0
 12 11  1  0  0  0  0
 13  4  4  0  0  0  0
 14 13  1  0  0  0  0
 15  3  1  0  0  0  0
 16 15  4  0  0  0  0
 17 16  1  0  0  0  0
 18 16  4  0  0  0  0
 19 18  1  0  0  0  0
 20 18  4  0  0  0  0
 21 20  1  0  0  0  0
 22 20  4  0  0  0  0
 23 22  1  0  0  0  0
 24 15  4  0  0  0  0
 25 24  1  0  0  0  0
 26  2  1  0  0  0  0
 27 26  1  0  0  0  0
 28 27  4  0  0  0  0
 29 28  1  0  0  0  0
 30 28  4  0  0  0  0
 31 30  1  0  0  0  0
 32 30  4  0  0  0  0
 33 32  1  0  0  0  0
 34 32  4  0  0  0  0
 35 34  1  0  0  0  0
 36 27  4  0  0  0  0
 37 36  1  0  0  0  0
 38 26  1  0  0  0  0
 39 38  4  0  0  0  0
 40 39  1  0  0  0  0
 41 39  4  0  0  0  0
 42 41  1  0  0  0  0
 43 41  4  0  0  0  0
 44 43  1  0  0  0  0
 45 43  4  0  0  0  0
 46 45  1  0  0  0  0
 47 38  4  0  0  0  0
 48 47  1  0  0  0  0
 49  2  1  0  0  0  0
 50 49  1  0  0  0  0
 51 50  4  0  0  0  0
 52 51  1  0  0  0  0
 53 51  4  0  0  0  0
 54 53  1  0  0  0  0
 55 53  4  0  0  0  0
 56 55  1  0  0  0  0
 57 55  4  0  0  0  0
 58 57  1  0  0  0  0
 59 50  4  0  0  0  0
 60 59  1  0  0  0  0
 61 49  1  0  0  0  0
 62 61  4  0  0  0  0
 63 62  1  0  0  0  0
 64 62  4  0  0  0  0
 65 64  1  0  0  0  0
 66 64  4  0  0  0  0
 67 66  1  0  0  0  0
 68 66  4  0  0  0  0
 69 68  1  0  0  0  0
 70 61  4  0  0  0  0
 71 70  1  0  0  0  0
 72  3  1  0  0  0  0
 73 72  1  0  0  0  0
 74 72  1  0  0  0  0
 75 26  1  0  0  0  0
 76 75  1  0  0  0  0
 77 75  1  0  0  0  0
 78 49  1  0  0  0  0
 79 78  1  0  0  0  0
 80 78  1  0  0  0  0
 81 72  1  0  0  0  0
 82 81  1  0  0  0  0
 83 82  4  0  0  0  0
 84 83  1  0  0  0  0
 85 83  4  0  0  0  0
 86 85  1  0  0  0  0
 87 85  4  0  0  0  0
 88 87  1  0  0  0  0
 89 87  4  0  0  0  0
 90 89  1  0  0  0  0
 91 82  4  0  0  0  0
 92 91  1  0  0  0  0
 93  1  1  0  0  0  0
 94 93  1  0  0  0  0
 95 94  1  0  0  0  0
 96 95  4  0  0  0  0
 97 96  1  0  0  0  0
 98 96  4  0  0  0  0
 99 98  1  0  0  0  0
100 98  4  0  0  0  0
101100  1  0  0  0  0
102100  4  0  0  0  0
103102  1  0  0  0  0
104 95  4  0  0  0  0
105104  1  0  0  0  0
106 94  1  0  0  0  0
107106  4  0  0  0  0
108107  1  0  0  0  0
109107  4  0  0  0  0
110109  1  0  0  0  0
111109  4  0  0  0  0
112111  1  0  0  0  0
113111  4  0  0  0  0
114113  1  0  0  0  0
115106  4  0  0  0  0
116115  1  0  0  0  0
117 93  1  0  0  0  0
118117  1  0  0  0  0
119118  4  0  0  0  0
120119  1  0  0  0  0
121119  4  0  0  0  0
122121  1  0  0  0  0
123121  4  0  0  0  0
124123  1  0  0  0  0
125123  4  0  0  0  0
126125  1  0  0  0  0
127118  4  0  0  0  0
128127  1  0  0  0  0
129117  1  0  0  0  0
130129  4  0  0  0  0
131130  1  0  0  0  0
132130  4  0  0  0  0
133132  1  0  0  0  0
134132  4  0  0  0  0
135134  1  0  0  0  0
136134  4  0  0  0  0
137136  1  0  0  0  0
138129  4  0  0  0  0
139138  1  0  0  0  0
140 93  1  0  0  0  0
141140  1  0  0  0  0
142141  4  0  0  0  0
143142  1  0  0  0  0
144142  4  0  0  0  0
145144  1  0  0  0  0
146144  4  0  0  0  0
147146  1  0  0  0  0
148146  4  0  0  0  0
149148  1  0  0  0  0
150141  4  0  0  0  0
151150  1  0  0  0  0
152140  1  0  0  0  0
153152  4  0  0  0  0
154153  1  0  0  0  0
155153  4  0  0  0  0
156155  1  0  0  0  0
157155  4  0  0  0  0
158157  1  0  0  0  0
159157  4  0  0  0  0
160159  1  0  0  0  0
161152  4  0  0  0  0
162161  1  0  0  0  0
163 94  1  0  0  0  0
164163  1  0  0  0  0
165163  1  0  0  0  0
166117  1  0  0  0  0
167166  1  0  0  0  0
168166  1  0  0  0  0
169140  1  0  0  0  0
170169  1  0  0  0  0
171169  1  0  0  0  0
172163  1  0  0  0  0
173172  1  0  0  0  0
174173  4  0  0  0  0
175174  1  0  0  0  0
176174  4  0  0  0  0
177176  1  0  0  0  0
178176  4  0  0  0  0
179178  1  0  0  0  0
180178  4  0  0  0  0
181180  1  0  0  0  0
182173  4  0  0  0  0
183182  1  0  0  0  0
 11 13  4  0  0  0  0
 22 24  4  0  0  0  0
 34 36  4  0  0  0  0
 45 47  4  0  0  0  0
 57 59  4  0  0  0  0
 68 70  4  0  0  0  0
 75 81  1  0  0  0  0
 78 81  1  0  0  0  0
 89 91  4  0  0  0  0
102104  4  0  0  0  0
113115  4  0  0  0  0
125127  4  0  0  0  0
136138  4  0  0  0  0
148150  4  0  0  0  0
159161  4  0  0  0  0
166172  1  0  0  0  0
169172  1  0  0  0  0
180182  4  0  0  0  0
M  END
$$$$
UFUKAJ

From CSD data. Using bond type 'Any'. No disordered atoms. Largest molecule.
186204  0  0  0  0  0  0  0  0999 V2000
    4.3870   -2.0598    4.4672 Fe  0  3  0  0  0  0  0  0  0  0  0  0
    3.6561   -1.1439    2.8666 O   0  0  0  0  0  0  0  0  0  0  0  0
    3.3264   -0.4026    4.8904 O   0  0  0  0  0  0  0  0  0  0  0  0
    1.3095    1.8851    4.1619 Fe  0  3  0  0  0  0  0  0  0  0  0  0
    2.4212    0.7209    3.1397 O   0  0  0  0  0  0  0  0  0  0  0  0
    3.0998   -0.2543    3.6126 C   0  0  0  0  0  0  0  0  0  0  0  0
    6.9555   -4.1433    5.8173 B   0  5  0  0  0  0  0  0  0  0  0  0
    8.1399   -5.0129    6.5001 C   0  0  0  0  0  0  0  0  0  0  0  0
    8.8626   -5.9559    5.7983 C   0  0  0  0  0  0  0  0  0  0  0  0
    8.6304   -6.1471    4.8978 H   0  0  0  0  0  0  0  0  0  0  0  0
    9.9266   -6.6344    6.3923 C   0  0  0  0  0  0  0  0  0  0  0  0
   10.4004   -7.2867    5.8892 H   0  0  0  0  0  0  0  0  0  0  0  0
   10.3002   -6.3807    7.6627 C   0  0  0  0  0  0  0  0  0  0  0  0
   11.0156   -6.8613    8.0622 H   0  0  0  0  0  0  0  0  0  0  0  0
    9.6313   -5.4285    8.3581 C   0  0  0  0  0  0  0  0  0  0  0  0
    9.8836   -5.2348    9.2544 H   0  0  0  0  0  0  0  0  0  0  0  0
    8.5839   -4.7350    7.7768 C   0  0  0  0  0  0  0  0  0  0  0  0
    8.1576   -4.0445    8.2715 H   0  0  0  0  0  0  0  0  0  0  0  0
    5.6467   -4.1874    6.8531 C   0  0  0  0  0  0  0  0  0  0  0  0
    5.9669   -4.1353    7.7895 H   0  0  0  0  0  0  0  0  0  0  0  0
    5.1699   -5.0489    6.7431 H   0  0  0  0  0  0  0  0  0  0  0  0
    4.5015   -2.8266    6.5360 P   0  0  0  0  0  0  0  0  0  0  0  0
    4.8679   -1.5931    7.8149 C   0  0  0  0  0  0  0  0  0  0  0  0
    4.9505   -1.9758    9.1762 C   0  0  0  0  0  0  0  0  0  0  0  0
    4.8218   -2.8854    9.4172 H   0  0  0  0  0  0  0  0  0  0  0  0
    5.2127   -1.0437   10.1464 C   0  0  0  0  0  0  0  0  0  0  0  0
    5.2760   -1.3253   11.0512 H   0  0  0  0  0  0  0  0  0  0  0  0
    5.3895    0.2889    9.8484 C   0  0  0  0  0  0  0  0  0  0  0  0
    5.5683    0.9203   10.5354 H   0  0  0  0  0  0  0  0  0  0  0  0
    5.3031    0.6915    8.5230 C   0  0  0  0  0  0  0  0  0  0  0  0
    5.4153    1.6058    8.2905 H   0  0  0  0  0  0  0  0  0  0  0  0
    5.0507   -0.2571    7.5401 C   0  0  0  0  0  0  0  0  0  0  0  0
    5.0010    0.0308    6.6353 H   0  0  0  0  0  0  0  0  0  0  0  0
    2.8310   -3.3584    7.0771 C   0  0  0  0  0  0  0  0  0  0  0  0
    2.5314   -4.6706    7.4555 C   0  0  0  0  0  0  0  0  0  0  0  0
    3.2149   -5.3292    7.4830 H   0  0  0  0  0  0  0  0  0  0  0  0
    1.2203   -5.0026    7.7958 C   0  0  0  0  0  0  0  0  0  0  0  0
    1.0146   -5.8984    8.0389 H   0  0  0  0  0  0  0  0  0  0  0  0
    0.2259   -4.0598    7.7853 C   0  0  0  0  0  0  0  0  0  0  0  0
   -0.6597   -4.3008    8.0284 H   0  0  0  0  0  0  0  0  0  0  0  0
    0.5105   -2.7585    7.4217 C   0  0  0  0  0  0  0  0  0  0  0  0
   -0.1750   -2.1010    7.4238 H   0  0  0  0  0  0  0  0  0  0  0  0
    1.8098   -2.4133    7.0475 C   0  0  0  0  0  0  0  0  0  0  0  0
    2.0006   -1.5230    6.7685 H   0  0  0  0  0  0  0  0  0  0  0  0
    6.4575   -4.7744    4.3926 C   0  0  0  0  0  0  0  0  0  0  0  0
    6.3309   -5.7496    4.5088 H   0  0  0  0  0  0  0  0  0  0  0  0
    7.1769   -4.6468    3.7246 H   0  0  0  0  0  0  0  0  0  0  0  0
    4.9098   -4.0621    3.7259 P   0  0  0  0  0  0  0  0  0  0  0  0
    3.5578   -5.2295    4.1579 C   0  0  0  0  0  0  0  0  0  0  0  0
    2.2464   -4.7372    4.1199 C   0  0  0  0  0  0  0  0  0  0  0  0
    2.0865   -3.8319    3.8768 H   0  0  0  0  0  0  0  0  0  0  0  0
    1.1750   -5.5664    4.4348 C   0  0  0  0  0  0  0  0  0  0  0  0
    0.2922   -5.2155    4.4285 H   0  0  0  0  0  0  0  0  0  0  0  0
    1.3778   -6.8778    4.7540 C   0  0  0  0  0  0  0  0  0  0  0  0
    0.6370   -7.4417    4.9506 H   0  0  0  0  0  0  0  0  0  0  0  0
    2.6550   -7.3765    4.7921 C   0  0  0  0  0  0  0  0  0  0  0  0
    2.7973   -8.2872    5.0225 H   0  0  0  0  0  0  0  0  0  0  0  0
    3.7397   -6.5596    4.4983 C   0  0  0  0  0  0  0  0  0  0  0  0
    4.6182   -6.9187    4.5300 H   0  0  0  0  0  0  0  0  0  0  0  0
    4.9606   -4.3056    1.9046 C   0  0  0  0  0  0  0  0  0  0  0  0
    3.9467   -3.7539    1.1034 C   0  0  0  0  0  0  0  0  0  0  0  0
    3.2325   -3.2780    1.5114 H   0  0  0  0  0  0  0  0  0  0  0  0
    3.9734   -3.8938   -0.2748 C   0  0  0  0  0  0  0  0  0  0  0  0
    3.2793   -3.5149   -0.8011 H   0  0  0  0  0  0  0  0  0  0  0  0
    5.0093   -4.5840   -0.8899 C   0  0  0  0  0  0  0  0  0  0  0  0
    5.0287   -4.6742   -1.8348 H   0  0  0  0  0  0  0  0  0  0  0  0
    6.0139   -5.1393   -0.1184 C   0  0  0  0  0  0  0  0  0  0  0  0
    6.7206   -5.6203   -0.5327 H   0  0  0  0  0  0  0  0  0  0  0  0
    5.9903   -4.9964    1.2451 C   0  0  0  0  0  0  0  0  0  0  0  0
    6.6912   -5.3764    1.7608 H   0  0  0  0  0  0  0  0  0  0  0  0
    7.4578   -2.5542    5.6270 C   0  0  0  0  0  0  0  0  0  0  0  0
    8.4091   -2.5515    5.3522 H   0  0  0  0  0  0  0  0  0  0  0  0
    7.3942   -2.0937    6.5001 H   0  0  0  0  0  0  0  0  0  0  0  0
    6.4994   -1.6296    4.4099 P   0  0  0  0  0  0  0  0  0  0  0  0
    7.2808   -1.9559    2.7712 C   0  0  0  0  0  0  0  0  0  0  0  0
    6.5966   -1.5853    1.6129 C   0  0  0  0  0  0  0  0  0  0  0  0
    5.7408   -1.1782    1.6826 H   0  0  0  0  0  0  0  0  0  0  0  0
    7.1505   -1.8038    0.3572 C   0  0  0  0  0  0  0  0  0  0  0  0
    6.6727   -1.5338   -0.4185 H   0  0  0  0  0  0  0  0  0  0  0  0
    8.3738   -2.4012    0.2220 C   0  0  0  0  0  0  0  0  0  0  0  0
    8.7473   -2.5460   -0.6405 H   0  0  0  0  0  0  0  0  0  0  0  0
    9.0617   -2.7943    1.3655 C   0  0  0  0  0  0  0  0  0  0  0  0
    9.8999   -3.2326    1.2852 H   0  0  0  0  0  0  0  0  0  0  0  0
    8.5251   -2.5457    2.6296 C   0  0  0  0  0  0  0  0  0  0  0  0
    9.0211   -2.7851    3.4033 H   0  0  0  0  0  0  0  0  0  0  0  0
    6.9023    0.1343    4.5828 C   0  0  0  0  0  0  0  0  0  0  0  0
    7.8003    0.6171    5.5192 C   0  0  0  0  0  0  0  0  0  0  0  0
    8.1888    0.0152    6.1428 H   0  0  0  0  0  0  0  0  0  0  0  0
    8.1450    1.9588    5.5721 C   0  0  0  0  0  0  0  0  0  0  0  0
    8.7465    2.2645    6.2422 H   0  0  0  0  0  0  0  0  0  0  0  0
    7.6226    2.8494    4.6652 C   0  0  0  0  0  0  0  0  0  0  0  0
    7.8795    3.7633    4.6885 H   0  0  0  0  0  0  0  0  0  0  0  0
    6.7264    2.4029    3.7225 C   0  0  0  0  0  0  0  0  0  0  0  0
    6.3508    3.0143    3.0989 H   0  0  0  0  0  0  0  0  0  0  0  0
    6.3703    1.0674    3.6781 C   0  0  0  0  0  0  0  0  0  0  0  0
    5.7526    0.7738    3.0186 H   0  0  0  0  0  0  0  0  0  0  0  0
   -1.2761    4.2251    4.9527 B   0  5  0  0  0  0  0  0  0  0  0  0
   -2.5480    5.1555    5.3374 C   0  0  0  0  0  0  0  0  0  0  0  0
   -3.4874    5.5302    4.3566 C   0  0  0  0  0  0  0  0  0  0  0  0
   -3.2994    5.3180    3.4498 H   0  0  0  0  0  0  0  0  0  0  0  0
   -4.6868    6.2015    4.6462 C   0  0  0  0  0  0  0  0  0  0  0  0
   -5.2930    6.4375    3.9529 H   0  0  0  0  0  0  0  0  0  0  0  0
   -4.9644    6.5095    5.9547 C   0  0  0  0  0  0  0  0  0  0  0  0
   -5.7751    6.9513    6.1766 H   0  0  0  0  0  0  0  0  0  0  0  0
   -4.0784    6.1820    6.9376 C   0  0  0  0  0  0  0  0  0  0  0  0
   -4.2679    6.4006    7.8445 H   0  0  0  0  0  0  0  0  0  0  0  0
   -2.9005    5.5275    6.6121 C   0  0  0  0  0  0  0  0  0  0  0  0
   -2.2977    5.3243    7.3160 H   0  0  0  0  0  0  0  0  0  0  0  0
   -0.8815    4.4285    3.3525 C   0  0  0  0  0  0  0  0  0  0  0  0
   -0.9116    5.3980    3.1538 H   0  0  0  0  0  0  0  0  0  0  0  0
   -1.5866    3.9976    2.8072 H   0  0  0  0  0  0  0  0  0  0  0  0
    0.7184    3.7962    2.7854 P   0  0  0  0  0  0  0  0  0  0  0  0
    0.5858    3.6714    0.9639 C   0  0  0  0  0  0  0  0  0  0  0  0
   -0.2966    4.4868    0.2579 C   0  0  0  0  0  0  0  0  0  0  0  0
   -0.8113    5.1392    0.7208 H   0  0  0  0  0  0  0  0  0  0  0  0
   -0.4281    4.3562   -1.1034 C   0  0  0  0  0  0  0  0  0  0  0  0
   -1.0379    4.9128   -1.5727 H   0  0  0  0  0  0  0  0  0  0  0  0
    0.3217    3.4195   -1.7968 C   0  0  0  0  0  0  0  0  0  0  0  0
    0.2208    3.3280   -2.7353 H   0  0  0  0  0  0  0  0  0  0  0  0
    1.2194    2.6170   -1.1077 C   0  0  0  0  0  0  0  0  0  0  0  0
    1.7382    1.9738   -1.5769 H   0  0  0  0  0  0  0  0  0  0  0  0
    1.3601    2.7546    0.2579 C   0  0  0  0  0  0  0  0  0  0  0  0
    1.9903    2.2164    0.7229 H   0  0  0  0  0  0  0  0  0  0  0  0
    1.9896    5.0794    2.9995 C   0  0  0  0  0  0  0  0  0  0  0  0
    1.7521    6.4461    2.8960 C   0  0  0  0  0  0  0  0  0  0  0  0
    0.8668    6.7494    2.7311 H   0  0  0  0  0  0  0  0  0  0  0  0
    2.7691    7.3765    3.0270 C   0  0  0  0  0  0  0  0  0  0  0  0
    2.5774    8.3046    2.9551 H   0  0  0  0  0  0  0  0  0  0  0  0
    4.0643    6.9480    3.2617 C   0  0  0  0  0  0  0  0  0  0  0  0
    4.7657    7.5783    3.3758 H   0  0  0  0  0  0  0  0  0  0  0  0
    4.3256    5.5953    3.3272 C   0  0  0  0  0  0  0  0  0  0  0  0
    5.2164    5.2955    3.4667 H   0  0  0  0  0  0  0  0  0  0  0  0
    3.3170    4.6788    3.1982 C   0  0  0  0  0  0  0  0  0  0  0  0
    3.5230    3.7518    3.2405 H   0  0  0  0  0  0  0  0  0  0  0  0
    0.0389    4.6498    5.8934 C   0  0  0  0  0  0  0  0  0  0  0  0
   -0.2943    4.9039    6.7897 H   0  0  0  0  0  0  0  0  0  0  0  0
    0.4547    5.4542    5.4960 H   0  0  0  0  0  0  0  0  0  0  0  0
    1.3325    3.4008    6.1103 P   0  0  0  0  0  0  0  0  0  0  0  0
    2.8670    4.2881    6.5719 C   0  0  0  0  0  0  0  0  0  0  0  0
    4.1014    3.6328    6.4874 C   0  0  0  0  0  0  0  0  0  0  0  0
    4.1385    2.7312    6.1893 H   0  0  0  0  0  0  0  0  0  0  0  0
    5.2658    4.2895    6.8340 C   0  0  0  0  0  0  0  0  0  0  0  0
    6.0969    3.8291    6.8002 H   0  0  0  0  0  0  0  0  0  0  0  0
    5.2280    5.6016    7.2251 C   0  0  0  0  0  0  0  0  0  0  0  0
    6.0318    6.0483    7.4619 H   0  0  0  0  0  0  0  0  0  0  0  0
    4.0151    6.2802    7.2801 C   0  0  0  0  0  0  0  0  0  0  0  0
    3.9867    7.1939    7.5337 H   0  0  0  0  0  0  0  0  0  0  0  0
    2.8618    5.6053    6.9609 C   0  0  0  0  0  0  0  0  0  0  0  0
    2.0316    6.0655    7.0116 H   0  0  0  0  0  0  0  0  0  0  0  0
    0.9706    2.4400    7.6331 C   0  0  0  0  0  0  0  0  0  0  0  0
    1.6453    1.2589    7.8254 C   0  0  0  0  0  0  0  0  0  0  0  0
    2.2343    0.9448    7.1490 H   0  0  0  0  0  0  0  0  0  0  0  0
    1.4884    0.5172    8.9796 C   0  0  0  0  0  0  0  0  0  0  0  0
    1.9868   -0.2825    9.1085 H   0  0  0  0  0  0  0  0  0  0  0  0
    0.6002    0.9484    9.9435 C   0  0  0  0  0  0  0  0  0  0  0  0
    0.4517    0.4237   10.7214 H   0  0  0  0  0  0  0  0  0  0  0  0
   -0.0720    2.1360    9.7744 C   0  0  0  0  0  0  0  0  0  0  0  0
   -0.6607    2.4429   10.4551 H   0  0  0  0  0  0  0  0  0  0  0  0
    0.1002    2.9007    8.6160 C   0  0  0  0  0  0  0  0  0  0  0  0
   -0.3702    3.7194    8.5040 H   0  0  0  0  0  0  0  0  0  0  0  0
   -1.7834    2.6793    5.2677 C   0  0  0  0  0  0  0  0  0  0  0  0
   -2.7482    2.6404    5.0500 H   0  0  0  0  0  0  0  0  0  0  0  0
   -1.7045    2.5422    6.2443 H   0  0  0  0  0  0  0  0  0  0  0  0
   -1.0014    1.2620    4.4682 P   0  0  0  0  0  0  0  0  0  0  0  0
   -1.8565    1.0427    2.8664 C   0  0  0  0  0  0  0  0  0  0  0  0
   -1.1311    0.9469    1.6805 C   0  0  0  0  0  0  0  0  0  0  0  0
   -0.1846    1.0289    1.6995 H   0  0  0  0  0  0  0  0  0  0  0  0
   -1.7755    0.7361    0.4735 C   0  0  0  0  0  0  0  0  0  0  0  0
   -1.2733    0.7102   -0.3319 H   0  0  0  0  0  0  0  0  0  0  0  0
   -3.1408    0.5614    0.4333 C   0  0  0  0  0  0  0  0  0  0  0  0
   -3.5790    0.4114   -0.3953 H   0  0  0  0  0  0  0  0  0  0  0  0
   -3.8676    0.6065    1.6107 C   0  0  0  0  0  0  0  0  0  0  0  0
   -4.8073    0.4682    1.5875 H   0  0  0  0  0  0  0  0  0  0  0  0
   -3.2411    0.8514    2.8220 C   0  0  0  0  0  0  0  0  0  0  0  0
   -3.7510    0.8898    3.6210 H   0  0  0  0  0  0  0  0  0  0  0  0
   -1.5867   -0.2479    5.3079 C   0  0  0  0  0  0  0  0  0  0  0  0
   -1.4465   -1.4509    4.6822 C   0  0  0  0  0  0  0  0  0  0  0  0
   -0.9595   -1.4779    3.8662 H   0  0  0  0  0  0  0  0  0  0  0  0
   -1.9643   -2.6230    5.1620 C   0  0  0  0  0  0  0  0  0  0  0  0
   -1.8184   -3.4395    4.7012 H   0  0  0  0  0  0  0  0  0  0  0  0
   -2.7049   -2.5992    6.3267 C   0  0  0  0  0  0  0  0  0  0  0  0
   -3.0962   -3.3957    6.6692 H   0  0  0  0  0  0  0  0  0  0  0  0
   -2.8643   -1.4136    6.9757 C   0  0  0  0  0  0  0  0  0  0  0  0
   -3.3683   -1.3888    7.7789 H   0  0  0  0  0  0  0  0  0  0  0  0
   -2.3000   -0.2242    6.4810 C   0  0  0  0  0  0  0  0  0  0  0  0
   -2.4106    0.5893    6.9566 H   0  0  0  0  0  0  0  0  0  0  0  0
  1  2  1  0  0  0  0
  2  6  8  0  0  0  0
  3  1  1  0  0  0  0
  4  5  1  0  0  0  0
  5  6  8  0  0  0  0
  6  3  8  0  0  0  0
  7  8  1  0  0  0  0
  8  9  4  0  0  0  0
  9 10  1  0  0  0  0
 11  9  4  0  0  0  0
 12 11  1  0  0  0  0
 13 11  4  0  0  0  0
 14 13  1  0  0  0  0
 15 13  4  0  0  0  0
 16 15  1  0  0  0  0
 17  8  4  0  0  0  0
 18 17  1  0  0  0  0
 19  7  1  0  0  0  0
 20 19  1  0  0  0  0
 21 19  1  0  0  0  0
 22  1  1  0  0  0  0
 23 22  1  0  0  0  0
 24 23  4  0  0  0  0
 25 24  1  0  0  0  0
 26 24  4  0  0  0  0
 27 26  1  0  0  0  0
 28 26  4  0  0  0  0
 29 28  1  0  0  0  0
 30 28  4  0  0  0  0
 31 30  1  0  0  0  0
 32 23  4  0  0  0  0
 33 32  1  0  0  0  0
 34 22  1  0  0  0  0
 35 34  4  0  0  0  0
 36 35  1  0  0  0  0
 37 35  4  0  0  0  0
 38 37  1  0  0  0  0
 39 37  4  0  0  0  0
 40 39  1  0  0  0  0
 41 39  4  0  0  0  0
 42 41  1  0  0  0  0
 43 34  4  0  0  0  0
 44 43  1  0  0  0  0
 45  7  1  0  0  0  0
 46 45  1  0  0  0  0
 47 45  1  0  0  0  0
 48  1  1  0  0  0  0
 49 48  1  0  0  0  0
 50 49  4  0  0  0  0
 51 50  1  0  0  0  0
 52 50  4  0  0  0  0
 53 52  1  0  0  0  0
 54 52  4  0  0  0  0
 55 54  1  0  0  0  0
 56 54  4  0  0  0  0
 57 56  1  0  0  0  0
 58 49  4  0  0  0  0
 59 58  1  0  0  0  0
 60 48  1  0  0  0  0
 61 60  4  0  0  0  0
 62 61  1  0  0  0  0
 63 61  4  0  0  0  0
 64 63  1  0  0  0  0
 65 63  4  0  0  0  0
 66 65  1  0  0  0  0
 67 65  4  0  0  0  0
 68 67  1  0  0  0  0
 69 60  4  0  0  0  0
 70 69  1  0  0  0  0
 71  7  1  0  0  0  0
 72 71  1  0  0  0  0
 73 71  1  0  0  0  0
 74  1  1  0  0  0  0
 75 74  1  0  0  0  0
 76 75  4  0  0  0  0
 77 76  1  0  0  0  0
 78 76  4  0  0  0  0
 79 78  1  0  0  0  0
 80 78  4  0  0  0  0
 81 80  1  0  0  0  0
 82 80  4  0  0  0  0
 83 82  1  0  0  0  0
 84 75  4  0  0  0  0
 85 84  1  0  0  0  0
 86 74  1  0  0  0  0
 87 86  4  0  0  0  0
 88 87  1  0  0  0  0
 89 87  4  0  0  0  0
 90 89  1  0  0  0  0
 91 89  4  0  0  0  0
 92 91  1  0  0  0  0
 93 91  4  0  0  0  0
 94 93  1  0  0  0  0
 95 86  4  0  0  0  0
 96 95  1  0  0  0  0
 97 98  1  0  0  0  0
 98 99  4  0  0  0  0
 99100  1  0  0  0  0
101 99  4  0  0  0  0
102101  1  0  0  0  0
103101  4  0  0  0  0
104103  1  0  0  0  0
105103  4  0  0  0  0
106105  1  0  0  0  0
107 98  4  0  0  0  0
108107  1  0  0  0  0
109 97  1  0  0  0  0
110109  1  0  0  0  0
111109  1  0  0  0  0
112  4  1  0  0  0  0
113112  1  0  0  0  0
114113  4  0  0  0  0
115114  1  0  0  0  0
116114  4  0  0  0  0
117116  1  0  0  0  0
118116  4  0  0  0  0
119118  1  0  0  0  0
120118  4  0  0  0  0
121120  1  0  0  0  0
122113  4  0  0  0  0
123122  1  0  0  0  0
124112  1  0  0  0  0
125124  4  0  0  0  0
126125  1  0  0  0  0
127125  4  0  0  0  0
128127  1  0  0  0  0
129127  4  0  0  0  0
130129  1  0  0  0  0
131129  4  0  0  0  0
132131  1  0  0  0  0
133124  4  0  0  0  0
134133  1  0  0  0  0
135 97  1  0  0  0  0
136135  1  0  0  0  0
137135  1  0  0  0  0
138  4  1  0  0  0  0
139138  1  0  0  0  0
140139  4  0  0  0  0
141140  1  0  0  0  0
142140  4  0  0  0  0
143142  1  0  0  0  0
144142  4  0  0  0  0
145144  1  0  0  0  0
146144  4  0  0  0  0
147146  1  0  0  0  0
148139  4  0  0  0  0
149148  1  0  0  0  0
150138  1  0  0  0  0
151150  4  0  0  0  0
152151  1  0  0  0  0
153151  4  0  0  0  0
154153  1  0  0  0  0
155153  4  0  0  0  0
156155  1  0  0  0  0
157155  4  0  0  0  0
158157  1  0  0  0  0
159150  4  0  0  0  0
160159  1  0  0  0  0
161 97  1  0  0  0  0
162161  1  0  0  0  0
163161  1  0  0  0  0
164  4  1  0  0  0  0
165164  1  0  0  0  0
166165  4  0  0  0  0
167166  1  0  0  0  0
168166  4  0  0  0  0
169168  1  0  0  0  0
170168  4  0  0  0  0
171170  1  0  0  0  0
172170  4  0  0  0  0
173172  1  0  0  0  0
174165  4  0  0  0  0
175174  1  0  0  0  0
176164  1  0  0  0  0
177176  4  0  0  0  0
178177  1  0  0  0  0
179177  4  0  0  0  0
180179  1  0  0  0  0
181179  4  0  0  0  0
182181  1  0  0  0  0
183181  4  0  0  0  0
184183  1  0  0  0  0
185176  4  0  0  0  0
186185  1  0  0  0  0
 15 17  4  0  0  0  0
 19 22  1  0  0  0  0
 30 32  4  0  0  0  0
 41 43  4  0  0  0  0
 45 48  1  0  0  0  0
 56 58  4  0  0  0  0
 67 69  4  0  0  0  0
 71 74  1  0  0  0  0
 82 84  4  0  0  0  0
 93 95  4  0  0  0  0
105107  4  0  0  0  0
109112  1  0  0  0  0
120122  4  0  0  0  0
131133  4  0  0  0  0
135138  1  0  0  0  0
146148  4  0  0  0  0
157159  4  0  0  0  0
161164  1  0  0  0  0
172174  4  0  0  0  0
183185  4  0  0  0  0
M  CHG  4   1   1   4   1   7  -1  97  -1
M  END
$$$$
UGESIJ

From CSD data. Using bond type 'Any'. No disordered atoms. Largest molecule.
125141  0  0  0  0  0  0  0  0999 V2000
   18.4503    1.0509   17.8562 Ru  0  0  0  0  0  0  0  0  0  0  0  0
   19.9915    0.8480   19.5450 Si  0  0  0  0  0  0  0  0  0  0  0  0
   17.6643    2.6588   19.3636 P   0  0  0  0  0  0  0  0  0  0  0  0
   17.5284   -0.7947   18.8973 P   0  0  0  0  0  0  0  0  0  0  0  0
   20.1493    0.0423   16.5844 P   0  0  0  0  0  0  0  0  0  0  0  0
   17.8755    2.9157   16.3771 B   0  0  0  0  0  0  0  0  0  0  0  0
   15.4643    5.0426   20.5829 B   0  0  0  0  0  0  0  0  0  0  0  0
   16.9414    1.7472   16.2279 O   0  0  0  0  0  0  0  0  0  0  0  0
   18.3890    3.1924   15.0372 O   0  0  0  0  0  0  0  0  0  0  0  0
   16.2270    5.1588   21.7328 O   0  0  0  0  0  0  0  0  0  0  0  0
   14.1067    5.0841   20.8499 O   0  0  0  0  0  0  0  0  0  0  0  0
   20.2574    2.5545   20.3111 C   0  0  0  0  0  0  0  0  0  0  0  0
   21.3999    3.0471   20.9535 C   0  0  0  0  0  0  0  0  0  0  0  0
   22.1480    2.4770   21.0885 H   0  0  0  0  0  0  0  0  0  0  0  0
   21.4479    4.3673   21.3979 C   0  0  0  0  0  0  0  0  0  0  0  0
   22.2290    4.6925   21.8344 H   0  0  0  0  0  0  0  0  0  0  0  0
   20.3736    5.2017   21.2052 C   0  0  0  0  0  0  0  0  0  0  0  0
   20.4256    6.1081   21.4866 H   0  0  0  0  0  0  0  0  0  0  0  0
   19.2103    4.7326   20.6041 C   0  0  0  0  0  0  0  0  0  0  0  0
   18.4613    5.3069   20.4959 H   0  0  0  0  0  0  0  0  0  0  0  0
   19.1528    3.4069   20.1594 C   0  0  0  0  0  0  0  0  0  0  0  0
   19.2480   -0.2159   20.9370 C   0  0  0  0  0  0  0  0  0  0  0  0
   19.7886   -0.3169   22.2343 C   0  0  0  0  0  0  0  0  0  0  0  0
   20.6117    0.1135   22.4339 H   0  0  0  0  0  0  0  0  0  0  0  0
   19.1350   -1.0351   23.2257 C   0  0  0  0  0  0  0  0  0  0  0  0
   19.5098   -1.0918   24.0972 H   0  0  0  0  0  0  0  0  0  0  0  0
   17.9313   -1.6744   22.9388 C   0  0  0  0  0  0  0  0  0  0  0  0
   17.4840   -2.1656   23.6168 H   0  0  0  0  0  0  0  0  0  0  0  0
   17.3876   -1.5969   21.6692 C   0  0  0  0  0  0  0  0  0  0  0  0
   16.5675   -2.0356   21.4775 H   0  0  0  0  0  0  0  0  0  0  0  0
   18.0427   -0.8732   20.6636 C   0  0  0  0  0  0  0  0  0  0  0  0
   21.6090    0.0678   18.9687 C   0  0  0  0  0  0  0  0  0  0  0  0
   22.7575   -0.1647   19.7519 C   0  0  0  0  0  0  0  0  0  0  0  0
   22.7478    0.0623   20.6744 H   0  0  0  0  0  0  0  0  0  0  0  0
   23.9001   -0.7210   19.1961 C   0  0  0  0  0  0  0  0  0  0  0  0
   24.6602   -0.8829   19.7409 H   0  0  0  0  0  0  0  0  0  0  0  0
   23.9375   -1.0420   17.8398 C   0  0  0  0  0  0  0  0  0  0  0  0
   24.7264   -1.4101   17.4597 H   0  0  0  0  0  0  0  0  0  0  0  0
   22.8252   -0.8247   17.0458 C   0  0  0  0  0  0  0  0  0  0  0  0
   22.8517   -1.0378   16.1213 H   0  0  0  0  0  0  0  0  0  0  0  0
   21.6509   -0.2864   17.6142 C   0  0  0  0  0  0  0  0  0  0  0  0
   16.5760    2.2847   20.7906 C   0  0  0  0  0  0  0  0  0  0  0  0
   17.1033    2.0480   22.0611 C   0  0  0  0  0  0  0  0  0  0  0  0
   18.0360    2.1435   22.2165 H   0  0  0  0  0  0  0  0  0  0  0  0
   16.2496    1.6702   23.1072 C   0  0  0  0  0  0  0  0  0  0  0  0
   16.6098    1.5014   23.9691 H   0  0  0  0  0  0  0  0  0  0  0  0
   14.8976    1.5388   22.8983 C   0  0  0  0  0  0  0  0  0  0  0  0
   14.3274    1.2856   23.6168 H   0  0  0  0  0  0  0  0  0  0  0  0
   14.3736    1.7740   21.6628 C   0  0  0  0  0  0  0  0  0  0  0  0
   13.4364    1.6869   21.5255 H   0  0  0  0  0  0  0  0  0  0  0  0
   15.2010    2.1435   20.5952 C   0  0  0  0  0  0  0  0  0  0  0  0
   14.8260    2.2971   19.7363 H   0  0  0  0  0  0  0  0  0  0  0  0
   16.8652    4.0587   18.5026 C   0  0  0  0  0  0  0  0  0  0  0  0
   15.9852    5.0149   19.0950 C   0  0  0  0  0  0  0  0  0  0  0  0
   15.4856    6.0278   18.2811 C   0  0  0  0  0  0  0  0  0  0  0  0
   14.8867    6.6644   18.6564 H   0  0  0  0  0  0  0  0  0  0  0  0
   15.8281    6.1372   16.9449 C   0  0  0  0  0  0  0  0  0  0  0  0
   15.4948    6.8595   16.4256 H   0  0  0  0  0  0  0  0  0  0  0  0
   16.6618    5.1920   16.3640 C   0  0  0  0  0  0  0  0  0  0  0  0
   16.8956    5.2681   15.4463 H   0  0  0  0  0  0  0  0  0  0  0  0
   17.1628    4.1223   17.1312 C   0  0  0  0  0  0  0  0  0  0  0  0
   15.6793   -0.8718   18.8220 C   0  0  0  0  0  0  0  0  0  0  0  0
   14.9953    0.1301   18.1564 C   0  0  0  0  0  0  0  0  0  0  0  0
   15.4796    0.8566   17.7801 H   0  0  0  0  0  0  0  0  0  0  0  0
   13.6072    0.0899   18.0295 C   0  0  0  0  0  0  0  0  0  0  0  0
   13.1525    0.7832   17.5650 H   0  0  0  0  0  0  0  0  0  0  0  0
   12.8893   -0.9617   18.5809 C   0  0  0  0  0  0  0  0  0  0  0  0
   11.9411   -0.9770   18.5214 H   0  0  0  0  0  0  0  0  0  0  0  0
   13.5683   -1.9913   19.2220 C   0  0  0  0  0  0  0  0  0  0  0  0
   13.0834   -2.7206   19.5922 H   0  0  0  0  0  0  0  0  0  0  0  0
   14.9523   -1.9581   19.3226 C   0  0  0  0  0  0  0  0  0  0  0  0
   15.4120   -2.6790   19.7363 H   0  0  0  0  0  0  0  0  0  0  0  0
   17.8651   -2.5393   18.4010 C   0  0  0  0  0  0  0  0  0  0  0  0
   18.7310   -3.3529   19.1245 C   0  0  0  0  0  0  0  0  0  0  0  0
   19.2299   -2.9890   19.8461 H   0  0  0  0  0  0  0  0  0  0  0  0
   18.8728   -4.7132   18.7936 C   0  0  0  0  0  0  0  0  0  0  0  0
   19.4643   -5.2667   19.2901 H   0  0  0  0  0  0  0  0  0  0  0  0
   18.1589   -5.2349   17.7526 C   0  0  0  0  0  0  0  0  0  0  0  0
   18.2327   -6.1593   17.5444 H   0  0  0  0  0  0  0  0  0  0  0  0
   17.3273   -4.4226   16.9939 C   0  0  0  0  0  0  0  0  0  0  0  0
   16.8518   -4.7893   16.2563 H   0  0  0  0  0  0  0  0  0  0  0  0
   17.1821   -3.0790   17.3087 C   0  0  0  0  0  0  0  0  0  0  0  0
   16.6180   -2.5268   16.7802 H   0  0  0  0  0  0  0  0  0  0  0  0
   20.9637    1.1126   15.3170 C   0  0  0  0  0  0  0  0  0  0  0  0
   21.3802    2.3940   15.7145 C   0  0  0  0  0  0  0  0  0  0  0  0
   21.1894    2.6915   16.5972 H   0  0  0  0  0  0  0  0  0  0  0  0
   22.0595    3.2312   14.8526 C   0  0  0  0  0  0  0  0  0  0  0  0
   22.3251    4.0960   15.1420 H   0  0  0  0  0  0  0  0  0  0  0  0
   22.3573    2.8105   13.5580 C   0  0  0  0  0  0  0  0  0  0  0  0
   22.8107    3.3903   12.9570 H   0  0  0  0  0  0  0  0  0  0  0  0
   21.9863    1.5346   13.1526 C   0  0  0  0  0  0  0  0  0  0  0  0
   22.1966    1.2343   12.2774 H   0  0  0  0  0  0  0  0  0  0  0  0
   21.3005    0.6933   14.0307 C   0  0  0  0  0  0  0  0  0  0  0  0
   21.0602   -0.1813   13.7463 H   0  0  0  0  0  0  0  0  0  0  0  0
   19.8854   -1.5416   15.6911 C   0  0  0  0  0  0  0  0  0  0  0  0
   20.4381   -2.7468   16.1414 C   0  0  0  0  0  0  0  0  0  0  0  0
   21.0022   -2.7510   16.9060 H   0  0  0  0  0  0  0  0  0  0  0  0
   20.1654   -3.9411   15.4738 C   0  0  0  0  0  0  0  0  0  0  0  0
   20.5413   -4.7561   15.7826 H   0  0  0  0  0  0  0  0  0  0  0  0
   19.3402   -3.9355   14.3574 C   0  0  0  0  0  0  0  0  0  0  0  0
   19.1576   -4.7478   13.8996 H   0  0  0  0  0  0  0  0  0  0  0  0
   18.7807   -2.7413   13.9037 C   0  0  0  0  0  0  0  0  0  0  0  0
   18.2174   -2.7385   13.1377 H   0  0  0  0  0  0  0  0  0  0  0  0
   19.0494   -1.5568   14.5766 C   0  0  0  0  0  0  0  0  0  0  0  0
   18.6579   -0.7459   14.2726 H   0  0  0  0  0  0  0  0  0  0  0  0
   17.8610    2.2514   14.2192 C   0  0  0  0  0  0  0  0  0  0  0  0
   18.0614    2.0923   12.8526 C   0  0  0  0  0  0  0  0  0  0  0  0
   18.6559    2.6569   12.3735 H   0  0  0  0  0  0  0  0  0  0  0  0
   17.3557    1.0738   12.2095 C   0  0  0  0  0  0  0  0  0  0  0  0
   17.4797    0.9424   11.2776 H   0  0  0  0  0  0  0  0  0  0  0  0
   16.4854    0.2602   12.8860 C   0  0  0  0  0  0  0  0  0  0  0  0
   16.0135   -0.4151   12.4124 H   0  0  0  0  0  0  0  0  0  0  0  0
   16.2804    0.4055   14.2767 C   0  0  0  0  0  0  0  0  0  0  0  0
   15.6768   -0.1508   14.7553 H   0  0  0  0  0  0  0  0  0  0  0  0
   16.9988    1.3921   14.8958 C   0  0  0  0  0  0  0  0  0  0  0  0
   14.0505    5.1477   22.2417 C   0  0  0  0  0  0  0  0  0  0  0  0
   12.9071    5.1450   23.0356 C   0  0  0  0  0  0  0  0  0  0  0  0
   12.0326    5.1131   22.6649 H   0  0  0  0  0  0  0  0  0  0  0  0
   13.1291    5.1906   24.4107 C   0  0  0  0  0  0  0  0  0  0  0  0
   12.3852    5.1948   25.0010 H   0  0  0  0  0  0  0  0  0  0  0  0
   14.3913    5.2294   24.9255 C   0  0  0  0  0  0  0  0  0  0  0  0
   14.4958    5.2446   25.8704 H   0  0  0  0  0  0  0  0  0  0  0  0
   15.5475    5.2474   24.1155 C   0  0  0  0  0  0  0  0  0  0  0  0
   16.4264    5.2917   24.4748 H   0  0  0  0  0  0  0  0  0  0  0  0
   15.3020    5.1948   22.7725 C   0  0  0  0  0  0  0  0  0  0  0  0
  1  2  1  0  0  0  0
  2 12  1  0  0  0  0
  3  1  1  0  0  0  0
  4  1  1  0  0  0  0
  5  1  1  0  0  0  0
  6  8  1  0  0  0  0
  7 10  1  0  0  0  0
  8  1  1  0  0  0  0
  9  6  1  0  0  0  0
 10125  1  0  0  0  0
 11  7  1  0  0  0  0
 12 13  4  0  0  0  0
 13 14  1  0  0  0  0
 15 13  4  0  0  0  0
 16 15  1  0  0  0  0
 17 15  4  0  0  0  0
 18 17  1  0  0  0  0
 19 17  4  0  0  0  0
 20 19  1  0  0  0  0
 21  3  1  0  0  0  0
 22  2  1  0  0  0  0
 23 22  4  0  0  0  0
 24 23  1  0  0  0  0
 25 23  4  0  0  0  0
 26 25  1  0  0  0  0
 27 25  4  0  0  0  0
 28 27  1  0  0  0  0
 29 27  4  0  0  0  0
 30 29  1  0  0  0  0
 31  4  1  0  0  0  0
 32  2  1  0  0  0  0
 33 32  4  0  0  0  0
 34 33  1  0  0  0  0
 35 33  4  0  0  0  0
 36 35  1  0  0  0  0
 37 35  4  0  0  0  0
 38 37  1  0  0  0  0
 39 37  4  0  0  0  0
 40 39  1  0  0  0  0
 41  5  1  0  0  0  0
 42  3  1  0  0  0  0
 43 42  4  0  0  0  0
 44 43  1  0  0  0  0
 45 43  4  0  0  0  0
 46 45  1  0  0  0  0
 47 45  4  0  0  0  0
 48 47  1  0  0  0  0
 49 47  4  0  0  0  0
 50 49  1  0  0  0  0
 51 42  4  0  0  0  0
 52 51  1  0  0  0  0
 53  3  1  0  0  0  0
 54  7  1  0  0  0  0
 55 54  4  0  0  0  0
 56 55  1  0  0  0  0
 57 55  4  0  0  0  0
 58 57  1  0  0  0  0
 59 57  4  0  0  0  0
 60 59  1  0  0  0  0
 61  6  1  0  0  0  0
 62  4  1  0  0  0  0
 63 62  4  0  0  0  0
 64 63  1  0  0  0  0
 65 63  4  0  0  0  0
 66 65  1  0  0  0  0
 67 65  4  0  0  0  0
 68 67  1  0  0  0  0
 69 67  4  0  0  0  0
 70 69  1  0  0  0  0
 71 62  4  0  0  0  0
 72 71  1  0  0  0  0
 73  4  1  0  0  0  0
 74 73  4  0  0  0  0
 75 74  1  0  0  0  0
 76 74  4  0  0  0  0
 77 76  1  0  0  0  0
 78 76  4  0  0  0  0
 79 78  1  0  0  0  0
 80 78  4  0  0  0  0
 81 80  1  0  0  0  0
 82 73  4  0  0  0  0
 83 82  1  0  0  0  0
 84  5  1  0  0  0  0
 85 84  4  0  0  0  0
 86 85  1  0  0  0  0
 87 85  4  0  0  0  0
 88 87  1  0  0  0  0
 89 87  4  0  0  0  0
 90 89  1  0  0  0  0
 91 89  4  0  0  0  0
 92 91  1  0  0  0  0
 93 84  4  0  0  0  0
 94 93  1  0  0  0  0
 95  5  1  0  0  0  0
 96 95  4  0  0  0  0
 97 96  1  0  0  0  0
 98 96  4  0  0  0  0
 99 98  1  0  0  0  0
100 98  4  0  0  0  0
101100  1  0  0  0  0
102100  4  0  0  0  0
103102  1  0  0  0  0
104 95  4  0  0  0  0
105104  1  0  0  0  0
106  9  1  0  0  0  0
107106  4  0  0  0  0
108107  1  0  0  0  0
109107  4  0  0  0  0
110109  1  0  0  0  0
111109  4  0  0  0  0
112111  1  0  0  0  0
113111  4  0  0  0  0
114113  1  0  0  0  0
115  8  1  0  0  0  0
116 11  1  0  0  0  0
117116  4  0  0  0  0
118117  1  0  0  0  0
119117  4  0  0  0  0
120119  1  0  0  0  0
121119  4  0  0  0  0
122121  1  0  0  0  0
123121  4  0  0  0  0
124123  1  0  0  0  0
125116  4  0  0  0  0
 12 21  4  0  0  0  0
 19 21  4  0  0  0  0
 22 31  4  0  0  0  0
 29 31  4  0  0  0  0
 32 41  4  0  0  0  0
 39 41  4  0  0  0  0
 49 51  4  0  0  0  0
 53 54  4  0  0  0  0
 53 61  4  0  0  0  0
 59 61  4  0  0  0  0
 69 71  4  0  0  0  0
 80 82  4  0  0  0  0
 91 93  4  0  0  0  0
102104  4  0  0  0  0
106115  4  0  0  0  0
113115  4  0  0  0  0
123125  4  0  0  0  0
M  END
$$$$
UJUFAH

From CSD data. Using bond type 'Any'. No disordered atoms. Largest molecule.
 49 64  0  0  0  0  0  0  0  0999 V2000
    6.9690    1.5006    3.0698 H   0  0  0  0  0  0  0  0  0  0  0  0
    7.8702    2.7156    5.0446 Ir  0  0  0  0  0  0  0  0  0  0  0  0
    8.2907    0.3529    4.9302 S   0  0  0  0  0  0  0  0  0  0  0  0
    7.4988    2.6565    2.8032 B   0  0  0  0  0  0  0  0  0  0  0  0
    6.5355    3.2073    2.6511 H   0  0  0  0  0  0  0  0  0  0  0  0
    8.8200    2.0530    1.7732 B   0  0  0  0  0  0  0  0  0  0  0  0
    8.9808    2.5428    0.7796 H   0  0  0  0  0  0  0  0  0  0  0  0
    9.2502    2.9286    3.2799 B   0  0  0  0  0  0  0  0  0  0  0  0
    9.6997    3.9543    3.2475 H   0  0  0  0  0  0  0  0  0  0  0  0
    7.4572    0.9267    2.0223 B   0  0  0  0  0  0  0  0  0  0  0  0
    6.4591    0.6761    1.5793 H   0  0  0  0  0  0  0  0  0  0  0  0
    9.7344    0.0412    3.6192 B   0  0  0  0  0  0  0  0  0  0  0  0
   10.4852   -0.7585    3.8427 H   0  0  0  0  0  0  0  0  0  0  0  0
    9.8141    1.7084    4.4728 B   0  0  0  0  0  0  0  0  0  0  0  0
   10.6124    1.9557    5.2200 H   0  0  0  0  0  0  0  0  0  0  0  0
    8.0171   -0.3380    3.1721 B   0  0  0  0  0  0  0  0  0  0  0  0
    7.2951   -1.1922    3.2489 H   0  0  0  0  0  0  0  0  0  0  0  0
    9.1026    0.3364    2.0021 B   0  0  0  0  0  0  0  0  0  0  0  0
    9.4374   -0.3018    1.1445 H   0  0  0  0  0  0  0  0  0  0  0  0
   10.1926    1.5171    2.7803 B   0  0  0  0  0  0  0  0  0  0  0  0
   11.2574    1.6441    2.4559 H   0  0  0  0  0  0  0  0  0  0  0  0
    8.4022    2.7110    6.8775 C   0  0  0  0  0  0  0  0  0  0  0  0
    8.7481    2.6961    7.9533 O   0  0  0  0  0  0  0  0  0  0  0  0
    8.0409    5.0191    5.1452 P   0  0  0  0  0  0  0  0  0  0  0  0
    5.5609    2.5477    5.4054 P   0  0  0  0  0  0  0  0  0  0  0  0
    7.0408    5.8325    6.4372 C   0  0  0  0  0  0  0  0  0  0  0  0
    6.0986    5.8309    6.1693 H   0  0  0  0  0  0  0  0  0  0  0  0
    7.3467    6.7560    6.5530 H   0  0  0  0  0  0  0  0  0  0  0  0
    7.1412    5.3461    7.2814 H   0  0  0  0  0  0  0  0  0  0  0  0
    7.6248    5.9776    3.6757 C   0  0  0  0  0  0  0  0  0  0  0  0
    6.6824    5.8342    3.4495 H   0  0  0  0  0  0  0  0  0  0  0  0
    8.1874    5.6891    2.9284 H   0  0  0  0  0  0  0  0  0  0  0  0
    7.7775    6.9291    3.8534 H   0  0  0  0  0  0  0  0  0  0  0  0
    9.7128    5.5538    5.5540 C   0  0  0  0  0  0  0  0  0  0  0  0
    9.7363    6.5317    5.6186 H   0  0  0  0  0  0  0  0  0  0  0  0
   10.3307    5.2587    4.8525 H   0  0  0  0  0  0  0  0  0  0  0  0
    9.9805    5.1630    6.4116 H   0  0  0  0  0  0  0  0  0  0  0  0
    4.4830    3.6393    4.4418 C   0  0  0  0  0  0  0  0  0  0  0  0
    4.6495    3.5025    3.4859 H   0  0  0  0  0  0  0  0  0  0  0  0
    4.6693    4.5727    4.6761 H   0  0  0  0  0  0  0  0  0  0  0  0
    3.5458    3.4332    4.6424 H   0  0  0  0  0  0  0  0  0  0  0  0
    5.0004    2.8148    7.1050 C   0  0  0  0  0  0  0  0  0  0  0  0
    5.2611    3.7135    7.3972 H   0  0  0  0  0  0  0  0  0  0  0  0
    5.4107    2.1470    7.6934 H   0  0  0  0  0  0  0  0  0  0  0  0
    4.0246    2.7291    7.1441 H   0  0  0  0  0  0  0  0  0  0  0  0
    4.9319    0.8855    5.0706 C   0  0  0  0  0  0  0  0  0  0  0  0
    5.4144    0.2358    5.6226 H   0  0  0  0  0  0  0  0  0  0  0  0
    5.0647    0.6711    4.1227 H   0  0  0  0  0  0  0  0  0  0  0  0
    3.9756    0.8492    5.2820 H   0  0  0  0  0  0  0  0  0  0  0  0
  1  4  1  0  0  0  0
  2  3  1  0  0  0  0
  3 12  1  0  0  0  0
  4  2  1  0  0  0  0
  5  4  1  0  0  0  0
  6  4  1  0  0  0  0
  7  6  1  0  0  0  0
  8  2  1  0  0  0  0
  9  8  1  0  0  0  0
 10  1  1  0  0  0  0
 11 10  1  0  0  0  0
 12 13  1  0  0  0  0
 14  2  1  0  0  0  0
 15 14  1  0  0  0  0
 16  3  1  0  0  0  0
 17 16  1  0  0  0  0
 18  6  1  0  0  0  0
 19 18  1  0  0  0  0
 20  6  1  0  0  0  0
 21 20  1  0  0  0  0
 22  2  1  0  0  0  0
 23 22  3  0  0  0  0
 24  2  1  0  0  0  0
 25  2  1  0  0  0  0
 26 24  1  0  0  0  0
 27 26  1  0  0  0  0
 28 26  1  0  0  0  0
 29 26  1  0  0  0  0
 30 24  1  0  0  0  0
 31 30  1  0  0  0  0
 32 30  1  0  0  0  0
 33 30  1  0  0  0  0
 34 24  1  0  0  0  0
 35 34  1  0  0  0  0
 36 34  1  0  0  0  0
 37 34  1  0  0  0  0
 38 25  1  0  0  0  0
 39 38  1  0  0  0  0
 40 38  1  0  0  0  0
 41 38  1  0  0  0  0
 42 25  1  0  0  0  0
 43 42  1  0  0  0  0
 44 42  1  0  0  0  0
 45 42  1  0  0  0  0
 46 25  1  0  0  0  0
 47 46  1  0  0  0  0
 48 46  1  0  0  0  0
 49 46  1  0  0  0  0
  3 14  1  0  0  0  0
  4  8  1  0  0  0  0
  4 10  1  0  0  0  0
  6  8  1  0  0  0  0
  6 10  1  0  0  0  0
  8 14  1  0  0  0  0
  8 20  1  0  0  0  0
 10 16  1  0  0  0  0
 10 18  1  0  0  0  0
 12 14  1  0  0  0  0
 12 16  1  0  0  0  0
 12 18  1  0  0  0  0
 12 20  1  0  0  0  0
 14 20  1  0  0  0  0
 16 18  1  0  0  0  0
 18 20  1  0  0  0  0
M  END
$$$$
UJUFAJ

From CSD data. Using bond type 'Any'. No disordered atoms. Largest molecule.
149154  0  0  0  0  0  0  0  0999 V2000
    7.9943    5.9869   14.6649 Ca  0  2  0  0  0  0  0  0  0  0  0  0
    7.6740    8.7699   18.3185 P   0  3  0  0  0  0  0  0  0  0  0  0
    8.0744    7.4033   17.0230 B   0  5  0  0  0  0  0  0  0  0  0  0
    9.0511    7.5566   16.5215 H   0  0  0  0  0  0  0  0  0  0  0  0
    7.9655    6.4119   17.4366 H   0  0  0  0  0  0  0  0  0  0  0  0
    7.2396    7.5949   16.2428 H   0  0  0  0  0  0  0  0  0  0  0  0
    7.6360   10.5369   17.5163 B   0  5  0  0  0  0  0  0  0  0  0  0
    7.2652   11.2912   18.2167 H   0  0  0  0  0  0  0  0  0  0  0  0
    8.7058   10.7524   17.2019 H   0  0  0  0  0  0  0  0  0  0  0  0
    6.9790   10.4279   16.6036 H   0  0  0  0  0  0  0  0  0  0  0  0
    8.6917    8.6845   19.8519 C   0  0  0  0  0  0  0  0  0  0  0  0
    8.3644    7.8626   20.3182 H   0  0  0  0  0  0  0  0  0  0  0  0
   10.5248    8.3263   19.5075 Si  0  0  0  0  0  0  0  0  0  0  0  0
   11.1919    9.3323   18.0903 C   0  0  0  0  0  0  0  0  0  0  0  0
   10.6432    9.1774   17.2933 H   0  0  0  0  0  0  0  0  0  0  0  0
   11.1667   10.2834   18.3247 H   0  0  0  0  0  0  0  0  0  0  0  0
   12.1168    9.0652   17.9073 H   0  0  0  0  0  0  0  0  0  0  0  0
   11.6141    8.6714   20.9802 C   0  0  0  0  0  0  0  0  0  0  0  0
   11.2939    8.1574   21.7509 H   0  0  0  0  0  0  0  0  0  0  0  0
   12.5355    8.4097   20.7733 H   0  0  0  0  0  0  0  0  0  0  0  0
   11.5854    9.6279   21.1907 H   0  0  0  0  0  0  0  0  0  0  0  0
   10.7424    6.5071   19.1515 C   0  0  0  0  0  0  0  0  0  0  0  0
   10.3895    5.9831   19.9008 H   0  0  0  0  0  0  0  0  0  0  0  0
   10.2570    6.2741   18.3327 H   0  0  0  0  0  0  0  0  0  0  0  0
   11.6949    6.3089   19.0342 H   0  0  0  0  0  0  0  0  0  0  0  0
    8.3478   10.0866   21.0834 Si  0  0  0  0  0  0  0  0  0  0  0  0
    8.7862    9.5047   22.8033 C   0  0  0  0  0  0  0  0  0  0  0  0
    9.7304    9.2440   22.8293 H   0  0  0  0  0  0  0  0  0  0  0  0
    8.6304   10.2309   23.4433 H   0  0  0  0  0  0  0  0  0  0  0  0
    8.2277    8.7354   23.0403 H   0  0  0  0  0  0  0  0  0  0  0  0
    9.3290   11.6225   20.6752 C   0  0  0  0  0  0  0  0  0  0  0  0
   10.2809   11.3964   20.6184 H   0  0  0  0  0  0  0  0  0  0  0  0
    9.0272   11.9841   19.8159 H   0  0  0  0  0  0  0  0  0  0  0  0
    9.1939   12.2927   21.3774 H   0  0  0  0  0  0  0  0  0  0  0  0
    6.5504   10.5432   21.1852 C   0  0  0  0  0  0  0  0  0  0  0  0
    6.2442   10.8614   20.3104 H   0  0  0  0  0  0  0  0  0  0  0  0
    6.0280    9.7567   21.4480 H   0  0  0  0  0  0  0  0  0  0  0  0
    6.4306   11.2522   21.8510 H   0  0  0  0  0  0  0  0  0  0  0  0
    5.9900    8.2736   18.8309 C   0  0  0  0  0  0  0  0  0  0  0  0
    5.7561    7.0506   19.4410 C   0  0  0  0  0  0  0  0  0  0  0  0
    6.4929    6.4978   19.6737 H   0  0  0  0  0  0  0  0  0  0  0  0
    4.4703    6.6193   19.7181 C   0  0  0  0  0  0  0  0  0  0  0  0
    4.3280    5.7841   20.1479 H   0  0  0  0  0  0  0  0  0  0  0  0
    3.3960    7.4117   19.3653 C   0  0  0  0  0  0  0  0  0  0  0  0
    2.5094    7.1123   19.5299 H   0  0  0  0  0  0  0  0  0  0  0  0
    3.6129    8.6333   18.7752 C   0  0  0  0  0  0  0  0  0  0  0  0
    2.8739    9.1866   18.5518 H   0  0  0  0  0  0  0  0  0  0  0  0
    4.8981    9.0634   18.5045 C   0  0  0  0  0  0  0  0  0  0  0  0
    5.0346    9.9077   18.0911 H   0  0  0  0  0  0  0  0  0  0  0  0
    5.6024    5.8336   14.8555 O   0  0  0  0  0  0  0  0  0  0  0  0
    4.8413    5.6396   16.0528 C   0  0  0  0  0  0  0  0  0  0  0  0
    4.6509    4.6771   16.1875 H   0  0  0  0  0  0  0  0  0  0  0  0
    5.3434    5.9742   16.8372 H   0  0  0  0  0  0  0  0  0  0  0  0
    3.6390    6.3592   15.8979 C   0  0  0  0  0  0  0  0  0  0  0  0
    3.7140    7.2442   16.3342 H   0  0  0  0  0  0  0  0  0  0  0  0
    2.8909    5.8654   16.3199 H   0  0  0  0  0  0  0  0  0  0  0  0
    3.3880    6.5233   14.4772 C   0  0  0  0  0  0  0  0  0  0  0  0
    3.1862    7.4697   14.2670 H   0  0  0  0  0  0  0  0  0  0  0  0
    2.6208    5.9651   14.1926 H   0  0  0  0  0  0  0  0  0  0  0  0
    4.6047    6.0994   13.8064 C   0  0  0  0  0  0  0  0  0  0  0  0
    4.9267    6.8099   13.1972 H   0  0  0  0  0  0  0  0  0  0  0  0
    4.4369    5.2808   13.2752 H   0  0  0  0  0  0  0  0  0  0  0  0
    8.0087    8.0092   13.4242 O   0  0  0  0  0  0  0  0  0  0  0  0
    8.7026    9.1886   13.8624 C   0  0  0  0  0  0  0  0  0  0  0  0
    8.7249    9.2282   14.8513 H   0  0  0  0  0  0  0  0  0  0  0  0
    9.6343    9.1841   13.5264 H   0  0  0  0  0  0  0  0  0  0  0  0
    7.9911   10.3094   13.3366 C   0  0  0  0  0  0  0  0  0  0  0  0
    8.6172   11.0361   13.0906 H   0  0  0  0  0  0  0  0  0  0  0  0
    7.3456   10.6563   14.0017 H   0  0  0  0  0  0  0  0  0  0  0  0
    7.2700    9.7873   12.1103 C   0  0  0  0  0  0  0  0  0  0  0  0
    6.3253   10.0843   12.1107 H   0  0  0  0  0  0  0  0  0  0  0  0
    7.7065   10.1124   11.2848 H   0  0  0  0  0  0  0  0  0  0  0  0
    7.3500    8.3600   12.1983 C   0  0  0  0  0  0  0  0  0  0  0  0
    7.8586    8.0040   11.4262 H   0  0  0  0  0  0  0  0  0  0  0  0
    6.4405    7.9694   12.1776 H   0  0  0  0  0  0  0  0  0  0  0  0
    8.3146    3.2038   11.0113 P   0  3  0  0  0  0  0  0  0  0  0  0
    7.9142    4.5704   12.3068 B   0  5  0  0  0  0  0  0  0  0  0  0
    6.9375    4.4171   12.8083 H   0  0  0  0  0  0  0  0  0  0  0  0
    8.0231    5.5618   11.8932 H   0  0  0  0  0  0  0  0  0  0  0  0
    8.7490    4.3788   13.0870 H   0  0  0  0  0  0  0  0  0  0  0  0
    8.3526    1.4368   11.8135 B   0  5  0  0  0  0  0  0  0  0  0  0
    8.7234    0.6825   11.1131 H   0  0  0  0  0  0  0  0  0  0  0  0
    7.2828    1.2213   12.1279 H   0  0  0  0  0  0  0  0  0  0  0  0
    9.0096    1.5458   12.7262 H   0  0  0  0  0  0  0  0  0  0  0  0
    7.2969    3.2892    9.4779 C   0  0  0  0  0  0  0  0  0  0  0  0
    7.6242    4.1111    9.0116 H   0  0  0  0  0  0  0  0  0  0  0  0
    5.4638    3.6474    9.8223 Si  0  0  0  0  0  0  0  0  0  0  0  0
    4.7967    2.6414   11.2395 C   0  0  0  0  0  0  0  0  0  0  0  0
    5.3454    2.7963   12.0365 H   0  0  0  0  0  0  0  0  0  0  0  0
    4.8219    1.6903   11.0051 H   0  0  0  0  0  0  0  0  0  0  0  0
    3.8718    2.9085   11.4225 H   0  0  0  0  0  0  0  0  0  0  0  0
    4.3745    3.3023    8.3496 C   0  0  0  0  0  0  0  0  0  0  0  0
    4.6947    3.8163    7.5789 H   0  0  0  0  0  0  0  0  0  0  0  0
    3.4531    3.5640    8.5565 H   0  0  0  0  0  0  0  0  0  0  0  0
    4.4032    2.3458    8.1391 H   0  0  0  0  0  0  0  0  0  0  0  0
    5.2462    5.4666   10.1783 C   0  0  0  0  0  0  0  0  0  0  0  0
    5.5991    5.9906    9.4290 H   0  0  0  0  0  0  0  0  0  0  0  0
    5.7316    5.6996   10.9971 H   0  0  0  0  0  0  0  0  0  0  0  0
    4.2937    5.6648   10.2956 H   0  0  0  0  0  0  0  0  0  0  0  0
    7.6408    1.8871    8.2464 Si  0  0  0  0  0  0  0  0  0  0  0  0
    7.2024    2.4690    6.5265 C   0  0  0  0  0  0  0  0  0  0  0  0
    6.2582    2.7297    6.5005 H   0  0  0  0  0  0  0  0  0  0  0  0
    7.3582    1.7428    5.8865 H   0  0  0  0  0  0  0  0  0  0  0  0
    7.7609    3.2383    6.2895 H   0  0  0  0  0  0  0  0  0  0  0  0
    6.6596    0.3512    8.6546 C   0  0  0  0  0  0  0  0  0  0  0  0
    5.7077    0.5773    8.7114 H   0  0  0  0  0  0  0  0  0  0  0  0
    6.9614   -0.0104    9.5139 H   0  0  0  0  0  0  0  0  0  0  0  0
    6.7947   -0.3190    7.9524 H   0  0  0  0  0  0  0  0  0  0  0  0
    9.4382    1.4305    8.1446 C   0  0  0  0  0  0  0  0  0  0  0  0
    9.7444    1.1123    9.0194 H   0  0  0  0  0  0  0  0  0  0  0  0
    9.9606    2.2170    7.8818 H   0  0  0  0  0  0  0  0  0  0  0  0
    9.5580    0.7215    7.4788 H   0  0  0  0  0  0  0  0  0  0  0  0
    9.9986    3.7001   10.4989 C   0  0  0  0  0  0  0  0  0  0  0  0
   10.2325    4.9231    9.8888 C   0  0  0  0  0  0  0  0  0  0  0  0
    9.4957    5.4759    9.6561 H   0  0  0  0  0  0  0  0  0  0  0  0
   11.5183    5.3544    9.6117 C   0  0  0  0  0  0  0  0  0  0  0  0
   11.6606    6.1896    9.1819 H   0  0  0  0  0  0  0  0  0  0  0  0
   12.5926    4.5620    9.9645 C   0  0  0  0  0  0  0  0  0  0  0  0
   13.4792    4.8614    9.7999 H   0  0  0  0  0  0  0  0  0  0  0  0
   12.3757    3.3404   10.5546 C   0  0  0  0  0  0  0  0  0  0  0  0
   13.1147    2.7871   10.7780 H   0  0  0  0  0  0  0  0  0  0  0  0
   11.0905    2.9103   10.8253 C   0  0  0  0  0  0  0  0  0  0  0  0
   10.9540    2.0660   11.2387 H   0  0  0  0  0  0  0  0  0  0  0  0
   10.3862    6.1401   14.4743 O   0  0  0  0  0  0  0  0  0  0  0  0
   11.1473    6.3341   13.2770 C   0  0  0  0  0  0  0  0  0  0  0  0
   11.3377    7.2966   13.1423 H   0  0  0  0  0  0  0  0  0  0  0  0
   10.6452    5.9995   12.4926 H   0  0  0  0  0  0  0  0  0  0  0  0
   12.3496    5.6145   13.4319 C   0  0  0  0  0  0  0  0  0  0  0  0
   12.2746    4.7295   12.9956 H   0  0  0  0  0  0  0  0  0  0  0  0
   13.0977    6.1083   13.0099 H   0  0  0  0  0  0  0  0  0  0  0  0
   12.6006    5.4504   14.8526 C   0  0  0  0  0  0  0  0  0  0  0  0
   12.8024    4.5040   15.0628 H   0  0  0  0  0  0  0  0  0  0  0  0
   13.3678    6.0086   15.1372 H   0  0  0  0  0  0  0  0  0  0  0  0
   11.3839    5.8743   15.5234 C   0  0  0  0  0  0  0  0  0  0  0  0
   11.0619    5.1638   16.1326 H   0  0  0  0  0  0  0  0  0  0  0  0
   11.5517    6.6929   16.0546 H   0  0  0  0  0  0  0  0  0  0  0  0
    7.9799    3.9645   15.9056 O   0  0  0  0  0  0  0  0  0  0  0  0
    7.2860    2.7851   15.4674 C   0  0  0  0  0  0  0  0  0  0  0  0
    7.2637    2.7455   14.4785 H   0  0  0  0  0  0  0  0  0  0  0  0
    6.3543    2.7896   15.8034 H   0  0  0  0  0  0  0  0  0  0  0  0
    7.9975    1.6643   15.9932 C   0  0  0  0  0  0  0  0  0  0  0  0
    7.3714    0.9376   16.2392 H   0  0  0  0  0  0  0  0  0  0  0  0
    8.6430    1.3174   15.3281 H   0  0  0  0  0  0  0  0  0  0  0  0
    8.7186    2.1864   17.2195 C   0  0  0  0  0  0  0  0  0  0  0  0
    9.6633    1.8894   17.2191 H   0  0  0  0  0  0  0  0  0  0  0  0
    8.2821    1.8613   18.0450 H   0  0  0  0  0  0  0  0  0  0  0  0
    8.6386    3.6137   17.1315 C   0  0  0  0  0  0  0  0  0  0  0  0
    8.1300    3.9697   17.9036 H   0  0  0  0  0  0  0  0  0  0  0  0
    9.5481    4.0043   17.1522 H   0  0  0  0  0  0  0  0  0  0  0  0
  1  6  1  0  0  0  0
  2  3  1  0  0  0  0
  3  4  1  0  0  0  0
  5  3  1  0  0  0  0
  6  3  1  0  0  0  0
  7  2  1  0  0  0  0
  8  7  1  0  0  0  0
  9  7  1  0  0  0  0
 10  7  1  0  0  0  0
 11  2  1  0  0  0  0
 12 11  1  0  0  0  0
 13 11  1  0  0  0  0
 14 13  1  0  0  0  0
 15 14  1  0  0  0  0
 16 14  1  0  0  0  0
 17 14  1  0  0  0  0
 18 13  1  0  0  0  0
 19 18  1  0  0  0  0
 20 18  1  0  0  0  0
 21 18  1  0  0  0  0
 22 13  1  0  0  0  0
 23 22  1  0  0  0  0
 24 22  1  0  0  0  0
 25 22  1  0  0  0  0
 26 11  1  0  0  0  0
 27 26  1  0  0  0  0
 28 27  1  0  0  0  0
 29 27  1  0  0  0  0
 30 27  1  0  0  0  0
 31 26  1  0  0  0  0
 32 31  1  0  0  0  0
 33 31  1  0  0  0  0
 34 31  1  0  0  0  0
 35 26  1  0  0  0  0
 36 35  1  0  0  0  0
 37 35  1  0  0  0  0
 38 35  1  0  0  0  0
 39  2  1  0  0  0  0
 40 39  4  0  0  0  0
 41 40  1  0  0  0  0
 42 40  4  0  0  0  0
 43 42  1  0  0  0  0
 44 42  4  0  0  0  0
 45 44  1  0  0  0  0
 46 44  4  0  0  0  0
 47 46  1  0  0  0  0
 48 39  4  0  0  0  0
 49 48  1  0  0  0  0
 50  1  1  0  0  0  0
 51 50  1  0  0  0  0
 52 51  1  0  0  0  0
 53 51  1  0  0  0  0
 54 51  1  0  0  0  0
 55 54  1  0  0  0  0
 56 54  1  0  0  0  0
 57 54  1  0  0  0  0
 58 57  1  0  0  0  0
 59 57  1  0  0  0  0
 60 50  1  0  0  0  0
 61 60  1  0  0  0  0
 62 60  1  0  0  0  0
 63  1  1  0  0  0  0
 64 63  1  0  0  0  0
 65 64  1  0  0  0  0
 66 64  1  0  0  0  0
 67 64  1  0  0  0  0
 68 67  1  0  0  0  0
 69 67  1  0  0  0  0
 70 67  1  0  0  0  0
 71 70  1  0  0  0  0
 72 70  1  0  0  0  0
 73 63  1  0  0  0  0
 74 73  1  0  0  0  0
 75 73  1  0  0  0  0
 76 77  1  0  0  0  0
 77 78  1  0  0  0  0
 79 77  1  0  0  0  0
 80  1  1  0  0  0  0
 81 76  1  0  0  0  0
 82 81  1  0  0  0  0
 83 81  1  0  0  0  0
 84 81  1  0  0  0  0
 85 76  1  0  0  0  0
 86 85  1  0  0  0  0
 87 85  1  0  0  0  0
 88 87  1  0  0  0  0
 89 88  1  0  0  0  0
 90 88  1  0  0  0  0
 91 88  1  0  0  0  0
 92 87  1  0  0  0  0
 93 92  1  0  0  0  0
 94 92  1  0  0  0  0
 95 92  1  0  0  0  0
 96 87  1  0  0  0  0
 97 96  1  0  0  0  0
 98 96  1  0  0  0  0
 99 96  1  0  0  0  0
100 85  1  0  0  0  0
101100  1  0  0  0  0
102101  1  0  0  0  0
103101  1  0  0  0  0
104101  1  0  0  0  0
105100  1  0  0  0  0
106105  1  0  0  0  0
107105  1  0  0  0  0
108105  1  0  0  0  0
109100  1  0  0  0  0
110109  1  0  0  0  0
111109  1  0  0  0  0
112109  1  0  0  0  0
113 76  1  0  0  0  0
114113  4  0  0  0  0
115114  1  0  0  0  0
116114  4  0  0  0  0
117116  1  0  0  0  0
118116  4  0  0  0  0
119118  1  0  0  0  0
120118  4  0  0  0  0
121120  1  0  0  0  0
122113  4  0  0  0  0
123122  1  0  0  0  0
124  1  1  0  0  0  0
125124  1  0  0  0  0
126125  1  0  0  0  0
127125  1  0  0  0  0
128125  1  0  0  0  0
129128  1  0  0  0  0
130128  1  0  0  0  0
131128  1  0  0  0  0
132131  1  0  0  0  0
133131  1  0  0  0  0
134124  1  0  0  0  0
135134  1  0  0  0  0
136134  1  0  0  0  0
137  1  1  0  0  0  0
138137  1  0  0  0  0
139138  1  0  0  0  0
140138  1  0  0  0  0
141138  1  0  0  0  0
142141  1  0  0  0  0
143141  1  0  0  0  0
144141  1  0  0  0  0
145144  1  0  0  0  0
146144  1  0  0  0  0
147137  1  0  0  0  0
148147  1  0  0  0  0
149147  1  0  0  0  0
 46 48  4  0  0  0  0
 57 60  1  0  0  0  0
 70 73  1  0  0  0  0
 77 80  1  0  0  0  0
120122  4  0  0  0  0
131134  1  0  0  0  0
144147  1  0  0  0  0
M  CHG  7   1   2   2   1   3  -1   7  -1  76   1  77  -1  81  -1
M  END
$$$$
UKENAZ

From CSD data. Using bond type 'Any'. No disordered atoms. Largest molecule.
 68 78  0  0  0  0  0  0  0  0999 V2000
   -0.0951    4.7589    9.5434 Mn  0  0  0  0  0  0  0  0  0  0  0  0
   -0.4075    4.1621    7.3988 P   0  0  0  0  0  0  0  0  0  0  0  0
   -1.1596    2.8505   10.0789 P   0  0  0  0  0  0  0  0  0  0  0  0
    2.5001    3.3048    9.5243 O   0  0  0  0  0  0  0  0  0  0  0  0
   -2.7789    6.0537    9.6494 O   0  0  0  0  0  0  0  0  0  0  0  0
    0.8714    5.9039   11.3259 B   0  0  0  0  0  0  0  0  0  0  0  0
    1.1662    6.7089    9.7923 B   0  0  0  0  0  0  0  0  0  0  0  0
    0.3219    7.5965   11.1343 B   0  0  0  0  0  0  0  0  0  0  0  0
    1.0080    4.1977    6.2389 C   0  0  0  0  0  0  0  0  0  0  0  0
    0.9832    3.4437    5.0634 C   0  0  0  0  0  0  0  0  0  0  0  0
    0.2277    2.8983    4.8755 H   0  0  0  0  0  0  0  0  0  0  0  0
    2.0330    3.4754    4.1725 C   0  0  0  0  0  0  0  0  0  0  0  0
    2.0034    2.9439    3.3864 H   0  0  0  0  0  0  0  0  0  0  0  0
    3.1313    4.2808    4.4217 C   0  0  0  0  0  0  0  0  0  0  0  0
    3.8493    4.3136    3.7999 H   0  0  0  0  0  0  0  0  0  0  0  0
    3.1773    5.0348    5.5753 C   0  0  0  0  0  0  0  0  0  0  0  0
    3.9297    5.5883    5.7495 H   0  0  0  0  0  0  0  0  0  0  0  0
    2.1296    4.9895    6.4841 C   0  0  0  0  0  0  0  0  0  0  0  0
    2.1763    5.5032    7.2831 H   0  0  0  0  0  0  0  0  0  0  0  0
   -1.6811    5.0291    6.4072 C   0  0  0  0  0  0  0  0  0  0  0  0
   -2.4352    4.4134    5.4031 C   0  0  0  0  0  0  0  0  0  0  0  0
   -2.3527    3.4790    5.2602 H   0  0  0  0  0  0  0  0  0  0  0  0
   -3.2999    5.1543    4.6166 C   0  0  0  0  0  0  0  0  0  0  0  0
   -3.8047    4.7241    3.9360 H   0  0  0  0  0  0  0  0  0  0  0  0
   -3.4337    6.5129    4.8132 C   0  0  0  0  0  0  0  0  0  0  0  0
   -4.0188    7.0183    4.2605 H   0  0  0  0  0  0  0  0  0  0  0  0
   -2.7174    7.1367    5.8124 C   0  0  0  0  0  0  0  0  0  0  0  0
   -2.8184    8.0699    5.9615 H   0  0  0  0  0  0  0  0  0  0  0  0
   -1.8488    6.3974    6.5993 C   0  0  0  0  0  0  0  0  0  0  0  0
   -1.3561    6.8334    7.2857 H   0  0  0  0  0  0  0  0  0  0  0  0
   -0.9296    2.3941    7.3970 C   0  0  0  0  0  0  0  0  0  0  0  0
   -1.3544    2.1660    6.5320 H   0  0  0  0  0  0  0  0  0  0  0  0
   -0.1421    1.8073    7.5239 H   0  0  0  0  0  0  0  0  0  0  0  0
   -1.9231    2.1943    8.5385 C   0  0  0  0  0  0  0  0  0  0  0  0
   -2.1301    1.2316    8.6440 H   0  0  0  0  0  0  0  0  0  0  0  0
   -2.7654    2.6764    8.3456 H   0  0  0  0  0  0  0  0  0  0  0  0
   -2.5529    2.8562   11.2620 C   0  0  0  0  0  0  0  0  0  0  0  0
   -3.4755    1.8075   11.2753 C   0  0  0  0  0  0  0  0  0  0  0  0
   -3.3955    1.1034   10.6433 H   0  0  0  0  0  0  0  0  0  0  0  0
   -4.4980    1.7839   12.1950 C   0  0  0  0  0  0  0  0  0  0  0  0
   -5.1232    1.0688   12.1848 H   0  0  0  0  0  0  0  0  0  0  0  0
   -4.6232    2.7860   13.1321 C   0  0  0  0  0  0  0  0  0  0  0  0
   -5.3253    2.7602   13.7707 H   0  0  0  0  0  0  0  0  0  0  0  0
   -3.7152    3.8322   13.1334 C   0  0  0  0  0  0  0  0  0  0  0  0
   -3.7927    4.5268   13.7759 H   0  0  0  0  0  0  0  0  0  0  0  0
   -2.6984    3.8667   12.2012 C   0  0  0  0  0  0  0  0  0  0  0  0
   -2.0873    4.5946   12.2031 H   0  0  0  0  0  0  0  0  0  0  0  0
   -0.1308    1.4864   10.7310 C   0  0  0  0  0  0  0  0  0  0  0  0
    0.6375    1.7480   11.8576 C   0  0  0  0  0  0  0  0  0  0  0  0
    0.6147    2.6123   12.2528 H   0  0  0  0  0  0  0  0  0  0  0  0
    1.4430    0.7541   12.4166 C   0  0  0  0  0  0  0  0  0  0  0  0
    1.9674    0.9394   13.1871 H   0  0  0  0  0  0  0  0  0  0  0  0
    1.4714   -0.4956   11.8422 C   0  0  0  0  0  0  0  0  0  0  0  0
    2.0205   -1.1749   12.2162 H   0  0  0  0  0  0  0  0  0  0  0  0
    0.7115   -0.7680   10.7315 C   0  0  0  0  0  0  0  0  0  0  0  0
    0.7329   -1.6359   10.3476 H   0  0  0  0  0  0  0  0  0  0  0  0
   -0.0865    0.2157   10.1676 C   0  0  0  0  0  0  0  0  0  0  0  0
   -0.6044    0.0210    9.3950 H   0  0  0  0  0  0  0  0  0  0  0  0
    1.5092    3.8530    9.5120 C   0  0  0  0  0  0  0  0  0  0  0  0
   -1.7318    5.5842    9.6188 C   0  0  0  0  0  0  0  0  0  0  0  0
    1.7979    5.5661   11.8367 H   0  0  0  0  0  0  0  0  0  0  0  0
    0.0616    4.9743   11.2426 H   0  0  0  0  0  0  0  0  0  0  0  0
    0.2021    6.5437   12.0591 H   0  0  0  0  0  0  0  0  0  0  0  0
    2.1421    6.7878    9.5651 H   0  0  0  0  0  0  0  0  0  0  0  0
    0.5188    6.2121    8.8559 H   0  0  0  0  0  0  0  0  0  0  0  0
    0.8133    7.6557    9.7222 H   0  0  0  0  0  0  0  0  0  0  0  0
    0.8818    8.3806   11.6352 H   0  0  0  0  0  0  0  0  0  0  0  0
   -0.7620    7.7888   11.0464 H   0  0  0  0  0  0  0  0  0  0  0  0
  1  2  1  0  0  0  0
  2  9  1  0  0  0  0
  3  1  1  0  0  0  0
  4 59  3  0  0  0  0
  5 60  3  0  0  0  0
  6  1  1  0  0  0  0
  7  1  1  0  0  0  0
  8  6  1  0  0  0  0
  9 10  4  0  0  0  0
 10 11  1  0  0  0  0
 12 10  4  0  0  0  0
 13 12  1  0  0  0  0
 14 12  4  0  0  0  0
 15 14  1  0  0  0  0
 16 14  4  0  0  0  0
 17 16  1  0  0  0  0
 18  9  4  0  0  0  0
 19 18  1  0  0  0  0
 20  2  1  0  0  0  0
 21 20  4  0  0  0  0
 22 21  1  0  0  0  0
 23 21  4  0  0  0  0
 24 23  1  0  0  0  0
 25 23  4  0  0  0  0
 26 25  1  0  0  0  0
 27 25  4  0  0  0  0
 28 27  1  0  0  0  0
 29 20  4  0  0  0  0
 30 29  1  0  0  0  0
 31  2  1  0  0  0  0
 32 31  1  0  0  0  0
 33 31  1  0  0  0  0
 34  3  1  0  0  0  0
 35 34  1  0  0  0  0
 36 34  1  0  0  0  0
 37  3  1  0  0  0  0
 38 37  4  0  0  0  0
 39 38  1  0  0  0  0
 40 38  4  0  0  0  0
 41 40  1  0  0  0  0
 42 40  4  0  0  0  0
 43 42  1  0  0  0  0
 44 42  4  0  0  0  0
 45 44  1  0  0  0  0
 46 37  4  0  0  0  0
 47 46  1  0  0  0  0
 48  3  1  0  0  0  0
 49 48  4  0  0  0  0
 50 49  1  0  0  0  0
 51 49  4  0  0  0  0
 52 51  1  0  0  0  0
 53 51  4  0  0  0  0
 54 53  1  0  0  0  0
 55 53  4  0  0  0  0
 56 55  1  0  0  0  0
 57 48  4  0  0  0  0
 58 57  1  0  0  0  0
 59  1  1  0  0  0  0
 60  1  1  0  0  0  0
 61  6  1  0  0  0  0
 62  1  1  0  0  0  0
 63  6  1  0  0  0  0
 64  7  1  0  0  0  0
 65  1  1  0  0  0  0
 66  7  1  0  0  0  0
 67  8  1  0  0  0  0
 68  8  1  0  0  0  0
  6  7  1  0  0  0  0
  6 62  1  0  0  0  0
  7  8  1  0  0  0  0
  7 65  1  0  0  0  0
  8 63  1  0  0  0  0
  8 66  1  0  0  0  0
 16 18  4  0  0  0  0
 27 29  4  0  0  0  0
 31 34  1  0  0  0  0
 44 46  4  0  0  0  0
 55 57  4  0  0  0  0
M  END
$$$$
UKENED

From CSD data. Using bond type 'Any'. Matching problem. No disordered atoms. Largest molecule.
 84106  0  0  0  0  0  0  0  0999 V2000
   -0.0742    2.9032    4.0199 Re  0  0  0  0  0  0  0  0  0  0  0  0
   -0.0742   -1.4008    4.0199 Fe  0  0  0  0  0  0  0  0  0  0  0  0
    1.7747    1.3877    3.9739 P   0  0  0  0  0  0  0  0  0  0  0  0
   -0.1120    2.8012    0.9205 O   0  0  0  0  0  0  0  0  0  0  0  0
   -0.9503    5.1717    4.0681 B   0  0  0  0  0  0  0  0  0  0  0  0
   -0.2678    6.0587    2.8525 B   0  0  0  0  0  0  0  0  0  0  0  0
    1.5208   -0.2993    4.5764 C   0  0  0  0  0  0  0  0  0  0  0  0
    1.9610   -1.5858    4.1147 C   0  0  0  0  0  0  0  0  0  0  0  0
    1.3484   -2.5787    4.9075 C   0  0  0  0  0  0  0  0  0  0  0  0
    0.5659   -1.9463    5.8883 C   0  0  0  0  0  0  0  0  0  0  0  0
    0.6657   -0.5502    5.7032 C   0  0  0  0  0  0  0  0  0  0  0  0
   -0.0986    2.8548    2.0533 C   0  0  0  0  0  0  0  0  0  0  0  0
    3.2317    1.8957    5.0009 C   0  0  0  0  0  0  0  0  0  0  0  0
    4.3770    1.1226    4.9621 C   0  0  0  0  0  0  0  0  0  0  0  0
    5.4700    1.4862    5.7500 C   0  0  0  0  0  0  0  0  0  0  0  0
    5.4284    2.5582    6.5749 C   0  0  0  0  0  0  0  0  0  0  0  0
    4.3069    3.3218    6.6119 C   0  0  0  0  0  0  0  0  0  0  0  0
    3.2059    3.0056    5.8304 C   0  0  0  0  0  0  0  0  0  0  0  0
    2.5735    1.2555    2.3253 C   0  0  0  0  0  0  0  0  0  0  0  0
    2.4680    0.1708    1.4597 C   0  0  0  0  0  0  0  0  0  0  0  0
    3.0940    0.1929    0.2283 C   0  0  0  0  0  0  0  0  0  0  0  0
    3.8090    1.3044   -0.1704 C   0  0  0  0  0  0  0  0  0  0  0  0
    3.8928    2.3906    0.6544 C   0  0  0  0  0  0  0  0  0  0  0  0
    3.2719    2.3748    1.8913 C   0  0  0  0  0  0  0  0  0  0  0  0
    2.5515   -1.7234    3.3767 H   0  0  0  0  0  0  0  0  0  0  0  0
    1.4174   -3.4942    4.7434 H   0  0  0  0  0  0  0  0  0  0  0  0
    0.0650   -2.2926    6.4961 H   0  0  0  0  0  0  0  0  0  0  0  0
    0.2426    0.0791    6.1681 H   0  0  0  0  0  0  0  0  0  0  0  0
    4.4202    0.4427    4.4058 H   0  0  0  0  0  0  0  0  0  0  0  0
    6.0463    0.9012    5.7082 H   0  0  0  0  0  0  0  0  0  0  0  0
    6.1258    2.7353    7.1232 H   0  0  0  0  0  0  0  0  0  0  0  0
    4.2774    3.9211    7.1393 H   0  0  0  0  0  0  0  0  0  0  0  0
    2.4533    3.5416    5.8368 H   0  0  0  0  0  0  0  0  0  0  0  0
    1.9755   -0.5866    1.6819 H   0  0  0  0  0  0  0  0  0  0  0  0
    2.9902   -0.5692   -0.3698 H   0  0  0  0  0  0  0  0  0  0  0  0
    4.1767    1.3281   -0.9969 H   0  0  0  0  0  0  0  0  0  0  0  0
    4.3228    3.1622    0.3859 H   0  0  0  0  0  0  0  0  0  0  0  0
    3.3214    3.0989    2.4280 H   0  0  0  0  0  0  0  0  0  0  0  0
   -1.4747    4.0792    4.0858 H   0  0  0  0  0  0  0  0  0  0  0  0
   -1.4106    5.6128    4.9042 H   0  0  0  0  0  0  0  0  0  0  0  0
   -1.4448    5.5970    3.1837 H   0  0  0  0  0  0  0  0  0  0  0  0
   -0.1994    7.0200    3.6500 H   0  0  0  0  0  0  0  0  0  0  0  0
   -0.2424    5.5970    1.6883 H   0  0  0  0  0  0  0  0  0  0  0  0
   -1.6691   -0.2993    3.4634 C   0  0  0  0  0  0  0  0  0  0  0  0
   -1.9230    1.3877    4.0659 P   0  0  0  0  0  0  0  0  0  0  0  0
    0.8019    5.1717    3.9716 B   0  0  0  0  0  0  0  0  0  0  0  0
   -0.0497    2.8548    5.9864 C   0  0  0  0  0  0  0  0  0  0  0  0
   -0.0363    2.8012    7.1192 O   0  0  0  0  0  0  0  0  0  0  0  0
    0.1195    6.0587    5.1872 B   0  0  0  0  0  0  0  0  0  0  0  0
    0.0510    7.0200    4.3897 H   0  0  0  0  0  0  0  0  0  0  0  0
    1.2965    5.5970    4.8560 H   0  0  0  0  0  0  0  0  0  0  0  0
    1.3263    4.0792    3.9539 H   0  0  0  0  0  0  0  0  0  0  0  0
    1.2622    5.6128    3.1355 H   0  0  0  0  0  0  0  0  0  0  0  0
    0.0940    5.5970    6.3514 H   0  0  0  0  0  0  0  0  0  0  0  0
   -3.3801    1.8957    3.0389 C   0  0  0  0  0  0  0  0  0  0  0  0
   -4.5253    1.1226    3.0776 C   0  0  0  0  0  0  0  0  0  0  0  0
   -5.6183    1.4862    2.2897 C   0  0  0  0  0  0  0  0  0  0  0  0
   -5.5767    2.5582    1.4648 C   0  0  0  0  0  0  0  0  0  0  0  0
   -4.4552    3.3218    1.4279 C   0  0  0  0  0  0  0  0  0  0  0  0
   -3.3542    3.0056    2.2093 C   0  0  0  0  0  0  0  0  0  0  0  0
   -2.6016    3.5416    2.2029 H   0  0  0  0  0  0  0  0  0  0  0  0
   -4.4257    3.9211    0.9004 H   0  0  0  0  0  0  0  0  0  0  0  0
   -6.2741    2.7353    0.9165 H   0  0  0  0  0  0  0  0  0  0  0  0
   -6.1946    0.9012    2.3315 H   0  0  0  0  0  0  0  0  0  0  0  0
   -4.5686    0.4427    3.6340 H   0  0  0  0  0  0  0  0  0  0  0  0
   -2.7219    1.2555    5.7145 C   0  0  0  0  0  0  0  0  0  0  0  0
   -2.6164    0.1708    6.5800 C   0  0  0  0  0  0  0  0  0  0  0  0
   -3.2424    0.1929    7.8114 C   0  0  0  0  0  0  0  0  0  0  0  0
   -3.9573    1.3044    8.2102 C   0  0  0  0  0  0  0  0  0  0  0  0
   -4.0411    2.3906    7.3853 C   0  0  0  0  0  0  0  0  0  0  0  0
   -3.4203    2.3748    6.1485 C   0  0  0  0  0  0  0  0  0  0  0  0
   -3.4698    3.0989    5.6117 H   0  0  0  0  0  0  0  0  0  0  0  0
   -4.4711    3.1622    7.6538 H   0  0  0  0  0  0  0  0  0  0  0  0
   -4.3250    1.3281    9.0367 H   0  0  0  0  0  0  0  0  0  0  0  0
   -3.1386   -0.5692    8.4096 H   0  0  0  0  0  0  0  0  0  0  0  0
   -2.1238   -0.5866    6.3578 H   0  0  0  0  0  0  0  0  0  0  0  0
   -2.1093   -1.5858    3.9250 C   0  0  0  0  0  0  0  0  0  0  0  0
   -1.4967   -2.5787    3.1323 C   0  0  0  0  0  0  0  0  0  0  0  0
   -2.6998   -1.7234    4.6630 H   0  0  0  0  0  0  0  0  0  0  0  0
   -0.7143   -1.9463    2.1514 C   0  0  0  0  0  0  0  0  0  0  0  0
   -0.8140   -0.5502    2.3365 C   0  0  0  0  0  0  0  0  0  0  0  0
   -0.2133   -2.2926    1.5436 H   0  0  0  0  0  0  0  0  0  0  0  0
   -0.3910    0.0791    1.8716 H   0  0  0  0  0  0  0  0  0  0  0  0
   -1.5657   -3.4942    3.2963 H   0  0  0  0  0  0  0  0  0  0  0  0
  1  3  1  0  0  0  0
  2  7  1  0  0  0  0
  3  7  1  0  0  0  0
  4 12  1  0  0  0  0
  5  1  1  0  0  0  0
  6  5  1  0  0  0  0
  7  8  1  0  0  0  0
  8  2  1  0  0  0  0
  9  2  1  0  0  0  0
 10  2  1  0  0  0  0
 11  2  1  0  0  0  0
 12  1  1  0  0  0  0
 13  3  1  0  0  0  0
 14 13  1  0  0  0  0
 15 14  1  0  0  0  0
 16 15  1  0  0  0  0
 17 16  1  0  0  0  0
 18 13  1  0  0  0  0
 19  3  1  0  0  0  0
 20 19  1  0  0  0  0
 21 20  1  0  0  0  0
 22 21  1  0  0  0  0
 23 22  1  0  0  0  0
 24 19  1  0  0  0  0
 25  8  1  0  0  0  0
 26  9  1  0  0  0  0
 27 10  1  0  0  0  0
 28 11  1  0  0  0  0
 29 14  1  0  0  0  0
 30 15  1  0  0  0  0
 31 16  1  0  0  0  0
 32 17  1  0  0  0  0
 33 18  1  0  0  0  0
 34 20  1  0  0  0  0
 35 21  1  0  0  0  0
 36 22  1  0  0  0  0
 37 23  1  0  0  0  0
 38 24  1  0  0  0  0
 39  1  1  0  0  0  0
 40  5  1  0  0  0  0
 41  5  1  0  0  0  0
 42  6  1  0  0  0  0
 43  6  1  0  0  0  0
 44  2  1  0  0  0  0
 45  1  1  0  0  0  0
 46  1  1  0  0  0  0
 47  1  1  0  0  0  0
 48 47  1  0  0  0  0
 49  5  1  0  0  0  0
 50 42  1  0  0  0  0
 51 46  1  0  0  0  0
 52  1  1  0  0  0  0
 53 46  1  0  0  0  0
 54 49  1  0  0  0  0
 55 45  1  0  0  0  0
 56 55  1  0  0  0  0
 57 56  1  0  0  0  0
 58 57  1  0  0  0  0
 59 58  1  0  0  0  0
 60 55  1  0  0  0  0
 61 60  1  0  0  0  0
 62 59  1  0  0  0  0
 63 58  1  0  0  0  0
 64 57  1  0  0  0  0
 65 56  1  0  0  0  0
 66 45  1  0  0  0  0
 67 66  1  0  0  0  0
 68 67  1  0  0  0  0
 69 68  1  0  0  0  0
 70 69  1  0  0  0  0
 71 66  1  0  0  0  0
 72 71  1  0  0  0  0
 73 70  1  0  0  0  0
 74 69  1  0  0  0  0
 75 68  1  0  0  0  0
 76 67  1  0  0  0  0
 77  2  1  0  0  0  0
 78  2  1  0  0  0  0
 79 77  1  0  0  0  0
 80  2  1  0  0  0  0
 81  2  1  0  0  0  0
 82 80  1  0  0  0  0
 83 81  1  0  0  0  0
 84 78  1  0  0  0  0
  5 39  1  0  0  0  0
  5 46  1  0  0  0  0
  6 41  1  0  0  0  0
  6 46  1  0  0  0  0
  7 11  1  0  0  0  0
  8  9  1  0  0  0  0
  9 10  1  0  0  0  0
 10 11  1  0  0  0  0
 17 18  1  0  0  0  0
 23 24  1  0  0  0  0
 44 45  1  0  0  0  0
 44 77  1  0  0  0  0
 44 81  1  0  0  0  0
 46 49  1  0  0  0  0
 46 52  1  0  0  0  0
 49 50  1  0  0  0  0
 49 51  1  0  0  0  0
 59 60  1  0  0  0  0
 70 71  1  0  0  0  0
 77 78  1  0  0  0  0
 78 80  1  0  0  0  0
 80 81  1  0  0  0  0
M  END
$$$$
UMAPOQ

From CSD data. Using bond type 'Any'. No disordered atoms. Largest molecule.
119124  0  0  0  0  0  0  0  0999 V2000
    4.7832    7.0569    5.9958 Li  0  0  0  0  0  0  0  0  0  0  0  0
    7.2144    6.0702    6.8279 P   0  0  0  0  0  0  0  0  0  0  0  0
    5.7644    4.8279    7.1928 B   0  0  0  0  0  0  0  0  0  0  0  0
    6.1648    3.6742    7.0454 H   0  0  0  0  0  0  0  0  0  0  0  0
    4.8282    5.0489    6.4163 H   0  0  0  0  0  0  0  0  0  0  0  0
    5.3768    4.9718    8.3574 H   0  0  0  0  0  0  0  0  0  0  0  0
    8.5462    5.7131    8.0698 C   0  0  0  0  0  0  0  0  0  0  0  0
    9.3562    6.2127    7.8325 H   0  0  0  0  0  0  0  0  0  0  0  0
    8.7446    4.7530    8.0694 H   0  0  0  0  0  0  0  0  0  0  0  0
    8.2447    5.9843    8.9610 H   0  0  0  0  0  0  0  0  0  0  0  0
    7.8961    5.4664    5.2643 C   0  0  0  0  0  0  0  0  0  0  0  0
    7.6355    4.5320    5.1313 H   0  0  0  0  0  0  0  0  0  0  0  0
    8.8755    5.5315    5.2878 H   0  0  0  0  0  0  0  0  0  0  0  0
    7.5527    6.0108    4.5252 H   0  0  0  0  0  0  0  0  0  0  0  0
    6.7963    7.7956    6.6967 C   0  0  0  0  0  0  0  0  0  0  0  0
    7.9708    8.7796    5.6741 Si  0  0  0  0  0  0  0  0  0  0  0  0
    7.8267    8.5779    3.9019 C   0  0  0  0  0  0  0  0  0  0  0  0
    8.3941    7.8334    3.6117 H   0  0  0  0  0  0  0  0  0  0  0  0
    8.1147    9.4014    3.4559 H   0  0  0  0  0  0  0  0  0  0  0  0
    6.8943    8.3886    3.6699 H   0  0  0  0  0  0  0  0  0  0  0  0
    9.7743    8.5317    6.1054 C   0  0  0  0  0  0  0  0  0  0  0  0
    9.8931    8.6247    7.0732 H   0  0  0  0  0  0  0  0  0  0  0  0
   10.3145    9.2046    5.6424 H   0  0  0  0  0  0  0  0  0  0  0  0
   10.0551    7.6360    5.8253 H   0  0  0  0  0  0  0  0  0  0  0  0
    7.6946   10.6977    5.8466 C   0  0  0  0  0  0  0  0  0  0  0  0
    6.8486   10.9453    5.4169 H   0  0  0  0  0  0  0  0  0  0  0  0
    8.4325   11.1745    5.4151 H   0  0  0  0  0  0  0  0  0  0  0  0
    7.6596   10.9386    6.7965 H   0  0  0  0  0  0  0  0  0  0  0  0
    6.2857    8.6152    8.2783 Si  0  0  0  0  0  0  0  0  0  0  0  0
    5.3508    7.5283    9.4466 C   0  0  0  0  0  0  0  0  0  0  0  0
    4.5006    7.2663    9.0392 H   0  0  0  0  0  0  0  0  0  0  0  0
    5.1807    8.0150   10.2793 H   0  0  0  0  0  0  0  0  0  0  0  0
    5.8820    6.7263    9.6402 H   0  0  0  0  0  0  0  0  0  0  0  0
    7.7354    9.2408    9.2974 C   0  0  0  0  0  0  0  0  0  0  0  0
    8.2596    8.4798    9.6215 H   0  0  0  0  0  0  0  0  0  0  0  0
    7.3984    9.7547   10.0620 H   0  0  0  0  0  0  0  0  0  0  0  0
    8.3010    9.8161    8.7420 H   0  0  0  0  0  0  0  0  0  0  0  0
    5.1546   10.1864    8.0123 C   0  0  0  0  0  0  0  0  0  0  0  0
    4.5755   10.2589    8.8117 H   0  0  0  0  0  0  0  0  0  0  0  0
    5.7548   10.9742    8.0251 H   0  0  0  0  0  0  0  0  0  0  0  0
    4.2044   10.3495    6.7363 C   0  0  0  0  0  0  0  0  0  0  0  0
    4.7175   10.0744    5.9354 H   0  0  0  0  0  0  0  0  0  0  0  0
    3.9941   11.3119    6.6330 H   0  0  0  0  0  0  0  0  0  0  0  0
    2.5639    9.3860    6.7434 Si  0  0  0  0  0  0  0  0  0  0  0  0
    1.2532   10.5898    5.9347 C   0  0  0  0  0  0  0  0  0  0  0  0
    0.8887   11.1848    6.6230 H   0  0  0  0  0  0  0  0  0  0  0  0
    0.5292   10.0647    5.5380 H   0  0  0  0  0  0  0  0  0  0  0  0
    1.6895   11.1254    5.2386 H   0  0  0  0  0  0  0  0  0  0  0  0
    2.0154    9.2023    8.5030 C   0  0  0  0  0  0  0  0  0  0  0  0
    2.6818    8.6831    8.9994 H   0  0  0  0  0  0  0  0  0  0  0  0
    1.1533    8.7380    8.5287 H   0  0  0  0  0  0  0  0  0  0  0  0
    1.9221   10.0888    8.9098 H   0  0  0  0  0  0  0  0  0  0  0  0
    2.6956    7.7879    5.7999 C   0  0  0  0  0  0  0  0  0  0  0  0
    1.5569    6.4068    6.4074 Si  0  0  0  0  0  0  0  0  0  0  0  0
    1.8972    5.8595    8.1310 C   0  0  0  0  0  0  0  0  0  0  0  0
    2.8099    5.5029    8.1848 H   0  0  0  0  0  0  0  0  0  0  0  0
    1.2590    5.1628    8.3849 H   0  0  0  0  0  0  0  0  0  0  0  0
    1.8101    6.6228    8.7393 H   0  0  0  0  0  0  0  0  0  0  0  0
   -0.2246    6.8757    6.3265 C   0  0  0  0  0  0  0  0  0  0  0  0
   -0.3627    7.7168    6.8105 H   0  0  0  0  0  0  0  0  0  0  0  0
   -0.7662    6.1699    6.7372 H   0  0  0  0  0  0  0  0  0  0  0  0
   -0.4895    6.9893    5.3907 H   0  0  0  0  0  0  0  0  0  0  0  0
    1.6277    4.8510    5.3739 C   0  0  0  0  0  0  0  0  0  0  0  0
    1.4062    5.0664    4.4438 H   0  0  0  0  0  0  0  0  0  0  0  0
    0.9856    4.1982    5.7206 H   0  0  0  0  0  0  0  0  0  0  0  0
    2.5320    4.4734    5.4143 H   0  0  0  0  0  0  0  0  0  0  0  0
    2.8774    7.8649    4.0960 P   0  0  0  0  0  0  0  0  0  0  0  0
    1.3067    7.9035    3.1704 C   0  0  0  0  0  0  0  0  0  0  0  0
    0.7835    7.1009    3.3804 H   0  0  0  0  0  0  0  0  0  0  0  0
    1.4930    7.9292    2.2093 H   0  0  0  0  0  0  0  0  0  0  0  0
    0.7960    8.7005    3.4260 H   0  0  0  0  0  0  0  0  0  0  0  0
    3.6360    9.4618    3.5532 C   0  0  0  0  0  0  0  0  0  0  0  0
    3.1257   10.2104    3.9246 H   0  0  0  0  0  0  0  0  0  0  0  0
    3.6269    9.5129    2.5743 H   0  0  0  0  0  0  0  0  0  0  0  0
    4.5630    9.5085    3.8723 H   0  0  0  0  0  0  0  0  0  0  0  0
    4.0557    6.5443    3.3771 B   0  0  0  0  0  0  0  0  0  0  0  0
    4.2624    6.7704    2.2826 H   0  0  0  0  0  0  0  0  0  0  0  0
    3.5747    5.5114    3.4688 H   0  0  0  0  0  0  0  0  0  0  0  0
    5.0270    6.5648    3.9540 H   0  0  0  0  0  0  0  0  0  0  0  0
    4.6517    4.5607    1.9591 Li  0  0  0  0  0  0  0  0  0  0  0  0
    6.3337    4.8613    1.3749 O   0  0  0  0  0  0  0  0  0  0  0  0
    6.8887    6.0882    0.9238 C   0  0  0  0  0  0  0  0  0  0  0  0
    7.3929    6.5254    1.6546 H   0  0  0  0  0  0  0  0  0  0  0  0
    6.1693    6.7019    0.6279 H   0  0  0  0  0  0  0  0  0  0  0  0
    7.7992    5.7747   -0.2157 C   0  0  0  0  0  0  0  0  0  0  0  0
    7.3074    5.8109   -1.0743 H   0  0  0  0  0  0  0  0  0  0  0  0
    8.5488    6.4188   -0.2500 H   0  0  0  0  0  0  0  0  0  0  0  0
    8.2754    4.4708    0.0288 C   0  0  0  0  0  0  0  0  0  0  0  0
    9.1901    4.4983    0.4044 H   0  0  0  0  0  0  0  0  0  0  0  0
    8.2903    3.9426   -0.8091 H   0  0  0  0  0  0  0  0  0  0  0  0
    7.3037    3.8631    1.0281 C   0  0  0  0  0  0  0  0  0  0  0  0
    6.8520    3.0769    0.6283 H   0  0  0  0  0  0  0  0  0  0  0  0
    7.7886    3.5666    1.8374 H   0  0  0  0  0  0  0  0  0  0  0  0
    3.3246    4.3821    0.6578 O   0  0  0  0  0  0  0  0  0  0  0  0
    1.9554    4.5761    0.7405 C   0  0  0  0  0  0  0  0  0  0  0  0
    1.7445    5.1377    1.5277 H   0  0  0  0  0  0  0  0  0  0  0  0
    1.5013    3.7036    0.8528 H   0  0  0  0  0  0  0  0  0  0  0  0
    1.4779    5.2172   -0.4511 C   0  0  0  0  0  0  0  0  0  0  0  0
    0.5636    4.9058   -0.6701 H   0  0  0  0  0  0  0  0  0  0  0  0
    1.4573    6.2001   -0.3315 H   0  0  0  0  0  0  0  0  0  0  0  0
    2.3727    4.8652   -1.4630 C   0  0  0  0  0  0  0  0  0  0  0  0
    2.4933    5.6139   -2.0994 H   0  0  0  0  0  0  0  0  0  0  0  0
    2.0432    4.0744   -1.9609 H   0  0  0  0  0  0  0  0  0  0  0  0
    3.6169    4.5620   -0.7836 C   0  0  0  0  0  0  0  0  0  0  0  0
    4.2621    5.3025   -0.9104 H   0  0  0  0  0  0  0  0  0  0  0  0
    4.0145    3.7348   -1.1556 H   0  0  0  0  0  0  0  0  0  0  0  0
    4.7106    2.7942    2.9134 O   0  0  0  0  0  0  0  0  0  0  0  0
    3.7497    1.7677    2.7391 C   0  0  0  0  0  0  0  0  0  0  0  0
    3.7927    1.4082    1.8185 H   0  0  0  0  0  0  0  0  0  0  0  0
    2.8389    2.1198    2.8999 H   0  0  0  0  0  0  0  0  0  0  0  0
    4.0816    0.6912    3.7402 C   0  0  0  0  0  0  0  0  0  0  0  0
    3.2869    0.4674    4.2870 H   0  0  0  0  0  0  0  0  0  0  0  0
    4.3933   -0.1280    3.2805 H   0  0  0  0  0  0  0  0  0  0  0  0
    5.1216    1.2423    4.5579 C   0  0  0  0  0  0  0  0  0  0  0  0
    4.7854    1.3993    5.4753 H   0  0  0  0  0  0  0  0  0  0  0  0
    5.8844    0.6139    4.6060 H   0  0  0  0  0  0  0  0  0  0  0  0
    5.5269    2.4499    3.9792 C   0  0  0  0  0  0  0  0  0  0  0  0
    5.4965    3.1674    4.6610 H   0  0  0  0  0  0  0  0  0  0  0  0
    6.4620    2.3663    3.6649 H   0  0  0  0  0  0  0  0  0  0  0  0
  1  5  1  0  0  0  0
  2  3  1  0  0  0  0
  3  4  1  0  0  0  0
  5  3  1  0  0  0  0
  6  3  1  0  0  0  0
  7  2  1  0  0  0  0
  8  7  1  0  0  0  0
  9  7  1  0  0  0  0
 10  7  1  0  0  0  0
 11  2  1  0  0  0  0
 12 11  1  0  0  0  0
 13 11  1  0  0  0  0
 14 11  1  0  0  0  0
 15  1  1  0  0  0  0
 16 15  1  0  0  0  0
 17 16  1  0  0  0  0
 18 17  1  0  0  0  0
 19 17  1  0  0  0  0
 20 17  1  0  0  0  0
 21 16  1  0  0  0  0
 22 21  1  0  0  0  0
 23 21  1  0  0  0  0
 24 21  1  0  0  0  0
 25 16  1  0  0  0  0
 26 25  1  0  0  0  0
 27 25  1  0  0  0  0
 28 25  1  0  0  0  0
 29 15  1  0  0  0  0
 30 29  1  0  0  0  0
 31 30  1  0  0  0  0
 32 30  1  0  0  0  0
 33 30  1  0  0  0  0
 34 29  1  0  0  0  0
 35 34  1  0  0  0  0
 36 34  1  0  0  0  0
 37 34  1  0  0  0  0
 38 29  1  0  0  0  0
 39 38  1  0  0  0  0
 40 38  1  0  0  0  0
 41 38  1  0  0  0  0
 42 41  1  0  0  0  0
 43 41  1  0  0  0  0
 44 41  1  0  0  0  0
 45 44  1  0  0  0  0
 46 45  1  0  0  0  0
 47 45  1  0  0  0  0
 48 45  1  0  0  0  0
 49 44  1  0  0  0  0
 50 49  1  0  0  0  0
 51 49  1  0  0  0  0
 52 49  1  0  0  0  0
 53  1  1  0  0  0  0
 54 53  1  0  0  0  0
 55 54  1  0  0  0  0
 56 55  1  0  0  0  0
 57 55  1  0  0  0  0
 58 55  1  0  0  0  0
 59 54  1  0  0  0  0
 60 59  1  0  0  0  0
 61 59  1  0  0  0  0
 62 59  1  0  0  0  0
 63 54  1  0  0  0  0
 64 63  1  0  0  0  0
 65 63  1  0  0  0  0
 66 63  1  0  0  0  0
 67 53  1  0  0  0  0
 68 67  1  0  0  0  0
 69 68  1  0  0  0  0
 70 68  1  0  0  0  0
 71 68  1  0  0  0  0
 72 67  1  0  0  0  0
 73 72  1  0  0  0  0
 74 72  1  0  0  0  0
 75 72  1  0  0  0  0
 76 67  1  0  0  0  0
 77 76  1  0  0  0  0
 78 76  1  0  0  0  0
 79  1  1  0  0  0  0
 80 78  1  0  0  0  0
 81 80  1  0  0  0  0
 82 81  1  0  0  0  0
 83 82  1  0  0  0  0
 84 82  1  0  0  0  0
 85 82  1  0  0  0  0
 86 85  1  0  0  0  0
 87 85  1  0  0  0  0
 88 85  1  0  0  0  0
 89 88  1  0  0  0  0
 90 88  1  0  0  0  0
 91 81  1  0  0  0  0
 92 91  1  0  0  0  0
 93 91  1  0  0  0  0
 94 80  1  0  0  0  0
 95 94  1  0  0  0  0
 96 95  1  0  0  0  0
 97 95  1  0  0  0  0
 98 95  1  0  0  0  0
 99 98  1  0  0  0  0
100 98  1  0  0  0  0
101 98  1  0  0  0  0
102101  1  0  0  0  0
103101  1  0  0  0  0
104 94  1  0  0  0  0
105104  1  0  0  0  0
106104  1  0  0  0  0
107 80  1  0  0  0  0
108107  1  0  0  0  0
109108  1  0  0  0  0
110108  1  0  0  0  0
111108  1  0  0  0  0
112111  1  0  0  0  0
113111  1  0  0  0  0
114111  1  0  0  0  0
115114  1  0  0  0  0
116114  1  0  0  0  0
117107  1  0  0  0  0
118117  1  0  0  0  0
119117  1  0  0  0  0
  2 15  1  0  0  0  0
 44 53  1  0  0  0  0
 76 79  1  0  0  0  0
 88 91  1  0  0  0  0
101104  1  0  0  0  0
114117  1  0  0  0  0
M  END
$$$$
UNOHAJ

From CSD data. Using bond type 'Any'. Matching problem. No disordered atoms. Largest molecule.
230250  0  0  0  0  0  0  0  0999 V2000
    5.9517    6.8985    9.1156 U   0  0  0  0  0  0  0  0  0  0  0  0
    4.9570    5.5236    7.7418 O   0  0  0  0  0  0  0  0  0  0  0  0
    7.8612    5.8775    8.7079 O   0  0  0  0  0  0  0  0  0  0  0  0
    5.7037    6.6660   11.6863 C   0  0  0  0  0  0  0  0  0  0  0  0
    6.2739    6.1334   12.2279 H   0  0  0  0  0  0  0  0  0  0  0  0
    3.6221    6.8840   10.2779 C   0  0  0  0  0  0  0  0  0  0  0  0
    4.5127    6.0836   11.0907 C   0  0  0  0  0  0  0  0  0  0  0  0
    4.3175    5.1649   11.2354 H   0  0  0  0  0  0  0  0  0  0  0  0
    4.3788    2.7312    9.0000 C   0  0  0  0  0  0  0  0  0  0  0  0
    9.2086    5.5146    5.9007 C   0  0  0  0  0  0  0  0  0  0  0  0
    5.8733    2.9582    9.0217 C   0  0  0  0  0  0  0  0  0  0  0  0
    6.1808    3.1921    8.1206 H   0  0  0  0  0  0  0  0  0  0  0  0
    6.3234    2.1410    9.3189 H   0  0  0  0  0  0  0  0  0  0  0  0
    6.0830    3.6906    9.6382 H   0  0  0  0  0  0  0  0  0  0  0  0
    3.5435    3.4599    8.1480 C   0  0  0  0  0  0  0  0  0  0  0  0
    7.7695    5.0263    5.7160 C   0  0  0  0  0  0  0  0  0  0  0  0
    7.6687    4.1432    6.1301 H   0  0  0  0  0  0  0  0  0  0  0  0
    7.5655    4.9636    4.7599 H   0  0  0  0  0  0  0  0  0  0  0  0
    7.1533    5.6583    6.1414 H   0  0  0  0  0  0  0  0  0  0  0  0
    3.8601    3.6525    4.8292 C   0  0  0  0  0  0  0  0  0  0  0  0
    2.1556    3.1598    8.1849 C   0  0  0  0  0  0  0  0  0  0  0  0
    3.3356    3.6824    3.5470 C   0  0  0  0  0  0  0  0  0  0  0  0
    3.4540    2.9251    2.9867 H   0  0  0  0  0  0  0  0  0  0  0  0
    9.8270    5.5221    7.1613 C   0  0  0  0  0  0  0  0  0  0  0  0
   11.2470    6.3150    4.8379 C   0  0  0  0  0  0  0  0  0  0  0  0
    9.5400    4.1961    9.5976 C   0  0  0  0  0  0  0  0  0  0  0  0
    3.0013    5.8715    5.1857 C   0  0  0  0  0  0  0  0  0  0  0  0
    3.6681    4.7381    5.6943 C   0  0  0  0  0  0  0  0  0  0  0  0
    9.8114    4.6202   10.9191 C   0  0  0  0  0  0  0  0  0  0  0  0
    1.6739    2.2026    9.0608 C   0  0  0  0  0  0  0  0  0  0  0  0
    0.7396    2.0284    9.0781 H   0  0  0  0  0  0  0  0  0  0  0  0
   11.1947    5.8865    7.2243 C   0  0  0  0  0  0  0  0  0  0  0  0
    2.4890    1.4992    9.8976 C   0  0  0  0  0  0  0  0  0  0  0  0
    1.1750    3.8855    7.3026 C   0  0  0  0  0  0  0  0  0  0  0  0
    1.2304    4.8485    7.4751 H   0  0  0  0  0  0  0  0  0  0  0  0
    0.2673    3.5706    7.4935 H   0  0  0  0  0  0  0  0  0  0  0  0
    1.3902    3.7100    6.3619 H   0  0  0  0  0  0  0  0  0  0  0  0
    4.6551    2.4385    5.2509 C   0  0  0  0  0  0  0  0  0  0  0  0
    4.1818    1.9706    5.9697 H   0  0  0  0  0  0  0  0  0  0  0  0
    5.5375    2.7217    5.5711 H   0  0  0  0  0  0  0  0  0  0  0  0
    4.7635    1.8375    4.4847 H   0  0  0  0  0  0  0  0  0  0  0  0
    2.6452    4.7725    3.0579 C   0  0  0  0  0  0  0  0  0  0  0  0
    3.8432    1.7710    9.8454 C   0  0  0  0  0  0  0  0  0  0  0  0
    4.4297    1.2810   10.4092 H   0  0  0  0  0  0  0  0  0  0  0  0
    2.7158    7.0632    6.0550 C   0  0  0  0  0  0  0  0  0  0  0  0
    1.9280    6.8824    6.6085 H   0  0  0  0  0  0  0  0  0  0  0  0
    2.5455    7.8464    5.4902 H   0  0  0  0  0  0  0  0  0  0  0  0
    3.4879    7.2391    6.6322 H   0  0  0  0  0  0  0  0  0  0  0  0
    2.5125    5.8641    3.8686 C   0  0  0  0  0  0  0  0  0  0  0  0
    2.0755    6.6393    3.5343 H   0  0  0  0  0  0  0  0  0  0  0  0
    8.9985    5.2100    8.5044 B   0  0  0  0  0  0  0  0  0  0  0  0
    9.5564    6.0358   11.3537 C   0  0  0  0  0  0  0  0  0  0  0  0
    9.9110    6.6538   10.6798 H   0  0  0  0  0  0  0  0  0  0  0  0
    9.9987    6.1997   12.2118 H   0  0  0  0  0  0  0  0  0  0  0  0
    8.5913    6.1788   11.4504 H   0  0  0  0  0  0  0  0  0  0  0  0
    9.9259    5.9238    4.7706 C   0  0  0  0  0  0  0  0  0  0  0  0
    9.4883    5.9332    3.9273 H   0  0  0  0  0  0  0  0  0  0  0  0
    2.0613    4.7665    1.6539 C   0  0  0  0  0  0  0  0  0  0  0  0
    2.7888    4.7594    0.9970 H   0  0  0  0  0  0  0  0  0  0  0  0
    1.5134    5.5692    1.5248 H   0  0  0  0  0  0  0  0  0  0  0  0
    1.5054    3.9689    1.5346 H   0  0  0  0  0  0  0  0  0  0  0  0
    9.7943    2.8432    9.2825 C   0  0  0  0  0  0  0  0  0  0  0  0
   11.9577    5.8895    8.5349 C   0  0  0  0  0  0  0  0  0  0  0  0
   11.4583    6.4045    9.2020 H   0  0  0  0  0  0  0  0  0  0  0  0
   12.8384    6.2966    8.3990 H   0  0  0  0  0  0  0  0  0  0  0  0
   12.0687    4.9677    8.8494 H   0  0  0  0  0  0  0  0  0  0  0  0
   10.3436    3.7272   11.8427 C   0  0  0  0  0  0  0  0  0  0  0  0
   10.5465    4.0375   12.7170 H   0  0  0  0  0  0  0  0  0  0  0  0
    4.1112    4.6306    7.2265 B   0  0  0  0  0  0  0  0  0  0  0  0
   11.8560    6.2717    6.0681 C   0  0  0  0  0  0  0  0  0  0  0  0
   12.7717    6.5167    6.1309 H   0  0  0  0  0  0  0  0  0  0  0  0
   11.9985    6.7361    3.5969 C   0  0  0  0  0  0  0  0  0  0  0  0
   11.9112    6.0427    2.9102 H   0  0  0  0  0  0  0  0  0  0  0  0
   12.9459    6.8625    3.8149 H   0  0  0  0  0  0  0  0  0  0  0  0
   11.6266    7.5783    3.2597 H   0  0  0  0  0  0  0  0  0  0  0  0
   10.5860    2.4146   11.5341 C   0  0  0  0  0  0  0  0  0  0  0  0
   10.3058    1.9905   10.2627 C   0  0  0  0  0  0  0  0  0  0  0  0
   10.4655    1.0817   10.0385 H   0  0  0  0  0  0  0  0  0  0  0  0
    9.4743    2.3071    7.9002 C   0  0  0  0  0  0  0  0  0  0  0  0
    8.5155    2.4083    7.7238 H   0  0  0  0  0  0  0  0  0  0  0  0
    9.7174    1.3594    7.8520 H   0  0  0  0  0  0  0  0  0  0  0  0
    9.9836    2.8091    7.2288 H   0  0  0  0  0  0  0  0  0  0  0  0
    1.9052    0.5032   10.8647 C   0  0  0  0  0  0  0  0  0  0  0  0
    1.2826    0.9595   11.4680 H   0  0  0  0  0  0  0  0  0  0  0  0
    2.6257    0.0931   11.3860 H   0  0  0  0  0  0  0  0  0  0  0  0
    1.4258   -0.1924   10.3663 H   0  0  0  0  0  0  0  0  0  0  0  0
   11.1029    1.4739   12.5991 C   0  0  0  0  0  0  0  0  0  0  0  0
   12.0743    1.5741   12.6814 H   0  0  0  0  0  0  0  0  0  0  0  0
   10.8894    0.5500   12.3520 H   0  0  0  0  0  0  0  0  0  0  0  0
   10.6794    1.6880   13.4574 H   0  0  0  0  0  0  0  0  0  0  0  0
    2.3165    6.2971    9.6694 C   0  0  0  0  0  0  0  0  0  0  0  0
    2.2105    6.6219    8.7502 H   0  0  0  0  0  0  0  0  0  0  0  0
    1.5482    6.5824   10.2065 H   0  0  0  0  0  0  0  0  0  0  0  0
    2.3684    5.3190    9.6660 H   0  0  0  0  0  0  0  0  0  0  0  0
    6.0281    8.7786    6.6671 P   0  0  0  0  0  0  0  0  0  0  0  0
    8.1349    9.2066    8.6683 P   0  0  0  0  0  0  0  0  0  0  0  0
    7.7820    9.2822    6.8570 C   0  0  0  0  0  0  0  0  0  0  0  0
    7.9202   10.1999    6.5142 H   0  0  0  0  0  0  0  0  0  0  0  0
    8.3770    8.6645    6.3617 H   0  0  0  0  0  0  0  0  0  0  0  0
    5.1311   10.3409    6.8483 C   0  0  0  0  0  0  0  0  0  0  0  0
    4.1749   10.1882    6.7011 H   0  0  0  0  0  0  0  0  0  0  0  0
    5.4641   10.9873    6.1908 H   0  0  0  0  0  0  0  0  0  0  0  0
    5.2703   10.6946    7.7522 H   0  0  0  0  0  0  0  0  0  0  0  0
    5.8843    8.4235    4.8836 C   0  0  0  0  0  0  0  0  0  0  0  0
    6.4496    7.6554    4.6567 H   0  0  0  0  0  0  0  0  0  0  0  0
    6.1753    9.2058    4.3700 H   0  0  0  0  0  0  0  0  0  0  0  0
    4.9514    8.2179    4.6653 H   0  0  0  0  0  0  0  0  0  0  0  0
    7.9032   10.9277    9.2282 C   0  0  0  0  0  0  0  0  0  0  0  0
    6.9510   11.1591    9.1899 H   0  0  0  0  0  0  0  0  0  0  0  0
    8.4092   11.5325    8.6464 H   0  0  0  0  0  0  0  0  0  0  0  0
    8.2233   11.0181   10.1504 H   0  0  0  0  0  0  0  0  0  0  0  0
    9.9531    9.1209    8.6522 C   0  0  0  0  0  0  0  0  0  0  0  0
   10.2923    9.2200    9.5668 H   0  0  0  0  0  0  0  0  0  0  0  0
   10.3092    9.8400    8.0915 H   0  0  0  0  0  0  0  0  0  0  0  0
   10.2355    8.2540    8.2921 H   0  0  0  0  0  0  0  0  0  0  0  0
    3.9383    8.2667   10.0475 C   0  0  0  0  0  0  0  0  0  0  0  0
    3.3681    8.7993    9.5059 H   0  0  0  0  0  0  0  0  0  0  0  0
    6.0198    8.0487   11.4559 C   0  0  0  0  0  0  0  0  0  0  0  0
    5.1292    8.8491   10.6430 C   0  0  0  0  0  0  0  0  0  0  0  0
    5.3244    9.7678   10.4984 H   0  0  0  0  0  0  0  0  0  0  0  0
    7.3254    8.6356   12.0644 C   0  0  0  0  0  0  0  0  0  0  0  0
    7.4314    8.3108   12.9836 H   0  0  0  0  0  0  0  0  0  0  0  0
    8.0937    8.3503   11.5273 H   0  0  0  0  0  0  0  0  0  0  0  0
    7.2735    9.6137   12.0678 H   0  0  0  0  0  0  0  0  0  0  0  0
    3.6902    8.0342   12.6182 U   0  0  0  0  0  0  0  0  0  0  0  0
    4.6849    9.4091   13.9920 O   0  0  0  0  0  0  0  0  0  0  0  0
    1.7807    9.0552   13.0259 O   0  0  0  0  0  0  0  0  0  0  0  0
    5.2632   12.2015   12.7338 C   0  0  0  0  0  0  0  0  0  0  0  0
    0.4333    9.4181   15.8331 C   0  0  0  0  0  0  0  0  0  0  0  0
    3.7686   11.9745   12.7121 C   0  0  0  0  0  0  0  0  0  0  0  0
    3.4611   11.7406   13.6132 H   0  0  0  0  0  0  0  0  0  0  0  0
    3.3185   12.7917   12.4149 H   0  0  0  0  0  0  0  0  0  0  0  0
    3.5589   11.2421   12.0956 H   0  0  0  0  0  0  0  0  0  0  0  0
    6.0984   11.4728   13.5858 C   0  0  0  0  0  0  0  0  0  0  0  0
    1.8724    9.9064   16.0178 C   0  0  0  0  0  0  0  0  0  0  0  0
    1.9733   10.7895   15.6037 H   0  0  0  0  0  0  0  0  0  0  0  0
    2.0764    9.9691   16.9739 H   0  0  0  0  0  0  0  0  0  0  0  0
    2.4886    9.2744   15.5924 H   0  0  0  0  0  0  0  0  0  0  0  0
    5.7818   11.2802   16.9045 C   0  0  0  0  0  0  0  0  0  0  0  0
    7.4863   11.7729   13.5488 C   0  0  0  0  0  0  0  0  0  0  0  0
    6.3063   11.2503   18.1868 C   0  0  0  0  0  0  0  0  0  0  0  0
    6.1879   12.0076   18.7471 H   0  0  0  0  0  0  0  0  0  0  0  0
   -0.1851    9.4106   14.5725 C   0  0  0  0  0  0  0  0  0  0  0  0
   -1.6051    8.6177   16.8958 C   0  0  0  0  0  0  0  0  0  0  0  0
    0.1020   10.7366   12.1361 C   0  0  0  0  0  0  0  0  0  0  0  0
    6.6406    9.0612   16.5481 C   0  0  0  0  0  0  0  0  0  0  0  0
    5.9738   10.1946   16.0395 C   0  0  0  0  0  0  0  0  0  0  0  0
   -0.1695   10.3125   10.8147 C   0  0  0  0  0  0  0  0  0  0  0  0
    7.9680   12.7301   12.6730 C   0  0  0  0  0  0  0  0  0  0  0  0
    8.9023   12.9043   12.6556 H   0  0  0  0  0  0  0  0  0  0  0  0
   -1.5528    9.0462   14.5095 C   0  0  0  0  0  0  0  0  0  0  0  0
    7.1529   13.4335   11.8362 C   0  0  0  0  0  0  0  0  0  0  0  0
    8.4669   11.0472   14.4312 C   0  0  0  0  0  0  0  0  0  0  0  0
    8.4115   10.0842   14.2587 H   0  0  0  0  0  0  0  0  0  0  0  0
    9.3746   11.3621   14.2403 H   0  0  0  0  0  0  0  0  0  0  0  0
    8.2517   11.2227   15.3719 H   0  0  0  0  0  0  0  0  0  0  0  0
    4.9868   12.4942   16.4829 C   0  0  0  0  0  0  0  0  0  0  0  0
    5.4602   12.9621   15.7641 H   0  0  0  0  0  0  0  0  0  0  0  0
    4.1044   12.2110   16.1627 H   0  0  0  0  0  0  0  0  0  0  0  0
    4.8784   13.0952   17.2490 H   0  0  0  0  0  0  0  0  0  0  0  0
    6.9967   10.1602   18.6758 C   0  0  0  0  0  0  0  0  0  0  0  0
    5.7987   13.1617   11.8884 C   0  0  0  0  0  0  0  0  0  0  0  0
    5.2122   13.6517   11.3246 H   0  0  0  0  0  0  0  0  0  0  0  0
    6.9261    7.8695   15.6788 C   0  0  0  0  0  0  0  0  0  0  0  0
    7.7139    8.0503   15.1253 H   0  0  0  0  0  0  0  0  0  0  0  0
    7.0964    7.0863   16.2435 H   0  0  0  0  0  0  0  0  0  0  0  0
    6.1540    7.6936   15.1016 H   0  0  0  0  0  0  0  0  0  0  0  0
    7.1294    9.0686   17.8652 C   0  0  0  0  0  0  0  0  0  0  0  0
    7.5664    8.2934   18.1995 H   0  0  0  0  0  0  0  0  0  0  0  0
    0.6434    9.7227   13.2294 B   0  0  0  0  0  0  0  0  0  0  0  0
    0.0855    8.8969   10.3801 C   0  0  0  0  0  0  0  0  0  0  0  0
   -0.2691    8.2789   11.0540 H   0  0  0  0  0  0  0  0  0  0  0  0
   -0.3568    8.7330    9.5219 H   0  0  0  0  0  0  0  0  0  0  0  0
    1.0506    8.7539   10.2834 H   0  0  0  0  0  0  0  0  0  0  0  0
   -0.2840    9.0089   16.9632 C   0  0  0  0  0  0  0  0  0  0  0  0
    0.1536    8.9995   17.8065 H   0  0  0  0  0  0  0  0  0  0  0  0
    7.5806   10.1662   20.0798 C   0  0  0  0  0  0  0  0  0  0  0  0
    6.8531   10.1733   20.7368 H   0  0  0  0  0  0  0  0  0  0  0  0
    8.1285    9.3635   20.2090 H   0  0  0  0  0  0  0  0  0  0  0  0
    8.1365   10.9638   20.1991 H   0  0  0  0  0  0  0  0  0  0  0  0
   -0.1523   12.0895   12.4513 C   0  0  0  0  0  0  0  0  0  0  0  0
   -2.3158    9.0432   13.1989 C   0  0  0  0  0  0  0  0  0  0  0  0
   -1.8164    8.5282   12.5318 H   0  0  0  0  0  0  0  0  0  0  0  0
   -3.1965    8.6361   13.3348 H   0  0  0  0  0  0  0  0  0  0  0  0
   -2.4268    9.9650   12.8844 H   0  0  0  0  0  0  0  0  0  0  0  0
   -0.7017   11.2055    9.8910 C   0  0  0  0  0  0  0  0  0  0  0  0
   -0.9046   10.8952    9.0167 H   0  0  0  0  0  0  0  0  0  0  0  0
    5.5307   10.3021   14.5073 B   0  0  0  0  0  0  0  0  0  0  0  0
   -2.2141    8.6610   15.6657 C   0  0  0  0  0  0  0  0  0  0  0  0
   -3.1298    8.4160   15.6029 H   0  0  0  0  0  0  0  0  0  0  0  0
   -2.3566    8.1966   18.1368 C   0  0  0  0  0  0  0  0  0  0  0  0
   -2.2693    8.8900   18.8236 H   0  0  0  0  0  0  0  0  0  0  0  0
   -3.3039    8.0702   17.9189 H   0  0  0  0  0  0  0  0  0  0  0  0
   -1.9847    7.3544   18.4741 H   0  0  0  0  0  0  0  0  0  0  0  0
   -0.9441   12.5181   10.1997 C   0  0  0  0  0  0  0  0  0  0  0  0
   -0.6639   12.9422   11.4711 C   0  0  0  0  0  0  0  0  0  0  0  0
   -0.8236   13.8510   11.6953 H   0  0  0  0  0  0  0  0  0  0  0  0
    0.1677   12.6256   13.8336 C   0  0  0  0  0  0  0  0  0  0  0  0
    1.1264   12.5244   14.0100 H   0  0  0  0  0  0  0  0  0  0  0  0
   -0.0754   13.5733   13.8817 H   0  0  0  0  0  0  0  0  0  0  0  0
   -0.3417   12.1236   14.5050 H   0  0  0  0  0  0  0  0  0  0  0  0
    7.7367   14.4295   10.8691 C   0  0  0  0  0  0  0  0  0  0  0  0
    8.3593   13.9732   10.2658 H   0  0  0  0  0  0  0  0  0  0  0  0
    7.0162   14.8396   10.3477 H   0  0  0  0  0  0  0  0  0  0  0  0
    8.2161   15.1251   11.3675 H   0  0  0  0  0  0  0  0  0  0  0  0
   -1.4609   13.4588    9.1347 C   0  0  0  0  0  0  0  0  0  0  0  0
   -2.4324   13.3586    9.0524 H   0  0  0  0  0  0  0  0  0  0  0  0
   -1.2475   14.3827    9.3818 H   0  0  0  0  0  0  0  0  0  0  0  0
   -1.0375   13.2447    8.2764 H   0  0  0  0  0  0  0  0  0  0  0  0
    3.6138    6.1541   15.0667 P   0  0  0  0  0  0  0  0  0  0  0  0
    1.5070    5.7261   13.0655 P   0  0  0  0  0  0  0  0  0  0  0  0
    1.8599    5.6505   14.8768 C   0  0  0  0  0  0  0  0  0  0  0  0
    1.7217    4.7328   15.2196 H   0  0  0  0  0  0  0  0  0  0  0  0
    1.2649    6.2682   15.3721 H   0  0  0  0  0  0  0  0  0  0  0  0
    4.5108    4.5918   14.8855 C   0  0  0  0  0  0  0  0  0  0  0  0
    5.4671    4.7445   15.0327 H   0  0  0  0  0  0  0  0  0  0  0  0
    4.1778    3.9454   15.5430 H   0  0  0  0  0  0  0  0  0  0  0  0
    4.3716    4.2381   13.9816 H   0  0  0  0  0  0  0  0  0  0  0  0
    3.7576    6.5092   16.8502 C   0  0  0  0  0  0  0  0  0  0  0  0
    3.1923    7.2773   17.0771 H   0  0  0  0  0  0  0  0  0  0  0  0
    3.4666    5.7269   17.3638 H   0  0  0  0  0  0  0  0  0  0  0  0
    4.6905    6.7148   17.0685 H   0  0  0  0  0  0  0  0  0  0  0  0
    1.7387    4.0050   12.5056 C   0  0  0  0  0  0  0  0  0  0  0  0
    2.6909    3.7736   12.5439 H   0  0  0  0  0  0  0  0  0  0  0  0
    1.2327    3.4002   13.0874 H   0  0  0  0  0  0  0  0  0  0  0  0
    1.4186    3.9146   11.5834 H   0  0  0  0  0  0  0  0  0  0  0  0
   -0.3112    5.8118   13.0816 C   0  0  0  0  0  0  0  0  0  0  0  0
   -0.6504    5.7127   12.1670 H   0  0  0  0  0  0  0  0  0  0  0  0
   -0.6673    5.0927   13.6423 H   0  0  0  0  0  0  0  0  0  0  0  0
   -0.5936    6.6787   13.4417 H   0  0  0  0  0  0  0  0  0  0  0  0
  1  2  1  0  0  0  0
  2 69  1  0  0  0  0
  3  1  1  0  0  0  0
  4  1  1  0  0  0  0
  5  4  1  0  0  0  0
  6  1  1  0  0  0  0
  7  1  1  0  0  0  0
  8  7  1  0  0  0  0
  9 11  1  0  0  0  0
 10 16  1  0  0  0  0
 11 12  1  0  0  0  0
 13 11  1  0  0  0  0
 14 11  1  0  0  0  0
 15  9  1  0  0  0  0
 16 17  1  0  0  0  0
 18 16  1  0  0  0  0
 19 16  1  0  0  0  0
 20 22  1  0  0  0  0
 21 15  1  0  0  0  0
 22 23  1  0  0  0  0
 24 10  1  0  0  0  0
 25 56  1  0  0  0  0
 26 29  1  0  0  0  0
 27 28  1  0  0  0  0
 28 20  1  0  0  0  0
 29 52  1  0  0  0  0
 30 21  1  0  0  0  0
 31 30  1  0  0  0  0
 32 24  1  0  0  0  0
 33 30  1  0  0  0  0
 34 21  1  0  0  0  0
 35 34  1  0  0  0  0
 36 34  1  0  0  0  0
 37 34  1  0  0  0  0
 38 20  1  0  0  0  0
 39 38  1  0  0  0  0
 40 38  1  0  0  0  0
 41 38  1  0  0  0  0
 42 22  1  0  0  0  0
 43  9  1  0  0  0  0
 44 43  1  0  0  0  0
 45 27  1  0  0  0  0
 46 45  1  0  0  0  0
 47 45  1  0  0  0  0
 48 45  1  0  0  0  0
 49 27  1  0  0  0  0
 50 49  1  0  0  0  0
 51  3  1  0  0  0  0
 52 53  1  0  0  0  0
 54 52  1  0  0  0  0
 55 52  1  0  0  0  0
 56 10  1  0  0  0  0
 57 56  1  0  0  0  0
 58 42  1  0  0  0  0
 59 58  1  0  0  0  0
 60 58  1  0  0  0  0
 61 58  1  0  0  0  0
 62 26  1  0  0  0  0
 63 32  1  0  0  0  0
 64 63  1  0  0  0  0
 65 63  1  0  0  0  0
 66 63  1  0  0  0  0
 67 29  1  0  0  0  0
 68 67  1  0  0  0  0
 69 15  1  0  0  0  0
 70 25  1  0  0  0  0
 71 70  1  0  0  0  0
 72 25  1  0  0  0  0
 73 72  1  0  0  0  0
 74 72  1  0  0  0  0
 75 72  1  0  0  0  0
 76 67  1  0  0  0  0
 77 62  1  0  0  0  0
 78 77  1  0  0  0  0
 79 62  1  0  0  0  0
 80 79  1  0  0  0  0
 81 79  1  0  0  0  0
 82 79  1  0  0  0  0
 83 33  1  0  0  0  0
 84 83  1  0  0  0  0
 85 83  1  0  0  0  0
 86 83  1  0  0  0  0
 87 76  1  0  0  0  0
 88 87  1  0  0  0  0
 89 87  1  0  0  0  0
 90 87  1  0  0  0  0
 91  6  1  0  0  0  0
 92 91  1  0  0  0  0
 93 91  1  0  0  0  0
 94 91  1  0  0  0  0
 95  1  1  0  0  0  0
 96  1  1  0  0  0  0
 97 95  1  0  0  0  0
 98 97  1  0  0  0  0
 99 97  1  0  0  0  0
100 95  1  0  0  0  0
101100  1  0  0  0  0
102100  1  0  0  0  0
103100  1  0  0  0  0
104 95  1  0  0  0  0
105104  1  0  0  0  0
106104  1  0  0  0  0
107104  1  0  0  0  0
108 96  1  0  0  0  0
109108  1  0  0  0  0
110108  1  0  0  0  0
111108  1  0  0  0  0
112 96  1  0  0  0  0
113112  1  0  0  0  0
114112  1  0  0  0  0
115112  1  0  0  0  0
116  1  1  0  0  0  0
117116  1  0  0  0  0
118  1  1  0  0  0  0
119  1  1  0  0  0  0
120119  1  0  0  0  0
121118  1  0  0  0  0
122121  1  0  0  0  0
123121  1  0  0  0  0
124121  1  0  0  0  0
125  4  1  0  0  0  0
126125  1  0  0  0  0
127125  1  0  0  0  0
128130  1  0  0  0  0
129135  1  0  0  0  0
130131  1  0  0  0  0
132130  1  0  0  0  0
133130  1  0  0  0  0
134128  1  0  0  0  0
135136  1  0  0  0  0
137135  1  0  0  0  0
138135  1  0  0  0  0
139141  1  0  0  0  0
140134  1  0  0  0  0
141142  1  0  0  0  0
143129  1  0  0  0  0
144175  1  0  0  0  0
145148  1  0  0  0  0
146147  1  0  0  0  0
147139  1  0  0  0  0
148171  1  0  0  0  0
149140  1  0  0  0  0
150149  1  0  0  0  0
151143  1  0  0  0  0
152149  1  0  0  0  0
153140  1  0  0  0  0
154153  1  0  0  0  0
155153  1  0  0  0  0
156153  1  0  0  0  0
157139  1  0  0  0  0
158157  1  0  0  0  0
159157  1  0  0  0  0
160157  1  0  0  0  0
161141  1  0  0  0  0
162128  1  0  0  0  0
163162  1  0  0  0  0
164146  1  0  0  0  0
165164  1  0  0  0  0
166164  1  0  0  0  0
167164  1  0  0  0  0
168146  1  0  0  0  0
169168  1  0  0  0  0
170127  1  0  0  0  0
171172  1  0  0  0  0
173171  1  0  0  0  0
174171  1  0  0  0  0
175129  1  0  0  0  0
176175  1  0  0  0  0
177161  1  0  0  0  0
178177  1  0  0  0  0
179177  1  0  0  0  0
180177  1  0  0  0  0
181145  1  0  0  0  0
182151  1  0  0  0  0
183182  1  0  0  0  0
184182  1  0  0  0  0
185182  1  0  0  0  0
186148  1  0  0  0  0
187186  1  0  0  0  0
188126  1  0  0  0  0
189144  1  0  0  0  0
190189  1  0  0  0  0
191144  1  0  0  0  0
192191  1  0  0  0  0
193191  1  0  0  0  0
194191  1  0  0  0  0
195186  1  0  0  0  0
196181  1  0  0  0  0
197196  1  0  0  0  0
198181  1  0  0  0  0
199198  1  0  0  0  0
200198  1  0  0  0  0
201198  1  0  0  0  0
202152  1  0  0  0  0
203202  1  0  0  0  0
204202  1  0  0  0  0
205202  1  0  0  0  0
206195  1  0  0  0  0
207206  1  0  0  0  0
208206  1  0  0  0  0
209206  1  0  0  0  0
210125  1  0  0  0  0
211125  1  0  0  0  0
212210  1  0  0  0  0
213212  1  0  0  0  0
214212  1  0  0  0  0
215210  1  0  0  0  0
216215  1  0  0  0  0
217215  1  0  0  0  0
218215  1  0  0  0  0
219210  1  0  0  0  0
220219  1  0  0  0  0
221219  1  0  0  0  0
222219  1  0  0  0  0
223211  1  0  0  0  0
224223  1  0  0  0  0
225223  1  0  0  0  0
226223  1  0  0  0  0
227211  1  0  0  0  0
228227  1  0  0  0  0
229227  1  0  0  0  0
230227  1  0  0  0  0
  4  7  1  0  0  0  0
  4118  1  0  0  0  0
  6  7  1  0  0  0  0
  6116  1  0  0  0  0
  6125  1  0  0  0  0
  7125  1  0  0  0  0
 24 51  1  0  0  0  0
 26 51  1  0  0  0  0
 28 69  1  0  0  0  0
 32 70  1  0  0  0  0
 33 43  1  0  0  0  0
 42 49  1  0  0  0  0
 76 77  1  0  0  0  0
 96 97  1  0  0  0  0
116119  1  0  0  0  0
116125  1  0  0  0  0
118119  1  0  0  0  0
118125  1  0  0  0  0
119125  1  0  0  0  0
134188  1  0  0  0  0
143170  1  0  0  0  0
145170  1  0  0  0  0
147188  1  0  0  0  0
151189  1  0  0  0  0
152162  1  0  0  0  0
161168  1  0  0  0  0
195196  1  0  0  0  0
211212  1  0  0  0  0
M  END
$$$$
UNOMAN

From CSD data. Using bond type 'Any'. No disordered atoms. Largest molecule.
 69 69  0  0  0  0  0  0  0  0999 V2000
   -0.1851   11.2387    1.3337 P   0  0  0  0  0  0  0  0  0  0  0  0
    1.8560    7.3512    2.3729 P   0  0  0  0  0  0  0  0  0  0  0  0
    0.1059    9.5246    1.9257 C   0  0  0  0  0  0  0  0  0  0  0  0
   -0.0297    9.4993    2.9055 H   0  0  0  0  0  0  0  0  0  0  0  0
   -0.5663    8.9274    1.5131 H   0  0  0  0  0  0  0  0  0  0  0  0
    1.5111    8.9833    1.6061 C   0  0  0  0  0  0  0  0  0  0  0  0
    2.1855    9.6359    1.9230 H   0  0  0  0  0  0  0  0  0  0  0  0
    1.6086    8.9037    0.6239 H   0  0  0  0  0  0  0  0  0  0  0  0
    3.2059    6.6471    1.3569 C   0  0  0  0  0  0  0  0  0  0  0  0
    3.8287    7.3758    1.1088 H   0  0  0  0  0  0  0  0  0  0  0  0
    3.7101    5.9953    1.9065 H   0  0  0  0  0  0  0  0  0  0  0  0
    2.7370    5.9558    0.0939 C   0  0  0  0  0  0  0  0  0  0  0  0
    3.4728    5.4162   -0.2909 H   0  0  0  0  0  0  0  0  0  0  0  0
    1.9800    5.3524    0.2982 H   0  0  0  0  0  0  0  0  0  0  0  0
    1.8084    6.4217   -2.0494 C   0  0  0  0  0  0  0  0  0  0  0  0
    2.2328    5.5455   -2.2267 H   0  0  0  0  0  0  0  0  0  0  0  0
    2.0393    7.0279   -2.7976 H   0  0  0  0  0  0  0  0  0  0  0  0
    0.3156    6.2472   -1.9973 C   0  0  0  0  0  0  0  0  0  0  0  0
    0.0042    5.7531   -2.7958 H   0  0  0  0  0  0  0  0  0  0  0  0
    0.0628    5.7294   -1.1911 H   0  0  0  0  0  0  0  0  0  0  0  0
   -1.6849    7.4437   -1.7248 C   0  0  0  0  0  0  0  0  0  0  0  0
   -1.8543    6.9660   -0.8746 H   0  0  0  0  0  0  0  0  0  0  0  0
   -2.1149    6.9351   -2.4573 H   0  0  0  0  0  0  0  0  0  0  0  0
   -2.2660    8.8151   -1.6557 C   0  0  0  0  0  0  0  0  0  0  0  0
   -1.8748    9.3809   -2.3676 H   0  0  0  0  0  0  0  0  0  0  0  0
   -3.2454    8.7726   -1.7967 H   0  0  0  0  0  0  0  0  0  0  0  0
   -2.3571   10.7486   -0.3385 C   0  0  0  0  0  0  0  0  0  0  0  0
   -3.3316   10.8397   -0.4867 H   0  0  0  0  0  0  0  0  0  0  0  0
   -1.8847   11.2476   -1.0521 H   0  0  0  0  0  0  0  0  0  0  0  0
   -1.9850   11.3130    1.0246 C   0  0  0  0  0  0  0  0  0  0  0  0
   -2.4567   10.8014    1.7290 H   0  0  0  0  0  0  0  0  0  0  0  0
   -2.2851   12.2547    1.0795 H   0  0  0  0  0  0  0  0  0  0  0  0
    0.1137   12.3551    2.7851 C   0  0  0  0  0  0  0  0  0  0  0  0
   -0.8678   12.0600    3.9320 C   0  0  0  0  0  0  0  0  0  0  0  0
   -0.6645   12.6426    4.6931 H   0  0  0  0  0  0  0  0  0  0  0  0
   -0.7796   11.1219    4.2046 H   0  0  0  0  0  0  0  0  0  0  0  0
   -1.7844   12.2274    3.6283 H   0  0  0  0  0  0  0  0  0  0  0  0
   -0.0466   13.8076    2.3175 C   0  0  0  0  0  0  0  0  0  0  0  0
    0.1356   14.4146    3.0647 H   0  0  0  0  0  0  0  0  0  0  0  0
   -0.9625   13.9484    1.9980 H   0  0  0  0  0  0  0  0  0  0  0  0
    0.5840   13.9885    1.5900 H   0  0  0  0  0  0  0  0  0  0  0  0
    1.5599   12.1638    3.2744 C   0  0  0  0  0  0  0  0  0  0  0  0
    2.1784   12.2966    2.5250 H   0  0  0  0  0  0  0  0  0  0  0  0
    1.6672   11.2567    3.6301 H   0  0  0  0  0  0  0  0  0  0  0  0
    1.7555   12.8175    3.9796 H   0  0  0  0  0  0  0  0  0  0  0  0
    2.6268    7.6413    4.0463 C   0  0  0  0  0  0  0  0  0  0  0  0
    1.5909    8.2787    4.9824 C   0  0  0  0  0  0  0  0  0  0  0  0
    1.9807    8.3884    5.8751 H   0  0  0  0  0  0  0  0  0  0  0  0
    0.8022    7.6999    5.0408 H   0  0  0  0  0  0  0  0  0  0  0  0
    1.3275    9.1551    4.6309 H   0  0  0  0  0  0  0  0  0  0  0  0
    3.8520    8.5499    3.9422 C   0  0  0  0  0  0  0  0  0  0  0  0
    3.5766    9.4337    3.6228 H   0  0  0  0  0  0  0  0  0  0  0  0
    4.4946    8.1607    3.3136 H   0  0  0  0  0  0  0  0  0  0  0  0
    4.2700    8.6379    4.8249 H   0  0  0  0  0  0  0  0  0  0  0  0
    3.0428    6.2814    4.6327 C   0  0  0  0  0  0  0  0  0  0  0  0
    3.7877    5.9152    4.1113 H   0  0  0  0  0  0  0  0  0  0  0  0
    2.2830    5.6639    4.5962 H   0  0  0  0  0  0  0  0  0  0  0  0
    3.3224    6.3996    5.5641 H   0  0  0  0  0  0  0  0  0  0  0  0
    2.3284    6.9575   -0.8310 O   0  0  0  0  0  0  0  0  0  0  0  0
   -0.2846    7.5293   -1.9570 O   0  0  0  0  0  0  0  0  0  0  0  0
   -1.9876    9.3820   -0.3786 O   0  0  0  0  0  0  0  0  0  0  0  0
    0.8205   11.7592   -0.2170 B   0  0  0  0  0  0  0  0  0  0  0  0
    0.8636   11.0090   -0.8453 H   0  0  0  0  0  0  0  0  0  0  0  0
    1.7279   12.0125    0.0531 H   0  0  0  0  0  0  0  0  0  0  0  0
    0.3827   12.5224   -0.6495 H   0  0  0  0  0  0  0  0  0  0  0  0
    0.3248    6.1814    2.4126 B   0  0  0  0  0  0  0  0  0  0  0  0
   -0.1469    6.2321    1.5552 H   0  0  0  0  0  0  0  0  0  0  0  0
   -0.2782    6.4579    3.1342 H   0  0  0  0  0  0  0  0  0  0  0  0
    0.6214    5.2614    2.5689 H   0  0  0  0  0  0  0  0  0  0  0  0
  1  3  1  0  0  0  0
  2  6  1  0  0  0  0
  3  4  1  0  0  0  0
  5  3  1  0  0  0  0
  6  3  1  0  0  0  0
  7  6  1  0  0  0  0
  8  6  1  0  0  0  0
  9  2  1  0  0  0  0
 10  9  1  0  0  0  0
 11  9  1  0  0  0  0
 12  9  1  0  0  0  0
 13 12  1  0  0  0  0
 14 12  1  0  0  0  0
 15 16  1  0  0  0  0
 17 15  1  0  0  0  0
 18 15  1  0  0  0  0
 19 18  1  0  0  0  0
 20 18  1  0  0  0  0
 21 22  1  0  0  0  0
 23 21  1  0  0  0  0
 24 21  1  0  0  0  0
 25 24  1  0  0  0  0
 26 24  1  0  0  0  0
 27 28  1  0  0  0  0
 29 27  1  0  0  0  0
 30  1  1  0  0  0  0
 31 30  1  0  0  0  0
 32 30  1  0  0  0  0
 33  1  1  0  0  0  0
 34 33  1  0  0  0  0
 35 34  1  0  0  0  0
 36 34  1  0  0  0  0
 37 34  1  0  0  0  0
 38 33  1  0  0  0  0
 39 38  1  0  0  0  0
 40 38  1  0  0  0  0
 41 38  1  0  0  0  0
 42 33  1  0  0  0  0
 43 42  1  0  0  0  0
 44 42  1  0  0  0  0
 45 42  1  0  0  0  0
 46  2  1  0  0  0  0
 47 46  1  0  0  0  0
 48 47  1  0  0  0  0
 49 47  1  0  0  0  0
 50 47  1  0  0  0  0
 51 46  1  0  0  0  0
 52 51  1  0  0  0  0
 53 51  1  0  0  0  0
 54 51  1  0  0  0  0
 55 46  1  0  0  0  0
 56 55  1  0  0  0  0
 57 55  1  0  0  0  0
 58 55  1  0  0  0  0
 59 12  1  0  0  0  0
 60 18  1  0  0  0  0
 61 24  1  0  0  0  0
 62  1  1  0  0  0  0
 63 62  1  0  0  0  0
 64 62  1  0  0  0  0
 65 62  1  0  0  0  0
 66  2  1  0  0  0  0
 67 66  1  0  0  0  0
 68 66  1  0  0  0  0
 69 66  1  0  0  0  0
 15 59  1  0  0  0  0
 21 60  1  0  0  0  0
 27 30  1  0  0  0  0
 27 61  1  0  0  0  0
M  END
$$$$
UNOMER

From CSD data. Using bond type 'Any'. No disordered atoms. Largest molecule.
 62 62  0  0  0  0  0  0  0  0999 V2000
    4.2068    0.9444    1.6447 P   0  0  0  0  0  0  0  0  0  0  0  0
    5.1574   -0.0348    0.4132 C   0  0  0  0  0  0  0  0  0  0  0  0
    4.8488   -0.9750    0.4467 H   0  0  0  0  0  0  0  0  0  0  0  0
    4.9602    0.3142   -0.4917 H   0  0  0  0  0  0  0  0  0  0  0  0
    6.6674   -0.0042    0.6341 C   0  0  0  0  0  0  0  0  0  0  0  0
    6.8779   -0.4720    1.4808 H   0  0  0  0  0  0  0  0  0  0  0  0
    6.9606    0.9372    0.7266 H   0  0  0  0  0  0  0  0  0  0  0  0
    7.6117   -0.7924   -0.7358 P   0  0  0  0  0  0  0  0  0  0  0  0
    8.4504    0.5502   -1.6487 C   0  0  0  0  0  0  0  0  0  0  0  0
    8.8717    1.1611   -0.9935 H   0  0  0  0  0  0  0  0  0  0  0  0
    9.1750    0.1537   -2.1944 H   0  0  0  0  0  0  0  0  0  0  0  0
    7.5583    1.3612   -2.5540 C   0  0  0  0  0  0  0  0  0  0  0  0
    8.1042    1.9945   -3.0835 H   0  0  0  0  0  0  0  0  0  0  0  0
    7.0819    0.7619   -3.1822 H   0  0  0  0  0  0  0  0  0  0  0  0
    6.6204    2.0758   -1.7638 O   0  0  0  0  0  0  0  0  0  0  0  0
    5.7079    2.8069   -2.5682 C   0  0  0  0  0  0  0  0  0  0  0  0
    5.2977    2.2089   -3.2431 H   0  0  0  0  0  0  0  0  0  0  0  0
    6.1832    3.5332   -3.0444 H   0  0  0  0  0  0  0  0  0  0  0  0
    4.6415    3.3877   -1.6835 C   0  0  0  0  0  0  0  0  0  0  0  0
    5.0528    3.9176   -0.9558 H   0  0  0  0  0  0  0  0  0  0  0  0
    4.0482    3.9823   -2.2075 H   0  0  0  0  0  0  0  0  0  0  0  0
    3.8970    2.3071   -1.1425 O   0  0  0  0  0  0  0  0  0  0  0  0
    2.9631    2.6906   -0.1358 C   0  0  0  0  0  0  0  0  0  0  0  0
    2.1184    2.9952   -0.5526 H   0  0  0  0  0  0  0  0  0  0  0  0
    3.3314    3.4334    0.4047 H   0  0  0  0  0  0  0  0  0  0  0  0
    2.7075    1.4868    0.7397 C   0  0  0  0  0  0  0  0  0  0  0  0
    2.3820    0.7404    0.1769 H   0  0  0  0  0  0  0  0  0  0  0  0
    1.9971    1.7073    1.3924 H   0  0  0  0  0  0  0  0  0  0  0  0
    3.6039   -0.2346    2.9457 C   0  0  0  0  0  0  0  0  0  0  0  0
    2.5551   -1.1847    2.3779 C   0  0  0  0  0  0  0  0  0  0  0  0
    2.8947   -1.5913    1.5534 H   0  0  0  0  0  0  0  0  0  0  0  0
    1.7346   -0.6864    2.1828 H   0  0  0  0  0  0  0  0  0  0  0  0
    2.3621   -1.8880    3.0328 H   0  0  0  0  0  0  0  0  0  0  0  0
    2.9896    0.5710    4.1023 C   0  0  0  0  0  0  0  0  0  0  0  0
    2.6102   -0.0445    4.7645 H   0  0  0  0  0  0  0  0  0  0  0  0
    2.2816    1.1530    3.7551 H   0  0  0  0  0  0  0  0  0  0  0  0
    3.6843    1.1180    4.5252 H   0  0  0  0  0  0  0  0  0  0  0  0
    4.7959   -1.0373    3.4692 C   0  0  0  0  0  0  0  0  0  0  0  0
    4.5092   -1.5926    4.2250 H   0  0  0  0  0  0  0  0  0  0  0  0
    5.4995   -0.4221    3.7638 H   0  0  0  0  0  0  0  0  0  0  0  0
    5.1422   -1.6115    2.7543 H   0  0  0  0  0  0  0  0  0  0  0  0
    8.9831   -1.7279    0.0879 C   0  0  0  0  0  0  0  0  0  0  0  0
    8.3766   -2.8678    0.9061 C   0  0  0  0  0  0  0  0  0  0  0  0
    9.0956   -3.4078    1.2966 H   0  0  0  0  0  0  0  0  0  0  0  0
    7.8241   -3.4294    0.3234 H   0  0  0  0  0  0  0  0  0  0  0  0
    7.8219   -2.4962    1.6230 H   0  0  0  0  0  0  0  0  0  0  0  0
    9.8135   -0.8091    1.0002 C   0  0  0  0  0  0  0  0  0  0  0  0
    9.2213   -0.3682    1.6447 H   0  0  0  0  0  0  0  0  0  0  0  0
   10.2667   -0.1308    0.4569 H   0  0  0  0  0  0  0  0  0  0  0  0
   10.4817   -1.3418    1.4808 H   0  0  0  0  0  0  0  0  0  0  0  0
    9.9116   -2.3205   -0.9925 C   0  0  0  0  0  0  0  0  0  0  0  0
   10.5788   -2.8994   -0.5686 H   0  0  0  0  0  0  0  0  0  0  0  0
   10.3637   -1.5940   -1.4692 H   0  0  0  0  0  0  0  0  0  0  0  0
    9.3801   -2.8455   -1.6273 H   0  0  0  0  0  0  0  0  0  0  0  0
    5.1841    2.4310    2.3591 B   0  0  0  0  0  0  0  0  0  0  0  0
    5.5513    2.9641    1.6230 H   0  0  0  0  0  0  0  0  0  0  0  0
    5.9152    2.1011    2.9211 H   0  0  0  0  0  0  0  0  0  0  0  0
    4.5831    2.9871    2.8979 H   0  0  0  0  0  0  0  0  0  0  0  0
    6.5724   -1.8570   -1.9485 B   0  0  0  0  0  0  0  0  0  0  0  0
    5.8325   -1.3202   -2.3032 H   0  0  0  0  0  0  0  0  0  0  0  0
    6.2118   -2.6351   -1.4736 H   0  0  0  0  0  0  0  0  0  0  0  0
    7.1404   -2.1590   -2.6876 H   0  0  0  0  0  0  0  0  0  0  0  0
  1  2  1  0  0  0  0
  2  3  1  0  0  0  0
  4  2  1  0  0  0  0
  5  2  1  0  0  0  0
  6  5  1  0  0  0  0
  7  5  1  0  0  0  0
  8  5  1  0  0  0  0
  9  8  1  0  0  0  0
 10  9  1  0  0  0  0
 11  9  1  0  0  0  0
 12  9  1  0  0  0  0
 13 12  1  0  0  0  0
 14 12  1  0  0  0  0
 15 12  1  0  0  0  0
 16 15  1  0  0  0  0
 17 16  1  0  0  0  0
 18 16  1  0  0  0  0
 19 16  1  0  0  0  0
 20 19  1  0  0  0  0
 21 19  1  0  0  0  0
 22 19  1  0  0  0  0
 23 22  1  0  0  0  0
 24 23  1  0  0  0  0
 25 23  1  0  0  0  0
 26  1  1  0  0  0  0
 27 26  1  0  0  0  0
 28 26  1  0  0  0  0
 29  1  1  0  0  0  0
 30 29  1  0  0  0  0
 31 30  1  0  0  0  0
 32 30  1  0  0  0  0
 33 30  1  0  0  0  0
 34 29  1  0  0  0  0
 35 34  1  0  0  0  0
 36 34  1  0  0  0  0
 37 34  1  0  0  0  0
 38 29  1  0  0  0  0
 39 38  1  0  0  0  0
 40 38  1  0  0  0  0
 41 38  1  0  0  0  0
 42  8  1  0  0  0  0
 43 42  1  0  0  0  0
 44 43  1  0  0  0  0
 45 43  1  0  0  0  0
 46 43  1  0  0  0  0
 47 42  1  0  0  0  0
 48 47  1  0  0  0  0
 49 47  1  0  0  0  0
 50 47  1  0  0  0  0
 51 42  1  0  0  0  0
 52 51  1  0  0  0  0
 53 51  1  0  0  0  0
 54 51  1  0  0  0  0
 55  1  1  0  0  0  0
 56 55  1  0  0  0  0
 57 55  1  0  0  0  0
 58 55  1  0  0  0  0
 59  8  1  0  0  0  0
 60 59  1  0  0  0  0
 61 59  1  0  0  0  0
 62 59  1  0  0  0  0
 23 26  1  0  0  0  0
M  END
$$$$
UQAHUR

From CSD data. Using bond type 'Any'. Matching problem. No disordered atoms. Largest molecule.
141153  0  0  0  0  0  0  0  0999 V2000
    1.1739    0.1399    5.7534 Fe  0  0  0  0  0  0  0  0  0  0  0  0
    3.4173    1.3775    3.9576 Ni  0  2  0  0  0  0  0  0  0  0  0  0
    3.6335    1.7539    1.8163 P   0  0  0  0  0  0  0  0  0  0  0  0
    5.5914    1.3390    4.0945 P   0  0  0  0  0  0  0  0  0  0  0  0
    1.1861    1.5710    3.9140 S   0  0  0  0  0  0  0  0  0  0  0  0
    3.1517    1.2896    6.1674 S   0  0  0  0  0  0  0  0  0  0  0  0
   -0.6751    1.8354    7.4716 N   0  0  0  0  0  0  0  0  0  0  0  0
    2.4498   -2.2208    4.2915 N   0  0  0  0  0  0  0  0  0  0  0  0
   -1.8357    2.5290    8.2603 B   0  5  0  0  0  0  0  0  0  0  0  0
    2.6725   -3.6815    3.7668 B   0  5  0  0  0  0  0  0  0  0  0  0
   -1.3704   -1.1032    4.9305 O   0  0  0  0  0  0  0  0  0  0  0  0
    1.5192   -1.4082    8.2358 O   0  0  0  0  0  0  0  0  0  0  0  0
   -0.3846   -0.6438    5.2375 C   0  0  0  0  0  0  0  0  0  0  0  0
    1.3883   -0.8520    7.2649 C   0  0  0  0  0  0  0  0  0  0  0  0
    0.0927    1.2917    6.8097 C   0  0  0  0  0  0  0  0  0  0  0  0
   -1.1082    3.3218    9.5026 C   0  0  0  0  0  0  0  0  0  0  0  0
   -0.0924    4.2506    9.2488 C   0  0  0  0  0  0  0  0  0  0  0  0
    0.6279    4.9024   10.2102 C   0  0  0  0  0  0  0  0  0  0  0  0
    0.3807    4.6440   11.5310 C   0  0  0  0  0  0  0  0  0  0  0  0
   -0.5983    3.7445   11.8541 C   0  0  0  0  0  0  0  0  0  0  0  0
   -1.3019    3.1121   10.8505 C   0  0  0  0  0  0  0  0  0  0  0  0
    0.1500    4.6072    7.9676 F   0  0  0  0  0  0  0  0  0  0  0  0
    1.4879    5.8833    9.8731 F   0  0  0  0  0  0  0  0  0  0  0  0
    1.0159    5.3270   12.4974 F   0  0  0  0  0  0  0  0  0  0  0  0
   -0.8574    3.4704   13.1526 F   0  0  0  0  0  0  0  0  0  0  0  0
   -2.2578    2.2539   11.2838 F   0  0  0  0  0  0  0  0  0  0  0  0
   -2.8707    1.3761    8.7632 C   0  0  0  0  0  0  0  0  0  0  0  0
   -2.4178    0.1818    9.2991 C   0  0  0  0  0  0  0  0  0  0  0  0
   -3.2228   -0.8307    9.7780 C   0  0  0  0  0  0  0  0  0  0  0  0
   -4.5772   -0.6832    9.7555 C   0  0  0  0  0  0  0  0  0  0  0  0
   -5.0972    0.4718    9.2594 C   0  0  0  0  0  0  0  0  0  0  0  0
   -4.2494    1.4562    8.7943 C   0  0  0  0  0  0  0  0  0  0  0  0
   -1.0804   -0.0251    9.4236 F   0  0  0  0  0  0  0  0  0  0  0  0
   -2.6874   -1.9641   10.2880 F   0  0  0  0  0  0  0  0  0  0  0  0
   -5.3957   -1.7070   10.1099 F   0  0  0  0  0  0  0  0  0  0  0  0
   -6.4213    0.6709    9.1902 F   0  0  0  0  0  0  0  0  0  0  0  0
   -4.8502    2.5862    8.3483 F   0  0  0  0  0  0  0  0  0  0  0  0
   -2.5878    3.5523    7.2073 C   0  0  0  0  0  0  0  0  0  0  0  0
   -2.8522    3.2058    5.8640 C   0  0  0  0  0  0  0  0  0  0  0  0
   -3.2673    4.0834    4.8717 C   0  0  0  0  0  0  0  0  0  0  0  0
   -3.5259    5.3838    5.1967 C   0  0  0  0  0  0  0  0  0  0  0  0
   -3.4304    5.7698    6.4933 C   0  0  0  0  0  0  0  0  0  0  0  0
   -2.9625    4.8607    7.4355 C   0  0  0  0  0  0  0  0  0  0  0  0
   -2.5846    1.9396    5.4699 F   0  0  0  0  0  0  0  0  0  0  0  0
   -3.3785    3.6376    3.6201 F   0  0  0  0  0  0  0  0  0  0  0  0
   -3.9440    6.2439    4.2459 F   0  0  0  0  0  0  0  0  0  0  0  0
   -3.6640    7.0457    6.8373 F   0  0  0  0  0  0  0  0  0  0  0  0
   -2.8269    5.3777    8.6785 F   0  0  0  0  0  0  0  0  0  0  0  0
    2.0914   -1.2356    4.7701 C   0  0  0  0  0  0  0  0  0  0  0  0
    3.6525   -4.4101    4.8458 C   0  0  0  0  0  0  0  0  0  0  0  0
    3.5372   -4.2927    6.2202 C   0  0  0  0  0  0  0  0  0  0  0  0
    4.2693   -4.9762    7.1606 C   0  0  0  0  0  0  0  0  0  0  0  0
    5.2304   -5.8517    6.7405 C   0  0  0  0  0  0  0  0  0  0  0  0
    5.3942   -6.0372    5.3990 C   0  0  0  0  0  0  0  0  0  0  0  0
    4.6117   -5.3438    4.4948 C   0  0  0  0  0  0  0  0  0  0  0  0
    2.5630   -3.4986    6.7181 F   0  0  0  0  0  0  0  0  0  0  0  0
    4.0281   -4.7741    8.4693 F   0  0  0  0  0  0  0  0  0  0  0  0
    5.9641   -6.5827    7.6032 F   0  0  0  0  0  0  0  0  0  0  0  0
    6.3203   -6.8983    4.9478 F   0  0  0  0  0  0  0  0  0  0  0  0
    4.8169   -5.6249    3.1862 F   0  0  0  0  0  0  0  0  0  0  0  0
    3.2748   -3.5625    2.2472 C   0  0  0  0  0  0  0  0  0  0  0  0
    4.2577   -2.6524    1.9231 C   0  0  0  0  0  0  0  0  0  0  0  0
    4.8395   -2.5249    0.6789 C   0  0  0  0  0  0  0  0  0  0  0  0
    4.4631   -3.3715   -0.3209 C   0  0  0  0  0  0  0  0  0  0  0  0
    3.4788   -4.2877   -0.0690 C   0  0  0  0  0  0  0  0  0  0  0  0
    2.9255   -4.3813    1.1884 C   0  0  0  0  0  0  0  0  0  0  0  0
    4.7274   -1.8016    2.8681 F   0  0  0  0  0  0  0  0  0  0  0  0
    5.7538   -1.5693    0.4391 F   0  0  0  0  0  0  0  0  0  0  0  0
    5.0203   -3.2546   -1.5352 F   0  0  0  0  0  0  0  0  0  0  0  0
    3.0738   -5.1131   -1.0476 F   0  0  0  0  0  0  0  0  0  0  0  0
    2.0002   -5.3485    1.3512 F   0  0  0  0  0  0  0  0  0  0  0  0
    1.1870   -4.3835    3.8033 C   0  0  0  0  0  0  0  0  0  0  0  0
    0.0754   -3.7561    3.2501 C   0  0  0  0  0  0  0  0  0  0  0  0
   -1.1924   -4.2791    3.1775 C   0  0  0  0  0  0  0  0  0  0  0  0
   -1.4263   -5.5526    3.6443 C   0  0  0  0  0  0  0  0  0  0  0  0
   -0.3799   -6.2378    4.1837 C   0  0  0  0  0  0  0  0  0  0  0  0
    0.8450   -5.6542    4.2666 C   0  0  0  0  0  0  0  0  0  0  0  0
    0.2521   -2.5694    2.6122 F   0  0  0  0  0  0  0  0  0  0  0  0
   -2.1831   -3.5951    2.5724 F   0  0  0  0  0  0  0  0  0  0  0  0
   -2.6425   -6.1021    3.5509 F   0  0  0  0  0  0  0  0  0  0  0  0
   -0.5913   -7.4823    4.6280 F   0  0  0  0  0  0  0  0  0  0  0  0
    1.8386   -6.4781    4.6885 F   0  0  0  0  0  0  0  0  0  0  0  0
    0.9753    3.2745    4.5771 C   0  0  0  0  0  0  0  0  0  0  0  0
    0.7806    3.8841    3.8206 H   0  0  0  0  0  0  0  0  0  0  0  0
    0.1877    3.2822    5.1760 H   0  0  0  0  0  0  0  0  0  0  0  0
    2.1639    3.8209    5.3397 C   0  0  0  0  0  0  0  0  0  0  0  0
    1.9297    4.7275    5.6618 H   0  0  0  0  0  0  0  0  0  0  0  0
    2.9166    3.9205    4.7023 H   0  0  0  0  0  0  0  0  0  0  0  0
    2.6618    3.0110    6.5326 C   0  0  0  0  0  0  0  0  0  0  0  0
    1.9479    2.9944    7.2177 H   0  0  0  0  0  0  0  0  0  0  0  0
    3.4399    3.4811    6.9255 H   0  0  0  0  0  0  0  0  0  0  0  0
    2.7860    3.3364    1.4850 C   0  0  0  0  0  0  0  0  0  0  0  0
    3.3853    4.4648    2.0313 C   0  0  0  0  0  0  0  0  0  0  0  0
    4.1520    4.3746    2.5863 H   0  0  0  0  0  0  0  0  0  0  0  0
    2.8627    5.7249    1.7668 C   0  0  0  0  0  0  0  0  0  0  0  0
    3.2714    6.4973    2.1402 H   0  0  0  0  0  0  0  0  0  0  0  0
    1.7428    5.8570    0.9543 C   0  0  0  0  0  0  0  0  0  0  0  0
    1.3845    6.7175    0.7745 H   0  0  0  0  0  0  0  0  0  0  0  0
    1.1439    4.7268    0.4080 C   0  0  0  0  0  0  0  0  0  0  0  0
    0.3766    4.8166   -0.1452 H   0  0  0  0  0  0  0  0  0  0  0  0
    1.6659    3.4663    0.6742 C   0  0  0  0  0  0  0  0  0  0  0  0
    1.2569    2.6955    0.3008 H   0  0  0  0  0  0  0  0  0  0  0  0
    2.9560    0.5858    0.6016 C   0  0  0  0  0  0  0  0  0  0  0  0
    3.2887    0.7218   -0.7480 C   0  0  0  0  0  0  0  0  0  0  0  0
    3.8964    1.3981   -1.0217 H   0  0  0  0  0  0  0  0  0  0  0  0
    2.7367   -0.1233   -1.6826 C   0  0  0  0  0  0  0  0  0  0  0  0
    2.9731   -0.0320   -2.5984 H   0  0  0  0  0  0  0  0  0  0  0  0
    1.8455   -1.0974   -1.3035 C   0  0  0  0  0  0  0  0  0  0  0  0
    1.4638   -1.6737   -1.9553 H   0  0  0  0  0  0  0  0  0  0  0  0
    1.5076   -1.2373    0.0209 C   0  0  0  0  0  0  0  0  0  0  0  0
    0.8904   -1.9098    0.2835 H   0  0  0  0  0  0  0  0  0  0  0  0
    2.0626   -0.4022    0.9742 C   0  0  0  0  0  0  0  0  0  0  0  0
    1.8283   -0.5073    1.8896 H   0  0  0  0  0  0  0  0  0  0  0  0
    5.4121    1.9575    1.3939 C   0  0  0  0  0  0  0  0  0  0  0  0
    5.5798    1.6055    0.4841 H   0  0  0  0  0  0  0  0  0  0  0  0
    5.6461    2.9200    1.4003 H   0  0  0  0  0  0  0  0  0  0  0  0
    6.2887    1.2084    2.4028 C   0  0  0  0  0  0  0  0  0  0  0  0
    7.2019    1.5890    2.3926 H   0  0  0  0  0  0  0  0  0  0  0  0
    6.3496    0.2540    2.1437 H   0  0  0  0  0  0  0  0  0  0  0  0
    6.1869    2.8989    4.8155 C   0  0  0  0  0  0  0  0  0  0  0  0
    6.2707    3.0123    6.2003 C   0  0  0  0  0  0  0  0  0  0  0  0
    6.0400    2.2719    6.7509 H   0  0  0  0  0  0  0  0  0  0  0  0
    6.6904    4.2041    6.7815 C   0  0  0  0  0  0  0  0  0  0  0  0
    6.7520    4.2727    7.7277 H   0  0  0  0  0  0  0  0  0  0  0  0
    7.0169    5.2853    5.9927 C   0  0  0  0  0  0  0  0  0  0  0  0
    7.2964    6.1006    6.3913 H   0  0  0  0  0  0  0  0  0  0  0  0
    6.9344    5.1762    4.6150 C   0  0  0  0  0  0  0  0  0  0  0  0
    7.1553    5.9216    4.0696 H   0  0  0  0  0  0  0  0  0  0  0  0
    6.5356    3.9974    4.0320 C   0  0  0  0  0  0  0  0  0  0  0  0
    6.4963    3.9313    3.0859 H   0  0  0  0  0  0  0  0  0  0  0  0
    6.4632    0.0765    5.0653 C   0  0  0  0  0  0  0  0  0  0  0  0
    5.7894   -0.9965    5.6289 C   0  0  0  0  0  0  0  0  0  0  0  0
    4.8496   -1.0761    5.5200 H   0  0  0  0  0  0  0  0  0  0  0  0
    6.4817   -1.9500    6.3479 C   0  0  0  0  0  0  0  0  0  0  0  0
    6.0139   -2.6785    6.7388 H   0  0  0  0  0  0  0  0  0  0  0  0
    7.8425   -1.8493    6.5006 C   0  0  0  0  0  0  0  0  0  0  0  0
    8.3143   -2.5110    6.9912 H   0  0  0  0  0  0  0  0  0  0  0  0
    8.5313   -0.7839    5.9399 C   0  0  0  0  0  0  0  0  0  0  0  0
    9.4730   -0.7174    6.0438 H   0  0  0  0  0  0  0  0  0  0  0  0
    7.8438    0.1793    5.2316 C   0  0  0  0  0  0  0  0  0  0  0  0
    8.3117    0.9153    4.8562 H   0  0  0  0  0  0  0  0  0  0  0  0
  1  5  1  0  0  0  0
  2  3  1  0  0  0  0
  3 92  1  0  0  0  0
  4  2  1  0  0  0  0
  5  2  1  0  0  0  0
  6  1  1  0  0  0  0
  7  9  1  0  0  0  0
  8 10  1  0  0  0  0
  9 16  1  0  0  0  0
 10 50  1  0  0  0  0
 11 13  3  0  0  0  0
 12 14  3  0  0  0  0
 13  1  1  0  0  0  0
 14  1  1  0  0  0  0
 15  1  1  0  0  0  0
 16 17  4  0  0  0  0
 17 18  4  0  0  0  0
 18 19  4  0  0  0  0
 19 20  4  0  0  0  0
 20 21  4  0  0  0  0
 21 16  4  0  0  0  0
 22 17  1  0  0  0  0
 23 18  1  0  0  0  0
 24 19  1  0  0  0  0
 25 20  1  0  0  0  0
 26 21  1  0  0  0  0
 27  9  1  0  0  0  0
 28 27  4  0  0  0  0
 29 28  4  0  0  0  0
 30 29  4  0  0  0  0
 31 30  4  0  0  0  0
 32 27  4  0  0  0  0
 33 28  1  0  0  0  0
 34 29  1  0  0  0  0
 35 30  1  0  0  0  0
 36 31  1  0  0  0  0
 37 32  1  0  0  0  0
 38  9  1  0  0  0  0
 39 38  4  0  0  0  0
 40 39  4  0  0  0  0
 41 40  4  0  0  0  0
 42 41  4  0  0  0  0
 43 38  4  0  0  0  0
 44 39  1  0  0  0  0
 45 40  1  0  0  0  0
 46 41  1  0  0  0  0
 47 42  1  0  0  0  0
 48 43  1  0  0  0  0
 49  1  1  0  0  0  0
 50 51  4  0  0  0  0
 51 52  4  0  0  0  0
 52 53  4  0  0  0  0
 53 54  4  0  0  0  0
 54 55  4  0  0  0  0
 55 50  4  0  0  0  0
 56 51  1  0  0  0  0
 57 52  1  0  0  0  0
 58 53  1  0  0  0  0
 59 54  1  0  0  0  0
 60 55  1  0  0  0  0
 61 10  1  0  0  0  0
 62 61  4  0  0  0  0
 63 62  4  0  0  0  0
 64 63  4  0  0  0  0
 65 64  4  0  0  0  0
 66 61  4  0  0  0  0
 67 62  1  0  0  0  0
 68 63  1  0  0  0  0
 69 64  1  0  0  0  0
 70 65  1  0  0  0  0
 71 66  1  0  0  0  0
 72 10  1  0  0  0  0
 73 72  4  0  0  0  0
 74 73  4  0  0  0  0
 75 74  4  0  0  0  0
 76 75  4  0  0  0  0
 77 72  4  0  0  0  0
 78 73  1  0  0  0  0
 79 74  1  0  0  0  0
 80 75  1  0  0  0  0
 81 76  1  0  0  0  0
 82 77  1  0  0  0  0
 83  5  1  0  0  0  0
 84 83  1  0  0  0  0
 85 83  1  0  0  0  0
 86 83  1  0  0  0  0
 87 86  1  0  0  0  0
 88 86  1  0  0  0  0
 89  6  1  0  0  0  0
 90 89  1  0  0  0  0
 91 89  1  0  0  0  0
 92 93  4  0  0  0  0
 93 94  1  0  0  0  0
 95 93  4  0  0  0  0
 96 95  1  0  0  0  0
 97 95  4  0  0  0  0
 98 97  1  0  0  0  0
 99 97  4  0  0  0  0
100 99  1  0  0  0  0
101 92  4  0  0  0  0
102101  1  0  0  0  0
103  3  1  0  0  0  0
104103  4  0  0  0  0
105104  1  0  0  0  0
106104  4  0  0  0  0
107106  1  0  0  0  0
108106  4  0  0  0  0
109108  1  0  0  0  0
110108  4  0  0  0  0
111110  1  0  0  0  0
112103  4  0  0  0  0
113112  1  0  0  0  0
114  3  1  0  0  0  0
115114  1  0  0  0  0
116114  1  0  0  0  0
117  4  1  0  0  0  0
118117  1  0  0  0  0
119117  1  0  0  0  0
120  4  1  0  0  0  0
121120  4  0  0  0  0
122121  1  0  0  0  0
123121  4  0  0  0  0
124123  1  0  0  0  0
125123  4  0  0  0  0
126125  1  0  0  0  0
127125  4  0  0  0  0
128127  1  0  0  0  0
129120  4  0  0  0  0
130129  1  0  0  0  0
131  4  1  0  0  0  0
132131  4  0  0  0  0
133132  1  0  0  0  0
134132  4  0  0  0  0
135134  1  0  0  0  0
136134  4  0  0  0  0
137136  1  0  0  0  0
138136  4  0  0  0  0
139138  1  0  0  0  0
140131  4  0  0  0  0
141140  1  0  0  0  0
  2  6  1  0  0  0  0
  7 15  3  0  0  0  0
  8 49  3  0  0  0  0
 31 32  4  0  0  0  0
 42 43  4  0  0  0  0
 65 66  4  0  0  0  0
 76 77  4  0  0  0  0
 86 89  1  0  0  0  0
 99101  4  0  0  0  0
110112  4  0  0  0  0
114117  1  0  0  0  0
127129  4  0  0  0  0
138140  4  0  0  0  0
M  CHG  3   2   2   9  -1  10  -1
M  END
$$$$
UQAJAZ

From CSD data. Using bond type 'Any'. Matching problem. No disordered atoms. Largest molecule.
140154  0  0  0  0  0  0  0  0999 V2000
    5.4650    4.6440    3.9794 Ni  0  0  0  0  0  0  0  0  0  0  0  0
    4.1321    6.5007    5.1097 Fe  0  0  0  0  0  0  0  0  0  0  0  0
    5.4641    5.7910    5.2480 H   0  0  0  0  0  0  0  0  0  0  0  0
    3.3479    4.3300    4.8336 S   0  0  0  0  0  0  0  0  0  0  0  0
    4.7021    6.3881    2.8864 S   0  0  0  0  0  0  0  0  0  0  0  0
    6.4781    3.2176    5.2445 P   0  0  0  0  0  0  0  0  0  0  0  0
    6.8863    4.1737    2.4530 P   0  0  0  0  0  0  0  0  0  0  0  0
    0.0093    8.5005    4.8600 B   0  0  0  0  0  0  0  0  0  0  0  0
    6.6832   10.2500    5.6198 B   0  0  0  0  0  0  0  0  0  0  0  0
    1.4345    7.8790    4.8831 N   0  0  0  0  0  0  0  0  0  0  0  0
    5.8021    8.9986    5.4137 N   0  0  0  0  0  0  0  0  0  0  0  0
    3.5991    6.1969    7.9521 O   0  0  0  0  0  0  0  0  0  0  0  0
    3.8543    6.3316    6.8369 C   0  0  0  0  0  0  0  0  0  0  0  0
    2.4650    7.3642    4.9056 C   0  0  0  0  0  0  0  0  0  0  0  0
   -0.3910    9.1200    6.3267 C   0  0  0  0  0  0  0  0  0  0  0  0
   -1.6243    9.7433    6.4711 C   0  0  0  0  0  0  0  0  0  0  0  0
   -2.0349   10.4082    7.6070 C   0  0  0  0  0  0  0  0  0  0  0  0
   -1.1991   10.4766    8.6875 C   0  0  0  0  0  0  0  0  0  0  0  0
    0.0274    9.8741    8.6162 C   0  0  0  0  0  0  0  0  0  0  0  0
    0.4060    9.2095    7.4649 C   0  0  0  0  0  0  0  0  0  0  0  0
   -2.5012    9.7077    5.4347 F   0  0  0  0  0  0  0  0  0  0  0  0
   -3.2398   11.0177    7.6462 F   0  0  0  0  0  0  0  0  0  0  0  0
   -1.5776   11.1250    9.8046 F   0  0  0  0  0  0  0  0  0  0  0  0
    0.8530    9.9173    9.6802 F   0  0  0  0  0  0  0  0  0  0  0  0
    1.6258    8.6334    7.5078 F   0  0  0  0  0  0  0  0  0  0  0  0
   -0.9569    7.2556    4.3732 C   0  0  0  0  0  0  0  0  0  0  0  0
   -0.8054    6.6986    3.1107 C   0  0  0  0  0  0  0  0  0  0  0  0
   -1.5029    5.6017    2.6556 C   0  0  0  0  0  0  0  0  0  0  0  0
   -2.4204    4.9949    3.4845 C   0  0  0  0  0  0  0  0  0  0  0  0
   -2.6028    5.4825    4.7397 C   0  0  0  0  0  0  0  0  0  0  0  0
   -1.8742    6.5783    5.1620 C   0  0  0  0  0  0  0  0  0  0  0  0
    0.0827    7.2412    2.2510 F   0  0  0  0  0  0  0  0  0  0  0  0
   -1.3080    5.1274    1.4160 F   0  0  0  0  0  0  0  0  0  0  0  0
   -3.1316    3.9369    3.0585 F   0  0  0  0  0  0  0  0  0  0  0  0
   -3.4759    4.8865    5.5796 F   0  0  0  0  0  0  0  0  0  0  0  0
   -2.0925    6.9499    6.4458 F   0  0  0  0  0  0  0  0  0  0  0  0
    0.0622    9.8026    3.8434 C   0  0  0  0  0  0  0  0  0  0  0  0
    1.0178   10.7880    4.0699 C   0  0  0  0  0  0  0  0  0  0  0  0
    1.1245   11.9440    3.3442 C   0  0  0  0  0  0  0  0  0  0  0  0
    0.2693   12.1663    2.2989 C   0  0  0  0  0  0  0  0  0  0  0  0
   -0.7044   11.2416    2.0204 C   0  0  0  0  0  0  0  0  0  0  0  0
   -0.8002   10.1029    2.7957 C   0  0  0  0  0  0  0  0  0  0  0  0
    1.9035   10.6333    5.0824 F   0  0  0  0  0  0  0  0  0  0  0  0
    2.0602   12.8729    3.6534 F   0  0  0  0  0  0  0  0  0  0  0  0
    0.3545   13.2961    1.5699 F   0  0  0  0  0  0  0  0  0  0  0  0
   -1.5688   11.4583    1.0088 F   0  0  0  0  0  0  0  0  0  0  0  0
   -1.8227    9.2753    2.4868 F   0  0  0  0  0  0  0  0  0  0  0  0
    5.1379    8.0615    5.2914 C   0  0  0  0  0  0  0  0  0  0  0  0
    5.6609   11.5418    5.9583 C   0  0  0  0  0  0  0  0  0  0  0  0
    4.4791   11.2946    6.6453 C   0  0  0  0  0  0  0  0  0  0  0  0
    3.5991   12.3375    6.9112 C   0  0  0  0  0  0  0  0  0  0  0  0
    3.9008   13.6275    6.4901 C   0  0  0  0  0  0  0  0  0  0  0  0
    5.0840   13.8747    5.8030 C   0  0  0  0  0  0  0  0  0  0  0  0
    5.9641   12.8319    5.5371 C   0  0  0  0  0  0  0  0  0  0  0  0
    4.1768   10.1163    7.1907 F   0  0  0  0  0  0  0  0  0  0  0  0
    2.4584   12.1180    7.5769 F   0  0  0  0  0  0  0  0  0  0  0  0
    3.1043   14.6562    6.8122 F   0  0  0  0  0  0  0  0  0  0  0  0
    5.3575   15.1385    5.4265 F   0  0  0  0  0  0  0  0  0  0  0  0
    7.0656   13.1668    4.8792 F   0  0  0  0  0  0  0  0  0  0  0  0
    7.6531    9.8970    6.9108 C   0  0  0  0  0  0  0  0  0  0  0  0
    8.4238    8.7348    6.9011 C   0  0  0  0  0  0  0  0  0  0  0  0
    9.2600    8.3476    7.9263 C   0  0  0  0  0  0  0  0  0  0  0  0
    9.3685    9.1371    9.0411 C   0  0  0  0  0  0  0  0  0  0  0  0
    8.6375   10.2932    9.1075 C   0  0  0  0  0  0  0  0  0  0  0  0
    7.8172   10.6509    8.0546 C   0  0  0  0  0  0  0  0  0  0  0  0
    8.3721    7.9099    5.8382 F   0  0  0  0  0  0  0  0  0  0  0  0
    9.9661    7.2023    7.8448 F   0  0  0  0  0  0  0  0  0  0  0  0
   10.1731    8.7885   10.0584 F   0  0  0  0  0  0  0  0  0  0  0  0
    8.7226   11.0718   10.2036 F   0  0  0  0  0  0  0  0  0  0  0  0
    7.1607   11.8294    8.2063 F   0  0  0  0  0  0  0  0  0  0  0  0
    7.6105   10.4865    4.2935 C   0  0  0  0  0  0  0  0  0  0  0  0
    7.1680   10.1607    3.0102 C   0  0  0  0  0  0  0  0  0  0  0  0
    7.9063   10.2891    1.8651 C   0  0  0  0  0  0  0  0  0  0  0  0
    9.1761   10.7830    1.9233 C   0  0  0  0  0  0  0  0  0  0  0  0
    9.6719   11.1480    3.1364 C   0  0  0  0  0  0  0  0  0  0  0  0
    8.8992   11.0065    4.2601 C   0  0  0  0  0  0  0  0  0  0  0  0
    5.9224    9.6770    2.8549 F   0  0  0  0  0  0  0  0  0  0  0  0
    7.4134    9.8784    0.6870 F   0  0  0  0  0  0  0  0  0  0  0  0
    9.9324   10.8961    0.8171 F   0  0  0  0  0  0  0  0  0  0  0  0
   10.9261   11.6434    3.2334 F   0  0  0  0  0  0  0  0  0  0  0  0
    9.4370   11.4639    5.4207 F   0  0  0  0  0  0  0  0  0  0  0  0
    2.1060    4.3322    3.4952 C   0  0  0  0  0  0  0  0  0  0  0  0
    1.6323    3.4624    3.5051 H   0  0  0  0  0  0  0  0  0  0  0  0
    1.4389    5.0369    3.6875 H   0  0  0  0  0  0  0  0  0  0  0  0
    2.6602    4.5616    2.1110 C   0  0  0  0  0  0  0  0  0  0  0  0
    1.9377    4.4082    1.4517 H   0  0  0  0  0  0  0  0  0  0  0  0
    3.3692    3.8937    1.9389 H   0  0  0  0  0  0  0  0  0  0  0  0
    3.2327    5.9421    1.8890 C   0  0  0  0  0  0  0  0  0  0  0  0
    2.5210    6.6045    2.0747 H   0  0  0  0  0  0  0  0  0  0  0  0
    3.4723    6.0270    0.9316 H   0  0  0  0  0  0  0  0  0  0  0  0
    5.7273    1.5618    5.2670 C   0  0  0  0  0  0  0  0  0  0  0  0
    6.0183    0.6310    6.2731 C   0  0  0  0  0  0  0  0  0  0  0  0
    6.5886    0.8722    6.9927 H   0  0  0  0  0  0  0  0  0  0  0  0
    5.4726   -0.6395    6.2149 C   0  0  0  0  0  0  0  0  0  0  0  0
    5.6756   -1.2719    6.8938 H   0  0  0  0  0  0  0  0  0  0  0  0
    4.6445   -0.9877    5.1853 C   0  0  0  0  0  0  0  0  0  0  0  0
    4.2660   -1.8588    5.1606 H   0  0  0  0  0  0  0  0  0  0  0  0
    4.3499   -0.0805    4.1739 C   0  0  0  0  0  0  0  0  0  0  0  0
    3.7872   -0.3318    3.4508 H   0  0  0  0  0  0  0  0  0  0  0  0
    4.8851    1.1913    4.2323 C   0  0  0  0  0  0  0  0  0  0  0  0
    4.6725    1.8202    3.5536 H   0  0  0  0  0  0  0  0  0  0  0  0
    6.7595    3.6869    6.9720 C   0  0  0  0  0  0  0  0  0  0  0  0
    7.9918    4.1955    7.3673 C   0  0  0  0  0  0  0  0  0  0  0  0
    8.6822    4.3162    6.7269 H   0  0  0  0  0  0  0  0  0  0  0  0
    8.2127    4.5284    8.6987 C   0  0  0  0  0  0  0  0  0  0  0  0
    9.0546    4.8766    8.9665 H   0  0  0  0  0  0  0  0  0  0  0  0
    7.2006    4.3539    9.6348 C   0  0  0  0  0  0  0  0  0  0  0  0
    7.3504    4.5813   10.5444 H   0  0  0  0  0  0  0  0  0  0  0  0
    5.9681    3.8451    9.2402 C   0  0  0  0  0  0  0  0  0  0  0  0
    5.2763    3.7244    9.8807 H   0  0  0  0  0  0  0  0  0  0  0  0
    5.7479    3.5108    7.9088 C   0  0  0  0  0  0  0  0  0  0  0  0
    4.9063    3.1630    7.6390 H   0  0  0  0  0  0  0  0  0  0  0  0
    8.1387    2.9275    4.5048 C   0  0  0  0  0  0  0  0  0  0  0  0
    8.7344    3.6988    4.6812 H   0  0  0  0  0  0  0  0  0  0  0  0
    8.5513    2.1139    4.8908 H   0  0  0  0  0  0  0  0  0  0  0  0
    7.9220    2.7546    3.0151 C   0  0  0  0  0  0  0  0  0  0  0  0
    7.4607    1.8975    2.8316 H   0  0  0  0  0  0  0  0  0  0  0  0
    8.7905    2.7536    2.5386 H   0  0  0  0  0  0  0  0  0  0  0  0
    6.1891    3.7079    0.8402 C   0  0  0  0  0  0  0  0  0  0  0  0
    5.7978    2.3873    0.5966 C   0  0  0  0  0  0  0  0  0  0  0  0
    5.9867    1.7090    1.2344 H   0  0  0  0  0  0  0  0  0  0  0  0
    5.1359    2.0740   -0.5772 C   0  0  0  0  0  0  0  0  0  0  0  0
    4.8805    1.1740   -0.7433 H   0  0  0  0  0  0  0  0  0  0  0  0
    4.8402    3.0408   -1.5026 C   0  0  0  0  0  0  0  0  0  0  0  0
    4.3747    2.8129   -2.2979 H   0  0  0  0  0  0  0  0  0  0  0  0
    5.2215    4.3414   -1.2747 C   0  0  0  0  0  0  0  0  0  0  0  0
    5.0219    5.0124   -1.9156 H   0  0  0  0  0  0  0  0  0  0  0  0
    5.8936    4.6754   -0.1139 C   0  0  0  0  0  0  0  0  0  0  0  0
    6.1573    5.5766    0.0330 H   0  0  0  0  0  0  0  0  0  0  0  0
    8.1288    5.4507    2.1188 C   0  0  0  0  0  0  0  0  0  0  0  0
    8.3635    6.4353    3.0692 C   0  0  0  0  0  0  0  0  0  0  0  0
    7.8147    6.4852    3.8428 H   0  0  0  0  0  0  0  0  0  0  0  0
    9.3919    7.3432    2.8967 C   0  0  0  0  0  0  0  0  0  0  0  0
    9.5689    7.9966    3.5633 H   0  0  0  0  0  0  0  0  0  0  0  0
   10.1603    7.2951    1.7508 C   0  0  0  0  0  0  0  0  0  0  0  0
   10.8511    7.9345    1.6186 H   0  0  0  0  0  0  0  0  0  0  0  0
    9.9333    6.3309    0.8033 C   0  0  0  0  0  0  0  0  0  0  0  0
   10.4693    6.3029    0.0194 H   0  0  0  0  0  0  0  0  0  0  0  0
    8.9319    5.4017    0.9826 C   0  0  0  0  0  0  0  0  0  0  0  0
    8.7886    4.7268    0.3299 H   0  0  0  0  0  0  0  0  0  0  0  0
  1  2  1  0  0  0  0
  2  3  1  0  0  0  0
  3  1  1  0  0  0  0
  4  1  1  0  0  0  0
  5  1  1  0  0  0  0
  6  1  1  0  0  0  0
  7  1  1  0  0  0  0
  8 10  1  0  0  0  0
  9 11  1  0  0  0  0
 10 14  1  0  0  0  0
 11 48  1  0  0  0  0
 12 13  1  0  0  0  0
 13  2  1  0  0  0  0
 14  2  1  0  0  0  0
 15  8  1  0  0  0  0
 16 15  1  0  0  0  0
 17 16  1  0  0  0  0
 18 17  1  0  0  0  0
 19 18  1  0  0  0  0
 20 15  1  0  0  0  0
 21 16  1  0  0  0  0
 22 17  1  0  0  0  0
 23 18  1  0  0  0  0
 24 19  1  0  0  0  0
 25 20  1  0  0  0  0
 26  8  1  0  0  0  0
 27 26  1  0  0  0  0
 28 27  1  0  0  0  0
 29 28  1  0  0  0  0
 30 29  1  0  0  0  0
 31 26  1  0  0  0  0
 32 27  1  0  0  0  0
 33 28  1  0  0  0  0
 34 29  1  0  0  0  0
 35 30  1  0  0  0  0
 36 31  1  0  0  0  0
 37  8  1  0  0  0  0
 38 37  1  0  0  0  0
 39 38  1  0  0  0  0
 40 39  1  0  0  0  0
 41 40  1  0  0  0  0
 42 37  1  0  0  0  0
 43 38  1  0  0  0  0
 44 39  1  0  0  0  0
 45 40  1  0  0  0  0
 46 41  1  0  0  0  0
 47 42  1  0  0  0  0
 48  2  1  0  0  0  0
 49  9  1  0  0  0  0
 50 49  1  0  0  0  0
 51 50  1  0  0  0  0
 52 51  1  0  0  0  0
 53 52  1  0  0  0  0
 54 49  1  0  0  0  0
 55 50  1  0  0  0  0
 56 51  1  0  0  0  0
 57 52  1  0  0  0  0
 58 53  1  0  0  0  0
 59 54  1  0  0  0  0
 60  9  1  0  0  0  0
 61 60  1  0  0  0  0
 62 61  1  0  0  0  0
 63 62  1  0  0  0  0
 64 63  1  0  0  0  0
 65 60  1  0  0  0  0
 66 61  1  0  0  0  0
 67 62  1  0  0  0  0
 68 63  1  0  0  0  0
 69 64  1  0  0  0  0
 70 65  1  0  0  0  0
 71  9  1  0  0  0  0
 72 71  1  0  0  0  0
 73 72  1  0  0  0  0
 74 73  1  0  0  0  0
 75 74  1  0  0  0  0
 76 71  1  0  0  0  0
 77 72  1  0  0  0  0
 78 73  1  0  0  0  0
 79 74  1  0  0  0  0
 80 75  1  0  0  0  0
 81 76  1  0  0  0  0
 82  4  1  0  0  0  0
 83 82  1  0  0  0  0
 84 82  1  0  0  0  0
 85 82  1  0  0  0  0
 86 85  1  0  0  0  0
 87 85  1  0  0  0  0
 88  5  1  0  0  0  0
 89 88  1  0  0  0  0
 90 88  1  0  0  0  0
 91  6  1  0  0  0  0
 92 91  1  0  0  0  0
 93 92  1  0  0  0  0
 94 92  1  0  0  0  0
 95 94  1  0  0  0  0
 96 94  1  0  0  0  0
 97 96  1  0  0  0  0
 98 96  1  0  0  0  0
 99 98  1  0  0  0  0
100 91  1  0  0  0  0
101100  1  0  0  0  0
102  6  1  0  0  0  0
103102  1  0  0  0  0
104103  1  0  0  0  0
105103  1  0  0  0  0
106105  1  0  0  0  0
107105  1  0  0  0  0
108107  1  0  0  0  0
109107  1  0  0  0  0
110109  1  0  0  0  0
111102  1  0  0  0  0
112111  1  0  0  0  0
113  6  1  0  0  0  0
114113  1  0  0  0  0
115113  1  0  0  0  0
116  7  1  0  0  0  0
117116  1  0  0  0  0
118116  1  0  0  0  0
119  7  1  0  0  0  0
120119  1  0  0  0  0
121120  1  0  0  0  0
122120  1  0  0  0  0
123122  1  0  0  0  0
124122  1  0  0  0  0
125124  1  0  0  0  0
126124  1  0  0  0  0
127126  1  0  0  0  0
128119  1  0  0  0  0
129128  1  0  0  0  0
130  7  1  0  0  0  0
131130  1  0  0  0  0
132131  1  0  0  0  0
133131  1  0  0  0  0
134133  1  0  0  0  0
135133  1  0  0  0  0
136135  1  0  0  0  0
137135  1  0  0  0  0
138137  1  0  0  0  0
139130  1  0  0  0  0
140139  1  0  0  0  0
  2  4  1  0  0  0  0
  2  5  1  0  0  0  0
 19 20  1  0  0  0  0
 30 31  1  0  0  0  0
 41 42  1  0  0  0  0
 53 54  1  0  0  0  0
 64 65  1  0  0  0  0
 75 76  1  0  0  0  0
 85 88  1  0  0  0  0
 98100  1  0  0  0  0
109111  1  0  0  0  0
113116  1  0  0  0  0
126128  1  0  0  0  0
137139  1  0  0  0  0
M  END
$$$$
UREROB

From CSD data. Using bond type 'Any'. No disordered atoms. Largest molecule.
178186  0  0  0  0  0  0  0  0999 V2000
    1.3250   12.4402   -1.5082 W   0  0  0  0  0  0  0  0  0  0  0  0
    1.5587   13.0745   -3.8664 P   0  0  0  0  0  0  0  0  0  0  0  0
   -0.7128   11.4215   -2.3655 P   0  0  0  0  0  0  0  0  0  0  0  0
    1.5462   11.1175    0.5340 P   0  0  0  0  0  0  0  0  0  0  0  0
    3.5669   13.1162   -0.8455 P   0  0  0  0  0  0  0  0  0  0  0  0
   -2.2242   15.7489   -1.7091 O   0  0  0  0  0  0  0  0  0  0  0  0
   -0.1609   16.8161   -2.0805 O   0  0  0  0  0  0  0  0  0  0  0  0
   -0.0819   12.8480   -4.7023 C   0  0  0  0  0  0  0  0  0  0  0  0
   -0.6399   13.6506   -4.5284 H   0  0  0  0  0  0  0  0  0  0  0  0
    0.0741   12.8100   -5.6911 H   0  0  0  0  0  0  0  0  0  0  0  0
   -0.7785   11.5695   -4.2160 C   0  0  0  0  0  0  0  0  0  0  0  0
   -0.3435   10.7875   -4.6283 H   0  0  0  0  0  0  0  0  0  0  0  0
   -1.7221   11.5930   -4.5139 H   0  0  0  0  0  0  0  0  0  0  0  0
   -2.2990   12.2365   -1.9067 C   0  0  0  0  0  0  0  0  0  0  0  0
   -2.2790   13.1847   -2.2111 H   0  0  0  0  0  0  0  0  0  0  0  0
   -3.0455   11.7975   -2.4204 H   0  0  0  0  0  0  0  0  0  0  0  0
   -2.6235   12.1746   -0.4316 C   0  0  0  0  0  0  0  0  0  0  0  0
   -2.6482   11.2534   -0.1353 H   0  0  0  0  0  0  0  0  0  0  0  0
   -3.4998   12.6020   -0.2705 H   0  0  0  0  0  0  0  0  0  0  0  0
   -1.9358   12.6740    0.0628 H   0  0  0  0  0  0  0  0  0  0  0  0
   -1.1263    9.6446   -2.1483 C   0  0  0  0  0  0  0  0  0  0  0  0
   -1.2096    9.4578   -1.1981 H   0  0  0  0  0  0  0  0  0  0  0  0
   -2.0016    9.4848   -2.5863 H   0  0  0  0  0  0  0  0  0  0  0  0
   -0.0997    8.6931   -2.7505 C   0  0  0  0  0  0  0  0  0  0  0  0
   -0.1891    8.7025   -3.7442 H   0  0  0  0  0  0  0  0  0  0  0  0
   -0.2339    7.8074   -2.4188 H   0  0  0  0  0  0  0  0  0  0  0  0
    0.8094    9.0152   -2.5331 H   0  0  0  0  0  0  0  0  0  0  0  0
    2.7477   12.1797   -4.9632 C   0  0  0  0  0  0  0  0  0  0  0  0
    2.8457   12.7286   -5.7990 H   0  0  0  0  0  0  0  0  0  0  0  0
    3.6359   12.1989   -4.5187 H   0  0  0  0  0  0  0  0  0  0  0  0
    2.3882   10.7405   -5.3288 C   0  0  0  0  0  0  0  0  0  0  0  0
    2.3146   10.2018   -4.5316 H   0  0  0  0  0  0  0  0  0  0  0  0
    3.0925   10.3708   -5.9198 H   0  0  0  0  0  0  0  0  0  0  0  0
    1.5361   10.7318   -5.8264 H   0  0  0  0  0  0  0  0  0  0  0  0
    1.9588   14.8352   -4.2096 C   0  0  0  0  0  0  0  0  0  0  0  0
    1.4170   15.4215   -3.6459 H   0  0  0  0  0  0  0  0  0  0  0  0
    2.9239   14.9987   -3.9551 H   0  0  0  0  0  0  0  0  0  0  0  0
    1.8016   15.3178   -5.6541 C   0  0  0  0  0  0  0  0  0  0  0  0
    2.3939   14.7843   -6.2580 H   0  0  0  0  0  0  0  0  0  0  0  0
    2.0681   16.2630   -5.7410 H   0  0  0  0  0  0  0  0  0  0  0  0
    0.8820   15.2086   -5.9472 H   0  0  0  0  0  0  0  0  0  0  0  0
    0.2636   11.3834    1.8213 C   0  0  0  0  0  0  0  0  0  0  0  0
    0.0332   12.3632    1.8213 H   0  0  0  0  0  0  0  0  0  0  0  0
   -0.5425   10.8963    1.5750 H   0  0  0  0  0  0  0  0  0  0  0  0
    0.6166   11.0021    3.2530 C   0  0  0  0  0  0  0  0  0  0  0  0
    1.0034   10.1135    3.2675 H   0  0  0  0  0  0  0  0  0  0  0  0
   -0.1692   11.0520    3.8182 H   0  0  0  0  0  0  0  0  0  0  0  0
    1.3005   11.6496    3.6024 H   0  0  0  0  0  0  0  0  0  0  0  0
    1.6330    9.2842    0.4896 C   0  0  0  0  0  0  0  0  0  0  0  0
    1.6787    8.9697    1.4316 H   0  0  0  0  0  0  0  0  0  0  0  0
    0.8208    8.9470    0.0854 H   0  0  0  0  0  0  0  0  0  0  0  0
    2.8282    8.6907   -0.2657 C   0  0  0  0  0  0  0  0  0  0  0  0
    2.8438    9.0111   -1.1885 H   0  0  0  0  0  0  0  0  0  0  0  0
    2.7952    7.7200   -0.2448 H   0  0  0  0  0  0  0  0  0  0  0  0
    3.6857    8.9830    0.1723 H   0  0  0  0  0  0  0  0  0  0  0  0
    3.1117   11.5763    1.4220 C   0  0  0  0  0  0  0  0  0  0  0  0
    2.9285   12.3539    2.0436 H   0  0  0  0  0  0  0  0  0  0  0  0
    3.4135   10.8276    2.0001 H   0  0  0  0  0  0  0  0  0  0  0  0
    4.2196   11.9483    0.4445 C   0  0  0  0  0  0  0  0  0  0  0  0
    4.5685   11.1476    0.0225 H   0  0  0  0  0  0  0  0  0  0  0  0
    4.9597   12.4019    0.9389 H   0  0  0  0  0  0  0  0  0  0  0  0
    3.6619   14.7145    0.0338 C   0  0  0  0  0  0  0  0  0  0  0  0
    3.0719   14.6967    0.8213 H   0  0  0  0  0  0  0  0  0  0  0  0
    4.5987   14.8465    0.3656 H   0  0  0  0  0  0  0  0  0  0  0  0
    3.2676   15.8954   -0.8422 C   0  0  0  0  0  0  0  0  0  0  0  0
    3.9313   15.9772   -1.5975 H   0  0  0  0  0  0  0  0  0  0  0  0
    3.2993   16.7290   -0.3334 H   0  0  0  0  0  0  0  0  0  0  0  0
    2.3902   15.7581   -1.2239 H   0  0  0  0  0  0  0  0  0  0  0  0
    4.9709   13.1792   -2.0194 C   0  0  0  0  0  0  0  0  0  0  0  0
    5.0349   12.3323   -2.4929 H   0  0  0  0  0  0  0  0  0  0  0  0
    4.7627   13.8876   -2.7071 H   0  0  0  0  0  0  0  0  0  0  0  0
    6.3416   13.5033   -1.4413 C   0  0  0  0  0  0  0  0  0  0  0  0
    6.3445   14.4403   -1.1257 H   0  0  0  0  0  0  0  0  0  0  0  0
    7.0136   13.4155   -2.1563 H   0  0  0  0  0  0  0  0  0  0  0  0
    6.5308   12.9047   -0.7182 H   0  0  0  0  0  0  0  0  0  0  0  0
    0.4497   13.8757   -0.8455 N   0  0  0  0  0  0  0  0  0  0  0  0
   -0.2028   14.8853   -0.3641 N   0  0  0  0  0  0  0  0  0  0  0  0
   -0.9297   16.0668   -1.0451 B   0  0  0  0  0  0  0  0  0  0  0  0
   -2.1680   16.2499   -2.9631 C   0  0  0  0  0  0  0  0  0  0  0  0
   -3.1297   16.1930   -3.9535 C   0  0  0  0  0  0  0  0  0  0  0  0
   -3.9788   15.7751   -3.8070 H   0  0  0  0  0  0  0  0  0  0  0  0
   -2.8312   16.7801   -5.1871 C   0  0  0  0  0  0  0  0  0  0  0  0
   -3.4773   16.7917   -5.9005 H   0  0  0  0  0  0  0  0  0  0  0  0
   -1.6091   17.3891   -5.4141 C   0  0  0  0  0  0  0  0  0  0  0  0
   -1.4289   17.7555   -6.2741 H   0  0  0  0  0  0  0  0  0  0  0  0
   -0.6265   17.4503   -4.4044 C   0  0  0  0  0  0  0  0  0  0  0  0
    0.2048   17.8780   -4.5655 H   0  0  0  0  0  0  0  0  0  0  0  0
   -0.9325   16.8764   -3.1982 C   0  0  0  0  0  0  0  0  0  0  0  0
    2.2440   10.9629   -2.1901 H   0  0  0  0  0  0  0  0  0  0  0  0
    0.9850   15.8052    1.7091 O   0  0  0  0  0  0  0  0  0  0  0  0
   -1.0783   14.7380    2.0805 O   0  0  0  0  0  0  0  0  0  0  0  0
   -1.6889   17.6784    0.8455 N   0  0  0  0  0  0  0  0  0  0  0  0
   -1.0364   16.6688    0.3641 N   0  0  0  0  0  0  0  0  0  0  0  0
   -0.3095   15.4873    1.0451 B   0  0  0  0  0  0  0  0  0  0  0  0
    0.9288   15.3042    2.9631 C   0  0  0  0  0  0  0  0  0  0  0  0
    1.8905   15.3610    3.9535 C   0  0  0  0  0  0  0  0  0  0  0  0
    2.7396   15.7790    3.8070 H   0  0  0  0  0  0  0  0  0  0  0  0
    1.5920   14.7739    5.1871 C   0  0  0  0  0  0  0  0  0  0  0  0
    2.2381   14.7624    5.9005 H   0  0  0  0  0  0  0  0  0  0  0  0
    0.3699   14.1650    5.4141 C   0  0  0  0  0  0  0  0  0  0  0  0
    0.1897   13.7986    6.2741 H   0  0  0  0  0  0  0  0  0  0  0  0
   -0.6127   14.1038    4.4044 C   0  0  0  0  0  0  0  0  0  0  0  0
   -1.4440   13.6761    4.5655 H   0  0  0  0  0  0  0  0  0  0  0  0
   -0.3067   14.6777    3.1982 C   0  0  0  0  0  0  0  0  0  0  0  0
   -2.5642   19.1139    1.5082 W   0  0  0  0  0  0  0  0  0  0  0  0
   -2.7979   18.4796    3.8664 P   0  0  0  0  0  0  0  0  0  0  0  0
   -0.5264   20.1326    2.3655 P   0  0  0  0  0  0  0  0  0  0  0  0
   -2.7854   20.4366   -0.5340 P   0  0  0  0  0  0  0  0  0  0  0  0
   -4.8062   18.4379    0.8455 P   0  0  0  0  0  0  0  0  0  0  0  0
   -1.1573   18.7061    4.7023 C   0  0  0  0  0  0  0  0  0  0  0  0
   -0.5993   17.9035    4.5284 H   0  0  0  0  0  0  0  0  0  0  0  0
   -1.3133   18.7441    5.6911 H   0  0  0  0  0  0  0  0  0  0  0  0
   -0.4607   19.9846    4.2160 C   0  0  0  0  0  0  0  0  0  0  0  0
   -0.8957   20.7665    4.6283 H   0  0  0  0  0  0  0  0  0  0  0  0
    0.4829   19.9611    4.5139 H   0  0  0  0  0  0  0  0  0  0  0  0
    1.0598   19.3175    1.9067 C   0  0  0  0  0  0  0  0  0  0  0  0
    1.0398   18.3694    2.2111 H   0  0  0  0  0  0  0  0  0  0  0  0
    1.8062   19.7566    2.4204 H   0  0  0  0  0  0  0  0  0  0  0  0
    1.3843   19.3795    0.4316 C   0  0  0  0  0  0  0  0  0  0  0  0
    1.4090   20.3007    0.1353 H   0  0  0  0  0  0  0  0  0  0  0  0
    2.2606   18.9521    0.2705 H   0  0  0  0  0  0  0  0  0  0  0  0
    0.6966   18.8801   -0.0628 H   0  0  0  0  0  0  0  0  0  0  0  0
   -0.1129   21.9094    2.1483 C   0  0  0  0  0  0  0  0  0  0  0  0
   -0.0297   22.0963    1.1981 H   0  0  0  0  0  0  0  0  0  0  0  0
    0.7624   22.0692    2.5863 H   0  0  0  0  0  0  0  0  0  0  0  0
   -1.1395   22.8610    2.7505 C   0  0  0  0  0  0  0  0  0  0  0  0
   -1.0501   22.8516    3.7442 H   0  0  0  0  0  0  0  0  0  0  0  0
   -1.0053   23.7466    2.4188 H   0  0  0  0  0  0  0  0  0  0  0  0
   -2.0486   22.5389    2.5331 H   0  0  0  0  0  0  0  0  0  0  0  0
   -3.9869   19.3744    4.9632 C   0  0  0  0  0  0  0  0  0  0  0  0
   -4.0849   18.8255    5.7990 H   0  0  0  0  0  0  0  0  0  0  0  0
   -4.8751   19.3552    4.5187 H   0  0  0  0  0  0  0  0  0  0  0  0
   -3.6274   20.8136    5.3288 C   0  0  0  0  0  0  0  0  0  0  0  0
   -3.5538   21.3523    4.5316 H   0  0  0  0  0  0  0  0  0  0  0  0
   -4.3317   21.1832    5.9198 H   0  0  0  0  0  0  0  0  0  0  0  0
   -2.7753   20.8223    5.8264 H   0  0  0  0  0  0  0  0  0  0  0  0
   -3.1980   16.7189    4.2096 C   0  0  0  0  0  0  0  0  0  0  0  0
   -2.6562   16.1326    3.6459 H   0  0  0  0  0  0  0  0  0  0  0  0
   -4.1631   16.5553    3.9551 H   0  0  0  0  0  0  0  0  0  0  0  0
   -3.0408   16.2363    5.6541 C   0  0  0  0  0  0  0  0  0  0  0  0
   -3.6331   16.7697    6.2580 H   0  0  0  0  0  0  0  0  0  0  0  0
   -3.3073   15.2910    5.7410 H   0  0  0  0  0  0  0  0  0  0  0  0
   -2.1212   16.3454    5.9472 H   0  0  0  0  0  0  0  0  0  0  0  0
   -1.5028   20.1706   -1.8213 C   0  0  0  0  0  0  0  0  0  0  0  0
   -1.2724   19.1909   -1.8213 H   0  0  0  0  0  0  0  0  0  0  0  0
   -0.6967   20.6578   -1.5750 H   0  0  0  0  0  0  0  0  0  0  0  0
   -1.8558   20.5520   -3.2530 C   0  0  0  0  0  0  0  0  0  0  0  0
   -2.2426   21.4405   -3.2675 H   0  0  0  0  0  0  0  0  0  0  0  0
   -1.0700   20.5021   -3.8182 H   0  0  0  0  0  0  0  0  0  0  0  0
   -2.5397   19.9044   -3.6024 H   0  0  0  0  0  0  0  0  0  0  0  0
   -2.8722   22.2699   -0.4896 C   0  0  0  0  0  0  0  0  0  0  0  0
   -2.9179   22.5844   -1.4316 H   0  0  0  0  0  0  0  0  0  0  0  0
   -2.0600   22.6071   -0.0854 H   0  0  0  0  0  0  0  0  0  0  0  0
   -4.0675   22.8633    0.2657 C   0  0  0  0  0  0  0  0  0  0  0  0
   -4.0830   22.5430    1.1885 H   0  0  0  0  0  0  0  0  0  0  0  0
   -4.0344   23.8341    0.2448 H   0  0  0  0  0  0  0  0  0  0  0  0
   -4.9249   22.5710   -0.1723 H   0  0  0  0  0  0  0  0  0  0  0  0
   -4.3509   19.9778   -1.4220 C   0  0  0  0  0  0  0  0  0  0  0  0
   -4.1677   19.2002   -2.0436 H   0  0  0  0  0  0  0  0  0  0  0  0
   -4.6528   20.7265   -2.0001 H   0  0  0  0  0  0  0  0  0  0  0  0
   -5.4589   19.6058   -0.4445 C   0  0  0  0  0  0  0  0  0  0  0  0
   -5.8077   20.4065   -0.0225 H   0  0  0  0  0  0  0  0  0  0  0  0
   -6.1989   19.1522   -0.9389 H   0  0  0  0  0  0  0  0  0  0  0  0
   -4.9011   16.8395   -0.0338 C   0  0  0  0  0  0  0  0  0  0  0  0
   -4.3111   16.8573   -0.8213 H   0  0  0  0  0  0  0  0  0  0  0  0
   -5.8379   16.7075   -0.3656 H   0  0  0  0  0  0  0  0  0  0  0  0
   -4.5068   15.6587    0.8422 C   0  0  0  0  0  0  0  0  0  0  0  0
   -5.1705   15.5769    1.5975 H   0  0  0  0  0  0  0  0  0  0  0  0
   -4.5385   14.8251    0.3334 H   0  0  0  0  0  0  0  0  0  0  0  0
   -3.6294   15.7960    1.2239 H   0  0  0  0  0  0  0  0  0  0  0  0
   -6.2101   18.3749    2.0194 C   0  0  0  0  0  0  0  0  0  0  0  0
   -6.2741   19.2218    2.4929 H   0  0  0  0  0  0  0  0  0  0  0  0
   -6.0019   17.6665    2.7071 H   0  0  0  0  0  0  0  0  0  0  0  0
   -7.5808   18.0508    1.4413 C   0  0  0  0  0  0  0  0  0  0  0  0
   -7.5837   17.1138    1.1257 H   0  0  0  0  0  0  0  0  0  0  0  0
   -8.2528   18.1386    2.1563 H   0  0  0  0  0  0  0  0  0  0  0  0
   -7.7700   18.6494    0.7182 H   0  0  0  0  0  0  0  0  0  0  0  0
   -3.4832   20.5912    2.1901 H   0  0  0  0  0  0  0  0  0  0  0  0
  1  2  1  0  0  0  0
  2  8  1  0  0  0  0
  3  1  1  0  0  0  0
  4  1  1  0  0  0  0
  5  1  1  0  0  0  0
  6 78  1  0  0  0  0
  7 78  1  0  0  0  0
  8  9  1  0  0  0  0
 10  8  1  0  0  0  0
 11  3  1  0  0  0  0
 12 11  1  0  0  0  0
 13 11  1  0  0  0  0
 14  3  1  0  0  0  0
 15 14  1  0  0  0  0
 16 14  1  0  0  0  0
 17 14  1  0  0  0  0
 18 17  1  0  0  0  0
 19 17  1  0  0  0  0
 20 17  1  0  0  0  0
 21  3  1  0  0  0  0
 22 21  1  0  0  0  0
 23 21  1  0  0  0  0
 24 21  1  0  0  0  0
 25 24  1  0  0  0  0
 26 24  1  0  0  0  0
 27 24  1  0  0  0  0
 28  2  1  0  0  0  0
 29 28  1  0  0  0  0
 30 28  1  0  0  0  0
 31 28  1  0  0  0  0
 32 31  1  0  0  0  0
 33 31  1  0  0  0  0
 34 31  1  0  0  0  0
 35  2  1  0  0  0  0
 36 35  1  0  0  0  0
 37 35  1  0  0  0  0
 38 35  1  0  0  0  0
 39 38  1  0  0  0  0
 40 38  1  0  0  0  0
 41 38  1  0  0  0  0
 42  4  1  0  0  0  0
 43 42  1  0  0  0  0
 44 42  1  0  0  0  0
 45 42  1  0  0  0  0
 46 45  1  0  0  0  0
 47 45  1  0  0  0  0
 48 45  1  0  0  0  0
 49  4  1  0  0  0  0
 50 49  1  0  0  0  0
 51 49  1  0  0  0  0
 52 49  1  0  0  0  0
 53 52  1  0  0  0  0
 54 52  1  0  0  0  0
 55 52  1  0  0  0  0
 56  4  1  0  0  0  0
 57 56  1  0  0  0  0
 58 56  1  0  0  0  0
 59  5  1  0  0  0  0
 60 59  1  0  0  0  0
 61 59  1  0  0  0  0
 62  5  1  0  0  0  0
 63 62  1  0  0  0  0
 64 62  1  0  0  0  0
 65 62  1  0  0  0  0
 66 65  1  0  0  0  0
 67 65  1  0  0  0  0
 68 65  1  0  0  0  0
 69  5  1  0  0  0  0
 70 69  1  0  0  0  0
 71 69  1  0  0  0  0
 72 69  1  0  0  0  0
 73 72  1  0  0  0  0
 74 72  1  0  0  0  0
 75 72  1  0  0  0  0
 76  1  2  0  0  0  0
 77 76  2  0  0  0  0
 78 77  1  0  0  0  0
 79  6  1  0  0  0  0
 80 79  4  0  0  0  0
 81 80  1  0  0  0  0
 82 80  4  0  0  0  0
 83 82  1  0  0  0  0
 84 82  4  0  0  0  0
 85 84  1  0  0  0  0
 86 84  4  0  0  0  0
 87 86  1  0  0  0  0
 88  7  1  0  0  0  0
 89  1  1  0  0  0  0
 90 94  1  0  0  0  0
 91 94  1  0  0  0  0
 92 93  2  0  0  0  0
 93 78  1  0  0  0  0
 94 77  1  0  0  0  0
 95 90  1  0  0  0  0
 96 95  4  0  0  0  0
 97 96  1  0  0  0  0
 98 96  4  0  0  0  0
 99 98  1  0  0  0  0
100 98  4  0  0  0  0
101100  1  0  0  0  0
102100  4  0  0  0  0
103102  1  0  0  0  0
104 91  1  0  0  0  0
105 92  2  0  0  0  0
106105  1  0  0  0  0
107105  1  0  0  0  0
108105  1  0  0  0  0
109105  1  0  0  0  0
110106  1  0  0  0  0
111110  1  0  0  0  0
112110  1  0  0  0  0
113107  1  0  0  0  0
114113  1  0  0  0  0
115113  1  0  0  0  0
116107  1  0  0  0  0
117116  1  0  0  0  0
118116  1  0  0  0  0
119116  1  0  0  0  0
120119  1  0  0  0  0
121119  1  0  0  0  0
122119  1  0  0  0  0
123107  1  0  0  0  0
124123  1  0  0  0  0
125123  1  0  0  0  0
126123  1  0  0  0  0
127126  1  0  0  0  0
128126  1  0  0  0  0
129126  1  0  0  0  0
130106  1  0  0  0  0
131130  1  0  0  0  0
132130  1  0  0  0  0
133130  1  0  0  0  0
134133  1  0  0  0  0
135133  1  0  0  0  0
136133  1  0  0  0  0
137106  1  0  0  0  0
138137  1  0  0  0  0
139137  1  0  0  0  0
140137  1  0  0  0  0
141140  1  0  0  0  0
142140  1  0  0  0  0
143140  1  0  0  0  0
144108  1  0  0  0  0
145144  1  0  0  0  0
146144  1  0  0  0  0
147144  1  0  0  0  0
148147  1  0  0  0  0
149147  1  0  0  0  0
150147  1  0  0  0  0
151108  1  0  0  0  0
152151  1  0  0  0  0
153151  1  0  0  0  0
154151  1  0  0  0  0
155154  1  0  0  0  0
156154  1  0  0  0  0
157154  1  0  0  0  0
158108  1  0  0  0  0
159158  1  0  0  0  0
160158  1  0  0  0  0
161109  1  0  0  0  0
162161  1  0  0  0  0
163161  1  0  0  0  0
164109  1  0  0  0  0
165164  1  0  0  0  0
166164  1  0  0  0  0
167164  1  0  0  0  0
168167  1  0  0  0  0
169167  1  0  0  0  0
170167  1  0  0  0  0
171109  1  0  0  0  0
172171  1  0  0  0  0
173171  1  0  0  0  0
174171  1  0  0  0  0
175174  1  0  0  0  0
176174  1  0  0  0  0
177174  1  0  0  0  0
178105  1  0  0  0  0
  8 11  1  0  0  0  0
 56 59  1  0  0  0  0
 79 88  4  0  0  0  0
 86 88  4  0  0  0  0
 93 94  1  0  0  0  0
 95104  4  0  0  0  0
102104  4  0  0  0  0
110113  1  0  0  0  0
158161  1  0  0  0  0
M  END
$$$$
URISAR

From CSD data. Using bond type 'Any'. No disordered atoms. Largest molecule.
 80 81  0  0  0  0  0  0  0  0999 V2000
    3.9053    9.9100   27.1101 P   0  3  0  0  0  0  0  0  0  0  0  0
    5.2422    7.1946   23.8009 P   0  3  0  0  0  0  0  0  0  0  0  0
    1.2778    4.4311   28.7807 O   0  0  0  0  0  0  0  0  0  0  0  0
    1.4831    7.3500   29.0656 O   0  0  0  0  0  0  0  0  0  0  0  0
    4.4452    4.6158   25.6568 O   0  0  0  0  0  0  0  0  0  0  0  0
    2.8755    2.8262   27.2757 O   0  0  0  0  0  0  0  0  0  0  0  0
    5.0498   11.0641   28.0153 C   0  0  0  0  0  0  0  0  0  0  0  0
    0.4153    2.4939   30.0031 C   0  0  0  0  0  0  0  0  0  0  0  0
   -0.1546    3.0331   30.5404 H   0  0  0  0  0  0  0  0  0  0  0  0
    0.3166    6.6015   28.7574 C   0  0  0  0  0  0  0  0  0  0  0  0
    0.2646    6.4664   27.7774 H   0  0  0  0  0  0  0  0  0  0  0  0
   -0.4832    7.1132   29.0377 H   0  0  0  0  0  0  0  0  0  0  0  0
    5.0551    4.4593   24.3906 C   0  0  0  0  0  0  0  0  0  0  0  0
    4.8405    3.5663   24.0208 H   0  0  0  0  0  0  0  0  0  0  0  0
    6.0389    4.5316   24.4777 H   0  0  0  0  0  0  0  0  0  0  0  0
    3.2174    8.8123   28.4048 C   0  0  0  0  0  0  0  0  0  0  0  0
    3.9700    8.3569   28.8599 H   0  0  0  0  0  0  0  0  0  0  0  0
    2.7595    9.3749   29.0776 H   0  0  0  0  0  0  0  0  0  0  0  0
    1.2345    3.0868   29.0396 C   0  0  0  0  0  0  0  0  0  0  0  0
    4.9838    3.6968   26.5998 C   0  0  0  0  0  0  0  0  0  0  0  0
    5.8583    4.0261   26.9279 H   0  0  0  0  0  0  0  0  0  0  0  0
    5.1264    2.8170   26.1674 H   0  0  0  0  0  0  0  0  0  0  0  0
    4.9705    8.8874   26.0410 C   0  0  0  0  0  0  0  0  0  0  0  0
    5.5157    9.4857   25.4713 H   0  0  0  0  0  0  0  0  0  0  0  0
    5.5910    8.3708   26.6120 H   0  0  0  0  0  0  0  0  0  0  0  0
    4.0286    3.5508   27.7519 C   0  0  0  0  0  0  0  0  0  0  0  0
    4.4606    3.0566   28.4919 H   0  0  0  0  0  0  0  0  0  0  0  0
    3.7580    4.4430   28.0871 H   0  0  0  0  0  0  0  0  0  0  0  0
    2.0903    0.9072   28.4535 C   0  0  0  0  0  0  0  0  0  0  0  0
    2.6622    0.3629   27.9246 H   0  0  0  0  0  0  0  0  0  0  0  0
    0.3173    5.2627   29.4450 C   0  0  0  0  0  0  0  0  0  0  0  0
    0.5592    5.3695   30.3993 H   0  0  0  0  0  0  0  0  0  0  0  0
   -0.5826    4.8529   29.3935 H   0  0  0  0  0  0  0  0  0  0  0  0
    1.2624    0.3212   29.3999 C   0  0  0  0  0  0  0  0  0  0  0  0
    1.2651   -0.6219   29.5131 H   0  0  0  0  0  0  0  0  0  0  0  0
    4.2879   11.7156   29.1696 C   0  0  0  0  0  0  0  0  0  0  0  0
    4.8278   12.4398   29.5499 H   0  0  0  0  0  0  0  0  0  0  0  0
    4.1066   11.0451   29.8596 H   0  0  0  0  0  0  0  0  0  0  0  0
    3.4407   12.0797   28.8384 H   0  0  0  0  0  0  0  0  0  0  0  0
    4.1999    7.9024   25.1299 C   0  0  0  0  0  0  0  0  0  0  0  0
    3.4327    8.3749   24.7199 H   0  0  0  0  0  0  0  0  0  0  0  0
    3.8400    7.1644   25.6829 H   0  0  0  0  0  0  0  0  0  0  0  0
    4.9031    8.1834   22.2679 C   0  0  0  0  0  0  0  0  0  0  0  0
    5.0544    9.6797   22.5988 C   0  0  0  0  0  0  0  0  0  0  0  0
    4.9498   10.2072   21.7791 H   0  0  0  0  0  0  0  0  0  0  0  0
    5.9423    9.8416   22.9812 H   0  0  0  0  0  0  0  0  0  0  0  0
    4.3672    9.9427   23.2449 H   0  0  0  0  0  0  0  0  0  0  0  0
    2.0883    2.2813   28.2732 C   0  0  0  0  0  0  0  0  0  0  0  0
    3.4914    7.9115   21.7367 C   0  0  0  0  0  0  0  0  0  0  0  0
    3.3034    8.5120   20.9848 H   0  0  0  0  0  0  0  0  0  0  0  0
    2.8382    8.0661   22.4507 H   0  0  0  0  0  0  0  0  0  0  0  0
    3.4301    6.9816   21.4325 H   0  0  0  0  0  0  0  0  0  0  0  0
    2.2409    7.7539   27.9215 C   0  0  0  0  0  0  0  0  0  0  0  0
    1.6444    8.1270   27.2254 H   0  0  0  0  0  0  0  0  0  0  0  0
    2.7289    6.9816   27.5412 H   0  0  0  0  0  0  0  0  0  0  0  0
    7.0968    7.0814   24.2805 B   0  5  0  0  0  0  0  0  0  0  0  0
    7.4880    7.9802   24.2845 H   0  0  0  0  0  0  0  0  0  0  0  0
    7.5693    6.5232   23.6282 H   0  0  0  0  0  0  0  0  0  0  0  0
    7.1801    6.6839   25.1738 H   0  0  0  0  0  0  0  0  0  0  0  0
    6.2796   10.3288   28.5685 C   0  0  0  0  0  0  0  0  0  0  0  0
    6.8401   10.9593   29.0684 H   0  0  0  0  0  0  0  0  0  0  0  0
    6.7955    9.9496   27.8264 H   0  0  0  0  0  0  0  0  0  0  0  0
    5.9883    9.6075   29.1665 H   0  0  0  0  0  0  0  0  0  0  0  0
    0.4346    1.1073   30.1779 C   0  0  0  0  0  0  0  0  0  0  0  0
   -0.1233    0.7049   30.8317 H   0  0  0  0  0  0  0  0  0  0  0  0
    4.5345    5.5476   23.4593 C   0  0  0  0  0  0  0  0  0  0  0  0
    3.5494    5.5980   23.5454 H   0  0  0  0  0  0  0  0  0  0  0  0
    4.7432    5.2961   22.5243 H   0  0  0  0  0  0  0  0  0  0  0  0
    5.9476    7.7877   21.2016 C   0  0  0  0  0  0  0  0  0  0  0  0
    5.8570    6.8334   20.9940 H   0  0  0  0  0  0  0  0  0  0  0  0
    6.8481    7.9622   21.5460 H   0  0  0  0  0  0  0  0  0  0  0  0
    5.8003    8.3154   20.3899 H   0  0  0  0  0  0  0  0  0  0  0  0
    5.5044   12.1480   27.0181 C   0  0  0  0  0  0  0  0  0  0  0  0
    4.7218   12.6351   26.6856 H   0  0  0  0  0  0  0  0  0  0  0  0
    5.9703   11.7252   26.2655 H   0  0  0  0  0  0  0  0  0  0  0  0
    6.1103   12.7722   27.4676 H   0  0  0  0  0  0  0  0  0  0  0  0
    2.5702   10.8582   26.1146 B   0  5  0  0  0  0  0  0  0  0  0  0
    2.9855   11.2875   25.3363 H   0  0  0  0  0  0  0  0  0  0  0  0
    2.1610   11.5423   26.6856 H   0  0  0  0  0  0  0  0  0  0  0  0
    1.8810   10.2308   25.8117 H   0  0  0  0  0  0  0  0  0  0  0  0
  1  7  1  0  0  0  0
  2 40  1  0  0  0  0
  3 19  1  0  0  0  0
  4 10  1  0  0  0  0
  5 13  1  0  0  0  0
  6 26  1  0  0  0  0
  7 36  1  0  0  0  0
  8  9  1  0  0  0  0
 10 11  1  0  0  0  0
 12 10  1  0  0  0  0
 13 14  1  0  0  0  0
 15 13  1  0  0  0  0
 16  1  1  0  0  0  0
 17 16  1  0  0  0  0
 18 16  1  0  0  0  0
 19  8  4  0  0  0  0
 20  5  1  0  0  0  0
 21 20  1  0  0  0  0
 22 20  1  0  0  0  0
 23  1  1  0  0  0  0
 24 23  1  0  0  0  0
 25 23  1  0  0  0  0
 26 20  1  0  0  0  0
 27 26  1  0  0  0  0
 28 26  1  0  0  0  0
 29 30  1  0  0  0  0
 31  3  1  0  0  0  0
 32 31  1  0  0  0  0
 33 31  1  0  0  0  0
 34 29  4  0  0  0  0
 35 34  1  0  0  0  0
 36 37  1  0  0  0  0
 38 36  1  0  0  0  0
 39 36  1  0  0  0  0
 40 23  1  0  0  0  0
 41 40  1  0  0  0  0
 42 40  1  0  0  0  0
 43  2  1  0  0  0  0
 44 43  1  0  0  0  0
 45 44  1  0  0  0  0
 46 44  1  0  0  0  0
 47 44  1  0  0  0  0
 48  6  1  0  0  0  0
 49 43  1  0  0  0  0
 50 49  1  0  0  0  0
 51 49  1  0  0  0  0
 52 49  1  0  0  0  0
 53  4  1  0  0  0  0
 54 53  1  0  0  0  0
 55 53  1  0  0  0  0
 56  2  1  0  0  0  0
 57 56  1  0  0  0  0
 58 56  1  0  0  0  0
 59 56  1  0  0  0  0
 60  7  1  0  0  0  0
 61 60  1  0  0  0  0
 62 60  1  0  0  0  0
 63 60  1  0  0  0  0
 64  8  4  0  0  0  0
 65 64  1  0  0  0  0
 66  2  1  0  0  0  0
 67 66  1  0  0  0  0
 68 66  1  0  0  0  0
 69 43  1  0  0  0  0
 70 69  1  0  0  0  0
 71 69  1  0  0  0  0
 72 69  1  0  0  0  0
 73  7  1  0  0  0  0
 74 73  1  0  0  0  0
 75 73  1  0  0  0  0
 76 73  1  0  0  0  0
 77  1  1  0  0  0  0
 78 77  1  0  0  0  0
 79 77  1  0  0  0  0
 80 77  1  0  0  0  0
 10 31  1  0  0  0  0
 13 66  1  0  0  0  0
 16 53  1  0  0  0  0
 19 48  4  0  0  0  0
 29 48  4  0  0  0  0
 34 64  4  0  0  0  0
M  CHG  4   1   1   2   1  56  -1  77  -1
M  END
$$$$
URISEV

From CSD data. Using bond type 'Any'. No disordered atoms. Largest molecule.
 66 67  0  0  0  0  0  0  0  0999 V2000
    3.4504   13.3253   17.1687 P   0  3  0  0  0  0  0  0  0  0  0  0
    5.1813   13.1130   16.6195 C   0  0  0  0  0  0  0  0  0  0  0  0
    5.2411   13.4119   15.6776 H   0  0  0  0  0  0  0  0  0  0  0  0
    5.7484   13.7212   17.1574 H   0  0  0  0  0  0  0  0  0  0  0  0
    5.7669   11.7420   16.7051 C   0  0  0  0  0  0  0  0  0  0  0  0
    6.7313   11.7649   16.4854 H   0  0  0  0  0  0  0  0  0  0  0  0
    5.6602   11.3790   17.6190 H   0  0  0  0  0  0  0  0  0  0  0  0
    5.0539   10.9254   15.7541 O   0  0  0  0  0  0  0  0  0  0  0  0
    5.3565    9.6060   15.6497 C   0  0  0  0  0  0  0  0  0  0  0  0
    6.4407    8.9783   16.2342 C   0  0  0  0  0  0  0  0  0  0  0  0
    7.0535    9.4788   16.7609 H   0  0  0  0  0  0  0  0  0  0  0  0
    6.6333    7.6062   16.0462 C   0  0  0  0  0  0  0  0  0  0  0  0
    7.3604    7.1675   16.4743 H   0  0  0  0  0  0  0  0  0  0  0  0
    5.7701    6.8846   15.2440 C   0  0  0  0  0  0  0  0  0  0  0  0
    5.9280    5.9592   15.0951 H   0  0  0  0  0  0  0  0  0  0  0  0
    4.6653    7.5066   14.6484 C   0  0  0  0  0  0  0  0  0  0  0  0
    4.0645    7.0072   14.1067 H   0  0  0  0  0  0  0  0  0  0  0  0
    4.4629    8.8535   14.8587 C   0  0  0  0  0  0  0  0  0  0  0  0
    3.4233    9.5945   14.3424 O   0  0  0  0  0  0  0  0  0  0  0  0
    2.2750    8.8855   13.8182 C   0  0  0  0  0  0  0  0  0  0  0  0
    2.1367    8.0380   14.3096 H   0  0  0  0  0  0  0  0  0  0  0  0
    2.4023    8.6794   12.8597 H   0  0  0  0  0  0  0  0  0  0  0  0
    1.0852    9.8087   14.0099 C   0  0  0  0  0  0  0  0  0  0  0  0
    0.3113    9.3952   13.5521 H   0  0  0  0  0  0  0  0  0  0  0  0
    1.2855   10.6540   13.5334 H   0  0  0  0  0  0  0  0  0  0  0  0
    0.5471   10.2493   15.7145 P   0  3  0  0  0  0  0  0  0  0  0  0
    1.9386   11.0147   16.6213 C   0  0  0  0  0  0  0  0  0  0  0  0
    1.6741   11.1430   17.5669 H   0  0  0  0  0  0  0  0  0  0  0  0
    2.7104   10.3951   16.6064 H   0  0  0  0  0  0  0  0  0  0  0  0
    2.3718   12.3639   16.0387 C   0  0  0  0  0  0  0  0  0  0  0  0
    1.5653   12.8988   15.8321 H   0  0  0  0  0  0  0  0  0  0  0  0
    2.8562   12.2070   15.1881 H   0  0  0  0  0  0  0  0  0  0  0  0
    3.2328   12.8507   19.0094 B   0  5  0  0  0  0  0  0  0  0  0  0
    3.5583   11.9379   19.1508 H   0  0  0  0  0  0  0  0  0  0  0  0
    2.2848   12.9023   19.2495 H   0  0  0  0  0  0  0  0  0  0  0  0
    3.7455   13.4715   19.5696 H   0  0  0  0  0  0  0  0  0  0  0  0
    3.0761   15.0921   16.7795 C   0  0  0  0  0  0  0  0  0  0  0  0
    3.1283   15.3705   15.2719 C   0  0  0  0  0  0  0  0  0  0  0  0
    4.0383   15.2147   14.9424 H   0  0  0  0  0  0  0  0  0  0  0  0
    2.8758   16.3028   15.1044 H   0  0  0  0  0  0  0  0  0  0  0  0
    2.5057   14.7737   14.8084 H   0  0  0  0  0  0  0  0  0  0  0  0
    4.0590   16.0176   17.5110 C   0  0  0  0  0  0  0  0  0  0  0  0
    3.7891   16.9510   17.3789 H   0  0  0  0  0  0  0  0  0  0  0  0
    4.9614   15.8847   17.1555 H   0  0  0  0  0  0  0  0  0  0  0  0
    4.0514   15.8103   18.4696 H   0  0  0  0  0  0  0  0  0  0  0  0
    1.6425   15.3876   17.2895 C   0  0  0  0  0  0  0  0  0  0  0  0
    1.0123   14.7657   16.8689 H   0  0  0  0  0  0  0  0  0  0  0  0
    1.3976   16.3085   17.0569 H   0  0  0  0  0  0  0  0  0  0  0  0
    1.6121   15.2777   18.2630 H   0  0  0  0  0  0  0  0  0  0  0  0
   -0.9448   11.4649   15.5790 B   0  5  0  0  0  0  0  0  0  0  0  0
   -0.7456   12.1543   14.9127 H   0  0  0  0  0  0  0  0  0  0  0  0
   -1.1016   11.8875   16.4501 H   0  0  0  0  0  0  0  0  0  0  0  0
   -1.7460   10.9701   15.3091 H   0  0  0  0  0  0  0  0  0  0  0  0
    0.1796    8.7023   16.6679 C   0  0  0  0  0  0  0  0  0  0  0  0
    1.4390    8.0013   17.1946 C   0  0  0  0  0  0  0  0  0  0  0  0
    1.1810    7.1916   17.6823 H   0  0  0  0  0  0  0  0  0  0  0  0
    1.9212    8.6061   17.7958 H   0  0  0  0  0  0  0  0  0  0  0  0
    2.0170    7.7597   16.4408 H   0  0  0  0  0  0  0  0  0  0  0  0
   -0.6139    7.7310   15.7633 C   0  0  0  0  0  0  0  0  0  0  0  0
   -1.4118    8.1835   15.4189 H   0  0  0  0  0  0  0  0  0  0  0  0
   -0.8828    6.9453   16.2844 H   0  0  0  0  0  0  0  0  0  0  0  0
   -0.0490    7.4481   15.0132 H   0  0  0  0  0  0  0  0  0  0  0  0
   -0.7086    9.0917   17.8628 C   0  0  0  0  0  0  0  0  0  0  0  0
   -0.2286    9.7297   18.4324 H   0  0  0  0  0  0  0  0  0  0  0  0
   -0.9263    8.2911   18.3840 H   0  0  0  0  0  0  0  0  0  0  0  0
   -1.5348    9.5040   17.5352 H   0  0  0  0  0  0  0  0  0  0  0  0
  1  2  1  0  0  0  0
  2  3  1  0  0  0  0
  4  2  1  0  0  0  0
  5  2  1  0  0  0  0
  6  5  1  0  0  0  0
  7  5  1  0  0  0  0
  8  5  1  0  0  0  0
  9  8  1  0  0  0  0
 10  9  4  0  0  0  0
 11 10  1  0  0  0  0
 12 10  4  0  0  0  0
 13 12  1  0  0  0  0
 14 12  4  0  0  0  0
 15 14  1  0  0  0  0
 16 14  4  0  0  0  0
 17 16  1  0  0  0  0
 18  9  4  0  0  0  0
 19 18  1  0  0  0  0
 20 19  1  0  0  0  0
 21 20  1  0  0  0  0
 22 20  1  0  0  0  0
 23 20  1  0  0  0  0
 24 23  1  0  0  0  0
 25 23  1  0  0  0  0
 26 23  1  0  0  0  0
 27 26  1  0  0  0  0
 28 27  1  0  0  0  0
 29 27  1  0  0  0  0
 30  1  1  0  0  0  0
 31 30  1  0  0  0  0
 32 30  1  0  0  0  0
 33  1  1  0  0  0  0
 34 33  1  0  0  0  0
 35 33  1  0  0  0  0
 36 33  1  0  0  0  0
 37  1  1  0  0  0  0
 38 37  1  0  0  0  0
 39 38  1  0  0  0  0
 40 38  1  0  0  0  0
 41 38  1  0  0  0  0
 42 37  1  0  0  0  0
 43 42  1  0  0  0  0
 44 42  1  0  0  0  0
 45 42  1  0  0  0  0
 46 37  1  0  0  0  0
 47 46  1  0  0  0  0
 48 46  1  0  0  0  0
 49 46  1  0  0  0  0
 50 26  1  0  0  0  0
 51 50  1  0  0  0  0
 52 50  1  0  0  0  0
 53 50  1  0  0  0  0
 54 26  1  0  0  0  0
 55 54  1  0  0  0  0
 56 55  1  0  0  0  0
 57 55  1  0  0  0  0
 58 55  1  0  0  0  0
 59 54  1  0  0  0  0
 60 59  1  0  0  0  0
 61 59  1  0  0  0  0
 62 59  1  0  0  0  0
 63 54  1  0  0  0  0
 64 63  1  0  0  0  0
 65 63  1  0  0  0  0
 66 63  1  0  0  0  0
 16 18  4  0  0  0  0
 27 30  1  0  0  0  0
M  CHG  4   1   1  26   1  33  -1  50  -1
M  END
$$$$
USELAG

From CSD data. Using bond type 'Any'. No disordered atoms. Largest molecule.
100109  0  0  0  0  0  0  0  0999 V2000
   -1.3945    3.6221    4.4232 C   0  0  0  0  0  0  0  0  0  0  0  0
   -2.0461    3.9932    5.0856 H   0  0  0  0  0  0  0  0  0  0  0  0
   -1.8356    1.4129    6.1406 C   0  0  0  0  0  0  0  0  0  0  0  0
   -3.1319    1.8093    6.4508 C   0  0  0  0  0  0  0  0  0  0  0  0
   -3.6196    2.3501    5.8400 H   0  0  0  0  0  0  0  0  0  0  0  0
   -3.7185    1.4202    7.6474 C   0  0  0  0  0  0  0  0  0  0  0  0
   -4.6070    1.6925    7.8495 H   0  0  0  0  0  0  0  0  0  0  0  0
   -3.0177    0.6427    8.5427 C   0  0  0  0  0  0  0  0  0  0  0  0
   -3.4170    0.3871    9.3664 H   0  0  0  0  0  0  0  0  0  0  0  0
   -1.7423    0.2379    8.2420 C   0  0  0  0  0  0  0  0  0  0  0  0
   -1.2656   -0.3113    8.8543 H   0  0  0  0  0  0  0  0  0  0  0  0
   -1.1396    0.6251    7.0494 C   0  0  0  0  0  0  0  0  0  0  0  0
   -0.2514    0.3508    6.8561 H   0  0  0  0  0  0  0  0  0  0  0  0
   -1.7617    0.8738    3.2998 C   0  0  0  0  0  0  0  0  0  0  0  0
   -2.9748    0.2221    3.4759 C   0  0  0  0  0  0  0  0  0  0  0  0
   -3.4300    0.2829    4.3068 H   0  0  0  0  0  0  0  0  0  0  0  0
   -3.5228   -0.5201    2.4355 C   0  0  0  0  0  0  0  0  0  0  0  0
   -4.3532   -0.9631    2.5607 H   0  0  0  0  0  0  0  0  0  0  0  0
   -2.8724   -0.6176    1.2231 C   0  0  0  0  0  0  0  0  0  0  0  0
   -3.2486   -1.1287    0.5170 H   0  0  0  0  0  0  0  0  0  0  0  0
   -1.6684    0.0379    1.0488 C   0  0  0  0  0  0  0  0  0  0  0  0
   -1.2164   -0.0218    0.2162 H   0  0  0  0  0  0  0  0  0  0  0  0
   -1.1160    0.7787    2.0786 C   0  0  0  0  0  0  0  0  0  0  0  0
   -0.2891    1.2261    1.9461 H   0  0  0  0  0  0  0  0  0  0  0  0
   -2.0513    6.1278    3.2409 C   0  0  0  0  0  0  0  0  0  0  0  0
   -3.4303    6.2738    3.1881 C   0  0  0  0  0  0  0  0  0  0  0  0
   -3.9737    5.5226    2.9834 H   0  0  0  0  0  0  0  0  0  0  0  0
   -4.0219    7.4984    3.4297 C   0  0  0  0  0  0  0  0  0  0  0  0
   -4.9667    7.5844    3.3801 H   0  0  0  0  0  0  0  0  0  0  0  0
   -3.2481    8.5984    3.7440 C   0  0  0  0  0  0  0  0  0  0  0  0
   -3.6553    9.4412    3.9036 H   0  0  0  0  0  0  0  0  0  0  0  0
   -1.8811    8.4616    3.8230 C   0  0  0  0  0  0  0  0  0  0  0  0
   -1.3450    9.2097    4.0597 H   0  0  0  0  0  0  0  0  0  0  0  0
   -1.2817    7.2387    3.5591 C   0  0  0  0  0  0  0  0  0  0  0  0
   -0.3356    7.1599    3.5963 H   0  0  0  0  0  0  0  0  0  0  0  0
   -2.1385    3.7950    1.5543 C   0  0  0  0  0  0  0  0  0  0  0  0
   -1.6742    3.7565    0.2652 C   0  0  0  0  0  0  0  0  0  0  0  0
   -0.8218    4.1216    0.0602 H   0  0  0  0  0  0  0  0  0  0  0  0
   -2.4461    3.1858   -0.7461 C   0  0  0  0  0  0  0  0  0  0  0  0
   -2.1100    3.1496   -1.6340 H   0  0  0  0  0  0  0  0  0  0  0  0
   -3.6763    2.6810   -0.4687 C   0  0  0  0  0  0  0  0  0  0  0  0
   -4.2043    2.3114   -1.1673 H   0  0  0  0  0  0  0  0  0  0  0  0
   -4.1652    2.7009    0.8249 C   0  0  0  0  0  0  0  0  0  0  0  0
   -5.0220    2.3386    1.0161 H   0  0  0  0  0  0  0  0  0  0  0  0
   -3.4055    3.2517    1.8395 C   0  0  0  0  0  0  0  0  0  0  0  0
   -3.7374    3.2632    2.7298 H   0  0  0  0  0  0  0  0  0  0  0  0
    0.5728   -1.2777    4.3735 C   0  0  0  0  0  0  0  0  0  0  0  0
   -0.0904   -1.3045    5.0953 H   0  0  0  0  0  0  0  0  0  0  0  0
    1.1817   -2.0409    4.4613 H   0  0  0  0  0  0  0  0  0  0  0  0
    0.1170   -1.3226    3.5085 H   0  0  0  0  0  0  0  0  0  0  0  0
    2.6548    0.1363    5.9814 C   0  0  0  0  0  0  0  0  0  0  0  0
    3.2662    0.9008    6.0302 H   0  0  0  0  0  0  0  0  0  0  0  0
    3.1722   -0.6922    5.9066 H   0  0  0  0  0  0  0  0  0  0  0  0
    2.1033    0.1054    6.7911 H   0  0  0  0  0  0  0  0  0  0  0  0
    2.6284    0.4011    2.9623 C   0  0  0  0  0  0  0  0  0  0  0  0
    2.0662    0.5476    2.1737 H   0  0  0  0  0  0  0  0  0  0  0  0
    3.1179   -0.4416    2.8631 H   0  0  0  0  0  0  0  0  0  0  0  0
    3.2653    1.1410    3.0517 H   0  0  0  0  0  0  0  0  0  0  0  0
    0.2936    6.6695    0.3811 C   0  0  0  0  0  0  0  0  0  0  0  0
   -0.4716    6.2180   -0.0325 H   0  0  0  0  0  0  0  0  0  0  0  0
    0.8675    7.0468   -0.3170 H   0  0  0  0  0  0  0  0  0  0  0  0
   -0.0278    7.3890    0.9641 H   0  0  0  0  0  0  0  0  0  0  0  0
    2.0098    4.1025    0.3174 C   0  0  0  0  0  0  0  0  0  0  0  0
    2.5385    3.4940    0.8731 H   0  0  0  0  0  0  0  0  0  0  0  0
    2.5875    4.5112   -0.3609 H   0  0  0  0  0  0  0  0  0  0  0  0
    1.2910    3.6021   -0.1236 H   0  0  0  0  0  0  0  0  0  0  0  0
    2.6952    6.4072    2.0902 C   0  0  0  0  0  0  0  0  0  0  0  0
    2.3523    7.1391    2.6452 H   0  0  0  0  0  0  0  0  0  0  0  0
    3.2304    6.7764    1.3576 H   0  0  0  0  0  0  0  0  0  0  0  0
    3.2532    5.8168    2.6371 H   0  0  0  0  0  0  0  0  0  0  0  0
   -0.6691    4.2441    7.9495 C   0  0  0  0  0  0  0  0  0  0  0  0
   -0.8042    5.1686    7.6219 H   0  0  0  0  0  0  0  0  0  0  0  0
   -1.5079    3.7353    7.8137 H   0  0  0  0  0  0  0  0  0  0  0  0
   -0.3082    4.2528    9.3461 C   0  0  0  0  0  0  0  0  0  0  0  0
   -1.1022    4.0755    9.9094 H   0  0  0  0  0  0  0  0  0  0  0  0
    0.0687    5.1323    9.6005 H   0  0  0  0  0  0  0  0  0  0  0  0
    0.7120    3.1754    9.5273 C   0  0  0  0  0  0  0  0  0  0  0  0
    0.2834    2.3163    9.7663 H   0  0  0  0  0  0  0  0  0  0  0  0
    1.3645    3.4188   10.2313 H   0  0  0  0  0  0  0  0  0  0  0  0
    1.3753    3.0935    8.1834 C   0  0  0  0  0  0  0  0  0  0  0  0
    2.2040    3.6344    8.1730 H   0  0  0  0  0  0  0  0  0  0  0  0
    1.6051    2.1557    7.9682 H   0  0  0  0  0  0  0  0  0  0  0  0
    3.8000    3.6427    4.6434 B   0  0  0  0  0  0  0  0  0  0  0  0
    1.3191    6.5682    5.9751 B   0  0  0  0  0  0  0  0  0  0  0  0
    0.5679    1.7406    4.6170 N   0  0  0  0  0  0  0  0  0  0  0  0
    0.3579    4.7231    2.6821 N   0  0  0  0  0  0  0  0  0  0  0  0
    1.2194    4.1330    4.9282 Nd  0  0  0  0  0  0  0  0  0  0  0  0
   -1.0214    1.9167    4.5943 P   0  0  0  0  0  0  0  0  0  0  0  0
   -1.2131    4.5335    2.9406 P   0  0  0  0  0  0  0  0  0  0  0  0
    1.5520    0.3192    4.4848 Si  0  0  0  0  0  0  0  0  0  0  0  0
    1.2681    5.4412    1.3901 Si  0  0  0  0  0  0  0  0  0  0  0  0
    0.4269    3.6096    7.2343 O   0  0  0  0  0  0  0  0  0  0  0  0
    3.6806    4.7044    4.6824 H   0  0  0  0  0  0  0  0  0  0  0  0
    3.1730    3.3065    3.8532 H   0  0  0  0  0  0  0  0  0  0  0  0
    3.3484    3.1632    5.5116 H   0  0  0  0  0  0  0  0  0  0  0  0
    4.8230    3.4172    4.5198 H   0  0  0  0  0  0  0  0  0  0  0  0
    1.7722    6.5661    4.8970 H   0  0  0  0  0  0  0  0  0  0  0  0
    0.2369    6.1657    5.8725 H   0  0  0  0  0  0  0  0  0  0  0  0
    1.8466    5.8566    6.5293 H   0  0  0  0  0  0  0  0  0  0  0  0
    1.3784    7.5175    6.3895 H   0  0  0  0  0  0  0  0  0  0  0  0
  1  2  1  0  0  0  0
  3  4  4  0  0  0  0
  4  5  1  0  0  0  0
  6  4  4  0  0  0  0
  7  6  1  0  0  0  0
  8  6  4  0  0  0  0
  9  8  1  0  0  0  0
 10  8  4  0  0  0  0
 11 10  1  0  0  0  0
 12  3  4  0  0  0  0
 13 12  1  0  0  0  0
 14 15  4  0  0  0  0
 15 16  1  0  0  0  0
 17 15  4  0  0  0  0
 18 17  1  0  0  0  0
 19 17  4  0  0  0  0
 20 19  1  0  0  0  0
 21 19  4  0  0  0  0
 22 21  1  0  0  0  0
 23 14  4  0  0  0  0
 24 23  1  0  0  0  0
 25 26  4  0  0  0  0
 26 27  1  0  0  0  0
 28 26  4  0  0  0  0
 29 28  1  0  0  0  0
 30 28  4  0  0  0  0
 31 30  1  0  0  0  0
 32 30  4  0  0  0  0
 33 32  1  0  0  0  0
 34 25  4  0  0  0  0
 35 34  1  0  0  0  0
 36 37  4  0  0  0  0
 37 38  1  0  0  0  0
 39 37  4  0  0  0  0
 40 39  1  0  0  0  0
 41 39  4  0  0  0  0
 42 41  1  0  0  0  0
 43 41  4  0  0  0  0
 44 43  1  0  0  0  0
 45 36  4  0  0  0  0
 46 45  1  0  0  0  0
 47 48  1  0  0  0  0
 49 47  1  0  0  0  0
 50 47  1  0  0  0  0
 51 52  1  0  0  0  0
 53 51  1  0  0  0  0
 54 51  1  0  0  0  0
 55 56  1  0  0  0  0
 57 55  1  0  0  0  0
 58 55  1  0  0  0  0
 59 60  1  0  0  0  0
 61 59  1  0  0  0  0
 62 59  1  0  0  0  0
 63 64  1  0  0  0  0
 65 63  1  0  0  0  0
 66 63  1  0  0  0  0
 67 68  1  0  0  0  0
 69 67  1  0  0  0  0
 70 67  1  0  0  0  0
 71 72  1  0  0  0  0
 73 71  1  0  0  0  0
 74 71  1  0  0  0  0
 75 74  1  0  0  0  0
 76 74  1  0  0  0  0
 77 74  1  0  0  0  0
 78 77  1  0  0  0  0
 79 77  1  0  0  0  0
 80 77  1  0  0  0  0
 81 80  1  0  0  0  0
 82 80  1  0  0  0  0
 83 93  1  0  0  0  0
 84 97  1  0  0  0  0
 85 87  1  0  0  0  0
 86 87  1  0  0  0  0
 87 92  1  0  0  0  0
 88  1  8  0  0  0  0
 89  1  8  0  0  0  0
 90 47  1  0  0  0  0
 91 59  1  0  0  0  0
 92 71  1  0  0  0  0
 93 87  1  0  0  0  0
 94 83  1  0  0  0  0
 95 83  1  0  0  0  0
 96 83  1  0  0  0  0
 97 87  1  0  0  0  0
 98 84  1  0  0  0  0
 99 84  1  0  0  0  0
100 84  1  0  0  0  0
  3 88  1  0  0  0  0
 10 12  4  0  0  0  0
 14 88  1  0  0  0  0
 21 23  4  0  0  0  0
 25 89  1  0  0  0  0
 32 34  4  0  0  0  0
 36 89  1  0  0  0  0
 43 45  4  0  0  0  0
 51 90  1  0  0  0  0
 55 90  1  0  0  0  0
 63 91  1  0  0  0  0
 67 91  1  0  0  0  0
 80 92  1  0  0  0  0
 85 88  8  0  0  0  0
 85 90  1  0  0  0  0
 86 89  8  0  0  0  0
 86 91  1  0  0  0  0
 87 94  1  0  0  0  0
 87 95  1  0  0  0  0
 87 98  1  0  0  0  0
 87 99  1  0  0  0  0
M  END
$$$$
USOWIL

From CSD data. Using bond type 'Any'. No disordered atoms. Largest molecule.
 59 58  0  0  0  0  0  0  0  0999 V2000
    1.3098    4.5855    6.2567 P   0  0  0  0  0  0  0  0  0  0  0  0
    2.7088    5.9400    7.2220 P   0  3  0  0  0  0  0  0  0  0  0  0
    1.9802    4.8107    4.1922 P   0  3  0  0  0  0  0  0  0  0  0  0
    3.8215    4.7852    3.7179 B   0  5  0  0  0  0  0  0  0  0  0  0
    4.2221    3.8315    4.1286 H   0  0  0  0  0  0  0  0  0  0  0  0
    4.2508    5.6783    4.2195 H   0  0  0  0  0  0  0  0  0  0  0  0
    3.8230    4.8150    2.6017 H   0  0  0  0  0  0  0  0  0  0  0  0
    4.4812    5.3725    7.6528 B   0  5  0  0  0  0  0  0  0  0  0  0
    4.3282    4.6899    8.5221 H   0  0  0  0  0  0  0  0  0  0  0  0
    4.8794    4.8247    6.7670 H   0  0  0  0  0  0  0  0  0  0  0  0
    5.0508    6.2933    7.9519 H   0  0  0  0  0  0  0  0  0  0  0  0
    2.1011    2.8211    6.7382 B   0  5  0  0  0  0  0  0  0  0  0  0
    3.1441    2.6966    6.3340 H   0  0  0  0  0  0  0  0  0  0  0  0
    2.0691    2.7897    7.8552 H   0  0  0  0  0  0  0  0  0  0  0  0
    1.4173    2.0379    6.3340 H   0  0  0  0  0  0  0  0  0  0  0  0
    1.3344    6.1280    3.5890 O   0  0  0  0  0  0  0  0  0  0  0  0
    1.1006    3.6054    3.6091 O   0  0  0  0  0  0  0  0  0  0  0  0
    2.5911    7.2398    6.3062 O   0  0  0  0  0  0  0  0  0  0  0  0
    2.0434    6.2836    8.6342 O   0  0  0  0  0  0  0  0  0  0  0  0
   -0.1071    6.4057    3.6736 C   0  0  0  0  0  0  0  0  0  0  0  0
   -0.5691    5.6453    4.1306 H   0  0  0  0  0  0  0  0  0  0  0  0
   -0.2966    7.6593    4.4688 C   0  0  0  0  0  0  0  0  0  0  0  0
   -1.2521    7.8618    4.5365 H   0  0  0  0  0  0  0  0  0  0  0  0
    0.0753    7.5359    5.3676 H   0  0  0  0  0  0  0  0  0  0  0  0
    0.1630    8.4011    4.0242 H   0  0  0  0  0  0  0  0  0  0  0  0
   -0.6086    6.5251    2.2559 C   0  0  0  0  0  0  0  0  0  0  0  0
   -1.5709    6.7114    2.2634 H   0  0  0  0  0  0  0  0  0  0  0  0
   -0.1380    7.2565    1.8034 H   0  0  0  0  0  0  0  0  0  0  0  0
   -0.4422    5.6851    1.7782 H   0  0  0  0  0  0  0  0  0  0  0  0
    1.6006    2.6050    2.6720 C   0  0  0  0  0  0  0  0  0  0  0  0
    2.5649    2.4211    2.8607 H   0  0  0  0  0  0  0  0  0  0  0  0
    0.7836    1.3622    2.9465 C   0  0  0  0  0  0  0  0  0  0  0  0
    1.0705    0.6431    2.3446 H   0  0  0  0  0  0  0  0  0  0  0  0
    0.9151    1.0825    3.8773 H   0  0  0  0  0  0  0  0  0  0  0  0
   -0.1645    1.5549    2.7949 H   0  0  0  0  0  0  0  0  0  0  0  0
    1.4510    3.1068    1.2649 C   0  0  0  0  0  0  0  0  0  0  0  0
    1.7884    2.4318    0.6398 H   0  0  0  0  0  0  0  0  0  0  0  0
    0.5039    3.2805    1.0785 H   0  0  0  0  0  0  0  0  0  0  0  0
    1.9620    3.9352    1.1578 H   0  0  0  0  0  0  0  0  0  0  0  0
    3.7001    8.1881    6.1448 C   0  0  0  0  0  0  0  0  0  0  0  0
    4.5576    7.6804    6.0596 H   0  0  0  0  0  0  0  0  0  0  0  0
    3.7759    9.0958    7.3478 C   0  0  0  0  0  0  0  0  0  0  0  0
    4.5171    9.7261    7.2348 H   0  0  0  0  0  0  0  0  0  0  0  0
    2.9358    9.5922    7.4358 H   0  0  0  0  0  0  0  0  0  0  0  0
    3.9248    8.5582    8.1529 H   0  0  0  0  0  0  0  0  0  0  0  0
    3.4301    8.9251    4.8573 C   0  0  0  0  0  0  0  0  0  0  0  0
    4.1441    9.5767    4.6969 H   0  0  0  0  0  0  0  0  0  0  0  0
    3.3991    8.2857    4.1151 H   0  0  0  0  0  0  0  0  0  0  0  0
    2.5703    9.3914    4.9230 H   0  0  0  0  0  0  0  0  0  0  0  0
    0.6498    6.7038    8.7812 C   0  0  0  0  0  0  0  0  0  0  0  0
    0.2327    6.7919    7.8765 H   0  0  0  0  0  0  0  0  0  0  0  0
    0.6369    8.0364    9.4655 C   0  0  0  0  0  0  0  0  0  0  0  0
   -0.2882    8.3390    9.5755 H   0  0  0  0  0  0  0  0  0  0  0  0
    1.0609    7.9559   10.3448 H   0  0  0  0  0  0  0  0  0  0  0  0
    1.1302    8.6872    8.9241 H   0  0  0  0  0  0  0  0  0  0  0  0
   -0.0630    5.6289    9.5546 C   0  0  0  0  0  0  0  0  0  0  0  0
   -1.0029    5.8801    9.6721 H   0  0  0  0  0  0  0  0  0  0  0  0
   -0.0096    4.7830    9.0633 H   0  0  0  0  0  0  0  0  0  0  0  0
    0.3582    5.5241   10.4337 H   0  0  0  0  0  0  0  0  0  0  0  0
  1  2  1  0  0  0  0
  2  8  1  0  0  0  0
  3  1  1  0  0  0  0
  4  3  1  0  0  0  0
  5  4  1  0  0  0  0
  6  4  1  0  0  0  0
  7  4  1  0  0  0  0
  8  9  1  0  0  0  0
 10  8  1  0  0  0  0
 11  8  1  0  0  0  0
 12  1  1  0  0  0  0
 13 12  1  0  0  0  0
 14 12  1  0  0  0  0
 15 12  1  0  0  0  0
 16  3  1  0  0  0  0
 17  3  1  0  0  0  0
 18  2  1  0  0  0  0
 19  2  1  0  0  0  0
 20 16  1  0  0  0  0
 21 20  1  0  0  0  0
 22 20  1  0  0  0  0
 23 22  1  0  0  0  0
 24 22  1  0  0  0  0
 25 22  1  0  0  0  0
 26 20  1  0  0  0  0
 27 26  1  0  0  0  0
 28 26  1  0  0  0  0
 29 26  1  0  0  0  0
 30 17  1  0  0  0  0
 31 30  1  0  0  0  0
 32 30  1  0  0  0  0
 33 32  1  0  0  0  0
 34 32  1  0  0  0  0
 35 32  1  0  0  0  0
 36 30  1  0  0  0  0
 37 36  1  0  0  0  0
 38 36  1  0  0  0  0
 39 36  1  0  0  0  0
 40 18  1  0  0  0  0
 41 40  1  0  0  0  0
 42 40  1  0  0  0  0
 43 42  1  0  0  0  0
 44 42  1  0  0  0  0
 45 42  1  0  0  0  0
 46 40  1  0  0  0  0
 47 46  1  0  0  0  0
 48 46  1  0  0  0  0
 49 46  1  0  0  0  0
 50 19  1  0  0  0  0
 51 50  1  0  0  0  0
 52 50  1  0  0  0  0
 53 52  1  0  0  0  0
 54 52  1  0  0  0  0
 55 52  1  0  0  0  0
 56 50  1  0  0  0  0
 57 56  1  0  0  0  0
 58 56  1  0  0  0  0
 59 56  1  0  0  0  0
M  CHG  5   2   1   3   1   4  -1   8  -1  12  -1
M  END
$$$$
USOXAE

From CSD data. Using bond type 'Any'. No disordered atoms. Largest molecule.
 43 42  0  0  0  0  0  0  0  0999 V2000
    4.2026    2.9378    6.8875 P   0  0  0  0  0  0  0  0  0  0  0  0
    3.8028    0.8984    6.3933 P   0  0  0  0  0  0  0  0  0  0  0  0
    2.6014    3.1279    8.2647 P   0  0  0  0  0  0  0  0  0  0  0  0
    5.1509    0.3189    5.7699 O   0  0  0  0  0  0  0  0  0  0  0  0
    2.8180    1.0730    5.1069 O   0  0  0  0  0  0  0  0  0  0  0  0
    2.7903    2.2440    9.6102 O   0  0  0  0  0  0  0  0  0  0  0  0
    2.8809    4.6385    8.7057 O   0  0  0  0  0  0  0  0  0  0  0  0
    5.9667    1.0621    4.8239 C   0  0  0  0  0  0  0  0  0  0  0  0
    6.8122    1.3431    5.2551 H   0  0  0  0  0  0  0  0  0  0  0  0
    5.4841    1.8734    4.5265 H   0  0  0  0  0  0  0  0  0  0  0  0
    6.2603    0.1839    3.6492 C   0  0  0  0  0  0  0  0  0  0  0  0
    6.8110    0.6748    3.0036 H   0  0  0  0  0  0  0  0  0  0  0  0
    6.7440   -0.6135    3.9508 H   0  0  0  0  0  0  0  0  0  0  0  0
    5.4193   -0.0850    3.2242 H   0  0  0  0  0  0  0  0  0  0  0  0
    2.4497   -0.1113    4.3213 C   0  0  0  0  0  0  0  0  0  0  0  0
    3.0753   -0.8513    4.5235 H   0  0  0  0  0  0  0  0  0  0  0  0
    2.5204    0.0966    3.3556 H   0  0  0  0  0  0  0  0  0  0  0  0
    1.0632   -0.5316    4.6393 C   0  0  0  0  0  0  0  0  0  0  0  0
    0.8315   -1.3225    4.1087 H   0  0  0  0  0  0  0  0  0  0  0  0
    0.9980   -0.7482    5.5924 H   0  0  0  0  0  0  0  0  0  0  0  0
    0.4439    0.1979    4.4264 H   0  0  0  0  0  0  0  0  0  0  0  0
    4.0564    2.2055   10.3513 C   0  0  0  0  0  0  0  0  0  0  0  0
    4.7811    2.5847    9.7933 H   0  0  0  0  0  0  0  0  0  0  0  0
    4.2890    1.2674   10.5660 H   0  0  0  0  0  0  0  0  0  0  0  0
    3.9265    2.9953   11.6150 C   0  0  0  0  0  0  0  0  0  0  0  0
    4.7738    2.9666   12.1065 H   0  0  0  0  0  0  0  0  0  0  0  0
    3.7058    3.9256   11.3975 H   0  0  0  0  0  0  0  0  0  0  0  0
    3.2153    2.6111   12.1683 H   0  0  0  0  0  0  0  0  0  0  0  0
    1.8914    5.3654    9.4901 C   0  0  0  0  0  0  0  0  0  0  0  0
    1.6826    4.8718   10.3228 H   0  0  0  0  0  0  0  0  0  0  0  0
    1.0553    5.4761    8.9715 H   0  0  0  0  0  0  0  0  0  0  0  0
    2.4855    6.7024    9.8122 C   0  0  0  0  0  0  0  0  0  0  0  0
    1.8469    7.2244   10.3424 H   0  0  0  0  0  0  0  0  0  0  0  0
    3.3105    6.5782   10.3257 H   0  0  0  0  0  0  0  0  0  0  0  0
    2.6866    7.1793    8.9804 H   0  0  0  0  0  0  0  0  0  0  0  0
    3.2193   -0.4186    7.6462 B   0  5  0  0  0  0  0  0  0  0  0  0
    3.9579   -0.3381    8.4724 H   0  0  0  0  0  0  0  0  0  0  0  0
    3.2688   -1.3912    7.1094 H   0  0  0  0  0  0  0  0  0  0  0  0
    2.1841   -0.1468    7.9370 H   0  0  0  0  0  0  0  0  0  0  0  0
    0.7963    2.7840    7.7507 B   0  0  0  0  0  0  0  0  0  0  0  0
    0.7859    1.8170    7.2270 H   0  0  0  0  0  0  0  0  0  0  0  0
    0.1657    2.8196    8.6499 H   0  0  0  0  0  0  0  0  0  0  0  0
    0.4984    3.6477    7.1417 H   0  0  0  0  0  0  0  0  0  0  0  0
  1  2  1  0  0  0  0
  2  4  1  0  0  0  0
  3  1  2  0  0  0  0
  4  8  1  0  0  0  0
  5  2  1  0  0  0  0
  6  3  1  0  0  0  0
  7  3  1  0  0  0  0
  8  9  1  0  0  0  0
 10  8  1  0  0  0  0
 11  8  1  0  0  0  0
 12 11  1  0  0  0  0
 13 11  1  0  0  0  0
 14 11  1  0  0  0  0
 15  5  1  0  0  0  0
 16 15  1  0  0  0  0
 17 15  1  0  0  0  0
 18 15  1  0  0  0  0
 19 18  1  0  0  0  0
 20 18  1  0  0  0  0
 21 18  1  0  0  0  0
 22  6  1  0  0  0  0
 23 22  1  0  0  0  0
 24 22  1  0  0  0  0
 25 22  1  0  0  0  0
 26 25  1  0  0  0  0
 27 25  1  0  0  0  0
 28 25  1  0  0  0  0
 29  7  1  0  0  0  0
 30 29  1  0  0  0  0
 31 29  1  0  0  0  0
 32 29  1  0  0  0  0
 33 32  1  0  0  0  0
 34 32  1  0  0  0  0
 35 32  1  0  0  0  0
 36  2  1  0  0  0  0
 37 36  1  0  0  0  0
 38 36  1  0  0  0  0
 39 36  1  0  0  0  0
 40  3  1  0  0  0  0
 41 40  1  0  0  0  0
 42 40  1  0  0  0  0
 43 40  1  0  0  0  0
M  CHG  1  36  -1
M  END
$$$$
UVIMOE

From CSD data. Using bond type 'Any'. No disordered atoms. Largest molecule.
103112  0  0  0  0  0  0  0  0999 V2000
   10.9229   11.6554   12.0547 Pd  0  0  0  0  0  0  0  0  0  0  0  0
   14.2230    6.1124   13.1389 Cl  0  0  0  0  0  0  0  0  0  0  0  0
   12.7235   12.8681   12.9167 P   0  0  0  0  0  0  0  0  0  0  0  0
    9.5241   10.4903   10.6661 P   0  0  0  0  0  0  0  0  0  0  0  0
    9.5865   13.3576   12.0326 O   0  0  0  0  0  0  0  0  0  0  0  0
   10.0352   13.1256   14.3771 O   0  0  0  0  0  0  0  0  0  0  0  0
    8.6932   14.9412   13.7738 O   0  0  0  0  0  0  0  0  0  0  0  0
    7.7904   14.7422   11.3160 O   0  0  0  0  0  0  0  0  0  0  0  0
    7.8652   15.0273   12.0040 H   0  0  0  0  0  0  0  0  0  0  0  0
   11.9843    9.9815   12.3082 C   0  0  0  0  0  0  0  0  0  0  0  0
   11.5895    9.1171   13.3410 C   0  0  0  0  0  0  0  0  0  0  0  0
   10.8315    9.3422   13.8666 H   0  0  0  0  0  0  0  0  0  0  0  0
   12.2775    7.9419   13.6161 C   0  0  0  0  0  0  0  0  0  0  0  0
   12.0012    7.3765   14.3273 H   0  0  0  0  0  0  0  0  0  0  0  0
   13.3687    7.6092   12.8382 C   0  0  0  0  0  0  0  0  0  0  0  0
   13.7892    8.4300   11.8072 C   0  0  0  0  0  0  0  0  0  0  0  0
   14.5467    8.1958   11.2841 H   0  0  0  0  0  0  0  0  0  0  0  0
   13.0867    9.6035   11.5467 C   0  0  0  0  0  0  0  0  0  0  0  0
   13.3671   10.1611   10.8301 H   0  0  0  0  0  0  0  0  0  0  0  0
   14.2274   12.5414   11.9382 C   0  0  0  0  0  0  0  0  0  0  0  0
   15.3573   11.9529   12.4753 C   0  0  0  0  0  0  0  0  0  0  0  0
   15.4070   11.7916   13.4108 H   0  0  0  0  0  0  0  0  0  0  0  0
   16.4221   11.5968   11.6527 C   0  0  0  0  0  0  0  0  0  0  0  0
   17.1895   11.1838   12.0305 H   0  0  0  0  0  0  0  0  0  0  0  0
   16.3751   11.8369   10.2906 C   0  0  0  0  0  0  0  0  0  0  0  0
   17.1106   11.6026    9.7370 H   0  0  0  0  0  0  0  0  0  0  0  0
   15.2507   12.4203    9.7428 C   0  0  0  0  0  0  0  0  0  0  0  0
   15.2033   12.5816    8.8074 H   0  0  0  0  0  0  0  0  0  0  0  0
   14.1913   12.7700   10.5672 C   0  0  0  0  0  0  0  0  0  0  0  0
   13.4210   13.1762   10.1861 H   0  0  0  0  0  0  0  0  0  0  0  0
   13.2635   12.6817   14.6492 C   0  0  0  0  0  0  0  0  0  0  0  0
   14.1366   13.6102   15.2240 C   0  0  0  0  0  0  0  0  0  0  0  0
   14.4294   14.3595   14.7202 H   0  0  0  0  0  0  0  0  0  0  0  0
   14.5751   13.4386   16.5327 C   0  0  0  0  0  0  0  0  0  0  0  0
   15.1637   14.0751   16.9212 H   0  0  0  0  0  0  0  0  0  0  0  0
   14.1593   12.3437   17.2733 C   0  0  0  0  0  0  0  0  0  0  0  0
   14.4719   12.2216   18.1613 H   0  0  0  0  0  0  0  0  0  0  0  0
   13.2875   11.4306   16.7127 C   0  0  0  0  0  0  0  0  0  0  0  0
   12.9971   10.6813   17.2201 H   0  0  0  0  0  0  0  0  0  0  0  0
   12.8304   11.5989   15.4088 C   0  0  0  0  0  0  0  0  0  0  0  0
   12.2214   10.9728   15.0356 H   0  0  0  0  0  0  0  0  0  0  0  0
   12.4075   14.6457   12.7334 C   0  0  0  0  0  0  0  0  0  0  0  0
   11.1189   15.1160   13.0395 C   0  0  0  0  0  0  0  0  0  0  0  0
   10.9451   16.5088   13.0415 C   0  0  0  0  0  0  0  0  0  0  0  0
   10.0968   16.8660   13.2755 H   0  0  0  0  0  0  0  0  0  0  0  0
   11.9764   17.3833   12.7112 C   0  0  0  0  0  0  0  0  0  0  0  0
   11.8306   18.3221   12.7405 H   0  0  0  0  0  0  0  0  0  0  0  0
   13.2137   16.8879   12.3419 C   0  0  0  0  0  0  0  0  0  0  0  0
   13.9041   17.4829   12.0734 H   0  0  0  0  0  0  0  0  0  0  0  0
   13.4429   15.5241   12.3628 C   0  0  0  0  0  0  0  0  0  0  0  0
   14.2969   15.1818   12.1279 H   0  0  0  0  0  0  0  0  0  0  0  0
    9.3042   13.5392   15.5387 C   0  0  0  0  0  0  0  0  0  0  0  0
    8.9181   12.2975   16.3258 C   0  0  0  0  0  0  0  0  0  0  0  0
    8.4008   11.6952   15.7522 H   0  0  0  0  0  0  0  0  0  0  0  0
    8.3748   12.5569   17.0996 H   0  0  0  0  0  0  0  0  0  0  0  0
    9.7286   11.8406   16.6339 H   0  0  0  0  0  0  0  0  0  0  0  0
   10.2174   14.4283   16.3854 C   0  0  0  0  0  0  0  0  0  0  0  0
   11.0438   13.9445   16.5943 H   0  0  0  0  0  0  0  0  0  0  0  0
    9.7598   14.6666   17.2185 H   0  0  0  0  0  0  0  0  0  0  0  0
   10.4332   15.2433   15.8860 H   0  0  0  0  0  0  0  0  0  0  0  0
    8.0950   14.3120   14.9276 C   0  0  0  0  0  0  0  0  0  0  0  0
    6.9742   13.3909   14.4483 C   0  0  0  0  0  0  0  0  0  0  0  0
    6.3590   13.8960   13.8765 H   0  0  0  0  0  0  0  0  0  0  0  0
    6.4858   13.0400   15.2222 H   0  0  0  0  0  0  0  0  0  0  0  0
    7.3580   12.6470   13.9392 H   0  0  0  0  0  0  0  0  0  0  0  0
    7.5256   15.4074   15.8287 C   0  0  0  0  0  0  0  0  0  0  0  0
    8.2057   16.0967   15.9751 H   0  0  0  0  0  0  0  0  0  0  0  0
    7.2643   15.0185   16.6901 H   0  0  0  0  0  0  0  0  0  0  0  0
    6.7408   15.8075   15.3989 H   0  0  0  0  0  0  0  0  0  0  0  0
   10.4136    9.2952    9.6244 C   0  0  0  0  0  0  0  0  0  0  0  0
   11.3301    9.8057    8.7007 C   0  0  0  0  0  0  0  0  0  0  0  0
   11.4265   10.7463    8.6026 H   0  0  0  0  0  0  0  0  0  0  0  0
   12.0993    8.9526    7.9268 C   0  0  0  0  0  0  0  0  0  0  0  0
   12.7133    9.3063    7.2932 H   0  0  0  0  0  0  0  0  0  0  0  0
   11.9717    7.5740    8.0782 C   0  0  0  0  0  0  0  0  0  0  0  0
   12.4943    6.9868    7.5459 H   0  0  0  0  0  0  0  0  0  0  0  0
   11.0824    7.0610    9.0060 C   0  0  0  0  0  0  0  0  0  0  0  0
   11.0023    6.1206    9.1145 H   0  0  0  0  0  0  0  0  0  0  0  0
   10.3055    7.9175    9.7806 C   0  0  0  0  0  0  0  0  0  0  0  0
    9.6993    7.5603   10.4189 H   0  0  0  0  0  0  0  0  0  0  0  0
    8.1955    9.5545   11.4724 C   0  0  0  0  0  0  0  0  0  0  0  0
    8.0716    9.6398   12.8605 C   0  0  0  0  0  0  0  0  0  0  0  0
    8.6559   10.2012   13.3564 H   0  0  0  0  0  0  0  0  0  0  0  0
    7.0896    8.9006   13.5187 C   0  0  0  0  0  0  0  0  0  0  0  0
    7.0028    8.9650   14.4626 H   0  0  0  0  0  0  0  0  0  0  0  0
    6.2411    8.0740   12.8042 C   0  0  0  0  0  0  0  0  0  0  0  0
    5.5842    7.5591   13.2589 H   0  0  0  0  0  0  0  0  0  0  0  0
    6.3491    7.9948   11.4205 C   0  0  0  0  0  0  0  0  0  0  0  0
    5.7645    7.4280   10.9308 H   0  0  0  0  0  0  0  0  0  0  0  0
    7.3080    8.7400   10.7543 C   0  0  0  0  0  0  0  0  0  0  0  0
    7.3649    8.6992    9.8063 H   0  0  0  0  0  0  0  0  0  0  0  0
    8.7189   11.5811    9.4404 C   0  0  0  0  0  0  0  0  0  0  0  0
    8.4062   12.9172    9.7452 C   0  0  0  0  0  0  0  0  0  0  0  0
    7.8117   13.6833    8.7177 C   0  0  0  0  0  0  0  0  0  0  0  0
    7.5592   14.5800    8.8998 H   0  0  0  0  0  0  0  0  0  0  0  0
    7.5861   13.1677    7.4556 C   0  0  0  0  0  0  0  0  0  0  0  0
    7.2374   13.7293    6.7731 H   0  0  0  0  0  0  0  0  0  0  0  0
    7.8647   11.8412    7.1800 C   0  0  0  0  0  0  0  0  0  0  0  0
    7.6782   11.4796    6.3224 H   0  0  0  0  0  0  0  0  0  0  0  0
    8.4202   11.0466    8.1741 C   0  0  0  0  0  0  0  0  0  0  0  0
    8.6004   10.1308    7.9966 H   0  0  0  0  0  0  0  0  0  0  0  0
    9.8505   14.1497   13.3592 B   0  0  0  0  0  0  0  0  0  0  0  0
    8.6277   13.6898   11.1205 B   0  0  0  0  0  0  0  0  0  0  0  0
  1  3  1  0  0  0  0
  2 15  1  0  0  0  0
  3 20  1  0  0  0  0
  4  1  1  0  0  0  0
  5  1  1  0  0  0  0
  6 52  1  0  0  0  0
  7 61  1  0  0  0  0
  8  9  1  0  0  0  0
 10  1  1  0  0  0  0
 11 10  4  0  0  0  0
 12 11  1  0  0  0  0
 13 11  4  0  0  0  0
 14 13  1  0  0  0  0
 15 13  4  0  0  0  0
 16 15  4  0  0  0  0
 17 16  1  0  0  0  0
 18 10  4  0  0  0  0
 19 18  1  0  0  0  0
 20 21  4  0  0  0  0
 21 22  1  0  0  0  0
 23 21  4  0  0  0  0
 24 23  1  0  0  0  0
 25 23  4  0  0  0  0
 26 25  1  0  0  0  0
 27 25  4  0  0  0  0
 28 27  1  0  0  0  0
 29 20  4  0  0  0  0
 30 29  1  0  0  0  0
 31  3  1  0  0  0  0
 32 31  4  0  0  0  0
 33 32  1  0  0  0  0
 34 32  4  0  0  0  0
 35 34  1  0  0  0  0
 36 34  4  0  0  0  0
 37 36  1  0  0  0  0
 38 36  4  0  0  0  0
 39 38  1  0  0  0  0
 40 31  4  0  0  0  0
 41 40  1  0  0  0  0
 42  3  1  0  0  0  0
 43 42  4  0  0  0  0
 44 43  4  0  0  0  0
 45 44  1  0  0  0  0
 46 44  4  0  0  0  0
 47 46  1  0  0  0  0
 48 46  4  0  0  0  0
 49 48  1  0  0  0  0
 50 42  4  0  0  0  0
 51 50  1  0  0  0  0
 52 53  1  0  0  0  0
 53 54  1  0  0  0  0
 55 53  1  0  0  0  0
 56 53  1  0  0  0  0
 57 52  1  0  0  0  0
 58 57  1  0  0  0  0
 59 57  1  0  0  0  0
 60 57  1  0  0  0  0
 61 52  1  0  0  0  0
 62 61  1  0  0  0  0
 63 62  1  0  0  0  0
 64 62  1  0  0  0  0
 65 62  1  0  0  0  0
 66 61  1  0  0  0  0
 67 66  1  0  0  0  0
 68 66  1  0  0  0  0
 69 66  1  0  0  0  0
 70  4  1  0  0  0  0
 71 70  4  0  0  0  0
 72 71  1  0  0  0  0
 73 71  4  0  0  0  0
 74 73  1  0  0  0  0
 75 73  4  0  0  0  0
 76 75  1  0  0  0  0
 77 75  4  0  0  0  0
 78 77  1  0  0  0  0
 79 70  4  0  0  0  0
 80 79  1  0  0  0  0
 81  4  1  0  0  0  0
 82 81  4  0  0  0  0
 83 82  1  0  0  0  0
 84 82  4  0  0  0  0
 85 84  1  0  0  0  0
 86 84  4  0  0  0  0
 87 86  1  0  0  0  0
 88 86  4  0  0  0  0
 89 88  1  0  0  0  0
 90 81  4  0  0  0  0
 91 90  1  0  0  0  0
 92  4  1  0  0  0  0
 93 92  4  0  0  0  0
 94 93  4  0  0  0  0
 95 94  1  0  0  0  0
 96 94  4  0  0  0  0
 97 96  1  0  0  0  0
 98 96  4  0  0  0  0
 99 98  1  0  0  0  0
100 92  4  0  0  0  0
101100  1  0  0  0  0
102  5  1  0  0  0  0
103  5  1  0  0  0  0
  6102  1  0  0  0  0
  7102  1  0  0  0  0
  8103  1  0  0  0  0
 16 18  4  0  0  0  0
 27 29  4  0  0  0  0
 38 40  4  0  0  0  0
 43102  1  0  0  0  0
 48 50  4  0  0  0  0
 77 79  4  0  0  0  0
 88 90  4  0  0  0  0
 93103  1  0  0  0  0
 98100  4  0  0  0  0
M  END
$$$$
UVIXIH

From CSD data. Using bond type 'Any'. No disordered atoms. Largest molecule.
 70 92  0  0  0  0  0  0  0  0999 V2000
   -2.7658    4.3407    3.0282 O   0  0  0  0  0  0  0  0  0  0  0  0
    0.5580    4.6785    3.9593 S   0  0  0  0  0  0  0  0  0  0  0  0
   -2.3288    3.0002    2.6071 P   0  0  0  0  0  0  0  0  0  0  0  0
    0.2901    5.6220    2.3221 P   0  0  0  0  0  0  0  0  0  0  0  0
   -1.2810    3.2073    1.0531 C   0  0  0  0  0  0  0  0  0  0  0  0
   -0.1675    4.4869    0.8747 C   0  0  0  0  0  0  0  0  0  0  0  0
    0.4037    2.8543    1.0244 B   0  0  0  0  0  0  0  0  0  0  0  0
    0.9721    2.4792    1.9129 H   0  0  0  0  0  0  0  0  0  0  0  0
   -0.7791    1.8532    0.1439 B   0  0  0  0  0  0  0  0  0  0  0  0
   -0.9943    0.7970    0.4408 H   0  0  0  0  0  0  0  0  0  0  0  0
   -2.0661    2.9315   -0.4638 B   0  0  0  0  0  0  0  0  0  0  0  0
   -3.1271    2.5895   -0.5720 H   0  0  0  0  0  0  0  0  0  0  0  0
   -1.6921    4.5834    0.0679 B   0  0  0  0  0  0  0  0  0  0  0  0
   -2.4905    5.3225    0.3349 H   0  0  0  0  0  0  0  0  0  0  0  0
    1.1151    3.9767   -0.1508 B   0  0  0  0  0  0  0  0  0  0  0  0
    2.1721    4.3324   -0.0483 H   0  0  0  0  0  0  0  0  0  0  0  0
    0.7476    2.3165   -0.6284 B   0  0  0  0  0  0  0  0  0  0  0  0
    1.5530    1.5692   -0.8425 H   0  0  0  0  0  0  0  0  0  0  0  0
   -0.7787    2.3662   -1.5504 B   0  0  0  0  0  0  0  0  0  0  0  0
   -0.9810    1.6436   -2.3813 H   0  0  0  0  0  0  0  0  0  0  0  0
   -1.3487    4.0649   -1.6067 B   0  0  0  0  0  0  0  0  0  0  0  0
   -1.9287    4.4703   -2.4734 H   0  0  0  0  0  0  0  0  0  0  0  0
   -0.1615    5.0605   -0.7389 B   0  0  0  0  0  0  0  0  0  0  0  0
    0.0469    6.1222   -1.0221 H   0  0  0  0  0  0  0  0  0  0  0  0
    0.3918    3.6816   -1.7391 B   0  0  0  0  0  0  0  0  0  0  0  0
    0.9579    3.8278   -2.6944 H   0  0  0  0  0  0  0  0  0  0  0  0
   -3.6932    1.9304    2.0879 C   0  0  0  0  0  0  0  0  0  0  0  0
   -4.8813    2.5371    1.7138 C   0  0  0  0  0  0  0  0  0  0  0  0
   -4.9276    3.4831    1.6608 H   0  0  0  0  0  0  0  0  0  0  0  0
   -5.9979    1.7815    1.4157 C   0  0  0  0  0  0  0  0  0  0  0  0
   -6.8036    2.2145    1.1544 H   0  0  0  0  0  0  0  0  0  0  0  0
   -5.9511    0.4192    1.4963 C   0  0  0  0  0  0  0  0  0  0  0  0
   -6.7282   -0.0938    1.3098 H   0  0  0  0  0  0  0  0  0  0  0  0
   -4.7843   -0.2068    1.8473 C   0  0  0  0  0  0  0  0  0  0  0  0
   -4.7472   -1.1527    1.8830 H   0  0  0  0  0  0  0  0  0  0  0  0
   -3.6605    0.5405    2.1477 C   0  0  0  0  0  0  0  0  0  0  0  0
   -2.8562    0.0993    2.3986 H   0  0  0  0  0  0  0  0  0  0  0  0
   -1.4190    2.0518    3.8511 C   0  0  0  0  0  0  0  0  0  0  0  0
   -1.5998    2.4572    5.1678 C   0  0  0  0  0  0  0  0  0  0  0  0
   -2.1074    3.2376    5.3600 H   0  0  0  0  0  0  0  0  0  0  0  0
   -1.0350    1.7208    6.2014 C   0  0  0  0  0  0  0  0  0  0  0  0
   -1.1614    1.9994    7.1003 H   0  0  0  0  0  0  0  0  0  0  0  0
   -0.2982    0.5957    5.9378 C   0  0  0  0  0  0  0  0  0  0  0  0
    0.0812    0.0965    6.6526 H   0  0  0  0  0  0  0  0  0  0  0  0
   -0.1055    0.1848    4.6361 C   0  0  0  0  0  0  0  0  0  0  0  0
    0.4090   -0.5902    4.4531 H   0  0  0  0  0  0  0  0  0  0  0  0
   -0.6677    0.9101    3.5922 C   0  0  0  0  0  0  0  0  0  0  0  0
   -0.5375    0.6260    2.6967 H   0  0  0  0  0  0  0  0  0  0  0  0
    1.8135    6.4366    1.6908 C   0  0  0  0  0  0  0  0  0  0  0  0
    3.0275    6.0340    2.2616 C   0  0  0  0  0  0  0  0  0  0  0  0
    3.0111    5.3363    2.9085 H   0  0  0  0  0  0  0  0  0  0  0  0
    4.2643    6.5993    1.9302 C   0  0  0  0  0  0  0  0  0  0  0  0
    5.0701    6.3125    2.3434 H   0  0  0  0  0  0  0  0  0  0  0  0
    4.2555    7.6059    0.9645 C   0  0  0  0  0  0  0  0  0  0  0  0
    5.0764    8.0141    0.7171 H   0  0  0  0  0  0  0  0  0  0  0  0
    3.0780    8.0278    0.3522 C   0  0  0  0  0  0  0  0  0  0  0  0
    3.1013    8.7007   -0.3177 H   0  0  0  0  0  0  0  0  0  0  0  0
    1.8668    7.4542    0.7320 C   0  0  0  0  0  0  0  0  0  0  0  0
    1.0613    7.7603    0.3326 H   0  0  0  0  0  0  0  0  0  0  0  0
   -0.9101    6.9744    2.4504 C   0  0  0  0  0  0  0  0  0  0  0  0
   -1.3878    7.7162    1.3835 C   0  0  0  0  0  0  0  0  0  0  0  0
   -1.1369    7.4956    0.4949 H   0  0  0  0  0  0  0  0  0  0  0  0
   -2.2417    8.7917    1.6275 C   0  0  0  0  0  0  0  0  0  0  0  0
   -2.5813    9.3047    0.9024 H   0  0  0  0  0  0  0  0  0  0  0  0
   -2.5946    9.1144    2.9292 C   0  0  0  0  0  0  0  0  0  0  0  0
   -3.1738    9.8507    3.0892 H   0  0  0  0  0  0  0  0  0  0  0  0
   -2.1247    8.3919    3.9777 C   0  0  0  0  0  0  0  0  0  0  0  0
   -2.3701    8.6208    4.8651 H   0  0  0  0  0  0  0  0  0  0  0  0
   -1.2854    7.3219    3.7441 C   0  0  0  0  0  0  0  0  0  0  0  0
   -0.9601    6.8144    4.4784 H   0  0  0  0  0  0  0  0  0  0  0  0
  1  3  2  0  0  0  0
  2  4  2  0  0  0  0
  3  5  1  0  0  0  0
  4  6  1  0  0  0  0
  5  6  1  0  0  0  0
  6  7  1  0  0  0  0
  7  5  1  0  0  0  0
  8  7  1  0  0  0  0
  9  5  1  0  0  0  0
 10  9  1  0  0  0  0
 11  5  1  0  0  0  0
 12 11  1  0  0  0  0
 13  5  1  0  0  0  0
 14 13  1  0  0  0  0
 15  6  1  0  0  0  0
 16 15  1  0  0  0  0
 17  7  1  0  0  0  0
 18 17  1  0  0  0  0
 19  9  1  0  0  0  0
 20 19  1  0  0  0  0
 21 11  1  0  0  0  0
 22 21  1  0  0  0  0
 23  6  1  0  0  0  0
 24 23  1  0  0  0  0
 25 15  1  0  0  0  0
 26 25  1  0  0  0  0
 27  3  1  0  0  0  0
 28 27  4  0  0  0  0
 29 28  1  0  0  0  0
 30 28  4  0  0  0  0
 31 30  1  0  0  0  0
 32 30  4  0  0  0  0
 33 32  1  0  0  0  0
 34 32  4  0  0  0  0
 35 34  1  0  0  0  0
 36 27  4  0  0  0  0
 37 36  1  0  0  0  0
 38  3  1  0  0  0  0
 39 38  4  0  0  0  0
 40 39  1  0  0  0  0
 41 39  4  0  0  0  0
 42 41  1  0  0  0  0
 43 41  4  0  0  0  0
 44 43  1  0  0  0  0
 45 43  4  0  0  0  0
 46 45  1  0  0  0  0
 47 38  4  0  0  0  0
 48 47  1  0  0  0  0
 49  4  1  0  0  0  0
 50 49  4  0  0  0  0
 51 50  1  0  0  0  0
 52 50  4  0  0  0  0
 53 52  1  0  0  0  0
 54 52  4  0  0  0  0
 55 54  1  0  0  0  0
 56 54  4  0  0  0  0
 57 56  1  0  0  0  0
 58 49  4  0  0  0  0
 59 58  1  0  0  0  0
 60  4  1  0  0  0  0
 61 60  4  0  0  0  0
 62 61  1  0  0  0  0
 63 61  4  0  0  0  0
 64 63  1  0  0  0  0
 65 63  4  0  0  0  0
 66 65  1  0  0  0  0
 67 65  4  0  0  0  0
 68 67  1  0  0  0  0
 69 60  4  0  0  0  0
 70 69  1  0  0  0  0
  6 13  1  0  0  0  0
  7  9  1  0  0  0  0
  7 15  1  0  0  0  0
  9 11  1  0  0  0  0
  9 17  1  0  0  0  0
 11 13  1  0  0  0  0
 11 19  1  0  0  0  0
 13 21  1  0  0  0  0
 13 23  1  0  0  0  0
 15 17  1  0  0  0  0
 15 23  1  0  0  0  0
 17 19  1  0  0  0  0
 17 25  1  0  0  0  0
 19 21  1  0  0  0  0
 19 25  1  0  0  0  0
 21 23  1  0  0  0  0
 21 25  1  0  0  0  0
 23 25  1  0  0  0  0
 34 36  4  0  0  0  0
 45 47  4  0  0  0  0
 56 58  4  0  0  0  0
 67 69  4  0  0  0  0
M  END
$$$$
UWEZIG

From CSD data. Using bond type 'Any'. No disordered atoms. Largest molecule.
127130  0  0  0  0  0  0  0  0999 V2000
    2.4628    3.1544    1.9582 P   0  3  0  0  0  0  0  0  0  0  0  0
    5.8254   -0.6502    5.8686 P   0  3  0  0  0  0  0  0  0  0  0  0
    5.9023   -1.2513    4.7329 H   0  0  0  0  0  0  0  0  0  0  0  0
    4.1268    3.0784   -2.2683 B   0  5  0  0  0  0  0  0  0  0  0  0
    4.5007    3.6662    5.7629 B   0  5  0  0  0  0  0  0  0  0  0  0
    4.4976    1.7651   -2.7929 O   0  0  0  0  0  0  0  0  0  0  0  0
    1.6348    1.6816   -2.4174 F   0  0  0  0  0  0  0  0  0  0  0  0
   -0.5231    2.2673   -3.8540 F   0  0  0  0  0  0  0  0  0  0  0  0
   -0.5870    4.5092   -5.3830 F   0  0  0  0  0  0  0  0  0  0  0  0
    1.6041    6.1367   -5.4797 F   0  0  0  0  0  0  0  0  0  0  0  0
    3.8056    5.5258   -4.1472 F   0  0  0  0  0  0  0  0  0  0  0  0
    3.9970    5.8124   -1.2883 F   0  0  0  0  0  0  0  0  0  0  0  0
    5.9679    7.5748   -1.0745 F   0  0  0  0  0  0  0  0  0  0  0  0
    8.4847    6.9370   -1.9092 F   0  0  0  0  0  0  0  0  0  0  0  0
    8.9676    4.4518   -2.9138 F   0  0  0  0  0  0  0  0  0  0  0  0
    7.0386    2.6685   -3.1358 F   0  0  0  0  0  0  0  0  0  0  0  0
    5.6320    2.8409    8.3168 F   0  0  0  0  0  0  0  0  0  0  0  0
    4.5590    3.0478   10.7363 F   0  0  0  0  0  0  0  0  0  0  0  0
    2.1260    4.2198   11.0723 F   0  0  0  0  0  0  0  0  0  0  0  0
    0.7858    5.1533    8.9038 F   0  0  0  0  0  0  0  0  0  0  0  0
    1.7810    4.9319    6.4825 F   0  0  0  0  0  0  0  0  0  0  0  0
    4.3434    6.4654    6.5912 F   0  0  0  0  0  0  0  0  0  0  0  0
    6.2963    8.2513    6.7158 F   0  0  0  0  0  0  0  0  0  0  0  0
    8.7784    7.6490    5.8096 F   0  0  0  0  0  0  0  0  0  0  0  0
    9.2875    5.1337    4.8750 F   0  0  0  0  0  0  0  0  0  0  0  0
    7.3982    3.2843    4.8617 F   0  0  0  0  0  0  0  0  0  0  0  0
    3.1411    3.0170    0.3730 C   0  0  0  0  0  0  0  0  0  0  0  0
    3.5689    3.0001   -0.7522 C   0  0  0  0  0  0  0  0  0  0  0  0
    1.3730    4.6724    1.8578 C   0  0  0  0  0  0  0  0  0  0  0  0
    0.3928    4.7647    3.0396 C   0  0  0  0  0  0  0  0  0  0  0  0
   -0.1567    5.5718    2.9462 H   0  0  0  0  0  0  0  0  0  0  0  0
    0.8956    4.8092    3.8783 H   0  0  0  0  0  0  0  0  0  0  0  0
   -0.1864    3.9750    3.0466 H   0  0  0  0  0  0  0  0  0  0  0  0
    0.5740    4.6549    0.5357 C   0  0  0  0  0  0  0  0  0  0  0  0
    0.0051    5.4508    0.4863 H   0  0  0  0  0  0  0  0  0  0  0  0
    0.0139    3.8517    0.5040 H   0  0  0  0  0  0  0  0  0  0  0  0
    1.1944    4.6495   -0.2220 H   0  0  0  0  0  0  0  0  0  0  0  0
    2.2862    5.9016    1.8229 C   0  0  0  0  0  0  0  0  0  0  0  0
    1.7393    6.7136    1.7691 H   0  0  0  0  0  0  0  0  0  0  0  0
    2.8739    5.8495    1.0396 H   0  0  0  0  0  0  0  0  0  0  0  0
    2.8295    5.9277    2.6378 H   0  0  0  0  0  0  0  0  0  0  0  0
    1.6085    1.5248    2.2595 C   0  0  0  0  0  0  0  0  0  0  0  0
    0.3938    1.3682    1.3542 C   0  0  0  0  0  0  0  0  0  0  0  0
   -0.0355    0.5047    1.5295 H   0  0  0  0  0  0  0  0  0  0  0  0
    0.6772    1.4065    0.4176 H   0  0  0  0  0  0  0  0  0  0  0  0
   -0.2432    2.0916    1.5330 H   0  0  0  0  0  0  0  0  0  0  0  0
    2.6120    0.4083    1.9212 C   0  0  0  0  0  0  0  0  0  0  0  0
    2.1910   -0.4648    2.0687 H   0  0  0  0  0  0  0  0  0  0  0  0
    3.4004    0.4924    2.4969 H   0  0  0  0  0  0  0  0  0  0  0  0
    2.8825    0.4865    0.9832 H   0  0  0  0  0  0  0  0  0  0  0  0
    1.1956    1.3661    3.7315 C   0  0  0  0  0  0  0  0  0  0  0  0
    0.7523    0.5015    3.8554 H   0  0  0  0  0  0  0  0  0  0  0  0
    0.5795    2.0876    3.9770 H   0  0  0  0  0  0  0  0  0  0  0  0
    1.9931    1.4106    4.3012 H   0  0  0  0  0  0  0  0  0  0  0  0
    2.8409    3.5778   -3.1837 C   0  0  0  0  0  0  0  0  0  0  0  0
    1.6857    2.8001   -3.1746 C   0  0  0  0  0  0  0  0  0  0  0  0
    0.5496    3.0873   -3.8979 C   0  0  0  0  0  0  0  0  0  0  0  0
    0.5186    4.2061   -4.6799 C   0  0  0  0  0  0  0  0  0  0  0  0
    1.6191    5.0241   -4.7217 C   0  0  0  0  0  0  0  0  0  0  0  0
    2.7549    4.6904   -3.9987 C   0  0  0  0  0  0  0  0  0  0  0  0
    5.3919    4.1400   -2.2246 C   0  0  0  0  0  0  0  0  0  0  0  0
    5.2294    5.4209   -1.7015 C   0  0  0  0  0  0  0  0  0  0  0  0
    6.2211    6.3555   -1.5878 C   0  0  0  0  0  0  0  0  0  0  0  0
    7.4913    6.0375   -2.0045 C   0  0  0  0  0  0  0  0  0  0  0  0
    7.7212    4.7918   -2.5196 C   0  0  0  0  0  0  0  0  0  0  0  0
    6.6902    3.8788   -2.6199 C   0  0  0  0  0  0  0  0  0  0  0  0
    5.3087    0.9802    5.6735 C   0  0  0  0  0  0  0  0  0  0  0  0
    5.0091    2.1489    5.7158 C   0  0  0  0  0  0  0  0  0  0  0  0
    7.5570   -0.6555    6.4813 C   0  0  0  0  0  0  0  0  0  0  0  0
    7.6910    0.1536    7.7822 C   0  0  0  0  0  0  0  0  0  0  0  0
    8.6207    0.1253    8.0897 H   0  0  0  0  0  0  0  0  0  0  0  0
    7.1069   -0.2326    8.4685 H   0  0  0  0  0  0  0  0  0  0  0  0
    7.4289    1.0847    7.6174 H   0  0  0  0  0  0  0  0  0  0  0  0
    8.3890    0.0028    5.3726 C   0  0  0  0  0  0  0  0  0  0  0  0
    9.3307    0.0281    5.6422 H   0  0  0  0  0  0  0  0  0  0  0  0
    8.0675    0.9162    5.2210 H   0  0  0  0  0  0  0  0  0  0  0  0
    8.2996   -0.5155    4.5462 H   0  0  0  0  0  0  0  0  0  0  0  0
    8.0230   -2.0974    6.6836 C   0  0  0  0  0  0  0  0  0  0  0  0
    8.9448   -2.1002    7.0166 H   0  0  0  0  0  0  0  0  0  0  0  0
    7.9852   -2.5755    5.8289 H   0  0  0  0  0  0  0  0  0  0  0  0
    7.4388   -2.5427    7.3320 H   0  0  0  0  0  0  0  0  0  0  0  0
    4.5298   -1.5614    6.8067 C   0  0  0  0  0  0  0  0  0  0  0  0
    3.2080   -1.2263    6.1091 C   0  0  0  0  0  0  0  0  0  0  0  0
    2.4720   -1.6853    6.5655 H   0  0  0  0  0  0  0  0  0  0  0  0
    3.2486   -1.5206    5.1752 H   0  0  0  0  0  0  0  0  0  0  0  0
    3.0582   -0.2578    6.1408 H   0  0  0  0  0  0  0  0  0  0  0  0
    4.7953   -3.0782    6.7047 C   0  0  0  0  0  0  0  0  0  0  0  0
    4.1025   -3.5653    7.1963 H   0  0  0  0  0  0  0  0  0  0  0  0
    5.6745   -3.2821    7.0871 H   0  0  0  0  0  0  0  0  0  0  0  0
    4.7785   -3.3491    5.7620 H   0  0  0  0  0  0  0  0  0  0  0  0
    4.4845   -1.0998    8.2640 C   0  0  0  0  0  0  0  0  0  0  0  0
    3.7850   -1.5917    8.7417 H   0  0  0  0  0  0  0  0  0  0  0  0
    4.2893   -0.1396    8.2958 H   0  0  0  0  0  0  0  0  0  0  0  0
    5.3519   -1.2701    8.6870 H   0  0  0  0  0  0  0  0  0  0  0  0
    3.7506    3.8166    7.2412 C   0  0  0  0  0  0  0  0  0  0  0  0
    4.3983    3.3786    8.3945 C   0  0  0  0  0  0  0  0  0  0  0  0
    3.8727    3.4945    9.6720 C   0  0  0  0  0  0  0  0  0  0  0  0
    2.6684    4.0858    9.8424 C   0  0  0  0  0  0  0  0  0  0  0  0
    1.9782    4.5563    8.7494 C   0  0  0  0  0  0  0  0  0  0  0  0
    2.5269    4.4079    7.4793 C   0  0  0  0  0  0  0  0  0  0  0  0
    5.7539    4.7451    5.7498 C   0  0  0  0  0  0  0  0  0  0  0  0
    5.5675    6.0611    6.1727 C   0  0  0  0  0  0  0  0  0  0  0  0
    6.5551    7.0191    6.2222 C   0  0  0  0  0  0  0  0  0  0  0  0
    7.8089    6.7199    5.7796 C   0  0  0  0  0  0  0  0  0  0  0  0
    8.0677    5.4457    5.3266 C   0  0  0  0  0  0  0  0  0  0  0  0
    7.0556    4.5015    5.3382 C   0  0  0  0  0  0  0  0  0  0  0  0
    3.4476    3.9078    4.5134 C   0  0  0  0  0  0  0  0  0  0  0  0
    2.6336    4.3827    4.6290 H   0  0  0  0  0  0  0  0  0  0  0  0
    3.8608    3.3218    3.1525 C   0  0  0  0  0  0  0  0  0  0  0  0
    4.1410    2.3830    3.3532 H   0  0  0  0  0  0  0  0  0  0  0  0
    5.0952    3.9676    2.4810 C   0  0  0  0  0  0  0  0  0  0  0  0
    4.7889    4.5498    1.7409 H   0  0  0  0  0  0  0  0  0  0  0  0
    5.5577    4.5395    3.1435 H   0  0  0  0  0  0  0  0  0  0  0  0
    6.0823    2.9544    1.9319 C   0  0  0  0  0  0  0  0  0  0  0  0
    6.3917    2.3753    2.6731 H   0  0  0  0  0  0  0  0  0  0  0  0
    5.6182    2.3799    1.2740 H   0  0  0  0  0  0  0  0  0  0  0  0
    7.2882    3.5827    1.2678 C   0  0  0  0  0  0  0  0  0  0  0  0
    7.7915    4.1044    1.9436 H   0  0  0  0  0  0  0  0  0  0  0  0
    6.9788    4.2140    0.5709 H   0  0  0  0  0  0  0  0  0  0  0  0
    8.2262    2.5691    0.6326 C   0  0  0  0  0  0  0  0  0  0  0  0
    8.9807    3.0366    0.2167 H   0  0  0  0  0  0  0  0  0  0  0  0
    7.7412    2.0585   -0.0511 H   0  0  0  0  0  0  0  0  0  0  0  0
    8.5602    1.9566    1.3198 H   0  0  0  0  0  0  0  0  0  0  0  0
    5.0572    0.8263   -1.9036 C   0  0  0  0  0  0  0  0  0  0  0  0
    5.2509   -0.0044   -2.3841 H   0  0  0  0  0  0  0  0  0  0  0  0
    4.4232    0.6451   -1.1788 H   0  0  0  0  0  0  0  0  0  0  0  0
    5.8871    1.1872   -1.5277 H   0  0  0  0  0  0  0  0  0  0  0  0
  1 27  1  0  0  0  0
  2  3  1  0  0  0  0
  4  6  1  0  0  0  0
  5 68  1  0  0  0  0
  6124  1  0  0  0  0
  7 56  1  0  0  0  0
  8 57  1  0  0  0  0
  9 58  1  0  0  0  0
 10 59  1  0  0  0  0
 11 60  1  0  0  0  0
 12 62  1  0  0  0  0
 13 63  1  0  0  0  0
 14 64  1  0  0  0  0
 15 65  1  0  0  0  0
 16 66  1  0  0  0  0
 17 96  1  0  0  0  0
 18 97  1  0  0  0  0
 19 98  1  0  0  0  0
 20 99  1  0  0  0  0
 21100  1  0  0  0  0
 22102  1  0  0  0  0
 23103  1  0  0  0  0
 24104  1  0  0  0  0
 25105  1  0  0  0  0
 26106  1  0  0  0  0
 27 28  3  0  0  0  0
 28  4  1  0  0  0  0
 29  1  1  0  0  0  0
 30 29  1  0  0  0  0
 31 30  1  0  0  0  0
 32 30  1  0  0  0  0
 33 30  1  0  0  0  0
 34 29  1  0  0  0  0
 35 34  1  0  0  0  0
 36 34  1  0  0  0  0
 37 34  1  0  0  0  0
 38 29  1  0  0  0  0
 39 38  1  0  0  0  0
 40 38  1  0  0  0  0
 41 38  1  0  0  0  0
 42  1  1  0  0  0  0
 43 42  1  0  0  0  0
 44 43  1  0  0  0  0
 45 43  1  0  0  0  0
 46 43  1  0  0  0  0
 47 42  1  0  0  0  0
 48 47  1  0  0  0  0
 49 47  1  0  0  0  0
 50 47  1  0  0  0  0
 51 42  1  0  0  0  0
 52 51  1  0  0  0  0
 53 51  1  0  0  0  0
 54 51  1  0  0  0  0
 55  4  1  0  0  0  0
 56 55  4  0  0  0  0
 57 56  4  0  0  0  0
 58 57  4  0  0  0  0
 59 58  4  0  0  0  0
 60 55  4  0  0  0  0
 61  4  1  0  0  0  0
 62 61  4  0  0  0  0
 63 62  4  0  0  0  0
 64 63  4  0  0  0  0
 65 64  4  0  0  0  0
 66 61  4  0  0  0  0
 67  2  1  0  0  0  0
 68 67  3  0  0  0  0
 69  2  1  0  0  0  0
 70 69  1  0  0  0  0
 71 70  1  0  0  0  0
 72 70  1  0  0  0  0
 73 70  1  0  0  0  0
 74 69  1  0  0  0  0
 75 74  1  0  0  0  0
 76 74  1  0  0  0  0
 77 74  1  0  0  0  0
 78 69  1  0  0  0  0
 79 78  1  0  0  0  0
 80 78  1  0  0  0  0
 81 78  1  0  0  0  0
 82  2  1  0  0  0  0
 83 82  1  0  0  0  0
 84 83  1  0  0  0  0
 85 83  1  0  0  0  0
 86 83  1  0  0  0  0
 87 82  1  0  0  0  0
 88 87  1  0  0  0  0
 89 87  1  0  0  0  0
 90 87  1  0  0  0  0
 91 82  1  0  0  0  0
 92 91  1  0  0  0  0
 93 91  1  0  0  0  0
 94 91  1  0  0  0  0
 95  5  1  0  0  0  0
 96 95  4  0  0  0  0
 97 96  4  0  0  0  0
 98 97  4  0  0  0  0
 99 98  4  0  0  0  0
100 95  4  0  0  0  0
101  5  1  0  0  0  0
102101  4  0  0  0  0
103102  4  0  0  0  0
104103  4  0  0  0  0
105104  4  0  0  0  0
106101  4  0  0  0  0
107  5  1  0  0  0  0
108107  1  0  0  0  0
109  1  1  0  0  0  0
110109  1  0  0  0  0
111109  1  0  0  0  0
112111  1  0  0  0  0
113111  1  0  0  0  0
114111  1  0  0  0  0
115114  1  0  0  0  0
116114  1  0  0  0  0
117114  1  0  0  0  0
118117  1  0  0  0  0
119117  1  0  0  0  0
120117  1  0  0  0  0
121120  1  0  0  0  0
122120  1  0  0  0  0
123120  1  0  0  0  0
124125  1  0  0  0  0
126124  1  0  0  0  0
127124  1  0  0  0  0
 59 60  4  0  0  0  0
 65 66  4  0  0  0  0
 99100  4  0  0  0  0
105106  4  0  0  0  0
107109  1  0  0  0  0
M  CHG  4   1   1   2   1   4  -1   5  -1
M  END
$$$$
UWEZUS

From CSD data. Using bond type 'Any'. No disordered atoms. Largest molecule.
135139  0  0  0  0  0  0  0  0999 V2000
    4.6924    3.3560    1.8616 P   0  3  0  0  0  0  0  0  0  0  0  0
    3.7685    3.7090    7.9775 P   0  3  0  0  0  0  0  0  0  0  0  0
    6.7497    0.6856    4.9156 B   0  5  0  0  0  0  0  0  0  0  0  0
    5.1267    6.4859    4.7678 B   0  5  0  0  0  0  0  0  0  0  0  0
    6.8416    1.4901    6.1263 O   0  0  0  0  0  0  0  0  0  0  0  0
    8.8481   -0.3377    6.6354 F   0  0  0  0  0  0  0  0  0  0  0  0
   11.2178   -1.3370    5.9549 F   0  0  0  0  0  0  0  0  0  0  0  0
   11.9619   -1.4580    3.3344 F   0  0  0  0  0  0  0  0  0  0  0  0
   10.2509   -0.5634    1.4093 F   0  0  0  0  0  0  0  0  0  0  0  0
    7.9228    0.4963    2.0540 F   0  0  0  0  0  0  0  0  0  0  0  0
    5.8722   -1.2252    2.9175 F   0  0  0  0  0  0  0  0  0  0  0  0
    4.4014   -3.4182    3.2802 F   0  0  0  0  0  0  0  0  0  0  0  0
    3.4777   -4.0644    5.7535 F   0  0  0  0  0  0  0  0  0  0  0  0
    4.1597   -2.5141    7.8834 F   0  0  0  0  0  0  0  0  0  0  0  0
    5.7279   -0.4151    7.5933 F   0  0  0  0  0  0  0  0  0  0  0  0
    2.6629    7.7374    6.0421 F   0  0  0  0  0  0  0  0  0  0  0  0
    1.5411   10.0368    5.3724 F   0  0  0  0  0  0  0  0  0  0  0  0
    2.5527   11.5352    3.3400 F   0  0  0  0  0  0  0  0  0  0  0  0
    4.8110   10.7034    2.0549 F   0  0  0  0  0  0  0  0  0  0  0  0
    5.9953    8.4155    2.7467 F   0  0  0  0  0  0  0  0  0  0  0  0
    5.3046    8.1778    7.0903 F   0  0  0  0  0  0  0  0  0  0  0  0
    7.4603    8.8765    8.4915 F   0  0  0  0  0  0  0  0  0  0  0  0
    9.9087    7.9061    7.8298 F   0  0  0  0  0  0  0  0  0  0  0  0
   10.1423    6.1805    5.7317 F   0  0  0  0  0  0  0  0  0  0  0  0
    8.0718    5.6015    4.2278 F   0  0  0  0  0  0  0  0  0  0  0  0
    5.3949    2.2885    3.0308 C   0  0  0  0  0  0  0  0  0  0  0  0
    5.9982    1.5584    3.7779 C   0  0  0  0  0  0  0  0  0  0  0  0
    6.0384    3.7008    0.6057 C   0  0  0  0  0  0  0  0  0  0  0  0
    6.2185    2.4679   -0.2903 C   0  0  0  0  0  0  0  0  0  0  0  0
    6.9064    2.6392   -0.9376 H   0  0  0  0  0  0  0  0  0  0  0  0
    5.3933    2.2789   -0.7445 H   0  0  0  0  0  0  0  0  0  0  0  0
    6.4671    1.7138    0.2494 H   0  0  0  0  0  0  0  0  0  0  0  0
    5.6573    4.9289   -0.2286 C   0  0  0  0  0  0  0  0  0  0  0  0
    6.3482    5.1056   -0.8720 H   0  0  0  0  0  0  0  0  0  0  0  0
    5.5564    5.6891    0.3488 H   0  0  0  0  0  0  0  0  0  0  0  0
    4.8291    4.7611   -0.6845 H   0  0  0  0  0  0  0  0  0  0  0  0
    7.3785    3.9401    1.3155 C   0  0  0  0  0  0  0  0  0  0  0  0
    8.0590    4.1159    0.6620 H   0  0  0  0  0  0  0  0  0  0  0  0
    7.6151    3.1602    1.8227 H   0  0  0  0  0  0  0  0  0  0  0  0
    7.2976    4.6930    1.9053 H   0  0  0  0  0  0  0  0  0  0  0  0
    3.1981    2.4360    1.1957 C   0  0  0  0  0  0  0  0  0  0  0  0
    3.5532    0.9547    0.9320 C   0  0  0  0  0  0  0  0  0  0  0  0
    2.7815    0.4971    0.5907 H   0  0  0  0  0  0  0  0  0  0  0  0
    3.8331    0.5415    1.7515 H   0  0  0  0  0  0  0  0  0  0  0  0
    4.2650    0.9056    0.2907 H   0  0  0  0  0  0  0  0  0  0  0  0
    2.6290    3.0161   -0.1099 C   0  0  0  0  0  0  0  0  0  0  0  0
    1.8730    2.4956   -0.3882 H   0  0  0  0  0  0  0  0  0  0  0  0
    3.3044    2.9903   -0.7932 H   0  0  0  0  0  0  0  0  0  0  0  0
    2.3562    3.9244    0.0356 H   0  0  0  0  0  0  0  0  0  0  0  0
    2.1239    2.4672    2.2916 C   0  0  0  0  0  0  0  0  0  0  0  0
    1.3408    2.0047    1.9859 H   0  0  0  0  0  0  0  0  0  0  0  0
    1.8984    3.3784    2.4922 H   0  0  0  0  0  0  0  0  0  0  0  0
    2.4598    2.0390    3.0829 H   0  0  0  0  0  0  0  0  0  0  0  0
    8.2470    0.1575    4.3903 C   0  0  0  0  0  0  0  0  0  0  0  0
    9.1579   -0.3485    5.3154 C   0  0  0  0  0  0  0  0  0  0  0  0
   10.3881   -0.8815    4.9953 C   0  0  0  0  0  0  0  0  0  0  0  0
   10.7684   -0.9455    3.6798 C   0  0  0  0  0  0  0  0  0  0  0  0
    9.9069   -0.4821    2.7112 C   0  0  0  0  0  0  0  0  0  0  0  0
    8.6910    0.0631    3.0861 C   0  0  0  0  0  0  0  0  0  0  0  0
    5.8554   -0.6697    5.2241 C   0  0  0  0  0  0  0  0  0  0  0  0
    5.4785   -1.5107    4.1833 C   0  0  0  0  0  0  0  0  0  0  0  0
    4.7140   -2.6459    4.3363 C   0  0  0  0  0  0  0  0  0  0  0  0
    4.2594   -2.9843    5.5843 C   0  0  0  0  0  0  0  0  0  0  0  0
    4.6119   -2.2052    6.6536 C   0  0  0  0  0  0  0  0  0  0  0  0
    5.4169   -1.0850    6.4666 C   0  0  0  0  0  0  0  0  0  0  0  0
    3.9341    4.7487    6.6032 C   0  0  0  0  0  0  0  0  0  0  0  0
    4.3418    5.5744    5.8240 C   0  0  0  0  0  0  0  0  0  0  0  0
    3.1202    4.7826    9.3350 C   0  0  0  0  0  0  0  0  0  0  0  0
    2.6930    3.9582   10.5517 C   0  0  0  0  0  0  0  0  0  0  0  0
    2.3614    4.5454   11.2347 H   0  0  0  0  0  0  0  0  0  0  0  0
    3.4484    3.4708   10.8877 H   0  0  0  0  0  0  0  0  0  0  0  0
    2.0026    3.3436   10.2952 H   0  0  0  0  0  0  0  0  0  0  0  0
    1.9482    5.6252    8.8231 C   0  0  0  0  0  0  0  0  0  0  0  0
    1.6179    6.1788    9.5338 H   0  0  0  0  0  0  0  0  0  0  0  0
    1.2475    5.0454    8.5174 H   0  0  0  0  0  0  0  0  0  0  0  0
    2.2455    6.1784    8.0974 H   0  0  0  0  0  0  0  0  0  0  0  0
    4.2689    5.7180    9.7378 C   0  0  0  0  0  0  0  0  0  0  0  0
    3.9755    6.2989   10.4433 H   0  0  0  0  0  0  0  0  0  0  0  0
    4.5346    6.2448    8.9806 H   0  0  0  0  0  0  0  0  0  0  0  0
    5.0149    5.1957   10.0420 H   0  0  0  0  0  0  0  0  0  0  0  0
    2.7319    2.2515    7.5070 C   0  0  0  0  0  0  0  0  0  0  0  0
    1.2616    2.6432    7.3707 C   0  0  0  0  0  0  0  0  0  0  0  0
    0.7453    1.8711    7.1260 H   0  0  0  0  0  0  0  0  0  0  0  0
    1.1720    3.3165    6.6928 H   0  0  0  0  0  0  0  0  0  0  0  0
    0.9431    2.9883    8.2080 H   0  0  0  0  0  0  0  0  0  0  0  0
    2.8804    1.1221    8.5469 C   0  0  0  0  0  0  0  0  0  0  0  0
    2.3377    0.3744    8.2868 H   0  0  0  0  0  0  0  0  0  0  0  0
    2.5969    1.4391    9.4063 H   0  0  0  0  0  0  0  0  0  0  0  0
    3.7999    0.8493    8.5924 H   0  0  0  0  0  0  0  0  0  0  0  0
    3.2568    1.7780    6.1456 C   0  0  0  0  0  0  0  0  0  0  0  0
    2.7493    1.0165    5.8546 H   0  0  0  0  0  0  0  0  0  0  0  0
    4.1812    1.5336    6.2259 H   0  0  0  0  0  0  0  0  0  0  0  0
    3.1674    2.4873    5.5039 H   0  0  0  0  0  0  0  0  0  0  0  0
    4.3738    7.9166    4.4059 C   0  0  0  0  0  0  0  0  0  0  0  0
    3.2498    8.4240    5.0429 C   0  0  0  0  0  0  0  0  0  0  0  0
    2.6421    9.6253    4.7163 C   0  0  0  0  0  0  0  0  0  0  0  0
    3.1580   10.3857    3.7016 C   0  0  0  0  0  0  0  0  0  0  0  0
    4.2920    9.9617    3.0557 C   0  0  0  0  0  0  0  0  0  0  0  0
    4.8727    8.7558    3.4201 C   0  0  0  0  0  0  0  0  0  0  0  0
    6.5421    6.8776    5.5530 C   0  0  0  0  0  0  0  0  0  0  0  0
    6.4997    7.6911    6.6763 C   0  0  0  0  0  0  0  0  0  0  0  0
    7.5898    8.0467    7.4397 C   0  0  0  0  0  0  0  0  0  0  0  0
    8.8255    7.5606    7.1104 C   0  0  0  0  0  0  0  0  0  0  0  0
    8.9428    6.7205    6.0364 C   0  0  0  0  0  0  0  0  0  0  0  0
    7.8266    6.4211    5.2775 C   0  0  0  0  0  0  0  0  0  0  0  0
    4.1618    4.8562    2.8009 C   0  0  0  0  0  0  0  0  0  0  0  0
    3.6028    4.5275    3.5349 H   0  0  0  0  0  0  0  0  0  0  0  0
    5.3915    5.5123    3.4700 C   0  0  0  0  0  0  0  0  0  0  0  0
    5.8548    6.0347    2.7960 H   0  0  0  0  0  0  0  0  0  0  0  0
    5.9935    4.8040    3.7468 H   0  0  0  0  0  0  0  0  0  0  0  0
    3.2720    5.8507    2.0028 C   0  0  0  0  0  0  0  0  0  0  0  0
    3.7780    6.6626    1.8378 H   0  0  0  0  0  0  0  0  0  0  0  0
    3.0550    5.4578    1.1420 H   0  0  0  0  0  0  0  0  0  0  0  0
    1.9823    6.2127    2.7154 C   0  0  0  0  0  0  0  0  0  0  0  0
    1.3967    5.4390    2.7116 H   0  0  0  0  0  0  0  0  0  0  0  0
    2.1862    6.4239    3.6399 H   0  0  0  0  0  0  0  0  0  0  0  0
    1.2435    7.3827    2.1003 C   0  0  0  0  0  0  0  0  0  0  0  0
    0.0944    7.8906    2.8785 C   0  0  0  0  0  0  0  0  0  0  0  0
   -0.3076    8.6269    2.4116 H   0  0  0  0  0  0  0  0  0  0  0  0
    0.3971    8.1842    3.7411 H   0  0  0  0  0  0  0  0  0  0  0  0
   -0.5521    7.1905    2.9873 H   0  0  0  0  0  0  0  0  0  0  0  0
    7.6047    2.6811    6.0674 C   0  0  0  0  0  0  0  0  0  0  0  0
    7.1474    3.3328    5.5133 H   0  0  0  0  0  0  0  0  0  0  0  0
    8.4672    2.4940    5.6633 H   0  0  0  0  0  0  0  0  0  0  0  0
    7.8095    3.2544    7.4635 C   0  0  0  0  0  0  0  0  0  0  0  0
    8.5627    3.8639    7.4373 H   0  0  0  0  0  0  0  0  0  0  0  0
    8.0424    2.5275    8.0617 H   0  0  0  0  0  0  0  0  0  0  0  0
    6.6100    3.9937    8.0458 C   0  0  0  0  0  0  0  0  0  0  0  0
    6.3214    4.6730    7.4148 H   0  0  0  0  0  0  0  0  0  0  0  0
    6.8829    4.4442    8.8606 H   0  0  0  0  0  0  0  0  0  0  0  0
    5.4236    3.0666    8.3593 C   0  0  0  0  0  0  0  0  0  0  0  0
    5.4516    2.8472    9.3031 H   0  0  0  0  0  0  0  0  0  0  0  0
    5.5474    2.2400    7.8667 H   0  0  0  0  0  0  0  0  0  0  0  0
    1.8799    8.1146    1.9803 H   0  0  0  0  0  0  0  0  0  0  0  0
    0.9353    7.1250    1.2208 H   0  0  0  0  0  0  0  0  0  0  0  0
  1 26  1  0  0  0  0
  2 66  1  0  0  0  0
  3  5  1  0  0  0  0
  4 67  1  0  0  0  0
  5122  1  0  0  0  0
  6 55  1  0  0  0  0
  7 56  1  0  0  0  0
  8 57  1  0  0  0  0
  9 58  1  0  0  0  0
 10 59  1  0  0  0  0
 11 61  1  0  0  0  0
 12 62  1  0  0  0  0
 13 63  1  0  0  0  0
 14 64  1  0  0  0  0
 15 65  1  0  0  0  0
 16 95  1  0  0  0  0
 17 96  1  0  0  0  0
 18 97  1  0  0  0  0
 19 98  1  0  0  0  0
 20 99  1  0  0  0  0
 21101  1  0  0  0  0
 22102  1  0  0  0  0
 23103  1  0  0  0  0
 24104  1  0  0  0  0
 25105  1  0  0  0  0
 26 27  3  0  0  0  0
 27  3  1  0  0  0  0
 28  1  1  0  0  0  0
 29 28  1  0  0  0  0
 30 29  1  0  0  0  0
 31 29  1  0  0  0  0
 32 29  1  0  0  0  0
 33 28  1  0  0  0  0
 34 33  1  0  0  0  0
 35 33  1  0  0  0  0
 36 33  1  0  0  0  0
 37 28  1  0  0  0  0
 38 37  1  0  0  0  0
 39 37  1  0  0  0  0
 40 37  1  0  0  0  0
 41  1  1  0  0  0  0
 42 41  1  0  0  0  0
 43 42  1  0  0  0  0
 44 42  1  0  0  0  0
 45 42  1  0  0  0  0
 46 41  1  0  0  0  0
 47 46  1  0  0  0  0
 48 46  1  0  0  0  0
 49 46  1  0  0  0  0
 50 41  1  0  0  0  0
 51 50  1  0  0  0  0
 52 50  1  0  0  0  0
 53 50  1  0  0  0  0
 54  3  1  0  0  0  0
 55 54  4  0  0  0  0
 56 55  4  0  0  0  0
 57 56  4  0  0  0  0
 58 57  4  0  0  0  0
 59 54  4  0  0  0  0
 60  3  1  0  0  0  0
 61 60  4  0  0  0  0
 62 61  4  0  0  0  0
 63 62  4  0  0  0  0
 64 63  4  0  0  0  0
 65 60  4  0  0  0  0
 66 67  3  0  0  0  0
 68  2  1  0  0  0  0
 69 68  1  0  0  0  0
 70 69  1  0  0  0  0
 71 69  1  0  0  0  0
 72 69  1  0  0  0  0
 73 68  1  0  0  0  0
 74 73  1  0  0  0  0
 75 73  1  0  0  0  0
 76 73  1  0  0  0  0
 77 68  1  0  0  0  0
 78 77  1  0  0  0  0
 79 77  1  0  0  0  0
 80 77  1  0  0  0  0
 81  2  1  0  0  0  0
 82 81  1  0  0  0  0
 83 82  1  0  0  0  0
 84 82  1  0  0  0  0
 85 82  1  0  0  0  0
 86 81  1  0  0  0  0
 87 86  1  0  0  0  0
 88 86  1  0  0  0  0
 89 86  1  0  0  0  0
 90 81  1  0  0  0  0
 91 90  1  0  0  0  0
 92 90  1  0  0  0  0
 93 90  1  0  0  0  0
 94  4  1  0  0  0  0
 95 94  4  0  0  0  0
 96 95  4  0  0  0  0
 97 96  4  0  0  0  0
 98 97  4  0  0  0  0
 99 94  4  0  0  0  0
100  4  1  0  0  0  0
101100  4  0  0  0  0
102101  4  0  0  0  0
103102  4  0  0  0  0
104103  4  0  0  0  0
105100  4  0  0  0  0
106  1  1  0  0  0  0
107106  1  0  0  0  0
108  4  1  0  0  0  0
109108  1  0  0  0  0
110108  1  0  0  0  0
111106  1  0  0  0  0
112111  1  0  0  0  0
113111  1  0  0  0  0
114111  1  0  0  0  0
115114  1  0  0  0  0
116114  1  0  0  0  0
117114  1  0  0  0  0
118117  1  0  0  0  0
119118  1  0  0  0  0
120118  1  0  0  0  0
121118  1  0  0  0  0
122123  1  0  0  0  0
124122  1  0  0  0  0
125122  1  0  0  0  0
126125  1  0  0  0  0
127125  1  0  0  0  0
128125  1  0  0  0  0
129128  1  0  0  0  0
130128  1  0  0  0  0
131  2  1  0  0  0  0
132131  1  0  0  0  0
133131  1  0  0  0  0
134117  1  0  0  0  0
135117  1  0  0  0  0
 58 59  4  0  0  0  0
 64 65  4  0  0  0  0
 98 99  4  0  0  0  0
104105  4  0  0  0  0
106108  1  0  0  0  0
128131  1  0  0  0  0
M  CHG  4   1   1   2   1   3  -1   4  -1
M  END
$$$$
UWIBAE

From CSD data. Using bond type 'Any'. No disordered atoms. Largest molecule.
130134  0  0  0  0  0  0  0  0999 V2000
   -4.8529    6.1352   14.2645 P   0  3  0  0  0  0  0  0  0  0  0  0
   -1.0775    3.4821   15.0778 F   0  0  0  0  0  0  0  0  0  0  0  0
    1.4074    4.3678   15.4706 F   0  0  0  0  0  0  0  0  0  0  0  0
    2.2830    4.9530   17.9766 F   0  0  0  0  0  0  0  0  0  0  0  0
    0.5897    4.6575   20.0940 F   0  0  0  0  0  0  0  0  0  0  0  0
   -1.8671    3.8063   19.7472 F   0  0  0  0  0  0  0  0  0  0  0  0
   -1.5140    0.8516   18.1025 F   0  0  0  0  0  0  0  0  0  0  0  0
   -1.0593   -1.5509   17.0647 F   0  0  0  0  0  0  0  0  0  0  0  0
   -2.2151   -2.2787   14.7177 F   0  0  0  0  0  0  0  0  0  0  0  0
   -3.8826   -0.5497   13.4599 F   0  0  0  0  0  0  0  0  0  0  0  0
   -4.3310    1.8755   14.4536 F   0  0  0  0  0  0  0  0  0  0  0  0
   -3.8783    2.8431   18.3038 O   0  0  0  0  0  0  0  0  0  0  0  0
   -4.2630    4.9680   15.3950 C   0  0  0  0  0  0  0  0  0  0  0  0
   -3.8041    4.0794   16.0624 C   0  0  0  0  0  0  0  0  0  0  0  0
   -1.6214    3.5981   17.3798 C   0  0  0  0  0  0  0  0  0  0  0  0
   -0.7095    3.7828   16.3531 C   0  0  0  0  0  0  0  0  0  0  0  0
    0.5784    4.2253   16.5256 C   0  0  0  0  0  0  0  0  0  0  0  0
    1.0214    4.5255   17.7883 C   0  0  0  0  0  0  0  0  0  0  0  0
    0.1720    4.3748   18.8469 C   0  0  0  0  0  0  0  0  0  0  0  0
   -1.1155    3.9250   18.6313 C   0  0  0  0  0  0  0  0  0  0  0  0
   -2.9152    1.5158   16.3239 C   0  0  0  0  0  0  0  0  0  0  0  0
   -2.1133    0.5713   16.9183 C   0  0  0  0  0  0  0  0  0  0  0  0
   -1.8567   -0.6783   16.4223 C   0  0  0  0  0  0  0  0  0  0  0  0
   -2.4525   -1.0563   15.2436 C   0  0  0  0  0  0  0  0  0  0  0  0
   -3.2773   -0.1787   14.5999 C   0  0  0  0  0  0  0  0  0  0  0  0
   -3.4888    1.0721   15.1477 C   0  0  0  0  0  0  0  0  0  0  0  0
   -6.5823    5.6305   13.8307 C   0  0  0  0  0  0  0  0  0  0  0  0
   -7.4029    5.8104   15.1211 C   0  0  0  0  0  0  0  0  0  0  0  0
   -8.3193    5.5843   14.9494 H   0  0  0  0  0  0  0  0  0  0  0  0
   -7.3451    6.7233   15.4100 H   0  0  0  0  0  0  0  0  0  0  0  0
   -7.0532    5.2342   15.8041 H   0  0  0  0  0  0  0  0  0  0  0  0
   -6.6589    4.1718   13.3995 C   0  0  0  0  0  0  0  0  0  0  0  0
   -7.5797    3.9117   13.3137 H   0  0  0  0  0  0  0  0  0  0  0  0
   -6.2317    3.6199   14.0597 H   0  0  0  0  0  0  0  0  0  0  0  0
   -6.2159    4.0636   12.5553 H   0  0  0  0  0  0  0  0  0  0  0  0
   -7.1517    6.5178   12.7095 C   0  0  0  0  0  0  0  0  0  0  0  0
   -8.0927    6.3501   12.6149 H   0  0  0  0  0  0  0  0  0  0  0  0
   -6.7063    6.3160   11.8846 H   0  0  0  0  0  0  0  0  0  0  0  0
   -7.0132    7.4417   12.9319 H   0  0  0  0  0  0  0  0  0  0  0  0
   -3.6014    6.2054   12.9121 C   0  0  0  0  0  0  0  0  0  0  0  0
   -2.2591    6.5203   13.5776 C   0  0  0  0  0  0  0  0  0  0  0  0
   -1.5799    6.6090   12.9039 H   0  0  0  0  0  0  0  0  0  0  0  0
   -2.0232    5.8092   14.1771 H   0  0  0  0  0  0  0  0  0  0  0  0
   -2.3300    7.3432   14.0685 H   0  0  0  0  0  0  0  0  0  0  0  0
   -3.9221    7.3104   11.9037 C   0  0  0  0  0  0  0  0  0  0  0  0
   -3.2323    7.3468   11.2383 H   0  0  0  0  0  0  0  0  0  0  0  0
   -3.9721    8.1540   12.3592 H   0  0  0  0  0  0  0  0  0  0  0  0
   -4.7646    7.1244   11.4818 H   0  0  0  0  0  0  0  0  0  0  0  0
   -3.5166    4.8355   12.2149 C   0  0  0  0  0  0  0  0  0  0  0  0
   -2.7946    4.8428   11.5816 H   0  0  0  0  0  0  0  0  0  0  0  0
   -4.3414    4.6580   11.7567 H   0  0  0  0  0  0  0  0  0  0  0  0
   -3.3604    4.1524   12.8706 H   0  0  0  0  0  0  0  0  0  0  0  0
   -5.1023    2.1479   18.3241 C   0  0  0  0  0  0  0  0  0  0  0  0
   -5.2743    1.8440   19.2297 H   0  0  0  0  0  0  0  0  0  0  0  0
   -5.0257    1.3639   17.7586 H   0  0  0  0  0  0  0  0  0  0  0  0
   -6.2890    2.9842   17.8500 C   0  0  0  0  0  0  0  0  0  0  0  0
   -7.1090    2.5162   18.0738 H   0  0  0  0  0  0  0  0  0  0  0  0
   -6.2493    3.0632   16.8847 H   0  0  0  0  0  0  0  0  0  0  0  0
   -6.3419    4.3906   18.4588 C   0  0  0  0  0  0  0  0  0  0  0  0
   -5.6026    4.9133   18.1123 H   0  0  0  0  0  0  0  0  0  0  0  0
   -7.1660    4.8233   18.1841 H   0  0  0  0  0  0  0  0  0  0  0  0
   -4.9247    7.7796   15.0403 C   0  0  0  0  0  0  0  0  0  0  0  0
   -4.1912    8.3144   14.7007 H   0  0  0  0  0  0  0  0  0  0  0  0
   -5.7510    8.2123   14.7725 H   0  0  0  0  0  0  0  0  0  0  0  0
   -3.1249    2.9915   17.0633 B   0  5  0  0  0  0  0  0  0  0  0  0
   -6.3424    6.0204   20.7623 P   0  3  0  0  0  0  0  0  0  0  0  0
  -10.1178    8.6735   19.9490 F   0  0  0  0  0  0  0  0  0  0  0  0
  -12.6027    7.7878   19.5561 F   0  0  0  0  0  0  0  0  0  0  0  0
  -13.4783    7.2026   17.0502 F   0  0  0  0  0  0  0  0  0  0  0  0
  -11.7851    7.4981   14.9328 F   0  0  0  0  0  0  0  0  0  0  0  0
   -9.3282    8.3493   15.2796 F   0  0  0  0  0  0  0  0  0  0  0  0
   -9.6813   11.3040   16.9242 F   0  0  0  0  0  0  0  0  0  0  0  0
  -10.1360   13.7065   17.9621 F   0  0  0  0  0  0  0  0  0  0  0  0
   -8.9802   14.4343   20.3090 F   0  0  0  0  0  0  0  0  0  0  0  0
   -7.3127   12.7053   21.5669 F   0  0  0  0  0  0  0  0  0  0  0  0
   -6.8643   10.2801   20.5731 F   0  0  0  0  0  0  0  0  0  0  0  0
   -7.3170    9.3125   16.7230 O   0  0  0  0  0  0  0  0  0  0  0  0
   -6.9324    7.1876   19.6318 C   0  0  0  0  0  0  0  0  0  0  0  0
   -7.3912    8.0762   18.9644 C   0  0  0  0  0  0  0  0  0  0  0  0
   -9.5739    8.5575   17.6470 C   0  0  0  0  0  0  0  0  0  0  0  0
  -10.4858    8.3728   18.6736 C   0  0  0  0  0  0  0  0  0  0  0  0
  -11.7737    7.9303   18.5011 C   0  0  0  0  0  0  0  0  0  0  0  0
  -12.2167    7.6301   17.2384 C   0  0  0  0  0  0  0  0  0  0  0  0
  -11.3673    7.7808   16.1799 C   0  0  0  0  0  0  0  0  0  0  0  0
  -10.0798    8.2306   16.3955 C   0  0  0  0  0  0  0  0  0  0  0  0
   -8.2801   10.6398   18.7029 C   0  0  0  0  0  0  0  0  0  0  0  0
   -9.0820   11.5843   18.1085 C   0  0  0  0  0  0  0  0  0  0  0  0
   -9.3386   12.8339   18.6045 C   0  0  0  0  0  0  0  0  0  0  0  0
   -8.7428   13.2119   19.7831 C   0  0  0  0  0  0  0  0  0  0  0  0
   -7.9180   12.3343   20.4269 C   0  0  0  0  0  0  0  0  0  0  0  0
   -7.7066   11.0835   19.8791 C   0  0  0  0  0  0  0  0  0  0  0  0
   -4.6130    6.5251   21.1961 C   0  0  0  0  0  0  0  0  0  0  0  0
   -3.7924    6.3452   19.9057 C   0  0  0  0  0  0  0  0  0  0  0  0
   -2.8760    6.5713   20.0773 H   0  0  0  0  0  0  0  0  0  0  0  0
   -3.8502    5.4323   19.6167 H   0  0  0  0  0  0  0  0  0  0  0  0
   -4.1421    6.9214   19.2227 H   0  0  0  0  0  0  0  0  0  0  0  0
   -4.5364    7.9838   21.6273 C   0  0  0  0  0  0  0  0  0  0  0  0
   -3.6156    8.2439   21.7131 H   0  0  0  0  0  0  0  0  0  0  0  0
   -4.9636    8.5357   20.9670 H   0  0  0  0  0  0  0  0  0  0  0  0
   -4.9794    8.0920   22.4714 H   0  0  0  0  0  0  0  0  0  0  0  0
   -4.0437    5.6378   22.3173 C   0  0  0  0  0  0  0  0  0  0  0  0
   -3.1026    5.8055   22.4119 H   0  0  0  0  0  0  0  0  0  0  0  0
   -4.4890    5.8396   23.1422 H   0  0  0  0  0  0  0  0  0  0  0  0
   -4.1821    4.7139   22.0949 H   0  0  0  0  0  0  0  0  0  0  0  0
   -7.5939    5.9502   22.1147 C   0  0  0  0  0  0  0  0  0  0  0  0
   -8.9362    5.6353   21.4492 C   0  0  0  0  0  0  0  0  0  0  0  0
   -9.6154    5.5466   22.1229 H   0  0  0  0  0  0  0  0  0  0  0  0
   -9.1721    6.3464   20.8497 H   0  0  0  0  0  0  0  0  0  0  0  0
   -8.8653    4.8124   20.9583 H   0  0  0  0  0  0  0  0  0  0  0  0
   -7.2732    4.8452   23.1231 C   0  0  0  0  0  0  0  0  0  0  0  0
   -7.9630    4.8088   23.7884 H   0  0  0  0  0  0  0  0  0  0  0  0
   -7.2232    4.0016   22.6676 H   0  0  0  0  0  0  0  0  0  0  0  0
   -6.4307    5.0312   23.5450 H   0  0  0  0  0  0  0  0  0  0  0  0
   -7.6787    7.3201   22.8119 C   0  0  0  0  0  0  0  0  0  0  0  0
   -8.4007    7.3128   23.4452 H   0  0  0  0  0  0  0  0  0  0  0  0
   -6.8539    7.4976   23.2700 H   0  0  0  0  0  0  0  0  0  0  0  0
   -7.8349    8.0032   22.1562 H   0  0  0  0  0  0  0  0  0  0  0  0
   -6.0930   10.0077   16.7027 C   0  0  0  0  0  0  0  0  0  0  0  0
   -5.9211   10.3116   15.7971 H   0  0  0  0  0  0  0  0  0  0  0  0
   -6.1696   10.7917   17.2682 H   0  0  0  0  0  0  0  0  0  0  0  0
   -4.9063    9.1714   17.1768 C   0  0  0  0  0  0  0  0  0  0  0  0
   -4.0864    9.6394   16.9530 H   0  0  0  0  0  0  0  0  0  0  0  0
   -4.9460    9.0924   18.1421 H   0  0  0  0  0  0  0  0  0  0  0  0
   -4.8535    7.7650   16.5680 C   0  0  0  0  0  0  0  0  0  0  0  0
   -5.5927    7.2423   16.9144 H   0  0  0  0  0  0  0  0  0  0  0  0
   -4.0293    7.3323   16.8426 H   0  0  0  0  0  0  0  0  0  0  0  0
   -6.2706    4.3760   19.9864 C   0  0  0  0  0  0  0  0  0  0  0  0
   -7.0041    3.8412   20.3260 H   0  0  0  0  0  0  0  0  0  0  0  0
   -5.4443    3.9433   20.2542 H   0  0  0  0  0  0  0  0  0  0  0  0
   -8.0704    9.1641   17.9635 B   0  5  0  0  0  0  0  0  0  0  0  0
  1 13  1  0  0  0  0
  2 16  1  0  0  0  0
  3 17  1  0  0  0  0
  4 18  1  0  0  0  0
  5 19  1  0  0  0  0
  6 20  1  0  0  0  0
  7 22  1  0  0  0  0
  8 23  1  0  0  0  0
  9 24  1  0  0  0  0
 10 25  1  0  0  0  0
 11 26  1  0  0  0  0
 12 53  1  0  0  0  0
 13 14  3  0  0  0  0
 14 65  1  0  0  0  0
 15 16  4  0  0  0  0
 16 17  4  0  0  0  0
 17 18  4  0  0  0  0
 18 19  4  0  0  0  0
 19 20  4  0  0  0  0
 20 15  4  0  0  0  0
 21 22  4  0  0  0  0
 22 23  4  0  0  0  0
 23 24  4  0  0  0  0
 24 25  4  0  0  0  0
 25 26  4  0  0  0  0
 26 21  4  0  0  0  0
 27  1  1  0  0  0  0
 28 27  1  0  0  0  0
 29 28  1  0  0  0  0
 30 28  1  0  0  0  0
 31 28  1  0  0  0  0
 32 27  1  0  0  0  0
 33 32  1  0  0  0  0
 34 32  1  0  0  0  0
 35 32  1  0  0  0  0
 36 27  1  0  0  0  0
 37 36  1  0  0  0  0
 38 36  1  0  0  0  0
 39 36  1  0  0  0  0
 40  1  1  0  0  0  0
 41 40  1  0  0  0  0
 42 41  1  0  0  0  0
 43 41  1  0  0  0  0
 44 41  1  0  0  0  0
 45 40  1  0  0  0  0
 46 45  1  0  0  0  0
 47 45  1  0  0  0  0
 48 45  1  0  0  0  0
 49 40  1  0  0  0  0
 50 49  1  0  0  0  0
 51 49  1  0  0  0  0
 52 49  1  0  0  0  0
 53 54  1  0  0  0  0
 55 53  1  0  0  0  0
 56 53  1  0  0  0  0
 57 56  1  0  0  0  0
 58 56  1  0  0  0  0
 59 56  1  0  0  0  0
 60 59  1  0  0  0  0
 61 59  1  0  0  0  0
 62  1  1  0  0  0  0
 63 62  1  0  0  0  0
 64 62  1  0  0  0  0
 65 12  1  0  0  0  0
 66 78  1  0  0  0  0
 67 81  1  0  0  0  0
 68 82  1  0  0  0  0
 69 83  1  0  0  0  0
 70 84  1  0  0  0  0
 71 85  1  0  0  0  0
 72 87  1  0  0  0  0
 73 88  1  0  0  0  0
 74 89  1  0  0  0  0
 75 90  1  0  0  0  0
 76 91  1  0  0  0  0
 77118  1  0  0  0  0
 78 79  3  0  0  0  0
 79130  1  0  0  0  0
 80 81  4  0  0  0  0
 81 82  4  0  0  0  0
 82 83  4  0  0  0  0
 83 84  4  0  0  0  0
 84 85  4  0  0  0  0
 85 80  4  0  0  0  0
 86 87  4  0  0  0  0
 87 88  4  0  0  0  0
 88 89  4  0  0  0  0
 89 90  4  0  0  0  0
 90 91  4  0  0  0  0
 91 86  4  0  0  0  0
 92 66  1  0  0  0  0
 93 92  1  0  0  0  0
 94 93  1  0  0  0  0
 95 93  1  0  0  0  0
 96 93  1  0  0  0  0
 97 92  1  0  0  0  0
 98 97  1  0  0  0  0
 99 97  1  0  0  0  0
100 97  1  0  0  0  0
101 92  1  0  0  0  0
102101  1  0  0  0  0
103101  1  0  0  0  0
104101  1  0  0  0  0
105 66  1  0  0  0  0
106105  1  0  0  0  0
107106  1  0  0  0  0
108106  1  0  0  0  0
109106  1  0  0  0  0
110105  1  0  0  0  0
111110  1  0  0  0  0
112110  1  0  0  0  0
113110  1  0  0  0  0
114105  1  0  0  0  0
115114  1  0  0  0  0
116114  1  0  0  0  0
117114  1  0  0  0  0
118119  1  0  0  0  0
120118  1  0  0  0  0
121118  1  0  0  0  0
122121  1  0  0  0  0
123121  1  0  0  0  0
124 62  1  0  0  0  0
125124  1  0  0  0  0
126124  1  0  0  0  0
127 59  1  0  0  0  0
128127  1  0  0  0  0
129127  1  0  0  0  0
130 77  1  0  0  0  0
 15 65  1  0  0  0  0
 21 65  1  0  0  0  0
 66127  1  0  0  0  0
 80130  1  0  0  0  0
 86130  1  0  0  0  0
121124  1  0  0  0  0
M  CHG  4   1   1  65  -1  66   1 130  -1
M  END
$$$$
UYUXAO

From CSD data. Using bond type 'Any'. No disordered atoms. Largest molecule.
 65 67  0  0  0  0  0  0  0  0999 V2000
   -0.0362    0.6853   20.3356 P   0  0  0  0  0  0  0  0  0  0  0  0
    0.2275   -0.5917   19.0697 C   0  0  0  0  0  0  0  0  0  0  0  0
   -0.2665   -1.4085   19.3273 H   0  0  0  0  0  0  0  0  0  0  0  0
   -0.1432   -0.2733   18.2083 H   0  0  0  0  0  0  0  0  0  0  0  0
    1.6975   -0.9390   18.8771 C   0  0  0  0  0  0  0  0  0  0  0  0
    2.1355   -0.9454   19.7666 H   0  0  0  0  0  0  0  0  0  0  0  0
    2.1213   -0.2219   18.3425 H   0  0  0  0  0  0  0  0  0  0  0  0
    2.0297   -2.5420   18.0592 P   0  0  0  0  0  0  0  0  0  0  0  0
    1.0390   -2.6031   16.5245 C   0  0  0  0  0  0  0  0  0  0  0  0
    0.9774   -3.5454   16.2258 H   0  0  0  0  0  0  0  0  0  0  0  0
    0.1205   -2.2944   16.7301 H   0  0  0  0  0  0  0  0  0  0  0  0
    1.5784   -1.7783   15.3904 C   0  0  0  0  0  0  0  0  0  0  0  0
    2.5104   -2.0484   15.1913 H   0  0  0  0  0  0  0  0  0  0  0  0
    1.0327   -1.9262   14.5766 H   0  0  0  0  0  0  0  0  0  0  0  0
    1.5401   -0.3988   15.7555 O   0  0  0  0  0  0  0  0  0  0  0  0
    1.0879    0.4711   14.7130 C   0  0  0  0  0  0  0  0  0  0  0  0
    1.4870    0.1865   13.8537 H   0  0  0  0  0  0  0  0  0  0  0  0
    1.3927    1.3940   14.9013 H   0  0  0  0  0  0  0  0  0  0  0  0
   -0.4253    0.4534   14.5961 C   0  0  0  0  0  0  0  0  0  0  0  0
   -0.7088    0.9149   13.7672 H   0  0  0  0  0  0  0  0  0  0  0  0
   -0.7541   -0.4808   14.5636 H   0  0  0  0  0  0  0  0  0  0  0  0
   -0.9575    1.1159   15.7287 O   0  0  0  0  0  0  0  0  0  0  0  0
   -2.3821    1.0580   15.7865 C   0  0  0  0  0  0  0  0  0  0  0  0
   -2.6819    0.1142   15.7886 H   0  0  0  0  0  0  0  0  0  0  0  0
   -2.7713    1.5066   14.9943 H   0  0  0  0  0  0  0  0  0  0  0  0
   -2.8357    1.7381   17.0331 C   0  0  0  0  0  0  0  0  0  0  0  0
   -2.5140    2.6755   17.0439 H   0  0  0  0  0  0  0  0  0  0  0  0
   -3.8245    1.7478   17.0742 H   0  0  0  0  0  0  0  0  0  0  0  0
   -2.3056    1.0258   18.1536 O   0  0  0  0  0  0  0  0  0  0  0  0
   -2.5487    1.6674   19.3879 C   0  0  0  0  0  0  0  0  0  0  0  0
   -3.5218    1.7156   19.5610 H   0  0  0  0  0  0  0  0  0  0  0  0
   -2.1872    2.5903   19.3706 H   0  0  0  0  0  0  0  0  0  0  0  0
   -1.8683    0.8634   20.4592 C   0  0  0  0  0  0  0  0  0  0  0  0
   -2.2659   -0.0418   20.4614 H   0  0  0  0  0  0  0  0  0  0  0  0
   -2.0781    1.2799   21.3336 H   0  0  0  0  0  0  0  0  0  0  0  0
    0.7421    0.2331   22.0262 B   0  0  0  0  0  0  0  0  0  0  0  0
    1.7145    0.3457   21.9807 H   0  0  0  0  0  0  0  0  0  0  0  0
    0.5323   -0.6994   22.2448 H   0  0  0  0  0  0  0  0  0  0  0  0
    0.3778    0.8200   22.7209 H   0  0  0  0  0  0  0  0  0  0  0  0
    3.9124   -2.8154   17.8253 B   0  0  0  0  0  0  0  0  0  0  0  0
    4.3709   -2.6803   18.6802 H   0  0  0  0  0  0  0  0  0  0  0  0
    4.2561   -2.1754   17.1673 H   0  0  0  0  0  0  0  0  0  0  0  0
    4.0732   -3.7287   17.5093 H   0  0  0  0  0  0  0  0  0  0  0  0
    1.2701   -3.7801   19.1390 C   0  0  0  0  0  0  0  0  0  0  0  0
   -0.0900   -4.0888   19.0784 C   0  0  0  0  0  0  0  0  0  0  0  0
   -0.6372   -3.6756   18.4204 H   0  0  0  0  0  0  0  0  0  0  0  0
   -0.6499   -4.9908   19.9701 C   0  0  0  0  0  0  0  0  0  0  0  0
   -1.5770   -5.1918   19.9225 H   0  0  0  0  0  0  0  0  0  0  0  0
    0.1503   -5.5986   20.9310 C   0  0  0  0  0  0  0  0  0  0  0  0
   -0.2296   -6.2112   21.5500 H   0  0  0  0  0  0  0  0  0  0  0  0
    1.4941   -5.3092   20.9830 C   0  0  0  0  0  0  0  0  0  0  0  0
    2.0412   -5.7256   21.6366 H   0  0  0  0  0  0  0  0  0  0  0  0
    2.0540   -4.4168   20.0891 C   0  0  0  0  0  0  0  0  0  0  0  0
    2.9867   -4.2383   20.1259 H   0  0  0  0  0  0  0  0  0  0  0  0
    0.6471    2.2156   19.6779 C   0  0  0  0  0  0  0  0  0  0  0  0
    0.6528    2.5131   18.3101 C   0  0  0  0  0  0  0  0  0  0  0  0
    0.2211    1.9327   17.6954 H   0  0  0  0  0  0  0  0  0  0  0  0
    1.2921    3.6659   17.8512 C   0  0  0  0  0  0  0  0  0  0  0  0
    1.3204    3.8476   16.9184 H   0  0  0  0  0  0  0  0  0  0  0  0
    1.8924    4.5551   18.7473 C   0  0  0  0  0  0  0  0  0  0  0  0
    2.3169    5.3446   18.4313 H   0  0  0  0  0  0  0  0  0  0  0  0
    1.8591    4.2705   20.0978 C   0  0  0  0  0  0  0  0  0  0  0  0
    2.2574    4.8783   20.7103 H   0  0  0  0  0  0  0  0  0  0  0  0
    1.2630    3.1289   20.5783 C   0  0  0  0  0  0  0  0  0  0  0  0
    1.2623    2.9504   21.5132 H   0  0  0  0  0  0  0  0  0  0  0  0
  1  2  1  0  0  0  0
  2  3  1  0  0  0  0
  4  2  1  0  0  0  0
  5  2  1  0  0  0  0
  6  5  1  0  0  0  0
  7  5  1  0  0  0  0
  8  5  1  0  0  0  0
  9  8  1  0  0  0  0
 10  9  1  0  0  0  0
 11  9  1  0  0  0  0
 12  9  1  0  0  0  0
 13 12  1  0  0  0  0
 14 12  1  0  0  0  0
 15 12  1  0  0  0  0
 16 15  1  0  0  0  0
 17 16  1  0  0  0  0
 18 16  1  0  0  0  0
 19 16  1  0  0  0  0
 20 19  1  0  0  0  0
 21 19  1  0  0  0  0
 22 19  1  0  0  0  0
 23 22  1  0  0  0  0
 24 23  1  0  0  0  0
 25 23  1  0  0  0  0
 26 23  1  0  0  0  0
 27 26  1  0  0  0  0
 28 26  1  0  0  0  0
 29 26  1  0  0  0  0
 30 29  1  0  0  0  0
 31 30  1  0  0  0  0
 32 30  1  0  0  0  0
 33  1  1  0  0  0  0
 34 33  1  0  0  0  0
 35 33  1  0  0  0  0
 36  1  1  0  0  0  0
 37 36  1  0  0  0  0
 38 36  1  0  0  0  0
 39 36  1  0  0  0  0
 40  8  1  0  0  0  0
 41 40  1  0  0  0  0
 42 40  1  0  0  0  0
 43 40  1  0  0  0  0
 44  8  1  0  0  0  0
 45 44  4  0  0  0  0
 46 45  1  0  0  0  0
 47 45  4  0  0  0  0
 48 47  1  0  0  0  0
 49 47  4  0  0  0  0
 50 49  1  0  0  0  0
 51 49  4  0  0  0  0
 52 51  1  0  0  0  0
 53 44  4  0  0  0  0
 54 53  1  0  0  0  0
 55  1  1  0  0  0  0
 56 55  4  0  0  0  0
 57 56  1  0  0  0  0
 58 56  4  0  0  0  0
 59 58  1  0  0  0  0
 60 58  4  0  0  0  0
 61 60  1  0  0  0  0
 62 60  4  0  0  0  0
 63 62  1  0  0  0  0
 64 55  4  0  0  0  0
 65 64  1  0  0  0  0
 30 33  1  0  0  0  0
 51 53  4  0  0  0  0
 62 64  4  0  0  0  0
M  END
$$$$
UZUWES

From CSD data. Using bond type 'Any'. Matching problem. No disordered atoms. Largest molecule.
104127  0  0  0  0  0  0  0  0999 V2000
   14.6665    0.5381   13.4199 Pt  0  0  0  0  0  0  0  0  0  0  0  0
   12.6479    2.1502   12.5098 Pd  0  0  0  0  0  0  0  0  0  0  0  0
   12.8418    4.2912   11.5216 P   0  0  0  0  0  0  0  0  0  0  0  0
   10.9212    2.7333   14.0259 P   0  0  0  0  0  0  0  0  0  0  0  0
   14.7419   -0.3718   15.5949 P   0  0  0  0  0  0  0  0  0  0  0  0
   16.9819    0.7362   13.3703 P   0  0  0  0  0  0  0  0  0  0  0  0
   14.3119    3.2892   14.8634 O   0  0  0  0  0  0  0  0  0  0  0  0
   14.0680    2.5314   14.0299 C   0  0  0  0  0  0  0  0  0  0  0  0
   14.0425    4.4791   10.1639 C   0  0  0  0  0  0  0  0  0  0  0  0
   13.8922    5.3355    9.7115 H   0  0  0  0  0  0  0  0  0  0  0  0
   13.9275    3.7472    9.5222 H   0  0  0  0  0  0  0  0  0  0  0  0
   14.9526    4.4575   10.5268 H   0  0  0  0  0  0  0  0  0  0  0  0
   13.3289    5.6863   12.5922 C   0  0  0  0  0  0  0  0  0  0  0  0
   14.1585    5.4622   13.0621 H   0  0  0  0  0  0  0  0  0  0  0  0
   12.6196    5.8607   13.2444 H   0  0  0  0  0  0  0  0  0  0  0  0
   13.4703    6.4854   12.0417 H   0  0  0  0  0  0  0  0  0  0  0  0
    9.2546    2.2293   13.5250 C   0  0  0  0  0  0  0  0  0  0  0  0
    8.6087    2.5227   14.2000 H   0  0  0  0  0  0  0  0  0  0  0  0
    9.2190    1.2538   13.4408 H   0  0  0  0  0  0  0  0  0  0  0  0
    9.0352    2.6396   12.6623 H   0  0  0  0  0  0  0  0  0  0  0  0
   11.0631    1.9748   15.6920 C   0  0  0  0  0  0  0  0  0  0  0  0
   10.4044    2.3819   16.2934 H   0  0  0  0  0  0  0  0  0  0  0  0
   11.9645    2.1275   16.0444 H   0  0  0  0  0  0  0  0  0  0  0  0
   10.8969    1.0112   15.6289 H   0  0  0  0  0  0  0  0  0  0  0  0
   16.1239   -1.5353   15.9182 C   0  0  0  0  0  0  0  0  0  0  0  0
   13.3242   -1.3458   16.1391 C   0  0  0  0  0  0  0  0  0  0  0  0
   13.5104   -1.7312   17.0193 H   0  0  0  0  0  0  0  0  0  0  0  0
   13.1569   -2.0647   15.4957 H   0  0  0  0  0  0  0  0  0  0  0  0
   12.5348   -0.7676   16.1970 H   0  0  0  0  0  0  0  0  0  0  0  0
   14.9027    0.8391   16.9369 C   0  0  0  0  0  0  0  0  0  0  0  0
   14.1231    1.4335   16.9351 H   0  0  0  0  0  0  0  0  0  0  0  0
   15.7162    1.3675   16.8036 H   0  0  0  0  0  0  0  0  0  0  0  0
   14.9550    0.3703   17.7960 H   0  0  0  0  0  0  0  0  0  0  0  0
   17.9337   -2.3949   17.2192 C   0  0  0  0  0  0  0  0  0  0  0  0
   18.2589   -2.5335   18.1011 H   0  0  0  0  0  0  0  0  0  0  0  0
   16.9037   -1.5006   16.9982 C   0  0  0  0  0  0  0  0  0  0  0  0
   16.7436   -0.8261   17.6487 H   0  0  0  0  0  0  0  0  0  0  0  0
   17.7822    1.7226   14.7908 C   0  0  0  0  0  0  0  0  0  0  0  0
   11.2928    4.8537   10.7214 C   0  0  0  0  0  0  0  0  0  0  0  0
   10.2943    3.9464   10.3848 C   0  0  0  0  0  0  0  0  0  0  0  0
   10.4067    3.0251   10.5899 H   0  0  0  0  0  0  0  0  0  0  0  0
    9.1471    4.3644    9.7589 C   0  0  0  0  0  0  0  0  0  0  0  0
    8.4814    3.7299    9.5222 H   0  0  0  0  0  0  0  0  0  0  0  0
    8.9504    5.7069    9.4713 C   0  0  0  0  0  0  0  0  0  0  0  0
    8.1468    5.9971    9.0558 H   0  0  0  0  0  0  0  0  0  0  0  0
    9.9401    6.6185    9.7922 C   0  0  0  0  0  0  0  0  0  0  0  0
    9.8129    7.5388    9.5906 H   0  0  0  0  0  0  0  0  0  0  0  0
   11.1220    6.2082   10.4093 C   0  0  0  0  0  0  0  0  0  0  0  0
   11.8019    6.8383   10.6145 H   0  0  0  0  0  0  0  0  0  0  0  0
   10.7294    4.5029   14.4507 C   0  0  0  0  0  0  0  0  0  0  0  0
    9.9088    5.3323   13.6810 C   0  0  0  0  0  0  0  0  0  0  0  0
    9.4288    4.9793   12.9394 H   0  0  0  0  0  0  0  0  0  0  0  0
    9.8013    6.6911   14.0106 C   0  0  0  0  0  0  0  0  0  0  0  0
    9.2308    7.2584   13.5074 H   0  0  0  0  0  0  0  0  0  0  0  0
   10.5175    7.2032   15.0591 C   0  0  0  0  0  0  0  0  0  0  0  0
   10.4515    8.1267   15.2712 H   0  0  0  0  0  0  0  0  0  0  0  0
   11.3329    6.3868   15.8060 C   0  0  0  0  0  0  0  0  0  0  0  0
   11.8301    6.7539   16.5284 H   0  0  0  0  0  0  0  0  0  0  0  0
   11.4422    5.0378   15.5220 C   0  0  0  0  0  0  0  0  0  0  0  0
   11.9998    4.4802   16.0515 H   0  0  0  0  0  0  0  0  0  0  0  0
   18.6666    1.1303   15.6219 C   0  0  0  0  0  0  0  0  0  0  0  0
   18.8528    0.2068   15.5009 H   0  0  0  0  0  0  0  0  0  0  0  0
   19.2958    1.7821   16.6090 C   0  0  0  0  0  0  0  0  0  0  0  0
   19.9345    1.3469   17.1595 H   0  0  0  0  0  0  0  0  0  0  0  0
   18.9777    3.0954   16.7914 C   0  0  0  0  0  0  0  0  0  0  0  0
   19.3500    3.5621   17.5295 H   0  0  0  0  0  0  0  0  0  0  0  0
   18.0798    3.8057   15.8867 C   0  0  0  0  0  0  0  0  0  0  0  0
   17.9196    4.7390   15.9603 H   0  0  0  0  0  0  0  0  0  0  0  0
   17.4624    3.0088   14.8873 C   0  0  0  0  0  0  0  0  0  0  0  0
   16.8261    3.3910   14.2947 H   0  0  0  0  0  0  0  0  0  0  0  0
   17.8677   -0.8326   13.3058 C   0  0  0  0  0  0  0  0  0  0  0  0
   17.2786   -1.5537   13.6091 H   0  0  0  0  0  0  0  0  0  0  0  0
   18.6548   -0.7871   13.8879 H   0  0  0  0  0  0  0  0  0  0  0  0
   18.1529   -1.0091   12.3853 H   0  0  0  0  0  0  0  0  0  0  0  0
   17.6486    1.5937   11.9330 C   0  0  0  0  0  0  0  0  0  0  0  0
   18.6054    1.3934   11.8470 H   0  0  0  0  0  0  0  0  0  0  0  0
   17.5260    2.5606   12.0434 H   0  0  0  0  0  0  0  0  0  0  0  0
   17.1796    1.2949   11.1264 H   0  0  0  0  0  0  0  0  0  0  0  0
   15.8788   -2.9168   15.3642 C   0  0  0  0  0  0  0  0  0  0  0  0
   15.1034   -3.1193   14.8575 H   0  0  0  0  0  0  0  0  0  0  0  0
   16.8473   -3.8793   15.6324 C   0  0  0  0  0  0  0  0  0  0  0  0
   16.8261   -4.7076   15.1678 H   0  0  0  0  0  0  0  0  0  0  0  0
   17.8324   -3.6433   16.5669 C   0  0  0  0  0  0  0  0  0  0  0  0
   18.4522   -4.3319   16.7738 H   0  0  0  0  0  0  0  0  0  0  0  0
   12.4436   -0.0476   13.1164 B   0  0  0  0  0  0  0  0  0  0  0  0
   11.9362   -0.1213   14.1123 H   0  0  0  0  0  0  0  0  0  0  0  0
   11.5002    0.4677   11.5542 B   0  0  0  0  0  0  0  0  0  0  0  0
   10.4091    0.7167   11.5402 H   0  0  0  0  0  0  0  0  0  0  0  0
   12.6762    1.2527   10.4391 B   0  0  0  0  0  0  0  0  0  0  0  0
   12.3604    2.0279    9.6957 H   0  0  0  0  0  0  0  0  0  0  0  0
   14.3703    1.2429   11.2422 B   0  0  0  0  0  0  0  0  0  0  0  0
   15.1341    2.0279   11.0037 H   0  0  0  0  0  0  0  0  0  0  0  0
   13.6812   -1.3090   12.5782 B   0  0  0  0  0  0  0  0  0  0  0  0
   13.9581   -2.1838   13.2216 H   0  0  0  0  0  0  0  0  0  0  0  0
   12.0691   -1.2007   11.8330 B   0  0  0  0  0  0  0  0  0  0  0  0
   11.3117   -1.9965   12.0487 H   0  0  0  0  0  0  0  0  0  0  0  0
   12.2213   -0.4601   10.2182 B   0  0  0  0  0  0  0  0  0  0  0  0
   11.5945   -0.7860    9.3486 H   0  0  0  0  0  0  0  0  0  0  0  0
   13.9315    0.0444   10.0289 B   0  0  0  0  0  0  0  0  0  0  0  0
   14.4318    0.0996    9.0277 H   0  0  0  0  0  0  0  0  0  0  0  0
   14.8426   -0.5446   11.4227 B   0  0  0  0  0  0  0  0  0  0  0  0
   15.8906   -0.9170   11.2913 H   0  0  0  0  0  0  0  0  0  0  0  0
   13.5076   -1.5028   10.8179 B   0  0  0  0  0  0  0  0  0  0  0  0
   13.6989   -2.4935   10.3322 H   0  0  0  0  0  0  0  0  0  0  0  0
  1  2  1  0  0  0  0
  2  3  1  0  0  0  0
  3  9  1  0  0  0  0
  4  2  1  0  0  0  0
  5  1  1  0  0  0  0
  6  1  1  0  0  0  0
  7  8  2  0  0  0  0
  8  1  1  0  0  0  0
  9 10  1  0  0  0  0
 11  9  1  0  0  0  0
 12  9  1  0  0  0  0
 13  3  1  0  0  0  0
 14 13  1  0  0  0  0
 15 13  1  0  0  0  0
 16 13  1  0  0  0  0
 17  4  1  0  0  0  0
 18 17  1  0  0  0  0
 19 17  1  0  0  0  0
 20 17  1  0  0  0  0
 21  4  1  0  0  0  0
 22 21  1  0  0  0  0
 23 21  1  0  0  0  0
 24 21  1  0  0  0  0
 25  5  1  0  0  0  0
 26  5  1  0  0  0  0
 27 26  1  0  0  0  0
 28 26  1  0  0  0  0
 29 26  1  0  0  0  0
 30  5  1  0  0  0  0
 31 30  1  0  0  0  0
 32 30  1  0  0  0  0
 33 30  1  0  0  0  0
 34 35  1  0  0  0  0
 36 25  4  0  0  0  0
 37 36  1  0  0  0  0
 38  6  1  0  0  0  0
 39  3  1  0  0  0  0
 40 39  4  0  0  0  0
 41 40  1  0  0  0  0
 42 40  4  0  0  0  0
 43 42  1  0  0  0  0
 44 42  4  0  0  0  0
 45 44  1  0  0  0  0
 46 44  4  0  0  0  0
 47 46  1  0  0  0  0
 48 39  4  0  0  0  0
 49 48  1  0  0  0  0
 50  4  1  0  0  0  0
 51 50  4  0  0  0  0
 52 51  1  0  0  0  0
 53 51  4  0  0  0  0
 54 53  1  0  0  0  0
 55 53  4  0  0  0  0
 56 55  1  0  0  0  0
 57 55  4  0  0  0  0
 58 57  1  0  0  0  0
 59 50  4  0  0  0  0
 60 59  1  0  0  0  0
 61 38  4  0  0  0  0
 62 61  1  0  0  0  0
 63 61  4  0  0  0  0
 64 63  1  0  0  0  0
 65 63  4  0  0  0  0
 66 65  1  0  0  0  0
 67 65  4  0  0  0  0
 68 67  1  0  0  0  0
 69 38  4  0  0  0  0
 70 69  1  0  0  0  0
 71  6  1  0  0  0  0
 72 71  1  0  0  0  0
 73 71  1  0  0  0  0
 74 71  1  0  0  0  0
 75  6  1  0  0  0  0
 76 75  1  0  0  0  0
 77 75  1  0  0  0  0
 78 75  1  0  0  0  0
 79 25  4  0  0  0  0
 80 79  1  0  0  0  0
 81 79  4  0  0  0  0
 82 81  1  0  0  0  0
 83 34  4  0  0  0  0
 84 83  1  0  0  0  0
 85  1  1  0  0  0  0
 86 85  1  0  0  0  0
 87  2  1  0  0  0  0
 88 87  1  0  0  0  0
 89  2  1  0  0  0  0
 90 89  1  0  0  0  0
 91  1  1  0  0  0  0
 92 91  1  0  0  0  0
 93  1  1  0  0  0  0
 94 93  1  0  0  0  0
 95 85  1  0  0  0  0
 96 95  1  0  0  0  0
 97 87  1  0  0  0  0
 98 97  1  0  0  0  0
 99 89  1  0  0  0  0
100 99  1  0  0  0  0
101  1  1  0  0  0  0
102101  1  0  0  0  0
103 93  1  0  0  0  0
104103  1  0  0  0  0
  2  8  1  0  0  0  0
  2 85  1  0  0  0  0
  2 91  1  0  0  0  0
 34 36  4  0  0  0  0
 46 48  4  0  0  0  0
 57 59  4  0  0  0  0
 67 69  4  0  0  0  0
 81 83  4  0  0  0  0
 85 87  1  0  0  0  0
 85 93  1  0  0  0  0
 87 89  1  0  0  0  0
 87 95  1  0  0  0  0
 89 91  1  0  0  0  0
 89 97  1  0  0  0  0
 91 99  1  0  0  0  0
 91101  1  0  0  0  0
 93 95  1  0  0  0  0
 93101  1  0  0  0  0
 95 97  1  0  0  0  0
 95103  1  0  0  0  0
 97 99  1  0  0  0  0
 97103  1  0  0  0  0
 99101  1  0  0  0  0
 99103  1  0  0  0  0
101103  1  0  0  0  0
M  END
$$$$
UZUWIW

From CSD data. Using bond type 'Any'. No disordered atoms. Largest molecule.
104127  0  0  0  0  0  0  0  0999 V2000
   -0.9802   16.3596    5.4836 Pd  0  0  0  0  0  0  0  0  0  0  0  0
   -0.4474   18.8266    6.5734 Pd  0  0  0  0  0  0  0  0  0  0  0  0
   -0.1270   15.7045    3.3374 P   0  0  0  0  0  0  0  0  0  0  0  0
   -0.3733   14.3323    6.6184 P   0  0  0  0  0  0  0  0  0  0  0  0
    0.5409   19.2330    8.7325 P   0  0  0  0  0  0  0  0  0  0  0  0
    0.8751   20.3568    5.2593 P   0  0  0  0  0  0  0  0  0  0  0  0
    2.0405   16.9667    6.1325 O   0  0  0  0  0  0  0  0  0  0  0  0
    0.9141   17.2337    6.0999 C   0  0  0  0  0  0  0  0  0  0  0  0
   -1.6155   12.9914    6.6131 C   0  0  0  0  0  0  0  0  0  0  0  0
   -1.7259   12.6517    5.7007 H   0  0  0  0  0  0  0  0  0  0  0  0
   -2.4712   13.3375    6.9375 H   0  0  0  0  0  0  0  0  0  0  0  0
   -1.3145   12.2646    7.1980 H   0  0  0  0  0  0  0  0  0  0  0  0
   -0.1487   18.3098   10.1614 C   0  0  0  0  0  0  0  0  0  0  0  0
    0.2315   18.6627   10.9927 H   0  0  0  0  0  0  0  0  0  0  0  0
    0.0782   17.3596   10.0771 H   0  0  0  0  0  0  0  0  0  0  0  0
   -1.1232   18.4129   10.1785 H   0  0  0  0  0  0  0  0  0  0  0  0
    2.3361   18.8758    8.9198 C   0  0  0  0  0  0  0  0  0  0  0  0
    2.6017   19.0204    9.8525 H   0  0  0  0  0  0  0  0  0  0  0  0
    2.8510   19.4711    8.3365 H   0  0  0  0  0  0  0  0  0  0  0  0
    2.5103   17.9450    8.6719 H   0  0  0  0  0  0  0  0  0  0  0  0
    0.1128   21.9674    4.8272 C   0  0  0  0  0  0  0  0  0  0  0  0
   -0.1568   22.4325    5.6476 H   0  0  0  0  0  0  0  0  0  0  0  0
   -0.6748   21.8152    4.2642 H   0  0  0  0  0  0  0  0  0  0  0  0
    0.7621   22.5158    4.3390 H   0  0  0  0  0  0  0  0  0  0  0  0
    1.3736   19.7797    3.5873 C   0  0  0  0  0  0  0  0  0  0  0  0
    2.0497   20.3872    3.2208 H   0  0  0  0  0  0  0  0  0  0  0  0
    0.5887   19.7699    2.9993 H   0  0  0  0  0  0  0  0  0  0  0  0
    1.7447   18.8758    3.6512 H   0  0  0  0  0  0  0  0  0  0  0  0
   -0.7174   14.0366    2.8059 C   0  0  0  0  0  0  0  0  0  0  0  0
   -2.0336   13.6621    3.1147 C   0  0  0  0  0  0  0  0  0  0  0  0
   -2.5980   14.2561    3.5935 H   0  0  0  0  0  0  0  0  0  0  0  0
   -2.5152   12.4109    2.7139 C   0  0  0  0  0  0  0  0  0  0  0  0
   -3.4113   12.1691    2.9182 H   0  0  0  0  0  0  0  0  0  0  0  0
   -1.7156   11.5237    2.0307 C   0  0  0  0  0  0  0  0  0  0  0  0
   -2.0527   10.6774    1.7624 H   0  0  0  0  0  0  0  0  0  0  0  0
   -0.4350   11.8786    1.7437 C   0  0  0  0  0  0  0  0  0  0  0  0
    0.1225   11.2653    1.2789 H   0  0  0  0  0  0  0  0  0  0  0  0
    0.0845   13.1337    2.1212 C   0  0  0  0  0  0  0  0  0  0  0  0
    0.9805   13.3620    1.9075 H   0  0  0  0  0  0  0  0  0  0  0  0
    0.0742   14.4677    8.4192 C   0  0  0  0  0  0  0  0  0  0  0  0
   -0.8658   14.2578    9.4314 C   0  0  0  0  0  0  0  0  0  0  0  0
   -1.7685   14.0650    9.2099 H   0  0  0  0  0  0  0  0  0  0  0  0
   -0.4577   14.3347   10.8149 C   0  0  0  0  0  0  0  0  0  0  0  0
   -1.0845   14.1728   11.5105 H   0  0  0  0  0  0  0  0  0  0  0  0
    0.8503   14.6446   11.1128 C   0  0  0  0  0  0  0  0  0  0  0  0
    1.1142   14.6970   12.0236 H   0  0  0  0  0  0  0  0  0  0  0  0
    1.7802   14.8790   10.1442 C   0  0  0  0  0  0  0  0  0  0  0  0
    2.6746   15.0963   10.3782 H   0  0  0  0  0  0  0  0  0  0  0  0
    1.3946   14.7960    8.7966 C   0  0  0  0  0  0  0  0  0  0  0  0
    2.0403   14.9664    8.1213 H   0  0  0  0  0  0  0  0  0  0  0  0
    0.3493   20.9817    9.2942 C   0  0  0  0  0  0  0  0  0  0  0  0
    1.0655   21.4662   10.3953 C   0  0  0  0  0  0  0  0  0  0  0  0
    1.6850   20.9040   10.8445 H   0  0  0  0  0  0  0  0  0  0  0  0
    0.8668   22.7823   10.8351 C   0  0  0  0  0  0  0  0  0  0  0  0
    1.3552   23.1086   11.5822 H   0  0  0  0  0  0  0  0  0  0  0  0
   -0.0384   23.6129   10.1910 C   0  0  0  0  0  0  0  0  0  0  0  0
   -0.1658   24.5023   10.4967 H   0  0  0  0  0  0  0  0  0  0  0  0
   -0.7575   23.1448    9.0961 C   0  0  0  0  0  0  0  0  0  0  0  0
   -1.3773   23.7136    8.6531 H   0  0  0  0  0  0  0  0  0  0  0  0
   -0.5623   21.8275    8.6485 C   0  0  0  0  0  0  0  0  0  0  0  0
   -1.0532   21.5066    7.9014 H   0  0  0  0  0  0  0  0  0  0  0  0
    2.4772   20.8489    5.9767 C   0  0  0  0  0  0  0  0  0  0  0  0
    2.6043   21.9556    6.8112 C   0  0  0  0  0  0  0  0  0  0  0  0
    1.8537   22.5036    7.0108 H   0  0  0  0  0  0  0  0  0  0  0  0
    3.8981   22.2488    7.3664 C   0  0  0  0  0  0  0  0  0  0  0  0
    4.0281   22.9910    7.9435 H   0  0  0  0  0  0  0  0  0  0  0  0
    4.9766   21.3890    7.0186 C   0  0  0  0  0  0  0  0  0  0  0  0
    5.8405   21.5948    7.3570 H   0  0  0  0  0  0  0  0  0  0  0  0
    4.8471   20.2990    6.2387 C   0  0  0  0  0  0  0  0  0  0  0  0
    5.5871   19.7307    6.0625 H   0  0  0  0  0  0  0  0  0  0  0  0
    3.6095   20.0320    5.7100 C   0  0  0  0  0  0  0  0  0  0  0  0
    3.5061   19.2751    5.1454 H   0  0  0  0  0  0  0  0  0  0  0  0
   -1.7092   18.4227    4.6869 B   0  0  0  0  0  0  0  0  0  0  0  0
   -1.1115   18.6995    3.7822 H   0  0  0  0  0  0  0  0  0  0  0  0
   -2.9815   17.0588    4.6104 B   0  0  0  0  0  0  0  0  0  0  0  0
   -3.1947   16.4778    3.6777 H   0  0  0  0  0  0  0  0  0  0  0  0
   -3.1315   16.3242    6.2387 B   0  0  0  0  0  0  0  0  0  0  0  0
   -3.4512   15.2604    6.3838 H   0  0  0  0  0  0  0  0  0  0  0  0
   -1.9433   17.2193    7.3929 B   0  0  0  0  0  0  0  0  0  0  0  0
   -1.5032   16.7056    8.2866 H   0  0  0  0  0  0  0  0  0  0  0  0
   -2.4012   19.7244    5.8488 B   0  0  0  0  0  0  0  0  0  0  0  0
   -2.2531   20.8256    5.7007 H   0  0  0  0  0  0  0  0  0  0  0  0
   -3.4541   18.7906    4.7336 B   0  0  0  0  0  0  0  0  0  0  0  0
   -3.9222   19.3021    3.8540 H   0  0  0  0  0  0  0  0  0  0  0  0
   -4.3202   17.5406    5.6851 B   0  0  0  0  0  0  0  0  0  0  0  0
   -5.3784   17.2494    5.4589 H   0  0  0  0  0  0  0  0  0  0  0  0
   -3.6783   17.6173    7.3664 B   0  0  0  0  0  0  0  0  0  0  0  0
   -4.2992   17.3425    8.2570 H   0  0  0  0  0  0  0  0  0  0  0  0
   -2.5341   18.9964    7.4834 B   0  0  0  0  0  0  0  0  0  0  0  0
   -2.4727   19.6058    8.4207 H   0  0  0  0  0  0  0  0  0  0  0  0
   -3.9652   19.1208    6.4243 B   0  0  0  0  0  0  0  0  0  0  0  0
   -4.7984   19.8287    6.6677 H   0  0  0  0  0  0  0  0  0  0  0  0
   -0.5714   16.7494    1.8950 C   0  0  0  0  0  0  0  0  0  0  0  0
   -0.2052   16.3504    1.0777 H   0  0  0  0  0  0  0  0  0  0  0  0
   -0.2000   17.6486    2.0151 H   0  0  0  0  0  0  0  0  0  0  0  0
   -1.5473   16.8060    1.8217 H   0  0  0  0  0  0  0  0  0  0  0  0
    1.6994   15.6202    3.1443 C   0  0  0  0  0  0  0  0  0  0  0  0
    2.0589   14.9199    3.7277 H   0  0  0  0  0  0  0  0  0  0  0  0
    2.0944   16.4827    3.3892 H   0  0  0  0  0  0  0  0  0  0  0  0
    1.9209   15.4147    2.2116 H   0  0  0  0  0  0  0  0  0  0  0  0
    1.1182   13.4808    5.9596 C   0  0  0  0  0  0  0  0  0  0  0  0
    1.3332   12.7129    6.5273 H   0  0  0  0  0  0  0  0  0  0  0  0
    1.8744   14.1042    5.9533 H   0  0  0  0  0  0  0  0  0  0  0  0
    0.9414   13.1734    5.0456 H   0  0  0  0  0  0  0  0  0  0  0  0
  1  2  1  0  0  0  0
  2  5  1  0  0  0  0
  3  1  1  0  0  0  0
  4  1  1  0  0  0  0
  5 13  1  0  0  0  0
  6  2  1  0  0  0  0
  7  8  2  0  0  0  0
  8  1  1  0  0  0  0
  9  4  1  0  0  0  0
 10  9  1  0  0  0  0
 11  9  1  0  0  0  0
 12  9  1  0  0  0  0
 13 14  1  0  0  0  0
 15 13  1  0  0  0  0
 16 13  1  0  0  0  0
 17  5  1  0  0  0  0
 18 17  1  0  0  0  0
 19 17  1  0  0  0  0
 20 17  1  0  0  0  0
 21  6  1  0  0  0  0
 22 21  1  0  0  0  0
 23 21  1  0  0  0  0
 24 21  1  0  0  0  0
 25  6  1  0  0  0  0
 26 25  1  0  0  0  0
 27 25  1  0  0  0  0
 28 25  1  0  0  0  0
 29  3  1  0  0  0  0
 30 29  4  0  0  0  0
 31 30  1  0  0  0  0
 32 30  4  0  0  0  0
 33 32  1  0  0  0  0
 34 32  4  0  0  0  0
 35 34  1  0  0  0  0
 36 34  4  0  0  0  0
 37 36  1  0  0  0  0
 38 29  4  0  0  0  0
 39 38  1  0  0  0  0
 40  4  1  0  0  0  0
 41 40  4  0  0  0  0
 42 41  1  0  0  0  0
 43 41  4  0  0  0  0
 44 43  1  0  0  0  0
 45 43  4  0  0  0  0
 46 45  1  0  0  0  0
 47 45  4  0  0  0  0
 48 47  1  0  0  0  0
 49 40  4  0  0  0  0
 50 49  1  0  0  0  0
 51  5  1  0  0  0  0
 52 51  4  0  0  0  0
 53 52  1  0  0  0  0
 54 52  4  0  0  0  0
 55 54  1  0  0  0  0
 56 54  4  0  0  0  0
 57 56  1  0  0  0  0
 58 56  4  0  0  0  0
 59 58  1  0  0  0  0
 60 51  4  0  0  0  0
 61 60  1  0  0  0  0
 62  6  1  0  0  0  0
 63 62  4  0  0  0  0
 64 63  1  0  0  0  0
 65 63  4  0  0  0  0
 66 65  1  0  0  0  0
 67 65  4  0  0  0  0
 68 67  1  0  0  0  0
 69 67  4  0  0  0  0
 70 69  1  0  0  0  0
 71 62  4  0  0  0  0
 72 71  1  0  0  0  0
 73  1  1  0  0  0  0
 74 73  1  0  0  0  0
 75  1  1  0  0  0  0
 76 75  1  0  0  0  0
 77  1  1  0  0  0  0
 78 77  1  0  0  0  0
 79  1  1  0  0  0  0
 80 79  1  0  0  0  0
 81  2  1  0  0  0  0
 82 81  1  0  0  0  0
 83 73  1  0  0  0  0
 84 83  1  0  0  0  0
 85 75  1  0  0  0  0
 86 85  1  0  0  0  0
 87 77  1  0  0  0  0
 88 87  1  0  0  0  0
 89  2  1  0  0  0  0
 90 89  1  0  0  0  0
 91 81  1  0  0  0  0
 92 91  1  0  0  0  0
 93  3  1  0  0  0  0
 94 93  1  0  0  0  0
 95 93  1  0  0  0  0
 96 93  1  0  0  0  0
 97  3  1  0  0  0  0
 98 97  1  0  0  0  0
 99 97  1  0  0  0  0
100 97  1  0  0  0  0
101  4  1  0  0  0  0
102101  1  0  0  0  0
103101  1  0  0  0  0
104101  1  0  0  0  0
  2  8  1  0  0  0  0
  2 73  1  0  0  0  0
  2 79  1  0  0  0  0
 36 38  4  0  0  0  0
 47 49  4  0  0  0  0
 58 60  4  0  0  0  0
 69 71  4  0  0  0  0
 73 75  1  0  0  0  0
 73 81  1  0  0  0  0
 75 77  1  0  0  0  0
 75 83  1  0  0  0  0
 77 79  1  0  0  0  0
 77 85  1  0  0  0  0
 79 87  1  0  0  0  0
 79 89  1  0  0  0  0
 81 83  1  0  0  0  0
 81 89  1  0  0  0  0
 83 85  1  0  0  0  0
 83 91  1  0  0  0  0
 85 87  1  0  0  0  0
 85 91  1  0  0  0  0
 87 89  1  0  0  0  0
 87 91  1  0  0  0  0
 89 91  1  0  0  0  0
M  END
$$$$
UZUWOC

From CSD data. Using bond type 'Any'. No disordered atoms. Largest molecule.
105128  0  0  0  0  0  0  0  0999 V2000
   11.0320    2.2367    1.1531 Pt  0  0  0  0  0  0  0  0  0  0  0  0
    9.2356    2.8786   -0.2485 S   0  0  0  0  0  0  0  0  0  0  0  0
   12.7249    2.7588   -0.4427 P   0  0  0  0  0  0  0  0  0  0  0  0
    8.9557    0.5511    0.2900 Pd  0  0  0  0  0  0  0  0  0  0  0  0
   10.9770    4.3547    2.1734 P   0  0  0  0  0  0  0  0  0  0  0  0
    8.9552   -0.3771   -1.9462 P   0  0  0  0  0  0  0  0  0  0  0  0
    8.2793    3.7686    0.3989 O   0  0  0  0  0  0  0  0  0  0  0  0
   11.2120    0.0376    0.5623 B   0  0  0  0  0  0  0  0  0  0  0  0
   11.7091   -0.0118   -0.4393 H   0  0  0  0  0  0  0  0  0  0  0  0
    6.5857    0.7431    0.3548 P   0  0  0  0  0  0  0  0  0  0  0  0
    9.5389    3.2788   -1.6150 O   0  0  0  0  0  0  0  0  0  0  0  0
   12.1728    0.5404    2.0473 B   0  0  0  0  0  0  0  0  0  0  0  0
   13.2651    0.7907    2.0156 H   0  0  0  0  0  0  0  0  0  0  0  0
   11.0231    1.3031    3.1877 B   0  0  0  0  0  0  0  0  0  0  0  0
   11.3482    2.0820    3.9241 H   0  0  0  0  0  0  0  0  0  0  0  0
    9.3405    1.3117    2.4567 B   0  0  0  0  0  0  0  0  0  0  0  0
    8.5924    2.1035    2.7168 H   0  0  0  0  0  0  0  0  0  0  0  0
    9.9858   -1.2473    1.0930 B   0  0  0  0  0  0  0  0  0  0  0  0
    9.6990   -2.1174    0.4499 H   0  0  0  0  0  0  0  0  0  0  0  0
   11.5992   -1.1355    1.8153 B   0  0  0  0  0  0  0  0  0  0  0  0
   12.3401   -1.9434    1.5833 H   0  0  0  0  0  0  0  0  0  0  0  0
   11.5059   -0.3825    3.4162 B   0  0  0  0  0  0  0  0  0  0  0  0
   12.1608   -0.6908    4.2702 H   0  0  0  0  0  0  0  0  0  0  0  0
    9.8257    0.1064    3.6605 B   0  0  0  0  0  0  0  0  0  0  0  0
    9.3620    0.1515    4.6797 H   0  0  0  0  0  0  0  0  0  0  0  0
    8.8553   -0.4727    2.2669 B   0  0  0  0  0  0  0  0  0  0  0  0
    7.8061   -0.8337    2.4198 H   0  0  0  0  0  0  0  0  0  0  0  0
   10.2416   -1.4428    2.8574 B   0  0  0  0  0  0  0  0  0  0  0  0
   10.0886   -2.4354    3.3529 H   0  0  0  0  0  0  0  0  0  0  0  0
   12.9543    4.5121   -0.8470 C   0  0  0  0  0  0  0  0  0  0  0  0
   12.2779    5.1137   -1.8873 C   0  0  0  0  0  0  0  0  0  0  0  0
   11.7019    4.5883   -2.4286 H   0  0  0  0  0  0  0  0  0  0  0  0
   12.4166    6.4630   -2.1650 C   0  0  0  0  0  0  0  0  0  0  0  0
   11.9338    6.8551   -2.8820 H   0  0  0  0  0  0  0  0  0  0  0  0
   13.2459    7.2204   -1.4076 C   0  0  0  0  0  0  0  0  0  0  0  0
   13.3511    8.1443   -1.6062 H   0  0  0  0  0  0  0  0  0  0  0  0
   13.9367    6.6693   -0.3602 C   0  0  0  0  0  0  0  0  0  0  0  0
   14.5079    7.2182    0.1652 H   0  0  0  0  0  0  0  0  0  0  0  0
   13.8124    5.3038   -0.0510 C   0  0  0  0  0  0  0  0  0  0  0  0
   14.2928    4.9224    0.6748 H   0  0  0  0  0  0  0  0  0  0  0  0
   12.5361    2.0261   -2.0965 C   0  0  0  0  0  0  0  0  0  0  0  0
   11.6135    2.1454   -2.4040 H   0  0  0  0  0  0  0  0  0  0  0  0
   12.7464    1.0700   -2.0578 H   0  0  0  0  0  0  0  0  0  0  0  0
   13.1479    2.4687   -2.7221 H   0  0  0  0  0  0  0  0  0  0  0  0
   14.3884    2.1980    0.0369 C   0  0  0  0  0  0  0  0  0  0  0  0
   15.0481    2.5472   -0.5992 H   0  0  0  0  0  0  0  0  0  0  0  0
   14.4171    1.2193    0.0334 H   0  0  0  0  0  0  0  0  0  0  0  0
   14.5987    2.5278    0.9366 H   0  0  0  0  0  0  0  0  0  0  0  0
   12.5743    4.8129    2.9663 C   0  0  0  0  0  0  0  0  0  0  0  0
   12.8348    6.1364    3.2985 C   0  0  0  0  0  0  0  0  0  0  0  0
   12.1728    6.7992    3.1350 H   0  0  0  0  0  0  0  0  0  0  0  0
   14.0132    6.4909    3.8467 C   0  0  0  0  0  0  0  0  0  0  0  0
   14.1805    7.4073    4.0348 H   0  0  0  0  0  0  0  0  0  0  0  0
   14.9764    5.5563    4.1420 C   0  0  0  0  0  0  0  0  0  0  0  0
   15.7986    5.8163    4.5426 H   0  0  0  0  0  0  0  0  0  0  0  0
   14.7254    4.2145    3.8397 C   0  0  0  0  0  0  0  0  0  0  0  0
   15.3755    3.5527    4.0400 H   0  0  0  0  0  0  0  0  0  0  0  0
   13.5304    3.8524    3.2510 C   0  0  0  0  0  0  0  0  0  0  0  0
   13.3630    2.9414    3.0419 H   0  0  0  0  0  0  0  0  0  0  0  0
    9.7492    4.5357    3.4882 C   0  0  0  0  0  0  0  0  0  0  0  0
    9.8472    5.4145    3.9082 H   0  0  0  0  0  0  0  0  0  0  0  0
    9.8831    3.8353    4.1595 H   0  0  0  0  0  0  0  0  0  0  0  0
    8.8482    4.4540    3.1069 H   0  0  0  0  0  0  0  0  0  0  0  0
   10.5451    5.7819    1.1317 C   0  0  0  0  0  0  0  0  0  0  0  0
    9.7444    5.5745    0.6098 H   0  0  0  0  0  0  0  0  0  0  0  0
   11.2908    5.9796    0.5254 H   0  0  0  0  0  0  0  0  0  0  0  0
   10.3730    6.5608    1.7011 H   0  0  0  0  0  0  0  0  0  0  0  0
    7.6722   -1.6222   -2.2792 C   0  0  0  0  0  0  0  0  0  0  0  0
    7.7248   -2.8738   -1.7028 C   0  0  0  0  0  0  0  0  0  0  0  0
    8.4299   -3.0650   -1.0948 H   0  0  0  0  0  0  0  0  0  0  0  0
    6.7951   -3.8664   -1.9682 C   0  0  0  0  0  0  0  0  0  0  0  0
    6.8763   -4.7248   -1.5710 H   0  0  0  0  0  0  0  0  0  0  0  0
    5.7267   -3.5828   -2.8363 C   0  0  0  0  0  0  0  0  0  0  0  0
    5.0431   -4.2263   -2.9821 H   0  0  0  0  0  0  0  0  0  0  0  0
    5.6789   -2.3656   -3.4707 C   0  0  0  0  0  0  0  0  0  0  0  0
    4.9929   -2.1873   -4.1033 H   0  0  0  0  0  0  0  0  0  0  0  0
    6.6349   -1.3955   -3.1877 C   0  0  0  0  0  0  0  0  0  0  0  0
    6.5799   -0.5533   -3.6253 H   0  0  0  0  0  0  0  0  0  0  0  0
   10.4161   -1.3203   -2.4690 C   0  0  0  0  0  0  0  0  0  0  0  0
   10.6694   -1.9488   -1.7591 H   0  0  0  0  0  0  0  0  0  0  0  0
   11.1594   -0.7047   -2.6395 H   0  0  0  0  0  0  0  0  0  0  0  0
   10.2105   -1.8177   -3.2862 H   0  0  0  0  0  0  0  0  0  0  0  0
    8.7549    0.8014   -3.3125 C   0  0  0  0  0  0  0  0  0  0  0  0
    8.6426    0.3105   -4.1543 H   0  0  0  0  0  0  0  0  0  0  0  0
    9.5508    1.3719   -3.3705 H   0  0  0  0  0  0  0  0  0  0  0  0
    7.9638    1.3579   -3.1508 H   0  0  0  0  0  0  0  0  0  0  0  0
    5.7052    1.4374   -1.1018 C   0  0  0  0  0  0  0  0  0  0  0  0
    4.7276    0.7198   -1.7520 C   0  0  0  0  0  0  0  0  0  0  0  0
    4.4958   -0.1526   -1.4550 H   0  0  0  0  0  0  0  0  0  0  0  0
    4.0799    1.2838   -2.8521 C   0  0  0  0  0  0  0  0  0  0  0  0
    3.4370    0.7681   -3.3231 H   0  0  0  0  0  0  0  0  0  0  0  0
    4.3452    2.5396   -3.2651 C   0  0  0  0  0  0  0  0  0  0  0  0
    3.8648    2.9167   -3.9926 H   0  0  0  0  0  0  0  0  0  0  0  0
    5.3299    3.2820   -2.6131 C   0  0  0  0  0  0  0  0  0  0  0  0
    5.5498    4.1522   -2.9241 H   0  0  0  0  0  0  0  0  0  0  0  0
    5.9920    2.7545   -1.5078 C   0  0  0  0  0  0  0  0  0  0  0  0
    6.6277    3.2766   -1.0333 H   0  0  0  0  0  0  0  0  0  0  0  0
    5.9705    1.7447    1.6940 C   0  0  0  0  0  0  0  0  0  0  0  0
    4.9905    1.7243    1.6940 H   0  0  0  0  0  0  0  0  0  0  0  0
    6.2788    2.6675    1.5798 H   0  0  0  0  0  0  0  0  0  0  0  0
    6.3051    1.3923    2.5463 H   0  0  0  0  0  0  0  0  0  0  0  0
    5.7530   -0.8143    0.6590 C   0  0  0  0  0  0  0  0  0  0  0  0
    6.0398   -1.1742    1.5253 H   0  0  0  0  0  0  0  0  0  0  0  0
    5.9824   -1.4514   -0.0492 H   0  0  0  0  0  0  0  0  0  0  0  0
    4.7850   -0.6714    0.6695 H   0  0  0  0  0  0  0  0  0  0  0  0
  1  2  1  0  0  0  0
  2  4  1  0  0  0  0
  3  1  1  0  0  0  0
  4  1  1  0  0  0  0
  5  1  1  0  0  0  0
  6  4  1  0  0  0  0
  7  2  2  0  0  0  0
  8  1  1  0  0  0  0
  9  8  1  0  0  0  0
 10  4  1  0  0  0  0
 11  2  2  0  0  0  0
 12  1  1  0  0  0  0
 13 12  1  0  0  0  0
 14  1  1  0  0  0  0
 15 14  1  0  0  0  0
 16  1  1  0  0  0  0
 17 16  1  0  0  0  0
 18  4  1  0  0  0  0
 19 18  1  0  0  0  0
 20  8  1  0  0  0  0
 21 20  1  0  0  0  0
 22 12  1  0  0  0  0
 23 22  1  0  0  0  0
 24 14  1  0  0  0  0
 25 24  1  0  0  0  0
 26  4  1  0  0  0  0
 27 26  1  0  0  0  0
 28 18  1  0  0  0  0
 29 28  1  0  0  0  0
 30  3  1  0  0  0  0
 31 30  4  0  0  0  0
 32 31  1  0  0  0  0
 33 31  4  0  0  0  0
 34 33  1  0  0  0  0
 35 33  4  0  0  0  0
 36 35  1  0  0  0  0
 37 35  4  0  0  0  0
 38 37  1  0  0  0  0
 39 30  4  0  0  0  0
 40 39  1  0  0  0  0
 41  3  1  0  0  0  0
 42 41  1  0  0  0  0
 43 41  1  0  0  0  0
 44 41  1  0  0  0  0
 45  3  1  0  0  0  0
 46 45  1  0  0  0  0
 47 45  1  0  0  0  0
 48 45  1  0  0  0  0
 49  5  1  0  0  0  0
 50 49  4  0  0  0  0
 51 50  1  0  0  0  0
 52 50  4  0  0  0  0
 53 52  1  0  0  0  0
 54 52  4  0  0  0  0
 55 54  1  0  0  0  0
 56 54  4  0  0  0  0
 57 56  1  0  0  0  0
 58 49  4  0  0  0  0
 59 58  1  0  0  0  0
 60  5  1  0  0  0  0
 61 60  1  0  0  0  0
 62 60  1  0  0  0  0
 63 60  1  0  0  0  0
 64  5  1  0  0  0  0
 65 64  1  0  0  0  0
 66 64  1  0  0  0  0
 67 64  1  0  0  0  0
 68  6  1  0  0  0  0
 69 68  4  0  0  0  0
 70 69  1  0  0  0  0
 71 69  4  0  0  0  0
 72 71  1  0  0  0  0
 73 71  4  0  0  0  0
 74 73  1  0  0  0  0
 75 73  4  0  0  0  0
 76 75  1  0  0  0  0
 77 68  4  0  0  0  0
 78 77  1  0  0  0  0
 79  6  1  0  0  0  0
 80 79  1  0  0  0  0
 81 79  1  0  0  0  0
 82 79  1  0  0  0  0
 83  6  1  0  0  0  0
 84 83  1  0  0  0  0
 85 83  1  0  0  0  0
 86 83  1  0  0  0  0
 87 10  1  0  0  0  0
 88 87  4  0  0  0  0
 89 88  1  0  0  0  0
 90 88  4  0  0  0  0
 91 90  1  0  0  0  0
 92 90  4  0  0  0  0
 93 92  1  0  0  0  0
 94 92  4  0  0  0  0
 95 94  1  0  0  0  0
 96 87  4  0  0  0  0
 97 96  1  0  0  0  0
 98 10  1  0  0  0  0
 99 98  1  0  0  0  0
100 98  1  0  0  0  0
101 98  1  0  0  0  0
102 10  1  0  0  0  0
103102  1  0  0  0  0
104102  1  0  0  0  0
105102  1  0  0  0  0
  4  8  1  0  0  0  0
  4 16  1  0  0  0  0
  8 12  1  0  0  0  0
  8 18  1  0  0  0  0
 12 14  1  0  0  0  0
 12 20  1  0  0  0  0
 14 16  1  0  0  0  0
 14 22  1  0  0  0  0
 16 24  1  0  0  0  0
 16 26  1  0  0  0  0
 18 20  1  0  0  0  0
 18 26  1  0  0  0  0
 20 22  1  0  0  0  0
 20 28  1  0  0  0  0
 22 24  1  0  0  0  0
 22 28  1  0  0  0  0
 24 26  1  0  0  0  0
 24 28  1  0  0  0  0
 26 28  1  0  0  0  0
 37 39  4  0  0  0  0
 56 58  4  0  0  0  0
 75 77  4  0  0  0  0
 94 96  4  0  0  0  0
M  END
$$$$
UZUWUI

From CSD data. Using bond type 'Any'. No disordered atoms. Largest molecule.
105128  0  0  0  0  0  0  0  0999 V2000
   11.0745    7.6010    5.0838 Pd  0  0  0  0  0  0  0  0  0  0  0  0
    9.3162    8.2658    3.6421 S   0  0  0  0  0  0  0  0  0  0  0  0
   12.8210    8.1293    3.4986 P   0  0  0  0  0  0  0  0  0  0  0  0
    9.6388    8.6444    2.2757 O   0  0  0  0  0  0  0  0  0  0  0  0
    9.0041    5.9352    4.1883 Pd  0  0  0  0  0  0  0  0  0  0  0  0
   11.0038    9.7481    6.1075 P   0  0  0  0  0  0  0  0  0  0  0  0
    8.3577    9.1612    4.2843 O   0  0  0  0  0  0  0  0  0  0  0  0
    9.0308    5.0016    1.9477 P   0  0  0  0  0  0  0  0  0  0  0  0
   11.2511    5.3778    4.5018 B   0  0  0  0  0  0  0  0  0  0  0  0
   11.7519    5.3109    3.5028 H   0  0  0  0  0  0  0  0  0  0  0  0
    6.6258    6.1830    4.2264 P   0  0  0  0  0  0  0  0  0  0  0  0
   12.2001    5.8730    6.0083 B   0  0  0  0  0  0  0  0  0  0  0  0
   13.2952    6.1082    5.9924 H   0  0  0  0  0  0  0  0  0  0  0  0
   11.0450    6.6810    7.1400 B   0  0  0  0  0  0  0  0  0  0  0  0
   11.3589    7.4588    7.8826 H   0  0  0  0  0  0  0  0  0  0  0  0
    9.3747    6.6842    6.3567 B   0  0  0  0  0  0  0  0  0  0  0  0
    8.6246    7.4826    6.5865 H   0  0  0  0  0  0  0  0  0  0  0  0
   10.0122    4.1199    5.0217 B   0  0  0  0  0  0  0  0  0  0  0  0
    9.7270    3.2483    4.3798 H   0  0  0  0  0  0  0  0  0  0  0  0
   11.6441    4.2300    5.7590 B   0  0  0  0  0  0  0  0  0  0  0  0
   12.3942    3.4273    5.5398 H   0  0  0  0  0  0  0  0  0  0  0  0
   11.5411    4.9808    7.3575 B   0  0  0  0  0  0  0  0  0  0  0  0
   12.1977    4.6647    8.2080 H   0  0  0  0  0  0  0  0  0  0  0  0
    9.8276    5.4943    7.5820 B   0  0  0  0  0  0  0  0  0  0  0  0
    9.3555    5.5537    8.5952 H   0  0  0  0  0  0  0  0  0  0  0  0
    8.8715    4.9182    6.2046 B   0  0  0  0  0  0  0  0  0  0  0  0
    7.8171    4.5730    6.3655 H   0  0  0  0  0  0  0  0  0  0  0  0
   10.2087    3.9376    6.7952 B   0  0  0  0  0  0  0  0  0  0  0  0
   10.0098    2.9527    7.2903 H   0  0  0  0  0  0  0  0  0  0  0  0
   13.0556    9.8915    3.0961 C   0  0  0  0  0  0  0  0  0  0  0  0
   12.3606   10.4719    2.0299 C   0  0  0  0  0  0  0  0  0  0  0  0
   11.7879    9.9357    1.4941 H   0  0  0  0  0  0  0  0  0  0  0  0
   12.4996   11.8301    1.7470 C   0  0  0  0  0  0  0  0  0  0  0  0
   12.0251   12.2142    1.0185 H   0  0  0  0  0  0  0  0  0  0  0  0
   13.3360   12.6252    2.5321 C   0  0  0  0  0  0  0  0  0  0  0  0
   13.4270   13.5519    2.3429 H   0  0  0  0  0  0  0  0  0  0  0  0
   14.0381   12.0577    3.5965 C   0  0  0  0  0  0  0  0  0  0  0  0
   14.6156   12.5950    4.1252 H   0  0  0  0  0  0  0  0  0  0  0  0
   13.8919   10.7060    3.8830 C   0  0  0  0  0  0  0  0  0  0  0  0
   14.3592   10.3263    4.6168 H   0  0  0  0  0  0  0  0  0  0  0  0
   12.6674    7.3995    1.8460 C   0  0  0  0  0  0  0  0  0  0  0  0
   13.3216    7.8105    1.2448 H   0  0  0  0  0  0  0  0  0  0  0  0
   11.7639    7.5570    1.5012 H   0  0  0  0  0  0  0  0  0  0  0  0
   12.8327    6.4350    1.8973 H   0  0  0  0  0  0  0  0  0  0  0  0
   14.4790    7.6001    3.9908 C   0  0  0  0  0  0  0  0  0  0  0  0
   14.5821    6.6422    3.8087 H   0  0  0  0  0  0  0  0  0  0  0  0
   14.6037    7.7652    4.9474 H   0  0  0  0  0  0  0  0  0  0  0  0
   15.1476    8.1039    3.4816 H   0  0  0  0  0  0  0  0  0  0  0  0
   12.5595   10.1850    6.9561 C   0  0  0  0  0  0  0  0  0  0  0  0
   13.5445    9.2237    7.1877 C   0  0  0  0  0  0  0  0  0  0  0  0
   13.4031    8.3273    6.9066 H   0  0  0  0  0  0  0  0  0  0  0  0
   14.7307    9.5744    7.8278 C   0  0  0  0  0  0  0  0  0  0  0  0
   15.3945    8.9152    7.9976 H   0  0  0  0  0  0  0  0  0  0  0  0
   14.9392   10.8786    8.2151 C   0  0  0  0  0  0  0  0  0  0  0  0
   15.7491   11.1181    8.6483 H   0  0  0  0  0  0  0  0  0  0  0  0
   13.9710   11.8463    7.9728 C   0  0  0  0  0  0  0  0  0  0  0  0
   14.1220   12.7417    8.2540 H   0  0  0  0  0  0  0  0  0  0  0  0
   12.8016   11.5216    7.3310 C   0  0  0  0  0  0  0  0  0  0  0  0
   12.1593   12.1937    7.1418 H   0  0  0  0  0  0  0  0  0  0  0  0
   10.6232   11.2066    5.0747 C   0  0  0  0  0  0  0  0  0  0  0  0
   10.4004   11.9660    5.6529 H   0  0  0  0  0  0  0  0  0  0  0  0
    9.8588   11.0038    4.4930 H   0  0  0  0  0  0  0  0  0  0  0  0
   11.4021   11.4299    4.5248 H   0  0  0  0  0  0  0  0  0  0  0  0
    9.7390    9.9573    7.3981 C   0  0  0  0  0  0  0  0  0  0  0  0
    9.7773    9.2000    8.0188 H   0  0  0  0  0  0  0  0  0  0  0  0
    8.8523    9.9940    6.9826 H   0  0  0  0  0  0  0  0  0  0  0  0
    9.9043   10.7891    7.8879 H   0  0  0  0  0  0  0  0  0  0  0  0
    7.7116    3.7974    1.5719 C   0  0  0  0  0  0  0  0  0  0  0  0
    6.7339    4.0541    0.6224 C   0  0  0  0  0  0  0  0  0  0  0  0
    6.7267    4.8826    0.1591 H   0  0  0  0  0  0  0  0  0  0  0  0
    5.7633    3.0962    0.3519 C   0  0  0  0  0  0  0  0  0  0  0  0
    5.0852    3.2871   -0.2864 H   0  0  0  0  0  0  0  0  0  0  0  0
    5.7609    1.9095    0.9725 C   0  0  0  0  0  0  0  0  0  0  0  0
    5.0852    1.2719    0.7780 H   0  0  0  0  0  0  0  0  0  0  0  0
    6.7555    1.6139    1.9044 C   0  0  0  0  0  0  0  0  0  0  0  0
    6.7650    0.7649    2.3287 H   0  0  0  0  0  0  0  0  0  0  0  0
    7.7236    2.5492    2.2138 C   0  0  0  0  0  0  0  0  0  0  0  0
    8.3946    2.3485    2.8574 H   0  0  0  0  0  0  0  0  0  0  0  0
   10.4866    4.0250    1.4641 C   0  0  0  0  0  0  0  0  0  0  0  0
   10.6544    3.3313    2.1360 H   0  0  0  0  0  0  0  0  0  0  0  0
   11.2679    4.6129    1.4004 H   0  0  0  0  0  0  0  0  0  0  0  0
   10.3237    3.6032    0.5941 H   0  0  0  0  0  0  0  0  0  0  0  0
    8.8954    6.2053    0.5870 C   0  0  0  0  0  0  0  0  0  0  0  0
    9.6024    6.8763    0.6719 H   0  0  0  0  0  0  0  0  0  0  0  0
    8.0208    6.6465    0.6259 H   0  0  0  0  0  0  0  0  0  0  0  0
    8.9865    5.7403   -0.2705 H   0  0  0  0  0  0  0  0  0  0  0  0
    5.7657    6.9119    2.7849 C   0  0  0  0  0  0  0  0  0  0  0  0
    6.0341    8.2269    2.3853 C   0  0  0  0  0  0  0  0  0  0  0  0
    6.6788    8.7437    2.8574 H   0  0  0  0  0  0  0  0  0  0  0  0
    5.3631    8.7750    1.3067 C   0  0  0  0  0  0  0  0  0  0  0  0
    5.5668    9.6650    1.0450 H   0  0  0  0  0  0  0  0  0  0  0  0
    4.4118    8.0716    0.5959 C   0  0  0  0  0  0  0  0  0  0  0  0
    3.9612    8.4643   -0.1415 H   0  0  0  0  0  0  0  0  0  0  0  0
    4.1338    6.7716    0.9973 C   0  0  0  0  0  0  0  0  0  0  0  0
    3.4700    6.2689    0.5375 H   0  0  0  0  0  0  0  0  0  0  0  0
    4.8192    6.1955    2.0723 C   0  0  0  0  0  0  0  0  0  0  0  0
    4.6322    5.2969    2.3163 H   0  0  0  0  0  0  0  0  0  0  0  0
    5.7633    4.6097    4.4771 C   0  0  0  0  0  0  0  0  0  0  0  0
    6.0701    4.1987    5.3117 H   0  0  0  0  0  0  0  0  0  0  0  0
    5.9575    4.0088    3.7274 H   0  0  0  0  0  0  0  0  0  0  0  0
    4.7976    4.7705    4.5266 H   0  0  0  0  0  0  0  0  0  0  0  0
    6.0030    7.1859    5.5946 C   0  0  0  0  0  0  0  0  0  0  0  0
    5.0229    7.1934    5.5751 H   0  0  0  0  0  0  0  0  0  0  0  0
    6.3385    8.1029    5.5062 H   0  0  0  0  0  0  0  0  0  0  0  0
    6.3097    6.8061    6.4433 H   0  0  0  0  0  0  0  0  0  0  0  0
  1  2  1  0  0  0  0
  2  4  2  0  0  0  0
  3  1  1  0  0  0  0
  5  1  1  0  0  0  0
  6  1  1  0  0  0  0
  7  2  2  0  0  0  0
  8  5  1  0  0  0  0
  9  1  1  0  0  0  0
 10  9  1  0  0  0  0
 11  5  1  0  0  0  0
 12  1  1  0  0  0  0
 13 12  1  0  0  0  0
 14  1  1  0  0  0  0
 15 14  1  0  0  0  0
 16  1  1  0  0  0  0
 17 16  1  0  0  0  0
 18  5  1  0  0  0  0
 19 18  1  0  0  0  0
 20  9  1  0  0  0  0
 21 20  1  0  0  0  0
 22 12  1  0  0  0  0
 23 22  1  0  0  0  0
 24 14  1  0  0  0  0
 25 24  1  0  0  0  0
 26  5  1  0  0  0  0
 27 26  1  0  0  0  0
 28 18  1  0  0  0  0
 29 28  1  0  0  0  0
 30  3  1  0  0  0  0
 31 30  4  0  0  0  0
 32 31  1  0  0  0  0
 33 31  4  0  0  0  0
 34 33  1  0  0  0  0
 35 33  4  0  0  0  0
 36 35  1  0  0  0  0
 37 35  4  0  0  0  0
 38 37  1  0  0  0  0
 39 30  4  0  0  0  0
 40 39  1  0  0  0  0
 41  3  1  0  0  0  0
 42 41  1  0  0  0  0
 43 41  1  0  0  0  0
 44 41  1  0  0  0  0
 45  3  1  0  0  0  0
 46 45  1  0  0  0  0
 47 45  1  0  0  0  0
 48 45  1  0  0  0  0
 49  6  1  0  0  0  0
 50 49  4  0  0  0  0
 51 50  1  0  0  0  0
 52 50  4  0  0  0  0
 53 52  1  0  0  0  0
 54 52  4  0  0  0  0
 55 54  1  0  0  0  0
 56 54  4  0  0  0  0
 57 56  1  0  0  0  0
 58 49  4  0  0  0  0
 59 58  1  0  0  0  0
 60  6  1  0  0  0  0
 61 60  1  0  0  0  0
 62 60  1  0  0  0  0
 63 60  1  0  0  0  0
 64  6  1  0  0  0  0
 65 64  1  0  0  0  0
 66 64  1  0  0  0  0
 67 64  1  0  0  0  0
 68  8  1  0  0  0  0
 69 68  4  0  0  0  0
 70 69  1  0  0  0  0
 71 69  4  0  0  0  0
 72 71  1  0  0  0  0
 73 71  4  0  0  0  0
 74 73  1  0  0  0  0
 75 73  4  0  0  0  0
 76 75  1  0  0  0  0
 77 68  4  0  0  0  0
 78 77  1  0  0  0  0
 79  8  1  0  0  0  0
 80 79  1  0  0  0  0
 81 79  1  0  0  0  0
 82 79  1  0  0  0  0
 83  8  1  0  0  0  0
 84 83  1  0  0  0  0
 85 83  1  0  0  0  0
 86 83  1  0  0  0  0
 87 11  1  0  0  0  0
 88 87  4  0  0  0  0
 89 88  1  0  0  0  0
 90 88  4  0  0  0  0
 91 90  1  0  0  0  0
 92 90  4  0  0  0  0
 93 92  1  0  0  0  0
 94 92  4  0  0  0  0
 95 94  1  0  0  0  0
 96 87  4  0  0  0  0
 97 96  1  0  0  0  0
 98 11  1  0  0  0  0
 99 98  1  0  0  0  0
100 98  1  0  0  0  0
101 98  1  0  0  0  0
102 11  1  0  0  0  0
103102  1  0  0  0  0
104102  1  0  0  0  0
105102  1  0  0  0  0
  2  5  1  0  0  0  0
  5  9  1  0  0  0  0
  5 16  1  0  0  0  0
  9 12  1  0  0  0  0
  9 18  1  0  0  0  0
 12 14  1  0  0  0  0
 12 20  1  0  0  0  0
 14 16  1  0  0  0  0
 14 22  1  0  0  0  0
 16 24  1  0  0  0  0
 16 26  1  0  0  0  0
 18 20  1  0  0  0  0
 18 26  1  0  0  0  0
 20 22  1  0  0  0  0
 20 28  1  0  0  0  0
 22 24  1  0  0  0  0
 22 28  1  0  0  0  0
 24 26  1  0  0  0  0
 24 28  1  0  0  0  0
 26 28  1  0  0  0  0
 37 39  4  0  0  0  0
 56 58  4  0  0  0  0
 75 77  4  0  0  0  0
 94 96  4  0  0  0  0
M  END
$$$$
VADNEV

From CSD data. Using bond type 'Any'. No disordered atoms. Largest molecule.
 48 49  0  0  0  0  0  0  0  0999 V2000
    2.2718    4.6611    5.9646 C   0  0  0  0  0  0  0  0  0  0  0  0
    3.1108    4.6733    6.4519 H   0  0  0  0  0  0  0  0  0  0  0  0
    2.1180    3.7544    5.6567 H   0  0  0  0  0  0  0  0  0  0  0  0
    2.3733    5.5982    4.7549 C   0  0  0  0  0  0  0  0  0  0  0  0
    2.4708    6.5119    5.0671 H   0  0  0  0  0  0  0  0  0  0  0  0
    1.5519    5.5454    4.2415 H   0  0  0  0  0  0  0  0  0  0  0  0
    0.6683    7.5113    8.2295 C   0  0  0  0  0  0  0  0  0  0  0  0
    1.1879    8.2631    8.5232 H   0  0  0  0  0  0  0  0  0  0  0  0
    0.2085    7.1268    8.9790 H   0  0  0  0  0  0  0  0  0  0  0  0
    0.0278    7.8015    7.5757 H   0  0  0  0  0  0  0  0  0  0  0  0
    6.3177    5.2267    4.2785 C   0  0  0  0  0  0  0  0  0  0  0  0
    6.9307    5.5229    4.9551 H   0  0  0  0  0  0  0  0  0  0  0  0
    6.5358    5.6467    3.4430 H   0  0  0  0  0  0  0  0  0  0  0  0
    6.3805    4.2740    4.1849 H   0  0  0  0  0  0  0  0  0  0  0  0
    0.9966    3.9709    8.4285 C   0  0  0  0  0  0  0  0  0  0  0  0
   -0.1244    3.2088    8.7560 C   0  0  0  0  0  0  0  0  0  0  0  0
   -0.9184    3.3205    8.2860 H   0  0  0  0  0  0  0  0  0  0  0  0
   -0.0504    2.2786    9.7905 C   0  0  0  0  0  0  0  0  0  0  0  0
   -0.7949    1.7633   10.0005 H   0  0  0  0  0  0  0  0  0  0  0  0
    1.1253    2.1141   10.5107 C   0  0  0  0  0  0  0  0  0  0  0  0
    1.1635    1.4991   11.2080 H   0  0  0  0  0  0  0  0  0  0  0  0
    2.2372    2.8684   10.1865 C   0  0  0  0  0  0  0  0  0  0  0  0
    3.0281    2.7541   10.6608 H   0  0  0  0  0  0  0  0  0  0  0  0
    2.1761    3.7916    9.1585 C   0  0  0  0  0  0  0  0  0  0  0  0
    2.9276    4.2991    8.9507 H   0  0  0  0  0  0  0  0  0  0  0  0
    3.7576    6.4331    2.3813 C   0  0  0  0  0  0  0  0  0  0  0  0
    3.9249    7.7824    2.6641 C   0  0  0  0  0  0  0  0  0  0  0  0
    4.0285    8.0630    3.5442 H   0  0  0  0  0  0  0  0  0  0  0  0
    3.9373    8.7195    1.6274 C   0  0  0  0  0  0  0  0  0  0  0  0
    4.0488    9.6237    1.8167 H   0  0  0  0  0  0  0  0  0  0  0  0
    3.7832    8.2995    0.3220 C   0  0  0  0  0  0  0  0  0  0  0  0
    3.8001    8.9247   -0.3666 H   0  0  0  0  0  0  0  0  0  0  0  0
    3.6041    6.9640    0.0250 C   0  0  0  0  0  0  0  0  0  0  0  0
    3.4905    6.6920   -0.8572 H   0  0  0  0  0  0  0  0  0  0  0  0
    3.5939    6.0252    1.0519 C   0  0  0  0  0  0  0  0  0  0  0  0
    3.4785    5.1236    0.8550 H   0  0  0  0  0  0  0  0  0  0  0  0
    1.5372    6.5275    7.6442 O   0  0  0  0  0  0  0  0  0  0  0  0
    4.9721    5.5852    4.6603 O   0  0  0  0  0  0  0  0  0  0  0  0
    0.9310    5.1545    7.0695 P   0  0  0  0  0  0  0  0  0  0  0  0
    3.7672    5.1858    3.6857 P   0  0  0  0  0  0  0  0  0  0  0  0
   -0.7612    5.2604    6.2224 B   0  0  0  0  0  0  0  0  0  0  0  0
   -0.7218    5.8996    5.5077 H   0  0  0  0  0  0  0  0  0  0  0  0
   -1.4222    5.5359    6.8621 H   0  0  0  0  0  0  0  0  0  0  0  0
   -0.9967    4.3996    5.8700 H   0  0  0  0  0  0  0  0  0  0  0  0
    3.7693    3.4097    3.0416 B   0  0  0  0  0  0  0  0  0  0  0  0
    3.7726    2.8000    3.7835 H   0  0  0  0  0  0  0  0  0  0  0  0
    4.5511    3.2642    2.5053 H   0  0  0  0  0  0  0  0  0  0  0  0
    2.9843    3.2607    2.5096 H   0  0  0  0  0  0  0  0  0  0  0  0
  1  2  1  0  0  0  0
  3  1  1  0  0  0  0
  4  1  1  0  0  0  0
  5  4  1  0  0  0  0
  6  4  1  0  0  0  0
  7  8  1  0  0  0  0
  9  7  1  0  0  0  0
 10  7  1  0  0  0  0
 11 12  1  0  0  0  0
 13 11  1  0  0  0  0
 14 11  1  0  0  0  0
 15 16  4  0  0  0  0
 16 17  1  0  0  0  0
 18 16  4  0  0  0  0
 19 18  1  0  0  0  0
 20 18  4  0  0  0  0
 21 20  1  0  0  0  0
 22 20  4  0  0  0  0
 23 22  1  0  0  0  0
 24 15  4  0  0  0  0
 25 24  1  0  0  0  0
 26 27  4  0  0  0  0
 27 28  1  0  0  0  0
 29 27  4  0  0  0  0
 30 29  1  0  0  0  0
 31 29  4  0  0  0  0
 32 31  1  0  0  0  0
 33 31  4  0  0  0  0
 34 33  1  0  0  0  0
 35 26  4  0  0  0  0
 36 35  1  0  0  0  0
 37  7  1  0  0  0  0
 38 11  1  0  0  0  0
 39  1  1  0  0  0  0
 40  4  1  0  0  0  0
 41 39  1  0  0  0  0
 42 41  1  0  0  0  0
 43 41  1  0  0  0  0
 44 41  1  0  0  0  0
 45 40  1  0  0  0  0
 46 45  1  0  0  0  0
 47 45  1  0  0  0  0
 48 45  1  0  0  0  0
 15 39  1  0  0  0  0
 22 24  4  0  0  0  0
 26 40  1  0  0  0  0
 33 35  4  0  0  0  0
 37 39  1  0  0  0  0
 38 40  1  0  0  0  0
M  END
$$$$
VAPYUG

From CSD data. Using bond type 'Any'. No disordered atoms. Largest molecule.
 75 78  0  0  0  0  0  0  0  0999 V2000
    3.9426    4.6647   -1.8503 V   0  0  0  0  0  0  0  0  0  0  0  0
    2.4089    3.7569    1.2316 V   0  0  0  0  0  0  0  0  0  0  0  0
    5.0084    2.3938   -2.2315 P   0  0  0  0  0  0  0  0  0  0  0  0
    3.0625    7.0366   -1.8321 P   0  0  0  0  0  0  0  0  0  0  0  0
    0.2624    2.9768    0.1459 P   0  0  0  0  0  0  0  0  0  0  0  0
    4.3742    4.4359    2.6630 P   0  0  0  0  0  0  0  0  0  0  0  0
    3.1917    4.2190   -0.3004 O   0  0  0  0  0  0  0  0  0  0  0  0
    3.9141    0.9614   -2.2731 C   0  0  0  0  0  0  0  0  0  0  0  0
    6.1807    1.8772   -0.9681 C   0  0  0  0  0  0  0  0  0  0  0  0
    5.9301    2.2470   -3.7501 C   0  0  0  0  0  0  0  0  0  0  0  0
    1.2643    7.1943   -1.7409 C   0  0  0  0  0  0  0  0  0  0  0  0
    3.5771    8.1001   -0.4723 C   0  0  0  0  0  0  0  0  0  0  0  0
    3.4950    8.0045   -3.3020 C   0  0  0  0  0  0  0  0  0  0  0  0
    0.4339    1.6432   -1.0645 C   0  0  0  0  0  0  0  0  0  0  0  0
   -0.6685    4.2073   -0.7979 C   0  0  0  0  0  0  0  0  0  0  0  0
   -0.9614    2.3208    1.3085 C   0  0  0  0  0  0  0  0  0  0  0  0
    4.8105    6.2000    2.5796 C   0  0  0  0  0  0  0  0  0  0  0  0
    5.9522    3.6524    2.2862 C   0  0  0  0  0  0  0  0  0  0  0  0
    4.1356    4.1299    4.4369 C   0  0  0  0  0  0  0  0  0  0  0  0
    6.1264    5.6033   -1.7678 B   0  0  0  0  0  0  0  0  0  0  0  0
    2.6375    4.2721   -3.7917 B   0  0  0  0  0  0  0  0  0  0  0  0
    2.7646    1.5122    1.9788 B   0  0  0  0  0  0  0  0  0  0  0  0
    1.1185    5.4375    2.3374 B   0  0  0  0  0  0  0  0  0  0  0  0
    5.5255    5.3459   -2.7698 H   0  0  0  0  0  0  0  0  0  0  0  0
    5.5015    5.2824   -0.9204 H   0  0  0  0  0  0  0  0  0  0  0  0
    7.0496    5.0672   -1.8147 H   0  0  0  0  0  0  0  0  0  0  0  0
    6.2776    6.7231   -1.6584 H   0  0  0  0  0  0  0  0  0  0  0  0
    3.7025    4.8045   -3.8812 H   0  0  0  0  0  0  0  0  0  0  0  0
    2.2362    4.0600   -2.6916 H   0  0  0  0  0  0  0  0  0  0  0  0
    2.7274    3.3271   -4.3500 H   0  0  0  0  0  0  0  0  0  0  0  0
    1.9073    5.0733   -4.1677 H   0  0  0  0  0  0  0  0  0  0  0  0
    2.1260    2.2945    2.5440 H   0  0  0  0  0  0  0  0  0  0  0  0
    3.2000    2.0022    1.0506 H   0  0  0  0  0  0  0  0  0  0  0  0
    2.0553    0.7576    1.6844 H   0  0  0  0  0  0  0  0  0  0  0  0
    3.5837    1.2735    2.6135 H   0  0  0  0  0  0  0  0  0  0  0  0
    1.2945    4.4176    2.7264 H   0  0  0  0  0  0  0  0  0  0  0  0
    1.7112    5.5709    1.3806 H   0  0  0  0  0  0  0  0  0  0  0  0
    0.0716    5.5207    2.1794 H   0  0  0  0  0  0  0  0  0  0  0  0
    1.5524    6.0991    3.0650 H   0  0  0  0  0  0  0  0  0  0  0  0
    3.2239    1.0966   -2.9122 H   0  0  0  0  0  0  0  0  0  0  0  0
    3.5307    0.8383   -1.4135 H   0  0  0  0  0  0  0  0  0  0  0  0
    4.4167    0.1888   -2.5093 H   0  0  0  0  0  0  0  0  0  0  0  0
    6.8325    2.5566   -0.8440 H   0  0  0  0  0  0  0  0  0  0  0  0
    6.6090    1.0749   -1.2460 H   0  0  0  0  0  0  0  0  0  0  0  0
    5.7239    1.7228   -0.1502 H   0  0  0  0  0  0  0  0  0  0  0  0
    5.3884    2.5026   -4.4872 H   0  0  0  0  0  0  0  0  0  0  0  0
    6.2146    1.3478   -3.8629 H   0  0  0  0  0  0  0  0  0  0  0  0
    6.6901    2.8159   -3.7032 H   0  0  0  0  0  0  0  0  0  0  0  0
    0.8613    6.6735   -2.4260 H   0  0  0  0  0  0  0  0  0  0  0  0
    1.0183    8.1048   -1.8503 H   0  0  0  0  0  0  0  0  0  0  0  0
    0.9671    6.8863   -0.8926 H   0  0  0  0  0  0  0  0  0  0  0  0
    4.5250    8.1053   -0.4150 H   0  0  0  0  0  0  0  0  0  0  0  0
    3.2117    7.7656    0.3395 H   0  0  0  0  0  0  0  0  0  0  0  0
    3.2632    8.9812   -0.6191 H   0  0  0  0  0  0  0  0  0  0  0  0
    3.2604    7.5266   -4.0887 H   0  0  0  0  0  0  0  0  0  0  0  0
    4.4312    8.1692   -3.2994 H   0  0  0  0  0  0  0  0  0  0  0  0
    3.0287    8.8310   -3.2829 H   0  0  0  0  0  0  0  0  0  0  0  0
    0.9058    0.9175   -0.6729 H   0  0  0  0  0  0  0  0  0  0  0  0
    0.9145    1.9648   -1.8190 H   0  0  0  0  0  0  0  0  0  0  0  0
   -0.4266    1.3513   -1.3397 H   0  0  0  0  0  0  0  0  0  0  0  0
   -0.8212    4.9690   -0.2509 H   0  0  0  0  0  0  0  0  0  0  0  0
   -1.5018    3.8468   -1.0793 H   0  0  0  0  0  0  0  0  0  0  0  0
   -0.1596    4.4603   -1.5586 H   0  0  0  0  0  0  0  0  0  0  0  0
   -1.1192    2.9614    1.9927 H   0  0  0  0  0  0  0  0  0  0  0  0
   -0.6300    1.5194    1.6957 H   0  0  0  0  0  0  0  0  0  0  0  0
   -1.7739    2.1393    0.8509 H   0  0  0  0  0  0  0  0  0  0  0  0
    4.0414    6.7259    2.7707 H   0  0  0  0  0  0  0  0  0  0  0  0
    5.1303    6.4112    1.7105 H   0  0  0  0  0  0  0  0  0  0  0  0
    5.4871    6.3870    3.2204 H   0  0  0  0  0  0  0  0  0  0  0  0
    5.8499    2.7072    2.2957 H   0  0  0  0  0  0  0  0  0  0  0  0
    6.5989    3.9061    2.9339 H   0  0  0  0  0  0  0  0  0  0  0  0
    6.2406    3.9300    1.4248 H   0  0  0  0  0  0  0  0  0  0  0  0
    3.9005    3.2187    4.5749 H   0  0  0  0  0  0  0  0  0  0  0  0
    3.4396    4.6875    4.7642 H   0  0  0  0  0  0  0  0  0  0  0  0
    4.9408    4.3220    4.9023 H   0  0  0  0  0  0  0  0  0  0  0  0
  1  3  1  0  0  0  0
  2  5  1  0  0  0  0
  3  8  1  0  0  0  0
  4  1  1  0  0  0  0
  5 14  1  0  0  0  0
  6  2  1  0  0  0  0
  7  1  1  0  0  0  0
  8 40  1  0  0  0  0
  9  3  1  0  0  0  0
 10  3  1  0  0  0  0
 11  4  1  0  0  0  0
 12  4  1  0  0  0  0
 13  4  1  0  0  0  0
 14 58  1  0  0  0  0
 15  5  1  0  0  0  0
 16  5  1  0  0  0  0
 17  6  1  0  0  0  0
 18  6  1  0  0  0  0
 19  6  1  0  0  0  0
 20 24  1  0  0  0  0
 21 28  1  0  0  0  0
 22 32  1  0  0  0  0
 23 36  1  0  0  0  0
 24  1  1  0  0  0  0
 25  1  1  0  0  0  0
 26 20  1  0  0  0  0
 27 20  1  0  0  0  0
 28  1  1  0  0  0  0
 29  1  1  0  0  0  0
 30 21  1  0  0  0  0
 31 21  1  0  0  0  0
 32  2  1  0  0  0  0
 33  2  1  0  0  0  0
 34 22  1  0  0  0  0
 35 22  1  0  0  0  0
 36  2  1  0  0  0  0
 37  2  1  0  0  0  0
 38 23  1  0  0  0  0
 39 23  1  0  0  0  0
 41  8  1  0  0  0  0
 42  8  1  0  0  0  0
 43  9  1  0  0  0  0
 44  9  1  0  0  0  0
 45  9  1  0  0  0  0
 46 10  1  0  0  0  0
 47 10  1  0  0  0  0
 48 10  1  0  0  0  0
 49 11  1  0  0  0  0
 50 11  1  0  0  0  0
 51 11  1  0  0  0  0
 52 12  1  0  0  0  0
 53 12  1  0  0  0  0
 54 12  1  0  0  0  0
 55 13  1  0  0  0  0
 56 13  1  0  0  0  0
 57 13  1  0  0  0  0
 59 14  1  0  0  0  0
 60 14  1  0  0  0  0
 61 15  1  0  0  0  0
 62 15  1  0  0  0  0
 63 15  1  0  0  0  0
 64 16  1  0  0  0  0
 65 16  1  0  0  0  0
 66 16  1  0  0  0  0
 67 17  1  0  0  0  0
 68 17  1  0  0  0  0
 69 17  1  0  0  0  0
 70 18  1  0  0  0  0
 71 18  1  0  0  0  0
 72 18  1  0  0  0  0
 73 19  1  0  0  0  0
 74 19  1  0  0  0  0
 75 19  1  0  0  0  0
  2  7  1  0  0  0  0
 20 25  1  0  0  0  0
 21 29  1  0  0  0  0
 22 33  1  0  0  0  0
 23 37  1  0  0  0  0
M  END
$$$$
VEKJEC

From CSD data. Using bond type 'Any'. No disordered atoms. Largest molecule.
106147  0  0  0  0  0  0  0  0999 V2000
    1.1901    4.6374   11.5580 Rh  0  0  0  0  0  0  0  0  0  0  0  0
    2.7784    6.1228   10.1593 Rh  0  0  0  0  0  0  0  0  0  0  0  0
    3.1481    3.6041   10.5155 Cl  0  0  0  0  0  0  0  0  0  0  0  0
    0.7393    5.2911    9.1165 Cl  0  0  0  0  0  0  0  0  0  0  0  0
   -0.2359    7.0130   12.6435 O   0  0  0  0  0  0  0  0  0  0  0  0
    4.3674    6.8254   12.5698 O   0  0  0  0  0  0  0  0  0  0  0  0
   -0.0480    2.6882   12.2262 P   0  0  0  0  0  0  0  0  0  0  0  0
    3.9678    7.0062    8.2543 P   0  0  0  0  0  0  0  0  0  0  0  0
    1.6321    4.2797   13.5534 B   0  0  0  0  0  0  0  0  0  0  0  0
    3.1471    4.1008   14.4987 B   0  0  0  0  0  0  0  0  0  0  0  0
    4.1000    4.5620   14.1317 H   0  0  0  0  0  0  0  0  0  0  0  0
    1.8150    5.0750   15.1497 B   0  0  0  0  0  0  0  0  0  0  0  0
    1.8712    6.1910   15.2188 H   0  0  0  0  0  0  0  0  0  0  0  0
    0.3068    4.2186   14.7931 B   0  0  0  0  0  0  0  0  0  0  0  0
   -0.6486    4.7763   14.6186 H   0  0  0  0  0  0  0  0  0  0  0  0
    0.2762    2.6425   15.6150 B   0  0  0  0  0  0  0  0  0  0  0  0
   -0.6739    2.1684   15.9732 H   0  0  0  0  0  0  0  0  0  0  0  0
    1.5919    1.6694   14.9421 B   0  0  0  0  0  0  0  0  0  0  0  0
    1.5170    0.5573   14.8380 H   0  0  0  0  0  0  0  0  0  0  0  0
    3.1290    2.5100   15.3172 B   0  0  0  0  0  0  0  0  0  0  0  0
    4.0754    1.9291   15.4717 H   0  0  0  0  0  0  0  0  0  0  0  0
    2.7589    3.9886   16.2301 B   0  0  0  0  0  0  0  0  0  0  0  0
    3.4502    4.3941   17.0124 H   0  0  0  0  0  0  0  0  0  0  0  0
    0.9966    4.0707   16.4059 B   0  0  0  0  0  0  0  0  0  0  0  0
    0.5229    4.5405   17.3060 H   0  0  0  0  0  0  0  0  0  0  0  0
    1.8040    2.4853   16.5018 B   0  0  0  0  0  0  0  0  0  0  0  0
    1.8715    1.9041   17.4571 H   0  0  0  0  0  0  0  0  0  0  0  0
    2.4255    8.1608   10.1066 B   0  0  0  0  0  0  0  0  0  0  0  0
    0.9513    9.1839   10.1125 B   0  0  0  0  0  0  0  0  0  0  0  0
   -0.0082    8.7952   10.5403 H   0  0  0  0  0  0  0  0  0  0  0  0
    2.3440    9.6248   11.1311 B   0  0  0  0  0  0  0  0  0  0  0  0
    2.3174    9.5312   12.2466 H   0  0  0  0  0  0  0  0  0  0  0  0
    3.8165    9.3272   10.1861 B   0  0  0  0  0  0  0  0  0  0  0  0
    4.7759    9.0275   10.6798 H   0  0  0  0  0  0  0  0  0  0  0  0
    3.8421   10.3678    8.7413 B   0  0  0  0  0  0  0  0  0  0  0  0
    4.7950   10.7458    8.2889 H   0  0  0  0  0  0  0  0  0  0  0  0
    2.4676    9.9109    7.7277 B   0  0  0  0  0  0  0  0  0  0  0  0
    2.5104    9.9670    6.6102 H   0  0  0  0  0  0  0  0  0  0  0  0
    0.9714   10.2335    8.6586 B   0  0  0  0  0  0  0  0  0  0  0  0
    0.0233   10.5207    8.1377 H   0  0  0  0  0  0  0  0  0  0  0  0
    1.4368   10.8937   10.2496 B   0  0  0  0  0  0  0  0  0  0  0  0
    0.8020   11.6389   10.7932 H   0  0  0  0  0  0  0  0  0  0  0  0
    3.2060   10.9701   10.2967 B   0  0  0  0  0  0  0  0  0  0  0  0
    3.7411   11.7639   10.8760 H   0  0  0  0  0  0  0  0  0  0  0  0
    2.3559   11.3352    8.7720 B   0  0  0  0  0  0  0  0  0  0  0  0
    2.3198   12.3676    8.3427 H   0  0  0  0  0  0  0  0  0  0  0  0
    0.7246    2.8047   13.9510 C   0  0  0  0  0  0  0  0  0  0  0  0
    2.3740    2.7450   13.8321 C   0  0  0  0  0  0  0  0  0  0  0  0
    2.8510    2.2720   12.9355 H   0  0  0  0  0  0  0  0  0  0  0  0
    0.3591    0.9785   11.4684 C   0  0  0  0  0  0  0  0  0  0  0  0
    1.8293    0.5587   11.6302 C   0  0  0  0  0  0  0  0  0  0  0  0
    2.0157    0.3822   12.5765 H   0  0  0  0  0  0  0  0  0  0  0  0
    2.4118    1.2789   11.3106 H   0  0  0  0  0  0  0  0  0  0  0  0
    1.9963   -0.2536   11.1071 H   0  0  0  0  0  0  0  0  0  0  0  0
    0.1400    1.1232    9.9478 C   0  0  0  0  0  0  0  0  0  0  0  0
    0.6431    1.8969    9.6173 H   0  0  0  0  0  0  0  0  0  0  0  0
   -0.8147    1.2539    9.7670 H   0  0  0  0  0  0  0  0  0  0  0  0
    0.4504    0.3108    9.4938 H   0  0  0  0  0  0  0  0  0  0  0  0
   -0.4813   -0.1611   12.0773 C   0  0  0  0  0  0  0  0  0  0  0  0
   -0.2284   -1.0110   11.6608 H   0  0  0  0  0  0  0  0  0  0  0  0
   -1.4324    0.0107   11.9152 H   0  0  0  0  0  0  0  0  0  0  0  0
   -0.3174   -0.2072   13.0416 H   0  0  0  0  0  0  0  0  0  0  0  0
   -1.9563    2.8615   12.3509 C   0  0  0  0  0  0  0  0  0  0  0  0
   -2.5918    2.3649   11.0437 C   0  0  0  0  0  0  0  0  0  0  0  0
   -3.5534    2.5507   11.0562 H   0  0  0  0  0  0  0  0  0  0  0  0
   -2.4476    1.4004   10.9574 H   0  0  0  0  0  0  0  0  0  0  0  0
   -2.1793    2.8258   10.2845 H   0  0  0  0  0  0  0  0  0  0  0  0
   -2.5558    2.1263   13.5670 C   0  0  0  0  0  0  0  0  0  0  0  0
   -2.2962    2.5900   14.3904 H   0  0  0  0  0  0  0  0  0  0  0  0
   -2.2193    1.2075   13.5910 H   0  0  0  0  0  0  0  0  0  0  0  0
   -3.5323    2.1149   13.4922 H   0  0  0  0  0  0  0  0  0  0  0  0
   -2.3482    4.3355   12.4328 C   0  0  0  0  0  0  0  0  0  0  0  0
   -1.9593    4.8192   11.6754 H   0  0  0  0  0  0  0  0  0  0  0  0
   -2.0125    4.7156   13.2712 H   0  0  0  0  0  0  0  0  0  0  0  0
   -3.3242    4.4155   12.4050 H   0  0  0  0  0  0  0  0  0  0  0  0
    0.2840    6.0920   12.2261 C   0  0  0  0  0  0  0  0  0  0  0  0
    3.3078    8.7256    8.6754 C   0  0  0  0  0  0  0  0  0  0  0  0
    1.6527    8.6916    8.6565 C   0  0  0  0  0  0  0  0  0  0  0  0
    1.1155    7.8986    8.0782 H   0  0  0  0  0  0  0  0  0  0  0  0
    5.8878    7.0155    8.3361 C   0  0  0  0  0  0  0  0  0  0  0  0
    6.5057    8.3437    7.8535 C   0  0  0  0  0  0  0  0  0  0  0  0
    6.3276    9.0453    8.5142 H   0  0  0  0  0  0  0  0  0  0  0  0
    6.1085    8.5952    6.9939 H   0  0  0  0  0  0  0  0  0  0  0  0
    7.4736    8.2344    7.7468 H   0  0  0  0  0  0  0  0  0  0  0  0
    6.4706    5.8402    7.5269 C   0  0  0  0  0  0  0  0  0  0  0  0
    7.4432    5.8123    7.6465 H   0  0  0  0  0  0  0  0  0  0  0  0
    6.2621    5.9623    6.5768 H   0  0  0  0  0  0  0  0  0  0  0  0
    6.0778    4.9978    7.8427 H   0  0  0  0  0  0  0  0  0  0  0  0
    6.3354    6.7593    9.7791 C   0  0  0  0  0  0  0  0  0  0  0  0
    5.9342    5.9266   10.1028 H   0  0  0  0  0  0  0  0  0  0  0  0
    6.0454    7.5020   10.3484 H   0  0  0  0  0  0  0  0  0  0  0  0
    7.3120    6.6840    9.8092 H   0  0  0  0  0  0  0  0  0  0  0  0
    3.4236    6.5593    6.4734 C   0  0  0  0  0  0  0  0  0  0  0  0
    4.2090    7.3631    5.4190 C   0  0  0  0  0  0  0  0  0  0  0  0
    5.1678    7.1948    5.5274 H   0  0  0  0  0  0  0  0  0  0  0  0
    4.0313    8.3201    5.5376 H   0  0  0  0  0  0  0  0  0  0  0  0
    3.9273    7.0876    4.5216 H   0  0  0  0  0  0  0  0  0  0  0  0
    3.6085    5.0396    6.3304 C   0  0  0  0  0  0  0  0  0  0  0  0
    3.2610    4.7477    5.4620 H   0  0  0  0  0  0  0  0  0  0  0  0
    3.1209    4.5834    7.0477 H   0  0  0  0  0  0  0  0  0  0  0  0
    4.5613    4.8192    6.3907 H   0  0  0  0  0  0  0  0  0  0  0  0
    1.9311    6.8222    6.1704 C   0  0  0  0  0  0  0  0  0  0  0  0
    1.7157    6.4875    5.2759 H   0  0  0  0  0  0  0  0  0  0  0  0
    1.7546    7.7843    6.2090 H   0  0  0  0  0  0  0  0  0  0  0  0
    1.3771    6.3624    6.8340 H   0  0  0  0  0  0  0  0  0  0  0  0
    3.7893    6.5532   11.6283 C   0  0  0  0  0  0  0  0  0  0  0  0
  1  2  1  0  0  0  0
  2  3  1  0  0  0  0
  3  1  1  0  0  0  0
  4  1  1  0  0  0  0
  5 76  3  0  0  0  0
  6106  3  0  0  0  0
  7  1  1  0  0  0  0
  8  2  1  0  0  0  0
  9  1  1  0  0  0  0
 10  9  1  0  0  0  0
 11 10  1  0  0  0  0
 12  9  1  0  0  0  0
 13 12  1  0  0  0  0
 14  9  1  0  0  0  0
 15 14  1  0  0  0  0
 16 14  1  0  0  0  0
 17 16  1  0  0  0  0
 18 16  1  0  0  0  0
 19 18  1  0  0  0  0
 20 10  1  0  0  0  0
 21 20  1  0  0  0  0
 22 10  1  0  0  0  0
 23 22  1  0  0  0  0
 24 12  1  0  0  0  0
 25 24  1  0  0  0  0
 26 16  1  0  0  0  0
 27 26  1  0  0  0  0
 28  2  1  0  0  0  0
 29 28  8  0  0  0  0
 30 29  1  0  0  0  0
 31 28  1  0  0  0  0
 32 31  1  0  0  0  0
 33 28  1  0  0  0  0
 34 33  1  0  0  0  0
 35 33  1  0  0  0  0
 36 35  1  0  0  0  0
 37 35  1  0  0  0  0
 38 37  1  0  0  0  0
 39 29  1  0  0  0  0
 40 39  1  0  0  0  0
 41 29  1  0  0  0  0
 42 41  1  0  0  0  0
 43 31  1  0  0  0  0
 44 43  1  0  0  0  0
 45 35  1  0  0  0  0
 46 45  1  0  0  0  0
 47  7  1  0  0  0  0
 48  9  1  0  0  0  0
 49 48  1  0  0  0  0
 50  7  1  0  0  0  0
 51 50  1  0  0  0  0
 52 51  1  0  0  0  0
 53 51  1  0  0  0  0
 54 51  1  0  0  0  0
 55 50  1  0  0  0  0
 56 55  1  0  0  0  0
 57 55  1  0  0  0  0
 58 55  1  0  0  0  0
 59 50  1  0  0  0  0
 60 59  1  0  0  0  0
 61 59  1  0  0  0  0
 62 59  1  0  0  0  0
 63  7  1  0  0  0  0
 64 63  1  0  0  0  0
 65 64  1  0  0  0  0
 66 64  1  0  0  0  0
 67 64  1  0  0  0  0
 68 63  1  0  0  0  0
 69 68  1  0  0  0  0
 70 68  1  0  0  0  0
 71 68  1  0  0  0  0
 72 63  1  0  0  0  0
 73 72  1  0  0  0  0
 74 72  1  0  0  0  0
 75 72  1  0  0  0  0
 76  1  1  0  0  0  0
 77  8  1  0  0  0  0
 78 28  1  0  0  0  0
 79 78  1  0  0  0  0
 80  8  1  0  0  0  0
 81 80  1  0  0  0  0
 82 81  1  0  0  0  0
 83 81  1  0  0  0  0
 84 81  1  0  0  0  0
 85 80  1  0  0  0  0
 86 85  1  0  0  0  0
 87 85  1  0  0  0  0
 88 85  1  0  0  0  0
 89 80  1  0  0  0  0
 90 89  1  0  0  0  0
 91 89  1  0  0  0  0
 92 89  1  0  0  0  0
 93  8  1  0  0  0  0
 94 93  1  0  0  0  0
 95 94  1  0  0  0  0
 96 94  1  0  0  0  0
 97 94  1  0  0  0  0
 98 93  1  0  0  0  0
 99 98  1  0  0  0  0
100 98  1  0  0  0  0
101 98  1  0  0  0  0
102 93  1  0  0  0  0
103102  1  0  0  0  0
104102  1  0  0  0  0
105102  1  0  0  0  0
106  2  1  0  0  0  0
  2  4  1  0  0  0  0
  9 47  1  0  0  0  0
 10 12  1  0  0  0  0
 10 48  1  0  0  0  0
 12 14  1  0  0  0  0
 12 22  1  0  0  0  0
 14 24  1  0  0  0  0
 14 47  1  0  0  0  0
 16 24  1  0  0  0  0
 16 47  1  0  0  0  0
 18 20  1  0  0  0  0
 18 26  1  0  0  0  0
 18 47  1  0  0  0  0
 18 48  1  0  0  0  0
 20 22  1  0  0  0  0
 20 26  1  0  0  0  0
 20 48  1  0  0  0  0
 22 24  1  0  0  0  0
 22 26  1  0  0  0  0
 24 26  1  0  0  0  0
 28 77  1  0  0  0  0
 29 31  1  0  0  0  0
 29 78  1  0  0  0  0
 31 33  1  0  0  0  0
 31 41  1  0  0  0  0
 33 43  1  0  0  0  0
 33 77  1  0  0  0  0
 35 43  1  0  0  0  0
 35 77  1  0  0  0  0
 37 39  1  0  0  0  0
 37 45  1  0  0  0  0
 37 77  1  0  0  0  0
 37 78  1  0  0  0  0
 39 41  1  0  0  0  0
 39 45  1  0  0  0  0
 39 78  1  0  0  0  0
 41 43  1  0  0  0  0
 41 45  1  0  0  0  0
 43 45  1  0  0  0  0
 47 48  1  0  0  0  0
 77 78  1  0  0  0  0
M  END
$$$$
VEKJIG

From CSD data. Using bond type 'Any'. No disordered atoms. Largest molecule.
106147  0  0  0  0  0  0  0  0999 V2000
    5.5692    5.4079    0.4891 Rh  0  0  0  0  0  0  0  0  0  0  0  0
    3.9161    4.0003    1.8866 Rh  0  0  0  0  0  0  0  0  0  0  0  0
    7.1388    6.1042    2.9042 O   0  0  0  0  0  0  0  0  0  0  0  0
    2.6806    6.4586    3.0249 O   0  0  0  0  0  0  0  0  0  0  0  0
    6.8542    6.2881   -1.3513 P   0  0  0  0  0  0  0  0  0  0  0  0
    2.5782    2.1385    2.6547 P   0  0  0  0  0  0  0  0  0  0  0  0
    3.4805    4.6821   -0.5490 Cl  0  0  0  0  0  0  0  0  0  0  0  0
    5.8069    2.8864    0.8045 Cl  0  0  0  0  0  0  0  0  0  0  0  0
    5.2438    7.4628    0.4360 B   0  0  0  0  0  0  0  0  0  0  0  0
    3.7869    8.4767    0.4161 B   0  0  0  0  0  0  0  0  0  0  0  0
    2.8155    8.0878    0.8152 H   0  0  0  0  0  0  0  0  0  0  0  0
    5.1294    8.8989    1.4698 B   0  0  0  0  0  0  0  0  0  0  0  0
    5.0622    8.7992    2.5832 H   0  0  0  0  0  0  0  0  0  0  0  0
    6.6126    8.5831    0.5539 B   0  0  0  0  0  0  0  0  0  0  0  0
    7.5508    8.2573    1.0722 H   0  0  0  0  0  0  0  0  0  0  0  0
    6.7150    9.6369   -0.8634 B   0  0  0  0  0  0  0  0  0  0  0  0
    7.6909   10.0025   -1.2739 H   0  0  0  0  0  0  0  0  0  0  0  0
    5.3541    9.2147   -1.9300 B   0  0  0  0  0  0  0  0  0  0  0  0
    5.4206    9.2878   -3.0448 H   0  0  0  0  0  0  0  0  0  0  0  0
    3.8442    9.5371   -1.0154 B   0  0  0  0  0  0  0  0  0  0  0  0
    2.9034    9.8396   -1.5423 H   0  0  0  0  0  0  0  0  0  0  0  0
    4.2854   10.1687    0.5780 B   0  0  0  0  0  0  0  0  0  0  0  0
    3.6514   10.9200    1.1162 H   0  0  0  0  0  0  0  0  0  0  0  0
    6.0285   10.2385    0.6660 B   0  0  0  0  0  0  0  0  0  0  0  0
    6.5547   11.0264    1.2625 H   0  0  0  0  0  0  0  0  0  0  0  0
    5.2313   10.6275   -0.8776 B   0  0  0  0  0  0  0  0  0  0  0  0
    5.2141   11.6613   -1.3051 H   0  0  0  0  0  0  0  0  0  0  0  0
    4.4599    3.6234    3.8684 B   0  0  0  0  0  0  0  0  0  0  0  0
    6.0030    3.3940    4.7106 B   0  0  0  0  0  0  0  0  0  0  0  0
    6.9516    3.8162    4.2902 H   0  0  0  0  0  0  0  0  0  0  0  0
    4.7619    4.4411    5.4206 B   0  0  0  0  0  0  0  0  0  0  0  0
    4.8685    5.5547    5.4746 H   0  0  0  0  0  0  0  0  0  0  0  0
    3.2209    3.6201    5.1707 B   0  0  0  0  0  0  0  0  0  0  0  0
    2.2758    4.2084    5.0471 H   0  0  0  0  0  0  0  0  0  0  0  0
    3.1535    2.0677    6.0185 B   0  0  0  0  0  0  0  0  0  0  0  0
    2.2155    1.6289    6.4460 H   0  0  0  0  0  0  0  0  0  0  0  0
    4.3840    1.0338    5.2758 B   0  0  0  0  0  0  0  0  0  0  0  0
    4.2534   -0.0765    5.2019 H   0  0  0  0  0  0  0  0  0  0  0  0
    5.9801    1.7884    5.5300 B   0  0  0  0  0  0  0  0  0  0  0  0
    6.9029    1.1635    5.6280 H   0  0  0  0  0  0  0  0  0  0  0  0
    5.7137    3.3043    6.4318 B   0  0  0  0  0  0  0  0  0  0  0  0
    6.4753    3.6832    7.1617 H   0  0  0  0  0  0  0  0  0  0  0  0
    3.9658    3.4871    6.7172 B   0  0  0  0  0  0  0  0  0  0  0  0
    3.5561    3.9957    7.6261 H   0  0  0  0  0  0  0  0  0  0  0  0
    4.7175    1.8748    6.8024 B   0  0  0  0  0  0  0  0  0  0  0  0
    4.8180    1.3230    7.7724 H   0  0  0  0  0  0  0  0  0  0  0  0
    6.1681    8.0053   -0.9699 C   0  0  0  0  0  0  0  0  0  0  0  0
    4.5128    7.9881   -1.0466 C   0  0  0  0  0  0  0  0  0  0  0  0
    3.9913    7.2069   -1.6559 H   0  0  0  0  0  0  0  0  0  0  0  0
    6.4052    5.8273   -3.1484 C   0  0  0  0  0  0  0  0  0  0  0  0
    4.9353    6.0800   -3.4850 C   0  0  0  0  0  0  0  0  0  0  0  0
    4.7563    5.7941   -4.4038 H   0  0  0  0  0  0  0  0  0  0  0  0
    4.7412    7.0373   -3.3984 H   0  0  0  0  0  0  0  0  0  0  0  0
    4.3667    5.5747   -2.8672 H   0  0  0  0  0  0  0  0  0  0  0  0
    6.6051    4.3215   -3.2819 C   0  0  0  0  0  0  0  0  0  0  0  0
    6.2113    4.0156   -4.1241 H   0  0  0  0  0  0  0  0  0  0  0  0
    6.1684    3.8660   -2.5321 H   0  0  0  0  0  0  0  0  0  0  0  0
    7.5631    4.1187   -3.2748 H   0  0  0  0  0  0  0  0  0  0  0  0
    7.1707    6.6484   -4.1794 C   0  0  0  0  0  0  0  0  0  0  0  0
    8.1287    6.4523   -4.1056 H   0  0  0  0  0  0  0  0  0  0  0  0
    7.0182    7.6024   -4.0147 H   0  0  0  0  0  0  0  0  0  0  0  0
    6.8582    6.4190   -5.0784 H   0  0  0  0  0  0  0  0  0  0  0  0
    8.7720    6.3027   -1.1872 C   0  0  0  0  0  0  0  0  0  0  0  0
    9.3647    5.1193   -1.9456 C   0  0  0  0  0  0  0  0  0  0  0  0
   10.3415    5.1957   -1.9555 H   0  0  0  0  0  0  0  0  0  0  0  0
    9.0274    5.1193   -2.8658 H   0  0  0  0  0  0  0  0  0  0  0  0
    9.1067    4.2849   -1.5025 H   0  0  0  0  0  0  0  0  0  0  0  0
    9.4051    7.6024   -1.7255 C   0  0  0  0  0  0  0  0  0  0  0  0
    9.1603    8.3504   -1.1404 H   0  0  0  0  0  0  0  0  0  0  0  0
    9.0753    7.7753   -2.6315 H   0  0  0  0  0  0  0  0  0  0  0  0
   10.3793    7.5060   -1.7439 H   0  0  0  0  0  0  0  0  0  0  0  0
    9.1760    6.1199    0.2244 C   0  0  0  0  0  0  0  0  0  0  0  0
    8.6821    5.3653    0.6107 H   0  0  0  0  0  0  0  0  0  0  0  0
    8.9763    6.9343    0.7299 H   0  0  0  0  0  0  0  0  0  0  0  0
   10.1376    5.9337    0.2670 H   0  0  0  0  0  0  0  0  0  0  0  0
    6.5610    5.8117    1.9726 C   0  0  0  0  0  0  0  0  0  0  0  0
    3.5001    2.2116    4.3002 C   0  0  0  0  0  0  0  0  0  0  0  0
    5.1371    2.0444    4.0772 C   0  0  0  0  0  0  0  0  0  0  0  0
    5.5254    1.5391    3.1570 H   0  0  0  0  0  0  0  0  0  0  0  0
    0.7275    2.4599    2.9539 C   0  0  0  0  0  0  0  0  0  0  0  0
    0.1901    1.8050    4.2363 C   0  0  0  0  0  0  0  0  0  0  0  0
    0.5732    2.2538    5.0187 H   0  0  0  0  0  0  0  0  0  0  0  0
    0.4400    0.8576    4.2490 H   0  0  0  0  0  0  0  0  0  0  0  0
   -0.7869    1.8848    4.2604 H   0  0  0  0  0  0  0  0  0  0  0  0
   -0.0960    1.9812    1.7468 C   0  0  0  0  0  0  0  0  0  0  0  0
   -1.0184    2.3037    1.8320 H   0  0  0  0  0  0  0  0  0  0  0  0
   -0.0927    1.0006    1.7169 H   0  0  0  0  0  0  0  0  0  0  0  0
    0.2977    2.3336    0.9217 H   0  0  0  0  0  0  0  0  0  0  0  0
    0.4362    3.9458    3.0149 C   0  0  0  0  0  0  0  0  0  0  0  0
   -0.5305    4.0854    3.0945 H   0  0  0  0  0  0  0  0  0  0  0  0
    0.7636    4.3780    2.1969 H   0  0  0  0  0  0  0  0  0  0  0  0
    0.8884    4.3348    3.7917 H   0  0  0  0  0  0  0  0  0  0  0  0
    2.7788    0.3996    1.8703 C   0  0  0  0  0  0  0  0  0  0  0  0
    1.9221   -0.6715    2.5605 C   0  0  0  0  0  0  0  0  0  0  0  0
    2.0185   -1.5225    2.0848 H   0  0  0  0  0  0  0  0  0  0  0  0
    0.9819   -0.3956    2.5491 H   0  0  0  0  0  0  0  0  0  0  0  0
    2.2199   -0.7779    3.4878 H   0  0  0  0  0  0  0  0  0  0  0  0
    2.4278    0.5651    0.3778 C   0  0  0  0  0  0  0  0  0  0  0  0
    2.9717    1.2831   -0.0085 H   0  0  0  0  0  0  0  0  0  0  0  0
    1.4788    0.7878    0.2883 H   0  0  0  0  0  0  0  0  0  0  0  0
    2.6113   -0.2759   -0.0951 H   0  0  0  0  0  0  0  0  0  0  0  0
    4.2267   -0.1064    1.9257 C   0  0  0  0  0  0  0  0  0  0  0  0
    4.4631   -0.3191    2.8530 H   0  0  0  0  0  0  0  0  0  0  0  0
    4.8284    0.5851    1.5849 H   0  0  0  0  0  0  0  0  0  0  0  0
    4.3117   -0.9142    1.3761 H   0  0  0  0  0  0  0  0  0  0  0  0
    3.1185    5.4949    2.5875 C   0  0  0  0  0  0  0  0  0  0  0  0
  1  2  1  0  0  0  0
  2  6  1  0  0  0  0
  3 76  3  0  0  0  0
  4106  3  0  0  0  0
  5  1  1  0  0  0  0
  6 77  1  0  0  0  0
  7  1  1  0  0  0  0
  8  1  1  0  0  0  0
  9  1  1  0  0  0  0
 10  9  1  0  0  0  0
 11 10  1  0  0  0  0
 12  9  1  0  0  0  0
 13 12  1  0  0  0  0
 14  9  1  0  0  0  0
 15 14  1  0  0  0  0
 16 14  1  0  0  0  0
 17 16  1  0  0  0  0
 18 16  1  0  0  0  0
 19 18  1  0  0  0  0
 20 10  1  0  0  0  0
 21 20  1  0  0  0  0
 22 10  1  0  0  0  0
 23 22  1  0  0  0  0
 24 12  1  0  0  0  0
 25 24  1  0  0  0  0
 26 16  1  0  0  0  0
 27 26  1  0  0  0  0
 28  2  1  0  0  0  0
 29 28  8  0  0  0  0
 30 29  1  0  0  0  0
 31 28  1  0  0  0  0
 32 31  1  0  0  0  0
 33 28  1  0  0  0  0
 34 33  1  0  0  0  0
 35 33  1  0  0  0  0
 36 35  1  0  0  0  0
 37 35  1  0  0  0  0
 38 37  1  0  0  0  0
 39 29  1  0  0  0  0
 40 39  1  0  0  0  0
 41 29  1  0  0  0  0
 42 41  1  0  0  0  0
 43 31  1  0  0  0  0
 44 43  1  0  0  0  0
 45 35  1  0  0  0  0
 46 45  1  0  0  0  0
 47  5  1  0  0  0  0
 48  9  1  0  0  0  0
 49 48  1  0  0  0  0
 50  5  1  0  0  0  0
 51 50  1  0  0  0  0
 52 51  1  0  0  0  0
 53 51  1  0  0  0  0
 54 51  1  0  0  0  0
 55 50  1  0  0  0  0
 56 55  1  0  0  0  0
 57 55  1  0  0  0  0
 58 55  1  0  0  0  0
 59 50  1  0  0  0  0
 60 59  1  0  0  0  0
 61 59  1  0  0  0  0
 62 59  1  0  0  0  0
 63  5  1  0  0  0  0
 64 63  1  0  0  0  0
 65 64  1  0  0  0  0
 66 64  1  0  0  0  0
 67 64  1  0  0  0  0
 68 63  1  0  0  0  0
 69 68  1  0  0  0  0
 70 68  1  0  0  0  0
 71 68  1  0  0  0  0
 72 63  1  0  0  0  0
 73 72  1  0  0  0  0
 74 72  1  0  0  0  0
 75 72  1  0  0  0  0
 76  1  1  0  0  0  0
 77 28  1  0  0  0  0
 78 28  1  0  0  0  0
 79 78  1  0  0  0  0
 80  6  1  0  0  0  0
 81 80  1  0  0  0  0
 82 81  1  0  0  0  0
 83 81  1  0  0  0  0
 84 81  1  0  0  0  0
 85 80  1  0  0  0  0
 86 85  1  0  0  0  0
 87 85  1  0  0  0  0
 88 85  1  0  0  0  0
 89 80  1  0  0  0  0
 90 89  1  0  0  0  0
 91 89  1  0  0  0  0
 92 89  1  0  0  0  0
 93  6  1  0  0  0  0
 94 93  1  0  0  0  0
 95 94  1  0  0  0  0
 96 94  1  0  0  0  0
 97 94  1  0  0  0  0
 98 93  1  0  0  0  0
 99 98  1  0  0  0  0
100 98  1  0  0  0  0
101 98  1  0  0  0  0
102 93  1  0  0  0  0
103102  1  0  0  0  0
104102  1  0  0  0  0
105102  1  0  0  0  0
106  2  1  0  0  0  0
  2  7  1  0  0  0  0
  2  8  1  0  0  0  0
  9 47  1  0  0  0  0
 10 12  1  0  0  0  0
 10 48  1  0  0  0  0
 12 14  1  0  0  0  0
 12 22  1  0  0  0  0
 14 24  1  0  0  0  0
 14 47  1  0  0  0  0
 16 24  1  0  0  0  0
 16 47  1  0  0  0  0
 18 20  1  0  0  0  0
 18 26  1  0  0  0  0
 18 47  1  0  0  0  0
 18 48  1  0  0  0  0
 20 22  1  0  0  0  0
 20 26  1  0  0  0  0
 20 48  1  0  0  0  0
 22 24  1  0  0  0  0
 22 26  1  0  0  0  0
 24 26  1  0  0  0  0
 29 31  1  0  0  0  0
 29 78  1  0  0  0  0
 31 33  1  0  0  0  0
 31 41  1  0  0  0  0
 33 43  1  0  0  0  0
 33 77  1  0  0  0  0
 35 43  1  0  0  0  0
 35 77  1  0  0  0  0
 37 39  1  0  0  0  0
 37 45  1  0  0  0  0
 37 77  1  0  0  0  0
 37 78  1  0  0  0  0
 39 41  1  0  0  0  0
 39 45  1  0  0  0  0
 39 78  1  0  0  0  0
 41 43  1  0  0  0  0
 41 45  1  0  0  0  0
 43 45  1  0  0  0  0
 47 48  1  0  0  0  0
 77 78  1  0  0  0  0
M  END
$$$$
VEKJOM

From CSD data. Using bond type 'Any'. No disordered atoms. Largest molecule.
106147  0  0  0  0  0  0  0  0999 V2000
   -2.6552   24.6976   13.9239 Rh  0  0  0  0  0  0  0  0  0  0  0  0
   -1.0107   26.4858   13.0826 Rh  0  0  0  0  0  0  0  0  0  0  0  0
   -0.7372   24.0149   12.5062 Cl  0  0  0  0  0  0  0  0  0  0  0  0
   -3.0741   26.0982   11.7969 Cl  0  0  0  0  0  0  0  0  0  0  0  0
   -3.7261   26.6739   15.8698 O   0  0  0  0  0  0  0  0  0  0  0  0
    0.2759   26.4908   15.7708 O   0  0  0  0  0  0  0  0  0  0  0  0
   -4.0588   22.7586   14.1362 P   0  0  0  0  0  0  0  0  0  0  0  0
    0.4031   27.8546   11.7130 P   0  0  0  0  0  0  0  0  0  0  0  0
   -2.0010   23.6323   15.5693 B   0  0  0  0  0  0  0  0  0  0  0  0
   -0.3833   23.0282   16.0087 B   0  0  0  0  0  0  0  0  0  0  0  0
    0.5318   23.5446   15.6214 H   0  0  0  0  0  0  0  0  0  0  0  0
   -1.4200   23.7422   17.2626 B   0  0  0  0  0  0  0  0  0  0  0  0
   -1.1942   24.7381   17.7246 H   0  0  0  0  0  0  0  0  0  0  0  0
   -3.0734   23.1889   16.9674 B   0  0  0  0  0  0  0  0  0  0  0  0
   -3.9553   23.8291   17.2261 H   0  0  0  0  0  0  0  0  0  0  0  0
   -3.1687   21.4183   17.1358 B   0  0  0  0  0  0  0  0  0  0  0  0
   -4.0946   20.9019   17.4971 H   0  0  0  0  0  0  0  0  0  0  0  0
   -2.1305   20.7016   15.8837 B   0  0  0  0  0  0  0  0  0  0  0  0
   -2.3735   19.7188   15.4026 H   0  0  0  0  0  0  0  0  0  0  0  0
   -0.4574   21.2312   16.1876 B   0  0  0  0  0  0  0  0  0  0  0  0
    0.4104   20.5804   15.9132 H   0  0  0  0  0  0  0  0  0  0  0  0
   -0.4535   22.2825   17.6290 B   0  0  0  0  0  0  0  0  0  0  0  0
    0.4186   22.3194   18.3324 H   0  0  0  0  0  0  0  0  0  0  0  0
   -2.1367   22.3958   18.2021 B   0  0  0  0  0  0  0  0  0  0  0  0
   -2.3792   22.5117   19.2893 H   0  0  0  0  0  0  0  0  0  0  0  0
   -1.5314   20.8413   17.5405 B   0  0  0  0  0  0  0  0  0  0  0  0
   -1.3659   19.9375   18.1813 H   0  0  0  0  0  0  0  0  0  0  0  0
   -1.4687   28.4558   13.5201 B   0  0  0  0  0  0  0  0  0  0  0  0
   -0.1867   29.5967   14.0966 B   0  0  0  0  0  0  0  0  0  0  0  0
    0.7115   29.2094   14.6419 H   0  0  0  0  0  0  0  0  0  0  0  0
   -1.7908   29.6196   14.8486 B   0  0  0  0  0  0  0  0  0  0  0  0
   -1.9625   29.2515   15.8924 H   0  0  0  0  0  0  0  0  0  0  0  0
   -3.0012   29.3938   13.5652 B   0  0  0  0  0  0  0  0  0  0  0  0
   -3.9781   28.8721   13.7406 H   0  0  0  0  0  0  0  0  0  0  0  0
   -2.8470   30.7876   12.4346 B   0  0  0  0  0  0  0  0  0  0  0  0
   -3.7342   31.1697   11.8667 H   0  0  0  0  0  0  0  0  0  0  0  0
   -1.2257   30.7505   11.6757 B   0  0  0  0  0  0  0  0  0  0  0  0
   -1.0362   31.0854   10.6233 H   0  0  0  0  0  0  0  0  0  0  0  0
   -0.0427   30.9668   12.9591 B   0  0  0  0  0  0  0  0  0  0  0  0
    0.9399   31.4648   12.7542 H   0  0  0  0  0  0  0  0  0  0  0  0
   -0.9280   31.1512   14.5100 B   0  0  0  0  0  0  0  0  0  0  0  0
   -0.5346   31.7915   15.3401 H   0  0  0  0  0  0  0  0  0  0  0  0
   -2.6543   31.0432   14.1852 B   0  0  0  0  0  0  0  0  0  0  0  0
   -3.4054   31.6097   14.7930 H   0  0  0  0  0  0  0  0  0  0  0  0
   -1.5727   31.8890   13.0147 B   0  0  0  0  0  0  0  0  0  0  0  0
   -1.6123   32.9956   12.8566 H   0  0  0  0  0  0  0  0  0  0  0  0
   -3.0029   22.1568   15.5832 C   0  0  0  0  0  0  0  0  0  0  0  0
   -1.4165   22.0686   15.1074 C   0  0  0  0  0  0  0  0  0  0  0  0
   -1.1630   21.9505   14.0237 H   0  0  0  0  0  0  0  0  0  0  0  0
   -5.8667   22.9781   14.7461 C   0  0  0  0  0  0  0  0  0  0  0  0
   -6.0413   24.3408   15.4182 C   0  0  0  0  0  0  0  0  0  0  0  0
   -5.8316   25.0517   14.7774 H   0  0  0  0  0  0  0  0  0  0  0  0
   -5.4366   24.4062   16.1876 H   0  0  0  0  0  0  0  0  0  0  0  0
   -6.9679   24.4378   15.7222 H   0  0  0  0  0  0  0  0  0  0  0  0
   -6.8055   23.0308   13.5374 C   0  0  0  0  0  0  0  0  0  0  0  0
   -7.7031   23.2916   13.8309 H   0  0  0  0  0  0  0  0  0  0  0  0
   -6.8426   22.1481   13.1137 H   0  0  0  0  0  0  0  0  0  0  0  0
   -6.4699   23.6869   12.8914 H   0  0  0  0  0  0  0  0  0  0  0  0
   -6.2949   21.8688   15.7170 C   0  0  0  0  0  0  0  0  0  0  0  0
   -5.8328   21.9848   16.5731 H   0  0  0  0  0  0  0  0  0  0  0  0
   -6.0620   20.9941   15.3366 H   0  0  0  0  0  0  0  0  0  0  0  0
   -7.2633   21.9136   15.8594 H   0  0  0  0  0  0  0  0  0  0  0  0
   -4.0478   21.4533   12.7351 C   0  0  0  0  0  0  0  0  0  0  0  0
   -2.6299   20.9880   12.3999 C   0  0  0  0  0  0  0  0  0  0  0  0
   -2.6528   20.4197   11.6028 H   0  0  0  0  0  0  0  0  0  0  0  0
   -2.2662   20.4803   13.1536 H   0  0  0  0  0  0  0  0  0  0  0  0
   -2.0614   21.7687   12.2280 H   0  0  0  0  0  0  0  0  0  0  0  0
   -4.5119   22.1929   11.4690 C   0  0  0  0  0  0  0  0  0  0  0  0
   -3.9674   22.9992   11.3423 H   0  0  0  0  0  0  0  0  0  0  0  0
   -5.4529   22.4459   11.5646 H   0  0  0  0  0  0  0  0  0  0  0  0
   -4.4104   21.6054   10.6910 H   0  0  0  0  0  0  0  0  0  0  0  0
   -4.8861   20.1923   13.0355 C   0  0  0  0  0  0  0  0  0  0  0  0
   -4.8297   19.5739   12.2783 H   0  0  0  0  0  0  0  0  0  0  0  0
   -5.8205   20.4487   13.1797 H   0  0  0  0  0  0  0  0  0  0  0  0
   -4.5392   19.7531   13.8413 H   0  0  0  0  0  0  0  0  0  0  0  0
   -3.3609   25.9130   15.1282 C   0  0  0  0  0  0  0  0  0  0  0  0
   -0.4522   29.3975   12.4155 C   0  0  0  0  0  0  0  0  0  0  0  0
   -2.0802   29.3237   12.1550 C   0  0  0  0  0  0  0  0  0  0  0  0
   -2.4897   28.6903   11.3266 H   0  0  0  0  0  0  0  0  0  0  0  0
    0.2173   27.8353    9.8192 C   0  0  0  0  0  0  0  0  0  0  0  0
    1.1193   28.8432    9.0967 C   0  0  0  0  0  0  0  0  0  0  0  0
    0.9521   28.7984    8.1311 H   0  0  0  0  0  0  0  0  0  0  0  0
    2.0587   28.6297    9.2756 H   0  0  0  0  0  0  0  0  0  0  0  0
    0.9234   29.7469    9.4180 H   0  0  0  0  0  0  0  0  0  0  0  0
    0.5023   26.3815    9.3694 C   0  0  0  0  0  0  0  0  0  0  0  0
    0.3159   26.2927    8.4107 H   0  0  0  0  0  0  0  0  0  0  0  0
   -0.0705   25.7657    9.8713 H   0  0  0  0  0  0  0  0  0  0  0  0
    1.4437   26.1662    9.5396 H   0  0  0  0  0  0  0  0  0  0  0  0
   -1.2197   28.1191    9.3624 C   0  0  0  0  0  0  0  0  0  0  0  0
   -1.4573   29.0434    9.5865 H   0  0  0  0  0  0  0  0  0  0  0  0
   -1.8339   27.5047    9.8175 H   0  0  0  0  0  0  0  0  0  0  0  0
   -1.2868   27.9895    8.3934 H   0  0  0  0  0  0  0  0  0  0  0  0
    2.2780   27.9189   12.1307 C   0  0  0  0  0  0  0  0  0  0  0  0
    2.5422   27.3492   13.5374 C   0  0  0  0  0  0  0  0  0  0  0  0
    3.5081   27.3123   13.6989 H   0  0  0  0  0  0  0  0  0  0  0  0
    2.1655   26.4455   13.5999 H   0  0  0  0  0  0  0  0  0  0  0  0
    2.1201   27.9236   14.2095 H   0  0  0  0  0  0  0  0  0  0  0  0
    2.8646   29.3306   12.0473 C   0  0  0  0  0  0  0  0  0  0  0  0
    2.5903   29.8470   12.8341 H   0  0  0  0  0  0  0  0  0  0  0  0
    2.5366   29.7732   11.2363 H   0  0  0  0  0  0  0  0  0  0  0  0
    3.8421   29.2753   12.0161 H   0  0  0  0  0  0  0  0  0  0  0  0
    3.0458   26.9619   11.1912 C   0  0  0  0  0  0  0  0  0  0  0  0
    2.9762   27.2834   10.2673 H   0  0  0  0  0  0  0  0  0  0  0  0
    2.6607   26.0634   11.2519 H   0  0  0  0  0  0  0  0  0  0  0  0
    3.9894   26.9303   11.4551 H   0  0  0  0  0  0  0  0  0  0  0  0
   -0.1701   26.4739   14.7270 C   0  0  0  0  0  0  0  0  0  0  0  0
  1  2  1  0  0  0  0
  2  3  1  0  0  0  0
  3  1  1  0  0  0  0
  4  1  1  0  0  0  0
  5 76  3  0  0  0  0
  6106  3  0  0  0  0
  7  1  1  0  0  0  0
  8  2  1  0  0  0  0
  9  1  1  0  0  0  0
 10  9  1  0  0  0  0
 11 10  1  0  0  0  0
 12  9  1  0  0  0  0
 13 12  1  0  0  0  0
 14  9  1  0  0  0  0
 15 14  1  0  0  0  0
 16 14  1  0  0  0  0
 17 16  1  0  0  0  0
 18 16  1  0  0  0  0
 19 18  1  0  0  0  0
 20 10  1  0  0  0  0
 21 20  1  0  0  0  0
 22 10  1  0  0  0  0
 23 22  1  0  0  0  0
 24 12  1  0  0  0  0
 25 24  1  0  0  0  0
 26 16  1  0  0  0  0
 27 26  1  0  0  0  0
 28  2  1  0  0  0  0
 29 28  1  0  0  0  0
 30 29  1  0  0  0  0
 31 28  1  0  0  0  0
 32 31  1  0  0  0  0
 33 28  8  0  0  0  0
 34 33  1  0  0  0  0
 35 33  1  0  0  0  0
 36 35  1  0  0  0  0
 37 35  1  0  0  0  0
 38 37  1  0  0  0  0
 39 29  1  0  0  0  0
 40 39  1  0  0  0  0
 41 29  1  0  0  0  0
 42 41  1  0  0  0  0
 43 31  1  0  0  0  0
 44 43  1  0  0  0  0
 45 35  1  0  0  0  0
 46 45  1  0  0  0  0
 47  7  1  0  0  0  0
 48  9  1  0  0  0  0
 49 48  1  0  0  0  0
 50  7  1  0  0  0  0
 51 50  1  0  0  0  0
 52 51  1  0  0  0  0
 53 51  1  0  0  0  0
 54 51  1  0  0  0  0
 55 50  1  0  0  0  0
 56 55  1  0  0  0  0
 57 55  1  0  0  0  0
 58 55  1  0  0  0  0
 59 50  1  0  0  0  0
 60 59  1  0  0  0  0
 61 59  1  0  0  0  0
 62 59  1  0  0  0  0
 63  7  1  0  0  0  0
 64 63  1  0  0  0  0
 65 64  1  0  0  0  0
 66 64  1  0  0  0  0
 67 64  1  0  0  0  0
 68 63  1  0  0  0  0
 69 68  1  0  0  0  0
 70 68  1  0  0  0  0
 71 68  1  0  0  0  0
 72 63  1  0  0  0  0
 73 72  1  0  0  0  0
 74 72  1  0  0  0  0
 75 72  1  0  0  0  0
 76  1  1  0  0  0  0
 77  8  1  0  0  0  0
 78 28  1  0  0  0  0
 79 78  1  0  0  0  0
 80  8  1  0  0  0  0
 81 80  1  0  0  0  0
 82 81  1  0  0  0  0
 83 81  1  0  0  0  0
 84 81  1  0  0  0  0
 85 80  1  0  0  0  0
 86 85  1  0  0  0  0
 87 85  1  0  0  0  0
 88 85  1  0  0  0  0
 89 80  1  0  0  0  0
 90 89  1  0  0  0  0
 91 89  1  0  0  0  0
 92 89  1  0  0  0  0
 93  8  1  0  0  0  0
 94 93  1  0  0  0  0
 95 94  1  0  0  0  0
 96 94  1  0  0  0  0
 97 94  1  0  0  0  0
 98 93  1  0  0  0  0
 99 98  1  0  0  0  0
100 98  1  0  0  0  0
101 98  1  0  0  0  0
102 93  1  0  0  0  0
103102  1  0  0  0  0
104102  1  0  0  0  0
105102  1  0  0  0  0
106  2  1  0  0  0  0
  2  4  1  0  0  0  0
  9 47  1  0  0  0  0
 10 12  1  0  0  0  0
 10 48  1  0  0  0  0
 12 14  1  0  0  0  0
 12 22  1  0  0  0  0
 14 24  1  0  0  0  0
 14 47  1  0  0  0  0
 16 24  1  0  0  0  0
 16 47  1  0  0  0  0
 18 20  1  0  0  0  0
 18 26  1  0  0  0  0
 18 47  1  0  0  0  0
 18 48  1  0  0  0  0
 20 22  1  0  0  0  0
 20 26  1  0  0  0  0
 20 48  1  0  0  0  0
 22 24  1  0  0  0  0
 22 26  1  0  0  0  0
 24 26  1  0  0  0  0
 28 77  1  0  0  0  0
 29 31  1  0  0  0  0
 29 77  1  0  0  0  0
 31 33  1  0  0  0  0
 31 41  1  0  0  0  0
 33 43  1  0  0  0  0
 33 78  1  0  0  0  0
 35 43  1  0  0  0  0
 35 78  1  0  0  0  0
 37 39  1  0  0  0  0
 37 45  1  0  0  0  0
 37 77  1  0  0  0  0
 37 78  1  0  0  0  0
 39 41  1  0  0  0  0
 39 45  1  0  0  0  0
 39 77  1  0  0  0  0
 41 43  1  0  0  0  0
 41 45  1  0  0  0  0
 43 45  1  0  0  0  0
 47 48  1  0  0  0  0
 77 78  1  0  0  0  0
M  END
$$$$
VEVDIN

From CSD data. Using bond type 'Any'. No disordered atoms. Largest molecule.
 82 84  0  0  0  0  0  0  0  0999 V2000
    3.2936    6.4738    7.4272 P   0  0  0  0  0  0  0  0  0  0  0  0
    2.6478    1.7579   12.5948 P   0  0  0  0  0  0  0  0  0  0  0  0
   -0.9999    4.1793   10.7856 O   0  0  0  0  0  0  0  0  0  0  0  0
   -0.4550    5.7553    9.2212 O   0  0  0  0  0  0  0  0  0  0  0  0
    2.1512    4.0446    8.2602 N   0  0  0  0  0  0  0  0  0  0  0  0
    1.8949    2.5832   10.0004 N   0  0  0  0  0  0  0  0  0  0  0  0
    3.1712    3.0999    8.1891 C   0  0  0  0  0  0  0  0  0  0  0  0
    4.1914    2.9315    7.2584 C   0  0  0  0  0  0  0  0  0  0  0  0
    4.2952    3.5343    6.5315 H   0  0  0  0  0  0  0  0  0  0  0  0
    5.0548    1.8540    7.4244 C   0  0  0  0  0  0  0  0  0  0  0  0
    5.7627    1.7232    6.8044 H   0  0  0  0  0  0  0  0  0  0  0  0
    4.8999    0.9639    8.4832 C   0  0  0  0  0  0  0  0  0  0  0  0
    5.5041    0.2362    8.5718 H   0  0  0  0  0  0  0  0  0  0  0  0
    3.8773    1.1185    9.4150 C   0  0  0  0  0  0  0  0  0  0  0  0
    3.7721    0.5051   10.1328 H   0  0  0  0  0  0  0  0  0  0  0  0
    3.0145    2.1983    9.2627 C   0  0  0  0  0  0  0  0  0  0  0  0
    2.0128    5.1110    7.2743 C   0  0  0  0  0  0  0  0  0  0  0  0
    1.1117    5.5111    7.3641 H   0  0  0  0  0  0  0  0  0  0  0  0
    2.0763    4.7162    6.3687 H   0  0  0  0  0  0  0  0  0  0  0  0
    1.4391    1.8365   11.1662 C   0  0  0  0  0  0  0  0  0  0  0  0
    1.2295    0.9114   10.8826 H   0  0  0  0  0  0  0  0  0  0  0  0
    0.5979    2.2457   11.4903 H   0  0  0  0  0  0  0  0  0  0  0  0
    2.4995    7.5795    8.7032 C   0  0  0  0  0  0  0  0  0  0  0  0
    1.5100    7.5848    8.5590 H   0  0  0  0  0  0  0  0  0  0  0  0
    2.7969    7.0252   10.0984 C   0  0  0  0  0  0  0  0  0  0  0  0
    2.4862    6.0974   10.1544 H   0  0  0  0  0  0  0  0  0  0  0  0
    2.3325    7.5663   10.7707 H   0  0  0  0  0  0  0  0  0  0  0  0
    3.7623    7.0570   10.2636 H   0  0  0  0  0  0  0  0  0  0  0  0
    3.0255    9.0135    8.6023 C   0  0  0  0  0  0  0  0  0  0  0  0
    4.0055    9.0044    8.6258 H   0  0  0  0  0  0  0  0  0  0  0  0
    2.6858    9.5401    9.3557 H   0  0  0  0  0  0  0  0  0  0  0  0
    2.7230    9.4142    7.7607 H   0  0  0  0  0  0  0  0  0  0  0  0
    2.9307    7.3735    5.8366 C   0  0  0  0  0  0  0  0  0  0  0  0
    3.3959    8.2568    5.8946 H   0  0  0  0  0  0  0  0  0  0  0  0
    1.4582    7.6720    5.5594 C   0  0  0  0  0  0  0  0  0  0  0  0
    0.9639    6.8297    5.4780 H   0  0  0  0  0  0  0  0  0  0  0  0
    1.3792    8.1792    4.7246 H   0  0  0  0  0  0  0  0  0  0  0  0
    1.0870    8.1984    6.2979 H   0  0  0  0  0  0  0  0  0  0  0  0
    3.5750    6.6135    4.6718 C   0  0  0  0  0  0  0  0  0  0  0  0
    4.5265    6.4732    4.8598 H   0  0  0  0  0  0  0  0  0  0  0  0
    3.4783    7.1355    3.8479 H   0  0  0  0  0  0  0  0  0  0  0  0
    3.1321    5.7462    4.5628 H   0  0  0  0  0  0  0  0  0  0  0  0
    1.8890    0.2791   13.4320 C   0  0  0  0  0  0  0  0  0  0  0  0
    0.8932    0.3524   13.3758 H   0  0  0  0  0  0  0  0  0  0  0  0
    2.3344   -0.9916   12.6933 C   0  0  0  0  0  0  0  0  0  0  0  0
    2.0698   -0.9320   11.7517 H   0  0  0  0  0  0  0  0  0  0  0  0
    1.9093   -1.7737   13.1032 H   0  0  0  0  0  0  0  0  0  0  0  0
    3.3086   -1.0802   12.7539 H   0  0  0  0  0  0  0  0  0  0  0  0
    2.2953    0.1848   14.9060 C   0  0  0  0  0  0  0  0  0  0  0  0
    3.2684    0.0893   14.9712 H   0  0  0  0  0  0  0  0  0  0  0  0
    1.8626   -0.5937   15.3150 H   0  0  0  0  0  0  0  0  0  0  0  0
    2.0147    0.9983   15.3749 H   0  0  0  0  0  0  0  0  0  0  0  0
    2.1177    3.1836   13.6690 C   0  0  0  0  0  0  0  0  0  0  0  0
    2.6483    3.1152   14.5139 H   0  0  0  0  0  0  0  0  0  0  0  0
    0.6489    3.2393   14.0831 C   0  0  0  0  0  0  0  0  0  0  0  0
    0.0947    3.4248   13.2964 H   0  0  0  0  0  0  0  0  0  0  0  0
    0.5232    3.9499   14.7462 H   0  0  0  0  0  0  0  0  0  0  0  0
    0.3864    2.3791   14.4722 H   0  0  0  0  0  0  0  0  0  0  0  0
    2.5340    4.4958   12.9995 C   0  0  0  0  0  0  0  0  0  0  0  0
    3.4835    4.4537   12.7606 H   0  0  0  0  0  0  0  0  0  0  0  0
    2.3858    5.2402   13.6194 H   0  0  0  0  0  0  0  0  0  0  0  0
    1.9992    4.6334   12.1899 H   0  0  0  0  0  0  0  0  0  0  0  0
   -1.5531    6.3236    9.9967 C   0  0  0  0  0  0  0  0  0  0  0  0
   -3.1736    4.3348    9.7849 C   0  0  0  0  0  0  0  0  0  0  0  0
   -2.7772    4.1712    8.9038 H   0  0  0  0  0  0  0  0  0  0  0  0
   -3.9779    4.8855    9.6843 H   0  0  0  0  0  0  0  0  0  0  0  0
   -3.4130    3.4795   10.1993 H   0  0  0  0  0  0  0  0  0  0  0  0
   -2.7516    5.2958   12.0470 C   0  0  0  0  0  0  0  0  0  0  0  0
   -3.1624    4.4679   12.3732 H   0  0  0  0  0  0  0  0  0  0  0  0
   -3.4307    6.0008   11.9996 H   0  0  0  0  0  0  0  0  0  0  0  0
   -2.0382    5.5700   12.6604 H   0  0  0  0  0  0  0  0  0  0  0  0
   -2.4761    7.0694    9.0513 C   0  0  0  0  0  0  0  0  0  0  0  0
   -1.9786    7.7880    8.6081 H   0  0  0  0  0  0  0  0  0  0  0  0
   -3.2222    7.4528    9.5579 H   0  0  0  0  0  0  0  0  0  0  0  0
   -2.8238    6.4489    8.3770 H   0  0  0  0  0  0  0  0  0  0  0  0
   -0.9137    7.2912   10.9886 C   0  0  0  0  0  0  0  0  0  0  0  0
   -0.3141    6.7976   11.5861 H   0  0  0  0  0  0  0  0  0  0  0  0
   -1.6143    7.7280   11.5167 H   0  0  0  0  0  0  0  0  0  0  0  0
   -0.4024    7.9695   10.4999 H   0  0  0  0  0  0  0  0  0  0  0  0
   -2.1687    5.0612   10.6659 C   0  0  0  0  0  0  0  0  0  0  0  0
    1.3067    3.7356    9.3793 B   0  0  0  0  0  0  0  0  0  0  0  0
   -0.1015    4.5715    9.8190 B   0  0  0  0  0  0  0  0  0  0  0  0
  1 17  1  0  0  0  0
  2 20  1  0  0  0  0
  3 80  1  0  0  0  0
  4 63  1  0  0  0  0
  5  7  1  0  0  0  0
  6 16  1  0  0  0  0
  7  8  4  0  0  0  0
  8  9  1  0  0  0  0
 10  8  4  0  0  0  0
 11 10  1  0  0  0  0
 12 10  4  0  0  0  0
 13 12  1  0  0  0  0
 14 12  4  0  0  0  0
 15 14  1  0  0  0  0
 16  7  4  0  0  0  0
 17  5  1  0  0  0  0
 18 17  1  0  0  0  0
 19 17  1  0  0  0  0
 20  6  1  0  0  0  0
 21 20  1  0  0  0  0
 22 20  1  0  0  0  0
 23  1  1  0  0  0  0
 24 23  1  0  0  0  0
 25 23  1  0  0  0  0
 26 25  1  0  0  0  0
 27 25  1  0  0  0  0
 28 25  1  0  0  0  0
 29 23  1  0  0  0  0
 30 29  1  0  0  0  0
 31 29  1  0  0  0  0
 32 29  1  0  0  0  0
 33  1  1  0  0  0  0
 34 33  1  0  0  0  0
 35 33  1  0  0  0  0
 36 35  1  0  0  0  0
 37 35  1  0  0  0  0
 38 35  1  0  0  0  0
 39 33  1  0  0  0  0
 40 39  1  0  0  0  0
 41 39  1  0  0  0  0
 42 39  1  0  0  0  0
 43  2  1  0  0  0  0
 44 43  1  0  0  0  0
 45 43  1  0  0  0  0
 46 45  1  0  0  0  0
 47 45  1  0  0  0  0
 48 45  1  0  0  0  0
 49 43  1  0  0  0  0
 50 49  1  0  0  0  0
 51 49  1  0  0  0  0
 52 49  1  0  0  0  0
 53  2  1  0  0  0  0
 54 53  1  0  0  0  0
 55 53  1  0  0  0  0
 56 55  1  0  0  0  0
 57 55  1  0  0  0  0
 58 55  1  0  0  0  0
 59 53  1  0  0  0  0
 60 59  1  0  0  0  0
 61 59  1  0  0  0  0
 62 59  1  0  0  0  0
 63 72  1  0  0  0  0
 64 65  1  0  0  0  0
 66 64  1  0  0  0  0
 67 64  1  0  0  0  0
 68 69  1  0  0  0  0
 70 68  1  0  0  0  0
 71 68  1  0  0  0  0
 72 73  1  0  0  0  0
 74 72  1  0  0  0  0
 75 72  1  0  0  0  0
 76 63  1  0  0  0  0
 77 76  1  0  0  0  0
 78 76  1  0  0  0  0
 79 76  1  0  0  0  0
 80 63  1  0  0  0  0
 81  5  1  0  0  0  0
 82  3  1  0  0  0  0
  4 82  1  0  0  0  0
  6 81  1  0  0  0  0
 14 16  4  0  0  0  0
 64 80  1  0  0  0  0
 68 80  1  0  0  0  0
 81 82  1  0  0  0  0
M  END
$$$$
VEVDOT

From CSD data. Using bond type 'Any'. No disordered atoms. Largest molecule.
114117  0  0  0  0  0  0  0  0999 V2000
    1.6518    8.0255    5.0829 Pt  0  0  0  0  0  0  0  0  0  0  0  0
    1.3152    8.4086    7.3526 P   0  0  0  0  0  0  0  0  0  0  0  0
    0.5532    2.8711    4.0391 P   0  0  0  0  0  0  0  0  0  0  0  0
    3.6305    9.1473    4.4566 P   0  0  0  0  0  0  0  0  0  0  0  0
    1.2777    7.0438    2.0978 O   0  0  0  0  0  0  0  0  0  0  0  0
    0.0717    8.8756    2.6858 O   0  0  0  0  0  0  0  0  0  0  0  0
   -0.7109    6.8659    6.6341 N   0  0  0  0  0  0  0  0  0  0  0  0
   -0.4195    5.4310    4.8870 N   0  0  0  0  0  0  0  0  0  0  0  0
   -1.6643    5.8676    6.7568 C   0  0  0  0  0  0  0  0  0  0  0  0
   -1.4916    4.9811    5.6691 C   0  0  0  0  0  0  0  0  0  0  0  0
   -2.3295    3.8909    5.5017 C   0  0  0  0  0  0  0  0  0  0  0  0
   -2.2227    3.2994    4.7663 H   0  0  0  0  0  0  0  0  0  0  0  0
   -3.3414    3.6864    6.4503 C   0  0  0  0  0  0  0  0  0  0  0  0
   -3.9238    2.9423    6.3570 H   0  0  0  0  0  0  0  0  0  0  0  0
   -3.5077    4.5532    7.5216 C   0  0  0  0  0  0  0  0  0  0  0  0
   -4.2043    4.3948    8.1481 H   0  0  0  0  0  0  0  0  0  0  0  0
   -2.6593    5.6588    7.6928 C   0  0  0  0  0  0  0  0  0  0  0  0
   -2.7673    6.2470    8.4311 H   0  0  0  0  0  0  0  0  0  0  0  0
   -0.4527    7.8755    7.6301 C   0  0  0  0  0  0  0  0  0  0  0  0
   -0.5672    7.5044    8.5409 H   0  0  0  0  0  0  0  0  0  0  0  0
   -1.0704    8.6413    7.5185 H   0  0  0  0  0  0  0  0  0  0  0  0
    2.1582    7.5359    8.7507 C   0  0  0  0  0  0  0  0  0  0  0  0
    1.6904    7.7787    9.6008 H   0  0  0  0  0  0  0  0  0  0  0  0
    2.0517    6.0221    8.5576 C   0  0  0  0  0  0  0  0  0  0  0  0
    1.1095    5.7702    8.4653 H   0  0  0  0  0  0  0  0  0  0  0  0
    2.4381    5.5663    9.3338 H   0  0  0  0  0  0  0  0  0  0  0  0
    2.5404    5.7617    7.7487 H   0  0  0  0  0  0  0  0  0  0  0  0
    3.6291    7.9584    8.8701 C   0  0  0  0  0  0  0  0  0  0  0  0
    4.1053    7.7196    8.0473 H   0  0  0  0  0  0  0  0  0  0  0  0
    4.0405    7.4982    9.6309 H   0  0  0  0  0  0  0  0  0  0  0  0
    3.6807    8.9275    9.0075 H   0  0  0  0  0  0  0  0  0  0  0  0
    1.3008   10.1898    7.8769 C   0  0  0  0  0  0  0  0  0  0  0  0
    2.2387   10.5230    7.7858 H   0  0  0  0  0  0  0  0  0  0  0  0
    0.8920   10.4201    9.3332 C   0  0  0  0  0  0  0  0  0  0  0  0
    0.8503   11.3830    9.5109 H   0  0  0  0  0  0  0  0  0  0  0  0
    1.5524   10.0063    9.9265 H   0  0  0  0  0  0  0  0  0  0  0  0
    0.0122   10.0198    9.4923 H   0  0  0  0  0  0  0  0  0  0  0  0
    0.4440   11.0178    6.9153 C   0  0  0  0  0  0  0  0  0  0  0  0
   -0.5016   10.7994    7.0496 H   0  0  0  0  0  0  0  0  0  0  0  0
    0.6992   10.8131    5.9918 H   0  0  0  0  0  0  0  0  0  0  0  0
    0.5872   11.9716    7.0902 H   0  0  0  0  0  0  0  0  0  0  0  0
    0.0500    4.6638    3.7422 C   0  0  0  0  0  0  0  0  0  0  0  0
    0.8276    5.1381    3.3568 H   0  0  0  0  0  0  0  0  0  0  0  0
   -0.6660    4.6692    3.0590 H   0  0  0  0  0  0  0  0  0  0  0  0
    1.8259    2.9724    5.3883 C   0  0  0  0  0  0  0  0  0  0  0  0
    2.3373    2.1144    5.3410 H   0  0  0  0  0  0  0  0  0  0  0  0
    1.1527    2.9718    6.7516 C   0  0  0  0  0  0  0  0  0  0  0  0
    0.6951    3.8275    6.8902 H   0  0  0  0  0  0  0  0  0  0  0  0
    1.8285    2.8460    7.4497 H   0  0  0  0  0  0  0  0  0  0  0  0
    0.4998    2.2421    6.7934 H   0  0  0  0  0  0  0  0  0  0  0  0
    2.8630    4.0805    5.2227 C   0  0  0  0  0  0  0  0  0  0  0  0
    3.3488    3.9495    4.3806 H   0  0  0  0  0  0  0  0  0  0  0  0
    3.4946    4.0524    5.9710 H   0  0  0  0  0  0  0  0  0  0  0  0
    2.4127    4.9506    5.2068 H   0  0  0  0  0  0  0  0  0  0  0  0
    1.6198    2.6660    2.5147 C   0  0  0  0  0  0  0  0  0  0  0  0
    2.2064    3.4707    2.4278 H   0  0  0  0  0  0  0  0  0  0  0  0
    2.5055    1.4322    2.6393 C   0  0  0  0  0  0  0  0  0  0  0  0
    3.1670    1.5747    3.3479 H   0  0  0  0  0  0  0  0  0  0  0  0
    2.9669    1.2751    1.7886 H   0  0  0  0  0  0  0  0  0  0  0  0
    1.9528    0.6537    2.8594 H   0  0  0  0  0  0  0  0  0  0  0  0
    0.7450    2.5664    1.2722 C   0  0  0  0  0  0  0  0  0  0  0  0
    0.1509    1.7913    1.3513 H   0  0  0  0  0  0  0  0  0  0  0  0
    1.3136    2.4626    0.4803 H   0  0  0  0  0  0  0  0  0  0  0  0
    0.2086    3.3818    1.1839 H   0  0  0  0  0  0  0  0  0  0  0  0
    0.6095    7.4865    0.8811 C   0  0  0  0  0  0  0  0  0  0  0  0
   -0.4988    8.4090    1.4173 C   0  0  0  0  0  0  0  0  0  0  0  0
    1.6426    8.2153    0.0205 C   0  0  0  0  0  0  0  0  0  0  0  0
    1.9478    9.0200    0.4896 H   0  0  0  0  0  0  0  0  0  0  0  0
    1.2358    8.4688   -0.8334 H   0  0  0  0  0  0  0  0  0  0  0  0
    2.4062    7.6233   -0.1432 H   0  0  0  0  0  0  0  0  0  0  0  0
    0.1066    6.2636    0.1321 C   0  0  0  0  0  0  0  0  0  0  0  0
    0.8648    5.6861   -0.0969 H   0  0  0  0  0  0  0  0  0  0  0  0
   -0.3471    6.5471   -0.6893 H   0  0  0  0  0  0  0  0  0  0  0  0
   -0.5217    5.7687    0.6980 H   0  0  0  0  0  0  0  0  0  0  0  0
   -0.8298    9.6080    0.5487 C   0  0  0  0  0  0  0  0  0  0  0  0
   -1.5379   10.1341    0.9748 H   0  0  0  0  0  0  0  0  0  0  0  0
   -1.1350    9.2995   -0.3298 H   0  0  0  0  0  0  0  0  0  0  0  0
   -0.0296   10.1629    0.4406 H   0  0  0  0  0  0  0  0  0  0  0  0
   -1.7813    7.6774    1.7818 C   0  0  0  0  0  0  0  0  0  0  0  0
   -1.5678    6.9073    2.3507 H   0  0  0  0  0  0  0  0  0  0  0  0
   -2.2241    7.3670    0.9654 H   0  0  0  0  0  0  0  0  0  0  0  0
   -2.3776    8.2851    2.2672 H   0  0  0  0  0  0  0  0  0  0  0  0
    3.4822   10.1401    2.8937 C   0  0  0  0  0  0  0  0  0  0  0  0
    3.1701    9.4855    2.2049 H   0  0  0  0  0  0  0  0  0  0  0  0
    4.7745   10.7201    2.3212 C   0  0  0  0  0  0  0  0  0  0  0  0
    5.0833   11.4550    2.8921 H   0  0  0  0  0  0  0  0  0  0  0  0
    4.6088   11.0571    1.4165 H   0  0  0  0  0  0  0  0  0  0  0  0
    5.4609   10.0214    2.2895 H   0  0  0  0  0  0  0  0  0  0  0  0
    2.3768   11.2022    2.9555 C   0  0  0  0  0  0  0  0  0  0  0  0
    1.5807   10.8207    3.3805 H   0  0  0  0  0  0  0  0  0  0  0  0
    2.1535   11.4938    2.0464 H   0  0  0  0  0  0  0  0  0  0  0  0
    2.6901   11.9700    3.4769 H   0  0  0  0  0  0  0  0  0  0  0  0
    4.5848   10.1756    5.7106 C   0  0  0  0  0  0  0  0  0  0  0  0
    4.4502    9.7235    6.5924 H   0  0  0  0  0  0  0  0  0  0  0  0
    6.1100   10.2799    5.5203 C   0  0  0  0  0  0  0  0  0  0  0  0
    6.5066    9.3855    5.5653 H   0  0  0  0  0  0  0  0  0  0  0  0
    6.4895   10.8424    6.2272 H   0  0  0  0  0  0  0  0  0  0  0  0
    6.3030   10.6796    4.6461 H   0  0  0  0  0  0  0  0  0  0  0  0
    3.9891   11.5715    5.8644 C   0  0  0  0  0  0  0  0  0  0  0  0
    4.2847   12.1366    5.1208 H   0  0  0  0  0  0  0  0  0  0  0  0
    4.2882   11.9626    6.7116 H   0  0  0  0  0  0  0  0  0  0  0  0
    3.0106   11.5113    5.8601 H   0  0  0  0  0  0  0  0  0  0  0  0
    4.8754    7.8460    4.0268 C   0  0  0  0  0  0  0  0  0  0  0  0
    5.7381    8.3065    3.8178 H   0  0  0  0  0  0  0  0  0  0  0  0
    5.1056    6.9571    5.2488 C   0  0  0  0  0  0  0  0  0  0  0  0
    5.4304    7.5035    5.9941 H   0  0  0  0  0  0  0  0  0  0  0  0
    5.7720    6.2712    5.0320 H   0  0  0  0  0  0  0  0  0  0  0  0
    4.2635    6.5252    5.5018 H   0  0  0  0  0  0  0  0  0  0  0  0
    4.4889    7.0017    2.8104 C   0  0  0  0  0  0  0  0  0  0  0  0
    3.6256    6.5683    2.9736 H   0  0  0  0  0  0  0  0  0  0  0  0
    5.1740    6.3174    2.6565 H   0  0  0  0  0  0  0  0  0  0  0  0
    4.4211    7.5781    2.0204 H   0  0  0  0  0  0  0  0  0  0  0  0
    0.0897    6.6696    5.4497 B   0  0  0  0  0  0  0  0  0  0  0  0
    0.9894    7.9314    3.1230 B   0  0  0  0  0  0  0  0  0  0  0  0
  1  2  1  0  0  0  0
  2 19  1  0  0  0  0
  3 42  1  0  0  0  0
  4  1  1  0  0  0  0
  5 65  1  0  0  0  0
  6 66  1  0  0  0  0
  7  9  1  0  0  0  0
  8 10  1  0  0  0  0
  9 10  4  0  0  0  0
 10 11  4  0  0  0  0
 11 12  1  0  0  0  0
 13 11  4  0  0  0  0
 14 13  1  0  0  0  0
 15 13  4  0  0  0  0
 16 15  1  0  0  0  0
 17  9  4  0  0  0  0
 18 17  1  0  0  0  0
 19  7  1  0  0  0  0
 20 19  1  0  0  0  0
 21 19  1  0  0  0  0
 22  2  1  0  0  0  0
 23 22  1  0  0  0  0
 24 22  1  0  0  0  0
 25 24  1  0  0  0  0
 26 24  1  0  0  0  0
 27 24  1  0  0  0  0
 28 22  1  0  0  0  0
 29 28  1  0  0  0  0
 30 28  1  0  0  0  0
 31 28  1  0  0  0  0
 32  2  1  0  0  0  0
 33 32  1  0  0  0  0
 34 32  1  0  0  0  0
 35 34  1  0  0  0  0
 36 34  1  0  0  0  0
 37 34  1  0  0  0  0
 38 32  1  0  0  0  0
 39 38  1  0  0  0  0
 40 38  1  0  0  0  0
 41 38  1  0  0  0  0
 42  8  1  0  0  0  0
 43 42  1  0  0  0  0
 44 42  1  0  0  0  0
 45  3  1  0  0  0  0
 46 45  1  0  0  0  0
 47 45  1  0  0  0  0
 48 47  1  0  0  0  0
 49 47  1  0  0  0  0
 50 47  1  0  0  0  0
 51 45  1  0  0  0  0
 52 51  1  0  0  0  0
 53 51  1  0  0  0  0
 54 51  1  0  0  0  0
 55  3  1  0  0  0  0
 56 55  1  0  0  0  0
 57 55  1  0  0  0  0
 58 57  1  0  0  0  0
 59 57  1  0  0  0  0
 60 57  1  0  0  0  0
 61 55  1  0  0  0  0
 62 61  1  0  0  0  0
 63 61  1  0  0  0  0
 64 61  1  0  0  0  0
 65 66  1  0  0  0  0
 66 75  1  0  0  0  0
 67 65  1  0  0  0  0
 68 67  1  0  0  0  0
 69 67  1  0  0  0  0
 70 67  1  0  0  0  0
 71 65  1  0  0  0  0
 72 71  1  0  0  0  0
 73 71  1  0  0  0  0
 74 71  1  0  0  0  0
 75 76  1  0  0  0  0
 77 75  1  0  0  0  0
 78 75  1  0  0  0  0
 79 66  1  0  0  0  0
 80 79  1  0  0  0  0
 81 79  1  0  0  0  0
 82 79  1  0  0  0  0
 83  4  1  0  0  0  0
 84 83  1  0  0  0  0
 85 83  1  0  0  0  0
 86 85  1  0  0  0  0
 87 85  1  0  0  0  0
 88 85  1  0  0  0  0
 89 83  1  0  0  0  0
 90 89  1  0  0  0  0
 91 89  1  0  0  0  0
 92 89  1  0  0  0  0
 93  4  1  0  0  0  0
 94 93  1  0  0  0  0
 95 93  1  0  0  0  0
 96 95  1  0  0  0  0
 97 95  1  0  0  0  0
 98 95  1  0  0  0  0
 99 93  1  0  0  0  0
100 99  1  0  0  0  0
101 99  1  0  0  0  0
102 99  1  0  0  0  0
103  4  1  0  0  0  0
104103  1  0  0  0  0
105103  1  0  0  0  0
106105  1  0  0  0  0
107105  1  0  0  0  0
108105  1  0  0  0  0
109103  1  0  0  0  0
110109  1  0  0  0  0
111109  1  0  0  0  0
112109  1  0  0  0  0
113  1  1  0  0  0  0
114  1  1  0  0  0  0
  5114  1  0  0  0  0
  6114  1  0  0  0  0
  7113  1  0  0  0  0
  8113  1  0  0  0  0
 15 17  4  0  0  0  0
M  END
$$$$
VEVDUZ

From CSD data. Using bond type 'Any'. No disordered atoms. Largest molecule.
 82 84  0  0  0  0  0  0  0  0999 V2000
    0.3686    9.1227    7.8045 P   0  0  0  0  0  0  0  0  0  0  0  0
   -2.1876    8.8980   14.1177 P   0  0  0  0  0  0  0  0  0  0  0  0
    0.3200    5.3326   10.1963 O   0  0  0  0  0  0  0  0  0  0  0  0
   -1.0045    5.0255   12.0334 O   0  0  0  0  0  0  0  0  0  0  0  0
   -1.6286    7.9815    9.3928 N   0  0  0  0  0  0  0  0  0  0  0  0
   -2.4755    7.9109   11.5191 N   0  0  0  0  0  0  0  0  0  0  0  0
   -2.5672    9.0002    9.5259 C   0  0  0  0  0  0  0  0  0  0  0  0
   -3.0484    9.9220    8.5999 C   0  0  0  0  0  0  0  0  0  0  0  0
   -2.7103    9.9471    7.7125 H   0  0  0  0  0  0  0  0  0  0  0  0
   -4.0427   10.8077    9.0166 C   0  0  0  0  0  0  0  0  0  0  0  0
   -4.3860   11.4437    8.3999 H   0  0  0  0  0  0  0  0  0  0  0  0
   -4.5444   10.7807   10.3185 C   0  0  0  0  0  0  0  0  0  0  0  0
   -5.2173   11.4002   10.5752 H   0  0  0  0  0  0  0  0  0  0  0  0
   -4.0687    9.8535   11.2483 C   0  0  0  0  0  0  0  0  0  0  0  0
   -4.4084    9.8329   12.1353 H   0  0  0  0  0  0  0  0  0  0  0  0
   -3.0841    8.9617   10.8387 C   0  0  0  0  0  0  0  0  0  0  0  0
   -0.8802    7.7720    8.1594 C   0  0  0  0  0  0  0  0  0  0  0  0
   -1.5174    7.7183    7.4036 H   0  0  0  0  0  0  0  0  0  0  0  0
   -0.4064    6.9046    8.2160 H   0  0  0  0  0  0  0  0  0  0  0  0
   -2.7905    7.6020   12.9082 C   0  0  0  0  0  0  0  0  0  0  0  0
   -2.3827    6.7309   13.1428 H   0  0  0  0  0  0  0  0  0  0  0  0
   -3.7719    7.5096   13.0008 H   0  0  0  0  0  0  0  0  0  0  0  0
    1.9065    8.3705    8.5382 C   0  0  0  0  0  0  0  0  0  0  0  0
    1.9323    7.3989    8.3034 H   0  0  0  0  0  0  0  0  0  0  0  0
    3.1650    9.0429    7.9879 C   0  0  0  0  0  0  0  0  0  0  0  0
    3.2413    8.8577    7.0286 H   0  0  0  0  0  0  0  0  0  0  0  0
    3.9529    8.6909    8.4523 H   0  0  0  0  0  0  0  0  0  0  0  0
    3.1071   10.0107    8.1302 H   0  0  0  0  0  0  0  0  0  0  0  0
    1.8645    8.5069   10.0546 C   0  0  0  0  0  0  0  0  0  0  0  0
    1.8779    9.4562   10.2977 H   0  0  0  0  0  0  0  0  0  0  0  0
    2.6438    8.0587   10.4446 H   0  0  0  0  0  0  0  0  0  0  0  0
    1.0445    8.0936   10.3972 H   0  0  0  0  0  0  0  0  0  0  0  0
    0.6046    8.8308    5.9848 C   0  0  0  0  0  0  0  0  0  0  0  0
    1.3736    9.4033    5.7006 H   0  0  0  0  0  0  0  0  0  0  0  0
   -0.6219    9.3391    5.2275 C   0  0  0  0  0  0  0  0  0  0  0  0
   -1.3968    8.7814    5.4490 H   0  0  0  0  0  0  0  0  0  0  0  0
   -0.4522    9.2945    4.2634 H   0  0  0  0  0  0  0  0  0  0  0  0
   -0.8033   10.2672    5.4848 H   0  0  0  0  0  0  0  0  0  0  0  0
    0.9564    7.3929    5.5844 C   0  0  0  0  0  0  0  0  0  0  0  0
    1.7940    7.1285    6.0190 H   0  0  0  0  0  0  0  0  0  0  0  0
    1.0627    7.3415    4.6116 H   0  0  0  0  0  0  0  0  0  0  0  0
    0.2373    6.7899    5.8668 H   0  0  0  0  0  0  0  0  0  0  0  0
   -0.5607    8.1778   14.6610 C   0  0  0  0  0  0  0  0  0  0  0  0
   -0.6816    7.2012   14.8382 H   0  0  0  0  0  0  0  0  0  0  0  0
    0.4751    8.3556   13.5542 C   0  0  0  0  0  0  0  0  0  0  0  0
    0.1627    7.9091   12.7397 H   0  0  0  0  0  0  0  0  0  0  0  0
    1.3263    7.9610   13.8371 H   0  0  0  0  0  0  0  0  0  0  0  0
    0.6013    9.3108   13.3752 H   0  0  0  0  0  0  0  0  0  0  0  0
   -0.0938    8.8627   15.9501 C   0  0  0  0  0  0  0  0  0  0  0  0
   -0.1505    9.8351   15.8424 H   0  0  0  0  0  0  0  0  0  0  0  0
    0.8340    8.6083   16.1373 H   0  0  0  0  0  0  0  0  0  0  0  0
   -0.6660    8.5824   16.6946 H   0  0  0  0  0  0  0  0  0  0  0  0
   -3.2894    8.4908   15.5634 C   0  0  0  0  0  0  0  0  0  0  0  0
   -2.9381    9.0096   16.3428 H   0  0  0  0  0  0  0  0  0  0  0  0
   -3.3141    7.0247   15.9943 C   0  0  0  0  0  0  0  0  0  0  0  0
   -3.6830    6.4774   15.2698 H   0  0  0  0  0  0  0  0  0  0  0  0
   -3.8731    6.9284   16.7934 H   0  0  0  0  0  0  0  0  0  0  0  0
   -2.4021    6.7280   16.1958 H   0  0  0  0  0  0  0  0  0  0  0  0
   -4.7047    9.0053   15.3028 C   0  0  0  0  0  0  0  0  0  0  0  0
   -4.6682    9.9547   15.0627 H   0  0  0  0  0  0  0  0  0  0  0  0
   -5.2471    8.8934   16.1114 H   0  0  0  0  0  0  0  0  0  0  0  0
   -5.1067    8.4975   14.5672 H   0  0  0  0  0  0  0  0  0  0  0  0
    0.9034    4.2054   10.9284 C   0  0  0  0  0  0  0  0  0  0  0  0
   -0.2617    3.7752   11.8634 C   0  0  0  0  0  0  0  0  0  0  0  0
    1.3358    3.1528    9.9145 C   0  0  0  0  0  0  0  0  0  0  0  0
    0.5896    2.9547    9.3108 H   0  0  0  0  0  0  0  0  0  0  0  0
    1.6010    2.3352   10.3853 H   0  0  0  0  0  0  0  0  0  0  0  0
    2.0948    3.4917    9.3954 H   0  0  0  0  0  0  0  0  0  0  0  0
    2.1125    4.7551   11.6710 C   0  0  0  0  0  0  0  0  0  0  0  0
    2.7261    5.1735   11.0315 H   0  0  0  0  0  0  0  0  0  0  0  0
    2.5720    4.0237   12.1338 H   0  0  0  0  0  0  0  0  0  0  0  0
    1.8184    5.4223   12.3258 H   0  0  0  0  0  0  0  0  0  0  0  0
   -1.2207    2.7852   11.2101 C   0  0  0  0  0  0  0  0  0  0  0  0
   -2.0037    2.6604   11.7860 H   0  0  0  0  0  0  0  0  0  0  0  0
   -0.7672    1.9256   11.0845 H   0  0  0  0  0  0  0  0  0  0  0  0
   -1.5073    3.1336   10.3401 H   0  0  0  0  0  0  0  0  0  0  0  0
    0.1455    3.2738   13.2364 C   0  0  0  0  0  0  0  0  0  0  0  0
    0.7022    3.9484   13.6786 H   0  0  0  0  0  0  0  0  0  0  0  0
    0.6539    2.4412   13.1425 H   0  0  0  0  0  0  0  0  0  0  0  0
   -0.6564    3.1081   13.7747 H   0  0  0  0  0  0  0  0  0  0  0  0
   -1.5677    7.2420   10.6247 B   0  0  0  0  0  0  0  0  0  0  0  0
   -0.7089    5.8264   10.9583 B   0  0  0  0  0  0  0  0  0  0  0  0
  1 17  1  0  0  0  0
  2 20  1  0  0  0  0
  3 63  1  0  0  0  0
  4 64  1  0  0  0  0
  5  7  1  0  0  0  0
  6 16  1  0  0  0  0
  7  8  4  0  0  0  0
  8  9  1  0  0  0  0
 10  8  4  0  0  0  0
 11 10  1  0  0  0  0
 12 10  4  0  0  0  0
 13 12  1  0  0  0  0
 14 12  4  0  0  0  0
 15 14  1  0  0  0  0
 16  7  4  0  0  0  0
 17  5  1  0  0  0  0
 18 17  1  0  0  0  0
 19 17  1  0  0  0  0
 20  6  1  0  0  0  0
 21 20  1  0  0  0  0
 22 20  1  0  0  0  0
 23  1  1  0  0  0  0
 24 23  1  0  0  0  0
 25 23  1  0  0  0  0
 26 25  1  0  0  0  0
 27 25  1  0  0  0  0
 28 25  1  0  0  0  0
 29 23  1  0  0  0  0
 30 29  1  0  0  0  0
 31 29  1  0  0  0  0
 32 29  1  0  0  0  0
 33  1  1  0  0  0  0
 34 33  1  0  0  0  0
 35 33  1  0  0  0  0
 36 35  1  0  0  0  0
 37 35  1  0  0  0  0
 38 35  1  0  0  0  0
 39 33  1  0  0  0  0
 40 39  1  0  0  0  0
 41 39  1  0  0  0  0
 42 39  1  0  0  0  0
 43  2  1  0  0  0  0
 44 43  1  0  0  0  0
 45 43  1  0  0  0  0
 46 45  1  0  0  0  0
 47 45  1  0  0  0  0
 48 45  1  0  0  0  0
 49 43  1  0  0  0  0
 50 49  1  0  0  0  0
 51 49  1  0  0  0  0
 52 49  1  0  0  0  0
 53  2  1  0  0  0  0
 54 53  1  0  0  0  0
 55 53  1  0  0  0  0
 56 55  1  0  0  0  0
 57 55  1  0  0  0  0
 58 55  1  0  0  0  0
 59 53  1  0  0  0  0
 60 59  1  0  0  0  0
 61 59  1  0  0  0  0
 62 59  1  0  0  0  0
 63 64  1  0  0  0  0
 64 73  1  0  0  0  0
 65 63  1  0  0  0  0
 66 65  1  0  0  0  0
 67 65  1  0  0  0  0
 68 65  1  0  0  0  0
 69 63  1  0  0  0  0
 70 69  1  0  0  0  0
 71 69  1  0  0  0  0
 72 69  1  0  0  0  0
 73 74  1  0  0  0  0
 75 73  1  0  0  0  0
 76 73  1  0  0  0  0
 77 64  1  0  0  0  0
 78 77  1  0  0  0  0
 79 77  1  0  0  0  0
 80 77  1  0  0  0  0
 81  5  1  0  0  0  0
 82  3  1  0  0  0  0
  4 82  1  0  0  0  0
  6 81  1  0  0  0  0
 14 16  4  0  0  0  0
 81 82  1  0  0  0  0
M  END
$$$$
VEVFEL

From CSD data. Using bond type 'Any'. No disordered atoms. Largest molecule.
 83 87  0  0  0  0  0  0  0  0999 V2000
    3.2961   14.2181    5.1593 Pt  0  0  0  0  0  0  0  0  0  0  0  0
    4.4550   15.3935    6.7055 P   0  0  0  0  0  0  0  0  0  0  0  0
    1.6002   13.8196    3.7121 P   0  0  0  0  0  0  0  0  0  0  0  0
    5.5652   12.1163    4.4237 O   0  0  0  0  0  0  0  0  0  0  0  0
    4.0341   11.2659    5.8724 O   0  0  0  0  0  0  0  0  0  0  0  0
    2.3222   16.9204    6.3596 N   0  0  0  0  0  0  0  0  0  0  0  0
    0.9688   16.2316    4.6525 N   0  0  0  0  0  0  0  0  0  0  0  0
    1.2094   17.7541    6.3316 C   0  0  0  0  0  0  0  0  0  0  0  0
    0.3691   17.3365    5.2523 C   0  0  0  0  0  0  0  0  0  0  0  0
   -0.8175   17.9943    4.9833 C   0  0  0  0  0  0  0  0  0  0  0  0
   -1.3701   17.7273    4.2586 H   0  0  0  0  0  0  0  0  0  0  0  0
   -1.1797   19.0658    5.8102 C   0  0  0  0  0  0  0  0  0  0  0  0
   -1.9916   19.5306    5.6439 H   0  0  0  0  0  0  0  0  0  0  0  0
   -0.3721   19.4594    6.8692 C   0  0  0  0  0  0  0  0  0  0  0  0
   -0.6467   20.1837    7.4190 H   0  0  0  0  0  0  0  0  0  0  0  0
    0.8371   18.8131    7.1439 C   0  0  0  0  0  0  0  0  0  0  0  0
    1.3877   19.0918    7.8663 H   0  0  0  0  0  0  0  0  0  0  0  0
    3.3665   16.7906    7.3564 C   0  0  0  0  0  0  0  0  0  0  0  0
    2.9845   16.5589    8.2400 H   0  0  0  0  0  0  0  0  0  0  0  0
    3.8822   17.6314    7.4396 H   0  0  0  0  0  0  0  0  0  0  0  0
    5.1157   14.6151    8.2442 C   0  0  0  0  0  0  0  0  0  0  0  0
    5.9743   14.1671    7.9939 H   0  0  0  0  0  0  0  0  0  0  0  0
    4.1902   13.5257    8.7690 C   0  0  0  0  0  0  0  0  0  0  0  0
    3.3721   13.9340    9.1208 H   0  0  0  0  0  0  0  0  0  0  0  0
    4.6419   13.0303    9.4841 H   0  0  0  0  0  0  0  0  0  0  0  0
    3.9623   12.9119    8.0400 H   0  0  0  0  0  0  0  0  0  0  0  0
    5.4556   15.6406    9.3351 C   0  0  0  0  0  0  0  0  0  0  0  0
    6.0048   16.3557    8.9517 H   0  0  0  0  0  0  0  0  0  0  0  0
    5.9506   15.1989   10.0561 H   0  0  0  0  0  0  0  0  0  0  0  0
    4.6268   16.0220    9.6939 H   0  0  0  0  0  0  0  0  0  0  0  0
    5.9326   16.2531    6.0130 C   0  0  0  0  0  0  0  0  0  0  0  0
    6.3963   16.7314    6.7585 H   0  0  0  0  0  0  0  0  0  0  0  0
    6.9035   15.2331    5.4173 C   0  0  0  0  0  0  0  0  0  0  0  0
    7.1814   14.6018    6.1134 H   0  0  0  0  0  0  0  0  0  0  0  0
    7.6903   15.6985    5.0649 H   0  0  0  0  0  0  0  0  0  0  0  0
    6.4601   14.7452    4.6920 H   0  0  0  0  0  0  0  0  0  0  0  0
    5.5228   17.2839    4.9613 C   0  0  0  0  0  0  0  0  0  0  0  0
    5.0795   16.8300    4.2141 H   0  0  0  0  0  0  0  0  0  0  0  0
    6.3191   17.7510    4.6337 H   0  0  0  0  0  0  0  0  0  0  0  0
    4.9055   17.9317    5.3617 H   0  0  0  0  0  0  0  0  0  0  0  0
    0.4387   15.3175    3.6671 C   0  0  0  0  0  0  0  0  0  0  0  0
    0.4365   15.7330    2.7685 H   0  0  0  0  0  0  0  0  0  0  0  0
   -0.4866   15.0509    3.8980 H   0  0  0  0  0  0  0  0  0  0  0  0
    0.4429   12.4579    4.1720 C   0  0  0  0  0  0  0  0  0  0  0  0
   -0.3607   12.5087    3.5790 H   0  0  0  0  0  0  0  0  0  0  0  0
   -0.0074   12.6673    5.6251 C   0  0  0  0  0  0  0  0  0  0  0  0
    0.7704   12.6120    6.2190 H   0  0  0  0  0  0  0  0  0  0  0  0
   -0.6549   11.9736    5.8695 H   0  0  0  0  0  0  0  0  0  0  0  0
   -0.4242   13.5496    5.7140 H   0  0  0  0  0  0  0  0  0  0  0  0
    1.0941   11.0877    3.9930 C   0  0  0  0  0  0  0  0  0  0  0  0
    1.4293   11.0024    3.0759 H   0  0  0  0  0  0  0  0  0  0  0  0
    0.4325   10.3860    4.1657 H   0  0  0  0  0  0  0  0  0  0  0  0
    1.8399   10.9956    4.6226 H   0  0  0  0  0  0  0  0  0  0  0  0
    2.0316   13.5373    1.9434 C   0  0  0  0  0  0  0  0  0  0  0  0
    2.6108   12.7231    1.9075 H   0  0  0  0  0  0  0  0  0  0  0  0
    2.8778   14.7165    1.4539 C   0  0  0  0  0  0  0  0  0  0  0  0
    2.3092   15.5089    1.3579 H   0  0  0  0  0  0  0  0  0  0  0  0
    3.2773   14.4941    0.5872 H   0  0  0  0  0  0  0  0  0  0  0  0
    3.5879   14.9006    2.1036 H   0  0  0  0  0  0  0  0  0  0  0  0
    0.8394   13.2806    1.0297 C   0  0  0  0  0  0  0  0  0  0  0  0
    0.3704   12.4719    1.3238 H   0  0  0  0  0  0  0  0  0  0  0  0
    1.1532   13.1598    0.1093 H   0  0  0  0  0  0  0  0  0  0  0  0
    0.2274   14.0452    1.0685 H   0  0  0  0  0  0  0  0  0  0  0  0
    5.8716   10.7018    4.5429 C   0  0  0  0  0  0  0  0  0  0  0  0
    5.1169   10.3042    5.8411 C   0  0  0  0  0  0  0  0  0  0  0  0
    5.3116   10.0212    3.2992 C   0  0  0  0  0  0  0  0  0  0  0  0
    4.3391   10.1419    3.2709 H   0  0  0  0  0  0  0  0  0  0  0  0
    5.5210    9.0644    3.3278 H   0  0  0  0  0  0  0  0  0  0  0  0
    5.7133   10.4200    2.4994 H   0  0  0  0  0  0  0  0  0  0  0  0
    7.3789   10.5305    4.5882 C   0  0  0  0  0  0  0  0  0  0  0  0
    7.7662   10.8157    3.7348 H   0  0  0  0  0  0  0  0  0  0  0  0
    7.5958    9.5880    4.7471 H   0  0  0  0  0  0  0  0  0  0  0  0
    7.7480   11.0770    5.3136 H   0  0  0  0  0  0  0  0  0  0  0  0
    4.5153    8.9020    5.8503 C   0  0  0  0  0  0  0  0  0  0  0  0
    4.0339    8.7582    6.6913 H   0  0  0  0  0  0  0  0  0  0  0  0
    5.2315    8.2386    5.7655 H   0  0  0  0  0  0  0  0  0  0  0  0
    3.8934    8.8087    5.0979 H   0  0  0  0  0  0  0  0  0  0  0  0
    5.9374   10.5279    7.1094 C   0  0  0  0  0  0  0  0  0  0  0  0
    6.3590   11.4119    7.0744 H   0  0  0  0  0  0  0  0  0  0  0  0
    6.6299    9.8379    7.1769 H   0  0  0  0  0  0  0  0  0  0  0  0
    5.3492   10.4777    7.8922 H   0  0  0  0  0  0  0  0  0  0  0  0
    2.1835   15.9212    5.3424 B   0  0  0  0  0  0  0  0  0  0  0  0
    4.3928   12.3851    5.1272 B   0  0  0  0  0  0  0  0  0  0  0  0
  1  2  1  0  0  0  0
  2 18  1  0  0  0  0
  3  1  1  0  0  0  0
  4 64  1  0  0  0  0
  5 65  1  0  0  0  0
  6  8  1  0  0  0  0
  7  9  1  0  0  0  0
  8  9  4  0  0  0  0
  9 10  4  0  0  0  0
 10 11  1  0  0  0  0
 12 10  4  0  0  0  0
 13 12  1  0  0  0  0
 14 12  4  0  0  0  0
 15 14  1  0  0  0  0
 16  8  4  0  0  0  0
 17 16  1  0  0  0  0
 18  6  1  0  0  0  0
 19 18  1  0  0  0  0
 20 18  1  0  0  0  0
 21  2  1  0  0  0  0
 22 21  1  0  0  0  0
 23 21  1  0  0  0  0
 24 23  1  0  0  0  0
 25 23  1  0  0  0  0
 26 23  1  0  0  0  0
 27 21  1  0  0  0  0
 28 27  1  0  0  0  0
 29 27  1  0  0  0  0
 30 27  1  0  0  0  0
 31  2  1  0  0  0  0
 32 31  1  0  0  0  0
 33 31  1  0  0  0  0
 34 33  1  0  0  0  0
 35 33  1  0  0  0  0
 36 33  1  0  0  0  0
 37 31  1  0  0  0  0
 38 37  1  0  0  0  0
 39 37  1  0  0  0  0
 40 37  1  0  0  0  0
 41  3  1  0  0  0  0
 42 41  1  0  0  0  0
 43 41  1  0  0  0  0
 44  3  1  0  0  0  0
 45 44  1  0  0  0  0
 46 44  1  0  0  0  0
 47 46  1  0  0  0  0
 48 46  1  0  0  0  0
 49 46  1  0  0  0  0
 50 44  1  0  0  0  0
 51 50  1  0  0  0  0
 52 50  1  0  0  0  0
 53 50  1  0  0  0  0
 54  3  1  0  0  0  0
 55 54  1  0  0  0  0
 56 54  1  0  0  0  0
 57 56  1  0  0  0  0
 58 56  1  0  0  0  0
 59 56  1  0  0  0  0
 60 54  1  0  0  0  0
 61 60  1  0  0  0  0
 62 60  1  0  0  0  0
 63 60  1  0  0  0  0
 64 65  1  0  0  0  0
 65 74  1  0  0  0  0
 66 64  1  0  0  0  0
 67 66  1  0  0  0  0
 68 66  1  0  0  0  0
 69 66  1  0  0  0  0
 70 64  1  0  0  0  0
 71 70  1  0  0  0  0
 72 70  1  0  0  0  0
 73 70  1  0  0  0  0
 74 75  1  0  0  0  0
 76 74  1  0  0  0  0
 77 74  1  0  0  0  0
 78 65  1  0  0  0  0
 79 78  1  0  0  0  0
 80 78  1  0  0  0  0
 81 78  1  0  0  0  0
 82  1  1  0  0  0  0
 83  1  1  0  0  0  0
  4 83  1  0  0  0  0
  5 83  1  0  0  0  0
  6 82  1  0  0  0  0
  7 41  1  0  0  0  0
  7 82  1  0  0  0  0
 14 16  4  0  0  0  0
M  END
$$$$
VEVKUG

From CSD data. Using bond type 'Any'. No disordered atoms. Largest molecule.
119124  0  0  0  0  0  0  0  0999 V2000
   14.6033    1.1760    5.1799 Ca  0  0  0  0  0  0  0  0  0  0  0  0
   14.6059    4.6922    8.7879 P   0  0  0  0  0  0  0  0  0  0  0  0
   12.8300    2.7182    5.7229 N   0  0  0  0  0  0  0  0  0  0  0  0
   13.5708    4.6325   10.4175 B   0  0  0  0  0  0  0  0  0  0  0  0
   16.3373   -0.5509    5.5404 O   0  0  0  0  0  0  0  0  0  0  0  0
   14.5170    0.0943    7.4262 O   0  0  0  0  0  0  0  0  0  0  0  0
   11.5811    2.6504    5.1405 C   0  0  0  0  0  0  0  0  0  0  0  0
   11.4668    2.2431    3.8016 C   0  0  0  0  0  0  0  0  0  0  0  0
   12.2303    1.9936    3.3338 H   0  0  0  0  0  0  0  0  0  0  0  0
   10.2451    2.2069    3.1703 C   0  0  0  0  0  0  0  0  0  0  0  0
   10.1975    1.9521    2.2771 H   0  0  0  0  0  0  0  0  0  0  0  0
    9.0897    2.5429    3.8449 C   0  0  0  0  0  0  0  0  0  0  0  0
    8.2684    2.5202    3.4083 H   0  0  0  0  0  0  0  0  0  0  0  0
    9.1628    2.9084    5.1575 C   0  0  0  0  0  0  0  0  0  0  0  0
    8.3823    3.1120    5.6191 H   0  0  0  0  0  0  0  0  0  0  0  0
   10.3968    2.9837    5.8226 C   0  0  0  0  0  0  0  0  0  0  0  0
   10.5294    3.3906    7.1784 C   0  0  0  0  0  0  0  0  0  0  0  0
    9.7696    3.5289    7.6952 H   0  0  0  0  0  0  0  0  0  0  0  0
   11.7427    3.5760    7.7151 C   0  0  0  0  0  0  0  0  0  0  0  0
   11.8141    3.8686    8.5944 H   0  0  0  0  0  0  0  0  0  0  0  0
   12.9486    3.3274    6.9474 C   0  0  0  0  0  0  0  0  0  0  0  0
   14.2007    3.6627    7.4138 C   0  0  0  0  0  0  0  0  0  0  0  0
   14.9202    3.3019    6.9472 H   0  0  0  0  0  0  0  0  0  0  0  0
   14.6985    6.3979    8.0837 C   0  0  0  0  0  0  0  0  0  0  0  0
   15.0326    6.9999    8.7809 H   0  0  0  0  0  0  0  0  0  0  0  0
   15.6679    6.4570    6.8969 C   0  0  0  0  0  0  0  0  0  0  0  0
   16.5353    6.1559    7.1772 H   0  0  0  0  0  0  0  0  0  0  0  0
   15.3437    5.8918    6.1910 H   0  0  0  0  0  0  0  0  0  0  0  0
   15.7292    7.3618    6.5805 H   0  0  0  0  0  0  0  0  0  0  0  0
   13.3094    6.8708    7.6745 C   0  0  0  0  0  0  0  0  0  0  0  0
   12.7209    6.8248    8.4307 H   0  0  0  0  0  0  0  0  0  0  0  0
   13.3606    7.7772    7.3616 H   0  0  0  0  0  0  0  0  0  0  0  0
   12.9750    6.3072    6.9721 H   0  0  0  0  0  0  0  0  0  0  0  0
   16.3506    4.2725    9.1733 C   0  0  0  0  0  0  0  0  0  0  0  0
   16.8259    4.1860    8.3209 H   0  0  0  0  0  0  0  0  0  0  0  0
   16.4229    2.9222    9.8740 C   0  0  0  0  0  0  0  0  0  0  0  0
   15.9687    2.2621    9.3465 H   0  0  0  0  0  0  0  0  0  0  0  0
   17.3429    2.6670    9.9826 H   0  0  0  0  0  0  0  0  0  0  0  0
   16.0052    2.9860   10.7347 H   0  0  0  0  0  0  0  0  0  0  0  0
   17.0683    5.3534    9.9911 C   0  0  0  0  0  0  0  0  0  0  0  0
   17.0099    6.1944    9.5309 H   0  0  0  0  0  0  0  0  0  0  0  0
   16.6536    5.4305   10.8528 H   0  0  0  0  0  0  0  0  0  0  0  0
   17.9913    5.1116   10.1007 H   0  0  0  0  0  0  0  0  0  0  0  0
   17.5722   -0.6423    4.7930 C   0  0  0  0  0  0  0  0  0  0  0  0
   17.4553   -0.2373    3.9305 H   0  0  0  0  0  0  0  0  0  0  0  0
   18.2687   -0.1839    5.2689 H   0  0  0  0  0  0  0  0  0  0  0  0
   17.8131   -1.5649    4.6847 H   0  0  0  0  0  0  0  0  0  0  0  0
   16.4594   -1.1333    6.8202 C   0  0  0  0  0  0  0  0  0  0  0  0
   17.0508   -0.5978    7.3720 H   0  0  0  0  0  0  0  0  0  0  0  0
   16.8361   -2.0248    6.7442 H   0  0  0  0  0  0  0  0  0  0  0  0
   15.1305   -1.2015    7.4331 C   0  0  0  0  0  0  0  0  0  0  0  0
   14.5770   -1.8275    6.9410 H   0  0  0  0  0  0  0  0  0  0  0  0
   15.2079   -1.5204    8.3458 H   0  0  0  0  0  0  0  0  0  0  0  0
   13.5840    0.2893    8.4823 C   0  0  0  0  0  0  0  0  0  0  0  0
   13.2101    1.1718    8.4204 H   0  0  0  0  0  0  0  0  0  0  0  0
   12.8801   -0.3605    8.4121 H   0  0  0  0  0  0  0  0  0  0  0  0
   14.0294    0.1884    9.3258 H   0  0  0  0  0  0  0  0  0  0  0  0
   12.5880    5.1769   10.2375 H   0  0  0  0  0  0  0  0  0  0  0  0
   14.2090    5.1769   11.1574 H   0  0  0  0  0  0  0  0  0  0  0  0
   13.3766    3.5600   10.5855 H   0  0  0  0  0  0  0  0  0  0  0  0
   14.6007    4.6922    1.5718 P   0  0  0  0  0  0  0  0  0  0  0  0
   16.3766    2.7182    4.6368 N   0  0  0  0  0  0  0  0  0  0  0  0
   15.6358    4.6325   -0.0578 B   0  0  0  0  0  0  0  0  0  0  0  0
   12.8693   -0.5509    4.8193 O   0  0  0  0  0  0  0  0  0  0  0  0
   14.6896    0.0943    2.9335 O   0  0  0  0  0  0  0  0  0  0  0  0
   17.6255    2.6504    5.2192 C   0  0  0  0  0  0  0  0  0  0  0  0
   17.7398    2.2431    6.5581 C   0  0  0  0  0  0  0  0  0  0  0  0
   16.9763    1.9936    7.0259 H   0  0  0  0  0  0  0  0  0  0  0  0
   18.9615    2.2069    7.1894 C   0  0  0  0  0  0  0  0  0  0  0  0
   19.0091    1.9521    8.0826 H   0  0  0  0  0  0  0  0  0  0  0  0
   20.1169    2.5429    6.5148 C   0  0  0  0  0  0  0  0  0  0  0  0
   20.9382    2.5202    6.9514 H   0  0  0  0  0  0  0  0  0  0  0  0
   20.0438    2.9084    5.2022 C   0  0  0  0  0  0  0  0  0  0  0  0
   20.8243    3.1120    4.7406 H   0  0  0  0  0  0  0  0  0  0  0  0
   18.8098    2.9837    4.5371 C   0  0  0  0  0  0  0  0  0  0  0  0
   18.6772    3.3906    3.1813 C   0  0  0  0  0  0  0  0  0  0  0  0
   19.4370    3.5289    2.6645 H   0  0  0  0  0  0  0  0  0  0  0  0
   17.4639    3.5760    2.6446 C   0  0  0  0  0  0  0  0  0  0  0  0
   17.3925    3.8686    1.7653 H   0  0  0  0  0  0  0  0  0  0  0  0
   16.2580    3.3274    3.4123 C   0  0  0  0  0  0  0  0  0  0  0  0
   15.0059    3.6627    2.9459 C   0  0  0  0  0  0  0  0  0  0  0  0
   14.2864    3.3019    3.4125 H   0  0  0  0  0  0  0  0  0  0  0  0
   14.5081    6.3979    2.2760 C   0  0  0  0  0  0  0  0  0  0  0  0
   14.1740    6.9999    1.5788 H   0  0  0  0  0  0  0  0  0  0  0  0
   13.5387    6.4570    3.4628 C   0  0  0  0  0  0  0  0  0  0  0  0
   12.6713    6.1559    3.1825 H   0  0  0  0  0  0  0  0  0  0  0  0
   13.8629    5.8918    4.1687 H   0  0  0  0  0  0  0  0  0  0  0  0
   13.4774    7.3618    3.7792 H   0  0  0  0  0  0  0  0  0  0  0  0
   15.8972    6.8708    2.6852 C   0  0  0  0  0  0  0  0  0  0  0  0
   16.4857    6.8248    1.9290 H   0  0  0  0  0  0  0  0  0  0  0  0
   15.8460    7.7772    2.9981 H   0  0  0  0  0  0  0  0  0  0  0  0
   16.2316    6.3072    3.3876 H   0  0  0  0  0  0  0  0  0  0  0  0
   12.8560    4.2725    1.1864 C   0  0  0  0  0  0  0  0  0  0  0  0
   12.3807    4.1860    2.0388 H   0  0  0  0  0  0  0  0  0  0  0  0
   12.7837    2.9222    0.4857 C   0  0  0  0  0  0  0  0  0  0  0  0
   13.2379    2.2621    1.0132 H   0  0  0  0  0  0  0  0  0  0  0  0
   11.8637    2.6670    0.3771 H   0  0  0  0  0  0  0  0  0  0  0  0
   13.2014    2.9860   -0.3750 H   0  0  0  0  0  0  0  0  0  0  0  0
   12.1383    5.3534    0.3686 C   0  0  0  0  0  0  0  0  0  0  0  0
   12.1967    6.1944    0.8288 H   0  0  0  0  0  0  0  0  0  0  0  0
   12.5530    5.4305   -0.4931 H   0  0  0  0  0  0  0  0  0  0  0  0
   11.2153    5.1116    0.2590 H   0  0  0  0  0  0  0  0  0  0  0  0
   11.6344   -0.6423    5.5667 C   0  0  0  0  0  0  0  0  0  0  0  0
   11.7513   -0.2373    6.4292 H   0  0  0  0  0  0  0  0  0  0  0  0
   10.9379   -0.1839    5.0908 H   0  0  0  0  0  0  0  0  0  0  0  0
   11.3935   -1.5649    5.6750 H   0  0  0  0  0  0  0  0  0  0  0  0
   12.7472   -1.1333    3.5395 C   0  0  0  0  0  0  0  0  0  0  0  0
   12.1558   -0.5978    2.9877 H   0  0  0  0  0  0  0  0  0  0  0  0
   12.3705   -2.0248    3.6155 H   0  0  0  0  0  0  0  0  0  0  0  0
   14.0761   -1.2015    2.9266 C   0  0  0  0  0  0  0  0  0  0  0  0
   14.6296   -1.8275    3.4187 H   0  0  0  0  0  0  0  0  0  0  0  0
   13.9987   -1.5204    2.0139 H   0  0  0  0  0  0  0  0  0  0  0  0
   15.6226    0.2893    1.8774 C   0  0  0  0  0  0  0  0  0  0  0  0
   15.9965    1.1718    1.9393 H   0  0  0  0  0  0  0  0  0  0  0  0
   16.3265   -0.3605    1.9476 H   0  0  0  0  0  0  0  0  0  0  0  0
   15.1772    0.1884    1.0339 H   0  0  0  0  0  0  0  0  0  0  0  0
   16.6186    5.1769    0.1222 H   0  0  0  0  0  0  0  0  0  0  0  0
   14.9976    5.1769   -0.7977 H   0  0  0  0  0  0  0  0  0  0  0  0
   15.8300    3.5600   -0.2258 H   0  0  0  0  0  0  0  0  0  0  0  0
  1  3  1  0  0  0  0
  2  4  1  0  0  0  0
  3  7  1  0  0  0  0
  4 58  1  0  0  0  0
  5  1  1  0  0  0  0
  6  1  1  0  0  0  0
  7  8  4  0  0  0  0
  8  9  1  0  0  0  0
 10  8  4  0  0  0  0
 11 10  1  0  0  0  0
 12 10  4  0  0  0  0
 13 12  1  0  0  0  0
 14 12  4  0  0  0  0
 15 14  1  0  0  0  0
 16  7  4  0  0  0  0
 17 16  1  0  0  0  0
 18 17  1  0  0  0  0
 19 17  2  0  0  0  0
 20 19  1  0  0  0  0
 21  3  1  0  0  0  0
 22  2  1  0  0  0  0
 23 22  1  0  0  0  0
 24  2  1  0  0  0  0
 25 24  1  0  0  0  0
 26 24  1  0  0  0  0
 27 26  1  0  0  0  0
 28 26  1  0  0  0  0
 29 26  1  0  0  0  0
 30 24  1  0  0  0  0
 31 30  1  0  0  0  0
 32 30  1  0  0  0  0
 33 30  1  0  0  0  0
 34  2  1  0  0  0  0
 35 34  1  0  0  0  0
 36 34  1  0  0  0  0
 37 36  1  0  0  0  0
 38 36  1  0  0  0  0
 39 36  1  0  0  0  0
 40 34  1  0  0  0  0
 41 40  1  0  0  0  0
 42 40  1  0  0  0  0
 43 40  1  0  0  0  0
 44  5  1  0  0  0  0
 45 44  1  0  0  0  0
 46 44  1  0  0  0  0
 47 44  1  0  0  0  0
 48  5  1  0  0  0  0
 49 48  1  0  0  0  0
 50 48  1  0  0  0  0
 51  6  1  0  0  0  0
 52 51  1  0  0  0  0
 53 51  1  0  0  0  0
 54  6  1  0  0  0  0
 55 54  1  0  0  0  0
 56 54  1  0  0  0  0
 57 54  1  0  0  0  0
 59  4  1  0  0  0  0
 60  4  1  0  0  0  0
 61 63  1  0  0  0  0
 62  1  1  0  0  0  0
 63117  1  0  0  0  0
 64  1  1  0  0  0  0
 65  1  1  0  0  0  0
 66 62  1  0  0  0  0
 67 66  4  0  0  0  0
 68 67  1  0  0  0  0
 69 67  4  0  0  0  0
 70 69  1  0  0  0  0
 71 69  4  0  0  0  0
 72 71  1  0  0  0  0
 73 71  4  0  0  0  0
 74 73  1  0  0  0  0
 75 66  4  0  0  0  0
 76 75  1  0  0  0  0
 77 76  1  0  0  0  0
 78 76  2  0  0  0  0
 79 78  1  0  0  0  0
 80 62  1  0  0  0  0
 81 61  1  0  0  0  0
 82 81  1  0  0  0  0
 83 61  1  0  0  0  0
 84 83  1  0  0  0  0
 85 83  1  0  0  0  0
 86 85  1  0  0  0  0
 87 85  1  0  0  0  0
 88 85  1  0  0  0  0
 89 83  1  0  0  0  0
 90 89  1  0  0  0  0
 91 89  1  0  0  0  0
 92 89  1  0  0  0  0
 93 61  1  0  0  0  0
 94 93  1  0  0  0  0
 95 93  1  0  0  0  0
 96 95  1  0  0  0  0
 97 95  1  0  0  0  0
 98 95  1  0  0  0  0
 99 93  1  0  0  0  0
100 99  1  0  0  0  0
101 99  1  0  0  0  0
102 99  1  0  0  0  0
103 64  1  0  0  0  0
104103  1  0  0  0  0
105103  1  0  0  0  0
106103  1  0  0  0  0
107 64  1  0  0  0  0
108107  1  0  0  0  0
109107  1  0  0  0  0
110 65  1  0  0  0  0
111110  1  0  0  0  0
112110  1  0  0  0  0
113 65  1  0  0  0  0
114113  1  0  0  0  0
115113  1  0  0  0  0
116113  1  0  0  0  0
118 63  1  0  0  0  0
119 63  1  0  0  0  0
 14 16  4  0  0  0  0
 19 21  1  0  0  0  0
 21 22  2  0  0  0  0
 48 51  1  0  0  0  0
 73 75  4  0  0  0  0
 78 80  1  0  0  0  0
 80 81  2  0  0  0  0
107110  1  0  0  0  0
M  END
$$$$
VEVLER

From CSD data. Using bond type 'Any'. No disordered atoms. Largest molecule.
103111  0  0  0  0  0  0  0  0999 V2000
   -0.0992    2.2045    4.9031 Ba  0  0  0  0  0  0  0  0  0  0  0  0
    0.2253    3.4004    1.3301 P   0  0  0  0  0  0  0  0  0  0  0  0
   -1.3414   -0.2403    4.2384 O   0  0  0  0  0  0  0  0  0  0  0  0
    2.2921    2.2884    3.5087 N   0  0  0  0  0  0  0  0  0  0  0  0
    3.4519    2.0506    4.1853 C   0  0  0  0  0  0  0  0  0  0  0  0
    3.8408    2.9300    5.2032 C   0  0  0  0  0  0  0  0  0  0  0  0
    3.3115    3.6697    5.3954 H   0  0  0  0  0  0  0  0  0  0  0  0
    4.9851    2.7186    5.9190 C   0  0  0  0  0  0  0  0  0  0  0  0
    5.2223    3.3162    6.5917 H   0  0  0  0  0  0  0  0  0  0  0  0
    5.7968    1.6254    5.6562 C   0  0  0  0  0  0  0  0  0  0  0  0
    6.5660    1.4807    6.1583 H   0  0  0  0  0  0  0  0  0  0  0  0
    5.4567    0.7649    4.6560 C   0  0  0  0  0  0  0  0  0  0  0  0
    6.0130    0.0440    4.4657 H   0  0  0  0  0  0  0  0  0  0  0  0
    4.2893    0.9423    3.9089 C   0  0  0  0  0  0  0  0  0  0  0  0
    3.8481    0.0566    2.8830 C   0  0  0  0  0  0  0  0  0  0  0  0
    4.3442   -0.7032    2.6830 H   0  0  0  0  0  0  0  0  0  0  0  0
    2.7299    0.3095    2.2103 C   0  0  0  0  0  0  0  0  0  0  0  0
    2.4480   -0.2856    1.5533 H   0  0  0  0  0  0  0  0  0  0  0  0
    1.9419    1.4958    2.4798 C   0  0  0  0  0  0  0  0  0  0  0  0
    0.8228    1.7877    1.6965 C   0  0  0  0  0  0  0  0  0  0  0  0
    0.3555    1.0693    1.3376 H   0  0  0  0  0  0  0  0  0  0  0  0
    1.4646    4.3377    0.3413 C   0  0  0  0  0  0  0  0  0  0  0  0
    1.0294    5.1617    0.0373 H   0  0  0  0  0  0  0  0  0  0  0  0
    2.6473    4.7466    1.1964 C   0  0  0  0  0  0  0  0  0  0  0  0
    2.3367    5.2460    1.9554 H   0  0  0  0  0  0  0  0  0  0  0  0
    3.2451    5.2926    0.6786 H   0  0  0  0  0  0  0  0  0  0  0  0
    3.1110    3.9628    1.4984 H   0  0  0  0  0  0  0  0  0  0  0  0
    1.9071    3.5816   -0.8963 C   0  0  0  0  0  0  0  0  0  0  0  0
    1.1419    3.3854   -1.4415 H   0  0  0  0  0  0  0  0  0  0  0  0
    2.3320    2.7614   -0.6354 H   0  0  0  0  0  0  0  0  0  0  0  0
    2.5267    4.1188   -1.3964 H   0  0  0  0  0  0  0  0  0  0  0  0
   -1.1651    3.1023    0.1569 C   0  0  0  0  0  0  0  0  0  0  0  0
   -0.8101    2.5878   -0.5982 H   0  0  0  0  0  0  0  0  0  0  0  0
   -2.2635    2.2833    0.7845 C   0  0  0  0  0  0  0  0  0  0  0  0
   -1.9090    1.4379    1.0689 H   0  0  0  0  0  0  0  0  0  0  0  0
   -2.9617    2.1387    0.1432 H   0  0  0  0  0  0  0  0  0  0  0  0
   -2.6186    2.7526    1.5435 H   0  0  0  0  0  0  0  0  0  0  0  0
   -1.7189    4.4132   -0.4001 C   0  0  0  0  0  0  0  0  0  0  0  0
   -1.0236    4.8774   -0.8747 H   0  0  0  0  0  0  0  0  0  0  0  0
   -2.0336    4.9605    0.3236 H   0  0  0  0  0  0  0  0  0  0  0  0
   -2.4449    4.2245   -1.0002 H   0  0  0  0  0  0  0  0  0  0  0  0
   -2.4149   -0.3963    3.3243 C   0  0  0  0  0  0  0  0  0  0  0  0
   -2.9873    0.3736    3.3674 H   0  0  0  0  0  0  0  0  0  0  0  0
   -2.9180   -1.1813    3.5518 H   0  0  0  0  0  0  0  0  0  0  0  0
   -2.0668   -0.4843    2.4339 H   0  0  0  0  0  0  0  0  0  0  0  0
   -0.4737   -1.3838    4.2677 C   0  0  0  0  0  0  0  0  0  0  0  0
    0.1431   -1.3499    3.5204 H   0  0  0  0  0  0  0  0  0  0  0  0
   -0.9976   -2.1965    4.1951 H   0  0  0  0  0  0  0  0  0  0  0  0
   -0.4051    4.5327    2.7614 B   0  0  0  0  0  0  0  0  0  0  0  0
   -0.0075    3.3414    2.5653 H   0  0  0  0  0  0  0  0  0  0  0  0
   -1.4531    3.8257    2.9379 H   0  0  0  0  0  0  0  0  0  0  0  0
   -1.3942    5.0913    1.9867 H   0  0  0  0  0  0  0  0  0  0  0  0
    1.1429   -0.2403    5.5678 O   0  0  0  0  0  0  0  0  0  0  0  0
    2.2165   -0.3963    6.4819 C   0  0  0  0  0  0  0  0  0  0  0  0
    2.7888    0.3736    6.4387 H   0  0  0  0  0  0  0  0  0  0  0  0
    2.7195   -1.1813    6.2544 H   0  0  0  0  0  0  0  0  0  0  0  0
    1.8683   -0.4843    7.3723 H   0  0  0  0  0  0  0  0  0  0  0  0
    0.2752   -1.3838    5.5385 C   0  0  0  0  0  0  0  0  0  0  0  0
   -0.3415   -1.3499    6.2858 H   0  0  0  0  0  0  0  0  0  0  0  0
    0.7992   -2.1965    5.6111 H   0  0  0  0  0  0  0  0  0  0  0  0
   -0.4238    3.4004    8.4761 P   0  0  0  0  0  0  0  0  0  0  0  0
   -2.4905    2.2884    6.2975 N   0  0  0  0  0  0  0  0  0  0  0  0
   -3.6503    2.0506    5.6209 C   0  0  0  0  0  0  0  0  0  0  0  0
   -4.0393    2.9300    4.6030 C   0  0  0  0  0  0  0  0  0  0  0  0
   -3.5100    3.6697    4.4108 H   0  0  0  0  0  0  0  0  0  0  0  0
   -5.1835    2.7186    3.8872 C   0  0  0  0  0  0  0  0  0  0  0  0
   -5.4207    3.3162    3.2145 H   0  0  0  0  0  0  0  0  0  0  0  0
   -5.9952    1.6254    4.1500 C   0  0  0  0  0  0  0  0  0  0  0  0
   -6.7645    1.4807    3.6479 H   0  0  0  0  0  0  0  0  0  0  0  0
   -5.6551    0.7649    5.1502 C   0  0  0  0  0  0  0  0  0  0  0  0
   -6.2114    0.0440    5.3405 H   0  0  0  0  0  0  0  0  0  0  0  0
   -4.4877    0.9423    5.8972 C   0  0  0  0  0  0  0  0  0  0  0  0
   -4.0465    0.0566    6.9232 C   0  0  0  0  0  0  0  0  0  0  0  0
   -4.5427   -0.7032    7.1232 H   0  0  0  0  0  0  0  0  0  0  0  0
   -2.9284    0.3095    7.5959 C   0  0  0  0  0  0  0  0  0  0  0  0
   -2.6464   -0.2856    8.2529 H   0  0  0  0  0  0  0  0  0  0  0  0
   -2.1404    1.4958    7.3264 C   0  0  0  0  0  0  0  0  0  0  0  0
   -1.0213    1.7877    8.1097 C   0  0  0  0  0  0  0  0  0  0  0  0
   -0.5539    1.0693    8.4686 H   0  0  0  0  0  0  0  0  0  0  0  0
   -1.6630    4.3377    9.4649 C   0  0  0  0  0  0  0  0  0  0  0  0
   -1.2279    5.1617    9.7689 H   0  0  0  0  0  0  0  0  0  0  0  0
   -2.8457    4.7466    8.6098 C   0  0  0  0  0  0  0  0  0  0  0  0
   -2.5351    5.2460    7.8508 H   0  0  0  0  0  0  0  0  0  0  0  0
   -3.4435    5.2926    9.1276 H   0  0  0  0  0  0  0  0  0  0  0  0
   -3.3095    3.9628    8.3078 H   0  0  0  0  0  0  0  0  0  0  0  0
   -2.1055    3.5816   10.7025 C   0  0  0  0  0  0  0  0  0  0  0  0
   -1.3403    3.3854   11.2477 H   0  0  0  0  0  0  0  0  0  0  0  0
   -2.5304    2.7614   10.4416 H   0  0  0  0  0  0  0  0  0  0  0  0
   -2.7252    4.1188   11.2026 H   0  0  0  0  0  0  0  0  0  0  0  0
    0.9667    3.1023    9.6493 C   0  0  0  0  0  0  0  0  0  0  0  0
    0.6117    2.5878   10.4044 H   0  0  0  0  0  0  0  0  0  0  0  0
    2.0651    2.2833    9.0217 C   0  0  0  0  0  0  0  0  0  0  0  0
    1.7105    1.4379    8.7373 H   0  0  0  0  0  0  0  0  0  0  0  0
    2.7633    2.1387    9.6630 H   0  0  0  0  0  0  0  0  0  0  0  0
    2.4202    2.7526    8.2627 H   0  0  0  0  0  0  0  0  0  0  0  0
    1.5205    4.4132   10.2063 C   0  0  0  0  0  0  0  0  0  0  0  0
    0.8252    4.8774   10.6809 H   0  0  0  0  0  0  0  0  0  0  0  0
    1.8351    4.9605    9.4826 H   0  0  0  0  0  0  0  0  0  0  0  0
    2.2465    4.2245   10.8064 H   0  0  0  0  0  0  0  0  0  0  0  0
    0.2067    4.5327    7.0448 B   0  0  0  0  0  0  0  0  0  0  0  0
   -0.1910    3.3414    7.2409 H   0  0  0  0  0  0  0  0  0  0  0  0
    1.2547    3.8257    6.8683 H   0  0  0  0  0  0  0  0  0  0  0  0
    1.1958    5.0913    7.8195 H   0  0  0  0  0  0  0  0  0  0  0  0
  1  3  1  0  0  0  0
  2 20  1  0  0  0  0
  3 42  1  0  0  0  0
  4  1  1  0  0  0  0
  5  4  1  0  0  0  0
  6  5  4  0  0  0  0
  7  6  1  0  0  0  0
  8  6  4  0  0  0  0
  9  8  1  0  0  0  0
 10  8  4  0  0  0  0
 11 10  1  0  0  0  0
 12 10  4  0  0  0  0
 13 12  1  0  0  0  0
 14  5  4  0  0  0  0
 15 14  1  0  0  0  0
 16 15  1  0  0  0  0
 17 15  2  0  0  0  0
 18 17  1  0  0  0  0
 19  4  1  0  0  0  0
 20 19  2  0  0  0  0
 21 20  1  0  0  0  0
 22  2  1  0  0  0  0
 23 22  1  0  0  0  0
 24 22  1  0  0  0  0
 25 24  1  0  0  0  0
 26 24  1  0  0  0  0
 27 24  1  0  0  0  0
 28 22  1  0  0  0  0
 29 28  1  0  0  0  0
 30 28  1  0  0  0  0
 31 28  1  0  0  0  0
 32  2  1  0  0  0  0
 33 32  1  0  0  0  0
 34 32  1  0  0  0  0
 35 34  1  0  0  0  0
 36 34  1  0  0  0  0
 37 34  1  0  0  0  0
 38 32  1  0  0  0  0
 39 38  1  0  0  0  0
 40 38  1  0  0  0  0
 41 38  1  0  0  0  0
 42 43  1  0  0  0  0
 44 42  1  0  0  0  0
 45 42  1  0  0  0  0
 46  3  1  0  0  0  0
 47 46  1  0  0  0  0
 48 46  1  0  0  0  0
 49  2  1  0  0  0  0
 50  1  1  0  0  0  0
 51  1  1  0  0  0  0
 52 49  1  0  0  0  0
 53  1  1  0  0  0  0
 54 53  1  0  0  0  0
 55 54  1  0  0  0  0
 56 54  1  0  0  0  0
 57 54  1  0  0  0  0
 58 46  1  0  0  0  0
 59 58  1  0  0  0  0
 60 58  1  0  0  0  0
 61 78  1  0  0  0  0
 62  1  1  0  0  0  0
 63 62  1  0  0  0  0
 64 63  4  0  0  0  0
 65 64  1  0  0  0  0
 66 64  4  0  0  0  0
 67 66  1  0  0  0  0
 68 66  4  0  0  0  0
 69 68  1  0  0  0  0
 70 68  4  0  0  0  0
 71 70  1  0  0  0  0
 72 63  4  0  0  0  0
 73 72  1  0  0  0  0
 74 73  1  0  0  0  0
 75 73  2  0  0  0  0
 76 75  1  0  0  0  0
 77 62  1  0  0  0  0
 78 77  2  0  0  0  0
 79 78  1  0  0  0  0
 80 61  1  0  0  0  0
 81 80  1  0  0  0  0
 82 80  1  0  0  0  0
 83 82  1  0  0  0  0
 84 82  1  0  0  0  0
 85 82  1  0  0  0  0
 86 80  1  0  0  0  0
 87 86  1  0  0  0  0
 88 86  1  0  0  0  0
 89 86  1  0  0  0  0
 90 61  1  0  0  0  0
 91 90  1  0  0  0  0
 92 90  1  0  0  0  0
 93 92  1  0  0  0  0
 94 92  1  0  0  0  0
 95 92  1  0  0  0  0
 96 90  1  0  0  0  0
 97 96  1  0  0  0  0
 98 96  1  0  0  0  0
 99 96  1  0  0  0  0
100 61  1  0  0  0  0
101  1  1  0  0  0  0
102  1  1  0  0  0  0
103100  1  0  0  0  0
 12 14  4  0  0  0  0
 17 19  1  0  0  0  0
 49 50  1  0  0  0  0
 49 51  1  0  0  0  0
 53 58  1  0  0  0  0
 70 72  4  0  0  0  0
 75 77  1  0  0  0  0
100101  1  0  0  0  0
100102  1  0  0  0  0
M  END
$$$$
VICYUF

From CSD data. Using bond type 'Any'. No disordered atoms. Largest molecule.
105114  0  0  0  0  0  0  0  0999 V2000
    3.5611   10.4489    4.9411 Pd  0  0  0  0  0  0  0  0  0  0  0  0
    5.4301   10.3718    3.5778 P   0  0  0  0  0  0  0  0  0  0  0  0
    1.7192   10.1727    6.2921 P   0  0  0  0  0  0  0  0  0  0  0  0
    2.2110   10.4922    3.3155 O   0  0  0  0  0  0  0  0  0  0  0  0
    3.3726   12.5512    2.9289 O   0  0  0  0  0  0  0  0  0  0  0  0
    1.7417   11.9945    1.3576 O   0  0  0  0  0  0  0  0  0  0  0  0
    0.2048    9.9985    2.1581 O   0  0  0  0  0  0  0  0  0  0  0  0
    0.5387   10.5679    1.6376 H   0  0  0  0  0  0  0  0  0  0  0  0
    4.7995   10.5196    6.4314 C   0  0  0  0  0  0  0  0  0  0  0  0
    5.5832   10.5786    7.3401 C   0  0  0  0  0  0  0  0  0  0  0  0
    6.5125   10.5979    8.4403 C   0  0  0  0  0  0  0  0  0  0  0  0
    7.8746   10.3602    8.2163 C   0  0  0  0  0  0  0  0  0  0  0  0
    8.1910   10.2237    7.3318 H   0  0  0  0  0  0  0  0  0  0  0  0
    8.7630   10.3227    9.2808 C   0  0  0  0  0  0  0  0  0  0  0  0
    9.6836   10.1570    9.1186 H   0  0  0  0  0  0  0  0  0  0  0  0
    8.3265   10.5216   10.5650 C   0  0  0  0  0  0  0  0  0  0  0  0
    8.9408   10.4860   11.2892 H   0  0  0  0  0  0  0  0  0  0  0  0
    6.9867   10.7750   10.8002 C   0  0  0  0  0  0  0  0  0  0  0  0
    6.6851   10.9269   11.6882 H   0  0  0  0  0  0  0  0  0  0  0  0
    6.0812   10.8110    9.7525 C   0  0  0  0  0  0  0  0  0  0  0  0
    5.1631   10.9807    9.9273 H   0  0  0  0  0  0  0  0  0  0  0  0
    4.9980    9.9909    1.8499 C   0  0  0  0  0  0  0  0  0  0  0  0
    3.8058   10.5349    1.3316 C   0  0  0  0  0  0  0  0  0  0  0  0
    3.5065   10.2666   -0.0111 C   0  0  0  0  0  0  0  0  0  0  0  0
    2.7094   10.6235   -0.3852 H   0  0  0  0  0  0  0  0  0  0  0  0
    4.3385    9.4992   -0.8084 C   0  0  0  0  0  0  0  0  0  0  0  0
    4.1062    9.3301   -1.7135 H   0  0  0  0  0  0  0  0  0  0  0  0
    5.5146    8.9756   -0.2783 C   0  0  0  0  0  0  0  0  0  0  0  0
    6.0923    8.4558   -0.8257 H   0  0  0  0  0  0  0  0  0  0  0  0
    5.8454    9.2144    1.0533 C   0  0  0  0  0  0  0  0  0  0  0  0
    6.6437    8.8513    1.4184 H   0  0  0  0  0  0  0  0  0  0  0  0
    6.4761   11.8563    3.5079 C   0  0  0  0  0  0  0  0  0  0  0  0
    7.4786   11.9514    2.5505 C   0  0  0  0  0  0  0  0  0  0  0  0
    7.6199   11.2381    1.9389 H   0  0  0  0  0  0  0  0  0  0  0  0
    8.2736   13.0856    2.4851 C   0  0  0  0  0  0  0  0  0  0  0  0
    8.9599   13.1476    1.8324 H   0  0  0  0  0  0  0  0  0  0  0  0
    8.0658   14.1276    3.3714 C   0  0  0  0  0  0  0  0  0  0  0  0
    8.6148   14.9023    3.3275 H   0  0  0  0  0  0  0  0  0  0  0  0
    7.0684   14.0454    4.3148 C   0  0  0  0  0  0  0  0  0  0  0  0
    6.9241   14.7684    4.9146 H   0  0  0  0  0  0  0  0  0  0  0  0
    6.2681   12.9090    4.3969 C   0  0  0  0  0  0  0  0  0  0  0  0
    5.5848   12.8514    5.0551 H   0  0  0  0  0  0  0  0  0  0  0  0
    6.5371    9.0186    4.0802 C   0  0  0  0  0  0  0  0  0  0  0  0
    7.8105    9.2328    4.5875 C   0  0  0  0  0  0  0  0  0  0  0  0
    8.1521   10.1173    4.6450 H   0  0  0  0  0  0  0  0  0  0  0  0
    8.5895    8.1619    5.0147 C   0  0  0  0  0  0  0  0  0  0  0  0
    9.4545    8.3204    5.3749 H   0  0  0  0  0  0  0  0  0  0  0  0
    8.1109    6.8663    4.9159 C   0  0  0  0  0  0  0  0  0  0  0  0
    8.6481    6.1355    5.1984 H   0  0  0  0  0  0  0  0  0  0  0  0
    6.8420    6.6420    4.4011 C   0  0  0  0  0  0  0  0  0  0  0  0
    6.5138    5.7541    4.3236 H   0  0  0  0  0  0  0  0  0  0  0  0
    6.0518    7.7097    3.9970 C   0  0  0  0  0  0  0  0  0  0  0  0
    5.1773    7.5502    3.6628 H   0  0  0  0  0  0  0  0  0  0  0  0
    2.9861   13.7630    2.2680 C   0  0  0  0  0  0  0  0  0  0  0  0
    1.5926   13.3963    1.6572 C   0  0  0  0  0  0  0  0  0  0  0  0
    2.9336   14.8725    3.3060 C   0  0  0  0  0  0  0  0  0  0  0  0
    2.3447   14.6033    4.0421 H   0  0  0  0  0  0  0  0  0  0  0  0
    2.5864   15.6905    2.8929 H   0  0  0  0  0  0  0  0  0  0  0  0
    3.8347   15.0388    3.6532 H   0  0  0  0  0  0  0  0  0  0  0  0
    4.0414   14.0799    1.2078 C   0  0  0  0  0  0  0  0  0  0  0  0
    4.9269   14.1076    1.6254 H   0  0  0  0  0  0  0  0  0  0  0  0
    3.8442   14.9488    0.8001 H   0  0  0  0  0  0  0  0  0  0  0  0
    4.0280   13.3846    0.5161 H   0  0  0  0  0  0  0  0  0  0  0  0
    0.4411   13.5426    2.6437 C   0  0  0  0  0  0  0  0  0  0  0  0
   -0.3663   13.1340    2.2673 H   0  0  0  0  0  0  0  0  0  0  0  0
    0.2759   14.4937    2.8148 H   0  0  0  0  0  0  0  0  0  0  0  0
    0.6716   13.0953    3.4847 H   0  0  0  0  0  0  0  0  0  0  0  0
    1.2749   14.1046    0.3479 C   0  0  0  0  0  0  0  0  0  0  0  0
    1.9827   13.9180   -0.3039 H   0  0  0  0  0  0  0  0  0  0  0  0
    1.2208   15.0705    0.5036 H   0  0  0  0  0  0  0  0  0  0  0  0
    0.4176   13.7809    0.0007 H   0  0  0  0  0  0  0  0  0  0  0  0
    0.8798    8.7058    5.5996 C   0  0  0  0  0  0  0  0  0  0  0  0
    0.6577    8.6494    4.2104 C   0  0  0  0  0  0  0  0  0  0  0  0
    0.0519    7.4928    3.7012 C   0  0  0  0  0  0  0  0  0  0  0  0
   -0.1347    7.4414    2.7712 H   0  0  0  0  0  0  0  0  0  0  0  0
   -0.2850    6.4189    4.5165 C   0  0  0  0  0  0  0  0  0  0  0  0
   -0.6680    5.6359    4.1388 H   0  0  0  0  0  0  0  0  0  0  0  0
   -0.0615    6.4926    5.8732 C   0  0  0  0  0  0  0  0  0  0  0  0
   -0.2939    5.7624    6.4351 H   0  0  0  0  0  0  0  0  0  0  0  0
    0.5086    7.6433    6.4228 C   0  0  0  0  0  0  0  0  0  0  0  0
    0.6440    7.7026    7.3611 H   0  0  0  0  0  0  0  0  0  0  0  0
    0.5657   11.5624    6.1466 C   0  0  0  0  0  0  0  0  0  0  0  0
    1.0789   12.8501    6.3393 C   0  0  0  0  0  0  0  0  0  0  0  0
    2.0049   12.9701    6.5152 H   0  0  0  0  0  0  0  0  0  0  0  0
    0.2390   13.9497    6.2739 C   0  0  0  0  0  0  0  0  0  0  0  0
    0.5888   14.8208    6.4194 H   0  0  0  0  0  0  0  0  0  0  0  0
   -1.1073   13.7856    5.9998 C   0  0  0  0  0  0  0  0  0  0  0  0
   -1.6770   14.5440    5.9534 H   0  0  0  0  0  0  0  0  0  0  0  0
   -1.6277   12.5106    5.7911 C   0  0  0  0  0  0  0  0  0  0  0  0
   -2.5505   12.3997    5.5956 H   0  0  0  0  0  0  0  0  0  0  0  0
   -0.7916   11.3973    5.8704 C   0  0  0  0  0  0  0  0  0  0  0  0
   -1.1472   10.5265    5.7362 H   0  0  0  0  0  0  0  0  0  0  0  0
    1.8395    9.8460    8.0698 C   0  0  0  0  0  0  0  0  0  0  0  0
    2.7898    8.9360    8.5266 C   0  0  0  0  0  0  0  0  0  0  0  0
    3.4081    8.5484    7.9182 H   0  0  0  0  0  0  0  0  0  0  0  0
    2.8308    8.5964    9.8679 C   0  0  0  0  0  0  0  0  0  0  0  0
    3.4699    7.9616   10.1717 H   0  0  0  0  0  0  0  0  0  0  0  0
    1.9558    9.1668   10.7682 C   0  0  0  0  0  0  0  0  0  0  0  0
    1.9953    8.9317   11.6873 H   0  0  0  0  0  0  0  0  0  0  0  0
    1.0174   10.0857   10.3257 C   0  0  0  0  0  0  0  0  0  0  0  0
    0.4164   10.4855   10.9430 H   0  0  0  0  0  0  0  0  0  0  0  0
    0.9566   10.4250    8.9774 C   0  0  0  0  0  0  0  0  0  0  0  0
    0.3100   11.0526    8.6753 H   0  0  0  0  0  0  0  0  0  0  0  0
    2.7925   11.4446    2.2040 B   0  0  0  0  0  0  0  0  0  0  0  0
    1.0507    9.7777    3.1836 B   0  0  0  0  0  0  0  0  0  0  0  0
  1  2  1  0  0  0  0
  2 22  1  0  0  0  0
  3  1  1  0  0  0  0
  4  1  1  0  0  0  0
  5 54  1  0  0  0  0
  6 55  1  0  0  0  0
  7  8  1  0  0  0  0
  9  1  1  0  0  0  0
 10  9  3  0  0  0  0
 11 10  1  0  0  0  0
 12 11  4  0  0  0  0
 13 12  1  0  0  0  0
 14 12  4  0  0  0  0
 15 14  1  0  0  0  0
 16 14  4  0  0  0  0
 17 16  1  0  0  0  0
 18 16  4  0  0  0  0
 19 18  1  0  0  0  0
 20 11  4  0  0  0  0
 21 20  1  0  0  0  0
 22 23  4  0  0  0  0
 23 24  4  0  0  0  0
 24 25  1  0  0  0  0
 26 24  4  0  0  0  0
 27 26  1  0  0  0  0
 28 26  4  0  0  0  0
 29 28  1  0  0  0  0
 30 22  4  0  0  0  0
 31 30  1  0  0  0  0
 32  2  1  0  0  0  0
 33 32  4  0  0  0  0
 34 33  1  0  0  0  0
 35 33  4  0  0  0  0
 36 35  1  0  0  0  0
 37 35  4  0  0  0  0
 38 37  1  0  0  0  0
 39 37  4  0  0  0  0
 40 39  1  0  0  0  0
 41 32  4  0  0  0  0
 42 41  1  0  0  0  0
 43  2  1  0  0  0  0
 44 43  4  0  0  0  0
 45 44  1  0  0  0  0
 46 44  4  0  0  0  0
 47 46  1  0  0  0  0
 48 46  4  0  0  0  0
 49 48  1  0  0  0  0
 50 48  4  0  0  0  0
 51 50  1  0  0  0  0
 52 43  4  0  0  0  0
 53 52  1  0  0  0  0
 54 55  1  0  0  0  0
 55 64  1  0  0  0  0
 56 54  1  0  0  0  0
 57 56  1  0  0  0  0
 58 56  1  0  0  0  0
 59 56  1  0  0  0  0
 60 54  1  0  0  0  0
 61 60  1  0  0  0  0
 62 60  1  0  0  0  0
 63 60  1  0  0  0  0
 64 65  1  0  0  0  0
 66 64  1  0  0  0  0
 67 64  1  0  0  0  0
 68 55  1  0  0  0  0
 69 68  1  0  0  0  0
 70 68  1  0  0  0  0
 71 68  1  0  0  0  0
 72  3  1  0  0  0  0
 73 72  4  0  0  0  0
 74 73  4  0  0  0  0
 75 74  1  0  0  0  0
 76 74  4  0  0  0  0
 77 76  1  0  0  0  0
 78 76  4  0  0  0  0
 79 78  1  0  0  0  0
 80 72  4  0  0  0  0
 81 80  1  0  0  0  0
 82  3  1  0  0  0  0
 83 82  4  0  0  0  0
 84 83  1  0  0  0  0
 85 83  4  0  0  0  0
 86 85  1  0  0  0  0
 87 85  4  0  0  0  0
 88 87  1  0  0  0  0
 89 87  4  0  0  0  0
 90 89  1  0  0  0  0
 91 82  4  0  0  0  0
 92 91  1  0  0  0  0
 93  3  1  0  0  0  0
 94 93  4  0  0  0  0
 95 94  1  0  0  0  0
 96 94  4  0  0  0  0
 97 96  1  0  0  0  0
 98 96  4  0  0  0  0
 99 98  1  0  0  0  0
100 98  4  0  0  0  0
101100  1  0  0  0  0
102 93  4  0  0  0  0
103102  1  0  0  0  0
104  4  1  0  0  0  0
105  4  1  0  0  0  0
  5104  1  0  0  0  0
  6104  1  0  0  0  0
  7105  1  0  0  0  0
 18 20  4  0  0  0  0
 23104  1  0  0  0  0
 28 30  4  0  0  0  0
 39 41  4  0  0  0  0
 50 52  4  0  0  0  0
 73105  1  0  0  0  0
 78 80  4  0  0  0  0
 89 91  4  0  0  0  0
100102  4  0  0  0  0
M  END
$$$$
VIDGEY

From CSD data. Using bond type 'Any'. No disordered atoms. Largest molecule.
106115  0  0  0  0  0  0  0  0999 V2000
    4.8588    4.1769   25.1173 Pd  0  0  0  0  0  0  0  0  0  0  0  0
    7.1416    3.6864   25.0285 P   0  0  0  0  0  0  0  0  0  0  0  0
    2.5798    4.1429   24.6781 P   0  0  0  0  0  0  0  0  0  0  0  0
    5.0081    5.8414   23.7057 O   0  0  0  0  0  0  0  0  0  0  0  0
    6.4646    6.6493   25.5092 O   0  0  0  0  0  0  0  0  0  0  0  0
    6.1544    8.0345   23.6533 O   0  0  0  0  0  0  0  0  0  0  0  0
    4.2501    7.3177   22.0002 O   0  0  0  0  0  0  0  0  0  0  0  0
    4.7024    2.8449   26.6893 C   0  0  0  0  0  0  0  0  0  0  0  0
    4.1179    2.0850   26.4421 H   0  0  0  0  0  0  0  0  0  0  0  0
    5.5942    2.4920   26.9341 H   0  0  0  0  0  0  0  0  0  0  0  0
    4.1112    3.6095   27.8313 C   0  0  0  0  0  0  0  0  0  0  0  0
    4.7364    4.7547   28.3410 C   0  0  0  0  0  0  0  0  0  0  0  0
    5.5656    5.0381   27.9738 H   0  0  0  0  0  0  0  0  0  0  0  0
    4.1613    5.4855   29.3780 C   0  0  0  0  0  0  0  0  0  0  0  0
    4.5946    6.2632   29.7086 H   0  0  0  0  0  0  0  0  0  0  0  0
    2.9491    5.0745   29.9309 C   0  0  0  0  0  0  0  0  0  0  0  0
    2.5485    5.5772   30.6304 H   0  0  0  0  0  0  0  0  0  0  0  0
    2.3349    3.9312   29.4542 C   0  0  0  0  0  0  0  0  0  0  0  0
    1.5148    3.6463   29.8391 H   0  0  0  0  0  0  0  0  0  0  0  0
    2.8981    3.1963   28.4229 C   0  0  0  0  0  0  0  0  0  0  0  0
    2.4648    2.4089   28.1128 H   0  0  0  0  0  0  0  0  0  0  0  0
    7.9773    4.5777   23.6607 C   0  0  0  0  0  0  0  0  0  0  0  0
    7.5158    5.8562   23.3094 C   0  0  0  0  0  0  0  0  0  0  0  0
    8.1821    6.5045   22.2539 C   0  0  0  0  0  0  0  0  0  0  0  0
    7.9049    7.3776   22.0030 H   0  0  0  0  0  0  0  0  0  0  0  0
    9.2335    5.9110   21.5659 C   0  0  0  0  0  0  0  0  0  0  0  0
    9.6554    6.3725   20.8506 H   0  0  0  0  0  0  0  0  0  0  0  0
    9.6642    4.6444   21.9251 C   0  0  0  0  0  0  0  0  0  0  0  0
   10.3826    4.2341   21.4578 H   0  0  0  0  0  0  0  0  0  0  0  0
    9.0419    3.9797   22.9721 C   0  0  0  0  0  0  0  0  0  0  0  0
    9.3384    3.1132   23.2237 H   0  0  0  0  0  0  0  0  0  0  0  0
    8.1958    3.9955   26.4939 C   0  0  0  0  0  0  0  0  0  0  0  0
    8.9819    5.1460   26.5738 C   0  0  0  0  0  0  0  0  0  0  0  0
    8.9783    5.7737   25.8607 H   0  0  0  0  0  0  0  0  0  0  0  0
    9.7713    5.3749   27.6999 C   0  0  0  0  0  0  0  0  0  0  0  0
   10.3116    6.1547   27.7441 H   0  0  0  0  0  0  0  0  0  0  0  0
    9.7770    4.4740   28.7588 C   0  0  0  0  0  0  0  0  0  0  0  0
   10.3098    4.6395   29.5274 H   0  0  0  0  0  0  0  0  0  0  0  0
    8.9982    3.3350   28.6812 C   0  0  0  0  0  0  0  0  0  0  0  0
    8.9975    2.7134   29.3996 H   0  0  0  0  0  0  0  0  0  0  0  0
    8.2140    3.0935   27.5577 C   0  0  0  0  0  0  0  0  0  0  0  0
    7.6863    2.3051   27.5143 H   0  0  0  0  0  0  0  0  0  0  0  0
    7.4464    1.9115   24.7131 C   0  0  0  0  0  0  0  0  0  0  0  0
    8.7055    1.3386   24.9284 C   0  0  0  0  0  0  0  0  0  0  0  0
    9.4139    1.8687   25.2751 H   0  0  0  0  0  0  0  0  0  0  0  0
    8.9236   -0.0028   24.6360 C   0  0  0  0  0  0  0  0  0  0  0  0
    9.7814   -0.3851   24.7828 H   0  0  0  0  0  0  0  0  0  0  0  0
    7.9005   -0.7821   24.1334 C   0  0  0  0  0  0  0  0  0  0  0  0
    8.0557   -1.6981   23.9350 H   0  0  0  0  0  0  0  0  0  0  0  0
    6.6439   -0.2295   23.9173 C   0  0  0  0  0  0  0  0  0  0  0  0
    5.9415   -0.7654   23.5700 H   0  0  0  0  0  0  0  0  0  0  0  0
    6.4172    1.1155   24.2111 C   0  0  0  0  0  0  0  0  0  0  0  0
    5.5560    1.4909   24.0683 H   0  0  0  0  0  0  0  0  0  0  0  0
    6.1111    7.9608   25.9973 C   0  0  0  0  0  0  0  0  0  0  0  0
    6.4693    8.8744   24.7831 C   0  0  0  0  0  0  0  0  0  0  0  0
    6.9096    8.2280   27.2607 C   0  0  0  0  0  0  0  0  0  0  0  0
    6.5951    7.6379   27.9768 H   0  0  0  0  0  0  0  0  0  0  0  0
    6.7893    9.1627   27.5312 H   0  0  0  0  0  0  0  0  0  0  0  0
    7.8591    8.0575   27.0895 H   0  0  0  0  0  0  0  0  0  0  0  0
    4.6160    7.9811   26.3144 C   0  0  0  0  0  0  0  0  0  0  0  0
    4.1067    7.7876   25.4999 H   0  0  0  0  0  0  0  0  0  0  0  0
    4.3660    8.8652   26.6543 H   0  0  0  0  0  0  0  0  0  0  0  0
    4.4170    7.3019   26.9928 H   0  0  0  0  0  0  0  0  0  0  0  0
    7.9614    9.2215   24.7316 C   0  0  0  0  0  0  0  0  0  0  0  0
    8.4911    8.4029   24.8332 H   0  0  0  0  0  0  0  0  0  0  0  0
    8.1780    9.8425   25.4582 H   0  0  0  0  0  0  0  0  0  0  0  0
    8.1702    9.6406   23.8707 H   0  0  0  0  0  0  0  0  0  0  0  0
    5.6394   10.1437   24.6750 C   0  0  0  0  0  0  0  0  0  0  0  0
    5.8988   10.6351   23.8680 H   0  0  0  0  0  0  0  0  0  0  0  0
    5.7962   10.7039   25.4636 H   0  0  0  0  0  0  0  0  0  0  0  0
    4.6894    9.9093   24.6240 H   0  0  0  0  0  0  0  0  0  0  0  0
    2.4180    4.1116   22.8544 C   0  0  0  0  0  0  0  0  0  0  0  0
    3.1174    5.0957   22.1151 C   0  0  0  0  0  0  0  0  0  0  0  0
    2.8896    5.1202   20.7317 C   0  0  0  0  0  0  0  0  0  0  0  0
    3.2988    5.8018   20.2121 H   0  0  0  0  0  0  0  0  0  0  0  0
    2.0873    4.1840   20.0931 C   0  0  0  0  0  0  0  0  0  0  0  0
    1.9811    4.2114   19.1495 H   0  0  0  0  0  0  0  0  0  0  0  0
    1.4435    3.2091   20.8355 C   0  0  0  0  0  0  0  0  0  0  0  0
    0.9066    2.5559   20.4033 H   0  0  0  0  0  0  0  0  0  0  0  0
    1.5886    3.1941   22.2181 C   0  0  0  0  0  0  0  0  0  0  0  0
    1.1169    2.5503   22.7334 H   0  0  0  0  0  0  0  0  0  0  0  0
    1.5553    5.5789   25.1505 C   0  0  0  0  0  0  0  0  0  0  0  0
    1.7773    6.2037   26.3750 C   0  0  0  0  0  0  0  0  0  0  0  0
    2.4565    5.8808   26.9557 H   0  0  0  0  0  0  0  0  0  0  0  0
    1.0040    7.3026   26.7513 C   0  0  0  0  0  0  0  0  0  0  0  0
    1.1689    7.7376   27.5799 H   0  0  0  0  0  0  0  0  0  0  0  0
   -0.0023    7.7608   25.9174 C   0  0  0  0  0  0  0  0  0  0  0  0
   -0.5240    8.5127   26.1745 H   0  0  0  0  0  0  0  0  0  0  0  0
   -0.2527    7.1300   24.7120 C   0  0  0  0  0  0  0  0  0  0  0  0
   -0.9543    7.4382   24.1506 H   0  0  0  0  0  0  0  0  0  0  0  0
    0.5261    6.0406   24.3206 C   0  0  0  0  0  0  0  0  0  0  0  0
    0.3585    5.6110   23.4901 H   0  0  0  0  0  0  0  0  0  0  0  0
    1.6429    2.7050   25.2797 C   0  0  0  0  0  0  0  0  0  0  0  0
    2.1290    1.4301   24.9523 C   0  0  0  0  0  0  0  0  0  0  0  0
    2.8730    1.3406   24.3691 H   0  0  0  0  0  0  0  0  0  0  0  0
    1.5203    0.2982   25.4822 C   0  0  0  0  0  0  0  0  0  0  0  0
    1.8334   -0.5666   25.2428 H   0  0  0  0  0  0  0  0  0  0  0  0
    0.4548    0.4305   26.3602 C   0  0  0  0  0  0  0  0  0  0  0  0
    0.0524   -0.3414   26.7401 H   0  0  0  0  0  0  0  0  0  0  0  0
   -0.0230    1.6908   26.6833 C   0  0  0  0  0  0  0  0  0  0  0  0
   -0.7548    1.7761   27.2836 H   0  0  0  0  0  0  0  0  0  0  0  0
    0.5548    2.8308   26.1395 C   0  0  0  0  0  0  0  0  0  0  0  0
    0.2109    3.6899   26.3529 H   0  0  0  0  0  0  0  0  0  0  0  0
    6.3007    6.6284   24.0697 B   0  0  0  0  0  0  0  0  0  0  0  0
    4.1717    6.1413   22.6703 B   0  0  0  0  0  0  0  0  0  0  0  0
    4.7337    7.7950   22.3447 H   0  0  0  0  0  0  0  0  0  0  0  0
  1  2  1  0  0  0  0
  2 22  1  0  0  0  0
  3  1  1  0  0  0  0
  4  1  1  0  0  0  0
  5 54  1  0  0  0  0
  6 55  1  0  0  0  0
  7105  1  0  0  0  0
  8  1  1  0  0  0  0
  9  8  1  0  0  0  0
 10  8  1  0  0  0  0
 11  8  1  0  0  0  0
 12 11  4  0  0  0  0
 13 12  1  0  0  0  0
 14 12  4  0  0  0  0
 15 14  1  0  0  0  0
 16 14  4  0  0  0  0
 17 16  1  0  0  0  0
 18 16  4  0  0  0  0
 19 18  1  0  0  0  0
 20 11  4  0  0  0  0
 21 20  1  0  0  0  0
 22 23  4  0  0  0  0
 23 24  4  0  0  0  0
 24 25  1  0  0  0  0
 26 24  4  0  0  0  0
 27 26  1  0  0  0  0
 28 26  4  0  0  0  0
 29 28  1  0  0  0  0
 30 22  4  0  0  0  0
 31 30  1  0  0  0  0
 32  2  1  0  0  0  0
 33 32  4  0  0  0  0
 34 33  1  0  0  0  0
 35 33  4  0  0  0  0
 36 35  1  0  0  0  0
 37 35  4  0  0  0  0
 38 37  1  0  0  0  0
 39 37  4  0  0  0  0
 40 39  1  0  0  0  0
 41 32  4  0  0  0  0
 42 41  1  0  0  0  0
 43  2  1  0  0  0  0
 44 43  4  0  0  0  0
 45 44  1  0  0  0  0
 46 44  4  0  0  0  0
 47 46  1  0  0  0  0
 48 46  4  0  0  0  0
 49 48  1  0  0  0  0
 50 48  4  0  0  0  0
 51 50  1  0  0  0  0
 52 43  4  0  0  0  0
 53 52  1  0  0  0  0
 54 55  1  0  0  0  0
 55 64  1  0  0  0  0
 56 54  1  0  0  0  0
 57 56  1  0  0  0  0
 58 56  1  0  0  0  0
 59 56  1  0  0  0  0
 60 54  1  0  0  0  0
 61 60  1  0  0  0  0
 62 60  1  0  0  0  0
 63 60  1  0  0  0  0
 64 65  1  0  0  0  0
 66 64  1  0  0  0  0
 67 64  1  0  0  0  0
 68 55  1  0  0  0  0
 69 68  1  0  0  0  0
 70 68  1  0  0  0  0
 71 68  1  0  0  0  0
 72  3  1  0  0  0  0
 73 72  4  0  0  0  0
 74 73  4  0  0  0  0
 75 74  1  0  0  0  0
 76 74  4  0  0  0  0
 77 76  1  0  0  0  0
 78 76  4  0  0  0  0
 79 78  1  0  0  0  0
 80 72  4  0  0  0  0
 81 80  1  0  0  0  0
 82  3  1  0  0  0  0
 83 82  4  0  0  0  0
 84 83  1  0  0  0  0
 85 83  4  0  0  0  0
 86 85  1  0  0  0  0
 87 85  4  0  0  0  0
 88 87  1  0  0  0  0
 89 87  4  0  0  0  0
 90 89  1  0  0  0  0
 91 82  4  0  0  0  0
 92 91  1  0  0  0  0
 93  3  1  0  0  0  0
 94 93  4  0  0  0  0
 95 94  1  0  0  0  0
 96 94  4  0  0  0  0
 97 96  1  0  0  0  0
 98 96  4  0  0  0  0
 99 98  1  0  0  0  0
100 98  4  0  0  0  0
101100  1  0  0  0  0
102 93  4  0  0  0  0
103102  1  0  0  0  0
104  4  1  0  0  0  0
105  4  1  0  0  0  0
106  7  1  0  0  0  0
  5104  1  0  0  0  0
  6104  1  0  0  0  0
 18 20  4  0  0  0  0
 23104  1  0  0  0  0
 28 30  4  0  0  0  0
 39 41  4  0  0  0  0
 50 52  4  0  0  0  0
 73105  1  0  0  0  0
 78 80  4  0  0  0  0
 89 91  4  0  0  0  0
100102  4  0  0  0  0
M  END
$$$$
VIDMOO

From CSD data. Using bond type 'Any'. No disordered atoms. Largest molecule.
 95103  0  0  0  0  0  0  0  0999 V2000
    3.6349    7.5612   10.3058 Pd  0  0  0  0  0  0  0  0  0  0  0  0
    2.4022    8.1988    8.4343 P   0  0  0  0  0  0  0  0  0  0  0  0
    4.9671    6.7675   12.0072 P   0  0  0  0  0  0  0  0  0  0  0  0
    2.0249    6.3892   11.1663 O   0  0  0  0  0  0  0  0  0  0  0  0
    0.9217    8.5097   10.9828 O   0  0  0  0  0  0  0  0  0  0  0  0
   -0.4070    6.7527   11.7442 O   0  0  0  0  0  0  0  0  0  0  0  0
    0.9958    4.5675   12.2649 O   0  0  0  0  0  0  0  0  0  0  0  0
    0.3268    5.0648   12.1616 H   0  0  0  0  0  0  0  0  0  0  0  0
    5.2032    8.5330    9.4313 C   0  0  0  0  0  0  0  0  0  0  0  0
    5.7753    9.5228   10.4569 C   0  0  0  0  0  0  0  0  0  0  0  0
    6.5792   10.2159   11.3956 C   0  0  0  0  0  0  0  0  0  0  0  0
    1.0331    7.0229    8.1629 C   0  0  0  0  0  0  0  0  0  0  0  0
    0.3147    6.6138    9.2963 C   0  0  0  0  0  0  0  0  0  0  0  0
   -0.7651    5.7427    9.0797 C   0  0  0  0  0  0  0  0  0  0  0  0
   -1.2784    5.4497    9.8241 H   0  0  0  0  0  0  0  0  0  0  0  0
   -1.1022    5.2998    7.8089 C   0  0  0  0  0  0  0  0  0  0  0  0
   -1.8417    4.7150    7.6934 H   0  0  0  0  0  0  0  0  0  0  0  0
   -0.3628    5.7046    6.7041 C   0  0  0  0  0  0  0  0  0  0  0  0
   -0.5818    5.3879    5.8357 H   0  0  0  0  0  0  0  0  0  0  0  0
    0.6954    6.5746    6.8876 C   0  0  0  0  0  0  0  0  0  0  0  0
    1.1981    6.8694    6.1363 H   0  0  0  0  0  0  0  0  0  0  0  0
    3.4329    8.1579    6.9281 C   0  0  0  0  0  0  0  0  0  0  0  0
    3.9411    6.9477    6.4665 C   0  0  0  0  0  0  0  0  0  0  0  0
    3.6845    6.1378    6.8922 H   0  0  0  0  0  0  0  0  0  0  0  0
    4.8139    6.9084    5.3945 C   0  0  0  0  0  0  0  0  0  0  0  0
    5.1442    6.0756    5.0786 H   0  0  0  0  0  0  0  0  0  0  0  0
    5.2094    8.0964    4.7765 C   0  0  0  0  0  0  0  0  0  0  0  0
    5.8041    8.0738    4.0362 H   0  0  0  0  0  0  0  0  0  0  0  0
    4.7361    9.3013    5.2439 C   0  0  0  0  0  0  0  0  0  0  0  0
    5.0220   10.1120    4.8407 H   0  0  0  0  0  0  0  0  0  0  0  0
    3.8360    9.3352    6.3100 C   0  0  0  0  0  0  0  0  0  0  0  0
    3.4949   10.1688    6.6153 H   0  0  0  0  0  0  0  0  0  0  0  0
    1.6325    9.8503    8.3767 C   0  0  0  0  0  0  0  0  0  0  0  0
    0.6064   10.1067    7.4689 C   0  0  0  0  0  0  0  0  0  0  0  0
    0.3146    9.4204    6.8798 H   0  0  0  0  0  0  0  0  0  0  0  0
    0.0101   11.3562    7.4187 C   0  0  0  0  0  0  0  0  0  0  0  0
   -0.6908   11.5231    6.7999 H   0  0  0  0  0  0  0  0  0  0  0  0
    0.4337   12.3619    8.2705 C   0  0  0  0  0  0  0  0  0  0  0  0
    0.0226   13.2177    8.2412 H   0  0  0  0  0  0  0  0  0  0  0  0
    1.4605   12.1128    9.1686 C   0  0  0  0  0  0  0  0  0  0  0  0
    1.7550   12.8027    9.7510 H   0  0  0  0  0  0  0  0  0  0  0  0
    2.0583   10.8645    9.2207 C   0  0  0  0  0  0  0  0  0  0  0  0
    2.7625   10.7030    9.8373 H   0  0  0  0  0  0  0  0  0  0  0  0
   -0.1527    9.0756   11.7548 C   0  0  0  0  0  0  0  0  0  0  0  0
   -0.5723    7.8686   12.6491 C   0  0  0  0  0  0  0  0  0  0  0  0
    0.3615   10.2752   12.5293 C   0  0  0  0  0  0  0  0  0  0  0  0
    1.2104   10.0460   12.9605 H   0  0  0  0  0  0  0  0  0  0  0  0
   -0.2948   10.5276   13.2122 H   0  0  0  0  0  0  0  0  0  0  0  0
    0.4984   11.0262   11.9148 H   0  0  0  0  0  0  0  0  0  0  0  0
   -1.2677    9.5027   10.7852 C   0  0  0  0  0  0  0  0  0  0  0  0
   -0.9009   10.1214   10.1188 H   0  0  0  0  0  0  0  0  0  0  0  0
   -1.9824    9.9472   11.2854 H   0  0  0  0  0  0  0  0  0  0  0  0
   -1.6270    8.7114   10.3327 H   0  0  0  0  0  0  0  0  0  0  0  0
    0.3503    7.6651   13.8485 C   0  0  0  0  0  0  0  0  0  0  0  0
    0.1356    6.8146   14.2845 H   0  0  0  0  0  0  0  0  0  0  0  0
    0.2246    8.3999   14.4845 H   0  0  0  0  0  0  0  0  0  0  0  0
    1.2818    7.6513   13.5448 H   0  0  0  0  0  0  0  0  0  0  0  0
   -2.0235    7.9205   13.1165 C   0  0  0  0  0  0  0  0  0  0  0  0
   -2.6153    7.9586   12.3365 H   0  0  0  0  0  0  0  0  0  0  0  0
   -2.1592    8.7175   13.6696 H   0  0  0  0  0  0  0  0  0  0  0  0
   -2.2257    7.1188   13.6418 H   0  0  0  0  0  0  0  0  0  0  0  0
    4.7612    4.9511   12.1187 C   0  0  0  0  0  0  0  0  0  0  0  0
    3.4650    4.3937   12.0098 C   0  0  0  0  0  0  0  0  0  0  0  0
    3.3588    3.0192   12.1160 C   0  0  0  0  0  0  0  0  0  0  0  0
    2.4958    2.6233   12.0790 H   0  0  0  0  0  0  0  0  0  0  0  0
    4.4596    2.1968   12.2705 C   0  0  0  0  0  0  0  0  0  0  0  0
    4.3529    1.2537   12.3009 H   0  0  0  0  0  0  0  0  0  0  0  0
    5.7255    2.7617   12.3845 C   0  0  0  0  0  0  0  0  0  0  0  0
    6.4883    2.2071   12.4987 H   0  0  0  0  0  0  0  0  0  0  0  0
    5.8660    4.1362   12.3284 C   0  0  0  0  0  0  0  0  0  0  0  0
    6.7263    4.5263   12.4354 H   0  0  0  0  0  0  0  0  0  0  0  0
    4.4364    7.4129   13.6264 C   0  0  0  0  0  0  0  0  0  0  0  0
    3.8820    8.6803   13.6824 C   0  0  0  0  0  0  0  0  0  0  0  0
    3.7792    9.1841   12.8834 H   0  0  0  0  0  0  0  0  0  0  0  0
    3.4761    9.2240   14.8973 C   0  0  0  0  0  0  0  0  0  0  0  0
    3.0889   10.0910   14.9315 H   0  0  0  0  0  0  0  0  0  0  0  0
    3.6435    8.4885   16.0504 C   0  0  0  0  0  0  0  0  0  0  0  0
    3.3587    8.8519   16.8815 H   0  0  0  0  0  0  0  0  0  0  0  0
    4.2116    7.2401   16.0214 C   0  0  0  0  0  0  0  0  0  0  0  0
    4.3359    6.7503   16.8256 H   0  0  0  0  0  0  0  0  0  0  0  0
    4.6058    6.6954   14.7930 C   0  0  0  0  0  0  0  0  0  0  0  0
    4.9912    5.8279   14.7615 H   0  0  0  0  0  0  0  0  0  0  0  0
    6.7726    7.0165   11.9653 C   0  0  0  0  0  0  0  0  0  0  0  0
    7.4580    6.7346   10.7910 C   0  0  0  0  0  0  0  0  0  0  0  0
    6.9805    6.4424   10.0230 H   0  0  0  0  0  0  0  0  0  0  0  0
    8.8392    6.8756   10.7311 C   0  0  0  0  0  0  0  0  0  0  0  0
    9.3051    6.6702    9.9277 H   0  0  0  0  0  0  0  0  0  0  0  0
    9.5394    7.3175   11.8437 C   0  0  0  0  0  0  0  0  0  0  0  0
   10.4844    7.4041   11.8131 H   0  0  0  0  0  0  0  0  0  0  0  0
    8.8483    7.6301   12.9967 C   0  0  0  0  0  0  0  0  0  0  0  0
    9.3218    7.9556   13.7533 H   0  0  0  0  0  0  0  0  0  0  0  0
    7.4790    7.4754   13.0624 C   0  0  0  0  0  0  0  0  0  0  0  0
    7.0189    7.6856   13.8662 H   0  0  0  0  0  0  0  0  0  0  0  0
    0.6686    7.1024   10.8065 B   0  0  0  0  0  0  0  0  0  0  0  0
    2.1118    5.2001   11.7934 B   0  0  0  0  0  0  0  0  0  0  0  0
  1  2  1  0  0  0  0
  2 12  1  0  0  0  0
  3  1  1  0  0  0  0
  4  1  1  0  0  0  0
  5 44  1  0  0  0  0
  6 45  1  0  0  0  0
  7  8  1  0  0  0  0
  9  1  1  0  0  0  0
 10  9  2  0  0  0  0
 11 10  2  0  0  0  0
 12 13  4  0  0  0  0
 13 14  4  0  0  0  0
 14 15  1  0  0  0  0
 16 14  4  0  0  0  0
 17 16  1  0  0  0  0
 18 16  4  0  0  0  0
 19 18  1  0  0  0  0
 20 12  4  0  0  0  0
 21 20  1  0  0  0  0
 22  2  1  0  0  0  0
 23 22  4  0  0  0  0
 24 23  1  0  0  0  0
 25 23  4  0  0  0  0
 26 25  1  0  0  0  0
 27 25  4  0  0  0  0
 28 27  1  0  0  0  0
 29 27  4  0  0  0  0
 30 29  1  0  0  0  0
 31 22  4  0  0  0  0
 32 31  1  0  0  0  0
 33  2  1  0  0  0  0
 34 33  4  0  0  0  0
 35 34  1  0  0  0  0
 36 34  4  0  0  0  0
 37 36  1  0  0  0  0
 38 36  4  0  0  0  0
 39 38  1  0  0  0  0
 40 38  4  0  0  0  0
 41 40  1  0  0  0  0
 42 33  4  0  0  0  0
 43 42  1  0  0  0  0
 44 45  1  0  0  0  0
 45 54  1  0  0  0  0
 46 44  1  0  0  0  0
 47 46  1  0  0  0  0
 48 46  1  0  0  0  0
 49 46  1  0  0  0  0
 50 44  1  0  0  0  0
 51 50  1  0  0  0  0
 52 50  1  0  0  0  0
 53 50  1  0  0  0  0
 54 55  1  0  0  0  0
 56 54  1  0  0  0  0
 57 54  1  0  0  0  0
 58 45  1  0  0  0  0
 59 58  1  0  0  0  0
 60 58  1  0  0  0  0
 61 58  1  0  0  0  0
 62  3  1  0  0  0  0
 63 62  4  0  0  0  0
 64 63  4  0  0  0  0
 65 64  1  0  0  0  0
 66 64  4  0  0  0  0
 67 66  1  0  0  0  0
 68 66  4  0  0  0  0
 69 68  1  0  0  0  0
 70 62  4  0  0  0  0
 71 70  1  0  0  0  0
 72  3  1  0  0  0  0
 73 72  4  0  0  0  0
 74 73  1  0  0  0  0
 75 73  4  0  0  0  0
 76 75  1  0  0  0  0
 77 75  4  0  0  0  0
 78 77  1  0  0  0  0
 79 77  4  0  0  0  0
 80 79  1  0  0  0  0
 81 72  4  0  0  0  0
 82 81  1  0  0  0  0
 83  3  1  0  0  0  0
 84 83  4  0  0  0  0
 85 84  1  0  0  0  0
 86 84  4  0  0  0  0
 87 86  1  0  0  0  0
 88 86  4  0  0  0  0
 89 88  1  0  0  0  0
 90 88  4  0  0  0  0
 91 90  1  0  0  0  0
 92 83  4  0  0  0  0
 93 92  1  0  0  0  0
 94  4  1  0  0  0  0
 95  4  1  0  0  0  0
  5 94  1  0  0  0  0
  6 94  1  0  0  0  0
  7 95  1  0  0  0  0
 13 94  1  0  0  0  0
 18 20  4  0  0  0  0
 29 31  4  0  0  0  0
 40 42  4  0  0  0  0
 63 95  1  0  0  0  0
 68 70  4  0  0  0  0
 79 81  4  0  0  0  0
 90 92  4  0  0  0  0
M  END
$$$$
VIDMUU

From CSD data. Using bond type 'Any'. No disordered atoms. Largest molecule.
 96104  0  0  0  0  0  0  0  0999 V2000
    3.7207    2.7471   10.5001 Pd  0  0  0  0  0  0  0  0  0  0  0  0
    2.5106    2.1694    8.6190 P   0  0  0  0  0  0  0  0  0  0  0  0
    5.0527    3.5807   12.1732 P   0  0  0  0  0  0  0  0  0  0  0  0
    2.1159    4.0010   11.3173 O   0  0  0  0  0  0  0  0  0  0  0  0
    0.9795    1.8960   11.1963 O   0  0  0  0  0  0  0  0  0  0  0  0
   -0.3313    3.7038   11.8902 O   0  0  0  0  0  0  0  0  0  0  0  0
    1.1084    5.8758   12.3700 O   0  0  0  0  0  0  0  0  0  0  0  0
    5.1929    1.4743    9.8277 C   0  0  0  0  0  0  0  0  0  0  0  0
    5.7150    1.1468   10.5899 H   0  0  0  0  0  0  0  0  0  0  0  0
    5.7828    1.9540    9.2098 H   0  0  0  0  0  0  0  0  0  0  0  0
    4.7817    0.7151    9.3637 H   0  0  0  0  0  0  0  0  0  0  0  0
    1.1374    3.3292    8.3263 C   0  0  0  0  0  0  0  0  0  0  0  0
    0.3896    3.7472    9.4520 C   0  0  0  0  0  0  0  0  0  0  0  0
   -0.7406    4.5367    9.1969 C   0  0  0  0  0  0  0  0  0  0  0  0
   -1.2750    4.8234    9.9282 H   0  0  0  0  0  0  0  0  0  0  0  0
   -1.1040    4.9143    7.9130 C   0  0  0  0  0  0  0  0  0  0  0  0
   -1.8830    5.4409    7.7776 H   0  0  0  0  0  0  0  0  0  0  0  0
   -0.3336    4.5256    6.8228 C   0  0  0  0  0  0  0  0  0  0  0  0
   -0.5666    4.8054    5.9454 H   0  0  0  0  0  0  0  0  0  0  0  0
    0.7774    3.7260    7.0320 C   0  0  0  0  0  0  0  0  0  0  0  0
    1.3004    3.4435    6.2907 H   0  0  0  0  0  0  0  0  0  0  0  0
    1.7135    0.5267    8.5403 C   0  0  0  0  0  0  0  0  0  0  0  0
    2.0282   -0.4632    9.4655 C   0  0  0  0  0  0  0  0  0  0  0  0
    2.6958   -0.3033   10.1221 H   0  0  0  0  0  0  0  0  0  0  0  0
    1.3651   -1.6918    9.4311 C   0  0  0  0  0  0  0  0  0  0  0  0
    1.5827   -2.3672   10.0625 H   0  0  0  0  0  0  0  0  0  0  0  0
    0.3905   -1.9234    8.4764 C   0  0  0  0  0  0  0  0  0  0  0  0
   -0.0659   -2.7566    8.4570 H   0  0  0  0  0  0  0  0  0  0  0  0
    0.0800   -0.9436    7.5502 C   0  0  0  0  0  0  0  0  0  0  0  0
   -0.5880   -1.1079    6.8949 H   0  0  0  0  0  0  0  0  0  0  0  0
    0.7400    0.2779    7.5735 C   0  0  0  0  0  0  0  0  0  0  0  0
    0.5281    0.9440    6.9306 H   0  0  0  0  0  0  0  0  0  0  0  0
    3.5274    2.2195    7.1060 C   0  0  0  0  0  0  0  0  0  0  0  0
    3.9029    1.0564    6.4352 C   0  0  0  0  0  0  0  0  0  0  0  0
    3.5764    0.2152    6.7313 H   0  0  0  0  0  0  0  0  0  0  0  0
    4.7538    1.1208    5.3341 C   0  0  0  0  0  0  0  0  0  0  0  0
    5.0144    0.3211    4.8916 H   0  0  0  0  0  0  0  0  0  0  0  0
    5.2205    2.3393    4.8819 C   0  0  0  0  0  0  0  0  0  0  0  0
    5.7851    2.3809    4.1190 H   0  0  0  0  0  0  0  0  0  0  0  0
    4.8607    3.5065    5.5478 C   0  0  0  0  0  0  0  0  0  0  0  0
    5.1834    4.3457    5.2405 H   0  0  0  0  0  0  0  0  0  0  0  0
    4.0330    3.4501    6.6581 C   0  0  0  0  0  0  0  0  0  0  0  0
    3.8064    4.2492    7.1191 H   0  0  0  0  0  0  0  0  0  0  0  0
   -0.1466    1.3746   11.9172 C   0  0  0  0  0  0  0  0  0  0  0  0
   -0.5765    2.5961   12.7927 C   0  0  0  0  0  0  0  0  0  0  0  0
    0.3019    0.1641   12.7209 C   0  0  0  0  0  0  0  0  0  0  0  0
    0.4830   -0.5830   12.1127 H   0  0  0  0  0  0  0  0  0  0  0  0
   -0.4053   -0.0911   13.3496 H   0  0  0  0  0  0  0  0  0  0  0  0
    1.1168    0.3854   13.2181 H   0  0  0  0  0  0  0  0  0  0  0  0
   -1.2244    0.9718   10.9040 C   0  0  0  0  0  0  0  0  0  0  0  0
   -1.5483    1.7696   10.4367 H   0  0  0  0  0  0  0  0  0  0  0  0
   -1.9700    0.5425   11.3734 H   0  0  0  0  0  0  0  0  0  0  0  0
   -0.8435    0.3445   10.2541 H   0  0  0  0  0  0  0  0  0  0  0  0
    0.3050    2.7774   14.0228 C   0  0  0  0  0  0  0  0  0  0  0  0
    1.2457    2.8055   13.7493 H   0  0  0  0  0  0  0  0  0  0  0  0
    0.1660    2.0273   14.6379 H   0  0  0  0  0  0  0  0  0  0  0  0
    0.0703    3.6162   14.4719 H   0  0  0  0  0  0  0  0  0  0  0  0
   -2.0339    2.5790   13.2040 C   0  0  0  0  0  0  0  0  0  0  0  0
   -2.2347    3.3823   13.7279 H   0  0  0  0  0  0  0  0  0  0  0  0
   -2.2108    1.7822   13.7466 H   0  0  0  0  0  0  0  0  0  0  0  0
   -2.5989    2.5611   12.4035 H   0  0  0  0  0  0  0  0  0  0  0  0
    4.8825    5.4057   12.2239 C   0  0  0  0  0  0  0  0  0  0  0  0
    3.5900    5.9818   12.1470 C   0  0  0  0  0  0  0  0  0  0  0  0
    3.5081    7.3745   12.2708 C   0  0  0  0  0  0  0  0  0  0  0  0
    2.6515    7.7851   12.2700 H   0  0  0  0  0  0  0  0  0  0  0  0
    4.6404    8.1791   12.3955 C   0  0  0  0  0  0  0  0  0  0  0  0
    4.5514    9.1239   12.4496 H   0  0  0  0  0  0  0  0  0  0  0  0
    5.8903    7.5970   12.4395 C   0  0  0  0  0  0  0  0  0  0  0  0
    6.6673    8.1381   12.5142 H   0  0  0  0  0  0  0  0  0  0  0  0
    6.0063    6.2134   12.3738 C   0  0  0  0  0  0  0  0  0  0  0  0
    6.8658    5.8128   12.4322 H   0  0  0  0  0  0  0  0  0  0  0  0
    4.5299    3.0493   13.8339 C   0  0  0  0  0  0  0  0  0  0  0  0
    4.8741    3.7703   14.9816 C   0  0  0  0  0  0  0  0  0  0  0  0
    5.3815    4.5702   14.9073 H   0  0  0  0  0  0  0  0  0  0  0  0
    4.4716    3.3141   16.2301 C   0  0  0  0  0  0  0  0  0  0  0  0
    4.7218    3.7931   17.0116 H   0  0  0  0  0  0  0  0  0  0  0  0
    3.7071    2.1641   16.3412 C   0  0  0  0  0  0  0  0  0  0  0  0
    3.4130    1.8705   17.1955 H   0  0  0  0  0  0  0  0  0  0  0  0
    3.3729    1.4461   15.2147 C   0  0  0  0  0  0  0  0  0  0  0  0
    2.8589    0.6511   15.2957 H   0  0  0  0  0  0  0  0  0  0  0  0
    3.7862    1.8801   13.9553 C   0  0  0  0  0  0  0  0  0  0  0  0
    3.5596    1.3787   13.1812 H   0  0  0  0  0  0  0  0  0  0  0  0
    6.8510    3.2809   12.1305 C   0  0  0  0  0  0  0  0  0  0  0  0
    7.5558    2.8066   13.2285 C   0  0  0  0  0  0  0  0  0  0  0  0
    7.0961    2.6099   14.0363 H   0  0  0  0  0  0  0  0  0  0  0  0
    8.9340    2.6183   13.1514 C   0  0  0  0  0  0  0  0  0  0  0  0
    9.4128    2.3060   13.9103 H   0  0  0  0  0  0  0  0  0  0  0  0
    9.6077    2.8841   11.9705 C   0  0  0  0  0  0  0  0  0  0  0  0
   10.5478    2.7565   11.9208 H   0  0  0  0  0  0  0  0  0  0  0  0
    8.9095    3.3373   10.8606 C   0  0  0  0  0  0  0  0  0  0  0  0
    9.3697    3.5132   10.0481 H   0  0  0  0  0  0  0  0  0  0  0  0
    7.5340    3.5347   10.9390 C   0  0  0  0  0  0  0  0  0  0  0  0
    7.0570    3.8431   10.1777 H   0  0  0  0  0  0  0  0  0  0  0  0
    0.7555    3.3081   10.9801 B   0  0  0  0  0  0  0  0  0  0  0  0
    2.2129    5.2094   11.9341 B   0  0  0  0  0  0  0  0  0  0  0  0
    0.4687    5.3977   12.3201 H   0  0  0  0  0  0  0  0  0  0  0  0
  1  2  1  0  0  0  0
  2 12  1  0  0  0  0
  3  1  1  0  0  0  0
  4  1  1  0  0  0  0
  5 44  1  0  0  0  0
  6 45  1  0  0  0  0
  7 95  1  0  0  0  0
  8  1  1  0  0  0  0
  9  8  1  0  0  0  0
 10  8  1  0  0  0  0
 11  8  1  0  0  0  0
 12 13  4  0  0  0  0
 13 14  4  0  0  0  0
 14 15  1  0  0  0  0
 16 14  4  0  0  0  0
 17 16  1  0  0  0  0
 18 16  4  0  0  0  0
 19 18  1  0  0  0  0
 20 12  4  0  0  0  0
 21 20  1  0  0  0  0
 22  2  1  0  0  0  0
 23 22  4  0  0  0  0
 24 23  1  0  0  0  0
 25 23  4  0  0  0  0
 26 25  1  0  0  0  0
 27 25  4  0  0  0  0
 28 27  1  0  0  0  0
 29 27  4  0  0  0  0
 30 29  1  0  0  0  0
 31 22  4  0  0  0  0
 32 31  1  0  0  0  0
 33  2  1  0  0  0  0
 34 33  4  0  0  0  0
 35 34  1  0  0  0  0
 36 34  4  0  0  0  0
 37 36  1  0  0  0  0
 38 36  4  0  0  0  0
 39 38  1  0  0  0  0
 40 38  4  0  0  0  0
 41 40  1  0  0  0  0
 42 33  4  0  0  0  0
 43 42  1  0  0  0  0
 44 45  1  0  0  0  0
 45 54  1  0  0  0  0
 46 44  1  0  0  0  0
 47 46  1  0  0  0  0
 48 46  1  0  0  0  0
 49 46  1  0  0  0  0
 50 44  1  0  0  0  0
 51 50  1  0  0  0  0
 52 50  1  0  0  0  0
 53 50  1  0  0  0  0
 54 55  1  0  0  0  0
 56 54  1  0  0  0  0
 57 54  1  0  0  0  0
 58 45  1  0  0  0  0
 59 58  1  0  0  0  0
 60 58  1  0  0  0  0
 61 58  1  0  0  0  0
 62  3  1  0  0  0  0
 63 62  4  0  0  0  0
 64 63  4  0  0  0  0
 65 64  1  0  0  0  0
 66 64  4  0  0  0  0
 67 66  1  0  0  0  0
 68 66  4  0  0  0  0
 69 68  1  0  0  0  0
 70 62  4  0  0  0  0
 71 70  1  0  0  0  0
 72  3  1  0  0  0  0
 73 72  4  0  0  0  0
 74 73  1  0  0  0  0
 75 73  4  0  0  0  0
 76 75  1  0  0  0  0
 77 75  4  0  0  0  0
 78 77  1  0  0  0  0
 79 77  4  0  0  0  0
 80 79  1  0  0  0  0
 81 72  4  0  0  0  0
 82 81  1  0  0  0  0
 83  3  1  0  0  0  0
 84 83  4  0  0  0  0
 85 84  1  0  0  0  0
 86 84  4  0  0  0  0
 87 86  1  0  0  0  0
 88 86  4  0  0  0  0
 89 88  1  0  0  0  0
 90 88  4  0  0  0  0
 91 90  1  0  0  0  0
 92 83  4  0  0  0  0
 93 92  1  0  0  0  0
 94  4  1  0  0  0  0
 95  4  1  0  0  0  0
 96  7  1  0  0  0  0
  5 94  1  0  0  0  0
  6 94  1  0  0  0  0
 13 94  1  0  0  0  0
 18 20  4  0  0  0  0
 29 31  4  0  0  0  0
 40 42  4  0  0  0  0
 63 95  1  0  0  0  0
 68 70  4  0  0  0  0
 79 81  4  0  0  0  0
 90 92  4  0  0  0  0
M  END
$$$$
VIDNAB

From CSD data. Using bond type 'Any'. No disordered atoms. Largest molecule.
 97105  0  0  0  0  0  0  0  0999 V2000
    3.6138    7.3145   10.3849 Pd  0  0  0  0  0  0  0  0  0  0  0  0
    2.3792    7.8616    8.5055 P   0  0  0  0  0  0  0  0  0  0  0  0
    4.9777    6.5739   12.0826 P   0  0  0  0  0  0  0  0  0  0  0  0
    2.0248    6.1153   11.2660 O   0  0  0  0  0  0  0  0  0  0  0  0
    0.8818    8.2126   11.1063 O   0  0  0  0  0  0  0  0  0  0  0  0
   -0.4146    6.4156   11.8666 O   0  0  0  0  0  0  0  0  0  0  0  0
    1.0545    4.2463   12.3482 O   0  0  0  0  0  0  0  0  0  0  0  0
    5.0597    8.3955    9.5390 C   0  0  0  0  0  0  0  0  0  0  0  0
    5.6171    7.9011    8.9492 H   0  0  0  0  0  0  0  0  0  0  0  0
    5.3680    9.5985    9.6400 C   0  0  0  0  0  0  0  0  0  0  0  0
    4.8666   10.1711   10.2083 H   0  0  0  0  0  0  0  0  0  0  0  0
    6.1052    9.9426    9.1494 H   0  0  0  0  0  0  0  0  0  0  0  0
    1.0025    6.6917    8.2711 C   0  0  0  0  0  0  0  0  0  0  0  0
    0.2771    6.3113    9.4164 C   0  0  0  0  0  0  0  0  0  0  0  0
   -0.8583    5.5100    9.1996 C   0  0  0  0  0  0  0  0  0  0  0  0
   -1.3813    5.2452    9.9471 H   0  0  0  0  0  0  0  0  0  0  0  0
   -1.2419    5.0931    7.9320 C   0  0  0  0  0  0  0  0  0  0  0  0
   -2.0250    4.5667    7.8228 H   0  0  0  0  0  0  0  0  0  0  0  0
   -0.4795    5.4463    6.8185 C   0  0  0  0  0  0  0  0  0  0  0  0
   -0.7180    5.1352    5.9531 H   0  0  0  0  0  0  0  0  0  0  0  0
    0.6313    6.2567    6.9935 C   0  0  0  0  0  0  0  0  0  0  0  0
    1.1453    6.5198    6.2392 H   0  0  0  0  0  0  0  0  0  0  0  0
    1.5908    9.5054    8.4114 C   0  0  0  0  0  0  0  0  0  0  0  0
    0.5940    9.7401    7.4619 C   0  0  0  0  0  0  0  0  0  0  0  0
    0.3658    9.0650    6.8342 H   0  0  0  0  0  0  0  0  0  0  0  0
   -0.0647   10.9664    7.4371 C   0  0  0  0  0  0  0  0  0  0  0  0
   -0.7449   11.1260    6.7932 H   0  0  0  0  0  0  0  0  0  0  0  0
    0.2696   11.9569    8.3502 C   0  0  0  0  0  0  0  0  0  0  0  0
   -0.1841   12.7918    8.3336 H   0  0  0  0  0  0  0  0  0  0  0  0
    1.2621   11.7282    9.2823 C   0  0  0  0  0  0  0  0  0  0  0  0
    1.4971   12.4114    9.8995 H   0  0  0  0  0  0  0  0  0  0  0  0
    1.9210   10.5010    9.3229 C   0  0  0  0  0  0  0  0  0  0  0  0
    2.5956   10.3447    9.9733 H   0  0  0  0  0  0  0  0  0  0  0  0
    3.3862    7.7470    6.9929 C   0  0  0  0  0  0  0  0  0  0  0  0
    3.7586    8.8811    6.2731 C   0  0  0  0  0  0  0  0  0  0  0  0
    3.4107    9.7305    6.5162 H   0  0  0  0  0  0  0  0  0  0  0  0
    4.6387    8.7739    5.1990 C   0  0  0  0  0  0  0  0  0  0  0  0
    4.8881    9.5510    4.7136 H   0  0  0  0  0  0  0  0  0  0  0  0
    5.1511    7.5426    4.8349 C   0  0  0  0  0  0  0  0  0  0  0  0
    5.7455    7.4711    4.0973 H   0  0  0  0  0  0  0  0  0  0  0  0
    4.7911    6.4084    5.5543 C   0  0  0  0  0  0  0  0  0  0  0  0
    5.1408    5.5607    5.3064 H   0  0  0  0  0  0  0  0  0  0  0  0
    3.9254    6.5086    6.6309 C   0  0  0  0  0  0  0  0  0  0  0  0
    3.6966    5.7312    7.1265 H   0  0  0  0  0  0  0  0  0  0  0  0
   -0.2273    8.7446   11.8528 C   0  0  0  0  0  0  0  0  0  0  0  0
   -0.6318    7.5436   12.7477 C   0  0  0  0  0  0  0  0  0  0  0  0
   -1.3248    9.1361   10.8505 C   0  0  0  0  0  0  0  0  0  0  0  0
   -0.9531    9.7472   10.1808 H   0  0  0  0  0  0  0  0  0  0  0  0
   -2.0585    9.5791   11.3258 H   0  0  0  0  0  0  0  0  0  0  0  0
   -1.6630    8.3307   10.4059 H   0  0  0  0  0  0  0  0  0  0  0  0
    0.2464    9.9708   12.6193 C   0  0  0  0  0  0  0  0  0  0  0  0
    1.0823    9.7608   13.0859 H   0  0  0  0  0  0  0  0  0  0  0  0
   -0.4359   10.2311   13.2725 H   0  0  0  0  0  0  0  0  0  0  0  0
    0.3983   10.7088   11.9931 H   0  0  0  0  0  0  0  0  0  0  0  0
   -2.0902    7.5709   13.1909 C   0  0  0  0  0  0  0  0  0  0  0  0
   -2.6716    7.5702   12.4020 H   0  0  0  0  0  0  0  0  0  0  0  0
   -2.2562    8.3800   13.7183 H   0  0  0  0  0  0  0  0  0  0  0  0
   -2.2806    6.7800   13.7375 H   0  0  0  0  0  0  0  0  0  0  0  0
    0.2701    7.3757   13.9691 C   0  0  0  0  0  0  0  0  0  0  0  0
    0.0496    6.5374   14.4257 H   0  0  0  0  0  0  0  0  0  0  0  0
    0.1322    8.1279   14.5823 H   0  0  0  0  0  0  0  0  0  0  0  0
    1.2071    7.3556   13.6829 H   0  0  0  0  0  0  0  0  0  0  0  0
    4.8189    4.7481   12.1962 C   0  0  0  0  0  0  0  0  0  0  0  0
    3.5336    4.1634   12.1174 C   0  0  0  0  0  0  0  0  0  0  0  0
    3.4593    2.7752   12.2877 C   0  0  0  0  0  0  0  0  0  0  0  0
    2.6078    2.3546   12.2670 H   0  0  0  0  0  0  0  0  0  0  0  0
    4.5929    1.9911   12.4862 C   0  0  0  0  0  0  0  0  0  0  0  0
    4.5086    1.0497   12.5822 H   0  0  0  0  0  0  0  0  0  0  0  0
    5.8382    2.5810   12.5436 C   0  0  0  0  0  0  0  0  0  0  0  0
    6.6142    2.0484   12.6716 H   0  0  0  0  0  0  0  0  0  0  0  0
    5.9516    3.9640   12.4128 C   0  0  0  0  0  0  0  0  0  0  0  0
    6.8061    4.3750   12.4716 H   0  0  0  0  0  0  0  0  0  0  0  0
    4.4512    7.1460   13.7226 C   0  0  0  0  0  0  0  0  0  0  0  0
    3.7281    8.3358   13.8249 C   0  0  0  0  0  0  0  0  0  0  0  0
    3.5235    8.8335   13.0418 H   0  0  0  0  0  0  0  0  0  0  0  0
    3.3078    8.7951   15.0625 C   0  0  0  0  0  0  0  0  0  0  0  0
    2.8142    9.6044   15.1246 H   0  0  0  0  0  0  0  0  0  0  0  0
    3.6031    8.0808   16.2037 C   0  0  0  0  0  0  0  0  0  0  0  0
    3.3032    8.3934   17.0493 H   0  0  0  0  0  0  0  0  0  0  0  0
    4.3365    6.9092   16.1198 C   0  0  0  0  0  0  0  0  0  0  0  0
    4.5566    6.4299   16.9098 H   0  0  0  0  0  0  0  0  0  0  0  0
    4.7496    6.4347   14.8841 C   0  0  0  0  0  0  0  0  0  0  0  0
    5.2381    5.6213   14.8286 H   0  0  0  0  0  0  0  0  0  0  0  0
    6.7704    6.9022   12.0335 C   0  0  0  0  0  0  0  0  0  0  0  0
    7.4660    6.6047   10.8579 C   0  0  0  0  0  0  0  0  0  0  0  0
    7.0011    6.2429   10.1124 H   0  0  0  0  0  0  0  0  0  0  0  0
    8.8375    6.8344   10.7740 C   0  0  0  0  0  0  0  0  0  0  0  0
    9.3054    6.6336    9.9720 H   0  0  0  0  0  0  0  0  0  0  0  0
    9.5175    7.3554   11.8614 C   0  0  0  0  0  0  0  0  0  0  0  0
   10.4553    7.4990   11.8104 H   0  0  0  0  0  0  0  0  0  0  0  0
    8.8329    7.6681   13.0221 C   0  0  0  0  0  0  0  0  0  0  0  0
    9.2991    8.0396   13.7619 H   0  0  0  0  0  0  0  0  0  0  0  0
    7.4564    7.4404   13.1091 C   0  0  0  0  0  0  0  0  0  0  0  0
    6.9903    7.6542   13.9087 H   0  0  0  0  0  0  0  0  0  0  0  0
    0.6508    6.7838   10.9268 B   0  0  0  0  0  0  0  0  0  0  0  0
    2.1445    4.9100   11.8910 B   0  0  0  0  0  0  0  0  0  0  0  0
    0.4540    4.6743   12.2901 H   0  0  0  0  0  0  0  0  0  0  0  0
  1  2  1  0  0  0  0
  2 13  1  0  0  0  0
  3  1  1  0  0  0  0
  4  1  1  0  0  0  0
  5 45  1  0  0  0  0
  6 46  1  0  0  0  0
  7 96  1  0  0  0  0
  8  1  1  0  0  0  0
  9  8  1  0  0  0  0
 10  8  2  0  0  0  0
 11 10  1  0  0  0  0
 12 10  1  0  0  0  0
 13 14  4  0  0  0  0
 14 15  4  0  0  0  0
 15 16  1  0  0  0  0
 17 15  4  0  0  0  0
 18 17  1  0  0  0  0
 19 17  4  0  0  0  0
 20 19  1  0  0  0  0
 21 13  4  0  0  0  0
 22 21  1  0  0  0  0
 23  2  1  0  0  0  0
 24 23  4  0  0  0  0
 25 24  1  0  0  0  0
 26 24  4  0  0  0  0
 27 26  1  0  0  0  0
 28 26  4  0  0  0  0
 29 28  1  0  0  0  0
 30 28  4  0  0  0  0
 31 30  1  0  0  0  0
 32 23  4  0  0  0  0
 33 32  1  0  0  0  0
 34  2  1  0  0  0  0
 35 34  4  0  0  0  0
 36 35  1  0  0  0  0
 37 35  4  0  0  0  0
 38 37  1  0  0  0  0
 39 37  4  0  0  0  0
 40 39  1  0  0  0  0
 41 39  4  0  0  0  0
 42 41  1  0  0  0  0
 43 34  4  0  0  0  0
 44 43  1  0  0  0  0
 45 46  1  0  0  0  0
 46 55  1  0  0  0  0
 47 45  1  0  0  0  0
 48 47  1  0  0  0  0
 49 47  1  0  0  0  0
 50 47  1  0  0  0  0
 51 45  1  0  0  0  0
 52 51  1  0  0  0  0
 53 51  1  0  0  0  0
 54 51  1  0  0  0  0
 55 56  1  0  0  0  0
 57 55  1  0  0  0  0
 58 55  1  0  0  0  0
 59 46  1  0  0  0  0
 60 59  1  0  0  0  0
 61 59  1  0  0  0  0
 62 59  1  0  0  0  0
 63  3  1  0  0  0  0
 64 63  4  0  0  0  0
 65 64  4  0  0  0  0
 66 65  1  0  0  0  0
 67 65  4  0  0  0  0
 68 67  1  0  0  0  0
 69 67  4  0  0  0  0
 70 69  1  0  0  0  0
 71 63  4  0  0  0  0
 72 71  1  0  0  0  0
 73  3  1  0  0  0  0
 74 73  4  0  0  0  0
 75 74  1  0  0  0  0
 76 74  4  0  0  0  0
 77 76  1  0  0  0  0
 78 76  4  0  0  0  0
 79 78  1  0  0  0  0
 80 78  4  0  0  0  0
 81 80  1  0  0  0  0
 82 73  4  0  0  0  0
 83 82  1  0  0  0  0
 84  3  1  0  0  0  0
 85 84  4  0  0  0  0
 86 85  1  0  0  0  0
 87 85  4  0  0  0  0
 88 87  1  0  0  0  0
 89 87  4  0  0  0  0
 90 89  1  0  0  0  0
 91 89  4  0  0  0  0
 92 91  1  0  0  0  0
 93 84  4  0  0  0  0
 94 93  1  0  0  0  0
 95  4  1  0  0  0  0
 96  4  1  0  0  0  0
 97  7  1  0  0  0  0
  5 95  1  0  0  0  0
  6 95  1  0  0  0  0
 14 95  1  0  0  0  0
 19 21  4  0  0  0  0
 30 32  4  0  0  0  0
 41 43  4  0  0  0  0
 64 96  1  0  0  0  0
 69 71  4  0  0  0  0
 80 82  4  0  0  0  0
 91 93  4  0  0  0  0
M  END
$$$$
VIHFAT

From CSD data. Using bond type 'Any'. No disordered atoms. Largest molecule.
 51 56  0  0  0  0  0  0  0  0999 V2000
    7.1317    5.4091    4.7961 Pt  0  0  0  0  0  0  0  0  0  0  0  0
    5.2954    6.0017    6.0729 P   0  0  0  0  0  0  0  0  0  0  0  0
    7.5125    3.5766    6.1515 P   0  0  0  0  0  0  0  0  0  0  0  0
    4.5076    4.7193    6.4959 F   0  0  0  0  0  0  0  0  0  0  0  0
    7.2255    3.9739    7.6479 F   0  0  0  0  0  0  0  0  0  0  0  0
    3.0063    7.7636    3.6192 F   0  0  0  0  0  0  0  0  0  0  0  0
    4.0590    5.7571    3.2825 F   0  0  0  0  0  0  0  0  0  0  0  0
    4.2355    6.8513    5.3487 O   0  0  0  0  0  0  0  0  0  0  0  0
    8.9669    3.0803    6.2053 O   0  0  0  0  0  0  0  0  0  0  0  0
    4.0944    6.9969    3.8676 B   0  0  0  0  0  0  0  0  0  0  0  0
    5.6501    6.8054    7.6230 C   0  0  0  0  0  0  0  0  0  0  0  0
    4.6459    7.2182    8.5189 C   0  0  0  0  0  0  0  0  0  0  0  0
    5.0731    7.8409    9.6834 C   0  0  0  0  0  0  0  0  0  0  0  0
    6.4032    8.0115    9.9885 C   0  0  0  0  0  0  0  0  0  0  0  0
    7.3931    7.5883    9.1223 C   0  0  0  0  0  0  0  0  0  0  0  0
    6.9955    6.9920    7.9376 C   0  0  0  0  0  0  0  0  0  0  0  0
    3.1742    7.0103    8.2772 C   0  0  0  0  0  0  0  0  0  0  0  0
    8.8585    7.7273    9.4475 C   0  0  0  0  0  0  0  0  0  0  0  0
    6.4603    2.1589    5.9117 C   0  0  0  0  0  0  0  0  0  0  0  0
    6.5442    1.0155    6.7405 C   0  0  0  0  0  0  0  0  0  0  0  0
    5.6602   -0.0136    6.4431 C   0  0  0  0  0  0  0  0  0  0  0  0
    4.7656    0.0534    5.4168 C   0  0  0  0  0  0  0  0  0  0  0  0
    4.6669    1.1801    4.6168 C   0  0  0  0  0  0  0  0  0  0  0  0
    5.5423    2.2312    4.8863 C   0  0  0  0  0  0  0  0  0  0  0  0
    7.4955    0.8730    7.8935 C   0  0  0  0  0  0  0  0  0  0  0  0
    3.6571    1.2804    3.5069 C   0  0  0  0  0  0  0  0  0  0  0  0
    8.9679    4.8165    3.5194 P   0  0  0  0  0  0  0  0  0  0  0  0
    6.7509    7.2416    3.4408 P   0  0  0  0  0  0  0  0  0  0  0  0
   10.1689    3.8213    5.7247 B   0  0  0  0  0  0  0  0  0  0  0  0
    5.2964    7.7379    3.3870 O   0  0  0  0  0  0  0  0  0  0  0  0
    9.7557    6.0989    3.0964 F   0  0  0  0  0  0  0  0  0  0  0  0
   10.0279    3.9668    4.2436 O   0  0  0  0  0  0  0  0  0  0  0  0
    8.6132    4.0128    1.9693 C   0  0  0  0  0  0  0  0  0  0  0  0
    7.0378    6.8443    1.9444 F   0  0  0  0  0  0  0  0  0  0  0  0
    7.8030    8.6592    3.6806 C   0  0  0  0  0  0  0  0  0  0  0  0
   11.2570    3.0546    5.9731 F   0  0  0  0  0  0  0  0  0  0  0  0
   10.2044    5.0611    6.3098 F   0  0  0  0  0  0  0  0  0  0  0  0
    9.6174    3.6000    1.0734 C   0  0  0  0  0  0  0  0  0  0  0  0
    7.2678    3.8262    1.6547 C   0  0  0  0  0  0  0  0  0  0  0  0
    7.7191    9.8026    2.8518 C   0  0  0  0  0  0  0  0  0  0  0  0
    8.7211    8.5870    4.7060 C   0  0  0  0  0  0  0  0  0  0  0  0
    9.1903    2.9773   -0.0911 C   0  0  0  0  0  0  0  0  0  0  0  0
   11.0892    3.8078    1.3151 C   0  0  0  0  0  0  0  0  0  0  0  0
    6.8702    3.2298    0.4700 C   0  0  0  0  0  0  0  0  0  0  0  0
    8.6031   10.8318    3.1492 C   0  0  0  0  0  0  0  0  0  0  0  0
    6.7679    9.9452    1.6988 C   0  0  0  0  0  0  0  0  0  0  0  0
    9.5964    9.6380    4.9755 C   0  0  0  0  0  0  0  0  0  0  0  0
    7.8601    2.8067   -0.3962 C   0  0  0  0  0  0  0  0  0  0  0  0
    5.4049    3.0909    0.1448 C   0  0  0  0  0  0  0  0  0  0  0  0
    9.4977   10.7648    4.1755 C   0  0  0  0  0  0  0  0  0  0  0  0
   10.6062    9.5377    6.0854 C   0  0  0  0  0  0  0  0  0  0  0  0
  1  2  1  0  0  0  0
  2  4  1  0  0  0  0
  3  1  1  0  0  0  0
  5  3  1  0  0  0  0
  6 10  1  0  0  0  0
  7 10  1  0  0  0  0
  8  2  1  0  0  0  0
  9  3  1  0  0  0  0
 10  8  1  0  0  0  0
 11  2  1  0  0  0  0
 12 11  4  0  0  0  0
 13 12  4  0  0  0  0
 14 13  4  0  0  0  0
 15 14  4  0  0  0  0
 16 11  4  0  0  0  0
 17 12  1  0  0  0  0
 18 15  1  0  0  0  0
 19  3  1  0  0  0  0
 20 19  4  0  0  0  0
 21 20  4  0  0  0  0
 22 21  4  0  0  0  0
 23 22  4  0  0  0  0
 24 19  4  0  0  0  0
 25 20  1  0  0  0  0
 26 23  1  0  0  0  0
 27  1  1  0  0  0  0
 28  1  1  0  0  0  0
 29  9  1  0  0  0  0
 30 10  1  0  0  0  0
 31 27  1  0  0  0  0
 32 27  1  0  0  0  0
 33 27  1  0  0  0  0
 34 28  1  0  0  0  0
 35 28  1  0  0  0  0
 36 29  1  0  0  0  0
 37 29  1  0  0  0  0
 38 33  4  0  0  0  0
 39 33  4  0  0  0  0
 40 35  4  0  0  0  0
 41 35  4  0  0  0  0
 42 38  4  0  0  0  0
 43 38  1  0  0  0  0
 44 39  4  0  0  0  0
 45 40  4  0  0  0  0
 46 40  1  0  0  0  0
 47 41  4  0  0  0  0
 48 42  4  0  0  0  0
 49 44  1  0  0  0  0
 50 45  4  0  0  0  0
 51 47  1  0  0  0  0
 15 16  4  0  0  0  0
 23 24  4  0  0  0  0
 28 30  1  0  0  0  0
 29 32  1  0  0  0  0
 44 48  4  0  0  0  0
 47 50  4  0  0  0  0
M  END
$$$$
VIJHAB

From CSD data. Using bond type 'Any'. No disordered atoms. Largest molecule.
 87113  0  0  0  0  0  0  0  0999 V2000
    2.6626    4.0077    3.3761 Ta  0  0  0  0  0  0  0  0  0  0  0  0
    4.6830    4.5344    5.1825 P   0  0  0  0  0  0  0  0  0  0  0  0
    3.3224    1.6890    4.3945 P   0  0  0  0  0  0  0  0  0  0  0  0
    1.8462    4.0822    5.2658 O   0  0  0  0  0  0  0  0  0  0  0  0
    2.3729    7.3309    2.1968 C   0  0  0  0  0  0  0  0  0  0  0  0
    1.9385    6.2537    3.4626 C   0  0  0  0  0  0  0  0  0  0  0  0
    0.7266    3.1671    3.1369 C   0  0  0  0  0  0  0  0  0  0  0  0
    3.2716    6.7076    1.0887 C   0  0  0  0  0  0  0  0  0  0  0  0
    4.6701    7.3568    1.0571 C   0  0  0  0  0  0  0  0  0  0  0  0
    4.5833    8.2987    0.8942 H   0  0  0  0  0  0  0  0  0  0  0  0
    5.1089    7.2155    1.8983 H   0  0  0  0  0  0  0  0  0  0  0  0
    5.1915    6.9586    0.3540 H   0  0  0  0  0  0  0  0  0  0  0  0
    2.6585    6.9153   -0.3059 C   0  0  0  0  0  0  0  0  0  0  0  0
    2.5572    7.8551   -0.4747 H   0  0  0  0  0  0  0  0  0  0  0  0
    3.2348    6.5310   -0.9698 H   0  0  0  0  0  0  0  0  0  0  0  0
    1.7981    6.4897   -0.3438 H   0  0  0  0  0  0  0  0  0  0  0  0
    3.4259    5.2248    1.3438 C   0  0  0  0  0  0  0  0  0  0  0  0
    4.5452    4.5669    1.8879 C   0  0  0  0  0  0  0  0  0  0  0  0
    5.3769    5.0033    2.1677 H   0  0  0  0  0  0  0  0  0  0  0  0
    4.3277    3.1819    1.8649 C   0  0  0  0  0  0  0  0  0  0  0  0
    4.9962    2.4955    2.0710 H   0  0  0  0  0  0  0  0  0  0  0  0
    3.0513    2.9469    1.3119 C   0  0  0  0  0  0  0  0  0  0  0  0
    2.6942    2.0783    1.0326 H   0  0  0  0  0  0  0  0  0  0  0  0
    2.4998    4.2194    0.9989 C   0  0  0  0  0  0  0  0  0  0  0  0
    1.6681    4.3658    0.5019 H   0  0  0  0  0  0  0  0  0  0  0  0
    0.0147    2.5549    1.9517 C   0  0  0  0  0  0  0  0  0  0  0  0
    0.4373    2.8667    1.1374 H   0  0  0  0  0  0  0  0  0  0  0  0
   -0.9047    2.8665    1.9448 H   0  0  0  0  0  0  0  0  0  0  0  0
    0.0147    1.0128    1.9517 C   0  0  0  0  0  0  0  0  0  0  0  0
   -0.4520    0.6924    1.1776 H   0  0  0  0  0  0  0  0  0  0  0  0
    0.9195    0.6933    1.9369 H   0  0  0  0  0  0  0  0  0  0  0  0
   -0.4238    0.6931    2.7450 H   0  0  0  0  0  0  0  0  0  0  0  0
   -1.5062    2.7021    4.4851 C   0  0  0  0  0  0  0  0  0  0  0  0
   -1.6848    2.0244    3.8134 H   0  0  0  0  0  0  0  0  0  0  0  0
   -1.6459    2.2989    5.3555 H   0  0  0  0  0  0  0  0  0  0  0  0
   -2.4889    3.8398    4.3080 C   0  0  0  0  0  0  0  0  0  0  0  0
   -3.3841    3.5047    4.3888 H   0  0  0  0  0  0  0  0  0  0  0  0
   -2.3322    4.5051    4.9806 H   0  0  0  0  0  0  0  0  0  0  0  0
   -2.3712    4.2305    3.4376 H   0  0  0  0  0  0  0  0  0  0  0  0
    4.8963    1.7969    5.3562 C   0  0  0  0  0  0  0  0  0  0  0  0
    4.9608    1.0342    5.9511 H   0  0  0  0  0  0  0  0  0  0  0  0
    5.6480    1.7644    4.7443 H   0  0  0  0  0  0  0  0  0  0  0  0
    3.6782    0.2659    3.3277 C   0  0  0  0  0  0  0  0  0  0  0  0
    4.2875    0.5294    2.6353 H   0  0  0  0  0  0  0  0  0  0  0  0
    4.0716   -0.4358    3.8516 H   0  0  0  0  0  0  0  0  0  0  0  0
    2.8614   -0.0495    2.9330 H   0  0  0  0  0  0  0  0  0  0  0  0
    2.1922    0.9312    5.5658 C   0  0  0  0  0  0  0  0  0  0  0  0
    1.9125    1.5854    6.2087 H   0  0  0  0  0  0  0  0  0  0  0  0
    1.4252    0.5943    5.0960 H   0  0  0  0  0  0  0  0  0  0  0  0
    2.6354    0.2080    6.0146 H   0  0  0  0  0  0  0  0  0  0  0  0
    6.3721    4.9330    4.6534 C   0  0  0  0  0  0  0  0  0  0  0  0
    6.6131    4.3785    3.9083 H   0  0  0  0  0  0  0  0  0  0  0  0
    6.4163    5.8560    4.3938 H   0  0  0  0  0  0  0  0  0  0  0  0
    6.9800    4.7755    5.3798 H   0  0  0  0  0  0  0  0  0  0  0  0
    4.4910    5.6898    6.5579 C   0  0  0  0  0  0  0  0  0  0  0  0
    3.6168    5.5851    6.9436 H   0  0  0  0  0  0  0  0  0  0  0  0
    5.1572    5.5079    7.2245 H   0  0  0  0  0  0  0  0  0  0  0  0
    4.5935    6.5884    6.2385 H   0  0  0  0  0  0  0  0  0  0  0  0
    4.9631    3.0013    6.1239 C   0  0  0  0  0  0  0  0  0  0  0  0
    5.8375    3.0521    6.5399 H   0  0  0  0  0  0  0  0  0  0  0  0
    4.3038    2.9515    6.8326 H   0  0  0  0  0  0  0  0  0  0  0  0
    3.0402    7.5522    3.7204 B   0  0  0  0  0  0  0  0  0  0  0  0
    4.0995    7.3597    3.9423 H   0  0  0  0  0  0  0  0  0  0  0  0
   -0.0491    3.1386    4.3697 C   0  0  0  0  0  0  0  0  0  0  0  0
    2.5559    8.9385    2.7489 B   0  0  0  0  0  0  0  0  0  0  0  0
    3.2845    9.6533    2.3385 H   0  0  0  0  0  0  0  0  0  0  0  0
    0.5945    3.6395    5.4400 C   0  0  0  0  0  0  0  0  0  0  0  0
    1.1245    8.4525    1.8454 B   0  0  0  0  0  0  0  0  0  0  0  0
    0.9168    8.8537    0.8415 H   0  0  0  0  0  0  0  0  0  0  0  0
    0.0870    3.8200    6.8443 C   0  0  0  0  0  0  0  0  0  0  0  0
   -0.8099    3.4842    6.9047 H   0  0  0  0  0  0  0  0  0  0  0  0
    0.6516    3.3372    7.4523 H   0  0  0  0  0  0  0  0  0  0  0  0
    0.0967    4.7525    7.0694 H   0  0  0  0  0  0  0  0  0  0  0  0
    0.7677    6.7583    2.2824 B   0  0  0  0  0  0  0  0  0  0  0  0
    0.3350    6.0490    1.5618 H   0  0  0  0  0  0  0  0  0  0  0  0
    1.7588    7.1998    4.8926 B   0  0  0  0  0  0  0  0  0  0  0  0
    1.9606    6.7920    5.8952 H   0  0  0  0  0  0  0  0  0  0  0  0
    2.1565    8.8878    4.4645 B   0  0  0  0  0  0  0  0  0  0  0  0
    2.6283    9.5719    5.1856 H   0  0  0  0  0  0  0  0  0  0  0  0
    0.9472    9.4468    3.2922 B   0  0  0  0  0  0  0  0  0  0  0  0
    0.6179   10.4954    3.2485 H   0  0  0  0  0  0  0  0  0  0  0  0
   -0.1597    8.0889    2.9822 B   0  0  0  0  0  0  0  0  0  0  0  0
   -1.2160    8.2543    2.7232 H   0  0  0  0  0  0  0  0  0  0  0  0
    0.3446    6.7125    3.9832 B   0  0  0  0  0  0  0  0  0  0  0  0
   -0.3791    5.9870    4.3807 H   0  0  0  0  0  0  0  0  0  0  0  0
    0.4630    8.3783    4.6150 B   0  0  0  0  0  0  0  0  0  0  0  0
   -0.1800    8.7420    5.4287 H   0  0  0  0  0  0  0  0  0  0  0  0
  1  2  1  0  0  0  0
  2 51  1  0  0  0  0
  3  1  1  0  0  0  0
  4  1  1  0  0  0  0
  5  6  1  0  0  0  0
  6  1  1  0  0  0  0
  7  1  2  0  0  0  0
  8  5  1  0  0  0  0
  9  8  1  0  0  0  0
 10  9  1  0  0  0  0
 11  9  1  0  0  0  0
 12  9  1  0  0  0  0
 13  8  1  0  0  0  0
 14 13  1  0  0  0  0
 15 13  1  0  0  0  0
 16 13  1  0  0  0  0
 17  1  8  0  0  0  0
 18  1  8  0  0  0  0
 19 18  1  0  0  0  0
 20  1  8  0  0  0  0
 21 20  1  0  0  0  0
 22  1  8  0  0  0  0
 23 22  1  0  0  0  0
 24  1  8  0  0  0  0
 25 24  1  0  0  0  0
 26  7  1  0  0  0  0
 27 26  1  0  0  0  0
 28 26  1  0  0  0  0
 29 26  1  0  0  0  0
 30 29  1  0  0  0  0
 31 29  1  0  0  0  0
 32 29  1  0  0  0  0
 33 34  1  0  0  0  0
 35 33  1  0  0  0  0
 36 33  1  0  0  0  0
 37 36  1  0  0  0  0
 38 36  1  0  0  0  0
 39 36  1  0  0  0  0
 40  3  1  0  0  0  0
 41 40  1  0  0  0  0
 42 40  1  0  0  0  0
 43  3  1  0  0  0  0
 44 43  1  0  0  0  0
 45 43  1  0  0  0  0
 46 43  1  0  0  0  0
 47  3  1  0  0  0  0
 48 47  1  0  0  0  0
 49 47  1  0  0  0  0
 50 47  1  0  0  0  0
 51 52  1  0  0  0  0
 53 51  1  0  0  0  0
 54 51  1  0  0  0  0
 55  2  1  0  0  0  0
 56 55  1  0  0  0  0
 57 55  1  0  0  0  0
 58 55  1  0  0  0  0
 59  2  1  0  0  0  0
 60 59  1  0  0  0  0
 61 59  1  0  0  0  0
 62  5  1  0  0  0  0
 63 62  1  0  0  0  0
 64  7  1  0  0  0  0
 65  5  1  0  0  0  0
 66 65  1  0  0  0  0
 67  4  1  0  0  0  0
 68  5  1  0  0  0  0
 69 68  1  0  0  0  0
 70 67  1  0  0  0  0
 71 70  1  0  0  0  0
 72 70  1  0  0  0  0
 73 70  1  0  0  0  0
 74  5  1  0  0  0  0
 75 74  1  0  0  0  0
 76  6  1  0  0  0  0
 77 76  1  0  0  0  0
 78 62  1  0  0  0  0
 79 78  1  0  0  0  0
 80 65  1  0  0  0  0
 81 80  1  0  0  0  0
 82 68  1  0  0  0  0
 83 82  1  0  0  0  0
 84  6  1  0  0  0  0
 85 84  1  0  0  0  0
 86 76  1  0  0  0  0
 87 86  1  0  0  0  0
  6 62  1  0  0  0  0
  6 74  1  0  0  0  0
  8 17  1  0  0  0  0
 17 18  4  0  0  0  0
 17 24  4  0  0  0  0
 18 20  4  0  0  0  0
 20 22  4  0  0  0  0
 22 24  4  0  0  0  0
 33 64  1  0  0  0  0
 40 59  1  0  0  0  0
 62 65  1  0  0  0  0
 62 76  1  0  0  0  0
 64 67  2  0  0  0  0
 65 68  1  0  0  0  0
 65 78  1  0  0  0  0
 68 74  1  0  0  0  0
 68 80  1  0  0  0  0
 74 82  1  0  0  0  0
 74 84  1  0  0  0  0
 76 78  1  0  0  0  0
 76 84  1  0  0  0  0
 78 80  1  0  0  0  0
 78 86  1  0  0  0  0
 80 82  1  0  0  0  0
 80 86  1  0  0  0  0
 82 84  1  0  0  0  0
 82 86  1  0  0  0  0
 84 86  1  0  0  0  0
M  END
$$$$
VIJVES

From CSD data. Using bond type 'Any'. No disordered atoms. Largest molecule.
114120  0  0  0  0  0  0  0  0999 V2000
   -0.4728    3.0452    7.4608 P   0  3  0  0  0  0  0  0  0  0  0  0
    0.0301    3.7907   10.1046 O   0  0  0  0  0  0  0  0  0  0  0  0
    2.1185    2.8961   10.3417 O   0  0  0  0  0  0  0  0  0  0  0  0
    1.0540    3.1255    9.6301 C   0  0  0  0  0  0  0  0  0  0  0  0
   -0.8359    4.8147    7.4617 C   0  0  0  0  0  0  0  0  0  0  0  0
    0.9805    2.6596    8.3195 C   0  0  0  0  0  0  0  0  0  0  0  0
   -1.9391    2.1429    8.0225 C   0  0  0  0  0  0  0  0  0  0  0  0
    0.2367    5.6814    7.2547 C   0  0  0  0  0  0  0  0  0  0  0  0
    1.1152    5.3338    7.1556 H   0  0  0  0  0  0  0  0  0  0  0  0
   -0.3072    2.5504    5.7209 C   0  0  0  0  0  0  0  0  0  0  0  0
   -1.9111    1.4664    9.2360 C   0  0  0  0  0  0  0  0  0  0  0  0
   -1.1318    1.4938    9.7786 H   0  0  0  0  0  0  0  0  0  0  0  0
   -2.1152    5.3284    7.6330 C   0  0  0  0  0  0  0  0  0  0  0  0
   -2.8488    4.7432    7.7816 H   0  0  0  0  0  0  0  0  0  0  0  0
    2.0469    1.7567    7.7536 C   0  0  0  0  0  0  0  0  0  0  0  0
    1.7170    0.8341    7.7339 H   0  0  0  0  0  0  0  0  0  0  0  0
    2.8481    1.8053    8.3157 H   0  0  0  0  0  0  0  0  0  0  0  0
    2.2685    2.0439    6.8432 H   0  0  0  0  0  0  0  0  0  0  0  0
    1.2963    5.8694   11.0260 C   0  0  0  0  0  0  0  0  0  0  0  0
    2.1343    5.3699   11.1945 H   0  0  0  0  0  0  0  0  0  0  0  0
    1.3161    6.1778   10.0855 H   0  0  0  0  0  0  0  0  0  0  0  0
   -0.1752    1.1973    5.4146 C   0  0  0  0  0  0  0  0  0  0  0  0
   -0.1677    0.5544    6.1140 H   0  0  0  0  0  0  0  0  0  0  0  0
   -0.3196    3.4770    4.6859 C   0  0  0  0  0  0  0  0  0  0  0  0
   -0.4118    4.4024    4.8798 H   0  0  0  0  0  0  0  0  0  0  0  0
   -3.0822    2.0789    7.2289 C   0  0  0  0  0  0  0  0  0  0  0  0
   -3.1028    2.5258    6.3908 H   0  0  0  0  0  0  0  0  0  0  0  0
    0.0231    7.0478    7.1934 C   0  0  0  0  0  0  0  0  0  0  0  0
    0.7524    7.6367    7.0391 H   0  0  0  0  0  0  0  0  0  0  0  0
   -1.3951    5.5643   11.1444 C   0  0  0  0  0  0  0  0  0  0  0  0
   -1.4759    6.1863   11.9104 H   0  0  0  0  0  0  0  0  0  0  0  0
   -1.4415    6.1050   10.3164 H   0  0  0  0  0  0  0  0  0  0  0  0
   -1.2515    7.5539    7.3569 C   0  0  0  0  0  0  0  0  0  0  0  0
   -1.3963    8.4917    7.3114 H   0  0  0  0  0  0  0  0  0  0  0  0
   -3.0241    0.7507    9.6529 C   0  0  0  0  0  0  0  0  0  0  0  0
   -3.0043    0.2902   10.4835 H   0  0  0  0  0  0  0  0  0  0  0  0
   -0.0547    0.7822    4.0983 C   0  0  0  0  0  0  0  0  0  0  0  0
    0.0392   -0.1417    3.8984 H   0  0  0  0  0  0  0  0  0  0  0  0
   -0.0712    1.7129    3.0754 C   0  0  0  0  0  0  0  0  0  0  0  0
    0.0046    1.4267    2.1727 H   0  0  0  0  0  0  0  0  0  0  0  0
   -0.1972    3.0529    3.3634 C   0  0  0  0  0  0  0  0  0  0  0  0
   -0.2009    3.6905    2.6592 H   0  0  0  0  0  0  0  0  0  0  0  0
   -2.3168    6.7060    7.5860 C   0  0  0  0  0  0  0  0  0  0  0  0
   -3.1883    7.0625    7.7117 H   0  0  0  0  0  0  0  0  0  0  0  0
   -2.5852    4.6164   11.1670 C   0  0  0  0  0  0  0  0  0  0  0  0
   -2.5184    3.9901   10.4164 H   0  0  0  0  0  0  0  0  0  0  0  0
   -3.4150    5.1324   11.0889 H   0  0  0  0  0  0  0  0  0  0  0  0
   -2.5893    4.1172   12.0102 H   0  0  0  0  0  0  0  0  0  0  0  0
   -4.1575    0.7030    8.8718 C   0  0  0  0  0  0  0  0  0  0  0  0
   -4.9175    0.2152    9.1668 H   0  0  0  0  0  0  0  0  0  0  0  0
   -4.1892    1.3652    7.6586 C   0  0  0  0  0  0  0  0  0  0  0  0
   -4.9704    1.3307    7.1192 H   0  0  0  0  0  0  0  0  0  0  0  0
    1.2655    7.0994   11.9450 C   0  0  0  0  0  0  0  0  0  0  0  0
    0.4899    7.6551   11.7211 H   0  0  0  0  0  0  0  0  0  0  0  0
    2.0867    7.6200   11.8219 H   0  0  0  0  0  0  0  0  0  0  0  0
    1.2002    6.8083   12.8785 H   0  0  0  0  0  0  0  0  0  0  0  0
    0.0491    4.8608   11.2115 B   0  5  0  0  0  0  0  0  0  0  0  0
    2.6795    3.9849   15.4564 P   0  3  0  0  0  0  0  0  0  0  0  0
    2.1766    3.2394   12.8125 O   0  0  0  0  0  0  0  0  0  0  0  0
    0.0882    4.1340   12.5755 O   0  0  0  0  0  0  0  0  0  0  0  0
    1.1528    3.9047   13.2870 C   0  0  0  0  0  0  0  0  0  0  0  0
    3.0426    2.2154   15.4555 C   0  0  0  0  0  0  0  0  0  0  0  0
    1.2262    4.3705   14.5977 C   0  0  0  0  0  0  0  0  0  0  0  0
    4.1459    4.8872   14.8947 C   0  0  0  0  0  0  0  0  0  0  0  0
    1.9701    1.3487   15.6625 C   0  0  0  0  0  0  0  0  0  0  0  0
    1.0916    1.6964   15.7616 H   0  0  0  0  0  0  0  0  0  0  0  0
    2.5139    4.4797   17.1963 C   0  0  0  0  0  0  0  0  0  0  0  0
    4.1178    5.5638   13.6812 C   0  0  0  0  0  0  0  0  0  0  0  0
    3.3385    5.5363   13.1386 H   0  0  0  0  0  0  0  0  0  0  0  0
    4.3220    1.7017   15.2842 C   0  0  0  0  0  0  0  0  0  0  0  0
    5.0556    2.2869   15.1356 H   0  0  0  0  0  0  0  0  0  0  0  0
    0.1599    5.2734   15.1636 C   0  0  0  0  0  0  0  0  0  0  0  0
    0.4897    6.1961   15.1833 H   0  0  0  0  0  0  0  0  0  0  0  0
   -0.6414    5.2248   14.6015 H   0  0  0  0  0  0  0  0  0  0  0  0
   -0.0617    4.9863   16.0740 H   0  0  0  0  0  0  0  0  0  0  0  0
    0.9104    1.1607   11.8912 C   0  0  0  0  0  0  0  0  0  0  0  0
    0.0724    1.6602   11.7227 H   0  0  0  0  0  0  0  0  0  0  0  0
    0.8906    0.8523   12.8317 H   0  0  0  0  0  0  0  0  0  0  0  0
    2.3819    5.8328   17.5025 C   0  0  0  0  0  0  0  0  0  0  0  0
    2.3744    6.4757   16.8032 H   0  0  0  0  0  0  0  0  0  0  0  0
    2.5263    3.5531   18.2313 C   0  0  0  0  0  0  0  0  0  0  0  0
    2.6186    2.6277   18.0373 H   0  0  0  0  0  0  0  0  0  0  0  0
    5.2890    4.9513   15.6883 C   0  0  0  0  0  0  0  0  0  0  0  0
    5.3095    4.5043   16.5264 H   0  0  0  0  0  0  0  0  0  0  0  0
    2.1836   -0.0177   15.7238 C   0  0  0  0  0  0  0  0  0  0  0  0
    1.4543   -0.6066   15.8781 H   0  0  0  0  0  0  0  0  0  0  0  0
    3.6019    1.4658   11.7728 C   0  0  0  0  0  0  0  0  0  0  0  0
    3.6826    0.8438   11.0068 H   0  0  0  0  0  0  0  0  0  0  0  0
    3.6482    0.9251   12.6008 H   0  0  0  0  0  0  0  0  0  0  0  0
    3.4583   -0.5238   15.5603 C   0  0  0  0  0  0  0  0  0  0  0  0
    3.6030   -1.4616   15.6058 H   0  0  0  0  0  0  0  0  0  0  0  0
    5.2308    6.2794   13.2642 C   0  0  0  0  0  0  0  0  0  0  0  0
    5.2110    6.7400   12.4337 H   0  0  0  0  0  0  0  0  0  0  0  0
    2.2614    6.2479   18.8189 C   0  0  0  0  0  0  0  0  0  0  0  0
    2.1675    7.1718   19.0188 H   0  0  0  0  0  0  0  0  0  0  0  0
    2.2779    5.3173   19.8418 C   0  0  0  0  0  0  0  0  0  0  0  0
    2.2021    5.6034   20.7445 H   0  0  0  0  0  0  0  0  0  0  0  0
    2.4040    3.9772   19.5537 C   0  0  0  0  0  0  0  0  0  0  0  0
    2.4076    3.3397   20.2580 H   0  0  0  0  0  0  0  0  0  0  0  0
    4.5235    0.3241   15.3311 C   0  0  0  0  0  0  0  0  0  0  0  0
    5.3950   -0.0324   15.2055 H   0  0  0  0  0  0  0  0  0  0  0  0
    4.7919    2.4137   11.7502 C   0  0  0  0  0  0  0  0  0  0  0  0
    4.7251    3.0400   12.5007 H   0  0  0  0  0  0  0  0  0  0  0  0
    5.6217    1.8977   11.8282 H   0  0  0  0  0  0  0  0  0  0  0  0
    4.7960    2.9129   10.9070 H   0  0  0  0  0  0  0  0  0  0  0  0
    6.3642    6.3271   14.0454 C   0  0  0  0  0  0  0  0  0  0  0  0
    7.1242    6.8149   13.7504 H   0  0  0  0  0  0  0  0  0  0  0  0
    6.3959    5.6650   15.2586 C   0  0  0  0  0  0  0  0  0  0  0  0
    7.1772    5.6995   15.7980 H   0  0  0  0  0  0  0  0  0  0  0  0
    0.9412   -0.0693   10.9722 C   0  0  0  0  0  0  0  0  0  0  0  0
    1.7168   -0.6249   11.1961 H   0  0  0  0  0  0  0  0  0  0  0  0
    0.1201   -0.5898   11.0953 H   0  0  0  0  0  0  0  0  0  0  0  0
    1.0065    0.2218   10.0387 H   0  0  0  0  0  0  0  0  0  0  0  0
    2.1576    2.1693   11.7056 B   0  5  0  0  0  0  0  0  0  0  0  0
  1  5  1  0  0  0  0
  2  4  1  0  0  0  0
  3  4  1  0  0  0  0
  4  6  2  0  0  0  0
  5  8  4  0  0  0  0
  6  1  1  0  0  0  0
  7  1  1  0  0  0  0
  8  9  1  0  0  0  0
 10  1  1  0  0  0  0
 11  7  4  0  0  0  0
 12 11  1  0  0  0  0
 13  5  4  0  0  0  0
 14 13  1  0  0  0  0
 15  6  1  0  0  0  0
 16 15  1  0  0  0  0
 17 15  1  0  0  0  0
 18 15  1  0  0  0  0
 19 20  1  0  0  0  0
 21 19  1  0  0  0  0
 22 10  4  0  0  0  0
 23 22  1  0  0  0  0
 24 10  4  0  0  0  0
 25 24  1  0  0  0  0
 26  7  4  0  0  0  0
 27 26  1  0  0  0  0
 28  8  4  0  0  0  0
 29 28  1  0  0  0  0
 30 31  1  0  0  0  0
 32 30  1  0  0  0  0
 33 28  4  0  0  0  0
 34 33  1  0  0  0  0
 35 11  4  0  0  0  0
 36 35  1  0  0  0  0
 37 22  4  0  0  0  0
 38 37  1  0  0  0  0
 39 37  4  0  0  0  0
 40 39  1  0  0  0  0
 41 24  4  0  0  0  0
 42 41  1  0  0  0  0
 43 13  4  0  0  0  0
 44 43  1  0  0  0  0
 45 30  1  0  0  0  0
 46 45  1  0  0  0  0
 47 45  1  0  0  0  0
 48 45  1  0  0  0  0
 49 35  4  0  0  0  0
 50 49  1  0  0  0  0
 51 26  4  0  0  0  0
 52 51  1  0  0  0  0
 53 19  1  0  0  0  0
 54 53  1  0  0  0  0
 55 53  1  0  0  0  0
 56 53  1  0  0  0  0
 57  2  1  0  0  0  0
 58 62  1  0  0  0  0
 59 61  1  0  0  0  0
 60 57  1  0  0  0  0
 61 60  1  0  0  0  0
 62 65  4  0  0  0  0
 63 58  1  0  0  0  0
 64 58  1  0  0  0  0
 65 66  1  0  0  0  0
 67 58  1  0  0  0  0
 68 64  4  0  0  0  0
 69 68  1  0  0  0  0
 70 62  4  0  0  0  0
 71 70  1  0  0  0  0
 72 63  1  0  0  0  0
 73 72  1  0  0  0  0
 74 72  1  0  0  0  0
 75 72  1  0  0  0  0
 76 77  1  0  0  0  0
 78 76  1  0  0  0  0
 79 67  4  0  0  0  0
 80 79  1  0  0  0  0
 81 67  4  0  0  0  0
 82 81  1  0  0  0  0
 83 64  4  0  0  0  0
 84 83  1  0  0  0  0
 85 65  4  0  0  0  0
 86 85  1  0  0  0  0
 87 88  1  0  0  0  0
 89 87  1  0  0  0  0
 90 85  4  0  0  0  0
 91 90  1  0  0  0  0
 92 68  4  0  0  0  0
 93 92  1  0  0  0  0
 94 79  4  0  0  0  0
 95 94  1  0  0  0  0
 96 94  4  0  0  0  0
 97 96  1  0  0  0  0
 98 81  4  0  0  0  0
 99 98  1  0  0  0  0
100 70  4  0  0  0  0
101100  1  0  0  0  0
102 87  1  0  0  0  0
103102  1  0  0  0  0
104102  1  0  0  0  0
105102  1  0  0  0  0
106 92  4  0  0  0  0
107106  1  0  0  0  0
108 83  4  0  0  0  0
109108  1  0  0  0  0
110 76  1  0  0  0  0
111110  1  0  0  0  0
112110  1  0  0  0  0
113110  1  0  0  0  0
114  3  1  0  0  0  0
 19 57  1  0  0  0  0
 30 57  1  0  0  0  0
 33 43  4  0  0  0  0
 39 41  4  0  0  0  0
 49 51  4  0  0  0  0
 59114  1  0  0  0  0
 61 63  2  0  0  0  0
 76114  1  0  0  0  0
 87114  1  0  0  0  0
 90100  4  0  0  0  0
 96 98  4  0  0  0  0
106108  4  0  0  0  0
M  CHG  4   1   1  57  -1  58   1 114  -1
M  END
$$$$
VIKRUC

From CSD data. Using bond type 'Any'. No disordered atoms. Largest molecule.
 81 86  0  0  0  0  0  0  0  0999 V2000
    3.6619    6.0516    2.2340 P   0  0  0  0  0  0  0  0  0  0  0  0
   -0.2798    8.0976    4.5500 P   0  0  0  0  0  0  0  0  0  0  0  0
    2.5676    5.7402    3.3775 O   0  0  0  0  0  0  0  0  0  0  0  0
    4.9428    7.4099    2.6335 B   0  0  0  0  0  0  0  0  0  0  0  0
    5.5362    7.6028    1.7295 H   0  0  0  0  0  0  0  0  0  0  0  0
    5.5566    7.0665    3.4852 H   0  0  0  0  0  0  0  0  0  0  0  0
    4.4418    8.3744    2.8694 H   0  0  0  0  0  0  0  0  0  0  0  0
    1.0772    9.2880    3.8704 B   0  0  0  0  0  0  0  0  0  0  0  0
    1.4769    8.8072    2.9611 H   0  0  0  0  0  0  0  0  0  0  0  0
    1.8760    9.2683    4.6512 H   0  0  0  0  0  0  0  0  0  0  0  0
    0.4679   10.2280    3.8127 H   0  0  0  0  0  0  0  0  0  0  0  0
    1.4732    6.0521    5.5749 C   0  0  0  0  0  0  0  0  0  0  0  0
    2.7826    6.1923    4.7534 C   0  0  0  0  0  0  0  0  0  0  0  0
    3.0904    7.1436    4.7574 H   0  0  0  0  0  0  0  0  0  0  0  0
    3.7940    5.3013    5.5265 C   0  0  0  0  0  0  0  0  0  0  0  0
    4.0944    4.5400    4.9709 H   0  0  0  0  0  0  0  0  0  0  0  0
    4.5834    5.8254    5.8121 H   0  0  0  0  0  0  0  0  0  0  0  0
    2.9826    4.8138    6.7450 C   0  0  0  0  0  0  0  0  0  0  0  0
    3.3682    4.0159    7.2075 H   0  0  0  0  0  0  0  0  0  0  0  0
    2.7692    6.0408    7.6556 C   0  0  0  0  0  0  0  0  0  0  0  0
    3.6148    6.5358    7.7918 H   0  0  0  0  0  0  0  0  0  0  0  0
    2.4033    5.7736    8.5360 H   0  0  0  0  0  0  0  0  0  0  0  0
    1.7419    6.8933    6.8550 C   0  0  0  0  0  0  0  0  0  0  0  0
    0.9082    7.0241    7.3752 H   0  0  0  0  0  0  0  0  0  0  0  0
    2.1196    7.7797    6.6244 H   0  0  0  0  0  0  0  0  0  0  0  0
    1.5678    4.5899    6.1541 C   0  0  0  0  0  0  0  0  0  0  0  0
    0.5024    4.2869    7.2219 C   0  0  0  0  0  0  0  0  0  0  0  0
   -0.3631    4.1364    6.7856 H   0  0  0  0  0  0  0  0  0  0  0  0
    0.4305    5.0463    7.8364 H   0  0  0  0  0  0  0  0  0  0  0  0
    0.7602    3.4843    7.7211 H   0  0  0  0  0  0  0  0  0  0  0  0
    1.4816    3.4758    5.1124 C   0  0  0  0  0  0  0  0  0  0  0  0
    1.6005    2.6083    5.5527 H   0  0  0  0  0  0  0  0  0  0  0  0
    2.1843    3.6010    4.4403 H   0  0  0  0  0  0  0  0  0  0  0  0
    0.6043    3.5031    4.6774 H   0  0  0  0  0  0  0  0  0  0  0  0
    0.1933    6.3353    4.7875 C   0  0  0  0  0  0  0  0  0  0  0  0
   -0.5543    5.8762    5.2448 H   0  0  0  0  0  0  0  0  0  0  0  0
    0.2882    5.9213    3.8926 H   0  0  0  0  0  0  0  0  0  0  0  0
    4.4296    4.4234    1.9247 C   0  0  0  0  0  0  0  0  0  0  0  0
    5.7911    4.3547    1.6116 C   0  0  0  0  0  0  0  0  0  0  0  0
    6.3044    5.1469    1.5081 H   0  0  0  0  0  0  0  0  0  0  0  0
    6.3880    3.0816    1.4517 C   0  0  0  0  0  0  0  0  0  0  0  0
    7.3092    3.0185    1.2329 H   0  0  0  0  0  0  0  0  0  0  0  0
    5.6429    1.9270    1.6129 C   0  0  0  0  0  0  0  0  0  0  0  0
    6.0592    1.0783    1.5120 H   0  0  0  0  0  0  0  0  0  0  0  0
    4.3169    1.9967    1.9155 C   0  0  0  0  0  0  0  0  0  0  0  0
    3.8112    1.1997    2.0190 H   0  0  0  0  0  0  0  0  0  0  0  0
    3.6991    3.2415    2.0741 C   0  0  0  0  0  0  0  0  0  0  0  0
    2.7733    3.2829    2.2850 H   0  0  0  0  0  0  0  0  0  0  0  0
    2.5940    6.4191    0.8215 C   0  0  0  0  0  0  0  0  0  0  0  0
    2.6185    7.7214    0.2647 C   0  0  0  0  0  0  0  0  0  0  0  0
    3.2231    8.3715    0.6040 H   0  0  0  0  0  0  0  0  0  0  0  0
    1.7615    8.0479   -0.7756 C   0  0  0  0  0  0  0  0  0  0  0  0
    1.7867    8.9229   -1.1438 H   0  0  0  0  0  0  0  0  0  0  0  0
    0.8694    7.1201   -1.2840 C   0  0  0  0  0  0  0  0  0  0  0  0
    0.2927    7.3544   -2.0020 H   0  0  0  0  0  0  0  0  0  0  0  0
    0.8215    5.8225   -0.7285 C   0  0  0  0  0  0  0  0  0  0  0  0
    0.2037    5.1808   -1.0600 H   0  0  0  0  0  0  0  0  0  0  0  0
    1.6823    5.4979    0.2987 C   0  0  0  0  0  0  0  0  0  0  0  0
    1.6530    4.6210    0.6643 H   0  0  0  0  0  0  0  0  0  0  0  0
   -0.9737    8.5804    6.1593 C   0  0  0  0  0  0  0  0  0  0  0  0
   -0.4360    9.6945    6.8210 C   0  0  0  0  0  0  0  0  0  0  0  0
    0.1919   10.2534    6.3794 H   0  0  0  0  0  0  0  0  0  0  0  0
   -0.8260    9.9806    8.1325 C   0  0  0  0  0  0  0  0  0  0  0  0
   -0.4609   10.7342    8.5793 H   0  0  0  0  0  0  0  0  0  0  0  0
   -1.7320    9.1808    8.7784 C   0  0  0  0  0  0  0  0  0  0  0  0
   -1.9769    9.3746    9.6759 H   0  0  0  0  0  0  0  0  0  0  0  0
   -2.3010    8.0827    8.1259 C   0  0  0  0  0  0  0  0  0  0  0  0
   -2.9413    7.5388    8.5701 H   0  0  0  0  0  0  0  0  0  0  0  0
   -1.9170    7.7929    6.8170 C   0  0  0  0  0  0  0  0  0  0  0  0
   -2.3031    7.0495    6.3689 H   0  0  0  0  0  0  0  0  0  0  0  0
   -1.6689    7.9716    3.3790 C   0  0  0  0  0  0  0  0  0  0  0  0
   -2.8930    8.6068    3.6070 C   0  0  0  0  0  0  0  0  0  0  0  0
   -3.0193    9.1158    4.3997 H   0  0  0  0  0  0  0  0  0  0  0  0
   -3.9263    8.5005    2.6872 C   0  0  0  0  0  0  0  0  0  0  0  0
   -4.7530    8.9361    2.8536 H   0  0  0  0  0  0  0  0  0  0  0  0
   -3.7578    7.7628    1.5251 C   0  0  0  0  0  0  0  0  0  0  0  0
   -4.4743    7.6743    0.9080 H   0  0  0  0  0  0  0  0  0  0  0  0
   -2.5421    7.1549    1.2696 C   0  0  0  0  0  0  0  0  0  0  0  0
   -2.4196    6.6666    0.4638 H   0  0  0  0  0  0  0  0  0  0  0  0
   -1.4934    7.2528    2.1854 C   0  0  0  0  0  0  0  0  0  0  0  0
   -0.6615    6.8331    2.0020 H   0  0  0  0  0  0  0  0  0  0  0  0
  1  3  1  0  0  0  0
  2  8  1  0  0  0  0
  3 13  1  0  0  0  0
  4  1  1  0  0  0  0
  5  4  1  0  0  0  0
  6  4  1  0  0  0  0
  7  4  1  0  0  0  0
  8  9  1  0  0  0  0
 10  8  1  0  0  0  0
 11  8  1  0  0  0  0
 12 13  1  0  0  0  0
 13 14  1  0  0  0  0
 15 13  1  0  0  0  0
 16 15  1  0  0  0  0
 17 15  1  0  0  0  0
 18 15  1  0  0  0  0
 19 18  1  0  0  0  0
 20 18  1  0  0  0  0
 21 20  1  0  0  0  0
 22 20  1  0  0  0  0
 23 12  1  0  0  0  0
 24 23  1  0  0  0  0
 25 23  1  0  0  0  0
 26 12  1  0  0  0  0
 27 26  1  0  0  0  0
 28 27  1  0  0  0  0
 29 27  1  0  0  0  0
 30 27  1  0  0  0  0
 31 26  1  0  0  0  0
 32 31  1  0  0  0  0
 33 31  1  0  0  0  0
 34 31  1  0  0  0  0
 35  2  1  0  0  0  0
 36 35  1  0  0  0  0
 37 35  1  0  0  0  0
 38  1  1  0  0  0  0
 39 38  4  0  0  0  0
 40 39  1  0  0  0  0
 41 39  4  0  0  0  0
 42 41  1  0  0  0  0
 43 41  4  0  0  0  0
 44 43  1  0  0  0  0
 45 43  4  0  0  0  0
 46 45  1  0  0  0  0
 47 38  4  0  0  0  0
 48 47  1  0  0  0  0
 49  1  1  0  0  0  0
 50 49  4  0  0  0  0
 51 50  1  0  0  0  0
 52 50  4  0  0  0  0
 53 52  1  0  0  0  0
 54 52  4  0  0  0  0
 55 54  1  0  0  0  0
 56 54  4  0  0  0  0
 57 56  1  0  0  0  0
 58 49  4  0  0  0  0
 59 58  1  0  0  0  0
 60  2  1  0  0  0  0
 61 60  4  0  0  0  0
 62 61  1  0  0  0  0
 63 61  4  0  0  0  0
 64 63  1  0  0  0  0
 65 63  4  0  0  0  0
 66 65  1  0  0  0  0
 67 65  4  0  0  0  0
 68 67  1  0  0  0  0
 69 60  4  0  0  0  0
 70 69  1  0  0  0  0
 71  2  1  0  0  0  0
 72 71  4  0  0  0  0
 73 72  1  0  0  0  0
 74 72  4  0  0  0  0
 75 74  1  0  0  0  0
 76 74  4  0  0  0  0
 77 76  1  0  0  0  0
 78 76  4  0  0  0  0
 79 78  1  0  0  0  0
 80 71  4  0  0  0  0
 81 80  1  0  0  0  0
 12 35  1  0  0  0  0
 18 26  1  0  0  0  0
 20 23  1  0  0  0  0
 45 47  4  0  0  0  0
 56 58  4  0  0  0  0
 67 69  4  0  0  0  0
 78 80  4  0  0  0  0
M  END
$$$$
VIWGOX

From CSD data. Using bond type 'Any'. No disordered atoms. Largest molecule.
126137  0  0  0  0  0  0  0  0999 V2000
    2.2395    4.3407    3.3064 Re  0  0  0  0  0  0  0  0  0  0  0  0
    1.3690    5.4715    5.1025 Re  0  0  0  0  0  0  0  0  0  0  0  0
    3.0379    6.3203    2.1843 P   0  0  0  0  0  0  0  0  0  0  0  0
    0.2386    4.1563    1.9808 P   0  0  0  0  0  0  0  0  0  0  0  0
    1.2596    7.6671    4.1397 P   0  0  0  0  0  0  0  0  0  0  0  0
   -0.9361    4.9995    4.6357 P   0  0  0  0  0  0  0  0  0  0  0  0
    1.8343    2.5197    4.3527 O   0  0  0  0  0  0  0  0  0  0  0  0
    4.0355    4.1403    4.3686 O   0  0  0  0  0  0  0  0  0  0  0  0
    1.4927    3.6827    6.2286 O   0  0  0  0  0  0  0  0  0  0  0  0
    3.3560    5.6289    5.8789 O   0  0  0  0  0  0  0  0  0  0  0  0
    3.2963    2.8035    1.9649 N   0  0  0  0  0  0  0  0  0  0  0  0
    0.9199    6.4722    7.1157 N   0  0  0  0  0  0  0  0  0  0  0  0
    4.0843    2.2440    1.3195 C   0  0  0  0  0  0  0  0  0  0  0  0
    0.6885    6.9497    8.1204 C   0  0  0  0  0  0  0  0  0  0  0  0
    1.7692    7.5912    2.3560 C   0  0  0  0  0  0  0  0  0  0  0  0
   -1.1584    5.0115    2.8329 C   0  0  0  0  0  0  0  0  0  0  0  0
    1.6229    2.5757    5.5864 C   0  0  0  0  0  0  0  0  0  0  0  0
    1.5650    1.3088    6.3781 C   0  0  0  0  0  0  0  0  0  0  0  0
    4.2397    4.8536    5.4369 C   0  0  0  0  0  0  0  0  0  0  0  0
    5.5409    4.7158    6.1555 C   0  0  0  0  0  0  0  0  0  0  0  0
    4.5903    7.0956    2.7566 C   0  0  0  0  0  0  0  0  0  0  0  0
    5.6674    6.2624    3.0619 C   0  0  0  0  0  0  0  0  0  0  0  0
    6.8728    6.8798    3.5038 C   0  0  0  0  0  0  0  0  0  0  0  0
    6.9613    8.2186    3.6119 C   0  0  0  0  0  0  0  0  0  0  0  0
    5.9168    9.0299    3.2558 C   0  0  0  0  0  0  0  0  0  0  0  0
    4.7511    8.4744    2.8075 C   0  0  0  0  0  0  0  0  0  0  0  0
    3.3668    6.2484    0.4038 C   0  0  0  0  0  0  0  0  0  0  0  0
    4.1746    5.2413   -0.0763 C   0  0  0  0  0  0  0  0  0  0  0  0
    4.4891    5.1354   -1.4053 C   0  0  0  0  0  0  0  0  0  0  0  0
    4.0102    6.0426   -2.3083 C   0  0  0  0  0  0  0  0  0  0  0  0
    3.2710    7.0676   -1.8473 C   0  0  0  0  0  0  0  0  0  0  0  0
    2.9277    7.2035   -0.4769 C   0  0  0  0  0  0  0  0  0  0  0  0
   -0.4319    2.4878    1.6120 C   0  0  0  0  0  0  0  0  0  0  0  0
   -1.6373    2.4438    0.8298 C   0  0  0  0  0  0  0  0  0  0  0  0
   -2.2156    1.2249    0.5787 C   0  0  0  0  0  0  0  0  0  0  0  0
   -1.7078    0.0619    1.0683 C   0  0  0  0  0  0  0  0  0  0  0  0
   -0.4843    0.1079    1.7869 C   0  0  0  0  0  0  0  0  0  0  0  0
    0.0940    1.3228    2.0508 C   0  0  0  0  0  0  0  0  0  0  0  0
    0.1554    4.8576    0.2703 C   0  0  0  0  0  0  0  0  0  0  0  0
    0.9144    4.2322   -0.7058 C   0  0  0  0  0  0  0  0  0  0  0  0
    0.8566    4.6398   -1.9999 C   0  0  0  0  0  0  0  0  0  0  0  0
    0.0542    5.6949   -2.3624 C   0  0  0  0  0  0  0  0  0  0  0  0
   -0.6813    6.3063   -1.4053 C   0  0  0  0  0  0  0  0  0  0  0  0
   -0.6542    5.9187   -0.1335 C   0  0  0  0  0  0  0  0  0  0  0  0
    2.2717    8.9959    4.8106 C   0  0  0  0  0  0  0  0  0  0  0  0
    2.2518   10.2787    4.2987 C   0  0  0  0  0  0  0  0  0  0  0  0
    3.0903   11.2698    4.7057 C   0  0  0  0  0  0  0  0  0  0  0  0
    3.9433   11.0540    5.7549 C   0  0  0  0  0  0  0  0  0  0  0  0
    4.0048    9.7892    6.3399 C   0  0  0  0  0  0  0  0  0  0  0  0
    3.1897    8.7681    5.8821 C   0  0  0  0  0  0  0  0  0  0  0  0
   -0.3235    8.5583    4.0857 C   0  0  0  0  0  0  0  0  0  0  0  0
   -1.0193    8.7781    2.9188 C   0  0  0  0  0  0  0  0  0  0  0  0
   -2.6837    9.9990    4.1270 C   0  0  0  0  0  0  0  0  0  0  0  0
   -2.0385    9.7332    5.2970 C   0  0  0  0  0  0  0  0  0  0  0  0
   -2.2463    9.5394    2.9474 C   0  0  0  0  0  0  0  0  0  0  0  0
   -0.8078    9.0778    5.2780 C   0  0  0  0  0  0  0  0  0  0  0  0
   -2.3096    6.0306    5.2525 C   0  0  0  0  0  0  0  0  0  0  0  0
   -2.4072    6.3463    6.6038 C   0  0  0  0  0  0  0  0  0  0  0  0
   -3.5493    7.0337    7.0553 C   0  0  0  0  0  0  0  0  0  0  0  0
   -4.5343    7.3634    6.2573 C   0  0  0  0  0  0  0  0  0  0  0  0
   -4.4602    7.0816    4.9219 C   0  0  0  0  0  0  0  0  0  0  0  0
   -3.3289    6.4562    4.4481 C   0  0  0  0  0  0  0  0  0  0  0  0
   -1.5271    3.3889    5.2780 C   0  0  0  0  0  0  0  0  0  0  0  0
   -2.1180    2.4158    4.4958 C   0  0  0  0  0  0  0  0  0  0  0  0
   -2.5933    1.1969    5.0395 C   0  0  0  0  0  0  0  0  0  0  0  0
   -2.4578    1.0051    6.4258 C   0  0  0  0  0  0  0  0  0  0  0  0
   -1.9030    1.9542    7.2047 C   0  0  0  0  0  0  0  0  0  0  0  0
   -1.4259    3.1671    6.6611 C   0  0  0  0  0  0  0  0  0  0  0  0
    5.1505    1.4787    0.4992 B   0  0  0  0  0  0  0  0  0  0  0  0
    0.2892    7.4933    9.4654 B   0  0  0  0  0  0  0  0  0  0  0  0
    5.8192    2.0781    0.1272 H   0  0  0  0  0  0  0  0  0  0  0  0
    4.7529    1.0191   -0.2544 H   0  0  0  0  0  0  0  0  0  0  0  0
    5.6023    0.8392    1.0174 H   0  0  0  0  0  0  0  0  0  0  0  0
   -0.6687    7.6731    9.5067 H   0  0  0  0  0  0  0  0  0  0  0  0
    0.7410    8.3125    9.6657 H   0  0  0  0  0  0  0  0  0  0  0  0
    0.4879    6.8738   10.1744 H   0  0  0  0  0  0  0  0  0  0  0  0
    1.0120    7.3933    1.8123 H   0  0  0  0  0  0  0  0  0  0  0  0
    2.1144    8.4524    2.0667 H   0  0  0  0  0  0  0  0  0  0  0  0
   -1.9879    4.5759    2.6072 H   0  0  0  0  0  0  0  0  0  0  0  0
   -1.2289    5.9147    2.5118 H   0  0  0  0  0  0  0  0  0  0  0  0
    2.1867    1.3388    7.0903 H   0  0  0  0  0  0  0  0  0  0  0  0
    1.7711    0.5595    5.8185 H   0  0  0  0  0  0  0  0  0  0  0  0
    0.6867    1.1789    6.7405 H   0  0  0  0  0  0  0  0  0  0  0  0
    5.6023    5.3352    6.8995 H   0  0  0  0  0  0  0  0  0  0  0  0
    6.2710    4.8956    5.5641 H   0  0  0  0  0  0  0  0  0  0  0  0
    5.6385    3.8365    6.5180 H   0  0  0  0  0  0  0  0  0  0  0  0
    5.5842    5.2952    2.9887 H   0  0  0  0  0  0  0  0  0  0  0  0
    7.6625    6.3343    3.7200 H   0  0  0  0  0  0  0  0  0  0  0  0
    7.7890    8.6322    3.9426 H   0  0  0  0  0  0  0  0  0  0  0  0
    5.9999    9.9910    3.3067 H   0  0  0  0  0  0  0  0  0  0  0  0
    4.0120    9.0518    2.5118 H   0  0  0  0  0  0  0  0  0  0  0  0
    4.5180    4.5759    0.5405 H   0  0  0  0  0  0  0  0  0  0  0  0
    5.0782    4.4160   -1.6851 H   0  0  0  0  0  0  0  0  0  0  0  0
    4.1927    5.9347   -3.2431 H   0  0  0  0  0  0  0  0  0  0  0  0
    2.9819    7.7330   -2.4800 H   0  0  0  0  0  0  0  0  0  0  0  0
    2.3674    7.9528   -0.1908 H   0  0  0  0  0  0  0  0  0  0  0  0
   -2.0241    3.2770    0.4769 H   0  0  0  0  0  0  0  0  0  0  0  0
   -3.0180    1.1989    0.0318 H   0  0  0  0  0  0  0  0  0  0  0  0
   -2.1686   -0.7793    0.8903 H   0  0  0  0  0  0  0  0  0  0  0  0
   -0.0723   -0.7194    2.0985 H   0  0  0  0  0  0  0  0  0  0  0  0
    0.9036    1.3588    2.6072 H   0  0  0  0  0  0  0  0  0  0  0  0
    1.5000    3.4969   -0.4451 H   0  0  0  0  0  0  0  0  0  0  0  0
    1.3735    4.1563   -2.6708 H   0  0  0  0  0  0  0  0  0  0  0  0
    0.0361    6.0146   -3.3067 H   0  0  0  0  0  0  0  0  0  0  0  0
   -1.2289    7.0536   -1.6533 H   0  0  0  0  0  0  0  0  0  0  0  0
   -1.2108    6.3743    0.5405 H   0  0  0  0  0  0  0  0  0  0  0  0
    1.5903   10.4906    3.5928 H   0  0  0  0  0  0  0  0  0  0  0  0
    3.0903   12.1291    4.2605 H   0  0  0  0  0  0  0  0  0  0  0  0
    4.4999   11.7694    6.1046 H   0  0  0  0  0  0  0  0  0  0  0  0
    4.6264    9.6313    7.0585 H   0  0  0  0  0  0  0  0  0  0  0  0
    3.2530    7.8929    6.2954 H   0  0  0  0  0  0  0  0  0  0  0  0
   -0.8855    8.5323    1.9713 H   0  0  0  0  0  0  0  0  0  0  0  0
   -3.4879   10.4706    3.8790 H   0  0  0  0  0  0  0  0  0  0  0  0
   -1.7530    9.6713    6.2318 H   0  0  0  0  0  0  0  0  0  0  0  0
   -2.5662    9.5714    2.0031 H   0  0  0  0  0  0  0  0  0  0  0  0
   -0.7229    9.1917    6.2318 H   0  0  0  0  0  0  0  0  0  0  0  0
   -1.6807    6.1145    7.2175 H   0  0  0  0  0  0  0  0  0  0  0  0
   -3.6144    7.2535    7.9805 H   0  0  0  0  0  0  0  0  0  0  0  0
   -5.3132    7.8329    6.6452 H   0  0  0  0  0  0  0  0  0  0  0  0
   -5.2228    7.2934    4.3559 H   0  0  0  0  0  0  0  0  0  0  0  0
   -3.2530    6.3143    3.4657 H   0  0  0  0  0  0  0  0  0  0  0  0
   -2.2229    2.5777    3.5292 H   0  0  0  0  0  0  0  0  0  0  0  0
   -3.0000    0.5195    4.4831 H   0  0  0  0  0  0  0  0  0  0  0  0
   -2.7469    0.1599    6.8359 H   0  0  0  0  0  0  0  0  0  0  0  0
   -1.8253    1.7784    8.1713 H   0  0  0  0  0  0  0  0  0  0  0  0
   -1.0301    3.8565    7.2493 H   0  0  0  0  0  0  0  0  0  0  0  0
  1  2  3  0  0  0  0
  2  5  1  0  0  0  0
  3  1  1  0  0  0  0
  4  1  1  0  0  0  0
  5 15  1  0  0  0  0
  6  2  1  0  0  0  0
  7  1  1  0  0  0  0
  8  1  1  0  0  0  0
  9  2  1  0  0  0  0
 10  2  1  0  0  0  0
 11  1  1  0  0  0  0
 12  2  1  0  0  0  0
 13 11  3  0  0  0  0
 14 12  3  0  0  0  0
 15  3  1  0  0  0  0
 16  4  1  0  0  0  0
 17  7  8  0  0  0  0
 18 17  1  0  0  0  0
 19  8  8  0  0  0  0
 20 19  1  0  0  0  0
 21  3  1  0  0  0  0
 22 21  4  0  0  0  0
 23 22  4  0  0  0  0
 24 23  4  0  0  0  0
 25 24  4  0  0  0  0
 26 21  4  0  0  0  0
 27  3  1  0  0  0  0
 28 27  4  0  0  0  0
 29 28  4  0  0  0  0
 30 29  4  0  0  0  0
 31 30  4  0  0  0  0
 32 27  4  0  0  0  0
 33  4  1  0  0  0  0
 34 33  4  0  0  0  0
 35 34  4  0  0  0  0
 36 35  4  0  0  0  0
 37 36  4  0  0  0  0
 38 33  4  0  0  0  0
 39  4  1  0  0  0  0
 40 39  4  0  0  0  0
 41 40  4  0  0  0  0
 42 41  4  0  0  0  0
 43 42  4  0  0  0  0
 44 39  4  0  0  0  0
 45  5  1  0  0  0  0
 46 45  4  0  0  0  0
 47 46  4  0  0  0  0
 48 47  4  0  0  0  0
 49 48  4  0  0  0  0
 50 45  4  0  0  0  0
 51  5  1  0  0  0  0
 52 51  4  0  0  0  0
 53 54  4  0  0  0  0
 54 56  4  0  0  0  0
 55 52  4  0  0  0  0
 56 51  4  0  0  0  0
 57  6  1  0  0  0  0
 58 57  4  0  0  0  0
 59 58  4  0  0  0  0
 60 59  4  0  0  0  0
 61 60  4  0  0  0  0
 62 57  4  0  0  0  0
 63  6  1  0  0  0  0
 64 63  4  0  0  0  0
 65 64  4  0  0  0  0
 66 65  4  0  0  0  0
 67 66  4  0  0  0  0
 68 63  4  0  0  0  0
 69 13  1  0  0  0  0
 70 14  1  0  0  0  0
 71 69  1  0  0  0  0
 72 69  1  0  0  0  0
 73 69  1  0  0  0  0
 74 70  1  0  0  0  0
 75 70  1  0  0  0  0
 76 70  1  0  0  0  0
 77 15  1  0  0  0  0
 78 15  1  0  0  0  0
 79 16  1  0  0  0  0
 80 16  1  0  0  0  0
 81 18  1  0  0  0  0
 82 18  1  0  0  0  0
 83 18  1  0  0  0  0
 84 20  1  0  0  0  0
 85 20  1  0  0  0  0
 86 20  1  0  0  0  0
 87 22  1  0  0  0  0
 88 23  1  0  0  0  0
 89 24  1  0  0  0  0
 90 25  1  0  0  0  0
 91 26  1  0  0  0  0
 92 28  1  0  0  0  0
 93 29  1  0  0  0  0
 94 30  1  0  0  0  0
 95 31  1  0  0  0  0
 96 32  1  0  0  0  0
 97 34  1  0  0  0  0
 98 35  1  0  0  0  0
 99 36  1  0  0  0  0
100 37  1  0  0  0  0
101 38  1  0  0  0  0
102 40  1  0  0  0  0
103 41  1  0  0  0  0
104 42  1  0  0  0  0
105 43  1  0  0  0  0
106 44  1  0  0  0  0
107 46  1  0  0  0  0
108 47  1  0  0  0  0
109 48  1  0  0  0  0
110 49  1  0  0  0  0
111 50  1  0  0  0  0
112 52  1  0  0  0  0
113 53  1  0  0  0  0
114 54  1  0  0  0  0
115 55  1  0  0  0  0
116 56  1  0  0  0  0
117 58  1  0  0  0  0
118 59  1  0  0  0  0
119 60  1  0  0  0  0
120 61  1  0  0  0  0
121 62  1  0  0  0  0
122 64  1  0  0  0  0
123 65  1  0  0  0  0
124 66  1  0  0  0  0
125 67  1  0  0  0  0
126 68  1  0  0  0  0
  6 16  1  0  0  0  0
  9 17  8  0  0  0  0
 10 19  8  0  0  0  0
 25 26  4  0  0  0  0
 31 32  4  0  0  0  0
 37 38  4  0  0  0  0
 43 44  4  0  0  0  0
 49 50  4  0  0  0  0
 53 55  4  0  0  0  0
 61 62  4  0  0  0  0
 67 68  4  0  0  0  0
M  END
$$$$
VOJRIZ

From CSD data. Using bond type 'Any'. No disordered atoms. Largest molecule.
229254  0  0  0  0  0  0  0  0999 V2000
   10.9422   10.4953    4.6742 Cu  0  3  0  0  0  0  0  0  0  0  0  0
    8.0128    6.9702    9.2002 Cu  0  0  0  0  0  0  0  0  0  0  0  0
    8.8451    5.3004    7.2072 Cu  0  3  0  0  0  0  0  0  0  0  0  0
    8.4319    9.5735    3.9644 Cu  0  0  0  0  0  0  0  0  0  0  0  0
   10.0404    8.5510    4.9977 S   0  0  0  0  0  0  0  0  0  0  0  0
    8.1978    7.3626    7.0559 S   0  0  0  0  0  0  0  0  0  0  0  0
    6.3793    9.8764    3.2785 P   0  0  0  0  0  0  0  0  0  0  0  0
    7.8057    7.6766   11.2697 P   0  0  0  0  0  0  0  0  0  0  0  0
   10.0293    3.6387    6.3937 P   0  0  0  0  0  0  0  0  0  0  0  0
   12.4196   12.0649    5.1416 P   0  0  0  0  0  0  0  0  0  0  0  0
   11.1998   11.0693    2.6590 N   0  0  0  0  0  0  0  0  0  0  0  0
    8.4295   10.6534    7.0590 O   0  0  0  0  0  0  0  0  0  0  0  0
   12.2402    7.8306    6.9133 O   0  0  0  0  0  0  0  0  0  0  0  0
   11.0376    7.1893    8.7492 O   0  0  0  0  0  0  0  0  0  0  0  0
    6.8833    5.2269    9.8496 N   0  0  0  0  0  0  0  0  0  0  0  0
    9.0484   10.4217    2.0043 N   0  0  0  0  0  0  0  0  0  0  0  0
   10.2662   10.3031    8.4175 O   0  0  0  0  0  0  0  0  0  0  0  0
    7.6371    3.8176    8.1419 N   0  0  0  0  0  0  0  0  0  0  0  0
   10.2735   10.9683    1.6638 C   0  0  0  0  0  0  0  0  0  0  0  0
   10.5137   11.4557    0.3651 C   0  0  0  0  0  0  0  0  0  0  0  0
   12.3726   11.6601    2.3764 C   0  0  0  0  0  0  0  0  0  0  0  0
   11.7898   12.0182    0.1158 C   0  0  0  0  0  0  0  0  0  0  0  0
   11.9972   12.3373   -0.7554 H   0  0  0  0  0  0  0  0  0  0  0  0
    6.2254    1.6531    9.2073 C   0  0  0  0  0  0  0  0  0  0  0  0
    5.7415    0.9141    9.5558 H   0  0  0  0  0  0  0  0  0  0  0  0
    8.2774   10.8311   -0.2404 C   0  0  0  0  0  0  0  0  0  0  0  0
    7.5740   10.7812   -0.8780 H   0  0  0  0  0  0  0  0  0  0  0  0
   12.7058   12.1090    1.0847 C   0  0  0  0  0  0  0  0  0  0  0  0
   13.5657   12.4697    0.9055 H   0  0  0  0  0  0  0  0  0  0  0  0
    8.1002   10.3577    1.0741 C   0  0  0  0  0  0  0  0  0  0  0  0
    6.1552    2.9208    9.8461 C   0  0  0  0  0  0  0  0  0  0  0  0
    5.6707    6.8734   13.0281 C   0  0  0  0  0  0  0  0  0  0  0  0
   13.3846   11.8037    3.5313 C   0  0  0  0  0  0  0  0  0  0  0  0
    6.1759    5.4150   10.9676 C   0  0  0  0  0  0  0  0  0  0  0  0
    5.3979    3.1496   11.0080 C   0  0  0  0  0  0  0  0  0  0  0  0
    4.9036    2.4419   11.4048 H   0  0  0  0  0  0  0  0  0  0  0  0
    9.4973   11.3628   -0.5739 C   0  0  0  0  0  0  0  0  0  0  0  0
    9.6478   11.6743   -1.4585 H   0  0  0  0  0  0  0  0  0  0  0  0
    6.2216    6.3084   14.1479 C   0  0  0  0  0  0  0  0  0  0  0  0
    6.9753    5.7332   14.0829 H   0  0  0  0  0  0  0  0  0  0  0  0
   14.4981   12.8236    3.3171 C   0  0  0  0  0  0  0  0  0  0  0  0
    6.9944    1.5068    8.0910 C   0  0  0  0  0  0  0  0  0  0  0  0
    7.0480    0.6653    7.6531 H   0  0  0  0  0  0  0  0  0  0  0  0
    6.8727    3.9878    9.2792 C   0  0  0  0  0  0  0  0  0  0  0  0
    5.0590    7.6339   10.8430 C   0  0  0  0  0  0  0  0  0  0  0  0
    4.1306    8.0818   11.7609 C   0  0  0  0  0  0  0  0  0  0  0  0
    7.6989    2.5998    7.5961 C   0  0  0  0  0  0  0  0  0  0  0  0
    4.9217    7.8775    9.4828 C   0  0  0  0  0  0  0  0  0  0  0  0
    5.5675    7.5485    8.8695 H   0  0  0  0  0  0  0  0  0  0  0  0
    4.5122    7.7032   13.1124 C   0  0  0  0  0  0  0  0  0  0  0  0
    8.5618    0.7118    4.6896 C   0  0  0  0  0  0  0  0  0  0  0  0
    3.8215    8.6126    9.0265 C   0  0  0  0  0  0  0  0  0  0  0  0
   14.6412    8.1698    3.9139 C   0  0  0  0  0  0  0  0  0  0  0  0
   14.3384    7.2751    4.0143 H   0  0  0  0  0  0  0  0  0  0  0  0
    5.3811    4.3962   11.5573 C   0  0  0  0  0  0  0  0  0  0  0  0
    4.8474    4.5815   12.3217 H   0  0  0  0  0  0  0  0  0  0  0  0
    6.7758    9.6839    1.4357 C   0  0  0  0  0  0  0  0  0  0  0  0
    6.9394    8.1700    1.1829 C   0  0  0  0  0  0  0  0  0  0  0  0
   13.7242    9.1987    3.8086 C   0  0  0  0  0  0  0  0  0  0  0  0
   12.7943    9.0145    3.8473 H   0  0  0  0  0  0  0  0  0  0  0  0
    6.1454    6.8287   11.5679 C   0  0  0  0  0  0  0  0  0  0  0  0
    7.7160    2.8179    5.0968 C   0  0  0  0  0  0  0  0  0  0  0  0
   14.1684   10.4969    3.6489 C   0  0  0  0  0  0  0  0  0  0  0  0
    7.7509    1.7704    4.1666 C   0  0  0  0  0  0  0  0  0  0  0  0
    6.3227    4.0935    3.6647 C   0  0  0  0  0  0  0  0  0  0  0  0
    5.8438    4.8913    3.4744 H   0  0  0  0  0  0  0  0  0  0  0  0
   15.7327   12.2108    3.4576 C   0  0  0  0  0  0  0  0  0  0  0  0
    5.6482    6.6028   15.3975 C   0  0  0  0  0  0  0  0  0  0  0  0
    6.0053    6.2068   16.1830 H   0  0  0  0  0  0  0  0  0  0  0  0
   15.5645   10.7620    3.6138 C   0  0  0  0  0  0  0  0  0  0  0  0
    8.9829    1.0046    6.0007 C   0  0  0  0  0  0  0  0  0  0  0  0
   16.0209    8.4459    3.8718 C   0  0  0  0  0  0  0  0  0  0  0  0
   16.6442    7.7330    3.9539 H   0  0  0  0  0  0  0  0  0  0  0  0
    8.6545   11.7916    7.8541 C   0  0  0  0  0  0  0  0  0  0  0  0
    3.9830    7.9993   14.3462 C   0  0  0  0  0  0  0  0  0  0  0  0
    3.2226    8.5644   14.4152 H   0  0  0  0  0  0  0  0  0  0  0  0
   14.3791   14.1864    3.0714 C   0  0  0  0  0  0  0  0  0  0  0  0
   13.5363   14.5917    2.9112 H   0  0  0  0  0  0  0  0  0  0  0  0
    5.9650    7.7033    0.3124 C   0  0  0  0  0  0  0  0  0  0  0  0
   10.0624   -1.1483    6.1534 C   0  0  0  0  0  0  0  0  0  0  0  0
   10.5620   -1.7862    6.6483 H   0  0  0  0  0  0  0  0  0  0  0  0
    4.5646    7.4637   15.4958 C   0  0  0  0  0  0  0  0  0  0  0  0
    4.2184    7.6900   16.3513 H   0  0  0  0  0  0  0  0  0  0  0  0
    5.1258    8.8562   -0.0842 C   0  0  0  0  0  0  0  0  0  0  0  0
    5.6071   10.0312    0.5283 C   0  0  0  0  0  0  0  0  0  0  0  0
    2.8764    9.0624    9.9444 C   0  0  0  0  0  0  0  0  0  0  0  0
    2.1198    9.5412    9.6289 H   0  0  0  0  0  0  0  0  0  0  0  0
    3.5966    9.1864    3.1925 C   0  0  0  0  0  0  0  0  0  0  0  0
    3.4051   10.0118    3.6856 H   0  0  0  0  0  0  0  0  0  0  0  0
    2.9264    8.5085    3.4172 H   0  0  0  0  0  0  0  0  0  0  0  0
    3.5675    9.3683    2.2294 H   0  0  0  0  0  0  0  0  0  0  0  0
   11.7048    2.4126    4.3790 C   0  0  0  0  0  0  0  0  0  0  0  0
   12.5659    2.5635    4.8217 H   0  0  0  0  0  0  0  0  0  0  0  0
   11.8426    2.3407    3.4117 H   0  0  0  0  0  0  0  0  0  0  0  0
   11.3045    1.5844    4.7153 H   0  0  0  0  0  0  0  0  0  0  0  0
    3.0079    8.8327   11.3151 C   0  0  0  0  0  0  0  0  0  0  0  0
    2.3660    9.1657   11.9303 H   0  0  0  0  0  0  0  0  0  0  0  0
    7.0076    3.9843    4.8458 C   0  0  0  0  0  0  0  0  0  0  0  0
    6.9964    4.6917    5.4799 H   0  0  0  0  0  0  0  0  0  0  0  0
    5.7083   11.5640    3.5558 C   0  0  0  0  0  0  0  0  0  0  0  0
    4.9119   11.7030    2.9676 H   0  0  0  0  0  0  0  0  0  0  0  0
    7.8875    7.3086    1.7182 C   0  0  0  0  0  0  0  0  0  0  0  0
    8.5469    7.6249    2.3244 H   0  0  0  0  0  0  0  0  0  0  0  0
    9.2155    5.4854   12.2418 C   0  0  0  0  0  0  0  0  0  0  0  0
    8.3738    5.0027   12.3791 H   0  0  0  0  0  0  0  0  0  0  0  0
    9.8917    5.1464   12.8654 H   0  0  0  0  0  0  0  0  0  0  0  0
    9.5230    5.3529   11.3218 H   0  0  0  0  0  0  0  0  0  0  0  0
    8.9925    6.9757   12.4946 C   0  0  0  0  0  0  0  0  0  0  0  0
    8.6214    7.0991   13.4152 H   0  0  0  0  0  0  0  0  0  0  0  0
   11.2793    2.8896    7.5083 C   0  0  0  0  0  0  0  0  0  0  0  0
   11.5046    1.9757    7.1700 H   0  0  0  0  0  0  0  0  0  0  0  0
    8.5631    2.4428    6.3412 C   0  0  0  0  0  0  0  0  0  0  0  0
    6.3164    3.0638    2.7450 C   0  0  0  0  0  0  0  0  0  0  0  0
    5.8052    3.1524    1.9496 H   0  0  0  0  0  0  0  0  0  0  0  0
    4.9856    8.6765    3.5716 C   0  0  0  0  0  0  0  0  0  0  0  0
    5.1643    7.8953    2.9748 H   0  0  0  0  0  0  0  0  0  0  0  0
    9.6799    0.1138    6.7677 C   0  0  0  0  0  0  0  0  0  0  0  0
    9.9093    0.3120    7.6690 H   0  0  0  0  0  0  0  0  0  0  0  0
   10.7506    3.6092    4.6791 C   0  0  0  0  0  0  0  0  0  0  0  0
    9.9751    3.5085    4.0561 H   0  0  0  0  0  0  0  0  0  0  0  0
   15.5753   14.9390    3.0732 C   0  0  0  0  0  0  0  0  0  0  0  0
   15.5396   15.8746    2.9154 H   0  0  0  0  0  0  0  0  0  0  0  0
   16.4745    9.7141    3.7156 C   0  0  0  0  0  0  0  0  0  0  0  0
   17.4076    9.8863    3.6764 H   0  0  0  0  0  0  0  0  0  0  0  0
    9.7304    8.3780    6.8168 C   0  0  0  0  0  0  0  0  0  0  0  0
   13.1166    7.3510    7.8944 C   0  0  0  0  0  0  0  0  0  0  0  0
    9.7037   -1.4176    4.8774 C   0  0  0  0  0  0  0  0  0  0  0  0
    9.9693   -2.2432    4.4898 H   0  0  0  0  0  0  0  0  0  0  0  0
    9.7219   11.5589    8.6527 C   0  0  0  0  0  0  0  0  0  0  0  0
   14.3463    6.3319   10.0708 C   0  0  0  0  0  0  0  0  0  0  0  0
   14.8045    5.9580   10.8148 H   0  0  0  0  0  0  0  0  0  0  0  0
    7.0465    1.8988    2.9644 C   0  0  0  0  0  0  0  0  0  0  0  0
    7.0682    1.2081    2.3135 H   0  0  0  0  0  0  0  0  0  0  0  0
    6.7496   12.6129    3.2399 C   0  0  0  0  0  0  0  0  0  0  0  0
    7.5054   12.5184    3.8572 H   0  0  0  0  0  0  0  0  0  0  0  0
    6.3559   13.5042    3.3396 H   0  0  0  0  0  0  0  0  0  0  0  0
    7.0634   12.4946    2.3193 H   0  0  0  0  0  0  0  0  0  0  0  0
    8.9590   -0.5222    4.1122 C   0  0  0  0  0  0  0  0  0  0  0  0
    8.7189   -0.7364    3.2178 H   0  0  0  0  0  0  0  0  0  0  0  0
   10.3212    7.7513   12.3840 C   0  0  0  0  0  0  0  0  0  0  0  0
   10.5291    7.9082   11.4396 H   0  0  0  0  0  0  0  0  0  0  0  0
   11.0398    7.2269   12.7946 H   0  0  0  0  0  0  0  0  0  0  0  0
   10.2372    8.6104   12.8476 H   0  0  0  0  0  0  0  0  0  0  0  0
    5.2791   11.6927    5.0354 C   0  0  0  0  0  0  0  0  0  0  0  0
    4.5686   11.0449    5.2271 H   0  0  0  0  0  0  0  0  0  0  0  0
    4.9477   12.5995    5.2024 H   0  0  0  0  0  0  0  0  0  0  0  0
    6.0484   11.5139    5.6160 H   0  0  0  0  0  0  0  0  0  0  0  0
    7.8446    5.9516    1.3339 C   0  0  0  0  0  0  0  0  0  0  0  0
    8.4742    5.3395    1.6958 H   0  0  0  0  0  0  0  0  0  0  0  0
   11.8348   13.8130    5.1161 C   0  0  0  0  0  0  0  0  0  0  0  0
   12.6214   14.4172    4.9927 H   0  0  0  0  0  0  0  0  0  0  0  0
   12.3707    6.9563    8.9826 C   0  0  0  0  0  0  0  0  0  0  0  0
    7.4007    9.7597   13.2159 C   0  0  0  0  0  0  0  0  0  0  0  0
    6.5074    9.4438   13.4695 H   0  0  0  0  0  0  0  0  0  0  0  0
    7.4613   10.7251   13.3725 H   0  0  0  0  0  0  0  0  0  0  0  0
    8.0756    9.2972   13.7530 H   0  0  0  0  0  0  0  0  0  0  0  0
    5.0111    8.1197    5.0249 C   0  0  0  0  0  0  0  0  0  0  0  0
    5.9209    7.8318    5.2475 H   0  0  0  0  0  0  0  0  0  0  0  0
    4.4005    7.3568    5.0926 H   0  0  0  0  0  0  0  0  0  0  0  0
    4.7286    8.8213    5.6481 H   0  0  0  0  0  0  0  0  0  0  0  0
   16.9178   12.9722    3.4769 C   0  0  0  0  0  0  0  0  0  0  0  0
   17.7656   12.5649    3.6056 H   0  0  0  0  0  0  0  0  0  0  0  0
   10.8472   14.0635    4.0157 C   0  0  0  0  0  0  0  0  0  0  0  0
   11.2547   13.8414    3.1526 H   0  0  0  0  0  0  0  0  0  0  0  0
   10.5862   15.0091    4.0191 H   0  0  0  0  0  0  0  0  0  0  0  0
   10.0526   13.5063    4.1545 H   0  0  0  0  0  0  0  0  0  0  0  0
   10.6955    2.7572    8.9475 C   0  0  0  0  0  0  0  0  0  0  0  0
   10.4662    3.6472    9.2896 H   0  0  0  0  0  0  0  0  0  0  0  0
   11.3642    2.3455    9.5347 H   0  0  0  0  0  0  0  0  0  0  0  0
    9.8919    2.1986    8.9251 H   0  0  0  0  0  0  0  0  0  0  0  0
   12.9536    6.4262   10.1164 C   0  0  0  0  0  0  0  0  0  0  0  0
   12.4462    6.1456   10.8693 H   0  0  0  0  0  0  0  0  0  0  0  0
   15.0866    6.7678    8.9826 C   0  0  0  0  0  0  0  0  0  0  0  0
   16.0344    6.7235    9.0172 H   0  0  0  0  0  0  0  0  0  0  0  0
   10.9932    7.7561    7.4680 B   0  0  0  0  0  0  0  0  0  0  0  0
   11.3816    4.9799    4.3527 C   0  0  0  0  0  0  0  0  0  0  0  0
   10.6805    5.6621    4.3130 H   0  0  0  0  0  0  0  0  0  0  0  0
   11.8393    4.9297    3.4872 H   0  0  0  0  0  0  0  0  0  0  0  0
   12.0288    5.2155    5.0503 H   0  0  0  0  0  0  0  0  0  0  0  0
   16.7942   14.3290    3.3013 C   0  0  0  0  0  0  0  0  0  0  0  0
   17.5755   14.8690    3.3383 H   0  0  0  0  0  0  0  0  0  0  0  0
    7.9622   12.9454    7.8681 C   0  0  0  0  0  0  0  0  0  0  0  0
    7.2110   13.0853    7.3045 H   0  0  0  0  0  0  0  0  0  0  0  0
   12.5733    3.7528    7.5171 C   0  0  0  0  0  0  0  0  0  0  0  0
   12.9110    3.8430    6.6009 H   0  0  0  0  0  0  0  0  0  0  0  0
   13.2530    3.3170    8.0730 H   0  0  0  0  0  0  0  0  0  0  0  0
   12.3727    4.6395    7.8802 H   0  0  0  0  0  0  0  0  0  0  0  0
    5.9426    6.3798   -0.0614 C   0  0  0  0  0  0  0  0  0  0  0  0
    5.2814    6.0544   -0.6608 H   0  0  0  0  0  0  0  0  0  0  0  0
    7.6410    9.4678   11.7258 C   0  0  0  0  0  0  0  0  0  0  0  0
    8.5868    9.7763   11.6238 H   0  0  0  0  0  0  0  0  0  0  0  0
    5.0128   11.2277    0.2738 C   0  0  0  0  0  0  0  0  0  0  0  0
    5.3312   12.0207    0.6903 H   0  0  0  0  0  0  0  0  0  0  0  0
   14.4658    7.2676    7.8365 C   0  0  0  0  0  0  0  0  0  0  0  0
   14.9575    7.5314    7.0687 H   0  0  0  0  0  0  0  0  0  0  0  0
    8.4132   13.9454    8.7720 C   0  0  0  0  0  0  0  0  0  0  0  0
    7.9699   14.7844    8.8246 H   0  0  0  0  0  0  0  0  0  0  0  0
    6.9221    5.5234    0.4616 C   0  0  0  0  0  0  0  0  0  0  0  0
    6.9303    4.6123    0.1914 H   0  0  0  0  0  0  0  0  0  0  0  0
   14.5908   13.1413    6.7027 C   0  0  0  0  0  0  0  0  0  0  0  0
   15.2332   13.0966    5.9649 H   0  0  0  0  0  0  0  0  0  0  0  0
   15.0643   13.0445    7.5555 H   0  0  0  0  0  0  0  0  0  0  0  0
   14.1283   14.0052    6.6825 H   0  0  0  0  0  0  0  0  0  0  0  0
   13.5698   12.0146    6.5571 C   0  0  0  0  0  0  0  0  0  0  0  0
   12.9563   12.1898    7.3283 H   0  0  0  0  0  0  0  0  0  0  0  0
    4.0110    8.9390   -0.9249 C   0  0  0  0  0  0  0  0  0  0  0  0
    3.6657    8.1573   -1.3411 H   0  0  0  0  0  0  0  0  0  0  0  0
    6.9746   10.3016   10.7570 C   0  0  0  0  0  0  0  0  0  0  0  0
    7.2316   10.0241    9.8537 H   0  0  0  0  0  0  0  0  0  0  0  0
    7.2334   11.2370   10.8977 H   0  0  0  0  0  0  0  0  0  0  0  0
    6.0037   10.2135   10.8623 H   0  0  0  0  0  0  0  0  0  0  0  0
    3.4237   10.1472   -1.1443 C   0  0  0  0  0  0  0  0  0  0  0  0
    2.6433   10.1928   -1.6842 H   0  0  0  0  0  0  0  0  0  0  0  0
    9.4515    9.7702    7.4223 B   0  0  0  0  0  0  0  0  0  0  0  0
    3.9251   11.2797   -0.6108 C   0  0  0  0  0  0  0  0  0  0  0  0
    3.5398   12.1189   -0.8370 H   0  0  0  0  0  0  0  0  0  0  0  0
    9.5092   13.6780    9.5723 C   0  0  0  0  0  0  0  0  0  0  0  0
    9.7916   14.3569   10.1738 H   0  0  0  0  0  0  0  0  0  0  0  0
   10.2192   12.4967    9.5583 C   0  0  0  0  0  0  0  0  0  0  0  0
   10.9739   12.3356   10.1128 H   0  0  0  0  0  0  0  0  0  0  0  0
   11.1980   14.0962    6.4833 C   0  0  0  0  0  0  0  0  0  0  0  0
   10.6662   13.3213    6.7637 H   0  0  0  0  0  0  0  0  0  0  0  0
   10.6174   14.8829    6.4171 H   0  0  0  0  0  0  0  0  0  0  0  0
   11.9019   14.2644    7.1441 H   0  0  0  0  0  0  0  0  0  0  0  0
   14.0727   10.6718    6.8695 C   0  0  0  0  0  0  0  0  0  0  0  0
   13.3326   10.0308    6.8409 H   0  0  0  0  0  0  0  0  0  0  0  0
   14.4696   10.6728    7.7662 H   0  0  0  0  0  0  0  0  0  0  0  0
   14.7525   10.4173    6.2120 H   0  0  0  0  0  0  0  0  0  0  0  0
    3.7222    8.7655    8.0384 H   0  0  0  0  0  0  0  0  0  0  0  0
  1  5  1  0  0  0  0
  2  6  1  0  0  0  0
  3  6  1  0  0  0  0
  4  5  1  0  0  0  0
  5125  1  0  0  0  0
  6125  1  0  0  0  0
  7  4  1  0  0  0  0
  8  2  1  0  0  0  0
  9  3  1  0  0  0  0
 10  1  1  0  0  0  0
 11  1  1  0  0  0  0
 12 74  1  0  0  0  0
 13126  1  0  0  0  0
 14152  1  0  0  0  0
 15  2  1  0  0  0  0
 16  4  1  0  0  0  0
 17129  1  0  0  0  0
 18  3  1  0  0  0  0
 19 11  4  0  0  0  0
 20 19  4  0  0  0  0
 21 11  4  0  0  0  0
 22 20  4  0  0  0  0
 23 22  1  0  0  0  0
 24 25  1  0  0  0  0
 26 27  1  0  0  0  0
 28 21  4  0  0  0  0
 29 28  1  0  0  0  0
 30 16  4  0  0  0  0
 31 24  4  0  0  0  0
 32 39  4  0  0  0  0
 33 10  1  0  0  0  0
 34 15  4  0  0  0  0
 35 31  4  0  0  0  0
 36 35  1  0  0  0  0
 37 20  4  0  0  0  0
 38 37  1  0  0  0  0
 39 40  1  0  0  0  0
 41 33  1  0  0  0  0
 42 24  4  0  0  0  0
 43 42  1  0  0  0  0
 44 15  4  0  0  0  0
 45 46  4  0  0  0  0
 46 50  1  0  0  0  0
 47 18  4  0  0  0  0
 48 45  4  0  0  0  0
 49 48  1  0  0  0  0
 50 32  4  0  0  0  0
 51 64  1  0  0  0  0
 52 48  4  0  0  0  0
 53 54  1  0  0  0  0
 55 34  4  0  0  0  0
 56 55  1  0  0  0  0
 57  7  1  0  0  0  0
 58 57  1  0  0  0  0
 59 53  4  0  0  0  0
 60 59  1  0  0  0  0
 61  8  1  0  0  0  0
 62 64  4  0  0  0  0
 63 33  1  0  0  0  0
 64132  4  0  0  0  0
 65 66  1  0  0  0  0
 67 41  4  0  0  0  0
 68 39  4  0  0  0  0
 69 68  1  0  0  0  0
 70 63  4  0  0  0  0
 71 51  4  0  0  0  0
 72 53  4  0  0  0  0
 73 72  1  0  0  0  0
 74129  4  0  0  0  0
 75 50  4  0  0  0  0
 76 75  1  0  0  0  0
 77 41  4  0  0  0  0
 78 77  1  0  0  0  0
 79 58  4  0  0  0  0
 80 81  1  0  0  0  0
 82 68  4  0  0  0  0
 83 82  1  0  0  0  0
 84 79  1  0  0  0  0
 85 57  1  0  0  0  0
 86 52  4  0  0  0  0
 87 86  1  0  0  0  0
 88 89  1  0  0  0  0
 90 88  1  0  0  0  0
 91 88  1  0  0  0  0
 92 93  1  0  0  0  0
 94 92  1  0  0  0  0
 95 92  1  0  0  0  0
 96 46  4  0  0  0  0
 97 96  1  0  0  0  0
 98 62  4  0  0  0  0
 99 98  1  0  0  0  0
100  7  1  0  0  0  0
101100  1  0  0  0  0
102 58  4  0  0  0  0
103102  1  0  0  0  0
104105  1  0  0  0  0
106104  1  0  0  0  0
107104  1  0  0  0  0
108  8  1  0  0  0  0
109108  1  0  0  0  0
110  9  1  0  0  0  0
111110  1  0  0  0  0
112  9  1  0  0  0  0
113 65  4  0  0  0  0
114113  1  0  0  0  0
115  7  1  0  0  0  0
116115  1  0  0  0  0
117 71  4  0  0  0  0
118117  1  0  0  0  0
119  9  1  0  0  0  0
120119  1  0  0  0  0
121 77  4  0  0  0  0
122121  1  0  0  0  0
123 70  4  0  0  0  0
124123  1  0  0  0  0
125175  1  0  0  0  0
126152  4  0  0  0  0
127 80  4  0  0  0  0
128127  1  0  0  0  0
129219  4  0  0  0  0
130131  1  0  0  0  0
132113  4  0  0  0  0
133132  1  0  0  0  0
134100  1  0  0  0  0
135134  1  0  0  0  0
136134  1  0  0  0  0
137134  1  0  0  0  0
138 51  4  0  0  0  0
139138  1  0  0  0  0
140108  1  0  0  0  0
141140  1  0  0  0  0
142140  1  0  0  0  0
143140  1  0  0  0  0
144100  1  0  0  0  0
145144  1  0  0  0  0
146144  1  0  0  0  0
147144  1  0  0  0  0
148102  4  0  0  0  0
149148  1  0  0  0  0
150 10  1  0  0  0  0
151150  1  0  0  0  0
152171  4  0  0  0  0
153154  1  0  0  0  0
155153  1  0  0  0  0
156153  1  0  0  0  0
157115  1  0  0  0  0
158157  1  0  0  0  0
159157  1  0  0  0  0
160157  1  0  0  0  0
161 67  4  0  0  0  0
162161  1  0  0  0  0
163150  1  0  0  0  0
164163  1  0  0  0  0
165163  1  0  0  0  0
166163  1  0  0  0  0
167110  1  0  0  0  0
168167  1  0  0  0  0
169167  1  0  0  0  0
170167  1  0  0  0  0
171130  4  0  0  0  0
172171  1  0  0  0  0
173130  4  0  0  0  0
174173  1  0  0  0  0
175 13  1  0  0  0  0
176119  1  0  0  0  0
177176  1  0  0  0  0
178176  1  0  0  0  0
179176  1  0  0  0  0
180121  4  0  0  0  0
181180  1  0  0  0  0
182 74  4  0  0  0  0
183182  1  0  0  0  0
184110  1  0  0  0  0
185184  1  0  0  0  0
186184  1  0  0  0  0
187184  1  0  0  0  0
188 79  4  0  0  0  0
189188  1  0  0  0  0
190  8  1  0  0  0  0
191190  1  0  0  0  0
192 85  4  0  0  0  0
193192  1  0  0  0  0
194126  4  0  0  0  0
195194  1  0  0  0  0
196182  4  0  0  0  0
197196  1  0  0  0  0
198148  4  0  0  0  0
199198  1  0  0  0  0
200201  1  0  0  0  0
202200  1  0  0  0  0
203200  1  0  0  0  0
204 10  1  0  0  0  0
205204  1  0  0  0  0
206 84  4  0  0  0  0
207206  1  0  0  0  0
208190  1  0  0  0  0
209208  1  0  0  0  0
210208  1  0  0  0  0
211208  1  0  0  0  0
212206  4  0  0  0  0
213212  1  0  0  0  0
214 12  1  0  0  0  0
215192  4  0  0  0  0
216215  1  0  0  0  0
217196  4  0  0  0  0
218217  1  0  0  0  0
219217  4  0  0  0  0
220219  1  0  0  0  0
221150  1  0  0  0  0
222221  1  0  0  0  0
223221  1  0  0  0  0
224221  1  0  0  0  0
225204  1  0  0  0  0
226225  1  0  0  0  0
227225  1  0  0  0  0
228225  1  0  0  0  0
229 52  1  0  0  0  0
 14175  1  0  0  0  0
 16 19  4  0  0  0  0
 17214  1  0  0  0  0
 18 44  4  0  0  0  0
 21 33  1  0  0  0  0
 22 28  4  0  0  0  0
 26 30  4  0  0  0  0
 26 37  4  0  0  0  0
 30 57  1  0  0  0  0
 31 44  4  0  0  0  0
 32 61  1  0  0  0  0
 34 61  1  0  0  0  0
 35 55  4  0  0  0  0
 42 47  4  0  0  0  0
 45 61  1  0  0  0  0
 47112  1  0  0  0  0
 59 63  4  0  0  0  0
 62112  1  0  0  0  0
 65 98  4  0  0  0  0
 67 70  1  0  0  0  0
 71112  1  0  0  0  0
 72123  4  0  0  0  0
 75 82  4  0  0  0  0
 80117  4  0  0  0  0
 84 85  4  0  0  0  0
 86 96  4  0  0  0  0
 88115  1  0  0  0  0
 92119  1  0  0  0  0
104108  1  0  0  0  0
125214  1  0  0  0  0
127138  4  0  0  0  0
153190  1  0  0  0  0
161180  4  0  0  0  0
173194  4  0  0  0  0
188198  4  0  0  0  0
200204  1  0  0  0  0
212215  4  0  0  0  0
M  CHG  2   1   1   3   1
M  END
$$$$
VUBFAZ

From CSD data. Using bond type 'Any'. No disordered atoms. Largest molecule.
 23 23  0  0  0  0  0  0  0  0999 V2000
    0.0000    2.4276    0.7688 W   0  0  0  0  0  0  0  0  0  0  0  0
   -0.1744    4.2726    4.3297 P   0  0  0  0  0  0  0  0  0  0  0  0
    3.1037    1.6363    3.1468 P   0  0  0  0  0  0  0  0  0  0  0  0
    0.2385    2.8075    3.2725 B   0  0  0  0  0  0  0  0  0  0  0  0
    1.7832    2.9196    2.4860 B   0  0  0  0  0  0  0  0  0  0  0  0
    0.9972    1.5813   -2.0786 O   0  0  0  0  0  0  0  0  0  0  0  0
   -2.8737    2.5855   -0.4368 O   0  0  0  0  0  0  0  0  0  0  0  0
    0.1800    5.3444   -0.3506 O   0  0  0  0  0  0  0  0  0  0  0  0
   -0.5721   -0.6194    1.3270 O   0  0  0  0  0  0  0  0  0  0  0  0
    0.6136    1.8815   -1.0150 C   0  0  0  0  0  0  0  0  0  0  0  0
   -1.8501    2.4672   -0.0184 C   0  0  0  0  0  0  0  0  0  0  0  0
    0.1272    4.3001    0.0743 C   0  0  0  0  0  0  0  0  0  0  0  0
   -0.2516    0.4820    1.2894 C   0  0  0  0  0  0  0  0  0  0  0  0
    1.1734    4.8096    5.4869 C   0  0  0  0  0  0  0  0  0  0  0  0
   -1.5589    4.0062    5.4741 C   0  0  0  0  0  0  0  0  0  0  0  0
   -0.5325    5.7313    3.2312 C   0  0  0  0  0  0  0  0  0  0  0  0
    4.5956    1.7251    2.2952 C   0  0  0  0  0  0  0  0  0  0  0  0
    3.4854    1.8668    4.9216 C   0  0  0  0  0  0  0  0  0  0  0  0
    2.5975   -0.0698    2.8862 C   0  0  0  0  0  0  0  0  0  0  0  0
    0.2337    1.9238    3.8938 H   0  0  0  0  0  0  0  0  0  0  0  0
   -0.5240    2.7060    2.5136 H   0  0  0  0  0  0  0  0  0  0  0  0
    2.1743    3.9153    2.6338 H   0  0  0  0  0  0  0  0  0  0  0  0
    1.6456    2.7526    1.4279 H   0  0  0  0  0  0  0  0  0  0  0  0
  1 10  1  0  0  0  0
  2  4  1  0  0  0  0
  3  5  1  0  0  0  0
  4  5  1  0  0  0  0
  5 22  1  0  0  0  0
  6 10  3  0  0  0  0
  7 11  3  0  0  0  0
  8 12  3  0  0  0  0
  9 13  3  0  0  0  0
 11  1  1  0  0  0  0
 12  1  1  0  0  0  0
 13  1  1  0  0  0  0
 14  2  1  0  0  0  0
 15  2  1  0  0  0  0
 16  2  1  0  0  0  0
 17  3  1  0  0  0  0
 18  3  1  0  0  0  0
 19  3  1  0  0  0  0
 20  4  1  0  0  0  0
 21  1  1  0  0  0  0
 23  1  1  0  0  0  0
  4 21  1  0  0  0  0
  5 23  1  0  0  0  0
M  END
$$$$
VUFBAZ

From CSD data. Using bond type 'Any'. No disordered atoms. Largest molecule.
124126  0  0  0  0  0  0  0  0999 V2000
   -1.6137    0.9483    7.0659 P   0  0  0  0  0  0  0  0  0  0  0  0
   -1.7691    2.5869    8.0166 B   0  0  0  0  0  0  0  0  0  0  0  0
   -3.0210    3.2287    8.2680 N   0  0  0  0  0  0  0  0  0  0  0  0
   -4.3509    2.6068    8.0349 C   0  0  0  0  0  0  0  0  0  0  0  0
   -4.5733    1.4026    8.9382 C   0  0  0  0  0  0  0  0  0  0  0  0
   -4.6694    2.3443    6.5987 C   0  0  0  0  0  0  0  0  0  0  0  0
   -3.1058    4.6203    8.7341 C   0  0  0  0  0  0  0  0  0  0  0  0
   -3.6816    5.5510    7.6750 C   0  0  0  0  0  0  0  0  0  0  0  0
   -3.8637    4.7990   10.0479 C   0  0  0  0  0  0  0  0  0  0  0  0
   -0.5579    3.2816    8.5526 N   0  0  0  0  0  0  0  0  0  0  0  0
    0.4428    3.7359    7.5955 C   0  0  0  0  0  0  0  0  0  0  0  0
   -0.2297    4.4284    6.4214 C   0  0  0  0  0  0  0  0  0  0  0  0
    1.4516    4.6975    8.2164 C   0  0  0  0  0  0  0  0  0  0  0  0
    0.0106    2.7303    9.8137 C   0  0  0  0  0  0  0  0  0  0  0  0
    1.0093    1.5879    9.6418 C   0  0  0  0  0  0  0  0  0  0  0  0
   -1.0790    2.2870   10.7686 C   0  0  0  0  0  0  0  0  0  0  0  0
   -1.5341    1.1556    4.5406 Li  0  0  0  0  0  0  0  0  0  0  0  0
   -2.1312    2.6443    3.2848 O   0  0  0  0  0  0  0  0  0  0  0  0
    0.2455    1.5680    3.7306 O   0  0  0  0  0  0  0  0  0  0  0  0
   -1.2529    2.4700    2.1870 C   0  0  0  0  0  0  0  0  0  0  0  0
    0.1388    2.5230    2.6951 C   0  0  0  0  0  0  0  0  0  0  0  0
   -3.5122    2.7148    2.8820 C   0  0  0  0  0  0  0  0  0  0  0  0
    1.5482    1.4886    4.2720 C   0  0  0  0  0  0  0  0  0  0  0  0
   -0.3244    0.7609    7.1573 H   0  0  0  0  0  0  0  0  0  0  0  0
   -5.0216    3.2618    8.2497 H   0  0  0  0  0  0  0  0  0  0  0  0
   -5.4368    1.0123    8.7825 H   0  0  0  0  0  0  0  0  0  0  0  0
   -4.5238    1.7202    9.8427 H   0  0  0  0  0  0  0  0  0  0  0  0
   -3.8928    0.7410    8.7932 H   0  0  0  0  0  0  0  0  0  0  0  0
   -5.5422    1.9496    6.5299 H   0  0  0  0  0  0  0  0  0  0  0  0
   -4.0151    1.7379    6.2431 H   0  0  0  0  0  0  0  0  0  0  0  0
   -4.6477    3.1647    6.1013 H   0  0  0  0  0  0  0  0  0  0  0  0
   -2.2028    4.8850    8.9232 H   0  0  0  0  0  0  0  0  0  0  0  0
   -3.7279    6.4486    8.0144 H   0  0  0  0  0  0  0  0  0  0  0  0
   -4.5627    5.2555    7.4312 H   0  0  0  0  0  0  0  0  0  0  0  0
   -3.1126    5.5311    6.9027 H   0  0  0  0  0  0  0  0  0  0  0  0
   -3.4930    4.2123   10.7106 H   0  0  0  0  0  0  0  0  0  0  0  0
   -4.7846    4.5718    9.8986 H   0  0  0  0  0  0  0  0  0  0  0  0
   -3.8021    5.7076   10.3540 H   0  0  0  0  0  0  0  0  0  0  0  0
    0.9233    2.9596    7.3055 H   0  0  0  0  0  0  0  0  0  0  0  0
    0.4303    4.7196    5.7877 H   0  0  0  0  0  0  0  0  0  0  0  0
   -0.7172    5.1893    6.7480 H   0  0  0  0  0  0  0  0  0  0  0  0
   -0.8365    3.8198    5.9939 H   0  0  0  0  0  0  0  0  0  0  0  0
    2.1002    4.9555    7.5568 H   0  0  0  0  0  0  0  0  0  0  0  0
    1.8969    4.2674    8.9501 H   0  0  0  0  0  0  0  0  0  0  0  0
    0.9897    5.4760    8.5333 H   0  0  0  0  0  0  0  0  0  0  0  0
    0.4993    3.4559   10.2058 H   0  0  0  0  0  0  0  0  0  0  0  0
    1.7084    1.8790    9.0521 H   0  0  0  0  0  0  0  0  0  0  0  0
    0.5597    0.8314    9.2583 H   0  0  0  0  0  0  0  0  0  0  0  0
    1.3872    1.3387   10.4894 H   0  0  0  0  0  0  0  0  0  0  0  0
   -0.6955    1.9430   11.5786 H   0  0  0  0  0  0  0  0  0  0  0  0
   -1.5945    1.5967   10.3422 H   0  0  0  0  0  0  0  0  0  0  0  0
   -1.6493    3.0302   10.9738 H   0  0  0  0  0  0  0  0  0  0  0  0
   -1.3855    1.5989    1.8078 H   0  0  0  0  0  0  0  0  0  0  0  0
   -1.4105    3.1383    1.5167 H   0  0  0  0  0  0  0  0  0  0  0  0
    0.2742    3.3963    3.0722 H   0  0  0  0  0  0  0  0  0  0  0  0
    0.7852    2.3708    2.0033 H   0  0  0  0  0  0  0  0  0  0  0  0
   -4.0895    2.8472    3.6372 H   0  0  0  0  0  0  0  0  0  0  0  0
   -3.7446    1.8944    2.4405 H   0  0  0  0  0  0  0  0  0  0  0  0
   -3.6137    3.4470    2.2697 H   0  0  0  0  0  0  0  0  0  0  0  0
    1.5859    0.8072    4.9466 H   0  0  0  0  0  0  0  0  0  0  0  0
    1.7724    2.3377    4.6609 H   0  0  0  0  0  0  0  0  0  0  0  0
    2.1745    1.2813    3.5738 H   0  0  0  0  0  0  0  0  0  0  0  0
   -2.7754   -1.1556    6.2012 Li  0  0  0  0  0  0  0  0  0  0  0  0
   -2.6957   -0.9483    3.6758 P   0  0  0  0  0  0  0  0  0  0  0  0
   -2.1782   -2.6443    7.4569 O   0  0  0  0  0  0  0  0  0  0  0  0
   -4.5549   -1.5680    7.0112 O   0  0  0  0  0  0  0  0  0  0  0  0
   -2.5404   -2.5869    2.7252 B   0  0  0  0  0  0  0  0  0  0  0  0
   -3.9851   -0.7609    3.5845 H   0  0  0  0  0  0  0  0  0  0  0  0
   -3.0566   -2.4700    8.5548 C   0  0  0  0  0  0  0  0  0  0  0  0
   -0.7972   -2.7148    7.8598 C   0  0  0  0  0  0  0  0  0  0  0  0
   -4.4483   -2.5230    8.0467 C   0  0  0  0  0  0  0  0  0  0  0  0
   -5.8577   -1.4886    6.4698 C   0  0  0  0  0  0  0  0  0  0  0  0
   -1.2885   -3.2287    2.4738 N   0  0  0  0  0  0  0  0  0  0  0  0
   -3.7516   -3.2816    2.1892 N   0  0  0  0  0  0  0  0  0  0  0  0
   -2.9240   -1.5989    8.9339 H   0  0  0  0  0  0  0  0  0  0  0  0
   -2.8989   -3.1383    9.2250 H   0  0  0  0  0  0  0  0  0  0  0  0
   -0.2200   -2.8472    7.1046 H   0  0  0  0  0  0  0  0  0  0  0  0
   -0.5648   -1.8944    8.3013 H   0  0  0  0  0  0  0  0  0  0  0  0
   -0.6958   -3.4470    8.4720 H   0  0  0  0  0  0  0  0  0  0  0  0
   -4.5836   -3.3963    7.6696 H   0  0  0  0  0  0  0  0  0  0  0  0
   -5.0947   -2.3708    8.7384 H   0  0  0  0  0  0  0  0  0  0  0  0
   -5.8953   -0.8072    5.7952 H   0  0  0  0  0  0  0  0  0  0  0  0
   -6.0819   -2.3377    6.0809 H   0  0  0  0  0  0  0  0  0  0  0  0
   -6.4839   -1.2813    7.1680 H   0  0  0  0  0  0  0  0  0  0  0  0
    0.0414   -2.6068    2.7069 C   0  0  0  0  0  0  0  0  0  0  0  0
   -1.2036   -4.6203    2.0076 C   0  0  0  0  0  0  0  0  0  0  0  0
   -4.7522   -3.7359    3.1463 C   0  0  0  0  0  0  0  0  0  0  0  0
   -4.3201   -2.7303    0.9281 C   0  0  0  0  0  0  0  0  0  0  0  0
    0.2639   -1.4026    1.8035 C   0  0  0  0  0  0  0  0  0  0  0  0
    0.3600   -2.3443    4.1431 C   0  0  0  0  0  0  0  0  0  0  0  0
    0.7121   -3.2618    2.4921 H   0  0  0  0  0  0  0  0  0  0  0  0
   -0.6279   -5.5510    3.0668 C   0  0  0  0  0  0  0  0  0  0  0  0
   -0.4458   -4.7990    0.6939 C   0  0  0  0  0  0  0  0  0  0  0  0
   -2.1067   -4.8850    1.8186 H   0  0  0  0  0  0  0  0  0  0  0  0
   -4.0798   -4.4284    4.3203 C   0  0  0  0  0  0  0  0  0  0  0  0
   -5.7611   -4.6975    2.5254 C   0  0  0  0  0  0  0  0  0  0  0  0
   -5.2327   -2.9596    3.4363 H   0  0  0  0  0  0  0  0  0  0  0  0
   -5.3188   -1.5879    1.1000 C   0  0  0  0  0  0  0  0  0  0  0  0
   -3.2305   -2.2870   -0.0269 C   0  0  0  0  0  0  0  0  0  0  0  0
   -4.8088   -3.4559    0.5360 H   0  0  0  0  0  0  0  0  0  0  0  0
    1.1273   -1.0123    1.9593 H   0  0  0  0  0  0  0  0  0  0  0  0
    0.2143   -1.7202    0.8991 H   0  0  0  0  0  0  0  0  0  0  0  0
   -0.4167   -0.7410    1.9486 H   0  0  0  0  0  0  0  0  0  0  0  0
    1.2328   -1.9496    4.2119 H   0  0  0  0  0  0  0  0  0  0  0  0
   -0.2944   -1.7379    4.4987 H   0  0  0  0  0  0  0  0  0  0  0  0
    0.3382   -3.1647    4.6405 H   0  0  0  0  0  0  0  0  0  0  0  0
   -0.5815   -6.4486    2.7273 H   0  0  0  0  0  0  0  0  0  0  0  0
    0.2532   -5.2555    3.3106 H   0  0  0  0  0  0  0  0  0  0  0  0
   -1.1969   -5.5311    3.8391 H   0  0  0  0  0  0  0  0  0  0  0  0
   -0.8164   -4.2123    0.0312 H   0  0  0  0  0  0  0  0  0  0  0  0
    0.4751   -4.5718    0.8432 H   0  0  0  0  0  0  0  0  0  0  0  0
   -0.5074   -5.7076    0.3878 H   0  0  0  0  0  0  0  0  0  0  0  0
   -4.7398   -4.7196    4.9541 H   0  0  0  0  0  0  0  0  0  0  0  0
   -3.5922   -5.1893    3.9938 H   0  0  0  0  0  0  0  0  0  0  0  0
   -3.4729   -3.8198    4.7479 H   0  0  0  0  0  0  0  0  0  0  0  0
   -6.4097   -4.9555    3.1849 H   0  0  0  0  0  0  0  0  0  0  0  0
   -6.2063   -4.2674    1.7917 H   0  0  0  0  0  0  0  0  0  0  0  0
   -5.2991   -5.4760    2.2085 H   0  0  0  0  0  0  0  0  0  0  0  0
   -6.0179   -1.8790    1.6897 H   0  0  0  0  0  0  0  0  0  0  0  0
   -4.8692   -0.8314    1.4834 H   0  0  0  0  0  0  0  0  0  0  0  0
   -5.6966   -1.3387    0.2524 H   0  0  0  0  0  0  0  0  0  0  0  0
   -3.6140   -1.9430   -0.8368 H   0  0  0  0  0  0  0  0  0  0  0  0
   -2.7149   -1.5967    0.3996 H   0  0  0  0  0  0  0  0  0  0  0  0
   -2.6601   -3.0302   -0.2320 H   0  0  0  0  0  0  0  0  0  0  0  0
  1  2  1  0  0  0  0
  2  3  1  0  0  0  0
  3  4  1  0  0  0  0
  4  5  1  0  0  0  0
  5 26  1  0  0  0  0
  6  4  1  0  0  0  0
  7  3  1  0  0  0  0
  8  7  1  0  0  0  0
  9  7  1  0  0  0  0
 10  2  1  0  0  0  0
 11 10  1  0  0  0  0
 12 11  1  0  0  0  0
 13 11  1  0  0  0  0
 14 10  1  0  0  0  0
 15 14  1  0  0  0  0
 16 14  1  0  0  0  0
 17  1  1  0  0  0  0
 18 17  1  0  0  0  0
 19 17  1  0  0  0  0
 20 18  1  0  0  0  0
 21 19  1  0  0  0  0
 22 18  1  0  0  0  0
 23 19  1  0  0  0  0
 24  1  1  0  0  0  0
 25  4  1  0  0  0  0
 27  5  1  0  0  0  0
 28  5  1  0  0  0  0
 29  6  1  0  0  0  0
 30  6  1  0  0  0  0
 31  6  1  0  0  0  0
 32  7  1  0  0  0  0
 33  8  1  0  0  0  0
 34  8  1  0  0  0  0
 35  8  1  0  0  0  0
 36  9  1  0  0  0  0
 37  9  1  0  0  0  0
 38  9  1  0  0  0  0
 39 11  1  0  0  0  0
 40 12  1  0  0  0  0
 41 12  1  0  0  0  0
 42 12  1  0  0  0  0
 43 13  1  0  0  0  0
 44 13  1  0  0  0  0
 45 13  1  0  0  0  0
 46 14  1  0  0  0  0
 47 15  1  0  0  0  0
 48 15  1  0  0  0  0
 49 15  1  0  0  0  0
 50 16  1  0  0  0  0
 51 16  1  0  0  0  0
 52 16  1  0  0  0  0
 53 20  1  0  0  0  0
 54 20  1  0  0  0  0
 55 21  1  0  0  0  0
 56 21  1  0  0  0  0
 57 22  1  0  0  0  0
 58 22  1  0  0  0  0
 59 22  1  0  0  0  0
 60 23  1  0  0  0  0
 61 23  1  0  0  0  0
 62 23  1  0  0  0  0
 63  1  1  0  0  0  0
 64 17  1  0  0  0  0
 65 63  1  0  0  0  0
 66 63  1  0  0  0  0
 67 64  1  0  0  0  0
 68 64  1  0  0  0  0
 69 65  1  0  0  0  0
 70 65  1  0  0  0  0
 71 66  1  0  0  0  0
 72 66  1  0  0  0  0
 73 67  1  0  0  0  0
 74 67  1  0  0  0  0
 75 69  1  0  0  0  0
 76 69  1  0  0  0  0
 77 70  1  0  0  0  0
 78 70  1  0  0  0  0
 79 70  1  0  0  0  0
 80 71  1  0  0  0  0
 81 71  1  0  0  0  0
 82 72  1  0  0  0  0
 83 72  1  0  0  0  0
 84 72  1  0  0  0  0
 85 73  1  0  0  0  0
 86 73  1  0  0  0  0
 87 74  1  0  0  0  0
 88 74  1  0  0  0  0
 89 85  1  0  0  0  0
 90 85  1  0  0  0  0
 91 85  1  0  0  0  0
 92 86  1  0  0  0  0
 93 86  1  0  0  0  0
 94 86  1  0  0  0  0
 95 87  1  0  0  0  0
 96 87  1  0  0  0  0
 97 87  1  0  0  0  0
 98 88  1  0  0  0  0
 99 88  1  0  0  0  0
100 88  1  0  0  0  0
101 89  1  0  0  0  0
102 89  1  0  0  0  0
103 89  1  0  0  0  0
104 90  1  0  0  0  0
105 90  1  0  0  0  0
106 90  1  0  0  0  0
107 92  1  0  0  0  0
108 92  1  0  0  0  0
109 92  1  0  0  0  0
110 93  1  0  0  0  0
111 93  1  0  0  0  0
112 93  1  0  0  0  0
113 95  1  0  0  0  0
114 95  1  0  0  0  0
115 95  1  0  0  0  0
116 96  1  0  0  0  0
117 96  1  0  0  0  0
118 96  1  0  0  0  0
119 98  1  0  0  0  0
120 98  1  0  0  0  0
121 98  1  0  0  0  0
122 99  1  0  0  0  0
123 99  1  0  0  0  0
124 99  1  0  0  0  0
 20 21  1  0  0  0  0
 63 64  1  0  0  0  0
 69 71  1  0  0  0  0
M  END
$$$$
VUFWAW

From CSD data. Using bond type 'Any'. No disordered atoms. Largest molecule.
133140  0  0  0  0  0  0  0  0999 V2000
    8.7187    1.6560   11.6523 P   0  0  0  0  0  0  0  0  0  0  0  0
    9.6334    1.4805   16.9136 P   0  0  0  0  0  0  0  0  0  0  0  0
    7.0769   -0.7588   10.5180 O   0  0  0  0  0  0  0  0  0  0  0  0
    9.8176    0.6494   14.1387 O   0  0  0  0  0  0  0  0  0  0  0  0
   12.4777    1.2387   17.9734 O   0  0  0  0  0  0  0  0  0  0  0  0
    8.5652   -0.0676   12.2457 C   0  0  0  0  0  0  0  0  0  0  0  0
    7.8136   -1.0851   11.6710 C   0  0  0  0  0  0  0  0  0  0  0  0
    7.7723   -2.3750   12.1783 C   0  0  0  0  0  0  0  0  0  0  0  0
    8.4168   -2.6776   13.3700 C   0  0  0  0  0  0  0  0  0  0  0  0
    9.1615   -1.6949   13.9920 C   0  0  0  0  0  0  0  0  0  0  0  0
    9.2146   -0.3920   13.4408 C   0  0  0  0  0  0  0  0  0  0  0  0
    7.3660    2.5838   12.4227 C   0  0  0  0  0  0  0  0  0  0  0  0
    7.6345    3.8925   12.8694 C   0  0  0  0  0  0  0  0  0  0  0  0
    6.5733    4.6240   13.4526 C   0  0  0  0  0  0  0  0  0  0  0  0
    5.3176    4.0971   13.6330 C   0  0  0  0  0  0  0  0  0  0  0  0
    5.0770    2.7782   13.1964 C   0  0  0  0  0  0  0  0  0  0  0  0
    6.0974    2.0631   12.6048 C   0  0  0  0  0  0  0  0  0  0  0  0
    8.3285    1.6627    9.8741 C   0  0  0  0  0  0  0  0  0  0  0  0
    9.1851    0.9843    9.0229 C   0  0  0  0  0  0  0  0  0  0  0  0
    9.0094    1.0440    7.6256 C   0  0  0  0  0  0  0  0  0  0  0  0
    7.9909    1.7921    7.0845 C   0  0  0  0  0  0  0  0  0  0  0  0
    7.1335    2.4823    7.9425 C   0  0  0  0  0  0  0  0  0  0  0  0
    7.3100    2.4358    9.3229 C   0  0  0  0  0  0  0  0  0  0  0  0
    6.5778   -1.8361    9.6668 C   0  0  0  0  0  0  0  0  0  0  0  0
    5.6300   -1.1667    8.6605 C   0  0  0  0  0  0  0  0  0  0  0  0
    5.0793   -2.2602    7.7233 C   0  0  0  0  0  0  0  0  0  0  0  0
    6.2412   -3.0638    7.0204 C   0  0  0  0  0  0  0  0  0  0  0  0
    7.1801   -3.6850    8.0621 C   0  0  0  0  0  0  0  0  0  0  0  0
    7.7409   -2.5825    8.9656 C   0  0  0  0  0  0  0  0  0  0  0  0
    4.5510   -0.3082    9.3347 C   0  0  0  0  0  0  0  0  0  0  0  0
    3.5428   -1.1118   10.1674 C   0  0  0  0  0  0  0  0  0  0  0  0
    3.7513    0.5355    8.2981 C   0  0  0  0  0  0  0  0  0  0  0  0
    8.3379   -4.4657    7.3980 C   0  0  0  0  0  0  0  0  0  0  0  0
   11.1142    0.8248   16.0990 C   0  0  0  0  0  0  0  0  0  0  0  0
   11.0338    0.3736   14.7893 C   0  0  0  0  0  0  0  0  0  0  0  0
   12.0937   -0.1893   14.0847 C   0  0  0  0  0  0  0  0  0  0  0  0
   13.3088   -0.2884   14.7387 C   0  0  0  0  0  0  0  0  0  0  0  0
   13.5054    0.1779   16.0147 C   0  0  0  0  0  0  0  0  0  0  0  0
   12.4125    0.7074   16.7176 C   0  0  0  0  0  0  0  0  0  0  0  0
    9.6392    3.2441   16.6670 C   0  0  0  0  0  0  0  0  0  0  0  0
    8.4341    3.8886   16.4631 C   0  0  0  0  0  0  0  0  0  0  0  0
    8.4412    5.3003   16.3232 C   0  0  0  0  0  0  0  0  0  0  0  0
    9.5948    6.0320   16.4968 C   0  0  0  0  0  0  0  0  0  0  0  0
   10.8037    5.4057   16.6771 C   0  0  0  0  0  0  0  0  0  0  0  0
   10.8219    3.9657   16.7715 C   0  0  0  0  0  0  0  0  0  0  0  0
    9.7866    1.2768   18.7268 C   0  0  0  0  0  0  0  0  0  0  0  0
    9.6781    2.3252   19.5999 C   0  0  0  0  0  0  0  0  0  0  0  0
    9.6728    2.1473   20.9686 C   0  0  0  0  0  0  0  0  0  0  0  0
    9.7964    0.8556   21.4743 C   0  0  0  0  0  0  0  0  0  0  0  0
    9.8868   -0.2226   20.6433 C   0  0  0  0  0  0  0  0  0  0  0  0
    9.8744   -0.0471   19.2207 C   0  0  0  0  0  0  0  0  0  0  0  0
   13.6945    1.0107   18.7689 C   0  0  0  0  0  0  0  0  0  0  0  0
   13.6238    1.9816   19.9522 C   0  0  0  0  0  0  0  0  0  0  0  0
   14.8699    1.7256   20.8119 C   0  0  0  0  0  0  0  0  0  0  0  0
   14.9459    0.2385   21.2889 C   0  0  0  0  0  0  0  0  0  0  0  0
   14.9756   -0.7177   20.1191 C   0  0  0  0  0  0  0  0  0  0  0  0
   13.7193   -0.4723   19.2595 C   0  0  0  0  0  0  0  0  0  0  0  0
   13.4763    3.4288   19.4668 C   0  0  0  0  0  0  0  0  0  0  0  0
   14.5414    3.9275   18.4959 C   0  0  0  0  0  0  0  0  0  0  0  0
   13.3109    4.4448   20.6568 C   0  0  0  0  0  0  0  0  0  0  0  0
   15.0134   -2.2032   20.5742 C   0  0  0  0  0  0  0  0  0  0  0  0
   10.4494    2.5213   11.7890 B   0  0  0  0  0  0  0  0  0  0  0  0
    7.9439    0.6692   16.5103 B   0  0  0  0  0  0  0  0  0  0  0  0
   11.2117    1.8972   11.3003 H   0  0  0  0  0  0  0  0  0  0  0  0
    8.0079   -0.4150   16.6830 H   0  0  0  0  0  0  0  0  0  0  0  0
    7.3012   -3.0537   11.7080 H   0  0  0  0  0  0  0  0  0  0  0  0
    8.3477   -3.5448   13.7516 H   0  0  0  0  0  0  0  0  0  0  0  0
    9.6375   -1.8930   14.7901 H   0  0  0  0  0  0  0  0  0  0  0  0
    8.5008    4.2722   12.7826 H   0  0  0  0  0  0  0  0  0  0  0  0
    6.7361    5.5172   13.7323 H   0  0  0  0  0  0  0  0  0  0  0  0
    4.6291    4.6082   14.0422 H   0  0  0  0  0  0  0  0  0  0  0  0
    4.2192    2.3852   13.3067 H   0  0  0  0  0  0  0  0  0  0  0  0
    5.9222    1.1769   12.3117 H   0  0  0  0  0  0  0  0  0  0  0  0
    9.8995    0.4726    9.3843 H   0  0  0  0  0  0  0  0  0  0  0  0
    9.5965    0.5667    7.0535 H   0  0  0  0  0  0  0  0  0  0  0  0
    7.8638    1.8326    6.1439 H   0  0  0  0  0  0  0  0  0  0  0  0
    6.4232    2.9950    7.5799 H   0  0  0  0  0  0  0  0  0  0  0  0
    6.7326    2.9331    9.8907 H   0  0  0  0  0  0  0  0  0  0  0  0
    6.0610   -2.4840   10.2254 H   0  0  0  0  0  0  0  0  0  0  0  0
    6.1845   -0.5527    8.0997 H   0  0  0  0  0  0  0  0  0  0  0  0
    4.5072   -1.8407    7.0328 H   0  0  0  0  0  0  0  0  0  0  0  0
    4.5178   -2.8864    8.2455 H   0  0  0  0  0  0  0  0  0  0  0  0
    5.8538   -3.7789    6.4563 H   0  0  0  0  0  0  0  0  0  0  0  0
    6.7557   -2.4545    6.4332 H   0  0  0  0  0  0  0  0  0  0  0  0
    6.6525   -4.3194    8.6270 H   0  0  0  0  0  0  0  0  0  0  0  0
    8.2686   -1.9437    8.4237 H   0  0  0  0  0  0  0  0  0  0  0  0
    8.3401   -2.9801    9.6454 H   0  0  0  0  0  0  0  0  0  0  0  0
    5.0130    0.3294    9.9517 H   0  0  0  0  0  0  0  0  0  0  0  0
    4.0198   -1.6267   10.8506 H   0  0  0  0  0  0  0  0  0  0  0  0
    3.0499   -1.7238    9.5813 H   0  0  0  0  0  0  0  0  0  0  0  0
    2.9137   -0.4977   10.6006 H   0  0  0  0  0  0  0  0  0  0  0  0
    3.2150    1.2077    8.7681 H   0  0  0  0  0  0  0  0  0  0  0  0
    3.1592   -0.0537    7.7850 H   0  0  0  0  0  0  0  0  0  0  0  0
    4.3750    0.9823    7.6891 H   0  0  0  0  0  0  0  0  0  0  0  0
    8.8302   -3.8701    6.7953 H   0  0  0  0  0  0  0  0  0  0  0  0
    7.9719   -5.2178    6.8854 H   0  0  0  0  0  0  0  0  0  0  0  0
    8.9427   -4.8053    8.0889 H   0  0  0  0  0  0  0  0  0  0  0  0
   11.9863   -0.4944   13.1919 H   0  0  0  0  0  0  0  0  0  0  0  0
   14.0370   -0.6955   14.2848 H   0  0  0  0  0  0  0  0  0  0  0  0
   14.3667    0.1422   16.4155 H   0  0  0  0  0  0  0  0  0  0  0  0
    7.6215    3.3993   16.4182 H   0  0  0  0  0  0  0  0  0  0  0  0
    7.6330    5.7495   16.1042 H   0  0  0  0  0  0  0  0  0  0  0  0
    9.5539    6.9811   16.4911 H   0  0  0  0  0  0  0  0  0  0  0  0
   11.6077    5.9082   16.7380 H   0  0  0  0  0  0  0  0  0  0  0  0
   11.6440    3.5096   16.9039 H   0  0  0  0  0  0  0  0  0  0  0  0
    9.6020    3.2053   19.2512 H   0  0  0  0  0  0  0  0  0  0  0  0
    9.5878    2.8912   21.5539 H   0  0  0  0  0  0  0  0  0  0  0  0
    9.8179    0.7232   22.4144 H   0  0  0  0  0  0  0  0  0  0  0  0
    9.9583   -1.0961   21.0106 H   0  0  0  0  0  0  0  0  0  0  0  0
    9.9239   -0.7911   18.6322 H   0  0  0  0  0  0  0  0  0  0  0  0
   14.5059    1.2024   18.2171 H   0  0  0  0  0  0  0  0  0  0  0  0
   12.8169    1.7511   20.4960 H   0  0  0  0  0  0  0  0  0  0  0  0
   14.8507    2.3216   21.6012 H   0  0  0  0  0  0  0  0  0  0  0  0
   15.6802    1.9416   20.2853 H   0  0  0  0  0  0  0  0  0  0  0  0
   15.7602    0.1091   21.8370 H   0  0  0  0  0  0  0  0  0  0  0  0
   14.1605    0.0342   21.8573 H   0  0  0  0  0  0  0  0  0  0  0  0
   15.7871   -0.5277   19.5666 H   0  0  0  0  0  0  0  0  0  0  0  0
   12.9074   -0.6613   19.7938 H   0  0  0  0  0  0  0  0  0  0  0  0
   13.7242   -1.0819   18.4794 H   0  0  0  0  0  0  0  0  0  0  0  0
   12.6129    3.4606   18.9641 H   0  0  0  0  0  0  0  0  0  0  0  0
   14.4938    3.4096   17.6654 H   0  0  0  0  0  0  0  0  0  0  0  0
   15.4276    3.8193   18.8987 H   0  0  0  0  0  0  0  0  0  0  0  0
   14.3855    4.8752   18.2988 H   0  0  0  0  0  0  0  0  0  0  0  0
   13.1433    5.3413   20.2998 H   0  0  0  0  0  0  0  0  0  0  0  0
   14.1367    4.4574   21.1901 H   0  0  0  0  0  0  0  0  0  0  0  0
   12.5629    4.1693   21.2221 H   0  0  0  0  0  0  0  0  0  0  0  0
   14.2720   -2.3746   21.1916 H   0  0  0  0  0  0  0  0  0  0  0  0
   15.8638   -2.3839   21.0270 H   0  0  0  0  0  0  0  0  0  0  0  0
   14.9292   -2.7870   19.7921 H   0  0  0  0  0  0  0  0  0  0  0  0
   10.4086    3.5038   11.2964 H   0  0  0  0  0  0  0  0  0  0  0  0
   10.7101    2.6541   12.8500 H   0  0  0  0  0  0  0  0  0  0  0  0
    7.1673    1.0988   17.1604 H   0  0  0  0  0  0  0  0  0  0  0  0
    7.6882    0.8593   15.4581 H   0  0  0  0  0  0  0  0  0  0  0  0
  1  6  1  0  0  0  0
  2 34  1  0  0  0  0
  3  7  1  0  0  0  0
  4 11  1  0  0  0  0
  5 39  1  0  0  0  0
  6  7  4  0  0  0  0
  7  8  4  0  0  0  0
  8  9  4  0  0  0  0
  9 10  4  0  0  0  0
 10 11  4  0  0  0  0
 11  6  4  0  0  0  0
 12  1  1  0  0  0  0
 13 12  4  0  0  0  0
 14 13  4  0  0  0  0
 15 14  4  0  0  0  0
 16 15  4  0  0  0  0
 17 12  4  0  0  0  0
 18  1  1  0  0  0  0
 19 18  4  0  0  0  0
 20 19  4  0  0  0  0
 21 20  4  0  0  0  0
 22 21  4  0  0  0  0
 23 18  4  0  0  0  0
 24  3  1  0  0  0  0
 25 24  1  0  0  0  0
 26 25  1  0  0  0  0
 27 26  1  0  0  0  0
 28 27  1  0  0  0  0
 29 24  1  0  0  0  0
 30 25  1  0  0  0  0
 31 30  1  0  0  0  0
 32 30  1  0  0  0  0
 33 28  1  0  0  0  0
 34 35  4  0  0  0  0
 35  4  1  0  0  0  0
 36 35  4  0  0  0  0
 37 36  4  0  0  0  0
 38 37  4  0  0  0  0
 39 34  4  0  0  0  0
 40  2  1  0  0  0  0
 41 40  4  0  0  0  0
 42 41  4  0  0  0  0
 43 42  4  0  0  0  0
 44 43  4  0  0  0  0
 45 40  4  0  0  0  0
 46  2  1  0  0  0  0
 47 46  4  0  0  0  0
 48 47  4  0  0  0  0
 49 48  4  0  0  0  0
 50 49  4  0  0  0  0
 51 46  4  0  0  0  0
 52  5  1  0  0  0  0
 53 52  1  0  0  0  0
 54 53  1  0  0  0  0
 55 54  1  0  0  0  0
 56 55  1  0  0  0  0
 57 52  1  0  0  0  0
 58 53  1  0  0  0  0
 59 58  1  0  0  0  0
 60 58  1  0  0  0  0
 61 56  1  0  0  0  0
 62  1  1  0  0  0  0
 63  2  1  0  0  0  0
 64 62  1  0  0  0  0
 65 63  1  0  0  0  0
 66  8  1  0  0  0  0
 67  9  1  0  0  0  0
 68 10  1  0  0  0  0
 69 13  1  0  0  0  0
 70 14  1  0  0  0  0
 71 15  1  0  0  0  0
 72 16  1  0  0  0  0
 73 17  1  0  0  0  0
 74 19  1  0  0  0  0
 75 20  1  0  0  0  0
 76 21  1  0  0  0  0
 77 22  1  0  0  0  0
 78 23  1  0  0  0  0
 79 24  1  0  0  0  0
 80 25  1  0  0  0  0
 81 26  1  0  0  0  0
 82 26  1  0  0  0  0
 83 27  1  0  0  0  0
 84 27  1  0  0  0  0
 85 28  1  0  0  0  0
 86 29  1  0  0  0  0
 87 29  1  0  0  0  0
 88 30  1  0  0  0  0
 89 31  1  0  0  0  0
 90 31  1  0  0  0  0
 91 31  1  0  0  0  0
 92 32  1  0  0  0  0
 93 32  1  0  0  0  0
 94 32  1  0  0  0  0
 95 33  1  0  0  0  0
 96 33  1  0  0  0  0
 97 33  1  0  0  0  0
 98 36  1  0  0  0  0
 99 37  1  0  0  0  0
100 38  1  0  0  0  0
101 41  1  0  0  0  0
102 42  1  0  0  0  0
103 43  1  0  0  0  0
104 44  1  0  0  0  0
105 45  1  0  0  0  0
106 47  1  0  0  0  0
107 48  1  0  0  0  0
108 49  1  0  0  0  0
109 50  1  0  0  0  0
110 51  1  0  0  0  0
111 52  1  0  0  0  0
112 53  1  0  0  0  0
113 54  1  0  0  0  0
114 54  1  0  0  0  0
115 55  1  0  0  0  0
116 55  1  0  0  0  0
117 56  1  0  0  0  0
118 57  1  0  0  0  0
119 57  1  0  0  0  0
120 58  1  0  0  0  0
121 59  1  0  0  0  0
122 59  1  0  0  0  0
123 59  1  0  0  0  0
124 60  1  0  0  0  0
125 60  1  0  0  0  0
126 60  1  0  0  0  0
127 61  1  0  0  0  0
128 61  1  0  0  0  0
129 61  1  0  0  0  0
130 62  1  0  0  0  0
131 62  1  0  0  0  0
132 63  1  0  0  0  0
133 63  1  0  0  0  0
 16 17  4  0  0  0  0
 22 23  4  0  0  0  0
 28 29  1  0  0  0  0
 38 39  4  0  0  0  0
 44 45  4  0  0  0  0
 50 51  4  0  0  0  0
 56 57  1  0  0  0  0
M  END
$$$$
WAMBOB

From CSD data. Using bond type 'Any'. Matching problem. No disordered atoms. Largest molecule.
 96105  0  0  0  0  0  0  0  0999 V2000
   -0.4822   -0.4353    4.9388 Rh  0  0  0  0  0  0  0  0  0  0  0  0
   -2.4888   -0.8098    3.6254 Cl  0  0  0  0  0  0  0  0  0  0  0  0
   -1.7238    1.0339    6.2739 P   0  0  0  0  0  0  0  0  0  0  0  0
    0.6126   -2.1983    3.8543 P   0  0  0  0  0  0  0  0  0  0  0  0
    0.8161   -1.3966    7.4477 O   0  0  0  0  0  0  0  0  0  0  0  0
    2.2719   -0.0000    6.3572 O   0  0  0  0  0  0  0  0  0  0  0  0
    0.7859    2.2754    4.8279 O   0  0  0  0  0  0  0  0  0  0  0  0
    1.6344    0.8419    3.2475 O   0  0  0  0  0  0  0  0  0  0  0  0
    2.0206   -1.3256    8.1410 C   0  0  0  0  0  0  0  0  0  0  0  0
    2.8827   -0.4916    7.4797 C   0  0  0  0  0  0  0  0  0  0  0  0
    4.1610   -0.2623    7.9377 C   0  0  0  0  0  0  0  0  0  0  0  0
    4.5167   -0.9013    9.0970 C   0  0  0  0  0  0  0  0  0  0  0  0
    3.6619   -1.7329    9.7888 C   0  0  0  0  0  0  0  0  0  0  0  0
    2.3774   -1.9789    9.2924 C   0  0  0  0  0  0  0  0  0  0  0  0
    1.7045    2.9638    4.0433 C   0  0  0  0  0  0  0  0  0  0  0  0
    2.2217    2.0773    3.1001 C   0  0  0  0  0  0  0  0  0  0  0  0
    3.1747    2.4720    2.2002 C   0  0  0  0  0  0  0  0  0  0  0  0
    3.5902    3.7770    2.2803 C   0  0  0  0  0  0  0  0  0  0  0  0
    3.0604    4.6512    3.1866 C   0  0  0  0  0  0  0  0  0  0  0  0
    2.0884    4.2669    4.1138 C   0  0  0  0  0  0  0  0  0  0  0  0
   -1.0951    1.5398    7.9089 C   0  0  0  0  0  0  0  0  0  0  0  0
   -1.9335    1.5952    9.0218 C   0  0  0  0  0  0  0  0  0  0  0  0
   -1.4588    2.0197   10.2324 C   0  0  0  0  0  0  0  0  0  0  0  0
   -0.1582    2.4115   10.3829 C   0  0  0  0  0  0  0  0  0  0  0  0
    0.6968    2.3616    9.2940 C   0  0  0  0  0  0  0  0  0  0  0  0
    0.2173    1.9399    8.0610 C   0  0  0  0  0  0  0  0  0  0  0  0
   -2.3252    2.5901    5.5373 C   0  0  0  0  0  0  0  0  0  0  0  0
   -2.6308    3.6952    6.3059 C   0  0  0  0  0  0  0  0  0  0  0  0
   -3.1371    4.8332    5.7327 C   0  0  0  0  0  0  0  0  0  0  0  0
   -3.2764    4.9335    4.3844 C   0  0  0  0  0  0  0  0  0  0  0  0
   -2.9738    3.8304    3.5757 C   0  0  0  0  0  0  0  0  0  0  0  0
   -2.4900    2.6712    4.1586 C   0  0  0  0  0  0  0  0  0  0  0  0
   -3.2235    0.0734    6.6807 C   0  0  0  0  0  0  0  0  0  0  0  0
   -3.0655   -1.0945    7.3916 C   0  0  0  0  0  0  0  0  0  0  0  0
   -4.1186   -1.9297    7.6142 C   0  0  0  0  0  0  0  0  0  0  0  0
   -5.3620   -1.5901    7.1466 C   0  0  0  0  0  0  0  0  0  0  0  0
   -5.5511   -0.4288    6.4581 C   0  0  0  0  0  0  0  0  0  0  0  0
   -4.4875    0.4122    6.2259 C   0  0  0  0  0  0  0  0  0  0  0  0
   -0.2956   -3.6963    4.4068 C   0  0  0  0  0  0  0  0  0  0  0  0
   -0.9980   -3.6073    5.6046 C   0  0  0  0  0  0  0  0  0  0  0  0
   -1.7149   -4.6980    6.0882 C   0  0  0  0  0  0  0  0  0  0  0  0
   -1.7331   -5.8617    5.3484 C   0  0  0  0  0  0  0  0  0  0  0  0
   -1.0358   -5.9654    4.1874 C   0  0  0  0  0  0  0  0  0  0  0  0
   -0.3279   -4.8885    3.6974 C   0  0  0  0  0  0  0  0  0  0  0  0
    2.3398   -2.5135    4.3219 C   0  0  0  0  0  0  0  0  0  0  0  0
    2.6675   -3.4259    5.3420 C   0  0  0  0  0  0  0  0  0  0  0  0
    3.9891   -3.5815    5.7471 C   0  0  0  0  0  0  0  0  0  0  0  0
    4.9642   -2.8279    5.1498 C   0  0  0  0  0  0  0  0  0  0  0  0
    4.6626   -1.9578    4.1650 C   0  0  0  0  0  0  0  0  0  0  0  0
    3.3688   -1.7874    3.7615 C   0  0  0  0  0  0  0  0  0  0  0  0
    0.6691   -2.3366    2.0433 C   0  0  0  0  0  0  0  0  0  0  0  0
    1.5169   -3.2267    1.4204 C   0  0  0  0  0  0  0  0  0  0  0  0
    1.4691   -3.4353    0.0657 C   0  0  0  0  0  0  0  0  0  0  0  0
    0.6033   -2.6728   -0.7094 C   0  0  0  0  0  0  0  0  0  0  0  0
   -0.2080   -1.7518   -0.1329 C   0  0  0  0  0  0  0  0  0  0  0  0
   -0.1989   -1.5683    1.2394 C   0  0  0  0  0  0  0  0  0  0  0  0
    0.9719   -0.5796    6.3156 B   0  0  0  0  0  0  0  0  0  0  0  0
    0.7447    0.9630    4.3331 B   0  0  0  0  0  0  0  0  0  0  0  0
    4.7628    0.3182    7.4813 H   0  0  0  0  0  0  0  0  0  0  0  0
    5.3934   -0.7780    9.4461 H   0  0  0  0  0  0  0  0  0  0  0  0
    3.9325   -2.1418   10.6039 H   0  0  0  0  0  0  0  0  0  0  0  0
    1.7783   -2.5727    9.7359 H   0  0  0  0  0  0  0  0  0  0  0  0
    3.5380    1.8854    1.5485 H   0  0  0  0  0  0  0  0  0  0  0  0
    4.2608    4.1063    1.6894 H   0  0  0  0  0  0  0  0  0  0  0  0
    3.3634    5.5537    3.2074 H   0  0  0  0  0  0  0  0  0  0  0  0
    1.7296    4.8801    4.7447 H   0  0  0  0  0  0  0  0  0  0  0  0
   -2.8431    1.3333    8.9321 H   0  0  0  0  0  0  0  0  0  0  0  0
   -2.0344    2.0412   10.9898 H   0  0  0  0  0  0  0  0  0  0  0  0
    0.1666    2.7004   11.2268 H   0  0  0  0  0  0  0  0  0  0  0  0
    1.5994    2.6336    9.3869 H   0  0  0  0  0  0  0  0  0  0  0  0
    0.8018    1.9157    7.3148 H   0  0  0  0  0  0  0  0  0  0  0  0
   -2.4862    3.6740    7.2475 H   0  0  0  0  0  0  0  0  0  0  0  0
   -3.3933    5.5649    6.2867 H   0  0  0  0  0  0  0  0  0  0  0  0
   -3.5932    5.7411    3.9985 H   0  0  0  0  0  0  0  0  0  0  0  0
   -3.0758    3.8955    2.6341 H   0  0  0  0  0  0  0  0  0  0  0  0
   -2.3020    1.9128    3.6174 H   0  0  0  0  0  0  0  0  0  0  0  0
   -2.2153   -1.3077    7.7631 H   0  0  0  0  0  0  0  0  0  0  0  0
   -3.9907   -2.7457    8.0946 H   0  0  0  0  0  0  0  0  0  0  0  0
   -6.0900   -2.1756    7.3068 H   0  0  0  0  0  0  0  0  0  0  0  0
   -6.4143   -0.2111    6.1154 H   0  0  0  0  0  0  0  0  0  0  0  0
   -4.6212    1.2483    5.7903 H   0  0  0  0  0  0  0  0  0  0  0  0
   -0.9916   -2.7926    6.0946 H   0  0  0  0  0  0  0  0  0  0  0  0
   -2.1767   -4.6464    6.9160 H   0  0  0  0  0  0  0  0  0  0  0  0
   -2.2493   -6.6004    5.6478 H   0  0  0  0  0  0  0  0  0  0  0  0
   -1.0427   -6.7835    3.6990 H   0  0  0  0  0  0  0  0  0  0  0  0
    0.1439   -4.9689    2.8759 H   0  0  0  0  0  0  0  0  0  0  0  0
    1.9734   -3.9347    5.7391 H   0  0  0  0  0  0  0  0  0  0  0  0
    4.1999   -4.1880    6.4453 H   0  0  0  0  0  0  0  0  0  0  0  0
    5.8623   -2.9142    5.4348 H   0  0  0  0  0  0  0  0  0  0  0  0
    5.3458   -1.4642    3.7262 H   0  0  0  0  0  0  0  0  0  0  0  0
    3.1581   -1.1444    3.0953 H   0  0  0  0  0  0  0  0  0  0  0  0
    2.1680   -3.6918    1.9328 H   0  0  0  0  0  0  0  0  0  0  0  0
    2.0116   -4.0971   -0.3411 H   0  0  0  0  0  0  0  0  0  0  0  0
    0.5859   -2.7992   -1.6493 H   0  0  0  0  0  0  0  0  0  0  0  0
   -0.7859   -1.2213   -0.6693 H   0  0  0  0  0  0  0  0  0  0  0  0
   -0.7730   -0.9295    1.6429 H   0  0  0  0  0  0  0  0  0  0  0  0
  1  2  1  0  0  0  0
  3  1  1  0  0  0  0
  4  1  1  0  0  0  0
  5  9  1  0  0  0  0
  6 10  1  0  0  0  0
  7 15  1  0  0  0  0
  8 16  1  0  0  0  0
  9 10  4  0  0  0  0
 10 11  4  0  0  0  0
 11 12  4  0  0  0  0
 12 13  4  0  0  0  0
 13 14  4  0  0  0  0
 14  9  4  0  0  0  0
 15 16  4  0  0  0  0
 16 17  4  0  0  0  0
 17 18  4  0  0  0  0
 18 19  4  0  0  0  0
 19 20  4  0  0  0  0
 20 15  4  0  0  0  0
 21  3  1  0  0  0  0
 22 21  4  0  0  0  0
 23 22  4  0  0  0  0
 24 23  4  0  0  0  0
 25 24  4  0  0  0  0
 26 21  4  0  0  0  0
 27  3  1  0  0  0  0
 28 27  4  0  0  0  0
 29 28  4  0  0  0  0
 30 29  4  0  0  0  0
 31 30  4  0  0  0  0
 32 27  4  0  0  0  0
 33  3  1  0  0  0  0
 34 33  4  0  0  0  0
 35 34  4  0  0  0  0
 36 35  4  0  0  0  0
 37 36  4  0  0  0  0
 38 33  4  0  0  0  0
 39  4  1  0  0  0  0
 40 39  4  0  0  0  0
 41 40  4  0  0  0  0
 42 41  4  0  0  0  0
 43 42  4  0  0  0  0
 44 39  4  0  0  0  0
 45  4  1  0  0  0  0
 46 45  4  0  0  0  0
 47 46  4  0  0  0  0
 48 47  4  0  0  0  0
 49 48  4  0  0  0  0
 50 45  4  0  0  0  0
 51  4  1  0  0  0  0
 52 51  4  0  0  0  0
 53 52  4  0  0  0  0
 54 53  4  0  0  0  0
 55 54  4  0  0  0  0
 56 51  4  0  0  0  0
 57  1  1  0  0  0  0
 58  1  1  0  0  0  0
 59 11  1  0  0  0  0
 60 12  1  0  0  0  0
 61 13  1  0  0  0  0
 62 14  1  0  0  0  0
 63 17  1  0  0  0  0
 64 18  1  0  0  0  0
 65 19  1  0  0  0  0
 66 20  1  0  0  0  0
 67 22  1  0  0  0  0
 68 23  1  0  0  0  0
 69 24  1  0  0  0  0
 70 25  1  0  0  0  0
 71 26  1  0  0  0  0
 72 28  1  0  0  0  0
 73 29  1  0  0  0  0
 74 30  1  0  0  0  0
 75 31  1  0  0  0  0
 76 32  1  0  0  0  0
 77 34  1  0  0  0  0
 78 35  1  0  0  0  0
 79 36  1  0  0  0  0
 80 37  1  0  0  0  0
 81 38  1  0  0  0  0
 82 40  1  0  0  0  0
 83 41  1  0  0  0  0
 84 42  1  0  0  0  0
 85 43  1  0  0  0  0
 86 44  1  0  0  0  0
 87 46  1  0  0  0  0
 88 47  1  0  0  0  0
 89 48  1  0  0  0  0
 90 49  1  0  0  0  0
 91 50  1  0  0  0  0
 92 52  1  0  0  0  0
 93 53  1  0  0  0  0
 94 54  1  0  0  0  0
 95 55  1  0  0  0  0
 96 56  1  0  0  0  0
  5 57  1  0  0  0  0
  6 57  1  0  0  0  0
  7 58  1  0  0  0  0
  8 58  1  0  0  0  0
 25 26  4  0  0  0  0
 31 32  4  0  0  0  0
 37 38  4  0  0  0  0
 43 44  4  0  0  0  0
 49 50  4  0  0  0  0
 55 56  4  0  0  0  0
M  END
$$$$
WARFUS

From CSD data. Using bond type 'Any'. No disordered atoms. Largest molecule.
130138  0  0  0  0  0  0  0  0999 V2000
    5.7984    9.6499    4.6925 P   0  0  0  0  0  0  0  0  0  0  0  0
    5.2280    4.2764    4.4851 P   0  0  0  0  0  0  0  0  0  0  0  0
    6.2537   10.1121    1.6444 Si  0  0  0  0  0  0  0  0  0  0  0  0
    5.0172   12.4169    3.4683 Si  0  0  0  0  0  0  0  0  0  0  0  0
    5.7831    1.5067    3.0592 Si  0  0  0  0  0  0  0  0  0  0  0  0
    4.3104    3.9041    1.5416 Si  0  0  0  0  0  0  0  0  0  0  0  0
    4.3128    8.4001    7.1555 O   0  0  0  0  0  0  0  0  0  0  0  0
    2.0106    8.6802    4.8487 O   0  0  0  0  0  0  0  0  0  0  0  0
    7.6379    5.1094    6.5810 O   0  0  0  0  0  0  0  0  0  0  0  0
    9.0383    5.3061    3.9696 O   0  0  0  0  0  0  0  0  0  0  0  0
    7.1621    8.2199    4.6162 B   0  0  0  0  0  0  0  0  0  0  0  0
    6.9706    7.4904    3.7127 H   0  0  0  0  0  0  0  0  0  0  0  0
    6.9953    7.6251    5.5691 H   0  0  0  0  0  0  0  0  0  0  0  0
    8.1822    8.5434    4.5341 H   0  0  0  0  0  0  0  0  0  0  0  0
    3.7973    5.6285    4.7247 B   0  0  0  0  0  0  0  0  0  0  0  0
    4.0225    6.1118    5.7991 H   0  0  0  0  0  0  0  0  0  0  0  0
    3.9207    6.4369    3.9756 H   0  0  0  0  0  0  0  0  0  0  0  0
    2.7050    5.2633    4.6984 H   0  0  0  0  0  0  0  0  0  0  0  0
    3.8388    8.0209    5.2619 Li  0  0  0  0  0  0  0  0  0  0  0  0
    7.3409    5.8616    4.7707 Li  0  0  0  0  0  0  0  0  0  0  0  0
    6.1820   10.9274    3.3595 C   0  0  0  0  0  0  0  0  0  0  0  0
    7.1023   11.2712    3.5501 H   0  0  0  0  0  0  0  0  0  0  0  0
    7.9036    9.2607    1.3767 C   0  0  0  0  0  0  0  0  0  0  0  0
    7.9087    8.8285    0.4978 H   0  0  0  0  0  0  0  0  0  0  0  0
    8.0394    8.5848    2.0732 H   0  0  0  0  0  0  0  0  0  0  0  0
    8.6237    9.9237    1.4210 H   0  0  0  0  0  0  0  0  0  0  0  0
    4.8328    8.9163    1.4227 C   0  0  0  0  0  0  0  0  0  0  0  0
    4.9548    8.4160    0.5898 H   0  0  0  0  0  0  0  0  0  0  0  0
    3.9894    9.4140    1.3849 H   0  0  0  0  0  0  0  0  0  0  0  0
    4.8105    8.2924    2.1783 H   0  0  0  0  0  0  0  0  0  0  0  0
    6.1581   11.3915    0.2596 C   0  0  0  0  0  0  0  0  0  0  0  0
    6.2129   10.9384   -0.6078 H   0  0  0  0  0  0  0  0  0  0  0  0
    6.9020   12.0226    0.3466 H   0  0  0  0  0  0  0  0  0  0  0  0
    5.3086   11.8766    0.3220 H   0  0  0  0  0  0  0  0  0  0  0  0
    3.3565   12.0234    2.6909 C   0  0  0  0  0  0  0  0  0  0  0  0
    3.4657   11.9140    1.7233 H   0  0  0  0  0  0  0  0  0  0  0  0
    2.7308   12.7568    2.8683 H   0  0  0  0  0  0  0  0  0  0  0  0
    3.0042   11.1940    3.0753 H   0  0  0  0  0  0  0  0  0  0  0  0
    5.8197   13.9202    2.6449 C   0  0  0  0  0  0  0  0  0  0  0  0
    5.1842   14.6649    2.6367 H   0  0  0  0  0  0  0  0  0  0  0  0
    6.0716   13.6936    1.7266 H   0  0  0  0  0  0  0  0  0  0  0  0
    6.6204   14.1791    3.1492 H   0  0  0  0  0  0  0  0  0  0  0  0
    4.6333   13.0014    5.2142 C   0  0  0  0  0  0  0  0  0  0  0  0
    4.0388   13.7793    5.1748 H   0  0  0  0  0  0  0  0  0  0  0  0
    5.4668   13.2484    5.6676 H   0  0  0  0  0  0  0  0  0  0  0  0
    4.1935   12.2795    5.7120 H   0  0  0  0  0  0  0  0  0  0  0  0
    6.3822   10.5123    6.2360 C   0  0  0  0  0  0  0  0  0  0  0  0
    7.5851   11.2330    6.2229 C   0  0  0  0  0  0  0  0  0  0  0  0
    8.1173   11.2357    5.4360 H   0  0  0  0  0  0  0  0  0  0  0  0
    8.0163   11.9436    7.3383 C   0  0  0  0  0  0  0  0  0  0  0  0
    8.8110   12.4602    7.2940 H   0  0  0  0  0  0  0  0  0  0  0  0
    7.2881   11.8974    8.5080 C   0  0  0  0  0  0  0  0  0  0  0  0
    7.5845   12.3748    9.2736 H   0  0  0  0  0  0  0  0  0  0  0  0
    6.1278   11.1549    8.5606 C   0  0  0  0  0  0  0  0  0  0  0  0
    5.6420   11.1070    9.3754 H   0  0  0  0  0  0  0  0  0  0  0  0
    5.6505   10.4710    7.4386 C   0  0  0  0  0  0  0  0  0  0  0  0
    4.2965    9.7913    7.5174 C   0  0  0  0  0  0  0  0  0  0  0  0
    3.9545    9.8739    8.4423 H   0  0  0  0  0  0  0  0  0  0  0  0
    3.6674   10.2680    6.9211 H   0  0  0  0  0  0  0  0  0  0  0  0
    5.0171    7.6068    8.1121 C   0  0  0  0  0  0  0  0  0  0  0  0
    5.0452    6.6760    7.8082 H   0  0  0  0  0  0  0  0  0  0  0  0
    4.5569    7.6531    8.9779 H   0  0  0  0  0  0  0  0  0  0  0  0
    5.9303    7.9457    8.2090 H   0  0  0  0  0  0  0  0  0  0  0  0
    1.3083    8.2398    3.6749 C   0  0  0  0  0  0  0  0  0  0  0  0
    1.1212    7.2690    3.7258 H   0  0  0  0  0  0  0  0  0  0  0  0
    1.8422    8.4181    2.8617 H   0  0  0  0  0  0  0  0  0  0  0  0
    0.0040    9.0387    3.6503 C   0  0  0  0  0  0  0  0  0  0  0  0
    0.0485    9.7538    2.9669 H   0  0  0  0  0  0  0  0  0  0  0  0
   -0.7614    8.4480    3.4416 H   0  0  0  0  0  0  0  0  0  0  0  0
   -0.1397    9.5960    4.9399 C   0  0  0  0  0  0  0  0  0  0  0  0
   -0.6946    9.0084    5.5116 H   0  0  0  0  0  0  0  0  0  0  0  0
   -0.5698   10.4858    4.8873 H   0  0  0  0  0  0  0  0  0  0  0  0
    1.2498    9.7147    5.4984 C   0  0  0  0  0  0  0  0  0  0  0  0
    1.6311   10.6072    5.3013 H   0  0  0  0  0  0  0  0  0  0  0  0
    1.2446    9.5818    6.4792 H   0  0  0  0  0  0  0  0  0  0  0  0
    4.6482    3.0231    3.2002 C   0  0  0  0  0  0  0  0  0  0  0  0
    3.7649    2.6822    3.5205 H   0  0  0  0  0  0  0  0  0  0  0  0
    4.9636    0.1029    2.0946 C   0  0  0  0  0  0  0  0  0  0  0  0
    5.5441   -0.6867    2.1093 H   0  0  0  0  0  0  0  0  0  0  0  0
    4.8188    0.3849    1.1664 H   0  0  0  0  0  0  0  0  0  0  0  0
    4.1015   -0.1173    2.5069 H   0  0  0  0  0  0  0  0  0  0  0  0
    7.3960    1.9854    2.2424 C   0  0  0  0  0  0  0  0  0  0  0  0
    7.8451    2.6692    2.7829 H   0  0  0  0  0  0  0  0  0  0  0  0
    7.2158    2.3426    1.3471 H   0  0  0  0  0  0  0  0  0  0  0  0
    7.9715    1.1955    2.1701 H   0  0  0  0  0  0  0  0  0  0  0  0
    6.2014    0.6986    4.6984 C   0  0  0  0  0  0  0  0  0  0  0  0
    6.7820    1.2942    5.2175 H   0  0  0  0  0  0  0  0  0  0  0  0
    6.6643   -0.1492    4.5357 H   0  0  0  0  0  0  0  0  0  0  0  0
    5.3761    0.5297    5.1994 H   0  0  0  0  0  0  0  0  0  0  0  0
    4.2392    2.7354    0.0674 C   0  0  0  0  0  0  0  0  0  0  0  0
    4.0276    3.2450   -0.7442 H   0  0  0  0  0  0  0  0  0  0  0  0
    3.5466    2.0595    0.2185 H   0  0  0  0  0  0  0  0  0  0  0  0
    5.1082    2.2947   -0.0427 H   0  0  0  0  0  0  0  0  0  0  0  0
    2.6298    4.7331    1.5524 C   0  0  0  0  0  0  0  0  0  0  0  0
    2.4712    5.1611    0.6850 H   0  0  0  0  0  0  0  0  0  0  0  0
    2.6046    5.4102    2.2605 H   0  0  0  0  0  0  0  0  0  0  0  0
    1.9352    4.0626    1.7167 H   0  0  0  0  0  0  0  0  0  0  0  0
    5.6375    5.1636    1.1680 C   0  0  0  0  0  0  0  0  0  0  0  0
    5.4173    5.6333    0.3368 H   0  0  0  0  0  0  0  0  0  0  0  0
    6.4994    4.7083    1.0678 H   0  0  0  0  0  0  0  0  0  0  0  0
    5.6916    5.8083    1.9024 H   0  0  0  0  0  0  0  0  0  0  0  0
    5.0067    3.3644    6.0931 C   0  0  0  0  0  0  0  0  0  0  0  0
    3.7653    2.8372    6.4627 C   0  0  0  0  0  0  0  0  0  0  0  0
    3.0341    2.9081    5.8615 H   0  0  0  0  0  0  0  0  0  0  0  0
    3.5738    2.2098    7.6932 C   0  0  0  0  0  0  0  0  0  0  0  0
    2.7224    1.8547    7.9183 H   0  0  0  0  0  0  0  0  0  0  0  0
    4.6316    2.1056    8.5902 C   0  0  0  0  0  0  0  0  0  0  0  0
    4.5018    1.6894    9.4345 H   0  0  0  0  0  0  0  0  0  0  0  0
    5.8674    2.6069    8.2468 C   0  0  0  0  0  0  0  0  0  0  0  0
    6.5888    2.5269    8.8596 H   0  0  0  0  0  0  0  0  0  0  0  0
    6.0798    3.2386    7.0065 C   0  0  0  0  0  0  0  0  0  0  0  0
    7.4733    3.6784    6.6369 C   0  0  0  0  0  0  0  0  0  0  0  0
    8.1106    3.3104    7.2989 H   0  0  0  0  0  0  0  0  0  0  0  0
    7.7043    3.2966    5.7531 H   0  0  0  0  0  0  0  0  0  0  0  0
    8.0256    5.6984    7.8197 C   0  0  0  0  0  0  0  0  0  0  0  0
    8.1143    6.6677    7.7063 H   0  0  0  0  0  0  0  0  0  0  0  0
    8.8852    5.3223    8.1039 H   0  0  0  0  0  0  0  0  0  0  0  0
    7.3458    5.5094    8.4982 H   0  0  0  0  0  0  0  0  0  0  0  0
    9.4259    5.5703    2.6219 C   0  0  0  0  0  0  0  0  0  0  0  0
    9.4016    6.5441    2.4412 H   0  0  0  0  0  0  0  0  0  0  0  0
    8.8113    5.1179    1.9911 H   0  0  0  0  0  0  0  0  0  0  0  0
   10.8112    5.0505    2.4543 C   0  0  0  0  0  0  0  0  0  0  0  0
   11.4250    5.7733    2.1701 H   0  0  0  0  0  0  0  0  0  0  0  0
   10.8347    4.3285    1.7775 H   0  0  0  0  0  0  0  0  0  0  0  0
   11.1991    4.5234    3.8063 C   0  0  0  0  0  0  0  0  0  0  0  0
   11.1691    3.5339    3.8162 H   0  0  0  0  0  0  0  0  0  0  0  0
   12.1133    4.8176    4.0446 H   0  0  0  0  0  0  0  0  0  0  0  0
   10.2497    5.0599    4.7099 C   0  0  0  0  0  0  0  0  0  0  0  0
   10.5888    5.9038    5.1025 H   0  0  0  0  0  0  0  0  0  0  0  0
   10.0776    4.4197    5.4459 H   0  0  0  0  0  0  0  0  0  0  0  0
  1 11  1  0  0  0  0
  2 15  1  0  0  0  0
  3 21  1  0  0  0  0
  4 21  1  0  0  0  0
  5 76  1  0  0  0  0
  6 76  1  0  0  0  0
  7 19  1  0  0  0  0
  8 19  1  0  0  0  0
  9 20  1  0  0  0  0
 10 20  1  0  0  0  0
 11 12  1  0  0  0  0
 12 20  1  0  0  0  0
 13 11  1  0  0  0  0
 14 11  1  0  0  0  0
 15 16  1  0  0  0  0
 16 19  1  0  0  0  0
 17 15  1  0  0  0  0
 18 15  1  0  0  0  0
 19  1  1  0  0  0  0
 20  2  1  0  0  0  0
 21  1  1  0  0  0  0
 22 21  1  0  0  0  0
 23  3  1  0  0  0  0
 24 23  1  0  0  0  0
 25 23  1  0  0  0  0
 26 23  1  0  0  0  0
 27  3  1  0  0  0  0
 28 27  1  0  0  0  0
 29 27  1  0  0  0  0
 30 27  1  0  0  0  0
 31  3  1  0  0  0  0
 32 31  1  0  0  0  0
 33 31  1  0  0  0  0
 34 31  1  0  0  0  0
 35  4  1  0  0  0  0
 36 35  1  0  0  0  0
 37 35  1  0  0  0  0
 38 35  1  0  0  0  0
 39  4  1  0  0  0  0
 40 39  1  0  0  0  0
 41 39  1  0  0  0  0
 42 39  1  0  0  0  0
 43  4  1  0  0  0  0
 44 43  1  0  0  0  0
 45 43  1  0  0  0  0
 46 43  1  0  0  0  0
 47  1  1  0  0  0  0
 48 47  4  0  0  0  0
 49 48  1  0  0  0  0
 50 48  4  0  0  0  0
 51 50  1  0  0  0  0
 52 50  4  0  0  0  0
 53 52  1  0  0  0  0
 54 52  4  0  0  0  0
 55 54  1  0  0  0  0
 56 47  4  0  0  0  0
 57  7  1  0  0  0  0
 58 57  1  0  0  0  0
 59 57  1  0  0  0  0
 60  7  1  0  0  0  0
 61 60  1  0  0  0  0
 62 60  1  0  0  0  0
 63 60  1  0  0  0  0
 64  8  1  0  0  0  0
 65 64  1  0  0  0  0
 66 64  1  0  0  0  0
 67 64  1  0  0  0  0
 68 67  1  0  0  0  0
 69 67  1  0  0  0  0
 70 67  1  0  0  0  0
 71 70  1  0  0  0  0
 72 70  1  0  0  0  0
 73  8  1  0  0  0  0
 74 73  1  0  0  0  0
 75 73  1  0  0  0  0
 76  2  1  0  0  0  0
 77 76  1  0  0  0  0
 78  5  1  0  0  0  0
 79 78  1  0  0  0  0
 80 78  1  0  0  0  0
 81 78  1  0  0  0  0
 82  5  1  0  0  0  0
 83 82  1  0  0  0  0
 84 82  1  0  0  0  0
 85 82  1  0  0  0  0
 86  5  1  0  0  0  0
 87 86  1  0  0  0  0
 88 86  1  0  0  0  0
 89 86  1  0  0  0  0
 90  6  1  0  0  0  0
 91 90  1  0  0  0  0
 92 90  1  0  0  0  0
 93 90  1  0  0  0  0
 94  6  1  0  0  0  0
 95 94  1  0  0  0  0
 96 94  1  0  0  0  0
 97 94  1  0  0  0  0
 98  6  1  0  0  0  0
 99 98  1  0  0  0  0
100 98  1  0  0  0  0
101 98  1  0  0  0  0
102  2  1  0  0  0  0
103102  4  0  0  0  0
104103  1  0  0  0  0
105103  4  0  0  0  0
106105  1  0  0  0  0
107105  4  0  0  0  0
108107  1  0  0  0  0
109107  4  0  0  0  0
110109  1  0  0  0  0
111102  4  0  0  0  0
112  9  1  0  0  0  0
113112  1  0  0  0  0
114112  1  0  0  0  0
115  9  1  0  0  0  0
116115  1  0  0  0  0
117115  1  0  0  0  0
118115  1  0  0  0  0
119 10  1  0  0  0  0
120119  1  0  0  0  0
121119  1  0  0  0  0
122119  1  0  0  0  0
123122  1  0  0  0  0
124122  1  0  0  0  0
125122  1  0  0  0  0
126125  1  0  0  0  0
127125  1  0  0  0  0
128 10  1  0  0  0  0
129128  1  0  0  0  0
130128  1  0  0  0  0
 13 20  1  0  0  0  0
 17 19  1  0  0  0  0
 54 56  4  0  0  0  0
 56 57  1  0  0  0  0
 70 73  1  0  0  0  0
109111  4  0  0  0  0
111112  1  0  0  0  0
125128  1  0  0  0  0
M  END
$$$$
WARGAZ

From CSD data. Using bond type 'Any'. No disordered atoms. Largest molecule.
152160  0  0  0  0  0  0  0  0999 V2000
   -0.0124    5.6545    3.6881 P   0  0  0  0  0  0  0  0  0  0  0  0
    0.7582    5.4859    5.4956 B   0  0  0  0  0  0  0  0  0  0  0  0
    0.1198    4.5850    5.9311 H   0  0  0  0  0  0  0  0  0  0  0  0
    0.6351    6.4261    6.1421 H   0  0  0  0  0  0  0  0  0  0  0  0
    1.8030    5.0840    5.4720 H   0  0  0  0  0  0  0  0  0  0  0  0
    0.4925    2.7263    4.3847 Na  0  0  0  0  0  0  0  0  0  0  0  0
   -1.9428    2.8657    4.2151 O   0  0  0  0  0  0  0  0  0  0  0  0
    0.4902    7.2496    2.8303 C   0  0  0  0  0  0  0  0  0  0  0  0
   -0.0377    7.9685    3.2807 H   0  0  0  0  0  0  0  0  0  0  0  0
    2.2828    7.7872    2.9827 Si  0  0  0  0  0  0  0  0  0  0  0  0
    3.0153    8.8314    1.6528 C   0  0  0  0  0  0  0  0  0  0  0  0
    2.5629    9.6999    1.6317 H   0  0  0  0  0  0  0  0  0  0  0  0
    2.9044    8.3845    0.7879 H   0  0  0  0  0  0  0  0  0  0  0  0
    3.9707    8.9645    1.8302 H   0  0  0  0  0  0  0  0  0  0  0  0
    3.3851    6.1507    2.7683 C   0  0  0  0  0  0  0  0  0  0  0  0
    2.8510    5.3640    3.0065 H   0  0  0  0  0  0  0  0  0  0  0  0
    4.1666    6.2051    3.3564 H   0  0  0  0  0  0  0  0  0  0  0  0
    3.6808    6.0756    1.8377 H   0  0  0  0  0  0  0  0  0  0  0  0
    2.7956    8.3789    4.6258 C   0  0  0  0  0  0  0  0  0  0  0  0
    2.3158    9.2052    4.8405 H   0  0  0  0  0  0  0  0  0  0  0  0
    3.7595    8.5526    4.6246 H   0  0  0  0  0  0  0  0  0  0  0  0
    2.5879    7.6970    5.2983 H   0  0  0  0  0  0  0  0  0  0  0  0
   -0.1804    7.1743    1.0651 Si  0  0  0  0  0  0  0  0  0  0  0  0
    0.0089    8.7970    0.1501 C   0  0  0  0  0  0  0  0  0  0  0  0
   -0.3707    8.7109   -0.7495 H   0  0  0  0  0  0  0  0  0  0  0  0
    0.9596    9.0252    0.0831 H   0  0  0  0  0  0  0  0  0  0  0  0
   -0.4643    9.5042    0.6378 H   0  0  0  0  0  0  0  0  0  0  0  0
    0.6742    5.8299    0.0931 C   0  0  0  0  0  0  0  0  0  0  0  0
    0.2711    5.7655   -0.7978 H   0  0  0  0  0  0  0  0  0  0  0  0
    0.5741    4.9747    0.5596 H   0  0  0  0  0  0  0  0  0  0  0  0
    1.6270    6.0452    0.0050 H   0  0  0  0  0  0  0  0  0  0  0  0
   -2.0168    6.8505    1.0348 C   0  0  0  0  0  0  0  0  0  0  0  0
   -2.3394    6.8880    0.1104 H   0  0  0  0  0  0  0  0  0  0  0  0
   -2.4770    7.5315    1.5696 H   0  0  0  0  0  0  0  0  0  0  0  0
   -2.1986    5.9638    1.4096 H   0  0  0  0  0  0  0  0  0  0  0  0
   -1.7431    6.0589    4.2200 C   0  0  0  0  0  0  0  0  0  0  0  0
   -2.0182    7.2644    4.8752 C   0  0  0  0  0  0  0  0  0  0  0  0
   -1.3134    7.8868    5.0092 H   0  0  0  0  0  0  0  0  0  0  0  0
   -3.2871    7.5781    5.3355 C   0  0  0  0  0  0  0  0  0  0  0  0
   -3.4411    8.3996    5.7872 H   0  0  0  0  0  0  0  0  0  0  0  0
   -4.3234    6.6919    5.1358 C   0  0  0  0  0  0  0  0  0  0  0  0
   -5.2003    6.9075    5.4323 H   0  0  0  0  0  0  0  0  0  0  0  0
   -4.0791    5.4835    4.4980 C   0  0  0  0  0  0  0  0  0  0  0  0
   -4.7925    4.8695    4.3714 H   0  0  0  0  0  0  0  0  0  0  0  0
   -2.8043    5.1569    4.0389 C   0  0  0  0  0  0  0  0  0  0  0  0
   -2.5789    3.8317    3.3614 C   0  0  0  0  0  0  0  0  0  0  0  0
   -3.4505    3.4722    3.0611 H   0  0  0  0  0  0  0  0  0  0  0  0
   -2.0172    3.9721    2.5586 H   0  0  0  0  0  0  0  0  0  0  0  0
   -2.8579    2.2847    5.1370 C   0  0  0  0  0  0  0  0  0  0  0  0
   -3.5404    1.7810    4.6469 H   0  0  0  0  0  0  0  0  0  0  0  0
   -3.2877    2.9932    5.6606 H   0  0  0  0  0  0  0  0  0  0  0  0
   -2.3745    1.6804    5.7401 H   0  0  0  0  0  0  0  0  0  0  0  0
    2.8091    1.7833    3.5115 N   0  0  0  0  0  0  0  0  0  0  0  0
    3.8421    1.8838    4.5042 C   0  0  0  0  0  0  0  0  0  0  0  0
    4.6795    1.5287    4.1481 H   0  0  0  0  0  0  0  0  0  0  0  0
    3.5798    1.3642    5.2996 H   0  0  0  0  0  0  0  0  0  0  0  0
    3.9616    2.8223    4.7598 H   0  0  0  0  0  0  0  0  0  0  0  0
    3.2487    2.3372    2.2695 C   0  0  0  0  0  0  0  0  0  0  0  0
    4.1073    1.9390    2.0201 H   0  0  0  0  0  0  0  0  0  0  0  0
    3.3530    3.3072    2.3638 H   0  0  0  0  0  0  0  0  0  0  0  0
    2.5848    2.1463    1.5746 H   0  0  0  0  0  0  0  0  0  0  0  0
    2.4216    0.3336    3.3502 C   0  0  0  0  0  0  0  0  0  0  0  0
    3.2288   -0.1890    3.1132 H   0  0  0  0  0  0  0  0  0  0  0  0
    2.0870   -0.0056    4.2163 H   0  0  0  0  0  0  0  0  0  0  0  0
    1.4171    0.1176    2.3464 C   0  0  0  0  0  0  0  0  0  0  0  0
    1.2153   -0.8497    2.2794 H   0  0  0  0  0  0  0  0  0  0  0  0
    1.7515    0.4250    1.4667 H   0  0  0  0  0  0  0  0  0  0  0  0
    0.2008    0.8516    2.6963 N   0  0  0  0  0  0  0  0  0  0  0  0
   -0.4856   -0.1958    3.5115 C   0  0  0  0  0  0  0  0  0  0  0  0
   -0.6886   -0.9699    2.9457 H   0  0  0  0  0  0  0  0  0  0  0  0
   -1.3197    0.1694    3.8763 H   0  0  0  0  0  0  0  0  0  0  0  0
    0.0985   -0.4725    4.2473 H   0  0  0  0  0  0  0  0  0  0  0  0
   -0.7007    1.1725    1.5821 C   0  0  0  0  0  0  0  0  0  0  0  0
   -0.8025    0.3851    1.0075 H   0  0  0  0  0  0  0  0  0  0  0  0
   -0.3239    1.9113    1.0597 H   0  0  0  0  0  0  0  0  0  0  0  0
   -1.5756    1.4341    1.9344 H   0  0  0  0  0  0  0  0  0  0  0  0
    1.6096    1.3003    8.7201 P   0  0  0  0  0  0  0  0  0  0  0  0
    0.8390    1.4689    6.9126 B   0  0  0  0  0  0  0  0  0  0  0  0
    1.4774    2.3698    6.4771 H   0  0  0  0  0  0  0  0  0  0  0  0
    0.9621    0.5288    6.2662 H   0  0  0  0  0  0  0  0  0  0  0  0
   -0.2058    1.8708    6.9362 H   0  0  0  0  0  0  0  0  0  0  0  0
    1.1047    4.2285    8.0235 Na  0  0  0  0  0  0  0  0  0  0  0  0
    3.5400    4.0891    8.1932 O   0  0  0  0  0  0  0  0  0  0  0  0
    1.1070   -0.2948    9.5779 C   0  0  0  0  0  0  0  0  0  0  0  0
    1.6349   -1.0137    9.1275 H   0  0  0  0  0  0  0  0  0  0  0  0
   -0.6856   -0.8324    9.4255 Si  0  0  0  0  0  0  0  0  0  0  0  0
   -1.4181   -1.8766   10.7555 C   0  0  0  0  0  0  0  0  0  0  0  0
   -0.9657   -2.7451   10.7766 H   0  0  0  0  0  0  0  0  0  0  0  0
   -1.3072   -1.4296   11.6203 H   0  0  0  0  0  0  0  0  0  0  0  0
   -2.3735   -2.0096   10.5780 H   0  0  0  0  0  0  0  0  0  0  0  0
   -1.7879    0.8041    9.6400 C   0  0  0  0  0  0  0  0  0  0  0  0
   -1.2538    1.5908    9.4017 H   0  0  0  0  0  0  0  0  0  0  0  0
   -2.5694    0.7497    9.0518 H   0  0  0  0  0  0  0  0  0  0  0  0
   -2.0836    0.8793   10.5706 H   0  0  0  0  0  0  0  0  0  0  0  0
   -1.1984   -1.4241    7.7824 C   0  0  0  0  0  0  0  0  0  0  0  0
   -0.7185   -2.2503    7.5678 H   0  0  0  0  0  0  0  0  0  0  0  0
   -2.1623   -1.5978    7.7837 H   0  0  0  0  0  0  0  0  0  0  0  0
   -0.9907   -0.7421    7.1099 H   0  0  0  0  0  0  0  0  0  0  0  0
    1.7776   -0.2195   11.3431 Si  0  0  0  0  0  0  0  0  0  0  0  0
    1.5883   -1.8422   12.2581 C   0  0  0  0  0  0  0  0  0  0  0  0
    1.9679   -1.7560   13.1577 H   0  0  0  0  0  0  0  0  0  0  0  0
    0.6376   -2.0704   12.3251 H   0  0  0  0  0  0  0  0  0  0  0  0
    2.0615   -2.5494   11.7705 H   0  0  0  0  0  0  0  0  0  0  0  0
    0.9230    1.1249   12.3152 C   0  0  0  0  0  0  0  0  0  0  0  0
    1.3262    1.1894   13.2061 H   0  0  0  0  0  0  0  0  0  0  0  0
    1.0231    1.9801   11.8486 H   0  0  0  0  0  0  0  0  0  0  0  0
   -0.0298    0.9096   12.4033 H   0  0  0  0  0  0  0  0  0  0  0  0
    3.6140    0.1044   11.3734 C   0  0  0  0  0  0  0  0  0  0  0  0
    3.9366    0.0668   12.2978 H   0  0  0  0  0  0  0  0  0  0  0  0
    4.0743   -0.5767   10.8386 H   0  0  0  0  0  0  0  0  0  0  0  0
    3.7958    0.9910   10.9987 H   0  0  0  0  0  0  0  0  0  0  0  0
    3.3403    0.8959    8.1882 C   0  0  0  0  0  0  0  0  0  0  0  0
    3.6154   -0.3096    7.5330 C   0  0  0  0  0  0  0  0  0  0  0  0
    2.9106   -0.9320    7.3990 H   0  0  0  0  0  0  0  0  0  0  0  0
    4.8843   -0.6233    7.0727 C   0  0  0  0  0  0  0  0  0  0  0  0
    5.0383   -1.4448    6.6210 H   0  0  0  0  0  0  0  0  0  0  0  0
    5.9206    0.2629    7.2725 C   0  0  0  0  0  0  0  0  0  0  0  0
    6.7976    0.0473    6.9759 H   0  0  0  0  0  0  0  0  0  0  0  0
    5.6763    1.4713    7.9103 C   0  0  0  0  0  0  0  0  0  0  0  0
    6.3897    2.0853    8.0368 H   0  0  0  0  0  0  0  0  0  0  0  0
    4.4015    1.7980    8.3694 C   0  0  0  0  0  0  0  0  0  0  0  0
    4.1761    3.1231    9.0468 C   0  0  0  0  0  0  0  0  0  0  0  0
    5.0477    3.4826    9.3471 H   0  0  0  0  0  0  0  0  0  0  0  0
    3.6144    2.9827    9.8497 H   0  0  0  0  0  0  0  0  0  0  0  0
    4.4551    4.6701    7.2712 C   0  0  0  0  0  0  0  0  0  0  0  0
    5.1376    5.1738    7.7614 H   0  0  0  0  0  0  0  0  0  0  0  0
    4.8849    3.9617    6.7476 H   0  0  0  0  0  0  0  0  0  0  0  0
    3.9718    5.2744    6.6682 H   0  0  0  0  0  0  0  0  0  0  0  0
   -1.2119    5.1715    8.8967 N   0  0  0  0  0  0  0  0  0  0  0  0
   -2.2448    5.0710    7.9040 C   0  0  0  0  0  0  0  0  0  0  0  0
   -3.0822    5.4261    8.2602 H   0  0  0  0  0  0  0  0  0  0  0  0
   -1.9826    5.5906    7.1087 H   0  0  0  0  0  0  0  0  0  0  0  0
   -2.3644    4.1325    7.6484 H   0  0  0  0  0  0  0  0  0  0  0  0
   -1.6515    4.6176   10.1388 C   0  0  0  0  0  0  0  0  0  0  0  0
   -2.5101    5.0158   10.3882 H   0  0  0  0  0  0  0  0  0  0  0  0
   -1.7558    3.6476   10.0445 H   0  0  0  0  0  0  0  0  0  0  0  0
   -0.9876    4.8085   10.8336 H   0  0  0  0  0  0  0  0  0  0  0  0
   -0.8244    6.6212    9.0580 C   0  0  0  0  0  0  0  0  0  0  0  0
   -1.6316    7.1438    9.2950 H   0  0  0  0  0  0  0  0  0  0  0  0
   -0.4897    6.9604    8.1919 H   0  0  0  0  0  0  0  0  0  0  0  0
    0.1801    6.8372   10.0618 C   0  0  0  0  0  0  0  0  0  0  0  0
    0.3820    7.8045   10.1288 H   0  0  0  0  0  0  0  0  0  0  0  0
   -0.1543    6.5298   10.9416 H   0  0  0  0  0  0  0  0  0  0  0  0
    1.3964    6.1032    9.7119 N   0  0  0  0  0  0  0  0  0  0  0  0
    2.0828    7.1506    8.8967 C   0  0  0  0  0  0  0  0  0  0  0  0
    2.2858    7.9247    9.4625 H   0  0  0  0  0  0  0  0  0  0  0  0
    2.9169    6.7854    8.5319 H   0  0  0  0  0  0  0  0  0  0  0  0
    1.4988    7.4273    8.1609 H   0  0  0  0  0  0  0  0  0  0  0  0
    2.2980    5.7823   10.8262 C   0  0  0  0  0  0  0  0  0  0  0  0
    2.3997    6.5697   11.4007 H   0  0  0  0  0  0  0  0  0  0  0  0
    1.9211    5.0436   11.3486 H   0  0  0  0  0  0  0  0  0  0  0  0
    3.1728    5.5207   10.4738 H   0  0  0  0  0  0  0  0  0  0  0  0
  1  2  1  0  0  0  0
  2  3  1  0  0  0  0
  3  6  1  0  0  0  0
  4  2  1  0  0  0  0
  5  2  1  0  0  0  0
  6  1  1  0  0  0  0
  7  6  1  0  0  0  0
  8  1  1  0  0  0  0
  9  8  1  0  0  0  0
 10  8  1  0  0  0  0
 11 10  1  0  0  0  0
 12 11  1  0  0  0  0
 13 11  1  0  0  0  0
 14 11  1  0  0  0  0
 15 10  1  0  0  0  0
 16 15  1  0  0  0  0
 17 15  1  0  0  0  0
 18 15  1  0  0  0  0
 19 10  1  0  0  0  0
 20 19  1  0  0  0  0
 21 19  1  0  0  0  0
 22 19  1  0  0  0  0
 23  8  1  0  0  0  0
 24 23  1  0  0  0  0
 25 24  1  0  0  0  0
 26 24  1  0  0  0  0
 27 24  1  0  0  0  0
 28 23  1  0  0  0  0
 29 28  1  0  0  0  0
 30 28  1  0  0  0  0
 31 28  1  0  0  0  0
 32 23  1  0  0  0  0
 33 32  1  0  0  0  0
 34 32  1  0  0  0  0
 35 32  1  0  0  0  0
 36  1  1  0  0  0  0
 37 36  4  0  0  0  0
 38 37  1  0  0  0  0
 39 37  4  0  0  0  0
 40 39  1  0  0  0  0
 41 39  4  0  0  0  0
 42 41  1  0  0  0  0
 43 41  4  0  0  0  0
 44 43  1  0  0  0  0
 45 36  4  0  0  0  0
 46  7  1  0  0  0  0
 47 46  1  0  0  0  0
 48 46  1  0  0  0  0
 49  7  1  0  0  0  0
 50 49  1  0  0  0  0
 51 49  1  0  0  0  0
 52 49  1  0  0  0  0
 53  6  1  0  0  0  0
 54 53  1  0  0  0  0
 55 54  1  0  0  0  0
 56 54  1  0  0  0  0
 57 54  1  0  0  0  0
 58 53  1  0  0  0  0
 59 58  1  0  0  0  0
 60 58  1  0  0  0  0
 61 58  1  0  0  0  0
 62 53  1  0  0  0  0
 63 62  1  0  0  0  0
 64 62  1  0  0  0  0
 65 62  1  0  0  0  0
 66 65  1  0  0  0  0
 67 65  1  0  0  0  0
 68  6  1  0  0  0  0
 69 68  1  0  0  0  0
 70 69  1  0  0  0  0
 71 69  1  0  0  0  0
 72 69  1  0  0  0  0
 73 68  1  0  0  0  0
 74 73  1  0  0  0  0
 75 73  1  0  0  0  0
 76 73  1  0  0  0  0
 77 78  1  0  0  0  0
 78 79  1  0  0  0  0
 79  6  1  0  0  0  0
 80 78  1  0  0  0  0
 81 78  1  0  0  0  0
 82  3  1  0  0  0  0
 83 82  1  0  0  0  0
 84 77  1  0  0  0  0
 85 84  1  0  0  0  0
 86 84  1  0  0  0  0
 87 86  1  0  0  0  0
 88 87  1  0  0  0  0
 89 87  1  0  0  0  0
 90 87  1  0  0  0  0
 91 86  1  0  0  0  0
 92 91  1  0  0  0  0
 93 91  1  0  0  0  0
 94 91  1  0  0  0  0
 95 86  1  0  0  0  0
 96 95  1  0  0  0  0
 97 95  1  0  0  0  0
 98 95  1  0  0  0  0
 99 84  1  0  0  0  0
100 99  1  0  0  0  0
101100  1  0  0  0  0
102100  1  0  0  0  0
103100  1  0  0  0  0
104 99  1  0  0  0  0
105104  1  0  0  0  0
106104  1  0  0  0  0
107104  1  0  0  0  0
108 99  1  0  0  0  0
109108  1  0  0  0  0
110108  1  0  0  0  0
111108  1  0  0  0  0
112 77  1  0  0  0  0
113112  4  0  0  0  0
114113  1  0  0  0  0
115113  4  0  0  0  0
116115  1  0  0  0  0
117115  4  0  0  0  0
118117  1  0  0  0  0
119117  4  0  0  0  0
120119  1  0  0  0  0
121112  4  0  0  0  0
122 83  1  0  0  0  0
123122  1  0  0  0  0
124122  1  0  0  0  0
125 83  1  0  0  0  0
126125  1  0  0  0  0
127125  1  0  0  0  0
128125  1  0  0  0  0
129 82  1  0  0  0  0
130129  1  0  0  0  0
131130  1  0  0  0  0
132130  1  0  0  0  0
133130  1  0  0  0  0
134129  1  0  0  0  0
135134  1  0  0  0  0
136134  1  0  0  0  0
137134  1  0  0  0  0
138129  1  0  0  0  0
139138  1  0  0  0  0
140138  1  0  0  0  0
141138  1  0  0  0  0
142141  1  0  0  0  0
143141  1  0  0  0  0
144 82  1  0  0  0  0
145144  1  0  0  0  0
146145  1  0  0  0  0
147145  1  0  0  0  0
148145  1  0  0  0  0
149144  1  0  0  0  0
150149  1  0  0  0  0
151149  1  0  0  0  0
152149  1  0  0  0  0
 43 45  4  0  0  0  0
 45 46  1  0  0  0  0
 65 68  1  0  0  0  0
 77 82  1  0  0  0  0
 79 82  1  0  0  0  0
119121  4  0  0  0  0
121122  1  0  0  0  0
141144  1  0  0  0  0
M  END
$$$$
WARGED

From CSD data. Using bond type 'Any'. No disordered atoms. Largest molecule.
174188  0  0  0  0  0  0  0  0999 V2000
    5.4158    5.2117   11.0641 K   0  0  0  0  0  0  0  0  0  0  0  0
    2.1019    3.4831   11.4912 P   0  0  0  0  0  0  0  0  0  0  0  0
    0.5696    1.2752   13.0204 Si  0  0  0  0  0  0  0  0  0  0  0  0
    0.5676    4.2791   14.0898 Si  0  0  0  0  0  0  0  0  0  0  0  0
    4.6927    3.1514    9.2733 O   0  0  0  0  0  0  0  0  0  0  0  0
    6.6074    6.5259   13.5252 N   0  0  0  0  0  0  0  0  0  0  0  0
    6.7213    3.5643   13.0898 N   0  0  0  0  0  0  0  0  0  0  0  0
    8.0492    4.1788   10.4012 N   0  0  0  0  0  0  0  0  0  0  0  0
    2.1008    5.3958   10.9507 B   0  0  0  0  0  0  0  0  0  0  0  0
    2.8078    5.4145   10.0759 H   0  0  0  0  0  0  0  0  0  0  0  0
    6.8008    7.6260   10.0284 H   0  0  0  0  0  0  0  0  0  0  0  0
    5.3487    7.3504    8.8753 H   0  0  0  0  0  0  0  0  0  0  0  0
    0.6066    3.1212   12.5955 C   0  0  0  0  0  0  0  0  0  0  0  0
   -0.2110    3.3140   12.0535 H   0  0  0  0  0  0  0  0  0  0  0  0
    1.9098    0.8710   14.2737 C   0  0  0  0  0  0  0  0  0  0  0  0
    1.9261   -0.0963   14.4341 H   0  0  0  0  0  0  0  0  0  0  0  0
    1.7232    1.3379   15.1139 H   0  0  0  0  0  0  0  0  0  0  0  0
    2.7794    1.1586   13.9257 H   0  0  0  0  0  0  0  0  0  0  0  0
    0.8449    0.1354   11.5596 C   0  0  0  0  0  0  0  0  0  0  0  0
    0.8240   -0.7961   11.8634 H   0  0  0  0  0  0  0  0  0  0  0  0
    1.7159    0.3278   11.1546 H   0  0  0  0  0  0  0  0  0  0  0  0
    0.1366    0.2783   10.8963 H   0  0  0  0  0  0  0  0  0  0  0  0
   -1.1073    0.7324   13.6709 C   0  0  0  0  0  0  0  0  0  0  0  0
   -1.0775   -0.2208   13.8988 H   0  0  0  0  0  0  0  0  0  0  0  0
   -1.7887    0.8830   12.9834 H   0  0  0  0  0  0  0  0  0  0  0  0
   -1.3310    1.2523   14.4712 H   0  0  0  0  0  0  0  0  0  0  0  0
   -0.5322    3.6502   15.4846 C   0  0  0  0  0  0  0  0  0  0  0  0
   -0.1937    2.7882   15.8041 H   0  0  0  0  0  0  0  0  0  0  0  0
   -1.4485    3.5387   15.1532 H   0  0  0  0  0  0  0  0  0  0  0  0
   -0.5280    4.2973   16.2215 H   0  0  0  0  0  0  0  0  0  0  0  0
   -0.1574    5.9391   13.6023 C   0  0  0  0  0  0  0  0  0  0  0  0
    0.3985    6.3457   12.9049 H   0  0  0  0  0  0  0  0  0  0  0  0
   -0.1810    6.5276   14.3865 H   0  0  0  0  0  0  0  0  0  0  0  0
   -1.0672    5.8105   13.2624 H   0  0  0  0  0  0  0  0  0  0  0  0
    2.2864    4.5125   14.8054 C   0  0  0  0  0  0  0  0  0  0  0  0
    2.9138    4.7295   14.0848 H   0  0  0  0  0  0  0  0  0  0  0  0
    2.5710    3.6859   15.2482 H   0  0  0  0  0  0  0  0  0  0  0  0
    2.2721    5.2432   15.4569 H   0  0  0  0  0  0  0  0  0  0  0  0
    1.5634    2.7193    9.8817 C   0  0  0  0  0  0  0  0  0  0  0  0
    0.2338    2.7721    9.4347 C   0  0  0  0  0  0  0  0  0  0  0  0
   -0.4043    3.2551    9.9458 H   0  0  0  0  0  0  0  0  0  0  0  0
   -0.1774    2.1389    8.2674 C   0  0  0  0  0  0  0  0  0  0  0  0
   -1.0874    2.1848    7.9992 H   0  0  0  0  0  0  0  0  0  0  0  0
    0.7353    1.4433    7.4976 C   0  0  0  0  0  0  0  0  0  0  0  0
    0.4582    0.9981    6.7056 H   0  0  0  0  0  0  0  0  0  0  0  0
    2.0581    1.4060    7.8987 C   0  0  0  0  0  0  0  0  0  0  0  0
    2.6902    0.9379    7.3668 H   0  0  0  0  0  0  0  0  0  0  0  0
    2.4886    2.0390    9.0669 C   0  0  0  0  0  0  0  0  0  0  0  0
    3.9502    1.9321    9.4473 C   0  0  0  0  0  0  0  0  0  0  0  0
    4.0129    1.6550   10.3962 H   0  0  0  0  0  0  0  0  0  0  0  0
    4.3709    1.2228    8.8981 H   0  0  0  0  0  0  0  0  0  0  0  0
    4.7623    3.5347    7.9051 C   0  0  0  0  0  0  0  0  0  0  0  0
    5.2484    4.3830    7.8277 H   0  0  0  0  0  0  0  0  0  0  0  0
    3.8555    3.6444    7.5508 H   0  0  0  0  0  0  0  0  0  0  0  0
    5.2302    2.8417    7.3958 H   0  0  0  0  0  0  0  0  0  0  0  0
    5.2631    6.8474   13.9644 C   0  0  0  0  0  0  0  0  0  0  0  0
    4.7349    6.0246   14.0290 H   0  0  0  0  0  0  0  0  0  0  0  0
    4.8450    7.4548   13.3182 H   0  0  0  0  0  0  0  0  0  0  0  0
    5.3012    7.2795   14.8432 H   0  0  0  0  0  0  0  0  0  0  0  0
    7.3601    7.7755   13.4041 C   0  0  0  0  0  0  0  0  0  0  0  0
    6.9105    8.3672   12.7644 H   0  0  0  0  0  0  0  0  0  0  0  0
    8.2663    7.5805   13.0867 H   0  0  0  0  0  0  0  0  0  0  0  0
    7.4075    8.2147   14.2791 H   0  0  0  0  0  0  0  0  0  0  0  0
    7.2644    5.6051   14.4469 C   0  0  0  0  0  0  0  0  0  0  0  0
    7.1855    5.9644   15.3660 H   0  0  0  0  0  0  0  0  0  0  0  0
    8.2276    5.5630   14.2233 H   0  0  0  0  0  0  0  0  0  0  0  0
    6.6955    4.2013   14.4208 C   0  0  0  0  0  0  0  0  0  0  0  0
    7.2097    3.6378   15.0519 H   0  0  0  0  0  0  0  0  0  0  0  0
    5.7587    4.2318   14.7399 H   0  0  0  0  0  0  0  0  0  0  0  0
    5.8409    2.3872   13.0888 C   0  0  0  0  0  0  0  0  0  0  0  0
    5.8876    1.9453   12.2147 H   0  0  0  0  0  0  0  0  0  0  0  0
    4.9181    2.6691   13.2624 H   0  0  0  0  0  0  0  0  0  0  0  0
    6.1286    1.7634   13.7873 H   0  0  0  0  0  0  0  0  0  0  0  0
    8.0861    3.1918   12.7164 C   0  0  0  0  0  0  0  0  0  0  0  0
    8.3262    2.3560   13.1901 H   0  0  0  0  0  0  0  0  0  0  0  0
    8.7037    3.9000   13.0289 H   0  0  0  0  0  0  0  0  0  0  0  0
    8.2988    2.9845   11.2232 C   0  0  0  0  0  0  0  0  0  0  0  0
    9.2323    2.6878   11.0740 H   0  0  0  0  0  0  0  0  0  0  0  0
    7.7017    2.2570   10.9149 H   0  0  0  0  0  0  0  0  0  0  0  0
    8.1722    3.8358    8.9902 C   0  0  0  0  0  0  0  0  0  0  0  0
    7.5318    3.1267    8.7700 H   0  0  0  0  0  0  0  0  0  0  0  0
    9.0820    3.5214    8.8092 H   0  0  0  0  0  0  0  0  0  0  0  0
    7.9841    4.6278    8.4435 H   0  0  0  0  0  0  0  0  0  0  0  0
    8.9808    5.2662   10.7203 C   0  0  0  0  0  0  0  0  0  0  0  0
    8.8437    6.0085   10.0945 H   0  0  0  0  0  0  0  0  0  0  0  0
    9.9016    4.9409   10.6442 H   0  0  0  0  0  0  0  0  0  0  0  0
    8.8189    5.5764   11.6361 H   0  0  0  0  0  0  0  0  0  0  0  0
    2.4525    8.1673    9.6002 K   0  0  0  0  0  0  0  0  0  0  0  0
    5.7664    9.8959    9.1731 P   0  0  0  0  0  0  0  0  0  0  0  0
    7.2986   12.1038    7.6440 Si  0  0  0  0  0  0  0  0  0  0  0  0
    7.3006    9.0999    6.5746 Si  0  0  0  0  0  0  0  0  0  0  0  0
    3.1755   10.2276   11.3910 O   0  0  0  0  0  0  0  0  0  0  0  0
    1.2609    6.8531    7.1391 N   0  0  0  0  0  0  0  0  0  0  0  0
    1.1469    9.8147    7.5745 N   0  0  0  0  0  0  0  0  0  0  0  0
   -0.1809    9.2002   10.2632 N   0  0  0  0  0  0  0  0  0  0  0  0
    5.7674    7.9832    9.7137 B   0  0  0  0  0  0  0  0  0  0  0  0
    5.0605    7.9645   10.5884 H   0  0  0  0  0  0  0  0  0  0  0  0
    1.0674    5.7530   10.6359 H   0  0  0  0  0  0  0  0  0  0  0  0
    2.5195    6.0286   11.7890 H   0  0  0  0  0  0  0  0  0  0  0  0
    7.2616   10.2578    8.0688 C   0  0  0  0  0  0  0  0  0  0  0  0
    8.0792   10.0650    8.6108 H   0  0  0  0  0  0  0  0  0  0  0  0
    5.9585   12.5080    6.3907 C   0  0  0  0  0  0  0  0  0  0  0  0
    5.9422   13.4753    6.2303 H   0  0  0  0  0  0  0  0  0  0  0  0
    6.1451   12.0411    5.5504 H   0  0  0  0  0  0  0  0  0  0  0  0
    5.0888   12.2204    6.7386 H   0  0  0  0  0  0  0  0  0  0  0  0
    7.0233   13.2436    9.1047 C   0  0  0  0  0  0  0  0  0  0  0  0
    7.0443   14.1751    8.8009 H   0  0  0  0  0  0  0  0  0  0  0  0
    6.1524   13.0512    9.5097 H   0  0  0  0  0  0  0  0  0  0  0  0
    7.7317   13.1007    9.7680 H   0  0  0  0  0  0  0  0  0  0  0  0
    8.9756   12.6466    6.9934 C   0  0  0  0  0  0  0  0  0  0  0  0
    8.9458   13.5998    6.7655 H   0  0  0  0  0  0  0  0  0  0  0  0
    9.6570   12.4960    7.6809 H   0  0  0  0  0  0  0  0  0  0  0  0
    9.1993   12.1267    6.1931 H   0  0  0  0  0  0  0  0  0  0  0  0
    8.4005    9.7288    5.1797 C   0  0  0  0  0  0  0  0  0  0  0  0
    8.0619   10.5908    4.8603 H   0  0  0  0  0  0  0  0  0  0  0  0
    9.3168    9.8403    5.5112 H   0  0  0  0  0  0  0  0  0  0  0  0
    8.3962    9.0817    4.4428 H   0  0  0  0  0  0  0  0  0  0  0  0
    8.0257    7.4399    7.0620 C   0  0  0  0  0  0  0  0  0  0  0  0
    7.4698    7.0333    7.7595 H   0  0  0  0  0  0  0  0  0  0  0  0
    8.0492    6.8514    6.2778 H   0  0  0  0  0  0  0  0  0  0  0  0
    8.9354    7.5685    7.4020 H   0  0  0  0  0  0  0  0  0  0  0  0
    5.5818    8.8665    5.8590 C   0  0  0  0  0  0  0  0  0  0  0  0
    4.9545    8.6495    6.5795 H   0  0  0  0  0  0  0  0  0  0  0  0
    5.2973    9.6931    5.4161 H   0  0  0  0  0  0  0  0  0  0  0  0
    5.5962    8.1358    5.2074 H   0  0  0  0  0  0  0  0  0  0  0  0
    6.3049   10.6597   10.7827 C   0  0  0  0  0  0  0  0  0  0  0  0
    7.6344   10.6069   11.2296 C   0  0  0  0  0  0  0  0  0  0  0  0
    8.2725   10.1239   10.7186 H   0  0  0  0  0  0  0  0  0  0  0  0
    8.0456   11.2401   12.3970 C   0  0  0  0  0  0  0  0  0  0  0  0
    8.9557   11.1942   12.6652 H   0  0  0  0  0  0  0  0  0  0  0  0
    7.1330   11.9357   13.1667 C   0  0  0  0  0  0  0  0  0  0  0  0
    7.4100   12.3809   13.9588 H   0  0  0  0  0  0  0  0  0  0  0  0
    5.8102   11.9730   12.7656 C   0  0  0  0  0  0  0  0  0  0  0  0
    5.1781   12.4411   13.2975 H   0  0  0  0  0  0  0  0  0  0  0  0
    5.3796   11.3400   11.5975 C   0  0  0  0  0  0  0  0  0  0  0  0
    3.9181   11.4469   11.2170 C   0  0  0  0  0  0  0  0  0  0  0  0
    3.8553   11.7240   10.2681 H   0  0  0  0  0  0  0  0  0  0  0  0
    3.4974   12.1562   11.7663 H   0  0  0  0  0  0  0  0  0  0  0  0
    3.1060    9.8443   12.7592 C   0  0  0  0  0  0  0  0  0  0  0  0
    2.6199    8.9960   12.8367 H   0  0  0  0  0  0  0  0  0  0  0  0
    4.0128    9.7346   13.1136 H   0  0  0  0  0  0  0  0  0  0  0  0
    2.6380   10.5373   13.2686 H   0  0  0  0  0  0  0  0  0  0  0  0
    2.6052    6.5316    6.7000 C   0  0  0  0  0  0  0  0  0  0  0  0
    3.1334    7.3544    6.6353 H   0  0  0  0  0  0  0  0  0  0  0  0
    3.0232    5.9242    7.3462 H   0  0  0  0  0  0  0  0  0  0  0  0
    2.5671    6.0995    5.8211 H   0  0  0  0  0  0  0  0  0  0  0  0
    0.5081    5.6035    7.2602 C   0  0  0  0  0  0  0  0  0  0  0  0
    0.9577    5.0118    7.9000 H   0  0  0  0  0  0  0  0  0  0  0  0
   -0.3981    5.7985    7.5776 H   0  0  0  0  0  0  0  0  0  0  0  0
    0.4608    5.1643    6.3853 H   0  0  0  0  0  0  0  0  0  0  0  0
    0.6039    7.7739    6.2175 C   0  0  0  0  0  0  0  0  0  0  0  0
    0.6828    7.4146    5.2983 H   0  0  0  0  0  0  0  0  0  0  0  0
   -0.3594    7.8160    6.4411 H   0  0  0  0  0  0  0  0  0  0  0  0
    1.1728    9.1777    6.2435 C   0  0  0  0  0  0  0  0  0  0  0  0
    0.6585    9.7412    5.6124 H   0  0  0  0  0  0  0  0  0  0  0  0
    2.1096    9.1472    5.9245 H   0  0  0  0  0  0  0  0  0  0  0  0
    2.0274   10.9918    7.5756 C   0  0  0  0  0  0  0  0  0  0  0  0
    1.9806   11.4337    8.4497 H   0  0  0  0  0  0  0  0  0  0  0  0
    2.9502   10.7099    7.4020 H   0  0  0  0  0  0  0  0  0  0  0  0
    1.7397   11.6156    6.8771 H   0  0  0  0  0  0  0  0  0  0  0  0
   -0.2178   10.1872    7.9479 C   0  0  0  0  0  0  0  0  0  0  0  0
   -0.4580   11.0230    7.4743 H   0  0  0  0  0  0  0  0  0  0  0  0
   -0.8354    9.4790    7.6355 H   0  0  0  0  0  0  0  0  0  0  0  0
   -0.4305   10.3945    9.4411 C   0  0  0  0  0  0  0  0  0  0  0  0
   -1.3641   10.6912    9.5903 H   0  0  0  0  0  0  0  0  0  0  0  0
    0.1665   11.1220    9.7494 H   0  0  0  0  0  0  0  0  0  0  0  0
   -0.3039    9.5432   11.6741 C   0  0  0  0  0  0  0  0  0  0  0  0
    0.3365   10.2523   11.8944 H   0  0  0  0  0  0  0  0  0  0  0  0
   -1.2137    9.8576   11.8551 H   0  0  0  0  0  0  0  0  0  0  0  0
   -0.1158    8.7512   12.2209 H   0  0  0  0  0  0  0  0  0  0  0  0
   -1.1126    8.1128    9.9441 C   0  0  0  0  0  0  0  0  0  0  0  0
   -0.9754    7.3705   10.5698 H   0  0  0  0  0  0  0  0  0  0  0  0
   -2.0333    8.4381   10.0201 H   0  0  0  0  0  0  0  0  0  0  0  0
   -0.9507    7.8026    9.0283 H   0  0  0  0  0  0  0  0  0  0  0  0
  1  2  1  0  0  0  0
  2  9  1  0  0  0  0
  3 13  1  0  0  0  0
  4 13  1  0  0  0  0
  5  1  1  0  0  0  0
  6  1  1  0  0  0  0
  7  1  1  0  0  0  0
  8  1  1  0  0  0  0
  9 10  1  0  0  0  0
 10  1  1  0  0  0  0
 11  1  1  0  0  0  0
 12  1  1  0  0  0  0
 13  2  1  0  0  0  0
 14 13  1  0  0  0  0
 15  3  1  0  0  0  0
 16 15  1  0  0  0  0
 17 15  1  0  0  0  0
 18 15  1  0  0  0  0
 19  3  1  0  0  0  0
 20 19  1  0  0  0  0
 21 19  1  0  0  0  0
 22 19  1  0  0  0  0
 23  3  1  0  0  0  0
 24 23  1  0  0  0  0
 25 23  1  0  0  0  0
 26 23  1  0  0  0  0
 27  4  1  0  0  0  0
 28 27  1  0  0  0  0
 29 27  1  0  0  0  0
 30 27  1  0  0  0  0
 31  4  1  0  0  0  0
 32 31  1  0  0  0  0
 33 31  1  0  0  0  0
 34 31  1  0  0  0  0
 35  4  1  0  0  0  0
 36 35  1  0  0  0  0
 37 35  1  0  0  0  0
 38 35  1  0  0  0  0
 39  2  1  0  0  0  0
 40 39  4  0  0  0  0
 41 40  1  0  0  0  0
 42 40  4  0  0  0  0
 43 42  1  0  0  0  0
 44 42  4  0  0  0  0
 45 44  1  0  0  0  0
 46 44  4  0  0  0  0
 47 46  1  0  0  0  0
 48 39  4  0  0  0  0
 49  5  1  0  0  0  0
 50 49  1  0  0  0  0
 51 49  1  0  0  0  0
 52  5  1  0  0  0  0
 53 52  1  0  0  0  0
 54 52  1  0  0  0  0
 55 52  1  0  0  0  0
 56  6  1  0  0  0  0
 57 56  1  0  0  0  0
 58 56  1  0  0  0  0
 59 56  1  0  0  0  0
 60  6  1  0  0  0  0
 61 60  1  0  0  0  0
 62 60  1  0  0  0  0
 63 60  1  0  0  0  0
 64  6  1  0  0  0  0
 65 64  1  0  0  0  0
 66 64  1  0  0  0  0
 67  7  1  0  0  0  0
 68 67  1  0  0  0  0
 69 67  1  0  0  0  0
 70  7  1  0  0  0  0
 71 70  1  0  0  0  0
 72 70  1  0  0  0  0
 73 70  1  0  0  0  0
 74  7  1  0  0  0  0
 75 74  1  0  0  0  0
 76 74  1  0  0  0  0
 77  8  1  0  0  0  0
 78 77  1  0  0  0  0
 79 77  1  0  0  0  0
 80  8  1  0  0  0  0
 81 80  1  0  0  0  0
 82 80  1  0  0  0  0
 83 80  1  0  0  0  0
 84  8  1  0  0  0  0
 85 84  1  0  0  0  0
 86 84  1  0  0  0  0
 87 84  1  0  0  0  0
 88 10  1  0  0  0  0
 89 88  1  0  0  0  0
 90100  1  0  0  0  0
 91100  1  0  0  0  0
 92 88  1  0  0  0  0
 93 88  1  0  0  0  0
 94 88  1  0  0  0  0
 95 88  1  0  0  0  0
 96 11  1  0  0  0  0
 97  1  1  0  0  0  0
 98  9  1  0  0  0  0
 99  9  1  0  0  0  0
100 89  1  0  0  0  0
101100  1  0  0  0  0
102 90  1  0  0  0  0
103102  1  0  0  0  0
104102  1  0  0  0  0
105102  1  0  0  0  0
106 90  1  0  0  0  0
107106  1  0  0  0  0
108106  1  0  0  0  0
109106  1  0  0  0  0
110 90  1  0  0  0  0
111110  1  0  0  0  0
112110  1  0  0  0  0
113110  1  0  0  0  0
114 91  1  0  0  0  0
115114  1  0  0  0  0
116114  1  0  0  0  0
117114  1  0  0  0  0
118 91  1  0  0  0  0
119118  1  0  0  0  0
120118  1  0  0  0  0
121118  1  0  0  0  0
122 91  1  0  0  0  0
123122  1  0  0  0  0
124122  1  0  0  0  0
125122  1  0  0  0  0
126 89  1  0  0  0  0
127126  4  0  0  0  0
128127  1  0  0  0  0
129127  4  0  0  0  0
130129  1  0  0  0  0
131129  4  0  0  0  0
132131  1  0  0  0  0
133131  4  0  0  0  0
134133  1  0  0  0  0
135126  4  0  0  0  0
136 92  1  0  0  0  0
137136  1  0  0  0  0
138136  1  0  0  0  0
139 92  1  0  0  0  0
140139  1  0  0  0  0
141139  1  0  0  0  0
142139  1  0  0  0  0
143 93  1  0  0  0  0
144143  1  0  0  0  0
145143  1  0  0  0  0
146143  1  0  0  0  0
147 93  1  0  0  0  0
148147  1  0  0  0  0
149147  1  0  0  0  0
150147  1  0  0  0  0
151 93  1  0  0  0  0
152151  1  0  0  0  0
153151  1  0  0  0  0
154 94  1  0  0  0  0
155154  1  0  0  0  0
156154  1  0  0  0  0
157 94  1  0  0  0  0
158157  1  0  0  0  0
159157  1  0  0  0  0
160157  1  0  0  0  0
161 94  1  0  0  0  0
162161  1  0  0  0  0
163161  1  0  0  0  0
164 95  1  0  0  0  0
165164  1  0  0  0  0
166164  1  0  0  0  0
167 95  1  0  0  0  0
168167  1  0  0  0  0
169167  1  0  0  0  0
170167  1  0  0  0  0
171 95  1  0  0  0  0
172171  1  0  0  0  0
173171  1  0  0  0  0
174171  1  0  0  0  0
 12 96  1  0  0  0  0
 46 48  4  0  0  0  0
 48 49  1  0  0  0  0
 64 67  1  0  0  0  0
 74 77  1  0  0  0  0
 88 97  1  0  0  0  0
 88 98  1  0  0  0  0
 88 99  1  0  0  0  0
 89 96  1  0  0  0  0
 96 97  1  0  0  0  0
133135  4  0  0  0  0
135136  1  0  0  0  0
151154  1  0  0  0  0
161164  1  0  0  0  0
M  END
$$$$
WASZIZ

From CSD data. Using bond type 'Any'. No disordered atoms. Largest molecule.
 78 81  0  0  0  0  0  0  0  0999 V2000
    1.6475   13.5285    7.9826 Fe  0  0  0  0  0  0  0  0  0  0  0  0
    0.6756   15.0197    7.9138 C   0  0  0  0  0  0  0  0  0  0  0  0
    0.0651   15.9730    7.8863 O   0  0  0  0  0  0  0  0  0  0  0  0
    2.4595   14.0992    9.4592 C   0  0  0  0  0  0  0  0  0  0  0  0
    2.9645   14.4973   10.4116 O   0  0  0  0  0  0  0  0  0  0  0  0
    2.3516   13.8582    6.3806 C   0  0  0  0  0  0  0  0  0  0  0  0
    2.7664   14.1194    5.3365 O   0  0  0  0  0  0  0  0  0  0  0  0
    0.1973   12.4913    8.0223 C   0  0  0  0  0  0  0  0  0  0  0  0
   -0.7456   11.8398    8.0468 O   0  0  0  0  0  0  0  0  0  0  0  0
    3.1233    9.7825    6.8804 Si  0  0  0  0  0  0  0  0  0  0  0  0
    3.9419   10.0904    5.2280 C   0  0  0  0  0  0  0  0  0  0  0  0
    4.0052    9.0983    4.2649 C   0  0  0  0  0  0  0  0  0  0  0  0
    4.6251    9.3284    3.0496 C   0  0  0  0  0  0  0  0  0  0  0  0
    5.1967   10.5336    2.7745 C   0  0  0  0  0  0  0  0  0  0  0  0
    5.1551   11.5365    3.7100 C   0  0  0  0  0  0  0  0  0  0  0  0
    4.5222   11.3111    4.9253 C   0  0  0  0  0  0  0  0  0  0  0  0
    1.6144    8.6971    6.6893 C   0  0  0  0  0  0  0  0  0  0  0  0
    1.2053    7.8388    7.6998 C   0  0  0  0  0  0  0  0  0  0  0  0
    0.1156    6.9928    7.5423 C   0  0  0  0  0  0  0  0  0  0  0  0
   -0.5735    6.9913    6.3867 C   0  0  0  0  0  0  0  0  0  0  0  0
   -0.2321    7.8356    5.3961 C   0  0  0  0  0  0  0  0  0  0  0  0
    0.8638    8.6800    5.5383 C   0  0  0  0  0  0  0  0  0  0  0  0
    2.9041   11.6298    8.1614 P   0  0  0  0  0  0  0  0  0  0  0  0
    4.5007    9.2258    8.5757 P   0  0  0  0  0  0  0  0  0  0  0  0
    4.8161   11.1556    8.3265 B   0  0  0  0  0  0  0  0  0  0  0  0
    3.0692   10.2132    9.5112 B   0  0  0  0  0  0  0  0  0  0  0  0
    5.9611   11.9004    8.3403 N   0  0  0  0  0  0  0  0  0  0  0  0
    2.5115   10.0764   10.7586 N   0  0  0  0  0  0  0  0  0  0  0  0
    5.9335   13.3823    8.2470 C   0  0  0  0  0  0  0  0  0  0  0  0
    6.7520   13.9033    7.0730 C   0  0  0  0  0  0  0  0  0  0  0  0
    6.3426   14.0137    9.5601 C   0  0  0  0  0  0  0  0  0  0  0  0
    7.3275   11.3049    8.4564 C   0  0  0  0  0  0  0  0  0  0  0  0
    7.6400   10.4652    7.2244 C   0  0  0  0  0  0  0  0  0  0  0  0
    7.5066   10.5429    9.7543 C   0  0  0  0  0  0  0  0  0  0  0  0
    2.9396    9.0454   11.7537 C   0  0  0  0  0  0  0  0  0  0  0  0
    4.3752    9.3051   12.2337 C   0  0  0  0  0  0  0  0  0  0  0  0
    2.7496    7.6304   11.2615 C   0  0  0  0  0  0  0  0  0  0  0  0
    1.4612   11.0001   11.2248 C   0  0  0  0  0  0  0  0  0  0  0  0
    1.8799   11.7978   12.4661 C   0  0  0  0  0  0  0  0  0  0  0  0
    0.1317   10.2832   11.4342 C   0  0  0  0  0  0  0  0  0  0  0  0
    3.6130    8.2399    4.4422 H   0  0  0  0  0  0  0  0  0  0  0  0
    4.6534    8.6303    2.3923 H   0  0  0  0  0  0  0  0  0  0  0  0
    5.6267   10.6813    1.9291 H   0  0  0  0  0  0  0  0  0  0  0  0
    5.5591   12.3871    3.5250 H   0  0  0  0  0  0  0  0  0  0  0  0
    4.4844   12.0202    5.5734 H   0  0  0  0  0  0  0  0  0  0  0  0
    1.6875    7.8279    8.5298 H   0  0  0  0  0  0  0  0  0  0  0  0
   -0.1502    6.4050    8.2531 H   0  0  0  0  0  0  0  0  0  0  0  0
   -1.3124    6.3895    6.2720 H   0  0  0  0  0  0  0  0  0  0  0  0
   -0.7444    7.8496    4.5859 H   0  0  0  0  0  0  0  0  0  0  0  0
    1.0973    9.2678    4.8168 H   0  0  0  0  0  0  0  0  0  0  0  0
    5.0259   13.6420    8.0728 H   0  0  0  0  0  0  0  0  0  0  0  0
    6.7047   14.8627    7.0516 H   0  0  0  0  0  0  0  0  0  0  0  0
    6.3972   13.5487    6.2537 H   0  0  0  0  0  0  0  0  0  0  0  0
    7.6658   13.6311    7.1709 H   0  0  0  0  0  0  0  0  0  0  0  0
    6.3174   14.9684    9.4761 H   0  0  0  0  0  0  0  0  0  0  0  0
    7.2333   13.7353    9.7864 H   0  0  0  0  0  0  0  0  0  0  0  0
    5.7368   13.7353   10.2511 H   0  0  0  0  0  0  0  0  0  0  0  0
    7.9648   12.0217    8.4870 H   0  0  0  0  0  0  0  0  0  0  0  0
    8.5187   10.0888    7.3115 H   0  0  0  0  0  0  0  0  0  0  0  0
    7.6035   11.0156    6.4386 H   0  0  0  0  0  0  0  0  0  0  0  0
    6.9952    9.7576    7.1479 H   0  0  0  0  0  0  0  0  0  0  0  0
    8.3938   10.1775    9.7879 H   0  0  0  0  0  0  0  0  0  0  0  0
    6.8652    9.8292    9.7971 H   0  0  0  0  0  0  0  0  0  0  0  0
    7.3751   11.1354   10.4972 H   0  0  0  0  0  0  0  0  0  0  0  0
    2.3558    9.1356   12.5104 H   0  0  0  0  0  0  0  0  0  0  0  0
    4.6249    8.6318   12.8712 H   0  0  0  0  0  0  0  0  0  0  0  0
    4.4256   10.1697   12.6449 H   0  0  0  0  0  0  0  0  0  0  0  0
    4.9721    9.2725   11.4832 H   0  0  0  0  0  0  0  0  0  0  0  0
    3.0398    7.0162   11.9387 H   0  0  0  0  0  0  0  0  0  0  0  0
    3.2699    7.4967   10.4651 H   0  0  0  0  0  0  0  0  0  0  0  0
    1.8218    7.4811   11.0674 H   0  0  0  0  0  0  0  0  0  0  0  0
    1.3368   11.6423   10.5201 H   0  0  0  0  0  0  0  0  0  0  0  0
    1.1644   12.3825   12.7275 H   0  0  0  0  0  0  0  0  0  0  0  0
    2.6605   12.3187   12.2643 H   0  0  0  0  0  0  0  0  0  0  0  0
    2.0763   11.1913   13.1845 H   0  0  0  0  0  0  0  0  0  0  0  0
   -0.5250   10.9145   11.7369 H   0  0  0  0  0  0  0  0  0  0  0  0
    0.2400    9.5928   12.0931 H   0  0  0  0  0  0  0  0  0  0  0  0
   -0.1567    9.8929   10.6072 H   0  0  0  0  0  0  0  0  0  0  0  0
  1  2  1  0  0  0  0
  2  3  3  0  0  0  0
  4  1  1  0  0  0  0
  5  4  3  0  0  0  0
  6  1  1  0  0  0  0
  7  6  3  0  0  0  0
  8  1  1  0  0  0  0
  9  8  3  0  0  0  0
 10 11  1  0  0  0  0
 11 12  4  0  0  0  0
 12 13  4  0  0  0  0
 13 14  4  0  0  0  0
 14 15  4  0  0  0  0
 15 16  4  0  0  0  0
 16 11  4  0  0  0  0
 17 10  1  0  0  0  0
 18 17  4  0  0  0  0
 19 18  4  0  0  0  0
 20 19  4  0  0  0  0
 21 20  4  0  0  0  0
 22 17  4  0  0  0  0
 23  1  1  0  0  0  0
 24 10  1  0  0  0  0
 25 23  1  0  0  0  0
 26 23  1  0  0  0  0
 27 25  1  0  0  0  0
 28 26  1  0  0  0  0
 29 27  1  0  0  0  0
 30 29  1  0  0  0  0
 31 29  1  0  0  0  0
 32 27  1  0  0  0  0
 33 32  1  0  0  0  0
 34 32  1  0  0  0  0
 35 28  1  0  0  0  0
 36 35  1  0  0  0  0
 37 35  1  0  0  0  0
 38 28  1  0  0  0  0
 39 38  1  0  0  0  0
 40 38  1  0  0  0  0
 41 12  1  0  0  0  0
 42 13  1  0  0  0  0
 43 14  1  0  0  0  0
 44 15  1  0  0  0  0
 45 16  1  0  0  0  0
 46 18  1  0  0  0  0
 47 19  1  0  0  0  0
 48 20  1  0  0  0  0
 49 21  1  0  0  0  0
 50 22  1  0  0  0  0
 51 29  1  0  0  0  0
 52 30  1  0  0  0  0
 53 30  1  0  0  0  0
 54 30  1  0  0  0  0
 55 31  1  0  0  0  0
 56 31  1  0  0  0  0
 57 31  1  0  0  0  0
 58 32  1  0  0  0  0
 59 33  1  0  0  0  0
 60 33  1  0  0  0  0
 61 33  1  0  0  0  0
 62 34  1  0  0  0  0
 63 34  1  0  0  0  0
 64 34  1  0  0  0  0
 65 35  1  0  0  0  0
 66 36  1  0  0  0  0
 67 36  1  0  0  0  0
 68 36  1  0  0  0  0
 69 37  1  0  0  0  0
 70 37  1  0  0  0  0
 71 37  1  0  0  0  0
 72 38  1  0  0  0  0
 73 39  1  0  0  0  0
 74 39  1  0  0  0  0
 75 39  1  0  0  0  0
 76 40  1  0  0  0  0
 77 40  1  0  0  0  0
 78 40  1  0  0  0  0
 10 23  1  0  0  0  0
 21 22  4  0  0  0  0
 24 25  1  0  0  0  0
 24 26  1  0  0  0  0
M  END
$$$$
WASZOF

From CSD data. Using bond type 'Any'. No disordered atoms. Largest molecule.
 78 81  0  0  0  0  0  0  0  0999 V2000
    4.6368   19.3071   15.8855 Fe  0  0  0  0  0  0  0  0  0  0  0  0
    3.2871   18.6338   14.9392 C   0  0  0  0  0  0  0  0  0  0  0  0
    2.4309   18.1978   14.3603 O   0  0  0  0  0  0  0  0  0  0  0  0
    4.3879   20.8947   15.1456 C   0  0  0  0  0  0  0  0  0  0  0  0
    4.1523   21.8804   14.6122 O   0  0  0  0  0  0  0  0  0  0  0  0
    5.7612   18.1556   15.1841 C   0  0  0  0  0  0  0  0  0  0  0  0
    6.4596   17.3228   14.7363 O   0  0  0  0  0  0  0  0  0  0  0  0
    3.8281   18.8647   17.4125 C   0  0  0  0  0  0  0  0  0  0  0  0
    3.2624   18.5459   18.3483 O   0  0  0  0  0  0  0  0  0  0  0  0
    6.3883   19.9643   17.2708 P   0  0  0  0  0  0  0  0  0  0  0  0
    6.6253   21.0345   18.9342 B   0  0  0  0  0  0  0  0  0  0  0  0
    5.9357   21.9617   19.6461 N   0  0  0  0  0  0  0  0  0  0  0  0
    6.3156   22.2577   21.0944 C   0  0  0  0  0  0  0  0  0  0  0  0
    5.1380   22.9832   21.7871 C   0  0  0  0  0  0  0  0  0  0  0  0
    4.6539   24.2551   21.1434 C   0  0  0  0  0  0  0  0  0  0  0  0
    4.8675   24.2454   19.6339 C   0  0  0  0  0  0  0  0  0  0  0  0
    4.8814   22.8237   19.0374 C   0  0  0  0  0  0  0  0  0  0  0  0
    6.5034   20.9597   21.8588 C   0  0  0  0  0  0  0  0  0  0  0  0
    7.5884   23.1230   21.1416 C   0  0  0  0  0  0  0  0  0  0  0  0
    5.3009   23.0742   17.5857 C   0  0  0  0  0  0  0  0  0  0  0  0
    3.5945   22.1731   19.0672 C   0  0  0  0  0  0  0  0  0  0  0  0
    8.3272   20.4685   17.2778 B   0  0  0  0  0  0  0  0  0  0  0  0
    9.2691   20.8979   16.3735 N   0  0  0  0  0  0  0  0  0  0  0  0
    8.9793   21.1842   14.9270 C   0  0  0  0  0  0  0  0  0  0  0  0
    9.8963   22.2382   14.3515 C   0  0  0  0  0  0  0  0  0  0  0  0
   11.3402   22.0072   14.4967 C   0  0  0  0  0  0  0  0  0  0  0  0
   11.6442   21.1582   15.5112 C   0  0  0  0  0  0  0  0  0  0  0  0
   10.7230   21.0964   16.8370 C   0  0  0  0  0  0  0  0  0  0  0  0
    7.6650   21.9194   14.7713 C   0  0  0  0  0  0  0  0  0  0  0  0
    8.8724   19.9545   14.1434 C   0  0  0  0  0  0  0  0  0  0  0  0
   11.2008   19.8992   17.5577 C   0  0  0  0  0  0  0  0  0  0  0  0
   10.7604   22.3358   17.6644 C   0  0  0  0  0  0  0  0  0  0  0  0
    8.4392   20.2733   19.2421 P   0  0  0  0  0  0  0  0  0  0  0  0
    7.3159   18.4451   18.6316 Si  0  0  0  0  0  0  0  0  0  0  0  0
    8.2887   17.1113   17.7921 C   0  0  0  0  0  0  0  0  0  0  0  0
    6.1623   17.7034   19.8630 C   0  0  0  0  0  0  0  0  0  0  0  0
    5.4122   23.1946   22.6809 H   0  0  0  0  0  0  0  0  0  0  0  0
    4.3978   22.3716   21.8150 H   0  0  0  0  0  0  0  0  0  0  0  0
    3.7175   24.3560   21.3235 H   0  0  0  0  0  0  0  0  0  0  0  0
    5.1360   24.9968   21.5194 H   0  0  0  0  0  0  0  0  0  0  0  0
    4.1564   24.7431   19.2211 H   0  0  0  0  0  0  0  0  0  0  0  0
    5.7076   24.6683   19.4397 H   0  0  0  0  0  0  0  0  0  0  0  0
    7.2273   20.4620   21.4722 H   0  0  0  0  0  0  0  0  0  0  0  0
    5.6971   20.4425   21.8098 H   0  0  0  0  0  0  0  0  0  0  0  0
    6.7032   21.1614   22.7771 H   0  0  0  0  0  0  0  0  0  0  0  0
    7.8195   23.3052   22.0564 H   0  0  0  0  0  0  0  0  0  0  0  0
    7.4290   23.9493   20.6816 H   0  0  0  0  0  0  0  0  0  0  0  0
    8.3093   22.6546   20.7166 H   0  0  0  0  0  0  0  0  0  0  0  0
    5.3424   22.2414   17.1134 H   0  0  0  0  0  0  0  0  0  0  0  0
    6.1653   23.4939   17.5717 H   0  0  0  0  0  0  0  0  0  0  0  0
    4.6604   23.6500   17.1606 H   0  0  0  0  0  0  0  0  0  0  0  0
    2.9350   22.7457   18.6719 H   0  0  0  0  0  0  0  0  0  0  0  0
    3.3516   21.9844   19.9767 H   0  0  0  0  0  0  0  0  0  0  0  0
    3.6413   21.3501   18.5722 H   0  0  0  0  0  0  0  0  0  0  0  0
    9.6938   23.0677   14.7871 H   0  0  0  0  0  0  0  0  0  0  0  0
    9.7040   22.3130   13.4140 H   0  0  0  0  0  0  0  0  0  0  0  0
   11.7725   22.8498   14.6594 H   0  0  0  0  0  0  0  0  0  0  0  0
   11.6699   21.6331   13.6764 H   0  0  0  0  0  0  0  0  0  0  0  0
   11.6474   20.2733   15.1386 H   0  0  0  0  0  0  0  0  0  0  0  0
   12.5304   21.3859   15.8016 H   0  0  0  0  0  0  0  0  0  0  0  0
    6.9500   21.3664   15.1002 H   0  0  0  0  0  0  0  0  0  0  0  0
    7.5168   22.1146   13.8443 H   0  0  0  0  0  0  0  0  0  0  0  0
    7.6949   22.7359   15.2716 H   0  0  0  0  0  0  0  0  0  0  0  0
    9.6889   19.4568   14.2151 H   0  0  0  0  0  0  0  0  0  0  0  0
    8.7127   20.1757   13.2234 H   0  0  0  0  0  0  0  0  0  0  0  0
    8.1439   19.4243   14.4757 H   0  0  0  0  0  0  0  0  0  0  0  0
   10.6979   19.7919   18.3675 H   0  0  0  0  0  0  0  0  0  0  0  0
   12.1312   20.0033   17.7693 H   0  0  0  0  0  0  0  0  0  0  0  0
   11.0840   19.1250   17.0032 H   0  0  0  0  0  0  0  0  0  0  0  0
   11.6571   22.4887   17.9705 H   0  0  0  0  0  0  0  0  0  0  0  0
   10.1771   22.2349   18.4200 H   0  0  0  0  0  0  0  0  0  0  0  0
   10.4723   23.0807   17.1344 H   0  0  0  0  0  0  0  0  0  0  0  0
    8.8864   17.5049   17.1519 H   0  0  0  0  0  0  0  0  0  0  0  0
    7.6881   16.5127   17.3408 H   0  0  0  0  0  0  0  0  0  0  0  0
    8.7947   16.6233   18.4445 H   0  0  0  0  0  0  0  0  0  0  0  0
    5.6627   18.3995   20.2933 H   0  0  0  0  0  0  0  0  0  0  0  0
    6.6648   17.2154   20.5207 H   0  0  0  0  0  0  0  0  0  0  0  0
    5.5571   17.1048   19.4170 H   0  0  0  0  0  0  0  0  0  0  0  0
  1  2  1  0  0  0  0
  2  3  3  0  0  0  0
  4  1  1  0  0  0  0
  5  4  3  0  0  0  0
  6  1  1  0  0  0  0
  7  6  3  0  0  0  0
  8  1  1  0  0  0  0
  9  8  3  0  0  0  0
 10  1  1  0  0  0  0
 11 10  1  0  0  0  0
 12 11  1  0  0  0  0
 13 12  1  0  0  0  0
 14 13  1  0  0  0  0
 15 14  1  0  0  0  0
 16 15  1  0  0  0  0
 17 12  1  0  0  0  0
 18 13  1  0  0  0  0
 19 13  1  0  0  0  0
 20 17  1  0  0  0  0
 21 17  1  0  0  0  0
 22 10  1  0  0  0  0
 23 22  1  0  0  0  0
 24 23  1  0  0  0  0
 25 24  1  0  0  0  0
 26 25  1  0  0  0  0
 27 26  1  0  0  0  0
 28 23  1  0  0  0  0
 29 24  1  0  0  0  0
 30 24  1  0  0  0  0
 31 28  1  0  0  0  0
 32 28  1  0  0  0  0
 33 11  1  0  0  0  0
 34 10  1  0  0  0  0
 35 34  1  0  0  0  0
 36 34  1  0  0  0  0
 37 14  1  0  0  0  0
 38 14  1  0  0  0  0
 39 15  1  0  0  0  0
 40 15  1  0  0  0  0
 41 16  1  0  0  0  0
 42 16  1  0  0  0  0
 43 18  1  0  0  0  0
 44 18  1  0  0  0  0
 45 18  1  0  0  0  0
 46 19  1  0  0  0  0
 47 19  1  0  0  0  0
 48 19  1  0  0  0  0
 49 20  1  0  0  0  0
 50 20  1  0  0  0  0
 51 20  1  0  0  0  0
 52 21  1  0  0  0  0
 53 21  1  0  0  0  0
 54 21  1  0  0  0  0
 55 25  1  0  0  0  0
 56 25  1  0  0  0  0
 57 26  1  0  0  0  0
 58 26  1  0  0  0  0
 59 27  1  0  0  0  0
 60 27  1  0  0  0  0
 61 29  1  0  0  0  0
 62 29  1  0  0  0  0
 63 29  1  0  0  0  0
 64 30  1  0  0  0  0
 65 30  1  0  0  0  0
 66 30  1  0  0  0  0
 67 31  1  0  0  0  0
 68 31  1  0  0  0  0
 69 31  1  0  0  0  0
 70 32  1  0  0  0  0
 71 32  1  0  0  0  0
 72 32  1  0  0  0  0
 73 35  1  0  0  0  0
 74 35  1  0  0  0  0
 75 35  1  0  0  0  0
 76 36  1  0  0  0  0
 77 36  1  0  0  0  0
 78 36  1  0  0  0  0
 16 17  1  0  0  0  0
 22 33  1  0  0  0  0
 27 28  1  0  0  0  0
 33 34  1  0  0  0  0
M  END
$$$$
WEGYUC

From CSD data. Using bond type 'Any'. No disordered atoms. Largest molecule.
 96118  0  0  0  0  0  0  0  0999 V2000
    2.4630    3.4726    2.5753 Rh  0  0  0  0  0  0  0  0  0  0  0  0
    1.3576    5.2297    3.5348 P   0  0  0  0  0  0  0  0  0  0  0  0
    2.9149    1.6109   -1.8807 P   0  3  0  0  0  0  0  0  0  0  0  0
    3.6715    2.8265    0.7603 B   0  0  0  0  0  0  0  0  0  0  0  0
    4.2706    4.2893    1.3507 C   0  0  0  0  0  0  0  0  0  0  0  0
    4.5392    4.2318    3.0505 B   0  0  0  0  0  0  0  0  0  0  0  0
    4.4592    2.6279    3.5019 C   0  0  0  0  0  0  0  0  0  0  0  0
    3.7592    1.7119    2.2518 B   0  0  0  0  0  0  0  0  0  0  0  0
    5.3705    3.3385    0.4514 B   0  0  0  0  0  0  0  0  0  0  0  0
    5.8846    4.2963    1.8405 B   0  0  0  0  0  0  0  0  0  0  0  0
    6.0128    3.2009    3.2314 B   0  0  0  0  0  0  0  0  0  0  0  0
    5.5049    1.5987    2.6831 B   0  0  0  0  0  0  0  0  0  0  0  0
    5.0469    1.7102    0.9778 B   0  0  0  0  0  0  0  0  0  0  0  0
    6.4570    2.6175    1.6047 B   0  5  0  0  0  0  0  0  0  0  0  0
    0.9092    2.5652    2.4492 C   0  0  0  0  0  0  0  0  0  0  0  0
   -0.0437    1.9348    2.3614 O   0  0  0  0  0  0  0  0  0  0  0  0
    2.6158    2.7620   -0.5063 C   0  0  0  0  0  0  0  0  0  0  0  0
    2.2087    4.1256   -1.0583 C   0  0  0  0  0  0  0  0  0  0  0  0
    0.8994    4.5836   -0.9248 C   0  0  0  0  0  0  0  0  0  0  0  0
    0.5144    5.8166   -1.4183 C   0  0  0  0  0  0  0  0  0  0  0  0
    1.4061    6.6403   -2.0617 C   0  0  0  0  0  0  0  0  0  0  0  0
    2.7133    6.2032   -2.2061 C   0  0  0  0  0  0  0  0  0  0  0  0
    3.0941    4.9563   -1.7108 C   0  0  0  0  0  0  0  0  0  0  0  0
    0.9907    7.9987   -2.5771 C   0  0  0  0  0  0  0  0  0  0  0  0
    1.3535    5.3394    5.3699 C   0  0  0  0  0  0  0  0  0  0  0  0
    0.5232    6.2346    6.0534 C   0  0  0  0  0  0  0  0  0  0  0  0
    0.4922    6.2659    7.4297 C   0  0  0  0  0  0  0  0  0  0  0  0
    1.3206    5.4161    8.1443 C   0  0  0  0  0  0  0  0  0  0  0  0
    2.1664    4.5383    7.4864 C   0  0  0  0  0  0  0  0  0  0  0  0
    2.1702    4.5087    6.1009 C   0  0  0  0  0  0  0  0  0  0  0  0
    1.9592    6.8772    2.9883 C   0  0  0  0  0  0  0  0  0  0  0  0
    2.1431    7.0809    1.6175 C   0  0  0  0  0  0  0  0  0  0  0  0
    2.6283    8.2930    1.1569 C   0  0  0  0  0  0  0  0  0  0  0  0
    2.9648    9.2944    2.0178 C   0  0  0  0  0  0  0  0  0  0  0  0
    2.8155    9.0941    3.3758 C   0  0  0  0  0  0  0  0  0  0  0  0
    2.3211    7.8977    3.8528 C   0  0  0  0  0  0  0  0  0  0  0  0
   -0.4470    5.2611    3.1967 C   0  0  0  0  0  0  0  0  0  0  0  0
   -1.2848    4.4652    3.9698 C   0  0  0  0  0  0  0  0  0  0  0  0
   -2.6301    4.3120    3.6682 C   0  0  0  0  0  0  0  0  0  0  0  0
   -3.1596    4.9789    2.5680 C   0  0  0  0  0  0  0  0  0  0  0  0
   -2.3599    5.7644    1.8058 C   0  0  0  0  0  0  0  0  0  0  0  0
   -0.9926    5.9089    2.0909 C   0  0  0  0  0  0  0  0  0  0  0  0
    2.8329   -0.0853   -1.3087 C   0  0  0  0  0  0  0  0  0  0  0  0
    1.8727   -0.3901   -0.2285 C   0  0  0  0  0  0  0  0  0  0  0  0
    1.6413    1.9104   -3.1784 C   0  0  0  0  0  0  0  0  0  0  0  0
    0.2338    1.6405   -2.7763 C   0  0  0  0  0  0  0  0  0  0  0  0
    4.4940    1.8355   -2.7123 C   0  0  0  0  0  0  0  0  0  0  0  0
    4.7292    0.9613   -3.9369 C   0  0  0  0  0  0  0  0  0  0  0  0
    0.2526    4.0316   -0.4807 H   0  0  0  0  0  0  0  0  0  0  0  0
   -0.3959    6.1022   -1.3123 H   0  0  0  0  0  0  0  0  0  0  0  0
    3.3582    6.7605   -2.6465 H   0  0  0  0  0  0  0  0  0  0  0  0
    4.0014    4.6637   -1.8314 H   0  0  0  0  0  0  0  0  0  0  0  0
    1.7410    8.4306   -2.9920 H   0  0  0  0  0  0  0  0  0  0  0  0
    0.6790    8.5351   -1.8442 H   0  0  0  0  0  0  0  0  0  0  0  0
    0.2863    7.8925   -3.2186 H   0  0  0  0  0  0  0  0  0  0  0  0
   -0.0342    6.8371    5.5545 H   0  0  0  0  0  0  0  0  0  0  0  0
   -0.0967    6.8702    7.8866 H   0  0  0  0  0  0  0  0  0  0  0  0
    1.3029    5.4317    9.1039 H   0  0  0  0  0  0  0  0  0  0  0  0
    2.7483    3.9619    7.9872 H   0  0  0  0  0  0  0  0  0  0  0  0
    2.7526    3.8957    5.6440 H   0  0  0  0  0  0  0  0  0  0  0  0
    1.9381    6.3756    0.9979 H   0  0  0  0  0  0  0  0  0  0  0  0
    2.7284    8.4306    0.2120 H   0  0  0  0  0  0  0  0  0  0  0  0
    3.2971   10.1303    1.6852 H   0  0  0  0  0  0  0  0  0  0  0  0
    3.0630    9.7890    3.9899 H   0  0  0  0  0  0  0  0  0  0  0  0
    2.2273    7.7706    4.7996 H   0  0  0  0  0  0  0  0  0  0  0  0
   -0.9241    4.0089    4.7338 H   0  0  0  0  0  0  0  0  0  0  0  0
   -3.1915    3.7494    4.2074 H   0  0  0  0  0  0  0  0  0  0  0  0
   -4.0897    4.8866    2.3523 H   0  0  0  0  0  0  0  0  0  0  0  0
   -2.7357    6.2293    1.0546 H   0  0  0  0  0  0  0  0  0  0  0  0
   -0.4381    6.4557    1.5298 H   0  0  0  0  0  0  0  0  0  0  0  0
    3.7055   -0.3187   -0.9833 H   0  0  0  0  0  0  0  0  0  0  0  0
    2.6140   -0.6339   -2.0635 H   0  0  0  0  0  0  0  0  0  0  0  0
    1.9303   -1.3235   -0.0146 H   0  0  0  0  0  0  0  0  0  0  0  0
    0.9847   -0.1846   -0.5300 H   0  0  0  0  0  0  0  0  0  0  0  0
    2.0761    0.1306    0.5501 H   0  0  0  0  0  0  0  0  0  0  0  0
    1.8488    1.3479   -3.9278 H   0  0  0  0  0  0  0  0  0  0  0  0
    1.7012    2.8299   -3.4434 H   0  0  0  0  0  0  0  0  0  0  0  0
   -0.3479    1.8251   -3.5184 H   0  0  0  0  0  0  0  0  0  0  0  0
   -0.0048    2.2030   -2.0361 H   0  0  0  0  0  0  0  0  0  0  0  0
    0.1442    0.7192   -2.5204 H   0  0  0  0  0  0  0  0  0  0  0  0
    5.1910    1.6457   -2.0818 H   0  0  0  0  0  0  0  0  0  0  0  0
    4.5543    2.7533   -2.9883 H   0  0  0  0  0  0  0  0  0  0  0  0
    5.5918    1.1511   -4.3116 H   0  0  0  0  0  0  0  0  0  0  0  0
    4.0487    1.1459   -4.5894 H   0  0  0  0  0  0  0  0  0  0  0  0
    4.6865    0.0383   -3.6810 H   0  0  0  0  0  0  0  0  0  0  0  0
    4.0877    5.2837    1.0052 H   0  0  0  0  0  0  0  0  0  0  0  0
    4.4504    5.2750    3.6244 H   0  0  0  0  0  0  0  0  0  0  0  0
    4.3576    2.4782    4.3573 H   0  0  0  0  0  0  0  0  0  0  0  0
    3.2594    0.8690    2.4729 H   0  0  0  0  0  0  0  0  0  0  0  0
    5.6545    3.5335   -0.6689 H   0  0  0  0  0  0  0  0  0  0  0  0
    6.3847    5.2541    1.6340 H   0  0  0  0  0  0  0  0  0  0  0  0
    6.7074    3.3385    4.0100 H   0  0  0  0  0  0  0  0  0  0  0  0
    5.8725    0.7471    3.0797 H   0  0  0  0  0  0  0  0  0  0  0  0
    5.2200    0.9735    0.2486 H   0  0  0  0  0  0  0  0  0  0  0  0
    7.4783    2.3354    1.2483 H   0  0  0  0  0  0  0  0  0  0  0  0
    1.9487    2.4137   -0.2065 H   0  0  0  0  0  0  0  0  0  0  0  0
  1  2  1  0  0  0  0
  2 25  1  0  0  0  0
  3 17  1  0  0  0  0
  4  1  1  0  0  0  0
  5  1  1  0  0  0  0
  6  1  1  0  0  0  0
  7  1  1  0  0  0  0
  8  1  1  0  0  0  0
  9  4  1  0  0  0  0
 10  5  1  0  0  0  0
 11  6  1  0  0  0  0
 12  7  1  0  0  0  0
 13  4  1  0  0  0  0
 14  9  1  0  0  0  0
 15  1  1  0  0  0  0
 16 15  3  0  0  0  0
 17  4  1  0  0  0  0
 18 17  1  0  0  0  0
 19 18  4  0  0  0  0
 20 19  4  0  0  0  0
 21 20  4  0  0  0  0
 22 21  4  0  0  0  0
 23 18  4  0  0  0  0
 24 21  1  0  0  0  0
 25 26  4  0  0  0  0
 26 27  4  0  0  0  0
 27 28  4  0  0  0  0
 28 29  4  0  0  0  0
 29 30  4  0  0  0  0
 30 25  4  0  0  0  0
 31  2  1  0  0  0  0
 32 31  4  0  0  0  0
 33 32  4  0  0  0  0
 34 33  4  0  0  0  0
 35 34  4  0  0  0  0
 36 31  4  0  0  0  0
 37  2  1  0  0  0  0
 38 37  4  0  0  0  0
 39 38  4  0  0  0  0
 40 39  4  0  0  0  0
 41 40  4  0  0  0  0
 42 37  4  0  0  0  0
 43  3  1  0  0  0  0
 44 43  1  0  0  0  0
 45  3  1  0  0  0  0
 46 45  1  0  0  0  0
 47  3  1  0  0  0  0
 48 47  1  0  0  0  0
 49 19  1  0  0  0  0
 50 20  1  0  0  0  0
 51 22  1  0  0  0  0
 52 23  1  0  0  0  0
 53 24  1  0  0  0  0
 54 24  1  0  0  0  0
 55 24  1  0  0  0  0
 56 26  1  0  0  0  0
 57 27  1  0  0  0  0
 58 28  1  0  0  0  0
 59 29  1  0  0  0  0
 60 30  1  0  0  0  0
 61 32  1  0  0  0  0
 62 33  1  0  0  0  0
 63 34  1  0  0  0  0
 64 35  1  0  0  0  0
 65 36  1  0  0  0  0
 66 38  1  0  0  0  0
 67 39  1  0  0  0  0
 68 40  1  0  0  0  0
 69 41  1  0  0  0  0
 70 42  1  0  0  0  0
 71 43  1  0  0  0  0
 72 43  1  0  0  0  0
 73 44  1  0  0  0  0
 74 44  1  0  0  0  0
 75 44  1  0  0  0  0
 76 45  1  0  0  0  0
 77 45  1  0  0  0  0
 78 46  1  0  0  0  0
 79 46  1  0  0  0  0
 80 46  1  0  0  0  0
 81 47  1  0  0  0  0
 82 47  1  0  0  0  0
 83 48  1  0  0  0  0
 84 48  1  0  0  0  0
 85 48  1  0  0  0  0
 86  5  1  0  0  0  0
 87  6  1  0  0  0  0
 88  7  1  0  0  0  0
 89  8  1  0  0  0  0
 90  9  1  0  0  0  0
 91 10  1  0  0  0  0
 92 11  1  0  0  0  0
 93 12  1  0  0  0  0
 94 13  1  0  0  0  0
 95 14  1  0  0  0  0
 96 17  1  0  0  0  0
  4  5  1  0  0  0  0
  4  8  1  0  0  0  0
  5  6  1  0  0  0  0
  5  9  1  0  0  0  0
  6  7  1  0  0  0  0
  6 10  1  0  0  0  0
  7  8  1  0  0  0  0
  7 11  1  0  0  0  0
  8 12  1  0  0  0  0
  8 13  1  0  0  0  0
  9 10  1  0  0  0  0
  9 13  1  0  0  0  0
 10 11  1  0  0  0  0
 10 14  1  0  0  0  0
 11 12  1  0  0  0  0
 11 14  1  0  0  0  0
 12 13  1  0  0  0  0
 12 14  1  0  0  0  0
 13 14  1  0  0  0  0
 22 23  4  0  0  0  0
 35 36  4  0  0  0  0
 41 42  4  0  0  0  0
M  CHG  2   3   1  14  -1
M  END
$$$$
WEQGII

From CSD data. Using bond type 'Any'. No disordered atoms. Largest molecule.
 47 70  0  0  0  0  0  0  0  0999 V2000
    5.2755    3.2694    0.8662 Cr  0  0  0  0  0  0  0  0  0  0  0  0
    5.3018    4.8226    2.6236 P   0  0  0  0  0  0  0  0  0  0  0  0
    7.4459    3.9699    0.3100 P   0  0  0  0  0  0  0  0  0  0  0  0
    5.4636    1.0568   -1.1392 O   0  0  0  0  0  0  0  0  0  0  0  0
    2.3862    2.5837    1.2670 O   0  0  0  0  0  0  0  0  0  0  0  0
    4.2204    4.9701   -1.3709 O   0  0  0  0  0  0  0  0  0  0  0  0
    5.6816    1.0688    2.9319 O   0  0  0  0  0  0  0  0  0  0  0  0
    6.8954    5.8691    2.6060 C   0  0  0  0  0  0  0  0  0  0  0  0
    7.9542    5.4779    1.3501 C   0  0  0  0  0  0  0  0  0  0  0  0
    5.1365    3.9459    4.2181 C   0  0  0  0  0  0  0  0  0  0  0  0
    3.8445    3.5187    4.5073 C   0  0  0  0  0  0  0  0  0  0  0  0
    3.5886    2.7450    5.6098 C   0  0  0  0  0  0  0  0  0  0  0  0
    4.5975    2.3967    6.4678 C   0  0  0  0  0  0  0  0  0  0  0  0
    5.8826    2.8170    6.2345 C   0  0  0  0  0  0  0  0  0  0  0  0
    6.1401    3.6062    5.1081 C   0  0  0  0  0  0  0  0  0  0  0  0
    4.0284    6.1316    2.8456 C   0  0  0  0  0  0  0  0  0  0  0  0
    3.2438    6.5347    1.7751 C   0  0  0  0  0  0  0  0  0  0  0  0
    2.2729    7.5109    1.9812 C   0  0  0  0  0  0  0  0  0  0  0  0
    2.0654    8.0633    3.2099 C   0  0  0  0  0  0  0  0  0  0  0  0
    2.8467    7.6602    4.2645 C   0  0  0  0  0  0  0  0  0  0  0  0
    3.8146    6.7028    4.0903 C   0  0  0  0  0  0  0  0  0  0  0  0
    8.9260    2.9148    0.4937 C   0  0  0  0  0  0  0  0  0  0  0  0
    8.8617    1.7568    1.2367 C   0  0  0  0  0  0  0  0  0  0  0  0
   10.0017    0.9693    1.4204 C   0  0  0  0  0  0  0  0  0  0  0  0
   11.1758    1.3313    0.8292 C   0  0  0  0  0  0  0  0  0  0  0  0
   11.2439    2.4293    0.0639 C   0  0  0  0  0  0  0  0  0  0  0  0
   10.1195    3.2236   -0.1470 C   0  0  0  0  0  0  0  0  0  0  0  0
    7.5958    4.4657   -1.4620 C   0  0  0  0  0  0  0  0  0  0  0  0
    7.9449    3.4569   -2.3551 C   0  0  0  0  0  0  0  0  0  0  0  0
    7.9330    3.7074   -3.7340 C   0  0  0  0  0  0  0  0  0  0  0  0
    7.5471    4.9272   -4.2165 C   0  0  0  0  0  0  0  0  0  0  0  0
    7.1681    5.9257   -3.3489 C   0  0  0  0  0  0  0  0  0  0  0  0
    7.1972    5.6718   -1.9637 C   0  0  0  0  0  0  0  0  0  0  0  0
    5.4137    1.9163   -0.3867 C   0  0  0  0  0  0  0  0  0  0  0  0
    3.4919    2.8633    1.1392 C   0  0  0  0  0  0  0  0  0  0  0  0
    4.6633    4.3679   -0.4937 C   0  0  0  0  0  0  0  0  0  0  0  0
    5.6075    1.9352    2.1682 C   0  0  0  0  0  0  0  0  0  0  0  0
    6.9405    6.8933    1.2159 B   0  0  0  0  0  0  0  0  0  0  0  0
    6.8582    7.5727    2.8409 B   0  0  0  0  0  0  0  0  0  0  0  0
    7.7280    6.5004    3.9433 B   0  0  0  0  0  0  0  0  0  0  0  0
    8.3630    5.1159    2.9655 B   0  0  0  0  0  0  0  0  0  0  0  0
    8.7015    6.9053    0.7653 B   0  0  0  0  0  0  0  0  0  0  0  0
    8.0266    8.2589    1.6681 B   0  0  0  0  0  0  0  0  0  0  0  0
    8.4743    7.9878    3.3857 B   0  0  0  0  0  0  0  0  0  0  0  0
    9.4219    6.4644    3.4768 B   0  0  0  0  0  0  0  0  0  0  0  0
    9.5425    5.8571    1.8135 B   0  0  0  0  0  0  0  0  0  0  0  0
    9.5960    7.5606    2.0835 B   0  0  0  0  0  0  0  0  0  0  0  0
  1  2  1  0  0  0  0
  2  8  1  0  0  0  0
  3  1  1  0  0  0  0
  4 34  3  0  0  0  0
  5 35  3  0  0  0  0
  6 36  3  0  0  0  0
  7 37  3  0  0  0  0
  8  9  1  0  0  0  0
  9  3  1  0  0  0  0
 10  2  1  0  0  0  0
 11 10  4  0  0  0  0
 12 11  4  0  0  0  0
 13 12  4  0  0  0  0
 14 13  4  0  0  0  0
 15 10  4  0  0  0  0
 16  2  1  0  0  0  0
 17 16  4  0  0  0  0
 18 17  4  0  0  0  0
 19 18  4  0  0  0  0
 20 19  4  0  0  0  0
 21 16  4  0  0  0  0
 22  3  1  0  0  0  0
 23 22  4  0  0  0  0
 24 23  4  0  0  0  0
 25 24  4  0  0  0  0
 26 25  4  0  0  0  0
 27 22  4  0  0  0  0
 28  3  1  0  0  0  0
 29 28  4  0  0  0  0
 30 29  4  0  0  0  0
 31 30  4  0  0  0  0
 32 31  4  0  0  0  0
 33 28  4  0  0  0  0
 34  1  1  0  0  0  0
 35  1  1  0  0  0  0
 36  1  1  0  0  0  0
 37  1  1  0  0  0  0
 38  8  1  0  0  0  0
 39  8  1  0  0  0  0
 40  8  1  0  0  0  0
 41  8  1  0  0  0  0
 42  9  1  0  0  0  0
 43 38  1  0  0  0  0
 44 39  1  0  0  0  0
 45 40  1  0  0  0  0
 46  9  1  0  0  0  0
 47 42  1  0  0  0  0
  9 38  1  0  0  0  0
  9 41  1  0  0  0  0
 14 15  4  0  0  0  0
 20 21  4  0  0  0  0
 26 27  4  0  0  0  0
 32 33  4  0  0  0  0
 38 39  1  0  0  0  0
 38 42  1  0  0  0  0
 39 40  1  0  0  0  0
 39 43  1  0  0  0  0
 40 41  1  0  0  0  0
 40 44  1  0  0  0  0
 41 45  1  0  0  0  0
 41 46  1  0  0  0  0
 42 43  1  0  0  0  0
 42 46  1  0  0  0  0
 43 44  1  0  0  0  0
 43 47  1  0  0  0  0
 44 45  1  0  0  0  0
 44 47  1  0  0  0  0
 45 46  1  0  0  0  0
 45 47  1  0  0  0  0
 46 47  1  0  0  0  0
M  END
$$$$
WERFAB

From CSD data. Using bond type 'Any'. No disordered atoms. Largest molecule.
143194  0  0  0  0  0  0  0  0999 V2000
    3.5963   10.1836    6.7005 Mo  0  0  0  0  0  0  0  0  0  0  0  0
    1.9184   12.0645    5.7625 Cu  0  0  0  0  0  0  0  0  0  0  0  0
    4.2625   11.7381    8.8743 Cu  0  0  0  0  0  0  0  0  0  0  0  0
    2.2114   11.4301    7.9465 S   0  0  0  0  0  0  0  0  0  0  0  0
    5.4876   10.1242    7.7736 S   0  0  0  0  0  0  0  0  0  0  0  0
    3.8188   11.2465    4.7911 S   0  0  0  0  0  0  0  0  0  0  0  0
    1.1630   14.1059    5.2976 P   0  0  0  0  0  0  0  0  0  0  0  0
   -0.0336   11.1211    4.8504 P   0  0  0  0  0  0  0  0  0  0  0  0
    5.4236   13.7322    8.8755 P   0  0  0  0  0  0  0  0  0  0  0  0
    4.2324   11.7399   11.1461 P   0  0  0  0  0  0  0  0  0  0  0  0
    2.9765    8.6511    6.4599 O   0  0  0  0  0  0  0  0  0  0  0  0
   -1.5151   13.7029    3.8826 B   0  0  0  0  0  0  0  0  0  0  0  0
   -2.0580   13.8360    4.8299 H   0  0  0  0  0  0  0  0  0  0  0  0
   -0.8487   15.0493    3.0585 B   0  0  0  0  0  0  0  0  0  0  0  0
   -0.9799   16.0658    3.4585 H   0  0  0  0  0  0  0  0  0  0  0  0
    0.6647   14.5613    2.2315 B   0  0  0  0  0  0  0  0  0  0  0  0
    1.5096   15.2499    2.0872 H   0  0  0  0  0  0  0  0  0  0  0  0
    0.8720   12.8291    2.5924 B   0  0  0  0  0  0  0  0  0  0  0  0
    1.8787   12.4048    2.7247 H   0  0  0  0  0  0  0  0  0  0  0  0
   -0.4517   11.8820    1.8466 B   0  0  0  0  0  0  0  0  0  0  0  0
   -0.3353   10.8539    1.4766 H   0  0  0  0  0  0  0  0  0  0  0  0
   -1.9329   12.4665    2.6886 B   0  0  0  0  0  0  0  0  0  0  0  0
   -2.7874   11.7914    2.8420 H   0  0  0  0  0  0  0  0  0  0  0  0
   -2.1549   14.1523    2.3759 B   0  0  0  0  0  0  0  0  0  0  0  0
   -3.1707   14.5690    2.3037 H   0  0  0  0  0  0  0  0  0  0  0  0
   -0.8260   14.7426    1.3263 B   0  0  0  0  0  0  0  0  0  0  0  0
   -0.9540   15.5527    0.5955 H   0  0  0  0  0  0  0  0  0  0  0  0
    0.2443   13.2419    1.0376 B   0  0  0  0  0  0  0  0  0  0  0  0
    0.8212   13.0722    0.1173 H   0  0  0  0  0  0  0  0  0  0  0  0
   -1.4606   13.0837    1.0706 B   0  0  0  0  0  0  0  0  0  0  0  0
   -2.0047   12.8407    0.1444 H   0  0  0  0  0  0  0  0  0  0  0  0
    7.0738   12.0402   10.6523 B   0  0  0  0  0  0  0  0  0  0  0  0
    6.9519   11.2243    9.9275 H   0  0  0  0  0  0  0  0  0  0  0  0
    8.1577   13.4309   10.3906 B   0  0  0  0  0  0  0  0  0  0  0  0
    8.7794   13.5254    9.4884 H   0  0  0  0  0  0  0  0  0  0  0  0
    7.3768   14.8313   11.1696 B   0  0  0  0  0  0  0  0  0  0  0  0
    7.4939   15.8575   10.7906 H   0  0  0  0  0  0  0  0  0  0  0  0
    5.8414   14.2719   11.8282 B   0  0  0  0  0  0  0  0  0  0  0  0
    4.9384   14.8988   11.8462 H   0  0  0  0  0  0  0  0  0  0  0  0
    6.2827   13.0992   13.1695 B   0  0  0  0  0  0  0  0  0  0  0  0
    5.6968   12.9719   14.0898 H   0  0  0  0  0  0  0  0  0  0  0  0
    7.0333   11.7161   12.3455 B   0  0  0  0  0  0  0  0  0  0  0  0
    6.9252   10.6900   12.7244 H   0  0  0  0  0  0  0  0  0  0  0  0
    8.5693   12.3006   11.6026 B   0  0  0  0  0  0  0  0  0  0  0  0
    9.4632   11.6660   11.5094 H   0  0  0  0  0  0  0  0  0  0  0  0
    8.6653   14.0077   11.9274 B   0  0  0  0  0  0  0  0  0  0  0  0
    9.6458   14.4918   12.0507 H   0  0  0  0  0  0  0  0  0  0  0  0
    7.2369   14.5227   12.8597 B   0  0  0  0  0  0  0  0  0  0  0  0
    7.2498   15.3463   13.5905 H   0  0  0  0  0  0  0  0  0  0  0  0
    7.9864   12.9854   13.1725 B   0  0  0  0  0  0  0  0  0  0  0  0
    8.5178   12.7944   14.1168 H   0  0  0  0  0  0  0  0  0  0  0  0
    0.1711   13.8823    3.7262 C   0  0  0  0  0  0  0  0  0  0  0  0
   -0.5213   12.3527    3.5157 C   0  0  0  0  0  0  0  0  0  0  0  0
    6.4676   13.5814   10.3937 C   0  0  0  0  0  0  0  0  0  0  0  0
    5.8081   12.5919   11.5786 C   0  0  0  0  0  0  0  0  0  0  0  0
    2.3111   15.4428    4.9532 C   0  0  0  0  0  0  0  0  0  0  0  0
    1.9779   16.6618    4.3337 C   0  0  0  0  0  0  0  0  0  0  0  0
    1.1308   16.7814    3.9698 H   0  0  0  0  0  0  0  0  0  0  0  0
    2.8802   17.6494    4.2675 C   0  0  0  0  0  0  0  0  0  0  0  0
    2.6579   18.4461    3.8435 H   0  0  0  0  0  0  0  0  0  0  0  0
    4.0716   17.5106    4.7938 C   0  0  0  0  0  0  0  0  0  0  0  0
    4.6792   18.2127    4.7607 H   0  0  0  0  0  0  0  0  0  0  0  0
    4.4320   16.3050    5.4073 C   0  0  0  0  0  0  0  0  0  0  0  0
    5.2696   16.1989    5.7983 H   0  0  0  0  0  0  0  0  0  0  0  0
    3.4939   15.2672    5.4164 C   0  0  0  0  0  0  0  0  0  0  0  0
    3.7301   14.4378    5.7652 H   0  0  0  0  0  0  0  0  0  0  0  0
    0.0380   14.7657    6.5291 C   0  0  0  0  0  0  0  0  0  0  0  0
   -0.3756   13.9189    7.5095 C   0  0  0  0  0  0  0  0  0  0  0  0
   -0.0889   13.0336    7.5005 H   0  0  0  0  0  0  0  0  0  0  0  0
   -1.2330   14.3645    8.5381 C   0  0  0  0  0  0  0  0  0  0  0  0
   -1.4960   13.7781    9.2117 H   0  0  0  0  0  0  0  0  0  0  0  0
   -1.6703   15.6415    8.5441 C   0  0  0  0  0  0  0  0  0  0  0  0
   -2.2189   15.9501    9.2298 H   0  0  0  0  0  0  0  0  0  0  0  0
   -1.2958   16.4612    7.5366 C   0  0  0  0  0  0  0  0  0  0  0  0
   -1.6241   17.3331    7.5186 H   0  0  0  0  0  0  0  0  0  0  0  0
   -0.4410   16.0484    6.5291 C   0  0  0  0  0  0  0  0  0  0  0  0
   -0.1921   16.6406    5.8555 H   0  0  0  0  0  0  0  0  0  0  0  0
   -0.0124    9.5751    3.9518 C   0  0  0  0  0  0  0  0  0  0  0  0
    1.2569    9.1141    3.5518 C   0  0  0  0  0  0  0  0  0  0  0  0
    2.0260    9.6021    3.7412 H   0  0  0  0  0  0  0  0  0  0  0  0
    1.3284    7.8931    2.8571 C   0  0  0  0  0  0  0  0  0  0  0  0
    2.1467    7.5555    2.5744 H   0  0  0  0  0  0  0  0  0  0  0  0
    0.1078    7.1794    2.5984 C   0  0  0  0  0  0  0  0  0  0  0  0
    0.1385    6.3634    2.1533 H   0  0  0  0  0  0  0  0  0  0  0  0
   -1.0377    7.6597    2.9804 C   0  0  0  0  0  0  0  0  0  0  0  0
   -1.8124    7.1871    2.7789 H   0  0  0  0  0  0  0  0  0  0  0  0
   -1.1433    8.8363    3.6691 C   0  0  0  0  0  0  0  0  0  0  0  0
   -1.9780    9.1391    3.9487 H   0  0  0  0  0  0  0  0  0  0  0  0
   -1.0192   10.3177    7.2178 C   0  0  0  0  0  0  0  0  0  0  0  0
   -0.1380   10.0476    7.3351 H   0  0  0  0  0  0  0  0  0  0  0  0
   -1.8964   10.1016    8.2163 C   0  0  0  0  0  0  0  0  0  0  0  0
   -1.6254    9.6889    9.0042 H   0  0  0  0  0  0  0  0  0  0  0  0
   -3.1729   10.4971    8.0509 C   0  0  0  0  0  0  0  0  0  0  0  0
   -3.7916   10.3717    8.7336 H   0  0  0  0  0  0  0  0  0  0  0  0
   -3.5516   11.0700    6.9020 C   0  0  0  0  0  0  0  0  0  0  0  0
   -4.4434   11.3188    6.8088 H   0  0  0  0  0  0  0  0  0  0  0  0
   -2.7267   11.3072    5.8825 C   0  0  0  0  0  0  0  0  0  0  0  0
   -3.0405   11.7104    5.1036 H   0  0  0  0  0  0  0  0  0  0  0  0
    4.3923   15.1862    9.0764 C   0  0  0  0  0  0  0  0  0  0  0  0
    3.0800   14.9953    9.1426 C   0  0  0  0  0  0  0  0  0  0  0  0
    2.7567   14.1234    9.1636 H   0  0  0  0  0  0  0  0  0  0  0  0
    2.2080   16.0022    9.1756 C   0  0  0  0  0  0  0  0  0  0  0  0
    1.2920   15.8478    9.1967 H   0  0  0  0  0  0  0  0  0  0  0  0
    2.7223   17.2868    9.1817 C   0  0  0  0  0  0  0  0  0  0  0  0
    2.1399   18.0063    9.2779 H   0  0  0  0  0  0  0  0  0  0  0  0
    3.9863   17.5163    9.0553 C   0  0  0  0  0  0  0  0  0  0  0  0
    4.2838   18.3940    8.9802 H   0  0  0  0  0  0  0  0  0  0  0  0
    4.8949   16.5017    9.0283 C   0  0  0  0  0  0  0  0  0  0  0  0
    5.8076   16.6696    8.9802 H   0  0  0  0  0  0  0  0  0  0  0  0
    6.5767   14.1697    7.5486 C   0  0  0  0  0  0  0  0  0  0  0  0
    7.4896   15.1650    7.5155 C   0  0  0  0  0  0  0  0  0  0  0  0
    7.6294   15.6762    8.2794 H   0  0  0  0  0  0  0  0  0  0  0  0
    8.1814   15.4254    6.4419 C   0  0  0  0  0  0  0  0  0  0  0  0
    8.7702   16.1430    6.4630 H   0  0  0  0  0  0  0  0  0  0  0  0
    8.0928   14.7194    5.3111 C   0  0  0  0  0  0  0  0  0  0  0  0
    8.6143   14.9355    4.5713 H   0  0  0  0  0  0  0  0  0  0  0  0
    7.2089   13.6663    5.2720 C   0  0  0  0  0  0  0  0  0  0  0  0
    7.1265   13.1686    4.4901 H   0  0  0  0  0  0  0  0  0  0  0  0
    6.4429   13.3383    6.3667 C   0  0  0  0  0  0  0  0  0  0  0  0
    5.8629   12.6111    6.3487 H   0  0  0  0  0  0  0  0  0  0  0  0
    4.2304   10.1711   12.0447 C   0  0  0  0  0  0  0  0  0  0  0  0
    4.4631    9.0427   11.3650 C   0  0  0  0  0  0  0  0  0  0  0  0
    4.6761    9.0716   10.4628 H   0  0  0  0  0  0  0  0  0  0  0  0
    4.3847    7.8294   12.0297 C   0  0  0  0  0  0  0  0  0  0  0  0
    4.4989    7.0482   11.5395 H   0  0  0  0  0  0  0  0  0  0  0  0
    4.1620    7.7349   13.2718 C   0  0  0  0  0  0  0  0  0  0  0  0
    4.0957    6.8997   13.6747 H   0  0  0  0  0  0  0  0  0  0  0  0
    4.0144    8.9385   14.0537 C   0  0  0  0  0  0  0  0  0  0  0  0
    3.9291    8.9096   14.9770 H   0  0  0  0  0  0  0  0  0  0  0  0
    4.0071   10.0901   13.3921 C   0  0  0  0  0  0  0  0  0  0  0  0
    3.8430   10.8732   13.8642 H   0  0  0  0  0  0  0  0  0  0  0  0
    2.8445   12.5861   11.9094 C   0  0  0  0  0  0  0  0  0  0  0  0
    2.8413   13.3981   13.0582 C   0  0  0  0  0  0  0  0  0  0  0  0
    3.6397   13.6103   13.4823 H   0  0  0  0  0  0  0  0  0  0  0  0
    1.6797   13.8669   13.5304 C   0  0  0  0  0  0  0  0  0  0  0  0
    1.6931   14.4725   14.2341 H   0  0  0  0  0  0  0  0  0  0  0  0
    0.5086   13.4927   13.0251 C   0  0  0  0  0  0  0  0  0  0  0  0
   -0.2779   13.7241   13.4642 H   0  0  0  0  0  0  0  0  0  0  0  0
    0.4503   12.7790   11.8793 C   0  0  0  0  0  0  0  0  0  0  0  0
   -0.3707   12.6285   11.4703 H   0  0  0  0  0  0  0  0  0  0  0  0
    1.6323   12.2601   11.2929 C   0  0  0  0  0  0  0  0  0  0  0  0
    1.6022   11.7277   10.5320 H   0  0  0  0  0  0  0  0  0  0  0  0
   -1.3712   10.9369    5.9938 C   0  0  0  0  0  0  0  0  0  0  0  0
  1  2  1  0  0  0  0
  2  4  1  0  0  0  0
  3  1  1  0  0  0  0
  4  1  1  0  0  0  0
  5  1  1  0  0  0  0
  6  1  1  0  0  0  0
  7  2  1  0  0  0  0
  8  2  1  0  0  0  0
  9  3  1  0  0  0  0
 10  3  1  0  0  0  0
 11  1  2  0  0  0  0
 12 13  1  0  0  0  0
 14 12  1  0  0  0  0
 15 14  1  0  0  0  0
 16 14  1  0  0  0  0
 17 16  1  0  0  0  0
 18 16  1  0  0  0  0
 19 18  1  0  0  0  0
 20 18  1  0  0  0  0
 21 20  1  0  0  0  0
 22 12  1  0  0  0  0
 23 22  1  0  0  0  0
 24 12  1  0  0  0  0
 25 24  1  0  0  0  0
 26 14  1  0  0  0  0
 27 26  1  0  0  0  0
 28 16  1  0  0  0  0
 29 28  1  0  0  0  0
 30 20  1  0  0  0  0
 31 30  1  0  0  0  0
 32 33  1  0  0  0  0
 34 32  1  0  0  0  0
 35 34  1  0  0  0  0
 36 34  1  0  0  0  0
 37 36  1  0  0  0  0
 38 36  1  0  0  0  0
 39 38  1  0  0  0  0
 40 38  1  0  0  0  0
 41 40  1  0  0  0  0
 42 32  1  0  0  0  0
 43 42  1  0  0  0  0
 44 32  1  0  0  0  0
 45 44  1  0  0  0  0
 46 34  1  0  0  0  0
 47 46  1  0  0  0  0
 48 36  1  0  0  0  0
 49 48  1  0  0  0  0
 50 40  1  0  0  0  0
 51 50  1  0  0  0  0
 52  7  1  0  0  0  0
 53  8  1  0  0  0  0
 54  9  1  0  0  0  0
 55 10  1  0  0  0  0
 56  7  1  0  0  0  0
 57 56  4  0  0  0  0
 58 57  1  0  0  0  0
 59 57  4  0  0  0  0
 60 59  1  0  0  0  0
 61 59  4  0  0  0  0
 62 61  1  0  0  0  0
 63 61  4  0  0  0  0
 64 63  1  0  0  0  0
 65 56  4  0  0  0  0
 66 65  1  0  0  0  0
 67  7  1  0  0  0  0
 68 67  4  0  0  0  0
 69 68  1  0  0  0  0
 70 68  4  0  0  0  0
 71 70  1  0  0  0  0
 72 70  4  0  0  0  0
 73 72  1  0  0  0  0
 74 72  4  0  0  0  0
 75 74  1  0  0  0  0
 76 67  4  0  0  0  0
 77 76  1  0  0  0  0
 78  8  1  0  0  0  0
 79 78  4  0  0  0  0
 80 79  1  0  0  0  0
 81 79  4  0  0  0  0
 82 81  1  0  0  0  0
 83 81  4  0  0  0  0
 84 83  1  0  0  0  0
 85 83  4  0  0  0  0
 86 85  1  0  0  0  0
 87 78  4  0  0  0  0
 88 87  1  0  0  0  0
 89 90  1  0  0  0  0
 91 89  4  0  0  0  0
 92 91  1  0  0  0  0
 93 91  4  0  0  0  0
 94 93  1  0  0  0  0
 95 93  4  0  0  0  0
 96 95  1  0  0  0  0
 97 95  4  0  0  0  0
 98 97  1  0  0  0  0
 99  9  1  0  0  0  0
100 99  4  0  0  0  0
101100  1  0  0  0  0
102100  4  0  0  0  0
103102  1  0  0  0  0
104102  4  0  0  0  0
105104  1  0  0  0  0
106104  4  0  0  0  0
107106  1  0  0  0  0
108 99  4  0  0  0  0
109108  1  0  0  0  0
110  9  1  0  0  0  0
111110  4  0  0  0  0
112111  1  0  0  0  0
113111  4  0  0  0  0
114113  1  0  0  0  0
115113  4  0  0  0  0
116115  1  0  0  0  0
117115  4  0  0  0  0
118117  1  0  0  0  0
119110  4  0  0  0  0
120119  1  0  0  0  0
121 10  1  0  0  0  0
122121  4  0  0  0  0
123122  1  0  0  0  0
124122  4  0  0  0  0
125124  1  0  0  0  0
126124  4  0  0  0  0
127126  1  0  0  0  0
128126  4  0  0  0  0
129128  1  0  0  0  0
130121  4  0  0  0  0
131130  1  0  0  0  0
132 10  1  0  0  0  0
133132  4  0  0  0  0
134133  1  0  0  0  0
135133  4  0  0  0  0
136135  1  0  0  0  0
137135  4  0  0  0  0
138137  1  0  0  0  0
139137  4  0  0  0  0
140139  1  0  0  0  0
141132  4  0  0  0  0
142141  1  0  0  0  0
143  8  1  0  0  0  0
  2  6  1  0  0  0  0
  3  4  1  0  0  0  0
  3  5  1  0  0  0  0
 12 52  1  0  0  0  0
 12 53  1  0  0  0  0
 14 24  1  0  0  0  0
 14 52  1  0  0  0  0
 16 26  1  0  0  0  0
 16 52  1  0  0  0  0
 18 28  1  0  0  0  0
 18 52  1  0  0  0  0
 18 53  1  0  0  0  0
 20 22  1  0  0  0  0
 20 28  1  0  0  0  0
 20 53  1  0  0  0  0
 22 24  1  0  0  0  0
 22 30  1  0  0  0  0
 22 53  1  0  0  0  0
 24 26  1  0  0  0  0
 24 30  1  0  0  0  0
 26 28  1  0  0  0  0
 26 30  1  0  0  0  0
 28 30  1  0  0  0  0
 32 54  1  0  0  0  0
 32 55  1  0  0  0  0
 34 44  1  0  0  0  0
 34 54  1  0  0  0  0
 36 46  1  0  0  0  0
 36 54  1  0  0  0  0
 38 48  1  0  0  0  0
 38 54  1  0  0  0  0
 38 55  1  0  0  0  0
 40 42  1  0  0  0  0
 40 48  1  0  0  0  0
 40 55  1  0  0  0  0
 42 44  1  0  0  0  0
 42 50  1  0  0  0  0
 42 55  1  0  0  0  0
 44 46  1  0  0  0  0
 44 50  1  0  0  0  0
 46 48  1  0  0  0  0
 46 50  1  0  0  0  0
 48 50  1  0  0  0  0
 52 53  1  0  0  0  0
 54 55  1  0  0  0  0
 63 65  4  0  0  0  0
 74 76  4  0  0  0  0
 85 87  4  0  0  0  0
 89143  4  0  0  0  0
 97143  4  0  0  0  0
106108  4  0  0  0  0
117119  4  0  0  0  0
128130  4  0  0  0  0
139141  4  0  0  0  0
M  END
$$$$
WERFAB01

From CSD data. Using bond type 'Any'. Matching problem. Disorder unknown. Sizes unknown.
  0  0  0  0  0  0  0  0  0  0999 V2000
M  END
$$$$
WEXFUB

From CSD data. Using bond type 'Any'. No disordered atoms. Largest molecule.
152158  0  0  0  0  0  0  0  0999 V2000
    4.3507    6.3981    5.3126 Mo  0  0  0  0  0  0  0  0  0  0  0  0
    3.4184    4.5565    5.4970 H   0  0  0  0  0  0  0  0  0  0  0  0
    5.5907   10.6307    3.6716 Li  0  0  0  0  0  0  0  0  0  0  0  0
    6.5022   10.8997    1.5931 B   0  0  0  0  0  0  0  0  0  0  0  0
    5.7463   11.5826    2.2652 H   0  0  0  0  0  0  0  0  0  0  0  0
    3.1085    6.9663    7.3413 P   0  0  0  0  0  0  0  0  0  0  0  0
    5.8888    5.4987    7.0034 P   0  0  0  0  0  0  0  0  0  0  0  0
    2.5478    6.6632    3.7004 P   0  0  0  0  0  0  0  0  0  0  0  0
    5.3334    5.2160    3.4090 P   0  0  0  0  0  0  0  0  0  0  0  0
    5.0922    7.9747    5.0927 N   0  0  0  0  0  0  0  0  0  0  0  0
    5.5374    9.1514    4.9392 O   0  0  0  0  0  0  0  0  0  0  0  0
    3.8924    6.1482    8.7911 C   0  0  0  0  0  0  0  0  0  0  0  0
    3.6339    6.6244    9.6188 H   0  0  0  0  0  0  0  0  0  0  0  0
    3.5664    5.2150    8.8596 H   0  0  0  0  0  0  0  0  0  0  0  0
    5.4299    6.1473    8.6563 C   0  0  0  0  0  0  0  0  0  0  0  0
    5.8287    5.5794    9.3636 H   0  0  0  0  0  0  0  0  0  0  0  0
    5.7768    7.0676    8.7662 H   0  0  0  0  0  0  0  0  0  0  0  0
    1.3605    6.5244    7.6378 C   0  0  0  0  0  0  0  0  0  0  0  0
    1.1198    6.7439    8.5629 H   0  0  0  0  0  0  0  0  0  0  0  0
    1.2357    5.5638    7.4863 H   0  0  0  0  0  0  0  0  0  0  0  0
    0.7873    7.0281    7.0238 H   0  0  0  0  0  0  0  0  0  0  0  0
    3.1389    8.7337    7.7851 C   0  0  0  0  0  0  0  0  0  0  0  0
    2.6917    9.2534    7.0839 H   0  0  0  0  0  0  0  0  0  0  0  0
    4.0679    9.0330    7.8701 H   0  0  0  0  0  0  0  0  0  0  0  0
    2.6719    8.8639    8.6355 H   0  0  0  0  0  0  0  0  0  0  0  0
    5.9210    3.7047    7.3328 C   0  0  0  0  0  0  0  0  0  0  0  0
    6.3710    3.2446    6.5923 H   0  0  0  0  0  0  0  0  0  0  0  0
    5.0024    3.3709    7.4117 H   0  0  0  0  0  0  0  0  0  0  0  0
    6.4043    3.5331    8.1667 H   0  0  0  0  0  0  0  0  0  0  0  0
    7.6534    5.9208    6.9346 C   0  0  0  0  0  0  0  0  0  0  0  0
    8.0878    5.6456    7.7705 H   0  0  0  0  0  0  0  0  0  0  0  0
    7.7530    6.8883    6.8184 H   0  0  0  0  0  0  0  0  0  0  0  0
    8.0712    5.4565    6.1816 H   0  0  0  0  0  0  0  0  0  0  0  0
    2.8474    5.5639    2.2382 C   0  0  0  0  0  0  0  0  0  0  0  0
    2.4921    4.6595    2.4291 H   0  0  0  0  0  0  0  0  0  0  0  0
    2.3633    5.9229    1.4541 H   0  0  0  0  0  0  0  0  0  0  0  0
    4.3019    5.4666    1.9188 C   0  0  0  0  0  0  0  0  0  0  0  0
    4.5884    6.2962    1.4624 H   0  0  0  0  0  0  0  0  0  0  0  0
    4.4464    4.7115    1.2965 H   0  0  0  0  0  0  0  0  0  0  0  0
    0.7862    6.2910    4.0388 C   0  0  0  0  0  0  0  0  0  0  0  0
    0.4339    6.9348    4.6880 H   0  0  0  0  0  0  0  0  0  0  0  0
    0.7072    5.3840    4.4018 H   0  0  0  0  0  0  0  0  0  0  0  0
    0.2727    6.3546    3.2049 H   0  0  0  0  0  0  0  0  0  0  0  0
    2.4012    8.3089    2.9497 C   0  0  0  0  0  0  0  0  0  0  0  0
    1.8192    8.2580    2.1615 H   0  0  0  0  0  0  0  0  0  0  0  0
    3.2888    8.6252    2.6780 H   0  0  0  0  0  0  0  0  0  0  0  0
    2.0167    8.9323    3.5990 H   0  0  0  0  0  0  0  0  0  0  0  0
    5.4744    3.4083    3.4621 C   0  0  0  0  0  0  0  0  0  0  0  0
    5.8989    3.0880    2.6407 H   0  0  0  0  0  0  0  0  0  0  0  0
    4.5818    3.0132    3.5451 H   0  0  0  0  0  0  0  0  0  0  0  0
    6.0186    3.1458    4.2338 H   0  0  0  0  0  0  0  0  0  0  0  0
    6.9831    5.7797    2.8253 C   0  0  0  0  0  0  0  0  0  0  0  0
    7.6686    5.5060    3.4704 H   0  0  0  0  0  0  0  0  0  0  0  0
    6.9841    6.7569    2.7423 H   0  0  0  0  0  0  0  0  0  0  0  0
    7.1752    5.3785    1.9520 H   0  0  0  0  0  0  0  0  0  0  0  0
    3.7044   14.3669    5.4186 Mo  0  0  0  0  0  0  0  0  0  0  0  0
    2.6955   15.9220    5.4141 H   0  0  0  0  0  0  0  0  0  0  0  0
    5.9793   10.4140    6.3496 Li  0  0  0  0  0  0  0  0  0  0  0  0
    7.3358   10.2697    8.1854 B   0  0  0  0  0  0  0  0  0  0  0  0
    6.5113    9.5367    7.7436 H   0  0  0  0  0  0  0  0  0  0  0  0
    2.4183   14.0160    7.4716 P   0  0  0  0  0  0  0  0  0  0  0  0
    5.1329   15.5657    7.0065 P   0  0  0  0  0  0  0  0  0  0  0  0
    1.9757   13.7256    3.8181 P   0  0  0  0  0  0  0  0  0  0  0  0
    4.6213   15.3943    3.4048 P   0  0  0  0  0  0  0  0  0  0  0  0
    4.6445   12.8759    5.3166 N   0  0  0  0  0  0  0  0  0  0  0  0
    5.2635   11.7614    5.2160 O   0  0  0  0  0  0  0  0  0  0  0  0
    3.1270   15.0492    8.8388 C   0  0  0  0  0  0  0  0  0  0  0  0
    2.7550   15.9646    8.7890 H   0  0  0  0  0  0  0  0  0  0  0  0
    2.8698   14.6611    9.7142 H   0  0  0  0  0  0  0  0  0  0  0  0
    4.6478   15.1091    8.7372 C   0  0  0  0  0  0  0  0  0  0  0  0
    5.0345   14.2288    8.9716 H   0  0  0  0  0  0  0  0  0  0  0  0
    5.0006   15.7823    9.3719 H   0  0  0  0  0  0  0  0  0  0  0  0
    0.6180   14.4051    7.6233 C   0  0  0  0  0  0  0  0  0  0  0  0
    0.0986   13.7580    7.1005 H   0  0  0  0  0  0  0  0  0  0  0  0
    0.4495   15.3089    7.2831 H   0  0  0  0  0  0  0  0  0  0  0  0
    0.3503   14.3546    8.5629 H   0  0  0  0  0  0  0  0  0  0  0  0
    2.4967   12.3440    8.1958 C   0  0  0  0  0  0  0  0  0  0  0  0
    2.1817   12.3753    9.1230 H   0  0  0  0  0  0  0  0  0  0  0  0
    3.4226   12.0233    8.1771 H   0  0  0  0  0  0  0  0  0  0  0  0
    1.9288   11.7361    7.6793 H   0  0  0  0  0  0  0  0  0  0  0  0
    6.9362   15.2233    7.0570 C   0  0  0  0  0  0  0  0  0  0  0  0
    7.3514   15.5407    6.2272 H   0  0  0  0  0  0  0  0  0  0  0  0
    7.0827   14.2591    7.1482 H   0  0  0  0  0  0  0  0  0  0  0  0
    7.3358   15.6889    7.8203 H   0  0  0  0  0  0  0  0  0  0  0  0
    5.0742   17.3808    7.0611 C   0  0  0  0  0  0  0  0  0  0  0  0
    5.5279   17.6984    7.8701 H   0  0  0  0  0  0  0  0  0  0  0  0
    4.1406   17.6783    7.0715 H   0  0  0  0  0  0  0  0  0  0  0  0
    5.5241   17.7472    6.2708 H   0  0  0  0  0  0  0  0  0  0  0  0
    2.2384   14.5926    2.2341 C   0  0  0  0  0  0  0  0  0  0  0  0
    1.7983   14.0871    1.5060 H   0  0  0  0  0  0  0  0  0  0  0  0
    1.8221   15.4906    2.2776 H   0  0  0  0  0  0  0  0  0  0  0  0
    3.7490   14.7418    1.9167 C   0  0  0  0  0  0  0  0  0  0  0  0
    3.8727   15.3630    1.1554 H   0  0  0  0  0  0  0  0  0  0  0  0
    4.1272   13.8615    1.6636 H   0  0  0  0  0  0  0  0  0  0  0  0
    0.1782   13.9990    4.0699 C   0  0  0  0  0  0  0  0  0  0  0  0
   -0.3048   13.7750    3.2484 H   0  0  0  0  0  0  0  0  0  0  0  0
    0.0194   14.9395    4.2960 H   0  0  0  0  0  0  0  0  0  0  0  0
   -0.1394   13.4293    4.8021 H   0  0  0  0  0  0  0  0  0  0  0  0
    1.9828   11.9561    3.3314 C   0  0  0  0  0  0  0  0  0  0  0  0
    1.3719   11.8230    2.5763 H   0  0  0  0  0  0  0  0  0  0  0  0
    1.6906   11.4078    4.0886 H   0  0  0  0  0  0  0  0  0  0  0  0
    2.8897   11.6931    3.0680 H   0  0  0  0  0  0  0  0  0  0  0  0
    6.3830   15.1239    2.9912 C   0  0  0  0  0  0  0  0  0  0  0  0
    6.5301   15.3220    2.0432 H   0  0  0  0  0  0  0  0  0  0  0  0
    6.6207   14.1905    3.1717 H   0  0  0  0  0  0  0  0  0  0  0  0
    6.9415   15.7153    3.5388 H   0  0  0  0  0  0  0  0  0  0  0  0
    4.4618   17.1984    3.1841 C   0  0  0  0  0  0  0  0  0  0  0  0
    5.0122   17.6581    3.8521 H   0  0  0  0  0  0  0  0  0  0  0  0
    3.5240   17.4592    3.3003 H   0  0  0  0  0  0  0  0  0  0  0  0
    4.7625   17.4453    2.2859 H   0  0  0  0  0  0  0  0  0  0  0  0
    5.6698    9.5588    1.2218 C   0  0  0  0  0  0  0  0  0  0  0  0
    6.2803    8.9103    0.7883 H   0  0  0  0  0  0  0  0  0  0  0  0
    5.3340    9.1466    2.0557 H   0  0  0  0  0  0  0  0  0  0  0  0
    4.4394    9.8389    0.2510 C   0  0  0  0  0  0  0  0  0  0  0  0
    3.8192   10.4641    0.6804 H   0  0  0  0  0  0  0  0  0  0  0  0
    3.9754    8.9971    0.0602 H   0  0  0  0  0  0  0  0  0  0  0  0
    4.7669   10.2293   -0.5870 H   0  0  0  0  0  0  0  0  0  0  0  0
    7.0638   11.6389    0.2634 C   0  0  0  0  0  0  0  0  0  0  0  0
    7.4531   10.9431   -0.3236 H   0  0  0  0  0  0  0  0  0  0  0  0
    6.2880   12.0225   -0.2157 H   0  0  0  0  0  0  0  0  0  0  0  0
    8.0939   12.7351    0.4190 C   0  0  0  0  0  0  0  0  0  0  0  0
    7.7136   13.4682    0.9459 H   0  0  0  0  0  0  0  0  0  0  0  0
    8.3527   13.0678   -0.4647 H   0  0  0  0  0  0  0  0  0  0  0  0
    8.8835   12.3781    0.8775 H   0  0  0  0  0  0  0  0  0  0  0  0
    7.7123   10.5968    2.6282 C   0  0  0  0  0  0  0  0  0  0  0  0
    8.1737   11.4455    2.8419 H   0  0  0  0  0  0  0  0  0  0  0  0
    7.3352   10.2369    3.4704 H   0  0  0  0  0  0  0  0  0  0  0  0
    8.7549    9.5783    2.0619 C   0  0  0  0  0  0  0  0  0  0  0  0
    8.2905    8.7733    1.7528 H   0  0  0  0  0  0  0  0  0  0  0  0
    9.3923    9.3387    2.7651 H   0  0  0  0  0  0  0  0  0  0  0  0
    9.2349    9.9878    1.3110 H   0  0  0  0  0  0  0  0  0  0  0  0
    8.1415    9.4187    9.2890 C   0  0  0  0  0  0  0  0  0  0  0  0
    7.5022    9.1310    9.9880 H   0  0  0  0  0  0  0  0  0  0  0  0
    8.4946    8.6024    8.8554 H   0  0  0  0  0  0  0  0  0  0  0  0
    9.3175   10.1464    9.9818 C   0  0  0  0  0  0  0  0  0  0  0  0
    9.9666   10.4338    9.3056 H   0  0  0  0  0  0  0  0  0  0  0  0
    9.7516    9.5373   10.6145 H   0  0  0  0  0  0  0  0  0  0  0  0
    8.9793   10.9299   10.4630 H   0  0  0  0  0  0  0  0  0  0  0  0
    6.5687   11.5720    8.7994 C   0  0  0  0  0  0  0  0  0  0  0  0
    7.2517   12.2496    9.0380 H   0  0  0  0  0  0  0  0  0  0  0  0
    6.0025   11.9620    8.0858 H   0  0  0  0  0  0  0  0  0  0  0  0
    5.6793   11.3243   10.0419 C   0  0  0  0  0  0  0  0  0  0  0  0
    4.9725   10.6858    9.8158 H   0  0  0  0  0  0  0  0  0  0  0  0
    5.2769   12.1704   10.3303 H   0  0  0  0  0  0  0  0  0  0  0  0
    6.2281   10.9603   10.7700 H   0  0  0  0  0  0  0  0  0  0  0  0
    8.3058   10.7830    6.9387 C   0  0  0  0  0  0  0  0  0  0  0  0
    7.7369   11.2582    6.2811 H   0  0  0  0  0  0  0  0  0  0  0  0
    8.9520   11.4398    7.2997 H   0  0  0  0  0  0  0  0  0  0  0  0
    9.0918    9.7001    6.1919 C   0  0  0  0  0  0  0  0  0  0  0  0
    9.7504    9.3000    6.7977 H   0  0  0  0  0  0  0  0  0  0  0  0
    9.5534   10.1011    5.4265 H   0  0  0  0  0  0  0  0  0  0  0  0
    8.4747    9.0075    5.8766 H   0  0  0  0  0  0  0  0  0  0  0  0
  1  2  1  0  0  0  0
  3  4  1  0  0  0  0
  4  5  1  0  0  0  0
  5  3  1  0  0  0  0
  6  1  1  0  0  0  0
  7  1  1  0  0  0  0
  8  1  1  0  0  0  0
  9  1  1  0  0  0  0
 10  1  1  0  0  0  0
 11  3  1  0  0  0  0
 12  6  1  0  0  0  0
 13 12  1  0  0  0  0
 14 12  1  0  0  0  0
 15  7  1  0  0  0  0
 16 15  1  0  0  0  0
 17 15  1  0  0  0  0
 18  6  1  0  0  0  0
 19 18  1  0  0  0  0
 20 18  1  0  0  0  0
 21 18  1  0  0  0  0
 22  6  1  0  0  0  0
 23 22  1  0  0  0  0
 24 22  1  0  0  0  0
 25 22  1  0  0  0  0
 26  7  1  0  0  0  0
 27 26  1  0  0  0  0
 28 26  1  0  0  0  0
 29 26  1  0  0  0  0
 30  7  1  0  0  0  0
 31 30  1  0  0  0  0
 32 30  1  0  0  0  0
 33 30  1  0  0  0  0
 34  8  1  0  0  0  0
 35 34  1  0  0  0  0
 36 34  1  0  0  0  0
 37  9  1  0  0  0  0
 38 37  1  0  0  0  0
 39 37  1  0  0  0  0
 40  8  1  0  0  0  0
 41 40  1  0  0  0  0
 42 40  1  0  0  0  0
 43 40  1  0  0  0  0
 44  8  1  0  0  0  0
 45 44  1  0  0  0  0
 46 44  1  0  0  0  0
 47 44  1  0  0  0  0
 48  9  1  0  0  0  0
 49 48  1  0  0  0  0
 50 48  1  0  0  0  0
 51 48  1  0  0  0  0
 52  9  1  0  0  0  0
 53 52  1  0  0  0  0
 54 52  1  0  0  0  0
 55 52  1  0  0  0  0
 56 57  1  0  0  0  0
 58 11  1  0  0  0  0
 59 58  1  0  0  0  0
 60 58  1  0  0  0  0
 61 56  1  0  0  0  0
 62 56  1  0  0  0  0
 63 56  1  0  0  0  0
 64 56  1  0  0  0  0
 65 56  1  0  0  0  0
 66  3  1  0  0  0  0
 67 61  1  0  0  0  0
 68 67  1  0  0  0  0
 69 67  1  0  0  0  0
 70 62  1  0  0  0  0
 71 70  1  0  0  0  0
 72 70  1  0  0  0  0
 73 61  1  0  0  0  0
 74 73  1  0  0  0  0
 75 73  1  0  0  0  0
 76 73  1  0  0  0  0
 77 61  1  0  0  0  0
 78 77  1  0  0  0  0
 79 77  1  0  0  0  0
 80 77  1  0  0  0  0
 81 62  1  0  0  0  0
 82 81  1  0  0  0  0
 83 81  1  0  0  0  0
 84 81  1  0  0  0  0
 85 62  1  0  0  0  0
 86 85  1  0  0  0  0
 87 85  1  0  0  0  0
 88 85  1  0  0  0  0
 89 63  1  0  0  0  0
 90 89  1  0  0  0  0
 91 89  1  0  0  0  0
 92 64  1  0  0  0  0
 93 92  1  0  0  0  0
 94 92  1  0  0  0  0
 95 63  1  0  0  0  0
 96 95  1  0  0  0  0
 97 95  1  0  0  0  0
 98 95  1  0  0  0  0
 99 63  1  0  0  0  0
100 99  1  0  0  0  0
101 99  1  0  0  0  0
102 99  1  0  0  0  0
103 64  1  0  0  0  0
104103  1  0  0  0  0
105103  1  0  0  0  0
106103  1  0  0  0  0
107 64  1  0  0  0  0
108107  1  0  0  0  0
109107  1  0  0  0  0
110107  1  0  0  0  0
111  4  1  0  0  0  0
112111  1  0  0  0  0
113111  1  0  0  0  0
114111  1  0  0  0  0
115114  1  0  0  0  0
116114  1  0  0  0  0
117114  1  0  0  0  0
118  4  1  0  0  0  0
119118  1  0  0  0  0
120118  1  0  0  0  0
121118  1  0  0  0  0
122121  1  0  0  0  0
123121  1  0  0  0  0
124121  1  0  0  0  0
125  4  1  0  0  0  0
126125  1  0  0  0  0
127125  1  0  0  0  0
128125  1  0  0  0  0
129128  1  0  0  0  0
130128  1  0  0  0  0
131128  1  0  0  0  0
132 59  1  0  0  0  0
133132  1  0  0  0  0
134132  1  0  0  0  0
135132  1  0  0  0  0
136135  1  0  0  0  0
137135  1  0  0  0  0
138135  1  0  0  0  0
139 59  1  0  0  0  0
140139  1  0  0  0  0
141139  1  0  0  0  0
142139  1  0  0  0  0
143142  1  0  0  0  0
144142  1  0  0  0  0
145142  1  0  0  0  0
146 59  1  0  0  0  0
147146  1  0  0  0  0
148146  1  0  0  0  0
149146  1  0  0  0  0
150149  1  0  0  0  0
151149  1  0  0  0  0
152149  1  0  0  0  0
 10 11  2  0  0  0  0
 12 15  1  0  0  0  0
 34 37  1  0  0  0  0
 58 66  1  0  0  0  0
 59 60  1  0  0  0  0
 65 66  2  0  0  0  0
 67 70  1  0  0  0  0
 89 92  1  0  0  0  0
M  END
$$$$
WEXGEM

From CSD data. Using bond type 'Any'. No disordered atoms. Largest molecule.
168175  0  0  0  0  0  0  0  0999 V2000
    2.9183    3.8557    4.4935 Mo  0  0  0  0  0  0  0  0  0  0  0  0
    2.1064    5.3562    6.2241 P   0  0  0  0  0  0  0  0  0  0  0  0
    3.1018    2.1536    6.2006 P   0  0  0  0  0  0  0  0  0  0  0  0
    4.6305    4.3761    4.4935 N   0  0  0  0  0  0  0  0  0  0  0  0
    5.8364    4.7408    4.4935 O   0  0  0  0  0  0  0  0  0  0  0  0
    7.3624    4.2499    5.8037 Li  0  0  0  0  0  0  0  0  0  0  0  0
    7.3624    4.2499    8.1188 B   0  0  0  0  0  0  0  0  0  0  0  0
    0.8466    6.6942    5.2735 C   0  0  0  0  0  0  0  0  0  0  0  0
   -0.0795    6.5182    5.5791 H   0  0  0  0  0  0  0  0  0  0  0  0
    1.0822    7.6097    5.5791 H   0  0  0  0  0  0  0  0  0  0  0  0
    3.1972    6.5195    6.9325 C   0  0  0  0  0  0  0  0  0  0  0  0
    4.0894    6.4124    6.5407 H   0  0  0  0  0  0  0  0  0  0  0  0
    3.2458    6.3741    7.9013 H   0  0  0  0  0  0  0  0  0  0  0  0
    2.8681    7.4261    6.7546 H   0  0  0  0  0  0  0  0  0  0  0  0
    0.5433    5.4982    6.7923 C   0  0  0  0  0  0  0  0  0  0  0  0
   -0.0191    4.8147    6.3717 H   0  0  0  0  0  0  0  0  0  0  0  0
    0.1958    6.3882    6.5748 H   0  0  0  0  0  0  0  0  0  0  0  0
    0.5359    5.3732    7.7647 H   0  0  0  0  0  0  0  0  0  0  0  0
    2.4441    0.3570    5.2825 C   0  0  0  0  0  0  0  0  0  0  0  0
    3.0183   -0.3825    5.5952 H   0  0  0  0  0  0  0  0  0  0  0  0
    1.5209    0.1683    5.5952 H   0  0  0  0  0  0  0  0  0  0  0  0
    4.6393    1.5837    6.8067 C   0  0  0  0  0  0  0  0  0  0  0  0
    4.4870    0.9015    7.4933 H   0  0  0  0  0  0  0  0  0  0  0  0
    5.1355    2.3334    7.1967 H   0  0  0  0  0  0  0  0  0  0  0  0
    5.1576    1.1960    6.0715 H   0  0  0  0  0  0  0  0  0  0  0  0
    1.8713    1.2802    6.8912 C   0  0  0  0  0  0  0  0  0  0  0  0
    1.0100    1.6117    6.5622 H   0  0  0  0  0  0  0  0  0  0  0  0
    1.9096    1.3771    7.8653 H   0  0  0  0  0  0  0  0  0  0  0  0
    1.9700    0.3341    6.6521 H   0  0  0  0  0  0  0  0  0  0  0  0
    0.9497    3.4045    4.4935 H   0  0  0  0  0  0  0  0  0  0  0  0
    6.3016    4.2843    7.5130 H   0  0  0  0  0  0  0  0  0  0  0  0
    7.3624    4.2499    9.3284 H   0  0  0  0  0  0  0  0  0  0  0  0
    9.2417    8.2957    4.4935 Mo  0  0  0  0  0  0  0  0  0  0  0  0
    9.9251    0.5994    4.4935 Mo  0  0  0  0  0  0  0  0  0  0  0  0
    2.1064    5.3562    2.7628 P   0  0  0  0  0  0  0  0  0  0  0  0
   10.9471    8.2485    6.2241 P   0  0  0  0  0  0  0  0  0  0  0  0
   10.9471    8.2485    2.7628 P   0  0  0  0  0  0  0  0  0  0  0  0
    9.0316   -0.8539    2.7628 P   0  0  0  0  0  0  0  0  0  0  0  0
    9.0316   -0.8539    6.2241 P   0  0  0  0  0  0  0  0  0  0  0  0
    3.1018    2.1536    2.7863 P   0  0  0  0  0  0  0  0  0  0  0  0
    7.6759    8.9878    6.2006 P   0  0  0  0  0  0  0  0  0  0  0  0
    7.6759    8.9878    2.7863 P   0  0  0  0  0  0  0  0  0  0  0  0
   11.3074    1.6094    2.7863 P   0  0  0  0  0  0  0  0  0  0  0  0
   11.3074    1.6094    6.2006 P   0  0  0  0  0  0  0  0  0  0  0  0
    8.8362    6.5527    4.4935 N   0  0  0  0  0  0  0  0  0  0  0  0
    8.6183    1.8221    4.4935 N   0  0  0  0  0  0  0  0  0  0  0  0
    8.5491    5.3260    4.4935 O   0  0  0  0  0  0  0  0  0  0  0  0
    7.6996    2.6841    4.4935 O   0  0  0  0  0  0  0  0  0  0  0  0
    7.3610    4.2499    3.1832 Li  0  0  0  0  0  0  0  0  0  0  0  0
    7.3610    4.2499    0.8681 B   0  0  0  0  0  0  0  0  0  0  0  0
    0.8466    6.6942    3.7134 C   0  0  0  0  0  0  0  0  0  0  0  0
   12.7357    8.6706    5.2735 C   0  0  0  0  0  0  0  0  0  0  0  0
   12.7357    8.6706    3.7134 C   0  0  0  0  0  0  0  0  0  0  0  0
    8.5028   -2.6139    3.7134 C   0  0  0  0  0  0  0  0  0  0  0  0
    8.5028   -2.6139    5.2735 C   0  0  0  0  0  0  0  0  0  0  0  0
   13.0464    9.5606    5.5791 H   0  0  0  0  0  0  0  0  0  0  0  0
   13.0464    9.5606    3.4078 H   0  0  0  0  0  0  0  0  0  0  0  0
    9.1182   -3.3280    5.5791 H   0  0  0  0  0  0  0  0  0  0  0  0
    9.1182   -3.3280    3.4078 H   0  0  0  0  0  0  0  0  0  0  0  0
   -0.0795    6.5182    3.4078 H   0  0  0  0  0  0  0  0  0  0  0  0
   13.4108    8.0088    5.5791 H   0  0  0  0  0  0  0  0  0  0  0  0
   13.4108    8.0088    3.4078 H   0  0  0  0  0  0  0  0  0  0  0  0
    7.5921   -2.8677    5.5791 H   0  0  0  0  0  0  0  0  0  0  0  0
    7.5921   -2.8677    3.4078 H   0  0  0  0  0  0  0  0  0  0  0  0
    1.0822    7.6097    3.4078 H   0  0  0  0  0  0  0  0  0  0  0  0
   11.4092    6.7222    6.9325 C   0  0  0  0  0  0  0  0  0  0  0  0
   11.4092    6.7222    2.0544 C   0  0  0  0  0  0  0  0  0  0  0  0
    7.4788   -0.4909    6.9325 C   0  0  0  0  0  0  0  0  0  0  0  0
    7.4788   -0.4909    2.0544 C   0  0  0  0  0  0  0  0  0  0  0  0
    3.1972    6.5195    2.0544 C   0  0  0  0  0  0  0  0  0  0  0  0
   10.8703    6.0031    6.5407 H   0  0  0  0  0  0  0  0  0  0  0  0
   10.8703    6.0031    2.4462 H   0  0  0  0  0  0  0  0  0  0  0  0
    7.1254    0.3353    6.5407 H   0  0  0  0  0  0  0  0  0  0  0  0
    7.1254    0.3353    2.4462 H   0  0  0  0  0  0  0  0  0  0  0  0
    4.0894    6.4124    2.4462 H   0  0  0  0  0  0  0  0  0  0  0  0
   11.2590    6.7528    7.9013 H   0  0  0  0  0  0  0  0  0  0  0  0
   11.2590    6.7528    1.0856 H   0  0  0  0  0  0  0  0  0  0  0  0
    7.5803   -0.3761    7.9013 H   0  0  0  0  0  0  0  0  0  0  0  0
    7.5803   -0.3761    1.0856 H   0  0  0  0  0  0  0  0  0  0  0  0
    3.2458    6.3741    1.0856 H   0  0  0  0  0  0  0  0  0  0  0  0
   12.3588    6.5539    6.7546 H   0  0  0  0  0  0  0  0  0  0  0  0
   12.3588    6.5539    2.2323 H   0  0  0  0  0  0  0  0  0  0  0  0
    6.8582   -1.2292    6.7546 H   0  0  0  0  0  0  0  0  0  0  0  0
    6.8582   -1.2292    2.2323 H   0  0  0  0  0  0  0  0  0  0  0  0
    2.8681    7.4261    2.2323 H   0  0  0  0  0  0  0  0  0  0  0  0
   11.8516    9.5313    6.7923 C   0  0  0  0  0  0  0  0  0  0  0  0
   11.8516    9.5313    2.1946 C   0  0  0  0  0  0  0  0  0  0  0  0
    9.6902   -2.2786    6.7923 C   0  0  0  0  0  0  0  0  0  0  0  0
    9.6902   -2.2786    2.1946 C   0  0  0  0  0  0  0  0  0  0  0  0
    0.5433    5.4982    2.1946 C   0  0  0  0  0  0  0  0  0  0  0  0
   11.5409   10.3601    6.3717 H   0  0  0  0  0  0  0  0  0  0  0  0
   11.5409   10.3601    2.6152 H   0  0  0  0  0  0  0  0  0  0  0  0
   10.5633   -2.4239    6.3717 H   0  0  0  0  0  0  0  0  0  0  0  0
   10.5633   -2.4239    2.6152 H   0  0  0  0  0  0  0  0  0  0  0  0
   -0.0191    4.8147    2.6152 H   0  0  0  0  0  0  0  0  0  0  0  0
   12.7961    9.3872    6.5748 H   0  0  0  0  0  0  0  0  0  0  0  0
   12.7961    9.3872    2.4121 H   0  0  0  0  0  0  0  0  0  0  0  0
    9.0932   -3.0245    6.5748 H   0  0  0  0  0  0  0  0  0  0  0  0
    9.0932   -3.0245    2.4121 H   0  0  0  0  0  0  0  0  0  0  0  0
    0.1958    6.3882    2.4121 H   0  0  0  0  0  0  0  0  0  0  0  0
   11.7471    9.6001    7.7647 H   0  0  0  0  0  0  0  0  0  0  0  0
   11.7471    9.6001    1.2222 H   0  0  0  0  0  0  0  0  0  0  0  0
    9.8021   -2.2225    7.7647 H   0  0  0  0  0  0  0  0  0  0  0  0
    9.8021   -2.2225    1.2222 H   0  0  0  0  0  0  0  0  0  0  0  0
    0.5359    5.3732    1.2222 H   0  0  0  0  0  0  0  0  0  0  0  0
    2.4441    0.3570    3.7044 C   0  0  0  0  0  0  0  0  0  0  0  0
    6.4488   10.4557    5.2825 C   0  0  0  0  0  0  0  0  0  0  0  0
    6.4488   10.4557    3.7044 C   0  0  0  0  0  0  0  0  0  0  0  0
   13.1922    1.9381    3.7044 C   0  0  0  0  0  0  0  0  0  0  0  0
   13.1922    1.9381    5.2825 C   0  0  0  0  0  0  0  0  0  0  0  0
    5.5213   10.3282    5.5952 H   0  0  0  0  0  0  0  0  0  0  0  0
    5.5213   10.3282    3.3917 H   0  0  0  0  0  0  0  0  0  0  0  0
   13.5455    2.8052    5.5952 H   0  0  0  0  0  0  0  0  0  0  0  0
   13.5455    2.8052    3.3917 H   0  0  0  0  0  0  0  0  0  0  0  0
    3.0183   -0.3825    3.3917 H   0  0  0  0  0  0  0  0  0  0  0  0
    6.7470   11.3495    5.5952 H   0  0  0  0  0  0  0  0  0  0  0  0
    6.7470   11.3495    3.3917 H   0  0  0  0  0  0  0  0  0  0  0  0
   13.8172    1.2330    5.5952 H   0  0  0  0  0  0  0  0  0  0  0  0
   13.8172    1.2330    3.3917 H   0  0  0  0  0  0  0  0  0  0  0  0
    1.5209    0.1683    3.3917 H   0  0  0  0  0  0  0  0  0  0  0  0
    6.4135    7.9412    6.8067 C   0  0  0  0  0  0  0  0  0  0  0  0
    6.4135    7.9412    2.1802 C   0  0  0  0  0  0  0  0  0  0  0  0
   11.0322    3.2260    6.8067 C   0  0  0  0  0  0  0  0  0  0  0  0
   11.0322    3.2260    2.1802 C   0  0  0  0  0  0  0  0  0  0  0  0
    4.6393    1.5837    2.1802 C   0  0  0  0  0  0  0  0  0  0  0  0
    5.8989    8.4143    7.4933 H   0  0  0  0  0  0  0  0  0  0  0  0
    5.8989    8.4143    1.4936 H   0  0  0  0  0  0  0  0  0  0  0  0
   11.6992    3.4351    7.4933 H   0  0  0  0  0  0  0  0  0  0  0  0
   11.6992    3.4351    1.4936 H   0  0  0  0  0  0  0  0  0  0  0  0
    4.4870    0.9015    1.4936 H   0  0  0  0  0  0  0  0  0  0  0  0
    6.8147    7.1366    7.1967 H   0  0  0  0  0  0  0  0  0  0  0  0
    6.8147    7.1366    1.7902 H   0  0  0  0  0  0  0  0  0  0  0  0
   10.1349    3.2808    7.1967 H   0  0  0  0  0  0  0  0  0  0  0  0
   10.1349    3.2808    1.7902 H   0  0  0  0  0  0  0  0  0  0  0  0
    5.1355    2.3334    1.7902 H   0  0  0  0  0  0  0  0  0  0  0  0
    5.8187    7.6862    6.0715 H   0  0  0  0  0  0  0  0  0  0  0  0
    5.8187    7.6862    2.9154 H   0  0  0  0  0  0  0  0  0  0  0  0
   11.1088    3.8686    6.0715 H   0  0  0  0  0  0  0  0  0  0  0  0
   11.1088    3.8686    2.9154 H   0  0  0  0  0  0  0  0  0  0  0  0
    5.1576    1.1960    2.9154 H   0  0  0  0  0  0  0  0  0  0  0  0
    7.5347   10.4901    6.8912 C   0  0  0  0  0  0  0  0  0  0  0  0
    7.5347   10.4901    2.0957 C   0  0  0  0  0  0  0  0  0  0  0  0
   12.6791    0.9805    6.8912 C   0  0  0  0  0  0  0  0  0  0  0  0
   12.6791    0.9805    2.0957 C   0  0  0  0  0  0  0  0  0  0  0  0
    1.8713    1.2802    2.0957 C   0  0  0  0  0  0  0  0  0  0  0  0
    8.2525   11.0703    6.5622 H   0  0  0  0  0  0  0  0  0  0  0  0
    8.2525   11.0703    2.4247 H   0  0  0  0  0  0  0  0  0  0  0  0
   12.8226    0.0689    6.5622 H   0  0  0  0  0  0  0  0  0  0  0  0
   12.8226    0.0689    2.4247 H   0  0  0  0  0  0  0  0  0  0  0  0
    1.0100    1.6117    2.4247 H   0  0  0  0  0  0  0  0  0  0  0  0
    7.5995   10.4085    7.8653 H   0  0  0  0  0  0  0  0  0  0  0  0
    7.5995   10.4085    1.1216 H   0  0  0  0  0  0  0  0  0  0  0  0
   12.5760    0.9652    7.8653 H   0  0  0  0  0  0  0  0  0  0  0  0
   12.5760    0.9652    1.1216 H   0  0  0  0  0  0  0  0  0  0  0  0
    1.9096    1.3771    1.1216 H   0  0  0  0  0  0  0  0  0  0  0  0
    6.6660   10.8777    6.6521 H   0  0  0  0  0  0  0  0  0  0  0  0
    6.6660   10.8777    2.3348 H   0  0  0  0  0  0  0  0  0  0  0  0
   13.4491    1.5390    6.6521 H   0  0  0  0  0  0  0  0  0  0  0  0
   13.4491    1.5390    2.3348 H   0  0  0  0  0  0  0  0  0  0  0  0
    1.9700    0.3341    2.3348 H   0  0  0  0  0  0  0  0  0  0  0  0
    9.8352   10.2262    4.4935 H   0  0  0  0  0  0  0  0  0  0  0  0
   11.3002   -0.8798    4.4935 H   0  0  0  0  0  0  0  0  0  0  0  0
    7.8623    3.3152    7.5130 H   0  0  0  0  0  0  0  0  0  0  0  0
    7.9212    5.1513    7.5130 H   0  0  0  0  0  0  0  0  0  0  0  0
    7.9212    5.1513    1.4739 H   0  0  0  0  0  0  0  0  0  0  0  0
    6.3016    4.2843    1.4739 H   0  0  0  0  0  0  0  0  0  0  0  0
    7.8623    3.3152    1.4739 H   0  0  0  0  0  0  0  0  0  0  0  0
    7.3610    4.2499   -0.3415 H   0  0  0  0  0  0  0  0  0  0  0  0
  1  2  1  0  0  0  0
  2  8  1  0  0  0  0
  3  1  1  0  0  0  0
  4  1  1  0  0  0  0
  5  4  2  0  0  0  0
  6  5  1  0  0  0  0
  7  6  1  0  0  0  0
  8  9  1  0  0  0  0
 10  8  1  0  0  0  0
 11  2  1  0  0  0  0
 12 11  1  0  0  0  0
 13 11  1  0  0  0  0
 14 11  1  0  0  0  0
 15  2  1  0  0  0  0
 16 15  1  0  0  0  0
 17 15  1  0  0  0  0
 18 15  1  0  0  0  0
 19  3  1  0  0  0  0
 20 19  1  0  0  0  0
 21 19  1  0  0  0  0
 22  3  1  0  0  0  0
 23 22  1  0  0  0  0
 24 22  1  0  0  0  0
 25 22  1  0  0  0  0
 26  3  1  0  0  0  0
 27 26  1  0  0  0  0
 28 26  1  0  0  0  0
 29 26  1  0  0  0  0
 30  1  1  0  0  0  0
 31  7  1  0  0  0  0
 32  7  1  0  0  0  0
 33 36  1  0  0  0  0
 34 38  1  0  0  0  0
 35  1  1  0  0  0  0
 36 52  1  0  0  0  0
 37 33  1  0  0  0  0
 38 54  1  0  0  0  0
 39 34  1  0  0  0  0
 40  1  1  0  0  0  0
 41 33  1  0  0  0  0
 42 33  1  0  0  0  0
 43 34  1  0  0  0  0
 44 34  1  0  0  0  0
 45 33  1  0  0  0  0
 46 34  1  0  0  0  0
 47  6  1  0  0  0  0
 48  6  1  0  0  0  0
 49  5  1  0  0  0  0
 50 49  1  0  0  0  0
 51  8  1  0  0  0  0
 52 53  1  0  0  0  0
 53 37  1  0  0  0  0
 54 55  1  0  0  0  0
 55 39  1  0  0  0  0
 56 52  1  0  0  0  0
 57 53  1  0  0  0  0
 58 55  1  0  0  0  0
 59 54  1  0  0  0  0
 60 51  1  0  0  0  0
 61 52  1  0  0  0  0
 62 53  1  0  0  0  0
 63 55  1  0  0  0  0
 64 54  1  0  0  0  0
 65 51  1  0  0  0  0
 66 36  1  0  0  0  0
 67 37  1  0  0  0  0
 68 39  1  0  0  0  0
 69 38  1  0  0  0  0
 70 35  1  0  0  0  0
 71 66  1  0  0  0  0
 72 67  1  0  0  0  0
 73 68  1  0  0  0  0
 74 69  1  0  0  0  0
 75 70  1  0  0  0  0
 76 66  1  0  0  0  0
 77 67  1  0  0  0  0
 78 68  1  0  0  0  0
 79 69  1  0  0  0  0
 80 70  1  0  0  0  0
 81 66  1  0  0  0  0
 82 67  1  0  0  0  0
 83 68  1  0  0  0  0
 84 69  1  0  0  0  0
 85 70  1  0  0  0  0
 86 36  1  0  0  0  0
 87 37  1  0  0  0  0
 88 39  1  0  0  0  0
 89 38  1  0  0  0  0
 90 35  1  0  0  0  0
 91 86  1  0  0  0  0
 92 87  1  0  0  0  0
 93 88  1  0  0  0  0
 94 89  1  0  0  0  0
 95 90  1  0  0  0  0
 96 86  1  0  0  0  0
 97 87  1  0  0  0  0
 98 88  1  0  0  0  0
 99 89  1  0  0  0  0
100 90  1  0  0  0  0
101 86  1  0  0  0  0
102 87  1  0  0  0  0
103 88  1  0  0  0  0
104 89  1  0  0  0  0
105 90  1  0  0  0  0
106 19  1  0  0  0  0
107 41  1  0  0  0  0
108 42  1  0  0  0  0
109 43  1  0  0  0  0
110 44  1  0  0  0  0
111107  1  0  0  0  0
112108  1  0  0  0  0
113110  1  0  0  0  0
114109  1  0  0  0  0
115106  1  0  0  0  0
116107  1  0  0  0  0
117108  1  0  0  0  0
118110  1  0  0  0  0
119109  1  0  0  0  0
120106  1  0  0  0  0
121 41  1  0  0  0  0
122 42  1  0  0  0  0
123 44  1  0  0  0  0
124 43  1  0  0  0  0
125 40  1  0  0  0  0
126121  1  0  0  0  0
127122  1  0  0  0  0
128123  1  0  0  0  0
129124  1  0  0  0  0
130125  1  0  0  0  0
131121  1  0  0  0  0
132122  1  0  0  0  0
133123  1  0  0  0  0
134124  1  0  0  0  0
135125  1  0  0  0  0
136121  1  0  0  0  0
137122  1  0  0  0  0
138123  1  0  0  0  0
139124  1  0  0  0  0
140125  1  0  0  0  0
141 41  1  0  0  0  0
142 42  1  0  0  0  0
143 44  1  0  0  0  0
144 43  1  0  0  0  0
145 40  1  0  0  0  0
146141  1  0  0  0  0
147142  1  0  0  0  0
148143  1  0  0  0  0
149144  1  0  0  0  0
150145  1  0  0  0  0
151141  1  0  0  0  0
152142  1  0  0  0  0
153143  1  0  0  0  0
154144  1  0  0  0  0
155145  1  0  0  0  0
156141  1  0  0  0  0
157142  1  0  0  0  0
158143  1  0  0  0  0
159144  1  0  0  0  0
160145  1  0  0  0  0
161 33  1  0  0  0  0
162 34  1  0  0  0  0
163  7  1  0  0  0  0
164  7  1  0  0  0  0
165 50  1  0  0  0  0
166 50  1  0  0  0  0
167 50  1  0  0  0  0
168 50  1  0  0  0  0
 35 51  1  0  0  0  0
 40106  1  0  0  0  0
 45 47  2  0  0  0  0
 46 48  2  0  0  0  0
 47 49  1  0  0  0  0
 48 49  1  0  0  0  0
107108  1  0  0  0  0
109110  1  0  0  0  0
M  END
$$$$
WEXGIQ

From CSD data. Using bond type 'Any'. No disordered atoms. Largest molecule.
141160  0  0  0  0  0  0  0  0999 V2000
    8.3562    7.7504    4.9420 Mo  0  0  0  0  0  0  0  0  0  0  0  0
    7.3693    6.7291    4.0725 H   0  0  0  0  0  0  0  0  0  0  0  0
    9.0516    5.5857    5.8004 P   0  0  0  0  0  0  0  0  0  0  0  0
   10.0504    7.1548    3.2733 P   0  0  0  0  0  0  0  0  0  0  0  0
    6.1971    7.7934    6.0973 P   0  0  0  0  0  0  0  0  0  0  0  0
    7.1757    9.3994    3.5706 P   0  0  0  0  0  0  0  0  0  0  0  0
    9.2966    8.8141    6.0183 N   0  0  0  0  0  0  0  0  0  0  0  0
    9.9588    9.5638    6.8229 O   0  0  0  0  0  0  0  0  0  0  0  0
   10.0327    4.6798    4.5319 C   0  0  0  0  0  0  0  0  0  0  0  0
   10.5567    3.9583    4.9632 H   0  0  0  0  0  0  0  0  0  0  0  0
    9.4255    4.2679    3.8667 H   0  0  0  0  0  0  0  0  0  0  0  0
   10.9739    5.6701    3.8401 C   0  0  0  0  0  0  0  0  0  0  0  0
   11.4018    5.2305    3.0628 H   0  0  0  0  0  0  0  0  0  0  0  0
   11.6867    5.9427    4.4689 H   0  0  0  0  0  0  0  0  0  0  0  0
    7.8825    4.2928    6.3245 C   0  0  0  0  0  0  0  0  0  0  0  0
    8.3616    3.4448    6.4365 H   0  0  0  0  0  0  0  0  0  0  0  0
    7.1853    4.1861    5.6439 H   0  0  0  0  0  0  0  0  0  0  0  0
    7.4717    4.5494    7.1760 H   0  0  0  0  0  0  0  0  0  0  0  0
   10.2259    5.6556    7.1900 C   0  0  0  0  0  0  0  0  0  0  0  0
    9.7830    6.0435    7.9742 H   0  0  0  0  0  0  0  0  0  0  0  0
   10.9950    6.2103    6.9421 H   0  0  0  0  0  0  0  0  0  0  0  0
   10.5334    4.7500    7.4042 H   0  0  0  0  0  0  0  0  0  0  0  0
   11.4214    8.2783    2.8751 C   0  0  0  0  0  0  0  0  0  0  0  0
   12.0178    7.8475    2.2281 H   0  0  0  0  0  0  0  0  0  0  0  0
   11.9201    8.4863    3.6916 H   0  0  0  0  0  0  0  0  0  0  0  0
   11.0638    9.1049    2.4900 H   0  0  0  0  0  0  0  0  0  0  0  0
    9.5101    6.6422    1.6077 C   0  0  0  0  0  0  0  0  0  0  0  0
    9.1352    7.4140    1.1344 H   0  0  0  0  0  0  0  0  0  0  0  0
    8.8295    5.9426    1.6862 H   0  0  0  0  0  0  0  0  0  0  0  0
   10.2793    6.2952    1.1078 H   0  0  0  0  0  0  0  0  0  0  0  0
    5.2006    9.1955    5.4744 C   0  0  0  0  0  0  0  0  0  0  0  0
    4.2441    9.0290    5.6691 H   0  0  0  0  0  0  0  0  0  0  0  0
    5.4694   10.0234    5.9450 H   0  0  0  0  0  0  0  0  0  0  0  0
    5.3835    9.3779    4.0039 C   0  0  0  0  0  0  0  0  0  0  0  0
    4.9646   10.2301    3.7224 H   0  0  0  0  0  0  0  0  0  0  0  0
    4.9348    8.6406    3.5208 H   0  0  0  0  0  0  0  0  0  0  0  0
    6.1404    8.0652    7.8930 C   0  0  0  0  0  0  0  0  0  0  0  0
    5.2072    8.1035    8.1885 H   0  0  0  0  0  0  0  0  0  0  0  0
    6.5881    8.9095    8.1101 H   0  0  0  0  0  0  0  0  0  0  0  0
    6.5973    7.3277    8.3495 H   0  0  0  0  0  0  0  0  0  0  0  0
    5.0644    6.3821    5.9113 C   0  0  0  0  0  0  0  0  0  0  0  0
    5.4016    5.6229    6.4323 H   0  0  0  0  0  0  0  0  0  0  0  0
    5.0084    6.1305    4.9660 H   0  0  0  0  0  0  0  0  0  0  0  0
    4.1753    6.6327    6.2377 H   0  0  0  0  0  0  0  0  0  0  0  0
    7.0048    9.2633    1.7618 C   0  0  0  0  0  0  0  0  0  0  0  0
    6.3758    9.9419    1.4397 H   0  0  0  0  0  0  0  0  0  0  0  0
    6.6681    8.3718    1.5307 H   0  0  0  0  0  0  0  0  0  0  0  0
    7.8790    9.4020    1.3388 H   0  0  0  0  0  0  0  0  0  0  0  0
    7.7106   11.1029    3.7294 C   0  0  0  0  0  0  0  0  0  0  0  0
    8.6427   11.1808    3.4395 H   0  0  0  0  0  0  0  0  0  0  0  0
    7.6333   11.3830    4.6649 H   0  0  0  0  0  0  0  0  0  0  0  0
    7.1453   11.6759    3.1692 H   0  0  0  0  0  0  0  0  0  0  0  0
    9.2024    8.7589   16.2403 Mo  0  0  0  0  0  0  0  0  0  0  0  0
    9.9882    9.5850   17.6458 H   0  0  0  0  0  0  0  0  0  0  0  0
   10.1968    6.7564   17.2624 P   0  0  0  0  0  0  0  0  0  0  0  0
    7.5212    8.2565   17.9588 P   0  0  0  0  0  0  0  0  0  0  0  0
   11.2936    9.5582   15.3443 P   0  0  0  0  0  0  0  0  0  0  0  0
    8.5878   11.0873   15.8619 P   0  0  0  0  0  0  0  0  0  0  0  0
    8.5424    8.0611   14.7319 N   0  0  0  0  0  0  0  0  0  0  0  0
    8.1515    7.6210   13.5744 O   0  0  0  0  0  0  0  0  0  0  0  0
    8.8845    5.8355   18.1500 C   0  0  0  0  0  0  0  0  0  0  0  0
    8.2943    5.3784   17.5002 H   0  0  0  0  0  0  0  0  0  0  0  0
    9.2925    5.1496   18.7368 H   0  0  0  0  0  0  0  0  0  0  0  0
    8.0786    6.8134   18.9818 C   0  0  0  0  0  0  0  0  0  0  0  0
    8.6315    7.1397   19.7353 H   0  0  0  0  0  0  0  0  0  0  0  0
    7.2880    6.3532   19.3600 H   0  0  0  0  0  0  0  0  0  0  0  0
   10.9490    5.5093   16.1851 C   0  0  0  0  0  0  0  0  0  0  0  0
   11.7605    5.8769   15.7762 H   0  0  0  0  0  0  0  0  0  0  0  0
   10.3134    5.2573   15.4821 H   0  0  0  0  0  0  0  0  0  0  0  0
   11.1805    4.7166   16.7145 H   0  0  0  0  0  0  0  0  0  0  0  0
   11.4529    6.9486   18.5645 C   0  0  0  0  0  0  0  0  0  0  0  0
   11.5609    6.0994   19.0435 H   0  0  0  0  0  0  0  0  0  0  0  0
   11.1679    7.6435   19.1933 H   0  0  0  0  0  0  0  0  0  0  0  0
   12.3078    7.2057   18.1598 H   0  0  0  0  0  0  0  0  0  0  0  0
    5.9086    7.7019   17.3321 C   0  0  0  0  0  0  0  0  0  0  0  0
    5.3280    7.4670   18.0855 H   0  0  0  0  0  0  0  0  0  0  0  0
    6.0333    6.9177   16.7579 H   0  0  0  0  0  0  0  0  0  0  0  0
    5.4944    8.4239   16.8139 H   0  0  0  0  0  0  0  0  0  0  0  0
    7.0541    9.4253   19.2759 C   0  0  0  0  0  0  0  0  0  0  0  0
    6.5676   10.1801   18.8852 H   0  0  0  0  0  0  0  0  0  0  0  0
    7.8622    9.7535   19.7241 H   0  0  0  0  0  0  0  0  0  0  0  0
    6.4814    8.9694   19.9286 H   0  0  0  0  0  0  0  0  0  0  0  0
   11.2136   11.4218   15.2216 C   0  0  0  0  0  0  0  0  0  0  0  0
   11.5339   11.8081   16.0759 H   0  0  0  0  0  0  0  0  0  0  0  0
   11.8340   11.7172   14.5102 H   0  0  0  0  0  0  0  0  0  0  0  0
    9.9146   11.9542   14.9415 C   0  0  0  0  0  0  0  0  0  0  0  0
    9.7380   11.8810   13.9710 H   0  0  0  0  0  0  0  0  0  0  0  0
    9.8996   12.9156   15.1810 H   0  0  0  0  0  0  0  0  0  0  0  0
   12.8692    9.3695   16.1879 C   0  0  0  0  0  0  0  0  0  0  0  0
   13.0681    8.4172   16.3014 H   0  0  0  0  0  0  0  0  0  0  0  0
   12.8226    9.8003   17.0674 H   0  0  0  0  0  0  0  0  0  0  0  0
   13.5771    9.7903   15.6557 H   0  0  0  0  0  0  0  0  0  0  0  0
   11.6517    9.0589   13.6545 C   0  0  0  0  0  0  0  0  0  0  0  0
   12.4196    9.5654   13.3198 H   0  0  0  0  0  0  0  0  0  0  0  0
   10.8715    9.2367   13.0887 H   0  0  0  0  0  0  0  0  0  0  0  0
   11.8570    8.1005   13.6335 H   0  0  0  0  0  0  0  0  0  0  0  0
    7.1604   11.4171   14.7524 C   0  0  0  0  0  0  0  0  0  0  0  0
    6.3669   10.9560   15.0970 H   0  0  0  0  0  0  0  0  0  0  0  0
    7.3646   11.0882   13.8520 H   0  0  0  0  0  0  0  0  0  0  0  0
    6.9902   12.3807   14.7188 H   0  0  0  0  0  0  0  0  0  0  0  0
    8.1822   12.2374   17.2019 C   0  0  0  0  0  0  0  0  0  0  0  0
    8.8923   12.2171   17.8755 H   0  0  0  0  0  0  0  0  0  0  0  0
    7.3337   11.9705   17.6150 H   0  0  0  0  0  0  0  0  0  0  0  0
    8.0985   13.1434   16.8405 H   0  0  0  0  0  0  0  0  0  0  0  0
   10.7217    8.6207    9.7178 B   0  0  0  0  0  0  0  0  0  0  0  0
   10.8554    8.5074   10.8494 H   0  0  0  0  0  0  0  0  0  0  0  0
    9.6196    8.2498    9.4251 H   0  0  0  0  0  0  0  0  0  0  0  0
   11.3910    8.0794    9.0890 H   0  0  0  0  0  0  0  0  0  0  0  0
   10.8425    9.6675    9.4601 H   0  0  0  0  0  0  0  0  0  0  0  0
    8.6026   12.3314    7.6171 B   0  0  0  0  0  0  0  0  0  0  0  0
    8.8704   12.4218    6.5542 H   0  0  0  0  0  0  0  0  0  0  0  0
    9.5624   12.0162    8.1227 H   0  0  0  0  0  0  0  0  0  0  0  0
    7.8641   11.4943    7.7586 H   0  0  0  0  0  0  0  0  0  0  0  0
    8.2926   13.2421    8.0526 H   0  0  0  0  0  0  0  0  0  0  0  0
    7.6316    9.7721   11.1253 B   0  0  0  0  0  0  0  0  0  0  0  0
    7.4318    8.6538   10.8816 H   0  0  0  0  0  0  0  0  0  0  0  0
    8.5794    9.7537   11.6378 H   0  0  0  0  0  0  0  0  0  0  0  0
    6.7382   10.2613   11.7919 H   0  0  0  0  0  0  0  0  0  0  0  0
    7.6174   10.3983   10.1813 H   0  0  0  0  0  0  0  0  0  0  0  0
    4.5924    7.6500   13.1895 B   0  0  0  0  0  0  0  0  0  0  0  0
    4.9022    8.5495   13.6265 H   0  0  0  0  0  0  0  0  0  0  0  0
    5.2122    7.0247   13.8646 H   0  0  0  0  0  0  0  0  0  0  0  0
    3.4355    7.4752   13.2484 H   0  0  0  0  0  0  0  0  0  0  0  0
    5.1713    7.3122   12.2960 H   0  0  0  0  0  0  0  0  0  0  0  0
    9.0669    5.4109   11.3647 B   0  0  0  0  0  0  0  0  0  0  0  0
    8.1655    6.0446   11.3157 H   0  0  0  0  0  0  0  0  0  0  0  0
    9.8682    6.0433   11.8059 H   0  0  0  0  0  0  0  0  0  0  0  0
    8.8661    4.6012   12.1000 H   0  0  0  0  0  0  0  0  0  0  0  0
    9.3318    5.1251   10.4614 H   0  0  0  0  0  0  0  0  0  0  0  0
    9.0559   10.1231    8.6058 Li  0  0  0  0  0  0  0  0  0  0  0  0
    6.6092    8.4893   12.7820 Li  0  0  0  0  0  0  0  0  0  0  0  0
   10.4887   11.4466    6.3805 Li  0  0  0  0  0  0  0  0  0  0  0  0
    9.1632    7.8195   11.4348 Li  0  0  0  0  0  0  0  0  0  0  0  0
    7.9808    5.6927   13.3716 Li  0  0  0  0  0  0  0  0  0  0  0  0
   12.2973   11.0774    7.1817 O   0  0  0  0  0  0  0  0  0  0  0  0
   11.5345   12.0205    4.2868 B   0  0  0  0  0  0  0  0  0  0  0  0
   10.8651   12.5618    4.9156 H   0  0  0  0  0  0  0  0  0  0  0  0
    7.0390    4.0949   14.8197 B   0  0  0  0  0  0  0  0  0  0  0  0
    6.4191    4.7201   14.1446 H   0  0  0  0  0  0  0  0  0  0  0  0
   11.7675    9.1945    7.6241 Li  0  0  0  0  0  0  0  0  0  0  0  0
    3.6505    6.0522   14.6376 Li  0  0  0  0  0  0  0  0  0  0  0  0
  1  2  1  0  0  0  0
  3  1  1  0  0  0  0
  4  1  1  0  0  0  0
  5  1  1  0  0  0  0
  6  1  1  0  0  0  0
  7  1  1  0  0  0  0
  8  7  2  0  0  0  0
  9  3  1  0  0  0  0
 10  9  1  0  0  0  0
 11  9  1  0  0  0  0
 12  4  1  0  0  0  0
 13 12  1  0  0  0  0
 14 12  1  0  0  0  0
 15  3  1  0  0  0  0
 16 15  1  0  0  0  0
 17 15  1  0  0  0  0
 18 15  1  0  0  0  0
 19  3  1  0  0  0  0
 20 19  1  0  0  0  0
 21 19  1  0  0  0  0
 22 19  1  0  0  0  0
 23  4  1  0  0  0  0
 24 23  1  0  0  0  0
 25 23  1  0  0  0  0
 26 23  1  0  0  0  0
 27  4  1  0  0  0  0
 28 27  1  0  0  0  0
 29 27  1  0  0  0  0
 30 27  1  0  0  0  0
 31  5  1  0  0  0  0
 32 31  1  0  0  0  0
 33 31  1  0  0  0  0
 34  6  1  0  0  0  0
 35 34  1  0  0  0  0
 36 34  1  0  0  0  0
 37  5  1  0  0  0  0
 38 37  1  0  0  0  0
 39 37  1  0  0  0  0
 40 37  1  0  0  0  0
 41  5  1  0  0  0  0
 42 41  1  0  0  0  0
 43 41  1  0  0  0  0
 44 41  1  0  0  0  0
 45  6  1  0  0  0  0
 46 45  1  0  0  0  0
 47 45  1  0  0  0  0
 48 45  1  0  0  0  0
 49  6  1  0  0  0  0
 50 49  1  0  0  0  0
 51 49  1  0  0  0  0
 52 49  1  0  0  0  0
 53 54  1  0  0  0  0
 55 53  1  0  0  0  0
 56 53  1  0  0  0  0
 57 53  1  0  0  0  0
 58 53  1  0  0  0  0
 59 53  1  0  0  0  0
 60 59  2  0  0  0  0
 61 55  1  0  0  0  0
 62 61  1  0  0  0  0
 63 61  1  0  0  0  0
 64 56  1  0  0  0  0
 65 64  1  0  0  0  0
 66 64  1  0  0  0  0
 67 55  1  0  0  0  0
 68 67  1  0  0  0  0
 69 67  1  0  0  0  0
 70 67  1  0  0  0  0
 71 55  1  0  0  0  0
 72 71  1  0  0  0  0
 73 71  1  0  0  0  0
 74 71  1  0  0  0  0
 75 56  1  0  0  0  0
 76 75  1  0  0  0  0
 77 75  1  0  0  0  0
 78 75  1  0  0  0  0
 79 56  1  0  0  0  0
 80 79  1  0  0  0  0
 81 79  1  0  0  0  0
 82 79  1  0  0  0  0
 83 57  1  0  0  0  0
 84 83  1  0  0  0  0
 85 83  1  0  0  0  0
 86 58  1  0  0  0  0
 87 86  1  0  0  0  0
 88 86  1  0  0  0  0
 89 57  1  0  0  0  0
 90 89  1  0  0  0  0
 91 89  1  0  0  0  0
 92 89  1  0  0  0  0
 93 57  1  0  0  0  0
 94 93  1  0  0  0  0
 95 93  1  0  0  0  0
 96 93  1  0  0  0  0
 97 58  1  0  0  0  0
 98 97  1  0  0  0  0
 99 97  1  0  0  0  0
100 97  1  0  0  0  0
101 58  1  0  0  0  0
102101  1  0  0  0  0
103101  1  0  0  0  0
104101  1  0  0  0  0
105106  1  0  0  0  0
106133  1  0  0  0  0
107105  1  0  0  0  0
108105  1  0  0  0  0
109105  1  0  0  0  0
110111  1  0  0  0  0
111132  1  0  0  0  0
112110  1  0  0  0  0
113110  1  0  0  0  0
114110  1  0  0  0  0
115116  1  0  0  0  0
116133  1  0  0  0  0
117115  1  0  0  0  0
118115  1  0  0  0  0
119115  1  0  0  0  0
120121  1  0  0  0  0
121131  1  0  0  0  0
122120  1  0  0  0  0
123120  1  0  0  0  0
124120  1  0  0  0  0
125126  1  0  0  0  0
127125  1  0  0  0  0
128125  1  0  0  0  0
129125  1  0  0  0  0
130  8  1  0  0  0  0
131 60  1  0  0  0  0
132  8  1  0  0  0  0
133 60  1  0  0  0  0
134 60  1  0  0  0  0
135132  8  0  0  0  0
136132  8  0  0  0  0
137132  8  0  0  0  0
138134  8  0  0  0  0
139134  8  0  0  0  0
140  8  8  0  0  0  0
141120  8  0  0  0  0
  9 12  1  0  0  0  0
 31 34  1  0  0  0  0
 61 64  1  0  0  0  0
 83 86  1  0  0  0  0
105130  1  0  0  0  0
105133  1  0  0  0  0
105140  8  0  0  0  0
108140  8  0  0  0  0
110130  1  0  0  0  0
110132  1  0  0  0  0
115131  1  0  0  0  0
115133  1  0  0  0  0
120131  1  0  0  0  0
122141  8  0  0  0  0
124131  1  0  0  0  0
125133  1  0  0  0  0
125134  1  0  0  0  0
127133  1  0  0  0  0
128134  1  0  0  0  0
135140  8  0  0  0  0
136137  8  0  0  0  0
138139  8  0  0  0  0
M  END
$$$$
WEYGOX

From CSD data. Using bond type 'Any'. No disordered atoms. Largest molecule.
136177  0  0  0  0  0  0  0  0999 V2000
    8.4084   17.8103   12.6931 Ni  0  0  0  0  0  0  0  0  0  0  0  0
   11.0904   16.3711   12.0444 P   0  0  0  0  0  0  0  0  0  0  0  0
    8.4609   17.7633   10.4054 P   0  0  0  0  0  0  0  0  0  0  0  0
    6.1958   18.0183   13.1482 P   0  0  0  0  0  0  0  0  0  0  0  0
    8.6469   18.3005   14.8653 P   0  0  0  0  0  0  0  0  0  0  0  0
   10.1408   17.1753   12.8538 O   0  0  0  0  0  0  0  0  0  0  0  0
   12.3515   19.0331    8.8325 B   0  0  0  0  0  0  0  0  0  0  0  0
   12.8675   19.9954    8.6983 H   0  0  0  0  0  0  0  0  0  0  0  0
   11.2727   18.7310   10.1970 B   0  0  0  0  0  0  0  0  0  0  0  0
   11.0667   19.4776   10.9804 H   0  0  0  0  0  0  0  0  0  0  0  0
   12.8662   17.8938   10.0672 B   0  0  0  0  0  0  0  0  0  0  0  0
   13.6960   18.1204   10.7527 H   0  0  0  0  0  0  0  0  0  0  0  0
   13.1063   17.4709    8.4003 B   0  0  0  0  0  0  0  0  0  0  0  0
   14.1215   17.4170    7.9809 H   0  0  0  0  0  0  0  0  0  0  0  0
   11.6818   18.0664    7.4551 B   0  0  0  0  0  0  0  0  0  0  0  0
   11.7490   18.4030    6.4120 H   0  0  0  0  0  0  0  0  0  0  0  0
   10.6175   18.8518    8.5642 B   0  0  0  0  0  0  0  0  0  0  0  0
   10.0103   19.7127    8.2470 H   0  0  0  0  0  0  0  0  0  0  0  0
   12.5103   16.2993    9.5094 B   0  0  0  0  0  0  0  0  0  0  0  0
   12.7547   15.2830    9.8543 H   0  0  0  0  0  0  0  0  0  0  0  0
   11.8849   16.3467    7.7957 B   0  0  0  0  0  0  0  0  0  0  0  0
   11.8660   15.4060    7.2273 H   0  0  0  0  0  0  0  0  0  0  0  0
   10.2145   17.2077    8.0682 B   0  0  0  0  0  0  0  0  0  0  0  0
    9.3359   16.6531    7.7084 H   0  0  0  0  0  0  0  0  0  0  0  0
    6.0611   21.7173   15.5063 B   0  0  0  0  0  0  0  0  0  0  0  0
    6.1195   22.8047   15.3615 H   0  0  0  0  0  0  0  0  0  0  0  0
    6.9212   20.5866   14.4355 B   0  0  0  0  0  0  0  0  0  0  0  0
    7.5369   20.8952   13.5755 H   0  0  0  0  0  0  0  0  0  0  0  0
    5.1282   20.6772   14.4142 B   0  0  0  0  0  0  0  0  0  0  0  0
    4.5879   21.0786   13.5414 H   0  0  0  0  0  0  0  0  0  0  0  0
    4.5678   20.9146   16.0321 B   0  0  0  0  0  0  0  0  0  0  0  0
    3.6368   21.4691   16.2131 H   0  0  0  0  0  0  0  0  0  0  0  0
    5.9930   21.0009   17.1263 B   0  0  0  0  0  0  0  0  0  0  0  0
    6.0057   21.6137   18.0375 H   0  0  0  0  0  0  0  0  0  0  0  0
    7.4249   20.8240   16.1151 B   0  0  0  0  0  0  0  0  0  0  0  0
    8.3768   21.3202   16.3536 H   0  0  0  0  0  0  0  0  0  0  0  0
    4.5472   19.3114   15.3190 B   0  0  0  0  0  0  0  0  0  0  0  0
    3.8466   18.4807   15.1444 H   0  0  0  0  0  0  0  0  0  0  0  0
    5.0137   19.5639   17.1050 B   0  0  0  0  0  0  0  0  0  0  0  0
    4.5178   18.9187   17.8437 H   0  0  0  0  0  0  0  0  0  0  0  0
    6.8383   19.4474   17.0433 B   0  0  0  0  0  0  0  0  0  0  0  0
    7.2662   18.6878   17.7139 H   0  0  0  0  0  0  0  0  0  0  0  0
   10.5199   14.6788   11.9725 C   0  0  0  0  0  0  0  0  0  0  0  0
   10.8367   13.7618   11.0124 C   0  0  0  0  0  0  0  0  0  0  0  0
   11.3537   14.0294   10.2886 H   0  0  0  0  0  0  0  0  0  0  0  0
   10.4199   12.4499   11.0784 C   0  0  0  0  0  0  0  0  0  0  0  0
   10.6323   11.8371   10.4142 H   0  0  0  0  0  0  0  0  0  0  0  0
    9.6715   12.0961   12.1853 C   0  0  0  0  0  0  0  0  0  0  0  0
    9.4146   11.2049   12.2684 H   0  0  0  0  0  0  0  0  0  0  0  0
    9.2969   12.9311   13.1242 C   0  0  0  0  0  0  0  0  0  0  0  0
    8.7772   12.6441   13.8416 H   0  0  0  0  0  0  0  0  0  0  0  0
    9.7058   14.2624   13.0156 C   0  0  0  0  0  0  0  0  0  0  0  0
    9.4285   14.8795   13.6542 H   0  0  0  0  0  0  0  0  0  0  0  0
   11.3800   16.9833   10.4099 C   0  0  0  0  0  0  0  0  0  0  0  0
   10.1485   17.5831    9.6265 C   0  0  0  0  0  0  0  0  0  0  0  0
   12.6396   16.3489   12.9922 C   0  0  0  0  0  0  0  0  0  0  0  0
   13.0219   17.5076   13.5946 C   0  0  0  0  0  0  0  0  0  0  0  0
   12.5384   18.2930   13.4669 H   0  0  0  0  0  0  0  0  0  0  0  0
   14.1798   17.4925   14.4249 C   0  0  0  0  0  0  0  0  0  0  0  0
   14.4649   18.2671   14.8528 H   0  0  0  0  0  0  0  0  0  0  0  0
   14.8607   16.3316   14.5781 C   0  0  0  0  0  0  0  0  0  0  0  0
   15.5982   16.3295   15.1444 H   0  0  0  0  0  0  0  0  0  0  0  0
   14.5394   15.2183   13.9778 C   0  0  0  0  0  0  0  0  0  0  0  0
   15.0801   14.4674   14.0651 H   0  0  0  0  0  0  0  0  0  0  0  0
   13.3543   15.1622   13.1880 C   0  0  0  0  0  0  0  0  0  0  0  0
   13.0650   14.3617   12.8133 H   0  0  0  0  0  0  0  0  0  0  0  0
    7.4526   16.4287    9.7010 C   0  0  0  0  0  0  0  0  0  0  0  0
    8.0476   15.1622    9.5967 C   0  0  0  0  0  0  0  0  0  0  0  0
    8.9605   15.0478    9.7330 H   0  0  0  0  0  0  0  0  0  0  0  0
    7.2219   14.0833    9.2795 C   0  0  0  0  0  0  0  0  0  0  0  0
    7.5894   13.2289    9.2433 H   0  0  0  0  0  0  0  0  0  0  0  0
    5.9071   14.2408    9.0283 C   0  0  0  0  0  0  0  0  0  0  0  0
    5.3859   13.5050    8.8048 H   0  0  0  0  0  0  0  0  0  0  0  0
    5.3428   15.4729    9.1007 C   0  0  0  0  0  0  0  0  0  0  0  0
    4.4372   15.5743    8.9155 H   0  0  0  0  0  0  0  0  0  0  0  0
    6.0951   16.5690    9.4456 C   0  0  0  0  0  0  0  0  0  0  0  0
    5.6957   17.4062    9.5073 H   0  0  0  0  0  0  0  0  0  0  0  0
    7.8697   19.3351    9.7564 C   0  0  0  0  0  0  0  0  0  0  0  0
    7.2540   19.4474    8.5217 C   0  0  0  0  0  0  0  0  0  0  0  0
    7.0672   18.6857    8.0235 H   0  0  0  0  0  0  0  0  0  0  0  0
    6.9146   20.7139    8.0278 C   0  0  0  0  0  0  0  0  0  0  0  0
    6.4944   20.7938    7.2018 H   0  0  0  0  0  0  0  0  0  0  0  0
    7.2055   21.8489    8.7707 C   0  0  0  0  0  0  0  0  0  0  0  0
    6.9660   22.6882    8.4514 H   0  0  0  0  0  0  0  0  0  0  0  0
    7.8419   21.7280    9.9693 C   0  0  0  0  0  0  0  0  0  0  0  0
    8.0522   22.4919   10.4546 H   0  0  0  0  0  0  0  0  0  0  0  0
    8.1796   20.4874   10.4759 C   0  0  0  0  0  0  0  0  0  0  0  0
    8.6118   20.4205   11.2976 H   0  0  0  0  0  0  0  0  0  0  0  0
    4.8930   18.3858   11.9469 C   0  0  0  0  0  0  0  0  0  0  0  0
    4.9375   19.5574   11.1827 C   0  0  0  0  0  0  0  0  0  0  0  0
    5.6055   20.1874   11.3274 H   0  0  0  0  0  0  0  0  0  0  0  0
    3.9750   19.7688   10.2119 C   0  0  0  0  0  0  0  0  0  0  0  0
    4.0088   20.5391    9.6925 H   0  0  0  0  0  0  0  0  0  0  0  0
    2.9778   18.8626   10.0097 C   0  0  0  0  0  0  0  0  0  0  0  0
    2.3511   19.0093    9.3370 H   0  0  0  0  0  0  0  0  0  0  0  0
    2.8940   17.7492   10.7782 C   0  0  0  0  0  0  0  0  0  0  0  0
    2.1870   17.1580   10.6547 H   0  0  0  0  0  0  0  0  0  0  0  0
    3.8410   17.4860   11.7340 C   0  0  0  0  0  0  0  0  0  0  0  0
    3.7837   16.7114   12.2428 H   0  0  0  0  0  0  0  0  0  0  0  0
    5.8062   16.3489   13.6734 C   0  0  0  0  0  0  0  0  0  0  0  0
    6.3092   15.2938   12.9219 C   0  0  0  0  0  0  0  0  0  0  0  0
    6.8792   15.4772   12.2109 H   0  0  0  0  0  0  0  0  0  0  0  0
    5.9990   14.0099   13.1923 C   0  0  0  0  0  0  0  0  0  0  0  0
    6.3187   13.3260   12.6473 H   0  0  0  0  0  0  0  0  0  0  0  0
    5.1943   13.7100   14.2950 C   0  0  0  0  0  0  0  0  0  0  0  0
    4.9942   12.8232   14.4972 H   0  0  0  0  0  0  0  0  0  0  0  0
    4.7059   14.7047   15.0656 C   0  0  0  0  0  0  0  0  0  0  0  0
    4.1633   14.5041   15.7937 H   0  0  0  0  0  0  0  0  0  0  0  0
    5.0120   16.0209   14.7719 C   0  0  0  0  0  0  0  0  0  0  0  0
    4.6842   16.7006   15.3168 H   0  0  0  0  0  0  0  0  0  0  0  0
   10.1205   19.2877   15.1465 C   0  0  0  0  0  0  0  0  0  0  0  0
   10.8255   19.2402   16.3089 C   0  0  0  0  0  0  0  0  0  0  0  0
   10.5441   18.6706   16.9880 H   0  0  0  0  0  0  0  0  0  0  0  0
   11.9302   20.0019   16.5005 C   0  0  0  0  0  0  0  0  0  0  0  0
   12.4315   19.9026   17.2775 H   0  0  0  0  0  0  0  0  0  0  0  0
   12.3169   20.9297   15.5340 C   0  0  0  0  0  0  0  0  0  0  0  0
   13.0099   21.5274   15.7000 H   0  0  0  0  0  0  0  0  0  0  0  0
   11.6680   20.9426   14.3653 C   0  0  0  0  0  0  0  0  0  0  0  0
   11.9923   21.4777   13.6776 H   0  0  0  0  0  0  0  0  0  0  0  0
   10.5284   20.1831   14.1417 C   0  0  0  0  0  0  0  0  0  0  0  0
   10.0483   20.2651   13.3498 H   0  0  0  0  0  0  0  0  0  0  0  0
    8.8214   16.8193   15.8639 C   0  0  0  0  0  0  0  0  0  0  0  0
    7.7728   16.2259   16.4962 C   0  0  0  0  0  0  0  0  0  0  0  0
    6.9599   16.6725   16.5516 H   0  0  0  0  0  0  0  0  0  0  0  0
    7.8930   14.9895   17.0518 C   0  0  0  0  0  0  0  0  0  0  0  0
    7.1519   14.6033   17.4606 H   0  0  0  0  0  0  0  0  0  0  0  0
    9.0734   14.2948   17.0305 C   0  0  0  0  0  0  0  0  0  0  0  0
    9.1342   13.4403   17.3903 H   0  0  0  0  0  0  0  0  0  0  0  0
   10.1668   14.9011   16.4579 C   0  0  0  0  0  0  0  0  0  0  0  0
   10.9881   14.4652   16.4600 H   0  0  0  0  0  0  0  0  0  0  0  0
   10.0565   16.1504   15.8831 C   0  0  0  0  0  0  0  0  0  0  0  0
   10.8043   16.5517   15.5042 H   0  0  0  0  0  0  0  0  0  0  0  0
    7.2298   19.2510   15.4595 C   0  0  0  0  0  0  0  0  0  0  0  0
    5.9507   19.1474   14.5462 C   0  0  0  0  0  0  0  0  0  0  0  0
   10.8895   16.0058    8.1534 H   0  0  0  0  0  0  0  0  0  0  0  0
    5.6707   18.6900   16.9454 H   0  0  0  0  0  0  0  0  0  0  0  0
  1  3  1  0  0  0  0
  2  6  2  0  0  0  0
  3 55  1  0  0  0  0
  4  1  1  0  0  0  0
  5  1  1  0  0  0  0
  6  1  1  0  0  0  0
  7  8  1  0  0  0  0
  9  7  1  0  0  0  0
 10  9  1  0  0  0  0
 11  7  1  0  0  0  0
 12 11  1  0  0  0  0
 13  7  1  0  0  0  0
 14 13  1  0  0  0  0
 15  7  1  0  0  0  0
 16 15  1  0  0  0  0
 17  7  1  0  0  0  0
 18 17  1  0  0  0  0
 19 11  1  0  0  0  0
 20 19  1  0  0  0  0
 21 13  1  0  0  0  0
 22 21  1  0  0  0  0
 23 15  1  0  0  0  0
 24 23  1  0  0  0  0
 25 26  1  0  0  0  0
 27 25  1  0  0  0  0
 28 27  1  0  0  0  0
 29 25  1  0  0  0  0
 30 29  1  0  0  0  0
 31 25  1  0  0  0  0
 32 31  1  0  0  0  0
 33 25  1  0  0  0  0
 34 33  1  0  0  0  0
 35 25  1  0  0  0  0
 36 35  1  0  0  0  0
 37 29  1  0  0  0  0
 38 37  1  0  0  0  0
 39 31  1  0  0  0  0
 40 39  1  0  0  0  0
 41 33  1  0  0  0  0
 42 41  1  0  0  0  0
 43  2  1  0  0  0  0
 44 43  4  0  0  0  0
 45 44  1  0  0  0  0
 46 44  4  0  0  0  0
 47 46  1  0  0  0  0
 48 46  4  0  0  0  0
 49 48  1  0  0  0  0
 50 48  4  0  0  0  0
 51 50  1  0  0  0  0
 52 43  4  0  0  0  0
 53 52  1  0  0  0  0
 54  2  1  0  0  0  0
 55  9  1  0  0  0  0
 56  2  1  0  0  0  0
 57 56  4  0  0  0  0
 58 57  1  0  0  0  0
 59 57  4  0  0  0  0
 60 59  1  0  0  0  0
 61 59  4  0  0  0  0
 62 61  1  0  0  0  0
 63 61  4  0  0  0  0
 64 63  1  0  0  0  0
 65 56  4  0  0  0  0
 66 65  1  0  0  0  0
 67  3  1  0  0  0  0
 68 67  4  0  0  0  0
 69 68  1  0  0  0  0
 70 68  4  0  0  0  0
 71 70  1  0  0  0  0
 72 70  4  0  0  0  0
 73 72  1  0  0  0  0
 74 72  4  0  0  0  0
 75 74  1  0  0  0  0
 76 67  4  0  0  0  0
 77 76  1  0  0  0  0
 78  3  1  0  0  0  0
 79 78  4  0  0  0  0
 80 79  1  0  0  0  0
 81 79  4  0  0  0  0
 82 81  1  0  0  0  0
 83 81  4  0  0  0  0
 84 83  1  0  0  0  0
 85 83  4  0  0  0  0
 86 85  1  0  0  0  0
 87 78  4  0  0  0  0
 88 87  1  0  0  0  0
 89  4  1  0  0  0  0
 90 89  4  0  0  0  0
 91 90  1  0  0  0  0
 92 90  4  0  0  0  0
 93 92  1  0  0  0  0
 94 92  4  0  0  0  0
 95 94  1  0  0  0  0
 96 94  4  0  0  0  0
 97 96  1  0  0  0  0
 98 89  4  0  0  0  0
 99 98  1  0  0  0  0
100  4  1  0  0  0  0
101100  4  0  0  0  0
102101  1  0  0  0  0
103101  4  0  0  0  0
104103  1  0  0  0  0
105103  4  0  0  0  0
106105  1  0  0  0  0
107105  4  0  0  0  0
108107  1  0  0  0  0
109100  4  0  0  0  0
110109  1  0  0  0  0
111  5  1  0  0  0  0
112111  4  0  0  0  0
113112  1  0  0  0  0
114112  4  0  0  0  0
115114  1  0  0  0  0
116114  4  0  0  0  0
117116  1  0  0  0  0
118116  4  0  0  0  0
119118  1  0  0  0  0
120111  4  0  0  0  0
121120  1  0  0  0  0
122  5  1  0  0  0  0
123122  4  0  0  0  0
124123  1  0  0  0  0
125123  4  0  0  0  0
126125  1  0  0  0  0
127125  4  0  0  0  0
128127  1  0  0  0  0
129127  4  0  0  0  0
130129  1  0  0  0  0
131122  4  0  0  0  0
132131  1  0  0  0  0
133  5  1  0  0  0  0
134  4  1  0  0  0  0
135 21  1  0  0  0  0
136 39  1  0  0  0  0
  9 11  1  0  0  0  0
  9 17  1  0  0  0  0
  9 54  1  0  0  0  0
 11 13  1  0  0  0  0
 11 54  1  0  0  0  0
 13 15  1  0  0  0  0
 13 19  1  0  0  0  0
 15 17  1  0  0  0  0
 15 21  1  0  0  0  0
 17 23  1  0  0  0  0
 17 55  1  0  0  0  0
 19 21  1  0  0  0  0
 19 54  1  0  0  0  0
 21 23  1  0  0  0  0
 23 55  1  0  0  0  0
 23135  1  0  0  0  0
 27 29  1  0  0  0  0
 27 35  1  0  0  0  0
 27133  1  0  0  0  0
 27134  1  0  0  0  0
 29 31  1  0  0  0  0
 29134  1  0  0  0  0
 31 33  1  0  0  0  0
 31 37  1  0  0  0  0
 33 35  1  0  0  0  0
 33 39  1  0  0  0  0
 35 41  1  0  0  0  0
 35133  1  0  0  0  0
 37 39  1  0  0  0  0
 37134  1  0  0  0  0
 39 41  1  0  0  0  0
 41133  1  0  0  0  0
 41136  1  0  0  0  0
 50 52  4  0  0  0  0
 54 55  1  0  0  0  0
 63 65  4  0  0  0  0
 74 76  4  0  0  0  0
 85 87  4  0  0  0  0
 96 98  4  0  0  0  0
107109  4  0  0  0  0
118120  4  0  0  0  0
129131  4  0  0  0  0
133134  1  0  0  0  0
M  END
$$$$
WEZHIS

From CSD data. Using bond type 'Any'. Matching problem. No disordered atoms. Largest molecule.
 88110  0  0  0  0  0  0  0  0999 V2000
    6.4063    2.2728    4.4390 Ir  0  0  0  0  0  0  0  0  0  0  0  0
    8.3621    0.5963    4.9995 Ag  0  0  0  0  0  0  0  0  0  0  0  0
   13.8998    0.1871    6.7438 Br  0  0  0  0  0  0  0  0  0  0  0  0
    9.6393    0.6180    7.6834 Br  0  0  0  0  0  0  0  0  0  0  0  0
    8.6212   -2.3416    4.8863 Br  0  0  0  0  0  0  0  0  0  0  0  0
   12.9206   -2.9161    3.8570 Br  0  0  0  0  0  0  0  0  0  0  0  0
   10.9974    0.4309    4.2037 Br  0  0  0  0  0  0  0  0  0  0  0  0
    7.6303    4.1979    4.2971 P   0  0  0  0  0  0  0  0  0  0  0  0
    4.9509    0.5178    4.5612 P   0  0  0  0  0  0  0  0  0  0  0  0
    5.9018    2.7628    6.7798 Cl  0  0  0  0  0  0  0  0  0  0  0  0
    6.4753    2.1690    2.0605 C   0  0  0  0  0  0  0  0  0  0  0  0
   12.7840   -2.7894    7.0780 B   0  0  0  0  0  0  0  0  0  0  0  0
   11.8739   -1.8419    8.1918 B   0  0  0  0  0  0  0  0  0  0  0  0
   10.0573   -2.5130    7.6600 B   0  0  0  0  0  0  0  0  0  0  0  0
   11.1170   -3.6041    6.3935 B   0  0  0  0  0  0  0  0  0  0  0  0
   12.4848   -1.1623    6.7025 B   0  0  0  0  0  0  0  0  0  0  0  0
   10.8137   -0.8558    7.0654 B   0  0  0  0  0  0  0  0  0  0  0  0
   10.2646   -2.1135    5.8259 B   0  0  0  0  0  0  0  0  0  0  0  0
   12.0354   -2.3887    5.4738 B   0  0  0  0  0  0  0  0  0  0  0  0
   11.2622   -0.8702    5.5384 B   0  0  0  0  0  0  0  0  0  0  0  0
   11.5606   -3.2975    7.9960 C   0  0  0  0  0  0  0  0  0  0  0  0
    6.4196    5.4846    3.5965 C   0  0  0  0  0  0  0  0  0  0  0  0
    5.1940    5.5655    4.2594 C   0  0  0  0  0  0  0  0  0  0  0  0
    4.3594    6.5069    3.6809 C   0  0  0  0  0  0  0  0  0  0  0  0
    4.6536    7.2287    2.6408 C   0  0  0  0  0  0  0  0  0  0  0  0
    5.8653    7.0573    2.0695 C   0  0  0  0  0  0  0  0  0  0  0  0
    6.8155    6.1605    2.5222 C   0  0  0  0  0  0  0  0  0  0  0  0
    9.1295    4.2716    3.4079 C   0  0  0  0  0  0  0  0  0  0  0  0
    9.8314    5.5739    3.5031 C   0  0  0  0  0  0  0  0  0  0  0  0
   11.0578    5.6126    2.8096 C   0  0  0  0  0  0  0  0  0  0  0  0
   11.4634    4.6433    1.9312 C   0  0  0  0  0  0  0  0  0  0  0  0
   10.7388    3.4846    1.8845 C   0  0  0  0  0  0  0  0  0  0  0  0
    9.5931    3.3699    2.5725 C   0  0  0  0  0  0  0  0  0  0  0  0
    8.1670    4.7677    5.9013 C   0  0  0  0  0  0  0  0  0  0  0  0
    7.7031    5.9191    6.3486 C   0  0  0  0  0  0  0  0  0  0  0  0
    8.0865    6.5154    7.5900 C   0  0  0  0  0  0  0  0  0  0  0  0
    8.9493    5.7719    8.3606 C   0  0  0  0  0  0  0  0  0  0  0  0
    9.5475    4.6832    7.8379 C   0  0  0  0  0  0  0  0  0  0  0  0
    9.0144    4.1907    6.6450 C   0  0  0  0  0  0  0  0  0  0  0  0
    5.2424   -0.9354    5.6606 C   0  0  0  0  0  0  0  0  0  0  0  0
    4.7477   -2.1895    5.5151 C   0  0  0  0  0  0  0  0  0  0  0  0
    5.0686   -3.0923    6.3702 C   0  0  0  0  0  0  0  0  0  0  0  0
    5.6774   -2.8558    7.5289 C   0  0  0  0  0  0  0  0  0  0  0  0
    6.1236   -1.6536    7.7606 C   0  0  0  0  0  0  0  0  0  0  0  0
    5.9609   -0.5757    6.8085 C   0  0  0  0  0  0  0  0  0  0  0  0
    3.3215    1.0658    5.0049 C   0  0  0  0  0  0  0  0  0  0  0  0
    2.4719    0.4587    5.7899 C   0  0  0  0  0  0  0  0  0  0  0  0
    1.2398    1.0706    5.9337 C   0  0  0  0  0  0  0  0  0  0  0  0
    0.8743    2.3247    5.3624 C   0  0  0  0  0  0  0  0  0  0  0  0
    1.7255    2.9234    4.6205 C   0  0  0  0  0  0  0  0  0  0  0  0
    3.0700    2.3162    4.4192 C   0  0  0  0  0  0  0  0  0  0  0  0
    4.6485   -0.3911    3.0468 C   0  0  0  0  0  0  0  0  0  0  0  0
    3.3851   -0.4731    2.4899 C   0  0  0  0  0  0  0  0  0  0  0  0
    3.3090   -1.1901    1.3006 C   0  0  0  0  0  0  0  0  0  0  0  0
    4.2826   -1.6451    0.5587 C   0  0  0  0  0  0  0  0  0  0  0  0
    5.4958   -1.4810    1.1210 C   0  0  0  0  0  0  0  0  0  0  0  0
    5.6701   -0.9403    2.3408 C   0  0  0  0  0  0  0  0  0  0  0  0
   11.2883   -4.2643    8.4541 H   0  0  0  0  0  0  0  0  0  0  0  0
    4.9569    4.9559    5.1396 H   0  0  0  0  0  0  0  0  0  0  0  0
    3.3361    6.6651    4.0474 H   0  0  0  0  0  0  0  0  0  0  0  0
    4.0687    8.0664    2.3210 H   0  0  0  0  0  0  0  0  0  0  0  0
    6.0751    7.5957    1.1749 H   0  0  0  0  0  0  0  0  0  0  0  0
    7.7797    5.9529    2.0893 H   0  0  0  0  0  0  0  0  0  0  0  0
    9.4594    6.3995    4.0797 H   0  0  0  0  0  0  0  0  0  0  0  0
   11.7136    6.4333    2.9659 H   0  0  0  0  0  0  0  0  0  0  0  0
   12.3803    4.7375    1.3024 H   0  0  0  0  0  0  0  0  0  0  0  0
   11.0502    2.6494    1.3150 H   0  0  0  0  0  0  0  0  0  0  0  0
    9.0122    2.4744    2.4378 H   0  0  0  0  0  0  0  0  0  0  0  0
    6.9485    6.4381    5.8079 H   0  0  0  0  0  0  0  0  0  0  0  0
    7.7274    7.5027    7.9097 H   0  0  0  0  0  0  0  0  0  0  0  0
    9.1602    6.0121    9.3900 H   0  0  0  0  0  0  0  0  0  0  0  0
   10.3971    4.2052    8.2978 H   0  0  0  0  0  0  0  0  0  0  0  0
    9.3553    3.2480    6.3073 H   0  0  0  0  0  0  0  0  0  0  0  0
    4.0424   -2.3681    4.7031 H   0  0  0  0  0  0  0  0  0  0  0  0
    4.8354   -4.1352    6.1115 H   0  0  0  0  0  0  0  0  0  0  0  0
    5.7756   -3.6379    8.2529 H   0  0  0  0  0  0  0  0  0  0  0  0
    6.6524   -1.4472    8.7271 H   0  0  0  0  0  0  0  0  0  0  0  0
    6.3384    0.4068    6.9199 H   0  0  0  0  0  0  0  0  0  0  0  0
    2.7539   -0.3766    6.2211 H   0  0  0  0  0  0  0  0  0  0  0  0
    0.5432    0.4840    6.5265 H   0  0  0  0  0  0  0  0  0  0  0  0
   -0.1466    2.7025    5.5366 H   0  0  0  0  0  0  0  0  0  0  0  0
    1.5947    3.9879    4.2845 H   0  0  0  0  0  0  0  0  0  0  0  0
    3.8099    2.7725    3.7079 H   0  0  0  0  0  0  0  0  0  0  0  0
    2.5432    0.0157    2.9480 H   0  0  0  0  0  0  0  0  0  0  0  0
    2.2934   -1.3917    0.9431 H   0  0  0  0  0  0  0  0  0  0  0  0
    4.1209   -2.0447   -0.4078 H   0  0  0  0  0  0  0  0  0  0  0  0
    6.3484   -1.8021    0.5353 H   0  0  0  0  0  0  0  0  0  0  0  0
    6.6606   -0.9668    2.8096 H   0  0  0  0  0  0  0  0  0  0  0  0
  1  2  1  0  0  0  0
  2  4  1  0  0  0  0
  3 16  1  0  0  0  0
  4 17  1  0  0  0  0
  5  2  1  0  0  0  0
  6 19  1  0  0  0  0
  7  2  1  0  0  0  0
  8  1  1  0  0  0  0
  9  1  1  0  0  0  0
 10  1  1  0  0  0  0
 11  1  1  0  0  0  0
 12 13  1  0  0  0  0
 13 14  1  0  0  0  0
 14 15  1  0  0  0  0
 15 12  1  0  0  0  0
 16 12  1  0  0  0  0
 17 13  1  0  0  0  0
 18  5  1  0  0  0  0
 19 12  1  0  0  0  0
 20  7  1  0  0  0  0
 21 12  1  0  0  0  0
 22  8  1  0  0  0  0
 23 22  1  0  0  0  0
 24 23  1  0  0  0  0
 25 24  1  0  0  0  0
 26 25  1  0  0  0  0
 27 22  1  0  0  0  0
 28  8  1  0  0  0  0
 29 28  1  0  0  0  0
 30 29  1  0  0  0  0
 31 30  1  0  0  0  0
 32 31  1  0  0  0  0
 33 28  1  0  0  0  0
 34  8  1  0  0  0  0
 35 34  1  0  0  0  0
 36 35  1  0  0  0  0
 37 36  1  0  0  0  0
 38 37  1  0  0  0  0
 39 34  1  0  0  0  0
 40  9  1  0  0  0  0
 41 40  1  0  0  0  0
 42 41  1  0  0  0  0
 43 42  1  0  0  0  0
 44 43  1  0  0  0  0
 45 40  1  0  0  0  0
 46  9  1  0  0  0  0
 47 46  1  0  0  0  0
 48 47  1  0  0  0  0
 49 48  1  0  0  0  0
 50 49  1  0  0  0  0
 51 46  1  0  0  0  0
 52  9  1  0  0  0  0
 53 52  1  0  0  0  0
 54 53  1  0  0  0  0
 55 54  1  0  0  0  0
 56 55  1  0  0  0  0
 57 52  1  0  0  0  0
 58 21  1  0  0  0  0
 59 23  1  0  0  0  0
 60 24  1  0  0  0  0
 61 25  1  0  0  0  0
 62 26  1  0  0  0  0
 63 27  1  0  0  0  0
 64 29  1  0  0  0  0
 65 30  1  0  0  0  0
 66 31  1  0  0  0  0
 67 32  1  0  0  0  0
 68 33  1  0  0  0  0
 69 35  1  0  0  0  0
 70 36  1  0  0  0  0
 71 37  1  0  0  0  0
 72 38  1  0  0  0  0
 73 39  1  0  0  0  0
 74 41  1  0  0  0  0
 75 42  1  0  0  0  0
 76 43  1  0  0  0  0
 77 44  1  0  0  0  0
 78 45  1  0  0  0  0
 79 47  1  0  0  0  0
 80 48  1  0  0  0  0
 81 49  1  0  0  0  0
 82 50  1  0  0  0  0
 83 51  1  0  0  0  0
 84 53  1  0  0  0  0
 85 54  1  0  0  0  0
 86 55  1  0  0  0  0
 87 56  1  0  0  0  0
 88 57  1  0  0  0  0
 13 16  1  0  0  0  0
 13 21  1  0  0  0  0
 14 17  1  0  0  0  0
 14 18  1  0  0  0  0
 14 21  1  0  0  0  0
 15 18  1  0  0  0  0
 15 19  1  0  0  0  0
 15 21  1  0  0  0  0
 16 17  1  0  0  0  0
 16 19  1  0  0  0  0
 16 20  1  0  0  0  0
 17 18  1  0  0  0  0
 17 20  1  0  0  0  0
 18 19  1  0  0  0  0
 18 20  1  0  0  0  0
 19 20  1  0  0  0  0
 26 27  1  0  0  0  0
 32 33  1  0  0  0  0
 38 39  1  0  0  0  0
 44 45  1  0  0  0  0
 50 51  1  0  0  0  0
 56 57  1  0  0  0  0
M  END
$$$$
WIJWET

From CSD data. Using bond type 'Any'. No disordered atoms. Largest molecule.
108118  0  0  0  0  0  0  0  0999 V2000
   11.4745    6.0419    2.2094 Rh  0  0  0  0  0  0  0  0  0  0  0  0
    8.6103    6.8547    6.2526 Rh  0  0  0  0  0  0  0  0  0  0  0  0
   10.3471    4.5669    0.8748 P   0  0  0  0  0  0  0  0  0  0  0  0
    9.8874    6.0690    7.9840 P   0  0  0  0  0  0  0  0  0  0  0  0
   13.2238    3.8288    3.1388 O   0  0  0  0  0  0  0  0  0  0  0  0
    6.9532    4.3981    6.3499 O   0  0  0  0  0  0  0  0  0  0  0  0
   10.2902    7.5910    1.4351 N   0  0  0  0  0  0  0  0  0  0  0  0
    8.9507    7.4945    1.1127 N   0  0  0  0  0  0  0  0  0  0  0  0
    9.6774    8.6698    6.3339 N   0  0  0  0  0  0  0  0  0  0  0  0
   11.0306    8.8113    6.4910 N   0  0  0  0  0  0  0  0  0  0  0  0
    8.0608    6.2609    1.5577 B   0  0  0  0  0  0  0  0  0  0  0  0
   12.0185    7.5477    6.5808 B   0  0  0  0  0  0  0  0  0  0  0  0
   11.1807    4.5929   -0.7445 C   0  0  0  0  0  0  0  0  0  0  0  0
   10.6477    5.2088   -1.8657 C   0  0  0  0  0  0  0  0  0  0  0  0
    9.7696    5.5684   -1.8302 H   0  0  0  0  0  0  0  0  0  0  0  0
   11.3839    5.3054   -3.0422 C   0  0  0  0  0  0  0  0  0  0  0  0
   11.0026    5.7149   -3.8111 H   0  0  0  0  0  0  0  0  0  0  0  0
   12.6767    4.8043   -3.0865 C   0  0  0  0  0  0  0  0  0  0  0  0
   13.1920    4.8959   -3.8798 H   0  0  0  0  0  0  0  0  0  0  0  0
   13.2202    4.1717   -1.9875 C   0  0  0  0  0  0  0  0  0  0  0  0
   14.0970    3.8088   -2.0274 H   0  0  0  0  0  0  0  0  0  0  0  0
   12.4777    4.0735   -0.8287 C   0  0  0  0  0  0  0  0  0  0  0  0
   12.8559    3.6424   -0.0709 H   0  0  0  0  0  0  0  0  0  0  0  0
   10.3727    2.8150    1.3782 C   0  0  0  0  0  0  0  0  0  0  0  0
   10.1208    2.4904    2.7254 C   0  0  0  0  0  0  0  0  0  0  0  0
   10.0213    3.1812    3.3702 H   0  0  0  0  0  0  0  0  0  0  0  0
   10.0186    1.1603    3.1109 C   0  0  0  0  0  0  0  0  0  0  0  0
    9.8330    0.9439    4.0172 H   0  0  0  0  0  0  0  0  0  0  0  0
   10.1824    0.1565    2.1914 C   0  0  0  0  0  0  0  0  0  0  0  0
   10.1192   -0.7508    2.4617 H   0  0  0  0  0  0  0  0  0  0  0  0
   10.4390    0.4661    0.8819 C   0  0  0  0  0  0  0  0  0  0  0  0
   10.5601   -0.2331    0.2504 H   0  0  0  0  0  0  0  0  0  0  0  0
   10.5242    1.7779    0.4697 C   0  0  0  0  0  0  0  0  0  0  0  0
   10.6893    1.9727   -0.4454 H   0  0  0  0  0  0  0  0  0  0  0  0
    8.5766    4.9508    0.7024 C   0  0  0  0  0  0  0  0  0  0  0  0
    8.3794    5.1023   -0.2548 H   0  0  0  0  0  0  0  0  0  0  0  0
    8.0541    4.1618    0.9927 H   0  0  0  0  0  0  0  0  0  0  0  0
   10.6935    8.7796    0.9727 C   0  0  0  0  0  0  0  0  0  0  0  0
   11.5784    9.1126    1.0591 H   0  0  0  0  0  0  0  0  0  0  0  0
    9.6639    9.4622    0.3567 C   0  0  0  0  0  0  0  0  0  0  0  0
    9.6961   10.3195   -0.0532 H   0  0  0  0  0  0  0  0  0  0  0  0
    8.5766    8.6215    0.4742 C   0  0  0  0  0  0  0  0  0  0  0  0
    7.7016    8.8079    0.1529 H   0  0  0  0  0  0  0  0  0  0  0  0
    8.2267    6.0179    3.1774 C   0  0  0  0  0  0  0  0  0  0  0  0
    7.5273    5.3870    3.4787 H   0  0  0  0  0  0  0  0  0  0  0  0
    9.1068    5.5967    3.3480 H   0  0  0  0  0  0  0  0  0  0  0  0
    8.1276    7.2764    3.9928 C   0  0  0  0  0  0  0  0  0  0  0  0
    8.9485    7.9173    3.9662 H   0  0  0  0  0  0  0  0  0  0  0  0
    7.0630    7.6576    4.7616 C   0  0  0  0  0  0  0  0  0  0  0  0
    6.4088    7.0983    4.6398 H   0  0  0  0  0  0  0  0  0  0  0  0
    6.9541    8.4300    5.3222 H   0  0  0  0  0  0  0  0  0  0  0  0
    6.5061    6.6072    1.1677 C   0  0  0  0  0  0  0  0  0  0  0  0
    6.2051    7.3796    1.7106 H   0  0  0  0  0  0  0  0  0  0  0  0
    6.4675    6.8752    0.2149 H   0  0  0  0  0  0  0  0  0  0  0  0
    5.5590    5.4669    1.3848 C   0  0  0  0  0  0  0  0  0  0  0  0
    5.7187    4.6778    0.8819 H   0  0  0  0  0  0  0  0  0  0  0  0
    4.5319    5.4486    2.2025 C   0  0  0  0  0  0  0  0  0  0  0  0
    4.3302    6.2127    2.7298 H   0  0  0  0  0  0  0  0  0  0  0  0
    3.9910    4.6695    2.2667 H   0  0  0  0  0  0  0  0  0  0  0  0
   12.5531    4.6994    2.7741 C   0  0  0  0  0  0  0  0  0  0  0  0
    9.1754    6.3442    9.6407 C   0  0  0  0  0  0  0  0  0  0  0  0
    7.8040    6.3492    9.8202 C   0  0  0  0  0  0  0  0  0  0  0  0
    7.2316    6.2609    9.0668 H   0  0  0  0  0  0  0  0  0  0  0  0
    7.2571    6.4807   11.0810 C   0  0  0  0  0  0  0  0  0  0  0  0
    6.3139    6.4557   11.1940 H   0  0  0  0  0  0  0  0  0  0  0  0
    8.0772    6.6488   12.1844 C   0  0  0  0  0  0  0  0  0  0  0  0
    7.6975    6.7603   13.0486 H   0  0  0  0  0  0  0  0  0  0  0  0
    9.4603    6.6521   12.0249 C   0  0  0  0  0  0  0  0  0  0  0  0
   10.0279    6.7653   12.7782 H   0  0  0  0  0  0  0  0  0  0  0  0
   10.0028    6.4907   10.7530 C   0  0  0  0  0  0  0  0  0  0  0  0
   10.9472    6.4790   10.6400 H   0  0  0  0  0  0  0  0  0  0  0  0
   10.0873    4.2516    7.8991 C   0  0  0  0  0  0  0  0  0  0  0  0
    9.2580    3.3910    8.6104 C   0  0  0  0  0  0  0  0  0  0  0  0
    8.6168    3.7456    9.2153 H   0  0  0  0  0  0  0  0  0  0  0  0
    9.3607    2.0176    8.4464 C   0  0  0  0  0  0  0  0  0  0  0  0
    8.7782    1.4450    8.9295 H   0  0  0  0  0  0  0  0  0  0  0  0
   10.2961    1.4733    7.5912 C   0  0  0  0  0  0  0  0  0  0  0  0
   10.3783    0.5310    7.4981 H   0  0  0  0  0  0  0  0  0  0  0  0
   11.1110    2.3256    6.8710 C   0  0  0  0  0  0  0  0  0  0  0  0
   11.7486    1.9660    6.2661 H   0  0  0  0  0  0  0  0  0  0  0  0
   11.0109    3.6856    7.0151 C   0  0  0  0  0  0  0  0  0  0  0  0
   11.5807    4.2533    6.5077 H   0  0  0  0  0  0  0  0  0  0  0  0
   11.5674    6.7570    7.9612 C   0  0  0  0  0  0  0  0  0  0  0  0
   11.6535    7.3879    8.7190 H   0  0  0  0  0  0  0  0  0  0  0  0
   12.2071    6.0179    8.1163 H   0  0  0  0  0  0  0  0  0  0  0  0
    9.1721    9.9133    6.3149 C   0  0  0  0  0  0  0  0  0  0  0  0
    8.2489   10.1164    6.2196 H   0  0  0  0  0  0  0  0  0  0  0  0
   10.1638   10.8538    6.4500 C   0  0  0  0  0  0  0  0  0  0  0  0
   10.0699   11.7994    6.4678 H   0  0  0  0  0  0  0  0  0  0  0  0
   11.3233   10.1180    6.5586 C   0  0  0  0  0  0  0  0  0  0  0  0
   12.1954   10.4793    6.6628 H   0  0  0  0  0  0  0  0  0  0  0  0
   11.8339    6.6571    5.2203 C   0  0  0  0  0  0  0  0  0  0  0  0
   12.5216    5.9446    5.2114 H   0  0  0  0  0  0  0  0  0  0  0  0
   10.9474    6.2160    5.2469 H   0  0  0  0  0  0  0  0  0  0  0  0
   11.9405    7.4296    3.9706 C   0  0  0  0  0  0  0  0  0  0  0  0
   11.3089    8.2602    4.0304 H   0  0  0  0  0  0  0  0  0  0  0  0
   13.0296    7.4495    3.1198 C   0  0  0  0  0  0  0  0  0  0  0  0
   13.0266    8.2086    2.5215 H   0  0  0  0  0  0  0  0  0  0  0  0
   13.8083    6.7953    3.4167 H   0  0  0  0  0  0  0  0  0  0  0  0
   13.5528    8.0938    6.7337 C   0  0  0  0  0  0  0  0  0  0  0  0
   13.7787    8.6564    5.9537 H   0  0  0  0  0  0  0  0  0  0  0  0
   13.6199    8.6564    7.5468 H   0  0  0  0  0  0  0  0  0  0  0  0
   14.5297    6.9651    6.8334 C   0  0  0  0  0  0  0  0  0  0  0  0
   14.4928    6.4357    7.6200 H   0  0  0  0  0  0  0  0  0  0  0  0
   15.4430    6.6305    5.9293 C   0  0  0  0  0  0  0  0  0  0  0  0
   15.5201    7.1299    5.1250 H   0  0  0  0  0  0  0  0  0  0  0  0
   16.0184    5.8930    6.0889 H   0  0  0  0  0  0  0  0  0  0  0  0
    7.6099    5.3370    6.3082 C   0  0  0  0  0  0  0  0  0  0  0  0
  1  3  1  0  0  0  0
  2  4  1  0  0  0  0
  3 13  1  0  0  0  0
  4 61  1  0  0  0  0
  5 60  3  0  0  0  0
  6108  3  0  0  0  0
  7  1  1  0  0  0  0
  8  7  4  0  0  0  0
  9  2  1  0  0  0  0
 10  9  4  0  0  0  0
 11  8  1  0  0  0  0
 12 10  1  0  0  0  0
 13 14  4  0  0  0  0
 14 15  1  0  0  0  0
 16 14  4  0  0  0  0
 17 16  1  0  0  0  0
 18 16  4  0  0  0  0
 19 18  1  0  0  0  0
 20 18  4  0  0  0  0
 21 20  1  0  0  0  0
 22 13  4  0  0  0  0
 23 22  1  0  0  0  0
 24  3  1  0  0  0  0
 25 24  4  0  0  0  0
 26 25  1  0  0  0  0
 27 25  4  0  0  0  0
 28 27  1  0  0  0  0
 29 27  4  0  0  0  0
 30 29  1  0  0  0  0
 31 29  4  0  0  0  0
 32 31  1  0  0  0  0
 33 24  4  0  0  0  0
 34 33  1  0  0  0  0
 35  3  1  0  0  0  0
 36 35  1  0  0  0  0
 37 35  1  0  0  0  0
 38  7  4  0  0  0  0
 39 38  1  0  0  0  0
 40 38  4  0  0  0  0
 41 40  1  0  0  0  0
 42  8  4  0  0  0  0
 43 42  1  0  0  0  0
 44 11  1  0  0  0  0
 45 44  1  0  0  0  0
 46 44  1  0  0  0  0
 47  2  8  0  0  0  0
 48 47  1  0  0  0  0
 49  2  8  0  0  0  0
 50 49  1  0  0  0  0
 51 49  1  0  0  0  0
 52 11  1  0  0  0  0
 53 52  1  0  0  0  0
 54 52  1  0  0  0  0
 55 52  1  0  0  0  0
 56 55  1  0  0  0  0
 57 55  2  0  0  0  0
 58 57  1  0  0  0  0
 59 57  1  0  0  0  0
 60  1  1  0  0  0  0
 61 62  4  0  0  0  0
 62 63  1  0  0  0  0
 64 62  4  0  0  0  0
 65 64  1  0  0  0  0
 66 64  4  0  0  0  0
 67 66  1  0  0  0  0
 68 66  4  0  0  0  0
 69 68  1  0  0  0  0
 70 61  4  0  0  0  0
 71 70  1  0  0  0  0
 72  4  1  0  0  0  0
 73 72  4  0  0  0  0
 74 73  1  0  0  0  0
 75 73  4  0  0  0  0
 76 75  1  0  0  0  0
 77 75  4  0  0  0  0
 78 77  1  0  0  0  0
 79 77  4  0  0  0  0
 80 79  1  0  0  0  0
 81 72  4  0  0  0  0
 82 81  1  0  0  0  0
 83  4  1  0  0  0  0
 84 83  1  0  0  0  0
 85 83  1  0  0  0  0
 86  9  4  0  0  0  0
 87 86  1  0  0  0  0
 88 86  4  0  0  0  0
 89 88  1  0  0  0  0
 90 10  4  0  0  0  0
 91 90  1  0  0  0  0
 92 12  1  0  0  0  0
 93 92  1  0  0  0  0
 94 92  1  0  0  0  0
 95  1  8  0  0  0  0
 96 95  1  0  0  0  0
 97  1  8  0  0  0  0
 98 97  1  0  0  0  0
 99 97  1  0  0  0  0
100 12  1  0  0  0  0
101100  1  0  0  0  0
102100  1  0  0  0  0
103100  1  0  0  0  0
104103  1  0  0  0  0
105103  2  0  0  0  0
106105  1  0  0  0  0
107105  1  0  0  0  0
108  2  1  0  0  0  0
 11 35  1  0  0  0  0
 12 83  1  0  0  0  0
 20 22  4  0  0  0  0
 31 33  4  0  0  0  0
 40 42  4  0  0  0  0
 44 47  1  0  0  0  0
 47 49  2  0  0  0  0
 68 70  4  0  0  0  0
 79 81  4  0  0  0  0
 88 90  4  0  0  0  0
 92 95  1  0  0  0  0
 95 97  2  0  0  0  0
M  END
$$$$
WISMAQ

From CSD data. Using bond type 'Any'. No disordered atoms. Largest molecule.
149152  0  0  0  0  0  0  0  0999 V2000
    0.1188    6.9175    8.9830 C   0  0  0  0  0  0  0  0  0  0  0  0
   -0.2742    6.3097    8.3221 H   0  0  0  0  0  0  0  0  0  0  0  0
   -0.0122    6.5488    9.8826 H   0  0  0  0  0  0  0  0  0  0  0  0
    1.0773    7.0161    8.8075 H   0  0  0  0  0  0  0  0  0  0  0  0
   -0.3663    8.7729    7.4351 C   0  0  0  0  0  0  0  0  0  0  0  0
   -0.6939    8.0967    6.8066 H   0  0  0  0  0  0  0  0  0  0  0  0
    0.5844    8.9424    7.2668 H   0  0  0  0  0  0  0  0  0  0  0  0
   -0.8724    9.6030    7.3167 H   0  0  0  0  0  0  0  0  0  0  0  0
   -2.0642    8.0851    9.1610 C   0  0  0  0  0  0  0  0  0  0  0  0
   -2.5144    8.9510    9.0649 H   0  0  0  0  0  0  0  0  0  0  0  0
   -2.1976    7.7477   10.0712 H   0  0  0  0  0  0  0  0  0  0  0  0
   -2.4409    7.4488    8.5180 H   0  0  0  0  0  0  0  0  0  0  0  0
    5.5155   13.2888   21.7911 Br  0  0  0  0  0  0  0  0  0  0  0  0
    0.9508   14.1261   12.7034 P   0  0  0  0  0  0  0  0  0  0  0  0
    0.6127   11.5042   14.3855 P   0  0  0  0  0  0  0  0  0  0  0  0
    5.0634   10.7066    8.4519 Si  0  0  0  0  0  0  0  0  0  0  0  0
    5.0747   13.8604    8.5245 Si  0  0  0  0  0  0  0  0  0  0  0  0
    7.4758   12.2423   10.1846 O   0  0  0  0  0  0  0  0  0  0  0  0
    4.0082   12.6517   15.9341 N   0  0  0  0  0  0  0  0  0  0  0  0
    5.6210   12.2694   11.8988 N   0  0  0  0  0  0  0  0  0  0  0  0
    4.3464   12.8068   17.2617 C   0  0  0  0  0  0  0  0  0  0  0  0
    4.1044   14.0298   17.9389 C   0  0  0  0  0  0  0  0  0  0  0  0
    4.4427   14.1499   19.2892 C   0  0  0  0  0  0  0  0  0  0  0  0
    4.2749   14.9633   19.7497 H   0  0  0  0  0  0  0  0  0  0  0  0
    5.0192   13.0960   19.9507 C   0  0  0  0  0  0  0  0  0  0  0  0
    5.2719   11.8937   19.3212 C   0  0  0  0  0  0  0  0  0  0  0  0
    5.6793   11.1806   19.7992 H   0  0  0  0  0  0  0  0  0  0  0  0
    4.9274   11.7311   17.9799 C   0  0  0  0  0  0  0  0  0  0  0  0
    1.3771   14.8737   11.1044 C   0  0  0  0  0  0  0  0  0  0  0  0
    0.9808   14.3445   10.3808 H   0  0  0  0  0  0  0  0  0  0  0  0
    2.3514   14.8902   11.0012 H   0  0  0  0  0  0  0  0  0  0  0  0
    1.0288   15.7887   11.0686 H   0  0  0  0  0  0  0  0  0  0  0  0
    3.4391   15.2069   17.2514 C   0  0  0  0  0  0  0  0  0  0  0  0
    3.3867   15.0018   16.2739 H   0  0  0  0  0  0  0  0  0  0  0  0
    2.0143   15.3880   17.7694 C   0  0  0  0  0  0  0  0  0  0  0  0
    1.5969   16.1504   17.3173 H   0  0  0  0  0  0  0  0  0  0  0  0
    2.0359   15.5510   18.7347 H   0  0  0  0  0  0  0  0  0  0  0  0
    1.4954   14.5762   17.5864 H   0  0  0  0  0  0  0  0  0  0  0  0
    5.0816   10.3657   17.3263 C   0  0  0  0  0  0  0  0  0  0  0  0
    5.1827   10.5077   16.3416 H   0  0  0  0  0  0  0  0  0  0  0  0
    3.8085    9.5572   17.5532 C   0  0  0  0  0  0  0  0  0  0  0  0
    3.0303   10.0956   17.2959 H   0  0  0  0  0  0  0  0  0  0  0  0
    3.7394    9.3159   18.5002 H   0  0  0  0  0  0  0  0  0  0  0  0
    3.8368    8.7434   17.0090 H   0  0  0  0  0  0  0  0  0  0  0  0
    4.1780   12.3005   11.9250 C   0  0  0  0  0  0  0  0  0  0  0  0
    3.7398   12.2312   10.4565 C   0  0  0  0  0  0  0  0  0  0  0  0
    3.1529   13.0006   10.2470 H   0  0  0  0  0  0  0  0  0  0  0  0
    3.2256   11.3997   10.3010 H   0  0  0  0  0  0  0  0  0  0  0  0
    5.0001   12.2568    9.5186 C   0  0  0  0  0  0  0  0  0  0  0  0
    1.0237   11.2917   11.6765 C   0  0  0  0  0  0  0  0  0  0  0  0
    1.5594    9.9979   11.6065 C   0  0  0  0  0  0  0  0  0  0  0  0
    2.2855    9.7744   12.1762 H   0  0  0  0  0  0  0  0  0  0  0  0
    1.0694    9.0248   10.7361 C   0  0  0  0  0  0  0  0  0  0  0  0
    1.4451    8.1526   10.7522 H   0  0  0  0  0  0  0  0  0  0  0  0
    0.0379    9.3081    9.8429 C   0  0  0  0  0  0  0  0  0  0  0  0
   -0.4659   10.6017    9.8542 C   0  0  0  0  0  0  0  0  0  0  0  0
   -1.1478   10.8391    9.2367 H   0  0  0  0  0  0  0  0  0  0  0  0
    0.0048   11.5611   10.7508 C   0  0  0  0  0  0  0  0  0  0  0  0
   -0.3796   12.4297   10.7339 H   0  0  0  0  0  0  0  0  0  0  0  0
   -1.1077   11.0586   14.0488 C   0  0  0  0  0  0  0  0  0  0  0  0
   -1.6307   11.8718   13.8882 H   0  0  0  0  0  0  0  0  0  0  0  0
   -1.4782   10.5790   14.8191 H   0  0  0  0  0  0  0  0  0  0  0  0
   -1.1474   10.4832   13.2562 H   0  0  0  0  0  0  0  0  0  0  0  0
    1.7671   15.2156   13.8991 C   0  0  0  0  0  0  0  0  0  0  0  0
    2.7386   15.1446   13.7957 H   0  0  0  0  0  0  0  0  0  0  0  0
    1.5147   14.9499   14.8082 H   0  0  0  0  0  0  0  0  0  0  0  0
    1.4881   16.1417   13.7405 H   0  0  0  0  0  0  0  0  0  0  0  0
   -0.8195   14.5472   12.9097 C   0  0  0  0  0  0  0  0  0  0  0  0
   -0.9515   15.5011   12.7323 H   0  0  0  0  0  0  0  0  0  0  0  0
   -1.0989   14.3428   13.8267 H   0  0  0  0  0  0  0  0  0  0  0  0
   -1.3557   14.0201   12.2804 H   0  0  0  0  0  0  0  0  0  0  0  0
    4.2193   16.5168   17.4162 C   0  0  0  0  0  0  0  0  0  0  0  0
    5.1500   16.3794   17.1421 H   0  0  0  0  0  0  0  0  0  0  0  0
    4.1930   16.7967   18.3550 H   0  0  0  0  0  0  0  0  0  0  0  0
    3.8131   17.2116   16.8568 H   0  0  0  0  0  0  0  0  0  0  0  0
    6.3008    9.5819   17.8134 C   0  0  0  0  0  0  0  0  0  0  0  0
    6.4016    8.7676   17.2778 H   0  0  0  0  0  0  0  0  0  0  0  0
    6.1796    9.3407   18.7554 H   0  0  0  0  0  0  0  0  0  0  0  0
    7.1044   10.1359   17.7193 H   0  0  0  0  0  0  0  0  0  0  0  0
    6.7300   10.3969    7.6576 C   0  0  0  0  0  0  0  0  0  0  0  0
    6.7764    9.4674    7.3478 H   0  0  0  0  0  0  0  0  0  0  0  0
    7.4398   10.5570    8.3140 H   0  0  0  0  0  0  0  0  0  0  0  0
    6.8467   11.0009    6.8955 H   0  0  0  0  0  0  0  0  0  0  0  0
    5.6167   15.2762    9.6106 C   0  0  0  0  0  0  0  0  0  0  0  0
    5.5311   16.1178    9.1184 H   0  0  0  0  0  0  0  0  0  0  0  0
    6.5514   15.1450    9.8758 H   0  0  0  0  0  0  0  0  0  0  0  0
    5.0524   15.3068   10.4124 H   0  0  0  0  0  0  0  0  0  0  0  0
    8.6380   12.1236   10.9852 C   0  0  0  0  0  0  0  0  0  0  0  0
    9.3785   12.6032   10.5598 H   0  0  0  0  0  0  0  0  0  0  0  0
    8.8735   11.1762   11.0794 H   0  0  0  0  0  0  0  0  0  0  0  0
    8.4653   12.5061   11.8704 H   0  0  0  0  0  0  0  0  0  0  0  0
    6.3380   12.1752   13.1282 C   0  0  0  0  0  0  0  0  0  0  0  0
    6.6445   10.8971   13.6413 C   0  0  0  0  0  0  0  0  0  0  0  0
    7.4208   10.8177   14.7974 C   0  0  0  0  0  0  0  0  0  0  0  0
    7.6608    9.9661   15.1445 H   0  0  0  0  0  0  0  0  0  0  0  0
    7.8451   11.9653   15.4449 C   0  0  0  0  0  0  0  0  0  0  0  0
    8.3649   11.8955   16.2370 H   0  0  0  0  0  0  0  0  0  0  0  0
    7.5184   13.2106   14.9480 C   0  0  0  0  0  0  0  0  0  0  0  0
    7.8184   13.9888   15.4035 H   0  0  0  0  0  0  0  0  0  0  0  0
    6.7556   13.3474   13.7909 C   0  0  0  0  0  0  0  0  0  0  0  0
   -0.5490    8.2577    8.8903 C   0  0  0  0  0  0  0  0  0  0  0  0
    0.5328   12.4844   15.9100 C   0  0  0  0  0  0  0  0  0  0  0  0
    1.4390   12.7389   16.1825 H   0  0  0  0  0  0  0  0  0  0  0  0
    0.1158   11.9518   16.6191 H   0  0  0  0  0  0  0  0  0  0  0  0
    0.0003   13.2916   15.7516 H   0  0  0  0  0  0  0  0  0  0  0  0
    1.3746    9.9475   14.9051 C   0  0  0  0  0  0  0  0  0  0  0  0
    1.2777    9.2830   14.1922 H   0  0  0  0  0  0  0  0  0  0  0  0
    0.9331    9.6235   15.7174 H   0  0  0  0  0  0  0  0  0  0  0  0
    2.3264   10.0955   15.0873 H   0  0  0  0  0  0  0  0  0  0  0  0
    4.7278    9.1736    9.4771 C   0  0  0  0  0  0  0  0  0  0  0  0
    4.5890    8.4068    8.8826 H   0  0  0  0  0  0  0  0  0  0  0  0
    3.9252    9.3139   10.0217 H   0  0  0  0  0  0  0  0  0  0  0  0
    5.4935    8.9981   10.0630 H   0  0  0  0  0  0  0  0  0  0  0  0
    3.7374   10.7503    7.1237 C   0  0  0  0  0  0  0  0  0  0  0  0
    3.9623   11.4362    6.4605 H   0  0  0  0  0  0  0  0  0  0  0  0
    2.8726   10.9622    7.5323 H   0  0  0  0  0  0  0  0  0  0  0  0
    3.6862    9.8758    6.6844 H   0  0  0  0  0  0  0  0  0  0  0  0
    6.2867   13.7789    7.0932 C   0  0  0  0  0  0  0  0  0  0  0  0
    5.9840   13.1071    6.4467 H   0  0  0  0  0  0  0  0  0  0  0  0
    7.1733   13.5341    7.4287 H   0  0  0  0  0  0  0  0  0  0  0  0
    6.3333   14.6550    6.6547 H   0  0  0  0  0  0  0  0  0  0  0  0
    3.3922   14.3455    7.8318 C   0  0  0  0  0  0  0  0  0  0  0  0
    3.4922   15.1283    7.2500 H   0  0  0  0  0  0  0  0  0  0  0  0
    2.7855   14.5630    8.5699 H   0  0  0  0  0  0  0  0  0  0  0  0
    3.0242   13.5993    7.3147 H   0  0  0  0  0  0  0  0  0  0  0  0
    6.1410    9.6273   12.9736 C   0  0  0  0  0  0  0  0  0  0  0  0
    5.6092    9.9040   12.1735 H   0  0  0  0  0  0  0  0  0  0  0  0
    7.2737    8.7408   12.4770 C   0  0  0  0  0  0  0  0  0  0  0  0
    6.9011    7.9299   12.0739 H   0  0  0  0  0  0  0  0  0  0  0  0
    7.8507    8.4958   13.2312 H   0  0  0  0  0  0  0  0  0  0  0  0
    7.7999    9.2271   11.8086 H   0  0  0  0  0  0  0  0  0  0  0  0
    6.4293   14.7160   13.2340 C   0  0  0  0  0  0  0  0  0  0  0  0
    5.7555   14.5944   12.5047 H   0  0  0  0  0  0  0  0  0  0  0  0
    5.8132   15.6277   14.2855 C   0  0  0  0  0  0  0  0  0  0  0  0
    5.5372   16.4704   13.8664 H   0  0  0  0  0  0  0  0  0  0  0  0
    6.4731   15.8127   14.9856 H   0  0  0  0  0  0  0  0  0  0  0  0
    5.0309   15.1896   14.6814 H   0  0  0  0  0  0  0  0  0  0  0  0
    5.2100    8.8507   13.8890 C   0  0  0  0  0  0  0  0  0  0  0  0
    4.8112    8.1054   13.3916 H   0  0  0  0  0  0  0  0  0  0  0  0
    4.5001    9.4440   14.2117 H   0  0  0  0  0  0  0  0  0  0  0  0
    5.7165    8.5011   14.6505 H   0  0  0  0  0  0  0  0  0  0  0  0
    7.6571   15.3738   12.6245 C   0  0  0  0  0  0  0  0  0  0  0  0
    8.0509   14.7751   11.9556 H   0  0  0  0  0  0  0  0  0  0  0  0
    8.3151   15.5536   13.3287 H   0  0  0  0  0  0  0  0  0  0  0  0
    7.3987   16.2166   12.1965 H   0  0  0  0  0  0  0  0  0  0  0  0
    3.8348   12.5104   14.6916 B   0  0  0  0  0  0  0  0  0  0  0  0
    1.5468   12.2718   12.8507 B   0  0  0  0  0  0  0  0  0  0  0  0
    3.3065   12.3610   13.1172 B   0  0  0  0  0  0  0  0  0  0  0  0
    6.1686   12.2500   10.5818 B   0  0  0  0  0  0  0  0  0  0  0  0
  1  2  1  0  0  0  0
  3  1  1  0  0  0  0
  4  1  1  0  0  0  0
  5  6  1  0  0  0  0
  7  5  1  0  0  0  0
  8  5  1  0  0  0  0
  9 10  1  0  0  0  0
 11  9  1  0  0  0  0
 12  9  1  0  0  0  0
 13 25  1  0  0  0  0
 14 29  1  0  0  0  0
 15 60  1  0  0  0  0
 16 49  1  0  0  0  0
 17 49  1  0  0  0  0
 18 88  1  0  0  0  0
 19 21  1  0  0  0  0
 20 45  1  0  0  0  0
 21 22  4  0  0  0  0
 22 23  4  0  0  0  0
 23 24  1  0  0  0  0
 25 23  4  0  0  0  0
 26 25  4  0  0  0  0
 27 26  1  0  0  0  0
 28 21  4  0  0  0  0
 29 30  1  0  0  0  0
 31 29  1  0  0  0  0
 32 29  1  0  0  0  0
 33 22  1  0  0  0  0
 34 33  1  0  0  0  0
 35 33  1  0  0  0  0
 36 35  1  0  0  0  0
 37 35  1  0  0  0  0
 38 35  1  0  0  0  0
 39 28  1  0  0  0  0
 40 39  1  0  0  0  0
 41 39  1  0  0  0  0
 42 41  1  0  0  0  0
 43 41  1  0  0  0  0
 44 41  1  0  0  0  0
 45 46  1  0  0  0  0
 46 47  1  0  0  0  0
 48 46  1  0  0  0  0
 49 46  1  0  0  0  0
 50 51  4  0  0  0  0
 51 52  1  0  0  0  0
 53 51  4  0  0  0  0
 54 53  1  0  0  0  0
 55 53  4  0  0  0  0
 56 55  4  0  0  0  0
 57 56  1  0  0  0  0
 58 50  4  0  0  0  0
 59 58  1  0  0  0  0
 60 61  1  0  0  0  0
 62 60  1  0  0  0  0
 63 60  1  0  0  0  0
 64 14  1  0  0  0  0
 65 64  1  0  0  0  0
 66 64  1  0  0  0  0
 67 64  1  0  0  0  0
 68 14  1  0  0  0  0
 69 68  1  0  0  0  0
 70 68  1  0  0  0  0
 71 68  1  0  0  0  0
 72 33  1  0  0  0  0
 73 72  1  0  0  0  0
 74 72  1  0  0  0  0
 75 72  1  0  0  0  0
 76 39  1  0  0  0  0
 77 76  1  0  0  0  0
 78 76  1  0  0  0  0
 79 76  1  0  0  0  0
 80 16  1  0  0  0  0
 81 80  1  0  0  0  0
 82 80  1  0  0  0  0
 83 80  1  0  0  0  0
 84 17  1  0  0  0  0
 85 84  1  0  0  0  0
 86 84  1  0  0  0  0
 87 84  1  0  0  0  0
 88 89  1  0  0  0  0
 90 88  1  0  0  0  0
 91 88  1  0  0  0  0
 92 20  1  0  0  0  0
 93 92  4  0  0  0  0
 94 93  4  0  0  0  0
 95 94  1  0  0  0  0
 96 94  4  0  0  0  0
 97 96  1  0  0  0  0
 98 96  4  0  0  0  0
 99 98  1  0  0  0  0
100 92  4  0  0  0  0
101  1  1  0  0  0  0
102 15  1  0  0  0  0
103102  1  0  0  0  0
104102  1  0  0  0  0
105102  1  0  0  0  0
106 15  1  0  0  0  0
107106  1  0  0  0  0
108106  1  0  0  0  0
109106  1  0  0  0  0
110 16  1  0  0  0  0
111110  1  0  0  0  0
112110  1  0  0  0  0
113110  1  0  0  0  0
114 16  1  0  0  0  0
115114  1  0  0  0  0
116114  1  0  0  0  0
117114  1  0  0  0  0
118 17  1  0  0  0  0
119118  1  0  0  0  0
120118  1  0  0  0  0
121118  1  0  0  0  0
122 17  1  0  0  0  0
123122  1  0  0  0  0
124122  1  0  0  0  0
125122  1  0  0  0  0
126 93  1  0  0  0  0
127126  1  0  0  0  0
128126  1  0  0  0  0
129128  1  0  0  0  0
130128  1  0  0  0  0
131128  1  0  0  0  0
132100  1  0  0  0  0
133132  1  0  0  0  0
134132  1  0  0  0  0
135134  1  0  0  0  0
136134  1  0  0  0  0
137134  1  0  0  0  0
138126  1  0  0  0  0
139138  1  0  0  0  0
140138  1  0  0  0  0
141138  1  0  0  0  0
142132  1  0  0  0  0
143142  1  0  0  0  0
144142  1  0  0  0  0
145142  1  0  0  0  0
146 19  3  0  0  0  0
147 14  1  0  0  0  0
148 45  2  0  0  0  0
149 18  1  0  0  0  0
  5101  1  0  0  0  0
  9101  1  0  0  0  0
 15147  1  0  0  0  0
 20149  1  0  0  0  0
 26 28  4  0  0  0  0
 49149  1  0  0  0  0
 50147  1  0  0  0  0
 55101  1  0  0  0  0
 56 58  4  0  0  0  0
 98100  4  0  0  0  0
146148  1  0  0  0  0
147148  1  0  0  0  0
M  END
$$$$
WIXXEK

From CSD data. Using bond type 'Any'. No disordered atoms. Largest molecule.
182198  0  0  0  0  0  0  0  0999 V2000
    5.0005    5.6908    8.6311 Se  0  0  0  0  0  0  0  0  0  0  0  0
    4.2033    7.5304    9.4877 P   0  0  0  0  0  0  0  0  0  0  0  0
   -2.0314    3.4584    9.6836 C   0  0  0  0  0  0  0  0  0  0  0  0
   -1.9959    2.5069    9.9367 H   0  0  0  0  0  0  0  0  0  0  0  0
   -2.9430    3.6883    9.3656 H   0  0  0  0  0  0  0  0  0  0  0  0
   -1.5804    4.3902   10.8520 C   0  0  0  0  0  0  0  0  0  0  0  0
   -1.8657    5.3295   10.7060 H   0  0  0  0  0  0  0  0  0  0  0  0
   -1.9181    4.0767   11.7248 H   0  0  0  0  0  0  0  0  0  0  0  0
    2.4291    4.1731    8.6038 Na  0  3  0  0  0  0  0  0  0  0  0  0
    0.2572    3.9940    9.3961 O   0  0  0  0  0  0  0  0  0  0  0  0
    2.3943    7.5538    9.4976 C   0  0  0  0  0  0  0  0  0  0  0  0
    4.4505    8.0192   11.4970 B   0  5  0  0  0  0  0  0  0  0  0  0
    3.2411    2.4579    9.8981 O   0  0  0  0  0  0  0  0  0  0  0  0
    1.9098    7.9014   10.8005 C   0  0  0  0  0  0  0  0  0  0  0  0
    2.8620    8.1430   11.8445 C   0  0  0  0  0  0  0  0  0  0  0  0
    0.0409    8.2948   12.3136 C   0  0  0  0  0  0  0  0  0  0  0  0
   -0.8904    8.3600   12.4909 H   0  0  0  0  0  0  0  0  0  0  0  0
    0.9243    8.4960   13.2990 C   0  0  0  0  0  0  0  0  0  0  0  0
    0.6045    8.6805   14.1746 H   0  0  0  0  0  0  0  0  0  0  0  0
    2.3404    8.4424   13.0716 C   0  0  0  0  0  0  0  0  0  0  0  0
    2.9309    8.6194   13.7944 H   0  0  0  0  0  0  0  0  0  0  0  0
   -0.3629    7.7537    9.8967 C   0  0  0  0  0  0  0  0  0  0  0  0
   -1.3018    7.8419   10.0099 H   0  0  0  0  0  0  0  0  0  0  0  0
    0.4941    7.9822   10.9979 C   0  0  0  0  0  0  0  0  0  0  0  0
    0.1335    7.4074    8.6724 C   0  0  0  0  0  0  0  0  0  0  0  0
   -0.4643    7.2192    7.9590 H   0  0  0  0  0  0  0  0  0  0  0  0
    1.5303    7.3246    8.4551 C   0  0  0  0  0  0  0  0  0  0  0  0
    1.8676    7.1115    7.5931 H   0  0  0  0  0  0  0  0  0  0  0  0
    4.2179   11.0454    7.3381 C   0  0  0  0  0  0  0  0  0  0  0  0
    3.6720   11.8190    7.2642 H   0  0  0  0  0  0  0  0  0  0  0  0
    3.8417   10.0122    8.1690 C   0  0  0  0  0  0  0  0  0  0  0  0
    3.0296   10.0765    8.6576 H   0  0  0  0  0  0  0  0  0  0  0  0
    4.6438    8.8613    8.3049 C   0  0  0  0  0  0  0  0  0  0  0  0
    5.3931   10.9523    6.6130 C   0  0  0  0  0  0  0  0  0  0  0  0
    5.6471   11.6550    6.0271 H   0  0  0  0  0  0  0  0  0  0  0  0
    5.8122    8.8092    7.5798 C   0  0  0  0  0  0  0  0  0  0  0  0
    6.3714    8.0445    7.6555 H   0  0  0  0  0  0  0  0  0  0  0  0
    6.1924    9.8405    6.7432 C   0  0  0  0  0  0  0  0  0  0  0  0
    7.0060    9.7819    6.2568 H   0  0  0  0  0  0  0  0  0  0  0  0
    5.2287    9.4695   11.4426 C   0  0  0  0  0  0  0  0  0  0  0  0
    4.7800   10.0014   10.7254 H   0  0  0  0  0  0  0  0  0  0  0  0
    5.1223   10.2980   12.7212 C   0  0  0  0  0  0  0  0  0  0  0  0
    5.5299    9.7932   13.4691 H   0  0  0  0  0  0  0  0  0  0  0  0
    4.1664   10.4391   12.9365 H   0  0  0  0  0  0  0  0  0  0  0  0
    5.8209   11.6732   12.6011 C   0  0  0  0  0  0  0  0  0  0  0  0
    5.3621   12.2217   11.9167 H   0  0  0  0  0  0  0  0  0  0  0  0
    5.7678   12.1510   13.4668 H   0  0  0  0  0  0  0  0  0  0  0  0
    7.2714   11.4783   12.2121 C   0  0  0  0  0  0  0  0  0  0  0  0
    7.7444   11.0025   12.9407 H   0  0  0  0  0  0  0  0  0  0  0  0
    7.7009   12.3634   12.0979 H   0  0  0  0  0  0  0  0  0  0  0  0
    7.4068   10.6796   10.9149 C   0  0  0  0  0  0  0  0  0  0  0  0
    7.0159   11.1928   10.1642 H   0  0  0  0  0  0  0  0  0  0  0  0
    8.3634   10.5211   10.7177 H   0  0  0  0  0  0  0  0  0  0  0  0
    6.7038    9.3860   11.0551 C   0  0  0  0  0  0  0  0  0  0  0  0
    7.1759    8.8477   11.7392 H   0  0  0  0  0  0  0  0  0  0  0  0
    6.7732    8.8995   10.1958 H   0  0  0  0  0  0  0  0  0  0  0  0
    5.2016    6.7723   12.2264 C   0  0  0  0  0  0  0  0  0  0  0  0
    5.9656    6.5159   11.6352 H   0  0  0  0  0  0  0  0  0  0  0  0
    4.3093    5.5204   12.3579 C   0  0  0  0  0  0  0  0  0  0  0  0
    3.5313    5.7372   12.9305 H   0  0  0  0  0  0  0  0  0  0  0  0
    3.9656    5.2743   11.4623 H   0  0  0  0  0  0  0  0  0  0  0  0
    5.0404    4.3298   12.9486 C   0  0  0  0  0  0  0  0  0  0  0  0
    5.7436    4.0339   12.3188 H   0  0  0  0  0  0  0  0  0  0  0  0
    4.4026    3.5821   13.0676 H   0  0  0  0  0  0  0  0  0  0  0  0
    5.6835    4.6669   14.3044 C   0  0  0  0  0  0  0  0  0  0  0  0
    4.9758    4.8422   14.9743 H   0  0  0  0  0  0  0  0  0  0  0  0
    6.2219    3.8980   14.6176 H   0  0  0  0  0  0  0  0  0  0  0  0
    6.5726    5.8920   14.1671 C   0  0  0  0  0  0  0  0  0  0  0  0
    7.3344    5.6808   13.5715 H   0  0  0  0  0  0  0  0  0  0  0  0
    6.9356    6.1365   15.0547 H   0  0  0  0  0  0  0  0  0  0  0  0
    5.7959    7.0721   13.5950 C   0  0  0  0  0  0  0  0  0  0  0  0
    5.0665    7.3124   14.2201 H   0  0  0  0  0  0  0  0  0  0  0  0
    6.4013    7.8523   13.5218 H   0  0  0  0  0  0  0  0  0  0  0  0
   -0.9703    3.8208    8.6610 C   0  0  0  0  0  0  0  0  0  0  0  0
   -0.8752    3.0964    7.9938 H   0  0  0  0  0  0  0  0  0  0  0  0
   -1.2121    4.6570    8.1896 H   0  0  0  0  0  0  0  0  0  0  0  0
   -0.0783    4.2577   10.7605 C   0  0  0  0  0  0  0  0  0  0  0  0
    0.3583    5.0929   11.0638 H   0  0  0  0  0  0  0  0  0  0  0  0
    0.2312    3.5152   11.3378 H   0  0  0  0  0  0  0  0  0  0  0  0
    4.5974    2.0024    9.8366 C   0  0  0  0  0  0  0  0  0  0  0  0
    5.2245    2.7565    9.9697 H   0  0  0  0  0  0  0  0  0  0  0  0
    4.7849    1.5844    8.9589 H   0  0  0  0  0  0  0  0  0  0  0  0
    4.7470    0.9688   10.9693 C   0  0  0  0  0  0  0  0  0  0  0  0
    5.4005    0.2639   10.7307 H   0  0  0  0  0  0  0  0  0  0  0  0
    5.0287    1.3996   11.8156 H   0  0  0  0  0  0  0  0  0  0  0  0
    3.3702    0.4162   11.0765 C   0  0  0  0  0  0  0  0  0  0  0  0
    3.1999    0.0423   11.9770 H   0  0  0  0  0  0  0  0  0  0  0  0
    3.2088   -0.2844   10.3958 H   0  0  0  0  0  0  0  0  0  0  0  0
    2.5170    1.6532   10.8162 C   0  0  0  0  0  0  0  0  0  0  0  0
    1.6416    1.3951   10.4326 H   0  0  0  0  0  0  0  0  0  0  0  0
    2.3595    2.1484   11.6587 H   0  0  0  0  0  0  0  0  0  0  0  0
    2.1052    4.6965    5.6704 Se  0  0  0  0  0  0  0  0  0  0  0  0
    2.9024    2.8569    4.8138 P   0  0  0  0  0  0  0  0  0  0  0  0
    9.1370    6.9289    4.6180 C   0  0  0  0  0  0  0  0  0  0  0  0
    9.1016    7.8804    4.3649 H   0  0  0  0  0  0  0  0  0  0  0  0
   10.0487    6.6990    4.9359 H   0  0  0  0  0  0  0  0  0  0  0  0
    8.6860    5.9972    3.4495 C   0  0  0  0  0  0  0  0  0  0  0  0
    8.9713    5.0578    3.5955 H   0  0  0  0  0  0  0  0  0  0  0  0
    9.0237    6.3106    2.5767 H   0  0  0  0  0  0  0  0  0  0  0  0
    4.6765    6.2142    5.6977 Na  0  3  0  0  0  0  0  0  0  0  0  0
    6.8485    6.3933    4.9054 O   0  0  0  0  0  0  0  0  0  0  0  0
    4.7113    2.8335    4.8039 C   0  0  0  0  0  0  0  0  0  0  0  0
    2.6551    2.3681    2.8045 B   0  5  0  0  0  0  0  0  0  0  0  0
    3.8646    7.9294    4.4034 O   0  0  0  0  0  0  0  0  0  0  0  0
    5.1959    2.4859    3.5010 C   0  0  0  0  0  0  0  0  0  0  0  0
    4.2436    2.2443    2.4570 C   0  0  0  0  0  0  0  0  0  0  0  0
    7.0647    2.0926    1.9879 C   0  0  0  0  0  0  0  0  0  0  0  0
    7.9960    2.0273    1.8106 H   0  0  0  0  0  0  0  0  0  0  0  0
    6.1814    1.8913    1.0025 C   0  0  0  0  0  0  0  0  0  0  0  0
    6.5012    1.7068    0.1269 H   0  0  0  0  0  0  0  0  0  0  0  0
    4.7653    1.9449    1.2299 C   0  0  0  0  0  0  0  0  0  0  0  0
    4.1748    1.7679    0.5071 H   0  0  0  0  0  0  0  0  0  0  0  0
    7.4685    2.6336    4.4049 C   0  0  0  0  0  0  0  0  0  0  0  0
    8.4074    2.5454    4.2917 H   0  0  0  0  0  0  0  0  0  0  0  0
    6.6116    2.4052    3.3037 C   0  0  0  0  0  0  0  0  0  0  0  0
    6.9722    2.9799    5.6291 C   0  0  0  0  0  0  0  0  0  0  0  0
    7.5699    3.1681    6.3425 H   0  0  0  0  0  0  0  0  0  0  0  0
    5.5753    3.0627    5.8465 C   0  0  0  0  0  0  0  0  0  0  0  0
    5.2381    3.2758    6.7084 H   0  0  0  0  0  0  0  0  0  0  0  0
    2.8877   -0.6580    6.9634 C   0  0  0  0  0  0  0  0  0  0  0  0
    3.4336   -1.4317    7.0373 H   0  0  0  0  0  0  0  0  0  0  0  0
    3.2640    0.3751    6.1325 C   0  0  0  0  0  0  0  0  0  0  0  0
    4.0761    0.3108    5.6439 H   0  0  0  0  0  0  0  0  0  0  0  0
    2.4619    1.5260    5.9966 C   0  0  0  0  0  0  0  0  0  0  0  0
    1.7125   -0.5650    7.6885 C   0  0  0  0  0  0  0  0  0  0  0  0
    1.4585   -1.2677    8.2744 H   0  0  0  0  0  0  0  0  0  0  0  0
    1.2934    1.5781    6.7217 C   0  0  0  0  0  0  0  0  0  0  0  0
    0.7343    2.3428    6.6460 H   0  0  0  0  0  0  0  0  0  0  0  0
    0.9132    0.5469    7.5584 C   0  0  0  0  0  0  0  0  0  0  0  0
    0.0996    0.6054    8.0447 H   0  0  0  0  0  0  0  0  0  0  0  0
    1.8770    0.9178    2.8589 C   0  0  0  0  0  0  0  0  0  0  0  0
    2.3257    0.3859    3.5761 H   0  0  0  0  0  0  0  0  0  0  0  0
    1.9833    0.0894    1.5803 C   0  0  0  0  0  0  0  0  0  0  0  0
    1.5758    0.5941    0.8325 H   0  0  0  0  0  0  0  0  0  0  0  0
    2.9392   -0.0518    1.3650 H   0  0  0  0  0  0  0  0  0  0  0  0
    1.2848   -1.2859    1.7005 C   0  0  0  0  0  0  0  0  0  0  0  0
    1.7435   -1.8344    2.3848 H   0  0  0  0  0  0  0  0  0  0  0  0
    1.3379   -1.7637    0.8348 H   0  0  0  0  0  0  0  0  0  0  0  0
   -0.1658   -1.0910    2.0895 C   0  0  0  0  0  0  0  0  0  0  0  0
   -0.6387   -0.6152    1.3608 H   0  0  0  0  0  0  0  0  0  0  0  0
   -0.5952   -1.9761    2.2036 H   0  0  0  0  0  0  0  0  0  0  0  0
   -0.3012   -0.2922    3.3866 C   0  0  0  0  0  0  0  0  0  0  0  0
    0.0897   -0.8054    4.1374 H   0  0  0  0  0  0  0  0  0  0  0  0
   -1.2577   -0.1338    3.5838 H   0  0  0  0  0  0  0  0  0  0  0  0
    0.4019    1.0013    3.2464 C   0  0  0  0  0  0  0  0  0  0  0  0
   -0.0703    1.5396    2.5623 H   0  0  0  0  0  0  0  0  0  0  0  0
    0.3325    1.4878    4.1058 H   0  0  0  0  0  0  0  0  0  0  0  0
    1.9041    3.6150    2.0752 C   0  0  0  0  0  0  0  0  0  0  0  0
    1.1400    3.8715    2.6663 H   0  0  0  0  0  0  0  0  0  0  0  0
    2.7964    4.8670    1.9436 C   0  0  0  0  0  0  0  0  0  0  0  0
    3.5743    4.6501    1.3710 H   0  0  0  0  0  0  0  0  0  0  0  0
    3.1401    5.1130    2.8392 H   0  0  0  0  0  0  0  0  0  0  0  0
    2.0652    6.0575    1.3529 C   0  0  0  0  0  0  0  0  0  0  0  0
    1.3620    6.3534    1.9827 H   0  0  0  0  0  0  0  0  0  0  0  0
    2.7030    6.8052    1.2339 H   0  0  0  0  0  0  0  0  0  0  0  0
    1.4222    5.7204   -0.0029 C   0  0  0  0  0  0  0  0  0  0  0  0
    2.1298    5.5451   -0.6728 H   0  0  0  0  0  0  0  0  0  0  0  0
    0.8837    6.4893   -0.3160 H   0  0  0  0  0  0  0  0  0  0  0  0
    0.5330    4.4953    0.1344 C   0  0  0  0  0  0  0  0  0  0  0  0
   -0.2288    4.7065    0.7300 H   0  0  0  0  0  0  0  0  0  0  0  0
    0.1701    4.2508   -0.7532 H   0  0  0  0  0  0  0  0  0  0  0  0
    1.3097    3.3152    0.7065 C   0  0  0  0  0  0  0  0  0  0  0  0
    2.0391    3.0749    0.0815 H   0  0  0  0  0  0  0  0  0  0  0  0
    0.7044    2.5350    0.7797 H   0  0  0  0  0  0  0  0  0  0  0  0
    8.0760    6.5665    5.6405 C   0  0  0  0  0  0  0  0  0  0  0  0
    7.9809    7.2909    6.3078 H   0  0  0  0  0  0  0  0  0  0  0  0
    8.3177    5.7303    6.1119 H   0  0  0  0  0  0  0  0  0  0  0  0
    7.1839    6.1296    3.5411 C   0  0  0  0  0  0  0  0  0  0  0  0
    6.7473    5.2944    3.2377 H   0  0  0  0  0  0  0  0  0  0  0  0
    6.8744    6.8721    2.9637 H   0  0  0  0  0  0  0  0  0  0  0  0
    2.5082    8.3849    4.4649 C   0  0  0  0  0  0  0  0  0  0  0  0
    1.8812    7.6308    4.3318 H   0  0  0  0  0  0  0  0  0  0  0  0
    2.3207    8.8029    5.3426 H   0  0  0  0  0  0  0  0  0  0  0  0
    2.3586    9.4185    3.3323 C   0  0  0  0  0  0  0  0  0  0  0  0
    1.7051   10.1234    3.5708 H   0  0  0  0  0  0  0  0  0  0  0  0
    2.0769    8.9877    2.4859 H   0  0  0  0  0  0  0  0  0  0  0  0
    3.7354    9.9711    3.2250 C   0  0  0  0  0  0  0  0  0  0  0  0
    3.9058   10.3450    2.3245 H   0  0  0  0  0  0  0  0  0  0  0  0
    3.8968   10.6718    3.9057 H   0  0  0  0  0  0  0  0  0  0  0  0
    4.5886    8.7341    3.4853 C   0  0  0  0  0  0  0  0  0  0  0  0
    5.4640    8.9922    3.8689 H   0  0  0  0  0  0  0  0  0  0  0  0
    4.7461    8.2389    2.6428 H   0  0  0  0  0  0  0  0  0  0  0  0
  1  2  2  0  0  0  0
  2 11  1  0  0  0  0
  3  4  1  0  0  0  0
  5  3  1  0  0  0  0
  6  3  1  0  0  0  0
  7  6  1  0  0  0  0
  8  6  1  0  0  0  0
  9  1  1  0  0  0  0
 10  9  1  0  0  0  0
 11 14  4  0  0  0  0
 12  2  1  0  0  0  0
 13  9  1  0  0  0  0
 14 15  4  0  0  0  0
 15 12  1  0  0  0  0
 16 17  1  0  0  0  0
 18 16  4  0  0  0  0
 19 18  1  0  0  0  0
 20 15  4  0  0  0  0
 21 20  1  0  0  0  0
 22 23  1  0  0  0  0
 24 14  4  0  0  0  0
 25 22  4  0  0  0  0
 26 25  1  0  0  0  0
 27 11  4  0  0  0  0
 28 27  1  0  0  0  0
 29 30  1  0  0  0  0
 31 29  4  0  0  0  0
 32 31  1  0  0  0  0
 33  2  1  0  0  0  0
 34 29  4  0  0  0  0
 35 34  1  0  0  0  0
 36 33  4  0  0  0  0
 37 36  1  0  0  0  0
 38 34  4  0  0  0  0
 39 38  1  0  0  0  0
 40 12  1  0  0  0  0
 41 40  1  0  0  0  0
 42 40  1  0  0  0  0
 43 42  1  0  0  0  0
 44 42  1  0  0  0  0
 45 42  1  0  0  0  0
 46 45  1  0  0  0  0
 47 45  1  0  0  0  0
 48 45  1  0  0  0  0
 49 48  1  0  0  0  0
 50 48  1  0  0  0  0
 51 48  1  0  0  0  0
 52 51  1  0  0  0  0
 53 51  1  0  0  0  0
 54 40  1  0  0  0  0
 55 54  1  0  0  0  0
 56 54  1  0  0  0  0
 57 12  1  0  0  0  0
 58 57  1  0  0  0  0
 59 57  1  0  0  0  0
 60 59  1  0  0  0  0
 61 59  1  0  0  0  0
 62 59  1  0  0  0  0
 63 62  1  0  0  0  0
 64 62  1  0  0  0  0
 65 62  1  0  0  0  0
 66 65  1  0  0  0  0
 67 65  1  0  0  0  0
 68 65  1  0  0  0  0
 69 68  1  0  0  0  0
 70 68  1  0  0  0  0
 71 57  1  0  0  0  0
 72 71  1  0  0  0  0
 73 71  1  0  0  0  0
 74  3  1  0  0  0  0
 75 74  1  0  0  0  0
 76 74  1  0  0  0  0
 77  6  1  0  0  0  0
 78 77  1  0  0  0  0
 79 77  1  0  0  0  0
 80 13  1  0  0  0  0
 81 80  1  0  0  0  0
 82 80  1  0  0  0  0
 83 80  1  0  0  0  0
 84 83  1  0  0  0  0
 85 83  1  0  0  0  0
 86 83  1  0  0  0  0
 87 86  1  0  0  0  0
 88 86  1  0  0  0  0
 89 13  1  0  0  0  0
 90 89  1  0  0  0  0
 91 89  1  0  0  0  0
 92  9  1  0  0  0  0
 93 92  2  0  0  0  0
 94 95  1  0  0  0  0
 96 94  1  0  0  0  0
 97 94  1  0  0  0  0
 98 97  1  0  0  0  0
 99 97  1  0  0  0  0
100  1  1  0  0  0  0
101100  1  0  0  0  0
102 93  1  0  0  0  0
103 93  1  0  0  0  0
104100  1  0  0  0  0
105102  4  0  0  0  0
106103  1  0  0  0  0
107108  1  0  0  0  0
109107  4  0  0  0  0
110109  1  0  0  0  0
111106  4  0  0  0  0
112111  1  0  0  0  0
113114  1  0  0  0  0
115105  4  0  0  0  0
116113  4  0  0  0  0
117116  1  0  0  0  0
118102  4  0  0  0  0
119118  1  0  0  0  0
120121  1  0  0  0  0
122120  4  0  0  0  0
123122  1  0  0  0  0
124 93  1  0  0  0  0
125120  4  0  0  0  0
126125  1  0  0  0  0
127124  4  0  0  0  0
128127  1  0  0  0  0
129125  4  0  0  0  0
130129  1  0  0  0  0
131103  1  0  0  0  0
132131  1  0  0  0  0
133131  1  0  0  0  0
134133  1  0  0  0  0
135133  1  0  0  0  0
136133  1  0  0  0  0
137136  1  0  0  0  0
138136  1  0  0  0  0
139136  1  0  0  0  0
140139  1  0  0  0  0
141139  1  0  0  0  0
142139  1  0  0  0  0
143142  1  0  0  0  0
144142  1  0  0  0  0
145131  1  0  0  0  0
146145  1  0  0  0  0
147145  1  0  0  0  0
148103  1  0  0  0  0
149148  1  0  0  0  0
150148  1  0  0  0  0
151150  1  0  0  0  0
152150  1  0  0  0  0
153150  1  0  0  0  0
154153  1  0  0  0  0
155153  1  0  0  0  0
156153  1  0  0  0  0
157156  1  0  0  0  0
158156  1  0  0  0  0
159156  1  0  0  0  0
160159  1  0  0  0  0
161159  1  0  0  0  0
162148  1  0  0  0  0
163162  1  0  0  0  0
164162  1  0  0  0  0
165 94  1  0  0  0  0
166165  1  0  0  0  0
167165  1  0  0  0  0
168 97  1  0  0  0  0
169168  1  0  0  0  0
170168  1  0  0  0  0
171104  1  0  0  0  0
172171  1  0  0  0  0
173171  1  0  0  0  0
174171  1  0  0  0  0
175174  1  0  0  0  0
176174  1  0  0  0  0
177174  1  0  0  0  0
178177  1  0  0  0  0
179177  1  0  0  0  0
180104  1  0  0  0  0
181180  1  0  0  0  0
182180  1  0  0  0  0
 10 74  1  0  0  0  0
 10 77  1  0  0  0  0
 16 24  4  0  0  0  0
 18 20  4  0  0  0  0
 22 24  4  0  0  0  0
 25 27  4  0  0  0  0
 31 33  4  0  0  0  0
 36 38  4  0  0  0  0
 51 54  1  0  0  0  0
 68 71  1  0  0  0  0
 86 89  1  0  0  0  0
 92100  1  0  0  0  0
101165  1  0  0  0  0
101168  1  0  0  0  0
105106  4  0  0  0  0
107115  4  0  0  0  0
109111  4  0  0  0  0
113115  4  0  0  0  0
116118  4  0  0  0  0
122124  4  0  0  0  0
127129  4  0  0  0  0
142145  1  0  0  0  0
159162  1  0  0  0  0
177180  1  0  0  0  0
M  CHG  4   9   1  12  -1 100   1 103  -1
M  END
$$$$
WODMOR

From CSD data. Using bond type 'Any'. No disordered atoms. Largest molecule.
 85112  0  0  0  0  0  0  0  0999 V2000
   -1.4011    6.0457    7.1499 Ru  0  0  0  0  0  0  0  0  0  0  0  0
   -0.0661    3.6065    5.0644 Ru  0  0  0  0  0  0  0  0  0  0  0  0
   -0.3946    3.9535    7.5567 Cl  0  0  0  0  0  0  0  0  0  0  0  0
    2.1297    2.9110    5.7158 Cl  0  0  0  0  0  0  0  0  0  0  0  0
   -1.3208    6.6093    9.5134 P   0  0  0  0  0  0  0  0  0  0  0  0
    0.5297    3.6208    2.8450 P   0  0  0  0  0  0  0  0  0  0  0  0
   -0.9935    1.4756    5.1906 P   0  0  0  0  0  0  0  0  0  0  0  0
   -3.9641    4.7293    6.6401 O   0  0  0  0  0  0  0  0  0  0  0  0
    1.1121    7.6102    7.1859 O   0  0  0  0  0  0  0  0  0  0  0  0
   -2.7293    9.1159    3.9779 O   0  0  0  0  0  0  0  0  0  0  0  0
   -5.3954    5.0678    6.7920 C   0  0  0  0  0  0  0  0  0  0  0  0
   -5.6581    5.6815    8.0716 C   0  0  0  0  0  0  0  0  0  0  0  0
   -6.1286    3.7843    6.6761 C   0  0  0  0  0  0  0  0  0  0  0  0
    2.2958    8.2828    6.6581 C   0  0  0  0  0  0  0  0  0  0  0  0
    2.4825    9.5031    7.5078 C   0  0  0  0  0  0  0  0  0  0  0  0
    3.4462    7.2704    6.8615 C   0  0  0  0  0  0  0  0  0  0  0  0
   -2.6327    9.3181    2.5464 C   0  0  0  0  0  0  0  0  0  0  0  0
   -2.6511   10.8353    2.3121 C   0  0  0  0  0  0  0  0  0  0  0  0
   -3.7954    8.6026    1.8023 C   0  0  0  0  0  0  0  0  0  0  0  0
   -1.3737    8.3530    9.9640 C   0  0  0  0  0  0  0  0  0  0  0  0
   -2.3733    9.1776    9.4645 C   0  0  0  0  0  0  0  0  0  0  0  0
   -2.4101   10.5213    9.7065 C   0  0  0  0  0  0  0  0  0  0  0  0
   -1.4115   11.0834   10.4583 C   0  0  0  0  0  0  0  0  0  0  0  0
   -0.4125   10.3076   11.0248 C   0  0  0  0  0  0  0  0  0  0  0  0
   -0.4069    8.9496   10.7441 C   0  0  0  0  0  0  0  0  0  0  0  0
   -2.7127    5.8464   10.4094 C   0  0  0  0  0  0  0  0  0  0  0  0
   -3.4222    6.4774   11.3827 C   0  0  0  0  0  0  0  0  0  0  0  0
   -4.4130    5.8392   12.1293 C   0  0  0  0  0  0  0  0  0  0  0  0
   -4.6560    4.5243   11.8873 C   0  0  0  0  0  0  0  0  0  0  0  0
   -3.9826    3.8790   10.9244 C   0  0  0  0  0  0  0  0  0  0  0  0
   -3.0065    4.5343   10.1700 C   0  0  0  0  0  0  0  0  0  0  0  0
    0.1171    5.8894   10.4069 C   0  0  0  0  0  0  0  0  0  0  0  0
   -0.0241    5.3115   11.6762 C   0  0  0  0  0  0  0  0  0  0  0  0
    1.0715    4.7594   12.3095 C   0  0  0  0  0  0  0  0  0  0  0  0
    2.2676    4.7508   11.7328 C   0  0  0  0  0  0  0  0  0  0  0  0
    2.4221    5.3101   10.4661 C   0  0  0  0  0  0  0  0  0  0  0  0
    1.3575    5.8636    9.8147 C   0  0  0  0  0  0  0  0  0  0  0  0
    1.5242    2.1854    2.2425 C   0  0  0  0  0  0  0  0  0  0  0  0
    0.8719    1.0999    1.6684 C   0  0  0  0  0  0  0  0  0  0  0  0
    1.5965    0.0258    1.2255 C   0  0  0  0  0  0  0  0  0  0  0  0
    2.9472   -0.0301    1.3466 C   0  0  0  0  0  0  0  0  0  0  0  0
    3.6032    1.0483    1.9027 C   0  0  0  0  0  0  0  0  0  0  0  0
    2.9031    2.1567    2.3327 C   0  0  0  0  0  0  0  0  0  0  0  0
   -0.7195    3.6911    1.4830 C   0  0  0  0  0  0  0  0  0  0  0  0
   -0.2959    3.5434    0.1674 C   0  0  0  0  0  0  0  0  0  0  0  0
   -1.1812    3.6051   -0.8754 C   0  0  0  0  0  0  0  0  0  0  0  0
   -2.4970    3.7829   -0.6308 C   0  0  0  0  0  0  0  0  0  0  0  0
   -2.9261    3.9521    0.6617 C   0  0  0  0  0  0  0  0  0  0  0  0
   -2.0394    3.9120    1.7096 C   0  0  0  0  0  0  0  0  0  0  0  0
    1.6113    5.0807    2.4691 C   0  0  0  0  0  0  0  0  0  0  0  0
    1.3093    5.9783    1.4238 C   0  0  0  0  0  0  0  0  0  0  0  0
    2.1152    7.0596    1.2075 C   0  0  0  0  0  0  0  0  0  0  0  0
    3.2360    7.2431    1.9825 C   0  0  0  0  0  0  0  0  0  0  0  0
    3.5596    6.3999    3.0252 C   0  0  0  0  0  0  0  0  0  0  0  0
    2.6952    5.3302    3.2647 C   0  0  0  0  0  0  0  0  0  0  0  0
   -1.6741    1.1056    6.8358 C   0  0  0  0  0  0  0  0  0  0  0  0
   -3.0389    1.0511    7.1653 C   0  0  0  0  0  0  0  0  0  0  0  0
   -3.4736    0.7184    8.4346 C   0  0  0  0  0  0  0  0  0  0  0  0
   -2.4736    0.4732    9.4362 C   0  0  0  0  0  0  0  0  0  0  0  0
   -1.1832    0.5421    9.1324 C   0  0  0  0  0  0  0  0  0  0  0  0
   -0.7720    0.8575    7.8244 C   0  0  0  0  0  0  0  0  0  0  0  0
   -0.1038   -0.1061    4.9717 C   0  0  0  0  0  0  0  0  0  0  0  0
   -0.8055   -1.2906    5.1545 C   0  0  0  0  0  0  0  0  0  0  0  0
   -0.1263   -2.5138    5.0438 C   0  0  0  0  0  0  0  0  0  0  0  0
    1.1904   -2.5669    4.7091 C   0  0  0  0  0  0  0  0  0  0  0  0
    1.8993   -1.4010    4.5314 C   0  0  0  0  0  0  0  0  0  0  0  0
    1.2522   -0.1563    4.6524 C   0  0  0  0  0  0  0  0  0  0  0  0
   -2.4265    1.3021    4.0834 C   0  0  0  0  0  0  0  0  0  0  0  0
   -2.4428    0.3843    3.0381 C   0  0  0  0  0  0  0  0  0  0  0  0
   -3.5076    0.3327    2.1653 C   0  0  0  0  0  0  0  0  0  0  0  0
   -4.6008    1.1874    2.2966 C   0  0  0  0  0  0  0  0  0  0  0  0
   -4.5917    2.0736    3.3368 C   0  0  0  0  0  0  0  0  0  0  0  0
   -3.5267    2.1639    4.2276 C   0  0  0  0  0  0  0  0  0  0  0  0
   -3.0741    5.6055    6.0737 B   0  0  0  0  0  0  0  0  0  0  0  0
    0.0389    7.3005    6.4212 B   0  0  0  0  0  0  0  0  0  0  0  0
   -2.9862    7.3636    6.1097 B   0  0  0  0  0  0  0  0  0  0  0  0
   -1.5440    8.1709    6.2487 B   0  0  0  0  0  0  0  0  0  0  0  0
   -0.2415    6.0572    5.2111 B   0  0  0  0  0  0  0  0  0  0  0  0
   -1.6990    5.2513    5.0489 B   0  0  0  0  0  0  0  0  0  0  0  0
   -3.0372    6.3913    4.5340 B   0  0  0  0  0  0  0  0  0  0  0  0
   -0.4303    7.7995    4.8301 B   0  0  0  0  0  0  0  0  0  0  0  0
   -2.1905    8.0089    4.6421 B   0  0  0  0  0  0  0  0  0  0  0  0
   -1.3746    6.6079    3.9367 B   0  0  0  0  0  0  0  0  0  0  0  0
    0.6766    5.2771    5.3038 H   0  0  0  0  0  0  0  0  0  0  0  0
   -1.7495    4.1715    4.8661 H   0  0  0  0  0  0  0  0  0  0  0  0
  1  3  1  0  0  0  0
  2  3  1  0  0  0  0
  4  2  1  0  0  0  0
  5  1  1  0  0  0  0
  6  2  1  0  0  0  0
  7  2  1  0  0  0  0
  8 11  1  0  0  0  0
  9 14  1  0  0  0  0
 10 17  1  0  0  0  0
 11 12  1  0  0  0  0
 13 11  1  0  0  0  0
 14 15  1  0  0  0  0
 16 14  1  0  0  0  0
 17 18  1  0  0  0  0
 19 17  1  0  0  0  0
 20  5  1  0  0  0  0
 21 20  4  0  0  0  0
 22 21  4  0  0  0  0
 23 22  4  0  0  0  0
 24 23  4  0  0  0  0
 25 20  4  0  0  0  0
 26  5  1  0  0  0  0
 27 26  4  0  0  0  0
 28 27  4  0  0  0  0
 29 28  4  0  0  0  0
 30 29  4  0  0  0  0
 31 26  4  0  0  0  0
 32  5  1  0  0  0  0
 33 32  4  0  0  0  0
 34 33  4  0  0  0  0
 35 34  4  0  0  0  0
 36 35  4  0  0  0  0
 37 32  4  0  0  0  0
 38  6  1  0  0  0  0
 39 38  4  0  0  0  0
 40 39  4  0  0  0  0
 41 40  4  0  0  0  0
 42 41  4  0  0  0  0
 43 38  4  0  0  0  0
 44  6  1  0  0  0  0
 45 44  4  0  0  0  0
 46 45  4  0  0  0  0
 47 46  4  0  0  0  0
 48 47  4  0  0  0  0
 49 44  4  0  0  0  0
 50  6  1  0  0  0  0
 51 50  4  0  0  0  0
 52 51  4  0  0  0  0
 53 52  4  0  0  0  0
 54 53  4  0  0  0  0
 55 50  4  0  0  0  0
 56  7  1  0  0  0  0
 57 56  4  0  0  0  0
 58 57  4  0  0  0  0
 59 58  4  0  0  0  0
 60 59  4  0  0  0  0
 61 56  4  0  0  0  0
 62  7  1  0  0  0  0
 63 62  4  0  0  0  0
 64 63  4  0  0  0  0
 65 64  4  0  0  0  0
 66 65  4  0  0  0  0
 67 62  4  0  0  0  0
 68  7  1  0  0  0  0
 69 68  4  0  0  0  0
 70 69  4  0  0  0  0
 71 70  4  0  0  0  0
 72 71  4  0  0  0  0
 73 68  4  0  0  0  0
 74  1  1  0  0  0  0
 75  1  1  0  0  0  0
 76  1  1  0  0  0  0
 77  1  1  0  0  0  0
 78  1  1  0  0  0  0
 79  1  1  0  0  0  0
 80 74  1  0  0  0  0
 81 75  1  0  0  0  0
 82 10  1  0  0  0  0
 83 78  1  0  0  0  0
 84  2  1  0  0  0  0
 85  2  1  0  0  0  0
  8 74  1  0  0  0  0
  9 75  1  0  0  0  0
 24 25  4  0  0  0  0
 30 31  4  0  0  0  0
 36 37  4  0  0  0  0
 42 43  4  0  0  0  0
 48 49  4  0  0  0  0
 54 55  4  0  0  0  0
 60 61  4  0  0  0  0
 66 67  4  0  0  0  0
 72 73  4  0  0  0  0
 74 76  1  0  0  0  0
 74 79  1  0  0  0  0
 75 77  1  0  0  0  0
 75 78  1  0  0  0  0
 76 77  1  0  0  0  0
 76 80  1  0  0  0  0
 76 82  1  0  0  0  0
 77 81  1  0  0  0  0
 77 82  1  0  0  0  0
 78 79  1  0  0  0  0
 78 81  1  0  0  0  0
 78 84  1  0  0  0  0
 79 80  1  0  0  0  0
 79 83  1  0  0  0  0
 79 85  1  0  0  0  0
 80 82  1  0  0  0  0
 80 83  1  0  0  0  0
 81 82  1  0  0  0  0
 81 83  1  0  0  0  0
 82 83  1  0  0  0  0
M  END
$$$$
WOFMIN

From CSD data. Using bond type 'Any'. No disordered atoms. Largest molecule.
108108  0  0  0  0  0  0  0  0999 V2000
    3.7745   15.6783    4.1529 W   0  0  0  0  0  0  0  0  0  0  0  0
    1.3410   15.6589    5.0152 P   0  0  0  0  0  0  0  0  0  0  0  0
    3.6609   13.8017    5.9165 P   0  0  0  0  0  0  0  0  0  0  0  0
    1.9107   14.7356    7.0027 Si  0  0  0  0  0  0  0  0  0  0  0  0
    4.7049   17.8632    6.2578 O   0  0  0  0  0  0  0  0  0  0  0  0
    3.1086   13.5022    1.9645 O   0  0  0  0  0  0  0  0  0  0  0  0
    6.7684   15.2501    3.4791 O   0  0  0  0  0  0  0  0  0  0  0  0
    3.4862   17.9354    1.9982 O   0  0  0  0  0  0  0  0  0  0  0  0
   -0.2027   16.9011    4.8214 B   0  0  0  0  0  0  0  0  0  0  0  0
    5.1145   12.7005    6.7752 B   0  0  0  0  0  0  0  0  0  0  0  0
   -0.1487   18.1680    5.3920 N   0  0  0  0  0  0  0  0  0  0  0  0
   -1.3319   16.4271    4.0445 N   0  0  0  0  0  0  0  0  0  0  0  0
    6.0720   13.3472    7.5396 N   0  0  0  0  0  0  0  0  0  0  0  0
    5.0578   11.2803    6.4836 N   0  0  0  0  0  0  0  0  0  0  0  0
    4.3362   17.0544    5.5254 C   0  0  0  0  0  0  0  0  0  0  0  0
    3.3379   14.3180    2.7414 C   0  0  0  0  0  0  0  0  0  0  0  0
    5.5978   15.4210    3.7031 C   0  0  0  0  0  0  0  0  0  0  0  0
    3.5861   17.0949    2.7929 C   0  0  0  0  0  0  0  0  0  0  0  0
    2.4026   15.9549    8.3041 C   0  0  0  0  0  0  0  0  0  0  0  0
    0.6510   13.5480    7.7156 C   0  0  0  0  0  0  0  0  0  0  0  0
   -1.4001   19.0190    5.3778 C   0  0  0  0  0  0  0  0  0  0  0  0
   -1.2207   20.3722    4.8463 C   0  0  0  0  0  0  0  0  0  0  0  0
   -2.1296   19.0032    6.7521 C   0  0  0  0  0  0  0  0  0  0  0  0
    1.0729   18.6842    6.0320 C   0  0  0  0  0  0  0  0  0  0  0  0
    0.6960   19.0666    7.6570 C   0  0  0  0  0  0  0  0  0  0  0  0
    1.8823   19.6463    5.5396 C   0  0  0  0  0  0  0  0  0  0  0  0
   -2.0294   15.1990    4.5511 C   0  0  0  0  0  0  0  0  0  0  0  0
   -2.2519   15.3453    6.0409 C   0  0  0  0  0  0  0  0  0  0  0  0
   -3.3857   14.9382    3.8951 C   0  0  0  0  0  0  0  0  0  0  0  0
   -1.2818   16.4870    2.5814 C   0  0  0  0  0  0  0  0  0  0  0  0
   -0.4642   15.4492    1.8649 C   0  0  0  0  0  0  0  0  0  0  0  0
   -0.7778   17.8491    2.1298 C   0  0  0  0  0  0  0  0  0  0  0  0
    6.0387   14.7902    7.8258 C   0  0  0  0  0  0  0  0  0  0  0  0
    7.2287   15.5373    6.8836 C   0  0  0  0  0  0  0  0  0  0  0  0
    6.0102   15.3699    9.0881 C   0  0  0  0  0  0  0  0  0  0  0  0
    7.1631   12.4979    8.1174 C   0  0  0  0  0  0  0  0  0  0  0  0
    8.4491   12.9049    8.1370 C   0  0  0  0  0  0  0  0  0  0  0  0
    6.7433   12.3833    9.8507 C   0  0  0  0  0  0  0  0  0  0  0  0
    5.5679   10.7852    5.2000 C   0  0  0  0  0  0  0  0  0  0  0  0
    4.5473   10.5931    4.1636 C   0  0  0  0  0  0  0  0  0  0  0  0
    6.6597   11.6539    4.6329 C   0  0  0  0  0  0  0  0  0  0  0  0
    4.0357   10.4786    7.1005 C   0  0  0  0  0  0  0  0  0  0  0  0
    3.3483   10.8698    8.1494 C   0  0  0  0  0  0  0  0  0  0  0  0
    4.3936    9.0214    7.2072 C   0  0  0  0  0  0  0  0  0  0  0  0
    0.7491   14.6827    4.6614 H   0  0  0  0  0  0  0  0  0  0  0  0
    3.0196   12.8714    5.4347 H   0  0  0  0  0  0  0  0  0  0  0  0
    3.0499   16.5663    7.9432 H   0  0  0  0  0  0  0  0  0  0  0  0
    2.7858   15.4897    9.0507 H   0  0  0  0  0  0  0  0  0  0  0  0
    1.6286   16.4430    8.5938 H   0  0  0  0  0  0  0  0  0  0  0  0
    0.3968   12.9119    7.0436 H   0  0  0  0  0  0  0  0  0  0  0  0
   -0.1226   14.0379    8.0018 H   0  0  0  0  0  0  0  0  0  0  0  0
    1.0340   13.0864    8.4641 H   0  0  0  0  0  0  0  0  0  0  0  0
   -2.0106   18.5732    4.7538 H   0  0  0  0  0  0  0  0  0  0  0  0
   -0.7638   20.3264    4.0018 H   0  0  0  0  0  0  0  0  0  0  0  0
   -0.7000   20.8938    5.4632 H   0  0  0  0  0  0  0  0  0  0  0  0
   -2.0787   20.7846    4.7236 H   0  0  0  0  0  0  0  0  0  0  0  0
   -2.2129   18.0975    7.0596 H   0  0  0  0  0  0  0  0  0  0  0  0
   -3.0028   19.3890    6.6543 H   0  0  0  0  0  0  0  0  0  0  0  0
   -1.6235   19.5124    7.3885 H   0  0  0  0  0  0  0  0  0  0  0  0
    1.6550   17.9195    6.0978 H   0  0  0  0  0  0  0  0  0  0  0  0
    1.4764   19.4120    8.0854 H   0  0  0  0  0  0  0  0  0  0  0  0
    0.0045   19.7344    7.6570 H   0  0  0  0  0  0  0  0  0  0  0  0
    0.3924   18.2808    8.0961 H   0  0  0  0  0  0  0  0  0  0  0  0
    2.1000   19.4454    4.6258 H   0  0  0  0  0  0  0  0  0  0  0  0
    1.4145   20.4921    5.5698 H   0  0  0  0  0  0  0  0  0  0  0  0
    2.6772   19.7027    6.0605 H   0  0  0  0  0  0  0  0  0  0  0  0
   -1.4517   14.4220    4.3965 H   0  0  0  0  0  0  0  0  0  0  0  0
   -1.4126   15.5179    6.4747 H   0  0  0  0  0  0  0  0  0  0  0  0
   -2.6324   14.5365    6.3894 H   0  0  0  0  0  0  0  0  0  0  0  0
   -2.8522   16.0783    6.2045 H   0  0  0  0  0  0  0  0  0  0  0  0
   -3.2693   14.8431    2.9458 H   0  0  0  0  0  0  0  0  0  0  0  0
   -3.9743   15.6765    4.0729 H   0  0  0  0  0  0  0  0  0  0  0  0
   -3.7660   14.1330    4.2525 H   0  0  0  0  0  0  0  0  0  0  0  0
   -2.2034   16.4007    2.2578 H   0  0  0  0  0  0  0  0  0  0  0  0
   -0.7598   14.5735    2.1262 H   0  0  0  0  0  0  0  0  0  0  0  0
    0.4621   15.5549    2.0942 H   0  0  0  0  0  0  0  0  0  0  0  0
   -0.5726   15.5532    0.9173 H   0  0  0  0  0  0  0  0  0  0  0  0
   -1.2816   18.5380    2.5689 H   0  0  0  0  0  0  0  0  0  0  0  0
   -0.8831   17.9301    1.1787 H   0  0  0  0  0  0  0  0  0  0  0  0
    0.1514   17.9372    2.3574 H   0  0  0  0  0  0  0  0  0  0  0  0
    5.2086   15.0862    7.4169 H   0  0  0  0  0  0  0  0  0  0  0  0
    7.2224   16.4817    7.0365 H   0  0  0  0  0  0  0  0  0  0  0  0
    8.0873   15.1743    7.1023 H   0  0  0  0  0  0  0  0  0  0  0  0
    7.0520   15.3717    5.9414 H   0  0  0  0  0  0  0  0  0  0  0  0
    5.3617   14.9629    9.6036 H   0  0  0  0  0  0  0  0  0  0  0  0
    6.8970   15.2536    9.4650 H   0  0  0  0  0  0  0  0  0  0  0  0
    5.8510   16.3126    8.9725 H   0  0  0  0  0  0  0  0  0  0  0  0
    7.1294   11.6169    7.7032 H   0  0  0  0  0  0  0  0  0  0  0  0
    8.7833   13.0053    7.2107 H   0  0  0  0  0  0  0  0  0  0  0  0
    8.5223   13.7612    8.5601 H   0  0  0  0  0  0  0  0  0  0  0  0
    9.0087   12.2706    8.5778 H   0  0  0  0  0  0  0  0  0  0  0  0
    7.4077   11.8389   10.2756 H   0  0  0  0  0  0  0  0  0  0  0  0
    6.7354   13.2538   10.2063 H   0  0  0  0  0  0  0  0  0  0  0  0
    5.8872   11.9675    9.9130 H   0  0  0  0  0  0  0  0  0  0  0  0
    5.9652    9.9060    5.3725 H   0  0  0  0  0  0  0  0  0  0  0  0
    3.8325   10.0557    4.5120 H   0  0  0  0  0  0  0  0  0  0  0  0
    4.9395   10.1509    3.4062 H   0  0  0  0  0  0  0  0  0  0  0  0
    4.2027   11.4477    3.8916 H   0  0  0  0  0  0  0  0  0  0  0  0
    7.3563   11.7578    5.2836 H   0  0  0  0  0  0  0  0  0  0  0  0
    6.2998   12.5155    4.4089 H   0  0  0  0  0  0  0  0  0  0  0  0
    7.0193   11.2416    3.8436 H   0  0  0  0  0  0  0  0  0  0  0  0
    3.2544   10.5086    6.5458 H   0  0  0  0  0  0  0  0  0  0  0  0
    2.7278   10.1562    8.4570 H   0  0  0  0  0  0  0  0  0  0  0  0
    4.0072   10.9226    8.9441 H   0  0  0  0  0  0  0  0  0  0  0  0
    2.9235   11.6680    8.0925 H   0  0  0  0  0  0  0  0  0  0  0  0
    3.6922    8.5457    7.6570 H   0  0  0  0  0  0  0  0  0  0  0  0
    4.4711    8.7501    6.3112 H   0  0  0  0  0  0  0  0  0  0  0  0
    5.2011    8.9721    7.6801 H   0  0  0  0  0  0  0  0  0  0  0  0
  1  2  1  0  0  0  0
  2  4  1  0  0  0  0
  3  1  1  0  0  0  0
  4  3  1  0  0  0  0
  5 15  3  0  0  0  0
  6 16  3  0  0  0  0
  7 17  3  0  0  0  0
  8 18  3  0  0  0  0
  9  2  1  0  0  0  0
 10  3  1  0  0  0  0
 11  9  1  0  0  0  0
 12  9  1  0  0  0  0
 13 10  1  0  0  0  0
 14 10  1  0  0  0  0
 15  1  1  0  0  0  0
 16  1  1  0  0  0  0
 17  1  1  0  0  0  0
 18  1  1  0  0  0  0
 19  4  1  0  0  0  0
 20  4  1  0  0  0  0
 21 11  1  0  0  0  0
 22 21  1  0  0  0  0
 23 21  1  0  0  0  0
 24 11  1  0  0  0  0
 25 24  1  0  0  0  0
 26 24  1  0  0  0  0
 27 12  1  0  0  0  0
 28 27  1  0  0  0  0
 29 27  1  0  0  0  0
 30 12  1  0  0  0  0
 31 30  1  0  0  0  0
 32 30  1  0  0  0  0
 33 13  1  0  0  0  0
 34 33  1  0  0  0  0
 35 33  1  0  0  0  0
 36 13  1  0  0  0  0
 37 36  1  0  0  0  0
 38 36  1  0  0  0  0
 39 14  1  0  0  0  0
 40 39  1  0  0  0  0
 41 39  1  0  0  0  0
 42 14  1  0  0  0  0
 43 42  1  0  0  0  0
 44 42  1  0  0  0  0
 45  2  1  0  0  0  0
 46  3  1  0  0  0  0
 47 19  1  0  0  0  0
 48 19  1  0  0  0  0
 49 19  1  0  0  0  0
 50 20  1  0  0  0  0
 51 20  1  0  0  0  0
 52 20  1  0  0  0  0
 53 21  1  0  0  0  0
 54 22  1  0  0  0  0
 55 22  1  0  0  0  0
 56 22  1  0  0  0  0
 57 23  1  0  0  0  0
 58 23  1  0  0  0  0
 59 23  1  0  0  0  0
 60 24  1  0  0  0  0
 61 25  1  0  0  0  0
 62 25  1  0  0  0  0
 63 25  1  0  0  0  0
 64 26  1  0  0  0  0
 65 26  1  0  0  0  0
 66 26  1  0  0  0  0
 67 27  1  0  0  0  0
 68 28  1  0  0  0  0
 69 28  1  0  0  0  0
 70 28  1  0  0  0  0
 71 29  1  0  0  0  0
 72 29  1  0  0  0  0
 73 29  1  0  0  0  0
 74 30  1  0  0  0  0
 75 31  1  0  0  0  0
 76 31  1  0  0  0  0
 77 31  1  0  0  0  0
 78 32  1  0  0  0  0
 79 32  1  0  0  0  0
 80 32  1  0  0  0  0
 81 33  1  0  0  0  0
 82 34  1  0  0  0  0
 83 34  1  0  0  0  0
 84 34  1  0  0  0  0
 85 35  1  0  0  0  0
 86 35  1  0  0  0  0
 87 35  1  0  0  0  0
 88 36  1  0  0  0  0
 89 37  1  0  0  0  0
 90 37  1  0  0  0  0
 91 37  1  0  0  0  0
 92 38  1  0  0  0  0
 93 38  1  0  0  0  0
 94 38  1  0  0  0  0
 95 39  1  0  0  0  0
 96 40  1  0  0  0  0
 97 40  1  0  0  0  0
 98 40  1  0  0  0  0
 99 41  1  0  0  0  0
100 41  1  0  0  0  0
101 41  1  0  0  0  0
102 42  1  0  0  0  0
103 43  1  0  0  0  0
104 43  1  0  0  0  0
105 43  1  0  0  0  0
106 44  1  0  0  0  0
107 44  1  0  0  0  0
108 44  1  0  0  0  0
M  END
$$$$
WOKJOY

From CSD data. Using bond type 'Any'. No disordered atoms. Largest molecule.
 53 68  0  0  0  0  0  0  0  0999 V2000
    0.9220    1.9598    5.1682 P   0  0  0  0  0  0  0  0  0  0  0  0
    1.4646    1.4882    1.8742 P   0  0  0  0  0  0  0  0  0  0  0  0
    2.3089    1.2462    3.0854 O   0  0  0  0  0  0  0  0  0  0  0  0
   -0.2573    2.4969    3.9295 C   0  0  0  0  0  0  0  0  0  0  0  0
   -0.0094    2.3990    2.3758 C   0  0  0  0  0  0  0  0  0  0  0  0
    2.2994    3.1139    5.5704 C   0  0  0  0  0  0  0  0  0  0  0  0
    2.4940    4.1385    4.4540 C   0  0  0  0  0  0  0  0  0  0  0  0
    1.9271    3.8454    6.8648 C   0  0  0  0  0  0  0  0  0  0  0  0
    3.5801    2.3010    5.7649 C   0  0  0  0  0  0  0  0  0  0  0  0
    2.3611    2.1806    0.4495 C   0  0  0  0  0  0  0  0  0  0  0  0
    3.5335    1.2142    0.2406 C   0  0  0  0  0  0  0  0  0  0  0  0
    2.8920    3.5833    0.7237 C   0  0  0  0  0  0  0  0  0  0  0  0
    1.4587    2.1595   -0.7880 C   0  0  0  0  0  0  0  0  0  0  0  0
   -1.9084    2.1477    4.3634 B   0  0  0  0  0  0  0  0  0  0  0  0
   -1.1090    1.2477    3.0645 B   0  0  0  0  0  0  0  0  0  0  0  0
   -2.6870    1.9655    2.7914 B   0  0  0  0  0  0  0  0  0  0  0  0
   -2.7111    3.5332    3.6639 B   0  0  0  0  0  0  0  0  0  0  0  0
   -1.1528    3.7562    4.4205 B   0  0  0  0  0  0  0  0  0  0  0  0
   -1.4650    2.0685    1.5455 B   0  0  0  0  0  0  0  0  0  0  0  0
   -2.4334    3.4932    1.8712 B   0  0  0  0  0  0  0  0  0  0  0  0
   -1.5785    4.6608    2.9079 B   0  0  0  0  0  0  0  0  0  0  0  0
   -0.6778    3.6948    1.6220 B   0  0  0  0  0  0  0  0  0  0  0  0
    0.1647    1.9551    6.2251 H   0  0  0  0  0  0  0  0  0  0  0  0
    1.2743    0.7468    5.1423 H   0  0  0  0  0  0  0  0  0  0  0  0
    1.0139    0.3462    1.3417 H   0  0  0  0  0  0  0  0  0  0  0  0
   -2.1277    1.5806    5.1703 H   0  0  0  0  0  0  0  0  0  0  0  0
   -0.8343    0.2678    3.1563 H   0  0  0  0  0  0  0  0  0  0  0  0
   -3.5926    1.3476    2.6528 H   0  0  0  0  0  0  0  0  0  0  0  0
   -3.6180    3.9210    4.0749 H   0  0  0  0  0  0  0  0  0  0  0  0
   -0.9890    4.2040    5.4229 H   0  0  0  0  0  0  0  0  0  0  0  0
   -1.4011    1.4913    0.5766 H   0  0  0  0  0  0  0  0  0  0  0  0
   -3.1514    3.8687    1.1730 H   0  0  0  0  0  0  0  0  0  0  0  0
   -1.8094    5.6714    2.8423 H   0  0  0  0  0  0  0  0  0  0  0  0
   -0.3792    4.4979    2.7160 H   0  0  0  0  0  0  0  0  0  0  0  0
   -0.3039    4.0886    0.6921 H   0  0  0  0  0  0  0  0  0  0  0  0
    3.1695    4.7635    4.7191 H   0  0  0  0  0  0  0  0  0  0  0  0
    2.7924    3.7207    3.5822 H   0  0  0  0  0  0  0  0  0  0  0  0
    1.6872    4.6024    4.2409 H   0  0  0  0  0  0  0  0  0  0  0  0
    2.6724    4.4391    7.0832 H   0  0  0  0  0  0  0  0  0  0  0  0
    1.7647    3.2156    7.4351 H   0  0  0  0  0  0  0  0  0  0  0  0
    1.0915    4.2889    6.7944 H   0  0  0  0  0  0  0  0  0  0  0  0
    3.7861    1.8571    5.0530 H   0  0  0  0  0  0  0  0  0  0  0  0
    4.2525    2.8977    6.0004 H   0  0  0  0  0  0  0  0  0  0  0  0
    3.4389    1.6916    6.4786 H   0  0  0  0  0  0  0  0  0  0  0  0
    3.2040    0.3070    0.0632 H   0  0  0  0  0  0  0  0  0  0  0  0
    4.1116    1.5501   -0.4512 H   0  0  0  0  0  0  0  0  0  0  0  0
    4.1220    1.1996    0.9925 H   0  0  0  0  0  0  0  0  0  0  0  0
    2.1977    4.1953    0.8933 H   0  0  0  0  0  0  0  0  0  0  0  0
    3.5249    3.5356    1.4888 H   0  0  0  0  0  0  0  0  0  0  0  0
    3.3732    3.9036   -0.0993 H   0  0  0  0  0  0  0  0  0  0  0  0
    1.9703    2.4580   -1.5069 H   0  0  0  0  0  0  0  0  0  0  0  0
    1.1661    1.2366   -0.9745 H   0  0  0  0  0  0  0  0  0  0  0  0
    0.7193    2.7388   -0.7128 H   0  0  0  0  0  0  0  0  0  0  0  0
  1  4  1  0  0  0  0
  2  3  2  0  0  0  0
  4  5  1  0  0  0  0
  5  2  1  0  0  0  0
  6  1  1  0  0  0  0
  7  6  1  0  0  0  0
  8  6  1  0  0  0  0
  9  6  1  0  0  0  0
 10  2  1  0  0  0  0
 11 10  1  0  0  0  0
 12 10  1  0  0  0  0
 13 10  1  0  0  0  0
 14  4  1  0  0  0  0
 15  4  1  0  0  0  0
 16 14  1  0  0  0  0
 17 14  1  0  0  0  0
 18  4  1  0  0  0  0
 19  5  1  0  0  0  0
 20 16  1  0  0  0  0
 21 17  1  0  0  0  0
 22  5  1  0  0  0  0
 23  1  1  0  0  0  0
 24  1  1  0  0  0  0
 25  2  1  0  0  0  0
 26 14  1  0  0  0  0
 27 15  1  0  0  0  0
 28 16  1  0  0  0  0
 29 17  1  0  0  0  0
 30 18  1  0  0  0  0
 31 19  1  0  0  0  0
 32 20  1  0  0  0  0
 33 21  1  0  0  0  0
 34 21  1  0  0  0  0
 35 22  1  0  0  0  0
 36  7  1  0  0  0  0
 37  7  1  0  0  0  0
 38  7  1  0  0  0  0
 39  8  1  0  0  0  0
 40  8  1  0  0  0  0
 41  8  1  0  0  0  0
 42  9  1  0  0  0  0
 43  9  1  0  0  0  0
 44  9  1  0  0  0  0
 45 11  1  0  0  0  0
 46 11  1  0  0  0  0
 47 11  1  0  0  0  0
 48 12  1  0  0  0  0
 49 12  1  0  0  0  0
 50 12  1  0  0  0  0
 51 13  1  0  0  0  0
 52 13  1  0  0  0  0
 53 13  1  0  0  0  0
  5 15  1  0  0  0  0
 14 15  1  0  0  0  0
 14 18  1  0  0  0  0
 15 16  1  0  0  0  0
 15 19  1  0  0  0  0
 16 17  1  0  0  0  0
 16 19  1  0  0  0  0
 17 18  1  0  0  0  0
 17 20  1  0  0  0  0
 18 21  1  0  0  0  0
 19 20  1  0  0  0  0
 19 22  1  0  0  0  0
 20 21  1  0  0  0  0
 20 22  1  0  0  0  0
 21 22  1  0  0  0  0
 22 34  1  0  0  0  0
M  END
$$$$
WOKWEZ

From CSD data. Using bond type 'Any'. No disordered atoms. Largest molecule.
 70 74  0  0  0  0  0  0  0  0999 V2000
   14.9974    4.0959    4.5151 P   0  0  0  0  0  0  0  0  0  0  0  0
   12.9495    7.3380    6.3663 P   0  0  0  0  0  0  0  0  0  0  0  0
   12.2967    4.0271    4.9136 O   0  0  0  0  0  0  0  0  0  0  0  0
   11.8130    4.6818    3.6975 N   0  0  0  0  0  0  0  0  0  0  0  0
   11.7732    6.1192    4.1173 C   0  0  0  0  0  0  0  0  0  0  0  0
   11.0372    6.2382    4.7533 H   0  0  0  0  0  0  0  0  0  0  0  0
   13.1121    6.2597    4.8829 C   0  0  0  0  0  0  0  0  0  0  0  0
   13.7997    6.6191    4.2848 H   0  0  0  0  0  0  0  0  0  0  0  0
   13.4481    4.7838    5.2485 C   0  0  0  0  0  0  0  0  0  0  0  0
   13.5474    4.7441    6.2224 H   0  0  0  0  0  0  0  0  0  0  0  0
   16.4507    4.5673    5.5665 B   0  0  0  0  0  0  0  0  0  0  0  0
   16.3051    4.2669    6.4670 H   0  0  0  0  0  0  0  0  0  0  0  0
   16.5548    5.5218    5.5601 H   0  0  0  0  0  0  0  0  0  0  0  0
   17.2458    4.1569    5.2171 H   0  0  0  0  0  0  0  0  0  0  0  0
   14.7246    2.3398    4.4881 C   0  0  0  0  0  0  0  0  0  0  0  0
   14.6255    2.0178    5.3870 H   0  0  0  0  0  0  0  0  0  0  0  0
   15.4744    1.9056    4.0736 H   0  0  0  0  0  0  0  0  0  0  0  0
   13.9276    2.1470    3.9894 H   0  0  0  0  0  0  0  0  0  0  0  0
   15.1624    4.6206    2.8126 C   0  0  0  0  0  0  0  0  0  0  0  0
   15.8933    5.7349    2.5156 C   0  0  0  0  0  0  0  0  0  0  0  0
   16.2873    6.2280    3.1985 H   0  0  0  0  0  0  0  0  0  0  0  0
   16.0445    6.1282    1.1991 C   0  0  0  0  0  0  0  0  0  0  0  0
   16.5464    6.8889    1.0132 H   0  0  0  0  0  0  0  0  0  0  0  0
   15.4981    5.4560    0.1858 C   0  0  0  0  0  0  0  0  0  0  0  0
   15.5809    5.7587   -0.6893 H   0  0  0  0  0  0  0  0  0  0  0  0
   14.8234    4.3360    0.4653 C   0  0  0  0  0  0  0  0  0  0  0  0
   14.4953    3.8225   -0.2382 H   0  0  0  0  0  0  0  0  0  0  0  0
   14.5995    3.9109    1.7597 C   0  0  0  0  0  0  0  0  0  0  0  0
   14.0766    3.1593    1.9248 H   0  0  0  0  0  0  0  0  0  0  0  0
   11.9226    6.5556    7.7311 B   0  0  0  0  0  0  0  0  0  0  0  0
   12.3237    5.7247    7.9979 H   0  0  0  0  0  0  0  0  0  0  0  0
   11.0335    6.3912    7.4087 H   0  0  0  0  0  0  0  0  0  0  0  0
   11.8844    7.1496    8.4855 H   0  0  0  0  0  0  0  0  0  0  0  0
   14.6224    7.6847    6.9370 C   0  0  0  0  0  0  0  0  0  0  0  0
   15.0102    6.8832    7.2960 H   0  0  0  0  0  0  0  0  0  0  0  0
   14.5940    8.3592    7.6199 H   0  0  0  0  0  0  0  0  0  0  0  0
   15.1536    7.9953    6.2017 H   0  0  0  0  0  0  0  0  0  0  0  0
   12.3431    8.8954    5.7348 C   0  0  0  0  0  0  0  0  0  0  0  0
   11.2416    9.5245    6.2923 C   0  0  0  0  0  0  0  0  0  0  0  0
   10.7870    9.1164    6.9926 H   0  0  0  0  0  0  0  0  0  0  0  0
   10.8153   10.7341    5.8238 C   0  0  0  0  0  0  0  0  0  0  0  0
   10.0930   11.1501    6.2351 H   0  0  0  0  0  0  0  0  0  0  0  0
   11.4213   11.3462    4.7708 C   0  0  0  0  0  0  0  0  0  0  0  0
   11.1048   12.1601    4.4532 H   0  0  0  0  0  0  0  0  0  0  0  0
   12.5096   10.7454    4.1816 C   0  0  0  0  0  0  0  0  0  0  0  0
   12.9420   11.1501    3.4638 H   0  0  0  0  0  0  0  0  0  0  0  0
   12.9494    9.5324    4.6692 C   0  0  0  0  0  0  0  0  0  0  0  0
   13.6831    9.1289    4.2658 H   0  0  0  0  0  0  0  0  0  0  0  0
   11.5316    7.0113    2.9319 C   0  0  0  0  0  0  0  0  0  0  0  0
   10.3931    7.7493    2.8063 C   0  0  0  0  0  0  0  0  0  0  0  0
    9.7689    7.7436    3.4971 H   0  0  0  0  0  0  0  0  0  0  0  0
   10.1475    8.4986    1.6866 C   0  0  0  0  0  0  0  0  0  0  0  0
    9.3662    9.0019    1.6279 H   0  0  0  0  0  0  0  0  0  0  0  0
   11.0351    8.5133    0.6654 C   0  0  0  0  0  0  0  0  0  0  0  0
   10.8604    9.0155   -0.0969 H   0  0  0  0  0  0  0  0  0  0  0  0
   12.1589    7.8014    0.7591 C   0  0  0  0  0  0  0  0  0  0  0  0
   12.7795    7.8196    0.0651 H   0  0  0  0  0  0  0  0  0  0  0  0
   12.4029    7.0408    1.8788 C   0  0  0  0  0  0  0  0  0  0  0  0
   13.1809    6.5329    1.9217 H   0  0  0  0  0  0  0  0  0  0  0  0
   10.4952    4.1592    3.4066 C   0  0  0  0  0  0  0  0  0  0  0  0
    9.6831    3.6434    4.3754 C   0  0  0  0  0  0  0  0  0  0  0  0
    9.9743    3.5765    5.2568 H   0  0  0  0  0  0  0  0  0  0  0  0
    8.4011    3.2183    4.0133 C   0  0  0  0  0  0  0  0  0  0  0  0
    7.8419    2.8408    4.6533 H   0  0  0  0  0  0  0  0  0  0  0  0
    7.9703    3.3498    2.7507 C   0  0  0  0  0  0  0  0  0  0  0  0
    7.1007    3.0981    2.5363 H   0  0  0  0  0  0  0  0  0  0  0  0
    8.7843    3.8463    1.7692 C   0  0  0  0  0  0  0  0  0  0  0  0
    8.4824    3.9257    0.8941 H   0  0  0  0  0  0  0  0  0  0  0  0
   10.0666    4.2261    2.1107 C   0  0  0  0  0  0  0  0  0  0  0  0
   10.6467    4.5321    1.4516 H   0  0  0  0  0  0  0  0  0  0  0  0
  1  9  1  0  0  0  0
  2  7  1  0  0  0  0
  3  4  1  0  0  0  0
  4  5  1  0  0  0  0
  5  6  1  0  0  0  0
  7  5  1  0  0  0  0
  8  7  1  0  0  0  0
  9  3  1  0  0  0  0
 10  9  1  0  0  0  0
 11  1  1  0  0  0  0
 12 11  1  0  0  0  0
 13 11  1  0  0  0  0
 14 11  1  0  0  0  0
 15  1  1  0  0  0  0
 16 15  1  0  0  0  0
 17 15  1  0  0  0  0
 18 15  1  0  0  0  0
 19  1  1  0  0  0  0
 20 19  4  0  0  0  0
 21 20  1  0  0  0  0
 22 20  4  0  0  0  0
 23 22  1  0  0  0  0
 24 22  4  0  0  0  0
 25 24  1  0  0  0  0
 26 24  4  0  0  0  0
 27 26  1  0  0  0  0
 28 19  4  0  0  0  0
 29 28  1  0  0  0  0
 30  2  1  0  0  0  0
 31 30  1  0  0  0  0
 32 30  1  0  0  0  0
 33 30  1  0  0  0  0
 34  2  1  0  0  0  0
 35 34  1  0  0  0  0
 36 34  1  0  0  0  0
 37 34  1  0  0  0  0
 38  2  1  0  0  0  0
 39 38  4  0  0  0  0
 40 39  1  0  0  0  0
 41 39  4  0  0  0  0
 42 41  1  0  0  0  0
 43 41  4  0  0  0  0
 44 43  1  0  0  0  0
 45 43  4  0  0  0  0
 46 45  1  0  0  0  0
 47 38  4  0  0  0  0
 48 47  1  0  0  0  0
 49  5  1  0  0  0  0
 50 49  4  0  0  0  0
 51 50  1  0  0  0  0
 52 50  4  0  0  0  0
 53 52  1  0  0  0  0
 54 52  4  0  0  0  0
 55 54  1  0  0  0  0
 56 54  4  0  0  0  0
 57 56  1  0  0  0  0
 58 49  4  0  0  0  0
 59 58  1  0  0  0  0
 60  4  1  0  0  0  0
 61 60  4  0  0  0  0
 62 61  1  0  0  0  0
 63 61  4  0  0  0  0
 64 63  1  0  0  0  0
 65 63  4  0  0  0  0
 66 65  1  0  0  0  0
 67 65  4  0  0  0  0
 68 67  1  0  0  0  0
 69 60  4  0  0  0  0
 70 69  1  0  0  0  0
  7  9  1  0  0  0  0
 26 28  4  0  0  0  0
 45 47  4  0  0  0  0
 56 58  4  0  0  0  0
 67 69  4  0  0  0  0
M  END
$$$$
WOLKAN

From CSD data. Using bond type 'Any'. No disordered atoms. Largest molecule.
147162  0  0  0  0  0  0  0  0999 V2000
   15.8488    4.0779    8.2274 Ba  0  2  0  0  0  0  0  0  0  0  0  0
   15.4736    2.2139    6.4202 O   0  0  0  0  0  0  0  0  0  0  0  0
   14.5745    1.0724    6.3123 C   0  0  0  0  0  0  0  0  0  0  0  0
   13.9231    1.0977    7.0572 H   0  0  0  0  0  0  0  0  0  0  0  0
   15.0977    0.2356    6.3931 H   0  0  0  0  0  0  0  0  0  0  0  0
   13.8381    1.0695    5.0129 C   0  0  0  0  0  0  0  0  0  0  0  0
   13.2146    1.8382    4.9878 H   0  0  0  0  0  0  0  0  0  0  0  0
   13.3035    0.2397    4.9404 H   0  0  0  0  0  0  0  0  0  0  0  0
   14.7995    1.1577    3.8282 C   0  0  0  0  0  0  0  0  0  0  0  0
   15.3202    0.3193    3.7584 H   0  0  0  0  0  0  0  0  0  0  0  0
   14.2854    1.2731    2.9900 H   0  0  0  0  0  0  0  0  0  0  0  0
   15.7376    2.3226    4.0105 C   0  0  0  0  0  0  0  0  0  0  0  0
   15.2281    3.1706    3.9667 H   0  0  0  0  0  0  0  0  0  0  0  0
   16.4078    2.3275    3.2820 H   0  0  0  0  0  0  0  0  0  0  0  0
   16.4389    2.2185    5.3462 C   0  0  0  0  0  0  0  0  0  0  0  0
   16.9736    1.3866    5.3767 H   0  0  0  0  0  0  0  0  0  0  0  0
   17.0553    2.9856    5.4579 H   0  0  0  0  0  0  0  0  0  0  0  0
   18.3085    4.7695    7.4937 O   0  0  0  0  0  0  0  0  0  0  0  0
   18.8510    6.1121    7.4166 C   0  0  0  0  0  0  0  0  0  0  0  0
   18.1945    6.6736    6.9325 H   0  0  0  0  0  0  0  0  0  0  0  0
   18.9088    6.4656    8.3402 H   0  0  0  0  0  0  0  0  0  0  0  0
   19.9353    6.2769    6.8898 C   0  0  0  0  0  0  0  0  0  0  0  0
   20.3069    7.1183    7.2578 H   0  0  0  0  0  0  0  0  0  0  0  0
   19.7650    6.4396    5.9289 H   0  0  0  0  0  0  0  0  0  0  0  0
   21.0470    5.2392    6.9657 C   0  0  0  0  0  0  0  0  0  0  0  0
   21.6165    5.2996    6.1580 H   0  0  0  0  0  0  0  0  0  0  0  0
   21.6169    5.4180    7.7572 H   0  0  0  0  0  0  0  0  0  0  0  0
   20.4614    3.8719    7.0682 C   0  0  0  0  0  0  0  0  0  0  0  0
   20.3591    3.5093    6.1525 H   0  0  0  0  0  0  0  0  0  0  0  0
   21.1085    3.2916    7.5444 H   0  0  0  0  0  0  0  0  0  0  0  0
   19.3199    3.7881    7.6708 C   0  0  0  0  0  0  0  0  0  0  0  0
   19.5094    3.7402    8.6407 H   0  0  0  0  0  0  0  0  0  0  0  0
   18.9239    2.9171    7.4147 H   0  0  0  0  0  0  0  0  0  0  0  0
   14.3019    6.5576    6.6778 P   0  0  0  0  0  0  0  0  0  0  0  0
   15.6320    7.7858    6.3521 C   0  0  0  0  0  0  0  0  0  0  0  0
   16.0002    8.7628    7.2610 C   0  0  0  0  0  0  0  0  0  0  0  0
   15.4860    8.8809    8.0511 H   0  0  0  0  0  0  0  0  0  0  0  0
   17.1079    9.5750    7.0415 C   0  0  0  0  0  0  0  0  0  0  0  0
   17.3390   10.2391    7.6811 H   0  0  0  0  0  0  0  0  0  0  0  0
   17.8697    9.4262    5.9099 C   0  0  0  0  0  0  0  0  0  0  0  0
   18.6240    9.9841    5.7598 H   0  0  0  0  0  0  0  0  0  0  0  0
   17.5270    8.4622    4.9987 C   0  0  0  0  0  0  0  0  0  0  0  0
   18.0529    8.3510    4.2152 H   0  0  0  0  0  0  0  0  0  0  0  0
   16.4295    7.6485    5.2017 C   0  0  0  0  0  0  0  0  0  0  0  0
   16.2100    6.9864    4.5561 H   0  0  0  0  0  0  0  0  0  0  0  0
   13.5746    6.3101    5.0184 C   0  0  0  0  0  0  0  0  0  0  0  0
   13.5432    7.2929    4.0240 C   0  0  0  0  0  0  0  0  0  0  0  0
   13.9232    8.1463    4.1985 H   0  0  0  0  0  0  0  0  0  0  0  0
   12.9623    7.0415    2.7789 C   0  0  0  0  0  0  0  0  0  0  0  0
   12.9451    7.7231    2.1167 H   0  0  0  0  0  0  0  0  0  0  0  0
   12.4136    5.8028    2.5101 C   0  0  0  0  0  0  0  0  0  0  0  0
   12.0126    5.6330    1.6661 H   0  0  0  0  0  0  0  0  0  0  0  0
   12.4500    4.8099    3.4763 C   0  0  0  0  0  0  0  0  0  0  0  0
   12.0798    3.9550    3.2895 H   0  0  0  0  0  0  0  0  0  0  0  0
   13.0303    5.0600    4.7265 C   0  0  0  0  0  0  0  0  0  0  0  0
   13.0529    4.3724    5.3814 H   0  0  0  0  0  0  0  0  0  0  0  0
   12.8372    7.4360    7.8490 B   0  5  0  0  0  0  0  0  0  0  0  0
   12.3942    8.7642    7.0062 C   0  0  0  0  0  0  0  0  0  0  0  0
   12.8706   10.0505    7.2539 C   0  0  0  0  0  0  0  0  0  0  0  0
   12.5910   11.1519    6.4831 C   0  0  0  0  0  0  0  0  0  0  0  0
   11.7945   11.0160    5.3741 C   0  0  0  0  0  0  0  0  0  0  0  0
   11.2881    9.7745    5.0793 C   0  0  0  0  0  0  0  0  0  0  0  0
   11.5850    8.6963    5.8784 C   0  0  0  0  0  0  0  0  0  0  0  0
   13.6446   10.3032    8.3280 F   0  0  0  0  0  0  0  0  0  0  0  0
   13.0815   12.3607    6.8029 F   0  0  0  0  0  0  0  0  0  0  0  0
   11.5235   12.0813    4.5963 F   0  0  0  0  0  0  0  0  0  0  0  0
   10.4997    9.6256    3.9885 F   0  0  0  0  0  0  0  0  0  0  0  0
   11.0076    7.5292    5.5227 F   0  0  0  0  0  0  0  0  0  0  0  0
   11.6310    6.3275    8.1112 C   0  0  0  0  0  0  0  0  0  0  0  0
   10.2624    6.6194    8.1241 C   0  0  0  0  0  0  0  0  0  0  0  0
    9.2774    5.6887    8.3957 C   0  0  0  0  0  0  0  0  0  0  0  0
    9.6108    4.4067    8.7050 C   0  0  0  0  0  0  0  0  0  0  0  0
   10.9409    4.0670    8.7930 C   0  0  0  0  0  0  0  0  0  0  0  0
   11.8811    5.0180    8.5039 C   0  0  0  0  0  0  0  0  0  0  0  0
    9.8132    7.8615    7.8469 F   0  0  0  0  0  0  0  0  0  0  0  0
    7.9747    6.0415    8.3272 F   0  0  0  0  0  0  0  0  0  0  0  0
    8.6569    3.4814    8.9332 F   0  0  0  0  0  0  0  0  0  0  0  0
   11.2993    2.8250    9.1494 F   0  0  0  0  0  0  0  0  0  0  0  0
   13.1780    4.5941    8.6698 F   0  0  0  0  0  0  0  0  0  0  0  0
   13.3590    7.7771    9.3905 C   0  0  0  0  0  0  0  0  0  0  0  0
   12.5491    8.5821   10.2006 C   0  0  0  0  0  0  0  0  0  0  0  0
   12.8659    8.9724   11.4890 C   0  0  0  0  0  0  0  0  0  0  0  0
   14.0314    8.5229   12.0548 C   0  0  0  0  0  0  0  0  0  0  0  0
   14.8363    7.6875   11.3490 C   0  0  0  0  0  0  0  0  0  0  0  0
   14.4821    7.3392   10.0541 C   0  0  0  0  0  0  0  0  0  0  0  0
   11.3930    9.0670    9.7126 F   0  0  0  0  0  0  0  0  0  0  0  0
   12.0634    9.8007   12.1610 F   0  0  0  0  0  0  0  0  0  0  0  0
   14.3746    8.9228   13.2942 F   0  0  0  0  0  0  0  0  0  0  0  0
   15.9665    7.2085   11.8970 F   0  0  0  0  0  0  0  0  0  0  0  0
   15.4008    6.5300    9.4204 F   0  0  0  0  0  0  0  0  0  0  0  0
   16.1484    1.6762   10.3956 P   0  0  0  0  0  0  0  0  0  0  0  0
   14.9880    0.2703   10.3132 C   0  0  0  0  0  0  0  0  0  0  0  0
   13.6265    0.5723   10.2757 C   0  0  0  0  0  0  0  0  0  0  0  0
   13.3450    1.4796   10.2402 H   0  0  0  0  0  0  0  0  0  0  0  0
   12.6803   -0.4451   10.2898 C   0  0  0  0  0  0  0  0  0  0  0  0
   11.7545   -0.2332   10.2819 H   0  0  0  0  0  0  0  0  0  0  0  0
   13.0866   -1.7618   10.3152 C   0  0  0  0  0  0  0  0  0  0  0  0
   12.4389   -2.4565   10.3223 H   0  0  0  0  0  0  0  0  0  0  0  0
   14.4237   -2.0711   10.3298 C   0  0  0  0  0  0  0  0  0  0  0  0
   14.6965   -2.9814   10.3431 H   0  0  0  0  0  0  0  0  0  0  0  0
   15.3756   -1.0695   10.3257 C   0  0  0  0  0  0  0  0  0  0  0  0
   16.2985   -1.2950   10.3313 H   0  0  0  0  0  0  0  0  0  0  0  0
   17.7032    1.0131    9.6859 C   0  0  0  0  0  0  0  0  0  0  0  0
   17.6477    0.3223    8.4875 C   0  0  0  0  0  0  0  0  0  0  0  0
   16.8034    0.0967    8.1143 H   0  0  0  0  0  0  0  0  0  0  0  0
   18.8134   -0.0462    7.8225 C   0  0  0  0  0  0  0  0  0  0  0  0
   18.7613   -0.5352    7.0103 H   0  0  0  0  0  0  0  0  0  0  0  0
   20.0285    0.2934    8.3350 C   0  0  0  0  0  0  0  0  0  0  0  0
   20.8193    0.0499    7.8687 H   0  0  0  0  0  0  0  0  0  0  0  0
   20.1243    0.9857    9.5260 C   0  0  0  0  0  0  0  0  0  0  0  0
   20.9761    1.2047    9.8845 H   0  0  0  0  0  0  0  0  0  0  0  0
   18.9632    1.3615   10.1937 C   0  0  0  0  0  0  0  0  0  0  0  0
   19.0247    1.8571   11.0014 H   0  0  0  0  0  0  0  0  0  0  0  0
   16.3943    2.1130   12.3832 B   0  5  0  0  0  0  0  0  0  0  0  0
   14.8957    2.5986   12.9037 C   0  0  0  0  0  0  0  0  0  0  0  0
   14.2530    2.1766   14.0736 C   0  0  0  0  0  0  0  0  0  0  0  0
   12.9929    2.5957   14.4403 C   0  0  0  0  0  0  0  0  0  0  0  0
   12.3061    3.5019   13.6732 C   0  0  0  0  0  0  0  0  0  0  0  0
   12.9151    4.0165   12.5564 C   0  0  0  0  0  0  0  0  0  0  0  0
   14.1760    3.5597   12.2122 C   0  0  0  0  0  0  0  0  0  0  0  0
   14.8679    1.3665   14.9473 F   0  0  0  0  0  0  0  0  0  0  0  0
   12.4335    2.1424   15.5797 F   0  0  0  0  0  0  0  0  0  0  0  0
   11.0769    3.9056   14.0281 F   0  0  0  0  0  0  0  0  0  0  0  0
   12.3003    4.9582   11.8146 F   0  0  0  0  0  0  0  0  0  0  0  0
   14.7232    4.1929   11.1266 F   0  0  0  0  0  0  0  0  0  0  0  0
   16.9800    0.7385   13.0611 C   0  0  0  0  0  0  0  0  0  0  0  0
   16.2161   -0.4090   13.2647 C   0  0  0  0  0  0  0  0  0  0  0  0
   16.7037   -1.6274   13.6622 C   0  0  0  0  0  0  0  0  0  0  0  0
   18.0578   -1.7705   13.9045 C   0  0  0  0  0  0  0  0  0  0  0  0
   18.8628   -0.6750   13.7644 C   0  0  0  0  0  0  0  0  0  0  0  0
   18.3268    0.5304   13.3715 C   0  0  0  0  0  0  0  0  0  0  0  0
   14.8736   -0.3684   13.0679 F   0  0  0  0  0  0  0  0  0  0  0  0
   15.8966   -2.6940   13.7919 F   0  0  0  0  0  0  0  0  0  0  0  0
   19.2183    1.5494   13.2995 F   0  0  0  0  0  0  0  0  0  0  0  0
   17.3096    3.4514   12.6591 C   0  0  0  0  0  0  0  0  0  0  0  0
   17.5756    3.8156   13.9860 C   0  0  0  0  0  0  0  0  0  0  0  0
   18.1680    4.9877   14.3739 C   0  0  0  0  0  0  0  0  0  0  0  0
   18.5492    5.9069   13.4209 C   0  0  0  0  0  0  0  0  0  0  0  0
   18.3441    5.5889   12.1009 C   0  0  0  0  0  0  0  0  0  0  0  0
   17.7427    4.4024   11.7713 C   0  0  0  0  0  0  0  0  0  0  0  0
   17.2121    2.9773   14.9798 F   0  0  0  0  0  0  0  0  0  0  0  0
   18.3666    5.2689   15.6737 F   0  0  0  0  0  0  0  0  0  0  0  0
   19.1209    7.0732   13.7743 F   0  0  0  0  0  0  0  0  0  0  0  0
   18.6962    6.4674   11.1385 F   0  0  0  0  0  0  0  0  0  0  0  0
   17.5750    4.2200   10.4161 F   0  0  0  0  0  0  0  0  0  0  0  0
   18.5735   -2.9656   14.2632 F   0  0  0  0  0  0  0  0  0  0  0  0
   20.1833   -0.7862   14.0100 F   0  0  0  0  0  0  0  0  0  0  0  0
  1  2  1  0  0  0  0
  2  3  1  0  0  0  0
  3  4  1  0  0  0  0
  5  3  1  0  0  0  0
  6  3  1  0  0  0  0
  7  6  1  0  0  0  0
  8  6  1  0  0  0  0
  9  6  1  0  0  0  0
 10  9  1  0  0  0  0
 11  9  1  0  0  0  0
 12  9  1  0  0  0  0
 13 12  1  0  0  0  0
 14 12  1  0  0  0  0
 15  2  1  0  0  0  0
 16 15  1  0  0  0  0
 17 15  1  0  0  0  0
 18  1  1  0  0  0  0
 19 18  1  0  0  0  0
 20 19  1  0  0  0  0
 21 19  1  0  0  0  0
 22 19  1  0  0  0  0
 23 22  1  0  0  0  0
 24 22  1  0  0  0  0
 25 22  1  0  0  0  0
 26 25  1  0  0  0  0
 27 25  1  0  0  0  0
 28 25  1  0  0  0  0
 29 28  1  0  0  0  0
 30 28  1  0  0  0  0
 31 18  1  0  0  0  0
 32 31  1  0  0  0  0
 33 31  1  0  0  0  0
 34  1  1  0  0  0  0
 35 34  1  0  0  0  0
 36 35  4  0  0  0  0
 37 36  1  0  0  0  0
 38 36  4  0  0  0  0
 39 38  1  0  0  0  0
 40 38  4  0  0  0  0
 41 40  1  0  0  0  0
 42 40  4  0  0  0  0
 43 42  1  0  0  0  0
 44 35  4  0  0  0  0
 45 44  1  0  0  0  0
 46 34  1  0  0  0  0
 47 46  4  0  0  0  0
 48 47  1  0  0  0  0
 49 47  4  0  0  0  0
 50 49  1  0  0  0  0
 51 49  4  0  0  0  0
 52 51  1  0  0  0  0
 53 51  4  0  0  0  0
 54 53  1  0  0  0  0
 55 46  4  0  0  0  0
 56 55  1  0  0  0  0
 57 34  1  0  0  0  0
 58 57  1  0  0  0  0
 59 58  4  0  0  0  0
 60 59  4  0  0  0  0
 61 60  4  0  0  0  0
 62 61  4  0  0  0  0
 63 58  4  0  0  0  0
 64 59  1  0  0  0  0
 65 60  1  0  0  0  0
 66 61  1  0  0  0  0
 67 62  1  0  0  0  0
 68 63  1  0  0  0  0
 69 57  1  0  0  0  0
 70 69  4  0  0  0  0
 71 70  4  0  0  0  0
 72 71  4  0  0  0  0
 73 72  4  0  0  0  0
 74 69  4  0  0  0  0
 75 70  1  0  0  0  0
 76 71  1  0  0  0  0
 77 72  1  0  0  0  0
 78 73  1  0  0  0  0
 79  1  1  0  0  0  0
 80 57  1  0  0  0  0
 81 80  4  0  0  0  0
 82 81  4  0  0  0  0
 83 82  4  0  0  0  0
 84 83  4  0  0  0  0
 85 80  4  0  0  0  0
 86 81  1  0  0  0  0
 87 82  1  0  0  0  0
 88 83  1  0  0  0  0
 89 84  1  0  0  0  0
 90  1  1  0  0  0  0
 91  1  1  0  0  0  0
 92 91  1  0  0  0  0
 93 92  4  0  0  0  0
 94 93  1  0  0  0  0
 95 93  4  0  0  0  0
 96 95  1  0  0  0  0
 97 95  4  0  0  0  0
 98 97  1  0  0  0  0
 99 97  4  0  0  0  0
100 99  1  0  0  0  0
101 92  4  0  0  0  0
102101  1  0  0  0  0
103 91  1  0  0  0  0
104103  4  0  0  0  0
105104  1  0  0  0  0
106104  4  0  0  0  0
107106  1  0  0  0  0
108106  4  0  0  0  0
109108  1  0  0  0  0
110108  4  0  0  0  0
111110  1  0  0  0  0
112103  4  0  0  0  0
113112  1  0  0  0  0
114 91  1  0  0  0  0
115114  1  0  0  0  0
116115  4  0  0  0  0
117116  4  0  0  0  0
118117  4  0  0  0  0
119118  4  0  0  0  0
120115  4  0  0  0  0
121116  1  0  0  0  0
122117  1  0  0  0  0
123118  1  0  0  0  0
124119  1  0  0  0  0
125  1  1  0  0  0  0
126114  1  0  0  0  0
127126  4  0  0  0  0
128127  4  0  0  0  0
129128  4  0  0  0  0
130129  4  0  0  0  0
131126  4  0  0  0  0
132127  1  0  0  0  0
133128  1  0  0  0  0
134131  1  0  0  0  0
135114  1  0  0  0  0
136135  4  0  0  0  0
137136  4  0  0  0  0
138137  4  0  0  0  0
139138  4  0  0  0  0
140135  4  0  0  0  0
141136  1  0  0  0  0
142137  1  0  0  0  0
143138  1  0  0  0  0
144139  1  0  0  0  0
145  1  1  0  0  0  0
146129  1  0  0  0  0
147130  1  0  0  0  0
 12 15  1  0  0  0  0
 28 31  1  0  0  0  0
 42 44  4  0  0  0  0
 53 55  4  0  0  0  0
 62 63  4  0  0  0  0
 73 74  4  0  0  0  0
 74 79  1  0  0  0  0
 84 85  4  0  0  0  0
 85 90  1  0  0  0  0
 99101  4  0  0  0  0
110112  4  0  0  0  0
119120  4  0  0  0  0
120125  1  0  0  0  0
130131  4  0  0  0  0
139140  4  0  0  0  0
140145  1  0  0  0  0
M  CHG  3   1   2  57  -1 114  -1
M  END
$$$$
WOMLIU

From CSD data. Using bond type 'Any'. No disordered atoms. Largest molecule.
118141  0  0  0  0  0  0  0  0999 V2000
   14.7706    5.6113    3.8892 Ir  0  0  0  0  0  0  0  0  0  0  0  0
   13.0229    3.9862    3.6505 P   0  0  0  0  0  0  0  0  0  0  0  0
   16.7992    2.9749    2.6855 C   0  0  0  0  0  0  0  0  0  0  0  0
   17.5343    3.5392    2.0578 H   0  0  0  0  0  0  0  0  0  0  0  0
   16.9041    6.4989    4.3243 P   0  0  0  0  0  0  0  0  0  0  0  0
   14.7758    5.8672    1.9780 C   0  0  0  0  0  0  0  0  0  0  0  0
   15.3243    2.5573    2.1993 B   0  0  0  0  0  0  0  0  0  0  0  0
   14.9251    2.8539    1.1952 H   0  0  0  0  0  0  0  0  0  0  0  0
   13.5595    7.6189    4.4934 P   0  0  0  0  0  0  0  0  0  0  0  0
   14.4168    0.4538   -0.1490 O   0  0  0  0  0  0  0  0  0  0  0  0
   14.5457    0.4779    0.9875 C   0  0  0  0  0  0  0  0  0  0  0  0
   16.7337    1.3611    2.7638 B   0  0  0  0  0  0  0  0  0  0  0  0
   17.4629    0.7165    2.2098 H   0  0  0  0  0  0  0  0  0  0  0  0
   15.8918   -2.1468    2.9534 O   0  0  0  0  0  0  0  0  0  0  0  0
   15.4076   -1.1223    2.8676 C   0  0  0  0  0  0  0  0  0  0  0  0
   17.0225    2.4729    4.1953 B   0  0  0  0  0  0  0  0  0  0  0  0
   17.9599    2.6915    4.7673 H   0  0  0  0  0  0  0  0  0  0  0  0
   11.9047   -0.1862    3.3147 O   0  0  0  0  0  0  0  0  0  0  0  0
   13.0123    0.0609    3.1250 C   0  0  0  0  0  0  0  0  0  0  0  0
   15.7026    3.6365    3.6399 B   0  0  0  0  0  0  0  0  0  0  0  0
   14.6936    0.5096    2.7699 Fe  0  0  0  0  0  0  0  0  0  0  0  0
   16.1480    0.8747    4.3895 B   0  0  0  0  0  0  0  0  0  0  0  0
   16.6644    0.0331    4.9179 H   0  0  0  0  0  0  0  0  0  0  0  0
   15.4564    2.4433    5.0097 B   0  0  0  0  0  0  0  0  0  0  0  0
   15.3910    2.8317    6.0574 H   0  0  0  0  0  0  0  0  0  0  0  0
   14.2659    2.5226    3.6052 B   0  0  0  0  0  0  0  0  0  0  0  0
   14.4400    1.1194    4.6875 B   0  0  0  0  0  0  0  0  0  0  0  0
   13.7183    0.6128    5.3785 H   0  0  0  0  0  0  0  0  0  0  0  0
   12.0827    4.0754    2.0939 C   0  0  0  0  0  0  0  0  0  0  0  0
   11.3991    5.2023    1.7025 C   0  0  0  0  0  0  0  0  0  0  0  0
   11.3610    5.9422    2.2956 H   0  0  0  0  0  0  0  0  0  0  0  0
   10.7581    5.2983    0.4651 C   0  0  0  0  0  0  0  0  0  0  0  0
   10.2758    6.0842    0.2333 H   0  0  0  0  0  0  0  0  0  0  0  0
   10.8334    4.2712   -0.3869 C   0  0  0  0  0  0  0  0  0  0  0  0
   10.3755    4.3166   -1.2178 H   0  0  0  0  0  0  0  0  0  0  0  0
   11.5644    3.1502   -0.0768 C   0  0  0  0  0  0  0  0  0  0  0  0
   11.6849    2.4630   -0.7210 H   0  0  0  0  0  0  0  0  0  0  0  0
   12.1332    3.0292    1.2012 C   0  0  0  0  0  0  0  0  0  0  0  0
   12.5569    2.2171    1.4526 H   0  0  0  0  0  0  0  0  0  0  0  0
   11.7642    3.8008    4.9555 C   0  0  0  0  0  0  0  0  0  0  0  0
   12.1345    3.9525    6.2892 C   0  0  0  0  0  0  0  0  0  0  0  0
   13.0368    4.1497    6.5120 H   0  0  0  0  0  0  0  0  0  0  0  0
   11.1869    3.8145    7.2917 C   0  0  0  0  0  0  0  0  0  0  0  0
   11.4472    3.9057    8.2010 H   0  0  0  0  0  0  0  0  0  0  0  0
    9.8679    3.5464    6.9832 C   0  0  0  0  0  0  0  0  0  0  0  0
    9.2173    3.4827    7.6726 H   0  0  0  0  0  0  0  0  0  0  0  0
    9.5052    3.3732    5.6705 C   0  0  0  0  0  0  0  0  0  0  0  0
    8.6014    3.1729    5.4553 H   0  0  0  0  0  0  0  0  0  0  0  0
   10.4450    3.4854    4.6499 C   0  0  0  0  0  0  0  0  0  0  0  0
   10.1866    3.3479    3.7467 H   0  0  0  0  0  0  0  0  0  0  0  0
   11.7713    7.7445    4.0929 C   0  0  0  0  0  0  0  0  0  0  0  0
   11.2719    8.5833    3.0829 C   0  0  0  0  0  0  0  0  0  0  0  0
   11.8630    9.1451    2.5982 H   0  0  0  0  0  0  0  0  0  0  0  0
    9.9219    8.5902    2.7939 C   0  0  0  0  0  0  0  0  0  0  0  0
    9.6013    9.1507    2.0984 H   0  0  0  0  0  0  0  0  0  0  0  0
    9.0392    7.8156    3.4818 C   0  0  0  0  0  0  0  0  0  0  0  0
    8.1150    7.8292    3.2605 H   0  0  0  0  0  0  0  0  0  0  0  0
    9.5048    7.0045    4.5114 C   0  0  0  0  0  0  0  0  0  0  0  0
    8.8938    6.4699    5.0052 H   0  0  0  0  0  0  0  0  0  0  0  0
   10.8699    6.9719    4.8215 C   0  0  0  0  0  0  0  0  0  0  0  0
   11.1822    6.4230    5.5305 H   0  0  0  0  0  0  0  0  0  0  0  0
   13.4681    8.0197    6.2787 C   0  0  0  0  0  0  0  0  0  0  0  0
   14.1314    7.2586    7.2315 C   0  0  0  0  0  0  0  0  0  0  0  0
   14.6699    6.5264    6.9546 H   0  0  0  0  0  0  0  0  0  0  0  0
   14.0172    7.5580    8.5863 C   0  0  0  0  0  0  0  0  0  0  0  0
   14.4411    7.0053    9.2321 H   0  0  0  0  0  0  0  0  0  0  0  0
   13.2935    8.6554    8.9927 C   0  0  0  0  0  0  0  0  0  0  0  0
   13.2469    8.8841    9.9140 H   0  0  0  0  0  0  0  0  0  0  0  0
   12.6330    9.4280    8.0489 C   0  0  0  0  0  0  0  0  0  0  0  0
   12.1392   10.1928    8.3214 H   0  0  0  0  0  0  0  0  0  0  0  0
   12.6915    9.0806    6.7077 C   0  0  0  0  0  0  0  0  0  0  0  0
   12.1907    9.5804    6.0739 H   0  0  0  0  0  0  0  0  0  0  0  0
   14.1521    9.1582    3.6323 C   0  0  0  0  0  0  0  0  0  0  0  0
   14.3646    9.1172    2.2595 C   0  0  0  0  0  0  0  0  0  0  0  0
   14.3082    8.2796    1.8139 H   0  0  0  0  0  0  0  0  0  0  0  0
   14.6519   10.2443    1.5159 C   0  0  0  0  0  0  0  0  0  0  0  0
   14.7501   10.1819    0.5735 H   0  0  0  0  0  0  0  0  0  0  0  0
   14.7955   11.4560    2.1481 C   0  0  0  0  0  0  0  0  0  0  0  0
   15.0085   12.2316    1.6438 H   0  0  0  0  0  0  0  0  0  0  0  0
   14.6336   11.5464    3.4938 C   0  0  0  0  0  0  0  0  0  0  0  0
   14.7491   12.3829    3.9319 H   0  0  0  0  0  0  0  0  0  0  0  0
   14.2934   10.3994    4.2420 C   0  0  0  0  0  0  0  0  0  0  0  0
   14.1579   10.4774    5.1798 H   0  0  0  0  0  0  0  0  0  0  0  0
   17.1508    8.3331    4.4557 C   0  0  0  0  0  0  0  0  0  0  0  0
   17.6492    9.1482    3.4472 C   0  0  0  0  0  0  0  0  0  0  0  0
   17.8504    8.7682    2.6012 H   0  0  0  0  0  0  0  0  0  0  0  0
   17.8600   10.5068    3.6459 C   0  0  0  0  0  0  0  0  0  0  0  0
   18.2165   11.0377    2.9429 H   0  0  0  0  0  0  0  0  0  0  0  0
   17.5570   11.0856    4.8531 C   0  0  0  0  0  0  0  0  0  0  0  0
   17.6974   12.0150    4.9871 H   0  0  0  0  0  0  0  0  0  0  0  0
   17.0430   10.2992    5.8798 C   0  0  0  0  0  0  0  0  0  0  0  0
   16.8311   10.6910    6.7182 H   0  0  0  0  0  0  0  0  0  0  0  0
   16.8367    8.9277    5.6720 C   0  0  0  0  0  0  0  0  0  0  0  0
   16.4782    8.3982    6.3750 H   0  0  0  0  0  0  0  0  0  0  0  0
   17.7506    6.0477    5.8873 C   0  0  0  0  0  0  0  0  0  0  0  0
   17.3044    5.0629    6.7348 C   0  0  0  0  0  0  0  0  0  0  0  0
   16.4971    4.6028    6.5376 H   0  0  0  0  0  0  0  0  0  0  0  0
   18.0225    4.7334    7.8803 C   0  0  0  0  0  0  0  0  0  0  0  0
   17.7003    4.0474    8.4538 H   0  0  0  0  0  0  0  0  0  0  0  0
   19.2055    5.3923    8.1934 C   0  0  0  0  0  0  0  0  0  0  0  0
   19.6854    5.1804    8.9852 H   0  0  0  0  0  0  0  0  0  0  0  0
   19.6649    6.3613    7.3324 C   0  0  0  0  0  0  0  0  0  0  0  0
   20.4894    6.7931    7.5130 H   0  0  0  0  0  0  0  0  0  0  0  0
   18.9512    6.7120    6.2124 C   0  0  0  0  0  0  0  0  0  0  0  0
   19.2691    7.4104    5.6510 H   0  0  0  0  0  0  0  0  0  0  0  0
   18.1325    6.0226    3.0603 C   0  0  0  0  0  0  0  0  0  0  0  0
   17.9208    6.3861    1.7206 C   0  0  0  0  0  0  0  0  0  0  0  0
   17.1690    6.9191    1.4888 H   0  0  0  0  0  0  0  0  0  0  0  0
   18.8063    5.9740    0.7346 C   0  0  0  0  0  0  0  0  0  0  0  0
   18.6604    6.2301   -0.1686 H   0  0  0  0  0  0  0  0  0  0  0  0
   19.9005    5.1915    1.0628 C   0  0  0  0  0  0  0  0  0  0  0  0
   20.4990    4.9044    0.3823 H   0  0  0  0  0  0  0  0  0  0  0  0
   20.1252    4.8270    2.3648 C   0  0  0  0  0  0  0  0  0  0  0  0
   20.8807    4.2966    2.5876 H   0  0  0  0  0  0  0  0  0  0  0  0
   19.2482    5.2363    3.3553 C   0  0  0  0  0  0  0  0  0  0  0  0
   19.4075    4.9759    4.2540 H   0  0  0  0  0  0  0  0  0  0  0  0
   14.6255    5.0521    5.4492 H   0  0  0  0  0  0  0  0  0  0  0  0
   14.7379    5.9150    0.8354 O   0  0  0  0  0  0  0  0  0  0  0  0
  1  2  1  0  0  0  0
  2 26  1  0  0  0  0
  3  4  1  0  0  0  0
  5  1  1  0  0  0  0
  6  1  1  0  0  0  0
  7  3  1  0  0  0  0
  8  7  1  0  0  0  0
  9  1  1  0  0  0  0
 10 11  3  0  0  0  0
 11 21  1  0  0  0  0
 12  3  1  0  0  0  0
 13 12  1  0  0  0  0
 14 15  3  0  0  0  0
 15 21  1  0  0  0  0
 16  3  1  0  0  0  0
 17 16  1  0  0  0  0
 18 19  3  0  0  0  0
 19 21  1  0  0  0  0
 20  1  1  0  0  0  0
 21  7  1  0  0  0  0
 22 12  1  0  0  0  0
 23 22  1  0  0  0  0
 24 16  1  0  0  0  0
 25 24  1  0  0  0  0
 26  7  1  0  0  0  0
 27 21  1  0  0  0  0
 28 27  1  0  0  0  0
 29  2  1  0  0  0  0
 30 29  4  0  0  0  0
 31 30  1  0  0  0  0
 32 30  4  0  0  0  0
 33 32  1  0  0  0  0
 34 32  4  0  0  0  0
 35 34  1  0  0  0  0
 36 34  4  0  0  0  0
 37 36  1  0  0  0  0
 38 29  4  0  0  0  0
 39 38  1  0  0  0  0
 40  2  1  0  0  0  0
 41 40  4  0  0  0  0
 42 41  1  0  0  0  0
 43 41  4  0  0  0  0
 44 43  1  0  0  0  0
 45 43  4  0  0  0  0
 46 45  1  0  0  0  0
 47 45  4  0  0  0  0
 48 47  1  0  0  0  0
 49 40  4  0  0  0  0
 50 49  1  0  0  0  0
 51  9  1  0  0  0  0
 52 51  4  0  0  0  0
 53 52  1  0  0  0  0
 54 52  4  0  0  0  0
 55 54  1  0  0  0  0
 56 54  4  0  0  0  0
 57 56  1  0  0  0  0
 58 56  4  0  0  0  0
 59 58  1  0  0  0  0
 60 51  4  0  0  0  0
 61 60  1  0  0  0  0
 62  9  1  0  0  0  0
 63 62  4  0  0  0  0
 64 63  1  0  0  0  0
 65 63  4  0  0  0  0
 66 65  1  0  0  0  0
 67 65  4  0  0  0  0
 68 67  1  0  0  0  0
 69 67  4  0  0  0  0
 70 69  1  0  0  0  0
 71 62  4  0  0  0  0
 72 71  1  0  0  0  0
 73  9  1  0  0  0  0
 74 73  4  0  0  0  0
 75 74  1  0  0  0  0
 76 74  4  0  0  0  0
 77 76  1  0  0  0  0
 78 76  4  0  0  0  0
 79 78  1  0  0  0  0
 80 78  4  0  0  0  0
 81 80  1  0  0  0  0
 82 73  4  0  0  0  0
 83 82  1  0  0  0  0
 84  5  1  0  0  0  0
 85 84  4  0  0  0  0
 86 85  1  0  0  0  0
 87 85  4  0  0  0  0
 88 87  1  0  0  0  0
 89 87  4  0  0  0  0
 90 89  1  0  0  0  0
 91 89  4  0  0  0  0
 92 91  1  0  0  0  0
 93 84  4  0  0  0  0
 94 93  1  0  0  0  0
 95  5  1  0  0  0  0
 96 95  4  0  0  0  0
 97 96  1  0  0  0  0
 98 96  4  0  0  0  0
 99 98  1  0  0  0  0
100 98  4  0  0  0  0
101100  1  0  0  0  0
102100  4  0  0  0  0
103102  1  0  0  0  0
104 95  4  0  0  0  0
105104  1  0  0  0  0
106  5  1  0  0  0  0
107106  4  0  0  0  0
108107  1  0  0  0  0
109107  4  0  0  0  0
110109  1  0  0  0  0
111109  4  0  0  0  0
112111  1  0  0  0  0
113111  4  0  0  0  0
114113  1  0  0  0  0
115106  4  0  0  0  0
116115  1  0  0  0  0
117  1  1  0  0  0  0
118  6  3  0  0  0  0
  3 20  1  0  0  0  0
  7 12  1  0  0  0  0
  7 20  1  0  0  0  0
 12 16  1  0  0  0  0
 12 21  1  0  0  0  0
 16 20  1  0  0  0  0
 16 22  1  0  0  0  0
 20 24  1  0  0  0  0
 20 26  1  0  0  0  0
 21 22  1  0  0  0  0
 21 26  1  0  0  0  0
 22 24  1  0  0  0  0
 22 27  1  0  0  0  0
 24 26  1  0  0  0  0
 24 27  1  0  0  0  0
 26 27  1  0  0  0  0
 36 38  4  0  0  0  0
 47 49  4  0  0  0  0
 58 60  4  0  0  0  0
 69 71  4  0  0  0  0
 80 82  4  0  0  0  0
 91 93  4  0  0  0  0
102104  4  0  0  0  0
113115  4  0  0  0  0
M  END
$$$$
WOMMER

From CSD data. Using bond type 'Any'. No disordered atoms. Largest molecule.
 71 90  0  0  0  0  0  0  0  0999 V2000
   12.0922   14.6442   -5.9767 P   0  3  0  0  0  0  0  0  0  0  0  0
   14.9338   11.2684   -5.6808 C   0  0  0  0  0  0  0  0  0  0  0  0
   14.9680   10.2546   -5.2048 H   0  0  0  0  0  0  0  0  0  0  0  0
   12.0950   13.7828   -8.8081 P   0  0  0  0  0  0  0  0  0  0  0  0
   11.6879   15.1779   -7.6609 C   0  0  0  0  0  0  0  0  0  0  0  0
   12.2138   15.9824   -7.9008 H   0  0  0  0  0  0  0  0  0  0  0  0
   10.7255   15.4030   -7.7261 H   0  0  0  0  0  0  0  0  0  0  0  0
   15.4068   11.5302   -7.1797 B   0  0  0  0  0  0  0  0  0  0  0  0
   15.8516   10.7282   -7.8229 H   0  0  0  0  0  0  0  0  0  0  0  0
   13.5987   11.8273   -6.3798 B   0  0  0  0  0  0  0  0  0  0  0  0
   12.6243   11.2737   -6.3876 H   0  0  0  0  0  0  0  0  0  0  0  0
   14.4913   12.6252   -4.9648 B   0  0  0  0  0  0  0  0  0  0  0  0
   14.2018   12.6819   -3.8852 H   0  0  0  0  0  0  0  0  0  0  0  0
   16.1253   12.3423   -5.7217 B   0  0  0  0  0  0  0  0  0  0  0  0
   17.1167   12.1723   -5.2279 H   0  0  0  0  0  0  0  0  0  0  0  0
   14.0301   12.8526   -8.2629 Fe  0  0  0  0  0  0  0  0  0  0  0  0
   13.6822   13.5978   -6.2341 B   0  5  0  0  0  0  0  0  0  0  0  0
   15.3966   13.9746   -5.7475 B   0  0  0  0  0  0  0  0  0  0  0  0
   15.8306   14.7899   -5.1143 H   0  0  0  0  0  0  0  0  0  0  0  0
   16.0116   13.2058   -7.2989 B   0  0  0  0  0  0  0  0  0  0  0  0
   16.9470   13.3944   -7.8861 H   0  0  0  0  0  0  0  0  0  0  0  0
   14.7750   14.4725   -7.2566 B   0  0  0  0  0  0  0  0  0  0  0  0
   14.7433   15.5066   -7.6861 H   0  0  0  0  0  0  0  0  0  0  0  0
   10.6380   13.8035   -5.2862 C   0  0  0  0  0  0  0  0  0  0  0  0
   10.8189   12.8607   -4.2737 C   0  0  0  0  0  0  0  0  0  0  0  0
   11.6972   12.6100   -4.0093 H   0  0  0  0  0  0  0  0  0  0  0  0
    9.7238   12.2947   -3.6602 C   0  0  0  0  0  0  0  0  0  0  0  0
    9.8472   11.6437   -2.9802 H   0  0  0  0  0  0  0  0  0  0  0  0
    8.4423   12.6694   -4.0291 C   0  0  0  0  0  0  0  0  0  0  0  0
    7.6914   12.2865   -3.5926 H   0  0  0  0  0  0  0  0  0  0  0  0
    8.2587   13.5999   -5.0301 C   0  0  0  0  0  0  0  0  0  0  0  0
    7.3791   13.8553   -5.2826 H   0  0  0  0  0  0  0  0  0  0  0  0
    9.3521   14.1621   -5.6680 C   0  0  0  0  0  0  0  0  0  0  0  0
    9.2211   14.7920   -6.3665 H   0  0  0  0  0  0  0  0  0  0  0  0
   12.3575   16.1308   -4.9732 C   0  0  0  0  0  0  0  0  0  0  0  0
   13.1882   16.0481   -3.8530 C   0  0  0  0  0  0  0  0  0  0  0  0
   13.6297   15.2339   -3.6452 H   0  0  0  0  0  0  0  0  0  0  0  0
   13.3649   17.1607   -3.0446 C   0  0  0  0  0  0  0  0  0  0  0  0
   13.9312   17.1093   -2.2835 H   0  0  0  0  0  0  0  0  0  0  0  0
   12.7162   18.3452   -3.3474 C   0  0  0  0  0  0  0  0  0  0  0  0
   12.8268   19.1032   -2.7844 H   0  0  0  0  0  0  0  0  0  0  0  0
   11.9091   18.4325   -4.4606 C   0  0  0  0  0  0  0  0  0  0  0  0
   11.4799   19.2533   -4.6702 H   0  0  0  0  0  0  0  0  0  0  0  0
   11.7211   17.3239   -5.2778 C   0  0  0  0  0  0  0  0  0  0  0  0
   11.1581   17.3842   -6.0403 H   0  0  0  0  0  0  0  0  0  0  0  0
   10.5558   12.7941   -8.8304 C   0  0  0  0  0  0  0  0  0  0  0  0
   10.5405   11.4651   -8.4291 C   0  0  0  0  0  0  0  0  0  0  0  0
   11.3362   11.0602   -8.1049 H   0  0  0  0  0  0  0  0  0  0  0  0
    9.3634   10.7250   -8.5004 C   0  0  0  0  0  0  0  0  0  0  0  0
    9.3593    9.8148   -8.2291 H   0  0  0  0  0  0  0  0  0  0  0  0
    8.2109   11.3048   -8.9617 C   0  0  0  0  0  0  0  0  0  0  0  0
    7.4100   10.7959   -9.0099 H   0  0  0  0  0  0  0  0  0  0  0  0
    8.2109   12.6261   -9.3547 C   0  0  0  0  0  0  0  0  0  0  0  0
    7.4093   13.0265   -9.6666 H   0  0  0  0  0  0  0  0  0  0  0  0
    9.3782   13.3737   -9.2989 C   0  0  0  0  0  0  0  0  0  0  0  0
    9.3743   14.2803   -9.5803 H   0  0  0  0  0  0  0  0  0  0  0  0
   12.0147   14.5636  -10.4539 C   0  0  0  0  0  0  0  0  0  0  0  0
   11.7328   15.8976  -10.6802 C   0  0  0  0  0  0  0  0  0  0  0  0
   11.5738   16.4814   -9.9465 H   0  0  0  0  0  0  0  0  0  0  0  0
   11.6837   16.3871  -11.9871 C   0  0  0  0  0  0  0  0  0  0  0  0
   11.4855   17.3038  -12.1395 H   0  0  0  0  0  0  0  0  0  0  0  0
   11.9185   15.5489  -13.0559 C   0  0  0  0  0  0  0  0  0  0  0  0
   11.8870   15.8872  -13.9432 H   0  0  0  0  0  0  0  0  0  0  0  0
   12.1978   14.2230  -12.8301 C   0  0  0  0  0  0  0  0  0  0  0  0
   12.3574   13.6439  -13.5665 H   0  0  0  0  0  0  0  0  0  0  0  0
   12.2487   13.7272  -11.5439 C   0  0  0  0  0  0  0  0  0  0  0  0
   12.4432   12.8087  -11.4008 H   0  0  0  0  0  0  0  0  0  0  0  0
   15.3988   14.1338  -10.4935 O   0  0  0  0  0  0  0  0  0  0  0  0
   14.8373   13.6181   -9.6272 C   0  0  0  0  0  0  0  0  0  0  0  0
   13.6113   10.2607   -9.5548 O   0  0  0  0  0  0  0  0  0  0  0  0
   13.7368   11.2817   -9.0413 C   0  0  0  0  0  0  0  0  0  0  0  0
  1  5  1  0  0  0  0
  2  3  1  0  0  0  0
  4  5  1  0  0  0  0
  5  6  1  0  0  0  0
  7  5  1  0  0  0  0
  8  2  1  0  0  0  0
  9  8  1  0  0  0  0
 10  2  1  0  0  0  0
 11 10  1  0  0  0  0
 12  2  1  0  0  0  0
 13 12  1  0  0  0  0
 14  2  1  0  0  0  0
 15 14  1  0  0  0  0
 16  4  1  0  0  0  0
 17  1  1  0  0  0  0
 18 12  1  0  0  0  0
 19 18  1  0  0  0  0
 20  8  1  0  0  0  0
 21 20  1  0  0  0  0
 22 16  1  0  0  0  0
 23 22  1  0  0  0  0
 24  1  1  0  0  0  0
 25 24  4  0  0  0  0
 26 25  1  0  0  0  0
 27 25  4  0  0  0  0
 28 27  1  0  0  0  0
 29 27  4  0  0  0  0
 30 29  1  0  0  0  0
 31 29  4  0  0  0  0
 32 31  1  0  0  0  0
 33 24  4  0  0  0  0
 34 33  1  0  0  0  0
 35  1  1  0  0  0  0
 36 35  4  0  0  0  0
 37 36  1  0  0  0  0
 38 36  4  0  0  0  0
 39 38  1  0  0  0  0
 40 38  4  0  0  0  0
 41 40  1  0  0  0  0
 42 40  4  0  0  0  0
 43 42  1  0  0  0  0
 44 35  4  0  0  0  0
 45 44  1  0  0  0  0
 46  4  1  0  0  0  0
 47 46  4  0  0  0  0
 48 47  1  0  0  0  0
 49 47  4  0  0  0  0
 50 49  1  0  0  0  0
 51 49  4  0  0  0  0
 52 51  1  0  0  0  0
 53 51  4  0  0  0  0
 54 53  1  0  0  0  0
 55 46  4  0  0  0  0
 56 55  1  0  0  0  0
 57  4  1  0  0  0  0
 58 57  4  0  0  0  0
 59 58  1  0  0  0  0
 60 58  4  0  0  0  0
 61 60  1  0  0  0  0
 62 60  4  0  0  0  0
 63 62  1  0  0  0  0
 64 62  4  0  0  0  0
 65 64  1  0  0  0  0
 66 57  4  0  0  0  0
 67 66  1  0  0  0  0
 68 69  3  0  0  0  0
 69 16  1  0  0  0  0
 70 71  3  0  0  0  0
 71 16  1  0  0  0  0
  8 10  1  0  0  0  0
  8 14  1  0  0  0  0
  8 16  1  0  0  0  0
 10 12  1  0  0  0  0
 10 16  1  0  0  0  0
 10 17  1  0  0  0  0
 12 14  1  0  0  0  0
 12 17  1  0  0  0  0
 14 18  1  0  0  0  0
 14 20  1  0  0  0  0
 16 17  1  0  0  0  0
 16 20  1  0  0  0  0
 17 18  1  0  0  0  0
 17 22  1  0  0  0  0
 18 20  1  0  0  0  0
 18 22  1  0  0  0  0
 20 22  1  0  0  0  0
 31 33  4  0  0  0  0
 42 44  4  0  0  0  0
 53 55  4  0  0  0  0
 64 66  4  0  0  0  0
M  CHG  2   1   1  17  -1
M  END
$$$$
WOMMOB

From CSD data. Using bond type 'Any'. No disordered atoms. Largest molecule.
 71 87  0  0  0  0  0  0  0  0999 V2000
    8.0509    9.9684    0.8492 Cl  0  0  0  0  0  0  0  0  0  0  0  0
    6.7092    3.1507    4.6707 P   0  0  0  0  0  0  0  0  0  0  0  0
    2.9056    5.3812    3.1236 C   0  0  0  0  0  0  0  0  0  0  0  0
    1.8658    5.3877    3.5402 H   0  0  0  0  0  0  0  0  0  0  0  0
    5.9520    8.4011    2.3263 P   0  3  0  0  0  0  0  0  0  0  0  0
    7.3996    8.3510    1.2154 C   0  0  0  0  0  0  0  0  0  0  0  0
    8.1099    7.8050    1.6369 H   0  0  0  0  0  0  0  0  0  0  0  0
    7.1406    7.9083    0.3680 H   0  0  0  0  0  0  0  0  0  0  0  0
    4.0051    4.2739    3.4932 B   0  0  0  0  0  0  0  0  0  0  0  0
    3.7774    3.4055    4.1630 H   0  0  0  0  0  0  0  0  0  0  0  0
    3.3979    4.6103    1.8091 B   0  0  0  0  0  0  0  0  0  0  0  0
    2.7053    4.0030    1.1723 H   0  0  0  0  0  0  0  0  0  0  0  0
    3.4846    6.4166    2.0620 B   0  0  0  0  0  0  0  0  0  0  0  0
    2.8638    7.2393    1.6236 H   0  0  0  0  0  0  0  0  0  0  0  0
    4.1217    6.1968    3.7830 B   0  0  0  0  0  0  0  0  0  0  0  0
    3.9907    6.8576    4.6775 H   0  0  0  0  0  0  0  0  0  0  0  0
    6.0152    5.0976    3.8387 Fe  0  0  0  0  0  0  0  0  0  0  0  0
    5.0990    4.0783    2.0600 B   0  0  0  0  0  0  0  0  0  0  0  0
    5.3932    3.0488    1.7335 H   0  0  0  0  0  0  0  0  0  0  0  0
    4.7071    5.5813    1.0667 B   0  0  0  0  0  0  0  0  0  0  0  0
    4.7193    5.7648   -0.0383 H   0  0  0  0  0  0  0  0  0  0  0  0
    5.2254    6.6330    2.4588 B   0  5  0  0  0  0  0  0  0  0  0  0
    6.2397    5.3409    1.8202 B   0  0  0  0  0  0  0  0  0  0  0  0
    7.2527    5.3321    1.3438 H   0  0  0  0  0  0  0  0  0  0  0  0
    5.5673    2.1781    5.7176 C   0  0  0  0  0  0  0  0  0  0  0  0
    4.7964    1.8959    5.1654 H   0  0  0  0  0  0  0  0  0  0  0  0
    6.0358    1.3597    6.0180 H   0  0  0  0  0  0  0  0  0  0  0  0
    5.0451    2.9137    6.9385 C   0  0  0  0  0  0  0  0  0  0  0  0
    5.7995    3.2567    7.4617 H   0  0  0  0  0  0  0  0  0  0  0  0
    4.5183    2.2980    7.4900 H   0  0  0  0  0  0  0  0  0  0  0  0
    4.4795    3.6611    6.6524 H   0  0  0  0  0  0  0  0  0  0  0  0
    8.1702    3.3981    5.7504 C   0  0  0  0  0  0  0  0  0  0  0  0
    8.8982    3.7758    5.1971 H   0  0  0  0  0  0  0  0  0  0  0  0
    7.9352    4.0780    6.4310 H   0  0  0  0  0  0  0  0  0  0  0  0
    8.7168    2.1746    6.4774 C   0  0  0  0  0  0  0  0  0  0  0  0
    8.0003    1.7596    7.0021 H   0  0  0  0  0  0  0  0  0  0  0  0
    9.4440    2.4479    7.0754 H   0  0  0  0  0  0  0  0  0  0  0  0
    9.0572    1.5301    5.8215 H   0  0  0  0  0  0  0  0  0  0  0  0
    7.2510    1.8700    3.4854 C   0  0  0  0  0  0  0  0  0  0  0  0
    7.4968    1.0564    3.9931 H   0  0  0  0  0  0  0  0  0  0  0  0
    6.4860    1.6380    2.9024 H   0  0  0  0  0  0  0  0  0  0  0  0
    8.4262    2.2644    2.6055 C   0  0  0  0  0  0  0  0  0  0  0  0
    8.2231    3.1068    2.1481 H   0  0  0  0  0  0  0  0  0  0  0  0
    8.5872    1.5619    1.9416 H   0  0  0  0  0  0  0  0  0  0  0  0
    9.2266    2.3775    3.1605 H   0  0  0  0  0  0  0  0  0  0  0  0
    6.4949    9.0395    3.9257 C   0  0  0  0  0  0  0  0  0  0  0  0
    7.8308    9.3175    4.2106 C   0  0  0  0  0  0  0  0  0  0  0  0
    8.4982    9.1772    3.5502 H   0  0  0  0  0  0  0  0  0  0  0  0
    8.1829    9.8016    5.4662 C   0  0  0  0  0  0  0  0  0  0  0  0
    9.0922    9.9996    5.6583 H   0  0  0  0  0  0  0  0  0  0  0  0
    7.2161    9.9969    6.4396 C   0  0  0  0  0  0  0  0  0  0  0  0
    7.4629   10.3245    7.2969 H   0  0  0  0  0  0  0  0  0  0  0  0
    5.8887    9.7123    6.1599 C   0  0  0  0  0  0  0  0  0  0  0  0
    5.2250    9.8462    6.8273 H   0  0  0  0  0  0  0  0  0  0  0  0
    5.5264    9.2349    4.9137 C   0  0  0  0  0  0  0  0  0  0  0  0
    4.6154    9.0386    4.7291 H   0  0  0  0  0  0  0  0  0  0  0  0
    4.8314    9.6191    1.6037 C   0  0  0  0  0  0  0  0  0  0  0  0
    4.1886    9.2921    0.4140 C   0  0  0  0  0  0  0  0  0  0  0  0
    4.3799    8.4684   -0.0183 H   0  0  0  0  0  0  0  0  0  0  0  0
    3.2698   10.1677   -0.1395 C   0  0  0  0  0  0  0  0  0  0  0  0
    2.8314    9.9462   -0.9525 H   0  0  0  0  0  0  0  0  0  0  0  0
    2.9915   11.3700    0.4952 C   0  0  0  0  0  0  0  0  0  0  0  0
    2.3371   11.9557    0.1316 H   0  0  0  0  0  0  0  0  0  0  0  0
    3.6567   11.7209    1.6489 C   0  0  0  0  0  0  0  0  0  0  0  0
    3.4824   12.5577    2.0632 H   0  0  0  0  0  0  0  0  0  0  0  0
    4.5836   10.8464    2.2062 C   0  0  0  0  0  0  0  0  0  0  0  0
    5.0480   11.0889    2.9990 H   0  0  0  0  0  0  0  0  0  0  0  0
    5.7629    6.1818    6.5324 O   0  0  0  0  0  0  0  0  0  0  0  0
    5.8293    5.7286    5.4818 C   0  0  0  0  0  0  0  0  0  0  0  0
    8.7578    6.0059    3.5717 O   0  0  0  0  0  0  0  0  0  0  0  0
    7.6754    5.6167    3.6593 C   0  0  0  0  0  0  0  0  0  0  0  0
  1  6  1  0  0  0  0
  2 17  1  0  0  0  0
  3  4  1  0  0  0  0
  5  6  1  0  0  0  0
  6  7  1  0  0  0  0
  8  6  1  0  0  0  0
  9  3  1  0  0  0  0
 10  9  1  0  0  0  0
 11  3  1  0  0  0  0
 12 11  1  0  0  0  0
 13  3  1  0  0  0  0
 14 13  1  0  0  0  0
 15  3  1  0  0  0  0
 16 15  1  0  0  0  0
 17  9  1  0  0  0  0
 18  9  1  0  0  0  0
 19 18  1  0  0  0  0
 20 11  1  0  0  0  0
 21 20  1  0  0  0  0
 22  5  1  0  0  0  0
 23 17  1  0  0  0  0
 24 23  1  0  0  0  0
 25  2  1  0  0  0  0
 26 25  1  0  0  0  0
 27 25  1  0  0  0  0
 28 25  1  0  0  0  0
 29 28  1  0  0  0  0
 30 28  1  0  0  0  0
 31 28  1  0  0  0  0
 32  2  1  0  0  0  0
 33 32  1  0  0  0  0
 34 32  1  0  0  0  0
 35 32  1  0  0  0  0
 36 35  1  0  0  0  0
 37 35  1  0  0  0  0
 38 35  1  0  0  0  0
 39  2  1  0  0  0  0
 40 39  1  0  0  0  0
 41 39  1  0  0  0  0
 42 39  1  0  0  0  0
 43 42  1  0  0  0  0
 44 42  1  0  0  0  0
 45 42  1  0  0  0  0
 46  5  1  0  0  0  0
 47 46  4  0  0  0  0
 48 47  1  0  0  0  0
 49 47  4  0  0  0  0
 50 49  1  0  0  0  0
 51 49  4  0  0  0  0
 52 51  1  0  0  0  0
 53 51  4  0  0  0  0
 54 53  1  0  0  0  0
 55 46  4  0  0  0  0
 56 55  1  0  0  0  0
 57  5  1  0  0  0  0
 58 57  4  0  0  0  0
 59 58  1  0  0  0  0
 60 58  4  0  0  0  0
 61 60  1  0  0  0  0
 62 60  4  0  0  0  0
 63 62  1  0  0  0  0
 64 62  4  0  0  0  0
 65 64  1  0  0  0  0
 66 57  4  0  0  0  0
 67 66  1  0  0  0  0
 68 69  3  0  0  0  0
 69 17  1  0  0  0  0
 70 71  3  0  0  0  0
 71 17  1  0  0  0  0
  9 11  1  0  0  0  0
  9 15  1  0  0  0  0
 11 13  1  0  0  0  0
 11 18  1  0  0  0  0
 13 15  1  0  0  0  0
 13 20  1  0  0  0  0
 13 22  1  0  0  0  0
 15 17  1  0  0  0  0
 15 22  1  0  0  0  0
 17 18  1  0  0  0  0
 17 22  1  0  0  0  0
 18 20  1  0  0  0  0
 18 23  1  0  0  0  0
 20 22  1  0  0  0  0
 20 23  1  0  0  0  0
 22 23  1  0  0  0  0
 53 55  4  0  0  0  0
 64 66  4  0  0  0  0
M  CHG  2   5   1  22  -1
M  END
$$$$
WOMWUT

From CSD data. Using bond type 'Any'. No disordered atoms. Largest molecule.
 52 67  0  0  0  0  0  0  0  0999 V2000
    1.4324    3.6611    2.7006 P   0  0  0  0  0  0  0  0  0  0  0  0
    2.2492    4.4373    1.6967 O   0  0  0  0  0  0  0  0  0  0  0  0
    1.8703    1.9119    2.6884 C   0  5  0  0  0  0  0  0  0  0  0  0
    1.5569    4.4289    4.3579 C   0  0  0  0  0  0  0  0  0  0  0  0
    0.8203    0.7776    3.1205 C   0  0  0  0  0  0  0  0  0  0  0  0
    3.0152    4.8333    4.6141 C   0  0  0  0  0  0  0  0  0  0  0  0
    3.3084    5.4286    3.9203 H   0  0  0  0  0  0  0  0  0  0  0  0
    3.0800    5.2753    5.4636 H   0  0  0  0  0  0  0  0  0  0  0  0
    3.5690    4.0488    4.6176 H   0  0  0  0  0  0  0  0  0  0  0  0
    1.0835    3.4811    5.4584 C   0  0  0  0  0  0  0  0  0  0  0  0
    0.1716    3.2311    5.2939 H   0  0  0  0  0  0  0  0  0  0  0  0
    1.6354    2.6951    5.4636 H   0  0  0  0  0  0  0  0  0  0  0  0
    1.1464    3.9216    6.3096 H   0  0  0  0  0  0  0  0  0  0  0  0
    0.6800    5.6917    4.3119 C   0  0  0  0  0  0  0  0  0  0  0  0
    0.9932    6.2732    3.6156 H   0  0  0  0  0  0  0  0  0  0  0  0
   -0.2309    5.4431    4.1358 H   0  0  0  0  0  0  0  0  0  0  0  0
    0.7297    6.1468    5.1552 H   0  0  0  0  0  0  0  0  0  0  0  0
    1.0934    0.9934    1.4333 B   0  0  0  0  0  0  0  0  0  0  0  0
    0.3404    1.3694    0.7258 H   0  0  0  0  0  0  0  0  0  0  0  0
    1.6552   -0.4571    3.8244 B   0  0  0  0  0  0  0  0  0  0  0  0
    3.4300    1.5707    2.9443 B   0  0  0  0  0  0  0  0  0  0  0  0
    3.4664   -0.0761    3.6922 B   0  0  0  0  0  0  0  0  0  0  0  0
    2.3079   -0.2278    1.0164 B   0  0  0  0  0  0  0  0  0  0  0  0
    2.3562   -0.6927    0.0211 H   0  0  0  0  0  0  0  0  0  0  0  0
    3.7846    0.1590    1.9629 B   0  0  0  0  0  0  0  0  0  0  0  0
    4.7935   -0.0381    1.5706 H   0  0  0  0  0  0  0  0  0  0  0  0
    1.0289   -0.6113    2.1395 B   0  0  0  0  0  0  0  0  0  0  0  0
    0.2364   -1.3224    1.8617 H   0  0  0  0  0  0  0  0  0  0  0  0
    2.6630   -1.1512    2.5180 B   0  0  0  0  0  0  0  0  0  0  0  0
    2.9232   -2.2200    2.5045 H   0  0  0  0  0  0  0  0  0  0  0  0
    2.8065    1.4407    1.2858 B   0  0  0  0  0  0  0  0  0  0  0  0
    3.1570    2.0791    0.4620 H   0  0  0  0  0  0  0  0  0  0  0  0
    1.2460   -1.1074    4.6015 H   0  0  0  0  0  0  0  0  0  0  0  0
    4.2468   -0.5162    4.3389 H   0  0  0  0  0  0  0  0  0  0  0  0
    0.1459    3.7248    2.4104 H   0  0  0  0  0  0  0  0  0  0  0  0
    4.1552    2.3902    3.1573 H   0  0  0  0  0  0  0  0  0  0  0  0
    2.5946    0.3959    4.3501 H   0  0  0  0  0  0  0  0  0  0  0  0
   -0.9235    1.3329    3.4721 P   0  0  0  0  0  0  0  0  0  0  0  0
   -1.7001    0.2534    4.7930 C   0  0  0  0  0  0  0  0  0  0  0  0
   -1.7959   -1.2332    4.4244 C   0  0  0  0  0  0  0  0  0  0  0  0
   -2.2495   -1.3259    3.5846 H   0  0  0  0  0  0  0  0  0  0  0  0
   -2.2859   -1.6999    5.1056 H   0  0  0  0  0  0  0  0  0  0  0  0
   -0.9133   -1.6028    4.3550 H   0  0  0  0  0  0  0  0  0  0  0  0
   -3.1461    0.8175    4.8740 C   0  0  0  0  0  0  0  0  0  0  0  0
   -3.5723    0.7308    4.0181 H   0  0  0  0  0  0  0  0  0  0  0  0
   -3.1149    1.7433    5.1242 H   0  0  0  0  0  0  0  0  0  0  0  0
   -3.6454    0.3258    5.5317 H   0  0  0  0  0  0  0  0  0  0  0  0
   -1.0202    0.4261    6.1482 C   0  0  0  0  0  0  0  0  0  0  0  0
   -0.1115    0.1206    6.0916 H   0  0  0  0  0  0  0  0  0  0  0  0
   -1.4896   -0.0873    6.8100 H   0  0  0  0  0  0  0  0  0  0  0  0
   -1.0307    1.3531    6.3963 H   0  0  0  0  0  0  0  0  0  0  0  0
   -1.5735    0.7632    2.4896 H   0  0  0  0  0  0  0  0  0  0  0  0
  1  2  2  0  0  0  0
  3  1  1  0  0  0  0
  4  1  1  0  0  0  0
  5  3  1  0  0  0  0
  6  4  1  0  0  0  0
  7  6  1  0  0  0  0
  8  6  1  0  0  0  0
  9  6  1  0  0  0  0
 10  4  1  0  0  0  0
 11 10  1  0  0  0  0
 12 10  1  0  0  0  0
 13 10  1  0  0  0  0
 14  4  1  0  0  0  0
 15 14  1  0  0  0  0
 16 14  1  0  0  0  0
 17 14  1  0  0  0  0
 18  3  1  0  0  0  0
 19 18  1  0  0  0  0
 20  5  1  0  0  0  0
 21  3  1  0  0  0  0
 22 20  1  0  0  0  0
 23 18  1  0  0  0  0
 24 23  1  0  0  0  0
 25 21  1  0  0  0  0
 26 25  1  0  0  0  0
 27  5  1  0  0  0  0
 28 27  1  0  0  0  0
 29 20  1  0  0  0  0
 30 29  1  0  0  0  0
 31  3  1  0  0  0  0
 32 31  1  0  0  0  0
 33 20  1  0  0  0  0
 34 22  1  0  0  0  0
 35  1  1  0  0  0  0
 36 21  1  0  0  0  0
 37 20  1  0  0  0  0
 38  5  1  0  0  0  0
 39 38  1  0  0  0  0
 40 39  1  0  0  0  0
 41 40  1  0  0  0  0
 42 40  1  0  0  0  0
 43 40  1  0  0  0  0
 44 39  1  0  0  0  0
 45 44  1  0  0  0  0
 46 44  1  0  0  0  0
 47 44  1  0  0  0  0
 48 39  1  0  0  0  0
 49 48  1  0  0  0  0
 50 48  1  0  0  0  0
 51 48  1  0  0  0  0
 52 38  1  0  0  0  0
  5 18  1  0  0  0  0
 18 27  1  0  0  0  0
 18 31  1  0  0  0  0
 20 27  1  0  0  0  0
 21 22  1  0  0  0  0
 21 31  1  0  0  0  0
 22 25  1  0  0  0  0
 22 29  1  0  0  0  0
 22 37  1  0  0  0  0
 23 25  1  0  0  0  0
 23 27  1  0  0  0  0
 23 29  1  0  0  0  0
 23 31  1  0  0  0  0
 25 29  1  0  0  0  0
 25 31  1  0  0  0  0
 27 29  1  0  0  0  0
M  CHG  1   3  -1
M  END
$$$$
WOVQON

From CSD data. Using bond type 'Any'. No disordered atoms. Largest molecule.
 50 61  0  0  0  0  0  0  0  0999 V2000
    0.2025    2.6033    1.4859 Ir  0  0  0  0  0  0  0  0  0  0  0  0
    0.5300    1.0274    1.5239 H   0  0  0  0  0  0  0  0  0  0  0  0
   -0.2566    2.3649   -0.3253 C   0  0  0  0  0  0  0  0  0  0  0  0
   -0.5653    2.1412   -1.4029 O   0  0  0  0  0  0  0  0  0  0  0  0
    2.5145    2.7313    1.2146 P   0  0  0  0  0  0  0  0  0  0  0  0
    3.3487    1.1808    1.5747 C   0  0  0  0  0  0  0  0  0  0  0  0
    2.9707    0.4698    1.0164 H   0  0  0  0  0  0  0  0  0  0  0  0
    3.2224    0.9539    2.5208 H   0  0  0  0  0  0  0  0  0  0  0  0
    4.3048    1.2719    1.3860 H   0  0  0  0  0  0  0  0  0  0  0  0
    3.1085    3.0647   -0.4672 C   0  0  0  0  0  0  0  0  0  0  0  0
    4.0884    3.0504   -0.4763 H   0  0  0  0  0  0  0  0  0  0  0  0
    2.7923    3.9468   -0.7561 H   0  0  0  0  0  0  0  0  0  0  0  0
    2.7659    2.3792   -1.0762 H   0  0  0  0  0  0  0  0  0  0  0  0
    3.4568    3.9404    2.1824 C   0  0  0  0  0  0  0  0  0  0  0  0
    3.2171    3.8589    3.1298 H   0  0  0  0  0  0  0  0  0  0  0  0
    3.2461    4.8448    1.8688 H   0  0  0  0  0  0  0  0  0  0  0  0
    4.4151    3.7726    2.0731 H   0  0  0  0  0  0  0  0  0  0  0  0
   -0.2264    4.9301    1.3935 P   0  0  0  0  0  0  0  0  0  0  0  0
    0.5658    5.8083    0.0013 C   0  0  0  0  0  0  0  0  0  0  0  0
    0.2585    6.7383   -0.0156 H   0  0  0  0  0  0  0  0  0  0  0  0
    0.3255    5.3689   -0.8407 H   0  0  0  0  0  0  0  0  0  0  0  0
    1.5398    5.7875    0.1132 H   0  0  0  0  0  0  0  0  0  0  0  0
   -1.9777    5.3577    1.1387 C   0  0  0  0  0  0  0  0  0  0  0  0
   -2.0618    6.3244    1.0060 H   0  0  0  0  0  0  0  0  0  0  0  0
   -2.4981    5.0892    1.9247 H   0  0  0  0  0  0  0  0  0  0  0  0
   -2.3168    4.8895    0.3475 H   0  0  0  0  0  0  0  0  0  0  0  0
    0.2590    5.9569    2.8175 C   0  0  0  0  0  0  0  0  0  0  0  0
    1.2302    5.9138    2.9346 H   0  0  0  0  0  0  0  0  0  0  0  0
   -0.1834    5.6245    3.6256 H   0  0  0  0  0  0  0  0  0  0  0  0
   -0.0099    6.8853    2.6561 H   0  0  0  0  0  0  0  0  0  0  0  0
   -1.1340    2.7659    3.2899 B   0  0  0  0  0  0  0  0  0  0  0  0
   -1.4597    3.8269    3.4408 H   0  0  0  0  0  0  0  0  0  0  0  0
   -2.2481    1.4525    3.6712 B   0  0  0  0  0  0  0  0  0  0  0  0
   -3.2639    1.6282    4.1071 H   0  0  0  0  0  0  0  0  0  0  0  0
   -0.8306    1.7465    4.6693 B   0  0  0  0  0  0  0  0  0  0  0  0
   -0.9967    2.0996    5.7195 H   0  0  0  0  0  0  0  0  0  0  0  0
   -1.9101    1.8663    1.9521 B   0  0  0  0  0  0  0  0  0  0  0  0
   -2.6848    2.2898    1.3456 H   0  0  0  0  0  0  0  0  0  0  0  0
   -1.6434    0.9348    1.4185 H   0  0  0  0  0  0  0  0  0  0  0  0
   -2.1560    0.1198    2.5741 B   0  0  0  0  0  0  0  0  0  0  0  0
   -3.1796   -0.4011    2.3971 H   0  0  0  0  0  0  0  0  0  0  0  0
   -1.1866   -0.6631    2.7888 H   0  0  0  0  0  0  0  0  0  0  0  0
   -1.1971    0.0943    4.1358 B   0  0  0  0  0  0  0  0  0  0  0  0
   -1.4282   -0.8373    4.6980 H   0  0  0  0  0  0  0  0  0  0  0  0
    0.2850   -0.2477    3.9288 H   0  0  0  0  0  0  0  0  0  0  0  0
    0.5287    0.6647    4.4754 B   0  0  0  0  0  0  0  0  0  0  0  0
    1.0629    0.1134    5.4397 H   0  0  0  0  0  0  0  0  0  0  0  0
    1.1336    1.3183    3.6152 H   0  0  0  0  0  0  0  0  0  0  0  0
    0.5609    2.3856    3.7193 B   0  0  0  0  0  0  0  0  0  0  0  0
    1.0666    2.9193    4.1436 H   0  0  0  0  0  0  0  0  0  0  0  0
  1  2  1  0  0  0  0
  3  1  1  0  0  0  0
  4  3  3  0  0  0  0
  5  1  1  0  0  0  0
  6  5  1  0  0  0  0
  7  6  1  0  0  0  0
  8  6  1  0  0  0  0
  9  6  1  0  0  0  0
 10  5  1  0  0  0  0
 11 10  1  0  0  0  0
 12 10  1  0  0  0  0
 13 10  1  0  0  0  0
 14  5  1  0  0  0  0
 15 14  1  0  0  0  0
 16 14  1  0  0  0  0
 17 14  1  0  0  0  0
 18  1  1  0  0  0  0
 19 18  1  0  0  0  0
 20 19  1  0  0  0  0
 21 19  1  0  0  0  0
 22 19  1  0  0  0  0
 23 18  1  0  0  0  0
 24 23  1  0  0  0  0
 25 23  1  0  0  0  0
 26 23  1  0  0  0  0
 27 18  1  0  0  0  0
 28 27  1  0  0  0  0
 29 27  1  0  0  0  0
 30 27  1  0  0  0  0
 31  1  1  0  0  0  0
 32 31  1  0  0  0  0
 33 31  1  0  0  0  0
 34 33  1  0  0  0  0
 35 31  1  0  0  0  0
 36 35  1  0  0  0  0
 37  1  1  0  0  0  0
 38 37  1  0  0  0  0
 39 37  1  0  0  0  0
 40 33  1  0  0  0  0
 41 40  1  0  0  0  0
 42 40  1  0  0  0  0
 43 33  1  0  0  0  0
 44 43  1  0  0  0  0
 45 46  1  0  0  0  0
 46 35  1  0  0  0  0
 47 46  1  0  0  0  0
 48 46  1  0  0  0  0
 49  1  1  0  0  0  0
 50 49  1  0  0  0  0
 31 37  1  0  0  0  0
 31 49  1  0  0  0  0
 33 35  1  0  0  0  0
 33 37  1  0  0  0  0
 35 43  1  0  0  0  0
 35 49  1  0  0  0  0
 37 40  1  0  0  0  0
 39 40  1  0  0  0  0
 40 43  1  0  0  0  0
 43 46  1  0  0  0  0
 46 49  1  0  0  0  0
 48 49  1  0  0  0  0
M  END
$$$$
WOVQUT

From CSD data. Using bond type 'Any'. No disordered atoms. Largest molecule.
 48 61  0  0  0  0  0  0  0  0999 V2000
   -4.1185    3.2282   -5.2932 Ir  0  0  0  0  0  0  0  0  0  0  0  0
   -5.8544   -0.4750   -2.6518 Cl  0  0  0  0  0  0  0  0  0  0  0  0
   -4.7926    2.8910   -7.5274 P   0  0  0  0  0  0  0  0  0  0  0  0
   -1.8477    3.0729   -5.7287 P   0  0  0  0  0  0  0  0  0  0  0  0
   -3.9268    6.2911   -5.4061 O   0  0  0  0  0  0  0  0  0  0  0  0
   -4.6589    1.1898   -4.8413 B   0  0  0  0  0  0  0  0  0  0  0  0
   -3.6913    1.8341   -3.5267 B   0  0  0  0  0  0  0  0  0  0  0  0
   -5.3128    1.1533   -3.2679 B   0  0  0  0  0  0  0  0  0  0  0  0
   -6.1740    2.0630   -4.5017 B   0  0  0  0  0  0  0  0  0  0  0  0
   -3.8578    3.5817   -3.0124 B   0  0  0  0  0  0  0  0  0  0  0  0
   -4.6938    2.3224   -2.0626 B   0  0  0  0  0  0  0  0  0  0  0  0
   -6.3798    2.4795   -2.7199 B   0  0  0  0  0  0  0  0  0  0  0  0
   -5.4095    3.8606   -2.1147 B   0  0  0  0  0  0  0  0  0  0  0  0
   -3.9976    5.1515   -5.4012 C   0  0  0  0  0  0  0  0  0  0  0  0
   -3.7565    1.8609   -8.6034 C   0  0  0  0  0  0  0  0  0  0  0  0
   -2.8408    2.1799   -8.5731 H   0  0  0  0  0  0  0  0  0  0  0  0
   -4.0855    1.9132   -9.5145 H   0  0  0  0  0  0  0  0  0  0  0  0
   -3.7888    0.9402   -8.3008 H   0  0  0  0  0  0  0  0  0  0  0  0
   -4.9525    4.4147   -8.4924 C   0  0  0  0  0  0  0  0  0  0  0  0
   -4.1222    4.9140   -8.4487 H   0  0  0  0  0  0  0  0  0  0  0  0
   -5.6735    4.9530   -8.1310 H   0  0  0  0  0  0  0  0  0  0  0  0
   -5.1470    4.1930   -9.4170 H   0  0  0  0  0  0  0  0  0  0  0  0
   -6.4190    2.1300   -7.7410 C   0  0  0  0  0  0  0  0  0  0  0  0
   -6.4494    1.2897   -7.2586 H   0  0  0  0  0  0  0  0  0  0  0  0
   -6.5786    1.9668   -8.6841 H   0  0  0  0  0  0  0  0  0  0  0  0
   -7.1024    2.7255   -7.3964 H   0  0  0  0  0  0  0  0  0  0  0  0
   -0.7722    3.5585   -4.3555 C   0  0  0  0  0  0  0  0  0  0  0  0
   -0.9981    3.0385   -3.5688 H   0  0  0  0  0  0  0  0  0  0  0  0
   -0.8962    4.5024   -4.1655 H   0  0  0  0  0  0  0  0  0  0  0  0
    0.1529    3.3953   -4.5959 H   0  0  0  0  0  0  0  0  0  0  0  0
   -1.2544    4.1528   -7.0653 C   0  0  0  0  0  0  0  0  0  0  0  0
   -1.7662    3.9799   -7.8721 H   0  0  0  0  0  0  0  0  0  0  0  0
   -0.3159    3.9726   -7.2334 H   0  0  0  0  0  0  0  0  0  0  0  0
   -1.3648    5.0808   -6.8047 H   0  0  0  0  0  0  0  0  0  0  0  0
   -1.2336    1.4139   -6.1575 C   0  0  0  0  0  0  0  0  0  0  0  0
   -1.7528    1.0583   -6.8972 H   0  0  0  0  0  0  0  0  0  0  0  0
   -1.3209    0.8281   -5.3893 H   0  0  0  0  0  0  0  0  0  0  0  0
   -0.3006    1.4712   -6.4164 H   0  0  0  0  0  0  0  0  0  0  0  0
   -4.5861    0.1949   -5.5238 H   0  0  0  0  0  0  0  0  0  0  0  0
   -2.6398    1.3031   -3.2780 H   0  0  0  0  0  0  0  0  0  0  0  0
   -7.0611    1.8268   -5.0598 H   0  0  0  0  0  0  0  0  0  0  0  0
   -2.9795    4.1285   -2.6392 H   0  0  0  0  0  0  0  0  0  0  0  0
   -4.2959    1.6075   -0.9414 H   0  0  0  0  0  0  0  0  0  0  0  0
   -7.2512    2.1921   -2.1853 H   0  0  0  0  0  0  0  0  0  0  0  0
   -5.5687    4.5669   -1.2372 H   0  0  0  0  0  0  0  0  0  0  0  0
   -5.7040    3.2882   -4.7741 H   0  0  0  0  0  0  0  0  0  0  0  0
   -4.8592    4.5060   -2.9922 H   0  0  0  0  0  0  0  0  0  0  0  0
   -6.4097    3.6292   -2.8409 H   0  0  0  0  0  0  0  0  0  0  0  0
  1  3  1  0  0  0  0
  2  8  1  0  0  0  0
  3 15  1  0  0  0  0
  4  1  1  0  0  0  0
  5 14  3  0  0  0  0
  6  1  1  0  0  0  0
  7  1  1  0  0  0  0
  8  6  1  0  0  0  0
  9  1  1  0  0  0  0
 10  1  1  0  0  0  0
 11  7  1  0  0  0  0
 12  8  1  0  0  0  0
 13 10  1  0  0  0  0
 14  1  1  0  0  0  0
 15 16  1  0  0  0  0
 17 15  1  0  0  0  0
 18 15  1  0  0  0  0
 19  3  1  0  0  0  0
 20 19  1  0  0  0  0
 21 19  1  0  0  0  0
 22 19  1  0  0  0  0
 23  3  1  0  0  0  0
 24 23  1  0  0  0  0
 25 23  1  0  0  0  0
 26 23  1  0  0  0  0
 27  4  1  0  0  0  0
 28 27  1  0  0  0  0
 29 27  1  0  0  0  0
 30 27  1  0  0  0  0
 31  4  1  0  0  0  0
 32 31  1  0  0  0  0
 33 31  1  0  0  0  0
 34 31  1  0  0  0  0
 35  4  1  0  0  0  0
 36 35  1  0  0  0  0
 37 35  1  0  0  0  0
 38 35  1  0  0  0  0
 39  6  1  0  0  0  0
 40  7  1  0  0  0  0
 41  9  1  0  0  0  0
 42 10  1  0  0  0  0
 43 11  1  0  0  0  0
 44 12  1  0  0  0  0
 45 13  1  0  0  0  0
 46  1  1  0  0  0  0
 47 10  1  0  0  0  0
 48 12  1  0  0  0  0
  6  7  1  0  0  0  0
  6  9  1  0  0  0  0
  7  8  1  0  0  0  0
  7 10  1  0  0  0  0
  8  9  1  0  0  0  0
  8 11  1  0  0  0  0
  9 12  1  0  0  0  0
  9 46  1  0  0  0  0
 10 11  1  0  0  0  0
 11 12  1  0  0  0  0
 11 13  1  0  0  0  0
 12 13  1  0  0  0  0
 13 47  1  0  0  0  0
 13 48  1  0  0  0  0
M  END
$$$$
WUCVIC

From CSD data. Using bond type 'Any'. No disordered atoms. Largest molecule.
140155  0  0  0  0  0  0  0  0999 V2000
    8.3385    0.9260   17.8829 P   0  0  0  0  0  0  0  0  0  0  0  0
    9.1559    2.2079   17.9633 O   0  3  0  0  0  0  0  0  0  0  0  0
    7.0143    0.6329   25.6056 P   0  0  0  0  0  0  0  0  0  0  0  0
    7.7609    1.8647   26.1284 O   0  3  0  0  0  0  0  0  0  0  0  0
    9.5175   -0.4038   18.0504 C   0  0  0  0  0  0  0  0  0  0  0  0
    9.1081   -1.7104   17.8112 C   0  0  0  0  0  0  0  0  0  0  0  0
    8.2149   -1.8859   17.5386 H   0  0  0  0  0  0  0  0  0  0  0  0
    9.9945   -2.7509   17.9726 C   0  0  0  0  0  0  0  0  0  0  0  0
    9.7103   -3.6406   17.8023 H   0  0  0  0  0  0  0  0  0  0  0  0
   11.2896   -2.5180   18.3818 C   0  0  0  0  0  0  0  0  0  0  0  0
   11.8896   -3.2450   18.5028 H   0  0  0  0  0  0  0  0  0  0  0  0
   11.7154   -1.2266   18.6094 C   0  0  0  0  0  0  0  0  0  0  0  0
   12.6103   -1.0604   18.8845 H   0  0  0  0  0  0  0  0  0  0  0  0
   10.8339   -0.1723   18.4408 C   0  0  0  0  0  0  0  0  0  0  0  0
   11.1284    0.7176   18.5929 H   0  0  0  0  0  0  0  0  0  0  0  0
    8.2192   -0.6767   25.5829 C   0  0  0  0  0  0  0  0  0  0  0  0
    7.7857   -1.9488   25.1967 C   0  0  0  0  0  0  0  0  0  0  0  0
    6.8707   -2.1056   24.9985 H   0  0  0  0  0  0  0  0  0  0  0  0
    8.7148   -2.9825   25.1017 C   0  0  0  0  0  0  0  0  0  0  0  0
    8.4413   -3.8409   24.8031 H   0  0  0  0  0  0  0  0  0  0  0  0
   10.0183   -2.7620   25.4417 C   0  0  0  0  0  0  0  0  0  0  0  0
   10.6361   -3.4842   25.4158 H   0  0  0  0  0  0  0  0  0  0  0  0
   10.4588   -1.5050   25.8221 C   0  0  0  0  0  0  0  0  0  0  0  0
   11.3717   -1.3617   26.0388 H   0  0  0  0  0  0  0  0  0  0  0  0
    9.5566   -0.4645   25.8854 C   0  0  0  0  0  0  0  0  0  0  0  0
    9.8525    0.4030   26.1336 H   0  0  0  0  0  0  0  0  0  0  0  0
    6.0026    0.5540   16.3473 C   0  0  0  0  0  0  0  0  0  0  0  0
    7.4383    0.7001   16.3819 C   0  0  0  0  0  0  0  0  0  0  0  0
    8.1687    0.7291   15.2062 C   0  0  0  0  0  0  0  0  0  0  0  0
    9.1141    0.8237   15.2487 H   0  0  0  0  0  0  0  0  0  0  0  0
    7.5472    0.6243   13.9643 C   0  0  0  0  0  0  0  0  0  0  0  0
    8.0596    0.6663   13.1654 H   0  0  0  0  0  0  0  0  0  0  0  0
    6.1985    0.4617   13.9095 C   0  0  0  0  0  0  0  0  0  0  0  0
    5.7844    0.3736   13.0596 H   0  0  0  0  0  0  0  0  0  0  0  0
    5.3909    0.4204   15.0679 C   0  0  0  0  0  0  0  0  0  0  0  0
    3.9973    0.2839   14.9786 C   0  0  0  0  0  0  0  0  0  0  0  0
    3.5917    0.1963   14.1243 H   0  0  0  0  0  0  0  0  0  0  0  0
    3.2225    0.2756   16.0880 C   0  0  0  0  0  0  0  0  0  0  0  0
    2.2816    0.1780   16.0088 H   0  0  0  0  0  0  0  0  0  0  0  0
    3.8073    0.4093   17.3501 C   0  0  0  0  0  0  0  0  0  0  0  0
    3.2457    0.4110   18.1152 H   0  0  0  0  0  0  0  0  0  0  0  0
    5.1756    0.5403   17.5274 C   0  0  0  0  0  0  0  0  0  0  0  0
    5.7291    0.6726   18.9192 C   0  0  0  0  0  0  0  0  0  0  0  0
    4.9044    0.6298   20.0243 C   0  0  0  0  0  0  0  0  0  0  0  0
    3.9709    0.5343   19.8813 H   0  0  0  0  0  0  0  0  0  0  0  0
    5.3641    0.7208   21.3409 C   0  0  0  0  0  0  0  0  0  0  0  0
    4.4754    0.6450   22.4275 C   0  0  0  0  0  0  0  0  0  0  0  0
    3.5468    0.5583   22.2524 H   0  0  0  0  0  0  0  0  0  0  0  0
    4.9025    0.6932   23.7415 C   0  0  0  0  0  0  0  0  0  0  0  0
    3.9212    0.6188   24.8625 C   0  0  0  0  0  0  0  0  0  0  0  0
    2.5828    0.8393   24.5945 C   0  0  0  0  0  0  0  0  0  0  0  0
    2.3305    1.0887   23.7141 H   0  0  0  0  0  0  0  0  0  0  0  0
    1.5933    0.7112   25.5627 C   0  0  0  0  0  0  0  0  0  0  0  0
    0.6866    0.8860   25.3404 H   0  0  0  0  0  0  0  0  0  0  0  0
    1.9228    0.3335   26.8421 C   0  0  0  0  0  0  0  0  0  0  0  0
    1.2439    0.2086   27.4935 H   0  0  0  0  0  0  0  0  0  0  0  0
    3.2832    0.1282   27.1822 C   0  0  0  0  0  0  0  0  0  0  0  0
    3.6367   -0.2371   28.4875 C   0  0  0  0  0  0  0  0  0  0  0  0
    2.9484   -0.3550   29.1323 H   0  0  0  0  0  0  0  0  0  0  0  0
    4.9407   -0.4314   28.8708 C   0  0  0  0  0  0  0  0  0  0  0  0
    5.1483   -0.7184   29.7518 H   0  0  0  0  0  0  0  0  0  0  0  0
    5.9597   -0.1985   27.9400 C   0  0  0  0  0  0  0  0  0  0  0  0
    6.8672   -0.2818   28.2053 H   0  0  0  0  0  0  0  0  0  0  0  0
    5.6567    0.1530   26.6318 C   0  0  0  0  0  0  0  0  0  0  0  0
    4.3063    0.3073   26.2053 C   0  0  0  0  0  0  0  0  0  0  0  0
    6.3297    0.7856   23.9692 C   0  0  0  0  0  0  0  0  0  0  0  0
    7.2052    0.8752   22.9079 C   0  0  0  0  0  0  0  0  0  0  0  0
    8.1370    0.9471   23.0824 H   0  0  0  0  0  0  0  0  0  0  0  0
    6.7654    0.8628   21.5893 C   0  0  0  0  0  0  0  0  0  0  0  0
    7.6178    0.9193   20.4680 C   0  0  0  0  0  0  0  0  0  0  0  0
    8.5523    1.0230   20.6050 H   0  0  0  0  0  0  0  0  0  0  0  0
    7.1284    0.8256   19.1655 C   0  0  0  0  0  0  0  0  0  0  0  0
    8.9382    3.6923   17.5835 B   0  5  0  0  0  0  0  0  0  0  0  0
    9.5536    3.9183   16.0794 C   0  0  0  0  0  0  0  0  0  0  0  0
   10.6749    3.2237   15.6442 C   0  0  0  0  0  0  0  0  0  0  0  0
   11.2907    3.4097   14.4051 C   0  0  0  0  0  0  0  0  0  0  0  0
   10.7992    4.3648   13.5666 C   0  0  0  0  0  0  0  0  0  0  0  0
    9.7031    5.0939   13.9412 C   0  0  0  0  0  0  0  0  0  0  0  0
    9.1255    4.8775   15.1688 C   0  0  0  0  0  0  0  0  0  0  0  0
    7.3167    3.9486   17.7680 C   0  0  0  0  0  0  0  0  0  0  0  0
    6.7564    4.2174   19.0215 C   0  0  0  0  0  0  0  0  0  0  0  0
    5.3952    4.3028   19.2549 C   0  0  0  0  0  0  0  0  0  0  0  0
    4.5184    4.1416   18.2261 C   0  0  0  0  0  0  0  0  0  0  0  0
    4.9985    3.8714   16.9640 C   0  0  0  0  0  0  0  0  0  0  0  0
    6.3712    3.7873   16.7738 C   0  0  0  0  0  0  0  0  0  0  0  0
    9.8869    4.6101   18.5656 C   0  0  0  0  0  0  0  0  0  0  0  0
   11.0210    4.1884   19.2347 C   0  0  0  0  0  0  0  0  0  0  0  0
   11.9261    5.0277   19.8485 C   0  0  0  0  0  0  0  0  0  0  0  0
   11.7336    6.3701   19.8254 C   0  0  0  0  0  0  0  0  0  0  0  0
   10.6081    6.8511   19.2059 C   0  0  0  0  0  0  0  0  0  0  0  0
    9.7365    5.9842   18.6094 C   0  0  0  0  0  0  0  0  0  0  0  0
   11.2549    2.2865   16.4309 F   0  0  0  0  0  0  0  0  0  0  0  0
   12.3483    2.6669   14.0602 F   0  0  0  0  0  0  0  0  0  0  0  0
   11.3892    4.5798   12.3719 F   0  0  0  0  0  0  0  0  0  0  0  0
    9.2012    6.0270   13.1070 F   0  0  0  0  0  0  0  0  0  0  0  0
    8.0797    5.6920   15.4757 F   0  0  0  0  0  0  0  0  0  0  0  0
    7.5624    4.3373   20.1061 F   0  0  0  0  0  0  0  0  0  0  0  0
    4.9237    4.5247   20.5084 F   0  0  0  0  0  0  0  0  0  0  0  0
    3.1872    4.2063   18.4408 F   0  0  0  0  0  0  0  0  0  0  0  0
    4.1492    3.6867   15.9456 F   0  0  0  0  0  0  0  0  0  0  0  0
    6.7405    3.4759   15.5042 F   0  0  0  0  0  0  0  0  0  0  0  0
   11.3334    2.8653   19.3310 F   0  0  0  0  0  0  0  0  0  0  0  0
   13.0200    4.5219   20.4764 F   0  0  0  0  0  0  0  0  0  0  0  0
   12.6106    7.2067   20.4127 F   0  0  0  0  0  0  0  0  0  0  0  0
   10.3667    8.1880   19.2085 F   0  0  0  0  0  0  0  0  0  0  0  0
    8.6411    6.5465   18.0129 F   0  0  0  0  0  0  0  0  0  0  0  0
    7.4660    3.3780   26.2053 B   0  5  0  0  0  0  0  0  0  0  0  0
    8.3467    4.1760   25.0613 C   0  0  0  0  0  0  0  0  0  0  0  0
    9.3448    3.6661   24.2660 C   0  0  0  0  0  0  0  0  0  0  0  0
   10.0845    4.4434   23.3785 C   0  0  0  0  0  0  0  0  0  0  0  0
    9.8627    5.7734   23.3151 C   0  0  0  0  0  0  0  0  0  0  0  0
    8.9053    6.3495   24.1190 C   0  0  0  0  0  0  0  0  0  0  0  0
    8.1665    5.5377   24.9489 C   0  0  0  0  0  0  0  0  0  0  0  0
    8.1004    3.8907   27.6470 C   0  0  0  0  0  0  0  0  0  0  0  0
    9.3649    3.4841   28.0063 C   0  0  0  0  0  0  0  0  0  0  0  0
   10.0268    3.8659   29.1647 C   0  0  0  0  0  0  0  0  0  0  0  0
    9.3908    4.7314   30.0177 C   0  0  0  0  0  0  0  0  0  0  0  0
    8.1574    5.2152   29.7007 C   0  0  0  0  0  0  0  0  0  0  0  0
    7.5499    4.8031   28.5221 C   0  0  0  0  0  0  0  0  0  0  0  0
    5.8363    3.5696   26.0411 C   0  0  0  0  0  0  0  0  0  0  0  0
    4.9373    3.3463   27.0727 C   0  0  0  0  0  0  0  0  0  0  0  0
    3.5728    3.5310   26.9747 C   0  0  0  0  0  0  0  0  0  0  0  0
    3.0263    3.9279   25.7990 C   0  0  0  0  0  0  0  0  0  0  0  0
    3.8444    4.1223   24.7184 C   0  0  0  0  0  0  0  0  0  0  0  0
    5.2189    3.9321   24.8510 C   0  0  0  0  0  0  0  0  0  0  0  0
    9.6791    2.3526   24.2934 F   0  0  0  0  0  0  0  0  0  0  0  0
   11.0491    3.8645   22.6168 F   0  0  0  0  0  0  0  0  0  0  0  0
   10.5584    6.5617   22.4598 F   0  0  0  0  0  0  0  0  0  0  0  0
    8.6919    7.6739   24.0507 F   0  0  0  0  0  0  0  0  0  0  0  0
    7.2084    6.1413   25.6892 F   0  0  0  0  0  0  0  0  0  0  0  0
   10.0797    2.6710   27.1776 F   0  0  0  0  0  0  0  0  0  0  0  0
   11.2539    3.4221   29.4393 F   0  0  0  0  0  0  0  0  0  0  0  0
   10.0061    5.0829   31.1752 F   0  0  0  0  0  0  0  0  0  0  0  0
    7.5221    6.0697   30.5188 F   0  0  0  0  0  0  0  0  0  0  0  0
    6.3429    5.3847   28.2815 F   0  0  0  0  0  0  0  0  0  0  0  0
    5.4069    2.9012   28.2711 F   0  0  0  0  0  0  0  0  0  0  0  0
    2.7835    3.3119   28.0536 F   0  0  0  0  0  0  0  0  0  0  0  0
    1.6985    4.1209   25.6872 F   0  0  0  0  0  0  0  0  0  0  0  0
    3.3275    4.4875   23.5260 F   0  0  0  0  0  0  0  0  0  0  0  0
    5.9367    4.0933   23.7113 F   0  0  0  0  0  0  0  0  0  0  0  0
  1  2  2  0  0  0  0
  2 73  1  0  0  0  0
  3  4  2  0  0  0  0
  4107  1  0  0  0  0
  5  1  1  0  0  0  0
  6  5  4  0  0  0  0
  7  6  1  0  0  0  0
  8  6  4  0  0  0  0
  9  8  1  0  0  0  0
 10  8  4  0  0  0  0
 11 10  1  0  0  0  0
 12 10  4  0  0  0  0
 13 12  1  0  0  0  0
 14  5  4  0  0  0  0
 15 14  1  0  0  0  0
 16  3  1  0  0  0  0
 17 16  4  0  0  0  0
 18 17  1  0  0  0  0
 19 17  4  0  0  0  0
 20 19  1  0  0  0  0
 21 19  4  0  0  0  0
 22 21  1  0  0  0  0
 23 21  4  0  0  0  0
 24 23  1  0  0  0  0
 25 16  4  0  0  0  0
 26 25  1  0  0  0  0
 27 28  4  0  0  0  0
 28  1  1  0  0  0  0
 29 28  4  0  0  0  0
 30 29  1  0  0  0  0
 31 29  4  0  0  0  0
 32 31  1  0  0  0  0
 33 31  4  0  0  0  0
 34 33  1  0  0  0  0
 35 27  4  0  0  0  0
 36 35  4  0  0  0  0
 37 36  1  0  0  0  0
 38 36  4  0  0  0  0
 39 38  1  0  0  0  0
 40 38  4  0  0  0  0
 41 40  1  0  0  0  0
 42 27  4  0  0  0  0
 43 42  1  0  0  0  0
 44 43  4  0  0  0  0
 45 44  1  0  0  0  0
 46 44  4  0  0  0  0
 47 46  4  0  0  0  0
 48 47  1  0  0  0  0
 49 47  4  0  0  0  0
 50 49  1  0  0  0  0
 51 50  4  0  0  0  0
 52 51  1  0  0  0  0
 53 51  4  0  0  0  0
 54 53  1  0  0  0  0
 55 53  4  0  0  0  0
 56 55  1  0  0  0  0
 57 55  4  0  0  0  0
 58 57  4  0  0  0  0
 59 58  1  0  0  0  0
 60 58  4  0  0  0  0
 61 60  1  0  0  0  0
 62 60  4  0  0  0  0
 63 62  1  0  0  0  0
 64  3  1  0  0  0  0
 65 50  4  0  0  0  0
 66  3  1  0  0  0  0
 67 66  4  0  0  0  0
 68 67  1  0  0  0  0
 69 46  4  0  0  0  0
 70 69  4  0  0  0  0
 71 70  1  0  0  0  0
 72  1  1  0  0  0  0
 73 74  1  0  0  0  0
 74 75  4  0  0  0  0
 75 76  4  0  0  0  0
 76 77  4  0  0  0  0
 77 78  4  0  0  0  0
 78 79  4  0  0  0  0
 79 74  4  0  0  0  0
 80 73  1  0  0  0  0
 81 80  4  0  0  0  0
 82 81  4  0  0  0  0
 83 82  4  0  0  0  0
 84 83  4  0  0  0  0
 85 80  4  0  0  0  0
 86 73  1  0  0  0  0
 87 86  4  0  0  0  0
 88 87  4  0  0  0  0
 89 88  4  0  0  0  0
 90 89  4  0  0  0  0
 91 86  4  0  0  0  0
 92 75  1  0  0  0  0
 93 76  1  0  0  0  0
 94 77  1  0  0  0  0
 95 78  1  0  0  0  0
 96 79  1  0  0  0  0
 97 81  1  0  0  0  0
 98 82  1  0  0  0  0
 99 83  1  0  0  0  0
100 84  1  0  0  0  0
101 85  1  0  0  0  0
102 87  1  0  0  0  0
103 88  1  0  0  0  0
104 89  1  0  0  0  0
105 90  1  0  0  0  0
106 91  1  0  0  0  0
107108  1  0  0  0  0
108109  4  0  0  0  0
109110  4  0  0  0  0
110111  4  0  0  0  0
111112  4  0  0  0  0
112113  4  0  0  0  0
113108  4  0  0  0  0
114107  1  0  0  0  0
115114  4  0  0  0  0
116115  4  0  0  0  0
117116  4  0  0  0  0
118117  4  0  0  0  0
119114  4  0  0  0  0
120107  1  0  0  0  0
121120  4  0  0  0  0
122121  4  0  0  0  0
123122  4  0  0  0  0
124123  4  0  0  0  0
125120  4  0  0  0  0
126109  1  0  0  0  0
127110  1  0  0  0  0
128111  1  0  0  0  0
129112  1  0  0  0  0
130113  1  0  0  0  0
131115  1  0  0  0  0
132116  1  0  0  0  0
133117  1  0  0  0  0
134118  1  0  0  0  0
135119  1  0  0  0  0
136121  1  0  0  0  0
137122  1  0  0  0  0
138123  1  0  0  0  0
139124  1  0  0  0  0
140125  1  0  0  0  0
 12 14  4  0  0  0  0
 23 25  4  0  0  0  0
 33 35  4  0  0  0  0
 40 42  4  0  0  0  0
 43 72  4  0  0  0  0
 49 66  4  0  0  0  0
 57 65  4  0  0  0  0
 62 64  4  0  0  0  0
 64 65  4  0  0  0  0
 67 69  4  0  0  0  0
 70 72  4  0  0  0  0
 84 85  4  0  0  0  0
 90 91  4  0  0  0  0
118119  4  0  0  0  0
124125  4  0  0  0  0
M  CHG  4   2   1   4   1  73  -1 107  -1
M  END
$$$$
WUDNIV

From CSD data. Using bond type 'Any'. No disordered atoms. Largest molecule.
198210  0  0  0  0  0  0  0  0999 V2000
   -0.2200   10.1483   18.8024 Ti  0  0  0  0  0  0  0  0  0  0  0  0
   -0.2788    8.6595   16.7143 Ti  0  0  0  0  0  0  0  0  0  0  0  0
    0.6659    6.1417   16.9726 P   0  0  0  0  0  0  0  0  0  0  0  0
   -1.8840   11.8541   19.9697 P   0  0  0  0  0  0  0  0  0  0  0  0
    2.3302   10.8052   19.7559 P   0  0  0  0  0  0  0  0  0  0  0  0
   -1.7535    8.8756   14.4706 P   0  0  0  0  0  0  0  0  0  0  0  0
   -0.1348    9.7246   20.8998 N   0  0  0  0  0  0  0  0  0  0  0  0
    1.1060    8.3609   15.0829 N   0  0  0  0  0  0  0  0  0  0  0  0
    1.3544   12.2660   15.6089 O   0  0  0  0  0  0  0  0  0  0  0  0
   -1.6341    8.7784   18.1824 N   0  0  0  0  0  0  0  0  0  0  0  0
   -0.7930   12.9058   15.8416 O   0  0  0  0  0  0  0  0  0  0  0  0
   -1.2793    9.7963   21.6941 C   0  0  0  0  0  0  0  0  0  0  0  0
    2.2530    7.5806   15.2185 C   0  0  0  0  0  0  0  0  0  0  0  0
    3.4113    5.7360   16.3092 C   0  0  0  0  0  0  0  0  0  0  0  0
    3.4114    5.0525   16.9398 H   0  0  0  0  0  0  0  0  0  0  0  0
    0.9896    9.1072   21.4621 C   0  0  0  0  0  0  0  0  0  0  0  0
    0.9359    8.9301   13.8087 C   0  0  0  0  0  0  0  0  0  0  0  0
   -2.2840   10.7478   21.3639 C   0  0  0  0  0  0  0  0  0  0  0  0
   -1.4649    8.9913   22.8408 C   0  0  0  0  0  0  0  0  0  0  0  0
   -3.4384   10.8534   22.1375 C   0  0  0  0  0  0  0  0  0  0  0  0
   -4.0811   11.4866   21.9111 H   0  0  0  0  0  0  0  0  0  0  0  0
    0.9111    8.2479   22.5733 C   0  0  0  0  0  0  0  0  0  0  0  0
    2.0292    9.1544   12.9313 C   0  0  0  0  0  0  0  0  0  0  0  0
    2.2561    6.5025   16.1430 C   0  0  0  0  0  0  0  0  0  0  0  0
   -3.6516   10.0338   23.2388 C   0  0  0  0  0  0  0  0  0  0  0  0
   -2.6473    9.1227   23.5654 C   0  0  0  0  0  0  0  0  0  0  0  0
   -2.7730    8.5743   24.3059 H   0  0  0  0  0  0  0  0  0  0  0  0
    3.8178   10.5709   18.6668 C   0  0  0  0  0  0  0  0  0  0  0  0
    4.6016   10.4591   19.2435 H   0  0  0  0  0  0  0  0  0  0  0  0
    4.5625    5.9629   15.5614 C   0  0  0  0  0  0  0  0  0  0  0  0
    2.0716    7.6182   23.0212 C   0  0  0  0  0  0  0  0  0  0  0  0
    2.0104    7.0404   23.7472 H   0  0  0  0  0  0  0  0  0  0  0  0
    3.3943    8.7349   21.3877 C   0  0  0  0  0  0  0  0  0  0  0  0
    4.2226    8.9139   21.0044 H   0  0  0  0  0  0  0  0  0  0  0  0
   -0.3716    9.2300   13.3500 C   0  0  0  0  0  0  0  0  0  0  0  0
    4.5269    6.9986   14.6367 C   0  0  0  0  0  0  0  0  0  0  0  0
    5.2836    7.1534   14.1183 H   0  0  0  0  0  0  0  0  0  0  0  0
   -0.4274    7.9407   23.2376 C   0  0  0  0  0  0  0  0  0  0  0  0
    3.4233    7.8117   14.4469 C   0  0  0  0  0  0  0  0  0  0  0  0
    1.7750    9.5841   11.6346 C   0  0  0  0  0  0  0  0  0  0  0  0
    2.4955    9.7047   11.0588 H   0  0  0  0  0  0  0  0  0  0  0  0
    3.4426    8.9972   13.4838 C   0  0  0  0  0  0  0  0  0  0  0  0
    2.2682    9.3923   20.9038 C   0  0  0  0  0  0  0  0  0  0  0  0
    2.9493   12.1562   20.9278 C   0  0  0  0  0  0  0  0  0  0  0  0
    2.7519   13.0188   20.5071 H   0  0  0  0  0  0  0  0  0  0  0  0
   -4.9309   10.1190   24.0382 C   0  0  0  0  0  0  0  0  0  0  0  0
   -4.7349   10.4414   24.9211 H   0  0  0  0  0  0  0  0  0  0  0  0
   -5.3299    9.2481   24.0967 H   0  0  0  0  0  0  0  0  0  0  0  0
   -5.5391   10.7219   23.6049 H   0  0  0  0  0  0  0  0  0  0  0  0
    1.1602    5.2947   18.5578 C   0  0  0  0  0  0  0  0  0  0  0  0
    1.7157    4.5264   18.3103 H   0  0  0  0  0  0  0  0  0  0  0  0
   -0.1482   10.7571   16.8600 N   0  0  0  0  0  0  0  0  0  0  0  0
    3.3144    7.8152   22.4316 C   0  0  0  0  0  0  0  0  0  0  0  0
   -0.5525    9.6691   12.0229 C   0  0  0  0  0  0  0  0  0  0  0  0
   -1.4148    9.8479   11.7255 H   0  0  0  0  0  0  0  0  0  0  0  0
    0.4898    9.8432   11.1549 C   0  0  0  0  0  0  0  0  0  0  0  0
    3.7072    9.3459   17.7800 C   0  0  0  0  0  0  0  0  0  0  0  0
    3.5951    8.5645   18.3262 H   0  0  0  0  0  0  0  0  0  0  0  0
    4.5067    9.2578   17.2557 H   0  0  0  0  0  0  0  0  0  0  0  0
    2.9508    9.4401   17.1966 H   0  0  0  0  0  0  0  0  0  0  0  0
    0.0166    4.7362   15.9254 C   0  0  0  0  0  0  0  0  0  0  0  0
    0.1013    5.0465   14.9997 H   0  0  0  0  0  0  0  0  0  0  0  0
   -1.0050   13.2356   20.8711 C   0  0  0  0  0  0  0  0  0  0  0  0
   -0.4211   12.7927   21.5214 H   0  0  0  0  0  0  0  0  0  0  0  0
    4.0207   11.8389   17.8262 C   0  0  0  0  0  0  0  0  0  0  0  0
    3.2601   11.9711   17.2564 H   0  0  0  0  0  0  0  0  0  0  0  0
    4.8107   11.7430   17.2886 H   0  0  0  0  0  0  0  0  0  0  0  0
    4.1205   12.5961   18.4082 H   0  0  0  0  0  0  0  0  0  0  0  0
    3.8168   10.2794   14.2684 C   0  0  0  0  0  0  0  0  0  0  0  0
    3.8909   11.0173   13.6590 H   0  0  0  0  0  0  0  0  0  0  0  0
    4.6562   10.1476   14.7152 H   0  0  0  0  0  0  0  0  0  0  0  0
    3.1350   10.4677   14.9176 H   0  0  0  0  0  0  0  0  0  0  0  0
   -3.4939   12.5983   19.4201 C   0  0  0  0  0  0  0  0  0  0  0  0
   -3.8952   13.0394   20.1979 H   0  0  0  0  0  0  0  0  0  0  0  0
    2.2021   12.1201   22.2580 C   0  0  0  0  0  0  0  0  0  0  0  0
    1.2642   12.0001   22.0948 H   0  0  0  0  0  0  0  0  0  0  0  0
    2.3428   12.9464   22.7263 H   0  0  0  0  0  0  0  0  0  0  0  0
    2.5307   11.3913   22.7897 H   0  0  0  0  0  0  0  0  0  0  0  0
    5.7871    5.1031   15.6979 C   0  0  0  0  0  0  0  0  0  0  0  0
    5.7108    4.5606   16.4863 H   0  0  0  0  0  0  0  0  0  0  0  0
    6.5643    5.6619   15.7679 H   0  0  0  0  0  0  0  0  0  0  0  0
    5.8682    4.5371   14.9267 H   0  0  0  0  0  0  0  0  0  0  0  0
    4.4851    8.8044   12.3664 C   0  0  0  0  0  0  0  0  0  0  0  0
    4.2799    8.0082   11.8709 H   0  0  0  0  0  0  0  0  0  0  0  0
    5.3593    8.7229   12.7550 H   0  0  0  0  0  0  0  0  0  0  0  0
    4.4665    9.5619   11.7770 H   0  0  0  0  0  0  0  0  0  0  0  0
    0.8132    3.4275   15.9833 C   0  0  0  0  0  0  0  0  0  0  0  0
    1.7442    3.6127   15.8360 H   0  0  0  0  0  0  0  0  0  0  0  0
    0.4953    2.8285   15.3042 H   0  0  0  0  0  0  0  0  0  0  0  0
    0.7010    3.0220   16.8462 H   0  0  0  0  0  0  0  0  0  0  0  0
    4.4496   12.1373   21.2415 C   0  0  0  0  0  0  0  0  0  0  0  0
    4.6860   11.2887   21.6228 H   0  0  0  0  0  0  0  0  0  0  0  0
    4.6546   12.8371   21.8660 H   0  0  0  0  0  0  0  0  0  0  0  0
    4.9473   12.2746   20.4323 H   0  0  0  0  0  0  0  0  0  0  0  0
   -0.0642   13.9979   19.9292 C   0  0  0  0  0  0  0  0  0  0  0  0
    0.5180   13.3761   19.4866 H   0  0  0  0  0  0  0  0  0  0  0  0
    0.4600   14.6218   20.4366 H   0  0  0  0  0  0  0  0  0  0  0  0
   -0.5821   14.4728   19.2750 H   0  0  0  0  0  0  0  0  0  0  0  0
   -1.9011   14.1531   21.6908 C   0  0  0  0  0  0  0  0  0  0  0  0
   -2.4656   14.6588   21.1017 H   0  0  0  0  0  0  0  0  0  0  0  0
   -1.3575   14.7534   22.2066 H   0  0  0  0  0  0  0  0  0  0  0  0
   -2.4444   13.6261   22.2810 H   0  0  0  0  0  0  0  0  0  0  0  0
    2.0063    6.1840   19.4552 C   0  0  0  0  0  0  0  0  0  0  0  0
    2.8099    6.4321   18.9931 H   0  0  0  0  0  0  0  0  0  0  0  0
    2.2318    5.7069   20.2570 H   0  0  0  0  0  0  0  0  0  0  0  0
    1.5100    6.9740   19.6818 H   0  0  0  0  0  0  0  0  0  0  0  0
    0.2968   10.3106    9.7237 C   0  0  0  0  0  0  0  0  0  0  0  0
    0.7011   11.1741    9.6119 H   0  0  0  0  0  0  0  0  0  0  0  0
   -0.6414   10.3687    9.5299 H   0  0  0  0  0  0  0  0  0  0  0  0
    0.7094    9.6843    9.1243 H   0  0  0  0  0  0  0  0  0  0  0  0
   -1.4832    4.4717   16.1242 C   0  0  0  0  0  0  0  0  0  0  0  0
   -1.6151    3.9639   16.9280 H   0  0  0  0  0  0  0  0  0  0  0  0
   -1.8233    3.9778   15.3743 H   0  0  0  0  0  0  0  0  0  0  0  0
   -1.9493    5.3082   16.1940 H   0  0  0  0  0  0  0  0  0  0  0  0
   -3.2452   13.6808   18.3513 C   0  0  0  0  0  0  0  0  0  0  0  0
   -2.7154   14.3871   18.7289 H   0  0  0  0  0  0  0  0  0  0  0  0
   -4.0853   14.0354   18.0527 H   0  0  0  0  0  0  0  0  0  0  0  0
   -2.7780   13.2940   17.6069 H   0  0  0  0  0  0  0  0  0  0  0  0
   -0.0534    4.7438   19.3097 C   0  0  0  0  0  0  0  0  0  0  0  0
   -0.6579    5.4619   19.5112 H   0  0  0  0  0  0  0  0  0  0  0  0
    0.2368    4.3311   20.1265 H   0  0  0  0  0  0  0  0  0  0  0  0
   -0.5002    4.0932   18.7634 H   0  0  0  0  0  0  0  0  0  0  0  0
   -0.2522    7.9276   24.7604 C   0  0  0  0  0  0  0  0  0  0  0  0
   -0.0052    8.8039   25.0623 H   0  0  0  0  0  0  0  0  0  0  0  0
    0.4364    7.3011   24.9978 H   0  0  0  0  0  0  0  0  0  0  0  0
   -1.0779    7.6662   25.1750 H   0  0  0  0  0  0  0  0  0  0  0  0
   -0.9022    6.5612   22.7704 C   0  0  0  0  0  0  0  0  0  0  0  0
   -1.7284    6.3425   23.2050 H   0  0  0  0  0  0  0  0  0  0  0  0
   -0.2389    5.9028   22.9911 H   0  0  0  0  0  0  0  0  0  0  0  0
   -1.0341    6.5742   21.8187 H   0  0  0  0  0  0  0  0  0  0  0  0
    4.5208    7.0583   22.9329 C   0  0  0  0  0  0  0  0  0  0  0  0
    4.2792    6.5494   23.7101 H   0  0  0  0  0  0  0  0  0  0  0  0
    5.2161    7.6806   23.1622 H   0  0  0  0  0  0  0  0  0  0  0  0
    4.8357    6.4662   22.2468 H   0  0  0  0  0  0  0  0  0  0  0  0
   -0.1110   14.0394   15.2512 C   0  0  0  0  0  0  0  0  0  0  0  0
    1.1790   13.4087   14.7089 C   0  0  0  0  0  0  0  0  0  0  0  0
    0.1393   11.9384   16.1133 B   0  0  0  0  0  0  0  0  0  0  0  0
    0.9521   12.8598   13.2836 C   0  0  0  0  0  0  0  0  0  0  0  0
    1.6624   12.2550   13.0570 H   0  0  0  0  0  0  0  0  0  0  0  0
    0.9404   13.5882   12.6582 H   0  0  0  0  0  0  0  0  0  0  0  0
    0.1129   12.3951   13.2492 H   0  0  0  0  0  0  0  0  0  0  0  0
    2.4464   14.2049   14.7713 C   0  0  0  0  0  0  0  0  0  0  0  0
    2.6860   14.3501   15.6903 H   0  0  0  0  0  0  0  0  0  0  0  0
    2.3149   15.0497   14.3374 H   0  0  0  0  0  0  0  0  0  0  0  0
    3.1485   13.7220   14.3305 H   0  0  0  0  0  0  0  0  0  0  0  0
   -4.4780   11.5452   18.9350 C   0  0  0  0  0  0  0  0  0  0  0  0
   -4.1256   11.1135   18.1533 H   0  0  0  0  0  0  0  0  0  0  0  0
   -5.3147   11.9640   18.7192 H   0  0  0  0  0  0  0  0  0  0  0  0
   -4.6158   10.8931   19.6260 H   0  0  0  0  0  0  0  0  0  0  0  0
    0.2291   15.0412   16.3985 C   0  0  0  0  0  0  0  0  0  0  0  0
   -0.5697   15.2482   16.8904 H   0  0  0  0  0  0  0  0  0  0  0  0
    0.5918   15.8467   16.0240 H   0  0  0  0  0  0  0  0  0  0  0  0
    0.8736   14.6442   16.9895 H   0  0  0  0  0  0  0  0  0  0  0  0
   -1.0063   14.6986   14.2533 C   0  0  0  0  0  0  0  0  0  0  0  0
   -1.3263   14.0443   13.6286 H   0  0  0  0  0  0  0  0  0  0  0  0
   -0.5152   15.3770   13.7827 H   0  0  0  0  0  0  0  0  0  0  0  0
   -1.7508   15.1001   14.7069 H   0  0  0  0  0  0  0  0  0  0  0  0
   -2.7438    7.6722   13.5328 C   0  0  0  0  0  0  0  0  0  0  0  0
   -3.1003    8.1209   12.7368 H   0  0  0  0  0  0  0  0  0  0  0  0
   -2.8204   10.4818   14.4370 C   0  0  0  0  0  0  0  0  0  0  0  0
   -2.1876   11.2279   14.4896 H   0  0  0  0  0  0  0  0  0  0  0  0
   -1.8550    6.5229   13.0736 C   0  0  0  0  0  0  0  0  0  0  0  0
   -1.2060    6.8512   12.4466 H   0  0  0  0  0  0  0  0  0  0  0  0
   -2.3941    5.8496   12.6535 H   0  0  0  0  0  0  0  0  0  0  0  0
   -1.4040    6.1456   13.8324 H   0  0  0  0  0  0  0  0  0  0  0  0
   -3.9140    7.1761   14.3663 C   0  0  0  0  0  0  0  0  0  0  0  0
   -3.5937    6.8767   15.2198 H   0  0  0  0  0  0  0  0  0  0  0  0
   -4.3439    6.4477   13.9119 H   0  0  0  0  0  0  0  0  0  0  0  0
   -4.5423    7.8906   14.4919 H   0  0  0  0  0  0  0  0  0  0  0  0
   -3.6616   10.7225   13.1560 C   0  0  0  0  0  0  0  0  0  0  0  0
   -3.0755   10.8580   12.4092 H   0  0  0  0  0  0  0  0  0  0  0  0
   -4.2116   11.5012   13.2770 H   0  0  0  0  0  0  0  0  0  0  0  0
   -4.2204    9.9597   12.9921 H   0  0  0  0  0  0  0  0  0  0  0  0
   -3.6595   10.5800   15.6332 C   0  0  0  0  0  0  0  0  0  0  0  0
   -4.0682    9.7288   15.8085 H   0  0  0  0  0  0  0  0  0  0  0  0
   -4.3431   11.2393   15.4916 H   0  0  0  0  0  0  0  0  0  0  0  0
   -3.1189   10.8357   16.3839 H   0  0  0  0  0  0  0  0  0  0  0  0
   -2.6961    7.9952   18.6927 B   0  0  0  0  0  0  0  0  0  0  0  0
   -3.8888    6.2574   19.6104 C   0  0  0  0  0  0  0  0  0  0  0  0
   -4.8079    7.4070   19.4149 C   0  0  0  0  0  0  0  0  0  0  0  0
   -4.1452    5.1252   18.5554 C   0  0  0  0  0  0  0  0  0  0  0  0
   -4.1987    5.5119   17.6777 H   0  0  0  0  0  0  0  0  0  0  0  0
   -4.9702    4.6785   18.7583 H   0  0  0  0  0  0  0  0  0  0  0  0
   -3.4236    4.4925   18.5819 H   0  0  0  0  0  0  0  0  0  0  0  0
   -3.8579    5.6387   20.9973 C   0  0  0  0  0  0  0  0  0  0  0  0
   -3.1272    5.0183   21.0535 H   0  0  0  0  0  0  0  0  0  0  0  0
   -4.6831    5.1780   21.1600 H   0  0  0  0  0  0  0  0  0  0  0  0
   -3.7413    6.3303   21.6529 H   0  0  0  0  0  0  0  0  0  0  0  0
   -5.0122    8.1290   20.7760 C   0  0  0  0  0  0  0  0  0  0  0  0
   -5.4777    7.5477   21.3815 H   0  0  0  0  0  0  0  0  0  0  0  0
   -5.5285    8.9281   20.6401 H   0  0  0  0  0  0  0  0  0  0  0  0
   -4.1579    8.3607   21.1474 H   0  0  0  0  0  0  0  0  0  0  0  0
   -6.1664    7.0042   18.8639 C   0  0  0  0  0  0  0  0  0  0  0  0
   -6.0620    6.6579   17.9749 H   0  0  0  0  0  0  0  0  0  0  0  0
   -6.7443    7.7702   18.8436 H   0  0  0  0  0  0  0  0  0  0  0  0
   -6.5528    6.3277   19.4267 H   0  0  0  0  0  0  0  0  0  0  0  0
   -4.1018    8.2346   18.5295 O   0  0  0  0  0  0  0  0  0  0  0  0
   -2.5828    6.8532   19.4090 O   0  0  0  0  0  0  0  0  0  0  0  0
  1  4  1  0  0  0  0
  2  3  1  0  0  0  0
  3 24  1  0  0  0  0
  4 18  1  0  0  0  0
  5  1  1  0  0  0  0
  6  2  1  0  0  0  0
  7  1  1  0  0  0  0
  8  2  1  0  0  0  0
  9136  1  0  0  0  0
 10  1  1  0  0  0  0
 11135  1  0  0  0  0
 12  7  1  0  0  0  0
 13  8  1  0  0  0  0
 14 15  1  0  0  0  0
 16  7  1  0  0  0  0
 17  8  1  0  0  0  0
 18 12  4  0  0  0  0
 19 12  4  0  0  0  0
 20 18  4  0  0  0  0
 21 20  1  0  0  0  0
 22 16  4  0  0  0  0
 23 17  4  0  0  0  0
 24 13  4  0  0  0  0
 25 20  4  0  0  0  0
 26 19  4  0  0  0  0
 27 26  1  0  0  0  0
 28  5  1  0  0  0  0
 29 28  1  0  0  0  0
 30 14  4  0  0  0  0
 31 22  4  0  0  0  0
 32 31  1  0  0  0  0
 33 34  1  0  0  0  0
 35  6  1  0  0  0  0
 36 30  4  0  0  0  0
 37 36  1  0  0  0  0
 38 19  1  0  0  0  0
 39 13  4  0  0  0  0
 40 23  4  0  0  0  0
 41 40  1  0  0  0  0
 42 23  1  0  0  0  0
 43  5  1  0  0  0  0
 44  5  1  0  0  0  0
 45 44  1  0  0  0  0
 46 25  1  0  0  0  0
 47 46  1  0  0  0  0
 48 46  1  0  0  0  0
 49 46  1  0  0  0  0
 50  3  1  0  0  0  0
 51 50  1  0  0  0  0
 52  1  1  0  0  0  0
 53 31  4  0  0  0  0
 54 35  4  0  0  0  0
 55 54  1  0  0  0  0
 56 40  4  0  0  0  0
 57 28  1  0  0  0  0
 58 57  1  0  0  0  0
 59 57  1  0  0  0  0
 60 57  1  0  0  0  0
 61  3  1  0  0  0  0
 62 61  1  0  0  0  0
 63  4  1  0  0  0  0
 64 63  1  0  0  0  0
 65 28  1  0  0  0  0
 66 65  1  0  0  0  0
 67 65  1  0  0  0  0
 68 65  1  0  0  0  0
 69 42  1  0  0  0  0
 70 69  1  0  0  0  0
 71 69  1  0  0  0  0
 72 69  1  0  0  0  0
 73  4  1  0  0  0  0
 74 73  1  0  0  0  0
 75 44  1  0  0  0  0
 76 75  1  0  0  0  0
 77 75  1  0  0  0  0
 78 75  1  0  0  0  0
 79 30  1  0  0  0  0
 80 79  1  0  0  0  0
 81 79  1  0  0  0  0
 82 79  1  0  0  0  0
 83 42  1  0  0  0  0
 84 83  1  0  0  0  0
 85 83  1  0  0  0  0
 86 83  1  0  0  0  0
 87 61  1  0  0  0  0
 88 87  1  0  0  0  0
 89 87  1  0  0  0  0
 90 87  1  0  0  0  0
 91 44  1  0  0  0  0
 92 91  1  0  0  0  0
 93 91  1  0  0  0  0
 94 91  1  0  0  0  0
 95 63  1  0  0  0  0
 96 95  1  0  0  0  0
 97 95  1  0  0  0  0
 98 95  1  0  0  0  0
 99 63  1  0  0  0  0
100 99  1  0  0  0  0
101 99  1  0  0  0  0
102 99  1  0  0  0  0
103 50  1  0  0  0  0
104103  1  0  0  0  0
105103  1  0  0  0  0
106103  1  0  0  0  0
107 56  1  0  0  0  0
108107  1  0  0  0  0
109107  1  0  0  0  0
110107  1  0  0  0  0
111 61  1  0  0  0  0
112111  1  0  0  0  0
113111  1  0  0  0  0
114111  1  0  0  0  0
115 73  1  0  0  0  0
116115  1  0  0  0  0
117115  1  0  0  0  0
118115  1  0  0  0  0
119 50  1  0  0  0  0
120119  1  0  0  0  0
121119  1  0  0  0  0
122119  1  0  0  0  0
123 38  1  0  0  0  0
124123  1  0  0  0  0
125123  1  0  0  0  0
126123  1  0  0  0  0
127 38  1  0  0  0  0
128127  1  0  0  0  0
129127  1  0  0  0  0
130127  1  0  0  0  0
131 53  1  0  0  0  0
132131  1  0  0  0  0
133131  1  0  0  0  0
134131  1  0  0  0  0
135136  1  0  0  0  0
136138  1  0  0  0  0
137  9  1  0  0  0  0
138139  1  0  0  0  0
140138  1  0  0  0  0
141138  1  0  0  0  0
142136  1  0  0  0  0
143142  1  0  0  0  0
144142  1  0  0  0  0
145142  1  0  0  0  0
146 73  1  0  0  0  0
147146  1  0  0  0  0
148146  1  0  0  0  0
149146  1  0  0  0  0
150135  1  0  0  0  0
151150  1  0  0  0  0
152150  1  0  0  0  0
153150  1  0  0  0  0
154135  1  0  0  0  0
155154  1  0  0  0  0
156154  1  0  0  0  0
157154  1  0  0  0  0
158  6  1  0  0  0  0
159158  1  0  0  0  0
160  6  1  0  0  0  0
161160  1  0  0  0  0
162158  1  0  0  0  0
163162  1  0  0  0  0
164162  1  0  0  0  0
165162  1  0  0  0  0
166158  1  0  0  0  0
167166  1  0  0  0  0
168166  1  0  0  0  0
169166  1  0  0  0  0
170160  1  0  0  0  0
171170  1  0  0  0  0
172170  1  0  0  0  0
173170  1  0  0  0  0
174160  1  0  0  0  0
175174  1  0  0  0  0
176174  1  0  0  0  0
177174  1  0  0  0  0
178 10  1  0  0  0  0
179180  1  0  0  0  0
180189  1  0  0  0  0
181179  1  0  0  0  0
182181  1  0  0  0  0
183181  1  0  0  0  0
184181  1  0  0  0  0
185179  1  0  0  0  0
186185  1  0  0  0  0
187185  1  0  0  0  0
188185  1  0  0  0  0
189190  1  0  0  0  0
191189  1  0  0  0  0
192189  1  0  0  0  0
193180  1  0  0  0  0
194193  1  0  0  0  0
195193  1  0  0  0  0
196193  1  0  0  0  0
197178  1  0  0  0  0
198178  1  0  0  0  0
  2 10  1  0  0  0  0
  2 52  1  0  0  0  0
 11137  1  0  0  0  0
 14 24  4  0  0  0  0
 16 43  4  0  0  0  0
 17 35  4  0  0  0  0
 22 38  1  0  0  0  0
 25 26  4  0  0  0  0
 33 43  4  0  0  0  0
 33 53  4  0  0  0  0
 36 39  4  0  0  0  0
 39 42  1  0  0  0  0
 52137  1  0  0  0  0
 54 56  4  0  0  0  0
179198  1  0  0  0  0
180197  1  0  0  0  0
M  END
$$$$
WUFCOS

From CSD data. Using bond type 'Any'. No disordered atoms. Largest molecule.
 93 99  0  0  0  0  0  0  0  0999 V2000
   10.9365   10.9091   13.2294 Au  0  0  0  0  0  0  0  0  0  0  0  0
   14.4809   13.2710   15.4886 C   0  0  0  0  0  0  0  0  0  0  0  0
   14.2707   13.7757   16.3133 H   0  0  0  0  0  0  0  0  0  0  0  0
   15.2546   12.6888   15.6925 H   0  0  0  0  0  0  0  0  0  0  0  0
   14.9112   14.2488   14.4576 O   0  0  0  0  0  0  0  0  0  0  0  0
   15.3420   13.7105   13.2084 C   0  0  0  0  0  0  0  0  0  0  0  0
   16.1688   14.1750   12.9265 H   0  0  0  0  0  0  0  0  0  0  0  0
   15.5604   12.7530   13.3300 H   0  0  0  0  0  0  0  0  0  0  0  0
   14.4023   13.8313   12.2175 O   0  0  0  0  0  0  0  0  0  0  0  0
   13.1918   12.2956   15.1556 B   0  5  0  0  0  0  0  0  0  0  0  0
   12.0546   13.2533   14.5074 C   0  0  0  0  0  0  0  0  0  0  0  0
   11.1615   13.9677   15.3263 C   0  0  0  0  0  0  0  0  0  0  0  0
   11.1875   13.8254   16.2658 H   0  0  0  0  0  0  0  0  0  0  0  0
   10.2400   14.8781   14.8112 C   0  0  0  0  0  0  0  0  0  0  0  0
    9.6449   15.3399   15.3894 H   0  0  0  0  0  0  0  0  0  0  0  0
   10.2028   15.1013   13.4388 C   0  0  0  0  0  0  0  0  0  0  0  0
    9.5781   15.7158   13.0725 H   0  0  0  0  0  0  0  0  0  0  0  0
   11.0881   14.4177   12.6033 C   0  0  0  0  0  0  0  0  0  0  0  0
   11.0526   14.5791   11.6685 H   0  0  0  0  0  0  0  0  0  0  0  0
   12.0319   13.4967   13.0977 C   0  0  0  0  0  0  0  0  0  0  0  0
   13.2203   12.8662   12.1458 B   0  0  0  0  0  0  0  0  0  0  0  0
   13.7058   11.4126   12.6982 C   0  0  0  0  0  0  0  0  0  0  0  0
   14.3406   10.4757   11.8586 C   0  0  0  0  0  0  0  0  0  0  0  0
   14.4132   10.6679   10.9309 H   0  0  0  0  0  0  0  0  0  0  0  0
   14.8657    9.2783   12.3378 C   0  0  0  0  0  0  0  0  0  0  0  0
   15.2910    8.6689   11.7452 H   0  0  0  0  0  0  0  0  0  0  0  0
   14.7604    8.9846   13.6982 C   0  0  0  0  0  0  0  0  0  0  0  0
   15.0863    8.1583   14.0365 H   0  0  0  0  0  0  0  0  0  0  0  0
   14.1759    9.9091   14.5556 C   0  0  0  0  0  0  0  0  0  0  0  0
   14.1216    9.7053   15.4825 H   0  0  0  0  0  0  0  0  0  0  0  0
   13.6602   11.1393   14.0986 C   0  0  0  0  0  0  0  0  0  0  0  0
   12.7236   11.5825   16.5747 C   0  0  0  0  0  0  0  0  0  0  0  0
   11.5857   10.7495   16.7469 C   0  0  0  0  0  0  0  0  0  0  0  0
   11.3350   10.0880   17.9638 C   0  0  0  0  0  0  0  0  0  0  0  0
   10.5625    9.5409   18.0441 H   0  0  0  0  0  0  0  0  0  0  0  0
   12.1892   10.2171   19.0492 C   0  0  0  0  0  0  0  0  0  0  0  0
   12.0161    9.7553   19.8607 H   0  0  0  0  0  0  0  0  0  0  0  0
   13.2984   11.0339   18.9228 C   0  0  0  0  0  0  0  0  0  0  0  0
   13.8926   11.1462   19.6563 H   0  0  0  0  0  0  0  0  0  0  0  0
   13.5431   11.6935   17.7193 C   0  0  0  0  0  0  0  0  0  0  0  0
   14.3094   12.2532   17.6662 H   0  0  0  0  0  0  0  0  0  0  0  0
   10.3538   10.4756   15.4194 P   0  0  0  0  0  0  0  0  0  0  0  0
    8.8878   11.5004   15.9644 C   0  0  0  0  0  0  0  0  0  0  0  0
    9.2696   12.3016   16.4246 H   0  0  0  0  0  0  0  0  0  0  0  0
    7.9676   10.8252   16.9870 C   0  0  0  0  0  0  0  0  0  0  0  0
    7.2625   11.4509   17.2554 H   0  0  0  0  0  0  0  0  0  0  0  0
    8.4895   10.5646   17.7739 H   0  0  0  0  0  0  0  0  0  0  0  0
    7.5623   10.0288   16.5853 H   0  0  0  0  0  0  0  0  0  0  0  0
    8.0820   12.0413   14.7813 C   0  0  0  0  0  0  0  0  0  0  0  0
    7.6322   11.2992   14.3250 H   0  0  0  0  0  0  0  0  0  0  0  0
    8.6850   12.4921   14.1534 H   0  0  0  0  0  0  0  0  0  0  0  0
    7.4120   12.6794   15.1064 H   0  0  0  0  0  0  0  0  0  0  0  0
    9.8520    8.6988   15.5793 C   0  0  0  0  0  0  0  0  0  0  0  0
    9.4676    8.5581   16.4922 H   0  0  0  0  0  0  0  0  0  0  0  0
   11.0765    7.7978   15.4249 C   0  0  0  0  0  0  0  0  0  0  0  0
   10.7987    6.8589   15.4625 H   0  0  0  0  0  0  0  0  0  0  0  0
   11.7096    7.9797   16.1508 H   0  0  0  0  0  0  0  0  0  0  0  0
   11.5076    7.9775   14.5624 H   0  0  0  0  0  0  0  0  0  0  0  0
    8.7858    8.3391   14.5434 C   0  0  0  0  0  0  0  0  0  0  0  0
    9.1533    8.4542   13.6422 H   0  0  0  0  0  0  0  0  0  0  0  0
    8.0089    8.9254   14.6573 H   0  0  0  0  0  0  0  0  0  0  0  0
    8.5111    7.4063   14.6664 H   0  0  0  0  0  0  0  0  0  0  0  0
   12.7414   12.8901   10.5654 C   0  0  0  0  0  0  0  0  0  0  0  0
   11.6228   12.2182   10.0134 C   0  0  0  0  0  0  0  0  0  0  0  0
   11.1720   12.5029    8.7097 C   0  0  0  0  0  0  0  0  0  0  0  0
   10.3983   12.0621    8.3766 H   0  0  0  0  0  0  0  0  0  0  0  0
   11.8366   13.4147    7.9018 C   0  0  0  0  0  0  0  0  0  0  0  0
   11.5080   13.6198    7.0347 H   0  0  0  0  0  0  0  0  0  0  0  0
   12.9878   14.0215    8.3803 C   0  0  0  0  0  0  0  0  0  0  0  0
   13.4849   14.6109    7.8253 H   0  0  0  0  0  0  0  0  0  0  0  0
   13.4093   13.7609    9.6784 C   0  0  0  0  0  0  0  0  0  0  0  0
   14.1950   14.1956    9.9870 H   0  0  0  0  0  0  0  0  0  0  0  0
   10.7831   10.8897   10.9322 P   0  0  0  0  0  0  0  0  0  0  0  0
    9.0128   10.9610   10.4027 C   0  0  0  0  0  0  0  0  0  0  0  0
    8.9805   10.8982    9.4046 H   0  0  0  0  0  0  0  0  0  0  0  0
    8.4230   12.3140   10.8197 C   0  0  0  0  0  0  0  0  0  0  0  0
    7.4601   12.3212   10.6351 H   0  0  0  0  0  0  0  0  0  0  0  0
    8.8584   13.0309   10.3120 H   0  0  0  0  0  0  0  0  0  0  0  0
    8.5733   12.4545   11.7781 H   0  0  0  0  0  0  0  0  0  0  0  0
    8.1914    9.8117   10.9838 C   0  0  0  0  0  0  0  0  0  0  0  0
    8.1982    9.8675   11.9625 H   0  0  0  0  0  0  0  0  0  0  0  0
    8.5798    8.9571   10.7027 H   0  0  0  0  0  0  0  0  0  0  0  0
    7.2686    9.8733   10.6607 H   0  0  0  0  0  0  0  0  0  0  0  0
   11.5303    9.3580   10.1863 C   0  0  0  0  0  0  0  0  0  0  0  0
   12.4979    9.5680   10.0490 H   0  0  0  0  0  0  0  0  0  0  0  0
   11.4982    8.1624   11.1443 C   0  0  0  0  0  0  0  0  0  0  0  0
   10.5673    7.9190   11.3307 H   0  0  0  0  0  0  0  0  0  0  0  0
   11.9474    8.4024   11.9807 H   0  0  0  0  0  0  0  0  0  0  0  0
   11.9585    7.4012   10.7319 H   0  0  0  0  0  0  0  0  0  0  0  0
   10.9890    8.9890    8.8042 C   0  0  0  0  0  0  0  0  0  0  0  0
   11.5072    8.2407    8.4387 H   0  0  0  0  0  0  0  0  0  0  0  0
   11.0663    9.7623    8.2068 H   0  0  0  0  0  0  0  0  0  0  0  0
   10.0475    8.7271    8.8806 H   0  0  0  0  0  0  0  0  0  0  0  0
  1 42  1  0  0  0  0
  2  3  1  0  0  0  0
  4  2  1  0  0  0  0
  5  2  1  0  0  0  0
  6  5  1  0  0  0  0
  7  6  1  0  0  0  0
  8  6  1  0  0  0  0
  9  6  1  0  0  0  0
 10  2  1  0  0  0  0
 11 10  1  0  0  0  0
 12 11  4  0  0  0  0
 13 12  1  0  0  0  0
 14 12  4  0  0  0  0
 15 14  1  0  0  0  0
 16 14  4  0  0  0  0
 17 16  1  0  0  0  0
 18 16  4  0  0  0  0
 19 18  1  0  0  0  0
 20 11  4  0  0  0  0
 21  9  1  0  0  0  0
 22 21  1  0  0  0  0
 23 22  4  0  0  0  0
 24 23  1  0  0  0  0
 25 23  4  0  0  0  0
 26 25  1  0  0  0  0
 27 25  4  0  0  0  0
 28 27  1  0  0  0  0
 29 27  4  0  0  0  0
 30 29  1  0  0  0  0
 31 10  1  0  0  0  0
 32 10  1  0  0  0  0
 33 32  4  0  0  0  0
 34 33  4  0  0  0  0
 35 34  1  0  0  0  0
 36 34  4  0  0  0  0
 37 36  1  0  0  0  0
 38 36  4  0  0  0  0
 39 38  1  0  0  0  0
 40 32  4  0  0  0  0
 41 40  1  0  0  0  0
 42 33  1  0  0  0  0
 43 42  1  0  0  0  0
 44 43  1  0  0  0  0
 45 43  1  0  0  0  0
 46 45  1  0  0  0  0
 47 45  1  0  0  0  0
 48 45  1  0  0  0  0
 49 43  1  0  0  0  0
 50 49  1  0  0  0  0
 51 49  1  0  0  0  0
 52 49  1  0  0  0  0
 53 42  1  0  0  0  0
 54 53  1  0  0  0  0
 55 53  1  0  0  0  0
 56 55  1  0  0  0  0
 57 55  1  0  0  0  0
 58 55  1  0  0  0  0
 59 53  1  0  0  0  0
 60 59  1  0  0  0  0
 61 59  1  0  0  0  0
 62 59  1  0  0  0  0
 63 21  1  0  0  0  0
 64 63  4  0  0  0  0
 65 64  4  0  0  0  0
 66 65  1  0  0  0  0
 67 65  4  0  0  0  0
 68 67  1  0  0  0  0
 69 67  4  0  0  0  0
 70 69  1  0  0  0  0
 71 63  4  0  0  0  0
 72 71  1  0  0  0  0
 73  1  1  0  0  0  0
 74 73  1  0  0  0  0
 75 74  1  0  0  0  0
 76 74  1  0  0  0  0
 77 76  1  0  0  0  0
 78 76  1  0  0  0  0
 79 76  1  0  0  0  0
 80 74  1  0  0  0  0
 81 80  1  0  0  0  0
 82 80  1  0  0  0  0
 83 80  1  0  0  0  0
 84 73  1  0  0  0  0
 85 84  1  0  0  0  0
 86 84  1  0  0  0  0
 87 86  1  0  0  0  0
 88 86  1  0  0  0  0
 89 86  1  0  0  0  0
 90 84  1  0  0  0  0
 91 90  1  0  0  0  0
 92 90  1  0  0  0  0
 93 90  1  0  0  0  0
 18 20  4  0  0  0  0
 20 21  1  0  0  0  0
 22 31  4  0  0  0  0
 29 31  4  0  0  0  0
 38 40  4  0  0  0  0
 64 73  1  0  0  0  0
 69 71  4  0  0  0  0
M  CHG  1  10  -1
M  END
$$$$
WUFCUY

From CSD data. Using bond type 'Any'. No disordered atoms. Largest molecule.
113121  0  0  0  0  0  0  0  0999 V2000
   11.7169   23.5261    6.8572 Au  0  0  0  0  0  0  0  0  0  0  0  0
    8.6924   23.0425    7.7248 B   0  5  0  0  0  0  0  0  0  0  0  0
    8.9830   24.4468    6.9684 C   0  0  0  0  0  0  0  0  0  0  0  0
    8.6732   25.6790    7.5872 C   0  0  0  0  0  0  0  0  0  0  0  0
    8.3690   25.6817    8.4859 H   0  0  0  0  0  0  0  0  0  0  0  0
    8.8029   26.8930    6.9139 C   0  0  0  0  0  0  0  0  0  0  0  0
    8.5992   27.7080    7.3596 H   0  0  0  0  0  0  0  0  0  0  0  0
    9.2268   26.9130    5.6027 C   0  0  0  0  0  0  0  0  0  0  0  0
    9.3225   27.7354    5.1404 H   0  0  0  0  0  0  0  0  0  0  0  0
    9.5106   25.7132    4.9673 C   0  0  0  0  0  0  0  0  0  0  0  0
    9.8148   25.7318    4.0687 H   0  0  0  0  0  0  0  0  0  0  0  0
    9.3642   24.4614    5.6051 C   0  0  0  0  0  0  0  0  0  0  0  0
    9.3452   23.0607    4.7586 B   0  0  0  0  0  0  0  0  0  0  0  0
    9.7924   21.7817    5.6810 C   0  0  0  0  0  0  0  0  0  0  0  0
   10.2895   20.6014    5.1048 C   0  0  0  0  0  0  0  0  0  0  0  0
   10.4267   20.5727    4.1659 H   0  0  0  0  0  0  0  0  0  0  0  0
   10.5893   19.4790    5.8564 C   0  0  0  0  0  0  0  0  0  0  0  0
   10.9149   18.6921    5.4344 H   0  0  0  0  0  0  0  0  0  0  0  0
   10.4092   19.5117    7.2292 C   0  0  0  0  0  0  0  0  0  0  0  0
   10.6388   18.7559    7.7580 H   0  0  0  0  0  0  0  0  0  0  0  0
    9.8952   20.6469    7.8267 C   0  0  0  0  0  0  0  0  0  0  0  0
    9.7665   20.6547    8.7680 H   0  0  0  0  0  0  0  0  0  0  0  0
    9.5539   21.7949    7.0798 C   0  0  0  0  0  0  0  0  0  0  0  0
    8.8917   23.0917    9.3584 C   0  0  0  0  0  0  0  0  0  0  0  0
   10.1193   23.3595   10.0294 C   0  0  0  0  0  0  0  0  0  0  0  0
   10.2219   23.2210   11.4141 C   0  0  0  0  0  0  0  0  0  0  0  0
   11.0557   23.3959   11.8361 H   0  0  0  0  0  0  0  0  0  0  0  0
    9.1404   22.8344   12.1870 C   0  0  0  0  0  0  0  0  0  0  0  0
    9.2284   22.7356   13.1283 H   0  0  0  0  0  0  0  0  0  0  0  0
    7.9285   22.5967   11.5611 C   0  0  0  0  0  0  0  0  0  0  0  0
    7.1703   22.3395   12.0732 H   0  0  0  0  0  0  0  0  0  0  0  0
    7.8300   22.7338   10.1930 C   0  0  0  0  0  0  0  0  0  0  0  0
    6.9855   22.5763    9.7899 H   0  0  0  0  0  0  0  0  0  0  0  0
   11.5763   23.9569    9.1147 P   0  0  0  0  0  0  0  0  0  0  0  0
   11.5537   25.7769    9.4769 C   0  0  0  0  0  0  0  0  0  0  0  0
   10.5911   26.0460    9.4295 H   0  0  0  0  0  0  0  0  0  0  0  0
   12.0242   26.1781   10.8853 C   0  0  0  0  0  0  0  0  0  0  0  0
   11.8694   27.1343   11.0205 H   0  0  0  0  0  0  0  0  0  0  0  0
   12.9809   25.9868   10.9754 H   0  0  0  0  0  0  0  0  0  0  0  0
   11.5232   25.6681   11.5540 H   0  0  0  0  0  0  0  0  0  0  0  0
   12.2647   26.6061    8.4005 C   0  0  0  0  0  0  0  0  0  0  0  0
   13.2110   26.3557    8.3673 H   0  0  0  0  0  0  0  0  0  0  0  0
   12.1875   27.5578    8.6186 H   0  0  0  0  0  0  0  0  0  0  0  0
   11.8501   26.4331    7.5303 H   0  0  0  0  0  0  0  0  0  0  0  0
   13.0238   23.2333    9.9867 C   0  0  0  0  0  0  0  0  0  0  0  0
   12.9746   23.4961   10.9517 H   0  0  0  0  0  0  0  0  0  0  0  0
   12.9560   21.7056    9.8942 C   0  0  0  0  0  0  0  0  0  0  0  0
   13.7633   21.3195   10.2902 H   0  0  0  0  0  0  0  0  0  0  0  0
   12.8912   21.4379    8.9553 H   0  0  0  0  0  0  0  0  0  0  0  0
   12.1669   21.3832   10.3803 H   0  0  0  0  0  0  0  0  0  0  0  0
   14.3415   23.7802    9.4034 C   0  0  0  0  0  0  0  0  0  0  0  0
   14.4394   23.4778    8.4764 H   0  0  0  0  0  0  0  0  0  0  0  0
   15.0961   23.4505    9.9369 H   0  0  0  0  0  0  0  0  0  0  0  0
   14.3275   24.7619    9.4248 H   0  0  0  0  0  0  0  0  0  0  0  0
   10.2407   23.2151    3.3906 C   0  0  0  0  0  0  0  0  0  0  0  0
   11.6421   23.3795    3.3170 C   0  0  0  0  0  0  0  0  0  0  0  0
   12.2744   23.6286    2.0983 C   0  0  0  0  0  0  0  0  0  0  0  0
   13.2172   23.7511    2.0841 H   0  0  0  0  0  0  0  0  0  0  0  0
   11.5754   23.7046    0.9128 C   0  0  0  0  0  0  0  0  0  0  0  0
   12.0234   23.8831    0.0948 H   0  0  0  0  0  0  0  0  0  0  0  0
   10.2081   23.5138    0.9413 C   0  0  0  0  0  0  0  0  0  0  0  0
    9.7032   23.5370    0.1351 H   0  0  0  0  0  0  0  0  0  0  0  0
    9.5794   23.2871    2.1529 C   0  0  0  0  0  0  0  0  0  0  0  0
    8.6372   23.1728    2.1481 H   0  0  0  0  0  0  0  0  0  0  0  0
   12.7061   23.2433    4.7975 P   0  0  0  0  0  0  0  0  0  0  0  0
   14.0296   24.5142    4.5381 C   0  0  0  0  0  0  0  0  0  0  0  0
   14.5060   24.3020    3.6869 H   0  0  0  0  0  0  0  0  0  0  0  0
   13.3974   25.8825    4.3982 C   0  0  0  0  0  0  0  0  0  0  0  0
   14.1001   26.5606    4.3010 H   0  0  0  0  0  0  0  0  0  0  0  0
   12.8623   26.0779    5.1949 H   0  0  0  0  0  0  0  0  0  0  0  0
   12.8210   25.8958    3.6039 H   0  0  0  0  0  0  0  0  0  0  0  0
   15.0567   24.4910    5.6810 C   0  0  0  0  0  0  0  0  0  0  0  0
   14.6181   24.7483    6.5203 H   0  0  0  0  0  0  0  0  0  0  0  0
   15.7787   25.1217    5.4842 H   0  0  0  0  0  0  0  0  0  0  0  0
   15.4263   23.5871    5.7710 H   0  0  0  0  0  0  0  0  0  0  0  0
   13.5042   21.5686    4.6069 C   0  0  0  0  0  0  0  0  0  0  0  0
   12.8131   20.9871    4.1777 H   0  0  0  0  0  0  0  0  0  0  0  0
   13.8201   20.9188    5.9536 C   0  0  0  0  0  0  0  0  0  0  0  0
   14.4346   21.4925    6.4563 H   0  0  0  0  0  0  0  0  0  0  0  0
   14.2353   20.0445    5.8066 H   0  0  0  0  0  0  0  0  0  0  0  0
   12.9904   20.8049    6.4634 H   0  0  0  0  0  0  0  0  0  0  0  0
   14.7059   21.5312    3.6798 C   0  0  0  0  0  0  0  0  0  0  0  0
   14.9260   20.6000    3.4664 H   0  0  0  0  0  0  0  0  0  0  0  0
   15.4718   21.9524    4.1208 H   0  0  0  0  0  0  0  0  0  0  0  0
   14.4975   22.0162    2.8523 H   0  0  0  0  0  0  0  0  0  0  0  0
    7.2262   22.7261    7.5384 O   0  0  0  0  0  0  0  0  0  0  0  0
    7.9169   22.7994    4.3112 O   0  0  0  0  0  0  0  0  0  0  0  0
    6.6167   22.2338    6.3780 C   0  0  0  0  0  0  0  0  0  0  0  0
    6.9908   21.3240    6.1907 H   0  0  0  0  0  0  0  0  0  0  0  0
    6.7830   23.1131    5.0811 C   0  0  0  0  0  0  0  0  0  0  0  0
    6.8362   24.0744    5.3538 H   0  0  0  0  0  0  0  0  0  0  0  0
    5.1547   22.0745    6.7764 C   0  0  0  0  0  0  0  0  0  0  0  0
    4.5094   23.0785    7.4663 C   0  0  0  0  0  0  0  0  0  0  0  0
    4.9836   23.8740    7.6750 H   0  0  0  0  0  0  0  0  0  0  0  0
    3.1896   22.9565    7.8623 C   0  0  0  0  0  0  0  0  0  0  0  0
    2.7585   23.6736    8.3128 H   0  0  0  0  0  0  0  0  0  0  0  0
    2.4989   21.7862    7.5967 C   0  0  0  0  0  0  0  0  0  0  0  0
    1.5992   21.6883    7.8813 H   0  0  0  0  0  0  0  0  0  0  0  0
    3.1290   20.7626    6.9115 C   0  0  0  0  0  0  0  0  0  0  0  0
    2.6603   19.9534    6.7337 H   0  0  0  0  0  0  0  0  0  0  0  0
    4.4484   20.9083    6.4776 C   0  0  0  0  0  0  0  0  0  0  0  0
    4.8653   20.2130    5.9821 H   0  0  0  0  0  0  0  0  0  0  0  0
    5.5721   22.9287    4.1825 C   0  0  0  0  0  0  0  0  0  0  0  0
    4.5163   23.8048    4.2133 C   0  0  0  0  0  0  0  0  0  0  0  0
    4.5660   24.5752    4.7681 H   0  0  0  0  0  0  0  0  0  0  0  0
    3.3821   23.5871    3.4475 C   0  0  0  0  0  0  0  0  0  0  0  0
    2.6657   24.2110    3.4664 H   0  0  0  0  0  0  0  0  0  0  0  0
    3.2998   22.4624    2.6603 C   0  0  0  0  0  0  0  0  0  0  0  0
    2.5163   22.2985    2.1505 H   0  0  0  0  0  0  0  0  0  0  0  0
    4.3271   21.5881    2.6081 C   0  0  0  0  0  0  0  0  0  0  0  0
    4.2654   20.8140    2.0557 H   0  0  0  0  0  0  0  0  0  0  0  0
    5.4801   21.8154    3.3621 C   0  0  0  0  0  0  0  0  0  0  0  0
    6.2054   21.2056    3.3147 H   0  0  0  0  0  0  0  0  0  0  0  0
  1 34  1  0  0  0  0
  2  3  1  0  0  0  0
  3  4  4  0  0  0  0
  4  5  1  0  0  0  0
  6  4  4  0  0  0  0
  7  6  1  0  0  0  0
  8  6  4  0  0  0  0
  9  8  1  0  0  0  0
 10  8  4  0  0  0  0
 11 10  1  0  0  0  0
 12  3  4  0  0  0  0
 13 12  1  0  0  0  0
 14 13  1  0  0  0  0
 15 14  4  0  0  0  0
 16 15  1  0  0  0  0
 17 15  4  0  0  0  0
 18 17  1  0  0  0  0
 19 17  4  0  0  0  0
 20 19  1  0  0  0  0
 21 19  4  0  0  0  0
 22 21  1  0  0  0  0
 23  2  1  0  0  0  0
 24  2  1  0  0  0  0
 25 24  4  0  0  0  0
 26 25  4  0  0  0  0
 27 26  1  0  0  0  0
 28 26  4  0  0  0  0
 29 28  1  0  0  0  0
 30 28  4  0  0  0  0
 31 30  1  0  0  0  0
 32 24  4  0  0  0  0
 33 32  1  0  0  0  0
 34 25  1  0  0  0  0
 35 34  1  0  0  0  0
 36 35  1  0  0  0  0
 37 35  1  0  0  0  0
 38 37  1  0  0  0  0
 39 37  1  0  0  0  0
 40 37  1  0  0  0  0
 41 35  1  0  0  0  0
 42 41  1  0  0  0  0
 43 41  1  0  0  0  0
 44 41  1  0  0  0  0
 45 34  1  0  0  0  0
 46 45  1  0  0  0  0
 47 45  1  0  0  0  0
 48 47  1  0  0  0  0
 49 47  1  0  0  0  0
 50 47  1  0  0  0  0
 51 45  1  0  0  0  0
 52 51  1  0  0  0  0
 53 51  1  0  0  0  0
 54 51  1  0  0  0  0
 55 13  1  0  0  0  0
 56 55  4  0  0  0  0
 57 56  4  0  0  0  0
 58 57  1  0  0  0  0
 59 57  4  0  0  0  0
 60 59  1  0  0  0  0
 61 59  4  0  0  0  0
 62 61  1  0  0  0  0
 63 55  4  0  0  0  0
 64 63  1  0  0  0  0
 65  1  1  0  0  0  0
 66 65  1  0  0  0  0
 67 66  1  0  0  0  0
 68 66  1  0  0  0  0
 69 68  1  0  0  0  0
 70 68  1  0  0  0  0
 71 68  1  0  0  0  0
 72 66  1  0  0  0  0
 73 72  1  0  0  0  0
 74 72  1  0  0  0  0
 75 72  1  0  0  0  0
 76 65  1  0  0  0  0
 77 76  1  0  0  0  0
 78 76  1  0  0  0  0
 79 78  1  0  0  0  0
 80 78  1  0  0  0  0
 81 78  1  0  0  0  0
 82 76  1  0  0  0  0
 83 82  1  0  0  0  0
 84 82  1  0  0  0  0
 85 82  1  0  0  0  0
 86  2  1  0  0  0  0
 87 13  1  0  0  0  0
 88 86  1  0  0  0  0
 89 88  1  0  0  0  0
 90 87  1  0  0  0  0
 91 90  1  0  0  0  0
 92 88  1  0  0  0  0
 93 92  4  0  0  0  0
 94 93  1  0  0  0  0
 95 93  4  0  0  0  0
 96 95  1  0  0  0  0
 97 95  4  0  0  0  0
 98 97  1  0  0  0  0
 99 97  4  0  0  0  0
100 99  1  0  0  0  0
101 92  4  0  0  0  0
102101  1  0  0  0  0
103 90  1  0  0  0  0
104103  4  0  0  0  0
105104  1  0  0  0  0
106104  4  0  0  0  0
107106  1  0  0  0  0
108106  4  0  0  0  0
109108  1  0  0  0  0
110108  4  0  0  0  0
111110  1  0  0  0  0
112103  4  0  0  0  0
113112  1  0  0  0  0
 10 12  4  0  0  0  0
 14 23  4  0  0  0  0
 21 23  4  0  0  0  0
 30 32  4  0  0  0  0
 56 65  1  0  0  0  0
 61 63  4  0  0  0  0
 88 90  1  0  0  0  0
 99101  4  0  0  0  0
110112  4  0  0  0  0
M  CHG  1   2  -1
M  END
$$$$
WUFDAF

From CSD data. Using bond type 'Any'. No disordered atoms. Largest molecule.
 99106  0  0  0  0  0  0  0  0999 V2000
    6.7558   -4.8997   13.6787 Au  0  0  0  0  0  0  0  0  0  0  0  0
    4.9517   -3.3601   17.3648 O   0  0  0  0  0  0  0  0  0  0  0  0
    6.0832   -2.4218   17.4072 C   0  0  0  0  0  0  0  0  0  0  0  0
    5.7168   -1.4949   17.3289 H   0  0  0  0  0  0  0  0  0  0  0  0
    6.7676   -2.5379   18.7492 C   0  0  0  0  0  0  0  0  0  0  0  0
    6.9880   -3.7488   19.3873 C   0  0  0  0  0  0  0  0  0  0  0  0
    6.6480   -4.5460   18.9962 H   0  0  0  0  0  0  0  0  0  0  0  0
    7.6968   -3.8264   20.5852 C   0  0  0  0  0  0  0  0  0  0  0  0
    7.8531   -4.6687   20.9969 H   0  0  0  0  0  0  0  0  0  0  0  0
    8.1669   -2.6744   21.1656 C   0  0  0  0  0  0  0  0  0  0  0  0
    8.6456   -2.7356   21.9849 H   0  0  0  0  0  0  0  0  0  0  0  0
    7.9693   -1.4402   20.6058 C   0  0  0  0  0  0  0  0  0  0  0  0
    8.3059   -0.6520   21.0154 H   0  0  0  0  0  0  0  0  0  0  0  0
    7.2411   -1.3827   19.3831 C   0  0  0  0  0  0  0  0  0  0  0  0
    7.0704   -0.5367   18.9859 H   0  0  0  0  0  0  0  0  0  0  0  0
    4.9104   -4.2745   16.1145 B   0  0  0  0  0  0  0  0  0  0  0  0
    4.8738   -3.2318   14.8898 C   0  0  0  0  0  0  0  0  0  0  0  0
    3.7643   -2.8994   14.0809 C   0  0  0  0  0  0  0  0  0  0  0  0
    2.9841   -3.4406   14.1118 H   0  0  0  0  0  0  0  0  0  0  0  0
    3.7944   -1.8091   13.2494 C   0  0  0  0  0  0  0  0  0  0  0  0
    3.0520   -1.6231   12.6875 H   0  0  0  0  0  0  0  0  0  0  0  0
    4.9038   -0.9764   13.2247 C   0  0  0  0  0  0  0  0  0  0  0  0
    4.9184   -0.2165   12.6525 H   0  0  0  0  0  0  0  0  0  0  0  0
    5.9943   -1.2605   14.0439 C   0  0  0  0  0  0  0  0  0  0  0  0
    6.7466   -0.6793   14.0398 H   0  0  0  0  0  0  0  0  0  0  0  0
    5.9980   -2.3913   14.8693 C   0  0  0  0  0  0  0  0  0  0  0  0
    7.1066   -2.7033   16.0446 B   0  5  0  0  0  0  0  0  0  0  0  0
    7.4420   -4.2496   16.2977 C   0  0  0  0  0  0  0  0  0  0  0  0
    8.6598   -4.7667   16.7650 C   0  0  0  0  0  0  0  0  0  0  0  0
    9.4133   -4.1907   16.8164 H   0  0  0  0  0  0  0  0  0  0  0  0
    8.7992   -6.0868   17.1540 C   0  0  0  0  0  0  0  0  0  0  0  0
    9.6407   -6.4100   17.4524 H   0  0  0  0  0  0  0  0  0  0  0  0
    7.7114   -6.9298   17.1046 C   0  0  0  0  0  0  0  0  0  0  0  0
    7.8030   -7.8419   17.3516 H   0  0  0  0  0  0  0  0  0  0  0  0
    6.4686   -6.4353   16.6868 C   0  0  0  0  0  0  0  0  0  0  0  0
    5.7177   -7.0158   16.6744 H   0  0  0  0  0  0  0  0  0  0  0  0
    6.3104   -5.1122   16.2916 C   0  0  0  0  0  0  0  0  0  0  0  0
    3.6897   -5.3177   15.9972 C   0  0  0  0  0  0  0  0  0  0  0  0
    3.6241   -6.2293   14.8898 C   0  0  0  0  0  0  0  0  0  0  0  0
    2.6015   -7.1751   14.8281 C   0  0  0  0  0  0  0  0  0  0  0  0
    2.5891   -7.7955   14.1077 H   0  0  0  0  0  0  0  0  0  0  0  0
    1.6095   -7.2312   15.7770 C   0  0  0  0  0  0  0  0  0  0  0  0
    0.9241   -7.8864   15.7152 H   0  0  0  0  0  0  0  0  0  0  0  0
    1.6191   -6.3220   16.8329 C   0  0  0  0  0  0  0  0  0  0  0  0
    0.9270   -6.3341   17.4833 H   0  0  0  0  0  0  0  0  0  0  0  0
    2.6541   -5.3950   16.9255 C   0  0  0  0  0  0  0  0  0  0  0  0
    2.6537   -4.7859   17.6542 H   0  0  0  0  0  0  0  0  0  0  0  0
    8.7736   -3.7507   13.4618 P   0  0  0  0  0  0  0  0  0  0  0  0
    3.7696   -5.5399   12.0432 C   0  0  0  0  0  0  0  0  0  0  0  0
    3.1361   -4.8781   12.4425 H   0  0  0  0  0  0  0  0  0  0  0  0
    2.8982   -6.5893   11.3557 C   0  0  0  0  0  0  0  0  0  0  0  0
    2.2807   -6.1466   10.7362 H   0  0  0  0  0  0  0  0  0  0  0  0
    2.3853   -7.0819   12.0308 H   0  0  0  0  0  0  0  0  0  0  0  0
    3.4684   -7.2141   10.8597 H   0  0  0  0  0  0  0  0  0  0  0  0
    4.6080   -4.7576   11.0429 C   0  0  0  0  0  0  0  0  0  0  0  0
    4.0182   -4.3250   10.3904 H   0  0  0  0  0  0  0  0  0  0  0  0
    5.2170   -5.3697   10.5797 H   0  0  0  0  0  0  0  0  0  0  0  0
    5.1287   -4.0754   11.5163 H   0  0  0  0  0  0  0  0  0  0  0  0
    5.1678   -7.9545   13.0477 C   0  0  0  0  0  0  0  0  0  0  0  0
    4.3126   -8.3797   12.7513 H   0  0  0  0  0  0  0  0  0  0  0  0
    5.6904   -8.7378   14.2600 C   0  0  0  0  0  0  0  0  0  0  0  0
    5.9038   -9.6556   13.9904 H   0  0  0  0  0  0  0  0  0  0  0  0
    5.0039   -8.7545   14.9598 H   0  0  0  0  0  0  0  0  0  0  0  0
    6.4985   -8.3032   14.6058 H   0  0  0  0  0  0  0  0  0  0  0  0
    6.1475   -8.0225   11.8991 C   0  0  0  0  0  0  0  0  0  0  0  0
    6.3473   -8.9598   11.6953 H   0  0  0  0  0  0  0  0  0  0  0  0
    6.9743   -7.5587   12.1482 H   0  0  0  0  0  0  0  0  0  0  0  0
    5.7566   -7.5921   11.1108 H   0  0  0  0  0  0  0  0  0  0  0  0
    8.3964   -1.8512   15.6391 C   0  0  0  0  0  0  0  0  0  0  0  0
    9.1192   -2.2081   14.4473 C   0  0  0  0  0  0  0  0  0  0  0  0
   10.1144   -1.3729   13.9595 C   0  0  0  0  0  0  0  0  0  0  0  0
   10.5841   -1.6229   13.1732 H   0  0  0  0  0  0  0  0  0  0  0  0
   10.4380   -0.1942   14.5873 C   0  0  0  0  0  0  0  0  0  0  0  0
   11.1241    0.3595   14.2332 H   0  0  0  0  0  0  0  0  0  0  0  0
    9.7705    0.1852   15.7255 C   0  0  0  0  0  0  0  0  0  0  0  0
    9.9876    1.0011   16.1598 H   0  0  0  0  0  0  0  0  0  0  0  0
    8.7755   -0.6418   16.2298 C   0  0  0  0  0  0  0  0  0  0  0  0
    8.3257   -0.3704   17.0223 H   0  0  0  0  0  0  0  0  0  0  0  0
    4.8141   -6.1772   13.4694 P   0  0  0  0  0  0  0  0  0  0  0  0
    8.9941   -3.2397   11.6892 C   0  0  0  0  0  0  0  0  0  0  0  0
    9.9149   -2.8712   11.5698 H   0  0  0  0  0  0  0  0  0  0  0  0
    7.9766   -2.1611   11.3310 C   0  0  0  0  0  0  0  0  0  0  0  0
    8.0644   -1.9328   10.3842 H   0  0  0  0  0  0  0  0  0  0  0  0
    8.1399   -1.3649   11.8785 H   0  0  0  0  0  0  0  0  0  0  0  0
    7.0713   -2.4958   11.5039 H   0  0  0  0  0  0  0  0  0  0  0  0
    8.8148   -4.4631   10.7650 C   0  0  0  0  0  0  0  0  0  0  0  0
    8.8211   -4.1703    9.8305 H   0  0  0  0  0  0  0  0  0  0  0  0
    7.9617   -4.9012   10.9646 H   0  0  0  0  0  0  0  0  0  0  0  0
    9.5494   -5.0944   10.9132 H   0  0  0  0  0  0  0  0  0  0  0  0
   10.2252   -4.8571   13.8627 C   0  0  0  0  0  0  0  0  0  0  0  0
   10.3760   -4.7551   14.8466 H   0  0  0  0  0  0  0  0  0  0  0  0
    9.8939   -6.3253   13.6528 C   0  0  0  0  0  0  0  0  0  0  0  0
   10.6384   -6.8765   13.9698 H   0  0  0  0  0  0  0  0  0  0  0  0
    9.7455   -6.4934   12.6998 H   0  0  0  0  0  0  0  0  0  0  0  0
    9.0834   -6.5525   14.1550 H   0  0  0  0  0  0  0  0  0  0  0  0
   11.5490   -4.4823   13.2061 C   0  0  0  0  0  0  0  0  0  0  0  0
   12.2700   -5.0247   13.5890 H   0  0  0  0  0  0  0  0  0  0  0  0
   11.7352   -3.5324   13.3646 H   0  0  0  0  0  0  0  0  0  0  0  0
   11.4938   -4.6470   12.2408 H   0  0  0  0  0  0  0  0  0  0  0  0
  1 48  1  0  0  0  0
  2  3  1  0  0  0  0
  3  4  1  0  0  0  0
  5  3  1  0  0  0  0
  6  5  4  0  0  0  0
  7  6  1  0  0  0  0
  8  6  4  0  0  0  0
  9  8  1  0  0  0  0
 10  8  4  0  0  0  0
 11 10  1  0  0  0  0
 12 10  4  0  0  0  0
 13 12  1  0  0  0  0
 14  5  4  0  0  0  0
 15 14  1  0  0  0  0
 16  2  1  0  0  0  0
 17 16  1  0  0  0  0
 18 17  4  0  0  0  0
 19 18  1  0  0  0  0
 20 18  4  0  0  0  0
 21 20  1  0  0  0  0
 22 20  4  0  0  0  0
 23 22  1  0  0  0  0
 24 22  4  0  0  0  0
 25 24  1  0  0  0  0
 26 17  4  0  0  0  0
 27  3  1  0  0  0  0
 28 27  1  0  0  0  0
 29 28  4  0  0  0  0
 30 29  1  0  0  0  0
 31 29  4  0  0  0  0
 32 31  1  0  0  0  0
 33 31  4  0  0  0  0
 34 33  1  0  0  0  0
 35 33  4  0  0  0  0
 36 35  1  0  0  0  0
 37 16  1  0  0  0  0
 38 16  1  0  0  0  0
 39 38  4  0  0  0  0
 40 39  4  0  0  0  0
 41 40  1  0  0  0  0
 42 40  4  0  0  0  0
 43 42  1  0  0  0  0
 44 42  4  0  0  0  0
 45 44  1  0  0  0  0
 46 38  4  0  0  0  0
 47 46  1  0  0  0  0
 48 70  1  0  0  0  0
 49 50  1  0  0  0  0
 51 49  1  0  0  0  0
 52 51  1  0  0  0  0
 53 51  1  0  0  0  0
 54 51  1  0  0  0  0
 55 49  1  0  0  0  0
 56 55  1  0  0  0  0
 57 55  1  0  0  0  0
 58 55  1  0  0  0  0
 59 60  1  0  0  0  0
 61 59  1  0  0  0  0
 62 61  1  0  0  0  0
 63 61  1  0  0  0  0
 64 61  1  0  0  0  0
 65 59  1  0  0  0  0
 66 65  1  0  0  0  0
 67 65  1  0  0  0  0
 68 65  1  0  0  0  0
 69 27  1  0  0  0  0
 70 69  4  0  0  0  0
 71 70  4  0  0  0  0
 72 71  1  0  0  0  0
 73 71  4  0  0  0  0
 74 73  1  0  0  0  0
 75 73  4  0  0  0  0
 76 75  1  0  0  0  0
 77 69  4  0  0  0  0
 78 77  1  0  0  0  0
 79  1  1  0  0  0  0
 80 48  1  0  0  0  0
 81 80  1  0  0  0  0
 82 80  1  0  0  0  0
 83 82  1  0  0  0  0
 84 82  1  0  0  0  0
 85 82  1  0  0  0  0
 86 80  1  0  0  0  0
 87 86  1  0  0  0  0
 88 86  1  0  0  0  0
 89 86  1  0  0  0  0
 90 48  1  0  0  0  0
 91 90  1  0  0  0  0
 92 90  1  0  0  0  0
 93 92  1  0  0  0  0
 94 92  1  0  0  0  0
 95 92  1  0  0  0  0
 96 90  1  0  0  0  0
 97 96  1  0  0  0  0
 98 96  1  0  0  0  0
 99 96  1  0  0  0  0
 12 14  4  0  0  0  0
 24 26  4  0  0  0  0
 26 27  1  0  0  0  0
 28 37  4  0  0  0  0
 35 37  4  0  0  0  0
 39 79  1  0  0  0  0
 44 46  4  0  0  0  0
 49 79  1  0  0  0  0
 59 79  1  0  0  0  0
 75 77  4  0  0  0  0
M  CHG  1  27  -1
M  END
$$$$
WUFHIR

From CSD data. Using bond type 'Any'. No disordered atoms. Largest molecule.
106114  0  0  0  0  0  0  0  0999 V2000
    6.6499   13.6360   13.9525 Ca  0  0  0  0  0  0  0  0  0  0  0  0
    5.4837   10.5963   13.1553 P   0  0  0  0  0  0  0  0  0  0  0  0
    5.8505   16.2878   12.0524 P   0  0  0  0  0  0  0  0  0  0  0  0
    8.7871   13.4214   12.8951 O   0  0  0  0  0  0  0  0  0  0  0  0
    8.0164   13.9576   15.9735 O   0  0  0  0  0  0  0  0  0  0  0  0
    8.6285   12.9413   16.8060 C   0  0  0  0  0  0  0  0  0  0  0  0
    9.5121   12.7165   16.4745 H   0  0  0  0  0  0  0  0  0  0  0  0
    8.0871   12.1368   16.8157 H   0  0  0  0  0  0  0  0  0  0  0  0
    5.7767    7.9150   12.3117 C   0  0  0  0  0  0  0  0  0  0  0  0
    5.2627    7.6843   13.0524 H   0  0  0  0  0  0  0  0  0  0  0  0
    6.8066   16.7408   10.5606 C   0  0  0  0  0  0  0  0  0  0  0  0
    6.3021    6.9155   11.4978 C   0  0  0  0  0  0  0  0  0  0  0  0
    6.1403    6.0215   11.6959 H   0  0  0  0  0  0  0  0  0  0  0  0
    8.4892   17.3600    8.4173 C   0  0  0  0  0  0  0  0  0  0  0  0
    9.0563   17.5822    7.7146 H   0  0  0  0  0  0  0  0  0  0  0  0
    6.6793   10.6697   14.6586 B   0  0  0  0  0  0  0  0  0  0  0  0
    6.7917    9.5864   10.9156 C   0  0  0  0  0  0  0  0  0  0  0  0
    6.9660   10.4790   10.7189 H   0  0  0  0  0  0  0  0  0  0  0  0
    2.8343    9.5892   12.7916 C   0  0  0  0  0  0  0  0  0  0  0  0
    3.1008    9.2677   11.9605 H   0  0  0  0  0  0  0  0  0  0  0  0
    8.5678   14.9883   18.0290 C   0  0  0  0  0  0  0  0  0  0  0  0
    9.3718   15.4415   18.3270 H   0  0  0  0  0  0  0  0  0  0  0  0
    7.8180   15.3064   18.5550 H   0  0  0  0  0  0  0  0  0  0  0  0
    4.3546   17.3312   11.9769 C   0  0  0  0  0  0  0  0  0  0  0  0
    3.7675   10.1826   13.6366 C   0  0  0  0  0  0  0  0  0  0  0  0
    3.7567   12.2304    9.2058 C   0  0  0  0  0  0  0  0  0  0  0  0
    3.3550   11.6669    8.5851 H   0  0  0  0  0  0  0  0  0  0  0  0
    4.9563   13.9258   11.1049 C   0  0  0  0  0  0  0  0  0  0  0  0
    5.5433   14.6970   12.1193 N   0  0  0  0  0  0  0  0  0  0  0  0
    2.0163   10.4841   15.2921 C   0  0  0  0  0  0  0  0  0  0  0  0
    1.7501   10.7725   16.1349 H   0  0  0  0  0  0  0  0  0  0  0  0
    4.2988   11.7061   10.3770 C   0  0  0  0  0  0  0  0  0  0  0  0
    4.2451   10.7906   10.5291 H   0  0  0  0  0  0  0  0  0  0  0  0
    8.9439   12.5919   11.7147 C   0  0  0  0  0  0  0  0  0  0  0  0
    8.2730   12.8118   11.0501 H   0  0  0  0  0  0  0  0  0  0  0  0
    8.8608   11.6529   11.9422 H   0  0  0  0  0  0  0  0  0  0  0  0
   10.0913   13.8804   13.3182 C   0  0  0  0  0  0  0  0  0  0  0  0
   10.2339   13.6734   14.2541 H   0  0  0  0  0  0  0  0  0  0  0  0
   10.1661   14.8399   13.1989 H   0  0  0  0  0  0  0  0  0  0  0  0
    1.4996    9.4745   13.1856 C   0  0  0  0  0  0  0  0  0  0  0  0
    0.8767    9.1005   12.6047 H   0  0  0  0  0  0  0  0  0  0  0  0
    4.9143   13.9886   15.5903 O   0  0  0  0  0  0  0  0  0  0  0  0
    1.9568   17.5978   11.9010 C   0  0  0  0  0  0  0  0  0  0  0  0
    1.1085   17.2187   11.8507 H   0  0  0  0  0  0  0  0  0  0  0  0
    3.3474   19.5181   12.0568 C   0  0  0  0  0  0  0  0  0  0  0  0
    3.4406   20.4413   12.1120 H   0  0  0  0  0  0  0  0  0  0  0  0
    7.0673    7.2527   10.3932 C   0  0  0  0  0  0  0  0  0  0  0  0
    7.4178    6.5862    9.8484 H   0  0  0  0  0  0  0  0  0  0  0  0
    7.3075    8.5858   10.1027 C   0  0  0  0  0  0  0  0  0  0  0  0
    7.8167    8.8114    9.3591 H   0  0  0  0  0  0  0  0  0  0  0  0
    6.4066   17.6495    9.5904 C   0  0  0  0  0  0  0  0  0  0  0  0
    5.5709   18.0527    9.6503 H   0  0  0  0  0  0  0  0  0  0  0  0
    4.8983   13.7641   17.0122 C   0  0  0  0  0  0  0  0  0  0  0  0
    5.4257   14.4395   17.4665 H   0  0  0  0  0  0  0  0  0  0  0  0
    5.2657   12.8913   17.2201 H   0  0  0  0  0  0  0  0  0  0  0  0
    5.5588   12.0738   12.4958 N   0  0  0  0  0  0  0  0  0  0  0  0
    4.9208   12.5177   11.3291 C   0  0  0  0  0  0  0  0  0  0  0  0
    4.4135   14.4249    9.9165 C   0  0  0  0  0  0  0  0  0  0  0  0
    4.4493   15.3402    9.7535 H   0  0  0  0  0  0  0  0  0  0  0  0
    6.0140    9.2595   12.0255 C   0  0  0  0  0  0  0  0  0  0  0  0
    8.0511   16.1278   10.4303 C   0  0  0  0  0  0  0  0  0  0  0  0
    8.3283   15.5127   11.0701 H   0  0  0  0  0  0  0  0  0  0  0  0
    7.2527   17.9596    8.5280 C   0  0  0  0  0  0  0  0  0  0  0  0
    6.9804   18.5765    7.8877 H   0  0  0  0  0  0  0  0  0  0  0  0
    8.7162   13.5256   18.1665 C   0  0  0  0  0  0  0  0  0  0  0  0
    8.0120   13.1680   18.7314 H   0  0  0  0  0  0  0  0  0  0  0  0
    9.5721   13.3111   18.5700 H   0  0  0  0  0  0  0  0  0  0  0  0
    3.8203   13.5910    8.9699 C   0  0  0  0  0  0  0  0  0  0  0  0
    3.4696   13.9468    8.1856 H   0  0  0  0  0  0  0  0  0  0  0  0
    4.4752   18.7107   12.0609 C   0  0  0  0  0  0  0  0  0  0  0  0
    5.3191   19.0972   12.1203 H   0  0  0  0  0  0  0  0  0  0  0  0
    8.3313   15.2381   16.5600 C   0  0  0  0  0  0  0  0  0  0  0  0
    7.5949   15.8569   16.4362 H   0  0  0  0  0  0  0  0  0  0  0  0
    9.1251   15.6137   16.1482 H   0  0  0  0  0  0  0  0  0  0  0  0
    2.0931   18.9652   11.9709 C   0  0  0  0  0  0  0  0  0  0  0  0
    1.3401   19.5122   11.9605 H   0  0  0  0  0  0  0  0  0  0  0  0
    3.0839   16.7774   11.9048 C   0  0  0  0  0  0  0  0  0  0  0  0
    2.9843   15.8544   11.8590 H   0  0  0  0  0  0  0  0  0  0  0  0
    1.0964    9.9147   14.4357 C   0  0  0  0  0  0  0  0  0  0  0  0
    0.2078    9.8269   14.6969 H   0  0  0  0  0  0  0  0  0  0  0  0
    3.4755   13.8426   17.4413 C   0  0  0  0  0  0  0  0  0  0  0  0
    3.3970   14.1947   18.3419 H   0  0  0  0  0  0  0  0  0  0  0  0
    3.0451   12.9746   17.3982 H   0  0  0  0  0  0  0  0  0  0  0  0
    3.6542   14.5630   15.2002 C   0  0  0  0  0  0  0  0  0  0  0  0
    3.1733   13.9537   14.6186 H   0  0  0  0  0  0  0  0  0  0  0  0
    3.7985   15.3963   14.7235 H   0  0  0  0  0  0  0  0  0  0  0  0
    3.3454   10.6270   14.8941 C   0  0  0  0  0  0  0  0  0  0  0  0
    3.9590   11.0222   15.4708 H   0  0  0  0  0  0  0  0  0  0  0  0
    2.8927   14.8054   16.4145 C   0  0  0  0  0  0  0  0  0  0  0  0
    1.9496   14.6249   16.2697 H   0  0  0  0  0  0  0  0  0  0  0  0
    2.9953   15.7252   16.7075 H   0  0  0  0  0  0  0  0  0  0  0  0
    6.8557   16.6927   13.6443 B   0  0  0  0  0  0  0  0  0  0  0  0
   10.3285   12.8938   11.1952 C   0  0  0  0  0  0  0  0  0  0  0  0
   10.3233   13.6692   10.6124 H   0  0  0  0  0  0  0  0  0  0  0  0
   10.6974   12.1362   10.7156 H   0  0  0  0  0  0  0  0  0  0  0  0
   11.1019   13.1688   12.4660 C   0  0  0  0  0  0  0  0  0  0  0  0
   11.3953   12.3443   12.8843 H   0  0  0  0  0  0  0  0  0  0  0  0
   11.8740   13.7302   12.2934 H   0  0  0  0  0  0  0  0  0  0  0  0
    8.8807   16.4240    9.3596 C   0  0  0  0  0  0  0  0  0  0  0  0
    9.7008   15.9933    9.2742 H   0  0  0  0  0  0  0  0  0  0  0  0
    6.2921   11.4016   15.3560 H   0  0  0  0  0  0  0  0  0  0  0  0
    7.6448   10.9309   14.2092 H   0  0  0  0  0  0  0  0  0  0  0  0
    7.1353   17.7593   13.6449 H   0  0  0  0  0  0  0  0  0  0  0  0
    6.7820    9.6973   15.1529 H   0  0  0  0  0  0  0  0  0  0  0  0
    6.1648   16.4181   14.4638 H   0  0  0  0  0  0  0  0  0  0  0  0
    7.7503   16.0576   13.5817 H   0  0  0  0  0  0  0  0  0  0  0  0
  1  4  1  0  0  0  0
  2 16  1  0  0  0  0
  3 11  1  0  0  0  0
  4 34  1  0  0  0  0
  5  1  1  0  0  0  0
  6  5  1  0  0  0  0
  7  6  1  0  0  0  0
  8  6  1  0  0  0  0
  9 10  1  0  0  0  0
 11 51  4  0  0  0  0
 12  9  4  0  0  0  0
 13 12  1  0  0  0  0
 14 15  1  0  0  0  0
 16101  1  0  0  0  0
 17 18  1  0  0  0  0
 19 20  1  0  0  0  0
 21 22  1  0  0  0  0
 23 21  1  0  0  0  0
 24  3  1  0  0  0  0
 25  2  1  0  0  0  0
 26 27  1  0  0  0  0
 28 29  1  0  0  0  0
 29  1  1  0  0  0  0
 30 31  1  0  0  0  0
 32 26  4  0  0  0  0
 33 32  1  0  0  0  0
 34 35  1  0  0  0  0
 36 34  1  0  0  0  0
 37  4  1  0  0  0  0
 38 37  1  0  0  0  0
 39 37  1  0  0  0  0
 40 19  4  0  0  0  0
 41 40  1  0  0  0  0
 42  1  1  0  0  0  0
 43 44  1  0  0  0  0
 45 46  1  0  0  0  0
 47 12  4  0  0  0  0
 48 47  1  0  0  0  0
 49 17  4  0  0  0  0
 50 49  1  0  0  0  0
 51 52  1  0  0  0  0
 53 42  1  0  0  0  0
 54 53  1  0  0  0  0
 55 53  1  0  0  0  0
 56  1  1  0  0  0  0
 57 28  4  0  0  0  0
 58 28  4  0  0  0  0
 59 58  1  0  0  0  0
 60  2  1  0  0  0  0
 61 11  4  0  0  0  0
 62 61  1  0  0  0  0
 63 14  4  0  0  0  0
 64 63  1  0  0  0  0
 65  6  1  0  0  0  0
 66 65  1  0  0  0  0
 67 65  1  0  0  0  0
 68 26  4  0  0  0  0
 69 68  1  0  0  0  0
 70 24  4  0  0  0  0
 71 70  1  0  0  0  0
 72  5  1  0  0  0  0
 73 72  1  0  0  0  0
 74 72  1  0  0  0  0
 75 43  4  0  0  0  0
 76 75  1  0  0  0  0
 77 24  4  0  0  0  0
 78 77  1  0  0  0  0
 79 30  4  0  0  0  0
 80 79  1  0  0  0  0
 81 53  1  0  0  0  0
 82 81  1  0  0  0  0
 83 81  1  0  0  0  0
 84 42  1  0  0  0  0
 85 84  1  0  0  0  0
 86 84  1  0  0  0  0
 87 25  4  0  0  0  0
 88 87  1  0  0  0  0
 89 81  1  0  0  0  0
 90 89  1  0  0  0  0
 91 89  1  0  0  0  0
 92  3  1  0  0  0  0
 93 34  1  0  0  0  0
 94 93  1  0  0  0  0
 95 93  1  0  0  0  0
 96 37  1  0  0  0  0
 97 96  1  0  0  0  0
 98 96  1  0  0  0  0
 99 14  4  0  0  0  0
100 99  1  0  0  0  0
102 16  1  0  0  0  0
103 92  1  0  0  0  0
104 16  1  0  0  0  0
105 92  1  0  0  0  0
106 92  1  0  0  0  0
  2 56  2  0  0  0  0
  3 29  2  0  0  0  0
  9 60  4  0  0  0  0
 17 60  4  0  0  0  0
 19 25  4  0  0  0  0
 21 65  1  0  0  0  0
 21 72  1  0  0  0  0
 30 87  4  0  0  0  0
 32 57  4  0  0  0  0
 40 79  4  0  0  0  0
 43 77  4  0  0  0  0
 45 70  4  0  0  0  0
 45 75  4  0  0  0  0
 47 49  4  0  0  0  0
 51 63  4  0  0  0  0
 56 57  1  0  0  0  0
 58 68  4  0  0  0  0
 61 99  4  0  0  0  0
 84 89  1  0  0  0  0
 93 96  1  0  0  0  0
M  END
$$$$
WUFHOX

From CSD data. Using bond type 'Any'. Matching problem. No disordered atoms. Largest molecule.
106114  0  0  0  0  0  0  0  0999 V2000
    7.4364    3.2113    2.6384 Sr  0  0  0  0  0  0  0  0  0  0  0  0
    8.2986    0.5773    4.6803 P   0  0  0  0  0  0  0  0  0  0  0  0
    8.6631    6.2848    3.5552 P   0  0  0  0  0  0  0  0  0  0  0  0
    5.1671    3.4183    3.7408 O   0  0  0  0  0  0  0  0  0  0  0  0
    6.0036    2.9025    0.5096 O   0  0  0  0  0  0  0  0  0  0  0  0
    9.2269    2.8035    0.8536 O   0  0  0  0  0  0  0  0  0  0  0  0
    8.6110    2.1657    4.6139 N   0  0  0  0  0  0  0  0  0  0  0  0
    8.5928    4.8078    4.2195 N   0  0  0  0  0  0  0  0  0  0  0  0
    7.2969    0.1419    3.0899 B   0  0  0  0  0  0  0  0  0  0  0  0
    7.4855    6.2508    2.0282 B   0  0  0  0  0  0  0  0  0  0  0  0
    9.1702    2.9571    5.6327 C   0  0  0  0  0  0  0  0  0  0  0  0
    9.2052    4.3611    5.3983 C   0  0  0  0  0  0  0  0  0  0  0  0
    9.7915    5.1839    6.3669 C   0  0  0  0  0  0  0  0  0  0  0  0
    9.8382    6.1006    6.2182 H   0  0  0  0  0  0  0  0  0  0  0  0
   10.3078    4.6538    7.5550 C   0  0  0  0  0  0  0  0  0  0  0  0
   10.6950    5.2185    8.1845 H   0  0  0  0  0  0  0  0  0  0  0  0
   10.2455    3.3012    7.7958 C   0  0  0  0  0  0  0  0  0  0  0  0
   10.5725    2.9514    8.5925 H   0  0  0  0  0  0  0  0  0  0  0  0
    9.6892    2.4591    6.8391 C   0  0  0  0  0  0  0  0  0  0  0  0
    9.6602    1.5439    7.0024 H   0  0  0  0  0  0  0  0  0  0  0  0
    7.3338    0.1126    6.1621 C   0  0  0  0  0  0  0  0  0  0  0  0
    7.7485   -0.7753    7.1487 C   0  0  0  0  0  0  0  0  0  0  0  0
    8.5924   -1.1616    7.0960 H   0  0  0  0  0  0  0  0  0  0  0  0
    6.9103   -1.0895    8.2118 C   0  0  0  0  0  0  0  0  0  0  0  0
    7.1938   -1.6899    8.8634 H   0  0  0  0  0  0  0  0  0  0  0  0
    5.6591   -0.5127    8.3049 C   0  0  0  0  0  0  0  0  0  0  0  0
    5.0962   -0.7342    9.0122 H   0  0  0  0  0  0  0  0  0  0  0  0
    5.2416    0.3984    7.3468 C   0  0  0  0  0  0  0  0  0  0  0  0
    4.4089    0.8062    7.4187 H   0  0  0  0  0  0  0  0  0  0  0  0
    6.0761    0.6968    6.2784 C   0  0  0  0  0  0  0  0  0  0  0  0
    5.7892    1.2977    5.6297 H   0  0  0  0  0  0  0  0  0  0  0  0
    9.7971   -0.4617    4.7642 C   0  0  0  0  0  0  0  0  0  0  0  0
    9.6914   -1.8497    4.6850 C   0  0  0  0  0  0  0  0  0  0  0  0
    8.8529   -2.2466    4.6131 H   0  0  0  0  0  0  0  0  0  0  0  0
   10.8279   -2.6400    4.7151 C   0  0  0  0  0  0  0  0  0  0  0  0
   10.7468   -3.5656    4.6699 H   0  0  0  0  0  0  0  0  0  0  0  0
   12.0683   -2.0698    4.8087 C   0  0  0  0  0  0  0  0  0  0  0  0
   12.8262   -2.6082    4.8271 H   0  0  0  0  0  0  0  0  0  0  0  0
   12.1918   -0.7089    4.8739 C   0  0  0  0  0  0  0  0  0  0  0  0
   13.0362   -0.3245    4.9375 H   0  0  0  0  0  0  0  0  0  0  0  0
   11.0569    0.1050    4.8472 C   0  0  0  0  0  0  0  0  0  0  0  0
   11.1474    1.0293    4.8856 H   0  0  0  0  0  0  0  0  0  0  0  0
   10.3724    6.7144    3.0733 C   0  0  0  0  0  0  0  0  0  0  0  0
   10.8019    6.3047    1.8101 C   0  0  0  0  0  0  0  0  0  0  0  0
   10.1908    5.9298    1.2172 H   0  0  0  0  0  0  0  0  0  0  0  0
   12.1284    6.4487    1.4262 C   0  0  0  0  0  0  0  0  0  0  0  0
   12.3949    6.1833    0.5752 H   0  0  0  0  0  0  0  0  0  0  0  0
   13.0582    6.9830    2.3040 C   0  0  0  0  0  0  0  0  0  0  0  0
   13.9492    7.0649    2.0499 H   0  0  0  0  0  0  0  0  0  0  0  0
   12.6505    7.3945    3.5564 C   0  0  0  0  0  0  0  0  0  0  0  0
   13.2700    7.7520    4.1499 H   0  0  0  0  0  0  0  0  0  0  0  0
   11.3079    7.2761    3.9393 C   0  0  0  0  0  0  0  0  0  0  0  0
   11.0393    7.5756    4.7786 H   0  0  0  0  0  0  0  0  0  0  0  0
    8.1083    7.6103    4.6810 C   0  0  0  0  0  0  0  0  0  0  0  0
    8.3696    8.9625    4.4449 C   0  0  0  0  0  0  0  0  0  0  0  0
    8.9086    9.2049    3.7269 H   0  0  0  0  0  0  0  0  0  0  0  0
    7.8399    9.9444    5.2618 C   0  0  0  0  0  0  0  0  0  0  0  0
    8.0209   10.8409    5.0930 H   0  0  0  0  0  0  0  0  0  0  0  0
    7.0376    9.5835    6.3353 C   0  0  0  0  0  0  0  0  0  0  0  0
    6.6815   10.2388    6.8904 H   0  0  0  0  0  0  0  0  0  0  0  0
    6.7653    8.2515    6.5777 C   0  0  0  0  0  0  0  0  0  0  0  0
    6.2285    8.0140    7.3000 H   0  0  0  0  0  0  0  0  0  0  0  0
    7.2857    7.2631    5.7554 C   0  0  0  0  0  0  0  0  0  0  0  0
    7.0870    6.3696    5.9189 H   0  0  0  0  0  0  0  0  0  0  0  0
    4.9677    4.1828    4.9442 C   0  0  0  0  0  0  0  0  0  0  0  0
    5.0470    5.1324    4.7636 H   0  0  0  0  0  0  0  0  0  0  0  0
    5.6200    3.9374    5.6197 H   0  0  0  0  0  0  0  0  0  0  0  0
    3.5589    3.8383    5.4073 C   0  0  0  0  0  0  0  0  0  0  0  0
    3.5479    3.0235    5.9323 H   0  0  0  0  0  0  0  0  0  0  0  0
    3.1696    4.5593    5.9256 H   0  0  0  0  0  0  0  0  0  0  0  0
    2.8428    3.6561    4.0981 C   0  0  0  0  0  0  0  0  0  0  0  0
    2.0550    3.0995    4.2018 H   0  0  0  0  0  0  0  0  0  0  0  0
    2.5820    4.5107    3.7186 H   0  0  0  0  0  0  0  0  0  0  0  0
    3.8696    2.9868    3.2621 C   0  0  0  0  0  0  0  0  0  0  0  0
    3.7879    2.0233    3.3390 H   0  0  0  0  0  0  0  0  0  0  0  0
    3.7565    3.2327    2.3308 H   0  0  0  0  0  0  0  0  0  0  0  0
    5.7519    1.6222   -0.0752 C   0  0  0  0  0  0  0  0  0  0  0  0
    4.9778    1.2096    0.3377 H   0  0  0  0  0  0  0  0  0  0  0  0
    6.5167    1.0388    0.0502 H   0  0  0  0  0  0  0  0  0  0  0  0
    5.5038    1.8498   -1.5399 C   0  0  0  0  0  0  0  0  0  0  0  0
    6.2127    1.4536   -2.0700 H   0  0  0  0  0  0  0  0  0  0  0  0
    4.6585    1.4562   -1.8058 H   0  0  0  0  0  0  0  0  0  0  0  0
    5.4732    3.3203   -1.7322 C   0  0  0  0  0  0  0  0  0  0  0  0
    4.6857    3.5814   -2.2338 H   0  0  0  0  0  0  0  0  0  0  0  0
    6.2618    3.6168   -2.2121 H   0  0  0  0  0  0  0  0  0  0  0  0
    5.4414    3.9136   -0.3612 C   0  0  0  0  0  0  0  0  0  0  0  0
    5.9706    4.7260   -0.3277 H   0  0  0  0  0  0  0  0  0  0  0  0
    4.5309    4.1223   -0.1003 H   0  0  0  0  0  0  0  0  0  0  0  0
   10.3589    1.9182    1.0383 C   0  0  0  0  0  0  0  0  0  0  0  0
   10.7557    2.0412    1.9145 H   0  0  0  0  0  0  0  0  0  0  0  0
   10.0922    0.9904    0.9413 H   0  0  0  0  0  0  0  0  0  0  0  0
   11.1568    2.2451    0.1404 C   0  0  0  0  0  0  0  0  0  0  0  0
   11.4690    1.4309   -0.2826 H   0  0  0  0  0  0  0  0  0  0  0  0
   11.9244    2.6561    0.5685 H   0  0  0  0  0  0  0  0  0  0  0  0
   10.7141    3.1518   -0.9280 C   0  0  0  0  0  0  0  0  0  0  0  0
   11.0683    4.0541   -0.8778 H   0  0  0  0  0  0  0  0  0  0  0  0
   10.8193    2.8329   -1.8375 H   0  0  0  0  0  0  0  0  0  0  0  0
    9.2788    3.1476   -0.5484 C   0  0  0  0  0  0  0  0  0  0  0  0
    8.8856    4.0224   -0.6972 H   0  0  0  0  0  0  0  0  0  0  0  0
    8.7911    2.4949   -1.0768 H   0  0  0  0  0  0  0  0  0  0  0  0
    6.4016    0.7339    3.1434 H   0  0  0  0  0  0  0  0  0  0  0  0
    7.0296   -0.9018    3.0765 H   0  0  0  0  0  0  0  0  0  0  0  0
    8.0540    0.4021    2.2238 H   0  0  0  0  0  0  0  0  0  0  0  0
    7.9817    5.6234    1.2875 H   0  0  0  0  0  0  0  0  0  0  0  0
    6.4908    5.9883    2.4411 H   0  0  0  0  0  0  0  0  0  0  0  0
    7.5013    7.2414    1.6051 H   0  0  0  0  0  0  0  0  0  0  0  0
  1  4  1  0  0  0  0
  2  7  2  0  0  0  0
  3  8  2  0  0  0  0
  4 65  1  0  0  0  0
  5  1  1  0  0  0  0
  6  1  1  0  0  0  0
  7  1  1  0  0  0  0
  8  1  1  0  0  0  0
  9  2  1  0  0  0  0
 10  3  1  0  0  0  0
 11  7  1  0  0  0  0
 12  8  1  0  0  0  0
 13 12  4  0  0  0  0
 14 13  1  0  0  0  0
 15 13  4  0  0  0  0
 16 15  1  0  0  0  0
 17 15  4  0  0  0  0
 18 17  1  0  0  0  0
 19 11  4  0  0  0  0
 20 19  1  0  0  0  0
 21  2  1  0  0  0  0
 22 21  4  0  0  0  0
 23 22  1  0  0  0  0
 24 22  4  0  0  0  0
 25 24  1  0  0  0  0
 26 24  4  0  0  0  0
 27 26  1  0  0  0  0
 28 26  4  0  0  0  0
 29 28  1  0  0  0  0
 30 21  4  0  0  0  0
 31 30  1  0  0  0  0
 32  2  1  0  0  0  0
 33 32  4  0  0  0  0
 34 33  1  0  0  0  0
 35 33  4  0  0  0  0
 36 35  1  0  0  0  0
 37 35  4  0  0  0  0
 38 37  1  0  0  0  0
 39 37  4  0  0  0  0
 40 39  1  0  0  0  0
 41 32  4  0  0  0  0
 42 41  1  0  0  0  0
 43  3  1  0  0  0  0
 44 43  4  0  0  0  0
 45 44  1  0  0  0  0
 46 44  4  0  0  0  0
 47 46  1  0  0  0  0
 48 46  4  0  0  0  0
 49 48  1  0  0  0  0
 50 48  4  0  0  0  0
 51 50  1  0  0  0  0
 52 43  4  0  0  0  0
 53 52  1  0  0  0  0
 54  3  1  0  0  0  0
 55 54  4  0  0  0  0
 56 55  1  0  0  0  0
 57 55  4  0  0  0  0
 58 57  1  0  0  0  0
 59 57  4  0  0  0  0
 60 59  1  0  0  0  0
 61 59  4  0  0  0  0
 62 61  1  0  0  0  0
 63 54  4  0  0  0  0
 64 63  1  0  0  0  0
 65 66  1  0  0  0  0
 67 65  1  0  0  0  0
 68 65  1  0  0  0  0
 69 68  1  0  0  0  0
 70 68  1  0  0  0  0
 71 68  1  0  0  0  0
 72 71  1  0  0  0  0
 73 71  1  0  0  0  0
 74  4  1  0  0  0  0
 75 74  1  0  0  0  0
 76 74  1  0  0  0  0
 77  5  1  0  0  0  0
 78 77  1  0  0  0  0
 79 77  1  0  0  0  0
 80 77  1  0  0  0  0
 81 80  1  0  0  0  0
 82 80  1  0  0  0  0
 83 80  1  0  0  0  0
 84 83  1  0  0  0  0
 85 83  1  0  0  0  0
 86  5  1  0  0  0  0
 87 86  1  0  0  0  0
 88 86  1  0  0  0  0
 89  6  1  0  0  0  0
 90 89  1  0  0  0  0
 91 89  1  0  0  0  0
 92 89  1  0  0  0  0
 93 92  1  0  0  0  0
 94 92  1  0  0  0  0
 95 92  1  0  0  0  0
 96 95  1  0  0  0  0
 97 95  1  0  0  0  0
 98  6  1  0  0  0  0
 99 98  1  0  0  0  0
100 98  1  0  0  0  0
101  9  1  0  0  0  0
102  9  1  0  0  0  0
103  9  1  0  0  0  0
104 10  1  0  0  0  0
105 10  1  0  0  0  0
106 10  1  0  0  0  0
 11 12  4  0  0  0  0
 17 19  4  0  0  0  0
 28 30  4  0  0  0  0
 39 41  4  0  0  0  0
 50 52  4  0  0  0  0
 61 63  4  0  0  0  0
 71 74  1  0  0  0  0
 83 86  1  0  0  0  0
 95 98  1  0  0  0  0
M  END
$$$$
WUJPAT

From CSD data. Using bond type 'Any'. No disordered atoms. Largest molecule.
 61 80  0  0  0  0  0  0  0  0999 V2000
    2.2372    8.5841    3.5905 Cr  0  0  0  0  0  0  0  0  0  0  0  0
    2.1806    5.4536    5.5585 Cl  0  0  0  0  0  0  0  0  0  0  0  0
    4.6086    8.9832    0.9464 Cl  0  0  0  0  0  0  0  0  0  0  0  0
    3.3007    7.1488    5.1253 P   0  0  0  0  0  0  0  0  0  0  0  0
    3.4924    7.5611    1.9214 P   0  0  0  0  0  0  0  0  0  0  0  0
   -0.2218    6.7940    3.3684 O   0  0  0  0  0  0  0  0  0  0  0  0
    0.8592   10.4240    1.6099 O   0  0  0  0  0  0  0  0  0  0  0  0
    0.6087   10.2106    5.5370 O   0  0  0  0  0  0  0  0  0  0  0  0
    4.3009   10.8034    3.8968 O   0  0  0  0  0  0  0  0  0  0  0  0
    4.8375    6.3416    4.3509 C   0  0  0  0  0  0  0  0  0  0  0  0
    4.8877    6.4470    2.6282 C   0  0  0  0  0  0  0  0  0  0  0  0
    3.7592    7.6097    6.8965 C   0  0  0  0  0  0  0  0  0  0  0  0
    2.4259    8.0053    7.5845 C   0  0  0  0  0  0  0  0  0  0  0  0
    1.8345    7.2370    7.6093 H   0  0  0  0  0  0  0  0  0  0  0  0
    2.0040    8.7224    7.0864 H   0  0  0  0  0  0  0  0  0  0  0  0
    2.6052    8.3038    8.4899 H   0  0  0  0  0  0  0  0  0  0  0  0
    4.3697    6.4645    7.7221 C   0  0  0  0  0  0  0  0  0  0  0  0
    4.5421    6.7738    8.6248 H   0  0  0  0  0  0  0  0  0  0  0  0
    5.2023    6.1809    7.3121 H   0  0  0  0  0  0  0  0  0  0  0  0
    3.7507    5.7191    7.7469 H   0  0  0  0  0  0  0  0  0  0  0  0
    4.7003    8.8615    6.7864 C   0  0  0  0  0  0  0  0  0  0  0  0
    4.2561    9.6353    7.1717 H   0  0  0  0  0  0  0  0  0  0  0  0
    4.9010    9.0344    5.8535 H   0  0  0  0  0  0  0  0  0  0  0  0
    5.5243    8.6900    7.2708 H   0  0  0  0  0  0  0  0  0  0  0  0
    2.7447    6.6846    0.4100 C   0  0  0  0  0  0  0  0  0  0  0  0
    2.1110    5.3342    0.8806 C   0  0  0  0  0  0  0  0  0  0  0  0
    1.3078    5.1573    0.3660 H   0  0  0  0  0  0  0  0  0  0  0  0
    1.8854    5.3936    1.8246 H   0  0  0  0  0  0  0  0  0  0  0  0
    2.7468    4.6144    0.7458 H   0  0  0  0  0  0  0  0  0  0  0  0
    1.6167    7.6043   -0.0826 C   0  0  0  0  0  0  0  0  0  0  0  0
    1.9735    8.4888   -0.2559 H   0  0  0  0  0  0  0  0  0  0  0  0
    0.9260    7.6623    0.5972 H   0  0  0  0  0  0  0  0  0  0  0  0
    1.2383    7.2424   -0.8999 H   0  0  0  0  0  0  0  0  0  0  0  0
    3.7458    6.4834   -0.7348 C   0  0  0  0  0  0  0  0  0  0  0  0
    3.3491    5.9162   -1.4145 H   0  0  0  0  0  0  0  0  0  0  0  0
    4.5493    6.0648   -0.3908 H   0  0  0  0  0  0  0  0  0  0  0  0
    3.9690    7.3436   -1.1228 H   0  0  0  0  0  0  0  0  0  0  0  0
    0.7508    7.4112    3.4345 C   0  0  0  0  0  0  0  0  0  0  0  0
    1.4036    9.6974    2.3172 C   0  0  0  0  0  0  0  0  0  0  0  0
    1.2483    9.5610    4.8545 C   0  0  0  0  0  0  0  0  0  0  0  0
    3.5619    9.9297    3.7812 C   0  0  0  0  0  0  0  0  0  0  0  0
    6.4695    6.3389    4.9618 B   0  0  0  0  0  0  0  0  0  0  0  0
    6.7675    6.7670    5.9416 H   0  0  0  0  0  0  0  0  0  0  0  0
    5.9913    7.3774    3.5721 B   0  0  0  0  0  0  0  0  0  0  0  0
    5.9456    8.4848    3.6409 H   0  0  0  0  0  0  0  0  0  0  0  0
    7.5388    6.4753    3.5721 B   0  0  0  0  0  0  0  0  0  0  0  0
    8.5197    6.9912    3.6299 H   0  0  0  0  0  0  0  0  0  0  0  0
    7.2278    4.8737    4.3509 B   0  0  0  0  0  0  0  0  0  0  0  0
    8.0171    4.3335    4.9151 H   0  0  0  0  0  0  0  0  0  0  0  0
    5.5053    4.8453    4.8628 B   0  0  0  0  0  0  0  0  0  0  0  0
    5.1651    4.2984    5.7654 H   0  0  0  0  0  0  0  0  0  0  0  0
    6.4997    6.5401    2.0998 B   0  0  0  0  0  0  0  0  0  0  0  0
    6.8178    7.0979    1.1944 H   0  0  0  0  0  0  0  0  0  0  0  0
    7.2560    4.9831    2.5786 B   0  0  0  0  0  0  0  0  0  0  0  0
    8.0751    4.5158    1.9924 H   0  0  0  0  0  0  0  0  0  0  0  0
    5.9931    4.0162    3.3574 B   0  0  0  0  0  0  0  0  0  0  0  0
    5.9780    2.9088    3.2804 H   0  0  0  0  0  0  0  0  0  0  0  0
    4.4898    4.9655    3.3657 B   0  0  0  0  0  0  0  0  0  0  0  0
    3.4799    4.5118    3.2941 H   0  0  0  0  0  0  0  0  0  0  0  0
    5.5701    5.0304    1.9952 B   0  0  0  0  0  0  0  0  0  0  0  0
    5.2803    4.5915    1.0182 H   0  0  0  0  0  0  0  0  0  0  0  0
  1  4  1  0  0  0  0
  2  4  1  0  0  0  0
  3  5  1  0  0  0  0
  4 10  1  0  0  0  0
  5  1  1  0  0  0  0
  6 38  3  0  0  0  0
  7 39  3  0  0  0  0
  8 40  3  0  0  0  0
  9 41  3  0  0  0  0
 10 11  1  0  0  0  0
 11  5  1  0  0  0  0
 12  4  1  0  0  0  0
 13 12  1  0  0  0  0
 14 13  1  0  0  0  0
 15 13  1  0  0  0  0
 16 13  1  0  0  0  0
 17 12  1  0  0  0  0
 18 17  1  0  0  0  0
 19 17  1  0  0  0  0
 20 17  1  0  0  0  0
 21 12  1  0  0  0  0
 22 21  1  0  0  0  0
 23 21  1  0  0  0  0
 24 21  1  0  0  0  0
 25  5  1  0  0  0  0
 26 25  1  0  0  0  0
 27 26  1  0  0  0  0
 28 26  1  0  0  0  0
 29 26  1  0  0  0  0
 30 25  1  0  0  0  0
 31 30  1  0  0  0  0
 32 30  1  0  0  0  0
 33 30  1  0  0  0  0
 34 25  1  0  0  0  0
 35 34  1  0  0  0  0
 36 34  1  0  0  0  0
 37 34  1  0  0  0  0
 38  1  1  0  0  0  0
 39  1  1  0  0  0  0
 40  1  1  0  0  0  0
 41  1  1  0  0  0  0
 42 10  1  0  0  0  0
 43 42  1  0  0  0  0
 44 10  1  0  0  0  0
 45 44  1  0  0  0  0
 46 42  1  0  0  0  0
 47 46  1  0  0  0  0
 48 42  1  0  0  0  0
 49 48  1  0  0  0  0
 50 10  1  0  0  0  0
 51 50  1  0  0  0  0
 52 11  1  0  0  0  0
 53 52  1  0  0  0  0
 54 46  1  0  0  0  0
 55 54  1  0  0  0  0
 56 48  1  0  0  0  0
 57 56  1  0  0  0  0
 58 10  1  0  0  0  0
 59 58  1  0  0  0  0
 60 11  1  0  0  0  0
 61 60  1  0  0  0  0
 11 44  1  0  0  0  0
 11 58  1  0  0  0  0
 42 44  1  0  0  0  0
 42 50  1  0  0  0  0
 44 46  1  0  0  0  0
 44 52  1  0  0  0  0
 46 48  1  0  0  0  0
 46 52  1  0  0  0  0
 48 50  1  0  0  0  0
 48 54  1  0  0  0  0
 50 56  1  0  0  0  0
 50 58  1  0  0  0  0
 52 54  1  0  0  0  0
 52 60  1  0  0  0  0
 54 56  1  0  0  0  0
 54 60  1  0  0  0  0
 56 58  1  0  0  0  0
 56 60  1  0  0  0  0
 58 60  1  0  0  0  0
M  END
$$$$
WUJPEX

From CSD data. Using bond type 'Any'. No disordered atoms. Largest molecule.
 61 80  0  0  0  0  0  0  0  0999 V2000
    2.1254    8.7491    3.6164 Mo  0  0  0  0  0  0  0  0  0  0  0  0
    2.1414    5.5292    5.6702 Cl  0  0  0  0  0  0  0  0  0  0  0  0
    4.6609    9.0363    0.9191 Cl  0  0  0  0  0  0  0  0  0  0  0  0
    3.2698    7.2367    5.2305 P   0  0  0  0  0  0  0  0  0  0  0  0
    3.5076    7.6135    1.8971 P   0  0  0  0  0  0  0  0  0  0  0  0
   -0.4305    6.8139    3.4501 O   0  0  0  0  0  0  0  0  0  0  0  0
    0.6798   10.5638    1.4366 O   0  0  0  0  0  0  0  0  0  0  0  0
    0.4139   10.4882    5.6571 O   0  0  0  0  0  0  0  0  0  0  0  0
    4.3323   11.0600    3.8812 O   0  0  0  0  0  0  0  0  0  0  0  0
    4.8131    6.4276    4.4306 C   0  0  0  0  0  0  0  0  0  0  0  0
    4.8853    6.5335    2.6664 C   0  0  0  0  0  0  0  0  0  0  0  0
    3.7258    7.7170    7.0031 C   0  0  0  0  0  0  0  0  0  0  0  0
    2.3780    8.1225    7.6693 C   0  0  0  0  0  0  0  0  0  0  0  0
    1.8127    7.3390    7.7568 H   0  0  0  0  0  0  0  0  0  0  0  0
    1.9307    8.7837    7.1176 H   0  0  0  0  0  0  0  0  0  0  0  0
    2.5506    8.4964    8.5461 H   0  0  0  0  0  0  0  0  0  0  0  0
    4.3634    6.6077    7.8602 C   0  0  0  0  0  0  0  0  0  0  0  0
    4.5527    6.9527    8.7462 H   0  0  0  0  0  0  0  0  0  0  0  0
    5.1880    6.3135    7.4456 H   0  0  0  0  0  0  0  0  0  0  0  0
    3.7497    5.8599    7.9291 H   0  0  0  0  0  0  0  0  0  0  0  0
    4.6587    8.9899    6.8730 C   0  0  0  0  0  0  0  0  0  0  0  0
    4.1631    9.7129    6.4561 H   0  0  0  0  0  0  0  0  0  0  0  0
    5.4309    8.7713    6.3283 H   0  0  0  0  0  0  0  0  0  0  0  0
    4.9541    9.2662    7.7540 H   0  0  0  0  0  0  0  0  0  0  0  0
    2.8029    6.7080    0.3816 C   0  0  0  0  0  0  0  0  0  0  0  0
    2.1472    5.3733    0.8838 C   0  0  0  0  0  0  0  0  0  0  0  0
    1.4470    5.1053    0.2668 H   0  0  0  0  0  0  0  0  0  0  0  0
    1.7657    5.5121    1.7648 H   0  0  0  0  0  0  0  0  0  0  0  0
    2.8219    4.6791    0.9283 H   0  0  0  0  0  0  0  0  0  0  0  0
    1.7036    7.6538   -0.1495 C   0  0  0  0  0  0  0  0  0  0  0  0
    2.0831    8.5308   -0.3168 H   0  0  0  0  0  0  0  0  0  0  0  0
    0.9950    7.7280    0.5086 H   0  0  0  0  0  0  0  0  0  0  0  0
    1.3403    7.2964   -0.9755 H   0  0  0  0  0  0  0  0  0  0  0  0
    3.8375    6.4730   -0.7576 C   0  0  0  0  0  0  0  0  0  0  0  0
    3.4371    5.9218   -1.4480 H   0  0  0  0  0  0  0  0  0  0  0  0
    4.6172    6.0235   -0.3974 H   0  0  0  0  0  0  0  0  0  0  0  0
    4.1018    7.3252   -1.1367 H   0  0  0  0  0  0  0  0  0  0  0  0
    0.5177    7.4558    3.4938 C   0  0  0  0  0  0  0  0  0  0  0  0
    1.2128    9.9012    2.2092 C   0  0  0  0  0  0  0  0  0  0  0  0
    1.0491    9.8256    4.9609 C   0  0  0  0  0  0  0  0  0  0  0  0
    3.5818   10.2037    3.7789 C   0  0  0  0  0  0  0  0  0  0  0  0
    6.4344    6.4359    5.0471 B   0  0  0  0  0  0  0  0  0  0  0  0
    5.9871    7.4586    3.6422 B   0  0  0  0  0  0  0  0  0  0  0  0
    7.5139    6.5390    3.6336 B   0  0  0  0  0  0  0  0  0  0  0  0
    7.2049    4.9499    4.4359 B   0  0  0  0  0  0  0  0  0  0  0  0
    5.4843    4.9238    4.9437 B   0  0  0  0  0  0  0  0  0  0  0  0
    6.5236    6.5885    2.1500 B   0  0  0  0  0  0  0  0  0  0  0  0
    7.2591    5.0365    2.6592 B   0  0  0  0  0  0  0  0  0  0  0  0
    5.9873    4.0633    3.4565 B   0  0  0  0  0  0  0  0  0  0  0  0
    4.4721    5.0255    3.4412 B   0  0  0  0  0  0  0  0  0  0  0  0
    5.5876    5.0723    2.0447 B   0  0  0  0  0  0  0  0  0  0  0  0
    6.6428    6.9142    5.9531 H   0  0  0  0  0  0  0  0  0  0  0  0
    5.8705    8.5088    3.6853 H   0  0  0  0  0  0  0  0  0  0  0  0
    8.4925    6.9830    3.7825 H   0  0  0  0  0  0  0  0  0  0  0  0
    7.9974    4.4537    5.0443 H   0  0  0  0  0  0  0  0  0  0  0  0
    4.9989    4.4400    5.7808 H   0  0  0  0  0  0  0  0  0  0  0  0
    6.7462    7.1342    1.3396 H   0  0  0  0  0  0  0  0  0  0  0  0
    8.0596    4.5774    2.0928 H   0  0  0  0  0  0  0  0  0  0  0  0
    5.9305    2.9554    3.4296 H   0  0  0  0  0  0  0  0  0  0  0  0
    3.4327    4.6874    3.4212 H   0  0  0  0  0  0  0  0  0  0  0  0
    5.1586    4.7149    1.1395 H   0  0  0  0  0  0  0  0  0  0  0  0
  1  4  1  0  0  0  0
  2  4  1  0  0  0  0
  3  5  1  0  0  0  0
  4 10  1  0  0  0  0
  5  1  1  0  0  0  0
  6 38  3  0  0  0  0
  7 39  3  0  0  0  0
  8 40  3  0  0  0  0
  9 41  3  0  0  0  0
 10 11  1  0  0  0  0
 11  5  1  0  0  0  0
 12  4  1  0  0  0  0
 13 12  1  0  0  0  0
 14 13  1  0  0  0  0
 15 13  1  0  0  0  0
 16 13  1  0  0  0  0
 17 12  1  0  0  0  0
 18 17  1  0  0  0  0
 19 17  1  0  0  0  0
 20 17  1  0  0  0  0
 21 12  1  0  0  0  0
 22 21  1  0  0  0  0
 23 21  1  0  0  0  0
 24 21  1  0  0  0  0
 25  5  1  0  0  0  0
 26 25  1  0  0  0  0
 27 26  1  0  0  0  0
 28 26  1  0  0  0  0
 29 26  1  0  0  0  0
 30 25  1  0  0  0  0
 31 30  1  0  0  0  0
 32 30  1  0  0  0  0
 33 30  1  0  0  0  0
 34 25  1  0  0  0  0
 35 34  1  0  0  0  0
 36 34  1  0  0  0  0
 37 34  1  0  0  0  0
 38  1  1  0  0  0  0
 39  1  1  0  0  0  0
 40  1  1  0  0  0  0
 41  1  1  0  0  0  0
 42 10  1  0  0  0  0
 43 10  1  0  0  0  0
 44 42  1  0  0  0  0
 45 42  1  0  0  0  0
 46 10  1  0  0  0  0
 47 11  1  0  0  0  0
 48 44  1  0  0  0  0
 49 45  1  0  0  0  0
 50 10  1  0  0  0  0
 51 11  1  0  0  0  0
 52 42  1  0  0  0  0
 53 43  1  0  0  0  0
 54 44  1  0  0  0  0
 55 45  1  0  0  0  0
 56 46  1  0  0  0  0
 57 47  1  0  0  0  0
 58 48  1  0  0  0  0
 59 49  1  0  0  0  0
 60 50  1  0  0  0  0
 61 51  1  0  0  0  0
 11 43  1  0  0  0  0
 11 50  1  0  0  0  0
 42 43  1  0  0  0  0
 42 46  1  0  0  0  0
 43 44  1  0  0  0  0
 43 47  1  0  0  0  0
 44 45  1  0  0  0  0
 44 47  1  0  0  0  0
 45 46  1  0  0  0  0
 45 48  1  0  0  0  0
 46 49  1  0  0  0  0
 46 50  1  0  0  0  0
 47 48  1  0  0  0  0
 47 51  1  0  0  0  0
 48 49  1  0  0  0  0
 48 51  1  0  0  0  0
 49 50  1  0  0  0  0
 49 51  1  0  0  0  0
 50 51  1  0  0  0  0
M  END
$$$$
WUJPIB

From CSD data. Using bond type 'Any'. No disordered atoms. Largest molecule.
 61 80  0  0  0  0  0  0  0  0999 V2000
    0.0000    5.5087    6.1951 Mo  0  0  0  0  0  0  0  0  0  0  0  0
    2.6494    8.0912    6.5119 Cl  0  0  0  0  0  0  0  0  0  0  0  0
    1.6741    6.6389    7.5901 P   0  0  0  0  0  0  0  0  0  0  0  0
    0.0000    2.7749    7.8645 O   0  0  0  0  0  0  0  0  0  0  0  0
    0.0000    8.0328    4.2368 O   0  0  0  0  0  0  0  0  0  0  0  0
    2.1457    4.2353    4.2598 O   0  0  0  0  0  0  0  0  0  0  0  0
    0.8830    7.7206    8.9311 C   0  0  0  0  0  0  0  0  0  0  0  0
    3.1604    5.7666    8.3558 C   0  0  0  0  0  0  0  0  0  0  0  0
    4.2816    6.7129    8.8174 C   0  0  0  0  0  0  0  0  0  0  0  0
    3.9313    7.3347    9.4739 H   0  0  0  0  0  0  0  0  0  0  0  0
    4.6236    7.2065    8.0553 H   0  0  0  0  0  0  0  0  0  0  0  0
    4.9992    6.1947    9.2154 H   0  0  0  0  0  0  0  0  0  0  0  0
    2.6923    4.8189    9.4834 C   0  0  0  0  0  0  0  0  0  0  0  0
    3.4351    4.2612    9.7649 H   0  0  0  0  0  0  0  0  0  0  0  0
    1.9719    4.2585    9.1558 H   0  0  0  0  0  0  0  0  0  0  0  0
    2.3784    5.3439   10.2360 H   0  0  0  0  0  0  0  0  0  0  0  0
    3.7210    4.8980    7.1917 C   0  0  0  0  0  0  0  0  0  0  0  0
    4.5143    4.4275    7.4922 H   0  0  0  0  0  0  0  0  0  0  0  0
    3.9481    5.4693    6.4418 H   0  0  0  0  0  0  0  0  0  0  0  0
    3.0483    4.2544    6.9156 H   0  0  0  0  0  0  0  0  0  0  0  0
    0.0000    3.7812    7.2865 C   0  0  0  0  0  0  0  0  0  0  0  0
    0.0000    7.1642    4.9623 C   0  0  0  0  0  0  0  0  0  0  0  0
    1.3917    4.7044    4.9759 C   0  0  0  0  0  0  0  0  0  0  0  0
    0.0000    6.8820   10.1710 B   0  0  0  0  0  0  0  0  0  0  0  0
    0.0000    5.7761   10.2712 H   0  0  0  0  0  0  0  0  0  0  0  0
    1.4436    7.8965   10.5270 B   0  0  0  0  0  0  0  0  0  0  0  0
    2.3882    7.4506   10.9006 H   0  0  0  0  0  0  0  0  0  0  0  0
    1.4394    9.2533    9.3913 B   0  0  0  0  0  0  0  0  0  0  0  0
    2.3868    9.6978    9.0205 H   0  0  0  0  0  0  0  0  0  0  0  0
    0.0000    9.0978    8.3328 B   0  0  0  0  0  0  0  0  0  0  0  0
    0.0000    9.4073    7.2675 H   0  0  0  0  0  0  0  0  0  0  0  0
    0.0000    7.9988   11.5977 B   0  0  0  0  0  0  0  0  0  0  0  0
    0.0000    7.6279   12.6441 H   0  0  0  0  0  0  0  0  0  0  0  0
    0.8928    9.5014   11.0549 B   0  0  0  0  0  0  0  0  0  0  0  0
    1.4702   10.1164   11.7764 H   0  0  0  0  0  0  0  0  0  0  0  0
    0.0000   10.2432    9.6824 B   0  0  0  0  0  0  0  0  0  0  0  0
    0.0000   11.3382    9.4983 H   0  0  0  0  0  0  0  0  0  0  0  0
   -2.6494    8.0912    6.5119 Cl  0  0  0  0  0  0  0  0  0  0  0  0
   -1.6741    6.6389    7.5901 P   0  0  0  0  0  0  0  0  0  0  0  0
   -2.1457    4.2353    4.2598 O   0  0  0  0  0  0  0  0  0  0  0  0
   -0.8830    7.7206    8.9311 C   0  0  0  0  0  0  0  0  0  0  0  0
   -3.1604    5.7666    8.3558 C   0  0  0  0  0  0  0  0  0  0  0  0
   -4.2816    6.7129    8.8174 C   0  0  0  0  0  0  0  0  0  0  0  0
   -3.9313    7.3347    9.4739 H   0  0  0  0  0  0  0  0  0  0  0  0
   -4.6236    7.2065    8.0553 H   0  0  0  0  0  0  0  0  0  0  0  0
   -4.9992    6.1947    9.2154 H   0  0  0  0  0  0  0  0  0  0  0  0
   -2.6923    4.8189    9.4834 C   0  0  0  0  0  0  0  0  0  0  0  0
   -3.4351    4.2612    9.7649 H   0  0  0  0  0  0  0  0  0  0  0  0
   -1.9719    4.2585    9.1558 H   0  0  0  0  0  0  0  0  0  0  0  0
   -2.3784    5.3439   10.2360 H   0  0  0  0  0  0  0  0  0  0  0  0
   -3.7210    4.8980    7.1917 C   0  0  0  0  0  0  0  0  0  0  0  0
   -4.5143    4.4275    7.4922 H   0  0  0  0  0  0  0  0  0  0  0  0
   -3.9481    5.4693    6.4418 H   0  0  0  0  0  0  0  0  0  0  0  0
   -3.0483    4.2544    6.9156 H   0  0  0  0  0  0  0  0  0  0  0  0
   -1.3917    4.7044    4.9759 C   0  0  0  0  0  0  0  0  0  0  0  0
   -1.4436    7.8965   10.5270 B   0  0  0  0  0  0  0  0  0  0  0  0
   -2.3882    7.4506   10.9006 H   0  0  0  0  0  0  0  0  0  0  0  0
   -1.4394    9.2533    9.3913 B   0  0  0  0  0  0  0  0  0  0  0  0
   -2.3868    9.6978    9.0205 H   0  0  0  0  0  0  0  0  0  0  0  0
   -0.8928    9.5014   11.0549 B   0  0  0  0  0  0  0  0  0  0  0  0
   -1.4702   10.1164   11.7764 H   0  0  0  0  0  0  0  0  0  0  0  0
  1  3  1  0  0  0  0
  2  3  1  0  0  0  0
  3  7  1  0  0  0  0
  4 21  3  0  0  0  0
  5 22  3  0  0  0  0
  6 23  3  0  0  0  0
  7 24  1  0  0  0  0
  8  3  1  0  0  0  0
  9  8  1  0  0  0  0
 10  9  1  0  0  0  0
 11  9  1  0  0  0  0
 12  9  1  0  0  0  0
 13  8  1  0  0  0  0
 14 13  1  0  0  0  0
 15 13  1  0  0  0  0
 16 13  1  0  0  0  0
 17  8  1  0  0  0  0
 18 17  1  0  0  0  0
 19 17  1  0  0  0  0
 20 17  1  0  0  0  0
 21  1  1  0  0  0  0
 22  1  1  0  0  0  0
 23  1  1  0  0  0  0
 24 25  1  0  0  0  0
 26  7  1  0  0  0  0
 27 26  1  0  0  0  0
 28  7  1  0  0  0  0
 29 28  1  0  0  0  0
 30  7  1  0  0  0  0
 31 30  1  0  0  0  0
 32 24  1  0  0  0  0
 33 32  1  0  0  0  0
 34 26  1  0  0  0  0
 35 34  1  0  0  0  0
 36 28  1  0  0  0  0
 37 36  1  0  0  0  0
 38 39  1  0  0  0  0
 39  1  1  0  0  0  0
 40 55  3  0  0  0  0
 41  7  1  0  0  0  0
 42 39  1  0  0  0  0
 43 42  1  0  0  0  0
 44 43  1  0  0  0  0
 45 43  1  0  0  0  0
 46 43  1  0  0  0  0
 47 42  1  0  0  0  0
 48 47  1  0  0  0  0
 49 47  1  0  0  0  0
 50 47  1  0  0  0  0
 51 42  1  0  0  0  0
 52 51  1  0  0  0  0
 53 51  1  0  0  0  0
 54 51  1  0  0  0  0
 55  1  1  0  0  0  0
 56 24  1  0  0  0  0
 57 56  1  0  0  0  0
 58 30  1  0  0  0  0
 59 58  1  0  0  0  0
 60 32  1  0  0  0  0
 61 60  1  0  0  0  0
 24 26  1  0  0  0  0
 24 41  1  0  0  0  0
 26 28  1  0  0  0  0
 26 32  1  0  0  0  0
 28 30  1  0  0  0  0
 28 34  1  0  0  0  0
 30 36  1  0  0  0  0
 30 41  1  0  0  0  0
 32 34  1  0  0  0  0
 32 56  1  0  0  0  0
 34 36  1  0  0  0  0
 34 60  1  0  0  0  0
 36 58  1  0  0  0  0
 36 60  1  0  0  0  0
 39 41  1  0  0  0  0
 41 56  1  0  0  0  0
 41 58  1  0  0  0  0
 56 58  1  0  0  0  0
 56 60  1  0  0  0  0
 58 60  1  0  0  0  0
M  END
$$$$
WUJPOH

From CSD data. Using bond type 'Any'. No disordered atoms. Largest molecule.
 61 80  0  0  0  0  0  0  0  0999 V2000
    2.1037    8.6471    3.5742 W   0  0  0  0  0  0  0  0  0  0  0  0
    2.0992    5.4480    5.6007 Cl  0  0  0  0  0  0  0  0  0  0  0  0
    4.6170    8.9311    0.9087 Cl  0  0  0  0  0  0  0  0  0  0  0  0
    3.2316    7.1468    5.1704 P   0  0  0  0  0  0  0  0  0  0  0  0
    3.4632    7.5227    1.8711 P   0  0  0  0  0  0  0  0  0  0  0  0
   -0.4151    6.7370    3.4163 O   0  0  0  0  0  0  0  0  0  0  0  0
    0.6727   10.4522    1.4150 O   0  0  0  0  0  0  0  0  0  0  0  0
    0.4417   10.3667    5.6076 O   0  0  0  0  0  0  0  0  0  0  0  0
    4.3077   10.8973    3.8292 O   0  0  0  0  0  0  0  0  0  0  0  0
    4.7509    6.3449    4.3771 C   0  0  0  0  0  0  0  0  0  0  0  0
    4.8347    6.4398    2.6317 C   0  0  0  0  0  0  0  0  0  0  0  0
    3.6781    7.6095    6.9235 C   0  0  0  0  0  0  0  0  0  0  0  0
    2.3184    8.0030    7.5841 C   0  0  0  0  0  0  0  0  0  0  0  0
    1.7324    7.2309    7.6034 H   0  0  0  0  0  0  0  0  0  0  0  0
    1.9023    8.7127    7.0694 H   0  0  0  0  0  0  0  0  0  0  0  0
    2.4769    8.3110    8.4898 H   0  0  0  0  0  0  0  0  0  0  0  0
    4.2602    6.5077    7.7713 C   0  0  0  0  0  0  0  0  0  0  0  0
    4.4758    6.8564    8.6495 H   0  0  0  0  0  0  0  0  0  0  0  0
    5.0651    6.1685    7.3502 H   0  0  0  0  0  0  0  0  0  0  0  0
    3.6124    5.7912    7.8567 H   0  0  0  0  0  0  0  0  0  0  0  0
    4.6238    8.8877    6.6812 C   0  0  0  0  0  0  0  0  0  0  0  0
    4.0939    9.6978    6.7390 H   0  0  0  0  0  0  0  0  0  0  0  0
    5.0311    8.8280    5.8030 H   0  0  0  0  0  0  0  0  0  0  0  0
    5.3191    8.9080    7.3584 H   0  0  0  0  0  0  0  0  0  0  0  0
    2.7467    6.6475    0.3882 C   0  0  0  0  0  0  0  0  0  0  0  0
    2.0971    5.3367    0.9497 C   0  0  0  0  0  0  0  0  0  0  0  0
    1.4370    5.0070    0.3193 H   0  0  0  0  0  0  0  0  0  0  0  0
    1.6667    5.5253    1.7976 H   0  0  0  0  0  0  0  0  0  0  0  0
    2.7843    4.6637    1.0791 H   0  0  0  0  0  0  0  0  0  0  0  0
    1.6831    7.5796   -0.1376 C   0  0  0  0  0  0  0  0  0  0  0  0
    2.0739    8.4494   -0.3138 H   0  0  0  0  0  0  0  0  0  0  0  0
    0.9780    7.6706    0.5230 H   0  0  0  0  0  0  0  0  0  0  0  0
    1.3118    7.2174   -0.9552 H   0  0  0  0  0  0  0  0  0  0  0  0
    3.7752    6.4086   -0.7350 C   0  0  0  0  0  0  0  0  0  0  0  0
    3.3744    5.8618   -1.4287 H   0  0  0  0  0  0  0  0  0  0  0  0
    4.5513    5.9541   -0.3716 H   0  0  0  0  0  0  0  0  0  0  0  0
    4.0463    7.2608   -1.1122 H   0  0  0  0  0  0  0  0  0  0  0  0
    0.5305    7.3775    3.4548 C   0  0  0  0  0  0  0  0  0  0  0  0
    1.2009    9.7860    2.1748 C   0  0  0  0  0  0  0  0  0  0  0  0
    1.0588    9.7005    4.9139 C   0  0  0  0  0  0  0  0  0  0  0  0
    3.5455   10.0573    3.7301 C   0  0  0  0  0  0  0  0  0  0  0  0
    6.3520    6.3408    4.9772 B   0  0  0  0  0  0  0  0  0  0  0  0
    6.6351    6.7831    5.9544 H   0  0  0  0  0  0  0  0  0  0  0  0
    5.9178    7.3625    3.5870 B   0  0  0  0  0  0  0  0  0  0  0  0
    5.8796    8.4698    3.6475 H   0  0  0  0  0  0  0  0  0  0  0  0
    7.4386    6.4195    3.5815 B   0  0  0  0  0  0  0  0  0  0  0  0
    8.4322    6.9134    3.6365 H   0  0  0  0  0  0  0  0  0  0  0  0
    7.1197    4.8889    4.3743 B   0  0  0  0  0  0  0  0  0  0  0  0
    7.9118    4.3679    4.9524 H   0  0  0  0  0  0  0  0  0  0  0  0
    5.4047    4.8740    4.8781 B   0  0  0  0  0  0  0  0  0  0  0  0
    5.0576    4.3394    5.7865 H   0  0  0  0  0  0  0  0  0  0  0  0
    6.4587    6.4996    2.1170 B   0  0  0  0  0  0  0  0  0  0  0  0
    6.8056    7.0477    1.2168 H   0  0  0  0  0  0  0  0  0  0  0  0
    7.1707    4.9418    2.6070 B   0  0  0  0  0  0  0  0  0  0  0  0
    7.9808    4.4493    2.0289 H   0  0  0  0  0  0  0  0  0  0  0  0
    5.8971    3.9974    3.4108 B   0  0  0  0  0  0  0  0  0  0  0  0
    5.8688    2.8888    3.3640 H   0  0  0  0  0  0  0  0  0  0  0  0
    4.4027    4.9622    3.4053 B   0  0  0  0  0  0  0  0  0  0  0  0
    3.3886    4.5144    3.3392 H   0  0  0  0  0  0  0  0  0  0  0  0
    5.5198    5.0083    2.0068 B   0  0  0  0  0  0  0  0  0  0  0  0
    5.2450    4.5687    1.0268 H   0  0  0  0  0  0  0  0  0  0  0  0
  1  4  1  0  0  0  0
  2  4  1  0  0  0  0
  3  5  1  0  0  0  0
  4 10  1  0  0  0  0
  5  1  1  0  0  0  0
  6 38  3  0  0  0  0
  7 39  3  0  0  0  0
  8 40  3  0  0  0  0
  9 41  3  0  0  0  0
 10 11  1  0  0  0  0
 11  5  1  0  0  0  0
 12  4  1  0  0  0  0
 13 12  1  0  0  0  0
 14 13  1  0  0  0  0
 15 13  1  0  0  0  0
 16 13  1  0  0  0  0
 17 12  1  0  0  0  0
 18 17  1  0  0  0  0
 19 17  1  0  0  0  0
 20 17  1  0  0  0  0
 21 12  1  0  0  0  0
 22 21  1  0  0  0  0
 23 21  1  0  0  0  0
 24 21  1  0  0  0  0
 25  5  1  0  0  0  0
 26 25  1  0  0  0  0
 27 26  1  0  0  0  0
 28 26  1  0  0  0  0
 29 26  1  0  0  0  0
 30 25  1  0  0  0  0
 31 30  1  0  0  0  0
 32 30  1  0  0  0  0
 33 30  1  0  0  0  0
 34 25  1  0  0  0  0
 35 34  1  0  0  0  0
 36 34  1  0  0  0  0
 37 34  1  0  0  0  0
 38  1  1  0  0  0  0
 39  1  1  0  0  0  0
 40  1  1  0  0  0  0
 41  1  1  0  0  0  0
 42 10  1  0  0  0  0
 43 42  1  0  0  0  0
 44 10  1  0  0  0  0
 45 44  1  0  0  0  0
 46 42  1  0  0  0  0
 47 46  1  0  0  0  0
 48 42  1  0  0  0  0
 49 48  1  0  0  0  0
 50 10  1  0  0  0  0
 51 50  1  0  0  0  0
 52 11  1  0  0  0  0
 53 52  1  0  0  0  0
 54 46  1  0  0  0  0
 55 54  1  0  0  0  0
 56 48  1  0  0  0  0
 57 56  1  0  0  0  0
 58 10  1  0  0  0  0
 59 58  1  0  0  0  0
 60 11  1  0  0  0  0
 61 60  1  0  0  0  0
 11 44  1  0  0  0  0
 11 58  1  0  0  0  0
 42 44  1  0  0  0  0
 42 50  1  0  0  0  0
 44 46  1  0  0  0  0
 44 52  1  0  0  0  0
 46 48  1  0  0  0  0
 46 52  1  0  0  0  0
 48 50  1  0  0  0  0
 48 54  1  0  0  0  0
 50 56  1  0  0  0  0
 50 58  1  0  0  0  0
 52 54  1  0  0  0  0
 52 60  1  0  0  0  0
 54 56  1  0  0  0  0
 54 60  1  0  0  0  0
 56 58  1  0  0  0  0
 56 60  1  0  0  0  0
 58 60  1  0  0  0  0
M  END
$$$$
WUWLIL

From CSD data. Using bond type 'Any'. No disordered atoms. Largest molecule.
 94 96  0  0  0  0  0  0  0  0999 V2000
    9.7667    8.1325    4.9750 Ir  0  0  0  0  0  0  0  0  0  0  0  0
   10.4711    6.7922    5.2731 H   0  0  0  0  0  0  0  0  0  0  0  0
   10.3262    7.9872    3.4563 H   0  0  0  0  0  0  0  0  0  0  0  0
    9.3549    8.1789    6.5323 H   0  0  0  0  0  0  0  0  0  0  0  0
    8.9931   10.3291    4.5598 P   0  0  0  0  0  0  0  0  0  0  0  0
   11.7859    9.1708    5.5293 P   0  0  0  0  0  0  0  0  0  0  0  0
    7.7146    7.9759    2.6898 O   0  0  0  0  0  0  0  0  0  0  0  0
    8.5959    5.9258    3.0774 O   0  0  0  0  0  0  0  0  0  0  0  0
    6.8581    7.3933    5.9386 O   0  0  0  0  0  0  0  0  0  0  0  0
    8.3984    5.8293    6.5459 O   0  0  0  0  0  0  0  0  0  0  0  0
   10.2740   11.4971    5.2075 C   0  0  0  0  0  0  0  0  0  0  0  0
   10.2180   12.3458    4.6997 H   0  0  0  0  0  0  0  0  0  0  0  0
   10.0711   11.6986    6.1559 H   0  0  0  0  0  0  0  0  0  0  0  0
   11.7042   10.9598    5.1127 C   0  0  0  0  0  0  0  0  0  0  0  0
   12.2858   11.4674    5.7322 H   0  0  0  0  0  0  0  0  0  0  0  0
   12.0450   11.0972    4.1933 H   0  0  0  0  0  0  0  0  0  0  0  0
    7.4873   10.7076    6.9002 C   0  0  0  0  0  0  0  0  0  0  0  0
    6.6870   11.0967    7.3106 H   0  0  0  0  0  0  0  0  0  0  0  0
    8.2874   11.1055    7.3027 H   0  0  0  0  0  0  0  0  0  0  0  0
    7.4925    9.7392    7.0505 H   0  0  0  0  0  0  0  0  0  0  0  0
    7.4776   10.9901    5.3990 C   0  0  0  0  0  0  0  0  0  0  0  0
    7.4766   11.9824    5.2790 H   0  0  0  0  0  0  0  0  0  0  0  0
    6.2027   10.4487    4.7553 C   0  0  0  0  0  0  0  0  0  0  0  0
    6.1999    9.4694    4.8081 H   0  0  0  0  0  0  0  0  0  0  0  0
    6.1681   10.7255    3.8149 H   0  0  0  0  0  0  0  0  0  0  0  0
    5.4218   10.8035    5.2298 H   0  0  0  0  0  0  0  0  0  0  0  0
    8.3088   12.3587    2.6515 C   0  0  0  0  0  0  0  0  0  0  0  0
    7.4700   12.4954    3.1390 H   0  0  0  0  0  0  0  0  0  0  0  0
    8.1732   12.5649    1.7025 H   0  0  0  0  0  0  0  0  0  0  0  0
    8.9997   12.9501    3.0188 H   0  0  0  0  0  0  0  0  0  0  0  0
    8.7567   10.8897    2.8011 C   0  0  0  0  0  0  0  0  0  0  0  0
    8.0254   10.3261    2.4159 H   0  0  0  0  0  0  0  0  0  0  0  0
    9.9845   10.6464    1.9504 C   0  0  0  0  0  0  0  0  0  0  0  0
    9.7817   10.8612    1.0168 H   0  0  0  0  0  0  0  0  0  0  0  0
   10.2475    9.7038    2.0198 H   0  0  0  0  0  0  0  0  0  0  0  0
   10.7178   11.2145    2.2661 H   0  0  0  0  0  0  0  0  0  0  0  0
   11.3085    9.8779    8.2019 C   0  0  0  0  0  0  0  0  0  0  0  0
   10.4345    9.4382    8.1461 H   0  0  0  0  0  0  0  0  0  0  0  0
   11.2238   10.8097    7.9097 H   0  0  0  0  0  0  0  0  0  0  0  0
   11.6290    9.8535    9.1274 H   0  0  0  0  0  0  0  0  0  0  0  0
   12.2976    9.1539    7.3041 C   0  0  0  0  0  0  0  0  0  0  0  0
   13.1745    9.6301    7.3717 H   0  0  0  0  0  0  0  0  0  0  0  0
   12.5069    7.7237    7.7938 C   0  0  0  0  0  0  0  0  0  0  0  0
   12.8294    7.7397    8.7195 H   0  0  0  0  0  0  0  0  0  0  0  0
   13.1686    7.2773    7.2259 H   0  0  0  0  0  0  0  0  0  0  0  0
   11.6584    7.2370    7.7520 H   0  0  0  0  0  0  0  0  0  0  0  0
   13.1804    8.5981    3.1526 C   0  0  0  0  0  0  0  0  0  0  0  0
   13.0801    9.5237    2.8454 H   0  0  0  0  0  0  0  0  0  0  0  0
   12.3921    8.0796    2.8888 H   0  0  0  0  0  0  0  0  0  0  0  0
   13.9808    8.2037    2.7489 H   0  0  0  0  0  0  0  0  0  0  0  0
   13.3158    8.5796    4.6723 C   0  0  0  0  0  0  0  0  0  0  0  0
   13.4564    7.6272    4.9440 H   0  0  0  0  0  0  0  0  0  0  0  0
   14.5796    9.3535    5.0680 C   0  0  0  0  0  0  0  0  0  0  0  0
   15.3494    8.9935    4.5795 H   0  0  0  0  0  0  0  0  0  0  0  0
   14.7317    9.2612    6.0318 H   0  0  0  0  0  0  0  0  0  0  0  0
   14.4661   10.3002    4.8455 H   0  0  0  0  0  0  0  0  0  0  0  0
    6.8050    7.7653    0.4733 C   0  0  0  0  0  0  0  0  0  0  0  0
    6.2131    8.5377    0.5912 H   0  0  0  0  0  0  0  0  0  0  0  0
    6.3996    7.1380   -0.1616 H   0  0  0  0  0  0  0  0  0  0  0  0
    7.6708    8.0676    0.1281 H   0  0  0  0  0  0  0  0  0  0  0  0
    7.0072    7.0756    1.8074 C   0  0  0  0  0  0  0  0  0  0  0  0
    5.6598    6.7922    2.4523 C   0  0  0  0  0  0  0  0  0  0  0  0
    5.7970    6.3397    3.3105 H   0  0  0  0  0  0  0  0  0  0  0  0
    5.1287    6.2173    1.8621 H   0  0  0  0  0  0  0  0  0  0  0  0
    5.1846    7.6359    2.6011 H   0  0  0  0  0  0  0  0  0  0  0  0
    9.0586    5.9803    0.7330 C   0  0  0  0  0  0  0  0  0  0  0  0
    9.5112    6.8430    0.8375 H   0  0  0  0  0  0  0  0  0  0  0  0
    8.6683    5.9234   -0.1636 H   0  0  0  0  0  0  0  0  0  0  0  0
    9.7057    5.2554    0.8532 H   0  0  0  0  0  0  0  0  0  0  0  0
    7.9551    5.8552    1.7750 C   0  0  0  0  0  0  0  0  0  0  0  0
    7.2600    4.5085    1.6353 C   0  0  0  0  0  0  0  0  0  0  0  0
    7.9224    3.7901    1.7084 H   0  0  0  0  0  0  0  0  0  0  0  0
    6.8184    4.4586    0.7626 H   0  0  0  0  0  0  0  0  0  0  0  0
    6.5919    4.4113    2.3449 H   0  0  0  0  0  0  0  0  0  0  0  0
    4.7574    6.2764    6.4133 C   0  0  0  0  0  0  0  0  0  0  0  0
    4.2539    7.1147    6.4791 H   0  0  0  0  0  0  0  0  0  0  0  0
    4.3352    5.5962    6.9776 H   0  0  0  0  0  0  0  0  0  0  0  0
    4.7639    5.9723    5.4820 H   0  0  0  0  0  0  0  0  0  0  0  0
    6.1887    6.5072    6.8805 C   0  0  0  0  0  0  0  0  0  0  0  0
    6.1963    7.2027    8.2279 C   0  0  0  0  0  0  0  0  0  0  0  0
    7.1214    7.3059    8.5363 H   0  0  0  0  0  0  0  0  0  0  0  0
    5.6939    6.6661    8.8752 H   0  0  0  0  0  0  0  0  0  0  0  0
    5.7805    8.0852    8.1422 H   0  0  0  0  0  0  0  0  0  0  0  0
    6.7552    4.3255    5.6694 C   0  0  0  0  0  0  0  0  0  0  0  0
    6.7436    4.8380    4.8337 H   0  0  0  0  0  0  0  0  0  0  0  0
    5.8734    3.9252    5.8189 H   0  0  0  0  0  0  0  0  0  0  0  0
    7.4291    3.6177    5.6101 H   0  0  0  0  0  0  0  0  0  0  0  0
    7.0924    5.2490    6.8251 C   0  0  0  0  0  0  0  0  0  0  0  0
    7.1702    4.4658    8.1270 C   0  0  0  0  0  0  0  0  0  0  0  0
    7.7052    3.6571    7.9905 H   0  0  0  0  0  0  0  0  0  0  0  0
    6.2665    4.2143    8.4121 H   0  0  0  0  0  0  0  0  0  0  0  0
    7.5874    5.0215    8.8181 H   0  0  0  0  0  0  0  0  0  0  0  0
    8.5810    7.2499    3.4849 B   0  0  0  0  0  0  0  0  0  0  0  0
    8.2059    7.0481    5.8938 B   0  0  0  0  0  0  0  0  0  0  0  0
  1  2  1  0  0  0  0
  3  1  1  0  0  0  0
  4  1  1  0  0  0  0
  5  1  1  0  0  0  0
  6  1  1  0  0  0  0
  7 61  1  0  0  0  0
  8 70  1  0  0  0  0
  9 79  1  0  0  0  0
 10 88  1  0  0  0  0
 11  5  1  0  0  0  0
 12 11  1  0  0  0  0
 13 11  1  0  0  0  0
 14  6  1  0  0  0  0
 15 14  1  0  0  0  0
 16 14  1  0  0  0  0
 17 18  1  0  0  0  0
 19 17  1  0  0  0  0
 20 17  1  0  0  0  0
 21  5  1  0  0  0  0
 22 21  1  0  0  0  0
 23 21  1  0  0  0  0
 24 23  1  0  0  0  0
 25 23  1  0  0  0  0
 26 23  1  0  0  0  0
 27 28  1  0  0  0  0
 29 27  1  0  0  0  0
 30 27  1  0  0  0  0
 31  5  1  0  0  0  0
 32 31  1  0  0  0  0
 33 31  1  0  0  0  0
 34 33  1  0  0  0  0
 35 33  1  0  0  0  0
 36 33  1  0  0  0  0
 37 38  1  0  0  0  0
 39 37  1  0  0  0  0
 40 37  1  0  0  0  0
 41  6  1  0  0  0  0
 42 41  1  0  0  0  0
 43 41  1  0  0  0  0
 44 43  1  0  0  0  0
 45 43  1  0  0  0  0
 46 43  1  0  0  0  0
 47 48  1  0  0  0  0
 49 47  1  0  0  0  0
 50 47  1  0  0  0  0
 51  6  1  0  0  0  0
 52 51  1  0  0  0  0
 53 51  1  0  0  0  0
 54 53  1  0  0  0  0
 55 53  1  0  0  0  0
 56 53  1  0  0  0  0
 57 58  1  0  0  0  0
 59 57  1  0  0  0  0
 60 57  1  0  0  0  0
 61 57  1  0  0  0  0
 62 61  1  0  0  0  0
 63 62  1  0  0  0  0
 64 62  1  0  0  0  0
 65 62  1  0  0  0  0
 66 67  1  0  0  0  0
 68 66  1  0  0  0  0
 69 66  1  0  0  0  0
 70 61  1  0  0  0  0
 71 70  1  0  0  0  0
 72 71  1  0  0  0  0
 73 71  1  0  0  0  0
 74 71  1  0  0  0  0
 75 76  1  0  0  0  0
 77 75  1  0  0  0  0
 78 75  1  0  0  0  0
 79 75  1  0  0  0  0
 80 79  1  0  0  0  0
 81 80  1  0  0  0  0
 82 80  1  0  0  0  0
 83 80  1  0  0  0  0
 84 85  1  0  0  0  0
 86 84  1  0  0  0  0
 87 84  1  0  0  0  0
 88 79  1  0  0  0  0
 89 88  1  0  0  0  0
 90 89  1  0  0  0  0
 91 89  1  0  0  0  0
 92 89  1  0  0  0  0
 93  1  1  0  0  0  0
 94  1  1  0  0  0  0
  7 93  1  0  0  0  0
  8 93  1  0  0  0  0
  9 94  1  0  0  0  0
 10 94  1  0  0  0  0
 11 14  1  0  0  0  0
 17 21  1  0  0  0  0
 27 31  1  0  0  0  0
 37 41  1  0  0  0  0
 47 51  1  0  0  0  0
 66 70  1  0  0  0  0
 84 88  1  0  0  0  0
M  END
$$$$
WUZZUM

From CSD data. Using bond type 'Any'. No disordered atoms. Largest molecule.
154160  0  0  0  0  0  0  0  0999 V2000
    1.1804    1.1266   28.1269 P   0  0  0  0  0  0  0  0  0  0  0  0
    1.2028    3.1481   24.8920 P   0  0  0  0  0  0  0  0  0  0  0  0
    1.7456    4.9547   28.1770 P   0  0  0  0  0  0  0  0  0  0  0  0
   -1.8031    3.5421   27.4746 P   0  0  0  0  0  0  0  0  0  0  0  0
    4.5902    7.6724   22.4368 P   0  0  0  0  0  0  0  0  0  0  0  0
    7.4750   10.1015   23.3127 P   0  0  0  0  0  0  0  0  0  0  0  0
    4.1102   11.5315   22.0298 P   0  0  0  0  0  0  0  0  0  0  0  0
    4.3081   -3.2358   25.5595 P   0  0  0  0  0  0  0  0  0  0  0  0
    0.5257    3.1949   27.1596 Al  0  0  0  0  0  0  0  0  0  0  0  0
    5.1178    9.8158   23.3322 Al  0  0  0  0  0  0  0  0  0  0  0  0
   -1.0389   -2.6327   24.6414 O   0  0  0  0  0  0  0  0  0  0  0  0
    6.5162    4.0976   26.0042 O   0  0  0  0  0  0  0  0  0  0  0  0
    0.5752    1.0389   29.8301 C   0  0  0  0  0  0  0  0  0  0  0  0
   -0.3849    1.0310   29.8296 H   0  0  0  0  0  0  0  0  0  0  0  0
    0.8894    1.8029   30.3192 H   0  0  0  0  0  0  0  0  0  0  0  0
    0.9017    0.2367   30.2448 H   0  0  0  0  0  0  0  0  0  0  0  0
    2.9942    1.1296   28.2930 C   0  0  0  0  0  0  0  0  0  0  0  0
    3.3960    1.1782   27.4213 H   0  0  0  0  0  0  0  0  0  0  0  0
    3.2775    0.3235   28.7300 H   0  0  0  0  0  0  0  0  0  0  0  0
    3.2668    1.8897   28.8130 H   0  0  0  0  0  0  0  0  0  0  0  0
    0.1165    2.0711   23.9123 C   0  0  0  0  0  0  0  0  0  0  0  0
    0.1656    1.1743   24.2514 H   0  0  0  0  0  0  0  0  0  0  0  0
    0.3989    2.0817   22.9943 H   0  0  0  0  0  0  0  0  0  0  0  0
   -0.7876    2.3867   23.9736 H   0  0  0  0  0  0  0  0  0  0  0  0
    0.9681    4.7972   24.1623 C   0  0  0  0  0  0  0  0  0  0  0  0
    1.5280    5.4310   24.6179 H   0  0  0  0  0  0  0  0  0  0  0  0
    0.0505    5.0602   24.2514 H   0  0  0  0  0  0  0  0  0  0  0  0
    1.2037    4.7722   23.2320 H   0  0  0  0  0  0  0  0  0  0  0  0
    1.7012    4.7275   29.9865 C   0  0  0  0  0  0  0  0  0  0  0  0
    2.1651    3.9200   30.2190 H   0  0  0  0  0  0  0  0  0  0  0  0
    0.7903    4.6683   30.2791 H   0  0  0  0  0  0  0  0  0  0  0  0
    2.1269    5.4744   30.4137 H   0  0  0  0  0  0  0  0  0  0  0  0
    0.8395    6.5185   27.9388 C   0  0  0  0  0  0  0  0  0  0  0  0
    0.8060    6.7289   27.0033 H   0  0  0  0  0  0  0  0  0  0  0  0
    1.2899    7.2233   28.4093 H   0  0  0  0  0  0  0  0  0  0  0  0
   -0.0536    6.4251   28.2775 H   0  0  0  0  0  0  0  0  0  0  0  0
   -2.3808    4.9589   26.4844 C   0  0  0  0  0  0  0  0  0  0  0  0
   -1.9478    5.7597   26.7885 H   0  0  0  0  0  0  0  0  0  0  0  0
   -3.3322    5.0523   26.5852 H   0  0  0  0  0  0  0  0  0  0  0  0
   -2.1711    4.8103   25.5600 H   0  0  0  0  0  0  0  0  0  0  0  0
   -2.7174    2.1369   26.7770 C   0  0  0  0  0  0  0  0  0  0  0  0
   -2.4752    1.3334   27.2438 H   0  0  0  0  0  0  0  0  0  0  0  0
   -2.4997    2.0448   25.8464 H   0  0  0  0  0  0  0  0  0  0  0  0
   -3.6607    2.2894   26.8715 H   0  0  0  0  0  0  0  0  0  0  0  0
    2.7935    7.6428   22.1352 C   0  0  0  0  0  0  0  0  0  0  0  0
    2.3270    7.7309   22.9714 H   0  0  0  0  0  0  0  0  0  0  0  0
    2.5524    6.8118   21.7200 H   0  0  0  0  0  0  0  0  0  0  0  0
    2.5535    8.3700   21.5568 H   0  0  0  0  0  0  0  0  0  0  0  0
    5.3106    7.5337   20.7693 C   0  0  0  0  0  0  0  0  0  0  0  0
    6.2687    7.5258   20.8352 H   0  0  0  0  0  0  0  0  0  0  0  0
    5.0321    8.2832   20.2396 H   0  0  0  0  0  0  0  0  0  0  0  0
    5.0092    6.7197   20.3598 H   0  0  0  0  0  0  0  0  0  0  0  0
    8.2261    8.4752   23.6214 C   0  0  0  0  0  0  0  0  0  0  0  0
    7.9965    8.1794   24.5062 H   0  0  0  0  0  0  0  0  0  0  0  0
    9.1803    8.5436   23.5441 H   0  0  0  0  0  0  0  0  0  0  0  0
    7.8969    7.8427   22.9771 H   0  0  0  0  0  0  0  0  0  0  0  0
    8.0245   10.4925   21.6226 C   0  0  0  0  0  0  0  0  0  0  0  0
    7.6699   11.3459   21.3621 H   0  0  0  0  0  0  0  0  0  0  0  0
    7.7091    9.8165   21.0184 H   0  0  0  0  0  0  0  0  0  0  0  0
    8.9827   10.5227   21.5969 H   0  0  0  0  0  0  0  0  0  0  0  0
    4.9774   13.0922   22.3729 C   0  0  0  0  0  0  0  0  0  0  0  0
    5.8934   13.0186   22.0923 H   0  0  0  0  0  0  0  0  0  0  0  0
    4.9444   13.2763   23.3150 H   0  0  0  0  0  0  0  0  0  0  0  0
    4.5529   13.8076   21.8918 H   0  0  0  0  0  0  0  0  0  0  0  0
    2.4144   11.8574   22.6220 C   0  0  0  0  0  0  0  0  0  0  0  0
    1.8724   11.0776   22.4817 H   0  0  0  0  0  0  0  0  0  0  0  0
    2.0426   12.5965   22.1352 H   0  0  0  0  0  0  0  0  0  0  0  0
    2.4380   12.0705   23.5555 H   0  0  0  0  0  0  0  0  0  0  0  0
    4.5639   -1.5451   26.1788 C   0  0  0  0  0  0  0  0  0  0  0  0
    4.0253   -0.9337   25.6717 H   0  0  0  0  0  0  0  0  0  0  0  0
    5.4890   -1.3084   26.0898 H   0  0  0  0  0  0  0  0  0  0  0  0
    4.3108   -1.5017   27.1035 H   0  0  0  0  0  0  0  0  0  0  0  0
    5.3722   -4.2475   26.6161 C   0  0  0  0  0  0  0  0  0  0  0  0
    5.3026   -5.1680   26.3532 H   0  0  0  0  0  0  0  0  0  0  0  0
    5.0971   -4.1541   27.5301 H   0  0  0  0  0  0  0  0  0  0  0  0
    6.2830   -3.9569   26.5250 H   0  0  0  0  0  0  0  0  0  0  0  0
   -1.5126   -3.7451   23.8763 C   0  0  0  0  0  0  0  0  0  0  0  0
   -1.6965   -1.4084   24.3516 C   0  0  0  0  0  0  0  0  0  0  0  0
   -1.3285   -0.7101   24.8957 H   0  0  0  0  0  0  0  0  0  0  0  0
   -2.6345   -1.4991   24.5349 H   0  0  0  0  0  0  0  0  0  0  0  0
   -1.5710   -1.1901   23.4238 H   0  0  0  0  0  0  0  0  0  0  0  0
   -3.0053   -3.9437   24.0681 C   0  0  0  0  0  0  0  0  0  0  0  0
   -3.1892   -4.1002   24.9959 H   0  0  0  0  0  0  0  0  0  0  0  0
   -3.2959   -4.6998   23.5527 H   0  0  0  0  0  0  0  0  0  0  0  0
   -3.4722   -3.1587   23.7760 H   0  0  0  0  0  0  0  0  0  0  0  0
   -0.7479   -4.9405   24.4375 C   0  0  0  0  0  0  0  0  0  0  0  0
    0.1938   -4.8050   24.3115 H   0  0  0  0  0  0  0  0  0  0  0  0
   -1.0213   -5.7387   23.9793 H   0  0  0  0  0  0  0  0  0  0  0  0
   -0.9375   -5.0286   25.3739 H   0  0  0  0  0  0  0  0  0  0  0  0
   -1.2216   -3.5255   22.4015 C   0  0  0  0  0  0  0  0  0  0  0  0
   -0.2784   -3.3993   22.2755 H   0  0  0  0  0  0  0  0  0  0  0  0
   -1.6927   -2.7457   22.0951 H   0  0  0  0  0  0  0  0  0  0  0  0
   -1.5123   -4.2909   21.9004 H   0  0  0  0  0  0  0  0  0  0  0  0
    7.4035    3.0679   25.7748 C   0  0  0  0  0  0  0  0  0  0  0  0
    7.0753    5.1601   26.8601 C   0  0  0  0  0  0  0  0  0  0  0  0
    6.4175    5.8452   26.9918 H   0  0  0  0  0  0  0  0  0  0  0  0
    7.8491    5.5388   26.4334 H   0  0  0  0  0  0  0  0  0  0  0  0
    7.3275    4.7893   27.7077 H   0  0  0  0  0  0  0  0  0  0  0  0
    7.5653    2.2539   26.9947 C   0  0  0  0  0  0  0  0  0  0  0  0
    6.7069    1.9410   27.2867 H   0  0  0  0  0  0  0  0  0  0  0  0
    7.9648    2.7878   27.6848 H   0  0  0  0  0  0  0  0  0  0  0  0
    8.1306    1.5017   26.8028 H   0  0  0  0  0  0  0  0  0  0  0  0
    6.6147    2.2631   24.6380 C   0  0  0  0  0  0  0  0  0  0  0  0
    6.5224    2.8154   23.8591 H   0  0  0  0  0  0  0  0  0  0  0  0
    5.7444    2.0199   24.9615 H   0  0  0  0  0  0  0  0  0  0  0  0
    7.1030    1.4689   24.4117 H   0  0  0  0  0  0  0  0  0  0  0  0
    8.7237    3.5400   25.2508 C   0  0  0  0  0  0  0  0  0  0  0  0
    8.5847    4.0568   24.4547 H   0  0  0  0  0  0  0  0  0  0  0  0
    9.2763    2.7812   25.0474 H   0  0  0  0  0  0  0  0  0  0  0  0
    9.1555    4.0818   25.9151 H   0  0  0  0  0  0  0  0  0  0  0  0
    0.5860   -0.4353   27.1865 B   0  0  0  0  0  0  0  0  0  0  0  0
    3.0326    2.5248   24.6781 B   0  0  0  0  0  0  0  0  0  0  0  0
    3.5711    5.2166   27.5674 B   0  0  0  0  0  0  0  0  0  0  0  0
   -2.2588    3.8267   29.3256 B   0  0  0  0  0  0  0  0  0  0  0  0
    5.1169    6.1201   23.4782 B   0  0  0  0  0  0  0  0  0  0  0  0
    8.2038   11.3827   24.5492 B   0  0  0  0  0  0  0  0  0  0  0  0
    4.0659   11.2539   20.1250 B   0  0  0  0  0  0  0  0  0  0  0  0
    2.4750   -3.7859   25.7834 B   0  0  0  0  0  0  0  0  0  0  0  0
    1.0354   -0.5313   26.1785 H   0  0  0  0  0  0  0  0  0  0  0  0
   -0.5701   -0.5023   27.2409 H   0  0  0  0  0  0  0  0  0  0  0  0
    0.8772   -1.2111   27.8280 H   0  0  0  0  0  0  0  0  0  0  0  0
    3.6821    3.1100   25.3080 H   0  0  0  0  0  0  0  0  0  0  0  0
    3.0867    1.3453   24.5034 H   0  0  0  0  0  0  0  0  0  0  0  0
    3.3343    2.8168   23.6873 H   0  0  0  0  0  0  0  0  0  0  0  0
    4.0687    4.2856   27.5645 H   0  0  0  0  0  0  0  0  0  0  0  0
    3.9392    5.9649   28.1888 H   0  0  0  0  0  0  0  0  0  0  0  0
    3.3985    5.5546   26.3303 H   0  0  0  0  0  0  0  0  0  0  0  0
   -3.2596    3.9595   29.2941 H   0  0  0  0  0  0  0  0  0  0  0  0
   -1.9749    4.9181   29.8067 H   0  0  0  0  0  0  0  0  0  0  0  0
   -1.7884    3.1192   29.9269 H   0  0  0  0  0  0  0  0  0  0  0  0
    6.3314    6.0227   23.5469 H   0  0  0  0  0  0  0  0  0  0  0  0
    4.4842    6.2923   24.4060 H   0  0  0  0  0  0  0  0  0  0  0  0
    4.6086    5.0943   23.0888 H   0  0  0  0  0  0  0  0  0  0  0  0
    9.1810   11.6549   24.4747 H   0  0  0  0  0  0  0  0  0  0  0  0
    7.6357   12.3861   24.3287 H   0  0  0  0  0  0  0  0  0  0  0  0
    7.6707   11.2604   25.4426 H   0  0  0  0  0  0  0  0  0  0  0  0
    3.4532   10.2807   19.8902 H   0  0  0  0  0  0  0  0  0  0  0  0
    5.2626   11.2854   19.7499 H   0  0  0  0  0  0  0  0  0  0  0  0
    3.5202   11.9350   19.4979 H   0  0  0  0  0  0  0  0  0  0  0  0
    2.2001   -3.6176   26.9116 H   0  0  0  0  0  0  0  0  0  0  0  0
    1.7869   -3.1402   24.8327 H   0  0  0  0  0  0  0  0  0  0  0  0
    2.1487   -4.9365   25.5142 H   0  0  0  0  0  0  0  0  0  0  0  0
    0.1513   -2.6813   26.2931 Li  0  0  0  0  0  0  0  0  0  0  0  0
    4.7325    4.4460   25.3481 Li  0  0  0  0  0  0  0  0  0  0  0  0
    5.1178   -3.3343   23.3322 Al  0  0  0  0  0  0  0  0  0  0  0  0
    4.3081    9.9143   25.5595 P   0  0  0  0  0  0  0  0  0  0  0  0
   -3.9302    2.6813   30.9779 Li  0  0  0  0  0  0  0  0  0  0  0  0
   -0.5192   -3.9595   27.9769 H   0  0  0  0  0  0  0  0  0  0  0  0
   -1.9904   -3.1192   27.3440 H   0  0  0  0  0  0  0  0  0  0  0  0
   -4.8143    0.5313   31.0924 H   0  0  0  0  0  0  0  0  0  0  0  0
   -3.2087    0.5023   30.0300 H   0  0  0  0  0  0  0  0  0  0  0  0
   -4.6561    1.2111   29.4430 H   0  0  0  0  0  0  0  0  0  0  0  0
   -5.9790    3.6176   30.3593 H   0  0  0  0  0  0  0  0  0  0  0  0
   -5.5657    3.1402   32.4383 H   0  0  0  0  0  0  0  0  0  0  0  0
  1  9  1  0  0  0  0
  2  9  1  0  0  0  0
  3  9  1  0  0  0  0
  4  9  1  0  0  0  0
  5 10  1  0  0  0  0
  6 10  1  0  0  0  0
  7 10  1  0  0  0  0
  8 69  1  0  0  0  0
 10146  8  0  0  0  0
 11 77  1  0  0  0  0
 12 94  1  0  0  0  0
 13  1  1  0  0  0  0
 14 13  1  0  0  0  0
 15 13  1  0  0  0  0
 16 13  1  0  0  0  0
 17  1  1  0  0  0  0
 18 17  1  0  0  0  0
 19 17  1  0  0  0  0
 20 17  1  0  0  0  0
 21  2  1  0  0  0  0
 22 21  1  0  0  0  0
 23 21  1  0  0  0  0
 24 21  1  0  0  0  0
 25  2  1  0  0  0  0
 26 25  1  0  0  0  0
 27 25  1  0  0  0  0
 28 25  1  0  0  0  0
 29  3  1  0  0  0  0
 30 29  1  0  0  0  0
 31 29  1  0  0  0  0
 32 29  1  0  0  0  0
 33  3  1  0  0  0  0
 34 33  1  0  0  0  0
 35 33  1  0  0  0  0
 36 33  1  0  0  0  0
 37  4  1  0  0  0  0
 38 37  1  0  0  0  0
 39 37  1  0  0  0  0
 40 37  1  0  0  0  0
 41  4  1  0  0  0  0
 42 41  1  0  0  0  0
 43 41  1  0  0  0  0
 44 41  1  0  0  0  0
 45  5  1  0  0  0  0
 46 45  1  0  0  0  0
 47 45  1  0  0  0  0
 48 45  1  0  0  0  0
 49  5  1  0  0  0  0
 50 49  1  0  0  0  0
 51 49  1  0  0  0  0
 52 49  1  0  0  0  0
 53  6  1  0  0  0  0
 54 53  1  0  0  0  0
 55 53  1  0  0  0  0
 56 53  1  0  0  0  0
 57  6  1  0  0  0  0
 58 57  1  0  0  0  0
 59 57  1  0  0  0  0
 60 57  1  0  0  0  0
 61  7  1  0  0  0  0
 62 61  1  0  0  0  0
 63 61  1  0  0  0  0
 64 61  1  0  0  0  0
 65  7  1  0  0  0  0
 66 65  1  0  0  0  0
 67 65  1  0  0  0  0
 68 65  1  0  0  0  0
 69 70  1  0  0  0  0
 71 69  1  0  0  0  0
 72 69  1  0  0  0  0
 73  8  1  0  0  0  0
 74 73  1  0  0  0  0
 75 73  1  0  0  0  0
 76 73  1  0  0  0  0
 77 82  1  0  0  0  0
 78 11  1  0  0  0  0
 79 78  1  0  0  0  0
 80 78  1  0  0  0  0
 81 78  1  0  0  0  0
 82 83  1  0  0  0  0
 84 82  1  0  0  0  0
 85 82  1  0  0  0  0
 86 77  1  0  0  0  0
 87 86  1  0  0  0  0
 88 86  1  0  0  0  0
 89 86  1  0  0  0  0
 90 77  1  0  0  0  0
 91 90  1  0  0  0  0
 92 90  1  0  0  0  0
 93 90  1  0  0  0  0
 94 99  1  0  0  0  0
 95 12  1  0  0  0  0
 96 95  1  0  0  0  0
 97 95  1  0  0  0  0
 98 95  1  0  0  0  0
 99100  1  0  0  0  0
101 99  1  0  0  0  0
102 99  1  0  0  0  0
103 94  1  0  0  0  0
104103  1  0  0  0  0
105103  1  0  0  0  0
106103  1  0  0  0  0
107 94  1  0  0  0  0
108107  1  0  0  0  0
109107  1  0  0  0  0
110107  1  0  0  0  0
111  1  1  0  0  0  0
112  2  1  0  0  0  0
113  3  1  0  0  0  0
114  4  1  0  0  0  0
115  5  1  0  0  0  0
116  6  1  0  0  0  0
117  7  1  0  0  0  0
118  8  1  0  0  0  0
119111  1  0  0  0  0
120111  1  0  0  0  0
121111  1  0  0  0  0
122112  1  0  0  0  0
123112  1  0  0  0  0
124112  1  0  0  0  0
125113  1  0  0  0  0
126113  1  0  0  0  0
127113  1  0  0  0  0
128114  1  0  0  0  0
129114  1  0  0  0  0
130114  1  0  0  0  0
131115  1  0  0  0  0
132115  1  0  0  0  0
133115  1  0  0  0  0
134116  1  0  0  0  0
135116  1  0  0  0  0
136116  1  0  0  0  0
137117  1  0  0  0  0
138117  1  0  0  0  0
139117  1  0  0  0  0
140118  1  0  0  0  0
141118  1  0  0  0  0
142118  1  0  0  0  0
143 11  1  0  0  0  0
144 12  1  0  0  0  0
145  8  8  0  0  0  0
147128  8  0  0  0  0
148143  8  0  0  0  0
149143  8  0  0  0  0
150147  1  0  0  0  0
151147  1  0  0  0  0
152147  1  0  0  0  0
153147  1  0  0  0  0
154147  1  0  0  0  0
119143  1  0  0  0  0
120143  1  0  0  0  0
121143  1  0  0  0  0
122144  1  0  0  0  0
125144  1  0  0  0  0
127144  1  0  0  0  0
130147  8  0  0  0  0
132144  1  0  0  0  0
133144  1  0  0  0  0
140143  1  0  0  0  0
141143  1  0  0  0  0
M  END
$$$$
XACVAB

From CSD data. Using bond type 'Any'. No disordered atoms. Largest molecule.
218230  0  0  0  0  0  0  0  0999 V2000
   20.8093    6.0615    0.0000 P   0  3  0  0  0  0  0  0  0  0  0  0
   18.8163    4.0685    0.0000 P   0  5  0  0  0  0  0  0  0  0  0  0
   14.7183    1.9762   -1.3909 F   0  0  0  0  0  0  0  0  0  0  0  0
   18.2430    6.7412   -0.7298 O   0  0  0  0  0  0  0  0  0  0  0  0
   14.2154    6.4345   -5.4717 F   0  0  0  0  0  0  0  0  0  0  0  0
   19.1205    6.6100   -3.1876 F   0  0  0  0  0  0  0  0  0  0  0  0
   14.4145    6.7810   -2.8297 F   0  0  0  0  0  0  0  0  0  0  0  0
   16.4467    6.1572   -6.9977 F   0  0  0  0  0  0  0  0  0  0  0  0
   18.9052    6.2398   -5.7998 F   0  0  0  0  0  0  0  0  0  0  0  0
   15.7300    4.0704   -2.6275 F   0  0  0  0  0  0  0  0  0  0  0  0
   16.4541    6.1720    1.5365 F   0  0  0  0  0  0  0  0  0  0  0  0
   14.6490    1.8553    1.3375 F   0  0  0  0  0  0  0  0  0  0  0  0
   17.8906    9.2749   -1.5679 F   0  0  0  0  0  0  0  0  0  0  0  0
   13.0828    9.3929    0.9108 F   0  0  0  0  0  0  0  0  0  0  0  0
   16.8302   11.6065   -0.8231 F   0  0  0  0  0  0  0  0  0  0  0  0
   14.4145   11.6817    0.4166 F   0  0  0  0  0  0  0  0  0  0  0  0
   14.0502    7.0553    0.1452 F   0  0  0  0  0  0  0  0  0  0  0  0
   15.6563    3.9524    2.7602 F   0  0  0  0  0  0  0  0  0  0  0  0
   19.0055    5.8047   -0.3418 C   0  0  0  0  0  0  0  0  0  0  0  0
   15.4572    6.4728   -4.9019 C   0  0  0  0  0  0  0  0  0  0  0  0
   15.5575    6.6734   -3.5507 C   0  0  0  0  0  0  0  0  0  0  0  0
   16.7653    6.6483   -2.8671 C   0  0  0  0  0  0  0  0  0  0  0  0
   17.8522    6.5657   -3.7116 C   0  0  0  0  0  0  0  0  0  0  0  0
   16.5485    6.3416   -5.6739 C   0  0  0  0  0  0  0  0  0  0  0  0
   15.6769    4.1648   -1.2908 C   0  0  0  0  0  0  0  0  0  0  0  0
   16.1061    5.2591   -0.5992 C   0  0  0  0  0  0  0  0  0  0  0  0
   16.0382    5.1514    0.7439 C   0  0  0  0  0  0  0  0  0  0  0  0
   15.5737    4.0203    1.4316 C   0  0  0  0  0  0  0  0  0  0  0  0
   15.1652    3.0218   -0.6796 C   0  0  0  0  0  0  0  0  0  0  0  0
   14.9587   10.5299    0.0563 C   0  0  0  0  0  0  0  0  0  0  0  0
   14.2714    9.3545    0.3016 C   0  0  0  0  0  0  0  0  0  0  0  0
   14.8348    8.1541   -0.0804 C   0  0  0  0  0  0  0  0  0  0  0  0
   16.0368    8.0287   -0.6957 C   0  0  0  0  0  0  0  0  0  0  0  0
   17.7799    6.3961   -5.0627 C   0  0  0  0  0  0  0  0  0  0  0  0
   16.7476    6.6468   -1.2345 B   0  5  0  0  0  0  0  0  0  0  0  0
   16.6812    9.2424   -0.9249 C   0  0  0  0  0  0  0  0  0  0  0  0
   16.1547   10.4886   -0.5630 C   0  0  0  0  0  0  0  0  0  0  0  0
   15.1121    2.9702    0.7077 C   0  0  0  0  0  0  0  0  0  0  0  0
   21.1889    7.3251    1.8744 Au  0  3  0  0  0  0  0  0  0  0  0  0
   17.0204    7.9387    3.9931 C   0  0  0  0  0  0  0  0  0  0  0  0
   16.4512    7.2500    4.2504 H   0  0  0  0  0  0  0  0  0  0  0  0
   21.5583    8.3900    3.5865 C   0  0  0  0  0  0  0  0  0  0  0  0
   22.8886    8.5773    4.2637 C   0  0  0  0  0  0  0  0  0  0  0  0
   23.4416    7.1837    4.7289 C   0  0  0  0  0  0  0  0  0  0  0  0
   24.0905    7.3415    5.4327 H   0  0  0  0  0  0  0  0  0  0  0  0
   22.7072    6.6867    5.1190 H   0  0  0  0  0  0  0  0  0  0  0  0
   24.0787    6.3239    3.7116 C   0  0  0  0  0  0  0  0  0  0  0  0
   23.3944    6.0599    3.0601 H   0  0  0  0  0  0  0  0  0  0  0  0
   24.6568    5.0659    4.3228 C   0  0  0  0  0  0  0  0  0  0  0  0
   25.3544    5.3018    4.9421 H   0  0  0  0  0  0  0  0  0  0  0  0
   25.0196    4.5084    3.6312 H   0  0  0  0  0  0  0  0  0  0  0  0
   23.9666    4.5895    4.7893 H   0  0  0  0  0  0  0  0  0  0  0  0
   25.1774    7.1261    2.9556 C   0  0  0  0  0  0  0  0  0  0  0  0
   25.8912    7.3562    3.5708 H   0  0  0  0  0  0  0  0  0  0  0  0
   25.5535    6.5790    2.2479 H   0  0  0  0  0  0  0  0  0  0  0  0
   24.5920    8.3974    2.3605 C   0  0  0  0  0  0  0  0  0  0  0  0
   23.9180    8.1511    1.7050 H   0  0  0  0  0  0  0  0  0  0  0  0
   25.2940    8.8738    1.8900 H   0  0  0  0  0  0  0  0  0  0  0  0
   23.9608    9.3354    3.3818 C   0  0  0  0  0  0  0  0  0  0  0  0
   24.6834    9.5713    3.9971 H   0  0  0  0  0  0  0  0  0  0  0  0
   23.4667   10.6789    2.7947 C   0  0  0  0  0  0  0  0  0  0  0  0
   22.7013   10.9738    3.3336 H   0  0  0  0  0  0  0  0  0  0  0  0
   24.5374   11.7407    2.8993 C   0  0  0  0  0  0  0  0  0  0  0  0
   25.3456   11.4207    2.4932 H   0  0  0  0  0  0  0  0  0  0  0  0
   24.7011   11.9398    3.8242 H   0  0  0  0  0  0  0  0  0  0  0  0
   24.2439   12.5356    2.4489 H   0  0  0  0  0  0  0  0  0  0  0  0
   23.0243   10.6273    1.3592 C   0  0  0  0  0  0  0  0  0  0  0  0
   22.6364   11.4708    1.1139 H   0  0  0  0  0  0  0  0  0  0  0  0
   22.3739    9.9297    1.2506 H   0  0  0  0  0  0  0  0  0  0  0  0
   23.7823   10.4503    0.7962 H   0  0  0  0  0  0  0  0  0  0  0  0
   22.5287    9.4578    5.5251 C   0  0  0  0  0  0  0  0  0  0  0  0
   22.8797    9.0434    6.3294 H   0  0  0  0  0  0  0  0  0  0  0  0
   22.9240   10.3397    5.4407 H   0  0  0  0  0  0  0  0  0  0  0  0
   21.0186    9.5698    5.6176 C   0  0  0  0  0  0  0  0  0  0  0  0
   20.5850    8.9121    4.2858 N   0  0  0  0  0  0  0  0  0  0  0  0
   19.1825    8.9165    3.8885 C   0  0  0  0  0  0  0  0  0  0  0  0
   18.6958    9.9946    3.1325 C   0  0  0  0  0  0  0  0  0  0  0  0
   17.3301   10.0211    2.8711 C   0  0  0  0  0  0  0  0  0  0  0  0
   16.9673   10.7261    2.3886 H   0  0  0  0  0  0  0  0  0  0  0  0
   16.4969    8.9917    3.3376 C   0  0  0  0  0  0  0  0  0  0  0  0
   15.5796    9.0360    3.1928 H   0  0  0  0  0  0  0  0  0  0  0  0
   18.3625    7.8311    4.3027 C   0  0  0  0  0  0  0  0  0  0  0  0
   18.8374    6.5421    4.8777 C   0  0  0  0  0  0  0  0  0  0  0  0
   19.8019    6.6114    5.0386 H   0  0  0  0  0  0  0  0  0  0  0  0
   18.5926    5.3962    3.8845 C   0  0  0  0  0  0  0  0  0  0  0  0
   17.6502    5.2369    3.8041 H   0  0  0  0  0  0  0  0  0  0  0  0
   19.0261    4.5998    4.1981 H   0  0  0  0  0  0  0  0  0  0  0  0
   18.9509    5.6366    3.0239 H   0  0  0  0  0  0  0  0  0  0  0  0
   19.5364   11.0210    2.4932 C   0  0  0  0  0  0  0  0  0  0  0  0
   20.4478   10.9281    2.8430 H   0  0  0  0  0  0  0  0  0  0  0  0
   19.5836   10.8234    1.0013 C   0  0  0  0  0  0  0  0  0  0  0  0
   20.0614   10.0138    0.8002 H   0  0  0  0  0  0  0  0  0  0  0  0
   20.0319   11.5682    0.5911 H   0  0  0  0  0  0  0  0  0  0  0  0
   18.6899   10.7600    0.6555 H   0  0  0  0  0  0  0  0  0  0  0  0
   20.4611    8.7440    6.7645 C   0  0  0  0  0  0  0  0  0  0  0  0
   20.7516    7.8326    6.6712 H   0  0  0  0  0  0  0  0  0  0  0  0
   19.5025    8.7779    6.7476 H   0  0  0  0  0  0  0  0  0  0  0  0
   20.7797    9.0979    7.6001 H   0  0  0  0  0  0  0  0  0  0  0  0
   20.5171   11.0004    5.6940 C   0  0  0  0  0  0  0  0  0  0  0  0
   20.7059   11.3588    6.5666 H   0  0  0  0  0  0  0  0  0  0  0  0
   19.5689   11.0166    5.5412 H   0  0  0  0  0  0  0  0  0  0  0  0
   20.9581   11.5298    5.0265 H   0  0  0  0  0  0  0  0  0  0  0  0
   18.1619    6.1808    6.1886 C   0  0  0  0  0  0  0  0  0  0  0  0
   18.3138    6.8784    6.8280 H   0  0  0  0  0  0  0  0  0  0  0  0
   18.5247    5.3564    6.5184 H   0  0  0  0  0  0  0  0  0  0  0  0
   17.2181    6.0805    6.0439 H   0  0  0  0  0  0  0  0  0  0  0  0
   19.0527   12.4722    2.7867 C   0  0  0  0  0  0  0  0  0  0  0  0
   18.1531   12.5813    2.4650 H   0  0  0  0  0  0  0  0  0  0  0  0
   19.6278   13.0990    2.3403 H   0  0  0  0  0  0  0  0  0  0  0  0
   19.0763   12.6330    3.7317 H   0  0  0  0  0  0  0  0  0  0  0  0
   16.7240   -0.0295    1.3909 F   0  0  0  0  0  0  0  0  0  0  0  0
   21.1823   -0.5324    5.4717 F   0  0  0  0  0  0  0  0  0  0  0  0
   21.3578    4.3727    3.1876 F   0  0  0  0  0  0  0  0  0  0  0  0
   21.5288   -0.3333    2.8297 F   0  0  0  0  0  0  0  0  0  0  0  0
   20.9050    1.6989    6.9977 F   0  0  0  0  0  0  0  0  0  0  0  0
   20.9876    4.1574    5.7998 F   0  0  0  0  0  0  0  0  0  0  0  0
   18.8182    0.9822    2.6275 F   0  0  0  0  0  0  0  0  0  0  0  0
   20.9198    1.7063   -1.5365 F   0  0  0  0  0  0  0  0  0  0  0  0
   16.6031   -0.0988   -1.3375 F   0  0  0  0  0  0  0  0  0  0  0  0
   24.0227    3.1428    1.5679 F   0  0  0  0  0  0  0  0  0  0  0  0
   24.1407   -1.6650   -0.9108 F   0  0  0  0  0  0  0  0  0  0  0  0
   26.3543    2.0824    0.8231 F   0  0  0  0  0  0  0  0  0  0  0  0
   26.4295   -0.3333   -0.4166 F   0  0  0  0  0  0  0  0  0  0  0  0
   21.8031   -0.6976   -0.1452 F   0  0  0  0  0  0  0  0  0  0  0  0
   18.7002    0.9085   -2.7602 F   0  0  0  0  0  0  0  0  0  0  0  0
   21.2206    0.7094    4.9019 C   0  0  0  0  0  0  0  0  0  0  0  0
   21.4212    0.8097    3.5507 C   0  0  0  0  0  0  0  0  0  0  0  0
   21.3961    2.0175    2.8671 C   0  0  0  0  0  0  0  0  0  0  0  0
   21.3135    3.1044    3.7116 C   0  0  0  0  0  0  0  0  0  0  0  0
   21.0894    1.8007    5.6739 C   0  0  0  0  0  0  0  0  0  0  0  0
   18.9126    0.9291    1.2908 C   0  0  0  0  0  0  0  0  0  0  0  0
   20.0069    1.3583    0.5992 C   0  0  0  0  0  0  0  0  0  0  0  0
   19.8992    1.2904   -0.7439 C   0  0  0  0  0  0  0  0  0  0  0  0
   18.7681    0.8259   -1.4316 C   0  0  0  0  0  0  0  0  0  0  0  0
   17.7696    0.4174    0.6796 C   0  0  0  0  0  0  0  0  0  0  0  0
   25.2777    0.2109   -0.0563 C   0  0  0  0  0  0  0  0  0  0  0  0
   24.1023   -0.4764   -0.3016 C   0  0  0  0  0  0  0  0  0  0  0  0
   22.9019    0.0870    0.0804 C   0  0  0  0  0  0  0  0  0  0  0  0
   22.7765    1.2890    0.6957 C   0  0  0  0  0  0  0  0  0  0  0  0
   21.1439    3.0321    5.0627 C   0  0  0  0  0  0  0  0  0  0  0  0
   21.3946    1.9998    1.2345 B   0  5  0  0  0  0  0  0  0  0  0  0
   23.9902    1.9334    0.9249 C   0  0  0  0  0  0  0  0  0  0  0  0
   25.2364    1.4069    0.5630 C   0  0  0  0  0  0  0  0  0  0  0  0
   17.7180    0.3643   -0.7077 C   0  0  0  0  0  0  0  0  0  0  0  0
   21.4890    3.4952    0.7298 O   0  0  0  0  0  0  0  0  0  0  0  0
   20.5525    4.2577    0.3418 C   0  0  0  0  0  0  0  0  0  0  0  0
   22.0729    6.4411   -1.8744 Au  0  3  0  0  0  0  0  0  0  0  0  0
   22.6865    2.2726   -3.9931 C   0  0  0  0  0  0  0  0  0  0  0  0
   21.9978    1.7034   -4.2504 H   0  0  0  0  0  0  0  0  0  0  0  0
   23.1378    6.8105   -3.5865 C   0  0  0  0  0  0  0  0  0  0  0  0
   23.3251    8.1408   -4.2637 C   0  0  0  0  0  0  0  0  0  0  0  0
   21.9315    8.6938   -4.7289 C   0  0  0  0  0  0  0  0  0  0  0  0
   22.0893    9.3427   -5.4327 H   0  0  0  0  0  0  0  0  0  0  0  0
   21.4345    7.9594   -5.1190 H   0  0  0  0  0  0  0  0  0  0  0  0
   21.0717    9.3309   -3.7116 C   0  0  0  0  0  0  0  0  0  0  0  0
   20.8077    8.6466   -3.0601 H   0  0  0  0  0  0  0  0  0  0  0  0
   19.8137    9.9090   -4.3228 C   0  0  0  0  0  0  0  0  0  0  0  0
   20.0496   10.6066   -4.9421 H   0  0  0  0  0  0  0  0  0  0  0  0
   19.2562   10.2718   -3.6312 H   0  0  0  0  0  0  0  0  0  0  0  0
   19.3373    9.2188   -4.7893 H   0  0  0  0  0  0  0  0  0  0  0  0
   21.8739   10.4296   -2.9556 C   0  0  0  0  0  0  0  0  0  0  0  0
   22.1040   11.1434   -3.5708 H   0  0  0  0  0  0  0  0  0  0  0  0
   21.3268   10.8057   -2.2479 H   0  0  0  0  0  0  0  0  0  0  0  0
   23.1452    9.8442   -2.3605 C   0  0  0  0  0  0  0  0  0  0  0  0
   22.8989    9.1702   -1.7050 H   0  0  0  0  0  0  0  0  0  0  0  0
   23.6216   10.5462   -1.8900 H   0  0  0  0  0  0  0  0  0  0  0  0
   24.0832    9.2130   -3.3818 C   0  0  0  0  0  0  0  0  0  0  0  0
   24.3191    9.9356   -3.9971 H   0  0  0  0  0  0  0  0  0  0  0  0
   25.4267    8.7189   -2.7947 C   0  0  0  0  0  0  0  0  0  0  0  0
   25.7216    7.9535   -3.3336 H   0  0  0  0  0  0  0  0  0  0  0  0
   26.4885    9.7896   -2.8993 C   0  0  0  0  0  0  0  0  0  0  0  0
   26.1685   10.5978   -2.4932 H   0  0  0  0  0  0  0  0  0  0  0  0
   26.6876    9.9533   -3.8242 H   0  0  0  0  0  0  0  0  0  0  0  0
   27.2834    9.4961   -2.4489 H   0  0  0  0  0  0  0  0  0  0  0  0
   25.3751    8.2765   -1.3592 C   0  0  0  0  0  0  0  0  0  0  0  0
   26.2186    7.8886   -1.1139 H   0  0  0  0  0  0  0  0  0  0  0  0
   24.6775    7.6261   -1.2506 H   0  0  0  0  0  0  0  0  0  0  0  0
   25.1981    9.0345   -0.7962 H   0  0  0  0  0  0  0  0  0  0  0  0
   24.2056    7.7809   -5.5251 C   0  0  0  0  0  0  0  0  0  0  0  0
   23.7912    8.1319   -6.3294 H   0  0  0  0  0  0  0  0  0  0  0  0
   25.0875    8.1762   -5.4407 H   0  0  0  0  0  0  0  0  0  0  0  0
   24.3176    6.2708   -5.6176 C   0  0  0  0  0  0  0  0  0  0  0  0
   23.6599    5.8372   -4.2858 N   0  0  0  0  0  0  0  0  0  0  0  0
   23.6643    4.4347   -3.8885 C   0  0  0  0  0  0  0  0  0  0  0  0
   24.7424    3.9480   -3.1325 C   0  0  0  0  0  0  0  0  0  0  0  0
   24.7689    2.5823   -2.8711 C   0  0  0  0  0  0  0  0  0  0  0  0
   25.4739    2.2195   -2.3886 H   0  0  0  0  0  0  0  0  0  0  0  0
   23.7395    1.7491   -3.3376 C   0  0  0  0  0  0  0  0  0  0  0  0
   23.7838    0.8318   -3.1928 H   0  0  0  0  0  0  0  0  0  0  0  0
   22.5789    3.6147   -4.3027 C   0  0  0  0  0  0  0  0  0  0  0  0
   21.2899    4.0896   -4.8777 C   0  0  0  0  0  0  0  0  0  0  0  0
   21.3592    5.0541   -5.0386 H   0  0  0  0  0  0  0  0  0  0  0  0
   20.1440    3.8448   -3.8845 C   0  0  0  0  0  0  0  0  0  0  0  0
   19.9847    2.9024   -3.8041 H   0  0  0  0  0  0  0  0  0  0  0  0
   19.3476    4.2783   -4.1981 H   0  0  0  0  0  0  0  0  0  0  0  0
   20.3844    4.2031   -3.0239 H   0  0  0  0  0  0  0  0  0  0  0  0
   25.7688    4.7886   -2.4932 C   0  0  0  0  0  0  0  0  0  0  0  0
   25.6759    5.7000   -2.8430 H   0  0  0  0  0  0  0  0  0  0  0  0
   25.5712    4.8358   -1.0013 C   0  0  0  0  0  0  0  0  0  0  0  0
   24.7616    5.3136   -0.8002 H   0  0  0  0  0  0  0  0  0  0  0  0
   26.3160    5.2841   -0.5911 H   0  0  0  0  0  0  0  0  0  0  0  0
   25.5078    3.9421   -0.6555 H   0  0  0  0  0  0  0  0  0  0  0  0
   23.4918    5.7133   -6.7645 C   0  0  0  0  0  0  0  0  0  0  0  0
   22.5804    6.0038   -6.6712 H   0  0  0  0  0  0  0  0  0  0  0  0
   23.5257    4.7547   -6.7476 H   0  0  0  0  0  0  0  0  0  0  0  0
   23.8457    6.0319   -7.6001 H   0  0  0  0  0  0  0  0  0  0  0  0
   25.7482    5.7693   -5.6940 C   0  0  0  0  0  0  0  0  0  0  0  0
   26.1066    5.9581   -6.5666 H   0  0  0  0  0  0  0  0  0  0  0  0
   25.7644    4.8211   -5.5412 H   0  0  0  0  0  0  0  0  0  0  0  0
   26.2776    6.2103   -5.0265 H   0  0  0  0  0  0  0  0  0  0  0  0
   20.9286    3.4141   -6.1886 C   0  0  0  0  0  0  0  0  0  0  0  0
   21.6262    3.5660   -6.8280 H   0  0  0  0  0  0  0  0  0  0  0  0
   20.1042    3.7769   -6.5184 H   0  0  0  0  0  0  0  0  0  0  0  0
   20.8283    2.4703   -6.0439 H   0  0  0  0  0  0  0  0  0  0  0  0
   27.2200    4.3049   -2.7867 C   0  0  0  0  0  0  0  0  0  0  0  0
   27.3291    3.4053   -2.4650 H   0  0  0  0  0  0  0  0  0  0  0  0
   27.8468    4.8800   -2.3403 H   0  0  0  0  0  0  0  0  0  0  0  0
   27.3808    4.3285   -3.7317 H   0  0  0  0  0  0  0  0  0  0  0  0
  1 19  1  0  0  0  0
  2 19  1  0  0  0  0
  3 29  1  0  0  0  0
  4 19  2  0  0  0  0
  5 20  1  0  0  0  0
  6 23  1  0  0  0  0
  7 21  1  0  0  0  0
  8 24  1  0  0  0  0
  9 34  1  0  0  0  0
 10 25  1  0  0  0  0
 11 27  1  0  0  0  0
 12 38  1  0  0  0  0
 13 36  1  0  0  0  0
 14 31  1  0  0  0  0
 15 37  1  0  0  0  0
 16 30  1  0  0  0  0
 17 32  1  0  0  0  0
 18 28  1  0  0  0  0
 20 21  4  0  0  0  0
 21 22  4  0  0  0  0
 22 23  4  0  0  0  0
 23 34  4  0  0  0  0
 24 20  4  0  0  0  0
 25 26  4  0  0  0  0
 26 27  4  0  0  0  0
 27 28  4  0  0  0  0
 28 38  4  0  0  0  0
 29 25  4  0  0  0  0
 30 31  4  0  0  0  0
 31 32  4  0  0  0  0
 32 33  4  0  0  0  0
 33 35  1  0  0  0  0
 34 24  4  0  0  0  0
 35  4  1  0  0  0  0
 36 33  4  0  0  0  0
 37 30  4  0  0  0  0
 38 29  4  0  0  0  0
 39  1  1  0  0  0  0
 40 41  1  0  0  0  0
 42 39  1  0  0  0  0
 43 42  1  0  0  0  0
 44 43  1  0  0  0  0
 45 44  1  0  0  0  0
 46 44  1  0  0  0  0
 47 44  1  0  0  0  0
 48 47  1  0  0  0  0
 49 47  1  0  0  0  0
 50 49  1  0  0  0  0
 51 49  1  0  0  0  0
 52 49  1  0  0  0  0
 53 47  1  0  0  0  0
 54 53  1  0  0  0  0
 55 53  1  0  0  0  0
 56 53  1  0  0  0  0
 57 56  1  0  0  0  0
 58 56  1  0  0  0  0
 59 43  1  0  0  0  0
 60 59  1  0  0  0  0
 61 59  1  0  0  0  0
 62 61  1  0  0  0  0
 63 61  1  0  0  0  0
 64 63  1  0  0  0  0
 65 63  1  0  0  0  0
 66 63  1  0  0  0  0
 67 61  1  0  0  0  0
 68 67  1  0  0  0  0
 69 67  1  0  0  0  0
 70 67  1  0  0  0  0
 71 43  1  0  0  0  0
 72 71  1  0  0  0  0
 73 71  1  0  0  0  0
 74 71  1  0  0  0  0
 75 42  1  0  0  0  0
 76 75  1  0  0  0  0
 77 76  4  0  0  0  0
 78 77  4  0  0  0  0
 79 78  1  0  0  0  0
 80 40  4  0  0  0  0
 81 80  1  0  0  0  0
 82 40  4  0  0  0  0
 83 82  1  0  0  0  0
 84 83  1  0  0  0  0
 85 83  1  0  0  0  0
 86 85  1  0  0  0  0
 87 85  1  0  0  0  0
 88 85  1  0  0  0  0
 89 77  1  0  0  0  0
 90 89  1  0  0  0  0
 91 89  1  0  0  0  0
 92 91  1  0  0  0  0
 93 91  1  0  0  0  0
 94 91  1  0  0  0  0
 95 74  1  0  0  0  0
 96 95  1  0  0  0  0
 97 95  1  0  0  0  0
 98 95  1  0  0  0  0
 99 74  1  0  0  0  0
100 99  1  0  0  0  0
101 99  1  0  0  0  0
102 99  1  0  0  0  0
103 83  1  0  0  0  0
104103  1  0  0  0  0
105103  1  0  0  0  0
106103  1  0  0  0  0
107 89  1  0  0  0  0
108107  1  0  0  0  0
109107  1  0  0  0  0
110107  1  0  0  0  0
111135  1  0  0  0  0
112126  1  0  0  0  0
113129  1  0  0  0  0
114127  1  0  0  0  0
115130  1  0  0  0  0
116140  1  0  0  0  0
117131  1  0  0  0  0
118133  1  0  0  0  0
119144  1  0  0  0  0
120142  1  0  0  0  0
121137  1  0  0  0  0
122143  1  0  0  0  0
123136  1  0  0  0  0
124138  1  0  0  0  0
125134  1  0  0  0  0
126127  4  0  0  0  0
127128  4  0  0  0  0
128129  4  0  0  0  0
129140  4  0  0  0  0
130126  4  0  0  0  0
131132  4  0  0  0  0
132133  4  0  0  0  0
133134  4  0  0  0  0
134144  4  0  0  0  0
135131  4  0  0  0  0
136137  4  0  0  0  0
137138  4  0  0  0  0
138139  4  0  0  0  0
139141  1  0  0  0  0
140130  4  0  0  0  0
141128  1  0  0  0  0
142139  4  0  0  0  0
143136  4  0  0  0  0
144135  4  0  0  0  0
145141  1  0  0  0  0
146  1  1  0  0  0  0
147  1  1  0  0  0  0
148149  1  0  0  0  0
150147  1  0  0  0  0
151150  1  0  0  0  0
152151  1  0  0  0  0
153152  1  0  0  0  0
154152  1  0  0  0  0
155152  1  0  0  0  0
156155  1  0  0  0  0
157155  1  0  0  0  0
158157  1  0  0  0  0
159157  1  0  0  0  0
160157  1  0  0  0  0
161155  1  0  0  0  0
162161  1  0  0  0  0
163161  1  0  0  0  0
164161  1  0  0  0  0
165164  1  0  0  0  0
166164  1  0  0  0  0
167151  1  0  0  0  0
168167  1  0  0  0  0
169167  1  0  0  0  0
170169  1  0  0  0  0
171169  1  0  0  0  0
172171  1  0  0  0  0
173171  1  0  0  0  0
174171  1  0  0  0  0
175169  1  0  0  0  0
176175  1  0  0  0  0
177175  1  0  0  0  0
178175  1  0  0  0  0
179151  1  0  0  0  0
180179  1  0  0  0  0
181179  1  0  0  0  0
182179  1  0  0  0  0
183150  1  0  0  0  0
184183  1  0  0  0  0
185184  4  0  0  0  0
186185  4  0  0  0  0
187186  1  0  0  0  0
188148  4  0  0  0  0
189188  1  0  0  0  0
190148  4  0  0  0  0
191190  1  0  0  0  0
192191  1  0  0  0  0
193191  1  0  0  0  0
194193  1  0  0  0  0
195193  1  0  0  0  0
196193  1  0  0  0  0
197185  1  0  0  0  0
198197  1  0  0  0  0
199197  1  0  0  0  0
200199  1  0  0  0  0
201199  1  0  0  0  0
202199  1  0  0  0  0
203182  1  0  0  0  0
204203  1  0  0  0  0
205203  1  0  0  0  0
206203  1  0  0  0  0
207182  1  0  0  0  0
208207  1  0  0  0  0
209207  1  0  0  0  0
210207  1  0  0  0  0
211191  1  0  0  0  0
212211  1  0  0  0  0
213211  1  0  0  0  0
214211  1  0  0  0  0
215197  1  0  0  0  0
216215  1  0  0  0  0
217215  1  0  0  0  0
218215  1  0  0  0  0
  2146  1  0  0  0  0
 22 35  1  0  0  0  0
 26 35  1  0  0  0  0
 36 37  4  0  0  0  0
 56 59  1  0  0  0  0
 74 75  1  0  0  0  0
 76 82  4  0  0  0  0
 78 80  4  0  0  0  0
132141  1  0  0  0  0
142143  4  0  0  0  0
145146  2  0  0  0  0
164167  1  0  0  0  0
182183  1  0  0  0  0
184190  4  0  0  0  0
186188  4  0  0  0  0
M  CHG  6   1   1   2  -1  35  -1  39   1 141  -1 147   1
M  END
$$$$
XACVEF

From CSD data. Using bond type 'Any'. No disordered atoms. Largest molecule.
192202  0  0  0  0  0  0  0  0999 V2000
    9.0492   11.3858   13.4426 Cu  0  3  0  0  0  0  0  0  0  0  0  0
    8.6450   10.4327   15.3968 P   0  0  0  0  0  0  0  0  0  0  0  0
    8.6450    7.5825   15.3968 P   0  0  0  0  0  0  0  0  0  0  0  0
    5.2444    5.7589   16.6556 F   0  0  0  0  0  0  0  0  0  0  0  0
    5.7395    9.6075   17.4343 F   0  0  0  0  0  0  0  0  0  0  0  0
    3.6481    6.7919   12.4802 F   0  0  0  0  0  0  0  0  0  0  0  0
    4.5009   11.0003   14.5208 F   0  0  0  0  0  0  0  0  0  0  0  0
    6.3910    7.3222   12.3187 F   0  0  0  0  0  0  0  0  0  0  0  0
    2.3140    8.0175   10.5521 F   0  0  0  0  0  0  0  0  0  0  0  0
    6.4040    3.4405   16.1106 F   0  0  0  0  0  0  0  0  0  0  0  0
    2.5693    6.9154   15.1556 F   0  0  0  0  0  0  0  0  0  0  0  0
    6.3043    9.1415   14.8977 O   0  0  0  0  0  0  0  0  0  0  0  0
    7.4332    2.9467   13.6385 F   0  0  0  0  0  0  0  0  0  0  0  0
    2.0973   10.7421   10.5137 F   0  0  0  0  0  0  0  0  0  0  0  0
    4.1071    9.7232   19.5260 F   0  0  0  0  0  0  0  0  0  0  0  0
    1.0084    6.9386   17.3238 F   0  0  0  0  0  0  0  0  0  0  0  0
    7.3655    4.9059   11.7342 F   0  0  0  0  0  0  0  0  0  0  0  0
    1.7478    8.3712   19.5360 F   0  0  0  0  0  0  0  0  0  0  0  0
    3.2025   12.2012   12.5348 F   0  0  0  0  0  0  0  0  0  0  0  0
    9.3959   13.3657   11.3760 N   0  0  0  0  0  0  0  0  0  0  0  0
    9.1640   12.1188   11.6722 C   0  0  0  0  0  0  0  0  0  0  0  0
   11.0963   14.5770   12.6931 C   0  0  0  0  0  0  0  0  0  0  0  0
   11.3961   15.6711   13.5114 C   0  0  0  0  0  0  0  0  0  0  0  0
   12.2817   15.8386   13.7380 H   0  0  0  0  0  0  0  0  0  0  0  0
    8.9627   11.3279   10.3883 C   0  0  0  0  0  0  0  0  0  0  0  0
    5.7102    6.6628   14.4947 C   0  0  0  0  0  0  0  0  0  0  0  0
   10.4114   16.5087   13.9907 C   0  0  0  0  0  0  0  0  0  0  0  0
   10.6399   17.2596   14.4894 H   0  0  0  0  0  0  0  0  0  0  0  0
    9.0777   16.2310   13.7269 C   0  0  0  0  0  0  0  0  0  0  0  0
    8.4164   16.7782   14.0870 H   0  0  0  0  0  0  0  0  0  0  0  0
    4.5537    8.9589   17.3232 C   0  0  0  0  0  0  0  0  0  0  0  0
    9.7459   14.3818   12.3638 C   0  0  0  0  0  0  0  0  0  0  0  0
   12.2046   13.6009   12.3273 C   0  0  0  0  0  0  0  0  0  0  0  0
   11.8535   12.9848   11.6502 H   0  0  0  0  0  0  0  0  0  0  0  0
    8.7123   15.1422   12.9288 C   0  0  0  0  0  0  0  0  0  0  0  0
    4.2298    8.2635   16.1689 C   0  0  0  0  0  0  0  0  0  0  0  0
    9.3337   13.7323    9.8864 C   0  0  0  0  0  0  0  0  0  0  0  0
    3.5878    8.1438   12.5484 C   0  0  0  0  0  0  0  0  0  0  0  0
    5.7675    5.6165   15.4157 C   0  0  0  0  0  0  0  0  0  0  0  0
    6.3521    4.3914   15.1537 C   0  0  0  0  0  0  0  0  0  0  0  0
    2.8780    8.7552   11.5299 C   0  0  0  0  0  0  0  0  0  0  0  0
    2.7623   10.1242   11.5162 C   0  0  0  0  0  0  0  0  0  0  0  0
    6.3143    6.3655   13.2724 C   0  0  0  0  0  0  0  0  0  0  0  0
    7.5308    8.9739   15.1584 C   0  0  0  0  0  0  0  0  0  0  0  0
   10.2807   10.5262   10.2194 C   0  0  0  0  0  0  0  0  0  0  0  0
   11.0219   11.1518   10.2296 H   0  0  0  0  0  0  0  0  0  0  0  0
   10.3847    9.9425   10.9871 H   0  0  0  0  0  0  0  0  0  0  0  0
    8.4002   14.9090    9.6503 C   0  0  0  0  0  0  0  0  0  0  0  0
    7.5179   14.6822    9.9525 H   0  0  0  0  0  0  0  0  0  0  0  0
    8.3759   15.1140    8.7125 H   0  0  0  0  0  0  0  0  0  0  0  0
    8.7191   15.6731   10.1372 H   0  0  0  0  0  0  0  0  0  0  0  0
    8.7874   12.4191    9.3027 C   0  0  0  0  0  0  0  0  0  0  0  0
    9.2788   12.1775    8.5011 H   0  0  0  0  0  0  0  0  0  0  0  0
    7.8499   12.5167    9.0738 H   0  0  0  0  0  0  0  0  0  0  0  0
    4.2115    8.8267   13.5791 C   0  0  0  0  0  0  0  0  0  0  0  0
    2.1764    7.6179   17.3368 C   0  0  0  0  0  0  0  0  0  0  0  0
    4.0107   10.2084   13.5391 C   0  0  0  0  0  0  0  0  0  0  0  0
   10.7186   14.0982    9.3758 C   0  0  0  0  0  0  0  0  0  0  0  0
   11.0459   14.8625    9.8560 H   0  0  0  0  0  0  0  0  0  0  0  0
   10.6708   14.3066    8.4395 H   0  0  0  0  0  0  0  0  0  0  0  0
   11.3133   13.3571    9.5091 H   0  0  0  0  0  0  0  0  0  0  0  0
    6.8835    4.1429   13.9164 C   0  0  0  0  0  0  0  0  0  0  0  0
    7.2415   14.7670   12.7912 C   0  0  0  0  0  0  0  0  0  0  0  0
    7.1504   14.1958   11.9992 H   0  0  0  0  0  0  0  0  0  0  0  0
    2.9995    7.6177   16.2356 C   0  0  0  0  0  0  0  0  0  0  0  0
   12.5724   12.7767   13.5699 C   0  0  0  0  0  0  0  0  0  0  0  0
   12.9313   13.3571   14.2451 H   0  0  0  0  0  0  0  0  0  0  0  0
   13.2305   12.1180   13.3336 H   0  0  0  0  0  0  0  0  0  0  0  0
   11.7876   12.3396   13.9084 H   0  0  0  0  0  0  0  0  0  0  0  0
    2.5445    8.3319   18.4509 C   0  0  0  0  0  0  0  0  0  0  0  0
    3.3239   10.8569   12.5301 C   0  0  0  0  0  0  0  0  0  0  0  0
   13.4511   14.2846   11.7443 C   0  0  0  0  0  0  0  0  0  0  0  0
   13.1985   14.8261   10.9933 H   0  0  0  0  0  0  0  0  0  0  0  0
   14.0776   13.6168   11.4593 H   0  0  0  0  0  0  0  0  0  0  0  0
   13.8555   14.8377   12.4160 H   0  0  0  0  0  0  0  0  0  0  0  0
    7.7710   10.3674   10.4932 C   0  0  0  0  0  0  0  0  0  0  0  0
    7.6439    9.9442    9.6302 H   0  0  0  0  0  0  0  0  0  0  0  0
    7.9970    9.6696   11.1267 H   0  0  0  0  0  0  0  0  0  0  0  0
    6.8568    5.1390   12.9585 C   0  0  0  0  0  0  0  0  0  0  0  0
    3.7356    9.0151   18.4447 C   0  0  0  0  0  0  0  0  0  0  0  0
    6.7876   13.9556   14.0107 C   0  0  0  0  0  0  0  0  0  0  0  0
    7.3270   13.1652   14.0870 H   0  0  0  0  0  0  0  0  0  0  0  0
    5.8656   13.7061   13.9043 H   0  0  0  0  0  0  0  0  0  0  0  0
    6.8844   14.4886   14.8035 H   0  0  0  0  0  0  0  0  0  0  0  0
    6.3359   15.9750   12.6030 C   0  0  0  0  0  0  0  0  0  0  0  0
    6.3476   16.5119   13.3993 H   0  0  0  0  0  0  0  0  0  0  0  0
    5.4386   15.6797   12.4303 H   0  0  0  0  0  0  0  0  0  0  0  0
    6.6494   16.4970   11.8617 H   0  0  0  0  0  0  0  0  0  0  0  0
   10.3814    9.6823    8.9564 C   0  0  0  0  0  0  0  0  0  0  0  0
   10.3235   10.2519    8.1849 H   0  0  0  0  0  0  0  0  0  0  0  0
    9.6635    9.0459    8.9383 H   0  0  0  0  0  0  0  0  0  0  0  0
   11.2207    9.2179    8.9486 H   0  0  0  0  0  0  0  0  0  0  0  0
    6.4563   10.9866   10.9184 C   0  0  0  0  0  0  0  0  0  0  0  0
    6.1943   11.6531   10.2789 H   0  0  0  0  0  0  0  0  0  0  0  0
    6.5590   11.3950   11.7816 H   0  0  0  0  0  0  0  0  0  0  0  0
    5.7826   10.3048   10.9646 H   0  0  0  0  0  0  0  0  0  0  0  0
    5.1050    8.1542   14.7922 B   0  5  0  0  0  0  0  0  0  0  0  0
   12.0457    5.7589   14.1379 F   0  0  0  0  0  0  0  0  0  0  0  0
   11.5505    9.6075   13.3593 F   0  0  0  0  0  0  0  0  0  0  0  0
   13.6419    6.7919   18.3133 F   0  0  0  0  0  0  0  0  0  0  0  0
   12.7891   11.0003   16.2728 F   0  0  0  0  0  0  0  0  0  0  0  0
   10.8990    7.3222   18.4749 F   0  0  0  0  0  0  0  0  0  0  0  0
   14.9760    8.0175   20.2414 F   0  0  0  0  0  0  0  0  0  0  0  0
   10.8860    3.4405   14.6830 F   0  0  0  0  0  0  0  0  0  0  0  0
   14.7207    6.9154   15.6380 F   0  0  0  0  0  0  0  0  0  0  0  0
   10.9857    9.1415   15.8958 O   0  0  0  0  0  0  0  0  0  0  0  0
    9.8568    2.9467   17.1551 F   0  0  0  0  0  0  0  0  0  0  0  0
   15.1927   10.7421   20.2798 F   0  0  0  0  0  0  0  0  0  0  0  0
   13.1829    9.7232   11.2676 F   0  0  0  0  0  0  0  0  0  0  0  0
   16.2817    6.9386   13.4697 F   0  0  0  0  0  0  0  0  0  0  0  0
    9.9245    4.9059   19.0594 F   0  0  0  0  0  0  0  0  0  0  0  0
   15.5422    8.3712   11.2575 F   0  0  0  0  0  0  0  0  0  0  0  0
   14.0875   12.2012   18.2587 F   0  0  0  0  0  0  0  0  0  0  0  0
   11.5799    6.6628   16.2988 C   0  0  0  0  0  0  0  0  0  0  0  0
   12.7363    8.9589   13.4703 C   0  0  0  0  0  0  0  0  0  0  0  0
   13.0602    8.2635   14.6247 C   0  0  0  0  0  0  0  0  0  0  0  0
   13.7022    8.1438   18.2452 C   0  0  0  0  0  0  0  0  0  0  0  0
   11.5225    5.6165   15.3779 C   0  0  0  0  0  0  0  0  0  0  0  0
   10.9379    4.3914   15.6398 C   0  0  0  0  0  0  0  0  0  0  0  0
   14.4121    8.7552   19.2636 C   0  0  0  0  0  0  0  0  0  0  0  0
   14.5277   10.1242   19.2774 C   0  0  0  0  0  0  0  0  0  0  0  0
   10.9757    6.3655   17.5211 C   0  0  0  0  0  0  0  0  0  0  0  0
    9.7593    8.9739   15.6351 C   0  0  0  0  0  0  0  0  0  0  0  0
   13.0786    8.8267   17.2144 C   0  0  0  0  0  0  0  0  0  0  0  0
   15.1136    7.6179   13.4568 C   0  0  0  0  0  0  0  0  0  0  0  0
   13.2793   10.2084   17.2545 C   0  0  0  0  0  0  0  0  0  0  0  0
   10.4065    4.1429   16.8771 C   0  0  0  0  0  0  0  0  0  0  0  0
   14.2905    7.6177   14.5580 C   0  0  0  0  0  0  0  0  0  0  0  0
   14.7455    8.3319   12.3427 C   0  0  0  0  0  0  0  0  0  0  0  0
   13.9661   10.8569   18.2635 C   0  0  0  0  0  0  0  0  0  0  0  0
   10.4332    5.1390   17.8350 C   0  0  0  0  0  0  0  0  0  0  0  0
   13.5544    9.0151   12.3488 C   0  0  0  0  0  0  0  0  0  0  0  0
   12.1850    8.1542   16.0014 B   0  5  0  0  0  0  0  0  0  0  0  0
    8.2408   11.3858   17.3509 Cu  0  3  0  0  0  0  0  0  0  0  0  0
    7.8941   13.3657   19.4176 N   0  0  0  0  0  0  0  0  0  0  0  0
    8.1260   12.1188   19.1214 C   0  0  0  0  0  0  0  0  0  0  0  0
    6.1937   14.5770   18.1005 C   0  0  0  0  0  0  0  0  0  0  0  0
    5.8939   15.6711   17.2822 C   0  0  0  0  0  0  0  0  0  0  0  0
    5.0083   15.8386   17.0555 H   0  0  0  0  0  0  0  0  0  0  0  0
    8.3273   11.3279   20.4052 C   0  0  0  0  0  0  0  0  0  0  0  0
    6.8786   16.5087   16.8028 C   0  0  0  0  0  0  0  0  0  0  0  0
    6.6501   17.2596   16.3042 H   0  0  0  0  0  0  0  0  0  0  0  0
    8.2123   16.2310   17.0666 C   0  0  0  0  0  0  0  0  0  0  0  0
    8.8736   16.7782   16.7065 H   0  0  0  0  0  0  0  0  0  0  0  0
    7.5442   14.3818   18.4297 C   0  0  0  0  0  0  0  0  0  0  0  0
    5.0855   13.6009   18.4663 C   0  0  0  0  0  0  0  0  0  0  0  0
    5.4365   12.9848   19.1433 H   0  0  0  0  0  0  0  0  0  0  0  0
    8.5777   15.1422   17.8648 C   0  0  0  0  0  0  0  0  0  0  0  0
    7.9563   13.7323   20.9072 C   0  0  0  0  0  0  0  0  0  0  0  0
    7.0093   10.5262   20.5742 C   0  0  0  0  0  0  0  0  0  0  0  0
    6.2681   11.1518   20.5639 H   0  0  0  0  0  0  0  0  0  0  0  0
    6.9053    9.9425   19.8064 H   0  0  0  0  0  0  0  0  0  0  0  0
    8.8898   14.9090   21.1433 C   0  0  0  0  0  0  0  0  0  0  0  0
    9.7721   14.6822   20.8411 H   0  0  0  0  0  0  0  0  0  0  0  0
    8.9141   15.1140   22.0810 H   0  0  0  0  0  0  0  0  0  0  0  0
    8.5709   15.6731   20.6563 H   0  0  0  0  0  0  0  0  0  0  0  0
    8.5026   12.4191   21.4908 C   0  0  0  0  0  0  0  0  0  0  0  0
    8.0113   12.1775   22.2925 H   0  0  0  0  0  0  0  0  0  0  0  0
    9.4401   12.5167   21.7197 H   0  0  0  0  0  0  0  0  0  0  0  0
    6.5714   14.0982   21.4177 C   0  0  0  0  0  0  0  0  0  0  0  0
    6.2441   14.8625   20.9376 H   0  0  0  0  0  0  0  0  0  0  0  0
    6.6192   14.3066   22.3541 H   0  0  0  0  0  0  0  0  0  0  0  0
    5.9768   13.3571   21.2845 H   0  0  0  0  0  0  0  0  0  0  0  0
   10.0485   14.7670   18.0023 C   0  0  0  0  0  0  0  0  0  0  0  0
   10.1396   14.1958   18.7943 H   0  0  0  0  0  0  0  0  0  0  0  0
    4.7176   12.7767   17.2237 C   0  0  0  0  0  0  0  0  0  0  0  0
    4.3587   13.3571   16.5485 H   0  0  0  0  0  0  0  0  0  0  0  0
    4.0595   12.1180   17.4599 H   0  0  0  0  0  0  0  0  0  0  0  0
    5.5024   12.3396   16.8851 H   0  0  0  0  0  0  0  0  0  0  0  0
    3.8389   14.2846   19.0493 C   0  0  0  0  0  0  0  0  0  0  0  0
    4.0915   14.8261   19.8003 H   0  0  0  0  0  0  0  0  0  0  0  0
    3.2124   13.6168   19.3342 H   0  0  0  0  0  0  0  0  0  0  0  0
    3.4345   14.8377   18.3776 H   0  0  0  0  0  0  0  0  0  0  0  0
    9.5190   10.3674   20.3003 C   0  0  0  0  0  0  0  0  0  0  0  0
    9.6461    9.9442   21.1634 H   0  0  0  0  0  0  0  0  0  0  0  0
    9.2930    9.6696   19.6668 H   0  0  0  0  0  0  0  0  0  0  0  0
   10.5024   13.9556   16.7829 C   0  0  0  0  0  0  0  0  0  0  0  0
    9.9630   13.1652   16.7065 H   0  0  0  0  0  0  0  0  0  0  0  0
   11.4244   13.7061   16.8892 H   0  0  0  0  0  0  0  0  0  0  0  0
   10.4056   14.4886   15.9901 H   0  0  0  0  0  0  0  0  0  0  0  0
   10.9541   15.9750   18.1906 C   0  0  0  0  0  0  0  0  0  0  0  0
   10.9425   16.5119   17.3943 H   0  0  0  0  0  0  0  0  0  0  0  0
   11.8514   15.6797   18.3632 H   0  0  0  0  0  0  0  0  0  0  0  0
   10.6406   16.4970   18.9319 H   0  0  0  0  0  0  0  0  0  0  0  0
    6.9086    9.6823   21.8371 C   0  0  0  0  0  0  0  0  0  0  0  0
    6.9665   10.2519   22.6086 H   0  0  0  0  0  0  0  0  0  0  0  0
    7.6266    9.0459   21.8552 H   0  0  0  0  0  0  0  0  0  0  0  0
    6.0693    9.2179   21.8449 H   0  0  0  0  0  0  0  0  0  0  0  0
   10.8337   10.9866   19.8752 C   0  0  0  0  0  0  0  0  0  0  0  0
   11.0957   11.6531   20.5147 H   0  0  0  0  0  0  0  0  0  0  0  0
   10.7311   11.3950   19.0119 H   0  0  0  0  0  0  0  0  0  0  0  0
   11.5074   10.3048   19.8290 H   0  0  0  0  0  0  0  0  0  0  0  0
  1  2  1  0  0  0  0
  2 44  4  0  0  0  0
  3 44  4  0  0  0  0
  4 39  1  0  0  0  0
  5 31  1  0  0  0  0
  6 38  1  0  0  0  0
  7 57  1  0  0  0  0
  8 43  1  0  0  0  0
  9 41  1  0  0  0  0
 10 40  1  0  0  0  0
 11 65  1  0  0  0  0
 12 44  1  0  0  0  0
 13 62  1  0  0  0  0
 14 42  1  0  0  0  0
 15 80  1  0  0  0  0
 16 56  1  0  0  0  0
 17 79  1  0  0  0  0
 18 70  1  0  0  0  0
 19 71  1  0  0  0  0
 20 21  1  0  0  0  0
 21  1  1  0  0  0  0
 22 23  4  0  0  0  0
 23 24  1  0  0  0  0
 25 21  1  0  0  0  0
 26 39  4  0  0  0  0
 27 23  4  0  0  0  0
 28 27  1  0  0  0  0
 29 27  4  0  0  0  0
 30 29  1  0  0  0  0
 31 36  4  0  0  0  0
 32 20  1  0  0  0  0
 33 22  1  0  0  0  0
 34 33  1  0  0  0  0
 35 29  4  0  0  0  0
 36 65  4  0  0  0  0
 37 20  1  0  0  0  0
 38 41  4  0  0  0  0
 39 40  4  0  0  0  0
 40 62  4  0  0  0  0
 41 42  4  0  0  0  0
 42 71  4  0  0  0  0
 43 26  4  0  0  0  0
 45 25  1  0  0  0  0
 46 45  1  0  0  0  0
 47 45  1  0  0  0  0
 48 37  1  0  0  0  0
 49 48  1  0  0  0  0
 50 48  1  0  0  0  0
 51 48  1  0  0  0  0
 52 25  1  0  0  0  0
 53 52  1  0  0  0  0
 54 52  1  0  0  0  0
 55 38  4  0  0  0  0
 56 65  4  0  0  0  0
 57 55  4  0  0  0  0
 58 37  1  0  0  0  0
 59 58  1  0  0  0  0
 60 58  1  0  0  0  0
 61 58  1  0  0  0  0
 62 79  4  0  0  0  0
 63 35  1  0  0  0  0
 64 63  1  0  0  0  0
 66 33  1  0  0  0  0
 67 66  1  0  0  0  0
 68 66  1  0  0  0  0
 69 66  1  0  0  0  0
 70 56  4  0  0  0  0
 71 57  4  0  0  0  0
 72 33  1  0  0  0  0
 73 72  1  0  0  0  0
 74 72  1  0  0  0  0
 75 72  1  0  0  0  0
 76 25  1  0  0  0  0
 77 76  1  0  0  0  0
 78 76  1  0  0  0  0
 79 43  4  0  0  0  0
 80 31  4  0  0  0  0
 81 63  1  0  0  0  0
 82 81  1  0  0  0  0
 83 81  1  0  0  0  0
 84 81  1  0  0  0  0
 85 63  1  0  0  0  0
 86 85  1  0  0  0  0
 87 85  1  0  0  0  0
 88 85  1  0  0  0  0
 89 45  1  0  0  0  0
 90 89  1  0  0  0  0
 91 89  1  0  0  0  0
 92 89  1  0  0  0  0
 93 76  1  0  0  0  0
 94 93  1  0  0  0  0
 95 93  1  0  0  0  0
 96 93  1  0  0  0  0
 97 12  1  0  0  0  0
 98118  1  0  0  0  0
 99115  1  0  0  0  0
100117  1  0  0  0  0
101126  1  0  0  0  0
102122  1  0  0  0  0
103120  1  0  0  0  0
104119  1  0  0  0  0
105128  1  0  0  0  0
106123  1  0  0  0  0
107127  1  0  0  0  0
108121  1  0  0  0  0
109132  1  0  0  0  0
110125  1  0  0  0  0
111131  1  0  0  0  0
112129  1  0  0  0  0
113130  1  0  0  0  0
114118  4  0  0  0  0
115116  4  0  0  0  0
116128  4  0  0  0  0
117120  4  0  0  0  0
118119  4  0  0  0  0
119127  4  0  0  0  0
120121  4  0  0  0  0
121130  4  0  0  0  0
122114  4  0  0  0  0
123  2  4  0  0  0  0
124117  4  0  0  0  0
125128  4  0  0  0  0
126124  4  0  0  0  0
127131  4  0  0  0  0
129125  4  0  0  0  0
130126  4  0  0  0  0
131122  4  0  0  0  0
132115  4  0  0  0  0
133106  1  0  0  0  0
134  2  1  0  0  0  0
135136  1  0  0  0  0
136134  1  0  0  0  0
137138  4  0  0  0  0
138139  1  0  0  0  0
140136  1  0  0  0  0
141138  4  0  0  0  0
142141  1  0  0  0  0
143141  4  0  0  0  0
144143  1  0  0  0  0
145135  1  0  0  0  0
146137  1  0  0  0  0
147146  1  0  0  0  0
148143  4  0  0  0  0
149135  1  0  0  0  0
150140  1  0  0  0  0
151150  1  0  0  0  0
152150  1  0  0  0  0
153149  1  0  0  0  0
154153  1  0  0  0  0
155153  1  0  0  0  0
156153  1  0  0  0  0
157140  1  0  0  0  0
158157  1  0  0  0  0
159157  1  0  0  0  0
160149  1  0  0  0  0
161160  1  0  0  0  0
162160  1  0  0  0  0
163160  1  0  0  0  0
164148  1  0  0  0  0
165164  1  0  0  0  0
166146  1  0  0  0  0
167166  1  0  0  0  0
168166  1  0  0  0  0
169166  1  0  0  0  0
170146  1  0  0  0  0
171170  1  0  0  0  0
172170  1  0  0  0  0
173170  1  0  0  0  0
174140  1  0  0  0  0
175174  1  0  0  0  0
176174  1  0  0  0  0
177164  1  0  0  0  0
178177  1  0  0  0  0
179177  1  0  0  0  0
180177  1  0  0  0  0
181164  1  0  0  0  0
182181  1  0  0  0  0
183181  1  0  0  0  0
184181  1  0  0  0  0
185150  1  0  0  0  0
186185  1  0  0  0  0
187185  1  0  0  0  0
188185  1  0  0  0  0
189174  1  0  0  0  0
190189  1  0  0  0  0
191189  1  0  0  0  0
192189  1  0  0  0  0
  3123  4  0  0  0  0
 22 32  4  0  0  0  0
 26 97  1  0  0  0  0
 32 35  4  0  0  0  0
 36 97  1  0  0  0  0
 37 52  1  0  0  0  0
 55 97  1  0  0  0  0
 70 80  4  0  0  0  0
114133  1  0  0  0  0
116133  1  0  0  0  0
124133  1  0  0  0  0
129132  4  0  0  0  0
137145  4  0  0  0  0
145148  4  0  0  0  0
149157  1  0  0  0  0
M  CHG  4   1   1  97  -1 133  -1 134   1
M  END
$$$$
XADCUB

From CSD data. Using bond type 'Any'. Matching problem. No disordered atoms. Largest molecule.
188206  0  0  0  0  0  0  0  0999 V2000
    7.0995    9.2457    1.4811 Ni  0  0  0  0  0  0  0  0  0  0  0  0
    4.0071    8.7619    2.7663 P   0  0  0  0  0  0  0  0  0  0  0  0
    5.5847    7.2637   -0.6198 P   0  0  0  0  0  0  0  0  0  0  0  0
    6.1452   10.9115    0.1919 P   0  0  0  0  0  0  0  0  0  0  0  0
    5.4939    8.6903    2.5466 O   0  0  0  0  0  0  0  0  0  0  0  0
    6.7641    7.7919    0.1653 O   0  0  0  0  0  0  0  0  0  0  0  0
    7.8637   10.4362    3.3629 Cl  0  0  0  0  0  0  0  0  0  0  0  0
    3.4998    9.4772   -0.0752 B   0  0  0  0  0  0  0  0  0  0  0  0
   10.1289   10.4298    2.8125 Ni  0  0  0  0  0  0  0  0  0  0  0  0
   10.9927   12.5289    5.2978 P   0  0  0  0  0  0  0  0  0  0  0  0
   13.2660   11.1000    2.2935 P   0  0  0  0  0  0  0  0  0  0  0  0
   10.9059    8.7394    4.2046 P   0  0  0  0  0  0  0  0  0  0  0  0
   10.4224   12.0163    4.0050 O   0  0  0  0  0  0  0  0  0  0  0  0
   11.8283   10.8626    1.8942 O   0  0  0  0  0  0  0  0  0  0  0  0
    9.4077    9.1923    0.8972 Cl  0  0  0  0  0  0  0  0  0  0  0  0
   13.1332   10.4622    5.3169 B   0  0  0  0  0  0  0  0  0  0  0  0
    2.1340    9.8497   -0.9169 C   0  0  0  0  0  0  0  0  0  0  0  0
    1.9888   10.9700   -1.7284 C   0  0  0  0  0  0  0  0  0  0  0  0
    2.7031   11.5950   -1.7876 H   0  0  0  0  0  0  0  0  0  0  0  0
    0.8193   11.1960   -2.4568 C   0  0  0  0  0  0  0  0  0  0  0  0
    0.7469   11.9801   -2.9888 H   0  0  0  0  0  0  0  0  0  0  0  0
   -0.2295   10.3129   -2.4225 C   0  0  0  0  0  0  0  0  0  0  0  0
   -1.0148   10.4747   -2.9287 H   0  0  0  0  0  0  0  0  0  0  0  0
   -0.1155    9.2009   -1.6497 C   0  0  0  0  0  0  0  0  0  0  0  0
   -0.8327    8.5801   -1.6074 H   0  0  0  0  0  0  0  0  0  0  0  0
    1.0519    8.9666   -0.9161 C   0  0  0  0  0  0  0  0  0  0  0  0
    1.1113    8.1727   -0.3947 H   0  0  0  0  0  0  0  0  0  0  0  0
    3.0015    8.6750    1.3139 C   0  0  0  0  0  0  0  0  0  0  0  0
    2.8930    7.7179    1.0840 H   0  0  0  0  0  0  0  0  0  0  0  0
    2.1044    9.0182    1.5502 H   0  0  0  0  0  0  0  0  0  0  0  0
    4.2976    8.4211   -1.0763 C   0  0  0  0  0  0  0  0  0  0  0  0
    4.6866    8.9791   -1.7961 H   0  0  0  0  0  0  0  0  0  0  0  0
    3.5907    7.8756   -1.5044 H   0  0  0  0  0  0  0  0  0  0  0  0
    4.3371   10.8835    0.2849 C   0  0  0  0  0  0  0  0  0  0  0  0
    4.0863   11.1486    1.2041 H   0  0  0  0  0  0  0  0  0  0  0  0
    4.0008   11.5908   -0.3203 H   0  0  0  0  0  0  0  0  0  0  0  0
    3.5628   10.2613    3.6769 C   0  0  0  0  0  0  0  0  0  0  0  0
    4.5219   11.0621    4.2252 C   0  0  0  0  0  0  0  0  0  0  0  0
    5.4377   10.8458    4.0928 H   0  0  0  0  0  0  0  0  0  0  0  0
    4.1951   12.1684    4.9603 C   0  0  0  0  0  0  0  0  0  0  0  0
    4.8858   12.7195    5.3112 H   0  0  0  0  0  0  0  0  0  0  0  0
    2.8916   12.4921    5.1959 C   0  0  0  0  0  0  0  0  0  0  0  0
    2.6707   13.2496    5.7230 H   0  0  0  0  0  0  0  0  0  0  0  0
    1.9052   11.7080    4.6602 C   0  0  0  0  0  0  0  0  0  0  0  0
    0.9932   11.9257    4.8135 H   0  0  0  0  0  0  0  0  0  0  0  0
    2.2243   10.6156    3.9080 C   0  0  0  0  0  0  0  0  0  0  0  0
    1.5277   10.0869    3.5351 H   0  0  0  0  0  0  0  0  0  0  0  0
    3.5106    7.4445    3.8857 C   0  0  0  0  0  0  0  0  0  0  0  0
    2.1807    7.0441    3.9953 C   0  0  0  0  0  0  0  0  0  0  0  0
    1.5294    7.4417    3.4293 H   0  0  0  0  0  0  0  0  0  0  0  0
    1.7896    6.1009    4.8853 C   0  0  0  0  0  0  0  0  0  0  0  0
    0.8745    5.8610    4.9623 H   0  0  0  0  0  0  0  0  0  0  0  0
    2.7331    5.4969    5.6744 C   0  0  0  0  0  0  0  0  0  0  0  0
    2.4734    4.8216    6.2893 H   0  0  0  0  0  0  0  0  0  0  0  0
    4.0699    5.8707    5.5798 C   0  0  0  0  0  0  0  0  0  0  0  0
    4.7183    5.4522    6.1349 H   0  0  0  0  0  0  0  0  0  0  0  0
    4.4585    6.8334    4.6957 C   0  0  0  0  0  0  0  0  0  0  0  0
    5.3726    7.0831    4.6334 H   0  0  0  0  0  0  0  0  0  0  0  0
    4.8689    5.8791    0.2960 C   0  0  0  0  0  0  0  0  0  0  0  0
    5.3878    5.5373    1.5241 C   0  0  0  0  0  0  0  0  0  0  0  0
    6.0859    6.0647    1.8934 H   0  0  0  0  0  0  0  0  0  0  0  0
    4.9178    4.4477    2.2395 C   0  0  0  0  0  0  0  0  0  0  0  0
    5.2891    4.2315    3.0860 H   0  0  0  0  0  0  0  0  0  0  0  0
    3.9064    3.6846    1.7103 C   0  0  0  0  0  0  0  0  0  0  0  0
    3.5929    2.9200    2.1794 H   0  0  0  0  0  0  0  0  0  0  0  0
    3.3586    4.0180    0.5291 C   0  0  0  0  0  0  0  0  0  0  0  0
    2.6411    3.4976    0.1888 H   0  0  0  0  0  0  0  0  0  0  0  0
    3.8159    5.1006   -0.1973 C   0  0  0  0  0  0  0  0  0  0  0  0
    3.4150    5.3155   -1.0325 H   0  0  0  0  0  0  0  0  0  0  0  0
    6.2144    6.5655   -2.1488 C   0  0  0  0  0  0  0  0  0  0  0  0
    5.3552    6.0772   -3.1464 C   0  0  0  0  0  0  0  0  0  0  0  0
    4.4148    6.1051   -3.0145 H   0  0  0  0  0  0  0  0  0  0  0  0
    5.8668    5.5554   -4.3216 C   0  0  0  0  0  0  0  0  0  0  0  0
    5.2772    5.1983   -4.9766 H   0  0  0  0  0  0  0  0  0  0  0  0
    7.2409    5.5499   -4.5601 C   0  0  0  0  0  0  0  0  0  0  0  0
    7.5917    5.2122   -5.3770 H   0  0  0  0  0  0  0  0  0  0  0  0
    8.0818    6.0437   -3.5894 C   0  0  0  0  0  0  0  0  0  0  0  0
    9.0180    6.0549   -3.7410 H   0  0  0  0  0  0  0  0  0  0  0  0
    7.5811    6.5265   -2.3962 C   0  0  0  0  0  0  0  0  0  0  0  0
    8.1826    6.8362   -1.7304 H   0  0  0  0  0  0  0  0  0  0  0  0
    6.5303   10.8709   -1.5931 C   0  0  0  0  0  0  0  0  0  0  0  0
    7.4485    9.9920   -2.0953 C   0  0  0  0  0  0  0  0  0  0  0  0
    7.9277    9.4228   -1.5044 H   0  0  0  0  0  0  0  0  0  0  0  0
    7.6844    9.9250   -3.4739 C   0  0  0  0  0  0  0  0  0  0  0  0
    8.3355    9.3209   -3.8125 H   0  0  0  0  0  0  0  0  0  0  0  0
    6.9779   10.7300   -4.3445 C   0  0  0  0  0  0  0  0  0  0  0  0
    7.1160   10.6631   -5.2826 H   0  0  0  0  0  0  0  0  0  0  0  0
    6.0709   11.6341   -3.8320 C   0  0  0  0  0  0  0  0  0  0  0  0
    5.6006   12.2131   -4.4217 H   0  0  0  0  0  0  0  0  0  0  0  0
    5.8380   11.7080   -2.4811 C   0  0  0  0  0  0  0  0  0  0  0  0
    5.2033   12.3316   -2.1451 H   0  0  0  0  0  0  0  0  0  0  0  0
    6.7324   12.5660    0.6621 C   0  0  0  0  0  0  0  0  0  0  0  0
    8.0455   12.8981    0.3732 C   0  0  0  0  0  0  0  0  0  0  0  0
    8.5953   12.2800   -0.0915 H   0  0  0  0  0  0  0  0  0  0  0  0
    8.5655   14.1328    0.7591 C   0  0  0  0  0  0  0  0  0  0  0  0
    9.4716   14.3448    0.5663 H   0  0  0  0  0  0  0  0  0  0  0  0
    7.7786   15.0396    1.4129 C   0  0  0  0  0  0  0  0  0  0  0  0
    8.1203   15.8962    1.6360 H   0  0  0  0  0  0  0  0  0  0  0  0
    6.5120   14.7048    1.7332 C   0  0  0  0  0  0  0  0  0  0  0  0
    5.9731   15.3172    2.2194 H   0  0  0  0  0  0  0  0  0  0  0  0
    5.9786   13.4575    1.3557 C   0  0  0  0  0  0  0  0  0  0  0  0
    5.0862   13.2371    1.5874 H   0  0  0  0  0  0  0  0  0  0  0  0
   14.3632   10.0952    6.3474 C   0  0  0  0  0  0  0  0  0  0  0  0
   15.2417   11.0732    6.8105 C   0  0  0  0  0  0  0  0  0  0  0  0
   15.1338   11.9661    6.5067 H   0  0  0  0  0  0  0  0  0  0  0  0
   16.2760   10.7830    7.7080 C   0  0  0  0  0  0  0  0  0  0  0  0
   16.8550   11.4764    7.9997 H   0  0  0  0  0  0  0  0  0  0  0  0
   16.4573    9.4981    8.1727 C   0  0  0  0  0  0  0  0  0  0  0  0
   17.1290    9.3098    8.8177 H   0  0  0  0  0  0  0  0  0  0  0  0
   15.6595    8.4992    7.6945 C   0  0  0  0  0  0  0  0  0  0  0  0
   15.8001    7.6021    7.9768 H   0  0  0  0  0  0  0  0  0  0  0  0
   14.6359    8.7978    6.7910 C   0  0  0  0  0  0  0  0  0  0  0  0
   14.0996    8.0848    6.4638 H   0  0  0  0  0  0  0  0  0  0  0  0
   12.6671   12.0596    5.6258 C   0  0  0  0  0  0  0  0  0  0  0  0
   13.2554   12.6525    5.0938 H   0  0  0  0  0  0  0  0  0  0  0  0
   12.8502   12.2465    6.5811 H   0  0  0  0  0  0  0  0  0  0  0  0
   13.8504   10.3547    3.7942 C   0  0  0  0  0  0  0  0  0  0  0  0
   13.9235    9.3865    3.6009 H   0  0  0  0  0  0  0  0  0  0  0  0
   14.7769   10.6826    3.9126 H   0  0  0  0  0  0  0  0  0  0  0  0
   11.8783    9.3963    5.5826 C   0  0  0  0  0  0  0  0  0  0  0  0
   11.2437    9.8413    6.2007 H   0  0  0  0  0  0  0  0  0  0  0  0
   12.2534    8.6206    6.0691 H   0  0  0  0  0  0  0  0  0  0  0  0
    9.9542   12.0373    6.6900 C   0  0  0  0  0  0  0  0  0  0  0  0
    8.5841   11.9019    6.4458 C   0  0  0  0  0  0  0  0  0  0  0  0
    8.2393   12.0694    5.5772 H   0  0  0  0  0  0  0  0  0  0  0  0
    7.7240   11.5239    7.4677 C   0  0  0  0  0  0  0  0  0  0  0  0
    6.7963   11.4304    7.2875 H   0  0  0  0  0  0  0  0  0  0  0  0
    8.1939   11.2839    8.7233 C   0  0  0  0  0  0  0  0  0  0  0  0
    7.5958   11.0328    9.4183 H   0  0  0  0  0  0  0  0  0  0  0  0
    9.5473   11.4109    8.9838 C   0  0  0  0  0  0  0  0  0  0  0  0
    9.8771   11.2365    9.8587 H   0  0  0  0  0  0  0  0  0  0  0  0
   10.4259   11.7889    7.9771 C   0  0  0  0  0  0  0  0  0  0  0  0
   11.3526   11.8782    8.1656 H   0  0  0  0  0  0  0  0  0  0  0  0
   10.8593   14.3309    5.2869 C   0  0  0  0  0  0  0  0  0  0  0  0
   10.0602   14.9517    4.3439 C   0  0  0  0  0  0  0  0  0  0  0  0
    9.6007   14.4341    3.6924 H   0  0  0  0  0  0  0  0  0  0  0  0
    9.9336   16.3217    4.3502 C   0  0  0  0  0  0  0  0  0  0  0  0
    9.3972   16.7459    3.6924 H   0  0  0  0  0  0  0  0  0  0  0  0
   10.5723   17.0849    5.2998 C   0  0  0  0  0  0  0  0  0  0  0  0
   10.4669   18.0294    5.3026 H   0  0  0  0  0  0  0  0  0  0  0  0
   11.3409   16.4906    6.2236 C   0  0  0  0  0  0  0  0  0  0  0  0
   11.7853   17.0179    6.8757 H   0  0  0  0  0  0  0  0  0  0  0  0
   11.4968   15.1191    6.2304 C   0  0  0  0  0  0  0  0  0  0  0  0
   12.0448   14.7104    6.8900 H   0  0  0  0  0  0  0  0  0  0  0  0
   13.6036   12.8744    2.3613 C   0  0  0  0  0  0  0  0  0  0  0  0
   12.6087   13.7449    1.9174 C   0  0  0  0  0  0  0  0  0  0  0  0
   11.7805   13.4073    1.5988 H   0  0  0  0  0  0  0  0  0  0  0  0
   12.8492   15.1094    1.9477 C   0  0  0  0  0  0  0  0  0  0  0  0
   12.1666   15.7107    1.6732 H   0  0  0  0  0  0  0  0  0  0  0  0
   14.0623   15.6074    2.3676 C   0  0  0  0  0  0  0  0  0  0  0  0
   14.2217   16.5450    2.3481 H   0  0  0  0  0  0  0  0  0  0  0  0
   15.0417   14.7620    2.8123 C   0  0  0  0  0  0  0  0  0  0  0  0
   15.8681   15.1108    3.1232 H   0  0  0  0  0  0  0  0  0  0  0  0
   14.8221   13.3975    2.8086 C   0  0  0  0  0  0  0  0  0  0  0  0
   15.5056   12.8102    3.1118 H   0  0  0  0  0  0  0  0  0  0  0  0
   14.2963   10.4440    0.9618 C   0  0  0  0  0  0  0  0  0  0  0  0
   13.6882    9.9641   -0.2036 C   0  0  0  0  0  0  0  0  0  0  0  0
   12.7470   10.0394   -0.3089 H   0  0  0  0  0  0  0  0  0  0  0  0
   14.4405    9.3851   -1.1975 C   0  0  0  0  0  0  0  0  0  0  0  0
   14.0169    9.0628   -1.9849 H   0  0  0  0  0  0  0  0  0  0  0  0
   15.8140    9.2693   -1.0582 C   0  0  0  0  0  0  0  0  0  0  0  0
   16.3280    8.8494   -1.7361 H   0  0  0  0  0  0  0  0  0  0  0  0
   16.4298    9.7674    0.0712 C   0  0  0  0  0  0  0  0  0  0  0  0
   17.3746    9.7199    0.1516 H   0  0  0  0  0  0  0  0  0  0  0  0
   15.6851   10.3296    1.0783 C   0  0  0  0  0  0  0  0  0  0  0  0
   16.1177   10.6449    1.8619 H   0  0  0  0  0  0  0  0  0  0  0  0
   11.9842    7.4752    3.4333 C   0  0  0  0  0  0  0  0  0  0  0  0
   12.4060    7.6161    2.1156 C   0  0  0  0  0  0  0  0  0  0  0  0
   12.0757    8.3374    1.5931 H   0  0  0  0  0  0  0  0  0  0  0  0
   13.3063    6.7162    1.5499 C   0  0  0  0  0  0  0  0  0  0  0  0
   13.6031    6.8390    0.6550 H   0  0  0  0  0  0  0  0  0  0  0  0
   13.7653    5.6447    2.2927 C   0  0  0  0  0  0  0  0  0  0  0  0
   14.3819    5.0295    1.9134 H   0  0  0  0  0  0  0  0  0  0  0  0
   13.3212    5.4759    3.5917 C   0  0  0  0  0  0  0  0  0  0  0  0
   13.6130    4.7239    4.0928 H   0  0  0  0  0  0  0  0  0  0  0  0
   12.4621    6.3842    4.1663 C   0  0  0  0  0  0  0  0  0  0  0  0
   12.1917    6.2684    5.0681 H   0  0  0  0  0  0  0  0  0  0  0  0
    9.6077    7.7193    4.9811 C   0  0  0  0  0  0  0  0  0  0  0  0
    9.0316    6.6855    4.2816 C   0  0  0  0  0  0  0  0  0  0  0  0
    9.2920    6.5320    3.3835 H   0  0  0  0  0  0  0  0  0  0  0  0
    8.0876    5.8707    4.8593 C   0  0  0  0  0  0  0  0  0  0  0  0
    7.7204    5.1578    4.3502 H   0  0  0  0  0  0  0  0  0  0  0  0
    7.6790    6.0591    6.1092 C   0  0  0  0  0  0  0  0  0  0  0  0
    7.0292    5.4913    6.5039 H   0  0  0  0  0  0  0  0  0  0  0  0
    8.2172    7.0817    6.7984 C   0  0  0  0  0  0  0  0  0  0  0  0
    7.9406    7.2436    7.6937 H   0  0  0  0  0  0  0  0  0  0  0  0
    9.1730    7.9021    6.2161 C   0  0  0  0  0  0  0  0  0  0  0  0
    9.5282    8.6220    6.7241 H   0  0  0  0  0  0  0  0  0  0  0  0
  1  4  1  0  0  0  0
  2  5  2  0  0  0  0
  3  6  2  0  0  0  0
  4 34  1  0  0  0  0
  5  1  1  0  0  0  0
  6  1  1  0  0  0  0
  7  1  1  0  0  0  0
  8 17  1  0  0  0  0
  9  7  1  0  0  0  0
 10 13  2  0  0  0  0
 11 14  2  0  0  0  0
 12  9  1  0  0  0  0
 13  9  1  0  0  0  0
 14  9  1  0  0  0  0
 15  1  1  0  0  0  0
 16103  1  0  0  0  0
 17 18  4  0  0  0  0
 18 19  1  0  0  0  0
 20 18  4  0  0  0  0
 21 20  1  0  0  0  0
 22 20  4  0  0  0  0
 23 22  1  0  0  0  0
 24 22  4  0  0  0  0
 25 24  1  0  0  0  0
 26 17  4  0  0  0  0
 27 26  1  0  0  0  0
 28  2  1  0  0  0  0
 29 28  1  0  0  0  0
 30 28  1  0  0  0  0
 31  3  1  0  0  0  0
 32 31  1  0  0  0  0
 33 31  1  0  0  0  0
 34  8  1  0  0  0  0
 35 34  1  0  0  0  0
 36 34  1  0  0  0  0
 37  2  1  0  0  0  0
 38 37  4  0  0  0  0
 39 38  1  0  0  0  0
 40 38  4  0  0  0  0
 41 40  1  0  0  0  0
 42 40  4  0  0  0  0
 43 42  1  0  0  0  0
 44 42  4  0  0  0  0
 45 44  1  0  0  0  0
 46 37  4  0  0  0  0
 47 46  1  0  0  0  0
 48  2  1  0  0  0  0
 49 48  4  0  0  0  0
 50 49  1  0  0  0  0
 51 49  4  0  0  0  0
 52 51  1  0  0  0  0
 53 51  4  0  0  0  0
 54 53  1  0  0  0  0
 55 53  4  0  0  0  0
 56 55  1  0  0  0  0
 57 48  4  0  0  0  0
 58 57  1  0  0  0  0
 59  3  1  0  0  0  0
 60 59  4  0  0  0  0
 61 60  1  0  0  0  0
 62 60  4  0  0  0  0
 63 62  1  0  0  0  0
 64 62  4  0  0  0  0
 65 64  1  0  0  0  0
 66 64  4  0  0  0  0
 67 66  1  0  0  0  0
 68 59  4  0  0  0  0
 69 68  1  0  0  0  0
 70  3  1  0  0  0  0
 71 70  4  0  0  0  0
 72 71  1  0  0  0  0
 73 71  4  0  0  0  0
 74 73  1  0  0  0  0
 75 73  4  0  0  0  0
 76 75  1  0  0  0  0
 77 75  4  0  0  0  0
 78 77  1  0  0  0  0
 79 70  4  0  0  0  0
 80 79  1  0  0  0  0
 81  4  1  0  0  0  0
 82 81  4  0  0  0  0
 83 82  1  0  0  0  0
 84 82  4  0  0  0  0
 85 84  1  0  0  0  0
 86 84  4  0  0  0  0
 87 86  1  0  0  0  0
 88 86  4  0  0  0  0
 89 88  1  0  0  0  0
 90 81  4  0  0  0  0
 91 90  1  0  0  0  0
 92  4  1  0  0  0  0
 93 92  4  0  0  0  0
 94 93  1  0  0  0  0
 95 93  4  0  0  0  0
 96 95  1  0  0  0  0
 97 95  4  0  0  0  0
 98 97  1  0  0  0  0
 99 97  4  0  0  0  0
100 99  1  0  0  0  0
101 92  4  0  0  0  0
102101  1  0  0  0  0
103104  4  0  0  0  0
104105  1  0  0  0  0
106104  4  0  0  0  0
107106  1  0  0  0  0
108106  4  0  0  0  0
109108  1  0  0  0  0
110108  4  0  0  0  0
111110  1  0  0  0  0
112103  4  0  0  0  0
113112  1  0  0  0  0
114 10  1  0  0  0  0
115114  1  0  0  0  0
116114  1  0  0  0  0
117 11  1  0  0  0  0
118117  1  0  0  0  0
119117  1  0  0  0  0
120 12  1  0  0  0  0
121120  1  0  0  0  0
122120  1  0  0  0  0
123 10  1  0  0  0  0
124123  4  0  0  0  0
125124  1  0  0  0  0
126124  4  0  0  0  0
127126  1  0  0  0  0
128126  4  0  0  0  0
129128  1  0  0  0  0
130128  4  0  0  0  0
131130  1  0  0  0  0
132123  4  0  0  0  0
133132  1  0  0  0  0
134 10  1  0  0  0  0
135134  4  0  0  0  0
136135  1  0  0  0  0
137135  4  0  0  0  0
138137  1  0  0  0  0
139137  4  0  0  0  0
140139  1  0  0  0  0
141139  4  0  0  0  0
142141  1  0  0  0  0
143134  4  0  0  0  0
144143  1  0  0  0  0
145 11  1  0  0  0  0
146145  4  0  0  0  0
147146  1  0  0  0  0
148146  4  0  0  0  0
149148  1  0  0  0  0
150148  4  0  0  0  0
151150  1  0  0  0  0
152150  4  0  0  0  0
153152  1  0  0  0  0
154145  4  0  0  0  0
155154  1  0  0  0  0
156 11  1  0  0  0  0
157156  4  0  0  0  0
158157  1  0  0  0  0
159157  4  0  0  0  0
160159  1  0  0  0  0
161159  4  0  0  0  0
162161  1  0  0  0  0
163161  4  0  0  0  0
164163  1  0  0  0  0
165156  4  0  0  0  0
166165  1  0  0  0  0
167 12  1  0  0  0  0
168167  4  0  0  0  0
169168  1  0  0  0  0
170168  4  0  0  0  0
171170  1  0  0  0  0
172170  4  0  0  0  0
173172  1  0  0  0  0
174172  4  0  0  0  0
175174  1  0  0  0  0
176167  4  0  0  0  0
177176  1  0  0  0  0
178 12  1  0  0  0  0
179178  4  0  0  0  0
180179  1  0  0  0  0
181179  4  0  0  0  0
182181  1  0  0  0  0
183181  4  0  0  0  0
184183  1  0  0  0  0
185183  4  0  0  0  0
186185  1  0  0  0  0
187178  4  0  0  0  0
188187  1  0  0  0  0
  8 28  1  0  0  0  0
  8 31  1  0  0  0  0
  9 15  1  0  0  0  0
 16114  1  0  0  0  0
 16117  1  0  0  0  0
 16120  1  0  0  0  0
 24 26  4  0  0  0  0
 44 46  4  0  0  0  0
 55 57  4  0  0  0  0
 66 68  4  0  0  0  0
 77 79  4  0  0  0  0
 88 90  4  0  0  0  0
 99101  4  0  0  0  0
110112  4  0  0  0  0
130132  4  0  0  0  0
141143  4  0  0  0  0
152154  4  0  0  0  0
163165  4  0  0  0  0
174176  4  0  0  0  0
185187  4  0  0  0  0
M  END
$$$$
XASREP

From CSD data. Using bond type 'Any'. No disordered atoms. Largest molecule.
116121  0  0  0  0  0  0  0  0999 V2000
    4.4102    4.6571    3.7599 P   0  0  0  0  0  0  0  0  0  0  0  0
    5.7172    6.0631    3.8112 B   0  0  0  0  0  0  0  0  0  0  0  0
    5.3990    6.7811    4.3790 H   0  0  0  0  0  0  0  0  0  0  0  0
    5.8616    6.4038    2.9122 H   0  0  0  0  0  0  0  0  0  0  0  0
    6.5514    5.7173    4.1637 H   0  0  0  0  0  0  0  0  0  0  0  0
    4.0470    3.9058    5.3681 C   0  0  0  0  0  0  0  0  0  0  0  0
    3.4532    2.6551    5.4791 C   0  0  0  0  0  0  0  0  0  0  0  0
    3.2631    2.1608    4.7031 H   0  0  0  0  0  0  0  0  0  0  0  0
    3.1388    2.1328    6.7140 C   0  0  0  0  0  0  0  0  0  0  0  0
    2.7441    1.2822    6.7755 H   0  0  0  0  0  0  0  0  0  0  0  0
    3.4012    2.8490    7.8519 C   0  0  0  0  0  0  0  0  0  0  0  0
    3.1966    2.4874    8.6965 H   0  0  0  0  0  0  0  0  0  0  0  0
    3.9592    4.0980    7.7597 C   0  0  0  0  0  0  0  0  0  0  0  0
    4.1148    4.5993    8.5380 H   0  0  0  0  0  0  0  0  0  0  0  0
    4.2942    4.6185    6.5292 C   0  0  0  0  0  0  0  0  0  0  0  0
    4.6950    5.4675    6.4774 H   0  0  0  0  0  0  0  0  0  0  0  0
    2.7478    5.1024    3.1287 C   0  0  0  0  0  0  0  0  0  0  0  0
    2.1990    4.2814    3.1949 H   0  0  0  0  0  0  0  0  0  0  0  0
    2.0715    6.1487    4.0584 C   0  0  0  0  0  0  0  0  0  0  0  0
    1.4568    5.6858    4.6641 H   0  0  0  0  0  0  0  0  0  0  0  0
    2.7620    6.5802    4.6054 H   0  0  0  0  0  0  0  0  0  0  0  0
    1.3088    7.2125    3.3073 C   0  0  0  0  0  0  0  0  0  0  0  0
    0.8255    7.8641    3.8751 H   0  0  0  0  0  0  0  0  0  0  0  0
    2.2817    7.8379    2.2664 C   0  0  0  0  0  0  0  0  0  0  0  0
    2.0171    8.7270    1.9517 H   0  0  0  0  0  0  0  0  0  0  0  0
    3.2244    7.8169    2.5337 H   0  0  0  0  0  0  0  0  0  0  0  0
    1.8547    6.6763    1.3343 C   0  0  0  0  0  0  0  0  0  0  0  0
    1.7828    6.9208    0.3785 H   0  0  0  0  0  0  0  0  0  0  0  0
    0.4909    6.6466    2.1079 C   0  0  0  0  0  0  0  0  0  0  0  0
   -0.2742    5.3347    2.3042 C   0  0  0  0  0  0  0  0  0  0  0  0
    0.3275    4.6587    2.6520 H   0  0  0  0  0  0  0  0  0  0  0  0
   -0.6367    5.0413    1.4549 H   0  0  0  0  0  0  0  0  0  0  0  0
   -0.9999    5.4762    2.9335 H   0  0  0  0  0  0  0  0  0  0  0  0
   -0.4901    7.6981    1.5519 C   0  0  0  0  0  0  0  0  0  0  0  0
   -0.0228    8.5384    1.4171 H   0  0  0  0  0  0  0  0  0  0  0  0
   -1.2151    7.8292    2.1836 H   0  0  0  0  0  0  0  0  0  0  0  0
   -0.8509    7.3907    0.7050 H   0  0  0  0  0  0  0  0  0  0  0  0
    2.7606    5.4937    1.6203 C   0  0  0  0  0  0  0  0  0  0  0  0
    3.6841    5.7802    1.4048 H   0  0  0  0  0  0  0  0  0  0  0  0
    2.4524    4.2971    0.7421 C   0  0  0  0  0  0  0  0  0  0  0  0
    2.1200    3.2211    1.1181 O   0  0  0  0  0  0  0  0  0  0  0  0
    2.6236    4.6166   -0.5323 O   0  0  0  0  0  0  0  0  0  0  0  0
    2.3823    3.6386   -1.6182 C   0  0  0  0  0  0  0  0  0  0  0  0
    3.2640    2.4298   -1.4502 C   0  0  0  0  0  0  0  0  0  0  0  0
    3.2269    1.8865   -2.2522 H   0  0  0  0  0  0  0  0  0  0  0  0
    2.9570    1.9093   -0.6908 H   0  0  0  0  0  0  0  0  0  0  0  0
    4.1788    2.7163   -1.2964 H   0  0  0  0  0  0  0  0  0  0  0  0
    0.9405    3.2438   -1.6371 C   0  0  0  0  0  0  0  0  0  0  0  0
    0.7309    2.7477   -0.8304 H   0  0  0  0  0  0  0  0  0  0  0  0
    0.7664    2.6883   -2.4131 H   0  0  0  0  0  0  0  0  0  0  0  0
    0.3872    4.0403   -1.6773 H   0  0  0  0  0  0  0  0  0  0  0  0
    2.7880    4.4281   -2.8365 C   0  0  0  0  0  0  0  0  0  0  0  0
    2.1303    5.1199   -3.0069 H   0  0  0  0  0  0  0  0  0  0  0  0
    2.8426    3.8377   -3.6030 H   0  0  0  0  0  0  0  0  0  0  0  0
    3.6548    4.8386   -2.6828 H   0  0  0  0  0  0  0  0  0  0  0  0
    4.9766    3.2962    2.6868 C   0  0  0  0  0  0  0  0  0  0  0  0
    4.2586    2.6342    2.6002 H   0  0  0  0  0  0  0  0  0  0  0  0
    5.1692    3.6491    1.7935 H   0  0  0  0  0  0  0  0  0  0  0  0
    7.0569    1.5630    2.0012 P   0  0  0  0  0  0  0  0  0  0  0  0
    7.6834    2.5783    0.4944 B   0  0  0  0  0  0  0  0  0  0  0  0
    8.2825    3.2770    0.8020 H   0  0  0  0  0  0  0  0  0  0  0  0
    6.9273    2.9783    0.0379 H   0  0  0  0  0  0  0  0  0  0  0  0
    8.1570    1.9914   -0.1159 H   0  0  0  0  0  0  0  0  0  0  0  0
    5.8999    0.2393    1.5709 C   0  0  0  0  0  0  0  0  0  0  0  0
    5.5405    0.0437    0.2460 C   0  0  0  0  0  0  0  0  0  0  0  0
    5.8495    0.6341   -0.4187 H   0  0  0  0  0  0  0  0  0  0  0  0
    4.7297   -1.0131   -0.0923 C   0  0  0  0  0  0  0  0  0  0  0  0
    4.4910   -1.1372   -0.9936 H   0  0  0  0  0  0  0  0  0  0  0  0
    4.2650   -1.8848    0.8398 C   0  0  0  0  0  0  0  0  0  0  0  0
    3.7122   -2.6010    0.5867 H   0  0  0  0  0  0  0  0  0  0  0  0
    4.6177   -1.7031    2.1670 C   0  0  0  0  0  0  0  0  0  0  0  0
    4.3096   -2.3005    2.8247 H   0  0  0  0  0  0  0  0  0  0  0  0
    5.4143   -0.6516    2.5148 C   0  0  0  0  0  0  0  0  0  0  0  0
    5.6399   -0.5275    3.4185 H   0  0  0  0  0  0  0  0  0  0  0  0
    8.3336    0.6952    2.9664 C   0  0  0  0  0  0  0  0  0  0  0  0
    7.8570    0.2411    3.7052 H   0  0  0  0  0  0  0  0  0  0  0  0
    8.9724   -0.4315    2.1103 C   0  0  0  0  0  0  0  0  0  0  0  0
    8.5433   -1.2822    2.3397 H   0  0  0  0  0  0  0  0  0  0  0  0
    8.7915   -0.2515    1.1639 H   0  0  0  0  0  0  0  0  0  0  0  0
   10.4608   -0.5695    2.3042 C   0  0  0  0  0  0  0  0  0  0  0  0
   10.8864   -1.3136    1.8098 H   0  0  0  0  0  0  0  0  0  0  0  0
   11.0834    0.8315    2.0629 C   0  0  0  0  0  0  0  0  0  0  0  0
   10.5815    1.3922    1.4360 H   0  0  0  0  0  0  0  0  0  0  0  0
   12.0391    0.8158    1.8453 H   0  0  0  0  0  0  0  0  0  0  0  0
   10.7724    1.1145    3.5628 C   0  0  0  0  0  0  0  0  0  0  0  0
   11.4532    1.6542    4.0383 H   0  0  0  0  0  0  0  0  0  0  0  0
   10.8731   -0.4384    3.7970 C   0  0  0  0  0  0  0  0  0  0  0  0
   10.0246   -1.1267    4.8545 C   0  0  0  0  0  0  0  0  0  0  0  0
    9.0863   -0.9538    4.6795 H   0  0  0  0  0  0  0  0  0  0  0  0
   10.2586   -0.7843    5.7299 H   0  0  0  0  0  0  0  0  0  0  0  0
   10.1875   -2.0839    4.8261 H   0  0  0  0  0  0  0  0  0  0  0  0
   12.3307   -0.8507    4.0265 C   0  0  0  0  0  0  0  0  0  0  0  0
   12.9048   -0.3633    3.4138 H   0  0  0  0  0  0  0  0  0  0  0  0
   12.4261   -1.8027    3.8704 H   0  0  0  0  0  0  0  0  0  0  0  0
   12.5847   -0.6463    4.9397 H   0  0  0  0  0  0  0  0  0  0  0  0
    9.3486    1.6560    3.6388 C   0  0  0  0  0  0  0  0  0  0  0  0
    9.3298    2.5067    3.1313 H   0  0  0  0  0  0  0  0  0  0  0  0
    8.9454    1.9774    5.0786 C   0  0  0  0  0  0  0  0  0  0  0  0
    8.0962    1.4009    5.7069 O   0  0  0  0  0  0  0  0  0  0  0  0
    9.6665    3.0043    5.5262 O   0  0  0  0  0  0  0  0  0  0  0  0
    9.4560    3.5565    6.8945 C   0  0  0  0  0  0  0  0  0  0  0  0
   10.4590    4.6919    6.9340 C   0  0  0  0  0  0  0  0  0  0  0  0
   10.4405    5.1094    7.8093 H   0  0  0  0  0  0  0  0  0  0  0  0
   10.2307    5.3487    6.2574 H   0  0  0  0  0  0  0  0  0  0  0  0
   11.3484    4.3443    6.7613 H   0  0  0  0  0  0  0  0  0  0  0  0
    8.0324    4.0631    7.0121 C   0  0  0  0  0  0  0  0  0  0  0  0
    7.9428    4.5906    7.8212 H   0  0  0  0  0  0  0  0  0  0  0  0
    7.4235    3.3084    7.0523 H   0  0  0  0  0  0  0  0  0  0  0  0
    7.8189    4.6116    6.2432 H   0  0  0  0  0  0  0  0  0  0  0  0
    9.8087    2.5084    7.9182 C   0  0  0  0  0  0  0  0  0  0  0  0
    9.7370    2.8892    8.8077 H   0  0  0  0  0  0  0  0  0  0  0  0
   10.7170    2.2045    7.7691 H   0  0  0  0  0  0  0  0  0  0  0  0
    9.1977    1.7590    7.8354 H   0  0  0  0  0  0  0  0  0  0  0  0
    6.2262    2.6097    3.2349 C   0  0  0  0  0  0  0  0  0  0  0  0
    5.9751    2.0577    4.0050 H   0  0  0  0  0  0  0  0  0  0  0  0
    6.8543    3.2945    3.5482 H   0  0  0  0  0  0  0  0  0  0  0  0
  1  2  1  0  0  0  0
  2  3  1  0  0  0  0
  4  2  1  0  0  0  0
  5  2  1  0  0  0  0
  6  1  1  0  0  0  0
  7  6  4  0  0  0  0
  8  7  1  0  0  0  0
  9  7  4  0  0  0  0
 10  9  1  0  0  0  0
 11  9  4  0  0  0  0
 12 11  1  0  0  0  0
 13 11  4  0  0  0  0
 14 13  1  0  0  0  0
 15  6  4  0  0  0  0
 16 15  1  0  0  0  0
 17  1  1  0  0  0  0
 18 17  1  0  0  0  0
 19 17  1  0  0  0  0
 20 19  1  0  0  0  0
 21 19  1  0  0  0  0
 22 19  1  0  0  0  0
 23 22  1  0  0  0  0
 24 22  1  0  0  0  0
 25 24  1  0  0  0  0
 26 24  1  0  0  0  0
 27 24  1  0  0  0  0
 28 27  1  0  0  0  0
 29 22  1  0  0  0  0
 30 29  1  0  0  0  0
 31 30  1  0  0  0  0
 32 30  1  0  0  0  0
 33 30  1  0  0  0  0
 34 29  1  0  0  0  0
 35 34  1  0  0  0  0
 36 34  1  0  0  0  0
 37 34  1  0  0  0  0
 38 17  1  0  0  0  0
 39 38  1  0  0  0  0
 40 38  1  0  0  0  0
 41 40  2  0  0  0  0
 42 40  1  0  0  0  0
 43 42  1  0  0  0  0
 44 43  1  0  0  0  0
 45 44  1  0  0  0  0
 46 44  1  0  0  0  0
 47 44  1  0  0  0  0
 48 43  1  0  0  0  0
 49 48  1  0  0  0  0
 50 48  1  0  0  0  0
 51 48  1  0  0  0  0
 52 43  1  0  0  0  0
 53 52  1  0  0  0  0
 54 52  1  0  0  0  0
 55 52  1  0  0  0  0
 56  1  1  0  0  0  0
 57 56  1  0  0  0  0
 58 56  1  0  0  0  0
 59 60  1  0  0  0  0
 60 61  1  0  0  0  0
 62 60  1  0  0  0  0
 63 60  1  0  0  0  0
 64 59  1  0  0  0  0
 65 64  4  0  0  0  0
 66 65  1  0  0  0  0
 67 65  4  0  0  0  0
 68 67  1  0  0  0  0
 69 67  4  0  0  0  0
 70 69  1  0  0  0  0
 71 69  4  0  0  0  0
 72 71  1  0  0  0  0
 73 64  4  0  0  0  0
 74 73  1  0  0  0  0
 75 59  1  0  0  0  0
 76 75  1  0  0  0  0
 77 75  1  0  0  0  0
 78 77  1  0  0  0  0
 79 77  1  0  0  0  0
 80 77  1  0  0  0  0
 81 80  1  0  0  0  0
 82 80  1  0  0  0  0
 83 82  1  0  0  0  0
 84 82  1  0  0  0  0
 85 82  1  0  0  0  0
 86 85  1  0  0  0  0
 87 80  1  0  0  0  0
 88 87  1  0  0  0  0
 89 88  1  0  0  0  0
 90 88  1  0  0  0  0
 91 88  1  0  0  0  0
 92 87  1  0  0  0  0
 93 92  1  0  0  0  0
 94 92  1  0  0  0  0
 95 92  1  0  0  0  0
 96 75  1  0  0  0  0
 97 96  1  0  0  0  0
 98 96  1  0  0  0  0
 99 98  2  0  0  0  0
100 98  1  0  0  0  0
101100  1  0  0  0  0
102101  1  0  0  0  0
103102  1  0  0  0  0
104102  1  0  0  0  0
105102  1  0  0  0  0
106101  1  0  0  0  0
107106  1  0  0  0  0
108106  1  0  0  0  0
109106  1  0  0  0  0
110101  1  0  0  0  0
111110  1  0  0  0  0
112110  1  0  0  0  0
113110  1  0  0  0  0
114 56  1  0  0  0  0
115114  1  0  0  0  0
116114  1  0  0  0  0
 13 15  4  0  0  0  0
 27 29  1  0  0  0  0
 27 38  1  0  0  0  0
 59114  1  0  0  0  0
 71 73  4  0  0  0  0
 85 87  1  0  0  0  0
 85 96  1  0  0  0  0
M  END
$$$$
XAVBOP

From CSD data. Using bond type 'Any'. Matching problem. No disordered atoms. Largest molecule.
 90113  0  0  0  0  0  0  0  0999 V2000
    3.4760    7.1431   10.6118 C   0  0  0  0  0  0  0  0  0  0  0  0
    3.6037    5.8176   11.4965 C   0  0  0  0  0  0  0  0  0  0  0  0
    5.9803    8.0443    9.2911 C   0  0  0  0  0  0  0  0  0  0  0  0
    7.0872    8.8920    9.2150 C   0  0  0  0  0  0  0  0  0  0  0  0
    7.1706    9.6027    9.8093 H   0  0  0  0  0  0  0  0  0  0  0  0
    8.0537    8.6749    8.2652 C   0  0  0  0  0  0  0  0  0  0  0  0
    8.7892    9.2426    8.2228 H   0  0  0  0  0  0  0  0  0  0  0  0
    7.9495    7.6348    7.3758 C   0  0  0  0  0  0  0  0  0  0  0  0
    8.6064    7.5021    6.7312 H   0  0  0  0  0  0  0  0  0  0  0  0
    6.8638    6.7907    7.4471 C   0  0  0  0  0  0  0  0  0  0  0  0
    6.7903    6.0802    6.8509 H   0  0  0  0  0  0  0  0  0  0  0  0
    5.8773    6.9933    8.4063 C   0  0  0  0  0  0  0  0  0  0  0  0
    5.1468    6.4193    8.4512 H   0  0  0  0  0  0  0  0  0  0  0  0
    4.0779    9.9746   10.1282 C   0  0  0  0  0  0  0  0  0  0  0  0
    3.9334   10.9935   11.0557 C   0  0  0  0  0  0  0  0  0  0  0  0
    4.2028   10.8570   11.9353 H   0  0  0  0  0  0  0  0  0  0  0  0
    3.3951   12.2068   10.6895 C   0  0  0  0  0  0  0  0  0  0  0  0
    3.3125   12.8842   11.3213 H   0  0  0  0  0  0  0  0  0  0  0  0
    2.9805   12.4210    9.4005 C   0  0  0  0  0  0  0  0  0  0  0  0
    2.6005   13.2354    9.1612 H   0  0  0  0  0  0  0  0  0  0  0  0
    3.1257   11.4381    8.4714 C   0  0  0  0  0  0  0  0  0  0  0  0
    2.8433   11.5862    7.5976 H   0  0  0  0  0  0  0  0  0  0  0  0
    3.6897   10.2204    8.8091 C   0  0  0  0  0  0  0  0  0  0  0  0
    3.8090    9.5655    8.1596 H   0  0  0  0  0  0  0  0  0  0  0  0
    6.4113    5.0650   11.2967 C   0  0  0  0  0  0  0  0  0  0  0  0
    7.6381    5.6765   11.4997 C   0  0  0  0  0  0  0  0  0  0  0  0
    7.7342    6.2987   12.1843 H   0  0  0  0  0  0  0  0  0  0  0  0
    8.7108    5.3727   10.7053 C   0  0  0  0  0  0  0  0  0  0  0  0
    9.5269    5.7993   10.8386 H   0  0  0  0  0  0  0  0  0  0  0  0
    8.5756    4.4278    9.7033 C   0  0  0  0  0  0  0  0  0  0  0  0
    9.3104    4.1912    9.1858 H   0  0  0  0  0  0  0  0  0  0  0  0
    7.3574    3.8410    9.4734 C   0  0  0  0  0  0  0  0  0  0  0  0
    7.2636    3.2243    8.7839 H   0  0  0  0  0  0  0  0  0  0  0  0
    6.2774    4.1609   10.2566 C   0  0  0  0  0  0  0  0  0  0  0  0
    5.4508    3.7682   10.0886 H   0  0  0  0  0  0  0  0  0  0  0  0
    4.8361    4.0049   13.4895 C   0  0  0  0  0  0  0  0  0  0  0  0
    4.2539    3.1334   15.6600 C   0  0  0  0  0  0  0  0  0  0  0  0
    3.9846    3.2782   16.5376 H   0  0  0  0  0  0  0  0  0  0  0  0
    4.5125    1.8796   15.2224 C   0  0  0  0  0  0  0  0  0  0  0  0
    4.4105    1.1651   15.8103 H   0  0  0  0  0  0  0  0  0  0  0  0
    4.9240    1.6314   13.9255 C   0  0  0  0  0  0  0  0  0  0  0  0
    5.0870    0.7623   13.6359 H   0  0  0  0  0  0  0  0  0  0  0  0
    5.0891    2.7063   13.0646 C   0  0  0  0  0  0  0  0  0  0  0  0
    5.3720    2.5553   12.1919 H   0  0  0  0  0  0  0  0  0  0  0  0
    9.0176    8.7019   12.7998 C   0  0  0  0  0  0  0  0  0  0  0  0
    9.2059    8.3242   11.9715 H   0  0  0  0  0  0  0  0  0  0  0  0
    9.0348    9.7228   14.9925 C   0  0  0  0  0  0  0  0  0  0  0  0
    9.2016   10.1051   15.8237 H   0  0  0  0  0  0  0  0  0  0  0  0
    7.8099    9.5636   14.4551 C   0  0  0  0  0  0  0  0  0  0  0  0
    6.5291    9.9594   14.9497 C   0  0  0  0  0  0  0  0  0  0  0  0
    4.8819   10.8633   16.1278 C   0  0  0  0  0  0  0  0  0  0  0  0
    4.0497   11.5062   17.0204 C   0  0  0  0  0  0  0  0  0  0  0  0
    4.3864   11.9346   17.7744 H   0  0  0  0  0  0  0  0  0  0  0  0
    2.7329   11.4878   16.7556 C   0  0  0  0  0  0  0  0  0  0  0  0
    2.1560   11.9086   17.3518 H   0  0  0  0  0  0  0  0  0  0  0  0
    2.1928   10.8775   15.6442 C   0  0  0  0  0  0  0  0  0  0  0  0
    1.2725   10.8871   15.5080 H   0  0  0  0  0  0  0  0  0  0  0  0
    3.0224   10.2468   14.7309 C   0  0  0  0  0  0  0  0  0  0  0  0
    2.6722    9.8372   13.9724 H   0  0  0  0  0  0  0  0  0  0  0  0
    4.3801   10.2436   14.9719 C   0  0  0  0  0  0  0  0  0  0  0  0
    7.8129    8.9542   13.2073 N   0  0  0  0  0  0  0  0  0  0  0  0
    5.4385    9.6768   14.2600 N   0  0  0  0  0  0  0  0  0  0  0  0
    6.2445   10.6535   16.0770 N   0  0  0  0  0  0  0  0  0  0  0  0
    6.8159   10.9179   16.6630 H   0  0  0  0  0  0  0  0  0  0  0  0
    2.8460    4.5314   10.8385 B   0  0  0  0  0  0  0  0  0  0  0  0
    3.5006    3.6613   10.6789 H   0  0  0  0  0  0  0  0  0  0  0  0
    2.0281    5.1341    9.3037 B   0  0  0  0  0  0  0  0  0  0  0  0
    2.1897    4.5406    8.3919 H   0  0  0  0  0  0  0  0  0  0  0  0
    2.6001    6.8835    9.2578 B   0  0  0  0  0  0  0  0  0  0  0  0
    3.1330    7.1514    8.3327 H   0  0  0  0  0  0  0  0  0  0  0  0
    1.8414    7.7408   10.6308 B   0  0  0  0  0  0  0  0  0  0  0  0
    1.5213    8.7915   10.5762 H   0  0  0  0  0  0  0  0  0  0  0  0
    2.5781    7.0717   12.1069 B   0  0  0  0  0  0  0  0  0  0  0  0
    2.7727    7.6841   12.9994 H   0  0  0  0  0  0  0  0  0  0  0  0
    2.0915    5.3737   12.2179 B   0  0  0  0  0  0  0  0  0  0  0  0
    1.9354    4.8925   13.1954 H   0  0  0  0  0  0  0  0  0  0  0  0
    1.1376    4.9547   10.8242 B   0  0  0  0  0  0  0  0  0  0  0  0
    0.3575    4.1824   10.8985 H   0  0  0  0  0  0  0  0  0  0  0  0
    0.9757    6.4471    9.8095 B   0  0  0  0  0  0  0  0  0  0  0  0
    0.0850    6.6699    9.2041 H   0  0  0  0  0  0  0  0  0  0  0  0
    0.9762    6.5653   11.6011 B   0  0  0  0  0  0  0  0  0  0  0  0
    0.0779    6.8548   12.1654 H   0  0  0  0  0  0  0  0  0  0  0  0
    4.8277    8.4070   10.6685 P   0  0  0  0  0  0  0  0  0  0  0  0
    5.0964    5.4862   12.4573 P   0  0  0  0  0  0  0  0  0  0  0  0
    5.7727    8.5573   12.6124 Cu  0  0  0  0  0  0  0  0  0  0  0  0
   10.2395    9.1317   13.9399 S   0  0  0  0  0  0  0  0  0  0  0  0
    4.3958    4.2111   14.7817 C   0  0  0  0  0  0  0  0  0  0  0  0
    4.1916    5.0713   15.0693 H   0  0  0  0  0  0  0  0  0  0  0  0
    5.5215    6.5617   13.4134 O   0  0  0  0  0  0  0  0  0  0  0  0
    3.1371    5.1728    9.4020 H   0  0  0  0  0  0  0  0  0  0  0  0
  1  2  1  0  0  0  0
  2 65  1  0  0  0  0
  3  4  4  0  0  0  0
  4  5  1  0  0  0  0
  6  4  4  0  0  0  0
  7  6  1  0  0  0  0
  8  6  4  0  0  0  0
  9  8  1  0  0  0  0
 10  8  4  0  0  0  0
 11 10  1  0  0  0  0
 12  3  4  0  0  0  0
 13 12  1  0  0  0  0
 14 15  4  0  0  0  0
 15 16  1  0  0  0  0
 17 15  4  0  0  0  0
 18 17  1  0  0  0  0
 19 17  4  0  0  0  0
 20 19  1  0  0  0  0
 21 19  4  0  0  0  0
 22 21  1  0  0  0  0
 23 14  4  0  0  0  0
 24 23  1  0  0  0  0
 25 26  4  0  0  0  0
 26 27  1  0  0  0  0
 28 26  4  0  0  0  0
 29 28  1  0  0  0  0
 30 28  4  0  0  0  0
 31 30  1  0  0  0  0
 32 30  4  0  0  0  0
 33 32  1  0  0  0  0
 34 25  4  0  0  0  0
 35 34  1  0  0  0  0
 36 43  4  0  0  0  0
 37 38  1  0  0  0  0
 39 37  4  0  0  0  0
 40 39  1  0  0  0  0
 41 39  4  0  0  0  0
 42 41  1  0  0  0  0
 43 41  4  0  0  0  0
 44 43  1  0  0  0  0
 45 46  1  0  0  0  0
 47 48  1  0  0  0  0
 49 47  2  0  0  0  0
 50 49  1  0  0  0  0
 51 52  4  0  0  0  0
 52 53  1  0  0  0  0
 54 52  4  0  0  0  0
 55 54  1  0  0  0  0
 56 54  4  0  0  0  0
 57 56  1  0  0  0  0
 58 56  4  0  0  0  0
 59 58  1  0  0  0  0
 60 51  4  0  0  0  0
 61 45  2  0  0  0  0
 62 50  2  0  0  0  0
 63 50  1  0  0  0  0
 64 63  1  0  0  0  0
 65 66  1  0  0  0  0
 67 65  1  0  0  0  0
 68 67  1  0  0  0  0
 69  1  1  0  0  0  0
 70 69  1  0  0  0  0
 71  1  1  0  0  0  0
 72 71  1  0  0  0  0
 73  1  1  0  0  0  0
 74 73  1  0  0  0  0
 75  2  1  0  0  0  0
 76 75  1  0  0  0  0
 77 65  1  0  0  0  0
 78 77  1  0  0  0  0
 79 67  1  0  0  0  0
 80 79  1  0  0  0  0
 81 71  1  0  0  0  0
 82 81  1  0  0  0  0
 83  1  1  0  0  0  0
 84  2  1  0  0  0  0
 85 61  1  0  0  0  0
 86 45  1  0  0  0  0
 87 36  4  0  0  0  0
 88 87  1  0  0  0  0
 89 84  2  0  0  0  0
 90 67  1  0  0  0  0
  2 73  1  0  0  0  0
  3 83  1  0  0  0  0
 10 12  4  0  0  0  0
 14 83  1  0  0  0  0
 21 23  4  0  0  0  0
 25 84  1  0  0  0  0
 32 34  4  0  0  0  0
 36 84  1  0  0  0  0
 37 87  4  0  0  0  0
 47 86  1  0  0  0  0
 49 61  1  0  0  0  0
 51 63  1  0  0  0  0
 58 60  4  0  0  0  0
 60 62  1  0  0  0  0
 62 85  1  0  0  0  0
 65 75  1  0  0  0  0
 67 69  1  0  0  0  0
 67 77  1  0  0  0  0
 69 71  1  0  0  0  0
 69 79  1  0  0  0  0
 71 73  1  0  0  0  0
 71 79  1  0  0  0  0
 73 75  1  0  0  0  0
 73 81  1  0  0  0  0
 75 77  1  0  0  0  0
 75 81  1  0  0  0  0
 77 79  1  0  0  0  0
 77 81  1  0  0  0  0
 79 81  1  0  0  0  0
 83 85  1  0  0  0  0
 85 89  1  0  0  0  0
M  END
$$$$
XAVCUW

From CSD data. Using bond type 'Any'. Matching problem. No disordered atoms. Largest molecule.
 90114  0  0  0  0  0  0  0  0999 V2000
    0.8378    9.5978   15.5919 C   0  0  0  0  0  0  0  0  0  0  0  0
    0.3626   10.6765   14.5286 C   0  0  0  0  0  0  0  0  0  0  0  0
    2.3155    7.3056   16.5062 C   0  0  0  0  0  0  0  0  0  0  0  0
    2.7444    7.3689   17.8477 C   0  0  0  0  0  0  0  0  0  0  0  0
    3.1246    8.1717   18.1853 H   0  0  0  0  0  0  0  0  0  0  0  0
    2.6137    6.2772   18.6705 C   0  0  0  0  0  0  0  0  0  0  0  0
    2.9127    6.3234   19.5710 H   0  0  0  0  0  0  0  0  0  0  0  0
    2.0523    5.1189   18.1896 C   0  0  0  0  0  0  0  0  0  0  0  0
    1.9392    4.3679   18.7609 H   0  0  0  0  0  0  0  0  0  0  0  0
    1.6514    5.0572   16.8619 C   0  0  0  0  0  0  0  0  0  0  0  0
    1.2682    4.2551   16.5257 H   0  0  0  0  0  0  0  0  0  0  0  0
    1.7978    6.1213   16.0351 C   0  0  0  0  0  0  0  0  0  0  0  0
    1.5412    6.0479   15.1236 H   0  0  0  0  0  0  0  0  0  0  0  0
    3.7862    9.6969   16.1564 C   0  0  0  0  0  0  0  0  0  0  0  0
    3.6193   10.7853   16.9951 C   0  0  0  0  0  0  0  0  0  0  0  0
    2.7496   11.1084   17.1940 H   0  0  0  0  0  0  0  0  0  0  0  0
    4.7568   11.4059   17.5496 C   0  0  0  0  0  0  0  0  0  0  0  0
    4.6499   12.1705   18.1039 H   0  0  0  0  0  0  0  0  0  0  0  0
    5.9944   10.9299   17.3031 C   0  0  0  0  0  0  0  0  0  0  0  0
    6.7482   11.3555   17.6933 H   0  0  0  0  0  0  0  0  0  0  0  0
    6.1733    9.8642   16.5141 C   0  0  0  0  0  0  0  0  0  0  0  0
    7.0488    9.5333   16.3507 H   0  0  0  0  0  0  0  0  0  0  0  0
    5.0742    9.2453   15.9357 C   0  0  0  0  0  0  0  0  0  0  0  0
    5.2106    8.4908   15.3749 H   0  0  0  0  0  0  0  0  0  0  0  0
    2.7778   12.1564   13.8986 C   0  0  0  0  0  0  0  0  0  0  0  0
    2.5570   13.1718   14.7949 C   0  0  0  0  0  0  0  0  0  0  0  0
    1.6694   13.3712   15.0715 H   0  0  0  0  0  0  0  0  0  0  0  0
    3.6252   13.9174   15.3077 C   0  0  0  0  0  0  0  0  0  0  0  0
    3.4733   14.6269   15.9200 H   0  0  0  0  0  0  0  0  0  0  0  0
    4.9177   13.5958   14.8983 C   0  0  0  0  0  0  0  0  0  0  0  0
    5.6559   14.0843   15.2429 H   0  0  0  0  0  0  0  0  0  0  0  0
    5.1381   12.5658   13.9900 C   0  0  0  0  0  0  0  0  0  0  0  0
    6.0229   12.3583   13.7122 H   0  0  0  0  0  0  0  0  0  0  0  0
    4.0753   11.8478   13.4931 C   0  0  0  0  0  0  0  0  0  0  0  0
    4.2255   11.1417   12.8755 H   0  0  0  0  0  0  0  0  0  0  0  0
    0.5165   12.2734   12.0840 C   0  0  0  0  0  0  0  0  0  0  0  0
    0.5833   13.6494   12.1436 C   0  0  0  0  0  0  0  0  0  0  0  0
    1.1435   14.0522   12.7958 H   0  0  0  0  0  0  0  0  0  0  0  0
   -0.1299   14.4535   11.2989 C   0  0  0  0  0  0  0  0  0  0  0  0
   -0.0419   15.3976   11.3471 H   0  0  0  0  0  0  0  0  0  0  0  0
   -0.9448   13.8996   10.4105 C   0  0  0  0  0  0  0  0  0  0  0  0
   -1.4688   14.4705    9.8608 H   0  0  0  0  0  0  0  0  0  0  0  0
   -1.0733   12.5008   10.2416 C   0  0  0  0  0  0  0  0  0  0  0  0
   -1.6440   12.1186    9.5853 H   0  0  0  0  0  0  0  0  0  0  0  0
   -0.2936   11.7081   11.1161 C   0  0  0  0  0  0  0  0  0  0  0  0
   -0.3275   10.7628   11.0371 H   0  0  0  0  0  0  0  0  0  0  0  0
    1.1153    5.8613   12.0045 C   0  0  0  0  0  0  0  0  0  0  0  0
    0.4156    5.8848   12.6472 H   0  0  0  0  0  0  0  0  0  0  0  0
    2.6127    5.4227   10.1581 C   0  0  0  0  0  0  0  0  0  0  0  0
    3.0959    5.1463    9.3888 H   0  0  0  0  0  0  0  0  0  0  0  0
    2.9922    6.4137   11.0227 C   0  0  0  0  0  0  0  0  0  0  0  0
    4.2217    7.1935   11.0227 C   0  0  0  0  0  0  0  0  0  0  0  0
    6.1786    8.0009   10.4999 C   0  0  0  0  0  0  0  0  0  0  0  0
    7.3942    8.3566    9.9256 C   0  0  0  0  0  0  0  0  0  0  0  0
    7.6554    8.0423    9.0666 H   0  0  0  0  0  0  0  0  0  0  0  0
    8.2086    9.1981   10.6788 C   0  0  0  0  0  0  0  0  0  0  0  0
    9.0472    9.4707   10.3257 H   0  0  0  0  0  0  0  0  0  0  0  0
    7.8219    9.6530   11.9448 C   0  0  0  0  0  0  0  0  0  0  0  0
    8.4228   10.1948   12.4435 H   0  0  0  0  0  0  0  0  0  0  0  0
    6.5985    9.3379   12.4854 C   0  0  0  0  0  0  0  0  0  0  0  0
    6.3262    9.6916   13.3232 H   0  0  0  0  0  0  0  0  0  0  0  0
    5.7790    8.4898   11.7640 C   0  0  0  0  0  0  0  0  0  0  0  0
    4.5019    7.9765   12.0383 N   0  0  0  0  0  0  0  0  0  0  0  0
    2.1383    6.6574   12.0561 N   0  0  0  0  0  0  0  0  0  0  0  0
    5.1650    7.1853   10.0687 N   0  0  0  0  0  0  0  0  0  0  0  0
    5.1374    6.7396    9.3106 H   0  0  0  0  0  0  0  0  0  0  0  0
    1.9972   10.0218   12.3272 O   0  0  0  0  0  0  0  0  0  0  0  0
    0.2641    9.9666   17.0825 B   0  0  0  0  0  0  0  0  0  0  0  0
    1.0663   10.0596   17.8593 H   0  0  0  0  0  0  0  0  0  0  0  0
   -0.7689   11.4530   16.9255 B   0  0  0  0  0  0  0  0  0  0  0  0
   -0.5528   12.2766   17.6531 H   0  0  0  0  0  0  0  0  0  0  0  0
   -0.5776   11.8689   15.1566 B   0  0  0  0  0  0  0  0  0  0  0  0
   -0.1994   12.9068   14.9722 H   0  0  0  0  0  0  0  0  0  0  0  0
   -1.3489   10.5628   14.1987 B   0  0  0  0  0  0  0  0  0  0  0  0
   -1.8678   10.7544   13.2245 H   0  0  0  0  0  0  0  0  0  0  0  0
   -0.3592    9.1104   14.4372 B   0  0  0  0  0  0  0  0  0  0  0  0
   -0.1953    8.3617   13.6213 H   0  0  0  0  0  0  0  0  0  0  0  0
   -0.5148    8.6442   16.1345 B   0  0  0  0  0  0  0  0  0  0  0  0
   -0.4958    7.5688   16.4467 H   0  0  0  0  0  0  0  0  0  0  0  0
   -1.5001    9.8740   16.9613 B   0  0  0  0  0  0  0  0  0  0  0  0
   -2.1319    9.6027   17.8460 H   0  0  0  0  0  0  0  0  0  0  0  0
   -2.0276   11.0452   15.7370 B   0  0  0  0  0  0  0  0  0  0  0  0
   -3.0174   11.5671   15.7800 H   0  0  0  0  0  0  0  0  0  0  0  0
   -1.9022    9.3200   15.2878 B   0  0  0  0  0  0  0  0  0  0  0  0
   -2.8014    8.6946   15.0550 H   0  0  0  0  0  0  0  0  0  0  0  0
    2.4504    8.7243   15.3707 P   0  0  0  0  0  0  0  0  0  0  0  0
    1.4407   11.1807   13.1626 P   0  0  0  0  0  0  0  0  0  0  0  0
    1.1241    4.7612   10.6864 S   0  0  0  0  0  0  0  0  0  0  0  0
    2.9071    8.2296   13.3017 Cu  0  0  0  0  0  0  0  0  0  0  0  0
    0.4038   11.4205   16.7943 H   0  0  0  0  0  0  0  0  0  0  0  0
  1  2  1  0  0  0  0
  2 72  1  0  0  0  0
  3  4  4  0  0  0  0
  4  5  1  0  0  0  0
  6  4  4  0  0  0  0
  7  6  1  0  0  0  0
  8  6  4  0  0  0  0
  9  8  1  0  0  0  0
 10  8  4  0  0  0  0
 11 10  1  0  0  0  0
 12  3  4  0  0  0  0
 13 12  1  0  0  0  0
 14 15  4  0  0  0  0
 15 16  1  0  0  0  0
 17 15  4  0  0  0  0
 18 17  1  0  0  0  0
 19 17  4  0  0  0  0
 20 19  1  0  0  0  0
 21 19  4  0  0  0  0
 22 21  1  0  0  0  0
 23 14  4  0  0  0  0
 24 23  1  0  0  0  0
 25 26  4  0  0  0  0
 26 27  1  0  0  0  0
 28 26  4  0  0  0  0
 29 28  1  0  0  0  0
 30 28  4  0  0  0  0
 31 30  1  0  0  0  0
 32 30  4  0  0  0  0
 33 32  1  0  0  0  0
 34 25  4  0  0  0  0
 35 34  1  0  0  0  0
 36 37  4  0  0  0  0
 37 38  1  0  0  0  0
 39 37  4  0  0  0  0
 40 39  1  0  0  0  0
 41 39  4  0  0  0  0
 42 41  1  0  0  0  0
 43 41  4  0  0  0  0
 44 43  1  0  0  0  0
 45 36  4  0  0  0  0
 46 45  1  0  0  0  0
 47 48  1  0  0  0  0
 49 50  1  0  0  0  0
 51 49  2  0  0  0  0
 52 51  1  0  0  0  0
 53 54  4  0  0  0  0
 54 55  1  0  0  0  0
 56 54  4  0  0  0  0
 57 56  1  0  0  0  0
 58 56  4  0  0  0  0
 59 58  1  0  0  0  0
 60 58  4  0  0  0  0
 61 60  1  0  0  0  0
 62 53  4  0  0  0  0
 63 52  2  0  0  0  0
 64 47  2  0  0  0  0
 65 52  1  0  0  0  0
 66 65  1  0  0  0  0
 67 87  2  0  0  0  0
 68  1  1  0  0  0  0
 69 68  1  0  0  0  0
 70 68  1  0  0  0  0
 71 70  1  0  0  0  0
 72 70  1  0  0  0  0
 73 72  1  0  0  0  0
 74  2  1  0  0  0  0
 75 74  1  0  0  0  0
 76  1  1  0  0  0  0
 77 76  1  0  0  0  0
 78  1  1  0  0  0  0
 79 78  1  0  0  0  0
 80 68  1  0  0  0  0
 81 80  1  0  0  0  0
 82 70  1  0  0  0  0
 83 82  1  0  0  0  0
 84 74  1  0  0  0  0
 85 84  1  0  0  0  0
 86  1  1  0  0  0  0
 87  2  1  0  0  0  0
 88 47  1  0  0  0  0
 89 63  1  0  0  0  0
 90 68  1  0  0  0  0
  2 76  1  0  0  0  0
  3 86  1  0  0  0  0
 10 12  4  0  0  0  0
 14 86  1  0  0  0  0
 21 23  4  0  0  0  0
 25 87  1  0  0  0  0
 32 34  4  0  0  0  0
 36 87  1  0  0  0  0
 43 45  4  0  0  0  0
 49 88  1  0  0  0  0
 51 64  1  0  0  0  0
 53 65  1  0  0  0  0
 60 62  4  0  0  0  0
 62 63  1  0  0  0  0
 64 89  1  0  0  0  0
 67 89  1  0  0  0  0
 68 78  1  0  0  0  0
 70 80  1  0  0  0  0
 70 90  1  0  0  0  0
 72 74  1  0  0  0  0
 72 82  1  0  0  0  0
 74 76  1  0  0  0  0
 74 82  1  0  0  0  0
 76 78  1  0  0  0  0
 76 84  1  0  0  0  0
 78 80  1  0  0  0  0
 78 84  1  0  0  0  0
 80 82  1  0  0  0  0
 80 84  1  0  0  0  0
 82 84  1  0  0  0  0
 86 89  1  0  0  0  0
M  END
$$$$
XAXHUZ

From CSD data. Using bond type 'Any'. No disordered atoms. Largest molecule.
 83103  0  0  0  0  0  0  0  0999 V2000
    9.8075   16.0128   19.1124 Rh  0  0  0  0  0  0  0  0  0  0  0  0
   11.8664   16.0259   20.2126 P   0  0  0  0  0  0  0  0  0  0  0  0
   10.7570   14.9578   17.3433 P   0  0  0  0  0  0  0  0  0  0  0  0
    8.6061   16.6919   21.0366 S   0  0  0  0  0  0  0  0  0  0  0  0
    6.8528   17.6464   18.6874 B   0  0  0  0  0  0  0  0  0  0  0  0
    6.9433   17.6052   20.4228 B   0  0  0  0  0  0  0  0  0  0  0  0
    7.5616   16.1939   19.3288 B   0  0  0  0  0  0  0  0  0  0  0  0
    8.2160   16.8846   17.8374 B   0  0  0  0  0  0  0  0  0  0  0  0
    8.1701   18.6600   18.0199 B   0  0  0  0  0  0  0  0  0  0  0  0
    7.4575   19.0782   19.6019 B   0  0  0  0  0  0  0  0  0  0  0  0
    9.7557   17.8981   18.1412 B   0  0  0  0  0  0  0  0  0  0  0  0
    9.1824   19.2975   19.3625 B   0  0  0  0  0  0  0  0  0  0  0  0
    8.4465   18.6031   20.9153 B   0  0  0  0  0  0  0  0  0  0  0  0
   10.8211   18.1549   17.2926 O   0  0  0  0  0  0  0  0  0  0  0  0
   13.2101   16.5546   19.1048 C   0  0  0  0  0  0  0  0  0  0  0  0
   13.5042   15.5194   18.0138 C   0  0  0  0  0  0  0  0  0  0  0  0
   12.4667   15.4272   16.8906 C   0  0  0  0  0  0  0  0  0  0  0  0
   11.9551   17.2148   21.6043 C   0  0  0  0  0  0  0  0  0  0  0  0
   11.4463   16.8428   22.8379 C   0  0  0  0  0  0  0  0  0  0  0  0
   11.4914   17.7222   23.9120 C   0  0  0  0  0  0  0  0  0  0  0  0
   12.0292   18.9852   23.7678 C   0  0  0  0  0  0  0  0  0  0  0  0
   12.5194   19.3633   22.5495 C   0  0  0  0  0  0  0  0  0  0  0  0
   12.4821   18.4906   21.4708 C   0  0  0  0  0  0  0  0  0  0  0  0
   12.4991   14.4966   20.9522 C   0  0  0  0  0  0  0  0  0  0  0  0
   11.6670   13.3955   21.1056 C   0  0  0  0  0  0  0  0  0  0  0  0
   12.1421   12.2099   21.6058 C   0  0  0  0  0  0  0  0  0  0  0  0
   13.4592   12.1041   21.9772 C   0  0  0  0  0  0  0  0  0  0  0  0
   14.2904   13.1905   21.8667 C   0  0  0  0  0  0  0  0  0  0  0  0
   13.8276   14.3857   21.3603 C   0  0  0  0  0  0  0  0  0  0  0  0
   10.7894   13.2038   17.8358 C   0  0  0  0  0  0  0  0  0  0  0  0
    9.6472   12.6701   18.4250 C   0  0  0  0  0  0  0  0  0  0  0  0
    9.6079   11.3389   18.8240 C   0  0  0  0  0  0  0  0  0  0  0  0
   10.7169   10.5488   18.6383 C   0  0  0  0  0  0  0  0  0  0  0  0
   11.8585   11.0526   18.0568 C   0  0  0  0  0  0  0  0  0  0  0  0
   11.9001   12.3799   17.6548 C   0  0  0  0  0  0  0  0  0  0  0  0
    9.9756   14.8827   15.6861 C   0  0  0  0  0  0  0  0  0  0  0  0
   10.0568   15.9766   14.8407 C   0  0  0  0  0  0  0  0  0  0  0  0
    9.5458   15.9067   13.5641 C   0  0  0  0  0  0  0  0  0  0  0  0
    8.9296   14.7506   13.1114 C   0  0  0  0  0  0  0  0  0  0  0  0
    8.8015   13.6804   13.9507 C   0  0  0  0  0  0  0  0  0  0  0  0
    9.3249   13.7290   15.2289 C   0  0  0  0  0  0  0  0  0  0  0  0
   10.9708   19.4243   16.6390 C   0  0  0  0  0  0  0  0  0  0  0  0
   12.2449   19.4367   15.8549 C   0  0  0  0  0  0  0  0  0  0  0  0
   12.9626   17.4042   18.6828 H   0  0  0  0  0  0  0  0  0  0  0  0
   14.0219   16.7053   19.6326 H   0  0  0  0  0  0  0  0  0  0  0  0
   14.3730   15.7302   17.6133 H   0  0  0  0  0  0  0  0  0  0  0  0
   13.5807   14.6384   18.4358 H   0  0  0  0  0  0  0  0  0  0  0  0
   12.7919   14.7771   16.2324 H   0  0  0  0  0  0  0  0  0  0  0  0
   12.4302   16.2979   16.4426 H   0  0  0  0  0  0  0  0  0  0  0  0
   11.0671   15.9860   22.9500 H   0  0  0  0  0  0  0  0  0  0  0  0
   11.1515   17.4563   24.7467 H   0  0  0  0  0  0  0  0  0  0  0  0
   12.0582   19.5771   24.4966 H   0  0  0  0  0  0  0  0  0  0  0  0
   12.8851   20.2228   22.4405 H   0  0  0  0  0  0  0  0  0  0  0  0
   12.8199   18.7679   20.6392 H   0  0  0  0  0  0  0  0  0  0  0  0
   10.7621   13.4649   20.8632 H   0  0  0  0  0  0  0  0  0  0  0  0
   11.5669   11.4712   21.6948 H   0  0  0  0  0  0  0  0  0  0  0  0
   13.7916   11.2892   22.3070 H   0  0  0  0  0  0  0  0  0  0  0  0
   15.1876   13.1190   22.1383 H   0  0  0  0  0  0  0  0  0  0  0  0
   14.4052   15.1247   21.2897 H   0  0  0  0  0  0  0  0  0  0  0  0
    8.8938   13.2161   18.5554 H   0  0  0  0  0  0  0  0  0  0  0  0
    8.8305   10.9825   19.2152 H   0  0  0  0  0  0  0  0  0  0  0  0
   10.6948    9.6497   18.9114 H   0  0  0  0  0  0  0  0  0  0  0  0
   12.6078   10.4993   17.9340 H   0  0  0  0  0  0  0  0  0  0  0  0
   12.6791   12.7246   17.2589 H   0  0  0  0  0  0  0  0  0  0  0  0
   10.4625   16.7707   15.1399 H   0  0  0  0  0  0  0  0  0  0  0  0
    9.6160   16.6505   12.9933 H   0  0  0  0  0  0  0  0  0  0  0  0
    8.6023   14.7027   12.2307 H   0  0  0  0  0  0  0  0  0  0  0  0
    8.3544   12.9073   13.6592 H   0  0  0  0  0  0  0  0  0  0  0  0
    9.2438   12.9822   15.7951 H   0  0  0  0  0  0  0  0  0  0  0  0
   10.9874   20.1414   17.3080 H   0  0  0  0  0  0  0  0  0  0  0  0
   10.2107   19.5808   16.0406 H   0  0  0  0  0  0  0  0  0  0  0  0
   12.3389   20.2895   15.4038 H   0  0  0  0  0  0  0  0  0  0  0  0
   12.2260   18.7238   15.1967 H   0  0  0  0  0  0  0  0  0  0  0  0
   12.9958   19.3033   16.4549 H   0  0  0  0  0  0  0  0  0  0  0  0
    5.8928   17.6302   18.2885 H   0  0  0  0  0  0  0  0  0  0  0  0
    6.1401   17.5172   21.0979 H   0  0  0  0  0  0  0  0  0  0  0  0
    7.0195   15.2149   19.4930 H   0  0  0  0  0  0  0  0  0  0  0  0
    8.0423   16.4251   16.8216 H   0  0  0  0  0  0  0  0  0  0  0  0
    7.9637   19.2518   17.1806 H   0  0  0  0  0  0  0  0  0  0  0  0
    6.8567   19.9755   19.7185 H   0  0  0  0  0  0  0  0  0  0  0  0
    9.6193   20.3027   19.3272 H   0  0  0  0  0  0  0  0  0  0  0  0
    8.5598   19.1109   21.8651 H   0  0  0  0  0  0  0  0  0  0  0  0
   10.0387   18.5735   19.5651 H   0  0  0  0  0  0  0  0  0  0  0  0
  1  2  1  0  0  0  0
  2 15  1  0  0  0  0
  3  1  1  0  0  0  0
  4  1  1  0  0  0  0
  5  6  1  0  0  0  0
  6  4  1  0  0  0  0
  7  1  1  0  0  0  0
  8  1  1  0  0  0  0
  9  5  1  0  0  0  0
 10  5  1  0  0  0  0
 11  1  1  0  0  0  0
 12  9  1  0  0  0  0
 13  4  1  0  0  0  0
 14 11  1  0  0  0  0
 15 16  1  0  0  0  0
 16 17  1  0  0  0  0
 17  3  1  0  0  0  0
 18  2  1  0  0  0  0
 19 18  4  0  0  0  0
 20 19  4  0  0  0  0
 21 20  4  0  0  0  0
 22 21  4  0  0  0  0
 23 18  4  0  0  0  0
 24  2  1  0  0  0  0
 25 24  4  0  0  0  0
 26 25  4  0  0  0  0
 27 26  4  0  0  0  0
 28 27  4  0  0  0  0
 29 24  4  0  0  0  0
 30  3  1  0  0  0  0
 31 30  4  0  0  0  0
 32 31  4  0  0  0  0
 33 32  4  0  0  0  0
 34 33  4  0  0  0  0
 35 30  4  0  0  0  0
 36  3  1  0  0  0  0
 37 36  4  0  0  0  0
 38 37  4  0  0  0  0
 39 38  4  0  0  0  0
 40 39  4  0  0  0  0
 41 36  4  0  0  0  0
 42 14  1  0  0  0  0
 43 42  1  0  0  0  0
 44 15  1  0  0  0  0
 45 15  1  0  0  0  0
 46 16  1  0  0  0  0
 47 16  1  0  0  0  0
 48 17  1  0  0  0  0
 49 17  1  0  0  0  0
 50 19  1  0  0  0  0
 51 20  1  0  0  0  0
 52 21  1  0  0  0  0
 53 22  1  0  0  0  0
 54 23  1  0  0  0  0
 55 25  1  0  0  0  0
 56 26  1  0  0  0  0
 57 27  1  0  0  0  0
 58 28  1  0  0  0  0
 59 29  1  0  0  0  0
 60 31  1  0  0  0  0
 61 32  1  0  0  0  0
 62 33  1  0  0  0  0
 63 34  1  0  0  0  0
 64 35  1  0  0  0  0
 65 37  1  0  0  0  0
 66 38  1  0  0  0  0
 67 39  1  0  0  0  0
 68 40  1  0  0  0  0
 69 41  1  0  0  0  0
 70 42  1  0  0  0  0
 71 42  1  0  0  0  0
 72 43  1  0  0  0  0
 73 43  1  0  0  0  0
 74 43  1  0  0  0  0
 75  5  1  0  0  0  0
 76  6  1  0  0  0  0
 77  7  1  0  0  0  0
 78  8  1  0  0  0  0
 79  9  1  0  0  0  0
 80 10  1  0  0  0  0
 81 12  1  0  0  0  0
 82 13  1  0  0  0  0
 83 11  1  0  0  0  0
  4  7  1  0  0  0  0
  5  7  1  0  0  0  0
  5  8  1  0  0  0  0
  6  7  1  0  0  0  0
  6 10  1  0  0  0  0
  6 13  1  0  0  0  0
  7  8  1  0  0  0  0
  8  9  1  0  0  0  0
  8 11  1  0  0  0  0
  9 10  1  0  0  0  0
  9 11  1  0  0  0  0
 10 12  1  0  0  0  0
 10 13  1  0  0  0  0
 11 12  1  0  0  0  0
 12 13  1  0  0  0  0
 12 83  1  0  0  0  0
 22 23  4  0  0  0  0
 28 29  4  0  0  0  0
 34 35  4  0  0  0  0
 40 41  4  0  0  0  0
M  END
$$$$
XAXJEL

From CSD data. Using bond type 'Any'. No disordered atoms. Largest molecule.
124149  0  0  0  0  0  0  0  0999 V2000
    7.2647   17.3572   18.2252 Rh  0  0  0  0  0  0  0  0  0  0  0  0
    8.4841   16.5617   20.0930 S   0  0  0  0  0  0  0  0  0  0  0  0
    5.0945   17.7433   18.8094 P   0  0  0  0  0  0  0  0  0  0  0  0
    7.3968   19.6086   18.0324 P   0  0  0  0  0  0  0  0  0  0  0  0
    6.3108   16.5047   14.8094 P   0  0  0  0  0  0  0  0  0  0  0  0
    3.4852   19.8238   13.7960 P   0  0  0  0  0  0  0  0  0  0  0  0
    3.6391   20.6805   15.0340 O   0  0  0  0  0  0  0  0  0  0  0  0
    7.3842   16.3296   16.3911 B   0  0  0  0  0  0  0  0  0  0  0  0
    7.6449   15.0699   19.2306 B   0  0  0  0  0  0  0  0  0  0  0  0
    9.5746   16.9078   18.5053 B   0  0  0  0  0  0  0  0  0  0  0  0
    8.9913   16.7980   16.7548 B   0  0  0  0  0  0  0  0  0  0  0  0
    7.1094   15.0467   17.4661 B   0  0  0  0  0  0  0  0  0  0  0  0
    9.5528   15.1311   19.1929 B   0  0  0  0  0  0  0  0  0  0  0  0
    8.5907   15.0783   16.4170 B   0  0  0  0  0  0  0  0  0  0  0  0
    8.6433   14.2660   17.9967 B   0  0  0  0  0  0  0  0  0  0  0  0
    9.9225   15.4729   17.5218 B   0  0  0  0  0  0  0  0  0  0  0  0
    4.6201   19.4482   18.2550 C   0  0  0  0  0  0  0  0  0  0  0  0
    5.7803   20.3724   18.4954 C   0  0  0  0  0  0  0  0  0  0  0  0
    3.7355   16.7031   18.1755 C   0  0  0  0  0  0  0  0  0  0  0  0
    3.8574   15.3273   18.2232 C   0  0  0  0  0  0  0  0  0  0  0  0
    2.8413   14.5065   17.7125 C   0  0  0  0  0  0  0  0  0  0  0  0
    1.7101   15.0762   17.1840 C   0  0  0  0  0  0  0  0  0  0  0  0
    1.5622   16.4161   17.1462 C   0  0  0  0  0  0  0  0  0  0  0  0
    2.5665   17.2432   17.6092 C   0  0  0  0  0  0  0  0  0  0  0  0
    4.7310   17.7961   20.6196 C   0  0  0  0  0  0  0  0  0  0  0  0
    5.6294   18.4460   21.4700 C   0  0  0  0  0  0  0  0  0  0  0  0
    5.3394   18.5916   22.8192 C   0  0  0  0  0  0  0  0  0  0  0  0
    4.1726   18.0345   23.3498 C   0  0  0  0  0  0  0  0  0  0  0  0
    3.3162   17.3741   22.5152 C   0  0  0  0  0  0  0  0  0  0  0  0
    3.5895   17.2791   21.1700 C   0  0  0  0  0  0  0  0  0  0  0  0
    7.8654   20.3112   16.4110 C   0  0  0  0  0  0  0  0  0  0  0  0
    6.9573   20.9548   15.5546 C   0  0  0  0  0  0  0  0  0  0  0  0
    7.3905   21.5034   14.3584 C   0  0  0  0  0  0  0  0  0  0  0  0
    8.7189   21.4169   13.9888 C   0  0  0  0  0  0  0  0  0  0  0  0
    9.6092   20.7733   14.8114 C   0  0  0  0  0  0  0  0  0  0  0  0
    9.2029   20.2374   16.0196 C   0  0  0  0  0  0  0  0  0  0  0  0
    8.4732   20.6446   19.1293 C   0  0  0  0  0  0  0  0  0  0  0  0
    8.5897   22.0098   18.8570 C   0  0  0  0  0  0  0  0  0  0  0  0
    9.2863   22.8285   19.7294 C   0  0  0  0  0  0  0  0  0  0  0  0
    9.8674   22.3242   20.8441 C   0  0  0  0  0  0  0  0  0  0  0  0
    9.7705   21.0033   21.1084 C   0  0  0  0  0  0  0  0  0  0  0  0
    9.0650   20.1467   20.2539 C   0  0  0  0  0  0  0  0  0  0  0  0
    5.2249   17.9649   14.9167 C   0  0  0  0  0  0  0  0  0  0  0  0
    4.8141   18.5937   13.5894 C   0  0  0  0  0  0  0  0  0  0  0  0
    5.1925   15.1016   14.4995 C   0  0  0  0  0  0  0  0  0  0  0  0
    5.6919   13.8144   14.4438 C   0  0  0  0  0  0  0  0  0  0  0  0
    4.8657   12.7594   14.1915 C   0  0  0  0  0  0  0  0  0  0  0  0
    3.5097   12.9599   14.0126 C   0  0  0  0  0  0  0  0  0  0  0  0
    3.0090   14.2069   14.0504 C   0  0  0  0  0  0  0  0  0  0  0  0
    3.8428   15.2661   14.3027 C   0  0  0  0  0  0  0  0  0  0  0  0
    7.2843   16.7600   13.2973 C   0  0  0  0  0  0  0  0  0  0  0  0
    6.9501   16.1629   12.0812 C   0  0  0  0  0  0  0  0  0  0  0  0
    7.7063   16.4646   10.9546 C   0  0  0  0  0  0  0  0  0  0  0  0
    8.7554   17.3698   11.0539 C   0  0  0  0  0  0  0  0  0  0  0  0
    9.0770   17.9733   12.2342 C   0  0  0  0  0  0  0  0  0  0  0  0
    8.3270   17.6631   13.3629 C   0  0  0  0  0  0  0  0  0  0  0  0
    1.9384   18.8891   13.8318 C   0  0  0  0  0  0  0  0  0  0  0  0
    1.6534   17.8319   12.9774 C   0  0  0  0  0  0  0  0  0  0  0  0
    0.4539   17.1293   13.0966 C   0  0  0  0  0  0  0  0  0  0  0  0
   -0.4524   17.4690   14.0603 C   0  0  0  0  0  0  0  0  0  0  0  0
   -0.1744   18.5072   14.9068 C   0  0  0  0  0  0  0  0  0  0  0  0
    1.0019   19.2288   14.8114 C   0  0  0  0  0  0  0  0  0  0  0  0
    3.5947   20.7755   12.2680 C   0  0  0  0  0  0  0  0  0  0  0  0
    3.3569   20.2606   11.0162 C   0  0  0  0  0  0  0  0  0  0  0  0
    3.6360   21.0033    9.8657 C   0  0  0  0  0  0  0  0  0  0  0  0
    4.1557   22.2567    9.9809 C   0  0  0  0  0  0  0  0  0  0  0  0
    4.3762   22.8074   11.2268 C   0  0  0  0  0  0  0  0  0  0  0  0
    4.0859   22.0816   12.3574 C   0  0  0  0  0  0  0  0  0  0  0  0
    4.3937   19.4377   17.3111 H   0  0  0  0  0  0  0  0  0  0  0  0
    3.8448   19.7542   18.7517 H   0  0  0  0  0  0  0  0  0  0  0  0
    5.8007   20.6193   19.4333 H   0  0  0  0  0  0  0  0  0  0  0  0
    5.6516   21.1827   17.9768 H   0  0  0  0  0  0  0  0  0  0  0  0
    4.6191   14.9454   18.5928 H   0  0  0  0  0  0  0  0  0  0  0  0
    2.9335   13.5802   17.7344 H   0  0  0  0  0  0  0  0  0  0  0  0
    1.0359   14.5297   16.8462 H   0  0  0  0  0  0  0  0  0  0  0  0
    0.7805   16.7854   16.8064 H   0  0  0  0  0  0  0  0  0  0  0  0
    2.4699   18.1674   17.5456 H   0  0  0  0  0  0  0  0  0  0  0  0
    6.4260   18.7836   21.1302 H   0  0  0  0  0  0  0  0  0  0  0  0
    5.9227   19.0600   23.3736 H   0  0  0  0  0  0  0  0  0  0  0  0
    3.9813   18.1105   24.2558 H   0  0  0  0  0  0  0  0  0  0  0  0
    2.5435   16.9879   22.8570 H   0  0  0  0  0  0  0  0  0  0  0  0
    2.9782   16.8508   20.6156 H   0  0  0  0  0  0  0  0  0  0  0  0
    6.0605   21.0139   15.7930 H   0  0  0  0  0  0  0  0  0  0  0  0
    6.7821   21.9318   13.8000 H   0  0  0  0  0  0  0  0  0  0  0  0
    9.0075   21.7946   13.1880 H   0  0  0  0  0  0  0  0  0  0  0  0
   10.4972   20.6974   14.5889 H   0  0  0  0  0  0  0  0  0  0  0  0
    9.8243   19.8259   16.5739 H   0  0  0  0  0  0  0  0  0  0  0  0
    7.9739   22.3685   18.0901 H   0  0  0  0  0  0  0  0  0  0  0  0
    9.3567   23.7380   19.5485 H   0  0  0  0  0  0  0  0  0  0  0  0
   10.3310   22.8834   21.4243 H   0  0  0  0  0  0  0  0  0  0  0  0
   10.1763   20.6573   21.8714 H   0  0  0  0  0  0  0  0  0  0  0  0
    9.0010   19.2393   20.4507 H   0  0  0  0  0  0  0  0  0  0  0  0
    4.4206   17.7096   15.3936 H   0  0  0  0  0  0  0  0  0  0  0  0
    5.6757   18.6401   15.4473 H   0  0  0  0  0  0  0  0  0  0  0  0
    4.5116   17.8974   12.9873 H   0  0  0  0  0  0  0  0  0  0  0  0
    5.5849   19.0241   13.1880 H   0  0  0  0  0  0  0  0  0  0  0  0
    6.6001   13.6667   14.5809 H   0  0  0  0  0  0  0  0  0  0  0  0
    5.2166   11.8985   14.1398 H   0  0  0  0  0  0  0  0  0  0  0  0
    2.9466   12.2340   13.8676 H   0  0  0  0  0  0  0  0  0  0  0  0
    2.1016   14.3504   13.9033 H   0  0  0  0  0  0  0  0  0  0  0  0
    3.4841   16.1228   14.3405 H   0  0  0  0  0  0  0  0  0  0  0  0
    6.2335   15.5721   12.0256 H   0  0  0  0  0  0  0  0  0  0  0  0
    7.5110   16.0637   10.1379 H   0  0  0  0  0  0  0  0  0  0  0  0
    9.2525   17.5682   10.2949 H   0  0  0  0  0  0  0  0  0  0  0  0
    9.7814   18.5789   12.2839 H   0  0  0  0  0  0  0  0  0  0  0  0
    8.5291   18.0704   14.1736 H   0  0  0  0  0  0  0  0  0  0  0  0
    2.2670   17.5914   12.3217 H   0  0  0  0  0  0  0  0  0  0  0  0
    0.2714   16.4267   12.5164 H   0  0  0  0  0  0  0  0  0  0  0  0
   -1.2512   16.9985   14.1398 H   0  0  0  0  0  0  0  0  0  0  0  0
   -0.7932   18.7329   15.5645 H   0  0  0  0  0  0  0  0  0  0  0  0
    1.1690   19.9357   15.3936 H   0  0  0  0  0  0  0  0  0  0  0  0
    3.0032   19.4039   10.9347 H   0  0  0  0  0  0  0  0  0  0  0  0
    3.4678   20.6425    9.0252 H   0  0  0  0  0  0  0  0  0  0  0  0
    4.3632   22.7441    9.2159 H   0  0  0  0  0  0  0  0  0  0  0  0
    4.7191   23.6683   11.3003 H   0  0  0  0  0  0  0  0  0  0  0  0
    4.2202   22.4614   13.1940 H   0  0  0  0  0  0  0  0  0  0  0  0
    6.9364   14.3863   19.8844 H   0  0  0  0  0  0  0  0  0  0  0  0
   10.3510   17.5703   18.7458 H   0  0  0  0  0  0  0  0  0  0  0  0
    9.5878   17.4310   16.1070 H   0  0  0  0  0  0  0  0  0  0  0  0
    6.2656   14.2997   17.4005 H   0  0  0  0  0  0  0  0  0  0  0  0
   10.2113   14.7407   19.9301 H   0  0  0  0  0  0  0  0  0  0  0  0
    8.8171   14.4327   15.4830 H   0  0  0  0  0  0  0  0  0  0  0  0
    8.7100   13.1856   18.0543 H   0  0  0  0  0  0  0  0  0  0  0  0
   11.0633   15.2007   17.1522 H   0  0  0  0  0  0  0  0  0  0  0  0
  1  2  1  0  0  0  0
  2  9  1  0  0  0  0
  3  1  1  0  0  0  0
  4  1  1  0  0  0  0
  5  8  1  0  0  0  0
  6  7  2  0  0  0  0
  8  1  1  0  0  0  0
  9  1  1  0  0  0  0
 10  1  1  0  0  0  0
 11  1  1  0  0  0  0
 12  1  1  0  0  0  0
 13  2  1  0  0  0  0
 14  8  1  0  0  0  0
 15  9  1  0  0  0  0
 16 10  1  0  0  0  0
 17  3  1  0  0  0  0
 18  4  1  0  0  0  0
 19  3  1  0  0  0  0
 20 19  4  0  0  0  0
 21 20  4  0  0  0  0
 22 21  4  0  0  0  0
 23 22  4  0  0  0  0
 24 19  4  0  0  0  0
 25  3  1  0  0  0  0
 26 25  4  0  0  0  0
 27 26  4  0  0  0  0
 28 27  4  0  0  0  0
 29 28  4  0  0  0  0
 30 25  4  0  0  0  0
 31  4  1  0  0  0  0
 32 31  4  0  0  0  0
 33 32  4  0  0  0  0
 34 33  4  0  0  0  0
 35 34  4  0  0  0  0
 36 31  4  0  0  0  0
 37  4  1  0  0  0  0
 38 37  4  0  0  0  0
 39 38  4  0  0  0  0
 40 39  4  0  0  0  0
 41 40  4  0  0  0  0
 42 37  4  0  0  0  0
 43  5  1  0  0  0  0
 44  6  1  0  0  0  0
 45  5  1  0  0  0  0
 46 45  4  0  0  0  0
 47 46  4  0  0  0  0
 48 47  4  0  0  0  0
 49 48  4  0  0  0  0
 50 45  4  0  0  0  0
 51  5  1  0  0  0  0
 52 51  4  0  0  0  0
 53 52  4  0  0  0  0
 54 53  4  0  0  0  0
 55 54  4  0  0  0  0
 56 51  4  0  0  0  0
 57  6  1  0  0  0  0
 58 57  4  0  0  0  0
 59 58  4  0  0  0  0
 60 59  4  0  0  0  0
 61 60  4  0  0  0  0
 62 57  4  0  0  0  0
 63  6  1  0  0  0  0
 64 63  4  0  0  0  0
 65 64  4  0  0  0  0
 66 65  4  0  0  0  0
 67 66  4  0  0  0  0
 68 63  4  0  0  0  0
 69 17  1  0  0  0  0
 70 17  1  0  0  0  0
 71 18  1  0  0  0  0
 72 18  1  0  0  0  0
 73 20  1  0  0  0  0
 74 21  1  0  0  0  0
 75 22  1  0  0  0  0
 76 23  1  0  0  0  0
 77 24  1  0  0  0  0
 78 26  1  0  0  0  0
 79 27  1  0  0  0  0
 80 28  1  0  0  0  0
 81 29  1  0  0  0  0
 82 30  1  0  0  0  0
 83 32  1  0  0  0  0
 84 33  1  0  0  0  0
 85 34  1  0  0  0  0
 86 35  1  0  0  0  0
 87 36  1  0  0  0  0
 88 38  1  0  0  0  0
 89 39  1  0  0  0  0
 90 40  1  0  0  0  0
 91 41  1  0  0  0  0
 92 42  1  0  0  0  0
 93 43  1  0  0  0  0
 94 43  1  0  0  0  0
 95 44  1  0  0  0  0
 96 44  1  0  0  0  0
 97 46  1  0  0  0  0
 98 47  1  0  0  0  0
 99 48  1  0  0  0  0
100 49  1  0  0  0  0
101 50  1  0  0  0  0
102 52  1  0  0  0  0
103 53  1  0  0  0  0
104 54  1  0  0  0  0
105 55  1  0  0  0  0
106 56  1  0  0  0  0
107 58  1  0  0  0  0
108 59  1  0  0  0  0
109 60  1  0  0  0  0
110 61  1  0  0  0  0
111 62  1  0  0  0  0
112 64  1  0  0  0  0
113 65  1  0  0  0  0
114 66  1  0  0  0  0
115 67  1  0  0  0  0
116 68  1  0  0  0  0
117  9  1  0  0  0  0
118 10  1  0  0  0  0
119 11  1  0  0  0  0
120 12  1  0  0  0  0
121 13  1  0  0  0  0
122 14  1  0  0  0  0
123 15  1  0  0  0  0
124 16  1  0  0  0  0
  2 10  1  0  0  0  0
  8 11  1  0  0  0  0
  8 12  1  0  0  0  0
  9 12  1  0  0  0  0
  9 13  1  0  0  0  0
 10 11  1  0  0  0  0
 10 13  1  0  0  0  0
 11 14  1  0  0  0  0
 11 16  1  0  0  0  0
 12 14  1  0  0  0  0
 12 15  1  0  0  0  0
 13 15  1  0  0  0  0
 13 16  1  0  0  0  0
 14 15  1  0  0  0  0
 14 16  1  0  0  0  0
 15 16  1  0  0  0  0
 17 18  1  0  0  0  0
 23 24  4  0  0  0  0
 29 30  4  0  0  0  0
 35 36  4  0  0  0  0
 41 42  4  0  0  0  0
 43 44  1  0  0  0  0
 49 50  4  0  0  0  0
 55 56  4  0  0  0  0
 61 62  4  0  0  0  0
 67 68  4  0  0  0  0
M  END
$$$$
XAZCAC

From CSD data. Using bond type 'Any'. No disordered atoms. Largest molecule.
 80 85  0  0  0  0  0  0  0  0999 V2000
    8.8653    3.4160    4.7712 Ir  0  0  0  0  0  0  0  0  0  0  0  0
    7.2696    4.2737    3.7775 B   0  0  0  0  0  0  0  0  0  0  0  0
    6.1107    3.7060    3.6815 F   0  0  0  0  0  0  0  0  0  0  0  0
    7.3183    5.4739    3.2153 F   0  0  0  0  0  0  0  0  0  0  0  0
   10.5459    2.8997    5.7448 C   0  0  0  0  0  0  0  0  0  0  0  0
   11.4825    2.6630    6.4069 O   0  0  0  0  0  0  0  0  0  0  0  0
   10.0593    4.7804    3.7431 B   0  0  0  0  0  0  0  0  0  0  0  0
    8.6272    5.0763    6.0150 B   0  0  0  0  0  0  0  0  0  0  0  0
   11.2411    5.2317    4.1997 F   0  0  0  0  0  0  0  0  0  0  0  0
    9.7842    5.3463    2.5811 F   0  0  0  0  0  0  0  0  0  0  0  0
    7.7821    6.0565    5.8600 F   0  0  0  0  0  0  0  0  0  0  0  0
    9.3492    5.3075    7.0935 F   0  0  0  0  0  0  0  0  0  0  0  0
    9.4461    1.8360    3.0029 P   0  0  0  0  0  0  0  0  0  0  0  0
    7.2759    2.2436    6.2220 P   0  0  0  0  0  0  0  0  0  0  0  0
   10.9601    2.3375    2.0629 C   0  0  0  0  0  0  0  0  0  0  0  0
   12.1627    2.4429    2.7587 C   0  0  0  0  0  0  0  0  0  0  0  0
   12.1955    2.2321    3.6842 H   0  0  0  0  0  0  0  0  0  0  0  0
   13.3138    2.8572    2.1012 C   0  0  0  0  0  0  0  0  0  0  0  0
   14.1321    2.9256    2.5796 H   0  0  0  0  0  0  0  0  0  0  0  0
   13.2760    3.1697    0.7616 C   0  0  0  0  0  0  0  0  0  0  0  0
   14.0596    3.4822    0.3215 H   0  0  0  0  0  0  0  0  0  0  0  0
   12.1091    3.0310    0.0605 C   0  0  0  0  0  0  0  0  0  0  0  0
   12.0902    3.2178   -0.8707 H   0  0  0  0  0  0  0  0  0  0  0  0
   10.9491    2.6168    0.7073 C   0  0  0  0  0  0  0  0  0  0  0  0
   10.1427    2.5224    0.2143 H   0  0  0  0  0  0  0  0  0  0  0  0
    9.9064    0.1221    3.4538 C   0  0  0  0  0  0  0  0  0  0  0  0
    9.6919   -0.3440    4.7317 C   0  0  0  0  0  0  0  0  0  0  0  0
    9.3085    0.2330    5.3812 H   0  0  0  0  0  0  0  0  0  0  0  0
   10.0275   -1.6496    5.0888 C   0  0  0  0  0  0  0  0  0  0  0  0
    9.8657   -1.9621    5.9714 H   0  0  0  0  0  0  0  0  0  0  0  0
   10.5956   -2.4836    4.1507 C   0  0  0  0  0  0  0  0  0  0  0  0
   10.8260   -3.3750    4.3872 H   0  0  0  0  0  0  0  0  0  0  0  0
   10.8320   -2.0287    2.8655 C   0  0  0  0  0  0  0  0  0  0  0  0
   11.2252   -2.6057    2.2206 H   0  0  0  0  0  0  0  0  0  0  0  0
   10.4933   -0.7323    2.5230 C   0  0  0  0  0  0  0  0  0  0  0  0
   10.6631   -0.4198    1.6419 H   0  0  0  0  0  0  0  0  0  0  0  0
    8.2131    1.6570    1.6588 C   0  0  0  0  0  0  0  0  0  0  0  0
    7.7136    0.4272    1.2358 C   0  0  0  0  0  0  0  0  0  0  0  0
    8.0016   -0.3736    1.6591 H   0  0  0  0  0  0  0  0  0  0  0  0
    6.7900    0.3680    0.1933 C   0  0  0  0  0  0  0  0  0  0  0  0
    6.4483   -0.4734   -0.0880 H   0  0  0  0  0  0  0  0  0  0  0  0
    6.3709    1.5238   -0.4336 C   0  0  0  0  0  0  0  0  0  0  0  0
    5.7442    1.4739   -1.1463 H   0  0  0  0  0  0  0  0  0  0  0  0
    6.8565    2.7518   -0.0314 C   0  0  0  0  0  0  0  0  0  0  0  0
    6.5695    3.5470   -0.4650 H   0  0  0  0  0  0  0  0  0  0  0  0
    7.7682    2.8109    1.0158 C   0  0  0  0  0  0  0  0  0  0  0  0
    8.0959    3.6579    1.2994 H   0  0  0  0  0  0  0  0  0  0  0  0
    8.0224    1.1244    7.4797 C   0  0  0  0  0  0  0  0  0  0  0  0
    7.6133   -0.1979    7.6412 C   0  0  0  0  0  0  0  0  0  0  0  0
    6.9012   -0.5381    7.1130 H   0  0  0  0  0  0  0  0  0  0  0  0
    8.2359   -1.0245    8.5636 C   0  0  0  0  0  0  0  0  0  0  0  0
    7.9450   -1.9233    8.6665 H   0  0  0  0  0  0  0  0  0  0  0  0
    9.2797   -0.5437    9.3356 C   0  0  0  0  0  0  0  0  0  0  0  0
    9.6998   -1.1096    9.9728 H   0  0  0  0  0  0  0  0  0  0  0  0
    9.7097    0.7527    9.1794 C   0  0  0  0  0  0  0  0  0  0  0  0
   10.4337    1.0781    9.7007 H   0  0  0  0  0  0  0  0  0  0  0  0
    9.0890    1.5830    8.2658 C   0  0  0  0  0  0  0  0  0  0  0  0
    9.3899    2.4799    8.1690 H   0  0  0  0  0  0  0  0  0  0  0  0
    6.2706    3.4009    7.2432 C   0  0  0  0  0  0  0  0  0  0  0  0
    5.1364    3.9963    6.6874 C   0  0  0  0  0  0  0  0  0  0  0  0
    4.9060    3.8133    5.7842 H   0  0  0  0  0  0  0  0  0  0  0  0
    4.3419    4.8526    7.4349 C   0  0  0  0  0  0  0  0  0  0  0  0
    3.5723    5.2502    7.0438 H   0  0  0  0  0  0  0  0  0  0  0  0
    4.6697    5.1281    8.7546 C   0  0  0  0  0  0  0  0  0  0  0  0
    4.1195    5.7014    9.2751 H   0  0  0  0  0  0  0  0  0  0  0  0
    5.7919    4.5678    9.3011 C   0  0  0  0  0  0  0  0  0  0  0  0
    6.0253    4.7712   10.1990 H   0  0  0  0  0  0  0  0  0  0  0  0
    6.5953    3.7041    8.5651 C   0  0  0  0  0  0  0  0  0  0  0  0
    7.3670    3.3213    8.9632 H   0  0  0  0  0  0  0  0  0  0  0  0
    5.9657    1.1762    5.5040 C   0  0  0  0  0  0  0  0  0  0  0  0
    4.7660    0.9173    6.1662 C   0  0  0  0  0  0  0  0  0  0  0  0
    4.5763    1.3611    6.9844 H   0  0  0  0  0  0  0  0  0  0  0  0
    3.8464    0.0222    5.6457 C   0  0  0  0  0  0  0  0  0  0  0  0
    3.0260   -0.1313    6.0992 H   0  0  0  0  0  0  0  0  0  0  0  0
    4.1185   -0.6454    4.4726 C   0  0  0  0  0  0  0  0  0  0  0  0
    3.4859   -1.2557    4.1121 H   0  0  0  0  0  0  0  0  0  0  0  0
    5.3052   -0.4216    3.8304 C   0  0  0  0  0  0  0  0  0  0  0  0
    5.5059   -0.8969    3.0328 H   0  0  0  0  0  0  0  0  0  0  0  0
    6.2219    0.4975    4.3367 C   0  0  0  0  0  0  0  0  0  0  0  0
    7.0333    0.6584    3.8690 H   0  0  0  0  0  0  0  0  0  0  0  0
  1  2  1  0  0  0  0
  2  3  1  0  0  0  0
  4  2  1  0  0  0  0
  5  1  1  0  0  0  0
  6  5  3  0  0  0  0
  7  1  1  0  0  0  0
  8  1  1  0  0  0  0
  9  7  1  0  0  0  0
 10  7  1  0  0  0  0
 11  8  1  0  0  0  0
 12  8  1  0  0  0  0
 13  1  1  0  0  0  0
 14  1  1  0  0  0  0
 15 13  1  0  0  0  0
 16 15  4  0  0  0  0
 17 16  1  0  0  0  0
 18 16  4  0  0  0  0
 19 18  1  0  0  0  0
 20 18  4  0  0  0  0
 21 20  1  0  0  0  0
 22 20  4  0  0  0  0
 23 22  1  0  0  0  0
 24 15  4  0  0  0  0
 25 24  1  0  0  0  0
 26 13  1  0  0  0  0
 27 26  4  0  0  0  0
 28 27  1  0  0  0  0
 29 27  4  0  0  0  0
 30 29  1  0  0  0  0
 31 29  4  0  0  0  0
 32 31  1  0  0  0  0
 33 31  4  0  0  0  0
 34 33  1  0  0  0  0
 35 26  4  0  0  0  0
 36 35  1  0  0  0  0
 37 13  1  0  0  0  0
 38 37  4  0  0  0  0
 39 38  1  0  0  0  0
 40 38  4  0  0  0  0
 41 40  1  0  0  0  0
 42 40  4  0  0  0  0
 43 42  1  0  0  0  0
 44 42  4  0  0  0  0
 45 44  1  0  0  0  0
 46 37  4  0  0  0  0
 47 46  1  0  0  0  0
 48 14  1  0  0  0  0
 49 48  4  0  0  0  0
 50 49  1  0  0  0  0
 51 49  4  0  0  0  0
 52 51  1  0  0  0  0
 53 51  4  0  0  0  0
 54 53  1  0  0  0  0
 55 53  4  0  0  0  0
 56 55  1  0  0  0  0
 57 48  4  0  0  0  0
 58 57  1  0  0  0  0
 59 14  1  0  0  0  0
 60 59  4  0  0  0  0
 61 60  1  0  0  0  0
 62 60  4  0  0  0  0
 63 62  1  0  0  0  0
 64 62  4  0  0  0  0
 65 64  1  0  0  0  0
 66 64  4  0  0  0  0
 67 66  1  0  0  0  0
 68 59  4  0  0  0  0
 69 68  1  0  0  0  0
 70 14  1  0  0  0  0
 71 70  4  0  0  0  0
 72 71  1  0  0  0  0
 73 71  4  0  0  0  0
 74 73  1  0  0  0  0
 75 73  4  0  0  0  0
 76 75  1  0  0  0  0
 77 75  4  0  0  0  0
 78 77  1  0  0  0  0
 79 70  4  0  0  0  0
 80 79  1  0  0  0  0
 22 24  4  0  0  0  0
 33 35  4  0  0  0  0
 44 46  4  0  0  0  0
 55 57  4  0  0  0  0
 66 68  4  0  0  0  0
 77 79  4  0  0  0  0
M  END
$$$$
XELCAT

From CSD data. Using bond type 'Any'. No disordered atoms. Largest molecule.
 86120  0  0  0  0  0  0  0  0999 V2000
    6.5040    6.4961    4.9768 Pt  0  0  0  0  0  0  0  0  0  0  0  0
    7.3790    5.2517    3.1565 P   0  0  0  0  0  0  0  0  0  0  0  0
    9.1261    4.7526    3.2885 C   0  0  0  0  0  0  0  0  0  0  0  0
    9.2561    4.2343    4.1114 H   0  0  0  0  0  0  0  0  0  0  0  0
    9.6937    5.5512    3.3127 H   0  0  0  0  0  0  0  0  0  0  0  0
    9.3689    4.2029    2.5141 H   0  0  0  0  0  0  0  0  0  0  0  0
    7.3129    6.2881    1.6685 C   0  0  0  0  0  0  0  0  0  0  0  0
    7.8501    5.8765    0.9595 H   0  0  0  0  0  0  0  0  0  0  0  0
    7.6697    7.1776    1.8735 H   0  0  0  0  0  0  0  0  0  0  0  0
    6.3834    6.3700    1.3695 H   0  0  0  0  0  0  0  0  0  0  0  0
    6.6452    3.6769    2.6493 C   0  0  0  0  0  0  0  0  0  0  0  0
    6.9490    2.5328    3.3711 C   0  0  0  0  0  0  0  0  0  0  0  0
    7.5165    2.6001    4.1299 H   0  0  0  0  0  0  0  0  0  0  0  0
    6.4435    1.2866    3.0123 C   0  0  0  0  0  0  0  0  0  0  0  0
    6.6614    0.5115    3.5149 H   0  0  0  0  0  0  0  0  0  0  0  0
    5.6013    1.2002    1.8863 C   0  0  0  0  0  0  0  0  0  0  0  0
    5.2531    0.3556    1.6243 H   0  0  0  0  0  0  0  0  0  0  0  0
    5.2805    2.3140    1.1702 C   0  0  0  0  0  0  0  0  0  0  0  0
    4.7113    2.2411    0.4143 H   0  0  0  0  0  0  0  0  0  0  0  0
    5.7881    3.5770    1.5460 C   0  0  0  0  0  0  0  0  0  0  0  0
    5.5511    4.3544    1.0535 H   0  0  0  0  0  0  0  0  0  0  0  0
    4.5335    5.2697    5.2203 P   0  0  0  0  0  0  0  0  0  0  0  0
    3.2291    5.9707    6.2809 C   0  0  0  0  0  0  0  0  0  0  0  0
    3.0082    6.8737    5.9720 H   0  0  0  0  0  0  0  0  0  0  0  0
    3.5474    6.0100    7.2063 H   0  0  0  0  0  0  0  0  0  0  0  0
    2.4309    5.4043    6.2339 H   0  0  0  0  0  0  0  0  0  0  0  0
    4.6074    3.5535    5.7997 C   0  0  0  0  0  0  0  0  0  0  0  0
    3.7039    3.1744    5.8126 H   0  0  0  0  0  0  0  0  0  0  0  0
    4.9841    3.5299    6.7037 H   0  0  0  0  0  0  0  0  0  0  0  0
    5.1734    3.0285    5.1961 H   0  0  0  0  0  0  0  0  0  0  0  0
    3.7308    5.2674    3.6245 C   0  0  0  0  0  0  0  0  0  0  0  0
    3.8370    6.4014    2.8102 C   0  0  0  0  0  0  0  0  0  0  0  0
    4.3410    7.1440    3.1234 H   0  0  0  0  0  0  0  0  0  0  0  0
    3.2369    6.4844    1.5645 C   0  0  0  0  0  0  0  0  0  0  0  0
    3.3298    7.2662    1.0335 H   0  0  0  0  0  0  0  0  0  0  0  0
    2.5072    5.4188    1.1175 C   0  0  0  0  0  0  0  0  0  0  0  0
    2.1219    5.4491    0.2491 H   0  0  0  0  0  0  0  0  0  0  0  0
    2.3206    4.3084    1.8934 C   0  0  0  0  0  0  0  0  0  0  0  0
    1.7550    3.6051    1.5973 H   0  0  0  0  0  0  0  0  0  0  0  0
    2.9645    4.2220    3.1091 C   0  0  0  0  0  0  0  0  0  0  0  0
    2.8819    3.4222    3.6145 H   0  0  0  0  0  0  0  0  0  0  0  0
    6.9331    9.6868    6.2169 B   0  0  0  0  0  0  0  0  0  0  0  0
    6.5379   10.7345    6.2055 H   0  0  0  0  0  0  0  0  0  0  0  0
    5.8383    8.2567    6.1870 B   0  0  0  0  0  0  0  0  0  0  0  0
    4.7264    8.3801    6.1414 H   0  0  0  0  0  0  0  0  0  0  0  0
    6.8997    8.6706    4.7449 B   0  0  0  0  0  0  0  0  0  0  0  0
    6.4455    9.0475    3.7939 H   0  0  0  0  0  0  0  0  0  0  0  0
    8.4676    9.3144    5.3841 B   0  0  0  0  0  0  0  0  0  0  0  0
    9.0435   10.1153    4.8559 H   0  0  0  0  0  0  0  0  0  0  0  0
    8.3524    9.2000    7.1422 B   0  0  0  0  0  0  0  0  0  0  0  0
    8.9137    9.9224    7.7885 H   0  0  0  0  0  0  0  0  0  0  0  0
    6.7137    8.6605    7.6419 B   0  0  0  0  0  0  0  0  0  0  0  0
    6.1889    9.0542    8.5501 H   0  0  0  0  0  0  0  0  0  0  0  0
    8.4254    7.7194    4.7121 B   0  0  0  0  0  0  0  0  0  0  0  0
    8.9380    6.9297    5.9222 H   0  0  0  0  0  0  0  0  0  0  0  0
    9.0024    7.6173    3.7697 H   0  0  0  0  0  0  0  0  0  0  0  0
    9.3349    8.0346    6.2767 B   0  0  0  0  0  0  0  0  0  0  0  0
   10.4401    8.0896    6.4190 H   0  0  0  0  0  0  0  0  0  0  0  0
    8.1545    7.5769    7.7529 B   0  0  0  0  0  0  0  0  0  0  0  0
    7.7601    6.4867    6.9828 H   0  0  0  0  0  0  0  0  0  0  0  0
    8.6810    7.2831    8.6897 H   0  0  0  0  0  0  0  0  0  0  0  0
    6.5113    6.9623    7.2006 B   0  0  0  0  0  0  0  0  0  0  0  0
    5.8194    6.0111    7.9793 O   0  0  0  0  0  0  0  0  0  0  0  0
    4.5800    4.4475   11.6379 B   0  0  0  0  0  0  0  0  0  0  0  0
    3.5988    4.0022   11.9454 H   0  0  0  0  0  0  0  0  0  0  0  0
    4.5488    5.8092   10.4976 B   0  0  0  0  0  0  0  0  0  0  0  0
    3.5838    6.2848   10.1859 H   0  0  0  0  0  0  0  0  0  0  0  0
    5.2050    6.0481   12.1504 B   0  0  0  0  0  0  0  0  0  0  0  0
    4.6712    6.7592   12.8323 H   0  0  0  0  0  0  0  0  0  0  0  0
    5.8799    4.5776   12.8750 B   0  0  0  0  0  0  0  0  0  0  0  0
    5.6871    4.3039   13.9442 H   0  0  0  0  0  0  0  0  0  0  0  0
    5.0672    4.1547    9.9567 B   0  0  0  0  0  0  0  0  0  0  0  0
    6.2700    4.5226    9.0484 H   0  0  0  0  0  0  0  0  0  0  0  0
    4.5116    3.4144    9.3345 H   0  0  0  0  0  0  0  0  0  0  0  0
    5.7751    5.7015    9.3061 B   0  0  0  0  0  0  0  0  0  0  0  0
    6.9610    6.0503    9.9097 H   0  0  0  0  0  0  0  0  0  0  0  0
    6.0753    6.7144   10.7681 B   0  0  0  0  0  0  0  0  0  0  0  0
    6.2232    7.7990   10.7183 H   0  0  0  0  0  0  0  0  0  0  0  0
    6.9458    5.9471   12.3426 B   0  0  0  0  0  0  0  0  0  0  0  0
    7.8787    5.3919   11.6991 H   0  0  0  0  0  0  0  0  0  0  0  0
    7.3707    6.6706   13.0388 H   0  0  0  0  0  0  0  0  0  0  0  0
    7.4427    4.2287   12.2145 B   0  0  0  0  0  0  0  0  0  0  0  0
    7.2275    3.7812   11.2991 H   0  0  0  0  0  0  0  0  0  0  0  0
    8.2334    3.7924   12.8622 H   0  0  0  0  0  0  0  0  0  0  0  0
    6.0018    3.3830   11.5511 B   0  0  0  0  0  0  0  0  0  0  0  0
    5.8411    2.2770   11.5938 H   0  0  0  0  0  0  0  0  0  0  0  0
  1  2  1  0  0  0  0
  2  3  1  0  0  0  0
  3  4  1  0  0  0  0
  5  3  1  0  0  0  0
  6  3  1  0  0  0  0
  7  2  1  0  0  0  0
  8  7  1  0  0  0  0
  9  7  1  0  0  0  0
 10  7  1  0  0  0  0
 11  2  1  0  0  0  0
 12 11  4  0  0  0  0
 13 12  1  0  0  0  0
 14 12  4  0  0  0  0
 15 14  1  0  0  0  0
 16 14  4  0  0  0  0
 17 16  1  0  0  0  0
 18 16  4  0  0  0  0
 19 18  1  0  0  0  0
 20 11  4  0  0  0  0
 21 20  1  0  0  0  0
 22  1  1  0  0  0  0
 23 22  1  0  0  0  0
 24 23  1  0  0  0  0
 25 23  1  0  0  0  0
 26 23  1  0  0  0  0
 27 22  1  0  0  0  0
 28 27  1  0  0  0  0
 29 27  1  0  0  0  0
 30 27  1  0  0  0  0
 31 22  1  0  0  0  0
 32 31  4  0  0  0  0
 33 32  1  0  0  0  0
 34 32  4  0  0  0  0
 35 34  1  0  0  0  0
 36 34  4  0  0  0  0
 37 36  1  0  0  0  0
 38 36  4  0  0  0  0
 39 38  1  0  0  0  0
 40 31  4  0  0  0  0
 41 40  1  0  0  0  0
 42 43  1  0  0  0  0
 44  1  1  0  0  0  0
 45 44  1  0  0  0  0
 46  1  1  0  0  0  0
 47 46  1  0  0  0  0
 48 42  1  0  0  0  0
 49 48  1  0  0  0  0
 50 42  1  0  0  0  0
 51 50  1  0  0  0  0
 52 42  1  0  0  0  0
 53 52  1  0  0  0  0
 54  1  1  0  0  0  0
 55 54  1  0  0  0  0
 56 54  1  0  0  0  0
 57 48  1  0  0  0  0
 58 57  1  0  0  0  0
 59 50  1  0  0  0  0
 60 59  1  0  0  0  0
 61 59  1  0  0  0  0
 62  1  1  0  0  0  0
 63 62  1  0  0  0  0
 64 65  1  0  0  0  0
 66 64  1  0  0  0  0
 67 66  1  0  0  0  0
 68 64  1  0  0  0  0
 69 68  1  0  0  0  0
 70 64  1  0  0  0  0
 71 70  1  0  0  0  0
 72 64  1  0  0  0  0
 73 72  1  0  0  0  0
 74 72  1  0  0  0  0
 75 63  1  0  0  0  0
 76 75  1  0  0  0  0
 77 66  1  0  0  0  0
 78 77  1  0  0  0  0
 79 68  1  0  0  0  0
 80 79  1  0  0  0  0
 81 79  1  0  0  0  0
 82 70  1  0  0  0  0
 83 82  1  0  0  0  0
 84 82  1  0  0  0  0
 85 64  1  0  0  0  0
 86 85  1  0  0  0  0
 18 20  4  0  0  0  0
 38 40  4  0  0  0  0
 42 44  1  0  0  0  0
 42 46  1  0  0  0  0
 44 46  1  0  0  0  0
 44 52  1  0  0  0  0
 44 62  1  0  0  0  0
 46 48  1  0  0  0  0
 46 54  1  0  0  0  0
 48 50  1  0  0  0  0
 48 54  1  0  0  0  0
 50 52  1  0  0  0  0
 50 57  1  0  0  0  0
 52 59  1  0  0  0  0
 52 62  1  0  0  0  0
 54 57  1  0  0  0  0
 55 57  1  0  0  0  0
 57 59  1  0  0  0  0
 59 62  1  0  0  0  0
 60 62  1  0  0  0  0
 66 68  1  0  0  0  0
 66 72  1  0  0  0  0
 66 75  1  0  0  0  0
 68 70  1  0  0  0  0
 68 77  1  0  0  0  0
 70 79  1  0  0  0  0
 70 85  1  0  0  0  0
 72 75  1  0  0  0  0
 72 85  1  0  0  0  0
 73 75  1  0  0  0  0
 75 77  1  0  0  0  0
 76 77  1  0  0  0  0
 77 79  1  0  0  0  0
 79 82  1  0  0  0  0
 80 82  1  0  0  0  0
 82 85  1  0  0  0  0
 83 85  1  0  0  0  0
M  END
$$$$
XELYUM

From CSD data. Using bond type 'Any'. No disordered atoms. Largest molecule.
 92112  0  0  0  0  0  0  0  0999 V2000
    0.0006   13.1134   14.4333 C   0  0  0  0  0  0  0  0  0  0  0  0
    0.1295   14.6879   14.4256 C   0  0  0  0  0  0  0  0  0  0  0  0
    2.1510    9.9065   13.3308 C   0  0  0  0  0  0  0  0  0  0  0  0
    2.2630    9.1003   13.8944 H   0  0  0  0  0  0  0  0  0  0  0  0
    2.9537   10.0081   12.7602 H   0  0  0  0  0  0  0  0  0  0  0  0
    0.9303    9.7926   12.4966 C   0  0  0  0  0  0  0  0  0  0  0  0
    1.1484    9.3883   11.6197 H   0  0  0  0  0  0  0  0  0  0  0  0
    0.2557    9.2259   12.9474 H   0  0  0  0  0  0  0  0  0  0  0  0
   -0.3909   11.5053   11.1276 C   0  0  0  0  0  0  0  0  0  0  0  0
   -0.6748   12.4577   11.2274 H   0  0  0  0  0  0  0  0  0  0  0  0
   -1.6357   10.6741   11.0755 C   0  0  0  0  0  0  0  0  0  0  0  0
   -1.3971    9.7335   10.9446 H   0  0  0  0  0  0  0  0  0  0  0  0
   -2.1982   10.9753   10.3305 H   0  0  0  0  0  0  0  0  0  0  0  0
   -2.1293   10.7729   11.9165 H   0  0  0  0  0  0  0  0  0  0  0  0
    0.4168   11.4156    9.8726 C   0  0  0  0  0  0  0  0  0  0  0  0
    1.1674   12.0457    9.9222 H   0  0  0  0  0  0  0  0  0  0  0  0
   -0.1471   11.6409    9.1040 H   0  0  0  0  0  0  0  0  0  0  0  0
    0.7627   10.5049    9.7697 H   0  0  0  0  0  0  0  0  0  0  0  0
    2.8916   11.4100   15.2848 C   0  0  0  0  0  0  0  0  0  0  0  0
    2.5498   12.2293   15.7478 H   0  0  0  0  0  0  0  0  0  0  0  0
    2.8846   10.2670   16.3043 C   0  0  0  0  0  0  0  0  0  0  0  0
    1.9621   10.0794   16.5780 H   0  0  0  0  0  0  0  0  0  0  0  0
    3.4124   10.5246   17.0875 H   0  0  0  0  0  0  0  0  0  0  0  0
    3.2731    9.4651   15.8962 H   0  0  0  0  0  0  0  0  0  0  0  0
    4.3022   11.7089   14.8021 C   0  0  0  0  0  0  0  0  0  0  0  0
    4.6337   10.9523   14.2751 H   0  0  0  0  0  0  0  0  0  0  0  0
    4.8887   11.8502   15.5750 H   0  0  0  0  0  0  0  0  0  0  0  0
    4.2940   12.5159   14.2468 H   0  0  0  0  0  0  0  0  0  0  0  0
    1.1915   17.8724   12.5835 C   0  0  0  0  0  0  0  0  0  0  0  0
    0.4969   18.3180   13.1289 H   0  0  0  0  0  0  0  0  0  0  0  0
    1.3592   18.4159   11.7723 H   0  0  0  0  0  0  0  0  0  0  0  0
    2.4619   17.6912   13.3771 C   0  0  0  0  0  0  0  0  0  0  0  0
    3.2435   17.6084   12.7745 H   0  0  0  0  0  0  0  0  0  0  0  0
    2.6081   18.4595   13.9845 H   0  0  0  0  0  0  0  0  0  0  0  0
    0.2038   16.2139   10.8921 C   0  0  0  0  0  0  0  0  0  0  0  0
    0.0619   15.2245   10.8454 H   0  0  0  0  0  0  0  0  0  0  0  0
   -1.1299   16.8526   10.6970 C   0  0  0  0  0  0  0  0  0  0  0  0
   -1.7251   16.5947   11.4315 H   0  0  0  0  0  0  0  0  0  0  0  0
   -1.5127   16.5545    9.8459 H   0  0  0  0  0  0  0  0  0  0  0  0
   -1.0262   17.8265   10.6863 H   0  0  0  0  0  0  0  0  0  0  0  0
    1.1799   16.5706    9.7818 C   0  0  0  0  0  0  0  0  0  0  0  0
    1.4010   17.5239    9.8352 H   0  0  0  0  0  0  0  0  0  0  0  0
    0.7709   16.3782    8.9126 H   0  0  0  0  0  0  0  0  0  0  0  0
    1.9981   16.0399    9.8824 H   0  0  0  0  0  0  0  0  0  0  0  0
    3.2364   16.0121   15.1400 C   0  0  0  0  0  0  0  0  0  0  0  0
    2.9093   15.1417   15.5072 H   0  0  0  0  0  0  0  0  0  0  0  0
    3.3098   17.0058   16.3004 C   0  0  0  0  0  0  0  0  0  0  0  0
    3.6789   17.8551   15.9808 H   0  0  0  0  0  0  0  0  0  0  0  0
    3.8885   16.6428   17.0042 H   0  0  0  0  0  0  0  0  0  0  0  0
    2.4114   17.1541   16.6611 H   0  0  0  0  0  0  0  0  0  0  0  0
    4.6221   15.7731   14.5530 C   0  0  0  0  0  0  0  0  0  0  0  0
    4.5741   15.0578   13.8839 H   0  0  0  0  0  0  0  0  0  0  0  0
    5.2384   15.5095   15.2680 H   0  0  0  0  0  0  0  0  0  0  0  0
    4.9444   16.5952   14.1296 H   0  0  0  0  0  0  0  0  0  0  0  0
    4.3810   12.7305   10.5194 C   0  0  0  0  0  0  0  0  0  0  0  0
    5.2361   11.8863    9.7297 C   0  0  0  0  0  0  0  0  0  0  0  0
    6.1710   12.4597    8.9033 C   0  0  0  0  0  0  0  0  0  0  0  0
    6.3048   13.8400    8.8280 C   0  0  0  0  0  0  0  0  0  0  0  0
    5.4801   14.6599    9.5752 C   0  0  0  0  0  0  0  0  0  0  0  0
    4.5256   14.1238   10.4364 C   0  0  0  0  0  0  0  0  0  0  0  0
    2.4034   13.7150   12.2495 Au  0  0  0  0  0  0  0  0  0  0  0  0
   -1.3946   15.4518   14.6302 B   0  0  0  0  0  0  0  0  0  0  0  0
   -1.7155   16.4307   14.1927 H   0  0  0  0  0  0  0  0  0  0  0  0
   -1.2461   14.0174   13.6204 B   0  0  0  0  0  0  0  0  0  0  0  0
   -1.4361   14.0410   12.5177 H   0  0  0  0  0  0  0  0  0  0  0  0
   -1.6457   12.5923   14.6206 B   0  0  0  0  0  0  0  0  0  0  0  0
   -2.1308   11.6875   14.1730 H   0  0  0  0  0  0  0  0  0  0  0  0
   -1.9757   13.1489   16.2444 B   0  0  0  0  0  0  0  0  0  0  0  0
   -2.7026   12.5886   16.8862 H   0  0  0  0  0  0  0  0  0  0  0  0
   -1.8343   14.9438   16.2773 B   0  0  0  0  0  0  0  0  0  0  0  0
   -2.4550   15.6011   16.9383 H   0  0  0  0  0  0  0  0  0  0  0  0
   -2.5300   14.1182   14.8291 B   0  0  0  0  0  0  0  0  0  0  0  0
   -3.6096   14.2209   14.5468 H   0  0  0  0  0  0  0  0  0  0  0  0
   -0.3903   12.4821   15.8969 B   0  0  0  0  0  0  0  0  0  0  0  0
    0.0282   11.5987   16.1614 H   0  0  0  0  0  0  0  0  0  0  0  0
   -0.5784   13.9147   17.0129 B   0  0  0  0  0  0  0  0  0  0  0  0
   -0.4177   13.9333   18.0151 H   0  0  0  0  0  0  0  0  0  0  0  0
    0.3323   14.1649   16.4897 H   0  0  0  0  0  0  0  0  0  0  0  0
   -0.1414   15.3248   15.9201 B   0  0  0  0  0  0  0  0  0  0  0  0
    0.3506   16.2493   16.1228 H   0  0  0  0  0  0  0  0  0  0  0  0
    4.9390   10.0402    9.8946 Br  0  0  0  0  0  0  0  0  0  0  0  0
    7.2857   11.3282    7.8617 Br  0  0  0  0  0  0  0  0  0  0  0  0
    7.5901   14.6125    7.6555 Br  0  0  0  0  0  0  0  0  0  0  0  0
    5.5923   16.5502    9.5167 Br  0  0  0  0  0  0  0  0  0  0  0  0
    0.4145   11.1635   12.3170 N   0  0  0  0  0  0  0  0  0  0  0  0
    1.9631   11.1056   14.1765 N   0  0  0  0  0  0  0  0  0  0  0  0
    0.7739   16.4996   12.2166 N   0  0  0  0  0  0  0  0  0  0  0  0
    2.2641   16.4623   14.1379 N   0  0  0  0  0  0  0  0  0  0  0  0
    3.4464   12.2094   11.3169 O   0  0  0  0  0  0  0  0  0  0  0  0
    3.7267   14.8971   11.1817 O   0  0  0  0  0  0  0  0  0  0  0  0
    1.1020   12.2135   13.3481 P   0  0  0  0  0  0  0  0  0  0  0  0
    1.3228   15.4188   13.2950 P   0  0  0  0  0  0  0  0  0  0  0  0
  1  2  1  0  0  0  0
  2 62  1  0  0  0  0
  3  4  1  0  0  0  0
  5  3  1  0  0  0  0
  6  3  1  0  0  0  0
  7  6  1  0  0  0  0
  8  6  1  0  0  0  0
  9 10  1  0  0  0  0
 11  9  1  0  0  0  0
 12 11  1  0  0  0  0
 13 11  1  0  0  0  0
 14 11  1  0  0  0  0
 15  9  1  0  0  0  0
 16 15  1  0  0  0  0
 17 15  1  0  0  0  0
 18 15  1  0  0  0  0
 19 20  1  0  0  0  0
 21 19  1  0  0  0  0
 22 21  1  0  0  0  0
 23 21  1  0  0  0  0
 24 21  1  0  0  0  0
 25 19  1  0  0  0  0
 26 25  1  0  0  0  0
 27 25  1  0  0  0  0
 28 25  1  0  0  0  0
 29 30  1  0  0  0  0
 31 29  1  0  0  0  0
 32 29  1  0  0  0  0
 33 32  1  0  0  0  0
 34 32  1  0  0  0  0
 35 36  1  0  0  0  0
 37 35  1  0  0  0  0
 38 37  1  0  0  0  0
 39 37  1  0  0  0  0
 40 37  1  0  0  0  0
 41 35  1  0  0  0  0
 42 41  1  0  0  0  0
 43 41  1  0  0  0  0
 44 41  1  0  0  0  0
 45 46  1  0  0  0  0
 47 45  1  0  0  0  0
 48 47  1  0  0  0  0
 49 47  1  0  0  0  0
 50 47  1  0  0  0  0
 51 45  1  0  0  0  0
 52 51  1  0  0  0  0
 53 51  1  0  0  0  0
 54 51  1  0  0  0  0
 55 56  4  0  0  0  0
 56 57  4  0  0  0  0
 57 58  4  0  0  0  0
 58 59  4  0  0  0  0
 59 60  4  0  0  0  0
 60 55  4  0  0  0  0
 61 89  1  0  0  0  0
 62 63  1  0  0  0  0
 64  1  1  0  0  0  0
 65 64  1  0  0  0  0
 66  1  1  0  0  0  0
 67 66  1  0  0  0  0
 68 66  1  0  0  0  0
 69 68  1  0  0  0  0
 70 62  1  0  0  0  0
 71 70  1  0  0  0  0
 72 62  1  0  0  0  0
 73 72  1  0  0  0  0
 74  1  1  0  0  0  0
 75 74  1  0  0  0  0
 76 68  1  0  0  0  0
 77 76  1  0  0  0  0
 78 76  1  0  0  0  0
 79  2  1  0  0  0  0
 80 79  1  0  0  0  0
 81 56  1  0  0  0  0
 82 57  1  0  0  0  0
 83 58  1  0  0  0  0
 84 59  1  0  0  0  0
 85  6  1  0  0  0  0
 86  3  1  0  0  0  0
 87 29  1  0  0  0  0
 88 32  1  0  0  0  0
 89 55  1  0  0  0  0
 90 60  1  0  0  0  0
 91  1  1  0  0  0  0
 92  2  1  0  0  0  0
  2 64  1  0  0  0  0
  9 85  1  0  0  0  0
 19 86  1  0  0  0  0
 35 87  1  0  0  0  0
 45 88  1  0  0  0  0
 61 90  1  0  0  0  0
 61 91  1  0  0  0  0
 61 92  1  0  0  0  0
 62 64  1  0  0  0  0
 62 79  1  0  0  0  0
 64 66  1  0  0  0  0
 64 72  1  0  0  0  0
 66 72  1  0  0  0  0
 66 74  1  0  0  0  0
 68 70  1  0  0  0  0
 68 72  1  0  0  0  0
 68 74  1  0  0  0  0
 70 72  1  0  0  0  0
 70 76  1  0  0  0  0
 70 79  1  0  0  0  0
 74 76  1  0  0  0  0
 76 79  1  0  0  0  0
 78 79  1  0  0  0  0
 85 91  1  0  0  0  0
 86 91  1  0  0  0  0
 87 92  1  0  0  0  0
 88 92  1  0  0  0  0
M  END
$$$$
XENLUA

From CSD data. Using bond type 'Any'. No disordered atoms. Largest molecule.
 76 99  0  0  0  0  0  0  0  0999 V2000
    7.0603    5.7192    4.3950 Re  0  0  0  0  0  0  0  0  0  0  0  0
    5.8084    7.6850    3.1587 Br  0  0  0  0  0  0  0  0  0  0  0  0
    5.1654    4.2746    4.9165 P   0  0  0  0  0  0  0  0  0  0  0  0
    7.2364    4.5241    2.2676 P   0  0  0  0  0  0  0  0  0  0  0  0
    6.3936    7.4205    6.9099 O   0  0  0  0  0  0  0  0  0  0  0  0
    9.5612    7.3777    3.5975 O   0  0  0  0  0  0  0  0  0  0  0  0
    6.6727    6.7992    5.9989 C   0  0  0  0  0  0  0  0  0  0  0  0
    8.6470    6.7713    3.9048 C   0  0  0  0  0  0  0  0  0  0  0  0
    5.5041    3.2469    6.4050 C   0  0  0  0  0  0  0  0  0  0  0  0
    6.1418    2.0099    6.4304 C   0  0  0  0  0  0  0  0  0  0  0  0
    6.3597    1.5772    5.6117 H   0  0  0  0  0  0  0  0  0  0  0  0
    6.4627    1.3975    7.6380 C   0  0  0  0  0  0  0  0  0  0  0  0
    6.8937    0.5513    7.6397 H   0  0  0  0  0  0  0  0  0  0  0  0
    6.1574    2.0186    8.8420 C   0  0  0  0  0  0  0  0  0  0  0  0
    6.3725    1.5947    9.6642 H   0  0  0  0  0  0  0  0  0  0  0  0
    5.5368    3.2626    8.8367 C   0  0  0  0  0  0  0  0  0  0  0  0
    5.3318    3.6971    9.6571 H   0  0  0  0  0  0  0  0  0  0  0  0
    5.2154    3.8733    7.6243 C   0  0  0  0  0  0  0  0  0  0  0  0
    4.7960    4.7247    7.6255 H   0  0  0  0  0  0  0  0  0  0  0  0
    3.4864    4.8887    5.2885 C   0  0  0  0  0  0  0  0  0  0  0  0
    2.5678    4.0582    5.9324 C   0  0  0  0  0  0  0  0  0  0  0  0
    2.8345    3.1946    6.2279 H   0  0  0  0  0  0  0  0  0  0  0  0
    1.2649    4.4909    6.1409 C   0  0  0  0  0  0  0  0  0  0  0  0
    0.6437    3.9239    6.5831 H   0  0  0  0  0  0  0  0  0  0  0  0
    0.8648    5.7401    5.7112 C   0  0  0  0  0  0  0  0  0  0  0  0
   -0.0302    6.0263    5.8532 H   0  0  0  0  0  0  0  0  0  0  0  0
    1.7677    6.5758    5.0719 C   0  0  0  0  0  0  0  0  0  0  0  0
    1.4900    7.4360    4.7771 H   0  0  0  0  0  0  0  0  0  0  0  0
    3.0885    6.1571    4.8588 C   0  0  0  0  0  0  0  0  0  0  0  0
    3.7086    6.7311    4.4254 H   0  0  0  0  0  0  0  0  0  0  0  0
    7.2203    5.6625    0.8323 C   0  0  0  0  0  0  0  0  0  0  0  0
    8.4753    6.1763    0.4651 C   0  0  0  0  0  0  0  0  0  0  0  0
    9.2575    5.8657    0.9057 H   0  0  0  0  0  0  0  0  0  0  0  0
    8.5804    7.1359   -0.5413 C   0  0  0  0  0  0  0  0  0  0  0  0
    9.4332    7.4709   -0.7903 H   0  0  0  0  0  0  0  0  0  0  0  0
    7.4371    7.6000   -1.1809 C   0  0  0  0  0  0  0  0  0  0  0  0
    7.5078    8.2473   -1.8718 H   0  0  0  0  0  0  0  0  0  0  0  0
    6.1966    7.1185   -0.8080 C   0  0  0  0  0  0  0  0  0  0  0  0
    5.4172    7.4377   -1.2449 H   0  0  0  0  0  0  0  0  0  0  0  0
    6.0789    6.1688    0.2037 C   0  0  0  0  0  0  0  0  0  0  0  0
    5.2189    5.8640    0.4671 H   0  0  0  0  0  0  0  0  0  0  0  0
    8.6423    3.4354    1.8645 C   0  0  0  0  0  0  0  0  0  0  0  0
    8.8684    3.0667    0.5274 C   0  0  0  0  0  0  0  0  0  0  0  0
    8.3448    3.4563   -0.1616 H   0  0  0  0  0  0  0  0  0  0  0  0
    9.8476    2.1408    0.2042 C   0  0  0  0  0  0  0  0  0  0  0  0
    9.9994    1.9105   -0.7050 H   0  0  0  0  0  0  0  0  0  0  0  0
   10.6041    1.5511    1.1987 C   0  0  0  0  0  0  0  0  0  0  0  0
   11.2578    0.8968    0.9785 H   0  0  0  0  0  0  0  0  0  0  0  0
   10.4004    1.9209    2.5306 C   0  0  0  0  0  0  0  0  0  0  0  0
   10.9344    1.5336    3.2143 H   0  0  0  0  0  0  0  0  0  0  0  0
    9.4249    2.8491    2.8591 C   0  0  0  0  0  0  0  0  0  0  0  0
    9.2882    3.0882    3.7684 H   0  0  0  0  0  0  0  0  0  0  0  0
    4.8001    3.1339    3.4709 C   0  0  0  0  0  0  0  0  0  0  0  0
    5.7957    3.3106    2.0849 C   0  0  0  0  0  0  0  0  0  0  0  0
    4.2857    1.5179    3.6263 B   0  0  0  0  0  0  0  0  0  0  0  0
    4.3532    1.3609    0.7423 B   0  0  0  0  0  0  0  0  0  0  0  0
    3.1971    2.7671    2.9657 B   0  0  0  0  0  0  0  0  0  0  0  0
    4.1885    3.9274    2.0564 B   0  0  0  0  0  0  0  0  0  0  0  0
    3.2477    2.6869    1.2005 B   0  0  0  0  0  0  0  0  0  0  0  0
    3.3022    1.1812    2.1808 B   0  0  0  0  0  0  0  0  0  0  0  0
    5.9675    1.7848    1.2964 B   0  0  0  0  0  0  0  0  0  0  0  0
    5.0067    0.6455    2.2571 B   0  0  0  0  0  0  0  0  0  0  0  0
    5.9547    1.9017    3.0722 B   0  0  0  0  0  0  0  0  0  0  0  0
    4.8943    3.0498    0.6606 B   0  0  0  0  0  0  0  0  0  0  0  0
    8.1305    4.5520    5.4572 C   0  0  0  0  0  0  0  0  0  0  0  0
    8.7834    3.8890    6.1374 O   0  0  0  0  0  0  0  0  0  0  0  0
    4.1684    1.0992    4.6172 H   0  0  0  0  0  0  0  0  0  0  0  0
    4.1707    0.7502   -0.0888 H   0  0  0  0  0  0  0  0  0  0  0  0
    2.4464    3.1579    3.5162 H   0  0  0  0  0  0  0  0  0  0  0  0
    4.1218    5.0073    2.1665 H   0  0  0  0  0  0  0  0  0  0  0  0
    2.4000    2.9137    0.6216 H   0  0  0  0  0  0  0  0  0  0  0  0
    2.3840    0.5758    2.2553 H   0  0  0  0  0  0  0  0  0  0  0  0
    6.9312    1.6051    0.6926 H   0  0  0  0  0  0  0  0  0  0  0  0
    5.2100   -0.2792    2.3264 H   0  0  0  0  0  0  0  0  0  0  0  0
    6.7451    1.8320    3.7115 H   0  0  0  0  0  0  0  0  0  0  0  0
    5.1677    3.6290   -0.1598 H   0  0  0  0  0  0  0  0  0  0  0  0
  1  2  1  0  0  0  0
  3  1  1  0  0  0  0
  4  1  1  0  0  0  0
  5  7  3  0  0  0  0
  6  8  3  0  0  0  0
  7  1  1  0  0  0  0
  8  1  1  0  0  0  0
  9  3  1  0  0  0  0
 10  9  4  0  0  0  0
 11 10  1  0  0  0  0
 12 10  4  0  0  0  0
 13 12  1  0  0  0  0
 14 12  4  0  0  0  0
 15 14  1  0  0  0  0
 16 14  4  0  0  0  0
 17 16  1  0  0  0  0
 18  9  4  0  0  0  0
 19 18  1  0  0  0  0
 20  3  1  0  0  0  0
 21 20  4  0  0  0  0
 22 21  1  0  0  0  0
 23 21  4  0  0  0  0
 24 23  1  0  0  0  0
 25 23  4  0  0  0  0
 26 25  1  0  0  0  0
 27 25  4  0  0  0  0
 28 27  1  0  0  0  0
 29 20  4  0  0  0  0
 30 29  1  0  0  0  0
 31  4  1  0  0  0  0
 32 31  4  0  0  0  0
 33 32  1  0  0  0  0
 34 32  4  0  0  0  0
 35 34  1  0  0  0  0
 36 34  4  0  0  0  0
 37 36  1  0  0  0  0
 38 36  4  0  0  0  0
 39 38  1  0  0  0  0
 40 31  4  0  0  0  0
 41 40  1  0  0  0  0
 42  4  1  0  0  0  0
 43 42  4  0  0  0  0
 44 43  1  0  0  0  0
 45 43  4  0  0  0  0
 46 45  1  0  0  0  0
 47 45  4  0  0  0  0
 48 47  1  0  0  0  0
 49 47  4  0  0  0  0
 50 49  1  0  0  0  0
 51 42  4  0  0  0  0
 52 51  1  0  0  0  0
 53  3  1  0  0  0  0
 54  4  1  0  0  0  0
 55 53  1  0  0  0  0
 56 59  1  0  0  0  0
 57 53  1  0  0  0  0
 58 53  1  0  0  0  0
 59 57  1  0  0  0  0
 60 55  1  0  0  0  0
 61 54  1  0  0  0  0
 62 55  1  0  0  0  0
 63 53  1  0  0  0  0
 64 54  1  0  0  0  0
 65  1  1  0  0  0  0
 66 65  3  0  0  0  0
 67 55  1  0  0  0  0
 68 56  1  0  0  0  0
 69 57  1  0  0  0  0
 70 58  1  0  0  0  0
 71 59  1  0  0  0  0
 72 60  1  0  0  0  0
 73 61  1  0  0  0  0
 74 62  1  0  0  0  0
 75 63  1  0  0  0  0
 76 64  1  0  0  0  0
 16 18  4  0  0  0  0
 27 29  4  0  0  0  0
 38 40  4  0  0  0  0
 49 51  4  0  0  0  0
 53 54  1  0  0  0  0
 54 58  1  0  0  0  0
 54 63  1  0  0  0  0
 55 57  1  0  0  0  0
 55 63  1  0  0  0  0
 56 60  1  0  0  0  0
 56 61  1  0  0  0  0
 56 62  1  0  0  0  0
 56 64  1  0  0  0  0
 57 58  1  0  0  0  0
 57 60  1  0  0  0  0
 58 59  1  0  0  0  0
 58 64  1  0  0  0  0
 59 60  1  0  0  0  0
 59 64  1  0  0  0  0
 60 62  1  0  0  0  0
 61 62  1  0  0  0  0
 61 63  1  0  0  0  0
 61 64  1  0  0  0  0
 62 63  1  0  0  0  0
M  END
$$$$
XEVDIP

From CSD data. Using bond type 'Any'. No disordered atoms. Largest molecule.
 96106  0  0  0  0  0  0  0  0999 V2000
    6.0626    6.4222    5.0153 Sn  0  0  0  0  0  0  0  0  0  0  0  0
    8.6406    6.4121    5.4204 P   0  0  0  0  0  0  0  0  0  0  0  0
    5.6522    8.4920    6.6091 P   0  0  0  0  0  0  0  0  0  0  0  0
    6.1575    7.8408    2.8044 P   0  0  0  0  0  0  0  0  0  0  0  0
    9.3557    5.3857    4.0853 C   0  0  0  0  0  0  0  0  0  0  0  0
   10.1357    5.9704    3.1063 C   0  0  0  0  0  0  0  0  0  0  0  0
   10.3075    6.9038    3.1386 H   0  0  0  0  0  0  0  0  0  0  0  0
   10.6727    5.2069    2.0759 C   0  0  0  0  0  0  0  0  0  0  0  0
   11.2084    5.6216    1.4087 H   0  0  0  0  0  0  0  0  0  0  0  0
   10.4296    3.8605    2.0189 C   0  0  0  0  0  0  0  0  0  0  0  0
   10.8021    3.3400    1.3174 H   0  0  0  0  0  0  0  0  0  0  0  0
    9.6508    3.2723    2.9694 C   0  0  0  0  0  0  0  0  0  0  0  0
    9.4790    2.3389    2.9276 H   0  0  0  0  0  0  0  0  0  0  0  0
    9.1102    4.0254    3.9997 C   0  0  0  0  0  0  0  0  0  0  0  0
    8.5648    3.6055    4.6537 H   0  0  0  0  0  0  0  0  0  0  0  0
    8.8332    5.4290    6.9596 C   0  0  0  0  0  0  0  0  0  0  0  0
    8.0036    4.3568    7.2467 C   0  0  0  0  0  0  0  0  0  0  0  0
    7.3264    4.1104    6.6270 H   0  0  0  0  0  0  0  0  0  0  0  0
    8.1463    3.6332    8.4310 C   0  0  0  0  0  0  0  0  0  0  0  0
    7.5634    2.9080    8.6173 H   0  0  0  0  0  0  0  0  0  0  0  0
    9.1295    3.9750    9.3226 C   0  0  0  0  0  0  0  0  0  0  0  0
    9.2481    3.4719   10.1191 H   0  0  0  0  0  0  0  0  0  0  0  0
    9.9471    5.0525    9.0546 C   0  0  0  0  0  0  0  0  0  0  0  0
   10.6171    5.3006    9.6800 H   0  0  0  0  0  0  0  0  0  0  0  0
    9.8056    5.7795    7.8854 C   0  0  0  0  0  0  0  0  0  0  0  0
   10.3752    6.5204    7.7162 H   0  0  0  0  0  0  0  0  0  0  0  0
    6.3673    7.9605    8.1972 C   0  0  0  0  0  0  0  0  0  0  0  0
    7.2550    8.7829    8.8816 C   0  0  0  0  0  0  0  0  0  0  0  0
    7.4981    9.6244    8.5109 H   0  0  0  0  0  0  0  0  0  0  0  0
    7.7871    8.3873   10.0925 C   0  0  0  0  0  0  0  0  0  0  0  0
    8.4003    8.9547   10.5469 H   0  0  0  0  0  0  0  0  0  0  0  0
    7.4388    7.1867   10.6457 C   0  0  0  0  0  0  0  0  0  0  0  0
    7.8065    6.9195   11.4784 H   0  0  0  0  0  0  0  0  0  0  0  0
    6.5463    6.3608    9.9823 C   0  0  0  0  0  0  0  0  0  0  0  0
    6.2863    5.5331   10.3701 H   0  0  0  0  0  0  0  0  0  0  0  0
    6.0372    6.7390    8.7637 C   0  0  0  0  0  0  0  0  0  0  0  0
    5.4482    6.1543    8.3018 H   0  0  0  0  0  0  0  0  0  0  0  0
    3.8664    8.3873    6.9311 C   0  0  0  0  0  0  0  0  0  0  0  0
    2.9714    8.1652    5.8837 C   0  0  0  0  0  0  0  0  0  0  0  0
    3.3028    7.9779    5.0130 H   0  0  0  0  0  0  0  0  0  0  0  0
    1.6060    8.2190    6.1023 C   0  0  0  0  0  0  0  0  0  0  0  0
    1.0098    8.0663    5.3780 H   0  0  0  0  0  0  0  0  0  0  0  0
    1.1042    8.4880    7.3417 C   0  0  0  0  0  0  0  0  0  0  0  0
    0.1657    8.5261    7.4805 H   0  0  0  0  0  0  0  0  0  0  0  0
    1.9689    8.7031    8.3835 C   0  0  0  0  0  0  0  0  0  0  0  0
    1.6254    8.8870    9.2504 H   0  0  0  0  0  0  0  0  0  0  0  0
    3.3403    8.6545    8.1839 C   0  0  0  0  0  0  0  0  0  0  0  0
    3.9268    8.8072    8.9139 H   0  0  0  0  0  0  0  0  0  0  0  0
    4.3646    7.9987    2.5265 C   0  0  0  0  0  0  0  0  0  0  0  0
    3.7587    9.2375    2.6633 C   0  0  0  0  0  0  0  0  0  0  0  0
    4.2908   10.0027    2.8534 H   0  0  0  0  0  0  0  0  0  0  0  0
    2.3897    9.3763    2.5303 C   0  0  0  0  0  0  0  0  0  0  0  0
    1.9894   10.2352    2.6082 H   0  0  0  0  0  0  0  0  0  0  0  0
    1.6121    8.2780    2.2869 C   0  0  0  0  0  0  0  0  0  0  0  0
    0.6688    8.3700    2.2128 H   0  0  0  0  0  0  0  0  0  0  0  0
    2.1926    7.0426    2.1520 C   0  0  0  0  0  0  0  0  0  0  0  0
    1.6484    6.2827    1.9847 H   0  0  0  0  0  0  0  0  0  0  0  0
    3.5616    6.8934    2.2565 C   0  0  0  0  0  0  0  0  0  0  0  0
    3.9546    6.0363    2.1424 H   0  0  0  0  0  0  0  0  0  0  0  0
    6.7616    6.7633    1.4619 C   0  0  0  0  0  0  0  0  0  0  0  0
    6.7967    5.3735    1.5493 C   0  0  0  0  0  0  0  0  0  0  0  0
    6.4508    4.9484    2.3249 H   0  0  0  0  0  0  0  0  0  0  0  0
    7.3227    4.6014    0.5361 C   0  0  0  0  0  0  0  0  0  0  0  0
    7.3445    3.6558    0.6216 H   0  0  0  0  0  0  0  0  0  0  0  0
    7.8149    5.2035   -0.5988 C   0  0  0  0  0  0  0  0  0  0  0  0
    8.1862    4.6743   -1.2946 H   0  0  0  0  0  0  0  0  0  0  0  0
    7.7702    6.5863   -0.7262 C   0  0  0  0  0  0  0  0  0  0  0  0
    8.1004    7.0045   -1.5113 H   0  0  0  0  0  0  0  0  0  0  0  0
    7.2441    7.3463    0.2947 C   0  0  0  0  0  0  0  0  0  0  0  0
    7.2103    8.2902    0.1996 H   0  0  0  0  0  0  0  0  0  0  0  0
    9.5782    8.1080    5.5130 B   0  0  0  0  0  0  0  0  0  0  0  0
    9.4089    8.5365    4.4294 H   0  0  0  0  0  0  0  0  0  0  0  0
    9.0219    8.6927    6.2163 H   0  0  0  0  0  0  0  0  0  0  0  0
   10.5941    7.9813    5.7221 H   0  0  0  0  0  0  0  0  0  0  0  0
    6.0408   10.3965    6.3304 B   0  0  0  0  0  0  0  0  0  0  0  0
    5.6719   10.8789    7.2619 H   0  0  0  0  0  0  0  0  0  0  0  0
    5.4422   10.7054    5.5320 H   0  0  0  0  0  0  0  0  0  0  0  0
    7.1474   10.5145    6.1783 H   0  0  0  0  0  0  0  0  0  0  0  0
    7.0119    9.5897    2.6272 B   0  0  0  0  0  0  0  0  0  0  0  0
    8.0907    9.3867    2.6804 H   0  0  0  0  0  0  0  0  0  0  0  0
    6.6636    9.9940    1.6539 H   0  0  0  0  0  0  0  0  0  0  0  0
    6.6757   10.2022    3.4979 H   0  0  0  0  0  0  0  0  0  0  0  0
    8.2890   10.0513    4.6993 Li  0  0  0  0  0  0  0  0  0  0  0  0
    9.4766   11.5157    4.4294 O   0  0  0  0  0  0  0  0  0  0  0  0
    9.2154   12.6591    3.6538 C   0  0  0  0  0  0  0  0  0  0  0  0
    8.5889   13.2594    4.1309 H   0  0  0  0  0  0  0  0  0  0  0  0
    8.8042   12.3971    2.7945 H   0  0  0  0  0  0  0  0  0  0  0  0
   10.4502   13.3288    3.4218 C   0  0  0  0  0  0  0  0  0  0  0  0
   10.3619   14.2883    3.6519 H   0  0  0  0  0  0  0  0  0  0  0  0
   10.6932   13.2629    2.4637 H   0  0  0  0  0  0  0  0  0  0  0  0
   11.4987   12.7111    4.2450 C   0  0  0  0  0  0  0  0  0  0  0  0
   11.8639   13.3618    4.8951 H   0  0  0  0  0  0  0  0  0  0  0  0
   12.2376   12.3745    3.6804 H   0  0  0  0  0  0  0  0  0  0  0  0
   10.8202   11.5989    4.9408 C   0  0  0  0  0  0  0  0  0  0  0  0
   11.3004   10.7488    4.7735 H   0  0  0  0  0  0  0  0  0  0  0  0
   10.8069   11.7638    5.9160 H   0  0  0  0  0  0  0  0  0  0  0  0
  1  2  1  0  0  0  0
  2  5  1  0  0  0  0
  3  1  1  0  0  0  0
  4  1  1  0  0  0  0
  5  6  4  0  0  0  0
  6  7  1  0  0  0  0
  8  6  4  0  0  0  0
  9  8  1  0  0  0  0
 10  8  4  0  0  0  0
 11 10  1  0  0  0  0
 12 10  4  0  0  0  0
 13 12  1  0  0  0  0
 14  5  4  0  0  0  0
 15 14  1  0  0  0  0
 16  2  1  0  0  0  0
 17 16  4  0  0  0  0
 18 17  1  0  0  0  0
 19 17  4  0  0  0  0
 20 19  1  0  0  0  0
 21 19  4  0  0  0  0
 22 21  1  0  0  0  0
 23 21  4  0  0  0  0
 24 23  1  0  0  0  0
 25 16  4  0  0  0  0
 26 25  1  0  0  0  0
 27  3  1  0  0  0  0
 28 27  4  0  0  0  0
 29 28  1  0  0  0  0
 30 28  4  0  0  0  0
 31 30  1  0  0  0  0
 32 30  4  0  0  0  0
 33 32  1  0  0  0  0
 34 32  4  0  0  0  0
 35 34  1  0  0  0  0
 36 27  4  0  0  0  0
 37 36  1  0  0  0  0
 38  3  1  0  0  0  0
 39 38  4  0  0  0  0
 40 39  1  0  0  0  0
 41 39  4  0  0  0  0
 42 41  1  0  0  0  0
 43 41  4  0  0  0  0
 44 43  1  0  0  0  0
 45 43  4  0  0  0  0
 46 45  1  0  0  0  0
 47 38  4  0  0  0  0
 48 47  1  0  0  0  0
 49  4  1  0  0  0  0
 50 49  4  0  0  0  0
 51 50  1  0  0  0  0
 52 50  4  0  0  0  0
 53 52  1  0  0  0  0
 54 52  4  0  0  0  0
 55 54  1  0  0  0  0
 56 54  4  0  0  0  0
 57 56  1  0  0  0  0
 58 49  4  0  0  0  0
 59 58  1  0  0  0  0
 60  4  1  0  0  0  0
 61 60  4  0  0  0  0
 62 61  1  0  0  0  0
 63 61  4  0  0  0  0
 64 63  1  0  0  0  0
 65 63  4  0  0  0  0
 66 65  1  0  0  0  0
 67 65  4  0  0  0  0
 68 67  1  0  0  0  0
 69 60  4  0  0  0  0
 70 69  1  0  0  0  0
 71  2  1  0  0  0  0
 72 71  1  0  0  0  0
 73 71  1  0  0  0  0
 74 71  1  0  0  0  0
 75  3  1  0  0  0  0
 76 75  1  0  0  0  0
 77 75  1  0  0  0  0
 78 75  1  0  0  0  0
 79  4  1  0  0  0  0
 80 79  1  0  0  0  0
 81 79  1  0  0  0  0
 82 79  1  0  0  0  0
 83 72  1  0  0  0  0
 84 83  1  0  0  0  0
 85 84  1  0  0  0  0
 86 85  1  0  0  0  0
 87 85  1  0  0  0  0
 88 85  1  0  0  0  0
 89 88  1  0  0  0  0
 90 88  1  0  0  0  0
 91 88  1  0  0  0  0
 92 91  1  0  0  0  0
 93 91  1  0  0  0  0
 94 84  1  0  0  0  0
 95 94  1  0  0  0  0
 96 94  1  0  0  0  0
 12 14  4  0  0  0  0
 23 25  4  0  0  0  0
 34 36  4  0  0  0  0
 45 47  4  0  0  0  0
 56 58  4  0  0  0  0
 67 69  4  0  0  0  0
 73 83  1  0  0  0  0
 78 83  1  0  0  0  0
 80 83  1  0  0  0  0
 82 83  1  0  0  0  0
 91 94  1  0  0  0  0
M  END
$$$$
XEVDOV

From CSD data. Using bond type 'Any'. No disordered atoms. Largest molecule.
 97 98  0  0  0  0  0  0  0  0999 V2000
    4.8685    6.0650    7.6653 Sn  0  0  0  0  0  0  0  0  0  0  0  0
    5.9461    3.7146    8.2093 P   0  0  0  0  0  0  0  0  0  0  0  0
    6.4638    6.9635    5.7736 P   0  0  0  0  0  0  0  0  0  0  0  0
    2.6620    5.5016    6.3295 P   0  0  0  0  0  0  0  0  0  0  0  0
   10.3305    2.3481    7.4013 Na  0  0  0  0  0  0  0  0  0  0  0  0
    7.8353    3.3778    7.8825 B   0  0  0  0  0  0  0  0  0  0  0  0
    8.0408    2.5049    8.5194 H   0  0  0  0  0  0  0  0  0  0  0  0
    7.9790    3.1786    6.8083 H   0  0  0  0  0  0  0  0  0  0  0  0
    5.6959    7.8773    4.2240 B   0  0  0  0  0  0  0  0  0  0  0  0
    4.8154    8.4949    4.5435 H   0  0  0  0  0  0  0  0  0  0  0  0
    6.5733    8.4794    3.8555 H   0  0  0  0  0  0  0  0  0  0  0  0
    1.6533    3.9005    6.8083 B   0  0  0  0  0  0  0  0  0  0  0  0
    0.5763    4.1697    6.5335 H   0  0  0  0  0  0  0  0  0  0  0  0
   10.8511    1.7925    9.6068 O   0  0  0  0  0  0  0  0  0  0  0  0
    4.9587    2.2339    7.6789 C   0  0  0  0  0  0  0  0  0  0  0  0
    4.0156    2.4100    7.8815 H   0  0  0  0  0  0  0  0  0  0  0  0
    5.0865    2.0271    6.1772 C   0  0  0  0  0  0  0  0  0  0  0  0
    4.7716    2.8099    5.7191 H   0  0  0  0  0  0  0  0  0  0  0  0
    4.5615    1.2680    5.9136 H   0  0  0  0  0  0  0  0  0  0  0  0
    6.0070    1.8732    5.9538 H   0  0  0  0  0  0  0  0  0  0  0  0
    5.3720    0.9645    8.4251 C   0  0  0  0  0  0  0  0  0  0  0  0
    6.3148    0.8230    8.3168 H   0  0  0  0  0  0  0  0  0  0  0  0
    4.8921    0.2132    8.0681 H   0  0  0  0  0  0  0  0  0  0  0  0
    5.1674    1.0611    9.3579 H   0  0  0  0  0  0  0  0  0  0  0  0
    5.7503    3.7124   10.0596 C   0  0  0  0  0  0  0  0  0  0  0  0
    6.1600    2.8845   10.3870 H   0  0  0  0  0  0  0  0  0  0  0  0
    6.5092    4.8611   10.7041 C   0  0  0  0  0  0  0  0  0  0  0  0
    7.4290    4.8309   10.4311 H   0  0  0  0  0  0  0  0  0  0  0  0
    6.4573    4.7827   11.6588 H   0  0  0  0  0  0  0  0  0  0  0  0
    6.1208    5.6944   10.4291 H   0  0  0  0  0  0  0  0  0  0  0  0
    4.2955    3.6905   10.5083 C   0  0  0  0  0  0  0  0  0  0  0  0
    3.8535    4.4855   10.2024 H   0  0  0  0  0  0  0  0  0  0  0  0
    4.2576    3.6516   11.4662 H   0  0  0  0  0  0  0  0  0  0  0  0
    3.8593    2.9188   10.1382 H   0  0  0  0  0  0  0  0  0  0  0  0
    7.7783    5.8069    5.1708 C   0  0  0  0  0  0  0  0  0  0  0  0
    8.2371    5.4377    5.9538 H   0  0  0  0  0  0  0  0  0  0  0  0
    7.1850    4.6484    4.3863 C   0  0  0  0  0  0  0  0  0  0  0  0
    6.5106    4.2164    4.9147 H   0  0  0  0  0  0  0  0  0  0  0  0
    7.8770    4.0188    4.1744 H   0  0  0  0  0  0  0  0  0  0  0  0
    6.7930    4.9787    3.5747 H   0  0  0  0  0  0  0  0  0  0  0  0
    8.8120    6.5361    4.3249 C   0  0  0  0  0  0  0  0  0  0  0  0
    8.3770    6.9546    3.5767 H   0  0  0  0  0  0  0  0  0  0  0  0
    9.4637    5.9091    4.0039 H   0  0  0  0  0  0  0  0  0  0  0  0
    9.2474    7.2067    4.8565 H   0  0  0  0  0  0  0  0  0  0  0  0
    7.4113    8.2483    6.7271 C   0  0  0  0  0  0  0  0  0  0  0  0
    8.0297    8.6723    6.0962 H   0  0  0  0  0  0  0  0  0  0  0  0
    6.4798    9.3374    7.2364 C   0  0  0  0  0  0  0  0  0  0  0  0
    5.9391    9.6603    6.5114 H   0  0  0  0  0  0  0  0  0  0  0  0
    7.0001   10.0601    7.5946 H   0  0  0  0  0  0  0  0  0  0  0  0
    5.9142    8.9788    7.9236 H   0  0  0  0  0  0  0  0  0  0  0  0
    8.2585    7.6626    7.8588 C   0  0  0  0  0  0  0  0  0  0  0  0
    7.6869    7.2254    8.4933 H   0  0  0  0  0  0  0  0  0  0  0  0
    8.7412    8.3689    8.2967 H   0  0  0  0  0  0  0  0  0  0  0  0
    8.8804    7.0262    7.4964 H   0  0  0  0  0  0  0  0  0  0  0  0
    1.6194    6.9377    6.8833 C   0  0  0  0  0  0  0  0  0  0  0  0
    0.7505    6.8442    6.4412 H   0  0  0  0  0  0  0  0  0  0  0  0
    1.3556    6.8940    8.3886 C   0  0  0  0  0  0  0  0  0  0  0  0
    0.9492    6.0538    8.6177 H   0  0  0  0  0  0  0  0  0  0  0  0
    0.7665    7.6112    8.6317 H   0  0  0  0  0  0  0  0  0  0  0  0
    2.1861    6.9873    8.8624 H   0  0  0  0  0  0  0  0  0  0  0  0
    2.1767    8.2977    6.4753 C   0  0  0  0  0  0  0  0  0  0  0  0
    3.0197    8.4420    6.9126 H   0  0  0  0  0  0  0  0  0  0  0  0
    1.5601    8.9866    6.7341 H   0  0  0  0  0  0  0  0  0  0  0  0
    2.3016    8.3191    5.5245 H   0  0  0  0  0  0  0  0  0  0  0  0
    2.7188    5.6964    4.4846 C   0  0  0  0  0  0  0  0  0  0  0  0
    3.1965    6.5283    4.2828 H   0  0  0  0  0  0  0  0  0  0  0  0
    3.4776    4.5487    3.8344 C   0  0  0  0  0  0  0  0  0  0  0  0
    4.3706    4.5151    4.1865 H   0  0  0  0  0  0  0  0  0  0  0  0
    3.5138    4.6862    2.8846 H   0  0  0  0  0  0  0  0  0  0  0  0
    3.0294    3.7216    4.0220 H   0  0  0  0  0  0  0  0  0  0  0  0
    1.3280    5.7940    3.8719 C   0  0  0  0  0  0  0  0  0  0  0  0
    0.8234    5.0083    4.0962 H   0  0  0  0  0  0  0  0  0  0  0  0
    1.4029    5.8640    2.9167 H   0  0  0  0  0  0  0  0  0  0  0  0
    0.8793    6.5704    4.2166 H   0  0  0  0  0  0  0  0  0  0  0  0
   11.9862    1.0035   10.0004 C   0  0  0  0  0  0  0  0  0  0  0  0
   11.7114    0.3361   10.6477 H   0  0  0  0  0  0  0  0  0  0  0  0
   12.6522    1.5730   10.4171 H   0  0  0  0  0  0  0  0  0  0  0  0
   12.5700    0.3376    8.8063 C   0  0  0  0  0  0  0  0  0  0  0  0
   12.8724    1.0035    8.1844 H   0  0  0  0  0  0  0  0  0  0  0  0
   11.9018   -0.2116    8.3890 H   0  0  0  0  0  0  0  0  0  0  0  0
   13.3113   -0.2100    9.0751 H   0  0  0  0  0  0  0  0  0  0  0  0
   10.2813    2.5500   10.6814 C   0  0  0  0  0  0  0  0  0  0  0  0
   10.4082    2.0646   11.5123 H   0  0  0  0  0  0  0  0  0  0  0  0
    9.3276    2.6403   10.5334 H   0  0  0  0  0  0  0  0  0  0  0  0
   10.8813    3.9083   10.8175 C   0  0  0  0  0  0  0  0  0  0  0  0
   10.7386    4.4031   10.0078 H   0  0  0  0  0  0  0  0  0  0  0  0
   11.8241    3.8274   10.9807 H   0  0  0  0  0  0  0  0  0  0  0  0
   10.4678    4.3688   11.5504 H   0  0  0  0  0  0  0  0  0  0  0  0
    8.4578    4.2319    8.2045 H   0  0  0  0  0  0  0  0  0  0  0  0
    5.3846    7.0480    3.4904 H   0  0  0  0  0  0  0  0  0  0  0  0
    1.6905    3.7185    7.9236 H   0  0  0  0  0  0  0  0  0  0  0  0
    1.9990    3.0339    6.2386 H   0  0  0  0  0  0  0  0  0  0  0  0
   -0.6175    2.3481    7.4013 Na  0  0  0  0  0  0  0  0  0  0  0  0
    5.3627   10.1273    2.6286 Na  0  0  0  0  0  0  0  0  0  0  0  0
   10.8778    0.7157    5.4864 H   0  0  0  0  0  0  0  0  0  0  0  0
    9.1199    0.7001    6.1744 H   0  0  0  0  0  0  0  0  0  0  0  0
   11.5243    4.1697    6.5335 H   0  0  0  0  0  0  0  0  0  0  0  0
  1  2  1  0  0  0  0
  2  6  1  0  0  0  0
  3  1  1  0  0  0  0
  4  1  1  0  0  0  0
  5  7  1  0  0  0  0
  6  7  1  0  0  0  0
  8  5  1  0  0  0  0
  9  3  1  0  0  0  0
 10  9  1  0  0  0  0
 11  9  1  0  0  0  0
 12  4  1  0  0  0  0
 13 12  1  0  0  0  0
 14  5  1  0  0  0  0
 15  2  1  0  0  0  0
 16 15  1  0  0  0  0
 17 15  1  0  0  0  0
 18 17  1  0  0  0  0
 19 17  1  0  0  0  0
 20 17  1  0  0  0  0
 21 15  1  0  0  0  0
 22 21  1  0  0  0  0
 23 21  1  0  0  0  0
 24 21  1  0  0  0  0
 25  2  1  0  0  0  0
 26 25  1  0  0  0  0
 27 25  1  0  0  0  0
 28 27  1  0  0  0  0
 29 27  1  0  0  0  0
 30 27  1  0  0  0  0
 31 25  1  0  0  0  0
 32 31  1  0  0  0  0
 33 31  1  0  0  0  0
 34 31  1  0  0  0  0
 35  3  1  0  0  0  0
 36 35  1  0  0  0  0
 37 35  1  0  0  0  0
 38 37  1  0  0  0  0
 39 37  1  0  0  0  0
 40 37  1  0  0  0  0
 41 35  1  0  0  0  0
 42 41  1  0  0  0  0
 43 41  1  0  0  0  0
 44 41  1  0  0  0  0
 45  3  1  0  0  0  0
 46 45  1  0  0  0  0
 47 45  1  0  0  0  0
 48 47  1  0  0  0  0
 49 47  1  0  0  0  0
 50 47  1  0  0  0  0
 51 45  1  0  0  0  0
 52 51  1  0  0  0  0
 53 51  1  0  0  0  0
 54 51  1  0  0  0  0
 55  4  1  0  0  0  0
 56 55  1  0  0  0  0
 57 55  1  0  0  0  0
 58 57  1  0  0  0  0
 59 57  1  0  0  0  0
 60 57  1  0  0  0  0
 61 55  1  0  0  0  0
 62 61  1  0  0  0  0
 63 61  1  0  0  0  0
 64 61  1  0  0  0  0
 65  4  1  0  0  0  0
 66 65  1  0  0  0  0
 67 65  1  0  0  0  0
 68 67  1  0  0  0  0
 69 67  1  0  0  0  0
 70 67  1  0  0  0  0
 71 65  1  0  0  0  0
 72 71  1  0  0  0  0
 73 71  1  0  0  0  0
 74 71  1  0  0  0  0
 75 14  1  0  0  0  0
 76 75  1  0  0  0  0
 77 75  1  0  0  0  0
 78 75  1  0  0  0  0
 79 78  1  0  0  0  0
 80 78  1  0  0  0  0
 81 78  1  0  0  0  0
 82 14  1  0  0  0  0
 83 82  1  0  0  0  0
 84 82  1  0  0  0  0
 85 82  1  0  0  0  0
 86 85  1  0  0  0  0
 87 85  1  0  0  0  0
 88 85  1  0  0  0  0
 89  6  1  0  0  0  0
 90  9  1  0  0  0  0
 91 12  1  0  0  0  0
 92 12  1  0  0  0  0
 93 13  8  0  0  0  0
 94 10  8  0  0  0  0
 95  5  8  0  0  0  0
 96  5  8  0  0  0  0
 97  5  8  0  0  0  0
  6  8  1  0  0  0  0
 11 94  8  0  0  0  0
M  END
$$$$
XEVDUB

From CSD data. Using bond type 'Any'. No disordered atoms. Largest molecule.
 99103  0  0  0  0  0  0  0  0999 V2000
    4.3124    6.1173   12.4853 Sn  0  0  0  0  0  0  0  0  0  0  0  0
    9.8967    2.4028   12.7217 K   0  0  0  0  0  0  0  0  0  0  0  0
    6.4647    5.7012   13.9458 P   0  0  0  0  0  0  0  0  0  0  0  0
    3.4959    3.6910   11.8775 P   0  0  0  0  0  0  0  0  0  0  0  0
    2.5365    6.9120   14.2586 P   0  0  0  0  0  0  0  0  0  0  0  0
    8.8960    1.8892   10.2671 O   0  0  0  0  0  0  0  0  0  0  0  0
    7.4567    7.1965   13.4511 C   0  0  0  0  0  0  0  0  0  0  0  0
    8.3032    7.1490   13.9421 H   0  0  0  0  0  0  0  0  0  0  0  0
    7.8084    7.1637   11.9640 C   0  0  0  0  0  0  0  0  0  0  0  0
    8.2500    6.3371   11.7587 H   0  0  0  0  0  0  0  0  0  0  0  0
    8.3911    7.8983   11.7566 H   0  0  0  0  0  0  0  0  0  0  0  0
    7.0049    7.2350   11.4444 H   0  0  0  0  0  0  0  0  0  0  0  0
    6.8042    8.5174   13.8270 C   0  0  0  0  0  0  0  0  0  0  0  0
    5.9704    8.6069   13.3603 H   0  0  0  0  0  0  0  0  0  0  0  0
    7.3861    9.2420   13.5853 H   0  0  0  0  0  0  0  0  0  0  0  0
    6.6436    8.5365   14.7733 H   0  0  0  0  0  0  0  0  0  0  0  0
    6.3254    5.8643   15.7911 C   0  0  0  0  0  0  0  0  0  0  0  0
    5.8619    6.7047   15.9898 H   0  0  0  0  0  0  0  0  0  0  0  0
    5.5138    4.7232   16.3837 C   0  0  0  0  0  0  0  0  0  0  0  0
    4.6386    4.7149   15.9898 H   0  0  0  0  0  0  0  0  0  0  0  0
    5.4362    4.8447   17.3319 H   0  0  0  0  0  0  0  0  0  0  0  0
    5.9545    3.8889   16.2026 H   0  0  0  0  0  0  0  0  0  0  0  0
    7.7047    5.9094   16.4542 C   0  0  0  0  0  0  0  0  0  0  0  0
    8.1919    5.1122   16.2330 H   0  0  0  0  0  0  0  0  0  0  0  0
    7.5994    5.9679   17.4069 H   0  0  0  0  0  0  0  0  0  0  0  0
    8.1866    6.6765   16.1378 H   0  0  0  0  0  0  0  0  0  0  0  0
    3.8584    3.6784   10.0577 C   0  0  0  0  0  0  0  0  0  0  0  0
    3.5473    2.8142    9.7151 H   0  0  0  0  0  0  0  0  0  0  0  0
    3.0712    4.7509    9.3196 C   0  0  0  0  0  0  0  0  0  0  0  0
    2.1396    4.6679    9.5347 H   0  0  0  0  0  0  0  0  0  0  0  0
    3.1933    4.6429    8.3730 H   0  0  0  0  0  0  0  0  0  0  0  0
    3.3846    5.6175    9.5853 H   0  0  0  0  0  0  0  0  0  0  0  0
    5.3465    3.7674    9.7366 C   0  0  0  0  0  0  0  0  0  0  0  0
    5.6880    4.6132   10.0354 H   0  0  0  0  0  0  0  0  0  0  0  0
    5.4745    3.6871    8.7886 H   0  0  0  0  0  0  0  0  0  0  0  0
    5.8135    3.0583   10.1834 H   0  0  0  0  0  0  0  0  0  0  0  0
    4.4785    2.2497   12.5177 C   0  0  0  0  0  0  0  0  0  0  0  0
    5.4290    2.4450   12.3851 H   0  0  0  0  0  0  0  0  0  0  0  0
    4.2388    2.0530   14.0062 C   0  0  0  0  0  0  0  0  0  0  0  0
    4.4664    2.8580   14.4753 H   0  0  0  0  0  0  0  0  0  0  0  0
    4.7848    1.3312   14.3253 H   0  0  0  0  0  0  0  0  0  0  0  0
    3.3138    1.8459   14.1570 H   0  0  0  0  0  0  0  0  0  0  0  0
    4.1450    0.9672   11.7587 C   0  0  0  0  0  0  0  0  0  0  0  0
    3.2051    0.7853   11.8357 H   0  0  0  0  0  0  0  0  0  0  0  0
    4.6441    0.2362   12.1297 H   0  0  0  0  0  0  0  0  0  0  0  0
    4.3756    1.0747   10.8322 H   0  0  0  0  0  0  0  0  0  0  0  0
    1.5880    8.1511   13.2451 C   0  0  0  0  0  0  0  0  0  0  0  0
    0.9156    8.5475   13.8387 H   0  0  0  0  0  0  0  0  0  0  0  0
    0.8299    7.5321   12.0727 C   0  0  0  0  0  0  0  0  0  0  0  0
    1.4534    7.1161   11.4728 H   0  0  0  0  0  0  0  0  0  0  0  0
    0.3458    8.2174   11.6066 H   0  0  0  0  0  0  0  0  0  0  0  0
    0.2137    6.8736   12.4013 H   0  0  0  0  0  0  0  0  0  0  0  0
    2.4904    9.2877   12.7839 C   0  0  0  0  0  0  0  0  0  0  0  0
    2.9744    9.6378   13.5367 H   0  0  0  0  0  0  0  0  0  0  0  0
    1.9555    9.9835   12.3953 H   0  0  0  0  0  0  0  0  0  0  0  0
    3.1102    8.9589   12.1297 H   0  0  0  0  0  0  0  0  0  0  0  0
    1.2292    5.7090   14.7922 C   0  0  0  0  0  0  0  0  0  0  0  0
    0.8139    5.3390   13.9847 H   0  0  0  0  0  0  0  0  0  0  0  0
    0.1351    6.4001   15.6082 C   0  0  0  0  0  0  0  0  0  0  0  0
    0.5264    6.8205   16.3770 H   0  0  0  0  0  0  0  0  0  0  0  0
   -0.5106    5.7489   15.8945 H   0  0  0  0  0  0  0  0  0  0  0  0
   -0.2975    7.0645   15.0653 H   0  0  0  0  0  0  0  0  0  0  0  0
    1.8263    4.5572   15.5760 C   0  0  0  0  0  0  0  0  0  0  0  0
    2.5025    4.1267   15.0470 H   0  0  0  0  0  0  0  0  0  0  0  0
    1.1364    3.9249   15.7911 H   0  0  0  0  0  0  0  0  0  0  0  0
    2.2179    4.8901   16.3871 H   0  0  0  0  0  0  0  0  0  0  0  0
    9.0263    2.7083    9.1067 C   0  0  0  0  0  0  0  0  0  0  0  0
    8.1500    2.8815    8.7278 H   0  0  0  0  0  0  0  0  0  0  0  0
    9.5586    2.2479    8.4399 H   0  0  0  0  0  0  0  0  0  0  0  0
    9.6795    3.9958    9.4688 C   0  0  0  0  0  0  0  0  0  0  0  0
    9.7746    4.5381    8.6832 H   0  0  0  0  0  0  0  0  0  0  0  0
   10.5455    3.8201    9.8428 H   0  0  0  0  0  0  0  0  0  0  0  0
    9.1398    4.4583   10.1125 H   0  0  0  0  0  0  0  0  0  0  0  0
    8.1801    0.6971    9.9882 C   0  0  0  0  0  0  0  0  0  0  0  0
    8.6755    0.1580    9.3502 H   0  0  0  0  0  0  0  0  0  0  0  0
    7.3196    0.9151    9.5975 H   0  0  0  0  0  0  0  0  0  0  0  0
    7.9811   -0.0704   11.2486 C   0  0  0  0  0  0  0  0  0  0  0  0
    8.8353   -0.2785   11.6350 H   0  0  0  0  0  0  0  0  0  0  0  0
    7.5092   -0.8838   11.0572 H   0  0  0  0  0  0  0  0  0  0  0  0
    7.4709    0.4568   11.8681 H   0  0  0  0  0  0  0  0  0  0  0  0
    7.5857    4.1697   13.5044 B   0  0  0  0  0  0  0  0  0  0  0  0
    7.5453    3.9969   12.4297 H   0  0  0  0  0  0  0  0  0  0  0  0
    8.6286    4.5037   13.8225 H   0  0  0  0  0  0  0  0  0  0  0  0
    7.2353    3.2538   14.0557 H   0  0  0  0  0  0  0  0  0  0  0  0
    1.5960    3.3089   12.0459 B   0  0  0  0  0  0  0  0  0  0  0  0
    1.3659    2.5014   11.3451 H   0  0  0  0  0  0  0  0  0  0  0  0
    1.0095    4.2190   11.7972 H   0  0  0  0  0  0  0  0  0  0  0  0
    1.4054    2.9644   13.0846 H   0  0  0  0  0  0  0  0  0  0  0  0
    3.1885    7.8848   15.8120 B   0  0  0  0  0  0  0  0  0  0  0  0
    4.0594    8.4943   15.5214 H   0  0  0  0  0  0  0  0  0  0  0  0
    3.4674    7.1521   16.5980 H   0  0  0  0  0  0  0  0  0  0  0  0
    2.3270    8.5178   16.1073 H   0  0  0  0  0  0  0  0  0  0  0  0
   -1.1942    2.4028   12.7217 K   0  0  0  0  0  0  0  0  0  0  0  0
    3.8041   10.2244   17.6887 K   0  0  0  0  0  0  0  0  0  0  0  0
   12.4568    2.5014   11.3451 H   0  0  0  0  0  0  0  0  0  0  0  0
   12.1004    4.2190   11.7972 H   0  0  0  0  0  0  0  0  0  0  0  0
   12.4962    2.9644   13.0846 H   0  0  0  0  0  0  0  0  0  0  0  0
    9.6414    0.6727   14.8889 H   0  0  0  0  0  0  0  0  0  0  0  0
   11.3738    0.6961   14.3030 H   0  0  0  0  0  0  0  0  0  0  0  0
  1  3  1  0  0  0  0
  2  6  1  0  0  0  0
  3  7  1  0  0  0  0
  4  1  1  0  0  0  0
  5  1  1  0  0  0  0
  6 67  1  0  0  0  0
  7  8  1  0  0  0  0
  9  7  1  0  0  0  0
 10  9  1  0  0  0  0
 11  9  1  0  0  0  0
 12  9  1  0  0  0  0
 13  7  1  0  0  0  0
 14 13  1  0  0  0  0
 15 13  1  0  0  0  0
 16 13  1  0  0  0  0
 17  3  1  0  0  0  0
 18 17  1  0  0  0  0
 19 17  1  0  0  0  0
 20 19  1  0  0  0  0
 21 19  1  0  0  0  0
 22 19  1  0  0  0  0
 23 17  1  0  0  0  0
 24 23  1  0  0  0  0
 25 23  1  0  0  0  0
 26 23  1  0  0  0  0
 27  4  1  0  0  0  0
 28 27  1  0  0  0  0
 29 27  1  0  0  0  0
 30 29  1  0  0  0  0
 31 29  1  0  0  0  0
 32 29  1  0  0  0  0
 33 27  1  0  0  0  0
 34 33  1  0  0  0  0
 35 33  1  0  0  0  0
 36 33  1  0  0  0  0
 37  4  1  0  0  0  0
 38 37  1  0  0  0  0
 39 37  1  0  0  0  0
 40 39  1  0  0  0  0
 41 39  1  0  0  0  0
 42 39  1  0  0  0  0
 43 37  1  0  0  0  0
 44 43  1  0  0  0  0
 45 43  1  0  0  0  0
 46 43  1  0  0  0  0
 47  5  1  0  0  0  0
 48 47  1  0  0  0  0
 49 47  1  0  0  0  0
 50 49  1  0  0  0  0
 51 49  1  0  0  0  0
 52 49  1  0  0  0  0
 53 47  1  0  0  0  0
 54 53  1  0  0  0  0
 55 53  1  0  0  0  0
 56 53  1  0  0  0  0
 57  5  1  0  0  0  0
 58 57  1  0  0  0  0
 59 57  1  0  0  0  0
 60 59  1  0  0  0  0
 61 59  1  0  0  0  0
 62 59  1  0  0  0  0
 63 57  1  0  0  0  0
 64 63  1  0  0  0  0
 65 63  1  0  0  0  0
 66 63  1  0  0  0  0
 67 68  1  0  0  0  0
 69 67  1  0  0  0  0
 70 67  1  0  0  0  0
 71 70  1  0  0  0  0
 72 70  1  0  0  0  0
 73 70  1  0  0  0  0
 74  6  1  0  0  0  0
 75 74  1  0  0  0  0
 76 74  1  0  0  0  0
 77 74  1  0  0  0  0
 78 77  1  0  0  0  0
 79 77  1  0  0  0  0
 80 77  1  0  0  0  0
 81  3  1  0  0  0  0
 82  2  1  0  0  0  0
 83  2  1  0  0  0  0
 84  2  1  0  0  0  0
 85  4  1  0  0  0  0
 86 85  1  0  0  0  0
 87 85  1  0  0  0  0
 88 85  1  0  0  0  0
 89  5  1  0  0  0  0
 90 89  1  0  0  0  0
 91 89  1  0  0  0  0
 92 89  1  0  0  0  0
 93 86  8  0  0  0  0
 94 90  8  0  0  0  0
 95  2  8  0  0  0  0
 96  2  8  0  0  0  0
 97  2  8  0  0  0  0
 98  2  8  0  0  0  0
 99  2  8  0  0  0  0
 81 82  1  0  0  0  0
 81 83  1  0  0  0  0
 81 84  1  0  0  0  0
 87 93  8  0  0  0  0
 88 93  8  0  0  0  0
 92 94  8  0  0  0  0
M  END
$$$$
XEVFAJ

From CSD data. Using bond type 'Any'. No disordered atoms. Largest molecule.
116119  0  0  0  0  0  0  0  0999 V2000
   -1.3172   12.4960   13.4232 Sn  0  0  0  0  0  0  0  0  0  0  0  0
   -0.6773   11.3178   11.1550 P   0  0  0  0  0  0  0  0  0  0  0  0
   -3.3161   11.0541   14.3171 P   0  0  0  0  0  0  0  0  0  0  0  0
   -2.4256   14.7517   12.6688 P   0  0  0  0  0  0  0  0  0  0  0  0
    3.1077   13.5425    8.8340 O   0  0  0  0  0  0  0  0  0  0  0  0
    0.8518   15.2357    7.7534 O   0  0  0  0  0  0  0  0  0  0  0  0
    1.3644   12.6175    6.3623 O   0  0  0  0  0  0  0  0  0  0  0  0
    0.9498   10.5574   11.6529 C   0  0  0  0  0  0  0  0  0  0  0  0
    1.2925   10.0811   10.8678 H   0  0  0  0  0  0  0  0  0  0  0  0
    1.9699   11.6272   11.9995 C   0  0  0  0  0  0  0  0  0  0  0  0
    2.0490   12.2428   11.2671 H   0  0  0  0  0  0  0  0  0  0  0  0
    2.8218   11.2168   12.1641 H   0  0  0  0  0  0  0  0  0  0  0  0
    1.6855   12.0986   12.7847 H   0  0  0  0  0  0  0  0  0  0  0  0
    0.8043    9.5312   12.7656 C   0  0  0  0  0  0  0  0  0  0  0  0
    0.4245    9.9511   13.5402 H   0  0  0  0  0  0  0  0  0  0  0  0
    1.6668    9.1730   12.9861 H   0  0  0  0  0  0  0  0  0  0  0  0
    0.2276    8.8215   12.4719 H   0  0  0  0  0  0  0  0  0  0  0  0
   -1.6769    9.8493   10.6213 C   0  0  0  0  0  0  0  0  0  0  0  0
   -1.7866    9.2603   11.3969 H   0  0  0  0  0  0  0  0  0  0  0  0
   -3.0570   10.2857   10.1629 C   0  0  0  0  0  0  0  0  0  0  0  0
   -3.5025   10.7414   10.8794 H   0  0  0  0  0  0  0  0  0  0  0  0
   -3.5683    9.5143    9.9076 H   0  0  0  0  0  0  0  0  0  0  0  0
   -2.9736   10.8776    9.4118 H   0  0  0  0  0  0  0  0  0  0  0  0
   -0.9593    9.0608    9.5251 C   0  0  0  0  0  0  0  0  0  0  0  0
   -0.7325    9.6504    8.8027 H   0  0  0  0  0  0  0  0  0  0  0  0
   -1.5365    8.3644    9.2021 H   0  0  0  0  0  0  0  0  0  0  0  0
   -0.1578    8.6712    9.8827 H   0  0  0  0  0  0  0  0  0  0  0  0
   -2.9756   11.1500   16.1451 C   0  0  0  0  0  0  0  0  0  0  0  0
   -3.6536   10.6012   16.5904 H   0  0  0  0  0  0  0  0  0  0  0  0
   -1.6177   10.5348   16.4804 C   0  0  0  0  0  0  0  0  0  0  0  0
   -1.5561    9.6606   16.0895 H   0  0  0  0  0  0  0  0  0  0  0  0
   -1.5230   10.4672   17.4340 H   0  0  0  0  0  0  0  0  0  0  0  0
   -0.9181   11.0909   16.1294 H   0  0  0  0  0  0  0  0  0  0  0  0
   -3.0946   12.5577   16.7178 C   0  0  0  0  0  0  0  0  0  0  0  0
   -2.4549   13.1327   16.2925 H   0  0  0  0  0  0  0  0  0  0  0  0
   -2.9258   12.5354   17.6620 H   0  0  0  0  0  0  0  0  0  0  0  0
   -3.9801   12.8930   16.5604 H   0  0  0  0  0  0  0  0  0  0  0  0
   -5.0172   11.7825   14.1599 C   0  0  0  0  0  0  0  0  0  0  0  0
   -4.9741   12.7203   14.4438 H   0  0  0  0  0  0  0  0  0  0  0  0
   -6.0131   11.0598   15.0595 C   0  0  0  0  0  0  0  0  0  0  0  0
   -5.9962   10.1197   14.8664 H   0  0  0  0  0  0  0  0  0  0  0  0
   -6.8965   11.4017   14.8997 H   0  0  0  0  0  0  0  0  0  0  0  0
   -5.7766   11.2026   15.9780 H   0  0  0  0  0  0  0  0  0  0  0  0
   -5.4879   11.7465   12.7155 C   0  0  0  0  0  0  0  0  0  0  0  0
   -4.8698   12.2327   12.1657 H   0  0  0  0  0  0  0  0  0  0  0  0
   -6.3565   12.1473   12.6516 H   0  0  0  0  0  0  0  0  0  0  0  0
   -5.5331   10.8349   12.4170 H   0  0  0  0  0  0  0  0  0  0  0  0
   -1.0385   15.9086   13.1187 C   0  0  0  0  0  0  0  0  0  0  0  0
   -1.3470   16.8141   12.9062 H   0  0  0  0  0  0  0  0  0  0  0  0
   -0.7752   15.8746   14.6215 C   0  0  0  0  0  0  0  0  0  0  0  0
   -1.5904   16.0583   15.0928 H   0  0  0  0  0  0  0  0  0  0  0  0
   -0.1189   16.5378   14.8465 H   0  0  0  0  0  0  0  0  0  0  0  0
   -0.4512   15.0059   14.8698 H   0  0  0  0  0  0  0  0  0  0  0  0
    0.2398   15.6841   12.3291 C   0  0  0  0  0  0  0  0  0  0  0  0
    0.5903   14.8129   12.5285 H   0  0  0  0  0  0  0  0  0  0  0  0
    0.8872   16.3509   12.5717 H   0  0  0  0  0  0  0  0  0  0  0  0
    0.0517   15.7475   11.3903 H   0  0  0  0  0  0  0  0  0  0  0  0
   -2.6334   15.0106   10.8422 C   0  0  0  0  0  0  0  0  0  0  0  0
   -1.7887   14.7723   10.4068 H   0  0  0  0  0  0  0  0  0  0  0  0
   -2.9339   16.4750   10.5132 C   0  0  0  0  0  0  0  0  0  0  0  0
   -3.7287   16.7511   10.9759 H   0  0  0  0  0  0  0  0  0  0  0  0
   -3.0658   16.5703    9.5665 H   0  0  0  0  0  0  0  0  0  0  0  0
   -2.1959   17.0233   10.7896 H   0  0  0  0  0  0  0  0  0  0  0  0
   -3.7164   14.1042   10.2875 C   0  0  0  0  0  0  0  0  0  0  0  0
   -3.4956   13.1896   10.4751 H   0  0  0  0  0  0  0  0  0  0  0  0
   -3.7843   14.2298    9.3385 H   0  0  0  0  0  0  0  0  0  0  0  0
   -4.5567   14.3212   10.6980 H   0  0  0  0  0  0  0  0  0  0  0  0
    1.5622   15.9226    6.6994 C   0  0  0  0  0  0  0  0  0  0  0  0
    2.0097   15.2924    6.1136 H   0  0  0  0  0  0  0  0  0  0  0  0
    2.2198   16.5357    7.0638 H   0  0  0  0  0  0  0  0  0  0  0  0
    0.4754   16.6660    5.9667 C   0  0  0  0  0  0  0  0  0  0  0  0
    0.8336   17.4236    5.4763 H   0  0  0  0  0  0  0  0  0  0  0  0
    0.0002   16.0847    5.3532 H   0  0  0  0  0  0  0  0  0  0  0  0
   -0.4103   17.1123    7.0988 C   0  0  0  0  0  0  0  0  0  0  0  0
   -1.3285   17.2143    6.8026 H   0  0  0  0  0  0  0  0  0  0  0  0
   -0.1025   17.9539    7.4698 H   0  0  0  0  0  0  0  0  0  0  0  0
   -0.2909   15.9996    8.1105 C   0  0  0  0  0  0  0  0  0  0  0  0
   -0.1849   16.3651    9.0024 H   0  0  0  0  0  0  0  0  0  0  0  0
   -1.0855   15.4447    8.0955 H   0  0  0  0  0  0  0  0  0  0  0  0
    0.1623   12.5476    5.5861 C   0  0  0  0  0  0  0  0  0  0  0  0
   -0.5009   13.1713    5.9223 H   0  0  0  0  0  0  0  0  0  0  0  0
   -0.2103   11.6516    5.6111 H   0  0  0  0  0  0  0  0  0  0  0  0
    0.5796   12.9133    4.1934 C   0  0  0  0  0  0  0  0  0  0  0  0
   -0.0155   12.5232    3.5344 H   0  0  0  0  0  0  0  0  0  0  0  0
    0.6009   13.8743    4.0735 H   0  0  0  0  0  0  0  0  0  0  0  0
    1.9538   12.3261    4.0952 C   0  0  0  0  0  0  0  0  0  0  0  0
    2.5366   12.9052    3.5810 H   0  0  0  0  0  0  0  0  0  0  0  0
    1.9233   11.4566    3.6675 H   0  0  0  0  0  0  0  0  0  0  0  0
    2.4460   12.2002    5.5078 C   0  0  0  0  0  0  0  0  0  0  0  0
    2.6926   11.2819    5.6993 H   0  0  0  0  0  0  0  0  0  0  0  0
    3.2218   12.7650    5.6461 H   0  0  0  0  0  0  0  0  0  0  0  0
   -0.2965   12.4257    9.5888 B   0  0  0  0  0  0  0  0  0  0  0  0
    0.2597   13.3216    9.8910 H   0  0  0  0  0  0  0  0  0  0  0  0
    0.4311   11.8324    9.0107 H   0  0  0  0  0  0  0  0  0  0  0  0
   -1.2263   12.6654    8.9974 H   0  0  0  0  0  0  0  0  0  0  0  0
   -3.3381    9.1492   13.8714 B   0  0  0  0  0  0  0  0  0  0  0  0
   -3.8912    8.6529   14.7200 H   0  0  0  0  0  0  0  0  0  0  0  0
   -3.7874    8.9820   12.8663 H   0  0  0  0  0  0  0  0  0  0  0  0
   -2.2448    8.8296   13.8431 H   0  0  0  0  0  0  0  0  0  0  0  0
   -4.0142   15.3700   13.6294 B   0  0  0  0  0  0  0  0  0  0  0  0
   -4.0081   16.4403   13.5752 H   0  0  0  0  0  0  0  0  0  0  0  0
   -3.9701   15.0201   14.6984 H   0  0  0  0  0  0  0  0  0  0  0  0
   -4.8609   14.9998   13.1575 H   0  0  0  0  0  0  0  0  0  0  0  0
    1.3240   13.4110    8.1488 Li  0  0  0  0  0  0  0  0  0  0  0  0
    3.4459   14.6118    9.7496 C   0  0  0  0  0  0  0  0  0  0  0  0
    2.9222   14.5508   10.5649 H   0  0  0  0  0  0  0  0  0  0  0  0
    3.2965   15.4793    9.3419 H   0  0  0  0  0  0  0  0  0  0  0  0
    4.9258   14.3883   10.0324 C   0  0  0  0  0  0  0  0  0  0  0  0
    5.1382   14.5996   10.9560 H   0  0  0  0  0  0  0  0  0  0  0  0
    5.4764   14.9348    9.4500 H   0  0  0  0  0  0  0  0  0  0  0  0
    5.1372   12.8828    9.7446 C   0  0  0  0  0  0  0  0  0  0  0  0
    6.0581   12.6857    9.5183 H   0  0  0  0  0  0  0  0  0  0  0  0
    4.8649   12.3322   10.4967 H   0  0  0  0  0  0  0  0  0  0  0  0
    4.2167   12.7020    8.5581 C   0  0  0  0  0  0  0  0  0  0  0  0
    4.6578   12.9702    7.7377 H   0  0  0  0  0  0  0  0  0  0  0  0
    3.9363   11.7776    8.4766 H   0  0  0  0  0  0  0  0  0  0  0  0
  1  2  1  0  0  0  0
  2  8  1  0  0  0  0
  3  1  1  0  0  0  0
  4  1  1  0  0  0  0
  5104  1  0  0  0  0
  6 68  1  0  0  0  0
  7 80  1  0  0  0  0
  8  9  1  0  0  0  0
 10  8  1  0  0  0  0
 11 10  1  0  0  0  0
 12 10  1  0  0  0  0
 13 10  1  0  0  0  0
 14  8  1  0  0  0  0
 15 14  1  0  0  0  0
 16 14  1  0  0  0  0
 17 14  1  0  0  0  0
 18  2  1  0  0  0  0
 19 18  1  0  0  0  0
 20 18  1  0  0  0  0
 21 20  1  0  0  0  0
 22 20  1  0  0  0  0
 23 20  1  0  0  0  0
 24 18  1  0  0  0  0
 25 24  1  0  0  0  0
 26 24  1  0  0  0  0
 27 24  1  0  0  0  0
 28  3  1  0  0  0  0
 29 28  1  0  0  0  0
 30 28  1  0  0  0  0
 31 30  1  0  0  0  0
 32 30  1  0  0  0  0
 33 30  1  0  0  0  0
 34 28  1  0  0  0  0
 35 34  1  0  0  0  0
 36 34  1  0  0  0  0
 37 34  1  0  0  0  0
 38  3  1  0  0  0  0
 39 38  1  0  0  0  0
 40 38  1  0  0  0  0
 41 40  1  0  0  0  0
 42 40  1  0  0  0  0
 43 40  1  0  0  0  0
 44 38  1  0  0  0  0
 45 44  1  0  0  0  0
 46 44  1  0  0  0  0
 47 44  1  0  0  0  0
 48  4  1  0  0  0  0
 49 48  1  0  0  0  0
 50 48  1  0  0  0  0
 51 50  1  0  0  0  0
 52 50  1  0  0  0  0
 53 50  1  0  0  0  0
 54 48  1  0  0  0  0
 55 54  1  0  0  0  0
 56 54  1  0  0  0  0
 57 54  1  0  0  0  0
 58  4  1  0  0  0  0
 59 58  1  0  0  0  0
 60 58  1  0  0  0  0
 61 60  1  0  0  0  0
 62 60  1  0  0  0  0
 63 60  1  0  0  0  0
 64 58  1  0  0  0  0
 65 64  1  0  0  0  0
 66 64  1  0  0  0  0
 67 64  1  0  0  0  0
 68 69  1  0  0  0  0
 70 68  1  0  0  0  0
 71 68  1  0  0  0  0
 72 71  1  0  0  0  0
 73 71  1  0  0  0  0
 74 71  1  0  0  0  0
 75 74  1  0  0  0  0
 76 74  1  0  0  0  0
 77  6  1  0  0  0  0
 78 77  1  0  0  0  0
 79 77  1  0  0  0  0
 80 81  1  0  0  0  0
 82 80  1  0  0  0  0
 83 80  1  0  0  0  0
 84 83  1  0  0  0  0
 85 83  1  0  0  0  0
 86 83  1  0  0  0  0
 87 86  1  0  0  0  0
 88 86  1  0  0  0  0
 89  7  1  0  0  0  0
 90 89  1  0  0  0  0
 91 89  1  0  0  0  0
 92  2  1  0  0  0  0
 93 92  1  0  0  0  0
 94 92  1  0  0  0  0
 95 92  1  0  0  0  0
 96  3  1  0  0  0  0
 97 96  1  0  0  0  0
 98 96  1  0  0  0  0
 99 96  1  0  0  0  0
100  4  1  0  0  0  0
101100  1  0  0  0  0
102100  1  0  0  0  0
103100  1  0  0  0  0
104  6  1  0  0  0  0
105  5  1  0  0  0  0
106105  1  0  0  0  0
107105  1  0  0  0  0
108105  1  0  0  0  0
109108  1  0  0  0  0
110108  1  0  0  0  0
111108  1  0  0  0  0
112111  1  0  0  0  0
113111  1  0  0  0  0
114  5  1  0  0  0  0
115114  1  0  0  0  0
116114  1  0  0  0  0
  7104  1  0  0  0  0
 74 77  1  0  0  0  0
 86 89  1  0  0  0  0
 93104  1  0  0  0  0
 94104  1  0  0  0  0
111114  1  0  0  0  0
M  END
$$$$
XEVFEN

From CSD data. Using bond type 'Any'. No disordered atoms. Largest molecule.
222246  0  0  0  0  0  0  0  0999 V2000
   13.7522    4.6610   13.3414 Sn  0  0  0  0  0  0  0  0  0  0  0  0
   11.9191    3.1806    8.5164 K   0  0  0  0  0  0  0  0  0  0  0  0
   12.1917    6.2956   11.9794 P   0  0  0  0  0  0  0  0  0  0  0  0
   15.4363    4.2202   11.3531 P   0  0  0  0  0  0  0  0  0  0  0  0
   12.3097    2.4651   13.0312 P   0  0  0  0  0  0  0  0  0  0  0  0
    9.2334    2.8740    8.4718 O   0  0  0  0  0  0  0  0  0  0  0  0
   13.0387    7.9113   12.0703 C   0  0  0  0  0  0  0  0  0  0  0  0
   13.0760    8.7200   10.9462 C   0  0  0  0  0  0  0  0  0  0  0  0
   12.6844    8.4207   10.1335 H   0  0  0  0  0  0  0  0  0  0  0  0
   13.6809    9.9632   11.0015 C   0  0  0  0  0  0  0  0  0  0  0  0
   13.6975   10.5107   10.2252 H   0  0  0  0  0  0  0  0  0  0  0  0
   14.2562   10.4153   12.1573 C   0  0  0  0  0  0  0  0  0  0  0  0
   14.6465   11.2814   12.1873 H   0  0  0  0  0  0  0  0  0  0  0  0
   14.2683    9.6159   13.2704 C   0  0  0  0  0  0  0  0  0  0  0  0
   14.6830    9.9188   14.0689 H   0  0  0  0  0  0  0  0  0  0  0  0
   13.6731    8.3656   13.2274 C   0  0  0  0  0  0  0  0  0  0  0  0
   13.6953    7.8091   13.9977 H   0  0  0  0  0  0  0  0  0  0  0  0
   10.7239    6.5378   13.0560 C   0  0  0  0  0  0  0  0  0  0  0  0
   10.8288    7.0348   14.3472 C   0  0  0  0  0  0  0  0  0  0  0  0
   11.6848    7.2870   14.6745 H   0  0  0  0  0  0  0  0  0  0  0  0
    9.7304    7.1754   15.1741 C   0  0  0  0  0  0  0  0  0  0  0  0
    9.8295    7.5090   16.0579 H   0  0  0  0  0  0  0  0  0  0  0  0
    8.5014    6.8249   14.6966 C   0  0  0  0  0  0  0  0  0  0  0  0
    7.7383    6.9200   15.2547 H   0  0  0  0  0  0  0  0  0  0  0  0
    8.3559    6.3456   13.4443 C   0  0  0  0  0  0  0  0  0  0  0  0
    7.4914    6.1139   13.1249 H   0  0  0  0  0  0  0  0  0  0  0  0
    9.4821    6.1869   12.6063 C   0  0  0  0  0  0  0  0  0  0  0  0
    9.3757    5.8349   11.7304 H   0  0  0  0  0  0  0  0  0  0  0  0
   11.0301    2.5149   14.3451 C   0  0  0  0  0  0  0  0  0  0  0  0
   10.3041    1.3552   14.6065 C   0  0  0  0  0  0  0  0  0  0  0  0
   10.4929    0.5624   14.1179 H   0  0  0  0  0  0  0  0  0  0  0  0
    9.3080    1.3457   15.5725 C   0  0  0  0  0  0  0  0  0  0  0  0
    8.8246    0.5463   15.7480 H   0  0  0  0  0  0  0  0  0  0  0  0
    9.0213    2.4846   16.2698 C   0  0  0  0  0  0  0  0  0  0  0  0
    8.3329    2.4781   16.9244 H   0  0  0  0  0  0  0  0  0  0  0  0
    9.7238    3.6315   16.0295 C   0  0  0  0  0  0  0  0  0  0  0  0
    9.5193    4.4220   16.5149 H   0  0  0  0  0  0  0  0  0  0  0  0
   10.7375    3.6477   15.0743 C   0  0  0  0  0  0  0  0  0  0  0  0
   11.2308    4.4456   14.9243 H   0  0  0  0  0  0  0  0  0  0  0  0
   13.4238    1.1904   13.7171 C   0  0  0  0  0  0  0  0  0  0  0  0
   14.0020    1.3812   14.9679 C   0  0  0  0  0  0  0  0  0  0  0  0
   13.8463    2.1924   15.4366 H   0  0  0  0  0  0  0  0  0  0  0  0
   14.7988    0.4078   15.5362 C   0  0  0  0  0  0  0  0  0  0  0  0
   15.1752    0.5433   16.3979 H   0  0  0  0  0  0  0  0  0  0  0  0
   15.0454   -0.7564   14.8547 C   0  0  0  0  0  0  0  0  0  0  0  0
   15.5992   -1.4218   15.2437 H   0  0  0  0  0  0  0  0  0  0  0  0
   14.5026   -0.9646   13.6246 C   0  0  0  0  0  0  0  0  0  0  0  0
   14.6789   -1.7760   13.1629 H   0  0  0  0  0  0  0  0  0  0  0  0
   13.6869    0.0045   13.0364 C   0  0  0  0  0  0  0  0  0  0  0  0
   13.3127   -0.1447   12.1763 H   0  0  0  0  0  0  0  0  0  0  0  0
   16.7522    3.2699   12.2041 C   0  0  0  0  0  0  0  0  0  0  0  0
   16.6434    1.8919   12.2506 C   0  0  0  0  0  0  0  0  0  0  0  0
   15.8885    1.4661   11.8600 H   0  0  0  0  0  0  0  0  0  0  0  0
   17.6293    1.1231   12.8625 C   0  0  0  0  0  0  0  0  0  0  0  0
   17.5418    0.1775   12.8909 H   0  0  0  0  0  0  0  0  0  0  0  0
   18.7200    1.7188   13.4254 C   0  0  0  0  0  0  0  0  0  0  0  0
   19.3885    1.1898   13.8428 H   0  0  0  0  0  0  0  0  0  0  0  0
   18.8453    3.0751   13.3843 C   0  0  0  0  0  0  0  0  0  0  0  0
   19.6074    3.4883   13.7748 H   0  0  0  0  0  0  0  0  0  0  0  0
   17.8699    3.8586   12.7787 C   0  0  0  0  0  0  0  0  0  0  0  0
   17.9700    4.8041   12.7597 H   0  0  0  0  0  0  0  0  0  0  0  0
   16.2122    5.8441   11.0431 C   0  0  0  0  0  0  0  0  0  0  0  0
   16.3238    6.8173   12.0229 C   0  0  0  0  0  0  0  0  0  0  0  0
   15.9864    6.6415   12.8941 H   0  0  0  0  0  0  0  0  0  0  0  0
   16.9187    8.0397   11.7636 C   0  0  0  0  0  0  0  0  0  0  0  0
   16.9884    8.6907   12.4530 H   0  0  0  0  0  0  0  0  0  0  0  0
   17.3997    8.3048   10.5272 C   0  0  0  0  0  0  0  0  0  0  0  0
   17.8007    9.1465   10.3453 H   0  0  0  0  0  0  0  0  0  0  0  0
   17.3107    7.3570    9.5310 C   0  0  0  0  0  0  0  0  0  0  0  0
   17.6566    7.5452    8.6677 H   0  0  0  0  0  0  0  0  0  0  0  0
   16.7200    6.1347    9.7824 C   0  0  0  0  0  0  0  0  0  0  0  0
   16.6605    5.4883    9.0899 H   0  0  0  0  0  0  0  0  0  0  0  0
    8.4916    1.8473    9.1041 C   0  0  0  0  0  0  0  0  0  0  0  0
    9.0906    1.2577    9.6275 H   0  0  0  0  0  0  0  0  0  0  0  0
    8.0148    1.2987    8.4322 H   0  0  0  0  0  0  0  0  0  0  0  0
    7.5293    2.5275    9.9943 C   0  0  0  0  0  0  0  0  0  0  0  0
    6.6367    2.1067    9.9168 H   0  0  0  0  0  0  0  0  0  0  0  0
    7.8280    2.4602   10.9351 H   0  0  0  0  0  0  0  0  0  0  0  0
    7.4660    3.8886    9.5959 C   0  0  0  0  0  0  0  0  0  0  0  0
    7.7004    4.4805   10.3548 H   0  0  0  0  0  0  0  0  0  0  0  0
    6.5524    4.1151    9.2875 H   0  0  0  0  0  0  0  0  0  0  0  0
    8.4365    4.0561    8.4954 C   0  0  0  0  0  0  0  0  0  0  0  0
    7.9624    4.1703    7.6321 H   0  0  0  0  0  0  0  0  0  0  0  0
    9.0035    4.8522    8.6519 H   0  0  0  0  0  0  0  0  0  0  0  0
   11.6155    5.9197   10.1698 B   0  0  0  0  0  0  0  0  0  0  0  0
   10.9824    4.9946   10.1983 H   0  0  0  0  0  0  0  0  0  0  0  0
   10.9647    6.8019    9.7714 H   0  0  0  0  0  0  0  0  0  0  0  0
   12.5285    5.8242    9.5500 H   0  0  0  0  0  0  0  0  0  0  0  0
   15.0569    3.3382    9.6544 B   0  0  0  0  0  0  0  0  0  0  0  0
   16.0670    3.1379    9.2022 H   0  0  0  0  0  0  0  0  0  0  0  0
   14.5152    2.3534    9.8821 H   0  0  0  0  0  0  0  0  0  0  0  0
   14.4539    4.0634    9.0599 H   0  0  0  0  0  0  0  0  0  0  0  0
   11.4909    1.7823   11.4094 B   0  0  0  0  0  0  0  0  0  0  0  0
   11.0720    0.7788   11.6687 H   0  0  0  0  0  0  0  0  0  0  0  0
   10.7581    2.5312   11.0837 H   0  0  0  0  0  0  0  0  0  0  0  0
   12.3217    1.5789   10.6726 H   0  0  0  0  0  0  0  0  0  0  0  0
   12.7182    1.2514    6.7751 O   0  0  0  0  0  0  0  0  0  0  0  0
   12.1791   -0.0564    6.7672 C   0  0  0  0  0  0  0  0  0  0  0  0
   12.9061   -0.7277    6.7483 H   0  0  0  0  0  0  0  0  0  0  0  0
   11.6093   -0.1871    5.9688 H   0  0  0  0  0  0  0  0  0  0  0  0
   11.3736   -0.2006    8.0037 C   0  0  0  0  0  0  0  0  0  0  0  0
   11.0553   -1.1252    8.0796 H   0  0  0  0  0  0  0  0  0  0  0  0
   10.6056    0.4065    7.9657 H   0  0  0  0  0  0  0  0  0  0  0  0
   11.9265    0.0193    8.7816 H   0  0  0  0  0  0  0  0  0  0  0  0
   13.4756    1.4779    5.6114 C   0  0  0  0  0  0  0  0  0  0  0  0
   12.8830    1.5933    4.8272 H   0  0  0  0  0  0  0  0  0  0  0  0
   14.0881    0.7196    5.4407 H   0  0  0  0  0  0  0  0  0  0  0  0
   14.2544    2.7399    5.8818 C   0  0  0  0  0  0  0  0  0  0  0  0
   14.8691    2.9095    5.1371 H   0  0  0  0  0  0  0  0  0  0  0  0
   14.7654    2.6376    6.7103 H   0  0  0  0  0  0  0  0  0  0  0  0
   13.6338    3.4936    5.9703 H   0  0  0  0  0  0  0  0  0  0  0  0
    8.8084    6.5297    2.4699 Sn  0  0  0  0  0  0  0  0  0  0  0  0
   10.6415    8.0101    7.2949 K   0  0  0  0  0  0  0  0  0  0  0  0
   10.3689    4.8952    3.8319 P   0  0  0  0  0  0  0  0  0  0  0  0
    7.1243    6.9706    4.4582 P   0  0  0  0  0  0  0  0  0  0  0  0
   10.2508    8.7256    2.7801 P   0  0  0  0  0  0  0  0  0  0  0  0
   13.3271    8.3167    7.3394 O   0  0  0  0  0  0  0  0  0  0  0  0
    9.5219    3.2794    3.7410 C   0  0  0  0  0  0  0  0  0  0  0  0
    9.4845    2.4708    4.8651 C   0  0  0  0  0  0  0  0  0  0  0  0
    9.8762    2.7700    5.6778 H   0  0  0  0  0  0  0  0  0  0  0  0
    8.8796    1.2275    4.8098 C   0  0  0  0  0  0  0  0  0  0  0  0
    8.8631    0.6801    5.5861 H   0  0  0  0  0  0  0  0  0  0  0  0
    8.3044    0.7755    3.6540 C   0  0  0  0  0  0  0  0  0  0  0  0
    7.9141   -0.0907    3.6239 H   0  0  0  0  0  0  0  0  0  0  0  0
    8.2923    1.5749    2.5409 C   0  0  0  0  0  0  0  0  0  0  0  0
    7.8775    1.2720    1.7424 H   0  0  0  0  0  0  0  0  0  0  0  0
    8.8875    2.8251    2.5839 C   0  0  0  0  0  0  0  0  0  0  0  0
    8.8652    3.3816    1.8136 H   0  0  0  0  0  0  0  0  0  0  0  0
   11.8367    4.6529    2.7553 C   0  0  0  0  0  0  0  0  0  0  0  0
   11.7317    4.1560    1.4641 C   0  0  0  0  0  0  0  0  0  0  0  0
   10.8758    3.9038    1.1368 H   0  0  0  0  0  0  0  0  0  0  0  0
   12.8302    4.0154    0.6372 C   0  0  0  0  0  0  0  0  0  0  0  0
   12.7311    3.6817   -0.2467 H   0  0  0  0  0  0  0  0  0  0  0  0
   14.0592    4.3659    1.1147 C   0  0  0  0  0  0  0  0  0  0  0  0
   14.8223    4.2707    0.5566 H   0  0  0  0  0  0  0  0  0  0  0  0
   14.2046    4.8451    2.3669 C   0  0  0  0  0  0  0  0  0  0  0  0
   15.0692    5.0769    2.6863 H   0  0  0  0  0  0  0  0  0  0  0  0
   13.0784    5.0038    3.2049 C   0  0  0  0  0  0  0  0  0  0  0  0
   13.1849    5.3558    4.0809 H   0  0  0  0  0  0  0  0  0  0  0  0
   11.5304    8.6758    1.4662 C   0  0  0  0  0  0  0  0  0  0  0  0
   12.2564    9.8355    1.2048 C   0  0  0  0  0  0  0  0  0  0  0  0
   12.0677   10.6283    1.6934 H   0  0  0  0  0  0  0  0  0  0  0  0
   13.2525    9.8451    0.2388 C   0  0  0  0  0  0  0  0  0  0  0  0
   13.7360   10.6444    0.0632 H   0  0  0  0  0  0  0  0  0  0  0  0
   13.5392    8.7062   -0.4585 C   0  0  0  0  0  0  0  0  0  0  0  0
   14.2277    8.7126   -1.1131 H   0  0  0  0  0  0  0  0  0  0  0  0
   12.8368    7.5593   -0.2182 C   0  0  0  0  0  0  0  0  0  0  0  0
   13.0413    6.7688   -0.7036 H   0  0  0  0  0  0  0  0  0  0  0  0
   11.8230    7.5431    0.7370 C   0  0  0  0  0  0  0  0  0  0  0  0
   11.3298    6.7452    0.8870 H   0  0  0  0  0  0  0  0  0  0  0  0
    9.1367   10.0004    2.0942 C   0  0  0  0  0  0  0  0  0  0  0  0
    8.5586    9.8096    0.8434 C   0  0  0  0  0  0  0  0  0  0  0  0
    8.7142    8.9983    0.3747 H   0  0  0  0  0  0  0  0  0  0  0  0
    7.7617   10.7830    0.2751 C   0  0  0  0  0  0  0  0  0  0  0  0
    7.3854   10.6474   -0.5866 H   0  0  0  0  0  0  0  0  0  0  0  0
    7.5152   11.9472    0.9566 C   0  0  0  0  0  0  0  0  0  0  0  0
    6.9614   12.6126    0.5676 H   0  0  0  0  0  0  0  0  0  0  0  0
    8.0580   12.1553    2.1867 C   0  0  0  0  0  0  0  0  0  0  0  0
    7.8817   12.9667    2.6484 H   0  0  0  0  0  0  0  0  0  0  0  0
    8.8737   11.1862    2.7749 C   0  0  0  0  0  0  0  0  0  0  0  0
    9.2479   11.3355    3.6350 H   0  0  0  0  0  0  0  0  0  0  0  0
    5.8084    7.9208    3.6072 C   0  0  0  0  0  0  0  0  0  0  0  0
    5.9172    9.2989    3.5607 C   0  0  0  0  0  0  0  0  0  0  0  0
    6.6720    9.7247    3.9512 H   0  0  0  0  0  0  0  0  0  0  0  0
    4.9312   10.0676    2.9488 C   0  0  0  0  0  0  0  0  0  0  0  0
    5.0188   11.0133    2.9203 H   0  0  0  0  0  0  0  0  0  0  0  0
    3.8405    9.4720    2.3859 C   0  0  0  0  0  0  0  0  0  0  0  0
    3.1721   10.0009    1.9685 H   0  0  0  0  0  0  0  0  0  0  0  0
    3.7153    8.1157    2.4270 C   0  0  0  0  0  0  0  0  0  0  0  0
    2.9531    7.7024    2.0365 H   0  0  0  0  0  0  0  0  0  0  0  0
    4.6906    7.3322    3.0326 C   0  0  0  0  0  0  0  0  0  0  0  0
    4.5906    6.3867    3.0516 H   0  0  0  0  0  0  0  0  0  0  0  0
    6.3484    5.3466    4.7682 C   0  0  0  0  0  0  0  0  0  0  0  0
    6.2368    4.3734    3.7884 C   0  0  0  0  0  0  0  0  0  0  0  0
    6.5741    4.5493    2.9172 H   0  0  0  0  0  0  0  0  0  0  0  0
    5.6419    3.1510    4.0477 C   0  0  0  0  0  0  0  0  0  0  0  0
    5.5722    2.5001    3.3583 H   0  0  0  0  0  0  0  0  0  0  0  0
    5.1608    2.8859    5.2841 C   0  0  0  0  0  0  0  0  0  0  0  0
    4.7599    2.0443    5.4660 H   0  0  0  0  0  0  0  0  0  0  0  0
    5.2499    3.8338    6.2802 C   0  0  0  0  0  0  0  0  0  0  0  0
    4.9040    3.6455    7.1435 H   0  0  0  0  0  0  0  0  0  0  0  0
    5.8406    5.0561    6.0288 C   0  0  0  0  0  0  0  0  0  0  0  0
    5.9001    5.7024    6.7214 H   0  0  0  0  0  0  0  0  0  0  0  0
   14.0690    9.3434    6.7071 C   0  0  0  0  0  0  0  0  0  0  0  0
   13.4700    9.9331    6.1838 H   0  0  0  0  0  0  0  0  0  0  0  0
   14.5457    9.8920    7.3791 H   0  0  0  0  0  0  0  0  0  0  0  0
   15.0313    8.6632    5.8170 C   0  0  0  0  0  0  0  0  0  0  0  0
   15.9239    9.0841    5.8944 H   0  0  0  0  0  0  0  0  0  0  0  0
   14.7326    8.7305    4.8762 H   0  0  0  0  0  0  0  0  0  0  0  0
   15.0946    7.3021    6.2154 C   0  0  0  0  0  0  0  0  0  0  0  0
   14.8601    6.7102    5.4565 H   0  0  0  0  0  0  0  0  0  0  0  0
   16.0081    7.0757    6.5237 H   0  0  0  0  0  0  0  0  0  0  0  0
   14.1240    7.1346    7.3159 C   0  0  0  0  0  0  0  0  0  0  0  0
   14.5982    7.0204    8.1792 H   0  0  0  0  0  0  0  0  0  0  0  0
   13.5570    6.3385    7.1594 H   0  0  0  0  0  0  0  0  0  0  0  0
   10.9451    5.2711    5.6415 B   0  0  0  0  0  0  0  0  0  0  0  0
   11.5782    6.1962    5.6130 H   0  0  0  0  0  0  0  0  0  0  0  0
   11.5958    4.3889    6.0399 H   0  0  0  0  0  0  0  0  0  0  0  0
   10.0320    5.3665    6.2613 H   0  0  0  0  0  0  0  0  0  0  0  0
    7.5037    7.8525    6.1569 B   0  0  0  0  0  0  0  0  0  0  0  0
    6.4936    8.0528    6.6091 H   0  0  0  0  0  0  0  0  0  0  0  0
    8.0454    8.8373    5.9292 H   0  0  0  0  0  0  0  0  0  0  0  0
    8.1067    7.1273    6.7514 H   0  0  0  0  0  0  0  0  0  0  0  0
   11.0696    9.4085    4.4019 B   0  0  0  0  0  0  0  0  0  0  0  0
   11.4885   10.4119    4.1426 H   0  0  0  0  0  0  0  0  0  0  0  0
   11.8025    8.6596    4.7276 H   0  0  0  0  0  0  0  0  0  0  0  0
   10.2388    9.6118    5.1387 H   0  0  0  0  0  0  0  0  0  0  0  0
    9.8423    9.9394    9.0361 O   0  0  0  0  0  0  0  0  0  0  0  0
   10.3815   11.2471    9.0441 C   0  0  0  0  0  0  0  0  0  0  0  0
    9.6545   11.9185    9.0630 H   0  0  0  0  0  0  0  0  0  0  0  0
   10.9513   11.3778    9.8425 H   0  0  0  0  0  0  0  0  0  0  0  0
   11.1870   11.3914    7.8076 C   0  0  0  0  0  0  0  0  0  0  0  0
   11.5052   12.3160    7.7317 H   0  0  0  0  0  0  0  0  0  0  0  0
   11.9550   10.7843    7.8456 H   0  0  0  0  0  0  0  0  0  0  0  0
   10.6341   11.1715    7.0297 H   0  0  0  0  0  0  0  0  0  0  0  0
    9.0849    9.7129   10.1999 C   0  0  0  0  0  0  0  0  0  0  0  0
    9.6776    9.5975   10.9841 H   0  0  0  0  0  0  0  0  0  0  0  0
    8.4725   10.4711   10.3706 H   0  0  0  0  0  0  0  0  0  0  0  0
    8.3062    8.4508    9.9295 C   0  0  0  0  0  0  0  0  0  0  0  0
    7.6915    8.2812   10.6742 H   0  0  0  0  0  0  0  0  0  0  0  0
    7.7951    8.5531    9.1010 H   0  0  0  0  0  0  0  0  0  0  0  0
    8.9268    7.6972    9.8409 H   0  0  0  0  0  0  0  0  0  0  0  0
  1  3  1  0  0  0  0
  2  6  1  0  0  0  0
  3  7  1  0  0  0  0
  4  1  1  0  0  0  0
  5  1  1  0  0  0  0
  6 73  1  0  0  0  0
  7  8  4  0  0  0  0
  8  9  1  0  0  0  0
 10  8  4  0  0  0  0
 11 10  1  0  0  0  0
 12 10  4  0  0  0  0
 13 12  1  0  0  0  0
 14 12  4  0  0  0  0
 15 14  1  0  0  0  0
 16  7  4  0  0  0  0
 17 16  1  0  0  0  0
 18  3  1  0  0  0  0
 19 18  4  0  0  0  0
 20 19  1  0  0  0  0
 21 19  4  0  0  0  0
 22 21  1  0  0  0  0
 23 21  4  0  0  0  0
 24 23  1  0  0  0  0
 25 23  4  0  0  0  0
 26 25  1  0  0  0  0
 27 18  4  0  0  0  0
 28 27  1  0  0  0  0
 29  5  1  0  0  0  0
 30 29  4  0  0  0  0
 31 30  1  0  0  0  0
 32 30  4  0  0  0  0
 33 32  1  0  0  0  0
 34 32  4  0  0  0  0
 35 34  1  0  0  0  0
 36 34  4  0  0  0  0
 37 36  1  0  0  0  0
 38 29  4  0  0  0  0
 39 38  1  0  0  0  0
 40  5  1  0  0  0  0
 41 40  4  0  0  0  0
 42 41  1  0  0  0  0
 43 41  4  0  0  0  0
 44 43  1  0  0  0  0
 45 43  4  0  0  0  0
 46 45  1  0  0  0  0
 47 45  4  0  0  0  0
 48 47  1  0  0  0  0
 49 40  4  0  0  0  0
 50 49  1  0  0  0  0
 51  4  1  0  0  0  0
 52 51  4  0  0  0  0
 53 52  1  0  0  0  0
 54 52  4  0  0  0  0
 55 54  1  0  0  0  0
 56 54  4  0  0  0  0
 57 56  1  0  0  0  0
 58 56  4  0  0  0  0
 59 58  1  0  0  0  0
 60 51  4  0  0  0  0
 61 60  1  0  0  0  0
 62  4  1  0  0  0  0
 63 62  4  0  0  0  0
 64 63  1  0  0  0  0
 65 63  4  0  0  0  0
 66 65  1  0  0  0  0
 67 65  4  0  0  0  0
 68 67  1  0  0  0  0
 69 67  4  0  0  0  0
 70 69  1  0  0  0  0
 71 62  4  0  0  0  0
 72 71  1  0  0  0  0
 73 74  1  0  0  0  0
 75 73  1  0  0  0  0
 76 73  1  0  0  0  0
 77 76  1  0  0  0  0
 78 76  1  0  0  0  0
 79 76  1  0  0  0  0
 80 79  1  0  0  0  0
 81 79  1  0  0  0  0
 82  6  1  0  0  0  0
 83 82  1  0  0  0  0
 84 82  1  0  0  0  0
 85  3  1  0  0  0  0
 86  2  1  0  0  0  0
 87 85  1  0  0  0  0
 88  2  1  0  0  0  0
 89  4  1  0  0  0  0
 90 89  1  0  0  0  0
 91  2  1  0  0  0  0
 92  2  1  0  0  0  0
 93  5  1  0  0  0  0
 94 93  1  0  0  0  0
 95  2  1  0  0  0  0
 96  2  1  0  0  0  0
 97  2  1  0  0  0  0
 98 97  1  0  0  0  0
 99 98  1  0  0  0  0
100 98  1  0  0  0  0
101 98  1  0  0  0  0
102101  1  0  0  0  0
103101  1  0  0  0  0
104101  1  0  0  0  0
105 97  1  0  0  0  0
106105  1  0  0  0  0
107105  1  0  0  0  0
108105  1  0  0  0  0
109108  1  0  0  0  0
110108  1  0  0  0  0
111108  1  0  0  0  0
112114  1  0  0  0  0
113 87  1  0  0  0  0
114118  1  0  0  0  0
115112  1  0  0  0  0
116112  1  0  0  0  0
117113  1  0  0  0  0
118119  4  0  0  0  0
119120  1  0  0  0  0
121119  4  0  0  0  0
122121  1  0  0  0  0
123121  4  0  0  0  0
124123  1  0  0  0  0
125123  4  0  0  0  0
126125  1  0  0  0  0
127118  4  0  0  0  0
128127  1  0  0  0  0
129114  1  0  0  0  0
130129  4  0  0  0  0
131130  1  0  0  0  0
132130  4  0  0  0  0
133132  1  0  0  0  0
134132  4  0  0  0  0
135134  1  0  0  0  0
136134  4  0  0  0  0
137136  1  0  0  0  0
138129  4  0  0  0  0
139138  1  0  0  0  0
140116  1  0  0  0  0
141140  4  0  0  0  0
142141  1  0  0  0  0
143141  4  0  0  0  0
144143  1  0  0  0  0
145143  4  0  0  0  0
146145  1  0  0  0  0
147145  4  0  0  0  0
148147  1  0  0  0  0
149140  4  0  0  0  0
150149  1  0  0  0  0
151116  1  0  0  0  0
152151  4  0  0  0  0
153152  1  0  0  0  0
154152  4  0  0  0  0
155154  1  0  0  0  0
156154  4  0  0  0  0
157156  1  0  0  0  0
158156  4  0  0  0  0
159158  1  0  0  0  0
160151  4  0  0  0  0
161160  1  0  0  0  0
162115  1  0  0  0  0
163162  4  0  0  0  0
164163  1  0  0  0  0
165163  4  0  0  0  0
166165  1  0  0  0  0
167165  4  0  0  0  0
168167  1  0  0  0  0
169167  4  0  0  0  0
170169  1  0  0  0  0
171162  4  0  0  0  0
172171  1  0  0  0  0
173115  1  0  0  0  0
174173  4  0  0  0  0
175174  1  0  0  0  0
176174  4  0  0  0  0
177176  1  0  0  0  0
178176  4  0  0  0  0
179178  1  0  0  0  0
180178  4  0  0  0  0
181180  1  0  0  0  0
182173  4  0  0  0  0
183182  1  0  0  0  0
184117  1  0  0  0  0
185184  1  0  0  0  0
186184  1  0  0  0  0
187184  1  0  0  0  0
188187  1  0  0  0  0
189187  1  0  0  0  0
190187  1  0  0  0  0
191190  1  0  0  0  0
192190  1  0  0  0  0
193117  1  0  0  0  0
194193  1  0  0  0  0
195193  1  0  0  0  0
196114  1  0  0  0  0
197113  1  0  0  0  0
198  2  1  0  0  0  0
199113  1  0  0  0  0
200115  1  0  0  0  0
201200  1  0  0  0  0
202113  1  0  0  0  0
203113  1  0  0  0  0
204116  1  0  0  0  0
205204  1  0  0  0  0
206113  1  0  0  0  0
207113  1  0  0  0  0
208113  1  0  0  0  0
209208  1  0  0  0  0
210209  1  0  0  0  0
211209  1  0  0  0  0
212209  1  0  0  0  0
213212  1  0  0  0  0
214212  1  0  0  0  0
215212  1  0  0  0  0
216208  1  0  0  0  0
217216  1  0  0  0  0
218216  1  0  0  0  0
219216  1  0  0  0  0
220219  1  0  0  0  0
221219  1  0  0  0  0
222219  1  0  0  0  0
 14 16  4  0  0  0  0
 25 27  4  0  0  0  0
 36 38  4  0  0  0  0
 47 49  4  0  0  0  0
 58 60  4  0  0  0  0
 69 71  4  0  0  0  0
 79 82  1  0  0  0  0
 85 86  1  0  0  0  0
 85 88  1  0  0  0  0
 89 91  1  0  0  0  0
 89 92  1  0  0  0  0
 93 95  1  0  0  0  0
 93 96  1  0  0  0  0
125127  4  0  0  0  0
136138  4  0  0  0  0
147149  4  0  0  0  0
158160  4  0  0  0  0
169171  4  0  0  0  0
180182  4  0  0  0  0
190193  1  0  0  0  0
196197  1  0  0  0  0
196198  1  0  0  0  0
196199  1  0  0  0  0
200202  1  0  0  0  0
200203  1  0  0  0  0
204206  1  0  0  0  0
204207  1  0  0  0  0
M  END
$$$$
XEVFIR

From CSD data. Using bond type 'Any'. No disordered atoms. Largest molecule.
111122  0  0  0  0  0  0  0  0999 V2000
    4.2752    4.1199   18.5065 Sn  0  0  0  0  0  0  0  0  0  0  0  0
    5.3251    5.5234   20.4675 P   0  0  0  0  0  0  0  0  0  0  0  0
    6.3578    4.3459   16.9543 P   0  0  0  0  0  0  0  0  0  0  0  0
    2.9264    6.1018   17.4403 P   0  0  0  0  0  0  0  0  0  0  0  0
    6.3994    8.5281   17.7543 Na  0  0  0  0  0  0  0  0  0  0  0  0
    6.1976    7.2661   20.3714 B   0  0  0  0  0  0  0  0  0  0  0  0
    7.0231    7.1731   19.6601 H   0  0  0  0  0  0  0  0  0  0  0  0
    5.4000    7.9937   20.0863 H   0  0  0  0  0  0  0  0  0  0  0  0
    7.2515    6.0100   16.5200 B   0  0  0  0  0  0  0  0  0  0  0  0
    7.7639    6.3589   17.4924 H   0  0  0  0  0  0  0  0  0  0  0  0
    6.4088    6.7171   16.1597 H   0  0  0  0  0  0  0  0  0  0  0  0
    3.5490    7.9318   17.2251 B   0  0  0  0  0  0  0  0  0  0  0  0
    4.0011    8.2688   18.1995 H   0  0  0  0  0  0  0  0  0  0  0  0
    4.2940    7.8965   16.3979 H   0  0  0  0  0  0  0  0  0  0  0  0
    8.6765    9.1382   17.7218 O   0  0  0  0  0  0  0  0  0  0  0  0
    9.3187   10.2102   16.9616 C   0  0  0  0  0  0  0  0  0  0  0  0
    9.1178   10.1108   15.9969 H   0  0  0  0  0  0  0  0  0  0  0  0
    8.9795   11.0899   17.2638 H   0  0  0  0  0  0  0  0  0  0  0  0
   10.7571   10.1234   17.1863 C   0  0  0  0  0  0  0  0  0  0  0  0
   11.2179    9.8394   16.3573 H   0  0  0  0  0  0  0  0  0  0  0  0
   11.1156   11.0059   17.4595 H   0  0  0  0  0  0  0  0  0  0  0  0
   10.9703    9.1623   18.2247 C   0  0  0  0  0  0  0  0  0  0  0  0
   11.1160    9.6117   19.0944 H   0  0  0  0  0  0  0  0  0  0  0  0
   11.7593    8.5973   18.0232 H   0  0  0  0  0  0  0  0  0  0  0  0
    9.7162    8.3269   18.2634 C   0  0  0  0  0  0  0  0  0  0  0  0
    9.8312    7.5047   17.7229 H   0  0  0  0  0  0  0  0  0  0  0  0
    9.5025    8.0659   19.1932 H   0  0  0  0  0  0  0  0  0  0  0  0
    6.0458   10.8721   17.4853 O   0  0  0  0  0  0  0  0  0  0  0  0
    4.0235    5.5944   21.7435 C   0  0  0  0  0  0  0  0  0  0  0  0
    3.1040    4.5651   21.9279 C   0  0  0  0  0  0  0  0  0  0  0  0
    3.1255    3.8126   21.3493 H   0  0  0  0  0  0  0  0  0  0  0  0
    2.1645    4.6186   22.9335 C   0  0  0  0  0  0  0  0  0  0  0  0
    1.5654    3.8920   23.0675 H   0  0  0  0  0  0  0  0  0  0  0  0
    2.0968    5.7348   23.7494 C   0  0  0  0  0  0  0  0  0  0  0  0
    1.4516    5.7767   24.4448 H   0  0  0  0  0  0  0  0  0  0  0  0
    2.9574    6.7773   23.5541 C   0  0  0  0  0  0  0  0  0  0  0  0
    2.8892    7.5526   24.1000 H   0  0  0  0  0  0  0  0  0  0  0  0
    3.9246    6.7146   22.5710 C   0  0  0  0  0  0  0  0  0  0  0  0
    4.5272    7.4389   22.4573 H   0  0  0  0  0  0  0  0  0  0  0  0
    6.5223    4.3081   21.1389 C   0  0  0  0  0  0  0  0  0  0  0  0
    6.1070    3.1539   21.8030 C   0  0  0  0  0  0  0  0  0  0  0  0
    5.1804    2.9577   21.8684 H   0  0  0  0  0  0  0  0  0  0  0  0
    7.0287    2.2902   22.3686 C   0  0  0  0  0  0  0  0  0  0  0  0
    6.7311    1.5134   22.8273 H   0  0  0  0  0  0  0  0  0  0  0  0
    8.3700    2.5526   22.2684 C   0  0  0  0  0  0  0  0  0  0  0  0
    9.0031    1.9719   22.6743 H   0  0  0  0  0  0  0  0  0  0  0  0
    8.7933    3.6629   21.5744 C   0  0  0  0  0  0  0  0  0  0  0  0
    9.7239    3.8328   21.4791 H   0  0  0  0  0  0  0  0  0  0  0  0
    7.8772    4.5338   21.0126 C   0  0  0  0  0  0  0  0  0  0  0  0
    8.1849    5.2958   20.5357 H   0  0  0  0  0  0  0  0  0  0  0  0
    7.5753    3.1232   17.5500 C   0  0  0  0  0  0  0  0  0  0  0  0
    7.2316    2.0202   18.3140 C   0  0  0  0  0  0  0  0  0  0  0  0
    6.3330    1.9168   18.6024 H   0  0  0  0  0  0  0  0  0  0  0  0
    8.1693    1.0682   18.6644 C   0  0  0  0  0  0  0  0  0  0  0  0
    7.9115    0.3167   19.1855 H   0  0  0  0  0  0  0  0  0  0  0  0
    9.4709    1.2079   18.2593 C   0  0  0  0  0  0  0  0  0  0  0  0
   10.1121    0.5413   18.4765 H   0  0  0  0  0  0  0  0  0  0  0  0
    9.8490    2.3143   17.5385 C   0  0  0  0  0  0  0  0  0  0  0  0
   10.7583    2.4258   17.2851 H   0  0  0  0  0  0  0  0  0  0  0  0
    8.9132    3.2686   17.1776 C   0  0  0  0  0  0  0  0  0  0  0  0
    9.1830    4.0267   16.6730 H   0  0  0  0  0  0  0  0  0  0  0  0
    5.7256    3.5679   15.4249 C   0  0  0  0  0  0  0  0  0  0  0  0
    5.5728    2.2016   15.3027 C   0  0  0  0  0  0  0  0  0  0  0  0
    5.8168    1.6329   16.0241 H   0  0  0  0  0  0  0  0  0  0  0  0
    5.0655    1.6539   14.1359 C   0  0  0  0  0  0  0  0  0  0  0  0
    4.9708    0.7117   14.0559 H   0  0  0  0  0  0  0  0  0  0  0  0
    4.7032    2.4604   13.1038 C   0  0  0  0  0  0  0  0  0  0  0  0
    4.3584    2.0799   12.3047 H   0  0  0  0  0  0  0  0  0  0  0  0
    4.8320    3.8063   13.2125 C   0  0  0  0  0  0  0  0  0  0  0  0
    4.5715    4.3640   12.4888 H   0  0  0  0  0  0  0  0  0  0  0  0
    5.3439    4.3795   14.3738 C   0  0  0  0  0  0  0  0  0  0  0  0
    5.4296    5.3241   14.4434 H   0  0  0  0  0  0  0  0  0  0  0  0
    2.2766    5.4849   15.8472 C   0  0  0  0  0  0  0  0  0  0  0  0
    1.9655    4.1418   15.6454 C   0  0  0  0  0  0  0  0  0  0  0  0
    2.0658    3.5265   16.3611 H   0  0  0  0  0  0  0  0  0  0  0  0
    1.5144    3.6904   14.4209 C   0  0  0  0  0  0  0  0  0  0  0  0
    1.3046    2.7716   14.3000 H   0  0  0  0  0  0  0  0  0  0  0  0
    1.3712    4.5747   13.3775 C   0  0  0  0  0  0  0  0  0  0  0  0
    1.0716    4.2640   12.5314 H   0  0  0  0  0  0  0  0  0  0  0  0
    1.6598    5.9083   13.5585 C   0  0  0  0  0  0  0  0  0  0  0  0
    1.5453    6.5202   12.8394 H   0  0  0  0  0  0  0  0  0  0  0  0
    2.1191    6.3629   14.7858 C   0  0  0  0  0  0  0  0  0  0  0  0
    2.3257    7.2828   14.9005 H   0  0  0  0  0  0  0  0  0  0  0  0
    1.4917    6.1073   18.5720 C   0  0  0  0  0  0  0  0  0  0  0  0
    0.3308    5.3673   18.3707 C   0  0  0  0  0  0  0  0  0  0  0  0
    0.2416    4.8437   17.5835 H   0  0  0  0  0  0  0  0  0  0  0  0
   -0.6903    5.3822   19.2936 C   0  0  0  0  0  0  0  0  0  0  0  0
   -1.4753    4.8695   19.1409 H   0  0  0  0  0  0  0  0  0  0  0  0
   -0.5731    6.1458   20.4439 C   0  0  0  0  0  0  0  0  0  0  0  0
   -1.2753    6.1535   21.0839 H   0  0  0  0  0  0  0  0  0  0  0  0
    0.5556    6.8887   20.6538 C   0  0  0  0  0  0  0  0  0  0  0  0
    0.6314    7.4164   21.4403 H   0  0  0  0  0  0  0  0  0  0  0  0
    1.5871    6.8802   19.7349 C   0  0  0  0  0  0  0  0  0  0  0  0
    2.3655    7.4020   19.8925 H   0  0  0  0  0  0  0  0  0  0  0  0
    6.3498   11.7883   18.5230 C   0  0  0  0  0  0  0  0  0  0  0  0
    5.5808   12.3967   18.6644 H   0  0  0  0  0  0  0  0  0  0  0  0
    7.1316   12.3362   18.2615 H   0  0  0  0  0  0  0  0  0  0  0  0
    6.6449   11.0770   19.7724 C   0  0  0  0  0  0  0  0  0  0  0  0
    7.4552   10.5375   19.6562 H   0  0  0  0  0  0  0  0  0  0  0  0
    5.8930   10.4926   20.0010 H   0  0  0  0  0  0  0  0  0  0  0  0
    6.7854   11.7265   20.4931 H   0  0  0  0  0  0  0  0  0  0  0  0
    6.5261    7.4745   21.4636 H   0  0  0  0  0  0  0  0  0  0  0  0
    7.9867    5.7736   15.7296 H   0  0  0  0  0  0  0  0  0  0  0  0
    2.6417    8.5089   16.9694 H   0  0  0  0  0  0  0  0  0  0  0  0
    5.8100   11.5786   16.2023 C   0  0  0  0  0  0  0  0  0  0  0  0
    5.0474   12.2041   16.2991 H   0  0  0  0  0  0  0  0  0  0  0  0
    6.6117   12.1035   15.9582 H   0  0  0  0  0  0  0  0  0  0  0  0
    5.5192   10.5970   15.1543 C   0  0  0  0  0  0  0  0  0  0  0  0
    5.2927   11.0645   14.3232 H   0  0  0  0  0  0  0  0  0  0  0  0
    4.7620   10.0385   15.4313 H   0  0  0  0  0  0  0  0  0  0  0  0
    6.3057   10.0339   15.0071 H   0  0  0  0  0  0  0  0  0  0  0  0
  1  2  1  0  0  0  0
  2  6  1  0  0  0  0
  3  1  1  0  0  0  0
  4  1  1  0  0  0  0
  5  7  1  0  0  0  0
  6  7  1  0  0  0  0
  8  5  1  0  0  0  0
  9  3  1  0  0  0  0
 10  5  1  0  0  0  0
 11  5  1  0  0  0  0
 12  4  1  0  0  0  0
 13  5  1  0  0  0  0
 14  5  1  0  0  0  0
 15  5  1  0  0  0  0
 16 15  1  0  0  0  0
 17 16  1  0  0  0  0
 18 16  1  0  0  0  0
 19 16  1  0  0  0  0
 20 19  1  0  0  0  0
 21 19  1  0  0  0  0
 22 19  1  0  0  0  0
 23 22  1  0  0  0  0
 24 22  1  0  0  0  0
 25 15  1  0  0  0  0
 26 25  1  0  0  0  0
 27 25  1  0  0  0  0
 28  5  1  0  0  0  0
 29  2  1  0  0  0  0
 30 29  4  0  0  0  0
 31 30  1  0  0  0  0
 32 30  4  0  0  0  0
 33 32  1  0  0  0  0
 34 32  4  0  0  0  0
 35 34  1  0  0  0  0
 36 34  4  0  0  0  0
 37 36  1  0  0  0  0
 38 29  4  0  0  0  0
 39 38  1  0  0  0  0
 40  2  1  0  0  0  0
 41 40  4  0  0  0  0
 42 41  1  0  0  0  0
 43 41  4  0  0  0  0
 44 43  1  0  0  0  0
 45 43  4  0  0  0  0
 46 45  1  0  0  0  0
 47 45  4  0  0  0  0
 48 47  1  0  0  0  0
 49 40  4  0  0  0  0
 50 49  1  0  0  0  0
 51  3  1  0  0  0  0
 52 51  4  0  0  0  0
 53 52  1  0  0  0  0
 54 52  4  0  0  0  0
 55 54  1  0  0  0  0
 56 54  4  0  0  0  0
 57 56  1  0  0  0  0
 58 56  4  0  0  0  0
 59 58  1  0  0  0  0
 60 51  4  0  0  0  0
 61 60  1  0  0  0  0
 62  3  1  0  0  0  0
 63 62  4  0  0  0  0
 64 63  1  0  0  0  0
 65 63  4  0  0  0  0
 66 65  1  0  0  0  0
 67 65  4  0  0  0  0
 68 67  1  0  0  0  0
 69 67  4  0  0  0  0
 70 69  1  0  0  0  0
 71 62  4  0  0  0  0
 72 71  1  0  0  0  0
 73  4  1  0  0  0  0
 74 73  4  0  0  0  0
 75 74  1  0  0  0  0
 76 74  4  0  0  0  0
 77 76  1  0  0  0  0
 78 76  4  0  0  0  0
 79 78  1  0  0  0  0
 80 78  4  0  0  0  0
 81 80  1  0  0  0  0
 82 73  4  0  0  0  0
 83 82  1  0  0  0  0
 84  4  1  0  0  0  0
 85 84  4  0  0  0  0
 86 85  1  0  0  0  0
 87 85  4  0  0  0  0
 88 87  1  0  0  0  0
 89 87  4  0  0  0  0
 90 89  1  0  0  0  0
 91 89  4  0  0  0  0
 92 91  1  0  0  0  0
 93 84  4  0  0  0  0
 94 93  1  0  0  0  0
 95 28  1  0  0  0  0
 96 95  1  0  0  0  0
 97 95  1  0  0  0  0
 98 95  1  0  0  0  0
 99 98  1  0  0  0  0
100 98  1  0  0  0  0
101 98  1  0  0  0  0
102  6  1  0  0  0  0
103  9  1  0  0  0  0
104 12  1  0  0  0  0
105 28  1  0  0  0  0
106105  1  0  0  0  0
107105  1  0  0  0  0
108105  1  0  0  0  0
109108  1  0  0  0  0
110108  1  0  0  0  0
111108  1  0  0  0  0
  6  8  1  0  0  0  0
  9 10  1  0  0  0  0
  9 11  1  0  0  0  0
 12 13  1  0  0  0  0
 12 14  1  0  0  0  0
 22 25  1  0  0  0  0
 36 38  4  0  0  0  0
 47 49  4  0  0  0  0
 58 60  4  0  0  0  0
 69 71  4  0  0  0  0
 80 82  4  0  0  0  0
 91 93  4  0  0  0  0
M  END
$$$$
XIGGOJ

From CSD data. Using bond type 'Any'. Matching problem. No disordered atoms. Largest molecule.
262278  0  0  0  0  0  0  0  0999 V2000
    6.1131    5.8089    4.3706 Ru  0  0  0  0  0  0  0  0  0  0  0  0
    5.6363    7.1980    3.6599 H   0  0  0  0  0  0  0  0  0  0  0  0
    6.4747    5.4392    2.8199 H   0  0  0  0  0  0  0  0  0  0  0  0
    7.6361    6.3751    4.2449 H   0  0  0  0  0  0  0  0  0  0  0  0
    7.9658   11.0444    3.2474 B   0  0  0  0  0  0  0  0  0  0  0  0
    7.3179    9.8956    3.3299 H   0  0  0  0  0  0  0  0  0  0  0  0
    7.5863    7.7223    1.9774 K   0  0  0  0  0  0  0  0  0  0  0  0
    6.5362    9.1300    5.5013 K   0  0  0  0  0  0  0  0  0  0  0  0
    6.0966    6.6156    7.2658 O   0  0  0  0  0  0  0  0  0  0  0  0
    3.8652    5.2606    4.0549 P   0  0  0  0  0  0  0  0  0  0  0  0
    6.9876    3.7155    4.9337 P   0  0  0  0  0  0  0  0  0  0  0  0
    6.0414    6.2779    6.1139 C   0  0  0  0  0  0  0  0  0  0  0  0
    2.7094    7.8016    3.5504 C   0  0  0  0  0  0  0  0  0  0  0  0
    2.5540    7.4853    2.6354 H   0  0  0  0  0  0  0  0  0  0  0  0
    3.6011    8.2052    3.5819 H   0  0  0  0  0  0  0  0  0  0  0  0
    1.6675    8.8559    3.9014 C   0  0  0  0  0  0  0  0  0  0  0  0
    1.7588    9.6191    3.2924 H   0  0  0  0  0  0  0  0  0  0  0  0
    0.7711    8.4798    3.7814 H   0  0  0  0  0  0  0  0  0  0  0  0
    1.8273    9.3329    5.3369 C   0  0  0  0  0  0  0  0  0  0  0  0
    2.6954    9.7761    5.4419 H   0  0  0  0  0  0  0  0  0  0  0  0
    1.1251    9.9841    5.5469 H   0  0  0  0  0  0  0  0  0  0  0  0
    1.7351    8.1554    6.2954 C   0  0  0  0  0  0  0  0  0  0  0  0
    0.8402    7.7599    6.2444 H   0  0  0  0  0  0  0  0  0  0  0  0
    1.8789    8.4673    7.2133 H   0  0  0  0  0  0  0  0  0  0  0  0
    2.7855    7.0964    5.9414 C   0  0  0  0  0  0  0  0  0  0  0  0
    3.6806    7.4718    6.0794 H   0  0  0  0  0  0  0  0  0  0  0  0
    2.6851    6.3306    6.5444 H   0  0  0  0  0  0  0  0  0  0  0  0
    2.6615    6.6188    4.5029 C   0  0  0  0  0  0  0  0  0  0  0  0
    1.7558    6.2278    4.4174 H   0  0  0  0  0  0  0  0  0  0  0  0
    1.7939    4.7262    2.0835 C   0  0  0  0  0  0  0  0  0  0  0  0
    1.4887    3.9197    2.5499 H   0  0  0  0  0  0  0  0  0  0  0  0
    1.3121    5.4928    2.4569 H   0  0  0  0  0  0  0  0  0  0  0  0
    1.4658    4.6003    0.5895 C   0  0  0  0  0  0  0  0  0  0  0  0
    0.5036    4.4534    0.4815 H   0  0  0  0  0  0  0  0  0  0  0  0
    1.6967    5.4384    0.1365 H   0  0  0  0  0  0  0  0  0  0  0  0
    2.2153    3.4699   -0.0495 C   0  0  0  0  0  0  0  0  0  0  0  0
    2.0285    3.4586   -1.0110 H   0  0  0  0  0  0  0  0  0  0  0  0
    1.9074    2.6205    0.3300 H   0  0  0  0  0  0  0  0  0  0  0  0
    3.7181    3.6085    0.1725 C   0  0  0  0  0  0  0  0  0  0  0  0
    4.0466    4.4040   -0.2970 H   0  0  0  0  0  0  0  0  0  0  0  0
    4.1764    2.8259   -0.1980 H   0  0  0  0  0  0  0  0  0  0  0  0
    4.0426    3.7294    1.6830 C   0  0  0  0  0  0  0  0  0  0  0  0
    3.7841    2.9010    2.1390 H   0  0  0  0  0  0  0  0  0  0  0  0
    5.0083    3.8502    1.8000 H   0  0  0  0  0  0  0  0  0  0  0  0
    3.3031    4.9097    2.3159 C   0  0  0  0  0  0  0  0  0  0  0  0
    3.5624    5.7045    1.7850 H   0  0  0  0  0  0  0  0  0  0  0  0
    3.1631    3.8161    4.9724 C   0  0  0  0  0  0  0  0  0  0  0  0
    2.1943    3.9440    5.0384 H   0  0  0  0  0  0  0  0  0  0  0  0
    3.3122    3.0133    4.4279 H   0  0  0  0  0  0  0  0  0  0  0  0
    3.7044    3.5319    6.3974 C   0  0  0  0  0  0  0  0  0  0  0  0
    4.0240    4.3753    6.7798 H   0  0  0  0  0  0  0  0  0  0  0  0
    2.9586    3.2212    6.9523 H   0  0  0  0  0  0  0  0  0  0  0  0
    4.8296    2.5063    6.4844 C   0  0  0  0  0  0  0  0  0  0  0  0
    4.7363    1.8943    5.7239 H   0  0  0  0  0  0  0  0  0  0  0  0
    4.6900    1.9777    7.2973 H   0  0  0  0  0  0  0  0  0  0  0  0
    6.2694    3.0165    6.4994 C   0  0  0  0  0  0  0  0  0  0  0  0
    6.8437    2.2741    6.7843 H   0  0  0  0  0  0  0  0  0  0  0  0
    6.3320    3.7092    7.1893 H   0  0  0  0  0  0  0  0  0  0  0  0
    7.2589    0.9117    4.3454 C   0  0  0  0  0  0  0  0  0  0  0  0
    6.8759    0.7709    5.2364 H   0  0  0  0  0  0  0  0  0  0  0  0
    8.2356    0.9267    4.4339 H   0  0  0  0  0  0  0  0  0  0  0  0
    6.8473   -0.2522    3.4244 C   0  0  0  0  0  0  0  0  0  0  0  0
    7.2258   -1.0868    3.7694 H   0  0  0  0  0  0  0  0  0  0  0  0
    5.8709   -0.3381    3.4304 H   0  0  0  0  0  0  0  0  0  0  0  0
    7.3168   -0.0442    2.0085 C   0  0  0  0  0  0  0  0  0  0  0  0
    8.2944   -0.0906    1.9815 H   0  0  0  0  0  0  0  0  0  0  0  0
    6.9629   -0.7624    1.4415 H   0  0  0  0  0  0  0  0  0  0  0  0
    6.8706    1.2791    1.4670 C   0  0  0  0  0  0  0  0  0  0  0  0
    5.8931    1.2853    1.3860 H   0  0  0  0  0  0  0  0  0  0  0  0
    7.2483    1.4085    0.5715 H   0  0  0  0  0  0  0  0  0  0  0  0
    7.3118    2.4199    2.3774 C   0  0  0  0  0  0  0  0  0  0  0  0
    8.2916    2.4530    2.4029 H   0  0  0  0  0  0  0  0  0  0  0  0
    6.9913    3.2697    2.0100 H   0  0  0  0  0  0  0  0  0  0  0  0
    6.7789    2.2543    3.7934 C   0  0  0  0  0  0  0  0  0  0  0  0
    5.8007    2.1518    3.6884 H   0  0  0  0  0  0  0  0  0  0  0  0
    9.7007    4.1120    4.2389 C   0  0  0  0  0  0  0  0  0  0  0  0
    9.5465    3.5336    3.4634 H   0  0  0  0  0  0  0  0  0  0  0  0
    9.4526    5.0246    3.9824 H   0  0  0  0  0  0  0  0  0  0  0  0
   11.1784    4.0854    4.5809 C   0  0  0  0  0  0  0  0  0  0  0  0
   11.4604    3.1589    4.7324 H   0  0  0  0  0  0  0  0  0  0  0  0
   11.6942    4.4408    3.8279 H   0  0  0  0  0  0  0  0  0  0  0  0
   11.4628    4.9026    5.8124 C   0  0  0  0  0  0  0  0  0  0  0  0
   12.4071    4.8074    6.0569 H   0  0  0  0  0  0  0  0  0  0  0  0
   11.2911    5.8486    5.6249 H   0  0  0  0  0  0  0  0  0  0  0  0
   10.6009    4.4548    6.9598 C   0  0  0  0  0  0  0  0  0  0  0  0
   10.7687    5.0302    7.7338 H   0  0  0  0  0  0  0  0  0  0  0  0
   10.8434    3.5374    7.2073 H   0  0  0  0  0  0  0  0  0  0  0  0
    9.1223    4.5031    6.6119 C   0  0  0  0  0  0  0  0  0  0  0  0
    8.8606    5.4329    6.4424 H   0  0  0  0  0  0  0  0  0  0  0  0
    8.6003    4.1781    7.3738 H   0  0  0  0  0  0  0  0  0  0  0  0
    8.7950    3.6576    5.3804 C   0  0  0  0  0  0  0  0  0  0  0  0
    9.0227    2.7171    5.5904 H   0  0  0  0  0  0  0  0  0  0  0  0
    8.1492   11.3937    1.6395 C   0  0  0  0  0  0  0  0  0  0  0  0
    7.4189   12.0596    1.6920 H   0  0  0  0  0  0  0  0  0  0  0  0
    7.5445   10.7877    0.6435 C   0  0  0  0  0  0  0  0  0  0  0  0
    6.5949   10.8379    0.8775 H   0  0  0  0  0  0  0  0  0  0  0  0
    7.7916    9.8451    0.7545 H   0  0  0  0  0  0  0  0  0  0  0  0
    7.5625   10.9891   -0.8160 C   0  0  0  0  0  0  0  0  0  0  0  0
    6.9980   10.3246   -1.2405 H   0  0  0  0  0  0  0  0  0  0  0  0
    8.4711   10.8984   -1.1430 H   0  0  0  0  0  0  0  0  0  0  0  0
    7.2310   11.8764   -1.0230 H   0  0  0  0  0  0  0  0  0  0  0  0
    9.1496   12.4976    1.3125 C   0  0  0  0  0  0  0  0  0  0  0  0
    9.1510   12.6584    0.3555 H   0  0  0  0  0  0  0  0  0  0  0  0
   10.0359   12.2257    1.5975 H   0  0  0  0  0  0  0  0  0  0  0  0
    8.8968   13.3107    1.7775 H   0  0  0  0  0  0  0  0  0  0  0  0
    6.9153   12.0237    4.0484 C   0  0  0  0  0  0  0  0  0  0  0  0
    6.9664   11.7031    4.9829 H   0  0  0  0  0  0  0  0  0  0  0  0
    5.4483   11.8604    3.6974 C   0  0  0  0  0  0  0  0  0  0  0  0
    5.3235   12.2295    2.7989 H   0  0  0  0  0  0  0  0  0  0  0  0
    5.2704   10.8982    3.6374 H   0  0  0  0  0  0  0  0  0  0  0  0
    4.4365   12.4262    4.5329 C   0  0  0  0  0  0  0  0  0  0  0  0
    3.5627   12.2438    4.1504 H   0  0  0  0  0  0  0  0  0  0  0  0
    4.5678   13.3852    4.5959 H   0  0  0  0  0  0  0  0  0  0  0  0
    4.4895   12.0333    5.4179 H   0  0  0  0  0  0  0  0  0  0  0  0
    7.3719   13.4763    4.1429 C   0  0  0  0  0  0  0  0  0  0  0  0
    6.7169   13.9892    4.6424 H   0  0  0  0  0  0  0  0  0  0  0  0
    7.4595   13.8456    3.2504 H   0  0  0  0  0  0  0  0  0  0  0  0
    8.2276   13.5164    4.5959 H   0  0  0  0  0  0  0  0  0  0  0  0
    9.4096   10.9200    3.9719 C   0  0  0  0  0  0  0  0  0  0  0  0
    9.8743   11.7823    3.8264 H   0  0  0  0  0  0  0  0  0  0  0  0
    9.3764   10.6904    5.4794 C   0  0  0  0  0  0  0  0  0  0  0  0
    8.6781   11.2571    5.8664 H   0  0  0  0  0  0  0  0  0  0  0  0
    9.1268    9.7577    5.6474 H   0  0  0  0  0  0  0  0  0  0  0  0
   10.6645   10.9732    6.1814 C   0  0  0  0  0  0  0  0  0  0  0  0
   10.5637   10.7906    7.1278 H   0  0  0  0  0  0  0  0  0  0  0  0
   10.9033   11.9058    6.0554 H   0  0  0  0  0  0  0  0  0  0  0  0
   11.3637   10.4090    5.8154 H   0  0  0  0  0  0  0  0  0  0  0  0
   10.3393    9.8027    3.3764 C   0  0  0  0  0  0  0  0  0  0  0  0
   11.1879    9.8043    3.8459 H   0  0  0  0  0  0  0  0  0  0  0  0
   10.4919    9.9774    2.4344 H   0  0  0  0  0  0  0  0  0  0  0  0
    9.9138    8.9383    3.4814 H   0  0  0  0  0  0  0  0  0  0  0  0
    4.8737    7.3543    9.4984 K   0  0  0  0  0  0  0  0  0  0  0  0
    5.2969   10.6753   10.6291 Ru  0  0  0  0  0  0  0  0  0  0  0  0
    5.7736    9.2862   11.3397 H   0  0  0  0  0  0  0  0  0  0  0  0
    3.8236    8.7619   13.0223 K   0  0  0  0  0  0  0  0  0  0  0  0
    4.9352   11.0451   12.1797 H   0  0  0  0  0  0  0  0  0  0  0  0
    3.7739   10.1091   10.7548 H   0  0  0  0  0  0  0  0  0  0  0  0
    7.5448   11.2237   10.9448 P   0  0  0  0  0  0  0  0  0  0  0  0
    8.7485    9.8654   10.4968 C   0  0  0  0  0  0  0  0  0  0  0  0
    8.7006    8.6826   11.4492 C   0  0  0  0  0  0  0  0  0  0  0  0
    8.8560    8.9990   12.3642 H   0  0  0  0  0  0  0  0  0  0  0  0
    7.8088    8.2790   11.4177 H   0  0  0  0  0  0  0  0  0  0  0  0
    9.7425    7.6283   11.0983 C   0  0  0  0  0  0  0  0  0  0  0  0
    9.6512    6.8652   11.7072 H   0  0  0  0  0  0  0  0  0  0  0  0
   10.6389    8.0045   11.2183 H   0  0  0  0  0  0  0  0  0  0  0  0
    9.5826    7.1514    9.6628 C   0  0  0  0  0  0  0  0  0  0  0  0
    8.7145    6.7081    9.5578 H   0  0  0  0  0  0  0  0  0  0  0  0
   10.2848    6.5001    9.4528 H   0  0  0  0  0  0  0  0  0  0  0  0
    9.6749    8.3289    8.7043 C   0  0  0  0  0  0  0  0  0  0  0  0
   10.5697    8.7244    8.7553 H   0  0  0  0  0  0  0  0  0  0  0  0
    9.5311    8.0169    7.7863 H   0  0  0  0  0  0  0  0  0  0  0  0
    8.6244    9.3878    9.0583 C   0  0  0  0  0  0  0  0  0  0  0  0
    7.7294    9.0124    8.9203 H   0  0  0  0  0  0  0  0  0  0  0  0
    8.7248   10.1536    8.4553 H   0  0  0  0  0  0  0  0  0  0  0  0
    9.6542   10.2564   10.5823 H   0  0  0  0  0  0  0  0  0  0  0  0
    8.1069   11.5745   12.6837 C   0  0  0  0  0  0  0  0  0  0  0  0
    9.6160   11.7580   12.9162 C   0  0  0  0  0  0  0  0  0  0  0  0
    9.9213   12.5646   12.4497 H   0  0  0  0  0  0  0  0  0  0  0  0
   10.0978   10.9914   12.5427 H   0  0  0  0  0  0  0  0  0  0  0  0
    9.9441   11.8839   14.4102 C   0  0  0  0  0  0  0  0  0  0  0  0
   10.9064   12.0309   14.5182 H   0  0  0  0  0  0  0  0  0  0  0  0
    9.7133   11.0458   14.8632 H   0  0  0  0  0  0  0  0  0  0  0  0
    9.1947   13.0143   15.0492 C   0  0  0  0  0  0  0  0  0  0  0  0
    9.3814   13.0256   16.0106 H   0  0  0  0  0  0  0  0  0  0  0  0
    9.5026   13.8637   14.6697 H   0  0  0  0  0  0  0  0  0  0  0  0
    7.6918   12.8758   14.8272 C   0  0  0  0  0  0  0  0  0  0  0  0
    7.3633   12.0802   15.2967 H   0  0  0  0  0  0  0  0  0  0  0  0
    7.2336   13.6584   15.1977 H   0  0  0  0  0  0  0  0  0  0  0  0
    7.3674   12.7549   13.3167 C   0  0  0  0  0  0  0  0  0  0  0  0
    7.6259   13.5833   12.8607 H   0  0  0  0  0  0  0  0  0  0  0  0
    6.4017   12.6340   13.1997 H   0  0  0  0  0  0  0  0  0  0  0  0
    7.8476   10.7797   13.2147 H   0  0  0  0  0  0  0  0  0  0  0  0
    8.2469   12.6681   10.0273 C   0  0  0  0  0  0  0  0  0  0  0  0
    9.2156   12.5403    9.9613 H   0  0  0  0  0  0  0  0  0  0  0  0
    8.0977   13.4709   10.5718 H   0  0  0  0  0  0  0  0  0  0  0  0
    7.7055   12.9523    8.6023 C   0  0  0  0  0  0  0  0  0  0  0  0
    7.3860   12.1090    8.2198 H   0  0  0  0  0  0  0  0  0  0  0  0
    8.4514   13.2630    8.0473 H   0  0  0  0  0  0  0  0  0  0  0  0
    6.5804   13.9779    8.5153 C   0  0  0  0  0  0  0  0  0  0  0  0
    6.6737   14.5900    9.2758 H   0  0  0  0  0  0  0  0  0  0  0  0
    6.7199   14.5066    7.7023 H   0  0  0  0  0  0  0  0  0  0  0  0
    5.1405   13.4677    8.5003 C   0  0  0  0  0  0  0  0  0  0  0  0
    4.4224   12.7687   10.0660 P   0  0  0  0  0  0  0  0  0  0  0  0
    5.3686   10.2063    8.8858 C   0  0  0  0  0  0  0  0  0  0  0  0
    3.4441    5.4398   11.7522 B   0  0  0  0  0  0  0  0  0  0  0  0
    4.0920    6.5887   11.6697 H   0  0  0  0  0  0  0  0  0  0  0  0
    5.3133    9.8686    7.7338 O   0  0  0  0  0  0  0  0  0  0  0  0
    4.4435    4.7811   10.0168 H   0  0  0  0  0  0  0  0  0  0  0  0
    4.4946    4.4606   10.9513 C   0  0  0  0  0  0  0  0  0  0  0  0
    3.2608    5.0905   13.3602 C   0  0  0  0  0  0  0  0  0  0  0  0
    3.9910    4.4247   13.3077 H   0  0  0  0  0  0  0  0  0  0  0  0
    3.8654    5.6965   14.3562 C   0  0  0  0  0  0  0  0  0  0  0  0
    4.8150    5.6464   14.1222 H   0  0  0  0  0  0  0  0  0  0  0  0
    3.6184    6.6391   14.2452 H   0  0  0  0  0  0  0  0  0  0  0  0
    3.8474    5.4952   15.8156 C   0  0  0  0  0  0  0  0  0  0  0  0
    4.4119    6.1597   16.2401 H   0  0  0  0  0  0  0  0  0  0  0  0
    2.9388    5.5858   16.1426 H   0  0  0  0  0  0  0  0  0  0  0  0
    4.1789    4.6079   16.0226 H   0  0  0  0  0  0  0  0  0  0  0  0
    2.2604    3.9867   13.6872 C   0  0  0  0  0  0  0  0  0  0  0  0
    2.2590    3.8259   14.6442 H   0  0  0  0  0  0  0  0  0  0  0  0
    1.3741    4.2585   13.4022 H   0  0  0  0  0  0  0  0  0  0  0  0
    2.5131    3.1735   13.2222 H   0  0  0  0  0  0  0  0  0  0  0  0
    2.0003    5.5643   11.0278 C   0  0  0  0  0  0  0  0  0  0  0  0
    1.5357    4.7020   11.1733 H   0  0  0  0  0  0  0  0  0  0  0  0
    2.0336    5.7939    9.5203 C   0  0  0  0  0  0  0  0  0  0  0  0
    2.7318    5.2271    9.1333 H   0  0  0  0  0  0  0  0  0  0  0  0
    2.2831    6.7266    9.3523 H   0  0  0  0  0  0  0  0  0  0  0  0
    0.7455    5.5110    8.8183 C   0  0  0  0  0  0  0  0  0  0  0  0
    0.8462    5.6936    7.8718 H   0  0  0  0  0  0  0  0  0  0  0  0
    0.5066    4.5784    8.9443 H   0  0  0  0  0  0  0  0  0  0  0  0
    0.0462    6.0752    9.1843 H   0  0  0  0  0  0  0  0  0  0  0  0
    1.0706    6.6816   11.6232 C   0  0  0  0  0  0  0  0  0  0  0  0
    0.2220    6.6799   11.1538 H   0  0  0  0  0  0  0  0  0  0  0  0
    0.9180    6.5069   12.5652 H   0  0  0  0  0  0  0  0  0  0  0  0
    1.4961    7.5460   11.5182 H   0  0  0  0  0  0  0  0  0  0  0  0
    5.9617    4.6239   11.3022 C   0  0  0  0  0  0  0  0  0  0  0  0
    6.0864    4.2548   12.2007 H   0  0  0  0  0  0  0  0  0  0  0  0
    6.1395    5.5860   11.3622 H   0  0  0  0  0  0  0  0  0  0  0  0
    6.9735    4.0580   10.4668 C   0  0  0  0  0  0  0  0  0  0  0  0
    7.8473    4.2405   10.8493 H   0  0  0  0  0  0  0  0  0  0  0  0
    6.8422    3.0990   10.4038 H   0  0  0  0  0  0  0  0  0  0  0  0
    6.9205    4.4509    9.5818 H   0  0  0  0  0  0  0  0  0  0  0  0
    4.0380    3.0079   10.8568 C   0  0  0  0  0  0  0  0  0  0  0  0
    4.6931    2.4950   10.3573 H   0  0  0  0  0  0  0  0  0  0  0  0
    3.9504    2.6387   11.7492 H   0  0  0  0  0  0  0  0  0  0  0  0
    3.1823    2.9678   10.4038 H   0  0  0  0  0  0  0  0  0  0  0  0
    4.6311   14.2299   11.2063 C   0  0  0  0  0  0  0  0  0  0  0  0
    4.1510   15.5725   10.6543 C   0  0  0  0  0  0  0  0  0  0  0  0
    4.5341   15.7133    9.7633 H   0  0  0  0  0  0  0  0  0  0  0  0
    3.1744   15.5576   10.5658 H   0  0  0  0  0  0  0  0  0  0  0  0
    4.5627   16.7364   11.5752 C   0  0  0  0  0  0  0  0  0  0  0  0
    4.1841   17.5710   11.2303 H   0  0  0  0  0  0  0  0  0  0  0  0
    5.5391   16.8224   11.5692 H   0  0  0  0  0  0  0  0  0  0  0  0
    4.0931   16.5284   12.9912 C   0  0  0  0  0  0  0  0  0  0  0  0
    3.1155   16.5748   13.0182 H   0  0  0  0  0  0  0  0  0  0  0  0
    4.4471   17.2467   13.5582 H   0  0  0  0  0  0  0  0  0  0  0  0
    4.5394   15.2051   13.5327 C   0  0  0  0  0  0  0  0  0  0  0  0
    5.5169   15.1990   13.6137 H   0  0  0  0  0  0  0  0  0  0  0  0
    4.1616   15.0757   14.4282 H   0  0  0  0  0  0  0  0  0  0  0  0
    4.0981   14.0643   12.6222 C   0  0  0  0  0  0  0  0  0  0  0  0
    3.1183   14.0312   12.5967 H   0  0  0  0  0  0  0  0  0  0  0  0
    4.4187   13.2146   12.9897 H   0  0  0  0  0  0  0  0  0  0  0  0
    5.6093   14.3324   11.3112 H   0  0  0  0  0  0  0  0  0  0  0  0
    2.6150   12.8266    9.6193 C   0  0  0  0  0  0  0  0  0  0  0  0
    1.7092   12.3722   10.7608 C   0  0  0  0  0  0  0  0  0  0  0  0
    1.8634   12.9506   11.5362 H   0  0  0  0  0  0  0  0  0  0  0  0
    1.9573   11.4596   11.0173 H   0  0  0  0  0  0  0  0  0  0  0  0
    0.2316   12.3989   10.4188 C   0  0  0  0  0  0  0  0  0  0  0  0
   -0.0504   13.3253   10.2673 H   0  0  0  0  0  0  0  0  0  0  0  0
   -0.2842   12.0434   11.1718 H   0  0  0  0  0  0  0  0  0  0  0  0
   -0.0528   11.5817    9.1873 C   0  0  0  0  0  0  0  0  0  0  0  0
   -0.9972   11.6769    8.9428 H   0  0  0  0  0  0  0  0  0  0  0  0
    0.1188   10.6357    9.3748 H   0  0  0  0  0  0  0  0  0  0  0  0
    0.8090   12.0294    8.0398 C   0  0  0  0  0  0  0  0  0  0  0  0
    0.6413   11.4540    7.2658 H   0  0  0  0  0  0  0  0  0  0  0  0
    0.5665   12.9468    7.7923 H   0  0  0  0  0  0  0  0  0  0  0  0
    2.2877   11.9811    8.3878 C   0  0  0  0  0  0  0  0  0  0  0  0
    2.5494   11.0513    8.5573 H   0  0  0  0  0  0  0  0  0  0  0  0
    2.8096   12.3061    7.6258 H   0  0  0  0  0  0  0  0  0  0  0  0
    2.3873   13.7672    9.4093 H   0  0  0  0  0  0  0  0  0  0  0  0
    4.5662   14.2101    8.2153 H   0  0  0  0  0  0  0  0  0  0  0  0
    5.0780   12.7750    7.8103 H   0  0  0  0  0  0  0  0  0  0  0  0
  1  2  1  0  0  0  0
  2  7  1  0  0  0  0
  3  1  1  0  0  0  0
  4  1  1  0  0  0  0
  5  6  1  0  0  0  0
  6  7  1  0  0  0  0
  7  3  1  0  0  0  0
  8  6  1  0  0  0  0
  9  8  1  0  0  0  0
 10  1  1  0  0  0  0
 11  1  1  0  0  0  0
 12  1  1  0  0  0  0
 13 14  1  0  0  0  0
 15 13  1  0  0  0  0
 16 13  1  0  0  0  0
 17 16  1  0  0  0  0
 18 16  1  0  0  0  0
 19 16  1  0  0  0  0
 20 19  1  0  0  0  0
 21 19  1  0  0  0  0
 22 19  1  0  0  0  0
 23 22  1  0  0  0  0
 24 22  1  0  0  0  0
 25 22  1  0  0  0  0
 26 25  1  0  0  0  0
 27 25  1  0  0  0  0
 28 10  1  0  0  0  0
 29 28  1  0  0  0  0
 30 31  1  0  0  0  0
 32 30  1  0  0  0  0
 33 30  1  0  0  0  0
 34 33  1  0  0  0  0
 35 33  1  0  0  0  0
 36 33  1  0  0  0  0
 37 36  1  0  0  0  0
 38 36  1  0  0  0  0
 39 36  1  0  0  0  0
 40 39  1  0  0  0  0
 41 39  1  0  0  0  0
 42 39  1  0  0  0  0
 43 42  1  0  0  0  0
 44 42  1  0  0  0  0
 45 10  1  0  0  0  0
 46 45  1  0  0  0  0
 47 10  1  0  0  0  0
 48 47  1  0  0  0  0
 49 47  1  0  0  0  0
 50 47  1  0  0  0  0
 51 50  1  0  0  0  0
 52 50  1  0  0  0  0
 53 50  1  0  0  0  0
 54 53  1  0  0  0  0
 55 53  1  0  0  0  0
 56 11  1  0  0  0  0
 57 56  1  0  0  0  0
 58 56  1  0  0  0  0
 59 60  1  0  0  0  0
 61 59  1  0  0  0  0
 62 59  1  0  0  0  0
 63 62  1  0  0  0  0
 64 62  1  0  0  0  0
 65 62  1  0  0  0  0
 66 65  1  0  0  0  0
 67 65  1  0  0  0  0
 68 65  1  0  0  0  0
 69 68  1  0  0  0  0
 70 68  1  0  0  0  0
 71 68  1  0  0  0  0
 72 71  1  0  0  0  0
 73 71  1  0  0  0  0
 74 11  1  0  0  0  0
 75 74  1  0  0  0  0
 76 77  1  0  0  0  0
 78 76  1  0  0  0  0
 79 76  1  0  0  0  0
 80 79  1  0  0  0  0
 81 79  1  0  0  0  0
 82 79  1  0  0  0  0
 83 82  1  0  0  0  0
 84 82  1  0  0  0  0
 85 82  1  0  0  0  0
 86 85  1  0  0  0  0
 87 85  1  0  0  0  0
 88 85  1  0  0  0  0
 89 88  1  0  0  0  0
 90 88  1  0  0  0  0
 91 11  1  0  0  0  0
 92 91  1  0  0  0  0
 93  5  1  0  0  0  0
 94 93  1  0  0  0  0
 95 93  1  0  0  0  0
 96 95  1  0  0  0  0
 97 95  1  0  0  0  0
 98 95  1  0  0  0  0
 99 98  1  0  0  0  0
100 98  1  0  0  0  0
101 98  1  0  0  0  0
102 93  1  0  0  0  0
103102  1  0  0  0  0
104102  1  0  0  0  0
105102  1  0  0  0  0
106  5  1  0  0  0  0
107106  1  0  0  0  0
108106  1  0  0  0  0
109108  1  0  0  0  0
110108  1  0  0  0  0
111108  1  0  0  0  0
112111  1  0  0  0  0
113111  1  0  0  0  0
114111  1  0  0  0  0
115106  1  0  0  0  0
116115  1  0  0  0  0
117115  1  0  0  0  0
118115  1  0  0  0  0
119  5  1  0  0  0  0
120119  1  0  0  0  0
121119  1  0  0  0  0
122121  1  0  0  0  0
123121  1  0  0  0  0
124121  1  0  0  0  0
125124  1  0  0  0  0
126124  1  0  0  0  0
127124  1  0  0  0  0
128119  1  0  0  0  0
129128  1  0  0  0  0
130128  1  0  0  0  0
131128  1  0  0  0  0
132  9  1  0  0  0  0
133134  1  0  0  0  0
134135  1  0  0  0  0
135136  1  0  0  0  0
136133  1  0  0  0  0
137133  1  0  0  0  0
138133  1  0  0  0  0
139138  1  0  0  0  0
140139  1  0  0  0  0
141140  1  0  0  0  0
142140  1  0  0  0  0
143140  1  0  0  0  0
144143  1  0  0  0  0
145143  1  0  0  0  0
146143  1  0  0  0  0
147146  1  0  0  0  0
148146  1  0  0  0  0
149146  1  0  0  0  0
150149  1  0  0  0  0
151149  1  0  0  0  0
152139  1  0  0  0  0
153152  1  0  0  0  0
154152  1  0  0  0  0
155139  1  0  0  0  0
156138  1  0  0  0  0
157156  1  0  0  0  0
158157  1  0  0  0  0
159157  1  0  0  0  0
160157  1  0  0  0  0
161160  1  0  0  0  0
162160  1  0  0  0  0
163160  1  0  0  0  0
164163  1  0  0  0  0
165163  1  0  0  0  0
166163  1  0  0  0  0
167166  1  0  0  0  0
168166  1  0  0  0  0
169156  1  0  0  0  0
170169  1  0  0  0  0
171169  1  0  0  0  0
172156  1  0  0  0  0
173138  1  0  0  0  0
174173  1  0  0  0  0
175173  1  0  0  0  0
176173  1  0  0  0  0
177176  1  0  0  0  0
178176  1  0  0  0  0
179176  1  0  0  0  0
180179  1  0  0  0  0
181179  1  0  0  0  0
182179  1  0  0  0  0
183133  1  0  0  0  0
184133  1  0  0  0  0
185186  1  0  0  0  0
186132  1  0  0  0  0
187  8  1  0  0  0  0
188189  1  0  0  0  0
189185  1  0  0  0  0
190185  1  0  0  0  0
191190  1  0  0  0  0
192190  1  0  0  0  0
193192  1  0  0  0  0
194192  1  0  0  0  0
195192  1  0  0  0  0
196195  1  0  0  0  0
197195  1  0  0  0  0
198195  1  0  0  0  0
199190  1  0  0  0  0
200199  1  0  0  0  0
201199  1  0  0  0  0
202199  1  0  0  0  0
203185  1  0  0  0  0
204203  1  0  0  0  0
205203  1  0  0  0  0
206205  1  0  0  0  0
207205  1  0  0  0  0
208205  1  0  0  0  0
209208  1  0  0  0  0
210208  1  0  0  0  0
211208  1  0  0  0  0
212203  1  0  0  0  0
213212  1  0  0  0  0
214212  1  0  0  0  0
215212  1  0  0  0  0
216189  1  0  0  0  0
217216  1  0  0  0  0
218216  1  0  0  0  0
219216  1  0  0  0  0
220219  1  0  0  0  0
221219  1  0  0  0  0
222219  1  0  0  0  0
223189  1  0  0  0  0
224223  1  0  0  0  0
225223  1  0  0  0  0
226223  1  0  0  0  0
227183  1  0  0  0  0
228227  1  0  0  0  0
229228  1  0  0  0  0
230228  1  0  0  0  0
231228  1  0  0  0  0
232231  1  0  0  0  0
233231  1  0  0  0  0
234231  1  0  0  0  0
235234  1  0  0  0  0
236234  1  0  0  0  0
237234  1  0  0  0  0
238237  1  0  0  0  0
239237  1  0  0  0  0
240227  1  0  0  0  0
241240  1  0  0  0  0
242240  1  0  0  0  0
243227  1  0  0  0  0
244183  1  0  0  0  0
245244  1  0  0  0  0
246245  1  0  0  0  0
247245  1  0  0  0  0
248245  1  0  0  0  0
249248  1  0  0  0  0
250248  1  0  0  0  0
251248  1  0  0  0  0
252251  1  0  0  0  0
253251  1  0  0  0  0
254251  1  0  0  0  0
255254  1  0  0  0  0
256254  1  0  0  0  0
257244  1  0  0  0  0
258257  1  0  0  0  0
259257  1  0  0  0  0
260244  1  0  0  0  0
261182  1  0  0  0  0
262182  1  0  0  0  0
  4  7  1  0  0  0  0
  9 12  3  0  0  0  0
 13 28  1  0  0  0  0
 25 28  1  0  0  0  0
 30 45  1  0  0  0  0
 42 45  1  0  0  0  0
 53 56  1  0  0  0  0
 59 74  1  0  0  0  0
 71 74  1  0  0  0  0
 76 91  1  0  0  0  0
 88 91  1  0  0  0  0
132187  1  0  0  0  0
135137  1  0  0  0  0
135186  1  0  0  0  0
149152  1  0  0  0  0
166169  1  0  0  0  0
182183  1  0  0  0  0
184187  3  0  0  0  0
237240  1  0  0  0  0
254257  1  0  0  0  0
M  END
$$$$
XILLAJ

From CSD data. Using bond type 'Any'. No disordered atoms. Largest molecule.
 92112  0  0  0  0  0  0  0  0999 V2000
    6.8122    9.6142    6.0345 C   0  0  0  0  0  0  0  0  0  0  0  0
    6.3705    9.5913    6.7122 H   0  0  0  0  0  0  0  0  0  0  0  0
    6.4640    8.1832    4.5478 Rh  0  0  0  0  0  0  0  0  0  0  0  0
    6.4635   10.5176    4.7767 B   0  0  0  0  0  0  0  0  0  0  0  0
    5.4992   11.0966    4.7572 H   0  0  0  0  0  0  0  0  0  0  0  0
    7.9486   10.7536    5.8585 B   0  0  0  0  0  0  0  0  0  0  0  0
    8.1444   11.4156    6.7285 H   0  0  0  0  0  0  0  0  0  0  0  0
    8.2600    8.9468    5.7656 B   0  0  0  0  0  0  0  0  0  0  0  0
    8.6737    8.3088    6.5167 H   0  0  0  0  0  0  0  0  0  0  0  0
    7.2701    9.8775    3.2030 B   0  0  0  0  0  0  0  0  0  0  0  0
    6.6924    9.8753    2.2483 H   0  0  0  0  0  0  0  0  0  0  0  0
    7.9871   11.2561    4.1560 B   0  0  0  0  0  0  0  0  0  0  0  0
    8.0199   12.2567    3.9915 H   0  0  0  0  0  0  0  0  0  0  0  0
    9.2872   10.1637    4.8598 B   0  0  0  0  0  0  0  0  0  0  0  0
   10.2713   10.3996    5.2459 H   0  0  0  0  0  0  0  0  0  0  0  0
    8.6122    8.7414    3.9524 B   0  0  0  0  0  0  0  0  0  0  0  0
    9.1634    7.8653    3.5027 H   0  0  0  0  0  0  0  0  0  0  0  0
    8.9448   10.2227    3.1834 B   0  0  0  0  0  0  0  0  0  0  0  0
    9.8593   10.5176    1.9224 C   0  0  0  0  0  0  0  0  0  0  0  0
   10.3877   11.3153    2.0857 H   0  0  0  0  0  0  0  0  0  0  0  0
    9.2999   10.6559    1.1418 H   0  0  0  0  0  0  0  0  0  0  0  0
   10.4507    9.7649    1.7670 H   0  0  0  0  0  0  0  0  0  0  0  0
    6.8073    7.0809    3.0335 C   0  0  0  0  0  0  0  0  0  0  0  0
    7.0910    6.4899    2.1065 O   0  0  0  0  0  0  0  0  0  0  0  0
    4.1028    8.3518    4.0783 P   0  0  0  0  0  0  0  0  0  0  0  0
    3.6737    9.7241    2.9358 C   0  0  0  0  0  0  0  0  0  0  0  0
    4.0690    9.5651    1.6031 C   0  0  0  0  0  0  0  0  0  0  0  0
    4.5613    8.8063    1.3472 H   0  0  0  0  0  0  0  0  0  0  0  0
    3.7359   10.5220    0.6598 C   0  0  0  0  0  0  0  0  0  0  0  0
    3.9958   10.4024   -0.2361 H   0  0  0  0  0  0  0  0  0  0  0  0
    3.0321   11.6450    1.0166 C   0  0  0  0  0  0  0  0  0  0  0  0
    2.8226   12.2956    0.3714 H   0  0  0  0  0  0  0  0  0  0  0  0
    2.6343   11.8110    2.3281 C   0  0  0  0  0  0  0  0  0  0  0  0
    2.1619   12.5854    2.5777 H   0  0  0  0  0  0  0  0  0  0  0  0
    2.9275   10.8453    3.2844 C   0  0  0  0  0  0  0  0  0  0  0  0
    2.6218   10.9486    4.1667 H   0  0  0  0  0  0  0  0  0  0  0  0
    3.0476    8.5801    5.5636 C   0  0  0  0  0  0  0  0  0  0  0  0
    3.1640    9.7355    6.3342 C   0  0  0  0  0  0  0  0  0  0  0  0
    3.7857   10.3997    6.0990 H   0  0  0  0  0  0  0  0  0  0  0  0
    2.3499    9.9015    7.4616 C   0  0  0  0  0  0  0  0  0  0  0  0
    2.4114   10.6916    7.9673 H   0  0  0  0  0  0  0  0  0  0  0  0
    1.4647    8.9249    7.8331 C   0  0  0  0  0  0  0  0  0  0  0  0
    0.9217    9.0442    8.5911 H   0  0  0  0  0  0  0  0  0  0  0  0
    1.3749    7.7626    7.0885 C   0  0  0  0  0  0  0  0  0  0  0  0
    0.7797    7.0862    7.3565 H   0  0  0  0  0  0  0  0  0  0  0  0
    2.1514    7.5813    5.9497 C   0  0  0  0  0  0  0  0  0  0  0  0
    2.0739    6.7913    5.4452 H   0  0  0  0  0  0  0  0  0  0  0  0
    3.2315    7.0029    3.1801 C   0  0  0  0  0  0  0  0  0  0  0  0
    1.8701    7.1880    2.8755 C   0  0  0  0  0  0  0  0  0  0  0  0
    1.4405    7.9877    3.1163 H   0  0  0  0  0  0  0  0  0  0  0  0
    1.1673    6.2005    2.2271 C   0  0  0  0  0  0  0  0  0  0  0  0
    0.2543    6.3257    2.0410 H   0  0  0  0  0  0  0  0  0  0  0  0
    1.7871    5.0316    1.8491 C   0  0  0  0  0  0  0  0  0  0  0  0
    1.2987    4.3563    1.4134 H   0  0  0  0  0  0  0  0  0  0  0  0
    3.1216    4.8546    2.1114 C   0  0  0  0  0  0  0  0  0  0  0  0
    3.5540    4.0655    1.8411 H   0  0  0  0  0  0  0  0  0  0  0  0
    3.8315    5.8378    2.7729 C   0  0  0  0  0  0  0  0  0  0  0  0
    4.7455    5.7058    2.9488 H   0  0  0  0  0  0  0  0  0  0  0  0
    6.3354    6.4362    6.2526 P   0  0  0  0  0  0  0  0  0  0  0  0
    5.0078    5.1598    6.1941 C   0  0  0  0  0  0  0  0  0  0  0  0
    5.0818    4.2320    5.1661 C   0  0  0  0  0  0  0  0  0  0  0  0
    5.7766    4.2922    4.5365 H   0  0  0  0  0  0  0  0  0  0  0  0
    4.1447    3.2117    5.0537 C   0  0  0  0  0  0  0  0  0  0  0  0
    4.2104    2.5970    4.3454 H   0  0  0  0  0  0  0  0  0  0  0  0
    3.1175    3.0893    5.9709 C   0  0  0  0  0  0  0  0  0  0  0  0
    2.4792    2.4047    5.8906 H   0  0  0  0  0  0  0  0  0  0  0  0
    3.0517    3.9960    7.0055 C   0  0  0  0  0  0  0  0  0  0  0  0
    2.3657    3.9198    7.6429 H   0  0  0  0  0  0  0  0  0  0  0  0
    3.9845    5.0294    7.1244 C   0  0  0  0  0  0  0  0  0  0  0  0
    3.9204    5.6373    7.8383 H   0  0  0  0  0  0  0  0  0  0  0  0
    6.2717    7.1170    7.9650 C   0  0  0  0  0  0  0  0  0  0  0  0
    7.3935    7.1093    8.7829 C   0  0  0  0  0  0  0  0  0  0  0  0
    8.1844    6.7004    8.4827 H   0  0  0  0  0  0  0  0  0  0  0  0
    7.3598    7.6927   10.0341 C   0  0  0  0  0  0  0  0  0  0  0  0
    8.1276    7.6860   10.5769 H   0  0  0  0  0  0  0  0  0  0  0  0
    6.1992    8.2869   10.4903 C   0  0  0  0  0  0  0  0  0  0  0  0
    6.1767    8.6796   11.3442 H   0  0  0  0  0  0  0  0  0  0  0  0
    5.0764    8.3066    9.6952 C   0  0  0  0  0  0  0  0  0  0  0  0
    4.2841    8.6995   10.0133 H   0  0  0  0  0  0  0  0  0  0  0  0
    5.1079    7.7497    8.4277 C   0  0  0  0  0  0  0  0  0  0  0  0
    4.3477    7.7952    7.8762 H   0  0  0  0  0  0  0  0  0  0  0  0
    7.7807    5.3005    6.3212 C   0  0  0  0  0  0  0  0  0  0  0  0
    7.7622    4.2429    7.2205 C   0  0  0  0  0  0  0  0  0  0  0  0
    7.0376    4.1535    7.8132 H   0  0  0  0  0  0  0  0  0  0  0  0
    8.7896    3.3187    7.2612 C   0  0  0  0  0  0  0  0  0  0  0  0
    8.7696    2.6136    7.8806 H   0  0  0  0  0  0  0  0  0  0  0  0
    9.8493    3.4454    6.3782 C   0  0  0  0  0  0  0  0  0  0  0  0
   10.5431    2.8105    6.3934 H   0  0  0  0  0  0  0  0  0  0  0  0
    9.8983    4.4832    5.4838 C   0  0  0  0  0  0  0  0  0  0  0  0
   10.6261    4.5636    4.8947 H   0  0  0  0  0  0  0  0  0  0  0  0
    8.8603    5.4205    5.4496 C   0  0  0  0  0  0  0  0  0  0  0  0
    8.8921    6.1346    4.8384 H   0  0  0  0  0  0  0  0  0  0  0  0
  1  2  1  0  0  0  0
  3  1  1  0  0  0  0
  4  1  1  0  0  0  0
  5  4  1  0  0  0  0
  6  1  1  0  0  0  0
  7  6  1  0  0  0  0
  8  1  1  0  0  0  0
  9  8  1  0  0  0  0
 10  3  1  0  0  0  0
 11 10  1  0  0  0  0
 12  4  1  0  0  0  0
 13 12  1  0  0  0  0
 14  6  1  0  0  0  0
 15 14  1  0  0  0  0
 16  3  1  0  0  0  0
 17 16  1  0  0  0  0
 18 10  1  0  0  0  0
 19 18  1  0  0  0  0
 20 19  1  0  0  0  0
 21 19  1  0  0  0  0
 22 19  1  0  0  0  0
 23  3  1  0  0  0  0
 24 23  3  0  0  0  0
 25  3  1  0  0  0  0
 26 25  1  0  0  0  0
 27 26  4  0  0  0  0
 28 27  1  0  0  0  0
 29 27  4  0  0  0  0
 30 29  1  0  0  0  0
 31 29  4  0  0  0  0
 32 31  1  0  0  0  0
 33 31  4  0  0  0  0
 34 33  1  0  0  0  0
 35 26  4  0  0  0  0
 36 35  1  0  0  0  0
 37 25  1  0  0  0  0
 38 37  4  0  0  0  0
 39 38  1  0  0  0  0
 40 38  4  0  0  0  0
 41 40  1  0  0  0  0
 42 40  4  0  0  0  0
 43 42  1  0  0  0  0
 44 42  4  0  0  0  0
 45 44  1  0  0  0  0
 46 37  4  0  0  0  0
 47 46  1  0  0  0  0
 48 25  1  0  0  0  0
 49 48  4  0  0  0  0
 50 49  1  0  0  0  0
 51 49  4  0  0  0  0
 52 51  1  0  0  0  0
 53 51  4  0  0  0  0
 54 53  1  0  0  0  0
 55 53  4  0  0  0  0
 56 55  1  0  0  0  0
 57 48  4  0  0  0  0
 58 57  1  0  0  0  0
 59  3  1  0  0  0  0
 60 59  1  0  0  0  0
 61 60  4  0  0  0  0
 62 61  1  0  0  0  0
 63 61  4  0  0  0  0
 64 63  1  0  0  0  0
 65 63  4  0  0  0  0
 66 65  1  0  0  0  0
 67 65  4  0  0  0  0
 68 67  1  0  0  0  0
 69 60  4  0  0  0  0
 70 69  1  0  0  0  0
 71 59  1  0  0  0  0
 72 71  4  0  0  0  0
 73 72  1  0  0  0  0
 74 72  4  0  0  0  0
 75 74  1  0  0  0  0
 76 74  4  0  0  0  0
 77 76  1  0  0  0  0
 78 76  4  0  0  0  0
 79 78  1  0  0  0  0
 80 71  4  0  0  0  0
 81 80  1  0  0  0  0
 82 59  1  0  0  0  0
 83 82  4  0  0  0  0
 84 83  1  0  0  0  0
 85 83  4  0  0  0  0
 86 85  1  0  0  0  0
 87 85  4  0  0  0  0
 88 87  1  0  0  0  0
 89 87  4  0  0  0  0
 90 89  1  0  0  0  0
 91 82  4  0  0  0  0
 92 91  1  0  0  0  0
  3  4  1  0  0  0  0
  3  8  1  0  0  0  0
  4  6  1  0  0  0  0
  4 10  1  0  0  0  0
  6  8  1  0  0  0  0
  6 12  1  0  0  0  0
  8 14  1  0  0  0  0
  8 16  1  0  0  0  0
 10 12  1  0  0  0  0
 10 16  1  0  0  0  0
 12 14  1  0  0  0  0
 12 18  1  0  0  0  0
 14 16  1  0  0  0  0
 14 18  1  0  0  0  0
 16 18  1  0  0  0  0
 33 35  4  0  0  0  0
 44 46  4  0  0  0  0
 55 57  4  0  0  0  0
 67 69  4  0  0  0  0
 78 80  4  0  0  0  0
 89 91  4  0  0  0  0
M  END
$$$$
XIPSAR

From CSD data. Using bond type 'Any'. No disordered atoms. Largest molecule.
137168  0  0  0  0  0  0  0  0999 V2000
    1.9691    6.6488    4.1811 Ru  0  0  0  0  0  0  0  0  0  0  0  0
    2.6029    9.5634    4.2144 Ru  0  0  0  0  0  0  0  0  0  0  0  0
    2.5903    5.0200    5.2713 B   0  0  0  0  0  0  0  0  0  0  0  0
    3.4133    7.7875    3.2760 B   0  0  0  0  0  0  0  0  0  0  0  0
    3.2786    4.7480    3.7217 B   0  0  0  0  0  0  0  0  0  0  0  0
    2.9749    3.8518    3.1610 H   0  0  0  0  0  0  0  0  0  0  0  0
    3.6546    6.1557    2.7188 B   0  0  0  0  0  0  0  0  0  0  0  0
    3.5091    5.9601    1.6451 H   0  0  0  0  0  0  0  0  0  0  0  0
    3.8425    7.6858    4.9493 B   0  0  0  0  0  0  0  0  0  0  0  0
    3.5217    6.3382    5.9735 B   0  0  0  0  0  0  0  0  0  0  0  0
    3.3913    6.5950    7.0349 H   0  0  0  0  0  0  0  0  0  0  0  0
    4.2887    4.8362    5.2624 B   0  0  0  0  0  0  0  0  0  0  0  0
    4.7437    4.0013    5.8143 H   0  0  0  0  0  0  0  0  0  0  0  0
    4.9760    7.1411    3.5519 B   0  0  0  0  0  0  0  0  0  0  0  0
    5.8429    7.6509    3.1062 H   0  0  0  0  0  0  0  0  0  0  0  0
    4.9389    5.3877    3.7023 B   0  0  0  0  0  0  0  0  0  0  0  0
    5.7583    4.8181    3.2388 H   0  0  0  0  0  0  0  0  0  0  0  0
    5.1095    6.3935    5.1687 B   0  0  0  0  0  0  0  0  0  0  0  0
    6.0437    6.5399    5.7312 H   0  0  0  0  0  0  0  0  0  0  0  0
   -4.1950    2.9727    9.4794 Br  0  0  0  0  0  0  0  0  0  0  0  0
    0.2944    6.0093    5.4499 O   0  0  0  0  0  0  0  0  0  0  0  0
    1.5960    4.2976    6.0354 O   0  0  0  0  0  0  0  0  0  0  0  0
    0.3132    6.6008    2.4020 P   0  0  0  0  0  0  0  0  0  0  0  0
    1.4748   10.5335    5.9981 P   0  0  0  0  0  0  0  0  0  0  0  0
    3.9932   11.2789    3.4900 P   0  0  0  0  0  0  0  0  0  0  0  0
    0.4662    4.9441    6.0620 C   0  0  0  0  0  0  0  0  0  0  0  0
   -0.6566    4.3883    6.8633 C   0  0  0  0  0  0  0  0  0  0  0  0
   -1.8829    5.0067    6.7996 C   0  0  0  0  0  0  0  0  0  0  0  0
   -1.9954    5.7377    6.2335 H   0  0  0  0  0  0  0  0  0  0  0  0
   -2.9517    4.5649    7.5567 C   0  0  0  0  0  0  0  0  0  0  0  0
   -3.7865    4.9714    7.4912 H   0  0  0  0  0  0  0  0  0  0  0  0
   -2.7452    3.5165    8.4004 C   0  0  0  0  0  0  0  0  0  0  0  0
   -1.5575    2.8700    8.4712 C   0  0  0  0  0  0  0  0  0  0  0  0
   -1.4647    2.1366    9.0355 H   0  0  0  0  0  0  0  0  0  0  0  0
   -0.4732    3.2936    7.7017 C   0  0  0  0  0  0  0  0  0  0  0  0
    0.3477    2.8579    7.7477 H   0  0  0  0  0  0  0  0  0  0  0  0
    0.2807    5.0376    1.4505 C   0  0  0  0  0  0  0  0  0  0  0  0
    0.2275    3.8612    2.1527 C   0  0  0  0  0  0  0  0  0  0  0  0
    0.2369    3.8849    3.0832 H   0  0  0  0  0  0  0  0  0  0  0  0
    0.1602    2.6308    1.5053 C   0  0  0  0  0  0  0  0  0  0  0  0
    0.1206    1.8427    1.9971 H   0  0  0  0  0  0  0  0  0  0  0  0
    0.1517    2.5950    0.1557 C   0  0  0  0  0  0  0  0  0  0  0  0
    0.1005    1.7765   -0.2813 H   0  0  0  0  0  0  0  0  0  0  0  0
    0.2167    3.7429   -0.5731 C   0  0  0  0  0  0  0  0  0  0  0  0
    0.2306    3.6996   -1.5018 H   0  0  0  0  0  0  0  0  0  0  0  0
    0.2599    4.9864    0.0619 C   0  0  0  0  0  0  0  0  0  0  0  0
    0.2744    5.7700   -0.4369 H   0  0  0  0  0  0  0  0  0  0  0  0
   -1.4034    6.7120    3.0637 C   0  0  0  0  0  0  0  0  0  0  0  0
   -1.6591    7.6552    4.0472 C   0  0  0  0  0  0  0  0  0  0  0  0
   -0.9760    8.2001    4.3656 H   0  0  0  0  0  0  0  0  0  0  0  0
   -2.9522    7.7754    4.5513 C   0  0  0  0  0  0  0  0  0  0  0  0
   -3.1299    8.4072    5.2111 H   0  0  0  0  0  0  0  0  0  0  0  0
   -3.9637    6.9816    4.0914 C   0  0  0  0  0  0  0  0  0  0  0  0
   -4.8233    7.0724    4.4328 H   0  0  0  0  0  0  0  0  0  0  0  0
   -3.6982    6.0484    3.1238 C   0  0  0  0  0  0  0  0  0  0  0  0
   -4.3824    5.5032    2.8090 H   0  0  0  0  0  0  0  0  0  0  0  0
   -2.4276    5.9106    2.6144 C   0  0  0  0  0  0  0  0  0  0  0  0
   -2.2602    5.2715    1.9617 H   0  0  0  0  0  0  0  0  0  0  0  0
    0.3339    7.9136    1.1339 C   0  0  0  0  0  0  0  0  0  0  0  0
    1.4752    8.1275    0.3785 C   0  0  0  0  0  0  0  0  0  0  0  0
    2.2326    7.6133    0.5377 H   0  0  0  0  0  0  0  0  0  0  0  0
    1.5051    9.0961   -0.6067 C   0  0  0  0  0  0  0  0  0  0  0  0
    2.2742    9.2207   -1.1126 H   0  0  0  0  0  0  0  0  0  0  0  0
    0.4026    9.8689   -0.8349 C   0  0  0  0  0  0  0  0  0  0  0  0
    0.4240   10.5181   -1.5000 H   0  0  0  0  0  0  0  0  0  0  0  0
   -0.7258    9.6901   -0.0920 C   0  0  0  0  0  0  0  0  0  0  0  0
   -1.4722   10.2270   -0.2441 H   0  0  0  0  0  0  0  0  0  0  0  0
   -0.7674    8.7098    0.8933 C   0  0  0  0  0  0  0  0  0  0  0  0
   -1.5416    8.5896    1.3939 H   0  0  0  0  0  0  0  0  0  0  0  0
    0.3620    9.4134    6.9517 C   0  0  0  0  0  0  0  0  0  0  0  0
   -0.9442    9.7128    7.2294 C   0  0  0  0  0  0  0  0  0  0  0  0
   -1.3341   10.4633    6.8456 H   0  0  0  0  0  0  0  0  0  0  0  0
   -1.6921    8.9139    8.0767 C   0  0  0  0  0  0  0  0  0  0  0  0
   -2.5850    9.1152    8.2377 H   0  0  0  0  0  0  0  0  0  0  0  0
   -1.1228    7.8318    8.6764 C   0  0  0  0  0  0  0  0  0  0  0  0
   -1.6271    7.2994    9.2477 H   0  0  0  0  0  0  0  0  0  0  0  0
    0.1897    7.5309    8.4376 C   0  0  0  0  0  0  0  0  0  0  0  0
    0.5808    6.7941    8.8515 H   0  0  0  0  0  0  0  0  0  0  0  0
    0.9399    8.3248    7.5761 C   0  0  0  0  0  0  0  0  0  0  0  0
    1.8339    8.1229    7.4205 H   0  0  0  0  0  0  0  0  0  0  0  0
    0.3101   11.8926    5.5808 C   0  0  0  0  0  0  0  0  0  0  0  0
    0.1723   13.0359    6.3857 C   0  0  0  0  0  0  0  0  0  0  0  0
    0.7025   13.1380    7.1428 H   0  0  0  0  0  0  0  0  0  0  0  0
   -0.7640   14.0178    6.0514 C   0  0  0  0  0  0  0  0  0  0  0  0
   -0.8633   14.7665    6.5926 H   0  0  0  0  0  0  0  0  0  0  0  0
   -1.5219   13.8844    4.9440 C   0  0  0  0  0  0  0  0  0  0  0  0
   -2.1278   14.5528    4.7176 H   0  0  0  0  0  0  0  0  0  0  0  0
   -1.4091   12.7705    4.1445 C   0  0  0  0  0  0  0  0  0  0  0  0
   -1.9483   12.6782    3.3927 H   0  0  0  0  0  0  0  0  0  0  0  0
   -0.4867   11.7834    4.4664 C   0  0  0  0  0  0  0  0  0  0  0  0
   -0.4069   11.0353    3.9198 H   0  0  0  0  0  0  0  0  0  0  0  0
    2.4589   11.1961    7.4010 C   0  0  0  0  0  0  0  0  0  0  0  0
    3.6979   11.6937    7.1657 C   0  0  0  0  0  0  0  0  0  0  0  0
    4.0294   11.6829    6.2972 H   0  0  0  0  0  0  0  0  0  0  0  0
    4.4834   12.2167    8.1722 C   0  0  0  0  0  0  0  0  0  0  0  0
    5.3205   12.5744    7.9794 H   0  0  0  0  0  0  0  0  0  0  0  0
    4.0099   12.2008    9.4706 C   0  0  0  0  0  0  0  0  0  0  0  0
    4.5291   12.5470   10.1605 H   0  0  0  0  0  0  0  0  0  0  0  0
    2.7884   11.6813    9.7395 C   0  0  0  0  0  0  0  0  0  0  0  0
    2.4719   11.6590   10.6133 H   0  0  0  0  0  0  0  0  0  0  0  0
    2.0154   11.1840    8.7118 C   0  0  0  0  0  0  0  0  0  0  0  0
    1.1766   10.8330    8.9028 H   0  0  0  0  0  0  0  0  0  0  0  0
    4.1199   11.3370    1.6451 C   0  0  0  0  0  0  0  0  0  0  0  0
    4.7330   10.2517    1.0153 C   0  0  0  0  0  0  0  0  0  0  0  0
    4.9979    9.5159    1.5177 H   0  0  0  0  0  0  0  0  0  0  0  0
    4.9480   10.2654   -0.3467 C   0  0  0  0  0  0  0  0  0  0  0  0
    5.3556    9.5380   -0.7589 H   0  0  0  0  0  0  0  0  0  0  0  0
    4.5621   11.3502   -1.0932 C   0  0  0  0  0  0  0  0  0  0  0  0
    4.7081   11.3540   -2.0130 H   0  0  0  0  0  0  0  0  0  0  0  0
    3.9676   12.4232   -0.4953 C   0  0  0  0  0  0  0  0  0  0  0  0
    3.7134   13.1597   -1.0030 H   0  0  0  0  0  0  0  0  0  0  0  0
    3.7409   12.4092    0.8827 C   0  0  0  0  0  0  0  0  0  0  0  0
    3.3288   13.1373    1.2877 H   0  0  0  0  0  0  0  0  0  0  0  0
    3.6467   13.0182    3.9464 C   0  0  0  0  0  0  0  0  0  0  0  0
    4.5869   13.8299    4.5549 C   0  0  0  0  0  0  0  0  0  0  0  0
    5.4371   13.4926    4.7265 H   0  0  0  0  0  0  0  0  0  0  0  0
    4.2872   15.1528    4.9228 C   0  0  0  0  0  0  0  0  0  0  0  0
    4.9251   15.6827    5.3438 H   0  0  0  0  0  0  0  0  0  0  0  0
    3.0345   15.6524    4.6451 C   0  0  0  0  0  0  0  0  0  0  0  0
    2.8270   16.5312    4.8715 H   0  0  0  0  0  0  0  0  0  0  0  0
    2.0998   14.8721    4.0472 C   0  0  0  0  0  0  0  0  0  0  0  0
    1.2528   15.2150    3.8721 H   0  0  0  0  0  0  0  0  0  0  0  0
    2.4030   13.5705    3.6987 C   0  0  0  0  0  0  0  0  0  0  0  0
    1.7524   13.0516    3.2848 H   0  0  0  0  0  0  0  0  0  0  0  0
    5.8014   11.1596    3.8526 C   0  0  0  0  0  0  0  0  0  0  0  0
    6.3106   10.3286    4.8291 C   0  0  0  0  0  0  0  0  0  0  0  0
    5.7309    9.8082    5.3367 H   0  0  0  0  0  0  0  0  0  0  0  0
    7.6720   10.2580    5.0625 C   0  0  0  0  0  0  0  0  0  0  0  0
    7.9968    9.6863    5.7206 H   0  0  0  0  0  0  0  0  0  0  0  0
    8.5447   11.0148    4.3408 C   0  0  0  0  0  0  0  0  0  0  0  0
    9.4576   10.9690    4.5124 H   0  0  0  0  0  0  0  0  0  0  0  0
    8.0639   11.8481    3.3556 C   0  0  0  0  0  0  0  0  0  0  0  0
    8.6507   12.3701    2.8567 H   0  0  0  0  0  0  0  0  0  0  0  0
    6.7126   11.9053    3.1132 C   0  0  0  0  0  0  0  0  0  0  0  0
    6.3980   12.4598    2.4340 H   0  0  0  0  0  0  0  0  0  0  0  0
    3.8611    8.7895    5.3951 H   0  0  0  0  0  0  0  0  0  0  0  0
    3.0694    8.9705    2.7418 H   0  0  0  0  0  0  0  0  0  0  0  0
  1  2  1  0  0  0  0
  2  4  1  0  0  0  0
  3  1  1  0  0  0  0
  4  1  1  0  0  0  0
  5  1  1  0  0  0  0
  6  5  1  0  0  0  0
  7  1  1  0  0  0  0
  8  7  1  0  0  0  0
  9  1  1  0  0  0  0
 10  1  1  0  0  0  0
 11 10  1  0  0  0  0
 12  3  1  0  0  0  0
 13 12  1  0  0  0  0
 14  4  1  0  0  0  0
 15 14  1  0  0  0  0
 16  5  1  0  0  0  0
 17 16  1  0  0  0  0
 18  9  1  0  0  0  0
 19 18  1  0  0  0  0
 20 32  1  0  0  0  0
 21  1  1  0  0  0  0
 22  3  1  0  0  0  0
 23  1  1  0  0  0  0
 24  2  1  0  0  0  0
 25  2  1  0  0  0  0
 26 21  2  0  0  0  0
 27 26  1  0  0  0  0
 28 27  4  0  0  0  0
 29 28  1  0  0  0  0
 30 28  4  0  0  0  0
 31 30  1  0  0  0  0
 32 30  4  0  0  0  0
 33 32  4  0  0  0  0
 34 33  1  0  0  0  0
 35 27  4  0  0  0  0
 36 35  1  0  0  0  0
 37 23  1  0  0  0  0
 38 37  4  0  0  0  0
 39 38  1  0  0  0  0
 40 38  4  0  0  0  0
 41 40  1  0  0  0  0
 42 40  4  0  0  0  0
 43 42  1  0  0  0  0
 44 42  4  0  0  0  0
 45 44  1  0  0  0  0
 46 37  4  0  0  0  0
 47 46  1  0  0  0  0
 48 23  1  0  0  0  0
 49 48  4  0  0  0  0
 50 49  1  0  0  0  0
 51 49  4  0  0  0  0
 52 51  1  0  0  0  0
 53 51  4  0  0  0  0
 54 53  1  0  0  0  0
 55 53  4  0  0  0  0
 56 55  1  0  0  0  0
 57 48  4  0  0  0  0
 58 57  1  0  0  0  0
 59 23  1  0  0  0  0
 60 59  4  0  0  0  0
 61 60  1  0  0  0  0
 62 60  4  0  0  0  0
 63 62  1  0  0  0  0
 64 62  4  0  0  0  0
 65 64  1  0  0  0  0
 66 64  4  0  0  0  0
 67 66  1  0  0  0  0
 68 59  4  0  0  0  0
 69 68  1  0  0  0  0
 70 24  1  0  0  0  0
 71 70  4  0  0  0  0
 72 71  1  0  0  0  0
 73 71  4  0  0  0  0
 74 73  1  0  0  0  0
 75 73  4  0  0  0  0
 76 75  1  0  0  0  0
 77 75  4  0  0  0  0
 78 77  1  0  0  0  0
 79 70  4  0  0  0  0
 80 79  1  0  0  0  0
 81 24  1  0  0  0  0
 82 81  4  0  0  0  0
 83 82  1  0  0  0  0
 84 82  4  0  0  0  0
 85 84  1  0  0  0  0
 86 84  4  0  0  0  0
 87 86  1  0  0  0  0
 88 86  4  0  0  0  0
 89 88  1  0  0  0  0
 90 81  4  0  0  0  0
 91 90  1  0  0  0  0
 92 24  1  0  0  0  0
 93 92  4  0  0  0  0
 94 93  1  0  0  0  0
 95 93  4  0  0  0  0
 96 95  1  0  0  0  0
 97 95  4  0  0  0  0
 98 97  1  0  0  0  0
 99 97  4  0  0  0  0
100 99  1  0  0  0  0
101 92  4  0  0  0  0
102101  1  0  0  0  0
103 25  1  0  0  0  0
104103  4  0  0  0  0
105104  1  0  0  0  0
106104  4  0  0  0  0
107106  1  0  0  0  0
108106  4  0  0  0  0
109108  1  0  0  0  0
110108  4  0  0  0  0
111110  1  0  0  0  0
112103  4  0  0  0  0
113112  1  0  0  0  0
114 25  1  0  0  0  0
115114  4  0  0  0  0
116115  1  0  0  0  0
117115  4  0  0  0  0
118117  1  0  0  0  0
119117  4  0  0  0  0
120119  1  0  0  0  0
121119  4  0  0  0  0
122121  1  0  0  0  0
123114  4  0  0  0  0
124123  1  0  0  0  0
125 25  1  0  0  0  0
126125  4  0  0  0  0
127126  1  0  0  0  0
128126  4  0  0  0  0
129128  1  0  0  0  0
130128  4  0  0  0  0
131130  1  0  0  0  0
132130  4  0  0  0  0
133132  1  0  0  0  0
134125  4  0  0  0  0
135134  1  0  0  0  0
136  2  1  0  0  0  0
137  2  1  0  0  0  0
  2  9  1  0  0  0  0
  3  5  1  0  0  0  0
  3 10  1  0  0  0  0
  4  7  1  0  0  0  0
  4  9  1  0  0  0  0
  4137  1  0  0  0  0
  5  7  1  0  0  0  0
  5 12  1  0  0  0  0
  7 14  1  0  0  0  0
  7 16  1  0  0  0  0
  9 10  1  0  0  0  0
  9 14  1  0  0  0  0
  9136  1  0  0  0  0
 10 12  1  0  0  0  0
 10 18  1  0  0  0  0
 12 16  1  0  0  0  0
 12 18  1  0  0  0  0
 14 16  1  0  0  0  0
 14 18  1  0  0  0  0
 16 18  1  0  0  0  0
 22 26  1  0  0  0  0
 33 35  4  0  0  0  0
 44 46  4  0  0  0  0
 55 57  4  0  0  0  0
 66 68  4  0  0  0  0
 77 79  4  0  0  0  0
 88 90  4  0  0  0  0
 99101  4  0  0  0  0
110112  4  0  0  0  0
121123  4  0  0  0  0
132134  4  0  0  0  0
M  END
$$$$
XIRXEE

From CSD data. Using bond type 'Any'. No disordered atoms. Largest molecule.
 99103  0  0  0  0  0  0  0  0999 V2000
    5.5138    9.0422   10.1131 B   0  0  0  0  0  0  0  0  0  0  0  0
    6.9227    8.1840    6.5720 B   0  0  0  0  0  0  0  0  0  0  0  0
    7.7784    7.6152    6.9176 H   0  0  0  0  0  0  0  0  0  0  0  0
    7.4227    9.1329    5.1345 B   0  0  0  0  0  0  0  0  0  0  0  0
    7.8252    8.1071    9.5912 C   0  0  0  0  0  0  0  0  0  0  0  0
    7.9855    6.7161    9.6673 C   0  0  0  0  0  0  0  0  0  0  0  0
    9.2122    6.1908   10.0683 C   0  0  0  0  0  0  0  0  0  0  0  0
    9.3249    5.2487   10.1150 H   0  0  0  0  0  0  0  0  0  0  0  0
   10.2707    7.0218   10.4003 C   0  0  0  0  0  0  0  0  0  0  0  0
   11.1034    6.6504   10.6667 H   0  0  0  0  0  0  0  0  0  0  0  0
   10.1094    8.3938   10.3419 C   0  0  0  0  0  0  0  0  0  0  0  0
   10.8334    8.9615   10.5784 H   0  0  0  0  0  0  0  0  0  0  0  0
    8.8948    8.9559    9.9393 C   0  0  0  0  0  0  0  0  0  0  0  0
    8.7441   10.4688    9.9557 C   0  0  0  0  0  0  0  0  0  0  0  0
    7.9546   10.7109    9.3918 H   0  0  0  0  0  0  0  0  0  0  0  0
    8.4831   10.9608   11.3822 C   0  0  0  0  0  0  0  0  0  0  0  0
    7.6941   10.5066   11.7452 H   0  0  0  0  0  0  0  0  0  0  0  0
    8.3267   11.9281   11.3707 H   0  0  0  0  0  0  0  0  0  0  0  0
    9.2613   10.7623   11.9438 H   0  0  0  0  0  0  0  0  0  0  0  0
    9.9712   11.1924    9.3980 C   0  0  0  0  0  0  0  0  0  0  0  0
   10.7251   11.0791   10.0138 H   0  0  0  0  0  0  0  0  0  0  0  0
    9.7707   12.1466    9.2991 H   0  0  0  0  0  0  0  0  0  0  0  0
   10.2036   10.8151    8.5240 H   0  0  0  0  0  0  0  0  0  0  0  0
    6.8235    5.7743    9.4207 C   0  0  0  0  0  0  0  0  0  0  0  0
    6.1172    6.2782    8.9235 H   0  0  0  0  0  0  0  0  0  0  0  0
    6.2429    5.3575   10.7771 C   0  0  0  0  0  0  0  0  0  0  0  0
    6.9302    4.8909   11.2971 H   0  0  0  0  0  0  0  0  0  0  0  0
    5.4787    4.7605   10.6358 H   0  0  0  0  0  0  0  0  0  0  0  0
    5.9489    6.1546   11.2655 H   0  0  0  0  0  0  0  0  0  0  0  0
    7.2002    4.5474    8.5918 C   0  0  0  0  0  0  0  0  0  0  0  0
    7.6177    4.8354    7.7531 H   0  0  0  0  0  0  0  0  0  0  0  0
    6.3946    4.0265    8.3939 H   0  0  0  0  0  0  0  0  0  0  0  0
    7.8318    3.9934    9.0970 H   0  0  0  0  0  0  0  0  0  0  0  0
    6.0982    8.7758    7.8400 C   0  0  0  0  0  0  0  0  0  0  0  0
    4.8403    9.2810    7.8690 C   0  0  0  0  0  0  0  0  0  0  0  0
    4.3550    9.4835    7.0778 H   0  0  0  0  0  0  0  0  0  0  0  0
    4.2581    9.5019    9.2663 C   0  0  0  0  0  0  0  0  0  0  0  0
    4.8599    9.5334   12.4293 C   0  0  0  0  0  0  0  0  0  0  0  0
    5.2867   10.3252   12.8182 H   0  0  0  0  0  0  0  0  0  0  0  0
    4.6726    8.8822   13.1374 H   0  0  0  0  0  0  0  0  0  0  0  0
    4.0209    9.7945   11.9954 H   0  0  0  0  0  0  0  0  0  0  0  0
    5.3024   12.3059   10.0062 C   0  0  0  0  0  0  0  0  0  0  0  0
    6.0769   12.0349    9.4703 H   0  0  0  0  0  0  0  0  0  0  0  0
    5.4818   12.1276   10.9530 H   0  0  0  0  0  0  0  0  0  0  0  0
    5.1366   13.2635    9.8798 H   0  0  0  0  0  0  0  0  0  0  0  0
    2.3984   11.6958   10.6738 C   0  0  0  0  0  0  0  0  0  0  0  0
    2.6537   11.3879   11.5685 H   0  0  0  0  0  0  0  0  0  0  0  0
    1.5875   11.2269   10.3859 H   0  0  0  0  0  0  0  0  0  0  0  0
    2.2274   12.6605   10.6967 H   0  0  0  0  0  0  0  0  0  0  0  0
    3.2412   12.0430    7.8194 C   0  0  0  0  0  0  0  0  0  0  0  0
    2.6736   12.8259    7.9763 H   0  0  0  0  0  0  0  0  0  0  0  0
    2.7347   11.3650    7.3258 H   0  0  0  0  0  0  0  0  0  0  0  0
    4.0269   12.3086    7.2965 H   0  0  0  0  0  0  0  0  0  0  0  0
    1.4197    8.8858    8.2381 C   0  0  0  0  0  0  0  0  0  0  0  0
    1.7684    8.9280    7.3231 H   0  0  0  0  0  0  0  0  0  0  0  0
    1.1050    9.7734    8.5089 H   0  0  0  0  0  0  0  0  0  0  0  0
    0.6750    8.2498    8.2748 H   0  0  0  0  0  0  0  0  0  0  0  0
    2.0456    8.1648   11.1154 C   0  0  0  0  0  0  0  0  0  0  0  0
    1.2534    7.5891   11.0792 H   0  0  0  0  0  0  0  0  0  0  0  0
    1.7899    9.0520   11.4442 H   0  0  0  0  0  0  0  0  0  0  0  0
    2.7085    7.7709   11.7201 H   0  0  0  0  0  0  0  0  0  0  0  0
    3.2526    6.5742    8.9305 C   0  0  0  0  0  0  0  0  0  0  0  0
    3.9046    6.2272    9.5746 H   0  0  0  0  0  0  0  0  0  0  0  0
    3.6471    6.5724    8.0333 H   0  0  0  0  0  0  0  0  0  0  0  0
    2.4534    6.0073    8.9370 H   0  0  0  0  0  0  0  0  0  0  0  0
    9.5617    6.9525    4.6933 C   0  0  0  0  0  0  0  0  0  0  0  0
   10.5240    6.7742    4.6427 H   0  0  0  0  0  0  0  0  0  0  0  0
    9.1264    6.6301    3.8765 H   0  0  0  0  0  0  0  0  0  0  0  0
    9.1838    6.4889    5.4695 H   0  0  0  0  0  0  0  0  0  0  0  0
   10.0866    9.4500    3.4058 C   0  0  0  0  0  0  0  0  0  0  0  0
   10.3003   10.3896    3.5848 H   0  0  0  0  0  0  0  0  0  0  0  0
    9.4806    9.3934    2.6379 H   0  0  0  0  0  0  0  0  0  0  0  0
   10.9115    8.9594    3.2080 H   0  0  0  0  0  0  0  0  0  0  0  0
   10.3525    9.2058    6.2356 C   0  0  0  0  0  0  0  0  0  0  0  0
    9.9963    8.8348    7.0697 H   0  0  0  0  0  0  0  0  0  0  0  0
   10.3825   10.1833    6.2994 H   0  0  0  0  0  0  0  0  0  0  0  0
   11.2570    8.8604    6.0844 H   0  0  0  0  0  0  0  0  0  0  0  0
    8.0167   12.0563    3.9429 C   0  0  0  0  0  0  0  0  0  0  0  0
    7.6606   12.9692    3.9576 H   0  0  0  0  0  0  0  0  0  0  0  0
    7.8899   11.6705    3.0511 H   0  0  0  0  0  0  0  0  0  0  0  0
    8.9726   12.0751    4.1579 H   0  0  0  0  0  0  0  0  0  0  0  0
    7.5236   11.8247    6.7442 C   0  0  0  0  0  0  0  0  0  0  0  0
    7.2643   12.7693    6.7137 H   0  0  0  0  0  0  0  0  0  0  0  0
    8.4855   11.7554    6.9181 H   0  0  0  0  0  0  0  0  0  0  0  0
    7.0289   11.3730    7.4593 H   0  0  0  0  0  0  0  0  0  0  0  0
    5.4057   11.4258    4.8560 C   0  0  0  0  0  0  0  0  0  0  0  0
    4.8459   10.9486    5.5036 H   0  0  0  0  0  0  0  0  0  0  0  0
    5.1676   11.1440    3.9481 H   0  0  0  0  0  0  0  0  0  0  0  0
    5.2603   12.3907    4.9472 H   0  0  0  0  0  0  0  0  0  0  0  0
    6.5532    8.6528    9.2110 N   0  0  0  0  0  0  0  0  0  0  0  0
    5.7301    8.9500   11.4668 O   0  0  0  0  0  0  0  0  0  0  0  0
    5.6964    6.7707    5.8629 P   0  0  0  0  0  0  0  0  0  0  0  0
    6.2351    6.4253    3.7443 P   0  0  0  0  0  0  0  0  0  0  0  0
    4.6024    7.7736    4.2247 P   0  0  0  0  0  0  0  0  0  0  0  0
    6.5134    8.6003    3.4446 P   0  0  0  0  0  0  0  0  0  0  0  0
    9.2873    8.7253    4.8602 P   0  0  0  0  0  0  0  0  0  0  0  0
    7.1420   11.0472    5.1676 P   0  0  0  0  0  0  0  0  0  0  0  0
    3.7964   11.3344    9.4626 Si  0  0  0  0  0  0  0  0  0  0  0  0
    2.7809    8.3229    9.4009 Si  0  0  0  0  0  0  0  0  0  0  0  0
  1 37  1  0  0  0  0
  2  3  1  0  0  0  0
  4  2  1  0  0  0  0
  5  6  4  0  0  0  0
  6  7  4  0  0  0  0
  7  8  1  0  0  0  0
  9  7  4  0  0  0  0
 10  9  1  0  0  0  0
 11  9  4  0  0  0  0
 12 11  1  0  0  0  0
 13  5  4  0  0  0  0
 14 13  1  0  0  0  0
 15 14  1  0  0  0  0
 16 14  1  0  0  0  0
 17 16  1  0  0  0  0
 18 16  1  0  0  0  0
 19 16  1  0  0  0  0
 20 14  1  0  0  0  0
 21 20  1  0  0  0  0
 22 20  1  0  0  0  0
 23 20  1  0  0  0  0
 24  6  1  0  0  0  0
 25 24  1  0  0  0  0
 26 24  1  0  0  0  0
 27 26  1  0  0  0  0
 28 26  1  0  0  0  0
 29 26  1  0  0  0  0
 30 24  1  0  0  0  0
 31 30  1  0  0  0  0
 32 30  1  0  0  0  0
 33 30  1  0  0  0  0
 34  2  1  0  0  0  0
 35 34  2  0  0  0  0
 36 35  1  0  0  0  0
 37 35  1  0  0  0  0
 38 39  1  0  0  0  0
 40 38  1  0  0  0  0
 41 38  1  0  0  0  0
 42 43  1  0  0  0  0
 44 42  1  0  0  0  0
 45 42  1  0  0  0  0
 46 47  1  0  0  0  0
 48 46  1  0  0  0  0
 49 46  1  0  0  0  0
 50 51  1  0  0  0  0
 52 50  1  0  0  0  0
 53 50  1  0  0  0  0
 54 55  1  0  0  0  0
 56 54  1  0  0  0  0
 57 54  1  0  0  0  0
 58 59  1  0  0  0  0
 60 58  1  0  0  0  0
 61 58  1  0  0  0  0
 62 63  1  0  0  0  0
 64 62  1  0  0  0  0
 65 62  1  0  0  0  0
 66 67  1  0  0  0  0
 68 66  1  0  0  0  0
 69 66  1  0  0  0  0
 70 71  1  0  0  0  0
 72 70  1  0  0  0  0
 73 70  1  0  0  0  0
 74 75  1  0  0  0  0
 76 74  1  0  0  0  0
 77 74  1  0  0  0  0
 78 79  1  0  0  0  0
 80 78  1  0  0  0  0
 81 78  1  0  0  0  0
 82 83  1  0  0  0  0
 84 82  1  0  0  0  0
 85 82  1  0  0  0  0
 86 87  1  0  0  0  0
 88 86  1  0  0  0  0
 89 86  1  0  0  0  0
 90  1  1  0  0  0  0
 91  1  1  0  0  0  0
 92  2  1  0  0  0  0
 93 92  1  0  0  0  0
 94 92  1  0  0  0  0
 95  4  1  0  0  0  0
 96  4  1  0  0  0  0
 97  4  1  0  0  0  0
 98 37  1  0  0  0  0
 99 37  1  0  0  0  0
  5 90  1  0  0  0  0
 11 13  4  0  0  0  0
 34 90  1  0  0  0  0
 38 91  1  0  0  0  0
 42 98  1  0  0  0  0
 46 98  1  0  0  0  0
 50 98  1  0  0  0  0
 54 99  1  0  0  0  0
 58 99  1  0  0  0  0
 62 99  1  0  0  0  0
 66 96  1  0  0  0  0
 70 96  1  0  0  0  0
 74 96  1  0  0  0  0
 78 97  1  0  0  0  0
 82 97  1  0  0  0  0
 86 97  1  0  0  0  0
 93 94  1  0  0  0  0
 93 95  1  0  0  0  0
 94 95  1  0  0  0  0
M  END
$$$$
XISLAP

From CSD data. Using bond type 'Any'. No disordered atoms. Largest molecule.
 90 97  0  0  0  0  0  0  0  0999 V2000
    3.3549    7.4441   13.0654 Br  0  0  0  0  0  0  0  0  0  0  0  0
    0.6240   11.0123   11.6479 B   0  0  0  0  0  0  0  0  0  0  0  0
   -0.1412    8.2091   12.1935 P   0  3  0  0  0  0  0  0  0  0  0  0
    3.0613    9.3818   10.6274 B   0  0  0  0  0  0  0  0  0  0  0  0
    4.0920   10.4415   13.0560 P   0  3  0  0  0  0  0  0  0  0  0  0
    3.3777    8.3719    9.7227 O   0  0  0  0  0  0  0  0  0  0  0  0
    1.0387   12.3606   11.7446 O   0  0  0  0  0  0  0  0  0  0  0  0
    3.0299   10.6164    9.9528 O   0  0  0  0  0  0  0  0  0  0  0  0
   -0.0495   10.8459   10.4223 O   0  0  0  0  0  0  0  0  0  0  0  0
    3.3164   10.3431    8.6356 C   0  0  0  0  0  0  0  0  0  0  0  0
    3.5273    8.9836    8.4912 C   0  0  0  0  0  0  0  0  0  0  0  0
    0.1496    8.5497   14.8026 C   0  0  0  0  0  0  0  0  0  0  0  0
    0.7069    9.7109   14.2422 C   0  0  0  0  0  0  0  0  0  0  0  0
    0.4109    6.9979   10.9268 C   0  0  0  0  0  0  0  0  0  0  0  0
    1.3873    6.9636   11.0026 H   0  0  0  0  0  0  0  0  0  0  0  0
    3.8482    8.4185    7.2858 C   0  0  0  0  0  0  0  0  0  0  0  0
    3.9782    7.5025    7.1917 H   0  0  0  0  0  0  0  0  0  0  0  0
   -0.0728    5.5558   11.1551 C   0  0  0  0  0  0  0  0  0  0  0  0
    0.1667    5.2741   12.0519 H   0  0  0  0  0  0  0  0  0  0  0  0
   -1.0394    5.5246   11.0793 H   0  0  0  0  0  0  0  0  0  0  0  0
    0.7178   12.9510   10.5384 C   0  0  0  0  0  0  0  0  0  0  0  0
    3.7573   10.6562    6.3531 C   0  0  0  0  0  0  0  0  0  0  0  0
    3.8450   11.2099    5.6111 H   0  0  0  0  0  0  0  0  0  0  0  0
    3.4162   11.2176    7.5815 C   0  0  0  0  0  0  0  0  0  0  0  0
    3.2651   12.1298    7.6817 H   0  0  0  0  0  0  0  0  0  0  0  0
    0.9737   10.7663   15.1222 C   0  0  0  0  0  0  0  0  0  0  0  0
    1.3268   11.5585   14.7864 H   0  0  0  0  0  0  0  0  0  0  0  0
   -2.4174    9.7063   12.8303 C   0  0  0  0  0  0  0  0  0  0  0  0
   -2.4488    9.2958   13.7086 H   0  0  0  0  0  0  0  0  0  0  0  0
   -1.8221   10.4707   12.8769 H   0  0  0  0  0  0  0  0  0  0  0  0
    3.9696    9.2943    6.2072 C   0  0  0  0  0  0  0  0  0  0  0  0
    4.1980    8.9568    5.3712 H   0  0  0  0  0  0  0  0  0  0  0  0
   -2.8410    7.5209   11.6691 C   0  0  0  0  0  0  0  0  0  0  0  0
   -2.5140    6.9149   10.9860 H   0  0  0  0  0  0  0  0  0  0  0  0
   -2.8816    7.0339   12.5071 H   0  0  0  0  0  0  0  0  0  0  0  0
    0.1249    7.4603    9.4960 C   0  0  0  0  0  0  0  0  0  0  0  0
   -0.8334    7.4946    9.3493 H   0  0  0  0  0  0  0  0  0  0  0  0
    0.4834    8.3517    9.3630 H   0  0  0  0  0  0  0  0  0  0  0  0
   -0.1675    7.4206   13.8449 C   0  0  0  0  0  0  0  0  0  0  0  0
   -1.0403    7.0417   14.0336 H   0  0  0  0  0  0  0  0  0  0  0  0
    0.4996    6.7190   13.9042 H   0  0  0  0  0  0  0  0  0  0  0  0
    0.7245   10.6596   16.4839 C   0  0  0  0  0  0  0  0  0  0  0  0
    0.9172   11.3750   17.0460 H   0  0  0  0  0  0  0  0  0  0  0  0
   -1.8721    8.6942   11.8115 C   0  0  0  0  0  0  0  0  0  0  0  0
   -1.8523    9.1502   10.9443 H   0  0  0  0  0  0  0  0  0  0  0  0
    0.5439    4.6006   10.1442 C   0  0  0  0  0  0  0  0  0  0  0  0
    1.5001    4.5440   10.2974 H   0  0  0  0  0  0  0  0  0  0  0  0
    0.1678    3.7151   10.2678 H   0  0  0  0  0  0  0  0  0  0  0  0
    0.0415   12.0434    9.7454 C   0  0  0  0  0  0  0  0  0  0  0  0
   -0.1007    8.4393   16.1655 C   0  0  0  0  0  0  0  0  0  0  0  0
   -0.4642    7.6560   16.5108 H   0  0  0  0  0  0  0  0  0  0  0  0
    0.5956   14.5355    8.8081 C   0  0  0  0  0  0  0  0  0  0  0  0
    0.7903   15.3763    8.4620 H   0  0  0  0  0  0  0  0  0  0  0  0
   -4.2387    7.9976   11.2941 C   0  0  0  0  0  0  0  0  0  0  0  0
   -4.2129    8.3997   10.4117 H   0  0  0  0  0  0  0  0  0  0  0  0
   -4.8370    7.2350   11.2570 H   0  0  0  0  0  0  0  0  0  0  0  0
    0.2897    5.0598    8.7262 C   0  0  0  0  0  0  0  0  0  0  0  0
   -0.6601    5.0040    8.5376 H   0  0  0  0  0  0  0  0  0  0  0  0
    0.7514    4.4686    8.1112 H   0  0  0  0  0  0  0  0  0  0  0  0
    3.9057   12.2083   12.7734 C   0  0  0  0  0  0  0  0  0  0  0  0
    3.7765   12.3705   11.8361 H   0  0  0  0  0  0  0  0  0  0  0  0
    4.6957   12.6650   13.0714 H   0  0  0  0  0  0  0  0  0  0  0  0
    3.1453   12.5320   13.2620 H   0  0  0  0  0  0  0  0  0  0  0  0
    0.1927    9.4995   17.0087 C   0  0  0  0  0  0  0  0  0  0  0  0
    0.0323    9.4294   17.9222 H   0  0  0  0  0  0  0  0  0  0  0  0
   -0.4138   12.3492    8.4855 C   0  0  0  0  0  0  0  0  0  0  0  0
   -0.8938   11.7404    7.9716 H   0  0  0  0  0  0  0  0  0  0  0  0
    1.0154   14.2169   10.0903 C   0  0  0  0  0  0  0  0  0  0  0  0
    1.4749   14.8276   10.6201 H   0  0  0  0  0  0  0  0  0  0  0  0
    5.6851   10.0689   12.2784 C   0  0  0  0  0  0  0  0  0  0  0  0
    5.6432   10.2849   11.3438 H   0  0  0  0  0  0  0  0  0  0  0  0
    5.8817    9.1353   12.3826 H   0  0  0  0  0  0  0  0  0  0  0  0
    6.3748   10.5900   12.6963 H   0  0  0  0  0  0  0  0  0  0  0  0
    0.7646    6.4932    8.4984 C   0  0  0  0  0  0  0  0  0  0  0  0
    0.5383    6.7668    7.5958 H   0  0  0  0  0  0  0  0  0  0  0  0
    1.7296    6.5300    8.5894 H   0  0  0  0  0  0  0  0  0  0  0  0
    4.3733   10.2713   14.8283 C   0  0  0  0  0  0  0  0  0  0  0  0
    4.6011    9.3608   15.0302 H   0  0  0  0  0  0  0  0  0  0  0  0
    3.5756   10.5146   15.3038 H   0  0  0  0  0  0  0  0  0  0  0  0
    5.0932   10.8479   15.0948 H   0  0  0  0  0  0  0  0  0  0  0  0
   -0.1110   13.6276    8.0280 C   0  0  0  0  0  0  0  0  0  0  0  0
   -0.3887   13.8814    7.1775 H   0  0  0  0  0  0  0  0  0  0  0  0
   -4.7790    9.0076   12.2874 C   0  0  0  0  0  0  0  0  0  0  0  0
   -4.9036    8.5805   13.1491 H   0  0  0  0  0  0  0  0  0  0  0  0
   -5.6417    9.3314   11.9840 H   0  0  0  0  0  0  0  0  0  0  0  0
   -3.8234   10.1768   12.4349 C   0  0  0  0  0  0  0  0  0  0  0  0
   -4.1610   10.7836   13.1118 H   0  0  0  0  0  0  0  0  0  0  0  0
   -3.7759   10.6602   11.5956 H   0  0  0  0  0  0  0  0  0  0  0  0
    1.0215    9.7165   12.6541 B   0  5  0  0  0  0  0  0  0  0  0  0
    2.7162    9.3082   12.2706 B   0  5  0  0  0  0  0  0  0  0  0  0
  1 90  1  0  0  0  0
  2  7  1  0  0  0  0
  3 14  1  0  0  0  0
  4  6  1  0  0  0  0
  5 60  1  0  0  0  0
  6 11  1  0  0  0  0
  7 21  1  0  0  0  0
  8  4  1  0  0  0  0
  9  2  1  0  0  0  0
 10  8  1  0  0  0  0
 11 10  4  0  0  0  0
 12 13  4  0  0  0  0
 13 26  4  0  0  0  0
 14 15  1  0  0  0  0
 16 11  4  0  0  0  0
 17 16  1  0  0  0  0
 18 14  1  0  0  0  0
 19 18  1  0  0  0  0
 20 18  1  0  0  0  0
 21 49  4  0  0  0  0
 22 23  1  0  0  0  0
 24 10  4  0  0  0  0
 25 24  1  0  0  0  0
 26 27  1  0  0  0  0
 28 29  1  0  0  0  0
 30 28  1  0  0  0  0
 31 16  4  0  0  0  0
 32 31  1  0  0  0  0
 33 34  1  0  0  0  0
 35 33  1  0  0  0  0
 36 14  1  0  0  0  0
 37 36  1  0  0  0  0
 38 36  1  0  0  0  0
 39  3  1  0  0  0  0
 40 39  1  0  0  0  0
 41 39  1  0  0  0  0
 42 26  4  0  0  0  0
 43 42  1  0  0  0  0
 44  3  1  0  0  0  0
 45 44  1  0  0  0  0
 46 18  1  0  0  0  0
 47 46  1  0  0  0  0
 48 46  1  0  0  0  0
 49  9  1  0  0  0  0
 50 12  4  0  0  0  0
 51 50  1  0  0  0  0
 52 53  1  0  0  0  0
 54 33  1  0  0  0  0
 55 54  1  0  0  0  0
 56 54  1  0  0  0  0
 57 46  1  0  0  0  0
 58 57  1  0  0  0  0
 59 57  1  0  0  0  0
 60 61  1  0  0  0  0
 62 60  1  0  0  0  0
 63 60  1  0  0  0  0
 64 42  4  0  0  0  0
 65 64  1  0  0  0  0
 66 49  4  0  0  0  0
 67 66  1  0  0  0  0
 68 21  4  0  0  0  0
 69 68  1  0  0  0  0
 70  5  1  0  0  0  0
 71 70  1  0  0  0  0
 72 70  1  0  0  0  0
 73 70  1  0  0  0  0
 74 36  1  0  0  0  0
 75 74  1  0  0  0  0
 76 74  1  0  0  0  0
 77  5  1  0  0  0  0
 78 77  1  0  0  0  0
 79 77  1  0  0  0  0
 80 77  1  0  0  0  0
 81 52  4  0  0  0  0
 82 81  1  0  0  0  0
 83 54  1  0  0  0  0
 84 83  1  0  0  0  0
 85 83  1  0  0  0  0
 86 28  1  0  0  0  0
 87 86  1  0  0  0  0
 88 86  1  0  0  0  0
 89  2  1  0  0  0  0
 90  4  1  0  0  0  0
  3 89  1  0  0  0  0
  5 90  1  0  0  0  0
 12 39  1  0  0  0  0
 13 89  1  0  0  0  0
 22 24  4  0  0  0  0
 22 31  4  0  0  0  0
 28 44  1  0  0  0  0
 33 44  1  0  0  0  0
 50 64  4  0  0  0  0
 52 68  4  0  0  0  0
 57 74  1  0  0  0  0
 66 81  4  0  0  0  0
 83 86  1  0  0  0  0
 89 90  1  0  0  0  0
M  CHG  4   3   1   5   1  89  -1  90  -1
M  END
$$$$
XISLET

From CSD data. Using bond type 'Any'. No disordered atoms. Largest molecule.
 90 97  0  0  0  0  0  0  0  0999 V2000
    6.8205    4.6587    4.3846 Br  0  0  0  0  0  0  0  0  0  0  0  0
    6.8018    5.9117    1.3676 P   0  3  0  0  0  0  0  0  0  0  0  0
    3.0450    6.0426    4.3955 P   0  3  0  0  0  0  0  0  0  0  0  0
    4.5530    6.7019    3.4250 B   0  5  0  0  0  0  0  0  0  0  0  0
    5.6061    5.3700    2.8291 B   0  5  0  0  0  0  0  0  0  0  0  0
    2.9359    7.1555    1.2021 O   0  0  0  0  0  0  0  0  0  0  0  0
    5.4384    7.6492    4.5131 B   0  0  0  0  0  0  0  0  0  0  0  0
    5.0915    7.9487    5.8344 O   0  0  0  0  0  0  0  0  0  0  0  0
    3.9107    7.5914    2.1400 B   0  0  0  0  0  0  0  0  0  0  0  0
    4.3400    8.8837    1.7548 O   0  0  0  0  0  0  0  0  0  0  0  0
    6.6862    8.2206    4.2488 O   0  0  0  0  0  0  0  0  0  0  0  0
    8.9927    5.1254   -0.2487 C   0  0  0  0  0  0  0  0  0  0  0  0
    8.4062    4.9358   -0.9971 H   0  0  0  0  0  0  0  0  0  0  0  0
    9.2228    6.0674   -0.2795 H   0  0  0  0  0  0  0  0  0  0  0  0
    4.8669    4.3160    0.6356 C   0  0  0  0  0  0  0  0  0  0  0  0
    3.7570    2.2080    0.3886 C   0  0  0  0  0  0  0  0  0  0  0  0
    3.3497    1.5751   -0.1565 H   0  0  0  0  0  0  0  0  0  0  0  0
    4.9293    4.1604    2.0294 C   0  0  0  0  0  0  0  0  0  0  0  0
    8.2526    4.8274    1.0639 C   0  0  0  0  0  0  0  0  0  0  0  0
    8.8899    5.0202    1.7836 H   0  0  0  0  0  0  0  0  0  0  0  0
    2.8440    8.1428    0.2539 C   0  0  0  0  0  0  0  0  0  0  0  0
    9.9278    2.7995   -0.2729 C   0  0  0  0  0  0  0  0  0  0  0  0
    9.3745    2.5414   -1.0266 H   0  0  0  0  0  0  0  0  0  0  0  0
   10.7485    2.2853   -0.3133 H   0  0  0  0  0  0  0  0  0  0  0  0
    2.9841   10.3709   -1.3230 C   0  0  0  0  0  0  0  0  0  0  0  0
    3.0183   11.1256   -1.8636 H   0  0  0  0  0  0  0  0  0  0  0  0
    1.8231    5.0854    3.4526 C   0  0  0  0  0  0  0  0  0  0  0  0
    1.5731    5.5738    2.6645 H   0  0  0  0  0  0  0  0  0  0  0  0
    1.0454    4.9360    3.9958 H   0  0  0  0  0  0  0  0  0  0  0  0
    2.2035    4.2418    3.1991 H   0  0  0  0  0  0  0  0  0  0  0  0
    9.2101    2.4860    0.9966 C   0  0  0  0  0  0  0  0  0  0  0  0
    9.8015    2.6526    1.7467 H   0  0  0  0  0  0  0  0  0  0  0  0
    8.9745    1.5452    1.0050 H   0  0  0  0  0  0  0  0  0  0  0  0
    5.5864    5.5212    0.0570 C   0  0  0  0  0  0  0  0  0  0  0  0
    4.9757    6.2601   -0.0895 H   0  0  0  0  0  0  0  0  0  0  0  0
    6.0274    5.3010   -0.7786 H   0  0  0  0  0  0  0  0  0  0  0  0
    3.8426    1.9901    1.7479 C   0  0  0  0  0  0  0  0  0  0  0  0
    3.5288    1.1961    2.1184 H   0  0  0  0  0  0  0  0  0  0  0  0
    2.0988    8.1784   -0.9033 C   0  0  0  0  0  0  0  0  0  0  0  0
    1.5675    7.4571   -1.1552 H   0  0  0  0  0  0  0  0  0  0  0  0
    7.9494    3.3198    1.1589 C   0  0  0  0  0  0  0  0  0  0  0  0
    7.5458    3.1256    2.0190 H   0  0  0  0  0  0  0  0  0  0  0  0
    7.3130    3.0757    0.4680 H   0  0  0  0  0  0  0  0  0  0  0  0
    4.4095    2.9774    2.5631 C   0  0  0  0  0  0  0  0  0  0  0  0
    4.4405    2.8430    3.4832 H   0  0  0  0  0  0  0  0  0  0  0  0
   10.2600    4.2938   -0.3765 C   0  0  0  0  0  0  0  0  0  0  0  0
   10.8827    4.5375    0.3250 H   0  0  0  0  0  0  0  0  0  0  0  0
   10.6820    4.4735   -1.2316 H   0  0  0  0  0  0  0  0  0  0  0  0
    4.2691    3.3554   -0.1658 C   0  0  0  0  0  0  0  0  0  0  0  0
    4.2145    3.4881   -1.0847 H   0  0  0  0  0  0  0  0  0  0  0  0
    7.3463    7.6625    1.2626 C   0  0  0  0  0  0  0  0  0  0  0  0
    6.7113    8.1672    1.8108 H   0  0  0  0  0  0  0  0  0  0  0  0
    2.1679    9.3213   -1.6805 C   0  0  0  0  0  0  0  0  0  0  0  0
    1.6559    9.3829   -2.4535 H   0  0  0  0  0  0  0  0  0  0  0  0
    3.7583   10.3220   -0.1693 C   0  0  0  0  0  0  0  0  0  0  0  0
    4.3095   11.0279    0.0784 H   0  0  0  0  0  0  0  0  0  0  0  0
    7.2907    8.3029   -0.1174 C   0  0  0  0  0  0  0  0  0  0  0  0
    6.4096    8.1785   -0.5035 H   0  0  0  0  0  0  0  0  0  0  0  0
    7.9415    7.8840   -0.7024 H   0  0  0  0  0  0  0  0  0  0  0  0
    3.6701    9.1946    0.5803 C   0  0  0  0  0  0  0  0  0  0  0  0
    3.4587    5.0342    5.8257 C   0  0  0  0  0  0  0  0  0  0  0  0
    4.0700    5.5152    6.3901 H   0  0  0  0  0  0  0  0  0  0  0  0
    3.8684    4.2172    5.5345 H   0  0  0  0  0  0  0  0  0  0  0  0
    2.6596    4.8346    6.3189 H   0  0  0  0  0  0  0  0  0  0  0  0
    8.7180    7.8760    1.9206 C   0  0  0  0  0  0  0  0  0  0  0  0
    8.7205    7.4806    2.8077 H   0  0  0  0  0  0  0  0  0  0  0  0
    9.4065    7.4394    1.3943 H   0  0  0  0  0  0  0  0  0  0  0  0
    7.5974    9.8061    0.0173 C   0  0  0  0  0  0  0  0  0  0  0  0
    7.6072   10.2090   -0.8650 H   0  0  0  0  0  0  0  0  0  0  0  0
    6.8924   10.2299    0.5310 H   0  0  0  0  0  0  0  0  0  0  0  0
    9.0153    9.3725    2.0208 C   0  0  0  0  0  0  0  0  0  0  0  0
    8.3831    9.7812    2.6333 H   0  0  0  0  0  0  0  0  0  0  0  0
    9.9052    9.4964    2.3858 H   0  0  0  0  0  0  0  0  0  0  0  0
    2.0404    7.4024    5.0451 C   0  0  0  0  0  0  0  0  0  0  0  0
    2.5734    7.9395    5.6358 H   0  0  0  0  0  0  0  0  0  0  0  0
    1.2915    7.0436    5.5277 H   0  0  0  0  0  0  0  0  0  0  0  0
    1.7242    7.9422    4.3182 H   0  0  0  0  0  0  0  0  0  0  0  0
    8.9275   10.0573    0.6943 C   0  0  0  0  0  0  0  0  0  0  0  0
    9.6426    9.7376    0.1222 H   0  0  0  0  0  0  0  0  0  0  0  0
    9.0475   11.0111    0.8185 H   0  0  0  0  0  0  0  0  0  0  0  0
    7.0978    8.8299    5.4112 C   0  0  0  0  0  0  0  0  0  0  0  0
    8.2791    9.4837    5.6565 C   0  0  0  0  0  0  0  0  0  0  0  0
    8.9416    9.5565    5.0077 H   0  0  0  0  0  0  0  0  0  0  0  0
    8.4338   10.0329    6.9225 C   0  0  0  0  0  0  0  0  0  0  0  0
    9.2086   10.5078    7.1196 H   0  0  0  0  0  0  0  0  0  0  0  0
    7.4798    9.8928    7.8794 C   0  0  0  0  0  0  0  0  0  0  0  0
    7.6214   10.2649    8.7199 H   0  0  0  0  0  0  0  0  0  0  0  0
    6.2908    9.2035    7.6289 C   0  0  0  0  0  0  0  0  0  0  0  0
    5.6342    9.1010    8.2787 H   0  0  0  0  0  0  0  0  0  0  0  0
    6.1506    8.6876    6.3646 C   0  0  0  0  0  0  0  0  0  0  0  0
  1  5  1  0  0  0  0
  2  5  1  0  0  0  0
  3  4  1  0  0  0  0
  4  5  1  0  0  0  0
  5 18  1  0  0  0  0
  6  9  1  0  0  0  0
  7  4  1  0  0  0  0
  8  7  1  0  0  0  0
  9  4  1  0  0  0  0
 10  9  1  0  0  0  0
 11  7  1  0  0  0  0
 12 13  1  0  0  0  0
 14 12  1  0  0  0  0
 15 18  4  0  0  0  0
 16 17  1  0  0  0  0
 18 44  4  0  0  0  0
 19  2  1  0  0  0  0
 20 19  1  0  0  0  0
 21  6  1  0  0  0  0
 22 23  1  0  0  0  0
 24 22  1  0  0  0  0
 25 26  1  0  0  0  0
 27  3  1  0  0  0  0
 28 27  1  0  0  0  0
 29 27  1  0  0  0  0
 30 27  1  0  0  0  0
 31 22  1  0  0  0  0
 32 31  1  0  0  0  0
 33 31  1  0  0  0  0
 34  2  1  0  0  0  0
 35 34  1  0  0  0  0
 36 34  1  0  0  0  0
 37 16  4  0  0  0  0
 38 37  1  0  0  0  0
 39 21  4  0  0  0  0
 40 39  1  0  0  0  0
 41 19  1  0  0  0  0
 42 41  1  0  0  0  0
 43 41  1  0  0  0  0
 44 37  4  0  0  0  0
 45 44  1  0  0  0  0
 46 12  1  0  0  0  0
 47 46  1  0  0  0  0
 48 46  1  0  0  0  0
 49 15  4  0  0  0  0
 50 49  1  0  0  0  0
 51  2  1  0  0  0  0
 52 51  1  0  0  0  0
 53 25  4  0  0  0  0
 54 53  1  0  0  0  0
 55 25  4  0  0  0  0
 56 55  1  0  0  0  0
 57 51  1  0  0  0  0
 58 57  1  0  0  0  0
 59 57  1  0  0  0  0
 60 10  1  0  0  0  0
 61  3  1  0  0  0  0
 62 61  1  0  0  0  0
 63 61  1  0  0  0  0
 64 61  1  0  0  0  0
 65 51  1  0  0  0  0
 66 65  1  0  0  0  0
 67 65  1  0  0  0  0
 68 57  1  0  0  0  0
 69 68  1  0  0  0  0
 70 68  1  0  0  0  0
 71 65  1  0  0  0  0
 72 71  1  0  0  0  0
 73 71  1  0  0  0  0
 74  3  1  0  0  0  0
 75 74  1  0  0  0  0
 76 74  1  0  0  0  0
 77 74  1  0  0  0  0
 78 68  1  0  0  0  0
 79 78  1  0  0  0  0
 80 78  1  0  0  0  0
 81 11  1  0  0  0  0
 82 81  4  0  0  0  0
 83 82  1  0  0  0  0
 84 82  4  0  0  0  0
 85 84  1  0  0  0  0
 86 84  4  0  0  0  0
 87 86  1  0  0  0  0
 88 86  4  0  0  0  0
 89 88  1  0  0  0  0
 90  8  1  0  0  0  0
 12 19  1  0  0  0  0
 15 34  1  0  0  0  0
 16 49  4  0  0  0  0
 21 60  4  0  0  0  0
 22 46  1  0  0  0  0
 31 41  1  0  0  0  0
 39 53  4  0  0  0  0
 55 60  4  0  0  0  0
 71 78  1  0  0  0  0
 81 90  4  0  0  0  0
 88 90  4  0  0  0  0
M  CHG  4   2   1   3   1   4  -1   5  -1
M  END
$$$$
XISLOD

From CSD data. Using bond type 'Any'. No disordered atoms. Largest molecule.
 90 97  0  0  0  0  0  0  0  0999 V2000
    5.1513    3.1302    5.5076 O   0  0  0  0  0  0  0  0  0  0  0  0
    8.9395    2.9676    7.3073 P   0  3  0  0  0  0  0  0  0  0  0  0
    7.8894    3.3576    5.7469 B   0  5  0  0  0  0  0  0  0  0  0  0
    8.9183    6.0231    6.3691 C   0  0  0  0  0  0  0  0  0  0  0  0
    8.4050    4.9980    5.2244 B   0  5  0  0  0  0  0  0  0  0  0  0
    7.9022    2.0752    4.3105 P   0  3  0  0  0  0  0  0  0  0  0  0
    9.2690    7.3286    5.9642 C   0  0  0  0  0  0  0  0  0  0  0  0
    9.1664    7.5599    5.0486 H   0  0  0  0  0  0  0  0  0  0  0  0
    5.8494    4.4560    7.2402 O   0  0  0  0  0  0  0  0  0  0  0  0
    6.2781    3.6177    6.2040 B   0  0  0  0  0  0  0  0  0  0  0  0
    9.7535    8.2865    6.8326 C   0  0  0  0  0  0  0  0  0  0  0  0
    9.9830    9.1512    6.5124 H   0  0  0  0  0  0  0  0  0  0  0  0
    5.9095    6.0073    4.8304 O   0  0  0  0  0  0  0  0  0  0  0  0
    7.1903    5.7537    4.2919 B   0  0  0  0  0  0  0  0  0  0  0  0
    9.9040    7.9752    8.1717 C   0  0  0  0  0  0  0  0  0  0  0  0
   10.2556    8.6163    8.7787 H   0  0  0  0  0  0  0  0  0  0  0  0
    7.2064    6.1829    2.9570 O   0  0  0  0  0  0  0  0  0  0  0  0
    8.4353    1.5469    8.3679 C   0  0  0  0  0  0  0  0  0  0  0  0
    8.7138    0.7092    7.8981 H   0  0  0  0  0  0  0  0  0  0  0  0
    8.7092    4.4195    8.3638 C   0  0  0  0  0  0  0  0  0  0  0  0
    7.7618    4.4496    8.6496 H   0  0  0  0  0  0  0  0  0  0  0  0
    9.2609    4.3032    9.1775 H   0  0  0  0  0  0  0  0  0  0  0  0
    9.0604    5.7524    7.7361 C   0  0  0  0  0  0  0  0  0  0  0  0
   10.1192    4.8527    3.8597 Br  0  0  0  0  0  0  0  0  0  0  0  0
    9.5370    6.7253    8.6150 C   0  0  0  0  0  0  0  0  0  0  0  0
    9.6098    6.5203    9.5397 H   0  0  0  0  0  0  0  0  0  0  0  0
    6.9114    1.4834    8.5565 C   0  0  0  0  0  0  0  0  0  0  0  0
    6.6012    2.3035    9.0164 H   0  0  0  0  0  0  0  0  0  0  0  0
    6.4705    1.4429    7.6710 H   0  0  0  0  0  0  0  0  0  0  0  0
    8.7252    0.3142   10.5652 C   0  0  0  0  0  0  0  0  0  0  0  0
    9.0565   -0.4993   10.1085 H   0  0  0  0  0  0  0  0  0  0  0  0
    9.1492    0.3585   11.4587 H   0  0  0  0  0  0  0  0  0  0  0  0
    7.2120    0.2258   10.7252 C   0  0  0  0  0  0  0  0  0  0  0  0
    6.9800   -0.6128   11.1976 H   0  0  0  0  0  0  0  0  0  0  0  0
    6.8948    0.9849   11.2759 H   0  0  0  0  0  0  0  0  0  0  0  0
    6.5155    0.2545    9.3810 C   0  0  0  0  0  0  0  0  0  0  0  0
    5.5356    0.2584    9.5217 H   0  0  0  0  0  0  0  0  0  0  0  0
    6.7474   -0.5650    8.8763 H   0  0  0  0  0  0  0  0  0  0  0  0
    9.1168    1.5473    9.7549 C   0  0  0  0  0  0  0  0  0  0  0  0
   10.0997    1.5647    9.6378 H   0  0  0  0  0  0  0  0  0  0  0  0
    8.8531    2.3630   10.2500 H   0  0  0  0  0  0  0  0  0  0  0  0
   10.7499    2.7937    6.9715 C   0  0  0  0  0  0  0  0  0  0  0  0
   10.9017    3.1746    6.0595 H   0  0  0  0  0  0  0  0  0  0  0  0
   13.5808    2.0505    7.3316 C   0  0  0  0  0  0  0  0  0  0  0  0
   13.6073    1.6403    8.2322 H   0  0  0  0  0  0  0  0  0  0  0  0
   14.4987    2.0326    6.9611 H   0  0  0  0  0  0  0  0  0  0  0  0
   12.6584    1.2333    6.4326 C   0  0  0  0  0  0  0  0  0  0  0  0
   12.9482    0.2867    6.4374 H   0  0  0  0  0  0  0  0  0  0  0  0
   12.7229    1.5686    5.5033 H   0  0  0  0  0  0  0  0  0  0  0  0
   11.2096    1.3226    6.9046 C   0  0  0  0  0  0  0  0  0  0  0  0
   11.1273    0.9091    7.8003 H   0  0  0  0  0  0  0  0  0  0  0  0
   10.6267    0.8220    6.2802 H   0  0  0  0  0  0  0  0  0  0  0  0
   13.1180    3.4851    7.4497 C   0  0  0  0  0  0  0  0  0  0  0  0
   13.2042    3.9291    6.5691 H   0  0  0  0  0  0  0  0  0  0  0  0
   13.7007    3.9641    8.0908 H   0  0  0  0  0  0  0  0  0  0  0  0
   11.6679    3.5785    7.9208 C   0  0  0  0  0  0  0  0  0  0  0  0
   11.3871    4.5276    7.9455 H   0  0  0  0  0  0  0  0  0  0  0  0
   11.5916    3.2106    8.8366 H   0  0  0  0  0  0  0  0  0  0  0  0
    7.1500    2.7891    2.8314 C   0  0  0  0  0  0  0  0  0  0  0  0
    7.0521    2.0944    2.1471 H   0  0  0  0  0  0  0  0  0  0  0  0
    7.7218    3.5072    2.4883 H   0  0  0  0  0  0  0  0  0  0  0  0
    6.2683    3.1527    3.0563 H   0  0  0  0  0  0  0  0  0  0  0  0
    6.9346    0.5880    4.6191 C   0  0  0  0  0  0  0  0  0  0  0  0
    6.9474    0.0186    3.8216 H   0  0  0  0  0  0  0  0  0  0  0  0
    6.0100    0.8373    4.8276 H   0  0  0  0  0  0  0  0  0  0  0  0
    7.3197    0.0989    5.3759 H   0  0  0  0  0  0  0  0  0  0  0  0
    9.4817    1.4087    3.7305 C   0  0  0  0  0  0  0  0  0  0  0  0
    9.3765    1.0655    2.8187 H   0  0  0  0  0  0  0  0  0  0  0  0
    9.7665    0.6813    4.3224 H   0  0  0  0  0  0  0  0  0  0  0  0
   10.1577    2.1182    3.7365 H   0  0  0  0  0  0  0  0  0  0  0  0
    5.9281    6.6408    2.6809 C   0  0  0  0  0  0  0  0  0  0  0  0
    5.4319    7.1180    1.4915 C   0  0  0  0  0  0  0  0  0  0  0  0
    5.9741    7.1951    0.7153 H   0  0  0  0  0  0  0  0  0  0  0  0
    4.0846    7.4830    1.4905 C   0  0  0  0  0  0  0  0  0  0  0  0
    3.6952    7.8160    0.6905 H   0  0  0  0  0  0  0  0  0  0  0  0
    3.2986    7.3706    2.6319 C   0  0  0  0  0  0  0  0  0  0  0  0
    2.3864    7.6333    2.5928 H   0  0  0  0  0  0  0  0  0  0  0  0
    3.8127    6.8838    3.8301 C   0  0  0  0  0  0  0  0  0  0  0  0
    3.2810    6.8012    4.6131 H   0  0  0  0  0  0  0  0  0  0  0  0
    5.1521    6.5273    3.8052 C   0  0  0  0  0  0  0  0  0  0  0  0
    4.0585    3.7624    6.0809 C   0  0  0  0  0  0  0  0  0  0  0  0
    2.7304    3.6688    5.7176 C   0  0  0  0  0  0  0  0  0  0  0  0
    2.4378    3.0950    5.0193 H   0  0  0  0  0  0  0  0  0  0  0  0
    1.8448    4.4683    6.4383 C   0  0  0  0  0  0  0  0  0  0  0  0
    0.9210    4.4475    6.2178 H   0  0  0  0  0  0  0  0  0  0  0  0
    2.2702    5.2875    7.4606 C   0  0  0  0  0  0  0  0  0  0  0  0
    1.6341    5.8206    7.9228 H   0  0  0  0  0  0  0  0  0  0  0  0
    3.6139    5.3529    7.8338 C   0  0  0  0  0  0  0  0  0  0  0  0
    3.9130    5.9039    8.5475 H   0  0  0  0  0  0  0  0  0  0  0  0
    4.4821    4.5660    7.1006 C   0  0  0  0  0  0  0  0  0  0  0  0
  1 10  1  0  0  0  0
  2  3  1  0  0  0  0
  3  5  1  0  0  0  0
  4  5  1  0  0  0  0
  5 14  1  0  0  0  0
  6  3  1  0  0  0  0
  7  4  4  0  0  0  0
  8  7  1  0  0  0  0
  9 10  1  0  0  0  0
 10  3  1  0  0  0  0
 11  7  4  0  0  0  0
 12 11  1  0  0  0  0
 13 14  1  0  0  0  0
 14 17  1  0  0  0  0
 15 11  4  0  0  0  0
 16 15  1  0  0  0  0
 17 71  1  0  0  0  0
 18  2  1  0  0  0  0
 19 18  1  0  0  0  0
 20  2  1  0  0  0  0
 21 20  1  0  0  0  0
 22 20  1  0  0  0  0
 23  4  4  0  0  0  0
 24  5  1  0  0  0  0
 25 15  4  0  0  0  0
 26 25  1  0  0  0  0
 27 18  1  0  0  0  0
 28 27  1  0  0  0  0
 29 27  1  0  0  0  0
 30 31  1  0  0  0  0
 32 30  1  0  0  0  0
 33 30  1  0  0  0  0
 34 33  1  0  0  0  0
 35 33  1  0  0  0  0
 36 27  1  0  0  0  0
 37 36  1  0  0  0  0
 38 36  1  0  0  0  0
 39 18  1  0  0  0  0
 40 39  1  0  0  0  0
 41 39  1  0  0  0  0
 42  2  1  0  0  0  0
 43 42  1  0  0  0  0
 44 45  1  0  0  0  0
 46 44  1  0  0  0  0
 47 44  1  0  0  0  0
 48 47  1  0  0  0  0
 49 47  1  0  0  0  0
 50 42  1  0  0  0  0
 51 50  1  0  0  0  0
 52 50  1  0  0  0  0
 53 44  1  0  0  0  0
 54 53  1  0  0  0  0
 55 53  1  0  0  0  0
 56 42  1  0  0  0  0
 57 56  1  0  0  0  0
 58 56  1  0  0  0  0
 59  6  1  0  0  0  0
 60 59  1  0  0  0  0
 61 59  1  0  0  0  0
 62 59  1  0  0  0  0
 63  6  1  0  0  0  0
 64 63  1  0  0  0  0
 65 63  1  0  0  0  0
 66 63  1  0  0  0  0
 67  6  1  0  0  0  0
 68 67  1  0  0  0  0
 69 67  1  0  0  0  0
 70 67  1  0  0  0  0
 71 72  4  0  0  0  0
 72 73  1  0  0  0  0
 74 72  4  0  0  0  0
 75 74  1  0  0  0  0
 76 74  4  0  0  0  0
 77 76  1  0  0  0  0
 78 76  4  0  0  0  0
 79 78  1  0  0  0  0
 80 13  1  0  0  0  0
 81  1  1  0  0  0  0
 82 81  4  0  0  0  0
 83 82  1  0  0  0  0
 84 82  4  0  0  0  0
 85 84  1  0  0  0  0
 86 84  4  0  0  0  0
 87 86  1  0  0  0  0
 88 86  4  0  0  0  0
 89 88  1  0  0  0  0
 90  9  1  0  0  0  0
 20 23  1  0  0  0  0
 23 25  4  0  0  0  0
 30 39  1  0  0  0  0
 33 36  1  0  0  0  0
 47 50  1  0  0  0  0
 53 56  1  0  0  0  0
 71 80  4  0  0  0  0
 78 80  4  0  0  0  0
 81 90  4  0  0  0  0
 88 90  4  0  0  0  0
M  CHG  4   2   1   3  -1   5  -1   6   1
M  END
$$$$
XISLUJ

From CSD data. Using bond type 'Any'. No disordered atoms. Largest molecule.
124135  0  0  0  0  0  0  0  0999 V2000
    5.9346   19.3467    6.4808 P   0  3  0  0  0  0  0  0  0  0  0  0
    5.6864   18.2302    3.8520 C   0  0  0  0  0  0  0  0  0  0  0  0
    3.8416   20.3883    4.8180 B   0  5  0  0  0  0  0  0  0  0  0  0
    2.9118   19.5003    3.3637 P   0  3  0  0  0  0  0  0  0  0  0  0
    6.9589   17.8047    3.4047 C   0  0  0  0  0  0  0  0  0  0  0  0
    7.7007   18.3802    3.5494 H   0  0  0  0  0  0  0  0  0  0  0  0
    5.5422   19.6749    4.6098 B   0  5  0  0  0  0  0  0  0  0  0  0
    7.1704   21.9440    4.3864 O   0  0  0  0  0  0  0  0  0  0  0  0
    7.1825   16.6017    2.7706 C   0  0  0  0  0  0  0  0  0  0  0  0
    8.0611   16.3637    2.4995 H   0  0  0  0  0  0  0  0  0  0  0  0
    4.0175   22.0557    4.6658 B   0  0  0  0  0  0  0  0  0  0  0  0
    4.0457   22.9364    5.7671 O   0  0  0  0  0  0  0  0  0  0  0  0
    6.1270   15.7405    2.5286 C   0  0  0  0  0  0  0  0  0  0  0  0
    6.2714   14.8995    2.1109 H   0  0  0  0  0  0  0  0  0  0  0  0
    6.5076   20.8281    3.8385 B   0  0  0  0  0  0  0  0  0  0  0  0
    6.6822   20.8520    2.4451 O   0  0  0  0  0  0  0  0  0  0  0  0
    4.8622   16.1306    2.9072 C   0  0  0  0  0  0  0  0  0  0  0  0
    4.1299   15.5494    2.7368 H   0  0  0  0  0  0  0  0  0  0  0  0
    4.3626   22.7831    3.5124 O   0  0  0  0  0  0  0  0  0  0  0  0
    4.6236   17.3560    3.5343 C   0  0  0  0  0  0  0  0  0  0  0  0
    3.1764   17.7457    3.7604 C   0  0  0  0  0  0  0  0  0  0  0  0
    2.9336   17.5803    4.7057 H   0  0  0  0  0  0  0  0  0  0  0  0
    2.5909   17.1863    3.1906 H   0  0  0  0  0  0  0  0  0  0  0  0
    2.9743   19.9427    6.1355 C   0  0  0  0  0  0  0  0  0  0  0  0
    1.8160   20.6608    6.4672 C   0  0  0  0  0  0  0  0  0  0  0  0
    1.6024   21.4282    5.9494 H   0  0  0  0  0  0  0  0  0  0  0  0
    7.3860   21.9903    2.1566 C   0  0  0  0  0  0  0  0  0  0  0  0
    4.6313   24.0692    3.9191 C   0  0  0  0  0  0  0  0  0  0  0  0
    7.6965   22.6459    3.3208 C   0  0  0  0  0  0  0  0  0  0  0  0
    4.4380   24.1656    5.2719 C   0  0  0  0  0  0  0  0  0  0  0  0
    5.0459   25.1404    3.1582 C   0  0  0  0  0  0  0  0  0  0  0  0
    5.1802   25.0680    2.2202 H   0  0  0  0  0  0  0  0  0  0  0  0
    8.8328   24.3028    2.0916 C   0  0  0  0  0  0  0  0  0  0  0  0
    9.3404   25.1050    2.0515 H   0  0  0  0  0  0  0  0  0  0  0  0
    0.9636   20.3171    7.5066 C   0  0  0  0  0  0  0  0  0  0  0  0
    0.1892   20.8381    7.6863 H   0  0  0  0  0  0  0  0  0  0  0  0
    1.2524   19.2082    8.2792 C   0  0  0  0  0  0  0  0  0  0  0  0
    0.6621   18.9337    8.9706 H   0  0  0  0  0  0  0  0  0  0  0  0
    4.6313   25.3360    5.9561 C   0  0  0  0  0  0  0  0  0  0  0  0
    4.4831   25.3978    6.8922 H   0  0  0  0  0  0  0  0  0  0  0  0
    2.4282   18.4971    8.0256 C   0  0  0  0  0  0  0  0  0  0  0  0
    2.6403   17.7412    8.5602 H   0  0  0  0  0  0  0  0  0  0  0  0
    8.4205   23.8132    3.3299 C   0  0  0  0  0  0  0  0  0  0  0  0
    8.6287   24.2640    4.1400 H   0  0  0  0  0  0  0  0  0  0  0  0
    3.2888   18.8737    7.0079 C   0  0  0  0  0  0  0  0  0  0  0  0
    8.5194   23.6456    0.9300 C   0  0  0  0  0  0  0  0  0  0  0  0
    8.8099   24.0116    0.1032 H   0  0  0  0  0  0  0  0  0  0  0  0
    4.6242   18.1495    6.9340 C   0  0  0  0  0  0  0  0  0  0  0  0
    4.5789   17.4289    6.2566 H   0  0  0  0  0  0  0  0  0  0  0  0
    4.8331   17.7388    7.8103 H   0  0  0  0  0  0  0  0  0  0  0  0
    7.7930   22.4681    0.9209 C   0  0  0  0  0  0  0  0  0  0  0  0
    7.5861   22.0126    0.1140 H   0  0  0  0  0  0  0  0  0  0  0  0
    5.2585   26.3380    3.8437 C   0  0  0  0  0  0  0  0  0  0  0  0
    5.5476   27.1038    3.3616 H   0  0  0  0  0  0  0  0  0  0  0  0
    5.0561   26.4344    5.2056 C   0  0  0  0  0  0  0  0  0  0  0  0
    5.2103   27.2643    5.6408 H   0  0  0  0  0  0  0  0  0  0  0  0
    3.5848   19.7042    1.6700 C   0  0  0  0  0  0  0  0  0  0  0  0
    4.5782   19.6492    1.7650 H   0  0  0  0  0  0  0  0  0  0  0  0
    3.3049   21.0579    1.0107 C   0  0  0  0  0  0  0  0  0  0  0  0
    2.3418   21.1336    0.7957 H   0  0  0  0  0  0  0  0  0  0  0  0
    3.5417   21.7894    1.6348 H   0  0  0  0  0  0  0  0  0  0  0  0
    4.1263   21.1792   -0.2575 C   0  0  0  0  0  0  0  0  0  0  0  0
    3.9578   22.0621   -0.6731 H   0  0  0  0  0  0  0  0  0  0  0  0
    5.0884   21.1274   -0.0311 H   0  0  0  0  0  0  0  0  0  0  0  0
    3.7886   20.0927   -1.2448 C   0  0  0  0  0  0  0  0  0  0  0  0
    4.3726   20.1748   -2.0402 H   0  0  0  0  0  0  0  0  0  0  0  0
    2.8495   20.1950   -1.5416 H   0  0  0  0  0  0  0  0  0  0  0  0
    3.9746   18.7313   -0.6192 C   0  0  0  0  0  0  0  0  0  0  0  0
    4.9381   18.5821   -0.4449 H   0  0  0  0  0  0  0  0  0  0  0  0
    3.6694   18.0361   -1.2546 H   0  0  0  0  0  0  0  0  0  0  0  0
    3.2000   18.5944    0.6881 C   0  0  0  0  0  0  0  0  0  0  0  0
    3.3922   17.7127    1.0945 H   0  0  0  0  0  0  0  0  0  0  0  0
    2.2285   18.6410    0.5015 H   0  0  0  0  0  0  0  0  0  0  0  0
    1.0876   19.7058    3.4092 C   0  0  0  0  0  0  0  0  0  0  0  0
    0.8431   19.5246    4.3615 H   0  0  0  0  0  0  0  0  0  0  0  0
    0.6197   21.1390    3.1673 C   0  0  0  0  0  0  0  0  0  0  0  0
    0.7275   21.3652    2.2094 H   0  0  0  0  0  0  0  0  0  0  0  0
    1.1790   21.7630    3.6949 H   0  0  0  0  0  0  0  0  0  0  0  0
   -0.8499   21.3011    3.5705 C   0  0  0  0  0  0  0  0  0  0  0  0
   -0.9354   21.1729    4.5483 H   0  0  0  0  0  0  0  0  0  0  0  0
   -1.1466   22.2211    3.3568 H   0  0  0  0  0  0  0  0  0  0  0  0
   -1.7294   20.3267    2.8694 C   0  0  0  0  0  0  0  0  0  0  0  0
   -1.7514   20.5421    1.9028 H   0  0  0  0  0  0  0  0  0  0  0  0
   -2.6513   20.4058    3.2205 H   0  0  0  0  0  0  0  0  0  0  0  0
   -1.2365   18.8846    3.0567 C   0  0  0  0  0  0  0  0  0  0  0  0
   -1.3191   18.6281    4.0087 H   0  0  0  0  0  0  0  0  0  0  0  0
   -1.8007   18.2706    2.5226 H   0  0  0  0  0  0  0  0  0  0  0  0
    0.2243   18.7508    2.6145 C   0  0  0  0  0  0  0  0  0  0  0  0
    0.5333   17.8217    2.7601 H   0  0  0  0  0  0  0  0  0  0  0  0
    0.3015   18.9551    1.6492 H   0  0  0  0  0  0  0  0  0  0  0  0
    5.7030   20.7521    7.6731 C   0  0  0  0  0  0  0  0  0  0  0  0
    4.8658   21.2235    7.3973 H   0  0  0  0  0  0  0  0  0  0  0  0
    6.8197   21.8058    7.6640 C   0  0  0  0  0  0  0  0  0  0  0  0
    7.6635   21.3954    7.9789 H   0  0  0  0  0  0  0  0  0  0  0  0
    6.9614   22.1282    6.7387 H   0  0  0  0  0  0  0  0  0  0  0  0
    6.4593   22.9861    8.5654 C   0  0  0  0  0  0  0  0  0  0  0  0
    7.1993   23.6434    8.5597 H   0  0  0  0  0  0  0  0  0  0  0  0
    5.6490   23.4341    8.2139 H   0  0  0  0  0  0  0  0  0  0  0  0
    6.2020   22.5259    9.9936 C   0  0  0  0  0  0  0  0  0  0  0  0
    7.0410   22.1696   10.3809 H   0  0  0  0  0  0  0  0  0  0  0  0
    5.9143   23.2976   10.5425 H   0  0  0  0  0  0  0  0  0  0  0  0
    5.1337   21.4534   10.0300 C   0  0  0  0  0  0  0  0  0  0  0  0
    4.2699   21.8438    9.7465 H   0  0  0  0  0  0  0  0  0  0  0  0
    5.0308   21.1278   10.9597 H   0  0  0  0  0  0  0  0  0  0  0  0
    5.4799   20.2730    9.1172 C   0  0  0  0  0  0  0  0  0  0  0  0
    4.7417   19.6132    9.1360 H   0  0  0  0  0  0  0  0  0  0  0  0
    6.2990   19.8270    9.4484 H   0  0  0  0  0  0  0  0  0  0  0  0
    7.5266   18.5826    6.9759 C   0  0  0  0  0  0  0  0  0  0  0  0
    7.6208   18.7508    7.9573 H   0  0  0  0  0  0  0  0  0  0  0  0
    8.7194   19.2848    6.3073 C   0  0  0  0  0  0  0  0  0  0  0  0
    8.7076   19.1027    5.3345 H   0  0  0  0  0  0  0  0  0  0  0  0
    8.6429   20.2632    6.4381 H   0  0  0  0  0  0  0  0  0  0  0  0
   10.0191   18.7987    6.8952 C   0  0  0  0  0  0  0  0  0  0  0  0
   10.7741   19.2486    6.4392 H   0  0  0  0  0  0  0  0  0  0  0  0
   10.0554   19.0379    7.8551 H   0  0  0  0  0  0  0  0  0  0  0  0
   10.1627   17.3157    6.7470 C   0  0  0  0  0  0  0  0  0  0  0  0
   10.9947   17.0227    7.1966 H   0  0  0  0  0  0  0  0  0  0  0  0
   10.2403   17.0903    5.7863 H   0  0  0  0  0  0  0  0  0  0  0  0
    8.9725   16.5599    7.3479 C   0  0  0  0  0  0  0  0  0  0  0  0
    8.9836   16.6621    8.3321 H   0  0  0  0  0  0  0  0  0  0  0  0
    9.0593   15.5959    7.1397 H   0  0  0  0  0  0  0  0  0  0  0  0
    7.6297   17.0811    6.7964 C   0  0  0  0  0  0  0  0  0  0  0  0
    7.5575   16.8573    5.8345 H   0  0  0  0  0  0  0  0  0  0  0  0
    6.8827   16.6387    7.2718 H   0  0  0  0  0  0  0  0  0  0  0  0
  1  7  1  0  0  0  0
  2  5  4  0  0  0  0
  3  4  1  0  0  0  0
  4 21  1  0  0  0  0
  5  6  1  0  0  0  0
  7  2  1  0  0  0  0
  8 15  1  0  0  0  0
  9  5  4  0  0  0  0
 10  9  1  0  0  0  0
 11  3  1  0  0  0  0
 12 11  1  0  0  0  0
 13  9  4  0  0  0  0
 14 13  1  0  0  0  0
 15  7  1  0  0  0  0
 16 15  1  0  0  0  0
 17 13  4  0  0  0  0
 18 17  1  0  0  0  0
 19 11  1  0  0  0  0
 20  2  4  0  0  0  0
 21 20  1  0  0  0  0
 22 21  1  0  0  0  0
 23 21  1  0  0  0  0
 24  3  1  0  0  0  0
 25 24  4  0  0  0  0
 26 25  1  0  0  0  0
 27 16  1  0  0  0  0
 28 19  1  0  0  0  0
 29  8  1  0  0  0  0
 30 12  1  0  0  0  0
 31 28  4  0  0  0  0
 32 31  1  0  0  0  0
 33 34  1  0  0  0  0
 35 25  4  0  0  0  0
 36 35  1  0  0  0  0
 37 35  4  0  0  0  0
 38 37  1  0  0  0  0
 39 30  4  0  0  0  0
 40 39  1  0  0  0  0
 41 37  4  0  0  0  0
 42 41  1  0  0  0  0
 43 29  4  0  0  0  0
 44 43  1  0  0  0  0
 45 24  4  0  0  0  0
 46 33  4  0  0  0  0
 47 46  1  0  0  0  0
 48  1  1  0  0  0  0
 49 48  1  0  0  0  0
 50 48  1  0  0  0  0
 51 27  4  0  0  0  0
 52 51  1  0  0  0  0
 53 31  4  0  0  0  0
 54 53  1  0  0  0  0
 55 39  4  0  0  0  0
 56 55  1  0  0  0  0
 57  4  1  0  0  0  0
 58 57  1  0  0  0  0
 59 57  1  0  0  0  0
 60 59  1  0  0  0  0
 61 59  1  0  0  0  0
 62 59  1  0  0  0  0
 63 62  1  0  0  0  0
 64 62  1  0  0  0  0
 65 62  1  0  0  0  0
 66 65  1  0  0  0  0
 67 65  1  0  0  0  0
 68 65  1  0  0  0  0
 69 68  1  0  0  0  0
 70 68  1  0  0  0  0
 71 57  1  0  0  0  0
 72 71  1  0  0  0  0
 73 71  1  0  0  0  0
 74  4  1  0  0  0  0
 75 74  1  0  0  0  0
 76 74  1  0  0  0  0
 77 76  1  0  0  0  0
 78 76  1  0  0  0  0
 79 76  1  0  0  0  0
 80 79  1  0  0  0  0
 81 79  1  0  0  0  0
 82 79  1  0  0  0  0
 83 82  1  0  0  0  0
 84 82  1  0  0  0  0
 85 82  1  0  0  0  0
 86 85  1  0  0  0  0
 87 85  1  0  0  0  0
 88 74  1  0  0  0  0
 89 88  1  0  0  0  0
 90 88  1  0  0  0  0
 91  1  1  0  0  0  0
 92 91  1  0  0  0  0
 93 91  1  0  0  0  0
 94 93  1  0  0  0  0
 95 93  1  0  0  0  0
 96 93  1  0  0  0  0
 97 96  1  0  0  0  0
 98 96  1  0  0  0  0
 99 96  1  0  0  0  0
100 99  1  0  0  0  0
101 99  1  0  0  0  0
102 99  1  0  0  0  0
103102  1  0  0  0  0
104102  1  0  0  0  0
105 91  1  0  0  0  0
106105  1  0  0  0  0
107105  1  0  0  0  0
108  1  1  0  0  0  0
109108  1  0  0  0  0
110108  1  0  0  0  0
111110  1  0  0  0  0
112110  1  0  0  0  0
113110  1  0  0  0  0
114113  1  0  0  0  0
115113  1  0  0  0  0
116113  1  0  0  0  0
117116  1  0  0  0  0
118116  1  0  0  0  0
119116  1  0  0  0  0
120119  1  0  0  0  0
121119  1  0  0  0  0
122108  1  0  0  0  0
123122  1  0  0  0  0
124122  1  0  0  0  0
  3  7  1  0  0  0  0
 17 20  4  0  0  0  0
 27 29  4  0  0  0  0
 28 30  4  0  0  0  0
 33 43  4  0  0  0  0
 41 45  4  0  0  0  0
 45 48  1  0  0  0  0
 46 51  4  0  0  0  0
 53 55  4  0  0  0  0
 68 71  1  0  0  0  0
 85 88  1  0  0  0  0
102105  1  0  0  0  0
119122  1  0  0  0  0
M  CHG  4   1   1   3  -1   4   1   7  -1
M  END
$$$$
XISMAQ

From CSD data. Using bond type 'Any'. No disordered atoms. Largest molecule.
124135  0  0  0  0  0  0  0  0999 V2000
    7.7364    1.3555   17.0496 P   0  3  0  0  0  0  0  0  0  0  0  0
    8.5072    2.4868   15.6630 B   0  5  0  0  0  0  0  0  0  0  0  0
    8.5223    5.4849   14.8206 P   0  3  0  0  0  0  0  0  0  0  0  0
    7.4141    4.0102   15.4506 B   0  5  0  0  0  0  0  0  0  0  0  0
    7.9552    5.6511   17.3784 C   0  0  0  0  0  0  0  0  0  0  0  0
    9.8646    2.8030   16.4921 C   0  0  0  0  0  0  0  0  0  0  0  0
    7.7758    6.2447   18.6190 C   0  0  0  0  0  0  0  0  0  0  0  0
    8.4369    6.8355   18.9607 H   0  0  0  0  0  0  0  0  0  0  0  0
    9.7469    2.8174   17.9038 C   0  0  0  0  0  0  0  0  0  0  0  0
    7.0090    4.7368   16.8477 C   0  0  0  0  0  0  0  0  0  0  0  0
    9.1223    6.0018   16.4662 C   0  0  0  0  0  0  0  0  0  0  0  0
    9.9387    5.5037   16.7219 H   0  0  0  0  0  0  0  0  0  0  0  0
    9.3145    6.9727   16.4881 H   0  0  0  0  0  0  0  0  0  0  0  0
   11.1307    3.0903   15.9704 C   0  0  0  0  0  0  0  0  0  0  0  0
   11.2800    2.9839   15.0383 H   0  0  0  0  0  0  0  0  0  0  0  0
    8.4330   -0.3538   17.0784 C   0  0  0  0  0  0  0  0  0  0  0  0
    8.0354   -0.8355   16.2972 H   0  0  0  0  0  0  0  0  0  0  0  0
   10.7888    3.2529   18.7171 C   0  0  0  0  0  0  0  0  0  0  0  0
   10.6789    3.2782   19.6603 H   0  0  0  0  0  0  0  0  0  0  0  0
    6.6324    5.9779   19.3641 C   0  0  0  0  0  0  0  0  0  0  0  0
    6.5265    6.3517   20.2310 H   0  0  0  0  0  0  0  0  0  0  0  0
    7.5600    6.8885   14.1139 C   0  0  0  0  0  0  0  0  0  0  0  0
    7.3302    6.6296   13.1759 H   0  0  0  0  0  0  0  0  0  0  0  0
    8.4569    2.2666   18.4645 C   0  0  0  0  0  0  0  0  0  0  0  0
    7.8571    2.9962   18.7609 H   0  0  0  0  0  0  0  0  0  0  0  0
    8.6303    1.6603   19.2275 H   0  0  0  0  0  0  0  0  0  0  0  0
    9.9366    5.1911   13.6935 C   0  0  0  0  0  0  0  0  0  0  0  0
   10.1896    4.2345   13.8378 H   0  0  0  0  0  0  0  0  0  0  0  0
    5.8320    4.5709   17.5888 C   0  0  0  0  0  0  0  0  0  0  0  0
    5.1356    4.0352   17.2283 H   0  0  0  0  0  0  0  0  0  0  0  0
   11.2150    5.9979   14.0166 C   0  0  0  0  0  0  0  0  0  0  0  0
   11.0486    6.9612   13.8599 H   0  0  0  0  0  0  0  0  0  0  0  0
   11.4520    5.8773   14.9703 H   0  0  0  0  0  0  0  0  0  0  0  0
    5.9283    1.2081   17.2900 C   0  0  0  0  0  0  0  0  0  0  0  0
    5.5470    2.0614   16.9346 H   0  0  0  0  0  0  0  0  0  0  0  0
   12.1747    3.5259   16.7735 C   0  0  0  0  0  0  0  0  0  0  0  0
   13.0151    3.7394   16.3864 H   0  0  0  0  0  0  0  0  0  0  0  0
    5.6474    5.1590   18.8274 C   0  0  0  0  0  0  0  0  0  0  0  0
    4.8454    5.0026   19.3117 H   0  0  0  0  0  0  0  0  0  0  0  0
   11.9885    3.6498   18.1467 C   0  0  0  0  0  0  0  0  0  0  0  0
   12.6816    4.0049   18.6914 H   0  0  0  0  0  0  0  0  0  0  0  0
    6.2260    7.1380   14.8360 C   0  0  0  0  0  0  0  0  0  0  0  0
    5.6974    6.3008   14.8492 H   0  0  0  0  0  0  0  0  0  0  0  0
    6.4033    7.4025   15.7734 H   0  0  0  0  0  0  0  0  0  0  0  0
    5.4750    1.1455   18.7568 C   0  0  0  0  0  0  0  0  0  0  0  0
    5.7867    0.2999   19.1662 H   0  0  0  0  0  0  0  0  0  0  0  0
    5.8736    1.8981   19.2614 H   0  0  0  0  0  0  0  0  0  0  0  0
    8.0548   -1.1625   18.3279 C   0  0  0  0  0  0  0  0  0  0  0  0
    8.4093   -0.7052   19.1311 H   0  0  0  0  0  0  0  0  0  0  0  0
    7.0682   -1.1956   18.4077 H   0  0  0  0  0  0  0  0  0  0  0  0
    9.5625    5.2859   12.2040 C   0  0  0  0  0  0  0  0  0  0  0  0
    8.7811    4.7078   12.0181 H   0  0  0  0  0  0  0  0  0  0  0  0
    9.3187    6.2186   11.9793 H   0  0  0  0  0  0  0  0  0  0  0  0
    9.9465   -0.3761   16.8765 C   0  0  0  0  0  0  0  0  0  0  0  0
   10.3826    0.1197   17.6143 H   0  0  0  0  0  0  0  0  0  0  0  0
   10.1706    0.0814   16.0275 H   0  0  0  0  0  0  0  0  0  0  0  0
   10.7515    4.8410   11.3453 C   0  0  0  0  0  0  0  0  0  0  0  0
   10.9145    3.8755   11.4938 H   0  0  0  0  0  0  0  0  0  0  0  0
   10.5253    4.9662   10.3897 H   0  0  0  0  0  0  0  0  0  0  0  0
    5.2812    0.0983   16.4500 C   0  0  0  0  0  0  0  0  0  0  0  0
    5.5900   -0.7861   16.7702 H   0  0  0  0  0  0  0  0  0  0  0  0
    5.5520    0.1958   15.5026 H   0  0  0  0  0  0  0  0  0  0  0  0
    8.5997   -2.5809   18.2788 C   0  0  0  0  0  0  0  0  0  0  0  0
    8.3746   -3.0478   19.1223 H   0  0  0  0  0  0  0  0  0  0  0  0
    8.1698   -3.0715   17.5340 H   0  0  0  0  0  0  0  0  0  0  0  0
   12.3681    5.5280   13.1393 C   0  0  0  0  0  0  0  0  0  0  0  0
   12.5934    4.5921   13.3701 H   0  0  0  0  0  0  0  0  0  0  0  0
   13.1644    6.0872   13.3196 H   0  0  0  0  0  0  0  0  0  0  0  0
   10.1025   -2.5918   18.0854 C   0  0  0  0  0  0  0  0  0  0  0  0
   10.4179   -3.5265   18.0029 H   0  0  0  0  0  0  0  0  0  0  0  0
   10.5401   -2.1886   18.8765 H   0  0  0  0  0  0  0  0  0  0  0  0
    5.4237    8.2310   14.1464 C   0  0  0  0  0  0  0  0  0  0  0  0
    5.1859    7.9354   13.2317 H   0  0  0  0  0  0  0  0  0  0  0  0
    4.5823    8.3847   14.6457 H   0  0  0  0  0  0  0  0  0  0  0  0
    8.3452    8.1966   14.0207 C   0  0  0  0  0  0  0  0  0  0  0  0
    8.6132    8.4819   14.9299 H   0  0  0  0  0  0  0  0  0  0  0  0
    9.1695    8.0456   13.4934 H   0  0  0  0  0  0  0  0  0  0  0  0
    3.9474    1.2239   18.8383 C   0  0  0  0  0  0  0  0  0  0  0  0
    3.6661    1.1357   19.7832 H   0  0  0  0  0  0  0  0  0  0  0  0
    3.6484    2.1092   18.5123 H   0  0  0  0  0  0  0  0  0  0  0  0
    6.2062    9.5244   14.0693 C   0  0  0  0  0  0  0  0  0  0  0  0
    5.6770   10.2025   13.5779 H   0  0  0  0  0  0  0  0  0  0  0  0
    6.3705    9.8672   14.9834 H   0  0  0  0  0  0  0  0  0  0  0  0
   10.4924   -1.8132   16.8384 C   0  0  0  0  0  0  0  0  0  0  0  0
   10.1374   -2.2768   16.0387 H   0  0  0  0  0  0  0  0  0  0  0  0
   11.4788   -1.7872   16.7637 H   0  0  0  0  0  0  0  0  0  0  0  0
   12.0205    5.6106   11.6583 C   0  0  0  0  0  0  0  0  0  0  0  0
   11.9009    6.5591   11.4015 H   0  0  0  0  0  0  0  0  0  0  0  0
   12.7686    5.2414   11.1248 H   0  0  0  0  0  0  0  0  0  0  0  0
    3.7525    0.1862   16.5635 C   0  0  0  0  0  0  0  0  0  0  0  0
    3.4440    1.0314   16.1514 H   0  0  0  0  0  0  0  0  0  0  0  0
    3.3459   -0.5637   16.0606 H   0  0  0  0  0  0  0  0  0  0  0  0
    3.2790    0.1328   18.0116 C   0  0  0  0  0  0  0  0  0  0  0  0
    2.2968    0.2497   18.0427 H   0  0  0  0  0  0  0  0  0  0  0  0
    3.4953   -0.7532   18.3976 H   0  0  0  0  0  0  0  0  0  0  0  0
    7.5259    9.3072   13.3659 C   0  0  0  0  0  0  0  0  0  0  0  0
    8.0460   10.1487   13.3813 H   0  0  0  0  0  0  0  0  0  0  0  0
    7.3553    9.0713   12.4195 H   0  0  0  0  0  0  0  0  0  0  0  0
    6.3122    3.6419   14.2627 B   0  0  0  0  0  0  0  0  0  0  0  0
    5.0329    3.0834   14.4979 O   0  0  0  0  0  0  0  0  0  0  0  0
    6.5353    3.6941   12.8762 O   0  0  0  0  0  0  0  0  0  0  0  0
    4.5164    2.7495   13.2532 C   0  0  0  0  0  0  0  0  0  0  0  0
    3.3382    2.1102   12.9451 C   0  0  0  0  0  0  0  0  0  0  0  0
    2.7347    1.8206   13.6186 H   0  0  0  0  0  0  0  0  0  0  0  0
    3.0751    1.9079   11.5869 C   0  0  0  0  0  0  0  0  0  0  0  0
    2.2630    1.4889   11.3264 H   0  0  0  0  0  0  0  0  0  0  0  0
    3.9803    2.3063   10.6058 C   0  0  0  0  0  0  0  0  0  0  0  0
    3.7721    2.1535    9.6933 H   0  0  0  0  0  0  0  0  0  0  0  0
    5.1865    2.9270   10.9383 C   0  0  0  0  0  0  0  0  0  0  0  0
    5.8041    3.2099   10.2742 H   0  0  0  0  0  0  0  0  0  0  0  0
    5.4330    3.1069   12.2843 C   0  0  0  0  0  0  0  0  0  0  0  0
    8.5367    1.7254   14.1654 B   0  0  0  0  0  0  0  0  0  0  0  0
    9.4749    1.8927   13.1279 O   0  0  0  0  0  0  0  0  0  0  0  0
    7.4812    0.9171   13.6911 O   0  0  0  0  0  0  0  0  0  0  0  0
    8.9530    1.2414   12.0224 C   0  0  0  0  0  0  0  0  0  0  0  0
    9.4832    1.1445   10.7566 C   0  0  0  0  0  0  0  0  0  0  0  0
   10.3147    1.5428   10.5279 H   0  0  0  0  0  0  0  0  0  0  0  0
    8.7292    0.4282    9.8302 C   0  0  0  0  0  0  0  0  0  0  0  0
    9.0575    0.3322    8.9438 H   0  0  0  0  0  0  0  0  0  0  0  0
    7.5167   -0.1454   10.1647 C   0  0  0  0  0  0  0  0  0  0  0  0
    7.0314   -0.6233    9.5027 H   0  0  0  0  0  0  0  0  0  0  0  0
    6.9904   -0.0385   11.4552 C   0  0  0  0  0  0  0  0  0  0  0  0
    6.1554   -0.4259   11.6913 H   0  0  0  0  0  0  0  0  0  0  0  0
    7.7506    0.6606   12.3621 C   0  0  0  0  0  0  0  0  0  0  0  0
  1  2  1  0  0  0  0
  2  4  1  0  0  0  0
  3  4  1  0  0  0  0
  4 10  1  0  0  0  0
  5  7  4  0  0  0  0
  6  2  1  0  0  0  0
  7  8  1  0  0  0  0
  9  6  4  0  0  0  0
 10  5  4  0  0  0  0
 11  3  1  0  0  0  0
 12 11  1  0  0  0  0
 13 11  1  0  0  0  0
 14  6  4  0  0  0  0
 15 14  1  0  0  0  0
 16  1  1  0  0  0  0
 17 16  1  0  0  0  0
 18  9  4  0  0  0  0
 19 18  1  0  0  0  0
 20  7  4  0  0  0  0
 21 20  1  0  0  0  0
 22  3  1  0  0  0  0
 23 22  1  0  0  0  0
 24  1  1  0  0  0  0
 25 24  1  0  0  0  0
 26 24  1  0  0  0  0
 27  3  1  0  0  0  0
 28 27  1  0  0  0  0
 29 10  4  0  0  0  0
 30 29  1  0  0  0  0
 31 27  1  0  0  0  0
 32 31  1  0  0  0  0
 33 31  1  0  0  0  0
 34  1  1  0  0  0  0
 35 34  1  0  0  0  0
 36 14  4  0  0  0  0
 37 36  1  0  0  0  0
 38 20  4  0  0  0  0
 39 38  1  0  0  0  0
 40 18  4  0  0  0  0
 41 40  1  0  0  0  0
 42 22  1  0  0  0  0
 43 42  1  0  0  0  0
 44 42  1  0  0  0  0
 45 34  1  0  0  0  0
 46 45  1  0  0  0  0
 47 45  1  0  0  0  0
 48 16  1  0  0  0  0
 49 48  1  0  0  0  0
 50 48  1  0  0  0  0
 51 27  1  0  0  0  0
 52 51  1  0  0  0  0
 53 51  1  0  0  0  0
 54 16  1  0  0  0  0
 55 54  1  0  0  0  0
 56 54  1  0  0  0  0
 57 51  1  0  0  0  0
 58 57  1  0  0  0  0
 59 57  1  0  0  0  0
 60 34  1  0  0  0  0
 61 60  1  0  0  0  0
 62 60  1  0  0  0  0
 63 48  1  0  0  0  0
 64 63  1  0  0  0  0
 65 63  1  0  0  0  0
 66 31  1  0  0  0  0
 67 66  1  0  0  0  0
 68 66  1  0  0  0  0
 69 63  1  0  0  0  0
 70 69  1  0  0  0  0
 71 69  1  0  0  0  0
 72 42  1  0  0  0  0
 73 72  1  0  0  0  0
 74 72  1  0  0  0  0
 75 22  1  0  0  0  0
 76 75  1  0  0  0  0
 77 75  1  0  0  0  0
 78 45  1  0  0  0  0
 79 78  1  0  0  0  0
 80 78  1  0  0  0  0
 81 72  1  0  0  0  0
 82 81  1  0  0  0  0
 83 81  1  0  0  0  0
 84 54  1  0  0  0  0
 85 84  1  0  0  0  0
 86 84  1  0  0  0  0
 87 57  1  0  0  0  0
 88 87  1  0  0  0  0
 89 87  1  0  0  0  0
 90 60  1  0  0  0  0
 91 90  1  0  0  0  0
 92 90  1  0  0  0  0
 93 78  1  0  0  0  0
 94 93  1  0  0  0  0
 95 93  1  0  0  0  0
 96 75  1  0  0  0  0
 97 96  1  0  0  0  0
 98 96  1  0  0  0  0
 99  4  1  0  0  0  0
100 99  1  0  0  0  0
101 99  1  0  0  0  0
102100  1  0  0  0  0
103102  4  0  0  0  0
104103  1  0  0  0  0
105103  4  0  0  0  0
106105  1  0  0  0  0
107105  4  0  0  0  0
108107  1  0  0  0  0
109107  4  0  0  0  0
110109  1  0  0  0  0
111101  1  0  0  0  0
112  2  1  0  0  0  0
113112  1  0  0  0  0
114112  1  0  0  0  0
115113  1  0  0  0  0
116115  4  0  0  0  0
117116  1  0  0  0  0
118116  4  0  0  0  0
119118  1  0  0  0  0
120118  4  0  0  0  0
121120  1  0  0  0  0
122120  4  0  0  0  0
123122  1  0  0  0  0
124114  1  0  0  0  0
  5 11  1  0  0  0  0
  9 24  1  0  0  0  0
 29 38  4  0  0  0  0
 36 40  4  0  0  0  0
 66 87  1  0  0  0  0
 69 84  1  0  0  0  0
 81 96  1  0  0  0  0
 90 93  1  0  0  0  0
102111  4  0  0  0  0
109111  4  0  0  0  0
115124  4  0  0  0  0
122124  4  0  0  0  0
M  CHG  4   1   1   2  -1   3   1   4  -1
M  END
$$$$
XISSEA

From CSD data. Using bond type 'Any'. No disordered atoms. Largest molecule.
168178  0  0  0  0  0  0  0  0999 V2000
   11.5935   -0.2981   13.5559 B   0  0  0  0  0  0  0  0  0  0  0  0
    7.9234   -0.1012   14.3370 B   0  0  0  0  0  0  0  0  0  0  0  0
    6.2048   -0.3513   15.7679 B   0  0  0  0  0  0  0  0  0  0  0  0
    5.1115   -0.3760   14.2989 B   0  0  0  0  0  0  0  0  0  0  0  0
    5.1974    1.1770   15.3911 B   0  0  0  0  0  0  0  0  0  0  0  0
    2.8465    3.4318   17.4465 B   0  0  0  0  0  0  0  0  0  0  0  0
    9.7747   -1.8280   12.5705 C   0  0  0  0  0  0  0  0  0  0  0  0
    9.1880   -1.5013   11.3527 C   0  0  0  0  0  0  0  0  0  0  0  0
    8.8004   -2.5079   10.4764 C   0  0  0  0  0  0  0  0  0  0  0  0
    8.3999   -2.2847    9.6441 H   0  0  0  0  0  0  0  0  0  0  0  0
    8.9976   -3.8409   10.8176 C   0  0  0  0  0  0  0  0  0  0  0  0
    8.7313   -4.5288   10.2186 H   0  0  0  0  0  0  0  0  0  0  0  0
    9.5828   -4.1675   12.0360 C   0  0  0  0  0  0  0  0  0  0  0  0
    9.7167   -5.0785   12.2685 H   0  0  0  0  0  0  0  0  0  0  0  0
    9.9701   -3.1610   12.9117 C   0  0  0  0  0  0  0  0  0  0  0  0
   10.6769   -3.5635   14.2036 C   0  0  0  0  0  0  0  0  0  0  0  0
   10.9421   -2.7216   14.6749 H   0  0  0  0  0  0  0  0  0  0  0  0
    9.7518   -4.3313   15.1286 C   0  0  0  0  0  0  0  0  0  0  0  0
    8.9362   -3.8097   15.2806 H   0  0  0  0  0  0  0  0  0  0  0  0
   10.2028   -4.4899   15.9835 H   0  0  0  0  0  0  0  0  0  0  0  0
    9.5187   -5.1897   14.7173 H   0  0  0  0  0  0  0  0  0  0  0  0
   11.9622   -4.3707   13.9432 C   0  0  0  0  0  0  0  0  0  0  0  0
   11.7275   -5.2491   13.5786 H   0  0  0  0  0  0  0  0  0  0  0  0
   12.4516   -4.4855   14.7843 H   0  0  0  0  0  0  0  0  0  0  0  0
   12.5253   -3.8899   13.3008 H   0  0  0  0  0  0  0  0  0  0  0  0
    8.9044   -0.0554   10.9289 C   0  0  0  0  0  0  0  0  0  0  0  0
    9.1627    0.5446   11.6873 H   0  0  0  0  0  0  0  0  0  0  0  0
    7.3919    0.1330   10.6665 C   0  0  0  0  0  0  0  0  0  0  0  0
    7.1301   -0.3879    9.8792 H   0  0  0  0  0  0  0  0  0  0  0  0
    7.2025    1.0810   10.5102 H   0  0  0  0  0  0  0  0  0  0  0  0
    6.8844   -0.1774   11.4464 H   0  0  0  0  0  0  0  0  0  0  0  0
    9.7102    0.3625    9.7033 C   0  0  0  0  0  0  0  0  0  0  0  0
   10.6665    0.3470    9.9198 H   0  0  0  0  0  0  0  0  0  0  0  0
    9.4514    1.2684    9.4343 H   0  0  0  0  0  0  0  0  0  0  0  0
    9.5326   -0.2602    8.9676 H   0  0  0  0  0  0  0  0  0  0  0  0
    9.4558   -0.4019   14.6693 C   0  0  0  0  0  0  0  0  0  0  0  0
    9.4903   -1.1594   15.3224 H   0  0  0  0  0  0  0  0  0  0  0  0
   10.2721    0.7782   15.2535 C   0  0  0  0  0  0  0  0  0  0  0  0
   10.2127    0.7762   16.2416 H   0  0  0  0  0  0  0  0  0  0  0  0
    9.9089    1.6382   14.9214 H   0  0  0  0  0  0  0  0  0  0  0  0
   11.7602    0.6185   14.8069 C   0  0  0  0  0  0  0  0  0  0  0  0
   11.4006    2.7851   12.6901 C   0  0  0  0  0  0  0  0  0  0  0  0
   10.4614    2.9044   12.9413 H   0  0  0  0  0  0  0  0  0  0  0  0
   11.4702    2.0826   12.0097 H   0  0  0  0  0  0  0  0  0  0  0  0
   11.7510    3.6258   12.3270 H   0  0  0  0  0  0  0  0  0  0  0  0
   12.1017    3.6634   15.4546 C   0  0  0  0  0  0  0  0  0  0  0  0
   12.2508    4.5342   15.0316 H   0  0  0  0  0  0  0  0  0  0  0  0
   12.7230    3.5548   16.2059 H   0  0  0  0  0  0  0  0  0  0  0  0
   11.1802    3.6135   15.7847 H   0  0  0  0  0  0  0  0  0  0  0  0
   14.2164    2.2430   13.7527 C   0  0  0  0  0  0  0  0  0  0  0  0
   14.4163    1.4044   13.2864 H   0  0  0  0  0  0  0  0  0  0  0  0
   14.7542    2.2956   14.5719 H   0  0  0  0  0  0  0  0  0  0  0  0
   14.4339    3.0005   13.1713 H   0  0  0  0  0  0  0  0  0  0  0  0
   13.4585    1.0444   17.3936 C   0  0  0  0  0  0  0  0  0  0  0  0
   14.0466    1.6973   16.9590 H   0  0  0  0  0  0  0  0  0  0  0  0
   13.9549    0.5729   18.0941 H   0  0  0  0  0  0  0  0  0  0  0  0
   12.6928    1.5091   17.7915 H   0  0  0  0  0  0  0  0  0  0  0  0
   14.2994   -1.0948   15.3678 C   0  0  0  0  0  0  0  0  0  0  0  0
   13.9748   -1.7933   14.7606 H   0  0  0  0  0  0  0  0  0  0  0  0
   14.8313   -1.5050   16.0814 H   0  0  0  0  0  0  0  0  0  0  0  0
   14.8545   -0.4608   14.8689 H   0  0  0  0  0  0  0  0  0  0  0  0
   11.8826   -1.4277   17.1565 C   0  0  0  0  0  0  0  0  0  0  0  0
   11.1289   -0.9713   17.5868 H   0  0  0  0  0  0  0  0  0  0  0  0
   12.4707   -1.8054   17.8415 H   0  0  0  0  0  0  0  0  0  0  0  0
   11.5438   -2.1459   16.5822 H   0  0  0  0  0  0  0  0  0  0  0  0
   12.7120   -1.3568   11.5365 C   0  0  0  0  0  0  0  0  0  0  0  0
   12.0793   -2.0991   11.6359 H   0  0  0  0  0  0  0  0  0  0  0  0
   13.6209   -1.7140   11.4461 H   0  0  0  0  0  0  0  0  0  0  0  0
   12.4842   -0.8374   10.7387 H   0  0  0  0  0  0  0  0  0  0  0  0
    6.1275    0.1789   18.8309 C   0  0  0  0  0  0  0  0  0  0  0  0
    5.3309    0.7312   18.6862 H   0  0  0  0  0  0  0  0  0  0  0  0
    6.9252    0.7497   18.8235 H   0  0  0  0  0  0  0  0  0  0  0  0
    6.0585   -0.2722   19.6985 H   0  0  0  0  0  0  0  0  0  0  0  0
    5.0090   -2.3067   17.8847 C   0  0  0  0  0  0  0  0  0  0  0  0
    5.1759   -2.6809   18.7751 H   0  0  0  0  0  0  0  0  0  0  0  0
    5.0551   -3.0214   17.2161 H   0  0  0  0  0  0  0  0  0  0  0  0
    4.1191   -1.8968   17.8644 H   0  0  0  0  0  0  0  0  0  0  0  0
    7.8385   -1.8788   17.8064 C   0  0  0  0  0  0  0  0  0  0  0  0
    8.5671   -1.2354   17.6890 H   0  0  0  0  0  0  0  0  0  0  0  0
    7.9452   -2.6145   17.1669 H   0  0  0  0  0  0  0  0  0  0  0  0
    7.8581   -2.2342   18.7189 H   0  0  0  0  0  0  0  0  0  0  0  0
    3.7973   -1.8904   12.1270 C   0  0  0  0  0  0  0  0  0  0  0  0
    2.9838   -2.3386   11.8182 H   0  0  0  0  0  0  0  0  0  0  0  0
    4.5601   -2.5010   12.0420 H   0  0  0  0  0  0  0  0  0  0  0  0
    3.9580   -1.0906   11.5845 H   0  0  0  0  0  0  0  0  0  0  0  0
    3.3801   -2.9685   14.7349 C   0  0  0  0  0  0  0  0  0  0  0  0
    2.6406   -3.4728   14.3336 H   0  0  0  0  0  0  0  0  0  0  0  0
    3.1731   -2.7765   15.6725 H   0  0  0  0  0  0  0  0  0  0  0  0
    4.2023   -3.4980   14.6820 H   0  0  0  0  0  0  0  0  0  0  0  0
    2.0053   -0.5850   13.9411 C   0  0  0  0  0  0  0  0  0  0  0  0
    2.0521    0.2700   13.4643 H   0  0  0  0  0  0  0  0  0  0  0  0
    1.7805   -0.4244   14.8803 H   0  0  0  0  0  0  0  0  0  0  0  0
    1.3166   -1.1497   13.5313 H   0  0  0  0  0  0  0  0  0  0  0  0
    4.0747    1.7558   16.3437 C   0  0  0  0  0  0  0  0  0  0  0  0
    3.1229    1.1154   17.0486 C   0  0  0  0  0  0  0  0  0  0  0  0
    3.0386    0.1683   17.0516 H   0  0  0  0  0  0  0  0  0  0  0  0
    2.1917    2.0207   17.8402 C   0  0  0  0  0  0  0  0  0  0  0  0
    2.4483   -0.1304   20.0586 C   0  0  0  0  0  0  0  0  0  0  0  0
    2.3944   -0.2771   21.0267 H   0  0  0  0  0  0  0  0  0  0  0  0
    3.3087   -0.4608   19.7263 H   0  0  0  0  0  0  0  0  0  0  0  0
    1.7193   -0.6101   19.6145 H   0  0  0  0  0  0  0  0  0  0  0  0
    0.8241    2.3433   20.6492 C   0  0  0  0  0  0  0  0  0  0  0  0
    0.0274    1.8316   20.3976 H   0  0  0  0  0  0  0  0  0  0  0  0
    0.6837    3.2905   20.4408 H   0  0  0  0  0  0  0  0  0  0  0  0
    0.9870    2.2417   21.6109 H   0  0  0  0  0  0  0  0  0  0  0  0
    3.7797    2.5675   20.4926 C   0  0  0  0  0  0  0  0  0  0  0  0
    3.5898    3.5243   20.5848 H   0  0  0  0  0  0  0  0  0  0  0  0
    4.5717    2.4440   19.9291 H   0  0  0  0  0  0  0  0  0  0  0  0
    3.9448    2.1804   21.3778 H   0  0  0  0  0  0  0  0  0  0  0  0
    0.3972    2.1016   15.3086 C   0  0  0  0  0  0  0  0  0  0  0  0
    0.0400    2.9849   15.0815 H   0  0  0  0  0  0  0  0  0  0  0  0
   -0.1744    1.4074   14.9178 H   0  0  0  0  0  0  0  0  0  0  0  0
    1.3060    2.0143   14.9542 H   0  0  0  0  0  0  0  0  0  0  0  0
   -0.2754    0.1995   17.5735 C   0  0  0  0  0  0  0  0  0  0  0  0
    0.3402   -0.4928   17.2530 H   0  0  0  0  0  0  0  0  0  0  0  0
   -1.1437    0.0943   17.1328 H   0  0  0  0  0  0  0  0  0  0  0  0
   -0.3869    0.1145   18.5427 H   0  0  0  0  0  0  0  0  0  0  0  0
   -0.7267    3.2510   17.8170 C   0  0  0  0  0  0  0  0  0  0  0  0
   -1.0884    2.9801   18.6873 H   0  0  0  0  0  0  0  0  0  0  0  0
   -1.4647    3.3791   17.1839 H   0  0  0  0  0  0  0  0  0  0  0  0
   -0.2312    4.0893   17.9154 H   0  0  0  0  0  0  0  0  0  0  0  0
    2.7913    5.9297   17.6730 C   0  0  0  0  0  0  0  0  0  0  0  0
    3.6925    6.0485   18.0357 H   0  0  0  0  0  0  0  0  0  0  0  0
    2.1822    6.5752   18.0887 H   0  0  0  0  0  0  0  0  0  0  0  0
    2.8068    6.0744   16.7030 H   0  0  0  0  0  0  0  0  0  0  0  0
    4.7658    4.1957   15.9089 C   0  0  0  0  0  0  0  0  0  0  0  0
    4.3082    4.7810   14.7341 C   0  0  0  0  0  0  0  0  0  0  0  0
    4.9223    5.9268   14.2430 C   0  0  0  0  0  0  0  0  0  0  0  0
    4.6103    6.3267   13.4401 H   0  0  0  0  0  0  0  0  0  0  0  0
    5.9960    6.4872   14.9276 C   0  0  0  0  0  0  0  0  0  0  0  0
    6.4159    7.2703   14.5912 H   0  0  0  0  0  0  0  0  0  0  0  0
    6.4534    5.9020   16.1017 C   0  0  0  0  0  0  0  0  0  0  0  0
    7.1861    6.2851   16.5690 H   0  0  0  0  0  0  0  0  0  0  0  0
    5.8376    4.7563   16.5928 C   0  0  0  0  0  0  0  0  0  0  0  0
    6.4037    4.1647   17.8910 C   0  0  0  0  0  0  0  0  0  0  0  0
    6.0578    3.2305   17.9810 H   0  0  0  0  0  0  0  0  0  0  0  0
    7.9425    4.1039   17.8762 C   0  0  0  0  0  0  0  0  0  0  0  0
    8.2470    3.7286   17.0240 H   0  0  0  0  0  0  0  0  0  0  0  0
    8.2533    3.5352   18.6126 H   0  0  0  0  0  0  0  0  0  0  0  0
    8.3064    5.0065   17.9854 H   0  0  0  0  0  0  0  0  0  0  0  0
    5.9465    4.9663   19.1315 C   0  0  0  0  0  0  0  0  0  0  0  0
    6.2154    5.9036   19.0326 H   0  0  0  0  0  0  0  0  0  0  0  0
    6.3656    4.5908   19.9353 H   0  0  0  0  0  0  0  0  0  0  0  0
    4.9726    4.9122   19.2161 H   0  0  0  0  0  0  0  0  0  0  0  0
    3.1050    4.2525   13.9327 C   0  0  0  0  0  0  0  0  0  0  0  0
    2.9546    3.3010   14.2037 H   0  0  0  0  0  0  0  0  0  0  0  0
    3.3318    4.2748   12.4234 C   0  0  0  0  0  0  0  0  0  0  0  0
    3.3384    5.2022   12.1084 H   0  0  0  0  0  0  0  0  0  0  0  0
    2.6099    3.7832   11.9782 H   0  0  0  0  0  0  0  0  0  0  0  0
    4.1910    3.8522   12.2158 H   0  0  0  0  0  0  0  0  0  0  0  0
    1.8631    5.0348   14.2904 C   0  0  0  0  0  0  0  0  0  0  0  0
    2.0161    5.9873   14.1200 H   0  0  0  0  0  0  0  0  0  0  0  0
    1.6525    4.9008   15.2374 H   0  0  0  0  0  0  0  0  0  0  0  0
    1.1116    4.7224   13.7418 H   0  0  0  0  0  0  0  0  0  0  0  0
   10.2591   -0.7903   13.4522 N   0  0  0  0  0  0  0  0  0  0  0  0
    3.9464    3.1852   16.5617 N   0  0  0  0  0  0  0  0  0  0  0  0
   12.6437   -0.5201   12.6859 O   0  0  0  0  0  0  0  0  0  0  0  0
    2.3351    4.5932   17.9503 O   0  0  0  0  0  0  0  0  0  0  0  0
    7.4051    1.6286   13.6350 P   0  0  0  0  0  0  0  0  0  0  0  0
    7.1220    1.4706   15.8306 P   0  0  0  0  0  0  0  0  0  0  0  0
    5.1980    1.3521   13.4204 P   0  0  0  0  0  0  0  0  0  0  0  0
    6.6723   -1.5663   14.3141 P   0  0  0  0  0  0  0  0  0  0  0  0
    6.2555   -1.0559   17.5151 P   0  0  0  0  0  0  0  0  0  0  0  0
    3.6042   -1.4184   13.8385 P   0  0  0  0  0  0  0  0  0  0  0  0
   12.3936    2.2946   14.1970 Si  0  0  0  0  0  0  0  0  0  0  0  0
   12.8447   -0.1962   16.1144 Si  0  0  0  0  0  0  0  0  0  0  0  0
    2.3015    1.7070   19.6967 Si  0  0  0  0  0  0  0  0  0  0  0  0
    0.4320    1.9033   17.1692 Si  0  0  0  0  0  0  0  0  0  0  0  0
  1 41  1  0  0  0  0
  2 36  1  0  0  0  0
  3  4  1  0  0  0  0
  4  5  1  0  0  0  0
  5  3  1  0  0  0  0
  6 97  1  0  0  0  0
  7  8  4  0  0  0  0
  8  9  4  0  0  0  0
  9 10  1  0  0  0  0
 11  9  4  0  0  0  0
 12 11  1  0  0  0  0
 13 11  4  0  0  0  0
 14 13  1  0  0  0  0
 15  7  4  0  0  0  0
 16 15  1  0  0  0  0
 17 16  1  0  0  0  0
 18 16  1  0  0  0  0
 19 18  1  0  0  0  0
 20 18  1  0  0  0  0
 21 18  1  0  0  0  0
 22 16  1  0  0  0  0
 23 22  1  0  0  0  0
 24 22  1  0  0  0  0
 25 22  1  0  0  0  0
 26  8  1  0  0  0  0
 27 26  1  0  0  0  0
 28 26  1  0  0  0  0
 29 28  1  0  0  0  0
 30 28  1  0  0  0  0
 31 28  1  0  0  0  0
 32 26  1  0  0  0  0
 33 32  1  0  0  0  0
 34 32  1  0  0  0  0
 35 32  1  0  0  0  0
 36 37  1  0  0  0  0
 38 36  1  0  0  0  0
 39 38  1  0  0  0  0
 40 38  1  0  0  0  0
 41 38  1  0  0  0  0
 42 43  1  0  0  0  0
 44 42  1  0  0  0  0
 45 42  1  0  0  0  0
 46 47  1  0  0  0  0
 48 46  1  0  0  0  0
 49 46  1  0  0  0  0
 50 51  1  0  0  0  0
 52 50  1  0  0  0  0
 53 50  1  0  0  0  0
 54 55  1  0  0  0  0
 56 54  1  0  0  0  0
 57 54  1  0  0  0  0
 58 59  1  0  0  0  0
 60 58  1  0  0  0  0
 61 58  1  0  0  0  0
 62 63  1  0  0  0  0
 64 62  1  0  0  0  0
 65 62  1  0  0  0  0
 66 67  1  0  0  0  0
 68 66  1  0  0  0  0
 69 66  1  0  0  0  0
 70 71  1  0  0  0  0
 72 70  1  0  0  0  0
 73 70  1  0  0  0  0
 74 75  1  0  0  0  0
 76 74  1  0  0  0  0
 77 74  1  0  0  0  0
 78 79  1  0  0  0  0
 80 78  1  0  0  0  0
 81 78  1  0  0  0  0
 82 83  1  0  0  0  0
 84 82  1  0  0  0  0
 85 82  1  0  0  0  0
 86 87  1  0  0  0  0
 88 86  1  0  0  0  0
 89 86  1  0  0  0  0
 90 91  1  0  0  0  0
 92 90  1  0  0  0  0
 93 90  1  0  0  0  0
 94  5  1  0  0  0  0
 95 94  2  0  0  0  0
 96 95  1  0  0  0  0
 97 95  1  0  0  0  0
 98 99  1  0  0  0  0
100 98  1  0  0  0  0
101 98  1  0  0  0  0
102103  1  0  0  0  0
104102  1  0  0  0  0
105102  1  0  0  0  0
106107  1  0  0  0  0
108106  1  0  0  0  0
109106  1  0  0  0  0
110111  1  0  0  0  0
112110  1  0  0  0  0
113110  1  0  0  0  0
114115  1  0  0  0  0
116114  1  0  0  0  0
117114  1  0  0  0  0
118119  1  0  0  0  0
120118  1  0  0  0  0
121118  1  0  0  0  0
122123  1  0  0  0  0
124122  1  0  0  0  0
125122  1  0  0  0  0
126127  4  0  0  0  0
127128  4  0  0  0  0
128129  1  0  0  0  0
130128  4  0  0  0  0
131130  1  0  0  0  0
132130  4  0  0  0  0
133132  1  0  0  0  0
134126  4  0  0  0  0
135134  1  0  0  0  0
136135  1  0  0  0  0
137135  1  0  0  0  0
138137  1  0  0  0  0
139137  1  0  0  0  0
140137  1  0  0  0  0
141135  1  0  0  0  0
142141  1  0  0  0  0
143141  1  0  0  0  0
144141  1  0  0  0  0
145127  1  0  0  0  0
146145  1  0  0  0  0
147145  1  0  0  0  0
148147  1  0  0  0  0
149147  1  0  0  0  0
150147  1  0  0  0  0
151145  1  0  0  0  0
152151  1  0  0  0  0
153151  1  0  0  0  0
154151  1  0  0  0  0
155  1  1  0  0  0  0
156  6  1  0  0  0  0
157  1  1  0  0  0  0
158  6  1  0  0  0  0
159  2  1  0  0  0  0
160  2  1  0  0  0  0
161  4  1  0  0  0  0
162  2  1  0  0  0  0
163  3  1  0  0  0  0
164  4  1  0  0  0  0
165 41  1  0  0  0  0
166 41  1  0  0  0  0
167 97  1  0  0  0  0
168 97  1  0  0  0  0
  3160  1  0  0  0  0
  3162  1  0  0  0  0
  4162  1  0  0  0  0
  5160  1  0  0  0  0
  5161  1  0  0  0  0
  7155  1  0  0  0  0
 13 15  4  0  0  0  0
 36155  1  0  0  0  0
 42165  1  0  0  0  0
 46165  1  0  0  0  0
 50165  1  0  0  0  0
 54166  1  0  0  0  0
 58166  1  0  0  0  0
 62166  1  0  0  0  0
 66157  1  0  0  0  0
 70163  1  0  0  0  0
 74163  1  0  0  0  0
 78163  1  0  0  0  0
 82164  1  0  0  0  0
 86164  1  0  0  0  0
 90164  1  0  0  0  0
 94156  1  0  0  0  0
 98167  1  0  0  0  0
102167  1  0  0  0  0
106167  1  0  0  0  0
110168  1  0  0  0  0
114168  1  0  0  0  0
118168  1  0  0  0  0
122158  1  0  0  0  0
126156  1  0  0  0  0
132134  4  0  0  0  0
159160  1  0  0  0  0
159161  1  0  0  0  0
M  END
$$$$
XONRAW

From CSD data. Using bond type 'Any'. No disordered atoms. Largest molecule.
106115  0  0  0  0  0  0  0  0999 V2000
    4.4434    2.8345    5.6963 C   0  0  0  0  0  0  0  0  0  0  0  0
    4.4974    4.2473    5.4529 C   0  0  0  0  0  0  0  0  0  0  0  0
    5.0521    5.0581    6.4368 C   0  0  0  0  0  0  0  0  0  0  0  0
    5.1065    5.9740    6.2832 H   0  0  0  0  0  0  0  0  0  0  0  0
    5.5282    4.5546    7.6428 C   0  0  0  0  0  0  0  0  0  0  0  0
    5.8880    5.1288    8.2803 H   0  0  0  0  0  0  0  0  0  0  0  0
    5.4623    3.1973    7.8867 C   0  0  0  0  0  0  0  0  0  0  0  0
    5.7738    2.8498    8.6916 H   0  0  0  0  0  0  0  0  0  0  0  0
    4.9262    2.3525    6.9157 C   0  0  0  0  0  0  0  0  0  0  0  0
    4.8889    1.4387    7.0853 H   0  0  0  0  0  0  0  0  0  0  0  0
    2.6105    0.0106    6.2488 C   0  0  0  0  0  0  0  0  0  0  0  0
    3.0307   -0.8489    7.2576 C   0  0  0  0  0  0  0  0  0  0  0  0
    3.8811   -1.2231    7.2253 H   0  0  0  0  0  0  0  0  0  0  0  0
    2.1765   -1.1494    8.3173 C   0  0  0  0  0  0  0  0  0  0  0  0
    2.4569   -1.7369    8.9813 H   0  0  0  0  0  0  0  0  0  0  0  0
    0.9270   -0.5886    8.3913 C   0  0  0  0  0  0  0  0  0  0  0  0
    0.3570   -0.8054    9.0932 H   0  0  0  0  0  0  0  0  0  0  0  0
    0.5248    0.2975    7.4157 C   0  0  0  0  0  0  0  0  0  0  0  0
   -0.3058    0.7113    7.4797 H   0  0  0  0  0  0  0  0  0  0  0  0
    1.3568    0.5755    6.3376 C   0  0  0  0  0  0  0  0  0  0  0  0
    1.0635    1.1508    5.6684 H   0  0  0  0  0  0  0  0  0  0  0  0
    5.0910   -0.5868    4.8894 C   0  0  0  0  0  0  0  0  0  0  0  0
    4.9973   -1.9764    4.8222 C   0  0  0  0  0  0  0  0  0  0  0  0
    4.1636   -2.3774    4.7263 H   0  0  0  0  0  0  0  0  0  0  0  0
    6.1209   -2.7573    4.8962 C   0  0  0  0  0  0  0  0  0  0  0  0
    6.0420   -3.6836    4.8661 H   0  0  0  0  0  0  0  0  0  0  0  0
    7.3601   -2.1842    5.0139 C   0  0  0  0  0  0  0  0  0  0  0  0
    8.1192   -2.7192    5.0595 H   0  0  0  0  0  0  0  0  0  0  0  0
    7.4745   -0.8214    5.0610 C   0  0  0  0  0  0  0  0  0  0  0  0
    8.3144   -0.4309    5.1450 H   0  0  0  0  0  0  0  0  0  0  0  0
    6.3442   -0.0189    4.9870 C   0  0  0  0  0  0  0  0  0  0  0  0
    6.4330    0.9069    5.0029 H   0  0  0  0  0  0  0  0  0  0  0  0
    5.7158    6.6172    3.1604 C   0  0  0  0  0  0  0  0  0  0  0  0
    6.1503    6.2885    1.8653 C   0  0  0  0  0  0  0  0  0  0  0  0
    5.5379    5.9605    1.2472 H   0  0  0  0  0  0  0  0  0  0  0  0
    7.4706    6.4428    1.4986 C   0  0  0  0  0  0  0  0  0  0  0  0
    7.7362    6.2267    0.6336 H   0  0  0  0  0  0  0  0  0  0  0  0
    8.4012    6.9170    2.4018 C   0  0  0  0  0  0  0  0  0  0  0  0
    9.2925    7.0028    2.1512 H   0  0  0  0  0  0  0  0  0  0  0  0
    8.0008    7.2608    3.6768 C   0  0  0  0  0  0  0  0  0  0  0  0
    8.6256    7.5812    4.2876 H   0  0  0  0  0  0  0  0  0  0  0  0
    6.6490    7.1286    4.0602 C   0  0  0  0  0  0  0  0  0  0  0  0
    6.3808    7.3817    4.9133 H   0  0  0  0  0  0  0  0  0  0  0  0
    3.4221    7.4805    4.7532 C   0  0  0  0  0  0  0  0  0  0  0  0
    2.5570    7.1243    5.7826 C   0  0  0  0  0  0  0  0  0  0  0  0
    2.3327    6.2299    5.9072 H   0  0  0  0  0  0  0  0  0  0  0  0
    2.0283    8.0830    6.6219 C   0  0  0  0  0  0  0  0  0  0  0  0
    1.4549    7.8307    7.3087 H   0  0  0  0  0  0  0  0  0  0  0  0
    2.3447    9.4224    6.4469 C   0  0  0  0  0  0  0  0  0  0  0  0
    1.9905   10.0660    7.0159 H   0  0  0  0  0  0  0  0  0  0  0  0
    3.1924    9.7901    5.4142 C   0  0  0  0  0  0  0  0  0  0  0  0
    3.3994   10.6880    5.2853 H   0  0  0  0  0  0  0  0  0  0  0  0
    3.7325    8.8344    4.5766 C   0  0  0  0  0  0  0  0  0  0  0  0
    4.3066    9.0921    3.8918 H   0  0  0  0  0  0  0  0  0  0  0  0
    5.6737    1.8669    0.7956 C   0  0  0  0  0  0  0  0  0  0  0  0
    5.6210    0.9312    0.5463 H   0  0  0  0  0  0  0  0  0  0  0  0
    5.8735    1.9222    1.7425 H   0  0  0  0  0  0  0  0  0  0  0  0
    6.7002    2.5227    0.0353 C   0  0  0  0  0  0  0  0  0  0  0  0
    7.2952    1.8668   -0.3618 H   0  0  0  0  0  0  0  0  0  0  0  0
    7.2227    3.1054    0.6085 H   0  0  0  0  0  0  0  0  0  0  0  0
    6.0221    3.3131   -1.0243 C   0  0  0  0  0  0  0  0  0  0  0  0
    6.2227    4.2576   -0.9350 H   0  0  0  0  0  0  0  0  0  0  0  0
    6.2928    3.0148   -1.9068 H   0  0  0  0  0  0  0  0  0  0  0  0
    4.5795    3.0519   -0.7939 C   0  0  0  0  0  0  0  0  0  0  0  0
    4.0730    3.8753   -0.8696 H   0  0  0  0  0  0  0  0  0  0  0  0
    4.2435    2.4218   -1.4509 H   0  0  0  0  0  0  0  0  0  0  0  0
    0.9090    1.6432   -0.3734 C   0  0  0  0  0  0  0  0  0  0  0  0
    0.1496    1.1665   -0.0027 H   0  0  0  0  0  0  0  0  0  0  0  0
    1.7018    1.0964   -0.2594 H   0  0  0  0  0  0  0  0  0  0  0  0
    0.6877    1.9271   -1.7896 C   0  0  0  0  0  0  0  0  0  0  0  0
    1.4018    1.5447   -2.3233 H   0  0  0  0  0  0  0  0  0  0  0  0
   -0.1534    1.5402   -2.0810 H   0  0  0  0  0  0  0  0  0  0  0  0
    0.6571    3.3748   -1.9561 C   0  0  0  0  0  0  0  0  0  0  0  0
   -0.1352    3.6453   -2.4459 H   0  0  0  0  0  0  0  0  0  0  0  0
    1.4410    3.6786   -2.4403 H   0  0  0  0  0  0  0  0  0  0  0  0
    0.6406    3.9422   -0.5769 C   0  0  0  0  0  0  0  0  0  0  0  0
    1.2383    4.7034   -0.5153 H   0  0  0  0  0  0  0  0  0  0  0  0
   -0.2548    4.2300   -0.3388 H   0  0  0  0  0  0  0  0  0  0  0  0
    0.0189    3.9697    4.9517 C   0  0  0  0  0  0  0  0  0  0  0  0
    0.1049    4.9236    4.7940 H   0  0  0  0  0  0  0  0  0  0  0  0
    0.6426    3.7103    5.6487 H   0  0  0  0  0  0  0  0  0  0  0  0
   -1.3915    3.6148    5.3352 C   0  0  0  0  0  0  0  0  0  0  0  0
   -1.4215    2.7871    5.8401 H   0  0  0  0  0  0  0  0  0  0  0  0
   -1.8032    4.3214    5.8576 H   0  0  0  0  0  0  0  0  0  0  0  0
   -2.0573    3.4649    4.0081 C   0  0  0  0  0  0  0  0  0  0  0  0
   -2.8604    2.9246    4.0727 H   0  0  0  0  0  0  0  0  0  0  0  0
   -2.2814    4.3267    3.6237 H   0  0  0  0  0  0  0  0  0  0  0  0
   -1.0130    2.7826    3.2243 C   0  0  0  0  0  0  0  0  0  0  0  0
   -1.0953    1.8202    3.3152 H   0  0  0  0  0  0  0  0  0  0  0  0
   -1.0883    3.0129    2.2854 H   0  0  0  0  0  0  0  0  0  0  0  0
    2.5823   -0.0906    3.1486 B   0  0  0  0  0  0  0  0  0  0  0  0
    1.7350    0.3445    3.2377 H   0  0  0  0  0  0  0  0  0  0  0  0
    3.2171    0.1326    2.2751 H   0  0  0  0  0  0  0  0  0  0  0  0
    2.4852   -0.7560    3.1596 H   0  0  0  0  0  0  0  0  0  0  0  0
    2.7977    6.2166    2.0268 B   0  0  0  0  0  0  0  0  0  0  0  0
    3.2710    5.5243    1.4158 H   0  0  0  0  0  0  0  0  0  0  0  0
    1.7848    5.9480    2.3907 H   0  0  0  0  0  0  0  0  0  0  0  0
    2.6733    3.0599    2.5436 Ba  0  0  0  0  0  0  0  0  0  0  0  0
    3.9061    2.0373    4.6777 N   0  0  0  0  0  0  0  0  0  0  0  0
    3.9188    4.6936    4.2515 N   0  0  0  0  0  0  0  0  0  0  0  0
    4.4523    2.5108    0.5192 O   0  0  0  0  0  0  0  0  0  0  0  0
    1.0742    2.8957    0.2859 O   0  0  0  0  0  0  0  0  0  0  0  0
    0.2591    3.2332    3.7553 O   0  0  0  0  0  0  0  0  0  0  0  0
    3.5910    0.4477    4.7626 P   0  0  0  0  0  0  0  0  0  0  0  0
    4.0032    6.1755    3.6117 P   0  0  0  0  0  0  0  0  0  0  0  0
    2.8240    6.5667    1.9511 H   0  0  0  0  0  0  0  0  0  0  0  0
  1  2  4  0  0  0  0
  2  3  4  0  0  0  0
  3  4  1  0  0  0  0
  5  3  4  0  0  0  0
  6  5  1  0  0  0  0
  7  5  4  0  0  0  0
  8  7  1  0  0  0  0
  9  1  4  0  0  0  0
 10  9  1  0  0  0  0
 11 12  4  0  0  0  0
 12 13  1  0  0  0  0
 14 12  4  0  0  0  0
 15 14  1  0  0  0  0
 16 14  4  0  0  0  0
 17 16  1  0  0  0  0
 18 16  4  0  0  0  0
 19 18  1  0  0  0  0
 20 11  4  0  0  0  0
 21 20  1  0  0  0  0
 22 23  4  0  0  0  0
 23 24  1  0  0  0  0
 25 23  4  0  0  0  0
 26 25  1  0  0  0  0
 27 25  4  0  0  0  0
 28 27  1  0  0  0  0
 29 27  4  0  0  0  0
 30 29  1  0  0  0  0
 31 22  4  0  0  0  0
 32 31  1  0  0  0  0
 33 34  4  0  0  0  0
 34 35  1  0  0  0  0
 36 34  4  0  0  0  0
 37 36  1  0  0  0  0
 38 36  4  0  0  0  0
 39 38  1  0  0  0  0
 40 38  4  0  0  0  0
 41 40  1  0  0  0  0
 42 33  4  0  0  0  0
 43 42  1  0  0  0  0
 44 45  4  0  0  0  0
 45 46  1  0  0  0  0
 47 45  4  0  0  0  0
 48 47  1  0  0  0  0
 49 47  4  0  0  0  0
 50 49  1  0  0  0  0
 51 49  4  0  0  0  0
 52 51  1  0  0  0  0
 53 44  4  0  0  0  0
 54 53  1  0  0  0  0
 55 56  1  0  0  0  0
 57 55  1  0  0  0  0
 58 55  1  0  0  0  0
 59 58  1  0  0  0  0
 60 58  1  0  0  0  0
 61 58  1  0  0  0  0
 62 61  1  0  0  0  0
 63 61  1  0  0  0  0
 64 61  1  0  0  0  0
 65 64  1  0  0  0  0
 66 64  1  0  0  0  0
 67 68  1  0  0  0  0
 69 67  1  0  0  0  0
 70 67  1  0  0  0  0
 71 70  1  0  0  0  0
 72 70  1  0  0  0  0
 73 70  1  0  0  0  0
 74 73  1  0  0  0  0
 75 73  1  0  0  0  0
 76 73  1  0  0  0  0
 77 76  1  0  0  0  0
 78 76  1  0  0  0  0
 79 80  1  0  0  0  0
 81 79  1  0  0  0  0
 82 79  1  0  0  0  0
 83 82  1  0  0  0  0
 84 82  1  0  0  0  0
 85 82  1  0  0  0  0
 86 85  1  0  0  0  0
 87 85  1  0  0  0  0
 88 85  1  0  0  0  0
 89 88  1  0  0  0  0
 90 88  1  0  0  0  0
 91 92  1  0  0  0  0
 93 91  1  0  0  0  0
 94 91  1  0  0  0  0
 95 96  1  0  0  0  0
 96 98  1  0  0  0  0
 97 95  1  0  0  0  0
 98 99  1  0  0  0  0
 99  1  1  0  0  0  0
100  2  1  0  0  0  0
101 55  1  0  0  0  0
102 67  1  0  0  0  0
103 79  1  0  0  0  0
104 11  1  0  0  0  0
105 33  1  0  0  0  0
106 95  1  0  0  0  0
  7  9  4  0  0  0  0
 18 20  4  0  0  0  0
 22104  1  0  0  0  0
 29 31  4  0  0  0  0
 40 42  4  0  0  0  0
 44105  1  0  0  0  0
 51 53  4  0  0  0  0
 64101  1  0  0  0  0
 76102  1  0  0  0  0
 88103  1  0  0  0  0
 91104  1  0  0  0  0
 95105  1  0  0  0  0
 98100  1  0  0  0  0
 98101  1  0  0  0  0
 98102  1  0  0  0  0
 98103  1  0  0  0  0
 99104  1  0  0  0  0
100105  1  0  0  0  0
M  END
$$$$
XOXYOB

From CSD data. Using bond type 'Any'. Matching problem. No disordered atoms. Largest molecule.
 95137  0  0  0  0  0  0  0  0999 V2000
    3.0458    4.9136    1.2404 Fe  0  0  0  0  0  0  0  0  0  0  0  0
    3.2521    6.1396   -1.9526 P   0  0  0  0  0  0  0  0  0  0  0  0
    5.7033    7.3111   -5.4549 P   0  0  0  0  0  0  0  0  0  0  0  0
    6.1343    6.1015   -6.0452 O   0  0  0  0  0  0  0  0  0  0  0  0
    4.9727    4.6576    2.0087 C   0  0  0  0  0  0  0  0  0  0  0  0
    4.3704    3.2989    1.4078 C   0  0  0  0  0  0  0  0  0  0  0  0
    4.8781    5.9449    0.9128 B   0  0  0  0  0  0  0  0  0  0  0  0
    6.4286    5.1027    1.2251 B   0  0  0  0  0  0  0  0  0  0  0  0
    6.0842    3.4042    1.5922 B   0  0  0  0  0  0  0  0  0  0  0  0
    3.7850    3.4950   -0.1716 B   0  0  0  0  0  0  0  0  0  0  0  0
    4.1570    5.2124   -0.5420 B   0  0  0  0  0  0  0  0  0  0  0  0
    5.9383    5.4204   -0.4343 B   0  0  0  0  0  0  0  0  0  0  0  0
    6.6574    3.8480   -0.0143 B   0  0  0  0  0  0  0  0  0  0  0  0
    5.3350    2.6658    0.1643 B   0  0  0  0  0  0  0  0  0  0  0  0
    5.2510    3.9095   -1.1036 B   0  0  0  0  0  0  0  0  0  0  0  0
    4.9744    4.7765    2.9515 H   0  0  0  0  0  0  0  0  0  0  0  0
    3.9954    2.7083    1.9963 H   0  0  0  0  0  0  0  0  0  0  0  0
    4.8551    6.9964    1.3544 H   0  0  0  0  0  0  0  0  0  0  0  0
    7.1507    5.5979    1.7801 H   0  0  0  0  0  0  0  0  0  0  0  0
    6.4990    2.9014    2.4044 H   0  0  0  0  0  0  0  0  0  0  0  0
    2.9514    2.8186   -0.6243 H   0  0  0  0  0  0  0  0  0  0  0  0
    6.4472    6.1021   -1.0765 H   0  0  0  0  0  0  0  0  0  0  0  0
    7.6357    3.5592   -0.3485 H   0  0  0  0  0  0  0  0  0  0  0  0
    5.3801    1.5738    0.0463 H   0  0  0  0  0  0  0  0  0  0  0  0
    5.3271    3.6242   -2.0934 H   0  0  0  0  0  0  0  0  0  0  0  0
    1.9889    4.6042    2.9859 C   0  0  0  0  0  0  0  0  0  0  0  0
    2.2745    6.1683    2.7227 C   0  0  0  0  0  0  0  0  0  0  0  0
    1.2688    3.8468    1.6392 B   0  0  0  0  0  0  0  0  0  0  0  0
    0.3328    4.2928    3.1123 B   0  0  0  0  0  0  0  0  0  0  0  0
    1.0044    5.7564    3.8117 B   0  0  0  0  0  0  0  0  0  0  0  0
    1.7851    6.6353    1.1777 B   0  0  0  0  0  0  0  0  0  0  0  0
    1.0778    5.1590    0.3913 B   0  0  0  0  0  0  0  0  0  0  0  0
   -0.2981    4.6772    1.5073 B   0  0  0  0  0  0  0  0  0  0  0  0
   -0.4500    5.8593    2.8326 B   0  0  0  0  0  0  0  0  0  0  0  0
    0.8339    7.0561    2.6314 B   0  0  0  0  0  0  0  0  0  0  0  0
    0.0235    6.3960    1.1819 B   0  0  0  0  0  0  0  0  0  0  0  0
    2.5672    4.1915    3.6154 H   0  0  0  0  0  0  0  0  0  0  0  0
    3.0298    6.5217    3.1588 H   0  0  0  0  0  0  0  0  0  0  0  0
    1.3853    2.7832    1.5132 H   0  0  0  0  0  0  0  0  0  0  0  0
   -0.0375    3.5356    3.7654 H   0  0  0  0  0  0  0  0  0  0  0  0
    1.1367    5.8835    4.8485 H   0  0  0  0  0  0  0  0  0  0  0  0
    2.2783    7.5243    0.7323 H   0  0  0  0  0  0  0  0  0  0  0  0
   -1.1506    4.1600    1.1713 H   0  0  0  0  0  0  0  0  0  0  0  0
   -1.4265    6.1021    3.3419 H   0  0  0  0  0  0  0  0  0  0  0  0
    0.8609    8.0640    2.9515 H   0  0  0  0  0  0  0  0  0  0  0  0
   -0.6301    7.0200    0.6243 H   0  0  0  0  0  0  0  0  0  0  0  0
    4.3078    6.0523   -3.4533 C   0  0  0  0  0  0  0  0  0  0  0  0
    5.2534    6.0588   -3.1588 H   0  0  0  0  0  0  0  0  0  0  0  0
    4.1441    5.1783   -3.8889 H   0  0  0  0  0  0  0  0  0  0  0  0
    4.1402    7.1471   -4.5187 C   0  0  0  0  0  0  0  0  0  0  0  0
    3.9167    8.0088   -4.0853 H   0  0  0  0  0  0  0  0  0  0  0  0
    3.4033    6.9077   -5.1353 H   0  0  0  0  0  0  0  0  0  0  0  0
    1.6596    5.3643   -2.2548 C   0  0  0  0  0  0  0  0  0  0  0  0
    0.8442    4.9065   -1.1863 C   0  0  0  0  0  0  0  0  0  0  0  0
   -0.2873    4.1756   -1.5798 C   0  0  0  0  0  0  0  0  0  0  0  0
   -0.8515    3.8192   -0.9022 H   0  0  0  0  0  0  0  0  0  0  0  0
   -0.6268    3.9441   -2.9102 C   0  0  0  0  0  0  0  0  0  0  0  0
   -1.4013    3.4371   -3.1213 H   0  0  0  0  0  0  0  0  0  0  0  0
    0.1624    4.4509   -3.9234 C   0  0  0  0  0  0  0  0  0  0  0  0
   -0.0779    4.3176   -4.8331 H   0  0  0  0  0  0  0  0  0  0  0  0
    1.2961    5.1484   -3.5969 C   0  0  0  0  0  0  0  0  0  0  0  0
    1.8467    5.4935   -4.2904 H   0  0  0  0  0  0  0  0  0  0  0  0
    3.0430    7.9109   -1.6835 C   0  0  0  0  0  0  0  0  0  0  0  0
    1.8120    8.5282   -1.8556 C   0  0  0  0  0  0  0  0  0  0  0  0
    1.0516    8.0127   -2.1000 H   0  0  0  0  0  0  0  0  0  0  0  0
    1.6946    9.8973   -1.6707 C   0  0  0  0  0  0  0  0  0  0  0  0
    0.8475   10.3173   -1.7669 H   0  0  0  0  0  0  0  0  0  0  0  0
    2.8104   10.6553   -1.3467 C   0  0  0  0  0  0  0  0  0  0  0  0
    2.7283   11.5937   -1.2265 H   0  0  0  0  0  0  0  0  0  0  0  0
    4.0409   10.0461   -1.1984 C   0  0  0  0  0  0  0  0  0  0  0  0
    4.8055   10.5694   -0.9860 H   0  0  0  0  0  0  0  0  0  0  0  0
    4.1639    8.6805   -1.3575 C   0  0  0  0  0  0  0  0  0  0  0  0
    5.0096    8.2629   -1.2463 H   0  0  0  0  0  0  0  0  0  0  0  0
    5.4285    8.6464   -6.6337 C   0  0  0  0  0  0  0  0  0  0  0  0
    4.1720    8.9751   -7.1018 C   0  0  0  0  0  0  0  0  0  0  0  0
    3.4032    8.5682   -6.7213 H   0  0  0  0  0  0  0  0  0  0  0  0
    4.0313    9.9054   -8.1335 C   0  0  0  0  0  0  0  0  0  0  0  0
    3.1646   10.1341   -8.4485 H   0  0  0  0  0  0  0  0  0  0  0  0
    5.1362   10.4912   -8.6960 C   0  0  0  0  0  0  0  0  0  0  0  0
    5.0320   11.1229   -9.3992 H   0  0  0  0  0  0  0  0  0  0  0  0
    6.3897   10.1703   -8.2488 C   0  0  0  0  0  0  0  0  0  0  0  0
    7.1523   10.5753   -8.6448 H   0  0  0  0  0  0  0  0  0  0  0  0
    6.5452    9.2527   -7.2161 C   0  0  0  0  0  0  0  0  0  0  0  0
    7.4157    9.0370   -6.9044 H   0  0  0  0  0  0  0  0  0  0  0  0
    6.8851    7.9192   -4.2275 C   0  0  0  0  0  0  0  0  0  0  0  0
    6.7439    9.1753   -3.6421 C   0  0  0  0  0  0  0  0  0  0  0  0
    6.0572    9.7618   -3.9353 H   0  0  0  0  0  0  0  0  0  0  0  0
    7.6116    9.5692   -2.6267 C   0  0  0  0  0  0  0  0  0  0  0  0
    7.5172   10.4237   -2.2235 H   0  0  0  0  0  0  0  0  0  0  0  0
    8.6114    8.7090   -2.2067 C   0  0  0  0  0  0  0  0  0  0  0  0
    9.1977    8.9740   -1.5066 H   0  0  0  0  0  0  0  0  0  0  0  0
    8.7611    7.4815   -2.7913 C   0  0  0  0  0  0  0  0  0  0  0  0
    9.4592    6.9058   -2.5015 H   0  0  0  0  0  0  0  0  0  0  0  0
    7.9028    7.0679   -3.8049 C   0  0  0  0  0  0  0  0  0  0  0  0
    8.0107    6.2124   -4.2044 H   0  0  0  0  0  0  0  0  0  0  0  0
  1  5  1  0  0  0  0
  2 11  1  0  0  0  0
  3  4  2  0  0  0  0
  5  6  1  0  0  0  0
  6  1  1  0  0  0  0
  7  1  1  0  0  0  0
  8  5  1  0  0  0  0
  9  5  1  0  0  0  0
 10  1  1  0  0  0  0
 11  1  1  0  0  0  0
 12  7  1  0  0  0  0
 13  8  1  0  0  0  0
 14  6  1  0  0  0  0
 15 10  1  0  0  0  0
 16  5  1  0  0  0  0
 17  6  1  0  0  0  0
 18  7  1  0  0  0  0
 19  8  1  0  0  0  0
 20  9  1  0  0  0  0
 21 10  1  0  0  0  0
 22 12  1  0  0  0  0
 23 13  1  0  0  0  0
 24 14  1  0  0  0  0
 25 15  1  0  0  0  0
 26  1  1  0  0  0  0
 27  1  1  0  0  0  0
 28  1  1  0  0  0  0
 29 26  1  0  0  0  0
 30 26  1  0  0  0  0
 31  1  1  0  0  0  0
 32  1  1  0  0  0  0
 33 28  1  0  0  0  0
 34 29  1  0  0  0  0
 35 27  1  0  0  0  0
 36 31  1  0  0  0  0
 37 26  1  0  0  0  0
 38 27  1  0  0  0  0
 39 28  1  0  0  0  0
 40 29  1  0  0  0  0
 41 30  1  0  0  0  0
 42 31  1  0  0  0  0
 43 33  1  0  0  0  0
 44 34  1  0  0  0  0
 45 35  1  0  0  0  0
 46 36  1  0  0  0  0
 47  2  1  0  0  0  0
 48 47  1  0  0  0  0
 49 47  1  0  0  0  0
 50  3  1  0  0  0  0
 51 50  1  0  0  0  0
 52 50  1  0  0  0  0
 53  2  1  0  0  0  0
 54 32  1  0  0  0  0
 55 54  4  0  0  0  0
 56 55  1  0  0  0  0
 57 55  4  0  0  0  0
 58 57  1  0  0  0  0
 59 57  4  0  0  0  0
 60 59  1  0  0  0  0
 61 53  4  0  0  0  0
 62 61  1  0  0  0  0
 63  2  1  0  0  0  0
 64 63  4  0  0  0  0
 65 64  1  0  0  0  0
 66 64  4  0  0  0  0
 67 66  1  0  0  0  0
 68 66  4  0  0  0  0
 69 68  1  0  0  0  0
 70 68  4  0  0  0  0
 71 70  1  0  0  0  0
 72 63  4  0  0  0  0
 73 72  1  0  0  0  0
 74  3  1  0  0  0  0
 75 74  4  0  0  0  0
 76 75  1  0  0  0  0
 77 75  4  0  0  0  0
 78 77  1  0  0  0  0
 79 77  4  0  0  0  0
 80 79  1  0  0  0  0
 81 79  4  0  0  0  0
 82 81  1  0  0  0  0
 83 74  4  0  0  0  0
 84 83  1  0  0  0  0
 85  3  1  0  0  0  0
 86 85  4  0  0  0  0
 87 86  1  0  0  0  0
 88 86  4  0  0  0  0
 89 88  1  0  0  0  0
 90 88  4  0  0  0  0
 91 90  1  0  0  0  0
 92 90  4  0  0  0  0
 93 92  1  0  0  0  0
 94 85  4  0  0  0  0
 95 94  1  0  0  0  0
  5  7  1  0  0  0  0
  6  9  1  0  0  0  0
  6 10  1  0  0  0  0
  7  8  1  0  0  0  0
  7 11  1  0  0  0  0
  8  9  1  0  0  0  0
  8 12  1  0  0  0  0
  9 13  1  0  0  0  0
  9 14  1  0  0  0  0
 10 11  1  0  0  0  0
 10 14  1  0  0  0  0
 11 12  1  0  0  0  0
 11 15  1  0  0  0  0
 12 13  1  0  0  0  0
 12 15  1  0  0  0  0
 13 14  1  0  0  0  0
 13 15  1  0  0  0  0
 14 15  1  0  0  0  0
 26 27  1  0  0  0  0
 26 28  1  0  0  0  0
 27 30  1  0  0  0  0
 27 31  1  0  0  0  0
 28 29  1  0  0  0  0
 28 32  1  0  0  0  0
 29 30  1  0  0  0  0
 29 33  1  0  0  0  0
 30 34  1  0  0  0  0
 30 35  1  0  0  0  0
 31 32  1  0  0  0  0
 31 35  1  0  0  0  0
 32 33  1  0  0  0  0
 32 36  1  0  0  0  0
 33 34  1  0  0  0  0
 33 36  1  0  0  0  0
 34 35  1  0  0  0  0
 34 36  1  0  0  0  0
 35 36  1  0  0  0  0
 47 50  1  0  0  0  0
 53 54  4  0  0  0  0
 59 61  4  0  0  0  0
 70 72  4  0  0  0  0
 81 83  4  0  0  0  0
 92 94  4  0  0  0  0
M  END
$$$$
XUBBEF

From CSD data. Using bond type 'Any'. No disordered atoms. Largest molecule.
218229  0  0  0  0  0  0  0  0999 V2000
   10.2408   -0.2126   10.3674 Zn  0  0  0  0  0  0  0  0  0  0  0  0
    9.1874    5.1097   10.1684 P   0  0  0  0  0  0  0  0  0  0  0  0
    9.3753   -0.3131   17.3428 O   0  0  0  0  0  0  0  0  0  0  0  0
    8.7747    1.0684   10.3578 N   0  0  0  0  0  0  0  0  0  0  0  0
    9.2000    1.9428   17.2208 O   0  0  0  0  0  0  0  0  0  0  0  0
    9.2225   -1.7579    9.7264 N   0  0  0  0  0  0  0  0  0  0  0  0
    7.5570    0.7787    9.9222 C   0  0  0  0  0  0  0  0  0  0  0  0
    7.1968   -0.5029    9.4416 C   0  0  0  0  0  0  0  0  0  0  0  0
    6.2987   -0.5796    9.1423 H   0  0  0  0  0  0  0  0  0  0  0  0
    9.0641    2.4300   10.8249 C   0  0  0  0  0  0  0  0  0  0  0  0
    9.7941    2.3955   11.4923 H   0  0  0  0  0  0  0  0  0  0  0  0
    8.2610    2.7979   11.2710 H   0  0  0  0  0  0  0  0  0  0  0  0
    9.4712    3.3558    9.6878 C   0  0  0  0  0  0  0  0  0  0  0  0
    8.9415    3.1419    8.8792 H   0  0  0  0  0  0  0  0  0  0  0  0
   10.4283    3.2194    9.4747 H   0  0  0  0  0  0  0  0  0  0  0  0
    7.9525   -1.6699    9.3384 C   0  0  0  0  0  0  0  0  0  0  0  0
   10.6597    0.8552   15.4624 C   0  0  0  0  0  0  0  0  0  0  0  0
    6.4685    1.8254    9.9410 C   0  0  0  0  0  0  0  0  0  0  0  0
    6.3521    2.1605   10.8538 H   0  0  0  0  0  0  0  0  0  0  0  0
    5.6288    1.4292    9.6277 H   0  0  0  0  0  0  0  0  0  0  0  0
    6.7195    2.5670    9.3502 H   0  0  0  0  0  0  0  0  0  0  0  0
   10.9143    2.0439   14.7802 C   0  0  0  0  0  0  0  0  0  0  0  0
   10.6323    2.8636   15.1694 H   0  0  0  0  0  0  0  0  0  0  0  0
   11.0317   -2.1050    7.4674 C   0  0  0  0  0  0  0  0  0  0  0  0
   10.6536   -1.2551    7.8342 H   0  0  0  0  0  0  0  0  0  0  0  0
   12.0164    0.9020   12.9819 C   0  0  0  0  0  0  0  0  0  0  0  0
    9.8432    5.9995    8.7335 C   0  0  0  0  0  0  0  0  0  0  0  0
    9.9415   -3.0201    9.5869 C   0  0  0  0  0  0  0  0  0  0  0  0
   11.1503   -0.3231   14.8833 C   0  0  0  0  0  0  0  0  0  0  0  0
   11.0174   -1.1530   15.3245 H   0  0  0  0  0  0  0  0  0  0  0  0
   11.8275   -0.2920   13.6688 C   0  0  0  0  0  0  0  0  0  0  0  0
   12.1668   -1.1007   13.3021 H   0  0  0  0  0  0  0  0  0  0  0  0
   10.8202   -3.1954    8.5178 C   0  0  0  0  0  0  0  0  0  0  0  0
    9.7956   -4.0168   10.5810 C   0  0  0  0  0  0  0  0  0  0  0  0
    8.9155   -3.7972   11.8002 C   0  0  0  0  0  0  0  0  0  0  0  0
    8.1918   -3.1591   11.5393 H   0  0  0  0  0  0  0  0  0  0  0  0
   11.5531    2.0728   13.5750 C   0  0  0  0  0  0  0  0  0  0  0  0
   11.6830    2.9044   13.1338 H   0  0  0  0  0  0  0  0  0  0  0  0
   10.4689    5.3383   11.4321 C   0  0  0  0  0  0  0  0  0  0  0  0
   12.0607    5.7438   13.6196 C   0  0  0  0  0  0  0  0  0  0  0  0
   12.6058    5.9023   14.3810 H   0  0  0  0  0  0  0  0  0  0  0  0
    7.2758   -2.8641    8.7194 C   0  0  0  0  0  0  0  0  0  0  0  0
    7.8069   -3.1835    7.9595 H   0  0  0  0  0  0  0  0  0  0  0  0
    6.3821   -2.6086    8.4073 H   0  0  0  0  0  0  0  0  0  0  0  0
    7.1973   -3.5778    9.3856 H   0  0  0  0  0  0  0  0  0  0  0  0
   12.1659   -0.0919   10.6537 C   0  0  0  0  0  0  0  0  0  0  0  0
   12.4803   -0.9791   10.9599 H   0  0  0  0  0  0  0  0  0  0  0  0
   12.5900    0.0800    9.7764 H   0  0  0  0  0  0  0  0  0  0  0  0
   12.7012    0.9499   11.6361 C   0  0  0  0  0  0  0  0  0  0  0  0
   12.5022    1.8475   11.2423 H   0  0  0  0  0  0  0  0  0  0  0  0
    8.2758    0.0266   18.2220 C   0  0  0  0  0  0  0  0  0  0  0  0
   10.5458   -5.1940   10.4568 C   0  0  0  0  0  0  0  0  0  0  0  0
   10.4762   -5.8695   11.1217 H   0  0  0  0  0  0  0  0  0  0  0  0
    9.7129   -3.1547   12.9162 C   0  0  0  0  0  0  0  0  0  0  0  0
   10.4287   -3.7623   13.1980 H   0  0  0  0  0  0  0  0  0  0  0  0
    9.1218   -2.9721   13.6762 H   0  0  0  0  0  0  0  0  0  0  0  0
   10.1039   -2.3152   12.5968 H   0  0  0  0  0  0  0  0  0  0  0  0
    8.4686    1.5509   18.4213 C   0  0  0  0  0  0  0  0  0  0  0  0
    9.2921    5.7152    7.5050 C   0  0  0  0  0  0  0  0  0  0  0  0
    8.6534    5.0181    7.4238 H   0  0  0  0  0  0  0  0  0  0  0  0
   10.7339    7.0453    8.8320 C   0  0  0  0  0  0  0  0  0  0  0  0
   11.0848    7.2799    9.6842 H   0  0  0  0  0  0  0  0  0  0  0  0
   11.7887    5.2129   11.2633 C   0  0  0  0  0  0  0  0  0  0  0  0
   12.1465    4.9775   10.4150 H   0  0  0  0  0  0  0  0  0  0  0  0
   11.5239   -4.4086    8.4240 C   0  0  0  0  0  0  0  0  0  0  0  0
   12.1056   -4.5582    7.6877 H   0  0  0  0  0  0  0  0  0  0  0  0
   10.2781   -2.4297    6.1756 C   0  0  0  0  0  0  0  0  0  0  0  0
   10.6508   -3.2421    5.7760 H   0  0  0  0  0  0  0  0  0  0  0  0
   10.3717   -1.6829    5.5481 H   0  0  0  0  0  0  0  0  0  0  0  0
    9.3296   -2.5694    6.3783 H   0  0  0  0  0  0  0  0  0  0  0  0
    9.7683    0.8217   16.7004 B   0  0  0  0  0  0  0  0  0  0  0  0
   11.3811   -5.3812    9.3806 C   0  0  0  0  0  0  0  0  0  0  0  0
   11.8670   -6.1930    9.3001 H   0  0  0  0  0  0  0  0  0  0  0  0
   12.6929    5.4468   12.4286 C   0  0  0  0  0  0  0  0  0  0  0  0
   13.6386    5.3956   12.3565 H   0  0  0  0  0  0  0  0  0  0  0  0
   11.1321    7.7657    7.7042 C   0  0  0  0  0  0  0  0  0  0  0  0
   11.7586    8.4744    7.7901 H   0  0  0  0  0  0  0  0  0  0  0  0
   10.7010    5.8244   13.7790 C   0  0  0  0  0  0  0  0  0  0  0  0
   10.3171    6.0064   14.6287 H   0  0  0  0  0  0  0  0  0  0  0  0
    8.2390   -5.0855   12.3160 C   0  0  0  0  0  0  0  0  0  0  0  0
    7.7393   -5.5067   11.5859 H   0  0  0  0  0  0  0  0  0  0  0  0
    7.6237   -4.8607   13.0455 H   0  0  0  0  0  0  0  0  0  0  0  0
    8.9228   -5.7049   12.6446 H   0  0  0  0  0  0  0  0  0  0  0  0
    9.9441    5.6421   12.7099 C   0  0  0  0  0  0  0  0  0  0  0  0
    9.0027    5.7203   12.8062 H   0  0  0  0  0  0  0  0  0  0  0  0
    7.0172   -0.3423   17.4436 C   0  0  0  0  0  0  0  0  0  0  0  0
    6.9040    0.2785   16.6943 H   0  0  0  0  0  0  0  0  0  0  0  0
    6.2388   -0.2850   18.0363 H   0  0  0  0  0  0  0  0  0  0  0  0
    7.1019   -1.2563   17.1022 H   0  0  0  0  0  0  0  0  0  0  0  0
   12.4999   -1.8704    7.1908 C   0  0  0  0  0  0  0  0  0  0  0  0
   12.9728   -1.7283    8.0383 H   0  0  0  0  0  0  0  0  0  0  0  0
   12.6027   -1.0797    6.6229 H   0  0  0  0  0  0  0  0  0  0  0  0
   12.8751   -2.6527    6.7355 H   0  0  0  0  0  0  0  0  0  0  0  0
   10.6307    7.4587    6.5132 C   0  0  0  0  0  0  0  0  0  0  0  0
   10.9296    7.9305    5.7451 H   0  0  0  0  0  0  0  0  0  0  0  0
    9.6701    6.4498    6.3772 C   0  0  0  0  0  0  0  0  0  0  0  0
    9.2806    6.2665    5.5292 H   0  0  0  0  0  0  0  0  0  0  0  0
    8.4038   -0.7862   19.4787 C   0  0  0  0  0  0  0  0  0  0  0  0
    8.2050   -1.7251   19.2827 H   0  0  0  0  0  0  0  0  0  0  0  0
    7.7730   -0.4519   20.1507 H   0  0  0  0  0  0  0  0  0  0  0  0
    9.3182   -0.7113   19.8251 H   0  0  0  0  0  0  0  0  0  0  0  0
    9.3479    1.9285   19.6053 C   0  0  0  0  0  0  0  0  0  0  0  0
    8.8435    1.8105   20.4371 H   0  0  0  0  0  0  0  0  0  0  0  0
    9.6253    2.8641   19.5208 H   0  0  0  0  0  0  0  0  0  0  0  0
   10.1407    1.3523   19.6195 H   0  0  0  0  0  0  0  0  0  0  0  0
    7.1839    2.3481   18.3955 C   0  0  0  0  0  0  0  0  0  0  0  0
    6.7334    2.2142   17.5354 H   0  0  0  0  0  0  0  0  0  0  0  0
    7.3875    3.2992   18.5132 H   0  0  0  0  0  0  0  0  0  0  0  0
    6.5982    2.0469   19.1212 H   0  0  0  0  0  0  0  0  0  0  0  0
   17.5967    2.1296    6.1029 O   0  0  0  0  0  0  0  0  0  0  0  0
   17.7721   -0.1264    6.2248 O   0  0  0  0  0  0  0  0  0  0  0  0
   16.3123    0.9612    7.9833 C   0  0  0  0  0  0  0  0  0  0  0  0
   16.0578   -0.2274    8.6655 C   0  0  0  0  0  0  0  0  0  0  0  0
   16.3397   -1.0472    8.2762 H   0  0  0  0  0  0  0  0  0  0  0  0
   14.9556    0.9145   10.4638 C   0  0  0  0  0  0  0  0  0  0  0  0
   15.8217    2.1395    8.5624 C   0  0  0  0  0  0  0  0  0  0  0  0
   15.9546    2.9694    8.1212 H   0  0  0  0  0  0  0  0  0  0  0  0
   15.1446    2.1085    9.7768 C   0  0  0  0  0  0  0  0  0  0  0  0
   14.8052    2.9172   10.1436 H   0  0  0  0  0  0  0  0  0  0  0  0
   15.4190   -0.2563    9.8706 C   0  0  0  0  0  0  0  0  0  0  0  0
   15.2891   -1.0879   10.3118 H   0  0  0  0  0  0  0  0  0  0  0  0
   14.8061    1.9083   12.7920 C   0  0  0  0  0  0  0  0  0  0  0  0
   14.4917    2.7956   12.4857 H   0  0  0  0  0  0  0  0  0  0  0  0
   14.3820    1.7365   13.6693 H   0  0  0  0  0  0  0  0  0  0  0  0
   14.2708    0.8666   11.8096 C   0  0  0  0  0  0  0  0  0  0  0  0
   14.4699   -0.0310   12.2034 H   0  0  0  0  0  0  0  0  0  0  0  0
   18.6962    1.7898    5.2237 C   0  0  0  0  0  0  0  0  0  0  0  0
   18.5034    0.2655    5.0244 C   0  0  0  0  0  0  0  0  0  0  0  0
   17.2038    0.9947    6.7453 B   0  0  0  0  0  0  0  0  0  0  0  0
   19.9548    2.1587    6.0021 C   0  0  0  0  0  0  0  0  0  0  0  0
   20.0681    1.5380    6.7514 H   0  0  0  0  0  0  0  0  0  0  0  0
   20.7332    2.1014    5.4093 H   0  0  0  0  0  0  0  0  0  0  0  0
   19.8702    3.0728    6.3435 H   0  0  0  0  0  0  0  0  0  0  0  0
   18.5683    2.6026    3.9670 C   0  0  0  0  0  0  0  0  0  0  0  0
   18.7670    3.5415    4.1630 H   0  0  0  0  0  0  0  0  0  0  0  0
   19.1991    2.2683    3.2950 H   0  0  0  0  0  0  0  0  0  0  0  0
   17.6538    2.5277    3.6206 H   0  0  0  0  0  0  0  0  0  0  0  0
   17.6241   -0.1120    3.8404 C   0  0  0  0  0  0  0  0  0  0  0  0
   18.1286    0.0060    3.0086 H   0  0  0  0  0  0  0  0  0  0  0  0
   17.3468   -1.0477    3.9249 H   0  0  0  0  0  0  0  0  0  0  0  0
   16.8314    0.4642    3.8262 H   0  0  0  0  0  0  0  0  0  0  0  0
   19.7882   -0.5317    5.0502 C   0  0  0  0  0  0  0  0  0  0  0  0
   20.2387   -0.3978    5.9102 H   0  0  0  0  0  0  0  0  0  0  0  0
   19.5845   -1.4828    4.9325 H   0  0  0  0  0  0  0  0  0  0  0  0
   20.3738   -0.2304    4.3244 H   0  0  0  0  0  0  0  0  0  0  0  0
   16.7313    2.0290   13.0782 Zn  0  0  0  0  0  0  0  0  0  0  0  0
   17.7847   -3.2932   13.2773 P   0  0  0  0  0  0  0  0  0  0  0  0
   18.1973    0.7480   13.0878 N   0  0  0  0  0  0  0  0  0  0  0  0
   17.7495    3.5743   13.7192 N   0  0  0  0  0  0  0  0  0  0  0  0
   19.4151    1.0378   13.5235 C   0  0  0  0  0  0  0  0  0  0  0  0
   19.7752    2.3193   14.0041 C   0  0  0  0  0  0  0  0  0  0  0  0
   20.6734    2.3960   14.3034 H   0  0  0  0  0  0  0  0  0  0  0  0
   17.9079   -0.6135   12.6208 C   0  0  0  0  0  0  0  0  0  0  0  0
   17.1779   -0.5790   11.9534 H   0  0  0  0  0  0  0  0  0  0  0  0
   18.7111   -0.9814   12.1747 H   0  0  0  0  0  0  0  0  0  0  0  0
   17.5009   -1.5394   13.7579 C   0  0  0  0  0  0  0  0  0  0  0  0
   18.0305   -1.3254   14.5665 H   0  0  0  0  0  0  0  0  0  0  0  0
   16.5438   -1.4029   13.9710 H   0  0  0  0  0  0  0  0  0  0  0  0
   19.0195    3.4864   14.1073 C   0  0  0  0  0  0  0  0  0  0  0  0
   20.5035   -0.0089   13.5047 C   0  0  0  0  0  0  0  0  0  0  0  0
   20.6200   -0.3440   12.5919 H   0  0  0  0  0  0  0  0  0  0  0  0
   21.3433    0.3872   13.8180 H   0  0  0  0  0  0  0  0  0  0  0  0
   20.2526   -0.7505   14.0955 H   0  0  0  0  0  0  0  0  0  0  0  0
   15.9404    3.9214   15.9782 C   0  0  0  0  0  0  0  0  0  0  0  0
   16.3185    3.0715   15.6114 H   0  0  0  0  0  0  0  0  0  0  0  0
   17.1288   -4.1831   14.7122 C   0  0  0  0  0  0  0  0  0  0  0  0
   17.0306    4.8366   13.8587 C   0  0  0  0  0  0  0  0  0  0  0  0
   16.1518    5.0118   14.9279 C   0  0  0  0  0  0  0  0  0  0  0  0
   17.1764    5.8332   12.8646 C   0  0  0  0  0  0  0  0  0  0  0  0
   18.0566    5.6136   11.6455 C   0  0  0  0  0  0  0  0  0  0  0  0
   18.7802    4.9756   11.9063 H   0  0  0  0  0  0  0  0  0  0  0  0
   16.5032   -3.5218   12.0136 C   0  0  0  0  0  0  0  0  0  0  0  0
   14.9114   -3.9274    9.8261 C   0  0  0  0  0  0  0  0  0  0  0  0
   14.3663   -4.0859    9.0646 H   0  0  0  0  0  0  0  0  0  0  0  0
   19.6962    4.6805   14.7262 C   0  0  0  0  0  0  0  0  0  0  0  0
   19.1651    4.9999   15.4862 H   0  0  0  0  0  0  0  0  0  0  0  0
   20.5899    4.4251   15.0384 H   0  0  0  0  0  0  0  0  0  0  0  0
   19.7747    5.3943   14.0600 H   0  0  0  0  0  0  0  0  0  0  0  0
   16.4262    7.0104   12.9889 C   0  0  0  0  0  0  0  0  0  0  0  0
   16.4958    7.6859   12.3240 H   0  0  0  0  0  0  0  0  0  0  0  0
   17.2592    4.9711   10.5295 C   0  0  0  0  0  0  0  0  0  0  0  0
   16.5434    5.5788   10.2477 H   0  0  0  0  0  0  0  0  0  0  0  0
   17.8502    4.7886    9.7694 H   0  0  0  0  0  0  0  0  0  0  0  0
   16.8682    4.1316   10.8489 H   0  0  0  0  0  0  0  0  0  0  0  0
   17.6799   -3.8988   15.9407 C   0  0  0  0  0  0  0  0  0  0  0  0
   18.3186   -3.2017   16.0219 H   0  0  0  0  0  0  0  0  0  0  0  0
   16.2381   -5.2289   14.6137 C   0  0  0  0  0  0  0  0  0  0  0  0
   15.8873   -5.4635   13.7615 H   0  0  0  0  0  0  0  0  0  0  0  0
   15.1834   -3.3964   12.1824 C   0  0  0  0  0  0  0  0  0  0  0  0
   14.8255   -3.1610   13.0307 H   0  0  0  0  0  0  0  0  0  0  0  0
   15.4482    6.2250   15.0216 C   0  0  0  0  0  0  0  0  0  0  0  0
   14.8665    6.3746   15.7580 H   0  0  0  0  0  0  0  0  0  0  0  0
   16.6940    4.2462   17.2701 C   0  0  0  0  0  0  0  0  0  0  0  0
   16.3213    5.0586   17.6697 H   0  0  0  0  0  0  0  0  0  0  0  0
   16.6004    3.4994   17.8976 H   0  0  0  0  0  0  0  0  0  0  0  0
   17.6425    4.3858   17.0674 H   0  0  0  0  0  0  0  0  0  0  0  0
   15.5910    7.1976   14.0651 C   0  0  0  0  0  0  0  0  0  0  0  0
   15.1051    8.0095   14.1456 H   0  0  0  0  0  0  0  0  0  0  0  0
   14.2791   -3.6303   11.0171 C   0  0  0  0  0  0  0  0  0  0  0  0
   13.3335   -3.5792   11.0891 H   0  0  0  0  0  0  0  0  0  0  0  0
   15.8399   -5.9492   15.7414 C   0  0  0  0  0  0  0  0  0  0  0  0
   15.2134   -6.6580   15.6556 H   0  0  0  0  0  0  0  0  0  0  0  0
   16.2710   -4.0080    9.6667 C   0  0  0  0  0  0  0  0  0  0  0  0
   16.6550   -4.1899    8.8170 H   0  0  0  0  0  0  0  0  0  0  0  0
   18.7331    6.9019   11.1297 C   0  0  0  0  0  0  0  0  0  0  0  0
   19.2328    7.3232   11.8598 H   0  0  0  0  0  0  0  0  0  0  0  0
   19.3484    6.6772   10.4002 H   0  0  0  0  0  0  0  0  0  0  0  0
   18.0492    7.5214   10.8010 H   0  0  0  0  0  0  0  0  0  0  0  0
   17.0280   -3.8256   10.7358 C   0  0  0  0  0  0  0  0  0  0  0  0
   17.9693   -3.9038   10.6394 H   0  0  0  0  0  0  0  0  0  0  0  0
   14.4722    3.6869   16.2549 C   0  0  0  0  0  0  0  0  0  0  0  0
   13.9993    3.5448   15.4074 H   0  0  0  0  0  0  0  0  0  0  0  0
   14.3693    2.8962   16.8228 H   0  0  0  0  0  0  0  0  0  0  0  0
   14.0969    4.4691   16.7101 H   0  0  0  0  0  0  0  0  0  0  0  0
   16.3414   -5.6422   16.9325 C   0  0  0  0  0  0  0  0  0  0  0  0
   16.0425   -6.1140   17.7006 H   0  0  0  0  0  0  0  0  0  0  0  0
   17.3020   -4.6334   17.0685 C   0  0  0  0  0  0  0  0  0  0  0  0
   17.6915   -4.4500   17.9165 H   0  0  0  0  0  0  0  0  0  0  0  0
  1  4  1  0  0  0  0
  2 13  1  0  0  0  0
  3 51  1  0  0  0  0
  4  7  8  0  0  0  0
  5 58  1  0  0  0  0
  6  1  1  0  0  0  0
  7  8  8  0  0  0  0
  8  9  1  0  0  0  0
 10  4  1  0  0  0  0
 11 10  1  0  0  0  0
 12 10  1  0  0  0  0
 13 10  1  0  0  0  0
 14 13  1  0  0  0  0
 15 13  1  0  0  0  0
 16  6  8  0  0  0  0
 17 22  4  0  0  0  0
 18  7  1  0  0  0  0
 19 18  1  0  0  0  0
 20 18  1  0  0  0  0
 21 18  1  0  0  0  0
 22 23  1  0  0  0  0
 24 25  1  0  0  0  0
 26 31  4  0  0  0  0
 27  2  1  0  0  0  0
 28  6  1  0  0  0  0
 29 17  4  0  0  0  0
 30 29  1  0  0  0  0
 31 29  4  0  0  0  0
 32 31  1  0  0  0  0
 33 24  1  0  0  0  0
 34 28  4  0  0  0  0
 35 34  1  0  0  0  0
 36 35  1  0  0  0  0
 37 22  4  0  0  0  0
 38 37  1  0  0  0  0
 39  2  1  0  0  0  0
 40 41  1  0  0  0  0
 42 16  1  0  0  0  0
 43 42  1  0  0  0  0
 44 42  1  0  0  0  0
 45 42  1  0  0  0  0
 46  1  1  0  0  0  0
 47 46  1  0  0  0  0
 48 46  1  0  0  0  0
 49 26  1  0  0  0  0
 50 49  1  0  0  0  0
 51 58  1  0  0  0  0
 52 34  4  0  0  0  0
 53 52  1  0  0  0  0
 54 35  1  0  0  0  0
 55 54  1  0  0  0  0
 56 54  1  0  0  0  0
 57 54  1  0  0  0  0
 58102  1  0  0  0  0
 59 27  4  0  0  0  0
 60 59  1  0  0  0  0
 61 27  4  0  0  0  0
 62 61  1  0  0  0  0
 63 39  4  0  0  0  0
 64 63  1  0  0  0  0
 65 33  4  0  0  0  0
 66 65  1  0  0  0  0
 67 24  1  0  0  0  0
 68 67  1  0  0  0  0
 69 67  1  0  0  0  0
 70 67  1  0  0  0  0
 71  3  1  0  0  0  0
 72 52  4  0  0  0  0
 73 72  1  0  0  0  0
 74 40  4  0  0  0  0
 75 74  1  0  0  0  0
 76 61  4  0  0  0  0
 77 76  1  0  0  0  0
 78 40  4  0  0  0  0
 79 78  1  0  0  0  0
 80 35  1  0  0  0  0
 81 80  1  0  0  0  0
 82 80  1  0  0  0  0
 83 80  1  0  0  0  0
 84 39  4  0  0  0  0
 85 84  1  0  0  0  0
 86 51  1  0  0  0  0
 87 86  1  0  0  0  0
 88 86  1  0  0  0  0
 89 86  1  0  0  0  0
 90 24  1  0  0  0  0
 91 90  1  0  0  0  0
 92 90  1  0  0  0  0
 93 90  1  0  0  0  0
 94 76  4  0  0  0  0
 95 94  1  0  0  0  0
 96 59  4  0  0  0  0
 97 96  1  0  0  0  0
 98 51  1  0  0  0  0
 99 98  1  0  0  0  0
100 98  1  0  0  0  0
101 98  1  0  0  0  0
102103  1  0  0  0  0
104102  1  0  0  0  0
105102  1  0  0  0  0
106 58  1  0  0  0  0
107106  1  0  0  0  0
108106  1  0  0  0  0
109106  1  0  0  0  0
110127  1  0  0  0  0
111128  1  0  0  0  0
112113  4  0  0  0  0
113114  1  0  0  0  0
115118  4  0  0  0  0
116112  4  0  0  0  0
117116  1  0  0  0  0
118116  4  0  0  0  0
119118  1  0  0  0  0
120113  4  0  0  0  0
121120  1  0  0  0  0
122123  1  0  0  0  0
124122  1  0  0  0  0
125 49  1  0  0  0  0
126125  1  0  0  0  0
127128  1  0  0  0  0
128138  1  0  0  0  0
129110  1  0  0  0  0
130127  1  0  0  0  0
131130  1  0  0  0  0
132130  1  0  0  0  0
133130  1  0  0  0  0
134127  1  0  0  0  0
135134  1  0  0  0  0
136134  1  0  0  0  0
137134  1  0  0  0  0
138139  1  0  0  0  0
140138  1  0  0  0  0
141138  1  0  0  0  0
142128  1  0  0  0  0
143142  1  0  0  0  0
144142  1  0  0  0  0
145142  1  0  0  0  0
146122  1  0  0  0  0
147156  1  0  0  0  0
148146  1  0  0  0  0
149146  1  0  0  0  0
150148  8  0  0  0  0
151150  8  0  0  0  0
152151  1  0  0  0  0
153148  1  0  0  0  0
154153  1  0  0  0  0
155153  1  0  0  0  0
156153  1  0  0  0  0
157156  1  0  0  0  0
158156  1  0  0  0  0
159149  8  0  0  0  0
160150  1  0  0  0  0
161160  1  0  0  0  0
162160  1  0  0  0  0
163160  1  0  0  0  0
164165  1  0  0  0  0
166147  1  0  0  0  0
167149  1  0  0  0  0
168164  1  0  0  0  0
169167  4  0  0  0  0
170169  1  0  0  0  0
171170  1  0  0  0  0
172147  1  0  0  0  0
173174  1  0  0  0  0
175159  1  0  0  0  0
176175  1  0  0  0  0
177175  1  0  0  0  0
178175  1  0  0  0  0
179169  4  0  0  0  0
180179  1  0  0  0  0
181170  1  0  0  0  0
182181  1  0  0  0  0
183181  1  0  0  0  0
184181  1  0  0  0  0
185166  4  0  0  0  0
186185  1  0  0  0  0
187166  4  0  0  0  0
188187  1  0  0  0  0
189172  4  0  0  0  0
190189  1  0  0  0  0
191168  4  0  0  0  0
192191  1  0  0  0  0
193164  1  0  0  0  0
194193  1  0  0  0  0
195193  1  0  0  0  0
196193  1  0  0  0  0
197179  4  0  0  0  0
198197  1  0  0  0  0
199173  4  0  0  0  0
200199  1  0  0  0  0
201187  4  0  0  0  0
202201  1  0  0  0  0
203173  4  0  0  0  0
204203  1  0  0  0  0
205170  1  0  0  0  0
206205  1  0  0  0  0
207205  1  0  0  0  0
208205  1  0  0  0  0
209172  4  0  0  0  0
210209  1  0  0  0  0
211164  1  0  0  0  0
212211  1  0  0  0  0
213211  1  0  0  0  0
214211  1  0  0  0  0
215201  4  0  0  0  0
216215  1  0  0  0  0
217185  4  0  0  0  0
218217  1  0  0  0  0
  5 71  1  0  0  0  0
  8 16  8  0  0  0  0
 17 71  1  0  0  0  0
 26 37  4  0  0  0  0
 28 33  4  0  0  0  0
 46 49  1  0  0  0  0
 63 74  4  0  0  0  0
 65 72  4  0  0  0  0
 78 84  4  0  0  0  0
 94 96  4  0  0  0  0
111129  1  0  0  0  0
112129  1  0  0  0  0
115120  4  0  0  0  0
115125  1  0  0  0  0
122125  1  0  0  0  0
151159  8  0  0  0  0
167168  4  0  0  0  0
189199  4  0  0  0  0
191197  4  0  0  0  0
203209  4  0  0  0  0
215217  4  0  0  0  0
M  END
$$$$
XUKCIP

From CSD data. Using bond type 'Any'. No disordered atoms. Largest molecule.
 98112  0  0  0  0  0  0  0  0999 V2000
    0.0087   29.4918    3.0852 Fe  0  0  0  0  0  0  0  0  0  0  0  0
    0.6198   26.3616    1.8077 P   0  0  0  0  0  0  0  0  0  0  0  0
    4.6348   29.0716    2.1751 P   0  0  0  0  0  0  0  0  0  0  0  0
    6.2566   27.0758    5.7950 P   0  0  0  0  0  0  0  0  0  0  0  0
    0.2848   26.8099   -0.0327 B   0  0  0  0  0  0  0  0  0  0  0  0
    1.0990   27.1155   -0.4395 H   0  0  0  0  0  0  0  0  0  0  0  0
   -0.3762   27.5061   -0.0778 H   0  0  0  0  0  0  0  0  0  0  0  0
   -0.0343   26.0349   -0.4981 H   0  0  0  0  0  0  0  0  0  0  0  0
    5.1965   30.8456    2.6124 B   0  0  0  0  0  0  0  0  0  0  0  0
    5.1313   31.4032    1.8336 H   0  0  0  0  0  0  0  0  0  0  0  0
    6.1068   30.8267    2.9167 H   0  0  0  0  0  0  0  0  0  0  0  0
    4.6339   31.1953    3.3055 H   0  0  0  0  0  0  0  0  0  0  0  0
    6.1789   25.6291    5.5471 O   0  0  0  0  0  0  0  0  0  0  0  0
    0.9835   27.7078    2.9347 C   0  0  0  0  0  0  0  0  0  0  0  0
    1.9224   28.7758    2.7161 C   0  0  0  0  0  0  0  0  0  0  0  0
    1.8858   29.5980    3.8949 C   0  0  0  0  0  0  0  0  0  0  0  0
    2.3775   30.3762    4.0290 H   0  0  0  0  0  0  0  0  0  0  0  0
    0.9778   29.0278    4.8157 C   0  0  0  0  0  0  0  0  0  0  0  0
    0.7799   29.3617    5.6620 H   0  0  0  0  0  0  0  0  0  0  0  0
    0.4266   27.8810    4.2353 C   0  0  0  0  0  0  0  0  0  0  0  0
   -0.2001   27.3203    4.6331 H   0  0  0  0  0  0  0  0  0  0  0  0
   -0.6416   30.7826    1.6533 C   0  0  0  0  0  0  0  0  0  0  0  0
   -0.1590   31.0661    0.9117 H   0  0  0  0  0  0  0  0  0  0  0  0
   -0.6782   31.3843    2.8660 C   0  0  0  0  0  0  0  0  0  0  0  0
   -0.2070   32.1530    3.0936 H   0  0  0  0  0  0  0  0  0  0  0  0
   -1.5015   30.7006    3.6988 C   0  0  0  0  0  0  0  0  0  0  0  0
   -1.6937   30.8865    4.5891 H   0  0  0  0  0  0  0  0  0  0  0  0
   -1.9853   29.6768    2.9415 C   0  0  0  0  0  0  0  0  0  0  0  0
   -2.6154   29.0656    3.2458 H   0  0  0  0  0  0  0  0  0  0  0  0
   -1.4695   29.6421    1.7243 C   0  0  0  0  0  0  0  0  0  0  0  0
   -1.6193   29.0057    1.0628 H   0  0  0  0  0  0  0  0  0  0  0  0
    2.8967   28.8860    1.5744 C   0  0  0  0  0  0  0  0  0  0  0  0
    2.8556   28.0417    1.0830 H   0  0  0  0  0  0  0  0  0  0  0  0
    2.5937   30.0139    0.5522 C   0  0  0  0  0  0  0  0  0  0  0  0
    2.5365   30.8550    1.0120 H   0  0  0  0  0  0  0  0  0  0  0  0
    1.7600   29.8311    0.1127 H   0  0  0  0  0  0  0  0  0  0  0  0
    3.2970   30.0548   -0.0992 H   0  0  0  0  0  0  0  0  0  0  0  0
    4.8066   27.9503    3.5872 C   0  0  0  0  0  0  0  0  0  0  0  0
    4.0975   28.1331    4.2240 H   0  0  0  0  0  0  0  0  0  0  0  0
    4.6991   27.0367    3.2796 H   0  0  0  0  0  0  0  0  0  0  0  0
    6.1469   28.0795    4.2894 C   0  0  0  0  0  0  0  0  0  0  0  0
    6.2932   29.0120    4.5193 H   0  0  0  0  0  0  0  0  0  0  0  0
    6.8502   27.8117    3.6785 H   0  0  0  0  0  0  0  0  0  0  0  0
   -2.0814   25.7980    2.1007 C   0  0  0  0  0  0  0  0  0  0  0  0
   -2.2014   26.4098    1.4110 H   0  0  0  0  0  0  0  0  0  0  0  0
   -3.1826   25.1811    2.6823 C   0  0  0  0  0  0  0  0  0  0  0  0
   -4.0403   25.3796    2.3814 H   0  0  0  0  0  0  0  0  0  0  0  0
   -3.0031   24.2675    3.7135 C   0  0  0  0  0  0  0  0  0  0  0  0
   -3.7407   23.8548    4.1023 H   0  0  0  0  0  0  0  0  0  0  0  0
   -1.7223   23.9686    4.1631 C   0  0  0  0  0  0  0  0  0  0  0  0
   -1.6022   23.3571    4.8529 H   0  0  0  0  0  0  0  0  0  0  0  0
   -0.6210   24.5857    3.5816 C   0  0  0  0  0  0  0  0  0  0  0  0
    0.2367   24.3872    3.8825 H   0  0  0  0  0  0  0  0  0  0  0  0
   -0.8005   25.5000    2.5504 C   0  0  0  0  0  0  0  0  0  0  0  0
    2.7835   25.1723    3.1545 C   0  0  0  0  0  0  0  0  0  0  0  0
    2.5365   25.6915    3.8859 H   0  0  0  0  0  0  0  0  0  0  0  0
    3.8974   24.3463    3.2334 C   0  0  0  0  0  0  0  0  0  0  0  0
    4.3960   24.3085    4.0166 H   0  0  0  0  0  0  0  0  0  0  0  0
    4.2656   23.5697    2.1390 C   0  0  0  0  0  0  0  0  0  0  0  0
    5.0113   23.0168    2.1920 H   0  0  0  0  0  0  0  0  0  0  0  0
    3.5200   23.6217    0.9681 C   0  0  0  0  0  0  0  0  0  0  0  0
    3.7659   23.1050    0.2367 H   0  0  0  0  0  0  0  0  0  0  0  0
    2.4050   24.4503    0.8892 C   0  0  0  0  0  0  0  0  0  0  0  0
    1.9064   24.4849    0.1059 H   0  0  0  0  0  0  0  0  0  0  0  0
    2.0379   25.2246    1.9824 C   0  0  0  0  0  0  0  0  0  0  0  0
    6.6466   29.0404    0.2750 C   0  0  0  0  0  0  0  0  0  0  0  0
    6.7758   29.9320    0.5015 H   0  0  0  0  0  0  0  0  0  0  0  0
    7.4540   28.4418   -0.6875 C   0  0  0  0  0  0  0  0  0  0  0  0
    8.1230   28.9364   -1.1033 H   0  0  0  0  0  0  0  0  0  0  0  0
    7.2607   27.1092   -1.0267 C   0  0  0  0  0  0  0  0  0  0  0  0
    7.8016   26.7091   -1.6702 H   0  0  0  0  0  0  0  0  0  0  0  0
    6.2612   26.3720   -0.4035 C   0  0  0  0  0  0  0  0  0  0  0  0
    6.1320   25.4773   -0.6311 H   0  0  0  0  0  0  0  0  0  0  0  0
    5.4538   26.9674    0.5579 C   0  0  0  0  0  0  0  0  0  0  0  0
    4.7848   26.4728    0.9749 H   0  0  0  0  0  0  0  0  0  0  0  0
    5.6471   28.3000    0.8971 C   0  0  0  0  0  0  0  0  0  0  0  0
    8.0738   28.9178    6.8533 C   0  0  0  0  0  0  0  0  0  0  0  0
    7.4311   29.5634    6.6685 H   0  0  0  0  0  0  0  0  0  0  0  0
    9.2803   29.2861    7.4382 C   0  0  0  0  0  0  0  0  0  0  0  0
    9.4438   30.1777    7.6444 H   0  0  0  0  0  0  0  0  0  0  0  0
   10.2421   28.3189    7.7143 C   0  0  0  0  0  0  0  0  0  0  0  0
   11.0495   28.5678    8.1054 H   0  0  0  0  0  0  0  0  0  0  0  0
    9.9974   26.9863    7.4055 C   0  0  0  0  0  0  0  0  0  0  0  0
   10.6401   26.3405    7.5903 H   0  0  0  0  0  0  0  0  0  0  0  0
    8.7909   26.6196    6.8206 C   0  0  0  0  0  0  0  0  0  0  0  0
    8.6273   25.7262    6.6144 H   0  0  0  0  0  0  0  0  0  0  0  0
    7.8291   27.5849    6.5445 C   0  0  0  0  0  0  0  0  0  0  0  0
    4.3834   28.9169    6.8431 C   0  0  0  0  0  0  0  0  0  0  0  0
    4.7219   29.5508    6.2515 H   0  0  0  0  0  0  0  0  0  0  0  0
    3.3267   29.2474    7.6839 C   0  0  0  0  0  0  0  0  0  0  0  0
    2.9585   30.1021    7.6546 H   0  0  0  0  0  0  0  0  0  0  0  0
    2.8213   28.3032    8.5697 C   0  0  0  0  0  0  0  0  0  0  0  0
    2.1145   28.5237    9.1321 H   0  0  0  0  0  0  0  0  0  0  0  0
    3.3725   27.0273    8.6137 C   0  0  0  0  0  0  0  0  0  0  0  0
    3.0340   26.3941    9.2053 H   0  0  0  0  0  0  0  0  0  0  0  0
    4.4292   26.6965    7.7729 C   0  0  0  0  0  0  0  0  0  0  0  0
    4.7974   25.8427    7.8022 H   0  0  0  0  0  0  0  0  0  0  0  0
    4.9346   27.6416    6.8882 C   0  0  0  0  0  0  0  0  0  0  0  0
  1 14  8  0  0  0  0
  2  5  1  0  0  0  0
  3  9  1  0  0  0  0
  4 13  2  0  0  0  0
  5  6  1  0  0  0  0
  7  5  1  0  0  0  0
  8  5  1  0  0  0  0
  9 10  1  0  0  0  0
 11  9  1  0  0  0  0
 12  9  1  0  0  0  0
 14  2  1  0  0  0  0
 15  1  8  0  0  0  0
 16  1  8  0  0  0  0
 17 16  1  0  0  0  0
 18  1  8  0  0  0  0
 19 18  1  0  0  0  0
 20  1  8  0  0  0  0
 21 20  1  0  0  0  0
 22  1  8  0  0  0  0
 23 22  1  0  0  0  0
 24  1  8  0  0  0  0
 25 24  1  0  0  0  0
 26  1  8  0  0  0  0
 27 26  1  0  0  0  0
 28  1  8  0  0  0  0
 29 28  1  0  0  0  0
 30  1  8  0  0  0  0
 31 30  1  0  0  0  0
 32  3  1  0  0  0  0
 33 32  1  0  0  0  0
 34 32  1  0  0  0  0
 35 34  1  0  0  0  0
 36 34  1  0  0  0  0
 37 34  1  0  0  0  0
 38  3  1  0  0  0  0
 39 38  1  0  0  0  0
 40 38  1  0  0  0  0
 41  4  1  0  0  0  0
 42 41  1  0  0  0  0
 43 41  1  0  0  0  0
 44 45  1  0  0  0  0
 46 44  4  0  0  0  0
 47 46  1  0  0  0  0
 48 46  4  0  0  0  0
 49 48  1  0  0  0  0
 50 48  4  0  0  0  0
 51 50  1  0  0  0  0
 52 50  4  0  0  0  0
 53 52  1  0  0  0  0
 54  2  1  0  0  0  0
 55 56  1  0  0  0  0
 57 55  4  0  0  0  0
 58 57  1  0  0  0  0
 59 57  4  0  0  0  0
 60 59  1  0  0  0  0
 61 59  4  0  0  0  0
 62 61  1  0  0  0  0
 63 61  4  0  0  0  0
 64 63  1  0  0  0  0
 65  2  1  0  0  0  0
 66 67  1  0  0  0  0
 68 66  4  0  0  0  0
 69 68  1  0  0  0  0
 70 68  4  0  0  0  0
 71 70  1  0  0  0  0
 72 70  4  0  0  0  0
 73 72  1  0  0  0  0
 74 72  4  0  0  0  0
 75 74  1  0  0  0  0
 76  3  1  0  0  0  0
 77 78  1  0  0  0  0
 79 77  4  0  0  0  0
 80 79  1  0  0  0  0
 81 79  4  0  0  0  0
 82 81  1  0  0  0  0
 83 81  4  0  0  0  0
 84 83  1  0  0  0  0
 85 83  4  0  0  0  0
 86 85  1  0  0  0  0
 87  4  1  0  0  0  0
 88 89  1  0  0  0  0
 90 88  4  0  0  0  0
 91 90  1  0  0  0  0
 92 90  4  0  0  0  0
 93 92  1  0  0  0  0
 94 92  4  0  0  0  0
 95 94  1  0  0  0  0
 96 94  4  0  0  0  0
 97 96  1  0  0  0  0
 98  4  1  0  0  0  0
 14 15  4  0  0  0  0
 14 20  4  0  0  0  0
 15 16  4  0  0  0  0
 15 32  1  0  0  0  0
 16 18  4  0  0  0  0
 18 20  4  0  0  0  0
 22 24  4  0  0  0  0
 22 30  4  0  0  0  0
 24 26  4  0  0  0  0
 26 28  4  0  0  0  0
 28 30  4  0  0  0  0
 38 41  1  0  0  0  0
 44 54  4  0  0  0  0
 52 54  4  0  0  0  0
 55 65  4  0  0  0  0
 63 65  4  0  0  0  0
 66 76  4  0  0  0  0
 74 76  4  0  0  0  0
 77 87  4  0  0  0  0
 85 87  4  0  0  0  0
 88 98  4  0  0  0  0
 96 98  4  0  0  0  0
M  END
$$$$
XUKCIP01

From CSD data. Using bond type 'Any'. Matching problem. Disorder unknown. Sizes unknown.
  0  0  0  0  0  0  0  0  0  0999 V2000
M  END
$$$$
XUKQIE

From CSD data. Using bond type 'Any'. No disordered atoms. Largest molecule.
144166  0  0  0  0  0  0  0  0999 V2000
    7.4559    5.2797   14.3719 P   0  0  0  0  0  0  0  0  0  0  0  0
    7.3562    6.6687   17.4975 P   0  0  0  0  0  0  0  0  0  0  0  0
    7.3371    3.6956   14.6414 O   0  0  0  0  0  0  0  0  0  0  0  0
    7.0599    5.4004   12.8099 O   0  0  0  0  0  0  0  0  0  0  0  0
    6.7919    6.5659   19.0096 O   0  0  0  0  0  0  0  0  0  0  0  0
    7.3183    8.2596   17.2100 O   0  0  0  0  0  0  0  0  0  0  0  0
    5.7494    5.6201   15.1133 C   0  0  0  0  0  0  0  0  0  0  0  0
    5.7011    6.3647   16.6279 C   0  0  0  0  0  0  0  0  0  0  0  0
    8.3761    2.7617   14.2162 C   0  0  0  0  0  0  0  0  0  0  0  0
    9.0255    2.1174   15.4299 C   0  0  0  0  0  0  0  0  0  0  0  0
    9.9852    1.0160   14.9367 C   0  0  0  0  0  0  0  0  0  0  0  0
    9.3085   -0.0055   14.0543 C   0  0  0  0  0  0  0  0  0  0  0  0
    8.6442    0.6402   12.8621 C   0  0  0  0  0  0  0  0  0  0  0  0
    7.7047    1.7347   13.3319 C   0  0  0  0  0  0  0  0  0  0  0  0
    9.6680    3.1335   16.3910 C   0  0  0  0  0  0  0  0  0  0  0  0
   10.8901    3.8521   15.8074 C   0  0  0  0  0  0  0  0  0  0  0  0
   11.1503    4.5777   16.3951 H   0  0  0  0  0  0  0  0  0  0  0  0
   10.6676    4.2073   14.9330 H   0  0  0  0  0  0  0  0  0  0  0  0
   11.6254    3.2243   15.7240 H   0  0  0  0  0  0  0  0  0  0  0  0
   10.0295    2.4740   17.7265 C   0  0  0  0  0  0  0  0  0  0  0  0
   10.7729    1.8641   17.5950 H   0  0  0  0  0  0  0  0  0  0  0  0
    9.2634    1.9839   18.0638 H   0  0  0  0  0  0  0  0  0  0  0  0
   10.2811    3.1582   18.3674 H   0  0  0  0  0  0  0  0  0  0  0  0
    7.9174   -0.3731   11.9819 C   0  0  0  0  0  0  0  0  0  0  0  0
    8.5447   -1.0477   11.6784 H   0  0  0  0  0  0  0  0  0  0  0  0
    7.5329    0.0812   11.2158 H   0  0  0  0  0  0  0  0  0  0  0  0
    7.2090   -0.7971   12.4920 H   0  0  0  0  0  0  0  0  0  0  0  0
    7.8465    6.2752   11.9363 C   0  0  0  0  0  0  0  0  0  0  0  0
    7.8665    5.6350   10.5380 C   0  0  0  0  0  0  0  0  0  0  0  0
    8.5940    6.6015    9.5727 C   0  0  0  0  0  0  0  0  0  0  0  0
    8.0270    7.9534    9.5391 C   0  0  0  0  0  0  0  0  0  0  0  0
    7.9670    8.5909   10.9223 C   0  0  0  0  0  0  0  0  0  0  0  0
    7.2730    7.6368   11.8882 C   0  0  0  0  0  0  0  0  0  0  0  0
    8.3728    4.2170   10.5266 C   0  0  0  0  0  0  0  0  0  0  0  0
    9.8755    4.0958   10.7780 C   0  0  0  0  0  0  0  0  0  0  0  0
   10.3603    4.4648   10.0242 H   0  0  0  0  0  0  0  0  0  0  0  0
   10.1103    3.1624   10.8895 H   0  0  0  0  0  0  0  0  0  0  0  0
   10.1082    4.5859   11.5834 H   0  0  0  0  0  0  0  0  0  0  0  0
    7.8555    3.4804    9.2064 C   0  0  0  0  0  0  0  0  0  0  0  0
    8.2035    3.9361    8.4237 H   0  0  0  0  0  0  0  0  0  0  0  0
    6.8849    3.4955    9.1857 H   0  0  0  0  0  0  0  0  0  0  0  0
    8.1638    2.5607    9.2064 H   0  0  0  0  0  0  0  0  0  0  0  0
    7.3263    9.9538   10.8998 C   0  0  0  0  0  0  0  0  0  0  0  0
    7.8469   10.5472   10.3340 H   0  0  0  0  0  0  0  0  0  0  0  0
    7.2929   10.3118   11.8002 H   0  0  0  0  0  0  0  0  0  0  0  0
    6.4262    9.8809   10.5467 H   0  0  0  0  0  0  0  0  0  0  0  0
    7.5041    5.7767   20.0267 C   0  0  0  0  0  0  0  0  0  0  0  0
    7.0861    6.3257   21.3899 C   0  0  0  0  0  0  0  0  0  0  0  0
    7.7594    5.4670   22.4788 C   0  0  0  0  0  0  0  0  0  0  0  0
    7.4074    4.0036   22.3566 C   0  0  0  0  0  0  0  0  0  0  0  0
    7.7706    3.4501   20.9921 C   0  0  0  0  0  0  0  0  0  0  0  0
    7.1543    4.3175   19.8933 C   0  0  0  0  0  0  0  0  0  0  0  0
    7.2720    7.8364   21.5470 C   0  0  0  0  0  0  0  0  0  0  0  0
    8.7213    8.2618   21.5621 C   0  0  0  0  0  0  0  0  0  0  0  0
    9.2010    7.7510   22.2312 H   0  0  0  0  0  0  0  0  0  0  0  0
    8.7769    9.2076   21.7728 H   0  0  0  0  0  0  0  0  0  0  0  0
    9.1129    8.1007   20.6906 H   0  0  0  0  0  0  0  0  0  0  0  0
    6.5347    8.3692   22.7719 C   0  0  0  0  0  0  0  0  0  0  0  0
    6.9741    8.0553   23.5777 H   0  0  0  0  0  0  0  0  0  0  0  0
    5.6156    8.0539   22.7599 H   0  0  0  0  0  0  0  0  0  0  0  0
    6.5416    9.3398   22.7578 H   0  0  0  0  0  0  0  0  0  0  0  0
    7.3771    1.9990   20.8666 C   0  0  0  0  0  0  0  0  0  0  0  0
    7.9094    1.4662   21.4795 H   0  0  0  0  0  0  0  0  0  0  0  0
    7.5348    1.6989   19.9575 H   0  0  0  0  0  0  0  0  0  0  0  0
    6.4378    1.8985   21.0809 H   0  0  0  0  0  0  0  0  0  0  0  0
    8.4203    9.1183   17.6309 C   0  0  0  0  0  0  0  0  0  0  0  0
    9.0880    9.7486   16.4185 C   0  0  0  0  0  0  0  0  0  0  0  0
   10.1207   10.7702   16.8933 C   0  0  0  0  0  0  0  0  0  0  0  0
    9.5573   11.8028   17.8438 C   0  0  0  0  0  0  0  0  0  0  0  0
    8.8883   11.1805   19.0362 C   0  0  0  0  0  0  0  0  0  0  0  0
    7.8394   10.1802   18.5596 C   0  0  0  0  0  0  0  0  0  0  0  0
    9.6266    8.7299   15.4111 C   0  0  0  0  0  0  0  0  0  0  0  0
   10.0576    9.4018   14.0997 C   0  0  0  0  0  0  0  0  0  0  0  0
   10.8334    9.9621   14.2639 H   0  0  0  0  0  0  0  0  0  0  0  0
    9.3298    9.9483   13.7621 H   0  0  0  0  0  0  0  0  0  0  0  0
   10.2840    8.7216   13.4461 H   0  0  0  0  0  0  0  0  0  0  0  0
   10.7613    7.8653   15.9472 C   0  0  0  0  0  0  0  0  0  0  0  0
   11.5449    8.4174   16.0978 H   0  0  0  0  0  0  0  0  0  0  0  0
   10.9719    7.1728   15.3027 H   0  0  0  0  0  0  0  0  0  0  0  0
   10.4895    7.4564   16.7834 H   0  0  0  0  0  0  0  0  0  0  0  0
    8.2854   12.2213   19.9796 C   0  0  0  0  0  0  0  0  0  0  0  0
    8.9906   12.7968   20.3168 H   0  0  0  0  0  0  0  0  0  0  0  0
    7.8520   11.7725   20.7216 H   0  0  0  0  0  0  0  0  0  0  0  0
    7.6342   12.7555   19.4990 H   0  0  0  0  0  0  0  0  0  0  0  0
    4.4148    4.5577   14.9272 B   0  0  0  0  0  0  0  0  0  0  0  0
    4.4441    6.1666   14.1501 B   0  0  0  0  0  0  0  0  0  0  0  0
    2.9840    5.6267   14.9805 B   0  0  0  0  0  0  0  0  0  0  0  0
    3.4874    4.7057   16.4321 B   0  0  0  0  0  0  0  0  0  0  0  0
    5.2571    4.7027   16.4996 B   0  0  0  0  0  0  0  0  0  0  0  0
    5.3268    7.2828   15.2147 B   0  0  0  0  0  0  0  0  0  0  0  0
    3.5527    7.3160   15.1596 B   0  0  0  0  0  0  0  0  0  0  0  0
    2.9429    6.4087   16.5711 B   0  0  0  0  0  0  0  0  0  0  0  0
    4.3307    5.8401   17.4985 B   0  0  0  0  0  0  0  0  0  0  0  0
    4.3869    7.4385   16.7264 B   0  0  0  0  0  0  0  0  0  0  0  0
    4.6196    3.6318   14.3816 H   0  0  0  0  0  0  0  0  0  0  0  0
    4.6204    6.2132   13.0641 H   0  0  0  0  0  0  0  0  0  0  0  0
    2.1001    5.4643   14.4642 H   0  0  0  0  0  0  0  0  0  0  0  0
    2.9881    3.8232   16.8391 H   0  0  0  0  0  0  0  0  0  0  0  0
    5.9215    3.9086   16.8743 H   0  0  0  0  0  0  0  0  0  0  0  0
    6.0876    7.9603   14.8339 H   0  0  0  0  0  0  0  0  0  0  0  0
    3.0429    8.1310   14.7389 H   0  0  0  0  0  0  0  0  0  0  0  0
    1.9975    6.6827   17.0229 H   0  0  0  0  0  0  0  0  0  0  0  0
    4.4289    5.7933   18.5532 H   0  0  0  0  0  0  0  0  0  0  0  0
    4.5174    8.3210   17.3265 H   0  0  0  0  0  0  0  0  0  0  0  0
    9.0638    3.2615   13.7435 H   0  0  0  0  0  0  0  0  0  0  0  0
    8.2577    1.7347   15.9449 H   0  0  0  0  0  0  0  0  0  0  0  0
   10.7091    1.4456   14.4828 H   0  0  0  0  0  0  0  0  0  0  0  0
   10.3625    0.5507   15.7632 H   0  0  0  0  0  0  0  0  0  0  0  0
    8.5881   -0.4130   14.5923 H   0  0  0  0  0  0  0  0  0  0  0  0
   10.0499   -0.6471   13.7580 H   0  0  0  0  0  0  0  0  0  0  0  0
    9.2845    1.0739   12.3867 H   0  0  0  0  0  0  0  0  0  0  0  0
    6.9412    1.3354   13.7931 H   0  0  0  0  0  0  0  0  0  0  0  0
    7.3544    2.1615   12.6717 H   0  0  0  0  0  0  0  0  0  0  0  0
    8.9754    3.8549   16.4963 H   0  0  0  0  0  0  0  0  0  0  0  0
    8.7254    6.3702   12.2153 H   0  0  0  0  0  0  0  0  0  0  0  0
    9.4744    6.7185    9.8734 H   0  0  0  0  0  0  0  0  0  0  0  0
    7.1118    7.9851    9.2250 H   0  0  0  0  0  0  0  0  0  0  0  0
    8.3701    8.5771    8.8966 H   0  0  0  0  0  0  0  0  0  0  0  0
    8.8783    8.7148   11.1394 H   0  0  0  0  0  0  0  0  0  0  0  0
    6.3448    7.5032   11.6371 H   0  0  0  0  0  0  0  0  0  0  0  0
    7.2084    7.9163   12.7750 H   0  0  0  0  0  0  0  0  0  0  0  0
    7.6696    3.7172   11.1146 H   0  0  0  0  0  0  0  0  0  0  0  0
    8.4911    5.9145   19.8728 H   0  0  0  0  0  0  0  0  0  0  0  0
    6.0744    6.1182   21.4072 H   0  0  0  0  0  0  0  0  0  0  0  0
    8.7272    5.5483   22.3489 H   0  0  0  0  0  0  0  0  0  0  0  0
    7.4291    5.7410   23.3216 H   0  0  0  0  0  0  0  0  0  0  0  0
    6.4409    3.9554   22.4832 H   0  0  0  0  0  0  0  0  0  0  0  0
    7.8830    3.4556   23.0552 H   0  0  0  0  0  0  0  0  0  0  0  0
    8.6939    3.5795   20.9240 H   0  0  0  0  0  0  0  0  0  0  0  0
    6.1845    4.2445   19.9348 H   0  0  0  0  0  0  0  0  0  0  0  0
    7.2796    3.9760   19.0550 H   0  0  0  0  0  0  0  0  0  0  0  0
    6.8485    8.2880   20.7340 H   0  0  0  0  0  0  0  0  0  0  0  0
    9.0787    8.5895   18.1195 H   0  0  0  0  0  0  0  0  0  0  0  0
    8.4171   10.2498   15.9615 H   0  0  0  0  0  0  0  0  0  0  0  0
   10.7812   10.3779   17.2501 H   0  0  0  0  0  0  0  0  0  0  0  0
   10.4524   11.1929   16.1060 H   0  0  0  0  0  0  0  0  0  0  0  0
    8.8509   12.3356   17.2790 H   0  0  0  0  0  0  0  0  0  0  0  0
   10.1855   12.4320   18.0948 H   0  0  0  0  0  0  0  0  0  0  0  0
    7.0542   10.6505   18.0245 H   0  0  0  0  0  0  0  0  0  0  0  0
    7.3785    9.7404   19.2409 H   0  0  0  0  0  0  0  0  0  0  0  0
    8.9952    8.0732   15.2242 H   0  0  0  0  0  0  0  0  0  0  0  0
    9.5641   10.7248   19.5383 H   0  0  0  0  0  0  0  0  0  0  0  0
    6.7229    5.6859   10.2885 H   0  0  0  0  0  0  0  0  0  0  0  0
    8.6634    6.1953    8.7170 H   0  0  0  0  0  0  0  0  0  0  0  0
  1  3  1  0  0  0  0
  2  5  1  0  0  0  0
  3  9  1  0  0  0  0
  4  1  1  0  0  0  0
  5 47  1  0  0  0  0
  6  2  1  0  0  0  0
  7  1  1  0  0  0  0
  8  2  1  0  0  0  0
  9 10  1  0  0  0  0
 10 11  1  0  0  0  0
 11 12  1  0  0  0  0
 12 13  1  0  0  0  0
 13 14  1  0  0  0  0
 14  9  1  0  0  0  0
 15 10  1  0  0  0  0
 16 15  1  0  0  0  0
 17 16  1  0  0  0  0
 18 16  1  0  0  0  0
 19 16  1  0  0  0  0
 20 15  1  0  0  0  0
 21 20  1  0  0  0  0
 22 20  1  0  0  0  0
 23 20  1  0  0  0  0
 24 13  1  0  0  0  0
 25 24  1  0  0  0  0
 26 24  1  0  0  0  0
 27 24  1  0  0  0  0
 28  4  1  0  0  0  0
 29 28  1  0  0  0  0
 30 29  1  0  0  0  0
 31 30  1  0  0  0  0
 32 31  1  0  0  0  0
 33 28  1  0  0  0  0
 34 29  1  0  0  0  0
 35 34  1  0  0  0  0
 36 35  1  0  0  0  0
 37 35  1  0  0  0  0
 38 35  1  0  0  0  0
 39 34  1  0  0  0  0
 40 39  1  0  0  0  0
 41 39  1  0  0  0  0
 42 39  1  0  0  0  0
 43 32  1  0  0  0  0
 44 43  1  0  0  0  0
 45 43  1  0  0  0  0
 46 43  1  0  0  0  0
 47 48  1  0  0  0  0
 48 49  1  0  0  0  0
 49 50  1  0  0  0  0
 50 51  1  0  0  0  0
 51 52  1  0  0  0  0
 52 47  1  0  0  0  0
 53 48  1  0  0  0  0
 54 53  1  0  0  0  0
 55 54  1  0  0  0  0
 56 54  1  0  0  0  0
 57 54  1  0  0  0  0
 58 53  1  0  0  0  0
 59 58  1  0  0  0  0
 60 58  1  0  0  0  0
 61 58  1  0  0  0  0
 62 51  1  0  0  0  0
 63 62  1  0  0  0  0
 64 62  1  0  0  0  0
 65 62  1  0  0  0  0
 66  6  1  0  0  0  0
 67 66  1  0  0  0  0
 68 67  1  0  0  0  0
 69 68  1  0  0  0  0
 70 69  1  0  0  0  0
 71 66  1  0  0  0  0
 72 67  1  0  0  0  0
 73 72  1  0  0  0  0
 74 73  1  0  0  0  0
 75 73  1  0  0  0  0
 76 73  1  0  0  0  0
 77 72  1  0  0  0  0
 78 77  1  0  0  0  0
 79 77  1  0  0  0  0
 80 77  1  0  0  0  0
 81 70  1  0  0  0  0
 82 81  1  0  0  0  0
 83 81  1  0  0  0  0
 84 81  1  0  0  0  0
 85  7  1  0  0  0  0
 86  7  1  0  0  0  0
 87 85  1  0  0  0  0
 88 85  1  0  0  0  0
 89  7  1  0  0  0  0
 90  7  1  0  0  0  0
 91 86  1  0  0  0  0
 92 87  1  0  0  0  0
 93  8  1  0  0  0  0
 94  8  1  0  0  0  0
 95 85  1  0  0  0  0
 96 86  1  0  0  0  0
 97 87  1  0  0  0  0
 98 88  1  0  0  0  0
 99 89  1  0  0  0  0
100 90  1  0  0  0  0
101 91  1  0  0  0  0
102 92  1  0  0  0  0
103 93  1  0  0  0  0
104 94  1  0  0  0  0
105  9  1  0  0  0  0
106 10  1  0  0  0  0
107 11  1  0  0  0  0
108 11  1  0  0  0  0
109 12  1  0  0  0  0
110 12  1  0  0  0  0
111 13  1  0  0  0  0
112 14  1  0  0  0  0
113 14  1  0  0  0  0
114 15  1  0  0  0  0
115 28  1  0  0  0  0
116 30  1  0  0  0  0
117 31  1  0  0  0  0
118 31  1  0  0  0  0
119 32  1  0  0  0  0
120 33  1  0  0  0  0
121 33  1  0  0  0  0
122 34  1  0  0  0  0
123 47  1  0  0  0  0
124 48  1  0  0  0  0
125 49  1  0  0  0  0
126 49  1  0  0  0  0
127 50  1  0  0  0  0
128 50  1  0  0  0  0
129 51  1  0  0  0  0
130 52  1  0  0  0  0
131 52  1  0  0  0  0
132 53  1  0  0  0  0
133 66  1  0  0  0  0
134 67  1  0  0  0  0
135 68  1  0  0  0  0
136 68  1  0  0  0  0
137 69  1  0  0  0  0
138 69  1  0  0  0  0
139 71  1  0  0  0  0
140 71  1  0  0  0  0
141 72  1  0  0  0  0
142 70  1  0  0  0  0
143 29  1  0  0  0  0
144 30  1  0  0  0  0
  7  8  1  0  0  0  0
  8 89  1  0  0  0  0
  8 90  1  0  0  0  0
 32 33  1  0  0  0  0
 70 71  1  0  0  0  0
 85 86  1  0  0  0  0
 85 89  1  0  0  0  0
 86 87  1  0  0  0  0
 86 90  1  0  0  0  0
 87 88  1  0  0  0  0
 87 91  1  0  0  0  0
 88 89  1  0  0  0  0
 88 92  1  0  0  0  0
 88 93  1  0  0  0  0
 89 93  1  0  0  0  0
 90 91  1  0  0  0  0
 90 94  1  0  0  0  0
 91 92  1  0  0  0  0
 91 94  1  0  0  0  0
 92 93  1  0  0  0  0
 92 94  1  0  0  0  0
 93 94  1  0  0  0  0
M  END
$$$$
XUKQOK

From CSD data. Using bond type 'Any'. No disordered atoms. Largest molecule.
120142  0  0  0  0  0  0  0  0999 V2000
    3.2154    6.6935   17.6853 P   0  0  0  0  0  0  0  0  0  0  0  0
    0.4473    8.1420   18.6398 P   0  0  0  0  0  0  0  0  0  0  0  0
    4.1907    5.4950   17.1992 O   0  0  0  0  0  0  0  0  0  0  0  0
    3.4410    6.6283   19.2963 O   0  0  0  0  0  0  0  0  0  0  0  0
   -0.6498    8.0611   19.8250 O   0  0  0  0  0  0  0  0  0  0  0  0
   -0.4748    8.8309   17.5053 O   0  0  0  0  0  0  0  0  0  0  0  0
    1.6696    5.6400   17.6097 C   0  0  0  0  0  0  0  0  0  0  0  0
    0.2344    6.4014   18.0057 C   0  0  0  0  0  0  0  0  0  0  0  0
    5.4466    5.8041   16.6600 C   0  0  0  0  0  0  0  0  0  0  0  0
    6.2305    6.8203   17.1416 C   0  0  0  0  0  0  0  0  0  0  0  0
    7.4567    7.0830   16.5560 C   0  0  0  0  0  0  0  0  0  0  0  0
    7.9286    6.3285   15.4958 C   0  0  0  0  0  0  0  0  0  0  0  0
    7.1268    5.2761   15.0669 C   0  0  0  0  0  0  0  0  0  0  0  0
    5.9018    5.0118   15.6345 C   0  0  0  0  0  0  0  0  0  0  0  0
    9.2731    6.6006   14.8172 C   0  0  0  0  0  0  0  0  0  0  0  0
   10.0086    7.7892   15.4333 C   0  0  0  0  0  0  0  0  0  0  0  0
    9.4580    8.5963   15.3471 H   0  0  0  0  0  0  0  0  0  0  0  0
   10.8616    7.9251   14.9681 H   0  0  0  0  0  0  0  0  0  0  0  0
   10.1800    7.6114   16.3817 H   0  0  0  0  0  0  0  0  0  0  0  0
   10.1837    5.3839   14.9663 C   0  0  0  0  0  0  0  0  0  0  0  0
   10.3312    5.2021   15.9183 H   0  0  0  0  0  0  0  0  0  0  0  0
   11.0440    5.5657   14.5316 H   0  0  0  0  0  0  0  0  0  0  0  0
    9.7614    4.6068   14.5460 H   0  0  0  0  0  0  0  0  0  0  0  0
    9.0538    6.8842   13.3407 C   0  0  0  0  0  0  0  0  0  0  0  0
    8.5864    6.1291   12.9294 H   0  0  0  0  0  0  0  0  0  0  0  0
    9.9192    7.0141   12.9006 H   0  0  0  0  0  0  0  0  0  0  0  0
    8.5123    7.6953   13.2419 H   0  0  0  0  0  0  0  0  0  0  0  0
    3.9377    7.6919   20.0529 C   0  0  0  0  0  0  0  0  0  0  0  0
    4.2919    7.3917   21.3422 C   0  0  0  0  0  0  0  0  0  0  0  0
    4.7337    8.4009   22.1852 C   0  0  0  0  0  0  0  0  0  0  0  0
    4.8006    9.7250   21.7708 C   0  0  0  0  0  0  0  0  0  0  0  0
    4.4454    9.9828   20.4474 C   0  0  0  0  0  0  0  0  0  0  0  0
    4.0206    8.9867   19.5882 C   0  0  0  0  0  0  0  0  0  0  0  0
    5.1986   10.8783   22.6848 C   0  0  0  0  0  0  0  0  0  0  0  0
    4.0010   11.8067   22.8788 C   0  0  0  0  0  0  0  0  0  0  0  0
    3.7174   12.1603   22.0112 H   0  0  0  0  0  0  0  0  0  0  0  0
    4.2549   12.5499   23.4661 H   0  0  0  0  0  0  0  0  0  0  0  0
    3.2630   11.3073   23.2847 H   0  0  0  0  0  0  0  0  0  0  0  0
    5.6520   10.3883   24.0553 C   0  0  0  0  0  0  0  0  0  0  0  0
    4.9206    9.8989   24.4864 H   0  0  0  0  0  0  0  0  0  0  0  0
    5.9032   11.1554   24.6103 H   0  0  0  0  0  0  0  0  0  0  0  0
    6.4239    9.7930   23.9511 H   0  0  0  0  0  0  0  0  0  0  0  0
    6.3447   11.6725   22.0579 C   0  0  0  0  0  0  0  0  0  0  0  0
    7.1057   11.0755   21.8980 H   0  0  0  0  0  0  0  0  0  0  0  0
    6.6147   12.3920   22.6650 H   0  0  0  0  0  0  0  0  0  0  0  0
    6.0471   12.0584   21.2065 H   0  0  0  0  0  0  0  0  0  0  0  0
   -0.3455    8.2785   21.1766 C   0  0  0  0  0  0  0  0  0  0  0  0
   -1.3457    8.1308   22.0974 C   0  0  0  0  0  0  0  0  0  0  0  0
   -2.2020    7.8532   21.7938 H   0  0  0  0  0  0  0  0  0  0  0  0
   -1.1718    8.3686   23.4536 C   0  0  0  0  0  0  0  0  0  0  0  0
   -1.8979    8.2967   24.0607 H   0  0  0  0  0  0  0  0  0  0  0  0
    0.0979    8.7138   23.8943 C   0  0  0  0  0  0  0  0  0  0  0  0
    1.1150    8.9140   22.9775 C   0  0  0  0  0  0  0  0  0  0  0  0
    1.9684    9.1976   23.2811 H   0  0  0  0  0  0  0  0  0  0  0  0
    0.9061    8.7022   21.6106 C   0  0  0  0  0  0  0  0  0  0  0  0
    1.6098    8.8440   20.9873 H   0  0  0  0  0  0  0  0  0  0  0  0
    0.3106    8.9439   25.3971 C   0  0  0  0  0  0  0  0  0  0  0  0
   -0.5639   10.0886   25.8695 C   0  0  0  0  0  0  0  0  0  0  0  0
   -1.5066    9.8449   25.7617 H   0  0  0  0  0  0  0  0  0  0  0  0
   -0.3707   10.8877   25.3378 H   0  0  0  0  0  0  0  0  0  0  0  0
   -0.3803   10.2704   26.8143 H   0  0  0  0  0  0  0  0  0  0  0  0
   -0.0438    7.7153   26.1479 C   0  0  0  0  0  0  0  0  0  0  0  0
   -1.0047    7.5415   26.0545 H   0  0  0  0  0  0  0  0  0  0  0  0
    0.1759    7.8372   27.0945 H   0  0  0  0  0  0  0  0  0  0  0  0
    0.4614    6.9562   25.7887 H   0  0  0  0  0  0  0  0  0  0  0  0
    1.7485    9.3894   25.7024 C   0  0  0  0  0  0  0  0  0  0  0  0
    1.8185    9.6451   26.6455 H   0  0  0  0  0  0  0  0  0  0  0  0
    1.9801   10.1546   25.1366 H   0  0  0  0  0  0  0  0  0  0  0  0
    2.3655    8.6503   25.5192 H   0  0  0  0  0  0  0  0  0  0  0  0
   -0.1580   10.1072   17.0124 C   0  0  0  0  0  0  0  0  0  0  0  0
    1.0835   10.4075   16.5129 C   0  0  0  0  0  0  0  0  0  0  0  0
    1.3166   11.6613   15.9672 C   0  0  0  0  0  0  0  0  0  0  0  0
    0.3237   12.6304   15.9341 C   0  0  0  0  0  0  0  0  0  0  0  0
   -0.9175   12.2838   16.4518 C   0  0  0  0  0  0  0  0  0  0  0  0
   -1.1675   11.0374   16.9835 C   0  0  0  0  0  0  0  0  0  0  0  0
    0.5259   14.0232   15.3399 C   0  0  0  0  0  0  0  0  0  0  0  0
    0.3191   15.0604   16.4231 C   0  0  0  0  0  0  0  0  0  0  0  0
   -0.5763   14.9572   16.8074 H   0  0  0  0  0  0  0  0  0  0  0  0
    0.4067   15.9580   16.0369 H   0  0  0  0  0  0  0  0  0  0  0  0
    0.9928   14.9392   17.1236 H   0  0  0  0  0  0  0  0  0  0  0  0
   -0.4951   14.2480   14.2245 C   0  0  0  0  0  0  0  0  0  0  0  0
   -1.3982   14.2420   14.6017 H   0  0  0  0  0  0  0  0  0  0  0  0
   -0.4124   13.5348   13.5580 H   0  0  0  0  0  0  0  0  0  0  0  0
   -0.3257   15.1150   13.7969 H   0  0  0  0  0  0  0  0  0  0  0  0
    1.9141   14.1880   14.7328 C   0  0  0  0  0  0  0  0  0  0  0  0
    1.9995   15.0850   14.3520 H   0  0  0  0  0  0  0  0  0  0  0  0
    2.0446   13.5188   14.0287 H   0  0  0  0  0  0  0  0  0  0  0  0
    2.5927   14.0622   15.4297 H   0  0  0  0  0  0  0  0  0  0  0  0
    1.5779    3.9775   17.9535 B   0  0  0  0  0  0  0  0  0  0  0  0
    0.8380    5.1674   19.0420 B   0  0  0  0  0  0  0  0  0  0  0  0
   -0.0609    3.7208   18.5785 B   0  0  0  0  0  0  0  0  0  0  0  0
    0.3053    3.3622   16.8739 B   0  0  0  0  0  0  0  0  0  0  0  0
    1.4396    4.5928   16.2883 B   0  0  0  0  0  0  0  0  0  0  0  0
   -0.8845    5.2791   18.6360 B   0  0  0  0  0  0  0  0  0  0  0  0
   -1.2161    4.1653   17.3014 B   0  0  0  0  0  0  0  0  0  0  0  0
   -0.2892    4.7167   15.8860 B   0  0  0  0  0  0  0  0  0  0  0  0
    0.6032    6.1631   16.3440 B   0  0  0  0  0  0  0  0  0  0  0  0
   -1.0311    5.8974   16.9781 B   0  0  0  0  0  0  0  0  0  0  0  0
    2.4382    3.5240   18.2391 H   0  0  0  0  0  0  0  0  0  0  0  0
    1.2852    5.4658   19.9688 H   0  0  0  0  0  0  0  0  0  0  0  0
   -0.2994    2.9567   19.3240 H   0  0  0  0  0  0  0  0  0  0  0  0
    0.3682    2.3773   16.5075 H   0  0  0  0  0  0  0  0  0  0  0  0
    2.3212    4.5069   15.6040 H   0  0  0  0  0  0  0  0  0  0  0  0
   -1.5486    5.6177   19.3904 H   0  0  0  0  0  0  0  0  0  0  0  0
   -2.2171    3.6958   17.2439 H   0  0  0  0  0  0  0  0  0  0  0  0
   -0.6117    4.6308   14.9034 H   0  0  0  0  0  0  0  0  0  0  0  0
    0.8658    7.0521   15.7854 H   0  0  0  0  0  0  0  0  0  0  0  0
   -1.7815    6.6006   16.7500 H   0  0  0  0  0  0  0  0  0  0  0  0
    5.9489    7.3238   17.7613 H   0  0  0  0  0  0  0  0  0  0  0  0
    8.0215    7.8152   16.9386 H   0  0  0  0  0  0  0  0  0  0  0  0
    7.4189    4.7546   14.3340 H   0  0  0  0  0  0  0  0  0  0  0  0
    5.3756    4.2772   15.3579 H   0  0  0  0  0  0  0  0  0  0  0  0
    4.2590    6.4887   21.6016 H   0  0  0  0  0  0  0  0  0  0  0  0
    4.9254    8.1628   23.0530 H   0  0  0  0  0  0  0  0  0  0  0  0
    4.5190   10.8558   20.0982 H   0  0  0  0  0  0  0  0  0  0  0  0
    3.8113    9.2056   18.7312 H   0  0  0  0  0  0  0  0  0  0  0  0
    1.7391    9.7690   16.5075 H   0  0  0  0  0  0  0  0  0  0  0  0
    2.2236   11.8666   15.6740 H   0  0  0  0  0  0  0  0  0  0  0  0
   -1.6685   12.8775   16.4716 H   0  0  0  0  0  0  0  0  0  0  0  0
   -2.0204   10.8178   17.2960 H   0  0  0  0  0  0  0  0  0  0  0  0
  1  3  1  0  0  0  0
  2  5  1  0  0  0  0
  3  9  1  0  0  0  0
  4  1  1  0  0  0  0
  5 47  1  0  0  0  0
  6  2  1  0  0  0  0
  7  1  1  0  0  0  0
  8  2  1  0  0  0  0
  9 10  4  0  0  0  0
 10 11  4  0  0  0  0
 11 12  4  0  0  0  0
 12 13  4  0  0  0  0
 13 14  4  0  0  0  0
 14  9  4  0  0  0  0
 15 12  1  0  0  0  0
 16 15  1  0  0  0  0
 17 16  1  0  0  0  0
 18 16  1  0  0  0  0
 19 16  1  0  0  0  0
 20 15  1  0  0  0  0
 21 20  1  0  0  0  0
 22 20  1  0  0  0  0
 23 20  1  0  0  0  0
 24 15  1  0  0  0  0
 25 24  1  0  0  0  0
 26 24  1  0  0  0  0
 27 24  1  0  0  0  0
 28  4  1  0  0  0  0
 29 28  4  0  0  0  0
 30 29  4  0  0  0  0
 31 30  4  0  0  0  0
 32 31  4  0  0  0  0
 33 28  4  0  0  0  0
 34 31  1  0  0  0  0
 35 34  1  0  0  0  0
 36 35  1  0  0  0  0
 37 35  1  0  0  0  0
 38 35  1  0  0  0  0
 39 34  1  0  0  0  0
 40 39  1  0  0  0  0
 41 39  1  0  0  0  0
 42 39  1  0  0  0  0
 43 34  1  0  0  0  0
 44 43  1  0  0  0  0
 45 43  1  0  0  0  0
 46 43  1  0  0  0  0
 47 48  4  0  0  0  0
 48 49  1  0  0  0  0
 50 48  4  0  0  0  0
 51 50  1  0  0  0  0
 52 50  4  0  0  0  0
 53 52  4  0  0  0  0
 54 53  1  0  0  0  0
 55 47  4  0  0  0  0
 56 55  1  0  0  0  0
 57 52  1  0  0  0  0
 58 57  1  0  0  0  0
 59 58  1  0  0  0  0
 60 58  1  0  0  0  0
 61 58  1  0  0  0  0
 62 57  1  0  0  0  0
 63 62  1  0  0  0  0
 64 62  1  0  0  0  0
 65 62  1  0  0  0  0
 66 57  1  0  0  0  0
 67 66  1  0  0  0  0
 68 66  1  0  0  0  0
 69 66  1  0  0  0  0
 70  6  1  0  0  0  0
 71 70  4  0  0  0  0
 72 71  4  0  0  0  0
 73 72  4  0  0  0  0
 74 73  4  0  0  0  0
 75 70  4  0  0  0  0
 76 73  1  0  0  0  0
 77 76  1  0  0  0  0
 78 77  1  0  0  0  0
 79 77  1  0  0  0  0
 80 77  1  0  0  0  0
 81 76  1  0  0  0  0
 82 81  1  0  0  0  0
 83 81  1  0  0  0  0
 84 81  1  0  0  0  0
 85 76  1  0  0  0  0
 86 85  1  0  0  0  0
 87 85  1  0  0  0  0
 88 85  1  0  0  0  0
 89  7  1  0  0  0  0
 90  7  1  0  0  0  0
 91 89  1  0  0  0  0
 92 89  1  0  0  0  0
 93  7  1  0  0  0  0
 94  8  1  0  0  0  0
 95 91  1  0  0  0  0
 96 92  1  0  0  0  0
 97  7  1  0  0  0  0
 98  8  1  0  0  0  0
 99 89  1  0  0  0  0
100 90  1  0  0  0  0
101 91  1  0  0  0  0
102 92  1  0  0  0  0
103 93  1  0  0  0  0
104 94  1  0  0  0  0
105 95  1  0  0  0  0
106 96  1  0  0  0  0
107 97  1  0  0  0  0
108 98  1  0  0  0  0
109 10  1  0  0  0  0
110 11  1  0  0  0  0
111 13  1  0  0  0  0
112 14  1  0  0  0  0
113 29  1  0  0  0  0
114 30  1  0  0  0  0
115 32  1  0  0  0  0
116 33  1  0  0  0  0
117 71  1  0  0  0  0
118 72  1  0  0  0  0
119 74  1  0  0  0  0
120 75  1  0  0  0  0
  7  8  1  0  0  0  0
  8 90  1  0  0  0  0
  8 97  1  0  0  0  0
 32 33  4  0  0  0  0
 53 55  4  0  0  0  0
 74 75  4  0  0  0  0
 89 90  1  0  0  0  0
 89 93  1  0  0  0  0
 90 91  1  0  0  0  0
 90 94  1  0  0  0  0
 91 92  1  0  0  0  0
 91 94  1  0  0  0  0
 92 93  1  0  0  0  0
 92 95  1  0  0  0  0
 93 96  1  0  0  0  0
 93 97  1  0  0  0  0
 94 95  1  0  0  0  0
 94 98  1  0  0  0  0
 95 96  1  0  0  0  0
 95 98  1  0  0  0  0
 96 97  1  0  0  0  0
 96 98  1  0  0  0  0
 97 98  1  0  0  0  0
M  END
$$$$
XUKQUQ

From CSD data. Using bond type 'Any'. No disordered atoms. Largest molecule.
136162  0  0  0  0  0  0  0  0999 V2000
    0.3743   15.3166   -0.4836 P   0  0  0  0  0  0  0  0  0  0  0  0
   -1.0932   16.7073    2.1425 P   0  0  0  0  0  0  0  0  0  0  0  0
    0.2055   13.8341    0.1149 O   0  0  0  0  0  0  0  0  0  0  0  0
    0.5557   15.0037   -2.0552 O   0  0  0  0  0  0  0  0  0  0  0  0
   -0.6268   18.2030    1.8025 O   0  0  0  0  0  0  0  0  0  0  0  0
   -2.2976   16.9698    3.1904 O   0  0  0  0  0  0  0  0  0  0  0  0
   -1.4645   15.7004   -0.6462 C   0  0  0  0  0  0  0  0  0  0  0  0
   -2.1865   16.4805    0.6292 C   0  0  0  0  0  0  0  0  0  0  0  0
    1.1067   13.2167    1.0907 C   0  0  0  0  0  0  0  0  0  0  0  0
    0.2669   12.8345    2.2905 C   0  0  0  0  0  0  0  0  0  0  0  0
   -0.4808   12.2543    2.0026 H   0  0  0  0  0  0  0  0  0  0  0  0
   -0.1164   13.6484    2.7023 H   0  0  0  0  0  0  0  0  0  0  0  0
    1.1266   12.0948    3.3163 C   0  0  0  0  0  0  0  0  0  0  0  0
    0.5672   11.8460    4.1066 H   0  0  0  0  0  0  0  0  0  0  0  0
    1.6851   10.8373    2.6722 C   0  0  0  0  0  0  0  0  0  0  0  0
    0.9427   10.2468    2.3906 H   0  0  0  0  0  0  0  0  0  0  0  0
    2.2411   10.3444    3.3268 H   0  0  0  0  0  0  0  0  0  0  0  0
    2.5265   11.2155    1.4646 C   0  0  0  0  0  0  0  0  0  0  0  0
    2.8951   10.3882    1.0401 H   0  0  0  0  0  0  0  0  0  0  0  0
    1.6548   11.9663    0.4532 C   0  0  0  0  0  0  0  0  0  0  0  0
    2.1934   12.2045   -0.3417 H   0  0  0  0  0  0  0  0  0  0  0  0
    0.9082   11.3860    0.1590 H   0  0  0  0  0  0  0  0  0  0  0  0
    2.2313   14.1296    1.5266 C   0  0  0  0  0  0  0  0  0  0  0  0
    1.8608   14.9509    1.9363 H   0  0  0  0  0  0  0  0  0  0  0  0
    2.7774   14.3913    0.7435 H   0  0  0  0  0  0  0  0  0  0  0  0
    3.1049   13.3780    2.5502 C   0  0  0  0  0  0  0  0  0  0  0  0
    3.8592   13.9671    2.8412 H   0  0  0  0  0  0  0  0  0  0  0  0
    2.2585   13.0012    3.7581 C   0  0  0  0  0  0  0  0  0  0  0  0
    2.8187   12.5351    4.4282 H   0  0  0  0  0  0  0  0  0  0  0  0
    1.8892   13.8197    4.1767 H   0  0  0  0  0  0  0  0  0  0  0  0
    3.6663   12.1109    1.9020 C   0  0  0  0  0  0  0  0  0  0  0  0
    4.2206   12.3539    1.1190 H   0  0  0  0  0  0  0  0  0  0  0  0
    4.2398   11.6309    2.5496 H   0  0  0  0  0  0  0  0  0  0  0  0
    1.7125   15.4905   -2.7886 C   0  0  0  0  0  0  0  0  0  0  0  0
    1.7044   14.7289   -4.1151 C   0  0  0  0  0  0  0  0  0  0  0  0
    2.7889   15.2923   -5.0318 C   0  0  0  0  0  0  0  0  0  0  0  0
    3.6770   15.0744   -4.6523 H   0  0  0  0  0  0  0  0  0  0  0  0
    2.7223   14.8534   -5.9164 H   0  0  0  0  0  0  0  0  0  0  0  0
    2.6864   16.8037   -5.2176 C   0  0  0  0  0  0  0  0  0  0  0  0
    3.4424   17.1158   -5.7750 H   0  0  0  0  0  0  0  0  0  0  0  0
    1.8461   17.0182   -5.6961 H   0  0  0  0  0  0  0  0  0  0  0  0
    2.7069   17.5342   -3.8898 C   0  0  0  0  0  0  0  0  0  0  0  0
    1.6133   16.9812   -2.9867 C   0  0  0  0  0  0  0  0  0  0  0  0
    1.6668   17.4285   -2.1052 H   0  0  0  0  0  0  0  0  0  0  0  0
    0.7308   17.1955   -3.3806 H   0  0  0  0  0  0  0  0  0  0  0  0
    1.7658   13.2089   -3.9245 C   0  0  0  0  0  0  0  0  0  0  0  0
    1.1038   12.9713   -3.2129 H   0  0  0  0  0  0  0  0  0  0  0  0
    1.3424   12.4814   -5.2006 C   0  0  0  0  0  0  0  0  0  0  0  0
    1.9503   12.7223   -5.9314 H   0  0  0  0  0  0  0  0  0  0  0  0
    0.4277   12.7423   -5.4371 H   0  0  0  0  0  0  0  0  0  0  0  0
    1.3777   11.5134   -5.0516 H   0  0  0  0  0  0  0  0  0  0  0  0
    3.1326   12.6935   -3.4652 C   0  0  0  0  0  0  0  0  0  0  0  0
    3.0632   11.7425   -3.2379 H   0  0  0  0  0  0  0  0  0  0  0  0
    3.4235   13.1983   -2.6772 H   0  0  0  0  0  0  0  0  0  0  0  0
    3.7851   12.8100   -4.1867 H   0  0  0  0  0  0  0  0  0  0  0  0
    2.5798   19.0379   -4.0563 C   0  0  0  0  0  0  0  0  0  0  0  0
    1.7024   19.2508   -4.4383 H   0  0  0  0  0  0  0  0  0  0  0  0
    3.2841   19.3603   -4.6560 H   0  0  0  0  0  0  0  0  0  0  0  0
    2.6689   19.4719   -3.1829 H   0  0  0  0  0  0  0  0  0  0  0  0
    0.6748   18.7627    2.2180 C   0  0  0  0  0  0  0  0  0  0  0  0
    0.3719   20.1733    2.6716 C   0  0  0  0  0  0  0  0  0  0  0  0
   -0.2371   20.1510    3.4520 H   0  0  0  0  0  0  0  0  0  0  0  0
   -0.0758   20.6708    1.9425 H   0  0  0  0  0  0  0  0  0  0  0  0
    1.6894   20.8771    3.0542 C   0  0  0  0  0  0  0  0  0  0  0  0
    1.4992   21.8140    3.3493 H   0  0  0  0  0  0  0  0  0  0  0  0
    2.6064   20.8969    1.8433 C   0  0  0  0  0  0  0  0  0  0  0  0
    3.4497   21.3619    2.0702 H   0  0  0  0  0  0  0  0  0  0  0  0
    2.1708   21.3878    1.1027 H   0  0  0  0  0  0  0  0  0  0  0  0
    2.9078   19.4719    1.4075 C   0  0  0  0  0  0  0  0  0  0  0  0
    3.5233   19.4878    0.6196 H   0  0  0  0  0  0  0  0  0  0  0  0
    1.5924   18.7852    1.0168 C   0  0  0  0  0  0  0  0  0  0  0  0
    1.1625   19.2787    0.2741 H   0  0  0  0  0  0  0  0  0  0  0  0
    1.7721   17.8607    0.7134 H   0  0  0  0  0  0  0  0  0  0  0  0
    1.3114   17.9826    3.3518 C   0  0  0  0  0  0  0  0  0  0  0  0
    1.4903   17.0521    3.0640 H   0  0  0  0  0  0  0  0  0  0  0  0
    0.6995   17.9563    4.1304 H   0  0  0  0  0  0  0  0  0  0  0  0
    2.6330   18.6774    3.7424 C   0  0  0  0  0  0  0  0  0  0  0  0
    3.0684   18.1773    4.4908 H   0  0  0  0  0  0  0  0  0  0  0  0
    2.3334   20.1056    4.1864 C   0  0  0  0  0  0  0  0  0  0  0  0
    1.7247   20.0913    4.9677 H   0  0  0  0  0  0  0  0  0  0  0  0
    3.1741   20.5533    4.4583 H   0  0  0  0  0  0  0  0  0  0  0  0
    3.5564   18.7027    2.5407 C   0  0  0  0  0  0  0  0  0  0  0  0
    4.4135   19.1333    2.7874 H   0  0  0  0  0  0  0  0  0  0  0  0
    3.7484   17.7770    2.2479 H   0  0  0  0  0  0  0  0  0  0  0  0
   -2.2682   16.2578    4.4628 C   0  0  0  0  0  0  0  0  0  0  0  0
   -3.1808   16.9941    5.4308 C   0  0  0  0  0  0  0  0  0  0  0  0
   -3.2845   16.1903    6.7284 C   0  0  0  0  0  0  0  0  0  0  0  0
   -2.4042   16.1917    7.1806 H   0  0  0  0  0  0  0  0  0  0  0  0
   -3.9352   16.6299    7.3308 H   0  0  0  0  0  0  0  0  0  0  0  0
   -3.7208   14.7488    6.4899 C   0  0  0  0  0  0  0  0  0  0  0  0
   -3.7435   14.2638    7.3533 H   0  0  0  0  0  0  0  0  0  0  0  0
   -4.6347   14.7398    6.1092 H   0  0  0  0  0  0  0  0  0  0  0  0
   -2.7707   14.0412    5.5397 C   0  0  0  0  0  0  0  0  0  0  0  0
   -2.7040   14.8257    4.2469 C   0  0  0  0  0  0  0  0  0  0  0  0
   -2.0674   14.3833    3.6310 H   0  0  0  0  0  0  0  0  0  0  0  0
   -3.5961   14.8195    3.8175 H   0  0  0  0  0  0  0  0  0  0  0  0
   -2.7725   18.4601    5.6596 C   0  0  0  0  0  0  0  0  0  0  0  0
   -2.5971   18.8644    4.7612 H   0  0  0  0  0  0  0  0  0  0  0  0
   -3.9009   19.2580    6.3017 C   0  0  0  0  0  0  0  0  0  0  0  0
   -4.0646   18.9222    7.2081 H   0  0  0  0  0  0  0  0  0  0  0  0
   -4.7160   19.1612    5.7650 H   0  0  0  0  0  0  0  0  0  0  0  0
   -3.6490   20.2048    6.3445 H   0  0  0  0  0  0  0  0  0  0  0  0
   -1.4928   18.6187    6.4880 C   0  0  0  0  0  0  0  0  0  0  0  0
   -1.2087   19.5555    6.4734 H   0  0  0  0  0  0  0  0  0  0  0  0
   -0.7859   18.0578    6.1079 H   0  0  0  0  0  0  0  0  0  0  0  0
   -1.6666   18.3446    7.4121 H   0  0  0  0  0  0  0  0  0  0  0  0
   -3.1890   12.5997    5.2805 C   0  0  0  0  0  0  0  0  0  0  0  0
   -4.0817   12.5869    4.8763 H   0  0  0  0  0  0  0  0  0  0  0  0
   -3.2071   12.1069    6.1279 H   0  0  0  0  0  0  0  0  0  0  0  0
   -2.5475   12.1786    4.6711 H   0  0  0  0  0  0  0  0  0  0  0  0
   -1.8235   17.3727   -0.7934 B   0  0  0  0  0  0  0  0  0  0  0  0
   -1.0476   18.1793   -0.8536 H   0  0  0  0  0  0  0  0  0  0  0  0
   -3.3552   17.5966    0.0865 B   0  0  0  0  0  0  0  0  0  0  0  0
   -3.6013   18.5597    0.6033 H   0  0  0  0  0  0  0  0  0  0  0  0
   -3.8256   16.0162    0.7647 B   0  0  0  0  0  0  0  0  0  0  0  0
   -4.3879   15.9408    1.7310 H   0  0  0  0  0  0  0  0  0  0  0  0
   -2.5825   14.8336    0.3245 B   0  0  0  0  0  0  0  0  0  0  0  0
   -2.3076   13.9850    1.0013 H   0  0  0  0  0  0  0  0  0  0  0  0
   -2.5673   14.6809   -1.4545 B   0  0  0  0  0  0  0  0  0  0  0  0
   -2.2853   13.7241   -1.9650 H   0  0  0  0  0  0  0  0  0  0  0  0
   -4.0986   14.8792   -0.5789 B   0  0  0  0  0  0  0  0  0  0  0  0
   -4.8456   14.0468   -0.5119 H   0  0  0  0  0  0  0  0  0  0  0  0
   -4.5889   16.5952   -0.7208 B   0  0  0  0  0  0  0  0  0  0  0  0
   -5.6656   16.9027   -0.7460 H   0  0  0  0  0  0  0  0  0  0  0  0
   -3.3512   17.4388   -1.6886 B   0  0  0  0  0  0  0  0  0  0  0  0
   -3.6062   18.3008   -2.3556 H   0  0  0  0  0  0  0  0  0  0  0  0
   -2.1166   16.2495   -2.1298 B   0  0  0  0  0  0  0  0  0  0  0  0
   -1.5412   16.3232   -3.0878 H   0  0  0  0  0  0  0  0  0  0  0  0
   -3.8181   15.7641   -2.0863 B   0  0  0  0  0  0  0  0  0  0  0  0
   -4.3900   15.5205   -3.0177 H   0  0  0  0  0  0  0  0  0  0  0  0
    2.5601   15.2138   -2.2729 H   0  0  0  0  0  0  0  0  0  0  0  0
    0.8020   14.9888   -4.5284 H   0  0  0  0  0  0  0  0  0  0  0  0
    3.5588   17.2911   -3.4557 H   0  0  0  0  0  0  0  0  0  0  0  0
   -1.3771   16.2375    4.7687 H   0  0  0  0  0  0  0  0  0  0  0  0
   -4.0885   17.0162    4.9990 H   0  0  0  0  0  0  0  0  0  0  0  0
   -1.8620   14.0786    6.0266 H   0  0  0  0  0  0  0  0  0  0  0  0
  1  3  1  0  0  0  0
  2  5  1  0  0  0  0
  3  9  1  0  0  0  0
  4  1  1  0  0  0  0
  5 60  1  0  0  0  0
  6  2  1  0  0  0  0
  7  1  1  0  0  0  0
  8  2  1  0  0  0  0
  9 10  1  0  0  0  0
 10 11  1  0  0  0  0
 12 10  1  0  0  0  0
 13 10  1  0  0  0  0
 14 13  1  0  0  0  0
 15 13  1  0  0  0  0
 16 15  1  0  0  0  0
 17 15  1  0  0  0  0
 18 15  1  0  0  0  0
 19 18  1  0  0  0  0
 20  9  1  0  0  0  0
 21 20  1  0  0  0  0
 22 20  1  0  0  0  0
 23  9  1  0  0  0  0
 24 23  1  0  0  0  0
 25 23  1  0  0  0  0
 26 23  1  0  0  0  0
 27 26  1  0  0  0  0
 28 13  1  0  0  0  0
 29 28  1  0  0  0  0
 30 28  1  0  0  0  0
 31 18  1  0  0  0  0
 32 31  1  0  0  0  0
 33 31  1  0  0  0  0
 34  4  1  0  0  0  0
 35 34  1  0  0  0  0
 36 35  1  0  0  0  0
 37 36  1  0  0  0  0
 38 36  1  0  0  0  0
 39 36  1  0  0  0  0
 40 39  1  0  0  0  0
 41 39  1  0  0  0  0
 42 39  1  0  0  0  0
 43 34  1  0  0  0  0
 44 43  1  0  0  0  0
 45 43  1  0  0  0  0
 46 35  1  0  0  0  0
 47 46  1  0  0  0  0
 48 46  1  0  0  0  0
 49 48  1  0  0  0  0
 50 48  1  0  0  0  0
 51 48  1  0  0  0  0
 52 46  1  0  0  0  0
 53 52  1  0  0  0  0
 54 52  1  0  0  0  0
 55 52  1  0  0  0  0
 56 42  1  0  0  0  0
 57 56  1  0  0  0  0
 58 56  1  0  0  0  0
 59 56  1  0  0  0  0
 60 61  1  0  0  0  0
 61 62  1  0  0  0  0
 63 61  1  0  0  0  0
 64 61  1  0  0  0  0
 65 64  1  0  0  0  0
 66 64  1  0  0  0  0
 67 66  1  0  0  0  0
 68 66  1  0  0  0  0
 69 66  1  0  0  0  0
 70 69  1  0  0  0  0
 71 60  1  0  0  0  0
 72 71  1  0  0  0  0
 73 71  1  0  0  0  0
 74 60  1  0  0  0  0
 75 74  1  0  0  0  0
 76 74  1  0  0  0  0
 77 74  1  0  0  0  0
 78 77  1  0  0  0  0
 79 64  1  0  0  0  0
 80 79  1  0  0  0  0
 81 79  1  0  0  0  0
 82 69  1  0  0  0  0
 83 82  1  0  0  0  0
 84 82  1  0  0  0  0
 85  6  1  0  0  0  0
 86 85  1  0  0  0  0
 87 86  1  0  0  0  0
 88 87  1  0  0  0  0
 89 87  1  0  0  0  0
 90 87  1  0  0  0  0
 91 90  1  0  0  0  0
 92 90  1  0  0  0  0
 93 90  1  0  0  0  0
 94 85  1  0  0  0  0
 95 94  1  0  0  0  0
 96 94  1  0  0  0  0
 97 86  1  0  0  0  0
 98 97  1  0  0  0  0
 99 97  1  0  0  0  0
100 99  1  0  0  0  0
101 99  1  0  0  0  0
102 99  1  0  0  0  0
103 97  1  0  0  0  0
104103  1  0  0  0  0
105103  1  0  0  0  0
106103  1  0  0  0  0
107 93  1  0  0  0  0
108107  1  0  0  0  0
109107  1  0  0  0  0
110107  1  0  0  0  0
111  7  1  0  0  0  0
112111  1  0  0  0  0
113  8  1  0  0  0  0
114113  1  0  0  0  0
115  8  1  0  0  0  0
116115  1  0  0  0  0
117  7  1  0  0  0  0
118117  1  0  0  0  0
119  7  1  0  0  0  0
120119  1  0  0  0  0
121115  1  0  0  0  0
122121  1  0  0  0  0
123113  1  0  0  0  0
124123  1  0  0  0  0
125111  1  0  0  0  0
126125  1  0  0  0  0
127  7  1  0  0  0  0
128127  1  0  0  0  0
129119  1  0  0  0  0
130129  1  0  0  0  0
131 34  1  0  0  0  0
132 35  1  0  0  0  0
133 42  1  0  0  0  0
134 85  1  0  0  0  0
135 86  1  0  0  0  0
136 93  1  0  0  0  0
  7  8  1  0  0  0  0
  8111  1  0  0  0  0
  8117  1  0  0  0  0
 18 20  1  0  0  0  0
 26 28  1  0  0  0  0
 26 31  1  0  0  0  0
 42 43  1  0  0  0  0
 69 71  1  0  0  0  0
 77 79  1  0  0  0  0
 77 82  1  0  0  0  0
 93 94  1  0  0  0  0
111113  1  0  0  0  0
111127  1  0  0  0  0
113115  1  0  0  0  0
113125  1  0  0  0  0
115117  1  0  0  0  0
115123  1  0  0  0  0
117119  1  0  0  0  0
117121  1  0  0  0  0
119121  1  0  0  0  0
119127  1  0  0  0  0
121123  1  0  0  0  0
121129  1  0  0  0  0
123125  1  0  0  0  0
123129  1  0  0  0  0
125127  1  0  0  0  0
125129  1  0  0  0  0
127129  1  0  0  0  0
M  END
$$$$
XUKRAX

From CSD data. Using bond type 'Any'. No disordered atoms. Largest molecule.
136162  0  0  0  0  0  0  0  0999 V2000
    2.9356    5.9945    8.0768 P   0  0  0  0  0  0  0  0  0  0  0  0
    1.7830    9.1269    8.1145 P   0  0  0  0  0  0  0  0  0  0  0  0
    3.0550    5.7065    9.6563 O   0  0  0  0  0  0  0  0  0  0  0  0
    2.9609    4.5018    7.4491 O   0  0  0  0  0  0  0  0  0  0  0  0
    0.7747   10.1787    8.8175 O   0  0  0  0  0  0  0  0  0  0  0  0
    1.6839    9.5832    6.5710 O   0  0  0  0  0  0  0  0  0  0  0  0
    1.0618    6.2036    8.1389 C   0  0  0  0  0  0  0  0  0  0  0  0
    0.4752    7.7779    8.0961 C   0  0  0  0  0  0  0  0  0  0  0  0
    4.3770    5.5723   10.2529 C   0  0  0  0  0  0  0  0  0  0  0  0
    4.4418    6.4889   11.4735 C   0  0  0  0  0  0  0  0  0  0  0  0
    5.7397    6.1956   12.2311 C   0  0  0  0  0  0  0  0  0  0  0  0
    5.9006    4.7419   12.5900 C   0  0  0  0  0  0  0  0  0  0  0  0
    5.8715    3.8616   11.3461 C   0  0  0  0  0  0  0  0  0  0  0  0
    4.5712    4.1186   10.5978 C   0  0  0  0  0  0  0  0  0  0  0  0
    4.2278    7.9812   11.1379 C   0  0  0  0  0  0  0  0  0  0  0  0
    4.1314    8.8131   12.4189 C   0  0  0  0  0  0  0  0  0  0  0  0
    5.2414    8.5750   10.2017 C   0  0  0  0  0  0  0  0  0  0  0  0
    6.0250    2.3902   11.7031 C   0  0  0  0  0  0  0  0  0  0  0  0
    3.7940    4.1519    6.2982 C   0  0  0  0  0  0  0  0  0  0  0  0
    3.6995    5.1659    5.1808 C   0  0  0  0  0  0  0  0  0  0  0  0
    4.0447    6.0412    5.4913 H   0  0  0  0  0  0  0  0  0  0  0  0
    2.7538    5.2819    4.9131 H   0  0  0  0  0  0  0  0  0  0  0  0
    3.2419    2.8107    5.8185 C   0  0  0  0  0  0  0  0  0  0  0  0
    3.2775    2.1491    6.5548 H   0  0  0  0  0  0  0  0  0  0  0  0
    2.2977    2.9159    5.5387 H   0  0  0  0  0  0  0  0  0  0  0  0
    5.2131    4.0268    6.7389 C   0  0  0  0  0  0  0  0  0  0  0  0
    5.2777    3.3800    7.4854 H   0  0  0  0  0  0  0  0  0  0  0  0
    5.5450    4.9036    7.0577 H   0  0  0  0  0  0  0  0  0  0  0  0
    4.5267    4.6753    3.9742 C   0  0  0  0  0  0  0  0  0  0  0  0
    4.4739    5.3400    3.2286 H   0  0  0  0  0  0  0  0  0  0  0  0
    4.0836    2.3252    4.6416 C   0  0  0  0  0  0  0  0  0  0  0  0
    3.7498    1.4378    4.3246 H   0  0  0  0  0  0  0  0  0  0  0  0
    6.0649    3.5480    5.5666 C   0  0  0  0  0  0  0  0  0  0  0  0
    7.0171    3.4608    5.8576 H   0  0  0  0  0  0  0  0  0  0  0  0
    3.9999    3.3430    3.5168 C   0  0  0  0  0  0  0  0  0  0  0  0
    4.5288    3.0269    2.7424 H   0  0  0  0  0  0  0  0  0  0  0  0
    3.0586    3.4406    3.2267 H   0  0  0  0  0  0  0  0  0  0  0  0
    5.9674    4.5378    4.4492 C   0  0  0  0  0  0  0  0  0  0  0  0
    6.5369    4.2427    3.6953 H   0  0  0  0  0  0  0  0  0  0  0  0
    6.2995    5.4182    4.7569 H   0  0  0  0  0  0  0  0  0  0  0  0
    5.5486    2.1998    5.1130 C   0  0  0  0  0  0  0  0  0  0  0  0
    5.6021    1.5538    5.8613 H   0  0  0  0  0  0  0  0  0  0  0  0
    6.1093    1.8615    4.3711 H   0  0  0  0  0  0  0  0  0  0  0  0
    1.1467   11.5809    8.8687 C   0  0  0  0  0  0  0  0  0  0  0  0
   -0.0710   12.3621    9.3381 C   0  0  0  0  0  0  0  0  0  0  0  0
    0.3216   13.8423    9.4283 C   0  0  0  0  0  0  0  0  0  0  0  0
    1.5156   14.0643   10.3114 C   0  0  0  0  0  0  0  0  0  0  0  0
    2.7259   13.2530    9.8531 C   0  0  0  0  0  0  0  0  0  0  0  0
    2.3340   11.7961    9.7509 C   0  0  0  0  0  0  0  0  0  0  0  0
   -1.3336   12.0592    8.5238 C   0  0  0  0  0  0  0  0  0  0  0  0
   -1.2721   12.5793    7.0959 C   0  0  0  0  0  0  0  0  0  0  0  0
   -2.5748   12.5894    9.2108 C   0  0  0  0  0  0  0  0  0  0  0  0
    3.9342   13.4516   10.7623 C   0  0  0  0  0  0  0  0  0  0  0  0
    2.9250    9.9050    5.8046 C   0  0  0  0  0  0  0  0  0  0  0  0
    3.6332   11.0913    6.3382 C   0  0  0  0  0  0  0  0  0  0  0  0
    3.9324   10.9145    7.2651 H   0  0  0  0  0  0  0  0  0  0  0  0
    3.0187   11.8680    6.3540 H   0  0  0  0  0  0  0  0  0  0  0  0
    3.8242    8.7276    5.6977 C   0  0  0  0  0  0  0  0  0  0  0  0
    3.3262    7.9608    5.3156 H   0  0  0  0  0  0  0  0  0  0  0  0
    4.1430    8.4703    6.5985 H   0  0  0  0  0  0  0  0  0  0  0  0
    2.3822   10.1830    4.3906 C   0  0  0  0  0  0  0  0  0  0  0  0
    1.7614   10.9549    4.4046 H   0  0  0  0  0  0  0  0  0  0  0  0
    1.8978    9.3935    4.0448 H   0  0  0  0  0  0  0  0  0  0  0  0
    4.8658   11.4114    5.4383 C   0  0  0  0  0  0  0  0  0  0  0  0
    5.3646   12.1959    5.8037 H   0  0  0  0  0  0  0  0  0  0  0  0
    5.0222    9.0636    4.8015 C   0  0  0  0  0  0  0  0  0  0  0  0
    5.6307    8.2710    4.7811 H   0  0  0  0  0  0  0  0  0  0  0  0
    3.6465   10.5059    3.4759 C   0  0  0  0  0  0  0  0  0  0  0  0
    3.3396   10.7178    2.5481 H   0  0  0  0  0  0  0  0  0  0  0  0
    5.7707   10.2097    5.3649 C   0  0  0  0  0  0  0  0  0  0  0  0
    6.5523   10.4125    4.7932 H   0  0  0  0  0  0  0  0  0  0  0  0
    6.0996    9.9812    6.2703 H   0  0  0  0  0  0  0  0  0  0  0  0
    4.3476   11.7224    4.0699 C   0  0  0  0  0  0  0  0  0  0  0  0
    5.0989   11.9916    3.4842 H   0  0  0  0  0  0  0  0  0  0  0  0
    3.7116   12.4784    4.1201 H   0  0  0  0  0  0  0  0  0  0  0  0
    4.5515    9.3153    3.4368 C   0  0  0  0  0  0  0  0  0  0  0  0
    4.0626    8.5258    3.0938 H   0  0  0  0  0  0  0  0  0  0  0  0
    5.3198    9.4919    2.8391 H   0  0  0  0  0  0  0  0  0  0  0  0
    0.0175    5.1977    9.0509 B   0  0  0  0  0  0  0  0  0  0  0  0
    0.0263    5.1553    7.2809 B   0  0  0  0  0  0  0  0  0  0  0  0
   -1.5121    5.2038    8.1566 B   0  0  0  0  0  0  0  0  0  0  0  0
   -1.3008    6.2599    9.5742 B   0  0  0  0  0  0  0  0  0  0  0  0
    0.3525    6.8756    9.5640 B   0  0  0  0  0  0  0  0  0  0  0  0
    0.3743    6.7994    6.6794 B   0  0  0  0  0  0  0  0  0  0  0  0
   -1.2906    6.1958    6.6840 B   0  0  0  0  0  0  0  0  0  0  0  0
   -2.1257    6.8640    8.1036 B   0  0  0  0  0  0  0  0  0  0  0  0
   -0.9927    7.9005    8.9811 B   0  0  0  0  0  0  0  0  0  0  0  0
   -0.9704    7.8641    7.2000 B   0  0  0  0  0  0  0  0  0  0  0  0
    0.4924    4.5025    9.6217 H   0  0  0  0  0  0  0  0  0  0  0  0
    0.4207    4.3234    6.7956 H   0  0  0  0  0  0  0  0  0  0  0  0
   -2.0931    4.3915    8.1064 H   0  0  0  0  0  0  0  0  0  0  0  0
   -1.8367    6.1169   10.4583 H   0  0  0  0  0  0  0  0  0  0  0  0
    1.0053    7.1284   10.4211 H   0  0  0  0  0  0  0  0  0  0  0  0
    1.0644    7.0199    5.8102 H   0  0  0  0  0  0  0  0  0  0  0  0
   -1.7452    5.9781    5.8009 H   0  0  0  0  0  0  0  0  0  0  0  0
   -3.1906    7.0729    8.1250 H   0  0  0  0  0  0  0  0  0  0  0  0
   -1.2121    8.8108    9.4915 H   0  0  0  0  0  0  0  0  0  0  0  0
   -1.1709    8.7831    6.6654 H   0  0  0  0  0  0  0  0  0  0  0  0
    1.2976   11.8756    8.0599 H   0  0  0  0  0  0  0  0  0  0  0  0
    3.7997    3.8366   11.1741 H   0  0  0  0  0  0  0  0  0  0  0  0
    4.5442    3.6979    9.8262 H   0  0  0  0  0  0  0  0  0  0  0  0
    5.0055    5.8545    9.6124 H   0  0  0  0  0  0  0  0  0  0  0  0
    2.9457   13.6009    8.9988 H   0  0  0  0  0  0  0  0  0  0  0  0
    6.5811    4.1796   10.7465 H   0  0  0  0  0  0  0  0  0  0  0  0
    3.7109    6.2455   12.0294 H   0  0  0  0  0  0  0  0  0  0  0  0
    3.3813    7.9305   10.7372 H   0  0  0  0  0  0  0  0  0  0  0  0
    2.1639   11.5375   10.5978 H   0  0  0  0  0  0  0  0  0  0  0  0
    5.7815    6.7929   12.9869 H   0  0  0  0  0  0  0  0  0  0  0  0
    6.1441    8.4703   10.6721 H   0  0  0  0  0  0  0  0  0  0  0  0
   -0.2488   12.0597   10.2724 H   0  0  0  0  0  0  0  0  0  0  0  0
   -3.4137   12.3094    8.7013 H   0  0  0  0  0  0  0  0  0  0  0  0
    6.3893    6.5154   11.7319 H   0  0  0  0  0  0  0  0  0  0  0  0
    1.2364   13.8153   11.2299 H   0  0  0  0  0  0  0  0  0  0  0  0
    6.8516    2.1768   12.2060 H   0  0  0  0  0  0  0  0  0  0  0  0
   -0.4262   14.2643    9.6960 H   0  0  0  0  0  0  0  0  0  0  0  0
    6.7467    4.5227   13.0520 H   0  0  0  0  0  0  0  0  0  0  0  0
    3.0605   11.2071    9.4264 H   0  0  0  0  0  0  0  0  0  0  0  0
   -2.6156   13.5454    9.2684 H   0  0  0  0  0  0  0  0  0  0  0  0
    3.5218    8.5258   13.0520 H   0  0  0  0  0  0  0  0  0  0  0  0
    5.0954    9.4666    9.9842 H   0  0  0  0  0  0  0  0  0  0  0  0
    3.8352    9.6785   12.1781 H   0  0  0  0  0  0  0  0  0  0  0  0
   -1.4353   11.1037    8.4503 H   0  0  0  0  0  0  0  0  0  0  0  0
    5.1060    4.4319   13.2193 H   0  0  0  0  0  0  0  0  0  0  0  0
    1.8019   15.0311   10.4304 H   0  0  0  0  0  0  0  0  0  0  0  0
   -0.4518   12.2363    6.6004 H   0  0  0  0  0  0  0  0  0  0  0  0
    0.6099   14.1609    8.4689 H   0  0  0  0  0  0  0  0  0  0  0  0
   -2.6651   12.2691   10.2352 H   0  0  0  0  0  0  0  0  0  0  0  0
    4.5643   12.7887   10.5606 H   0  0  0  0  0  0  0  0  0  0  0  0
   -1.9879   12.2463    6.5911 H   0  0  0  0  0  0  0  0  0  0  0  0
    5.0158    8.9521   12.9125 H   0  0  0  0  0  0  0  0  0  0  0  0
    5.2139    2.1491   12.3455 H   0  0  0  0  0  0  0  0  0  0  0  0
    5.2220    8.0818    9.2870 H   0  0  0  0  0  0  0  0  0  0  0  0
   -1.2921   13.5454    7.0280 H   0  0  0  0  0  0  0  0  0  0  0  0
    4.2013   14.3349   10.7837 H   0  0  0  0  0  0  0  0  0  0  0  0
    6.1523    1.8237   10.9138 H   0  0  0  0  0  0  0  0  0  0  0  0
    3.4665   13.2932   11.7877 H   0  0  0  0  0  0  0  0  0  0  0  0
  1  3  1  0  0  0  0
  2  5  1  0  0  0  0
  3  9  1  0  0  0  0
  4  1  1  0  0  0  0
  5 44  1  0  0  0  0
  6  2  1  0  0  0  0
  7  1  1  0  0  0  0
  8  2  1  0  0  0  0
  9 10  1  0  0  0  0
 10 11  1  0  0  0  0
 11 12  1  0  0  0  0
 12 13  1  0  0  0  0
 13 14  1  0  0  0  0
 14  9  1  0  0  0  0
 15 10  1  0  0  0  0
 16 15  1  0  0  0  0
 17 15  1  0  0  0  0
 18 13  1  0  0  0  0
 19  4  1  0  0  0  0
 20 19  1  0  0  0  0
 21 20  1  0  0  0  0
 22 20  1  0  0  0  0
 23 19  1  0  0  0  0
 24 23  1  0  0  0  0
 25 23  1  0  0  0  0
 26 19  1  0  0  0  0
 27 26  1  0  0  0  0
 28 26  1  0  0  0  0
 29 20  1  0  0  0  0
 30 29  1  0  0  0  0
 31 23  1  0  0  0  0
 32 31  1  0  0  0  0
 33 26  1  0  0  0  0
 34 33  1  0  0  0  0
 35 29  1  0  0  0  0
 36 35  1  0  0  0  0
 37 35  1  0  0  0  0
 38 29  1  0  0  0  0
 39 38  1  0  0  0  0
 40 38  1  0  0  0  0
 41 31  1  0  0  0  0
 42 41  1  0  0  0  0
 43 41  1  0  0  0  0
 44 45  1  0  0  0  0
 45 46  1  0  0  0  0
 46 47  1  0  0  0  0
 47 48  1  0  0  0  0
 48 49  1  0  0  0  0
 49 44  1  0  0  0  0
 50 45  1  0  0  0  0
 51 50  1  0  0  0  0
 52 50  1  0  0  0  0
 53 48  1  0  0  0  0
 54  6  1  0  0  0  0
 55 54  1  0  0  0  0
 56 55  1  0  0  0  0
 57 55  1  0  0  0  0
 58 54  1  0  0  0  0
 59 58  1  0  0  0  0
 60 58  1  0  0  0  0
 61 54  1  0  0  0  0
 62 61  1  0  0  0  0
 63 61  1  0  0  0  0
 64 55  1  0  0  0  0
 65 64  1  0  0  0  0
 66 58  1  0  0  0  0
 67 66  1  0  0  0  0
 68 61  1  0  0  0  0
 69 68  1  0  0  0  0
 70 64  1  0  0  0  0
 71 70  1  0  0  0  0
 72 70  1  0  0  0  0
 73 64  1  0  0  0  0
 74 73  1  0  0  0  0
 75 73  1  0  0  0  0
 76 66  1  0  0  0  0
 77 76  1  0  0  0  0
 78 76  1  0  0  0  0
 79  7  1  0  0  0  0
 80  7  1  0  0  0  0
 81 79  1  0  0  0  0
 82 79  1  0  0  0  0
 83  7  1  0  0  0  0
 84  7  1  0  0  0  0
 85 80  1  0  0  0  0
 86 81  1  0  0  0  0
 87  8  1  0  0  0  0
 88  8  1  0  0  0  0
 89 79  1  0  0  0  0
 90 80  1  0  0  0  0
 91 81  1  0  0  0  0
 92 82  1  0  0  0  0
 93 83  1  0  0  0  0
 94 84  1  0  0  0  0
 95 85  1  0  0  0  0
 96 86  1  0  0  0  0
 97 87  1  0  0  0  0
 98 88  1  0  0  0  0
 99 44  1  0  0  0  0
100 14  1  0  0  0  0
101 14  1  0  0  0  0
102  9  1  0  0  0  0
103 48  1  0  0  0  0
104 13  1  0  0  0  0
105 10  1  0  0  0  0
106 15  1  0  0  0  0
107 49  1  0  0  0  0
108 11  1  0  0  0  0
109 17  1  0  0  0  0
110 45  1  0  0  0  0
111 52  1  0  0  0  0
112 11  1  0  0  0  0
113 47  1  0  0  0  0
114 18  1  0  0  0  0
115 46  1  0  0  0  0
116 12  1  0  0  0  0
117 49  1  0  0  0  0
118 52  1  0  0  0  0
119 16  1  0  0  0  0
120 17  1  0  0  0  0
121 16  1  0  0  0  0
122 50  1  0  0  0  0
123 12  1  0  0  0  0
124 47  1  0  0  0  0
125 51  1  0  0  0  0
126 46  1  0  0  0  0
127 52  1  0  0  0  0
128 53  1  0  0  0  0
129 51  1  0  0  0  0
130 16  1  0  0  0  0
131 18  1  0  0  0  0
132 17  1  0  0  0  0
133 51  1  0  0  0  0
134 53  1  0  0  0  0
135 18  1  0  0  0  0
136 53  1  0  0  0  0
  7  8  1  0  0  0  0
  8 83  1  0  0  0  0
  8 84  1  0  0  0  0
 31 35  1  0  0  0  0
 33 38  1  0  0  0  0
 33 41  1  0  0  0  0
 66 70  1  0  0  0  0
 68 73  1  0  0  0  0
 68 76  1  0  0  0  0
 79 80  1  0  0  0  0
 79 83  1  0  0  0  0
 80 81  1  0  0  0  0
 80 84  1  0  0  0  0
 81 82  1  0  0  0  0
 81 85  1  0  0  0  0
 82 83  1  0  0  0  0
 82 86  1  0  0  0  0
 82 87  1  0  0  0  0
 83 87  1  0  0  0  0
 84 85  1  0  0  0  0
 84 88  1  0  0  0  0
 85 86  1  0  0  0  0
 85 88  1  0  0  0  0
 86 87  1  0  0  0  0
 86 88  1  0  0  0  0
 87 88  1  0  0  0  0
M  END
$$$$
XULXEI

From CSD data. Using bond type 'Any'. No disordered atoms. Largest molecule.
122135  0  0  0  0  0  0  0  0999 V2000
    8.7968   16.2563   -1.1778 Fe  0  3  0  0  0  0  0  0  0  0  0  0
    9.7767   17.1086    0.5591 P   0  0  0  0  0  0  0  0  0  0  0  0
   10.6693   18.7045    0.2518 C   0  0  0  0  0  0  0  0  0  0  0  0
    8.6848   17.5314    1.9568 C   0  0  0  0  0  0  0  0  0  0  0  0
   11.0953   16.1075    1.3261 C   0  0  0  0  0  0  0  0  0  0  0  0
    8.6185   15.0034   -2.8218 C   0  0  0  0  0  0  0  0  0  0  0  0
    8.7449   16.3311   -3.2480 C   0  0  0  0  0  0  0  0  0  0  0  0
    9.9714   16.8233   -2.8317 C   0  0  0  0  0  0  0  0  0  0  0  0
   10.6343   15.7983   -2.1288 C   0  0  0  0  0  0  0  0  0  0  0  0
    9.7833   14.6615   -2.1313 C   0  0  0  0  0  0  0  0  0  0  0  0
    7.4813   17.4081   -0.9722 C   0  0  0  0  0  0  0  0  0  0  0  0
    6.6079   18.1434   -0.8076 O   0  0  0  0  0  0  0  0  0  0  0  0
    7.7981   15.0744   -0.2019 B   0  0  0  0  0  0  0  0  0  0  0  0
    6.9369   14.2056    0.3527 N   0  0  0  0  0  0  0  0  0  0  0  0
    7.3560   13.0753    1.2389 C   0  0  0  0  0  0  0  0  0  0  0  0
    8.7268   13.2919    1.8197 C   0  0  0  0  0  0  0  0  0  0  0  0
    9.1021   12.1485    2.7619 C   0  0  0  0  0  0  0  0  0  0  0  0
    9.0182   10.8043    2.0839 C   0  0  0  0  0  0  0  0  0  0  0  0
    7.6384   10.6157    1.4732 C   0  0  0  0  0  0  0  0  0  0  0  0
    7.2923   11.7469    0.5235 C   0  0  0  0  0  0  0  0  0  0  0  0
    5.4596   14.2982    0.0947 C   0  0  0  0  0  0  0  0  0  0  0  0
    5.1270   14.6424   -1.3436 C   0  0  0  0  0  0  0  0  0  0  0  0
    3.6216   14.7314   -1.5405 C   0  0  0  0  0  0  0  0  0  0  0  0
    2.9880   15.7103   -0.6132 C   0  0  0  0  0  0  0  0  0  0  0  0
    3.3270   15.4057    0.8500 C   0  0  0  0  0  0  0  0  0  0  0  0
    4.8223   15.3041    1.0494 C   0  0  0  0  0  0  0  0  0  0  0  0
   11.0606   18.9976    1.0843 H   0  0  0  0  0  0  0  0  0  0  0  0
   11.3722   18.5493   -0.4013 H   0  0  0  0  0  0  0  0  0  0  0  0
    8.3806   16.7181    2.3731 H   0  0  0  0  0  0  0  0  0  0  0  0
    9.1566   18.0633    2.6024 H   0  0  0  0  0  0  0  0  0  0  0  0
    7.9284   18.0200    1.6253 H   0  0  0  0  0  0  0  0  0  0  0  0
   10.7684   15.2250    1.5006 H   0  0  0  0  0  0  0  0  0  0  0  0
   11.3577   16.5348    2.1462 H   0  0  0  0  0  0  0  0  0  0  0  0
   11.8480   16.0656    0.7329 H   0  0  0  0  0  0  0  0  0  0  0  0
    7.8663   14.4059   -3.0162 H   0  0  0  0  0  0  0  0  0  0  0  0
    8.0732   16.8245   -3.7640 H   0  0  0  0  0  0  0  0  0  0  0  0
   10.3294   17.7214   -3.0162 H   0  0  0  0  0  0  0  0  0  0  0  0
   11.5287   15.8527   -1.7200 H   0  0  0  0  0  0  0  0  0  0  0  0
    9.9831   13.7828   -1.7424 H   0  0  0  0  0  0  0  0  0  0  0  0
    6.7244   13.0365    1.9867 H   0  0  0  0  0  0  0  0  0  0  0  0
    8.7458   14.1387    2.3033 H   0  0  0  0  0  0  0  0  0  0  0  0
    9.3689   13.3090    1.0868 H   0  0  0  0  0  0  0  0  0  0  0  0
   10.0082   12.2902    3.0735 H   0  0  0  0  0  0  0  0  0  0  0  0
    8.4860   12.1741    3.5123 H   0  0  0  0  0  0  0  0  0  0  0  0
    9.6921   10.7457    1.3934 H   0  0  0  0  0  0  0  0  0  0  0  0
    9.1720   10.1129    2.7495 H   0  0  0  0  0  0  0  0  0  0  0  0
    6.9637   10.5726    2.1811 H   0  0  0  0  0  0  0  0  0  0  0  0
    7.6475    9.7819    0.9772 H   0  0  0  0  0  0  0  0  0  0  0  0
    7.9384   11.7655   -0.1994 H   0  0  0  0  0  0  0  0  0  0  0  0
    6.3995   11.6108    0.1620 H   0  0  0  0  0  0  0  0  0  0  0  0
    5.0645   13.4308    0.3066 H   0  0  0  0  0  0  0  0  0  0  0  0
    5.5407   15.4948   -1.5654 H   0  0  0  0  0  0  0  0  0  0  0  0
    5.4865   13.9443   -1.9194 H   0  0  0  0  0  0  0  0  0  0  0  0
    3.4521   15.0026   -2.4553 H   0  0  0  0  0  0  0  0  0  0  0  0
    3.2388   13.8523   -1.3785 H   0  0  0  0  0  0  0  0  0  0  0  0
    3.3175   16.5888   -0.8376 H   0  0  0  0  0  0  0  0  0  0  0  0
    2.0252   15.6772   -0.7354 H   0  0  0  0  0  0  0  0  0  0  0  0
    2.9809   16.1247    1.4084 H   0  0  0  0  0  0  0  0  0  0  0  0
    2.9259   14.5683    1.1093 H   0  0  0  0  0  0  0  0  0  0  0  0
    5.2144   16.1648    0.8625 H   0  0  0  0  0  0  0  0  0  0  0  0
    5.0167   15.0436    1.9618 H   0  0  0  0  0  0  0  0  0  0  0  0
   11.6258   22.2513    1.1778 Fe  0  3  0  0  0  0  0  0  0  0  0  0
   10.6459   21.3989   -0.5591 P   0  0  0  0  0  0  0  0  0  0  0  0
    9.7533   19.8030   -0.2518 C   0  0  0  0  0  0  0  0  0  0  0  0
   11.7378   20.9761   -1.9568 C   0  0  0  0  0  0  0  0  0  0  0  0
    9.3273   22.4001   -1.3261 C   0  0  0  0  0  0  0  0  0  0  0  0
   11.8042   23.5041    2.8218 C   0  0  0  0  0  0  0  0  0  0  0  0
   11.6777   22.1764    3.2480 C   0  0  0  0  0  0  0  0  0  0  0  0
   10.4513   21.6843    2.8317 C   0  0  0  0  0  0  0  0  0  0  0  0
    9.7883   22.7092    2.1288 C   0  0  0  0  0  0  0  0  0  0  0  0
   10.6393   23.8460    2.1313 C   0  0  0  0  0  0  0  0  0  0  0  0
   12.9413   21.0994    0.9722 C   0  0  0  0  0  0  0  0  0  0  0  0
   13.8148   20.3641    0.8076 O   0  0  0  0  0  0  0  0  0  0  0  0
   12.6246   23.4331    0.2019 B   0  0  0  0  0  0  0  0  0  0  0  0
   13.4858   24.3020   -0.3527 N   0  0  0  0  0  0  0  0  0  0  0  0
   13.0666   25.4322   -1.2389 C   0  0  0  0  0  0  0  0  0  0  0  0
   11.6958   25.2156   -1.8197 C   0  0  0  0  0  0  0  0  0  0  0  0
   11.3206   26.3590   -2.7619 C   0  0  0  0  0  0  0  0  0  0  0  0
   11.4045   27.7032   -2.0839 C   0  0  0  0  0  0  0  0  0  0  0  0
   12.7842   27.8918   -1.4732 C   0  0  0  0  0  0  0  0  0  0  0  0
   13.1303   26.7606   -0.5235 C   0  0  0  0  0  0  0  0  0  0  0  0
   14.9630   24.2093   -0.0947 C   0  0  0  0  0  0  0  0  0  0  0  0
   15.2956   23.8651    1.3436 C   0  0  0  0  0  0  0  0  0  0  0  0
   16.8011   23.7761    1.5405 C   0  0  0  0  0  0  0  0  0  0  0  0
   17.4346   22.7972    0.6132 C   0  0  0  0  0  0  0  0  0  0  0  0
   17.0956   23.1018   -0.8500 C   0  0  0  0  0  0  0  0  0  0  0  0
   15.6003   23.2034   -1.0494 C   0  0  0  0  0  0  0  0  0  0  0  0
    9.3621   19.5099   -1.0843 H   0  0  0  0  0  0  0  0  0  0  0  0
    9.0504   19.9582    0.4013 H   0  0  0  0  0  0  0  0  0  0  0  0
   12.0421   21.7894   -2.3731 H   0  0  0  0  0  0  0  0  0  0  0  0
   11.2660   20.4442   -2.6024 H   0  0  0  0  0  0  0  0  0  0  0  0
   12.4943   20.4875   -1.6253 H   0  0  0  0  0  0  0  0  0  0  0  0
    9.6542   23.2825   -1.5006 H   0  0  0  0  0  0  0  0  0  0  0  0
    9.0649   21.9727   -2.1462 H   0  0  0  0  0  0  0  0  0  0  0  0
    8.5746   22.4420   -0.7329 H   0  0  0  0  0  0  0  0  0  0  0  0
   12.5564   24.1016    3.0162 H   0  0  0  0  0  0  0  0  0  0  0  0
   12.3495   21.6830    3.7640 H   0  0  0  0  0  0  0  0  0  0  0  0
   10.0932   20.7861    3.0162 H   0  0  0  0  0  0  0  0  0  0  0  0
    8.8939   22.6548    1.7200 H   0  0  0  0  0  0  0  0  0  0  0  0
   10.4395   24.7247    1.7424 H   0  0  0  0  0  0  0  0  0  0  0  0
   13.6982   25.4711   -1.9867 H   0  0  0  0  0  0  0  0  0  0  0  0
   11.6769   24.3688   -2.3033 H   0  0  0  0  0  0  0  0  0  0  0  0
   11.0537   25.1985   -1.0868 H   0  0  0  0  0  0  0  0  0  0  0  0
   10.4144   26.2173   -3.0735 H   0  0  0  0  0  0  0  0  0  0  0  0
   11.9366   26.3334   -3.5123 H   0  0  0  0  0  0  0  0  0  0  0  0
   10.7305   27.7618   -1.3934 H   0  0  0  0  0  0  0  0  0  0  0  0
   11.2506   28.3946   -2.7495 H   0  0  0  0  0  0  0  0  0  0  0  0
   13.4589   27.9349   -2.1811 H   0  0  0  0  0  0  0  0  0  0  0  0
   12.7751   28.7257   -0.9772 H   0  0  0  0  0  0  0  0  0  0  0  0
   12.4843   26.7420    0.1994 H   0  0  0  0  0  0  0  0  0  0  0  0
   14.0231   26.8967   -0.1620 H   0  0  0  0  0  0  0  0  0  0  0  0
   15.3581   25.0767   -0.3066 H   0  0  0  0  0  0  0  0  0  0  0  0
   14.8820   23.0128    1.5654 H   0  0  0  0  0  0  0  0  0  0  0  0
   14.9362   24.5632    1.9194 H   0  0  0  0  0  0  0  0  0  0  0  0
   16.9705   23.5050    2.4553 H   0  0  0  0  0  0  0  0  0  0  0  0
   17.1839   24.6552    1.3785 H   0  0  0  0  0  0  0  0  0  0  0  0
   17.1051   21.9187    0.8376 H   0  0  0  0  0  0  0  0  0  0  0  0
   18.3975   22.8303    0.7354 H   0  0  0  0  0  0  0  0  0  0  0  0
   17.4417   22.3828   -1.4084 H   0  0  0  0  0  0  0  0  0  0  0  0
   17.4968   23.9392   -1.1093 H   0  0  0  0  0  0  0  0  0  0  0  0
   15.2082   22.3427   -0.8625 H   0  0  0  0  0  0  0  0  0  0  0  0
   15.4060   23.4639   -1.9618 H   0  0  0  0  0  0  0  0  0  0  0  0
  1  2  1  0  0  0  0
  2  3  1  0  0  0  0
  3 27  1  0  0  0  0
  4  2  1  0  0  0  0
  5  2  1  0  0  0  0
  6  1  8  0  0  0  0
  7  1  8  0  0  0  0
  8  1  8  0  0  0  0
  9  1  8  0  0  0  0
 10  1  8  0  0  0  0
 11  1  1  0  0  0  0
 12 11  3  0  0  0  0
 13  1  2  0  0  0  0
 14 13  2  0  0  0  0
 15 14  1  0  0  0  0
 16 15  1  0  0  0  0
 17 16  1  0  0  0  0
 18 17  1  0  0  0  0
 19 18  1  0  0  0  0
 20 15  1  0  0  0  0
 21 14  1  0  0  0  0
 22 21  1  0  0  0  0
 23 22  1  0  0  0  0
 24 23  1  0  0  0  0
 25 24  1  0  0  0  0
 26 21  1  0  0  0  0
 28  3  1  0  0  0  0
 29  4  1  0  0  0  0
 30  4  1  0  0  0  0
 31  4  1  0  0  0  0
 32  5  1  0  0  0  0
 33  5  1  0  0  0  0
 34  5  1  0  0  0  0
 35  6  1  0  0  0  0
 36  7  1  0  0  0  0
 37  8  1  0  0  0  0
 38  9  1  0  0  0  0
 39 10  1  0  0  0  0
 40 15  1  0  0  0  0
 41 16  1  0  0  0  0
 42 16  1  0  0  0  0
 43 17  1  0  0  0  0
 44 17  1  0  0  0  0
 45 18  1  0  0  0  0
 46 18  1  0  0  0  0
 47 19  1  0  0  0  0
 48 19  1  0  0  0  0
 49 20  1  0  0  0  0
 50 20  1  0  0  0  0
 51 21  1  0  0  0  0
 52 22  1  0  0  0  0
 53 22  1  0  0  0  0
 54 23  1  0  0  0  0
 55 23  1  0  0  0  0
 56 24  1  0  0  0  0
 57 24  1  0  0  0  0
 58 25  1  0  0  0  0
 59 25  1  0  0  0  0
 60 26  1  0  0  0  0
 61 26  1  0  0  0  0
 62 63  1  0  0  0  0
 63 64  1  0  0  0  0
 64  3  1  0  0  0  0
 65 63  1  0  0  0  0
 66 63  1  0  0  0  0
 67 62  8  0  0  0  0
 68 62  8  0  0  0  0
 69 62  8  0  0  0  0
 70 62  8  0  0  0  0
 71 62  8  0  0  0  0
 72 62  1  0  0  0  0
 73 72  3  0  0  0  0
 74 62  2  0  0  0  0
 75 74  2  0  0  0  0
 76 75  1  0  0  0  0
 77 76  1  0  0  0  0
 78 77  1  0  0  0  0
 79 78  1  0  0  0  0
 80 79  1  0  0  0  0
 81 76  1  0  0  0  0
 82 75  1  0  0  0  0
 83 82  1  0  0  0  0
 84 83  1  0  0  0  0
 85 84  1  0  0  0  0
 86 85  1  0  0  0  0
 87 82  1  0  0  0  0
 88 64  1  0  0  0  0
 89 64  1  0  0  0  0
 90 65  1  0  0  0  0
 91 65  1  0  0  0  0
 92 65  1  0  0  0  0
 93 66  1  0  0  0  0
 94 66  1  0  0  0  0
 95 66  1  0  0  0  0
 96 67  1  0  0  0  0
 97 68  1  0  0  0  0
 98 69  1  0  0  0  0
 99 70  1  0  0  0  0
100 71  1  0  0  0  0
101 76  1  0  0  0  0
102 77  1  0  0  0  0
103 77  1  0  0  0  0
104 78  1  0  0  0  0
105 78  1  0  0  0  0
106 79  1  0  0  0  0
107 79  1  0  0  0  0
108 80  1  0  0  0  0
109 80  1  0  0  0  0
110 81  1  0  0  0  0
111 81  1  0  0  0  0
112 82  1  0  0  0  0
113 83  1  0  0  0  0
114 83  1  0  0  0  0
115 84  1  0  0  0  0
116 84  1  0  0  0  0
117 85  1  0  0  0  0
118 85  1  0  0  0  0
119 86  1  0  0  0  0
120 86  1  0  0  0  0
121 87  1  0  0  0  0
122 87  1  0  0  0  0
  6  7  4  0  0  0  0
  6 10  4  0  0  0  0
  7  8  4  0  0  0  0
  8  9  4  0  0  0  0
  9 10  4  0  0  0  0
 19 20  1  0  0  0  0
 25 26  1  0  0  0  0
 67 68  4  0  0  0  0
 67 71  4  0  0  0  0
 68 69  4  0  0  0  0
 69 70  4  0  0  0  0
 70 71  4  0  0  0  0
 80 81  1  0  0  0  0
 86 87  1  0  0  0  0
M  CHG  2   1   1  62   1
M  END
$$$$
YACVUV

From CSD data. Using bond type 'Any'. No disordered atoms. Largest molecule.
 96103  0  0  0  0  0  0  0  0999 V2000
    6.7388    3.9810   12.8464 Pd  0  3  0  0  0  0  0  0  0  0  0  0
    6.6703    2.0238   11.6882 P   0  0  0  0  0  0  0  0  0  0  0  0
    7.0823    6.2207   13.1639 P   0  0  0  0  0  0  0  0  0  0  0  0
    4.2330    3.9855   14.4579 O   0  0  0  0  0  0  0  0  0  0  0  0
    3.7626    3.9322   12.2075 O   0  0  0  0  0  0  0  0  0  0  0  0
    8.7015    2.7624   14.8575 O   0  0  0  0  0  0  0  0  0  0  0  0
    9.7911    4.7941   14.7941 O   0  0  0  0  0  0  0  0  0  0  0  0
    8.9759    3.8499   12.6271 N   0  0  0  0  0  0  0  0  0  0  0  0
    4.7763    3.9835   13.1634 B   0  0  0  0  0  0  0  0  0  0  0  0
    9.1527    3.8099   14.0741 B   0  0  0  0  0  0  0  0  0  0  0  0
    2.8568    3.9153   14.2773 C   0  0  0  0  0  0  0  0  0  0  0  0
    2.5780    3.8719   12.9241 C   0  0  0  0  0  0  0  0  0  0  0  0
    1.2877    3.7769   12.4441 C   0  0  0  0  0  0  0  0  0  0  0  0
    0.2763    3.7437   13.3956 C   0  0  0  0  0  0  0  0  0  0  0  0
    0.5536    3.8048   14.7546 C   0  0  0  0  0  0  0  0  0  0  0  0
    1.8649    3.8963   15.2342 C   0  0  0  0  0  0  0  0  0  0  0  0
    9.0419    3.1528   16.1517 C   0  0  0  0  0  0  0  0  0  0  0  0
    9.6975    4.3578   16.1156 C   0  0  0  0  0  0  0  0  0  0  0  0
   10.1613    4.9939   17.2446 C   0  0  0  0  0  0  0  0  0  0  0  0
    9.9032    4.3323   18.4507 C   0  0  0  0  0  0  0  0  0  0  0  0
    9.2259    3.1321   18.4871 C   0  0  0  0  0  0  0  0  0  0  0  0
    8.7704    2.4950   17.3331 C   0  0  0  0  0  0  0  0  0  0  0  0
    9.3922    2.5571   12.0499 C   0  0  0  0  0  0  0  0  0  0  0  0
   10.7444    2.2200   12.0691 C   0  0  0  0  0  0  0  0  0  0  0  0
   11.1559    0.9764   11.6175 C   0  0  0  0  0  0  0  0  0  0  0  0
   10.2408    0.0271   11.1807 C   0  0  0  0  0  0  0  0  0  0  0  0
    8.8919    0.3619   11.1993 C   0  0  0  0  0  0  0  0  0  0  0  0
    8.4484    1.6159   11.6300 C   0  0  0  0  0  0  0  0  0  0  0  0
   10.7020   -1.3316   10.7294 C   0  0  0  0  0  0  0  0  0  0  0  0
    9.3869    5.1066   11.9743 C   0  0  0  0  0  0  0  0  0  0  0  0
   10.4818    5.1599   11.1247 C   0  0  0  0  0  0  0  0  0  0  0  0
   10.8831    6.3720   10.5664 C   0  0  0  0  0  0  0  0  0  0  0  0
   10.2168    7.5523   10.8438 C   0  0  0  0  0  0  0  0  0  0  0  0
    9.1008    7.4886   11.6779 C   0  0  0  0  0  0  0  0  0  0  0  0
    8.6576    6.2858   12.2355 C   0  0  0  0  0  0  0  0  0  0  0  0
   10.6555    8.8701   10.2596 C   0  0  0  0  0  0  0  0  0  0  0  0
    6.2027    2.3442    9.9325 C   0  0  0  0  0  0  0  0  0  0  0  0
    6.2203    1.1041    9.0390 C   0  0  0  0  0  0  0  0  0  0  0  0
    7.1192    3.4362    9.3745 C   0  0  0  0  0  0  0  0  0  0  0  0
    5.8248    0.5022   12.2585 C   0  0  0  0  0  0  0  0  0  0  0  0
    6.2055    0.2223   13.7072 C   0  0  0  0  0  0  0  0  0  0  0  0
    4.3074    0.6276   12.0887 C   0  0  0  0  0  0  0  0  0  0  0  0
    5.9396    7.3290   12.2409 C   0  0  0  0  0  0  0  0  0  0  0  0
    5.7453    6.8410   10.8054 C   0  0  0  0  0  0  0  0  0  0  0  0
    4.5962    7.4291   12.9744 C   0  0  0  0  0  0  0  0  0  0  0  0
    7.4119    6.9901   14.8167 C   0  0  0  0  0  0  0  0  0  0  0  0
    7.4189    8.5181   14.8170 C   0  0  0  0  0  0  0  0  0  0  0  0
    6.4702    6.4030   15.8729 C   0  0  0  0  0  0  0  0  0  0  0  0
    1.1012    3.7440   11.5135 H   0  0  0  0  0  0  0  0  0  0  0  0
   -0.6259    3.6549   13.1101 H   0  0  0  0  0  0  0  0  0  0  0  0
   -0.1667    3.8035   15.3750 H   0  0  0  0  0  0  0  0  0  0  0  0
    2.0646    3.9373   16.1615 H   0  0  0  0  0  0  0  0  0  0  0  0
   10.6294    5.8200   17.2146 H   0  0  0  0  0  0  0  0  0  0  0  0
   10.2098    4.7151   19.2635 H   0  0  0  0  0  0  0  0  0  0  0  0
    9.0427    2.7399   19.3310 H   0  0  0  0  0  0  0  0  0  0  0  0
    8.3197    1.6581   17.3597 H   0  0  0  0  0  0  0  0  0  0  0  0
   11.3835    2.8440   12.3945 H   0  0  0  0  0  0  0  0  0  0  0  0
   12.0848    0.7795   11.5945 H   0  0  0  0  0  0  0  0  0  0  0  0
    8.2505   -0.2758   10.9093 H   0  0  0  0  0  0  0  0  0  0  0  0
    9.9483   -1.8530   10.4806 H   0  0  0  0  0  0  0  0  0  0  0  0
   11.2794   -1.2320    9.9811 H   0  0  0  0  0  0  0  0  0  0  0  0
   11.1693   -1.7655   11.4325 H   0  0  0  0  0  0  0  0  0  0  0  0
   10.9617    4.3650   10.9194 H   0  0  0  0  0  0  0  0  0  0  0  0
   11.6317    6.3882    9.9811 H   0  0  0  0  0  0  0  0  0  0  0  0
    8.6245    8.2874   11.8781 H   0  0  0  0  0  0  0  0  0  0  0  0
   11.2618    8.7152    9.5457 H   0  0  0  0  0  0  0  0  0  0  0  0
    9.8983    9.3444    9.9372 H   0  0  0  0  0  0  0  0  0  0  0  0
   11.0856    9.3824   10.9329 H   0  0  0  0  0  0  0  0  0  0  0  0
    5.3157    2.6854    9.9338 H   0  0  0  0  0  0  0  0  0  0  0  0
    5.9246    1.3411    8.1685 H   0  0  0  0  0  0  0  0  0  0  0  0
    5.6466    0.4377    9.3971 H   0  0  0  0  0  0  0  0  0  0  0  0
    7.1073    0.7663    8.9921 H   0  0  0  0  0  0  0  0  0  0  0  0
    8.0077    3.1049    9.3263 H   0  0  0  0  0  0  0  0  0  0  0  0
    7.0938    4.1982    9.9406 H   0  0  0  0  0  0  0  0  0  0  0  0
    6.8250    3.6796    8.5027 H   0  0  0  0  0  0  0  0  0  0  0  0
    6.1265   -0.2246   11.7295 H   0  0  0  0  0  0  0  0  0  0  0  0
    5.8986    0.9348   14.2544 H   0  0  0  0  0  0  0  0  0  0  0  0
    7.1488    0.1470   13.7818 H   0  0  0  0  0  0  0  0  0  0  0  0
    5.7997   -0.5896   13.9877 H   0  0  0  0  0  0  0  0  0  0  0  0
    4.1148    0.8010   11.1760 H   0  0  0  0  0  0  0  0  0  0  0  0
    3.8849   -0.1817   12.3540 H   0  0  0  0  0  0  0  0  0  0  0  0
    3.9835    1.3444   12.6240 H   0  0  0  0  0  0  0  0  0  0  0  0
    6.3293    8.1949   12.2122 H   0  0  0  0  0  0  0  0  0  0  0  0
    6.5910    6.7845   10.3760 H   0  0  0  0  0  0  0  0  0  0  0  0
    5.3347    5.9852   10.8114 H   0  0  0  0  0  0  0  0  0  0  0  0
    5.1919    7.4551   10.3355 H   0  0  0  0  0  0  0  0  0  0  0  0
    4.0346    8.0480   12.5228 H   0  0  0  0  0  0  0  0  0  0  0  0
    4.7495    7.7292   13.8628 H   0  0  0  0  0  0  0  0  0  0  0  0
    4.1758    6.5781   12.9953 H   0  0  0  0  0  0  0  0  0  0  0  0
    8.2878    6.7201   15.0678 H   0  0  0  0  0  0  0  0  0  0  0  0
    7.6919    8.8341   15.6720 H   0  0  0  0  0  0  0  0  0  0  0  0
    8.0237    8.8324   14.1565 H   0  0  0  0  0  0  0  0  0  0  0  0
    6.5449    8.8374   14.6256 H   0  0  0  0  0  0  0  0  0  0  0  0
    5.5840    6.6953   15.6956 H   0  0  0  0  0  0  0  0  0  0  0  0
    6.5061    5.4550   15.8307 H   0  0  0  0  0  0  0  0  0  0  0  0
    6.7314    6.6904   16.7387 H   0  0  0  0  0  0  0  0  0  0  0  0
  1  2  1  0  0  0  0
  2 28  1  0  0  0  0
  3  1  1  0  0  0  0
  4  9  1  0  0  0  0
  5  9  1  0  0  0  0
  6 10  1  0  0  0  0
  7 10  1  0  0  0  0
  8  1  1  0  0  0  0
  9  1  1  0  0  0  0
 10  8  1  0  0  0  0
 11  4  1  0  0  0  0
 12  5  1  0  0  0  0
 13 12  4  0  0  0  0
 14 13  4  0  0  0  0
 15 14  4  0  0  0  0
 16 11  4  0  0  0  0
 17  6  1  0  0  0  0
 18  7  1  0  0  0  0
 19 18  4  0  0  0  0
 20 19  4  0  0  0  0
 21 20  4  0  0  0  0
 22 17  4  0  0  0  0
 23  8  1  0  0  0  0
 24 23  4  0  0  0  0
 25 24  4  0  0  0  0
 26 25  4  0  0  0  0
 27 26  4  0  0  0  0
 28 23  4  0  0  0  0
 29 26  1  0  0  0  0
 30  8  1  0  0  0  0
 31 30  4  0  0  0  0
 32 31  4  0  0  0  0
 33 32  4  0  0  0  0
 34 33  4  0  0  0  0
 35  3  1  0  0  0  0
 36 33  1  0  0  0  0
 37  2  1  0  0  0  0
 38 37  1  0  0  0  0
 39 37  1  0  0  0  0
 40  2  1  0  0  0  0
 41 40  1  0  0  0  0
 42 40  1  0  0  0  0
 43  3  1  0  0  0  0
 44 43  1  0  0  0  0
 45 43  1  0  0  0  0
 46  3  1  0  0  0  0
 47 46  1  0  0  0  0
 48 46  1  0  0  0  0
 49 13  1  0  0  0  0
 50 14  1  0  0  0  0
 51 15  1  0  0  0  0
 52 16  1  0  0  0  0
 53 19  1  0  0  0  0
 54 20  1  0  0  0  0
 55 21  1  0  0  0  0
 56 22  1  0  0  0  0
 57 24  1  0  0  0  0
 58 25  1  0  0  0  0
 59 27  1  0  0  0  0
 60 29  1  0  0  0  0
 61 29  1  0  0  0  0
 62 29  1  0  0  0  0
 63 31  1  0  0  0  0
 64 32  1  0  0  0  0
 65 34  1  0  0  0  0
 66 36  1  0  0  0  0
 67 36  1  0  0  0  0
 68 36  1  0  0  0  0
 69 37  1  0  0  0  0
 70 38  1  0  0  0  0
 71 38  1  0  0  0  0
 72 38  1  0  0  0  0
 73 39  1  0  0  0  0
 74 39  1  0  0  0  0
 75 39  1  0  0  0  0
 76 40  1  0  0  0  0
 77 41  1  0  0  0  0
 78 41  1  0  0  0  0
 79 41  1  0  0  0  0
 80 42  1  0  0  0  0
 81 42  1  0  0  0  0
 82 42  1  0  0  0  0
 83 43  1  0  0  0  0
 84 44  1  0  0  0  0
 85 44  1  0  0  0  0
 86 44  1  0  0  0  0
 87 45  1  0  0  0  0
 88 45  1  0  0  0  0
 89 45  1  0  0  0  0
 90 46  1  0  0  0  0
 91 47  1  0  0  0  0
 92 47  1  0  0  0  0
 93 47  1  0  0  0  0
 94 48  1  0  0  0  0
 95 48  1  0  0  0  0
 96 48  1  0  0  0  0
 11 12  4  0  0  0  0
 15 16  4  0  0  0  0
 17 18  4  0  0  0  0
 21 22  4  0  0  0  0
 27 28  4  0  0  0  0
 30 35  4  0  0  0  0
 34 35  4  0  0  0  0
M  CHG  1   1   1
M  END
$$$$
YAGNUP

From CSD data. Using bond type 'Any'. No disordered atoms. Largest molecule.
 84129  0  0  0  0  0  0  0  0999 V2000
    3.8245   -0.0765    6.5058 Au  0  0  0  0  0  0  0  0  0  0  0  0
    4.0425    1.7486    4.3952 W   0  0  0  0  0  0  0  0  0  0  0  0
    2.9291   -1.5617    8.0033 P   0  0  0  0  0  0  0  0  0  0  0  0
    2.7878    2.7892    2.6045 C   0  0  0  0  0  0  0  0  0  0  0  0
    3.2256    2.1252    1.2670 C   0  0  0  0  0  0  0  0  0  0  0  0
    1.7501    2.0728    3.6457 C   0  0  0  0  0  0  0  0  0  0  0  0
    1.1559    0.6768    3.2960 C   0  0  0  0  0  0  0  0  0  0  0  0
    1.9650    2.6193    5.2184 B   0  0  0  0  0  0  0  0  0  0  0  0
    3.2146    3.8936    5.1604 B   0  0  0  0  0  0  0  0  0  0  0  0
    3.7361    3.9120    3.4701 B   0  0  0  0  0  0  0  0  0  0  0  0
    2.4064    4.4359    2.4759 B   0  0  0  0  0  0  0  0  0  0  0  0
    1.1264    3.2805    2.5559 B   0  0  0  0  0  0  0  0  0  0  0  0
    0.6033    3.2012    4.2353 B   0  0  0  0  0  0  0  0  0  0  0  0
    1.5172    4.3254    5.1651 B   0  0  0  0  0  0  0  0  0  0  0  0
    2.6209    5.1084    4.0769 B   0  0  0  0  0  0  0  0  0  0  0  0
    1.0386    4.7190    3.5359 B   0  0  0  0  0  0  0  0  0  0  0  0
    4.0276   -0.0949    3.6865 C   0  0  0  0  0  0  0  0  0  0  0  0
    3.9590   -1.1695    3.2239 O   0  0  0  0  0  0  0  0  0  0  0  0
    5.8084    1.8859    3.4685 C   0  0  0  0  0  0  0  0  0  0  0  0
    6.8203    1.9610    2.9416 O   0  0  0  0  0  0  0  0  0  0  0  0
    5.2339    1.4541    5.8080 C   0  0  0  0  0  0  0  0  0  0  0  0
    6.2763    1.6452    6.7661 C   0  0  0  0  0  0  0  0  0  0  0  0
    6.0416    2.0261    8.0660 C   0  0  0  0  0  0  0  0  0  0  0  0
    7.0795    2.2016    8.9801 C   0  0  0  0  0  0  0  0  0  0  0  0
    8.3758    2.0303    8.5866 C   0  0  0  0  0  0  0  0  0  0  0  0
    8.6089    1.6750    7.2804 C   0  0  0  0  0  0  0  0  0  0  0  0
    7.5806    1.4569    6.3913 C   0  0  0  0  0  0  0  0  0  0  0  0
    9.5035    2.2243    9.5462 C   0  0  0  0  0  0  0  0  0  0  0  0
    2.5380   -3.2126    7.3855 C   0  0  0  0  0  0  0  0  0  0  0  0
    1.7970   -4.0734    8.1585 C   0  0  0  0  0  0  0  0  0  0  0  0
    1.5598   -5.3717    7.7759 C   0  0  0  0  0  0  0  0  0  0  0  0
    2.0659   -5.8036    6.5763 C   0  0  0  0  0  0  0  0  0  0  0  0
    2.8087   -4.9399    5.7955 C   0  0  0  0  0  0  0  0  0  0  0  0
    3.0189   -3.6543    6.1922 C   0  0  0  0  0  0  0  0  0  0  0  0
    4.0623   -1.7712    9.3957 C   0  0  0  0  0  0  0  0  0  0  0  0
    4.4976   -0.6697   10.0825 C   0  0  0  0  0  0  0  0  0  0  0  0
    5.3986   -0.7178   11.0892 C   0  0  0  0  0  0  0  0  0  0  0  0
    5.9067   -1.9213   11.4890 C   0  0  0  0  0  0  0  0  0  0  0  0
    5.4809   -3.0568   10.8398 C   0  0  0  0  0  0  0  0  0  0  0  0
    4.5721   -2.9917    9.7877 C   0  0  0  0  0  0  0  0  0  0  0  0
    1.3875   -0.8623    8.6932 C   0  0  0  0  0  0  0  0  0  0  0  0
    0.3938   -0.5409    7.6144 C   0  0  0  0  0  0  0  0  0  0  0  0
   -0.6204    0.5409    8.0660 C   0  0  0  0  0  0  0  0  0  0  0  0
   -1.6142    0.8623    6.9872 C   0  0  0  0  0  0  0  0  0  0  0  0
   -3.1557    1.5617    7.6771 P   0  0  0  0  0  0  0  0  0  0  0  0
   -4.0511    0.0765    9.1746 Au  0  0  0  0  0  0  0  0  0  0  0  0
   -2.7646    3.2126    8.2949 C   0  0  0  0  0  0  0  0  0  0  0  0
   -4.2889    1.7712    6.2847 C   0  0  0  0  0  0  0  0  0  0  0  0
   -4.2691   -1.7486   11.2852 W   0  0  0  0  0  0  0  0  0  0  0  0
   -5.4605   -1.4541    9.8724 C   0  0  0  0  0  0  0  0  0  0  0  0
   -2.0236    4.0734    7.5219 C   0  0  0  0  0  0  0  0  0  0  0  0
   -3.2455    3.6543    9.4882 C   0  0  0  0  0  0  0  0  0  0  0  0
   -4.7242    0.6697    5.5979 C   0  0  0  0  0  0  0  0  0  0  0  0
   -4.7988    2.9917    5.8927 C   0  0  0  0  0  0  0  0  0  0  0  0
   -3.0145   -2.7892   13.0759 C   0  0  0  0  0  0  0  0  0  0  0  0
   -1.9767   -2.0728   12.0347 C   0  0  0  0  0  0  0  0  0  0  0  0
   -2.1916   -2.6193   10.4619 B   0  0  0  0  0  0  0  0  0  0  0  0
   -3.4412   -3.8936   10.5200 B   0  0  0  0  0  0  0  0  0  0  0  0
   -3.9627   -3.9120   12.2103 B   0  0  0  0  0  0  0  0  0  0  0  0
   -4.2542    0.0949   11.9939 C   0  0  0  0  0  0  0  0  0  0  0  0
   -6.0350   -1.8859   12.2119 C   0  0  0  0  0  0  0  0  0  0  0  0
   -6.5029   -1.6452    8.9143 C   0  0  0  0  0  0  0  0  0  0  0  0
   -1.7864    5.3717    7.9045 C   0  0  0  0  0  0  0  0  0  0  0  0
   -3.0353    4.9399    9.8849 C   0  0  0  0  0  0  0  0  0  0  0  0
   -5.6252    0.7178    4.5912 C   0  0  0  0  0  0  0  0  0  0  0  0
   -5.7075    3.0568    4.8405 C   0  0  0  0  0  0  0  0  0  0  0  0
   -3.4522   -2.1252   14.4134 C   0  0  0  0  0  0  0  0  0  0  0  0
   -2.6330   -4.4359   13.2044 B   0  0  0  0  0  0  0  0  0  0  0  0
   -1.3530   -3.2805   13.1245 B   0  0  0  0  0  0  0  0  0  0  0  0
   -1.3825   -0.6768   12.3844 C   0  0  0  0  0  0  0  0  0  0  0  0
   -0.8299   -3.2012   11.4451 B   0  0  0  0  0  0  0  0  0  0  0  0
   -1.7438   -4.3254   10.5153 B   0  0  0  0  0  0  0  0  0  0  0  0
   -2.8475   -5.1084   11.6035 B   0  0  0  0  0  0  0  0  0  0  0  0
   -4.1856    1.1695   12.4565 O   0  0  0  0  0  0  0  0  0  0  0  0
   -7.0469   -1.9610   12.7387 O   0  0  0  0  0  0  0  0  0  0  0  0
   -6.2682   -2.0261    7.6144 C   0  0  0  0  0  0  0  0  0  0  0  0
   -7.8072   -1.4569    9.2890 C   0  0  0  0  0  0  0  0  0  0  0  0
   -2.2925    5.8036    9.1040 C   0  0  0  0  0  0  0  0  0  0  0  0
   -6.1333    1.9213    4.1914 C   0  0  0  0  0  0  0  0  0  0  0  0
   -1.2652   -4.7190   12.1444 B   0  0  0  0  0  0  0  0  0  0  0  0
   -7.3061   -2.2016    6.7002 C   0  0  0  0  0  0  0  0  0  0  0  0
   -8.8355   -1.6750    8.4000 C   0  0  0  0  0  0  0  0  0  0  0  0
   -8.6024   -2.0303    7.0938 C   0  0  0  0  0  0  0  0  0  0  0  0
   -9.7301   -2.2243    6.1342 C   0  0  0  0  0  0  0  0  0  0  0  0
  1  2  1  0  0  0  0
  2  4  1  0  0  0  0
  3  1  1  0  0  0  0
  4  5  1  0  0  0  0
  6  2  1  0  0  0  0
  7  6  1  0  0  0  0
  8  2  1  0  0  0  0
  9  2  1  0  0  0  0
 10  2  1  0  0  0  0
 11  4  1  0  0  0  0
 12  4  1  0  0  0  0
 13  6  1  0  0  0  0
 14  8  1  0  0  0  0
 15  9  1  0  0  0  0
 16 11  1  0  0  0  0
 17  2  1  0  0  0  0
 18 17  3  0  0  0  0
 19  2  1  0  0  0  0
 20 19  3  0  0  0  0
 21  1  1  0  0  0  0
 22 21  1  0  0  0  0
 23 22  4  0  0  0  0
 24 23  4  0  0  0  0
 25 24  4  0  0  0  0
 26 25  4  0  0  0  0
 27 22  4  0  0  0  0
 28 25  1  0  0  0  0
 29  3  1  0  0  0  0
 30 29  4  0  0  0  0
 31 30  4  0  0  0  0
 32 31  4  0  0  0  0
 33 32  4  0  0  0  0
 34 29  4  0  0  0  0
 35  3  1  0  0  0  0
 36 35  4  0  0  0  0
 37 36  4  0  0  0  0
 38 37  4  0  0  0  0
 39 38  4  0  0  0  0
 40 35  4  0  0  0  0
 41  3  1  0  0  0  0
 42 41  1  0  0  0  0
 43 42  1  0  0  0  0
 44 43  1  0  0  0  0
 45 44  1  0  0  0  0
 46 45  1  0  0  0  0
 47 45  1  0  0  0  0
 48 45  1  0  0  0  0
 49 46  1  0  0  0  0
 50 46  1  0  0  0  0
 51 47  4  0  0  0  0
 52 47  4  0  0  0  0
 53 48  4  0  0  0  0
 54 48  4  0  0  0  0
 55 49  1  0  0  0  0
 56 49  1  0  0  0  0
 57 49  1  0  0  0  0
 58 49  1  0  0  0  0
 59 49  1  0  0  0  0
 60 49  1  0  0  0  0
 61 49  1  0  0  0  0
 62 50  1  0  0  0  0
 63 51  4  0  0  0  0
 64 52  4  0  0  0  0
 65 53  4  0  0  0  0
 66 54  4  0  0  0  0
 67 55  1  0  0  0  0
 68 55  1  0  0  0  0
 69 55  1  0  0  0  0
 70 56  1  0  0  0  0
 71 56  1  0  0  0  0
 72 57  1  0  0  0  0
 73 58  1  0  0  0  0
 74 60  3  0  0  0  0
 75 61  3  0  0  0  0
 76 62  4  0  0  0  0
 77 62  4  0  0  0  0
 78 63  4  0  0  0  0
 79 65  4  0  0  0  0
 80 68  1  0  0  0  0
 81 76  4  0  0  0  0
 82 77  4  0  0  0  0
 83 81  4  0  0  0  0
 84 83  1  0  0  0  0
  2 21  3  0  0  0  0
  4  6  1  0  0  0  0
  4 10  1  0  0  0  0
  6  8  1  0  0  0  0
  6 12  1  0  0  0  0
  8  9  1  0  0  0  0
  8 13  1  0  0  0  0
  9 10  1  0  0  0  0
  9 14  1  0  0  0  0
 10 11  1  0  0  0  0
 10 15  1  0  0  0  0
 11 12  1  0  0  0  0
 11 15  1  0  0  0  0
 12 13  1  0  0  0  0
 12 16  1  0  0  0  0
 13 14  1  0  0  0  0
 13 16  1  0  0  0  0
 14 15  1  0  0  0  0
 14 16  1  0  0  0  0
 15 16  1  0  0  0  0
 26 27  4  0  0  0  0
 33 34  4  0  0  0  0
 39 40  4  0  0  0  0
 49 50  3  0  0  0  0
 55 56  1  0  0  0  0
 55 59  1  0  0  0  0
 56 57  1  0  0  0  0
 56 69  1  0  0  0  0
 57 58  1  0  0  0  0
 57 71  1  0  0  0  0
 58 59  1  0  0  0  0
 58 72  1  0  0  0  0
 59 68  1  0  0  0  0
 59 73  1  0  0  0  0
 64 78  4  0  0  0  0
 66 79  4  0  0  0  0
 68 69  1  0  0  0  0
 68 73  1  0  0  0  0
 69 71  1  0  0  0  0
 69 80  1  0  0  0  0
 71 72  1  0  0  0  0
 71 80  1  0  0  0  0
 72 73  1  0  0  0  0
 72 80  1  0  0  0  0
 73 80  1  0  0  0  0
 82 83  4  0  0  0  0
M  END
$$$$
YASSOE

From CSD data. Using bond type 'Any'. No disordered atoms. Largest molecule.
162172  0  0  0  0  0  0  0  0999 V2000
    6.8885    9.7504    7.5575 C   0  0  0  0  0  0  0  0  0  0  0  0
    6.4557    8.7269    6.6895 C   0  0  0  0  0  0  0  0  0  0  0  0
    5.5464    8.7128    6.4138 H   0  0  0  0  0  0  0  0  0  0  0  0
    7.3079    7.7459    6.2315 C   0  0  0  0  0  0  0  0  0  0  0  0
    6.9909    7.0558    5.6602 H   0  0  0  0  0  0  0  0  0  0  0  0
    8.6284    7.7883    6.6199 C   0  0  0  0  0  0  0  0  0  0  0  0
    9.2508    7.1675    6.2596 H   0  0  0  0  0  0  0  0  0  0  0  0
    9.0467    8.7401    7.5347 C   0  0  0  0  0  0  0  0  0  0  0  0
    9.9542    8.7209    7.8162 H   0  0  0  0  0  0  0  0  0  0  0  0
    8.2060    9.7358    8.0738 C   0  0  0  0  0  0  0  0  0  0  0  0
    5.4651   11.8150    6.0601 C   0  0  0  0  0  0  0  0  0  0  0  0
    4.9192   12.6440    6.1742 H   0  0  0  0  0  0  0  0  0  0  0  0
    4.7275   10.9570    5.0258 C   0  0  0  0  0  0  0  0  0  0  0  0
    4.5991   11.4758    4.2040 H   0  0  0  0  0  0  0  0  0  0  0  0
    3.8549   10.6921    5.3843 H   0  0  0  0  0  0  0  0  0  0  0  0
    5.2565   10.1567    4.8275 H   0  0  0  0  0  0  0  0  0  0  0  0
    6.8171   12.2690    5.5279 C   0  0  0  0  0  0  0  0  0  0  0  0
    7.3925   11.4879    5.3886 H   0  0  0  0  0  0  0  0  0  0  0  0
    7.2367   12.8730    6.1749 H   0  0  0  0  0  0  0  0  0  0  0  0
    6.6914   12.7379    4.6764 H   0  0  0  0  0  0  0  0  0  0  0  0
    4.0801   10.3171    8.1883 C   0  0  0  0  0  0  0  0  0  0  0  0
    3.8155    9.7587    7.4017 H   0  0  0  0  0  0  0  0  0  0  0  0
    4.1632    9.3844    9.3848 C   0  0  0  0  0  0  0  0  0  0  0  0
    4.3184    9.9092   10.1983 H   0  0  0  0  0  0  0  0  0  0  0  0
    4.9019    8.7536    9.2575 H   0  0  0  0  0  0  0  0  0  0  0  0
    3.3218    8.8887    9.4727 H   0  0  0  0  0  0  0  0  0  0  0  0
    3.0084   11.3919    8.3495 C   0  0  0  0  0  0  0  0  0  0  0  0
    2.1337   10.9656    8.4689 H   0  0  0  0  0  0  0  0  0  0  0  0
    2.9900   11.9577    7.5505 H   0  0  0  0  0  0  0  0  0  0  0  0
    3.2132   11.9413    9.1351 H   0  0  0  0  0  0  0  0  0  0  0  0
    9.3810   12.0947    9.0172 C   0  0  0  0  0  0  0  0  0  0  0  0
    9.6494   12.5735    7.7416 C   0  0  0  0  0  0  0  0  0  0  0  0
    9.3811   12.0623    6.9873 H   0  0  0  0  0  0  0  0  0  0  0  0
   10.3105   13.7962    7.5415 C   0  0  0  0  0  0  0  0  0  0  0  0
   10.7560   14.5341    8.6170 C   0  0  0  0  0  0  0  0  0  0  0  0
   11.2183   15.3532    8.4813 H   0  0  0  0  0  0  0  0  0  0  0  0
   10.5174   14.0656    9.9014 C   0  0  0  0  0  0  0  0  0  0  0  0
    9.8287   12.8795   10.0850 C   0  0  0  0  0  0  0  0  0  0  0  0
    9.6538   12.5865   10.9716 H   0  0  0  0  0  0  0  0  0  0  0  0
   10.5755   14.2457    6.1453 C   0  0  0  0  0  0  0  0  0  0  0  0
   11.0618   14.7831   11.0887 C   0  0  0  0  0  0  0  0  0  0  0  0
    9.9420    9.7402   10.0935 C   0  0  0  0  0  0  0  0  0  0  0  0
   11.3016    9.9525    9.8906 C   0  0  0  0  0  0  0  0  0  0  0  0
   11.5795   10.6545    9.3149 H   0  0  0  0  0  0  0  0  0  0  0  0
   12.2679    9.1589   10.5116 C   0  0  0  0  0  0  0  0  0  0  0  0
   13.6925    9.4298   10.2716 C   0  0  0  0  0  0  0  0  0  0  0  0
   14.1930    8.9715    9.1795 F   0  0  0  0  0  0  0  0  0  0  0  0
   13.9898   10.7901   10.1763 F   0  0  0  0  0  0  0  0  0  0  0  0
   14.5179    9.0579   11.2756 F   0  0  0  0  0  0  0  0  0  0  0  0
   11.9065    8.1442   11.3654 C   0  0  0  0  0  0  0  0  0  0  0  0
   12.5642    7.6011   11.7831 H   0  0  0  0  0  0  0  0  0  0  0  0
   10.5574    7.9333   11.6020 C   0  0  0  0  0  0  0  0  0  0  0  0
    9.5968    8.7035   10.9649 C   0  0  0  0  0  0  0  0  0  0  0  0
    8.6788    8.5212   11.1250 H   0  0  0  0  0  0  0  0  0  0  0  0
   10.1709    6.8439   12.5399 C   0  0  0  0  0  0  0  0  0  0  0  0
    6.7040   11.5207   10.5121 C   0  0  0  0  0  0  0  0  0  0  0  0
    5.9883   11.4724   11.8103 C   0  0  0  0  0  0  0  0  0  0  0  0
    4.8217   12.1811   12.0159 C   0  0  0  0  0  0  0  0  0  0  0  0
    4.4524   12.6985   11.3107 H   0  0  0  0  0  0  0  0  0  0  0  0
    4.1860   12.1416   13.2508 C   0  0  0  0  0  0  0  0  0  0  0  0
    3.3778   12.6193   13.3971 H   0  0  0  0  0  0  0  0  0  0  0  0
    4.7466   11.4007   14.2457 C   0  0  0  0  0  0  0  0  0  0  0  0
    5.8963   10.6890   14.0843 C   0  0  0  0  0  0  0  0  0  0  0  0
    6.2581   10.1801   14.8006 H   0  0  0  0  0  0  0  0  0  0  0  0
    6.5229   10.7227   12.8576 C   0  0  0  0  0  0  0  0  0  0  0  0
    7.3247   10.2320   12.7241 H   0  0  0  0  0  0  0  0  0  0  0  0
    8.8027   10.6158    9.3087 B   0  5  0  0  0  0  0  0  0  0  0  0
    7.6840   10.7300   10.4304 O   0  0  0  0  0  0  0  0  0  0  0  0
    9.5030   14.1739    5.3740 F   0  0  0  0  0  0  0  0  0  0  0  0
   10.9650   15.5035    6.0603 F   0  0  0  0  0  0  0  0  0  0  0  0
   11.5140   13.5297    5.5603 F   0  0  0  0  0  0  0  0  0  0  0  0
   11.7841   15.8490   10.7621 F   0  0  0  0  0  0  0  0  0  0  0  0
   11.8331   14.0099   11.8253 F   0  0  0  0  0  0  0  0  0  0  0  0
   10.1259   15.2414   11.8993 F   0  0  0  0  0  0  0  0  0  0  0  0
   10.8219    6.8937   13.6900 F   0  0  0  0  0  0  0  0  0  0  0  0
   10.4197    5.6208   12.0371 F   0  0  0  0  0  0  0  0  0  0  0  0
    8.8585    6.8224   12.8246 F   0  0  0  0  0  0  0  0  0  0  0  0
    4.1386   11.3845   15.4542 F   0  0  0  0  0  0  0  0  0  0  0  0
    5.6908   11.1031    7.7715 P   0  0  0  0  0  0  0  0  0  0  0  0
    6.6999   14.6648   10.6149 Cl  0  0  0  0  0  0  0  0  0  0  0  0
    6.1965   12.8271    9.1601 Pd  0  3  0  0  0  0  0  0  0  0  0  0
    5.2045   19.5346   10.7650 C   0  0  0  0  0  0  0  0  0  0  0  0
    5.6372   20.5581   11.6329 C   0  0  0  0  0  0  0  0  0  0  0  0
    6.5466   20.5722   11.9086 H   0  0  0  0  0  0  0  0  0  0  0  0
    4.7850   21.5391   12.0910 C   0  0  0  0  0  0  0  0  0  0  0  0
    5.1021   22.2292   12.6622 H   0  0  0  0  0  0  0  0  0  0  0  0
    3.4646   21.4967   11.7025 C   0  0  0  0  0  0  0  0  0  0  0  0
    2.8421   22.1175   12.0628 H   0  0  0  0  0  0  0  0  0  0  0  0
    3.0462   20.5449   10.7877 C   0  0  0  0  0  0  0  0  0  0  0  0
    2.1388   20.5641   10.5062 H   0  0  0  0  0  0  0  0  0  0  0  0
    3.8869   19.5492   10.2487 C   0  0  0  0  0  0  0  0  0  0  0  0
    6.6278   17.4700   12.2623 C   0  0  0  0  0  0  0  0  0  0  0  0
    7.1737   16.6410   12.1482 H   0  0  0  0  0  0  0  0  0  0  0  0
    7.3654   18.3280   13.2966 C   0  0  0  0  0  0  0  0  0  0  0  0
    7.4938   17.8092   14.1184 H   0  0  0  0  0  0  0  0  0  0  0  0
    8.2380   18.5929   12.9381 H   0  0  0  0  0  0  0  0  0  0  0  0
    6.8364   19.1283   13.4949 H   0  0  0  0  0  0  0  0  0  0  0  0
    5.2758   17.0160   12.7946 C   0  0  0  0  0  0  0  0  0  0  0  0
    4.7004   17.7971   12.9339 H   0  0  0  0  0  0  0  0  0  0  0  0
    4.8562   16.4120   12.1475 H   0  0  0  0  0  0  0  0  0  0  0  0
    5.4015   16.5471   13.6460 H   0  0  0  0  0  0  0  0  0  0  0  0
    8.0128   18.9679   10.1341 C   0  0  0  0  0  0  0  0  0  0  0  0
    8.2774   19.5263   10.9208 H   0  0  0  0  0  0  0  0  0  0  0  0
    7.9298   19.9006    8.9377 C   0  0  0  0  0  0  0  0  0  0  0  0
    7.7746   19.3758    8.1241 H   0  0  0  0  0  0  0  0  0  0  0  0
    7.1910   20.5314    9.0650 H   0  0  0  0  0  0  0  0  0  0  0  0
    8.7711   20.3963    8.8498 H   0  0  0  0  0  0  0  0  0  0  0  0
    9.0846   17.8931    9.9729 C   0  0  0  0  0  0  0  0  0  0  0  0
    9.9592   18.3194    9.8535 H   0  0  0  0  0  0  0  0  0  0  0  0
    9.1030   17.3273   10.7720 H   0  0  0  0  0  0  0  0  0  0  0  0
    8.8798   17.3437    9.1874 H   0  0  0  0  0  0  0  0  0  0  0  0
    2.7119   17.1903    9.3052 C   0  0  0  0  0  0  0  0  0  0  0  0
    2.4435   16.7115   10.5808 C   0  0  0  0  0  0  0  0  0  0  0  0
    2.7118   17.2227   11.3351 H   0  0  0  0  0  0  0  0  0  0  0  0
    1.7825   15.4888   10.7809 C   0  0  0  0  0  0  0  0  0  0  0  0
    1.3369   14.7509    9.7054 C   0  0  0  0  0  0  0  0  0  0  0  0
    0.8746   13.9318    9.8411 H   0  0  0  0  0  0  0  0  0  0  0  0
    1.5755   15.2194    8.4210 C   0  0  0  0  0  0  0  0  0  0  0  0
    2.2642   16.4055    8.2374 C   0  0  0  0  0  0  0  0  0  0  0  0
    2.4391   16.6985    7.3509 H   0  0  0  0  0  0  0  0  0  0  0  0
    1.5174   15.0393   12.1771 C   0  0  0  0  0  0  0  0  0  0  0  0
    1.0312   14.5019    7.2337 C   0  0  0  0  0  0  0  0  0  0  0  0
    2.1510   19.5448    8.2290 C   0  0  0  0  0  0  0  0  0  0  0  0
    0.7913   19.3325    8.4318 C   0  0  0  0  0  0  0  0  0  0  0  0
    0.5134   18.6305    9.0075 H   0  0  0  0  0  0  0  0  0  0  0  0
   -0.1750   20.1261    7.8109 C   0  0  0  0  0  0  0  0  0  0  0  0
   -1.5995   19.8552    8.0509 C   0  0  0  0  0  0  0  0  0  0  0  0
   -2.1001   20.3135    9.1429 F   0  0  0  0  0  0  0  0  0  0  0  0
   -1.8969   18.4949    8.1462 F   0  0  0  0  0  0  0  0  0  0  0  0
   -2.4250   20.2271    7.0468 F   0  0  0  0  0  0  0  0  0  0  0  0
    0.1865   21.1408    6.9570 C   0  0  0  0  0  0  0  0  0  0  0  0
   -0.4713   21.6839    6.5393 H   0  0  0  0  0  0  0  0  0  0  0  0
    1.5355   21.3517    6.7205 C   0  0  0  0  0  0  0  0  0  0  0  0
    2.4961   20.5815    7.3576 C   0  0  0  0  0  0  0  0  0  0  0  0
    3.4142   20.7638    7.1974 H   0  0  0  0  0  0  0  0  0  0  0  0
    1.9220   22.4411    5.7826 C   0  0  0  0  0  0  0  0  0  0  0  0
    5.3890   17.7643    7.8103 C   0  0  0  0  0  0  0  0  0  0  0  0
    6.1047   17.8126    6.5122 C   0  0  0  0  0  0  0  0  0  0  0  0
    7.2712   17.1039    6.3066 C   0  0  0  0  0  0  0  0  0  0  0  0
    7.6405   16.5865    7.0117 H   0  0  0  0  0  0  0  0  0  0  0  0
    7.9070   17.1434    5.0717 C   0  0  0  0  0  0  0  0  0  0  0  0
    8.7151   16.6657    4.9254 H   0  0  0  0  0  0  0  0  0  0  0  0
    7.3463   17.8843    4.0767 C   0  0  0  0  0  0  0  0  0  0  0  0
    6.1966   18.5960    4.2382 C   0  0  0  0  0  0  0  0  0  0  0  0
    5.8348   19.1049    3.5218 H   0  0  0  0  0  0  0  0  0  0  0  0
    5.5701   18.5623    5.4649 C   0  0  0  0  0  0  0  0  0  0  0  0
    4.7682   19.0530    5.5983 H   0  0  0  0  0  0  0  0  0  0  0  0
    3.2903   18.6692    9.0137 B   0  5  0  0  0  0  0  0  0  0  0  0
    4.4090   18.5550    7.8920 O   0  0  0  0  0  0  0  0  0  0  0  0
    2.5899   15.1111   12.9485 F   0  0  0  0  0  0  0  0  0  0  0  0
    1.1279   13.7815   12.2621 F   0  0  0  0  0  0  0  0  0  0  0  0
    0.5789   15.7553   12.7621 F   0  0  0  0  0  0  0  0  0  0  0  0
    0.3088   13.4360    7.5604 F   0  0  0  0  0  0  0  0  0  0  0  0
    0.2599   15.2751    6.4971 F   0  0  0  0  0  0  0  0  0  0  0  0
    1.9670   14.0436    6.4231 F   0  0  0  0  0  0  0  0  0  0  0  0
    1.2710   22.3913    4.6325 F   0  0  0  0  0  0  0  0  0  0  0  0
    1.6732   23.6642    6.2853 F   0  0  0  0  0  0  0  0  0  0  0  0
    3.2344   22.4626    5.4978 F   0  0  0  0  0  0  0  0  0  0  0  0
    7.9544   17.9005    2.8682 F   0  0  0  0  0  0  0  0  0  0  0  0
    6.4022   18.1819   10.5510 P   0  0  0  0  0  0  0  0  0  0  0  0
    5.3930   14.6202    7.7075 Cl  0  0  0  0  0  0  0  0  0  0  0  0
    5.8964   16.4579    9.1623 Pd  0  3  0  0  0  0  0  0  0  0  0  0
  1  2  4  0  0  0  0
  2  3  1  0  0  0  0
  4  2  4  0  0  0  0
  5  4  1  0  0  0  0
  6  4  4  0  0  0  0
  7  6  1  0  0  0  0
  8  6  4  0  0  0  0
  9  8  1  0  0  0  0
 10  1  4  0  0  0  0
 11 12  1  0  0  0  0
 13 11  1  0  0  0  0
 14 13  1  0  0  0  0
 15 13  1  0  0  0  0
 16 13  1  0  0  0  0
 17 11  1  0  0  0  0
 18 17  1  0  0  0  0
 19 17  1  0  0  0  0
 20 17  1  0  0  0  0
 21 22  1  0  0  0  0
 23 21  1  0  0  0  0
 24 23  1  0  0  0  0
 25 23  1  0  0  0  0
 26 23  1  0  0  0  0
 27 21  1  0  0  0  0
 28 27  1  0  0  0  0
 29 27  1  0  0  0  0
 30 27  1  0  0  0  0
 31 32  4  0  0  0  0
 32 33  1  0  0  0  0
 34 32  4  0  0  0  0
 35 34  4  0  0  0  0
 36 35  1  0  0  0  0
 37 35  4  0  0  0  0
 38 31  4  0  0  0  0
 39 38  1  0  0  0  0
 40 34  1  0  0  0  0
 41 37  1  0  0  0  0
 42 43  4  0  0  0  0
 43 44  1  0  0  0  0
 45 43  4  0  0  0  0
 46 45  1  0  0  0  0
 47 46  1  0  0  0  0
 48 46  1  0  0  0  0
 49 46  1  0  0  0  0
 50 45  4  0  0  0  0
 51 50  1  0  0  0  0
 52 50  4  0  0  0  0
 53 42  4  0  0  0  0
 54 53  1  0  0  0  0
 55 52  1  0  0  0  0
 56 57  1  0  0  0  0
 57 58  4  0  0  0  0
 58 59  1  0  0  0  0
 60 58  4  0  0  0  0
 61 60  1  0  0  0  0
 62 60  4  0  0  0  0
 63 62  4  0  0  0  0
 64 63  1  0  0  0  0
 65 57  4  0  0  0  0
 66 65  1  0  0  0  0
 67 10  1  0  0  0  0
 68 56  2  0  0  0  0
 69 40  1  0  0  0  0
 70 40  1  0  0  0  0
 71 40  1  0  0  0  0
 72 41  1  0  0  0  0
 73 41  1  0  0  0  0
 74 41  1  0  0  0  0
 75 55  1  0  0  0  0
 76 55  1  0  0  0  0
 77 55  1  0  0  0  0
 78 62  1  0  0  0  0
 79  1  1  0  0  0  0
 80 81  1  0  0  0  0
 81 56  1  0  0  0  0
 82 83  4  0  0  0  0
 83 84  1  0  0  0  0
 85 83  4  0  0  0  0
 86 85  1  0  0  0  0
 87 85  4  0  0  0  0
 88 87  1  0  0  0  0
 89 87  4  0  0  0  0
 90 89  1  0  0  0  0
 91 82  4  0  0  0  0
 92 93  1  0  0  0  0
 94 92  1  0  0  0  0
 95 94  1  0  0  0  0
 96 94  1  0  0  0  0
 97 94  1  0  0  0  0
 98 92  1  0  0  0  0
 99 98  1  0  0  0  0
100 98  1  0  0  0  0
101 98  1  0  0  0  0
102103  1  0  0  0  0
104102  1  0  0  0  0
105104  1  0  0  0  0
106104  1  0  0  0  0
107104  1  0  0  0  0
108102  1  0  0  0  0
109108  1  0  0  0  0
110108  1  0  0  0  0
111108  1  0  0  0  0
112113  4  0  0  0  0
113114  1  0  0  0  0
115113  4  0  0  0  0
116115  4  0  0  0  0
117116  1  0  0  0  0
118116  4  0  0  0  0
119112  4  0  0  0  0
120119  1  0  0  0  0
121115  1  0  0  0  0
122118  1  0  0  0  0
123124  4  0  0  0  0
124125  1  0  0  0  0
126124  4  0  0  0  0
127126  1  0  0  0  0
128127  1  0  0  0  0
129127  1  0  0  0  0
130127  1  0  0  0  0
131126  4  0  0  0  0
132131  1  0  0  0  0
133131  4  0  0  0  0
134123  4  0  0  0  0
135134  1  0  0  0  0
136133  1  0  0  0  0
137138  1  0  0  0  0
138139  4  0  0  0  0
139140  1  0  0  0  0
141139  4  0  0  0  0
142141  1  0  0  0  0
143141  4  0  0  0  0
144143  4  0  0  0  0
145144  1  0  0  0  0
146138  4  0  0  0  0
147146  1  0  0  0  0
148 91  1  0  0  0  0
149137  2  0  0  0  0
150121  1  0  0  0  0
151121  1  0  0  0  0
152121  1  0  0  0  0
153122  1  0  0  0  0
154122  1  0  0  0  0
155122  1  0  0  0  0
156136  1  0  0  0  0
157136  1  0  0  0  0
158136  1  0  0  0  0
159143  1  0  0  0  0
160 82  1  0  0  0  0
161 81  1  0  0  0  0
162 80  1  0  0  0  0
  8 10  4  0  0  0  0
 11 79  1  0  0  0  0
 21 79  1  0  0  0  0
 31 67  1  0  0  0  0
 37 38  4  0  0  0  0
 42 67  1  0  0  0  0
 52 53  4  0  0  0  0
 63 65  4  0  0  0  0
 67 68  1  0  0  0  0
 79 81  1  0  0  0  0
 89 91  4  0  0  0  0
 92160  1  0  0  0  0
102160  1  0  0  0  0
112148  1  0  0  0  0
118119  4  0  0  0  0
123148  1  0  0  0  0
133134  4  0  0  0  0
137162  1  0  0  0  0
144146  4  0  0  0  0
148149  1  0  0  0  0
160162  1  0  0  0  0
161162  1  0  0  0  0
M  CHG  4  67  -1  81   1 148  -1 162   1
M  END
$$$$
YAVBAB

From CSD data. Using bond type 'Any'. No disordered atoms. Largest molecule.
262300  0  0  0  0  0  0  0  0999 V2000
   10.2335    6.7188   15.3638 B   0  0  0  0  0  0  0  0  0  0  0  0
    9.7189    9.5551   15.5589 C   0  0  0  0  0  0  0  0  0  0  0  0
   10.8595    9.1764   16.5404 C   0  0  0  0  0  0  0  0  0  0  0  0
   12.0241    8.4579   15.8416 C   0  0  0  0  0  0  0  0  0  0  0  0
   11.7429    7.2797   15.2503 C   0  0  0  0  0  0  0  0  0  0  0  0
   10.1472    5.1790   15.8337 C   0  0  0  0  0  0  0  0  0  0  0  0
   10.0330    4.2316   14.8820 C   0  0  0  0  0  0  0  0  0  0  0  0
   10.1517    9.3593   14.0299 B   0  0  0  0  0  0  0  0  0  0  0  0
    9.8958    8.2101   13.3271 O   0  0  0  0  0  0  0  0  0  0  0  0
    9.9493    4.5933   13.4286 C   0  0  0  0  0  0  0  0  0  0  0  0
    9.7379    5.8559   12.9508 C   0  0  0  0  0  0  0  0  0  0  0  0
    9.4283    6.9829   13.9562 C   0  0  0  0  0  0  0  0  0  0  0  0
    7.9127    7.0797   14.1494 C   0  0  0  0  0  0  0  0  0  0  0  0
    7.1840    8.1407   13.6417 C   0  0  0  0  0  0  0  0  0  0  0  0
    7.6356    8.8092   13.1400 H   0  0  0  0  0  0  0  0  0  0  0  0
    5.8084    8.2596   13.8408 C   0  0  0  0  0  0  0  0  0  0  0  0
    5.3431    9.0147   13.5003 H   0  0  0  0  0  0  0  0  0  0  0  0
    5.1289    7.2876   14.5296 C   0  0  0  0  0  0  0  0  0  0  0  0
    4.1945    7.3635   14.6809 H   0  0  0  0  0  0  0  0  0  0  0  0
    5.8412    6.1830   15.0054 C   0  0  0  0  0  0  0  0  0  0  0  0
    5.3828    5.4938   15.4713 H   0  0  0  0  0  0  0  0  0  0  0  0
    7.1878    6.0858   14.8063 C   0  0  0  0  0  0  0  0  0  0  0  0
    7.6459    5.3166   15.1249 H   0  0  0  0  0  0  0  0  0  0  0  0
    9.7107    6.2040   11.5154 C   0  0  0  0  0  0  0  0  0  0  0  0
    8.5569    6.6668   10.9022 C   0  0  0  0  0  0  0  0  0  0  0  0
    7.7569    6.7507   11.4079 H   0  0  0  0  0  0  0  0  0  0  0  0
    8.5617    7.0107    9.5543 C   0  0  0  0  0  0  0  0  0  0  0  0
    7.7609    7.3264    9.1522 H   0  0  0  0  0  0  0  0  0  0  0  0
    9.6856    6.9055    8.8018 C   0  0  0  0  0  0  0  0  0  0  0  0
    9.6732    7.1350    7.8800 H   0  0  0  0  0  0  0  0  0  0  0  0
   10.8337    6.4603    9.3911 C   0  0  0  0  0  0  0  0  0  0  0  0
   11.6350    6.3952    8.8854 H   0  0  0  0  0  0  0  0  0  0  0  0
   10.8231    6.1024   10.7489 C   0  0  0  0  0  0  0  0  0  0  0  0
   11.6235    5.7762   11.1431 H   0  0  0  0  0  0  0  0  0  0  0  0
   10.2615    3.4948   12.4710 C   0  0  0  0  0  0  0  0  0  0  0  0
    9.3058    3.0276   11.5851 C   0  0  0  0  0  0  0  0  0  0  0  0
    8.4378    3.4138   11.5691 H   0  0  0  0  0  0  0  0  0  0  0  0
    9.6285    1.9798   10.7111 C   0  0  0  0  0  0  0  0  0  0  0  0
    8.9847    1.6736   10.0819 H   0  0  0  0  0  0  0  0  0  0  0  0
   10.8646    1.3936   10.7549 C   0  0  0  0  0  0  0  0  0  0  0  0
   11.0603    0.6572   10.1875 H   0  0  0  0  0  0  0  0  0  0  0  0
   11.8268    1.8686   11.6229 C   0  0  0  0  0  0  0  0  0  0  0  0
   12.6979    1.4891   11.6269 H   0  0  0  0  0  0  0  0  0  0  0  0
   11.5050    2.9132   12.4909 C   0  0  0  0  0  0  0  0  0  0  0  0
   12.1578    3.2274   13.1061 H   0  0  0  0  0  0  0  0  0  0  0  0
   10.8786   10.4626   13.1897 C   0  0  0  0  0  0  0  0  0  0  0  0
   11.1186   11.7432   13.6855 C   0  0  0  0  0  0  0  0  0  0  0  0
   10.8015   11.9617   14.5535 H   0  0  0  0  0  0  0  0  0  0  0  0
   11.7932   12.7053   12.9727 C   0  0  0  0  0  0  0  0  0  0  0  0
   11.9229   13.5694   13.3450 H   0  0  0  0  0  0  0  0  0  0  0  0
   12.2809   12.4152   11.7244 C   0  0  0  0  0  0  0  0  0  0  0  0
   12.7535   13.0755   11.2327 H   0  0  0  0  0  0  0  0  0  0  0  0
   12.0797   11.1392   11.1769 C   0  0  0  0  0  0  0  0  0  0  0  0
   12.4339   10.9158   10.3248 H   0  0  0  0  0  0  0  0  0  0  0  0
   11.3386   10.1945   11.9175 C   0  0  0  0  0  0  0  0  0  0  0  0
   11.1513    9.3484   11.5293 H   0  0  0  0  0  0  0  0  0  0  0  0
    9.9047    2.7706   15.1926 C   0  0  0  0  0  0  0  0  0  0  0  0
    8.7642    2.0822   14.7984 C   0  0  0  0  0  0  0  0  0  0  0  0
    8.0858    2.5401   14.3166 H   0  0  0  0  0  0  0  0  0  0  0  0
    8.5989    0.7438   15.0970 C   0  0  0  0  0  0  0  0  0  0  0  0
    7.8030    0.2958   14.8402 H   0  0  0  0  0  0  0  0  0  0  0  0
    9.5874    0.0580   15.7699 C   0  0  0  0  0  0  0  0  0  0  0  0
    9.4689   -0.8619   15.9770 H   0  0  0  0  0  0  0  0  0  0  0  0
   10.7397    0.7015   16.1383 C   0  0  0  0  0  0  0  0  0  0  0  0
   11.4274    0.2261   16.5902 H   0  0  0  0  0  0  0  0  0  0  0  0
   10.9007    2.0650   15.8476 C   0  0  0  0  0  0  0  0  0  0  0  0
   11.7025    2.5084   16.1004 H   0  0  0  0  0  0  0  0  0  0  0  0
   10.1604    4.8830   17.2970 C   0  0  0  0  0  0  0  0  0  0  0  0
    9.2405    4.0443   17.9281 C   0  0  0  0  0  0  0  0  0  0  0  0
    8.5952    3.5924   17.3965 H   0  0  0  0  0  0  0  0  0  0  0  0
    9.2311    3.8483   19.2779 C   0  0  0  0  0  0  0  0  0  0  0  0
    8.5859    3.2711   19.6681 H   0  0  0  0  0  0  0  0  0  0  0  0
   10.1616    4.4898   20.0862 C   0  0  0  0  0  0  0  0  0  0  0  0
   10.1684    4.3466   21.0259 H   0  0  0  0  0  0  0  0  0  0  0  0
   11.0823    5.3449   19.4929 C   0  0  0  0  0  0  0  0  0  0  0  0
   11.7254    5.7899   20.0305 H   0  0  0  0  0  0  0  0  0  0  0  0
   11.0694    5.5548   18.1312 C   0  0  0  0  0  0  0  0  0  0  0  0
   11.6887    6.1657   17.7489 H   0  0  0  0  0  0  0  0  0  0  0  0
   12.8903    6.5534   14.5973 C   0  0  0  0  0  0  0  0  0  0  0  0
   13.4428    5.4468   15.2344 C   0  0  0  0  0  0  0  0  0  0  0  0
   13.1352    5.2249   16.1064 H   0  0  0  0  0  0  0  0  0  0  0  0
   14.4146    4.6574   14.6511 C   0  0  0  0  0  0  0  0  0  0  0  0
   14.7970    3.9342   15.1309 H   0  0  0  0  0  0  0  0  0  0  0  0
   14.8088    4.9309   13.3709 C   0  0  0  0  0  0  0  0  0  0  0  0
   15.4568    4.3802   12.9468 H   0  0  0  0  0  0  0  0  0  0  0  0
   14.2801    5.9855   12.7099 C   0  0  0  0  0  0  0  0  0  0  0  0
   14.5398    6.1524   11.8100 H   0  0  0  0  0  0  0  0  0  0  0  0
   13.3532    6.8364   13.3331 C   0  0  0  0  0  0  0  0  0  0  0  0
   13.0428    7.6117   12.8792 H   0  0  0  0  0  0  0  0  0  0  0  0
   13.3488    9.0966   15.8317 C   0  0  0  0  0  0  0  0  0  0  0  0
   14.1532    9.0481   16.9506 C   0  0  0  0  0  0  0  0  0  0  0  0
   13.8247    8.6127   17.7290 H   0  0  0  0  0  0  0  0  0  0  0  0
   15.4383    9.6169   16.9904 C   0  0  0  0  0  0  0  0  0  0  0  0
   16.0093    9.5295   17.7449 H   0  0  0  0  0  0  0  0  0  0  0  0
   15.8199   10.3163   15.8476 C   0  0  0  0  0  0  0  0  0  0  0  0
   16.6512   10.7745   15.8516 H   0  0  0  0  0  0  0  0  0  0  0  0
   15.0521   10.3665   14.7347 C   0  0  0  0  0  0  0  0  0  0  0  0
   15.3682   10.8346   13.9702 H   0  0  0  0  0  0  0  0  0  0  0  0
   13.8246    9.7555   14.6909 C   0  0  0  0  0  0  0  0  0  0  0  0
   13.3046    9.7785   13.8965 H   0  0  0  0  0  0  0  0  0  0  0  0
   11.2378   10.0651   17.7031 C   0  0  0  0  0  0  0  0  0  0  0  0
   11.1551    9.5647   18.9972 C   0  0  0  0  0  0  0  0  0  0  0  0
   10.9181    8.6558   19.1346 H   0  0  0  0  0  0  0  0  0  0  0  0
   11.4156   10.3818   20.0922 C   0  0  0  0  0  0  0  0  0  0  0  0
   11.3474   10.0313   20.9722 H   0  0  0  0  0  0  0  0  0  0  0  0
   11.7737   11.7039   19.8991 C   0  0  0  0  0  0  0  0  0  0  0  0
   11.9305   12.2740   20.6437 H   0  0  0  0  0  0  0  0  0  0  0  0
   11.9002   12.1886   18.6110 C   0  0  0  0  0  0  0  0  0  0  0  0
   12.1757   13.0858   18.4696 H   0  0  0  0  0  0  0  0  0  0  0  0
   11.6293   11.3793   17.5259 C   0  0  0  0  0  0  0  0  0  0  0  0
   11.7121   11.7284   16.6459 H   0  0  0  0  0  0  0  0  0  0  0  0
    8.7135   10.6244   15.8914 C   0  0  0  0  0  0  0  0  0  0  0  0
    8.3839   10.9977   17.2074 C   0  0  0  0  0  0  0  0  0  0  0  0
    8.8607   10.6013   17.9281 H   0  0  0  0  0  0  0  0  0  0  0  0
    7.3944   11.9197   17.4941 C   0  0  0  0  0  0  0  0  0  0  0  0
    7.2271   12.1660   18.3959 H   0  0  0  0  0  0  0  0  0  0  0  0
    6.6571   12.4756   16.4926 C   0  0  0  0  0  0  0  0  0  0  0  0
    5.9616   13.0903   16.6937 H   0  0  0  0  0  0  0  0  0  0  0  0
    6.9343   12.1363   15.1886 C   0  0  0  0  0  0  0  0  0  0  0  0
    6.4219   12.5177   14.4858 H   0  0  0  0  0  0  0  0  0  0  0  0
    7.9705   11.2279   14.8860 C   0  0  0  0  0  0  0  0  0  0  0  0
    8.1634   11.0263   13.9781 H   0  0  0  0  0  0  0  0  0  0  0  0
    9.4472    8.0025   16.6459 P   0  0  0  0  0  0  0  0  0  0  0  0
    6.8252    7.0835   19.2262 C   0  0  0  0  0  0  0  0  0  0  0  0
    7.0357    6.4559   18.4895 H   0  0  0  0  0  0  0  0  0  0  0  0
    6.0953    6.6880   19.7657 H   0  0  0  0  0  0  0  0  0  0  0  0
    6.1317    9.2793   19.7338 C   0  0  0  0  0  0  0  0  0  0  0  0
    5.3777    8.9540   20.2873 H   0  0  0  0  0  0  0  0  0  0  0  0
    5.8728   10.1539   19.3496 H   0  0  0  0  0  0  0  0  0  0  0  0
    6.3797    8.3434   18.6687 O   0  0  0  0  0  0  0  0  0  0  0  0
    6.6638    8.8009   16.4620 Na  0  0  0  0  0  0  0  0  0  0  0  0
    7.3357    9.4523   20.5919 C   0  0  0  0  0  0  0  0  0  0  0  0
    7.1252   10.0800   21.3286 H   0  0  0  0  0  0  0  0  0  0  0  0
    8.0655    9.8478   20.0524 H   0  0  0  0  0  0  0  0  0  0  0  0
    8.0291    7.2565   20.0842 C   0  0  0  0  0  0  0  0  0  0  0  0
    8.7832    7.5818   19.5308 H   0  0  0  0  0  0  0  0  0  0  0  0
    8.2880    6.3820   20.4685 H   0  0  0  0  0  0  0  0  0  0  0  0
    7.7812    8.1924   21.1494 O   0  0  0  0  0  0  0  0  0  0  0  0
    3.9274    9.8171   24.4543 B   0  0  0  0  0  0  0  0  0  0  0  0
    4.4419    6.9808   24.2592 C   0  0  0  0  0  0  0  0  0  0  0  0
    3.3014    7.3594   23.2776 C   0  0  0  0  0  0  0  0  0  0  0  0
    2.1368    8.0779   23.9765 C   0  0  0  0  0  0  0  0  0  0  0  0
    2.4179    9.2562   24.5678 C   0  0  0  0  0  0  0  0  0  0  0  0
    4.0136   11.3568   23.9844 C   0  0  0  0  0  0  0  0  0  0  0  0
    4.1279   12.3043   24.9361 C   0  0  0  0  0  0  0  0  0  0  0  0
    4.0091    7.1766   25.7882 B   0  0  0  0  0  0  0  0  0  0  0  0
    4.2650    8.3257   26.4910 O   0  0  0  0  0  0  0  0  0  0  0  0
    4.2116   11.9425   26.3894 C   0  0  0  0  0  0  0  0  0  0  0  0
    4.4229   10.6800   26.8672 C   0  0  0  0  0  0  0  0  0  0  0  0
    4.7326    9.5530   25.8618 C   0  0  0  0  0  0  0  0  0  0  0  0
    6.2481    9.4561   25.6687 C   0  0  0  0  0  0  0  0  0  0  0  0
    6.9768    8.3951   26.1764 C   0  0  0  0  0  0  0  0  0  0  0  0
    6.5253    7.7266   26.6781 H   0  0  0  0  0  0  0  0  0  0  0  0
    8.3524    8.2762   25.9773 C   0  0  0  0  0  0  0  0  0  0  0  0
    8.8177    7.5211   26.3178 H   0  0  0  0  0  0  0  0  0  0  0  0
    9.0320    9.2482   25.2885 C   0  0  0  0  0  0  0  0  0  0  0  0
    9.9664    9.1723   25.1371 H   0  0  0  0  0  0  0  0  0  0  0  0
    8.3197   10.3529   24.8126 C   0  0  0  0  0  0  0  0  0  0  0  0
    8.7780   11.0421   24.3468 H   0  0  0  0  0  0  0  0  0  0  0  0
    6.9730   10.4500   25.0117 C   0  0  0  0  0  0  0  0  0  0  0  0
    6.5150   11.2193   24.6932 H   0  0  0  0  0  0  0  0  0  0  0  0
    4.4501   10.3318   28.3027 C   0  0  0  0  0  0  0  0  0  0  0  0
    5.6040    9.8690   28.9159 C   0  0  0  0  0  0  0  0  0  0  0  0
    6.4039    9.7851   28.4102 H   0  0  0  0  0  0  0  0  0  0  0  0
    5.5992    9.5251   30.2637 C   0  0  0  0  0  0  0  0  0  0  0  0
    6.4000    9.2095   30.6659 H   0  0  0  0  0  0  0  0  0  0  0  0
    4.4752    9.6304   31.0163 C   0  0  0  0  0  0  0  0  0  0  0  0
    4.4877    9.4008   31.9381 H   0  0  0  0  0  0  0  0  0  0  0  0
    3.3272   10.0755   30.4270 C   0  0  0  0  0  0  0  0  0  0  0  0
    2.5259   10.1406   30.9327 H   0  0  0  0  0  0  0  0  0  0  0  0
    3.3377   10.4335   29.0692 C   0  0  0  0  0  0  0  0  0  0  0  0
    2.5374   10.7596   28.6750 H   0  0  0  0  0  0  0  0  0  0  0  0
    3.8994   13.0410   27.3471 C   0  0  0  0  0  0  0  0  0  0  0  0
    4.8550   13.5082   28.2330 C   0  0  0  0  0  0  0  0  0  0  0  0
    5.7230   13.1220   28.2489 H   0  0  0  0  0  0  0  0  0  0  0  0
    4.5324   14.5560   29.1070 C   0  0  0  0  0  0  0  0  0  0  0  0
    5.1761   14.8622   29.7361 H   0  0  0  0  0  0  0  0  0  0  0  0
    3.2962   15.1422   29.0632 C   0  0  0  0  0  0  0  0  0  0  0  0
    3.1005   15.8786   29.6306 H   0  0  0  0  0  0  0  0  0  0  0  0
    2.3341   14.6672   28.1952 C   0  0  0  0  0  0  0  0  0  0  0  0
    1.4630   15.0467   28.1912 H   0  0  0  0  0  0  0  0  0  0  0  0
    2.6558   13.6226   27.3271 C   0  0  0  0  0  0  0  0  0  0  0  0
    2.0030   13.3084   26.7120 H   0  0  0  0  0  0  0  0  0  0  0  0
    3.2822    6.0732   26.6283 C   0  0  0  0  0  0  0  0  0  0  0  0
    3.0423    4.7926   26.1326 C   0  0  0  0  0  0  0  0  0  0  0  0
    3.3594    4.5742   25.2646 H   0  0  0  0  0  0  0  0  0  0  0  0
    2.3676    3.8305   26.8453 C   0  0  0  0  0  0  0  0  0  0  0  0
    2.2379    2.9665   26.4730 H   0  0  0  0  0  0  0  0  0  0  0  0
    1.8800    4.1207   28.0936 C   0  0  0  0  0  0  0  0  0  0  0  0
    1.4074    3.4603   28.5854 H   0  0  0  0  0  0  0  0  0  0  0  0
    2.0811    5.3967   28.6411 C   0  0  0  0  0  0  0  0  0  0  0  0
    1.7269    5.6201   29.4932 H   0  0  0  0  0  0  0  0  0  0  0  0
    2.8222    6.3413   27.9005 C   0  0  0  0  0  0  0  0  0  0  0  0
    3.0095    7.1874   28.2887 H   0  0  0  0  0  0  0  0  0  0  0  0
    4.2561   13.7653   24.6255 C   0  0  0  0  0  0  0  0  0  0  0  0
    5.3966   14.4536   25.0197 C   0  0  0  0  0  0  0  0  0  0  0  0
    6.0750   13.9957   25.5015 H   0  0  0  0  0  0  0  0  0  0  0  0
    5.5619   15.7920   24.7210 C   0  0  0  0  0  0  0  0  0  0  0  0
    6.3579   16.2400   24.9779 H   0  0  0  0  0  0  0  0  0  0  0  0
    4.5734   16.4779   24.0481 C   0  0  0  0  0  0  0  0  0  0  0  0
    4.6919   17.3978   23.8411 H   0  0  0  0  0  0  0  0  0  0  0  0
    3.4211   15.8343   23.6798 C   0  0  0  0  0  0  0  0  0  0  0  0
    2.7334   16.3097   23.2279 H   0  0  0  0  0  0  0  0  0  0  0  0
    3.2601   14.4708   23.9705 C   0  0  0  0  0  0  0  0  0  0  0  0
    2.4583   14.0274   23.7176 H   0  0  0  0  0  0  0  0  0  0  0  0
    4.0004   11.6528   22.5211 C   0  0  0  0  0  0  0  0  0  0  0  0
    4.9203   12.4915   21.8900 C   0  0  0  0  0  0  0  0  0  0  0  0
    5.5656   12.9435   22.4216 H   0  0  0  0  0  0  0  0  0  0  0  0
    4.9298   12.6876   20.5402 C   0  0  0  0  0  0  0  0  0  0  0  0
    5.5750   13.2647   20.1499 H   0  0  0  0  0  0  0  0  0  0  0  0
    3.9992   12.0461   19.7318 C   0  0  0  0  0  0  0  0  0  0  0  0
    3.9924   12.1892   18.7921 H   0  0  0  0  0  0  0  0  0  0  0  0
    3.0786   11.1909   20.3251 C   0  0  0  0  0  0  0  0  0  0  0  0
    2.4355   10.7459   19.7876 H   0  0  0  0  0  0  0  0  0  0  0  0
    3.0914   10.9810   21.6869 C   0  0  0  0  0  0  0  0  0  0  0  0
    2.4722   10.3701   22.0692 H   0  0  0  0  0  0  0  0  0  0  0  0
    1.2706    9.9825   25.2208 C   0  0  0  0  0  0  0  0  0  0  0  0
    0.7181   11.0890   24.5837 C   0  0  0  0  0  0  0  0  0  0  0  0
    1.0256   11.3110   23.7117 H   0  0  0  0  0  0  0  0  0  0  0  0
   -0.2537   11.8784   25.1670 C   0  0  0  0  0  0  0  0  0  0  0  0
   -0.6362   12.6017   24.6872 H   0  0  0  0  0  0  0  0  0  0  0  0
   -0.6479   11.6049   26.4472 C   0  0  0  0  0  0  0  0  0  0  0  0
   -1.2959   12.1557   26.8712 H   0  0  0  0  0  0  0  0  0  0  0  0
   -0.1193   10.5503   27.1081 C   0  0  0  0  0  0  0  0  0  0  0  0
   -0.3789   10.3834   28.0080 H   0  0  0  0  0  0  0  0  0  0  0  0
    0.8076    9.6994   26.4850 C   0  0  0  0  0  0  0  0  0  0  0  0
    1.1180    8.9241   26.9389 H   0  0  0  0  0  0  0  0  0  0  0  0
    0.8121    7.4393   23.9864 C   0  0  0  0  0  0  0  0  0  0  0  0
    0.0077    7.4877   22.8675 C   0  0  0  0  0  0  0  0  0  0  0  0
    0.3361    7.9232   22.0891 H   0  0  0  0  0  0  0  0  0  0  0  0
   -1.2775    6.9189   22.8277 C   0  0  0  0  0  0  0  0  0  0  0  0
   -1.8484    7.0063   22.0731 H   0  0  0  0  0  0  0  0  0  0  0  0
   -1.6590    6.2195   23.9705 C   0  0  0  0  0  0  0  0  0  0  0  0
   -2.4904    5.7613   23.9665 H   0  0  0  0  0  0  0  0  0  0  0  0
   -0.8913    6.1693   25.0834 C   0  0  0  0  0  0  0  0  0  0  0  0
   -1.2074    5.7013   25.8479 H   0  0  0  0  0  0  0  0  0  0  0  0
    0.3362    6.7803   25.1272 C   0  0  0  0  0  0  0  0  0  0  0  0
    0.8563    6.7573   25.9216 H   0  0  0  0  0  0  0  0  0  0  0  0
    2.9230    6.4708   22.1150 C   0  0  0  0  0  0  0  0  0  0  0  0
    3.0057    6.9711   20.8209 C   0  0  0  0  0  0  0  0  0  0  0  0
    3.2427    7.8801   20.6835 H   0  0  0  0  0  0  0  0  0  0  0  0
    2.7452    6.1540   19.7259 C   0  0  0  0  0  0  0  0  0  0  0  0
    2.8135    6.5046   18.8459 H   0  0  0  0  0  0  0  0  0  0  0  0
    2.3871    4.8319   19.9190 C   0  0  0  0  0  0  0  0  0  0  0  0
    2.2303    4.2618   19.1744 H   0  0  0  0  0  0  0  0  0  0  0  0
    2.2606    4.3472   21.2071 C   0  0  0  0  0  0  0  0  0  0  0  0
    1.9851    3.4501   21.3485 H   0  0  0  0  0  0  0  0  0  0  0  0
    2.5315    5.1566   22.2921 C   0  0  0  0  0  0  0  0  0  0  0  0
    2.4487    4.8075   23.1721 H   0  0  0  0  0  0  0  0  0  0  0  0
    5.4473    5.9115   23.9267 C   0  0  0  0  0  0  0  0  0  0  0  0
    5.7770    5.5381   22.6107 C   0  0  0  0  0  0  0  0  0  0  0  0
    5.3002    5.9345   21.8900 H   0  0  0  0  0  0  0  0  0  0  0  0
    6.7664    4.6161   22.3240 C   0  0  0  0  0  0  0  0  0  0  0  0
    6.9338    4.3699   21.4221 H   0  0  0  0  0  0  0  0  0  0  0  0
    7.5037    4.0602   23.3254 C   0  0  0  0  0  0  0  0  0  0  0  0
    8.1993    3.4455   23.1243 H   0  0  0  0  0  0  0  0  0  0  0  0
    7.2265    4.3996   24.6295 C   0  0  0  0  0  0  0  0  0  0  0  0
    7.7390    4.0182   25.3323 H   0  0  0  0  0  0  0  0  0  0  0  0
    6.1904    5.3079   24.9321 C   0  0  0  0  0  0  0  0  0  0  0  0
    5.9975    5.5095   25.8399 H   0  0  0  0  0  0  0  0  0  0  0  0
    4.7137    8.5334   23.1721 P   0  0  0  0  0  0  0  0  0  0  0  0
    7.4971    7.7349   23.3561 Na  0  0  0  0  0  0  0  0  0  0  0  0
  1  5  1  0  0  0  0
  2  3  1  0  0  0  0
  3  4  1  0  0  0  0
  4  5  2  0  0  0  0
  5 79  1  0  0  0  0
  6  1  1  0  0  0  0
  7  6  2  0  0  0  0
  8  2  1  0  0  0  0
  9  8  1  0  0  0  0
 10  7  1  0  0  0  0
 11 10  2  0  0  0  0
 12  1  1  0  0  0  0
 13 12  1  0  0  0  0
 14 13  4  0  0  0  0
 15 14  1  0  0  0  0
 16 14  4  0  0  0  0
 17 16  1  0  0  0  0
 18 16  4  0  0  0  0
 19 18  1  0  0  0  0
 20 18  4  0  0  0  0
 21 20  1  0  0  0  0
 22 13  4  0  0  0  0
 23 22  1  0  0  0  0
 24 11  1  0  0  0  0
 25 24  4  0  0  0  0
 26 25  1  0  0  0  0
 27 25  4  0  0  0  0
 28 27  1  0  0  0  0
 29 27  4  0  0  0  0
 30 29  1  0  0  0  0
 31 29  4  0  0  0  0
 32 31  1  0  0  0  0
 33 24  4  0  0  0  0
 34 33  1  0  0  0  0
 35 10  1  0  0  0  0
 36 35  4  0  0  0  0
 37 36  1  0  0  0  0
 38 36  4  0  0  0  0
 39 38  1  0  0  0  0
 40 38  4  0  0  0  0
 41 40  1  0  0  0  0
 42 40  4  0  0  0  0
 43 42  1  0  0  0  0
 44 35  4  0  0  0  0
 45 44  1  0  0  0  0
 46  8  1  0  0  0  0
 47 46  4  0  0  0  0
 48 47  1  0  0  0  0
 49 47  4  0  0  0  0
 50 49  1  0  0  0  0
 51 49  4  0  0  0  0
 52 51  1  0  0  0  0
 53 51  4  0  0  0  0
 54 53  1  0  0  0  0
 55 46  4  0  0  0  0
 56 55  1  0  0  0  0
 57  7  1  0  0  0  0
 58 57  4  0  0  0  0
 59 58  1  0  0  0  0
 60 58  4  0  0  0  0
 61 60  1  0  0  0  0
 62 60  4  0  0  0  0
 63 62  1  0  0  0  0
 64 62  4  0  0  0  0
 65 64  1  0  0  0  0
 66 57  4  0  0  0  0
 67 66  1  0  0  0  0
 68  6  1  0  0  0  0
 69 68  4  0  0  0  0
 70 69  1  0  0  0  0
 71 69  4  0  0  0  0
 72 71  1  0  0  0  0
 73 71  4  0  0  0  0
 74 73  1  0  0  0  0
 75 73  4  0  0  0  0
 76 75  1  0  0  0  0
 77 68  4  0  0  0  0
 78 77  1  0  0  0  0
 79 80  4  0  0  0  0
 80 81  1  0  0  0  0
 82 80  4  0  0  0  0
 83 82  1  0  0  0  0
 84 82  4  0  0  0  0
 85 84  1  0  0  0  0
 86 84  4  0  0  0  0
 87 86  1  0  0  0  0
 88 79  4  0  0  0  0
 89 88  1  0  0  0  0
 90  4  1  0  0  0  0
 91 90  4  0  0  0  0
 92 91  1  0  0  0  0
 93 91  4  0  0  0  0
 94 93  1  0  0  0  0
 95 93  4  0  0  0  0
 96 95  1  0  0  0  0
 97 95  4  0  0  0  0
 98 97  1  0  0  0  0
 99 90  4  0  0  0  0
100 99  1  0  0  0  0
101  3  1  0  0  0  0
102101  4  0  0  0  0
103102  1  0  0  0  0
104102  4  0  0  0  0
105104  1  0  0  0  0
106104  4  0  0  0  0
107106  1  0  0  0  0
108106  4  0  0  0  0
109108  1  0  0  0  0
110101  4  0  0  0  0
111110  1  0  0  0  0
112  2  1  0  0  0  0
113112  4  0  0  0  0
114113  1  0  0  0  0
115113  4  0  0  0  0
116115  1  0  0  0  0
117115  4  0  0  0  0
118117  1  0  0  0  0
119117  4  0  0  0  0
120119  1  0  0  0  0
121112  4  0  0  0  0
122121  1  0  0  0  0
123  1  1  0  0  0  0
124125  1  0  0  0  0
126124  1  0  0  0  0
127128  1  0  0  0  0
129127  1  0  0  0  0
130124  1  0  0  0  0
131 14  8  0  0  0  0
132127  1  0  0  0  0
133132  1  0  0  0  0
134132  1  0  0  0  0
135124  1  0  0  0  0
136135  1  0  0  0  0
137135  1  0  0  0  0
138132  1  0  0  0  0
139143  1  0  0  0  0
140141  1  0  0  0  0
141142  1  0  0  0  0
142143  2  0  0  0  0
143217  1  0  0  0  0
144139  1  0  0  0  0
145144  2  0  0  0  0
146140  1  0  0  0  0
147146  1  0  0  0  0
148145  1  0  0  0  0
149148  2  0  0  0  0
150139  1  0  0  0  0
151150  1  0  0  0  0
152151  4  0  0  0  0
153152  1  0  0  0  0
154152  4  0  0  0  0
155154  1  0  0  0  0
156154  4  0  0  0  0
157156  1  0  0  0  0
158156  4  0  0  0  0
159158  1  0  0  0  0
160151  4  0  0  0  0
161160  1  0  0  0  0
162149  1  0  0  0  0
163162  4  0  0  0  0
164163  1  0  0  0  0
165163  4  0  0  0  0
166165  1  0  0  0  0
167165  4  0  0  0  0
168167  1  0  0  0  0
169167  4  0  0  0  0
170169  1  0  0  0  0
171162  4  0  0  0  0
172171  1  0  0  0  0
173148  1  0  0  0  0
174173  4  0  0  0  0
175174  1  0  0  0  0
176174  4  0  0  0  0
177176  1  0  0  0  0
178176  4  0  0  0  0
179178  1  0  0  0  0
180178  4  0  0  0  0
181180  1  0  0  0  0
182173  4  0  0  0  0
183182  1  0  0  0  0
184146  1  0  0  0  0
185184  4  0  0  0  0
186185  1  0  0  0  0
187185  4  0  0  0  0
188187  1  0  0  0  0
189187  4  0  0  0  0
190189  1  0  0  0  0
191189  4  0  0  0  0
192191  1  0  0  0  0
193184  4  0  0  0  0
194193  1  0  0  0  0
195145  1  0  0  0  0
196195  4  0  0  0  0
197196  1  0  0  0  0
198196  4  0  0  0  0
199198  1  0  0  0  0
200198  4  0  0  0  0
201200  1  0  0  0  0
202200  4  0  0  0  0
203202  1  0  0  0  0
204195  4  0  0  0  0
205204  1  0  0  0  0
206144  1  0  0  0  0
207206  4  0  0  0  0
208207  1  0  0  0  0
209207  4  0  0  0  0
210209  1  0  0  0  0
211209  4  0  0  0  0
212211  1  0  0  0  0
213211  4  0  0  0  0
214213  1  0  0  0  0
215206  4  0  0  0  0
216215  1  0  0  0  0
217218  4  0  0  0  0
218219  1  0  0  0  0
220218  4  0  0  0  0
221220  1  0  0  0  0
222220  4  0  0  0  0
223222  1  0  0  0  0
224222  4  0  0  0  0
225224  1  0  0  0  0
226217  4  0  0  0  0
227226  1  0  0  0  0
228142  1  0  0  0  0
229228  4  0  0  0  0
230229  1  0  0  0  0
231229  4  0  0  0  0
232231  1  0  0  0  0
233231  4  0  0  0  0
234233  1  0  0  0  0
235233  4  0  0  0  0
236235  1  0  0  0  0
237228  4  0  0  0  0
238237  1  0  0  0  0
239141  1  0  0  0  0
240239  4  0  0  0  0
241240  1  0  0  0  0
242240  4  0  0  0  0
243242  1  0  0  0  0
244242  4  0  0  0  0
245244  1  0  0  0  0
246244  4  0  0  0  0
247246  1  0  0  0  0
248239  4  0  0  0  0
249248  1  0  0  0  0
250140  1  0  0  0  0
251250  4  0  0  0  0
252251  1  0  0  0  0
253251  4  0  0  0  0
254253  1  0  0  0  0
255253  4  0  0  0  0
256255  1  0  0  0  0
257255  4  0  0  0  0
258257  1  0  0  0  0
259250  4  0  0  0  0
260259  1  0  0  0  0
261139  1  0  0  0  0
262138  1  0  0  0  0
  2123  1  0  0  0  0
  3123  1  0  0  0  0
  9 12  1  0  0  0  0
 11 12  1  0  0  0  0
 16131  8  0  0  0  0
 18131  8  0  0  0  0
 20 22  4  0  0  0  0
 31 33  4  0  0  0  0
 42 44  4  0  0  0  0
 53 55  4  0  0  0  0
 64 66  4  0  0  0  0
 75 77  4  0  0  0  0
 86 88  4  0  0  0  0
 97 99  4  0  0  0  0
108110  4  0  0  0  0
112131  8  0  0  0  0
113131  8  0  0  0  0
119121  4  0  0  0  0
123131  1  0  0  0  0
127130  1  0  0  0  0
130131  1  0  0  0  0
135138  1  0  0  0  0
140261  1  0  0  0  0
141261  1  0  0  0  0
147150  1  0  0  0  0
149150  1  0  0  0  0
152262  8  0  0  0  0
154262  8  0  0  0  0
156262  8  0  0  0  0
158160  4  0  0  0  0
169171  4  0  0  0  0
180182  4  0  0  0  0
191193  4  0  0  0  0
202204  4  0  0  0  0
213215  4  0  0  0  0
224226  4  0  0  0  0
235237  4  0  0  0  0
246248  4  0  0  0  0
250262  8  0  0  0  0
251262  8  0  0  0  0
257259  4  0  0  0  0
261262  1  0  0  0  0
M  END
$$$$
YAXBAD

From CSD data. Using bond type 'Any'. No disordered atoms. Largest molecule.
 78119  0  0  0  0  0  0  0  0999 V2000
   16.9216    4.9918   18.5798 Mn  0  0  0  0  0  0  0  0  0  0  0  0
   19.0977    2.9883   20.1192 P   0  0  0  0  0  0  0  0  0  0  0  0
   16.4591    1.8484   17.2178 P   0  0  0  0  0  0  0  0  0  0  0  0
   17.8993    3.8488   20.0460 O   0  0  0  0  0  0  0  0  0  0  0  0
   18.9049    1.5358   19.9554 O   0  0  0  0  0  0  0  0  0  0  0  0
   16.8996    3.2606   17.3157 O   0  0  0  0  0  0  0  0  0  0  0  0
   17.4578    0.7555   17.3133 O   0  0  0  0  0  0  0  0  0  0  0  0
   14.9173    4.3764   19.5690 N   0  0  0  0  0  0  0  0  0  0  0  0
   15.2024    5.9357   17.4268 N   0  0  0  0  0  0  0  0  0  0  0  0
   14.8449    3.7002   20.7191 C   0  0  0  0  0  0  0  0  0  0  0  0
   15.6396    3.3235   21.0765 H   0  0  0  0  0  0  0  0  0  0  0  0
   13.6568    3.5261   21.4122 C   0  0  0  0  0  0  0  0  0  0  0  0
   13.6398    3.0416   22.2277 H   0  0  0  0  0  0  0  0  0  0  0  0
   12.5071    4.0646   20.8994 C   0  0  0  0  0  0  0  0  0  0  0  0
   11.6783    3.9536   21.3512 H   0  0  0  0  0  0  0  0  0  0  0  0
   12.5681    4.7670   19.7205 C   0  0  0  0  0  0  0  0  0  0  0  0
   11.7835    5.1578   19.3524 H   0  0  0  0  0  0  0  0  0  0  0  0
   13.7939    4.8972   19.0698 C   0  0  0  0  0  0  0  0  0  0  0  0
   13.9430    5.6495   17.7931 C   0  0  0  0  0  0  0  0  0  0  0  0
   12.8655    6.0312   17.0080 C   0  0  0  0  0  0  0  0  0  0  0  0
   11.9770    5.8256   17.2751 H   0  0  0  0  0  0  0  0  0  0  0  0
   13.1028    6.7173   15.8265 C   0  0  0  0  0  0  0  0  0  0  0  0
   12.3784    6.9687   15.2658 H   0  0  0  0  0  0  0  0  0  0  0  0
   14.3860    7.0288   15.4775 C   0  0  0  0  0  0  0  0  0  0  0  0
   14.5668    7.5154   14.6824 H   0  0  0  0  0  0  0  0  0  0  0  0
   15.4133    6.6226   16.3024 C   0  0  0  0  0  0  0  0  0  0  0  0
   16.3062    6.8415   16.0612 H   0  0  0  0  0  0  0  0  0  0  0  0
   19.8080    3.2800   21.7850 C   0  0  0  0  0  0  0  0  0  0  0  0
   21.1928    2.3402   23.8071 C   0  0  0  0  0  0  0  0  0  0  0  0
   21.7440    1.4740   24.2553 H   0  0  0  0  0  0  0  0  0  0  0  0
   15.5849    1.6856   15.6025 C   0  0  0  0  0  0  0  0  0  0  0  0
   14.2348    0.0794   13.7855 C   0  0  0  0  0  0  0  0  0  0  0  0
   13.8573   -0.9263   13.4685 H   0  0  0  0  0  0  0  0  0  0  0  0
   19.7956    1.9911   22.9066 B   0  0  0  0  0  0  0  0  0  0  0  0
   19.3811    0.9680   22.7169 H   0  0  0  0  0  0  0  0  0  0  0  0
   21.3029    2.5530   22.1296 B   0  0  0  0  0  0  0  0  0  0  0  0
   21.8754    1.8954   21.4271 H   0  0  0  0  0  0  0  0  0  0  0  0
   21.1808    4.3028   21.8836 B   0  0  0  0  0  0  0  0  0  0  0  0
   21.6603    4.8087   21.0085 H   0  0  0  0  0  0  0  0  0  0  0  0
   19.6030    4.8382   22.5068 B   0  0  0  0  0  0  0  0  0  0  0  0
   19.0490    5.6943   22.0445 H   0  0  0  0  0  0  0  0  0  0  0  0
   18.7470    3.3999   23.1321 B   0  0  0  0  0  0  0  0  0  0  0  0
   17.6322    3.3123   23.0753 H   0  0  0  0  0  0  0  0  0  0  0  0
   22.1195    3.6594   23.2415 B   0  0  0  0  0  0  0  0  0  0  0  0
   23.2372    3.7266   23.2872 H   0  0  0  0  0  0  0  0  0  0  0  0
   21.0726    5.0774   23.4735 B   0  0  0  0  0  0  0  0  0  0  0  0
   21.4955    6.0964   23.6614 H   0  0  0  0  0  0  0  0  0  0  0  0
   19.5598    4.5196   24.2553 B   0  0  0  0  0  0  0  0  0  0  0  0
   18.9844    5.1711   24.9616 H   0  0  0  0  0  0  0  0  0  0  0  0
   19.6830    2.7606   24.4978 B   0  0  0  0  0  0  0  0  0  0  0  0
   19.2043    2.2425   25.3672 H   0  0  0  0  0  0  0  0  0  0  0  0
   21.1166    3.7938   24.7008 B   0  0  0  0  0  0  0  0  0  0  0  0
   21.5767    3.9516   25.7099 H   0  0  0  0  0  0  0  0  0  0  0  0
   14.2828    0.5843   15.4898 B   0  0  0  0  0  0  0  0  0  0  0  0
   13.9528   -0.0916   16.3202 H   0  0  0  0  0  0  0  0  0  0  0  0
   15.8009    0.2830   14.6241 B   0  0  0  0  0  0  0  0  0  0  0  0
   16.4639   -0.5833   14.8786 H   0  0  0  0  0  0  0  0  0  0  0  0
   16.4490    1.8536   14.1589 B   0  0  0  0  0  0  0  0  0  0  0  0
   17.5533    2.0348   14.0937 H   0  0  0  0  0  0  0  0  0  0  0  0
   15.3309    3.1220   14.7180 B   0  0  0  0  0  0  0  0  0  0  0  0
   15.6969    4.1379   15.0147 H   0  0  0  0  0  0  0  0  0  0  0  0
   14.0044    2.3392   15.5578 B   0  0  0  0  0  0  0  0  0  0  0  0
   13.4965    2.8227   16.4301 H   0  0  0  0  0  0  0  0  0  0  0  0
   15.6028    0.8663   12.9625 B   0  0  0  0  0  0  0  0  0  0  0  0
   16.1389    0.4011   12.0975 H   0  0  0  0  0  0  0  0  0  0  0  0
   15.2697    2.5265   13.1451 B   0  0  0  0  0  0  0  0  0  0  0  0
   15.6229    3.2055   12.3278 H   0  0  0  0  0  0  0  0  0  0  0  0
   13.7920    2.9133   13.8952 B   0  0  0  0  0  0  0  0  0  0  0  0
   13.1405    3.7857   13.6359 H   0  0  0  0  0  0  0  0  0  0  0  0
   13.1209    1.3416   14.3758 B   0  0  0  0  0  0  0  0  0  0  0  0
   12.0176    1.1686   14.4574 H   0  0  0  0  0  0  0  0  0  0  0  0
   13.9488    1.5167   12.8120 B   0  0  0  0  0  0  0  0  0  0  0  0
   13.3985    1.4740   11.8385 H   0  0  0  0  0  0  0  0  0  0  0  0
   19.9807    3.4610   19.3498 H   0  0  0  0  0  0  0  0  0  0  0  0
   15.4604    1.6694   18.0678 H   0  0  0  0  0  0  0  0  0  0  0  0
   18.9161   -0.0978   18.5798 Mn  0  0  0  0  0  0  0  0  0  0  0  0
   16.9329    6.6255   19.9554 O   0  0  0  0  0  0  0  0  0  0  0  0
   18.3800    5.8451   17.3133 O   0  0  0  0  0  0  0  0  0  0  0  0
  1  4  1  0  0  0  0
  2  4  8  0  0  0  0
  3  6  8  0  0  0  0
  5  2  8  0  0  0  0
  6  1  1  0  0  0  0
  7  3  8  0  0  0  0
  8  1  1  0  0  0  0
  9  1  1  0  0  0  0
 10  8  4  0  0  0  0
 11 10  1  0  0  0  0
 12 10  4  0  0  0  0
 13 12  1  0  0  0  0
 14 12  4  0  0  0  0
 15 14  1  0  0  0  0
 16 14  4  0  0  0  0
 17 16  1  0  0  0  0
 18  8  4  0  0  0  0
 19  9  4  0  0  0  0
 20 19  4  0  0  0  0
 21 20  1  0  0  0  0
 22 20  4  0  0  0  0
 23 22  1  0  0  0  0
 24 22  4  0  0  0  0
 25 24  1  0  0  0  0
 26  9  4  0  0  0  0
 27 26  1  0  0  0  0
 28  2  1  0  0  0  0
 29 30  1  0  0  0  0
 31  3  1  0  0  0  0
 32 33  1  0  0  0  0
 34 28  1  0  0  0  0
 35 34  1  0  0  0  0
 36 28  1  0  0  0  0
 37 36  1  0  0  0  0
 38 28  1  0  0  0  0
 39 38  1  0  0  0  0
 40 28  1  0  0  0  0
 41 40  1  0  0  0  0
 42 28  1  0  0  0  0
 43 42  1  0  0  0  0
 44 29  1  0  0  0  0
 45 44  1  0  0  0  0
 46 38  1  0  0  0  0
 47 46  1  0  0  0  0
 48 40  1  0  0  0  0
 49 48  1  0  0  0  0
 50 29  1  0  0  0  0
 51 50  1  0  0  0  0
 52 29  1  0  0  0  0
 53 52  1  0  0  0  0
 54 31  1  0  0  0  0
 55 54  1  0  0  0  0
 56 31  1  0  0  0  0
 57 56  1  0  0  0  0
 58 31  1  0  0  0  0
 59 58  1  0  0  0  0
 60 31  1  0  0  0  0
 61 60  1  0  0  0  0
 62 31  1  0  0  0  0
 63 62  1  0  0  0  0
 64 32  1  0  0  0  0
 65 64  1  0  0  0  0
 66 58  1  0  0  0  0
 67 66  1  0  0  0  0
 68 60  1  0  0  0  0
 69 68  1  0  0  0  0
 70 32  1  0  0  0  0
 71 70  1  0  0  0  0
 72 32  1  0  0  0  0
 73 72  1  0  0  0  0
 74  2  1  0  0  0  0
 75  3  1  0  0  0  0
 76  5  8  0  0  0  0
 77  1  8  0  0  0  0
 78  1  8  0  0  0  0
  7 76  8  0  0  0  0
 16 18  4  0  0  0  0
 18 19  1  0  0  0  0
 24 26  4  0  0  0  0
 29 34  1  0  0  0  0
 29 36  1  0  0  0  0
 32 54  1  0  0  0  0
 32 56  1  0  0  0  0
 34 36  1  0  0  0  0
 34 42  1  0  0  0  0
 34 50  1  0  0  0  0
 36 38  1  0  0  0  0
 36 44  1  0  0  0  0
 38 40  1  0  0  0  0
 38 44  1  0  0  0  0
 40 42  1  0  0  0  0
 40 46  1  0  0  0  0
 42 48  1  0  0  0  0
 42 50  1  0  0  0  0
 44 46  1  0  0  0  0
 44 52  1  0  0  0  0
 46 48  1  0  0  0  0
 46 52  1  0  0  0  0
 48 50  1  0  0  0  0
 48 52  1  0  0  0  0
 50 52  1  0  0  0  0
 54 56  1  0  0  0  0
 54 62  1  0  0  0  0
 54 70  1  0  0  0  0
 56 58  1  0  0  0  0
 56 64  1  0  0  0  0
 58 60  1  0  0  0  0
 58 64  1  0  0  0  0
 60 62  1  0  0  0  0
 60 66  1  0  0  0  0
 62 68  1  0  0  0  0
 62 70  1  0  0  0  0
 64 66  1  0  0  0  0
 64 72  1  0  0  0  0
 66 68  1  0  0  0  0
 66 72  1  0  0  0  0
 68 70  1  0  0  0  0
 68 72  1  0  0  0  0
 70 72  1  0  0  0  0
M  END
$$$$
YECMAU

From CSD data. Using bond type 'Any'. Matching problem. No disordered atoms. Largest molecule.
 87104  0  0  0  0  0  0  0  0999 V2000
    4.0922    2.2130    3.1549 Ir  0  0  0  0  0  0  0  0  0  0  0  0
    6.0040    3.6399    3.5135 P   0  0  0  0  0  0  0  0  0  0  0  0
    3.1510    3.3192    1.2246 P   0  0  0  0  0  0  0  0  0  0  0  0
    7.4643    3.4321    2.4273 C   0  0  0  0  0  0  0  0  0  0  0  0
    7.4840    2.4591    1.4278 C   0  0  0  0  0  0  0  0  0  0  0  0
    8.5747    2.3710    0.5617 C   0  0  0  0  0  0  0  0  0  0  0  0
    9.6442    3.2571    0.6951 C   0  0  0  0  0  0  0  0  0  0  0  0
    9.6244    4.2301    1.6949 C   0  0  0  0  0  0  0  0  0  0  0  0
    8.5337    4.3169    2.5610 C   0  0  0  0  0  0  0  0  0  0  0  0
    5.7630    5.4533    3.2919 C   0  0  0  0  0  0  0  0  0  0  0  0
    5.7970    5.9270    1.9814 C   0  0  0  0  0  0  0  0  0  0  0  0
    5.5747    7.2791    1.7212 C   0  0  0  0  0  0  0  0  0  0  0  0
    5.3183    8.1588    2.7739 C   0  0  0  0  0  0  0  0  0  0  0  0
    5.2842    7.6851    4.0845 C   0  0  0  0  0  0  0  0  0  0  0  0
    5.5065    6.3330    4.3447 C   0  0  0  0  0  0  0  0  0  0  0  0
    6.6409    3.5023    5.2337 C   0  0  0  0  0  0  0  0  0  0  0  0
    5.7323    3.6632    6.2802 C   0  0  0  0  0  0  0  0  0  0  0  0
    6.1660    3.5597    7.6020 C   0  0  0  0  0  0  0  0  0  0  0  0
    7.5068    3.2954    7.8775 C   0  0  0  0  0  0  0  0  0  0  0  0
    8.4154    3.1346    6.8309 C   0  0  0  0  0  0  0  0  0  0  0  0
    7.9817    3.2380    5.5091 C   0  0  0  0  0  0  0  0  0  0  0  0
    4.2032    3.2380   -0.2972 C   0  0  0  0  0  0  0  0  0  0  0  0
    4.6253    1.9816   -0.7324 C   0  0  0  0  0  0  0  0  0  0  0  0
    5.3408    1.8590   -1.9231 C   0  0  0  0  0  0  0  0  0  0  0  0
    5.6370    2.9941   -2.6784 C   0  0  0  0  0  0  0  0  0  0  0  0
    5.2163    4.2518   -2.2432 C   0  0  0  0  0  0  0  0  0  0  0  0
    4.4994    4.3731   -1.0525 C   0  0  0  0  0  0  0  0  0  0  0  0
    2.5892    5.0766    1.3607 C   0  0  0  0  0  0  0  0  0  0  0  0
    2.6491    5.7725    2.5686 C   0  0  0  0  0  0  0  0  0  0  0  0
    2.1353    7.0671    2.6545 C   0  0  0  0  0  0  0  0  0  0  0  0
    1.5603    7.6647    1.5326 C   0  0  0  0  0  0  0  0  0  0  0  0
    1.5004    6.9676    0.3247 C   0  0  0  0  0  0  0  0  0  0  0  0
    2.0142    5.6741    0.2387 C   0  0  0  0  0  0  0  0  0  0  0  0
    1.5087    2.6468    0.7281 C   0  0  0  0  0  0  0  0  0  0  0  0
    1.2597    2.0110   -0.4870 C   0  0  0  0  0  0  0  0  0  0  0  0
   -0.0237    1.5513   -0.7854 C   0  0  0  0  0  0  0  0  0  0  0  0
   -1.0584    1.7275    0.1361 C   0  0  0  0  0  0  0  0  0  0  0  0
   -0.8095    2.3634    1.3511 C   0  0  0  0  0  0  0  0  0  0  0  0
    0.4739    2.8230    1.6495 C   0  0  0  0  0  0  0  0  0  0  0  0
    2.9230    3.1103    4.3232 C   0  0  0  0  0  0  0  0  0  0  0  0
    2.1634    3.4882    5.0847 O   0  0  0  0  0  0  0  0  0  0  0  0
    3.4299   -0.5312    4.5810 C   0  0  0  0  0  0  0  0  0  0  0  0
    3.5140   -0.9448    3.0031 B   0  0  0  0  0  0  0  0  0  0  0  0
    2.5660    0.4265    3.6333 B   0  0  0  0  0  0  0  0  0  0  0  0
    4.3615    0.7086    4.9797 B   0  0  0  0  0  0  0  0  0  0  0  0
    4.9848   -0.7022    4.0988 B   0  0  0  0  0  0  0  0  0  0  0  0
    3.2961    0.4737    2.0888 B   0  0  0  0  0  0  0  0  0  0  0  0
    5.6327    0.8376    3.8362 B   0  0  0  0  0  0  0  0  0  0  0  0
    4.9806    0.1341    2.4134 B   0  0  0  0  0  0  0  0  0  0  0  0
    6.7489    1.8488    1.3368 H   0  0  0  0  0  0  0  0  0  0  0  0
    8.5885    1.7020   -0.1265 H   0  0  0  0  0  0  0  0  0  0  0  0
   10.3944    3.1971    0.1003 H   0  0  0  0  0  0  0  0  0  0  0  0
   10.3594    4.8391    1.7880 H   0  0  0  0  0  0  0  0  0  0  0  0
    8.5199    4.9859    3.2490 H   0  0  0  0  0  0  0  0  0  0  0  0
    5.9724    5.3217    1.2580 H   0  0  0  0  0  0  0  0  0  0  0  0
    5.5986    7.6047    0.8188 H   0  0  0  0  0  0  0  0  0  0  0  0
    5.1654    9.0896    2.5949 H   0  0  0  0  0  0  0  0  0  0  0  0
    5.1073    8.2903    4.8102 H   0  0  0  0  0  0  0  0  0  0  0  0
    5.4826    6.0074    5.2470 H   0  0  0  0  0  0  0  0  0  0  0  0
    4.8092    3.8445    6.0897 H   0  0  0  0  0  0  0  0  0  0  0  0
    5.5405    3.6708    8.3217 H   0  0  0  0  0  0  0  0  0  0  0  0
    7.8059    3.2252    8.7872 H   0  0  0  0  0  0  0  0  0  0  0  0
    9.3385    2.9533    7.0207 H   0  0  0  0  0  0  0  0  0  0  0  0
    8.6072    3.1269    4.7887 H   0  0  0  0  0  0  0  0  0  0  0  0
    4.4215    1.2002   -0.2125 H   0  0  0  0  0  0  0  0  0  0  0  0
    5.6317    0.9946   -2.2225 H   0  0  0  0  0  0  0  0  0  0  0  0
    6.1303    2.9111   -3.4972 H   0  0  0  0  0  0  0  0  0  0  0  0
    5.4200    5.0319   -2.7620 H   0  0  0  0  0  0  0  0  0  0  0  0
    4.2098    5.2375   -0.7520 H   0  0  0  0  0  0  0  0  0  0  0  0
    3.0447    5.3613    3.3397 H   0  0  0  0  0  0  0  0  0  0  0  0
    2.1768    7.5459    3.4829 H   0  0  0  0  0  0  0  0  0  0  0  0
    1.2061    8.5546    1.5899 H   0  0  0  0  0  0  0  0  0  0  0  0
    1.1049    7.3787   -0.4488 H   0  0  0  0  0  0  0  0  0  0  0  0
    1.9728    5.1941   -0.5920 H   0  0  0  0  0  0  0  0  0  0  0  0
    1.9708    1.8897   -1.1196 H   0  0  0  0  0  0  0  0  0  0  0  0
   -0.1944    1.1147   -1.6209 H   0  0  0  0  0  0  0  0  0  0  0  0
   -1.9414    1.4109   -0.0692 H   0  0  0  0  0  0  0  0  0  0  0  0
   -1.5206    2.4834    1.9838 H   0  0  0  0  0  0  0  0  0  0  0  0
    0.6460    3.2597    2.4851 H   0  0  0  0  0  0  0  0  0  0  0  0
    3.0462   -1.1287    5.3115 H   0  0  0  0  0  0  0  0  0  0  0  0
    3.3590   -2.0429    2.5471 H   0  0  0  0  0  0  0  0  0  0  0  0
    1.4039    0.6346    3.6428 H   0  0  0  0  0  0  0  0  0  0  0  0
    4.5172    1.0764    6.0396 H   0  0  0  0  0  0  0  0  0  0  0  0
    5.3582   -1.6050    4.4473 H   0  0  0  0  0  0  0  0  0  0  0  0
    2.8586    0.4941    1.1077 H   0  0  0  0  0  0  0  0  0  0  0  0
    6.7214    1.1670    4.0892 H   0  0  0  0  0  0  0  0  0  0  0  0
    5.6347   -0.1264    1.6066 H   0  0  0  0  0  0  0  0  0  0  0  0
  1  2  1  0  0  0  0
  2  4  1  0  0  0  0
  3  1  1  0  0  0  0
  4  5  1  0  0  0  0
  5  6  1  0  0  0  0
  6  7  1  0  0  0  0
  7  8  1  0  0  0  0
  8  9  1  0  0  0  0
  9  4  1  0  0  0  0
 10  2  1  0  0  0  0
 11 10  1  0  0  0  0
 12 11  1  0  0  0  0
 13 12  1  0  0  0  0
 14 13  1  0  0  0  0
 15 10  1  0  0  0  0
 16  2  1  0  0  0  0
 17 16  1  0  0  0  0
 18 17  1  0  0  0  0
 19 18  1  0  0  0  0
 20 19  1  0  0  0  0
 21 16  1  0  0  0  0
 22  3  1  0  0  0  0
 23 22  1  0  0  0  0
 24 23  1  0  0  0  0
 25 24  1  0  0  0  0
 26 25  1  0  0  0  0
 27 22  1  0  0  0  0
 28  3  1  0  0  0  0
 29 28  1  0  0  0  0
 30 29  1  0  0  0  0
 31 30  1  0  0  0  0
 32 31  1  0  0  0  0
 33 28  1  0  0  0  0
 34  3  1  0  0  0  0
 35 34  1  0  0  0  0
 36 35  1  0  0  0  0
 37 36  1  0  0  0  0
 38 37  1  0  0  0  0
 39 34  1  0  0  0  0
 40  1  1  0  0  0  0
 41 40  1  0  0  0  0
 42 43  1  0  0  0  0
 43 44  1  0  0  0  0
 44  1  1  0  0  0  0
 45  1  1  0  0  0  0
 46 42  1  0  0  0  0
 47  1  1  0  0  0  0
 48  1  1  0  0  0  0
 49  1  1  0  0  0  0
 50  5  1  0  0  0  0
 51  6  1  0  0  0  0
 52  7  1  0  0  0  0
 53  8  1  0  0  0  0
 54  9  1  0  0  0  0
 55 11  1  0  0  0  0
 56 12  1  0  0  0  0
 57 13  1  0  0  0  0
 58 14  1  0  0  0  0
 59 15  1  0  0  0  0
 60 17  1  0  0  0  0
 61 18  1  0  0  0  0
 62 19  1  0  0  0  0
 63 20  1  0  0  0  0
 64 21  1  0  0  0  0
 65 23  1  0  0  0  0
 66 24  1  0  0  0  0
 67 25  1  0  0  0  0
 68 26  1  0  0  0  0
 69 27  1  0  0  0  0
 70 29  1  0  0  0  0
 71 30  1  0  0  0  0
 72 31  1  0  0  0  0
 73 32  1  0  0  0  0
 74 33  1  0  0  0  0
 75 35  1  0  0  0  0
 76 36  1  0  0  0  0
 77 37  1  0  0  0  0
 78 38  1  0  0  0  0
 79 39  1  0  0  0  0
 80 42  1  0  0  0  0
 81 43  1  0  0  0  0
 82 44  1  0  0  0  0
 83 45  1  0  0  0  0
 84 46  1  0  0  0  0
 85 47  1  0  0  0  0
 86 48  1  0  0  0  0
 87 49  1  0  0  0  0
 14 15  1  0  0  0  0
 20 21  1  0  0  0  0
 26 27  1  0  0  0  0
 32 33  1  0  0  0  0
 38 39  1  0  0  0  0
 42 44  1  0  0  0  0
 42 45  1  0  0  0  0
 43 46  1  0  0  0  0
 43 47  1  0  0  0  0
 43 49  1  0  0  0  0
 44 47  1  0  0  0  0
 45 46  1  0  0  0  0
 45 48  1  0  0  0  0
 46 48  1  0  0  0  0
 46 49  1  0  0  0  0
 47 49  1  0  0  0  0
 48 49  1  0  0  0  0
M  END
$$$$
YECMEY

From CSD data. Using bond type 'Any'. Matching problem. No disordered atoms. Largest molecule.
 87104  0  0  0  0  0  0  0  0999 V2000
    2.3596    2.4924    3.5026 Ir  0  0  0  0  0  0  0  0  0  0  0  0
    3.6598    1.5115    5.1623 P   0  0  0  0  0  0  0  0  0  0  0  0
    0.0759    5.2259    3.3181 P   0  0  0  0  0  0  0  0  0  0  0  0
    5.3061    2.3138    5.3103 C   0  0  0  0  0  0  0  0  0  0  0  0
    5.3464    3.6978    5.4765 C   0  0  0  0  0  0  0  0  0  0  0  0
    6.5738    4.3490    5.6143 C   0  0  0  0  0  0  0  0  0  0  0  0
    7.7595    3.6151    5.5843 C   0  0  0  0  0  0  0  0  0  0  0  0
    7.7189    2.2300    5.4181 C   0  0  0  0  0  0  0  0  0  0  0  0
    6.4929    1.5799    5.2803 C   0  0  0  0  0  0  0  0  0  0  0  0
    3.0049    1.6216    6.8752 C   0  0  0  0  0  0  0  0  0  0  0  0
    3.8658    1.8046    7.9580 C   0  0  0  0  0  0  0  0  0  0  0  0
    3.3542    1.8478    9.2563 C   0  0  0  0  0  0  0  0  0  0  0  0
    1.9827    1.7080    9.4705 C   0  0  0  0  0  0  0  0  0  0  0  0
    1.1229    1.5250    8.3877 C   0  0  0  0  0  0  0  0  0  0  0  0
    1.6334    1.4818    7.0894 C   0  0  0  0  0  0  0  0  0  0  0  0
    4.0642   -0.2588    4.9479 C   0  0  0  0  0  0  0  0  0  0  0  0
    3.9537   -1.1831    5.9872 C   0  0  0  0  0  0  0  0  0  0  0  0
    4.2748   -2.5223    5.7655 C   0  0  0  0  0  0  0  0  0  0  0  0
    4.7061   -2.9383    4.5061 C   0  0  0  0  0  0  0  0  0  0  0  0
    4.8165   -2.0141    3.4668 C   0  0  0  0  0  0  0  0  0  0  0  0
    4.4955   -0.6749    3.6870 C   0  0  0  0  0  0  0  0  0  0  0  0
    1.4046    6.3907    2.9352 C   0  0  0  0  0  0  0  0  0  0  0  0
    2.0660    6.2697    1.7132 C   0  0  0  0  0  0  0  0  0  0  0  0
    3.0506    7.1916    1.3583 C   0  0  0  0  0  0  0  0  0  0  0  0
    3.3737    8.2347    2.2268 C   0  0  0  0  0  0  0  0  0  0  0  0
    2.7123    8.3557    3.4488 C   0  0  0  0  0  0  0  0  0  0  0  0
    1.7277    7.4336    3.8023 C   0  0  0  0  0  0  0  0  0  0  0  0
   -0.3841    5.4569    5.0707 C   0  0  0  0  0  0  0  0  0  0  0  0
    0.0777    4.5796    6.0516 C   0  0  0  0  0  0  0  0  0  0  0  0
   -0.3209    4.7433    7.3784 C   0  0  0  0  0  0  0  0  0  0  0  0
   -1.1825    5.7855    7.7243 C   0  0  0  0  0  0  0  0  0  0  0  0
   -1.6443    6.6628    6.7434 C   0  0  0  0  0  0  0  0  0  0  0  0
   -1.2456    6.4991    5.4166 C   0  0  0  0  0  0  0  0  0  0  0  0
   -1.3983    5.8072    2.4320 C   0  0  0  0  0  0  0  0  0  0  0  0
   -1.4004    6.9868    1.6877 C   0  0  0  0  0  0  0  0  0  0  0  0
   -2.5769    7.4247    1.0782 C   0  0  0  0  0  0  0  0  0  0  0  0
   -3.7504    6.6819    1.2130 C   0  0  0  0  0  0  0  0  0  0  0  0
   -3.7481    5.5035    1.9588 C   0  0  0  0  0  0  0  0  0  0  0  0
   -2.5716    5.0656    2.5683 C   0  0  0  0  0  0  0  0  0  0  0  0
    3.8790    3.1722    2.6477 C   0  0  0  0  0  0  0  0  0  0  0  0
    4.7680    3.5985    2.0771 O   0  0  0  0  0  0  0  0  0  0  0  0
    0.5594    1.4351    1.0782 C   0  0  0  0  0  0  0  0  0  0  0  0
   -0.4179    2.4131    1.9094 B   0  0  0  0  0  0  0  0  0  0  0  0
    1.2517    2.8340    1.4287 B   0  0  0  0  0  0  0  0  0  0  0  0
    1.7249    0.7624    1.9483 B   0  0  0  0  0  0  0  0  0  0  0  0
    0.0018    0.6341    2.3886 B   0  0  0  0  0  0  0  0  0  0  0  0
    0.5487    3.4349    2.8813 B   0  0  0  0  0  0  0  0  0  0  0  0
    1.2166    0.6776    3.5821 B   0  0  0  0  0  0  0  0  0  0  0  0
    0.0605    2.0051    3.7259 B   0  0  0  0  0  0  0  0  0  0  0  0
    4.5307    4.2037    5.4975 H   0  0  0  0  0  0  0  0  0  0  0  0
    6.6011    5.3016    5.7281 H   0  0  0  0  0  0  0  0  0  0  0  0
    8.6038    4.0629    5.6787 H   0  0  0  0  0  0  0  0  0  0  0  0
    8.5348    1.7252    5.3986 H   0  0  0  0  0  0  0  0  0  0  0  0
    6.4645    0.6273    5.1665 H   0  0  0  0  0  0  0  0  0  0  0  0
    4.8094    1.9012    7.8112 H   0  0  0  0  0  0  0  0  0  0  0  0
    3.9456    1.9728   10.0006 H   0  0  0  0  0  0  0  0  0  0  0  0
    1.6307    1.7376   10.3630 H   0  0  0  0  0  0  0  0  0  0  0  0
    0.1793    1.4284    8.5345 H   0  0  0  0  0  0  0  0  0  0  0  0
    1.0420    1.3568    6.3451 H   0  0  0  0  0  0  0  0  0  0  0  0
    3.6573   -0.8975    6.8543 H   0  0  0  0  0  0  0  0  0  0  0  0
    4.1988   -3.1579    6.4814 H   0  0  0  0  0  0  0  0  0  0  0  0
    4.9278   -3.8595    4.3549 H   0  0  0  0  0  0  0  0  0  0  0  0
    5.1130   -2.2996    2.5997 H   0  0  0  0  0  0  0  0  0  0  0  0
    4.5716   -0.0381    2.9726 H   0  0  0  0  0  0  0  0  0  0  0  0
    1.8431    5.5521    1.1157 H   0  0  0  0  0  0  0  0  0  0  0  0
    3.5068    7.1090    0.5182 H   0  0  0  0  0  0  0  0  0  0  0  0
    4.0518    8.8696    1.9827 H   0  0  0  0  0  0  0  0  0  0  0  0
    2.9341    9.0733    4.0464 H   0  0  0  0  0  0  0  0  0  0  0  0
    1.2715    7.5163    4.6439 H   0  0  0  0  0  0  0  0  0  0  0  0
    0.6695    3.8626    5.8135 H   0  0  0  0  0  0  0  0  0  0  0  0
   -0.0031    4.1390    8.0523 H   0  0  0  0  0  0  0  0  0  0  0  0
   -1.4564    5.8982    8.6363 H   0  0  0  0  0  0  0  0  0  0  0  0
   -2.2361    7.3798    6.9816 H   0  0  0  0  0  0  0  0  0  0  0  0
   -1.5635    7.1034    4.7412 H   0  0  0  0  0  0  0  0  0  0  0  0
   -0.5937    7.4974    1.5934 H   0  0  0  0  0  0  0  0  0  0  0  0
   -2.5785    8.2361    0.5646 H   0  0  0  0  0  0  0  0  0  0  0  0
   -4.5596    6.9839    0.7937 H   0  0  0  0  0  0  0  0  0  0  0  0
   -4.5548    4.9929    2.0516 H   0  0  0  0  0  0  0  0  0  0  0  0
   -2.5700    4.2541    3.0804 H   0  0  0  0  0  0  0  0  0  0  0  0
    0.3688    1.2266    0.1108 H   0  0  0  0  0  0  0  0  0  0  0  0
   -1.4072    2.7522    1.5260 H   0  0  0  0  0  0  0  0  0  0  0  0
    1.7383    3.3739    0.5840 H   0  0  0  0  0  0  0  0  0  0  0  0
    2.4595   -0.0554    1.5320 H   0  0  0  0  0  0  0  0  0  0  0  0
   -0.6480   -0.1936    2.2942 H   0  0  0  0  0  0  0  0  0  0  0  0
    2.3810    3.7549    4.2306 H   0  0  0  0  0  0  0  0  0  0  0  0
    1.3468   -0.0910    4.3189 H   0  0  0  0  0  0  0  0  0  0  0  0
   -0.6242    2.0620    4.5975 H   0  0  0  0  0  0  0  0  0  0  0  0
  1  2  1  0  0  0  0
  2  4  1  0  0  0  0
  3 22  1  0  0  0  0
  4  5  1  0  0  0  0
  5  6  1  0  0  0  0
  6  7  1  0  0  0  0
  7  8  1  0  0  0  0
  8  9  1  0  0  0  0
  9  4  1  0  0  0  0
 10  2  1  0  0  0  0
 11 10  1  0  0  0  0
 12 11  1  0  0  0  0
 13 12  1  0  0  0  0
 14 13  1  0  0  0  0
 15 10  1  0  0  0  0
 16  2  1  0  0  0  0
 17 16  1  0  0  0  0
 18 17  1  0  0  0  0
 19 18  1  0  0  0  0
 20 19  1  0  0  0  0
 21 16  1  0  0  0  0
 22 23  1  0  0  0  0
 23 24  1  0  0  0  0
 24 25  1  0  0  0  0
 25 26  1  0  0  0  0
 26 27  1  0  0  0  0
 27 22  1  0  0  0  0
 28  3  1  0  0  0  0
 29 28  1  0  0  0  0
 30 29  1  0  0  0  0
 31 30  1  0  0  0  0
 32 31  1  0  0  0  0
 33 28  1  0  0  0  0
 34  3  1  0  0  0  0
 35 34  1  0  0  0  0
 36 35  1  0  0  0  0
 37 36  1  0  0  0  0
 38 37  1  0  0  0  0
 39 34  1  0  0  0  0
 40  1  1  0  0  0  0
 41 40  1  0  0  0  0
 42 43  1  0  0  0  0
 43 44  1  0  0  0  0
 44  1  1  0  0  0  0
 45  1  1  0  0  0  0
 46 42  1  0  0  0  0
 47  1  1  0  0  0  0
 48  1  1  0  0  0  0
 49  1  1  0  0  0  0
 50  5  1  0  0  0  0
 51  6  1  0  0  0  0
 52  7  1  0  0  0  0
 53  8  1  0  0  0  0
 54  9  1  0  0  0  0
 55 11  1  0  0  0  0
 56 12  1  0  0  0  0
 57 13  1  0  0  0  0
 58 14  1  0  0  0  0
 59 15  1  0  0  0  0
 60 17  1  0  0  0  0
 61 18  1  0  0  0  0
 62 19  1  0  0  0  0
 63 20  1  0  0  0  0
 64 21  1  0  0  0  0
 65 23  1  0  0  0  0
 66 24  1  0  0  0  0
 67 25  1  0  0  0  0
 68 26  1  0  0  0  0
 69 27  1  0  0  0  0
 70 29  1  0  0  0  0
 71 30  1  0  0  0  0
 72 31  1  0  0  0  0
 73 32  1  0  0  0  0
 74 33  1  0  0  0  0
 75 35  1  0  0  0  0
 76 36  1  0  0  0  0
 77 37  1  0  0  0  0
 78 38  1  0  0  0  0
 79 39  1  0  0  0  0
 80 42  1  0  0  0  0
 81 43  1  0  0  0  0
 82 44  1  0  0  0  0
 83 45  1  0  0  0  0
 84 46  1  0  0  0  0
 85  1  1  0  0  0  0
 86 48  1  0  0  0  0
 87 49  1  0  0  0  0
  3 47  1  0  0  0  0
 14 15  1  0  0  0  0
 20 21  1  0  0  0  0
 32 33  1  0  0  0  0
 38 39  1  0  0  0  0
 42 44  1  0  0  0  0
 42 45  1  0  0  0  0
 43 46  1  0  0  0  0
 43 47  1  0  0  0  0
 43 49  1  0  0  0  0
 44 47  1  0  0  0  0
 45 46  1  0  0  0  0
 45 48  1  0  0  0  0
 46 48  1  0  0  0  0
 46 49  1  0  0  0  0
 47 49  1  0  0  0  0
 48 49  1  0  0  0  0
M  END
$$$$
YEGDIB

From CSD data. Using bond type 'Any'. No disordered atoms. Largest molecule.
100104  0  0  0  0  0  0  0  0999 V2000
    6.4159    9.5035    8.4427 Cu  0  3  0  0  0  0  0  0  0  0  0  0
   12.1730    4.8398    7.1510 Cu  0  3  0  0  0  0  0  0  0  0  0  0
    7.9657   10.9645    9.3076 P   0  0  0  0  0  0  0  0  0  0  0  0
    8.7848   10.2407    9.9139 H   0  0  0  0  0  0  0  0  0  0  0  0
    8.5769   11.4095    8.3121 H   0  0  0  0  0  0  0  0  0  0  0  0
    7.7111    8.0255    7.2627 P   0  0  0  0  0  0  0  0  0  0  0  0
    6.9528    7.1115    6.8729 H   0  0  0  0  0  0  0  0  0  0  0  0
    8.1038    8.6262    6.2392 H   0  0  0  0  0  0  0  0  0  0  0  0
    7.0340   12.5714    5.3093 P   0  0  0  0  0  0  0  0  0  0  0  0
    8.0257   11.8723    5.6096 H   0  0  0  0  0  0  0  0  0  0  0  0
    6.8930   13.4231    6.2133 H   0  0  0  0  0  0  0  0  0  0  0  0
    7.1703   12.0464   12.2933 P   0  0  0  0  0  0  0  0  0  0  0  0
    8.0616   11.3057   12.7617 H   0  0  0  0  0  0  0  0  0  0  0  0
    6.1343   11.3530   12.2035 H   0  0  0  0  0  0  0  0  0  0  0  0
   10.3188    6.1267    6.7604 P   0  0  0  0  0  0  0  0  0  0  0  0
   10.6664    6.9447    5.8814 H   0  0  0  0  0  0  0  0  0  0  0  0
    9.4976    5.3609    6.2113 H   0  0  0  0  0  0  0  0  0  0  0  0
    5.1682    8.2577    9.9051 P   0  0  0  0  0  0  0  0  0  0  0  0
    5.9405    7.3906   10.3679 H   0  0  0  0  0  0  0  0  0  0  0  0
    4.8854    9.0192   10.8551 H   0  0  0  0  0  0  0  0  0  0  0  0
    5.0304   10.6996    7.0694 P   0  0  0  0  0  0  0  0  0  0  0  0
    4.0255    9.9774    6.8938 H   0  0  0  0  0  0  0  0  0  0  0  0
    4.6424   11.6742    7.7497 H   0  0  0  0  0  0  0  0  0  0  0  0
    3.6435    6.2536    7.7961 P   0  0  0  0  0  0  0  0  0  0  0  0
    4.6824    5.5649    7.8906 H   0  0  0  0  0  0  0  0  0  0  0  0
    3.8279    7.0578    6.8570 H   0  0  0  0  0  0  0  0  0  0  0  0
    3.9640   10.5341    3.2889 Na  0  3  0  0  0  0  0  0  0  0  0  0
    3.5089   11.3564    1.2584 O   0  0  0  0  0  0  0  0  0  0  0  0
    1.8573   10.5642    4.1503 O   0  0  0  0  0  0  0  0  0  0  0  0
    4.3699    8.3219    3.5274 O   0  0  0  0  0  0  0  0  0  0  0  0
    1.0838   11.7684    5.9707 C   0  0  0  0  0  0  0  0  0  0  0  0
    1.9079   12.0801    6.4220 H   0  0  0  0  0  0  0  0  0  0  0  0
    0.3242   12.3357    6.2552 H   0  0  0  0  0  0  0  0  0  0  0  0
    5.3086    6.2158    4.0463 C   0  0  0  0  0  0  0  0  0  0  0  0
    6.1893    5.7651    4.0108 H   0  0  0  0  0  0  0  0  0  0  0  0
    4.7616    5.8110    4.7652 H   0  0  0  0  0  0  0  0  0  0  0  0
    4.6094    6.1592    2.7259 C   0  0  0  0  0  0  0  0  0  0  0  0
    4.1154    5.3081    2.6178 H   0  0  0  0  0  0  0  0  0  0  0  0
    5.2480    6.2622    1.9768 H   0  0  0  0  0  0  0  0  0  0  0  0
    3.5025    7.3157    9.4466 B   0  5  0  0  0  0  0  0  0  0  0  0
    3.2135    6.6126   10.3233 H   0  0  0  0  0  0  0  0  0  0  0  0
    2.6511    8.0938    9.3223 H   0  0  0  0  0  0  0  0  0  0  0  0
    5.4584    7.7189    4.2375 C   0  0  0  0  0  0  0  0  0  0  0  0
    5.4162    7.9517    5.1989 H   0  0  0  0  0  0  0  0  0  0  0  0
    6.3243    8.0302    3.8733 H   0  0  0  0  0  0  0  0  0  0  0  0
    9.2717    7.1672    8.0453 B   0  5  0  0  0  0  0  0  0  0  0  0
    8.9242    6.4650    8.9006 H   0  0  0  0  0  0  0  0  0  0  0  0
    9.9534    7.9812    8.5116 H   0  0  0  0  0  0  0  0  0  0  0  0
    7.7098   12.5147   10.4718 B   0  5  0  0  0  0  0  0  0  0  0  0
    6.8996   13.2029   10.0069 H   0  0  0  0  0  0  0  0  0  0  0  0
    8.6999   13.1170   10.5177 H   0  0  0  0  0  0  0  0  0  0  0  0
    0.8229   10.3431    6.2606 C   0  0  0  0  0  0  0  0  0  0  0  0
   -0.1479   10.1726    6.3487 H   0  0  0  0  0  0  0  0  0  0  0  0
    1.2752   10.0650    7.0968 H   0  0  0  0  0  0  0  0  0  0  0  0
    1.2450   11.7879    4.4665 C   0  0  0  0  0  0  0  0  0  0  0  0
    0.3648   11.8646    4.0208 H   0  0  0  0  0  0  0  0  0  0  0  0
    1.8137   12.5475    4.1851 H   0  0  0  0  0  0  0  0  0  0  0  0
    5.4681   11.4271    5.3131 B   0  5  0  0  0  0  0  0  0  0  0  0
    5.6467   10.5469    4.5782 H   0  0  0  0  0  0  0  0  0  0  0  0
    4.5604   12.0334    4.9223 H   0  0  0  0  0  0  0  0  0  0  0  0
    3.6665    7.3316    2.8068 C   0  0  0  0  0  0  0  0  0  0  0  0
    3.4347    7.6575    1.9008 H   0  0  0  0  0  0  0  0  0  0  0  0
    2.8338    7.0802    3.2785 H   0  0  0  0  0  0  0  0  0  0  0  0
    2.3894   11.0240    0.5536 C   0  0  0  0  0  0  0  0  0  0  0  0
    1.5755   11.2410    1.0743 H   0  0  0  0  0  0  0  0  0  0  0  0
    2.3847   10.0567    0.3461 H   0  0  0  0  0  0  0  0  0  0  0  0
    3.4494   12.8171   -0.5042 C   0  0  0  0  0  0  0  0  0  0  0  0
    3.0777   13.6287   -0.0780 H   0  0  0  0  0  0  0  0  0  0  0  0
    3.8761   13.0680   -1.3618 H   0  0  0  0  0  0  0  0  0  0  0  0
    4.4093   12.1433    0.3887 C   0  0  0  0  0  0  0  0  0  0  0  0
    4.9378   12.7976    0.9082 H   0  0  0  0  0  0  0  0  0  0  0  0
    5.0240   11.5572   -0.1219 H   0  0  0  0  0  0  0  0  0  0  0  0
    1.3936    9.6110    5.0715 C   0  0  0  0  0  0  0  0  0  0  0  0
    2.1382    9.0260    5.3582 H   0  0  0  0  0  0  0  0  0  0  0  0
    0.6955    9.0479    4.6534 H   0  0  0  0  0  0  0  0  0  0  0  0
    2.4337   11.8286   -0.7048 C   0  0  0  0  0  0  0  0  0  0  0  0
    2.6575   11.2525   -1.4782 H   0  0  0  0  0  0  0  0  0  0  0  0
    1.5587   12.2602   -0.8731 H   0  0  0  0  0  0  0  0  0  0  0  0
    0.8974    6.3778    9.9623 Na  0  3  0  0  0  0  0  0  0  0  0  0
   -0.1730    7.0186   11.9193 O   0  0  0  0  0  0  0  0  0  0  0  0
   -0.6685    6.1486   12.9561 C   0  0  0  0  0  0  0  0  0  0  0  0
   -0.1324    6.2516   13.7819 H   0  0  0  0  0  0  0  0  0  0  0  0
   -0.6250    5.2026   12.6657 H   0  0  0  0  0  0  0  0  0  0  0  0
   -2.0825    6.5588   13.1935 C   0  0  0  0  0  0  0  0  0  0  0  0
   -2.6960    6.0936   12.5717 H   0  0  0  0  0  0  0  0  0  0  0  0
   -2.3568    6.3616   14.1243 H   0  0  0  0  0  0  0  0  0  0  0  0
   -0.9612    8.2140   11.9655 C   0  0  0  0  0  0  0  0  0  0  0  0
   -1.3284    8.4099   11.0673 H   0  0  0  0  0  0  0  0  0  0  0  0
   -0.3979    8.9783   12.2449 H   0  0  0  0  0  0  0  0  0  0  0  0
   -2.0786    8.0213   12.9403 C   0  0  0  0  0  0  0  0  0  0  0  0
   -1.9099    8.5262   13.7756 H   0  0  0  0  0  0  0  0  0  0  0  0
   -2.9404    8.3176   12.5540 H   0  0  0  0  0  0  0  0  0  0  0  0
    1.9538    4.8398    7.1510 Cu  0  3  0  0  0  0  0  0  0  0  0  0
    7.5114   13.6816    3.3534 Cu  0  3  0  0  0  0  0  0  0  0  0  0
    6.7573   13.6816   13.8578 Cu  0  3  0  0  0  0  0  0  0  0  0  0
   12.6503    3.7296    5.1950 P   0  0  0  0  0  0  0  0  0  0  0  0
   11.7599    3.2046    8.7155 P   0  0  0  0  0  0  0  0  0  0  0  0
   13.8627    6.2536    7.7961 P   0  0  0  0  0  0  0  0  0  0  0  0
    0.0112    4.2752   10.4911 H   0  0  0  0  0  0  0  0  0  0  0  0
    7.8136   15.2196   11.0464 Na  0  3  0  0  0  0  0  0  0  0  0  0
  1  3  1  0  0  0  0
  2 15  1  0  0  0  0
  3  4  1  0  0  0  0
  5  3  1  0  0  0  0
  6  1  1  0  0  0  0
  7  6  1  0  0  0  0
  8  6  1  0  0  0  0
  9 10  1  0  0  0  0
 11  9  1  0  0  0  0
 12 13  1  0  0  0  0
 14 12  1  0  0  0  0
 15 16  1  0  0  0  0
 17 15  1  0  0  0  0
 18  1  1  0  0  0  0
 19 18  1  0  0  0  0
 20 18  1  0  0  0  0
 21  1  1  0  0  0  0
 22 21  1  0  0  0  0
 23 21  1  0  0  0  0
 24 25  1  0  0  0  0
 26 24  1  0  0  0  0
 27 28  1  0  0  0  0
 28 64  1  0  0  0  0
 29 27  1  0  0  0  0
 30 27  1  0  0  0  0
 31 32  1  0  0  0  0
 33 31  1  0  0  0  0
 34 35  1  0  0  0  0
 36 34  1  0  0  0  0
 37 34  1  0  0  0  0
 38 37  1  0  0  0  0
 39 37  1  0  0  0  0
 40 18  1  0  0  0  0
 41 40  1  0  0  0  0
 42 40  1  0  0  0  0
 43 30  1  0  0  0  0
 44 43  1  0  0  0  0
 45 43  1  0  0  0  0
 46  6  1  0  0  0  0
 47 46  1  0  0  0  0
 48 46  1  0  0  0  0
 49  3  1  0  0  0  0
 50 49  1  0  0  0  0
 51 49  1  0  0  0  0
 52 31  1  0  0  0  0
 53 52  1  0  0  0  0
 54 52  1  0  0  0  0
 55 29  1  0  0  0  0
 56 55  1  0  0  0  0
 57 55  1  0  0  0  0
 58  9  1  0  0  0  0
 59 27  1  0  0  0  0
 60 27  1  0  0  0  0
 61 30  1  0  0  0  0
 62 61  1  0  0  0  0
 63 61  1  0  0  0  0
 64 65  1  0  0  0  0
 66 64  1  0  0  0  0
 67 68  1  0  0  0  0
 69 67  1  0  0  0  0
 70 28  1  0  0  0  0
 71 70  1  0  0  0  0
 72 70  1  0  0  0  0
 73 29  1  0  0  0  0
 74 73  1  0  0  0  0
 75 73  1  0  0  0  0
 76 64  1  0  0  0  0
 77 76  1  0  0  0  0
 78 76  1  0  0  0  0
 79 41  1  0  0  0  0
 80 79  1  0  0  0  0
 81 80  1  0  0  0  0
 82 81  1  0  0  0  0
 83 81  1  0  0  0  0
 84 81  1  0  0  0  0
 85 84  1  0  0  0  0
 86 84  1  0  0  0  0
 87 80  1  0  0  0  0
 88 87  1  0  0  0  0
 89 87  1  0  0  0  0
 90 84  1  0  0  0  0
 91 90  1  0  0  0  0
 92 90  1  0  0  0  0
 93 24  8  0  0  0  0
 94  9  8  0  0  0  0
 95 12  8  0  0  0  0
 96  2  8  0  0  0  0
 97  2  8  0  0  0  0
 98  2  8  0  0  0  0
 99 79  8  0  0  0  0
100 51  8  0  0  0  0
 12 49  1  0  0  0  0
 15 46  1  0  0  0  0
 21 58  1  0  0  0  0
 24 40  1  0  0  0  0
 31 55  1  0  0  0  0
 34 43  1  0  0  0  0
 37 61  1  0  0  0  0
 52 73  1  0  0  0  0
 58 59  1  0  0  0  0
 58 60  1  0  0  0  0
 67 70  1  0  0  0  0
 67 76  1  0  0  0  0
 87 90  1  0  0  0  0
M  END
$$$$
YEJFOI

From CSD data. Using bond type 'Any'. No disordered atoms. Largest molecule.
 95117  0  0  0  0  0  0  0  0999 V2000
    5.8748    4.9685   11.0083 Pt  0  0  0  0  0  0  0  0  0  0  0  0
    7.3020    3.8434    9.4743 P   0  0  0  0  0  0  0  0  0  0  0  0
    4.5798    3.1523   11.7779 P   0  0  0  0  0  0  0  0  0  0  0  0
    2.8776    5.5077   10.5684 O   0  0  0  0  0  0  0  0  0  0  0  0
    2.0062    5.7303    9.4632 C   0  0  0  0  0  0  0  0  0  0  0  0
    1.2977    5.0822    9.4785 H   0  0  0  0  0  0  0  0  0  0  0  0
    2.4995    5.6477    8.6448 H   0  0  0  0  0  0  0  0  0  0  0  0
    1.6333    6.6135    9.5234 H   0  0  0  0  0  0  0  0  0  0  0  0
    7.3101    4.7619    7.8956 C   0  0  0  0  0  0  0  0  0  0  0  0
    6.0999    5.0305    7.2757 C   0  0  0  0  0  0  0  0  0  0  0  0
    5.3073    4.8239    7.7163 H   0  0  0  0  0  0  0  0  0  0  0  0
    6.0472    5.5961    6.0245 C   0  0  0  0  0  0  0  0  0  0  0  0
    5.2245    5.7407    5.6159 H   0  0  0  0  0  0  0  0  0  0  0  0
    7.2052    5.9473    5.3777 C   0  0  0  0  0  0  0  0  0  0  0  0
    7.1725    6.3036    4.5196 H   0  0  0  0  0  0  0  0  0  0  0  0
    8.4159    5.7691    6.0091 C   0  0  0  0  0  0  0  0  0  0  0  0
    9.2004    6.0454    5.5929 H   0  0  0  0  0  0  0  0  0  0  0  0
    8.4725    5.1829    7.2514 C   0  0  0  0  0  0  0  0  0  0  0  0
    9.2955    5.0667    7.6676 H   0  0  0  0  0  0  0  0  0  0  0  0
    6.9990    2.1176    8.9061 C   0  0  0  0  0  0  0  0  0  0  0  0
    6.4344    1.8154    7.6791 C   0  0  0  0  0  0  0  0  0  0  0  0
    6.1792    2.5075    7.1131 H   0  0  0  0  0  0  0  0  0  0  0  0
    6.2405    0.5139    7.2783 C   0  0  0  0  0  0  0  0  0  0  0  0
    5.8286    0.3254    6.4663 H   0  0  0  0  0  0  0  0  0  0  0  0
    6.6661   -0.5010    8.0966 C   0  0  0  0  0  0  0  0  0  0  0  0
    6.5502   -1.3816    7.8290 H   0  0  0  0  0  0  0  0  0  0  0  0
    7.2618   -0.2350    9.3044 C   0  0  0  0  0  0  0  0  0  0  0  0
    7.5519   -0.9297    9.8512 H   0  0  0  0  0  0  0  0  0  0  0  0
    7.4207    1.0717    9.6924 C   0  0  0  0  0  0  0  0  0  0  0  0
    7.8261    1.2550   10.5095 H   0  0  0  0  0  0  0  0  0  0  0  0
    9.0193    3.7006   10.0382 C   0  0  0  0  0  0  0  0  0  0  0  0
    9.9983    3.1118    9.2198 C   0  0  0  0  0  0  0  0  0  0  0  0
    9.7734    2.8251    8.3643 H   0  0  0  0  0  0  0  0  0  0  0  0
   11.2902    2.9620    9.6732 C   0  0  0  0  0  0  0  0  0  0  0  0
   11.9339    2.5901    9.1135 H   0  0  0  0  0  0  0  0  0  0  0  0
   11.6338    3.3468   10.9270 C   0  0  0  0  0  0  0  0  0  0  0  0
   12.5113    3.2409   11.2190 H   0  0  0  0  0  0  0  0  0  0  0  0
   10.6959    3.8891   11.7684 C   0  0  0  0  0  0  0  0  0  0  0  0
   10.9287    4.1267   12.6368 H   0  0  0  0  0  0  0  0  0  0  0  0
    9.3959    4.0802   11.3163 C   0  0  0  0  0  0  0  0  0  0  0  0
    8.7687    4.4727   11.8811 H   0  0  0  0  0  0  0  0  0  0  0  0
    3.4789    2.2983   10.6004 C   0  0  0  0  0  0  0  0  0  0  0  0
    3.5395    2.6315    9.2621 C   0  0  0  0  0  0  0  0  0  0  0  0
    4.1437    3.2771    8.9791 H   0  0  0  0  0  0  0  0  0  0  0  0
    2.7233    2.0246    8.3438 C   0  0  0  0  0  0  0  0  0  0  0  0
    2.7712    2.2596    7.4460 H   0  0  0  0  0  0  0  0  0  0  0  0
    1.8301    1.0588    8.7626 C   0  0  0  0  0  0  0  0  0  0  0  0
    1.2880    0.6327    8.1389 H   0  0  0  0  0  0  0  0  0  0  0  0
    1.7341    0.7231   10.0946 C   0  0  0  0  0  0  0  0  0  0  0  0
    1.1279    0.0749   10.3712 H   0  0  0  0  0  0  0  0  0  0  0  0
    2.5380    1.3506   11.0064 C   0  0  0  0  0  0  0  0  0  0  0  0
    2.4581    1.1414   11.9080 H   0  0  0  0  0  0  0  0  0  0  0  0
    5.7541    1.9032   12.4178 C   0  0  0  0  0  0  0  0  0  0  0  0
    5.5746    0.5268   12.2525 C   0  0  0  0  0  0  0  0  0  0  0  0
    4.8349    0.2169   11.7825 H   0  0  0  0  0  0  0  0  0  0  0  0
    6.4510   -0.3590   12.7623 C   0  0  0  0  0  0  0  0  0  0  0  0
    6.3225   -1.2705   12.6304 H   0  0  0  0  0  0  0  0  0  0  0  0
    7.5264    0.0826   13.4679 C   0  0  0  0  0  0  0  0  0  0  0  0
    8.1249   -0.5320   13.8240 H   0  0  0  0  0  0  0  0  0  0  0  0
    7.7472    1.4591   13.6690 C   0  0  0  0  0  0  0  0  0  0  0  0
    8.4863    1.7509   14.1506 H   0  0  0  0  0  0  0  0  0  0  0  0
    6.8497    2.3629   13.1388 C   0  0  0  0  0  0  0  0  0  0  0  0
    6.9761    3.2771   13.2643 H   0  0  0  0  0  0  0  0  0  0  0  0
    3.5019    3.4062   13.2400 C   0  0  0  0  0  0  0  0  0  0  0  0
    3.9351    3.1221   14.5092 C   0  0  0  0  0  0  0  0  0  0  0  0
    4.7994    2.8071   14.6475 H   0  0  0  0  0  0  0  0  0  0  0  0
    3.0762    3.3055   15.5939 C   0  0  0  0  0  0  0  0  0  0  0  0
    3.3763    3.1273   16.4558 H   0  0  0  0  0  0  0  0  0  0  0  0
    1.7913    3.7496   15.3980 C   0  0  0  0  0  0  0  0  0  0  0  0
    1.2143    3.8323   16.1216 H   0  0  0  0  0  0  0  0  0  0  0  0
    1.3715    4.0570   14.1723 C   0  0  0  0  0  0  0  0  0  0  0  0
    0.5095    4.3823   14.0443 H   0  0  0  0  0  0  0  0  0  0  0  0
    2.2185    3.8943   13.0888 C   0  0  0  0  0  0  0  0  0  0  0  0
    1.9151    4.1163   12.2385 H   0  0  0  0  0  0  0  0  0  0  0  0
    5.5822    8.0519   12.4805 B   0  0  0  0  0  0  0  0  0  0  0  0
    5.6102    8.5787   13.4462 H   0  0  0  0  0  0  0  0  0  0  0  0
    6.6645    6.7091   12.1245 B   0  0  0  0  0  0  0  0  0  0  0  0
    7.3850    6.3656   12.8814 H   0  0  0  0  0  0  0  0  0  0  0  0
    4.8774    6.4328   12.3691 B   0  0  0  0  0  0  0  0  0  0  0  0
    4.4801    5.9266   13.2617 H   0  0  0  0  0  0  0  0  0  0  0  0
    4.0563    7.8273   11.6365 B   0  0  0  0  0  0  0  0  0  0  0  0
    3.1220    8.2275   12.0553 H   0  0  0  0  0  0  0  0  0  0  0  0
    5.2976    8.8499   10.9219 B   0  0  0  0  0  0  0  0  0  0  0  0
    5.1204    9.9319   10.8489 H   0  0  0  0  0  0  0  0  0  0  0  0
    6.9158    8.2534   11.3074 B   0  0  0  0  0  0  0  0  0  0  0  0
    7.7678    8.9119   11.5302 H   0  0  0  0  0  0  0  0  0  0  0  0
    3.9942    6.2804   10.8053 B   0  0  0  0  0  0  0  0  0  0  0  0
    4.3569    7.8660    9.8576 B   0  0  0  0  0  0  0  0  0  0  0  0
    3.8051    7.9331    8.9086 H   0  0  0  0  0  0  0  0  0  0  0  0
    6.2546    8.1552    9.6719 B   0  0  0  0  0  0  0  0  0  0  0  0
    6.5680    8.3721    8.6397 H   0  0  0  0  0  0  0  0  0  0  0  0
    7.2065    6.7478   10.4147 B   0  0  0  0  0  0  0  0  0  0  0  0
    7.9873    6.3424    9.7564 H   0  0  0  0  0  0  0  0  0  0  0  0
    4.5990    6.7401    9.6053 H   0  0  0  0  0  0  0  0  0  0  0  0
    6.5463    6.8692    9.4901 H   0  0  0  0  0  0  0  0  0  0  0  0
  1  2  1  0  0  0  0
  2  9  1  0  0  0  0
  3  1  1  0  0  0  0
  4  5  1  0  0  0  0
  5  6  1  0  0  0  0
  7  5  1  0  0  0  0
  8  5  1  0  0  0  0
  9 10  4  0  0  0  0
 10 11  1  0  0  0  0
 12 10  4  0  0  0  0
 13 12  1  0  0  0  0
 14 12  4  0  0  0  0
 15 14  1  0  0  0  0
 16 14  4  0  0  0  0
 17 16  1  0  0  0  0
 18  9  4  0  0  0  0
 19 18  1  0  0  0  0
 20  2  1  0  0  0  0
 21 20  4  0  0  0  0
 22 21  1  0  0  0  0
 23 21  4  0  0  0  0
 24 23  1  0  0  0  0
 25 23  4  0  0  0  0
 26 25  1  0  0  0  0
 27 25  4  0  0  0  0
 28 27  1  0  0  0  0
 29 20  4  0  0  0  0
 30 29  1  0  0  0  0
 31  2  1  0  0  0  0
 32 31  4  0  0  0  0
 33 32  1  0  0  0  0
 34 32  4  0  0  0  0
 35 34  1  0  0  0  0
 36 34  4  0  0  0  0
 37 36  1  0  0  0  0
 38 36  4  0  0  0  0
 39 38  1  0  0  0  0
 40 31  4  0  0  0  0
 41 40  1  0  0  0  0
 42  3  1  0  0  0  0
 43 42  4  0  0  0  0
 44 43  1  0  0  0  0
 45 43  4  0  0  0  0
 46 45  1  0  0  0  0
 47 45  4  0  0  0  0
 48 47  1  0  0  0  0
 49 47  4  0  0  0  0
 50 49  1  0  0  0  0
 51 42  4  0  0  0  0
 52 51  1  0  0  0  0
 53  3  1  0  0  0  0
 54 53  4  0  0  0  0
 55 54  1  0  0  0  0
 56 54  4  0  0  0  0
 57 56  1  0  0  0  0
 58 56  4  0  0  0  0
 59 58  1  0  0  0  0
 60 58  4  0  0  0  0
 61 60  1  0  0  0  0
 62 53  4  0  0  0  0
 63 62  1  0  0  0  0
 64  3  1  0  0  0  0
 65 64  4  0  0  0  0
 66 65  1  0  0  0  0
 67 65  4  0  0  0  0
 68 67  1  0  0  0  0
 69 67  4  0  0  0  0
 70 69  1  0  0  0  0
 71 69  4  0  0  0  0
 72 71  1  0  0  0  0
 73 64  4  0  0  0  0
 74 73  1  0  0  0  0
 75 76  1  0  0  0  0
 77  1  1  0  0  0  0
 78 77  1  0  0  0  0
 79  1  1  0  0  0  0
 80 79  1  0  0  0  0
 81 75  1  0  0  0  0
 82 81  1  0  0  0  0
 83 75  1  0  0  0  0
 84 83  1  0  0  0  0
 85 75  1  0  0  0  0
 86 85  1  0  0  0  0
 87  1  1  0  0  0  0
 88 81  1  0  0  0  0
 89 88  1  0  0  0  0
 90 83  1  0  0  0  0
 91 90  1  0  0  0  0
 92  1  1  0  0  0  0
 93 92  1  0  0  0  0
 94 87  1  0  0  0  0
 95 90  1  0  0  0  0
  4 87  1  0  0  0  0
 16 18  4  0  0  0  0
 27 29  4  0  0  0  0
 38 40  4  0  0  0  0
 49 51  4  0  0  0  0
 60 62  4  0  0  0  0
 71 73  4  0  0  0  0
 75 77  1  0  0  0  0
 75 79  1  0  0  0  0
 77 79  1  0  0  0  0
 77 85  1  0  0  0  0
 77 92  1  0  0  0  0
 79 81  1  0  0  0  0
 79 87  1  0  0  0  0
 81 83  1  0  0  0  0
 81 87  1  0  0  0  0
 83 85  1  0  0  0  0
 83 88  1  0  0  0  0
 85 90  1  0  0  0  0
 85 92  1  0  0  0  0
 87 88  1  0  0  0  0
 88 90  1  0  0  0  0
 88 94  1  0  0  0  0
 90 92  1  0  0  0  0
 92 95  1  0  0  0  0
M  END
$$$$
YEJFUO

From CSD data. Using bond type 'Any'. No disordered atoms. Largest molecule.
101123  0  0  0  0  0  0  0  0999 V2000
    6.8231    3.9824   14.9121 Pt  0  0  0  0  0  0  0  0  0  0  0  0
    5.4266    5.5130   16.0755 P   0  0  0  0  0  0  0  0  0  0  0  0
    8.8553    5.1922   14.9761 P   0  0  0  0  0  0  0  0  0  0  0  0
    6.1087    6.9207   16.9849 C   0  0  0  0  0  0  0  0  0  0  0  0
    6.4413    8.1084   16.3024 C   0  0  0  0  0  0  0  0  0  0  0  0
    6.3049    8.1387   15.3838 H   0  0  0  0  0  0  0  0  0  0  0  0
    6.9457    9.1880   16.8982 C   0  0  0  0  0  0  0  0  0  0  0  0
    7.0445    9.9863   16.4352 H   0  0  0  0  0  0  0  0  0  0  0  0
    7.2960    9.0820   18.2373 C   0  0  0  0  0  0  0  0  0  0  0  0
    7.7419    9.7980   18.6358 H   0  0  0  0  0  0  0  0  0  0  0  0
    7.0209    7.9029   19.0434 C   0  0  0  0  0  0  0  0  0  0  0  0
    7.2365    7.8445   19.9473 H   0  0  0  0  0  0  0  0  0  0  0  0
    6.4086    6.8883   18.3572 C   0  0  0  0  0  0  0  0  0  0  0  0
    6.1748    6.1224   18.8313 H   0  0  0  0  0  0  0  0  0  0  0  0
    4.5351    4.5258   17.3206 C   0  0  0  0  0  0  0  0  0  0  0  0
    5.2550    3.6756   18.1709 C   0  0  0  0  0  0  0  0  0  0  0  0
    6.1841    3.6756   18.1119 H   0  0  0  0  0  0  0  0  0  0  0  0
    4.6519    2.8276   19.1006 C   0  0  0  0  0  0  0  0  0  0  0  0
    5.1335    2.2002   19.5894 H   0  0  0  0  0  0  0  0  0  0  0  0
    3.2759    2.9898   19.2463 C   0  0  0  0  0  0  0  0  0  0  0  0
    2.8467    2.4749   19.8919 H   0  0  0  0  0  0  0  0  0  0  0  0
    2.5252    3.8335   18.5214 C   0  0  0  0  0  0  0  0  0  0  0  0
    1.6133    3.9222   18.6782 H   0  0  0  0  0  0  0  0  0  0  0  0
    3.1803    4.5907   17.4977 C   0  0  0  0  0  0  0  0  0  0  0  0
    2.6738    5.1381   16.9425 H   0  0  0  0  0  0  0  0  0  0  0  0
    4.1444    6.3041   15.0518 C   0  0  0  0  0  0  0  0  0  0  0  0
    3.9485    5.9861   13.7089 C   0  0  0  0  0  0  0  0  0  0  0  0
    4.4619    5.3241   13.3049 H   0  0  0  0  0  0  0  0  0  0  0  0
    2.9774    6.6676   12.9766 C   0  0  0  0  0  0  0  0  0  0  0  0
    2.8905    6.4837   12.0691 H   0  0  0  0  0  0  0  0  0  0  0  0
    2.1390    7.6108   13.5503 C   0  0  0  0  0  0  0  0  0  0  0  0
    1.4244    7.9721   13.0781 H   0  0  0  0  0  0  0  0  0  0  0  0
    2.3950    7.9678   14.7843 C   0  0  0  0  0  0  0  0  0  0  0  0
    1.9027    8.6752   15.1385 H   0  0  0  0  0  0  0  0  0  0  0  0
    3.3763    7.3556   15.6291 C   0  0  0  0  0  0  0  0  0  0  0  0
    3.5045    7.6281   16.5090 H   0  0  0  0  0  0  0  0  0  0  0  0
    9.6512    5.5794   16.5698 C   0  0  0  0  0  0  0  0  0  0  0  0
   10.9145    6.1852   16.6529 C   0  0  0  0  0  0  0  0  0  0  0  0
   11.4273    6.2955   15.8837 H   0  0  0  0  0  0  0  0  0  0  0  0
   11.4061    6.6243   17.8869 C   0  0  0  0  0  0  0  0  0  0  0  0
   12.1770    7.1414   17.9385 H   0  0  0  0  0  0  0  0  0  0  0  0
   10.6880    6.2544   19.0637 C   0  0  0  0  0  0  0  0  0  0  0  0
   10.9733    6.5681   19.8919 H   0  0  0  0  0  0  0  0  0  0  0  0
    9.5909    5.4474   18.9918 C   0  0  0  0  0  0  0  0  0  0  0  0
    9.2219    5.0926   19.7683 H   0  0  0  0  0  0  0  0  0  0  0  0
    9.0253    5.1554   17.7559 C   0  0  0  0  0  0  0  0  0  0  0  0
    8.2293    4.6773   17.7116 H   0  0  0  0  0  0  0  0  0  0  0  0
   10.2105    4.5172   13.9616 C   0  0  0  0  0  0  0  0  0  0  0  0
   10.4093    4.8655   12.6723 C   0  0  0  0  0  0  0  0  0  0  0  0
    9.8525    5.5145   12.3089 H   0  0  0  0  0  0  0  0  0  0  0  0
   11.3792    4.3246   11.8606 C   0  0  0  0  0  0  0  0  0  0  0  0
   11.4552    4.5237   10.9550 H   0  0  0  0  0  0  0  0  0  0  0  0
   12.2662    3.4247   12.5505 C   0  0  0  0  0  0  0  0  0  0  0  0
   12.9504    3.0353   12.0617 H   0  0  0  0  0  0  0  0  0  0  0  0
   12.1595    3.1131   13.8362 C   0  0  0  0  0  0  0  0  0  0  0  0
   12.7529    2.5074   14.2180 H   0  0  0  0  0  0  0  0  0  0  0  0
   11.1514    3.6994   14.6128 C   0  0  0  0  0  0  0  0  0  0  0  0
   11.1061    3.5545   15.5295 H   0  0  0  0  0  0  0  0  0  0  0  0
    8.5470    6.7260   14.1332 C   0  0  0  0  0  0  0  0  0  0  0  0
    9.1777    7.9527   14.3490 C   0  0  0  0  0  0  0  0  0  0  0  0
    9.8218    7.9938   15.0186 H   0  0  0  0  0  0  0  0  0  0  0  0
    8.9252    9.0690   13.6683 C   0  0  0  0  0  0  0  0  0  0  0  0
    9.4029    9.8478   13.8417 H   0  0  0  0  0  0  0  0  0  0  0  0
    7.9499    9.0495   12.7036 C   0  0  0  0  0  0  0  0  0  0  0  0
    7.8193    9.8089   12.1834 H   0  0  0  0  0  0  0  0  0  0  0  0
    7.1700    7.9916   12.4841 C   0  0  0  0  0  0  0  0  0  0  0  0
    6.4433    8.0327   11.9068 H   0  0  0  0  0  0  0  0  0  0  0  0
    7.5010    6.8212   13.1574 C   0  0  0  0  0  0  0  0  0  0  0  0
    7.0142    6.0532   12.9619 H   0  0  0  0  0  0  0  0  0  0  0  0
    6.4456    1.1877   13.0375 B   0  0  0  0  0  0  0  0  0  0  0  0
    6.5776    0.7875   12.0211 H   0  0  0  0  0  0  0  0  0  0  0  0
    5.8999    2.8319   13.2238 B   0  0  0  0  0  0  0  0  0  0  0  0
    5.7059    3.4831   12.3587 H   0  0  0  0  0  0  0  0  0  0  0  0
    7.6941    2.3797   13.7218 B   0  0  0  0  0  0  0  0  0  0  0  0
    8.5829    2.7605   13.1961 H   0  0  0  0  0  0  0  0  0  0  0  0
    7.5569    0.6144   14.2641 B   0  0  0  0  0  0  0  0  0  0  0  0
    8.3224   -0.1385   14.0428 H   0  0  0  0  0  0  0  0  0  0  0  0
    5.8504    0.1774   14.2844 B   0  0  0  0  0  0  0  0  0  0  0  0
    5.5719   -0.8783   14.1553 H   0  0  0  0  0  0  0  0  0  0  0  0
    4.8054    1.5187   13.5226 B   0  0  0  0  0  0  0  0  0  0  0  0
    3.9273    1.3500   12.8825 H   0  0  0  0  0  0  0  0  0  0  0  0
    7.8425    1.9730   15.4133 B   0  0  0  0  0  0  0  0  0  0  0  0
    6.6793    0.6555   15.8523 B   0  0  0  0  0  0  0  0  0  0  0  0
    6.7943    0.3267   16.8945 H   0  0  0  0  0  0  0  0  0  0  0  0
    4.8720    1.1704   15.2897 B   0  0  0  0  0  0  0  0  0  0  0  0
    4.1539    1.0233   16.1124 H   0  0  0  0  0  0  0  0  0  0  0  0
    4.7999    2.8643   14.6533 B   0  0  0  0  0  0  0  0  0  0  0  0
    4.0352    3.4874   15.1440 H   0  0  0  0  0  0  0  0  0  0  0  0
    6.7710    1.9038   16.1585 H   0  0  0  0  0  0  0  0  0  0  0  0
    5.2752    1.9687   16.1401 H   0  0  0  0  0  0  0  0  0  0  0  0
    8.9527    2.1504   16.2175 O   0  0  0  0  0  0  0  0  0  0  0  0
    9.3899    1.1726   17.1288 C   0  0  0  0  0  0  0  0  0  0  0  0
    8.9769    0.2012   16.8226 H   0  0  0  0  0  0  0  0  0  0  0  0
   10.8927    1.0428   17.2099 C   0  0  0  0  0  0  0  0  0  0  0  0
   11.3539    1.4884   16.3153 H   0  0  0  0  0  0  0  0  0  0  0  0
   11.1703   -0.0195   17.2745 H   0  0  0  0  0  0  0  0  0  0  0  0
   11.2624    1.5685   18.1064 H   0  0  0  0  0  0  0  0  0  0  0  0
    8.8448    1.5144   18.4937 C   0  0  0  0  0  0  0  0  0  0  0  0
    9.4080    2.3624   18.9125 H   0  0  0  0  0  0  0  0  0  0  0  0
    8.9461    0.6425   19.1559 H   0  0  0  0  0  0  0  0  0  0  0  0
    7.7839    1.7891   18.4052 H   0  0  0  0  0  0  0  0  0  0  0  0
  1  2  1  0  0  0  0
  2  4  1  0  0  0  0
  3  1  1  0  0  0  0
  4  5  4  0  0  0  0
  5  6  1  0  0  0  0
  7  5  4  0  0  0  0
  8  7  1  0  0  0  0
  9  7  4  0  0  0  0
 10  9  1  0  0  0  0
 11  9  4  0  0  0  0
 12 11  1  0  0  0  0
 13  4  4  0  0  0  0
 14 13  1  0  0  0  0
 15  2  1  0  0  0  0
 16 15  4  0  0  0  0
 17 16  1  0  0  0  0
 18 16  4  0  0  0  0
 19 18  1  0  0  0  0
 20 18  4  0  0  0  0
 21 20  1  0  0  0  0
 22 20  4  0  0  0  0
 23 22  1  0  0  0  0
 24 15  4  0  0  0  0
 25 24  1  0  0  0  0
 26  2  1  0  0  0  0
 27 26  4  0  0  0  0
 28 27  1  0  0  0  0
 29 27  4  0  0  0  0
 30 29  1  0  0  0  0
 31 29  4  0  0  0  0
 32 31  1  0  0  0  0
 33 31  4  0  0  0  0
 34 33  1  0  0  0  0
 35 26  4  0  0  0  0
 36 35  1  0  0  0  0
 37  3  1  0  0  0  0
 38 37  4  0  0  0  0
 39 38  1  0  0  0  0
 40 38  4  0  0  0  0
 41 40  1  0  0  0  0
 42 40  4  0  0  0  0
 43 42  1  0  0  0  0
 44 42  4  0  0  0  0
 45 44  1  0  0  0  0
 46 37  4  0  0  0  0
 47 46  1  0  0  0  0
 48  3  1  0  0  0  0
 49 48  4  0  0  0  0
 50 49  1  0  0  0  0
 51 49  4  0  0  0  0
 52 51  1  0  0  0  0
 53 51  4  0  0  0  0
 54 53  1  0  0  0  0
 55 53  4  0  0  0  0
 56 55  1  0  0  0  0
 57 48  4  0  0  0  0
 58 57  1  0  0  0  0
 59  3  1  0  0  0  0
 60 59  4  0  0  0  0
 61 60  1  0  0  0  0
 62 60  4  0  0  0  0
 63 62  1  0  0  0  0
 64 62  4  0  0  0  0
 65 64  1  0  0  0  0
 66 64  4  0  0  0  0
 67 66  1  0  0  0  0
 68 59  4  0  0  0  0
 69 68  1  0  0  0  0
 70 71  1  0  0  0  0
 72  1  1  0  0  0  0
 73 72  1  0  0  0  0
 74  1  1  0  0  0  0
 75 74  1  0  0  0  0
 76 70  1  0  0  0  0
 77 76  1  0  0  0  0
 78 70  1  0  0  0  0
 79 78  1  0  0  0  0
 80 70  1  0  0  0  0
 81 80  1  0  0  0  0
 82  1  1  0  0  0  0
 83 76  1  0  0  0  0
 84 83  1  0  0  0  0
 85 78  1  0  0  0  0
 86 85  1  0  0  0  0
 87  1  1  0  0  0  0
 88 87  1  0  0  0  0
 89 82  1  0  0  0  0
 90 85  1  0  0  0  0
 91 82  1  0  0  0  0
 92 91  1  0  0  0  0
 93 92  1  0  0  0  0
 94 92  1  0  0  0  0
 95 94  1  0  0  0  0
 96 94  1  0  0  0  0
 97 94  1  0  0  0  0
 98 92  1  0  0  0  0
 99 98  1  0  0  0  0
100 98  1  0  0  0  0
101 98  1  0  0  0  0
 11 13  4  0  0  0  0
 22 24  4  0  0  0  0
 33 35  4  0  0  0  0
 44 46  4  0  0  0  0
 55 57  4  0  0  0  0
 66 68  4  0  0  0  0
 70 72  1  0  0  0  0
 70 74  1  0  0  0  0
 72 74  1  0  0  0  0
 72 80  1  0  0  0  0
 72 87  1  0  0  0  0
 74 76  1  0  0  0  0
 74 82  1  0  0  0  0
 76 78  1  0  0  0  0
 76 82  1  0  0  0  0
 78 80  1  0  0  0  0
 78 83  1  0  0  0  0
 80 85  1  0  0  0  0
 80 87  1  0  0  0  0
 82 83  1  0  0  0  0
 83 85  1  0  0  0  0
 83 89  1  0  0  0  0
 85 87  1  0  0  0  0
 87 90  1  0  0  0  0
M  END
$$$$
YEJFUO01

From CSD data. Using bond type 'Any'. Matching problem. Disorder unknown. Sizes unknown.
  0  0  0  0  0  0  0  0  0  0999 V2000
M  END
$$$$
YEJGAV

From CSD data. Using bond type 'Any'. No disordered atoms. Largest molecule.
101123  0  0  0  0  0  0  0  0999 V2000
    2.0637   14.6415    2.2362 Pt  0  0  0  0  0  0  0  0  0  0  0  0
    2.4814   13.1291    0.4684 P   0  0  0  0  0  0  0  0  0  0  0  0
    4.1669   15.6498    2.2587 P   0  0  0  0  0  0  0  0  0  0  0  0
   -2.5654   14.8110    1.2208 O   0  0  0  0  0  0  0  0  0  0  0  0
   -2.7338   13.7624    0.2628 C   0  0  0  0  0  0  0  0  0  0  0  0
   -1.8602   13.5195   -0.1100 H   0  0  0  0  0  0  0  0  0  0  0  0
   -3.6163   14.3055   -0.8387 C   0  0  0  0  0  0  0  0  0  0  0  0
   -3.1942   15.0701   -1.2394 H   0  0  0  0  0  0  0  0  0  0  0  0
   -4.4655   14.5645   -0.4715 H   0  0  0  0  0  0  0  0  0  0  0  0
   -3.7495   13.6284   -1.5059 H   0  0  0  0  0  0  0  0  0  0  0  0
   -3.3514   12.5441    0.9244 C   0  0  0  0  0  0  0  0  0  0  0  0
   -2.7656   12.2261    1.6159 H   0  0  0  0  0  0  0  0  0  0  0  0
   -3.4789   11.8546    0.2702 H   0  0  0  0  0  0  0  0  0  0  0  0
   -4.1986   12.7835    1.3084 H   0  0  0  0  0  0  0  0  0  0  0  0
    4.0412   13.1283   -0.4939 C   0  0  0  0  0  0  0  0  0  0  0  0
    5.1600   12.4941    0.0485 C   0  0  0  0  0  0  0  0  0  0  0  0
    5.1147   12.1225    0.8983 H   0  0  0  0  0  0  0  0  0  0  0  0
    6.3338   12.4173   -0.6747 C   0  0  0  0  0  0  0  0  0  0  0  0
    7.0781   11.9975   -0.3075 H   0  0  0  0  0  0  0  0  0  0  0  0
    6.4073   12.9550   -1.9290 C   0  0  0  0  0  0  0  0  0  0  0  0
    7.2008   12.9032   -2.4117 H   0  0  0  0  0  0  0  0  0  0  0  0
    5.3157   13.5731   -2.4770 C   0  0  0  0  0  0  0  0  0  0  0  0
    5.3687   13.9375   -3.3306 H   0  0  0  0  0  0  0  0  0  0  0  0
    4.1297   13.6588   -1.7631 C   0  0  0  0  0  0  0  0  0  0  0  0
    3.3892   14.0750   -2.1433 H   0  0  0  0  0  0  0  0  0  0  0  0
    1.2128   13.4695   -0.8126 C   0  0  0  0  0  0  0  0  0  0  0  0
    0.4612   12.4887   -1.4221 C   0  0  0  0  0  0  0  0  0  0  0  0
    0.5723   11.5973   -1.1760 H   0  0  0  0  0  0  0  0  0  0  0  0
   -0.4674   12.8264   -2.4136 C   0  0  0  0  0  0  0  0  0  0  0  0
   -0.9672   12.1600   -2.8273 H   0  0  0  0  0  0  0  0  0  0  0  0
   -0.6444   14.1394   -2.7770 C   0  0  0  0  0  0  0  0  0  0  0  0
   -1.2612   14.3627   -3.4349 H   0  0  0  0  0  0  0  0  0  0  0  0
    0.0943   15.1165   -2.1601 C   0  0  0  0  0  0  0  0  0  0  0  0
   -0.0321   16.0079   -2.3949 H   0  0  0  0  0  0  0  0  0  0  0  0
    1.0251   14.7860   -1.1947 C   0  0  0  0  0  0  0  0  0  0  0  0
    1.5300   15.4559   -0.7940 H   0  0  0  0  0  0  0  0  0  0  0  0
    2.4100   11.3544    0.8853 C   0  0  0  0  0  0  0  0  0  0  0  0
    2.1497   10.9292    2.1918 C   0  0  0  0  0  0  0  0  0  0  0  0
    1.9360   11.5562    2.8460 H   0  0  0  0  0  0  0  0  0  0  0  0
    2.2059    9.5805    2.5217 C   0  0  0  0  0  0  0  0  0  0  0  0
    2.0463    9.3054    3.3958 H   0  0  0  0  0  0  0  0  0  0  0  0
    2.5004    8.6533    1.5469 C   0  0  0  0  0  0  0  0  0  0  0  0
    2.5301    7.7494    1.7631 H   0  0  0  0  0  0  0  0  0  0  0  0
    2.7524    9.0624    0.2460 C   0  0  0  0  0  0  0  0  0  0  0  0
    2.9446    8.4300   -0.4082 H   0  0  0  0  0  0  0  0  0  0  0  0
    2.7180   10.4058   -0.0801 C   0  0  0  0  0  0  0  0  0  0  0  0
    2.9012   10.6737   -0.9524 H   0  0  0  0  0  0  0  0  0  0  0  0
    4.4614   17.0351    3.4256 C   0  0  0  0  0  0  0  0  0  0  0  0
    4.8449   16.7529    4.7358 C   0  0  0  0  0  0  0  0  0  0  0  0
    4.9422   15.8704    5.0117 H   0  0  0  0  0  0  0  0  0  0  0  0
    5.0809   17.7943    5.6267 C   0  0  0  0  0  0  0  0  0  0  0  0
    5.3283   17.6014    6.5008 H   0  0  0  0  0  0  0  0  0  0  0  0
    4.9541   19.1020    5.2335 C   0  0  0  0  0  0  0  0  0  0  0  0
    5.1242   19.7880    5.8373 H   0  0  0  0  0  0  0  0  0  0  0  0
    4.5795   19.3878    3.9624 C   0  0  0  0  0  0  0  0  0  0  0  0
    4.5019   20.2756    3.6977 H   0  0  0  0  0  0  0  0  0  0  0  0
    4.3067   18.3678    3.0454 C   0  0  0  0  0  0  0  0  0  0  0  0
    4.0233   18.5786    2.1843 H   0  0  0  0  0  0  0  0  0  0  0  0
    5.4015   14.4502    2.8814 C   0  0  0  0  0  0  0  0  0  0  0  0
    6.7442   14.7842    2.9969 C   0  0  0  0  0  0  0  0  0  0  0  0
    7.0388   15.6256    2.7323 H   0  0  0  0  0  0  0  0  0  0  0  0
    7.6490   13.8589    3.5076 C   0  0  0  0  0  0  0  0  0  0  0  0
    8.5517   14.0750    3.5598 H   0  0  0  0  0  0  0  0  0  0  0  0
    7.2089   12.6227    3.9382 C   0  0  0  0  0  0  0  0  0  0  0  0
    7.8198   12.0064    4.2736 H   0  0  0  0  0  0  0  0  0  0  0  0
    5.8787   12.3012    3.8729 C   0  0  0  0  0  0  0  0  0  0  0  0
    5.5823   11.4723    4.1767 H   0  0  0  0  0  0  0  0  0  0  0  0
    4.9631   13.2301    3.3436 C   0  0  0  0  0  0  0  0  0  0  0  0
    4.0575   13.0193    3.3063 H   0  0  0  0  0  0  0  0  0  0  0  0
    4.7306   16.2848    0.6486 C   0  0  0  0  0  0  0  0  0  0  0  0
    3.8820   17.1369   -0.0727 C   0  0  0  0  0  0  0  0  0  0  0  0
    3.0505   17.3638    0.2796 H   0  0  0  0  0  0  0  0  0  0  0  0
    4.2650   17.6389   -1.2916 C   0  0  0  0  0  0  0  0  0  0  0  0
    3.7044   18.2266   -1.7464 H   0  0  0  0  0  0  0  0  0  0  0  0
    5.4566   17.2870   -1.8414 C   0  0  0  0  0  0  0  0  0  0  0  0
    5.7047   17.6193   -2.6726 H   0  0  0  0  0  0  0  0  0  0  0  0
    6.3027   16.4259   -1.1537 C   0  0  0  0  0  0  0  0  0  0  0  0
    7.1191   16.1830   -1.5283 H   0  0  0  0  0  0  0  0  0  0  0  0
    5.9390   15.9329    0.0727 C   0  0  0  0  0  0  0  0  0  0  0  0
    6.5115   15.3559    0.5237 H   0  0  0  0  0  0  0  0  0  0  0  0
   -0.2834   15.2451    4.6706 B   0  0  0  0  0  0  0  0  0  0  0  0
    1.3017   15.6953    4.0649 B   0  0  0  0  0  0  0  0  0  0  0  0
    0.6580   14.0286    3.8207 B   0  0  0  0  0  0  0  0  0  0  0  0
   -1.0929   14.1054    3.6008 B   0  0  0  0  0  0  0  0  0  0  0  0
   -1.4807   15.8561    3.4815 B   0  0  0  0  0  0  0  0  0  0  0  0
   -0.0488   16.8368    3.8822 B   0  0  0  0  0  0  0  0  0  0  0  0
   -0.0512   13.6713    2.2253 B   0  0  0  0  0  0  0  0  0  0  0  0
   -1.4425   14.8932    2.0259 B   0  0  0  0  0  0  0  0  0  0  0  0
   -0.6739   16.7546    2.2514 B   0  0  0  0  0  0  0  0  0  0  0  0
    1.1077   16.6939    2.6037 B   0  0  0  0  0  0  0  0  0  0  0  0
   -0.4760   15.1665    5.7591 H   0  0  0  0  0  0  0  0  0  0  0  0
    2.1032   15.9168    4.6781 H   0  0  0  0  0  0  0  0  0  0  0  0
    1.1347   13.1836    4.2121 H   0  0  0  0  0  0  0  0  0  0  0  0
   -1.7896   13.3801    3.9139 H   0  0  0  0  0  0  0  0  0  0  0  0
   -2.4725   16.2741    3.7648 H   0  0  0  0  0  0  0  0  0  0  0  0
   -0.1434   17.8283    4.5476 H   0  0  0  0  0  0  0  0  0  0  0  0
   -0.0649   12.6656    1.8265 H   0  0  0  0  0  0  0  0  0  0  0  0
   -1.1052   17.5960    1.6588 H   0  0  0  0  0  0  0  0  0  0  0  0
    1.7230   17.4353    2.1993 H   0  0  0  0  0  0  0  0  0  0  0  0
   -0.3217   14.4698    1.2674 H   0  0  0  0  0  0  0  0  0  0  0  0
    0.2385   16.5242    1.7519 H   0  0  0  0  0  0  0  0  0  0  0  0
  1  2  1  0  0  0  0
  2 15  1  0  0  0  0
  3  1  1  0  0  0  0
  4  5  1  0  0  0  0
  5  6  1  0  0  0  0
  7  5  1  0  0  0  0
  8  7  1  0  0  0  0
  9  7  1  0  0  0  0
 10  7  1  0  0  0  0
 11  5  1  0  0  0  0
 12 11  1  0  0  0  0
 13 11  1  0  0  0  0
 14 11  1  0  0  0  0
 15 16  4  0  0  0  0
 16 17  1  0  0  0  0
 18 16  4  0  0  0  0
 19 18  1  0  0  0  0
 20 18  4  0  0  0  0
 21 20  1  0  0  0  0
 22 20  4  0  0  0  0
 23 22  1  0  0  0  0
 24 15  4  0  0  0  0
 25 24  1  0  0  0  0
 26  2  1  0  0  0  0
 27 26  4  0  0  0  0
 28 27  1  0  0  0  0
 29 27  4  0  0  0  0
 30 29  1  0  0  0  0
 31 29  4  0  0  0  0
 32 31  1  0  0  0  0
 33 31  4  0  0  0  0
 34 33  1  0  0  0  0
 35 26  4  0  0  0  0
 36 35  1  0  0  0  0
 37  2  1  0  0  0  0
 38 37  4  0  0  0  0
 39 38  1  0  0  0  0
 40 38  4  0  0  0  0
 41 40  1  0  0  0  0
 42 40  4  0  0  0  0
 43 42  1  0  0  0  0
 44 42  4  0  0  0  0
 45 44  1  0  0  0  0
 46 37  4  0  0  0  0
 47 46  1  0  0  0  0
 48  3  1  0  0  0  0
 49 48  4  0  0  0  0
 50 49  1  0  0  0  0
 51 49  4  0  0  0  0
 52 51  1  0  0  0  0
 53 51  4  0  0  0  0
 54 53  1  0  0  0  0
 55 53  4  0  0  0  0
 56 55  1  0  0  0  0
 57 48  4  0  0  0  0
 58 57  1  0  0  0  0
 59  3  1  0  0  0  0
 60 59  4  0  0  0  0
 61 60  1  0  0  0  0
 62 60  4  0  0  0  0
 63 62  1  0  0  0  0
 64 62  4  0  0  0  0
 65 64  1  0  0  0  0
 66 64  4  0  0  0  0
 67 66  1  0  0  0  0
 68 59  4  0  0  0  0
 69 68  1  0  0  0  0
 70  3  1  0  0  0  0
 71 70  4  0  0  0  0
 72 71  1  0  0  0  0
 73 71  4  0  0  0  0
 74 73  1  0  0  0  0
 75 73  4  0  0  0  0
 76 75  1  0  0  0  0
 77 75  4  0  0  0  0
 78 77  1  0  0  0  0
 79 70  4  0  0  0  0
 80 79  1  0  0  0  0
 81 82  1  0  0  0  0
 82  1  1  0  0  0  0
 83  1  1  0  0  0  0
 84 81  1  0  0  0  0
 85 81  1  0  0  0  0
 86 81  1  0  0  0  0
 87  1  1  0  0  0  0
 88  4  1  0  0  0  0
 89 85  1  0  0  0  0
 90  1  1  0  0  0  0
 91 81  1  0  0  0  0
 92 82  1  0  0  0  0
 93 83  1  0  0  0  0
 94 84  1  0  0  0  0
 95 85  1  0  0  0  0
 96 86  1  0  0  0  0
 97 87  1  0  0  0  0
 98 89  1  0  0  0  0
 99 90  1  0  0  0  0
100 87  1  0  0  0  0
101 89  1  0  0  0  0
 22 24  4  0  0  0  0
 33 35  4  0  0  0  0
 44 46  4  0  0  0  0
 55 57  4  0  0  0  0
 66 68  4  0  0  0  0
 77 79  4  0  0  0  0
 81 83  1  0  0  0  0
 82 83  1  0  0  0  0
 82 86  1  0  0  0  0
 82 90  1  0  0  0  0
 83 84  1  0  0  0  0
 83 87  1  0  0  0  0
 84 85  1  0  0  0  0
 84 87  1  0  0  0  0
 84 88  1  0  0  0  0
 85 86  1  0  0  0  0
 85 88  1  0  0  0  0
 86 89  1  0  0  0  0
 86 90  1  0  0  0  0
 87 88  1  0  0  0  0
 88 89  1  0  0  0  0
 88100  1  0  0  0  0
 89 90  1  0  0  0  0
 90101  1  0  0  0  0
M  END
$$$$
YEJGAV01

From CSD data. Using bond type 'Any'. Matching problem. Disorder unknown. Sizes unknown.
  0  0  0  0  0  0  0  0  0  0999 V2000
M  END
$$$$
YEJRIP

From CSD data. Using bond type 'Any'. No disordered atoms. Largest molecule.
 96121  0  0  0  0  0  0  0  0999 V2000
    7.2919    4.1613   19.0138 C   0  0  0  0  0  0  0  0  0  0  0  0
    5.4338    4.7399   18.0122 Mn  0  0  0  0  0  0  0  0  0  0  0  0
    5.8101    3.8954   19.8447 B   0  0  0  0  0  0  0  0  0  0  0  0
    7.4191    4.0564   20.7103 B   0  0  0  0  0  0  0  0  0  0  0  0
    7.8786    3.1954   21.2603 H   0  0  0  0  0  0  0  0  0  0  0  0
    8.3789    5.2458   19.7769 B   0  0  0  0  0  0  0  0  0  0  0  0
    9.4950    5.1886   19.7130 H   0  0  0  0  0  0  0  0  0  0  0  0
    7.3663    5.7277   18.3496 B   0  0  0  0  0  0  0  0  0  0  0  0
    7.8246    5.9692   17.3580 H   0  0  0  0  0  0  0  0  0  0  0  0
    4.9967    5.5244   20.0170 B   0  0  0  0  0  0  0  0  0  0  0  0
    3.8988    5.6758   20.1836 H   0  0  0  0  0  0  0  0  0  0  0  0
    6.0235    4.9027   21.3456 B   0  0  0  0  0  0  0  0  0  0  0  0
    5.5769    4.5860   22.3216 H   0  0  0  0  0  0  0  0  0  0  0  0
    7.6112    5.7415   21.2526 B   0  5  0  0  0  0  0  0  0  0  0  0
    8.2039    6.0084   22.1647 H   0  0  0  0  0  0  0  0  0  0  0  0
    7.5721    6.7540   19.7962 B   0  0  0  0  0  0  0  0  0  0  0  0
    8.1652    7.7019   19.7343 H   0  0  0  0  0  0  0  0  0  0  0  0
    5.9646    6.6841   19.0177 B   0  0  0  0  0  0  0  0  0  0  0  0
    5.5294    7.5780   18.5006 H   0  0  0  0  0  0  0  0  0  0  0  0
    6.1164    6.6333   20.8285 B   0  0  0  0  0  0  0  0  0  0  0  0
    5.7449    7.4742   21.4676 H   0  0  0  0  0  0  0  0  0  0  0  0
    4.7666    3.2907   17.0346 C   0  0  0  0  0  0  0  0  0  0  0  0
    4.4156    2.7908   16.0140 O   0  0  0  0  0  0  0  0  0  0  0  0
    3.8326    5.4428   17.7802 C   0  0  0  0  0  0  0  0  0  0  0  0
    2.7464    5.8887   17.6233 O   0  0  0  0  0  0  0  0  0  0  0  0
    5.9234    5.2681   16.3665 C   0  0  0  0  0  0  0  0  0  0  0  0
    6.1692    5.6398   15.3052 O   0  0  0  0  0  0  0  0  0  0  0  0
    7.8248    2.9274   18.2857 N   0  3  0  0  0  0  0  0  0  0  0  0
    7.5673    3.0217   17.4490 H   0  0  0  0  0  0  0  0  0  0  0  0
    7.3638    2.2496   18.6052 H   0  0  0  0  0  0  0  0  0  0  0  0
    9.2774    2.4286   18.2082 C   0  0  0  0  0  0  0  0  0  0  0  0
    9.1930    1.0909   17.4800 C   0  0  0  0  0  0  0  0  0  0  0  0
    8.7725    1.2212   16.6047 H   0  0  0  0  0  0  0  0  0  0  0  0
    8.6573    0.4639   18.0087 H   0  0  0  0  0  0  0  0  0  0  0  0
   10.0949    0.7266   17.3580 H   0  0  0  0  0  0  0  0  0  0  0  0
   10.0500    3.4210   17.3425 C   0  0  0  0  0  0  0  0  0  0  0  0
    9.5935    3.5311   16.4827 H   0  0  0  0  0  0  0  0  0  0  0  0
   10.9580    3.0831   17.1876 H   0  0  0  0  0  0  0  0  0  0  0  0
   10.0970    4.2852   17.8015 H   0  0  0  0  0  0  0  0  0  0  0  0
    9.9132    2.2009   19.5212 C   0  0  0  0  0  0  0  0  0  0  0  0
    9.3751    1.5633   20.0383 H   0  0  0  0  0  0  0  0  0  0  0  0
    9.9682    3.0503   20.0093 H   0  0  0  0  0  0  0  0  0  0  0  0
   10.8149    1.8397   19.3915 H   0  0  0  0  0  0  0  0  0  0  0  0
    4.6471    2.4293   19.0519 Pt  0  0  0  0  0  0  0  0  0  0  0  0
    4.5629    1.2074   20.9350 P   0  0  0  0  0  0  0  0  0  0  0  0
    3.0536    0.9458   18.2105 P   0  0  0  0  0  0  0  0  0  0  0  0
    3.4428    1.8884   22.1725 C   0  0  0  0  0  0  0  0  0  0  0  0
    2.8792    3.1583   22.0021 C   0  0  0  0  0  0  0  0  0  0  0  0
    3.1230    3.6836   21.2487 H   0  0  0  0  0  0  0  0  0  0  0  0
    1.9726    3.6540   22.9181 C   0  0  0  0  0  0  0  0  0  0  0  0
    1.6040    4.5224   22.8077 H   0  0  0  0  0  0  0  0  0  0  0  0
    1.6136    2.8808   23.9832 C   0  0  0  0  0  0  0  0  0  0  0  0
    1.0042    3.2356   24.6204 H   0  0  0  0  0  0  0  0  0  0  0  0
    2.1018    1.5961   24.1711 C   0  0  0  0  0  0  0  0  0  0  0  0
    1.8037    1.0644   24.8993 H   0  0  0  0  0  0  0  0  0  0  0  0
    3.0324    1.1121   23.2764 C   0  0  0  0  0  0  0  0  0  0  0  0
    3.4024    0.2457   23.4042 H   0  0  0  0  0  0  0  0  0  0  0  0
    6.0638    0.7170   21.8181 C   0  0  0  0  0  0  0  0  0  0  0  0
    6.4589    1.3949   22.9588 C   0  0  0  0  0  0  0  0  0  0  0  0
    5.9074    2.0907   23.2977 H   0  0  0  0  0  0  0  0  0  0  0  0
    7.6338    1.0824   23.6172 C   0  0  0  0  0  0  0  0  0  0  0  0
    7.8828    1.5506   24.4054 H   0  0  0  0  0  0  0  0  0  0  0  0
    8.4285    0.0974   23.1214 C   0  0  0  0  0  0  0  0  0  0  0  0
    9.2448   -0.1123   23.5591 H   0  0  0  0  0  0  0  0  0  0  0  0
    8.0589   -0.6026   21.9866 C   0  0  0  0  0  0  0  0  0  0  0  0
    8.6099   -1.3070   21.6651 H   0  0  0  0  0  0  0  0  0  0  0  0
    6.8857   -0.2807   21.3165 C   0  0  0  0  0  0  0  0  0  0  0  0
    6.6475   -0.7403   20.5186 H   0  0  0  0  0  0  0  0  0  0  0  0
    3.7573   -0.3919   20.4954 C   0  0  0  0  0  0  0  0  0  0  0  0
    4.3846   -0.9627   19.9860 H   0  0  0  0  0  0  0  0  0  0  0  0
    3.4882   -0.8759   21.3165 H   0  0  0  0  0  0  0  0  0  0  0  0
    2.5199   -0.0741   19.6433 C   0  0  0  0  0  0  0  0  0  0  0  0
    1.8540    0.4215   20.1816 H   0  0  0  0  0  0  0  0  0  0  0  0
    2.1027   -0.9130   19.3237 H   0  0  0  0  0  0  0  0  0  0  0  0
    1.5531    1.7814   17.6427 C   0  0  0  0  0  0  0  0  0  0  0  0
    0.9057    1.5506   16.4188 C   0  0  0  0  0  0  0  0  0  0  0  0
    1.2579    0.9151   15.8068 H   0  0  0  0  0  0  0  0  0  0  0  0
   -0.2346    2.2432   16.1089 C   0  0  0  0  0  0  0  0  0  0  0  0
   -0.6828    2.0727   15.2897 H   0  0  0  0  0  0  0  0  0  0  0  0
   -0.7484    3.2123   17.0036 C   0  0  0  0  0  0  0  0  0  0  0  0
   -1.5468    3.6794   16.7925 H   0  0  0  0  0  0  0  0  0  0  0  0
   -0.0875    3.4718   18.1714 C   0  0  0  0  0  0  0  0  0  0  0  0
   -0.4126    4.1295   18.7737 H   0  0  0  0  0  0  0  0  0  0  0  0
    1.0379    2.7781   18.4542 C   0  0  0  0  0  0  0  0  0  0  0  0
    1.5028    2.9857   19.2559 H   0  0  0  0  0  0  0  0  0  0  0  0
    3.5250   -0.3220   16.9591 C   0  0  0  0  0  0  0  0  0  0  0  0
    2.6156   -1.2911   16.5214 C   0  0  0  0  0  0  0  0  0  0  0  0
    1.7237   -1.2953   16.8448 H   0  0  0  0  0  0  0  0  0  0  0  0
    3.0336   -2.2464   15.6073 C   0  0  0  0  0  0  0  0  0  0  0  0
    2.4163   -2.8978   15.2955 H   0  0  0  0  0  0  0  0  0  0  0  0
    4.2461   -2.2602   15.1754 C   0  0  0  0  0  0  0  0  0  0  0  0
    4.4923   -2.8893   14.5073 H   0  0  0  0  0  0  0  0  0  0  0  0
    5.2032   -1.3843   15.6557 C   0  0  0  0  0  0  0  0  0  0  0  0
    6.1084   -1.4510   15.3710 H   0  0  0  0  0  0  0  0  0  0  0  0
    4.8145   -0.4003   16.5679 C   0  0  0  0  0  0  0  0  0  0  0  0
    5.4560    0.2108   16.9126 H   0  0  0  0  0  0  0  0  0  0  0  0
  1  2  1  0  0  0  0
  2  3  1  0  0  0  0
  3  1  1  0  0  0  0
  4  1  1  0  0  0  0
  5  4  1  0  0  0  0
  6  1  1  0  0  0  0
  7  6  1  0  0  0  0
  8  1  1  0  0  0  0
  9  8  1  0  0  0  0
 10  2  1  0  0  0  0
 11 10  1  0  0  0  0
 12  3  1  0  0  0  0
 13 12  1  0  0  0  0
 14  4  1  0  0  0  0
 15 14  1  0  0  0  0
 16  6  1  0  0  0  0
 17 16  1  0  0  0  0
 18  2  1  0  0  0  0
 19 18  1  0  0  0  0
 20 10  1  0  0  0  0
 21 20  1  0  0  0  0
 22  2  1  0  0  0  0
 23 22  2  0  0  0  0
 24  2  1  0  0  0  0
 25 24  3  0  0  0  0
 26  2  1  0  0  0  0
 27 26  3  0  0  0  0
 28  1  1  0  0  0  0
 29 28  1  0  0  0  0
 30 28  1  0  0  0  0
 31 28  1  0  0  0  0
 32 31  1  0  0  0  0
 33 32  1  0  0  0  0
 34 32  1  0  0  0  0
 35 32  1  0  0  0  0
 36 31  1  0  0  0  0
 37 36  1  0  0  0  0
 38 36  1  0  0  0  0
 39 36  1  0  0  0  0
 40 31  1  0  0  0  0
 41 40  1  0  0  0  0
 42 40  1  0  0  0  0
 43 40  1  0  0  0  0
 44  2  1  0  0  0  0
 45 44  1  0  0  0  0
 46 44  1  0  0  0  0
 47 45  1  0  0  0  0
 48 47  4  0  0  0  0
 49 48  1  0  0  0  0
 50 48  4  0  0  0  0
 51 50  1  0  0  0  0
 52 50  4  0  0  0  0
 53 52  1  0  0  0  0
 54 52  4  0  0  0  0
 55 54  1  0  0  0  0
 56 47  4  0  0  0  0
 57 56  1  0  0  0  0
 58 45  1  0  0  0  0
 59 58  4  0  0  0  0
 60 59  1  0  0  0  0
 61 59  4  0  0  0  0
 62 61  1  0  0  0  0
 63 61  4  0  0  0  0
 64 63  1  0  0  0  0
 65 63  4  0  0  0  0
 66 65  1  0  0  0  0
 67 58  4  0  0  0  0
 68 67  1  0  0  0  0
 69 45  1  0  0  0  0
 70 69  1  0  0  0  0
 71 69  1  0  0  0  0
 72 46  1  0  0  0  0
 73 72  1  0  0  0  0
 74 72  1  0  0  0  0
 75 46  1  0  0  0  0
 76 75  4  0  0  0  0
 77 76  1  0  0  0  0
 78 76  4  0  0  0  0
 79 78  1  0  0  0  0
 80 78  4  0  0  0  0
 81 80  1  0  0  0  0
 82 80  4  0  0  0  0
 83 82  1  0  0  0  0
 84 75  4  0  0  0  0
 85 84  1  0  0  0  0
 86 46  1  0  0  0  0
 87 86  4  0  0  0  0
 88 87  1  0  0  0  0
 89 87  4  0  0  0  0
 90 89  1  0  0  0  0
 91 89  4  0  0  0  0
 92 91  1  0  0  0  0
 93 91  4  0  0  0  0
 94 93  1  0  0  0  0
 95 86  4  0  0  0  0
 96 95  1  0  0  0  0
  2  8  1  0  0  0  0
  3  4  1  0  0  0  0
  3 10  1  0  0  0  0
  3 44  1  0  0  0  0
  4  6  1  0  0  0  0
  4 12  1  0  0  0  0
  6  8  1  0  0  0  0
  6 14  1  0  0  0  0
  8 16  1  0  0  0  0
  8 18  1  0  0  0  0
 10 12  1  0  0  0  0
 10 18  1  0  0  0  0
 12 14  1  0  0  0  0
 12 20  1  0  0  0  0
 14 16  1  0  0  0  0
 14 20  1  0  0  0  0
 16 18  1  0  0  0  0
 16 20  1  0  0  0  0
 18 20  1  0  0  0  0
 22 44  1  0  0  0  0
 54 56  4  0  0  0  0
 65 67  4  0  0  0  0
 69 72  1  0  0  0  0
 82 84  4  0  0  0  0
 93 95  4  0  0  0  0
M  CHG  2  14  -1  28   1
M  END
$$$$
YEJROV

From CSD data. Using bond type 'Any'. Matching problem. No disordered atoms. Largest molecule.
113139  0  0  0  0  0  0  0  0999 V2000
    0.7665    2.0707    3.1686 C   0  0  0  0  0  0  0  0  0  0  0  0
    1.4957    3.4084    4.7741 Mn  0  0  0  0  0  0  0  0  0  0  0  0
    0.8232    1.3034    4.6936 B   0  0  0  0  0  0  0  0  0  0  0  0
   -0.0622    1.1099    5.3022 H   0  0  0  0  0  0  0  0  0  0  0  0
    0.9262    0.3439    3.2007 B   0  0  0  0  0  0  0  0  0  0  0  0
    0.0349   -0.2790    2.9375 H   0  0  0  0  0  0  0  0  0  0  0  0
    1.8127    1.3140    2.0440 B   0  0  0  0  0  0  0  0  0  0  0  0
    1.4771    1.3443    0.9690 H   0  0  0  0  0  0  0  0  0  0  0  0
    2.2680    2.8505    2.8241 B   0  0  0  0  0  0  0  0  0  0  0  0
    2.2176    3.6465    2.0552 H   0  0  0  0  0  0  0  0  0  0  0  0
    2.5109    1.5063    5.3277 B   0  0  0  0  0  0  0  0  0  0  0  0
    2.7245    1.3535    6.4955 H   0  0  0  0  0  0  0  0  0  0  0  0
    2.0169   -0.0189    4.5387 B   0  0  0  0  0  0  0  0  0  0  0  0
    1.8536   -0.8776    5.1492 H   0  0  0  0  0  0  0  0  0  0  0  0
    2.6305    0.0006    2.8765 B   0  0  0  0  0  0  0  0  0  0  0  0
    2.9529   -0.8801    2.3408 H   0  0  0  0  0  0  0  0  0  0  0  0
    3.4657    1.5515    2.6305 B   0  0  0  0  0  0  0  0  0  0  0  0
    4.2746    1.6482    1.9414 H   0  0  0  0  0  0  0  0  0  0  0  0
    3.4285    2.4936    4.1499 B   0  0  0  0  0  0  0  0  0  0  0  0
    4.3139    3.0393    4.3332 H   0  0  0  0  0  0  0  0  0  0  0  0
    3.6063    0.7082    4.1833 B   0  0  0  0  0  0  0  0  0  0  0  0
    4.5141    0.2559    4.4862 H   0  0  0  0  0  0  0  0  0  0  0  0
   -0.4002    2.7341    2.4836 N   0  0  0  0  0  0  0  0  0  0  0  0
   -0.5877    3.3678    2.9273 H   0  0  0  0  0  0  0  0  0  0  0  0
   -1.7389    2.0706    2.1802 C   0  0  0  0  0  0  0  0  0  0  0  0
   -2.3395    1.3923    3.4071 C   0  0  0  0  0  0  0  0  0  0  0  0
   -1.7763    0.6355    3.6702 H   0  0  0  0  0  0  0  0  0  0  0  0
   -3.2404    1.0711    3.1942 H   0  0  0  0  0  0  0  0  0  0  0  0
   -2.3888    2.0362    4.1445 H   0  0  0  0  0  0  0  0  0  0  0  0
   -2.6379    3.2441    1.7839 C   0  0  0  0  0  0  0  0  0  0  0  0
   -2.2622    3.6931    0.9979 H   0  0  0  0  0  0  0  0  0  0  0  0
   -2.6933    3.8792    2.5278 H   0  0  0  0  0  0  0  0  0  0  0  0
   -3.5351    2.9110    1.5725 H   0  0  0  0  0  0  0  0  0  0  0  0
   -1.6161    1.1118    1.0023 C   0  0  0  0  0  0  0  0  0  0  0  0
   -1.2279    1.5838    0.2363 H   0  0  0  0  0  0  0  0  0  0  0  0
   -2.5041    0.7744    0.7616 H   0  0  0  0  0  0  0  0  0  0  0  0
   -1.0367    0.3616    1.2512 H   0  0  0  0  0  0  0  0  0  0  0  0
   -0.1224    3.8925    5.4043 C   0  0  0  0  0  0  0  0  0  0  0  0
   -1.1538    4.2650    5.7469 O   0  0  0  0  0  0  0  0  0  0  0  0
    2.3335    4.0753    6.2225 C   0  0  0  0  0  0  0  0  0  0  0  0
    2.8872    4.5173    7.1264 O   0  0  0  0  0  0  0  0  0  0  0  0
    1.6466    5.0205    4.0146 C   0  0  0  0  0  0  0  0  0  0  0  0
    1.7688    6.0707    3.5636 O   0  0  0  0  0  0  0  0  0  0  0  0
    0.9503    1.9458    6.8005 Cu  0  0  0  0  0  0  0  0  0  0  0  0
   -0.0187    1.7800    8.7383 P   0  0  0  0  0  0  0  0  0  0  0  0
    0.0819    0.1092    9.4465 C   0  0  0  0  0  0  0  0  0  0  0  0
   -0.6181   -0.2267   10.6023 C   0  0  0  0  0  0  0  0  0  0  0  0
   -1.2106    0.4022   10.9987 H   0  0  0  0  0  0  0  0  0  0  0  0
   -0.4500   -1.4778   11.1737 C   0  0  0  0  0  0  0  0  0  0  0  0
   -0.9271   -1.7055   11.9626 H   0  0  0  0  0  0  0  0  0  0  0  0
    0.4096   -2.3980   10.5996 C   0  0  0  0  0  0  0  0  0  0  0  0
    0.5322   -3.2488   11.0021 H   0  0  0  0  0  0  0  0  0  0  0  0
    1.0900   -2.0775    9.4392 C   0  0  0  0  0  0  0  0  0  0  0  0
    1.6685   -2.7151    9.0370 H   0  0  0  0  0  0  0  0  0  0  0  0
    0.9287   -0.8291    8.8632 C   0  0  0  0  0  0  0  0  0  0  0  0
    1.3981   -0.6116    8.0663 H   0  0  0  0  0  0  0  0  0  0  0  0
    0.7356    2.8154   10.0294 C   0  0  0  0  0  0  0  0  0  0  0  0
    1.6767    2.2579   10.9000 C   0  0  0  0  0  0  0  0  0  0  0  0
    1.9063    1.3396   10.8270 H   0  0  0  0  0  0  0  0  0  0  0  0
    2.2757    3.0491   11.8703 C   0  0  0  0  0  0  0  0  0  0  0  0
    2.9199    2.6715   12.4573 H   0  0  0  0  0  0  0  0  0  0  0  0
    1.9382    4.3789   11.9833 C   0  0  0  0  0  0  0  0  0  0  0  0
    2.3272    4.9101   12.6681 H   0  0  0  0  0  0  0  0  0  0  0  0
    1.0351    4.9403   11.1041 C   0  0  0  0  0  0  0  0  0  0  0  0
    0.8140    5.8609   11.1789 H   0  0  0  0  0  0  0  0  0  0  0  0
    0.4533    4.1747   10.1210 C   0  0  0  0  0  0  0  0  0  0  0  0
   -0.1449    4.5766    9.5011 H   0  0  0  0  0  0  0  0  0  0  0  0
   -1.7945    2.1927    8.7346 C   0  0  0  0  0  0  0  0  0  0  0  0
   -2.5392    1.8871    7.5934 C   0  0  0  0  0  0  0  0  0  0  0  0
   -2.1080    1.5076    6.8372 H   0  0  0  0  0  0  0  0  0  0  0  0
   -3.9007    2.1328    7.5541 C   0  0  0  0  0  0  0  0  0  0  0  0
   -4.4018    1.9018    6.7811 H   0  0  0  0  0  0  0  0  0  0  0  0
   -4.5316    2.7122    8.6334 C   0  0  0  0  0  0  0  0  0  0  0  0
   -5.4655    2.8847    8.6052 H   0  0  0  0  0  0  0  0  0  0  0  0
   -3.7963    3.0416    9.7617 C   0  0  0  0  0  0  0  0  0  0  0  0
   -4.2286    3.4522   10.5006 H   0  0  0  0  0  0  0  0  0  0  0  0
   -2.4411    2.7789    9.8229 C   0  0  0  0  0  0  0  0  0  0  0  0
   -1.9499    2.9969   10.6060 H   0  0  0  0  0  0  0  0  0  0  0  0
    0.4733    3.5435    0.8928 Cu  0  0  0  0  0  0  0  0  0  0  0  0
    1.0142    4.5774   -0.9331 P   0  0  0  0  0  0  0  0  0  0  0  0
   -0.3289    4.8183   -2.1416 C   0  0  0  0  0  0  0  0  0  0  0  0
   -1.1331    3.7304   -2.4694 C   0  0  0  0  0  0  0  0  0  0  0  0
   -0.9772    2.8897   -2.0569 H   0  0  0  0  0  0  0  0  0  0  0  0
   -2.1579    3.8622   -3.3919 C   0  0  0  0  0  0  0  0  0  0  0  0
   -2.6942    3.1128   -3.6209 H   0  0  0  0  0  0  0  0  0  0  0  0
   -2.3954    5.0957   -3.9801 C   0  0  0  0  0  0  0  0  0  0  0  0
   -3.1059    5.1917   -4.6035 H   0  0  0  0  0  0  0  0  0  0  0  0
   -1.6055    6.1852   -3.6658 C   0  0  0  0  0  0  0  0  0  0  0  0
   -1.7708    7.0268   -4.0748 H   0  0  0  0  0  0  0  0  0  0  0  0
   -0.5699    6.0484   -2.7512 C   0  0  0  0  0  0  0  0  0  0  0  0
   -0.0233    6.7961   -2.5397 H   0  0  0  0  0  0  0  0  0  0  0  0
    1.6382    6.2581   -0.6436 C   0  0  0  0  0  0  0  0  0  0  0  0
    1.0610    7.0127    0.3679 C   0  0  0  0  0  0  0  0  0  0  0  0
    0.3936    6.6271    0.9231 H   0  0  0  0  0  0  0  0  0  0  0  0
    1.4513    8.3190    0.5727 C   0  0  0  0  0  0  0  0  0  0  0  0
    1.0523    8.8309    1.2665 H   0  0  0  0  0  0  0  0  0  0  0  0
    2.4213    8.8826   -0.2314 C   0  0  0  0  0  0  0  0  0  0  0  0
    2.6862    9.7837   -0.0918 H   0  0  0  0  0  0  0  0  0  0  0  0
    3.0038    8.1438   -1.2330 C   0  0  0  0  0  0  0  0  0  0  0  0
    3.6718    8.5360   -1.7833 H   0  0  0  0  0  0  0  0  0  0  0  0
    2.6223    6.8315   -1.4446 C   0  0  0  0  0  0  0  0  0  0  0  0
    3.0312    6.3226   -2.1351 H   0  0  0  0  0  0  0  0  0  0  0  0
    2.2982    3.7051   -1.8703 C   0  0  0  0  0  0  0  0  0  0  0  0
    3.1854    2.8726   -1.1764 C   0  0  0  0  0  0  0  0  0  0  0  0
    3.1032    2.7671   -0.2363 H   0  0  0  0  0  0  0  0  0  0  0  0
    4.1830    2.2035   -1.8655 C   0  0  0  0  0  0  0  0  0  0  0  0
    4.7835    1.6354   -1.3974 H   0  0  0  0  0  0  0  0  0  0  0  0
    4.3065    2.3580   -3.2258 C   0  0  0  0  0  0  0  0  0  0  0  0
    4.9925    1.8949   -3.6923 H   0  0  0  0  0  0  0  0  0  0  0  0
    3.4368    3.1849   -3.9201 C   0  0  0  0  0  0  0  0  0  0  0  0
    3.5330    3.2939   -4.8585 H   0  0  0  0  0  0  0  0  0  0  0  0
    2.4320    3.8502   -3.2464 C   0  0  0  0  0  0  0  0  0  0  0  0
    1.8299    4.4090   -3.7246 H   0  0  0  0  0  0  0  0  0  0  0  0
  1  2  1  0  0  0  0
  2  3  1  0  0  0  0
  3  1  1  0  0  0  0
  4  3  1  0  0  0  0
  5  1  1  0  0  0  0
  6  5  1  0  0  0  0
  7  1  1  0  0  0  0
  8  7  1  0  0  0  0
  9  1  1  0  0  0  0
 10  9  1  0  0  0  0
 11  2  1  0  0  0  0
 12 11  1  0  0  0  0
 13  3  1  0  0  0  0
 14 13  1  0  0  0  0
 15  5  1  0  0  0  0
 16 15  1  0  0  0  0
 17  7  1  0  0  0  0
 18 17  1  0  0  0  0
 19  2  1  0  0  0  0
 20 19  1  0  0  0  0
 21 11  1  0  0  0  0
 22 21  1  0  0  0  0
 23  1  1  0  0  0  0
 24 23  1  0  0  0  0
 25 23  1  0  0  0  0
 26 25  1  0  0  0  0
 27 26  1  0  0  0  0
 28 26  1  0  0  0  0
 29 26  1  0  0  0  0
 30 25  1  0  0  0  0
 31 30  1  0  0  0  0
 32 30  1  0  0  0  0
 33 30  1  0  0  0  0
 34 25  1  0  0  0  0
 35 34  1  0  0  0  0
 36 34  1  0  0  0  0
 37 34  1  0  0  0  0
 38  2  1  0  0  0  0
 39 38  3  0  0  0  0
 40  2  1  0  0  0  0
 41 40  3  0  0  0  0
 42  2  1  0  0  0  0
 43 42  3  0  0  0  0
 44  2  1  0  0  0  0
 45 44  1  0  0  0  0
 46 45  1  0  0  0  0
 47 46  4  0  0  0  0
 48 47  1  0  0  0  0
 49 47  4  0  0  0  0
 50 49  1  0  0  0  0
 51 49  4  0  0  0  0
 52 51  1  0  0  0  0
 53 51  4  0  0  0  0
 54 53  1  0  0  0  0
 55 46  4  0  0  0  0
 56 55  1  0  0  0  0
 57 45  1  0  0  0  0
 58 57  4  0  0  0  0
 59 58  1  0  0  0  0
 60 58  4  0  0  0  0
 61 60  1  0  0  0  0
 62 60  4  0  0  0  0
 63 62  1  0  0  0  0
 64 62  4  0  0  0  0
 65 64  1  0  0  0  0
 66 57  4  0  0  0  0
 67 66  1  0  0  0  0
 68 45  1  0  0  0  0
 69 68  4  0  0  0  0
 70 69  1  0  0  0  0
 71 69  4  0  0  0  0
 72 71  1  0  0  0  0
 73 71  4  0  0  0  0
 74 73  1  0  0  0  0
 75 73  4  0  0  0  0
 76 75  1  0  0  0  0
 77 68  4  0  0  0  0
 78 77  1  0  0  0  0
 79 23  1  0  0  0  0
 80 79  1  0  0  0  0
 81 80  1  0  0  0  0
 82 81  4  0  0  0  0
 83 82  1  0  0  0  0
 84 82  4  0  0  0  0
 85 84  1  0  0  0  0
 86 84  4  0  0  0  0
 87 86  1  0  0  0  0
 88 86  4  0  0  0  0
 89 88  1  0  0  0  0
 90 81  4  0  0  0  0
 91 90  1  0  0  0  0
 92 80  1  0  0  0  0
 93 92  4  0  0  0  0
 94 93  1  0  0  0  0
 95 93  4  0  0  0  0
 96 95  1  0  0  0  0
 97 95  4  0  0  0  0
 98 97  1  0  0  0  0
 99 97  4  0  0  0  0
100 99  1  0  0  0  0
101 92  4  0  0  0  0
102101  1  0  0  0  0
103 80  1  0  0  0  0
104103  4  0  0  0  0
105104  1  0  0  0  0
106104  4  0  0  0  0
107106  1  0  0  0  0
108106  4  0  0  0  0
109108  1  0  0  0  0
110108  4  0  0  0  0
111110  1  0  0  0  0
112103  4  0  0  0  0
113112  1  0  0  0  0
  2  9  1  0  0  0  0
  3  5  1  0  0  0  0
  3 11  1  0  0  0  0
  4 44  1  0  0  0  0
  5  7  1  0  0  0  0
  5 13  1  0  0  0  0
  7  9  1  0  0  0  0
  7 15  1  0  0  0  0
  9 17  1  0  0  0  0
  9 19  1  0  0  0  0
 11 13  1  0  0  0  0
 11 19  1  0  0  0  0
 12 44  1  0  0  0  0
 13 15  1  0  0  0  0
 13 21  1  0  0  0  0
 15 17  1  0  0  0  0
 15 21  1  0  0  0  0
 17 19  1  0  0  0  0
 17 21  1  0  0  0  0
 19 21  1  0  0  0  0
 53 55  4  0  0  0  0
 64 66  4  0  0  0  0
 75 77  4  0  0  0  0
 88 90  4  0  0  0  0
 99101  4  0  0  0  0
110112  4  0  0  0  0
M  END
$$$$
YELSIR

From CSD data. Using bond type 'Any'. No disordered atoms. Largest molecule.
100122  0  0  0  0  0  0  0  0999 V2000
    8.8928    2.5356   12.8379 Ir  0  0  0  0  0  0  0  0  0  0  0  0
   10.3540    0.7072   12.6392 S   0  0  0  0  0  0  0  0  0  0  0  0
   10.6044    3.8884   11.8975 S   0  0  0  0  0  0  0  0  0  0  0  0
    7.1056    1.5332   14.0051 P   0  0  0  0  0  0  0  0  0  0  0  0
    7.9788    2.4546   10.6696 P   0  0  0  0  0  0  0  0  0  0  0  0
    9.2879    3.4209   14.6245 O   0  0  0  0  0  0  0  0  0  0  0  0
    8.2323    4.1397   13.8953 O   0  0  0  0  0  0  0  0  0  0  0  0
   10.6038    0.1383   14.3171 C   0  0  0  0  0  0  0  0  0  0  0  0
   10.9732    5.1664   13.0987 C   0  0  0  0  0  0  0  0  0  0  0  0
   12.0008    1.3637   12.1845 C   0  0  0  0  0  0  0  0  0  0  0  0
   12.0975    2.8598   11.8065 C   0  0  0  0  0  0  0  0  0  0  0  0
    5.4578    2.0319   13.3731 C   0  0  0  0  0  0  0  0  0  0  0  0
    4.4309    1.0656   13.2429 C   0  0  0  0  0  0  0  0  0  0  0  0
    3.1749    1.4513   12.7788 C   0  0  0  0  0  0  0  0  0  0  0  0
    2.9397    2.7663   12.4589 C   0  0  0  0  0  0  0  0  0  0  0  0
    3.9494    3.7111   12.6047 C   0  0  0  0  0  0  0  0  0  0  0  0
    5.2211    3.3507   13.0673 C   0  0  0  0  0  0  0  0  0  0  0  0
    7.1255   -0.2844   14.0929 C   0  0  0  0  0  0  0  0  0  0  0  0
    6.6499   -0.9663   15.2031 C   0  0  0  0  0  0  0  0  0  0  0  0
    6.6935   -2.3708   15.2439 C   0  0  0  0  0  0  0  0  0  0  0  0
    7.2058   -3.0644   14.1932 C   0  0  0  0  0  0  0  0  0  0  0  0
    7.6797   -2.3884   13.0987 C   0  0  0  0  0  0  0  0  0  0  0  0
    7.6086   -1.0247   13.0203 C   0  0  0  0  0  0  0  0  0  0  0  0
    6.9916    2.0572   15.7614 C   0  0  0  0  0  0  0  0  0  0  0  0
    8.0236    1.7513   16.6678 C   0  0  0  0  0  0  0  0  0  0  0  0
    7.9797    2.1254   17.9897 C   0  0  0  0  0  0  0  0  0  0  0  0
    6.8784    2.7994   18.4523 C   0  0  0  0  0  0  0  0  0  0  0  0
    5.8797    3.1150   17.5773 C   0  0  0  0  0  0  0  0  0  0  0  0
    5.9345    2.7429   16.2695 C   0  0  0  0  0  0  0  0  0  0  0  0
    6.8317    1.1026   10.1553 C   0  0  0  0  0  0  0  0  0  0  0  0
    5.4685    1.2117   10.2353 C   0  0  0  0  0  0  0  0  0  0  0  0
    4.6179    0.1812    9.8746 C   0  0  0  0  0  0  0  0  0  0  0  0
    5.1733   -1.0150    9.4277 C   0  0  0  0  0  0  0  0  0  0  0  0
    6.5279   -1.1533    9.3304 C   0  0  0  0  0  0  0  0  0  0  0  0
    7.3560   -0.0974    9.6958 C   0  0  0  0  0  0  0  0  0  0  0  0
    9.2244    2.4566    9.2975 C   0  0  0  0  0  0  0  0  0  0  0  0
    9.2033    3.4696    8.3127 C   0  0  0  0  0  0  0  0  0  0  0  0
   10.0876    3.3449    7.2323 C   0  0  0  0  0  0  0  0  0  0  0  0
   10.9226    2.2988    7.0849 C   0  0  0  0  0  0  0  0  0  0  0  0
   10.9664    1.3325    8.0712 C   0  0  0  0  0  0  0  0  0  0  0  0
   10.1408    1.3929    9.1721 C   0  0  0  0  0  0  0  0  0  0  0  0
    7.0329    3.9994   10.3309 C   0  0  0  0  0  0  0  0  0  0  0  0
    7.2886    5.1371   11.0852 C   0  0  0  0  0  0  0  0  0  0  0  0
    6.6060    6.3099   10.8531 C   0  0  0  0  0  0  0  0  0  0  0  0
    5.6789    6.3820    9.8432 C   0  0  0  0  0  0  0  0  0  0  0  0
    5.4284    5.2949    9.0639 C   0  0  0  0  0  0  0  0  0  0  0  0
    6.1133    4.0910    9.2850 C   0  0  0  0  0  0  0  0  0  0  0  0
   14.5206    2.1429   12.8431 B   0  0  0  0  0  0  0  0  0  0  0  0
   13.4433    0.8202   12.9372 B   0  0  0  0  0  0  0  0  0  0  0  0
   12.8142    2.4001   13.2963 B   0  0  0  0  0  0  0  0  0  0  0  0
   13.6330    3.5514   12.1845 B   0  0  0  0  0  0  0  0  0  0  0  0
   14.6658    2.6260   11.1652 B   0  0  0  0  0  0  0  0  0  0  0  0
   14.5652    0.9000   11.6199 B   0  0  0  0  0  0  0  0  0  0  0  0
   13.0990    3.1111   10.5567 B   0  0  0  0  0  0  0  0  0  0  0  0
   13.8392    1.4903   10.1302 B   0  0  0  0  0  0  0  0  0  0  0  0
   12.9259    0.3896   11.2749 B   0  0  0  0  0  0  0  0  0  0  0  0
   14.9965    2.3377   13.4860 H   0  0  0  0  0  0  0  0  0  0  0  0
   13.4102    0.1364   13.5017 H   0  0  0  0  0  0  0  0  0  0  0  0
   12.4150    2.6689   14.0662 H   0  0  0  0  0  0  0  0  0  0  0  0
   13.6396    4.5001   12.5608 H   0  0  0  0  0  0  0  0  0  0  0  0
   15.4496    3.0001   10.7574 H   0  0  0  0  0  0  0  0  0  0  0  0
   15.3259    0.4675   11.4161 H   0  0  0  0  0  0  0  0  0  0  0  0
   12.9475    3.6819    9.9420 H   0  0  0  0  0  0  0  0  0  0  0  0
   14.3175    1.0909    8.9854 H   0  0  0  0  0  0  0  0  0  0  0  0
   12.4810   -0.5455   10.9143 H   0  0  0  0  0  0  0  0  0  0  0  0
    9.7960   -0.2318   14.6496 H   0  0  0  0  0  0  0  0  0  0  0  0
   11.2839   -0.5260   14.3281 H   0  0  0  0  0  0  0  0  0  0  0  0
   10.8683    0.8689   14.8628 H   0  0  0  0  0  0  0  0  0  0  0  0
   11.1681    4.7670   13.9376 H   0  0  0  0  0  0  0  0  0  0  0  0
   11.7234    5.6709   12.8070 H   0  0  0  0  0  0  0  0  0  0  0  0
   10.2225    5.7430   13.1896 H   0  0  0  0  0  0  0  0  0  0  0  0
    4.5981    0.1578   13.4703 H   0  0  0  0  0  0  0  0  0  0  0  0
    2.4817    0.8085   12.6847 H   0  0  0  0  0  0  0  0  0  0  0  0
    2.0857    3.0312   12.1358 H   0  0  0  0  0  0  0  0  0  0  0  0
    3.7722    4.6189   12.3883 H   0  0  0  0  0  0  0  0  0  0  0  0
    6.2930   -0.4812   15.9402 H   0  0  0  0  0  0  0  0  0  0  0  0
    6.3651   -2.8345   16.0060 H   0  0  0  0  0  0  0  0  0  0  0  0
    7.2362   -4.0131   14.2168 H   0  0  0  0  0  0  0  0  0  0  0  0
    8.0649   -2.8754   12.3805 H   0  0  0  0  0  0  0  0  0  0  0  0
    7.8899   -0.5825   12.2268 H   0  0  0  0  0  0  0  0  0  0  0  0
    8.7799    1.2663   16.3541 H   0  0  0  0  0  0  0  0  0  0  0  0
    8.7018    1.9208   18.5731 H   0  0  0  0  0  0  0  0  0  0  0  0
    6.8188    3.0468   19.3681 H   0  0  0  0  0  0  0  0  0  0  0  0
    5.1192    3.6020   17.8894 H   0  0  0  0  0  0  0  0  0  0  0  0
    5.2141    2.9709   15.6924 H   0  0  0  0  0  0  0  0  0  0  0  0
    5.0931    2.0260   10.5505 H   0  0  0  0  0  0  0  0  0  0  0  0
    3.6762    0.2864    9.9310 H   0  0  0  0  0  0  0  0  0  0  0  0
    4.6058   -1.7397    9.1893 H   0  0  0  0  0  0  0  0  0  0  0  0
    6.9037   -1.9656    9.0137 H   0  0  0  0  0  0  0  0  0  0  0  0
    8.2982   -0.2007    9.6300 H   0  0  0  0  0  0  0  0  0  0  0  0
    8.6112    4.2098    8.3801 H   0  0  0  0  0  0  0  0  0  0  0  0
   10.1019    4.0326    6.5752 H   0  0  0  0  0  0  0  0  0  0  0  0
   11.4712    2.2150    6.3133 H   0  0  0  0  0  0  0  0  0  0  0  0
   11.5811    0.6117    7.9912 H   0  0  0  0  0  0  0  0  0  0  0  0
   10.1884    0.7208    9.8417 H   0  0  0  0  0  0  0  0  0  0  0  0
    7.9444    5.1040   11.7720 H   0  0  0  0  0  0  0  0  0  0  0  0
    6.7762    7.0716   11.3941 H   0  0  0  0  0  0  0  0  0  0  0  0
    5.2109    7.1943    9.6864 H   0  0  0  0  0  0  0  0  0  0  0  0
    4.7854    5.3514    8.3676 H   0  0  0  0  0  0  0  0  0  0  0  0
    5.9521    3.3429    8.7236 H   0  0  0  0  0  0  0  0  0  0  0  0
  1  2  1  0  0  0  0
  2  8  1  0  0  0  0
  3  1  1  0  0  0  0
  4  1  1  0  0  0  0
  5  1  1  0  0  0  0
  6  1  1  0  0  0  0
  7  1  1  0  0  0  0
  8 66  1  0  0  0  0
  9  3  1  0  0  0  0
 10  2  1  0  0  0  0
 11  3  1  0  0  0  0
 12  4  1  0  0  0  0
 13 12  4  0  0  0  0
 14 13  4  0  0  0  0
 15 14  4  0  0  0  0
 16 15  4  0  0  0  0
 17 12  4  0  0  0  0
 18  4  1  0  0  0  0
 19 18  4  0  0  0  0
 20 19  4  0  0  0  0
 21 20  4  0  0  0  0
 22 21  4  0  0  0  0
 23 18  4  0  0  0  0
 24  4  1  0  0  0  0
 25 24  4  0  0  0  0
 26 25  4  0  0  0  0
 27 26  4  0  0  0  0
 28 27  4  0  0  0  0
 29 24  4  0  0  0  0
 30  5  1  0  0  0  0
 31 30  4  0  0  0  0
 32 31  4  0  0  0  0
 33 32  4  0  0  0  0
 34 33  4  0  0  0  0
 35 30  4  0  0  0  0
 36  5  1  0  0  0  0
 37 36  4  0  0  0  0
 38 37  4  0  0  0  0
 39 38  4  0  0  0  0
 40 39  4  0  0  0  0
 41 36  4  0  0  0  0
 42  5  1  0  0  0  0
 43 42  4  0  0  0  0
 44 43  4  0  0  0  0
 45 44  4  0  0  0  0
 46 45  4  0  0  0  0
 47 42  4  0  0  0  0
 48 49  1  0  0  0  0
 49 10  1  0  0  0  0
 50 10  1  0  0  0  0
 51 11  1  0  0  0  0
 52 48  1  0  0  0  0
 53 48  1  0  0  0  0
 54 11  1  0  0  0  0
 55 52  1  0  0  0  0
 56 10  1  0  0  0  0
 57 48  1  0  0  0  0
 58 49  1  0  0  0  0
 59 50  1  0  0  0  0
 60 51  1  0  0  0  0
 61 52  1  0  0  0  0
 62 53  1  0  0  0  0
 63 54  1  0  0  0  0
 64 55  1  0  0  0  0
 65 56  1  0  0  0  0
 67  8  1  0  0  0  0
 68  8  1  0  0  0  0
 69  9  1  0  0  0  0
 70  9  1  0  0  0  0
 71  9  1  0  0  0  0
 72 13  1  0  0  0  0
 73 14  1  0  0  0  0
 74 15  1  0  0  0  0
 75 16  1  0  0  0  0
 76 19  1  0  0  0  0
 77 20  1  0  0  0  0
 78 21  1  0  0  0  0
 79 22  1  0  0  0  0
 80 23  1  0  0  0  0
 81 25  1  0  0  0  0
 82 26  1  0  0  0  0
 83 27  1  0  0  0  0
 84 28  1  0  0  0  0
 85 29  1  0  0  0  0
 86 31  1  0  0  0  0
 87 32  1  0  0  0  0
 88 33  1  0  0  0  0
 89 34  1  0  0  0  0
 90 35  1  0  0  0  0
 91 37  1  0  0  0  0
 92 38  1  0  0  0  0
 93 39  1  0  0  0  0
 94 40  1  0  0  0  0
 95 41  1  0  0  0  0
 96 43  1  0  0  0  0
 97 44  1  0  0  0  0
 98 45  1  0  0  0  0
 99 46  1  0  0  0  0
100 47  1  0  0  0  0
  6  7  1  0  0  0  0
 10 11  1  0  0  0  0
 11 50  1  0  0  0  0
 16 17  4  0  0  0  0
 22 23  4  0  0  0  0
 28 29  4  0  0  0  0
 34 35  4  0  0  0  0
 40 41  4  0  0  0  0
 46 47  4  0  0  0  0
 48 50  1  0  0  0  0
 48 51  1  0  0  0  0
 49 50  1  0  0  0  0
 49 53  1  0  0  0  0
 49 56  1  0  0  0  0
 50 51  1  0  0  0  0
 51 52  1  0  0  0  0
 51 54  1  0  0  0  0
 52 53  1  0  0  0  0
 52 54  1  0  0  0  0
 53 55  1  0  0  0  0
 53 56  1  0  0  0  0
 54 55  1  0  0  0  0
 55 56  1  0  0  0  0
M  END
$$$$
YEMPOY

From CSD data. Using bond type 'Any'. No disordered atoms. Largest molecule.
174206  0  0  0  0  0  0  0  0999 V2000
   11.5289    0.0488    8.7924 Zn  0  3  0  0  0  0  0  0  0  0  0  0
    6.9236    2.5650   10.3009 Fe  0  0  0  0  0  0  0  0  0  0  0  0
    3.6073    2.2848   11.1213 P   0  0  0  0  0  0  0  0  0  0  0  0
   11.2120   -0.1829    6.8865 O   0  0  0  0  0  0  0  0  0  0  0  0
    9.5756    0.8262   11.2824 B   0  5  0  0  0  0  0  0  0  0  0  0
   10.6218   -1.1713   10.0452 N   0  0  0  0  0  0  0  0  0  0  0  0
    9.9726   -0.6977   11.1581 N   0  0  0  0  0  0  0  0  0  0  0  0
   11.5842    1.7134    9.9335 N   0  0  0  0  0  0  0  0  0  0  0  0
   10.8667    1.7012   11.1153 N   0  0  0  0  0  0  0  0  0  0  0  0
   10.0262   -0.2935    6.1061 C   0  0  0  0  0  0  0  0  0  0  0  0
   10.2699   -0.3020    5.1456 H   0  0  0  0  0  0  0  0  0  0  0  0
    9.4557    0.4998    6.2657 H   0  0  0  0  0  0  0  0  0  0  0  0
    9.2475   -1.5267    6.4222 C   0  0  0  0  0  0  0  0  0  0  0  0
    9.3215   -2.7384    5.7538 C   0  0  0  0  0  0  0  0  0  0  0  0
    9.9079   -2.8547    5.0131 H   0  0  0  0  0  0  0  0  0  0  0  0
    8.4306   -3.8834    6.2446 C   0  0  0  0  0  0  0  0  0  0  0  0
    8.4565   -4.7471    5.8502 H   0  0  0  0  0  0  0  0  0  0  0  0
    7.6086   -3.5899    7.2683 C   0  0  0  0  0  0  0  0  0  0  0  0
    7.0308   -4.2867    7.5573 H   0  0  0  0  0  0  0  0  0  0  0  0
    7.5130   -2.4655    7.9066 C   0  0  0  0  0  0  0  0  0  0  0  0
    6.9082   -2.3492    8.6292 H   0  0  0  0  0  0  0  0  0  0  0  0
    8.3327   -1.4555    7.4791 C   0  0  0  0  0  0  0  0  0  0  0  0
    8.2753   -0.6283    7.9457 H   0  0  0  0  0  0  0  0  0  0  0  0
    8.4700    1.1816   10.1603 C   0  0  0  0  0  0  0  0  0  0  0  0
    8.5085    2.0979    9.0595 C   0  0  0  0  0  0  0  0  0  0  0  0
    9.2708    2.7074    8.8430 H   0  0  0  0  0  0  0  0  0  0  0  0
    7.2798    2.0322    8.3456 C   0  0  0  0  0  0  0  0  0  0  0  0
    7.0386    2.5649    7.5333 H   0  0  0  0  0  0  0  0  0  0  0  0
    6.4491    1.0616    9.0014 C   0  0  0  0  0  0  0  0  0  0  0  0
    5.5264    0.7906    8.7256 H   0  0  0  0  0  0  0  0  0  0  0  0
    7.1920    0.5289   10.1091 C   0  0  0  0  0  0  0  0  0  0  0  0
    6.8661   -0.1651   10.7489 H   0  0  0  0  0  0  0  0  0  0  0  0
    5.2054    3.1276   11.2707 C   0  0  0  0  0  0  0  0  0  0  0  0
    5.6507    4.1629   10.3743 C   0  0  0  0  0  0  0  0  0  0  0  0
    5.1297    4.5277    9.6017 H   0  0  0  0  0  0  0  0  0  0  0  0
    6.9453    4.5680   10.7549 C   0  0  0  0  0  0  0  0  0  0  0  0
    7.4982    5.2648   10.2972 H   0  0  0  0  0  0  0  0  0  0  0  0
    7.3380    3.8056   11.8807 C   0  0  0  0  0  0  0  0  0  0  0  0
    8.2153    3.8741   12.3567 H   0  0  0  0  0  0  0  0  0  0  0  0
    6.2777    2.9081   12.2056 C   0  0  0  0  0  0  0  0  0  0  0  0
    6.2788    2.2451   12.9529 H   0  0  0  0  0  0  0  0  0  0  0  0
   10.6237   -2.5180   10.1169 C   0  0  0  0  0  0  0  0  0  0  0  0
    9.9627   -2.9241   11.2668 C   0  0  0  0  0  0  0  0  0  0  0  0
    9.8209   -3.8159   11.5648 H   0  0  0  0  0  0  0  0  0  0  0  0
    9.5514   -1.7490   11.8972 C   0  0  0  0  0  0  0  0  0  0  0  0
   11.2520   -3.3404    9.0447 C   0  0  0  0  0  0  0  0  0  0  0  0
   10.8448   -3.1172    8.1836 H   0  0  0  0  0  0  0  0  0  0  0  0
   11.1098   -4.2904    9.2374 H   0  0  0  0  0  0  0  0  0  0  0  0
   12.2135   -3.1538    9.0116 H   0  0  0  0  0  0  0  0  0  0  0  0
    8.7441   -1.6093   13.1456 C   0  0  0  0  0  0  0  0  0  0  0  0
    7.8946   -1.1666   12.9378 H   0  0  0  0  0  0  0  0  0  0  0  0
    9.2412   -1.0728   13.7989 H   0  0  0  0  0  0  0  0  0  0  0  0
    8.5667   -2.4974   13.5219 H   0  0  0  0  0  0  0  0  0  0  0  0
   12.5346    2.6558   10.0479 C   0  0  0  0  0  0  0  0  0  0  0  0
   12.4246    3.2579   11.2939 C   0  0  0  0  0  0  0  0  0  0  0  0
   12.9641    3.9622   11.6341 H   0  0  0  0  0  0  0  0  0  0  0  0
   11.3776    2.6315   11.9439 C   0  0  0  0  0  0  0  0  0  0  0  0
   13.5172    2.9484    8.9514 C   0  0  0  0  0  0  0  0  0  0  0  0
   13.3550    2.3426    8.1987 H   0  0  0  0  0  0  0  0  0  0  0  0
   14.4292    2.8172    9.2856 H   0  0  0  0  0  0  0  0  0  0  0  0
   13.4082    3.8759    8.6533 H   0  0  0  0  0  0  0  0  0  0  0  0
   10.8908    2.8622   13.3443 C   0  0  0  0  0  0  0  0  0  0  0  0
   11.1863    3.7437   13.6514 H   0  0  0  0  0  0  0  0  0  0  0  0
   11.2555    2.1710   13.9344 H   0  0  0  0  0  0  0  0  0  0  0  0
    9.9123    2.8218   13.3593 H   0  0  0  0  0  0  0  0  0  0  0  0
    3.9968    0.5983   11.7636 C   0  0  0  0  0  0  0  0  0  0  0  0
    3.9652   -0.4445   10.8482 C   0  0  0  0  0  0  0  0  0  0  0  0
    3.6745   -0.2795    9.9600 H   0  0  0  0  0  0  0  0  0  0  0  0
    4.3585   -1.7321   11.2186 C   0  0  0  0  0  0  0  0  0  0  0  0
    4.3480   -2.4355   10.5773 H   0  0  0  0  0  0  0  0  0  0  0  0
    4.7615   -1.9788   12.5103 C   0  0  0  0  0  0  0  0  0  0  0  0
    5.0411   -2.8509   12.7602 H   0  0  0  0  0  0  0  0  0  0  0  0
    4.7605   -0.9444   13.4557 C   0  0  0  0  0  0  0  0  0  0  0  0
    5.0320   -1.1160   14.3499 H   0  0  0  0  0  0  0  0  0  0  0  0
    4.3631    0.3320   13.0784 C   0  0  0  0  0  0  0  0  0  0  0  0
    4.3423    1.0288   13.7236 H   0  0  0  0  0  0  0  0  0  0  0  0
    2.6853    2.9935   12.5404 C   0  0  0  0  0  0  0  0  0  0  0  0
    0.8018    2.9344   14.0488 C   0  0  0  0  0  0  0  0  0  0  0  0
   -0.0082    2.5049   14.3017 H   0  0  0  0  0  0  0  0  0  0  0  0
    1.5560    2.4092   12.9980 C   0  0  0  0  0  0  0  0  0  0  0  0
    1.2620    1.6055   12.5825 H   0  0  0  0  0  0  0  0  0  0  0  0
    1.1844    3.9978   14.6931 C   0  0  0  0  0  0  0  0  0  0  0  0
    0.5268    4.5118   15.1478 H   0  0  0  0  0  0  0  0  0  0  0  0
    2.6648    4.2248   12.6668 C   0  0  0  0  0  0  0  0  0  0  0  0
    3.1727    4.7818   12.0917 H   0  0  0  0  0  0  0  0  0  0  0  0
    1.8649    4.7800   13.6905 C   0  0  0  0  0  0  0  0  0  0  0  0
    1.7687    5.7253   13.7206 H   0  0  0  0  0  0  0  0  0  0  0  0
   13.0777    0.0488    6.2620 Zn  0  3  0  0  0  0  0  0  0  0  0  0
   17.6830    2.5650    4.7536 Fe  0  0  0  0  0  0  0  0  0  0  0  0
   20.9993    2.2848    3.9331 P   0  0  0  0  0  0  0  0  0  0  0  0
   13.3946   -0.1829    8.1679 O   0  0  0  0  0  0  0  0  0  0  0  0
   15.0310    0.8262    3.7720 B   0  5  0  0  0  0  0  0  0  0  0  0
   13.9848   -1.1713    5.0092 N   0  0  0  0  0  0  0  0  0  0  0  0
   14.6340   -0.6977    3.8964 N   0  0  0  0  0  0  0  0  0  0  0  0
   13.0224    1.7134    5.1209 N   0  0  0  0  0  0  0  0  0  0  0  0
   13.7399    1.7012    3.9391 N   0  0  0  0  0  0  0  0  0  0  0  0
   14.5805   -0.2935    8.9484 C   0  0  0  0  0  0  0  0  0  0  0  0
   14.3367   -0.3020    9.9088 H   0  0  0  0  0  0  0  0  0  0  0  0
   15.1509    0.4998    8.7888 H   0  0  0  0  0  0  0  0  0  0  0  0
   15.3592   -1.5267    8.6322 C   0  0  0  0  0  0  0  0  0  0  0  0
   15.2851   -2.7384    9.3006 C   0  0  0  0  0  0  0  0  0  0  0  0
   14.6988   -2.8547   10.0413 H   0  0  0  0  0  0  0  0  0  0  0  0
   16.1760   -3.8834    8.8099 C   0  0  0  0  0  0  0  0  0  0  0  0
   16.1501   -4.7471    9.2043 H   0  0  0  0  0  0  0  0  0  0  0  0
   16.9980   -3.5899    7.7862 C   0  0  0  0  0  0  0  0  0  0  0  0
   17.5758   -4.2867    7.4971 H   0  0  0  0  0  0  0  0  0  0  0  0
   17.0936   -2.4655    7.1479 C   0  0  0  0  0  0  0  0  0  0  0  0
   17.6984   -2.3492    6.4252 H   0  0  0  0  0  0  0  0  0  0  0  0
   16.2739   -1.4555    7.5754 C   0  0  0  0  0  0  0  0  0  0  0  0
   16.3313   -0.6283    7.1087 H   0  0  0  0  0  0  0  0  0  0  0  0
   16.1367    1.1816    4.8942 C   0  0  0  0  0  0  0  0  0  0  0  0
   16.0982    2.0979    5.9950 C   0  0  0  0  0  0  0  0  0  0  0  0
   15.3358    2.7074    6.2115 H   0  0  0  0  0  0  0  0  0  0  0  0
   17.3268    2.0322    6.7089 C   0  0  0  0  0  0  0  0  0  0  0  0
   17.5681    2.5649    7.5212 H   0  0  0  0  0  0  0  0  0  0  0  0
   18.1575    1.0616    6.0531 C   0  0  0  0  0  0  0  0  0  0  0  0
   19.0802    0.7906    6.3289 H   0  0  0  0  0  0  0  0  0  0  0  0
   17.4146    0.5289    4.9454 C   0  0  0  0  0  0  0  0  0  0  0  0
   17.7405   -0.1651    4.3056 H   0  0  0  0  0  0  0  0  0  0  0  0
   19.4012    3.1276    3.7838 C   0  0  0  0  0  0  0  0  0  0  0  0
   18.9559    4.1629    4.6801 C   0  0  0  0  0  0  0  0  0  0  0  0
   19.4770    4.5277    5.4527 H   0  0  0  0  0  0  0  0  0  0  0  0
   17.6614    4.5680    4.2996 C   0  0  0  0  0  0  0  0  0  0  0  0
   17.1084    5.2648    4.7572 H   0  0  0  0  0  0  0  0  0  0  0  0
   17.2686    3.8056    3.1738 C   0  0  0  0  0  0  0  0  0  0  0  0
   16.3913    3.8741    2.6978 H   0  0  0  0  0  0  0  0  0  0  0  0
   18.3289    2.9081    2.8489 C   0  0  0  0  0  0  0  0  0  0  0  0
   18.3278    2.2451    2.1016 H   0  0  0  0  0  0  0  0  0  0  0  0
   13.9830   -2.5180    4.9376 C   0  0  0  0  0  0  0  0  0  0  0  0
   14.6440   -2.9241    3.7877 C   0  0  0  0  0  0  0  0  0  0  0  0
   14.7858   -3.8159    3.4896 H   0  0  0  0  0  0  0  0  0  0  0  0
   15.0552   -1.7490    3.1572 C   0  0  0  0  0  0  0  0  0  0  0  0
   13.3546   -3.3404    6.0097 C   0  0  0  0  0  0  0  0  0  0  0  0
   13.7618   -3.1172    6.8709 H   0  0  0  0  0  0  0  0  0  0  0  0
   13.4969   -4.2904    5.8170 H   0  0  0  0  0  0  0  0  0  0  0  0
   12.3932   -3.1538    6.0429 H   0  0  0  0  0  0  0  0  0  0  0  0
   15.8626   -1.6093    1.9089 C   0  0  0  0  0  0  0  0  0  0  0  0
   16.7120   -1.1666    2.1167 H   0  0  0  0  0  0  0  0  0  0  0  0
   15.3655   -1.0728    1.2555 H   0  0  0  0  0  0  0  0  0  0  0  0
   16.0399   -2.4974    1.5325 H   0  0  0  0  0  0  0  0  0  0  0  0
   12.0720    2.6558    5.0065 C   0  0  0  0  0  0  0  0  0  0  0  0
   12.1820    3.2579    3.7606 C   0  0  0  0  0  0  0  0  0  0  0  0
   11.6425    3.9622    3.4204 H   0  0  0  0  0  0  0  0  0  0  0  0
   13.2290    2.6315    3.1106 C   0  0  0  0  0  0  0  0  0  0  0  0
   11.0895    2.9484    6.1031 C   0  0  0  0  0  0  0  0  0  0  0  0
   11.2516    2.3426    6.8558 H   0  0  0  0  0  0  0  0  0  0  0  0
   10.1774    2.8172    5.7689 H   0  0  0  0  0  0  0  0  0  0  0  0
   11.1984    3.8759    6.4012 H   0  0  0  0  0  0  0  0  0  0  0  0
   13.7158    2.8622    1.7102 C   0  0  0  0  0  0  0  0  0  0  0  0
   13.4203    3.7437    1.4031 H   0  0  0  0  0  0  0  0  0  0  0  0
   13.3512    2.1710    1.1201 H   0  0  0  0  0  0  0  0  0  0  0  0
   14.6943    2.8218    1.6951 H   0  0  0  0  0  0  0  0  0  0  0  0
   20.6098    0.5983    3.2909 C   0  0  0  0  0  0  0  0  0  0  0  0
   20.6414   -0.4445    4.2062 C   0  0  0  0  0  0  0  0  0  0  0  0
   20.9322   -0.2795    5.0944 H   0  0  0  0  0  0  0  0  0  0  0  0
   20.2481   -1.7321    3.8359 C   0  0  0  0  0  0  0  0  0  0  0  0
   20.2586   -2.4355    4.4772 H   0  0  0  0  0  0  0  0  0  0  0  0
   19.8451   -1.9788    2.5442 C   0  0  0  0  0  0  0  0  0  0  0  0
   19.5655   -2.8509    2.2943 H   0  0  0  0  0  0  0  0  0  0  0  0
   19.8461   -0.9444    1.5988 C   0  0  0  0  0  0  0  0  0  0  0  0
   19.5746   -1.1160    0.7045 H   0  0  0  0  0  0  0  0  0  0  0  0
   20.2435    0.3320    1.9760 C   0  0  0  0  0  0  0  0  0  0  0  0
   20.2643    1.0288    1.3308 H   0  0  0  0  0  0  0  0  0  0  0  0
   21.9213    2.9935    2.5141 C   0  0  0  0  0  0  0  0  0  0  0  0
   23.8048    2.9344    1.0056 C   0  0  0  0  0  0  0  0  0  0  0  0
   24.6148    2.5049    0.7527 H   0  0  0  0  0  0  0  0  0  0  0  0
   23.0506    2.4092    2.0564 C   0  0  0  0  0  0  0  0  0  0  0  0
   23.3446    1.6055    2.4719 H   0  0  0  0  0  0  0  0  0  0  0  0
   23.4222    3.9978    0.3613 C   0  0  0  0  0  0  0  0  0  0  0  0
   24.0798    4.5118   -0.0933 H   0  0  0  0  0  0  0  0  0  0  0  0
   21.9418    4.2248    2.3876 C   0  0  0  0  0  0  0  0  0  0  0  0
   21.4339    4.7818    2.9627 H   0  0  0  0  0  0  0  0  0  0  0  0
   22.7417    4.7800    1.3639 C   0  0  0  0  0  0  0  0  0  0  0  0
   22.8380    5.7253    1.3338 H   0  0  0  0  0  0  0  0  0  0  0  0
  1  4  1  0  0  0  0
  2 24  8  0  0  0  0
  3 33  1  0  0  0  0
  4 10  1  0  0  0  0
  5  7  1  0  0  0  0
  6  1  1  0  0  0  0
  7  6  1  0  0  0  0
  8  1  1  0  0  0  0
  9  5  1  0  0  0  0
 10 11  1  0  0  0  0
 12 10  1  0  0  0  0
 13 10  1  0  0  0  0
 14 13  4  0  0  0  0
 15 14  1  0  0  0  0
 16 14  4  0  0  0  0
 17 16  1  0  0  0  0
 18 16  4  0  0  0  0
 19 18  1  0  0  0  0
 20 18  4  0  0  0  0
 21 20  1  0  0  0  0
 22 13  4  0  0  0  0
 23 22  1  0  0  0  0
 24  5  1  0  0  0  0
 25  2  8  0  0  0  0
 26 25  1  0  0  0  0
 27  2  8  0  0  0  0
 28 27  1  0  0  0  0
 29  2  8  0  0  0  0
 30 29  1  0  0  0  0
 31  2  8  0  0  0  0
 32 31  1  0  0  0  0
 33  2  8  0  0  0  0
 34  2  8  0  0  0  0
 35 34  1  0  0  0  0
 36  2  8  0  0  0  0
 37 36  1  0  0  0  0
 38  2  8  0  0  0  0
 39 38  1  0  0  0  0
 40  2  8  0  0  0  0
 41 40  1  0  0  0  0
 42  6  2  0  0  0  0
 43 42  1  0  0  0  0
 44 43  1  0  0  0  0
 45  7  1  0  0  0  0
 46 42  1  0  0  0  0
 47 46  1  0  0  0  0
 48 46  1  0  0  0  0
 49 46  1  0  0  0  0
 50 45  1  0  0  0  0
 51 50  1  0  0  0  0
 52 50  1  0  0  0  0
 53 50  1  0  0  0  0
 54  8  2  0  0  0  0
 55 54  1  0  0  0  0
 56 55  1  0  0  0  0
 57  9  1  0  0  0  0
 58 54  1  0  0  0  0
 59 58  1  0  0  0  0
 60 58  1  0  0  0  0
 61 58  1  0  0  0  0
 62 57  1  0  0  0  0
 63 62  1  0  0  0  0
 64 62  1  0  0  0  0
 65 62  1  0  0  0  0
 66  3  1  0  0  0  0
 67 66  4  0  0  0  0
 68 67  1  0  0  0  0
 69 67  4  0  0  0  0
 70 69  1  0  0  0  0
 71 69  4  0  0  0  0
 72 71  1  0  0  0  0
 73 71  4  0  0  0  0
 74 73  1  0  0  0  0
 75 66  4  0  0  0  0
 76 75  1  0  0  0  0
 77  3  1  0  0  0  0
 78 79  1  0  0  0  0
 80 77  4  0  0  0  0
 81 80  1  0  0  0  0
 82 78  4  0  0  0  0
 83 82  1  0  0  0  0
 84 77  4  0  0  0  0
 85 84  1  0  0  0  0
 86 82  4  0  0  0  0
 87 86  1  0  0  0  0
 88  4  1  0  0  0  0
 89111  8  0  0  0  0
 90120  1  0  0  0  0
 91  1  1  0  0  0  0
 92 94  1  0  0  0  0
 93 88  1  0  0  0  0
 94 93  1  0  0  0  0
 95 88  1  0  0  0  0
 96 92  1  0  0  0  0
 97 91  1  0  0  0  0
 98 97  1  0  0  0  0
 99 97  1  0  0  0  0
100 97  1  0  0  0  0
101100  4  0  0  0  0
102101  1  0  0  0  0
103101  4  0  0  0  0
104103  1  0  0  0  0
105103  4  0  0  0  0
106105  1  0  0  0  0
107105  4  0  0  0  0
108107  1  0  0  0  0
109100  4  0  0  0  0
110109  1  0  0  0  0
111 92  1  0  0  0  0
112 89  8  0  0  0  0
113112  1  0  0  0  0
114 89  8  0  0  0  0
115114  1  0  0  0  0
116 89  8  0  0  0  0
117116  1  0  0  0  0
118 89  8  0  0  0  0
119118  1  0  0  0  0
120 89  8  0  0  0  0
121 89  8  0  0  0  0
122121  1  0  0  0  0
123 89  8  0  0  0  0
124123  1  0  0  0  0
125 89  8  0  0  0  0
126125  1  0  0  0  0
127 89  8  0  0  0  0
128127  1  0  0  0  0
129 93  2  0  0  0  0
130129  1  0  0  0  0
131130  1  0  0  0  0
132 94  1  0  0  0  0
133129  1  0  0  0  0
134133  1  0  0  0  0
135133  1  0  0  0  0
136133  1  0  0  0  0
137132  1  0  0  0  0
138137  1  0  0  0  0
139137  1  0  0  0  0
140137  1  0  0  0  0
141 95  2  0  0  0  0
142141  1  0  0  0  0
143142  1  0  0  0  0
144 96  1  0  0  0  0
145141  1  0  0  0  0
146145  1  0  0  0  0
147145  1  0  0  0  0
148145  1  0  0  0  0
149144  1  0  0  0  0
150149  1  0  0  0  0
151149  1  0  0  0  0
152149  1  0  0  0  0
153 90  1  0  0  0  0
154153  4  0  0  0  0
155154  1  0  0  0  0
156154  4  0  0  0  0
157156  1  0  0  0  0
158156  4  0  0  0  0
159158  1  0  0  0  0
160158  4  0  0  0  0
161160  1  0  0  0  0
162153  4  0  0  0  0
163162  1  0  0  0  0
164 90  1  0  0  0  0
165166  1  0  0  0  0
167164  4  0  0  0  0
168167  1  0  0  0  0
169165  4  0  0  0  0
170169  1  0  0  0  0
171164  4  0  0  0  0
172171  1  0  0  0  0
173169  4  0  0  0  0
174173  1  0  0  0  0
  8  9  1  0  0  0  0
 20 22  4  0  0  0  0
 24 25  4  0  0  0  0
 24 31  4  0  0  0  0
 25 27  4  0  0  0  0
 27 29  4  0  0  0  0
 29 31  4  0  0  0  0
 33 34  4  0  0  0  0
 33 40  4  0  0  0  0
 34 36  4  0  0  0  0
 36 38  4  0  0  0  0
 38 40  4  0  0  0  0
 43 45  2  0  0  0  0
 55 57  2  0  0  0  0
 73 75  4  0  0  0  0
 78 80  4  0  0  0  0
 84 86  4  0  0  0  0
 88 91  1  0  0  0  0
 95 96  1  0  0  0  0
107109  4  0  0  0  0
111112  4  0  0  0  0
111118  4  0  0  0  0
112114  4  0  0  0  0
114116  4  0  0  0  0
116118  4  0  0  0  0
120121  4  0  0  0  0
120127  4  0  0  0  0
121123  4  0  0  0  0
123125  4  0  0  0  0
125127  4  0  0  0  0
130132  2  0  0  0  0
142144  2  0  0  0  0
160162  4  0  0  0  0
165167  4  0  0  0  0
171173  4  0  0  0  0
M  CHG  4   1   1   5  -1  88   1  92  -1
M  END
$$$$
YENCEA

From CSD data. Using bond type 'Any'. No disordered atoms. Largest molecule.
103131  0  0  0  0  0  0  0  0999 V2000
    3.9985    7.7079    4.7598 Ru  0  0  0  0  0  0  0  0  0  0  0  0
    6.1117    8.5879    4.5512 P   0  0  0  0  0  0  0  0  0  0  0  0
    3.7235    8.2873    6.9355 P   0  0  0  0  0  0  0  0  0  0  0  0
    6.3041    9.5065    3.2385 O   0  0  0  0  0  0  0  0  0  0  0  0
    3.4090    9.8337    7.2848 O   0  0  0  0  0  0  0  0  0  0  0  0
    2.0394    8.7875    2.3729 C   0  0  0  0  0  0  0  0  0  0  0  0
    2.9627    9.3490    3.7951 C   0  0  0  0  0  0  0  0  0  0  0  0
    2.1078    7.2518    2.0940 C   0  0  0  0  0  0  0  0  0  0  0  0
    2.7526    6.9561    0.7576 C   0  0  0  0  0  0  0  0  0  0  0  0
    2.2517    7.3829    0.0597 H   0  0  0  0  0  0  0  0  0  0  0  0
    2.7612    6.0078    0.6109 H   0  0  0  0  0  0  0  0  0  0  0  0
    3.6527    7.2883    0.7549 H   0  0  0  0  0  0  0  0  0  0  0  0
    0.6929    6.6435    2.0693 C   0  0  0  0  0  0  0  0  0  0  0  0
    0.1700    7.0757    1.3905 H   0  0  0  0  0  0  0  0  0  0  0  0
    0.2759    6.7703    2.9250 H   0  0  0  0  0  0  0  0  0  0  0  0
    0.7521    5.7042    1.8780 H   0  0  0  0  0  0  0  0  0  0  0  0
    2.9051    6.5668    3.2105 C   0  0  0  0  0  0  0  0  0  0  0  0
    4.2718    6.1823    3.1544 C   0  0  0  0  0  0  0  0  0  0  0  0
    4.8618    6.2649    2.3758 H   0  0  0  0  0  0  0  0  0  0  0  0
    4.6107    5.5775    4.4064 C   0  0  0  0  0  0  0  0  0  0  0  0
    5.4757    5.1809    4.6385 H   0  0  0  0  0  0  0  0  0  0  0  0
    3.4602    5.5772    5.2109 C   0  0  0  0  0  0  0  0  0  0  0  0
    3.3925    5.1845    6.1071 H   0  0  0  0  0  0  0  0  0  0  0  0
    2.3884    6.1898    4.4918 C   0  0  0  0  0  0  0  0  0  0  0  0
    1.4586    6.2703    4.7907 H   0  0  0  0  0  0  0  0  0  0  0  0
    7.3228    7.2491    4.2300 C   0  0  0  0  0  0  0  0  0  0  0  0
    7.5668    6.8900    2.9024 C   0  0  0  0  0  0  0  0  0  0  0  0
    7.2322    7.4115    2.2092 H   0  0  0  0  0  0  0  0  0  0  0  0
    8.3057    5.7595    2.6206 C   0  0  0  0  0  0  0  0  0  0  0  0
    8.4510    5.5077    1.7361 H   0  0  0  0  0  0  0  0  0  0  0  0
    8.8280    5.0023    3.6408 C   0  0  0  0  0  0  0  0  0  0  0  0
    9.3217    4.2397    3.4393 H   0  0  0  0  0  0  0  0  0  0  0  0
    8.6330    5.3506    4.9491 C   0  0  0  0  0  0  0  0  0  0  0  0
    9.0163    4.8469    5.6299 H   0  0  0  0  0  0  0  0  0  0  0  0
    7.8560    6.4698    5.2556 C   0  0  0  0  0  0  0  0  0  0  0  0
    7.6937    6.6953    6.1442 H   0  0  0  0  0  0  0  0  0  0  0  0
    6.9124    9.6506    5.8185 C   0  0  0  0  0  0  0  0  0  0  0  0
    8.2220    9.5135    6.2698 C   0  0  0  0  0  0  0  0  0  0  0  0
    8.7415    8.8045    5.9673 H   0  0  0  0  0  0  0  0  0  0  0  0
    8.7604   10.4225    7.1665 C   0  0  0  0  0  0  0  0  0  0  0  0
    9.6321   10.3064    7.4709 H   0  0  0  0  0  0  0  0  0  0  0  0
    8.0308   11.4851    7.6087 C   0  0  0  0  0  0  0  0  0  0  0  0
    8.3922   12.0798    8.2238 H   0  0  0  0  0  0  0  0  0  0  0  0
    6.7470   11.6664    7.1299 C   0  0  0  0  0  0  0  0  0  0  0  0
    6.2599   12.4138    7.3927 H   0  0  0  0  0  0  0  0  0  0  0  0
    6.1807   10.7517    6.2663 C   0  0  0  0  0  0  0  0  0  0  0  0
    5.3046   10.8690    5.9796 H   0  0  0  0  0  0  0  0  0  0  0  0
    7.5677   10.1350    2.8921 C   0  0  0  0  0  0  0  0  0  0  0  0
    7.8786    9.7939    2.0385 H   0  0  0  0  0  0  0  0  0  0  0  0
    8.2346    9.9225    3.5627 H   0  0  0  0  0  0  0  0  0  0  0  0
    7.3871   11.6066    2.8098 C   0  0  0  0  0  0  0  0  0  0  0  0
    8.2192   12.0173    2.5650 H   0  0  0  0  0  0  0  0  0  0  0  0
    7.1049   11.9423    3.6655 H   0  0  0  0  0  0  0  0  0  0  0  0
    6.7215   11.8119    2.1495 H   0  0  0  0  0  0  0  0  0  0  0  0
    2.3211    7.3954    7.7449 C   0  0  0  0  0  0  0  0  0  0  0  0
    1.0308    7.6312    7.2776 C   0  0  0  0  0  0  0  0  0  0  0  0
    0.8996    8.2473    6.5926 H   0  0  0  0  0  0  0  0  0  0  0  0
   -0.0555    6.9668    7.8083 C   0  0  0  0  0  0  0  0  0  0  0  0
   -0.9100    7.1472    7.4874 H   0  0  0  0  0  0  0  0  0  0  0  0
    0.1159    6.0453    8.8079 C   0  0  0  0  0  0  0  0  0  0  0  0
   -0.6143    5.5827    9.1515 H   0  0  0  0  0  0  0  0  0  0  0  0
    1.3726    5.8131    9.2934 C   0  0  0  0  0  0  0  0  0  0  0  0
    1.4933    5.2005    9.9825 H   0  0  0  0  0  0  0  0  0  0  0  0
    2.4693    6.4803    8.7701 C   0  0  0  0  0  0  0  0  0  0  0  0
    3.3171    6.3096    9.1144 H   0  0  0  0  0  0  0  0  0  0  0  0
    5.1125    7.8989    8.0738 C   0  0  0  0  0  0  0  0  0  0  0  0
    5.6805    6.6271    8.0763 C   0  0  0  0  0  0  0  0  0  0  0  0
    5.3408    5.9756    7.5059 H   0  0  0  0  0  0  0  0  0  0  0  0
    6.7443    6.3096    8.9108 C   0  0  0  0  0  0  0  0  0  0  0  0
    7.0951    5.4488    8.9149 H   0  0  0  0  0  0  0  0  0  0  0  0
    7.2774    7.2847    9.7332 C   0  0  0  0  0  0  0  0  0  0  0  0
    7.9983    7.0847   10.2848 H   0  0  0  0  0  0  0  0  0  0  0  0
    6.7402    8.5473    9.7334 C   0  0  0  0  0  0  0  0  0  0  0  0
    7.1081    9.2045   10.2807 H   0  0  0  0  0  0  0  0  0  0  0  0
    5.6608    8.8513    8.9301 C   0  0  0  0  0  0  0  0  0  0  0  0
    5.2937    9.7046    8.9602 H   0  0  0  0  0  0  0  0  0  0  0  0
    2.6508   10.3154    8.4130 C   0  0  0  0  0  0  0  0  0  0  0  0
    2.9815    9.9171    9.2337 H   0  0  0  0  0  0  0  0  0  0  0  0
    1.7154   10.0796    8.3122 H   0  0  0  0  0  0  0  0  0  0  0  0
    2.8042   11.8030    8.4624 C   0  0  0  0  0  0  0  0  0  0  0  0
    2.3156   12.1495    9.2132 H   0  0  0  0  0  0  0  0  0  0  0  0
    2.4619   12.1870    7.6519 H   0  0  0  0  0  0  0  0  0  0  0  0
    3.7337   12.0245    8.5549 H   0  0  0  0  0  0  0  0  0  0  0  0
    3.4720    9.6831    2.1693 B   0  0  0  0  0  0  0  0  0  0  0  0
    4.3963    9.2420    1.7690 H   0  0  0  0  0  0  0  0  0  0  0  0
    2.0253    9.9618    1.1313 B   0  0  0  0  0  0  0  0  0  0  0  0
    2.0169    9.7224    0.0576 H   0  0  0  0  0  0  0  0  0  0  0  0
    0.6022    9.7046    2.1434 B   0  0  0  0  0  0  0  0  0  0  0  0
   -0.3365    9.3010    1.7381 H   0  0  0  0  0  0  0  0  0  0  0  0
    1.2094    9.2760    3.7692 B   0  0  0  0  0  0  0  0  0  0  0  0
    0.6684    8.5652    4.4101 H   0  0  0  0  0  0  0  0  0  0  0  0
    3.4781   10.9358    3.4242 B   0  0  0  0  0  0  0  0  0  0  0  0
    4.4115   11.3494    3.8342 H   0  0  0  0  0  0  0  0  0  0  0  0
    2.9313   11.3440    1.7752 B   0  0  0  0  0  0  0  0  0  0  0  0
    3.5141   12.0066    1.1190 H   0  0  0  0  0  0  0  0  0  0  0  0
    1.1482   11.3512    1.7813 B   0  0  0  0  0  0  0  0  0  0  0  0
    0.5690   12.0298    1.1375 H   0  0  0  0  0  0  0  0  0  0  0  0
    0.6140   10.9154    3.4249 B   0  0  0  0  0  0  0  0  0  0  0  0
   -0.3236   11.2994    3.8548 H   0  0  0  0  0  0  0  0  0  0  0  0
    2.0615   10.6672    4.4245 B   0  0  0  0  0  0  0  0  0  0  0  0
    2.0522   10.8993    5.5003 H   0  0  0  0  0  0  0  0  0  0  0  0
    2.0442   11.9387    3.1883 B   0  0  0  0  0  0  0  0  0  0  0  0
    2.0410   13.0067    3.4537 H   0  0  0  0  0  0  0  0  0  0  0  0
  1  2  1  0  0  0  0
  2  4  1  0  0  0  0
  3  1  1  0  0  0  0
  4 48  1  0  0  0  0
  5  3  1  0  0  0  0
  6  7  1  0  0  0  0
  7  1  1  0  0  0  0
  8  6  1  0  0  0  0
  9  8  1  0  0  0  0
 10  9  1  0  0  0  0
 11  9  1  0  0  0  0
 12  9  1  0  0  0  0
 13  8  1  0  0  0  0
 14 13  1  0  0  0  0
 15 13  1  0  0  0  0
 16 13  1  0  0  0  0
 17  1  8  0  0  0  0
 18  1  8  0  0  0  0
 19 18  1  0  0  0  0
 20  1  8  0  0  0  0
 21 20  1  0  0  0  0
 22  1  8  0  0  0  0
 23 22  1  0  0  0  0
 24  1  8  0  0  0  0
 25 24  1  0  0  0  0
 26  2  1  0  0  0  0
 27 26  4  0  0  0  0
 28 27  1  0  0  0  0
 29 27  4  0  0  0  0
 30 29  1  0  0  0  0
 31 29  4  0  0  0  0
 32 31  1  0  0  0  0
 33 31  4  0  0  0  0
 34 33  1  0  0  0  0
 35 26  4  0  0  0  0
 36 35  1  0  0  0  0
 37  2  1  0  0  0  0
 38 37  4  0  0  0  0
 39 38  1  0  0  0  0
 40 38  4  0  0  0  0
 41 40  1  0  0  0  0
 42 40  4  0  0  0  0
 43 42  1  0  0  0  0
 44 42  4  0  0  0  0
 45 44  1  0  0  0  0
 46 37  4  0  0  0  0
 47 46  1  0  0  0  0
 48 49  1  0  0  0  0
 50 48  1  0  0  0  0
 51 48  1  0  0  0  0
 52 51  1  0  0  0  0
 53 51  1  0  0  0  0
 54 51  1  0  0  0  0
 55  3  1  0  0  0  0
 56 55  4  0  0  0  0
 57 56  1  0  0  0  0
 58 56  4  0  0  0  0
 59 58  1  0  0  0  0
 60 58  4  0  0  0  0
 61 60  1  0  0  0  0
 62 60  4  0  0  0  0
 63 62  1  0  0  0  0
 64 55  4  0  0  0  0
 65 64  1  0  0  0  0
 66  3  1  0  0  0  0
 67 66  4  0  0  0  0
 68 67  1  0  0  0  0
 69 67  4  0  0  0  0
 70 69  1  0  0  0  0
 71 69  4  0  0  0  0
 72 71  1  0  0  0  0
 73 71  4  0  0  0  0
 74 73  1  0  0  0  0
 75 66  4  0  0  0  0
 76 75  1  0  0  0  0
 77  5  1  0  0  0  0
 78 77  1  0  0  0  0
 79 77  1  0  0  0  0
 80 77  1  0  0  0  0
 81 80  1  0  0  0  0
 82 80  1  0  0  0  0
 83 80  1  0  0  0  0
 84  6  1  0  0  0  0
 85 84  1  0  0  0  0
 86  6  1  0  0  0  0
 87 86  1  0  0  0  0
 88  6  1  0  0  0  0
 89 88  1  0  0  0  0
 90  6  1  0  0  0  0
 91 90  1  0  0  0  0
 92  7  1  0  0  0  0
 93 92  1  0  0  0  0
 94 84  1  0  0  0  0
 95 94  1  0  0  0  0
 96 86  1  0  0  0  0
 97 96  1  0  0  0  0
 98 88  1  0  0  0  0
 99 98  1  0  0  0  0
100  7  1  0  0  0  0
101100  1  0  0  0  0
102 92  1  0  0  0  0
103102  1  0  0  0  0
  7 84  1  0  0  0  0
  7 90  1  0  0  0  0
  8 17  1  0  0  0  0
 17 18  4  0  0  0  0
 17 24  4  0  0  0  0
 18 20  4  0  0  0  0
 20 22  4  0  0  0  0
 22 24  4  0  0  0  0
 33 35  4  0  0  0  0
 44 46  4  0  0  0  0
 62 64  4  0  0  0  0
 73 75  4  0  0  0  0
 84 86  1  0  0  0  0
 84 92  1  0  0  0  0
 86 88  1  0  0  0  0
 86 94  1  0  0  0  0
 88 90  1  0  0  0  0
 88 96  1  0  0  0  0
 90 98  1  0  0  0  0
 90100  1  0  0  0  0
 92 94  1  0  0  0  0
 92100  1  0  0  0  0
 94 96  1  0  0  0  0
 94102  1  0  0  0  0
 96 98  1  0  0  0  0
 96102  1  0  0  0  0
 98100  1  0  0  0  0
 98102  1  0  0  0  0
100102  1  0  0  0  0
M  END
$$$$
YEZTUS

From CSD data. Using bond type 'Any'. No disordered atoms. Largest molecule.
 69 89  0  0  0  0  0  0  0  0999 V2000
   -0.5749   -1.5538    9.8251 C   0  0  0  0  0  0  0  0  0  0  0  0
   -1.4924   -1.0096   10.9472 C   0  0  0  0  0  0  0  0  0  0  0  0
   -1.7190    0.7083    9.2874 Pt  0  0  0  0  0  0  0  0  0  0  0  0
   -1.4620   -1.3760    8.3859 B   0  0  0  0  0  0  0  0  0  0  0  0
   -1.2165   -2.9668    9.1961 B   0  0  0  0  0  0  0  0  0  0  0  0
   -1.1853   -2.7329   10.8894 B   0  0  0  0  0  0  0  0  0  0  0  0
   -3.1246   -0.5394   10.4818 B   0  0  0  0  0  0  0  0  0  0  0  0
   -3.2140   -0.8795    8.7432 B   0  0  0  0  0  0  0  0  0  0  0  0
   -2.7785   -2.5956    8.5573 B   0  0  0  0  0  0  0  0  0  0  0  0
   -2.5851   -3.3702   10.1295 B   0  0  0  0  0  0  0  0  0  0  0  0
   -2.7252   -2.0849   11.3498 B   0  0  0  0  0  0  0  0  0  0  0  0
   -3.7937   -2.0968    9.9182 B   0  0  0  0  0  0  0  0  0  0  0  0
    0.9405   -1.2662    9.7873 C   0  0  0  0  0  0  0  0  0  0  0  0
    1.3338   -0.5490   10.7912 O   0  0  0  0  0  0  0  0  0  0  0  0
    2.7433   -0.3568   10.7510 C   0  0  0  0  0  0  0  0  0  0  0  0
   -1.4388    2.5404   10.6335 P   0  0  0  0  0  0  0  0  0  0  0  0
    1.2337    2.9966   10.2402 C   0  0  0  0  0  0  0  0  0  0  0  0
    2.3862    3.7580   10.0440 C   0  0  0  0  0  0  0  0  0  0  0  0
    2.2981    5.1471    9.9610 C   0  0  0  0  0  0  0  0  0  0  0  0
    1.0567    5.7761   10.0767 C   0  0  0  0  0  0  0  0  0  0  0  0
   -0.0947    5.0135   10.2755 C   0  0  0  0  0  0  0  0  0  0  0  0
   -0.0067    3.6244   10.3585 C   0  0  0  0  0  0  0  0  0  0  0  0
   -2.8830    3.6411   10.7283 C   0  0  0  0  0  0  0  0  0  0  0  0
   -1.2267    2.0431   12.3738 C   0  0  0  0  0  0  0  0  0  0  0  0
   -1.3509    1.8032    7.3720 P   0  0  0  0  0  0  0  0  0  0  0  0
   -1.8135    4.5540    7.3521 C   0  0  0  0  0  0  0  0  0  0  0  0
   -2.6326    5.6818    7.3415 C   0  0  0  0  0  0  0  0  0  0  0  0
   -4.0175    5.5374    7.2560 C   0  0  0  0  0  0  0  0  0  0  0  0
   -4.5834    4.2652    7.1807 C   0  0  0  0  0  0  0  0  0  0  0  0
   -3.7625    3.1363    7.1913 C   0  0  0  0  0  0  0  0  0  0  0  0
   -2.3776    3.2807    7.2771 C   0  0  0  0  0  0  0  0  0  0  0  0
   -1.8494    0.8879    5.9127 C   0  0  0  0  0  0  0  0  0  0  0  0
    0.3336    2.3283    6.9442 C   0  0  0  0  0  0  0  0  0  0  0  0
   -0.9868   -0.5490   11.6240 H   0  0  0  0  0  0  0  0  0  0  0  0
   -3.6295    0.1313   11.1712 H   0  0  0  0  0  0  0  0  0  0  0  0
   -0.5945   -3.0790   11.6995 H   0  0  0  0  0  0  0  0  0  0  0  0
   -0.8913   -1.3247    7.4726 H   0  0  0  0  0  0  0  0  0  0  0  0
   -3.8956   -0.5132    8.1268 H   0  0  0  0  0  0  0  0  0  0  0  0
   -3.1006   -2.2436   12.3789 H   0  0  0  0  0  0  0  0  0  0  0  0
   -2.8945   -4.5111   10.4918 H   0  0  0  0  0  0  0  0  0  0  0  0
   -3.2071   -3.0670    7.4223 H   0  0  0  0  0  0  0  0  0  0  0  0
   -4.8710   -2.2675    9.9886 H   0  0  0  0  0  0  0  0  0  0  0  0
    1.1744   -0.7148    8.8589 H   0  0  0  0  0  0  0  0  0  0  0  0
    1.4970   -2.2150    9.7295 H   0  0  0  0  0  0  0  0  0  0  0  0
    3.0054    0.2435   11.6769 H   0  0  0  0  0  0  0  0  0  0  0  0
    2.9636    0.2315    9.9131 H   0  0  0  0  0  0  0  0  0  0  0  0
    3.2400   -1.2686   10.7988 H   0  0  0  0  0  0  0  0  0  0  0  0
    1.3018    1.9082   10.2654 H   0  0  0  0  0  0  0  0  0  0  0  0
    3.3387    3.2580    9.9157 H   0  0  0  0  0  0  0  0  0  0  0  0
    3.1854    5.7259    9.7924 H   0  0  0  0  0  0  0  0  0  0  0  0
    0.9931    6.8441   10.0314 H   0  0  0  0  0  0  0  0  0  0  0  0
   -1.0496    5.4944   10.3937 H   0  0  0  0  0  0  0  0  0  0  0  0
   -3.1177    3.9919    9.6968 H   0  0  0  0  0  0  0  0  0  0  0  0
   -2.6878    4.4705   11.3397 H   0  0  0  0  0  0  0  0  0  0  0  0
   -3.7400    3.0802   11.0730 H   0  0  0  0  0  0  0  0  0  0  0  0
   -1.3021    2.9107   13.0129 H   0  0  0  0  0  0  0  0  0  0  0  0
   -0.2524    1.5884   12.5072 H   0  0  0  0  0  0  0  0  0  0  0  0
   -1.9906    1.3283   12.6456 H   0  0  0  0  0  0  0  0  0  0  0  0
   -0.7480    4.6901    7.3954 H   0  0  0  0  0  0  0  0  0  0  0  0
   -2.2230    6.6771    7.3845 H   0  0  0  0  0  0  0  0  0  0  0  0
   -4.6759    6.3942    7.2462 H   0  0  0  0  0  0  0  0  0  0  0  0
   -5.6557    4.1244    7.1186 H   0  0  0  0  0  0  0  0  0  0  0  0
   -4.1807    2.1374    7.1297 H   0  0  0  0  0  0  0  0  0  0  0  0
   -2.8501    0.5084    6.0158 H   0  0  0  0  0  0  0  0  0  0  0  0
   -1.1714    0.0549    5.7315 H   0  0  0  0  0  0  0  0  0  0  0  0
   -1.8128    1.5407    5.0321 H   0  0  0  0  0  0  0  0  0  0  0  0
    0.7628    2.8904    7.7393 H   0  0  0  0  0  0  0  0  0  0  0  0
    0.3002    2.9358    6.0385 H   0  0  0  0  0  0  0  0  0  0  0  0
    0.9416    1.4500    6.7379 H   0  0  0  0  0  0  0  0  0  0  0  0
  1  2  1  0  0  0  0
  2  3  1  0  0  0  0
  3  1  1  0  0  0  0
  4  1  1  0  0  0  0
  5  1  1  0  0  0  0
  6  1  1  0  0  0  0
  7  2  1  0  0  0  0
  8  3  1  0  0  0  0
  9  4  1  0  0  0  0
 10  5  1  0  0  0  0
 11  2  1  0  0  0  0
 12  7  1  0  0  0  0
 13  1  1  0  0  0  0
 14 13  1  0  0  0  0
 15 14  1  0  0  0  0
 16  3  1  0  0  0  0
 17 18  4  0  0  0  0
 18 19  4  0  0  0  0
 19 20  4  0  0  0  0
 20 21  4  0  0  0  0
 21 22  4  0  0  0  0
 22 16  1  0  0  0  0
 23 16  1  0  0  0  0
 24 16  1  0  0  0  0
 25  3  1  0  0  0  0
 26 27  4  0  0  0  0
 27 28  4  0  0  0  0
 28 29  4  0  0  0  0
 29 30  4  0  0  0  0
 30 31  4  0  0  0  0
 31 25  1  0  0  0  0
 32 25  1  0  0  0  0
 33 25  1  0  0  0  0
 34  2  1  0  0  0  0
 35  7  1  0  0  0  0
 36  6  1  0  0  0  0
 37  4  1  0  0  0  0
 38  8  1  0  0  0  0
 39 11  1  0  0  0  0
 40 10  1  0  0  0  0
 41  9  1  0  0  0  0
 42 12  1  0  0  0  0
 43 13  1  0  0  0  0
 44 13  1  0  0  0  0
 45 15  1  0  0  0  0
 46 15  1  0  0  0  0
 47 15  1  0  0  0  0
 48 17  1  0  0  0  0
 49 18  1  0  0  0  0
 50 19  1  0  0  0  0
 51 20  1  0  0  0  0
 52 21  1  0  0  0  0
 53 23  1  0  0  0  0
 54 23  1  0  0  0  0
 55 23  1  0  0  0  0
 56 24  1  0  0  0  0
 57 24  1  0  0  0  0
 58 24  1  0  0  0  0
 59 26  1  0  0  0  0
 60 27  1  0  0  0  0
 61 28  1  0  0  0  0
 62 29  1  0  0  0  0
 63 30  1  0  0  0  0
 64 32  1  0  0  0  0
 65 32  1  0  0  0  0
 66 32  1  0  0  0  0
 67 33  1  0  0  0  0
 68 33  1  0  0  0  0
 69 33  1  0  0  0  0
  2  6  1  0  0  0  0
  3  4  1  0  0  0  0
  3  7  1  0  0  0  0
  4  5  1  0  0  0  0
  4  8  1  0  0  0  0
  5  6  1  0  0  0  0
  5  9  1  0  0  0  0
  6 10  1  0  0  0  0
  6 11  1  0  0  0  0
  7  8  1  0  0  0  0
  7 11  1  0  0  0  0
  8  9  1  0  0  0  0
  8 12  1  0  0  0  0
  9 10  1  0  0  0  0
  9 12  1  0  0  0  0
 10 11  1  0  0  0  0
 10 12  1  0  0  0  0
 11 12  1  0  0  0  0
 17 22  4  0  0  0  0
 26 31  4  0  0  0  0
M  END
$$$$
YIBTAE

From CSD data. Using bond type 'Any'. No disordered atoms. Largest molecule.
 96101  0  0  0  0  0  0  0  0999 V2000
    0.8562   13.7207    9.8721 P   0  0  0  0  0  0  0  0  0  0  0  0
    3.0631    9.2228   10.7399 P   0  0  0  0  0  0  0  0  0  0  0  0
    1.7012   10.0888    6.4718 P   0  0  0  0  0  0  0  0  0  0  0  0
   -1.1824   10.6389   10.0403 O   0  0  0  0  0  0  0  0  0  0  0  0
   -1.4034   11.3265   10.2503 H   0  0  0  0  0  0  0  0  0  0  0  0
   -0.9430   14.0150    9.3818 B   0  0  0  0  0  0  0  0  0  0  0  0
   -1.5231   13.5492   10.1071 H   0  0  0  0  0  0  0  0  0  0  0  0
   -1.0627   15.0722    9.3483 H   0  0  0  0  0  0  0  0  0  0  0  0
   -1.1124   13.6781    8.3295 H   0  0  0  0  0  0  0  0  0  0  0  0
    4.6319    9.8224    9.7802 B   0  0  0  0  0  0  0  0  0  0  0  0
    4.5269   10.9844    9.7802 H   0  0  0  0  0  0  0  0  0  0  0  0
    4.7111    9.2362    8.7495 H   0  0  0  0  0  0  0  0  0  0  0  0
    5.3704    9.4648   10.3242 H   0  0  0  0  0  0  0  0  0  0  0  0
    1.4844    8.1842    6.6641 B   0  0  0  0  0  0  0  0  0  0  0  0
    1.4789    7.7682    5.6954 H   0  0  0  0  0  0  0  0  0  0  0  0
    0.5194    8.0157    7.2248 H   0  0  0  0  0  0  0  0  0  0  0  0
    2.3611    7.9194    7.2320 H   0  0  0  0  0  0  0  0  0  0  0  0
    1.3739   12.0021   10.2479 C   0  0  0  0  0  0  0  0  0  0  0  0
    2.3298   12.0227   10.4125 H   0  0  0  0  0  0  0  0  0  0  0  0
    0.9503   11.7545   11.0854 H   0  0  0  0  0  0  0  0  0  0  0  0
    1.4660    9.5181    9.9114 C   0  0  0  0  0  0  0  0  0  0  0  0
    1.3776    8.8357    9.2267 H   0  0  0  0  0  0  0  0  0  0  0  0
    0.7754    9.3410   10.5700 H   0  0  0  0  0  0  0  0  0  0  0  0
    1.9633   11.1030    7.9764 C   0  0  0  0  0  0  0  0  0  0  0  0
    2.8933   11.0033    8.2317 H   0  0  0  0  0  0  0  0  0  0  0  0
    1.8399   12.0313    7.7211 H   0  0  0  0  0  0  0  0  0  0  0  0
   -0.3683   10.7695    8.8926 C   0  0  0  0  0  0  0  0  0  0  0  0
   -0.6280   11.5672    8.4035 H   0  0  0  0  0  0  0  0  0  0  0  0
   -0.5120   10.0046    8.3104 H   0  0  0  0  0  0  0  0  0  0  0  0
    1.1069   10.8572    9.2457 C   0  0  0  0  0  0  0  0  0  0  0  0
    1.2082   14.0288   12.6386 C   0  0  0  0  0  0  0  0  0  0  0  0
    1.0700   13.1108   12.7102 H   0  0  0  0  0  0  0  0  0  0  0  0
    1.3813   14.7868   13.7791 C   0  0  0  0  0  0  0  0  0  0  0  0
    1.3794   14.3743   14.6143 H   0  0  0  0  0  0  0  0  0  0  0  0
    1.5544   16.1328   13.6909 C   0  0  0  0  0  0  0  0  0  0  0  0
    1.6299   16.6468   14.4615 H   0  0  0  0  0  0  0  0  0  0  0  0
    1.6189   16.7207   12.4740 C   0  0  0  0  0  0  0  0  0  0  0  0
    1.7736   17.6352   12.4096 H   0  0  0  0  0  0  0  0  0  0  0  0
    1.4586   15.9729   11.3430 C   0  0  0  0  0  0  0  0  0  0  0  0
    1.5010   16.3907   10.5127 H   0  0  0  0  0  0  0  0  0  0  0  0
    1.2339   14.6184   11.4027 C   0  0  0  0  0  0  0  0  0  0  0  0
    1.5433   15.0086    7.5159 C   0  0  0  0  0  0  0  0  0  0  0  0
    0.6262   15.0911    7.3775 H   0  0  0  0  0  0  0  0  0  0  0  0
    2.4237   15.5123    6.5925 C   0  0  0  0  0  0  0  0  0  0  0  0
    2.0995   15.9214    5.8218 H   0  0  0  0  0  0  0  0  0  0  0  0
    3.7700   15.4143    6.7929 C   0  0  0  0  0  0  0  0  0  0  0  0
    4.3593   15.7701    6.1678 H   0  0  0  0  0  0  0  0  0  0  0  0
    4.2543   14.7954    7.9120 C   0  0  0  0  0  0  0  0  0  0  0  0
    5.1733   14.7232    8.0408 H   0  0  0  0  0  0  0  0  0  0  0  0
    3.3979   14.2832    8.8425 C   0  0  0  0  0  0  0  0  0  0  0  0
    3.7331   13.8689    9.6060 H   0  0  0  0  0  0  0  0  0  0  0  0
    2.0148   14.3812    8.6516 C   0  0  0  0  0  0  0  0  0  0  0  0
    4.0204    6.9224   11.9085 C   0  0  0  0  0  0  0  0  0  0  0  0
    4.6300    7.4983   12.3094 H   0  0  0  0  0  0  0  0  0  0  0  0
    4.0738    5.5747   12.1758 C   0  0  0  0  0  0  0  0  0  0  0  0
    4.7092    5.2464   12.7723 H   0  0  0  0  0  0  0  0  0  0  0  0
    3.1935    4.7118   11.5697 C   0  0  0  0  0  0  0  0  0  0  0  0
    3.2396    3.8007   11.7439 H   0  0  0  0  0  0  0  0  0  0  0  0
    2.2524    5.1965   10.7131 C   0  0  0  0  0  0  0  0  0  0  0  0
    1.6575    4.6104   10.3051 H   0  0  0  0  0  0  0  0  0  0  0  0
    2.1750    6.5511   10.4435 C   0  0  0  0  0  0  0  0  0  0  0  0
    1.5249    6.8708    9.8590 H   0  0  0  0  0  0  0  0  0  0  0  0
    3.0591    7.4330   11.0400 C   0  0  0  0  0  0  0  0  0  0  0  0
    1.8067    9.9083   13.1492 C   0  0  0  0  0  0  0  0  0  0  0  0
    1.0461    9.4940   12.8057 H   0  0  0  0  0  0  0  0  0  0  0  0
    1.7717   10.4807   14.4091 C   0  0  0  0  0  0  0  0  0  0  0  0
    0.9872   10.4532   14.9077 H   0  0  0  0  0  0  0  0  0  0  0  0
    2.8804   11.0824   14.9244 C   0  0  0  0  0  0  0  0  0  0  0  0
    2.8491   11.4881   15.7595 H   0  0  0  0  0  0  0  0  0  0  0  0
    4.0462   11.0824   14.1967 C   0  0  0  0  0  0  0  0  0  0  0  0
    4.8124   11.4674   14.5522 H   0  0  0  0  0  0  0  0  0  0  0  0
    4.0867   10.5134   12.9321 C   0  0  0  0  0  0  0  0  0  0  0  0
    4.8787   10.5134   12.4454 H   0  0  0  0  0  0  0  0  0  0  0  0
    2.9541    9.9479   12.4048 C   0  0  0  0  0  0  0  0  0  0  0  0
    3.7202    9.5765    4.6408 C   0  0  0  0  0  0  0  0  0  0  0  0
    3.3537    8.7256    4.5787 H   0  0  0  0  0  0  0  0  0  0  0  0
    4.8271    9.9238    3.8701 C   0  0  0  0  0  0  0  0  0  0  0  0
    5.1899    9.3049    3.2784 H   0  0  0  0  0  0  0  0  0  0  0  0
    5.3851   11.1718    3.9751 C   0  0  0  0  0  0  0  0  0  0  0  0
    6.1255   11.3849    3.4549 H   0  0  0  0  0  0  0  0  0  0  0  0
    4.8768   12.1052    4.8316 C   0  0  0  0  0  0  0  0  0  0  0  0
    5.2728   12.9441    4.9032 H   0  0  0  0  0  0  0  0  0  0  0  0
    3.7608   11.7889    5.5904 C   0  0  0  0  0  0  0  0  0  0  0  0
    3.3998   12.4249    6.1654 H   0  0  0  0  0  0  0  0  0  0  0  0
    3.1696   10.5203    5.4997 C   0  0  0  0  0  0  0  0  0  0  0  0
    0.1234   12.2101    5.4973 C   0  0  0  0  0  0  0  0  0  0  0  0
    0.7551   12.7876    5.8600 H   0  0  0  0  0  0  0  0  0  0  0  0
   -0.9927   12.7189    4.8555 C   0  0  0  0  0  0  0  0  0  0  0  0
   -1.1013   13.6403    4.7911 H   0  0  0  0  0  0  0  0  0  0  0  0
   -1.9283   11.8955    4.3234 C   0  0  0  0  0  0  0  0  0  0  0  0
   -2.6815   12.2479    3.9059 H   0  0  0  0  0  0  0  0  0  0  0  0
   -1.7551   10.5443    4.4022 C   0  0  0  0  0  0  0  0  0  0  0  0
   -2.3887    9.9754    4.0276 H   0  0  0  0  0  0  0  0  0  0  0  0
   -0.6464   10.0115    5.0368 C   0  0  0  0  0  0  0  0  0  0  0  0
   -0.5359    9.0884    5.0822 H   0  0  0  0  0  0  0  0  0  0  0  0
    0.2965   10.8452    5.5999 C   0  0  0  0  0  0  0  0  0  0  0  0
  1  6  1  0  0  0  0
  2 10  1  0  0  0  0
  3 14  1  0  0  0  0
  4  5  1  0  0  0  0
  6  7  1  0  0  0  0
  8  6  1  0  0  0  0
  9  6  1  0  0  0  0
 10 11  1  0  0  0  0
 12 10  1  0  0  0  0
 13 10  1  0  0  0  0
 14 15  1  0  0  0  0
 16 14  1  0  0  0  0
 17 14  1  0  0  0  0
 18  1  1  0  0  0  0
 19 18  1  0  0  0  0
 20 18  1  0  0  0  0
 21  2  1  0  0  0  0
 22 21  1  0  0  0  0
 23 21  1  0  0  0  0
 24  3  1  0  0  0  0
 25 24  1  0  0  0  0
 26 24  1  0  0  0  0
 27  4  1  0  0  0  0
 28 27  1  0  0  0  0
 29 27  1  0  0  0  0
 30 18  1  0  0  0  0
 31 32  1  0  0  0  0
 33 31  4  0  0  0  0
 34 33  1  0  0  0  0
 35 33  4  0  0  0  0
 36 35  1  0  0  0  0
 37 35  4  0  0  0  0
 38 37  1  0  0  0  0
 39 37  4  0  0  0  0
 40 39  1  0  0  0  0
 41  1  1  0  0  0  0
 42 43  1  0  0  0  0
 44 42  4  0  0  0  0
 45 44  1  0  0  0  0
 46 44  4  0  0  0  0
 47 46  1  0  0  0  0
 48 46  4  0  0  0  0
 49 48  1  0  0  0  0
 50 48  4  0  0  0  0
 51 50  1  0  0  0  0
 52  1  1  0  0  0  0
 53 54  1  0  0  0  0
 55 53  4  0  0  0  0
 56 55  1  0  0  0  0
 57 55  4  0  0  0  0
 58 57  1  0  0  0  0
 59 57  4  0  0  0  0
 60 59  1  0  0  0  0
 61 59  4  0  0  0  0
 62 61  1  0  0  0  0
 63  2  1  0  0  0  0
 64 65  1  0  0  0  0
 66 64  4  0  0  0  0
 67 66  1  0  0  0  0
 68 66  4  0  0  0  0
 69 68  1  0  0  0  0
 70 68  4  0  0  0  0
 71 70  1  0  0  0  0
 72 70  4  0  0  0  0
 73 72  1  0  0  0  0
 74  2  1  0  0  0  0
 75 76  1  0  0  0  0
 77 75  4  0  0  0  0
 78 77  1  0  0  0  0
 79 77  4  0  0  0  0
 80 79  1  0  0  0  0
 81 79  4  0  0  0  0
 82 81  1  0  0  0  0
 83 81  4  0  0  0  0
 84 83  1  0  0  0  0
 85  3  1  0  0  0  0
 86 87  1  0  0  0  0
 88 86  4  0  0  0  0
 89 88  1  0  0  0  0
 90 88  4  0  0  0  0
 91 90  1  0  0  0  0
 92 90  4  0  0  0  0
 93 92  1  0  0  0  0
 94 92  4  0  0  0  0
 95 94  1  0  0  0  0
 96  3  1  0  0  0  0
 21 30  1  0  0  0  0
 24 30  1  0  0  0  0
 27 30  1  0  0  0  0
 31 41  4  0  0  0  0
 39 41  4  0  0  0  0
 42 52  4  0  0  0  0
 50 52  4  0  0  0  0
 53 63  4  0  0  0  0
 61 63  4  0  0  0  0
 64 74  4  0  0  0  0
 72 74  4  0  0  0  0
 75 85  4  0  0  0  0
 83 85  4  0  0  0  0
 86 96  4  0  0  0  0
 94 96  4  0  0  0  0
M  END
$$$$
YIFKOQ

From CSD data. Using bond type 'Any'. Matching problem. No disordered atoms. Largest molecule.
108115  0  0  0  0  0  0  0  0999 V2000
    7.7818    9.7879    4.3843 Rh  0  0  0  0  0  0  0  0  0  0  0  0
    9.4202    8.9155    5.8708 Cl  0  0  0  0  0  0  0  0  0  0  0  0
    9.3191   11.4597    3.9676 P   0  0  0  0  0  0  0  0  0  0  0  0
    6.4861    7.8563    4.5107 P   0  0  0  0  0  0  0  0  0  0  0  0
    5.6627   11.1004    2.8264 O   0  0  0  0  0  0  0  0  0  0  0  0
    6.5010   10.5826    3.4143 C   0  0  0  0  0  0  0  0  0  0  0  0
    9.9123   12.4294    5.4001 C   0  0  0  0  0  0  0  0  0  0  0  0
   10.5514   13.0851    5.0793 H   0  0  0  0  0  0  0  0  0  0  0  0
    9.1583   12.9169    5.7696 H   0  0  0  0  0  0  0  0  0  0  0  0
   10.5694   11.6316    6.5316 C   0  0  0  0  0  0  0  0  0  0  0  0
   10.9966   12.2667    7.1268 H   0  0  0  0  0  0  0  0  0  0  0  0
   11.2734   11.0933    6.1378 H   0  0  0  0  0  0  0  0  0  0  0  0
    7.4702    6.3770    4.9195 C   0  0  0  0  0  0  0  0  0  0  0  0
    7.8795    6.4949    5.7904 H   0  0  0  0  0  0  0  0  0  0  0  0
    6.8860    5.6036    4.9635 H   0  0  0  0  0  0  0  0  0  0  0  0
    8.5710    6.1242    3.8701 C   0  0  0  0  0  0  0  0  0  0  0  0
    9.0060    6.9714    3.6896 H   0  0  0  0  0  0  0  0  0  0  0  0
    8.1368    5.8465    3.0481 H   0  0  0  0  0  0  0  0  0  0  0  0
    8.8401   12.7867    2.8246 C   0  0  0  0  0  0  0  0  0  0  0  0
    7.7136   13.5517    3.1138 C   0  0  0  0  0  0  0  0  0  0  0  0
    7.2092   13.3616    3.8703 H   0  0  0  0  0  0  0  0  0  0  0  0
    7.3398   14.5894    2.2865 C   0  0  0  0  0  0  0  0  0  0  0  0
    6.5946   15.1031    2.4991 H   0  0  0  0  0  0  0  0  0  0  0  0
    8.0502   14.8693    1.1618 C   0  0  0  0  0  0  0  0  0  0  0  0
    7.7851   15.5646    0.6045 H   0  0  0  0  0  0  0  0  0  0  0  0
    9.1513   14.1296    0.8507 C   0  0  0  0  0  0  0  0  0  0  0  0
    9.6418   14.3277    0.0857 H   0  0  0  0  0  0  0  0  0  0  0  0
    9.5449   13.0795    1.6681 C   0  0  0  0  0  0  0  0  0  0  0  0
   10.2870   12.5694    1.4383 H   0  0  0  0  0  0  0  0  0  0  0  0
   10.7999   10.7371    3.2026 C   0  0  0  0  0  0  0  0  0  0  0  0
   10.6651    9.6118    2.4394 C   0  0  0  0  0  0  0  0  0  0  0  0
    9.8283    9.2229    2.3254 H   0  0  0  0  0  0  0  0  0  0  0  0
   11.7997    9.0398    1.8251 C   0  0  0  0  0  0  0  0  0  0  0  0
   11.7140    8.2737    1.3063 H   0  0  0  0  0  0  0  0  0  0  0  0
   13.0122    9.6153    1.9942 C   0  0  0  0  0  0  0  0  0  0  0  0
   13.7606    9.2379    1.5935 H   0  0  0  0  0  0  0  0  0  0  0  0
   13.1461   10.7289    2.7400 C   0  0  0  0  0  0  0  0  0  0  0  0
   13.9846   11.1157    2.8489 H   0  0  0  0  0  0  0  0  0  0  0  0
   12.0533   11.2970    3.3415 C   0  0  0  0  0  0  0  0  0  0  0  0
   12.1578   12.0686    3.8495 H   0  0  0  0  0  0  0  0  0  0  0  0
   10.3614    9.9584    8.6522 C   0  0  0  0  0  0  0  0  0  0  0  0
   11.2499    9.6433    8.3822 H   0  0  0  0  0  0  0  0  0  0  0  0
   10.5213   11.0815    9.7114 C   0  0  0  0  0  0  0  0  0  0  0  0
   10.8627   10.6860   10.5293 H   0  0  0  0  0  0  0  0  0  0  0  0
   11.1873   11.7099    9.3920 H   0  0  0  0  0  0  0  0  0  0  0  0
    9.2600   11.8502   10.0440 C   0  0  0  0  0  0  0  0  0  0  0  0
    9.5083   12.6666   10.5061 H   0  0  0  0  0  0  0  0  0  0  0  0
    8.7270   11.3194   10.6543 H   0  0  0  0  0  0  0  0  0  0  0  0
    8.3947   12.2192    8.8371 C   0  0  0  0  0  0  0  0  0  0  0  0
    8.7984   12.9767    8.3845 H   0  0  0  0  0  0  0  0  0  0  0  0
    7.5215   12.4984    9.1558 H   0  0  0  0  0  0  0  0  0  0  0  0
    8.2063   11.0748    7.8138 C   0  0  0  0  0  0  0  0  0  0  0  0
    7.7597   11.4371    7.0203 H   0  0  0  0  0  0  0  0  0  0  0  0
    7.3759    9.9139    8.3511 C   0  0  0  0  0  0  0  0  0  0  0  0
    7.1392    9.3350    7.6109 H   0  0  0  0  0  0  0  0  0  0  0  0
    6.5524   10.2693    8.7203 H   0  0  0  0  0  0  0  0  0  0  0  0
    8.0704    9.0697    9.4286 C   0  0  0  0  0  0  0  0  0  0  0  0
    7.9999    9.5350   10.2768 H   0  0  0  0  0  0  0  0  0  0  0  0
    7.5936    8.2289    9.5148 H   0  0  0  0  0  0  0  0  0  0  0  0
    9.5370    8.7653    9.1690 C   0  0  0  0  0  0  0  0  0  0  0  0
    9.5923    8.0458    8.5188 H   0  0  0  0  0  0  0  0  0  0  0  0
    9.9374    8.4475    9.9919 H   0  0  0  0  0  0  0  0  0  0  0  0
    5.7002    7.3834    2.9371 C   0  0  0  0  0  0  0  0  0  0  0  0
    4.6528    6.4760    2.9144 C   0  0  0  0  0  0  0  0  0  0  0  0
    4.3287    6.1193    3.7105 H   0  0  0  0  0  0  0  0  0  0  0  0
    4.0865    6.0997    1.7040 C   0  0  0  0  0  0  0  0  0  0  0  0
    3.3844    5.4897    1.6954 H   0  0  0  0  0  0  0  0  0  0  0  0
    4.5478    6.6145    0.5260 C   0  0  0  0  0  0  0  0  0  0  0  0
    4.1571    6.3660   -0.2803 H   0  0  0  0  0  0  0  0  0  0  0  0
    5.5979    7.5056    0.5441 C   0  0  0  0  0  0  0  0  0  0  0  0
    5.9213    7.8552   -0.2548 H   0  0  0  0  0  0  0  0  0  0  0  0
    6.1725    7.8834    1.7413 C   0  0  0  0  0  0  0  0  0  0  0  0
    6.8843    8.4811    1.7418 H   0  0  0  0  0  0  0  0  0  0  0  0
    5.1047    7.8561    5.6929 C   0  0  0  0  0  0  0  0  0  0  0  0
    5.1766    7.1956    6.8927 C   0  0  0  0  0  0  0  0  0  0  0  0
    5.9417    6.7117    7.1060 H   0  0  0  0  0  0  0  0  0  0  0  0
    4.1240    7.2423    7.7904 C   0  0  0  0  0  0  0  0  0  0  0  0
    4.1892    6.7976    8.6045 H   0  0  0  0  0  0  0  0  0  0  0  0
    2.9986    7.9318    7.4868 C   0  0  0  0  0  0  0  0  0  0  0  0
    2.2870    7.9449    8.0857 H   0  0  0  0  0  0  0  0  0  0  0  0
    2.9033    8.6123    6.3002 C   0  0  0  0  0  0  0  0  0  0  0  0
    2.1356    9.0977    6.0984 H   0  0  0  0  0  0  0  0  0  0  0  0
    3.9579    8.5725    5.4038 C   0  0  0  0  0  0  0  0  0  0  0  0
    3.8938    9.0323    4.5976 H   0  0  0  0  0  0  0  0  0  0  0  0
   11.0485    5.1103    3.4902 C   0  0  0  0  0  0  0  0  0  0  0  0
   11.0119    5.6728    2.6891 H   0  0  0  0  0  0  0  0  0  0  0  0
   11.5763    3.7389    3.1407 C   0  0  0  0  0  0  0  0  0  0  0  0
   11.6331    3.6679    2.1749 H   0  0  0  0  0  0  0  0  0  0  0  0
   12.4761    3.6567    3.4928 H   0  0  0  0  0  0  0  0  0  0  0  0
   10.7943    2.6477    3.6317 C   0  0  0  0  0  0  0  0  0  0  0  0
   11.3556    1.8573    3.5970 H   0  0  0  0  0  0  0  0  0  0  0  0
   10.0739    2.5057    2.9971 H   0  0  0  0  0  0  0  0  0  0  0  0
   10.1922    2.6910    4.9647 C   0  0  0  0  0  0  0  0  0  0  0  0
   10.8604    2.4253    5.6167 H   0  0  0  0  0  0  0  0  0  0  0  0
    9.4720    2.0423    5.0029 H   0  0  0  0  0  0  0  0  0  0  0  0
    9.6438    4.0532    5.3547 C   0  0  0  0  0  0  0  0  0  0  0  0
    8.7255    3.9556    5.6862 H   0  0  0  0  0  0  0  0  0  0  0  0
   10.4722    4.7348    6.3801 C   0  0  0  0  0  0  0  0  0  0  0  0
   10.0312    5.5588    6.6381 H   0  0  0  0  0  0  0  0  0  0  0  0
   10.5194    4.1686    7.1662 H   0  0  0  0  0  0  0  0  0  0  0  0
   11.8438    5.0506    5.9433 C   0  0  0  0  0  0  0  0  0  0  0  0
   12.3479    4.2228    5.8807 H   0  0  0  0  0  0  0  0  0  0  0  0
   12.2665    5.5999    6.6219 H   0  0  0  0  0  0  0  0  0  0  0  0
   11.9356    5.7867    4.5883 C   0  0  0  0  0  0  0  0  0  0  0  0
   12.8591    5.7942    4.2918 H   0  0  0  0  0  0  0  0  0  0  0  0
   11.6513    6.7060    4.7041 H   0  0  0  0  0  0  0  0  0  0  0  0
    9.6676   10.6688    7.4210 B   0  0  0  0  0  0  0  0  0  0  0  0
    9.6732    5.0889    4.1929 B   0  0  0  0  0  0  0  0  0  0  0  0
  1  2  1  0  0  0  0
  3  1  1  0  0  0  0
  4  1  1  0  0  0  0
  5  6  3  0  0  0  0
  6  1  1  0  0  0  0
  7  3  1  0  0  0  0
  8  7  1  0  0  0  0
  9  7  1  0  0  0  0
 10  7  1  0  0  0  0
 11 10  1  0  0  0  0
 12 10  1  0  0  0  0
 13  4  1  0  0  0  0
 14 13  1  0  0  0  0
 15 13  1  0  0  0  0
 16 13  1  0  0  0  0
 17 16  1  0  0  0  0
 18 16  1  0  0  0  0
 19  3  1  0  0  0  0
 20 19  4  0  0  0  0
 21 20  1  0  0  0  0
 22 20  4  0  0  0  0
 23 22  1  0  0  0  0
 24 22  4  0  0  0  0
 25 24  1  0  0  0  0
 26 24  4  0  0  0  0
 27 26  1  0  0  0  0
 28 19  4  0  0  0  0
 29 28  1  0  0  0  0
 30  3  1  0  0  0  0
 31 30  4  0  0  0  0
 32 31  1  0  0  0  0
 33 31  4  0  0  0  0
 34 33  1  0  0  0  0
 35 33  4  0  0  0  0
 36 35  1  0  0  0  0
 37 35  4  0  0  0  0
 38 37  1  0  0  0  0
 39 30  4  0  0  0  0
 40 39  1  0  0  0  0
 41 42  1  0  0  0  0
 43 41  1  0  0  0  0
 44 43  1  0  0  0  0
 45 43  1  0  0  0  0
 46 43  1  0  0  0  0
 47 46  1  0  0  0  0
 48 46  1  0  0  0  0
 49 46  1  0  0  0  0
 50 49  1  0  0  0  0
 51 49  1  0  0  0  0
 52 49  1  0  0  0  0
 53 52  1  0  0  0  0
 54 52  1  0  0  0  0
 55 54  1  0  0  0  0
 56 54  1  0  0  0  0
 57 54  1  0  0  0  0
 58 57  1  0  0  0  0
 59 57  1  0  0  0  0
 60 41  1  0  0  0  0
 61 60  1  0  0  0  0
 62 60  1  0  0  0  0
 63  4  1  0  0  0  0
 64 63  4  0  0  0  0
 65 64  1  0  0  0  0
 66 64  4  0  0  0  0
 67 66  1  0  0  0  0
 68 66  4  0  0  0  0
 69 68  1  0  0  0  0
 70 68  4  0  0  0  0
 71 70  1  0  0  0  0
 72 63  4  0  0  0  0
 73 72  1  0  0  0  0
 74  4  1  0  0  0  0
 75 74  4  0  0  0  0
 76 75  1  0  0  0  0
 77 75  4  0  0  0  0
 78 77  1  0  0  0  0
 79 77  4  0  0  0  0
 80 79  1  0  0  0  0
 81 79  4  0  0  0  0
 82 81  1  0  0  0  0
 83 74  4  0  0  0  0
 84 83  1  0  0  0  0
 85 86  1  0  0  0  0
 87 85  1  0  0  0  0
 88 87  1  0  0  0  0
 89 87  1  0  0  0  0
 90 87  1  0  0  0  0
 91 90  1  0  0  0  0
 92 90  1  0  0  0  0
 93 90  1  0  0  0  0
 94 93  1  0  0  0  0
 95 93  1  0  0  0  0
 96 93  1  0  0  0  0
 97 96  1  0  0  0  0
 98 96  1  0  0  0  0
 99 98  1  0  0  0  0
100 98  1  0  0  0  0
101 98  1  0  0  0  0
102101  1  0  0  0  0
103101  1  0  0  0  0
104 85  1  0  0  0  0
105104  1  0  0  0  0
106104  1  0  0  0  0
107 10  1  0  0  0  0
108 16  1  0  0  0  0
 26 28  4  0  0  0  0
 37 39  4  0  0  0  0
 41107  1  0  0  0  0
 52107  1  0  0  0  0
 57 60  1  0  0  0  0
 70 72  4  0  0  0  0
 81 83  4  0  0  0  0
 85108  1  0  0  0  0
 96108  1  0  0  0  0
101104  1  0  0  0  0
M  END
$$$$
YILHUX

From CSD data. Using bond type 'Any'. No disordered atoms. Largest molecule.
 99104  0  0  0  0  0  0  0  0999 V2000
   -1.1748    0.4982    9.1720 K   0  0  0  0  0  0  0  0  0  0  0  0
   -3.7236   -2.5210    8.6837 K   0  0  0  0  0  0  0  0  0  0  0  0
   -1.9431   -2.4519   13.1947 P   0  0  0  0  0  0  0  0  0  0  0  0
   -0.0316   -2.1509    5.5312 P   0  0  0  0  0  0  0  0  0  0  0  0
    0.5998   -3.6044   12.0729 Si  0  0  0  0  0  0  0  0  0  0  0  0
    0.0568   -3.7458   15.1728 Si  0  0  0  0  0  0  0  0  0  0  0  0
    1.2283   -2.4245    2.7337 Si  0  0  0  0  0  0  0  0  0  0  0  0
   -1.3321   -0.6669    3.2176 Si  0  0  0  0  0  0  0  0  0  0  0  0
   -3.9745    0.3150    8.8073 O   0  0  0  0  0  0  0  0  0  0  0  0
   -2.3402   -1.7321   11.4421 B   0  0  0  0  0  0  0  0  0  0  0  0
   -1.8864   -2.2917   10.7090 H   0  0  0  0  0  0  0  0  0  0  0  0
   -3.5066   -1.7174   11.4467 H   0  0  0  0  0  0  0  0  0  0  0  0
   -1.9108   -0.7725   11.4698 H   0  0  0  0  0  0  0  0  0  0  0  0
   -1.4607   -1.5386    6.6917 B   0  0  0  0  0  0  0  0  0  0  0  0
   -1.5941   -0.4470    6.5937 H   0  0  0  0  0  0  0  0  0  0  0  0
   -2.3865   -2.0777    6.3977 H   0  0  0  0  0  0  0  0  0  0  0  0
   -1.0334   -1.8212    7.6888 H   0  0  0  0  0  0  0  0  0  0  0  0
   -0.3048   -2.9551   13.5483 C   0  0  0  0  0  0  0  0  0  0  0  0
   -2.5275   -1.1058   14.2997 C   0  0  0  0  0  0  0  0  0  0  0  0
   -2.5503   -1.4292   15.2242 H   0  0  0  0  0  0  0  0  0  0  0  0
   -3.4277   -0.8291   14.0289 H   0  0  0  0  0  0  0  0  0  0  0  0
   -1.9170   -0.3428   14.2363 H   0  0  0  0  0  0  0  0  0  0  0  0
   -3.1711   -3.7708   13.5159 C   0  0  0  0  0  0  0  0  0  0  0  0
   -2.9629   -4.5535   12.9649 H   0  0  0  0  0  0  0  0  0  0  0  0
   -4.0678   -3.4448   13.2934 H   0  0  0  0  0  0  0  0  0  0  0  0
   -3.1415   -4.0210   14.4634 H   0  0  0  0  0  0  0  0  0  0  0  0
    2.2624   -4.3744   12.5533 C   0  0  0  0  0  0  0  0  0  0  0  0
    2.8435   -3.6853   12.9361 H   0  0  0  0  0  0  0  0  0  0  0  0
    2.6876   -4.7559   11.7580 H   0  0  0  0  0  0  0  0  0  0  0  0
    2.1144   -5.0824   13.2162 H   0  0  0  0  0  0  0  0  0  0  0  0
    1.0738   -2.2781   10.8104 C   0  0  0  0  0  0  0  0  0  0  0  0
    0.3551   -1.6143   10.7482 H   0  0  0  0  0  0  0  0  0  0  0  0
    1.2094   -2.6945    9.9343 H   0  0  0  0  0  0  0  0  0  0  0  0
    1.9008   -1.8375   11.0951 H   0  0  0  0  0  0  0  0  0  0  0  0
   -0.3285   -4.9407   11.1205 C   0  0  0  0  0  0  0  0  0  0  0  0
   -0.5357   -5.6868   11.7222 H   0  0  0  0  0  0  0  0  0  0  0  0
    0.2289   -5.2615   10.3816 H   0  0  0  0  0  0  0  0  0  0  0  0
   -1.1612   -4.5677   10.7631 H   0  0  0  0  0  0  0  0  0  0  0  0
    1.7948   -3.3219   15.8064 C   0  0  0  0  0  0  0  0  0  0  0  0
    2.4540   -3.5268   15.1113 H   0  0  0  0  0  0  0  0  0  0  0  0
    1.9887   -3.8512   16.6075 H   0  0  0  0  0  0  0  0  0  0  0  0
    1.8376   -2.3678   16.0266 H   0  0  0  0  0  0  0  0  0  0  0  0
   -0.0756   -5.6258   15.1862 C   0  0  0  0  0  0  0  0  0  0  0  0
   -1.0054   -5.8897   15.0225 H   0  0  0  0  0  0  0  0  0  0  0  0
    0.2127   -5.9679   16.0577 H   0  0  0  0  0  0  0  0  0  0  0  0
    0.4984   -5.9990   14.4830 H   0  0  0  0  0  0  0  0  0  0  0  0
   -1.0651   -3.1706   16.5879 C   0  0  0  0  0  0  0  0  0  0  0  0
   -1.0185   -2.1950   16.6663 H   0  0  0  0  0  0  0  0  0  0  0  0
   -0.7691   -3.5807   17.4271 H   0  0  0  0  0  0  0  0  0  0  0  0
   -1.9896   -3.4399   16.4012 H   0  0  0  0  0  0  0  0  0  0  0  0
   -0.2213   -2.0309    3.8004 C   0  0  0  0  0  0  0  0  0  0  0  0
    0.2737   -3.8698    6.0772 C   0  0  0  0  0  0  0  0  0  0  0  0
    1.0549   -4.2277    5.6069 H   0  0  0  0  0  0  0  0  0  0  0  0
   -0.5109   -4.4206    5.8755 H   0  0  0  0  0  0  0  0  0  0  0  0
    0.4405   -3.8803    7.0432 H   0  0  0  0  0  0  0  0  0  0  0  0
    1.4708   -1.2887    6.1337 C   0  0  0  0  0  0  0  0  0  0  0  0
    2.2528   -1.6101    5.6369 H   0  0  0  0  0  0  0  0  0  0  0  0
    1.5923   -1.4723    7.0882 H   0  0  0  0  0  0  0  0  0  0  0  0
    1.3713   -0.3236    5.9966 H   0  0  0  0  0  0  0  0  0  0  0  0
    0.7565   -3.2519    1.0882 C   0  0  0  0  0  0  0  0  0  0  0  0
    0.0990   -2.6956    0.6202 H   0  0  0  0  0  0  0  0  0  0  0  0
    0.3701   -4.1349    1.2657 H   0  0  0  0  0  0  0  0  0  0  0  0
    1.5576   -3.3512    0.5314 H   0  0  0  0  0  0  0  0  0  0  0  0
    2.2616   -0.9090    2.2963 C   0  0  0  0  0  0  0  0  0  0  0  0
    2.5838   -0.4842    3.1182 H   0  0  0  0  0  0  0  0  0  0  0  0
    1.7114   -0.2717    1.7937 H   0  0  0  0  0  0  0  0  0  0  0  0
    3.0271   -1.1820    1.7476 H   0  0  0  0  0  0  0  0  0  0  0  0
    2.4670   -3.6736    3.4605 C   0  0  0  0  0  0  0  0  0  0  0  0
    2.7848   -3.3504    4.3297 H   0  0  0  0  0  0  0  0  0  0  0  0
    3.2280   -3.7712    2.8496 H   0  0  0  0  0  0  0  0  0  0  0  0
    2.0264   -4.5409    3.5758 H   0  0  0  0  0  0  0  0  0  0  0  0
   -3.1339   -0.8377    3.7568 C   0  0  0  0  0  0  0  0  0  0  0  0
   -3.1918   -0.7617    4.7320 H   0  0  0  0  0  0  0  0  0  0  0  0
   -3.4790   -1.7101    3.4755 H   0  0  0  0  0  0  0  0  0  0  0  0
   -3.6679   -0.1269    3.3418 H   0  0  0  0  0  0  0  0  0  0  0  0
   -0.8093    1.0758    3.7107 C   0  0  0  0  0  0  0  0  0  0  0  0
   -0.8330    1.1604    4.6870 H   0  0  0  0  0  0  0  0  0  0  0  0
   -1.4223    1.7274    3.3107 H   0  0  0  0  0  0  0  0  0  0  0  0
    0.1017    1.2459    3.3914 H   0  0  0  0  0  0  0  0  0  0  0  0
   -1.4450   -0.6290    1.3314 C   0  0  0  0  0  0  0  0  0  0  0  0
   -0.5520   -0.4890    0.9533 H   0  0  0  0  0  0  0  0  0  0  0  0
   -2.0352    0.1035    1.0548 H   0  0  0  0  0  0  0  0  0  0  0  0
   -1.8080   -1.4802    1.0086 H   0  0  0  0  0  0  0  0  0  0  0  0
   -4.6978    0.8925    9.9239 C   0  0  0  0  0  0  0  0  0  0  0  0
   -4.2784    1.7449   10.2029 H   0  0  0  0  0  0  0  0  0  0  0  0
   -4.6941    0.2712   10.6951 H   0  0  0  0  0  0  0  0  0  0  0  0
   -6.0630    1.1247    9.4663 C   0  0  0  0  0  0  0  0  0  0  0  0
   -6.3920    1.9979    9.7971 H   0  0  0  0  0  0  0  0  0  0  0  0
   -6.6640    0.4131    9.8018 H   0  0  0  0  0  0  0  0  0  0  0  0
   -6.0279    1.1152    7.9885 C   0  0  0  0  0  0  0  0  0  0  0  0
   -6.2530    2.0118    7.6323 H   0  0  0  0  0  0  0  0  0  0  0  0
   -6.6810    0.4615    7.6323 H   0  0  0  0  0  0  0  0  0  0  0  0
   -4.6516    0.7355    7.5954 C   0  0  0  0  0  0  0  0  0  0  0  0
   -4.6734   -0.0049    6.9383 H   0  0  0  0  0  0  0  0  0  0  0  0
   -4.1833    1.5068    7.1885 H   0  0  0  0  0  0  0  0  0  0  0  0
    1.2811   -0.4328   13.8828 K   0  0  0  0  0  0  0  0  0  0  0  0
   -2.1312   -4.0999    2.8437 K   0  0  0  0  0  0  0  0  0  0  0  0
    0.4111    3.0205    9.5065 C   0  0  0  0  0  0  0  0  0  0  0  0
   -5.6335   -4.5899    7.7271 C   0  0  0  0  0  0  0  0  0  0  0  0
  1  9  1  0  0  0  0
  2  9  1  0  0  0  0
  3 10  1  0  0  0  0
  4 14  1  0  0  0  0
  5 18  1  0  0  0  0
  6 18  1  0  0  0  0
  7 51  1  0  0  0  0
  8 51  1  0  0  0  0
  9 84  1  0  0  0  0
 10 11  1  0  0  0  0
 11  2  1  0  0  0  0
 12  2  1  0  0  0  0
 13  1  1  0  0  0  0
 14 15  1  0  0  0  0
 15  1  1  0  0  0  0
 16  2  1  0  0  0  0
 17  1  1  0  0  0  0
 18  3  1  0  0  0  0
 19  3  1  0  0  0  0
 20 19  1  0  0  0  0
 21 19  1  0  0  0  0
 22 19  1  0  0  0  0
 23  3  1  0  0  0  0
 24 23  1  0  0  0  0
 25 23  1  0  0  0  0
 26 23  1  0  0  0  0
 27  5  1  0  0  0  0
 28 27  1  0  0  0  0
 29 27  1  0  0  0  0
 30 27  1  0  0  0  0
 31  5  1  0  0  0  0
 32 31  1  0  0  0  0
 33 31  1  0  0  0  0
 34 31  1  0  0  0  0
 35  5  1  0  0  0  0
 36 35  1  0  0  0  0
 37 35  1  0  0  0  0
 38 35  1  0  0  0  0
 39  6  1  0  0  0  0
 40 39  1  0  0  0  0
 41 39  1  0  0  0  0
 42 39  1  0  0  0  0
 43  6  1  0  0  0  0
 44 43  1  0  0  0  0
 45 43  1  0  0  0  0
 46 43  1  0  0  0  0
 47  6  1  0  0  0  0
 48 47  1  0  0  0  0
 49 47  1  0  0  0  0
 50 47  1  0  0  0  0
 51  4  1  0  0  0  0
 52  4  1  0  0  0  0
 53 52  1  0  0  0  0
 54 52  1  0  0  0  0
 55 52  1  0  0  0  0
 56  4  1  0  0  0  0
 57 56  1  0  0  0  0
 58 56  1  0  0  0  0
 59 56  1  0  0  0  0
 60  7  1  0  0  0  0
 61 60  1  0  0  0  0
 62 60  1  0  0  0  0
 63 60  1  0  0  0  0
 64  7  1  0  0  0  0
 65 64  1  0  0  0  0
 66 64  1  0  0  0  0
 67 64  1  0  0  0  0
 68  7  1  0  0  0  0
 69 68  1  0  0  0  0
 70 68  1  0  0  0  0
 71 68  1  0  0  0  0
 72  8  1  0  0  0  0
 73 72  1  0  0  0  0
 74 72  1  0  0  0  0
 75 72  1  0  0  0  0
 76  8  1  0  0  0  0
 77 76  1  0  0  0  0
 78 76  1  0  0  0  0
 79 76  1  0  0  0  0
 80  8  1  0  0  0  0
 81 80  1  0  0  0  0
 82 80  1  0  0  0  0
 83 80  1  0  0  0  0
 84 85  1  0  0  0  0
 86 84  1  0  0  0  0
 87 84  1  0  0  0  0
 88 87  1  0  0  0  0
 89 87  1  0  0  0  0
 90 87  1  0  0  0  0
 91 90  1  0  0  0  0
 92 90  1  0  0  0  0
 93  9  1  0  0  0  0
 94 93  1  0  0  0  0
 95 93  1  0  0  0  0
 96 18  8  0  0  0  0
 97 51  8  0  0  0  0
 98  1  8  0  0  0  0
 99  2  8  0  0  0  0
  2 17  1  0  0  0  0
 10 12  1  0  0  0  0
 10 13  1  0  0  0  0
 14 16  1  0  0  0  0
 14 17  1  0  0  0  0
 90 93  1  0  0  0  0
M  END
$$$$
YILKEK

From CSD data. Using bond type 'Any'. No disordered atoms. Largest molecule.
143194  0  0  0  0  0  0  0  0999 V2000
    8.4505   10.4191    8.5091 W   0  0  0  0  0  0  0  0  0  0  0  0
    7.7438   12.0114    6.2821 Cu  0  0  0  0  0  0  0  0  0  0  0  0
   10.2002   12.3357    9.4754 Cu  0  0  0  0  0  0  0  0  0  0  0  0
    9.8528   11.6778    7.2266 S   0  0  0  0  0  0  0  0  0  0  0  0
    6.5116   10.3300    7.4249 S   0  0  0  0  0  0  0  0  0  0  0  0
    8.2541   11.4975   10.4504 S   0  0  0  0  0  0  0  0  0  0  0  0
    6.5661   14.0494    6.3026 P   0  0  0  0  0  0  0  0  0  0  0  0
    7.7490   12.0102    3.9783 P   0  0  0  0  0  0  0  0  0  0  0  0
   12.1941   11.3778   10.3982 P   0  0  0  0  0  0  0  0  0  0  0  0
   10.9645   14.4311    9.9442 P   0  0  0  0  0  0  0  0  0  0  0  0
    9.0637    8.7888    8.7915 O   0  0  0  0  0  0  0  0  0  0  0  0
    4.8322   12.3201    4.5861 B   0  0  0  0  0  0  0  0  0  0  0  0
    4.9191   11.5399    5.3566 H   0  0  0  0  0  0  0  0  0  0  0  0
    3.8329   13.7638    4.7580 B   0  0  0  0  0  0  0  0  0  0  0  0
    3.2249   13.8843    5.6666 H   0  0  0  0  0  0  0  0  0  0  0  0
    4.6317   15.1344    4.0397 B   0  0  0  0  0  0  0  0  0  0  0  0
    4.5699   16.1338    4.4909 H   0  0  0  0  0  0  0  0  0  0  0  0
    6.0914   14.5913    3.2815 B   0  0  0  0  0  0  0  0  0  0  0  0
    6.9848   15.2312    3.2139 H   0  0  0  0  0  0  0  0  0  0  0  0
    4.6299   14.8362    2.2838 B   0  0  0  0  0  0  0  0  0  0  0  0
    4.5800   15.6598    1.5532 H   0  0  0  0  0  0  0  0  0  0  0  0
    5.6538   13.4043    2.0168 B   0  0  0  0  0  0  0  0  0  0  0  0
    6.2781   13.2779    1.1204 H   0  0  0  0  0  0  0  0  0  0  0  0
    4.8658   12.0337    2.7044 B   0  0  0  0  0  0  0  0  0  0  0  0
    4.9643   11.0363    2.2501 H   0  0  0  0  0  0  0  0  0  0  0  0
    3.3443   12.5531    3.4963 B   0  0  0  0  0  0  0  0  0  0  0  0
    2.4759   11.8836    3.5854 H   0  0  0  0  0  0  0  0  0  0  0  0
    3.2251   14.3504    3.1126 B   0  0  0  0  0  0  0  0  0  0  0  0
    2.2613   14.8481    2.9346 H   0  0  0  0  0  0  0  0  0  0  0  0
    3.8484   13.3076    1.9891 B   0  0  0  0  0  0  0  0  0  0  0  0
    3.2642   13.1259    1.0775 H   0  0  0  0  0  0  0  0  0  0  0  0
   11.2810   13.1180   12.6531 B   0  0  0  0  0  0  0  0  0  0  0  0
   10.2821   12.6775   12.5211 H   0  0  0  0  0  0  0  0  0  0  0  0
   12.6059   12.2272   13.3745 B   0  0  0  0  0  0  0  0  0  0  0  0
   12.4498   11.1983   13.7337 H   0  0  0  0  0  0  0  0  0  0  0  0
   14.1576   12.7407   12.5795 B   0  0  0  0  0  0  0  0  0  0  0  0
   15.0019   12.0515   12.4291 H   0  0  0  0  0  0  0  0  0  0  0  0
   13.6763   13.9790   11.3762 B   0  0  0  0  0  0  0  0  0  0  0  0
   14.1958   14.0837   10.4154 H   0  0  0  0  0  0  0  0  0  0  0  0
   13.0479   15.4109   12.2019 B   0  0  0  0  0  0  0  0  0  0  0  0
   13.1879   16.4281   11.8028 H   0  0  0  0  0  0  0  0  0  0  0  0
   11.5081   14.8678   13.0184 B   0  0  0  0  0  0  0  0  0  0  0  0
   10.6627   15.5551   13.1658 H   0  0  0  0  0  0  0  0  0  0  0  0
   11.9203   13.5683   14.2217 B   0  0  0  0  0  0  0  0  0  0  0  0
   11.3264   13.4024   15.1334 H   0  0  0  0  0  0  0  0  0  0  0  0
   13.7746   13.4261   14.2862 B   0  0  0  0  0  0  0  0  0  0  0  0
   14.3443   13.2068   15.2010 H   0  0  0  0  0  0  0  0  0  0  0  0
   14.4084   14.5005   12.9171 B   0  0  0  0  0  0  0  0  0  0  0  0
   15.4190   14.9310   12.9755 H   0  0  0  0  0  0  0  0  0  0  0  0
   13.0561   15.0574   13.9608 B   0  0  0  0  0  0  0  0  0  0  0  0
   13.1850   15.8593   14.7006 H   0  0  0  0  0  0  0  0  0  0  0  0
    5.4863   13.9257    4.6996 C   0  0  0  0  0  0  0  0  0  0  0  0
    6.1586   12.8632    3.5393 C   0  0  0  0  0  0  0  0  0  0  0  0
   12.6970   12.6242   11.7353 C   0  0  0  0  0  0  0  0  0  0  0  0
   11.9534   14.2101   11.5143 C   0  0  0  0  0  0  0  0  0  0  0  0
    5.3857   14.5024    7.6220 C   0  0  0  0  0  0  0  0  0  0  0  0
    5.5095   13.7085    8.7762 C   0  0  0  0  0  0  0  0  0  0  0  0
    6.0919   12.9836    8.7915 H   0  0  0  0  0  0  0  0  0  0  0  0
    4.7353   14.0265    9.9150 C   0  0  0  0  0  0  0  0  0  0  0  0
    4.8201   13.4971   10.6763 H   0  0  0  0  0  0  0  0  0  0  0  0
    3.8625   15.0890    9.9396 C   0  0  0  0  0  0  0  0  0  0  0  0
    3.3656   15.2865   10.6978 H   0  0  0  0  0  0  0  0  0  0  0  0
    3.7493   15.8573    8.7823 C   0  0  0  0  0  0  0  0  0  0  0  0
    3.1549   16.5722    8.7731 H   0  0  0  0  0  0  0  0  0  0  0  0
    4.5015   15.5867    7.6404 C   0  0  0  0  0  0  0  0  0  0  0  0
    4.4162   16.1278    6.8883 H   0  0  0  0  0  0  0  0  0  0  0  0
    7.6018   15.5373    6.0350 C   0  0  0  0  0  0  0  0  0  0  0  0
    8.9380   15.3300    6.0043 C   0  0  0  0  0  0  0  0  0  0  0  0
    9.2657   14.4590    6.0012 H   0  0  0  0  0  0  0  0  0  0  0  0
    9.8268   16.3905    5.9736 C   0  0  0  0  0  0  0  0  0  0  0  0
   10.7407   16.2246    5.9122 H   0  0  0  0  0  0  0  0  0  0  0  0
    9.3710   17.6921    6.0319 C   0  0  0  0  0  0  0  0  0  0  0  0
    9.9680   18.4050    5.9920 H   0  0  0  0  0  0  0  0  0  0  0  0
    8.0499   17.9133    6.1455 C   0  0  0  0  0  0  0  0  0  0  0  0
    7.7324   18.7823    6.2529 H   0  0  0  0  0  0  0  0  0  0  0  0
    7.1752   16.8705    6.1086 C   0  0  0  0  0  0  0  0  0  0  0  0
    6.2620   17.0482    6.1332 H   0  0  0  0  0  0  0  0  0  0  0  0
    9.1910   12.8415    3.2109 C   0  0  0  0  0  0  0  0  0  0  0  0
    9.1901   13.6394    2.0505 C   0  0  0  0  0  0  0  0  0  0  0  0
    8.3834   13.8546    1.6423 H   0  0  0  0  0  0  0  0  0  0  0  0
   10.3796   14.1114    1.5164 C   0  0  0  0  0  0  0  0  0  0  0  0
   10.3619   14.6328    0.7459 H   0  0  0  0  0  0  0  0  0  0  0  0
   11.5734   13.8211    2.1027 C   0  0  0  0  0  0  0  0  0  0  0  0
   12.3672   14.1489    1.7497 H   0  0  0  0  0  0  0  0  0  0  0  0
   11.5825   13.0666    3.1832 C   0  0  0  0  0  0  0  0  0  0  0  0
   12.3990   12.8197    3.5547 H   0  0  0  0  0  0  0  0  0  0  0  0
   10.3932   12.6222    3.7880 C   0  0  0  0  0  0  0  0  0  0  0  0
   10.4347   12.1700    4.6014 H   0  0  0  0  0  0  0  0  0  0  0  0
    7.7163   10.4300    3.0973 C   0  0  0  0  0  0  0  0  0  0  0  0
    7.5558    9.2825    3.8340 C   0  0  0  0  0  0  0  0  0  0  0  0
    7.4519    9.2983    4.7580 H   0  0  0  0  0  0  0  0  0  0  0  0
    7.5570    8.0422    3.0758 C   0  0  0  0  0  0  0  0  0  0  0  0
    7.3504    7.2561    3.5270 H   0  0  0  0  0  0  0  0  0  0  0  0
    7.8449    7.9612    1.7344 C   0  0  0  0  0  0  0  0  0  0  0  0
    7.9423    7.1298    1.3261 H   0  0  0  0  0  0  0  0  0  0  0  0
    7.9857    9.0988    1.0007 C   0  0  0  0  0  0  0  0  0  0  0  0
    8.1505    9.0633    0.0860 H   0  0  0  0  0  0  0  0  0  0  0  0
    7.8756   10.3273    1.6730 C   0  0  0  0  0  0  0  0  0  0  0  0
    7.9074   11.1113    1.1726 H   0  0  0  0  0  0  0  0  0  0  0  0
   12.1470    9.7920   11.3332 C   0  0  0  0  0  0  0  0  0  0  0  0
   10.9170    9.3141   11.7200 C   0  0  0  0  0  0  0  0  0  0  0  0
   10.1351    9.7822   11.5327 H   0  0  0  0  0  0  0  0  0  0  0  0
   10.8858    8.0541   12.4291 C   0  0  0  0  0  0  0  0  0  0  0  0
   10.0705    7.6946   12.6992 H   0  0  0  0  0  0  0  0  0  0  0  0
   12.0487    7.3826   12.7145 C   0  0  0  0  0  0  0  0  0  0  0  0
   12.0166    6.6044   13.2210 H   0  0  0  0  0  0  0  0  0  0  0  0
   13.2257    7.8329   12.2694 C   0  0  0  0  0  0  0  0  0  0  0  0
   13.9918    7.3174   12.3861 H   0  0  0  0  0  0  0  0  0  0  0  0
   13.3090    9.0672   11.6340 C   0  0  0  0  0  0  0  0  0  0  0  0
   14.1417    9.4148   11.4069 H   0  0  0  0  0  0  0  0  0  0  0  0
   13.5448   11.1844    9.2120 C   0  0  0  0  0  0  0  0  0  0  0  0
   13.1677   10.5643    8.0118 C   0  0  0  0  0  0  0  0  0  0  0  0
   12.2840   10.2897    7.9228 H   0  0  0  0  0  0  0  0  0  0  0  0
   14.0489   10.3253    6.9221 C   0  0  0  0  0  0  0  0  0  0  0  0
   13.7546    9.9422    6.1270 H   0  0  0  0  0  0  0  0  0  0  0  0
   15.4137   10.7104    7.1155 C   0  0  0  0  0  0  0  0  0  0  0  0
   16.0427   10.5445    6.4494 H   0  0  0  0  0  0  0  0  0  0  0  0
   15.7856   11.3128    8.2666 C   0  0  0  0  0  0  0  0  0  0  0  0
   16.6684   11.5933    8.3464 H   0  0  0  0  0  0  0  0  0  0  0  0
   14.9104   11.5439    9.3655 C   0  0  0  0  0  0  0  0  0  0  0  0
   15.2218   11.9172   10.1575 H   0  0  0  0  0  0  0  0  0  0  0  0
    9.8197   15.7921   10.2772 C   0  0  0  0  0  0  0  0  0  0  0  0
   10.1210   17.0166   10.8666 C   0  0  0  0  0  0  0  0  0  0  0  0
   10.9817   17.1509   11.1920 H   0  0  0  0  0  0  0  0  0  0  0  0
    9.1908   18.0535   10.9894 C   0  0  0  0  0  0  0  0  0  0  0  0
    9.4026   18.8336   11.4468 H   0  0  0  0  0  0  0  0  0  0  0  0
    7.9334   17.8817   10.3969 C   0  0  0  0  0  0  0  0  0  0  0  0
    7.3181   18.5788   10.3632 H   0  0  0  0  0  0  0  0  0  0  0  0
    7.6366   16.6413    9.8690 C   0  0  0  0  0  0  0  0  0  0  0  0
    6.7770   16.4932    9.5466 H   0  0  0  0  0  0  0  0  0  0  0  0
    8.5554   15.6065    9.7891 C   0  0  0  0  0  0  0  0  0  0  0  0
    8.3134   14.7947    9.4085 H   0  0  0  0  0  0  0  0  0  0  0  0
   12.1284   15.0752    8.6656 C   0  0  0  0  0  0  0  0  0  0  0  0
   12.5140   14.2160    7.6465 C   0  0  0  0  0  0  0  0  0  0  0  0
   12.2195   13.3332    7.6404 H   0  0  0  0  0  0  0  0  0  0  0  0
   13.3484   14.6822    6.6274 C   0  0  0  0  0  0  0  0  0  0  0  0
   13.5863   14.1153    5.9306 H   0  0  0  0  0  0  0  0  0  0  0  0
   13.8338   16.0133    6.6489 C   0  0  0  0  0  0  0  0  0  0  0  0
   14.4169   16.3115    5.9889 H   0  0  0  0  0  0  0  0  0  0  0  0
   13.4373   16.8546    7.6527 C   0  0  0  0  0  0  0  0  0  0  0  0
   13.7190   17.7414    7.6312 H   0  0  0  0  0  0  0  0  0  0  0  0
   12.6212   16.4340    8.7209 C   0  0  0  0  0  0  0  0  0  0  0  0
   12.4089   17.0008    9.4269 H   0  0  0  0  0  0  0  0  0  0  0  0
  1  2  1  0  0  0  0
  2  4  1  0  0  0  0
  3  1  1  0  0  0  0
  4  1  1  0  0  0  0
  5  1  1  0  0  0  0
  6  1  1  0  0  0  0
  7  2  1  0  0  0  0
  8  2  1  0  0  0  0
  9  3  1  0  0  0  0
 10  3  1  0  0  0  0
 11  1  2  0  0  0  0
 12 13  1  0  0  0  0
 14 12  1  0  0  0  0
 15 14  1  0  0  0  0
 16 14  1  0  0  0  0
 17 16  1  0  0  0  0
 18 16  1  0  0  0  0
 19 18  1  0  0  0  0
 20 16  1  0  0  0  0
 21 20  1  0  0  0  0
 22 18  1  0  0  0  0
 23 22  1  0  0  0  0
 24 12  1  0  0  0  0
 25 24  1  0  0  0  0
 26 12  1  0  0  0  0
 27 26  1  0  0  0  0
 28 14  1  0  0  0  0
 29 28  1  0  0  0  0
 30 20  1  0  0  0  0
 31 30  1  0  0  0  0
 32 33  1  0  0  0  0
 34 32  1  0  0  0  0
 35 34  1  0  0  0  0
 36 34  1  0  0  0  0
 37 36  1  0  0  0  0
 38 36  1  0  0  0  0
 39 38  1  0  0  0  0
 40 38  1  0  0  0  0
 41 40  1  0  0  0  0
 42 32  1  0  0  0  0
 43 42  1  0  0  0  0
 44 32  1  0  0  0  0
 45 44  1  0  0  0  0
 46 34  1  0  0  0  0
 47 46  1  0  0  0  0
 48 36  1  0  0  0  0
 49 48  1  0  0  0  0
 50 40  1  0  0  0  0
 51 50  1  0  0  0  0
 52  7  1  0  0  0  0
 53  8  1  0  0  0  0
 54  9  1  0  0  0  0
 55 10  1  0  0  0  0
 56  7  1  0  0  0  0
 57 56  4  0  0  0  0
 58 57  1  0  0  0  0
 59 57  4  0  0  0  0
 60 59  1  0  0  0  0
 61 59  4  0  0  0  0
 62 61  1  0  0  0  0
 63 61  4  0  0  0  0
 64 63  1  0  0  0  0
 65 56  4  0  0  0  0
 66 65  1  0  0  0  0
 67  7  1  0  0  0  0
 68 67  4  0  0  0  0
 69 68  1  0  0  0  0
 70 68  4  0  0  0  0
 71 70  1  0  0  0  0
 72 70  4  0  0  0  0
 73 72  1  0  0  0  0
 74 72  4  0  0  0  0
 75 74  1  0  0  0  0
 76 67  4  0  0  0  0
 77 76  1  0  0  0  0
 78  8  1  0  0  0  0
 79 78  4  0  0  0  0
 80 79  1  0  0  0  0
 81 79  4  0  0  0  0
 82 81  1  0  0  0  0
 83 81  4  0  0  0  0
 84 83  1  0  0  0  0
 85 83  4  0  0  0  0
 86 85  1  0  0  0  0
 87 78  4  0  0  0  0
 88 87  1  0  0  0  0
 89  8  1  0  0  0  0
 90 89  4  0  0  0  0
 91 90  1  0  0  0  0
 92 90  4  0  0  0  0
 93 92  1  0  0  0  0
 94 92  4  0  0  0  0
 95 94  1  0  0  0  0
 96 94  4  0  0  0  0
 97 96  1  0  0  0  0
 98 89  4  0  0  0  0
 99 98  1  0  0  0  0
100  9  1  0  0  0  0
101100  4  0  0  0  0
102101  1  0  0  0  0
103101  4  0  0  0  0
104103  1  0  0  0  0
105103  4  0  0  0  0
106105  1  0  0  0  0
107105  4  0  0  0  0
108107  1  0  0  0  0
109100  4  0  0  0  0
110109  1  0  0  0  0
111  9  1  0  0  0  0
112111  4  0  0  0  0
113112  1  0  0  0  0
114112  4  0  0  0  0
115114  1  0  0  0  0
116114  4  0  0  0  0
117116  1  0  0  0  0
118116  4  0  0  0  0
119118  1  0  0  0  0
120111  4  0  0  0  0
121120  1  0  0  0  0
122 10  1  0  0  0  0
123122  4  0  0  0  0
124123  1  0  0  0  0
125123  4  0  0  0  0
126125  1  0  0  0  0
127125  4  0  0  0  0
128127  1  0  0  0  0
129127  4  0  0  0  0
130129  1  0  0  0  0
131122  4  0  0  0  0
132131  1  0  0  0  0
133 10  1  0  0  0  0
134133  4  0  0  0  0
135134  1  0  0  0  0
136134  4  0  0  0  0
137136  1  0  0  0  0
138136  4  0  0  0  0
139138  1  0  0  0  0
140138  4  0  0  0  0
141140  1  0  0  0  0
142133  4  0  0  0  0
143142  1  0  0  0  0
  2  5  1  0  0  0  0
  3  4  1  0  0  0  0
  3  6  1  0  0  0  0
 12 52  1  0  0  0  0
 12 53  1  0  0  0  0
 14 26  1  0  0  0  0
 14 52  1  0  0  0  0
 16 28  1  0  0  0  0
 16 52  1  0  0  0  0
 18 20  1  0  0  0  0
 18 52  1  0  0  0  0
 18 53  1  0  0  0  0
 20 22  1  0  0  0  0
 20 28  1  0  0  0  0
 22 24  1  0  0  0  0
 22 30  1  0  0  0  0
 22 53  1  0  0  0  0
 24 26  1  0  0  0  0
 24 30  1  0  0  0  0
 24 53  1  0  0  0  0
 26 28  1  0  0  0  0
 26 30  1  0  0  0  0
 28 30  1  0  0  0  0
 32 54  1  0  0  0  0
 32 55  1  0  0  0  0
 34 44  1  0  0  0  0
 34 54  1  0  0  0  0
 36 46  1  0  0  0  0
 36 54  1  0  0  0  0
 38 48  1  0  0  0  0
 38 54  1  0  0  0  0
 38 55  1  0  0  0  0
 40 42  1  0  0  0  0
 40 48  1  0  0  0  0
 40 55  1  0  0  0  0
 42 44  1  0  0  0  0
 42 50  1  0  0  0  0
 42 55  1  0  0  0  0
 44 46  1  0  0  0  0
 44 50  1  0  0  0  0
 46 48  1  0  0  0  0
 46 50  1  0  0  0  0
 48 50  1  0  0  0  0
 52 53  1  0  0  0  0
 54 55  1  0  0  0  0
 63 65  4  0  0  0  0
 74 76  4  0  0  0  0
 85 87  4  0  0  0  0
 96 98  4  0  0  0  0
107109  4  0  0  0  0
118120  4  0  0  0  0
129131  4  0  0  0  0
140142  4  0  0  0  0
M  END
$$$$
YIVQEZ

From CSD data. Using bond type 'Any'. Matching problem. No disordered atoms. Largest molecule.
 98142  0  0  0  0  0  0  0  0999 V2000
    5.5727    2.2484    3.6259 Rh  0  0  0  0  0  0  0  0  0  0  0  0
    4.1863    2.9680    6.1630 Rh  0  0  0  0  0  0  0  0  0  0  0  0
    6.2262    1.7523    5.8275 S   0  0  0  0  0  0  0  0  0  0  0  0
    3.5457    1.3919    4.5522 S   0  0  0  0  0  0  0  0  0  0  0  0
    7.6006    3.0335    3.1574 P   0  0  0  0  0  0  0  0  0  0  0  0
    2.1975    3.9594    6.0511 P   0  0  0  0  0  0  0  0  0  0  0  0
    4.8499    2.9979    0.8195 O   0  0  0  0  0  0  0  0  0  0  0  0
    4.7815    4.9312    8.3434 O   0  0  0  0  0  0  0  0  0  0  0  0
    7.7508    2.6993    6.1173 C   0  0  0  0  0  0  0  0  0  0  0  0
    8.4982    3.3990    4.7714 C   0  0  0  0  0  0  0  0  0  0  0  0
    8.6811    1.9031    2.2370 C   0  0  0  0  0  0  0  0  0  0  0  0
    8.2209    0.6213    2.0112 C   0  0  0  0  0  0  0  0  0  0  0  0
    7.3916    0.3680    2.3499 H   0  0  0  0  0  0  0  0  0  0  0  0
    8.9652   -0.2926    1.2949 C   0  0  0  0  0  0  0  0  0  0  0  0
    8.6271   -1.1431    1.1223 H   0  0  0  0  0  0  0  0  0  0  0  0
   10.2240    0.0664    0.8347 C   0  0  0  0  0  0  0  0  0  0  0  0
   10.7468   -0.5489    0.3745 H   0  0  0  0  0  0  0  0  0  0  0  0
   10.6857    1.3150    1.0593 C   0  0  0  0  0  0  0  0  0  0  0  0
   11.5246    1.5532    0.7381 H   0  0  0  0  0  0  0  0  0  0  0  0
    9.9498    2.2379    1.7497 C   0  0  0  0  0  0  0  0  0  0  0  0
   10.2934    3.0914    1.8951 H   0  0  0  0  0  0  0  0  0  0  0  0
    7.6008    4.5843    2.2120 C   0  0  0  0  0  0  0  0  0  0  0  0
    6.9043    5.6761    2.7319 C   0  0  0  0  0  0  0  0  0  0  0  0
    6.5736    5.6369    3.6003 H   0  0  0  0  0  0  0  0  0  0  0  0
    6.6982    6.8192    1.9624 C   0  0  0  0  0  0  0  0  0  0  0  0
    6.2214    7.5400    2.3043 H   0  0  0  0  0  0  0  0  0  0  0  0
    7.2109    6.8614    0.6990 C   0  0  0  0  0  0  0  0  0  0  0  0
    7.1010    7.6275    0.1834 H   0  0  0  0  0  0  0  0  0  0  0  0
    7.8733    5.8058    0.1910 C   0  0  0  0  0  0  0  0  0  0  0  0
    8.2227    5.8510   -0.6697 H   0  0  0  0  0  0  0  0  0  0  0  0
    8.0394    4.6567    0.9367 C   0  0  0  0  0  0  0  0  0  0  0  0
    8.4609    3.9238    0.5536 H   0  0  0  0  0  0  0  0  0  0  0  0
    5.0979    2.6812    1.9146 C   0  0  0  0  0  0  0  0  0  0  0  0
    2.0225    1.9815    3.8119 C   0  0  0  0  0  0  0  0  0  0  0  0
    1.2495    3.2844    4.5511 C   0  0  0  0  0  0  0  0  0  0  0  0
    2.3069    5.7756    5.8134 C   0  0  0  0  0  0  0  0  0  0  0  0
    3.1646    6.2522    4.9071 C   0  0  0  0  0  0  0  0  0  0  0  0
    3.6400    5.6429    4.3893 H   0  0  0  0  0  0  0  0  0  0  0  0
    3.3811    7.6124    4.6987 C   0  0  0  0  0  0  0  0  0  0  0  0
    3.9468    7.9049    4.0192 H   0  0  0  0  0  0  0  0  0  0  0  0
    2.7687    8.4780    5.4812 C   0  0  0  0  0  0  0  0  0  0  0  0
    2.9342    9.3858    5.3727 H   0  0  0  0  0  0  0  0  0  0  0  0
    1.9231    8.0799    6.4147 C   0  0  0  0  0  0  0  0  0  0  0  0
    1.4579    8.6981    6.9324 H   0  0  0  0  0  0  0  0  0  0  0  0
    1.7369    6.6563    6.6296 C   0  0  0  0  0  0  0  0  0  0  0  0
    1.2153    6.3607    7.3405 H   0  0  0  0  0  0  0  0  0  0  0  0
    1.0499    3.6192    7.4100 C   0  0  0  0  0  0  0  0  0  0  0  0
    1.3658    2.5515    8.2479 C   0  0  0  0  0  0  0  0  0  0  0  0
    2.1894    2.1323    8.1492 H   0  0  0  0  0  0  0  0  0  0  0  0
    0.5089    2.0991    9.2063 C   0  0  0  0  0  0  0  0  0  0  0  0
    0.7286    1.3813    9.7555 H   0  0  0  0  0  0  0  0  0  0  0  0
   -0.7165    2.7596    9.3257 C   0  0  0  0  0  0  0  0  0  0  0  0
   -1.3175    2.4731    9.9737 H   0  0  0  0  0  0  0  0  0  0  0  0
   -1.0585    3.7851    8.5507 C   0  0  0  0  0  0  0  0  0  0  0  0
   -1.8811    4.2043    8.6615 H   0  0  0  0  0  0  0  0  0  0  0  0
   -0.1790    4.2194    7.5793 C   0  0  0  0  0  0  0  0  0  0  0  0
   -0.4193    4.9312    7.0301 H   0  0  0  0  0  0  0  0  0  0  0  0
    4.5991    4.1259    7.5326 C   0  0  0  0  0  0  0  0  0  0  0  0
    7.7016    4.3943    5.9295 B   0  0  0  0  0  0  0  0  0  0  0  0
    6.7858    4.9643    5.7168 H   0  0  0  0  0  0  0  0  0  0  0  0
    7.9998    3.6252    7.4990 B   0  0  0  0  0  0  0  0  0  0  0  0
    7.2801    3.7067    8.3272 H   0  0  0  0  0  0  0  0  0  0  0  0
    8.9038    2.1233    7.2277 B   0  0  0  0  0  0  0  0  0  0  0  0
    8.7714    1.2396    7.8691 H   0  0  0  0  0  0  0  0  0  0  0  0
    9.1885    1.9544    5.4747 B   0  0  0  0  0  0  0  0  0  0  0  0
    9.2172    0.9802    4.9668 H   0  0  0  0  0  0  0  0  0  0  0  0
    9.2979    4.8135    5.2392 B   0  0  0  0  0  0  0  0  0  0  0  0
    9.4355    5.6852    4.5793 H   0  0  0  0  0  0  0  0  0  0  0  0
    8.9849    5.0096    6.9704 B   0  0  0  0  0  0  0  0  0  0  0  0
    8.9139    6.0018    7.4415 H   0  0  0  0  0  0  0  0  0  0  0  0
    9.7303    3.6041    7.7910 B   0  0  0  0  0  0  0  0  0  0  0  0
   10.1500    3.7006    8.8036 H   0  0  0  0  0  0  0  0  0  0  0  0
   10.4649    2.5274    6.5406 B   0  0  0  0  0  0  0  0  0  0  0  0
   11.3560    1.9182    6.7501 H   0  0  0  0  0  0  0  0  0  0  0  0
   10.2078    3.2844    4.9689 B   0  0  0  0  0  0  0  0  0  0  0  0
   10.9258    3.1578    4.1462 H   0  0  0  0  0  0  0  0  0  0  0  0
   10.5301    4.3159    6.3810 B   0  0  0  0  0  0  0  0  0  0  0  0
   11.4757    4.8708    6.4787 H   0  0  0  0  0  0  0  0  0  0  0  0
    2.0061    3.4925    3.0207 B   0  0  0  0  0  0  0  0  0  0  0  0
    2.8998    4.1138    2.8578 H   0  0  0  0  0  0  0  0  0  0  0  0
    1.7514    1.9785    2.1556 B   0  0  0  0  0  0  0  0  0  0  0  0
    2.4761    1.6045    1.4175 H   0  0  0  0  0  0  0  0  0  0  0  0
    0.8737    0.8807    3.2258 B   0  0  0  0  0  0  0  0  0  0  0  0
    1.0177   -0.2081    3.1770 H   0  0  0  0  0  0  0  0  0  0  0  0
    0.6257    1.7040    4.7692 B   0  0  0  0  0  0  0  0  0  0  0  0
    0.6395    1.1612    5.7255 H   0  0  0  0  0  0  0  0  0  0  0  0
    0.3952    4.2134    3.3984 B   0  0  0  0  0  0  0  0  0  0  0  0
    0.2342    5.2991    3.4689 H   0  0  0  0  0  0  0  0  0  0  0  0
    0.7096    3.3809    1.8419 B   0  0  0  0  0  0  0  0  0  0  0  0
    0.7541    3.9329    0.8911 H   0  0  0  0  0  0  0  0  0  0  0  0
   -0.0066    1.7553    1.9624 B   0  0  0  0  0  0  0  0  0  0  0  0
   -0.4337    1.2426    1.0887 H   0  0  0  0  0  0  0  0  0  0  0  0
   -0.7084    1.6166    3.6133 B   0  0  0  0  0  0  0  0  0  0  0  0
   -1.5996    1.0073    3.8238 H   0  0  0  0  0  0  0  0  0  0  0  0
   -0.4512    3.1095    4.4545 B   0  0  0  0  0  0  0  0  0  0  0  0
   -1.1577    3.4805    5.2110 H   0  0  0  0  0  0  0  0  0  0  0  0
   -0.8307    3.1246    2.7319 B   0  0  0  0  0  0  0  0  0  0  0  0
   -1.7919    3.4925    2.3445 H   0  0  0  0  0  0  0  0  0  0  0  0
  1  3  1  0  0  0  0
  2  3  1  0  0  0  0
  3  9  1  0  0  0  0
  4  1  1  0  0  0  0
  5  1  1  0  0  0  0
  6  2  1  0  0  0  0
  7 33  3  0  0  0  0
  8 58  3  0  0  0  0
  9 10  1  0  0  0  0
 10  5  1  0  0  0  0
 11  5  1  0  0  0  0
 12 11  4  0  0  0  0
 13 12  1  0  0  0  0
 14 12  4  0  0  0  0
 15 14  1  0  0  0  0
 16 14  4  0  0  0  0
 17 16  1  0  0  0  0
 18 16  4  0  0  0  0
 19 18  1  0  0  0  0
 20 11  4  0  0  0  0
 21 20  1  0  0  0  0
 22  5  1  0  0  0  0
 23 22  4  0  0  0  0
 24 23  1  0  0  0  0
 25 23  4  0  0  0  0
 26 25  1  0  0  0  0
 27 25  4  0  0  0  0
 28 27  1  0  0  0  0
 29 27  4  0  0  0  0
 30 29  1  0  0  0  0
 31 22  4  0  0  0  0
 32 31  1  0  0  0  0
 33  1  1  0  0  0  0
 34  4  1  0  0  0  0
 35  6  1  0  0  0  0
 36  6  1  0  0  0  0
 37 36  4  0  0  0  0
 38 37  1  0  0  0  0
 39 37  4  0  0  0  0
 40 39  1  0  0  0  0
 41 39  4  0  0  0  0
 42 41  1  0  0  0  0
 43 41  4  0  0  0  0
 44 43  1  0  0  0  0
 45 36  4  0  0  0  0
 46 45  1  0  0  0  0
 47  6  1  0  0  0  0
 48 47  4  0  0  0  0
 49 48  1  0  0  0  0
 50 48  4  0  0  0  0
 51 50  1  0  0  0  0
 52 50  4  0  0  0  0
 53 52  1  0  0  0  0
 54 52  4  0  0  0  0
 55 54  1  0  0  0  0
 56 47  4  0  0  0  0
 57 56  1  0  0  0  0
 58  2  1  0  0  0  0
 59  9  1  0  0  0  0
 60 59  1  0  0  0  0
 61  9  1  0  0  0  0
 62 61  1  0  0  0  0
 63  9  1  0  0  0  0
 64 63  1  0  0  0  0
 65  9  1  0  0  0  0
 66 65  1  0  0  0  0
 67 10  1  0  0  0  0
 68 67  1  0  0  0  0
 69 59  1  0  0  0  0
 70 69  1  0  0  0  0
 71 61  1  0  0  0  0
 72 71  1  0  0  0  0
 73 63  1  0  0  0  0
 74 73  1  0  0  0  0
 75 10  1  0  0  0  0
 76 75  1  0  0  0  0
 77 67  1  0  0  0  0
 78 77  1  0  0  0  0
 79 34  1  0  0  0  0
 80 79  1  0  0  0  0
 81 34  1  0  0  0  0
 82 81  1  0  0  0  0
 83 34  1  0  0  0  0
 84 83  1  0  0  0  0
 85 34  1  0  0  0  0
 86 85  1  0  0  0  0
 87 35  1  0  0  0  0
 88 87  1  0  0  0  0
 89 79  1  0  0  0  0
 90 89  1  0  0  0  0
 91 81  1  0  0  0  0
 92 91  1  0  0  0  0
 93 83  1  0  0  0  0
 94 93  1  0  0  0  0
 95 35  1  0  0  0  0
 96 95  1  0  0  0  0
 97 87  1  0  0  0  0
 98 97  1  0  0  0  0
  2  4  1  0  0  0  0
 10 59  1  0  0  0  0
 10 65  1  0  0  0  0
 18 20  4  0  0  0  0
 29 31  4  0  0  0  0
 34 35  1  0  0  0  0
 35 79  1  0  0  0  0
 35 85  1  0  0  0  0
 43 45  4  0  0  0  0
 54 56  4  0  0  0  0
 59 61  1  0  0  0  0
 59 67  1  0  0  0  0
 61 63  1  0  0  0  0
 61 69  1  0  0  0  0
 63 65  1  0  0  0  0
 63 71  1  0  0  0  0
 65 73  1  0  0  0  0
 65 75  1  0  0  0  0
 67 69  1  0  0  0  0
 67 75  1  0  0  0  0
 69 71  1  0  0  0  0
 69 77  1  0  0  0  0
 71 73  1  0  0  0  0
 71 77  1  0  0  0  0
 73 75  1  0  0  0  0
 73 77  1  0  0  0  0
 75 77  1  0  0  0  0
 79 81  1  0  0  0  0
 79 87  1  0  0  0  0
 81 83  1  0  0  0  0
 81 89  1  0  0  0  0
 83 85  1  0  0  0  0
 83 91  1  0  0  0  0
 85 93  1  0  0  0  0
 85 95  1  0  0  0  0
 87 89  1  0  0  0  0
 87 95  1  0  0  0  0
 89 91  1  0  0  0  0
 89 97  1  0  0  0  0
 91 93  1  0  0  0  0
 91 97  1  0  0  0  0
 93 95  1  0  0  0  0
 93 97  1  0  0  0  0
 95 97  1  0  0  0  0
M  END
$$$$
YIVQEZ01

From CSD data. Using bond type 'Any'. Matching problem. Disorder unknown. Sizes unknown.
  0  0  0  0  0  0  0  0  0  0999 V2000
M  END
$$$$
YIVQID

From CSD data. Using bond type 'Any'. No disordered atoms. Largest molecule.
 98142  0  0  0  0  0  0  0  0999 V2000
   11.6663    2.9576    6.1524 Ir  0  0  0  0  0  0  0  0  0  0  0  0
   13.0724    2.2383    3.6029 Ir  0  0  0  0  0  0  0  0  0  0  0  0
   11.0079    1.3634    4.5364 S   0  0  0  0  0  0  0  0  0  0  0  0
   13.7471    1.7387    5.8168 S   0  0  0  0  0  0  0  0  0  0  0  0
    9.6400    3.9548    6.0488 P   0  0  0  0  0  0  0  0  0  0  0  0
   15.1436    3.0018    3.1117 P   0  0  0  0  0  0  0  0  0  0  0  0
   12.2798    4.8911    8.3365 O   0  0  0  0  0  0  0  0  0  0  0  0
   12.2984    2.9742    0.8218 O   0  0  0  0  0  0  0  0  0  0  0  0
    9.4444    1.9828    3.8284 C   0  0  0  0  0  0  0  0  0  0  0  0
    8.6829    3.2857    4.5570 C   0  0  0  0  0  0  0  0  0  0  0  0
    8.4348    3.6242    7.4106 C   0  0  0  0  0  0  0  0  0  0  0  0
    8.7781    2.5639    8.2368 C   0  0  0  0  0  0  0  0  0  0  0  0
    9.6015    2.1386    8.1587 H   0  0  0  0  0  0  0  0  0  0  0  0
    7.8490    2.1595    9.1833 C   0  0  0  0  0  0  0  0  0  0  0  0
    8.0519    1.4317    9.7276 H   0  0  0  0  0  0  0  0  0  0  0  0
    6.6294    2.8005    9.3481 C   0  0  0  0  0  0  0  0  0  0  0  0
    6.0298    2.5189    9.9997 H   0  0  0  0  0  0  0  0  0  0  0  0
    6.3231    3.8638    8.5263 C   0  0  0  0  0  0  0  0  0  0  0  0
    5.5153    4.3161    8.6206 H   0  0  0  0  0  0  0  0  0  0  0  0
    7.2213    4.2472    7.5722 C   0  0  0  0  0  0  0  0  0  0  0  0
    7.0029    4.9540    7.0105 H   0  0  0  0  0  0  0  0  0  0  0  0
    9.7608    5.8017    5.8157 C   0  0  0  0  0  0  0  0  0  0  0  0
    9.1517    6.6583    6.5920 C   0  0  0  0  0  0  0  0  0  0  0  0
    8.5469    6.3498    7.2296 H   0  0  0  0  0  0  0  0  0  0  0  0
    9.3987    8.0510    6.4836 C   0  0  0  0  0  0  0  0  0  0  0  0
    9.0699    8.6531    7.1114 H   0  0  0  0  0  0  0  0  0  0  0  0
   10.1451    8.4674    5.4102 C   0  0  0  0  0  0  0  0  0  0  0  0
   10.1670    9.3689    5.1869 H   0  0  0  0  0  0  0  0  0  0  0  0
   10.8564    7.5688    4.6730 C   0  0  0  0  0  0  0  0  0  0  0  0
   11.4927    7.8594    4.0604 H   0  0  0  0  0  0  0  0  0  0  0  0
   10.6149    6.2360    4.8497 C   0  0  0  0  0  0  0  0  0  0  0  0
   11.0409    5.6160    4.3011 H   0  0  0  0  0  0  0  0  0  0  0  0
   12.0892    4.0764    7.4941 C   0  0  0  0  0  0  0  0  0  0  0  0
   15.2981    2.7106    6.0738 C   0  0  0  0  0  0  0  0  0  0  0  0
   16.0568    3.3696    4.7337 C   0  0  0  0  0  0  0  0  0  0  0  0
   16.2640    1.8959    2.2118 C   0  0  0  0  0  0  0  0  0  0  0  0
   15.7834    0.5871    1.9982 C   0  0  0  0  0  0  0  0  0  0  0  0
   14.9492    0.3295    2.3159 H   0  0  0  0  0  0  0  0  0  0  0  0
   16.5865   -0.2995    1.2989 C   0  0  0  0  0  0  0  0  0  0  0  0
   16.2706   -1.1561    1.1276 H   0  0  0  0  0  0  0  0  0  0  0  0
   17.8385    0.0539    0.8533 C   0  0  0  0  0  0  0  0  0  0  0  0
   18.3562   -0.5721    0.4022 H   0  0  0  0  0  0  0  0  0  0  0  0
   18.3241    1.2849    1.0560 C   0  0  0  0  0  0  0  0  0  0  0  0
   19.1631    1.5245    0.7318 H   0  0  0  0  0  0  0  0  0  0  0  0
   17.5567    2.1805    1.7543 C   0  0  0  0  0  0  0  0  0  0  0  0
   17.9141    3.0221    1.9321 H   0  0  0  0  0  0  0  0  0  0  0  0
   15.0921    4.5557    2.1728 C   0  0  0  0  0  0  0  0  0  0  0  0
   15.6330    4.6545    0.8966 C   0  0  0  0  0  0  0  0  0  0  0  0
   16.1498    3.9506    0.5790 H   0  0  0  0  0  0  0  0  0  0  0  0
   15.4456    5.7118    0.1084 C   0  0  0  0  0  0  0  0  0  0  0  0
   15.7309    5.7028   -0.7763 H   0  0  0  0  0  0  0  0  0  0  0  0
   14.8039    6.8470    0.6505 C   0  0  0  0  0  0  0  0  0  0  0  0
   14.7590    7.6377    0.1626 H   0  0  0  0  0  0  0  0  0  0  0  0
   14.2538    6.7781    1.8757 C   0  0  0  0  0  0  0  0  0  0  0  0
   13.7491    7.4939    2.1879 H   0  0  0  0  0  0  0  0  0  0  0  0
   14.4186    5.6789    2.6683 C   0  0  0  0  0  0  0  0  0  0  0  0
   14.0864    5.6759    3.5367 H   0  0  0  0  0  0  0  0  0  0  0  0
   12.5601    2.7046    1.9017 C   0  0  0  0  0  0  0  0  0  0  0  0
    9.4382    3.5163    3.0217 B   0  0  0  0  0  0  0  0  0  0  0  0
   10.3269    4.1453    2.8612 H   0  0  0  0  0  0  0  0  0  0  0  0
    9.1693    2.0038    2.1381 B   0  0  0  0  0  0  0  0  0  0  0  0
    9.8947    1.6563    1.3878 H   0  0  0  0  0  0  0  0  0  0  0  0
    8.3135    0.8506    3.2234 B   0  0  0  0  0  0  0  0  0  0  0  0
    8.4906   -0.2306    3.1692 H   0  0  0  0  0  0  0  0  0  0  0  0
    8.0048    1.6833    4.7944 B   0  0  0  0  0  0  0  0  0  0  0  0
    7.9812    1.1322    5.7463 H   0  0  0  0  0  0  0  0  0  0  0  0
    7.8232    4.2202    3.4012 B   0  0  0  0  0  0  0  0  0  0  0  0
    7.6797    5.3075    3.4684 H   0  0  0  0  0  0  0  0  0  0  0  0
    8.1183    3.3456    1.8356 B   0  0  0  0  0  0  0  0  0  0  0  0
    8.1593    3.8608    0.8652 H   0  0  0  0  0  0  0  0  0  0  0  0
    7.3624    1.7552    1.9635 B   0  0  0  0  0  0  0  0  0  0  0  0
    6.9029    1.2370    1.1081 H   0  0  0  0  0  0  0  0  0  0  0  0
    6.6776    1.6264    3.6039 B   0  0  0  0  0  0  0  0  0  0  0  0
    5.7808    1.0214    3.8078 H   0  0  0  0  0  0  0  0  0  0  0  0
    6.9437    3.1749    4.4550 B   0  0  0  0  0  0  0  0  0  0  0  0
    6.2441    3.5882    5.1966 H   0  0  0  0  0  0  0  0  0  0  0  0
    6.5806    3.1419    2.7387 B   0  0  0  0  0  0  0  0  0  0  0  0
    5.6246    3.5283    2.3560 H   0  0  0  0  0  0  0  0  0  0  0  0
   15.2728    4.3939    5.8699 B   0  0  0  0  0  0  0  0  0  0  0  0
   14.3642    4.9690    5.6358 H   0  0  0  0  0  0  0  0  0  0  0  0
   15.5171    3.6781    7.4919 B   0  0  0  0  0  0  0  0  0  0  0  0
   14.7941    3.7889    8.3138 H   0  0  0  0  0  0  0  0  0  0  0  0
   16.4760    2.1475    7.2122 B   0  0  0  0  0  0  0  0  0  0  0  0
   16.3382    1.2730    7.8638 H   0  0  0  0  0  0  0  0  0  0  0  0
   16.7718    1.9828    5.4579 B   0  0  0  0  0  0  0  0  0  0  0  0
   16.8140    1.0064    4.9560 H   0  0  0  0  0  0  0  0  0  0  0  0
   16.8749    4.7923    5.1630 B   0  0  0  0  0  0  0  0  0  0  0  0
   17.0131    5.6369    4.4746 H   0  0  0  0  0  0  0  0  0  0  0  0
   16.5309    5.0499    6.9260 B   0  0  0  0  0  0  0  0  0  0  0  0
   16.4506    6.0473    7.3868 H   0  0  0  0  0  0  0  0  0  0  0  0
   17.3093    3.5852    7.7229 B   0  0  0  0  0  0  0  0  0  0  0  0
   17.7460    3.6541    8.7312 H   0  0  0  0  0  0  0  0  0  0  0  0
   18.0607    2.5369    6.5237 B   0  0  0  0  0  0  0  0  0  0  0  0
   18.9477    1.9259    6.7438 H   0  0  0  0  0  0  0  0  0  0  0  0
   17.8116    3.3097    4.9375 B   0  0  0  0  0  0  0  0  0  0  0  0
   18.5432    3.1989    4.1233 H   0  0  0  0  0  0  0  0  0  0  0  0
   18.1347    4.3280    6.3297 B   0  0  0  0  0  0  0  0  0  0  0  0
   19.0770    4.8851    6.4294 H   0  0  0  0  0  0  0  0  0  0  0  0
  1  3  1  0  0  0  0
  2  3  1  0  0  0  0
  3  9  1  0  0  0  0
  4  1  1  0  0  0  0
  5  1  1  0  0  0  0
  6  2  1  0  0  0  0
  7 33  3  0  0  0  0
  8 58  3  0  0  0  0
  9 10  1  0  0  0  0
 10  5  1  0  0  0  0
 11  5  1  0  0  0  0
 12 11  4  0  0  0  0
 13 12  1  0  0  0  0
 14 12  4  0  0  0  0
 15 14  1  0  0  0  0
 16 14  4  0  0  0  0
 17 16  1  0  0  0  0
 18 16  4  0  0  0  0
 19 18  1  0  0  0  0
 20 11  4  0  0  0  0
 21 20  1  0  0  0  0
 22  5  1  0  0  0  0
 23 22  4  0  0  0  0
 24 23  1  0  0  0  0
 25 23  4  0  0  0  0
 26 25  1  0  0  0  0
 27 25  4  0  0  0  0
 28 27  1  0  0  0  0
 29 27  4  0  0  0  0
 30 29  1  0  0  0  0
 31 22  4  0  0  0  0
 32 31  1  0  0  0  0
 33  1  1  0  0  0  0
 34  4  1  0  0  0  0
 35  6  1  0  0  0  0
 36  6  1  0  0  0  0
 37 36  4  0  0  0  0
 38 37  1  0  0  0  0
 39 37  4  0  0  0  0
 40 39  1  0  0  0  0
 41 39  4  0  0  0  0
 42 41  1  0  0  0  0
 43 41  4  0  0  0  0
 44 43  1  0  0  0  0
 45 36  4  0  0  0  0
 46 45  1  0  0  0  0
 47  6  1  0  0  0  0
 48 47  4  0  0  0  0
 49 48  1  0  0  0  0
 50 48  4  0  0  0  0
 51 50  1  0  0  0  0
 52 50  4  0  0  0  0
 53 52  1  0  0  0  0
 54 52  4  0  0  0  0
 55 54  1  0  0  0  0
 56 47  4  0  0  0  0
 57 56  1  0  0  0  0
 58  2  1  0  0  0  0
 59  9  1  0  0  0  0
 60 59  1  0  0  0  0
 61  9  1  0  0  0  0
 62 61  1  0  0  0  0
 63  9  1  0  0  0  0
 64 63  1  0  0  0  0
 65  9  1  0  0  0  0
 66 65  1  0  0  0  0
 67 10  1  0  0  0  0
 68 67  1  0  0  0  0
 69 59  1  0  0  0  0
 70 69  1  0  0  0  0
 71 61  1  0  0  0  0
 72 71  1  0  0  0  0
 73 63  1  0  0  0  0
 74 73  1  0  0  0  0
 75 10  1  0  0  0  0
 76 75  1  0  0  0  0
 77 67  1  0  0  0  0
 78 77  1  0  0  0  0
 79 34  1  0  0  0  0
 80 79  1  0  0  0  0
 81 34  1  0  0  0  0
 82 81  1  0  0  0  0
 83 34  1  0  0  0  0
 84 83  1  0  0  0  0
 85 34  1  0  0  0  0
 86 85  1  0  0  0  0
 87 35  1  0  0  0  0
 88 87  1  0  0  0  0
 89 79  1  0  0  0  0
 90 89  1  0  0  0  0
 91 81  1  0  0  0  0
 92 91  1  0  0  0  0
 93 83  1  0  0  0  0
 94 93  1  0  0  0  0
 95 35  1  0  0  0  0
 96 95  1  0  0  0  0
 97 87  1  0  0  0  0
 98 97  1  0  0  0  0
  2  4  1  0  0  0  0
 10 59  1  0  0  0  0
 10 65  1  0  0  0  0
 18 20  4  0  0  0  0
 29 31  4  0  0  0  0
 34 35  1  0  0  0  0
 35 79  1  0  0  0  0
 35 85  1  0  0  0  0
 43 45  4  0  0  0  0
 54 56  4  0  0  0  0
 59 61  1  0  0  0  0
 59 67  1  0  0  0  0
 61 63  1  0  0  0  0
 61 69  1  0  0  0  0
 63 65  1  0  0  0  0
 63 71  1  0  0  0  0
 65 73  1  0  0  0  0
 65 75  1  0  0  0  0
 67 69  1  0  0  0  0
 67 75  1  0  0  0  0
 69 71  1  0  0  0  0
 69 77  1  0  0  0  0
 71 73  1  0  0  0  0
 71 77  1  0  0  0  0
 73 75  1  0  0  0  0
 73 77  1  0  0  0  0
 75 77  1  0  0  0  0
 79 81  1  0  0  0  0
 79 87  1  0  0  0  0
 81 83  1  0  0  0  0
 81 89  1  0  0  0  0
 83 85  1  0  0  0  0
 83 91  1  0  0  0  0
 85 93  1  0  0  0  0
 85 95  1  0  0  0  0
 87 89  1  0  0  0  0
 87 95  1  0  0  0  0
 89 91  1  0  0  0  0
 89 97  1  0  0  0  0
 91 93  1  0  0  0  0
 91 97  1  0  0  0  0
 93 95  1  0  0  0  0
 93 97  1  0  0  0  0
 95 97  1  0  0  0  0
M  END
$$$$
YIVQOJ

From CSD data. Using bond type 'Any'. No disordered atoms. Largest molecule.
 71 92  0  0  0  0  0  0  0  0999 V2000
    1.2686   18.5377    4.9290 Rh  0  0  0  0  0  0  0  0  0  0  0  0
    3.6075   18.5735    4.9687 S   0  0  0  0  0  0  0  0  0  0  0  0
    1.4333   17.9816    2.7053 P   0  0  0  0  0  0  0  0  0  0  0  0
    1.3606   19.1204    7.1696 P   0  0  0  0  0  0  0  0  0  0  0  0
   -1.6812   18.2733    4.9539 O   0  0  0  0  0  0  0  0  0  0  0  0
    4.0713   19.0775    3.3222 C   0  0  0  0  0  0  0  0  0  0  0  0
    3.0212   18.7422    2.0523 C   0  0  0  0  0  0  0  0  0  0  0  0
    0.1828   18.6304    1.5427 C   0  0  0  0  0  0  0  0  0  0  0  0
   -0.3424   19.8773    1.8177 C   0  0  0  0  0  0  0  0  0  0  0  0
   -0.0623   20.3484    2.5688 H   0  0  0  0  0  0  0  0  0  0  0  0
   -1.2897   20.4207    0.9672 C   0  0  0  0  0  0  0  0  0  0  0  0
   -1.6335   21.2666    1.1429 H   0  0  0  0  0  0  0  0  0  0  0  0
   -1.7215   19.7348   -0.1156 C   0  0  0  0  0  0  0  0  0  0  0  0
   -2.3698   20.1052   -0.6714 H   0  0  0  0  0  0  0  0  0  0  0  0
   -1.2087   18.5033   -0.3940 C   0  0  0  0  0  0  0  0  0  0  0  0
   -1.5007   18.0344   -1.1429 H   0  0  0  0  0  0  0  0  0  0  0  0
   -0.2537   17.9511    0.4403 C   0  0  0  0  0  0  0  0  0  0  0  0
    0.0954   17.1097    0.2496 H   0  0  0  0  0  0  0  0  0  0  0  0
    1.4961   16.1937    2.3793 C   0  0  0  0  0  0  0  0  0  0  0  0
    1.9553   15.5823    1.2133 C   0  0  0  0  0  0  0  0  0  0  0  0
    2.3083   16.0995    0.5258 H   0  0  0  0  0  0  0  0  0  0  0  0
    1.8879   14.2259    1.0793 C   0  0  0  0  0  0  0  0  0  0  0  0
    2.2098   13.8271    0.3028 H   0  0  0  0  0  0  0  0  0  0  0  0
    1.3574   13.4392    2.0650 C   0  0  0  0  0  0  0  0  0  0  0  0
    1.3182   12.5167    1.9564 H   0  0  0  0  0  0  0  0  0  0  0  0
    0.8839   14.0177    3.2055 C   0  0  0  0  0  0  0  0  0  0  0  0
    0.5090   13.4896    3.8723 H   0  0  0  0  0  0  0  0  0  0  0  0
    0.9616   15.3829    3.3708 C   0  0  0  0  0  0  0  0  0  0  0  0
    0.6522   15.7686    4.1589 H   0  0  0  0  0  0  0  0  0  0  0  0
   -0.5372   18.4091    4.9481 C   0  0  0  0  0  0  0  0  0  0  0  0
   -0.1667   19.1958    8.1178 C   0  0  0  0  0  0  0  0  0  0  0  0
   -0.6492   18.3697    7.9699 H   0  0  0  0  0  0  0  0  0  0  0  0
    0.0686   19.2265    9.0584 H   0  0  0  0  0  0  0  0  0  0  0  0
   -1.0547   20.2717    7.8567 C   0  0  0  0  0  0  0  0  0  0  0  0
   -0.5538   21.0365    7.5620 H   0  0  0  0  0  0  0  0  0  0  0  0
   -1.5340   20.4930    8.6586 H   0  0  0  0  0  0  0  0  0  0  0  0
   -1.6771   20.0153    7.1726 H   0  0  0  0  0  0  0  0  0  0  0  0
    2.4312   17.9665    8.1560 C   0  0  0  0  0  0  0  0  0  0  0  0
    3.3294   17.9884    7.7908 H   0  0  0  0  0  0  0  0  0  0  0  0
    2.4783   18.2908    9.0688 H   0  0  0  0  0  0  0  0  0  0  0  0
    1.9806   16.6122    8.1768 C   0  0  0  0  0  0  0  0  0  0  0  0
    1.0903   16.5772    8.5350 H   0  0  0  0  0  0  0  0  0  0  0  0
    2.5670   16.0885    8.7268 H   0  0  0  0  0  0  0  0  0  0  0  0
    1.9799   16.2616    7.2835 H   0  0  0  0  0  0  0  0  0  0  0  0
    2.2297   20.6815    7.5135 C   0  0  0  0  0  0  0  0  0  0  0  0
    2.0486   20.9335    8.4321 H   0  0  0  0  0  0  0  0  0  0  0  0
    3.1835   20.5215    7.4395 H   0  0  0  0  0  0  0  0  0  0  0  0
    1.8818   21.8253    6.6410 C   0  0  0  0  0  0  0  0  0  0  0  0
    0.9283   21.9393    6.6260 H   0  0  0  0  0  0  0  0  0  0  0  0
    2.1977   21.6566    5.7501 H   0  0  0  0  0  0  0  0  0  0  0  0
    2.2937   22.6230    6.9807 H   0  0  0  0  0  0  0  0  0  0  0  0
    3.2133   20.3747    2.5989 B   0  0  0  0  0  0  0  0  0  0  0  0
    2.4293   20.9466    3.1154 H   0  0  0  0  0  0  0  0  0  0  0  0
    4.9057   20.5347    3.0241 B   0  0  0  0  0  0  0  0  0  0  0  0
    5.2371   21.2249    3.8122 H   0  0  0  0  0  0  0  0  0  0  0  0
    5.6813   18.9569    2.7999 B   0  0  0  0  0  0  0  0  0  0  0  0
    6.5112   18.6217    3.4390 H   0  0  0  0  0  0  0  0  0  0  0  0
    4.4642   17.8131    2.2060 B   0  0  0  0  0  0  0  0  0  0  0  0
    4.4866   16.7437    2.4637 H   0  0  0  0  0  0  0  0  0  0  0  0
    3.1113   19.9759    0.8667 B   0  0  0  0  0  0  0  0  0  0  0  0
    2.2605   20.2980    0.2473 H   0  0  0  0  0  0  0  0  0  0  0  0
    4.3235   21.1132    1.4629 B   0  0  0  0  0  0  0  0  0  0  0  0
    4.2714   22.1847    1.2203 H   0  0  0  0  0  0  0  0  0  0  0  0
    5.8698   20.2498    1.5877 B   0  0  0  0  0  0  0  0  0  0  0  0
    6.8315   20.7604    1.4283 H   0  0  0  0  0  0  0  0  0  0  0  0
    5.5962   18.5559    1.0631 B   0  0  0  0  0  0  0  0  0  0  0  0
    6.3781   17.9665    0.5639 H   0  0  0  0  0  0  0  0  0  0  0  0
    3.8952   18.4113    0.6217 B   0  0  0  0  0  0  0  0  0  0  0  0
    3.5565   17.7189   -0.1629 H   0  0  0  0  0  0  0  0  0  0  0  0
    4.7569   19.8904    0.2415 B   0  0  0  0  0  0  0  0  0  0  0  0
    4.9964   20.1643   -0.7962 H   0  0  0  0  0  0  0  0  0  0  0  0
  1  2  1  0  0  0  0
  2  6  1  0  0  0  0
  3  1  1  0  0  0  0
  4  1  1  0  0  0  0
  5 30  3  0  0  0  0
  6  7  1  0  0  0  0
  7  3  1  0  0  0  0
  8  3  1  0  0  0  0
  9  8  4  0  0  0  0
 10  9  1  0  0  0  0
 11  9  4  0  0  0  0
 12 11  1  0  0  0  0
 13 11  4  0  0  0  0
 14 13  1  0  0  0  0
 15 13  4  0  0  0  0
 16 15  1  0  0  0  0
 17  8  4  0  0  0  0
 18 17  1  0  0  0  0
 19  3  1  0  0  0  0
 20 19  4  0  0  0  0
 21 20  1  0  0  0  0
 22 20  4  0  0  0  0
 23 22  1  0  0  0  0
 24 22  4  0  0  0  0
 25 24  1  0  0  0  0
 26 24  4  0  0  0  0
 27 26  1  0  0  0  0
 28 19  4  0  0  0  0
 29 28  1  0  0  0  0
 30  1  1  0  0  0  0
 31  4  1  0  0  0  0
 32 31  1  0  0  0  0
 33 31  1  0  0  0  0
 34 31  1  0  0  0  0
 35 34  1  0  0  0  0
 36 34  1  0  0  0  0
 37 34  1  0  0  0  0
 38  4  1  0  0  0  0
 39 38  1  0  0  0  0
 40 38  1  0  0  0  0
 41 38  1  0  0  0  0
 42 41  1  0  0  0  0
 43 41  1  0  0  0  0
 44 41  1  0  0  0  0
 45  4  1  0  0  0  0
 46 45  1  0  0  0  0
 47 45  1  0  0  0  0
 48 45  1  0  0  0  0
 49 48  1  0  0  0  0
 50 48  1  0  0  0  0
 51 48  1  0  0  0  0
 52  6  1  0  0  0  0
 53 52  1  0  0  0  0
 54  6  1  0  0  0  0
 55 54  1  0  0  0  0
 56  6  1  0  0  0  0
 57 56  1  0  0  0  0
 58  6  1  0  0  0  0
 59 58  1  0  0  0  0
 60  7  1  0  0  0  0
 61 60  1  0  0  0  0
 62 52  1  0  0  0  0
 63 62  1  0  0  0  0
 64 54  1  0  0  0  0
 65 64  1  0  0  0  0
 66 56  1  0  0  0  0
 67 66  1  0  0  0  0
 68  7  1  0  0  0  0
 69 68  1  0  0  0  0
 70 60  1  0  0  0  0
 71 70  1  0  0  0  0
  7 52  1  0  0  0  0
  7 58  1  0  0  0  0
 15 17  4  0  0  0  0
 26 28  4  0  0  0  0
 52 54  1  0  0  0  0
 52 60  1  0  0  0  0
 54 56  1  0  0  0  0
 54 62  1  0  0  0  0
 56 58  1  0  0  0  0
 56 64  1  0  0  0  0
 58 66  1  0  0  0  0
 58 68  1  0  0  0  0
 60 62  1  0  0  0  0
 60 68  1  0  0  0  0
 62 64  1  0  0  0  0
 62 70  1  0  0  0  0
 64 66  1  0  0  0  0
 64 70  1  0  0  0  0
 66 68  1  0  0  0  0
 66 70  1  0  0  0  0
 68 70  1  0  0  0  0
M  END
$$$$
YIVQUP

From CSD data. Using bond type 'Any'. No disordered atoms. Largest molecule.
104148  0  0  0  0  0  0  0  0999 V2000
    8.1970    1.5504   19.6657 Rh  0  0  0  0  0  0  0  0  0  0  0  0
    6.6470    0.9319   17.9645 S   0  0  0  0  0  0  0  0  0  0  0  0
    9.5334    1.8839   21.4358 P   0  0  0  0  0  0  0  0  0  0  0  0
   10.6745    1.5606   18.0452 O   0  0  0  0  0  0  0  0  0  0  0  0
    6.8305    1.8874   16.4416 C   0  0  0  0  0  0  0  0  0  0  0  0
    5.4580    2.0134   15.4918 C   0  0  0  0  0  0  0  0  0  0  0  0
    8.7601    1.3484   23.0093 C   0  0  0  0  0  0  0  0  0  0  0  0
    8.5946    0.3947   22.9497 H   0  0  0  0  0  0  0  0  0  0  0  0
    9.4088    1.4810   23.7178 H   0  0  0  0  0  0  0  0  0  0  0  0
   11.0369    0.8442   21.3953 C   0  0  0  0  0  0  0  0  0  0  0  0
   10.9009   -0.5274   21.3356 C   0  0  0  0  0  0  0  0  0  0  0  0
   10.0517   -0.9039   21.3434 H   0  0  0  0  0  0  0  0  0  0  0  0
   12.0058   -1.3450   21.2578 C   0  0  0  0  0  0  0  0  0  0  0  0
   11.8992   -2.2688   21.2344 H   0  0  0  0  0  0  0  0  0  0  0  0
   13.2491   -0.8044   21.2188 C   0  0  0  0  0  0  0  0  0  0  0  0
   13.9956   -1.3567   21.1669 H   0  0  0  0  0  0  0  0  0  0  0  0
   13.4009    0.5407   21.2552 C   0  0  0  0  0  0  0  0  0  0  0  0
   14.2547    0.9089   21.2136 H   0  0  0  0  0  0  0  0  0  0  0  0
   12.3097    1.3683   21.3564 C   0  0  0  0  0  0  0  0  0  0  0  0
   12.4303    2.2904   21.3979 H   0  0  0  0  0  0  0  0  0  0  0  0
   10.1662    3.5558   21.7352 C   0  0  0  0  0  0  0  0  0  0  0  0
    9.9303    4.5542   20.8166 C   0  0  0  0  0  0  0  0  0  0  0  0
    9.4560    4.3585   20.0407 H   0  0  0  0  0  0  0  0  0  0  0  0
   10.3853    5.8313   21.0294 C   0  0  0  0  0  0  0  0  0  0  0  0
   10.2384    6.4881   20.3859 H   0  0  0  0  0  0  0  0  0  0  0  0
   11.0602    6.1447   22.1868 C   0  0  0  0  0  0  0  0  0  0  0  0
   11.3410    7.0171   22.3373 H   0  0  0  0  0  0  0  0  0  0  0  0
   11.3137    5.1828   23.1080 C   0  0  0  0  0  0  0  0  0  0  0  0
   11.7943    5.4001   23.8761 H   0  0  0  0  0  0  0  0  0  0  0  0
   10.8661    3.8726   22.9263 C   0  0  0  0  0  0  0  0  0  0  0  0
   11.0218    3.2225   23.5725 H   0  0  0  0  0  0  0  0  0  0  0  0
    9.7036    1.6137   18.6343 C   0  0  0  0  0  0  0  0  0  0  0  0
    6.0595    3.4182   16.2936 B   0  0  0  0  0  0  0  0  0  0  0  0
    5.5294    3.9257   17.1136 H   0  0  0  0  0  0  0  0  0  0  0  0
    7.8218    3.2656   16.2677 B   0  0  0  0  0  0  0  0  0  0  0  0
    8.4530    3.6802   17.0669 H   0  0  0  0  0  0  0  0  0  0  0  0
    8.2159    1.7282   15.4840 B   0  0  0  0  0  0  0  0  0  0  0  0
    9.0993    1.1460   15.7850 H   0  0  0  0  0  0  0  0  0  0  0  0
    6.7330    0.9221   14.9962 B   0  0  0  0  0  0  0  0  0  0  0  0
    6.6454   -0.1741   14.9754 H   0  0  0  0  0  0  0  0  0  0  0  0
    5.4807    3.4961   14.6303 B   0  0  0  0  0  0  0  0  0  0  0  0
    4.5752    4.0600   14.3604 H   0  0  0  0  0  0  0  0  0  0  0  0
    6.9863    4.2889   15.1052 B   0  0  0  0  0  0  0  0  0  0  0  0
    7.0730    5.3851   15.1441 H   0  0  0  0  0  0  0  0  0  0  0  0
    8.3387    3.2639   14.5654 B   0  0  0  0  0  0  0  0  0  0  0  0
    9.3030    3.6852   14.2436 H   0  0  0  0  0  0  0  0  0  0  0  0
    7.6484    1.8177   13.7999 B   0  0  0  0  0  0  0  0  0  0  0  0
    8.1694    1.2969   12.9825 H   0  0  0  0  0  0  0  0  0  0  0  0
    5.8921    1.9653   13.8233 B   0  0  0  0  0  0  0  0  0  0  0  0
    5.2545    1.5424   13.0344 H   0  0  0  0  0  0  0  0  0  0  0  0
    6.8933    3.4049   13.5638 B   0  0  0  0  0  0  0  0  0  0  0  0
    6.9197    3.9224   12.5933 H   0  0  0  0  0  0  0  0  0  0  0  0
    4.7376    1.5504   19.2584 Rh  0  0  0  0  0  0  0  0  0  0  0  0
    6.2876    0.9319   20.9596 S   0  0  0  0  0  0  0  0  0  0  0  0
    7.4766    2.0134   23.4323 C   0  0  0  0  0  0  0  0  0  0  0  0
    6.1040    1.8874   22.4826 C   0  0  0  0  0  0  0  0  0  0  0  0
    6.8751    3.4182   22.6305 B   0  0  0  0  0  0  0  0  0  0  0  0
    6.2015    0.9221   23.9280 B   0  0  0  0  0  0  0  0  0  0  0  0
    5.1127    3.2656   22.6564 B   0  0  0  0  0  0  0  0  0  0  0  0
    7.4051    3.9257   21.8105 H   0  0  0  0  0  0  0  0  0  0  0  0
    7.4539    3.4961   24.2938 B   0  0  0  0  0  0  0  0  0  0  0  0
    7.0425    1.9653   25.1009 B   0  0  0  0  0  0  0  0  0  0  0  0
    4.7187    1.7282   23.4401 B   0  0  0  0  0  0  0  0  0  0  0  0
    4.4815    3.6802   21.8572 H   0  0  0  0  0  0  0  0  0  0  0  0
    5.9483    4.2889   23.8190 B   0  0  0  0  0  0  0  0  0  0  0  0
    8.3594    4.0600   24.5637 H   0  0  0  0  0  0  0  0  0  0  0  0
    5.2862    1.8177   25.1242 B   0  0  0  0  0  0  0  0  0  0  0  0
    3.8353    1.1460   23.1391 H   0  0  0  0  0  0  0  0  0  0  0  0
    4.5959    3.2639   24.3587 B   0  0  0  0  0  0  0  0  0  0  0  0
    5.8616    5.3851   23.7800 H   0  0  0  0  0  0  0  0  0  0  0  0
    6.0413    3.4049   25.3604 B   0  0  0  0  0  0  0  0  0  0  0  0
    3.6315    3.6852   24.6805 H   0  0  0  0  0  0  0  0  0  0  0  0
    6.2891   -0.1741   23.9487 H   0  0  0  0  0  0  0  0  0  0  0  0
    4.7651    1.2969   25.9416 H   0  0  0  0  0  0  0  0  0  0  0  0
    7.6801    1.5424   25.8897 H   0  0  0  0  0  0  0  0  0  0  0  0
    6.0149    3.9224   26.3309 H   0  0  0  0  0  0  0  0  0  0  0  0
    3.4012    1.8839   17.4884 P   0  0  0  0  0  0  0  0  0  0  0  0
    4.1745    1.3484   15.9148 C   0  0  0  0  0  0  0  0  0  0  0  0
    4.3400    0.3947   15.9745 H   0  0  0  0  0  0  0  0  0  0  0  0
    3.5257    1.4810   15.2064 H   0  0  0  0  0  0  0  0  0  0  0  0
    1.8977    0.8442   17.5288 C   0  0  0  0  0  0  0  0  0  0  0  0
    2.0336   -0.5274   17.5885 C   0  0  0  0  0  0  0  0  0  0  0  0
    2.8828   -0.9039   17.5807 H   0  0  0  0  0  0  0  0  0  0  0  0
    0.9287   -1.3450   17.6664 C   0  0  0  0  0  0  0  0  0  0  0  0
    1.0354   -2.2688   17.6897 H   0  0  0  0  0  0  0  0  0  0  0  0
   -0.3146   -0.8044   17.7053 C   0  0  0  0  0  0  0  0  0  0  0  0
   -1.0610   -1.3567   17.7572 H   0  0  0  0  0  0  0  0  0  0  0  0
   -0.4664    0.5407   17.6690 C   0  0  0  0  0  0  0  0  0  0  0  0
   -1.3201    0.9089   17.7105 H   0  0  0  0  0  0  0  0  0  0  0  0
    0.6248    1.3683   17.5678 C   0  0  0  0  0  0  0  0  0  0  0  0
    0.5043    2.2904   17.5262 H   0  0  0  0  0  0  0  0  0  0  0  0
    2.7684    3.5558   17.1889 C   0  0  0  0  0  0  0  0  0  0  0  0
    3.0042    4.5542   18.1075 C   0  0  0  0  0  0  0  0  0  0  0  0
    3.4786    4.3585   18.8834 H   0  0  0  0  0  0  0  0  0  0  0  0
    2.5492    5.8313   17.8947 C   0  0  0  0  0  0  0  0  0  0  0  0
    2.6961    6.4881   18.5383 H   0  0  0  0  0  0  0  0  0  0  0  0
    1.8743    6.1447   16.7374 C   0  0  0  0  0  0  0  0  0  0  0  0
    1.5935    7.0171   16.5869 H   0  0  0  0  0  0  0  0  0  0  0  0
    1.6208    5.1828   15.8162 C   0  0  0  0  0  0  0  0  0  0  0  0
    1.1402    5.4001   15.0481 H   0  0  0  0  0  0  0  0  0  0  0  0
    2.0685    3.8726   15.9978 C   0  0  0  0  0  0  0  0  0  0  0  0
    1.9128    3.2225   15.3517 H   0  0  0  0  0  0  0  0  0  0  0  0
    3.2310    1.6137   20.2898 C   0  0  0  0  0  0  0  0  0  0  0  0
    2.2600    1.5606   20.8789 O   0  0  0  0  0  0  0  0  0  0  0  0
  1  2  1  0  0  0  0
  2  5  1  0  0  0  0
  3  1  1  0  0  0  0
  4 32  3  0  0  0  0
  5  6  1  0  0  0  0
  6 33  1  0  0  0  0
  7  3  1  0  0  0  0
  8  7  1  0  0  0  0
  9  7  1  0  0  0  0
 10  3  1  0  0  0  0
 11 10  4  0  0  0  0
 12 11  1  0  0  0  0
 13 11  4  0  0  0  0
 14 13  1  0  0  0  0
 15 13  4  0  0  0  0
 16 15  1  0  0  0  0
 17 15  4  0  0  0  0
 18 17  1  0  0  0  0
 19 10  4  0  0  0  0
 20 19  1  0  0  0  0
 21  3  1  0  0  0  0
 22 21  4  0  0  0  0
 23 22  1  0  0  0  0
 24 22  4  0  0  0  0
 25 24  1  0  0  0  0
 26 24  4  0  0  0  0
 27 26  1  0  0  0  0
 28 26  4  0  0  0  0
 29 28  1  0  0  0  0
 30 21  4  0  0  0  0
 31 30  1  0  0  0  0
 32  1  1  0  0  0  0
 33  5  1  0  0  0  0
 34 33  1  0  0  0  0
 35  5  1  0  0  0  0
 36 35  1  0  0  0  0
 37  5  1  0  0  0  0
 38 37  1  0  0  0  0
 39  5  1  0  0  0  0
 40 39  1  0  0  0  0
 41  6  1  0  0  0  0
 42 41  1  0  0  0  0
 43 33  1  0  0  0  0
 44 43  1  0  0  0  0
 45 35  1  0  0  0  0
 46 45  1  0  0  0  0
 47 37  1  0  0  0  0
 48 47  1  0  0  0  0
 49  6  1  0  0  0  0
 50 49  1  0  0  0  0
 51 41  1  0  0  0  0
 52 51  1  0  0  0  0
 53  2  1  0  0  0  0
 54  1  1  0  0  0  0
 55  7  1  0  0  0  0
 56 54  1  0  0  0  0
 57 55  1  0  0  0  0
 58 55  1  0  0  0  0
 59 56  1  0  0  0  0
 60 57  1  0  0  0  0
 61 55  1  0  0  0  0
 62 55  1  0  0  0  0
 63 56  1  0  0  0  0
 64 59  1  0  0  0  0
 65 57  1  0  0  0  0
 66 61  1  0  0  0  0
 67 58  1  0  0  0  0
 68 63  1  0  0  0  0
 69 59  1  0  0  0  0
 70 65  1  0  0  0  0
 71 61  1  0  0  0  0
 72 69  1  0  0  0  0
 73 58  1  0  0  0  0
 74 67  1  0  0  0  0
 75 62  1  0  0  0  0
 76 71  1  0  0  0  0
 77 53  1  0  0  0  0
 78  6  1  0  0  0  0
 79 78  1  0  0  0  0
 80 78  1  0  0  0  0
 81 77  1  0  0  0  0
 82 81  4  0  0  0  0
 83 82  1  0  0  0  0
 84 82  4  0  0  0  0
 85 84  1  0  0  0  0
 86 84  4  0  0  0  0
 87 86  1  0  0  0  0
 88 86  4  0  0  0  0
 89 88  1  0  0  0  0
 90 81  4  0  0  0  0
 91 90  1  0  0  0  0
 92 77  1  0  0  0  0
 93 92  4  0  0  0  0
 94 93  1  0  0  0  0
 95 93  4  0  0  0  0
 96 95  1  0  0  0  0
 97 95  4  0  0  0  0
 98 97  1  0  0  0  0
 99 97  4  0  0  0  0
100 99  1  0  0  0  0
101 92  4  0  0  0  0
102101  1  0  0  0  0
103 53  1  0  0  0  0
104103  3  0  0  0  0
  6 39  1  0  0  0  0
 17 19  4  0  0  0  0
 28 30  4  0  0  0  0
 33 35  1  0  0  0  0
 33 41  1  0  0  0  0
 35 37  1  0  0  0  0
 35 43  1  0  0  0  0
 37 39  1  0  0  0  0
 37 45  1  0  0  0  0
 39 47  1  0  0  0  0
 39 49  1  0  0  0  0
 41 43  1  0  0  0  0
 41 49  1  0  0  0  0
 43 45  1  0  0  0  0
 43 51  1  0  0  0  0
 45 47  1  0  0  0  0
 45 51  1  0  0  0  0
 47 49  1  0  0  0  0
 47 51  1  0  0  0  0
 49 51  1  0  0  0  0
 53 54  1  0  0  0  0
 55 56  1  0  0  0  0
 56 57  1  0  0  0  0
 56 58  1  0  0  0  0
 57 59  1  0  0  0  0
 57 61  1  0  0  0  0
 58 62  1  0  0  0  0
 58 63  1  0  0  0  0
 59 63  1  0  0  0  0
 59 65  1  0  0  0  0
 61 62  1  0  0  0  0
 61 65  1  0  0  0  0
 62 67  1  0  0  0  0
 62 71  1  0  0  0  0
 63 67  1  0  0  0  0
 63 69  1  0  0  0  0
 65 69  1  0  0  0  0
 65 71  1  0  0  0  0
 67 69  1  0  0  0  0
 67 71  1  0  0  0  0
 69 71  1  0  0  0  0
 77 78  1  0  0  0  0
 88 90  4  0  0  0  0
 99101  4  0  0  0  0
M  END
$$$$
YIWPOK

From CSD data. Using bond type 'Any'. Matching problem. No disordered atoms. Largest molecule.
 95112  0  0  0  0  0  0  0  0999 V2000
    0.7198    5.5836   22.5602 B   0  0  0  0  0  0  0  0  0  0  0  0
    3.6451    4.7977   27.0629 B   0  0  0  0  0  0  0  0  0  0  0  0
    1.8706    6.3470   23.1416 C   0  0  0  0  0  0  0  0  0  0  0  0
    2.6990    6.3389   22.7199 H   0  0  0  0  0  0  0  0  0  0  0  0
    1.6892    7.0699   24.3190 C   0  0  0  0  0  0  0  0  0  0  0  0
    2.3976    7.5815   24.6371 H   0  0  0  0  0  0  0  0  0  0  0  0
    0.5191    7.0635   25.0298 C   0  0  0  0  0  0  0  0  0  0  0  0
    0.4612    7.5282   25.8331 H   0  0  0  0  0  0  0  0  0  0  0  0
   -0.5809    6.3631   24.5517 C   0  0  0  0  0  0  0  0  0  0  0  0
   -1.3748    6.3889   25.0347 H   0  0  0  0  0  0  0  0  0  0  0  0
   -0.5361    5.6369   23.3866 C   0  0  0  0  0  0  0  0  0  0  0  0
   -1.2909    5.1705   23.1052 H   0  0  0  0  0  0  0  0  0  0  0  0
    3.1738    3.4002   27.3477 C   0  0  0  0  0  0  0  0  0  0  0  0
    2.7662    3.2017   28.1602 H   0  0  0  0  0  0  0  0  0  0  0  0
    3.3441    2.4207   26.4095 C   0  0  0  0  0  0  0  0  0  0  0  0
    3.0803    1.5524   26.6098 H   0  0  0  0  0  0  0  0  0  0  0  0
    3.9032    2.6853   25.1611 C   0  0  0  0  0  0  0  0  0  0  0  0
    3.9828    1.9995   24.5385 H   0  0  0  0  0  0  0  0  0  0  0  0
    4.3384    3.9554   24.8387 C   0  0  0  0  0  0  0  0  0  0  0  0
    4.7091    4.1070   23.9991 H   0  0  0  0  0  0  0  0  0  0  0  0
    4.2371    5.0059   25.7304 C   0  0  0  0  0  0  0  0  0  0  0  0
    4.5452    5.8499   25.4878 H   0  0  0  0  0  0  0  0  0  0  0  0
    0.2969    5.5030   19.6111 C   0  0  0  0  0  0  0  0  0  0  0  0
    0.0576    4.9026   18.3861 C   0  0  0  0  0  0  0  0  0  0  0  0
    0.2193    3.9909   18.2937 H   0  0  0  0  0  0  0  0  0  0  0  0
   -0.4115    5.6111   17.3104 C   0  0  0  0  0  0  0  0  0  0  0  0
   -0.5835    5.1818   16.5028 H   0  0  0  0  0  0  0  0  0  0  0  0
   -0.6177    6.9376   17.4368 C   0  0  0  0  0  0  0  0  0  0  0  0
   -0.9236    7.4298   16.7094 H   0  0  0  0  0  0  0  0  0  0  0  0
   -0.3827    7.5637   18.6266 C   0  0  0  0  0  0  0  0  0  0  0  0
   -0.5315    8.4787   18.7036 H   0  0  0  0  0  0  0  0  0  0  0  0
    0.0713    6.8585   19.7128 C   0  0  0  0  0  0  0  0  0  0  0  0
    0.2265    7.2959   20.5191 H   0  0  0  0  0  0  0  0  0  0  0  0
    2.6225    4.3136   20.7213 C   0  0  0  0  0  0  0  0  0  0  0  0
    3.4091    5.2932   20.1523 C   0  0  0  0  0  0  0  0  0  0  0  0
    3.0174    6.0775   19.8379 H   0  0  0  0  0  0  0  0  0  0  0  0
    4.7842    5.1173   20.0444 C   0  0  0  0  0  0  0  0  0  0  0  0
    5.3128    5.7805   19.6653 H   0  0  0  0  0  0  0  0  0  0  0  0
    5.3567    3.9505   20.5068 C   0  0  0  0  0  0  0  0  0  0  0  0
    6.2782    3.8375   20.4359 H   0  0  0  0  0  0  0  0  0  0  0  0
    4.6237    2.9855   21.0462 C   0  0  0  0  0  0  0  0  0  0  0  0
    5.0215    2.1996   21.3452 H   0  0  0  0  0  0  0  0  0  0  0  0
    3.2707    3.1694   21.1513 C   0  0  0  0  0  0  0  0  0  0  0  0
    2.7615    2.4900   21.5301 H   0  0  0  0  0  0  0  0  0  0  0  0
    4.5515    7.4217   28.1186 C   0  0  0  0  0  0  0  0  0  0  0  0
    4.6783    8.3222   27.0679 C   0  0  0  0  0  0  0  0  0  0  0  0
    4.0055    8.3706   26.4280 H   0  0  0  0  0  0  0  0  0  0  0  0
    5.7706    9.1388   26.9550 C   0  0  0  0  0  0  0  0  0  0  0  0
    5.8416    9.7149   26.2276 H   0  0  0  0  0  0  0  0  0  0  0  0
    6.7474    9.1162   27.8859 C   0  0  0  0  0  0  0  0  0  0  0  0
    7.4827    9.6794   27.8119 H   0  0  0  0  0  0  0  0  0  0  0  0
    6.6439    8.2657   28.9277 C   0  0  0  0  0  0  0  0  0  0  0  0
    7.3139    8.2448   29.5719 H   0  0  0  0  0  0  0  0  0  0  0  0
    5.5520    7.4266   29.0473 C   0  0  0  0  0  0  0  0  0  0  0  0
    5.4984    6.8521   29.7785 H   0  0  0  0  0  0  0  0  0  0  0  0
    2.9229    5.7644   29.8475 C   0  0  0  0  0  0  0  0  0  0  0  0
    3.6814    4.7913   30.4569 C   0  0  0  0  0  0  0  0  0  0  0  0
    4.3483    4.3652   29.9696 H   0  0  0  0  0  0  0  0  0  0  0  0
    3.4771    4.4298   31.7789 C   0  0  0  0  0  0  0  0  0  0  0  0
    4.0237    3.7859   32.1673 H   0  0  0  0  0  0  0  0  0  0  0  0
    2.5027    4.9946   32.5125 C   0  0  0  0  0  0  0  0  0  0  0  0
    2.3741    4.7445   33.3971 H   0  0  0  0  0  0  0  0  0  0  0  0
    1.7074    5.9354   31.9453 C   0  0  0  0  0  0  0  0  0  0  0  0
    1.0190    6.3195   32.4385 H   0  0  0  0  0  0  0  0  0  0  0  0
    1.9215    6.3276   30.6172 C   0  0  0  0  0  0  0  0  0  0  0  0
    1.3764    6.9828   30.2439 H   0  0  0  0  0  0  0  0  0  0  0  0
   -0.6806    4.9462   27.9143 C   0  0  0  0  0  0  0  0  0  0  0  0
   -1.5161    5.3400   27.6177 H   0  0  0  0  0  0  0  0  0  0  0  0
   -0.0181    5.6498   28.0000 H   0  0  0  0  0  0  0  0  0  0  0  0
   -0.8644    4.2378   29.2206 C   0  0  0  0  0  0  0  0  0  0  0  0
   -0.0416    4.2345   29.7322 H   0  0  0  0  0  0  0  0  0  0  0  0
   -1.5651    4.6509   29.7446 H   0  0  0  0  0  0  0  0  0  0  0  0
   -1.2370    2.8870   28.8168 C   0  0  0  0  0  0  0  0  0  0  0  0
   -2.2009    2.7821   28.8322 H   0  0  0  0  0  0  0  0  0  0  0  0
   -0.8436    2.2335   29.4147 H   0  0  0  0  0  0  0  0  0  0  0  0
   -0.7172    2.7127   27.4451 C   0  0  0  0  0  0  0  0  0  0  0  0
   -0.0021    2.0592   27.4421 H   0  0  0  0  0  0  0  0  0  0  0  0
   -1.4243    2.3948   26.8595 H   0  0  0  0  0  0  0  0  0  0  0  0
    0.9108    0.8827   24.1440 C   0  0  0  0  0  0  0  0  0  0  0  0
    1.1828    0.5245   25.0039 H   0  0  0  0  0  0  0  0  0  0  0  0
    1.6834    0.8908   23.5583 H   0  0  0  0  0  0  0  0  0  0  0  0
   -0.1392    0.0533   23.5676 C   0  0  0  0  0  0  0  0  0  0  0  0
    0.0475   -0.1404   22.6367 H   0  0  0  0  0  0  0  0  0  0  0  0
   -0.2166   -0.7843   24.0515 H   0  0  0  0  0  0  0  0  0  0  0  0
   -1.3490    0.8279   23.6970 C   0  0  0  0  0  0  0  0  0  0  0  0
   -1.9213    0.6939   22.9233 H   0  0  0  0  0  0  0  0  0  0  0  0
   -1.8363    0.5680   24.4923 H   0  0  0  0  0  0  0  0  0  0  0  0
   -0.9369    2.1899   23.7833 C   0  0  0  0  0  0  0  0  0  0  0  0
   -1.5230    2.6821   24.3782 H   0  0  0  0  0  0  0  0  0  0  0  0
   -0.9616    2.6079   22.9079 H   0  0  0  0  0  0  0  0  0  0  0  0
   -0.2378    3.9457   26.9859 O   0  0  0  0  0  0  0  0  0  0  0  0
    0.4199    2.1812   24.3018 O   0  0  0  0  0  0  0  0  0  0  0  0
    0.8255    4.4384   20.9938 P   0  0  0  0  0  0  0  0  0  0  0  0
    3.0716    6.3237   28.1276 P   0  0  0  0  0  0  0  0  0  0  0  0
    1.4410    4.3082   25.1839 Sm  0  0  0  0  0  0  0  0  0  0  0  0
  1  3  4  0  0  0  0
  2 13  4  0  0  0  0
  3  4  1  0  0  0  0
  5  3  4  0  0  0  0
  6  5  1  0  0  0  0
  7  5  4  0  0  0  0
  8  7  1  0  0  0  0
  9  7  4  0  0  0  0
 10  9  1  0  0  0  0
 11  1  4  0  0  0  0
 12 11  1  0  0  0  0
 13 14  1  0  0  0  0
 15 13  4  0  0  0  0
 16 15  1  0  0  0  0
 17 15  4  0  0  0  0
 18 17  1  0  0  0  0
 19 17  4  0  0  0  0
 20 19  1  0  0  0  0
 21  2  4  0  0  0  0
 22 21  1  0  0  0  0
 23 24  4  0  0  0  0
 24 25  1  0  0  0  0
 26 24  4  0  0  0  0
 27 26  1  0  0  0  0
 28 26  4  0  0  0  0
 29 28  1  0  0  0  0
 30 28  4  0  0  0  0
 31 30  1  0  0  0  0
 32 23  4  0  0  0  0
 33 32  1  0  0  0  0
 34 35  4  0  0  0  0
 35 36  1  0  0  0  0
 37 35  4  0  0  0  0
 38 37  1  0  0  0  0
 39 37  4  0  0  0  0
 40 39  1  0  0  0  0
 41 39  4  0  0  0  0
 42 41  1  0  0  0  0
 43 34  4  0  0  0  0
 44 43  1  0  0  0  0
 45 46  4  0  0  0  0
 46 47  1  0  0  0  0
 48 46  4  0  0  0  0
 49 48  1  0  0  0  0
 50 48  4  0  0  0  0
 51 50  1  0  0  0  0
 52 50  4  0  0  0  0
 53 52  1  0  0  0  0
 54 45  4  0  0  0  0
 55 54  1  0  0  0  0
 56 57  4  0  0  0  0
 57 58  1  0  0  0  0
 59 57  4  0  0  0  0
 60 59  1  0  0  0  0
 61 59  4  0  0  0  0
 62 61  1  0  0  0  0
 63 61  4  0  0  0  0
 64 63  1  0  0  0  0
 65 56  4  0  0  0  0
 66 65  1  0  0  0  0
 67 68  1  0  0  0  0
 69 67  1  0  0  0  0
 70 67  1  0  0  0  0
 71 70  1  0  0  0  0
 72 70  1  0  0  0  0
 73 70  1  0  0  0  0
 74 73  1  0  0  0  0
 75 73  1  0  0  0  0
 76 73  1  0  0  0  0
 77 76  1  0  0  0  0
 78 76  1  0  0  0  0
 79 80  1  0  0  0  0
 81 79  1  0  0  0  0
 82 79  1  0  0  0  0
 83 82  1  0  0  0  0
 84 82  1  0  0  0  0
 85 82  1  0  0  0  0
 86 85  1  0  0  0  0
 87 85  1  0  0  0  0
 88 85  1  0  0  0  0
 89 88  1  0  0  0  0
 90 88  1  0  0  0  0
 91 67  1  0  0  0  0
 92 79  1  0  0  0  0
 93  1  1  0  0  0  0
 94  2  1  0  0  0  0
 95  1  8  0  0  0  0
  2 95  8  0  0  0  0
  3 95  8  0  0  0  0
  5 95  8  0  0  0  0
  7 95  8  0  0  0  0
  9 11  4  0  0  0  0
  9 95  8  0  0  0  0
 11 95  8  0  0  0  0
 13 95  8  0  0  0  0
 15 95  8  0  0  0  0
 17 95  8  0  0  0  0
 19 21  4  0  0  0  0
 19 95  8  0  0  0  0
 21 95  8  0  0  0  0
 23 93  1  0  0  0  0
 30 32  4  0  0  0  0
 34 93  1  0  0  0  0
 41 43  4  0  0  0  0
 45 94  1  0  0  0  0
 52 54  4  0  0  0  0
 56 94  1  0  0  0  0
 63 65  4  0  0  0  0
 76 91  1  0  0  0  0
 88 92  1  0  0  0  0
 91 95  1  0  0  0  0
 92 95  1  0  0  0  0
M  END
$$$$
YOBREM

From CSD data. Using bond type 'Any'. No disordered atoms. Largest molecule.
116118  0  0  0  0  0  0  0  0999 V2000
   -0.3396    1.4492    1.2374 P   0  0  0  0  0  0  0  0  0  0  0  0
    1.1273    1.2525   -1.1542 B   0  0  0  0  0  0  0  0  0  0  0  0
    0.3229    1.7948   -0.1296 O   0  0  0  0  0  0  0  0  0  0  0  0
    1.9519    2.1315   -1.9678 N   0  0  0  0  0  0  0  0  0  0  0  0
   -1.1703    0.1436    1.4367 N   0  0  0  0  0  0  0  0  0  0  0  0
   -1.5657    2.8186    1.5257 C   0  0  0  0  0  0  0  0  0  0  0  0
   -2.5494    2.7581    0.3541 C   0  0  0  0  0  0  0  0  0  0  0  0
   -2.3585    2.6591    2.8260 C   0  0  0  0  0  0  0  0  0  0  0  0
   -0.8909    4.2048    1.5354 C   0  0  0  0  0  0  0  0  0  0  0  0
    1.0365    1.3974    2.4970 C   0  0  0  0  0  0  0  0  0  0  0  0
    1.8021    0.1049    2.2735 C   0  0  0  0  0  0  0  0  0  0  0  0
    0.5334    1.4000    3.9289 C   0  0  0  0  0  0  0  0  0  0  0  0
    2.0792    2.5268    2.2436 C   0  0  0  0  0  0  0  0  0  0  0  0
    1.5036    3.5228   -2.2997 C   0  0  0  0  0  0  0  0  0  0  0  0
    2.1598    3.9798   -3.6164 C   0  0  0  0  0  0  0  0  0  0  0  0
    3.6709    3.9610   -3.6299 C   0  0  0  0  0  0  0  0  0  0  0  0
    4.2062    2.9116   -2.6779 C   0  0  0  0  0  0  0  0  0  0  0  0
    3.2792    1.6913   -2.4922 C   0  0  0  0  0  0  0  0  0  0  0  0
    3.1438    0.9355   -3.8186 C   0  0  0  0  0  0  0  0  0  0  0  0
    3.9787    0.8052   -1.4638 C   0  0  0  0  0  0  0  0  0  0  0  0
   -0.0038    3.5535   -2.5251 C   0  0  0  0  0  0  0  0  0  0  0  0
    1.8736    4.5151   -1.1948 C   0  0  0  0  0  0  0  0  0  0  0  0
    1.2728    1.3684    4.5393 H   0  0  0  0  0  0  0  0  0  0  0  0
    0.0278    2.2014    4.0788 H   0  0  0  0  0  0  0  0  0  0  0  0
   -0.0299    0.6347    4.0701 H   0  0  0  0  0  0  0  0  0  0  0  0
   -2.1863    2.8970   -0.4683 H   0  0  0  0  0  0  0  0  0  0  0  0
   -3.0364    1.9020    0.3009 H   0  0  0  0  0  0  0  0  0  0  0  0
   -3.2717    3.4103    0.4421 H   0  0  0  0  0  0  0  0  0  0  0  0
   -2.9866    3.3997    2.8840 H   0  0  0  0  0  0  0  0  0  0  0  0
   -2.8213    1.8305    2.8192 H   0  0  0  0  0  0  0  0  0  0  0  0
   -1.7338    2.6902    3.6290 H   0  0  0  0  0  0  0  0  0  0  0  0
   -1.6585    4.8849    1.5576 H   0  0  0  0  0  0  0  0  0  0  0  0
   -0.2936    4.3444    2.3780 H   0  0  0  0  0  0  0  0  0  0  0  0
   -0.3539    4.2998    0.6859 H   0  0  0  0  0  0  0  0  0  0  0  0
    1.2265   -0.6162    2.4699 H   0  0  0  0  0  0  0  0  0  0  0  0
    2.0881    0.0008    1.4348 H   0  0  0  0  0  0  0  0  0  0  0  0
    2.5934    0.0277    2.8714 H   0  0  0  0  0  0  0  0  0  0  0  0
    1.4836    2.9411    2.9092 H   0  0  0  0  0  0  0  0  0  0  0  0
    2.8667    2.4003    2.9179 H   0  0  0  0  0  0  0  0  0  0  0  0
    2.3882    2.5821    1.1136 H   0  0  0  0  0  0  0  0  0  0  0  0
    1.8205    3.3651   -4.2810 H   0  0  0  0  0  0  0  0  0  0  0  0
    1.8130    4.8133   -3.7141 H   0  0  0  0  0  0  0  0  0  0  0  0
    3.9770    4.8179   -3.3445 H   0  0  0  0  0  0  0  0  0  0  0  0
    3.8702    3.7775   -4.5481 H   0  0  0  0  0  0  0  0  0  0  0  0
    4.3647    3.3341   -1.7085 H   0  0  0  0  0  0  0  0  0  0  0  0
    5.0752    2.5283   -3.0823 H   0  0  0  0  0  0  0  0  0  0  0  0
    2.9367    1.4891   -4.5181 H   0  0  0  0  0  0  0  0  0  0  0  0
    4.0553    0.5429   -4.1166 H   0  0  0  0  0  0  0  0  0  0  0  0
    2.4716    0.3366   -3.7876 H   0  0  0  0  0  0  0  0  0  0  0  0
    4.0244    1.2844   -0.6143 H   0  0  0  0  0  0  0  0  0  0  0  0
    4.7666    0.6014   -1.8043 H   0  0  0  0  0  0  0  0  0  0  0  0
    3.4629   -0.0806   -1.3332 H   0  0  0  0  0  0  0  0  0  0  0  0
   -0.4612    3.4234   -1.6466 H   0  0  0  0  0  0  0  0  0  0  0  0
   -0.2706    4.4109   -2.8676 H   0  0  0  0  0  0  0  0  0  0  0  0
   -0.1896    2.9267   -3.1888 H   0  0  0  0  0  0  0  0  0  0  0  0
    1.4851    5.2879   -1.3264 H   0  0  0  0  0  0  0  0  0  0  0  0
    1.5653    4.2774   -0.3309 H   0  0  0  0  0  0  0  0  0  0  0  0
    2.8632    4.5471   -1.0855 H   0  0  0  0  0  0  0  0  0  0  0  0
    1.1703   -0.1436   -1.4367 N   0  0  0  0  0  0  0  0  0  0  0  0
   -1.1273   -1.2525    1.1542 B   0  0  0  0  0  0  0  0  0  0  0  0
    0.3396   -1.4492   -1.2374 P   0  0  0  0  0  0  0  0  0  0  0  0
   -0.3229   -1.7948    0.1296 O   0  0  0  0  0  0  0  0  0  0  0  0
   -1.9519   -2.1315    1.9678 N   0  0  0  0  0  0  0  0  0  0  0  0
    1.5657   -2.8186   -1.5257 C   0  0  0  0  0  0  0  0  0  0  0  0
   -1.0365   -1.3974   -2.4970 C   0  0  0  0  0  0  0  0  0  0  0  0
   -1.5036   -3.5228    2.2997 C   0  0  0  0  0  0  0  0  0  0  0  0
   -3.2792   -1.6913    2.4922 C   0  0  0  0  0  0  0  0  0  0  0  0
    2.5494   -2.7581   -0.3541 C   0  0  0  0  0  0  0  0  0  0  0  0
    2.3585   -2.6591   -2.8260 C   0  0  0  0  0  0  0  0  0  0  0  0
    0.8909   -4.2048   -1.5354 C   0  0  0  0  0  0  0  0  0  0  0  0
   -1.8021   -0.1049   -2.2735 C   0  0  0  0  0  0  0  0  0  0  0  0
   -0.5334   -1.4000   -3.9289 C   0  0  0  0  0  0  0  0  0  0  0  0
   -2.0792   -2.5268   -2.2436 C   0  0  0  0  0  0  0  0  0  0  0  0
   -2.1598   -3.9798    3.6164 C   0  0  0  0  0  0  0  0  0  0  0  0
    0.0038   -3.5535    2.5251 C   0  0  0  0  0  0  0  0  0  0  0  0
   -1.8736   -4.5151    1.1948 C   0  0  0  0  0  0  0  0  0  0  0  0
   -4.2062   -2.9116    2.6779 C   0  0  0  0  0  0  0  0  0  0  0  0
   -3.1438   -0.9355    3.8186 C   0  0  0  0  0  0  0  0  0  0  0  0
   -3.9787   -0.8052    1.4638 C   0  0  0  0  0  0  0  0  0  0  0  0
    2.1863   -2.8970    0.4683 H   0  0  0  0  0  0  0  0  0  0  0  0
    3.0364   -1.9020   -0.3009 H   0  0  0  0  0  0  0  0  0  0  0  0
    3.2717   -3.4103   -0.4421 H   0  0  0  0  0  0  0  0  0  0  0  0
    2.9866   -3.3997   -2.8840 H   0  0  0  0  0  0  0  0  0  0  0  0
    2.8213   -1.8305   -2.8192 H   0  0  0  0  0  0  0  0  0  0  0  0
    1.7338   -2.6902   -3.6290 H   0  0  0  0  0  0  0  0  0  0  0  0
    1.6585   -4.8849   -1.5576 H   0  0  0  0  0  0  0  0  0  0  0  0
    0.2936   -4.3444   -2.3780 H   0  0  0  0  0  0  0  0  0  0  0  0
    0.3539   -4.2998   -0.6859 H   0  0  0  0  0  0  0  0  0  0  0  0
   -1.2265    0.6162   -2.4699 H   0  0  0  0  0  0  0  0  0  0  0  0
   -2.0881   -0.0008   -1.4348 H   0  0  0  0  0  0  0  0  0  0  0  0
   -2.5934   -0.0277   -2.8714 H   0  0  0  0  0  0  0  0  0  0  0  0
   -1.2728   -1.3684   -4.5393 H   0  0  0  0  0  0  0  0  0  0  0  0
   -0.0278   -2.2014   -4.0788 H   0  0  0  0  0  0  0  0  0  0  0  0
    0.0299   -0.6347   -4.0701 H   0  0  0  0  0  0  0  0  0  0  0  0
   -1.4836   -2.9411   -2.9092 H   0  0  0  0  0  0  0  0  0  0  0  0
   -2.8667   -2.4003   -2.9179 H   0  0  0  0  0  0  0  0  0  0  0  0
   -2.3882   -2.5821   -1.1136 H   0  0  0  0  0  0  0  0  0  0  0  0
   -3.6709   -3.9610    3.6299 C   0  0  0  0  0  0  0  0  0  0  0  0
   -1.8205   -3.3651    4.2810 H   0  0  0  0  0  0  0  0  0  0  0  0
   -1.8130   -4.8133    3.7141 H   0  0  0  0  0  0  0  0  0  0  0  0
    0.4612   -3.4234    1.6466 H   0  0  0  0  0  0  0  0  0  0  0  0
    0.2706   -4.4109    2.8676 H   0  0  0  0  0  0  0  0  0  0  0  0
    0.1896   -2.9267    3.1888 H   0  0  0  0  0  0  0  0  0  0  0  0
   -1.4851   -5.2879    1.3264 H   0  0  0  0  0  0  0  0  0  0  0  0
   -1.5653   -4.2774    0.3309 H   0  0  0  0  0  0  0  0  0  0  0  0
   -2.8632   -4.5471    1.0855 H   0  0  0  0  0  0  0  0  0  0  0  0
   -4.3647   -3.3341    1.7085 H   0  0  0  0  0  0  0  0  0  0  0  0
   -5.0752   -2.5283    3.0823 H   0  0  0  0  0  0  0  0  0  0  0  0
   -2.9367   -1.4891    4.5181 H   0  0  0  0  0  0  0  0  0  0  0  0
   -4.0553   -0.5429    4.1166 H   0  0  0  0  0  0  0  0  0  0  0  0
   -2.4716   -0.3366    3.7876 H   0  0  0  0  0  0  0  0  0  0  0  0
   -4.0244   -1.2844    0.6143 H   0  0  0  0  0  0  0  0  0  0  0  0
   -4.7666   -0.6014    1.8043 H   0  0  0  0  0  0  0  0  0  0  0  0
   -3.4629    0.0806    1.3332 H   0  0  0  0  0  0  0  0  0  0  0  0
   -3.9770   -4.8179    3.3445 H   0  0  0  0  0  0  0  0  0  0  0  0
   -3.8702   -3.7775    4.5481 H   0  0  0  0  0  0  0  0  0  0  0  0
  1  3  1  0  0  0  0
  2  3  1  0  0  0  0
  4  2  1  0  0  0  0
  5  1  2  0  0  0  0
  6  1  1  0  0  0  0
  7  6  1  0  0  0  0
  8  6  1  0  0  0  0
  9  6  1  0  0  0  0
 10  1  1  0  0  0  0
 11 10  1  0  0  0  0
 12 10  1  0  0  0  0
 13 10  1  0  0  0  0
 14  4  1  0  0  0  0
 15 14  1  0  0  0  0
 16 15  1  0  0  0  0
 17 16  1  0  0  0  0
 18  4  1  0  0  0  0
 19 18  1  0  0  0  0
 20 18  1  0  0  0  0
 21 14  1  0  0  0  0
 22 14  1  0  0  0  0
 23 12  1  0  0  0  0
 24 12  1  0  0  0  0
 25 12  1  0  0  0  0
 26  7  1  0  0  0  0
 27  7  1  0  0  0  0
 28  7  1  0  0  0  0
 29  8  1  0  0  0  0
 30  8  1  0  0  0  0
 31  8  1  0  0  0  0
 32  9  1  0  0  0  0
 33  9  1  0  0  0  0
 34  9  1  0  0  0  0
 35 11  1  0  0  0  0
 36 11  1  0  0  0  0
 37 11  1  0  0  0  0
 38 13  1  0  0  0  0
 39 13  1  0  0  0  0
 40 13  1  0  0  0  0
 41 15  1  0  0  0  0
 42 15  1  0  0  0  0
 43 16  1  0  0  0  0
 44 16  1  0  0  0  0
 45 17  1  0  0  0  0
 46 17  1  0  0  0  0
 47 19  1  0  0  0  0
 48 19  1  0  0  0  0
 49 19  1  0  0  0  0
 50 20  1  0  0  0  0
 51 20  1  0  0  0  0
 52 20  1  0  0  0  0
 53 21  1  0  0  0  0
 54 21  1  0  0  0  0
 55 21  1  0  0  0  0
 56 22  1  0  0  0  0
 57 22  1  0  0  0  0
 58 22  1  0  0  0  0
 59  2  1  0  0  0  0
 60  5  1  0  0  0  0
 61 59  2  0  0  0  0
 62 60  1  0  0  0  0
 63 60  1  0  0  0  0
 64 61  1  0  0  0  0
 65 61  1  0  0  0  0
 66 63  1  0  0  0  0
 67 63  1  0  0  0  0
 68 64  1  0  0  0  0
 69 64  1  0  0  0  0
 70 64  1  0  0  0  0
 71 65  1  0  0  0  0
 72 65  1  0  0  0  0
 73 65  1  0  0  0  0
 74 66  1  0  0  0  0
 75 66  1  0  0  0  0
 76 66  1  0  0  0  0
 77 67  1  0  0  0  0
 78 67  1  0  0  0  0
 79 67  1  0  0  0  0
 80 68  1  0  0  0  0
 81 68  1  0  0  0  0
 82 68  1  0  0  0  0
 83 69  1  0  0  0  0
 84 69  1  0  0  0  0
 85 69  1  0  0  0  0
 86 70  1  0  0  0  0
 87 70  1  0  0  0  0
 88 70  1  0  0  0  0
 89 71  1  0  0  0  0
 90 71  1  0  0  0  0
 91 71  1  0  0  0  0
 92 72  1  0  0  0  0
 93 72  1  0  0  0  0
 94 72  1  0  0  0  0
 95 73  1  0  0  0  0
 96 73  1  0  0  0  0
 97 73  1  0  0  0  0
 98 74  1  0  0  0  0
 99 74  1  0  0  0  0
100 74  1  0  0  0  0
101 75  1  0  0  0  0
102 75  1  0  0  0  0
103 75  1  0  0  0  0
104 76  1  0  0  0  0
105 76  1  0  0  0  0
106 76  1  0  0  0  0
107 77  1  0  0  0  0
108 77  1  0  0  0  0
109 78  1  0  0  0  0
110 78  1  0  0  0  0
111 78  1  0  0  0  0
112 79  1  0  0  0  0
113 79  1  0  0  0  0
114 79  1  0  0  0  0
115 98  1  0  0  0  0
116 98  1  0  0  0  0
 17 18  1  0  0  0  0
 61 62  1  0  0  0  0
 77 98  1  0  0  0  0
M  END
$$$$
YOBREO

From CSD data. Using bond type 'Any'. No disordered atoms. Largest molecule.
116118  0  0  0  0  0  0  0  0999 V2000
   -0.3396    1.4492    1.2374 P   0  0  0  0  0  0  0  0  0  0  0  0
    1.1273    1.2525   -1.1542 B   0  0  0  0  0  0  0  0  0  0  0  0
    0.3229    1.7948   -0.1296 O   0  0  0  0  0  0  0  0  0  0  0  0
    1.9519    2.1315   -1.9678 N   0  0  0  0  0  0  0  0  0  0  0  0
   -1.1703    0.1436    1.4367 N   0  0  0  0  0  0  0  0  0  0  0  0
   -1.5657    2.8186    1.5257 C   0  0  0  0  0  0  0  0  0  0  0  0
   -2.5494    2.7581    0.3541 C   0  0  0  0  0  0  0  0  0  0  0  0
   -2.3585    2.6591    2.8260 C   0  0  0  0  0  0  0  0  0  0  0  0
   -0.8909    4.2048    1.5354 C   0  0  0  0  0  0  0  0  0  0  0  0
    1.0365    1.3974    2.4970 C   0  0  0  0  0  0  0  0  0  0  0  0
    1.8021    0.1049    2.2735 C   0  0  0  0  0  0  0  0  0  0  0  0
    0.5334    1.4000    3.9289 C   0  0  0  0  0  0  0  0  0  0  0  0
    2.0792    2.5268    2.2436 C   0  0  0  0  0  0  0  0  0  0  0  0
    1.5036    3.5228   -2.2997 C   0  0  0  0  0  0  0  0  0  0  0  0
    2.1598    3.9798   -3.6164 C   0  0  0  0  0  0  0  0  0  0  0  0
    3.6709    3.9610   -3.6299 C   0  0  0  0  0  0  0  0  0  0  0  0
    4.2062    2.9116   -2.6779 C   0  0  0  0  0  0  0  0  0  0  0  0
    3.2792    1.6913   -2.4922 C   0  0  0  0  0  0  0  0  0  0  0  0
    3.1438    0.9355   -3.8186 C   0  0  0  0  0  0  0  0  0  0  0  0
    3.9787    0.8052   -1.4638 C   0  0  0  0  0  0  0  0  0  0  0  0
   -0.0038    3.5535   -2.5251 C   0  0  0  0  0  0  0  0  0  0  0  0
    1.8736    4.5151   -1.1948 C   0  0  0  0  0  0  0  0  0  0  0  0
    1.2728    1.3684    4.5393 H   0  0  0  0  0  0  0  0  0  0  0  0
    0.0278    2.2014    4.0788 H   0  0  0  0  0  0  0  0  0  0  0  0
   -0.0299    0.6347    4.0701 H   0  0  0  0  0  0  0  0  0  0  0  0
   -2.1863    2.8970   -0.4683 H   0  0  0  0  0  0  0  0  0  0  0  0
   -3.0364    1.9020    0.3009 H   0  0  0  0  0  0  0  0  0  0  0  0
   -3.2717    3.4103    0.4421 H   0  0  0  0  0  0  0  0  0  0  0  0
   -2.9866    3.3997    2.8840 H   0  0  0  0  0  0  0  0  0  0  0  0
   -2.8213    1.8305    2.8192 H   0  0  0  0  0  0  0  0  0  0  0  0
   -1.7338    2.6902    3.6290 H   0  0  0  0  0  0  0  0  0  0  0  0
   -1.6585    4.8849    1.5576 H   0  0  0  0  0  0  0  0  0  0  0  0
   -0.2936    4.3444    2.3780 H   0  0  0  0  0  0  0  0  0  0  0  0
   -0.3539    4.2998    0.6859 H   0  0  0  0  0  0  0  0  0  0  0  0
    1.2265   -0.6162    2.4699 H   0  0  0  0  0  0  0  0  0  0  0  0
    2.0881    0.0008    1.4348 H   0  0  0  0  0  0  0  0  0  0  0  0
    2.5934    0.0277    2.8714 H   0  0  0  0  0  0  0  0  0  0  0  0
    1.4836    2.9411    2.9092 H   0  0  0  0  0  0  0  0  0  0  0  0
    2.8667    2.4003    2.9179 H   0  0  0  0  0  0  0  0  0  0  0  0
    2.3882    2.5821    1.1136 H   0  0  0  0  0  0  0  0  0  0  0  0
    1.8205    3.3651   -4.2810 H   0  0  0  0  0  0  0  0  0  0  0  0
    1.8130    4.8133   -3.7141 H   0  0  0  0  0  0  0  0  0  0  0  0
    3.9770    4.8179   -3.3445 H   0  0  0  0  0  0  0  0  0  0  0  0
    3.8702    3.7775   -4.5481 H   0  0  0  0  0  0  0  0  0  0  0  0
    4.3647    3.3341   -1.7085 H   0  0  0  0  0  0  0  0  0  0  0  0
    5.0752    2.5283   -3.0823 H   0  0  0  0  0  0  0  0  0  0  0  0
    2.9367    1.4891   -4.5181 H   0  0  0  0  0  0  0  0  0  0  0  0
    4.0553    0.5429   -4.1166 H   0  0  0  0  0  0  0  0  0  0  0  0
    2.4716    0.3366   -3.7876 H   0  0  0  0  0  0  0  0  0  0  0  0
    4.0244    1.2844   -0.6143 H   0  0  0  0  0  0  0  0  0  0  0  0
    4.7666    0.6014   -1.8043 H   0  0  0  0  0  0  0  0  0  0  0  0
    3.4629   -0.0806   -1.3332 H   0  0  0  0  0  0  0  0  0  0  0  0
   -0.4612    3.4234   -1.6466 H   0  0  0  0  0  0  0  0  0  0  0  0
   -0.2706    4.4109   -2.8676 H   0  0  0  0  0  0  0  0  0  0  0  0
   -0.1896    2.9267   -3.1888 H   0  0  0  0  0  0  0  0  0  0  0  0
    1.4851    5.2879   -1.3264 H   0  0  0  0  0  0  0  0  0  0  0  0
    1.5653    4.2774   -0.3309 H   0  0  0  0  0  0  0  0  0  0  0  0
    2.8632    4.5471   -1.0855 H   0  0  0  0  0  0  0  0  0  0  0  0
    1.1703   -0.1436   -1.4367 N   0  0  0  0  0  0  0  0  0  0  0  0
   -1.1273   -1.2525    1.1542 B   0  0  0  0  0  0  0  0  0  0  0  0
    0.3396   -1.4492   -1.2374 P   0  0  0  0  0  0  0  0  0  0  0  0
   -0.3229   -1.7948    0.1296 O   0  0  0  0  0  0  0  0  0  0  0  0
   -1.9519   -2.1315    1.9678 N   0  0  0  0  0  0  0  0  0  0  0  0
    1.5657   -2.8186   -1.5257 C   0  0  0  0  0  0  0  0  0  0  0  0
   -1.0365   -1.3974   -2.4970 C   0  0  0  0  0  0  0  0  0  0  0  0
   -1.5036   -3.5228    2.2997 C   0  0  0  0  0  0  0  0  0  0  0  0
   -3.2792   -1.6913    2.4922 C   0  0  0  0  0  0  0  0  0  0  0  0
    2.5494   -2.7581   -0.3541 C   0  0  0  0  0  0  0  0  0  0  0  0
    2.3585   -2.6591   -2.8260 C   0  0  0  0  0  0  0  0  0  0  0  0
    0.8909   -4.2048   -1.5354 C   0  0  0  0  0  0  0  0  0  0  0  0
   -1.8021   -0.1049   -2.2735 C   0  0  0  0  0  0  0  0  0  0  0  0
   -0.5334   -1.4000   -3.9289 C   0  0  0  0  0  0  0  0  0  0  0  0
   -2.0792   -2.5268   -2.2436 C   0  0  0  0  0  0  0  0  0  0  0  0
   -2.1598   -3.9798    3.6164 C   0  0  0  0  0  0  0  0  0  0  0  0
    0.0038   -3.5535    2.5251 C   0  0  0  0  0  0  0  0  0  0  0  0
   -1.8736   -4.5151    1.1948 C   0  0  0  0  0  0  0  0  0  0  0  0
   -4.2062   -2.9116    2.6779 C   0  0  0  0  0  0  0  0  0  0  0  0
   -3.1438   -0.9355    3.8186 C   0  0  0  0  0  0  0  0  0  0  0  0
   -3.9787   -0.8052    1.4638 C   0  0  0  0  0  0  0  0  0  0  0  0
    2.1863   -2.8970    0.4683 H   0  0  0  0  0  0  0  0  0  0  0  0
    3.0364   -1.9020   -0.3009 H   0  0  0  0  0  0  0  0  0  0  0  0
    3.2717   -3.4103   -0.4421 H   0  0  0  0  0  0  0  0  0  0  0  0
    2.9866   -3.3997   -2.8840 H   0  0  0  0  0  0  0  0  0  0  0  0
    2.8213   -1.8305   -2.8192 H   0  0  0  0  0  0  0  0  0  0  0  0
    1.7338   -2.6902   -3.6290 H   0  0  0  0  0  0  0  0  0  0  0  0
    1.6585   -4.8849   -1.5576 H   0  0  0  0  0  0  0  0  0  0  0  0
    0.2936   -4.3444   -2.3780 H   0  0  0  0  0  0  0  0  0  0  0  0
    0.3539   -4.2998   -0.6859 H   0  0  0  0  0  0  0  0  0  0  0  0
   -1.2265    0.6162   -2.4699 H   0  0  0  0  0  0  0  0  0  0  0  0
   -2.0881   -0.0008   -1.4348 H   0  0  0  0  0  0  0  0  0  0  0  0
   -2.5934   -0.0277   -2.8714 H   0  0  0  0  0  0  0  0  0  0  0  0
   -1.2728   -1.3684   -4.5393 H   0  0  0  0  0  0  0  0  0  0  0  0
   -0.0278   -2.2014   -4.0788 H   0  0  0  0  0  0  0  0  0  0  0  0
    0.0299   -0.6347   -4.0701 H   0  0  0  0  0  0  0  0  0  0  0  0
   -1.4836   -2.9411   -2.9092 H   0  0  0  0  0  0  0  0  0  0  0  0
   -2.8667   -2.4003   -2.9179 H   0  0  0  0  0  0  0  0  0  0  0  0
   -2.3882   -2.5821   -1.1136 H   0  0  0  0  0  0  0  0  0  0  0  0
   -3.6709   -3.9610    3.6299 C   0  0  0  0  0  0  0  0  0  0  0  0
   -1.8205   -3.3651    4.2810 H   0  0  0  0  0  0  0  0  0  0  0  0
   -1.8130   -4.8133    3.7141 H   0  0  0  0  0  0  0  0  0  0  0  0
    0.4612   -3.4234    1.6466 H   0  0  0  0  0  0  0  0  0  0  0  0
    0.2706   -4.4109    2.8676 H   0  0  0  0  0  0  0  0  0  0  0  0
    0.1896   -2.9267    3.1888 H   0  0  0  0  0  0  0  0  0  0  0  0
   -1.4851   -5.2879    1.3264 H   0  0  0  0  0  0  0  0  0  0  0  0
   -1.5653   -4.2774    0.3309 H   0  0  0  0  0  0  0  0  0  0  0  0
   -2.8632   -4.5471    1.0855 H   0  0  0  0  0  0  0  0  0  0  0  0
   -4.3647   -3.3341    1.7085 H   0  0  0  0  0  0  0  0  0  0  0  0
   -5.0752   -2.5283    3.0823 H   0  0  0  0  0  0  0  0  0  0  0  0
   -2.9367   -1.4891    4.5181 H   0  0  0  0  0  0  0  0  0  0  0  0
   -4.0553   -0.5429    4.1166 H   0  0  0  0  0  0  0  0  0  0  0  0
   -2.4716   -0.3366    3.7876 H   0  0  0  0  0  0  0  0  0  0  0  0
   -4.0244   -1.2844    0.6143 H   0  0  0  0  0  0  0  0  0  0  0  0
   -4.7666   -0.6014    1.8043 H   0  0  0  0  0  0  0  0  0  0  0  0
   -3.4629    0.0806    1.3332 H   0  0  0  0  0  0  0  0  0  0  0  0
   -3.9770   -4.8179    3.3445 H   0  0  0  0  0  0  0  0  0  0  0  0
   -3.8702   -3.7775    4.5481 H   0  0  0  0  0  0  0  0  0  0  0  0
  1  3  1  0  0  0  0
  2  3  1  0  0  0  0
  4  2  1  0  0  0  0
  5  1  2  0  0  0  0
  6  1  1  0  0  0  0
  7  6  1  0  0  0  0
  8  6  1  0  0  0  0
  9  6  1  0  0  0  0
 10  1  1  0  0  0  0
 11 10  1  0  0  0  0
 12 10  1  0  0  0  0
 13 10  1  0  0  0  0
 14  4  1  0  0  0  0
 15 14  1  0  0  0  0
 16 15  1  0  0  0  0
 17 16  1  0  0  0  0
 18  4  1  0  0  0  0
 19 18  1  0  0  0  0
 20 18  1  0  0  0  0
 21 14  1  0  0  0  0
 22 14  1  0  0  0  0
 23 12  1  0  0  0  0
 24 12  1  0  0  0  0
 25 12  1  0  0  0  0
 26  7  1  0  0  0  0
 27  7  1  0  0  0  0
 28  7  1  0  0  0  0
 29  8  1  0  0  0  0
 30  8  1  0  0  0  0
 31  8  1  0  0  0  0
 32  9  1  0  0  0  0
 33  9  1  0  0  0  0
 34  9  1  0  0  0  0
 35 11  1  0  0  0  0
 36 11  1  0  0  0  0
 37 11  1  0  0  0  0
 38 13  1  0  0  0  0
 39 13  1  0  0  0  0
 40 13  1  0  0  0  0
 41 15  1  0  0  0  0
 42 15  1  0  0  0  0
 43 16  1  0  0  0  0
 44 16  1  0  0  0  0
 45 17  1  0  0  0  0
 46 17  1  0  0  0  0
 47 19  1  0  0  0  0
 48 19  1  0  0  0  0
 49 19  1  0  0  0  0
 50 20  1  0  0  0  0
 51 20  1  0  0  0  0
 52 20  1  0  0  0  0
 53 21  1  0  0  0  0
 54 21  1  0  0  0  0
 55 21  1  0  0  0  0
 56 22  1  0  0  0  0
 57 22  1  0  0  0  0
 58 22  1  0  0  0  0
 59  2  1  0  0  0  0
 60  5  1  0  0  0  0
 61 59  2  0  0  0  0
 62 60  1  0  0  0  0
 63 60  1  0  0  0  0
 64 61  1  0  0  0  0
 65 61  1  0  0  0  0
 66 63  1  0  0  0  0
 67 63  1  0  0  0  0
 68 64  1  0  0  0  0
 69 64  1  0  0  0  0
 70 64  1  0  0  0  0
 71 65  1  0  0  0  0
 72 65  1  0  0  0  0
 73 65  1  0  0  0  0
 74 66  1  0  0  0  0
 75 66  1  0  0  0  0
 76 66  1  0  0  0  0
 77 67  1  0  0  0  0
 78 67  1  0  0  0  0
 79 67  1  0  0  0  0
 80 68  1  0  0  0  0
 81 68  1  0  0  0  0
 82 68  1  0  0  0  0
 83 69  1  0  0  0  0
 84 69  1  0  0  0  0
 85 69  1  0  0  0  0
 86 70  1  0  0  0  0
 87 70  1  0  0  0  0
 88 70  1  0  0  0  0
 89 71  1  0  0  0  0
 90 71  1  0  0  0  0
 91 71  1  0  0  0  0
 92 72  1  0  0  0  0
 93 72  1  0  0  0  0
 94 72  1  0  0  0  0
 95 73  1  0  0  0  0
 96 73  1  0  0  0  0
 97 73  1  0  0  0  0
 98 74  1  0  0  0  0
 99 74  1  0  0  0  0
100 74  1  0  0  0  0
101 75  1  0  0  0  0
102 75  1  0  0  0  0
103 75  1  0  0  0  0
104 76  1  0  0  0  0
105 76  1  0  0  0  0
106 76  1  0  0  0  0
107 77  1  0  0  0  0
108 77  1  0  0  0  0
109 78  1  0  0  0  0
110 78  1  0  0  0  0
111 78  1  0  0  0  0
112 79  1  0  0  0  0
113 79  1  0  0  0  0
114 79  1  0  0  0  0
115 98  1  0  0  0  0
116 98  1  0  0  0  0
 17 18  1  0  0  0  0
 61 62  1  0  0  0  0
 77 98  1  0  0  0  0
M  END
$$$$
YOGGIO

From CSD data. Using bond type 'Any'. No disordered atoms. Largest molecule.
105112  0  0  0  0  0  0  0  0999 V2000
   14.4601   10.7984   10.5925 Nd  0  0  0  0  0  0  0  0  0  0  0  0
   12.9017    7.4853   10.6287 P   0  0  0  0  0  0  0  0  0  0  0  0
   13.5280   11.9260    6.2425 P   0  0  0  0  0  0  0  0  0  0  0  0
   16.2969   10.6815   14.8443 P   0  0  0  0  0  0  0  0  0  0  0  0
   12.8801   12.2389   11.8111 O   0  0  0  0  0  0  0  0  0  0  0  0
   15.3223   13.1641   10.4910 O   0  0  0  0  0  0  0  0  0  0  0  0
   16.7953   10.5850    9.7714 O   0  0  0  0  0  0  0  0  0  0  0  0
   11.8993    6.6073    9.4208 C   0  0  0  0  0  0  0  0  0  0  0  0
   12.3920    5.8011    9.1266 H   0  0  0  0  0  0  0  0  0  0  0  0
   11.0659    6.3053    9.8615 H   0  0  0  0  0  0  0  0  0  0  0  0
   11.5489    7.3912    8.2512 C   0  0  0  0  0  0  0  0  0  0  0  0
   11.0277    6.8380    7.6315 H   0  0  0  0  0  0  0  0  0  0  0  0
   12.3660    7.6979    7.8057 H   0  0  0  0  0  0  0  0  0  0  0  0
   11.0149    8.1662    8.5241 H   0  0  0  0  0  0  0  0  0  0  0  0
   13.0336    6.3087   12.0652 C   0  0  0  0  0  0  0  0  0  0  0  0
   12.1222    6.0929   12.3857 H   0  0  0  0  0  0  0  0  0  0  0  0
   13.4504    5.4677   11.7526 H   0  0  0  0  0  0  0  0  0  0  0  0
   13.8291    6.8441   13.2064 C   0  0  0  0  0  0  0  0  0  0  0  0
   14.7669    6.9354   12.9365 H   0  0  0  0  0  0  0  0  0  0  0  0
   13.7661    6.2286   13.9660 H   0  0  0  0  0  0  0  0  0  0  0  0
   13.4778    7.7215   13.4668 H   0  0  0  0  0  0  0  0  0  0  0  0
   11.7937   11.8709    5.7388 C   0  0  0  0  0  0  0  0  0  0  0  0
   11.3284   12.6459    6.1424 H   0  0  0  0  0  0  0  0  0  0  0  0
   11.7525   11.9811    4.7555 H   0  0  0  0  0  0  0  0  0  0  0  0
   11.0292   10.6162    6.1064 C   0  0  0  0  0  0  0  0  0  0  0  0
   11.4703    9.8364    5.7089 H   0  0  0  0  0  0  0  0  0  0  0  0
   10.1120   10.6805    5.7666 H   0  0  0  0  0  0  0  0  0  0  0  0
   11.0101   10.5189    7.0813 H   0  0  0  0  0  0  0  0  0  0  0  0
   14.3290   10.5374    5.3711 C   0  0  0  0  0  0  0  0  0  0  0  0
   15.2797   10.4967    5.6441 H   0  0  0  0  0  0  0  0  0  0  0  0
   13.8987    9.6926    5.6572 H   0  0  0  0  0  0  0  0  0  0  0  0
   14.2595   10.6308    3.8609 C   0  0  0  0  0  0  0  0  0  0  0  0
   14.7866    9.9065    3.4644 H   0  0  0  0  0  0  0  0  0  0  0  0
   14.6209   11.4947    3.5710 H   0  0  0  0  0  0  0  0  0  0  0  0
   13.3267   10.5534    3.5716 H   0  0  0  0  0  0  0  0  0  0  0  0
   16.1148    9.0460   15.6507 C   0  0  0  0  0  0  0  0  0  0  0  0
   15.1629    8.7767   15.6156 H   0  0  0  0  0  0  0  0  0  0  0  0
   16.6356    8.3779   15.1386 H   0  0  0  0  0  0  0  0  0  0  0  0
   16.5747    9.0225   17.0914 C   0  0  0  0  0  0  0  0  0  0  0  0
   17.5438    9.1639   17.1268 H   0  0  0  0  0  0  0  0  0  0  0  0
   16.3570    8.1532   17.4889 H   0  0  0  0  0  0  0  0  0  0  0  0
   16.1218    9.7329   17.5905 H   0  0  0  0  0  0  0  0  0  0  0  0
   18.1104   10.9254   14.7508 C   0  0  0  0  0  0  0  0  0  0  0  0
   18.5087   10.7461   15.6389 H   0  0  0  0  0  0  0  0  0  0  0  0
   18.4928   10.2755   14.1092 H   0  0  0  0  0  0  0  0  0  0  0  0
   18.4736   12.3059   14.3221 C   0  0  0  0  0  0  0  0  0  0  0  0
   18.0310   12.5121   13.4723 H   0  0  0  0  0  0  0  0  0  0  0  0
   19.4454   12.3677   14.2069 H   0  0  0  0  0  0  0  0  0  0  0  0
   18.1849   12.9472   15.0047 H   0  0  0  0  0  0  0  0  0  0  0  0
   11.7621   12.8964   11.1553 C   0  0  0  0  0  0  0  0  0  0  0  0
   10.7773   13.0616   12.2511 C   0  0  0  0  0  0  0  0  0  0  0  0
   10.2193   12.2440   12.3436 H   0  0  0  0  0  0  0  0  0  0  0  0
   10.1833   13.8318   12.0786 H   0  0  0  0  0  0  0  0  0  0  0  0
   11.6072   13.2848   13.4988 C   0  0  0  0  0  0  0  0  0  0  0  0
   12.6755   12.2850   13.2547 C   0  0  0  0  0  0  0  0  0  0  0  0
   13.5106   12.5529   13.7133 H   0  0  0  0  0  0  0  0  0  0  0  0
   12.4001   11.3961   13.5926 H   0  0  0  0  0  0  0  0  0  0  0  0
   15.7480   13.8949    9.3016 C   0  0  0  0  0  0  0  0  0  0  0  0
   15.0036   13.9572    8.6530 H   0  0  0  0  0  0  0  0  0  0  0  0
   16.5067   13.4303    8.8673 H   0  0  0  0  0  0  0  0  0  0  0  0
   16.1624   15.2559    9.7430 C   0  0  0  0  0  0  0  0  0  0  0  0
   15.4525   15.9185    9.5513 H   0  0  0  0  0  0  0  0  0  0  0  0
   16.9940   15.5359    9.2847 H   0  0  0  0  0  0  0  0  0  0  0  0
   16.3881   15.1275   11.2320 C   0  0  0  0  0  0  0  0  0  0  0  0
   17.3006   14.8014   11.4345 H   0  0  0  0  0  0  0  0  0  0  0  0
   16.2357   15.9873   11.6981 H   0  0  0  0  0  0  0  0  0  0  0  0
   15.3558   14.1206   11.5911 C   0  0  0  0  0  0  0  0  0  0  0  0
   15.5947   13.6667   12.4386 H   0  0  0  0  0  0  0  0  0  0  0  0
   14.4726   14.5536   11.7021 H   0  0  0  0  0  0  0  0  0  0  0  0
   18.0140   11.0979   10.3775 C   0  0  0  0  0  0  0  0  0  0  0  0
   18.1355   10.7109   11.2810 H   0  0  0  0  0  0  0  0  0  0  0  0
   17.9652   12.0831   10.4622 H   0  0  0  0  0  0  0  0  0  0  0  0
   19.1455   10.7132    9.4974 C   0  0  0  0  0  0  0  0  0  0  0  0
   19.6215    9.9225    9.8565 H   0  0  0  0  0  0  0  0  0  0  0  0
   19.7886   11.4589    9.3991 H   0  0  0  0  0  0  0  0  0  0  0  0
   18.4870   10.3923    8.1802 C   0  0  0  0  0  0  0  0  0  0  0  0
   18.3722   11.2079    7.6310 H   0  0  0  0  0  0  0  0  0  0  0  0
   19.0151    9.7295    7.6689 H   0  0  0  0  0  0  0  0  0  0  0  0
   17.1875    9.8375    8.5805 C   0  0  0  0  0  0  0  0  0  0  0  0
   16.5201    9.9562    7.8581 H   0  0  0  0  0  0  0  0  0  0  0  0
   17.2676    8.8721    8.7838 H   0  0  0  0  0  0  0  0  0  0  0  0
   12.0822    9.1269   11.1781 B   0  0  0  0  0  0  0  0  0  0  0  0
   12.7163    9.6095   12.0752 H   0  0  0  0  0  0  0  0  0  0  0  0
   10.9627    8.9091   11.5515 H   0  0  0  0  0  0  0  0  0  0  0  0
   12.0540    9.8895   10.2523 H   0  0  0  0  0  0  0  0  0  0  0  0
   14.6594    7.9383    9.9630 B   0  0  0  0  0  0  0  0  0  0  0  0
   15.3080    8.4274   10.8468 H   0  0  0  0  0  0  0  0  0  0  0  0
   14.5558    8.7246    9.0618 H   0  0  0  0  0  0  0  0  0  0  0  0
   15.2061    6.9465    9.5674 H   0  0  0  0  0  0  0  0  0  0  0  0
   13.6818   11.4932    8.1036 B   0  0  0  0  0  0  0  0  0  0  0  0
   14.8415   11.4389    8.4067 H   0  0  0  0  0  0  0  0  0  0  0  0
   13.1633   10.4316    8.3109 H   0  0  0  0  0  0  0  0  0  0  0  0
   13.1367   12.3397    8.7565 H   0  0  0  0  0  0  0  0  0  0  0  0
   14.3193   13.6003    5.7132 B   0  0  0  0  0  0  0  0  0  0  0  0
   14.3587   13.6635    4.5150 H   0  0  0  0  0  0  0  0  0  0  0  0
   15.4331   13.6745    6.1537 H   0  0  0  0  0  0  0  0  0  0  0  0
   13.6595   14.5077    6.1394 H   0  0  0  0  0  0  0  0  0  0  0  0
   15.6802   10.4847   13.0418 B   0  0  0  0  0  0  0  0  0  0  0  0
   16.1169   11.3785   12.3696 H   0  0  0  0  0  0  0  0  0  0  0  0
   14.4809   10.5196   13.0223 H   0  0  0  0  0  0  0  0  0  0  0  0
   16.0570    9.4336   12.6020 H   0  0  0  0  0  0  0  0  0  0  0  0
   15.4406   12.0659   15.8821 B   0  0  0  0  0  0  0  0  0  0  0  0
   14.3140   11.7397   16.1333 H   0  0  0  0  0  0  0  0  0  0  0  0
   15.4306   13.0886   15.2537 H   0  0  0  0  0  0  0  0  0  0  0  0
   16.0469   12.2319   16.9048 H   0  0  0  0  0  0  0  0  0  0  0  0
  1  5  1  0  0  0  0
  2  8  1  0  0  0  0
  3 22  1  0  0  0  0
  4 36  1  0  0  0  0
  5 50  1  0  0  0  0
  6  1  1  0  0  0  0
  7  1  1  0  0  0  0
  8  9  1  0  0  0  0
 10  8  1  0  0  0  0
 11  8  1  0  0  0  0
 12 11  1  0  0  0  0
 13 11  1  0  0  0  0
 14 11  1  0  0  0  0
 15  2  1  0  0  0  0
 16 15  1  0  0  0  0
 17 15  1  0  0  0  0
 18 15  1  0  0  0  0
 19 18  1  0  0  0  0
 20 18  1  0  0  0  0
 21 18  1  0  0  0  0
 22 23  1  0  0  0  0
 24 22  1  0  0  0  0
 25 22  1  0  0  0  0
 26 25  1  0  0  0  0
 27 25  1  0  0  0  0
 28 25  1  0  0  0  0
 29  3  1  0  0  0  0
 30 29  1  0  0  0  0
 31 29  1  0  0  0  0
 32 29  1  0  0  0  0
 33 32  1  0  0  0  0
 34 32  1  0  0  0  0
 35 32  1  0  0  0  0
 36 37  1  0  0  0  0
 38 36  1  0  0  0  0
 39 36  1  0  0  0  0
 40 39  1  0  0  0  0
 41 39  1  0  0  0  0
 42 39  1  0  0  0  0
 43  4  1  0  0  0  0
 44 43  1  0  0  0  0
 45 43  1  0  0  0  0
 46 43  1  0  0  0  0
 47 46  1  0  0  0  0
 48 46  1  0  0  0  0
 49 46  1  0  0  0  0
 50 51  1  0  0  0  0
 51 52  1  0  0  0  0
 53 51  1  0  0  0  0
 54 51  1  0  0  0  0
 55  5  1  0  0  0  0
 56 55  1  0  0  0  0
 57 55  1  0  0  0  0
 58  6  1  0  0  0  0
 59 58  1  0  0  0  0
 60 58  1  0  0  0  0
 61 58  1  0  0  0  0
 62 61  1  0  0  0  0
 63 61  1  0  0  0  0
 64 61  1  0  0  0  0
 65 64  1  0  0  0  0
 66 64  1  0  0  0  0
 67  6  1  0  0  0  0
 68 67  1  0  0  0  0
 69 67  1  0  0  0  0
 70  7  1  0  0  0  0
 71 70  1  0  0  0  0
 72 70  1  0  0  0  0
 73 70  1  0  0  0  0
 74 73  1  0  0  0  0
 75 73  1  0  0  0  0
 76 73  1  0  0  0  0
 77 76  1  0  0  0  0
 78 76  1  0  0  0  0
 79  7  1  0  0  0  0
 80 79  1  0  0  0  0
 81 79  1  0  0  0  0
 82  2  1  0  0  0  0
 83  1  1  0  0  0  0
 84 82  1  0  0  0  0
 85  1  1  0  0  0  0
 86  2  1  0  0  0  0
 87  1  1  0  0  0  0
 88  1  1  0  0  0  0
 89 86  1  0  0  0  0
 90  3  1  0  0  0  0
 91  1  1  0  0  0  0
 92  1  1  0  0  0  0
 93 90  1  0  0  0  0
 94  3  1  0  0  0  0
 95 94  1  0  0  0  0
 96 94  1  0  0  0  0
 97 94  1  0  0  0  0
 98  4  1  0  0  0  0
 99  1  1  0  0  0  0
100  1  1  0  0  0  0
101 98  1  0  0  0  0
102  4  1  0  0  0  0
103102  1  0  0  0  0
104102  1  0  0  0  0
105102  1  0  0  0  0
 54 55  1  0  0  0  0
 64 67  1  0  0  0  0
 76 79  1  0  0  0  0
 82 83  1  0  0  0  0
 82 85  1  0  0  0  0
 86 87  1  0  0  0  0
 86 88  1  0  0  0  0
 90 91  1  0  0  0  0
 90 92  1  0  0  0  0
 98 99  1  0  0  0  0
 98100  1  0  0  0  0
M  END
$$$$
YONYOT

From CSD data. Using bond type 'Any'. No disordered atoms. Largest molecule.
 74 96  0  0  0  0  0  0  0  0999 V2000
    8.7323    3.0062    3.3911 P   0  0  0  0  0  0  0  0  0  0  0  0
    8.0586    2.8080    1.9216 O   0  0  0  0  0  0  0  0  0  0  0  0
    6.0533    0.2914    0.2808 N   0  0  0  0  0  0  0  0  0  0  0  0
    8.0964    4.7272    3.8286 C   0  0  0  0  0  0  0  0  0  0  0  0
   10.4071    3.4781    2.8866 C   0  0  0  0  0  0  0  0  0  0  0  0
   10.7255    3.8583    1.5882 C   0  0  0  0  0  0  0  0  0  0  0  0
   12.0173    4.2627    1.2742 C   0  0  0  0  0  0  0  0  0  0  0  0
   12.9919    4.2892    2.2530 C   0  0  0  0  0  0  0  0  0  0  0  0
   12.6901    3.8889    3.5475 C   0  0  0  0  0  0  0  0  0  0  0  0
   11.4057    3.4664    3.8650 C   0  0  0  0  0  0  0  0  0  0  0  0
    6.9554    1.8923    1.7751 C   0  0  0  0  0  0  0  0  0  0  0  0
    7.1242    1.0498    0.5445 C   0  0  0  0  0  0  0  0  0  0  0  0
    8.2708    1.0352   -0.2286 C   0  0  0  0  0  0  0  0  0  0  0  0
    8.3104    0.1900   -1.3261 C   0  0  0  0  0  0  0  0  0  0  0  0
    7.2274   -0.6170   -1.5964 C   0  0  0  0  0  0  0  0  0  0  0  0
    6.1322   -0.5354   -0.7680 C   0  0  0  0  0  0  0  0  0  0  0  0
    7.9899    6.0523    2.7631 B   0  0  0  0  0  0  0  0  0  0  0  0
    9.1155    6.0637    4.1370 B   0  0  0  0  0  0  0  0  0  0  0  0
    8.1263    7.4850    3.8092 B   0  0  0  0  0  0  0  0  0  0  0  0
    6.5249    6.9272    3.2513 B   0  0  0  0  0  0  0  0  0  0  0  0
    6.5321    5.1603    3.2702 B   0  0  0  0  0  0  0  0  0  0  0  0
    8.3254    5.9363    1.7526 H   0  0  0  0  0  0  0  0  0  0  0  0
   10.1195    5.9442    3.9927 H   0  0  0  0  0  0  0  0  0  0  0  0
    8.5848    8.4220    3.4248 H   0  0  0  0  0  0  0  0  0  0  0  0
    5.9288    7.4661    2.5249 H   0  0  0  0  0  0  0  0  0  0  0  0
    5.9984    4.4619    2.6280 H   0  0  0  0  0  0  0  0  0  0  0  0
   10.0391    3.8369    0.8929 H   0  0  0  0  0  0  0  0  0  0  0  0
   12.2157    4.5402    0.3809 H   0  0  0  0  0  0  0  0  0  0  0  0
   13.8848    4.5825    2.0094 H   0  0  0  0  0  0  0  0  0  0  0  0
   13.3206    3.8651    4.2723 H   0  0  0  0  0  0  0  0  0  0  0  0
   11.2375    3.1723    4.7423 H   0  0  0  0  0  0  0  0  0  0  0  0
    6.1182    2.4145    1.6635 H   0  0  0  0  0  0  0  0  0  0  0  0
    6.9186    1.3212    2.6001 H   0  0  0  0  0  0  0  0  0  0  0  0
    9.0477    1.5606    0.0332 H   0  0  0  0  0  0  0  0  0  0  0  0
    9.0763    0.1760   -1.8871 H   0  0  0  0  0  0  0  0  0  0  0  0
    7.2172   -1.2270   -2.3711 H   0  0  0  0  0  0  0  0  0  0  0  0
    5.3405   -1.0563   -0.9226 H   0  0  0  0  0  0  0  0  0  0  0  0
    6.1514    3.0062    5.3457 P   0  0  0  0  0  0  0  0  0  0  0  0
    6.8250    2.8080    6.8152 O   0  0  0  0  0  0  0  0  0  0  0  0
    8.8304    0.2914    8.4559 N   0  0  0  0  0  0  0  0  0  0  0  0
    6.7873    4.7272    4.9081 C   0  0  0  0  0  0  0  0  0  0  0  0
    4.4766    3.4781    5.8501 C   0  0  0  0  0  0  0  0  0  0  0  0
    4.1582    3.8583    7.1486 C   0  0  0  0  0  0  0  0  0  0  0  0
    2.8664    4.2627    7.4626 C   0  0  0  0  0  0  0  0  0  0  0  0
    1.8918    4.2892    6.4837 C   0  0  0  0  0  0  0  0  0  0  0  0
    2.1936    3.8889    5.1893 C   0  0  0  0  0  0  0  0  0  0  0  0
    3.4780    3.4664    4.8718 C   0  0  0  0  0  0  0  0  0  0  0  0
    7.9283    1.8923    6.9616 C   0  0  0  0  0  0  0  0  0  0  0  0
    7.7595    1.0498    8.1923 C   0  0  0  0  0  0  0  0  0  0  0  0
    6.6129    1.0352    8.9653 C   0  0  0  0  0  0  0  0  0  0  0  0
    6.5732    0.1900   10.0628 C   0  0  0  0  0  0  0  0  0  0  0  0
    7.6563   -0.6170   10.3331 C   0  0  0  0  0  0  0  0  0  0  0  0
    8.7515   -0.5354    9.5047 C   0  0  0  0  0  0  0  0  0  0  0  0
    6.8938    6.0523    5.9737 B   0  0  0  0  0  0  0  0  0  0  0  0
    5.7682    6.0637    4.5997 B   0  0  0  0  0  0  0  0  0  0  0  0
    6.7573    7.4850    4.9275 B   0  0  0  0  0  0  0  0  0  0  0  0
    8.3588    6.9272    5.4854 B   0  0  0  0  0  0  0  0  0  0  0  0
    8.3516    5.1603    5.4666 B   0  0  0  0  0  0  0  0  0  0  0  0
    6.5583    5.9363    6.9841 H   0  0  0  0  0  0  0  0  0  0  0  0
    4.7642    5.9442    4.7440 H   0  0  0  0  0  0  0  0  0  0  0  0
    6.2989    8.4220    5.3119 H   0  0  0  0  0  0  0  0  0  0  0  0
    8.9549    7.4661    6.2118 H   0  0  0  0  0  0  0  0  0  0  0  0
    8.8853    4.4619    6.1087 H   0  0  0  0  0  0  0  0  0  0  0  0
    4.8446    3.8369    7.8438 H   0  0  0  0  0  0  0  0  0  0  0  0
    2.6680    4.5402    8.3558 H   0  0  0  0  0  0  0  0  0  0  0  0
    0.9989    4.5825    6.7273 H   0  0  0  0  0  0  0  0  0  0  0  0
    1.5631    3.8651    4.4645 H   0  0  0  0  0  0  0  0  0  0  0  0
    3.6461    3.1723    3.9944 H   0  0  0  0  0  0  0  0  0  0  0  0
    8.7655    2.4145    7.0733 H   0  0  0  0  0  0  0  0  0  0  0  0
    7.9651    1.3212    6.1367 H   0  0  0  0  0  0  0  0  0  0  0  0
    5.8360    1.5606    8.7035 H   0  0  0  0  0  0  0  0  0  0  0  0
    5.8074    0.1760   10.6239 H   0  0  0  0  0  0  0  0  0  0  0  0
    7.6665   -1.2270   11.1079 H   0  0  0  0  0  0  0  0  0  0  0  0
    9.5432   -1.0563    9.6593 H   0  0  0  0  0  0  0  0  0  0  0  0
  1  2  1  0  0  0  0
  2 11  1  0  0  0  0
  3 12  4  0  0  0  0
  4  1  1  0  0  0  0
  5  1  1  0  0  0  0
  6  5  4  0  0  0  0
  7  6  4  0  0  0  0
  8  7  4  0  0  0  0
  9  8  4  0  0  0  0
 10  5  4  0  0  0  0
 11 12  1  0  0  0  0
 12 13  4  0  0  0  0
 13 14  4  0  0  0  0
 14 15  4  0  0  0  0
 15 16  4  0  0  0  0
 16  3  4  0  0  0  0
 17  4  1  0  0  0  0
 18  4  1  0  0  0  0
 19 17  1  0  0  0  0
 20 17  1  0  0  0  0
 21  4  1  0  0  0  0
 22 17  1  0  0  0  0
 23 18  1  0  0  0  0
 24 19  1  0  0  0  0
 25 20  1  0  0  0  0
 26 21  1  0  0  0  0
 27  6  1  0  0  0  0
 28  7  1  0  0  0  0
 29  8  1  0  0  0  0
 30  9  1  0  0  0  0
 31 10  1  0  0  0  0
 32 11  1  0  0  0  0
 33 11  1  0  0  0  0
 34 13  1  0  0  0  0
 35 14  1  0  0  0  0
 36 15  1  0  0  0  0
 37 16  1  0  0  0  0
 38 39  1  0  0  0  0
 39 48  1  0  0  0  0
 40 49  4  0  0  0  0
 41  4  1  0  0  0  0
 42 38  1  0  0  0  0
 43 42  4  0  0  0  0
 44 43  4  0  0  0  0
 45 44  4  0  0  0  0
 46 45  4  0  0  0  0
 47 42  4  0  0  0  0
 48 49  1  0  0  0  0
 49 50  4  0  0  0  0
 50 51  4  0  0  0  0
 51 52  4  0  0  0  0
 52 53  4  0  0  0  0
 53 40  4  0  0  0  0
 54 41  1  0  0  0  0
 55 20  1  0  0  0  0
 56 19  1  0  0  0  0
 57 18  1  0  0  0  0
 58  4  1  0  0  0  0
 59 54  1  0  0  0  0
 60 55  1  0  0  0  0
 61 56  1  0  0  0  0
 62 57  1  0  0  0  0
 63 58  1  0  0  0  0
 64 43  1  0  0  0  0
 65 44  1  0  0  0  0
 66 45  1  0  0  0  0
 67 46  1  0  0  0  0
 68 47  1  0  0  0  0
 69 48  1  0  0  0  0
 70 48  1  0  0  0  0
 71 50  1  0  0  0  0
 72 51  1  0  0  0  0
 73 52  1  0  0  0  0
 74 53  1  0  0  0  0
  9 10  4  0  0  0  0
 17 18  1  0  0  0  0
 17 21  1  0  0  0  0
 18 19  1  0  0  0  0
 18 58  1  0  0  0  0
 19 20  1  0  0  0  0
 19 57  1  0  0  0  0
 20 21  1  0  0  0  0
 20 56  1  0  0  0  0
 21 41  1  0  0  0  0
 21 55  1  0  0  0  0
 38 41  1  0  0  0  0
 41 55  1  0  0  0  0
 41 58  1  0  0  0  0
 46 47  4  0  0  0  0
 54 55  1  0  0  0  0
 54 56  1  0  0  0  0
 54 57  1  0  0  0  0
 54 58  1  0  0  0  0
 55 56  1  0  0  0  0
 56 57  1  0  0  0  0
 57 58  1  0  0  0  0
M  END
$$$$
YORLEY

From CSD data. Using bond type 'Any'. No disordered atoms. Largest molecule.
246297  0  0  0  0  0  0  0  0999 V2000
  -13.2007   37.6406    3.2198 Au  0  0  0  0  0  0  0  0  0  0  0  0
  -13.3809   38.7204    6.0099 Au  0  0  0  0  0  0  0  0  0  0  0  0
  -14.7510   36.1485    5.2598 Au  0  0  0  0  0  0  0  0  0  0  0  0
  -15.6154   38.7075    4.3056 Ag  0  3  0  0  0  0  0  0  0  0  0  0
  -13.8019   38.4056    1.1792 P   0  0  0  0  0  0  0  0  0  0  0  0
  -12.7753   36.8851    5.1308 C   0  0  0  0  0  0  0  0  0  0  0  0
  -14.0968   40.7100    6.8379 P   0  0  0  0  0  0  0  0  0  0  0  0
  -16.9179   35.5068    5.4017 P   0  0  0  0  0  0  0  0  0  0  0  0
  -15.2287   40.2404    2.5184 N   0  0  0  0  0  0  0  0  0  0  0  0
  -16.5806   39.9349    6.1036 N   0  0  0  0  0  0  0  0  0  0  0  0
  -17.3626   37.3322    3.5129 N   0  0  0  0  0  0  0  0  0  0  0  0
  -15.0345   37.3278    0.4387 C   0  0  0  0  0  0  0  0  0  0  0  0
  -12.3511   38.6026    0.1278 C   0  0  0  0  0  0  0  0  0  0  0  0
  -14.6358   40.0633    1.3362 C   0  0  0  0  0  0  0  0  0  0  0  0
  -13.6749   42.0906    5.7296 C   0  0  0  0  0  0  0  0  0  0  0  0
  -13.3682   40.9751    8.4620 C   0  0  0  0  0  0  0  0  0  0  0  0
  -15.9443   40.7450    7.0026 C   0  0  0  0  0  0  0  0  0  0  0  0
  -17.6999   36.2168    6.8595 C   0  0  0  0  0  0  0  0  0  0  0  0
  -17.0227   33.6893    5.4186 C   0  0  0  0  0  0  0  0  0  0  0  0
  -17.8686   36.1636    3.9793 C   0  0  0  0  0  0  0  0  0  0  0  0
  -15.8063   41.4089    2.7278 C   0  0  0  0  0  0  0  0  0  0  0  0
  -17.8788   39.8021    6.1390 C   0  0  0  0  0  0  0  0  0  0  0  0
  -17.9044   37.8634    2.4553 C   0  0  0  0  0  0  0  0  0  0  0  0
  -15.9928   37.7748   -0.4495 C   0  0  0  0  0  0  0  0  0  0  0  0
  -15.0447   35.9822    0.7774 C   0  0  0  0  0  0  0  0  0  0  0  0
  -12.1186   37.7748   -0.9082 C   0  0  0  0  0  0  0  0  0  0  0  0
  -11.4592   39.6162    0.4310 C   0  0  0  0  0  0  0  0  0  0  0  0
  -14.6511   41.0460    0.3340 C   0  0  0  0  0  0  0  0  0  0  0  0
  -12.5811   41.9578    4.9060 C   0  0  0  0  0  0  0  0  0  0  0  0
  -14.4697   43.2193    5.5972 C   0  0  0  0  0  0  0  0  0  0  0  0
  -12.3869   41.9135    8.6883 C   0  0  0  0  0  0  0  0  0  0  0  0
  -13.7184   40.1385    9.4934 C   0  0  0  0  0  0  0  0  0  0  0  0
  -16.6905   41.4620    7.9247 C   0  0  0  0  0  0  0  0  0  0  0  0
  -16.8771   36.4735    7.9909 C   0  0  0  0  0  0  0  0  0  0  0  0
  -19.0237   36.5886    6.9211 C   0  0  0  0  0  0  0  0  0  0  0  0
  -17.2144   33.0740    6.6963 C   0  0  0  0  0  0  0  0  0  0  0  0
  -16.7620   32.9988    4.2487 C   0  0  0  0  0  0  0  0  0  0  0  0
  -18.9777   35.5705    3.3405 C   0  0  0  0  0  0  0  0  0  0  0  0
  -16.2790   41.5638    3.5406 H   0  0  0  0  0  0  0  0  0  0  0  0
  -15.7398   42.4004    1.7934 C   0  0  0  0  0  0  0  0  0  0  0  0
  -18.3210   39.2754    5.4848 H   0  0  0  0  0  0  0  0  0  0  0  0
  -18.5944   40.4218    7.1196 C   0  0  0  0  0  0  0  0  0  0  0  0
  -17.5824   38.6955    2.1290 H   0  0  0  0  0  0  0  0  0  0  0  0
  -18.9522   37.2260    1.7995 C   0  0  0  0  0  0  0  0  0  0  0  0
  -15.9749   38.6823   -0.7312 H   0  0  0  0  0  0  0  0  0  0  0  0
  -16.9716   36.9383   -0.9359 C   0  0  0  0  0  0  0  0  0  0  0  0
  -16.0414   35.1234    0.2940 C   0  0  0  0  0  0  0  0  0  0  0  0
  -14.3700   35.6369    1.3470 H   0  0  0  0  0  0  0  0  0  0  0  0
  -12.7498   37.0976   -1.1207 H   0  0  0  0  0  0  0  0  0  0  0  0
  -10.9430   37.9076   -1.6795 C   0  0  0  0  0  0  0  0  0  0  0  0
  -10.3220   39.8154   -0.3387 C   0  0  0  0  0  0  0  0  0  0  0  0
  -11.6253   40.1784    1.1776 H   0  0  0  0  0  0  0  0  0  0  0  0
  -14.1349   40.9043   -1.0268 C   0  0  0  0  0  0  0  0  0  0  0  0
  -15.2287   42.2234    0.6158 N   0  0  0  0  0  0  0  0  0  0  0  0
  -12.0649   41.1699    4.9645 H   0  0  0  0  0  0  0  0  0  0  0  0
  -12.2233   42.9050    4.0178 C   0  0  0  0  0  0  0  0  0  0  0  0
  -14.1349   44.1533    4.6828 C   0  0  0  0  0  0  0  0  0  0  0  0
  -15.2364   43.3344    6.1437 H   0  0  0  0  0  0  0  0  0  0  0  0
  -12.1620   42.5244    7.9971 H   0  0  0  0  0  0  0  0  0  0  0  0
  -11.7301   41.9888    9.9028 C   0  0  0  0  0  0  0  0  0  0  0  0
  -13.1536   40.2315   10.6925 C   0  0  0  0  0  0  0  0  0  0  0  0
  -14.3854   39.4790    9.3471 H   0  0  0  0  0  0  0  0  0  0  0  0
  -16.1155   42.4580    8.8745 C   0  0  0  0  0  0  0  0  0  0  0  0
  -18.0194   41.2496    7.9863 N   0  0  0  0  0  0  0  0  0  0  0  0
  -15.9519   36.2433    7.9678 H   0  0  0  0  0  0  0  0  0  0  0  0
  -17.4035   37.0489    9.1101 C   0  0  0  0  0  0  0  0  0  0  0  0
  -19.5425   37.2038    8.0571 C   0  0  0  0  0  0  0  0  0  0  0  0
  -19.5911   36.4204    6.1775 H   0  0  0  0  0  0  0  0  0  0  0  0
  -17.4009   33.5653    7.4845 H   0  0  0  0  0  0  0  0  0  0  0  0
  -17.0917   31.6753    6.6809 C   0  0  0  0  0  0  0  0  0  0  0  0
  -16.7263   31.5735    4.2641 C   0  0  0  0  0  0  0  0  0  0  0  0
  -16.6062   33.4724    3.4328 H   0  0  0  0  0  0  0  0  0  0  0  0
  -19.7112   34.3710    3.8638 C   0  0  0  0  0  0  0  0  0  0  0  0
  -19.4377   36.1282    2.2213 N   0  0  0  0  0  0  0  0  0  0  0  0
  -16.0848   43.2547    2.0135 H   0  0  0  0  0  0  0  0  0  0  0  0
  -19.5272   40.2581    7.1843 H   0  0  0  0  0  0  0  0  0  0  0  0
  -19.3125   37.6199    1.0145 H   0  0  0  0  0  0  0  0  0  0  0  0
  -17.6258   37.2835   -1.5363 H   0  0  0  0  0  0  0  0  0  0  0  0
  -17.0253   35.6325   -0.5696 C   0  0  0  0  0  0  0  0  0  0  0  0
  -16.0542   34.2072    0.5465 H   0  0  0  0  0  0  0  0  0  0  0  0
  -10.7590   37.2968   -2.3860 H   0  0  0  0  0  0  0  0  0  0  0  0
  -10.0664   38.9390   -1.3901 C   0  0  0  0  0  0  0  0  0  0  0  0
   -9.7316   40.5369   -0.1555 H   0  0  0  0  0  0  0  0  0  0  0  0
  -14.2704   41.7409   -1.5163 H   0  0  0  0  0  0  0  0  0  0  0  0
  -14.6103   40.1784   -1.4840 H   0  0  0  0  0  0  0  0  0  0  0  0
  -13.1817   40.6963   -0.9960 H   0  0  0  0  0  0  0  0  0  0  0  0
  -15.4610   43.7270   -0.9378 Ag  0  0  0  0  0  0  0  0  0  0  0  0
  -11.4413   42.8077    3.4852 H   0  0  0  0  0  0  0  0  0  0  0  0
  -13.0437   44.0515    3.9131 C   0  0  0  0  0  0  0  0  0  0  0  0
  -14.6946   44.9102    4.5812 H   0  0  0  0  0  0  0  0  0  0  0  0
  -11.0324   42.6129   10.0460 H   0  0  0  0  0  0  0  0  0  0  0  0
  -12.1313   41.1168   10.9003 C   0  0  0  0  0  0  0  0  0  0  0  0
  -13.4602   39.6826   11.4053 H   0  0  0  0  0  0  0  0  0  0  0  0
  -16.8285   42.8342    9.4256 H   0  0  0  0  0  0  0  0  0  0  0  0
  -15.6759   43.1751    8.3711 H   0  0  0  0  0  0  0  0  0  0  0  0
  -15.4561   42.0153    9.4518 H   0  0  0  0  0  0  0  0  0  0  0  0
  -19.3069   42.0853    9.6413 Ag  0  3  0  0  0  0  0  0  0  0  0  0
  -16.8643   37.1950    9.8782 H   0  0  0  0  0  0  0  0  0  0  0  0
  -18.7631   37.4207    9.1085 C   0  0  0  0  0  0  0  0  0  0  0  0
  -20.4549   37.4650    8.0787 H   0  0  0  0  0  0  0  0  0  0  0  0
  -17.1556   31.2105    7.5076 H   0  0  0  0  0  0  0  0  0  0  0  0
  -16.9026   30.9936    5.6187 C   0  0  0  0  0  0  0  0  0  0  0  0
  -16.5934   31.0423    3.4852 H   0  0  0  0  0  0  0  0  0  0  0  0
  -20.4446   34.1452    3.2527 H   0  0  0  0  0  0  0  0  0  0  0  0
  -20.0792   34.5746    4.7505 H   0  0  0  0  0  0  0  0  0  0  0  0
  -19.0902   33.6140    3.9331 H   0  0  0  0  0  0  0  0  0  0  0  0
  -17.7229   35.0703   -0.8944 H   0  0  0  0  0  0  0  0  0  0  0  0
   -9.2793   39.0452   -1.9134 H   0  0  0  0  0  0  0  0  0  0  0  0
  -12.8316   44.7464    3.3004 H   0  0  0  0  0  0  0  0  0  0  0  0
  -11.6841   41.1301   11.7409 H   0  0  0  0  0  0  0  0  0  0  0  0
  -19.0263   43.9851   11.2929 F   0  0  0  0  0  0  0  0  0  0  0  0
  -20.2172   40.8335   11.5099 O   0  0  0  0  0  0  0  0  0  0  0  0
  -19.1285   37.8412    9.8782 H   0  0  0  0  0  0  0  0  0  0  0  0
  -16.8745   30.0508    5.6942 H   0  0  0  0  0  0  0  0  0  0  0  0
  -22.8392   36.8763    1.5702 O   0  0  0  0  0  0  0  0  0  0  0  0
  -18.6430   45.1625   10.7249 B   0  0  0  0  0  0  0  0  0  0  0  0
  -17.3396   45.3927   11.0250 F   0  0  0  0  0  0  0  0  0  0  0  0
  -18.8270   45.1005    9.3764 F   0  0  0  0  0  0  0  0  0  0  0  0
  -19.3687   46.1894   11.2375 F   0  0  0  0  0  0  0  0  0  0  0  0
  -12.1749   35.0528    4.2526 Au  0  0  0  0  0  0  0  0  0  0  0  0
  -10.8048   37.6248    5.0028 Au  0  0  0  0  0  0  0  0  0  0  0  0
  -12.3551   36.1326    7.0428 Au  0  0  0  0  0  0  0  0  0  0  0  0
  -20.9734   35.2531    0.9378 Ag  0  0  0  0  0  0  0  0  0  0  0  0
  -22.1594   34.3001   -0.6158 N   0  0  0  0  0  0  0  0  0  0  0  0
  -22.2617   34.8313   -1.7934 C   0  0  0  0  0  0  0  0  0  0  0  0
  -22.8903   33.2112   -0.3340 C   0  0  0  0  0  0  0  0  0  0  0  0
  -23.1536   34.3931   -2.7278 C   0  0  0  0  0  0  0  0  0  0  0  0
  -21.6943   35.5572   -2.0135 H   0  0  0  0  0  0  0  0  0  0  0  0
  -23.7337   32.7066   -1.3362 C   0  0  0  0  0  0  0  0  0  0  0  0
  -22.7549   32.6933    1.0268 C   0  0  0  0  0  0  0  0  0  0  0  0
  -23.2558   34.8800   -3.5406 H   0  0  0  0  0  0  0  0  0  0  0  0
  -23.8768   33.3086   -2.5184 N   0  0  0  0  0  0  0  0  0  0  0  0
  -24.7523   31.1556   -1.1792 P   0  0  0  0  0  0  0  0  0  0  0  0
  -22.0981   33.2289    1.5163 H   0  0  0  0  0  0  0  0  0  0  0  0
  -23.6212   32.7420    1.4840 H   0  0  0  0  0  0  0  0  0  0  0  0
  -22.4584   31.7638    0.9960 H   0  0  0  0  0  0  0  0  0  0  0  0
  -25.3976   32.8770   -4.3056 Ag  0  3  0  0  0  0  0  0  0  0  0  0
  -25.1142   30.2524   -3.2198 Au  0  0  0  0  0  0  0  0  0  0  0  0
  -26.3020   31.6841   -0.4387 C   0  0  0  0  0  0  0  0  0  0  0  0
  -23.8563   29.9977   -0.1278 C   0  0  0  0  0  0  0  0  0  0  0  0
  -24.2692   30.9484   -6.0099 Au  0  0  0  0  0  0  0  0  0  0  0  0
  -27.1816   30.8490   -5.2598 Au  0  0  0  0  0  0  0  0  0  0  0  0
  -24.8172   34.3267   -6.1036 N   0  0  0  0  0  0  0  0  0  0  0  0
  -27.4623   33.7026   -3.5129 N   0  0  0  0  0  0  0  0  0  0  0  0
  -26.8424   28.0702   -4.2526 Au  0  0  0  0  0  0  0  0  0  0  0  0
  -23.9300   28.1696   -5.0028 Au  0  0  0  0  0  0  0  0  0  0  0  0
  -25.5558   29.5122   -5.1318 C   0  0  0  0  0  0  0  0  0  0  0  0
  -26.3940   32.7376    0.4495 C   0  0  0  0  0  0  0  0  0  0  0  0
  -27.4725   31.0202   -0.7774 C   0  0  0  0  0  0  0  0  0  0  0  0
  -24.4569   29.3824    0.9082 C   0  0  0  0  0  0  0  0  0  0  0  0
  -22.5325   29.7321   -0.4310 C   0  0  0  0  0  0  0  0  0  0  0  0
  -22.9041   32.5632   -6.8379 P   0  0  0  0  0  0  0  0  0  0  0  0
  -25.9974   28.7662   -7.0428 Au  0  0  0  0  0  0  0  0  0  0  0  0
  -28.8208   32.4047   -5.4017 P   0  0  0  0  0  0  0  0  0  0  0  0
  -23.7976   34.1806   -7.0026 C   0  0  0  0  0  0  0  0  0  0  0  0
  -25.5814   35.3846   -6.1390 C   0  0  0  0  0  0  0  0  0  0  0  0
  -28.7273   33.5565   -3.9793 C   0  0  0  0  0  0  0  0  0  0  0  0
  -27.2731   34.4373   -2.4553 C   0  0  0  0  0  0  0  0  0  0  0  0
  -25.5992   33.1758    0.7312 H   0  0  0  0  0  0  0  0  0  0  0  0
  -27.6079   33.1670    0.9359 C   0  0  0  0  0  0  0  0  0  0  0  0
  -28.7145   31.4540   -0.2940 C   0  0  0  0  0  0  0  0  0  0  0  0
  -27.4342   30.2633   -1.3470 H   0  0  0  0  0  0  0  0  0  0  0  0
  -25.3590   29.5904    1.1207 H   0  0  0  0  0  0  0  0  0  0  0  0
  -23.7541   28.4307    1.6795 C   0  0  0  0  0  0  0  0  0  0  0  0
  -21.7914   28.8468    0.3387 C   0  0  0  0  0  0  0  0  0  0  0  0
  -22.1288   30.1570   -1.1776 H   0  0  0  0  0  0  0  0  0  0  0  0
  -21.4975   32.8881   -5.7296 C   0  0  0  0  0  0  0  0  0  0  0  0
  -22.3102   32.0648   -8.4620 C   0  0  0  0  0  0  0  0  0  0  0  0
  -28.5969   33.4370   -6.8595 C   0  0  0  0  0  0  0  0  0  0  0  0
  -30.4472   31.5868   -5.4186 C   0  0  0  0  0  0  0  0  0  0  0  0
  -23.5497   35.1854   -7.9247 C   0  0  0  0  0  0  0  0  0  0  0  0
  -26.2586   35.5041   -5.4848 H   0  0  0  0  0  0  0  0  0  0  0  0
  -25.4025   36.3141   -7.1196 C   0  0  0  0  0  0  0  0  0  0  0  0
  -29.7955   34.2205   -3.3405 C   0  0  0  0  0  0  0  0  0  0  0  0
  -26.3915   34.5746   -2.1290 H   0  0  0  0  0  0  0  0  0  0  0  0
  -28.3490   35.0261   -1.7995 C   0  0  0  0  0  0  0  0  0  0  0  0
  -27.6360   33.9062    1.5363 H   0  0  0  0  0  0  0  0  0  0  0  0
  -28.7656   32.5606    0.5696 C   0  0  0  0  0  0  0  0  0  0  0  0
  -29.5144   31.0069   -0.5465 H   0  0  0  0  0  0  0  0  0  0  0  0
  -24.1911   27.9660    2.3860 H   0  0  0  0  0  0  0  0  0  0  0  0
  -22.4227   28.1873    1.3901 C   0  0  0  0  0  0  0  0  0  0  0  0
  -20.8714   28.6963    0.1555 H   0  0  0  0  0  0  0  0  0  0  0  0
  -21.0656   31.8745   -4.9060 C   0  0  0  0  0  0  0  0  0  0  0  0
  -20.9174   34.1408   -5.5972 C   0  0  0  0  0  0  0  0  0  0  0  0
  -21.0069   31.6841   -8.6883 C   0  0  0  0  0  0  0  0  0  0  0  0
  -23.2098   31.9497   -9.4934 C   0  0  0  0  0  0  0  0  0  0  0  0
  -27.9632   32.8527   -7.9909 C   0  0  0  0  0  0  0  0  0  0  0  0
  -28.9368   34.7693   -6.9211 C   0  0  0  0  0  0  0  0  0  0  0  0
  -31.0759   31.4451   -6.6963 C   0  0  0  0  0  0  0  0  0  0  0  0
  -30.9149   31.0157   -4.2487 C   0  0  0  0  0  0  0  0  0  0  0  0
  -22.3997   35.1854   -8.8745 C   0  0  0  0  0  0  0  0  0  0  0  0
  -24.3981   36.2300   -7.9863 N   0  0  0  0  0  0  0  0  0  0  0  0
  -26.0107   37.0401   -7.1843 H   0  0  0  0  0  0  0  0  0  0  0  0
  -31.2011   34.2559   -3.8638 C   0  0  0  0  0  0  0  0  0  0  0  0
  -29.5425   34.8977   -2.2213 N   0  0  0  0  0  0  0  0  0  0  0  0
  -28.1880   35.5351   -1.0145 H   0  0  0  0  0  0  0  0  0  0  0  0
  -29.6013   32.8837    0.8944 H   0  0  0  0  0  0  0  0  0  0  0  0
  -21.9371   27.5587    1.9134 H   0  0  0  0  0  0  0  0  0  0  0  0
  -21.4899   31.0335   -4.9645 H   0  0  0  0  0  0  0  0  0  0  0  0
  -20.0664   32.0382   -4.0178 C   0  0  0  0  0  0  0  0  0  0  0  0
  -19.9412   34.3178   -4.6828 C   0  0  0  0  0  0  0  0  0  0  0  0
  -21.2011   34.8623   -6.1437 H   0  0  0  0  0  0  0  0  0  0  0  0
  -20.3654   31.7948   -7.9971 H   0  0  0  0  0  0  0  0  0  0  0  0
  -20.6133   31.1530   -9.9028 C   0  0  0  0  0  0  0  0  0  0  0  0
  -22.8469   31.5071  -10.6925 C   0  0  0  0  0  0  0  0  0  0  0  0
  -24.1145   32.1976   -9.3471 H   0  0  0  0  0  0  0  0  0  0  0  0
  -27.6999   31.9364   -7.9678 H   0  0  0  0  0  0  0  0  0  0  0  0
  -27.7280   33.5963   -9.1101 C   0  0  0  0  0  0  0  0  0  0  0  0
  -28.6634   35.5262   -8.0571 C   0  0  0  0  0  0  0  0  0  0  0  0
  -29.3662   35.1766   -6.1775 H   0  0  0  0  0  0  0  0  0  0  0  0
  -30.7436   31.8523   -7.4845 H   0  0  0  0  0  0  0  0  0  0  0  0
  -32.2259   30.6395   -6.6809 C   0  0  0  0  0  0  0  0  0  0  0  0
  -32.1313   30.2721   -4.2641 C   0  0  0  0  0  0  0  0  0  0  0  0
  -30.4267   31.1176   -3.4328 H   0  0  0  0  0  0  0  0  0  0  0  0
  -22.4303   35.9910   -9.4256 H   0  0  0  0  0  0  0  0  0  0  0  0
  -21.5589   35.1633   -8.3711 H   0  0  0  0  0  0  0  0  0  0  0  0
  -22.4533   34.3931   -9.4518 H   0  0  0  0  0  0  0  0  0  0  0  0
  -24.3181   37.7629   -9.6413 Ag  0  3  0  0  0  0  0  0  0  0  0  0
  -31.7633   34.7782   -3.2527 H   0  0  0  0  0  0  0  0  0  0  0  0
  -31.2087   34.6764   -4.7505 H   0  0  0  0  0  0  0  0  0  0  0  0
  -31.5461   33.3396   -3.9331 H   0  0  0  0  0  0  0  0  0  0  0  0
  -31.0682   35.7901   -0.9378 Ag  0  0  0  0  0  0  0  0  0  0  0  0
  -19.7597   31.3123   -3.4852 H   0  0  0  0  0  0  0  0  0  0  0  0
  -19.4837   33.3219   -3.9131 C   0  0  0  0  0  0  0  0  0  0  0  0
  -19.5655   35.1810   -4.5812 H   0  0  0  0  0  0  0  0  0  0  0  0
  -19.7240   30.8608  -10.0460 H   0  0  0  0  0  0  0  0  0  0  0  0
  -21.5691   31.0644  -10.9003 C   0  0  0  0  0  0  0  0  0  0  0  0
  -23.4756   31.4982  -11.4053 H   0  0  0  0  0  0  0  0  0  0  0  0
  -27.3319   33.2024   -9.8782 H   0  0  0  0  0  0  0  0  0  0  0  0
  -28.0858   34.9597   -9.1085 C   0  0  0  0  0  0  0  0  0  0  0  0
  -28.8934   36.4469   -8.0787 H   0  0  0  0  0  0  0  0  0  0  0  0
  -32.6603   30.4624   -7.5076 H   0  0  0  0  0  0  0  0  0  0  0  0
  -32.7216   30.1349   -5.6187 C   0  0  0  0  0  0  0  0  0  0  0  0
  -32.5249   29.8914   -3.4852 H   0  0  0  0  0  0  0  0  0  0  0  0
  -22.5325   38.4698  -11.2929 F   0  0  0  0  0  0  0  0  0  0  0  0
  -25.8574   37.9253  -11.5099 O   0  0  0  0  0  0  0  0  0  0  0  0
  -30.5954   38.2175   -1.5702 O   0  0  0  0  0  0  0  0  0  0  0  0
  -32.4865   36.3407    0.6158 N   0  0  0  0  0  0  0  0  0  0  0  0
  -18.7758   33.4857   -3.3004 H   0  0  0  0  0  0  0  0  0  0  0  0
  -21.3340   30.6838  -11.7409 H   0  0  0  0  0  0  0  0  0  0  0  0
  -27.9044   35.4864   -9.8782 H   0  0  0  0  0  0  0  0  0  0  0  0
  -33.5241   29.6391   -5.6942 H   0  0  0  0  0  0  0  0  0  0  0  0
  -21.3212   38.7265  -10.7249 B   0  0  0  0  0  0  0  0  0  0  0  0
  -20.4702   37.7129  -11.0250 F   0  0  0  0  0  0  0  0  0  0  0  0
  -21.4669   38.8549   -9.3764 F   0  0  0  0  0  0  0  0  0  0  0  0
  -20.7948   39.8685  -11.2375 F   0  0  0  0  0  0  0  0  0  0  0  0
  1  2  1  0  0  0  0
  2  3  1  0  0  0  0
  3  1  1  0  0  0  0
  4  1  1  0  0  0  0
  5  1  1  0  0  0  0
  6  1  1  0  0  0  0
  7  2  1  0  0  0  0
  8  3  1  0  0  0  0
  9  4  1  0  0  0  0
 10  4  1  0  0  0  0
 11  4  1  0  0  0  0
 12  5  1  0  0  0  0
 13  5  1  0  0  0  0
 14  5  1  0  0  0  0
 15  7  1  0  0  0  0
 16  7  1  0  0  0  0
 17  7  1  0  0  0  0
 18  8  1  0  0  0  0
 19  8  1  0  0  0  0
 20  8  1  0  0  0  0
 21  9  4  0  0  0  0
 22 10  4  0  0  0  0
 23 11  4  0  0  0  0
 24 12  4  0  0  0  0
 25 12  4  0  0  0  0
 26 13  4  0  0  0  0
 27 13  4  0  0  0  0
 28 14  4  0  0  0  0
 29 15  4  0  0  0  0
 30 15  4  0  0  0  0
 31 16  4  0  0  0  0
 32 16  4  0  0  0  0
 33 17  4  0  0  0  0
 34 18  4  0  0  0  0
 35 18  4  0  0  0  0
 36 19  4  0  0  0  0
 37 19  4  0  0  0  0
 38 20  4  0  0  0  0
 39 21  1  0  0  0  0
 40 21  4  0  0  0  0
 41 22  1  0  0  0  0
 42 22  4  0  0  0  0
 43 23  1  0  0  0  0
 44 23  4  0  0  0  0
 45 24  1  0  0  0  0
 46 24  4  0  0  0  0
 47 25  4  0  0  0  0
 48 25  1  0  0  0  0
 49 26  1  0  0  0  0
 50 26  4  0  0  0  0
 51 27  4  0  0  0  0
 52 27  1  0  0  0  0
 53 28  1  0  0  0  0
 54 28  4  0  0  0  0
 55 29  1  0  0  0  0
 56 29  4  0  0  0  0
 57 30  4  0  0  0  0
 58 30  1  0  0  0  0
 59 31  1  0  0  0  0
 60 31  4  0  0  0  0
 61 32  4  0  0  0  0
 62 32  1  0  0  0  0
 63 33  1  0  0  0  0
 64 33  4  0  0  0  0
 65 34  1  0  0  0  0
 66 34  4  0  0  0  0
 67 35  4  0  0  0  0
 68 35  1  0  0  0  0
 69 36  1  0  0  0  0
 70 36  4  0  0  0  0
 71 37  4  0  0  0  0
 72 37  1  0  0  0  0
 73 38  1  0  0  0  0
 74 38  4  0  0  0  0
 75 40  1  0  0  0  0
 76 42  1  0  0  0  0
 77 44  1  0  0  0  0
 78 46  1  0  0  0  0
 79 46  4  0  0  0  0
 80 47  1  0  0  0  0
 81 50  1  0  0  0  0
 82 50  4  0  0  0  0
 83 51  1  0  0  0  0
 84 53  1  0  0  0  0
 85 53  1  0  0  0  0
 86 53  1  0  0  0  0
 87 54  8  0  0  0  0
 88 56  1  0  0  0  0
 89 56  4  0  0  0  0
 90 57  1  0  0  0  0
 91 60  1  0  0  0  0
 92 60  4  0  0  0  0
 93 61  1  0  0  0  0
 94 63  1  0  0  0  0
 95 63  1  0  0  0  0
 96 63  1  0  0  0  0
 97 64  1  0  0  0  0
 98 66  1  0  0  0  0
 99 66  4  0  0  0  0
100 67  1  0  0  0  0
101 70  1  0  0  0  0
102 70  4  0  0  0  0
103 71  1  0  0  0  0
104 73  1  0  0  0  0
105 73  1  0  0  0  0
106 73  1  0  0  0  0
107 79  1  0  0  0  0
108 82  1  0  0  0  0
109 89  1  0  0  0  0
110 92  1  0  0  0  0
111 97  1  0  0  0  0
112 97  1  0  0  0  0
113 99  1  0  0  0  0
114102  1  0  0  0  0
115123  1  0  0  0  0
116111  1  0  0  0  0
117116  1  0  0  0  0
118116  1  0  0  0  0
119116  1  0  0  0  0
120  1  8  0  0  0  0
121  1  8  0  0  0  0
122  2  8  0  0  0  0
123 74  1  0  0  0  0
124123  1  0  0  0  0
125124  4  0  0  0  0
126124  4  0  0  0  0
127125  4  0  0  0  0
128125  1  0  0  0  0
129126  4  0  0  0  0
130126  1  0  0  0  0
131127  1  0  0  0  0
132127  4  0  0  0  0
133129  1  0  0  0  0
134130  1  0  0  0  0
135130  1  0  0  0  0
136130  1  0  0  0  0
137132  1  0  0  0  0
138133  1  0  0  0  0
139133  1  0  0  0  0
140133  1  0  0  0  0
141137  1  0  0  0  0
142137  1  0  0  0  0
143137  1  0  0  0  0
144137  1  0  0  0  0
145138  8  0  0  0  0
146138  8  0  0  0  0
147138  8  0  0  0  0
148139  4  0  0  0  0
149139  4  0  0  0  0
150140  4  0  0  0  0
151140  4  0  0  0  0
152141  1  0  0  0  0
153141  8  0  0  0  0
154142  1  0  0  0  0
155143  4  0  0  0  0
156143  4  0  0  0  0
157144  4  0  0  0  0
158144  4  0  0  0  0
159148  1  0  0  0  0
160148  4  0  0  0  0
161149  4  0  0  0  0
162149  1  0  0  0  0
163150  1  0  0  0  0
164150  4  0  0  0  0
165151  4  0  0  0  0
166151  1  0  0  0  0
167152  1  0  0  0  0
168152  1  0  0  0  0
169154  1  0  0  0  0
170154  1  0  0  0  0
171155  4  0  0  0  0
172156  1  0  0  0  0
173156  4  0  0  0  0
174157  4  0  0  0  0
175158  1  0  0  0  0
176158  4  0  0  0  0
177160  1  0  0  0  0
178160  4  0  0  0  0
179161  1  0  0  0  0
180164  1  0  0  0  0
181164  4  0  0  0  0
182165  1  0  0  0  0
183167  4  0  0  0  0
184167  4  0  0  0  0
185168  4  0  0  0  0
186168  4  0  0  0  0
187169  4  0  0  0  0
188169  4  0  0  0  0
189170  4  0  0  0  0
190170  4  0  0  0  0
191171  1  0  0  0  0
192171  4  0  0  0  0
193173  1  0  0  0  0
194174  1  0  0  0  0
195174  4  0  0  0  0
196176  1  0  0  0  0
197178  1  0  0  0  0
198181  1  0  0  0  0
199183  1  0  0  0  0
200183  4  0  0  0  0
201184  4  0  0  0  0
202184  1  0  0  0  0
203185  1  0  0  0  0
204185  4  0  0  0  0
205186  4  0  0  0  0
206186  1  0  0  0  0
207187  1  0  0  0  0
208187  4  0  0  0  0
209188  4  0  0  0  0
210188  1  0  0  0  0
211189  1  0  0  0  0
212189  4  0  0  0  0
213190  4  0  0  0  0
214190  1  0  0  0  0
215191  1  0  0  0  0
216191  1  0  0  0  0
217191  1  0  0  0  0
218192  1  0  0  0  0
219194  1  0  0  0  0
220194  1  0  0  0  0
221194  1  0  0  0  0
222195  1  0  0  0  0
223200  1  0  0  0  0
224200  4  0  0  0  0
225201  1  0  0  0  0
226204  1  0  0  0  0
227204  4  0  0  0  0
228205  1  0  0  0  0
229208  1  0  0  0  0
230208  4  0  0  0  0
231209  1  0  0  0  0
232212  1  0  0  0  0
233212  4  0  0  0  0
234213  1  0  0  0  0
235218  1  0  0  0  0
236218  1  0  0  0  0
237222  1  0  0  0  0
238222  8  0  0  0  0
239224  1  0  0  0  0
240227  1  0  0  0  0
241230  1  0  0  0  0
242233  1  0  0  0  0
243235  1  0  0  0  0
244243  1  0  0  0  0
245243  1  0  0  0  0
246243  1  0  0  0  0
  2  4  1  0  0  0  0
  2  6  1  0  0  0  0
  2121  8  0  0  0  0
  3  4  1  0  0  0  0
  3  6  1  0  0  0  0
  3120  8  0  0  0  0
  3122  8  0  0  0  0
  6120  8  0  0  0  0
  6121  8  0  0  0  0
  6122  8  0  0  0  0
  9 14  4  0  0  0  0
 10 17  4  0  0  0  0
 11 20  4  0  0  0  0
 40 54  4  0  0  0  0
 42 64  4  0  0  0  0
 44 74  4  0  0  0  0
 47 79  4  0  0  0  0
 51 82  4  0  0  0  0
 57 89  4  0  0  0  0
 61 92  4  0  0  0  0
 67 99  4  0  0  0  0
 71102  4  0  0  0  0
120121  8  0  0  0  0
120122  8  0  0  0  0
121122  8  0  0  0  0
129132  4  0  0  0  0
137138  1  0  0  0  0
138141  1  0  0  0  0
138142  1  0  0  0  0
141142  1  0  0  0  0
141146  8  0  0  0  0
141147  8  0  0  0  0
142145  8  0  0  0  0
142147  8  0  0  0  0
142153  8  0  0  0  0
145146  8  0  0  0  0
145147  8  0  0  0  0
145153  8  0  0  0  0
146147  8  0  0  0  0
146153  8  0  0  0  0
147153  8  0  0  0  0
152155  1  0  0  0  0
154157  1  0  0  0  0
161178  4  0  0  0  0
165181  4  0  0  0  0
173192  4  0  0  0  0
176195  4  0  0  0  0
201224  4  0  0  0  0
205227  4  0  0  0  0
209230  4  0  0  0  0
213233  4  0  0  0  0
M  CHG  4   4   1  97   1 137   1 218   1
M  END
$$$$
YORVAC

From CSD data. Using bond type 'Any'. No disordered atoms. Largest molecule.
 51 56  0  0  0  0  0  0  0  0999 V2000
    0.0000    0.0000    0.0000 Pt  0  0  0  0  0  0  0  0  0  0  0  0
    0.5807    0.7024    2.1181 Cl  0  0  0  0  0  0  0  0  0  0  0  0
   -1.9221    1.2881    0.1765 P   0  0  0  0  0  0  0  0  0  0  0  0
   -3.6374    0.2957   -1.6985 O   0  0  0  0  0  0  0  0  0  0  0  0
   -3.4165   -0.8429    0.3963 O   0  0  0  0  0  0  0  0  0  0  0  0
   -3.1846    0.3387    1.1598 C   0  0  0  0  0  0  0  0  0  0  0  0
   -3.0286    1.5351   -1.3210 C   0  0  0  0  0  0  0  0  0  0  0  0
   -1.7878    2.9750    0.8578 C   0  0  0  0  0  0  0  0  0  0  0  0
   -2.9550    3.7001    1.1872 C   0  0  0  0  0  0  0  0  0  0  0  0
   -2.8459    4.9848    1.6299 C   0  0  0  0  0  0  0  0  0  0  0  0
   -1.5708    5.5765    1.7963 C   0  0  0  0  0  0  0  0  0  0  0  0
   -0.4562    4.8737    1.4652 C   0  0  0  0  0  0  0  0  0  0  0  0
   -0.5414    3.5686    1.0019 C   0  0  0  0  0  0  0  0  0  0  0  0
   -3.9774   -2.1956   -1.6264 C   0  0  0  0  0  0  0  0  0  0  0  0
   -3.9371   -3.3919   -0.9179 C   0  0  0  0  0  0  0  0  0  0  0  0
   -4.0928   -4.6166   -1.5424 C   0  0  0  0  0  0  0  0  0  0  0  0
   -4.3465   -4.6381   -2.9303 C   0  0  0  0  0  0  0  0  0  0  0  0
   -4.5528   -3.4803   -3.6269 C   0  0  0  0  0  0  0  0  0  0  0  0
   -4.2588   -2.2556   -2.9904 C   0  0  0  0  0  0  0  0  0  0  0  0
   -2.8279   -0.0714    2.5906 C   0  0  0  0  0  0  0  0  0  0  0  0
   -2.7420    1.1465    3.5119 C   0  0  0  0  0  0  0  0  0  0  0  0
   -3.8298   -1.0740    3.1208 C   0  0  0  0  0  0  0  0  0  0  0  0
   -2.3948    2.1638   -2.5615 C   0  0  0  0  0  0  0  0  0  0  0  0
   -1.8042    3.5131   -2.3350 C   0  0  0  0  0  0  0  0  0  0  0  0
   -3.3970    2.2431   -3.6852 C   0  0  0  0  0  0  0  0  0  0  0  0
   -3.6512   -0.8281   -0.9436 B   0  0  0  0  0  0  0  0  0  0  0  0
   -0.5807   -0.7024   -2.1181 Cl  0  0  0  0  0  0  0  0  0  0  0  0
    1.9221   -1.2881   -0.1765 P   0  0  0  0  0  0  0  0  0  0  0  0
    3.1846   -0.3387   -1.1598 C   0  0  0  0  0  0  0  0  0  0  0  0
    3.0286   -1.5351    1.3210 C   0  0  0  0  0  0  0  0  0  0  0  0
    1.7878   -2.9750   -0.8578 C   0  0  0  0  0  0  0  0  0  0  0  0
    3.4165    0.8429   -0.3963 O   0  0  0  0  0  0  0  0  0  0  0  0
    2.8279    0.0714   -2.5906 C   0  0  0  0  0  0  0  0  0  0  0  0
    3.6374   -0.2957    1.6985 O   0  0  0  0  0  0  0  0  0  0  0  0
    2.3948   -2.1638    2.5615 C   0  0  0  0  0  0  0  0  0  0  0  0
    2.9550   -3.7001   -1.1872 C   0  0  0  0  0  0  0  0  0  0  0  0
    0.5414   -3.5686   -1.0019 C   0  0  0  0  0  0  0  0  0  0  0  0
    3.6512    0.8281    0.9436 B   0  0  0  0  0  0  0  0  0  0  0  0
    2.7420   -1.1465   -3.5119 C   0  0  0  0  0  0  0  0  0  0  0  0
    3.8298    1.0740   -3.1208 C   0  0  0  0  0  0  0  0  0  0  0  0
    1.8042   -3.5131    2.3350 C   0  0  0  0  0  0  0  0  0  0  0  0
    3.3970   -2.2431    3.6852 C   0  0  0  0  0  0  0  0  0  0  0  0
    2.8459   -4.9848   -1.6299 C   0  0  0  0  0  0  0  0  0  0  0  0
    0.4562   -4.8737   -1.4652 C   0  0  0  0  0  0  0  0  0  0  0  0
    3.9774    2.1956    1.6264 C   0  0  0  0  0  0  0  0  0  0  0  0
    1.5708   -5.5765   -1.7963 C   0  0  0  0  0  0  0  0  0  0  0  0
    3.9371    3.3919    0.9179 C   0  0  0  0  0  0  0  0  0  0  0  0
    4.2588    2.2556    2.9904 C   0  0  0  0  0  0  0  0  0  0  0  0
    4.0928    4.6166    1.5424 C   0  0  0  0  0  0  0  0  0  0  0  0
    4.5528    3.4803    3.6269 C   0  0  0  0  0  0  0  0  0  0  0  0
    4.3465    4.6381    2.9303 C   0  0  0  0  0  0  0  0  0  0  0  0
  1  2  1  0  0  0  0
  3  1  1  0  0  0  0
  4  7  1  0  0  0  0
  5  6  1  0  0  0  0
  6  3  1  0  0  0  0
  7  3  1  0  0  0  0
  8  3  1  0  0  0  0
  9  8  4  0  0  0  0
 10  9  4  0  0  0  0
 11 10  4  0  0  0  0
 12 11  4  0  0  0  0
 13  8  4  0  0  0  0
 14 15  4  0  0  0  0
 15 16  4  0  0  0  0
 16 17  4  0  0  0  0
 17 18  4  0  0  0  0
 18 19  4  0  0  0  0
 19 14  4  0  0  0  0
 20  6  1  0  0  0  0
 21 20  1  0  0  0  0
 22 20  1  0  0  0  0
 23  7  1  0  0  0  0
 24 23  1  0  0  0  0
 25 23  1  0  0  0  0
 26  4  1  0  0  0  0
 27  1  1  0  0  0  0
 28  1  1  0  0  0  0
 29 28  1  0  0  0  0
 30 28  1  0  0  0  0
 31 28  1  0  0  0  0
 32 29  1  0  0  0  0
 33 29  1  0  0  0  0
 34 30  1  0  0  0  0
 35 30  1  0  0  0  0
 36 31  4  0  0  0  0
 37 31  4  0  0  0  0
 38 32  1  0  0  0  0
 39 33  1  0  0  0  0
 40 33  1  0  0  0  0
 41 35  1  0  0  0  0
 42 35  1  0  0  0  0
 43 36  4  0  0  0  0
 44 37  4  0  0  0  0
 45 38  1  0  0  0  0
 46 43  4  0  0  0  0
 47 45  4  0  0  0  0
 48 45  4  0  0  0  0
 49 47  4  0  0  0  0
 50 48  4  0  0  0  0
 51 49  4  0  0  0  0
  5 26  1  0  0  0  0
 12 13  4  0  0  0  0
 14 26  1  0  0  0  0
 34 38  1  0  0  0  0
 44 46  4  0  0  0  0
 50 51  4  0  0  0  0
M  END
$$$$
YOVPIK

From CSD data. Using bond type 'Any'. No disordered atoms. Largest molecule.
 87 97  0  0  0  0  0  0  0  0999 V2000
    5.6349   10.7555   29.8460 B   0  0  0  0  0  0  0  0  0  0  0  0
    6.6790   10.6253   29.7956 H   0  0  0  0  0  0  0  0  0  0  0  0
    5.2305   11.5278   30.5569 H   0  0  0  0  0  0  0  0  0  0  0  0
    5.2449   10.8766   28.9484 H   0  0  0  0  0  0  0  0  0  0  0  0
    5.0633    9.8941   30.2566 H   0  0  0  0  0  0  0  0  0  0  0  0
    2.8470   13.6140   29.7891 B   0  0  0  0  0  0  0  0  0  0  0  0
    2.6448   14.6811   29.7848 H   0  0  0  0  0  0  0  0  0  0  0  0
    1.8020   13.0131   29.7562 H   0  0  0  0  0  0  0  0  0  0  0  0
    3.4863   13.2416   28.8484 H   0  0  0  0  0  0  0  0  0  0  0  0
    3.3233   13.3216   30.7642 H   0  0  0  0  0  0  0  0  0  0  0  0
    0.6098   10.3579   30.2077 C   0  0  0  0  0  0  0  0  0  0  0  0
   -0.0783   10.9509   29.7884 H   0  0  0  0  0  0  0  0  0  0  0  0
    0.0159   12.1322   32.3623 C   0  0  0  0  0  0  0  0  0  0  0  0
    0.6342   13.0988   33.1404 C   0  0  0  0  0  0  0  0  0  0  0  0
    1.5553   13.0028   33.3520 H   0  0  0  0  0  0  0  0  0  0  0  0
   -0.0570   14.2001   33.6147 C   0  0  0  0  0  0  0  0  0  0  0  0
    0.3842   14.8479   34.1527 H   0  0  0  0  0  0  0  0  0  0  0  0
   -1.3879   14.3498   33.3009 C   0  0  0  0  0  0  0  0  0  0  0  0
   -1.8770   15.0844   33.6522 H   0  0  0  0  0  0  0  0  0  0  0  0
   -2.0128   13.4369   32.4824 C   0  0  0  0  0  0  0  0  0  0  0  0
   -2.9205   13.5672   32.2368 H   0  0  0  0  0  0  0  0  0  0  0  0
   -1.3194   12.3241   32.0141 C   0  0  0  0  0  0  0  0  0  0  0  0
   -1.7587   11.6923   31.4540 H   0  0  0  0  0  0  0  0  0  0  0  0
    0.2611    9.3399   33.0139 C   0  0  0  0  0  0  0  0  0  0  0  0
   -0.8891    9.5079   33.7820 C   0  0  0  0  0  0  0  0  0  0  0  0
   -1.3660   10.3293   33.7488 H   0  0  0  0  0  0  0  0  0  0  0  0
   -1.3428    8.4774   34.5987 C   0  0  0  0  0  0  0  0  0  0  0  0
   -2.1170    8.6053   35.1356 H   0  0  0  0  0  0  0  0  0  0  0  0
   -0.6753    7.2720   34.6355 C   0  0  0  0  0  0  0  0  0  0  0  0
   -1.0010    6.5648   35.1821 H   0  0  0  0  0  0  0  0  0  0  0  0
    0.4664    7.0915   33.8792 C   0  0  0  0  0  0  0  0  0  0  0  0
    0.9304    6.2620   33.9060 H   0  0  0  0  0  0  0  0  0  0  0  0
    0.9325    8.1243   33.0800 C   0  0  0  0  0  0  0  0  0  0  0  0
    1.7231    7.9986   32.5692 H   0  0  0  0  0  0  0  0  0  0  0  0
   -0.2335    7.4834   30.2284 C   0  0  0  0  0  0  0  0  0  0  0  0
   -1.5055    7.8261   30.6802 C   0  0  0  0  0  0  0  0  0  0  0  0
   -1.7998    8.7287   30.6427 H   0  0  0  0  0  0  0  0  0  0  0  0
   -2.3398    6.8401   31.1870 C   0  0  0  0  0  0  0  0  0  0  0  0
   -3.2043    7.0709   31.5041 H   0  0  0  0  0  0  0  0  0  0  0  0
   -1.9245    5.5400   31.2331 C   0  0  0  0  0  0  0  0  0  0  0  0
   -2.5109    4.8705   31.5684 H   0  0  0  0  0  0  0  0  0  0  0  0
   -0.6535    5.1858   30.7957 C   0  0  0  0  0  0  0  0  0  0  0  0
   -0.3609    4.2832   30.8464 H   0  0  0  0  0  0  0  0  0  0  0  0
    0.1847    6.1695   30.2817 C   0  0  0  0  0  0  0  0  0  0  0  0
    1.0489    5.9353   29.9671 H   0  0  0  0  0  0  0  0  0  0  0  0
    0.1230    8.7950   27.7982 C   0  0  0  0  0  0  0  0  0  0  0  0
   -1.0642    9.4450   27.5066 C   0  0  0  0  0  0  0  0  0  0  0  0
   -1.4766   10.0003   28.1585 H   0  0  0  0  0  0  0  0  0  0  0  0
   -1.6505    9.2782   26.2520 C   0  0  0  0  0  0  0  0  0  0  0  0
   -2.4562    9.7341   26.0389 H   0  0  0  0  0  0  0  0  0  0  0  0
   -1.0600    8.4522   25.3230 C   0  0  0  0  0  0  0  0  0  0  0  0
   -1.4755    8.3243   24.4770 H   0  0  0  0  0  0  0  0  0  0  0  0
    0.0992    7.8238   25.5957 C   0  0  0  0  0  0  0  0  0  0  0  0
    0.5025    7.2697   24.9380 H   0  0  0  0  0  0  0  0  0  0  0  0
    0.7088    7.9804   26.8374 C   0  0  0  0  0  0  0  0  0  0  0  0
    1.5247    7.5325   27.0255 H   0  0  0  0  0  0  0  0  0  0  0  0
    4.6462    9.2897   33.4632 C   0  0  0  0  0  0  0  0  0  0  0  0
    4.1429    8.4602   33.3306 H   0  0  0  0  0  0  0  0  0  0  0  0
    5.1501    9.2360   34.3028 H   0  0  0  0  0  0  0  0  0  0  0  0
    5.2670    9.4199   32.7158 H   0  0  0  0  0  0  0  0  0  0  0  0
    4.4483   12.3082   33.6658 C   0  0  0  0  0  0  0  0  0  0  0  0
    4.9380   12.4544   32.8302 H   0  0  0  0  0  0  0  0  0  0  0  0
    5.0839   12.2419   34.4100 H   0  0  0  0  0  0  0  0  0  0  0  0
    3.8399   13.0599   33.8238 H   0  0  0  0  0  0  0  0  0  0  0  0
    2.4640   10.5681   35.1199 C   0  0  0  0  0  0  0  0  0  0  0  0
    1.7710   11.2605   35.1356 H   0  0  0  0  0  0  0  0  0  0  0  0
    3.0544   10.6789   35.8933 H   0  0  0  0  0  0  0  0  0  0  0  0
    2.0442    9.6838   35.1535 H   0  0  0  0  0  0  0  0  0  0  0  0
    3.3683   10.4425   26.4786 C   0  0  0  0  0  0  0  0  0  0  0  0
    3.3175    9.4565   26.5501 H   0  0  0  0  0  0  0  0  0  0  0  0
    4.3179   10.7167   26.5250 H   0  0  0  0  0  0  0  0  0  0  0  0
    2.7391   10.9154   25.1908 C   0  0  0  0  0  0  0  0  0  0  0  0
    3.3105   11.5941   24.7522 H   0  0  0  0  0  0  0  0  0  0  0  0
    2.6065   10.1580   24.5663 H   0  0  0  0  0  0  0  0  0  0  0  0
    1.4957   11.4776   25.5671 C   0  0  0  0  0  0  0  0  0  0  0  0
    0.7858   10.7875   25.5314 H   0  0  0  0  0  0  0  0  0  0  0  0
    1.2511   12.2099   24.9488 H   0  0  0  0  0  0  0  0  0  0  0  0
    1.6328   11.9997   26.9518 C   0  0  0  0  0  0  0  0  0  0  0  0
    1.9770   12.9285   26.9540 H   0  0  0  0  0  0  0  0  0  0  0  0
    0.7674   11.9745   27.4329 H   0  0  0  0  0  0  0  0  0  0  0  0
    2.4966   10.7772   32.0974 N   0  0  0  0  0  0  0  0  0  0  0  0
    2.5990   11.0743   27.5473 O   0  0  0  0  0  0  0  0  0  0  0  0
    0.9179   10.6335   31.9158 P   0  0  0  0  0  0  0  0  0  0  0  0
    0.7950    8.7775   29.4871 P   0  0  0  0  0  0  0  0  0  0  0  0
    2.7242    8.2567   29.5235 S   0  0  0  0  0  0  0  0  0  0  0  0
    3.4648   10.7241   33.5432 Si  0  0  0  0  0  0  0  0  0  0  0  0
    3.1295   11.0820   29.8452 Y   0  0  0  0  0  0  0  0  0  0  0  0
  1  2  1  0  0  0  0
  3  1  1  0  0  0  0
  4  1  1  0  0  0  0
  5  1  1  0  0  0  0
  6  7  1  0  0  0  0
  8  6  1  0  0  0  0
  9  6  1  0  0  0  0
 10  6  1  0  0  0  0
 11 12  1  0  0  0  0
 13 14  4  0  0  0  0
 14 15  1  0  0  0  0
 16 14  4  0  0  0  0
 17 16  1  0  0  0  0
 18 16  4  0  0  0  0
 19 18  1  0  0  0  0
 20 18  4  0  0  0  0
 21 20  1  0  0  0  0
 22 13  4  0  0  0  0
 23 22  1  0  0  0  0
 24 25  4  0  0  0  0
 25 26  1  0  0  0  0
 27 25  4  0  0  0  0
 28 27  1  0  0  0  0
 29 27  4  0  0  0  0
 30 29  1  0  0  0  0
 31 29  4  0  0  0  0
 32 31  1  0  0  0  0
 33 24  4  0  0  0  0
 34 33  1  0  0  0  0
 35 36  4  0  0  0  0
 36 37  1  0  0  0  0
 38 36  4  0  0  0  0
 39 38  1  0  0  0  0
 40 38  4  0  0  0  0
 41 40  1  0  0  0  0
 42 40  4  0  0  0  0
 43 42  1  0  0  0  0
 44 35  4  0  0  0  0
 45 44  1  0  0  0  0
 46 47  4  0  0  0  0
 47 48  1  0  0  0  0
 49 47  4  0  0  0  0
 50 49  1  0  0  0  0
 51 49  4  0  0  0  0
 52 51  1  0  0  0  0
 53 51  4  0  0  0  0
 54 53  1  0  0  0  0
 55 46  4  0  0  0  0
 56 55  1  0  0  0  0
 57 58  1  0  0  0  0
 59 57  1  0  0  0  0
 60 57  1  0  0  0  0
 61 62  1  0  0  0  0
 63 61  1  0  0  0  0
 64 61  1  0  0  0  0
 65 66  1  0  0  0  0
 67 65  1  0  0  0  0
 68 65  1  0  0  0  0
 69 70  1  0  0  0  0
 71 69  1  0  0  0  0
 72 69  1  0  0  0  0
 73 72  1  0  0  0  0
 74 72  1  0  0  0  0
 75 72  1  0  0  0  0
 76 75  1  0  0  0  0
 77 75  1  0  0  0  0
 78 75  1  0  0  0  0
 79 78  1  0  0  0  0
 80 78  1  0  0  0  0
 81 83  2  0  0  0  0
 82 69  1  0  0  0  0
 83 11  1  0  0  0  0
 84 11  1  0  0  0  0
 85 84  2  0  0  0  0
 86 57  1  0  0  0  0
 87  3  1  0  0  0  0
  4 87  1  0  0  0  0
  5 87  1  0  0  0  0
  8 87  1  0  0  0  0
  9 87  1  0  0  0  0
 10 87  1  0  0  0  0
 11 87  1  0  0  0  0
 13 83  1  0  0  0  0
 20 22  4  0  0  0  0
 24 83  1  0  0  0  0
 31 33  4  0  0  0  0
 35 84  1  0  0  0  0
 42 44  4  0  0  0  0
 46 84  1  0  0  0  0
 53 55  4  0  0  0  0
 61 86  1  0  0  0  0
 65 86  1  0  0  0  0
 78 82  1  0  0  0  0
 81 86  1  0  0  0  0
 81 87  1  0  0  0  0
 82 87  1  0  0  0  0
 85 87  1  0  0  0  0
M  END
$$$$
YOVPOQ

From CSD data. Using bond type 'Any'. No disordered atoms. Largest molecule.
 87 97  0  0  0  0  0  0  0  0999 V2000
    7.3237    5.0166    9.7189 Sm  0  0  0  0  0  0  0  0  0  0  0  0
    7.1544    6.1718    7.0740 S   0  0  0  0  0  0  0  0  0  0  0  0
    4.9448    6.9707   10.3298 P   0  0  0  0  0  0  0  0  0  0  0  0
    6.8541    7.9000    8.0416 P   0  0  0  0  0  0  0  0  0  0  0  0
    3.6773    4.2415   10.3095 Si  0  0  0  0  0  0  0  0  0  0  0  0
    9.5947    5.9072    9.4291 O   0  0  0  0  0  0  0  0  0  0  0  0
    4.9883    5.3837   10.1724 N   0  0  0  0  0  0  0  0  0  0  0  0
    6.4530    7.6262    9.7102 C   0  0  0  0  0  0  0  0  0  0  0  0
    6.9353    8.2227   10.3520 H   0  0  0  0  0  0  0  0  0  0  0  0
    4.8936    7.5243   12.0620 C   0  0  0  0  0  0  0  0  0  0  0  0
    4.7629    6.5845   13.0727 C   0  0  0  0  0  0  0  0  0  0  0  0
    4.7251    5.6594   12.8601 H   0  0  0  0  0  0  0  0  0  0  0  0
    4.6838    6.9969   14.4083 C   0  0  0  0  0  0  0  0  0  0  0  0
    4.5719    6.3553   15.0995 H   0  0  0  0  0  0  0  0  0  0  0  0
    4.7714    8.3339   14.7141 C   0  0  0  0  0  0  0  0  0  0  0  0
    4.7061    8.6140   15.6192 H   0  0  0  0  0  0  0  0  0  0  0  0
    4.9532    9.2769   13.7172 C   0  0  0  0  0  0  0  0  0  0  0  0
    5.0338   10.1964   13.9407 H   0  0  0  0  0  0  0  0  0  0  0  0
    5.0176    8.8735   12.3802 C   0  0  0  0  0  0  0  0  0  0  0  0
    5.1458    9.5163   11.6931 H   0  0  0  0  0  0  0  0  0  0  0  0
    3.4701    7.6528    9.5251 C   0  0  0  0  0  0  0  0  0  0  0  0
    3.2119    7.2456    8.2128 C   0  0  0  0  0  0  0  0  0  0  0  0
    3.7863    6.6180    7.7904 H   0  0  0  0  0  0  0  0  0  0  0  0
    2.1162    7.7548    7.5257 C   0  0  0  0  0  0  0  0  0  0  0  0
    1.9487    7.4784    6.6330 H   0  0  0  0  0  0  0  0  0  0  0  0
    1.2746    8.6574    8.1319 C   0  0  0  0  0  0  0  0  0  0  0  0
    0.5310    9.0078    7.6560 H   0  0  0  0  0  0  0  0  0  0  0  0
    1.5118    9.0523    9.4319 C   0  0  0  0  0  0  0  0  0  0  0  0
    0.9203    9.6679    9.8487 H   0  0  0  0  0  0  0  0  0  0  0  0
    2.6065    8.5635   10.1394 C   0  0  0  0  0  0  0  0  0  0  0  0
    2.7656    8.8455   11.0322 H   0  0  0  0  0  0  0  0  0  0  0  0
    8.3123    8.9731    8.0743 C   0  0  0  0  0  0  0  0  0  0  0  0
    9.3548    8.7687    7.1733 C   0  0  0  0  0  0  0  0  0  0  0  0
    9.3388    8.0226    6.5850 H   0  0  0  0  0  0  0  0  0  0  0  0
   10.4229    9.6697    7.1377 C   0  0  0  0  0  0  0  0  0  0  0  0
   11.1355    9.5320    6.5247 H   0  0  0  0  0  0  0  0  0  0  0  0
   10.4488   10.7522    7.9851 C   0  0  0  0  0  0  0  0  0  0  0  0
   11.1766   11.3608    7.9454 H   0  0  0  0  0  0  0  0  0  0  0  0
    9.4428   10.9637    8.8861 C   0  0  0  0  0  0  0  0  0  0  0  0
    9.4823   11.7025    9.4826 H   0  0  0  0  0  0  0  0  0  0  0  0
    8.3449   10.0771    8.9245 C   0  0  0  0  0  0  0  0  0  0  0  0
    7.6290   10.2315    9.5306 H   0  0  0  0  0  0  0  0  0  0  0  0
    5.6648    8.8974    7.0787 C   0  0  0  0  0  0  0  0  0  0  0  0
    5.3967    8.5903    5.7472 C   0  0  0  0  0  0  0  0  0  0  0  0
    5.8089    7.8370    5.3412 H   0  0  0  0  0  0  0  0  0  0  0  0
    4.5301    9.3816    5.0135 C   0  0  0  0  0  0  0  0  0  0  0  0
    4.3300    9.1609    4.1112 H   0  0  0  0  0  0  0  0  0  0  0  0
    3.9576   10.4925    5.6004 C   0  0  0  0  0  0  0  0  0  0  0  0
    3.3784   11.0472    5.0903 H   0  0  0  0  0  0  0  0  0  0  0  0
    4.2164   10.8085    6.9196 C   0  0  0  0  0  0  0  0  0  0  0  0
    3.8061   11.5688    7.3146 H   0  0  0  0  0  0  0  0  0  0  0  0
    5.0818   10.0100    7.6725 C   0  0  0  0  0  0  0  0  0  0  0  0
    5.2681   10.2263    8.5789 H   0  0  0  0  0  0  0  0  0  0  0  0
    3.1352    3.7066    8.6187 C   0  0  0  0  0  0  0  0  0  0  0  0
    2.6232    4.4277    8.1963 H   0  0  0  0  0  0  0  0  0  0  0  0
    2.5714    2.9073    8.6941 H   0  0  0  0  0  0  0  0  0  0  0  0
    3.9225    3.4999    8.0729 H   0  0  0  0  0  0  0  0  0  0  0  0
    2.1900    4.9283   11.1926 C   0  0  0  0  0  0  0  0  0  0  0  0
    2.4664    5.2972   12.0565 H   0  0  0  0  0  0  0  0  0  0  0  0
    1.5358    4.2133   11.3352 H   0  0  0  0  0  0  0  0  0  0  0  0
    1.7866    5.6366   10.6482 H   0  0  0  0  0  0  0  0  0  0  0  0
    4.2771    2.7642   11.2584 C   0  0  0  0  0  0  0  0  0  0  0  0
    5.0251    2.3501   10.7812 H   0  0  0  0  0  0  0  0  0  0  0  0
    3.5473    2.1158   11.3476 H   0  0  0  0  0  0  0  0  0  0  0  0
    4.5734    3.0473   12.1484 H   0  0  0  0  0  0  0  0  0  0  0  0
   10.3230    6.7657   10.3520 C   0  0  0  0  0  0  0  0  0  0  0  0
    9.9864    6.6597   11.2776 H   0  0  0  0  0  0  0  0  0  0  0  0
   10.2479    7.7163   10.0887 H   0  0  0  0  0  0  0  0  0  0  0  0
   11.7407    6.2847   10.2368 C   0  0  0  0  0  0  0  0  0  0  0  0
   12.3767    7.0198   10.4274 H   0  0  0  0  0  0  0  0  0  0  0  0
   11.9118    5.5426   10.8704 H   0  0  0  0  0  0  0  0  0  0  0  0
   11.8810    5.8283    8.8614 C   0  0  0  0  0  0  0  0  0  0  0  0
   12.5136    5.0689    8.8093 H   0  0  0  0  0  0  0  0  0  0  0  0
   12.2125    6.5604    8.2841 H   0  0  0  0  0  0  0  0  0  0  0  0
   10.5152    5.4024    8.4377 C   0  0  0  0  0  0  0  0  0  0  0  0
   10.2991    5.7738    7.5463 H   0  0  0  0  0  0  0  0  0  0  0  0
   10.4622    4.4150    8.3897 H   0  0  0  0  0  0  0  0  0  0  0  0
    7.4010    2.6681    8.6200 B   0  0  0  0  0  0  0  0  0  0  0  0
    8.0410    4.6968   12.1676 B   0  0  0  0  0  0  0  0  0  0  0  0
    7.4942    1.6449    8.1319 H   0  0  0  0  0  0  0  0  0  0  0  0
    7.1319    2.5643    9.6403 H   0  0  0  0  0  0  0  0  0  0  0  0
    6.6953    3.2467    8.1730 H   0  0  0  0  0  0  0  0  0  0  0  0
    8.3528    3.2086    8.5707 H   0  0  0  0  0  0  0  0  0  0  0  0
    7.6343    5.9050   11.8481 H   0  0  0  0  0  0  0  0  0  0  0  0
    7.0307    4.0922   11.8070 H   0  0  0  0  0  0  0  0  0  0  0  0
    8.8753    4.2282   11.2996 H   0  0  0  0  0  0  0  0  0  0  0  0
    8.2867    4.5300   13.0274 H   0  0  0  0  0  0  0  0  0  0  0  0
  1  2  1  0  0  0  0
  2  4  2  0  0  0  0
  3  7  2  0  0  0  0
  4  8  1  0  0  0  0
  5  7  1  0  0  0  0
  6  1  1  0  0  0  0
  7  1  1  0  0  0  0
  8  1  1  0  0  0  0
  9  8  1  0  0  0  0
 10  3  1  0  0  0  0
 11 10  4  0  0  0  0
 12 11  1  0  0  0  0
 13 11  4  0  0  0  0
 14 13  1  0  0  0  0
 15 13  4  0  0  0  0
 16 15  1  0  0  0  0
 17 15  4  0  0  0  0
 18 17  1  0  0  0  0
 19 10  4  0  0  0  0
 20 19  1  0  0  0  0
 21  3  1  0  0  0  0
 22 21  4  0  0  0  0
 23 22  1  0  0  0  0
 24 22  4  0  0  0  0
 25 24  1  0  0  0  0
 26 24  4  0  0  0  0
 27 26  1  0  0  0  0
 28 26  4  0  0  0  0
 29 28  1  0  0  0  0
 30 21  4  0  0  0  0
 31 30  1  0  0  0  0
 32  4  1  0  0  0  0
 33 32  4  0  0  0  0
 34 33  1  0  0  0  0
 35 33  4  0  0  0  0
 36 35  1  0  0  0  0
 37 35  4  0  0  0  0
 38 37  1  0  0  0  0
 39 37  4  0  0  0  0
 40 39  1  0  0  0  0
 41 32  4  0  0  0  0
 42 41  1  0  0  0  0
 43  4  1  0  0  0  0
 44 43  4  0  0  0  0
 45 44  1  0  0  0  0
 46 44  4  0  0  0  0
 47 46  1  0  0  0  0
 48 46  4  0  0  0  0
 49 48  1  0  0  0  0
 50 48  4  0  0  0  0
 51 50  1  0  0  0  0
 52 43  4  0  0  0  0
 53 52  1  0  0  0  0
 54  5  1  0  0  0  0
 55 54  1  0  0  0  0
 56 54  1  0  0  0  0
 57 54  1  0  0  0  0
 58  5  1  0  0  0  0
 59 58  1  0  0  0  0
 60 58  1  0  0  0  0
 61 58  1  0  0  0  0
 62  5  1  0  0  0  0
 63 62  1  0  0  0  0
 64 62  1  0  0  0  0
 65 62  1  0  0  0  0
 66  6  1  0  0  0  0
 67 66  1  0  0  0  0
 68 66  1  0  0  0  0
 69 66  1  0  0  0  0
 70 69  1  0  0  0  0
 71 69  1  0  0  0  0
 72 69  1  0  0  0  0
 73 72  1  0  0  0  0
 74 72  1  0  0  0  0
 75  6  1  0  0  0  0
 76 75  1  0  0  0  0
 77 75  1  0  0  0  0
 78 80  1  0  0  0  0
 79 84  1  0  0  0  0
 81  1  1  0  0  0  0
 82  1  1  0  0  0  0
 83  1  1  0  0  0  0
 84  1  1  0  0  0  0
 85  1  1  0  0  0  0
 86  1  1  0  0  0  0
 87 79  1  0  0  0  0
  3  8  1  0  0  0  0
 17 19  4  0  0  0  0
 28 30  4  0  0  0  0
 39 41  4  0  0  0  0
 50 52  4  0  0  0  0
 72 75  1  0  0  0  0
 78 81  1  0  0  0  0
 78 82  1  0  0  0  0
 78 83  1  0  0  0  0
 79 85  1  0  0  0  0
 79 86  1  0  0  0  0
M  END
$$$$
YOVPUW

From CSD data. Using bond type 'Any'. No disordered atoms. Largest molecule.
 87 97  0  0  0  0  0  0  0  0999 V2000
    5.5407   10.7409   29.9120 B   0  0  0  0  0  0  0  0  0  0  0  0
    2.7173   13.5973   29.8654 B   0  0  0  0  0  0  0  0  0  0  0  0
    0.4799   10.3483   30.2882 C   0  0  0  0  0  0  0  0  0  0  0  0
   -0.2078   10.9372   29.8654 H   0  0  0  0  0  0  0  0  0  0  0  0
   -0.1150   12.1217   32.4527 C   0  0  0  0  0  0  0  0  0  0  0  0
    0.5068   13.0929   33.2411 C   0  0  0  0  0  0  0  0  0  0  0  0
    1.4246   12.9970   33.4669 H   0  0  0  0  0  0  0  0  0  0  0  0
   -0.1878   14.1759   33.6962 C   0  0  0  0  0  0  0  0  0  0  0  0
    0.2563   14.8263   34.2266 H   0  0  0  0  0  0  0  0  0  0  0  0
   -1.5228   14.3391   33.3988 C   0  0  0  0  0  0  0  0  0  0  0  0
   -2.0092   15.0740   33.7535 H   0  0  0  0  0  0  0  0  0  0  0  0
   -2.1423   13.4250   32.5781 C   0  0  0  0  0  0  0  0  0  0  0  0
   -3.0503   13.5551   32.3309 H   0  0  0  0  0  0  0  0  0  0  0  0
   -1.4556   12.3112   32.1087 C   0  0  0  0  0  0  0  0  0  0  0  0
   -1.8968   11.6812   31.5497 H   0  0  0  0  0  0  0  0  0  0  0  0
    0.1263    9.3304   33.1013 C   0  0  0  0  0  0  0  0  0  0  0  0
   -1.0263    9.4833   33.8754 C   0  0  0  0  0  0  0  0  0  0  0  0
   -1.5152   10.2970   33.8396 H   0  0  0  0  0  0  0  0  0  0  0  0
   -1.4543    8.4596   34.6889 C   0  0  0  0  0  0  0  0  0  0  0  0
   -2.2190    8.5920   35.2336 H   0  0  0  0  0  0  0  0  0  0  0  0
   -0.8065    7.2580   34.7283 C   0  0  0  0  0  0  0  0  0  0  0  0
   -1.1409    6.5504   35.2694 H   0  0  0  0  0  0  0  0  0  0  0  0
    0.3343    7.0799   33.9829 C   0  0  0  0  0  0  0  0  0  0  0  0
    0.7996    6.2526   34.0116 H   0  0  0  0  0  0  0  0  0  0  0  0
    0.8135    8.1401   33.1623 C   0  0  0  0  0  0  0  0  0  0  0  0
    1.6097    8.0271   32.6606 H   0  0  0  0  0  0  0  0  0  0  0  0
   -0.3536    7.4725   30.3277 C   0  0  0  0  0  0  0  0  0  0  0  0
   -1.6270    7.8080   30.7577 C   0  0  0  0  0  0  0  0  0  0  0  0
   -1.9242    8.7084   30.7075 H   0  0  0  0  0  0  0  0  0  0  0  0
   -2.4715    6.8266   31.2666 C   0  0  0  0  0  0  0  0  0  0  0  0
   -3.3376    7.0560   31.5855 H   0  0  0  0  0  0  0  0  0  0  0  0
   -2.0381    5.5097   31.3060 C   0  0  0  0  0  0  0  0  0  0  0  0
   -2.6165    4.8318   31.6357 H   0  0  0  0  0  0  0  0  0  0  0  0
   -0.7710    5.1764   30.8724 C   0  0  0  0  0  0  0  0  0  0  0  0
   -0.4759    4.2749   30.9154 H   0  0  0  0  0  0  0  0  0  0  0  0
    0.0641    6.1464   30.3743 C   0  0  0  0  0  0  0  0  0  0  0  0
    0.9297    5.9102   30.0589 H   0  0  0  0  0  0  0  0  0  0  0  0
    0.0341    8.7803   27.8980 C   0  0  0  0  0  0  0  0  0  0  0  0
   -1.1367    9.4148   27.6077 C   0  0  0  0  0  0  0  0  0  0  0  0
   -1.5558    9.9523   28.2671 H   0  0  0  0  0  0  0  0  0  0  0  0
   -1.7397    9.2802   26.3212 C   0  0  0  0  0  0  0  0  0  0  0  0
   -2.5351    9.7526   26.1062 H   0  0  0  0  0  0  0  0  0  0  0  0
   -1.1360    8.4437   25.4003 C   0  0  0  0  0  0  0  0  0  0  0  0
   -1.5431    8.3136   24.5510 H   0  0  0  0  0  0  0  0  0  0  0  0
    0.0028    7.8183   25.6798 C   0  0  0  0  0  0  0  0  0  0  0  0
    0.4160    7.2717   25.0204 H   0  0  0  0  0  0  0  0  0  0  0  0
    0.5999    7.9632   26.9448 C   0  0  0  0  0  0  0  0  0  0  0  0
    1.4011    7.4931   27.1455 H   0  0  0  0  0  0  0  0  0  0  0  0
    4.5102    9.2927   33.5529 C   0  0  0  0  0  0  0  0  0  0  0  0
    4.0097    8.4631   33.4059 H   0  0  0  0  0  0  0  0  0  0  0  0
    5.0102    9.2299   34.3914 H   0  0  0  0  0  0  0  0  0  0  0  0
    5.1342    9.4331   32.8111 H   0  0  0  0  0  0  0  0  0  0  0  0
    4.3190   12.2826   33.7607 C   0  0  0  0  0  0  0  0  0  0  0  0
    4.8277   12.4116   32.9329 H   0  0  0  0  0  0  0  0  0  0  0  0
    4.9383   12.2244   34.5168 H   0  0  0  0  0  0  0  0  0  0  0  0
    3.7115   13.0404   33.8897 H   0  0  0  0  0  0  0  0  0  0  0  0
    2.3343   10.5777   35.2156 C   0  0  0  0  0  0  0  0  0  0  0  0
    1.6434   11.2738   35.2264 H   0  0  0  0  0  0  0  0  0  0  0  0
    2.9247   10.6930   35.9897 H   0  0  0  0  0  0  0  0  0  0  0  0
    1.9086    9.6956   35.2586 H   0  0  0  0  0  0  0  0  0  0  0  0
    3.2559   10.4442   26.5542 C   0  0  0  0  0  0  0  0  0  0  0  0
    3.2074    9.4570   26.6223 H   0  0  0  0  0  0  0  0  0  0  0  0
    4.2042   10.7226   26.6115 H   0  0  0  0  0  0  0  0  0  0  0  0
    2.6188   10.9349   25.2498 C   0  0  0  0  0  0  0  0  0  0  0  0
    1.9412   10.2924   24.9201 H   0  0  0  0  0  0  0  0  0  0  0  0
    3.3034   11.0718   24.5474 H   0  0  0  0  0  0  0  0  0  0  0  0
    1.3939   11.5260   25.6260 C   0  0  0  0  0  0  0  0  0  0  0  0
    0.6639   10.8596   25.5544 H   0  0  0  0  0  0  0  0  0  0  0  0
    1.1886   12.2861   25.0312 H   0  0  0  0  0  0  0  0  0  0  0  0
    1.5231   11.9802   27.0057 C   0  0  0  0  0  0  0  0  0  0  0  0
    0.6290   11.5568   26.9770 H   0  0  0  0  0  0  0  0  0  0  0  0
    1.4583   12.8007   27.5540 H   0  0  0  0  0  0  0  0  0  0  0  0
    2.3616   10.7580   32.1961 N   0  0  0  0  0  0  0  0  0  0  0  0
    2.4788   11.0673   27.6009 O   0  0  0  0  0  0  0  0  0  0  0  0
    0.7884   10.6219   32.0098 P   0  0  0  0  0  0  0  0  0  0  0  0
    0.6795    8.7655   29.5715 P   0  0  0  0  0  0  0  0  0  0  0  0
    2.6082    8.2417   29.6231 S   0  0  0  0  0  0  0  0  0  0  0  0
    3.3335   10.7124   33.6435 Si  0  0  0  0  0  0  0  0  0  0  0  0
    3.0228   11.0742   29.9310 Tb  0  0  0  0  0  0  0  0  0  0  0  0
    6.5621   10.5446   29.9084 H   0  0  0  0  0  0  0  0  0  0  0  0
    5.3203   11.5032   30.5857 H   0  0  0  0  0  0  0  0  0  0  0  0
    5.2449   11.0467   28.9516 H   0  0  0  0  0  0  0  0  0  0  0  0
    3.2312   13.2492   29.0053 H   0  0  0  0  0  0  0  0  0  0  0  0
    2.6912   14.6186   29.8761 H   0  0  0  0  0  0  0  0  0  0  0  0
    1.7468   13.1922   29.8045 H   0  0  0  0  0  0  0  0  0  0  0  0
    3.1897   13.1922   30.7039 H   0  0  0  0  0  0  0  0  0  0  0  0
    5.0108    9.8827   30.1807 H   0  0  0  0  0  0  0  0  0  0  0  0
  1 80  1  0  0  0  0
  2 83  1  0  0  0  0
  3  4  1  0  0  0  0
  5  6  4  0  0  0  0
  6  7  1  0  0  0  0
  8  6  4  0  0  0  0
  9  8  1  0  0  0  0
 10  8  4  0  0  0  0
 11 10  1  0  0  0  0
 12 10  4  0  0  0  0
 13 12  1  0  0  0  0
 14  5  4  0  0  0  0
 15 14  1  0  0  0  0
 16 17  4  0  0  0  0
 17 18  1  0  0  0  0
 19 17  4  0  0  0  0
 20 19  1  0  0  0  0
 21 19  4  0  0  0  0
 22 21  1  0  0  0  0
 23 21  4  0  0  0  0
 24 23  1  0  0  0  0
 25 16  4  0  0  0  0
 26 25  1  0  0  0  0
 27 28  4  0  0  0  0
 28 29  1  0  0  0  0
 30 28  4  0  0  0  0
 31 30  1  0  0  0  0
 32 30  4  0  0  0  0
 33 32  1  0  0  0  0
 34 32  4  0  0  0  0
 35 34  1  0  0  0  0
 36 27  4  0  0  0  0
 37 36  1  0  0  0  0
 38 39  4  0  0  0  0
 39 40  1  0  0  0  0
 41 39  4  0  0  0  0
 42 41  1  0  0  0  0
 43 41  4  0  0  0  0
 44 43  1  0  0  0  0
 45 43  4  0  0  0  0
 46 45  1  0  0  0  0
 47 38  4  0  0  0  0
 48 47  1  0  0  0  0
 49 50  1  0  0  0  0
 51 49  1  0  0  0  0
 52 49  1  0  0  0  0
 53 54  1  0  0  0  0
 55 53  1  0  0  0  0
 56 53  1  0  0  0  0
 57 58  1  0  0  0  0
 59 57  1  0  0  0  0
 60 57  1  0  0  0  0
 61 62  1  0  0  0  0
 63 61  1  0  0  0  0
 64 61  1  0  0  0  0
 65 64  1  0  0  0  0
 66 64  1  0  0  0  0
 67 64  1  0  0  0  0
 68 67  1  0  0  0  0
 69 67  1  0  0  0  0
 70 67  1  0  0  0  0
 71 70  1  0  0  0  0
 72 70  1  0  0  0  0
 73 75  2  0  0  0  0
 74 61  1  0  0  0  0
 75  3  1  0  0  0  0
 76  3  1  0  0  0  0
 77 76  2  0  0  0  0
 78 49  1  0  0  0  0
 79  3  1  0  0  0  0
 81  1  1  0  0  0  0
 82  1  1  0  0  0  0
 83 79  1  0  0  0  0
 84  2  1  0  0  0  0
 85  2  1  0  0  0  0
 86  2  1  0  0  0  0
 87  1  1  0  0  0  0
  5 75  1  0  0  0  0
 12 14  4  0  0  0  0
 16 75  1  0  0  0  0
 23 25  4  0  0  0  0
 27 76  1  0  0  0  0
 34 36  4  0  0  0  0
 38 76  1  0  0  0  0
 45 47  4  0  0  0  0
 53 78  1  0  0  0  0
 57 78  1  0  0  0  0
 70 74  1  0  0  0  0
 73 78  1  0  0  0  0
 73 79  1  0  0  0  0
 74 79  1  0  0  0  0
 77 79  1  0  0  0  0
 79 81  1  0  0  0  0
 79 82  1  0  0  0  0
 79 85  1  0  0  0  0
 79 86  1  0  0  0  0
 79 87  1  0  0  0  0
M  END
$$$$
YOVQAD

From CSD data. Using bond type 'Any'. No disordered atoms. Largest molecule.
 87 97  0  0  0  0  0  0  0  0999 V2000
    5.5892   10.7515   29.8834 B   0  0  0  0  0  0  0  0  0  0  0  0
    2.8081   13.5568   29.8369 B   0  0  0  0  0  0  0  0  0  0  0  0
    0.5813   10.3307   30.2485 C   0  0  0  0  0  0  0  0  0  0  0  0
   -0.1065   10.9214   29.8262 H   0  0  0  0  0  0  0  0  0  0  0  0
   -0.6842    5.1671   30.8284 C   0  0  0  0  0  0  0  0  0  0  0  0
   -0.4057    4.2593   30.8570 H   0  0  0  0  0  0  0  0  0  0  0  0
   -0.0364   12.0949   32.3961 C   0  0  0  0  0  0  0  0  0  0  0  0
    0.5869   13.0756   33.1728 C   0  0  0  0  0  0  0  0  0  0  0  0
    1.5091   12.9775   33.3768 H   0  0  0  0  0  0  0  0  0  0  0  0
   -0.0807   14.1715   33.6488 C   0  0  0  0  0  0  0  0  0  0  0  0
    0.3706   14.8204   34.1786 H   0  0  0  0  0  0  0  0  0  0  0  0
   -1.3987   14.3152   33.3589 C   0  0  0  0  0  0  0  0  0  0  0  0
   -1.8854   15.0382   33.7383 H   0  0  0  0  0  0  0  0  0  0  0  0
   -2.0475   13.4211   32.5142 C   0  0  0  0  0  0  0  0  0  0  0  0
   -2.9483   13.5751   32.2529 H   0  0  0  0  0  0  0  0  0  0  0  0
   -1.3640   12.2979   32.0596 C   0  0  0  0  0  0  0  0  0  0  0  0
   -1.8125   11.6649   31.5084 H   0  0  0  0  0  0  0  0  0  0  0  0
    0.2401    9.3203   33.0654 C   0  0  0  0  0  0  0  0  0  0  0  0
   -0.9103    9.4914   33.8314 C   0  0  0  0  0  0  0  0  0  0  0  0
   -1.3815   10.3159   33.8027 H   0  0  0  0  0  0  0  0  0  0  0  0
   -1.3696    8.4468   34.6439 C   0  0  0  0  0  0  0  0  0  0  0  0
   -2.1495    8.5688   35.1736 H   0  0  0  0  0  0  0  0  0  0  0  0
   -0.7045    7.2562   34.6797 C   0  0  0  0  0  0  0  0  0  0  0  0
   -1.0276    6.5492   35.2273 H   0  0  0  0  0  0  0  0  0  0  0  0
    0.4346    7.0806   33.9244 C   0  0  0  0  0  0  0  0  0  0  0  0
    0.8975    6.2516   33.9566 H   0  0  0  0  0  0  0  0  0  0  0  0
    0.9063    8.1001   33.1227 C   0  0  0  0  0  0  0  0  0  0  0  0
    1.6932    7.9667   32.6073 H   0  0  0  0  0  0  0  0  0  0  0  0
   -0.2806    7.4638   30.2736 C   0  0  0  0  0  0  0  0  0  0  0  0
   -1.5448    7.7979   30.7317 C   0  0  0  0  0  0  0  0  0  0  0  0
   -1.8381    8.7000   30.6959 H   0  0  0  0  0  0  0  0  0  0  0  0
   -2.3741    6.8252   31.2328 C   0  0  0  0  0  0  0  0  0  0  0  0
   -3.2403    7.0567   31.5442 H   0  0  0  0  0  0  0  0  0  0  0  0
   -1.9588    5.5388   31.2829 C   0  0  0  0  0  0  0  0  0  0  0  0
   -2.5411    4.8751   31.6337 H   0  0  0  0  0  0  0  0  0  0  0  0
    0.1520    6.1398   30.3416 C   0  0  0  0  0  0  0  0  0  0  0  0
    1.0267    5.9106   30.0481 H   0  0  0  0  0  0  0  0  0  0  0  0
    0.1109    8.7775   27.8432 C   0  0  0  0  0  0  0  0  0  0  0  0
   -1.0916    9.4252   27.5354 C   0  0  0  0  0  0  0  0  0  0  0  0
   -1.5036    9.9760   28.1904 H   0  0  0  0  0  0  0  0  0  0  0  0
   -1.6919    9.2827   26.2934 C   0  0  0  0  0  0  0  0  0  0  0  0
   -2.5049    9.7263   26.0822 H   0  0  0  0  0  0  0  0  0  0  0  0
   -1.0513    8.4559   25.3664 C   0  0  0  0  0  0  0  0  0  0  0  0
   -1.4381    8.3510   24.5038 H   0  0  0  0  0  0  0  0  0  0  0  0
    0.0846    7.8082   25.6420 C   0  0  0  0  0  0  0  0  0  0  0  0
    0.4873    7.2426   24.9977 H   0  0  0  0  0  0  0  0  0  0  0  0
    0.6598    7.9735   26.8804 C   0  0  0  0  0  0  0  0  0  0  0  0
    1.4683    7.5140   27.0737 H   0  0  0  0  0  0  0  0  0  0  0  0
    4.5816    9.2405   33.5021 C   0  0  0  0  0  0  0  0  0  0  0  0
    4.0589    8.4171   33.4090 H   0  0  0  0  0  0  0  0  0  0  0  0
    5.1191    9.1983   34.3182 H   0  0  0  0  0  0  0  0  0  0  0  0
    5.1739    9.3397   32.7254 H   0  0  0  0  0  0  0  0  0  0  0  0
    4.4141   12.2397   33.7061 C   0  0  0  0  0  0  0  0  0  0  0  0
    4.9274   12.3629   32.8793 H   0  0  0  0  0  0  0  0  0  0  0  0
    5.0285   12.1804   34.4685 H   0  0  0  0  0  0  0  0  0  0  0  0
    3.8104   13.0026   33.8314 H   0  0  0  0  0  0  0  0  0  0  0  0
    2.4245   10.5371   35.1521 C   0  0  0  0  0  0  0  0  0  0  0  0
    1.7135   11.2122   35.1521 H   0  0  0  0  0  0  0  0  0  0  0  0
    3.0041   10.6728   35.9324 H   0  0  0  0  0  0  0  0  0  0  0  0
    2.0255    9.6431   35.1951 H   0  0  0  0  0  0  0  0  0  0  0  0
    3.3364   10.4105   26.5189 C   0  0  0  0  0  0  0  0  0  0  0  0
    3.2665    9.4264   26.5941 H   0  0  0  0  0  0  0  0  0  0  0  0
    4.2921   10.6671   26.5654 H   0  0  0  0  0  0  0  0  0  0  0  0
    2.7305   10.8838   25.2375 C   0  0  0  0  0  0  0  0  0  0  0  0
    2.1044   10.2098   24.8688 H   0  0  0  0  0  0  0  0  0  0  0  0
    3.4285   11.0799   24.5610 H   0  0  0  0  0  0  0  0  0  0  0  0
    1.4440   11.4380   25.5811 C   0  0  0  0  0  0  0  0  0  0  0  0
    0.7426   10.7435   25.5597 H   0  0  0  0  0  0  0  0  0  0  0  0
    1.1952   12.1644   24.9548 H   0  0  0  0  0  0  0  0  0  0  0  0
    1.6183   11.9808   26.9735 C   0  0  0  0  0  0  0  0  0  0  0  0
    0.7073   11.5954   27.0200 H   0  0  0  0  0  0  0  0  0  0  0  0
    1.6170   12.8384   27.4674 H   0  0  0  0  0  0  0  0  0  0  0  0
    3.1041   11.0643   29.8899 Dy  0  0  0  0  0  0  0  0  0  0  0  0
    2.4566   10.7561   32.1434 N   0  0  0  0  0  0  0  0  0  0  0  0
    2.5692   11.0674   27.5776 O   0  0  0  0  0  0  0  0  0  0  0  0
    0.8836   10.6086   31.9605 P   0  0  0  0  0  0  0  0  0  0  0  0
    0.7670    8.7570   29.5269 P   0  0  0  0  0  0  0  0  0  0  0  0
    2.6955    8.2392   29.5652 S   0  0  0  0  0  0  0  0  0  0  0  0
    3.4320   10.6968   33.5912 Si  0  0  0  0  0  0  0  0  0  0  0  0
    6.6208   10.6626   29.8763 H   0  0  0  0  0  0  0  0  0  0  0  0
    2.5404   14.5512   29.7939 H   0  0  0  0  0  0  0  0  0  0  0  0
    3.4652   13.3310   29.0459 H   0  0  0  0  0  0  0  0  0  0  0  0
    5.2830   11.4950   30.5492 H   0  0  0  0  0  0  0  0  0  0  0  0
    1.9798   12.9319   29.7939 H   0  0  0  0  0  0  0  0  0  0  0  0
    5.1654    9.8415   30.1733 H   0  0  0  0  0  0  0  0  0  0  0  0
    3.3421   13.3653   30.7246 H   0  0  0  0  0  0  0  0  0  0  0  0
    5.2417   10.9819   28.9242 H   0  0  0  0  0  0  0  0  0  0  0  0
  1 80  1  0  0  0  0
  2 81  1  0  0  0  0
  3  4  1  0  0  0  0
  5  6  1  0  0  0  0
  7  8  4  0  0  0  0
  8  9  1  0  0  0  0
 10  8  4  0  0  0  0
 11 10  1  0  0  0  0
 12 10  4  0  0  0  0
 13 12  1  0  0  0  0
 14 12  4  0  0  0  0
 15 14  1  0  0  0  0
 16  7  4  0  0  0  0
 17 16  1  0  0  0  0
 18 19  4  0  0  0  0
 19 20  1  0  0  0  0
 21 19  4  0  0  0  0
 22 21  1  0  0  0  0
 23 21  4  0  0  0  0
 24 23  1  0  0  0  0
 25 23  4  0  0  0  0
 26 25  1  0  0  0  0
 27 18  4  0  0  0  0
 28 27  1  0  0  0  0
 29 30  4  0  0  0  0
 30 31  1  0  0  0  0
 32 30  4  0  0  0  0
 33 32  1  0  0  0  0
 34  5  4  0  0  0  0
 35 34  1  0  0  0  0
 36  5  4  0  0  0  0
 37 36  1  0  0  0  0
 38 39  4  0  0  0  0
 39 40  1  0  0  0  0
 41 39  4  0  0  0  0
 42 41  1  0  0  0  0
 43 41  4  0  0  0  0
 44 43  1  0  0  0  0
 45 43  4  0  0  0  0
 46 45  1  0  0  0  0
 47 38  4  0  0  0  0
 48 47  1  0  0  0  0
 49 50  1  0  0  0  0
 51 49  1  0  0  0  0
 52 49  1  0  0  0  0
 53 54  1  0  0  0  0
 55 53  1  0  0  0  0
 56 53  1  0  0  0  0
 57 58  1  0  0  0  0
 59 57  1  0  0  0  0
 60 57  1  0  0  0  0
 61 62  1  0  0  0  0
 63 61  1  0  0  0  0
 64 61  1  0  0  0  0
 65 64  1  0  0  0  0
 66 64  1  0  0  0  0
 67 64  1  0  0  0  0
 68 67  1  0  0  0  0
 69 67  1  0  0  0  0
 70 67  1  0  0  0  0
 71 70  1  0  0  0  0
 72 70  1  0  0  0  0
 73  3  1  0  0  0  0
 74 73  1  0  0  0  0
 75 61  1  0  0  0  0
 76  3  1  0  0  0  0
 77  3  1  0  0  0  0
 78 73  1  0  0  0  0
 79 49  1  0  0  0  0
 82  2  1  0  0  0  0
 83  1  1  0  0  0  0
 84  2  1  0  0  0  0
 85  1  1  0  0  0  0
 86  2  1  0  0  0  0
 87  1  1  0  0  0  0
  7 76  1  0  0  0  0
 14 16  4  0  0  0  0
 18 76  1  0  0  0  0
 25 27  4  0  0  0  0
 29 36  4  0  0  0  0
 29 77  1  0  0  0  0
 32 34  4  0  0  0  0
 38 77  1  0  0  0  0
 45 47  4  0  0  0  0
 53 79  1  0  0  0  0
 57 79  1  0  0  0  0
 70 75  1  0  0  0  0
 73 75  1  0  0  0  0
 73 82  1  0  0  0  0
 73 83  1  0  0  0  0
 73 84  1  0  0  0  0
 73 85  1  0  0  0  0
 73 86  1  0  0  0  0
 73 87  1  0  0  0  0
 74 76  2  0  0  0  0
 74 79  1  0  0  0  0
 77 78  2  0  0  0  0
M  END
$$$$
YOVQEH

From CSD data. Using bond type 'Any'. No disordered atoms. Largest molecule.
 87 97  0  0  0  0  0  0  0  0999 V2000
    5.7707    5.0243   29.8413 B   0  0  0  0  0  0  0  0  0  0  0  0
    6.8980    4.9809   29.9020 H   0  0  0  0  0  0  0  0  0  0  0  0
    5.0862    4.0555   30.1521 H   0  0  0  0  0  0  0  0  0  0  0  0
    5.4132    5.9748   30.3665 H   0  0  0  0  0  0  0  0  0  0  0  0
    5.3412    5.1522   28.7588 H   0  0  0  0  0  0  0  0  0  0  0  0
    2.9733    7.8574   29.7663 B   0  0  0  0  0  0  0  0  0  0  0  0
    2.8247    9.0478   29.7591 H   0  0  0  0  0  0  0  0  0  0  0  0
    3.6642    6.9001   29.1875 H   0  0  0  0  0  0  0  0  0  0  0  0
    2.1551    7.0829   29.6877 H   0  0  0  0  0  0  0  0  0  0  0  0
    3.4831    7.3685   30.4629 H   0  0  0  0  0  0  0  0  0  0  0  0
    0.7642    4.6347   30.1950 C   0  0  0  0  0  0  0  0  0  0  0  0
    0.0746    5.2276   29.7770 H   0  0  0  0  0  0  0  0  0  0  0  0
    0.1776    6.4271   32.3364 C   0  0  0  0  0  0  0  0  0  0  0  0
    0.8129    7.3890   33.1066 C   0  0  0  0  0  0  0  0  0  0  0  0
    1.7376    7.2954   33.2995 H   0  0  0  0  0  0  0  0  0  0  0  0
    0.1254    8.4789   33.5889 C   0  0  0  0  0  0  0  0  0  0  0  0
    0.5682    9.1164   34.1391 H   0  0  0  0  0  0  0  0  0  0  0  0
   -1.2098    8.6423   33.2745 C   0  0  0  0  0  0  0  0  0  0  0  0
   -1.6923    9.3860   33.6210 H   0  0  0  0  0  0  0  0  0  0  0  0
   -1.8428    7.7295   32.4635 C   0  0  0  0  0  0  0  0  0  0  0  0
   -2.7518    7.8654   32.2242 H   0  0  0  0  0  0  0  0  0  0  0  0
   -1.1680    6.6122   31.9955 C   0  0  0  0  0  0  0  0  0  0  0  0
   -1.6137    5.9782   31.4454 H   0  0  0  0  0  0  0  0  0  0  0  0
    0.4182    3.6271   32.9844 C   0  0  0  0  0  0  0  0  0  0  0  0
   -0.7239    3.7939   33.7639 C   0  0  0  0  0  0  0  0  0  0  0  0
   -1.1962    4.6176   33.7425 H   0  0  0  0  0  0  0  0  0  0  0  0
   -1.1746    2.7612   34.5749 C   0  0  0  0  0  0  0  0  0  0  0  0
   -1.9486    2.8880   35.1108 H   0  0  0  0  0  0  0  0  0  0  0  0
   -0.5139    1.5582   34.6071 C   0  0  0  0  0  0  0  0  0  0  0  0
   -0.8446    0.8557   35.1537 H   0  0  0  0  0  0  0  0  0  0  0  0
    0.6392    1.3572   33.8497 C   0  0  0  0  0  0  0  0  0  0  0  0
    1.0963    0.5244   33.8675 H   0  0  0  0  0  0  0  0  0  0  0  0
    1.1025    2.4082   33.0566 C   0  0  0  0  0  0  0  0  0  0  0  0
    1.9019    2.2951   32.5600 H   0  0  0  0  0  0  0  0  0  0  0  0
   -0.0634    1.7696   30.1914 C   0  0  0  0  0  0  0  0  0  0  0  0
   -1.3319    2.1089   30.6558 C   0  0  0  0  0  0  0  0  0  0  0  0
   -1.6268    3.0114   30.6237 H   0  0  0  0  0  0  0  0  0  0  0  0
   -2.1686    1.1150   31.1667 C   0  0  0  0  0  0  0  0  0  0  0  0
   -3.0360    1.3412   31.4775 H   0  0  0  0  0  0  0  0  0  0  0  0
   -1.7451   -0.1702   31.2167 C   0  0  0  0  0  0  0  0  0  0  0  0
   -2.3235   -0.8408   31.5597 H   0  0  0  0  0  0  0  0  0  0  0  0
   -0.4686   -0.5255   30.7666 C   0  0  0  0  0  0  0  0  0  0  0  0
   -0.1790   -1.4291   30.8095 H   0  0  0  0  0  0  0  0  0  0  0  0
    0.3672    0.4547   30.2629 C   0  0  0  0  0  0  0  0  0  0  0  0
    1.2401    0.2251   29.9628 H   0  0  0  0  0  0  0  0  0  0  0  0
    0.2798    3.0833   27.7585 C   0  0  0  0  0  0  0  0  0  0  0  0
   -0.9094    3.7334   27.4870 C   0  0  0  0  0  0  0  0  0  0  0  0
   -1.3102    4.2920   28.1444 H   0  0  0  0  0  0  0  0  0  0  0  0
   -1.5148    3.5620   26.2474 C   0  0  0  0  0  0  0  0  0  0  0  0
   -2.3322    4.0064   26.0544 H   0  0  0  0  0  0  0  0  0  0  0  0
   -0.9328    2.7520   25.2935 C   0  0  0  0  0  0  0  0  0  0  0  0
   -1.3480    2.6447   24.4468 H   0  0  0  0  0  0  0  0  0  0  0  0
    0.2317    2.1066   25.5650 C   0  0  0  0  0  0  0  0  0  0  0  0
    0.6227    1.5411   24.9077 H   0  0  0  0  0  0  0  0  0  0  0  0
    0.8612    2.2757   26.8082 C   0  0  0  0  0  0  0  0  0  0  0  0
    1.6816    1.8347   26.9940 H   0  0  0  0  0  0  0  0  0  0  0  0
    4.8033    3.5643   33.4460 C   0  0  0  0  0  0  0  0  0  0  0  0
    4.3027    2.7395   33.2745 H   0  0  0  0  0  0  0  0  0  0  0  0
    5.2809    3.4877   34.2963 H   0  0  0  0  0  0  0  0  0  0  0  0
    5.4487    3.7094   32.7208 H   0  0  0  0  0  0  0  0  0  0  0  0
    4.6182    6.5734   33.6496 C   0  0  0  0  0  0  0  0  0  0  0  0
    5.0225    6.7756   32.7779 H   0  0  0  0  0  0  0  0  0  0  0  0
    5.3234    6.4614   34.3177 H   0  0  0  0  0  0  0  0  0  0  0  0
    4.0291    7.3102   33.9140 H   0  0  0  0  0  0  0  0  0  0  0  0
    2.6292    4.8621   35.0751 C   0  0  0  0  0  0  0  0  0  0  0  0
    1.9295    5.5475   35.0786 H   0  0  0  0  0  0  0  0  0  0  0  0
    3.2147    4.9900   35.8503 H   0  0  0  0  0  0  0  0  0  0  0  0
    2.2172    3.9744   35.1215 H   0  0  0  0  0  0  0  0  0  0  0  0
    3.5039    4.7444   26.4581 C   0  0  0  0  0  0  0  0  0  0  0  0
    3.4610    3.7585   26.5332 H   0  0  0  0  0  0  0  0  0  0  0  0
    4.4525    5.0243   26.5010 H   0  0  0  0  0  0  0  0  0  0  0  0
    2.8824    5.1991   25.1827 C   0  0  0  0  0  0  0  0  0  0  0  0
    3.4607    5.8697   24.7397 H   0  0  0  0  0  0  0  0  0  0  0  0
    2.7625    4.4325   24.5683 H   0  0  0  0  0  0  0  0  0  0  0  0
    1.6320    5.7691   25.5043 C   0  0  0  0  0  0  0  0  0  0  0  0
    0.9150    5.0860   25.4578 H   0  0  0  0  0  0  0  0  0  0  0  0
    1.4116    6.5025   24.8755 H   0  0  0  0  0  0  0  0  0  0  0  0
    1.7670    6.3106   26.9404 C   0  0  0  0  0  0  0  0  0  0  0  0
    2.1147    7.2382   26.9440 H   0  0  0  0  0  0  0  0  0  0  0  0
    0.9010    6.2855   27.4191 H   0  0  0  0  0  0  0  0  0  0  0  0
    3.2821    5.3668   29.8313 Er  0  0  0  0  0  0  0  0  0  0  0  0
    2.6728    5.0506   32.0638 N   0  0  0  0  0  0  0  0  0  0  0  0
    2.7359    5.3738   27.5381 O   0  0  0  0  0  0  0  0  0  0  0  0
    1.0838    4.9143   31.8912 P   0  0  0  0  0  0  0  0  0  0  0  0
    0.9609    3.0745   29.4548 P   0  0  0  0  0  0  0  0  0  0  0  0
    2.8928    2.5627   29.4866 S   0  0  0  0  0  0  0  0  0  0  0  0
    3.6264    4.9991   33.5207 Si  0  0  0  0  0  0  0  0  0  0  0  0
  1  2  1  0  0  0  0
  3  1  1  0  0  0  0
  4  1  1  0  0  0  0
  5  1  1  0  0  0  0
  6  7  1  0  0  0  0
  8  6  1  0  0  0  0
  9  6  1  0  0  0  0
 10  6  1  0  0  0  0
 11 12  1  0  0  0  0
 13 14  4  0  0  0  0
 14 15  1  0  0  0  0
 16 14  4  0  0  0  0
 17 16  1  0  0  0  0
 18 16  4  0  0  0  0
 19 18  1  0  0  0  0
 20 18  4  0  0  0  0
 21 20  1  0  0  0  0
 22 13  4  0  0  0  0
 23 22  1  0  0  0  0
 24 25  4  0  0  0  0
 25 26  1  0  0  0  0
 27 25  4  0  0  0  0
 28 27  1  0  0  0  0
 29 27  4  0  0  0  0
 30 29  1  0  0  0  0
 31 29  4  0  0  0  0
 32 31  1  0  0  0  0
 33 24  4  0  0  0  0
 34 33  1  0  0  0  0
 35 36  4  0  0  0  0
 36 37  1  0  0  0  0
 38 36  4  0  0  0  0
 39 38  1  0  0  0  0
 40 38  4  0  0  0  0
 41 40  1  0  0  0  0
 42 40  4  0  0  0  0
 43 42  1  0  0  0  0
 44 35  4  0  0  0  0
 45 44  1  0  0  0  0
 46 47  4  0  0  0  0
 47 48  1  0  0  0  0
 49 47  4  0  0  0  0
 50 49  1  0  0  0  0
 51 49  4  0  0  0  0
 52 51  1  0  0  0  0
 53 51  4  0  0  0  0
 54 53  1  0  0  0  0
 55 46  4  0  0  0  0
 56 55  1  0  0  0  0
 57 58  1  0  0  0  0
 59 57  1  0  0  0  0
 60 57  1  0  0  0  0
 61 62  1  0  0  0  0
 63 61  1  0  0  0  0
 64 61  1  0  0  0  0
 65 66  1  0  0  0  0
 67 65  1  0  0  0  0
 68 65  1  0  0  0  0
 69 70  1  0  0  0  0
 71 69  1  0  0  0  0
 72 69  1  0  0  0  0
 73 72  1  0  0  0  0
 74 72  1  0  0  0  0
 75 72  1  0  0  0  0
 76 75  1  0  0  0  0
 77 75  1  0  0  0  0
 78 75  1  0  0  0  0
 79 78  1  0  0  0  0
 80 78  1  0  0  0  0
 81  3  1  0  0  0  0
 82 81  1  0  0  0  0
 83 69  1  0  0  0  0
 84 11  1  0  0  0  0
 85 11  1  0  0  0  0
 86 81  1  0  0  0  0
 87 57  1  0  0  0  0
  4 81  1  0  0  0  0
  5 81  1  0  0  0  0
  8 81  1  0  0  0  0
  9 81  1  0  0  0  0
 10 81  1  0  0  0  0
 11 81  1  0  0  0  0
 13 84  1  0  0  0  0
 20 22  4  0  0  0  0
 24 84  1  0  0  0  0
 31 33  4  0  0  0  0
 35 85  1  0  0  0  0
 42 44  4  0  0  0  0
 46 85  1  0  0  0  0
 53 55  4  0  0  0  0
 61 87  1  0  0  0  0
 65 87  1  0  0  0  0
 78 83  1  0  0  0  0
 81 83  1  0  0  0  0
 82 84  2  0  0  0  0
 82 87  1  0  0  0  0
 85 86  2  0  0  0  0
M  END
$$$$
YOVQIL

From CSD data. Using bond type 'Any'. No disordered atoms. Largest molecule.
 87 97  0  0  0  0  0  0  0  0999 V2000
   -0.4345    0.7501    5.8923 B   0  0  0  0  0  0  0  0  0  0  0  0
    2.2914   -2.0776    5.9116 B   0  0  0  0  0  0  0  0  0  0  0  0
    4.5263    1.1258    5.5539 C   0  0  0  0  0  0  0  0  0  0  0  0
    5.2115    0.5310    5.9733 H   0  0  0  0  0  0  0  0  0  0  0  0
    5.0275    2.6898    7.9671 C   0  0  0  0  0  0  0  0  0  0  0  0
    4.4406    3.4863    8.9357 C   0  0  0  0  0  0  0  0  0  0  0  0
    3.6156    3.9211    8.7584 H   0  0  0  0  0  0  0  0  0  0  0  0
    5.0616    3.6510   10.1717 C   0  0  0  0  0  0  0  0  0  0  0  0
    4.6624    4.2051   10.8304 H   0  0  0  0  0  0  0  0  0  0  0  0
    6.2247    3.0284   10.4349 C   0  0  0  0  0  0  0  0  0  0  0  0
    6.6387    3.1489   11.2797 H   0  0  0  0  0  0  0  0  0  0  0  0
    6.8200    2.2237    9.5006 C   0  0  0  0  0  0  0  0  0  0  0  0
    7.6403    1.7878    9.6999 H   0  0  0  0  0  0  0  0  0  0  0  0
    6.2142    2.0475    8.2538 C   0  0  0  0  0  0  0  0  0  0  0  0
    6.6202    1.4864    7.6030 H   0  0  0  0  0  0  0  0  0  0  0  0
    5.3443    4.0092    5.5386 C   0  0  0  0  0  0  0  0  0  0  0  0
    4.8832    5.3240    5.4765 C   0  0  0  0  0  0  0  0  0  0  0  0
    4.0114    5.5454    5.7843 H   0  0  0  0  0  0  0  0  0  0  0  0
    5.7209    6.3071    4.9566 C   0  0  0  0  0  0  0  0  0  0  0  0
    5.4139    7.2045    4.8963 H   0  0  0  0  0  0  0  0  0  0  0  0
    6.9862    5.9929    4.5304 C   0  0  0  0  0  0  0  0  0  0  0  0
    7.5559    6.6758    4.1938 H   0  0  0  0  0  0  0  0  0  0  0  0
    7.4364    4.6956    4.5857 C   0  0  0  0  0  0  0  0  0  0  0  0
    8.3120    4.4834    4.2794 H   0  0  0  0  0  0  0  0  0  0  0  0
    6.6233    3.7031    5.0818 C   0  0  0  0  0  0  0  0  0  0  0  0
    6.9339    2.8057    5.1138 H   0  0  0  0  0  0  0  0  0  0  0  0
    4.8846    2.1472    2.7363 C   0  0  0  0  0  0  0  0  0  0  0  0
    4.2217    3.3553    2.6678 C   0  0  0  0  0  0  0  0  0  0  0  0
    3.4330    3.4852    3.1810 H   0  0  0  0  0  0  0  0  0  0  0  0
    4.6833    4.3814    1.8658 C   0  0  0  0  0  0  0  0  0  0  0  0
    4.2250    5.2138    1.8437 H   0  0  0  0  0  0  0  0  0  0  0  0
    5.8143    4.1935    1.0952 C   0  0  0  0  0  0  0  0  0  0  0  0
    6.1361    4.8903    0.5349 H   0  0  0  0  0  0  0  0  0  0  0  0
    6.4694    2.9831    1.1476 C   0  0  0  0  0  0  0  0  0  0  0  0
    7.2440    2.8510    0.6134 H   0  0  0  0  0  0  0  0  0  0  0  0
    6.0275    1.9629    1.9571 C   0  0  0  0  0  0  0  0  0  0  0  0
    6.4967    1.1374    1.9863 H   0  0  0  0  0  0  0  0  0  0  0  0
    5.1232   -0.6551    3.4050 C   0  0  0  0  0  0  0  0  0  0  0  0
    6.4512   -0.8545    3.7484 C   0  0  0  0  0  0  0  0  0  0  0  0
    6.8993   -0.2203    4.2936 H   0  0  0  0  0  0  0  0  0  0  0  0
    7.1297   -1.9768    3.2983 C   0  0  0  0  0  0  0  0  0  0  0  0
    8.0393   -2.1101    3.5376 H   0  0  0  0  0  0  0  0  0  0  0  0
    6.4889   -2.8950    2.5052 C   0  0  0  0  0  0  0  0  0  0  0  0
    6.9653   -3.6475    2.1753 H   0  0  0  0  0  0  0  0  0  0  0  0
    5.1666   -2.7339    2.1871 C   0  0  0  0  0  0  0  0  0  0  0  0
    4.7228   -3.3843    1.6547 H   0  0  0  0  0  0  0  0  0  0  0  0
    4.4758   -1.6243    2.6411 C   0  0  0  0  0  0  0  0  0  0  0  0
    3.5545   -1.5223    2.4321 H   0  0  0  0  0  0  0  0  0  0  0  0
    0.5268    2.2504    2.2887 C   0  0  0  0  0  0  0  0  0  0  0  0
    1.0531    3.0770    2.3251 H   0  0  0  0  0  0  0  0  0  0  0  0
   -0.0402    2.1878    3.0847 H   0  0  0  0  0  0  0  0  0  0  0  0
   -0.0362    2.2585    1.4871 H   0  0  0  0  0  0  0  0  0  0  0  0
    2.6670    0.8997    0.6544 C   0  0  0  0  0  0  0  0  0  0  0  0
    2.0870    0.7153   -0.1141 H   0  0  0  0  0  0  0  0  0  0  0  0
    3.3912    0.2400    0.6811 H   0  0  0  0  0  0  0  0  0  0  0  0
    3.0478    1.7982    0.5670 H   0  0  0  0  0  0  0  0  0  0  0  0
    0.6313   -0.7420    2.1079 C   0  0  0  0  0  0  0  0  0  0  0  0
    0.1471   -0.8753    2.9492 H   0  0  0  0  0  0  0  0  0  0  0  0
    1.2101   -1.5153    1.9400 H   0  0  0  0  0  0  0  0  0  0  0  0
   -0.0099   -0.6469    1.3730 H   0  0  0  0  0  0  0  0  0  0  0  0
    1.7644    0.9704    9.2302 C   0  0  0  0  0  0  0  0  0  0  0  0
    0.8304    0.6458    9.1828 H   0  0  0  0  0  0  0  0  0  0  0  0
    1.7627    1.9582    9.1579 H   0  0  0  0  0  0  0  0  0  0  0  0
    2.4159    0.5322   10.5194 C   0  0  0  0  0  0  0  0  0  0  0  0
    1.7357    0.3281   11.2084 H   0  0  0  0  0  0  0  0  0  0  0  0
    3.0248    1.2324   10.8660 H   0  0  0  0  0  0  0  0  0  0  0  0
    3.6138   -0.0359   10.1992 C   0  0  0  0  0  0  0  0  0  0  0  0
    3.8113   -0.7861   10.8125 H   0  0  0  0  0  0  0  0  0  0  0  0
    4.3407    0.6319   10.2741 H   0  0  0  0  0  0  0  0  0  0  0  0
    3.5142   -0.5484    8.7510 C   0  0  0  0  0  0  0  0  0  0  0  0
    3.4837   -1.4052    8.2556 H   0  0  0  0  0  0  0  0  0  0  0  0
    4.4291   -0.1797    8.6693 H   0  0  0  0  0  0  0  0  0  0  0  0
    2.6377    0.7316    3.6767 N   0  0  0  0  0  0  0  0  0  0  0  0
    2.5649    0.3826    8.1665 O   0  0  0  0  0  0  0  0  0  0  0  0
    4.3351    2.6998    6.2843 P   0  0  0  0  0  0  0  0  0  0  0  0
    4.2232    0.8573    3.8450 P   0  0  0  0  0  0  0  0  0  0  0  0
    2.3996    3.1926    6.2532 S   0  0  0  0  0  0  0  0  0  0  0  0
    1.6689    0.7936    2.2274 Si  0  0  0  0  0  0  0  0  0  0  0  0
    2.0357    0.4075    5.8906 Yb  0  0  0  0  0  0  0  0  0  0  0  0
    3.2106   -1.4492    6.0054 H   0  0  0  0  0  0  0  0  0  0  0  0
    1.6819   -1.6579    4.9569 H   0  0  0  0  0  0  0  0  0  0  0  0
   -1.5023    0.8580    5.8770 H   0  0  0  0  0  0  0  0  0  0  0  0
    0.1887    1.5536    5.3349 H   0  0  0  0  0  0  0  0  0  0  0  0
    0.0059    0.5449    6.8541 H   0  0  0  0  0  0  0  0  0  0  0  0
    1.6956   -1.6695    6.8648 H   0  0  0  0  0  0  0  0  0  0  0  0
   -0.0060   -0.1623    5.2422 H   0  0  0  0  0  0  0  0  0  0  0  0
    2.5323   -3.1768    5.9269 H   0  0  0  0  0  0  0  0  0  0  0  0
  1 82  1  0  0  0  0
  2 80  1  0  0  0  0
  3  4  1  0  0  0  0
  5  6  4  0  0  0  0
  6  7  1  0  0  0  0
  8  6  4  0  0  0  0
  9  8  1  0  0  0  0
 10  8  4  0  0  0  0
 11 10  1  0  0  0  0
 12 10  4  0  0  0  0
 13 12  1  0  0  0  0
 14  5  4  0  0  0  0
 15 14  1  0  0  0  0
 16 17  4  0  0  0  0
 17 18  1  0  0  0  0
 19 17  4  0  0  0  0
 20 19  1  0  0  0  0
 21 19  4  0  0  0  0
 22 21  1  0  0  0  0
 23 21  4  0  0  0  0
 24 23  1  0  0  0  0
 25 16  4  0  0  0  0
 26 25  1  0  0  0  0
 27 28  4  0  0  0  0
 28 29  1  0  0  0  0
 30 28  4  0  0  0  0
 31 30  1  0  0  0  0
 32 30  4  0  0  0  0
 33 32  1  0  0  0  0
 34 32  4  0  0  0  0
 35 34  1  0  0  0  0
 36 27  4  0  0  0  0
 37 36  1  0  0  0  0
 38 39  4  0  0  0  0
 39 40  1  0  0  0  0
 41 39  4  0  0  0  0
 42 41  1  0  0  0  0
 43 41  4  0  0  0  0
 44 43  1  0  0  0  0
 45 43  4  0  0  0  0
 46 45  1  0  0  0  0
 47 38  4  0  0  0  0
 48 47  1  0  0  0  0
 49 50  1  0  0  0  0
 51 49  1  0  0  0  0
 52 49  1  0  0  0  0
 53 54  1  0  0  0  0
 55 53  1  0  0  0  0
 56 53  1  0  0  0  0
 57 58  1  0  0  0  0
 59 57  1  0  0  0  0
 60 57  1  0  0  0  0
 61 62  1  0  0  0  0
 63 61  1  0  0  0  0
 64 61  1  0  0  0  0
 65 64  1  0  0  0  0
 66 64  1  0  0  0  0
 67 64  1  0  0  0  0
 68 67  1  0  0  0  0
 69 67  1  0  0  0  0
 70 67  1  0  0  0  0
 71 70  1  0  0  0  0
 72 70  1  0  0  0  0
 73 76  2  0  0  0  0
 74 61  1  0  0  0  0
 75  3  1  0  0  0  0
 76  3  1  0  0  0  0
 77 75  2  0  0  0  0
 78 49  1  0  0  0  0
 79  3  1  0  0  0  0
 80 79  1  0  0  0  0
 81  2  1  0  0  0  0
 83  1  1  0  0  0  0
 84  1  1  0  0  0  0
 85  2  1  0  0  0  0
 86  1  1  0  0  0  0
 87  2  1  0  0  0  0
  5 75  1  0  0  0  0
 12 14  4  0  0  0  0
 16 75  1  0  0  0  0
 23 25  4  0  0  0  0
 27 76  1  0  0  0  0
 34 36  4  0  0  0  0
 38 76  1  0  0  0  0
 45 47  4  0  0  0  0
 53 78  1  0  0  0  0
 57 78  1  0  0  0  0
 70 74  1  0  0  0  0
 73 78  1  0  0  0  0
 73 79  1  0  0  0  0
 74 79  1  0  0  0  0
 77 79  1  0  0  0  0
 79 81  1  0  0  0  0
 79 83  1  0  0  0  0
 79 84  1  0  0  0  0
 79 85  1  0  0  0  0
 79 86  1  0  0  0  0
M  END
$$$$
YOVQOR

From CSD data. Using bond type 'Any'. No disordered atoms. Largest molecule.
 87 97  0  0  0  0  0  0  0  0999 V2000
    3.3848    0.3679   29.6914 Lu  0  0  0  0  0  0  0  0  0  0  0  0
    5.5561   -0.2408   30.3329 H   0  0  0  0  0  0  0  0  0  0  0  0
    5.4377    1.6512   29.9417 H   0  0  0  0  0  0  0  0  0  0  0  0
    5.4278    0.4816   28.7469 H   0  0  0  0  0  0  0  0  0  0  0  0
    3.7351   -1.7429   30.4111 H   0  0  0  0  0  0  0  0  0  0  0  0
    2.2513   -1.4792   29.6572 H   0  0  0  0  0  0  0  0  0  0  0  0
    3.7617   -1.7659   28.9994 H   0  0  0  0  0  0  0  0  0  0  0  0
    3.0297    3.1407   29.3311 S   0  0  0  0  0  0  0  0  0  0  0  0
    1.0887    2.6443   29.2938 P   0  0  0  0  0  0  0  0  0  0  0  0
    1.2005    0.8114   31.7318 P   0  0  0  0  0  0  0  0  0  0  0  0
    3.7447    0.7373   33.3544 Si  0  0  0  0  0  0  0  0  0  0  0  0
    2.8310    0.3440   27.4329 O   0  0  0  0  0  0  0  0  0  0  0  0
    2.7930    0.6811   31.9117 N   0  0  0  0  0  0  0  0  0  0  0  0
    0.9115    1.0756   30.0270 C   0  0  0  0  0  0  0  0  0  0  0  0
    0.2301    0.4770   29.6039 H   0  0  0  0  0  0  0  0  0  0  0  0
    0.4106    2.6431   27.6161 C   0  0  0  0  0  0  0  0  0  0  0  0
    0.9851    3.4297   26.6382 C   0  0  0  0  0  0  0  0  0  0  0  0
    1.8199    3.8505   26.8088 H   0  0  0  0  0  0  0  0  0  0  0  0
    0.3769    3.6120   25.4433 C   0  0  0  0  0  0  0  0  0  0  0  0
    0.7790    4.1773   24.7926 H   0  0  0  0  0  0  0  0  0  0  0  0
   -0.8126    2.9894   25.1553 C   0  0  0  0  0  0  0  0  0  0  0  0
   -1.2236    3.1166   24.3090 H   0  0  0  0  0  0  0  0  0  0  0  0
   -1.4038    2.1878   26.0870 C   0  0  0  0  0  0  0  0  0  0  0  0
   -2.2287    1.7590   25.8914 H   0  0  0  0  0  0  0  0  0  0  0  0
   -0.7956    2.0009   27.3209 C   0  0  0  0  0  0  0  0  0  0  0  0
   -1.2002    1.4356   27.9681 H   0  0  0  0  0  0  0  0  0  0  0  0
    0.0790    3.9468   30.0448 C   0  0  0  0  0  0  0  0  0  0  0  0
    0.5302    5.2689   30.0946 C   0  0  0  0  0  0  0  0  0  0  0  0
    1.3968    5.4925   29.7746 H   0  0  0  0  0  0  0  0  0  0  0  0
   -0.3003    6.2528   30.6138 C   0  0  0  0  0  0  0  0  0  0  0  0
   -0.0018    7.1529   30.6707 H   0  0  0  0  0  0  0  0  0  0  0  0
   -1.5809    5.9031   31.0512 C   0  0  0  0  0  0  0  0  0  0  0  0
   -2.1544    6.5762   31.3997 H   0  0  0  0  0  0  0  0  0  0  0  0
   -2.0199    4.6222   30.9907 C   0  0  0  0  0  0  0  0  0  0  0  0
   -2.8947    4.4055   31.2894 H   0  0  0  0  0  0  0  0  0  0  0  0
   -1.2092    3.6418   30.4964 C   0  0  0  0  0  0  0  0  0  0  0  0
   -1.5216    2.7451   30.4573 H   0  0  0  0  0  0  0  0  0  0  0  0
    0.5563    2.1030   32.8150 C   0  0  0  0  0  0  0  0  0  0  0  0
    1.2347    3.3070   32.9039 C   0  0  0  0  0  0  0  0  0  0  0  0
    2.0426    3.4274   32.4167 H   0  0  0  0  0  0  0  0  0  0  0  0
    0.7500    4.3424   33.6933 C   0  0  0  0  0  0  0  0  0  0  0  0
    1.2055    5.1772   33.7075 H   0  0  0  0  0  0  0  0  0  0  0  0
   -0.3921    4.1659   34.4543 C   0  0  0  0  0  0  0  0  0  0  0  0
   -0.7264    4.8745   34.9913 H   0  0  0  0  0  0  0  0  0  0  0  0
   -1.0441    2.9401   34.4294 C   0  0  0  0  0  0  0  0  0  0  0  0
   -1.8016    2.7990   34.9841 H   0  0  0  0  0  0  0  0  0  0  0  0
   -0.6002    1.9184   33.5973 C   0  0  0  0  0  0  0  0  0  0  0  0
   -1.0752    1.0974   33.5582 H   0  0  0  0  0  0  0  0  0  0  0  0
    0.3148   -0.7086   32.1749 C   0  0  0  0  0  0  0  0  0  0  0  0
   -1.0386   -0.9059   31.8335 C   0  0  0  0  0  0  0  0  0  0  0  0
   -1.4908   -0.2775   31.2823 H   0  0  0  0  0  0  0  0  0  0  0  0
   -1.7008   -2.0193   32.3065 C   0  0  0  0  0  0  0  0  0  0  0  0
   -2.6128   -2.1534   32.0789 H   0  0  0  0  0  0  0  0  0  0  0  0
   -1.0678   -2.9286   33.0995 C   0  0  0  0  0  0  0  0  0  0  0  0
   -1.5455   -3.6762   33.4337 H   0  0  0  0  0  0  0  0  0  0  0  0
    0.2587   -2.7692   33.4124 C   0  0  0  0  0  0  0  0  0  0  0  0
    0.7037   -3.4205   33.9422 H   0  0  0  0  0  0  0  0  0  0  0  0
    0.9422   -1.6673   32.9572 C   0  0  0  0  0  0  0  0  0  0  0  0
    1.8596   -1.5606   33.1812 H   0  0  0  0  0  0  0  0  0  0  0  0
    4.9041    2.2039   33.2737 C   0  0  0  0  0  0  0  0  0  0  0  0
    5.5017    2.1053   32.5056 H   0  0  0  0  0  0  0  0  0  0  0  0
    5.4343    2.2463   34.0987 H   0  0  0  0  0  0  0  0  0  0  0  0
    4.3818    3.0272   33.1812 H   0  0  0  0  0  0  0  0  0  0  0  0
    2.7474    0.8875   34.9130 C   0  0  0  0  0  0  0  0  0  0  0  0
    2.2948    1.7556   34.9308 H   0  0  0  0  0  0  0  0  0  0  0  0
    3.3425    0.8141   35.6882 H   0  0  0  0  0  0  0  0  0  0  0  0
    2.0806    0.1697   34.9450 H   0  0  0  0  0  0  0  0  0  0  0  0
    4.7547   -0.8095   33.4693 C   0  0  0  0  0  0  0  0  0  0  0  0
    4.1620   -1.5881   33.4479 H   0  0  0  0  0  0  0  0  0  0  0  0
    5.2640   -0.8061   34.3049 H   0  0  0  0  0  0  0  0  0  0  0  0
    5.3740   -0.8508   32.7083 H   0  0  0  0  0  0  0  0  0  0  0  0
    3.5925    0.9036   26.3430 C   0  0  0  0  0  0  0  0  0  0  0  0
    3.5939    1.8932   26.3715 H   0  0  0  0  0  0  0  0  0  0  0  0
    4.5262    0.5745   26.3466 H   0  0  0  0  0  0  0  0  0  0  0  0
    3.0311    0.5504   25.0628 C   0  0  0  0  0  0  0  0  0  0  0  0
    3.6152   -0.0757   24.5721 H   0  0  0  0  0  0  0  0  0  0  0  0
    2.8764    1.3577   24.5045 H   0  0  0  0  0  0  0  0  0  0  0  0
    1.7293   -0.1032   25.4576 C   0  0  0  0  0  0  0  0  0  0  0  0
    0.9899    0.5584   25.4113 H   0  0  0  0  0  0  0  0  0  0  0  0
    1.5235   -0.8485   24.8459 H   0  0  0  0  0  0  0  0  0  0  0  0
    1.8888   -0.5928   26.8373 C   0  0  0  0  0  0  0  0  0  0  0  0
    1.8903   -1.4299   27.3671 H   0  0  0  0  0  0  0  0  0  0  0  0
    0.9780   -0.2075   26.8871 H   0  0  0  0  0  0  0  0  0  0  0  0
    5.8398    0.7167   29.6892 B   0  0  0  0  0  0  0  0  0  0  0  0
    6.9393    0.8256   29.5150 H   0  0  0  0  0  0  0  0  0  0  0  0
    3.1105   -2.0846   29.6537 B   0  0  0  0  0  0  0  0  0  0  0  0
    3.1869   -3.3024   29.6928 H   0  0  0  0  0  0  0  0  0  0  0  0
  1  2  1  0  0  0  0
  2 84  1  0  0  0  0
  3  1  1  0  0  0  0
  4  1  1  0  0  0  0
  5  1  1  0  0  0  0
  6  1  1  0  0  0  0
  7  1  1  0  0  0  0
  8  1  1  0  0  0  0
  9  8  2  0  0  0  0
 10 13  2  0  0  0  0
 11 13  1  0  0  0  0
 12  1  1  0  0  0  0
 13  1  1  0  0  0  0
 14  1  1  0  0  0  0
 15 14  1  0  0  0  0
 16  9  1  0  0  0  0
 17 16  4  0  0  0  0
 18 17  1  0  0  0  0
 19 17  4  0  0  0  0
 20 19  1  0  0  0  0
 21 19  4  0  0  0  0
 22 21  1  0  0  0  0
 23 21  4  0  0  0  0
 24 23  1  0  0  0  0
 25 16  4  0  0  0  0
 26 25  1  0  0  0  0
 27  9  1  0  0  0  0
 28 27  4  0  0  0  0
 29 28  1  0  0  0  0
 30 28  4  0  0  0  0
 31 30  1  0  0  0  0
 32 30  4  0  0  0  0
 33 32  1  0  0  0  0
 34 32  4  0  0  0  0
 35 34  1  0  0  0  0
 36 27  4  0  0  0  0
 37 36  1  0  0  0  0
 38 10  1  0  0  0  0
 39 38  4  0  0  0  0
 40 39  1  0  0  0  0
 41 39  4  0  0  0  0
 42 41  1  0  0  0  0
 43 41  4  0  0  0  0
 44 43  1  0  0  0  0
 45 43  4  0  0  0  0
 46 45  1  0  0  0  0
 47 38  4  0  0  0  0
 48 47  1  0  0  0  0
 49 10  1  0  0  0  0
 50 49  4  0  0  0  0
 51 50  1  0  0  0  0
 52 50  4  0  0  0  0
 53 52  1  0  0  0  0
 54 52  4  0  0  0  0
 55 54  1  0  0  0  0
 56 54  4  0  0  0  0
 57 56  1  0  0  0  0
 58 49  4  0  0  0  0
 59 58  1  0  0  0  0
 60 11  1  0  0  0  0
 61 60  1  0  0  0  0
 62 60  1  0  0  0  0
 63 60  1  0  0  0  0
 64 11  1  0  0  0  0
 65 64  1  0  0  0  0
 66 64  1  0  0  0  0
 67 64  1  0  0  0  0
 68 11  1  0  0  0  0
 69 68  1  0  0  0  0
 70 68  1  0  0  0  0
 71 68  1  0  0  0  0
 72 12  1  0  0  0  0
 73 72  1  0  0  0  0
 74 72  1  0  0  0  0
 75 72  1  0  0  0  0
 76 75  1  0  0  0  0
 77 75  1  0  0  0  0
 78 75  1  0  0  0  0
 79 78  1  0  0  0  0
 80 78  1  0  0  0  0
 81 12  1  0  0  0  0
 82 81  1  0  0  0  0
 83 81  1  0  0  0  0
 84  3  1  0  0  0  0
 85 84  1  0  0  0  0
 86  5  1  0  0  0  0
 87 86  1  0  0  0  0
  4 84  1  0  0  0  0
  6 86  1  0  0  0  0
  7 86  1  0  0  0  0
  9 14  1  0  0  0  0
 10 14  1  0  0  0  0
 23 25  4  0  0  0  0
 34 36  4  0  0  0  0
 45 47  4  0  0  0  0
 56 58  4  0  0  0  0
 78 81  1  0  0  0  0
M  END
$$$$
YOYDIA

From CSD data. Using bond type 'Any'. No disordered atoms. Largest molecule.
 87 93  0  0  0  0  0  0  0  0999 V2000
   -1.0946    5.3391    3.3829 P   0  0  0  0  0  0  0  0  0  0  0  0
   -2.3248    8.1996    3.4562 P   0  0  0  0  0  0  0  0  0  0  0  0
   -1.3471    4.9283    5.2477 B   0  0  0  0  0  0  0  0  0  0  0  0
   -2.3961    4.8830    5.5147 H   0  0  0  0  0  0  0  0  0  0  0  0
   -0.7365    5.7451    5.8465 H   0  0  0  0  0  0  0  0  0  0  0  0
   -0.9540    3.8949    5.3567 H   0  0  0  0  0  0  0  0  0  0  0  0
   -2.8066    8.1540    5.3156 B   0  0  0  0  0  0  0  0  0  0  0  0
   -1.8709    8.0328    5.9255 H   0  0  0  0  0  0  0  0  0  0  0  0
   -3.5317    7.2640    5.5147 H   0  0  0  0  0  0  0  0  0  0  0  0
   -3.2226    9.1822    5.5305 H   0  0  0  0  0  0  0  0  0  0  0  0
   -2.3894    6.3731    6.9700 Li  0  3  0  0  0  0  0  0  0  0  0  0
   -1.1133    6.4206    8.4712 O   0  0  0  0  0  0  0  0  0  0  0  0
   -4.0276    5.7942    7.9260 O   0  0  0  0  0  0  0  0  0  0  0  0
   -1.5444    6.8549    2.7321 C   0  5  0  0  0  0  0  0  0  0  0  0
   -1.3125    6.9853    1.8172 H   0  0  0  0  0  0  0  0  0  0  0  0
   -1.8935    4.0161    2.4018 C   0  0  0  0  0  0  0  0  0  0  0  0
   -1.4959    2.6840    2.5741 C   0  0  0  0  0  0  0  0  0  0  0  0
   -0.8079    2.4738    3.1951 H   0  0  0  0  0  0  0  0  0  0  0  0
   -2.0991    1.6686    1.8472 C   0  0  0  0  0  0  0  0  0  0  0  0
   -1.8253    0.7682    1.9720 H   0  0  0  0  0  0  0  0  0  0  0  0
   -3.0930    1.9652    0.9433 C   0  0  0  0  0  0  0  0  0  0  0  0
   -3.5068    1.2682    0.4488 H   0  0  0  0  0  0  0  0  0  0  0  0
   -3.4939    3.2829    0.7553 C   0  0  0  0  0  0  0  0  0  0  0  0
   -4.1755    3.4875    0.1264 H   0  0  0  0  0  0  0  0  0  0  0  0
   -2.8940    4.3031    1.4932 C   0  0  0  0  0  0  0  0  0  0  0  0
   -3.1749    5.2021    1.3700 H   0  0  0  0  0  0  0  0  0  0  0  0
    0.6742    5.0886    2.9754 C   0  0  0  0  0  0  0  0  0  0  0  0
    1.6406    5.3829    3.9188 C   0  0  0  0  0  0  0  0  0  0  0  0
    1.3775    5.6339    4.7957 H   0  0  0  0  0  0  0  0  0  0  0  0
    3.0000    5.3176    3.5996 C   0  0  0  0  0  0  0  0  0  0  0  0
    3.6547    5.5264    4.2553 H   0  0  0  0  0  0  0  0  0  0  0  0
    3.3818    4.9474    2.3323 C   0  0  0  0  0  0  0  0  0  0  0  0
    4.3049    4.9048    2.1079 H   0  0  0  0  0  0  0  0  0  0  0  0
    2.4410    4.6445    1.3984 C   0  0  0  0  0  0  0  0  0  0  0  0
    2.7147    4.3885    0.5246 H   0  0  0  0  0  0  0  0  0  0  0  0
    1.0821    4.7028    1.7018 C   0  0  0  0  0  0  0  0  0  0  0  0
    0.4375    4.4792    1.0413 H   0  0  0  0  0  0  0  0  0  0  0  0
   -1.2925    9.6948    3.1713 C   0  0  0  0  0  0  0  0  0  0  0  0
    0.0175    9.5855    2.7621 C   0  0  0  0  0  0  0  0  0  0  0  0
    0.3839    8.7256    2.5899 H   0  0  0  0  0  0  0  0  0  0  0  0
    0.8090   10.7118    2.5978 C   0  0  0  0  0  0  0  0  0  0  0  0
    1.7082   10.6207    2.3070 H   0  0  0  0  0  0  0  0  0  0  0  0
    0.2893   11.9656    2.8569 C   0  0  0  0  0  0  0  0  0  0  0  0
    0.8287   12.7389    2.7416 H   0  0  0  0  0  0  0  0  0  0  0  0
   -1.0196   12.0898    3.2851 C   0  0  0  0  0  0  0  0  0  0  0  0
   -1.3746   12.9506    3.4763 H   0  0  0  0  0  0  0  0  0  0  0  0
   -1.8143   10.9668    3.4352 C   0  0  0  0  0  0  0  0  0  0  0  0
   -2.7163   11.0598    3.7181 H   0  0  0  0  0  0  0  0  0  0  0  0
   -3.8079    8.5812    2.4492 C   0  0  0  0  0  0  0  0  0  0  0  0
   -3.6783    8.9611    1.1156 C   0  0  0  0  0  0  0  0  0  0  0  0
   -2.8138    9.1016    0.7474 H   0  0  0  0  0  0  0  0  0  0  0  0
   -4.8007    9.1361    0.3208 C   0  0  0  0  0  0  0  0  0  0  0  0
   -4.7005    9.4092   -0.5831 H   0  0  0  0  0  0  0  0  0  0  0  0
   -6.0525    8.9180    0.8296 C   0  0  0  0  0  0  0  0  0  0  0  0
   -6.8184    9.0194    0.2765 H   0  0  0  0  0  0  0  0  0  0  0  0
   -6.1941    8.5529    2.1411 C   0  0  0  0  0  0  0  0  0  0  0  0
   -7.0630    8.4096    2.4982 H   0  0  0  0  0  0  0  0  0  0  0  0
   -5.0845    8.3901    2.9565 C   0  0  0  0  0  0  0  0  0  0  0  0
   -5.1999    8.1451    3.8682 H   0  0  0  0  0  0  0  0  0  0  0  0
    1.1004    5.3861    8.6307 C   0  0  0  0  0  0  0  0  0  0  0  0
    1.5631    4.5611    8.8899 H   0  0  0  0  0  0  0  0  0  0  0  0
    1.3981    6.1219    9.2059 H   0  0  0  0  0  0  0  0  0  0  0  0
    1.3071    5.5979    7.6969 H   0  0  0  0  0  0  0  0  0  0  0  0
   -0.3656    5.1998    8.7840 C   0  0  0  0  0  0  0  0  0  0  0  0
   -0.6651    4.4720    8.1836 H   0  0  0  0  0  0  0  0  0  0  0  0
   -0.5637    4.9268    9.7147 H   0  0  0  0  0  0  0  0  0  0  0  0
   -1.0687    7.3723    9.5346 C   0  0  0  0  0  0  0  0  0  0  0  0
   -0.1348    7.6625    9.6863 H   0  0  0  0  0  0  0  0  0  0  0  0
   -1.4036    6.9585   10.3689 H   0  0  0  0  0  0  0  0  0  0  0  0
   -1.9132    8.5497    9.1838 C   0  0  0  0  0  0  0  0  0  0  0  0
   -1.8593    9.2164    9.8996 H   0  0  0  0  0  0  0  0  0  0  0  0
   -2.8443    8.2638    9.0732 H   0  0  0  0  0  0  0  0  0  0  0  0
   -1.5914    8.9440    8.3463 H   0  0  0  0  0  0  0  0  0  0  0  0
   -5.9627    6.9630    7.2055 C   0  0  0  0  0  0  0  0  0  0  0  0
   -6.7683    6.9014    6.6508 H   0  0  0  0  0  0  0  0  0  0  0  0
   -5.3711    7.6564    6.8468 H   0  0  0  0  0  0  0  0  0  0  0  0
   -6.2157    7.1937    8.1235 H   0  0  0  0  0  0  0  0  0  0  0  0
   -5.2788    5.6992    7.1991 C   0  0  0  0  0  0  0  0  0  0  0  0
   -5.0987    5.4241    6.2653 H   0  0  0  0  0  0  0  0  0  0  0  0
   -5.8533    5.0092    7.6163 H   0  0  0  0  0  0  0  0  0  0  0  0
   -4.0226    5.1126    9.1664 C   0  0  0  0  0  0  0  0  0  0  0  0
   -3.0923    4.9673    9.4730 H   0  0  0  0  0  0  0  0  0  0  0  0
   -4.4664    4.2335    9.0763 H   0  0  0  0  0  0  0  0  0  0  0  0
   -4.8244    6.0437   10.2220 C   0  0  0  0  0  0  0  0  0  0  0  0
   -4.8422    5.6043   11.0974 H   0  0  0  0  0  0  0  0  0  0  0  0
   -5.7429    6.1790    9.9075 H   0  0  0  0  0  0  0  0  0  0  0  0
   -4.3753    6.9114   10.3010 H   0  0  0  0  0  0  0  0  0  0  0  0
  1  3  1  0  0  0  0
  2  7  1  0  0  0  0
  3  4  1  0  0  0  0
  4 11  1  0  0  0  0
  5  3  1  0  0  0  0
  6  3  1  0  0  0  0
  7  8  1  0  0  0  0
  8 11  1  0  0  0  0
  9  7  1  0  0  0  0
 10  7  1  0  0  0  0
 11  5  1  0  0  0  0
 12 11  1  0  0  0  0
 13 11  1  0  0  0  0
 14  1  1  0  0  0  0
 15 14  1  0  0  0  0
 16  1  1  0  0  0  0
 17 16  4  0  0  0  0
 18 17  1  0  0  0  0
 19 17  4  0  0  0  0
 20 19  1  0  0  0  0
 21 19  4  0  0  0  0
 22 21  1  0  0  0  0
 23 21  4  0  0  0  0
 24 23  1  0  0  0  0
 25 16  4  0  0  0  0
 26 25  1  0  0  0  0
 27  1  1  0  0  0  0
 28 27  4  0  0  0  0
 29 28  1  0  0  0  0
 30 28  4  0  0  0  0
 31 30  1  0  0  0  0
 32 30  4  0  0  0  0
 33 32  1  0  0  0  0
 34 32  4  0  0  0  0
 35 34  1  0  0  0  0
 36 27  4  0  0  0  0
 37 36  1  0  0  0  0
 38  2  1  0  0  0  0
 39 38  4  0  0  0  0
 40 39  1  0  0  0  0
 41 39  4  0  0  0  0
 42 41  1  0  0  0  0
 43 41  4  0  0  0  0
 44 43  1  0  0  0  0
 45 43  4  0  0  0  0
 46 45  1  0  0  0  0
 47 38  4  0  0  0  0
 48 47  1  0  0  0  0
 49  2  1  0  0  0  0
 50 49  4  0  0  0  0
 51 50  1  0  0  0  0
 52 50  4  0  0  0  0
 53 52  1  0  0  0  0
 54 52  4  0  0  0  0
 55 54  1  0  0  0  0
 56 54  4  0  0  0  0
 57 56  1  0  0  0  0
 58 49  4  0  0  0  0
 59 58  1  0  0  0  0
 60 61  1  0  0  0  0
 62 60  1  0  0  0  0
 63 60  1  0  0  0  0
 64 12  1  0  0  0  0
 65 64  1  0  0  0  0
 66 64  1  0  0  0  0
 67 12  1  0  0  0  0
 68 67  1  0  0  0  0
 69 67  1  0  0  0  0
 70 67  1  0  0  0  0
 71 70  1  0  0  0  0
 72 70  1  0  0  0  0
 73 70  1  0  0  0  0
 74 75  1  0  0  0  0
 76 74  1  0  0  0  0
 77 74  1  0  0  0  0
 78 13  1  0  0  0  0
 79 78  1  0  0  0  0
 80 78  1  0  0  0  0
 81 13  1  0  0  0  0
 82 81  1  0  0  0  0
 83 81  1  0  0  0  0
 84 81  1  0  0  0  0
 85 84  1  0  0  0  0
 86 84  1  0  0  0  0
 87 84  1  0  0  0  0
  2 14  1  0  0  0  0
  9 11  1  0  0  0  0
 23 25  4  0  0  0  0
 34 36  4  0  0  0  0
 45 47  4  0  0  0  0
 56 58  4  0  0  0  0
 60 64  1  0  0  0  0
 74 78  1  0  0  0  0
M  CHG  2  11   1  14  -1
M  END
$$$$
YUGGEM

From CSD data. Using bond type 'Any'. No disordered atoms. Largest molecule.
 95104  0  0  0  0  0  0  0  0999 V2000
    3.2703    4.7073    1.4909 Pt  0  0  0  0  0  0  0  0  0  0  0  0
    3.4502    3.0673    3.1653 P   0  0  0  0  0  0  0  0  0  0  0  0
    3.2376    6.8220    2.5699 P   0  0  0  0  0  0  0  0  0  0  0  0
    2.0103    6.5082   -0.7170 O   0  0  0  0  0  0  0  0  0  0  0  0
    4.2121    6.0212   -1.1389 O   0  0  0  0  0  0  0  0  0  0  0  0
    1.6781    2.5701    0.0100 O   0  0  0  0  0  0  0  0  0  0  0  0
    3.7800    2.7867   -0.9434 O   0  0  0  0  0  0  0  0  0  0  0  0
    3.7242    6.8791   -2.1072 C   0  0  0  0  0  0  0  0  0  0  0  0
    2.4236    7.1820   -1.8579 C   0  0  0  0  0  0  0  0  0  0  0  0
    1.7042    8.0472   -2.6646 C   0  0  0  0  0  0  0  0  0  0  0  0
    2.3603    8.5660   -3.7796 C   0  0  0  0  0  0  0  0  0  0  0  0
    3.6779    8.2608   -4.0428 C   0  0  0  0  0  0  0  0  0  0  0  0
    4.3373    7.3908   -3.1992 C   0  0  0  0  0  0  0  0  0  0  0  0
    1.8152    1.7190   -1.0501 C   0  0  0  0  0  0  0  0  0  0  0  0
    3.0269    1.8190   -1.6185 C   0  0  0  0  0  0  0  0  0  0  0  0
    3.3997    1.0498   -2.6926 C   0  0  0  0  0  0  0  0  0  0  0  0
    2.4278    0.1164   -3.1782 C   0  0  0  0  0  0  0  0  0  0  0  0
    1.2153    0.0526   -2.5888 C   0  0  0  0  0  0  0  0  0  0  0  0
    0.8823    0.7896   -1.5348 C   0  0  0  0  0  0  0  0  0  0  0  0
    2.0487    3.0807    4.3610 C   0  0  0  0  0  0  0  0  0  0  0  0
    2.1988    2.7684    5.6953 C   0  0  0  0  0  0  0  0  0  0  0  0
    1.0363    2.6278    6.4771 C   0  0  0  0  0  0  0  0  0  0  0  0
   -0.2124    2.8710    5.9416 C   0  0  0  0  0  0  0  0  0  0  0  0
   -0.3260    3.2666    4.6123 C   0  0  0  0  0  0  0  0  0  0  0  0
    0.8176    3.3512    3.8354 C   0  0  0  0  0  0  0  0  0  0  0  0
    4.9909    3.0664    4.1755 C   0  0  0  0  0  0  0  0  0  0  0  0
    5.4551    1.9650    4.8327 C   0  0  0  0  0  0  0  0  0  0  0  0
    6.6039    2.0297    5.5955 C   0  0  0  0  0  0  0  0  0  0  0  0
    7.3084    3.1729    5.6733 C   0  0  0  0  0  0  0  0  0  0  0  0
    6.8770    4.3119    5.0261 C   0  0  0  0  0  0  0  0  0  0  0  0
    5.7377    4.2771    4.2852 C   0  0  0  0  0  0  0  0  0  0  0  0
    3.4253    1.3230    2.5988 C   0  0  0  0  0  0  0  0  0  0  0  0
    4.3672    0.8877    1.6794 C   0  0  0  0  0  0  0  0  0  0  0  0
    4.3442   -0.4199    1.2346 C   0  0  0  0  0  0  0  0  0  0  0  0
    3.4290   -1.3043    1.6923 C   0  0  0  0  0  0  0  0  0  0  0  0
    2.5134   -0.8777    2.6158 C   0  0  0  0  0  0  0  0  0  0  0  0
    2.5158    0.3832    3.0725 C   0  0  0  0  0  0  0  0  0  0  0  0
    4.3640    7.9738    1.6714 C   0  0  0  0  0  0  0  0  0  0  0  0
    5.6583    7.4675    1.4570 C   0  0  0  0  0  0  0  0  0  0  0  0
    6.5470    8.2329    0.7539 C   0  0  0  0  0  0  0  0  0  0  0  0
    6.2299    9.4358    0.2114 C   0  0  0  0  0  0  0  0  0  0  0  0
    4.9283    9.9441    0.4109 C   0  0  0  0  0  0  0  0  0  0  0  0
    4.0084    9.1800    1.1359 C   0  0  0  0  0  0  0  0  0  0  0  0
    1.5573    7.5449    2.5111 C   0  0  0  0  0  0  0  0  0  0  0  0
    1.2593    8.7548    3.0895 C   0  0  0  0  0  0  0  0  0  0  0  0
   -0.0421    9.2564    3.0925 C   0  0  0  0  0  0  0  0  0  0  0  0
   -1.0662    8.4942    2.5520 C   0  0  0  0  0  0  0  0  0  0  0  0
   -0.7836    7.2406    1.9785 C   0  0  0  0  0  0  0  0  0  0  0  0
    0.5304    6.7847    1.9706 C   0  0  0  0  0  0  0  0  0  0  0  0
    3.6358    7.1383    4.3241 C   0  0  0  0  0  0  0  0  0  0  0  0
    4.6699    7.9859    4.7459 C   0  0  0  0  0  0  0  0  0  0  0  0
    4.8626    8.2222    6.0842 C   0  0  0  0  0  0  0  0  0  0  0  0
    4.1009    7.6129    7.0326 C   0  0  0  0  0  0  0  0  0  0  0  0
    3.0615    6.7838    6.6407 C   0  0  0  0  0  0  0  0  0  0  0  0
    2.8629    6.5307    5.2904 C   0  0  0  0  0  0  0  0  0  0  0  0
    3.1284    5.8186   -0.2603 B   0  0  0  0  0  0  0  0  0  0  0  0
    2.9151    3.2459    0.0738 B   0  0  0  0  0  0  0  0  0  0  0  0
    0.8225    8.2715   -2.4712 H   0  0  0  0  0  0  0  0  0  0  0  0
    1.8984    9.1302   -4.3570 H   0  0  0  0  0  0  0  0  0  0  0  0
    4.1147    8.6344   -4.7738 H   0  0  0  0  0  0  0  0  0  0  0  0
    5.2156    7.1511   -3.3847 H   0  0  0  0  0  0  0  0  0  0  0  0
    4.2392    1.1283   -3.0835 H   0  0  0  0  0  0  0  0  0  0  0  0
    2.6309   -0.4400   -3.8952 H   0  0  0  0  0  0  0  0  0  0  0  0
    0.5841   -0.5366   -2.9359 H   0  0  0  0  0  0  0  0  0  0  0  0
    0.0513    0.6927   -1.1289 H   0  0  0  0  0  0  0  0  0  0  0  0
    3.0429    2.6534    6.0682 H   0  0  0  0  0  0  0  0  0  0  0  0
    1.1110    2.3643    7.3667 H   0  0  0  0  0  0  0  0  0  0  0  0
   -0.9739    2.7727    6.4661 H   0  0  0  0  0  0  0  0  0  0  0  0
   -1.1577    3.4684    4.2493 H   0  0  0  0  0  0  0  0  0  0  0  0
    0.7471    3.5970    2.9409 H   0  0  0  0  0  0  0  0  0  0  0  0
    4.9929    1.1625    4.7658 H   0  0  0  0  0  0  0  0  0  0  0  0
    6.8928    1.2778    6.0583 H   0  0  0  0  0  0  0  0  0  0  0  0
    8.0949    3.1954    6.1680 H   0  0  0  0  0  0  0  0  0  0  0  0
    7.3649    5.1018    5.0959 H   0  0  0  0  0  0  0  0  0  0  0  0
    5.4440    5.0438    3.8494 H   0  0  0  0  0  0  0  0  0  0  0  0
    5.0141    1.4748    1.3622 H   0  0  0  0  0  0  0  0  0  0  0  0
    4.9716   -0.6992    0.6063 H   0  0  0  0  0  0  0  0  0  0  0  0
    3.4211   -2.1816    1.3862 H   0  0  0  0  0  0  0  0  0  0  0  0
    1.8756   -1.4752    2.9339 H   0  0  0  0  0  0  0  0  0  0  0  0
    1.8976    0.6355    3.7187 H   0  0  0  0  0  0  0  0  0  0  0  0
    5.9042    6.6333    1.7841 H   0  0  0  0  0  0  0  0  0  0  0  0
    7.4143    7.9138    0.6412 H   0  0  0  0  0  0  0  0  0  0  0  0
    6.8565    9.9151   -0.2812 H   0  0  0  0  0  0  0  0  0  0  0  0
    4.6868   10.7745    0.0668 H   0  0  0  0  0  0  0  0  0  0  0  0
    3.1427    9.4982    1.2545 H   0  0  0  0  0  0  0  0  0  0  0  0
    1.9383    9.2491    3.4874 H   0  0  0  0  0  0  0  0  0  0  0  0
   -0.2219   10.0936    3.4535 H   0  0  0  0  0  0  0  0  0  0  0  0
   -1.9403    8.8117    2.5679 H   0  0  0  0  0  0  0  0  0  0  0  0
   -1.4650    6.7259    1.6106 H   0  0  0  0  0  0  0  0  0  0  0  0
    0.7228    5.9554    1.5966 H   0  0  0  0  0  0  0  0  0  0  0  0
    5.2265    8.3888    4.1186 H   0  0  0  0  0  0  0  0  0  0  0  0
    5.5297    8.8140    6.3495 H   0  0  0  0  0  0  0  0  0  0  0  0
    4.2761    7.7511    7.9361 H   0  0  0  0  0  0  0  0  0  0  0  0
    2.5016    6.4003    7.2769 H   0  0  0  0  0  0  0  0  0  0  0  0
    2.1934    5.9380    5.0321 H   0  0  0  0  0  0  0  0  0  0  0  0
  1  2  1  0  0  0  0
  2 20  1  0  0  0  0
  3  1  1  0  0  0  0
  4  9  1  0  0  0  0
  5  8  1  0  0  0  0
  6 14  1  0  0  0  0
  7 15  1  0  0  0  0
  8  9  4  0  0  0  0
  9 10  4  0  0  0  0
 10 11  4  0  0  0  0
 11 12  4  0  0  0  0
 12 13  4  0  0  0  0
 13  8  4  0  0  0  0
 14 15  4  0  0  0  0
 15 16  4  0  0  0  0
 16 17  4  0  0  0  0
 17 18  4  0  0  0  0
 18 19  4  0  0  0  0
 19 14  4  0  0  0  0
 20 21  4  0  0  0  0
 21 22  4  0  0  0  0
 22 23  4  0  0  0  0
 23 24  4  0  0  0  0
 24 25  4  0  0  0  0
 25 20  4  0  0  0  0
 26  2  1  0  0  0  0
 27 26  4  0  0  0  0
 28 27  4  0  0  0  0
 29 28  4  0  0  0  0
 30 29  4  0  0  0  0
 31 26  4  0  0  0  0
 32  2  1  0  0  0  0
 33 32  4  0  0  0  0
 34 33  4  0  0  0  0
 35 34  4  0  0  0  0
 36 35  4  0  0  0  0
 37 32  4  0  0  0  0
 38  3  1  0  0  0  0
 39 38  4  0  0  0  0
 40 39  4  0  0  0  0
 41 40  4  0  0  0  0
 42 41  4  0  0  0  0
 43 38  4  0  0  0  0
 44  3  1  0  0  0  0
 45 44  4  0  0  0  0
 46 45  4  0  0  0  0
 47 46  4  0  0  0  0
 48 47  4  0  0  0  0
 49 44  4  0  0  0  0
 50  3  1  0  0  0  0
 51 50  4  0  0  0  0
 52 51  4  0  0  0  0
 53 52  4  0  0  0  0
 54 53  4  0  0  0  0
 55 50  4  0  0  0  0
 56  1  1  0  0  0  0
 57  1  1  0  0  0  0
 58 10  1  0  0  0  0
 59 11  1  0  0  0  0
 60 12  1  0  0  0  0
 61 13  1  0  0  0  0
 62 16  1  0  0  0  0
 63 17  1  0  0  0  0
 64 18  1  0  0  0  0
 65 19  1  0  0  0  0
 66 21  1  0  0  0  0
 67 22  1  0  0  0  0
 68 23  1  0  0  0  0
 69 24  1  0  0  0  0
 70 25  1  0  0  0  0
 71 27  1  0  0  0  0
 72 28  1  0  0  0  0
 73 29  1  0  0  0  0
 74 30  1  0  0  0  0
 75 31  1  0  0  0  0
 76 33  1  0  0  0  0
 77 34  1  0  0  0  0
 78 35  1  0  0  0  0
 79 36  1  0  0  0  0
 80 37  1  0  0  0  0
 81 39  1  0  0  0  0
 82 40  1  0  0  0  0
 83 41  1  0  0  0  0
 84 42  1  0  0  0  0
 85 43  1  0  0  0  0
 86 45  1  0  0  0  0
 87 46  1  0  0  0  0
 88 47  1  0  0  0  0
 89 48  1  0  0  0  0
 90 49  1  0  0  0  0
 91 51  1  0  0  0  0
 92 52  1  0  0  0  0
 93 53  1  0  0  0  0
 94 54  1  0  0  0  0
 95 55  1  0  0  0  0
  4 56  1  0  0  0  0
  5 56  1  0  0  0  0
  6 57  1  0  0  0  0
  7 57  1  0  0  0  0
 30 31  4  0  0  0  0
 36 37  4  0  0  0  0
 42 43  4  0  0  0  0
 48 49  4  0  0  0  0
 54 55  4  0  0  0  0
M  END
$$$$
YUJYEH

From CSD data. Using bond type 'Any'. Matching problem. Disorder unknown. Sizes unknown.
  0  0  0  0  0  0  0  0  0  0999 V2000
M  END
$$$$
YURCIY

From CSD data. Using bond type 'Any'. No disordered atoms. Largest molecule.
105131  0  0  0  0  0  0  0  0999 V2000
    5.2739    8.3479    3.0289 Ir  0  0  0  0  0  0  0  0  0  0  0  0
    6.7233    7.8598    1.9221 C   0  0  0  0  0  0  0  0  0  0  0  0
    7.6274    7.5648    1.2962 O   0  0  0  0  0  0  0  0  0  0  0  0
    5.6658   10.1841    2.8806 C   0  0  0  0  0  0  0  0  0  0  0  0
    5.9599   11.2929    2.8700 O   0  0  0  0  0  0  0  0  0  0  0  0
    5.9358    7.6935    4.9696 C   0  0  0  0  0  0  0  0  0  0  0  0
    3.1537    7.7161    2.6398 B   0  0  0  0  0  0  0  0  0  0  0  0
    2.5360    7.9213    1.6966 H   0  0  0  0  0  0  0  0  0  0  0  0
    4.6421    8.5491    5.3564 B   0  0  0  0  0  0  0  0  0  0  0  0
    4.7287    9.4475    5.9232 H   0  0  0  0  0  0  0  0  0  0  0  0
    5.4979    6.3130    4.2714 B   0  0  0  0  0  0  0  0  0  0  0  0
    6.2566    5.5365    4.0482 H   0  0  0  0  0  0  0  0  0  0  0  0
    4.0044    6.2792    3.0667 B   0  0  0  0  0  0  0  0  0  0  0  0
    4.1185    5.4045    2.3340 H   0  0  0  0  0  0  0  0  0  0  0  0
    3.1613    8.5807    4.1306 B   0  0  0  0  0  0  0  0  0  0  0  0
    2.5602    9.5246    4.2600 H   0  0  0  0  0  0  0  0  0  0  0  0
    4.8255    6.8146    5.8752 B   0  0  0  0  0  0  0  0  0  0  0  0
    5.1438    6.4946    6.8137 H   0  0  0  0  0  0  0  0  0  0  0  0
    2.5683    6.8674    4.0137 B   0  0  0  0  0  0  0  0  0  0  0  0
    1.5301    6.4783    4.0070 H   0  0  0  0  0  0  0  0  0  0  0  0
    3.8230    5.8908    4.7908 B   0  0  0  0  0  0  0  0  0  0  0  0
    3.5438    4.8572    5.1054 H   0  0  0  0  0  0  0  0  0  0  0  0
    3.2349    7.4553    5.5288 B   0  0  0  0  0  0  0  0  0  0  0  0
    2.5156    7.5639    6.3940 H   0  0  0  0  0  0  0  0  0  0  0  0
    7.3003    7.9676    5.4906 C   0  0  0  0  0  0  0  0  0  0  0  0
    7.8244    9.2415    5.5255 C   0  0  0  0  0  0  0  0  0  0  0  0
    7.3154    9.9577    5.1662 H   0  0  0  0  0  0  0  0  0  0  0  0
    9.0776    9.5112    6.0703 C   0  0  0  0  0  0  0  0  0  0  0  0
    9.4238   10.3967    6.0507 H   0  0  0  0  0  0  0  0  0  0  0  0
    9.8041    8.5101    6.6313 C   0  0  0  0  0  0  0  0  0  0  0  0
   10.6662    8.6837    6.9882 H   0  0  0  0  0  0  0  0  0  0  0  0
    9.2712    7.2421    6.6705 C   0  0  0  0  0  0  0  0  0  0  0  0
    9.7544    6.5450    7.1000 H   0  0  0  0  0  0  0  0  0  0  0  0
    8.0376    6.9692    6.0939 C   0  0  0  0  0  0  0  0  0  0  0  0
    7.6966    6.0823    6.1135 H   0  0  0  0  0  0  0  0  0  0  0  0
    4.2565    6.9693    0.9682 Cu  0  0  0  0  0  0  0  0  0  0  0  0
    4.5820    6.3900   -1.1136 P   0  0  0  0  0  0  0  0  0  0  0  0
    5.8587    5.1082   -1.2631 C   0  0  0  0  0  0  0  0  0  0  0  0
    6.5599    4.8958   -2.4489 C   0  0  0  0  0  0  0  0  0  0  0  0
    6.3568    5.4119   -3.2205 H   0  0  0  0  0  0  0  0  0  0  0  0
    7.5542    3.9318   -2.5009 C   0  0  0  0  0  0  0  0  0  0  0  0
    8.0254    3.7820   -3.3127 H   0  0  0  0  0  0  0  0  0  0  0  0
    7.8622    3.1872   -1.3831 C   0  0  0  0  0  0  0  0  0  0  0  0
    8.5551    2.5391   -1.4180 H   0  0  0  0  0  0  0  0  0  0  0  0
    7.1617    3.3874   -0.2156 C   0  0  0  0  0  0  0  0  0  0  0  0
    7.3589    2.8595    0.5492 H   0  0  0  0  0  0  0  0  0  0  0  0
    6.1741    4.3482   -0.1481 C   0  0  0  0  0  0  0  0  0  0  0  0
    5.7082    4.4894    0.6669 H   0  0  0  0  0  0  0  0  0  0  0  0
    3.0815    5.7385   -1.9103 C   0  0  0  0  0  0  0  0  0  0  0  0
    1.9450    6.5431   -1.9211 C   0  0  0  0  0  0  0  0  0  0  0  0
    1.9708    7.4037   -1.5200 H   0  0  0  0  0  0  0  0  0  0  0  0
    0.7691    6.0927   -2.5174 C   0  0  0  0  0  0  0  0  0  0  0  0
    0.0060    6.6577   -2.5497 H   0  0  0  0  0  0  0  0  0  0  0  0
    0.7103    4.8320   -3.0565 C   0  0  0  0  0  0  0  0  0  0  0  0
   -0.0962    4.5265   -3.4559 H   0  0  0  0  0  0  0  0  0  0  0  0
    1.8120    4.0118   -3.0232 C   0  0  0  0  0  0  0  0  0  0  0  0
    1.7612    3.1338   -3.3853 H   0  0  0  0  0  0  0  0  0  0  0  0
    3.0065    4.4657   -2.4581 C   0  0  0  0  0  0  0  0  0  0  0  0
    3.7696    3.9006   -2.4477 H   0  0  0  0  0  0  0  0  0  0  0  0
    5.2535    7.6247   -2.3222 C   0  0  0  0  0  0  0  0  0  0  0  0
    6.3718    8.4019   -1.8966 C   0  0  0  0  0  0  0  0  0  0  0  0
    6.7279    8.3440   -1.0179 H   0  0  0  0  0  0  0  0  0  0  0  0
    6.8655    9.1939   -2.7949 C   0  0  0  0  0  0  0  0  0  0  0  0
    7.6042    9.7204   -2.5105 H   0  0  0  0  0  0  0  0  0  0  0  0
    6.4899    9.3733   -4.0443 C   0  0  0  0  0  0  0  0  0  0  0  0
    6.9539    9.9606   -4.6307 H   0  0  0  0  0  0  0  0  0  0  0  0
    5.3931    8.6614   -4.4522 C   0  0  0  0  0  0  0  0  0  0  0  0
    5.0575    8.7697   -5.3329 H   0  0  0  0  0  0  0  0  0  0  0  0
    4.7693    7.7775   -3.5755 C   0  0  0  0  0  0  0  0  0  0  0  0
    4.0066    7.2836   -3.8560 H   0  0  0  0  0  0  0  0  0  0  0  0
    3.3600    9.6075    1.7901 Cu  0  0  0  0  0  0  0  0  0  0  0  0
    2.8243   11.4449    0.7382 P   0  0  0  0  0  0  0  0  0  0  0  0
    1.8439   11.1381   -0.7624 C   0  0  0  0  0  0  0  0  0  0  0  0
    2.0359   11.8489   -1.9451 C   0  0  0  0  0  0  0  0  0  0  0  0
    2.6963   12.5294   -1.9888 H   0  0  0  0  0  0  0  0  0  0  0  0
    1.2591   11.5594   -3.0589 C   0  0  0  0  0  0  0  0  0  0  0  0
    1.3865   12.0503   -3.8619 H   0  0  0  0  0  0  0  0  0  0  0  0
    0.3053   10.5649   -3.0087 C   0  0  0  0  0  0  0  0  0  0  0  0
   -0.2071   10.3596   -3.7815 H   0  0  0  0  0  0  0  0  0  0  0  0
    0.0914    9.8645   -1.8319 C   0  0  0  0  0  0  0  0  0  0  0  0
   -0.5803    9.1939   -1.7927 H   0  0  0  0  0  0  0  0  0  0  0  0
    0.8599   10.1468   -0.7129 C   0  0  0  0  0  0  0  0  0  0  0  0
    0.7173    9.6640    0.0922 H   0  0  0  0  0  0  0  0  0  0  0  0
    4.2495   12.4235    0.1852 C   0  0  0  0  0  0  0  0  0  0  0  0
    4.3456   13.7812    0.3811 C   0  0  0  0  0  0  0  0  0  0  0  0
    3.6551   14.2469    0.8395 H   0  0  0  0  0  0  0  0  0  0  0  0
    5.4642   14.4753   -0.0957 C   0  0  0  0  0  0  0  0  0  0  0  0
    5.5235   15.4155    0.0255 H   0  0  0  0  0  0  0  0  0  0  0  0
    6.4743   13.8049   -0.7375 C   0  0  0  0  0  0  0  0  0  0  0  0
    7.2429   14.2765   -1.0356 H   0  0  0  0  0  0  0  0  0  0  0  0
    6.3762   12.4686   -0.9452 C   0  0  0  0  0  0  0  0  0  0  0  0
    7.0673   12.0133   -1.4122 H   0  0  0  0  0  0  0  0  0  0  0  0
    5.2703   11.7552   -0.4795 C   0  0  0  0  0  0  0  0  0  0  0  0
    5.2164   10.8164   -0.6159 H   0  0  0  0  0  0  0  0  0  0  0  0
    1.8183   12.5761    1.7517 C   0  0  0  0  0  0  0  0  0  0  0  0
    2.1122   12.6925    3.0979 C   0  0  0  0  0  0  0  0  0  0  0  0
    2.8333   12.1972    3.4676 H   0  0  0  0  0  0  0  0  0  0  0  0
    1.3655   13.5246    3.9121 C   0  0  0  0  0  0  0  0  0  0  0  0
    1.5906   13.6106    4.8308 H   0  0  0  0  0  0  0  0  0  0  0  0
    0.3002   14.2291    3.4037 C   0  0  0  0  0  0  0  0  0  0  0  0
   -0.2093   14.8015    3.9658 H   0  0  0  0  0  0  0  0  0  0  0  0
   -0.0185   14.0971    2.0822 C   0  0  0  0  0  0  0  0  0  0  0  0
   -0.7645   14.5657    1.7279 H   0  0  0  0  0  0  0  0  0  0  0  0
    0.7415   13.2813    1.2509 C   0  0  0  0  0  0  0  0  0  0  0  0
    0.5183   13.2087    0.3315 H   0  0  0  0  0  0  0  0  0  0  0  0
  1  2  1  0  0  0  0
  2  3  3  0  0  0  0
  4  1  1  0  0  0  0
  5  4  3  0  0  0  0
  6  1  1  0  0  0  0
  7  1  1  0  0  0  0
  8  7  1  0  0  0  0
  9  1  1  0  0  0  0
 10  9  1  0  0  0  0
 11  1  1  0  0  0  0
 12 11  1  0  0  0  0
 13  1  1  0  0  0  0
 14 13  1  0  0  0  0
 15  1  1  0  0  0  0
 16 15  1  0  0  0  0
 17  6  1  0  0  0  0
 18 17  1  0  0  0  0
 19  7  1  0  0  0  0
 20 19  1  0  0  0  0
 21 11  1  0  0  0  0
 22 21  1  0  0  0  0
 23  9  1  0  0  0  0
 24 23  1  0  0  0  0
 25  6  1  0  0  0  0
 26 25  4  0  0  0  0
 27 26  1  0  0  0  0
 28 26  4  0  0  0  0
 29 28  1  0  0  0  0
 30 28  4  0  0  0  0
 31 30  1  0  0  0  0
 32 30  4  0  0  0  0
 33 32  1  0  0  0  0
 34 25  4  0  0  0  0
 35 34  1  0  0  0  0
 36  1  1  0  0  0  0
 37 36  1  0  0  0  0
 38 37  1  0  0  0  0
 39 38  4  0  0  0  0
 40 39  1  0  0  0  0
 41 39  4  0  0  0  0
 42 41  1  0  0  0  0
 43 41  4  0  0  0  0
 44 43  1  0  0  0  0
 45 43  4  0  0  0  0
 46 45  1  0  0  0  0
 47 38  4  0  0  0  0
 48 47  1  0  0  0  0
 49 37  1  0  0  0  0
 50 49  4  0  0  0  0
 51 50  1  0  0  0  0
 52 50  4  0  0  0  0
 53 52  1  0  0  0  0
 54 52  4  0  0  0  0
 55 54  1  0  0  0  0
 56 54  4  0  0  0  0
 57 56  1  0  0  0  0
 58 49  4  0  0  0  0
 59 58  1  0  0  0  0
 60 37  1  0  0  0  0
 61 60  4  0  0  0  0
 62 61  1  0  0  0  0
 63 61  4  0  0  0  0
 64 63  1  0  0  0  0
 65 63  4  0  0  0  0
 66 65  1  0  0  0  0
 67 65  4  0  0  0  0
 68 67  1  0  0  0  0
 69 60  4  0  0  0  0
 70 69  1  0  0  0  0
 71  1  1  0  0  0  0
 72 71  1  0  0  0  0
 73 72  1  0  0  0  0
 74 73  4  0  0  0  0
 75 74  1  0  0  0  0
 76 74  4  0  0  0  0
 77 76  1  0  0  0  0
 78 76  4  0  0  0  0
 79 78  1  0  0  0  0
 80 78  4  0  0  0  0
 81 80  1  0  0  0  0
 82 73  4  0  0  0  0
 83 82  1  0  0  0  0
 84 72  1  0  0  0  0
 85 84  4  0  0  0  0
 86 85  1  0  0  0  0
 87 85  4  0  0  0  0
 88 87  1  0  0  0  0
 89 87  4  0  0  0  0
 90 89  1  0  0  0  0
 91 89  4  0  0  0  0
 92 91  1  0  0  0  0
 93 84  4  0  0  0  0
 94 93  1  0  0  0  0
 95 72  1  0  0  0  0
 96 95  4  0  0  0  0
 97 96  1  0  0  0  0
 98 96  4  0  0  0  0
 99 98  1  0  0  0  0
100 98  4  0  0  0  0
101100  1  0  0  0  0
102100  4  0  0  0  0
103102  1  0  0  0  0
104 95  4  0  0  0  0
105104  1  0  0  0  0
  6  9  1  0  0  0  0
  6 11  1  0  0  0  0
  7 13  1  0  0  0  0
  7 15  1  0  0  0  0
  8 71  1  0  0  0  0
  9 15  1  0  0  0  0
  9 17  1  0  0  0  0
 11 13  1  0  0  0  0
 11 17  1  0  0  0  0
 13 19  1  0  0  0  0
 13 21  1  0  0  0  0
 14 36  1  0  0  0  0
 15 19  1  0  0  0  0
 15 23  1  0  0  0  0
 17 21  1  0  0  0  0
 17 23  1  0  0  0  0
 19 21  1  0  0  0  0
 19 23  1  0  0  0  0
 21 23  1  0  0  0  0
 32 34  4  0  0  0  0
 36 71  1  0  0  0  0
 45 47  4  0  0  0  0
 56 58  4  0  0  0  0
 67 69  4  0  0  0  0
 80 82  4  0  0  0  0
 91 93  4  0  0  0  0
102104  4  0  0  0  0
M  END
$$$$
YURDAR

From CSD data. Using bond type 'Any'. Matching problem. No disordered atoms. Largest molecule.
105130  0  0  0  0  0  0  0  0999 V2000
    0.4235   14.5932    2.7486 Rh  0  0  0  0  0  0  0  0  0  0  0  0
   -1.6274   15.0248    2.1717 C   0  0  0  0  0  0  0  0  0  0  0  0
    0.4987   13.2586    4.5430 B   0  0  0  0  0  0  0  0  0  0  0  0
    1.3177   12.7104    5.2926 H   0  0  0  0  0  0  0  0  0  0  0  0
   -1.6351   15.6053    3.6125 B   0  0  0  0  0  0  0  0  0  0  0  0
   -1.8152   16.7056    3.7142 H   0  0  0  0  0  0  0  0  0  0  0  0
   -1.6710   13.4104    2.1641 B   0  0  0  0  0  0  0  0  0  0  0  0
   -1.8449   12.8925    1.1866 H   0  0  0  0  0  0  0  0  0  0  0  0
   -0.6032   12.4600    3.4392 B   0  0  0  0  0  0  0  0  0  0  0  0
   -0.3689   11.3824    3.1643 H   0  0  0  0  0  0  0  0  0  0  0  0
   -0.4682   14.6852    4.9027 B   0  0  0  0  0  0  0  0  0  0  0  0
   -0.0113   15.3416    5.6862 H   0  0  0  0  0  0  0  0  0  0  0  0
   -2.8440   14.3874    3.1209 B   0  0  0  0  0  0  0  0  0  0  0  0
   -3.9379   14.5335    2.9326 H   0  0  0  0  0  0  0  0  0  0  0  0
   -1.1300   13.0499    5.0779 B   0  0  0  0  0  0  0  0  0  0  0  0
   -1.2688   12.4619    6.0215 H   0  0  0  0  0  0  0  0  0  0  0  0
   -2.3209   12.8792    3.7161 B   0  0  0  0  0  0  0  0  0  0  0  0
   -3.0821   12.0578    3.7406 H   0  0  0  0  0  0  0  0  0  0  0  0
   -2.2364   14.3988    4.7916 B   0  0  0  0  0  0  0  0  0  0  0  0
   -2.9061   14.7194    5.6297 H   0  0  0  0  0  0  0  0  0  0  0  0
    1.2278   16.2313    3.1002 C   0  0  0  0  0  0  0  0  0  0  0  0
    1.6219   17.3089    3.3244 O   0  0  0  0  0  0  0  0  0  0  0  0
    1.0780   14.4424    0.9530 C   0  0  0  0  0  0  0  0  0  0  0  0
    1.4341   14.3456   -0.1300 O   0  0  0  0  0  0  0  0  0  0  0  0
   -1.9642   15.8728    0.9643 C   0  0  0  0  0  0  0  0  0  0  0  0
   -1.4322   17.1685    0.8193 C   0  0  0  0  0  0  0  0  0  0  0  0
   -0.8199   17.4910    1.4691 H   0  0  0  0  0  0  0  0  0  0  0  0
   -1.7751   17.9880   -0.2467 C   0  0  0  0  0  0  0  0  0  0  0  0
   -1.4044   18.8607   -0.3202 H   0  0  0  0  0  0  0  0  0  0  0  0
   -2.6766   17.5156   -1.2167 C   0  0  0  0  0  0  0  0  0  0  0  0
   -2.9175   18.0582   -1.9588 H   0  0  0  0  0  0  0  0  0  0  0  0
   -3.2026   16.2579   -1.0755 C   0  0  0  0  0  0  0  0  0  0  0  0
   -3.8196   15.9335   -1.7215 H   0  0  0  0  0  0  0  0  0  0  0  0
   -2.8414   15.4459    0.0057 C   0  0  0  0  0  0  0  0  0  0  0  0
   -3.2153   14.5771    0.0753 H   0  0  0  0  0  0  0  0  0  0  0  0
    1.5212   11.8320    2.8279 Au  0  0  0  0  0  0  0  0  0  0  0  0
    2.8509   10.2774    1.8447 P   0  0  0  0  0  0  0  0  0  0  0  0
    3.0696   10.6236    0.0697 C   0  0  0  0  0  0  0  0  0  0  0  0
    2.7797    9.6807   -0.9173 C   0  0  0  0  0  0  0  0  0  0  0  0
    2.4993    8.8062   -0.6724 H   0  0  0  0  0  0  0  0  0  0  0  0
    2.9029   10.0279   -2.2734 C   0  0  0  0  0  0  0  0  0  0  0  0
    2.7240    9.3848   -2.9495 H   0  0  0  0  0  0  0  0  0  0  0  0
    3.2839   11.2971   -2.6124 C   0  0  0  0  0  0  0  0  0  0  0  0
    3.3129   11.5532   -3.5278 H   0  0  0  0  0  0  0  0  0  0  0  0
    3.6307   12.2171   -1.6254 C   0  0  0  0  0  0  0  0  0  0  0  0
    3.9600   13.0727   -1.8703 H   0  0  0  0  0  0  0  0  0  0  0  0
    3.4959   11.8870   -0.2995 C   0  0  0  0  0  0  0  0  0  0  0  0
    3.6960   12.5320    0.3692 H   0  0  0  0  0  0  0  0  0  0  0  0
    4.5230    9.9919    2.4956 C   0  0  0  0  0  0  0  0  0  0  0  0
    5.5291    9.5404    1.6914 C   0  0  0  0  0  0  0  0  0  0  0  0
    5.3890    9.4854    0.7534 H   0  0  0  0  0  0  0  0  0  0  0  0
    6.7520    9.1610    2.2225 C   0  0  0  0  0  0  0  0  0  0  0  0
    7.4337    8.8157    1.6575 H   0  0  0  0  0  0  0  0  0  0  0  0
    6.9697    9.2881    3.5880 C   0  0  0  0  0  0  0  0  0  0  0  0
    7.8065    9.0433    3.9666 H   0  0  0  0  0  0  0  0  0  0  0  0
    5.9550    9.7756    4.3961 C   0  0  0  0  0  0  0  0  0  0  0  0
    6.1011    9.8610    5.3303 H   0  0  0  0  0  0  0  0  0  0  0  0
    4.7530   10.1360    3.8668 C   0  0  0  0  0  0  0  0  0  0  0  0
    4.0715   10.4832    4.4300 H   0  0  0  0  0  0  0  0  0  0  0  0
    2.0786    8.6374    1.9381 C   0  0  0  0  0  0  0  0  0  0  0  0
    2.8001    7.5105    2.3393 C   0  0  0  0  0  0  0  0  0  0  0  0
    3.6977    7.6016    2.6388 H   0  0  0  0  0  0  0  0  0  0  0  0
    2.2090    6.2698    2.3016 C   0  0  0  0  0  0  0  0  0  0  0  0
    2.7051    5.5034    2.5615 H   0  0  0  0  0  0  0  0  0  0  0  0
    0.8749    6.1275    1.8797 C   0  0  0  0  0  0  0  0  0  0  0  0
    0.4613    5.2720    1.8628 H   0  0  0  0  0  0  0  0  0  0  0  0
    0.1728    7.2620    1.4880 C   0  0  0  0  0  0  0  0  0  0  0  0
   -0.7278    7.1766    1.1979 H   0  0  0  0  0  0  0  0  0  0  0  0
    0.7590    8.4932    1.5162 C   0  0  0  0  0  0  0  0  0  0  0  0
    0.2637    9.2577    1.2450 H   0  0  0  0  0  0  0  0  0  0  0  0
    2.9987   14.2022    3.3051 Au  0  0  0  0  0  0  0  0  0  0  0  0
    5.2554   14.3885    3.5020 P   0  0  0  0  0  0  0  0  0  0  0  0
    5.7991   16.1365    3.6596 C   0  0  0  0  0  0  0  0  0  0  0  0
    4.9711   17.0679    4.2284 C   0  0  0  0  0  0  0  0  0  0  0  0
    4.1237   16.8005    4.5637 H   0  0  0  0  0  0  0  0  0  0  0  0
    5.3517   18.3826    4.3169 C   0  0  0  0  0  0  0  0  0  0  0  0
    4.7714   19.0162    4.7181 H   0  0  0  0  0  0  0  0  0  0  0  0
    6.5644   18.7791    3.8291 C   0  0  0  0  0  0  0  0  0  0  0  0
    6.8093   19.6954    3.8856 H   0  0  0  0  0  0  0  0  0  0  0  0
    7.4427   17.8761    3.2528 C   0  0  0  0  0  0  0  0  0  0  0  0
    8.2981   18.1550    2.9458 H   0  0  0  0  0  0  0  0  0  0  0  0
    7.0391   16.5443    3.1379 C   0  0  0  0  0  0  0  0  0  0  0  0
    7.6028   15.9145    2.7047 H   0  0  0  0  0  0  0  0  0  0  0  0
    6.0899   13.8164    2.0021 C   0  0  0  0  0  0  0  0  0  0  0  0
    6.9641   12.7331    1.9456 C   0  0  0  0  0  0  0  0  0  0  0  0
    7.1452   12.2209    2.7254 H   0  0  0  0  0  0  0  0  0  0  0  0
    7.5764   12.4087    0.7214 C   0  0  0  0  0  0  0  0  0  0  0  0
    8.1795   11.6765    0.6931 H   0  0  0  0  0  0  0  0  0  0  0  0
    7.3344   13.1088   -0.4257 C   0  0  0  0  0  0  0  0  0  0  0  0
    7.7542   12.8659   -1.2431 H   0  0  0  0  0  0  0  0  0  0  0  0
    6.4667   14.1711   -0.3692 C   0  0  0  0  0  0  0  0  0  0  0  0
    6.2924   14.6738   -1.1565 H   0  0  0  0  0  0  0  0  0  0  0  0
    5.8460   14.5240    0.8080 C   0  0  0  0  0  0  0  0  0  0  0  0
    5.2413   15.2562    0.8155 H   0  0  0  0  0  0  0  0  0  0  0  0
    5.9652   13.4844    4.9102 C   0  0  0  0  0  0  0  0  0  0  0  0
    5.1185   12.8052    5.7974 C   0  0  0  0  0  0  0  0  0  0  0  0
    4.1811   12.8166    5.6429 H   0  0  0  0  0  0  0  0  0  0  0  0
    5.6008   12.1318    6.8672 C   0  0  0  0  0  0  0  0  0  0  0  0
    5.0041   11.7106    7.4737 H   0  0  0  0  0  0  0  0  0  0  0  0
    6.9747   12.0578    7.0725 C   0  0  0  0  0  0  0  0  0  0  0  0
    7.3165   11.5721    7.8127 H   0  0  0  0  0  0  0  0  0  0  0  0
    7.8422   12.6933    6.2023 C   0  0  0  0  0  0  0  0  0  0  0  0
    8.7794   12.6117    6.3360 H   0  0  0  0  0  0  0  0  0  0  0  0
    7.3693   13.4445    5.1381 C   0  0  0  0  0  0  0  0  0  0  0  0
    7.9674   13.9207    4.5750 H   0  0  0  0  0  0  0  0  0  0  0  0
  1  2  1  0  0  0  0
  2  5  1  0  0  0  0
  3  1  1  0  0  0  0
  4  3  1  0  0  0  0
  5  1  1  0  0  0  0
  6  5  1  0  0  0  0
  7  1  1  0  0  0  0
  8  7  1  0  0  0  0
  9  1  1  0  0  0  0
 10  9  1  0  0  0  0
 11  1  1  0  0  0  0
 12 11  1  0  0  0  0
 13  2  1  0  0  0  0
 14 13  1  0  0  0  0
 15  3  1  0  0  0  0
 16 15  1  0  0  0  0
 17  7  1  0  0  0  0
 18 17  1  0  0  0  0
 19  5  1  0  0  0  0
 20 19  1  0  0  0  0
 21  1  1  0  0  0  0
 22 21  3  0  0  0  0
 23  1  1  0  0  0  0
 24 23  3  0  0  0  0
 25  2  1  0  0  0  0
 26 25  4  0  0  0  0
 27 26  1  0  0  0  0
 28 26  4  0  0  0  0
 29 28  1  0  0  0  0
 30 28  4  0  0  0  0
 31 30  1  0  0  0  0
 32 30  4  0  0  0  0
 33 32  1  0  0  0  0
 34 25  4  0  0  0  0
 35 34  1  0  0  0  0
 36  1  1  0  0  0  0
 37 36  1  0  0  0  0
 38 37  1  0  0  0  0
 39 38  4  0  0  0  0
 40 39  1  0  0  0  0
 41 39  4  0  0  0  0
 42 41  1  0  0  0  0
 43 41  4  0  0  0  0
 44 43  1  0  0  0  0
 45 43  4  0  0  0  0
 46 45  1  0  0  0  0
 47 38  4  0  0  0  0
 48 47  1  0  0  0  0
 49 37  1  0  0  0  0
 50 49  4  0  0  0  0
 51 50  1  0  0  0  0
 52 50  4  0  0  0  0
 53 52  1  0  0  0  0
 54 52  4  0  0  0  0
 55 54  1  0  0  0  0
 56 54  4  0  0  0  0
 57 56  1  0  0  0  0
 58 49  4  0  0  0  0
 59 58  1  0  0  0  0
 60 37  1  0  0  0  0
 61 60  4  0  0  0  0
 62 61  1  0  0  0  0
 63 61  4  0  0  0  0
 64 63  1  0  0  0  0
 65 63  4  0  0  0  0
 66 65  1  0  0  0  0
 67 65  4  0  0  0  0
 68 67  1  0  0  0  0
 69 60  4  0  0  0  0
 70 69  1  0  0  0  0
 71  1  1  0  0  0  0
 72 71  1  0  0  0  0
 73 72  1  0  0  0  0
 74 73  4  0  0  0  0
 75 74  1  0  0  0  0
 76 74  4  0  0  0  0
 77 76  1  0  0  0  0
 78 76  4  0  0  0  0
 79 78  1  0  0  0  0
 80 78  4  0  0  0  0
 81 80  1  0  0  0  0
 82 73  4  0  0  0  0
 83 82  1  0  0  0  0
 84 72  1  0  0  0  0
 85 84  4  0  0  0  0
 86 85  1  0  0  0  0
 87 85  4  0  0  0  0
 88 87  1  0  0  0  0
 89 87  4  0  0  0  0
 90 89  1  0  0  0  0
 91 89  4  0  0  0  0
 92 91  1  0  0  0  0
 93 84  4  0  0  0  0
 94 93  1  0  0  0  0
 95 72  1  0  0  0  0
 96 95  4  0  0  0  0
 97 96  1  0  0  0  0
 98 96  4  0  0  0  0
 99 98  1  0  0  0  0
100 98  4  0  0  0  0
101100  1  0  0  0  0
102100  4  0  0  0  0
103102  1  0  0  0  0
104 95  4  0  0  0  0
105104  1  0  0  0  0
  2  7  1  0  0  0  0
  3  9  1  0  0  0  0
  3 11  1  0  0  0  0
  5 11  1  0  0  0  0
  5 13  1  0  0  0  0
  7  9  1  0  0  0  0
  7 13  1  0  0  0  0
  9 15  1  0  0  0  0
  9 17  1  0  0  0  0
 10 36  1  0  0  0  0
 11 15  1  0  0  0  0
 11 19  1  0  0  0  0
 13 17  1  0  0  0  0
 13 19  1  0  0  0  0
 15 17  1  0  0  0  0
 15 19  1  0  0  0  0
 17 19  1  0  0  0  0
 32 34  4  0  0  0  0
 36 71  1  0  0  0  0
 45 47  4  0  0  0  0
 56 58  4  0  0  0  0
 67 69  4  0  0  0  0
 80 82  4  0  0  0  0
 91 93  4  0  0  0  0
102104  4  0  0  0  0
M  END
$$$$
YURDIZ

From CSD data. Using bond type 'Any'. No disordered atoms. Largest molecule.
139169  0  0  0  0  0  0  0  0999 V2000
    0.8461    3.9514    3.7989 Ir  0  0  0  0  0  0  0  0  0  0  0  0
   -0.4348    5.6122    4.2572 C   0  0  0  0  0  0  0  0  0  0  0  0
    1.5348    2.9263    5.5809 B   0  0  0  0  0  0  0  0  0  0  0  0
    0.9292    5.9847    5.0248 B   0  0  0  0  0  0  0  0  0  0  0  0
    1.4711    6.8992    4.6702 H   0  0  0  0  0  0  0  0  0  0  0  0
   -1.1845    4.4293    5.0268 B   0  0  0  0  0  0  0  0  0  0  0  0
   -2.2166    4.1718    4.6743 H   0  0  0  0  0  0  0  0  0  0  0  0
   -0.1651    3.0053    5.7501 B   0  0  0  0  0  0  0  0  0  0  0  0
   -0.9076    2.1736    5.8227 H   0  0  0  0  0  0  0  0  0  0  0  0
    1.9912    4.5736    5.7501 B   0  0  0  0  0  0  0  0  0  0  0  0
    3.0950    4.7580    5.7844 H   0  0  0  0  0  0  0  0  0  0  0  0
   -0.6646    5.9338    5.9013 B   0  0  0  0  0  0  0  0  0  0  0  0
   -1.2926    6.7745    6.2921 H   0  0  0  0  0  0  0  0  0  0  0  0
    0.9731    3.7480    6.9832 B   0  0  0  0  0  0  0  0  0  0  0  0
    1.2749    3.3653    7.9906 H   0  0  0  0  0  0  0  0  0  0  0  0
   -0.6543    4.4021    6.7515 B   0  0  0  0  0  0  0  0  0  0  0  0
   -1.3958    4.2565    7.5775 H   0  0  0  0  0  0  0  0  0  0  0  0
    0.8219    5.5008    6.7233 B   0  0  0  0  0  0  0  0  0  0  0  0
    1.1935    6.1951    7.5191 H   0  0  0  0  0  0  0  0  0  0  0  0
    2.1759    4.6318    2.6534 C   0  0  0  0  0  0  0  0  0  0  0  0
    3.0208    5.1171    2.0375 O   0  0  0  0  0  0  0  0  0  0  0  0
   -0.0737    2.9416    2.4923 C   0  0  0  0  0  0  0  0  0  0  0  0
   -0.6416    2.3169    1.7148 O   0  0  0  0  0  0  0  0  0  0  0  0
   -1.0822    6.4326    3.1954 C   0  0  0  0  0  0  0  0  0  0  0  0
   -0.3150    7.0738    2.2122 C   0  0  0  0  0  0  0  0  0  0  0  0
    0.6326    7.0071    2.2424 H   0  0  0  0  0  0  0  0  0  0  0  0
   -0.9110    7.7972    1.2028 C   0  0  0  0  0  0  0  0  0  0  0  0
   -0.3681    8.2199    0.5480 H   0  0  0  0  0  0  0  0  0  0  0  0
   -2.2893    7.9192    1.1323 C   0  0  0  0  0  0  0  0  0  0  0  0
   -2.6977    8.4053    0.4251 H   0  0  0  0  0  0  0  0  0  0  0  0
   -3.0653    7.3143    2.1155 C   0  0  0  0  0  0  0  0  0  0  0  0
   -4.0103    7.4002    2.0933 H   0  0  0  0  0  0  0  0  0  0  0  0
   -2.4646    6.5829    3.1330 C   0  0  0  0  0  0  0  0  0  0  0  0
   -3.0068    6.1781    3.7999 H   0  0  0  0  0  0  0  0  0  0  0  0
    2.7914    1.9788    3.8778 Au  0  0  0  0  0  0  0  0  0  0  0  0
    4.2894    1.0855    2.4203 P   0  0  0  0  0  0  0  0  0  0  0  0
    5.6756    2.2387    2.1357 C   0  0  0  0  0  0  0  0  0  0  0  0
    6.2969    2.8225    3.2377 C   0  0  0  0  0  0  0  0  0  0  0  0
    5.9931    2.6188    4.1142 H   0  0  0  0  0  0  0  0  0  0  0  0
    7.3551    3.6954    3.0624 C   0  0  0  0  0  0  0  0  0  0  0  0
    7.7936    4.0616    3.8220 H   0  0  0  0  0  0  0  0  0  0  0  0
    7.7830    4.0453    1.7891 C   0  0  0  0  0  0  0  0  0  0  0  0
    8.4999    4.6578    1.6743 H   0  0  0  0  0  0  0  0  0  0  0  0
    7.1523    3.4887    0.6891 C   0  0  0  0  0  0  0  0  0  0  0  0
    7.4372    3.7247   -0.1854 H   0  0  0  0  0  0  0  0  0  0  0  0
    6.0991    2.5836    0.8563 C   0  0  0  0  0  0  0  0  0  0  0  0
    5.6742    2.2032    0.0967 H   0  0  0  0  0  0  0  0  0  0  0  0
    3.6094    0.7599    0.7576 C   0  0  0  0  0  0  0  0  0  0  0  0
    2.8030    1.7172    0.1713 C   0  0  0  0  0  0  0  0  0  0  0  0
    2.5828    2.5039    0.6568 H   0  0  0  0  0  0  0  0  0  0  0  0
    2.3096    1.5506   -1.1122 C   0  0  0  0  0  0  0  0  0  0  0  0
    1.7711    2.2264   -1.5070 H   0  0  0  0  0  0  0  0  0  0  0  0
    2.6040    0.4035   -1.8133 C   0  0  0  0  0  0  0  0  0  0  0  0
    2.2646    0.2874   -2.6937 H   0  0  0  0  0  0  0  0  0  0  0  0
    3.3867   -0.5792   -1.2471 C   0  0  0  0  0  0  0  0  0  0  0  0
    3.5799   -1.3751   -1.7287 H   0  0  0  0  0  0  0  0  0  0  0  0
    3.8964   -0.3998    0.0403 C   0  0  0  0  0  0  0  0  0  0  0  0
    4.4432   -1.0729    0.4312 H   0  0  0  0  0  0  0  0  0  0  0  0
    5.0569   -0.4819    2.9315 C   0  0  0  0  0  0  0  0  0  0  0  0
    4.3864   -1.2871    3.8361 C   0  0  0  0  0  0  0  0  0  0  0  0
    3.5577   -1.0000    4.2008 H   0  0  0  0  0  0  0  0  0  0  0  0
    4.9177   -2.5155    4.2149 C   0  0  0  0  0  0  0  0  0  0  0  0
    4.4523   -3.0669    4.8334 H   0  0  0  0  0  0  0  0  0  0  0  0
    6.1278   -2.9296    3.6870 C   0  0  0  0  0  0  0  0  0  0  0  0
    6.4859   -3.7731    3.9369 H   0  0  0  0  0  0  0  0  0  0  0  0
    6.8218   -2.1235    2.7965 C   0  0  0  0  0  0  0  0  0  0  0  0
    7.6614   -2.4044    2.4500 H   0  0  0  0  0  0  0  0  0  0  0  0
    6.2828   -0.9106    2.4197 C   0  0  0  0  0  0  0  0  0  0  0  0
    6.7510   -0.3606    1.8032 H   0  0  0  0  0  0  0  0  0  0  0  0
    1.0126    0.6527    5.6379 Au  0  0  0  0  0  0  0  0  0  0  0  0
    0.4940   -1.5630    5.5261 P   0  0  0  0  0  0  0  0  0  0  0  0
    1.3794   -2.4926    6.8119 C   0  0  0  0  0  0  0  0  0  0  0  0
    2.6643   -2.0708    7.1766 C   0  0  0  0  0  0  0  0  0  0  0  0
    3.0597   -1.3280    6.7374 H   0  0  0  0  0  0  0  0  0  0  0  0
    3.3558   -2.7226    8.1659 C   0  0  0  0  0  0  0  0  0  0  0  0
    4.2334   -2.4376    8.3935 H   0  0  0  0  0  0  0  0  0  0  0  0
    2.7860   -3.7945    8.8408 C   0  0  0  0  0  0  0  0  0  0  0  0
    3.2622   -4.2324    9.5359 H   0  0  0  0  0  0  0  0  0  0  0  0
    1.5143   -4.2203    8.4862 C   0  0  0  0  0  0  0  0  0  0  0  0
    1.1166   -4.9482    8.9496 H   0  0  0  0  0  0  0  0  0  0  0  0
    0.8151   -3.5950    7.4627 C   0  0  0  0  0  0  0  0  0  0  0  0
   -0.0419   -3.9143    7.2048 H   0  0  0  0  0  0  0  0  0  0  0  0
   -1.2490   -2.0535    5.7219 C   0  0  0  0  0  0  0  0  0  0  0  0
   -1.9584   -1.5392    6.8019 C   0  0  0  0  0  0  0  0  0  0  0  0
   -1.5478   -0.9047    7.3781 H   0  0  0  0  0  0  0  0  0  0  0  0
   -3.2600   -1.9461    7.0416 C   0  0  0  0  0  0  0  0  0  0  0  0
   -3.7354   -1.6043    7.7911 H   0  0  0  0  0  0  0  0  0  0  0  0
   -3.8695   -2.8552    6.1853 C   0  0  0  0  0  0  0  0  0  0  0  0
   -4.7607   -3.1374    6.3526 H   0  0  0  0  0  0  0  0  0  0  0  0
   -3.1944   -3.3488    5.1014 C   0  0  0  0  0  0  0  0  0  0  0  0
   -3.6245   -3.9518    4.5070 H   0  0  0  0  0  0  0  0  0  0  0  0
   -1.8790   -2.9668    4.8737 C   0  0  0  0  0  0  0  0  0  0  0  0
   -1.4050   -3.3282    4.1343 H   0  0  0  0  0  0  0  0  0  0  0  0
    1.0064   -2.2760    3.9328 C   0  0  0  0  0  0  0  0  0  0  0  0
    1.4616   -3.5814    3.8200 C   0  0  0  0  0  0  0  0  0  0  0  0
    1.5369   -4.1273    4.5937 H   0  0  0  0  0  0  0  0  0  0  0  0
    1.8065   -4.0881    2.5729 C   0  0  0  0  0  0  0  0  0  0  0  0
    2.1207   -4.9812    2.4943 H   0  0  0  0  0  0  0  0  0  0  0  0
    1.6933   -3.2959    1.4406 C   0  0  0  0  0  0  0  0  0  0  0  0
    1.9256   -3.6497    0.5903 H   0  0  0  0  0  0  0  0  0  0  0  0
    1.2466   -1.9943    1.5473 C   0  0  0  0  0  0  0  0  0  0  0  0
    1.1648   -1.4535    0.7696 H   0  0  0  0  0  0  0  0  0  0  0  0
    0.9155   -1.4785    2.7945 C   0  0  0  0  0  0  0  0  0  0  0  0
    0.6263   -0.5777    2.8731 H   0  0  0  0  0  0  0  0  0  0  0  0
    3.3118    1.8521    6.6492 Au  0  0  0  0  0  0  0  0  0  0  0  0
    5.1392    1.7255    8.0254 P   0  0  0  0  0  0  0  0  0  0  0  0
    5.3714    3.2564    8.9697 C   0  0  0  0  0  0  0  0  0  0  0  0
    4.9644    4.4465    8.3955 C   0  0  0  0  0  0  0  0  0  0  0  0
    4.4922    4.4405    7.5715 H   0  0  0  0  0  0  0  0  0  0  0  0
    5.2478    5.6483    9.0262 C   0  0  0  0  0  0  0  0  0  0  0  0
    4.9944    6.4656    8.6151 H   0  0  0  0  0  0  0  0  0  0  0  0
    5.8963    5.6687   10.2451 C   0  0  0  0  0  0  0  0  0  0  0  0
    6.0835    6.4955   10.6763 H   0  0  0  0  0  0  0  0  0  0  0  0
    6.2715    4.4796   10.8314 C   0  0  0  0  0  0  0  0  0  0  0  0
    6.7038    4.4864   11.6776 H   0  0  0  0  0  0  0  0  0  0  0  0
    6.0234    3.2701   10.1967 C   0  0  0  0  0  0  0  0  0  0  0  0
    6.2983    2.4556   10.5997 H   0  0  0  0  0  0  0  0  0  0  0  0
    5.1662    0.3893    9.2558 C   0  0  0  0  0  0  0  0  0  0  0  0
    4.0220    0.1683   10.0376 C   0  0  0  0  0  0  0  0  0  0  0  0
    3.2610    0.7251    9.9268 H   0  0  0  0  0  0  0  0  0  0  0  0
    3.9993   -0.8549   10.9664 C   0  0  0  0  0  0  0  0  0  0  0  0
    3.2222   -0.9977   11.4942 H   0  0  0  0  0  0  0  0  0  0  0  0
    5.1128   -1.6784   11.1296 C   0  0  0  0  0  0  0  0  0  0  0  0
    5.0888   -2.3893   11.7602 H   0  0  0  0  0  0  0  0  0  0  0  0
    6.2464   -1.4607   10.3781 C   0  0  0  0  0  0  0  0  0  0  0  0
    7.0097   -2.0126   10.5030 H   0  0  0  0  0  0  0  0  0  0  0  0
    6.2797   -0.4306    9.4352 C   0  0  0  0  0  0  0  0  0  0  0  0
    7.0622   -0.2881    8.9153 H   0  0  0  0  0  0  0  0  0  0  0  0
    6.6782    1.5407    7.0698 C   0  0  0  0  0  0  0  0  0  0  0  0
    6.7487    0.5735    6.0886 C   0  0  0  0  0  0  0  0  0  0  0  0
    6.0064    0.0019    5.9395 H   0  0  0  0  0  0  0  0  0  0  0  0
    7.8888    0.4277    5.3170 C   0  0  0  0  0  0  0  0  0  0  0  0
    7.9288   -0.2448    4.6481 H   0  0  0  0  0  0  0  0  0  0  0  0
    8.9743    1.2660    5.5265 C   0  0  0  0  0  0  0  0  0  0  0  0
    9.7532    1.1758    4.9906 H   0  0  0  0  0  0  0  0  0  0  0  0
    8.9271    2.2255    6.5077 C   0  0  0  0  0  0  0  0  0  0  0  0
    9.6749    2.7920    6.6548 H   0  0  0  0  0  0  0  0  0  0  0  0
    7.7854    2.3685    7.2854 C   0  0  0  0  0  0  0  0  0  0  0  0
    7.7570    3.0304    7.9664 H   0  0  0  0  0  0  0  0  0  0  0  0
  1  2  1  0  0  0  0
  2  4  1  0  0  0  0
  3  1  1  0  0  0  0
  4  1  1  0  0  0  0
  5  4  1  0  0  0  0
  6  1  1  0  0  0  0
  7  6  1  0  0  0  0
  8  1  1  0  0  0  0
  9  8  1  0  0  0  0
 10  1  1  0  0  0  0
 11 10  1  0  0  0  0
 12  2  1  0  0  0  0
 13 12  1  0  0  0  0
 14  3  1  0  0  0  0
 15 14  1  0  0  0  0
 16  6  1  0  0  0  0
 17 16  1  0  0  0  0
 18  4  1  0  0  0  0
 19 18  1  0  0  0  0
 20  1  1  0  0  0  0
 21 20  3  0  0  0  0
 22  1  1  0  0  0  0
 23 22  3  0  0  0  0
 24  2  1  0  0  0  0
 25 24  4  0  0  0  0
 26 25  1  0  0  0  0
 27 25  4  0  0  0  0
 28 27  1  0  0  0  0
 29 27  4  0  0  0  0
 30 29  1  0  0  0  0
 31 29  4  0  0  0  0
 32 31  1  0  0  0  0
 33 24  4  0  0  0  0
 34 33  1  0  0  0  0
 35  1  1  0  0  0  0
 36 35  1  0  0  0  0
 37 36  1  0  0  0  0
 38 37  4  0  0  0  0
 39 38  1  0  0  0  0
 40 38  4  0  0  0  0
 41 40  1  0  0  0  0
 42 40  4  0  0  0  0
 43 42  1  0  0  0  0
 44 42  4  0  0  0  0
 45 44  1  0  0  0  0
 46 37  4  0  0  0  0
 47 46  1  0  0  0  0
 48 36  1  0  0  0  0
 49 48  4  0  0  0  0
 50 49  1  0  0  0  0
 51 49  4  0  0  0  0
 52 51  1  0  0  0  0
 53 51  4  0  0  0  0
 54 53  1  0  0  0  0
 55 53  4  0  0  0  0
 56 55  1  0  0  0  0
 57 48  4  0  0  0  0
 58 57  1  0  0  0  0
 59 36  1  0  0  0  0
 60 59  4  0  0  0  0
 61 60  1  0  0  0  0
 62 60  4  0  0  0  0
 63 62  1  0  0  0  0
 64 62  4  0  0  0  0
 65 64  1  0  0  0  0
 66 64  4  0  0  0  0
 67 66  1  0  0  0  0
 68 59  4  0  0  0  0
 69 68  1  0  0  0  0
 70  3  1  0  0  0  0
 71 70  1  0  0  0  0
 72 71  1  0  0  0  0
 73 72  4  0  0  0  0
 74 73  1  0  0  0  0
 75 73  4  0  0  0  0
 76 75  1  0  0  0  0
 77 75  4  0  0  0  0
 78 77  1  0  0  0  0
 79 77  4  0  0  0  0
 80 79  1  0  0  0  0
 81 72  4  0  0  0  0
 82 81  1  0  0  0  0
 83 71  1  0  0  0  0
 84 83  4  0  0  0  0
 85 84  1  0  0  0  0
 86 84  4  0  0  0  0
 87 86  1  0  0  0  0
 88 86  4  0  0  0  0
 89 88  1  0  0  0  0
 90 88  4  0  0  0  0
 91 90  1  0  0  0  0
 92 83  4  0  0  0  0
 93 92  1  0  0  0  0
 94 71  1  0  0  0  0
 95 94  4  0  0  0  0
 96 95  1  0  0  0  0
 97 95  4  0  0  0  0
 98 97  1  0  0  0  0
 99 97  4  0  0  0  0
100 99  1  0  0  0  0
101 99  4  0  0  0  0
102101  1  0  0  0  0
103 94  4  0  0  0  0
104103  1  0  0  0  0
105  3  1  0  0  0  0
106105  1  0  0  0  0
107106  1  0  0  0  0
108107  4  0  0  0  0
109108  1  0  0  0  0
110108  4  0  0  0  0
111110  1  0  0  0  0
112110  4  0  0  0  0
113112  1  0  0  0  0
114112  4  0  0  0  0
115114  1  0  0  0  0
116107  4  0  0  0  0
117116  1  0  0  0  0
118106  1  0  0  0  0
119118  4  0  0  0  0
120119  1  0  0  0  0
121119  4  0  0  0  0
122121  1  0  0  0  0
123121  4  0  0  0  0
124123  1  0  0  0  0
125123  4  0  0  0  0
126125  1  0  0  0  0
127118  4  0  0  0  0
128127  1  0  0  0  0
129106  1  0  0  0  0
130129  4  0  0  0  0
131130  1  0  0  0  0
132130  4  0  0  0  0
133132  1  0  0  0  0
134132  4  0  0  0  0
135134  1  0  0  0  0
136134  4  0  0  0  0
137136  1  0  0  0  0
138129  4  0  0  0  0
139138  1  0  0  0  0
  2  6  1  0  0  0  0
  3  8  1  0  0  0  0
  3 10  1  0  0  0  0
  3 35  1  0  0  0  0
  4 10  1  0  0  0  0
  4 12  1  0  0  0  0
  6  8  1  0  0  0  0
  6 12  1  0  0  0  0
  8 14  1  0  0  0  0
  8 16  1  0  0  0  0
 10 14  1  0  0  0  0
 10 18  1  0  0  0  0
 12 16  1  0  0  0  0
 12 18  1  0  0  0  0
 14 16  1  0  0  0  0
 14 18  1  0  0  0  0
 16 18  1  0  0  0  0
 31 33  4  0  0  0  0
 35 70  1  0  0  0  0
 35105  1  0  0  0  0
 44 46  4  0  0  0  0
 55 57  4  0  0  0  0
 66 68  4  0  0  0  0
 70105  1  0  0  0  0
 79 81  4  0  0  0  0
 90 92  4  0  0  0  0
101103  4  0  0  0  0
114116  4  0  0  0  0
125127  4  0  0  0  0
136138  4  0  0  0  0
M  END
$$$$
YURDOF

From CSD data. Using bond type 'Any'. No disordered atoms. Largest molecule.
139169  0  0  0  0  0  0  0  0999 V2000
    5.3652    3.1805    8.9805 Au  0  0  0  0  0  0  0  0  0  0  0  0
    2.5823    2.4853    9.0488 Au  0  0  0  0  0  0  0  0  0  0  0  0
    4.1476    1.9267    6.7897 Au  0  0  0  0  0  0  0  0  0  0  0  0
    4.9959    1.3095   11.0505 Rh  0  0  0  0  0  0  0  0  0  0  0  0
    5.2422   -0.6092   11.9887 C   0  0  0  0  0  0  0  0  0  0  0  0
    4.4043    1.1699    8.8900 B   0  0  0  0  0  0  0  0  0  0  0  0
    6.2874   -0.6552   10.8137 B   0  0  0  0  0  0  0  0  0  0  0  0
    7.3651   -0.7306   11.1106 H   0  0  0  0  0  0  0  0  0  0  0  0
    3.7747   -0.7370   11.3974 B   0  0  0  0  0  0  0  0  0  0  0  0
    2.9404   -0.8442   12.1359 H   0  0  0  0  0  0  0  0  0  0  0  0
    3.2931    0.1430    9.7529 B   0  0  0  0  0  0  0  0  0  0  0  0
    2.1253    0.1788    9.6945 H   0  0  0  0  0  0  0  0  0  0  0  0
    5.8983    0.2631    9.1869 B   0  0  0  0  0  0  0  0  0  0  0  0
    6.7845    0.6795    8.6413 H   0  0  0  0  0  0  0  0  0  0  0  0
    5.0437   -1.9235   11.0320 B   0  0  0  0  0  0  0  0  0  0  0  0
    5.1521   -2.9734   11.4076 H   0  0  0  0  0  0  0  0  0  0  0  0
    4.4124   -0.5403    8.5119 B   0  0  0  0  0  0  0  0  0  0  0  0
    4.1818   -0.8251    7.4536 H   0  0  0  0  0  0  0  0  0  0  0  0
    3.8368   -1.5838    9.8062 B   0  0  0  0  0  0  0  0  0  0  0  0
    3.1162   -2.4025    9.5499 H   0  0  0  0  0  0  0  0  0  0  0  0
    5.6210   -1.4701    9.3951 B   0  0  0  0  0  0  0  0  0  0  0  0
    6.2508   -2.1930    8.8164 H   0  0  0  0  0  0  0  0  0  0  0  0
    3.9414    2.3731   12.2197 C   0  0  0  0  0  0  0  0  0  0  0  0
    3.3346    3.0704   12.8973 O   0  0  0  0  0  0  0  0  0  0  0  0
    6.5960    2.2786   11.4329 C   0  0  0  0  0  0  0  0  0  0  0  0
    7.5770    2.7843   11.6918 O   0  0  0  0  0  0  0  0  0  0  0  0
    5.5216   -0.7536   13.4429 C   0  0  0  0  0  0  0  0  0  0  0  0
    4.7209   -1.4880   14.2905 C   0  0  0  0  0  0  0  0  0  0  0  0
    3.9836   -1.9644   13.9251 H   0  0  0  0  0  0  0  0  0  0  0  0
    4.9464   -1.5582   15.6584 C   0  0  0  0  0  0  0  0  0  0  0  0
    4.3405   -2.0308   16.2167 H   0  0  0  0  0  0  0  0  0  0  0  0
    6.0511   -0.9400   16.2091 C   0  0  0  0  0  0  0  0  0  0  0  0
    6.2079   -0.9784   17.1456 H   0  0  0  0  0  0  0  0  0  0  0  0
    6.8976   -0.2887   15.4046 C   0  0  0  0  0  0  0  0  0  0  0  0
    7.6839    0.1047   15.7650 H   0  0  0  0  0  0  0  0  0  0  0  0
    6.6289   -0.1852   14.0367 C   0  0  0  0  0  0  0  0  0  0  0  0
    7.2376    0.2989   13.4911 H   0  0  0  0  0  0  0  0  0  0  0  0
    6.3188    5.2455    8.8474 P   0  0  0  0  0  0  0  0  0  0  0  0
    6.4168    6.0527   10.4686 C   0  0  0  0  0  0  0  0  0  0  0  0
    7.3995    6.9098   10.8365 C   0  0  0  0  0  0  0  0  0  0  0  0
    8.1063    7.0988   10.2300 H   0  0  0  0  0  0  0  0  0  0  0  0
    7.3840    7.5164   12.0877 C   0  0  0  0  0  0  0  0  0  0  0  0
    8.0999    8.0784   12.3567 H   0  0  0  0  0  0  0  0  0  0  0  0
    6.3325    7.2980   12.9277 C   0  0  0  0  0  0  0  0  0  0  0  0
    6.3030    7.7412   13.7677 H   0  0  0  0  0  0  0  0  0  0  0  0
    5.3460    6.4704   12.5876 C   0  0  0  0  0  0  0  0  0  0  0  0
    4.6247    6.3159   13.1866 H   0  0  0  0  0  0  0  0  0  0  0  0
    5.3798    5.8420   11.3695 C   0  0  0  0  0  0  0  0  0  0  0  0
    4.6764    5.2481   11.1360 H   0  0  0  0  0  0  0  0  0  0  0  0
    5.3578    6.4091    7.8191 C   0  0  0  0  0  0  0  0  0  0  0  0
    4.5390    5.9071    6.8318 C   0  0  0  0  0  0  0  0  0  0  0  0
    4.4748    4.9684    6.7049 H   0  0  0  0  0  0  0  0  0  0  0  0
    3.8088    6.7552    6.0223 C   0  0  0  0  0  0  0  0  0  0  0  0
    3.2196    6.3976    5.3675 H   0  0  0  0  0  0  0  0  0  0  0  0
    3.9362    8.1014    6.1568 C   0  0  0  0  0  0  0  0  0  0  0  0
    3.4718    8.6813    5.5655 H   0  0  0  0  0  0  0  0  0  0  0  0
    4.7182    8.6212    7.1338 C   0  0  0  0  0  0  0  0  0  0  0  0
    4.7819    9.5638    7.2404 H   0  0  0  0  0  0  0  0  0  0  0  0
    5.4304    7.7719    7.9840 C   0  0  0  0  0  0  0  0  0  0  0  0
    5.9663    8.1372    8.6768 H   0  0  0  0  0  0  0  0  0  0  0  0
    8.0005    5.3107    8.1515 C   0  0  0  0  0  0  0  0  0  0  0  0
    8.8587    4.2250    8.3190 C   0  0  0  0  0  0  0  0  0  0  0  0
    8.5722    3.4689    8.8164 H   0  0  0  0  0  0  0  0  0  0  0  0
   10.1281    4.2442    7.7632 C   0  0  0  0  0  0  0  0  0  0  0  0
   10.7239    3.5162    7.9028 H   0  0  0  0  0  0  0  0  0  0  0  0
   10.5228    5.3171    7.0095 C   0  0  0  0  0  0  0  0  0  0  0  0
   11.3870    5.3209    6.6161 H   0  0  0  0  0  0  0  0  0  0  0  0
    9.7000    6.3682    6.8192 C   0  0  0  0  0  0  0  0  0  0  0  0
    9.9863    7.1090    6.2989 H   0  0  0  0  0  0  0  0  0  0  0  0
    8.4473    6.3669    7.3775 C   0  0  0  0  0  0  0  0  0  0  0  0
    7.8708    7.1090    7.2303 H   0  0  0  0  0  0  0  0  0  0  0  0
    0.6806    3.6835    9.3585 P   0  0  0  0  0  0  0  0  0  0  0  0
   -0.3719    2.9363   10.6411 C   0  0  0  0  0  0  0  0  0  0  0  0
    0.2249    2.4293   11.7451 C   0  0  0  0  0  0  0  0  0  0  0  0
    1.1722    2.4625   11.8187 H   0  0  0  0  0  0  0  0  0  0  0  0
   -0.5074    1.8673   12.7653 C   0  0  0  0  0  0  0  0  0  0  0  0
   -0.0544    1.5020   13.5165 H   0  0  0  0  0  0  0  0  0  0  0  0
   -1.8355    1.8226   12.7196 C   0  0  0  0  0  0  0  0  0  0  0  0
   -2.3330    1.4573   13.4429 H   0  0  0  0  0  0  0  0  0  0  0  0
   -2.4682    2.3118   11.6207 C   0  0  0  0  0  0  0  0  0  0  0  0
   -3.4137    2.2492   11.5471 H   0  0  0  0  0  0  0  0  0  0  0  0
   -1.7332    2.8967   10.6157 C   0  0  0  0  0  0  0  0  0  0  0  0
   -2.1911    3.2850    9.8798 H   0  0  0  0  0  0  0  0  0  0  0  0
   -0.4147    3.7640    7.9130 C   0  0  0  0  0  0  0  0  0  0  0  0
   -1.1875    4.8713    7.5729 C   0  0  0  0  0  0  0  0  0  0  0  0
   -1.1370    5.6568    8.1033 H   0  0  0  0  0  0  0  0  0  0  0  0
   -2.0212    4.8483    6.4791 C   0  0  0  0  0  0  0  0  0  0  0  0
   -2.5344    5.6172    6.2583 H   0  0  0  0  0  0  0  0  0  0  0  0
   -2.1135    3.7308    5.7177 C   0  0  0  0  0  0  0  0  0  0  0  0
   -2.6998    3.7231    4.9691 H   0  0  0  0  0  0  0  0  0  0  0  0
   -1.3602    2.5876    6.0147 C   0  0  0  0  0  0  0  0  0  0  0  0
   -1.4388    1.8034    5.4843 H   0  0  0  0  0  0  0  0  0  0  0  0
   -0.4961    2.6221    7.1034 C   0  0  0  0  0  0  0  0  0  0  0  0
    0.0449    1.8673    7.3013 H   0  0  0  0  0  0  0  0  0  0  0  0
    0.9062    5.3924    9.8849 C   0  0  0  0  0  0  0  0  0  0  0  0
   -0.0762    6.0745   10.6234 C   0  0  0  0  0  0  0  0  0  0  0  0
   -0.8685    5.6300   10.9025 H   0  0  0  0  0  0  0  0  0  0  0  0
    0.1321    7.4028   10.9381 C   0  0  0  0  0  0  0  0  0  0  0  0
   -0.5440    7.8804   11.4025 H   0  0  0  0  0  0  0  0  0  0  0  0
    1.2816    8.0427   10.5929 C   0  0  0  0  0  0  0  0  0  0  0  0
    1.3952    8.9584   10.8162 H   0  0  0  0  0  0  0  0  0  0  0  0
    2.2794    7.3772    9.9280 C   0  0  0  0  0  0  0  0  0  0  0  0
    3.0984    7.8128    9.7224 H   0  0  0  0  0  0  0  0  0  0  0  0
    2.0728    6.0693    9.5625 C   0  0  0  0  0  0  0  0  0  0  0  0
    2.7505    5.6147    9.0753 H   0  0  0  0  0  0  0  0  0  0  0  0
    4.2159    2.3501    4.5280 P   0  0  0  0  0  0  0  0  0  0  0  0
    3.6977    1.0128    3.4108 C   0  0  0  0  0  0  0  0  0  0  0  0
    4.0950   -0.2593    3.6519 C   0  0  0  0  0  0  0  0  0  0  0  0
    4.5340   -0.4560    4.4691 H   0  0  0  0  0  0  0  0  0  0  0  0
    3.8847   -1.2721    2.7561 C   0  0  0  0  0  0  0  0  0  0  0  0
    4.2254   -2.1432    2.9236 H   0  0  0  0  0  0  0  0  0  0  0  0
    3.1575   -1.0026    1.5887 C   0  0  0  0  0  0  0  0  0  0  0  0
    2.9805   -1.6974    0.9644 H   0  0  0  0  0  0  0  0  0  0  0  0
    2.7054    0.2746    1.3527 C   0  0  0  0  0  0  0  0  0  0  0  0
    2.2139    0.4675    0.5634 H   0  0  0  0  0  0  0  0  0  0  0  0
    2.9649    1.2785    2.2688 C   0  0  0  0  0  0  0  0  0  0  0  0
    2.6383    2.1559    2.1140 H   0  0  0  0  0  0  0  0  0  0  0  0
    5.9380    2.7166    3.9717 C   0  0  0  0  0  0  0  0  0  0  0  0
    6.3634    2.4395    2.7053 C   0  0  0  0  0  0  0  0  0  0  0  0
    5.7739    2.0346    2.0810 H   0  0  0  0  0  0  0  0  0  0  0  0
    7.6490    2.7499    2.3450 C   0  0  0  0  0  0  0  0  0  0  0  0
    7.9479    2.5698    1.4618 H   0  0  0  0  0  0  0  0  0  0  0  0
    8.5070    3.3233    3.2560 C   0  0  0  0  0  0  0  0  0  0  0  0
    9.3919    3.5468    2.9921 H   0  0  0  0  0  0  0  0  0  0  0  0
    8.1009    3.5737    4.5402 C   0  0  0  0  0  0  0  0  0  0  0  0
    8.7064    3.9364    5.1772 H   0  0  0  0  0  0  0  0  0  0  0  0
    6.8070    3.2914    4.8853 C   0  0  0  0  0  0  0  0  0  0  0  0
    6.5010    3.4919    5.7634 H   0  0  0  0  0  0  0  0  0  0  0  0
    3.2143    3.7755    4.0402 C   0  0  0  0  0  0  0  0  0  0  0  0
    1.9315    3.8802    4.5732 C   0  0  0  0  0  0  0  0  0  0  0  0
    1.6420    3.2454    5.2178 H   0  0  0  0  0  0  0  0  0  0  0  0
    1.0687    4.8930    4.1798 C   0  0  0  0  0  0  0  0  0  0  0  0
    0.1932    4.9467    4.5478 H   0  0  0  0  0  0  0  0  0  0  0  0
    1.4972    5.8331    3.2408 C   0  0  0  0  0  0  0  0  0  0  0  0
    0.9113    6.5279    2.9616 H   0  0  0  0  0  0  0  0  0  0  0  0
    2.7933    5.7513    2.7053 C   0  0  0  0  0  0  0  0  0  0  0  0
    3.0989    6.3887    2.0709 H   0  0  0  0  0  0  0  0  0  0  0  0
    3.6128    4.7129    3.1266 C   0  0  0  0  0  0  0  0  0  0  0  0
    4.4899    4.6504    2.7637 H   0  0  0  0  0  0  0  0  0  0  0  0
  1  2  1  0  0  0  0
  2  3  1  0  0  0  0
  3  1  1  0  0  0  0
  4  1  1  0  0  0  0
  5  4  1  0  0  0  0
  6  1  1  0  0  0  0
  7  4  1  0  0  0  0
  8  7  1  0  0  0  0
  9  4  1  0  0  0  0
 10  9  1  0  0  0  0
 11  4  1  0  0  0  0
 12 11  1  0  0  0  0
 13  4  1  0  0  0  0
 14 13  1  0  0  0  0
 15  5  1  0  0  0  0
 16 15  1  0  0  0  0
 17  6  1  0  0  0  0
 18 17  1  0  0  0  0
 19  9  1  0  0  0  0
 20 19  1  0  0  0  0
 21  7  1  0  0  0  0
 22 21  1  0  0  0  0
 23  4  1  0  0  0  0
 24 23  3  0  0  0  0
 25  4  1  0  0  0  0
 26 25  3  0  0  0  0
 27  5  1  0  0  0  0
 28 27  4  0  0  0  0
 29 28  1  0  0  0  0
 30 28  4  0  0  0  0
 31 30  1  0  0  0  0
 32 30  4  0  0  0  0
 33 32  1  0  0  0  0
 34 32  4  0  0  0  0
 35 34  1  0  0  0  0
 36 27  4  0  0  0  0
 37 36  1  0  0  0  0
 38  1  1  0  0  0  0
 39 38  1  0  0  0  0
 40 39  4  0  0  0  0
 41 40  1  0  0  0  0
 42 40  4  0  0  0  0
 43 42  1  0  0  0  0
 44 42  4  0  0  0  0
 45 44  1  0  0  0  0
 46 44  4  0  0  0  0
 47 46  1  0  0  0  0
 48 39  4  0  0  0  0
 49 48  1  0  0  0  0
 50 38  1  0  0  0  0
 51 50  4  0  0  0  0
 52 51  1  0  0  0  0
 53 51  4  0  0  0  0
 54 53  1  0  0  0  0
 55 53  4  0  0  0  0
 56 55  1  0  0  0  0
 57 55  4  0  0  0  0
 58 57  1  0  0  0  0
 59 50  4  0  0  0  0
 60 59  1  0  0  0  0
 61 38  1  0  0  0  0
 62 61  4  0  0  0  0
 63 62  1  0  0  0  0
 64 62  4  0  0  0  0
 65 64  1  0  0  0  0
 66 64  4  0  0  0  0
 67 66  1  0  0  0  0
 68 66  4  0  0  0  0
 69 68  1  0  0  0  0
 70 61  4  0  0  0  0
 71 70  1  0  0  0  0
 72  2  1  0  0  0  0
 73 72  1  0  0  0  0
 74 73  4  0  0  0  0
 75 74  1  0  0  0  0
 76 74  4  0  0  0  0
 77 76  1  0  0  0  0
 78 76  4  0  0  0  0
 79 78  1  0  0  0  0
 80 78  4  0  0  0  0
 81 80  1  0  0  0  0
 82 73  4  0  0  0  0
 83 82  1  0  0  0  0
 84 72  1  0  0  0  0
 85 84  4  0  0  0  0
 86 85  1  0  0  0  0
 87 85  4  0  0  0  0
 88 87  1  0  0  0  0
 89 87  4  0  0  0  0
 90 89  1  0  0  0  0
 91 89  4  0  0  0  0
 92 91  1  0  0  0  0
 93 84  4  0  0  0  0
 94 93  1  0  0  0  0
 95 72  1  0  0  0  0
 96 95  4  0  0  0  0
 97 96  1  0  0  0  0
 98 96  4  0  0  0  0
 99 98  1  0  0  0  0
100 98  4  0  0  0  0
101100  1  0  0  0  0
102100  4  0  0  0  0
103102  1  0  0  0  0
104 95  4  0  0  0  0
105104  1  0  0  0  0
106  3  1  0  0  0  0
107106  1  0  0  0  0
108107  4  0  0  0  0
109108  1  0  0  0  0
110108  4  0  0  0  0
111110  1  0  0  0  0
112110  4  0  0  0  0
113112  1  0  0  0  0
114112  4  0  0  0  0
115114  1  0  0  0  0
116107  4  0  0  0  0
117116  1  0  0  0  0
118106  1  0  0  0  0
119118  4  0  0  0  0
120119  1  0  0  0  0
121119  4  0  0  0  0
122121  1  0  0  0  0
123121  4  0  0  0  0
124123  1  0  0  0  0
125123  4  0  0  0  0
126125  1  0  0  0  0
127118  4  0  0  0  0
128127  1  0  0  0  0
129106  1  0  0  0  0
130129  4  0  0  0  0
131130  1  0  0  0  0
132130  4  0  0  0  0
133132  1  0  0  0  0
134132  4  0  0  0  0
135134  1  0  0  0  0
136134  4  0  0  0  0
137136  1  0  0  0  0
138129  4  0  0  0  0
139138  1  0  0  0  0
  2  6  1  0  0  0  0
  3  6  1  0  0  0  0
  4  6  1  0  0  0  0
  5  7  1  0  0  0  0
  5  9  1  0  0  0  0
  6 11  1  0  0  0  0
  6 13  1  0  0  0  0
  7 13  1  0  0  0  0
  7 15  1  0  0  0  0
  9 11  1  0  0  0  0
  9 15  1  0  0  0  0
 11 17  1  0  0  0  0
 11 19  1  0  0  0  0
 13 17  1  0  0  0  0
 13 21  1  0  0  0  0
 15 19  1  0  0  0  0
 15 21  1  0  0  0  0
 17 19  1  0  0  0  0
 17 21  1  0  0  0  0
 19 21  1  0  0  0  0
 34 36  4  0  0  0  0
 46 48  4  0  0  0  0
 57 59  4  0  0  0  0
 68 70  4  0  0  0  0
 80 82  4  0  0  0  0
 91 93  4  0  0  0  0
102104  4  0  0  0  0
114116  4  0  0  0  0
125127  4  0  0  0  0
136138  4  0  0  0  0
M  END
$$$$
YUVFIF

From CSD data. Using bond type 'Any'. No disordered atoms. Largest molecule.
212220  0  0  0  0  0  0  0  0999 V2000
    9.2276   29.1576    1.0567 W   0  0  0  0  0  0  0  0  0  0  0  0
    9.3910   27.0441   -0.2844 Cl  0  0  0  0  0  0  0  0  0  0  0  0
   10.4256   27.9053    2.8828 P   0  0  0  0  0  0  0  0  0  0  0  0
    7.2877   27.9782    2.2179 P   0  0  0  0  0  0  0  0  0  0  0  0
   11.1646   30.0600   -0.3113 P   0  0  0  0  0  0  0  0  0  0  0  0
    8.0344   30.3491   -0.7821 P   0  0  0  0  0  0  0  0  0  0  0  0
    9.1223   30.6247    2.0310 N   0  0  0  0  0  0  0  0  0  0  0  0
    9.0546   31.6885    2.6947 O   0  0  0  0  0  0  0  0  0  0  0  0
    9.0183   35.2185    4.0830 B   0  0  0  0  0  0  0  0  0  0  0  0
    8.0984   34.6511    4.5437 H   0  0  0  0  0  0  0  0  0  0  0  0
    8.3053   32.1857    5.7006 H   0  0  0  0  0  0  0  0  0  0  0  0
    8.8707   36.1709    3.4919 H   0  0  0  0  0  0  0  0  0  0  0  0
    9.4798   34.4147    3.3026 H   0  0  0  0  0  0  0  0  0  0  0  0
    9.0150   32.8544    4.0988 Li  0  0  0  0  0  0  0  0  0  0  0  0
    9.3466   26.4811    3.3752 C   0  0  0  0  0  0  0  0  0  0  0  0
    9.3351   25.8195    2.6673 H   0  0  0  0  0  0  0  0  0  0  0  0
    9.7003   26.0626    4.1756 H   0  0  0  0  0  0  0  0  0  0  0  0
    7.9365   26.9725    3.6360 C   0  0  0  0  0  0  0  0  0  0  0  0
    7.9301   27.5115    4.4417 H   0  0  0  0  0  0  0  0  0  0  0  0
    7.3535   26.2112    3.7822 H   0  0  0  0  0  0  0  0  0  0  0  0
   12.0958   27.1005    2.7294 C   0  0  0  0  0  0  0  0  0  0  0  0
   12.6901   27.7580    2.3097 H   0  0  0  0  0  0  0  0  0  0  0  0
   12.7787   26.6509    4.0378 C   0  0  0  0  0  0  0  0  0  0  0  0
   12.1849   26.0795    4.5279 H   0  0  0  0  0  0  0  0  0  0  0  0
   12.9911   27.4203    4.5689 H   0  0  0  0  0  0  0  0  0  0  0  0
   13.5844   26.1741    3.8306 H   0  0  0  0  0  0  0  0  0  0  0  0
   12.0491   25.8850    1.7996 C   0  0  0  0  0  0  0  0  0  0  0  0
   12.9421   25.6506    1.5324 H   0  0  0  0  0  0  0  0  0  0  0  0
   11.5280   26.0964    1.0223 H   0  0  0  0  0  0  0  0  0  0  0  0
   11.6496   25.1440    2.2613 H   0  0  0  0  0  0  0  0  0  0  0  0
   10.4638   28.9755    4.4101 C   0  0  0  0  0  0  0  0  0  0  0  0
    9.6351   29.4973    4.3743 H   0  0  0  0  0  0  0  0  0  0  0  0
   10.4398   28.2903    5.7774 C   0  0  0  0  0  0  0  0  0  0  0  0
   11.2644   27.8188    5.9131 H   0  0  0  0  0  0  0  0  0  0  0  0
    9.7073   27.6702    5.8121 H   0  0  0  0  0  0  0  0  0  0  0  0
   10.3342   28.9502    6.4642 H   0  0  0  0  0  0  0  0  0  0  0  0
   11.5880   30.0134    4.3196 C   0  0  0  0  0  0  0  0  0  0  0  0
   11.5294   30.6152    5.0654 H   0  0  0  0  0  0  0  0  0  0  0  0
   11.5018   30.5105    3.5014 H   0  0  0  0  0  0  0  0  0  0  0  0
   12.4380   29.5683    4.3344 H   0  0  0  0  0  0  0  0  0  0  0  0
    6.3568   26.7509    1.1391 C   0  0  0  0  0  0  0  0  0  0  0  0
    6.9371   26.6266    0.3597 H   0  0  0  0  0  0  0  0  0  0  0  0
    5.0723   27.3088    0.5595 C   0  0  0  0  0  0  0  0  0  0  0  0
    4.8077   26.7820   -0.1988 H   0  0  0  0  0  0  0  0  0  0  0  0
    5.2119   28.2173    0.2861 H   0  0  0  0  0  0  0  0  0  0  0  0
    4.3816   27.2785    1.2253 H   0  0  0  0  0  0  0  0  0  0  0  0
    6.1609   25.3561    1.6860 C   0  0  0  0  0  0  0  0  0  0  0  0
    5.5769   25.3905    2.4475 H   0  0  0  0  0  0  0  0  0  0  0  0
    7.0098   24.9954    1.9500 H   0  0  0  0  0  0  0  0  0  0  0  0
    5.7719   24.7995    1.0087 H   0  0  0  0  0  0  0  0  0  0  0  0
    5.9412   28.9229    3.0743 C   0  0  0  0  0  0  0  0  0  0  0  0
    5.4162   29.3791    2.3833 H   0  0  0  0  0  0  0  0  0  0  0  0
    6.5132   30.0049    4.0073 C   0  0  0  0  0  0  0  0  0  0  0  0
    5.7921   30.4632    4.4448 H   0  0  0  0  0  0  0  0  0  0  0  0
    7.0272   30.6321    3.4930 H   0  0  0  0  0  0  0  0  0  0  0  0
    7.0774   29.5953    4.6667 H   0  0  0  0  0  0  0  0  0  0  0  0
    4.9835   28.0316    3.8600 C   0  0  0  0  0  0  0  0  0  0  0  0
    5.4332   27.6804    4.6331 H   0  0  0  0  0  0  0  0  0  0  0  0
    4.6945   27.3055    3.3026 H   0  0  0  0  0  0  0  0  0  0  0  0
    4.2222   28.5449    4.1377 H   0  0  0  0  0  0  0  0  0  0  0  0
   10.5364   31.3805   -1.4841 C   0  0  0  0  0  0  0  0  0  0  0  0
   11.1266   32.1485   -1.4430 H   0  0  0  0  0  0  0  0  0  0  0  0
   10.5563   31.0374   -2.3907 H   0  0  0  0  0  0  0  0  0  0  0  0
    9.1157   31.8213   -1.1454 C   0  0  0  0  0  0  0  0  0  0  0  0
    8.7444   32.3174   -1.8911 H   0  0  0  0  0  0  0  0  0  0  0  0
    9.1333   32.4086   -0.3723 H   0  0  0  0  0  0  0  0  0  0  0  0
   12.2177   29.0840   -1.5114 C   0  0  0  0  0  0  0  0  0  0  0  0
   12.8451   29.7236   -1.9111 H   0  0  0  0  0  0  0  0  0  0  0  0
   13.0657   28.0451   -0.7941 C   0  0  0  0  0  0  0  0  0  0  0  0
   12.5098   27.3122   -0.5206 H   0  0  0  0  0  0  0  0  0  0  0  0
   13.4730   28.4436   -0.0221 H   0  0  0  0  0  0  0  0  0  0  0  0
   13.7493   27.7243   -1.3873 H   0  0  0  0  0  0  0  0  0  0  0  0
   11.4832   28.4234   -2.6715 C   0  0  0  0  0  0  0  0  0  0  0  0
   12.1202   28.0417   -3.2794 H   0  0  0  0  0  0  0  0  0  0  0  0
   10.9531   29.0786   -3.1301 H   0  0  0  0  0  0  0  0  0  0  0  0
   10.9114   27.7310   -2.3339 H   0  0  0  0  0  0  0  0  0  0  0  0
   12.4758   30.9928    0.6447 C   0  0  0  0  0  0  0  0  0  0  0  0
   12.7458   30.4160    1.3904 H   0  0  0  0  0  0  0  0  0  0  0  0
   11.9027   32.2623    1.2558 C   0  0  0  0  0  0  0  0  0  0  0  0
   12.5495   32.6517    1.8480 H   0  0  0  0  0  0  0  0  0  0  0  0
   11.1060   32.0506    1.7470 H   0  0  0  0  0  0  0  0  0  0  0  0
   11.6914   32.8848    0.5574 H   0  0  0  0  0  0  0  0  0  0  0  0
   13.7589   31.3481   -0.1283 C   0  0  0  0  0  0  0  0  0  0  0  0
   13.5285   31.8243   -0.9277 H   0  0  0  0  0  0  0  0  0  0  0  0
   14.2242   30.5409   -0.3608 H   0  0  0  0  0  0  0  0  0  0  0  0
   14.3233   31.8952    0.4218 H   0  0  0  0  0  0  0  0  0  0  0  0
    7.9265   29.4622   -2.4033 C   0  0  0  0  0  0  0  0  0  0  0  0
    8.7201   28.8894   -2.4307 H   0  0  0  0  0  0  0  0  0  0  0  0
    6.7329   28.4916   -2.4170 C   0  0  0  0  0  0  0  0  0  0  0  0
    5.9131   28.9907   -2.4233 H   0  0  0  0  0  0  0  0  0  0  0  0
    6.7634   27.9370   -1.6345 H   0  0  0  0  0  0  0  0  0  0  0  0
    6.7776   27.9404   -3.2016 H   0  0  0  0  0  0  0  0  0  0  0  0
    7.9979   30.2978   -3.6886 C   0  0  0  0  0  0  0  0  0  0  0  0
    8.0584   29.7135   -4.4469 H   0  0  0  0  0  0  0  0  0  0  0  0
    8.7707   30.8651   -3.6591 H   0  0  0  0  0  0  0  0  0  0  0  0
    7.2070   30.8381   -3.7633 H   0  0  0  0  0  0  0  0  0  0  0  0
    6.3671   31.1353   -0.5091 C   0  0  0  0  0  0  0  0  0  0  0  0
    5.7475   30.4058   -0.2977 H   0  0  0  0  0  0  0  0  0  0  0  0
    6.4051   32.0374    0.7173 C   0  0  0  0  0  0  0  0  0  0  0  0
    6.9691   32.7936    0.5417 H   0  0  0  0  0  0  0  0  0  0  0  0
    6.7530   31.5474    1.4651 H   0  0  0  0  0  0  0  0  0  0  0  0
    5.5161   32.3410    0.9193 H   0  0  0  0  0  0  0  0  0  0  0  0
    5.7615   31.8851   -1.7049 C   0  0  0  0  0  0  0  0  0  0  0  0
    4.9332   32.2937   -1.4420 H   0  0  0  0  0  0  0  0  0  0  0  0
    5.6010   31.2670   -2.4222 H   0  0  0  0  0  0  0  0  0  0  0  0
    6.3724   32.5639   -1.9994 H   0  0  0  0  0  0  0  0  0  0  0  0
    8.8154   38.3884    9.4611 W   0  0  0  0  0  0  0  0  0  0  0  0
    8.6520   40.5019   10.8022 Cl  0  0  0  0  0  0  0  0  0  0  0  0
    7.6174   39.6407    7.6350 P   0  0  0  0  0  0  0  0  0  0  0  0
   10.7553   39.5678    8.2999 P   0  0  0  0  0  0  0  0  0  0  0  0
    6.8784   37.4860   10.8291 P   0  0  0  0  0  0  0  0  0  0  0  0
   10.0086   37.1969   11.2999 P   0  0  0  0  0  0  0  0  0  0  0  0
    8.9207   36.9213    8.4868 N   0  0  0  0  0  0  0  0  0  0  0  0
    8.9884   35.8575    7.8231 O   0  0  0  0  0  0  0  0  0  0  0  0
    9.0247   32.3275    6.4348 B   0  0  0  0  0  0  0  0  0  0  0  0
    9.9446   32.8949    5.9741 H   0  0  0  0  0  0  0  0  0  0  0  0
    9.7377   35.3603    4.8171 H   0  0  0  0  0  0  0  0  0  0  0  0
    9.1723   31.3751    7.0259 H   0  0  0  0  0  0  0  0  0  0  0  0
    8.5632   33.1313    7.2152 H   0  0  0  0  0  0  0  0  0  0  0  0
    9.0280   34.6916    6.4190 Li  0  0  0  0  0  0  0  0  0  0  0  0
    8.6964   41.0649    7.1426 C   0  0  0  0  0  0  0  0  0  0  0  0
    8.7079   41.7265    7.8505 H   0  0  0  0  0  0  0  0  0  0  0  0
    8.3427   41.4834    6.3422 H   0  0  0  0  0  0  0  0  0  0  0  0
   10.1065   40.5735    6.8818 C   0  0  0  0  0  0  0  0  0  0  0  0
   10.1129   40.0345    6.0761 H   0  0  0  0  0  0  0  0  0  0  0  0
   10.6895   41.3348    6.7356 H   0  0  0  0  0  0  0  0  0  0  0  0
    5.9472   40.4455    7.7884 C   0  0  0  0  0  0  0  0  0  0  0  0
    5.3529   39.7880    8.2081 H   0  0  0  0  0  0  0  0  0  0  0  0
    5.2643   40.8951    6.4800 C   0  0  0  0  0  0  0  0  0  0  0  0
    5.8581   41.4665    5.9899 H   0  0  0  0  0  0  0  0  0  0  0  0
    5.0519   40.1257    5.9489 H   0  0  0  0  0  0  0  0  0  0  0  0
    4.4586   41.3719    6.6872 H   0  0  0  0  0  0  0  0  0  0  0  0
    5.9939   41.6610    8.7182 C   0  0  0  0  0  0  0  0  0  0  0  0
    5.1009   41.8954    8.9853 H   0  0  0  0  0  0  0  0  0  0  0  0
    6.5150   41.4496    9.4954 H   0  0  0  0  0  0  0  0  0  0  0  0
    6.3934   42.4020    8.2565 H   0  0  0  0  0  0  0  0  0  0  0  0
    7.5792   38.5705    6.1077 C   0  0  0  0  0  0  0  0  0  0  0  0
    8.4079   38.0487    6.1434 H   0  0  0  0  0  0  0  0  0  0  0  0
    7.6032   39.2557    4.7404 C   0  0  0  0  0  0  0  0  0  0  0  0
    6.7786   39.7272    4.6047 H   0  0  0  0  0  0  0  0  0  0  0  0
    8.3357   39.8758    4.7057 H   0  0  0  0  0  0  0  0  0  0  0  0
    7.7088   38.5958    4.0535 H   0  0  0  0  0  0  0  0  0  0  0  0
    6.4550   37.5326    6.1981 C   0  0  0  0  0  0  0  0  0  0  0  0
    6.5136   36.9308    5.4524 H   0  0  0  0  0  0  0  0  0  0  0  0
    6.5412   37.0355    7.0164 H   0  0  0  0  0  0  0  0  0  0  0  0
    5.6050   37.9777    6.1834 H   0  0  0  0  0  0  0  0  0  0  0  0
   11.6862   40.7951    9.3787 C   0  0  0  0  0  0  0  0  0  0  0  0
   11.1059   40.9194   10.1581 H   0  0  0  0  0  0  0  0  0  0  0  0
   12.9707   40.2372    9.9582 C   0  0  0  0  0  0  0  0  0  0  0  0
   13.2353   40.7640   10.7166 H   0  0  0  0  0  0  0  0  0  0  0  0
   12.8311   39.3287   10.2317 H   0  0  0  0  0  0  0  0  0  0  0  0
   13.6614   40.2675    9.2925 H   0  0  0  0  0  0  0  0  0  0  0  0
   11.8821   42.1899    8.8318 C   0  0  0  0  0  0  0  0  0  0  0  0
   12.4661   42.1555    8.0703 H   0  0  0  0  0  0  0  0  0  0  0  0
   11.0332   42.5506    8.5678 H   0  0  0  0  0  0  0  0  0  0  0  0
   12.2711   42.7465    9.5091 H   0  0  0  0  0  0  0  0  0  0  0  0
   12.1018   38.6231    7.4434 C   0  0  0  0  0  0  0  0  0  0  0  0
   12.6268   38.1669    8.1344 H   0  0  0  0  0  0  0  0  0  0  0  0
   11.5298   37.5411    6.5105 C   0  0  0  0  0  0  0  0  0  0  0  0
   12.2509   37.0828    6.0730 H   0  0  0  0  0  0  0  0  0  0  0  0
   11.0158   36.9139    7.0248 H   0  0  0  0  0  0  0  0  0  0  0  0
   10.9656   37.9507    5.8510 H   0  0  0  0  0  0  0  0  0  0  0  0
   13.0595   39.5144    6.6578 C   0  0  0  0  0  0  0  0  0  0  0  0
   12.6098   39.8656    5.8847 H   0  0  0  0  0  0  0  0  0  0  0  0
   13.3485   40.2405    7.2152 H   0  0  0  0  0  0  0  0  0  0  0  0
   13.8208   39.0011    6.3801 H   0  0  0  0  0  0  0  0  0  0  0  0
    7.5066   36.1655   12.0018 C   0  0  0  0  0  0  0  0  0  0  0  0
    6.9164   35.3975   11.9608 H   0  0  0  0  0  0  0  0  0  0  0  0
    7.4867   36.5086   12.9085 H   0  0  0  0  0  0  0  0  0  0  0  0
    8.9273   35.7247   11.6632 C   0  0  0  0  0  0  0  0  0  0  0  0
    9.2986   35.2286   12.4089 H   0  0  0  0  0  0  0  0  0  0  0  0
    8.9097   35.1374   10.8901 H   0  0  0  0  0  0  0  0  0  0  0  0
    5.8253   38.4620   12.0292 C   0  0  0  0  0  0  0  0  0  0  0  0
    5.1979   37.8224   12.4289 H   0  0  0  0  0  0  0  0  0  0  0  0
    4.9773   39.5009   11.3119 C   0  0  0  0  0  0  0  0  0  0  0  0
    5.5332   40.2338   11.0384 H   0  0  0  0  0  0  0  0  0  0  0  0
    4.5700   39.1024   10.5399 H   0  0  0  0  0  0  0  0  0  0  0  0
    4.2937   39.8217   11.9051 H   0  0  0  0  0  0  0  0  0  0  0  0
    6.5598   39.1226   13.1893 C   0  0  0  0  0  0  0  0  0  0  0  0
    5.9228   39.5043   13.7972 H   0  0  0  0  0  0  0  0  0  0  0  0
    7.0899   38.4674   13.6479 H   0  0  0  0  0  0  0  0  0  0  0  0
    7.1316   39.8150   12.8517 H   0  0  0  0  0  0  0  0  0  0  0  0
    5.5672   36.5532    9.8730 C   0  0  0  0  0  0  0  0  0  0  0  0
    5.2972   37.1300    9.1273 H   0  0  0  0  0  0  0  0  0  0  0  0
    6.1403   35.2837    9.2620 C   0  0  0  0  0  0  0  0  0  0  0  0
    5.4935   34.8943    8.6698 H   0  0  0  0  0  0  0  0  0  0  0  0
    6.9370   35.4954    8.7708 H   0  0  0  0  0  0  0  0  0  0  0  0
    6.3516   34.6612    9.9603 H   0  0  0  0  0  0  0  0  0  0  0  0
    4.2841   36.1979   10.6461 C   0  0  0  0  0  0  0  0  0  0  0  0
    4.5145   35.7217   11.4454 H   0  0  0  0  0  0  0  0  0  0  0  0
    3.8188   37.0051   10.8785 H   0  0  0  0  0  0  0  0  0  0  0  0
    3.7197   35.6508   10.0960 H   0  0  0  0  0  0  0  0  0  0  0  0
   10.1165   38.0838   12.9211 C   0  0  0  0  0  0  0  0  0  0  0  0
    9.3229   38.6566   12.9484 H   0  0  0  0  0  0  0  0  0  0  0  0
   11.3101   39.0544   12.9348 C   0  0  0  0  0  0  0  0  0  0  0  0
   12.1299   38.5553   12.9411 H   0  0  0  0  0  0  0  0  0  0  0  0
   11.2796   39.6090   12.1522 H   0  0  0  0  0  0  0  0  0  0  0  0
   11.2654   39.6056   13.7194 H   0  0  0  0  0  0  0  0  0  0  0  0
   10.0451   37.2482   14.2064 C   0  0  0  0  0  0  0  0  0  0  0  0
    9.9846   37.8325   14.9647 H   0  0  0  0  0  0  0  0  0  0  0  0
    9.2723   36.6809   14.1769 H   0  0  0  0  0  0  0  0  0  0  0  0
   10.8360   36.7079   14.2810 H   0  0  0  0  0  0  0  0  0  0  0  0
   11.6759   36.4107   11.0268 C   0  0  0  0  0  0  0  0  0  0  0  0
   12.2955   37.1402   10.8154 H   0  0  0  0  0  0  0  0  0  0  0  0
   11.6379   35.5086    9.8005 C   0  0  0  0  0  0  0  0  0  0  0  0
   11.0739   34.7524    9.9761 H   0  0  0  0  0  0  0  0  0  0  0  0
   11.2900   35.9986    9.0526 H   0  0  0  0  0  0  0  0  0  0  0  0
   12.5269   35.2050    9.5985 H   0  0  0  0  0  0  0  0  0  0  0  0
   12.2815   35.6609   12.2227 C   0  0  0  0  0  0  0  0  0  0  0  0
   13.1098   35.2523   11.9598 H   0  0  0  0  0  0  0  0  0  0  0  0
   12.4420   36.2790   12.9400 H   0  0  0  0  0  0  0  0  0  0  0  0
   11.6706   34.9821   12.5172 H   0  0  0  0  0  0  0  0  0  0  0  0
  1  2  1  0  0  0  0
  3  1  1  0  0  0  0
  4  1  1  0  0  0  0
  5  1  1  0  0  0  0
  6  1  1  0  0  0  0
  7  1  1  0  0  0  0
  8  7  2  0  0  0  0
  9 10  1  0  0  0  0
 10 14  1  0  0  0  0
 11 14  1  0  0  0  0
 12  9  1  0  0  0  0
 13  9  1  0  0  0  0
 14  8  1  0  0  0  0
 15  3  1  0  0  0  0
 16 15  1  0  0  0  0
 17 15  1  0  0  0  0
 18  4  1  0  0  0  0
 19 18  1  0  0  0  0
 20 18  1  0  0  0  0
 21  3  1  0  0  0  0
 22 21  1  0  0  0  0
 23 21  1  0  0  0  0
 24 23  1  0  0  0  0
 25 23  1  0  0  0  0
 26 23  1  0  0  0  0
 27 21  1  0  0  0  0
 28 27  1  0  0  0  0
 29 27  1  0  0  0  0
 30 27  1  0  0  0  0
 31  3  1  0  0  0  0
 32 31  1  0  0  0  0
 33 31  1  0  0  0  0
 34 33  1  0  0  0  0
 35 33  1  0  0  0  0
 36 33  1  0  0  0  0
 37 31  1  0  0  0  0
 38 37  1  0  0  0  0
 39 37  1  0  0  0  0
 40 37  1  0  0  0  0
 41  4  1  0  0  0  0
 42 41  1  0  0  0  0
 43 41  1  0  0  0  0
 44 43  1  0  0  0  0
 45 43  1  0  0  0  0
 46 43  1  0  0  0  0
 47 41  1  0  0  0  0
 48 47  1  0  0  0  0
 49 47  1  0  0  0  0
 50 47  1  0  0  0  0
 51  4  1  0  0  0  0
 52 51  1  0  0  0  0
 53 51  1  0  0  0  0
 54 53  1  0  0  0  0
 55 53  1  0  0  0  0
 56 53  1  0  0  0  0
 57 51  1  0  0  0  0
 58 57  1  0  0  0  0
 59 57  1  0  0  0  0
 60 57  1  0  0  0  0
 61  5  1  0  0  0  0
 62 61  1  0  0  0  0
 63 61  1  0  0  0  0
 64  6  1  0  0  0  0
 65 64  1  0  0  0  0
 66 64  1  0  0  0  0
 67  5  1  0  0  0  0
 68 67  1  0  0  0  0
 69 67  1  0  0  0  0
 70 69  1  0  0  0  0
 71 69  1  0  0  0  0
 72 69  1  0  0  0  0
 73 67  1  0  0  0  0
 74 73  1  0  0  0  0
 75 73  1  0  0  0  0
 76 73  1  0  0  0  0
 77  5  1  0  0  0  0
 78 77  1  0  0  0  0
 79 77  1  0  0  0  0
 80 79  1  0  0  0  0
 81 79  1  0  0  0  0
 82 79  1  0  0  0  0
 83 77  1  0  0  0  0
 84 83  1  0  0  0  0
 85 83  1  0  0  0  0
 86 83  1  0  0  0  0
 87  6  1  0  0  0  0
 88 87  1  0  0  0  0
 89 87  1  0  0  0  0
 90 89  1  0  0  0  0
 91 89  1  0  0  0  0
 92 89  1  0  0  0  0
 93 87  1  0  0  0  0
 94 93  1  0  0  0  0
 95 93  1  0  0  0  0
 96 93  1  0  0  0  0
 97  6  1  0  0  0  0
 98 97  1  0  0  0  0
 99 97  1  0  0  0  0
100 99  1  0  0  0  0
101 99  1  0  0  0  0
102 99  1  0  0  0  0
103 97  1  0  0  0  0
104103  1  0  0  0  0
105103  1  0  0  0  0
106103  1  0  0  0  0
107108  1  0  0  0  0
109107  1  0  0  0  0
110107  1  0  0  0  0
111107  1  0  0  0  0
112107  1  0  0  0  0
113107  1  0  0  0  0
114113  2  0  0  0  0
115 11  1  0  0  0  0
116 14  1  0  0  0  0
117  9  1  0  0  0  0
118115  1  0  0  0  0
119115  1  0  0  0  0
120 10  1  0  0  0  0
121109  1  0  0  0  0
122121  1  0  0  0  0
123121  1  0  0  0  0
124110  1  0  0  0  0
125124  1  0  0  0  0
126124  1  0  0  0  0
127109  1  0  0  0  0
128127  1  0  0  0  0
129127  1  0  0  0  0
130129  1  0  0  0  0
131129  1  0  0  0  0
132129  1  0  0  0  0
133127  1  0  0  0  0
134133  1  0  0  0  0
135133  1  0  0  0  0
136133  1  0  0  0  0
137109  1  0  0  0  0
138137  1  0  0  0  0
139137  1  0  0  0  0
140139  1  0  0  0  0
141139  1  0  0  0  0
142139  1  0  0  0  0
143137  1  0  0  0  0
144143  1  0  0  0  0
145143  1  0  0  0  0
146143  1  0  0  0  0
147110  1  0  0  0  0
148147  1  0  0  0  0
149147  1  0  0  0  0
150149  1  0  0  0  0
151149  1  0  0  0  0
152149  1  0  0  0  0
153147  1  0  0  0  0
154153  1  0  0  0  0
155153  1  0  0  0  0
156153  1  0  0  0  0
157110  1  0  0  0  0
158157  1  0  0  0  0
159157  1  0  0  0  0
160159  1  0  0  0  0
161159  1  0  0  0  0
162159  1  0  0  0  0
163157  1  0  0  0  0
164163  1  0  0  0  0
165163  1  0  0  0  0
166163  1  0  0  0  0
167111  1  0  0  0  0
168167  1  0  0  0  0
169167  1  0  0  0  0
170112  1  0  0  0  0
171170  1  0  0  0  0
172170  1  0  0  0  0
173111  1  0  0  0  0
174173  1  0  0  0  0
175173  1  0  0  0  0
176175  1  0  0  0  0
177175  1  0  0  0  0
178175  1  0  0  0  0
179173  1  0  0  0  0
180179  1  0  0  0  0
181179  1  0  0  0  0
182179  1  0  0  0  0
183111  1  0  0  0  0
184183  1  0  0  0  0
185183  1  0  0  0  0
186185  1  0  0  0  0
187185  1  0  0  0  0
188185  1  0  0  0  0
189183  1  0  0  0  0
190189  1  0  0  0  0
191189  1  0  0  0  0
192189  1  0  0  0  0
193112  1  0  0  0  0
194193  1  0  0  0  0
195193  1  0  0  0  0
196195  1  0  0  0  0
197195  1  0  0  0  0
198195  1  0  0  0  0
199193  1  0  0  0  0
200199  1  0  0  0  0
201199  1  0  0  0  0
202199  1  0  0  0  0
203112  1  0  0  0  0
204203  1  0  0  0  0
205203  1  0  0  0  0
206205  1  0  0  0  0
207205  1  0  0  0  0
208205  1  0  0  0  0
209203  1  0  0  0  0
210209  1  0  0  0  0
211209  1  0  0  0  0
212209  1  0  0  0  0
 13 14  1  0  0  0  0
 15 18  1  0  0  0  0
 61 64  1  0  0  0  0
114120  1  0  0  0  0
115116  1  0  0  0  0
116120  1  0  0  0  0
117120  1  0  0  0  0
119120  1  0  0  0  0
121124  1  0  0  0  0
167170  1  0  0  0  0
M  END
$$$$
YUVFUR

From CSD data. Using bond type 'Any'. No disordered atoms. Largest molecule.
212220  0  0  0  0  0  0  0  0999 V2000
   11.6788    8.1305   11.5923 W   0  0  0  0  0  0  0  0  0  0  0  0
   10.6976    7.8313   13.0633 H   0  0  0  0  0  0  0  0  0  0  0  0
   10.9059   10.4483   12.1785 P   0  0  0  0  0  0  0  0  0  0  0  0
   13.2587    8.7196   13.3989 P   0  0  0  0  0  0  0  0  0  0  0  0
   12.0130    5.6539   11.6154 P   0  0  0  0  0  0  0  0  0  0  0  0
    9.8284    7.4181   10.0716 P   0  0  0  0  0  0  0  0  0  0  0  0
   16.2119   11.7422    9.3422 B   0  0  0  0  0  0  0  0  0  0  0  0
   15.2594   12.0229    8.8657 H   0  0  0  0  0  0  0  0  0  0  0  0
   16.2276   12.1428   10.3974 H   0  0  0  0  0  0  0  0  0  0  0  0
   13.8662   10.2572    6.7305 H   0  0  0  0  0  0  0  0  0  0  0  0
   16.2920   10.7510    9.3298 H   0  0  0  0  0  0  0  0  0  0  0  0
   14.6876   10.0543    8.4711 Li  0  0  0  0  0  0  0  0  0  0  0  0
   12.8565    8.5231   10.2908 N   0  0  0  0  0  0  0  0  0  0  0  0
   13.7467    8.8103    9.4606 O   0  0  0  0  0  0  0  0  0  0  0  0
   11.9327   11.1203   13.5835 C   0  0  0  0  0  0  0  0  0  0  0  0
   12.6749   11.6312   13.2242 H   0  0  0  0  0  0  0  0  0  0  0  0
   11.3903   11.7175   14.1216 H   0  0  0  0  0  0  0  0  0  0  0  0
   12.4718    9.9934   14.4628 C   0  0  0  0  0  0  0  0  0  0  0  0
   11.7474    9.5965   14.9711 H   0  0  0  0  0  0  0  0  0  0  0  0
   13.1230   10.3478   15.0887 H   0  0  0  0  0  0  0  0  0  0  0  0
   11.1041   11.8554   10.9633 C   0  0  0  0  0  0  0  0  0  0  0  0
   10.4444   11.7088   10.2535 H   0  0  0  0  0  0  0  0  0  0  0  0
   12.4782   11.8273   10.2981 C   0  0  0  0  0  0  0  0  0  0  0  0
   12.5410   12.5453    9.6640 H   0  0  0  0  0  0  0  0  0  0  0  0
   12.5964   10.9893    9.8451 H   0  0  0  0  0  0  0  0  0  0  0  0
   13.1595   11.9282   10.9668 H   0  0  0  0  0  0  0  0  0  0  0  0
   10.8379   13.2573   11.5299 C   0  0  0  0  0  0  0  0  0  0  0  0
   11.4902   13.4582   12.2046 H   0  0  0  0  0  0  0  0  0  0  0  0
    9.9596   13.2854   11.9153 H   0  0  0  0  0  0  0  0  0  0  0  0
   10.8988   13.9046   10.8229 H   0  0  0  0  0  0  0  0  0  0  0  0
    9.2124   10.8566   12.8790 C   0  0  0  0  0  0  0  0  0  0  0  0
    9.3234   11.7175   13.3341 H   0  0  0  0  0  0  0  0  0  0  0  0
    8.1368   11.0903   11.8487 C   0  0  0  0  0  0  0  0  0  0  0  0
    7.9348   10.2645   11.4047 H   0  0  0  0  0  0  0  0  0  0  0  0
    8.4455   11.7332   11.2051 H   0  0  0  0  0  0  0  0  0  0  0  0
    7.3472   11.4242   12.2804 H   0  0  0  0  0  0  0  0  0  0  0  0
    8.7844    9.8780   13.9728 C   0  0  0  0  0  0  0  0  0  0  0  0
    7.9434   10.1575   14.3413 H   0  0  0  0  0  0  0  0  0  0  0  0
    9.4481    9.8627   14.6663 H   0  0  0  0  0  0  0  0  0  0  0  0
    8.6934    8.9993   13.5971 H   0  0  0  0  0  0  0  0  0  0  0  0
   14.7481    9.6253   12.7304 C   0  0  0  0  0  0  0  0  0  0  0  0
   14.3992   10.1720   11.9957 H   0  0  0  0  0  0  0  0  0  0  0  0
   15.4726   10.6166   13.6460 C   0  0  0  0  0  0  0  0  0  0  0  0
   15.9880   10.1343   14.2965 H   0  0  0  0  0  0  0  0  0  0  0  0
   14.8272   11.1687   14.0953 H   0  0  0  0  0  0  0  0  0  0  0  0
   16.0563   11.1695   13.1206 H   0  0  0  0  0  0  0  0  0  0  0  0
   15.7406    8.6749   12.0689 C   0  0  0  0  0  0  0  0  0  0  0  0
   16.4380    9.1828   11.6476 H   0  0  0  0  0  0  0  0  0  0  0  0
   15.2857    8.1466   11.4078 H   0  0  0  0  0  0  0  0  0  0  0  0
   16.1221    8.0967   12.7338 H   0  0  0  0  0  0  0  0  0  0  0  0
   13.8735    7.5192   14.6856 C   0  0  0  0  0  0  0  0  0  0  0  0
   14.1396    6.7062   14.2083 H   0  0  0  0  0  0  0  0  0  0  0  0
   15.0815    7.9531   15.5228 C   0  0  0  0  0  0  0  0  0  0  0  0
   14.8750    8.7687   15.9845 H   0  0  0  0  0  0  0  0  0  0  0  0
   15.8359    8.0938   14.9463 H   0  0  0  0  0  0  0  0  0  0  0  0
   15.2909    7.2679   16.1624 H   0  0  0  0  0  0  0  0  0  0  0  0
   12.7256    7.1259   15.6164 C   0  0  0  0  0  0  0  0  0  0  0  0
   12.9252    6.2832   16.0309 H   0  0  0  0  0  0  0  0  0  0  0  0
   11.9149    7.0493   15.1088 H   0  0  0  0  0  0  0  0  0  0  0  0
   12.6183    7.7988   16.2924 H   0  0  0  0  0  0  0  0  0  0  0  0
   10.6884    4.7942   10.6391 C   0  0  0  0  0  0  0  0  0  0  0  0
   11.0554    3.9851   10.2489 H   0  0  0  0  0  0  0  0  0  0  0  0
    9.9694    4.5370   11.2376 H   0  0  0  0  0  0  0  0  0  0  0  0
   10.1224    5.6707    9.5288 C   0  0  0  0  0  0  0  0  0  0  0  0
    9.2851    5.2898    9.2215 H   0  0  0  0  0  0  0  0  0  0  0  0
   10.7398    5.6714    8.7806 H   0  0  0  0  0  0  0  0  0  0  0  0
   13.5089    4.8889   10.8269 C   0  0  0  0  0  0  0  0  0  0  0  0
   13.3479    3.9232   10.7889 H   0  0  0  0  0  0  0  0  0  0  0  0
   14.7919    5.0912   11.6241 C   0  0  0  0  0  0  0  0  0  0  0  0
   15.5213    4.6645   11.1711 H   0  0  0  0  0  0  0  0  0  0  0  0
   14.6888    4.7078   12.4986 H   0  0  0  0  0  0  0  0  0  0  0  0
   14.9723    6.0307   11.7064 H   0  0  0  0  0  0  0  0  0  0  0  0
   13.7007    5.3620    9.3933 C   0  0  0  0  0  0  0  0  0  0  0  0
   13.8153    6.3156    9.3840 H   0  0  0  0  0  0  0  0  0  0  0  0
   12.9284    5.1268    8.8734 H   0  0  0  0  0  0  0  0  0  0  0  0
   14.4782    4.9425    9.0188 H   0  0  0  0  0  0  0  0  0  0  0  0
   11.9207    4.7039   13.2327 C   0  0  0  0  0  0  0  0  0  0  0  0
   12.6128    5.0778   13.8184 H   0  0  0  0  0  0  0  0  0  0  0  0
   10.5836    4.8890   13.9579 C   0  0  0  0  0  0  0  0  0  0  0  0
    9.9012    4.3918   13.5012 H   0  0  0  0  0  0  0  0  0  0  0  0
   10.3506    5.8194   13.9669 H   0  0  0  0  0  0  0  0  0  0  0  0
   10.6627    4.5705   14.8597 H   0  0  0  0  0  0  0  0  0  0  0  0
   12.2100    3.2063   13.1111 C   0  0  0  0  0  0  0  0  0  0  0  0
   12.1663    2.8010   13.9793 H   0  0  0  0  0  0  0  0  0  0  0  0
   13.0877    3.0794   12.7430 H   0  0  0  0  0  0  0  0  0  0  0  0
   11.5581    2.8001   12.5342 H   0  0  0  0  0  0  0  0  0  0  0  0
    9.6352    8.2330    8.4089 C   0  0  0  0  0  0  0  0  0  0  0  0
    9.0464    7.6646    7.8692 H   0  0  0  0  0  0  0  0  0  0  0  0
   10.9586    8.3473    7.6712 C   0  0  0  0  0  0  0  0  0  0  0  0
   10.7986    8.6420    6.7723 H   0  0  0  0  0  0  0  0  0  0  0  0
   11.3917    7.4913    7.6557 H   0  0  0  0  0  0  0  0  0  0  0  0
   11.5211    8.9827    8.1199 H   0  0  0  0  0  0  0  0  0  0  0  0
    8.9694    9.5982    8.5264 C   0  0  0  0  0  0  0  0  0  0  0  0
    9.4718   10.1483    9.1318 H   0  0  0  0  0  0  0  0  0  0  0  0
    8.0759    9.4911    8.8595 H   0  0  0  0  0  0  0  0  0  0  0  0
    8.9420   10.0166    7.6619 H   0  0  0  0  0  0  0  0  0  0  0  0
    8.0572    7.3348   10.6660 C   0  0  0  0  0  0  0  0  0  0  0  0
    7.8047    8.2510   10.9065 H   0  0  0  0  0  0  0  0  0  0  0  0
    7.9086    6.4983   11.9417 C   0  0  0  0  0  0  0  0  0  0  0  0
    7.0280    6.6218   12.3052 H   0  0  0  0  0  0  0  0  0  0  0  0
    8.5624    6.7780   12.5868 H   0  0  0  0  0  0  0  0  0  0  0  0
    8.0402    5.5704   11.7327 H   0  0  0  0  0  0  0  0  0  0  0  0
    7.0409    6.8676    9.6176 C   0  0  0  0  0  0  0  0  0  0  0  0
    7.2681    5.9821    9.3237 H   0  0  0  0  0  0  0  0  0  0  0  0
    7.0558    7.4677    8.8688 H   0  0  0  0  0  0  0  0  0  0  0  0
    6.1625    6.8609   10.0044 H   0  0  0  0  0  0  0  0  0  0  0  0
   19.2459   14.0802    3.8801 W   0  0  0  0  0  0  0  0  0  0  0  0
   20.2271   14.3793    2.4090 H   0  0  0  0  0  0  0  0  0  0  0  0
   20.0188   11.7624    3.2939 P   0  0  0  0  0  0  0  0  0  0  0  0
   17.6660   13.4911    2.0735 P   0  0  0  0  0  0  0  0  0  0  0  0
   18.9116   16.5567    3.8570 P   0  0  0  0  0  0  0  0  0  0  0  0
   21.0962   14.7925    5.4008 P   0  0  0  0  0  0  0  0  0  0  0  0
   14.7128   10.4684    6.1302 B   0  0  0  0  0  0  0  0  0  0  0  0
   15.6652   10.1878    6.6067 H   0  0  0  0  0  0  0  0  0  0  0  0
   14.6971   10.0679    5.0749 H   0  0  0  0  0  0  0  0  0  0  0  0
   17.0585   11.9535    8.7419 H   0  0  0  0  0  0  0  0  0  0  0  0
   14.6327   11.4596    6.1425 H   0  0  0  0  0  0  0  0  0  0  0  0
   16.2371   12.1564    7.0012 Li  0  0  0  0  0  0  0  0  0  0  0  0
   18.0682   13.6875    5.1815 N   0  0  0  0  0  0  0  0  0  0  0  0
   17.1780   13.4003    6.0118 O   0  0  0  0  0  0  0  0  0  0  0  0
   18.9920   11.0904    1.8889 C   0  0  0  0  0  0  0  0  0  0  0  0
   18.2497   10.5794    2.2481 H   0  0  0  0  0  0  0  0  0  0  0  0
   19.5343   10.4931    1.3507 H   0  0  0  0  0  0  0  0  0  0  0  0
   18.4529   12.2172    1.0096 C   0  0  0  0  0  0  0  0  0  0  0  0
   19.1773   12.6141    0.5013 H   0  0  0  0  0  0  0  0  0  0  0  0
   17.8017   11.8628    0.3837 H   0  0  0  0  0  0  0  0  0  0  0  0
   19.8206   10.3552    4.5091 C   0  0  0  0  0  0  0  0  0  0  0  0
   20.4803   10.5018    5.2188 H   0  0  0  0  0  0  0  0  0  0  0  0
   18.4465   10.3833    5.1743 C   0  0  0  0  0  0  0  0  0  0  0  0
   18.3837    9.6654    5.8083 H   0  0  0  0  0  0  0  0  0  0  0  0
   18.3283   11.2214    5.6273 H   0  0  0  0  0  0  0  0  0  0  0  0
   17.7651   10.2824    4.5056 H   0  0  0  0  0  0  0  0  0  0  0  0
   20.0867    8.9534    3.9425 C   0  0  0  0  0  0  0  0  0  0  0  0
   19.4345    8.7525    3.2678 H   0  0  0  0  0  0  0  0  0  0  0  0
   20.9651    8.9252    3.5571 H   0  0  0  0  0  0  0  0  0  0  0  0
   20.0259    8.3061    4.6494 H   0  0  0  0  0  0  0  0  0  0  0  0
   21.7123   11.3541    2.5933 C   0  0  0  0  0  0  0  0  0  0  0  0
   21.6013   10.4932    2.1383 H   0  0  0  0  0  0  0  0  0  0  0  0
   22.7879   11.1203    3.6236 C   0  0  0  0  0  0  0  0  0  0  0  0
   22.9899   11.9461    4.0677 H   0  0  0  0  0  0  0  0  0  0  0  0
   22.4791   10.4775    4.2673 H   0  0  0  0  0  0  0  0  0  0  0  0
   23.5775   10.7865    3.1920 H   0  0  0  0  0  0  0  0  0  0  0  0
   22.1403   12.3327    1.4996 C   0  0  0  0  0  0  0  0  0  0  0  0
   22.9813   12.0531    1.1310 H   0  0  0  0  0  0  0  0  0  0  0  0
   21.4766   12.3479    0.8061 H   0  0  0  0  0  0  0  0  0  0  0  0
   22.2313   13.2113    1.8753 H   0  0  0  0  0  0  0  0  0  0  0  0
   16.1765   12.5853    2.7420 C   0  0  0  0  0  0  0  0  0  0  0  0
   16.5255   12.0387    3.4766 H   0  0  0  0  0  0  0  0  0  0  0  0
   15.4521   11.5940    1.8264 C   0  0  0  0  0  0  0  0  0  0  0  0
   14.9367   12.0764    1.1759 H   0  0  0  0  0  0  0  0  0  0  0  0
   16.0975   11.0419    1.3770 H   0  0  0  0  0  0  0  0  0  0  0  0
   14.8683   11.0411    2.3518 H   0  0  0  0  0  0  0  0  0  0  0  0
   15.1841   13.5357    3.4035 C   0  0  0  0  0  0  0  0  0  0  0  0
   14.4867   13.0278    3.8248 H   0  0  0  0  0  0  0  0  0  0  0  0
   15.6390   14.0640    4.0646 H   0  0  0  0  0  0  0  0  0  0  0  0
   14.8026   14.1139    2.7386 H   0  0  0  0  0  0  0  0  0  0  0  0
   17.0511   14.6914    0.7868 C   0  0  0  0  0  0  0  0  0  0  0  0
   16.7851   15.5044    1.2641 H   0  0  0  0  0  0  0  0  0  0  0  0
   15.8432   14.2575   -0.0504 C   0  0  0  0  0  0  0  0  0  0  0  0
   16.0497   13.4419   -0.5121 H   0  0  0  0  0  0  0  0  0  0  0  0
   15.0887   14.1169    0.5261 H   0  0  0  0  0  0  0  0  0  0  0  0
   15.6338   14.9428   -0.6901 H   0  0  0  0  0  0  0  0  0  0  0  0
   18.1990   15.0847   -0.1440 C   0  0  0  0  0  0  0  0  0  0  0  0
   17.9995   15.9274   -0.5586 H   0  0  0  0  0  0  0  0  0  0  0  0
   19.0098   15.1614    0.3636 H   0  0  0  0  0  0  0  0  0  0  0  0
   18.3063   14.4119   -0.8200 H   0  0  0  0  0  0  0  0  0  0  0  0
   20.2363   17.4164    4.8333 C   0  0  0  0  0  0  0  0  0  0  0  0
   19.8693   18.2256    5.2235 H   0  0  0  0  0  0  0  0  0  0  0  0
   20.9552   17.6736    4.2348 H   0  0  0  0  0  0  0  0  0  0  0  0
   20.8022   16.5399    5.9436 C   0  0  0  0  0  0  0  0  0  0  0  0
   21.6396   16.9208    6.2508 H   0  0  0  0  0  0  0  0  0  0  0  0
   20.1849   16.5392    6.6918 H   0  0  0  0  0  0  0  0  0  0  0  0
   17.4158   17.3217    4.6454 C   0  0  0  0  0  0  0  0  0  0  0  0
   17.5767   18.2874    4.6835 H   0  0  0  0  0  0  0  0  0  0  0  0
   16.1328   17.1195    3.8483 C   0  0  0  0  0  0  0  0  0  0  0  0
   15.4034   17.5461    4.3013 H   0  0  0  0  0  0  0  0  0  0  0  0
   16.2359   17.5028    2.9738 H   0  0  0  0  0  0  0  0  0  0  0  0
   15.9524   16.1799    3.7660 H   0  0  0  0  0  0  0  0  0  0  0  0
   17.2239   16.8486    6.0791 C   0  0  0  0  0  0  0  0  0  0  0  0
   17.1094   15.8950    6.0884 H   0  0  0  0  0  0  0  0  0  0  0  0
   17.9962   17.0838    6.5990 H   0  0  0  0  0  0  0  0  0  0  0  0
   16.4465   17.2681    6.4535 H   0  0  0  0  0  0  0  0  0  0  0  0
   19.0040   17.5067    2.2396 C   0  0  0  0  0  0  0  0  0  0  0  0
   18.3119   17.1328    1.6540 H   0  0  0  0  0  0  0  0  0  0  0  0
   20.3411   17.3217    1.5144 C   0  0  0  0  0  0  0  0  0  0  0  0
   21.0235   17.8188    1.9712 H   0  0  0  0  0  0  0  0  0  0  0  0
   20.5740   16.3912    1.5055 H   0  0  0  0  0  0  0  0  0  0  0  0
   20.2620   17.6402    0.6127 H   0  0  0  0  0  0  0  0  0  0  0  0
   18.7147   19.0044    2.3612 C   0  0  0  0  0  0  0  0  0  0  0  0
   18.7584   19.4096    1.4931 H   0  0  0  0  0  0  0  0  0  0  0  0
   17.8369   19.1313    2.7293 H   0  0  0  0  0  0  0  0  0  0  0  0
   19.3665   19.4105    2.9382 H   0  0  0  0  0  0  0  0  0  0  0  0
   21.2895   13.9777    7.0634 C   0  0  0  0  0  0  0  0  0  0  0  0
   21.8783   14.5460    7.6031 H   0  0  0  0  0  0  0  0  0  0  0  0
   19.9661   13.8634    7.8012 C   0  0  0  0  0  0  0  0  0  0  0  0
   20.1261   13.5686    8.7001 H   0  0  0  0  0  0  0  0  0  0  0  0
   19.5329   14.7193    7.8166 H   0  0  0  0  0  0  0  0  0  0  0  0
   19.4036   13.2279    7.3525 H   0  0  0  0  0  0  0  0  0  0  0  0
   21.9553   12.6124    6.9460 C   0  0  0  0  0  0  0  0  0  0  0  0
   21.4529   12.0623    6.3406 H   0  0  0  0  0  0  0  0  0  0  0  0
   22.8488   12.7196    6.6129 H   0  0  0  0  0  0  0  0  0  0  0  0
   21.9827   12.1940    7.8105 H   0  0  0  0  0  0  0  0  0  0  0  0
   22.8675   14.8758    4.8063 C   0  0  0  0  0  0  0  0  0  0  0  0
   23.1200   13.9596    4.5659 H   0  0  0  0  0  0  0  0  0  0  0  0
   23.0161   15.7124    3.5306 C   0  0  0  0  0  0  0  0  0  0  0  0
   23.8967   15.5889    3.1672 H   0  0  0  0  0  0  0  0  0  0  0  0
   22.3622   15.4326    2.8856 H   0  0  0  0  0  0  0  0  0  0  0  0
   22.8845   16.6402    3.7397 H   0  0  0  0  0  0  0  0  0  0  0  0
   23.8838   15.3431    5.8547 C   0  0  0  0  0  0  0  0  0  0  0  0
   23.6566   16.2285    6.1487 H   0  0  0  0  0  0  0  0  0  0  0  0
   23.8688   14.7430    6.6036 H   0  0  0  0  0  0  0  0  0  0  0  0
   24.7622   15.3498    5.4679 H   0  0  0  0  0  0  0  0  0  0  0  0
  1  2  1  0  0  0  0
  3  1  1  0  0  0  0
  4  1  1  0  0  0  0
  5  1  1  0  0  0  0
  6  1  1  0  0  0  0
  7  8  1  0  0  0  0
  8 12  1  0  0  0  0
  9  7  1  0  0  0  0
 10 12  1  0  0  0  0
 11  7  1  0  0  0  0
 12 11  1  0  0  0  0
 13  1  1  0  0  0  0
 14 12  1  0  0  0  0
 15  3  1  0  0  0  0
 16 15  1  0  0  0  0
 17 15  1  0  0  0  0
 18  4  1  0  0  0  0
 19 18  1  0  0  0  0
 20 18  1  0  0  0  0
 21  3  1  0  0  0  0
 22 21  1  0  0  0  0
 23 21  1  0  0  0  0
 24 23  1  0  0  0  0
 25 23  1  0  0  0  0
 26 23  1  0  0  0  0
 27 21  1  0  0  0  0
 28 27  1  0  0  0  0
 29 27  1  0  0  0  0
 30 27  1  0  0  0  0
 31  3  1  0  0  0  0
 32 31  1  0  0  0  0
 33 31  1  0  0  0  0
 34 33  1  0  0  0  0
 35 33  1  0  0  0  0
 36 33  1  0  0  0  0
 37 31  1  0  0  0  0
 38 37  1  0  0  0  0
 39 37  1  0  0  0  0
 40 37  1  0  0  0  0
 41  4  1  0  0  0  0
 42 41  1  0  0  0  0
 43 41  1  0  0  0  0
 44 43  1  0  0  0  0
 45 43  1  0  0  0  0
 46 43  1  0  0  0  0
 47 41  1  0  0  0  0
 48 47  1  0  0  0  0
 49 47  1  0  0  0  0
 50 47  1  0  0  0  0
 51  4  1  0  0  0  0
 52 51  1  0  0  0  0
 53 51  1  0  0  0  0
 54 53  1  0  0  0  0
 55 53  1  0  0  0  0
 56 53  1  0  0  0  0
 57 51  1  0  0  0  0
 58 57  1  0  0  0  0
 59 57  1  0  0  0  0
 60 57  1  0  0  0  0
 61  5  1  0  0  0  0
 62 61  1  0  0  0  0
 63 61  1  0  0  0  0
 64  6  1  0  0  0  0
 65 64  1  0  0  0  0
 66 64  1  0  0  0  0
 67  5  1  0  0  0  0
 68 67  1  0  0  0  0
 69 67  1  0  0  0  0
 70 69  1  0  0  0  0
 71 69  1  0  0  0  0
 72 69  1  0  0  0  0
 73 67  1  0  0  0  0
 74 73  1  0  0  0  0
 75 73  1  0  0  0  0
 76 73  1  0  0  0  0
 77  5  1  0  0  0  0
 78 77  1  0  0  0  0
 79 77  1  0  0  0  0
 80 79  1  0  0  0  0
 81 79  1  0  0  0  0
 82 79  1  0  0  0  0
 83 77  1  0  0  0  0
 84 83  1  0  0  0  0
 85 83  1  0  0  0  0
 86 83  1  0  0  0  0
 87  6  1  0  0  0  0
 88 87  1  0  0  0  0
 89 87  1  0  0  0  0
 90 89  1  0  0  0  0
 91 89  1  0  0  0  0
 92 89  1  0  0  0  0
 93 87  1  0  0  0  0
 94 93  1  0  0  0  0
 95 93  1  0  0  0  0
 96 93  1  0  0  0  0
 97  6  1  0  0  0  0
 98 97  1  0  0  0  0
 99 97  1  0  0  0  0
100 99  1  0  0  0  0
101 99  1  0  0  0  0
102 99  1  0  0  0  0
103 97  1  0  0  0  0
104103  1  0  0  0  0
105103  1  0  0  0  0
106103  1  0  0  0  0
107108  1  0  0  0  0
109107  1  0  0  0  0
110107  1  0  0  0  0
111107  1  0  0  0  0
112107  1  0  0  0  0
113 10  1  0  0  0  0
114 12  1  0  0  0  0
115113  1  0  0  0  0
116  7  1  0  0  0  0
117113  1  0  0  0  0
118  8  1  0  0  0  0
119107  1  0  0  0  0
120118  1  0  0  0  0
121109  1  0  0  0  0
122121  1  0  0  0  0
123121  1  0  0  0  0
124110  1  0  0  0  0
125124  1  0  0  0  0
126124  1  0  0  0  0
127109  1  0  0  0  0
128127  1  0  0  0  0
129127  1  0  0  0  0
130129  1  0  0  0  0
131129  1  0  0  0  0
132129  1  0  0  0  0
133127  1  0  0  0  0
134133  1  0  0  0  0
135133  1  0  0  0  0
136133  1  0  0  0  0
137109  1  0  0  0  0
138137  1  0  0  0  0
139137  1  0  0  0  0
140139  1  0  0  0  0
141139  1  0  0  0  0
142139  1  0  0  0  0
143137  1  0  0  0  0
144143  1  0  0  0  0
145143  1  0  0  0  0
146143  1  0  0  0  0
147110  1  0  0  0  0
148147  1  0  0  0  0
149147  1  0  0  0  0
150149  1  0  0  0  0
151149  1  0  0  0  0
152149  1  0  0  0  0
153147  1  0  0  0  0
154153  1  0  0  0  0
155153  1  0  0  0  0
156153  1  0  0  0  0
157110  1  0  0  0  0
158157  1  0  0  0  0
159157  1  0  0  0  0
160159  1  0  0  0  0
161159  1  0  0  0  0
162159  1  0  0  0  0
163157  1  0  0  0  0
164163  1  0  0  0  0
165163  1  0  0  0  0
166163  1  0  0  0  0
167111  1  0  0  0  0
168167  1  0  0  0  0
169167  1  0  0  0  0
170112  1  0  0  0  0
171170  1  0  0  0  0
172170  1  0  0  0  0
173111  1  0  0  0  0
174173  1  0  0  0  0
175173  1  0  0  0  0
176175  1  0  0  0  0
177175  1  0  0  0  0
178175  1  0  0  0  0
179173  1  0  0  0  0
180179  1  0  0  0  0
181179  1  0  0  0  0
182179  1  0  0  0  0
183111  1  0  0  0  0
184183  1  0  0  0  0
185183  1  0  0  0  0
186185  1  0  0  0  0
187185  1  0  0  0  0
188185  1  0  0  0  0
189183  1  0  0  0  0
190189  1  0  0  0  0
191189  1  0  0  0  0
192189  1  0  0  0  0
193112  1  0  0  0  0
194193  1  0  0  0  0
195193  1  0  0  0  0
196195  1  0  0  0  0
197195  1  0  0  0  0
198195  1  0  0  0  0
199193  1  0  0  0  0
200199  1  0  0  0  0
201199  1  0  0  0  0
202199  1  0  0  0  0
203112  1  0  0  0  0
204203  1  0  0  0  0
205203  1  0  0  0  0
206205  1  0  0  0  0
207205  1  0  0  0  0
208205  1  0  0  0  0
209203  1  0  0  0  0
210209  1  0  0  0  0
211209  1  0  0  0  0
212209  1  0  0  0  0
 13 14  2  0  0  0  0
 15 18  1  0  0  0  0
 61 64  1  0  0  0  0
113114  1  0  0  0  0
114118  1  0  0  0  0
116118  1  0  0  0  0
117118  1  0  0  0  0
119120  2  0  0  0  0
121124  1  0  0  0  0
167170  1  0  0  0  0
M  END
$$$$
YUWRUE

From CSD data. Using bond type 'Any'. No disordered atoms. Largest molecule.
109110  0  0  0  0  0  0  0  0999 V2000
    5.0847    5.6198    3.6816 Os  0  0  0  0  0  0  0  0  0  0  0  0
    3.8988    5.4897    4.9382 H   0  0  0  0  0  0  0  0  0  0  0  0
    6.1037    5.6910    2.4601 H   0  0  0  0  0  0  0  0  0  0  0  0
    6.3408    4.6524    3.6541 H   0  0  0  0  0  0  0  0  0  0  0  0
    3.6763    7.3986    2.6271 Cl  0  5  0  0  0  0  0  0  0  0  0  0
    3.9607    3.9924    2.4076 P   0  0  0  0  0  0  0  0  0  0  0  0
    6.4808    7.2825    4.5872 P   0  0  0  0  0  0  0  0  0  0  0  0
    5.0409    3.8873    6.3617 O   0  0  0  0  0  0  0  0  0  0  0  0
    5.5986    5.0848    8.7521 O   0  0  0  0  0  0  0  0  0  0  0  0
    6.2994    7.0656    9.7914 O   0  0  0  0  0  0  0  0  0  0  0  0
    7.0257    5.1060   10.7382 O   0  0  0  0  0  0  0  0  0  0  0  0
    4.8779    4.6980    5.3293 B   0  3  0  0  0  0  0  0  0  0  0  0
    6.3048    5.7048    9.7503 B   0  0  0  0  0  0  0  0  0  0  0  0
    4.2043    3.6287    7.5321 C   0  0  0  0  0  0  0  0  0  0  0  0
    3.0930    4.6524    7.6196 C   0  0  0  0  0  0  0  0  0  0  0  0
    3.4799    5.5469    7.7225 H   0  0  0  0  0  0  0  0  0  0  0  0
    2.5238    4.4511    8.3916 H   0  0  0  0  0  0  0  0  0  0  0  0
    2.5552    4.6217    6.8013 H   0  0  0  0  0  0  0  0  0  0  0  0
    3.6218    2.2404    7.3288 C   0  0  0  0  0  0  0  0  0  0  0  0
    3.1619    2.2022    6.4642 H   0  0  0  0  0  0  0  0  0  0  0  0
    2.9850    2.0454    8.0467 H   0  0  0  0  0  0  0  0  0  0  0  0
    4.3447    1.5780    7.3417 H   0  0  0  0  0  0  0  0  0  0  0  0
    5.1692    3.7039    8.7493 C   0  0  0  0  0  0  0  0  0  0  0  0
    6.4027    2.8158    8.5691 C   0  0  0  0  0  0  0  0  0  0  0  0
    6.8178    3.0045    7.6993 H   0  0  0  0  0  0  0  0  0  0  0  0
    6.1350    1.8737    8.6051 H   0  0  0  0  0  0  0  0  0  0  0  0
    7.0465    3.0002    9.2845 H   0  0  0  0  0  0  0  0  0  0  0  0
    4.4587    3.3849   10.0591 C   0  0  0  0  0  0  0  0  0  0  0  0
    5.0818    3.4994   10.8079 H   0  0  0  0  0  0  0  0  0  0  0  0
    4.1374    2.4597   10.0411 H   0  0  0  0  0  0  0  0  0  0  0  0
    3.6975    3.9922   10.1749 H   0  0  0  0  0  0  0  0  0  0  0  0
    7.2201    7.4503   10.8516 C   0  0  0  0  0  0  0  0  0  0  0  0
    6.6555    8.6383   11.5799 C   0  0  0  0  0  0  0  0  0  0  0  0
    6.6949    9.4267   10.9983 H   0  0  0  0  0  0  0  0  0  0  0  0
    7.1808    8.8047   12.3905 H   0  0  0  0  0  0  0  0  0  0  0  0
    5.7242    8.4592   11.8244 H   0  0  0  0  0  0  0  0  0  0  0  0
    8.5378    7.7894   10.1877 C   0  0  0  0  0  0  0  0  0  0  0  0
    8.8659    7.0073    9.6962 H   0  0  0  0  0  0  0  0  0  0  0  0
    9.1906    8.0437   10.8722 H   0  0  0  0  0  0  0  0  0  0  0  0
    8.4071    8.5355    9.5676 H   0  0  0  0  0  0  0  0  0  0  0  0
    7.3185    6.1478   11.7240 C   0  0  0  0  0  0  0  0  0  0  0  0
    6.2310    6.0694   12.7765 C   0  0  0  0  0  0  0  0  0  0  0  0
    5.3570    6.2145   12.3570 H   0  0  0  0  0  0  0  0  0  0  0  0
    6.3848    6.7582   13.4558 H   0  0  0  0  0  0  0  0  0  0  0  0
    6.2487    5.1855   13.1985 H   0  0  0  0  0  0  0  0  0  0  0  0
    8.6616    5.8987   12.3390 C   0  0  0  0  0  0  0  0  0  0  0  0
    8.6415    5.0552   12.8382 H   0  0  0  0  0  0  0  0  0  0  0  0
    8.8845    6.6332   12.9463 H   0  0  0  0  0  0  0  0  0  0  0  0
    9.3397    5.8426   11.6314 H   0  0  0  0  0  0  0  0  0  0  0  0
    3.6794    4.4765    0.6279 C   0  0  0  0  0  0  0  0  0  0  0  0
    2.9353    5.1442    0.6510 H   0  0  0  0  0  0  0  0  0  0  0  0
    3.1897    3.3584   -0.2908 C   0  0  0  0  0  0  0  0  0  0  0  0
    2.9696    3.7304   -1.1709 H   0  0  0  0  0  0  0  0  0  0  0  0
    2.3907    2.9441    0.0978 H   0  0  0  0  0  0  0  0  0  0  0  0
    3.8942    2.6844   -0.3886 H   0  0  0  0  0  0  0  0  0  0  0  0
    4.8504    5.2056   -0.0026 C   0  0  0  0  0  0  0  0  0  0  0  0
    5.6480    4.6365    0.0360 H   0  0  0  0  0  0  0  0  0  0  0  0
    5.0195    6.0365    0.4889 H   0  0  0  0  0  0  0  0  0  0  0  0
    4.6412    5.4134   -0.9367 H   0  0  0  0  0  0  0  0  0  0  0  0
    2.2611    3.5725    3.0597 C   0  0  0  0  0  0  0  0  0  0  0  0
    2.3811    3.4909    4.0478 H   0  0  0  0  0  0  0  0  0  0  0  0
    1.5832    2.2679    2.6402 C   0  0  0  0  0  0  0  0  0  0  0  0
    0.7890    2.1196    3.1935 H   0  0  0  0  0  0  0  0  0  0  0  0
    2.2080    1.5218    2.7586 H   0  0  0  0  0  0  0  0  0  0  0  0
    1.3195    2.3252    1.6984 H   0  0  0  0  0  0  0  0  0  0  0  0
    1.2855    4.7224    2.8821 C   0  0  0  0  0  0  0  0  0  0  0  0
    1.0176    4.7807    1.9403 H   0  0  0  0  0  0  0  0  0  0  0  0
    1.7151    5.5607    3.1497 H   0  0  0  0  0  0  0  0  0  0  0  0
    0.4936    4.5677    3.4379 H   0  0  0  0  0  0  0  0  0  0  0  0
    4.7713    2.3305    2.3160 C   0  0  0  0  0  0  0  0  0  0  0  0
    4.1909    1.7433    1.7524 H   0  0  0  0  0  0  0  0  0  0  0  0
    4.8737    1.6840    3.6927 C   0  0  0  0  0  0  0  0  0  0  0  0
    5.1580    0.7514    3.5949 H   0  0  0  0  0  0  0  0  0  0  0  0
    3.9999    1.7137    4.1327 H   0  0  0  0  0  0  0  0  0  0  0  0
    5.5302    2.1704    4.2331 H   0  0  0  0  0  0  0  0  0  0  0  0
    6.1401    2.3665    1.6701 C   0  0  0  0  0  0  0  0  0  0  0  0
    6.6964    3.0363    2.1230 H   0  0  0  0  0  0  0  0  0  0  0  0
    6.0496    2.6018    0.7231 H   0  0  0  0  0  0  0  0  0  0  0  0
    6.5625    1.4858    1.7499 H   0  0  0  0  0  0  0  0  0  0  0  0
    5.8454    7.9727    6.1837 C   0  0  0  0  0  0  0  0  0  0  0  0
    5.7073    7.1779    6.7755 H   0  0  0  0  0  0  0  0  0  0  0  0
    4.4374    8.5991    6.0113 C   0  0  0  0  0  0  0  0  0  0  0  0
    4.0245    8.7178    6.8913 H   0  0  0  0  0  0  0  0  0  0  0  0
    3.8800    8.0066    5.4657 H   0  0  0  0  0  0  0  0  0  0  0  0
    4.5199    9.4702    5.5712 H   0  0  0  0  0  0  0  0  0  0  0  0
    6.7192    8.9445    7.0097 C   0  0  0  0  0  0  0  0  0  0  0  0
    6.6606    9.8443    6.6237 H   0  0  0  0  0  0  0  0  0  0  0  0
    7.6513    8.6425    6.9917 H   0  0  0  0  0  0  0  0  0  0  0  0
    6.4006    8.9647    7.9361 H   0  0  0  0  0  0  0  0  0  0  0  0
    8.1916    6.7296    5.0488 C   0  0  0  0  0  0  0  0  0  0  0  0
    8.6965    7.5340    5.3602 H   0  0  0  0  0  0  0  0  0  0  0  0
    8.9386    6.1499    3.8574 C   0  0  0  0  0  0  0  0  0  0  0  0
    9.7990    5.7885    4.1559 H   0  0  0  0  0  0  0  0  0  0  0  0
    9.0940    6.8547    3.1935 H   0  0  0  0  0  0  0  0  0  0  0  0
    8.4061    5.4335    3.4534 H   0  0  0  0  0  0  0  0  0  0  0  0
    8.1501    5.7186    6.2145 C   0  0  0  0  0  0  0  0  0  0  0  0
    7.7319    4.8856    5.9109 H   0  0  0  0  0  0  0  0  0  0  0  0
    7.6291    6.0948    6.9557 H   0  0  0  0  0  0  0  0  0  0  0  0
    9.0626    5.5342    6.5182 H   0  0  0  0  0  0  0  0  0  0  0  0
    6.7461    8.7538    3.4765 C   0  0  0  0  0  0  0  0  0  0  0  0
    5.9014    9.2869    3.5332 H   0  0  0  0  0  0  0  0  0  0  0  0
    6.9224    8.4327    1.9943 C   0  0  0  0  0  0  0  0  0  0  0  0
    6.9075    9.2635    1.4745 H   0  0  0  0  0  0  0  0  0  0  0  0
    6.1951    7.8477    1.6958 H   0  0  0  0  0  0  0  0  0  0  0  0
    7.7817    7.9791    1.8579 H   0  0  0  0  0  0  0  0  0  0  0  0
    7.8529    9.7012    3.9011 C   0  0  0  0  0  0  0  0  0  0  0  0
    8.7221    9.2646    3.7776 H   0  0  0  0  0  0  0  0  0  0  0  0
    7.7366    9.9376    4.8455 H   0  0  0  0  0  0  0  0  0  0  0  0
    7.8170   10.5141    3.3530 H   0  0  0  0  0  0  0  0  0  0  0  0
  1  2  1  0  0  0  0
  2 12  1  0  0  0  0
  3  1  1  0  0  0  0
  4  1  1  0  0  0  0
  5  1  1  0  0  0  0
  6  1  1  0  0  0  0
  7  1  1  0  0  0  0
  8 12  1  0  0  0  0
  9 13  1  0  0  0  0
 10 13  1  0  0  0  0
 11 13  1  0  0  0  0
 12  1  1  0  0  0  0
 14  8  1  0  0  0  0
 15 14  1  0  0  0  0
 16 15  1  0  0  0  0
 17 15  1  0  0  0  0
 18 15  1  0  0  0  0
 19 14  1  0  0  0  0
 20 19  1  0  0  0  0
 21 19  1  0  0  0  0
 22 19  1  0  0  0  0
 23  9  1  0  0  0  0
 24 23  1  0  0  0  0
 25 24  1  0  0  0  0
 26 24  1  0  0  0  0
 27 24  1  0  0  0  0
 28 23  1  0  0  0  0
 29 28  1  0  0  0  0
 30 28  1  0  0  0  0
 31 28  1  0  0  0  0
 32 10  1  0  0  0  0
 33 32  1  0  0  0  0
 34 33  1  0  0  0  0
 35 33  1  0  0  0  0
 36 33  1  0  0  0  0
 37 32  1  0  0  0  0
 38 37  1  0  0  0  0
 39 37  1  0  0  0  0
 40 37  1  0  0  0  0
 41 11  1  0  0  0  0
 42 41  1  0  0  0  0
 43 42  1  0  0  0  0
 44 42  1  0  0  0  0
 45 42  1  0  0  0  0
 46 41  1  0  0  0  0
 47 46  1  0  0  0  0
 48 46  1  0  0  0  0
 49 46  1  0  0  0  0
 50  6  1  0  0  0  0
 51 50  1  0  0  0  0
 52 50  1  0  0  0  0
 53 52  1  0  0  0  0
 54 52  1  0  0  0  0
 55 52  1  0  0  0  0
 56 50  1  0  0  0  0
 57 56  1  0  0  0  0
 58 56  1  0  0  0  0
 59 56  1  0  0  0  0
 60  6  1  0  0  0  0
 61 60  1  0  0  0  0
 62 60  1  0  0  0  0
 63 62  1  0  0  0  0
 64 62  1  0  0  0  0
 65 62  1  0  0  0  0
 66 60  1  0  0  0  0
 67 66  1  0  0  0  0
 68 66  1  0  0  0  0
 69 66  1  0  0  0  0
 70  6  1  0  0  0  0
 71 70  1  0  0  0  0
 72 70  1  0  0  0  0
 73 72  1  0  0  0  0
 74 72  1  0  0  0  0
 75 72  1  0  0  0  0
 76 70  1  0  0  0  0
 77 76  1  0  0  0  0
 78 76  1  0  0  0  0
 79 76  1  0  0  0  0
 80  7  1  0  0  0  0
 81 80  1  0  0  0  0
 82 80  1  0  0  0  0
 83 82  1  0  0  0  0
 84 82  1  0  0  0  0
 85 82  1  0  0  0  0
 86 80  1  0  0  0  0
 87 86  1  0  0  0  0
 88 86  1  0  0  0  0
 89 86  1  0  0  0  0
 90  7  1  0  0  0  0
 91 90  1  0  0  0  0
 92 90  1  0  0  0  0
 93 92  1  0  0  0  0
 94 92  1  0  0  0  0
 95 92  1  0  0  0  0
 96 90  1  0  0  0  0
 97 96  1  0  0  0  0
 98 96  1  0  0  0  0
 99 96  1  0  0  0  0
100  7  1  0  0  0  0
101100  1  0  0  0  0
102100  1  0  0  0  0
103102  1  0  0  0  0
104102  1  0  0  0  0
105102  1  0  0  0  0
106100  1  0  0  0  0
107106  1  0  0  0  0
108106  1  0  0  0  0
109106  1  0  0  0  0
 14 23  1  0  0  0  0
 32 41  1  0  0  0  0
M  CHG  2   5  -1  12   1
M  END
$$$$
YUZROA

From CSD data. Using bond type 'Any'. No disordered atoms. Largest molecule.
116133  0  0  0  0  0  0  0  0999 V2000
    2.9798   -8.3512   17.8186 Os  0  0  0  0  0  0  0  0  0  0  0  0
    3.5370   -6.2951   16.0147 Ir  0  0  0  0  0  0  0  0  0  0  0  0
    2.1863  -10.5824   17.8186 P   0  0  0  0  0  0  0  0  0  0  0  0
    2.9664   -7.9279   20.1961 P   0  0  0  0  0  0  0  0  0  0  0  0
    3.4148   -5.4719   13.8414 P   0  0  0  0  0  0  0  0  0  0  0  0
    5.9728   -8.8725   18.1080 O   0  0  0  0  0  0  0  0  0  0  0  0
    4.8372   -3.8433   17.1958 O   0  0  0  0  0  0  0  0  0  0  0  0
    2.0920   -7.9775   15.8390 B   0  0  0  0  0  0  0  0  0  0  0  0
    0.9813   -7.5928   17.1777 B   0  0  0  0  0  0  0  0  0  0  0  0
    1.3072   -6.3117   16.1310 B   0  0  0  0  0  0  0  0  0  0  0  0
    3.7833   -8.3954   15.8054 B   0  0  0  0  0  0  0  0  0  0  0  0
    2.1498   -6.2703   17.7178 B   0  0  0  0  0  0  0  0  0  0  0  0
    4.8490   -8.7401   18.0356 C   0  0  0  0  0  0  0  0  0  0  0  0
    4.3525   -4.7562   16.6944 C   0  0  0  0  0  0  0  0  0  0  0  0
    1.3057  -10.9148   16.2422 C   0  0  0  0  0  0  0  0  0  0  0  0
   -0.0684  -10.7452   16.1155 C   0  0  0  0  0  0  0  0  0  0  0  0
   -0.7275  -10.8955   14.9319 C   0  0  0  0  0  0  0  0  0  0  0  0
   -0.0559  -11.2002   13.7742 C   0  0  0  0  0  0  0  0  0  0  0  0
    1.2987  -11.3657   13.9111 C   0  0  0  0  0  0  0  0  0  0  0  0
    2.0043  -11.2444   15.1309 C   0  0  0  0  0  0  0  0  0  0  0  0
    3.3700  -11.9504   17.8832 C   0  0  0  0  0  0  0  0  0  0  0  0
    4.4958  -11.9008   18.6998 C   0  0  0  0  0  0  0  0  0  0  0  0
    5.3503  -12.9474   18.7902 C   0  0  0  0  0  0  0  0  0  0  0  0
    5.0633  -14.1444   18.1390 C   0  0  0  0  0  0  0  0  0  0  0  0
    3.9595  -14.2244   17.4154 C   0  0  0  0  0  0  0  0  0  0  0  0
    3.1256  -13.1667   17.2759 C   0  0  0  0  0  0  0  0  0  0  0  0
    0.9461  -11.0954   19.0306 C   0  0  0  0  0  0  0  0  0  0  0  0
   -0.0387  -10.2115   19.4570 C   0  0  0  0  0  0  0  0  0  0  0  0
   -1.0208  -10.5383   20.3227 C   0  0  0  0  0  0  0  0  0  0  0  0
   -1.0593  -11.8677   20.8603 C   0  0  0  0  0  0  0  0  0  0  0  0
   -0.0607  -12.7254   20.4752 C   0  0  0  0  0  0  0  0  0  0  0  0
    0.8934  -12.3489   19.5759 C   0  0  0  0  0  0  0  0  0  0  0  0
    3.8331   -9.2255   21.1652 C   0  0  0  0  0  0  0  0  0  0  0  0
    5.1731   -9.0642   21.4986 C   0  0  0  0  0  0  0  0  0  0  0  0
    5.8550  -10.1577   22.0826 C   0  0  0  0  0  0  0  0  0  0  0  0
    5.2751  -11.3009   22.4005 C   0  0  0  0  0  0  0  0  0  0  0  0
    3.9362  -11.4167   22.1446 C   0  0  0  0  0  0  0  0  0  0  0  0
    3.2343  -10.4432   21.5089 C   0  0  0  0  0  0  0  0  0  0  0  0
    1.3646   -7.7169   21.1187 C   0  0  0  0  0  0  0  0  0  0  0  0
    0.3193   -6.9888   20.5631 C   0  0  0  0  0  0  0  0  0  0  0  0
   -0.8072   -6.7433   21.2298 C   0  0  0  0  0  0  0  0  0  0  0  0
   -0.9687   -7.2604   22.5271 C   0  0  0  0  0  0  0  0  0  0  0  0
    0.0031   -7.8962   23.0440 C   0  0  0  0  0  0  0  0  0  0  0  0
    1.1703   -8.1609   22.4005 C   0  0  0  0  0  0  0  0  0  0  0  0
    3.8713   -6.4206   20.7905 C   0  0  0  0  0  0  0  0  0  0  0  0
    4.7584   -5.7601   19.9480 C   0  0  0  0  0  0  0  0  0  0  0  0
    5.4826   -4.7245   20.3977 C   0  0  0  0  0  0  0  0  0  0  0  0
    5.3935   -4.2625   21.6795 C   0  0  0  0  0  0  0  0  0  0  0  0
    4.5602   -4.9465   22.5064 C   0  0  0  0  0  0  0  0  0  0  0  0
    3.7741   -5.9904   22.0671 C   0  0  0  0  0  0  0  0  0  0  0  0
    2.7338   -3.7895   13.6527 C   0  0  0  0  0  0  0  0  0  0  0  0
    2.8319   -3.2241   12.3864 C   0  0  0  0  0  0  0  0  0  0  0  0
    2.2430   -1.9968   12.2133 C   0  0  0  0  0  0  0  0  0  0  0  0
    1.6100   -1.3363   13.2857 C   0  0  0  0  0  0  0  0  0  0  0  0
    1.5201   -1.9127   14.5546 C   0  0  0  0  0  0  0  0  0  0  0  0
    2.1549   -3.1469   14.7045 C   0  0  0  0  0  0  0  0  0  0  0  0
    4.9974   -5.3450   12.9265 C   0  0  0  0  0  0  0  0  0  0  0  0
    5.1416   -5.7739   11.6111 C   0  0  0  0  0  0  0  0  0  0  0  0
    6.3531   -5.6429   11.0090 C   0  0  0  0  0  0  0  0  0  0  0  0
    7.4006   -5.0968   11.6034 C   0  0  0  0  0  0  0  0  0  0  0  0
    7.3124   -4.6845   12.8723 C   0  0  0  0  0  0  0  0  0  0  0  0
    6.1035   -4.8955   13.5519 C   0  0  0  0  0  0  0  0  0  0  0  0
    2.2852   -6.5020   12.7818 C   0  0  0  0  0  0  0  0  0  0  0  0
    2.7861   -7.7500   12.4329 C   0  0  0  0  0  0  0  0  0  0  0  0
    1.9498   -8.6381   11.6447 C   0  0  0  0  0  0  0  0  0  0  0  0
    0.6995   -8.1844   11.2468 C   0  0  0  0  0  0  0  0  0  0  0  0
    0.3150   -6.9322   11.6266 C   0  0  0  0  0  0  0  0  0  0  0  0
    1.0928   -6.0855   12.3580 C   0  0  0  0  0  0  0  0  0  0  0  0
    1.7459   -8.4767   15.0715 H   0  0  0  0  0  0  0  0  0  0  0  0
   -0.1790   -7.9679   17.3663 H   0  0  0  0  0  0  0  0  0  0  0  0
    4.5309   -9.2200   15.3532 H   0  0  0  0  0  0  0  0  0  0  0  0
   -0.5591  -10.5218   16.8727 H   0  0  0  0  0  0  0  0  0  0  0  0
   -1.6515  -10.7879   14.9087 H   0  0  0  0  0  0  0  0  0  0  0  0
   -0.4882  -11.2885   12.9575 H   0  0  0  0  0  0  0  0  0  0  0  0
    1.7881  -11.5726   13.1488 H   0  0  0  0  0  0  0  0  0  0  0  0
    2.9222  -11.3892   15.1671 H   0  0  0  0  0  0  0  0  0  0  0  0
    4.6640  -11.1327   19.1934 H   0  0  0  0  0  0  0  0  0  0  0  0
    6.1319  -12.8661   19.2890 H   0  0  0  0  0  0  0  0  0  0  0  0
    5.6359  -14.8725   18.2140 H   0  0  0  0  0  0  0  0  0  0  0  0
    3.7523  -15.0256   16.9890 H   0  0  0  0  0  0  0  0  0  0  0  0
    2.3608  -13.2632   16.7564 H   0  0  0  0  0  0  0  0  0  0  0  0
   -0.0188   -9.3441   19.1236 H   0  0  0  0  0  0  0  0  0  0  0  0
   -1.6631   -9.9109   20.5682 H   0  0  0  0  0  0  0  0  0  0  0  0
   -1.7318  -12.1366   21.4417 H   0  0  0  0  0  0  0  0  0  0  0  0
   -0.0333  -13.5818   20.8344 H   0  0  0  0  0  0  0  0  0  0  0  0
    1.5348  -12.9723   19.3200 H   0  0  0  0  0  0  0  0  0  0  0  0
    5.6104   -8.2588   21.3409 H   0  0  0  0  0  0  0  0  0  0  0  0
    6.7646  -10.0653   22.2532 H   0  0  0  0  0  0  0  0  0  0  0  0
    5.7568  -11.9987   22.7830 H   0  0  0  0  0  0  0  0  0  0  0  0
    3.4905  -12.1876   22.4134 H   0  0  0  0  0  0  0  0  0  0  0  0
    2.3395  -10.5880   21.2996 H   0  0  0  0  0  0  0  0  0  0  0  0
    0.4096   -6.6606   19.6973 H   0  0  0  0  0  0  0  0  0  0  0  0
   -1.4816   -6.2358   20.8396 H   0  0  0  0  0  0  0  0  0  0  0  0
   -1.7650   -7.1391   22.9949 H   0  0  0  0  0  0  0  0  0  0  0  0
   -0.0911   -8.2009   23.9174 H   0  0  0  0  0  0  0  0  0  0  0  0
    1.8401   -8.6436   22.8295 H   0  0  0  0  0  0  0  0  0  0  0  0
    4.8498   -6.0386   19.0668 H   0  0  0  0  0  0  0  0  0  0  0  0
    6.0706   -4.3052   19.8136 H   0  0  0  0  0  0  0  0  0  0  0  0
    5.8735   -3.5206   21.9715 H   0  0  0  0  0  0  0  0  0  0  0  0
    4.5185   -4.7024   23.4032 H   0  0  0  0  0  0  0  0  0  0  0  0
    3.1762   -6.3986   22.6486 H   0  0  0  0  0  0  0  0  0  0  0  0
    3.2788   -3.6557   11.6938 H   0  0  0  0  0  0  0  0  0  0  0  0
    2.2633   -1.5941   11.3760 H   0  0  0  0  0  0  0  0  0  0  0  0
    1.2423   -0.4923   13.1462 H   0  0  0  0  0  0  0  0  0  0  0  0
    1.0659   -1.5017   15.2550 H   0  0  0  0  0  0  0  0  0  0  0  0
    2.1817   -3.5413   15.5470 H   0  0  0  0  0  0  0  0  0  0  0  0
    4.4213   -6.1503   11.1537 H   0  0  0  0  0  0  0  0  0  0  0  0
    6.4488   -5.9504   10.1381 H   0  0  0  0  0  0  0  0  0  0  0  0
    8.2000   -4.9989   11.1382 H   0  0  0  0  0  0  0  0  0  0  0  0
    8.0320   -4.2721   13.2935 H   0  0  0  0  0  0  0  0  0  0  0  0
    6.0640   -4.7176   14.4642 H   0  0  0  0  0  0  0  0  0  0  0  0
    3.6376   -8.0120   12.6991 H   0  0  0  0  0  0  0  0  0  0  0  0
    2.2453   -9.4889   11.4121 H   0  0  0  0  0  0  0  0  0  0  0  0
    0.1395   -8.7208   10.7325 H   0  0  0  0  0  0  0  0  0  0  0  0
   -0.5305   -6.6385   11.3708 H   0  0  0  0  0  0  0  0  0  0  0  0
    0.7962   -5.2264   12.5596 H   0  0  0  0  0  0  0  0  0  0  0  0
  1  2  1  0  0  0  0
  2  5  1  0  0  0  0
  3  1  1  0  0  0  0
  4  1  1  0  0  0  0
  5 51  1  0  0  0  0
  6 13  3  0  0  0  0
  7 14  3  0  0  0  0
  8  1  1  0  0  0  0
  9  1  1  0  0  0  0
 10  2  1  0  0  0  0
 11  1  1  0  0  0  0
 12  1  1  0  0  0  0
 13  1  1  0  0  0  0
 14  2  1  0  0  0  0
 15  3  1  0  0  0  0
 16 15  4  0  0  0  0
 17 16  4  0  0  0  0
 18 17  4  0  0  0  0
 19 18  4  0  0  0  0
 20 15  4  0  0  0  0
 21  3  1  0  0  0  0
 22 21  4  0  0  0  0
 23 22  4  0  0  0  0
 24 23  4  0  0  0  0
 25 24  4  0  0  0  0
 26 21  4  0  0  0  0
 27  3  1  0  0  0  0
 28 27  4  0  0  0  0
 29 28  4  0  0  0  0
 30 29  4  0  0  0  0
 31 30  4  0  0  0  0
 32 27  4  0  0  0  0
 33  4  1  0  0  0  0
 34 33  4  0  0  0  0
 35 34  4  0  0  0  0
 36 35  4  0  0  0  0
 37 36  4  0  0  0  0
 38 33  4  0  0  0  0
 39  4  1  0  0  0  0
 40 39  4  0  0  0  0
 41 40  4  0  0  0  0
 42 41  4  0  0  0  0
 43 42  4  0  0  0  0
 44 39  4  0  0  0  0
 45  4  1  0  0  0  0
 46 45  4  0  0  0  0
 47 46  4  0  0  0  0
 48 47  4  0  0  0  0
 49 48  4  0  0  0  0
 50 45  4  0  0  0  0
 51 52  4  0  0  0  0
 52 53  4  0  0  0  0
 53 54  4  0  0  0  0
 54 55  4  0  0  0  0
 55 56  4  0  0  0  0
 56 51  4  0  0  0  0
 57  5  1  0  0  0  0
 58 57  4  0  0  0  0
 59 58  4  0  0  0  0
 60 59  4  0  0  0  0
 61 60  4  0  0  0  0
 62 57  4  0  0  0  0
 63  5  1  0  0  0  0
 64 63  4  0  0  0  0
 65 64  4  0  0  0  0
 66 65  4  0  0  0  0
 67 66  4  0  0  0  0
 68 63  4  0  0  0  0
 69  8  1  0  0  0  0
 70  9  1  0  0  0  0
 71 11  1  0  0  0  0
 72 16  1  0  0  0  0
 73 17  1  0  0  0  0
 74 18  1  0  0  0  0
 75 19  1  0  0  0  0
 76 20  1  0  0  0  0
 77 22  1  0  0  0  0
 78 23  1  0  0  0  0
 79 24  1  0  0  0  0
 80 25  1  0  0  0  0
 81 26  1  0  0  0  0
 82 28  1  0  0  0  0
 83 29  1  0  0  0  0
 84 30  1  0  0  0  0
 85 31  1  0  0  0  0
 86 32  1  0  0  0  0
 87 34  1  0  0  0  0
 88 35  1  0  0  0  0
 89 36  1  0  0  0  0
 90 37  1  0  0  0  0
 91 38  1  0  0  0  0
 92 40  1  0  0  0  0
 93 41  1  0  0  0  0
 94 42  1  0  0  0  0
 95 43  1  0  0  0  0
 96 44  1  0  0  0  0
 97 46  1  0  0  0  0
 98 47  1  0  0  0  0
 99 48  1  0  0  0  0
100 49  1  0  0  0  0
101 50  1  0  0  0  0
102 52  1  0  0  0  0
103 53  1  0  0  0  0
104 54  1  0  0  0  0
105 55  1  0  0  0  0
106 56  1  0  0  0  0
107 58  1  0  0  0  0
108 59  1  0  0  0  0
109 60  1  0  0  0  0
110 61  1  0  0  0  0
111 62  1  0  0  0  0
112 64  1  0  0  0  0
113 65  1  0  0  0  0
114 66  1  0  0  0  0
115 67  1  0  0  0  0
116 68  1  0  0  0  0
  2  8  1  0  0  0  0
  2 11  1  0  0  0  0
  2 12  1  0  0  0  0
  8  9  1  0  0  0  0
  8 10  1  0  0  0  0
  8 11  1  0  0  0  0
  9 10  1  0  0  0  0
  9 12  1  0  0  0  0
 10 12  1  0  0  0  0
 19 20  4  0  0  0  0
 25 26  4  0  0  0  0
 31 32  4  0  0  0  0
 37 38  4  0  0  0  0
 43 44  4  0  0  0  0
 49 50  4  0  0  0  0
 61 62  4  0  0  0  0
 67 68  4  0  0  0  0
M  END
$$$$
YUZROA10

From CSD data. Using bond type 'Any'. No disordered atoms. Largest molecule.
116133  0  0  0  0  0  0  0  0999 V2000
    2.9798   -8.3512   17.8186 Os  0  0  0  0  0  0  0  0  0  0  0  0
    3.5370   -6.2951   16.0147 Ir  0  0  0  0  0  0  0  0  0  0  0  0
    2.1863  -10.5824   17.8186 P   0  0  0  0  0  0  0  0  0  0  0  0
    2.9664   -7.9279   20.1961 P   0  0  0  0  0  0  0  0  0  0  0  0
    3.4148   -5.4719   13.8414 P   0  0  0  0  0  0  0  0  0  0  0  0
    5.9728   -8.8725   18.1080 O   0  0  0  0  0  0  0  0  0  0  0  0
    4.8372   -3.8433   17.1958 O   0  0  0  0  0  0  0  0  0  0  0  0
    2.0920   -7.9775   15.8390 B   0  0  0  0  0  0  0  0  0  0  0  0
    0.9813   -7.5928   17.1777 B   0  0  0  0  0  0  0  0  0  0  0  0
    1.3072   -6.3117   16.1310 B   0  0  0  0  0  0  0  0  0  0  0  0
    3.7833   -8.3954   15.8054 B   0  0  0  0  0  0  0  0  0  0  0  0
    2.1498   -6.2703   17.7178 B   0  0  0  0  0  0  0  0  0  0  0  0
    4.8490   -8.7401   18.0356 C   0  0  0  0  0  0  0  0  0  0  0  0
    4.3525   -4.7562   16.6944 C   0  0  0  0  0  0  0  0  0  0  0  0
    1.3057  -10.9148   16.2422 C   0  0  0  0  0  0  0  0  0  0  0  0
   -0.0684  -10.7452   16.1155 C   0  0  0  0  0  0  0  0  0  0  0  0
   -0.7275  -10.8955   14.9319 C   0  0  0  0  0  0  0  0  0  0  0  0
   -0.0559  -11.2002   13.7742 C   0  0  0  0  0  0  0  0  0  0  0  0
    1.2987  -11.3657   13.9111 C   0  0  0  0  0  0  0  0  0  0  0  0
    2.0043  -11.2444   15.1309 C   0  0  0  0  0  0  0  0  0  0  0  0
    3.3700  -11.9504   17.8832 C   0  0  0  0  0  0  0  0  0  0  0  0
    4.4958  -11.9008   18.6998 C   0  0  0  0  0  0  0  0  0  0  0  0
    5.3503  -12.9474   18.7902 C   0  0  0  0  0  0  0  0  0  0  0  0
    5.0633  -14.1444   18.1390 C   0  0  0  0  0  0  0  0  0  0  0  0
    3.9595  -14.2244   17.4154 C   0  0  0  0  0  0  0  0  0  0  0  0
    3.1256  -13.1667   17.2759 C   0  0  0  0  0  0  0  0  0  0  0  0
    0.9461  -11.0954   19.0306 C   0  0  0  0  0  0  0  0  0  0  0  0
   -0.0387  -10.2115   19.4570 C   0  0  0  0  0  0  0  0  0  0  0  0
   -1.0208  -10.5383   20.3227 C   0  0  0  0  0  0  0  0  0  0  0  0
   -1.0593  -11.8677   20.8603 C   0  0  0  0  0  0  0  0  0  0  0  0
   -0.0607  -12.7254   20.4752 C   0  0  0  0  0  0  0  0  0  0  0  0
    0.8934  -12.3489   19.5759 C   0  0  0  0  0  0  0  0  0  0  0  0
    3.8331   -9.2255   21.1652 C   0  0  0  0  0  0  0  0  0  0  0  0
    5.1731   -9.0642   21.4986 C   0  0  0  0  0  0  0  0  0  0  0  0
    5.8550  -10.1577   22.0826 C   0  0  0  0  0  0  0  0  0  0  0  0
    5.2751  -11.3009   22.4005 C   0  0  0  0  0  0  0  0  0  0  0  0
    3.9362  -11.4167   22.1446 C   0  0  0  0  0  0  0  0  0  0  0  0
    3.2343  -10.4432   21.5089 C   0  0  0  0  0  0  0  0  0  0  0  0
    1.3646   -7.7169   21.1187 C   0  0  0  0  0  0  0  0  0  0  0  0
    0.3193   -6.9888   20.5631 C   0  0  0  0  0  0  0  0  0  0  0  0
   -0.8072   -6.7433   21.2298 C   0  0  0  0  0  0  0  0  0  0  0  0
   -0.9687   -7.2604   22.5271 C   0  0  0  0  0  0  0  0  0  0  0  0
    0.0031   -7.8962   23.0440 C   0  0  0  0  0  0  0  0  0  0  0  0
    1.1703   -8.1609   22.4005 C   0  0  0  0  0  0  0  0  0  0  0  0
    3.8713   -6.4206   20.7905 C   0  0  0  0  0  0  0  0  0  0  0  0
    4.7584   -5.7601   19.9480 C   0  0  0  0  0  0  0  0  0  0  0  0
    5.4826   -4.7245   20.3977 C   0  0  0  0  0  0  0  0  0  0  0  0
    5.3935   -4.2625   21.6795 C   0  0  0  0  0  0  0  0  0  0  0  0
    4.5602   -4.9465   22.5064 C   0  0  0  0  0  0  0  0  0  0  0  0
    3.7741   -5.9904   22.0671 C   0  0  0  0  0  0  0  0  0  0  0  0
    2.7338   -3.7895   13.6527 C   0  0  0  0  0  0  0  0  0  0  0  0
    2.8319   -3.2241   12.3864 C   0  0  0  0  0  0  0  0  0  0  0  0
    2.2430   -1.9968   12.2133 C   0  0  0  0  0  0  0  0  0  0  0  0
    1.6100   -1.3363   13.2857 C   0  0  0  0  0  0  0  0  0  0  0  0
    1.5201   -1.9127   14.5546 C   0  0  0  0  0  0  0  0  0  0  0  0
    2.1549   -3.1469   14.7045 C   0  0  0  0  0  0  0  0  0  0  0  0
    4.9974   -5.3450   12.9265 C   0  0  0  0  0  0  0  0  0  0  0  0
    5.1416   -5.7739   11.6111 C   0  0  0  0  0  0  0  0  0  0  0  0
    6.3531   -5.6429   11.0090 C   0  0  0  0  0  0  0  0  0  0  0  0
    7.4006   -5.0968   11.6034 C   0  0  0  0  0  0  0  0  0  0  0  0
    7.3124   -4.6845   12.8723 C   0  0  0  0  0  0  0  0  0  0  0  0
    6.1035   -4.8955   13.5519 C   0  0  0  0  0  0  0  0  0  0  0  0
    2.2852   -6.5020   12.7818 C   0  0  0  0  0  0  0  0  0  0  0  0
    2.7861   -7.7500   12.4329 C   0  0  0  0  0  0  0  0  0  0  0  0
    1.9498   -8.6381   11.6447 C   0  0  0  0  0  0  0  0  0  0  0  0
    0.6995   -8.1844   11.2468 C   0  0  0  0  0  0  0  0  0  0  0  0
    0.3150   -6.9322   11.6266 C   0  0  0  0  0  0  0  0  0  0  0  0
    1.0928   -6.0855   12.3580 C   0  0  0  0  0  0  0  0  0  0  0  0
    1.7459   -8.4767   15.0715 H   0  0  0  0  0  0  0  0  0  0  0  0
   -0.1790   -7.9679   17.3663 H   0  0  0  0  0  0  0  0  0  0  0  0
    4.5309   -9.2200   15.3532 H   0  0  0  0  0  0  0  0  0  0  0  0
   -0.5591  -10.5218   16.8727 H   0  0  0  0  0  0  0  0  0  0  0  0
   -1.6515  -10.7879   14.9087 H   0  0  0  0  0  0  0  0  0  0  0  0
   -0.4882  -11.2885   12.9575 H   0  0  0  0  0  0  0  0  0  0  0  0
    1.7881  -11.5726   13.1488 H   0  0  0  0  0  0  0  0  0  0  0  0
    2.9222  -11.3892   15.1671 H   0  0  0  0  0  0  0  0  0  0  0  0
    4.6640  -11.1327   19.1934 H   0  0  0  0  0  0  0  0  0  0  0  0
    6.1319  -12.8661   19.2890 H   0  0  0  0  0  0  0  0  0  0  0  0
    5.6359  -14.8725   18.2140 H   0  0  0  0  0  0  0  0  0  0  0  0
    3.7523  -15.0256   16.9890 H   0  0  0  0  0  0  0  0  0  0  0  0
    2.3608  -13.2632   16.7564 H   0  0  0  0  0  0  0  0  0  0  0  0
   -0.0188   -9.3441   19.1236 H   0  0  0  0  0  0  0  0  0  0  0  0
   -1.6631   -9.9109   20.5682 H   0  0  0  0  0  0  0  0  0  0  0  0
   -1.7318  -12.1366   21.4417 H   0  0  0  0  0  0  0  0  0  0  0  0
   -0.0333  -13.5818   20.8344 H   0  0  0  0  0  0  0  0  0  0  0  0
    1.5348  -12.9723   19.3200 H   0  0  0  0  0  0  0  0  0  0  0  0
    5.6104   -8.2588   21.3409 H   0  0  0  0  0  0  0  0  0  0  0  0
    6.7646  -10.0653   22.2532 H   0  0  0  0  0  0  0  0  0  0  0  0
    5.7568  -11.9987   22.7830 H   0  0  0  0  0  0  0  0  0  0  0  0
    3.4905  -12.1876   22.4134 H   0  0  0  0  0  0  0  0  0  0  0  0
    2.3395  -10.5880   21.2996 H   0  0  0  0  0  0  0  0  0  0  0  0
    0.4096   -6.6606   19.6973 H   0  0  0  0  0  0  0  0  0  0  0  0
   -1.4816   -6.2358   20.8396 H   0  0  0  0  0  0  0  0  0  0  0  0
   -1.7650   -7.1391   22.9949 H   0  0  0  0  0  0  0  0  0  0  0  0
   -0.0911   -8.2009   23.9174 H   0  0  0  0  0  0  0  0  0  0  0  0
    1.8401   -8.6436   22.8295 H   0  0  0  0  0  0  0  0  0  0  0  0
    4.8498   -6.0386   19.0668 H   0  0  0  0  0  0  0  0  0  0  0  0
    6.0706   -4.3052   19.8136 H   0  0  0  0  0  0  0  0  0  0  0  0
    5.8735   -3.5206   21.9715 H   0  0  0  0  0  0  0  0  0  0  0  0
    4.5185   -4.7024   23.4032 H   0  0  0  0  0  0  0  0  0  0  0  0
    3.1762   -6.3986   22.6486 H   0  0  0  0  0  0  0  0  0  0  0  0
    3.2788   -3.6557   11.6938 H   0  0  0  0  0  0  0  0  0  0  0  0
    2.2633   -1.5941   11.3760 H   0  0  0  0  0  0  0  0  0  0  0  0
    1.2423   -0.4923   13.1462 H   0  0  0  0  0  0  0  0  0  0  0  0
    1.0659   -1.5017   15.2550 H   0  0  0  0  0  0  0  0  0  0  0  0
    2.1817   -3.5413   15.5470 H   0  0  0  0  0  0  0  0  0  0  0  0
    4.4213   -6.1503   11.1537 H   0  0  0  0  0  0  0  0  0  0  0  0
    6.4488   -5.9504   10.1381 H   0  0  0  0  0  0  0  0  0  0  0  0
    8.2000   -4.9989   11.1382 H   0  0  0  0  0  0  0  0  0  0  0  0
    8.0320   -4.2721   13.2935 H   0  0  0  0  0  0  0  0  0  0  0  0
    6.0640   -4.7176   14.4642 H   0  0  0  0  0  0  0  0  0  0  0  0
    3.6376   -8.0120   12.6991 H   0  0  0  0  0  0  0  0  0  0  0  0
    2.2453   -9.4889   11.4121 H   0  0  0  0  0  0  0  0  0  0  0  0
    0.1395   -8.7208   10.7325 H   0  0  0  0  0  0  0  0  0  0  0  0
   -0.5305   -6.6385   11.3708 H   0  0  0  0  0  0  0  0  0  0  0  0
    0.7962   -5.2278   12.5596 H   0  0  0  0  0  0  0  0  0  0  0  0
  1  2  1  0  0  0  0
  2  5  1  0  0  0  0
  3  1  1  0  0  0  0
  4  1  1  0  0  0  0
  5 51  1  0  0  0  0
  6 13  3  0  0  0  0
  7 14  3  0  0  0  0
  8  1  1  0  0  0  0
  9  1  1  0  0  0  0
 10  2  1  0  0  0  0
 11  1  1  0  0  0  0
 12  1  1  0  0  0  0
 13  1  1  0  0  0  0
 14  2  1  0  0  0  0
 15  3  1  0  0  0  0
 16 15  4  0  0  0  0
 17 16  4  0  0  0  0
 18 17  4  0  0  0  0
 19 18  4  0  0  0  0
 20 15  4  0  0  0  0
 21  3  1  0  0  0  0
 22 21  4  0  0  0  0
 23 22  4  0  0  0  0
 24 23  4  0  0  0  0
 25 24  4  0  0  0  0
 26 21  4  0  0  0  0
 27  3  1  0  0  0  0
 28 27  4  0  0  0  0
 29 28  4  0  0  0  0
 30 29  4  0  0  0  0
 31 30  4  0  0  0  0
 32 27  4  0  0  0  0
 33  4  1  0  0  0  0
 34 33  4  0  0  0  0
 35 34  4  0  0  0  0
 36 35  4  0  0  0  0
 37 36  4  0  0  0  0
 38 33  4  0  0  0  0
 39  4  1  0  0  0  0
 40 39  4  0  0  0  0
 41 40  4  0  0  0  0
 42 41  4  0  0  0  0
 43 42  4  0  0  0  0
 44 39  4  0  0  0  0
 45  4  1  0  0  0  0
 46 45  4  0  0  0  0
 47 46  4  0  0  0  0
 48 47  4  0  0  0  0
 49 48  4  0  0  0  0
 50 45  4  0  0  0  0
 51 52  4  0  0  0  0
 52 53  4  0  0  0  0
 53 54  4  0  0  0  0
 54 55  4  0  0  0  0
 55 56  4  0  0  0  0
 56 51  4  0  0  0  0
 57  5  1  0  0  0  0
 58 57  4  0  0  0  0
 59 58  4  0  0  0  0
 60 59  4  0  0  0  0
 61 60  4  0  0  0  0
 62 57  4  0  0  0  0
 63  5  1  0  0  0  0
 64 63  4  0  0  0  0
 65 64  4  0  0  0  0
 66 65  4  0  0  0  0
 67 66  4  0  0  0  0
 68 63  4  0  0  0  0
 69  8  1  0  0  0  0
 70  9  1  0  0  0  0
 71 11  1  0  0  0  0
 72 16  1  0  0  0  0
 73 17  1  0  0  0  0
 74 18  1  0  0  0  0
 75 19  1  0  0  0  0
 76 20  1  0  0  0  0
 77 22  1  0  0  0  0
 78 23  1  0  0  0  0
 79 24  1  0  0  0  0
 80 25  1  0  0  0  0
 81 26  1  0  0  0  0
 82 28  1  0  0  0  0
 83 29  1  0  0  0  0
 84 30  1  0  0  0  0
 85 31  1  0  0  0  0
 86 32  1  0  0  0  0
 87 34  1  0  0  0  0
 88 35  1  0  0  0  0
 89 36  1  0  0  0  0
 90 37  1  0  0  0  0
 91 38  1  0  0  0  0
 92 40  1  0  0  0  0
 93 41  1  0  0  0  0
 94 42  1  0  0  0  0
 95 43  1  0  0  0  0
 96 44  1  0  0  0  0
 97 46  1  0  0  0  0
 98 47  1  0  0  0  0
 99 48  1  0  0  0  0
100 49  1  0  0  0  0
101 50  1  0  0  0  0
102 52  1  0  0  0  0
103 53  1  0  0  0  0
104 54  1  0  0  0  0
105 55  1  0  0  0  0
106 56  1  0  0  0  0
107 58  1  0  0  0  0
108 59  1  0  0  0  0
109 60  1  0  0  0  0
110 61  1  0  0  0  0
111 62  1  0  0  0  0
112 64  1  0  0  0  0
113 65  1  0  0  0  0
114 66  1  0  0  0  0
115 67  1  0  0  0  0
116 68  1  0  0  0  0
  2  8  1  0  0  0  0
  2 11  1  0  0  0  0
  2 12  1  0  0  0  0
  8  9  1  0  0  0  0
  8 10  1  0  0  0  0
  8 11  1  0  0  0  0
  9 10  1  0  0  0  0
  9 12  1  0  0  0  0
 10 12  1  0  0  0  0
 19 20  4  0  0  0  0
 25 26  4  0  0  0  0
 31 32  4  0  0  0  0
 37 38  4  0  0  0  0
 43 44  4  0  0  0  0
 49 50  4  0  0  0  0
 61 62  4  0  0  0  0
 67 68  4  0  0  0  0
M  END
$$$$
YUZRUG

From CSD data. Using bond type 'Any'. No disordered atoms. Largest molecule.
107126  0  0  0  0  0  0  0  0999 V2000
    4.3911   11.2778   11.0549 Ir  0  0  0  0  0  0  0  0  0  0  0  0
    4.9567   12.4084   13.6502 Os  0  0  0  0  0  0  0  0  0  0  0  0
    3.2749   11.4848   15.1239 P   0  0  0  0  0  0  0  0  0  0  0  0
    4.3383   14.7113   13.6792 P   0  0  0  0  0  0  0  0  0  0  0  0
    5.6948   12.9468   11.5421 B   0  0  0  0  0  0  0  0  0  0  0  0
    6.4984   11.4632   11.1079 B   0  0  0  0  0  0  0  0  0  0  0  0
    5.8740   10.5993   12.4824 B   0  0  0  0  0  0  0  0  0  0  0  0
    6.8715   12.1487   12.5184 B   0  0  0  0  0  0  0  0  0  0  0  0
    6.9539   13.0477   15.8300 O   0  0  0  0  0  0  0  0  0  0  0  0
    6.1616   12.8268   15.0111 C   0  0  0  0  0  0  0  0  0  0  0  0
    2.3322   10.8624   10.0940 C   0  0  0  0  0  0  0  0  0  0  0  0
    3.1273   11.5686    9.1503 C   0  0  0  0  0  0  0  0  0  0  0  0
    4.3240   10.8028    8.9075 C   0  0  0  0  0  0  0  0  0  0  0  0
    4.2137    9.5741    9.6888 C   0  0  0  0  0  0  0  0  0  0  0  0
    2.9917    9.6160   10.4137 C   0  0  0  0  0  0  0  0  0  0  0  0
    0.9674   11.2457   10.5385 C   0  0  0  0  0  0  0  0  0  0  0  0
    2.7864   12.8476    8.4254 C   0  0  0  0  0  0  0  0  0  0  0  0
    5.3612   11.1475    7.9056 C   0  0  0  0  0  0  0  0  0  0  0  0
    5.1684    8.4321    9.6478 C   0  0  0  0  0  0  0  0  0  0  0  0
    2.4298    8.4930   11.2258 C   0  0  0  0  0  0  0  0  0  0  0  0
    2.9501    9.6991   14.8418 C   0  0  0  0  0  0  0  0  0  0  0  0
    1.6597    9.2007   14.6384 C   0  0  0  0  0  0  0  0  0  0  0  0
    1.4475    7.8209   14.5307 C   0  0  0  0  0  0  0  0  0  0  0  0
    2.5044    6.9527   14.6401 C   0  0  0  0  0  0  0  0  0  0  0  0
    3.7874    7.4291   14.8418 C   0  0  0  0  0  0  0  0  0  0  0  0
    4.0154    8.7978   14.9393 C   0  0  0  0  0  0  0  0  0  0  0  0
    1.5965   12.1953   15.0419 C   0  0  0  0  0  0  0  0  0  0  0  0
    1.1047   12.5799   13.7801 C   0  0  0  0  0  0  0  0  0  0  0  0
   -0.1712   13.1103   13.6570 C   0  0  0  0  0  0  0  0  0  0  0  0
   -0.9554   13.3083   14.7683 C   0  0  0  0  0  0  0  0  0  0  0  0
   -0.4734   12.9438   16.0232 C   0  0  0  0  0  0  0  0  0  0  0  0
    0.7864   12.3760   16.1549 C   0  0  0  0  0  0  0  0  0  0  0  0
    3.6322   11.4603   16.9225 C   0  0  0  0  0  0  0  0  0  0  0  0
    3.1930   10.3950   17.7261 C   0  0  0  0  0  0  0  0  0  0  0  0
    3.4107   10.4193   19.1007 C   0  0  0  0  0  0  0  0  0  0  0  0
    4.0372   11.5018   19.6802 C   0  0  0  0  0  0  0  0  0  0  0  0
    4.4782   12.5670   18.9058 C   0  0  0  0  0  0  0  0  0  0  0  0
    4.2751   12.5306   17.5397 C   0  0  0  0  0  0  0  0  0  0  0  0
    2.8332   15.3225   12.8124 C   0  0  0  0  0  0  0  0  0  0  0  0
    2.0887   16.3803   13.3305 C   0  0  0  0  0  0  0  0  0  0  0  0
    0.9656   16.8533   12.6688 C   0  0  0  0  0  0  0  0  0  0  0  0
    0.5829   16.2662   11.4720 C   0  0  0  0  0  0  0  0  0  0  0  0
    1.3242   15.2367   10.9437 C   0  0  0  0  0  0  0  0  0  0  0  0
    2.4569   14.7677   11.5951 C   0  0  0  0  0  0  0  0  0  0  0  0
    4.0861   15.3807   15.3718 C   0  0  0  0  0  0  0  0  0  0  0  0
    2.8833   15.1109   16.0403 C   0  0  0  0  0  0  0  0  0  0  0  0
    2.6928   15.5269   17.3431 C   0  0  0  0  0  0  0  0  0  0  0  0
    3.6698   16.2287   18.0099 C   0  0  0  0  0  0  0  0  0  0  0  0
    4.8479   16.5259   17.3568 C   0  0  0  0  0  0  0  0  0  0  0  0
    5.0657   16.1073   16.0420 C   0  0  0  0  0  0  0  0  0  0  0  0
    5.6344   15.8660   13.0655 C   0  0  0  0  0  0  0  0  0  0  0  0
    6.9899   15.5215   13.1971 C   0  0  0  0  0  0  0  0  0  0  0  0
    7.9865   16.4229   12.8193 C   0  0  0  0  0  0  0  0  0  0  0  0
    7.6507   17.6503   12.2893 C   0  0  0  0  0  0  0  0  0  0  0  0
    6.3178   17.9799   12.1303 C   0  0  0  0  0  0  0  0  0  0  0  0
    5.3239   17.1050   12.5303 C   0  0  0  0  0  0  0  0  0  0  0  0
    6.9981   11.1501   10.3146 H   0  0  0  0  0  0  0  0  0  0  0  0
    0.6493   10.6058   11.1797 H   0  0  0  0  0  0  0  0  0  0  0  0
    0.3768   11.2589    9.7811 H   0  0  0  0  0  0  0  0  0  0  0  0
    0.9948   12.1171   10.9403 H   0  0  0  0  0  0  0  0  0  0  0  0
    3.5141   13.0914    7.8475 H   0  0  0  0  0  0  0  0  0  0  0  0
    2.6374   13.5485    9.0648 H   0  0  0  0  0  0  0  0  0  0  0  0
    1.9924   12.7176    7.9022 H   0  0  0  0  0  0  0  0  0  0  0  0
    6.0605   10.4903    7.9295 H   0  0  0  0  0  0  0  0  0  0  0  0
    5.7272   12.0113    8.1091 H   0  0  0  0  0  0  0  0  0  0  0  0
    4.9674   11.1656    7.0302 H   0  0  0  0  0  0  0  0  0  0  0  0
    5.9147    8.6581    9.0870 H   0  0  0  0  0  0  0  0  0  0  0  0
    4.7255    7.6562    9.2939 H   0  0  0  0  0  0  0  0  0  0  0  0
    5.4814    8.2441   10.5351 H   0  0  0  0  0  0  0  0  0  0  0  0
    1.5963    8.7670   11.6173 H   0  0  0  0  0  0  0  0  0  0  0  0
    3.0483    8.2608   11.9217 H   0  0  0  0  0  0  0  0  0  0  0  0
    2.2827    7.7306   10.6599 H   0  0  0  0  0  0  0  0  0  0  0  0
    0.9406    9.7881   14.5734 H   0  0  0  0  0  0  0  0  0  0  0  0
    0.5892    7.4934   14.3836 H   0  0  0  0  0  0  0  0  0  0  0  0
    2.3568    6.0372   14.5785 H   0  0  0  0  0  0  0  0  0  0  0  0
    4.4970    6.8328   14.9119 H   0  0  0  0  0  0  0  0  0  0  0  0
    4.8796    9.1141   15.0692 H   0  0  0  0  0  0  0  0  0  0  0  0
    1.6381   12.4785   13.0261 H   0  0  0  0  0  0  0  0  0  0  0  0
   -0.4991   13.3324   12.8158 H   0  0  0  0  0  0  0  0  0  0  0  0
   -1.8021   13.6848   14.6845 H   0  0  0  0  0  0  0  0  0  0  0  0
   -0.9989   13.0824   16.7789 H   0  0  0  0  0  0  0  0  0  0  0  0
    1.0908   12.1166   16.9943 H   0  0  0  0  0  0  0  0  0  0  0  0
    2.7557    9.6700   17.3380 H   0  0  0  0  0  0  0  0  0  0  0  0
    3.1319    9.7050   19.6272 H   0  0  0  0  0  0  0  0  0  0  0  0
    4.1671   11.5179   20.6018 H   0  0  0  0  0  0  0  0  0  0  0  0
    4.9034   13.2935   19.3007 H   0  0  0  0  0  0  0  0  0  0  0  0
    4.5756   13.2413   17.0200 H   0  0  0  0  0  0  0  0  0  0  0  0
    2.3490   16.7760   14.1306 H   0  0  0  0  0  0  0  0  0  0  0  0
    0.4732   17.5574   13.0244 H   0  0  0  0  0  0  0  0  0  0  0  0
   -0.1765   16.5690   11.0258 H   0  0  0  0  0  0  0  0  0  0  0  0
    1.0643   14.8487   10.1385 H   0  0  0  0  0  0  0  0  0  0  0  0
    2.9627   14.0843   11.2173 H   0  0  0  0  0  0  0  0  0  0  0  0
    2.2061   14.6463   15.6009 H   0  0  0  0  0  0  0  0  0  0  0  0
    1.8931   15.3302   17.7756 H   0  0  0  0  0  0  0  0  0  0  0  0
    3.5390   16.4997   18.8904 H   0  0  0  0  0  0  0  0  0  0  0  0
    5.5068   17.0112   17.7979 H   0  0  0  0  0  0  0  0  0  0  0  0
    5.8649   16.3153   15.6146 H   0  0  0  0  0  0  0  0  0  0  0  0
    7.2252   14.6881   13.5373 H   0  0  0  0  0  0  0  0  0  0  0  0
    8.8815   16.1934   12.9253 H   0  0  0  0  0  0  0  0  0  0  0  0
    8.3161   18.2525   12.0413 H   0  0  0  0  0  0  0  0  0  0  0  0
    6.0875   18.7988   11.7524 H   0  0  0  0  0  0  0  0  0  0  0  0
    4.4309   17.3510   12.4363 H   0  0  0  0  0  0  0  0  0  0  0  0
    5.3684   13.8557   11.1814 H   0  0  0  0  0  0  0  0  0  0  0  0
    6.0253    9.4647   12.4876 H   0  0  0  0  0  0  0  0  0  0  0  0
    7.6683   12.3802   12.9184 H   0  0  0  0  0  0  0  0  0  0  0  0
    5.4358   10.9058   13.7545 H   0  0  0  0  0  0  0  0  0  0  0  0
    3.3492   11.9948   12.3764 H   0  0  0  0  0  0  0  0  0  0  0  0
  1  2  1  0  0  0  0
  2  3  1  0  0  0  0
  3 21  1  0  0  0  0
  4  2  1  0  0  0  0
  5  1  1  0  0  0  0
  6  1  1  0  0  0  0
  7  1  1  0  0  0  0
  8  2  1  0  0  0  0
  9 10  3  0  0  0  0
 10  2  1  0  0  0  0
 11  1  8  0  0  0  0
 12  1  8  0  0  0  0
 13  1  8  0  0  0  0
 14  1  8  0  0  0  0
 15  1  8  0  0  0  0
 16 11  1  0  0  0  0
 17 12  1  0  0  0  0
 18 13  1  0  0  0  0
 19 14  1  0  0  0  0
 20 15  1  0  0  0  0
 21 22  4  0  0  0  0
 22 23  4  0  0  0  0
 23 24  4  0  0  0  0
 24 25  4  0  0  0  0
 25 26  4  0  0  0  0
 26 21  4  0  0  0  0
 27  3  1  0  0  0  0
 28 27  4  0  0  0  0
 29 28  4  0  0  0  0
 30 29  4  0  0  0  0
 31 30  4  0  0  0  0
 32 27  4  0  0  0  0
 33  3  1  0  0  0  0
 34 33  4  0  0  0  0
 35 34  4  0  0  0  0
 36 35  4  0  0  0  0
 37 36  4  0  0  0  0
 38 33  4  0  0  0  0
 39  4  1  0  0  0  0
 40 39  4  0  0  0  0
 41 40  4  0  0  0  0
 42 41  4  0  0  0  0
 43 42  4  0  0  0  0
 44 39  4  0  0  0  0
 45  4  1  0  0  0  0
 46 45  4  0  0  0  0
 47 46  4  0  0  0  0
 48 47  4  0  0  0  0
 49 48  4  0  0  0  0
 50 45  4  0  0  0  0
 51  4  1  0  0  0  0
 52 51  4  0  0  0  0
 53 52  4  0  0  0  0
 54 53  4  0  0  0  0
 55 54  4  0  0  0  0
 56 51  4  0  0  0  0
 57  6  1  0  0  0  0
 58 16  1  0  0  0  0
 59 16  1  0  0  0  0
 60 16  1  0  0  0  0
 61 17  1  0  0  0  0
 62 17  1  0  0  0  0
 63 17  1  0  0  0  0
 64 18  1  0  0  0  0
 65 18  1  0  0  0  0
 66 18  1  0  0  0  0
 67 19  1  0  0  0  0
 68 19  1  0  0  0  0
 69 19  1  0  0  0  0
 70 20  1  0  0  0  0
 71 20  1  0  0  0  0
 72 20  1  0  0  0  0
 73 22  1  0  0  0  0
 74 23  1  0  0  0  0
 75 24  1  0  0  0  0
 76 25  1  0  0  0  0
 77 26  1  0  0  0  0
 78 28  1  0  0  0  0
 79 29  1  0  0  0  0
 80 30  1  0  0  0  0
 81 31  1  0  0  0  0
 82 32  1  0  0  0  0
 83 34  1  0  0  0  0
 84 35  1  0  0  0  0
 85 36  1  0  0  0  0
 86 37  1  0  0  0  0
 87 38  1  0  0  0  0
 88 40  1  0  0  0  0
 89 41  1  0  0  0  0
 90 42  1  0  0  0  0
 91 43  1  0  0  0  0
 92 44  1  0  0  0  0
 93 46  1  0  0  0  0
 94 47  1  0  0  0  0
 95 48  1  0  0  0  0
 96 49  1  0  0  0  0
 97 50  1  0  0  0  0
 98 52  1  0  0  0  0
 99 53  1  0  0  0  0
100 54  1  0  0  0  0
101 55  1  0  0  0  0
102 56  1  0  0  0  0
103  5  1  0  0  0  0
104  7  1  0  0  0  0
105  8  1  0  0  0  0
106  2  1  0  0  0  0
107  1  1  0  0  0  0
  2  5  1  0  0  0  0
  2  7  1  0  0  0  0
  2107  1  0  0  0  0
  5  6  1  0  0  0  0
  5  8  1  0  0  0  0
  6  7  1  0  0  0  0
  6  8  1  0  0  0  0
  7  8  1  0  0  0  0
  7106  1  0  0  0  0
 11 12  4  0  0  0  0
 11 15  4  0  0  0  0
 12 13  4  0  0  0  0
 13 14  4  0  0  0  0
 14 15  4  0  0  0  0
 31 32  4  0  0  0  0
 37 38  4  0  0  0  0
 43 44  4  0  0  0  0
 49 50  4  0  0  0  0
 55 56  4  0  0  0  0
M  END
$$$$
YUZRUG10

From CSD data. Using bond type 'Any'. No disordered atoms. Largest molecule.
107126  0  0  0  0  0  0  0  0999 V2000
    4.3911   11.2778   11.0549 Ir  0  0  0  0  0  0  0  0  0  0  0  0
    4.9567   12.4084   13.6502 Os  0  0  0  0  0  0  0  0  0  0  0  0
    3.2749   11.4848   15.1239 P   0  0  0  0  0  0  0  0  0  0  0  0
    4.3383   14.7113   13.6792 P   0  0  0  0  0  0  0  0  0  0  0  0
    5.6948   12.9468   11.5421 B   0  0  0  0  0  0  0  0  0  0  0  0
    6.4984   11.4632   11.1079 B   0  0  0  0  0  0  0  0  0  0  0  0
    5.8740   10.5993   12.4824 B   0  0  0  0  0  0  0  0  0  0  0  0
    6.8715   12.1487   12.5184 B   0  0  0  0  0  0  0  0  0  0  0  0
    6.9539   13.0477   15.8300 O   0  0  0  0  0  0  0  0  0  0  0  0
    6.1616   12.8268   15.0111 C   0  0  0  0  0  0  0  0  0  0  0  0
    2.3322   10.8624   10.0940 C   0  0  0  0  0  0  0  0  0  0  0  0
    3.1273   11.5686    9.1503 C   0  0  0  0  0  0  0  0  0  0  0  0
    4.3240   10.8028    8.9075 C   0  0  0  0  0  0  0  0  0  0  0  0
    4.2137    9.5741    9.6888 C   0  0  0  0  0  0  0  0  0  0  0  0
    2.9917    9.6160   10.4137 C   0  0  0  0  0  0  0  0  0  0  0  0
    0.9674   11.2457   10.5385 C   0  0  0  0  0  0  0  0  0  0  0  0
    2.7864   12.8476    8.4254 C   0  0  0  0  0  0  0  0  0  0  0  0
    5.3612   11.1475    7.9056 C   0  0  0  0  0  0  0  0  0  0  0  0
    5.1684    8.4321    9.6478 C   0  0  0  0  0  0  0  0  0  0  0  0
    2.4298    8.4930   11.2258 C   0  0  0  0  0  0  0  0  0  0  0  0
    2.9501    9.6991   14.8418 C   0  0  0  0  0  0  0  0  0  0  0  0
    1.6597    9.2007   14.6384 C   0  0  0  0  0  0  0  0  0  0  0  0
    1.4475    7.8209   14.5307 C   0  0  0  0  0  0  0  0  0  0  0  0
    2.5044    6.9527   14.6401 C   0  0  0  0  0  0  0  0  0  0  0  0
    3.7874    7.4291   14.8418 C   0  0  0  0  0  0  0  0  0  0  0  0
    4.0154    8.7978   14.9393 C   0  0  0  0  0  0  0  0  0  0  0  0
    1.5965   12.1953   15.0419 C   0  0  0  0  0  0  0  0  0  0  0  0
    1.1047   12.5799   13.7801 C   0  0  0  0  0  0  0  0  0  0  0  0
   -0.1712   13.1103   13.6570 C   0  0  0  0  0  0  0  0  0  0  0  0
   -0.9554   13.3083   14.7683 C   0  0  0  0  0  0  0  0  0  0  0  0
   -0.4734   12.9438   16.0232 C   0  0  0  0  0  0  0  0  0  0  0  0
    0.7864   12.3760   16.1549 C   0  0  0  0  0  0  0  0  0  0  0  0
    3.6322   11.4603   16.9225 C   0  0  0  0  0  0  0  0  0  0  0  0
    3.1930   10.3950   17.7261 C   0  0  0  0  0  0  0  0  0  0  0  0
    3.4107   10.4193   19.1007 C   0  0  0  0  0  0  0  0  0  0  0  0
    4.0372   11.5018   19.6802 C   0  0  0  0  0  0  0  0  0  0  0  0
    4.4782   12.5670   18.9058 C   0  0  0  0  0  0  0  0  0  0  0  0
    4.2751   12.5306   17.5397 C   0  0  0  0  0  0  0  0  0  0  0  0
    2.8332   15.3225   12.8124 C   0  0  0  0  0  0  0  0  0  0  0  0
    2.0887   16.3803   13.3305 C   0  0  0  0  0  0  0  0  0  0  0  0
    0.9656   16.8533   12.6688 C   0  0  0  0  0  0  0  0  0  0  0  0
    0.5829   16.2662   11.4720 C   0  0  0  0  0  0  0  0  0  0  0  0
    1.3242   15.2367   10.9437 C   0  0  0  0  0  0  0  0  0  0  0  0
    2.4569   14.7677   11.5951 C   0  0  0  0  0  0  0  0  0  0  0  0
    4.0861   15.3807   15.3718 C   0  0  0  0  0  0  0  0  0  0  0  0
    2.8833   15.1109   16.0403 C   0  0  0  0  0  0  0  0  0  0  0  0
    2.6928   15.5269   17.3431 C   0  0  0  0  0  0  0  0  0  0  0  0
    3.6698   16.2287   18.0099 C   0  0  0  0  0  0  0  0  0  0  0  0
    4.8479   16.5259   17.3568 C   0  0  0  0  0  0  0  0  0  0  0  0
    5.0657   16.1073   16.0420 C   0  0  0  0  0  0  0  0  0  0  0  0
    5.6344   15.8660   13.0655 C   0  0  0  0  0  0  0  0  0  0  0  0
    6.9899   15.5215   13.1971 C   0  0  0  0  0  0  0  0  0  0  0  0
    7.9865   16.4229   12.8193 C   0  0  0  0  0  0  0  0  0  0  0  0
    7.6507   17.6503   12.2893 C   0  0  0  0  0  0  0  0  0  0  0  0
    6.3178   17.9799   12.1303 C   0  0  0  0  0  0  0  0  0  0  0  0
    5.3239   17.1050   12.5303 C   0  0  0  0  0  0  0  0  0  0  0  0
    6.9981   11.1501   10.3146 H   0  0  0  0  0  0  0  0  0  0  0  0
    0.6493   10.6058   11.1797 H   0  0  0  0  0  0  0  0  0  0  0  0
    0.3768   11.2589    9.7811 H   0  0  0  0  0  0  0  0  0  0  0  0
    0.9948   12.1171   10.9403 H   0  0  0  0  0  0  0  0  0  0  0  0
    3.5141   13.0914    7.8475 H   0  0  0  0  0  0  0  0  0  0  0  0
    2.6374   13.5485    9.0648 H   0  0  0  0  0  0  0  0  0  0  0  0
    1.9924   12.7176    7.9022 H   0  0  0  0  0  0  0  0  0  0  0  0
    6.0605   10.4903    7.9295 H   0  0  0  0  0  0  0  0  0  0  0  0
    5.7272   12.0113    8.1091 H   0  0  0  0  0  0  0  0  0  0  0  0
    4.9674   11.1656    7.0302 H   0  0  0  0  0  0  0  0  0  0  0  0
    5.9147    8.6581    9.0870 H   0  0  0  0  0  0  0  0  0  0  0  0
    4.7255    7.6562    9.2939 H   0  0  0  0  0  0  0  0  0  0  0  0
    5.4814    8.2441   10.5351 H   0  0  0  0  0  0  0  0  0  0  0  0
    1.5963    8.7670   11.6173 H   0  0  0  0  0  0  0  0  0  0  0  0
    3.0483    8.2608   11.9217 H   0  0  0  0  0  0  0  0  0  0  0  0
    2.2827    7.7306   10.6599 H   0  0  0  0  0  0  0  0  0  0  0  0
    0.9406    9.7881   14.5734 H   0  0  0  0  0  0  0  0  0  0  0  0
    0.5892    7.4934   14.3836 H   0  0  0  0  0  0  0  0  0  0  0  0
    2.3568    6.0372   14.5785 H   0  0  0  0  0  0  0  0  0  0  0  0
    4.4970    6.8328   14.9119 H   0  0  0  0  0  0  0  0  0  0  0  0
    4.8796    9.1141   15.0692 H   0  0  0  0  0  0  0  0  0  0  0  0
    1.6381   12.4785   13.0261 H   0  0  0  0  0  0  0  0  0  0  0  0
   -0.4991   13.3324   12.8158 H   0  0  0  0  0  0  0  0  0  0  0  0
   -1.8021   13.6848   14.6845 H   0  0  0  0  0  0  0  0  0  0  0  0
   -0.9989   13.0824   16.7789 H   0  0  0  0  0  0  0  0  0  0  0  0
    1.0908   12.1166   16.9943 H   0  0  0  0  0  0  0  0  0  0  0  0
    2.7557    9.6700   17.3380 H   0  0  0  0  0  0  0  0  0  0  0  0
    3.1319    9.7050   19.6272 H   0  0  0  0  0  0  0  0  0  0  0  0
    4.1671   11.5179   20.6018 H   0  0  0  0  0  0  0  0  0  0  0  0
    4.9034   13.2935   19.3007 H   0  0  0  0  0  0  0  0  0  0  0  0
    4.5756   13.2413   17.0200 H   0  0  0  0  0  0  0  0  0  0  0  0
    2.3490   16.7760   14.1306 H   0  0  0  0  0  0  0  0  0  0  0  0
    0.4732   17.5574   13.0244 H   0  0  0  0  0  0  0  0  0  0  0  0
   -0.1765   16.5690   11.0258 H   0  0  0  0  0  0  0  0  0  0  0  0
    1.0643   14.8487   10.1385 H   0  0  0  0  0  0  0  0  0  0  0  0
    2.9627   14.0843   11.2173 H   0  0  0  0  0  0  0  0  0  0  0  0
    2.2061   14.6463   15.6009 H   0  0  0  0  0  0  0  0  0  0  0  0
    1.8931   15.3302   17.7756 H   0  0  0  0  0  0  0  0  0  0  0  0
    3.5390   16.4997   18.8904 H   0  0  0  0  0  0  0  0  0  0  0  0
    5.5068   17.0112   17.7979 H   0  0  0  0  0  0  0  0  0  0  0  0
    5.8649   16.3153   15.6146 H   0  0  0  0  0  0  0  0  0  0  0  0
    7.2252   14.6881   13.5373 H   0  0  0  0  0  0  0  0  0  0  0  0
    8.8815   16.1934   12.9253 H   0  0  0  0  0  0  0  0  0  0  0  0
    8.3161   18.2525   12.0413 H   0  0  0  0  0  0  0  0  0  0  0  0
    6.0875   18.7988   11.7524 H   0  0  0  0  0  0  0  0  0  0  0  0
    4.4309   17.3510   12.4363 H   0  0  0  0  0  0  0  0  0  0  0  0
    5.3684   13.8557   11.1814 H   0  0  0  0  0  0  0  0  0  0  0  0
    6.0253    9.4647   12.4876 H   0  0  0  0  0  0  0  0  0  0  0  0
    7.6683   12.3802   12.9184 H   0  0  0  0  0  0  0  0  0  0  0  0
    5.4358   10.9058   13.7545 H   0  0  0  0  0  0  0  0  0  0  0  0
    3.3492   11.9948   12.3764 H   0  0  0  0  0  0  0  0  0  0  0  0
  1  2  1  0  0  0  0
  2  3  1  0  0  0  0
  3 21  1  0  0  0  0
  4  2  1  0  0  0  0
  5  1  1  0  0  0  0
  6  1  1  0  0  0  0
  7  1  1  0  0  0  0
  8  2  1  0  0  0  0
  9 10  3  0  0  0  0
 10  2  1  0  0  0  0
 11  1  8  0  0  0  0
 12  1  8  0  0  0  0
 13  1  8  0  0  0  0
 14  1  8  0  0  0  0
 15  1  8  0  0  0  0
 16 11  1  0  0  0  0
 17 12  1  0  0  0  0
 18 13  1  0  0  0  0
 19 14  1  0  0  0  0
 20 15  1  0  0  0  0
 21 22  4  0  0  0  0
 22 23  4  0  0  0  0
 23 24  4  0  0  0  0
 24 25  4  0  0  0  0
 25 26  4  0  0  0  0
 26 21  4  0  0  0  0
 27  3  1  0  0  0  0
 28 27  4  0  0  0  0
 29 28  4  0  0  0  0
 30 29  4  0  0  0  0
 31 30  4  0  0  0  0
 32 27  4  0  0  0  0
 33  3  1  0  0  0  0
 34 33  4  0  0  0  0
 35 34  4  0  0  0  0
 36 35  4  0  0  0  0
 37 36  4  0  0  0  0
 38 33  4  0  0  0  0
 39  4  1  0  0  0  0
 40 39  4  0  0  0  0
 41 40  4  0  0  0  0
 42 41  4  0  0  0  0
 43 42  4  0  0  0  0
 44 39  4  0  0  0  0
 45  4  1  0  0  0  0
 46 45  4  0  0  0  0
 47 46  4  0  0  0  0
 48 47  4  0  0  0  0
 49 48  4  0  0  0  0
 50 45  4  0  0  0  0
 51  4  1  0  0  0  0
 52 51  4  0  0  0  0
 53 52  4  0  0  0  0
 54 53  4  0  0  0  0
 55 54  4  0  0  0  0
 56 51  4  0  0  0  0
 57  6  1  0  0  0  0
 58 16  1  0  0  0  0
 59 16  1  0  0  0  0
 60 16  1  0  0  0  0
 61 17  1  0  0  0  0
 62 17  1  0  0  0  0
 63 17  1  0  0  0  0
 64 18  1  0  0  0  0
 65 18  1  0  0  0  0
 66 18  1  0  0  0  0
 67 19  1  0  0  0  0
 68 19  1  0  0  0  0
 69 19  1  0  0  0  0
 70 20  1  0  0  0  0
 71 20  1  0  0  0  0
 72 20  1  0  0  0  0
 73 22  1  0  0  0  0
 74 23  1  0  0  0  0
 75 24  1  0  0  0  0
 76 25  1  0  0  0  0
 77 26  1  0  0  0  0
 78 28  1  0  0  0  0
 79 29  1  0  0  0  0
 80 30  1  0  0  0  0
 81 31  1  0  0  0  0
 82 32  1  0  0  0  0
 83 34  1  0  0  0  0
 84 35  1  0  0  0  0
 85 36  1  0  0  0  0
 86 37  1  0  0  0  0
 87 38  1  0  0  0  0
 88 40  1  0  0  0  0
 89 41  1  0  0  0  0
 90 42  1  0  0  0  0
 91 43  1  0  0  0  0
 92 44  1  0  0  0  0
 93 46  1  0  0  0  0
 94 47  1  0  0  0  0
 95 48  1  0  0  0  0
 96 49  1  0  0  0  0
 97 50  1  0  0  0  0
 98 52  1  0  0  0  0
 99 53  1  0  0  0  0
100 54  1  0  0  0  0
101 55  1  0  0  0  0
102 56  1  0  0  0  0
103  5  1  0  0  0  0
104  7  1  0  0  0  0
105  8  1  0  0  0  0
106  2  1  0  0  0  0
107  1  1  0  0  0  0
  2  5  1  0  0  0  0
  2  7  1  0  0  0  0
  2107  1  0  0  0  0
  5  6  1  0  0  0  0
  5  8  1  0  0  0  0
  6  7  1  0  0  0  0
  6  8  1  0  0  0  0
  7  8  1  0  0  0  0
  7106  1  0  0  0  0
 11 12  4  0  0  0  0
 11 15  4  0  0  0  0
 12 13  4  0  0  0  0
 13 14  4  0  0  0  0
 14 15  4  0  0  0  0
 31 32  4  0  0  0  0
 37 38  4  0  0  0  0
 43 44  4  0  0  0  0
 49 50  4  0  0  0  0
 55 56  4  0  0  0  0
M  END
$$$$
YUZSAN

From CSD data. Using bond type 'Any'. No disordered atoms. Largest molecule.
106123  0  0  0  0  0  0  0  0999 V2000
   26.3223    2.3763    9.7609 Ir  0  0  0  0  0  0  0  0  0  0  0  0
   27.0595    4.5698    7.9687 Os  0  0  0  0  0  0  0  0  0  0  0  0
   27.4533    6.8179    7.6158 P   0  0  0  0  0  0  0  0  0  0  0  0
   27.2438    3.6995    5.7474 P   0  0  0  0  0  0  0  0  0  0  0  0
   29.8554    4.3379    9.0856 O   0  0  0  0  0  0  0  0  0  0  0  0
   26.3208    4.5071   10.0529 B   0  0  0  0  0  0  0  0  0  0  0  0
   25.0937    5.1318    9.0298 B   0  0  0  0  0  0  0  0  0  0  0  0
   24.7409    3.8277   10.0757 B   0  0  0  0  0  0  0  0  0  0  0  0
   27.9510    1.6670   11.1445 C   0  0  0  0  0  0  0  0  0  0  0  0
   26.6783    1.6124   11.7639 C   0  0  0  0  0  0  0  0  0  0  0  0
   25.8797    0.6766   11.0353 C   0  0  0  0  0  0  0  0  0  0  0  0
   26.6547    0.1637    9.9615 C   0  0  0  0  0  0  0  0  0  0  0  0
   27.9148    0.7857   10.0224 C   0  0  0  0  0  0  0  0  0  0  0  0
   29.1419    2.4145   11.7029 C   0  0  0  0  0  0  0  0  0  0  0  0
   26.2719    2.3163   13.0433 C   0  0  0  0  0  0  0  0  0  0  0  0
   24.4684    0.2073   11.4415 C   0  0  0  0  0  0  0  0  0  0  0  0
   26.2830   -0.9331    9.0298 C   0  0  0  0  0  0  0  0  0  0  0  0
   29.0662    0.4720    9.1136 C   0  0  0  0  0  0  0  0  0  0  0  0
   28.7134    7.2817    6.3490 C   0  0  0  0  0  0  0  0  0  0  0  0
   29.7892    6.4386    6.1079 C   0  0  0  0  0  0  0  0  0  0  0  0
   30.7154    6.6896    5.1026 C   0  0  0  0  0  0  0  0  0  0  0  0
   30.5642    7.8410    4.3588 C   0  0  0  0  0  0  0  0  0  0  0  0
   29.5230    8.7167    4.5669 C   0  0  0  0  0  0  0  0  0  0  0  0
   28.6110    8.4412    5.5621 C   0  0  0  0  0  0  0  0  0  0  0  0
   26.0577    7.8983    7.1106 C   0  0  0  0  0  0  0  0  0  0  0  0
   25.1032    7.3853    6.2576 C   0  0  0  0  0  0  0  0  0  0  0  0
   24.0809    8.2720    5.7601 C   0  0  0  0  0  0  0  0  0  0  0  0
   24.0116    9.5816    6.1891 C   0  0  0  0  0  0  0  0  0  0  0  0
   24.9677   10.0754    7.0370 C   0  0  0  0  0  0  0  0  0  0  0  0
   25.9711    9.2596    7.5041 C   0  0  0  0  0  0  0  0  0  0  0  0
   28.0896    7.6855    9.1161 C   0  0  0  0  0  0  0  0  0  0  0  0
   29.4002    8.1111    9.2050 C   0  0  0  0  0  0  0  0  0  0  0  0
   29.8522    8.7140   10.3905 C   0  0  0  0  0  0  0  0  0  0  0  0
   29.0080    8.9323   11.4212 C   0  0  0  0  0  0  0  0  0  0  0  0
   27.7132    8.5339   11.3272 C   0  0  0  0  0  0  0  0  0  0  0  0
   27.2375    7.8901   10.1646 C   0  0  0  0  0  0  0  0  0  0  0  0
   26.5098    4.5889    4.3258 C   0  0  0  0  0  0  0  0  0  0  0  0
   25.3599    4.2069    3.7317 C   0  0  0  0  0  0  0  0  0  0  0  0
   24.8858    4.8917    2.6224 C   0  0  0  0  0  0  0  0  0  0  0  0
   25.4670    5.9967    2.1578 C   0  0  0  0  0  0  0  0  0  0  0  0
   26.5602    6.4441    2.7595 C   0  0  0  0  0  0  0  0  0  0  0  0
   27.1194    5.7702    3.8333 C   0  0  0  0  0  0  0  0  0  0  0  0
   28.8820    3.2684    5.1153 C   0  0  0  0  0  0  0  0  0  0  0  0
   29.8255    2.6382    6.0038 C   0  0  0  0  0  0  0  0  0  0  0  0
   31.0053    2.1499    5.5443 C   0  0  0  0  0  0  0  0  0  0  0  0
   31.3282    2.2290    4.2471 C   0  0  0  0  0  0  0  0  0  0  0  0
   30.5138    2.8537    3.3713 C   0  0  0  0  0  0  0  0  0  0  0  0
   29.2710    3.3803    3.7952 C   0  0  0  0  0  0  0  0  0  0  0  0
   26.3948    2.0544    5.5773 C   0  0  0  0  0  0  0  0  0  0  0  0
   25.1567    1.8252    6.1764 C   0  0  0  0  0  0  0  0  0  0  0  0
   24.5550    0.6248    6.0977 C   0  0  0  0  0  0  0  0  0  0  0  0
   25.1158   -0.3847    5.4656 C   0  0  0  0  0  0  0  0  0  0  0  0
   26.3176   -0.2019    4.8538 C   0  0  0  0  0  0  0  0  0  0  0  0
   26.9618    1.0504    4.8944 C   0  0  0  0  0  0  0  0  0  0  0  0
   28.7575    4.4279    8.6211 C   0  0  0  0  0  0  0  0  0  0  0  0
   26.7445    4.9354   11.0201 H   0  0  0  0  0  0  0  0  0  0  0  0
   24.5519    6.2995    9.0146 H   0  0  0  0  0  0  0  0  0  0  0  0
   23.8100    3.6340   10.9820 H   0  0  0  0  0  0  0  0  0  0  0  0
   27.4706    2.7883    8.1083 H   0  0  0  0  0  0  0  0  0  0  0  0
   25.3331    4.8317    7.7859 H   0  0  0  0  0  0  0  0  0  0  0  0
   24.2683    4.2151    8.9409 H   0  0  0  0  0  0  0  0  0  0  0  0
   29.8900    2.3081   11.1140 H   0  0  0  0  0  0  0  0  0  0  0  0
   29.3592    2.0653   12.5686 H   0  0  0  0  0  0  0  0  0  0  0  0
   28.9245    3.3476   11.7816 H   0  0  0  0  0  0  0  0  0  0  0  0
   25.3552    2.1144   13.2439 H   0  0  0  0  0  0  0  0  0  0  0  0
   26.3727    3.2657   12.9342 H   0  0  0  0  0  0  0  0  0  0  0  0
   26.8327    2.0162   13.7643 H   0  0  0  0  0  0  0  0  0  0  0  0
   24.1691    0.7148   12.2005 H   0  0  0  0  0  0  0  0  0  0  0  0
   24.4936   -0.7257   11.6699 H   0  0  0  0  0  0  0  0  0  0  0  0
   23.8651    0.3410   10.7078 H   0  0  0  0  0  0  0  0  0  0  0  0
   25.3678   -1.1868    9.1821 H   0  0  0  0  0  0  0  0  0  0  0  0
   26.8532   -1.6915    9.1847 H   0  0  0  0  0  0  0  0  0  0  0  0
   26.3838   -0.6330    8.1235 H   0  0  0  0  0  0  0  0  0  0  0  0
   29.8176    1.0204    9.3471 H   0  0  0  0  0  0  0  0  0  0  0  0
   28.8111    0.6466    8.2048 H   0  0  0  0  0  0  0  0  0  0  0  0
   29.3041   -0.4529    9.2050 H   0  0  0  0  0  0  0  0  0  0  0  0
   29.8932    5.6802    6.6359 H   0  0  0  0  0  0  0  0  0  0  0  0
   31.4148    6.1003    4.9376 H   0  0  0  0  0  0  0  0  0  0  0  0
   31.1848    8.0319    3.6911 H   0  0  0  0  0  0  0  0  0  0  0  0
   29.4380    9.4806    4.0440 H   0  0  0  0  0  0  0  0  0  0  0  0
   27.9148    9.0359    5.7169 H   0  0  0  0  0  0  0  0  0  0  0  0
   25.1189    6.4905    6.0063 H   0  0  0  0  0  0  0  0  0  0  0  0
   23.4587    7.9583    5.1457 H   0  0  0  0  0  0  0  0  0  0  0  0
   23.3201   10.1300    5.9022 H   0  0  0  0  0  0  0  0  0  0  0  0
   24.9362   10.9648    7.2985 H   0  0  0  0  0  0  0  0  0  0  0  0
   26.6043    9.6089    8.0880 H   0  0  0  0  0  0  0  0  0  0  0  0
   29.9798    8.0019    8.4840 H   0  0  0  0  0  0  0  0  0  0  0  0
   30.7469    8.9650   10.4692 H   0  0  0  0  0  0  0  0  0  0  0  0
   29.3088    9.3551   12.1904 H   0  0  0  0  0  0  0  0  0  0  0  0
   27.1304    8.6867   12.0380 H   0  0  0  0  0  0  0  0  0  0  0  0
   26.3507    7.6091   10.1112 H   0  0  0  0  0  0  0  0  0  0  0  0
   24.8826    3.4840    4.0668 H   0  0  0  0  0  0  0  0  0  0  0  0
   24.1329    4.5643    2.1832 H   0  0  0  0  0  0  0  0  0  0  0  0
   25.1126    6.4468    1.4267 H   0  0  0  0  0  0  0  0  0  0  0  0
   26.9603    7.2244    2.4523 H   0  0  0  0  0  0  0  0  0  0  0  0
   27.8975    6.0922    4.2293 H   0  0  0  0  0  0  0  0  0  0  0  0
   29.6238    2.5673    6.9101 H   0  0  0  0  0  0  0  0  0  0  0  0
   31.5975    1.7515    6.1383 H   0  0  0  0  0  0  0  0  0  0  0  0
   32.1236    1.8497    3.9475 H   0  0  0  0  0  0  0  0  0  0  0  0
   30.7737    2.9383    2.4802 H   0  0  0  0  0  0  0  0  0  0  0  0
   28.7103    3.8059    3.1834 H   0  0  0  0  0  0  0  0  0  0  0  0
   24.7377    2.5182    6.6384 H   0  0  0  0  0  0  0  0  0  0  0  0
   23.7233    0.5047    6.5014 H   0  0  0  0  0  0  0  0  0  0  0  0
   24.6936   -1.2141    5.4351 H   0  0  0  0  0  0  0  0  0  0  0  0
   26.7177   -0.9112    4.4045 H   0  0  0  0  0  0  0  0  0  0  0  0
   27.7699    1.1786    4.4527 H   0  0  0  0  0  0  0  0  0  0  0  0
  1  2  1  0  0  0  0
  2  3  1  0  0  0  0
  3 19  1  0  0  0  0
  4  2  1  0  0  0  0
  5 55  3  0  0  0  0
  6  1  1  0  0  0  0
  7  2  1  0  0  0  0
  8  1  1  0  0  0  0
  9  1  8  0  0  0  0
 10  1  8  0  0  0  0
 11  1  8  0  0  0  0
 12  1  8  0  0  0  0
 13  1  8  0  0  0  0
 14  9  1  0  0  0  0
 15 10  1  0  0  0  0
 16 11  1  0  0  0  0
 17 12  1  0  0  0  0
 18 13  1  0  0  0  0
 19 20  4  0  0  0  0
 20 21  4  0  0  0  0
 21 22  4  0  0  0  0
 22 23  4  0  0  0  0
 23 24  4  0  0  0  0
 24 19  4  0  0  0  0
 25  3  1  0  0  0  0
 26 25  4  0  0  0  0
 27 26  4  0  0  0  0
 28 27  4  0  0  0  0
 29 28  4  0  0  0  0
 30 25  4  0  0  0  0
 31  3  1  0  0  0  0
 32 31  4  0  0  0  0
 33 32  4  0  0  0  0
 34 33  4  0  0  0  0
 35 34  4  0  0  0  0
 36 31  4  0  0  0  0
 37  4  1  0  0  0  0
 38 37  4  0  0  0  0
 39 38  4  0  0  0  0
 40 39  4  0  0  0  0
 41 40  4  0  0  0  0
 42 37  4  0  0  0  0
 43  4  1  0  0  0  0
 44 43  4  0  0  0  0
 45 44  4  0  0  0  0
 46 45  4  0  0  0  0
 47 46  4  0  0  0  0
 48 43  4  0  0  0  0
 49  4  1  0  0  0  0
 50 49  4  0  0  0  0
 51 50  4  0  0  0  0
 52 51  4  0  0  0  0
 53 52  4  0  0  0  0
 54 49  4  0  0  0  0
 55  2  1  0  0  0  0
 56  6  1  0  0  0  0
 57  7  1  0  0  0  0
 58  8  1  0  0  0  0
 59  1  1  0  0  0  0
 60  2  1  0  0  0  0
 61  7  1  0  0  0  0
 62 14  1  0  0  0  0
 63 14  1  0  0  0  0
 64 14  1  0  0  0  0
 65 15  1  0  0  0  0
 66 15  1  0  0  0  0
 67 15  1  0  0  0  0
 68 16  1  0  0  0  0
 69 16  1  0  0  0  0
 70 16  1  0  0  0  0
 71 17  1  0  0  0  0
 72 17  1  0  0  0  0
 73 17  1  0  0  0  0
 74 18  1  0  0  0  0
 75 18  1  0  0  0  0
 76 18  1  0  0  0  0
 77 20  1  0  0  0  0
 78 21  1  0  0  0  0
 79 22  1  0  0  0  0
 80 23  1  0  0  0  0
 81 24  1  0  0  0  0
 82 26  1  0  0  0  0
 83 27  1  0  0  0  0
 84 28  1  0  0  0  0
 85 29  1  0  0  0  0
 86 30  1  0  0  0  0
 87 32  1  0  0  0  0
 88 33  1  0  0  0  0
 89 34  1  0  0  0  0
 90 35  1  0  0  0  0
 91 36  1  0  0  0  0
 92 38  1  0  0  0  0
 93 39  1  0  0  0  0
 94 40  1  0  0  0  0
 95 41  1  0  0  0  0
 96 42  1  0  0  0  0
 97 44  1  0  0  0  0
 98 45  1  0  0  0  0
 99 46  1  0  0  0  0
100 47  1  0  0  0  0
101 48  1  0  0  0  0
102 50  1  0  0  0  0
103 51  1  0  0  0  0
104 52  1  0  0  0  0
105 53  1  0  0  0  0
106 54  1  0  0  0  0
  2  6  1  0  0  0  0
  2 59  1  0  0  0  0
  6  7  1  0  0  0  0
  6  8  1  0  0  0  0
  7  8  1  0  0  0  0
  7 60  1  0  0  0  0
  8 61  1  0  0  0  0
  9 10  4  0  0  0  0
  9 13  4  0  0  0  0
 10 11  4  0  0  0  0
 11 12  4  0  0  0  0
 12 13  4  0  0  0  0
 29 30  4  0  0  0  0
 35 36  4  0  0  0  0
 41 42  4  0  0  0  0
 47 48  4  0  0  0  0
 53 54  4  0  0  0  0
M  END
$$$$
YUZSAN10

From CSD data. Using bond type 'Any'. No disordered atoms. Largest molecule.
106123  0  0  0  0  0  0  0  0999 V2000
   26.3223    2.3763    9.7609 Ir  0  0  0  0  0  0  0  0  0  0  0  0
   27.0595    4.5698    7.9687 Os  0  0  0  0  0  0  0  0  0  0  0  0
   27.4533    6.8179    7.6158 P   0  0  0  0  0  0  0  0  0  0  0  0
   27.2438    3.6995    5.7474 P   0  0  0  0  0  0  0  0  0  0  0  0
   29.8554    4.3379    9.0856 O   0  0  0  0  0  0  0  0  0  0  0  0
   26.3208    4.5071   10.0529 B   0  0  0  0  0  0  0  0  0  0  0  0
   25.0937    5.1318    9.0298 B   0  0  0  0  0  0  0  0  0  0  0  0
   24.7409    3.8277   10.0757 B   0  0  0  0  0  0  0  0  0  0  0  0
   27.9510    1.6670   11.1445 C   0  0  0  0  0  0  0  0  0  0  0  0
   26.6783    1.6124   11.7639 C   0  0  0  0  0  0  0  0  0  0  0  0
   25.8797    0.6766   11.0353 C   0  0  0  0  0  0  0  0  0  0  0  0
   26.6547    0.1637    9.9615 C   0  0  0  0  0  0  0  0  0  0  0  0
   27.9148    0.7857   10.0224 C   0  0  0  0  0  0  0  0  0  0  0  0
   29.1419    2.4145   11.7029 C   0  0  0  0  0  0  0  0  0  0  0  0
   26.2719    2.3163   13.0433 C   0  0  0  0  0  0  0  0  0  0  0  0
   24.4684    0.2073   11.4415 C   0  0  0  0  0  0  0  0  0  0  0  0
   26.2830   -0.9331    9.0298 C   0  0  0  0  0  0  0  0  0  0  0  0
   29.0662    0.4720    9.1136 C   0  0  0  0  0  0  0  0  0  0  0  0
   28.7134    7.2817    6.3490 C   0  0  0  0  0  0  0  0  0  0  0  0
   29.7892    6.4386    6.1079 C   0  0  0  0  0  0  0  0  0  0  0  0
   30.7154    6.6896    5.1026 C   0  0  0  0  0  0  0  0  0  0  0  0
   30.5642    7.8410    4.3588 C   0  0  0  0  0  0  0  0  0  0  0  0
   29.5230    8.7167    4.5669 C   0  0  0  0  0  0  0  0  0  0  0  0
   28.6110    8.4412    5.5621 C   0  0  0  0  0  0  0  0  0  0  0  0
   26.0577    7.8983    7.1106 C   0  0  0  0  0  0  0  0  0  0  0  0
   25.1032    7.3853    6.2576 C   0  0  0  0  0  0  0  0  0  0  0  0
   24.0809    8.2720    5.7601 C   0  0  0  0  0  0  0  0  0  0  0  0
   24.0116    9.5816    6.1891 C   0  0  0  0  0  0  0  0  0  0  0  0
   24.9677   10.0754    7.0370 C   0  0  0  0  0  0  0  0  0  0  0  0
   25.9711    9.2596    7.5041 C   0  0  0  0  0  0  0  0  0  0  0  0
   28.0896    7.6855    9.1161 C   0  0  0  0  0  0  0  0  0  0  0  0
   29.4002    8.1111    9.2050 C   0  0  0  0  0  0  0  0  0  0  0  0
   29.8522    8.7140   10.3905 C   0  0  0  0  0  0  0  0  0  0  0  0
   29.0080    8.9323   11.4212 C   0  0  0  0  0  0  0  0  0  0  0  0
   27.7132    8.5339   11.3272 C   0  0  0  0  0  0  0  0  0  0  0  0
   27.2375    7.8901   10.1646 C   0  0  0  0  0  0  0  0  0  0  0  0
   26.5098    4.5889    4.3258 C   0  0  0  0  0  0  0  0  0  0  0  0
   25.3599    4.2069    3.7317 C   0  0  0  0  0  0  0  0  0  0  0  0
   24.8858    4.8917    2.6224 C   0  0  0  0  0  0  0  0  0  0  0  0
   25.4670    5.9967    2.1578 C   0  0  0  0  0  0  0  0  0  0  0  0
   26.5602    6.4441    2.7595 C   0  0  0  0  0  0  0  0  0  0  0  0
   27.1194    5.7702    3.8333 C   0  0  0  0  0  0  0  0  0  0  0  0
   28.8820    3.2684    5.1153 C   0  0  0  0  0  0  0  0  0  0  0  0
   29.8255    2.6382    6.0038 C   0  0  0  0  0  0  0  0  0  0  0  0
   31.0053    2.1499    5.5443 C   0  0  0  0  0  0  0  0  0  0  0  0
   31.3282    2.2290    4.2471 C   0  0  0  0  0  0  0  0  0  0  0  0
   30.5138    2.8537    3.3713 C   0  0  0  0  0  0  0  0  0  0  0  0
   29.2710    3.3803    3.7952 C   0  0  0  0  0  0  0  0  0  0  0  0
   26.3948    2.0544    5.5773 C   0  0  0  0  0  0  0  0  0  0  0  0
   25.1567    1.8252    6.1764 C   0  0  0  0  0  0  0  0  0  0  0  0
   24.5550    0.6248    6.0977 C   0  0  0  0  0  0  0  0  0  0  0  0
   25.1158   -0.3847    5.4656 C   0  0  0  0  0  0  0  0  0  0  0  0
   26.3176   -0.2019    4.8538 C   0  0  0  0  0  0  0  0  0  0  0  0
   26.9618    1.0504    4.8944 C   0  0  0  0  0  0  0  0  0  0  0  0
   28.7575    4.4279    8.6211 C   0  0  0  0  0  0  0  0  0  0  0  0
   26.7445    4.9354   11.0201 H   0  0  0  0  0  0  0  0  0  0  0  0
   24.5519    6.2995    9.0146 H   0  0  0  0  0  0  0  0  0  0  0  0
   23.8100    3.6340   10.9820 H   0  0  0  0  0  0  0  0  0  0  0  0
   27.4706    2.7883    8.1083 H   0  0  0  0  0  0  0  0  0  0  0  0
   25.3331    4.8317    7.7859 H   0  0  0  0  0  0  0  0  0  0  0  0
   24.2683    4.2151    8.9409 H   0  0  0  0  0  0  0  0  0  0  0  0
   29.8900    2.3081   11.1140 H   0  0  0  0  0  0  0  0  0  0  0  0
   29.3592    2.0653   12.5686 H   0  0  0  0  0  0  0  0  0  0  0  0
   28.9245    3.3476   11.7816 H   0  0  0  0  0  0  0  0  0  0  0  0
   25.3552    2.1144   13.2439 H   0  0  0  0  0  0  0  0  0  0  0  0
   26.3727    3.2657   12.9342 H   0  0  0  0  0  0  0  0  0  0  0  0
   26.8327    2.0162   13.7643 H   0  0  0  0  0  0  0  0  0  0  0  0
   24.1691    0.7148   12.2005 H   0  0  0  0  0  0  0  0  0  0  0  0
   24.4936   -0.7257   11.6699 H   0  0  0  0  0  0  0  0  0  0  0  0
   23.8651    0.3410   10.7078 H   0  0  0  0  0  0  0  0  0  0  0  0
   25.3678   -1.1868    9.1821 H   0  0  0  0  0  0  0  0  0  0  0  0
   26.8532   -1.6915    9.1847 H   0  0  0  0  0  0  0  0  0  0  0  0
   26.3838   -0.6330    8.1235 H   0  0  0  0  0  0  0  0  0  0  0  0
   29.8176    1.0204    9.3471 H   0  0  0  0  0  0  0  0  0  0  0  0
   28.8111    0.6466    8.2048 H   0  0  0  0  0  0  0  0  0  0  0  0
   29.3041   -0.4529    9.2050 H   0  0  0  0  0  0  0  0  0  0  0  0
   29.8932    5.6802    6.6359 H   0  0  0  0  0  0  0  0  0  0  0  0
   31.4148    6.1003    4.9376 H   0  0  0  0  0  0  0  0  0  0  0  0
   31.1848    8.0319    3.6911 H   0  0  0  0  0  0  0  0  0  0  0  0
   29.4380    9.4806    4.0440 H   0  0  0  0  0  0  0  0  0  0  0  0
   27.9148    9.0359    5.7169 H   0  0  0  0  0  0  0  0  0  0  0  0
   25.1189    6.4905    6.0063 H   0  0  0  0  0  0  0  0  0  0  0  0
   23.4587    7.9583    5.1457 H   0  0  0  0  0  0  0  0  0  0  0  0
   23.3201   10.1300    5.9022 H   0  0  0  0  0  0  0  0  0  0  0  0
   24.9362   10.9648    7.2985 H   0  0  0  0  0  0  0  0  0  0  0  0
   26.6043    9.6089    8.0880 H   0  0  0  0  0  0  0  0  0  0  0  0
   29.9798    8.0019    8.4840 H   0  0  0  0  0  0  0  0  0  0  0  0
   30.7469    8.9650   10.4692 H   0  0  0  0  0  0  0  0  0  0  0  0
   29.3088    9.3551   12.1904 H   0  0  0  0  0  0  0  0  0  0  0  0
   27.1304    8.6867   12.0380 H   0  0  0  0  0  0  0  0  0  0  0  0
   26.3507    7.6091   10.1112 H   0  0  0  0  0  0  0  0  0  0  0  0
   24.8826    3.4840    4.0668 H   0  0  0  0  0  0  0  0  0  0  0  0
   24.1329    4.5643    2.1832 H   0  0  0  0  0  0  0  0  0  0  0  0
   25.1126    6.4468    1.4267 H   0  0  0  0  0  0  0  0  0  0  0  0
   26.9603    7.2244    2.4523 H   0  0  0  0  0  0  0  0  0  0  0  0
   27.8975    6.0922    4.2293 H   0  0  0  0  0  0  0  0  0  0  0  0
   29.6238    2.5673    6.9101 H   0  0  0  0  0  0  0  0  0  0  0  0
   31.5975    1.7515    6.1383 H   0  0  0  0  0  0  0  0  0  0  0  0
   32.1236    1.8497    3.9475 H   0  0  0  0  0  0  0  0  0  0  0  0
   30.7737    2.9383    2.4802 H   0  0  0  0  0  0  0  0  0  0  0  0
   28.7103    3.8059    3.1834 H   0  0  0  0  0  0  0  0  0  0  0  0
   24.7377    2.5182    6.6384 H   0  0  0  0  0  0  0  0  0  0  0  0
   23.7233    0.5047    6.5014 H   0  0  0  0  0  0  0  0  0  0  0  0
   24.6936   -1.2141    5.4351 H   0  0  0  0  0  0  0  0  0  0  0  0
   26.7177   -0.9112    4.4045 H   0  0  0  0  0  0  0  0  0  0  0  0
   27.7699    1.1786    4.4527 H   0  0  0  0  0  0  0  0  0  0  0  0
  1  2  1  0  0  0  0
  2  3  1  0  0  0  0
  3 19  1  0  0  0  0
  4  2  1  0  0  0  0
  5 55  3  0  0  0  0
  6  1  1  0  0  0  0
  7  2  1  0  0  0  0
  8  1  1  0  0  0  0
  9  1  8  0  0  0  0
 10  1  8  0  0  0  0
 11  1  8  0  0  0  0
 12  1  8  0  0  0  0
 13  1  8  0  0  0  0
 14  9  1  0  0  0  0
 15 10  1  0  0  0  0
 16 11  1  0  0  0  0
 17 12  1  0  0  0  0
 18 13  1  0  0  0  0
 19 20  4  0  0  0  0
 20 21  4  0  0  0  0
 21 22  4  0  0  0  0
 22 23  4  0  0  0  0
 23 24  4  0  0  0  0
 24 19  4  0  0  0  0
 25  3  1  0  0  0  0
 26 25  4  0  0  0  0
 27 26  4  0  0  0  0
 28 27  4  0  0  0  0
 29 28  4  0  0  0  0
 30 25  4  0  0  0  0
 31  3  1  0  0  0  0
 32 31  4  0  0  0  0
 33 32  4  0  0  0  0
 34 33  4  0  0  0  0
 35 34  4  0  0  0  0
 36 31  4  0  0  0  0
 37  4  1  0  0  0  0
 38 37  4  0  0  0  0
 39 38  4  0  0  0  0
 40 39  4  0  0  0  0
 41 40  4  0  0  0  0
 42 37  4  0  0  0  0
 43  4  1  0  0  0  0
 44 43  4  0  0  0  0
 45 44  4  0  0  0  0
 46 45  4  0  0  0  0
 47 46  4  0  0  0  0
 48 43  4  0  0  0  0
 49  4  1  0  0  0  0
 50 49  4  0  0  0  0
 51 50  4  0  0  0  0
 52 51  4  0  0  0  0
 53 52  4  0  0  0  0
 54 49  4  0  0  0  0
 55  2  1  0  0  0  0
 56  6  1  0  0  0  0
 57  7  1  0  0  0  0
 58  8  1  0  0  0  0
 59  1  1  0  0  0  0
 60  2  1  0  0  0  0
 61  7  1  0  0  0  0
 62 14  1  0  0  0  0
 63 14  1  0  0  0  0
 64 14  1  0  0  0  0
 65 15  1  0  0  0  0
 66 15  1  0  0  0  0
 67 15  1  0  0  0  0
 68 16  1  0  0  0  0
 69 16  1  0  0  0  0
 70 16  1  0  0  0  0
 71 17  1  0  0  0  0
 72 17  1  0  0  0  0
 73 17  1  0  0  0  0
 74 18  1  0  0  0  0
 75 18  1  0  0  0  0
 76 18  1  0  0  0  0
 77 20  1  0  0  0  0
 78 21  1  0  0  0  0
 79 22  1  0  0  0  0
 80 23  1  0  0  0  0
 81 24  1  0  0  0  0
 82 26  1  0  0  0  0
 83 27  1  0  0  0  0
 84 28  1  0  0  0  0
 85 29  1  0  0  0  0
 86 30  1  0  0  0  0
 87 32  1  0  0  0  0
 88 33  1  0  0  0  0
 89 34  1  0  0  0  0
 90 35  1  0  0  0  0
 91 36  1  0  0  0  0
 92 38  1  0  0  0  0
 93 39  1  0  0  0  0
 94 40  1  0  0  0  0
 95 41  1  0  0  0  0
 96 42  1  0  0  0  0
 97 44  1  0  0  0  0
 98 45  1  0  0  0  0
 99 46  1  0  0  0  0
100 47  1  0  0  0  0
101 48  1  0  0  0  0
102 50  1  0  0  0  0
103 51  1  0  0  0  0
104 52  1  0  0  0  0
105 53  1  0  0  0  0
106 54  1  0  0  0  0
  2  6  1  0  0  0  0
  2 59  1  0  0  0  0
  6  7  1  0  0  0  0
  6  8  1  0  0  0  0
  7  8  1  0  0  0  0
  7 60  1  0  0  0  0
  8 61  1  0  0  0  0
  9 10  4  0  0  0  0
  9 13  4  0  0  0  0
 10 11  4  0  0  0  0
 11 12  4  0  0  0  0
 12 13  4  0  0  0  0
 29 30  4  0  0  0  0
 35 36  4  0  0  0  0
 41 42  4  0  0  0  0
 47 48  4  0  0  0  0
 53 54  4  0  0  0  0
M  END
$$$$
ZAFZOZ

From CSD data. Using bond type 'Any'. No disordered atoms. Largest molecule.
 90 95  0  0  0  0  0  0  0  0999 V2000
   12.4852    9.2828   11.0800 Au  0  3  0  0  0  0  0  0  0  0  0  0
   11.7410    6.4085   12.2853 B   0  0  0  0  0  0  0  0  0  0  0  0
   11.3178    5.4979   13.5252 O   0  0  0  0  0  0  0  0  0  0  0  0
   12.0044    5.1530   13.8826 H   0  0  0  0  0  0  0  0  0  0  0  0
   11.0036    6.0324   14.0936 H   0  0  0  0  0  0  0  0  0  0  0  0
   10.4816    7.4063   12.0958 C   0  0  0  0  0  0  0  0  0  0  0  0
    9.4401    7.1376   11.1899 C   0  0  0  0  0  0  0  0  0  0  0  0
    9.5074    6.3756   10.6267 H   0  0  0  0  0  0  0  0  0  0  0  0
    8.3172    7.9463   11.0911 C   0  0  0  0  0  0  0  0  0  0  0  0
    7.6343    7.7422   10.4639 H   0  0  0  0  0  0  0  0  0  0  0  0
    8.1998    9.0608   11.9203 C   0  0  0  0  0  0  0  0  0  0  0  0
    7.4354    9.6223   11.8628 H   0  0  0  0  0  0  0  0  0  0  0  0
    9.2139    9.3431   12.8350 C   0  0  0  0  0  0  0  0  0  0  0  0
    9.1267   10.1038   13.3972 H   0  0  0  0  0  0  0  0  0  0  0  0
   10.3593    8.5411   12.9511 C   0  0  0  0  0  0  0  0  0  0  0  0
   11.4770    8.7785   14.1066 B   0  5  0  0  0  0  0  0  0  0  0  0
   11.0863    7.7652   15.2638 O   0  0  0  0  0  0  0  0  0  0  0  0
   10.3102    7.9285   15.5557 H   0  0  0  0  0  0  0  0  0  0  0  0
   12.9538    8.2849   13.6710 C   0  0  0  0  0  0  0  0  0  0  0  0
   14.1191    8.8683   14.2020 C   0  0  0  0  0  0  0  0  0  0  0  0
   14.0372    9.5877   14.8171 H   0  0  0  0  0  0  0  0  0  0  0  0
   15.3858    8.4218   13.8508 C   0  0  0  0  0  0  0  0  0  0  0  0
   16.1572    8.8524   14.1991 H   0  0  0  0  0  0  0  0  0  0  0  0
   15.5211    7.3383   12.9848 C   0  0  0  0  0  0  0  0  0  0  0  0
   16.3844    7.0272   12.7370 H   0  0  0  0  0  0  0  0  0  0  0  0
   14.3830    6.7170   12.4860 C   0  0  0  0  0  0  0  0  0  0  0  0
   14.4823    5.9617   11.9185 H   0  0  0  0  0  0  0  0  0  0  0  0
   13.0884    7.1704   12.7937 C   0  0  0  0  0  0  0  0  0  0  0  0
   12.0417    5.4400   11.0192 C   0  0  0  0  0  0  0  0  0  0  0  0
   12.4714    5.9159    9.7576 C   0  0  0  0  0  0  0  0  0  0  0  0
   12.8341    5.0184    8.7391 C   0  0  0  0  0  0  0  0  0  0  0  0
   13.1291    5.3573    7.9015 H   0  0  0  0  0  0  0  0  0  0  0  0
   12.7694    3.6425    8.9357 C   0  0  0  0  0  0  0  0  0  0  0  0
   13.0305    3.0452    8.2451 H   0  0  0  0  0  0  0  0  0  0  0  0
   12.3207    3.1575   10.1468 C   0  0  0  0  0  0  0  0  0  0  0  0
   12.2527    2.2208   10.2876 H   0  0  0  0  0  0  0  0  0  0  0  0
   11.9685    4.0392   11.1614 C   0  0  0  0  0  0  0  0  0  0  0  0
   11.6643    3.6817   11.9879 H   0  0  0  0  0  0  0  0  0  0  0  0
   12.5375    7.7125    9.3637 P   0  0  0  0  0  0  0  0  0  0  0  0
   11.0879    7.9534    8.2120 C   0  0  0  0  0  0  0  0  0  0  0  0
   10.3607    7.3622    8.5617 H   0  0  0  0  0  0  0  0  0  0  0  0
   11.3171    7.5189    6.7636 C   0  0  0  0  0  0  0  0  0  0  0  0
   10.5039    7.6829    6.2404 H   0  0  0  0  0  0  0  0  0  0  0  0
   11.5339    6.5638    6.7393 H   0  0  0  0  0  0  0  0  0  0  0  0
   12.0594    8.0324    6.3821 H   0  0  0  0  0  0  0  0  0  0  0  0
   10.5291    9.3764    8.2632 C   0  0  0  0  0  0  0  0  0  0  0  0
    9.7729    9.4531    7.6452 H   0  0  0  0  0  0  0  0  0  0  0  0
   11.2283   10.0119    8.0025 H   0  0  0  0  0  0  0  0  0  0  0  0
   10.2286    9.5770    9.1737 H   0  0  0  0  0  0  0  0  0  0  0  0
   14.0774    7.9065    8.3488 C   0  0  0  0  0  0  0  0  0  0  0  0
   13.9974    7.3216    7.5412 H   0  0  0  0  0  0  0  0  0  0  0  0
   14.2319    9.3527    7.8813 C   0  0  0  0  0  0  0  0  0  0  0  0
   15.0483    9.4376    7.3453 H   0  0  0  0  0  0  0  0  0  0  0  0
   14.2901    9.9442    8.6612 H   0  0  0  0  0  0  0  0  0  0  0  0
   13.4566    9.6048    7.3377 H   0  0  0  0  0  0  0  0  0  0  0  0
   15.3116    7.4665    9.1402 C   0  0  0  0  0  0  0  0  0  0  0  0
   16.1121    7.5759    8.5858 H   0  0  0  0  0  0  0  0  0  0  0  0
   15.2173    6.5247    9.3952 H   0  0  0  0  0  0  0  0  0  0  0  0
   15.3959    8.0167    9.9469 H   0  0  0  0  0  0  0  0  0  0  0  0
   11.4421   10.3012   14.6742 C   0  0  0  0  0  0  0  0  0  0  0  0
   11.7838   11.4344   13.8956 C   0  0  0  0  0  0  0  0  0  0  0  0
   11.5831   12.7319   14.3976 C   0  0  0  0  0  0  0  0  0  0  0  0
   11.7911   13.4813   13.8524 H   0  0  0  0  0  0  0  0  0  0  0  0
   11.0840   12.9374   15.6807 C   0  0  0  0  0  0  0  0  0  0  0  0
   10.9471   13.8193   16.0064 H   0  0  0  0  0  0  0  0  0  0  0  0
   10.7926   11.8516   16.4699 C   0  0  0  0  0  0  0  0  0  0  0  0
   10.4695   11.9787   17.3540 H   0  0  0  0  0  0  0  0  0  0  0  0
   10.9707   10.5634   15.9716 C   0  0  0  0  0  0  0  0  0  0  0  0
   10.7634    9.8269   16.5355 H   0  0  0  0  0  0  0  0  0  0  0  0
   12.5665   11.3033   12.2348 P   0  0  0  0  0  0  0  0  0  0  0  0
   11.7621   12.6273   11.2241 C   0  0  0  0  0  0  0  0  0  0  0  0
   11.8934   13.5046   11.6849 H   0  0  0  0  0  0  0  0  0  0  0  0
   10.2631   12.3479   11.1273 C   0  0  0  0  0  0  0  0  0  0  0  0
    9.8346   13.0487   10.5936 H   0  0  0  0  0  0  0  0  0  0  0  0
    9.8746   12.3386   12.0271 H   0  0  0  0  0  0  0  0  0  0  0  0
   10.1203   11.4781   10.7006 H   0  0  0  0  0  0  0  0  0  0  0  0
   12.3971   12.7062    9.8333 C   0  0  0  0  0  0  0  0  0  0  0  0
   11.9597   13.4126    9.3138 H   0  0  0  0  0  0  0  0  0  0  0  0
   12.2863   11.8479    9.3741 H   0  0  0  0  0  0  0  0  0  0  0  0
   13.3526   12.9089    9.9213 H   0  0  0  0  0  0  0  0  0  0  0  0
   14.3199   11.8539   12.5453 C   0  0  0  0  0  0  0  0  0  0  0  0
   14.5857   11.4588   13.4244 H   0  0  0  0  0  0  0  0  0  0  0  0
   15.2907   11.2831   11.5096 C   0  0  0  0  0  0  0  0  0  0  0  0
   16.1989   11.5932   11.7075 H   0  0  0  0  0  0  0  0  0  0  0  0
   15.0294   11.5865   10.6147 H   0  0  0  0  0  0  0  0  0  0  0  0
   15.2657   10.3037   11.5432 H   0  0  0  0  0  0  0  0  0  0  0  0
   14.5095   13.3716   12.6835 C   0  0  0  0  0  0  0  0  0  0  0  0
   15.4558   13.5689   12.8470 H   0  0  0  0  0  0  0  0  0  0  0  0
   13.9730   13.7011   13.4349 H   0  0  0  0  0  0  0  0  0  0  0  0
   14.2211   13.8139   11.8582 H   0  0  0  0  0  0  0  0  0  0  0  0
  1 39  1  0  0  0  0
  2  3  1  0  0  0  0
  3  4  1  0  0  0  0
  5  3  1  0  0  0  0
  6  2  1  0  0  0  0
  7  6  4  0  0  0  0
  8  7  1  0  0  0  0
  9  7  4  0  0  0  0
 10  9  1  0  0  0  0
 11  9  4  0  0  0  0
 12 11  1  0  0  0  0
 13 11  4  0  0  0  0
 14 13  1  0  0  0  0
 15  6  4  0  0  0  0
 16 15  1  0  0  0  0
 17 16  1  0  0  0  0
 18 17  1  0  0  0  0
 19 16  1  0  0  0  0
 20 19  4  0  0  0  0
 21 20  1  0  0  0  0
 22 20  4  0  0  0  0
 23 22  1  0  0  0  0
 24 22  4  0  0  0  0
 25 24  1  0  0  0  0
 26 24  4  0  0  0  0
 27 26  1  0  0  0  0
 28  2  1  0  0  0  0
 29  2  1  0  0  0  0
 30 29  4  0  0  0  0
 31 30  4  0  0  0  0
 32 31  1  0  0  0  0
 33 31  4  0  0  0  0
 34 33  1  0  0  0  0
 35 33  4  0  0  0  0
 36 35  1  0  0  0  0
 37 29  4  0  0  0  0
 38 37  1  0  0  0  0
 39 30  1  0  0  0  0
 40 39  1  0  0  0  0
 41 40  1  0  0  0  0
 42 40  1  0  0  0  0
 43 42  1  0  0  0  0
 44 42  1  0  0  0  0
 45 42  1  0  0  0  0
 46 40  1  0  0  0  0
 47 46  1  0  0  0  0
 48 46  1  0  0  0  0
 49 46  1  0  0  0  0
 50 39  1  0  0  0  0
 51 50  1  0  0  0  0
 52 50  1  0  0  0  0
 53 52  1  0  0  0  0
 54 52  1  0  0  0  0
 55 52  1  0  0  0  0
 56 50  1  0  0  0  0
 57 56  1  0  0  0  0
 58 56  1  0  0  0  0
 59 56  1  0  0  0  0
 60 16  1  0  0  0  0
 61 60  4  0  0  0  0
 62 61  4  0  0  0  0
 63 62  1  0  0  0  0
 64 62  4  0  0  0  0
 65 64  1  0  0  0  0
 66 64  4  0  0  0  0
 67 66  1  0  0  0  0
 68 60  4  0  0  0  0
 69 68  1  0  0  0  0
 70  1  1  0  0  0  0
 71 70  1  0  0  0  0
 72 71  1  0  0  0  0
 73 71  1  0  0  0  0
 74 73  1  0  0  0  0
 75 73  1  0  0  0  0
 76 73  1  0  0  0  0
 77 71  1  0  0  0  0
 78 77  1  0  0  0  0
 79 77  1  0  0  0  0
 80 77  1  0  0  0  0
 81 70  1  0  0  0  0
 82 81  1  0  0  0  0
 83 81  1  0  0  0  0
 84 83  1  0  0  0  0
 85 83  1  0  0  0  0
 86 83  1  0  0  0  0
 87 81  1  0  0  0  0
 88 87  1  0  0  0  0
 89 87  1  0  0  0  0
 90 87  1  0  0  0  0
 13 15  4  0  0  0  0
 19 28  4  0  0  0  0
 26 28  4  0  0  0  0
 35 37  4  0  0  0  0
 61 70  1  0  0  0  0
 66 68  4  0  0  0  0
M  CHG  2   1   1  16  -1
M  END
$$$$
ZAGBES

From CSD data. Using bond type 'Any'. No disordered atoms. Largest molecule.
 87 93  0  0  0  0  0  0  0  0999 V2000
   18.1503   12.8295    3.2378 Au  0  3  0  0  0  0  0  0  0  0  0  0
   17.1326   16.0286    4.4679 B   0  5  0  0  0  0  0  0  0  0  0  0
   16.9838   17.5470    4.5708 O   0  0  0  0  0  0  0  0  0  0  0  0
   17.5310   17.9171    4.0531 H   0  0  0  0  0  0  0  0  0  0  0  0
   16.6747   15.6210    2.9549 C   0  0  0  0  0  0  0  0  0  0  0  0
   15.3246   15.7835    2.5765 C   0  0  0  0  0  0  0  0  0  0  0  0
   14.6877   16.0108    3.2421 H   0  0  0  0  0  0  0  0  0  0  0  0
   14.8954   15.6227    1.2679 C   0  0  0  0  0  0  0  0  0  0  0  0
   13.9778   15.7385    1.0531 H   0  0  0  0  0  0  0  0  0  0  0  0
   15.8076   15.2906    0.2667 C   0  0  0  0  0  0  0  0  0  0  0  0
   15.5168   15.1818   -0.6319 H   0  0  0  0  0  0  0  0  0  0  0  0
   17.1422   15.1217    0.5982 C   0  0  0  0  0  0  0  0  0  0  0  0
   17.7656   14.9009   -0.0846 H   0  0  0  0  0  0  0  0  0  0  0  0
   17.5990   15.2712    1.9315 C   0  0  0  0  0  0  0  0  0  0  0  0
   19.1071   15.0713    2.2901 B   0  0  0  0  0  0  0  0  0  0  0  0
   19.6161   15.3284    3.7423 C   0  0  0  0  0  0  0  0  0  0  0  0
   20.9936   15.2084    4.0450 C   0  0  0  0  0  0  0  0  0  0  0  0
   21.6043   14.9831    3.3523 H   0  0  0  0  0  0  0  0  0  0  0  0
   21.4683   15.4110    5.3253 C   0  0  0  0  0  0  0  0  0  0  0  0
   22.3962   15.3274    5.5117 H   0  0  0  0  0  0  0  0  0  0  0  0
   20.5721   15.7388    6.3434 C   0  0  0  0  0  0  0  0  0  0  0  0
   20.8885   15.8635    7.2302 H   0  0  0  0  0  0  0  0  0  0  0  0
   19.2186   15.8825    6.0611 C   0  0  0  0  0  0  0  0  0  0  0  0
   18.6241   16.1204    6.7637 H   0  0  0  0  0  0  0  0  0  0  0  0
   18.7023   15.6864    4.7677 C   0  0  0  0  0  0  0  0  0  0  0  0
   16.1492   15.3940    5.6226 C   0  0  0  0  0  0  0  0  0  0  0  0
   16.0002   14.0315    5.9787 C   0  0  0  0  0  0  0  0  0  0  0  0
   15.1597   13.6477    7.0414 C   0  0  0  0  0  0  0  0  0  0  0  0
   15.0827   12.7274    7.2617 H   0  0  0  0  0  0  0  0  0  0  0  0
   14.4429   14.5827    7.7739 C   0  0  0  0  0  0  0  0  0  0  0  0
   13.8879   14.3100    8.4940 H   0  0  0  0  0  0  0  0  0  0  0  0
   14.5526   15.9210    7.4344 C   0  0  0  0  0  0  0  0  0  0  0  0
   14.0600   16.5760    7.9153 H   0  0  0  0  0  0  0  0  0  0  0  0
   15.3862   16.3038    6.3869 C   0  0  0  0  0  0  0  0  0  0  0  0
   15.4445   17.2286    6.1751 H   0  0  0  0  0  0  0  0  0  0  0  0
   16.7155   12.6158    5.0594 P   0  0  0  0  0  0  0  0  0  0  0  0
   15.2043   11.6527    4.5730 C   0  0  0  0  0  0  0  0  0  0  0  0
   14.8265   11.2322    5.3976 H   0  0  0  0  0  0  0  0  0  0  0  0
   14.1497   12.5974    3.9960 C   0  0  0  0  0  0  0  0  0  0  0  0
   14.5000   13.0220    3.1850 H   0  0  0  0  0  0  0  0  0  0  0  0
   13.9329   13.2875    4.6574 H   0  0  0  0  0  0  0  0  0  0  0  0
   13.3404   12.0886    3.7775 H   0  0  0  0  0  0  0  0  0  0  0  0
   15.4894   10.5384    3.5570 C   0  0  0  0  0  0  0  0  0  0  0  0
   14.6740   10.0144    3.4094 H   0  0  0  0  0  0  0  0  0  0  0  0
   16.1954    9.9545    3.9035 H   0  0  0  0  0  0  0  0  0  0  0  0
   15.7788   10.9359    2.7086 H   0  0  0  0  0  0  0  0  0  0  0  0
   17.5871   11.6402    6.3741 C   0  0  0  0  0  0  0  0  0  0  0  0
   17.0206   11.6741    7.1987 H   0  0  0  0  0  0  0  0  0  0  0  0
   18.9137   12.3208    6.7005 C   0  0  0  0  0  0  0  0  0  0  0  0
   19.3163   11.8916    7.4842 H   0  0  0  0  0  0  0  0  0  0  0  0
   18.7551   13.2687    6.8916 H   0  0  0  0  0  0  0  0  0  0  0  0
   19.5197   12.2393    5.9350 H   0  0  0  0  0  0  0  0  0  0  0  0
   17.8038   10.1674    6.0273 C   0  0  0  0  0  0  0  0  0  0  0  0
   18.2975   10.1001    5.1830 H   0  0  0  0  0  0  0  0  0  0  0  0
   16.9345    9.7233    5.9350 H   0  0  0  0  0  0  0  0  0  0  0  0
   18.3171    9.7353    6.7420 H   0  0  0  0  0  0  0  0  0  0  0  0
   20.1455   14.7481    1.1336 C   0  0  0  0  0  0  0  0  0  0  0  0
   20.4182   13.4379    0.6998 C   0  0  0  0  0  0  0  0  0  0  0  0
   21.3013   13.2029   -0.3648 C   0  0  0  0  0  0  0  0  0  0  0  0
   21.4615   12.3147   -0.6594 H   0  0  0  0  0  0  0  0  0  0  0  0
   21.9424   14.2655   -0.9872 C   0  0  0  0  0  0  0  0  0  0  0  0
   22.5468   14.1028   -1.7027 H   0  0  0  0  0  0  0  0  0  0  0  0
   21.6991   15.5674   -0.5624 C   0  0  0  0  0  0  0  0  0  0  0  0
   22.1420   16.2951   -0.9823 H   0  0  0  0  0  0  0  0  0  0  0  0
   20.8080   15.7996    0.4766 C   0  0  0  0  0  0  0  0  0  0  0  0
   20.6422   16.6942    0.7520 H   0  0  0  0  0  0  0  0  0  0  0  0
   19.6075   12.0867    1.6025 P   0  0  0  0  0  0  0  0  0  0  0  0
   18.7848   11.0181    0.3463 C   0  0  0  0  0  0  0  0  0  0  0  0
   19.4337   10.8417   -0.3937 H   0  0  0  0  0  0  0  0  0  0  0  0
   17.5619   11.7203   -0.2386 C   0  0  0  0  0  0  0  0  0  0  0  0
   17.1751   11.1654   -0.9488 H   0  0  0  0  0  0  0  0  0  0  0  0
   17.8302   12.5870   -0.6102 H   0  0  0  0  0  0  0  0  0  0  0  0
   16.8954   11.8591    0.4665 H   0  0  0  0  0  0  0  0  0  0  0  0
   18.3814    9.6770    0.9665 C   0  0  0  0  0  0  0  0  0  0  0  0
   17.8810    9.8363    1.7933 H   0  0  0  0  0  0  0  0  0  0  0  0
   19.1853    9.1546    1.1673 H   0  0  0  0  0  0  0  0  0  0  0  0
   17.8204    9.1803    0.3346 H   0  0  0  0  0  0  0  0  0  0  0  0
   20.9085   11.0356    2.3754 C   0  0  0  0  0  0  0  0  0  0  0  0
   20.4388   10.2731    2.8189 H   0  0  0  0  0  0  0  0  0  0  0  0
   21.6439   11.7961    3.4720 C   0  0  0  0  0  0  0  0  0  0  0  0
   22.2183   11.1774    3.9685 H   0  0  0  0  0  0  0  0  0  0  0  0
   20.9922   12.1999    4.0826 H   0  0  0  0  0  0  0  0  0  0  0  0
   22.1929   12.4996    3.0689 H   0  0  0  0  0  0  0  0  0  0  0  0
   21.9119   10.4245    1.3868 C   0  0  0  0  0  0  0  0  0  0  0  0
   22.5312   11.1192    1.0787 H   0  0  0  0  0  0  0  0  0  0  0  0
   21.4283   10.0521    0.6201 H   0  0  0  0  0  0  0  0  0  0  0  0
   22.4158    9.7113    1.8327 H   0  0  0  0  0  0  0  0  0  0  0  0
  1 15  1  0  0  0  0
  2  3  1  0  0  0  0
  3  4  1  0  0  0  0
  5  2  1  0  0  0  0
  6  5  4  0  0  0  0
  7  6  1  0  0  0  0
  8  6  4  0  0  0  0
  9  8  1  0  0  0  0
 10  8  4  0  0  0  0
 11 10  1  0  0  0  0
 12 10  4  0  0  0  0
 13 12  1  0  0  0  0
 14  5  4  0  0  0  0
 15 14  1  0  0  0  0
 16 15  1  0  0  0  0
 17 16  4  0  0  0  0
 18 17  1  0  0  0  0
 19 17  4  0  0  0  0
 20 19  1  0  0  0  0
 21 19  4  0  0  0  0
 22 21  1  0  0  0  0
 23 21  4  0  0  0  0
 24 23  1  0  0  0  0
 25  2  1  0  0  0  0
 26  2  1  0  0  0  0
 27 26  4  0  0  0  0
 28 27  4  0  0  0  0
 29 28  1  0  0  0  0
 30 28  4  0  0  0  0
 31 30  1  0  0  0  0
 32 30  4  0  0  0  0
 33 32  1  0  0  0  0
 34 26  4  0  0  0  0
 35 34  1  0  0  0  0
 36  1  1  0  0  0  0
 37 36  1  0  0  0  0
 38 37  1  0  0  0  0
 39 37  1  0  0  0  0
 40 39  1  0  0  0  0
 41 39  1  0  0  0  0
 42 39  1  0  0  0  0
 43 37  1  0  0  0  0
 44 43  1  0  0  0  0
 45 43  1  0  0  0  0
 46 43  1  0  0  0  0
 47 36  1  0  0  0  0
 48 47  1  0  0  0  0
 49 47  1  0  0  0  0
 50 49  1  0  0  0  0
 51 49  1  0  0  0  0
 52 49  1  0  0  0  0
 53 47  1  0  0  0  0
 54 53  1  0  0  0  0
 55 53  1  0  0  0  0
 56 53  1  0  0  0  0
 57 15  1  0  0  0  0
 58 57  4  0  0  0  0
 59 58  4  0  0  0  0
 60 59  1  0  0  0  0
 61 59  4  0  0  0  0
 62 61  1  0  0  0  0
 63 61  4  0  0  0  0
 64 63  1  0  0  0  0
 65 57  4  0  0  0  0
 66 65  1  0  0  0  0
 67  1  1  0  0  0  0
 68 67  1  0  0  0  0
 69 68  1  0  0  0  0
 70 68  1  0  0  0  0
 71 70  1  0  0  0  0
 72 70  1  0  0  0  0
 73 70  1  0  0  0  0
 74 68  1  0  0  0  0
 75 74  1  0  0  0  0
 76 74  1  0  0  0  0
 77 74  1  0  0  0  0
 78 67  1  0  0  0  0
 79 78  1  0  0  0  0
 80 78  1  0  0  0  0
 81 80  1  0  0  0  0
 82 80  1  0  0  0  0
 83 80  1  0  0  0  0
 84 78  1  0  0  0  0
 85 84  1  0  0  0  0
 86 84  1  0  0  0  0
 87 84  1  0  0  0  0
 12 14  4  0  0  0  0
 16 25  4  0  0  0  0
 23 25  4  0  0  0  0
 27 36  1  0  0  0  0
 32 34  4  0  0  0  0
 58 67  1  0  0  0  0
 63 65  4  0  0  0  0
M  CHG  2   1   1   2  -1
M  END
$$$$
ZARDIJ

From CSD data. Using bond type 'Any'. No disordered atoms. Largest molecule.
 93114  0  0  0  0  0  0  0  0999 V2000
    4.6619   13.4916   20.9537 C   0  0  0  0  0  0  0  0  0  0  0  0
    3.3197   13.3885   21.3031 C   0  0  0  0  0  0  0  0  0  0  0  0
    2.6924   13.0599   20.6692 H   0  0  0  0  0  0  0  0  0  0  0  0
    2.8891   13.7614   22.5698 C   0  0  0  0  0  0  0  0  0  0  0  0
    1.9699   13.6786   22.7963 H   0  0  0  0  0  0  0  0  0  0  0  0
    3.7780   14.2493   23.5008 C   0  0  0  0  0  0  0  0  0  0  0  0
    3.4790   14.4850   24.3718 H   0  0  0  0  0  0  0  0  0  0  0  0
    5.1084   14.3927   23.1604 C   0  0  0  0  0  0  0  0  0  0  0  0
    5.7242   14.7456   23.7911 H   0  0  0  0  0  0  0  0  0  0  0  0
    5.5465   14.0213   21.8975 C   0  0  0  0  0  0  0  0  0  0  0  0
    6.4628   14.1286   21.6709 H   0  0  0  0  0  0  0  0  0  0  0  0
    4.0143   12.8444   18.1625 C   0  0  0  0  0  0  0  0  0  0  0  0
    2.9561   11.9805   18.4466 C   0  0  0  0  0  0  0  0  0  0  0  0
    2.9412   11.5079   19.2692 H   0  0  0  0  0  0  0  0  0  0  0  0
    1.9228   11.8072   17.5334 C   0  0  0  0  0  0  0  0  0  0  0  0
    1.1863   11.2477   17.7499 H   0  0  0  0  0  0  0  0  0  0  0  0
    1.9650   12.4521   16.3029 C   0  0  0  0  0  0  0  0  0  0  0  0
    1.2583   12.3317   15.6792 H   0  0  0  0  0  0  0  0  0  0  0  0
    3.0342   13.2700   15.9830 C   0  0  0  0  0  0  0  0  0  0  0  0
    3.0728   13.6883   15.1300 H   0  0  0  0  0  0  0  0  0  0  0  0
    4.0515   13.4804   16.9088 C   0  0  0  0  0  0  0  0  0  0  0  0
    4.7744   14.0563   16.6921 H   0  0  0  0  0  0  0  0  0  0  0  0
    5.9633   14.7608   18.8405 C   0  0  0  0  0  0  0  0  0  0  0  0
    7.2702   15.0663   18.4607 C   0  0  0  0  0  0  0  0  0  0  0  0
    7.9218   14.3778   18.4004 H   0  0  0  0  0  0  0  0  0  0  0  0
    7.6178   16.3871   18.1677 C   0  0  0  0  0  0  0  0  0  0  0  0
    8.5129   16.5981   17.9323 H   0  0  0  0  0  0  0  0  0  0  0  0
    6.6668   17.3929   18.2183 C   0  0  0  0  0  0  0  0  0  0  0  0
    6.9104   18.2886   18.0155 H   0  0  0  0  0  0  0  0  0  0  0  0
    5.3474   17.0892   18.5683 C   0  0  0  0  0  0  0  0  0  0  0  0
    4.6891   17.7746   18.5872 H   0  0  0  0  0  0  0  0  0  0  0  0
    5.0018   15.7878   18.8850 C   0  0  0  0  0  0  0  0  0  0  0  0
    4.1083   15.5848   19.1342 H   0  0  0  0  0  0  0  0  0  0  0  0
    6.9849    7.9560   19.4437 C   0  0  0  0  0  0  0  0  0  0  0  0
    6.4484    6.9747   20.2749 C   0  0  0  0  0  0  0  0  0  0  0  0
    5.5932    7.1055   20.6692 H   0  0  0  0  0  0  0  0  0  0  0  0
    7.1608    5.7980   20.5317 C   0  0  0  0  0  0  0  0  0  0  0  0
    6.7825    5.1319   21.0946 H   0  0  0  0  0  0  0  0  0  0  0  0
    8.4102    5.5955   19.9722 C   0  0  0  0  0  0  0  0  0  0  0  0
    8.8915    4.7960   20.1516 H   0  0  0  0  0  0  0  0  0  0  0  0
    8.9583    6.5743   19.1432 C   0  0  0  0  0  0  0  0  0  0  0  0
    9.8147    6.4397   18.7561 H   0  0  0  0  0  0  0  0  0  0  0  0
    8.2573    7.7484   18.8807 C   0  0  0  0  0  0  0  0  0  0  0  0
    8.6399    8.4116   18.3194 H   0  0  0  0  0  0  0  0  0  0  0  0
    5.8238    9.2108   17.1866 C   0  0  0  0  0  0  0  0  0  0  0  0
    5.4082   10.2720   16.3740 C   0  0  0  0  0  0  0  0  0  0  0  0
    5.3181   11.1381   16.7528 H   0  0  0  0  0  0  0  0  0  0  0  0
    5.1248   10.0889   15.0330 C   0  0  0  0  0  0  0  0  0  0  0  0
    4.8312   10.8211   14.5020 H   0  0  0  0  0  0  0  0  0  0  0  0
    5.2716    8.8311   14.4651 C   0  0  0  0  0  0  0  0  0  0  0  0
    5.1024    8.7054   13.5387 H   0  0  0  0  0  0  0  0  0  0  0  0
    5.6640    7.7579   15.2513 C   0  0  0  0  0  0  0  0  0  0  0  0
    5.7476    6.8946   14.8644 H   0  0  0  0  0  0  0  0  0  0  0  0
    5.9371    7.9401   16.6025 C   0  0  0  0  0  0  0  0  0  0  0  0
    6.2022    7.1994   17.1332 H   0  0  0  0  0  0  0  0  0  0  0  0
    4.4064    9.2150   19.6640 C   0  0  0  0  0  0  0  0  0  0  0  0
    4.1506    9.5254   21.0053 C   0  0  0  0  0  0  0  0  0  0  0  0
    4.8450    9.8762   21.5493 H   0  0  0  0  0  0  0  0  0  0  0  0
    2.8869    9.3231   21.5419 C   0  0  0  0  0  0  0  0  0  0  0  0
    2.7250    9.5200   22.4564 H   0  0  0  0  0  0  0  0  0  0  0  0
    1.8587    8.8354   20.7496 C   0  0  0  0  0  0  0  0  0  0  0  0
    0.9931    8.7054   21.1172 H   0  0  0  0  0  0  0  0  0  0  0  0
    2.1004    8.5398   19.4214 C   0  0  0  0  0  0  0  0  0  0  0  0
    1.3946    8.2129   18.8753 H   0  0  0  0  0  0  0  0  0  0  0  0
    3.3686    8.7160   18.8744 C   0  0  0  0  0  0  0  0  0  0  0  0
    3.5272    8.4976   17.9638 H   0  0  0  0  0  0  0  0  0  0  0  0
    7.7375   11.7057   17.7859 C   0  0  0  0  0  0  0  0  0  0  0  0
    8.1636   11.7991   16.7263 O   0  0  0  0  0  0  0  0  0  0  0  0
   10.3247   11.7367   21.1408 B   0  0  0  0  0  0  0  0  0  0  0  0
    9.1585   10.6563   20.3654 B   0  0  0  0  0  0  0  0  0  0  0  0
    9.4185   10.5477   22.1203 B   0  0  0  0  0  0  0  0  0  0  0  0
   10.0054   12.0686   22.8699 B   0  0  0  0  0  0  0  0  0  0  0  0
    9.2709   12.4121   19.9393 B   0  0  0  0  0  0  0  0  0  0  0  0
    7.7727   10.4186   21.5295 B   0  0  0  0  0  0  0  0  0  0  0  0
    8.3627   11.4501   23.1767 B   0  0  0  0  0  0  0  0  0  0  0  0
    8.7094   13.1910   23.0227 B   0  0  0  0  0  0  0  0  0  0  0  0
    9.8217   13.3410   21.6256 B   0  0  0  0  0  0  0  0  0  0  0  0
    5.4065   13.0674   19.3262 P   0  0  0  0  0  0  0  0  0  0  0  0
    6.0789    9.4842   18.9829 P   0  0  0  0  0  0  0  0  0  0  0  0
    7.1825   11.5117   19.5641 Ru  0  0  0  0  0  0  0  0  0  0  0  0
   11.3577   11.6712   20.8673 H   0  0  0  0  0  0  0  0  0  0  0  0
    9.6435    9.9086   19.8004 H   0  0  0  0  0  0  0  0  0  0  0  0
    9.8426    9.6205   22.5442 H   0  0  0  0  0  0  0  0  0  0  0  0
   10.8449   12.0166   23.5548 H   0  0  0  0  0  0  0  0  0  0  0  0
    9.7735   12.8592   19.0509 H   0  0  0  0  0  0  0  0  0  0  0  0
    7.3033    9.5106   21.7811 H   0  0  0  0  0  0  0  0  0  0  0  0
    7.9775   11.0997   24.0995 H   0  0  0  0  0  0  0  0  0  0  0  0
    8.5093   13.9569   23.7349 H   0  0  0  0  0  0  0  0  0  0  0  0
   10.4274   14.1996   21.4953 H   0  0  0  0  0  0  0  0  0  0  0  0
    8.1032   12.7466   20.0548 H   0  0  0  0  0  0  0  0  0  0  0  0
    6.8559   11.2797   21.2815 H   0  0  0  0  0  0  0  0  0  0  0  0
    7.7015   12.4357   22.8458 H   0  0  0  0  0  0  0  0  0  0  0  0
    8.7107   13.7002   21.8532 H   0  0  0  0  0  0  0  0  0  0  0  0
  1  2  4  0  0  0  0
  2  3  1  0  0  0  0
  4  2  4  0  0  0  0
  5  4  1  0  0  0  0
  6  4  4  0  0  0  0
  7  6  1  0  0  0  0
  8  6  4  0  0  0  0
  9  8  1  0  0  0  0
 10  1  4  0  0  0  0
 11 10  1  0  0  0  0
 12 13  4  0  0  0  0
 13 14  1  0  0  0  0
 15 13  4  0  0  0  0
 16 15  1  0  0  0  0
 17 15  4  0  0  0  0
 18 17  1  0  0  0  0
 19 17  4  0  0  0  0
 20 19  1  0  0  0  0
 21 12  4  0  0  0  0
 22 21  1  0  0  0  0
 23 24  4  0  0  0  0
 24 25  1  0  0  0  0
 26 24  4  0  0  0  0
 27 26  1  0  0  0  0
 28 26  4  0  0  0  0
 29 28  1  0  0  0  0
 30 28  4  0  0  0  0
 31 30  1  0  0  0  0
 32 23  4  0  0  0  0
 33 32  1  0  0  0  0
 34 35  4  0  0  0  0
 35 36  1  0  0  0  0
 37 35  4  0  0  0  0
 38 37  1  0  0  0  0
 39 37  4  0  0  0  0
 40 39  1  0  0  0  0
 41 39  4  0  0  0  0
 42 41  1  0  0  0  0
 43 34  4  0  0  0  0
 44 43  1  0  0  0  0
 45 46  4  0  0  0  0
 46 47  1  0  0  0  0
 48 46  4  0  0  0  0
 49 48  1  0  0  0  0
 50 48  4  0  0  0  0
 51 50  1  0  0  0  0
 52 50  4  0  0  0  0
 53 52  1  0  0  0  0
 54 45  4  0  0  0  0
 55 54  1  0  0  0  0
 56 57  4  0  0  0  0
 57 58  1  0  0  0  0
 59 57  4  0  0  0  0
 60 59  1  0  0  0  0
 61 59  4  0  0  0  0
 62 61  1  0  0  0  0
 63 61  4  0  0  0  0
 64 63  1  0  0  0  0
 65 56  4  0  0  0  0
 66 65  1  0  0  0  0
 67 68  3  0  0  0  0
 69 70  1  0  0  0  0
 70 71  1  0  0  0  0
 71 69  1  0  0  0  0
 72 69  1  0  0  0  0
 73 69  1  0  0  0  0
 74 70  1  0  0  0  0
 75 71  1  0  0  0  0
 76 72  1  0  0  0  0
 77 69  1  0  0  0  0
 78  1  1  0  0  0  0
 79 34  1  0  0  0  0
 80 67  1  0  0  0  0
 81 69  1  0  0  0  0
 82 70  1  0  0  0  0
 83 71  1  0  0  0  0
 84 72  1  0  0  0  0
 85 73  1  0  0  0  0
 86 74  1  0  0  0  0
 87 75  1  0  0  0  0
 88 76  1  0  0  0  0
 89 77  1  0  0  0  0
 90 73  1  0  0  0  0
 91 74  1  0  0  0  0
 92 75  1  0  0  0  0
 93 76  1  0  0  0  0
  8 10  4  0  0  0  0
 12 78  1  0  0  0  0
 19 21  4  0  0  0  0
 23 78  1  0  0  0  0
 30 32  4  0  0  0  0
 41 43  4  0  0  0  0
 45 79  1  0  0  0  0
 52 54  4  0  0  0  0
 56 79  1  0  0  0  0
 63 65  4  0  0  0  0
 70 73  1  0  0  0  0
 70 80  1  0  0  0  0
 71 72  1  0  0  0  0
 71 74  1  0  0  0  0
 72 75  1  0  0  0  0
 72 77  1  0  0  0  0
 73 77  1  0  0  0  0
 73 80  1  0  0  0  0
 74 75  1  0  0  0  0
 74 80  1  0  0  0  0
 75 76  1  0  0  0  0
 76 77  1  0  0  0  0
 76 92  1  0  0  0  0
 77 93  1  0  0  0  0
 78 80  1  0  0  0  0
 79 80  1  0  0  0  0
 80 90  1  0  0  0  0
 80 91  1  0  0  0  0
M  END
$$$$
ZARFOR

From CSD data. Using bond type 'Any'. No disordered atoms. Largest molecule.
 96117  0  0  0  0  0  0  0  0999 V2000
    6.8324    8.5729    4.5222 Pt  0  0  0  0  0  0  0  0  0  0  0  0
    9.3709    7.1433    4.4192 Ru  0  0  0  0  0  0  0  0  0  0  0  0
    7.7970    7.7471    3.4658 H   0  0  0  0  0  0  0  0  0  0  0  0
    8.3644    8.3128    5.8312 B   0  0  0  0  0  0  0  0  0  0  0  0
    9.7516    5.7033    6.0153 B   0  0  0  0  0  0  0  0  0  0  0  0
    9.6899    4.5021    5.9032 H   0  0  0  0  0  0  0  0  0  0  0  0
   11.2041    8.1395    5.0866 B   0  0  0  0  0  0  0  0  0  0  0  0
   12.0514    8.5796    4.4839 H   0  0  0  0  0  0  0  0  0  0  0  0
    8.5435    6.7702    6.6539 B   0  0  0  0  0  0  0  0  0  0  0  0
    7.6610    6.3030    6.9830 H   0  0  0  0  0  0  0  0  0  0  0  0
   11.2176    6.6139    5.8980 B   0  0  0  0  0  0  0  0  0  0  0  0
   12.1366    6.0312    5.7695 H   0  0  0  0  0  0  0  0  0  0  0  0
    9.9285    9.0824    5.7859 B   0  0  0  0  0  0  0  0  0  0  0  0
    9.9191   10.1086    5.5638 H   0  0  0  0  0  0  0  0  0  0  0  0
    9.3127    8.2771    7.2802 B   0  0  0  0  0  0  0  0  0  0  0  0
    8.9496    8.7494    8.2069 H   0  0  0  0  0  0  0  0  0  0  0  0
   10.1761    6.6954    7.3841 B   0  0  0  0  0  0  0  0  0  0  0  0
   10.4879    6.3030    8.3920 H   0  0  0  0  0  0  0  0  0  0  0  0
   11.0489    8.1667    6.8267 B   0  0  0  0  0  0  0  0  0  0  0  0
   11.8338    8.5456    7.4355 H   0  0  0  0  0  0  0  0  0  0  0  0
    8.7341    5.4756    3.6355 C   0  0  0  0  0  0  0  0  0  0  0  0
    8.3031    4.5241    3.1902 O   0  0  0  0  0  0  0  0  0  0  0  0
    5.2725    8.3811    2.7889 P   0  0  0  0  0  0  0  0  0  0  0  0
    5.3100    9.7042    1.5396 C   0  0  0  0  0  0  0  0  0  0  0  0
    4.5588    9.6601    0.3620 C   0  0  0  0  0  0  0  0  0  0  0  0
    4.0085    8.9052    0.1857 H   0  0  0  0  0  0  0  0  0  0  0  0
    4.6056   10.6964   -0.5461 C   0  0  0  0  0  0  0  0  0  0  0  0
    4.0908   10.6546   -1.3440 H   0  0  0  0  0  0  0  0  0  0  0  0
    5.4051   11.8024   -0.2931 C   0  0  0  0  0  0  0  0  0  0  0  0
    5.4365   12.5182   -0.9174 H   0  0  0  0  0  0  0  0  0  0  0  0
    6.1521   11.8619    0.8587 C   0  0  0  0  0  0  0  0  0  0  0  0
    6.6948   12.6233    1.0285 H   0  0  0  0  0  0  0  0  0  0  0  0
    6.1201   10.8204    1.7761 C   0  0  0  0  0  0  0  0  0  0  0  0
    6.6486   10.8660    2.5642 H   0  0  0  0  0  0  0  0  0  0  0  0
    3.5076    8.3009    3.2416 C   0  0  0  0  0  0  0  0  0  0  0  0
    3.3747    7.6025    3.9154 H   0  0  0  0  0  0  0  0  0  0  0  0
    2.9757    8.0926    2.4452 H   0  0  0  0  0  0  0  0  0  0  0  0
    3.2247    9.1655    3.6062 H   0  0  0  0  0  0  0  0  0  0  0  0
    5.4802    6.8365    1.8460 C   0  0  0  0  0  0  0  0  0  0  0  0
    6.3971    6.7819    1.5044 H   0  0  0  0  0  0  0  0  0  0  0  0
    4.8506    6.8243    1.0947 H   0  0  0  0  0  0  0  0  0  0  0  0
    5.3040    6.0696    2.4311 H   0  0  0  0  0  0  0  0  0  0  0  0
    5.7898    9.7324    6.1341 P   0  0  0  0  0  0  0  0  0  0  0  0
    4.2571   10.6200    5.7037 C   0  0  0  0  0  0  0  0  0  0  0  0
    3.0116   10.3125    6.2436 C   0  0  0  0  0  0  0  0  0  0  0  0
    2.9289    9.5935    6.8591 H   0  0  0  0  0  0  0  0  0  0  0  0
    1.8883   11.0481    5.8878 C   0  0  0  0  0  0  0  0  0  0  0  0
    1.0442   10.8369    6.2673 H   0  0  0  0  0  0  0  0  0  0  0  0
    1.9963   12.0878    4.9838 C   0  0  0  0  0  0  0  0  0  0  0  0
    1.2230   12.5787    4.7319 H   0  0  0  0  0  0  0  0  0  0  0  0
    3.2264   12.4123    4.4469 C   0  0  0  0  0  0  0  0  0  0  0  0
    3.3036   13.1431    3.8440 H   0  0  0  0  0  0  0  0  0  0  0  0
    4.3523   11.6733    4.7863 C   0  0  0  0  0  0  0  0  0  0  0  0
    5.1912   11.8838    4.3941 H   0  0  0  0  0  0  0  0  0  0  0  0
    6.7994   11.0702    6.8483 C   0  0  0  0  0  0  0  0  0  0  0  0
    7.5988   10.6887    7.2666 H   0  0  0  0  0  0  0  0  0  0  0  0
    6.2749   11.5506    7.5227 H   0  0  0  0  0  0  0  0  0  0  0  0
    7.0664   11.6919    6.1391 H   0  0  0  0  0  0  0  0  0  0  0  0
    5.3641    8.7240    7.5703 C   0  0  0  0  0  0  0  0  0  0  0  0
    4.7676    7.9979    7.2945 H   0  0  0  0  0  0  0  0  0  0  0  0
    4.9126    9.2822    8.2383 H   0  0  0  0  0  0  0  0  0  0  0  0
    6.1811    8.3474    7.9585 H   0  0  0  0  0  0  0  0  0  0  0  0
   10.3687    7.6750    2.2831 P   0  0  0  0  0  0  0  0  0  0  0  0
   11.8064    6.6564    1.7926 C   0  0  0  0  0  0  0  0  0  0  0  0
   12.4355    5.8307    2.7027 C   0  0  0  0  0  0  0  0  0  0  0  0
   12.1353    5.8085    3.6037 H   0  0  0  0  0  0  0  0  0  0  0  0
   13.5055    5.0271    2.3119 C   0  0  0  0  0  0  0  0  0  0  0  0
   13.9403    4.4722    2.9486 H   0  0  0  0  0  0  0  0  0  0  0  0
   13.9312    5.0373    1.0048 C   0  0  0  0  0  0  0  0  0  0  0  0
   14.6530    4.4823    0.7358 H   0  0  0  0  0  0  0  0  0  0  0  0
   13.3066    5.8596    0.0792 C   0  0  0  0  0  0  0  0  0  0  0  0
   13.6087    5.8735   -0.8211 H   0  0  0  0  0  0  0  0  0  0  0  0
   12.2488    6.6547    0.4638 C   0  0  0  0  0  0  0  0  0  0  0  0
   11.8162    7.2073   -0.1775 H   0  0  0  0  0  0  0  0  0  0  0  0
   10.8890    9.4086    2.0589 C   0  0  0  0  0  0  0  0  0  0  0  0
   12.0568    9.7756    1.3976 C   0  0  0  0  0  0  0  0  0  0  0  0
   12.6246    9.1017    1.0402 H   0  0  0  0  0  0  0  0  0  0  0  0
   12.4014   11.1041    1.2526 C   0  0  0  0  0  0  0  0  0  0  0  0
   13.2070   11.3403    0.8069 H   0  0  0  0  0  0  0  0  0  0  0  0
   11.5736   12.0980    1.7576 C   0  0  0  0  0  0  0  0  0  0  0  0
   11.8047   13.0131    1.6540 H   0  0  0  0  0  0  0  0  0  0  0  0
   10.4179   11.7412    2.4086 C   0  0  0  0  0  0  0  0  0  0  0  0
    9.8497   12.4208    2.7529 H   0  0  0  0  0  0  0  0  0  0  0  0
   10.0651   10.4144    2.5721 C   0  0  0  0  0  0  0  0  0  0  0  0
    9.2657   10.1873    3.0314 H   0  0  0  0  0  0  0  0  0  0  0  0
    9.2426    7.3835    0.8608 C   0  0  0  0  0  0  0  0  0  0  0  0
    8.4823    8.4131    0.3260 C   0  0  0  0  0  0  0  0  0  0  0  0
    8.5569    9.2909    0.6818 H   0  0  0  0  0  0  0  0  0  0  0  0
    7.6099    8.1650   -0.7302 C   0  0  0  0  0  0  0  0  0  0  0  0
    7.0851    8.8722   -1.0867 H   0  0  0  0  0  0  0  0  0  0  0  0
    7.5043    6.8959   -1.2619 C   0  0  0  0  0  0  0  0  0  0  0  0
    6.9174    6.7324   -1.9910 H   0  0  0  0  0  0  0  0  0  0  0  0
    8.2541    5.8613   -0.7292 C   0  0  0  0  0  0  0  0  0  0  0  0
    8.1803    4.9842   -1.0885 H   0  0  0  0  0  0  0  0  0  0  0  0
    9.1157    6.1076    0.3301 C   0  0  0  0  0  0  0  0  0  0  0  0
    9.6252    5.3955    0.6972 H   0  0  0  0  0  0  0  0  0  0  0  0
  1  2  1  0  0  0  0
  2  3  1  0  0  0  0
  3  1  1  0  0  0  0
  4  1  1  0  0  0  0
  5  2  8  0  0  0  0
  6  5  1  0  0  0  0
  7  2  8  0  0  0  0
  8  7  1  0  0  0  0
  9  2  8  0  0  0  0
 10  9  1  0  0  0  0
 11  2  8  0  0  0  0
 12 11  1  0  0  0  0
 13  2  8  0  0  0  0
 14 13  1  0  0  0  0
 15  4  1  0  0  0  0
 16 15  1  0  0  0  0
 17  5  1  0  0  0  0
 18 17  1  0  0  0  0
 19  7  1  0  0  0  0
 20 19  1  0  0  0  0
 21  2  1  0  0  0  0
 22 21  3  0  0  0  0
 23  1  1  0  0  0  0
 24 23  1  0  0  0  0
 25 24  4  0  0  0  0
 26 25  1  0  0  0  0
 27 25  4  0  0  0  0
 28 27  1  0  0  0  0
 29 27  4  0  0  0  0
 30 29  1  0  0  0  0
 31 29  4  0  0  0  0
 32 31  1  0  0  0  0
 33 24  4  0  0  0  0
 34 33  1  0  0  0  0
 35 23  1  0  0  0  0
 36 35  1  0  0  0  0
 37 35  1  0  0  0  0
 38 35  1  0  0  0  0
 39 23  1  0  0  0  0
 40 39  1  0  0  0  0
 41 39  1  0  0  0  0
 42 39  1  0  0  0  0
 43  1  1  0  0  0  0
 44 43  1  0  0  0  0
 45 44  4  0  0  0  0
 46 45  1  0  0  0  0
 47 45  4  0  0  0  0
 48 47  1  0  0  0  0
 49 47  4  0  0  0  0
 50 49  1  0  0  0  0
 51 49  4  0  0  0  0
 52 51  1  0  0  0  0
 53 44  4  0  0  0  0
 54 53  1  0  0  0  0
 55 43  1  0  0  0  0
 56 55  1  0  0  0  0
 57 55  1  0  0  0  0
 58 55  1  0  0  0  0
 59 43  1  0  0  0  0
 60 59  1  0  0  0  0
 61 59  1  0  0  0  0
 62 59  1  0  0  0  0
 63  2  1  0  0  0  0
 64 63  1  0  0  0  0
 65 64  4  0  0  0  0
 66 65  1  0  0  0  0
 67 65  4  0  0  0  0
 68 67  1  0  0  0  0
 69 67  4  0  0  0  0
 70 69  1  0  0  0  0
 71 69  4  0  0  0  0
 72 71  1  0  0  0  0
 73 64  4  0  0  0  0
 74 73  1  0  0  0  0
 75 63  1  0  0  0  0
 76 75  4  0  0  0  0
 77 76  1  0  0  0  0
 78 76  4  0  0  0  0
 79 78  1  0  0  0  0
 80 78  4  0  0  0  0
 81 80  1  0  0  0  0
 82 80  4  0  0  0  0
 83 82  1  0  0  0  0
 84 75  4  0  0  0  0
 85 84  1  0  0  0  0
 86 63  1  0  0  0  0
 87 86  4  0  0  0  0
 88 87  1  0  0  0  0
 89 87  4  0  0  0  0
 90 89  1  0  0  0  0
 91 89  4  0  0  0  0
 92 91  1  0  0  0  0
 93 91  4  0  0  0  0
 94 93  1  0  0  0  0
 95 86  4  0  0  0  0
 96 95  1  0  0  0  0
  2  4  8  0  0  0  0
  4  9  1  0  0  0  0
  4 13  1  0  0  0  0
  5  9  1  0  0  0  0
  5 11  1  0  0  0  0
  7 11  1  0  0  0  0
  7 13  1  0  0  0  0
  9 15  1  0  0  0  0
  9 17  1  0  0  0  0
 11 17  1  0  0  0  0
 11 19  1  0  0  0  0
 13 15  1  0  0  0  0
 13 19  1  0  0  0  0
 15 17  1  0  0  0  0
 15 19  1  0  0  0  0
 17 19  1  0  0  0  0
 31 33  4  0  0  0  0
 51 53  4  0  0  0  0
 71 73  4  0  0  0  0
 82 84  4  0  0  0  0
 93 95  4  0  0  0  0
M  END
$$$$
ZARHEJ

From CSD data. Using bond type 'Any'. No disordered atoms. Largest molecule.
132156  0  0  0  0  0  0  0  0999 V2000
    3.1633   12.4851    4.1243 B   0  0  0  0  0  0  0  0  0  0  0  0
    2.3565   12.9628    3.5959 H   0  0  0  0  0  0  0  0  0  0  0  0
    4.6481   13.3550    4.4033 B   0  0  0  0  0  0  0  0  0  0  0  0
    4.7932   14.3724    3.9762 H   0  0  0  0  0  0  0  0  0  0  0  0
    3.5508   13.0524    5.7485 B   0  0  0  0  0  0  0  0  0  0  0  0
    3.0185   13.8406    6.2619 H   0  0  0  0  0  0  0  0  0  0  0  0
    2.8319   11.4292    5.5134 B   0  0  0  0  0  0  0  0  0  0  0  0
    1.7980   11.3658    5.8838 H   0  0  0  0  0  0  0  0  0  0  0  0
    5.2934   12.9228    6.0131 B   0  0  0  0  0  0  0  0  0  0  0  0
    5.7970   13.5559    6.7204 H   0  0  0  0  0  0  0  0  0  0  0  0
    4.5995   11.8659    3.2926 B   0  0  0  0  0  0  0  0  0  0  0  0
    4.7411   11.9765    2.2032 H   0  0  0  0  0  0  0  0  0  0  0  0
    6.5778   12.2932    4.2291 Pt  0  0  0  0  0  0  0  0  0  0  0  0
    5.1894   10.3610    3.9770 B   0  0  0  0  0  0  0  0  0  0  0  0
    5.6672    9.7012    3.3091 H   0  0  0  0  0  0  0  0  0  0  0  0
    3.9750    9.4994    5.8330 Os  0  0  0  0  0  0  0  0  0  0  0  0
    4.1408   11.6713    6.7297 B   0  0  0  0  0  0  0  0  0  0  0  0
    4.0734   11.8229    7.7981 H   0  0  0  0  0  0  0  0  0  0  0  0
    3.4084   10.7125    3.9464 B   0  0  0  0  0  0  0  0  0  0  0  0
    2.7410   10.1938    3.2092 H   0  0  0  0  0  0  0  0  0  0  0  0
    5.3844   11.7046    6.4227 H   0  0  0  0  0  0  0  0  0  0  0  0
    5.5770   10.0039    5.1647 H   0  0  0  0  0  0  0  0  0  0  0  0
    2.2945    9.1013    6.5253 C   0  0  0  0  0  0  0  0  0  0  0  0
    1.2283    8.9064    6.9298 O   0  0  0  0  0  0  0  0  0  0  0  0
    8.1020   11.1059    2.9150 P   0  0  0  0  0  0  0  0  0  0  0  0
    7.4690   10.6637    1.2650 C   0  0  0  0  0  0  0  0  0  0  0  0
    7.1104   11.7092    0.4130 C   0  0  0  0  0  0  0  0  0  0  0  0
    7.1622   12.6046    0.7262 H   0  0  0  0  0  0  0  0  0  0  0  0
    6.6818   11.4665   -0.8774 C   0  0  0  0  0  0  0  0  0  0  0  0
    6.4471   12.1909   -1.4455 H   0  0  0  0  0  0  0  0  0  0  0  0
    6.5936   10.1699   -1.3382 C   0  0  0  0  0  0  0  0  0  0  0  0
    6.3036    9.9983   -2.2264 H   0  0  0  0  0  0  0  0  0  0  0  0
    6.9298    9.1232   -0.5054 C   0  0  0  0  0  0  0  0  0  0  0  0
    6.8600    8.2307   -0.8215 H   0  0  0  0  0  0  0  0  0  0  0  0
    7.3690    9.3614    0.7913 C   0  0  0  0  0  0  0  0  0  0  0  0
    7.6013    8.6325    1.3547 H   0  0  0  0  0  0  0  0  0  0  0  0
    9.6956   11.8536    2.4778 C   0  0  0  0  0  0  0  0  0  0  0  0
    9.5455   12.6253    1.8934 H   0  0  0  0  0  0  0  0  0  0  0  0
   10.2492   11.1929    2.0107 H   0  0  0  0  0  0  0  0  0  0  0  0
   10.1545   12.1452    3.2933 H   0  0  0  0  0  0  0  0  0  0  0  0
    8.6567    9.5624    3.6835 C   0  0  0  0  0  0  0  0  0  0  0  0
    9.1187    9.7631    4.5242 H   0  0  0  0  0  0  0  0  0  0  0  0
    9.2707    9.0973    3.0769 H   0  0  0  0  0  0  0  0  0  0  0  0
    7.8820    8.9904    3.8650 H   0  0  0  0  0  0  0  0  0  0  0  0
    7.9806   14.0845    4.7442 P   0  0  0  0  0  0  0  0  0  0  0  0
    8.5559   14.8023    3.1614 C   0  0  0  0  0  0  0  0  0  0  0  0
    9.8261   15.2829    2.8724 C   0  0  0  0  0  0  0  0  0  0  0  0
   10.4937   15.2403    3.5480 H   0  0  0  0  0  0  0  0  0  0  0  0
   10.1601   15.8245    1.6404 C   0  0  0  0  0  0  0  0  0  0  0  0
   11.0380   16.1424    1.4648 H   0  0  0  0  0  0  0  0  0  0  0  0
    9.1701   15.8857    0.6692 C   0  0  0  0  0  0  0  0  0  0  0  0
    9.3826   16.2452   -0.1844 H   0  0  0  0  0  0  0  0  0  0  0  0
    7.8681   15.4328    0.9060 C   0  0  0  0  0  0  0  0  0  0  0  0
    7.2084   15.4788    0.2253 H   0  0  0  0  0  0  0  0  0  0  0  0
    7.5548   14.9125    2.1684 C   0  0  0  0  0  0  0  0  0  0  0  0
    6.6671   14.6315    2.3569 H   0  0  0  0  0  0  0  0  0  0  0  0
    7.2274   15.5556    5.4958 C   0  0  0  0  0  0  0  0  0  0  0  0
    6.4577   15.8384    4.9589 H   0  0  0  0  0  0  0  0  0  0  0  0
    7.8866   16.2790    5.5293 H   0  0  0  0  0  0  0  0  0  0  0  0
    6.9300   15.3413    6.4049 H   0  0  0  0  0  0  0  0  0  0  0  0
    9.4136   13.8253    5.8208 C   0  0  0  0  0  0  0  0  0  0  0  0
    9.9133   14.6635    5.9083 H   0  0  0  0  0  0  0  0  0  0  0  0
    9.9944   13.1376    5.4325 H   0  0  0  0  0  0  0  0  0  0  0  0
    9.1091   13.5328    6.7058 H   0  0  0  0  0  0  0  0  0  0  0  0
    4.9723    8.9128    7.8969 P   0  0  0  0  0  0  0  0  0  0  0  0
    3.9434    9.0857    9.4209 C   0  0  0  0  0  0  0  0  0  0  0  0
    4.2571    8.3384   10.5599 C   0  0  0  0  0  0  0  0  0  0  0  0
    4.9710    7.7126   10.5302 H   0  0  0  0  0  0  0  0  0  0  0  0
    3.5323    8.5034   11.7377 C   0  0  0  0  0  0  0  0  0  0  0  0
    3.7373    7.9726   12.4983 H   0  0  0  0  0  0  0  0  0  0  0  0
    2.5207    9.4338   11.8029 C   0  0  0  0  0  0  0  0  0  0  0  0
    2.0438    9.5621   12.6146 H   0  0  0  0  0  0  0  0  0  0  0  0
    2.1994   10.1802   10.6870 C   0  0  0  0  0  0  0  0  0  0  0  0
    1.5004   10.8225   10.7344 H   0  0  0  0  0  0  0  0  0  0  0  0
    2.8910    9.9997    9.4932 C   0  0  0  0  0  0  0  0  0  0  0  0
    2.6464   10.5013    8.7241 H   0  0  0  0  0  0  0  0  0  0  0  0
    5.6393    7.2170    8.1722 C   0  0  0  0  0  0  0  0  0  0  0  0
    6.9813    6.9521    8.4110 C   0  0  0  0  0  0  0  0  0  0  0  0
    7.5925    7.6767    8.4810 H   0  0  0  0  0  0  0  0  0  0  0  0
    7.4497    5.6496    8.5498 C   0  0  0  0  0  0  0  0  0  0  0  0
    8.3735    5.4874    8.7029 H   0  0  0  0  0  0  0  0  0  0  0  0
    6.5727    4.6006    8.4644 C   0  0  0  0  0  0  0  0  0  0  0  0
    6.8892    3.7088    8.5440 H   0  0  0  0  0  0  0  0  0  0  0  0
    5.2251    4.8399    8.2628 C   0  0  0  0  0  0  0  0  0  0  0  0
    4.6172    4.1114    8.2232 H   0  0  0  0  0  0  0  0  0  0  0  0
    4.7558    6.1415    8.1175 C   0  0  0  0  0  0  0  0  0  0  0  0
    3.8289    6.2974    7.9805 H   0  0  0  0  0  0  0  0  0  0  0  0
    6.4468    9.9429    8.2876 C   0  0  0  0  0  0  0  0  0  0  0  0
    7.4489   10.1064    7.3246 C   0  0  0  0  0  0  0  0  0  0  0  0
    7.3502    9.6944    6.4743 H   0  0  0  0  0  0  0  0  0  0  0  0
    8.5759   10.8528    7.5862 C   0  0  0  0  0  0  0  0  0  0  0  0
    9.2551   10.9375    6.9272 H   0  0  0  0  0  0  0  0  0  0  0  0
    8.7167   11.4827    8.8140 C   0  0  0  0  0  0  0  0  0  0  0  0
    9.4858   12.0119    8.9925 H   0  0  0  0  0  0  0  0  0  0  0  0
    7.7413   11.3386    9.7733 C   0  0  0  0  0  0  0  0  0  0  0  0
    7.8363   11.7711   10.6138 H   0  0  0  0  0  0  0  0  0  0  0  0
    6.6181   10.5638    9.5182 C   0  0  0  0  0  0  0  0  0  0  0  0
    5.9587   10.4570   10.1935 H   0  0  0  0  0  0  0  0  0  0  0  0
    4.0819    7.4216    4.6134 P   0  0  0  0  0  0  0  0  0  0  0  0
    3.2285    5.9179    5.2907 C   0  0  0  0  0  0  0  0  0  0  0  0
    1.9627    6.0176    5.8582 C   0  0  0  0  0  0  0  0  0  0  0  0
    1.5370    6.8654    5.8993 H   0  0  0  0  0  0  0  0  0  0  0  0
    1.3099    4.9044    6.3651 C   0  0  0  0  0  0  0  0  0  0  0  0
    0.4498    5.0016    6.7572 H   0  0  0  0  0  0  0  0  0  0  0  0
    1.8974    3.6604    6.3049 C   0  0  0  0  0  0  0  0  0  0  0  0
    1.4522    2.8994    6.6596 H   0  0  0  0  0  0  0  0  0  0  0  0
    3.1433    3.5353    5.7209 C   0  0  0  0  0  0  0  0  0  0  0  0
    3.5502    2.6794    5.6550 H   0  0  0  0  0  0  0  0  0  0  0  0
    3.8025    4.6508    5.2309 C   0  0  0  0  0  0  0  0  0  0  0  0
    4.6655    4.5497    4.8462 H   0  0  0  0  0  0  0  0  0  0  0  0
    3.2863    7.4840    2.9474 C   0  0  0  0  0  0  0  0  0  0  0  0
    1.9380    7.2096    2.7961 C   0  0  0  0  0  0  0  0  0  0  0  0
    1.4254    6.9425    3.5500 H   0  0  0  0  0  0  0  0  0  0  0  0
    1.3232    7.3201    1.5474 C   0  0  0  0  0  0  0  0  0  0  0  0
    0.3955    7.1365    1.4573 H   0  0  0  0  0  0  0  0  0  0  0  0
    2.0606    7.6968    0.4459 C   0  0  0  0  0  0  0  0  0  0  0  0
    1.6432    7.7620   -0.4053 H   0  0  0  0  0  0  0  0  0  0  0  0
    3.4057    7.9798    0.5795 C   0  0  0  0  0  0  0  0  0  0  0  0
    3.9135    8.2438   -0.1792 H   0  0  0  0  0  0  0  0  0  0  0  0
    4.0170    7.8790    1.8214 C   0  0  0  0  0  0  0  0  0  0  0  0
    4.9410    8.0813    1.9081 H   0  0  0  0  0  0  0  0  0  0  0  0
    5.7435    6.7316    4.2293 C   0  0  0  0  0  0  0  0  0  0  0  0
    5.9865    5.8253    3.1885 C   0  0  0  0  0  0  0  0  0  0  0  0
    5.2924    5.6171    2.5743 H   0  0  0  0  0  0  0  0  0  0  0  0
    7.2249    5.2322    3.0469 C   0  0  0  0  0  0  0  0  0  0  0  0
    7.3725    4.6165    2.3383 H   0  0  0  0  0  0  0  0  0  0  0  0
    8.2515    5.5231    3.9231 C   0  0  0  0  0  0  0  0  0  0  0  0
    9.0997    5.1076    3.8222 H   0  0  0  0  0  0  0  0  0  0  0  0
    8.0333    6.4213    4.9472 C   0  0  0  0  0  0  0  0  0  0  0  0
    8.7355    6.6337    5.5513 H   0  0  0  0  0  0  0  0  0  0  0  0
    6.7898    7.0150    5.0938 C   0  0  0  0  0  0  0  0  0  0  0  0
    6.6514    7.6318    5.8034 H   0  0  0  0  0  0  0  0  0  0  0  0
  1  2  1  0  0  0  0
  3  1  1  0  0  0  0
  4  3  1  0  0  0  0
  5  1  1  0  0  0  0
  6  5  1  0  0  0  0
  7  1  1  0  0  0  0
  8  7  1  0  0  0  0
  9  3  1  0  0  0  0
 10  9  1  0  0  0  0
 11  1  1  0  0  0  0
 12 11  1  0  0  0  0
 13  3  1  0  0  0  0
 14 11  1  0  0  0  0
 15 14  1  0  0  0  0
 16  7  1  0  0  0  0
 17  5  1  0  0  0  0
 18 17  1  0  0  0  0
 19  1  1  0  0  0  0
 20 19  1  0  0  0  0
 21  9  1  0  0  0  0
 22 14  1  0  0  0  0
 23 16  1  0  0  0  0
 24 23  3  0  0  0  0
 25 13  1  0  0  0  0
 26 25  1  0  0  0  0
 27 26  4  0  0  0  0
 28 27  1  0  0  0  0
 29 27  4  0  0  0  0
 30 29  1  0  0  0  0
 31 29  4  0  0  0  0
 32 31  1  0  0  0  0
 33 31  4  0  0  0  0
 34 33  1  0  0  0  0
 35 26  4  0  0  0  0
 36 35  1  0  0  0  0
 37 25  1  0  0  0  0
 38 37  1  0  0  0  0
 39 37  1  0  0  0  0
 40 37  1  0  0  0  0
 41 25  1  0  0  0  0
 42 41  1  0  0  0  0
 43 41  1  0  0  0  0
 44 41  1  0  0  0  0
 45 13  1  0  0  0  0
 46 45  1  0  0  0  0
 47 46  4  0  0  0  0
 48 47  1  0  0  0  0
 49 47  4  0  0  0  0
 50 49  1  0  0  0  0
 51 49  4  0  0  0  0
 52 51  1  0  0  0  0
 53 51  4  0  0  0  0
 54 53  1  0  0  0  0
 55 46  4  0  0  0  0
 56 55  1  0  0  0  0
 57 45  1  0  0  0  0
 58 57  1  0  0  0  0
 59 57  1  0  0  0  0
 60 57  1  0  0  0  0
 61 45  1  0  0  0  0
 62 61  1  0  0  0  0
 63 61  1  0  0  0  0
 64 61  1  0  0  0  0
 65 16  1  0  0  0  0
 66 65  1  0  0  0  0
 67 66  4  0  0  0  0
 68 67  1  0  0  0  0
 69 67  4  0  0  0  0
 70 69  1  0  0  0  0
 71 69  4  0  0  0  0
 72 71  1  0  0  0  0
 73 71  4  0  0  0  0
 74 73  1  0  0  0  0
 75 66  4  0  0  0  0
 76 75  1  0  0  0  0
 77 65  1  0  0  0  0
 78 77  4  0  0  0  0
 79 78  1  0  0  0  0
 80 78  4  0  0  0  0
 81 80  1  0  0  0  0
 82 80  4  0  0  0  0
 83 82  1  0  0  0  0
 84 82  4  0  0  0  0
 85 84  1  0  0  0  0
 86 77  4  0  0  0  0
 87 86  1  0  0  0  0
 88 65  1  0  0  0  0
 89 88  4  0  0  0  0
 90 89  1  0  0  0  0
 91 89  4  0  0  0  0
 92 91  1  0  0  0  0
 93 91  4  0  0  0  0
 94 93  1  0  0  0  0
 95 93  4  0  0  0  0
 96 95  1  0  0  0  0
 97 88  4  0  0  0  0
 98 97  1  0  0  0  0
 99 16  1  0  0  0  0
100 99  1  0  0  0  0
101100  4  0  0  0  0
102101  1  0  0  0  0
103101  4  0  0  0  0
104103  1  0  0  0  0
105103  4  0  0  0  0
106105  1  0  0  0  0
107105  4  0  0  0  0
108107  1  0  0  0  0
109100  4  0  0  0  0
110109  1  0  0  0  0
111 99  1  0  0  0  0
112111  4  0  0  0  0
113112  1  0  0  0  0
114112  4  0  0  0  0
115114  1  0  0  0  0
116114  4  0  0  0  0
117116  1  0  0  0  0
118116  4  0  0  0  0
119118  1  0  0  0  0
120111  4  0  0  0  0
121120  1  0  0  0  0
122 99  1  0  0  0  0
123122  4  0  0  0  0
124123  1  0  0  0  0
125123  4  0  0  0  0
126125  1  0  0  0  0
127125  4  0  0  0  0
128127  1  0  0  0  0
129127  4  0  0  0  0
130129  1  0  0  0  0
131122  4  0  0  0  0
132131  1  0  0  0  0
  3  5  1  0  0  0  0
  3 11  1  0  0  0  0
  5  7  1  0  0  0  0
  5  9  1  0  0  0  0
  7 17  1  0  0  0  0
  7 19  1  0  0  0  0
  9 13  1  0  0  0  0
  9 17  1  0  0  0  0
 11 13  1  0  0  0  0
 11 19  1  0  0  0  0
 13 14  1  0  0  0  0
 14 16  1  0  0  0  0
 14 19  1  0  0  0  0
 16 17  1  0  0  0  0
 16 19  1  0  0  0  0
 16 22  1  0  0  0  0
 17 21  1  0  0  0  0
 33 35  4  0  0  0  0
 53 55  4  0  0  0  0
 73 75  4  0  0  0  0
 84 86  4  0  0  0  0
 95 97  4  0  0  0  0
107109  4  0  0  0  0
118120  4  0  0  0  0
129131  4  0  0  0  0
M  END
$$$$
ZARHIN

From CSD data. Using bond type 'Any'. No disordered atoms. Largest molecule.
 93114  0  0  0  0  0  0  0  0999 V2000
   13.2214    5.1076   11.5124 Os  0  0  0  0  0  0  0  0  0  0  0  0
   13.6430    7.3397   11.2006 B   0  0  0  0  0  0  0  0  0  0  0  0
   13.2942    7.9621   12.0012 H   0  0  0  0  0  0  0  0  0  0  0  0
   15.1728    6.3841   11.3908 B   0  0  0  0  0  0  0  0  0  0  0  0
   15.7691    6.4973   12.2665 H   0  0  0  0  0  0  0  0  0  0  0  0
   15.1090    7.7936   10.2953 B   0  0  0  0  0  0  0  0  0  0  0  0
   15.7935    8.6129   10.5710 H   0  0  0  0  0  0  0  0  0  0  0  0
   13.5318    8.1662    9.5847 B   0  0  0  0  0  0  0  0  0  0  0  0
   13.2510    9.3853    9.6422 H   0  0  0  0  0  0  0  0  0  0  0  0
   15.2133    4.8843   10.4944 B   0  0  0  0  0  0  0  0  0  0  0  0
   15.8903    4.0533   10.6005 H   0  0  0  0  0  0  0  0  0  0  0  0
   15.9402    6.3419    9.7705 B   0  0  0  0  0  0  0  0  0  0  0  0
   17.0371    6.3667    9.5832 H   0  0  0  0  0  0  0  0  0  0  0  0
   14.8468    7.4828    8.6013 B   0  0  0  0  0  0  0  0  0  0  0  0
   15.4400    8.0195    7.7845 H   0  0  0  0  0  0  0  0  0  0  0  0
   13.1306    7.0521    8.3536 B   0  0  0  0  0  0  0  0  0  0  0  0
   12.5231    7.2194    7.4454 H   0  0  0  0  0  0  0  0  0  0  0  0
   12.4465    6.8011   10.0226 B   0  0  0  0  0  0  0  0  0  0  0  0
   11.3842    6.9702   10.0403 H   0  0  0  0  0  0  0  0  0  0  0  0
   13.8836    4.4412   10.1877 H   0  0  0  0  0  0  0  0  0  0  0  0
   15.4439    5.4008    9.2146 H   0  0  0  0  0  0  0  0  0  0  0  0
   14.2277    6.4845    8.0647 H   0  0  0  0  0  0  0  0  0  0  0  0
   12.6759    6.0212    9.0820 H   0  0  0  0  0  0  0  0  0  0  0  0
   12.6501    5.9027   13.1158 C   0  0  0  0  0  0  0  0  0  0  0  0
   12.4440    6.4429   14.1101 O   0  0  0  0  0  0  0  0  0  0  0  0
   13.9312    3.2358   12.8117 P   0  0  0  0  0  0  0  0  0  0  0  0
   15.6684    3.3342   13.3974 C   0  0  0  0  0  0  0  0  0  0  0  0
   16.6287    2.3786   13.0951 C   0  0  0  0  0  0  0  0  0  0  0  0
   16.4018    1.6413   12.5402 H   0  0  0  0  0  0  0  0  0  0  0  0
   17.9199    2.4944   13.5979 C   0  0  0  0  0  0  0  0  0  0  0  0
   18.5710    1.8371   13.3818 H   0  0  0  0  0  0  0  0  0  0  0  0
   18.2606    3.5589   14.4088 C   0  0  0  0  0  0  0  0  0  0  0  0
   19.1426    3.6351   14.7537 H   0  0  0  0  0  0  0  0  0  0  0  0
   17.3079    4.5160   14.7169 C   0  0  0  0  0  0  0  0  0  0  0  0
   17.5368    5.2481   15.2774 H   0  0  0  0  0  0  0  0  0  0  0  0
   16.0277    4.4120   14.2141 C   0  0  0  0  0  0  0  0  0  0  0  0
   15.3835    5.0776   14.4236 H   0  0  0  0  0  0  0  0  0  0  0  0
   13.8655    1.5593   12.0616 C   0  0  0  0  0  0  0  0  0  0  0  0
   14.3880    1.3570   10.7863 C   0  0  0  0  0  0  0  0  0  0  0  0
   14.7248    2.0965   10.2946 H   0  0  0  0  0  0  0  0  0  0  0  0
   14.4234    0.0882   10.2275 C   0  0  0  0  0  0  0  0  0  0  0  0
   14.7940   -0.0412    9.3626 H   0  0  0  0  0  0  0  0  0  0  0  0
   13.9151   -0.9905   10.9352 C   0  0  0  0  0  0  0  0  0  0  0  0
   13.9412   -1.8615   10.5557 H   0  0  0  0  0  0  0  0  0  0  0  0
   13.3706   -0.8031   12.1854 C   0  0  0  0  0  0  0  0  0  0  0  0
   13.0075   -1.5409   12.6613 H   0  0  0  0  0  0  0  0  0  0  0  0
   13.3529    0.4660   12.7545 C   0  0  0  0  0  0  0  0  0  0  0  0
   12.9868    0.5879   13.6231 H   0  0  0  0  0  0  0  0  0  0  0  0
   13.0694    3.0126   14.4220 C   0  0  0  0  0  0  0  0  0  0  0  0
   13.6980    2.3502   15.4791 C   0  0  0  0  0  0  0  0  0  0  0  0
   14.5819    2.0215   15.3663 H   0  0  0  0  0  0  0  0  0  0  0  0
   13.0504    2.1649   16.6851 C   0  0  0  0  0  0  0  0  0  0  0  0
   13.4935    1.7183   17.3958 H   0  0  0  0  0  0  0  0  0  0  0  0
   11.7598    2.6289   16.8621 C   0  0  0  0  0  0  0  0  0  0  0  0
   11.3176    2.5042   17.6933 H   0  0  0  0  0  0  0  0  0  0  0  0
   11.1159    3.2753   15.8212 C   0  0  0  0  0  0  0  0  0  0  0  0
   10.2248    3.5862   15.9319 H   0  0  0  0  0  0  0  0  0  0  0  0
   11.7751    3.4664   14.6152 C   0  0  0  0  0  0  0  0  0  0  0  0
   11.3292    3.9177   13.9086 H   0  0  0  0  0  0  0  0  0  0  0  0
   11.1500    4.1036   10.8176 P   0  0  0  0  0  0  0  0  0  0  0  0
    9.6014    4.9808   11.2846 C   0  0  0  0  0  0  0  0  0  0  0  0
    9.6185    6.1986   11.9466 C   0  0  0  0  0  0  0  0  0  0  0  0
   10.4499    6.6009   12.1687 H   0  0  0  0  0  0  0  0  0  0  0  0
    8.4346    6.8386   12.2887 C   0  0  0  0  0  0  0  0  0  0  0  0
    8.4596    7.6681   12.7502 H   0  0  0  0  0  0  0  0  0  0  0  0
    7.2238    6.2721   11.9599 C   0  0  0  0  0  0  0  0  0  0  0  0
    6.4139    6.7178   12.1806 H   0  0  0  0  0  0  0  0  0  0  0  0
    7.1871    5.0545   11.3067 C   0  0  0  0  0  0  0  0  0  0  0  0
    6.3522    4.6599   11.0877 H   0  0  0  0  0  0  0  0  0  0  0  0
    8.3686    4.4066   10.9721 C   0  0  0  0  0  0  0  0  0  0  0  0
    8.3372    3.5685   10.5272 H   0  0  0  0  0  0  0  0  0  0  0  0
   11.1171    4.0285    8.9684 C   0  0  0  0  0  0  0  0  0  0  0  0
   12.2183    3.5052    8.2814 C   0  0  0  0  0  0  0  0  0  0  0  0
   12.9509    3.1558    8.7751 H   0  0  0  0  0  0  0  0  0  0  0  0
   12.2605    3.4858    6.9014 C   0  0  0  0  0  0  0  0  0  0  0  0
   13.0227    3.1372    6.4555 H   0  0  0  0  0  0  0  0  0  0  0  0
   11.1970    3.9734    6.1716 C   0  0  0  0  0  0  0  0  0  0  0  0
   11.2271    3.9671    5.2222 H   0  0  0  0  0  0  0  0  0  0  0  0
   10.0946    4.4663    6.8262 C   0  0  0  0  0  0  0  0  0  0  0  0
    9.3560    4.7899    6.3237 H   0  0  0  0  0  0  0  0  0  0  0  0
   10.0491    4.4990    8.2209 C   0  0  0  0  0  0  0  0  0  0  0  0
    9.2806    4.8448    8.6602 H   0  0  0  0  0  0  0  0  0  0  0  0
   10.6658    2.3667   11.2330 C   0  0  0  0  0  0  0  0  0  0  0  0
   10.9848    1.3011   10.3897 C   0  0  0  0  0  0  0  0  0  0  0  0
   11.4757    1.4675    9.5938 H   0  0  0  0  0  0  0  0  0  0  0  0
   10.5983    0.0049   10.6949 C   0  0  0  0  0  0  0  0  0  0  0  0
   10.8302   -0.7065   10.1089 H   0  0  0  0  0  0  0  0  0  0  0  0
    9.8833   -0.2577   11.8375 C   0  0  0  0  0  0  0  0  0  0  0  0
    9.6253   -1.1477   12.0454 H   0  0  0  0  0  0  0  0  0  0  0  0
    9.5407    0.7785   12.6838 C   0  0  0  0  0  0  0  0  0  0  0  0
    9.0462    0.5994   13.4748 H   0  0  0  0  0  0  0  0  0  0  0  0
    9.9190    2.0866   12.3830 C   0  0  0  0  0  0  0  0  0  0  0  0
    9.6680    2.7940   12.9643 H   0  0  0  0  0  0  0  0  0  0  0  0
  1  2  1  0  0  0  0
  2  3  1  0  0  0  0
  4  1  1  0  0  0  0
  5  4  1  0  0  0  0
  6  2  1  0  0  0  0
  7  6  1  0  0  0  0
  8  2  1  0  0  0  0
  9  8  1  0  0  0  0
 10  1  1  0  0  0  0
 11 10  1  0  0  0  0
 12  4  1  0  0  0  0
 13 12  1  0  0  0  0
 14  6  1  0  0  0  0
 15 14  1  0  0  0  0
 16  8  1  0  0  0  0
 17 16  1  0  0  0  0
 18  1  1  0  0  0  0
 19 18  1  0  0  0  0
 20  1  1  0  0  0  0
 21 10  1  0  0  0  0
 22 14  1  0  0  0  0
 23 16  1  0  0  0  0
 24  1  1  0  0  0  0
 25 24  3  0  0  0  0
 26  1  1  0  0  0  0
 27 26  1  0  0  0  0
 28 27  4  0  0  0  0
 29 28  1  0  0  0  0
 30 28  4  0  0  0  0
 31 30  1  0  0  0  0
 32 30  4  0  0  0  0
 33 32  1  0  0  0  0
 34 32  4  0  0  0  0
 35 34  1  0  0  0  0
 36 27  4  0  0  0  0
 37 36  1  0  0  0  0
 38 26  1  0  0  0  0
 39 38  4  0  0  0  0
 40 39  1  0  0  0  0
 41 39  4  0  0  0  0
 42 41  1  0  0  0  0
 43 41  4  0  0  0  0
 44 43  1  0  0  0  0
 45 43  4  0  0  0  0
 46 45  1  0  0  0  0
 47 38  4  0  0  0  0
 48 47  1  0  0  0  0
 49 26  1  0  0  0  0
 50 49  4  0  0  0  0
 51 50  1  0  0  0  0
 52 50  4  0  0  0  0
 53 52  1  0  0  0  0
 54 52  4  0  0  0  0
 55 54  1  0  0  0  0
 56 54  4  0  0  0  0
 57 56  1  0  0  0  0
 58 49  4  0  0  0  0
 59 58  1  0  0  0  0
 60  1  1  0  0  0  0
 61 60  1  0  0  0  0
 62 61  4  0  0  0  0
 63 62  1  0  0  0  0
 64 62  4  0  0  0  0
 65 64  1  0  0  0  0
 66 64  4  0  0  0  0
 67 66  1  0  0  0  0
 68 66  4  0  0  0  0
 69 68  1  0  0  0  0
 70 61  4  0  0  0  0
 71 70  1  0  0  0  0
 72 60  1  0  0  0  0
 73 72  4  0  0  0  0
 74 73  1  0  0  0  0
 75 73  4  0  0  0  0
 76 75  1  0  0  0  0
 77 75  4  0  0  0  0
 78 77  1  0  0  0  0
 79 77  4  0  0  0  0
 80 79  1  0  0  0  0
 81 72  4  0  0  0  0
 82 81  1  0  0  0  0
 83 60  1  0  0  0  0
 84 83  4  0  0  0  0
 85 84  1  0  0  0  0
 86 84  4  0  0  0  0
 87 86  1  0  0  0  0
 88 86  4  0  0  0  0
 89 88  1  0  0  0  0
 90 88  4  0  0  0  0
 91 90  1  0  0  0  0
 92 83  4  0  0  0  0
 93 92  1  0  0  0  0
  2  4  1  0  0  0  0
  2 18  1  0  0  0  0
  4  6  1  0  0  0  0
  4 10  1  0  0  0  0
  6  8  1  0  0  0  0
  6 12  1  0  0  0  0
  8 14  1  0  0  0  0
  8 18  1  0  0  0  0
 10 12  1  0  0  0  0
 10 20  1  0  0  0  0
 12 14  1  0  0  0  0
 12 21  1  0  0  0  0
 14 16  1  0  0  0  0
 16 18  1  0  0  0  0
 16 22  1  0  0  0  0
 18 23  1  0  0  0  0
 34 36  4  0  0  0  0
 45 47  4  0  0  0  0
 56 58  4  0  0  0  0
 68 70  4  0  0  0  0
 79 81  4  0  0  0  0
 90 92  4  0  0  0  0
M  END
$$$$
ZAXJOA

From CSD data. Using bond type 'Any'. No disordered atoms. Largest molecule.
158178  0  0  0  0  0  0  0  0999 V2000
    7.5473    8.7306   10.7047 K   0  0  0  0  0  0  0  0  0  0  0  0
    8.8934   11.9545   10.3187 P   0  0  0  0  0  0  0  0  0  0  0  0
    8.6537   11.3506    6.8855 C   0  0  0  0  0  0  0  0  0  0  0  0
   10.3226   13.6504    8.5653 C   0  0  0  0  0  0  0  0  0  0  0  0
    9.4888   13.9194    8.2556 H   0  0  0  0  0  0  0  0  0  0  0  0
    6.3961   10.6452    7.6548 C   0  0  0  0  0  0  0  0  0  0  0  0
    4.9316    8.1201   11.0920 O   0  0  0  0  0  0  0  0  0  0  0  0
    8.4761    6.9207    9.0037 O   0  0  0  0  0  0  0  0  0  0  0  0
    8.3827   14.6240   11.1694 C   0  0  0  0  0  0  0  0  0  0  0  0
    9.3028   14.7533   11.1582 H   0  0  0  0  0  0  0  0  0  0  0  0
    5.1541   11.2650    7.4900 C   0  0  0  0  0  0  0  0  0  0  0  0
    5.0817   12.1842    7.6174 H   0  0  0  0  0  0  0  0  0  0  0  0
    7.6351   11.4449    8.0358 C   0  0  0  0  0  0  0  0  0  0  0  0
    7.3750   12.3837    8.1382 H   0  0  0  0  0  0  0  0  0  0  0  0
    6.4763    9.2658    7.4500 C   0  0  0  0  0  0  0  0  0  0  0  0
    7.2078    9.0690    6.8280 H   0  0  0  0  0  0  0  0  0  0  0  0
   11.6517   12.3275   10.0366 C   0  0  0  0  0  0  0  0  0  0  0  0
   11.7227   11.7054   10.7235 H   0  0  0  0  0  0  0  0  0  0  0  0
    8.4760   12.1437    5.7639 C   0  0  0  0  0  0  0  0  0  0  0  0
    7.7634   12.7410    5.7352 H   0  0  0  0  0  0  0  0  0  0  0  0
    5.3518    8.5422    7.0841 C   0  0  0  0  0  0  0  0  0  0  0  0
    5.4162    7.6252    6.9442 H   0  0  0  0  0  0  0  0  0  0  0  0
    6.4605   13.2398   10.7672 C   0  0  0  0  0  0  0  0  0  0  0  0
    6.0893   12.4339   10.4887 H   0  0  0  0  0  0  0  0  0  0  0  0
    4.0250   10.5337    7.1403 C   0  0  0  0  0  0  0  0  0  0  0  0
    3.2038   10.9610    7.0528 H   0  0  0  0  0  0  0  0  0  0  0  0
    9.7268   10.4696    6.9304 C   0  0  0  0  0  0  0  0  0  0  0  0
    9.8667    9.9412    7.6836 H   0  0  0  0  0  0  0  0  0  0  0  0
    7.5516   15.6472   11.6015 C   0  0  0  0  0  0  0  0  0  0  0  0
    7.9190   16.4515   11.8900 H   0  0  0  0  0  0  0  0  0  0  0  0
    5.6339   14.2762   11.1969 C   0  0  0  0  0  0  0  0  0  0  0  0
    4.7108   14.1573   11.2094 H   0  0  0  0  0  0  0  0  0  0  0  0
   11.4693   14.1720    7.9796 C   0  0  0  0  0  0  0  0  0  0  0  0
   11.4026   14.7922    7.2901 H   0  0  0  0  0  0  0  0  0  0  0  0
    4.1204    9.1859    6.9254 C   0  0  0  0  0  0  0  0  0  0  0  0
    3.3691    8.6999    6.6744 H   0  0  0  0  0  0  0  0  0  0  0  0
   12.8081   12.8431    9.4471 C   0  0  0  0  0  0  0  0  0  0  0  0
   13.6445   12.5654    9.7456 H   0  0  0  0  0  0  0  0  0  0  0  0
   10.5963   10.3837    5.8351 C   0  0  0  0  0  0  0  0  0  0  0  0
   11.3068    9.7836    5.8563 H   0  0  0  0  0  0  0  0  0  0  0  0
   12.7143   13.7586    8.4304 C   0  0  0  0  0  0  0  0  0  0  0  0
   13.4867   14.1030    8.0420 H   0  0  0  0  0  0  0  0  0  0  0  0
    7.6579    5.7594    8.7864 C   0  0  0  0  0  0  0  0  0  0  0  0
    7.1575    5.8485    7.9596 H   0  0  0  0  0  0  0  0  0  0  0  0
    7.0296    5.6465    9.5170 H   0  0  0  0  0  0  0  0  0  0  0  0
    6.1769   15.4761   11.6053 C   0  0  0  0  0  0  0  0  0  0  0  0
    5.6220   16.1688   11.8825 H   0  0  0  0  0  0  0  0  0  0  0  0
   10.4059   11.1860    4.7210 C   0  0  0  0  0  0  0  0  0  0  0  0
   10.9945   11.1298    4.0029 H   0  0  0  0  0  0  0  0  0  0  0  0
    8.5815    4.5920    8.7115 C   0  0  0  0  0  0  0  0  0  0  0  0
    8.8632    4.4249    7.7985 H   0  0  0  0  0  0  0  0  0  0  0  0
    8.1648    3.7912    9.0674 H   0  0  0  0  0  0  0  0  0  0  0  0
    9.8136    6.5125    9.2910 C   0  0  0  0  0  0  0  0  0  0  0  0
   10.1572    6.9907   10.0616 H   0  0  0  0  0  0  0  0  0  0  0  0
   10.3933    6.6884    8.5329 H   0  0  0  0  0  0  0  0  0  0  0  0
    9.3515   12.0630    4.6748 C   0  0  0  0  0  0  0  0  0  0  0  0
    9.2196   12.5988    3.9267 H   0  0  0  0  0  0  0  0  0  0  0  0
    9.7456    5.0325    9.5720 C   0  0  0  0  0  0  0  0  0  0  0  0
    9.5744    4.8603   10.5112 H   0  0  0  0  0  0  0  0  0  0  0  0
   10.5662    4.5868    9.3109 H   0  0  0  0  0  0  0  0  0  0  0  0
    3.9459    9.0373   10.5986 C   0  0  0  0  0  0  0  0  0  0  0  0
    4.2632    9.4682    9.7905 H   0  0  0  0  0  0  0  0  0  0  0  0
    3.7617    9.7214   11.2618 H   0  0  0  0  0  0  0  0  0  0  0  0
    2.7157    8.2489   10.3139 C   0  0  0  0  0  0  0  0  0  0  0  0
    2.6142    8.1090    9.3597 H   0  0  0  0  0  0  0  0  0  0  0  0
    1.9304    8.7125   10.6448 H   0  0  0  0  0  0  0  0  0  0  0  0
    4.3783    6.8178   11.1444 C   0  0  0  0  0  0  0  0  0  0  0  0
    4.6187    6.3911   11.9825 H   0  0  0  0  0  0  0  0  0  0  0  0
    4.7290    6.2802   10.4175 H   0  0  0  0  0  0  0  0  0  0  0  0
    2.8938    6.9187   11.0333 C   0  0  0  0  0  0  0  0  0  0  0  0
    2.4752    6.9317   11.9075 H   0  0  0  0  0  0  0  0  0  0  0  0
    2.5282    6.1851   10.5149 H   0  0  0  0  0  0  0  0  0  0  0  0
    8.1224   10.9647    9.3193 N   0  0  0  0  0  0  0  0  0  0  0  0
    7.8541   13.4125   10.7535 C   0  0  0  0  0  0  0  0  0  0  0  0
   10.3990   12.7387    9.6045 C   0  0  0  0  0  0  0  0  0  0  0  0
    9.3486   11.0525   11.9512 B   0  0  0  0  0  0  0  0  0  0  0  0
    9.9531   11.7039   12.5520 H   0  0  0  0  0  0  0  0  0  0  0  0
    8.3680   10.7614   12.4895 H   0  0  0  0  0  0  0  0  0  0  0  0
    9.9628   10.1813   11.7402 H   0  0  0  0  0  0  0  0  0  0  0  0
   10.3369    9.3537   14.2744 K   0  0  0  0  0  0  0  0  0  0  0  0
    8.9908    6.1298   14.6603 P   0  0  0  0  0  0  0  0  0  0  0  0
    9.2305    6.7337   18.0936 C   0  0  0  0  0  0  0  0  0  0  0  0
    7.5616    4.4339   16.4137 C   0  0  0  0  0  0  0  0  0  0  0  0
    8.3954    4.1650   16.7235 H   0  0  0  0  0  0  0  0  0  0  0  0
   11.4881    7.4392   17.3242 C   0  0  0  0  0  0  0  0  0  0  0  0
   12.9526    9.9643   13.8871 O   0  0  0  0  0  0  0  0  0  0  0  0
    9.4081   11.1636   15.9754 O   0  0  0  0  0  0  0  0  0  0  0  0
    9.5015    3.4603   13.8097 C   0  0  0  0  0  0  0  0  0  0  0  0
    8.5813    3.3311   13.8209 H   0  0  0  0  0  0  0  0  0  0  0  0
   12.7301    6.8194   17.4891 C   0  0  0  0  0  0  0  0  0  0  0  0
   12.8025    5.9002   17.3617 H   0  0  0  0  0  0  0  0  0  0  0  0
   10.2491    6.6395   16.9433 C   0  0  0  0  0  0  0  0  0  0  0  0
   10.5092    5.7007   16.8409 H   0  0  0  0  0  0  0  0  0  0  0  0
   11.4079    8.8186   17.5291 C   0  0  0  0  0  0  0  0  0  0  0  0
   10.6763    9.0154   18.1510 H   0  0  0  0  0  0  0  0  0  0  0  0
    6.2325    5.7569   14.9425 C   0  0  0  0  0  0  0  0  0  0  0  0
    6.1615    6.3790   14.2556 H   0  0  0  0  0  0  0  0  0  0  0  0
    9.4082    5.9406   19.2152 C   0  0  0  0  0  0  0  0  0  0  0  0
   10.1208    5.3434   19.2439 H   0  0  0  0  0  0  0  0  0  0  0  0
   12.5323    9.5422   17.8950 C   0  0  0  0  0  0  0  0  0  0  0  0
   12.4680   10.4592   18.0349 H   0  0  0  0  0  0  0  0  0  0  0  0
   11.4237    4.8445   14.2118 C   0  0  0  0  0  0  0  0  0  0  0  0
   11.7949    5.6504   14.4904 H   0  0  0  0  0  0  0  0  0  0  0  0
   13.8592    7.5507   17.8388 C   0  0  0  0  0  0  0  0  0  0  0  0
   14.6804    7.1233   17.9262 H   0  0  0  0  0  0  0  0  0  0  0  0
    8.1574    7.6148   18.0486 C   0  0  0  0  0  0  0  0  0  0  0  0
    8.0175    8.1431   17.2955 H   0  0  0  0  0  0  0  0  0  0  0  0
   10.3326    2.4372   13.3775 C   0  0  0  0  0  0  0  0  0  0  0  0
    9.9652    1.6328   13.0890 H   0  0  0  0  0  0  0  0  0  0  0  0
   12.2503    3.8081   13.7822 C   0  0  0  0  0  0  0  0  0  0  0  0
   13.1734    3.9271   13.7697 H   0  0  0  0  0  0  0  0  0  0  0  0
    6.4149    3.9124   16.9995 C   0  0  0  0  0  0  0  0  0  0  0  0
    6.4816    3.2921   17.6889 H   0  0  0  0  0  0  0  0  0  0  0  0
   13.7637    8.8984   18.0536 C   0  0  0  0  0  0  0  0  0  0  0  0
   14.5151    9.3845   18.3047 H   0  0  0  0  0  0  0  0  0  0  0  0
    5.0761    5.2412   15.5320 C   0  0  0  0  0  0  0  0  0  0  0  0
    4.2397    5.5189   15.2335 H   0  0  0  0  0  0  0  0  0  0  0  0
    7.2879    7.7006   19.1440 C   0  0  0  0  0  0  0  0  0  0  0  0
    6.5774    8.3008   19.1227 H   0  0  0  0  0  0  0  0  0  0  0  0
    5.1699    4.3258   16.5486 C   0  0  0  0  0  0  0  0  0  0  0  0
    4.3974    3.9814   16.9371 H   0  0  0  0  0  0  0  0  0  0  0  0
   10.2262   12.3249   16.1927 C   0  0  0  0  0  0  0  0  0  0  0  0
   10.7267   12.2358   17.0195 H   0  0  0  0  0  0  0  0  0  0  0  0
   10.8546   12.4379   15.4620 H   0  0  0  0  0  0  0  0  0  0  0  0
   11.7073    2.6083   13.3738 C   0  0  0  0  0  0  0  0  0  0  0  0
   12.2622    1.9156   13.0965 H   0  0  0  0  0  0  0  0  0  0  0  0
    7.4783    6.8983   20.2580 C   0  0  0  0  0  0  0  0  0  0  0  0
    6.8897    6.9546   20.9762 H   0  0  0  0  0  0  0  0  0  0  0  0
    9.3027   13.4923   16.2676 C   0  0  0  0  0  0  0  0  0  0  0  0
    9.0210   13.6595   17.1806 H   0  0  0  0  0  0  0  0  0  0  0  0
    9.7194   14.2932   15.9117 H   0  0  0  0  0  0  0  0  0  0  0  0
    8.0706   11.5719   15.6881 C   0  0  0  0  0  0  0  0  0  0  0  0
    7.7270   11.0936   14.9175 H   0  0  0  0  0  0  0  0  0  0  0  0
    7.4909   11.3960   16.4462 H   0  0  0  0  0  0  0  0  0  0  0  0
    8.5327    6.0213   20.3042 C   0  0  0  0  0  0  0  0  0  0  0  0
    8.6646    5.4856   21.0524 H   0  0  0  0  0  0  0  0  0  0  0  0
    8.1386   13.0519   15.4071 C   0  0  0  0  0  0  0  0  0  0  0  0
    8.3098   13.2240   14.4679 H   0  0  0  0  0  0  0  0  0  0  0  0
    7.3180   13.4975   15.6681 H   0  0  0  0  0  0  0  0  0  0  0  0
   13.9383    9.0470   14.3805 C   0  0  0  0  0  0  0  0  0  0  0  0
   13.6210    8.6162   15.1885 H   0  0  0  0  0  0  0  0  0  0  0  0
   14.1225    8.3630   13.7173 H   0  0  0  0  0  0  0  0  0  0  0  0
   15.1684    9.8355   14.6652 C   0  0  0  0  0  0  0  0  0  0  0  0
   15.2699    9.9754   15.6194 H   0  0  0  0  0  0  0  0  0  0  0  0
   15.9538    9.3719   14.3342 H   0  0  0  0  0  0  0  0  0  0  0  0
   13.5059   11.2666   13.8347 C   0  0  0  0  0  0  0  0  0  0  0  0
   13.2654   11.6933   12.9966 H   0  0  0  0  0  0  0  0  0  0  0  0
   13.1552   11.8041   14.5615 H   0  0  0  0  0  0  0  0  0  0  0  0
   14.9903   11.1657   13.9458 C   0  0  0  0  0  0  0  0  0  0  0  0
   15.4089   11.1527   13.0715 H   0  0  0  0  0  0  0  0  0  0  0  0
   15.3560   11.8992   14.4641 H   0  0  0  0  0  0  0  0  0  0  0  0
    9.7618    7.1197   15.6598 N   0  0  0  0  0  0  0  0  0  0  0  0
   10.0301    4.6719   14.2256 C   0  0  0  0  0  0  0  0  0  0  0  0
    7.4852    5.3457   15.3746 C   0  0  0  0  0  0  0  0  0  0  0  0
    8.5355    7.0318   13.0278 B   0  0  0  0  0  0  0  0  0  0  0  0
    7.9311    6.3804   12.4271 H   0  0  0  0  0  0  0  0  0  0  0  0
    9.5161    7.3229   12.4895 H   0  0  0  0  0  0  0  0  0  0  0  0
    7.9213    7.9031   13.2389 H   0  0  0  0  0  0  0  0  0  0  0  0
  1  7  1  0  0  0  0
  2 73  2  0  0  0  0
  3 13  1  0  0  0  0
  4  5  1  0  0  0  0
  6 11  4  0  0  0  0
  7 61  1  0  0  0  0
  8  1  1  0  0  0  0
  9 10  1  0  0  0  0
 11 12  1  0  0  0  0
 13  6  1  0  0  0  0
 14 13  1  0  0  0  0
 15  6  4  0  0  0  0
 16 15  1  0  0  0  0
 17 18  1  0  0  0  0
 19  3  4  0  0  0  0
 20 19  1  0  0  0  0
 21 15  4  0  0  0  0
 22 21  1  0  0  0  0
 23 24  1  0  0  0  0
 25 11  4  0  0  0  0
 26 25  1  0  0  0  0
 27  3  4  0  0  0  0
 28 27  1  0  0  0  0
 29  9  4  0  0  0  0
 30 29  1  0  0  0  0
 31 23  4  0  0  0  0
 32 31  1  0  0  0  0
 33  4  4  0  0  0  0
 34 33  1  0  0  0  0
 35 21  4  0  0  0  0
 36 35  1  0  0  0  0
 37 17  4  0  0  0  0
 38 37  1  0  0  0  0
 39 27  4  0  0  0  0
 40 39  1  0  0  0  0
 41 33  4  0  0  0  0
 42 41  1  0  0  0  0
 43  8  1  0  0  0  0
 44 43  1  0  0  0  0
 45 43  1  0  0  0  0
 46 29  4  0  0  0  0
 47 46  1  0  0  0  0
 48 39  4  0  0  0  0
 49 48  1  0  0  0  0
 50 43  1  0  0  0  0
 51 50  1  0  0  0  0
 52 50  1  0  0  0  0
 53  8  1  0  0  0  0
 54 53  1  0  0  0  0
 55 53  1  0  0  0  0
 56 19  4  0  0  0  0
 57 56  1  0  0  0  0
 58 50  1  0  0  0  0
 59 58  1  0  0  0  0
 60 58  1  0  0  0  0
 61 62  1  0  0  0  0
 63 61  1  0  0  0  0
 64 61  1  0  0  0  0
 65 64  1  0  0  0  0
 66 64  1  0  0  0  0
 67  7  1  0  0  0  0
 68 67  1  0  0  0  0
 69 67  1  0  0  0  0
 70 64  1  0  0  0  0
 71 70  1  0  0  0  0
 72 70  1  0  0  0  0
 73  1  1  0  0  0  0
 74  2  1  0  0  0  0
 75  2  1  0  0  0  0
 76  2  1  0  0  0  0
 77 76  1  0  0  0  0
 78  1  1  0  0  0  0
 79  1  1  0  0  0  0
 80 77  1  0  0  0  0
 81152  2  0  0  0  0
 82 92  1  0  0  0  0
 83 84  1  0  0  0  0
 85 90  4  0  0  0  0
 86 80  1  0  0  0  0
 87 80  1  0  0  0  0
 88 89  1  0  0  0  0
 90 91  1  0  0  0  0
 92 85  1  0  0  0  0
 93 92  1  0  0  0  0
 94 85  4  0  0  0  0
 95 94  1  0  0  0  0
 96 97  1  0  0  0  0
 98 82  4  0  0  0  0
 99 98  1  0  0  0  0
100 94  4  0  0  0  0
101100  1  0  0  0  0
102103  1  0  0  0  0
104 90  4  0  0  0  0
105104  1  0  0  0  0
106 82  4  0  0  0  0
107106  1  0  0  0  0
108 88  4  0  0  0  0
109108  1  0  0  0  0
110102  4  0  0  0  0
111110  1  0  0  0  0
112 83  4  0  0  0  0
113112  1  0  0  0  0
114100  4  0  0  0  0
115114  1  0  0  0  0
116 96  4  0  0  0  0
117116  1  0  0  0  0
118106  4  0  0  0  0
119118  1  0  0  0  0
120112  4  0  0  0  0
121120  1  0  0  0  0
122 87  1  0  0  0  0
123122  1  0  0  0  0
124122  1  0  0  0  0
125108  4  0  0  0  0
126125  1  0  0  0  0
127118  4  0  0  0  0
128127  1  0  0  0  0
129122  1  0  0  0  0
130129  1  0  0  0  0
131129  1  0  0  0  0
132 87  1  0  0  0  0
133132  1  0  0  0  0
134132  1  0  0  0  0
135 98  4  0  0  0  0
136135  1  0  0  0  0
137129  1  0  0  0  0
138137  1  0  0  0  0
139137  1  0  0  0  0
140 86  1  0  0  0  0
141140  1  0  0  0  0
142140  1  0  0  0  0
143140  1  0  0  0  0
144143  1  0  0  0  0
145143  1  0  0  0  0
146 86  1  0  0  0  0
147146  1  0  0  0  0
148146  1  0  0  0  0
149143  1  0  0  0  0
150149  1  0  0  0  0
151149  1  0  0  0  0
152 80  1  0  0  0  0
153 81  1  0  0  0  0
154 81  1  0  0  0  0
155 81  1  0  0  0  0
156  1  1  0  0  0  0
157  1  1  0  0  0  0
158  1  1  0  0  0  0
  4 75  4  0  0  0  0
  9 74  4  0  0  0  0
 13 73  1  0  0  0  0
 17 75  4  0  0  0  0
 23 74  4  0  0  0  0
 25 35  4  0  0  0  0
 31 46  4  0  0  0  0
 37 41  4  0  0  0  0
 48 56  4  0  0  0  0
 53 58  1  0  0  0  0
 67 70  1  0  0  0  0
 76 78  1  0  0  0  0
 76 79  1  0  0  0  0
 78 80  1  0  0  0  0
 79 80  1  0  0  0  0
 80157  1  0  0  0  0
 80158  1  0  0  0  0
 83154  4  0  0  0  0
 88153  4  0  0  0  0
 92152  1  0  0  0  0
 96154  4  0  0  0  0
102153  4  0  0  0  0
104114  4  0  0  0  0
110125  4  0  0  0  0
116120  4  0  0  0  0
127135  4  0  0  0  0
132137  1  0  0  0  0
146149  1  0  0  0  0
155156  1  0  0  0  0
155157  1  0  0  0  0
155158  1  0  0  0  0
M  END
$$$$
ZAXJUG

From CSD data. Using bond type 'Any'. No disordered atoms. Largest molecule.
131142  0  0  0  0  0  0  0  0999 V2000
   -1.1797    5.2085    0.0000 Ba  0  0  0  0  0  0  0  0  0  0  0  0
   -2.2835    5.2346    3.3500 P   0  0  0  0  0  0  0  0  0  0  0  0
   -3.3337    6.7535   -0.8710 O   0  0  0  0  0  0  0  0  0  0  0  0
   -1.5100    6.3445    2.4638 N   0  0  0  0  0  0  0  0  0  0  0  0
   -2.9361    3.8131    2.2241 B   0  0  0  0  0  0  0  0  0  0  0  0
   -1.0025    7.5400    3.1411 C   0  0  0  0  0  0  0  0  0  0  0  0
   -0.7514    7.2955    4.0551 H   0  0  0  0  0  0  0  0  0  0  0  0
   -2.0140    8.6742    3.2071 C   0  0  0  0  0  0  0  0  0  0  0  0
   -1.9057    9.6234    4.2216 C   0  0  0  0  0  0  0  0  0  0  0  0
   -1.2243    9.5405    4.8501 H   0  0  0  0  0  0  0  0  0  0  0  0
   -2.7910   10.6847    4.3177 C   0  0  0  0  0  0  0  0  0  0  0  0
   -2.7073   11.2947    5.0151 H   0  0  0  0  0  0  0  0  0  0  0  0
   -3.7879   10.8430    3.3922 C   0  0  0  0  0  0  0  0  0  0  0  0
   -4.3569   11.5775    3.4266 H   0  0  0  0  0  0  0  0  0  0  0  0
   -3.9277    9.8932    2.4107 C   0  0  0  0  0  0  0  0  0  0  0  0
   -4.6257    9.9723    1.8008 H   0  0  0  0  0  0  0  0  0  0  0  0
   -3.0436    8.7992    2.3016 C   0  0  0  0  0  0  0  0  0  0  0  0
   -3.1555    8.1701    1.6258 H   0  0  0  0  0  0  0  0  0  0  0  0
    0.2447    8.0134    2.4135 C   0  0  0  0  0  0  0  0  0  0  0  0
    1.4783    8.0716    3.0392 C   0  0  0  0  0  0  0  0  0  0  0  0
    1.5409    7.8209    3.9331 H   0  0  0  0  0  0  0  0  0  0  0  0
    2.6123    8.4847    2.3863 C   0  0  0  0  0  0  0  0  0  0  0  0
    3.4221    8.5371    2.8397 H   0  0  0  0  0  0  0  0  0  0  0  0
    2.5403    8.8248    1.0432 C   0  0  0  0  0  0  0  0  0  0  0  0
    3.3110    9.0778    0.5883 H   0  0  0  0  0  0  0  0  0  0  0  0
    1.3266    8.7887    0.3760 C   0  0  0  0  0  0  0  0  0  0  0  0
    1.2721    9.0324   -0.5194 H   0  0  0  0  0  0  0  0  0  0  0  0
    0.1930    8.3843    1.0676 C   0  0  0  0  0  0  0  0  0  0  0  0
   -0.6236    8.3602    0.6228 H   0  0  0  0  0  0  0  0  0  0  0  0
   -3.6361    5.9107    4.3622 C   0  0  0  0  0  0  0  0  0  0  0  0
   -3.4197    6.7271    5.4542 C   0  0  0  0  0  0  0  0  0  0  0  0
   -2.5505    6.8944    5.7411 H   0  0  0  0  0  0  0  0  0  0  0  0
   -4.5040    7.3076    6.1329 C   0  0  0  0  0  0  0  0  0  0  0  0
   -4.3509    7.8605    6.8647 H   0  0  0  0  0  0  0  0  0  0  0  0
   -5.7880    7.0599    5.7167 C   0  0  0  0  0  0  0  0  0  0  0  0
   -6.5023    7.4558    6.1616 H   0  0  0  0  0  0  0  0  0  0  0  0
   -6.0246    6.2268    4.6449 C   0  0  0  0  0  0  0  0  0  0  0  0
   -6.8954    6.0418    4.3780 H   0  0  0  0  0  0  0  0  0  0  0  0
   -4.9732    5.6769    3.9791 C   0  0  0  0  0  0  0  0  0  0  0  0
   -5.1416    5.1282    3.2472 H   0  0  0  0  0  0  0  0  0  0  0  0
   -1.1549    4.5272    4.6075 C   0  0  0  0  0  0  0  0  0  0  0  0
    0.2163    4.5497    4.3794 C   0  0  0  0  0  0  0  0  0  0  0  0
    0.5512    4.9870    3.6304 H   0  0  0  0  0  0  0  0  0  0  0  0
    1.0924    3.9227    5.2647 C   0  0  0  0  0  0  0  0  0  0  0  0
    2.0056    3.9237    5.0897 H   0  0  0  0  0  0  0  0  0  0  0  0
    0.6144    3.3037    6.3912 C   0  0  0  0  0  0  0  0  0  0  0  0
    1.2035    2.9034    6.9881 H   0  0  0  0  0  0  0  0  0  0  0  0
   -0.7499    3.2773    6.6380 C   0  0  0  0  0  0  0  0  0  0  0  0
   -1.0754    2.8569    7.4014 H   0  0  0  0  0  0  0  0  0  0  0  0
   -1.6345    3.8801    5.7440 C   0  0  0  0  0  0  0  0  0  0  0  0
   -2.5489    3.8492    5.9076 H   0  0  0  0  0  0  0  0  0  0  0  0
   -4.7181    6.3663   -0.7476 C   0  0  0  0  0  0  0  0  0  0  0  0
   -5.0460    6.5500    0.1464 H   0  0  0  0  0  0  0  0  0  0  0  0
   -4.8269    5.4201   -0.9313 H   0  0  0  0  0  0  0  0  0  0  0  0
   -5.4541    7.1962   -1.7664 C   0  0  0  0  0  0  0  0  0  0  0  0
   -6.3774    7.3426   -1.5038 H   0  0  0  0  0  0  0  0  0  0  0  0
   -5.4323    6.7829   -2.6431 H   0  0  0  0  0  0  0  0  0  0  0  0
   -4.6577    8.4888   -1.7406 C   0  0  0  0  0  0  0  0  0  0  0  0
   -4.7317    8.9585   -2.5857 H   0  0  0  0  0  0  0  0  0  0  0  0
   -4.9640    9.0705   -1.0274 H   0  0  0  0  0  0  0  0  0  0  0  0
   -3.2510    8.0414   -1.4981 C   0  0  0  0  0  0  0  0  0  0  0  0
   -2.7661    7.9805   -2.3361 H   0  0  0  0  0  0  0  0  0  0  0  0
   -2.7910    8.6700   -0.9198 H   0  0  0  0  0  0  0  0  0  0  0  0
   -3.6113    3.0053    2.8268 H   0  0  0  0  0  0  0  0  0  0  0  0
   -2.0260    3.2903    1.8080 H   0  0  0  0  0  0  0  0  0  0  0  0
   -3.6646    4.2803    1.4062 H   0  0  0  0  0  0  0  0  0  0  0  0
   -0.0760    5.1824   -3.3500 P   0  0  0  0  0  0  0  0  0  0  0  0
    0.9743    3.6636    0.8710 O   0  0  0  0  0  0  0  0  0  0  0  0
   -0.8495    4.0725   -2.4638 N   0  0  0  0  0  0  0  0  0  0  0  0
    0.5766    6.6040   -2.2241 B   0  0  0  0  0  0  0  0  0  0  0  0
   -1.3569    2.8771   -3.1411 C   0  0  0  0  0  0  0  0  0  0  0  0
   -1.6080    3.1216   -4.0551 H   0  0  0  0  0  0  0  0  0  0  0  0
   -0.3455    1.7428   -3.2071 C   0  0  0  0  0  0  0  0  0  0  0  0
   -0.4537    0.7936   -4.2216 C   0  0  0  0  0  0  0  0  0  0  0  0
   -1.1352    0.8766   -4.8501 H   0  0  0  0  0  0  0  0  0  0  0  0
    0.4315   -0.2676   -4.3177 C   0  0  0  0  0  0  0  0  0  0  0  0
    0.3479   -0.8777   -5.0151 H   0  0  0  0  0  0  0  0  0  0  0  0
    1.4285   -0.4260   -3.3922 C   0  0  0  0  0  0  0  0  0  0  0  0
    1.9975   -1.1605   -3.4266 H   0  0  0  0  0  0  0  0  0  0  0  0
    1.5683    0.5239   -2.4107 C   0  0  0  0  0  0  0  0  0  0  0  0
    2.2663    0.4448   -1.8008 H   0  0  0  0  0  0  0  0  0  0  0  0
    0.6842    1.6178   -2.3016 C   0  0  0  0  0  0  0  0  0  0  0  0
    0.7960    2.2469   -1.6258 H   0  0  0  0  0  0  0  0  0  0  0  0
   -2.6041    2.4037   -2.4135 C   0  0  0  0  0  0  0  0  0  0  0  0
   -3.8377    2.3454   -3.0392 C   0  0  0  0  0  0  0  0  0  0  0  0
   -3.9003    2.5961   -3.9331 H   0  0  0  0  0  0  0  0  0  0  0  0
   -4.9717    1.9324   -2.3863 C   0  0  0  0  0  0  0  0  0  0  0  0
   -5.7815    1.8799   -2.8397 H   0  0  0  0  0  0  0  0  0  0  0  0
   -4.8998    1.5923   -1.0432 C   0  0  0  0  0  0  0  0  0  0  0  0
   -5.6704    1.3392   -0.5883 H   0  0  0  0  0  0  0  0  0  0  0  0
   -3.6861    1.6283   -0.3760 C   0  0  0  0  0  0  0  0  0  0  0  0
   -3.6315    1.3846    0.5194 H   0  0  0  0  0  0  0  0  0  0  0  0
   -2.5524    2.0328   -1.0676 C   0  0  0  0  0  0  0  0  0  0  0  0
   -1.7358    2.0568   -0.6228 H   0  0  0  0  0  0  0  0  0  0  0  0
    1.2767    4.5064   -4.3622 C   0  0  0  0  0  0  0  0  0  0  0  0
    1.0602    3.6900   -5.4542 C   0  0  0  0  0  0  0  0  0  0  0  0
    0.1911    3.5226   -5.7411 H   0  0  0  0  0  0  0  0  0  0  0  0
    2.1446    3.1094   -6.1329 C   0  0  0  0  0  0  0  0  0  0  0  0
    1.9915    2.5566   -6.8647 H   0  0  0  0  0  0  0  0  0  0  0  0
    3.4286    3.3571   -5.7167 C   0  0  0  0  0  0  0  0  0  0  0  0
    4.1429    2.9612   -6.1616 H   0  0  0  0  0  0  0  0  0  0  0  0
    3.6652    4.1902   -4.6449 C   0  0  0  0  0  0  0  0  0  0  0  0
    4.5360    4.3753   -4.3780 H   0  0  0  0  0  0  0  0  0  0  0  0
    2.6138    4.7402   -3.9791 C   0  0  0  0  0  0  0  0  0  0  0  0
    2.7821    5.2888   -3.2472 H   0  0  0  0  0  0  0  0  0  0  0  0
   -1.2045    5.8898   -4.6075 C   0  0  0  0  0  0  0  0  0  0  0  0
   -2.5757    5.8673   -4.3794 C   0  0  0  0  0  0  0  0  0  0  0  0
   -2.9107    5.4301   -3.6304 H   0  0  0  0  0  0  0  0  0  0  0  0
   -3.4519    6.4944   -5.2647 C   0  0  0  0  0  0  0  0  0  0  0  0
   -4.3650    6.4934   -5.0897 H   0  0  0  0  0  0  0  0  0  0  0  0
   -2.9738    7.1133   -6.3912 C   0  0  0  0  0  0  0  0  0  0  0  0
   -3.5629    7.5137   -6.9881 H   0  0  0  0  0  0  0  0  0  0  0  0
   -1.6095    7.1397   -6.6380 C   0  0  0  0  0  0  0  0  0  0  0  0
   -1.2840    7.5601   -7.4014 H   0  0  0  0  0  0  0  0  0  0  0  0
   -0.7249    6.5369   -5.7440 C   0  0  0  0  0  0  0  0  0  0  0  0
    0.1894    6.5678   -5.9076 H   0  0  0  0  0  0  0  0  0  0  0  0
    2.3587    4.0507    0.7476 C   0  0  0  0  0  0  0  0  0  0  0  0
    2.6866    3.8671   -0.1464 H   0  0  0  0  0  0  0  0  0  0  0  0
    2.4675    4.9969    0.9313 H   0  0  0  0  0  0  0  0  0  0  0  0
    3.0947    3.2209    1.7664 C   0  0  0  0  0  0  0  0  0  0  0  0
    4.0180    3.0745    1.5038 H   0  0  0  0  0  0  0  0  0  0  0  0
    3.0729    3.6341    2.6431 H   0  0  0  0  0  0  0  0  0  0  0  0
    2.2983    1.9283    1.7406 C   0  0  0  0  0  0  0  0  0  0  0  0
    2.3723    1.4585    2.5857 H   0  0  0  0  0  0  0  0  0  0  0  0
    2.6046    1.3465    1.0274 H   0  0  0  0  0  0  0  0  0  0  0  0
    0.8916    2.3757    1.4981 C   0  0  0  0  0  0  0  0  0  0  0  0
    0.4066    2.4366    2.3361 H   0  0  0  0  0  0  0  0  0  0  0  0
    0.4316    1.7471    0.9198 H   0  0  0  0  0  0  0  0  0  0  0  0
    1.2519    7.4118   -2.8268 H   0  0  0  0  0  0  0  0  0  0  0  0
   -0.3334    7.1267   -1.8080 H   0  0  0  0  0  0  0  0  0  0  0  0
    1.3052    6.1368   -1.4062 H   0  0  0  0  0  0  0  0  0  0  0  0
  1  3  1  0  0  0  0
  2  4  2  0  0  0  0
  3 52  1  0  0  0  0
  4  1  1  0  0  0  0
  5  2  1  0  0  0  0
  6  4  1  0  0  0  0
  7  6  1  0  0  0  0
  8  6  1  0  0  0  0
  9  8  4  0  0  0  0
 10  9  1  0  0  0  0
 11  9  4  0  0  0  0
 12 11  1  0  0  0  0
 13 11  4  0  0  0  0
 14 13  1  0  0  0  0
 15 13  4  0  0  0  0
 16 15  1  0  0  0  0
 17  8  4  0  0  0  0
 18 17  1  0  0  0  0
 19  6  1  0  0  0  0
 20 19  4  0  0  0  0
 21 20  1  0  0  0  0
 22 20  4  0  0  0  0
 23 22  1  0  0  0  0
 24 22  4  0  0  0  0
 25 24  1  0  0  0  0
 26 24  4  0  0  0  0
 27 26  1  0  0  0  0
 28 19  4  0  0  0  0
 29 28  1  0  0  0  0
 30  2  1  0  0  0  0
 31 30  4  0  0  0  0
 32 31  1  0  0  0  0
 33 31  4  0  0  0  0
 34 33  1  0  0  0  0
 35 33  4  0  0  0  0
 36 35  1  0  0  0  0
 37 35  4  0  0  0  0
 38 37  1  0  0  0  0
 39 30  4  0  0  0  0
 40 39  1  0  0  0  0
 41  2  1  0  0  0  0
 42 41  4  0  0  0  0
 43 42  1  0  0  0  0
 44 42  4  0  0  0  0
 45 44  1  0  0  0  0
 46 44  4  0  0  0  0
 47 46  1  0  0  0  0
 48 46  4  0  0  0  0
 49 48  1  0  0  0  0
 50 41  4  0  0  0  0
 51 50  1  0  0  0  0
 52 53  1  0  0  0  0
 54 52  1  0  0  0  0
 55 52  1  0  0  0  0
 56 55  1  0  0  0  0
 57 55  1  0  0  0  0
 58 55  1  0  0  0  0
 59 58  1  0  0  0  0
 60 58  1  0  0  0  0
 61  3  1  0  0  0  0
 62 61  1  0  0  0  0
 63 61  1  0  0  0  0
 64  5  1  0  0  0  0
 65  1  1  0  0  0  0
 66  5  1  0  0  0  0
 67 69  2  0  0  0  0
 68  1  1  0  0  0  0
 69  1  1  0  0  0  0
 70 67  1  0  0  0  0
 71 69  1  0  0  0  0
 72 71  1  0  0  0  0
 73 71  1  0  0  0  0
 74 73  4  0  0  0  0
 75 74  1  0  0  0  0
 76 74  4  0  0  0  0
 77 76  1  0  0  0  0
 78 76  4  0  0  0  0
 79 78  1  0  0  0  0
 80 78  4  0  0  0  0
 81 80  1  0  0  0  0
 82 73  4  0  0  0  0
 83 82  1  0  0  0  0
 84 71  1  0  0  0  0
 85 84  4  0  0  0  0
 86 85  1  0  0  0  0
 87 85  4  0  0  0  0
 88 87  1  0  0  0  0
 89 87  4  0  0  0  0
 90 89  1  0  0  0  0
 91 89  4  0  0  0  0
 92 91  1  0  0  0  0
 93 84  4  0  0  0  0
 94 93  1  0  0  0  0
 95 67  1  0  0  0  0
 96 95  4  0  0  0  0
 97 96  1  0  0  0  0
 98 96  4  0  0  0  0
 99 98  1  0  0  0  0
100 98  4  0  0  0  0
101100  1  0  0  0  0
102100  4  0  0  0  0
103102  1  0  0  0  0
104 95  4  0  0  0  0
105104  1  0  0  0  0
106 67  1  0  0  0  0
107106  4  0  0  0  0
108107  1  0  0  0  0
109107  4  0  0  0  0
110109  1  0  0  0  0
111109  4  0  0  0  0
112111  1  0  0  0  0
113111  4  0  0  0  0
114113  1  0  0  0  0
115106  4  0  0  0  0
116115  1  0  0  0  0
117 68  1  0  0  0  0
118117  1  0  0  0  0
119117  1  0  0  0  0
120117  1  0  0  0  0
121120  1  0  0  0  0
122120  1  0  0  0  0
123120  1  0  0  0  0
124123  1  0  0  0  0
125123  1  0  0  0  0
126 68  1  0  0  0  0
127126  1  0  0  0  0
128126  1  0  0  0  0
129 70  1  0  0  0  0
130  1  1  0  0  0  0
131 70  1  0  0  0  0
  5 65  1  0  0  0  0
 15 17  4  0  0  0  0
 26 28  4  0  0  0  0
 37 39  4  0  0  0  0
 48 50  4  0  0  0  0
 58 61  1  0  0  0  0
 70130  1  0  0  0  0
 80 82  4  0  0  0  0
 91 93  4  0  0  0  0
102104  4  0  0  0  0
113115  4  0  0  0  0
123126  1  0  0  0  0
M  END
$$$$
ZAXKER

From CSD data. Using bond type 'Any'. No disordered atoms. Largest molecule.
131142  0  0  0  0  0  0  0  0999 V2000
    3.9921    5.2264    0.0000 Sr  0  0  0  0  0  0  0  0  0  0  0  0
    2.9834    5.2634    3.2309 P   0  0  0  0  0  0  0  0  0  0  0  0
    6.0692    3.8403    0.8130 O   0  0  0  0  0  0  0  0  0  0  0  0
    3.7687    6.3543    2.3209 N   0  0  0  0  0  0  0  0  0  0  0  0
    2.3480    3.8581    2.0959 B   0  0  0  0  0  0  0  0  0  0  0  0
    4.2743    7.5474    3.0144 C   0  0  0  0  0  0  0  0  0  0  0  0
    4.5193    7.2838    3.9259 H   0  0  0  0  0  0  0  0  0  0  0  0
    3.2696    8.6984    3.1115 C   0  0  0  0  0  0  0  0  0  0  0  0
    2.2038    8.8079    2.2506 C   0  0  0  0  0  0  0  0  0  0  0  0
    2.0579    8.1494    1.6092 H   0  0  0  0  0  0  0  0  0  0  0  0
    1.3447    9.8946    2.3308 C   0  0  0  0  0  0  0  0  0  0  0  0
    0.6395    9.9628    1.7273 H   0  0  0  0  0  0  0  0  0  0  0  0
    1.5089   10.8689    3.2803 C   0  0  0  0  0  0  0  0  0  0  0  0
    0.9269   11.5934    3.3239 H   0  0  0  0  0  0  0  0  0  0  0  0
    2.5555   10.7513    4.1693 C   0  0  0  0  0  0  0  0  0  0  0  0
    2.6759   11.3931    4.8304 H   0  0  0  0  0  0  0  0  0  0  0  0
    3.4305    9.6740    4.0792 C   0  0  0  0  0  0  0  0  0  0  0  0
    4.1374    9.6093    4.6813 H   0  0  0  0  0  0  0  0  0  0  0  0
    5.5476    8.0311    2.3055 C   0  0  0  0  0  0  0  0  0  0  0  0
    6.7617    8.0509    2.9567 C   0  0  0  0  0  0  0  0  0  0  0  0
    6.8068    7.7800    3.8443 H   0  0  0  0  0  0  0  0  0  0  0  0
    7.9129    8.4667    2.3167 C   0  0  0  0  0  0  0  0  0  0  0  0
    8.7244    8.4752    2.7711 H   0  0  0  0  0  0  0  0  0  0  0  0
    7.8480    8.8680    0.9945 C   0  0  0  0  0  0  0  0  0  0  0  0
    8.6211    9.1340    0.5514 H   0  0  0  0  0  0  0  0  0  0  0  0
    6.6437    8.8751    0.3348 C   0  0  0  0  0  0  0  0  0  0  0  0
    6.5988    9.1531   -0.5514 H   0  0  0  0  0  0  0  0  0  0  0  0
    5.5004    8.4682    0.9875 C   0  0  0  0  0  0  0  0  0  0  0  0
    4.6859    8.4855    0.5387 H   0  0  0  0  0  0  0  0  0  0  0  0
    1.6194    5.9436    4.2354 C   0  0  0  0  0  0  0  0  0  0  0  0
    0.3104    5.6921    3.8514 C   0  0  0  0  0  0  0  0  0  0  0  0
    0.1397    5.1424    3.1213 H   0  0  0  0  0  0  0  0  0  0  0  0
   -0.7539    6.2641    4.5603 C   0  0  0  0  0  0  0  0  0  0  0  0
   -1.6280    6.0851    4.2973 H   0  0  0  0  0  0  0  0  0  0  0  0
   -0.5262    7.0766    5.6265 C   0  0  0  0  0  0  0  0  0  0  0  0
   -1.2409    7.4556    6.0837 H   0  0  0  0  0  0  0  0  0  0  0  0
    0.7609    7.3355    6.0246 C   0  0  0  0  0  0  0  0  0  0  0  0
    0.9192    7.8867    6.7575 H   0  0  0  0  0  0  0  0  0  0  0  0
    1.8474    6.7638    5.3241 C   0  0  0  0  0  0  0  0  0  0  0  0
    2.7193    6.9407    5.5970 H   0  0  0  0  0  0  0  0  0  0  0  0
    4.1120    4.5617    4.4900 C   0  0  0  0  0  0  0  0  0  0  0  0
    3.6321    3.8838    5.6139 C   0  0  0  0  0  0  0  0  0  0  0  0
    2.7154    3.8357    5.7658 H   0  0  0  0  0  0  0  0  0  0  0  0
    4.5094    3.2830    6.5043 C   0  0  0  0  0  0  0  0  0  0  0  0
    4.1810    2.8428    7.2540 H   0  0  0  0  0  0  0  0  0  0  0  0
    5.8595    3.3407    6.2778 C   0  0  0  0  0  0  0  0  0  0  0  0
    6.4478    2.9408    6.8784 H   0  0  0  0  0  0  0  0  0  0  0  0
    6.3473    3.9869    5.1652 C   0  0  0  0  0  0  0  0  0  0  0  0
    7.2630    4.0091    5.0076 H   0  0  0  0  0  0  0  0  0  0  0  0
    5.4805    4.6071    4.2776 C   0  0  0  0  0  0  0  0  0  0  0  0
    5.8192    5.0548    3.5363 H   0  0  0  0  0  0  0  0  0  0  0  0
    7.4338    4.2378    0.6991 C   0  0  0  0  0  0  0  0  0  0  0  0
    7.5318    5.1777    0.9185 H   0  0  0  0  0  0  0  0  0  0  0  0
    7.7533    4.0964   -0.2054 H   0  0  0  0  0  0  0  0  0  0  0  0
    8.2063    3.3870    1.6683 C   0  0  0  0  0  0  0  0  0  0  0  0
    8.1817    3.7581    2.5643 H   0  0  0  0  0  0  0  0  0  0  0  0
    9.1290    3.2792    1.3898 H   0  0  0  0  0  0  0  0  0  0  0  0
    7.4425    2.0770    1.5867 C   0  0  0  0  0  0  0  0  0  0  0  0
    7.7287    1.5535    0.8215 H   0  0  0  0  0  0  0  0  0  0  0  0
    7.5607    1.5527    2.3927 H   0  0  0  0  0  0  0  0  0  0  0  0
    6.0285    2.5181    1.4348 C   0  0  0  0  0  0  0  0  0  0  0  0
    5.5374    1.8962    0.8763 H   0  0  0  0  0  0  0  0  0  0  0  0
    5.5943    2.5652    2.3013 H   0  0  0  0  0  0  0  0  0  0  0  0
    1.8066    4.1693    1.1816 H   0  0  0  0  0  0  0  0  0  0  0  0
    3.2956    3.4146    1.7302 H   0  0  0  0  0  0  0  0  0  0  0  0
    1.7520    3.0850    2.6867 H   0  0  0  0  0  0  0  0  0  0  0  0
    5.0009    5.1893   -3.2309 P   0  0  0  0  0  0  0  0  0  0  0  0
    1.9150    6.6124   -0.8130 O   0  0  0  0  0  0  0  0  0  0  0  0
    4.2156    4.0985   -2.3209 N   0  0  0  0  0  0  0  0  0  0  0  0
    5.6362    6.5946   -2.0959 B   0  0  0  0  0  0  0  0  0  0  0  0
    3.7099    2.9054   -3.0144 C   0  0  0  0  0  0  0  0  0  0  0  0
    3.4650    3.1690   -3.9259 H   0  0  0  0  0  0  0  0  0  0  0  0
    4.7146    1.7544   -3.1115 C   0  0  0  0  0  0  0  0  0  0  0  0
    5.7805    1.6448   -2.2506 C   0  0  0  0  0  0  0  0  0  0  0  0
    5.9263    2.3034   -1.6092 H   0  0  0  0  0  0  0  0  0  0  0  0
    6.6395    0.5581   -2.3308 C   0  0  0  0  0  0  0  0  0  0  0  0
    7.3447    0.4900   -1.7273 H   0  0  0  0  0  0  0  0  0  0  0  0
    6.4754   -0.4162   -3.2803 C   0  0  0  0  0  0  0  0  0  0  0  0
    7.0573   -1.1407   -3.3239 H   0  0  0  0  0  0  0  0  0  0  0  0
    5.4288   -0.2985   -4.1693 C   0  0  0  0  0  0  0  0  0  0  0  0
    5.3083   -0.9403   -4.8304 H   0  0  0  0  0  0  0  0  0  0  0  0
    4.5537    0.7787   -4.0792 C   0  0  0  0  0  0  0  0  0  0  0  0
    3.8468    0.8435   -4.6813 H   0  0  0  0  0  0  0  0  0  0  0  0
    2.4367    2.4217   -2.3055 C   0  0  0  0  0  0  0  0  0  0  0  0
    1.2225    2.4018   -2.9567 C   0  0  0  0  0  0  0  0  0  0  0  0
    1.1775    2.6728   -3.8443 H   0  0  0  0  0  0  0  0  0  0  0  0
    0.0713    1.9861   -2.3167 C   0  0  0  0  0  0  0  0  0  0  0  0
   -0.7401    1.9775   -2.7711 H   0  0  0  0  0  0  0  0  0  0  0  0
    0.1362    1.5847   -0.9945 C   0  0  0  0  0  0  0  0  0  0  0  0
   -0.6368    1.3187   -0.5514 H   0  0  0  0  0  0  0  0  0  0  0  0
    1.3406    1.5777   -0.3348 C   0  0  0  0  0  0  0  0  0  0  0  0
    1.3855    1.2997    0.5514 H   0  0  0  0  0  0  0  0  0  0  0  0
    2.4838    1.9846   -0.9875 C   0  0  0  0  0  0  0  0  0  0  0  0
    3.2983    1.9672   -0.5387 H   0  0  0  0  0  0  0  0  0  0  0  0
    6.3649    4.5092   -4.2354 C   0  0  0  0  0  0  0  0  0  0  0  0
    7.6738    4.7607   -3.8514 C   0  0  0  0  0  0  0  0  0  0  0  0
    7.8445    5.3104   -3.1213 H   0  0  0  0  0  0  0  0  0  0  0  0
    8.7382    4.1887   -4.5603 C   0  0  0  0  0  0  0  0  0  0  0  0
    9.6122    4.3677   -4.2973 H   0  0  0  0  0  0  0  0  0  0  0  0
    8.5105    3.3762   -5.6265 C   0  0  0  0  0  0  0  0  0  0  0  0
    9.2252    2.9971   -6.0837 H   0  0  0  0  0  0  0  0  0  0  0  0
    7.2234    3.1173   -6.0246 C   0  0  0  0  0  0  0  0  0  0  0  0
    7.0650    2.5661   -6.7575 H   0  0  0  0  0  0  0  0  0  0  0  0
    6.1368    3.6890   -5.3241 C   0  0  0  0  0  0  0  0  0  0  0  0
    5.2650    3.5121   -5.5970 H   0  0  0  0  0  0  0  0  0  0  0  0
    3.8722    5.8911   -4.4900 C   0  0  0  0  0  0  0  0  0  0  0  0
    4.3521    6.5689   -5.6139 C   0  0  0  0  0  0  0  0  0  0  0  0
    5.2688    6.6170   -5.7658 H   0  0  0  0  0  0  0  0  0  0  0  0
    3.4749    7.1698   -6.5043 C   0  0  0  0  0  0  0  0  0  0  0  0
    3.8033    7.6099   -7.2540 H   0  0  0  0  0  0  0  0  0  0  0  0
    2.1247    7.1120   -6.2778 C   0  0  0  0  0  0  0  0  0  0  0  0
    1.5365    7.5120   -6.8784 H   0  0  0  0  0  0  0  0  0  0  0  0
    1.6370    6.4658   -5.1652 C   0  0  0  0  0  0  0  0  0  0  0  0
    0.7213    6.4437   -5.0076 H   0  0  0  0  0  0  0  0  0  0  0  0
    2.5038    5.8457   -4.2776 C   0  0  0  0  0  0  0  0  0  0  0  0
    2.1650    5.3979   -3.5363 H   0  0  0  0  0  0  0  0  0  0  0  0
    0.5505    6.2150   -0.6991 C   0  0  0  0  0  0  0  0  0  0  0  0
    0.4524    5.2751   -0.9185 H   0  0  0  0  0  0  0  0  0  0  0  0
    0.2310    6.3564    0.2054 H   0  0  0  0  0  0  0  0  0  0  0  0
   -0.2220    7.0657   -1.6683 C   0  0  0  0  0  0  0  0  0  0  0  0
   -0.1974    6.6946   -2.5643 H   0  0  0  0  0  0  0  0  0  0  0  0
   -1.1447    7.1735   -1.3898 H   0  0  0  0  0  0  0  0  0  0  0  0
    0.5418    8.3758   -1.5867 C   0  0  0  0  0  0  0  0  0  0  0  0
    0.2556    8.8992   -0.8215 H   0  0  0  0  0  0  0  0  0  0  0  0
    0.4236    8.9001   -2.3927 H   0  0  0  0  0  0  0  0  0  0  0  0
    1.9558    7.9347   -1.4348 C   0  0  0  0  0  0  0  0  0  0  0  0
    2.4469    8.5566   -0.8763 H   0  0  0  0  0  0  0  0  0  0  0  0
    2.3899    7.8876   -2.3013 H   0  0  0  0  0  0  0  0  0  0  0  0
    6.1777    6.2835   -1.1816 H   0  0  0  0  0  0  0  0  0  0  0  0
    4.6887    7.0382   -1.7302 H   0  0  0  0  0  0  0  0  0  0  0  0
    6.2322    7.3678   -2.6867 H   0  0  0  0  0  0  0  0  0  0  0  0
  1  3  1  0  0  0  0
  2  4  2  0  0  0  0
  3 52  1  0  0  0  0
  4  1  1  0  0  0  0
  5  2  1  0  0  0  0
  6  4  1  0  0  0  0
  7  6  1  0  0  0  0
  8  6  1  0  0  0  0
  9  8  4  0  0  0  0
 10  9  1  0  0  0  0
 11  9  4  0  0  0  0
 12 11  1  0  0  0  0
 13 11  4  0  0  0  0
 14 13  1  0  0  0  0
 15 13  4  0  0  0  0
 16 15  1  0  0  0  0
 17  8  4  0  0  0  0
 18 17  1  0  0  0  0
 19  6  1  0  0  0  0
 20 19  4  0  0  0  0
 21 20  1  0  0  0  0
 22 20  4  0  0  0  0
 23 22  1  0  0  0  0
 24 22  4  0  0  0  0
 25 24  1  0  0  0  0
 26 24  4  0  0  0  0
 27 26  1  0  0  0  0
 28 19  4  0  0  0  0
 29 28  1  0  0  0  0
 30  2  1  0  0  0  0
 31 30  4  0  0  0  0
 32 31  1  0  0  0  0
 33 31  4  0  0  0  0
 34 33  1  0  0  0  0
 35 33  4  0  0  0  0
 36 35  1  0  0  0  0
 37 35  4  0  0  0  0
 38 37  1  0  0  0  0
 39 30  4  0  0  0  0
 40 39  1  0  0  0  0
 41  2  1  0  0  0  0
 42 41  4  0  0  0  0
 43 42  1  0  0  0  0
 44 42  4  0  0  0  0
 45 44  1  0  0  0  0
 46 44  4  0  0  0  0
 47 46  1  0  0  0  0
 48 46  4  0  0  0  0
 49 48  1  0  0  0  0
 50 41  4  0  0  0  0
 51 50  1  0  0  0  0
 52 53  1  0  0  0  0
 54 52  1  0  0  0  0
 55 52  1  0  0  0  0
 56 55  1  0  0  0  0
 57 55  1  0  0  0  0
 58 55  1  0  0  0  0
 59 58  1  0  0  0  0
 60 58  1  0  0  0  0
 61  3  1  0  0  0  0
 62 61  1  0  0  0  0
 63 61  1  0  0  0  0
 64  5  1  0  0  0  0
 65  1  1  0  0  0  0
 66  5  1  0  0  0  0
 67 69  2  0  0  0  0
 68  1  1  0  0  0  0
 69  1  1  0  0  0  0
 70 67  1  0  0  0  0
 71 69  1  0  0  0  0
 72 71  1  0  0  0  0
 73 71  1  0  0  0  0
 74 73  4  0  0  0  0
 75 74  1  0  0  0  0
 76 74  4  0  0  0  0
 77 76  1  0  0  0  0
 78 76  4  0  0  0  0
 79 78  1  0  0  0  0
 80 78  4  0  0  0  0
 81 80  1  0  0  0  0
 82 73  4  0  0  0  0
 83 82  1  0  0  0  0
 84 71  1  0  0  0  0
 85 84  4  0  0  0  0
 86 85  1  0  0  0  0
 87 85  4  0  0  0  0
 88 87  1  0  0  0  0
 89 87  4  0  0  0  0
 90 89  1  0  0  0  0
 91 89  4  0  0  0  0
 92 91  1  0  0  0  0
 93 84  4  0  0  0  0
 94 93  1  0  0  0  0
 95 67  1  0  0  0  0
 96 95  4  0  0  0  0
 97 96  1  0  0  0  0
 98 96  4  0  0  0  0
 99 98  1  0  0  0  0
100 98  4  0  0  0  0
101100  1  0  0  0  0
102100  4  0  0  0  0
103102  1  0  0  0  0
104 95  4  0  0  0  0
105104  1  0  0  0  0
106 67  1  0  0  0  0
107106  4  0  0  0  0
108107  1  0  0  0  0
109107  4  0  0  0  0
110109  1  0  0  0  0
111109  4  0  0  0  0
112111  1  0  0  0  0
113111  4  0  0  0  0
114113  1  0  0  0  0
115106  4  0  0  0  0
116115  1  0  0  0  0
117 68  1  0  0  0  0
118117  1  0  0  0  0
119117  1  0  0  0  0
120117  1  0  0  0  0
121120  1  0  0  0  0
122120  1  0  0  0  0
123120  1  0  0  0  0
124123  1  0  0  0  0
125123  1  0  0  0  0
126 68  1  0  0  0  0
127126  1  0  0  0  0
128126  1  0  0  0  0
129 70  1  0  0  0  0
130  1  1  0  0  0  0
131 70  1  0  0  0  0
  5 65  1  0  0  0  0
 15 17  4  0  0  0  0
 26 28  4  0  0  0  0
 37 39  4  0  0  0  0
 48 50  4  0  0  0  0
 58 61  1  0  0  0  0
 70130  1  0  0  0  0
 80 82  4  0  0  0  0
 91 93  4  0  0  0  0
102104  4  0  0  0  0
113115  4  0  0  0  0
123126  1  0  0  0  0
M  END
$$$$
ZAXKOB

From CSD data. Using bond type 'Any'. No disordered atoms. Largest molecule.
131140  0  0  0  0  0  0  0  0999 V2000
    4.1001    5.2795    0.0000 Ca  0  2  0  0  0  0  0  0  0  0  0  0
    3.1862    5.2878    3.0989 P   0  0  0  0  0  0  0  0  0  0  0  0
    3.9598    6.3830    2.1868 N   0  0  0  0  0  0  0  0  0  0  0  0
    2.5487    3.8897    1.9455 B   0  5  0  0  0  0  0  0  0  0  0  0
    2.0165    4.4056    1.0595 H   0  0  0  0  0  0  0  0  0  0  0  0
    3.4832    3.4249    1.5017 H   0  0  0  0  0  0  0  0  0  0  0  0
    1.9978    3.1837    2.5106 H   0  0  0  0  0  0  0  0  0  0  0  0
    2.0865    6.5729   -0.7606 O   0  0  0  0  0  0  0  0  0  0  0  0
    4.4787    7.5730    2.8873 C   0  0  0  0  0  0  0  0  0  0  0  0
    4.7220    7.3012    3.7973 H   0  0  0  0  0  0  0  0  0  0  0  0
    5.7450    8.0617    2.1956 C   0  0  0  0  0  0  0  0  0  0  0  0
    5.6843    8.6273    0.9289 C   0  0  0  0  0  0  0  0  0  0  0  0
    4.8600    8.7262    0.5092 H   0  0  0  0  0  0  0  0  0  0  0  0
    6.8360    9.0458    0.2832 C   0  0  0  0  0  0  0  0  0  0  0  0
    6.7838    9.4040   -0.5736 H   0  0  0  0  0  0  0  0  0  0  0  0
    8.0599    8.9308    0.9087 C   0  0  0  0  0  0  0  0  0  0  0  0
    8.8328    9.2165    0.4764 H   0  0  0  0  0  0  0  0  0  0  0  0
    8.1354    8.3921    2.1766 C   0  0  0  0  0  0  0  0  0  0  0  0
    8.9591    8.3202    2.6023 H   0  0  0  0  0  0  0  0  0  0  0  0
    6.9806    7.9583    2.8160 C   0  0  0  0  0  0  0  0  0  0  0  0
    7.0379    7.5942    3.6700 H   0  0  0  0  0  0  0  0  0  0  0  0
    3.4780    8.7217    2.9971 C   0  0  0  0  0  0  0  0  0  0  0  0
    2.3427    8.8017    2.2143 C   0  0  0  0  0  0  0  0  0  0  0  0
    2.1459    8.1176    1.6167 H   0  0  0  0  0  0  0  0  0  0  0  0
    1.4909    9.8953    2.3125 C   0  0  0  0  0  0  0  0  0  0  0  0
    0.7327    9.9382    1.7768 H   0  0  0  0  0  0  0  0  0  0  0  0
    1.7613   10.9185    3.1988 C   0  0  0  0  0  0  0  0  0  0  0  0
    1.1968   11.6552    3.2539 H   0  0  0  0  0  0  0  0  0  0  0  0
    2.8776   10.8337    4.0012 C   0  0  0  0  0  0  0  0  0  0  0  0
    3.0597   11.5098    4.6132 H   0  0  0  0  0  0  0  0  0  0  0  0
    3.7282    9.7505    3.9036 C   0  0  0  0  0  0  0  0  0  0  0  0
    4.4794    9.7067    4.4503 H   0  0  0  0  0  0  0  0  0  0  0  0
    1.8262    5.9622    4.1196 C   0  0  0  0  0  0  0  0  0  0  0  0
    0.5097    5.7156    3.7420 C   0  0  0  0  0  0  0  0  0  0  0  0
    0.3351    5.1782    3.0034 H   0  0  0  0  0  0  0  0  0  0  0  0
   -0.5463    6.2635    4.4588 C   0  0  0  0  0  0  0  0  0  0  0  0
   -1.4217    6.0870    4.1998 H   0  0  0  0  0  0  0  0  0  0  0  0
   -0.3031    7.0660    5.5468 C   0  0  0  0  0  0  0  0  0  0  0  0
   -1.0118    7.4392    6.0191 H   0  0  0  0  0  0  0  0  0  0  0  0
    0.9997    7.3157    5.9384 C   0  0  0  0  0  0  0  0  0  0  0  0
    1.1633    7.8524    6.6802 H   0  0  0  0  0  0  0  0  0  0  0  0
    2.0695    6.7694    5.2308 C   0  0  0  0  0  0  0  0  0  0  0  0
    2.9430    6.9432    5.4989 H   0  0  0  0  0  0  0  0  0  0  0  0
    4.3153    4.5837    4.3569 C   0  0  0  0  0  0  0  0  0  0  0  0
    5.6890    4.6537    4.1576 C   0  0  0  0  0  0  0  0  0  0  0  0
    6.0258    5.1242    3.4291 H   0  0  0  0  0  0  0  0  0  0  0  0
    6.5642    4.0269    5.0373 C   0  0  0  0  0  0  0  0  0  0  0  0
    7.4820    4.0808    4.8938 H   0  0  0  0  0  0  0  0  0  0  0  0
    6.0773    3.3251    6.1230 C   0  0  0  0  0  0  0  0  0  0  0  0
    6.6651    2.9061    6.7090 H   0  0  0  0  0  0  0  0  0  0  0  0
    4.7110    3.2482    6.3346 C   0  0  0  0  0  0  0  0  0  0  0  0
    4.3800    2.7813    7.0676 H   0  0  0  0  0  0  0  0  0  0  0  0
    3.8335    3.8669    5.4547 C   0  0  0  0  0  0  0  0  0  0  0  0
    2.9163    3.8029    5.5974 H   0  0  0  0  0  0  0  0  0  0  0  0
    2.1126    7.9058   -1.3360 C   0  0  0  0  0  0  0  0  0  0  0  0
    2.5096    7.8855   -2.2204 H   0  0  0  0  0  0  0  0  0  0  0  0
    2.6294    8.5071   -0.7775 H   0  0  0  0  0  0  0  0  0  0  0  0
    0.6803    8.3567   -1.4113 C   0  0  0  0  0  0  0  0  0  0  0  0
    0.5334    8.9314   -2.1779 H   0  0  0  0  0  0  0  0  0  0  0  0
    0.4193    8.8307   -0.6051 H   0  0  0  0  0  0  0  0  0  0  0  0
   -0.0869    7.0444   -1.5508 C   0  0  0  0  0  0  0  0  0  0  0  0
   -1.0011    7.1321   -1.2375 H   0  0  0  0  0  0  0  0  0  0  0  0
   -0.0915    6.7321   -2.4695 H   0  0  0  0  0  0  0  0  0  0  0  0
    0.7131    6.1318   -0.6631 C   0  0  0  0  0  0  0  0  0  0  0  0
    0.4021    6.1912    0.2532 H   0  0  0  0  0  0  0  0  0  0  0  0
    0.6302    5.2123   -0.9596 H   0  0  0  0  0  0  0  0  0  0  0  0
    5.0139    5.2713   -3.0989 P   0  0  0  0  0  0  0  0  0  0  0  0
    4.2403    4.1760   -2.1868 N   0  0  0  0  0  0  0  0  0  0  0  0
    5.6514    6.6693   -1.9455 B   0  5  0  0  0  0  0  0  0  0  0  0
    6.1836    6.1535   -1.0595 H   0  0  0  0  0  0  0  0  0  0  0  0
    4.7169    7.1342   -1.5017 H   0  0  0  0  0  0  0  0  0  0  0  0
    6.2023    7.3753   -2.5106 H   0  0  0  0  0  0  0  0  0  0  0  0
    6.1136    3.9861    0.7606 O   0  0  0  0  0  0  0  0  0  0  0  0
    3.7214    2.9860   -2.8873 C   0  0  0  0  0  0  0  0  0  0  0  0
    3.4781    3.2578   -3.7973 H   0  0  0  0  0  0  0  0  0  0  0  0
    2.4551    2.4973   -2.1956 C   0  0  0  0  0  0  0  0  0  0  0  0
    2.5158    1.9317   -0.9289 C   0  0  0  0  0  0  0  0  0  0  0  0
    3.3401    1.8328   -0.5092 H   0  0  0  0  0  0  0  0  0  0  0  0
    1.3641    1.5133   -0.2832 C   0  0  0  0  0  0  0  0  0  0  0  0
    1.4164    1.1550    0.5736 H   0  0  0  0  0  0  0  0  0  0  0  0
    0.1402    1.6282   -0.9087 C   0  0  0  0  0  0  0  0  0  0  0  0
   -0.6327    1.3425   -0.4764 H   0  0  0  0  0  0  0  0  0  0  0  0
    0.0647    2.1670   -2.1766 C   0  0  0  0  0  0  0  0  0  0  0  0
   -0.7590    2.2389   -2.6023 H   0  0  0  0  0  0  0  0  0  0  0  0
    1.2195    2.6008   -2.8160 C   0  0  0  0  0  0  0  0  0  0  0  0
    1.1622    2.9649   -3.6700 H   0  0  0  0  0  0  0  0  0  0  0  0
    4.7221    1.8373   -2.9971 C   0  0  0  0  0  0  0  0  0  0  0  0
    5.8575    1.7573   -2.2143 C   0  0  0  0  0  0  0  0  0  0  0  0
    6.0542    2.4414   -1.6167 H   0  0  0  0  0  0  0  0  0  0  0  0
    6.7093    0.6638   -2.3125 C   0  0  0  0  0  0  0  0  0  0  0  0
    7.4674    0.6208   -1.7768 H   0  0  0  0  0  0  0  0  0  0  0  0
    6.4388   -0.3594   -3.1988 C   0  0  0  0  0  0  0  0  0  0  0  0
    7.0034   -1.0961   -3.2539 H   0  0  0  0  0  0  0  0  0  0  0  0
    5.3225   -0.2747   -4.0012 C   0  0  0  0  0  0  0  0  0  0  0  0
    5.1404   -0.9507   -4.6132 H   0  0  0  0  0  0  0  0  0  0  0  0
    4.4719    0.8086   -3.9036 C   0  0  0  0  0  0  0  0  0  0  0  0
    3.7208    0.8523   -4.4503 H   0  0  0  0  0  0  0  0  0  0  0  0
    6.3740    4.5969   -4.1196 C   0  0  0  0  0  0  0  0  0  0  0  0
    7.6904    4.8434   -3.7420 C   0  0  0  0  0  0  0  0  0  0  0  0
    7.8650    5.3808   -3.0034 H   0  0  0  0  0  0  0  0  0  0  0  0
    8.7464    4.2955   -4.4588 C   0  0  0  0  0  0  0  0  0  0  0  0
    9.6218    4.4720   -4.1998 H   0  0  0  0  0  0  0  0  0  0  0  0
    8.5033    3.4931   -5.5468 C   0  0  0  0  0  0  0  0  0  0  0  0
    9.2119    3.1198   -6.0191 H   0  0  0  0  0  0  0  0  0  0  0  0
    7.2004    3.2434   -5.9384 C   0  0  0  0  0  0  0  0  0  0  0  0
    7.0369    2.7067   -6.6802 H   0  0  0  0  0  0  0  0  0  0  0  0
    6.1306    3.7896   -5.2308 C   0  0  0  0  0  0  0  0  0  0  0  0
    5.2571    3.6159   -5.4989 H   0  0  0  0  0  0  0  0  0  0  0  0
    3.8848    5.9753   -4.3569 C   0  0  0  0  0  0  0  0  0  0  0  0
    2.5111    5.9054   -4.1576 C   0  0  0  0  0  0  0  0  0  0  0  0
    2.1743    5.4348   -3.4291 H   0  0  0  0  0  0  0  0  0  0  0  0
    1.6360    6.5322   -5.0373 C   0  0  0  0  0  0  0  0  0  0  0  0
    0.7181    6.4783   -4.8938 H   0  0  0  0  0  0  0  0  0  0  0  0
    2.1228    7.2340   -6.1230 C   0  0  0  0  0  0  0  0  0  0  0  0
    1.5351    7.6530   -6.7090 H   0  0  0  0  0  0  0  0  0  0  0  0
    3.4891    7.3108   -6.3346 C   0  0  0  0  0  0  0  0  0  0  0  0
    3.8201    7.7777   -7.0676 H   0  0  0  0  0  0  0  0  0  0  0  0
    4.3667    6.6922   -5.4547 C   0  0  0  0  0  0  0  0  0  0  0  0
    5.2838    6.7562   -5.5974 H   0  0  0  0  0  0  0  0  0  0  0  0
    6.0875    2.6532    1.3360 C   0  0  0  0  0  0  0  0  0  0  0  0
    5.6905    2.6735    2.2204 H   0  0  0  0  0  0  0  0  0  0  0  0
    5.5707    2.0519    0.7775 H   0  0  0  0  0  0  0  0  0  0  0  0
    7.5198    2.2023    1.4113 C   0  0  0  0  0  0  0  0  0  0  0  0
    7.6667    1.6276    2.1779 H   0  0  0  0  0  0  0  0  0  0  0  0
    7.7808    1.7283    0.6051 H   0  0  0  0  0  0  0  0  0  0  0  0
    8.2870    3.5146    1.5508 C   0  0  0  0  0  0  0  0  0  0  0  0
    9.2012    3.4270    1.2375 H   0  0  0  0  0  0  0  0  0  0  0  0
    8.2916    3.8269    2.4695 H   0  0  0  0  0  0  0  0  0  0  0  0
    7.4870    4.4273    0.6631 C   0  0  0  0  0  0  0  0  0  0  0  0
    7.7980    4.3678   -0.2532 H   0  0  0  0  0  0  0  0  0  0  0  0
    7.5699    5.3467    0.9596 H   0  0  0  0  0  0  0  0  0  0  0  0
  1  3  1  0  0  0  0
  2  3  2  0  0  0  0
  3  9  1  0  0  0  0
  4  2  1  0  0  0  0
  5  4  1  0  0  0  0
  6  4  1  0  0  0  0
  7  4  1  0  0  0  0
  8  1  1  0  0  0  0
  9 10  1  0  0  0  0
 11  9  1  0  0  0  0
 12 11  4  0  0  0  0
 13 12  1  0  0  0  0
 14 12  4  0  0  0  0
 15 14  1  0  0  0  0
 16 14  4  0  0  0  0
 17 16  1  0  0  0  0
 18 16  4  0  0  0  0
 19 18  1  0  0  0  0
 20 11  4  0  0  0  0
 21 20  1  0  0  0  0
 22  9  1  0  0  0  0
 23 22  4  0  0  0  0
 24 23  1  0  0  0  0
 25 23  4  0  0  0  0
 26 25  1  0  0  0  0
 27 25  4  0  0  0  0
 28 27  1  0  0  0  0
 29 27  4  0  0  0  0
 30 29  1  0  0  0  0
 31 22  4  0  0  0  0
 32 31  1  0  0  0  0
 33  2  1  0  0  0  0
 34 33  4  0  0  0  0
 35 34  1  0  0  0  0
 36 34  4  0  0  0  0
 37 36  1  0  0  0  0
 38 36  4  0  0  0  0
 39 38  1  0  0  0  0
 40 38  4  0  0  0  0
 41 40  1  0  0  0  0
 42 33  4  0  0  0  0
 43 42  1  0  0  0  0
 44  2  1  0  0  0  0
 45 44  4  0  0  0  0
 46 45  1  0  0  0  0
 47 45  4  0  0  0  0
 48 47  1  0  0  0  0
 49 47  4  0  0  0  0
 50 49  1  0  0  0  0
 51 49  4  0  0  0  0
 52 51  1  0  0  0  0
 53 44  4  0  0  0  0
 54 53  1  0  0  0  0
 55  8  1  0  0  0  0
 56 55  1  0  0  0  0
 57 55  1  0  0  0  0
 58 55  1  0  0  0  0
 59 58  1  0  0  0  0
 60 58  1  0  0  0  0
 61 58  1  0  0  0  0
 62 61  1  0  0  0  0
 63 61  1  0  0  0  0
 64  8  1  0  0  0  0
 65 64  1  0  0  0  0
 66 64  1  0  0  0  0
 67 68  2  0  0  0  0
 68  1  1  0  0  0  0
 69 67  1  0  0  0  0
 70 69  1  0  0  0  0
 71 69  1  0  0  0  0
 72 69  1  0  0  0  0
 73  1  1  0  0  0  0
 74 68  1  0  0  0  0
 75 74  1  0  0  0  0
 76 74  1  0  0  0  0
 77 76  4  0  0  0  0
 78 77  1  0  0  0  0
 79 77  4  0  0  0  0
 80 79  1  0  0  0  0
 81 79  4  0  0  0  0
 82 81  1  0  0  0  0
 83 81  4  0  0  0  0
 84 83  1  0  0  0  0
 85 76  4  0  0  0  0
 86 85  1  0  0  0  0
 87 74  1  0  0  0  0
 88 87  4  0  0  0  0
 89 88  1  0  0  0  0
 90 88  4  0  0  0  0
 91 90  1  0  0  0  0
 92 90  4  0  0  0  0
 93 92  1  0  0  0  0
 94 92  4  0  0  0  0
 95 94  1  0  0  0  0
 96 87  4  0  0  0  0
 97 96  1  0  0  0  0
 98 67  1  0  0  0  0
 99 98  4  0  0  0  0
100 99  1  0  0  0  0
101 99  4  0  0  0  0
102101  1  0  0  0  0
103101  4  0  0  0  0
104103  1  0  0  0  0
105103  4  0  0  0  0
106105  1  0  0  0  0
107 98  4  0  0  0  0
108107  1  0  0  0  0
109 67  1  0  0  0  0
110109  4  0  0  0  0
111110  1  0  0  0  0
112110  4  0  0  0  0
113112  1  0  0  0  0
114112  4  0  0  0  0
115114  1  0  0  0  0
116114  4  0  0  0  0
117116  1  0  0  0  0
118109  4  0  0  0  0
119118  1  0  0  0  0
120 73  1  0  0  0  0
121120  1  0  0  0  0
122120  1  0  0  0  0
123120  1  0  0  0  0
124123  1  0  0  0  0
125123  1  0  0  0  0
126123  1  0  0  0  0
127126  1  0  0  0  0
128126  1  0  0  0  0
129 73  1  0  0  0  0
130129  1  0  0  0  0
131129  1  0  0  0  0
 18 20  4  0  0  0  0
 29 31  4  0  0  0  0
 40 42  4  0  0  0  0
 51 53  4  0  0  0  0
 61 64  1  0  0  0  0
 83 85  4  0  0  0  0
 94 96  4  0  0  0  0
105107  4  0  0  0  0
116118  4  0  0  0  0
126129  1  0  0  0  0
M  CHG  3   1   2   4  -1  69  -1
M  END
$$$$
ZEJBEX

From CSD data. Using bond type 'Any'. No disordered atoms. Largest molecule.
194212  0  0  0  0  0  0  0  0999 V2000
    5.3086    3.2256    8.5490 Fe  0  3  0  0  0  0  0  0  0  0  0  0
    4.5642    1.6068    9.1181 O   0  0  0  0  0  0  0  0  0  0  0  0
    5.2034    0.8285   10.0257 C   0  0  0  0  0  0  0  0  0  0  0  0
    5.9414   -0.2793    9.6167 C   0  0  0  0  0  0  0  0  0  0  0  0
    5.9964   -0.4857    8.6912 H   0  0  0  0  0  0  0  0  0  0  0  0
    6.6059   -1.0964   10.5411 C   0  0  0  0  0  0  0  0  0  0  0  0
    7.1030   -1.8450   10.2308 H   0  0  0  0  0  0  0  0  0  0  0  0
    6.5752    6.2526    7.1988 B   0  5  0  0  0  0  0  0  0  0  0  0
    7.2080    7.6499    6.6117 C   0  0  0  0  0  0  0  0  0  0  0  0
    7.5387    8.6907    7.4905 C   0  0  0  0  0  0  0  0  0  0  0  0
    7.3484    8.5787    8.4149 H   0  0  0  0  0  0  0  0  0  0  0  0
    8.1286    9.8784    7.0793 C   0  0  0  0  0  0  0  0  0  0  0  0
    8.3236   10.5569    7.7153 H   0  0  0  0  0  0  0  0  0  0  0  0
    8.4344   10.0746    5.7503 C   0  0  0  0  0  0  0  0  0  0  0  0
    8.8438   10.8820    5.4597 H   0  0  0  0  0  0  0  0  0  0  0  0
    8.1311    9.0734    4.8555 C   0  0  0  0  0  0  0  0  0  0  0  0
    8.3354    9.1898    3.9344 H   0  0  0  0  0  0  0  0  0  0  0  0
    7.5308    7.8967    5.2832 C   0  0  0  0  0  0  0  0  0  0  0  0
    7.3315    7.2272    4.6373 H   0  0  0  0  0  0  0  0  0  0  0  0
    5.9197    5.3658    5.9455 C   0  0  0  0  0  0  0  0  0  0  0  0
    6.4681    5.5272    5.1373 H   0  0  0  0  0  0  0  0  0  0  0  0
    5.0138    5.7191    5.7612 H   0  0  0  0  0  0  0  0  0  0  0  0
    5.7847    3.5695    6.1864 P   0  0  0  0  0  0  0  0  0  0  0  0
    4.6644    2.8944    4.8991 C   0  0  0  0  0  0  0  0  0  0  0  0
    4.1448    3.6567    3.8466 C   0  0  0  0  0  0  0  0  0  0  0  0
    4.3436    4.5831    3.7886 H   0  0  0  0  0  0  0  0  0  0  0  0
    3.3369    3.0605    2.8872 C   0  0  0  0  0  0  0  0  0  0  0  0
    2.9898    3.5842    2.1734 H   0  0  0  0  0  0  0  0  0  0  0  0
    3.0339    1.7146    2.9607 C   0  0  0  0  0  0  0  0  0  0  0  0
    2.4913    1.3123    2.2940 H   0  0  0  0  0  0  0  0  0  0  0  0
    3.5266    0.9554    4.0123 C   0  0  0  0  0  0  0  0  0  0  0  0
    3.3087    0.0313    4.0726 H   0  0  0  0  0  0  0  0  0  0  0  0
    4.3343    1.5395    4.9772 C   0  0  0  0  0  0  0  0  0  0  0  0
    4.6651    1.0146    5.6966 H   0  0  0  0  0  0  0  0  0  0  0  0
    7.3803    2.8408    5.6608 C   0  0  0  0  0  0  0  0  0  0  0  0
    8.0558    3.2673    4.5222 C   0  0  0  0  0  0  0  0  0  0  0  0
    7.6884    3.9603    3.9859 H   0  0  0  0  0  0  0  0  0  0  0  0
    9.2617    2.6860    4.1680 C   0  0  0  0  0  0  0  0  0  0  0  0
    9.7190    2.9810    3.3883 H   0  0  0  0  0  0  0  0  0  0  0  0
    9.8057    1.6719    4.9487 C   0  0  0  0  0  0  0  0  0  0  0  0
   10.6431    1.2888    4.7140 H   0  0  0  0  0  0  0  0  0  0  0  0
    9.1285    1.2206    6.0628 C   0  0  0  0  0  0  0  0  0  0  0  0
    9.4894    0.5171    6.5869 H   0  0  0  0  0  0  0  0  0  0  0  0
    7.9189    1.7996    6.4160 C   0  0  0  0  0  0  0  0  0  0  0  0
    7.4524    1.4846    7.1802 H   0  0  0  0  0  0  0  0  0  0  0  0
    7.8603    5.4590    7.9072 C   0  0  0  0  0  0  0  0  0  0  0  0
    8.4522    6.1383    8.3162 H   0  0  0  0  0  0  0  0  0  0  0  0
    8.3774    5.0140    7.1900 H   0  0  0  0  0  0  0  0  0  0  0  0
    7.4684    4.2139    9.1787 P   0  0  0  0  0  0  0  0  0  0  0  0
    7.5292    5.0947   10.7877 C   0  0  0  0  0  0  0  0  0  0  0  0
    6.5195    4.9180   11.7250 C   0  0  0  0  0  0  0  0  0  0  0  0
    5.7931    4.3363   11.5324 H   0  0  0  0  0  0  0  0  0  0  0  0
    6.5665    5.5875   12.9436 C   0  0  0  0  0  0  0  0  0  0  0  0
    5.8684    5.4684   13.5763 H   0  0  0  0  0  0  0  0  0  0  0  0
    7.6291    6.4277   13.2386 C   0  0  0  0  0  0  0  0  0  0  0  0
    7.6556    6.8904   14.0687 H   0  0  0  0  0  0  0  0  0  0  0  0
    8.6460    6.5907   12.3219 C   0  0  0  0  0  0  0  0  0  0  0  0
    9.3793    7.1567   12.5280 H   0  0  0  0  0  0  0  0  0  0  0  0
    8.6085    5.9346   11.1047 C   0  0  0  0  0  0  0  0  0  0  0  0
    9.3154    6.0521   10.4808 H   0  0  0  0  0  0  0  0  0  0  0  0
    8.8889    3.0723    9.3003 C   0  0  0  0  0  0  0  0  0  0  0  0
    8.6939    1.8383    9.9182 C   0  0  0  0  0  0  0  0  0  0  0  0
    7.8583    1.6374   10.3229 H   0  0  0  0  0  0  0  0  0  0  0  0
    9.7162    0.8990    9.9435 C   0  0  0  0  0  0  0  0  0  0  0  0
    9.5726    0.0509   10.3503 H   0  0  0  0  0  0  0  0  0  0  0  0
   10.9487    1.1975    9.3744 C   0  0  0  0  0  0  0  0  0  0  0  0
   11.6512    0.5602    9.3963 H   0  0  0  0  0  0  0  0  0  0  0  0
   11.1476    2.4236    8.7778 C   0  0  0  0  0  0  0  0  0  0  0  0
   11.9923    2.6284    8.3941 H   0  0  0  0  0  0  0  0  0  0  0  0
   10.1249    3.3606    8.7329 C   0  0  0  0  0  0  0  0  0  0  0  0
   10.2695    4.1992    8.3129 H   0  0  0  0  0  0  0  0  0  0  0  0
    5.4176    6.6624    8.3503 C   0  0  0  0  0  0  0  0  0  0  0  0
    4.9363    7.4662    8.0322 H   0  0  0  0  0  0  0  0  0  0  0  0
    5.8867    6.9099    9.1858 H   0  0  0  0  0  0  0  0  0  0  0  0
    4.1836    5.3787    8.7476 P   0  0  0  0  0  0  0  0  0  0  0  0
    3.4884    5.7187   10.4051 C   0  0  0  0  0  0  0  0  0  0  0  0
    3.6928    6.9099   11.1003 C   0  0  0  0  0  0  0  0  0  0  0  0
    4.2184    7.6033   10.7165 H   0  0  0  0  0  0  0  0  0  0  0  0
    3.1246    7.0772   12.3592 C   0  0  0  0  0  0  0  0  0  0  0  0
    3.2806    7.8775   12.8449 H   0  0  0  0  0  0  0  0  0  0  0  0
    2.3355    6.0838   12.9052 C   0  0  0  0  0  0  0  0  0  0  0  0
    1.9257    6.2166   13.7507 H   0  0  0  0  0  0  0  0  0  0  0  0
    2.1416    4.8949   12.2221 C   0  0  0  0  0  0  0  0  0  0  0  0
    1.6084    4.2071   12.6048 H   0  0  0  0  0  0  0  0  0  0  0  0
    2.7232    4.7085   10.9863 C   0  0  0  0  0  0  0  0  0  0  0  0
    2.6016    3.8859   10.5268 H   0  0  0  0  0  0  0  0  0  0  0  0
    2.7464    5.7363    7.6643 C   0  0  0  0  0  0  0  0  0  0  0  0
    1.9907    6.9009    7.8370 C   0  0  0  0  0  0  0  0  0  0  0  0
    2.2015    7.5014    8.5443 H   0  0  0  0  0  0  0  0  0  0  0  0
    0.9337    7.1873    6.9817 C   0  0  0  0  0  0  0  0  0  0  0  0
    0.4185    7.9754    7.1089 H   0  0  0  0  0  0  0  0  0  0  0  0
    0.6309    6.3188    5.9422 C   0  0  0  0  0  0  0  0  0  0  0  0
   -0.0826    6.5182    5.3479 H   0  0  0  0  0  0  0  0  0  0  0  0
    1.3665    5.1691    5.7744 C   0  0  0  0  0  0  0  0  0  0  0  0
    1.1577    4.5753    5.0617 H   0  0  0  0  0  0  0  0  0  0  0  0
    2.4101    4.8687    6.6352 C   0  0  0  0  0  0  0  0  0  0  0  0
    2.8998    4.0621    6.5190 H   0  0  0  0  0  0  0  0  0  0  0  0
    6.4438   -3.2256   13.3819 Fe  0  3  0  0  0  0  0  0  0  0  0  0
    7.1881   -1.6068   12.8128 O   0  0  0  0  0  0  0  0  0  0  0  0
    6.5489   -0.8285   11.9052 C   0  0  0  0  0  0  0  0  0  0  0  0
    5.8109    0.2793   12.3142 C   0  0  0  0  0  0  0  0  0  0  0  0
    5.7559    0.4857   13.2397 H   0  0  0  0  0  0  0  0  0  0  0  0
    5.1464    1.0964   11.3898 C   0  0  0  0  0  0  0  0  0  0  0  0
    4.6493    1.8450   11.7001 H   0  0  0  0  0  0  0  0  0  0  0  0
    5.1771   -6.2526   14.7321 B   0  5  0  0  0  0  0  0  0  0  0  0
    4.5443   -7.6499   15.3192 C   0  0  0  0  0  0  0  0  0  0  0  0
    4.2136   -8.6907   14.4404 C   0  0  0  0  0  0  0  0  0  0  0  0
    4.4039   -8.5787   13.5160 H   0  0  0  0  0  0  0  0  0  0  0  0
    3.6237   -9.8784   14.8516 C   0  0  0  0  0  0  0  0  0  0  0  0
    3.4287  -10.5569   14.2156 H   0  0  0  0  0  0  0  0  0  0  0  0
    3.3180  -10.0746   16.1806 C   0  0  0  0  0  0  0  0  0  0  0  0
    2.9085  -10.8820   16.4712 H   0  0  0  0  0  0  0  0  0  0  0  0
    3.6212   -9.0734   17.0754 C   0  0  0  0  0  0  0  0  0  0  0  0
    3.4170   -9.1898   17.9965 H   0  0  0  0  0  0  0  0  0  0  0  0
    4.2216   -7.8967   16.6477 C   0  0  0  0  0  0  0  0  0  0  0  0
    4.4208   -7.2272   17.2936 H   0  0  0  0  0  0  0  0  0  0  0  0
    5.8326   -5.3658   15.9854 C   0  0  0  0  0  0  0  0  0  0  0  0
    5.2842   -5.5272   16.7936 H   0  0  0  0  0  0  0  0  0  0  0  0
    6.7385   -5.7191   16.1697 H   0  0  0  0  0  0  0  0  0  0  0  0
    5.9676   -3.5695   15.7445 P   0  0  0  0  0  0  0  0  0  0  0  0
    7.0879   -2.8944   17.0318 C   0  0  0  0  0  0  0  0  0  0  0  0
    7.6075   -3.6567   18.0843 C   0  0  0  0  0  0  0  0  0  0  0  0
    7.4088   -4.5831   18.1423 H   0  0  0  0  0  0  0  0  0  0  0  0
    8.4154   -3.0605   19.0437 C   0  0  0  0  0  0  0  0  0  0  0  0
    8.7625   -3.5842   19.7575 H   0  0  0  0  0  0  0  0  0  0  0  0
    8.7184   -1.7146   18.9702 C   0  0  0  0  0  0  0  0  0  0  0  0
    9.2610   -1.3123   19.6369 H   0  0  0  0  0  0  0  0  0  0  0  0
    8.2258   -0.9554   17.9186 C   0  0  0  0  0  0  0  0  0  0  0  0
    8.4436   -0.0313   17.8583 H   0  0  0  0  0  0  0  0  0  0  0  0
    7.4180   -1.5395   16.9537 C   0  0  0  0  0  0  0  0  0  0  0  0
    7.0872   -1.0146   16.2343 H   0  0  0  0  0  0  0  0  0  0  0  0
    4.3721   -2.8408   16.2701 C   0  0  0  0  0  0  0  0  0  0  0  0
    3.6965   -3.2673   17.4087 C   0  0  0  0  0  0  0  0  0  0  0  0
    4.0639   -3.9603   17.9450 H   0  0  0  0  0  0  0  0  0  0  0  0
    2.4906   -2.6860   17.7629 C   0  0  0  0  0  0  0  0  0  0  0  0
    2.0333   -2.9810   18.5426 H   0  0  0  0  0  0  0  0  0  0  0  0
    1.9467   -1.6719   16.9822 C   0  0  0  0  0  0  0  0  0  0  0  0
    1.1092   -1.2888   17.2169 H   0  0  0  0  0  0  0  0  0  0  0  0
    2.6238   -1.2206   15.8681 C   0  0  0  0  0  0  0  0  0  0  0  0
    2.2629   -0.5171   15.3440 H   0  0  0  0  0  0  0  0  0  0  0  0
    3.8334   -1.7996   15.5149 C   0  0  0  0  0  0  0  0  0  0  0  0
    4.2999   -1.4846   14.7507 H   0  0  0  0  0  0  0  0  0  0  0  0
    3.8921   -5.4590   14.0237 C   0  0  0  0  0  0  0  0  0  0  0  0
    3.3002   -6.1383   13.6147 H   0  0  0  0  0  0  0  0  0  0  0  0
    3.3749   -5.0140   14.7409 H   0  0  0  0  0  0  0  0  0  0  0  0
    4.2839   -4.2139   12.7522 P   0  0  0  0  0  0  0  0  0  0  0  0
    4.2231   -5.0947   11.1432 C   0  0  0  0  0  0  0  0  0  0  0  0
    5.2328   -4.9180   10.2059 C   0  0  0  0  0  0  0  0  0  0  0  0
    5.9593   -4.3363   10.3985 H   0  0  0  0  0  0  0  0  0  0  0  0
    5.1858   -5.5875    8.9873 C   0  0  0  0  0  0  0  0  0  0  0  0
    5.8839   -5.4684    8.3546 H   0  0  0  0  0  0  0  0  0  0  0  0
    4.1232   -6.4277    8.6923 C   0  0  0  0  0  0  0  0  0  0  0  0
    4.0967   -6.8904    7.8622 H   0  0  0  0  0  0  0  0  0  0  0  0
    3.1064   -6.5907    9.6090 C   0  0  0  0  0  0  0  0  0  0  0  0
    2.3730   -7.1567    9.4029 H   0  0  0  0  0  0  0  0  0  0  0  0
    3.1438   -5.9346   10.8262 C   0  0  0  0  0  0  0  0  0  0  0  0
    2.4370   -6.0521   11.4501 H   0  0  0  0  0  0  0  0  0  0  0  0
    2.8634   -3.0723   12.6306 C   0  0  0  0  0  0  0  0  0  0  0  0
    3.0585   -1.8383   12.0127 C   0  0  0  0  0  0  0  0  0  0  0  0
    3.8940   -1.6374   11.6080 H   0  0  0  0  0  0  0  0  0  0  0  0
    2.0362   -0.8990   11.9874 C   0  0  0  0  0  0  0  0  0  0  0  0
    2.1797   -0.0509   11.5806 H   0  0  0  0  0  0  0  0  0  0  0  0
    0.8036   -1.1975   12.5565 C   0  0  0  0  0  0  0  0  0  0  0  0
    0.1011   -0.5602   12.5346 H   0  0  0  0  0  0  0  0  0  0  0  0
    0.6047   -2.4236   13.1531 C   0  0  0  0  0  0  0  0  0  0  0  0
   -0.2400   -2.6284   13.5368 H   0  0  0  0  0  0  0  0  0  0  0  0
    1.6275   -3.3606   13.1980 C   0  0  0  0  0  0  0  0  0  0  0  0
    1.4828   -4.1992   13.6180 H   0  0  0  0  0  0  0  0  0  0  0  0
    6.3347   -6.6624   13.5806 C   0  0  0  0  0  0  0  0  0  0  0  0
    6.8160   -7.4662   13.8987 H   0  0  0  0  0  0  0  0  0  0  0  0
    5.8656   -6.9099   12.7451 H   0  0  0  0  0  0  0  0  0  0  0  0
    7.5688   -5.3787   13.1833 P   0  0  0  0  0  0  0  0  0  0  0  0
    8.2639   -5.7187   11.5258 C   0  0  0  0  0  0  0  0  0  0  0  0
    8.0595   -6.9099   10.8306 C   0  0  0  0  0  0  0  0  0  0  0  0
    7.5339   -7.6033   11.2144 H   0  0  0  0  0  0  0  0  0  0  0  0
    8.6277   -7.0772    9.5717 C   0  0  0  0  0  0  0  0  0  0  0  0
    8.4717   -7.8775    9.0860 H   0  0  0  0  0  0  0  0  0  0  0  0
    9.4168   -6.0838    9.0257 C   0  0  0  0  0  0  0  0  0  0  0  0
    9.8267   -6.2166    8.1802 H   0  0  0  0  0  0  0  0  0  0  0  0
    9.6107   -4.8949    9.7088 C   0  0  0  0  0  0  0  0  0  0  0  0
   10.1440   -4.2071    9.3261 H   0  0  0  0  0  0  0  0  0  0  0  0
    9.0291   -4.7085   10.9446 C   0  0  0  0  0  0  0  0  0  0  0  0
    9.1508   -3.8859   11.4041 H   0  0  0  0  0  0  0  0  0  0  0  0
    9.0059   -5.7363   14.2666 C   0  0  0  0  0  0  0  0  0  0  0  0
    9.7617   -6.9009   14.0939 C   0  0  0  0  0  0  0  0  0  0  0  0
    9.5508   -7.5014   13.3866 H   0  0  0  0  0  0  0  0  0  0  0  0
   10.8186   -7.1873   14.9492 C   0  0  0  0  0  0  0  0  0  0  0  0
   11.3338   -7.9754   14.8220 H   0  0  0  0  0  0  0  0  0  0  0  0
   11.1214   -6.3188   15.9887 C   0  0  0  0  0  0  0  0  0  0  0  0
   11.8349   -6.5182   16.5831 H   0  0  0  0  0  0  0  0  0  0  0  0
   10.3859   -5.1691   16.1565 C   0  0  0  0  0  0  0  0  0  0  0  0
   10.5946   -4.5753   16.8692 H   0  0  0  0  0  0  0  0  0  0  0  0
    9.3422   -4.8687   15.2957 C   0  0  0  0  0  0  0  0  0  0  0  0
    8.8525   -4.0621   15.4119 H   0  0  0  0  0  0  0  0  0  0  0  0
  1  2  1  0  0  0  0
  2  3  1  0  0  0  0
  3  4  4  0  0  0  0
  4  5  1  0  0  0  0
  6  4  4  0  0  0  0
  7  6  1  0  0  0  0
  8  9  1  0  0  0  0
  9 10  4  0  0  0  0
 10 11  1  0  0  0  0
 12 10  4  0  0  0  0
 13 12  1  0  0  0  0
 14 12  4  0  0  0  0
 15 14  1  0  0  0  0
 16 14  4  0  0  0  0
 17 16  1  0  0  0  0
 18  9  4  0  0  0  0
 19 18  1  0  0  0  0
 20  8  1  0  0  0  0
 21 20  1  0  0  0  0
 22 20  1  0  0  0  0
 23  1  1  0  0  0  0
 24 23  1  0  0  0  0
 25 24  4  0  0  0  0
 26 25  1  0  0  0  0
 27 25  4  0  0  0  0
 28 27  1  0  0  0  0
 29 27  4  0  0  0  0
 30 29  1  0  0  0  0
 31 29  4  0  0  0  0
 32 31  1  0  0  0  0
 33 24  4  0  0  0  0
 34 33  1  0  0  0  0
 35 23  1  0  0  0  0
 36 35  4  0  0  0  0
 37 36  1  0  0  0  0
 38 36  4  0  0  0  0
 39 38  1  0  0  0  0
 40 38  4  0  0  0  0
 41 40  1  0  0  0  0
 42 40  4  0  0  0  0
 43 42  1  0  0  0  0
 44 35  4  0  0  0  0
 45 44  1  0  0  0  0
 46  8  1  0  0  0  0
 47 46  1  0  0  0  0
 48 46  1  0  0  0  0
 49  1  1  0  0  0  0
 50 49  1  0  0  0  0
 51 50  4  0  0  0  0
 52 51  1  0  0  0  0
 53 51  4  0  0  0  0
 54 53  1  0  0  0  0
 55 53  4  0  0  0  0
 56 55  1  0  0  0  0
 57 55  4  0  0  0  0
 58 57  1  0  0  0  0
 59 50  4  0  0  0  0
 60 59  1  0  0  0  0
 61 49  1  0  0  0  0
 62 61  4  0  0  0  0
 63 62  1  0  0  0  0
 64 62  4  0  0  0  0
 65 64  1  0  0  0  0
 66 64  4  0  0  0  0
 67 66  1  0  0  0  0
 68 66  4  0  0  0  0
 69 68  1  0  0  0  0
 70 61  4  0  0  0  0
 71 70  1  0  0  0  0
 72  8  1  0  0  0  0
 73 72  1  0  0  0  0
 74 72  1  0  0  0  0
 75  1  1  0  0  0  0
 76 75  1  0  0  0  0
 77 76  4  0  0  0  0
 78 77  1  0  0  0  0
 79 77  4  0  0  0  0
 80 79  1  0  0  0  0
 81 79  4  0  0  0  0
 82 81  1  0  0  0  0
 83 81  4  0  0  0  0
 84 83  1  0  0  0  0
 85 76  4  0  0  0  0
 86 85  1  0  0  0  0
 87 75  1  0  0  0  0
 88 87  4  0  0  0  0
 89 88  1  0  0  0  0
 90 88  4  0  0  0  0
 91 90  1  0  0  0  0
 92 90  4  0  0  0  0
 93 92  1  0  0  0  0
 94 92  4  0  0  0  0
 95 94  1  0  0  0  0
 96 87  4  0  0  0  0
 97 96  1  0  0  0  0
 98 99  1  0  0  0  0
 99100  1  0  0  0  0
100  6  4  0  0  0  0
101100  4  0  0  0  0
102101  1  0  0  0  0
103  3  4  0  0  0  0
104103  1  0  0  0  0
105106  1  0  0  0  0
106107  4  0  0  0  0
107108  1  0  0  0  0
109107  4  0  0  0  0
110109  1  0  0  0  0
111109  4  0  0  0  0
112111  1  0  0  0  0
113111  4  0  0  0  0
114113  1  0  0  0  0
115106  4  0  0  0  0
116115  1  0  0  0  0
117105  1  0  0  0  0
118117  1  0  0  0  0
119117  1  0  0  0  0
120 98  1  0  0  0  0
121120  1  0  0  0  0
122121  4  0  0  0  0
123122  1  0  0  0  0
124122  4  0  0  0  0
125124  1  0  0  0  0
126124  4  0  0  0  0
127126  1  0  0  0  0
128126  4  0  0  0  0
129128  1  0  0  0  0
130121  4  0  0  0  0
131130  1  0  0  0  0
132120  1  0  0  0  0
133132  4  0  0  0  0
134133  1  0  0  0  0
135133  4  0  0  0  0
136135  1  0  0  0  0
137135  4  0  0  0  0
138137  1  0  0  0  0
139137  4  0  0  0  0
140139  1  0  0  0  0
141132  4  0  0  0  0
142141  1  0  0  0  0
143105  1  0  0  0  0
144143  1  0  0  0  0
145143  1  0  0  0  0
146 98  1  0  0  0  0
147146  1  0  0  0  0
148147  4  0  0  0  0
149148  1  0  0  0  0
150148  4  0  0  0  0
151150  1  0  0  0  0
152150  4  0  0  0  0
153152  1  0  0  0  0
154152  4  0  0  0  0
155154  1  0  0  0  0
156147  4  0  0  0  0
157156  1  0  0  0  0
158146  1  0  0  0  0
159158  4  0  0  0  0
160159  1  0  0  0  0
161159  4  0  0  0  0
162161  1  0  0  0  0
163161  4  0  0  0  0
164163  1  0  0  0  0
165163  4  0  0  0  0
166165  1  0  0  0  0
167158  4  0  0  0  0
168167  1  0  0  0  0
169105  1  0  0  0  0
170169  1  0  0  0  0
171169  1  0  0  0  0
172 98  1  0  0  0  0
173172  1  0  0  0  0
174173  4  0  0  0  0
175174  1  0  0  0  0
176174  4  0  0  0  0
177176  1  0  0  0  0
178176  4  0  0  0  0
179178  1  0  0  0  0
180178  4  0  0  0  0
181180  1  0  0  0  0
182173  4  0  0  0  0
183182  1  0  0  0  0
184172  1  0  0  0  0
185184  4  0  0  0  0
186185  1  0  0  0  0
187185  4  0  0  0  0
188187  1  0  0  0  0
189187  4  0  0  0  0
190189  1  0  0  0  0
191189  4  0  0  0  0
192191  1  0  0  0  0
193184  4  0  0  0  0
194193  1  0  0  0  0
 16 18  4  0  0  0  0
 20 23  1  0  0  0  0
 31 33  4  0  0  0  0
 42 44  4  0  0  0  0
 46 49  1  0  0  0  0
 57 59  4  0  0  0  0
 68 70  4  0  0  0  0
 72 75  1  0  0  0  0
 83 85  4  0  0  0  0
 94 96  4  0  0  0  0
101103  4  0  0  0  0
113115  4  0  0  0  0
117120  1  0  0  0  0
128130  4  0  0  0  0
139141  4  0  0  0  0
143146  1  0  0  0  0
154156  4  0  0  0  0
165167  4  0  0  0  0
169172  1  0  0  0  0
180182  4  0  0  0  0
191193  4  0  0  0  0
M  CHG  4   1   1   8  -1  98   1 105  -1
M  END
$$$$
ZEPZAV

From CSD data. Using bond type 'Any'. No disordered atoms. Largest molecule.
 72 92  0  0  0  0  0  0  0  0999 V2000
    4.4512    2.5071    3.8545 Ru  0  0  0  0  0  0  0  0  0  0  0  0
    2.2856    3.0549    3.7729 C   0  0  0  0  0  0  0  0  0  0  0  0
    3.2238    4.3708    3.6900 C   0  0  0  0  0  0  0  0  0  0  0  0
    4.4141    4.2595    2.4332 B   0  0  0  0  0  0  0  0  0  0  0  0
    4.0999    2.6800    1.5644 B   0  0  0  0  0  0  0  0  0  0  0  0
    2.7820    1.8407    2.5538 B   0  0  0  0  0  0  0  0  0  0  0  0
    1.6113    4.5074    3.1552 B   0  0  0  0  0  0  0  0  0  0  0  0
    2.9275    5.2512    2.2989 B   0  0  0  0  0  0  0  0  0  0  0  0
    3.4053    4.2002    0.9655 B   0  0  0  0  0  0  0  0  0  0  0  0
    2.4212    2.7526    1.0358 B   0  0  0  0  0  0  0  0  0  0  0  0
    1.2917    2.9074    2.4044 B   0  0  0  0  0  0  0  0  0  0  0  0
    1.7211    4.3260    1.4112 B   0  0  0  0  0  0  0  0  0  0  0  0
    4.7256    2.5506    5.7140 C   0  0  0  0  0  0  0  0  0  0  0  0
    4.9684    2.5724    6.8452 O   0  0  0  0  0  0  0  0  0  0  0  0
    6.2735    2.4345    3.6335 C   0  0  0  0  0  0  0  0  0  0  0  0
    7.4267    2.3825    3.4640 O   0  0  0  0  0  0  0  0  0  0  0  0
    3.3712   -0.0109    3.2669 Pt  0  0  0  0  0  0  0  0  0  0  0  0
    4.7726   -1.6242    4.2889 P   0  0  0  0  0  0  0  0  0  0  0  0
    4.8771   -1.3461    6.0567 C   0  0  0  0  0  0  0  0  0  0  0  0
    3.5685   -1.4259    6.7247 C   0  0  0  0  0  0  0  0  0  0  0  0
    4.6056   -3.4383    4.0956 C   0  0  0  0  0  0  0  0  0  0  0  0
    5.6688   -4.3163    4.7472 C   0  0  0  0  0  0  0  0  0  0  0  0
    6.5252   -1.2820    3.7717 C   0  0  0  0  0  0  0  0  0  0  0  0
    6.7299   -1.1006    2.3516 C   0  0  0  0  0  0  0  0  0  0  0  0
    1.6868   -1.0969    2.2487 P   0  0  0  0  0  0  0  0  0  0  0  0
    0.0281   -0.5757    2.7559 C   0  0  0  0  0  0  0  0  0  0  0  0
   -0.1580   -0.7305    4.2161 C   0  0  0  0  0  0  0  0  0  0  0  0
    1.6695   -2.9062    2.4973 C   0  0  0  0  0  0  0  0  0  0  0  0
    0.4972   -3.6754    1.8908 C   0  0  0  0  0  0  0  0  0  0  0  0
    1.6679   -0.9143    0.4482 C   0  0  0  0  0  0  0  0  0  0  0  0
    3.0152   -1.2747   -0.1883 C   0  0  0  0  0  0  0  0  0  0  0  0
    4.4383    0.7135    4.1408 H   0  0  0  0  0  0  0  0  0  0  0  0
    2.0277    2.7115    4.6304 H   0  0  0  0  0  0  0  0  0  0  0  0
    3.4522    4.7360    4.5476 H   0  0  0  0  0  0  0  0  0  0  0  0
    5.4490    4.5885    2.6103 H   0  0  0  0  0  0  0  0  0  0  0  0
    4.9111    2.0318    1.2028 H   0  0  0  0  0  0  0  0  0  0  0  0
    0.8811    5.0178    3.8030 H   0  0  0  0  0  0  0  0  0  0  0  0
    3.0129    6.3445    2.3855 H   0  0  0  0  0  0  0  0  0  0  0  0
    3.8766    4.5727    0.0452 H   0  0  0  0  0  0  0  0  0  0  0  0
    2.1437    2.0705    0.2185 H   0  0  0  0  0  0  0  0  0  0  0  0
    0.3339    2.3861    2.5488 H   0  0  0  0  0  0  0  0  0  0  0  0
    0.9082    4.7832    0.8274 H   0  0  0  0  0  0  0  0  0  0  0  0
    5.2705   -0.4850    6.2124 H   0  0  0  0  0  0  0  0  0  0  0  0
    5.4349   -2.0270    6.4372 H   0  0  0  0  0  0  0  0  0  0  0  0
    3.6867   -1.2747    7.6651 H   0  0  0  0  0  0  0  0  0  0  0  0
    3.1652   -2.2846    6.5853 H   0  0  0  0  0  0  0  0  0  0  0  0
    3.0008   -0.7426    6.3606 H   0  0  0  0  0  0  0  0  0  0  0  0
    4.6339   -3.6282    3.1552 H   0  0  0  0  0  0  0  0  0  0  0  0
    3.7480   -3.6863    4.4459 H   0  0  0  0  0  0  0  0  0  0  0  0
    5.4591   -5.2343    4.5626 H   0  0  0  0  0  0  0  0  0  0  0  0
    5.6559   -4.1700    5.6964 H   0  0  0  0  0  0  0  0  0  0  0  0
    6.5418   -4.1120    4.4057 H   0  0  0  0  0  0  0  0  0  0  0  0
    7.0680   -2.0197    4.0579 H   0  0  0  0  0  0  0  0  0  0  0  0
    6.8028   -0.4838    4.2274 H   0  0  0  0  0  0  0  0  0  0  0  0
    7.6624   -0.9228    2.1997 H   0  0  0  0  0  0  0  0  0  0  0  0
    6.2088   -0.3568    2.0428 H   0  0  0  0  0  0  0  0  0  0  0  0
    6.4740   -1.8927    1.8733 H   0  0  0  0  0  0  0  0  0  0  0  0
   -0.6152   -1.1308    2.3089 H   0  0  0  0  0  0  0  0  0  0  0  0
   -0.1075    0.3398    2.4998 H   0  0  0  0  0  0  0  0  0  0  0  0
   -1.0496   -0.4523    4.4383 H   0  0  0  0  0  0  0  0  0  0  0  0
    0.4749   -0.1742    4.6756 H   0  0  0  0  0  0  0  0  0  0  0  0
   -0.0323   -1.6448    4.4835 H   0  0  0  0  0  0  0  0  0  0  0  0
    1.6618   -3.0707    3.4427 H   0  0  0  0  0  0  0  0  0  0  0  0
    2.4770   -3.2618    2.1156 H   0  0  0  0  0  0  0  0  0  0  0  0
    0.5867   -4.6114    2.0804 H   0  0  0  0  0  0  0  0  0  0  0  0
    0.4899   -3.5411    0.9404 H   0  0  0  0  0  0  0  0  0  0  0  0
   -0.3249   -3.3500    2.2663 H   0  0  0  0  0  0  0  0  0  0  0  0
    1.4654    0.0000    0.2398 H   0  0  0  0  0  0  0  0  0  0  0  0
    0.9837   -1.4839    0.0891 H   0  0  0  0  0  0  0  0  0  0  0  0
    2.9460   -1.1562   -1.1388 H   0  0  0  0  0  0  0  0  0  0  0  0
    3.2277   -2.1914    0.0038 H   0  0  0  0  0  0  0  0  0  0  0  0
    3.7112   -0.7075    0.1544 H   0  0  0  0  0  0  0  0  0  0  0  0
  1  2  1  0  0  0  0
  2  3  1  0  0  0  0
  3  1  1  0  0  0  0
  4  1  1  0  0  0  0
  5  1  1  0  0  0  0
  6  1  1  0  0  0  0
  7  2  1  0  0  0  0
  8  3  1  0  0  0  0
  9  4  1  0  0  0  0
 10  5  1  0  0  0  0
 11  2  1  0  0  0  0
 12  7  1  0  0  0  0
 13  1  1  0  0  0  0
 14 13  3  0  0  0  0
 15  1  1  0  0  0  0
 16 15  3  0  0  0  0
 17  1  1  0  0  0  0
 18 17  1  0  0  0  0
 19 18  1  0  0  0  0
 20 19  1  0  0  0  0
 21 18  1  0  0  0  0
 22 21  1  0  0  0  0
 23 18  1  0  0  0  0
 24 23  1  0  0  0  0
 25 17  1  0  0  0  0
 26 25  1  0  0  0  0
 27 26  1  0  0  0  0
 28 25  1  0  0  0  0
 29 28  1  0  0  0  0
 30 25  1  0  0  0  0
 31 30  1  0  0  0  0
 32  1  1  0  0  0  0
 33  2  1  0  0  0  0
 34  3  1  0  0  0  0
 35  4  1  0  0  0  0
 36  5  1  0  0  0  0
 37  7  1  0  0  0  0
 38  8  1  0  0  0  0
 39  9  1  0  0  0  0
 40 10  1  0  0  0  0
 41 11  1  0  0  0  0
 42 12  1  0  0  0  0
 43 19  1  0  0  0  0
 44 19  1  0  0  0  0
 45 20  1  0  0  0  0
 46 20  1  0  0  0  0
 47 20  1  0  0  0  0
 48 21  1  0  0  0  0
 49 21  1  0  0  0  0
 50 22  1  0  0  0  0
 51 22  1  0  0  0  0
 52 22  1  0  0  0  0
 53 23  1  0  0  0  0
 54 23  1  0  0  0  0
 55 24  1  0  0  0  0
 56 24  1  0  0  0  0
 57 24  1  0  0  0  0
 58 26  1  0  0  0  0
 59 26  1  0  0  0  0
 60 27  1  0  0  0  0
 61 27  1  0  0  0  0
 62 27  1  0  0  0  0
 63 28  1  0  0  0  0
 64 28  1  0  0  0  0
 65 29  1  0  0  0  0
 66 29  1  0  0  0  0
 67 29  1  0  0  0  0
 68 30  1  0  0  0  0
 69 30  1  0  0  0  0
 70 31  1  0  0  0  0
 71 31  1  0  0  0  0
 72 31  1  0  0  0  0
  2  6  1  0  0  0  0
  3  4  1  0  0  0  0
  3  7  1  0  0  0  0
  4  5  1  0  0  0  0
  4  8  1  0  0  0  0
  5  6  1  0  0  0  0
  5  9  1  0  0  0  0
  6 10  1  0  0  0  0
  6 11  1  0  0  0  0
  6 17  1  0  0  0  0
  7  8  1  0  0  0  0
  7 11  1  0  0  0  0
  8  9  1  0  0  0  0
  8 12  1  0  0  0  0
  9 10  1  0  0  0  0
  9 12  1  0  0  0  0
 10 11  1  0  0  0  0
 10 12  1  0  0  0  0
 11 12  1  0  0  0  0
 17 32  1  0  0  0  0
M  END
$$$$
ZETFAF

From CSD data. Using bond type 'Any'. No disordered atoms. Largest molecule.
 59 83  0  0  0  0  0  0  0  0999 V2000
    3.2548    3.6998   -4.7430 Ru  0  0  0  0  0  0  0  0  0  0  0  0
    5.8919    5.0954   -3.0550 Cl  0  0  0  0  0  0  0  0  0  0  0  0
    5.2216    2.2557   -5.5090 P   0  0  0  0  0  0  0  0  0  0  0  0
    2.6964    2.6773   -2.4188 P   0  0  0  0  0  0  0  0  0  0  0  0
    2.0677    1.8806   -5.2716 O   0  0  0  0  0  0  0  0  0  0  0  0
    0.8989    3.2045   -6.5737 O   0  0  0  0  0  0  0  0  0  0  0  0
    1.1620    2.0274   -6.0841 C   0  0  0  0  0  0  0  0  0  0  0  0
    0.3590    0.9019   -6.6090 C   0  0  0  0  0  0  0  0  0  0  0  0
    0.6640   -0.3823   -6.1638 C   0  0  0  0  0  0  0  0  0  0  0  0
   -0.0499   -1.4472   -6.6832 C   0  0  0  0  0  0  0  0  0  0  0  0
   -1.0326   -1.2493   -7.6051 C   0  0  0  0  0  0  0  0  0  0  0  0
   -1.3566    0.0329   -8.0298 C   0  0  0  0  0  0  0  0  0  0  0  0
   -0.6728    1.1243   -7.5086 C   0  0  0  0  0  0  0  0  0  0  0  0
    6.2911    1.3378   -4.3534 C   0  0  0  0  0  0  0  0  0  0  0  0
    6.2014    1.5187   -3.0049 C   0  0  0  0  0  0  0  0  0  0  0  0
    7.0890    0.9097   -2.1146 C   0  0  0  0  0  0  0  0  0  0  0  0
    8.0459    0.1138   -2.5969 C   0  0  0  0  0  0  0  0  0  0  0  0
    8.1689   -0.1041   -3.9509 C   0  0  0  0  0  0  0  0  0  0  0  0
    7.2820    0.5168   -4.8413 C   0  0  0  0  0  0  0  0  0  0  0  0
    6.5533    3.0805   -6.4810 C   0  0  0  0  0  0  0  0  0  0  0  0
    7.5447    3.7378   -5.7687 C   0  0  0  0  0  0  0  0  0  0  0  0
    8.5550    4.4186   -6.4179 C   0  0  0  0  0  0  0  0  0  0  0  0
    8.5632    4.4452   -7.7906 C   0  0  0  0  0  0  0  0  0  0  0  0
    7.6218    3.7746   -8.5325 C   0  0  0  0  0  0  0  0  0  0  0  0
    6.6034    3.0984   -7.8648 C   0  0  0  0  0  0  0  0  0  0  0  0
    4.5466    1.0008   -6.6405 C   0  0  0  0  0  0  0  0  0  0  0  0
    3.8417    1.4372   -7.7720 C   0  0  0  0  0  0  0  0  0  0  0  0
    3.2709    0.5043   -8.6624 C   0  0  0  0  0  0  0  0  0  0  0  0
    3.3494   -0.8453   -8.3656 C   0  0  0  0  0  0  0  0  0  0  0  0
    4.0085   -1.2922   -7.2526 C   0  0  0  0  0  0  0  0  0  0  0  0
    4.6633   -0.3830   -6.3623 C   0  0  0  0  0  0  0  0  0  0  0  0
    1.0606    3.2580   -1.8382 C   0  0  0  0  0  0  0  0  0  0  0  0
    0.8698    3.9425   -0.6492 C   0  0  0  0  0  0  0  0  0  0  0  0
   -0.4474    4.3549   -0.2782 C   0  0  0  0  0  0  0  0  0  0  0  0
   -1.5116    4.0810   -1.0944 C   0  0  0  0  0  0  0  0  0  0  0  0
   -1.3332    3.3636   -2.2630 C   0  0  0  0  0  0  0  0  0  0  0  0
   -0.0481    2.9512   -2.6340 C   0  0  0  0  0  0  0  0  0  0  0  0
    3.7532    2.9306   -0.9553 C   0  0  0  0  0  0  0  0  0  0  0  0
    4.2670    1.8543   -0.2226 C   0  0  0  0  0  0  0  0  0  0  0  0
    5.0780    2.0953    0.8903 C   0  0  0  0  0  0  0  0  0  0  0  0
    5.4255    3.3781    1.2799 C   0  0  0  0  0  0  0  0  0  0  0  0
    4.9001    4.4556    0.5565 C   0  0  0  0  0  0  0  0  0  0  0  0
    4.0800    4.2384   -0.5565 C   0  0  0  0  0  0  0  0  0  0  0  0
    2.4205    0.8492   -2.3724 C   0  0  0  0  0  0  0  0  0  0  0  0
    3.0660    0.0355   -3.2461 C   0  0  0  0  0  0  0  0  0  0  0  0
    2.8639   -1.3311   -3.2090 C   0  0  0  0  0  0  0  0  0  0  0  0
    1.9831   -1.8835   -2.2815 C   0  0  0  0  0  0  0  0  0  0  0  0
    1.3740   -1.0600   -1.3541 C   0  0  0  0  0  0  0  0  0  0  0  0
    1.5735    0.3020   -1.4097 C   0  0  0  0  0  0  0  0  0  0  0  0
    4.4336    5.2135   -4.0641 B   0  0  0  0  0  0  0  0  0  0  0  0
    1.7623    4.2068   -6.0247 B   0  0  0  0  0  0  0  0  0  0  0  0
    2.8002    5.6840   -3.6838 B   0  0  0  0  0  0  0  0  0  0  0  0
    4.4582    5.4098   -5.8132 B   0  0  0  0  0  0  0  0  0  0  0  0
    3.1439    4.9222   -6.8019 B   0  0  0  0  0  0  0  0  0  0  0  0
    1.4152    5.2192   -4.6521 B   0  0  0  0  0  0  0  0  0  0  0  0
    3.9091    6.7285   -4.6688 B   0  0  0  0  0  0  0  0  0  0  0  0
    1.6591    5.8936   -6.3530 B   0  0  0  0  0  0  0  0  0  0  0  0
    3.2434    6.6399   -6.3141 B   0  0  0  0  0  0  0  0  0  0  0  0
    2.1685    6.8308   -4.9396 B   0  0  0  0  0  0  0  0  0  0  0  0
  1  3  1  0  0  0  0
  2 50  1  0  0  0  0
  3 14  1  0  0  0  0
  4  1  1  0  0  0  0
  5  1  1  0  0  0  0
  6  7  1  0  0  0  0
  7  5  2  0  0  0  0
  8  7  1  0  0  0  0
  9  8  4  0  0  0  0
 10  9  4  0  0  0  0
 11 10  4  0  0  0  0
 12 11  4  0  0  0  0
 13  8  4  0  0  0  0
 14 15  4  0  0  0  0
 15 16  4  0  0  0  0
 16 17  4  0  0  0  0
 17 18  4  0  0  0  0
 18 19  4  0  0  0  0
 19 14  4  0  0  0  0
 20  3  1  0  0  0  0
 21 20  4  0  0  0  0
 22 21  4  0  0  0  0
 23 22  4  0  0  0  0
 24 23  4  0  0  0  0
 25 20  4  0  0  0  0
 26  3  1  0  0  0  0
 27 26  4  0  0  0  0
 28 27  4  0  0  0  0
 29 28  4  0  0  0  0
 30 29  4  0  0  0  0
 31 26  4  0  0  0  0
 32  4  1  0  0  0  0
 33 32  4  0  0  0  0
 34 33  4  0  0  0  0
 35 34  4  0  0  0  0
 36 35  4  0  0  0  0
 37 32  4  0  0  0  0
 38  4  1  0  0  0  0
 39 38  4  0  0  0  0
 40 39  4  0  0  0  0
 41 40  4  0  0  0  0
 42 41  4  0  0  0  0
 43 38  4  0  0  0  0
 44  4  1  0  0  0  0
 45 44  4  0  0  0  0
 46 45  4  0  0  0  0
 47 46  4  0  0  0  0
 48 47  4  0  0  0  0
 49 44  4  0  0  0  0
 50  1  1  0  0  0  0
 51  1  1  0  0  0  0
 52  1  1  0  0  0  0
 53  1  1  0  0  0  0
 54  1  1  0  0  0  0
 55  1  1  0  0  0  0
 56 50  1  0  0  0  0
 57 51  1  0  0  0  0
 58 53  1  0  0  0  0
 59 52  1  0  0  0  0
  6 51  1  0  0  0  0
 12 13  4  0  0  0  0
 24 25  4  0  0  0  0
 30 31  4  0  0  0  0
 36 37  4  0  0  0  0
 42 43  4  0  0  0  0
 48 49  4  0  0  0  0
 50 52  1  0  0  0  0
 50 53  1  0  0  0  0
 51 54  1  0  0  0  0
 51 55  1  0  0  0  0
 52 55  1  0  0  0  0
 52 56  1  0  0  0  0
 53 54  1  0  0  0  0
 53 56  1  0  0  0  0
 54 57  1  0  0  0  0
 54 58  1  0  0  0  0
 55 57  1  0  0  0  0
 55 59  1  0  0  0  0
 56 58  1  0  0  0  0
 56 59  1  0  0  0  0
 57 58  1  0  0  0  0
 57 59  1  0  0  0  0
 58 59  1  0  0  0  0
M  END
$$$$
ZEVZOP

From CSD data. Using bond type 'Any'. No disordered atoms. Largest molecule.
 71 78  0  0  0  0  0  0  0  0999 V2000
    1.9681    4.0031    5.0713 Pt  0  0  0  0  0  0  0  0  0  0  0  0
    0.4310    4.5080    3.4462 P   0  0  0  0  0  0  0  0  0  0  0  0
    0.4042    4.3946    6.7067 P   0  0  0  0  0  0  0  0  0  0  0  0
    3.5242    4.2269    3.4190 P   0  0  0  0  0  0  0  0  0  0  0  0
    3.5187    4.1843    6.7314 P   0  0  0  0  0  0  0  0  0  0  0  0
   -0.3909    5.7674    3.8775 O   0  0  0  0  0  0  0  0  0  0  0  0
   -0.4816    5.6209    6.3326 O   0  0  0  0  0  0  0  0  0  0  0  0
    4.8427    4.9026    6.2988 O   0  0  0  0  0  0  0  0  0  0  0  0
    4.8970    4.8695    3.8398 O   0  0  0  0  0  0  0  0  0  0  0  0
   -1.5945    7.2039    5.1479 F   0  0  0  0  0  0  0  0  0  0  0  0
    0.6706    7.2960    5.2336 F   0  0  0  0  0  0  0  0  0  0  0  0
    5.8344    3.1235    5.0998 F   0  0  0  0  0  0  0  0  0  0  0  0
    6.7925    5.2003    5.0804 F   0  0  0  0  0  0  0  0  0  0  0  0
    5.6340    4.4939    5.1271 B   0  0  0  0  0  0  0  0  0  0  0  0
   -0.4258    6.5281    5.1674 B   0  0  0  0  0  0  0  0  0  0  0  0
    1.3750    4.9546    1.9173 C   0  0  0  0  0  0  0  0  0  0  0  0
    2.7823    5.4437    2.2680 C   0  0  0  0  0  0  0  0  0  0  0  0
    1.3213    4.8081    8.2447 C   0  0  0  0  0  0  0  0  0  0  0  0
    2.7306    5.3279    7.9070 C   0  0  0  0  0  0  0  0  0  0  0  0
   -0.7955    3.2676    2.9630 C   0  0  0  0  0  0  0  0  0  0  0  0
   -0.4354    2.1760    2.2278 C   0  0  0  0  0  0  0  0  0  0  0  0
   -1.3508    1.2026    1.9381 C   0  0  0  0  0  0  0  0  0  0  0  0
   -2.6344    1.3089    2.3629 C   0  0  0  0  0  0  0  0  0  0  0  0
   -2.9973    2.4312    3.0851 C   0  0  0  0  0  0  0  0  0  0  0  0
   -2.1101    3.4188    3.3917 C   0  0  0  0  0  0  0  0  0  0  0  0
   -0.7927    3.0880    7.1575 C   0  0  0  0  0  0  0  0  0  0  0  0
   -0.3195    1.9161    7.6602 C   0  0  0  0  0  0  0  0  0  0  0  0
   -1.2252    0.9215    8.0083 C   0  0  0  0  0  0  0  0  0  0  0  0
   -2.5315    1.1223    7.8667 C   0  0  0  0  0  0  0  0  0  0  0  0
   -3.0360    2.2918    7.3744 C   0  0  0  0  0  0  0  0  0  0  0  0
   -2.1499    3.3054    7.0068 C   0  0  0  0  0  0  0  0  0  0  0  0
    3.8060    2.7667    2.4122 C   0  0  0  0  0  0  0  0  0  0  0  0
    4.6495    2.8258    1.3354 C   0  0  0  0  0  0  0  0  0  0  0  0
    4.7710    1.7342    0.5053 C   0  0  0  0  0  0  0  0  0  0  0  0
    4.0606    0.5954    0.7300 C   0  0  0  0  0  0  0  0  0  0  0  0
    3.2051    0.5505    1.7952 C   0  0  0  0  0  0  0  0  0  0  0  0
    3.1048    1.6303    2.6564 C   0  0  0  0  0  0  0  0  0  0  0  0
    3.9738    2.6958    7.6407 C   0  0  0  0  0  0  0  0  0  0  0  0
    4.6914    2.7998    8.8202 C   0  0  0  0  0  0  0  0  0  0  0  0
    5.0965    1.6610    9.4632 C   0  0  0  0  0  0  0  0  0  0  0  0
    4.7868    0.4253    8.9838 C   0  0  0  0  0  0  0  0  0  0  0  0
    4.0859    0.3095    7.8355 C   0  0  0  0  0  0  0  0  0  0  0  0
    3.6939    1.4483    7.1821 C   0  0  0  0  0  0  0  0  0  0  0  0
    0.8968    5.6398    1.4445 H   0  0  0  0  0  0  0  0  0  0  0  0
    1.4372    4.1867    1.3445 H   0  0  0  0  0  0  0  0  0  0  0  0
    3.3126    5.5075    1.4705 H   0  0  0  0  0  0  0  0  0  0  0  0
    2.7411    6.3084    2.6798 H   0  0  0  0  0  0  0  0  0  0  0  0
    1.3889    4.0331    8.8046 H   0  0  0  0  0  0  0  0  0  0  0  0
    0.8376    5.4862    8.7227 H   0  0  0  0  0  0  0  0  0  0  0  0
    2.6725    6.2021    7.5134 H   0  0  0  0  0  0  0  0  0  0  0  0
    3.2674    5.3893    8.6994 H   0  0  0  0  0  0  0  0  0  0  0  0
    0.4744    2.1028    1.9303 H   0  0  0  0  0  0  0  0  0  0  0  0
   -1.1004    0.4371    1.4172 H   0  0  0  0  0  0  0  0  0  0  0  0
   -3.2676    0.6096    2.1836 H   0  0  0  0  0  0  0  0  0  0  0  0
   -3.9139    2.5092    3.3592 H   0  0  0  0  0  0  0  0  0  0  0  0
   -2.3680    4.1891    3.9009 H   0  0  0  0  0  0  0  0  0  0  0  0
    0.6241    1.7933    7.7849 H   0  0  0  0  0  0  0  0  0  0  0  0
   -0.9234    0.0709    8.3356 H   0  0  0  0  0  0  0  0  0  0  0  0
   -3.1506    0.4324    8.1161 H   0  0  0  0  0  0  0  0  0  0  0  0
   -3.9855    2.4218    7.3185 H   0  0  0  0  0  0  0  0  0  0  0  0
   -2.4663    4.1300    6.6314 H   0  0  0  0  0  0  0  0  0  0  0  0
    5.1703    3.6126    1.1522 H   0  0  0  0  0  0  0  0  0  0  0  0
    5.3500    1.7200   -0.2598 H   0  0  0  0  0  0  0  0  0  0  0  0
    4.1033   -0.1559    0.1364 H   0  0  0  0  0  0  0  0  0  0  0  0
    2.6980   -0.2434    1.9797 H   0  0  0  0  0  0  0  0  0  0  0  0
    2.5347    1.6114    3.4280 H   0  0  0  0  0  0  0  0  0  0  0  0
    4.9204    3.6669    9.1618 H   0  0  0  0  0  0  0  0  0  0  0  0
    5.5978    1.7460   10.2776 H   0  0  0  0  0  0  0  0  0  0  0  0
    5.0705   -0.3591    9.4580 H   0  0  0  0  0  0  0  0  0  0  0  0
    3.8531   -0.5505    7.4796 H   0  0  0  0  0  0  0  0  0  0  0  0
    3.2010    1.3822    6.3599 H   0  0  0  0  0  0  0  0  0  0  0  0
  1  2  1  0  0  0  0
  2  6  1  0  0  0  0
  3  1  1  0  0  0  0
  4  1  1  0  0  0  0
  5  1  1  0  0  0  0
  6 15  1  0  0  0  0
  7  3  1  0  0  0  0
  8  5  1  0  0  0  0
  9  4  1  0  0  0  0
 10 15  1  0  0  0  0
 11 15  1  0  0  0  0
 12 14  1  0  0  0  0
 13 14  1  0  0  0  0
 14  8  1  0  0  0  0
 15  7  1  0  0  0  0
 16  2  1  0  0  0  0
 17  4  1  0  0  0  0
 18  3  1  0  0  0  0
 19  5  1  0  0  0  0
 20  2  1  0  0  0  0
 21 20  4  0  0  0  0
 22 21  4  0  0  0  0
 23 22  4  0  0  0  0
 24 23  4  0  0  0  0
 25 20  4  0  0  0  0
 26  3  1  0  0  0  0
 27 26  4  0  0  0  0
 28 27  4  0  0  0  0
 29 28  4  0  0  0  0
 30 29  4  0  0  0  0
 31 26  4  0  0  0  0
 32  4  1  0  0  0  0
 33 32  4  0  0  0  0
 34 33  4  0  0  0  0
 35 34  4  0  0  0  0
 36 35  4  0  0  0  0
 37 32  4  0  0  0  0
 38  5  1  0  0  0  0
 39 38  4  0  0  0  0
 40 39  4  0  0  0  0
 41 40  4  0  0  0  0
 42 41  4  0  0  0  0
 43 38  4  0  0  0  0
 44 16  1  0  0  0  0
 45 16  1  0  0  0  0
 46 17  1  0  0  0  0
 47 17  1  0  0  0  0
 48 18  1  0  0  0  0
 49 18  1  0  0  0  0
 50 19  1  0  0  0  0
 51 19  1  0  0  0  0
 52 21  1  0  0  0  0
 53 22  1  0  0  0  0
 54 23  1  0  0  0  0
 55 24  1  0  0  0  0
 56 25  1  0  0  0  0
 57 27  1  0  0  0  0
 58 28  1  0  0  0  0
 59 29  1  0  0  0  0
 60 30  1  0  0  0  0
 61 31  1  0  0  0  0
 62 33  1  0  0  0  0
 63 34  1  0  0  0  0
 64 35  1  0  0  0  0
 65 36  1  0  0  0  0
 66 37  1  0  0  0  0
 67 39  1  0  0  0  0
 68 40  1  0  0  0  0
 69 41  1  0  0  0  0
 70 42  1  0  0  0  0
 71 43  1  0  0  0  0
  9 14  1  0  0  0  0
 16 17  1  0  0  0  0
 18 19  1  0  0  0  0
 24 25  4  0  0  0  0
 30 31  4  0  0  0  0
 36 37  4  0  0  0  0
 42 43  4  0  0  0  0
M  END
$$$$
ZEWMAS

From CSD data. Using bond type 'Any'. No disordered atoms. Largest molecule.
136142  0  0  0  0  0  0  0  0999 V2000
    6.6925   -0.5852   14.9137 P   0  0  0  0  0  0  0  0  0  0  0  0
    7.4038    1.2702   15.7168 P   0  0  0  0  0  0  0  0  0  0  0  0
    8.4007    0.6412   13.3140 O   0  0  0  0  0  0  0  0  0  0  0  0
    9.2588    2.4876   14.0736 O   0  0  0  0  0  0  0  0  0  0  0  0
    7.6115   -0.4708   13.4847 C   0  0  0  0  0  0  0  0  0  0  0  0
    8.3968    1.5116   14.3323 C   0  0  0  0  0  0  0  0  0  0  0  0
    7.7621   -1.5367   12.3695 B   0  0  0  0  0  0  0  0  0  0  0  0
    7.5574   -2.9391   12.5210 N   0  0  0  0  0  0  0  0  0  0  0  0
    8.2025   -1.3721   11.0152 N   0  0  0  0  0  0  0  0  0  0  0  0
    7.8755   -3.5672   11.3127 C   0  0  0  0  0  0  0  0  0  0  0  0
    7.8262   -4.5015   11.1478 H   0  0  0  0  0  0  0  0  0  0  0  0
    8.2597   -2.6390   10.4292 C   0  0  0  0  0  0  0  0  0  0  0  0
    8.5311   -2.8157    9.5351 H   0  0  0  0  0  0  0  0  0  0  0  0
    7.2438   -3.6989   13.6956 C   0  0  0  0  0  0  0  0  0  0  0  0
    8.2568   -3.9904   14.6125 C   0  0  0  0  0  0  0  0  0  0  0  0
    7.9277   -4.7607   15.7255 C   0  0  0  0  0  0  0  0  0  0  0  0
    8.5979   -4.9653   16.3666 H   0  0  0  0  0  0  0  0  0  0  0  0
    6.6475   -5.2295   15.9103 C   0  0  0  0  0  0  0  0  0  0  0  0
    6.4433   -5.7649   16.6674 H   0  0  0  0  0  0  0  0  0  0  0  0
    5.6636   -4.9266   15.0028 C   0  0  0  0  0  0  0  0  0  0  0  0
    4.7834   -5.2543   15.1452 H   0  0  0  0  0  0  0  0  0  0  0  0
    5.9277   -4.1494   13.8761 C   0  0  0  0  0  0  0  0  0  0  0  0
    9.6856   -3.5228   14.3874 C   0  0  0  0  0  0  0  0  0  0  0  0
    9.6721   -2.8294   13.6666 H   0  0  0  0  0  0  0  0  0  0  0  0
   10.2839   -2.8886   15.6363 C   0  0  0  0  0  0  0  0  0  0  0  0
    9.7068   -2.1565   15.9389 H   0  0  0  0  0  0  0  0  0  0  0  0
   11.1753   -2.5363   15.4279 H   0  0  0  0  0  0  0  0  0  0  0  0
   10.3558   -3.5630   16.3448 H   0  0  0  0  0  0  0  0  0  0  0  0
   10.5523   -4.6790   13.9069 C   0  0  0  0  0  0  0  0  0  0  0  0
   10.5530   -5.3892   14.5835 H   0  0  0  0  0  0  0  0  0  0  0  0
   11.4686   -4.3625   13.7644 H   0  0  0  0  0  0  0  0  0  0  0  0
   10.1914   -5.0300   13.0650 H   0  0  0  0  0  0  0  0  0  0  0  0
    4.8043   -3.9345   12.8004 C   0  0  0  0  0  0  0  0  0  0  0  0
    5.2485   -3.8162   11.9125 H   0  0  0  0  0  0  0  0  0  0  0  0
    4.1129   -2.6313   13.1520 C   0  0  0  0  0  0  0  0  0  0  0  0
    3.7875   -2.6726   14.0761 H   0  0  0  0  0  0  0  0  0  0  0  0
    3.3562   -2.4895   12.5467 H   0  0  0  0  0  0  0  0  0  0  0  0
    4.7466   -1.8895   13.0614 H   0  0  0  0  0  0  0  0  0  0  0  0
    3.8357   -5.0699   12.6808 C   0  0  0  0  0  0  0  0  0  0  0  0
    3.3501   -5.1759   13.5252 H   0  0  0  0  0  0  0  0  0  0  0  0
    4.3237   -5.8956   12.4815 H   0  0  0  0  0  0  0  0  0  0  0  0
    3.1990   -4.8841   11.9596 H   0  0  0  0  0  0  0  0  0  0  0  0
    8.5684   -0.2041   10.2635 C   0  0  0  0  0  0  0  0  0  0  0  0
    9.9283    0.0560   10.0526 C   0  0  0  0  0  0  0  0  0  0  0  0
   10.2584    1.1488    9.2466 C   0  0  0  0  0  0  0  0  0  0  0  0
   11.1720    1.3349    9.0639 H   0  0  0  0  0  0  0  0  0  0  0  0
    9.2807    1.9626    8.7110 C   0  0  0  0  0  0  0  0  0  0  0  0
    9.5247    2.6973    8.1615 H   0  0  0  0  0  0  0  0  0  0  0  0
    7.9452    1.7107    8.9744 C   0  0  0  0  0  0  0  0  0  0  0  0
    7.2818    2.2941    8.6254 H   0  0  0  0  0  0  0  0  0  0  0  0
    7.5576    0.6176    9.7417 C   0  0  0  0  0  0  0  0  0  0  0  0
   11.0190   -0.7599   10.7238 C   0  0  0  0  0  0  0  0  0  0  0  0
   10.6013   -1.6033   11.0645 H   0  0  0  0  0  0  0  0  0  0  0  0
   11.5777   -0.0041   11.9212 C   0  0  0  0  0  0  0  0  0  0  0  0
   11.9930    0.8298   11.6153 H   0  0  0  0  0  0  0  0  0  0  0  0
   12.2490   -0.5587   12.3728 H   0  0  0  0  0  0  0  0  0  0  0  0
   10.8505    0.2009   12.5467 H   0  0  0  0  0  0  0  0  0  0  0  0
   12.1410   -1.1509    9.7783 C   0  0  0  0  0  0  0  0  0  0  0  0
   11.7670   -1.6156    9.0023 H   0  0  0  0  0  0  0  0  0  0  0  0
   12.7687   -1.7436   10.2418 H   0  0  0  0  0  0  0  0  0  0  0  0
   12.6133   -0.3454    9.4807 H   0  0  0  0  0  0  0  0  0  0  0  0
    6.0772    0.3113    9.9841 C   0  0  0  0  0  0  0  0  0  0  0  0
    5.9903   -0.0344   10.9195 H   0  0  0  0  0  0  0  0  0  0  0  0
    5.1665    1.5248    9.8587 C   0  0  0  0  0  0  0  0  0  0  0  0
    5.1462    1.8235    8.9262 H   0  0  0  0  0  0  0  0  0  0  0  0
    5.5051    2.2487   10.4266 H   0  0  0  0  0  0  0  0  0  0  0  0
    4.2597    1.2840   10.1439 H   0  0  0  0  0  0  0  0  0  0  0  0
    5.5901   -0.7872    9.0418 C   0  0  0  0  0  0  0  0  0  0  0  0
    5.6702   -0.4803    8.1144 H   0  0  0  0  0  0  0  0  0  0  0  0
    4.6525   -0.9936    9.2379 H   0  0  0  0  0  0  0  0  0  0  0  0
    6.1353   -1.5909    9.1690 H   0  0  0  0  0  0  0  0  0  0  0  0
    9.6119    3.5248   14.9419 B   0  0  0  0  0  0  0  0  0  0  0  0
    8.8194    4.5284   15.5711 N   0  0  0  0  0  0  0  0  0  0  0  0
   10.9629    3.8445   15.1981 N   0  0  0  0  0  0  0  0  0  0  0  0
    9.7151    5.4287   16.1665 C   0  0  0  0  0  0  0  0  0  0  0  0
    9.4665    6.2052   16.6529 H   0  0  0  0  0  0  0  0  0  0  0  0
   10.9778    5.0256   15.9447 C   0  0  0  0  0  0  0  0  0  0  0  0
   11.7589    5.4731   16.2470 H   0  0  0  0  0  0  0  0  0  0  0  0
    7.4059    4.7761   15.5236 C   0  0  0  0  0  0  0  0  0  0  0  0
    6.8037    5.0481   14.2881 C   0  0  0  0  0  0  0  0  0  0  0  0
    5.4302    5.2840   14.2642 C   0  0  0  0  0  0  0  0  0  0  0  0
    5.0006    5.4607   13.4346 H   0  0  0  0  0  0  0  0  0  0  0  0
    4.6828    5.2646   15.4294 C   0  0  0  0  0  0  0  0  0  0  0  0
    3.7483    5.4304   15.3953 H   0  0  0  0  0  0  0  0  0  0  0  0
    5.2927    5.0053   16.6366 C   0  0  0  0  0  0  0  0  0  0  0  0
    4.7713    5.0080   17.4321 H   0  0  0  0  0  0  0  0  0  0  0  0
    6.6600    4.7397   16.7181 C   0  0  0  0  0  0  0  0  0  0  0  0
    7.5879    5.1300   12.9849 C   0  0  0  0  0  0  0  0  0  0  0  0
    8.5371    4.8855   13.1810 H   0  0  0  0  0  0  0  0  0  0  0  0
    7.0529    4.1454   11.9440 C   0  0  0  0  0  0  0  0  0  0  0  0
    7.0518    3.2409   12.3220 H   0  0  0  0  0  0  0  0  0  0  0  0
    7.6262    4.1671   11.1478 H   0  0  0  0  0  0  0  0  0  0  0  0
    6.1390    4.3969   11.6951 H   0  0  0  0  0  0  0  0  0  0  0  0
    7.5743    6.5553   12.4257 C   0  0  0  0  0  0  0  0  0  0  0  0
    6.6595    6.7970   12.1698 H   0  0  0  0  0  0  0  0  0  0  0  0
    8.1559    6.6030   11.6371 H   0  0  0  0  0  0  0  0  0  0  0  0
    7.8975    7.1782   13.1085 H   0  0  0  0  0  0  0  0  0  0  0  0
    7.2811    4.4337   18.0623 C   0  0  0  0  0  0  0  0  0  0  0  0
    8.2164    4.1176   17.9032 H   0  0  0  0  0  0  0  0  0  0  0  0
    6.5306    3.3268   18.8100 C   0  0  0  0  0  0  0  0  0  0  0  0
    5.6303    3.6400   19.0412 H   0  0  0  0  0  0  0  0  0  0  0  0
    7.0159    3.0992   19.6283 H   0  0  0  0  0  0  0  0  0  0  0  0
    6.4631    2.5336   18.2366 H   0  0  0  0  0  0  0  0  0  0  0  0
    7.3512    5.6988   18.9252 C   0  0  0  0  0  0  0  0  0  0  0  0
    7.8676    6.3869   18.4541 H   0  0  0  0  0  0  0  0  0  0  0  0
    7.7860    5.4896   19.7769 H   0  0  0  0  0  0  0  0  0  0  0  0
    6.4438    6.0291   19.0955 H   0  0  0  0  0  0  0  0  0  0  0  0
   12.1403    3.2588   14.6234 C   0  0  0  0  0  0  0  0  0  0  0  0
   12.5300    3.6653   13.3437 C   0  0  0  0  0  0  0  0  0  0  0  0
   13.6667    3.0736   12.7895 C   0  0  0  0  0  0  0  0  0  0  0  0
   13.9541    3.3331   11.9234 H   0  0  0  0  0  0  0  0  0  0  0  0
   14.3769    2.1210   13.4803 C   0  0  0  0  0  0  0  0  0  0  0  0
   15.1479    1.7299   13.0867 H   0  0  0  0  0  0  0  0  0  0  0  0
   13.9749    1.7314   14.7397 C   0  0  0  0  0  0  0  0  0  0  0  0
   14.4740    1.0707   15.2068 H   0  0  0  0  0  0  0  0  0  0  0  0
   12.8509    2.2883   15.3391 C   0  0  0  0  0  0  0  0  0  0  0  0
   11.7337    4.6843   12.5536 C   0  0  0  0  0  0  0  0  0  0  0  0
   11.0366    5.0575   13.1665 H   0  0  0  0  0  0  0  0  0  0  0  0
   11.0013    3.9978   11.3895 C   0  0  0  0  0  0  0  0  0  0  0  0
   11.6557    3.5685   10.7999 H   0  0  0  0  0  0  0  0  0  0  0  0
   10.4953    4.6667   10.8833 H   0  0  0  0  0  0  0  0  0  0  0  0
   10.3871    3.3207   11.7422 H   0  0  0  0  0  0  0  0  0  0  0  0
   12.5948    5.8406   12.0952 C   0  0  0  0  0  0  0  0  0  0  0  0
   12.9772    6.2933   12.8765 H   0  0  0  0  0  0  0  0  0  0  0  0
   12.0476    6.4736   11.5863 H   0  0  0  0  0  0  0  0  0  0  0  0
   13.3186    5.5034   11.5284 H   0  0  0  0  0  0  0  0  0  0  0  0
   12.4086    1.8374   16.7170 C   0  0  0  0  0  0  0  0  0  0  0  0
   11.6951    2.4689   17.0189 H   0  0  0  0  0  0  0  0  0  0  0  0
   11.7990    0.4638   16.6790 C   0  0  0  0  0  0  0  0  0  0  0  0
   11.1001    0.4349   15.9933 H   0  0  0  0  0  0  0  0  0  0  0  0
   11.4069    0.2560   17.5517 H   0  0  0  0  0  0  0  0  0  0  0  0
   12.4925   -0.1954   16.4680 H   0  0  0  0  0  0  0  0  0  0  0  0
   13.5244    1.9088   17.7274 C   0  0  0  0  0  0  0  0  0  0  0  0
   13.1679    1.7271   18.6208 H   0  0  0  0  0  0  0  0  0  0  0  0
   13.9237    2.8047   17.7111 H   0  0  0  0  0  0  0  0  0  0  0  0
   14.2086    1.2427   17.5082 H   0  0  0  0  0  0  0  0  0  0  0  0
  1  2  1  0  0  0  0
  2  6  2  0  0  0  0
  3  5  1  0  0  0  0
  4  6  1  0  0  0  0
  5  1  2  0  0  0  0
  6  3  1  0  0  0  0
  7  5  1  0  0  0  0
  8  7  1  0  0  0  0
  9  7  1  0  0  0  0
 10  8  1  0  0  0  0
 11 10  1  0  0  0  0
 12  9  1  0  0  0  0
 13 12  1  0  0  0  0
 14  8  1  0  0  0  0
 15 14  4  0  0  0  0
 16 15  4  0  0  0  0
 17 16  1  0  0  0  0
 18 16  4  0  0  0  0
 19 18  1  0  0  0  0
 20 18  4  0  0  0  0
 21 20  1  0  0  0  0
 22 14  4  0  0  0  0
 23 15  1  0  0  0  0
 24 23  1  0  0  0  0
 25 23  1  0  0  0  0
 26 25  1  0  0  0  0
 27 25  1  0  0  0  0
 28 25  1  0  0  0  0
 29 23  1  0  0  0  0
 30 29  1  0  0  0  0
 31 29  1  0  0  0  0
 32 29  1  0  0  0  0
 33 22  1  0  0  0  0
 34 33  1  0  0  0  0
 35 33  1  0  0  0  0
 36 35  1  0  0  0  0
 37 35  1  0  0  0  0
 38 35  1  0  0  0  0
 39 33  1  0  0  0  0
 40 39  1  0  0  0  0
 41 39  1  0  0  0  0
 42 39  1  0  0  0  0
 43  9  1  0  0  0  0
 44 43  4  0  0  0  0
 45 44  4  0  0  0  0
 46 45  1  0  0  0  0
 47 45  4  0  0  0  0
 48 47  1  0  0  0  0
 49 47  4  0  0  0  0
 50 49  1  0  0  0  0
 51 43  4  0  0  0  0
 52 44  1  0  0  0  0
 53 52  1  0  0  0  0
 54 52  1  0  0  0  0
 55 54  1  0  0  0  0
 56 54  1  0  0  0  0
 57 54  1  0  0  0  0
 58 52  1  0  0  0  0
 59 58  1  0  0  0  0
 60 58  1  0  0  0  0
 61 58  1  0  0  0  0
 62 51  1  0  0  0  0
 63 62  1  0  0  0  0
 64 62  1  0  0  0  0
 65 64  1  0  0  0  0
 66 64  1  0  0  0  0
 67 64  1  0  0  0  0
 68 62  1  0  0  0  0
 69 68  1  0  0  0  0
 70 68  1  0  0  0  0
 71 68  1  0  0  0  0
 72  4  1  0  0  0  0
 73 72  1  0  0  0  0
 74 72  1  0  0  0  0
 75 73  1  0  0  0  0
 76 75  1  0  0  0  0
 77 74  1  0  0  0  0
 78 77  1  0  0  0  0
 79 73  1  0  0  0  0
 80 79  4  0  0  0  0
 81 80  4  0  0  0  0
 82 81  1  0  0  0  0
 83 81  4  0  0  0  0
 84 83  1  0  0  0  0
 85 83  4  0  0  0  0
 86 85  1  0  0  0  0
 87 79  4  0  0  0  0
 88 80  1  0  0  0  0
 89 88  1  0  0  0  0
 90 88  1  0  0  0  0
 91 90  1  0  0  0  0
 92 90  1  0  0  0  0
 93 90  1  0  0  0  0
 94 88  1  0  0  0  0
 95 94  1  0  0  0  0
 96 94  1  0  0  0  0
 97 94  1  0  0  0  0
 98 87  1  0  0  0  0
 99 98  1  0  0  0  0
100 98  1  0  0  0  0
101100  1  0  0  0  0
102100  1  0  0  0  0
103100  1  0  0  0  0
104 98  1  0  0  0  0
105104  1  0  0  0  0
106104  1  0  0  0  0
107104  1  0  0  0  0
108 74  1  0  0  0  0
109108  4  0  0  0  0
110109  4  0  0  0  0
111110  1  0  0  0  0
112110  4  0  0  0  0
113112  1  0  0  0  0
114112  4  0  0  0  0
115114  1  0  0  0  0
116108  4  0  0  0  0
117109  1  0  0  0  0
118117  1  0  0  0  0
119117  1  0  0  0  0
120119  1  0  0  0  0
121119  1  0  0  0  0
122119  1  0  0  0  0
123117  1  0  0  0  0
124123  1  0  0  0  0
125123  1  0  0  0  0
126123  1  0  0  0  0
127116  1  0  0  0  0
128127  1  0  0  0  0
129127  1  0  0  0  0
130129  1  0  0  0  0
131129  1  0  0  0  0
132129  1  0  0  0  0
133127  1  0  0  0  0
134133  1  0  0  0  0
135133  1  0  0  0  0
136133  1  0  0  0  0
 10 12  2  0  0  0  0
 20 22  4  0  0  0  0
 49 51  4  0  0  0  0
 75 77  2  0  0  0  0
 85 87  4  0  0  0  0
114116  4  0  0  0  0
M  END
$$$$
ZEWMEW

From CSD data. Using bond type 'Any'. No disordered atoms. Largest molecule.
134140  0  0  0  0  0  0  0  0999 V2000
    8.4265    0.4107    2.8530 P   0  0  0  0  0  0  0  0  0  0  0  0
    8.0092    1.9690    4.3095 P   0  0  0  0  0  0  0  0  0  0  0  0
    7.6302   -0.9456    5.4328 B   0  0  0  0  0  0  0  0  0  0  0  0
    6.0474    3.5377    3.2409 B   0  0  0  0  0  0  0  0  0  0  0  0
    7.7891   -2.3507    5.2151 N   0  0  0  0  0  0  0  0  0  0  0  0
    7.2419   -0.8371    6.8128 N   0  0  0  0  0  0  0  0  0  0  0  0
    6.8391    4.5546    2.6009 N   0  0  0  0  0  0  0  0  0  0  0  0
    4.6829    3.8850    2.9645 N   0  0  0  0  0  0  0  0  0  0  0  0
    6.4417    2.4461    3.9884 O   0  0  0  0  0  0  0  0  0  0  0  0
    7.8872    0.1740    4.4160 C   0  0  0  0  0  0  0  0  0  0  0  0
    7.5065   -3.0170    6.4041 C   0  0  0  0  0  0  0  0  0  0  0  0
    7.5400   -3.9575    6.5282 H   0  0  0  0  0  0  0  0  0  0  0  0
    7.1778   -2.1209    7.3437 C   0  0  0  0  0  0  0  0  0  0  0  0
    6.9374   -2.3302    8.2371 H   0  0  0  0  0  0  0  0  0  0  0  0
    8.2217   -3.0935    4.0674 C   0  0  0  0  0  0  0  0  0  0  0  0
    7.2917   -3.4320    3.0675 C   0  0  0  0  0  0  0  0  0  0  0  0
    7.7152   -4.2777    2.0425 C   0  0  0  0  0  0  0  0  0  0  0  0
    7.1057   -4.5227    1.3550 H   0  0  0  0  0  0  0  0  0  0  0  0
    9.0020   -4.7625    2.0092 C   0  0  0  0  0  0  0  0  0  0  0  0
    9.2616   -5.3671    1.3228 H   0  0  0  0  0  0  0  0  0  0  0  0
    9.9147   -4.3760    2.9659 C   0  0  0  0  0  0  0  0  0  0  0  0
   10.8061   -4.6991    2.9173 H   0  0  0  0  0  0  0  0  0  0  0  0
    9.5557   -3.5212    4.0052 C   0  0  0  0  0  0  0  0  0  0  0  0
    5.8636   -2.9319    3.1204 C   0  0  0  0  0  0  0  0  0  0  0  0
    5.8682   -2.0482    3.5894 H   0  0  0  0  0  0  0  0  0  0  0  0
    4.9811   -3.8827    3.9316 C   0  0  0  0  0  0  0  0  0  0  0  0
    4.9648   -4.7619    3.5001 H   0  0  0  0  0  0  0  0  0  0  0  0
    4.0701   -3.5246    3.9756 H   0  0  0  0  0  0  0  0  0  0  0  0
    5.3425   -3.9709    4.8372 H   0  0  0  0  0  0  0  0  0  0  0  0
    5.2746   -2.7163    1.7254 C   0  0  0  0  0  0  0  0  0  0  0  0
    5.8631   -2.1257    1.2084 H   0  0  0  0  0  0  0  0  0  0  0  0
    4.3885   -2.3048    1.8054 H   0  0  0  0  0  0  0  0  0  0  0  0
    5.1935   -3.5781    1.2656 H   0  0  0  0  0  0  0  0  0  0  0  0
   10.5907   -3.0634    5.0181 C   0  0  0  0  0  0  0  0  0  0  0  0
   10.1043   -2.7363    5.8275 H   0  0  0  0  0  0  0  0  0  0  0  0
   11.5262   -4.1766    5.4546 C   0  0  0  0  0  0  0  0  0  0  0  0
   11.0049   -4.9008    5.8597 H   0  0  0  0  0  0  0  0  0  0  0  0
   12.1666   -3.8279    6.1099 H   0  0  0  0  0  0  0  0  0  0  0  0
   12.0104   -4.5214    4.6763 H   0  0  0  0  0  0  0  0  0  0  0  0
   11.3936   -1.9120    4.4632 C   0  0  0  0  0  0  0  0  0  0  0  0
   12.0019   -1.5753    5.1554 H   0  0  0  0  0  0  0  0  0  0  0  0
   10.7869   -1.1945    4.1865 H   0  0  0  0  0  0  0  0  0  0  0  0
   11.9131   -2.2179    3.6895 H   0  0  0  0  0  0  0  0  0  0  0  0
    6.8888    0.2969    7.6193 C   0  0  0  0  0  0  0  0  0  0  0  0
    5.5224    0.5323    7.8596 C   0  0  0  0  0  0  0  0  0  0  0  0
    5.1979    1.5806    8.7262 C   0  0  0  0  0  0  0  0  0  0  0  0
    4.2863    1.7516    8.9271 H   0  0  0  0  0  0  0  0  0  0  0  0
    6.1725    2.3685    9.2921 C   0  0  0  0  0  0  0  0  0  0  0  0
    5.9282    3.0744    9.8781 H   0  0  0  0  0  0  0  0  0  0  0  0
    7.5083    2.1368    9.0108 C   0  0  0  0  0  0  0  0  0  0  0  0
    8.1693    2.7029    9.3919 H   0  0  0  0  0  0  0  0  0  0  0  0
    7.9002    1.0889    8.1799 C   0  0  0  0  0  0  0  0  0  0  0  0
    4.4558   -0.2842    7.1528 C   0  0  0  0  0  0  0  0  0  0  0  0
    4.8348   -1.1998    7.0144 H   0  0  0  0  0  0  0  0  0  0  0  0
    3.1810   -0.4516    7.9515 C   0  0  0  0  0  0  0  0  0  0  0  0
    3.3987   -0.7803    8.8485 H   0  0  0  0  0  0  0  0  0  0  0  0
    2.5947   -1.0943    7.5006 H   0  0  0  0  0  0  0  0  0  0  0  0
    2.7238    0.4129    8.0226 H   0  0  0  0  0  0  0  0  0  0  0  0
    4.1755    0.2913    5.7681 C   0  0  0  0  0  0  0  0  0  0  0  0
    3.7629    1.1758    5.8597 H   0  0  0  0  0  0  0  0  0  0  0  0
    3.5664   -0.3046    5.2841 H   0  0  0  0  0  0  0  0  0  0  0  0
    5.0159    0.3714    5.2733 H   0  0  0  0  0  0  0  0  0  0  0  0
    9.3731    0.7822    7.9354 C   0  0  0  0  0  0  0  0  0  0  0  0
    9.4681    0.5091    6.9787 H   0  0  0  0  0  0  0  0  0  0  0  0
    9.8406   -0.3875    8.7941 C   0  0  0  0  0  0  0  0  0  0  0  0
    9.7851   -0.1403    9.7423 H   0  0  0  0  0  0  0  0  0  0  0  0
   10.7678   -0.6093    8.5696 H   0  0  0  0  0  0  0  0  0  0  0  0
    9.2688   -1.1664    8.6268 H   0  0  0  0  0  0  0  0  0  0  0  0
   10.2921    1.9748    8.1638 C   0  0  0  0  0  0  0  0  0  0  0  0
    9.9240    2.7617    7.7116 H   0  0  0  0  0  0  0  0  0  0  0  0
   11.1808    1.7757    7.8045 H   0  0  0  0  0  0  0  0  0  0  0  0
   10.3621    2.1538    9.1238 H   0  0  0  0  0  0  0  0  0  0  0  0
    5.9521    5.4532    1.9885 C   0  0  0  0  0  0  0  0  0  0  0  0
    6.2085    6.2222    1.4944 H   0  0  0  0  0  0  0  0  0  0  0  0
    4.6862    5.0622    2.2076 C   0  0  0  0  0  0  0  0  0  0  0  0
    3.9114    5.5154    1.8984 H   0  0  0  0  0  0  0  0  0  0  0  0
    8.2501    4.8085    2.6295 C   0  0  0  0  0  0  0  0  0  0  0  0
    9.0033    4.6283    1.4633 C   0  0  0  0  0  0  0  0  0  0  0  0
   10.3753    4.9107    1.5134 C   0  0  0  0  0  0  0  0  0  0  0  0
   10.9036    4.8033    0.7329 H   0  0  0  0  0  0  0  0  0  0  0  0
   10.9688    5.3411    2.6742 C   0  0  0  0  0  0  0  0  0  0  0  0
   11.9000    5.5301    2.6885 H   0  0  0  0  0  0  0  0  0  0  0  0
   10.2179    5.5001    3.8229 C   0  0  0  0  0  0  0  0  0  0  0  0
   10.6420    5.7880    4.6227 H   0  0  0  0  0  0  0  0  0  0  0  0
    8.8473    5.2445    3.8268 C   0  0  0  0  0  0  0  0  0  0  0  0
    8.3858    4.1346    0.1666 C   0  0  0  0  0  0  0  0  0  0  0  0
    7.4406    3.8693    0.3575 H   0  0  0  0  0  0  0  0  0  0  0  0
    9.1227    2.9062   -0.3772 C   0  0  0  0  0  0  0  0  0  0  0  0
   10.0366    3.1572   -0.6256 H   0  0  0  0  0  0  0  0  0  0  0  0
    8.6521    2.5653   -1.1655 H   0  0  0  0  0  0  0  0  0  0  0  0
    9.1510    2.2099    0.3110 H   0  0  0  0  0  0  0  0  0  0  0  0
    8.3610    5.2642   -0.8616 C   0  0  0  0  0  0  0  0  0  0  0  0
    7.8336    6.0138   -0.5112 H   0  0  0  0  0  0  0  0  0  0  0  0
    7.9570    4.9409   -1.6946 H   0  0  0  0  0  0  0  0  0  0  0  0
    9.2764    5.5649   -1.0404 H   0  0  0  0  0  0  0  0  0  0  0  0
    8.0854    5.5021    5.0910 C   0  0  0  0  0  0  0  0  0  0  0  0
    7.4124    4.7659    5.1554 H   0  0  0  0  0  0  0  0  0  0  0  0
    8.8757    5.4286    6.3409 C   0  0  0  0  0  0  0  0  0  0  0  0
    9.4586    4.6416    6.3137 H   0  0  0  0  0  0  0  0  0  0  0  0
    8.2693    5.3591    7.1074 H   0  0  0  0  0  0  0  0  0  0  0  0
    9.4224    6.2383    6.4317 H   0  0  0  0  0  0  0  0  0  0  0  0
    7.2745    6.7914    4.9952 C   0  0  0  0  0  0  0  0  0  0  0  0
    7.8834    7.5556    4.9194 H   0  0  0  0  0  0  0  0  0  0  0  0
    6.7220    6.8916    5.7989 H   0  0  0  0  0  0  0  0  0  0  0  0
    6.6965    6.7553    4.2044 H   0  0  0  0  0  0  0  0  0  0  0  0
    3.4776    3.3941    3.5716 C   0  0  0  0  0  0  0  0  0  0  0  0
    2.7203    2.4177    2.9191 C   0  0  0  0  0  0  0  0  0  0  0  0
    1.5611    1.9593    3.5487 C   0  0  0  0  0  0  0  0  0  0  0  0
    1.0334    1.2920    3.1247 H   0  0  0  0  0  0  0  0  0  0  0  0
    1.1699    2.4574    4.7703 C   0  0  0  0  0  0  0  0  0  0  0  0
    0.3845    2.1244    5.1875 H   0  0  0  0  0  0  0  0  0  0  0  0
    1.9140    3.4397    5.3927 C   0  0  0  0  0  0  0  0  0  0  0  0
    1.6299    3.7812    6.2315 H   0  0  0  0  0  0  0  0  0  0  0  0
    3.0827    3.9387    4.8028 C   0  0  0  0  0  0  0  0  0  0  0  0
    3.1533    1.8636    1.5748 C   0  0  0  0  0  0  0  0  0  0  0  0
    3.7523    2.5439    1.1548 H   0  0  0  0  0  0  0  0  0  0  0  0
    3.9695    0.6012    1.7608 C   0  0  0  0  0  0  0  0  0  0  0  0
    4.7441    0.7936    2.3310 H   0  0  0  0  0  0  0  0  0  0  0  0
    4.2777    0.2792    0.8866 H   0  0  0  0  0  0  0  0  0  0  0  0
    3.4156   -0.0868    2.1844 H   0  0  0  0  0  0  0  0  0  0  0  0
    1.9916    1.6394    0.6224 C   0  0  0  0  0  0  0  0  0  0  0  0
    1.4301    0.9085    0.9581 H   0  0  0  0  0  0  0  0  0  0  0  0
    2.3367    1.4042   -0.2646 H   0  0  0  0  0  0  0  0  0  0  0  0
    1.4582    2.4584    0.5577 H   0  0  0  0  0  0  0  0  0  0  0  0
    3.8813    5.0316    5.4918 C   0  0  0  0  0  0  0  0  0  0  0  0
    4.6250    5.2816    4.8729 H   0  0  0  0  0  0  0  0  0  0  0  0
    4.5261    4.5053    6.7635 C   0  0  0  0  0  0  0  0  0  0  0  0
    3.8282    4.2635    7.4077 H   0  0  0  0  0  0  0  0  0  0  0  0
    5.1000    5.1988    7.1503 H   0  0  0  0  0  0  0  0  0  0  0  0
    5.0652    3.7144    6.5532 H   0  0  0  0  0  0  0  0  0  0  0  0
    3.0490    6.2837    5.7066 C   0  0  0  0  0  0  0  0  0  0  0  0
    2.6897    6.5883    4.8479 H   0  0  0  0  0  0  0  0  0  0  0  0
    3.6100    6.9865    6.0956 H   0  0  0  0  0  0  0  0  0  0  0  0
    2.3089    6.0819    6.3173 H   0  0  0  0  0  0  0  0  0  0  0  0
  1  2  1  0  0  0  0
  2  9  1  0  0  0  0
  3  5  1  0  0  0  0
  4  7  1  0  0  0  0
  5 11  1  0  0  0  0
  6  3  1  0  0  0  0
  7 73  1  0  0  0  0
  8  4  1  0  0  0  0
  9  4  1  0  0  0  0
 10  1  2  0  0  0  0
 11 12  1  0  0  0  0
 13  6  1  0  0  0  0
 14 13  1  0  0  0  0
 15  5  1  0  0  0  0
 16 15  4  0  0  0  0
 17 16  4  0  0  0  0
 18 17  1  0  0  0  0
 19 17  4  0  0  0  0
 20 19  1  0  0  0  0
 21 19  4  0  0  0  0
 22 21  1  0  0  0  0
 23 15  4  0  0  0  0
 24 16  1  0  0  0  0
 25 24  1  0  0  0  0
 26 24  1  0  0  0  0
 27 26  1  0  0  0  0
 28 26  1  0  0  0  0
 29 26  1  0  0  0  0
 30 24  1  0  0  0  0
 31 30  1  0  0  0  0
 32 30  1  0  0  0  0
 33 30  1  0  0  0  0
 34 23  1  0  0  0  0
 35 34  1  0  0  0  0
 36 34  1  0  0  0  0
 37 36  1  0  0  0  0
 38 36  1  0  0  0  0
 39 36  1  0  0  0  0
 40 34  1  0  0  0  0
 41 40  1  0  0  0  0
 42 40  1  0  0  0  0
 43 40  1  0  0  0  0
 44  6  1  0  0  0  0
 45 44  4  0  0  0  0
 46 45  4  0  0  0  0
 47 46  1  0  0  0  0
 48 46  4  0  0  0  0
 49 48  1  0  0  0  0
 50 48  4  0  0  0  0
 51 50  1  0  0  0  0
 52 44  4  0  0  0  0
 53 45  1  0  0  0  0
 54 53  1  0  0  0  0
 55 53  1  0  0  0  0
 56 55  1  0  0  0  0
 57 55  1  0  0  0  0
 58 55  1  0  0  0  0
 59 53  1  0  0  0  0
 60 59  1  0  0  0  0
 61 59  1  0  0  0  0
 62 59  1  0  0  0  0
 63 52  1  0  0  0  0
 64 63  1  0  0  0  0
 65 63  1  0  0  0  0
 66 65  1  0  0  0  0
 67 65  1  0  0  0  0
 68 65  1  0  0  0  0
 69 63  1  0  0  0  0
 70 69  1  0  0  0  0
 71 69  1  0  0  0  0
 72 69  1  0  0  0  0
 73 74  1  0  0  0  0
 75  8  1  0  0  0  0
 76 75  1  0  0  0  0
 77  7  1  0  0  0  0
 78 77  4  0  0  0  0
 79 78  4  0  0  0  0
 80 79  1  0  0  0  0
 81 79  4  0  0  0  0
 82 81  1  0  0  0  0
 83 81  4  0  0  0  0
 84 83  1  0  0  0  0
 85 77  4  0  0  0  0
 86 78  1  0  0  0  0
 87 86  1  0  0  0  0
 88 86  1  0  0  0  0
 89 88  1  0  0  0  0
 90 88  1  0  0  0  0
 91 88  1  0  0  0  0
 92 86  1  0  0  0  0
 93 92  1  0  0  0  0
 94 92  1  0  0  0  0
 95 92  1  0  0  0  0
 96 85  1  0  0  0  0
 97 96  1  0  0  0  0
 98 96  1  0  0  0  0
 99 98  1  0  0  0  0
100 98  1  0  0  0  0
101 98  1  0  0  0  0
102 96  1  0  0  0  0
103102  1  0  0  0  0
104102  1  0  0  0  0
105102  1  0  0  0  0
106  8  1  0  0  0  0
107106  4  0  0  0  0
108107  4  0  0  0  0
109108  1  0  0  0  0
110108  4  0  0  0  0
111110  1  0  0  0  0
112110  4  0  0  0  0
113112  1  0  0  0  0
114106  4  0  0  0  0
115107  1  0  0  0  0
116115  1  0  0  0  0
117115  1  0  0  0  0
118117  1  0  0  0  0
119117  1  0  0  0  0
120117  1  0  0  0  0
121115  1  0  0  0  0
122121  1  0  0  0  0
123121  1  0  0  0  0
124121  1  0  0  0  0
125114  1  0  0  0  0
126125  1  0  0  0  0
127125  1  0  0  0  0
128127  1  0  0  0  0
129127  1  0  0  0  0
130127  1  0  0  0  0
131125  1  0  0  0  0
132131  1  0  0  0  0
133131  1  0  0  0  0
134131  1  0  0  0  0
  2 10  1  0  0  0  0
  3 10  1  0  0  0  0
 11 13  2  0  0  0  0
 21 23  4  0  0  0  0
 50 52  4  0  0  0  0
 73 75  2  0  0  0  0
 83 85  4  0  0  0  0
112114  4  0  0  0  0
M  END
$$$$
ZEWMIA

From CSD data. Using bond type 'Any'. No disordered atoms. Largest molecule.
157170  0  0  0  0  0  0  0  0999 V2000
    4.3732    9.3445    8.1285 Ni  0  0  0  0  0  0  0  0  0  0  0  0
    6.6350    9.0516    8.4511 P   0  0  0  0  0  0  0  0  0  0  0  0
    5.4060    7.9490    9.2031 C   0  0  0  0  0  0  0  0  0  0  0  0
    5.1858    7.7877   10.5407 O   0  0  0  0  0  0  0  0  0  0  0  0
    4.7396    6.5875   11.0870 B   0  0  0  0  0  0  0  0  0  0  0  0
    5.4421    5.3465   11.1683 N   0  0  0  0  0  0  0  0  0  0  0  0
    4.6552    4.4669   11.9284 C   0  0  0  0  0  0  0  0  0  0  0  0
    4.8876    3.5707   12.1440 H   0  0  0  0  0  0  0  0  0  0  0  0
    3.5298    5.0821   12.3033 C   0  0  0  0  0  0  0  0  0  0  0  0
    2.8354    4.6901   12.8203 H   0  0  0  0  0  0  0  0  0  0  0  0
    3.5333    6.3988   11.8159 N   0  0  0  0  0  0  0  0  0  0  0  0
    6.7809    5.0016   10.7944 C   0  0  0  0  0  0  0  0  0  0  0  0
    6.9910    4.0528    9.7897 C   0  0  0  0  0  0  0  0  0  0  0  0
    8.3063    3.7049    9.4844 C   0  0  0  0  0  0  0  0  0  0  0  0
    8.4721    3.0508    8.8146 H   0  0  0  0  0  0  0  0  0  0  0  0
    9.3692    4.2897   10.1333 C   0  0  0  0  0  0  0  0  0  0  0  0
   10.2581    4.0481    9.9005 H   0  0  0  0  0  0  0  0  0  0  0  0
    9.1456    5.2269   11.1205 C   0  0  0  0  0  0  0  0  0  0  0  0
    9.8863    5.6243   11.5620 H   0  0  0  0  0  0  0  0  0  0  0  0
    7.8480    5.6003   11.4791 C   0  0  0  0  0  0  0  0  0  0  0  0
    5.8396    3.4029    9.0467 C   0  0  0  0  0  0  0  0  0  0  0  0
    5.0111    3.9274    9.2438 H   0  0  0  0  0  0  0  0  0  0  0  0
    5.6105    1.9644    9.5175 C   0  0  0  0  0  0  0  0  0  0  0  0
    6.4185    1.4349    9.3543 H   0  0  0  0  0  0  0  0  0  0  0  0
    4.8588    1.5762    9.0227 H   0  0  0  0  0  0  0  0  0  0  0  0
    5.4075    1.9630   10.4760 H   0  0  0  0  0  0  0  0  0  0  0  0
    6.0728    3.4335    7.5260 C   0  0  0  0  0  0  0  0  0  0  0  0
    6.2141    4.3581    7.2344 H   0  0  0  0  0  0  0  0  0  0  0  0
    5.2895    3.0632    7.0686 H   0  0  0  0  0  0  0  0  0  0  0  0
    6.8630    2.8972    7.3059 H   0  0  0  0  0  0  0  0  0  0  0  0
    7.6435    6.5872   12.6070 C   0  0  0  0  0  0  0  0  0  0  0  0
    6.6613    6.7573   12.6772 H   0  0  0  0  0  0  0  0  0  0  0  0
    8.1003    5.9960   13.9446 C   0  0  0  0  0  0  0  0  0  0  0  0
    7.6078    5.1675   14.1209 H   0  0  0  0  0  0  0  0  0  0  0  0
    7.9247    6.6394   14.6639 H   0  0  0  0  0  0  0  0  0  0  0  0
    9.0605    5.8040   13.9063 H   0  0  0  0  0  0  0  0  0  0  0  0
    8.3157    7.9233   12.3287 C   0  0  0  0  0  0  0  0  0  0  0  0
    9.2869    7.7985   12.2871 H   0  0  0  0  0  0  0  0  0  0  0  0
    8.0976    8.5544   13.0447 H   0  0  0  0  0  0  0  0  0  0  0  0
    7.9960    8.2786   11.4742 H   0  0  0  0  0  0  0  0  0  0  0  0
    2.4541    7.2840   12.1310 C   0  0  0  0  0  0  0  0  0  0  0  0
    1.2279    7.1089   11.4729 C   0  0  0  0  0  0  0  0  0  0  0  0
    0.1973    7.9878   11.8052 C   0  0  0  0  0  0  0  0  0  0  0  0
   -0.6447    7.9055   11.3734 H   0  0  0  0  0  0  0  0  0  0  0  0
    0.3827    8.9741   12.7524 C   0  0  0  0  0  0  0  0  0  0  0  0
   -0.3306    9.5654   12.9634 H   0  0  0  0  0  0  0  0  0  0  0  0
    1.5858    9.1127   13.3929 C   0  0  0  0  0  0  0  0  0  0  0  0
    1.6941    9.7972   14.0428 H   0  0  0  0  0  0  0  0  0  0  0  0
    2.6544    8.2640   13.1094 C   0  0  0  0  0  0  0  0  0  0  0  0
    1.0194    6.0197   10.4370 C   0  0  0  0  0  0  0  0  0  0  0  0
    1.8876    5.5351   10.3297 H   0  0  0  0  0  0  0  0  0  0  0  0
   -0.0274    5.0015   10.9205 C   0  0  0  0  0  0  0  0  0  0  0  0
    0.2620    4.6160   11.7734 H   0  0  0  0  0  0  0  0  0  0  0  0
   -0.1193    4.2882   10.2549 H   0  0  0  0  0  0  0  0  0  0  0  0
   -0.8889    5.4500   11.0418 H   0  0  0  0  0  0  0  0  0  0  0  0
    0.6310    6.5845    9.0727 C   0  0  0  0  0  0  0  0  0  0  0  0
   -0.2003    7.0962    9.1560 H   0  0  0  0  0  0  0  0  0  0  0  0
    0.4993    5.8492    8.4407 H   0  0  0  0  0  0  0  0  0  0  0  0
    1.3443    7.1730    8.7463 H   0  0  0  0  0  0  0  0  0  0  0  0
    3.9754    8.3760   13.9388 C   0  0  0  0  0  0  0  0  0  0  0  0
    4.5227    7.5530   13.7957 H   0  0  0  0  0  0  0  0  0  0  0  0
    3.6859    8.5352   15.4491 C   0  0  0  0  0  0  0  0  0  0  0  0
    4.5323    8.5585   15.9417 H   0  0  0  0  0  0  0  0  0  0  0  0
    3.1468    7.7793   15.7596 H   0  0  0  0  0  0  0  0  0  0  0  0
    3.1962    9.3706   15.6003 H   0  0  0  0  0  0  0  0  0  0  0  0
    4.7463    9.5818   13.4332 C   0  0  0  0  0  0  0  0  0  0  0  0
    4.1716   10.3747   13.4641 H   0  0  0  0  0  0  0  0  0  0  0  0
    5.0330    9.4241   12.5082 H   0  0  0  0  0  0  0  0  0  0  0  0
    5.5337    9.7272   13.9973 H   0  0  0  0  0  0  0  0  0  0  0  0
    3.9418   10.9632    6.8481 C   0  0  0  0  0  0  0  0  0  0  0  0
    4.8190   10.9193    6.4866 H   0  0  0  0  0  0  0  0  0  0  0  0
    3.5816   12.1856    7.6694 C   0  0  0  0  0  0  0  0  0  0  0  0
    2.6077   12.3459    7.5985 H   0  0  0  0  0  0  0  0  0  0  0  0
    4.0467   12.9756    7.2929 H   0  0  0  0  0  0  0  0  0  0  0  0
    3.9587   12.0407    9.1495 C   0  0  0  0  0  0  0  0  0  0  0  0
    4.8986   12.3281    9.2698 H   0  0  0  0  0  0  0  0  0  0  0  0
    3.3869   12.6450    9.6860 H   0  0  0  0  0  0  0  0  0  0  0  0
    3.8052   10.6239    9.6713 C   0  0  0  0  0  0  0  0  0  0  0  0
    4.4980   10.2924   10.2289 H   0  0  0  0  0  0  0  0  0  0  0  0
    4.6661    7.0827    7.8060 P   0  0  0  0  0  0  0  0  0  0  0  0
    5.7687    8.3117    7.0539 C   0  0  0  0  0  0  0  0  0  0  0  0
    5.9300    8.5319    5.7163 O   0  0  0  0  0  0  0  0  0  0  0  0
    7.1302    8.9781    5.1701 B   0  0  0  0  0  0  0  0  0  0  0  0
    8.3712    8.2756    5.0888 N   0  0  0  0  0  0  0  0  0  0  0  0
    9.2508    9.0625    4.3286 C   0  0  0  0  0  0  0  0  0  0  0  0
   10.1470    8.8301    4.1130 H   0  0  0  0  0  0  0  0  0  0  0  0
    8.6356   10.1879    3.9537 C   0  0  0  0  0  0  0  0  0  0  0  0
    9.0276   10.8823    3.4367 H   0  0  0  0  0  0  0  0  0  0  0  0
    7.3189   10.1844    4.4411 N   0  0  0  0  0  0  0  0  0  0  0  0
    8.7161    6.9368    5.4627 C   0  0  0  0  0  0  0  0  0  0  0  0
    9.6649    6.7267    6.4674 C   0  0  0  0  0  0  0  0  0  0  0  0
   10.0128    5.4114    6.7727 C   0  0  0  0  0  0  0  0  0  0  0  0
   10.6669    5.2456    7.4425 H   0  0  0  0  0  0  0  0  0  0  0  0
    9.4280    4.3485    6.1237 C   0  0  0  0  0  0  0  0  0  0  0  0
    9.6696    3.4596    6.3565 H   0  0  0  0  0  0  0  0  0  0  0  0
    8.4908    4.5721    5.1366 C   0  0  0  0  0  0  0  0  0  0  0  0
    8.0934    3.8314    4.6950 H   0  0  0  0  0  0  0  0  0  0  0  0
    8.1174    5.8697    4.7779 C   0  0  0  0  0  0  0  0  0  0  0  0
   10.3148    7.8781    7.2103 C   0  0  0  0  0  0  0  0  0  0  0  0
    9.7903    8.7066    7.0133 H   0  0  0  0  0  0  0  0  0  0  0  0
   11.7533    8.1072    6.7395 C   0  0  0  0  0  0  0  0  0  0  0  0
   12.2828    7.2992    6.9027 H   0  0  0  0  0  0  0  0  0  0  0  0
   12.1415    8.8589    7.2344 H   0  0  0  0  0  0  0  0  0  0  0  0
   11.7547    8.3102    5.7810 H   0  0  0  0  0  0  0  0  0  0  0  0
   10.2842    7.6449    8.7310 C   0  0  0  0  0  0  0  0  0  0  0  0
    9.3596    7.5036    9.0227 H   0  0  0  0  0  0  0  0  0  0  0  0
   10.6545    8.4282    9.1885 H   0  0  0  0  0  0  0  0  0  0  0  0
   10.8205    6.8547    8.9511 H   0  0  0  0  0  0  0  0  0  0  0  0
    7.1305    6.0742    3.6500 C   0  0  0  0  0  0  0  0  0  0  0  0
    6.9604    7.0564    3.5798 H   0  0  0  0  0  0  0  0  0  0  0  0
    7.7217    5.6174    2.3124 C   0  0  0  0  0  0  0  0  0  0  0  0
    8.5502    6.1099    2.1362 H   0  0  0  0  0  0  0  0  0  0  0  0
    7.0783    5.7930    1.5932 H   0  0  0  0  0  0  0  0  0  0  0  0
    7.9137    4.6572    2.3508 H   0  0  0  0  0  0  0  0  0  0  0  0
    5.7944    5.4020    3.9284 C   0  0  0  0  0  0  0  0  0  0  0  0
    5.9192    4.4308    3.9700 H   0  0  0  0  0  0  0  0  0  0  0  0
    5.1633    5.6201    3.2124 H   0  0  0  0  0  0  0  0  0  0  0  0
    5.4391    5.7217    4.7828 H   0  0  0  0  0  0  0  0  0  0  0  0
    6.4337   11.2636    4.1260 C   0  0  0  0  0  0  0  0  0  0  0  0
    6.6088   12.4898    4.7841 C   0  0  0  0  0  0  0  0  0  0  0  0
    5.7299   13.5204    4.4518 C   0  0  0  0  0  0  0  0  0  0  0  0
    5.8122   14.3624    4.8836 H   0  0  0  0  0  0  0  0  0  0  0  0
    4.7436   13.3350    3.5047 C   0  0  0  0  0  0  0  0  0  0  0  0
    4.1523   14.0483    3.2937 H   0  0  0  0  0  0  0  0  0  0  0  0
    4.6050   12.1319    2.8642 C   0  0  0  0  0  0  0  0  0  0  0  0
    3.9205   12.0236    2.2142 H   0  0  0  0  0  0  0  0  0  0  0  0
    5.4537   11.0633    3.1477 C   0  0  0  0  0  0  0  0  0  0  0  0
    7.6980   12.6983    5.8200 C   0  0  0  0  0  0  0  0  0  0  0  0
    8.1826   11.8301    5.9273 H   0  0  0  0  0  0  0  0  0  0  0  0
    8.7162   13.7451    5.3365 C   0  0  0  0  0  0  0  0  0  0  0  0
    9.1017   13.4557    4.4837 H   0  0  0  0  0  0  0  0  0  0  0  0
    9.4295   13.8370    6.0021 H   0  0  0  0  0  0  0  0  0  0  0  0
    8.2677   14.6066    5.2153 H   0  0  0  0  0  0  0  0  0  0  0  0
    7.1332   13.0867    7.1843 C   0  0  0  0  0  0  0  0  0  0  0  0
    6.6215   13.9180    7.1011 H   0  0  0  0  0  0  0  0  0  0  0  0
    7.8685   13.2184    7.8164 H   0  0  0  0  0  0  0  0  0  0  0  0
    6.5447   12.3734    7.5108 H   0  0  0  0  0  0  0  0  0  0  0  0
    5.3417    9.7423    2.3183 C   0  0  0  0  0  0  0  0  0  0  0  0
    6.1647    9.1950    2.4613 H   0  0  0  0  0  0  0  0  0  0  0  0
    5.1825   10.0318    0.8080 C   0  0  0  0  0  0  0  0  0  0  0  0
    5.1592    9.1854    0.3154 H   0  0  0  0  0  0  0  0  0  0  0  0
    5.9384   10.5709    0.4975 H   0  0  0  0  0  0  0  0  0  0  0  0
    4.3471   10.5215    0.6568 H   0  0  0  0  0  0  0  0  0  0  0  0
    4.1359    8.9714    2.8238 C   0  0  0  0  0  0  0  0  0  0  0  0
    3.3430    9.5461    2.7930 H   0  0  0  0  0  0  0  0  0  0  0  0
    4.2936    8.6847    3.7489 H   0  0  0  0  0  0  0  0  0  0  0  0
    3.9905    8.1840    2.2597 H   0  0  0  0  0  0  0  0  0  0  0  0
    2.7545    9.7759    9.4089 C   0  0  0  0  0  0  0  0  0  0  0  0
    2.7984    8.8987    9.7705 H   0  0  0  0  0  0  0  0  0  0  0  0
    1.5321   10.1361    8.5876 C   0  0  0  0  0  0  0  0  0  0  0  0
    1.3718   11.1100    8.6585 H   0  0  0  0  0  0  0  0  0  0  0  0
    0.7421    9.6710    8.9641 H   0  0  0  0  0  0  0  0  0  0  0  0
    1.6770    9.7590    7.1076 C   0  0  0  0  0  0  0  0  0  0  0  0
    1.3896    8.8191    6.9873 H   0  0  0  0  0  0  0  0  0  0  0  0
    1.0727   10.3308    6.5711 H   0  0  0  0  0  0  0  0  0  0  0  0
    3.0938    9.9125    6.5857 C   0  0  0  0  0  0  0  0  0  0  0  0
    3.4253    9.2197    6.0281 H   0  0  0  0  0  0  0  0  0  0  0  0
  1  2  8  0  0  0  0
  2  3  4  0  0  0  0
  3  1  8  0  0  0  0
  4  3  1  0  0  0  0
  5  4  1  0  0  0  0
  6  5  1  0  0  0  0
  7  6  1  0  0  0  0
  8  7  1  0  0  0  0
  9  7  2  0  0  0  0
 10  9  1  0  0  0  0
 11  5  1  0  0  0  0
 12  6  1  0  0  0  0
 13 12  4  0  0  0  0
 14 13  4  0  0  0  0
 15 14  1  0  0  0  0
 16 14  4  0  0  0  0
 17 16  1  0  0  0  0
 18 16  4  0  0  0  0
 19 18  1  0  0  0  0
 20 12  4  0  0  0  0
 21 13  1  0  0  0  0
 22 21  1  0  0  0  0
 23 21  1  0  0  0  0
 24 23  1  0  0  0  0
 25 23  1  0  0  0  0
 26 23  1  0  0  0  0
 27 21  1  0  0  0  0
 28 27  1  0  0  0  0
 29 27  1  0  0  0  0
 30 27  1  0  0  0  0
 31 20  1  0  0  0  0
 32 31  1  0  0  0  0
 33 31  1  0  0  0  0
 34 33  1  0  0  0  0
 35 33  1  0  0  0  0
 36 33  1  0  0  0  0
 37 31  1  0  0  0  0
 38 37  1  0  0  0  0
 39 37  1  0  0  0  0
 40 37  1  0  0  0  0
 41 11  1  0  0  0  0
 42 41  4  0  0  0  0
 43 42  4  0  0  0  0
 44 43  1  0  0  0  0
 45 43  4  0  0  0  0
 46 45  1  0  0  0  0
 47 45  4  0  0  0  0
 48 47  1  0  0  0  0
 49 41  4  0  0  0  0
 50 42  1  0  0  0  0
 51 50  1  0  0  0  0
 52 50  1  0  0  0  0
 53 52  1  0  0  0  0
 54 52  1  0  0  0  0
 55 52  1  0  0  0  0
 56 50  1  0  0  0  0
 57 56  1  0  0  0  0
 58 56  1  0  0  0  0
 59 56  1  0  0  0  0
 60 49  1  0  0  0  0
 61 60  1  0  0  0  0
 62 60  1  0  0  0  0
 63 62  1  0  0  0  0
 64 62  1  0  0  0  0
 65 62  1  0  0  0  0
 66 60  1  0  0  0  0
 67 66  1  0  0  0  0
 68 66  1  0  0  0  0
 69 66  1  0  0  0  0
 70  1  8  0  0  0  0
 71 70  1  0  0  0  0
 72 70  1  0  0  0  0
 73 72  1  0  0  0  0
 74 72  1  0  0  0  0
 75 72  1  0  0  0  0
 76 75  1  0  0  0  0
 77 75  1  0  0  0  0
 78  1  8  0  0  0  0
 79 78  1  0  0  0  0
 80  1  8  0  0  0  0
 81  1  8  0  0  0  0
 82 81  1  0  0  0  0
 83 82  1  0  0  0  0
 84 83  1  0  0  0  0
 85 84  1  0  0  0  0
 86 85  1  0  0  0  0
 87 85  2  0  0  0  0
 88 87  1  0  0  0  0
 89 83  1  0  0  0  0
 90 84  1  0  0  0  0
 91 90  4  0  0  0  0
 92 91  4  0  0  0  0
 93 92  1  0  0  0  0
 94 92  4  0  0  0  0
 95 94  1  0  0  0  0
 96 94  4  0  0  0  0
 97 96  1  0  0  0  0
 98 90  4  0  0  0  0
 99 91  1  0  0  0  0
100 99  1  0  0  0  0
101 99  1  0  0  0  0
102101  1  0  0  0  0
103101  1  0  0  0  0
104101  1  0  0  0  0
105 99  1  0  0  0  0
106105  1  0  0  0  0
107105  1  0  0  0  0
108105  1  0  0  0  0
109 98  1  0  0  0  0
110109  1  0  0  0  0
111109  1  0  0  0  0
112111  1  0  0  0  0
113111  1  0  0  0  0
114111  1  0  0  0  0
115109  1  0  0  0  0
116115  1  0  0  0  0
117115  1  0  0  0  0
118115  1  0  0  0  0
119 89  1  0  0  0  0
120119  4  0  0  0  0
121120  4  0  0  0  0
122121  1  0  0  0  0
123121  4  0  0  0  0
124123  1  0  0  0  0
125123  4  0  0  0  0
126125  1  0  0  0  0
127119  4  0  0  0  0
128120  1  0  0  0  0
129128  1  0  0  0  0
130128  1  0  0  0  0
131130  1  0  0  0  0
132130  1  0  0  0  0
133130  1  0  0  0  0
134128  1  0  0  0  0
135134  1  0  0  0  0
136134  1  0  0  0  0
137134  1  0  0  0  0
138127  1  0  0  0  0
139138  1  0  0  0  0
140138  1  0  0  0  0
141140  1  0  0  0  0
142140  1  0  0  0  0
143140  1  0  0  0  0
144138  1  0  0  0  0
145144  1  0  0  0  0
146144  1  0  0  0  0
147144  1  0  0  0  0
148  1  8  0  0  0  0
149148  1  0  0  0  0
150148  1  0  0  0  0
151150  1  0  0  0  0
152150  1  0  0  0  0
153150  1  0  0  0  0
154153  1  0  0  0  0
155153  1  0  0  0  0
156  1  8  0  0  0  0
157156  1  0  0  0  0
  2 81  4  0  0  0  0
  3 80  4  0  0  0  0
  9 11  1  0  0  0  0
 18 20  4  0  0  0  0
 47 49  4  0  0  0  0
 70156  2  0  0  0  0
 75 78  1  0  0  0  0
 78148  2  0  0  0  0
 80 81  4  0  0  0  0
 87 89  1  0  0  0  0
 96 98  4  0  0  0  0
125127  4  0  0  0  0
153156  1  0  0  0  0
M  END
$$$$
ZEWMOG

From CSD data. Using bond type 'Any'. No disordered atoms. Largest molecule.
178186  0  0  0  0  0  0  0  0999 V2000
    9.0090    4.1165    3.8432 Li  0  0  0  0  0  0  0  0  0  0  0  0
    9.8214    5.8790    2.2196 Li  0  0  0  0  0  0  0  0  0  0  0  0
    6.4003    7.6787    2.7963 P   0  0  0  0  0  0  0  0  0  0  0  0
    7.4735    6.7136    3.7531 C   0  0  0  0  0  0  0  0  0  0  0  0
    8.3779    5.8410    3.3567 O   0  0  0  0  0  0  0  0  0  0  0  0
    7.3038    6.9132    5.3072 B   0  0  0  0  0  0  0  0  0  0  0  0
    6.8212    8.0430    6.0601 N   0  0  0  0  0  0  0  0  0  0  0  0
    7.6691    5.9419    6.3114 N   0  0  0  0  0  0  0  0  0  0  0  0
   11.5229    1.7459    2.0452 P   0  0  0  0  0  0  0  0  0  0  0  0
   11.5124    3.4202    2.4516 C   0  0  0  0  0  0  0  0  0  0  0  0
   10.4831    4.1922    2.7400 O   0  0  0  0  0  0  0  0  0  0  0  0
   12.9345    4.1215    2.4549 B   0  0  0  0  0  0  0  0  0  0  0  0
   14.2568    3.6056    2.7061 N   0  0  0  0  0  0  0  0  0  0  0  0
   13.1430    5.5267    2.2310 N   0  0  0  0  0  0  0  0  0  0  0  0
    6.9038    7.7279    7.4195 C   0  0  0  0  0  0  0  0  0  0  0  0
    6.6460    8.3042    8.1305 H   0  0  0  0  0  0  0  0  0  0  0  0
    7.4007    6.4942    7.5709 C   0  0  0  0  0  0  0  0  0  0  0  0
    7.5485    6.0602    8.4040 H   0  0  0  0  0  0  0  0  0  0  0  0
    6.1155    9.2226    5.6269 C   0  0  0  0  0  0  0  0  0  0  0  0
    4.7203    9.2149    5.6575 C   0  0  0  0  0  0  0  0  0  0  0  0
    4.0465   10.3471    5.1851 C   0  0  0  0  0  0  0  0  0  0  0  0
    3.0968   10.3640    5.1929 H   0  0  0  0  0  0  0  0  0  0  0  0
    4.7407   11.4316    4.7126 C   0  0  0  0  0  0  0  0  0  0  0  0
    4.2663   12.1900    4.3915 H   0  0  0  0  0  0  0  0  0  0  0  0
    6.1198   11.4300    4.6988 C   0  0  0  0  0  0  0  0  0  0  0  0
    6.5842   12.1939    4.3780 H   0  0  0  0  0  0  0  0  0  0  0  0
    6.8413   10.3265    5.1480 C   0  0  0  0  0  0  0  0  0  0  0  0
    3.9151    8.0259    6.1487 C   0  0  0  0  0  0  0  0  0  0  0  0
    4.5598    7.3421    6.4898 H   0  0  0  0  0  0  0  0  0  0  0  0
    3.1134    7.3830    5.0075 C   0  0  0  0  0  0  0  0  0  0  0  0
    2.5163    8.0521    4.6135 H   0  0  0  0  0  0  0  0  0  0  0  0
    2.5846    6.6393    5.3608 H   0  0  0  0  0  0  0  0  0  0  0  0
    3.7306    7.0509    4.3211 H   0  0  0  0  0  0  0  0  0  0  0  0
    3.0005    8.4165    7.3018 C   0  0  0  0  0  0  0  0  0  0  0  0
    3.5329    8.8230    8.0168 H   0  0  0  0  0  0  0  0  0  0  0  0
    2.5481    7.6180    7.6459 H   0  0  0  0  0  0  0  0  0  0  0  0
    2.3326    9.0604    6.9853 H   0  0  0  0  0  0  0  0  0  0  0  0
    8.3554   10.3021    5.1149 C   0  0  0  0  0  0  0  0  0  0  0  0
    8.6282    9.3920    4.8057 H   0  0  0  0  0  0  0  0  0  0  0  0
    8.9759   11.3085    4.1484 C   0  0  0  0  0  0  0  0  0  0  0  0
    8.6312   11.1483    3.2435 H   0  0  0  0  0  0  0  0  0  0  0  0
    9.9502   11.2045    4.1505 H   0  0  0  0  0  0  0  0  0  0  0  0
    8.7429   12.2174    4.4294 H   0  0  0  0  0  0  0  0  0  0  0  0
    8.9522   10.4985    6.5082 C   0  0  0  0  0  0  0  0  0  0  0  0
    8.6973   11.3809    6.8499 H   0  0  0  0  0  0  0  0  0  0  0  0
    9.9282   10.4364    6.4573 H   0  0  0  0  0  0  0  0  0  0  0  0
    8.6120    9.8028    7.1098 H   0  0  0  0  0  0  0  0  0  0  0  0
    8.0399    4.5698    6.1351 C   0  0  0  0  0  0  0  0  0  0  0  0
    7.1276    3.6872    5.5197 C   0  0  0  0  0  0  0  0  0  0  0  0
    7.5475    2.3862    5.2579 C   0  0  0  0  0  0  0  0  0  0  0  0
    6.9631    1.7913    4.8030 H   0  0  0  0  0  0  0  0  0  0  0  0
    8.8037    1.9414    5.6467 C   0  0  0  0  0  0  0  0  0  0  0  0
    9.0689    1.0481    5.4637 H   0  0  0  0  0  0  0  0  0  0  0  0
    9.6651    2.7939    6.2970 C   0  0  0  0  0  0  0  0  0  0  0  0
   10.5141    2.4736    6.5791 H   0  0  0  0  0  0  0  0  0  0  0  0
    9.3141    4.1280    6.5513 C   0  0  0  0  0  0  0  0  0  0  0  0
    5.6988    4.1094    5.2121 C   0  0  0  0  0  0  0  0  0  0  0  0
    5.7312    5.0129    4.7868 H   0  0  0  0  0  0  0  0  0  0  0  0
    4.9631    3.1651    4.2575 C   0  0  0  0  0  0  0  0  0  0  0  0
    5.4971    3.0388    3.4466 H   0  0  0  0  0  0  0  0  0  0  0  0
    4.0945    3.5527    4.0206 H   0  0  0  0  0  0  0  0  0  0  0  0
    4.8258    2.2984    4.6947 H   0  0  0  0  0  0  0  0  0  0  0  0
    4.9129    4.2353    6.5228 C   0  0  0  0  0  0  0  0  0  0  0  0
    4.8702    3.3613    6.9636 H   0  0  0  0  0  0  0  0  0  0  0  0
    4.0044    4.5491    6.3301 H   0  0  0  0  0  0  0  0  0  0  0  0
    5.3614    4.8754    7.1125 H   0  0  0  0  0  0  0  0  0  0  0  0
   10.3012    5.0118    7.2955 C   0  0  0  0  0  0  0  0  0  0  0  0
   10.0087    5.9625    7.1991 H   0  0  0  0  0  0  0  0  0  0  0  0
   11.7258    4.8825    6.7327 C   0  0  0  0  0  0  0  0  0  0  0  0
   12.0810    3.9939    6.9419 H   0  0  0  0  0  0  0  0  0  0  0  0
   12.3001    5.5668    7.1369 H   0  0  0  0  0  0  0  0  0  0  0  0
   11.7054    5.0066    5.7615 H   0  0  0  0  0  0  0  0  0  0  0  0
   10.2958    4.6500    8.7846 C   0  0  0  0  0  0  0  0  0  0  0  0
    9.4069    4.8217    9.1594 H   0  0  0  0  0  0  0  0  0  0  0  0
   10.9601    5.1959    9.2568 H   0  0  0  0  0  0  0  0  0  0  0  0
   10.5167    3.7011    8.8913 H   0  0  0  0  0  0  0  0  0  0  0  0
    6.7802    7.2988    1.0353 C   0  0  0  0  0  0  0  0  0  0  0  0
    6.6978    6.0039    0.4852 C   0  0  0  0  0  0  0  0  0  0  0  0
    6.9917    5.8129   -0.8626 C   0  0  0  0  0  0  0  0  0  0  0  0
    6.9578    4.9354   -1.2238 H   0  0  0  0  0  0  0  0  0  0  0  0
    7.3337    6.8700   -1.6946 C   0  0  0  0  0  0  0  0  0  0  0  0
    7.3274    8.1565   -1.1585 C   0  0  0  0  0  0  0  0  0  0  0  0
    7.5228    8.8945   -1.7247 H   0  0  0  0  0  0  0  0  0  0  0  0
    7.0445    8.3900    0.1817 C   0  0  0  0  0  0  0  0  0  0  0  0
    6.2002    4.8393    1.2971 C   0  0  0  0  0  0  0  0  0  0  0  0
    6.0630    4.0668    0.7094 H   0  0  0  0  0  0  0  0  0  0  0  0
    5.3510    5.0788    1.7247 H   0  0  0  0  0  0  0  0  0  0  0  0
    6.8605    4.6151    1.9846 H   0  0  0  0  0  0  0  0  0  0  0  0
    7.6730    6.6392   -3.1401 C   0  0  0  0  0  0  0  0  0  0  0  0
    7.0709    7.1662   -3.7065 H   0  0  0  0  0  0  0  0  0  0  0  0
    7.5712    5.6881   -3.3518 H   0  0  0  0  0  0  0  0  0  0  0  0
    8.5991    6.9122   -3.3058 H   0  0  0  0  0  0  0  0  0  0  0  0
    7.0185    9.8104    0.6839 C   0  0  0  0  0  0  0  0  0  0  0  0
    7.1971   10.4226   -0.0596 H   0  0  0  0  0  0  0  0  0  0  0  0
    7.7045    9.9254    1.3727 H   0  0  0  0  0  0  0  0  0  0  0  0
    6.1374   10.0072    1.0640 H   0  0  0  0  0  0  0  0  0  0  0  0
   15.1633    4.6713    2.6390 C   0  0  0  0  0  0  0  0  0  0  0  0
   16.1013    4.6006    2.7697 H   0  0  0  0  0  0  0  0  0  0  0  0
   14.5062    5.8083    2.3625 C   0  0  0  0  0  0  0  0  0  0  0  0
   14.9032    6.6660    2.2716 H   0  0  0  0  0  0  0  0  0  0  0  0
   14.7290    2.2446    2.7803 C   0  0  0  0  0  0  0  0  0  0  0  0
   15.3010    1.6791    1.6367 C   0  0  0  0  0  0  0  0  0  0  0  0
   15.7399    0.3431    1.7141 C   0  0  0  0  0  0  0  0  0  0  0  0
   16.1348   -0.0671    0.9530 H   0  0  0  0  0  0  0  0  0  0  0  0
   15.6024   -0.3731    2.8840 C   0  0  0  0  0  0  0  0  0  0  0  0
   15.9027   -1.2745    2.9214 H   0  0  0  0  0  0  0  0  0  0  0  0
   15.0338    0.2042    3.9970 C   0  0  0  0  0  0  0  0  0  0  0  0
   14.9414   -0.3101    4.7922 H   0  0  0  0  0  0  0  0  0  0  0  0
   14.5900    1.5308    3.9840 C   0  0  0  0  0  0  0  0  0  0  0  0
   15.4217    2.4246    0.3233 C   0  0  0  0  0  0  0  0  0  0  0  0
   15.1580    3.3751    0.4873 H   0  0  0  0  0  0  0  0  0  0  0  0
   14.4644    1.8535   -0.7194 C   0  0  0  0  0  0  0  0  0  0  0  0
   14.7143    0.9269   -0.9205 H   0  0  0  0  0  0  0  0  0  0  0  0
   14.5138    2.3909   -1.5378 H   0  0  0  0  0  0  0  0  0  0  0  0
   13.5499    1.8756   -0.3682 H   0  0  0  0  0  0  0  0  0  0  0  0
   16.8602    2.4258   -0.2050 C   0  0  0  0  0  0  0  0  0  0  0  0
   17.4578    2.8032    0.4738 H   0  0  0  0  0  0  0  0  0  0  0  0
   16.9085    2.9674   -1.0207 H   0  0  0  0  0  0  0  0  0  0  0  0
   17.1348    1.5074   -0.4061 H   0  0  0  0  0  0  0  0  0  0  0  0
   13.9867    2.1829    5.2159 C   0  0  0  0  0  0  0  0  0  0  0  0
   13.2413    2.7727    4.9059 H   0  0  0  0  0  0  0  0  0  0  0  0
   13.3969    1.1869    6.2144 C   0  0  0  0  0  0  0  0  0  0  0  0
   12.7548    0.6040    5.7561 H   0  0  0  0  0  0  0  0  0  0  0  0
   12.9403    1.6751    6.9311 H   0  0  0  0  0  0  0  0  0  0  0  0
   14.1170    0.6425    6.5954 H   0  0  0  0  0  0  0  0  0  0  0  0
   15.0156    3.0730    5.9080 C   0  0  0  0  0  0  0  0  0  0  0  0
   15.7873    2.5317    6.1784 H   0  0  0  0  0  0  0  0  0  0  0  0
   14.6122    3.4843    6.7010 H   0  0  0  0  0  0  0  0  0  0  0  0
   15.3084    3.7740    5.2904 H   0  0  0  0  0  0  0  0  0  0  0  0
   12.2055    6.4964    1.7802 C   0  0  0  0  0  0  0  0  0  0  0  0
   11.6612    6.3711    0.4730 C   0  0  0  0  0  0  0  0  0  0  0  0
   10.6771    7.2794    0.0912 C   0  0  0  0  0  0  0  0  0  0  0  0
   10.2779    7.1961   -0.7662 H   0  0  0  0  0  0  0  0  0  0  0  0
   10.2692    8.2945    0.9284 C   0  0  0  0  0  0  0  0  0  0  0  0
    9.6015    8.9059    0.6417 H   0  0  0  0  0  0  0  0  0  0  0  0
   10.8304    8.4273    2.1863 C   0  0  0  0  0  0  0  0  0  0  0  0
   10.5535    9.1421    2.7481 H   0  0  0  0  0  0  0  0  0  0  0  0
   11.7985    7.5269    2.6449 C   0  0  0  0  0  0  0  0  0  0  0  0
   12.1726    5.3125   -0.4898 C   0  0  0  0  0  0  0  0  0  0  0  0
   12.2928    4.4633    0.0244 H   0  0  0  0  0  0  0  0  0  0  0  0
   11.2249    5.0277   -1.6586 C   0  0  0  0  0  0  0  0  0  0  0  0
   10.3170    4.8863   -1.3158 H   0  0  0  0  0  0  0  0  0  0  0  0
   11.5236    4.2250   -2.1335 H   0  0  0  0  0  0  0  0  0  0  0  0
   11.2249    5.7896   -2.2743 H   0  0  0  0  0  0  0  0  0  0  0  0
   13.5402    5.7282   -1.0394 C   0  0  0  0  0  0  0  0  0  0  0  0
   13.4509    6.5662   -1.5378 H   0  0  0  0  0  0  0  0  0  0  0  0
   13.8791    5.0287   -1.6353 H   0  0  0  0  0  0  0  0  0  0  0  0
   14.1658    5.8552   -0.2951 H   0  0  0  0  0  0  0  0  0  0  0  0
   12.3318    7.6557    4.0582 C   0  0  0  0  0  0  0  0  0  0  0  0
   12.8590    6.8335    4.2724 H   0  0  0  0  0  0  0  0  0  0  0  0
   11.1788    7.7610    5.0567 C   0  0  0  0  0  0  0  0  0  0  0  0
   10.7261    8.6225    4.9411 H   0  0  0  0  0  0  0  0  0  0  0  0
   11.5309    7.6958    5.9700 H   0  0  0  0  0  0  0  0  0  0  0  0
   10.5437    7.0322    4.9005 H   0  0  0  0  0  0  0  0  0  0  0  0
   13.2568    8.8652    4.1857 C   0  0  0  0  0  0  0  0  0  0  0  0
   13.9723    8.8006    3.5197 H   0  0  0  0  0  0  0  0  0  0  0  0
   13.6485    8.8832    5.0846 H   0  0  0  0  0  0  0  0  0  0  0  0
   12.7439    9.6866    4.0368 H   0  0  0  0  0  0  0  0  0  0  0  0
    9.7651    1.1833    2.1091 C   0  0  0  0  0  0  0  0  0  0  0  0
    9.4650    0.0782    2.9235 C   0  0  0  0  0  0  0  0  0  0  0  0
    8.1614   -0.3986    2.9720 C   0  0  0  0  0  0  0  0  0  0  0  0
    7.9634   -1.1364    3.5387 H   0  0  0  0  0  0  0  0  0  0  0  0
    7.1327    0.1653    2.2207 C   0  0  0  0  0  0  0  0  0  0  0  0
    7.4600    1.2122    1.3689 C   0  0  0  0  0  0  0  0  0  0  0  0
    6.7818    1.5915    0.8231 H   0  0  0  0  0  0  0  0  0  0  0  0
    8.7546    1.7220    1.2912 C   0  0  0  0  0  0  0  0  0  0  0  0
   10.5275   -0.6078    3.7463 C   0  0  0  0  0  0  0  0  0  0  0  0
   10.1306   -1.3645    4.2264 H   0  0  0  0  0  0  0  0  0  0  0  0
   10.9037    0.0281    4.3915 H   0  0  0  0  0  0  0  0  0  0  0  0
   11.2384   -0.9333    3.1569 H   0  0  0  0  0  0  0  0  0  0  0  0
    5.7073   -0.3353    2.3206 C   0  0  0  0  0  0  0  0  0  0  0  0
    5.2019    0.2375    2.9349 H   0  0  0  0  0  0  0  0  0  0  0  0
    5.7075   -1.2553    2.6587 H   0  0  0  0  0  0  0  0  0  0  0  0
    5.2907   -0.3132    1.4350 H   0  0  0  0  0  0  0  0  0  0  0  0
    9.0606    2.7927    0.2721 C   0  0  0  0  0  0  0  0  0  0  0  0
    8.2846    2.9195   -0.3114 H   0  0  0  0  0  0  0  0  0  0  0  0
    9.8329    2.5201   -0.2653 H   0  0  0  0  0  0  0  0  0  0  0  0
    9.2639    3.6340    0.7337 H   0  0  0  0  0  0  0  0  0  0  0  0
  1  5  1  0  0  0  0
  2  5  1  0  0  0  0
  3  4  2  0  0  0  0
  4  5  1  0  0  0  0
  6  4  1  0  0  0  0
  7  6  1  0  0  0  0
  8  6  1  0  0  0  0
  9 10  2  0  0  0  0
 10 11  1  0  0  0  0
 11  1  1  0  0  0  0
 12 10  1  0  0  0  0
 13 12  1  0  0  0  0
 14 12  1  0  0  0  0
 15  7  1  0  0  0  0
 16 15  1  0  0  0  0
 17  8  1  0  0  0  0
 18 17  1  0  0  0  0
 19  7  1  0  0  0  0
 20 19  4  0  0  0  0
 21 20  4  0  0  0  0
 22 21  1  0  0  0  0
 23 21  4  0  0  0  0
 24 23  1  0  0  0  0
 25 23  4  0  0  0  0
 26 25  1  0  0  0  0
 27 19  4  0  0  0  0
 28 20  1  0  0  0  0
 29 28  1  0  0  0  0
 30 28  1  0  0  0  0
 31 30  1  0  0  0  0
 32 30  1  0  0  0  0
 33 30  1  0  0  0  0
 34 28  1  0  0  0  0
 35 34  1  0  0  0  0
 36 34  1  0  0  0  0
 37 34  1  0  0  0  0
 38 27  1  0  0  0  0
 39 38  1  0  0  0  0
 40 38  1  0  0  0  0
 41 40  1  0  0  0  0
 42 40  1  0  0  0  0
 43 40  1  0  0  0  0
 44 38  1  0  0  0  0
 45 44  1  0  0  0  0
 46 44  1  0  0  0  0
 47 44  1  0  0  0  0
 48  8  1  0  0  0  0
 49 48  4  0  0  0  0
 50 49  4  0  0  0  0
 51 50  1  0  0  0  0
 52 50  4  0  0  0  0
 53 52  1  0  0  0  0
 54 52  4  0  0  0  0
 55 54  1  0  0  0  0
 56 48  4  0  0  0  0
 57 49  1  0  0  0  0
 58 57  1  0  0  0  0
 59 57  1  0  0  0  0
 60 59  1  0  0  0  0
 61 59  1  0  0  0  0
 62 59  1  0  0  0  0
 63 57  1  0  0  0  0
 64 63  1  0  0  0  0
 65 63  1  0  0  0  0
 66 63  1  0  0  0  0
 67 56  1  0  0  0  0
 68 67  1  0  0  0  0
 69 67  1  0  0  0  0
 70 69  1  0  0  0  0
 71 69  1  0  0  0  0
 72 69  1  0  0  0  0
 73 67  1  0  0  0  0
 74 73  1  0  0  0  0
 75 73  1  0  0  0  0
 76 73  1  0  0  0  0
 77  3  1  0  0  0  0
 78 77  4  0  0  0  0
 79 78  4  0  0  0  0
 80 79  1  0  0  0  0
 81 79  4  0  0  0  0
 82 81  4  0  0  0  0
 83 82  1  0  0  0  0
 84 77  4  0  0  0  0
 85 78  1  0  0  0  0
 86 85  1  0  0  0  0
 87 85  1  0  0  0  0
 88 85  1  0  0  0  0
 89 81  1  0  0  0  0
 90 89  1  0  0  0  0
 91 89  1  0  0  0  0
 92 89  1  0  0  0  0
 93 84  1  0  0  0  0
 94 93  1  0  0  0  0
 95 93  1  0  0  0  0
 96 93  1  0  0  0  0
 97 13  1  0  0  0  0
 98 97  1  0  0  0  0
 99 14  1  0  0  0  0
100 99  1  0  0  0  0
101 13  1  0  0  0  0
102101  4  0  0  0  0
103102  4  0  0  0  0
104103  1  0  0  0  0
105103  4  0  0  0  0
106105  1  0  0  0  0
107105  4  0  0  0  0
108107  1  0  0  0  0
109101  4  0  0  0  0
110102  1  0  0  0  0
111110  1  0  0  0  0
112110  1  0  0  0  0
113112  1  0  0  0  0
114112  1  0  0  0  0
115112  1  0  0  0  0
116110  1  0  0  0  0
117116  1  0  0  0  0
118116  1  0  0  0  0
119116  1  0  0  0  0
120109  1  0  0  0  0
121120  1  0  0  0  0
122120  1  0  0  0  0
123122  1  0  0  0  0
124122  1  0  0  0  0
125122  1  0  0  0  0
126120  1  0  0  0  0
127126  1  0  0  0  0
128126  1  0  0  0  0
129126  1  0  0  0  0
130 14  1  0  0  0  0
131130  4  0  0  0  0
132131  4  0  0  0  0
133132  1  0  0  0  0
134132  4  0  0  0  0
135134  1  0  0  0  0
136134  4  0  0  0  0
137136  1  0  0  0  0
138130  4  0  0  0  0
139131  1  0  0  0  0
140139  1  0  0  0  0
141139  1  0  0  0  0
142141  1  0  0  0  0
143141  1  0  0  0  0
144141  1  0  0  0  0
145139  1  0  0  0  0
146145  1  0  0  0  0
147145  1  0  0  0  0
148145  1  0  0  0  0
149138  1  0  0  0  0
150149  1  0  0  0  0
151149  1  0  0  0  0
152151  1  0  0  0  0
153151  1  0  0  0  0
154151  1  0  0  0  0
155149  1  0  0  0  0
156155  1  0  0  0  0
157155  1  0  0  0  0
158155  1  0  0  0  0
159  9  1  0  0  0  0
160159  4  0  0  0  0
161160  4  0  0  0  0
162161  1  0  0  0  0
163161  4  0  0  0  0
164163  4  0  0  0  0
165164  1  0  0  0  0
166159  4  0  0  0  0
167160  1  0  0  0  0
168167  1  0  0  0  0
169167  1  0  0  0  0
170167  1  0  0  0  0
171163  1  0  0  0  0
172171  1  0  0  0  0
173171  1  0  0  0  0
174171  1  0  0  0  0
175166  1  0  0  0  0
176175  1  0  0  0  0
177175  1  0  0  0  0
178175  1  0  0  0  0
  2 11  1  0  0  0  0
 15 17  2  0  0  0  0
 25 27  4  0  0  0  0
 54 56  4  0  0  0  0
 82 84  4  0  0  0  0
 97 99  2  0  0  0  0
107109  4  0  0  0  0
136138  4  0  0  0  0
164166  4  0  0  0  0
M  END
$$$$
ZISREY

From CSD data. Using bond type 'Any'. No disordered atoms. Largest molecule.
 67 71  0  0  0  0  0  0  0  0999 V2000
    2.9018    3.5383    1.1789 Ti  0  0  0  0  0  0  0  0  0  0  0  0
    1.2010    3.5383    0.5783 O   0  0  0  0  0  0  0  0  0  0  0  0
    3.4547    3.5383    3.5725 B   0  0  0  0  0  0  0  0  0  0  0  0
    4.6595    3.5383   -0.5203 B   0  0  0  0  0  0  0  0  0  0  0  0
    3.0196    0.9553    1.3201 P   0  0  0  0  0  0  0  0  0  0  0  0
   -0.0627    3.5383    0.0735 C   0  0  0  0  0  0  0  0  0  0  0  0
   -1.1440    3.5383    0.9536 C   0  0  0  0  0  0  0  0  0  0  0  0
   -2.4305    3.5383    0.4246 C   0  0  0  0  0  0  0  0  0  0  0  0
   -2.6414    3.5383   -0.9371 C   0  0  0  0  0  0  0  0  0  0  0  0
   -1.5658    3.5383   -1.7959 C   0  0  0  0  0  0  0  0  0  0  0  0
   -0.2565    3.5383   -1.3230 C   0  0  0  0  0  0  0  0  0  0  0  0
    0.9102    3.5383   -2.2853 C   0  0  0  0  0  0  0  0  0  0  0  0
    0.9330    4.7710   -3.1624 C   0  0  0  0  0  0  0  0  0  0  0  0
   -0.9482    3.5383    2.4671 C   0  0  0  0  0  0  0  0  0  0  0  0
   -1.5563    4.7781    3.0996 C   0  0  0  0  0  0  0  0  0  0  0  0
    2.1264    0.2250    2.7117 C   0  0  0  0  0  0  0  0  0  0  0  0
    2.1967    0.2024   -0.0977 C   0  0  0  0  0  0  0  0  0  0  0  0
    4.6139    0.1599    1.4033 C   0  0  0  0  0  0  0  0  0  0  0  0
    4.0780    3.5383    2.6856 H   0  0  0  0  0  0  0  0  0  0  0  0
    2.4115    3.5383    3.0348 H   0  0  0  0  0  0  0  0  0  0  0  0
    3.6562    2.6452    4.2127 H   0  0  0  0  0  0  0  0  0  0  0  0
    4.8097    3.5383    0.6886 H   0  0  0  0  0  0  0  0  0  0  0  0
    3.5213    3.5383   -0.7021 H   0  0  0  0  0  0  0  0  0  0  0  0
    5.0662    2.6452   -0.8762 H   0  0  0  0  0  0  0  0  0  0  0  0
   -3.1811    3.5383    1.0232 H   0  0  0  0  0  0  0  0  0  0  0  0
   -3.5384    3.5383   -1.2824 H   0  0  0  0  0  0  0  0  0  0  0  0
   -1.7198    3.5383   -2.7437 H   0  0  0  0  0  0  0  0  0  0  0  0
    1.7141    3.5383   -1.7611 H   0  0  0  0  0  0  0  0  0  0  0  0
    0.8855    5.5565   -2.6121 H   0  0  0  0  0  0  0  0  0  0  0  0
    0.1805    4.7526   -3.7582 H   0  0  0  0  0  0  0  0  0  0  0  0
    1.7445    4.7865   -3.6730 H   0  0  0  0  0  0  0  0  0  0  0  0
   -0.0057    3.5383    2.6460 H   0  0  0  0  0  0  0  0  0  0  0  0
   -1.1364    5.5607    2.7369 H   0  0  0  0  0  0  0  0  0  0  0  0
   -1.4195    4.7526    4.0492 H   0  0  0  0  0  0  0  0  0  0  0  0
   -2.4970    4.8035    2.9119 H   0  0  0  0  0  0  0  0  0  0  0  0
    2.2196   -0.7303    2.6856 H   0  0  0  0  0  0  0  0  0  0  0  0
    1.1972    0.4571    2.6528 H   0  0  0  0  0  0  0  0  0  0  0  0
    2.4875    0.5590    3.5357 H   0  0  0  0  0  0  0  0  0  0  0  0
    2.2614   -0.7529   -0.0358 H   0  0  0  0  0  0  0  0  0  0  0  0
    2.6186    0.4996   -0.9081 H   0  0  0  0  0  0  0  0  0  0  0  0
    1.2713    0.4600   -0.1054 H   0  0  0  0  0  0  0  0  0  0  0  0
    4.4961   -0.7926    1.3926 H   0  0  0  0  0  0  0  0  0  0  0  0
    5.0586    0.4189    2.2137 H   0  0  0  0  0  0  0  0  0  0  0  0
    5.1441    0.4260    0.6480 H   0  0  0  0  0  0  0  0  0  0  0  0
    0.9330    2.3055   -3.1624 C   0  0  0  0  0  0  0  0  0  0  0  0
    0.8855    1.5200   -2.6121 H   0  0  0  0  0  0  0  0  0  0  0  0
    0.1805    2.3239   -3.7582 H   0  0  0  0  0  0  0  0  0  0  0  0
    1.7445    2.2900   -3.6730 H   0  0  0  0  0  0  0  0  0  0  0  0
   -1.5563    2.2984    3.0996 C   0  0  0  0  0  0  0  0  0  0  0  0
   -1.1364    1.5158    2.7369 H   0  0  0  0  0  0  0  0  0  0  0  0
   -1.4195    2.3239    4.0492 H   0  0  0  0  0  0  0  0  0  0  0  0
   -2.4970    2.2730    2.9119 H   0  0  0  0  0  0  0  0  0  0  0  0
    3.0196    6.1212    1.3201 P   0  0  0  0  0  0  0  0  0  0  0  0
    2.1264    6.8515    2.7117 C   0  0  0  0  0  0  0  0  0  0  0  0
    2.2196    7.8068    2.6856 H   0  0  0  0  0  0  0  0  0  0  0  0
    1.1972    6.6194    2.6528 H   0  0  0  0  0  0  0  0  0  0  0  0
    2.4875    6.5175    3.5357 H   0  0  0  0  0  0  0  0  0  0  0  0
    2.1967    6.8741   -0.0977 C   0  0  0  0  0  0  0  0  0  0  0  0
    2.2614    7.8294   -0.0358 H   0  0  0  0  0  0  0  0  0  0  0  0
    2.6186    6.5769   -0.9081 H   0  0  0  0  0  0  0  0  0  0  0  0
    1.2713    6.6165   -0.1054 H   0  0  0  0  0  0  0  0  0  0  0  0
    4.6139    6.9166    1.4033 C   0  0  0  0  0  0  0  0  0  0  0  0
    4.4961    7.8691    1.3926 H   0  0  0  0  0  0  0  0  0  0  0  0
    5.0586    6.6576    2.2137 H   0  0  0  0  0  0  0  0  0  0  0  0
    5.1441    6.6505    0.6480 H   0  0  0  0  0  0  0  0  0  0  0  0
    3.6562    4.4313    4.2127 H   0  0  0  0  0  0  0  0  0  0  0  0
    5.0662    4.4313   -0.8762 H   0  0  0  0  0  0  0  0  0  0  0  0
  1  2  1  0  0  0  0
  2  6  1  0  0  0  0
  3  1  1  0  0  0  0
  4  1  1  0  0  0  0
  5  1  1  0  0  0  0
  6  7  4  0  0  0  0
  7  8  4  0  0  0  0
  8  9  4  0  0  0  0
  9 10  4  0  0  0  0
 10 11  4  0  0  0  0
 11  6  4  0  0  0  0
 12 11  1  0  0  0  0
 13 12  1  0  0  0  0
 14  7  1  0  0  0  0
 15 14  1  0  0  0  0
 16  5  1  0  0  0  0
 17  5  1  0  0  0  0
 18  5  1  0  0  0  0
 19  1  1  0  0  0  0
 20  1  1  0  0  0  0
 21  3  1  0  0  0  0
 22  1  1  0  0  0  0
 23  1  1  0  0  0  0
 24  4  1  0  0  0  0
 25  8  1  0  0  0  0
 26  9  1  0  0  0  0
 27 10  1  0  0  0  0
 28 12  1  0  0  0  0
 29 13  1  0  0  0  0
 30 13  1  0  0  0  0
 31 13  1  0  0  0  0
 32 14  1  0  0  0  0
 33 15  1  0  0  0  0
 34 15  1  0  0  0  0
 35 15  1  0  0  0  0
 36 16  1  0  0  0  0
 37 16  1  0  0  0  0
 38 16  1  0  0  0  0
 39 17  1  0  0  0  0
 40 17  1  0  0  0  0
 41 17  1  0  0  0  0
 42 18  1  0  0  0  0
 43 18  1  0  0  0  0
 44 18  1  0  0  0  0
 45 12  1  0  0  0  0
 46 45  1  0  0  0  0
 47 45  1  0  0  0  0
 48 45  1  0  0  0  0
 49 14  1  0  0  0  0
 50 49  1  0  0  0  0
 51 49  1  0  0  0  0
 52 49  1  0  0  0  0
 53  1  1  0  0  0  0
 54 53  1  0  0  0  0
 55 54  1  0  0  0  0
 56 54  1  0  0  0  0
 57 54  1  0  0  0  0
 58 53  1  0  0  0  0
 59 58  1  0  0  0  0
 60 58  1  0  0  0  0
 61 58  1  0  0  0  0
 62 53  1  0  0  0  0
 63 62  1  0  0  0  0
 64 62  1  0  0  0  0
 65 62  1  0  0  0  0
 66  3  1  0  0  0  0
 67  4  1  0  0  0  0
  3 19  1  0  0  0  0
  3 20  1  0  0  0  0
  4 22  1  0  0  0  0
  4 23  1  0  0  0  0
M  END
$$$$
ZONHER

From CSD data. Using bond type 'Any'. No disordered atoms. Largest molecule.
163186  0  0  0  0  0  0  0  0999 V2000
   -1.6903   13.4153    5.9222 Ru  0  0  0  0  0  0  0  0  0  0  0  0
    0.6329   13.4883    5.1917 Cl  0  0  0  0  0  0  0  0  0  0  0  0
   -2.1356   15.3886    4.7580 P   0  0  0  0  0  0  0  0  0  0  0  0
   -1.1921   11.9631    7.6242 C   0  0  0  0  0  0  0  0  0  0  0  0
   -0.5601   11.2293    7.4744 H   0  0  0  0  0  0  0  0  0  0  0  0
   -3.3387   10.4865    7.4987 O   0  0  0  0  0  0  0  0  0  0  0  0
   -2.6937   11.7102    7.5228 B   0  0  0  0  0  0  0  0  0  0  0  0
   -3.0448    7.6446    9.7458 Ru  0  0  0  0  0  0  0  0  0  0  0  0
   -2.2739   11.8847    4.2261 P   0  0  0  0  0  0  0  0  0  0  0  0
   -4.7045    5.9549   10.3519 Cl  0  0  0  0  0  0  0  0  0  0  0  0
   -0.7181   13.2504    7.9191 C   0  0  0  0  0  0  0  0  0  0  0  0
    0.2504   13.3876    7.9780 H   0  0  0  0  0  0  0  0  0  0  0  0
   -2.8888    9.2170    7.7880 B   0  0  0  0  0  0  0  0  0  0  0  0
   -4.3913    9.3332   10.6905 P   0  0  0  0  0  0  0  0  0  0  0  0
   -1.5505   14.3765    7.9173 C   0  0  0  0  0  0  0  0  0  0  0  0
   -1.1526   15.2688    7.9943 H   0  0  0  0  0  0  0  0  0  0  0  0
   -1.7245    7.1909   11.6368 P   0  0  0  0  0  0  0  0  0  0  0  0
   -2.9160   14.2523    7.5469 C   0  0  0  0  0  0  0  0  0  0  0  0
   -3.4409   15.0622    7.3801 H   0  0  0  0  0  0  0  0  0  0  0  0
   -3.4896   12.9935    7.2749 C   0  0  0  0  0  0  0  0  0  0  0  0
   -4.3892   12.9425    6.8875 H   0  0  0  0  0  0  0  0  0  0  0  0
   -3.8098    8.0212    7.5817 C   0  0  0  0  0  0  0  0  0  0  0  0
   -4.7655    8.1693    7.4277 H   0  0  0  0  0  0  0  0  0  0  0  0
   -3.3325    6.7205    7.7104 C   0  0  0  0  0  0  0  0  0  0  0  0
   -3.9670    5.9793    7.6197 H   0  0  0  0  0  0  0  0  0  0  0  0
   -2.0261    6.4377    8.1923 C   0  0  0  0  0  0  0  0  0  0  0  0
   -1.7666    5.5126    8.3850 H   0  0  0  0  0  0  0  0  0  0  0  0
   -1.1819    7.4976    8.5758 C   0  0  0  0  0  0  0  0  0  0  0  0
   -0.3502    7.2840    9.0480 H   0  0  0  0  0  0  0  0  0  0  0  0
   -1.5667    8.8433    8.4763 C   0  0  0  0  0  0  0  0  0  0  0  0
   -1.0185    9.5408    8.8925 H   0  0  0  0  0  0  0  0  0  0  0  0
   -1.4007   15.7291    3.1065 C   0  0  0  0  0  0  0  0  0  0  0  0
   -2.1516   15.4865    1.9619 C   0  0  0  0  0  0  0  0  0  0  0  0
   -3.0192   15.1625    2.0463 H   0  0  0  0  0  0  0  0  0  0  0  0
   -1.6365   15.7194    0.7013 C   0  0  0  0  0  0  0  0  0  0  0  0
   -2.1543   15.5558   -0.0535 H   0  0  0  0  0  0  0  0  0  0  0  0
   -0.3439   16.1977    0.5681 C   0  0  0  0  0  0  0  0  0  0  0  0
    0.0076   16.3606   -0.2771 H   0  0  0  0  0  0  0  0  0  0  0  0
    0.4157   16.4312    1.6872 C   0  0  0  0  0  0  0  0  0  0  0  0
    1.2853   16.7478    1.5983 H   0  0  0  0  0  0  0  0  0  0  0  0
   -0.1072   16.1973    2.9459 C   0  0  0  0  0  0  0  0  0  0  0  0
    0.4188   16.3575    3.6966 H   0  0  0  0  0  0  0  0  0  0  0  0
   -1.4889   16.7735    5.7896 C   0  0  0  0  0  0  0  0  0  0  0  0
   -0.1448   16.7578    6.1719 C   0  0  0  0  0  0  0  0  0  0  0  0
    0.4188   16.0972    5.8401 H   0  0  0  0  0  0  0  0  0  0  0  0
    0.3570   17.7119    7.0376 C   0  0  0  0  0  0  0  0  0  0  0  0
    1.2572   17.7003    7.2701 H   0  0  0  0  0  0  0  0  0  0  0  0
   -0.4631   18.6712    7.5508 C   0  0  0  0  0  0  0  0  0  0  0  0
   -0.1226   19.3136    8.1302 H   0  0  0  0  0  0  0  0  0  0  0  0
   -1.7995   18.6878    7.2101 C   0  0  0  0  0  0  0  0  0  0  0  0
   -2.3608   19.3365    7.5719 H   0  0  0  0  0  0  0  0  0  0  0  0
   -2.3110   17.7466    6.3324 C   0  0  0  0  0  0  0  0  0  0  0  0
   -3.2126   17.7666    6.1062 H   0  0  0  0  0  0  0  0  0  0  0  0
   -3.8648   15.9196    4.4357 C   0  0  0  0  0  0  0  0  0  0  0  0
   -4.1233   17.1251    3.7989 C   0  0  0  0  0  0  0  0  0  0  0  0
   -3.4142   17.6614    3.5254 H   0  0  0  0  0  0  0  0  0  0  0  0
   -5.4241   17.5397    3.5652 C   0  0  0  0  0  0  0  0  0  0  0  0
   -5.5861   18.3568    3.1517 H   0  0  0  0  0  0  0  0  0  0  0  0
   -6.4729   16.7433    3.9442 C   0  0  0  0  0  0  0  0  0  0  0  0
   -7.3451   17.0216    3.7798 H   0  0  0  0  0  0  0  0  0  0  0  0
   -6.2460   15.5376    4.5668 C   0  0  0  0  0  0  0  0  0  0  0  0
   -6.9623   15.0016    4.8231 H   0  0  0  0  0  0  0  0  0  0  0  0
   -4.9420   15.1241    4.8097 C   0  0  0  0  0  0  0  0  0  0  0  0
   -4.7880   14.3065    5.2265 H   0  0  0  0  0  0  0  0  0  0  0  0
   -4.0809   11.8372    3.8738 C   0  0  0  0  0  0  0  0  0  0  0  0
   -4.9769   11.2675    4.7749 C   0  0  0  0  0  0  0  0  0  0  0  0
   -4.6604   10.8479    5.5413 H   0  0  0  0  0  0  0  0  0  0  0  0
   -6.3393   11.3268    4.5317 C   0  0  0  0  0  0  0  0  0  0  0  0
   -6.9296   10.9414    5.1385 H   0  0  0  0  0  0  0  0  0  0  0  0
   -6.8316   11.9452    3.4106 C   0  0  0  0  0  0  0  0  0  0  0  0
   -7.7478   11.9650    3.2486 H   0  0  0  0  0  0  0  0  0  0  0  0
   -5.9563   12.5378    2.5264 C   0  0  0  0  0  0  0  0  0  0  0  0
   -6.2848   12.9776    1.7758 H   0  0  0  0  0  0  0  0  0  0  0  0
   -4.5869   12.4835    2.7479 C   0  0  0  0  0  0  0  0  0  0  0  0
   -4.0048   12.8810    2.1417 H   0  0  0  0  0  0  0  0  0  0  0  0
   -1.5688   11.8873    2.5128 C   0  0  0  0  0  0  0  0  0  0  0  0
   -2.0779   10.9860    1.5763 C   0  0  0  0  0  0  0  0  0  0  0  0
   -2.7927   10.4370    1.8061 H   0  0  0  0  0  0  0  0  0  0  0  0
   -1.5290   10.9023    0.3095 C   0  0  0  0  0  0  0  0  0  0  0  0
   -1.8947   10.3176   -0.3145 H   0  0  0  0  0  0  0  0  0  0  0  0
   -0.4498   11.6747   -0.0327 C   0  0  0  0  0  0  0  0  0  0  0  0
   -0.0793   11.6086   -0.8827 H   0  0  0  0  0  0  0  0  0  0  0  0
    0.0788   12.5470    0.8842 C   0  0  0  0  0  0  0  0  0  0  0  0
    0.8195   13.0605    0.6564 H   0  0  0  0  0  0  0  0  0  0  0  0
   -0.4834   12.6706    2.1548 C   0  0  0  0  0  0  0  0  0  0  0  0
   -0.1300   13.2798    2.7619 H   0  0  0  0  0  0  0  0  0  0  0  0
   -1.7888   10.1491    4.5980 C   0  0  0  0  0  0  0  0  0  0  0  0
   -2.6106    9.0488    4.4021 C   0  0  0  0  0  0  0  0  0  0  0  0
   -3.4985    9.1689    4.1515 H   0  0  0  0  0  0  0  0  0  0  0  0
   -2.1054    7.7719    4.5811 C   0  0  0  0  0  0  0  0  0  0  0  0
   -2.6682    7.0387    4.4749 H   0  0  0  0  0  0  0  0  0  0  0  0
   -0.7996    7.5682    4.9093 C   0  0  0  0  0  0  0  0  0  0  0  0
   -0.4688    6.7035    5.0020 H   0  0  0  0  0  0  0  0  0  0  0  0
    0.0253    8.6488    5.1019 C   0  0  0  0  0  0  0  0  0  0  0  0
    0.9154    8.5154    5.3350 H   0  0  0  0  0  0  0  0  0  0  0  0
   -0.4606    9.9356    4.9515 C   0  0  0  0  0  0  0  0  0  0  0  0
    0.1042   10.6623    5.0877 H   0  0  0  0  0  0  0  0  0  0  0  0
   -5.1594    9.0096   12.3289 C   0  0  0  0  0  0  0  0  0  0  0  0
   -4.4541    9.4187   13.4720 C   0  0  0  0  0  0  0  0  0  0  0  0
   -3.6448    9.8684   13.3796 H   0  0  0  0  0  0  0  0  0  0  0  0
   -4.9530    9.1523   14.7388 C   0  0  0  0  0  0  0  0  0  0  0  0
   -4.4855    9.4366   15.4907 H   0  0  0  0  0  0  0  0  0  0  0  0
   -6.1275    8.4785   14.8845 C   0  0  0  0  0  0  0  0  0  0  0  0
   -6.4500    8.2915   15.7366 H   0  0  0  0  0  0  0  0  0  0  0  0
   -6.8426    8.0690   13.7756 C   0  0  0  0  0  0  0  0  0  0  0  0
   -7.6499    7.6209   13.8823 H   0  0  0  0  0  0  0  0  0  0  0  0
   -6.3578    8.3277   12.5061 C   0  0  0  0  0  0  0  0  0  0  0  0
   -6.8382    8.0405   11.7632 H   0  0  0  0  0  0  0  0  0  0  0  0
   -5.8289    9.6942    9.5959 C   0  0  0  0  0  0  0  0  0  0  0  0
   -6.6685    8.6430    9.2168 C   0  0  0  0  0  0  0  0  0  0  0  0
   -6.5273    7.7902    9.5629 H   0  0  0  0  0  0  0  0  0  0  0  0
   -7.7110    8.8607    8.3279 C   0  0  0  0  0  0  0  0  0  0  0  0
   -8.2660    8.1531    8.0883 H   0  0  0  0  0  0  0  0  0  0  0  0
   -7.9334   10.1018    7.7987 C   0  0  0  0  0  0  0  0  0  0  0  0
   -8.6489   10.2457    7.2205 H   0  0  0  0  0  0  0  0  0  0  0  0
   -7.0867   11.1420    8.1317 C   0  0  0  0  0  0  0  0  0  0  0  0
   -7.2146   11.9817    7.7514 H   0  0  0  0  0  0  0  0  0  0  0  0
   -6.0432   10.9423    9.0337 C   0  0  0  0  0  0  0  0  0  0  0  0
   -5.4861   11.6523    9.2596 H   0  0  0  0  0  0  0  0  0  0  0  0
   -3.7406   11.0073   11.0384 C   0  0  0  0  0  0  0  0  0  0  0  0
   -4.5817   11.9845   11.5967 C   0  0  0  0  0  0  0  0  0  0  0  0
   -5.4702   11.7763   11.7777 H   0  0  0  0  0  0  0  0  0  0  0  0
   -4.1072   13.2442   11.8794 C   0  0  0  0  0  0  0  0  0  0  0  0
   -4.6756   13.8845   12.2427 H   0  0  0  0  0  0  0  0  0  0  0  0
   -2.7902   13.5570   11.6243 C   0  0  0  0  0  0  0  0  0  0  0  0
   -2.4758   14.4114   11.8113 H   0  0  0  0  0  0  0  0  0  0  0  0
   -1.9314   12.6131   11.0928 C   0  0  0  0  0  0  0  0  0  0  0  0
   -1.0408   12.8247   10.9310 H   0  0  0  0  0  0  0  0  0  0  0  0
   -2.4156   11.3489   10.8044 C   0  0  0  0  0  0  0  0  0  0  0  0
   -1.8393   10.7118   10.4459 H   0  0  0  0  0  0  0  0  0  0  0  0
   -0.6585    8.5853   12.1868 C   0  0  0  0  0  0  0  0  0  0  0  0
    0.2909    9.1255   11.3163 C   0  0  0  0  0  0  0  0  0  0  0  0
    0.4189    8.7336   10.4827 H   0  0  0  0  0  0  0  0  0  0  0  0
    1.0437   10.2303   11.6669 C   0  0  0  0  0  0  0  0  0  0  0  0
    1.6659   10.5789   11.0699 H   0  0  0  0  0  0  0  0  0  0  0  0
    0.8704   10.8116   12.9006 C   0  0  0  0  0  0  0  0  0  0  0  0
    1.3822   11.5501   13.1414 H   0  0  0  0  0  0  0  0  0  0  0  0
   -0.0541   10.3044   13.7762 C   0  0  0  0  0  0  0  0  0  0  0  0
   -0.1709   10.7048   14.6074 H   0  0  0  0  0  0  0  0  0  0  0  0
   -0.8180    9.1985   13.4319 C   0  0  0  0  0  0  0  0  0  0  0  0
   -1.4419    8.8637   14.0351 H   0  0  0  0  0  0  0  0  0  0  0  0
   -0.5086    5.8544   11.2483 C   0  0  0  0  0  0  0  0  0  0  0  0
    0.8617    5.9630   11.4106 C   0  0  0  0  0  0  0  0  0  0  0  0
    1.2215    6.7487   11.7537 H   0  0  0  0  0  0  0  0  0  0  0  0
    1.7067    4.9161   11.0693 C   0  0  0  0  0  0  0  0  0  0  0  0
    2.6262    5.0097   11.1695 H   0  0  0  0  0  0  0  0  0  0  0  0
    1.1826    3.7402   10.5820 C   0  0  0  0  0  0  0  0  0  0  0  0
    1.7463    3.0389   10.3451 H   0  0  0  0  0  0  0  0  0  0  0  0
   -0.1724    3.6089   10.4494 C   0  0  0  0  0  0  0  0  0  0  0  0
   -0.5260    2.8094   10.1316 H   0  0  0  0  0  0  0  0  0  0  0  0
   -1.0302    4.6520   10.7815 C   0  0  0  0  0  0  0  0  0  0  0  0
   -1.9501    4.5457   10.6920 H   0  0  0  0  0  0  0  0  0  0  0  0
   -2.3342    6.5194   13.2372 C   0  0  0  0  0  0  0  0  0  0  0  0
   -3.6720    6.2456   13.4703 C   0  0  0  0  0  0  0  0  0  0  0  0
   -4.2988    6.4181   12.8043 H   0  0  0  0  0  0  0  0  0  0  0  0
   -4.0914    5.7207   14.6844 C   0  0  0  0  0  0  0  0  0  0  0  0
   -4.9933    5.5392   14.8200 H   0  0  0  0  0  0  0  0  0  0  0  0
   -3.1944    5.4667   15.6822 C   0  0  0  0  0  0  0  0  0  0  0  0
   -3.4825    5.1214   16.4962 H   0  0  0  0  0  0  0  0  0  0  0  0
   -1.8565    5.7273   15.4714 C   0  0  0  0  0  0  0  0  0  0  0  0
   -1.2406    5.5596   16.1483 H   0  0  0  0  0  0  0  0  0  0  0  0
   -1.4199    6.2405   14.2545 C   0  0  0  0  0  0  0  0  0  0  0  0
   -0.5129    6.3978   14.1178 H   0  0  0  0  0  0  0  0  0  0  0  0
  1  2  1  0  0  0  0
  3  1  1  0  0  0  0
  4  1  8  0  0  0  0
  5  4  1  0  0  0  0
  6  7  1  0  0  0  0
  7  1  8  0  0  0  0
  8 10  1  0  0  0  0
  9  1  1  0  0  0  0
 11  1  8  0  0  0  0
 12 11  1  0  0  0  0
 13  6  1  0  0  0  0
 14  8  1  0  0  0  0
 15  1  8  0  0  0  0
 16 15  1  0  0  0  0
 17  8  1  0  0  0  0
 18  1  8  0  0  0  0
 19 18  1  0  0  0  0
 20  1  8  0  0  0  0
 21 20  1  0  0  0  0
 22  8  8  0  0  0  0
 23 22  1  0  0  0  0
 24  8  8  0  0  0  0
 25 24  1  0  0  0  0
 26  8  8  0  0  0  0
 27 26  1  0  0  0  0
 28  8  8  0  0  0  0
 29 28  1  0  0  0  0
 30  8  8  0  0  0  0
 31 30  1  0  0  0  0
 32  3  1  0  0  0  0
 33 32  4  0  0  0  0
 34 33  1  0  0  0  0
 35 33  4  0  0  0  0
 36 35  1  0  0  0  0
 37 35  4  0  0  0  0
 38 37  1  0  0  0  0
 39 37  4  0  0  0  0
 40 39  1  0  0  0  0
 41 32  4  0  0  0  0
 42 41  1  0  0  0  0
 43  3  1  0  0  0  0
 44 43  4  0  0  0  0
 45 44  1  0  0  0  0
 46 44  4  0  0  0  0
 47 46  1  0  0  0  0
 48 46  4  0  0  0  0
 49 48  1  0  0  0  0
 50 48  4  0  0  0  0
 51 50  1  0  0  0  0
 52 43  4  0  0  0  0
 53 52  1  0  0  0  0
 54  3  1  0  0  0  0
 55 54  4  0  0  0  0
 56 55  1  0  0  0  0
 57 55  4  0  0  0  0
 58 57  1  0  0  0  0
 59 57  4  0  0  0  0
 60 59  1  0  0  0  0
 61 59  4  0  0  0  0
 62 61  1  0  0  0  0
 63 54  4  0  0  0  0
 64 63  1  0  0  0  0
 65  9  1  0  0  0  0
 66 65  4  0  0  0  0
 67 66  1  0  0  0  0
 68 66  4  0  0  0  0
 69 68  1  0  0  0  0
 70 68  4  0  0  0  0
 71 70  1  0  0  0  0
 72 70  4  0  0  0  0
 73 72  1  0  0  0  0
 74 65  4  0  0  0  0
 75 74  1  0  0  0  0
 76  9  1  0  0  0  0
 77 76  4  0  0  0  0
 78 77  1  0  0  0  0
 79 77  4  0  0  0  0
 80 79  1  0  0  0  0
 81 79  4  0  0  0  0
 82 81  1  0  0  0  0
 83 81  4  0  0  0  0
 84 83  1  0  0  0  0
 85 76  4  0  0  0  0
 86 85  1  0  0  0  0
 87  9  1  0  0  0  0
 88 87  4  0  0  0  0
 89 88  1  0  0  0  0
 90 88  4  0  0  0  0
 91 90  1  0  0  0  0
 92 90  4  0  0  0  0
 93 92  1  0  0  0  0
 94 92  4  0  0  0  0
 95 94  1  0  0  0  0
 96 87  4  0  0  0  0
 97 96  1  0  0  0  0
 98 14  1  0  0  0  0
 99 98  4  0  0  0  0
100 99  1  0  0  0  0
101 99  4  0  0  0  0
102101  1  0  0  0  0
103101  4  0  0  0  0
104103  1  0  0  0  0
105103  4  0  0  0  0
106105  1  0  0  0  0
107 98  4  0  0  0  0
108107  1  0  0  0  0
109 14  1  0  0  0  0
110109  4  0  0  0  0
111110  1  0  0  0  0
112110  4  0  0  0  0
113112  1  0  0  0  0
114112  4  0  0  0  0
115114  1  0  0  0  0
116114  4  0  0  0  0
117116  1  0  0  0  0
118109  4  0  0  0  0
119118  1  0  0  0  0
120 14  1  0  0  0  0
121120  4  0  0  0  0
122121  1  0  0  0  0
123121  4  0  0  0  0
124123  1  0  0  0  0
125123  4  0  0  0  0
126125  1  0  0  0  0
127125  4  0  0  0  0
128127  1  0  0  0  0
129120  4  0  0  0  0
130129  1  0  0  0  0
131 17  1  0  0  0  0
132131  4  0  0  0  0
133132  1  0  0  0  0
134132  4  0  0  0  0
135134  1  0  0  0  0
136134  4  0  0  0  0
137136  1  0  0  0  0
138136  4  0  0  0  0
139138  1  0  0  0  0
140131  4  0  0  0  0
141140  1  0  0  0  0
142 17  1  0  0  0  0
143142  4  0  0  0  0
144143  1  0  0  0  0
145143  4  0  0  0  0
146145  1  0  0  0  0
147145  4  0  0  0  0
148147  1  0  0  0  0
149147  4  0  0  0  0
150149  1  0  0  0  0
151142  4  0  0  0  0
152151  1  0  0  0  0
153 17  1  0  0  0  0
154153  4  0  0  0  0
155154  1  0  0  0  0
156154  4  0  0  0  0
157156  1  0  0  0  0
158156  4  0  0  0  0
159158  1  0  0  0  0
160158  4  0  0  0  0
161160  1  0  0  0  0
162153  4  0  0  0  0
163162  1  0  0  0  0
  4  7  4  0  0  0  0
  4 11  4  0  0  0  0
  7 20  4  0  0  0  0
  8 13  8  0  0  0  0
 11 15  4  0  0  0  0
 13 22  4  0  0  0  0
 13 30  4  0  0  0  0
 15 18  4  0  0  0  0
 18 20  4  0  0  0  0
 22 24  4  0  0  0  0
 24 26  4  0  0  0  0
 26 28  4  0  0  0  0
 28 30  4  0  0  0  0
 39 41  4  0  0  0  0
 50 52  4  0  0  0  0
 61 63  4  0  0  0  0
 72 74  4  0  0  0  0
 83 85  4  0  0  0  0
 94 96  4  0  0  0  0
105107  4  0  0  0  0
116118  4  0  0  0  0
127129  4  0  0  0  0
138140  4  0  0  0  0
149151  4  0  0  0  0
160162  4  0  0  0  0
M  END
$$$$
ZOPSAY

From CSD data. Using bond type 'Any'. No disordered atoms. Largest molecule.
 85 96  0  0  0  0  0  0  0  0999 V2000
    0.1503   -4.0472    8.0367 Ir  0  0  0  0  0  0  0  0  0  0  0  0
   -2.2019   -3.7691    9.1591 Fe  0  0  0  0  0  0  0  0  0  0  0  0
   -3.9966   -3.0382   10.2977 P   0  0  0  0  0  0  0  0  0  0  0  0
    1.9088   -2.9909    7.0114 P   0  0  0  0  0  0  0  0  0  0  0  0
   -1.1559   -2.3317    7.7966 B   0  0  0  0  0  0  0  0  0  0  0  0
   -0.4077   -2.4779    9.3970 B   0  0  0  0  0  0  0  0  0  0  0  0
    1.7776   -5.3757   10.2399 O   0  0  0  0  0  0  0  0  0  0  0  0
   -0.6890   -6.0707    5.9236 O   0  0  0  0  0  0  0  0  0  0  0  0
   -3.6279   -5.3370    7.1776 O   0  0  0  0  0  0  0  0  0  0  0  0
   -1.4986   -6.0306   10.7965 O   0  0  0  0  0  0  0  0  0  0  0  0
    1.1735   -4.9371    9.3947 C   0  0  0  0  0  0  0  0  0  0  0  0
   -0.3423   -5.3169    6.6880 C   0  0  0  0  0  0  0  0  0  0  0  0
   -3.0942   -4.7121    7.9836 C   0  0  0  0  0  0  0  0  0  0  0  0
   -1.7742   -5.1163   10.1614 C   0  0  0  0  0  0  0  0  0  0  0  0
    1.7145   -2.4535    5.2701 C   0  0  0  0  0  0  0  0  0  0  0  0
    2.7075   -1.6667    4.6581 C   0  0  0  0  0  0  0  0  0  0  0  0
    2.5793   -1.2970    3.3510 C   0  0  0  0  0  0  0  0  0  0  0  0
    1.4847   -1.7011    2.6327 C   0  0  0  0  0  0  0  0  0  0  0  0
    0.4924   -2.4521    3.1916 C   0  0  0  0  0  0  0  0  0  0  0  0
    0.6040   -2.8089    4.5357 C   0  0  0  0  0  0  0  0  0  0  0  0
    3.4644   -3.9798    6.9213 C   0  0  0  0  0  0  0  0  0  0  0  0
    3.3964   -5.3456    6.9144 C   0  0  0  0  0  0  0  0  0  0  0  0
    4.5530   -6.1381    6.8382 C   0  0  0  0  0  0  0  0  0  0  0  0
    5.7856   -5.5405    6.7735 C   0  0  0  0  0  0  0  0  0  0  0  0
    5.8575   -4.1604    6.7619 C   0  0  0  0  0  0  0  0  0  0  0  0
    4.7181   -3.3822    6.8359 C   0  0  0  0  0  0  0  0  0  0  0  0
    2.4112   -1.4618    7.9005 C   0  0  0  0  0  0  0  0  0  0  0  0
    3.1816   -1.5678    9.0436 C   0  0  0  0  0  0  0  0  0  0  0  0
    3.4671   -0.4500    9.7803 C   0  0  0  0  0  0  0  0  0  0  0  0
    3.0095    0.7667    9.3670 C   0  0  0  0  0  0  0  0  0  0  0  0
    2.2620    0.8842    8.2631 C   0  0  0  0  0  0  0  0  0  0  0  0
    1.9409   -0.2279    7.5241 C   0  0  0  0  0  0  0  0  0  0  0  0
   -4.8091   -1.5034    9.6903 C   0  0  0  0  0  0  0  0  0  0  0  0
   -4.9398   -1.3314    8.3139 C   0  0  0  0  0  0  0  0  0  0  0  0
   -5.5797   -0.2379    7.7804 C   0  0  0  0  0  0  0  0  0  0  0  0
   -6.0861    0.7108    8.6464 C   0  0  0  0  0  0  0  0  0  0  0  0
   -5.9328    0.5761   10.0251 C   0  0  0  0  0  0  0  0  0  0  0  0
   -5.3194   -0.5417   10.5378 C   0  0  0  0  0  0  0  0  0  0  0  0
   -5.4115   -4.2277   10.3854 C   0  0  0  0  0  0  0  0  0  0  0  0
   -6.7190   -3.8093   10.3577 C   0  0  0  0  0  0  0  0  0  0  0  0
   -7.7357   -4.7394   10.4039 C   0  0  0  0  0  0  0  0  0  0  0  0
   -7.4938   -6.0550   10.4408 C   0  0  0  0  0  0  0  0  0  0  0  0
   -6.2014   -6.4835   10.5170 C   0  0  0  0  0  0  0  0  0  0  0  0
   -5.1649   -5.5620   10.4431 C   0  0  0  0  0  0  0  0  0  0  0  0
   -3.6551   -2.6398   12.0551 C   0  0  0  0  0  0  0  0  0  0  0  0
   -4.3256   -3.2202   13.1059 C   0  0  0  0  0  0  0  0  0  0  0  0
   -4.0614   -2.8433   14.4084 C   0  0  0  0  0  0  0  0  0  0  0  0
   -3.1335   -1.8631   14.6555 C   0  0  0  0  0  0  0  0  0  0  0  0
   -2.4853   -1.2726   13.6255 C   0  0  0  0  0  0  0  0  0  0  0  0
   -2.7079   -1.6467   12.3461 C   0  0  0  0  0  0  0  0  0  0  0  0
    3.4539   -1.3987    5.1431 H   0  0  0  0  0  0  0  0  0  0  0  0
    3.2319   -0.7710    2.9491 H   0  0  0  0  0  0  0  0  0  0  0  0
    1.4185   -1.4575    1.7367 H   0  0  0  0  0  0  0  0  0  0  0  0
   -0.2425   -2.7186    2.6882 H   0  0  0  0  0  0  0  0  0  0  0  0
   -0.0799   -3.2919    4.9398 H   0  0  0  0  0  0  0  0  0  0  0  0
    2.5655   -5.7583    6.9582 H   0  0  0  0  0  0  0  0  0  0  0  0
    4.4832   -7.0653    6.8335 H   0  0  0  0  0  0  0  0  0  0  0  0
    6.5611   -6.0535    6.7365 H   0  0  0  0  0  0  0  0  0  0  0  0
    6.6892   -3.7476    6.7019 H   0  0  0  0  0  0  0  0  0  0  0  0
    4.7895   -2.4550    6.8266 H   0  0  0  0  0  0  0  0  0  0  0  0
    3.5028   -2.3976    9.3138 H   0  0  0  0  0  0  0  0  0  0  0  0
    3.9705   -0.5202   10.5586 H   0  0  0  0  0  0  0  0  0  0  0  0
    3.2207    1.5277    9.8589 H   0  0  0  0  0  0  0  0  0  0  0  0
    1.9583    1.7212    7.9952 H   0  0  0  0  0  0  0  0  0  0  0  0
    1.4044   -0.1462    6.7689 H   0  0  0  0  0  0  0  0  0  0  0  0
   -4.5851   -1.9734    7.7411 H   0  0  0  0  0  0  0  0  0  0  0  0
   -5.6677   -0.1390    6.8589 H   0  0  0  0  0  0  0  0  0  0  0  0
   -6.5366    1.4489    8.3046 H   0  0  0  0  0  0  0  0  0  0  0  0
   -6.2463    1.2411   10.5979 H   0  0  0  0  0  0  0  0  0  0  0  0
   -5.2482   -0.6492   11.4593 H   0  0  0  0  0  0  0  0  0  0  0  0
   -6.9187   -2.9021   10.3092 H   0  0  0  0  0  0  0  0  0  0  0  0
   -8.6169   -4.4427   10.4108 H   0  0  0  0  0  0  0  0  0  0  0  0
   -8.1942   -6.6655   10.4131 H   0  0  0  0  0  0  0  0  0  0  0  0
   -6.0147   -7.3892   10.6164 H   0  0  0  0  0  0  0  0  0  0  0  0
   -4.2845   -5.8644   10.4339 H   0  0  0  0  0  0  0  0  0  0  0  0
   -4.9635   -3.8752   12.9373 H   0  0  0  0  0  0  0  0  0  0  0  0
   -4.5092   -3.2518   15.1151 H   0  0  0  0  0  0  0  0  0  0  0  0
   -2.9524   -1.6051   15.5308 H   0  0  0  0  0  0  0  0  0  0  0  0
   -1.8719   -0.5947   13.8010 H   0  0  0  0  0  0  0  0  0  0  0  0
   -2.2317   -1.2440   11.6579 H   0  0  0  0  0  0  0  0  0  0  0  0
    0.0381   -2.2973   10.0736 H   0  0  0  0  0  0  0  0  0  0  0  0
   -1.3517   -1.7097    6.9051 H   0  0  0  0  0  0  0  0  0  0  0  0
   -2.5238   -2.5338    8.2307 H   0  0  0  0  0  0  0  0  0  0  0  0
   -1.4101   -2.9823   10.2168 H   0  0  0  0  0  0  0  0  0  0  0  0
   -0.9268   -1.7112    8.4825 H   0  0  0  0  0  0  0  0  0  0  0  0
  1  2  1  0  0  0  0
  2  3  1  0  0  0  0
  3 33  1  0  0  0  0
  4  1  1  0  0  0  0
  5  1  1  0  0  0  0
  6  1  1  0  0  0  0
  7 11  3  0  0  0  0
  8 12  3  0  0  0  0
  9 13  3  0  0  0  0
 10 14  3  0  0  0  0
 11  1  1  0  0  0  0
 12  1  1  0  0  0  0
 13  2  1  0  0  0  0
 14  2  1  0  0  0  0
 15  4  1  0  0  0  0
 16 15  4  0  0  0  0
 17 16  4  0  0  0  0
 18 17  4  0  0  0  0
 19 18  4  0  0  0  0
 20 15  4  0  0  0  0
 21  4  1  0  0  0  0
 22 21  4  0  0  0  0
 23 22  4  0  0  0  0
 24 23  4  0  0  0  0
 25 24  4  0  0  0  0
 26 21  4  0  0  0  0
 27  4  1  0  0  0  0
 28 27  4  0  0  0  0
 29 28  4  0  0  0  0
 30 29  4  0  0  0  0
 31 30  4  0  0  0  0
 32 27  4  0  0  0  0
 33 34  4  0  0  0  0
 34 35  4  0  0  0  0
 35 36  4  0  0  0  0
 36 37  4  0  0  0  0
 37 38  4  0  0  0  0
 38 33  4  0  0  0  0
 39  3  1  0  0  0  0
 40 39  4  0  0  0  0
 41 40  4  0  0  0  0
 42 41  4  0  0  0  0
 43 42  4  0  0  0  0
 44 39  4  0  0  0  0
 45  3  1  0  0  0  0
 46 45  4  0  0  0  0
 47 46  4  0  0  0  0
 48 47  4  0  0  0  0
 49 48  4  0  0  0  0
 50 45  4  0  0  0  0
 51 16  1  0  0  0  0
 52 17  1  0  0  0  0
 53 18  1  0  0  0  0
 54 19  1  0  0  0  0
 55 20  1  0  0  0  0
 56 22  1  0  0  0  0
 57 23  1  0  0  0  0
 58 24  1  0  0  0  0
 59 25  1  0  0  0  0
 60 26  1  0  0  0  0
 61 28  1  0  0  0  0
 62 29  1  0  0  0  0
 63 30  1  0  0  0  0
 64 31  1  0  0  0  0
 65 32  1  0  0  0  0
 66 34  1  0  0  0  0
 67 35  1  0  0  0  0
 68 36  1  0  0  0  0
 69 37  1  0  0  0  0
 70 38  1  0  0  0  0
 71 40  1  0  0  0  0
 72 41  1  0  0  0  0
 73 42  1  0  0  0  0
 74 43  1  0  0  0  0
 75 44  1  0  0  0  0
 76 46  1  0  0  0  0
 77 47  1  0  0  0  0
 78 48  1  0  0  0  0
 79 49  1  0  0  0  0
 80 50  1  0  0  0  0
 81  6  1  0  0  0  0
 82  5  1  0  0  0  0
 83  2  1  0  0  0  0
 84  2  1  0  0  0  0
 85  5  1  0  0  0  0
  2  5  1  0  0  0  0
  2  6  1  0  0  0  0
  5  6  1  0  0  0  0
  5 83  1  0  0  0  0
  6 84  1  0  0  0  0
  6 85  1  0  0  0  0
 19 20  4  0  0  0  0
 25 26  4  0  0  0  0
 31 32  4  0  0  0  0
 43 44  4  0  0  0  0
 49 50  4  0  0  0  0
M  END
$$$$
ZUFJAO

From CSD data. Using bond type 'Any'. No disordered atoms. Largest molecule.
116123  0  0  0  0  0  0  0  0999 V2000
   -0.2157    5.2120    3.8760 Mn  0  0  0  0  0  0  0  0  0  0  0  0
    3.1825    2.0714    3.3562 P   0  0  0  0  0  0  0  0  0  0  0  0
   -1.1500    6.0379    1.9813 P   0  0  0  0  0  0  0  0  0  0  0  0
   -2.4274    3.5257    4.7216 O   0  0  0  0  0  0  0  0  0  0  0  0
   -1.0900    7.3970    5.6067 O   0  0  0  0  0  0  0  0  0  0  0  0
   -1.5869    4.2170    4.3501 C   0  0  0  0  0  0  0  0  0  0  0  0
   -0.7679    6.5367    4.8942 C   0  0  0  0  0  0  0  0  0  0  0  0
    3.2949    1.9254    1.5307 C   0  0  0  0  0  0  0  0  0  0  0  0
    3.2602    0.9469    1.3219 H   0  0  0  0  0  0  0  0  0  0  0  0
    4.5667    2.4298    0.9616 C   0  0  0  0  0  0  0  0  0  0  0  0
    5.3312    1.9845    1.4061 H   0  0  0  0  0  0  0  0  0  0  0  0
    4.6407    3.4041    1.1256 H   0  0  0  0  0  0  0  0  0  0  0  0
    4.6196    2.1533   -0.5636 C   0  0  0  0  0  0  0  0  0  0  0  0
    5.4541    2.5315   -0.9394 H   0  0  0  0  0  0  0  0  0  0  0  0
    4.6253    1.1773   -0.7225 H   0  0  0  0  0  0  0  0  0  0  0  0
    3.4577    2.7576   -1.2455 C   0  0  0  0  0  0  0  0  0  0  0  0
    3.5123    3.7424   -1.1766 H   0  0  0  0  0  0  0  0  0  0  0  0
    3.4812    2.5162   -2.2060 H   0  0  0  0  0  0  0  0  0  0  0  0
    2.2235    2.3120   -0.6777 C   0  0  0  0  0  0  0  0  0  0  0  0
    2.1224    1.3427   -0.8564 H   0  0  0  0  0  0  0  0  0  0  0  0
    1.4778    2.7791   -1.1313 H   0  0  0  0  0  0  0  0  0  0  0  0
    2.1088    2.5502    0.8433 C   0  0  0  0  0  0  0  0  0  0  0  0
    2.0866    3.5231    1.0306 H   0  0  0  0  0  0  0  0  0  0  0  0
    1.2711    2.1496    1.1856 H   0  0  0  0  0  0  0  0  0  0  0  0
    1.6474    1.1906    3.8185 C   0  0  0  0  0  0  0  0  0  0  0  0
    0.9162    1.7669    3.4543 H   0  0  0  0  0  0  0  0  0  0  0  0
    1.3730   -0.1280    3.2577 C   0  0  0  0  0  0  0  0  0  0  0  0
    2.0256   -0.7787    3.6213 H   0  0  0  0  0  0  0  0  0  0  0  0
    1.4936   -0.0958    2.2752 H   0  0  0  0  0  0  0  0  0  0  0  0
   -0.0561   -0.6171    3.5750 C   0  0  0  0  0  0  0  0  0  0  0  0
   -0.7176   -0.0260    3.1335 H   0  0  0  0  0  0  0  0  0  0  0  0
   -0.1823   -1.5353    3.2301 H   0  0  0  0  0  0  0  0  0  0  0  0
   -0.2714   -0.5966    5.0584 C   0  0  0  0  0  0  0  0  0  0  0  0
   -1.2152   -0.8315    5.2454 H   0  0  0  0  0  0  0  0  0  0  0  0
    0.2980   -1.2937    5.4708 H   0  0  0  0  0  0  0  0  0  0  0  0
    0.0202    0.6606    5.6735 C   0  0  0  0  0  0  0  0  0  0  0  0
   -0.0488    0.5588    6.6556 H   0  0  0  0  0  0  0  0  0  0  0  0
   -0.6597    1.3206    5.3896 H   0  0  0  0  0  0  0  0  0  0  0  0
    1.4155    1.2034    5.3270 C   0  0  0  0  0  0  0  0  0  0  0  0
    1.5028    2.1287    5.6658 H   0  0  0  0  0  0  0  0  0  0  0  0
    2.1052    0.6477    5.7705 H   0  0  0  0  0  0  0  0  0  0  0  0
    4.5863    1.0933    4.0509 C   0  0  0  0  0  0  0  0  0  0  0  0
    4.2680    0.8561    4.9677 H   0  0  0  0  0  0  0  0  0  0  0  0
    4.8870   -0.2176    3.4469 C   0  0  0  0  0  0  0  0  0  0  0  0
    5.2541   -0.0879    2.5364 H   0  0  0  0  0  0  0  0  0  0  0  0
    4.0541   -0.7467    3.3707 H   0  0  0  0  0  0  0  0  0  0  0  0
    5.9227   -0.9934    4.3222 C   0  0  0  0  0  0  0  0  0  0  0  0
    5.5044   -1.2389    5.1857 H   0  0  0  0  0  0  0  0  0  0  0  0
    6.1809   -1.8312    3.8601 H   0  0  0  0  0  0  0  0  0  0  0  0
    7.1305   -0.1818    4.5755 C   0  0  0  0  0  0  0  0  0  0  0  0
    7.7754   -0.7065    5.1141 H   0  0  0  0  0  0  0  0  0  0  0  0
    7.5633    0.0456    3.7148 H   0  0  0  0  0  0  0  0  0  0  0  0
    6.7914    1.0216    5.2741 C   0  0  0  0  0  0  0  0  0  0  0  0
    7.6108    1.5310    5.4927 H   0  0  0  0  0  0  0  0  0  0  0  0
    6.3212    0.8044    6.1175 H   0  0  0  0  0  0  0  0  0  0  0  0
    5.8407    1.8845    4.3167 C   0  0  0  0  0  0  0  0  0  0  0  0
    5.6132    2.7444    4.7516 H   0  0  0  0  0  0  0  0  0  0  0  0
    6.3052    2.0800    3.4641 H   0  0  0  0  0  0  0  0  0  0  0  0
   -1.4045    4.7393    0.6707 C   0  0  0  0  0  0  0  0  0  0  0  0
   -0.5155    4.2947    0.5699 H   0  0  0  0  0  0  0  0  0  0  0  0
   -2.3394    3.6537    1.0632 C   0  0  0  0  0  0  0  0  0  0  0  0
   -3.2572    4.0157    1.1383 H   0  0  0  0  0  0  0  0  0  0  0  0
   -2.0770    3.2942    1.9481 H   0  0  0  0  0  0  0  0  0  0  0  0
   -2.3162    2.5041    0.0070 C   0  0  0  0  0  0  0  0  0  0  0  0
   -1.4220    2.0792   -0.0049 H   0  0  0  0  0  0  0  0  0  0  0  0
   -2.9836    1.8147    0.2481 H   0  0  0  0  0  0  0  0  0  0  0  0
   -2.6343    3.0674   -1.3693 C   0  0  0  0  0  0  0  0  0  0  0  0
   -2.5902    2.3370   -2.0373 H   0  0  0  0  0  0  0  0  0  0  0  0
   -3.5574    3.4239   -1.3697 H   0  0  0  0  0  0  0  0  0  0  0  0
   -1.6996    4.1376   -1.7603 C   0  0  0  0  0  0  0  0  0  0  0  0
   -1.9458    4.4885   -2.6531 H   0  0  0  0  0  0  0  0  0  0  0  0
   -0.7791    3.7771   -1.8131 H   0  0  0  0  0  0  0  0  0  0  0  0
   -1.7519    5.2616   -0.7348 C   0  0  0  0  0  0  0  0  0  0  0  0
   -2.6603    5.6574   -0.7247 H   0  0  0  0  0  0  0  0  0  0  0  0
   -1.1119    5.9730   -0.9901 H   0  0  0  0  0  0  0  0  0  0  0  0
   -0.0263    7.2316    1.1160 C   0  0  0  0  0  0  0  0  0  0  0  0
   -0.5246    7.5825    0.3228 H   0  0  0  0  0  0  0  0  0  0  0  0
    1.2610    6.5853    0.5914 C   0  0  0  0  0  0  0  0  0  0  0  0
    1.7609    6.1907    1.3486 H   0  0  0  0  0  0  0  0  0  0  0  0
    1.0279    5.8542   -0.0348 H   0  0  0  0  0  0  0  0  0  0  0  0
    2.1287    7.5762   -0.1099 C   0  0  0  0  0  0  0  0  0  0  0  0
    1.6718    7.8848   -0.9328 H   0  0  0  0  0  0  0  0  0  0  0  0
    2.9739    7.1368   -0.3787 H   0  0  0  0  0  0  0  0  0  0  0  0
    2.4466    8.7719    0.7584 C   0  0  0  0  0  0  0  0  0  0  0  0
    3.0025    8.4846    1.5247 H   0  0  0  0  0  0  0  0  0  0  0  0
    2.9659    9.4321    0.2335 H   0  0  0  0  0  0  0  0  0  0  0  0
    1.1864    9.4223    1.2705 C   0  0  0  0  0  0  0  0  0  0  0  0
    0.6835    9.8081    0.5103 H   0  0  0  0  0  0  0  0  0  0  0  0
    1.4255   10.1618    1.8850 H   0  0  0  0  0  0  0  0  0  0  0  0
    0.3093    8.4263    2.0011 C   0  0  0  0  0  0  0  0  0  0  0  0
   -0.5287    8.8732    2.2822 H   0  0  0  0  0  0  0  0  0  0  0  0
    0.7766    8.1128    2.8146 H   0  0  0  0  0  0  0  0  0  0  0  0
   -2.7197    7.0053    2.2043 C   0  0  0  0  0  0  0  0  0  0  0  0
   -2.4664    7.6706    2.9064 H   0  0  0  0  0  0  0  0  0  0  0  0
   -3.8343    6.2525    2.8597 C   0  0  0  0  0  0  0  0  0  0  0  0
   -3.4863    5.7900    3.6637 H   0  0  0  0  0  0  0  0  0  0  0  0
   -4.1727    5.5624    2.2355 H   0  0  0  0  0  0  0  0  0  0  0  0
   -4.9875    7.1742    3.2674 C   0  0  0  0  0  0  0  0  0  0  0  0
   -5.7538    6.6200    3.5631 H   0  0  0  0  0  0  0  0  0  0  0  0
   -4.7016    7.7286    4.0357 H   0  0  0  0  0  0  0  0  0  0  0  0
   -5.4304    8.0627    2.1653 C   0  0  0  0  0  0  0  0  0  0  0  0
   -5.9069    7.5205    1.4882 H   0  0  0  0  0  0  0  0  0  0  0  0
   -6.0717    8.7249    2.5266 H   0  0  0  0  0  0  0  0  0  0  0  0
   -4.3319    8.7771    1.5113 C   0  0  0  0  0  0  0  0  0  0  0  0
   -3.9833    9.4634    2.1339 H   0  0  0  0  0  0  0  0  0  0  0  0
   -4.6865    9.2459    0.7151 H   0  0  0  0  0  0  0  0  0  0  0  0
   -3.1839    7.8784    1.0799 C   0  0  0  0  0  0  0  0  0  0  0  0
   -3.4780    7.3127    0.3238 H   0  0  0  0  0  0  0  0  0  0  0  0
   -2.4302    8.4396    0.7678 H   0  0  0  0  0  0  0  0  0  0  0  0
    1.5791    4.5268    3.8881 B   0  0  0  0  0  0  0  0  0  0  0  0
    0.8434    4.4551    4.8009 H   0  0  0  0  0  0  0  0  0  0  0  0
    0.7555    4.1735    3.1311 H   0  0  0  0  0  0  0  0  0  0  0  0
    1.3226    5.6636    3.6181 H   0  0  0  0  0  0  0  0  0  0  0  0
    3.1337    3.8662    4.0217 B   0  0  0  0  0  0  0  0  0  0  0  0
    3.4282    3.7638    5.1071 H   0  0  0  0  0  0  0  0  0  0  0  0
    3.8109    4.3783    3.2702 H   0  0  0  0  0  0  0  0  0  0  0  0
  1  3  1  0  0  0  0
  2  8  1  0  0  0  0
  3 59  1  0  0  0  0
  4  6  3  0  0  0  0
  5  7  3  0  0  0  0
  6  1  1  0  0  0  0
  7  1  1  0  0  0  0
  8  9  1  0  0  0  0
 10  8  1  0  0  0  0
 11 10  1  0  0  0  0
 12 10  1  0  0  0  0
 13 10  1  0  0  0  0
 14 13  1  0  0  0  0
 15 13  1  0  0  0  0
 16 13  1  0  0  0  0
 17 16  1  0  0  0  0
 18 16  1  0  0  0  0
 19 16  1  0  0  0  0
 20 19  1  0  0  0  0
 21 19  1  0  0  0  0
 22  8  1  0  0  0  0
 23 22  1  0  0  0  0
 24 22  1  0  0  0  0
 25  2  1  0  0  0  0
 26 25  1  0  0  0  0
 27 25  1  0  0  0  0
 28 27  1  0  0  0  0
 29 27  1  0  0  0  0
 30 27  1  0  0  0  0
 31 30  1  0  0  0  0
 32 30  1  0  0  0  0
 33 30  1  0  0  0  0
 34 33  1  0  0  0  0
 35 33  1  0  0  0  0
 36 33  1  0  0  0  0
 37 36  1  0  0  0  0
 38 36  1  0  0  0  0
 39 25  1  0  0  0  0
 40 39  1  0  0  0  0
 41 39  1  0  0  0  0
 42  2  1  0  0  0  0
 43 42  1  0  0  0  0
 44 42  1  0  0  0  0
 45 44  1  0  0  0  0
 46 44  1  0  0  0  0
 47 44  1  0  0  0  0
 48 47  1  0  0  0  0
 49 47  1  0  0  0  0
 50 47  1  0  0  0  0
 51 50  1  0  0  0  0
 52 50  1  0  0  0  0
 53 50  1  0  0  0  0
 54 53  1  0  0  0  0
 55 53  1  0  0  0  0
 56 42  1  0  0  0  0
 57 56  1  0  0  0  0
 58 56  1  0  0  0  0
 59 60  1  0  0  0  0
 61 59  1  0  0  0  0
 62 61  1  0  0  0  0
 63 61  1  0  0  0  0
 64 61  1  0  0  0  0
 65 64  1  0  0  0  0
 66 64  1  0  0  0  0
 67 64  1  0  0  0  0
 68 67  1  0  0  0  0
 69 67  1  0  0  0  0
 70 67  1  0  0  0  0
 71 70  1  0  0  0  0
 72 70  1  0  0  0  0
 73 59  1  0  0  0  0
 74 73  1  0  0  0  0
 75 73  1  0  0  0  0
 76  3  1  0  0  0  0
 77 76  1  0  0  0  0
 78 76  1  0  0  0  0
 79 78  1  0  0  0  0
 80 78  1  0  0  0  0
 81 78  1  0  0  0  0
 82 81  1  0  0  0  0
 83 81  1  0  0  0  0
 84 81  1  0  0  0  0
 85 84  1  0  0  0  0
 86 84  1  0  0  0  0
 87 84  1  0  0  0  0
 88 87  1  0  0  0  0
 89 87  1  0  0  0  0
 90 76  1  0  0  0  0
 91 90  1  0  0  0  0
 92 90  1  0  0  0  0
 93  3  1  0  0  0  0
 94 93  1  0  0  0  0
 95 93  1  0  0  0  0
 96 95  1  0  0  0  0
 97 95  1  0  0  0  0
 98 95  1  0  0  0  0
 99 98  1  0  0  0  0
100 98  1  0  0  0  0
101 98  1  0  0  0  0
102101  1  0  0  0  0
103101  1  0  0  0  0
104101  1  0  0  0  0
105104  1  0  0  0  0
106104  1  0  0  0  0
107 93  1  0  0  0  0
108107  1  0  0  0  0
109107  1  0  0  0  0
110111  1  0  0  0  0
111  1  1  0  0  0  0
112  1  1  0  0  0  0
113  1  1  0  0  0  0
114  2  1  0  0  0  0
115114  1  0  0  0  0
116114  1  0  0  0  0
 19 22  1  0  0  0  0
 36 39  1  0  0  0  0
 53 56  1  0  0  0  0
 70 73  1  0  0  0  0
 87 90  1  0  0  0  0
104107  1  0  0  0  0
110112  1  0  0  0  0
110113  1  0  0  0  0
110114  1  0  0  0  0
M  END
$$$$
ZUJHUH

From CSD data. Using bond type 'Any'. Matching problem. No disordered atoms. Largest molecule.
111118  0  0  0  0  0  0  0  0999 V2000
    0.9010    3.6628    1.6041 Pt  0  0  0  0  0  0  0  0  0  0  0  0
    1.4516    3.3978   -0.6685 P   0  0  0  0  0  0  0  0  0  0  0  0
   -1.4058    4.1100    1.5254 P   0  0  0  0  0  0  0  0  0  0  0  0
    2.8637    3.3878    2.2226 B   0  0  0  0  0  0  0  0  0  0  0  0
    0.8490    3.9439    3.6616 B   0  0  0  0  0  0  0  0  0  0  0  0
    3.8914    4.2113    2.0498 O   0  0  0  0  0  0  0  0  0  0  0  0
    3.2677    2.2792    3.0303 O   0  0  0  0  0  0  0  0  0  0  0  0
    1.3161    5.0738    4.3181 O   0  0  0  0  0  0  0  0  0  0  0  0
    0.3246    3.0687    4.5665 O   0  0  0  0  0  0  0  0  0  0  0  0
    6.2949    4.0648    2.0426 C   0  0  0  0  0  0  0  0  0  0  0  0
    5.0334    3.8146    2.8479 C   0  0  0  0  0  0  0  0  0  0  0  0
    5.0267    4.6719    4.0900 C   0  0  0  0  0  0  0  0  0  0  0  0
    5.2690    1.3910    2.0546 C   0  0  0  0  0  0  0  0  0  0  0  0
    4.7376    2.3254    3.1179 C   0  0  0  0  0  0  0  0  0  0  0  0
    5.1269    1.8079    4.4825 C   0  0  0  0  0  0  0  0  0  0  0  0
   -0.3998    5.9138    5.7354 C   0  0  0  0  0  0  0  0  0  0  0  0
    0.8310    5.0452    5.6862 C   0  0  0  0  0  0  0  0  0  0  0  0
    1.8813    5.6430    6.5839 C   0  0  0  0  0  0  0  0  0  0  0  0
   -0.6969    3.2547    6.7423 C   0  0  0  0  0  0  0  0  0  0  0  0
    0.5431    3.5392    5.9142 C   0  0  0  0  0  0  0  0  0  0  0  0
    1.7051    2.7617    6.4675 C   0  0  0  0  0  0  0  0  0  0  0  0
    3.0897    2.6629   -1.0897 C   0  0  0  0  0  0  0  0  0  0  0  0
    3.2132    1.3159   -1.4017 C   0  0  0  0  0  0  0  0  0  0  0  0
    4.4443    0.7708   -1.7258 C   0  0  0  0  0  0  0  0  0  0  0  0
    5.5575    1.5834   -1.7366 C   0  0  0  0  0  0  0  0  0  0  0  0
    5.4615    2.9099   -1.4173 C   0  0  0  0  0  0  0  0  0  0  0  0
    4.2334    3.4402   -1.0717 C   0  0  0  0  0  0  0  0  0  0  0  0
    1.5732    5.0242   -1.5062 C   0  0  0  0  0  0  0  0  0  0  0  0
    1.0751    6.1309   -0.8401 C   0  0  0  0  0  0  0  0  0  0  0  0
    1.1926    7.4063   -1.3897 C   0  0  0  0  0  0  0  0  0  0  0  0
    1.8165    7.5838   -2.5911 C   0  0  0  0  0  0  0  0  0  0  0  0
    2.3095    6.5056   -3.2583 C   0  0  0  0  0  0  0  0  0  0  0  0
    2.2036    5.2239   -2.7303 C   0  0  0  0  0  0  0  0  0  0  0  0
    0.3610    2.3438   -1.7042 C   0  0  0  0  0  0  0  0  0  0  0  0
   -0.3740    1.3518   -1.0717 C   0  0  0  0  0  0  0  0  0  0  0  0
   -1.1213    0.4462   -1.7978 C   0  0  0  0  0  0  0  0  0  0  0  0
   -1.1702    0.5094   -3.1467 C   0  0  0  0  0  0  0  0  0  0  0  0
   -0.4770    1.5075   -3.7972 C   0  0  0  0  0  0  0  0  0  0  0  0
    0.2941    2.4139   -3.0795 C   0  0  0  0  0  0  0  0  0  0  0  0
   -1.8379    5.8867    1.7414 C   0  0  0  0  0  0  0  0  0  0  0  0
   -0.8911    6.7796    2.2010 C   0  0  0  0  0  0  0  0  0  0  0  0
   -1.2225    8.1108    2.3366 C   0  0  0  0  0  0  0  0  0  0  0  0
   -2.4921    8.5672    2.0510 C   0  0  0  0  0  0  0  0  0  0  0  0
   -3.4220    7.6903    1.5854 C   0  0  0  0  0  0  0  0  0  0  0  0
   -3.1304    6.3592    1.4317 C   0  0  0  0  0  0  0  0  0  0  0  0
   -2.3028    3.2345    2.8695 C   0  0  0  0  0  0  0  0  0  0  0  0
   -1.9442    1.9159    3.1107 C   0  0  0  0  0  0  0  0  0  0  0  0
   -2.6176    1.1686    4.0720 C   0  0  0  0  0  0  0  0  0  0  0  0
   -3.6374    1.7340    4.7933 C   0  0  0  0  0  0  0  0  0  0  0  0
   -3.9839    3.0420    4.5713 C   0  0  0  0  0  0  0  0  0  0  0  0
   -3.3265    3.7941    3.6136 C   0  0  0  0  0  0  0  0  0  0  0  0
   -2.4452    3.6804    0.0888 C   0  0  0  0  0  0  0  0  0  0  0  0
   -3.4200    2.7054    0.1356 C   0  0  0  0  0  0  0  0  0  0  0  0
   -4.1428    2.3492   -0.9721 C   0  0  0  0  0  0  0  0  0  0  0  0
   -3.9210    2.9635   -2.1458 C   0  0  0  0  0  0  0  0  0  0  0  0
   -2.9704    3.9574   -2.2562 C   0  0  0  0  0  0  0  0  0  0  0  0
   -2.2355    4.3140   -1.1245 C   0  0  0  0  0  0  0  0  0  0  0  0
    7.0877    3.8209    2.5191 H   0  0  0  0  0  0  0  0  0  0  0  0
    6.2826    3.5307    1.2241 H   0  0  0  0  0  0  0  0  0  0  0  0
    6.3757    4.9796    1.7726 H   0  0  0  0  0  0  0  0  0  0  0  0
    5.7556    4.4717    4.6793 H   0  0  0  0  0  0  0  0  0  0  0  0
    5.0670    5.6112    3.8812 H   0  0  0  0  0  0  0  0  0  0  0  0
    4.2077    4.5389    4.6001 H   0  0  0  0  0  0  0  0  0  0  0  0
    4.9525    0.4952    2.1518 H   0  0  0  0  0  0  0  0  0  0  0  0
    4.9879    1.6898    1.1629 H   0  0  0  0  0  0  0  0  0  0  0  0
    6.2311    1.3683    2.0342 H   0  0  0  0  0  0  0  0  0  0  0  0
    4.7998    0.9036    4.6217 H   0  0  0  0  0  0  0  0  0  0  0  0
    6.0646    1.8007    4.6157 H   0  0  0  0  0  0  0  0  0  0  0  0
    4.7294    2.3489    5.1809 H   0  0  0  0  0  0  0  0  0  0  0  0
   -0.2288    6.8112    5.4558 H   0  0  0  0  0  0  0  0  0  0  0  0
   -1.0924    5.5605    5.1437 H   0  0  0  0  0  0  0  0  0  0  0  0
   -0.7975    5.9207    6.6151 H   0  0  0  0  0  0  0  0  0  0  0  0
    1.6127    5.6481    7.4972 H   0  0  0  0  0  0  0  0  0  0  0  0
    2.6988    5.1238    6.5227 H   0  0  0  0  0  0  0  0  0  0  0  0
    2.0985    6.5407    6.3259 H   0  0  0  0  0  0  0  0  0  0  0  0
   -0.5933    3.5481    7.6508 H   0  0  0  0  0  0  0  0  0  0  0  0
   -1.4637    3.7122    6.3775 H   0  0  0  0  0  0  0  0  0  0  0  0
   -0.9026    2.3163    6.7591 H   0  0  0  0  0  0  0  0  0  0  0  0
    1.5292    1.8161    6.4687 H   0  0  0  0  0  0  0  0  0  0  0  0
    2.5008    2.9039    5.9418 H   0  0  0  0  0  0  0  0  0  0  0  0
    1.9084    3.0201    7.3712 H   0  0  0  0  0  0  0  0  0  0  0  0
    2.4204    0.7490   -1.3837 H   0  0  0  0  0  0  0  0  0  0  0  0
    4.5233   -0.1776   -1.9442 H   0  0  0  0  0  0  0  0  0  0  0  0
    6.4315    1.2125   -1.9706 H   0  0  0  0  0  0  0  0  0  0  0  0
    6.2501    3.4771   -1.4498 H   0  0  0  0  0  0  0  0  0  0  0  0
    4.1677    4.3800   -0.7933 H   0  0  0  0  0  0  0  0  0  0  0  0
    0.6466    6.0076    0.0288 H   0  0  0  0  0  0  0  0  0  0  0  0
    0.8289    8.1826   -0.9217 H   0  0  0  0  0  0  0  0  0  0  0  0
    1.9107    8.4657   -2.9691 H   0  0  0  0  0  0  0  0  0  0  0  0
    2.7348    6.6407   -4.1296 H   0  0  0  0  0  0  0  0  0  0  0  0
    2.5608    4.4575   -3.2247 H   0  0  0  0  0  0  0  0  0  0  0  0
   -0.3579    1.3098   -0.0900 H   0  0  0  0  0  0  0  0  0  0  0  0
   -1.6193   -0.2471   -1.3189 H   0  0  0  0  0  0  0  0  0  0  0  0
   -1.6824   -0.1423   -3.6544 H   0  0  0  0  0  0  0  0  0  0  0  0
   -0.5313    1.5662   -4.7765 H   0  0  0  0  0  0  0  0  0  0  0  0
    0.8041    3.1109   -3.5500 H   0  0  0  0  0  0  0  0  0  0  0  0
    0.0031    6.4679    2.4351 H   0  0  0  0  0  0  0  0  0  0  0  0
   -0.5421    8.7419    2.6463 H   0  0  0  0  0  0  0  0  0  0  0  0
   -2.7290    9.5023    2.1794 H   0  0  0  0  0  0  0  0  0  0  0  0
   -4.3125    8.0157    1.3525 H   0  0  0  0  0  0  0  0  0  0  0  0
   -3.8068    5.7415    1.1017 H   0  0  0  0  0  0  0  0  0  0  0  0
   -1.2090    1.5118    2.5971 H   0  0  0  0  0  0  0  0  0  0  0  0
   -2.3529    0.2296    4.2292 H   0  0  0  0  0  0  0  0  0  0  0  0
   -4.1051    1.2074    5.4546 H   0  0  0  0  0  0  0  0  0  0  0  0
   -4.7115    3.4484    5.0933 H   0  0  0  0  0  0  0  0  0  0  0  0
   -3.5703    4.7337    3.4636 H   0  0  0  0  0  0  0  0  0  0  0  0
   -3.5906    2.2532    0.9901 H   0  0  0  0  0  0  0  0  0  0  0  0
   -4.8436    1.6689   -0.9073 H   0  0  0  0  0  0  0  0  0  0  0  0
   -4.4102    2.6835   -2.9451 H   0  0  0  0  0  0  0  0  0  0  0  0
   -2.8226    4.4443   -3.1095 H   0  0  0  0  0  0  0  0  0  0  0  0
   -1.5534    5.0319   -1.1713 H   0  0  0  0  0  0  0  0  0  0  0  0
  1  2  1  0  0  0  0
  2 22  1  0  0  0  0
  3  1  1  0  0  0  0
  4  1  1  0  0  0  0
  5  1  1  0  0  0  0
  6  4  1  0  0  0  0
  7  4  1  0  0  0  0
  8  5  1  0  0  0  0
  9  5  1  0  0  0  0
 10 11  1  0  0  0  0
 11  6  1  0  0  0  0
 12 11  1  0  0  0  0
 13 14  1  0  0  0  0
 14  7  1  0  0  0  0
 15 14  1  0  0  0  0
 16 17  1  0  0  0  0
 17  8  1  0  0  0  0
 18 17  1  0  0  0  0
 19 20  1  0  0  0  0
 20  9  1  0  0  0  0
 21 20  1  0  0  0  0
 22 23  4  0  0  0  0
 23 24  4  0  0  0  0
 24 25  4  0  0  0  0
 25 26  4  0  0  0  0
 26 27  4  0  0  0  0
 27 22  4  0  0  0  0
 28  2  1  0  0  0  0
 29 28  4  0  0  0  0
 30 29  4  0  0  0  0
 31 30  4  0  0  0  0
 32 31  4  0  0  0  0
 33 28  4  0  0  0  0
 34  2  1  0  0  0  0
 35 34  4  0  0  0  0
 36 35  4  0  0  0  0
 37 36  4  0  0  0  0
 38 37  4  0  0  0  0
 39 34  4  0  0  0  0
 40  3  1  0  0  0  0
 41 40  4  0  0  0  0
 42 41  4  0  0  0  0
 43 42  4  0  0  0  0
 44 43  4  0  0  0  0
 45 40  4  0  0  0  0
 46  3  1  0  0  0  0
 47 46  4  0  0  0  0
 48 47  4  0  0  0  0
 49 48  4  0  0  0  0
 50 49  4  0  0  0  0
 51 46  4  0  0  0  0
 52  3  1  0  0  0  0
 53 52  4  0  0  0  0
 54 53  4  0  0  0  0
 55 54  4  0  0  0  0
 56 55  4  0  0  0  0
 57 52  4  0  0  0  0
 58 10  1  0  0  0  0
 59 10  1  0  0  0  0
 60 10  1  0  0  0  0
 61 12  1  0  0  0  0
 62 12  1  0  0  0  0
 63 12  1  0  0  0  0
 64 13  1  0  0  0  0
 65 13  1  0  0  0  0
 66 13  1  0  0  0  0
 67 15  1  0  0  0  0
 68 15  1  0  0  0  0
 69 15  1  0  0  0  0
 70 16  1  0  0  0  0
 71 16  1  0  0  0  0
 72 16  1  0  0  0  0
 73 18  1  0  0  0  0
 74 18  1  0  0  0  0
 75 18  1  0  0  0  0
 76 19  1  0  0  0  0
 77 19  1  0  0  0  0
 78 19  1  0  0  0  0
 79 21  1  0  0  0  0
 80 21  1  0  0  0  0
 81 21  1  0  0  0  0
 82 23  1  0  0  0  0
 83 24  1  0  0  0  0
 84 25  1  0  0  0  0
 85 26  1  0  0  0  0
 86 27  1  0  0  0  0
 87 29  1  0  0  0  0
 88 30  1  0  0  0  0
 89 31  1  0  0  0  0
 90 32  1  0  0  0  0
 91 33  1  0  0  0  0
 92 35  1  0  0  0  0
 93 36  1  0  0  0  0
 94 37  1  0  0  0  0
 95 38  1  0  0  0  0
 96 39  1  0  0  0  0
 97 41  1  0  0  0  0
 98 42  1  0  0  0  0
 99 43  1  0  0  0  0
100 44  1  0  0  0  0
101 45  1  0  0  0  0
102 47  1  0  0  0  0
103 48  1  0  0  0  0
104 49  1  0  0  0  0
105 50  1  0  0  0  0
106 51  1  0  0  0  0
107 53  1  0  0  0  0
108 54  1  0  0  0  0
109 55  1  0  0  0  0
110 56  1  0  0  0  0
111 57  1  0  0  0  0
 11 14  1  0  0  0  0
 17 20  1  0  0  0  0
 32 33  4  0  0  0  0
 38 39  4  0  0  0  0
 44 45  4  0  0  0  0
 50 51  4  0  0  0  0
 56 57  4  0  0  0  0
M  END
$$$$
ZUSCUL

From CSD data. Using bond type 'Any'. No disordered atoms. Largest molecule.
105120  0  0  0  0  0  0  0  0999 V2000
    1.9967    3.6971    6.4513 Ir  0  0  0  0  0  0  0  0  0  0  0  0
    0.2755    3.6153    8.8205 Pt  0  0  0  0  0  0  0  0  0  0  0  0
    2.6230    5.9994    6.8464 P   0  0  0  0  0  0  0  0  0  0  0  0
    0.6854    3.6339    4.4308 P   0  0  0  0  0  0  0  0  0  0  0  0
   -0.2560    3.5055   11.0007 P   0  0  0  0  0  0  0  0  0  0  0  0
   -1.9699    4.2755    8.2638 Cl  0  0  0  0  0  0  0  0  0  0  0  0
    3.5663    3.3902    5.5132 C   0  0  0  0  0  0  0  0  0  0  0  0
    4.5612    3.1838    4.9428 O   0  0  0  0  0  0  0  0  0  0  0  0
    2.8603    2.1256    7.8566 B   0  0  0  0  0  0  0  0  0  0  0  0
    2.3983    3.5818    8.6779 B   0  0  0  0  0  0  0  0  0  0  0  0
    1.7969    2.0866    9.3135 B   0  0  0  0  0  0  0  0  0  0  0  0
    1.5839    0.8778    8.1487 B   0  0  0  0  0  0  0  0  0  0  0  0
    1.7847    1.4859    6.5921 B   0  0  0  0  0  0  0  0  0  0  0  0
   -1.5542    4.6623   11.5229 C   0  0  0  0  0  0  0  0  0  0  0  0
   -0.9440    1.8932   11.4474 C   0  0  0  0  0  0  0  0  0  0  0  0
    2.4408    7.1543    5.4892 C   0  0  0  0  0  0  0  0  0  0  0  0
    3.0472    6.8865    4.2625 C   0  0  0  0  0  0  0  0  0  0  0  0
    3.0711    7.7326    3.2093 C   0  0  0  0  0  0  0  0  0  0  0  0
    2.3616    8.9321    3.3296 C   0  0  0  0  0  0  0  0  0  0  0  0
    1.7613    9.2297    4.4927 C   0  0  0  0  0  0  0  0  0  0  0  0
    1.7732    8.3556    5.5699 C   0  0  0  0  0  0  0  0  0  0  0  0
    4.4350    6.1984    7.1677 C   0  0  0  0  0  0  0  0  0  0  0  0
    4.9921    7.4760    6.9426 C   0  0  0  0  0  0  0  0  0  0  0  0
    6.2872    7.7364    7.2622 C   0  0  0  0  0  0  0  0  0  0  0  0
    7.1077    6.7228    7.7604 C   0  0  0  0  0  0  0  0  0  0  0  0
    6.6014    5.4489    7.8601 C   0  0  0  0  0  0  0  0  0  0  0  0
    5.2600    5.2072    7.6041 C   0  0  0  0  0  0  0  0  0  0  0  0
    1.8701    6.8753    8.2965 C   0  0  0  0  0  0  0  0  0  0  0  0
    2.5948    7.5318    9.2500 C   0  0  0  0  0  0  0  0  0  0  0  0
    1.9336    8.1994   10.2671 C   0  0  0  0  0  0  0  0  0  0  0  0
    0.6312    8.2571   10.3255 C   0  0  0  0  0  0  0  0  0  0  0  0
   -0.1599    7.6248    9.4063 C   0  0  0  0  0  0  0  0  0  0  0  0
    0.4814    6.9348    8.3858 C   0  0  0  0  0  0  0  0  0  0  0  0
    1.7760    3.3754    2.9550 C   0  0  0  0  0  0  0  0  0  0  0  0
    2.3810    2.1647    2.7609 C   0  0  0  0  0  0  0  0  0  0  0  0
    3.2872    1.9694    1.7215 C   0  0  0  0  0  0  0  0  0  0  0  0
    3.5139    2.9904    0.8831 C   0  0  0  0  0  0  0  0  0  0  0  0
    2.9211    4.2085    1.0480 C   0  0  0  0  0  0  0  0  0  0  0  0
    2.0314    4.4149    2.0651 C   0  0  0  0  0  0  0  0  0  0  0  0
   -0.4024    5.0398    4.0048 C   0  0  0  0  0  0  0  0  0  0  0  0
   -1.0011    5.1235    2.7386 C   0  0  0  0  0  0  0  0  0  0  0  0
   -1.8618    6.1742    2.4688 C   0  0  0  0  0  0  0  0  0  0  0  0
   -2.1755    7.0594    3.4155 C   0  0  0  0  0  0  0  0  0  0  0  0
   -1.5855    7.0222    4.6697 C   0  0  0  0  0  0  0  0  0  0  0  0
   -0.7106    5.9864    4.8999 C   0  0  0  0  0  0  0  0  0  0  0  0
   -0.5468    2.2986    4.3140 C   0  0  0  0  0  0  0  0  0  0  0  0
   -0.8347    1.6105    3.1337 C   0  0  0  0  0  0  0  0  0  0  0  0
   -1.7853    0.6751    3.0667 C   0  0  0  0  0  0  0  0  0  0  0  0
   -2.5180    0.3310    4.1577 C   0  0  0  0  0  0  0  0  0  0  0  0
   -2.2867    1.0024    5.3603 C   0  0  0  0  0  0  0  0  0  0  0  0
   -1.2946    1.9713    5.4634 C   0  0  0  0  0  0  0  0  0  0  0  0
    1.0609    3.8254   12.1569 C   0  0  0  0  0  0  0  0  0  0  0  0
    1.9411    4.8501   11.8580 C   0  0  0  0  0  0  0  0  0  0  0  0
    2.9891    5.2090   12.7307 C   0  0  0  0  0  0  0  0  0  0  0  0
    3.0812    4.5749   13.9712 C   0  0  0  0  0  0  0  0  0  0  0  0
    2.2168    3.5799   14.2323 C   0  0  0  0  0  0  0  0  0  0  0  0
    1.1894    3.2043   13.3475 C   0  0  0  0  0  0  0  0  0  0  0  0
    3.8199    1.8467    7.7999 H   0  0  0  0  0  0  0  0  0  0  0  0
    2.7951    4.3759    9.2568 H   0  0  0  0  0  0  0  0  0  0  0  0
    2.0402    2.0568   10.2963 H   0  0  0  0  0  0  0  0  0  0  0  0
    1.5402   -0.3905    8.6435 H   0  0  0  0  0  0  0  0  0  0  0  0
    2.0146    0.7141    5.9788 H   0  0  0  0  0  0  0  0  0  0  0  0
    0.4465    4.0932    6.9495 H   0  0  0  0  0  0  0  0  0  0  0  0
    0.7697    1.0805    7.1625 H   0  0  0  0  0  0  0  0  0  0  0  0
   -2.1496    4.2197   12.1311 H   0  0  0  0  0  0  0  0  0  0  0  0
   -2.0454    4.9617   10.7533 H   0  0  0  0  0  0  0  0  0  0  0  0
   -1.1521    5.4173   11.9593 H   0  0  0  0  0  0  0  0  0  0  0  0
   -1.6528    1.6682   10.8392 H   0  0  0  0  0  0  0  0  0  0  0  0
   -1.2892    1.9304   12.3425 H   0  0  0  0  0  0  0  0  0  0  0  0
   -0.2548    1.2255   11.3958 H   0  0  0  0  0  0  0  0  0  0  0  0
    3.4672    6.0645    4.1611 H   0  0  0  0  0  0  0  0  0  0  0  0
    3.5402    7.5243    2.4345 H   0  0  0  0  0  0  0  0  0  0  0  0
    2.3080    9.5179    2.6097 H   0  0  0  0  0  0  0  0  0  0  0  0
    1.3251   10.0461    4.5786 H   0  0  0  0  0  0  0  0  0  0  0  0
    1.3270    8.5844    6.3516 H   0  0  0  0  0  0  0  0  0  0  0  0
    4.4651    8.1473    6.5698 H   0  0  0  0  0  0  0  0  0  0  0  0
    6.6291    8.5955    7.1488 H   0  0  0  0  0  0  0  0  0  0  0  0
    7.9813    6.9051    8.0198 H   0  0  0  0  0  0  0  0  0  0  0  0
    7.1609    4.7460    8.1023 H   0  0  0  0  0  0  0  0  0  0  0  0
    4.9190    4.3517    7.7329 H   0  0  0  0  0  0  0  0  0  0  0  0
    3.5239    7.5299    9.2173 H   0  0  0  0  0  0  0  0  0  0  0  0
    2.4330    8.6216   10.9285 H   0  0  0  0  0  0  0  0  0  0  0  0
    0.2297    8.7406   11.0110 H   0  0  0  0  0  0  0  0  0  0  0  0
   -1.0870    7.6564    9.4613 H   0  0  0  0  0  0  0  0  0  0  0  0
   -0.0311    6.4997    7.7415 H   0  0  0  0  0  0  0  0  0  0  0  0
    2.1855    1.4599    3.3330 H   0  0  0  0  0  0  0  0  0  0  0  0
    3.7215    1.1549    1.6115 H   0  0  0  0  0  0  0  0  0  0  0  0
    4.0929    2.8639    0.1667 H   0  0  0  0  0  0  0  0  0  0  0  0
    3.1248    4.9040    0.4656 H   0  0  0  0  0  0  0  0  0  0  0  0
    1.6040    5.2369    2.1596 H   0  0  0  0  0  0  0  0  0  0  0  0
   -0.8219    4.4819    2.0891 H   0  0  0  0  0  0  0  0  0  0  0  0
   -2.2255    6.2635    1.6167 H   0  0  0  0  0  0  0  0  0  0  0  0
   -2.8057    7.7178    3.2316 H   0  0  0  0  0  0  0  0  0  0  0  0
   -1.7708    7.6620    5.3191 H   0  0  0  0  0  0  0  0  0  0  0  0
   -0.3028    5.9399    5.7348 H   0  0  0  0  0  0  0  0  0  0  0  0
   -0.3475    1.8113    2.3675 H   0  0  0  0  0  0  0  0  0  0  0  0
   -1.9504    0.2511    2.2558 H   0  0  0  0  0  0  0  0  0  0  0  0
   -3.1607   -0.3385    4.1061 H   0  0  0  0  0  0  0  0  0  0  0  0
   -2.8053    0.7997    6.1042 H   0  0  0  0  0  0  0  0  0  0  0  0
   -1.1280    2.3953    6.2743 H   0  0  0  0  0  0  0  0  0  0  0  0
    1.8387    5.3150   11.0591 H   0  0  0  0  0  0  0  0  0  0  0  0
    3.6073    5.8581   12.4851 H   0  0  0  0  0  0  0  0  0  0  0  0
    3.7212    4.8334   14.5965 H   0  0  0  0  0  0  0  0  0  0  0  0
    2.3019    3.1187   15.0364 H   0  0  0  0  0  0  0  0  0  0  0  0
    0.5978    2.5255   13.5829 H   0  0  0  0  0  0  0  0  0  0  0  0
  1  2  1  0  0  0  0
  2  5  1  0  0  0  0
  3  1  1  0  0  0  0
  4  1  1  0  0  0  0
  5 14  1  0  0  0  0
  6  2  1  0  0  0  0
  7  1  1  0  0  0  0
  8  7  3  0  0  0  0
  9  1  1  0  0  0  0
 10  1  1  0  0  0  0
 11  2  1  0  0  0  0
 12  9  1  0  0  0  0
 13  1  1  0  0  0  0
 14 65  1  0  0  0  0
 15  5  1  0  0  0  0
 16  3  1  0  0  0  0
 17 16  4  0  0  0  0
 18 17  4  0  0  0  0
 19 18  4  0  0  0  0
 20 19  4  0  0  0  0
 21 16  4  0  0  0  0
 22  3  1  0  0  0  0
 23 22  4  0  0  0  0
 24 23  4  0  0  0  0
 25 24  4  0  0  0  0
 26 25  4  0  0  0  0
 27 22  4  0  0  0  0
 28  3  1  0  0  0  0
 29 28  4  0  0  0  0
 30 29  4  0  0  0  0
 31 30  4  0  0  0  0
 32 31  4  0  0  0  0
 33 28  4  0  0  0  0
 34  4  1  0  0  0  0
 35 34  4  0  0  0  0
 36 35  4  0  0  0  0
 37 36  4  0  0  0  0
 38 37  4  0  0  0  0
 39 34  4  0  0  0  0
 40  4  1  0  0  0  0
 41 40  4  0  0  0  0
 42 41  4  0  0  0  0
 43 42  4  0  0  0  0
 44 43  4  0  0  0  0
 45 40  4  0  0  0  0
 46  4  1  0  0  0  0
 47 46  4  0  0  0  0
 48 47  4  0  0  0  0
 49 48  4  0  0  0  0
 50 49  4  0  0  0  0
 51 46  4  0  0  0  0
 52  5  1  0  0  0  0
 53 52  4  0  0  0  0
 54 53  4  0  0  0  0
 55 54  4  0  0  0  0
 56 55  4  0  0  0  0
 57 52  4  0  0  0  0
 58  9  1  0  0  0  0
 59 10  1  0  0  0  0
 60 11  1  0  0  0  0
 61 12  1  0  0  0  0
 62 13  1  0  0  0  0
 63  1  1  0  0  0  0
 64 12  1  0  0  0  0
 66 14  1  0  0  0  0
 67 14  1  0  0  0  0
 68 15  1  0  0  0  0
 69 15  1  0  0  0  0
 70 15  1  0  0  0  0
 71 17  1  0  0  0  0
 72 18  1  0  0  0  0
 73 19  1  0  0  0  0
 74 20  1  0  0  0  0
 75 21  1  0  0  0  0
 76 23  1  0  0  0  0
 77 24  1  0  0  0  0
 78 25  1  0  0  0  0
 79 26  1  0  0  0  0
 80 27  1  0  0  0  0
 81 29  1  0  0  0  0
 82 30  1  0  0  0  0
 83 31  1  0  0  0  0
 84 32  1  0  0  0  0
 85 33  1  0  0  0  0
 86 35  1  0  0  0  0
 87 36  1  0  0  0  0
 88 37  1  0  0  0  0
 89 38  1  0  0  0  0
 90 39  1  0  0  0  0
 91 41  1  0  0  0  0
 92 42  1  0  0  0  0
 93 43  1  0  0  0  0
 94 44  1  0  0  0  0
 95 45  1  0  0  0  0
 96 47  1  0  0  0  0
 97 48  1  0  0  0  0
 98 49  1  0  0  0  0
 99 50  1  0  0  0  0
100 51  1  0  0  0  0
101 53  1  0  0  0  0
102 54  1  0  0  0  0
103 55  1  0  0  0  0
104 56  1  0  0  0  0
105 57  1  0  0  0  0
  2 10  1  0  0  0  0
  2 63  1  0  0  0  0
  9 10  1  0  0  0  0
  9 11  1  0  0  0  0
  9 13  1  0  0  0  0
 10 11  1  0  0  0  0
 11 12  1  0  0  0  0
 12 13  1  0  0  0  0
 13 64  1  0  0  0  0
 20 21  4  0  0  0  0
 26 27  4  0  0  0  0
 32 33  4  0  0  0  0
 38 39  4  0  0  0  0
 44 45  4  0  0  0  0
 50 51  4  0  0  0  0
 56 57  4  0  0  0  0
M  END
$$$$
ZUXFUT

From CSD data. Using bond type 'Any'. No disordered atoms. Largest molecule.
 40 47  0  0  0  0  0  0  0  0999 V2000
    7.0448    8.2282    3.7105 Zr  0  0  0  0  0  0  0  0  0  0  0  0
    8.7481   10.6775    1.6239 P   0  0  0  0  0  0  0  0  0  0  0  0
    9.2852    8.9015    9.5412 P   0  0  0  0  0  0  0  0  0  0  0  0
    8.1589   11.1220    4.7473 Si  0  0  0  0  0  0  0  0  0  0  0  0
    9.2198    8.7286    6.2762 Si  0  0  0  0  0  0  0  0  0  0  0  0
    6.4024    9.5037    2.3292 O   0  0  0  0  0  0  0  0  0  0  0  0
    8.2271    9.4155    5.0324 N   0  0  0  0  0  0  0  0  0  0  0  0
    4.6617    8.4651    4.5369 C   0  0  0  0  0  0  0  0  0  0  0  0
    4.6657    7.3786    3.7786 C   0  0  0  0  0  0  0  0  0  0  0  0
    5.3841    6.4137    4.4031 C   0  0  0  0  0  0  0  0  0  0  0  0
    5.7759    6.9599    5.5541 C   0  0  0  0  0  0  0  0  0  0  0  0
    5.3562    8.1843    5.6349 C   0  0  0  0  0  0  0  0  0  0  0  0
    7.7159    9.2603    1.8223 C   0  0  0  0  0  0  0  0  0  0  0  0
    8.0271   11.8473    0.4122 C   0  0  0  0  0  0  0  0  0  0  0  0
    6.7259   12.4337    0.9371 C   0  0  0  0  0  0  0  0  0  0  0  0
    9.0180   12.9539   -0.0051 C   0  0  0  0  0  0  0  0  0  0  0  0
   10.3329   10.1054    0.9403 C   0  0  0  0  0  0  0  0  0  0  0  0
   10.1855    9.4817   -0.4545 C   0  0  0  0  0  0  0  0  0  0  0  0
   11.0365    9.1511    1.8999 C   0  0  0  0  0  0  0  0  0  0  0  0
    9.0756   11.5665    3.1488 C   0  0  0  0  0  0  0  0  0  0  0  0
    6.4121   11.7725    4.6387 C   0  0  0  0  0  0  0  0  0  0  0  0
    8.9954   12.2056    6.0329 C   0  0  0  0  0  0  0  0  0  0  0  0
    9.2744    6.8583    6.2519 C   0  0  0  0  0  0  0  0  0  0  0  0
   11.0007    9.2642    6.1033 C   0  0  0  0  0  0  0  0  0  0  0  0
    8.4356    9.1952    7.9497 C   0  0  0  0  0  0  0  0  0  0  0  0
   10.2573   10.4264    9.8100 C   0  0  0  0  0  0  0  0  0  0  0  0
    9.4539   11.6662   10.0937 C   0  0  0  0  0  0  0  0  0  0  0  0
   11.4713   10.3948   10.2248 C   0  0  0  0  0  0  0  0  0  0  0  0
    7.9360    8.8953   10.7738 C   0  0  0  0  0  0  0  0  0  0  0  0
    8.4687    8.7880   12.2214 C   0  0  0  0  0  0  0  0  0  0  0  0
    6.9291    7.8327   10.5113 C   0  0  0  0  0  0  0  0  0  0  0  0
    8.2628    6.1713    2.7026 B   0  0  0  0  0  0  0  0  0  0  0  0
   10.3851    7.3268    9.6922 B   0  0  0  0  0  0  0  0  0  0  0  0
    8.7264    7.0039    3.4582 H   0  0  0  0  0  0  0  0  0  0  0  0
    7.1355    6.4291    2.2645 H   0  0  0  0  0  0  0  0  0  0  0  0
    8.8832    6.1895    1.9647 H   0  0  0  0  0  0  0  0  0  0  0  0
    8.2486    5.1739    3.2307 H   0  0  0  0  0  0  0  0  0  0  0  0
   10.8218    7.1764   10.7334 H   0  0  0  0  0  0  0  0  0  0  0  0
    9.7518    6.3811    9.4754 H   0  0  0  0  0  0  0  0  0  0  0  0
   11.1960    7.3776    8.8865 H   0  0  0  0  0  0  0  0  0  0  0  0
  1  6  8  0  0  0  0
  2 13  1  0  0  0  0
  3 25  1  0  0  0  0
  4  7  1  0  0  0  0
  5  7  1  0  0  0  0
  6 13  2  0  0  0  0
  7  1  1  0  0  0  0
  8  1  8  0  0  0  0
  9  1  8  0  0  0  0
 10  1  8  0  0  0  0
 11  1  8  0  0  0  0
 12  1  8  0  0  0  0
 13  1  8  0  0  0  0
 14  2  1  0  0  0  0
 15 14  1  0  0  0  0
 16 14  1  0  0  0  0
 17  2  1  0  0  0  0
 18 17  1  0  0  0  0
 19 17  1  0  0  0  0
 20  2  1  0  0  0  0
 21  4  1  0  0  0  0
 22  4  1  0  0  0  0
 23  5  1  0  0  0  0
 24  5  1  0  0  0  0
 25  5  1  0  0  0  0
 26  3  1  0  0  0  0
 27 26  1  0  0  0  0
 28 26  1  0  0  0  0
 29  3  1  0  0  0  0
 30 29  1  0  0  0  0
 31 29  1  0  0  0  0
 32 34  1  0  0  0  0
 33  3  1  0  0  0  0
 34  1  1  0  0  0  0
 35  1  1  0  0  0  0
 36 32  1  0  0  0  0
 37 32  1  0  0  0  0
 38 33  1  0  0  0  0
 39 33  1  0  0  0  0
 40 33  1  0  0  0  0
  4 20  1  0  0  0  0
  8  9  4  0  0  0  0
  8 12  4  0  0  0  0
  9 10  4  0  0  0  0
 10 11  4  0  0  0  0
 11 12  4  0  0  0  0
 32 35  1  0  0  0  0
M  END
$$$$
